
     RDKit          2D

 26 29  0  0  1  0  0  0  0  0999 V2000
   -5.3020   -1.9240    0.0000 C   0  0  0  0  0  0  0  0  0  0  0  0
    5.4576    1.0963    0.0000 C   0  0  0  0  0  0  0  0  0  0  0  0
    4.1586    3.3463    0.0000 C   0  0  0  0  0  0  0  0  0  0  0  0
   -3.3420   -2.3091    0.0000 C   0  0  0  0  0  0  0  0  0  0  0  0
   -1.5803   -1.5248    0.0000 C   0  0  0  0  0  0  0  0  0  0  0  0
   -4.4203   -0.7104    0.0000 C   0  0  0  0  0  0  0  0  0  0  0  0
   -6.0715    0.8098    0.0000 C   0  0  0  0  0  0  0  0  0  0  0  0
   -6.0715    2.3098    0.0000 C   0  0  0  0  0  0  0  0  0  0  0  0
   -4.7724    0.0598    0.0000 C   0  0  0  0  0  0  0  0  0  0  0  0
   -4.7724    3.0598    0.0000 C   0  0  0  0  0  0  0  0  0  0  0  0
   -1.1651   -0.8672    0.0000 C   0  0  0  0  0  0  0  0  0  0  0  0
    4.1586    1.8463    0.0000 C   0  0  0  0  0  0  0  0  0  0  0  0
   -3.4734    0.8098    0.0000 C   0  0  0  0  0  0  0  0  0  0  0  0
   -3.4734    2.3098    0.0000 C   0  0  0  0  0  0  0  0  0  0  0  0
    0.2614   -0.4037    0.0000 C   0  0  0  0  0  0  0  0  0  0  0  0
    2.8595    1.0963    0.0000 C   0  0  0  0  0  0  0  0  0  0  0  0
    1.5605   -1.1537    0.0000 C   0  0  0  0  0  0  0  0  0  0  0  0
    1.5605    1.8463    0.0000 C   0  0  0  0  0  0  0  0  0  0  0  0
   -1.1651    1.5598    0.0000 C   0  0  0  0  0  0  0  0  0  0  0  0
   -2.9285   -0.8672    0.0000 C   0  0  0  0  0  0  0  0  0  0  0  0
   -2.0468    0.3463    0.0000 C   0  0  0  0  0  0  0  0  0  0  0  0
   -2.0468    2.7733    0.0000 N   0  0  0  0  0  0  0  0  0  0  0  0
    2.8595   -0.4037    0.0000 N   0  0  0  0  0  0  0  0  0  0  0  0
    0.2614    1.0963    0.0000 N   0  0  0  0  0  0  0  0  0  0  0  0
    1.5605   -2.6537    0.0000 O   0  0  0  0  0  0  0  0  0  0  0  0
    1.5605    3.3463    0.0000 O   0  0  0  0  0  0  0  0  0  0  0  0
  6  1  2  0
  8  7  2  0
  9  7  1  0
 10  8  1  0
 12  2  1  0
 12  3  1  0
 13  9  2  0
 14 10  2  0
 14 13  1  0
 15 11  1  6
 16 12  1  1
 17 15  1  0
 18 16  1  0
 20  4  1  0
 20  5  1  0
 20  6  1  0
 21 11  1  0
 21 13  1  0
 21 19  1  0
 21 20  1  6
 22 14  1  0
 19 22  1  1
 23 16  1  0
 23 17  2  0
 15 24  1  0
 24 18  1  0
 24 19  1  0
 25 17  1  0
 26 18  2  0
M  END
>  <NAME>  (1) 
Brevicompanine C

>  <SYNONYMS>  (1) 


>  <SPECTRUM TYPE>  (1) 
MS1

>  <INSTRUMENT TYPE>  (1) 
EI-B

>  <INSTRUMENT>  (1) 
Hitachi M80 mass spectrometers

>  <ION MODE>  (1) 
P

>  <INCHIKEY>  (1) 
GFKUCJKLCHSSJN-JRYVEOFUSA-N

>  <FORMULA>  (1) 
C21H27N3O2

>  <EXACT MASS>  (1) 
353.210327104

>  <MW>  (1) 
353

>  <ID>  (1) 
TT000166

>  <CONTRIBUTOR>  (1) 
Yasuo Kimura, {Faculty of Agriculture, Tottori University

>  <COMMENT>  (1) 
compound class=Natural Product; Diketopiperazine
SMILES=CC(C)[C@@H]1C(=O)N2[C@@H](C[C@@]3([C@H]2NC4=CC=CC=C43)C(C)(C)C=C)C(=O)N1
pubchem cid=5325980
InChI=InChI=1S/C21H27N3O2/c1-6-20(4,5)21-11-15-17(25)23-16(12(2)3)18(26)24(15)19(21)22-14-10-8-7-9-13(14)21/h6-10,12,15-16,19,22H,1,11H2,2-5H3,(H,23,25)/t15-,16+,19-,21+/m0/s1
computed SMILES=O=C1N2C(C(O)=NC1C(C)C)CC3(C=4C=CC=CC4NC23)C(C=C)(C)C
accession=TT000166
date=2016.01.19 (Created 2008.10.21, modified 2011.05.06)
author=Kimura Y, Sawada A, Faculty of Agriculture, Tottori University
license=CC BY-SA
publication=Kimura, Y., Sawada, A., Kuramata, M., Kusano, M., Fujioka, S., Kawano, T., and Shimada, A. 2005. Brevicompanine C, Cyclo-(D-Ile-L-Trp), and Cyclo-(D-Leu-L-Trp), Plant Growth Regulators from Penicillium brevi-compactum. J. Nat. Prod., 68 (2):237 -239. doi:10.1021/np040178p
comment=[Analytical] Sample was directly injected
exact mass=353.21033
ionization potential=70 eV
computed spectral entropy=2.634548956636915
computed normalized entropy=0.6358830042033121
SPLASH=splash10-001i-1592000000-ae7e57ca2b2b3901637b
submitter=submitter = Yasuo Kimura (Faculty of Agriculture, Tottori University)
MoNA Rating=3.75

>  <NUM PEAKS>  (1) 
63

>  <MASS SPECTRAL PEAKS>  (1) 
27.0 0.300300
28.0 5.205205
32.0 1.401401
39.0 0.400400
41.0 3.703704
43.0 1.101101
44.0 0.900901
50.0 0.200200
55.0 1.201201
57.0 0.200200
60.0 0.400400
69.0 2.602603
70.0 0.300300
72.0 3.703704
77.0 0.900901
85.0 0.800801
102.0 0.300300
103.0 1.401401
115.0 0.800801
116.0 0.400400
117.0 0.400400
128.0 0.800801
129.0 1.401401
130.0 20.920921
131.0 2.302302
132.0 1.201201
140.0 0.200200
142.0 0.300300
143.0 0.900901
149.0 0.300300
154.0 0.500501
155.0 1.201201
156.0 2.202202
157.0 25.725726
158.0 5.005005
159.0 0.900901
167.0 1.201201
168.0 0.600601
169.0 0.600601
170.0 0.900901
171.0 0.200200
182.0 0.200200
184.0 1.301301
185.0 5.105105
186.0 0.600601
196.0 0.200200
198.0 1.801802
199.0 0.300300
224.0 0.300300
241.0 0.900901
256.0 12.112112
257.0 2.102102
268.0 0.300300
283.0 2.602603
284.0 100.000000
285.0 19.719720
286.0 2.302302
352.0 0.700701
353.0 25.125125
354.0 6.206206
355.0 1.001001
392.0 0.300300
410.0 0.300300

$$$$

     RDKit          2D

 21 22  0  0  1  0  0  0  0  0999 V2000
   -6.1802    4.5780    0.0000 C   0  0  0  0  0  0  0  0  0  0  0  0
   -7.6800    6.0800    0.0000 C   0  0  0  0  0  0  0  0  0  0  0  0
   -3.5900    6.0800    0.0000 C   0  0  0  0  0  0  0  0  0  0  0  0
   -7.6800    4.5800    0.0000 C   0  0  0  0  0  0  0  0  0  0  0  0
   -3.5900    4.5800    0.0000 C   0  0  0  0  0  0  0  0  0  0  0  0
   -6.3800    3.8300    0.0000 C   0  0  0  0  0  0  0  0  0  0  0  0
   -8.9790   -0.6700    0.0000 C   0  0  0  0  0  0  0  0  0  0  0  0
   -3.5900    0.0800    0.0000 C   0  0  0  0  0  0  0  0  0  0  0  0
  -10.2781    1.5800    0.0000 C   0  0  0  0  0  0  0  0  0  0  0  0
   -4.8800    3.8300    0.0000 C   0  0  0  0  0  0  0  0  0  0  0  0
   -7.6800    0.0800    0.0000 C   0  0  0  0  0  0  0  0  0  0  0  0
  -10.2781    0.0800    0.0000 C   0  0  0  0  0  0  0  0  0  0  0  0
   -6.3800    2.3300    0.0000 C   0  0  0  0  0  0  0  0  0  0  0  0
   -8.9790    2.3300    0.0000 C   0  0  0  0  0  0  0  0  0  0  0  0
   -3.5900    1.5800    0.0000 C   0  0  0  0  0  0  0  0  0  0  0  0
   -7.6800    1.5800    0.0000 C   0  0  0  0  0  0  0  0  0  0  0  0
  -11.5771   -0.6700    0.0000 O   0  0  0  0  0  0  0  0  0  0  0  0
   -5.0811    1.5798    0.0000 O   0  0  0  0  0  0  0  0  0  0  0  0
   -8.9790    3.8300    0.0000 O   0  0  0  0  0  0  0  0  0  0  0  0
   -2.2898    2.3280    0.0000 O   0  0  0  0  0  0  0  0  0  0  0  0
   -4.8800    2.3300    0.0000 O   0  0  0  0  0  0  0  0  0  0  0  0
  3  2  1  0
  4  2  1  0
  5  3  1  0
  4  6  2  0
 10  1  1  1
 10  5  1  0
 11  7  1  0
 11  8  1  0
 12  7  2  0
 12  9  1  0
 13  6  1  0
 14  9  2  0
 15  8  1  0
 16 11  2  0
 16 13  1  0
 16 14  1  0
 17 12  1  0
 18 13  2  0
 19 14  1  0
 20 15  2  0
 21 10  1  0
 21 15  1  0
M  END
>  <NAME>  (2) 
alpha,beta-Dehydrocurvularin

>  <SYNONYMS>  (2) 
(4S,8E)-4beta-Methyl-11,13-dihydroxy-1,4,5,6,7,10-hexahydro-2H-3-benzoxacyclododecin-2,10-dione

>  <SPECTRUM TYPE>  (2) 
MS1

>  <INSTRUMENT TYPE>  (2) 
EI-B

>  <INSTRUMENT>  (2) 
Unknown

>  <ION MODE>  (2) 
P

>  <INCHIKEY>  (2) 
AVIRMQMUBGNCKS-RWCYGVJQSA-N

>  <FORMULA>  (2) 
C16H18O5

>  <EXACT MASS>  (2) 
290.115423676

>  <MW>  (2) 
290

>  <ID>  (2) 
TT000153

>  <CONTRIBUTOR>  (2) 
Yasuo Kimura, {Faculty of Agriculture, Tottori University

>  <COMMENT>  (2) 
compound class=Natural Product; Curvularin
SMILES=C[C@H]1CCC/C=C/C(=O)C2=C(C=C(C=C2CC(=O)O1)O)O
chemspider=4942635
pubchem cid=6438143
InChI=InChI=1S/C16H18O5/c1-10-5-3-2-4-6-13(18)16-11(8-15(20)21-10)7-12(17)9-14(16)19/h4,6-7,9-10,17,19H,2-3,5,8H2,1H3/b6-4+/t10-/m0/s1
computed SMILES=O=C1C=CCCCC(OC(=O)CC=2C=C(O)C=C(O)C12)C
accession=TT000153
date=2016.01.19 (Created 2008.10.21, modified 2011.05.06)
author=Kimura Y, Kusano M, Faculty of Agriculture, Tottori University
license=CC BY-SA
publication=Kusano, M., Nakagami, K., Fujioka, S., Kawano, T., Shimada, A., and Kimura, Y. 2003. beta,gamma-Dehydrocurvularin and Related Compounds as Nematicides of Pratylenchus penetrans from the Fungus Aspergillus sp. Biosci. Biotechnol. Biochem., 67 (6):1413 -1416.
comment=[Analytical] Sample was directly injected
exact mass=290.11542
ionization potential=70 eV
computed spectral entropy=3.807915063562138
computed normalized entropy=0.6947940042800964
SPLASH=splash10-014m-3910000000-beee4ad69248060c4eaa
submitter=submitter = Yasuo Kimura (Faculty of Agriculture, Tottori University)
MoNA Rating=3.75

>  <NUM PEAKS>  (2) 
240

>  <MASS SPECTRAL PEAKS>  (2) 
41.08 5.405405
42.11 1.001001
43.09 2.302302
44.08 0.800801
45.07 0.600601
46.05 0.100100
47.04 0.100100
50.04 0.400400
51.03 1.401401
52.06 0.800801
53.09 3.803804
54.05 28.128128
54.98 6.006006
56.05 0.700701
57.04 1.101101
58.03 0.200200
59.01 0.200200
59.96 0.500501
60.50 0.100100
60.95 0.200200
61.91 0.200200
62.95 0.900901
63.95 0.600601
64.95 4.904905
65.95 3.803804
67.05 10.710711
68.00 2.402402
69.00 10.310310
70.00 0.600601
71.09 0.700701
71.99 0.100100
72.94 0.700701
73.53 0.100100
73.98 0.300300
74.98 0.800801
75.97 0.500501
77.06 3.003003
78.05 0.700701
79.10 2.302302
80.00 0.800801
81.13 19.719720
82.07 1.601602
83.06 0.700701
84.05 0.200200
84.95 0.700701
86.08 0.100100
86.94 0.300300
87.93 0.200200
88.96 0.700701
89.91 0.200200
90.96 2.502503
91.97 1.201201
92.98 2.202202
93.99 2.502503
95.00 2.402402
96.08 27.127127
97.02 3.103103
98.03 0.300300
99.04 0.600601
100.05 0.100100
101.05 0.300300
101.96 0.900901
102.97 1.101101
104.06 0.200200
105.07 0.900901
105.94 0.400400
106.99 1.301301
107.99 0.800801
108.45 0.100100
108.95 0.600601
109.95 0.400400
111.01 2.102102
112.07 0.200200
113.09 0.300300
114.01 0.300300
115.02 2.302302
116.08 0.500501
117.05 0.400400
118.11 0.700701
119.08 0.800801
120.05 2.402402
121.01 14.314314
121.99 6.406406
122.99 2.702703
123.94 0.400400
125.07 0.200200
126.06 0.100100
126.97 0.600601
127.92 0.900901
128.91 0.900901
129.91 0.500501
130.93 1.901902
131.94 0.600601
133.01 0.600601
133.98 0.800801
135.00 1.001001
136.02 0.500501
136.94 4.604605
138.01 1.201201
139.03 0.400400
140.14 0.200200
141.05 0.400400
142.15 0.100100
143.06 0.400400
144.06 0.500501
145.07 0.600601
145.98 0.800801
146.94 3.703704
147.99 4.204204
148.95 3.703704
150.01 24.224224
150.93 4.704705
151.94 0.500501
152.96 0.300300
154.07 0.100100
155.09 0.200200
156.02 0.100100
156.99 0.700701
158.06 0.200200
159.07 0.400400
160.05 2.002002
161.05 3.203203
161.96 1.001001
162.97 4.804805
163.97 4.104104
164.98 1.301301
166.00 100.000000
167.03 55.655656
167.99 5.705706
169.00 0.700701
170.00 0.100100
171.01 0.200200
171.94 0.400400
172.95 1.601602
173.96 1.701702
175.02 5.505506
175.94 16.616617
177.05 7.207207
178.06 1.301301
179.03 0.900901
180.05 0.200200
181.00 0.400400
182.05 0.100100
183.15 0.100100
184.06 0.100100
185.02 0.800801
185.98 0.300300
186.99 0.600601
187.99 0.500501
189.00 2.602603
190.00 2.802803
191.00 0.700701
191.99 3.603604
192.99 1.101101
193.99 85.285285
195.07 65.765766
195.97 7.007007
196.88 1.001001
197.92 0.200200
198.91 0.400400
199.91 0.200200
200.92 1.601602
201.94 1.301301
202.86 7.107107
203.87 2.102102
204.84 4.204204
205.99 1.101101
207.00 0.200200
207.93 0.300300
209.03 0.100100
210.05 0.100100
211.05 0.300300
212.95 0.400400
213.95 0.300300
214.95 0.800801
215.95 0.600601
216.95 1.001001
217.95 2.002002
218.95 0.700701
220.00 0.600601
220.96 1.701702
221.97 0.200200
222.98 0.200200
224.08 0.100100
225.05 0.100100
226.01 0.100100
227.06 0.400400
228.07 0.300300
229.08 1.701702
230.05 0.700701
230.99 1.001001
232.03 0.600601
233.11 0.600601
233.96 0.600601
235.00 0.300300
236.08 0.100100
241.05 0.200200
242.00 0.100100
242.95 0.600601
243.91 0.600601
245.00 0.400400
245.91 0.600601
247.09 1.601602
248.05 1.601602
249.09 0.300300
250.09 0.100100
253.92 0.100100
254.95 0.100100
255.90 0.200200
256.17 0.400400
256.98 0.700701
258.02 0.300300
259.10 0.100100
260.05 0.200200
261.00 0.200200
262.09 0.300300
263.05 0.100100
268.14 0.100100
269.00 0.100100
270.05 0.100100
271.13 0.200200
272.08 1.601602
273.03 0.300300
273.98 0.700701
275.16 0.800801
276.06 0.200200
277.06 0.100100
278.05 0.100100
279.19 0.100100
281.00 0.100100
282.90 0.100100
284.16 0.100100
286.06 0.100100
287.06 0.100100
288.10 3.603604
289.05 1.001001
290.07 26.326326
290.97 4.804805
292.05 1.101101
293.09 0.200200

$$$$

     RDKit          2D

 22 23  0  0  1  0  0  0  0  0999 V2000
   -6.1802    4.5780    0.0000 C   0  0  0  0  0  0  0  0  0  0  0  0
   -3.5900    4.5800    0.0000 C   0  0  0  0  0  0  0  0  0  0  0  0
   -3.5900    6.0800    0.0000 C   0  0  0  0  0  0  0  0  0  0  0  0
   -7.6800    4.5800    0.0000 C   0  0  0  0  0  0  0  0  0  0  0  0
   -6.3800    3.8300    0.0000 C   0  0  0  0  0  0  0  0  0  0  0  0
   -8.9790   -0.6700    0.0000 C   0  0  0  0  0  0  0  0  0  0  0  0
   -3.5900    0.0800    0.0000 C   0  0  0  0  0  0  0  0  0  0  0  0
  -10.2781    1.5800    0.0000 C   0  0  0  0  0  0  0  0  0  0  0  0
   -4.8800    3.8300    0.0000 C   0  0  0  0  0  0  0  0  0  0  0  0
   -7.6800    0.0800    0.0000 C   0  0  0  0  0  0  0  0  0  0  0  0
   -7.6800    6.0800    0.0000 C   0  0  0  0  0  0  0  0  0  0  0  0
  -10.2781    0.0800    0.0000 C   0  0  0  0  0  0  0  0  0  0  0  0
   -6.3800    2.3300    0.0000 C   0  0  0  0  0  0  0  0  0  0  0  0
   -8.9790    2.3300    0.0000 C   0  0  0  0  0  0  0  0  0  0  0  0
   -3.5900    1.5800    0.0000 C   0  0  0  0  0  0  0  0  0  0  0  0
   -7.6800    1.5800    0.0000 C   0  0  0  0  0  0  0  0  0  0  0  0
   -8.7407    7.1407    0.0000 O   0  0  0  0  0  0  0  0  0  0  0  0
  -11.5771   -0.6700    0.0000 O   0  0  0  0  0  0  0  0  0  0  0  0
   -5.0811    1.5798    0.0000 O   0  0  0  0  0  0  0  0  0  0  0  0
   -8.9790    3.8300    0.0000 O   0  0  0  0  0  0  0  0  0  0  0  0
   -2.2898    2.3280    0.0000 O   0  0  0  0  0  0  0  0  0  0  0  0
   -4.8800    2.3300    0.0000 O   0  0  0  0  0  0  0  0  0  0  0  0
  3  2  1  0
  5  4  1  0
  9  1  1  1
  9  2  1  0
 10  6  2  0
 10  7  1  0
 11  3  1  0
 11  4  1  0
 12  6  1  0
 12  8  2  0
 13  5  1  0
 14  8  1  0
 15  7  1  0
 16 10  1  0
 16 13  1  0
 16 14  2  0
 17 11  2  0
 18 12  1  0
 19 13  2  0
 20 14  1  0
 21 15  2  0
 22  9  1  0
 22 15  1  0
M  END
>  <NAME>  (3) 
7-Oxocurvularin

>  <SYNONYMS>  (3) 


>  <SPECTRUM TYPE>  (3) 
MS1

>  <INSTRUMENT TYPE>  (3) 
EI-B

>  <INSTRUMENT>  (3) 
Unknown

>  <ION MODE>  (3) 
P

>  <INCHIKEY>  (3) 
MFGVWPFVDDUSLL-VIFPVBQESA-N

>  <FORMULA>  (3) 
C16H18O6

>  <EXACT MASS>  (3) 
306.110338296

>  <MW>  (3) 
306

>  <ID>  (3) 
TT000151

>  <CONTRIBUTOR>  (3) 
Yasuo Kimura, {Faculty of Agriculture, Tottori University

>  <COMMENT>  (3) 
compound class=Natural Product; Curvularin
SMILES=C[C@H]1CCC(=O)CCC(=O)C2=C(C=C(C=C2CC(=O)O1)O)O
pubchem cid=14314901
InChI=InChI=1S/C16H18O6/c1-9-2-3-11(17)4-5-13(19)16-10(7-15(21)22-9)6-12(18)8-14(16)20/h6,8-9,18,20H,2-5,7H2,1H3/t9-/m0/s1
computed SMILES=O=C1OC(C)CCC(=O)CCC(=O)C=2C(O)=CC(O)=CC2C1
accession=TT000151
date=2016.01.19 (Created 2008.10.21, modified 2011.05.06)
author=Kimura Y, Kusano M, Faculty of Agriculture, Tottori University
license=CC BY-SA
publication=Kusano, M., Nakagami, K., Fujioka, S., Kawano, T., Shimada, A., and Kimura, Y. 2003. beta,gamma-Dehydrocurvularin and Related Compounds as Nematicides of Pratylenchus penetrans from the Fungus Aspergillus sp. Biosci. Biotechnol. Biochem., 67 (6):1413 -1416.
comment=[Analytical] Sample was directly injected
exact mass=306.11034
ionization potential=70 eV
computed spectral entropy=4.392651177644291
computed normalized entropy=0.869856718951636
SPLASH=splash10-000i-2690000000-3a0c6bdcead3484c2bef
submitter=submitter = Yasuo Kimura (Faculty of Agriculture, Tottori University)
MoNA Rating=3.75

>  <NUM PEAKS>  (3) 
156

>  <MASS SPECTRAL PEAKS>  (3) 
40.8 7.807808
41.9 2.502503
42.9 7.407407
43.6 3.703704
45.0 1.201201
49.9 2.502503
50.9 3.703704
51.9 2.002002
52.8 3.703704
54.9 10.210210
55.9 3.703704
57.0 2.902903
60.1 1.201201
63.0 2.502503
64.0 1.201201
65.0 5.305305
65.9 2.902903
66.8 2.502503
68.9 8.208208
70.0 0.800801
73.1 0.800801
75.0 1.601602
75.9 2.002002
77.0 10.210210
78.0 4.504505
78.9 2.902903
81.1 1.201201
83.1 9.809810
84.0 0.800801
85.0 1.601602
88.9 2.502503
89.9 2.002002
90.9 8.608609
91.9 2.002002
93.0 1.601602
94.0 1.201201
95.1 1.201201
97.1 1.201201
102.0 2.002002
103.1 3.303303
105.0 3.303303
105.9 2.902903
106.9 3.703704
109.2 2.002002
111.1 1.201201
112.0 2.902903
115.0 4.504505
116.0 1.601602
118.0 1.601602
118.9 2.902903
120.0 1.601602
120.9 5.305305
121.9 3.303303
123.1 2.002002
128.0 1.201201
128.9 1.201201
129.8 0.800801
130.8 3.703704
131.9 1.201201
132.8 4.104104
133.8 7.007007
135.1 6.106106
136.0 4.904905
137.0 0.800801
138.1 1.201201
145.1 1.201201
146.0 2.902903
146.9 6.606607
148.2 3.703704
149.2 10.610611
150.0 11.511512
151.1 8.208208
157.0 0.800801
159.0 2.902903
159.9 3.703704
161.1 5.305305
162.0 16.416416
163.0 15.615616
164.1 6.606607
165.1 1.201201
166.1 1.201201
167.0 7.407407
171.1 0.800801
171.9 0.800801
173.0 2.502503
173.9 3.703704
175.1 4.904905
176.1 9.409409
177.0 18.818819
178.0 18.018018
178.9 6.106106
185.1 0.800801
186.0 0.800801
186.9 5.305305
188.1 2.502503
189.1 4.104104
190.1 3.303303
191.1 1.201201
192.1 2.502503
193.1 22.922923
194.0 2.902903
195.0 3.703704
199.2 0.800801
200.2 4.104104
201.1 2.902903
202.1 1.601602
203.1 2.502503
204.1 20.520521
205.0 44.244244
206.1 13.513514
207.0 7.007007
208.0 2.902903
213.9 0.800801
215.0 3.303303
216.0 7.407407
217.0 6.606607
218.0 6.106106
218.9 3.703704
220.9 1.601602
222.1 36.436436
223.0 4.904905
227.1 2.002002
228.2 7.807808
229.1 13.113113
230.2 2.002002
231.0 3.703704
232.1 10.610611
233.1 2.002002
234.9 0.800801
236.1 2.502503
241.1 2.002002
242.0 3.303303
243.1 7.007007
244.1 5.305305
245.0 3.703704
246.1 1.601602
247.1 2.502503
250.1 0.800801
252.0 2.502503
255.0 4.504505
256.1 0.800801
258.0 0.800801
259.0 1.601602
260.0 0.800801
261.0 0.800801
268.9 2.902903
269.8 14.314314
270.9 1.601602
272.9 7.407407
273.9 2.502503
286.0 2.902903
288.1 100.000000
289.1 18.418418
290.2 2.002002
305.9 4.904905
344.0 2.002002

$$$$

     RDKit          2D

 23 24  0  0  1  0  0  0  0  0999 V2000
   -6.1802    4.5780    0.0000 C   0  0  0  0  0  0  0  0  0  0  0  0
   -3.5900    4.5800    0.0000 C   0  0  0  0  0  0  0  0  0  0  0  0
   -3.5900    6.0800    0.0000 C   0  0  0  0  0  0  0  0  0  0  0  0
   -8.9790   -0.6700    0.0000 C   0  0  0  0  0  0  0  0  0  0  0  0
   -3.5900    0.0800    0.0000 C   0  0  0  0  0  0  0  0  0  0  0  0
  -10.2781    1.5800    0.0000 C   0  0  0  0  0  0  0  0  0  0  0  0
   -6.3800    3.8300    0.0000 C   0  0  0  0  0  0  0  0  0  0  0  0
   -4.8800    3.8300    0.0000 C   0  0  0  0  0  0  0  0  0  0  0  0
   -7.6800    0.0800    0.0000 C   0  0  0  0  0  0  0  0  0  0  0  0
  -10.2781    0.0800    0.0000 C   0  0  0  0  0  0  0  0  0  0  0  0
   -7.6800    6.0800    0.0000 C   0  0  0  0  0  0  0  0  0  0  0  0
   -7.6800    4.5800    0.0000 C   0  0  0  0  0  0  0  0  0  0  0  0
   -8.9790    2.3300    0.0000 C   0  0  0  0  0  0  0  0  0  0  0  0
   -6.3800    2.3300    0.0000 C   0  0  0  0  0  0  0  0  0  0  0  0
   -3.5900    1.5800    0.0000 C   0  0  0  0  0  0  0  0  0  0  0  0
   -7.6800    1.5800    0.0000 C   0  0  0  0  0  0  0  0  0  0  0  0
  -11.5771   -0.6700    0.0000 O   0  0  0  0  0  0  0  0  0  0  0  0
   -8.7407    7.1407    0.0000 O   0  0  0  0  0  0  0  0  0  0  0  0
   -6.3811    5.3302    0.0000 O   0  0  0  0  0  0  0  0  0  0  0  0
   -8.9790    3.8300    0.0000 O   0  0  0  0  0  0  0  0  0  0  0  0
   -5.0811    1.5798    0.0000 O   0  0  0  0  0  0  0  0  0  0  0  0
   -2.2898    2.3280    0.0000 O   0  0  0  0  0  0  0  0  0  0  0  0
   -4.8800    2.3300    0.0000 O   0  0  0  0  0  0  0  0  0  0  0  0
  3  2  1  0
  8  1  1  1
  8  2  1  0
  9  4  2  0
  9  5  1  0
 10  4  1  0
 10  6  2  0
 11  3  1  0
 12  7  1  0
 12 11  1  0
 13  6  1  0
 14  7  1  0
 15  5  1  0
 16  9  1  0
 16 13  2  0
 16 14  1  0
 17 10  1  0
 18 11  2  0
 12 19  1  6
 20 13  1  0
 21 14  2  0
 22 15  2  0
 23  8  1  0
 23 15  1  0
M  END
>  <NAME>  (4) 
8-beta-Hydroxy-oxocurvularin

>  <SYNONYMS>  (4) 


>  <SPECTRUM TYPE>  (4) 
MS1

>  <INSTRUMENT TYPE>  (4) 
EI-B

>  <INSTRUMENT>  (4) 
Unknown

>  <ION MODE>  (4) 
P

>  <INCHIKEY>  (4) 
PCSBVPMYIHSHPB-UFBFGSQYSA-N

>  <FORMULA>  (4) 
C16H18O7

>  <EXACT MASS>  (4) 
322.105252916

>  <MW>  (4) 
322

>  <ID>  (4) 
TT000148

>  <CONTRIBUTOR>  (4) 
Yasuo Kimura, {Faculty of Agriculture, Tottori University

>  <COMMENT>  (4) 
compound class=Natural Product; Curvularin
SMILES=C[C@H]1CCC(=O)[C@H](CC(=O)C2=C(C=C(C=C2CC(=O)O1)O)O)O
pubchem cid=14582210
InChI=InChI=1S/C16H18O7/c1-8-2-3-11(18)12(19)7-14(21)16-9(5-15(22)23-8)4-10(17)6-13(16)20/h4,6,8,12,17,19-20H,2-3,5,7H2,1H3/t8-,12-/m0/s1
computed SMILES=O=C1OC(C)CCC(=O)C(O)CC(=O)C=2C(O)=CC(O)=CC2C1
accession=TT000148
date=2016.01.19 (Created 2008.10.21, modified 2011.05.06)
author=Kimura Y, Kusano M, Faculty of Agriculture, Tottori University
license=CC BY-SA
publication=Kusano, M., Nakagami, K., Fujioka, S., Kawano, T., Shimada, A., and Kimura, Y. 2003. beta,gamma-Dehydrocurvularin and Related Compounds as Nematicides of Pratylenchus penetrans from the Fungus Aspergillus sp. Biosci. Biotechnol. Biochem., 67 (6):1413 -1416.
comment=[Analytical] Sample was directly injected
exact mass=322.10525
ionization potential=70 eV
computed spectral entropy=4.45769493597011
computed normalized entropy=0.7613390570091095
SPLASH=splash10-0fi3-4921000000-c70c74e8886b26cf8bee
submitter=submitter = Yasuo Kimura (Faculty of Agriculture, Tottori University)
MoNA Rating=3.75

>  <NUM PEAKS>  (4) 
349

>  <MASS SPECTRAL PEAKS>  (4) 
40.5 1.001001
41.1 19.619620
42.0 5.705706
43.1 16.216216
43.9 83.983984
44.9 4.004004
45.7 0.300300
46.1 0.800801
47.0 0.600601
47.7 0.200200
48.3 0.300300
50.0 3.403403
51.1 7.707708
51.6 0.300300
52.1 2.302302
53.1 5.005005
54.1 2.802803
54.5 0.100100
55.1 21.921922
55.6 0.500501
56.0 5.005005
57.1 6.806807
58.0 0.900901
59.1 3.003003
60.0 3.903904
60.9 1.001001
62.0 2.402402
62.3 0.300300
62.9 6.106106
63.9 2.002002
64.9 9.209209
65.4 0.400400
66.0 2.802803
66.9 2.802803
68.0 1.501502
68.6 0.400400
68.9 11.611612
69.9 1.901902
71.0 2.402402
72.0 2.002002
72.9 4.004004
73.9 1.901902
74.4 0.100100
74.9 2.302302
75.6 0.300300
75.8 4.804805
76.9 14.814815
78.0 4.504505
78.9 3.003003
79.3 0.700701
79.8 0.800801
80.9 3.403403
82.0 2.102102
82.9 7.907908
84.0 1.301301
84.9 2.502503
85.9 1.001001
86.8 1.901902
87.4 0.600601
87.9 2.102102
88.4 0.200200
88.9 2.002002
89.9 1.501502
90.3 0.100100
90.9 11.211211
91.4 0.200200
91.9 2.802803
92.9 2.402402
93.4 0.300300
93.9 3.403403
94.9 5.305305
96.1 1.501502
97.0 4.904905
97.9 2.702703
98.9 1.601602
99.3 0.300300
100.0 0.900901
100.5 0.200200
100.9 2.102102
101.4 0.700701
101.7 0.400400
102.0 4.604605
102.9 1.901902
103.4 0.300300
103.9 2.002002
104.9 12.212212
105.9 12.212212
106.4 0.400400
106.9 5.105105
108.0 1.301301
108.9 2.002002
110.0 0.800801
110.9 2.202202
111.9 0.700701
113.1 0.600601
113.9 0.500501
114.9 2.802803
115.3 0.500501
116.0 1.401401
116.9 1.001001
117.9 3.203203
118.9 6.606607
119.8 8.808809
120.9 24.424424
121.2 0.600601
121.8 5.105105
122.9 1.301301
123.9 0.400400
124.9 0.800801
125.9 0.700701
126.3 0.200200
126.9 1.001001
127.5 0.100100
127.9 1.301301
128.9 1.901902
129.8 1.901902
130.8 3.903904
131.5 0.200200
131.9 1.701702
132.8 1.901902
133.8 6.006006
134.8 9.009009
135.5 0.700701
135.8 0.700701
136.3 0.500501
136.9 1.601602
137.8 2.902903
138.9 1.201201
139.8 0.300300
140.8 1.701702
141.2 0.300300
141.8 0.700701
142.8 0.700701
143.9 0.500501
144.9 1.001001
145.9 3.203203
146.8 21.921922
147.2 0.400400
147.8 11.311311
148.8 6.506507
149.8 6.606607
150.8 3.403403
151.8 0.700701
152.8 0.400400
153.8 0.700701
154.2 0.600601
154.8 1.301301
155.8 0.300300
156.8 1.501502
157.7 0.400400
158.8 1.301301
159.7 12.912913
160.7 3.003003
161.8 17.417417
162.8 31.331331
163.7 12.412412
164.8 3.603604
165.7 0.700701
166.4 0.200200
166.7 1.301301
167.8 0.400400
168.8 0.400400
169.8 0.300300
170.9 1.201201
171.3 0.100100
171.8 0.800801
172.9 1.401401
173.9 3.603604
174.4 0.300300
174.8 100.000000
175.4 0.200200
175.9 65.165165
176.8 87.187187
177.8 12.412412
178.8 1.101101
179.9 0.700701
180.8 0.400400
182.0 0.700701
183.1 0.900901
183.9 0.800801
184.8 6.606607
185.9 1.901902
186.8 3.303303
187.9 2.202202
188.1 0.300300
188.8 2.802803
189.8 14.414414
190.8 4.104104
191.9 1.301301
192.9 4.204204
193.9 0.700701
195.0 0.600601
195.8 0.600601
196.8 2.102102
197.8 0.400400
198.8 1.101101
199.7 1.001001
200.5 0.100100
200.8 0.700701
201.5 1.001001
201.7 2.502503
202.8 65.265265
203.8 19.819820
204.8 8.308308
205.5 0.400400
205.8 0.700701
206.7 2.102102
207.7 4.904905
208.7 1.301301
210.7 0.300300
211.8 0.700701
212.8 1.401401
213.7 1.401401
214.8 2.002002
215.4 0.100100
215.7 0.900901
216.8 2.002002
217.4 0.100100
217.7 4.104104
218.7 3.803804
219.6 0.500501
220.6 3.703704
221.8 1.101101
222.9 0.400400
223.8 0.200200
224.9 0.600601
225.7 0.300300
226.7 0.600601
227.8 0.400400
228.8 1.101101
229.3 0.400400
229.7 0.900901
230.4 0.400400
230.8 2.302302
231.8 2.002002
232.7 2.202202
233.4 0.600601
233.8 1.001001
235.1 0.900901
235.6 0.600601
236.8 0.300300
237.4 0.100100
238.1 0.100100
238.7 0.300300
239.7 0.300300
240.9 0.400400
241.9 0.800801
242.8 1.801802
243.8 0.600601
244.8 0.700701
245.7 0.100100
246.2 0.100100
246.8 0.800801
247.8 0.400400
248.8 1.001001
249.3 0.300300
249.8 0.900901
250.5 0.100100
250.9 0.400400
251.7 0.400400
252.4 0.200200
252.8 0.400400
254.1 0.100100
254.7 0.600601
256.0 1.401401
256.9 0.400400
257.8 4.704705
258.8 1.701702
259.8 6.406406
260.7 4.004004
261.8 1.201201
262.8 0.200200
263.2 0.300300
264.0 1.201201
264.6 0.300300
265.1 0.300300
266.9 0.500501
267.7 0.300300
268.9 0.900901
270.7 0.300300
272.4 0.200200
272.9 0.100100
273.8 0.200200
274.4 0.100100
274.9 0.200200
275.8 4.904905
276.3 0.700701
276.7 0.600601
277.7 0.600601
278.2 0.100100
278.9 0.200200
279.4 0.400400
279.9 0.300300
280.7 1.501502
281.6 0.100100
283.0 0.100100
283.3 0.600601
283.9 0.400400
285.8 4.404404
286.4 0.600601
286.7 0.800801
287.0 0.500501
288.0 0.200200
288.3 0.300300
288.8 1.001001
289.8 0.700701
290.2 0.300300
291.9 0.600601
293.5 0.400400
294.8 0.700701
295.5 0.100100
296.2 0.200200
297.5 0.200200
298.0 0.300300
299.4 0.200200
299.9 0.100100
301.4 0.100100
302.8 0.600601
303.8 55.855856
304.8 11.211211
305.7 2.602603
306.6 0.700701
308.0 0.300300
308.7 0.600601
313.0 0.500501
314.7 0.200200
315.2 0.200200
315.9 0.200200
317.4 0.200200
317.8 0.400400
319.0 0.100100
320.0 0.100100
322.8 0.800801
324.7 0.200200
325.5 0.100100
326.6 0.200200
327.8 0.400400
332.7 0.100100
333.8 0.400400
336.0 0.200200
336.9 0.100100
337.3 0.300300
338.0 0.200200
339.2 0.500501
340.0 0.400400
340.7 0.400400
341.3 0.200200
342.1 0.300300
342.7 0.400400

$$$$

     RDKit          2D

 21 22  0  0  1  0  0  0  0  0999 V2000
   -8.9789    2.3302    0.0000 C   0  0  0  0  0  0  0  0  0  0  0  0
   -3.5900    1.5800    0.0000 C   0  0  0  0  0  0  0  0  0  0  0  0
   -3.5900    0.0800    0.0000 C   0  0  0  0  0  0  0  0  0  0  0  0
   -4.8800    2.3300    0.0000 C   0  0  0  0  0  0  0  0  0  0  0  0
   -7.6800    0.0800    0.0000 C   0  0  0  0  0  0  0  0  0  0  0  0
   -4.8800    3.8300    0.0000 C   0  0  0  0  0  0  0  0  0  0  0  0
   -7.0729    7.8062    0.0000 C   0  0  0  0  0  0  0  0  0  0  0  0
   -7.6800    4.5800    0.0000 C   0  0  0  0  0  0  0  0  0  0  0  0
   -5.0133    8.7441    0.0000 C   0  0  0  0  0  0  0  0  0  0  0  0
   -7.6800    1.5800    0.0000 C   0  0  0  0  0  0  0  0  0  0  0  0
   -7.6800    6.0800    0.0000 C   0  0  0  0  0  0  0  0  0  0  0  0
   -6.2567    8.7441    0.0000 C   0  0  0  0  0  0  0  0  0  0  0  0
   -3.5900    4.5800    0.0000 C   0  0  0  0  0  0  0  0  0  0  0  0
   -4.1971    7.8062    0.0000 C   0  0  0  0  0  0  0  0  0  0  0  0
   -6.3800    3.8300    0.0000 C   0  0  0  0  0  0  0  0  0  0  0  0
   -3.5900    6.0800    0.0000 C   0  0  0  0  0  0  0  0  0  0  0  0
   -6.8784   10.1092    0.0000 O   0  0  0  0  0  0  0  0  0  0  0  0
   -2.2898    3.8320    0.0000 O   0  0  0  0  0  0  0  0  0  0  0  0
   -2.9007    8.5608    0.0000 O   0  0  0  0  0  0  0  0  0  0  0  0
   -5.0811    4.5802    0.0000 O   0  0  0  0  0  0  0  0  0  0  0  0
   -6.3800    2.3300    0.0000 O   0  0  0  0  0  0  0  0  0  0  0  0
  3  2  1  0
  2  4  2  0
  5  3  1  0
  6  4  1  0
 10  1  1  6
 10  5  1  0
 11  7  1  0
 11  8  1  0
 12  7  2  0
 12  9  1  0
 13  6  1  0
 14  9  2  0
 15  8  1  0
 16 11  2  0
 16 13  1  0
 16 14  1  0
 17 12  1  0
 18 13  2  0
 19 14  1  0
 20 15  2  0
 21 10  1  0
 21 15  1  0
M  END
>  <NAME>  (5) 
beta,gamma-Dehydrocurvularin

>  <SYNONYMS>  (5) 
(4S,7E)-4beta-Methyl-11,13-dihydroxy-1,4,5,6,9,10-hexahydro-2H-3-benzoxacyclododecin-2,10-dione

>  <SPECTRUM TYPE>  (5) 
MS1

>  <INSTRUMENT TYPE>  (5) 
EI-B

>  <INSTRUMENT>  (5) 
Unknown

>  <ION MODE>  (5) 
P

>  <INCHIKEY>  (5) 
ZWRCIODUEDCNMZ-YWNRKNDBSA-N

>  <FORMULA>  (5) 
C16H18O5

>  <EXACT MASS>  (5) 
290.115423676

>  <MW>  (5) 
290

>  <ID>  (5) 
TT000133

>  <CONTRIBUTOR>  (5) 
Yasuo Kimura, {Faculty of Agriculture, Tottori University

>  <COMMENT>  (5) 
compound class=Natural Product; Curvularin
SMILES=C[C@H]1CC/C=C/CC(=O)C2=C(C=C(C=C2CC(=O)O1)O)O
pubchem cid=134785854
InChI=InChI=1S/C16H18O5/c1-10-5-3-2-4-6-13(18)16-11(8-15(20)21-10)7-12(17)9-14(16)19/h2,4,7,9-10,17,19H,3,5-6,8H2,1H3/b4-2+/t10-/m0/s1
computed SMILES=O=C1OC(C)CCC=CCC(=O)C=2C(O)=CC(O)=CC2C1
accession=TT000133
date=2016.01.19 (Created 2008.10.21, modified 2011.05.06)
author=Kimura Y, Kusano M, Faculty of Agriculture, Tottori University
license=CC BY-SA
publication=Kusano, M., Nakagami, K., Fujioka, S., Kawano, T., Shimada, A., and Kimura, Y. 2003. beta,gamma-Dehydrocurvularin and Related Compounds as Nematicides of Pratylenchus penetrans from the Fungus Aspergillus sp. Biosci. Biotechnol. Biochem., 67 (6):1413 -1416.
comment=[Analytical] Sample was directly injected
exact mass=290.11542
ionization potential=70 eV
computed spectral entropy=4.697822201854148
computed normalized entropy=0.8245998091802055
SPLASH=splash10-000i-3690000000-8c99655e0767b6a440c3
submitter=submitter = Yasuo Kimura (Faculty of Agriculture, Tottori University)
MoNA Rating=3.75

>  <NUM PEAKS>  (5) 
298

>  <MASS SPECTRAL PEAKS>  (5) 
40.0 1.201201
41.0 7.807808
42.0 2.302302
43.1 7.707708
43.9 3.803804
45.0 1.601602
46.1 0.200200
47.1 0.200200
48.0 0.100100
49.0 0.100100
50.1 1.501502
51.0 4.704705
52.0 2.202202
52.9 3.203203
54.0 1.001001
55.1 10.010010
56.0 3.603604
57.1 2.402402
57.5 0.100100
58.0 0.600601
59.0 0.600601
59.9 2.002002
61.0 0.400400
62.0 1.001001
63.0 3.103103
64.0 1.601602
65.0 6.006006
65.5 0.100100
65.9 2.902903
67.0 2.402402
67.9 0.600601
69.0 8.708709
70.0 0.900901
71.1 1.401401
72.0 0.200200
72.9 2.002002
73.5 0.100100
74.0 0.900901
75.0 1.901902
76.0 1.801802
77.0 10.110110
78.1 4.704705
79.1 3.503504
79.6 0.100100
80.1 0.900901
80.5 0.100100
81.0 1.901902
82.0 0.800801
83.1 10.110110
84.0 1.201201
85.0 2.002002
86.0 0.400400
87.1 1.001001
88.0 1.201201
88.5 0.100100
89.1 3.003003
90.0 1.601602
91.0 9.409409
92.0 1.401401
93.0 1.801802
93.5 0.500501
94.0 1.801802
95.0 1.501502
95.5 0.100100
96.0 0.700701
97.0 1.901902
98.1 0.900901
99.1 0.500501
99.5 0.100100
100.1 0.400400
100.6 0.100100
101.0 1.101101
102.1 2.402402
102.6 0.100100
103.1 4.104104
103.5 0.100100
104.1 1.401401
105.0 2.702703
106.1 2.902903
107.1 3.503504
108.1 1.001001
109.2 2.202202
109.6 0.300300
110.2 0.400400
111.1 1.801802
112.1 2.902903
113.1 0.600601
114.0 0.400400
115.1 5.205205
115.5 0.200200
116.0 1.501502
117.0 1.101101
117.9 2.002002
119.0 2.402402
120.1 1.901902
120.9 5.305305
122.1 3.403403
123.0 2.902903
124.1 0.700701
125.0 0.200200
126.1 0.200200
127.0 1.201201
128.1 1.601602
129.1 1.601602
130.1 1.001001
131.0 4.504505
132.0 2.102102
133.0 4.004004
134.0 6.606607
135.0 7.207207
135.9 5.405405
137.0 1.301301
137.9 1.801802
139.0 1.201201
140.0 0.200200
140.9 0.800801
141.9 0.400400
143.0 0.500501
144.1 1.001001
145.0 1.501502
146.0 2.302302
147.0 6.406406
148.1 4.304304
149.0 11.211211
150.0 11.611612
151.0 8.108108
152.0 0.900901
153.0 0.400400
155.0 0.400400
156.0 0.200200
157.1 0.900901
158.0 0.600601
159.0 2.502503
159.9 3.303303
161.0 5.305305
162.0 16.316316
163.1 16.116116
164.0 6.606607
165.0 1.801802
166.0 1.701702
167.0 7.307307
168.0 1.301301
169.1 0.300300
170.0 0.200200
171.0 1.101101
172.1 1.001001
173.0 2.902903
174.0 3.403403
175.0 5.405405
176.0 10.210210
177.0 19.319319
178.0 18.418418
179.0 6.306306
179.9 0.900901
181.0 0.400400
182.0 0.200200
183.0 0.200200
184.0 0.400400
185.0 1.301301
186.0 1.001001
187.0 4.904905
188.0 2.202202
189.1 4.504505
190.0 3.603604
191.1 1.801802
192.0 2.902903
193.0 22.822823
194.1 2.602603
195.0 4.504505
196.0 0.400400
196.9 0.500501
198.1 0.300300
199.0 1.101101
200.1 3.803804
201.0 3.803804
202.0 1.701702
202.9 3.103103
204.0 20.920921
205.0 44.144144
206.0 14.014014
207.0 7.507508
208.0 2.302302
209.0 0.500501
210.1 0.200200
211.0 0.200200
212.1 0.200200
213.1 1.301301
213.9 1.201201
215.1 3.603604
215.9 7.907908
217.0 6.906907
218.1 6.806807
219.0 3.303303
220.0 0.600601
221.0 1.901902
222.0 36.536537
223.1 5.205205
224.0 0.900901
225.0 0.400400
226.0 0.200200
227.1 2.702703
228.0 8.208208
228.9 13.713714
230.0 2.902903
231.0 4.304304
232.0 11.311311
233.0 3.003003
234.0 0.600601
234.9 0.900901
236.1 2.702703
237.0 0.500501
238.0 0.200200
239.1 0.100100
240.0 0.200200
241.0 2.102102
242.0 3.703704
243.0 7.507508
244.0 6.106106
244.9 3.303303
246.0 2.102102
246.9 2.902903
247.9 0.600601
248.9 0.400400
249.8 1.401401
251.0 0.400400
251.9 2.502503
253.0 0.300300
254.1 0.100100
254.9 5.005005
256.2 1.101101
257.0 0.400400
257.9 0.800801
259.1 1.601602
260.1 0.700701
261.1 1.101101
262.0 0.300300
263.0 0.100100
264.0 0.300300
266.1 0.100100
267.0 0.200200
268.1 0.300300
269.0 3.403403
270.1 14.814815
271.0 2.902903
272.0 0.500501
272.9 7.407407
274.0 2.502503
275.0 0.400400
275.9 0.500501
277.0 0.100100
278.0 0.600601
279.1 0.200200
281.0 0.400400
282.0 0.100100
283.0 0.100100
284.1 0.800801
285.1 0.500501
286.0 2.902903
287.0 1.301301
288.1 100.000000
288.9 18.718719
290.0 2.702703
291.1 0.500501
292.1 0.100100
293.2 0.400400
295.0 0.200200
296.0 0.100100
297.0 0.100100
300.0 0.200200
300.9 0.100100
301.9 0.700701
303.0 0.200200
304.0 0.600601
305.1 0.100100
306.0 3.903904
307.1 0.700701
308.1 0.200200
311.1 0.100100
312.3 0.100100
313.0 0.200200
315.0 0.200200
316.0 0.100100
320.0 0.100100
321.0 0.100100
326.1 0.200200
329.1 0.100100
330.1 0.100100
339.9 0.100100
340.9 0.100100
343.0 0.100100
344.0 2.802803
345.1 0.500501
346.0 0.300300
348.9 0.100100
354.2 0.100100
355.0 0.600601
356.1 0.100100
357.0 0.200200

$$$$

     RDKit          2D

 22 24  0  0  1  0  0  0  0  0999 V2000
    9.7794    5.3262    0.0000 C   0  0  0  0  0  0  0  0  0  0  0  0
    8.8427    2.4762    0.0000 C   0  0  0  0  0  0  0  0  0  0  0  0
    8.3112    5.0193    0.0000 C   0  0  0  0  0  0  0  0  0  0  0  0
   -2.5200    0.5000    0.0000 C   0  0  0  0  0  0  0  0  0  0  0  0
   -2.5300   -1.0000    0.0000 C   0  0  0  0  0  0  0  0  0  0  0  0
   -1.2200    1.2400    0.0000 C   0  0  0  0  0  0  0  0  0  0  0  0
   -1.2300   -1.7600    0.0000 C   0  0  0  0  0  0  0  0  0  0  0  0
    1.9684    2.3650    0.0000 C   0  0  0  0  0  0  0  0  0  0  0  0
    2.3800   -0.2700    0.0000 C   0  0  0  0  0  0  0  0  0  0  0  0
    7.8428    3.5943    0.0000 C   0  0  0  0  0  0  0  0  0  0  0  0
    1.5000    0.9400    0.0000 C   0  0  0  0  0  0  0  0  0  0  0  0
    0.0800    0.4900    0.0000 C   0  0  0  0  0  0  0  0  0  0  0  0
    0.0700   -1.0100    0.0000 C   0  0  0  0  0  0  0  0  0  0  0  0
    3.4366    2.6719    0.0000 C   0  0  0  0  0  0  0  0  0  0  0  0
    6.3745    3.2874    0.0000 C   0  0  0  0  0  0  0  0  0  0  0  0
    4.4367    1.5539    0.0000 C   0  0  0  0  0  0  0  0  0  0  0  0
    5.3744    4.4054    0.0000 C   0  0  0  0  0  0  0  0  0  0  0  0
    1.5000   -1.4800    0.0000 N   0  0  0  0  0  0  0  0  0  0  0  0
    3.9055    4.0976    0.0000 N   0  0  0  0  0  0  0  0  0  0  0  0
    5.9057    1.8617    0.0000 N   0  0  0  0  0  0  0  0  0  0  0  0
    3.9688    0.1288    0.0000 O   0  0  0  0  0  0  0  0  0  0  0  0
    5.8423    5.8305    0.0000 O   0  0  0  0  0  0  0  0  0  0  0  0
  3  1  1  0
  5  4  2  0
  6  4  1  0
  7  5  1  0
 10  2  1  0
 10  3  1  0
 11  8  1  0
 11  9  2  0
 12  6  2  0
 12 11  1  0
 13  7  2  0
 13 12  1  0
 14  8  1  6
 15 10  1  1
 16 14  1  0
 17 15  1  0
 18  9  1  0
 18 13  1  0
 19 14  1  0
 19 17  2  0
 15 20  1  0
 20 16  2  0
 21 16  1  0
 22 17  1  0
M  END
>  <NAME>  (6) 
Cyclo-(D-Ile-L-Trp)

>  <SYNONYMS>  (6) 


>  <SPECTRUM TYPE>  (6) 
MS1

>  <INSTRUMENT TYPE>  (6) 
EI-B

>  <INSTRUMENT>  (6) 
Hitachi M80 mass spectrometers

>  <ION MODE>  (6) 
P

>  <INCHIKEY>  (6) 
PGCNHGBQEYFZEX-XVDHHWJWSA-N

>  <FORMULA>  (6) 
C17H21N3O2

>  <EXACT MASS>  (6) 
299.163376912

>  <MW>  (6) 
299

>  <ID>  (6) 
TT000132

>  <CONTRIBUTOR>  (6) 
Yasuo Kimura, {Faculty of Agriculture, Tottori University

>  <COMMENT>  (6) 
compound class=Natural Product; Oligopeptide
SMILES=CCC(C)[C@@H]1C(=O)N[C@H](C(=O)N1)CC2=CNC3=CC=CC=C32
chemspider=10184233
pubchem cid=11277966
InChI=InChI=1S/C17H21N3O2/c1-3-10(2)15-17(22)19-14(16(21)20-15)8-11-9-18-13-7-5-4-6-12(11)13/h4-7,9-10,14-15,18H,3,8H2,1-2H3,(H,19,22)(H,20,21)/t10?,14-,15+/m0/s1
computed SMILES=OC1=NC(C(O)=NC1CC2=CNC=3C=CC=CC32)C(C)CC
accession=TT000132
date=2016.01.19 (Created 2008.10.21, modified 2011.05.06)
author=Kimura Y, Kuramata M, Faculty of Agriculture, Tottori University
license=CC BY-SA
publication=Kimura, Y., Sawada, A., Kuramata, M., Kusano, M., Fujioka, S., Kawano, T., and Shimada, A. 2005. Brevicompanine C, Cyclo-(D-Ile-L-Trp), and Cyclo-(D-Leu-L-Trp), Plant Growth Regulators from Penicillium brevi-compactum. J. Nat. Prod., 68 (2):237 -239. doi:10.1021/np040178p
comment=[Analytical] Sample was directly injected
exact mass=299.16338
ionization potential=70 eV
computed spectral entropy=1.7996850564686642
computed normalized entropy=0.4019543606031795
SPLASH=splash10-001i-0900000000-af991b9d19adce085a9b
submitter=submitter = Yasuo Kimura (Faculty of Agriculture, Tottori University)
MoNA Rating=3.75

>  <NUM PEAKS>  (6) 
88

>  <MASS SPECTRAL PEAKS>  (6) 
40.8 0.800801
42.0 0.100100
43.0 0.200200
44.0 1.201201
45.0 0.200200
50.9 0.200200
52.0 0.100100
54.0 0.100100
55.0 0.200200
56.1 0.200200
57.1 0.600601
58.0 0.100100
59.9 0.200200
62.9 0.100100
65.0 0.100100
68.0 0.100100
69.0 0.300300
69.9 0.200200
71.0 0.100100
73.0 0.200200
74.8 0.100100
76.0 0.200200
77.0 1.701702
78.0 0.200200
79.0 0.100100
81.0 0.100100
82.1 0.100100
83.1 0.100100
84.0 0.100100
85.0 0.600601
86.1 0.300300
89.0 0.200200
89.9 0.200200
91.1 0.100100
95.1 0.100100
96.1 0.100100
97.0 0.100100
101.0 0.200200
102.2 1.101101
103.2 2.302302
104.0 0.300300
113.0 1.301301
114.0 0.500501
115.0 0.700701
116.0 0.200200
117.1 0.700701
118.1 0.100100
128.0 0.900901
129.2 2.702703
130.1 100.000000
131.1 10.610611
132.1 0.800801
139.0 0.100100
140.2 0.100100
141.0 0.300300
142.0 0.300300
143.1 0.500501
144.1 0.100100
149.8 0.100100
155.1 0.300300
156.0 0.300300
157.0 0.400400
158.1 0.400400
159.1 0.300300
167.1 0.100100
168.0 0.100100
169.0 0.300300
170.1 1.701702
171.0 0.200200
183.9 0.200200
185.0 0.400400
186.0 0.200200
197.0 0.100100
213.1 0.100100
240.0 0.100100
241.0 0.100100
242.0 0.100100
251.7 0.100100
256.1 0.100100
259.9 0.100100
270.2 0.100100
297.0 0.300300
298.0 0.200200
299.1 12.812813
300.0 2.602603
301.1 0.300300
354.1 0.100100
446.1 0.100100

$$$$

     RDKit          2D

 22 24  0  0  1  0  0  0  0  0999 V2000
    9.7794    5.3262    0.0000 C   0  0  0  0  0  0  0  0  0  0  0  0
    7.3113    6.1374    0.0000 C   0  0  0  0  0  0  0  0  0  0  0  0
   -2.5200    0.5000    0.0000 C   0  0  0  0  0  0  0  0  0  0  0  0
   -2.5300   -1.0000    0.0000 C   0  0  0  0  0  0  0  0  0  0  0  0
   -1.2200    1.2400    0.0000 C   0  0  0  0  0  0  0  0  0  0  0  0
   -1.2300   -1.7600    0.0000 C   0  0  0  0  0  0  0  0  0  0  0  0
    7.8428    3.5943    0.0000 C   0  0  0  0  0  0  0  0  0  0  0  0
    1.9684    2.3650    0.0000 C   0  0  0  0  0  0  0  0  0  0  0  0
    2.3800   -0.2700    0.0000 C   0  0  0  0  0  0  0  0  0  0  0  0
    8.3112    5.0193    0.0000 C   0  0  0  0  0  0  0  0  0  0  0  0
    1.5000    0.9400    0.0000 C   0  0  0  0  0  0  0  0  0  0  0  0
    0.0800    0.4900    0.0000 C   0  0  0  0  0  0  0  0  0  0  0  0
    0.0700   -1.0100    0.0000 C   0  0  0  0  0  0  0  0  0  0  0  0
    6.3745    3.2874    0.0000 C   0  0  0  0  0  0  0  0  0  0  0  0
    3.4366    2.6719    0.0000 C   0  0  0  0  0  0  0  0  0  0  0  0
    5.3744    4.4054    0.0000 C   0  0  0  0  0  0  0  0  0  0  0  0
    4.4367    1.5539    0.0000 C   0  0  0  0  0  0  0  0  0  0  0  0
    1.5000   -1.4800    0.0000 N   0  0  0  0  0  0  0  0  0  0  0  0
    5.9057    1.8617    0.0000 N   0  0  0  0  0  0  0  0  0  0  0  0
    3.9055    4.0976    0.0000 N   0  0  0  0  0  0  0  0  0  0  0  0
    5.8423    5.8305    0.0000 O   0  0  0  0  0  0  0  0  0  0  0  0
    3.9688    0.1288    0.0000 O   0  0  0  0  0  0  0  0  0  0  0  0
  4  3  2  0
  5  3  1  0
  6  4  1  0
 10  1  1  0
 10  2  1  0
 10  7  1  0
 11  8  1  0
 11  9  2  0
 12  5  2  0
 12 11  1  0
 13  6  2  0
 13 12  1  0
 14  7  1  1
 15  8  1  6
 16 14  1  0
 17 15  1  0
 18  9  1  0
 18 13  1  0
 19 14  1  0
 19 17  2  0
 20 15  1  0
 20 16  2  0
 21 16  1  0
 22 17  1  0
M  END
>  <NAME>  (7) 
Cyclo-(D-Leu-L-Trp)

>  <SYNONYMS>  (7) 


>  <SPECTRUM TYPE>  (7) 
MS1

>  <INSTRUMENT TYPE>  (7) 
EI-B

>  <INSTRUMENT>  (7) 
Hitachi M80 mass spectrometers

>  <ION MODE>  (7) 
P

>  <INCHIKEY>  (7) 
BZUNCDPEEKFTCX-CABCVRRESA-N

>  <FORMULA>  (7) 
C17H21N3O2

>  <EXACT MASS>  (7) 
299.16337691200005

>  <MW>  (7) 
299

>  <ID>  (7) 
TT000131

>  <CONTRIBUTOR>  (7) 
Yasuo Kimura, {Faculty of Agriculture, Tottori University

>  <COMMENT>  (7) 
compound class=Natural Product; Oligopeptide
SMILES=CC(C)C[C@@H]1C(=O)N[C@H](C(=O)N1)CC2=CNC3=CC=CC=C32
chemspider=20100302
pubchem cid=11185646
InChI=InChI=1S/C17H21N3O2/c1-10(2)7-14-16(21)20-15(17(22)19-14)8-11-9-18-13-6-4-3-5-12(11)13/h3-6,9-10,14-15,18H,7-8H2,1-2H3,(H,19,22)(H,20,21)/t14-,15+/m1/s1
computed SMILES=OC1=NC(C(O)=NC1CC2=CNC=3C=CC=CC32)CC(C)C
accession=TT000131
date=2016.01.19 (Created 2008.10.21, modified 2011.05.06)
author=Kimura Y, Kuramata M, Faculty of Agriculture, Tottori University
license=CC BY-SA
publication=Kimura, Y., Sawada, A., Kuramata, M., Kusano, M., Fujioka, S., Kawano, T., and Shimada, A. 2005. Brevicompanine C, Cyclo-(D-Ile-L-Trp), and Cyclo-(D-Leu-L-Trp), Plant Growth Regulators from Penicillium brevi-compactum. J. Nat. Prod., 68 (2):237 -239. doi:10.1021/np040178p
comment=[Analytical] Sample was directly injected
exact mass=299.16338
ionization potential=70 eV
computed spectral entropy=2.1517704311859593
computed normalized entropy=0.44945673993696544
SPLASH=splash10-001i-1900000000-6861514b08a26990d02f
submitter=submitter = Yasuo Kimura (Faculty of Agriculture, Tottori University)
MoNA Rating=3.75

>  <NUM PEAKS>  (7) 
120

>  <MASS SPECTRAL PEAKS>  (7) 
40.99 1.001001
41.97 0.300300
42.96 1.201201
43.99 1.701702
44.93 0.200200
49.95 0.100100
50.89 0.200200
51.93 0.100100
52.87 0.200200
54.01 0.100100
55.05 0.700701
55.99 0.300300
57.08 1.001001
57.92 0.200200
59.06 0.100100
59.90 0.300300
60.94 0.100100
61.98 0.100100
62.92 0.200200
64.95 0.100100
67.03 0.200200
67.97 0.400400
69.06 0.700701
70.05 0.400400
71.04 0.500501
72.04 0.100100
72.99 0.400400
73.98 0.100100
74.98 0.600601
76.02 0.300300
77.06 2.202202
78.11 0.300300
79.05 0.100100
80.10 0.100100
81.09 0.300300
82.08 0.200200
83.07 0.400400
84.11 0.200200
85.05 0.400400
86.04 0.400400
87.08 0.100100
89.06 0.200200
90.10 0.100100
91.04 0.200200
93.08 0.100100
95.02 0.300300
96.07 0.100100
97.06 0.400400
98.01 0.200200
99.15 0.200200
101.10 0.300300
102.05 1.001001
103.10 2.602603
104.05 0.300300
105.05 0.100100
109.10 0.100100
110.15 0.100100
111.14 0.300300
112.08 0.100100
113.07 0.600601
114.01 0.700701
115.00 1.001001
115.99 0.200200
116.98 0.800801
118.02 0.100100
119.01 0.100100
120.95 0.100100
123.10 0.100100
124.05 0.100100
125.00 0.200200
125.90 0.200200
126.90 0.200200
127.95 0.900901
129.00 3.203203
130.03 100.000000
131.01 10.810811
131.91 0.700701
133.02 0.100100
135.03 0.100100
137.04 0.100100
138.04 0.100100
140.00 0.200200
141.05 0.300300
142.00 0.300300
142.95 0.800801
144.05 0.200200
145.05 0.100100
147.05 0.200200
148.90 0.500501
149.95 0.100100
154.04 0.100100
155.05 0.300300
156.06 0.300300
157.07 0.700701
158.03 0.700701
159.09 0.300300
166.98 0.300300
168.04 0.100100
169.05 0.400400
170.05 1.301301
171.06 0.300300
184.01 0.100100
185.00 0.300300
186.09 0.100100
213.97 0.100100
221.00 0.100100
228.15 0.100100
242.09 0.200200
243.13 0.100100
252.25 0.100100
256.13 0.200200
279.05 0.100100
284.06 0.200200
285.05 0.100100
297.03 0.200200
298.02 0.300300
299.09 9.309309
300.15 1.701702
301.05 0.200200
308.85 0.100100

$$$$

     RDKit          2D

 16 17  0  0  1  0  0  0  0  0999 V2000
    1.3000   -3.0000    0.0000 C   0  0  0  0  0  0  0  0  0  0  0  0
   -3.8989    1.5002    0.0000 C   0  0  0  0  0  0  0  0  0  0  0  0
    3.8989   -1.5002    0.0000 C   0  0  0  0  0  0  0  0  0  0  0  0
   -1.3000   -1.5000    0.0000 C   0  0  0  0  0  0  0  0  0  0  0  0
    1.3000   -1.5000    0.0000 C   0  0  0  0  0  0  0  0  0  0  0  0
   -2.6000    0.7500    0.0000 C   0  0  0  0  0  0  0  0  0  0  0  0
    2.6000   -0.7500    0.0000 C   0  0  0  0  0  0  0  0  0  0  0  0
    0.0000   -0.7500    0.0000 C   0  0  0  0  0  0  0  0  0  0  0  0
   -2.6000   -0.7500    0.0000 C   0  0  0  0  0  0  0  0  0  0  0  0
    0.0000    0.7500    0.0000 C   0  0  0  0  0  0  0  0  0  0  0  0
   -1.3000    1.5000    0.0000 C   0  0  0  0  0  0  0  0  0  0  0  0
    1.3000    1.5000    0.0000 C   0  0  0  0  0  0  0  0  0  0  0  0
   -3.8989   -1.5002    0.0000 O   0  0  0  0  0  0  0  0  0  0  0  0
   -1.3000    3.0000    0.0000 O   0  0  0  0  0  0  0  0  0  0  0  0
    1.3000    3.0000    0.0000 O   0  0  0  0  0  0  0  0  0  0  0  0
    2.6000    0.7500    0.0000 O   0  0  0  0  0  0  0  0  0  0  0  0
  5  1  1  6
  6  2  1  0
  7  3  1  6
  7  5  1  0
  8  4  2  0
  8  5  1  0
  9  4  1  0
  9  6  2  0
 10  8  1  0
 11  6  1  0
 11 10  2  0
 12 10  1  0
 13  9  1  0
 14 11  1  0
 15 12  2  0
 16  7  1  0
 16 12  1  0
M  END
>  <NAME>  (8) 
Sclerotinin C

>  <SYNONYMS>  (8) 


>  <SPECTRUM TYPE>  (8) 
MS1

>  <INSTRUMENT TYPE>  (8) 
EI-B

>  <INSTRUMENT>  (8) 
JEOL JMX-SX 102

>  <ION MODE>  (8) 
P

>  <INCHIKEY>  (8) 
WWSWVMRYHCEPFK-CAHLUQPWSA-N

>  <FORMULA>  (8) 
C12H14O4

>  <EXACT MASS>  (8) 
222.089208928

>  <MW>  (8) 
222

>  <ID>  (8) 
TT000129

>  <CONTRIBUTOR>  (8) 
Yasuo Kimura, {Faculty of Agriculture, Tottori University

>  <COMMENT>  (8) 
compound class=Natural Product; Isocoumarin
SMILES=C[C@H]1[C@H](OC(=O)C2=C(C(=C(C=C12)O)C)O)C
pubchem cid=102595352
InChI=InChI=1S/C12H14O4/c1-5-7(3)16-12(15)10-8(5)4-9(13)6(2)11(10)14/h4-5,7,13-14H,1-3H3/t5-,7+/m0/s1
computed SMILES=O=C1OC(C)C(C2=CC(O)=C(C(O)=C12)C)C
accession=TT000129
date=2016.01.19 (Created 2008.10.21, modified 2011.05.06)
author=Kimura Y, Kuramata M, Faculty of Agriculture, Tottori University
license=CC BY-SA
publication=Kuramata, M., Fujioka, S., Shimada, A., Kawano, T., and Kimura, Y. 2007. Citrinolactones A, B and C, and Sclerotinin C, Plant Growth Regulators from Penicillium citrinum. Bioscience, Biotechnology, and Biochemistry. 71(2): 499-503.
comment=[Analytical] Sample was directly injected
exact mass=222.08921
ionization potential=70 eV
computed spectral entropy=3.9395606936385903
computed normalized entropy=0.7256050660376273
SPLASH=splash10-0udl-3910000000-3b0c4185548c1c940634
submitter=submitter = Yasuo Kimura (Faculty of Agriculture, Tottori University)
MoNA Rating=3.75

>  <NUM PEAKS>  (8) 
228

>  <MASS SPECTRAL PEAKS>  (8) 
40.00 1.601602
40.54 0.200200
41.08 6.306306
42.01 1.401401
42.58 0.100100
43.05 11.411411
44.00 61.561562
44.41 0.100100
45.09 5.605606
45.99 0.400400
47.81 0.200200
50.04 1.201201
50.57 0.100100
51.07 3.103103
51.43 0.100100
51.61 0.100100
52.07 1.201201
53.07 3.903904
54.00 0.700701
55.07 4.404404
56.07 1.201201
57.11 2.002002
57.71 0.200200
58.04 1.301301
59.04 0.400400
60.04 2.002002
61.03 0.100100
61.53 0.200200
62.06 1.001001
63.02 2.402402
63.99 0.600601
65.02 4.604605
65.37 0.100100
66.01 1.501502
66.51 0.100100
67.01 4.304304
68.01 0.500501
68.97 7.807808
70.04 0.500501
71.05 1.001001
71.44 0.100100
71.95 0.500501
72.49 0.100100
73.00 0.900901
73.50 0.300300
74.01 0.700701
74.51 0.200200
74.77 0.100100
74.95 0.700701
75.99 1.201201
77.05 10.310310
78.01 2.702703
79.06 7.007007
79.93 1.501502
81.09 5.405405
81.41 0.100100
81.92 1.401401
83.01 1.501502
84.13 0.700701
85.00 0.500501
86.05 0.300300
86.99 0.600601
88.12 0.100100
89.06 1.201201
89.82 0.100100
90.07 0.700701
90.50 0.200200
91.08 8.008008
91.72 0.200200
92.08 1.401401
93.08 2.602603
94.01 1.101101
94.30 0.200200
94.52 0.100100
95.05 5.005005
96.06 1.101101
96.99 0.600601
97.63 0.100100
97.99 0.500501
99.00 0.300300
99.93 0.200200
100.98 0.300300
102.00 1.301301
102.98 4.204204
104.00 1.001001
105.02 5.005005
105.38 0.100100
106.04 1.201201
106.95 5.205205
108.00 3.203203
109.02 7.607608
110.04 4.504505
110.62 0.100100
110.98 1.401401
112.04 0.500501
113.05 0.200200
114.00 0.400400
115.05 2.402402
116.04 0.800801
117.05 1.201201
118.00 0.800801
119.02 1.901902
120.04 1.001001
121.06 3.603604
122.05 2.002002
122.67 0.100100
123.06 31.631632
124.03 6.406406
125.05 2.602603
126.04 0.600601
126.92 1.101101
127.95 1.701702
129.12 0.800801
130.04 0.400400
131.08 2.102102
132.09 0.700701
133.09 8.108108
133.49 0.400400
134.06 2.602603
135.07 2.502503
136.01 4.104104
137.07 58.558559
138.02 6.606607
139.03 1.501502
139.93 0.600601
140.98 0.600601
141.85 0.300300
143.02 0.300300
144.00 0.100100
145.05 0.800801
145.67 0.100100
146.04 0.100100
146.69 0.100100
147.02 2.302302
147.56 0.100100
148.04 1.101101
148.51 0.100100
149.09 14.614615
150.07 8.108108
151.16 37.637638
152.10 100.000000
152.72 0.200200
153.08 9.509510
153.99 1.301301
154.67 0.100100
155.07 0.400400
155.47 0.100100
157.03 0.400400
158.08 0.100100
159.09 0.400400
160.00 0.600601
161.05 3.703704
162.07 1.401401
163.12 4.404404
164.09 2.902903
165.00 1.401401
166.12 0.900901
167.07 0.200200
168.04 0.400400
169.24 0.100100
171.04 0.200200
172.08 0.200200
173.01 0.500501
174.09 0.400400
175.09 1.501502
175.70 0.400400
176.09 2.002002
177.03 6.106106
178.06 14.214214
179.07 4.904905
180.04 1.801802
181.08 2.802803
182.05 0.500501
183.02 0.200200
184.10 0.100100
184.39 0.100100
185.11 0.100100
186.12 0.200200
187.12 0.100100
187.52 0.100100
188.09 0.200200
189.03 1.101101
190.07 0.400400
191.07 0.700701
192.00 0.700701
193.06 19.019019
194.11 4.104104
195.04 0.700701
196.12 40.140140
196.50 0.100100
197.07 5.405405
198.11 0.400400
199.07 0.300300
200.11 0.100100
200.82 0.400400
203.04 0.600601
204.07 2.302302
204.75 0.100100
205.07 0.600601
206.07 1.001001
207.04 5.005005
208.11 1.001001
209.04 0.400400
210.00 0.500501
212.08 0.100100
213.05 0.100100
214.09 0.100100
215.13 0.100100
216.06 0.100100
220.11 0.400400
220.69 0.400400
221.05 0.800801
222.11 34.334334
223.18 5.105105
224.08 0.500501
225.20 0.200200
226.14 0.200200
228.09 0.200200
230.22 0.200200
231.09 0.300300
231.56 0.400400
232.17 0.200200
233.08 0.100100
234.24 0.100100
235.18 0.100100
236.09 0.400400
236.85 0.100100
239.75 0.200200

$$$$

     RDKit          2D

 17 19  0  0  1  0  0  0  0  0999 V2000
   -4.5489    0.9002    0.0000 C   0  0  0  0  0  0  0  0  0  0  0  0
    2.4500    2.5200    0.0000 C   0  0  0  0  0  0  0  0  0  0  0  0
    3.0600    1.1500    0.0000 C   0  0  0  0  0  0  0  0  0  0  0  0
   -1.9500    0.9000    0.0000 C   0  0  0  0  0  0  0  0  0  0  0  0
   -3.2500   -1.3500    0.0000 C   0  0  0  0  0  0  0  0  0  0  0  0
   -3.2500    0.1500    0.0000 C   0  0  0  0  0  0  0  0  0  0  0  0
   -0.6500    0.1500    0.0000 C   0  0  0  0  0  0  0  0  0  0  0  0
    0.9600    2.3600    0.0000 C   0  0  0  0  0  0  0  0  0  0  0  0
   -1.9500   -2.1000    0.0000 C   0  0  0  0  0  0  0  0  0  0  0  0
    1.9500    0.1500    0.0000 C   0  0  0  0  0  0  0  0  0  0  0  0
    0.6500    0.9000    0.0000 C   0  0  0  0  0  0  0  0  0  0  0  0
   -0.6500   -1.3500    0.0000 C   0  0  0  0  0  0  0  0  0  0  0  0
    0.6500   -2.1000    0.0000 C   0  0  0  0  0  0  0  0  0  0  0  0
   -0.0451    3.4735    0.0000 O   0  0  0  0  0  0  0  0  0  0  0  0
   -1.9500   -3.6000    0.0000 O   0  0  0  0  0  0  0  0  0  0  0  0
    0.6500   -3.6000    0.0000 O   0  0  0  0  0  0  0  0  0  0  0  0
    1.9500   -1.3500    0.0000 O   0  0  0  0  0  0  0  0  0  0  0  0
  3  2  1  0
  6  1  1  0
  6  4  1  0
  6  5  2  0
  7  4  2  0
  8  2  1  0
  9  5  1  0
 10  3  1  0
 11  7  1  0
 11  8  1  0
 11 10  2  0
 12  7  1  0
 12  9  2  0
 13 12  1  0
  8 14  1  1
 15  9  1  0
 16 13  2  0
 17 10  1  0
 17 13  1  0
M  END
>  <NAME>  (9) 
Citrinolactone B

>  <SYNONYMS>  (9) 


>  <SPECTRUM TYPE>  (9) 
MS1

>  <INSTRUMENT TYPE>  (9) 
EI-B

>  <INSTRUMENT>  (9) 
JEOL JMX-SX 102

>  <ION MODE>  (9) 
P

>  <INCHIKEY>  (9) 
DMYRPFPADKEUEO-QMMMGPOBSA-N

>  <FORMULA>  (9) 
C13H12O4

>  <EXACT MASS>  (9) 
232.073558864

>  <MW>  (9) 
232

>  <ID>  (9) 
TT000123

>  <CONTRIBUTOR>  (9) 
Yasuo Kimura, {Faculty of Agriculture, Tottori University

>  <COMMENT>  (9) 
compound class=Natural Product; Isocoumarin
SMILES=CC1=CC(=C2C(=C1)C3=C(CC[C@@H]3O)OC2=O)O
pubchem cid=102595350
InChI=InChI=1S/C13H12O4/c1-6-4-7-11-8(14)2-3-10(11)17-13(16)12(7)9(15)5-6/h4-5,8,14-15H,2-3H2,1H3/t8-/m0/s1
computed SMILES=O=C1OC2=C(C=3C=C(C=C(O)C13)C)C(O)CC2
license=CC BY-SA
accession=TT000123
date=2016.01.19 (Created 2008.10.21, modified 2011.05.06)
author=Kimura Y, Kuramata M, Faculty of Agriculture, Tottori University
publication=Kuramata, M., Fujioka, S., Shimada, A., Kawano, T., and Kimura, Y. 2007. Citrinolactones A, B and C, and Sclerotinin C, Plant Growth Regulators from Penicillium citrinum. Bioscience, Biotechnology, and Biochemistry. 71(2): 499-503.
comment=[Analytical] Sample was directly injected
exact mass=232.07356
ionization potential=70 eV
computed spectral entropy=3.842909718102711
computed normalized entropy=0.7280837886653564
SPLASH=splash10-0gx0-3590000000-95e3296b5dc751b849ca
submitter=submitter = Yasuo Kimura (Faculty of Agriculture, Tottori University)
MoNA Rating=3.75

>  <NUM PEAKS>  (9) 
196

>  <MASS SPECTRAL PEAKS>  (9) 
40.00 1.801802
41.00 4.404404
41.99 0.900901
43.03 2.902903
43.94 0.700701
44.98 0.200200
49.00 0.100100
49.96 3.503504
51.00 12.112112
51.54 0.200200
52.03 5.705706
53.11 11.511512
54.07 0.700701
54.98 7.707708
55.98 0.400400
57.10 0.600601
57.51 0.500501
57.97 0.200200
59.00 0.200200
60.04 0.200200
61.03 0.500501
62.02 2.502503
63.02 6.606607
63.55 0.500501
64.05 4.704705
64.55 0.700701
65.03 15.215215
65.45 0.400400
66.03 5.905906
66.94 2.402402
67.89 0.400400
68.93 4.404404
69.46 0.400400
69.96 1.101101
70.42 0.200200
70.96 0.400400
71.97 0.300300
72.97 0.400400
73.97 2.002002
74.98 3.203203
76.03 3.003003
77.03 12.412412
77.49 0.200200
78.03 3.803804
78.54 0.300300
79.04 5.505506
79.54 0.200200
80.00 2.702703
80.46 0.300300
81.08 3.403403
82.08 0.600601
83.08 0.200200
84.00 0.600601
84.50 0.100100
85.08 0.100100
85.50 0.100100
86.00 0.700701
86.50 0.100100
87.00 1.701702
87.46 0.200200
88.00 1.301301
88.50 0.900901
88.96 4.604605
90.0 1.501502
90.97 4.404404
92.02 2.702703
92.52 0.600601
93.03 7.207207
93.53 0.600601
94.03 3.503504
94.45 0.100100
95.0 1.701702
96.01 0.100100
96.97 0.500501
97.94 0.400400
98.99 0.300300
99.96 0.400400
100.97 2.302302
101.48 1.101101
101.98 5.005005
102.49 0.300300
103.00 2.402402
104.01 0.600601
105.02 4.104104
106.03 5.405405
106.54 0.300300
107.05 5.105105
107.55 0.900901
108.06 0.600601
108.52 0.100100
109.11 4.804805
110.04 0.400400
111.05 0.200200
113.01 0.300300
113.97 0.500501
114.98 8.008008
115.48 2.502503
115.98 6.106106
116.49 0.700701
117.07 1.201201
118.08 0.800801
118.95 1.001001
119.96 0.400400
121.01 8.708709
122.03 7.907908
123.04 0.900901
124.01 0.600601
125.02 0.700701
125.99 0.400400
127.05 2.602603
128.06 5.905906
129.07 5.105105
130.04 2.002002
130.97 2.402402
131.98 1.601602
133.00 4.804805
134.01 5.405405
134.98 3.003003
135.99 0.300300
137.05 0.100100
138.99 0.600601
140.00 0.400400
141.01 0.900901
142.02 0.200200
143.03 0.600601
144.03 1.801802
145.04 1.701702
146.05 0.500501
146.97 0.800801
147.98 0.500501
148.99 0.700701
149.96 3.403403
151.02 16.416416
151.98 1.601602
153.04 0.100100
154.98 0.200200
155.99 0.200200
157.00 3.403403
158.02 7.207207
159.03 2.202202
160.04 1.001001
160.96 2.302302
162.05 0.200200
162.97 0.300300
164.02 0.100100
164.94 0.200200
166.95 0.100100
167.95 0.500501
168.95 0.500501
170.00 0.100100
170.97 0.900901
171.97 0.300300
172.98 0.600601
173.99 0.600601
175.00 2.402402
175.92 2.702703
176.93 3.103103
178.03 0.500501
178.99 0.100100
183.00 0.100100
184.01 0.400400
185.06 18.518519
186.05 41.241241
187.05 6.706707
188.06 0.800801
188.99 0.600601
190.00 0.300300
192.99 0.200200
195.93 0.400400
196.93 0.200200
198.01 0.200200
198.92 0.200200
199.96 0.400400
200.92 1.301301
201.97 1.101101
203.05 77.377377
204.10 37.537538
205.02 5.205205
206.03 0.600601
207.03 0.100100
212.04 0.200200
212.96 2.402402
214.03 100.000000
215.08 29.529530
216.04 4.104104
217.00 0.800801
218.08 0.100100
222.02 0.400400
226.03 0.100100
228.97 0.600601
230.00 1.601602
231.08 25.825826
232.04 100.000000
233.04 19.619620
234.00 2.402402
235.04 0.200200

$$$$

     RDKit          2D

 21 23  0  0  1  0  0  0  0  0999 V2000
   -4.5489    0.9002    0.0000 C   0  0  0  0  0  0  0  0  0  0  0  0
    2.2531    6.1120    0.0000 C   0  0  0  0  0  0  0  0  0  0  0  0
    3.0600    1.1500    0.0000 C   0  0  0  0  0  0  0  0  0  0  0  0
    2.4500    2.5200    0.0000 C   0  0  0  0  0  0  0  0  0  0  0  0
   -1.9500    0.9000    0.0000 C   0  0  0  0  0  0  0  0  0  0  0  0
   -3.2500   -1.3500    0.0000 C   0  0  0  0  0  0  0  0  0  0  0  0
   -3.2500    0.1500    0.0000 C   0  0  0  0  0  0  0  0  0  0  0  0
   -0.6500    0.1500    0.0000 C   0  0  0  0  0  0  0  0  0  0  0  0
   -1.9500   -2.1000    0.0000 C   0  0  0  0  0  0  0  0  0  0  0  0
    1.9500    0.1500    0.0000 C   0  0  0  0  0  0  0  0  0  0  0  0
   -0.6500   -1.3500    0.0000 C   0  0  0  0  0  0  0  0  0  0  0  0
    0.6500    0.9000    0.0000 C   0  0  0  0  0  0  0  0  0  0  0  0
    0.6500   -2.1000    0.0000 C   0  0  0  0  0  0  0  0  0  0  0  0
    0.9576    3.8600    0.0000 C   0  0  0  0  0  0  0  0  0  0  0  0
    0.9600    2.3600    0.0000 C   0  0  0  0  0  0  0  0  0  0  0  0
   -1.9500   -3.6000    0.0000 O   0  0  0  0  0  0  0  0  0  0  0  0
    0.6500   -3.6000    0.0000 O   0  0  0  0  0  0  0  0  0  0  0  0
   -0.3426    4.6080    0.0000 O   0  0  0  0  0  0  0  0  0  0  0  0
   -0.5319    2.5155    0.0000 O   0  0  0  0  0  0  0  0  0  0  0  0
    2.2555    4.6120    0.0000 O   0  0  0  0  0  0  0  0  0  0  0  0
    1.9500   -1.3500    0.0000 O   0  0  0  0  0  0  0  0  0  0  0  0
  4  3  1  0
  7  1  1  0
  7  5  1  0
  7  6  2  0
  8  5  2  0
  9  6  1  0
 10  3  1  0
 11  8  1  0
 11  9  2  0
 12  8  1  0
 12 10  2  0
 13 11  1  0
 15  4  1  0
 15 12  1  0
 15 14  1  0
 16  9  1  0
 17 13  2  0
 18 14  2  0
 15 19  1  1
 20  2  1  0
 20 14  1  0
 21 10  1  0
 21 13  1  0
M  END
>  <NAME>  (10) 
Citrinolactone A

>  <SYNONYMS>  (10) 


>  <SPECTRUM TYPE>  (10) 
MS1

>  <INSTRUMENT TYPE>  (10) 
EI-B

>  <INSTRUMENT>  (10) 
JEOL JMX-SX 102

>  <ION MODE>  (10) 
P

>  <INCHIKEY>  (10) 
MWJQDTTVNPGMAY-HNNXBMFYSA-N

>  <FORMULA>  (10) 
C15H14O6

>  <EXACT MASS>  (10) 
290.079038168

>  <MW>  (10) 
290

>  <ID>  (10) 
TT000121

>  <CONTRIBUTOR>  (10) 
Yasuo Kimura, {Faculty of Agriculture, Tottori University

>  <COMMENT>  (10) 
compound class=Natural Product; Isocoumarin
SMILES=CC1=CC(=C2C(=C1)C3=C(CC[C@]3(C(=O)OC)O)OC2=O)O
pubchem cid=102595349
InChI=InChI=1S/C15H14O6/c1-7-5-8-11(9(16)6-7)13(17)21-10-3-4-15(19,12(8)10)14(18)20-2/h5-6,16,19H,3-4H2,1-2H3/t15-/m0/s1
computed SMILES=O=C1OC2=C(C=3C=C(C=C(O)C13)C)C(O)(C(=O)OC)CC2
accession=TT000121
date=2016.01.19 (Created 2008.10.21, modified 2011.05.06)
author=Kimura Y, Kuramata M, Faculty of Agriculture, Tottori University
license=CC BY-SA
publication=Kuramata, M., Fujioka, S., Shimada, A., Kawano, T., and Kimura, Y. 2007. Citrinolactones A, B and C, and Sclerotinin C, Plant Growth Regulators from Penicillium citrinum. Bioscience, Biotechnology, and Biochemistry. 71(2): 499-503.
comment=[Analytical] Sample was directly injected
exact mass=290.07904
ionization potential=70 eV
computed spectral entropy=4.071663424917274
computed normalized entropy=0.7499363096729903
SPLASH=splash10-001i-5590000000-da772180c4b263296a1a
submitter=submitter = Yasuo Kimura (Faculty of Agriculture, Tottori University)
MoNA Rating=3.75

>  <NUM PEAKS>  (10) 
228

>  <MASS SPECTRAL PEAKS>  (10) 
40.0 1.201201
41.0 4.804805
42.0 0.600601
43.0 4.504505
44.0 1.301301
45.0 1.001001
47.0 0.100100
49.1 0.100100
50.1 2.302302
51.1 8.808809
52.1 5.805806
53.1 7.107107
54.1 0.700701
55.0 8.808809
56.1 0.900901
57.1 3.403403
57.6 0.200200
58.1 0.200200
59.0 3.103103
60.0 2.702703
61.0 0.500501
62.0 1.801802
63.0 5.505506
63.5 0.300300
64.0 2.802803
64.5 0.300300
65.0 5.905906
65.5 0.200200
66.1 4.504505
67.1 2.302302
68.1 0.500501
69.0 9.009009
69.6 0.100100
70.0 0.700701
71.0 2.102102
72.0 0.200200
73.1 2.402402
73.6 0.100100
74.1 1.301301
75.0 2.502503
76.0 2.002002
77.0 10.810811
77.5 0.100100
78.1 3.103103
78.5 0.200200
79.0 9.109109
80.0 2.502503
80.9 3.603604
81.8 0.700701
83.1 1.201201
84.0 0.400400
84.8 0.300300
85.1 1.201201
85.9 0.400400
86.5 0.100100
86.9 1.301301
87.4 0.300300
88.0 1.301301
88.5 1.201201
89.0 5.905906
89.9 1.301301
91.0 4.104104
92.0 1.501502
92.5 0.500501
93.0 1.301301
94.0 3.303303
95.0 1.501502
96.0 0.300300
97.0 2.102102
98.0 0.300300
99.1 0.400400
100.1 0.500501
100.6 0.200200
101.1 2.602603
101.6 1.901902
102.1 1.701702
103.1 1.801802
104.0 0.600601
104.9 2.502503
106.0 3.303303
106.5 0.500501
107.0 2.202202
107.9 0.800801
109.0 1.301301
110.0 0.200200
111.0 0.600601
112.1 0.200200
113.0 0.400400
113.9 0.400400
115.0 7.207207
115.5 7.107107
116.0 1.601602
116.5 0.100100
117.0 1.101101
118.0 0.700701
119.0 1.301301
120.0 0.400400
121.1 2.802803
122.0 8.708709
123.0 1.801802
124.0 0.300300
124.9 4.704705
126.0 0.700701
127.0 2.802803
128.0 5.605606
129.0 3.403403
130.0 0.500501
130.9 1.601602
132.0 1.301301
132.9 1.501502
133.9 1.901902
134.9 1.101101
136.0 0.200200
136.9 0.400400
138.1 0.100100
138.9 0.400400
140.0 0.200200
141.0 0.400400
141.9 0.700701
143.0 0.500501
144.1 0.600601
145.0 1.201201
146.0 0.300300
147.1 0.800801
148.0 0.300300
149.0 1.401401
150.0 5.905906
151.0 17.017017
152.0 3.903904
153.0 0.400400
153.8 0.100100
155.0 0.500501
155.8 0.400400
156.0 0.300300
156.9 2.602603
157.7 0.700701
158.1 0.400400
158.9 0.300300
159.9 1.001001
161.0 1.401401
161.9 0.200200
163.0 0.400400
164.1 0.100100
165.1 0.100100
166.0 0.800801
167.0 0.500501
168.1 0.100100
169.1 0.100100
170.1 0.100100
171.1 1.101101
172.1 0.200200
173.1 0.900901
174.1 1.301301
175.1 7.107107
176.1 1.601602
177.0 2.102102
178.0 0.400400
179.0 0.100100
181.1 0.100100
183.0 0.300300
184.0 0.900901
185.1 2.502503
186.0 1.001001
187.0 0.700701
188.1 0.300300
189.0 0.300300
190.1 0.400400
191.1 0.100100
192.2 0.100100
193.1 0.400400
198.1 0.200200
199.1 0.200200
200.1 0.200200
201.0 4.704705
202.0 2.802803
203.0 4.604605
204.0 0.800801
205.0 0.200200
207.0 0.200200
211.0 0.300300
211.9 0.300300
213.0 1.101101
214.0 2.402402
215.0 1.901902
216.0 0.800801
217.1 0.200200
219.1 0.300300
221.0 0.200200
222.1 0.700701
223.1 0.200200
227.1 0.200200
228.2 0.200200
229.1 3.303303
230.1 13.013013
231.0 100.000000
232.1 66.966967
233.1 7.807808
234.0 1.401401
235.1 0.100100
239.0 0.100100
240.1 0.700701
241.0 0.200200
242.1 0.300300
243.1 0.400400
244.1 0.700701
245.0 1.101101
246.0 0.200200
256.2 0.500501
257.0 0.200200
257.3 0.100100
258.1 0.100100
261.0 0.300300
262.1 0.100100
268.1 0.700701
269.0 0.100100
271.1 0.100100
272.0 0.500501
273.0 1.001001
274.0 0.400400
278.0 0.400400
279.0 0.100100
281.0 0.100100
288.0 0.300300
289.0 0.500501
290.1 28.028028
291.1 5.005005
292.1 0.700701
300.1 0.200200

$$$$

     RDKit          2D

 27 29  0  0  0  0  0  0  0  0999 V2000
    9.0948    3.0010    0.0000 C   0  0  0  0  0  0  0  0  0  0  0  0
   -5.1981    0.7504    0.0000 C   0  0  0  0  0  0  0  0  0  0  0  0
   -5.1981   -0.7504    0.0000 C   0  0  0  0  0  0  0  0  0  0  0  0
    3.8987   -3.0002    0.0000 C   0  0  0  0  0  0  0  0  0  0  0  0
    5.1986    0.7496    0.0000 C   0  0  0  0  0  0  0  0  0  0  0  0
    6.4975    1.4998    0.0000 C   0  0  0  0  0  0  0  0  0  0  0  0
    3.8982    3.0010    0.0000 C   0  0  0  0  0  0  0  0  0  0  0  0
   -1.3000    1.5000    0.0000 C   0  0  0  0  0  0  0  0  0  0  0  0
    3.8989    1.5002    0.0000 C   0  0  0  0  0  0  0  0  0  0  0  0
    5.1971    3.7512    0.0000 C   0  0  0  0  0  0  0  0  0  0  0  0
    6.4968    3.0006    0.0000 C   0  0  0  0  0  0  0  0  0  0  0  0
    0.0000    0.7500    0.0000 C   0  0  0  0  0  0  0  0  0  0  0  0
   -2.6000    0.7500    0.0000 C   0  0  0  0  0  0  0  0  0  0  0  0
    0.0000   -0.7500    0.0000 C   0  0  0  0  0  0  0  0  0  0  0  0
   -1.3000   -1.5000    0.0000 C   0  0  0  0  0  0  0  0  0  0  0  0
    1.3000   -1.5000    0.0000 C   0  0  0  0  0  0  0  0  0  0  0  0
    2.6000    0.7500    0.0000 C   0  0  0  0  0  0  0  0  0  0  0  0
   -2.6000   -0.7500    0.0000 C   0  0  0  0  0  0  0  0  0  0  0  0
    2.6000   -0.7500    0.0000 C   0  0  0  0  0  0  0  0  0  0  0  0
    5.1971    5.2512    0.0000 O   0  0  0  0  0  0  0  0  0  0  0  0
   -1.3000   -3.0000    0.0000 O   0  0  0  0  0  0  0  0  0  0  0  0
    1.3000   -3.0000    0.0000 O   0  0  0  0  0  0  0  0  0  0  0  0
    7.7957    3.7508    0.0000 O   0  0  0  0  0  0  0  0  0  0  0  0
   -3.8989    1.5002    0.0000 O   0  0  0  0  0  0  0  0  0  0  0  0
   -3.8989   -1.5002    0.0000 O   0  0  0  0  0  0  0  0  0  0  0  0
    3.8989   -1.5002    0.0000 O   0  0  0  0  0  0  0  0  0  0  0  0
    1.3000    1.5000    0.0000 O   0  0  0  0  0  0  0  0  0  0  0  0
  6  5  2  0
  9  5  1  0
  9  7  2  0
 10  7  1  0
 11  6  1  0
 11 10  2  0
 12  8  2  0
 13  8  1  0
 14 12  1  0
 15 14  2  0
 16 14  1  0
 17  9  1  0
 18 13  2  0
 18 15  1  0
 19 16  1  0
 19 17  2  0
 20 10  1  0
 21 15  1  0
 22 16  2  0
 23  1  1  0
 23 11  1  0
 24  2  1  0
 24 13  1  0
 25  3  1  0
 25 18  1  0
 26  4  1  0
 26 19  1  0
 27 12  1  0
 27 17  1  0
M  END
>  <NAME>  (11) 
Vitexicarpin

>  <SYNONYMS>  (11) 
3',5-Dihydroxy-3,4',6,7-tetramethoxyflavone
Casticin

>  <SPECTRUM TYPE>  (11) 
MS1

>  <INSTRUMENT TYPE>  (11) 
EI-B

>  <INSTRUMENT>  (11) 
Unknown

>  <ION MODE>  (11) 
P

>  <INCHIKEY>  (11) 
PJQLSMYMOKWUJG-UHFFFAOYSA-N

>  <FORMULA>  (11) 
C19H18O8

>  <EXACT MASS>  (11) 
374.10016753599996

>  <MW>  (11) 
374

>  <ID>  (11) 
TT000113

>  <CONTRIBUTOR>  (11) 
Yasuo Kimura, {Faculty of Agriculture, Tottori University

>  <COMMENT>  (11) 
compound class=Natural Product; Flavonoid
SMILES=COc(c3)c(O)cc(c3)C(O1)=C(OC)C(=O)c(c(O)2)c(cc(OC)c(OC)2)1
chemspider=4474632
pubchem cid=5315263
InChI=InChI=1S/C19H18O8/c1-23-11-6-5-9(7-10(11)20)17-19(26-4)16(22)14-12(27-17)8-13(24-2)18(25-3)15(14)21/h5-8,20-21H,1-4H3
computed SMILES=O=C1C(OC)=C(OC2=CC(OC)=C(OC)C(O)=C12)C=3C=CC(OC)=C(O)C3
accession=TT000113
date=2016.01.19 (Created 2008.10.21, modified 2011.05.06)
author=Kimura Y, Inokuchi T, Faculty of Agriculture, Tottori University
license=CC BY-SA
publication=Yoshioka, T., Inokuchi, T., Fujioka, S., and Kimura, Y. 2004. Phenolic Compounds and Flavonoids as Plant Growth Regulators from Fruit and Leaf of Vitex rotundifolia. Z. Naturforsch. 59c:509-514. doi:10.1515/znc-2004-7-810
comment=[Analytical] Sample was directly injected
exact mass=374.10017
ionization potential=70 eV
computed spectral entropy=4.3059149964589665
computed normalized entropy=0.729490509277103
SPLASH=splash10-05fr-0219000000-b10838d2170a87f5e165
submitter=submitter = Yasuo Kimura (Faculty of Agriculture, Tottori University)
MoNA Rating=3.75

>  <NUM PEAKS>  (11) 
366

>  <MASS SPECTRAL PEAKS>  (11) 
41.0 0.500501
42.0 0.100100
42.9 0.800801
43.9 0.800801
45.0 0.100100
50.1 0.200200
50.9 0.500501
51.9 0.400400
53.0 0.600601
54.0 0.200200
54.9 0.400400
56.0 0.200200
57.0 0.400400
58.9 0.600601
59.9 0.100100
61.9 0.200200
62.8 0.600601
63.8 0.300300
64.9 0.700701
66.0 0.600601
67.0 0.300300
69.1 2.402402
70.0 0.100100
71.0 0.200200
73.0 0.200200
74.1 0.100100
75.0 0.400400
75.9 0.300300
77.0 1.001001
78.0 0.300300
79.0 0.400400
79.9 0.300300
81.0 0.300300
81.9 0.300300
83.0 0.200200
84.1 0.100100
85.0 0.400400
87.0 0.200200
88.0 0.100100
88.9 0.500501
90.0 0.200200
91.0 1.401401
91.9 0.800801
92.9 1.001001
94.0 0.300300
95.0 0.300300
96.1 0.100100
97.1 0.200200
98.0 0.100100
99.0 0.200200
99.9 0.200200
101.0 0.200200
102.0 0.300300
103.0 0.300300
103.9 0.400400
104.9 0.700701
106.0 0.200200
106.9 0.400400
107.9 1.001001
108.5 0.100100
108.9 0.800801
110.0 0.200200
111.0 0.100100
111.9 0.200200
112.5 0.100100
112.9 0.400400
113.5 0.100100
114.0 0.200200
115.0 0.600601
115.5 0.100100
116.0 0.100100
117.0 0.400400
118.0 0.300300
119.0 0.600601
119.9 1.001001
120.4 0.400400
121.0 1.401401
121.5 0.100100
122.0 0.500501
122.5 0.200200
123.0 1.001001
124.0 0.300300
124.9 0.800801
126.0 0.300300
126.5 0.300300
127.0 0.200200
127.4 0.200200
127.9 1.301301
128.4 0.300300
128.9 0.500501
129.4 0.100100
129.9 0.400400
131.0 0.300300
131.9 0.400400
132.9 0.700701
133.4 0.200200
134.0 0.700701
134.5 0.200200
135.1 2.902903
135.5 0.400400
135.9 1.301301
136.4 0.400400
137.0 1.001001
138.1 0.200200
139.0 0.200200
140.1 0.100100
140.5 0.400400
141.0 0.300300
141.5 0.300300
142.1 3.703704
142.5 0.800801
143.0 0.500501
143.4 0.200200
143.9 2.102102
144.4 0.400400
145.0 0.600601
145.9 0.400400
147.0 0.600601
147.9 0.600601
148.5 0.200200
149.0 3.103103
149.5 0.700701
150.0 0.700701
150.5 0.200200
151.0 5.805806
152.1 0.800801
153.0 4.704705
154.0 0.500501
155.0 0.400400
156.0 0.500501
156.5 0.300300
157.0 1.001001
157.6 0.200200
158.0 1.901902
158.6 0.200200
159.0 0.500501
160.1 0.500501
161.0 2.102102
162.0 0.500501
163.1 2.202202
163.5 0.200200
164.0 5.805806
164.6 0.200200
164.9 1.001001
165.5 1.001001
166.0 0.400400
167.0 1.201201
168.0 0.300300
168.5 0.100100
169.0 0.200200
169.5 0.100100
169.9 0.200200
171.0 1.001001
171.5 0.200200
172.0 0.400400
172.5 0.100100
173.0 4.404404
173.5 0.600601
174.1 0.500501
175.0 1.601602
175.9 0.600601
176.5 0.100100
177.0 1.001001
177.9 1.601602
179.0 0.800801
179.5 0.800801
179.9 0.300300
181.0 4.204204
181.9 0.600601
182.9 0.200200
184.0 0.200200
185.0 0.300300
186.0 0.400400
187.0 2.802803
187.4 0.400400
187.9 0.500501
189.0 0.500501
190.0 0.200200
190.9 0.200200
191.9 0.200200
192.9 1.301301
193.9 0.200200
194.9 0.500501
196.0 0.500501
196.9 1.201201
198.0 0.300300
199.0 0.400400
199.9 0.400400
201.0 0.500501
201.8 0.600601
202.9 0.600601
203.9 0.500501
205.0 0.300300
206.0 0.100100
206.9 0.400400
208.0 0.200200
209.1 0.200200
210.1 0.100100
211.0 0.200200
212.0 0.200200
213.0 0.400400
214.0 0.400400
214.9 0.600601
216.0 0.200200
217.0 1.801802
217.9 0.300300
219.0 0.200200
219.9 0.100100
221.0 0.300300
222.1 2.402402
222.9 0.500501
224.0 0.200200
225.0 0.200200
226.0 0.200200
226.9 0.400400
228.0 0.500501
229.0 0.700701
229.9 0.400400
231.0 1.501502
232.0 0.300300
233.0 0.100100
234.0 0.400400
235.0 0.400400
235.9 0.400400
237.0 0.100100
237.9 0.100100
239.0 0.300300
240.0 0.200200
241.0 0.400400
241.9 0.600601
242.9 0.800801
244.0 0.600601
244.9 2.102102
245.9 0.400400
247.0 0.200200
248.1 0.200200
249.1 0.300300
250.1 0.200200
251.1 0.500501
252.0 0.200200
253.0 0.400400
254.0 0.200200
255.0 0.400400
255.9 0.600601
257.0 0.800801
258.0 0.400400
259.0 0.800801
260.0 1.001001
261.1 0.200200
262.0 0.300300
263.1 0.200200
264.0 0.100100
265.0 0.200200
265.9 0.200200
266.9 0.200200
268.0 0.300300
268.9 0.500501
269.9 0.900901
270.8 1.201201
271.8 0.500501
273.0 3.603604
273.9 0.600601
275.0 0.200200
276.1 0.200200
277.1 0.100100
278.0 0.200200
279.1 0.200200
280.1 0.700701
281.0 1.001001
282.0 0.400400
282.9 0.800801
283.9 0.800801
285.0 1.801802
286.0 0.600601
286.9 1.201201
287.9 1.701702
289.0 0.400400
290.1 0.100100
292.0 0.100100
293.1 0.100100
294.0 0.200200
295.1 0.600601
296.0 0.500501
297.0 0.900901
298.1 1.001001
298.9 1.601602
300.0 1.001001
301.1 3.603604
302.0 0.800801
303.0 0.500501
303.9 0.200200
306.1 0.100100
306.8 0.200200
307.8 0.300300
308.9 0.800801
309.9 0.600601
310.8 0.800801
311.9 0.900901
313.0 4.304304
313.9 2.002002
314.8 2.102102
316.0 4.704705
316.9 0.900901
318.2 0.400400
319.0 0.200200
320.2 0.100100
321.0 0.200200
322.0 0.200200
323.0 0.200200
323.9 0.200200
324.9 1.601602
326.1 2.202202
327.1 4.204204
328.0 3.003003
329.0 5.105105
329.9 1.801802
331.0 10.510511
331.9 2.002002
333.1 0.200200
334.0 0.200200
336.0 3.303303
336.8 1.001001
337.9 2.302302
339.2 2.402402
340.0 1.101101
341.1 4.104104
342.0 1.101101
343.1 3.303303
344.1 2.402402
345.0 4.504505
346.1 1.101101
347.1 0.200200
348.2 0.100100
349.9 6.306306
350.9 1.601602
352.0 4.204204
352.9 1.001001
353.8 0.800801
355.2 19.519520
356.0 8.108108
356.9 5.105105
358.0 1.901902
359.0 51.351351
359.9 10.110110
360.9 1.701702
362.1 0.200200
364.1 0.200200
367.9 1.601602
368.8 0.200200
369.8 0.900901
371.0 0.300300
372.0 0.200200
373.1 37.837838
374.0 100.000000
375.2 20.020020
376.2 3.803804
377.0 0.400400
381.9 2.702703
382.9 0.400400
383.9 1.801802
384.9 0.300300
386.0 0.300300
387.1 0.100100
388.1 0.200200
389.2 0.100100
390.1 0.200200

$$$$

     RDKit          2D

 28 31  0  0  1  0  0  0  0  0999 V2000
    3.1130    4.9420    0.0000 C   0  0  0  0  0  0  0  0  0  0  0  0
   -1.6800    1.1900    0.0000 C   0  0  0  0  0  0  0  0  0  0  0  0
    2.3787    3.4316    0.0000 C   0  0  0  0  0  0  0  0  0  0  0  0
    9.4486    7.6082    0.0000 C   0  0  0  0  0  0  0  0  0  0  0  0
   -4.2800   -1.8100    0.0000 C   0  0  0  0  0  0  0  0  0  0  0  0
   -4.2800   -0.3100    0.0000 C   0  0  0  0  0  0  0  0  0  0  0  0
   -2.9800   -2.5600    0.0000 C   0  0  0  0  0  0  0  0  0  0  0  0
    5.5829    4.1361    0.0000 C   0  0  0  0  0  0  0  0  0  0  0  0
    4.5300    1.1900    0.0000 C   0  0  0  0  0  0  0  0  0  0  0  0
    3.6500   -0.0200    0.0000 C   0  0  0  0  0  0  0  0  0  0  0  0
    6.0482    5.5621    0.0000 C   0  0  0  0  0  0  0  0  0  0  0  0
   -0.3800    1.9400    0.0000 C   0  0  0  0  0  0  0  0  0  0  0  0
   -2.9800    0.4400    0.0000 C   0  0  0  0  0  0  0  0  0  0  0  0
    0.9200    2.6900    0.0000 C   0  0  0  0  0  0  0  0  0  0  0  0
    0.9200   -1.8100    0.0000 C   0  0  0  0  0  0  0  0  0  0  0  0
    4.1153    3.8260    0.0000 C   0  0  0  0  0  0  0  0  0  0  0  0
    0.9200   -0.3100    0.0000 C   0  0  0  0  0  0  0  0  0  0  0  0
    3.6500    2.4000    0.0000 C   0  0  0  0  0  0  0  0  0  0  0  0
    2.2200    0.4400    0.0000 C   0  0  0  0  0  0  0  0  0  0  0  0
   -0.3800    0.4400    0.0000 C   0  0  0  0  0  0  0  0  0  0  0  0
   -1.6800   -1.8100    0.0000 C   0  0  0  0  0  0  0  0  0  0  0  0
   -0.3800   -2.5600    0.0000 C   0  0  0  0  0  0  0  0  0  0  0  0
    7.5158    5.8722    0.0000 C   0  0  0  0  0  0  0  0  0  0  0  0
   -1.6800   -0.3100    0.0000 C   0  0  0  0  0  0  0  0  0  0  0  0
    2.2200    1.9400    0.0000 C   0  0  0  0  0  0  0  0  0  0  0  0
   -0.3800   -4.0600    0.0000 O   0  0  0  0  0  0  0  0  0  0  0  0
    8.5181    4.7562    0.0000 O   0  0  0  0  0  0  0  0  0  0  0  0
    7.9810    7.2982    0.0000 O   0  0  0  0  0  0  0  0  0  0  0  0
  6  5  1  0
  7  5  1  0
 10  9  1  0
 11  8  1  0
 13  6  1  0
 14 12  1  0
 16  1  1  6
 16  8  1  0
 17 15  1  6
 18  9  1  1
 18 16  1  0
 19 10  1  1
 19 17  1  0
 20 12  1  1
 20 17  1  0
 21  7  1  1
 22 15  1  0
 22 21  1  0
 23 11  1  0
 24  2  1  1
 24 13  1  0
 24 20  1  0
 24 21  1  0
 25  3  1  1
 25 14  1  0
 25 18  1  0
 25 19  1  0
 22 26  1  1
 27 23  2  0
 28  4  1  0
 28 23  1  0
M  END
>  <NAME>  (12) 
6beta-Hydroxy-5alpha-cholan-24-oic acid Methyl ester

>  <SYNONYMS>  (12) 


>  <SPECTRUM TYPE>  (12) 
MS1

>  <INSTRUMENT TYPE>  (12) 
EI-B

>  <INSTRUMENT>  (12) 
JEOL DX-303 mass spectrometer

>  <ION MODE>  (12) 
P

>  <INCHIKEY>  (12) 
MOPCJIIMYLCQCF-UETNCTRESA-N

>  <FORMULA>  (12) 
C25H42O3

>  <EXACT MASS>  (12) 
390.31339520399996

>  <MW>  (12) 
390

>  <ID>  (12) 
NU000059

>  <CONTRIBUTOR>  (12) 
Takashi Iida, {Department of Chemistry, College of Humanities and Sciences, Nihon University

>  <COMMENT>  (12) 
compound class=Natural Product; BILE ACID
SMILES=C(C3(C)4)([H])(CCCC4)C(O)CC(C3([H])2)(C(C1(C)CC2)([H])CCC1([H])C(C)CCC(=O)OC)[H]
lipidbank=BBA0010
InChI=InChI=1S/C25H42O3/c1-16(8-11-23(27)28-4)18-9-10-19-17-15-22(26)21-7-5-6-13-24(21,2)20(17)12-14-25(18,19)3/h16-22,26H,5-15H2,1-4H3/t16-,17+,18-,19+,20+,21-,22-,24-,25-/m1/s1
computed SMILES=O=C(OC)CCC(C)C1CCC2C3CC(O)C4CCCCC4(C)C3CCC12C
accession=NU000059
date=2016.01.19 (Created 2008.11.11, modified 2011.05.06)
author=Takashi Iida, Department of Chemistry, College of Humanities and Sciences, Nihon University. Koichi Metori, Chemical Analytical Center, College of Pharmacy, Nihon Univercity.
license=CC BY-NC-SA
publication=Iida, T., Tamaru, T., Chang, F. C., Niwa, T., Goto, J., and Nambara, T. 1993. Potential bile acid metabolites. 20. A new synthetic route to stereoisomeric 3,6-dihydroxy- and 6-hydroxy-5 alpha-cholanoic acids [PMID: 8212086]. Steroids. 58: 362-369. doi:10.1016/0039-128X(93)90039-P
comment=Mass spectral data were collected from the publications cited in LipidBank
exact mass=390.3134
ionization potential=70 eV
column temperature=215.8 C
ion type=[M]+*
computed spectral entropy=4.252392194768752
computed normalized entropy=0.9012171690107008
SPLASH=splash10-06ea-9743000000-f0693be0475c4843b2a5
submitter=submitter = Takashi Iida (Department of Chemistry, College of Humanities and Sciences, Nihon University)
MoNA Rating=3.75

>  <NUM PEAKS>  (12) 
112

>  <MASS SPECTRAL PEAKS>  (12) 
41 33.824460
42 2.621475
43 15.972458
45 2.236985
53 8.902389
54 3.046229
55 69.799914
56 4.750971
57 7.465221
59 10.223875
65 3.124290
67 34.294940
68 11.089682
69 18.135523
71 2.544823
73 9.594717
74 9.124237
77 9.026088
78 2.136105
79 26.048581
80 5.593871
81 45.591757
82 7.590241
83 15.804442
84 2.008440
85 4.806037
87 5.174404
91 17.870680
92 4.557317
93 28.386446
94 9.179302
95 32.950547
96 8.794812
97 20.915763
98 2.144210
99 2.554251
105 17.765835
106 6.231135
107 22.004652
108 14.443926
109 23.731157
110 4.237408
111 5.944705
115 5.540127
117 3.781641
119 13.946485
120 7.756936
121 16.659413
122 8.118607
123 10.065286
124 6.448930
125 11.095056
131 5.329028
132 2.234253
133 15.030000
134 15.148325
135 17.857288
136 4.348948
137 3.733271
141 2.534075
143 2.036634
145 12.495925
146 6.638444
147 33.676531
148 26.907604
149 14.074149
150 2.396895
151 2.442622
154 12.262007
155 2.353900
159 7.344252
160 5.674487
161 11.566947
162 5.279249
163 6.259328
164 3.304376
165 2.905085
173 6.740645
174 2.290729
175 5.319601
177 3.273451
187 4.199787
188 2.858036
189 3.251954
201 7.176236
202 3.048960
203 7.203108
208 2.704822
215 47.370332
216 34.136351
217 16.205055
218 10.399996
219 2.525969
229 4.080140
230 35.994220
231 11.111180
233 7.024255
248 8.958864
249 4.332825
257 13.701818
258 2.910459
262 3.545079
289 2.226236
325 3.909393
341 7.117030
357 15.315019
358 4.405424
372 100.000000
373 30.486339
374 5.324975
390 2.265178
391 2.076986

$$$$

     RDKit          2D

 28 31  0  0  1  0  0  0  0  0999 V2000
    3.1130    4.9420    0.0000 C   0  0  0  0  0  0  0  0  0  0  0  0
   -1.6800    1.1900    0.0000 C   0  0  0  0  0  0  0  0  0  0  0  0
    2.3787    3.4316    0.0000 C   0  0  0  0  0  0  0  0  0  0  0  0
    9.4486    7.6082    0.0000 C   0  0  0  0  0  0  0  0  0  0  0  0
   -4.2800   -1.8100    0.0000 C   0  0  0  0  0  0  0  0  0  0  0  0
   -4.2800   -0.3100    0.0000 C   0  0  0  0  0  0  0  0  0  0  0  0
   -2.9800   -2.5600    0.0000 C   0  0  0  0  0  0  0  0  0  0  0  0
    5.5829    4.1361    0.0000 C   0  0  0  0  0  0  0  0  0  0  0  0
    4.5300    1.1900    0.0000 C   0  0  0  0  0  0  0  0  0  0  0  0
    3.6500   -0.0200    0.0000 C   0  0  0  0  0  0  0  0  0  0  0  0
    6.0482    5.5621    0.0000 C   0  0  0  0  0  0  0  0  0  0  0  0
   -0.3800    1.9400    0.0000 C   0  0  0  0  0  0  0  0  0  0  0  0
   -2.9800    0.4400    0.0000 C   0  0  0  0  0  0  0  0  0  0  0  0
    0.9200    2.6900    0.0000 C   0  0  0  0  0  0  0  0  0  0  0  0
    0.9200   -1.8100    0.0000 C   0  0  0  0  0  0  0  0  0  0  0  0
    4.1153    3.8260    0.0000 C   0  0  0  0  0  0  0  0  0  0  0  0
    0.9200   -0.3100    0.0000 C   0  0  0  0  0  0  0  0  0  0  0  0
    3.6500    2.4000    0.0000 C   0  0  0  0  0  0  0  0  0  0  0  0
    2.2200    0.4400    0.0000 C   0  0  0  0  0  0  0  0  0  0  0  0
   -0.3800    0.4400    0.0000 C   0  0  0  0  0  0  0  0  0  0  0  0
   -1.6800   -1.8100    0.0000 C   0  0  0  0  0  0  0  0  0  0  0  0
   -0.3800   -2.5600    0.0000 C   0  0  0  0  0  0  0  0  0  0  0  0
    7.5158    5.8722    0.0000 C   0  0  0  0  0  0  0  0  0  0  0  0
   -1.6800   -0.3100    0.0000 C   0  0  0  0  0  0  0  0  0  0  0  0
    2.2200    1.9400    0.0000 C   0  0  0  0  0  0  0  0  0  0  0  0
   -0.3800   -4.0600    0.0000 O   0  0  0  0  0  0  0  0  0  0  0  0
    8.5181    4.7562    0.0000 O   0  0  0  0  0  0  0  0  0  0  0  0
    7.9810    7.2982    0.0000 O   0  0  0  0  0  0  0  0  0  0  0  0
  6  5  1  0
  7  5  1  0
 10  9  1  0
 11  8  1  0
 13  6  1  0
 14 12  1  0
 16  1  1  6
 16  8  1  0
 17 15  1  6
 18  9  1  1
 18 16  1  0
 19 10  1  1
 19 17  1  0
 20 12  1  1
 20 17  1  0
 21  7  1  1
 22 15  1  0
 22 21  1  0
 23 11  1  0
 24  2  1  1
 24 13  1  0
 24 20  1  0
 24 21  1  0
 25  3  1  1
 25 14  1  0
 25 18  1  0
 25 19  1  0
 22 26  1  6
 27 23  2  0
 28  4  1  0
 28 23  1  0
M  END
>  <NAME>  (13) 
6alpha-Hydroxy-5alpha-cholan-24-oic acid Methyl ester

>  <SYNONYMS>  (13) 


>  <SPECTRUM TYPE>  (13) 
MS1

>  <INSTRUMENT TYPE>  (13) 
EI-B

>  <INSTRUMENT>  (13) 
JEOL DX-303 mass spectrometer

>  <ION MODE>  (13) 
P

>  <INCHIKEY>  (13) 
MOPCJIIMYLCQCF-IFIJBTQOSA-N

>  <FORMULA>  (13) 
C25H42O3

>  <EXACT MASS>  (13) 
390.31339520399996

>  <MW>  (13) 
390

>  <ID>  (13) 
NU000058

>  <CONTRIBUTOR>  (13) 
Takashi Iida, {Department of Chemistry, College of Humanities and Sciences, Nihon University

>  <COMMENT>  (13) 
compound class=Natural Product; BILE ACID
SMILES=C(C3(C)4)([H])(CCCC4)C(O)CC(C3([H])2)(C(C1(C)CC2)([H])CCC1([H])C(C)CCC(=O)OC)[H]
lipidbank=BBA0009
InChI=InChI=1S/C25H42O3/c1-16(8-11-23(27)28-4)18-9-10-19-17-15-22(26)21-7-5-6-13-24(21,2)20(17)12-14-25(18,19)3/h16-22,26H,5-15H2,1-4H3/t16-,17+,18-,19+,20+,21-,22+,24-,25-/m1/s1
computed SMILES=O=C(OC)CCC(C)C1CCC2C3CC(O)C4CCCCC4(C)C3CCC12C
accession=NU000058
date=2016.01.19 (Created 2008.11.11, modified 2011.05.06)
author=Takashi Iida, Department of Chemistry, College of Humanities and Sciences, Nihon University. Koichi Metori, Chemical Analytical Center, College of Pharmacy, Nihon Univercity.
license=CC BY-NC-SA
publication=Iida, T., Tamaru, T., Chang, F. C., Niwa, T., Goto, J., and Nambara, T. 1993. Potential bile acid metabolites. 20. A new synthetic route to stereoisomeric 3,6-dihydroxy- and 6-hydroxy-5 alpha-cholanoic acids [PMID: 8212086]. Steroids. 58: 362-369. doi:10.1016/0039-128X(93)90039-P
comment=Mass spectral data were collected from the publications cited in LipidBank
exact mass=390.3134
ionization potential=70 eV
column temperature=206.4 C
ion type=[M]+*
computed spectral entropy=4.236198740763368
computed normalized entropy=0.9198788686795173
SPLASH=splash10-0600-9743000000-4fcd432b5c86aa303220
submitter=submitter = Takashi Iida (Department of Chemistry, College of Humanities and Sciences, Nihon University)
MoNA Rating=3.75

>  <NUM PEAKS>  (13) 
100

>  <MASS SPECTRAL PEAKS>  (13) 
41 30.9570
43 14.8727
53 7.9024
55 66.4200
56 4.6050
57 7.6888
59 9.0255
67 32.1777
68 11.4577
69 19.1146
71 3.0028
73 8.1313
74 7.2814
77 7.7590
79 22.5005
80 5.5633
81 45.1522
82 8.6104
83 15.3945
85 5.5236
87 5.2627
91 15.9164
92 3.8024
93 26.0192
94 11.7355
95 34.7686
96 10.7909
97 25.4012
105 15.3747
106 6.3170
107 22.4395
108 15.3518
109 25.9216
110 6.1568
111 7.6705
115 5.1253
117 3.2470
119 10.9985
120 9.8159
121 16.4626
122 9.5702
123 12.8616
124 10.7909
125 23.7914
126 3.0623
131 4.2281
133 11.7355
134 7.7117
135 17.0699
136 5.1345
137 4.7072
145 10.5407
147 14.9963
148 13.6962
149 15.2099
151 3.3629
154 13.1072
159 6.2820
160 4.5135
161 10.6353
162 5.5190
163 6.7779
164 5.8669
165 7.4569
166 6.9564
167 3.6788
173 4.2037
175 5.1864
177 3.9840
187 3.4789
189 3.3263
201 6.8450
203 6.3430
215 48.7472
216 32.0098
217 18.8323
218 11.1236
219 4.0633
229 4.6630
230 18.7118
231 7.8948
233 13.6367
234 4.3441
243 3.2500
248 26.5090
249 12.3351
250 5.2657
257 14.6484
258 3.4499
262 3.4606
325 5.2260
341 6.3460
357 17.5964
358 5.1345
359 3.6330
372 98.6328
373 29.5455
374 4.9972
388 3.0318
390 4.3532

$$$$

     RDKit          2D

 29 32  0  0  1  0  0  0  0  0999 V2000
    3.1899    4.8613    0.0000 C   0  0  0  0  0  0  0  0  0  0  0  0
    2.4540    3.3421    0.0000 C   0  0  0  0  0  0  0  0  0  0  0  0
   -1.6000    1.1000    0.0000 C   0  0  0  0  0  0  0  0  0  0  0  0
    9.5224    7.5352    0.0000 C   0  0  0  0  0  0  0  0  0  0  0  0
    5.6608    4.0584    0.0000 C   0  0  0  0  0  0  0  0  0  0  0  0
    4.6100    1.1000    0.0000 C   0  0  0  0  0  0  0  0  0  0  0  0
    3.7300   -0.1100    0.0000 C   0  0  0  0  0  0  0  0  0  0  0  0
    6.1243    5.4850    0.0000 C   0  0  0  0  0  0  0  0  0  0  0  0
   -4.2000   -0.4000    0.0000 C   0  0  0  0  0  0  0  0  0  0  0  0
   -0.3000    1.8500    0.0000 C   0  0  0  0  0  0  0  0  0  0  0  0
   -2.9000    0.3500    0.0000 C   0  0  0  0  0  0  0  0  0  0  0  0
    1.0000    2.6000    0.0000 C   0  0  0  0  0  0  0  0  0  0  0  0
   -2.9000   -2.6500    0.0000 C   0  0  0  0  0  0  0  0  0  0  0  0
    1.0000   -1.9000    0.0000 C   0  0  0  0  0  0  0  0  0  0  0  0
    4.1936    3.7466    0.0000 C   0  0  0  0  0  0  0  0  0  0  0  0
   -4.2000   -1.9000    0.0000 C   0  0  0  0  0  0  0  0  0  0  0  0
    1.0000   -0.4000    0.0000 C   0  0  0  0  0  0  0  0  0  0  0  0
    3.7300    2.3200    0.0000 C   0  0  0  0  0  0  0  0  0  0  0  0
    2.3000    0.3500    0.0000 C   0  0  0  0  0  0  0  0  0  0  0  0
   -0.3000    0.3500    0.0000 C   0  0  0  0  0  0  0  0  0  0  0  0
   -1.6000   -1.9000    0.0000 C   0  0  0  0  0  0  0  0  0  0  0  0
   -0.3000   -2.6500    0.0000 C   0  0  0  0  0  0  0  0  0  0  0  0
    7.5916    5.7968    0.0000 C   0  0  0  0  0  0  0  0  0  0  0  0
    2.3000    1.8500    0.0000 C   0  0  0  0  0  0  0  0  0  0  0  0
   -1.6000   -0.4000    0.0000 C   0  0  0  0  0  0  0  0  0  0  0  0
   -5.4989   -2.6502    0.0000 O   0  0  0  0  0  0  0  0  0  0  0  0
   -0.3000   -4.1500    0.0000 O   0  0  0  0  0  0  0  0  0  0  0  0
    8.5952    4.6821    0.0000 O   0  0  0  0  0  0  0  0  0  0  0  0
    8.0551    7.2234    0.0000 O   0  0  0  0  0  0  0  0  0  0  0  0
  7  6  1  0
  8  5  1  0
 11  9  1  0
 12 10  1  0
 15  1  1  6
 15  5  1  0
 16  9  1  0
 16 13  1  0
 17 14  1  6
 18  6  1  1
 18 15  1  0
 19  7  1  1
 19 17  1  0
 20 10  1  1
 20 17  1  0
 21 13  1  1
 22 14  1  0
 22 21  1  0
 23  8  1  0
 24  2  1  1
 24 12  1  0
 24 18  1  0
 24 19  1  0
 25  3  1  1
 25 11  1  0
 25 20  1  0
 25 21  1  0
 16 26  1  1
 22 27  1  1
 28 23  2  0
 29  4  1  0
 29 23  1  0
M  END
>  <NAME>  (14) 
3beta,6beta-Dihydroxy-5alpha-cholan-24-oic acid Methyl ester

>  <SYNONYMS>  (14) 


>  <SPECTRUM TYPE>  (14) 
MS1

>  <INSTRUMENT TYPE>  (14) 
EI-B

>  <INSTRUMENT>  (14) 
JEOL DX-303 mass spectrometer

>  <ION MODE>  (14) 
P

>  <INCHIKEY>  (14) 
BWDRDVHYVJQWBO-MGUHFAAZSA-N

>  <FORMULA>  (14) 
C25H42O4

>  <EXACT MASS>  (14) 
406.308309824

>  <MW>  (14) 
406

>  <ID>  (14) 
NU000057

>  <CONTRIBUTOR>  (14) 
Takashi Iida, {Department of Chemistry, College of Humanities and Sciences, Nihon University

>  <COMMENT>  (14) 
compound class=Natural Product; BILE ACID
SMILES=C(C1(C)4)([H])(C(C)CCC(=O)OC)CCC1(C(C3([H])CC4)([H])CC(C(C3(C)2)([H])CC(O)CC2)O)[H]
lipidbank=BBA0031
InChI=InChI=1S/C25H42O4/c1-15(5-8-23(28)29-4)18-6-7-19-17-14-22(27)21-13-16(26)9-11-25(21,3)20(17)10-12-24(18,19)2/h15-22,26-27H,5-14H2,1-4H3/t15-,16+,17+,18-,19+,20+,21-,22-,24-,25-/m1/s1
computed SMILES=O=C(OC)CCC(C)C1CCC2C3CC(O)C4CC(O)CCC4(C)C3CCC12C
accession=NU000057
date=2016.01.19 (Created 2008.11.11, modified 2011.05.06)
author=Takashi Iida, Department of Chemistry, College of Humanities and Sciences, Nihon University. Koichi Metori, Chemical Analytical Center, College of Pharmacy, Nihon Univercity.
license=CC BY-NC-SA
publication=Iida, T., Tamaru, T., Chang, F. C., Niwa, T., Goto, J., and Nambara, T. 1993. Potential bile acid metabolites. 20. A new synthetic route to stereoisomeric 3,6-dihydroxy- and 6-hydroxy-5 alpha-cholanoic acids [PMID: 8212086]. Steroids. 58: 362-369. doi:10.1016/0039-128X(93)90039-P
comment=Mass spectral data were collected from the publications cited in LipidBank
exact mass=406.30831
ionization potential=70 eV
column temperature=297.8 C
ion type=[M]+*
computed spectral entropy=4.69819669905743
computed normalized entropy=0.8892704011207418
SPLASH=splash10-001a-5964000000-51dc9915e560b06be46d
submitter=submitter = Takashi Iida (Department of Chemistry, College of Humanities and Sciences, Nihon University)
MoNA Rating=3.75

>  <NUM PEAKS>  (14) 
197

>  <MASS SPECTRAL PEAKS>  (14) 
17.0000 1.283835
18.0000 6.468193
27.0000 1.038674
28.0000 3.072491
29.0000 4.044370
31.0000 1.004200
39.0000 1.178710
41.0000 11.702454
43.0000 9.358488
44.0000 1.604717
45.0000 1.121223
53.0000 3.093017
55.0000 27.328378
56.0000 1.910897
57.0000 4.724977
59.0000 4.561871
65.0000 1.075104
67.0000 17.091845
68.0000 6.566992
69.0000 11.010144
70.0000 1.260011
71.0000 1.545581
73.0000 6.319296
74.0000 4.115171
77.0000 3.699767
78.0000 1.212494
79.0000 15.105423
81.0000 28.053587
82.0080 5.279048
83.0000 9.867632
84.0000 1.333141
85.0000 4.784299
87.0000 3.833179
88.0000 3.523654
91.0000 10.883795
92.0000 2.918852
93.0000 20.083276
94.0000 9.779743
95.0000 46.629137
96.0000 6.266431
97.0000 6.855525
98.0000 1.273325
99.0000 2.594280
101.0000 1.064920
104.0000 1.342309
105.0000 13.600195
106.0000 7.005279
107.0000 21.527497
108.0000 13.668023
109.0000 22.361482
110.0000 5.018513
111.0000 3.970113
113.0000 1.104098
115.0000 4.975775
117.0000 3.609428
118.0000 3.341309
119.0000 14.365112
120.0000 8.584085
121.0000 14.626700
122.0000 10.256808
123.0000 16.204919
124.0000 7.900646
125.0000 3.841946
127.0000 1.155808
128.0000 1.109959
129.0000 1.886560
130.0000 1.058109
131.0000 8.001560
132.0000 3.898930
133.0000 12.749457
134.0000 9.169508
135.0000 12.195675
136.0000 4.429848
137.0000 4.994876
138.0000 1.728765
139.0000 1.387609
140.0000 1.492231
141.0000 9.792563
142.0000 2.448318
143.0000 6.885228
144.0000 2.320589
145.0000 10.625934
146.0000 9.148824
147.0000 32.569469
148.0000 15.034287
149.0000 8.470146
150.0000 2.920873
151.0000 2.880866
152.0000 1.092312
154.0000 21.770478
155.0000 4.224573
156.0000 1.071619
157.0000 4.669251
158.0000 3.917294
159.0000 9.413729
160.0000 4.163024
161.0000 11.950625
162.0000 3.519471
163.0000 4.752472
164.0000 2.431156
165.0000 2.843346
171.0000 4.293566
172.0000 2.270510
173.0000 7.658279
174.0000 3.114977
175.0000 5.391590
176.0000 3.227258
177.0000 3.648206
178.0000 1.708258
185.0000 3.608505
186.0000 2.479344
187.0000 5.764368
188.0000 2.367222
189.0000 5.110203
190.0000 1.567309
191.0000 1.796808
195.0000 1.370093
197.0000 1.223004
199.0000 5.699912
200.0000 2.175401
201.0000 4.133852
202.0000 2.651208
203.0000 2.735872
204.0000 1.263365
205.0000 1.031760
208.0000 4.138808
209.0000 1.540680
211.0000 1.193794
213.0000 34.904136
214.0000 10.138937
215.0000 10.010314
216.0000 6.215531
217.0000 4.888269
218.0000 1.901076
219.0000 5.381946
220.0000 1.343111
221.0000 1.100567
222.0000 1.027530
227.0000 2.989839
228.0000 22.542011
229.0000 10.317397
230.0000 2.789651
231.0000 25.125641
232.0000 30.095221
233.0000 13.200052
234.0000 8.927356
235.0000 2.066986
241.0000 1.387954
244.0000 1.141358
245.0000 2.265311
246.0000 41.960855
247.0000 11.350732
248.0000 2.789213
249.0000 4.451305
250.0000 2.598128
255.0000 6.137631
256.0000 1.467616
259.0000 1.265108
260.0000 1.252716
261.0000 1.383938
262.0000 5.894454
263.0000 4.031960
264.0000 10.061186
265.0000 3.342250
271.0000 1.139261
273.0000 12.430382
274.0000 3.741070
275.0000 1.411750
289.0000 2.422444
290.0000 1.482551
297.0000 1.015250
303.0000 1.454981
315.0000 2.517786
316.0000 1.149566
323.0000 1.156722
328.0000 1.032990
329.0000 2.056272
330.0000 1.055929
331.0000 1.692438
339.0000 2.810260
341.0000 1.345952
355.0000 8.757784
356.0000 3.273788
357.0000 8.599179
358.0000 2.429870
370.0000 17.342270
371.0000 5.883245
372.0000 1.629678
373.0000 10.932188
374.0000 3.117195
375.0000 1.948938
386.0000 2.377060
388.0000 100.000000
389.0000 30.819823
390.0000 5.272200
404.0000 1.074908
406.0000 1.415188

$$$$

     RDKit          2D

 29 32  0  0  1  0  0  0  0  0999 V2000
    3.1899    4.8613    0.0000 C   0  0  0  0  0  0  0  0  0  0  0  0
    2.4540    3.3421    0.0000 C   0  0  0  0  0  0  0  0  0  0  0  0
   -1.6000    1.1000    0.0000 C   0  0  0  0  0  0  0  0  0  0  0  0
    9.5224    7.5352    0.0000 C   0  0  0  0  0  0  0  0  0  0  0  0
    5.6608    4.0584    0.0000 C   0  0  0  0  0  0  0  0  0  0  0  0
    4.6100    1.1000    0.0000 C   0  0  0  0  0  0  0  0  0  0  0  0
    3.7300   -0.1100    0.0000 C   0  0  0  0  0  0  0  0  0  0  0  0
    6.1243    5.4850    0.0000 C   0  0  0  0  0  0  0  0  0  0  0  0
   -4.2000   -0.4000    0.0000 C   0  0  0  0  0  0  0  0  0  0  0  0
   -0.3000    1.8500    0.0000 C   0  0  0  0  0  0  0  0  0  0  0  0
   -2.9000    0.3500    0.0000 C   0  0  0  0  0  0  0  0  0  0  0  0
    1.0000    2.6000    0.0000 C   0  0  0  0  0  0  0  0  0  0  0  0
   -2.9000   -2.6500    0.0000 C   0  0  0  0  0  0  0  0  0  0  0  0
    1.0000   -1.9000    0.0000 C   0  0  0  0  0  0  0  0  0  0  0  0
    4.1936    3.7466    0.0000 C   0  0  0  0  0  0  0  0  0  0  0  0
   -4.2000   -1.9000    0.0000 C   0  0  0  0  0  0  0  0  0  0  0  0
    1.0000   -0.4000    0.0000 C   0  0  0  0  0  0  0  0  0  0  0  0
    3.7300    2.3200    0.0000 C   0  0  0  0  0  0  0  0  0  0  0  0
    2.3000    0.3500    0.0000 C   0  0  0  0  0  0  0  0  0  0  0  0
   -0.3000    0.3500    0.0000 C   0  0  0  0  0  0  0  0  0  0  0  0
   -1.6000   -1.9000    0.0000 C   0  0  0  0  0  0  0  0  0  0  0  0
   -0.3000   -2.6500    0.0000 C   0  0  0  0  0  0  0  0  0  0  0  0
    7.5916    5.7968    0.0000 C   0  0  0  0  0  0  0  0  0  0  0  0
    2.3000    1.8500    0.0000 C   0  0  0  0  0  0  0  0  0  0  0  0
   -1.6000   -0.4000    0.0000 C   0  0  0  0  0  0  0  0  0  0  0  0
   -5.4989   -2.6502    0.0000 O   0  0  0  0  0  0  0  0  0  0  0  0
   -0.3000   -4.1500    0.0000 O   0  0  0  0  0  0  0  0  0  0  0  0
    8.5952    4.6821    0.0000 O   0  0  0  0  0  0  0  0  0  0  0  0
    8.0551    7.2234    0.0000 O   0  0  0  0  0  0  0  0  0  0  0  0
  7  6  1  0
  8  5  1  0
 11  9  1  0
 12 10  1  0
 15  1  1  6
 15  5  1  0
 16  9  1  0
 16 13  1  0
 17 14  1  6
 18  6  1  1
 18 15  1  0
 19  7  1  1
 19 17  1  0
 20 10  1  1
 20 17  1  0
 21 13  1  1
 22 14  1  0
 22 21  1  0
 23  8  1  0
 24  2  1  1
 24 12  1  0
 24 18  1  0
 24 19  1  0
 25  3  1  1
 25 11  1  0
 25 20  1  0
 25 21  1  0
 16 26  1  1
 22 27  1  6
 28 23  2  0
 29  4  1  0
 29 23  1  0
M  END
>  <NAME>  (15) 
3beta,6alpha-Dihydroxy-5alpha-cholan-24-oic acid Methyl ester

>  <SYNONYMS>  (15) 


>  <SPECTRUM TYPE>  (15) 
MS1

>  <INSTRUMENT TYPE>  (15) 
EI-B

>  <INSTRUMENT>  (15) 
JEOL DX-303 mass spectrometer

>  <ION MODE>  (15) 
P

>  <INCHIKEY>  (15) 
BWDRDVHYVJQWBO-JKZXFRSXSA-N

>  <FORMULA>  (15) 
C25H42O4

>  <EXACT MASS>  (15) 
406.308309824

>  <MW>  (15) 
406

>  <ID>  (15) 
NU000056

>  <CONTRIBUTOR>  (15) 
Takashi Iida, {Department of Chemistry, College of Humanities and Sciences, Nihon University

>  <COMMENT>  (15) 
compound class=Natural Product; BILE ACID
SMILES=C(C1(C)4)([H])(C(C)CCC(=O)OC)CCC1(C(C3([H])CC4)([H])CC(C(C3(C)2)([H])CC(O)CC2)O)[H]
lipidbank=BBA0030
InChI=InChI=1S/C25H42O4/c1-15(5-8-23(28)29-4)18-6-7-19-17-14-22(27)21-13-16(26)9-11-25(21,3)20(17)10-12-24(18,19)2/h15-22,26-27H,5-14H2,1-4H3/t15-,16+,17+,18-,19+,20+,21-,22+,24-,25-/m1/s1
computed SMILES=O=C(OC)CCC(C)C1CCC2C3CC(O)C4CC(O)CCC4(C)C3CCC12C
accession=NU000056
date=2016.01.19 (Created 2008.11.11, modified 2011.05.06)
author=Takashi Iida, Department of Chemistry, College of Humanities and Sciences, Nihon University. Koichi Metori, Chemical Analytical Center, College of Pharmacy, Nihon Univercity.
license=CC BY-NC-SA
publication=Iida, T., Tamaru, T., Chang, F. C., Niwa, T., Goto, J., and Nambara, T. 1993. Potential bile acid metabolites. 20. A new synthetic route to stereoisomeric 3,6-dihydroxy- and 6-hydroxy-5 alpha-cholanoic acids [PMID: 8212086]. Steroids. 58: 362-369. doi:10.1016/0039-128X(93)90039-P
comment=Mass spectral data were collected from the publications cited in LipidBank
exact mass=406.30831
ionization potential=70 eV
column temperature=351.7 C
ion type=[M]+*
computed spectral entropy=4.683599648569981
computed normalized entropy=0.9194796493609324
SPLASH=splash10-053e-6942000000-dd73e772cfb308e1fff9
submitter=submitter = Takashi Iida (Department of Chemistry, College of Humanities and Sciences, Nihon University)
MoNA Rating=3.75

>  <NUM PEAKS>  (15) 
163

>  <MASS SPECTRAL PEAKS>  (15) 
18.0000 8.929072
28.0000 6.940709
29.0000 8.521240
39.0000 2.730532
41.0000 24.238700
43.0000 21.569868
44.0000 2.935855
45.0000 2.618318
53.0000 6.695803
55.0000 54.579819
56.0000 3.984999
57.0000 10.297251
59.0000 9.592925
67.0000 32.918440
68.0000 15.149828
69.0000 22.117095
70.0000 2.751137
71.0000 3.414467
73.0000 12.033892
74.0000 8.674338
77.0000 7.604039
79.0000 28.692510
80.0000 7.412207
81.0000 53.383503
82.0000 11.976929
83.0000 19.758997
84.0000 2.842096
85.0000 10.390473
87.0000 7.401855
91.0000 18.466009
92.0000 5.163298
93.0000 38.969057
94.0000 23.366922
95.0000 100.000000
96.0000 14.657838
97.0000 10.342137
99.0000 4.658468
105.0000 23.650039
106.0000 9.655077
107.0000 35.730556
108.0000 23.078644
109.0000 39.628498
110.0000 11.098250
111.0000 7.324712
115.0000 9.375426
117.0000 5.880238
118.0000 10.809958
119.0000 19.489697
120.0000 15.773023
121.0000 29.469326
122.0000 29.736901
123.0000 42.827290
124.0000 14.913336
125.0000 7.002211
127.0000 3.228885
129.0000 3.134475
131.0000 11.238083
132.0000 4.765068
133.0000 18.585125
134.0000 10.708109
135.0000 20.995023
136.0000 8.267580
137.0900 9.241518
138.0000 5.331386
139.0000 3.057446
140.0000 5.808172
141.0000 37.695062
142.0000 7.891030
143.0000 11.612682
144.0000 3.452974
145.0000 17.747881
146.0000 8.242111
147.0000 20.585890
148.0000 8.648119
149.0000 12.477545
150.0000 4.329829
151.0000 5.143443
152.0000 2.661266
154.0000 35.076291
155.0000 7.392026
157.0000 7.021316
158.0000 5.970434
159.0000 13.197399
160.0000 5.473920
161.0000 18.020631
162.0000 6.810818
163.0000 13.601356
164.0000 12.591484
165.0000 12.310093
171.0000 6.041001
172.0000 2.757402
173.0000 9.787995
174.0000 3.817759
175.0000 8.924320
176.0000 5.370770
177.0000 6.267353
178.0000 3.303440
180.0000 5.449511
181.0000 3.107946
182.0000 3.797367
185.0000 4.983118
187.0000 5.856183
188.0000 2.905423
189.0000 6.658893
190.0000 2.986129
191.0000 3.112584
195.0000 2.632460
199.0000 8.895301
200.0000 2.644438
201.0000 5.379835
203.0000 5.158871
208.0000 3.137714
213.0000 42.254170
214.0000 11.541903
215.0000 12.586308
216.0000 9.112051
217.0000 15.997438
218.0000 4.244159
219.0000 6.317414
222.0000 3.067048
227.0000 3.785177
228.0000 8.120846
229.0000 6.974592
230.0000 2.677770
231.0000 46.402420
232.0000 36.963116
233.0000 16.720742
234.0000 10.374931
235.0000 3.361379
245.0000 3.577916
246.0000 23.152874
247.0000 8.048667
248.0000 12.182351
249.0000 23.688009
250.0000 21.393790
251.0000 4.257212
255.0000 11.422787
256.0000 2.728595
259.0000 4.014456
260.0000 2.641412
262.0000 5.840217
263.0000 4.407609
264.0000 27.591141
265.0000 6.309650
273.0000 17.813484
274.0000 5.468517
289.0000 2.593401
315.0000 5.651072
329.0000 3.461502
339.0000 2.875866
355.0000 13.104191
356.0000 5.314995
357.0000 13.496057
358.0000 3.671251
370.0000 20.332132
371.0000 6.813830
373.0000 13.677311
374.0000 3.833739
375.0000 2.566319
388.0000 93.604128
389.0000 27.884610
390.0000 4.866054
406.0000 3.140302

$$$$

     RDKit          2D

 29 32  0  0  1  0  0  0  0  0999 V2000
    3.1899    4.8613    0.0000 C   0  0  0  0  0  0  0  0  0  0  0  0
    2.4540    3.3421    0.0000 C   0  0  0  0  0  0  0  0  0  0  0  0
   -1.6000    1.1000    0.0000 C   0  0  0  0  0  0  0  0  0  0  0  0
    9.5224    7.5352    0.0000 C   0  0  0  0  0  0  0  0  0  0  0  0
    5.6608    4.0584    0.0000 C   0  0  0  0  0  0  0  0  0  0  0  0
    4.6100    1.1000    0.0000 C   0  0  0  0  0  0  0  0  0  0  0  0
    3.7300   -0.1100    0.0000 C   0  0  0  0  0  0  0  0  0  0  0  0
    6.1243    5.4850    0.0000 C   0  0  0  0  0  0  0  0  0  0  0  0
   -4.2000   -0.4000    0.0000 C   0  0  0  0  0  0  0  0  0  0  0  0
   -0.3000    1.8500    0.0000 C   0  0  0  0  0  0  0  0  0  0  0  0
   -2.9000    0.3500    0.0000 C   0  0  0  0  0  0  0  0  0  0  0  0
    1.0000    2.6000    0.0000 C   0  0  0  0  0  0  0  0  0  0  0  0
   -2.9000   -2.6500    0.0000 C   0  0  0  0  0  0  0  0  0  0  0  0
    1.0000   -1.9000    0.0000 C   0  0  0  0  0  0  0  0  0  0  0  0
    4.1936    3.7466    0.0000 C   0  0  0  0  0  0  0  0  0  0  0  0
   -4.2000   -1.9000    0.0000 C   0  0  0  0  0  0  0  0  0  0  0  0
    1.0000   -0.4000    0.0000 C   0  0  0  0  0  0  0  0  0  0  0  0
    3.7300    2.3200    0.0000 C   0  0  0  0  0  0  0  0  0  0  0  0
    2.3000    0.3500    0.0000 C   0  0  0  0  0  0  0  0  0  0  0  0
   -0.3000    0.3500    0.0000 C   0  0  0  0  0  0  0  0  0  0  0  0
   -1.6000   -1.9000    0.0000 C   0  0  0  0  0  0  0  0  0  0  0  0
   -0.3000   -2.6500    0.0000 C   0  0  0  0  0  0  0  0  0  0  0  0
    7.5916    5.7968    0.0000 C   0  0  0  0  0  0  0  0  0  0  0  0
    2.3000    1.8500    0.0000 C   0  0  0  0  0  0  0  0  0  0  0  0
   -1.6000   -0.4000    0.0000 C   0  0  0  0  0  0  0  0  0  0  0  0
   -5.4989   -2.6502    0.0000 O   0  0  0  0  0  0  0  0  0  0  0  0
   -0.3000   -4.1500    0.0000 O   0  0  0  0  0  0  0  0  0  0  0  0
    8.5952    4.6821    0.0000 O   0  0  0  0  0  0  0  0  0  0  0  0
    8.0551    7.2234    0.0000 O   0  0  0  0  0  0  0  0  0  0  0  0
  7  6  1  0
  8  5  1  0
 11  9  1  0
 12 10  1  0
 15  1  1  6
 15  5  1  0
 16  9  1  0
 16 13  1  0
 17 14  1  6
 18  6  1  1
 18 15  1  0
 19  7  1  1
 19 17  1  0
 20 10  1  1
 20 17  1  0
 21 13  1  1
 22 14  1  0
 22 21  1  0
 23  8  1  0
 24  2  1  1
 24 12  1  0
 24 18  1  0
 24 19  1  0
 25  3  1  1
 25 11  1  0
 25 20  1  0
 25 21  1  0
 16 26  1  6
 22 27  1  1
 28 23  2  0
 29  4  1  0
 29 23  1  0
M  END
>  <NAME>  (16) 
3alpha,6beta-Dihydroxy-5alpha-cholan-24-oic acid Methyl ester

>  <SYNONYMS>  (16) 


>  <SPECTRUM TYPE>  (16) 
MS1

>  <INSTRUMENT TYPE>  (16) 
EI-B

>  <INSTRUMENT>  (16) 
JEOL DX-303 mass spectrometer

>  <ION MODE>  (16) 
P

>  <INCHIKEY>  (16) 
BWDRDVHYVJQWBO-MDNFQYQZSA-N

>  <FORMULA>  (16) 
C25H42O4

>  <EXACT MASS>  (16) 
406.308309824

>  <MW>  (16) 
406

>  <ID>  (16) 
NU000055

>  <CONTRIBUTOR>  (16) 
Takashi Iida, {Department of Chemistry, College of Humanities and Sciences, Nihon University

>  <COMMENT>  (16) 
compound class=Natural Product; BILE ACID
SMILES=C(C1(C)4)([H])(C(C)CCC(=O)OC)CCC1(C(C3([H])CC4)([H])CC(C(C3(C)2)([H])CC(O)CC2)O)[H]
lipidbank=BBA0029
InChI=InChI=1S/C25H42O4/c1-15(5-8-23(28)29-4)18-6-7-19-17-14-22(27)21-13-16(26)9-11-25(21,3)20(17)10-12-24(18,19)2/h15-22,26-27H,5-14H2,1-4H3/t15-,16-,17+,18-,19+,20+,21-,22-,24-,25-/m1/s1
computed SMILES=O=C(OC)CCC(C)C1CCC2C3CC(O)C4CC(O)CCC4(C)C3CCC12C
accession=NU000055
date=2016.01.19 (Created 2008.11.11, modified 2011.05.06)
author=Takashi Iida, Department of Chemistry, College of Humanities and Sciences, Nihon University. Koichi Metori, Chemical Analytical Center, College of Pharmacy, Nihon Univercity.
license=CC BY-NC-SA
publication=Iida, T., Tamaru, T., Chang, F. C., Niwa, T., Goto, J., and Nambara, T. 1993. Potential bile acid metabolites. 20. A new synthetic route to stereoisomeric 3,6-dihydroxy- and 6-hydroxy-5 alpha-cholanoic acids [PMID: 8212086]. Steroids. 58: 362-369. doi:10.1016/0039-128X(93)90039-P
comment=Mass spectral data were collected from the publications cited in LipidBank
exact mass=406.30831
ionization potential=70 eV
column temperature=244.2 C
ion type=[M]+*
computed spectral entropy=4.705295494628415
computed normalized entropy=0.8914727698079958
SPLASH=splash10-002k-5964000000-5cd40c292281a07477da
submitter=submitter = Takashi Iida (Department of Chemistry, College of Humanities and Sciences, Nihon University)
MoNA Rating=3.75

>  <NUM PEAKS>  (16) 
196

>  <MASS SPECTRAL PEAKS>  (16) 
18.0000 7.931432
28.0000 3.965052
29.0000 5.639550
41.0000 16.493635
43.0000 13.386064
53.0000 4.214793
55.0000 37.402811
56.0000 2.830777
57.0000 6.765208
59.0000 6.068347
67.0000 23.178238
68.0000 9.256873
69.0000 16.133469
71.0000 2.428919
73.0000 8.911874
74.0000 5.399051
77.0000 5.382870
79.0000 20.434528
80.0000 4.642764
81.0000 36.640436
82.0000 7.403419
83.0000 13.721007
84.0000 2.004193
85.0000 5.936933
87.0000 4.844288
91.0000 14.681097
92.0000 3.859637
93.0000 27.198496
94.0000 13.977336
95.0000 54.436832
96.0000 7.752150
97.0000 9.186049
99.0000 3.409875
104.0000 2.077320
105.0000 18.506694
106.0000 10.609366
107.0000 27.608733
108.0000 19.878036
109.0000 30.288233
110.0000 6.251999
111.0000 5.323081
115.0000 6.566515
117.0000 4.869185
118.0000 4.987763
119.0000 20.220493
120.0000 11.985805
121.0000 19.541190
122.0000 15.254409
123.0000 24.186747
124.0000 12.799139
125.0000 5.639587
129.0000 2.754431
131.0000 11.647945
132.0000 5.198141
133.0000 16.361770
134.0000 10.907487
135.0000 15.390983
136.0000 5.720768
137.0000 6.680896
138.0000 2.118311
140.0000 2.651271
141.0000 10.163974
142.0000 2.838041
143.0000 8.979654
144.0000 3.150678
145.0000 15.432263
146.0000 13.363772
147.0000 43.081836
148.0000 20.149657
149.0000 11.394671
150.0000 4.390418
151.0000 3.344199
154.0000 27.720334
155.0000 5.807885
157.0000 6.696188
158.0000 5.624296
159.0000 13.725089
160.0000 6.297223
161.0000 18.281964
162.0000 4.737896
163.0000 8.070198
164.0000 3.892050
165.0000 3.789014
171.0000 7.123132
172.0000 2.969831
173.0000 9.162091
174.0000 3.375509
175.0000 7.120239
176.0000 3.649359
177.0000 4.610502
178.0000 2.138988
180.0000 2.291744
185.0000 6.059693
186.0000 3.670086
187.0000 8.315793
188.0000 2.889026
189.0000 6.589797
190.0000 1.997605
191.0000 2.058697
193.0000 1.032217
195.0000 1.895459
197.0000 1.491434
199.0000 8.821676
200.0000 3.239924
201.0000 5.779468
202.0000 4.093060
203.0000 3.714522
204.0000 1.914946
205.0000 1.206576
207.0000 1.431181
208.0000 5.668881
209.0000 2.157336
211.0000 1.712158
212.0000 1.684517
213.0000 55.474383
214.0000 18.681492
215.0000 15.182045
216.0000 8.926139
217.0000 5.735359
218.0000 2.123446
219.0000 3.715286
220.0000 1.084742
221.0000 1.931040
222.0000 1.822394
227.0000 4.587320
228.0000 74.032113
229.0000 22.160550
230.0000 4.279768
231.0000 28.416456
232.0000 30.477796
233.0000 15.680438
234.0000 6.733322
235.0000 1.926869
241.0000 1.887657
242.0000 1.276034
243.0000 1.268970
244.0000 1.472811
245.0000 3.068508
246.0000 46.361649
247.0000 12.332845
248.0000 3.573364
249.0000 8.006475
250.0000 3.734710
251.0000 1.053946
255.0000 9.118770
256.0000 2.133666
257.0000 1.260366
259.0000 1.031678
260.0000 1.073721
261.0000 1.809181
262.0000 9.507603
263.0000 5.728258
264.0000 10.127793
265.0000 5.327927
266.0000 1.359231
271.0000 1.430568
273.0000 12.001097
274.0000 4.514055
275.0000 1.996578
283.0000 1.349324
288.0000 1.067710
289.0000 3.128886
290.0000 1.639443
297.0000 1.367221
301.0000 1.653270
302.0000 1.001583
303.0000 1.655950
313.0000 1.283523
315.0000 3.754586
316.0000 2.214371
323.0000 1.971167
328.0000 1.220740
329.0000 3.208389
330.0000 1.758697
331.0000 1.950527
339.0000 5.404913
340.0000 1.643113
341.0000 2.522874
342.0000 1.325116
355.0000 17.586355
356.0000 5.786632
357.0000 14.836533
358.0000 4.332381
359.0000 1.426209
370.0000 59.307620
371.0000 19.101410
372.0000 3.924537
373.0000 13.051385
374.0000 3.767135
386.0000 2.975217
388.0000 100.000000
389.0000 30.303011
390.0000 4.986110
391.0000 1.114549
404.0000 1.682726
406.0000 1.358592

$$$$

     RDKit          2D

 29 32  0  0  1  0  0  0  0  0999 V2000
    3.1899    4.8613    0.0000 C   0  0  0  0  0  0  0  0  0  0  0  0
    2.4540    3.3421    0.0000 C   0  0  0  0  0  0  0  0  0  0  0  0
   -1.6000    1.1000    0.0000 C   0  0  0  0  0  0  0  0  0  0  0  0
    9.5224    7.5352    0.0000 C   0  0  0  0  0  0  0  0  0  0  0  0
    5.6608    4.0584    0.0000 C   0  0  0  0  0  0  0  0  0  0  0  0
    4.6100    1.1000    0.0000 C   0  0  0  0  0  0  0  0  0  0  0  0
    3.7300   -0.1100    0.0000 C   0  0  0  0  0  0  0  0  0  0  0  0
    6.1243    5.4850    0.0000 C   0  0  0  0  0  0  0  0  0  0  0  0
   -4.2000   -0.4000    0.0000 C   0  0  0  0  0  0  0  0  0  0  0  0
   -0.3000    1.8500    0.0000 C   0  0  0  0  0  0  0  0  0  0  0  0
   -2.9000    0.3500    0.0000 C   0  0  0  0  0  0  0  0  0  0  0  0
    1.0000    2.6000    0.0000 C   0  0  0  0  0  0  0  0  0  0  0  0
   -2.9000   -2.6500    0.0000 C   0  0  0  0  0  0  0  0  0  0  0  0
    1.0000   -1.9000    0.0000 C   0  0  0  0  0  0  0  0  0  0  0  0
    4.1936    3.7466    0.0000 C   0  0  0  0  0  0  0  0  0  0  0  0
   -4.2000   -1.9000    0.0000 C   0  0  0  0  0  0  0  0  0  0  0  0
    1.0000   -0.4000    0.0000 C   0  0  0  0  0  0  0  0  0  0  0  0
    3.7300    2.3200    0.0000 C   0  0  0  0  0  0  0  0  0  0  0  0
    2.3000    0.3500    0.0000 C   0  0  0  0  0  0  0  0  0  0  0  0
   -0.3000    0.3500    0.0000 C   0  0  0  0  0  0  0  0  0  0  0  0
   -1.6000   -1.9000    0.0000 C   0  0  0  0  0  0  0  0  0  0  0  0
   -0.3000   -2.6500    0.0000 C   0  0  0  0  0  0  0  0  0  0  0  0
    7.5916    5.7968    0.0000 C   0  0  0  0  0  0  0  0  0  0  0  0
    2.3000    1.8500    0.0000 C   0  0  0  0  0  0  0  0  0  0  0  0
   -1.6000   -0.4000    0.0000 C   0  0  0  0  0  0  0  0  0  0  0  0
   -5.4989   -2.6502    0.0000 O   0  0  0  0  0  0  0  0  0  0  0  0
   -0.3000   -4.1500    0.0000 O   0  0  0  0  0  0  0  0  0  0  0  0
    8.5952    4.6821    0.0000 O   0  0  0  0  0  0  0  0  0  0  0  0
    8.0551    7.2234    0.0000 O   0  0  0  0  0  0  0  0  0  0  0  0
  7  6  1  0
  8  5  1  0
 11  9  1  0
 12 10  1  0
 15  1  1  6
 15  5  1  0
 16  9  1  0
 16 13  1  0
 17 14  1  6
 18  6  1  1
 18 15  1  0
 19  7  1  1
 19 17  1  0
 20 10  1  1
 20 17  1  0
 21 13  1  1
 22 14  1  0
 22 21  1  0
 23  8  1  0
 24  2  1  1
 24 12  1  0
 24 18  1  0
 24 19  1  0
 25  3  1  1
 25 11  1  0
 25 20  1  0
 25 21  1  0
 16 26  1  6
 22 27  1  6
 28 23  2  0
 29  4  1  0
 29 23  1  0
M  END
>  <NAME>  (17) 
3alpha,6alpha-Dihydroxy-5alpha-cholan-24-oic acid Methyl ester

>  <SYNONYMS>  (17) 
Allohyodeoxycholic Acid Methyl ester

>  <SPECTRUM TYPE>  (17) 
MS1

>  <INSTRUMENT TYPE>  (17) 
EI-B

>  <INSTRUMENT>  (17) 
JEOL DX-303 mass spectrometer

>  <ION MODE>  (17) 
P

>  <INCHIKEY>  (17) 
BWDRDVHYVJQWBO-FUWIEVQRSA-N

>  <FORMULA>  (17) 
C25H42O4

>  <EXACT MASS>  (17) 
406.308309824

>  <MW>  (17) 
406

>  <ID>  (17) 
NU000054

>  <CONTRIBUTOR>  (17) 
Takashi Iida, {Department of Chemistry, College of Humanities and Sciences, Nihon University

>  <COMMENT>  (17) 
compound class=Natural Product; BILE ACID
SMILES=C(C1(C)4)([H])(C(C)CCC(=O)OC)CCC1(C(C3([H])CC4)([H])CC(C(C3(C)2)([H])CC(O)CC2)O)[H]
lipidbank=BBA0028
InChI=InChI=1S/C25H42O4/c1-15(5-8-23(28)29-4)18-6-7-19-17-14-22(27)21-13-16(26)9-11-25(21,3)20(17)10-12-24(18,19)2/h15-22,26-27H,5-14H2,1-4H3/t15-,16-,17+,18-,19+,20+,21-,22+,24-,25-/m1/s1
computed SMILES=O=C(OC)CCC(C)C1CCC2C3CC(O)C4CC(O)CCC4(C)C3CCC12C
accession=NU000054
date=2016.01.19 (Created 2008.11.11, modified 2011.05.06)
author=Takashi Iida, Department of Chemistry, College of Humanities and Sciences, Nihon University. Koichi Metori, Chemical Analytical Center, College of Pharmacy, Nihon Univercity.
license=CC BY-NC-SA
publication=Iida, T., Tamaru, T., Chang, F. C., Niwa, T., Goto, J., and Nambara, T. 1993. Potential bile acid metabolites. 20. A new synthetic route to stereoisomeric 3,6-dihydroxy- and 6-hydroxy-5 alpha-cholanoic acids [PMID: 8212086]. Steroids. 58: 362-369. doi:10.1016/0039-128X(93)90039-P
comment=Mass spectral data were collected from the publications cited in LipidBank
exact mass=406.30831
ionization potential=70 eV
column temperature=249.6 C
ion type=[M]+*
computed spectral entropy=4.624624796351409
computed normalized entropy=0.9193284697311807
SPLASH=splash10-0bud-8942000000-34a2f86bdad5c177dc03
submitter=submitter = Takashi Iida (Department of Chemistry, College of Humanities and Sciences, Nihon University)
MoNA Rating=3.75

>  <NUM PEAKS>  (17) 
153

>  <MASS SPECTRAL PEAKS>  (17) 
40 3.205975
41 50.227000
42 3.943153
43 32.113096
45 4.244658
53 14.196670
54 4.164846
55 89.623549
56 6.313230
57 17.165610
59 17.078707
65 4.772581
66 3.267422
67 53.357928
68 20.869946
69 31.848244
70 3.693682
71 4.208006
73 16.664265
74 13.874476
77 14.208487
78 3.927811
79 44.182730
80 10.891937
81 73.259550
82 15.598964
83 23.872593
84 3.768768
85 11.739691
87 9.181668
91 30.183499
92 7.950196
93 54.493006
94 29.644301
95 100.000000
96 14.612856
97 11.725511
99 5.590812
105 31.441511
106 11.688278
107 47.200138
108 25.560430
109 48.467643
110 12.424876
111 7.909437
115 11.379102
117 8.936304
118 14.140491
119 24.170533
120 19.265487
121 32.018523
122 33.740027
123 42.413919
124 13.979123
125 6.961763
129 4.991329
131 14.972321
132 6.609388
133 23.733077
134 11.753910
135 23.075671
136 7.613822
137 10.146467
138 4.907371
140 4.730041
141 25.167877
142 6.417257
143 14.893671
144 5.490892
145 30.599685
146 10.089126
147 25.734234
148 9.317620
149 13.726668
150 5.123756
151 5.878718
154 35.177811
155 7.036229
157 9.662867
158 8.783769
159 18.638844
160 8.359912
161 18.967508
162 6.366425
163 14.055952
164 26.191799
165 16.293602
171 8.440305
172 3.681284
173 10.685045
174 4.178445
175 10.195517
176 5.226039
177 6.886677
178 3.742150
181 4.563907
182 3.321238
185 7.113678
187 7.149748
188 3.073548
189 6.184949
191 3.513949
199 13.231251
200 3.957954
201 6.908529
203 4.581071
208 3.563619
213 70.412420
214 19.915802
215 17.315161
216 11.557014
217 13.808844
218 3.832036
219 3.709644
227 4.752512
228 15.952502
229 8.818677
231 37.693874
232 31.640150
233 13.065737
234 6.894349
235 3.036277
245 3.213646
246 26.797171
247 8.172508
248 15.899268
249 27.639036
250 16.884175
251 3.298766
255 16.544856
256 4.117578
262 5.988053
263 5.036272
264 26.362078
265 6.170149
273 8.946958
274 3.509842
289 3.224882
315 5.183460
329 5.078232
339 6.259415
355 18.375153
356 6.583972
357 10.242823
370 54.691646
371 17.904571
372 4.816362
373 14.536608
374 4.242295
388 94.097610
389 27.733842
390 4.802143
406 3.624524

$$$$

     RDKit          2D

 30 33  0  0  1  0  0  0  0  0999 V2000
    3.0099    4.6213    0.0000 C   0  0  0  0  0  0  0  0  0  0  0  0
   -1.7700    0.8600    0.0000 C   0  0  0  0  0  0  0  0  0  0  0  0
    2.2765    3.1018    0.0000 C   0  0  0  0  0  0  0  0  0  0  0  0
    9.3424    7.2952    0.0000 C   0  0  0  0  0  0  0  0  0  0  0  0
    5.4808    3.8184    0.0000 C   0  0  0  0  0  0  0  0  0  0  0  0
    4.4300    0.8600    0.0000 C   0  0  0  0  0  0  0  0  0  0  0  0
    3.5500   -0.3500    0.0000 C   0  0  0  0  0  0  0  0  0  0  0  0
    5.9443    5.2450    0.0000 C   0  0  0  0  0  0  0  0  0  0  0  0
   -4.3700   -0.6400    0.0000 C   0  0  0  0  0  0  0  0  0  0  0  0
   -3.0700    0.1100    0.0000 C   0  0  0  0  0  0  0  0  0  0  0  0
   -3.0700   -2.8900    0.0000 C   0  0  0  0  0  0  0  0  0  0  0  0
   -0.4700   -2.8900    0.0000 C   0  0  0  0  0  0  0  0  0  0  0  0
   -0.4700    1.6100    0.0000 C   0  0  0  0  0  0  0  0  0  0  0  0
    4.0136    3.5066    0.0000 C   0  0  0  0  0  0  0  0  0  0  0  0
   -1.7700   -2.1400    0.0000 C   0  0  0  0  0  0  0  0  0  0  0  0
   -4.3700   -2.1400    0.0000 C   0  0  0  0  0  0  0  0  0  0  0  0
    3.5500    2.0800    0.0000 C   0  0  0  0  0  0  0  0  0  0  0  0
    2.1200    0.1100    0.0000 C   0  0  0  0  0  0  0  0  0  0  0  0
   -0.4700    0.1100    0.0000 C   0  0  0  0  0  0  0  0  0  0  0  0
    0.8300   -2.1400    0.0000 C   0  0  0  0  0  0  0  0  0  0  0  0
    0.8300    2.3600    0.0000 C   0  0  0  0  0  0  0  0  0  0  0  0
    7.4116    5.5568    0.0000 C   0  0  0  0  0  0  0  0  0  0  0  0
    0.8300   -0.6400    0.0000 C   0  0  0  0  0  0  0  0  0  0  0  0
   -1.7700   -0.6400    0.0000 C   0  0  0  0  0  0  0  0  0  0  0  0
    2.1200    1.6100    0.0000 C   0  0  0  0  0  0  0  0  0  0  0  0
   -5.6689   -2.8902    0.0000 O   0  0  0  0  0  0  0  0  0  0  0  0
    2.1289   -2.8902    0.0000 O   0  0  0  0  0  0  0  0  0  0  0  0
    0.8325    3.8600    0.0000 O   0  0  0  0  0  0  0  0  0  0  0  0
    8.4152    4.4421    0.0000 O   0  0  0  0  0  0  0  0  0  0  0  0
    7.8751    6.9834    0.0000 O   0  0  0  0  0  0  0  0  0  0  0  0
  7  6  1  0
  8  5  1  0
 10  9  1  0
 14  1  1  6
 14  5  1  0
 15 11  1  6
 15 12  1  0
 16  9  1  0
 16 11  1  0
 17  6  1  1
 17 14  1  0
 18  7  1  1
 19 13  1  1
 20 12  1  0
 21 13  1  0
 22  8  1  0
 23 18  1  0
 23 19  1  0
 23 20  1  6
 24  2  1  1
 24 10  1  0
 24 15  1  0
 24 19  1  0
 25  3  1  1
 25 17  1  0
 25 18  1  0
 25 21  1  0
 16 26  1  1
 20 27  1  1
 21 28  1  1
 29 22  2  0
 30  4  1  0
 30 22  1  0
M  END
>  <NAME>  (18) 
3beta,7beta,12beta-Trihydroxy-5beta-cholan-24-oic acid Methyl ester

>  <SYNONYMS>  (18) 


>  <SPECTRUM TYPE>  (18) 
MS1

>  <INSTRUMENT TYPE>  (18) 
EI-B

>  <INSTRUMENT>  (18) 
JEOL GCmate

>  <ION MODE>  (18) 
P

>  <INCHIKEY>  (18) 
DLYVTEULDNMQAR-AAXWLKRGSA-N

>  <FORMULA>  (18) 
C25H42O5

>  <EXACT MASS>  (18) 
422.30322444399997

>  <MW>  (18) 
422

>  <ID>  (18) 
NU000053

>  <CONTRIBUTOR>  (18) 
Takashi Iida, {Department of Chemistry, College of Humanities and Sciences, Nihon University

>  <COMMENT>  (18) 
compound class=Natural Product; BILE ACID
SMILES=C(C3(C)4)([H])(CC(O)CC4)CC(C(C3([H])2)(C(C1(C)C(O)C2)([H])CCC1([H])C(C)CCC(=O)OC)[H])O
chemspider=10295403
lipidbank=BBA0091
InChI=InChI=1S/C25H42O5/c1-14(5-8-22(29)30-4)17-6-7-18-23-19(13-21(28)25(17,18)3)24(2)10-9-16(26)11-15(24)12-20(23)27/h14-21,23,26-28H,5-13H2,1-4H3/t14-,15+,16+,17-,18+,19+,20+,21-,23+,24+,25-/m1/s1
computed SMILES=O=C(OC)CCC(C)C1CCC2C3C(O)CC4CC(O)CCC4(C)C3CC(O)C12C
ionization potential=70 eV
accession=NU000053
date=2016.01.19 (Created 2008.10.06, modified 2011.05.06)
author=Takashi Iida, Department of Chemistry, College of Humanities and Sciences, Nihon University. Koichi Metori, Chemical Analytical Center, College of Pharmacy, Nihon Univercity.
license=CC BY-NC-SA
publication=Iida, T., Chang, F. C., Matsumoto, T., and Tamura, T. 1982. High Resolution Mass Spectra of Mono-, Di- and Trihydroxy Stereoisomers of Bile Acids. Biomed. Mass Spectrom. 9: 473-476. doi:10.1002/bms.1200091104
comment=Mass spectral data were collected from the publications cited in LipidBank
comment=[Analytical] Sample was directly injected
exact mass=422.30322
source temperature=200 C
ion type=[M]+*
computed spectral entropy=5.030107504109746
computed normalized entropy=0.8687637489102529
SPLASH=splash10-059i-4972000000-135a1bd822081fc490d4
submitter=submitter = Takashi Iida (Department of Chemistry, College of Humanities and Sciences, Nihon University)
MoNA Rating=3.75

>  <NUM PEAKS>  (18) 
327

>  <MASS SPECTRAL PEAKS>  (18) 
51.0 0.3
53.0 3.6
54.0 1.1
55.1 29.8
56.1 2.5
57.1 6.3
58.1 1.7
59.0 4.8
60.1 0.6
65.1 1.6
66.1 1.0
67.1 18.8
68.1 4.7
69.1 12.8
70.1 2.3
71.1 4.5
72.1 0.7
73.1 7.6
74.1 7.7
75.1 0.6
77.1 5.5
78.1 1.5
79.1 18.2
80.1 5.0
81.1 34.8
82.1 5.6
83.1 14.7
84.1 4.9
85.1 4.4
86.1 0.6
87.1 2.3
88.1 0.8
89.1 0.3
91.1 15.9
92.1 4.3
93.1 30.9
94.1 15.0
95.1 29.7
96.1 5.0
97.1 7.8
98.1 2.1
99.1 3.8
100.1 0.7
101.0 1.3
102.1 0.3
103.1 1.2
104.1 1.3
105.1 25.2
106.1 10.2
107.1 30.2
108.1 13.2
109.1 28.6
110.1 6.9
111.1 7.5
112.1 2.4
113.1 1.6
114.1 0.8
115.1 17.4
116.1 10.0
117.1 6.2
118.1 3.7
119.1 19.1
120.1 8.8
121.1 26.4
122.1 9.9
123.1 12.2
124.1 4.4
125.1 4.2
126.1 1.6
126.6 0.4
127.1 1.3
128.1 1.8
129.1 4.1
130.1 2.0
131.1 11.8
132.1 5.1
133.1 20.1
133.6 0.3
134.1 6.6
135.1 15.7
136.1 5.4
137.1 7.2
138.1 2.5
139.1 3.1
140.1 1.0
141.1 4.0
142.1 1.9
143.1 8.8
144.1 4.0
145.1 22.5
146.1 6.6
147.1 22.8
147.6 0.3
148.1 5.6
149.1 10.3
150.1 3.3
151.1 4.2
152.1 1.4
153.1 2.4
154.1 21.6
155.1 6.3
156.1 2.1
157.1 11.9
158.1 3.8
159.1 19.9
160.1 5.2
161.1 11.6
162.1 4.2
163.1 12.8
164.1 5.1
165.1 3.9
166.1 1.2
167.1 1.5
168.1 8.4
169.1 4.0
170.1 1.5
171.1 8.6
172.1 2.7
173.1 9.4
174.1 3.2
175.1 11.0
176.1 2.8
177.1 4.8
178.1 1.9
179.1 1.8
180.1 1.5
181.1 3.0
182.1 1.1
183.1 3.5
184.1 1.3
185.1 6.8
186.1 2.5
187.1 7.4
188.1 3.4
189.1 5.7
190.1 1.5
191.1 2.6
192.1 1.0
193.1 2.2
194.1 5.3
195.1 13.8
196.1 4.3
197.1 5.8
198.1 2.1
199.1 7.4
200.1 2.5
201.1 9.8
202.1 2.4
203.1 3.7
204.1 2.8
205.1 2.5
206.1 2.5
207.1 5.2
208.1 7.4
209.1 3.8
210.1 1.4
211.1 5.8
212.2 1.8
213.1 6.7
214.2 3.3
215.1 6.0
216.1 2.3
217.2 5.5
218.1 2.7
219.2 4.3
220.1 2.6
221.1 2.9
222.2 0.9
223.1 1.4
224.2 0.7
225.1 3.0
226.2 1.8
227.2 5.1
228.2 1.8
229.2 7.3
230.2 2.6
231.2 4.3
232.2 16.1
233.2 5.4
234.2 1.7
235.2 1.5
236.1 0.6
237.2 1.2
238.2 0.7
239.2 2.0
240.2 0.9
241.2 4.1
242.2 1.5
243.2 3.7
244.2 3.9
245.2 4.8
246.2 2.0
247.2 5.3
248.2 2.2
249.2 4.9
250.2 1.8
251.2 2.9
252.2 2.1
253.2 37.2
254.2 8.4
255.2 2.7
256.2 0.9
257.2 2.8
258.2 2.9
259.2 2.4
260.2 2.1
261.2 3.8
262.2 2.6
263.2 2.4
264.2 1.1
265.2 4.2
266.2 2.6
267.2 1.3
268.2 0.6
269.2 8.3
270.2 7.2
271.1 100.0
272.2 28.1
273.2 4.9
274.2 2.0
275.2 1.5
276.2 1.7
277.2 1.2
278.1 0.6
279.2 1.1
280.2 0.4
281.2 2.7
282.2 0.9
283.2 1.3
284.2 0.6
285.2 1.4
286.2 1.7
287.2 7.9
288.2 8.2
289.2 90.1
290.2 21.5
291.2 3.2
292.2 1.2
293.2 0.9
294.2 0.4
295.2 1.3
296.2 0.4
297.2 1.4
298.2 0.6
299.2 7.7
300.2 2.6
301.2 1.3
302.2 0.7
303.2 1.0
304.2 0.5
305.2 0.7
306.2 0.3
307.2 1.8
308.2 0.6
309.2 0.5
310.2 0.5
311.2 0.9
312.2 0.9
313.2 2.2
314.2 1.4
315.2 1.7
316.2 1.5
317.2 1.7
318.2 0.7
319.2 0.5
321.2 1.1
322.2 0.4
323.2 0.6
325.2 1.3
326.2 0.8
327.2 1.6
328.2 1.1
329.2 1.0
330.2 0.6
331.3 2.0
332.3 0.8
333.2 0.4
335.2 0.5
336.3 0.5
337.2 1.3
338.2 0.4
339.2 1.8
340.2 0.6
341.3 0.9
342.2 0.6
343.2 2.1
344.3 1.2
345.2 0.8
346.3 0.3
351.2 0.4
352.2 0.3
353.2 3.4
354.2 1.8
355.2 7.0
356.2 2.1
357.2 6.0
358.2 2.0
359.2 0.9
360.2 1.0
361.2 0.4
362.2 0.5
366.3 0.3
367.2 0.4
368.3 3.5
369.2 1.6
370.3 0.8
371.2 6.3
372.3 2.9
373.3 6.2
374.3 1.9
375.3 1.7
376.3 0.5
384.3 2.0
385.3 1.1
386.3 41.8
387.3 12.4
388.3 2.3
389.3 1.6
390.3 0.5
391.3 0.6
400.2 0.5
402.3 1.5
403.3 0.6
404.3 7.2
405.3 2.4
406.3 0.5
420.3 0.3

$$$$

     RDKit          2D

 30 33  0  0  1  0  0  0  0  0999 V2000
    3.0099    4.6213    0.0000 C   0  0  0  0  0  0  0  0  0  0  0  0
   -1.7700    0.8600    0.0000 C   0  0  0  0  0  0  0  0  0  0  0  0
    2.2765    3.1018    0.0000 C   0  0  0  0  0  0  0  0  0  0  0  0
    9.3424    7.2952    0.0000 C   0  0  0  0  0  0  0  0  0  0  0  0
    5.4808    3.8184    0.0000 C   0  0  0  0  0  0  0  0  0  0  0  0
    4.4300    0.8600    0.0000 C   0  0  0  0  0  0  0  0  0  0  0  0
    3.5500   -0.3500    0.0000 C   0  0  0  0  0  0  0  0  0  0  0  0
    5.9443    5.2450    0.0000 C   0  0  0  0  0  0  0  0  0  0  0  0
   -4.3700   -0.6400    0.0000 C   0  0  0  0  0  0  0  0  0  0  0  0
   -3.0700    0.1100    0.0000 C   0  0  0  0  0  0  0  0  0  0  0  0
   -3.0700   -2.8900    0.0000 C   0  0  0  0  0  0  0  0  0  0  0  0
   -0.4700   -2.8900    0.0000 C   0  0  0  0  0  0  0  0  0  0  0  0
   -0.4700    1.6100    0.0000 C   0  0  0  0  0  0  0  0  0  0  0  0
    4.0136    3.5066    0.0000 C   0  0  0  0  0  0  0  0  0  0  0  0
   -1.7700   -2.1400    0.0000 C   0  0  0  0  0  0  0  0  0  0  0  0
   -4.3700   -2.1400    0.0000 C   0  0  0  0  0  0  0  0  0  0  0  0
    3.5500    2.0800    0.0000 C   0  0  0  0  0  0  0  0  0  0  0  0
    2.1200    0.1100    0.0000 C   0  0  0  0  0  0  0  0  0  0  0  0
   -0.4700    0.1100    0.0000 C   0  0  0  0  0  0  0  0  0  0  0  0
    0.8300   -2.1400    0.0000 C   0  0  0  0  0  0  0  0  0  0  0  0
    0.8300    2.3600    0.0000 C   0  0  0  0  0  0  0  0  0  0  0  0
    7.4116    5.5568    0.0000 C   0  0  0  0  0  0  0  0  0  0  0  0
    0.8300   -0.6400    0.0000 C   0  0  0  0  0  0  0  0  0  0  0  0
   -1.7700   -0.6400    0.0000 C   0  0  0  0  0  0  0  0  0  0  0  0
    2.1200    1.6100    0.0000 C   0  0  0  0  0  0  0  0  0  0  0  0
   -5.6689   -2.8902    0.0000 O   0  0  0  0  0  0  0  0  0  0  0  0
    2.1289   -2.8902    0.0000 O   0  0  0  0  0  0  0  0  0  0  0  0
    0.8325    3.8600    0.0000 O   0  0  0  0  0  0  0  0  0  0  0  0
    8.4152    4.4421    0.0000 O   0  0  0  0  0  0  0  0  0  0  0  0
    7.8751    6.9834    0.0000 O   0  0  0  0  0  0  0  0  0  0  0  0
  7  6  1  0
  8  5  1  0
 10  9  1  0
 14  1  1  6
 14  5  1  0
 15 11  1  6
 15 12  1  0
 16  9  1  0
 16 11  1  0
 17  6  1  1
 17 14  1  0
 18  7  1  1
 19 13  1  1
 20 12  1  0
 21 13  1  0
 22  8  1  0
 23 18  1  0
 23 19  1  0
 23 20  1  6
 24  2  1  1
 24 10  1  0
 24 15  1  0
 24 19  1  0
 25  3  1  1
 25 17  1  0
 25 18  1  0
 25 21  1  0
 16 26  1  1
 20 27  1  1
 21 28  1  6
 29 22  2  0
 30  4  1  0
 30 22  1  0
M  END
>  <NAME>  (19) 
3beta,7beta,12alpha-Trihydroxy-5beta-cholan-24-oic acid Methyl ester

>  <SYNONYMS>  (19) 


>  <SPECTRUM TYPE>  (19) 
MS1

>  <INSTRUMENT TYPE>  (19) 
EI-B

>  <INSTRUMENT>  (19) 
JEOL GCmate

>  <ION MODE>  (19) 
P

>  <INCHIKEY>  (19) 
DLYVTEULDNMQAR-JNCYXBDVSA-N

>  <FORMULA>  (19) 
C25H42O5

>  <EXACT MASS>  (19) 
422.30322444399997

>  <MW>  (19) 
422

>  <ID>  (19) 
NU000052

>  <CONTRIBUTOR>  (19) 
Takashi Iida, {Department of Chemistry, College of Humanities and Sciences, Nihon University

>  <COMMENT>  (19) 
compound class=Natural Product; BILE ACID
SMILES=C(C3(C)4)([H])(CC(O)CC4)CC(C(C3([H])2)(C(C1(C)C(O)C2)([H])CCC1([H])C(C)CCC(=O)OC)[H])O
chemspider=10295402
lipidbank=BBA0090
InChI=InChI=1S/C25H42O5/c1-14(5-8-22(29)30-4)17-6-7-18-23-19(13-21(28)25(17,18)3)24(2)10-9-16(26)11-15(24)12-20(23)27/h14-21,23,26-28H,5-13H2,1-4H3/t14-,15+,16+,17-,18+,19+,20+,21+,23+,24+,25-/m1/s1
computed SMILES=O=C(OC)CCC(C)C1CCC2C3C(O)CC4CC(O)CCC4(C)C3CC(O)C12C
accession=NU000052
date=2016.01.19 (Created 2008.10.06, modified 2011.05.06)
author=Takashi Iida, Department of Chemistry, College of Humanities and Sciences, Nihon University. Koichi Metori, Chemical Analytical Center, College of Pharmacy, Nihon Univercity.
license=CC BY-NC-SA
publication=Iida, T., Chang, F. C., Matsumoto, T., and Tamura, T. 1982. High Resolution Mass Spectra of Mono-, Di- and Trihydroxy Stereoisomers of Bile Acids. Biomed. Mass Spectrom. 9: 473-476. doi:10.1002/bms.1200091104
comment=Mass spectral data were collected from the publications cited in LipidBank
comment=[Analytical] Sample was directly injected
exact mass=422.30322
ionization potential=70 eV
source temperature=200 C
ion type=[M]+*
computed spectral entropy=4.981368657447463
computed normalized entropy=0.8649858693619757
SPLASH=splash10-00dr-4981000000-fc26b656f2f46fa446ef
submitter=submitter = Takashi Iida (Department of Chemistry, College of Humanities and Sciences, Nihon University)
MoNA Rating=3.75

>  <NUM PEAKS>  (19) 
317

>  <MASS SPECTRAL PEAKS>  (19) 
51.0 0.4
53.0 2.8
54.0 1.0
55.1 22.6
56.1 2.2
57.1 5.3
58.1 3.5
59.0 3.7
60.1 0.8
61.1 0.6
65.1 1.3
66.1 0.8
67.1 14.2
68.1 3.6
69.1 10.1
70.1 1.9
71.1 3.6
72.1 0.6
73.1 5.7
74.1 4.0
75.1 0.4
77.1 4.2
78.1 1.2
79.1 13.9
80.1 3.6
81.1 25.4
82.1 4.4
83.1 10.9
84.1 3.9
85.1 3.6
86.1 0.5
87.1 1.9
88.1 0.6
89.1 0.3
91.1 12.0
92.1 3.0
93.1 22.5
94.1 9.5
95.1 21.6
96.1 3.8
97.1 6.1
98.1 1.7
99.1 3.2
100.1 0.7
101.0 0.9
102.1 0.3
103.0 1.0
104.0 0.9
105.1 17.3
106.1 6.9
107.1 22.2
108.1 8.5
109.1 22.3
110.1 5.1
111.1 5.6
112.1 1.6
113.1 1.3
114.1 0.7
115.1 8.9
116.1 2.9
117.1 4.5
118.1 3.5
119.1 14.4
120.1 5.9
121.1 18.6
122.1 7.2
123.1 8.7
124.1 3.3
125.1 3.1
126.1 1.2
126.6 0.4
127.1 1.2
128.1 1.4
129.1 3.1
130.1 1.7
131.1 9.6
132.1 4.0
133.1 14.8
133.6 0.3
134.1 5.6
135.1 11.0
136.1 3.7
137.1 5.2
138.1 2.0
139.1 2.0
140.1 0.8
141.1 3.8
142.1 1.6
143.1 8.8
144.1 3.7
145.1 20.3
146.1 5.7
147.1 17.7
148.1 4.2
149.1 7.5
150.1 2.5
151.1 3.4
152.1 1.1
153.1 1.3
154.1 24.0
155.1 6.0
156.1 2.0
157.1 9.1
158.1 3.1
159.1 14.5
160.1 3.8
161.1 8.8
162.1 2.6
163.1 8.5
164.1 3.1
165.1 2.5
166.1 0.8
167.1 1.4
168.1 1.7
169.1 2.7
170.1 1.2
171.1 7.3
172.1 2.3
173.1 7.2
174.1 2.3
175.1 7.8
176.1 2.4
177.1 4.0
178.1 1.4
179.1 1.8
180.1 1.2
181.1 3.3
182.1 0.9
183.1 2.9
184.1 1.1
185.1 5.2
186.1 1.8
187.1 5.9
188.1 2.0
189.1 3.8
190.1 1.1
191.1 1.9
192.1 1.0
193.1 1.7
194.1 2.6
195.1 5.9
196.1 2.2
197.1 4.6
198.1 1.5
199.1 5.4
200.1 1.7
201.1 6.3
202.1 1.6
203.1 2.5
204.1 1.1
205.1 4.4
206.1 1.8
207.1 4.6
208.1 13.2
209.1 4.3
210.1 1.1
211.1 5.5
212.1 1.7
213.1 5.3
214.1 2.4
215.1 4.3
216.1 1.5
217.1 3.0
218.1 1.4
219.2 2.5
220.1 1.3
221.1 2.2
222.1 0.8
223.1 1.2
224.2 0.6
225.2 2.4
226.2 1.7
227.1 4.2
228.2 1.7
229.1 5.4
230.2 1.9
231.2 3.2
232.2 9.3
233.2 3.4
234.2 1.1
235.2 1.1
236.2 0.6
237.2 1.0
238.2 0.7
239.2 1.5
240.2 0.9
241.2 1.9
242.1 1.0
243.2 2.6
244.2 2.5
245.2 3.2
246.2 1.5
247.2 3.6
248.2 1.8
249.2 4.1
250.2 1.5
251.2 2.2
252.2 1.4
253.2 29.8
254.2 6.8
255.2 2.4
256.2 0.9
257.2 2.9
258.2 2.7
259.2 1.9
260.2 1.8
261.2 4.7
262.2 2.1
263.2 1.7
264.2 0.8
265.2 3.2
266.2 1.4
267.2 1.0
268.2 0.5
269.2 8.2
270.2 4.0
271.2 100.0
272.2 22.7
273.2 3.9
274.2 1.9
275.2 1.2
276.2 0.8
277.2 0.9
278.2 0.5
279.2 0.8
280.2 0.4
281.2 1.8
282.2 0.7
283.2 1.0
284.2 0.5
285.2 1.3
286.2 1.3
287.2 7.9
288.2 6.9
289.2 67.0
290.2 14.8
291.2 2.2
292.2 0.9
293.2 0.8
294.2 0.4
295.2 1.3
296.2 0.5
297.2 0.9
298.2 0.5
299.2 3.5
300.2 1.7
301.2 0.9
302.2 0.5
303.2 0.8
304.2 0.3
305.2 0.4
307.2 0.6
308.2 0.3
309.2 0.4
311.2 0.9
312.2 0.8
313.2 2.2
314.2 1.7
315.2 1.1
316.2 1.5
317.2 1.3
318.2 0.5
319.2 0.4
321.1 0.9
322.2 0.3
323.2 0.4
325.2 0.8
326.2 0.6
327.2 1.2
328.2 0.9
329.2 0.9
330.2 0.6
331.2 1.2
332.2 0.7
333.2 0.3
335.2 0.5
336.2 0.3
337.2 1.3
338.2 0.4
339.2 1.1
340.2 0.4
341.2 0.7
342.2 0.5
343.2 1.2
344.3 0.6
345.2 0.6
351.2 0.3
353.2 3.0
354.2 1.5
355.2 5.4
356.2 1.6
357.3 2.9
358.2 1.1
359.2 0.5
360.2 0.4
367.2 0.4
368.2 3.4
369.2 1.4
370.3 0.8
371.2 3.7
372.2 1.8
373.2 2.9
374.3 0.9
375.2 0.8
384.3 1.6
385.3 0.8
386.3 24.5
387.3 7.3
388.3 1.5
389.2 1.0
390.3 0.4
400.2 0.5
402.2 1.0
403.2 0.4
404.2 3.8
405.2 1.2
420.3 0.6

$$$$

     RDKit          2D

 30 33  0  0  1  0  0  0  0  0999 V2000
    3.0099    4.6213    0.0000 C   0  0  0  0  0  0  0  0  0  0  0  0
   -1.7700    0.8600    0.0000 C   0  0  0  0  0  0  0  0  0  0  0  0
    2.2765    3.1018    0.0000 C   0  0  0  0  0  0  0  0  0  0  0  0
    9.3424    7.2952    0.0000 C   0  0  0  0  0  0  0  0  0  0  0  0
    5.4808    3.8184    0.0000 C   0  0  0  0  0  0  0  0  0  0  0  0
    4.4300    0.8600    0.0000 C   0  0  0  0  0  0  0  0  0  0  0  0
    3.5500   -0.3500    0.0000 C   0  0  0  0  0  0  0  0  0  0  0  0
    5.9443    5.2450    0.0000 C   0  0  0  0  0  0  0  0  0  0  0  0
   -4.3700   -0.6400    0.0000 C   0  0  0  0  0  0  0  0  0  0  0  0
   -3.0700    0.1100    0.0000 C   0  0  0  0  0  0  0  0  0  0  0  0
   -3.0700   -2.8900    0.0000 C   0  0  0  0  0  0  0  0  0  0  0  0
   -0.4700   -2.8900    0.0000 C   0  0  0  0  0  0  0  0  0  0  0  0
   -0.4700    1.6100    0.0000 C   0  0  0  0  0  0  0  0  0  0  0  0
    4.0136    3.5066    0.0000 C   0  0  0  0  0  0  0  0  0  0  0  0
   -1.7700   -2.1400    0.0000 C   0  0  0  0  0  0  0  0  0  0  0  0
   -4.3700   -2.1400    0.0000 C   0  0  0  0  0  0  0  0  0  0  0  0
    3.5500    2.0800    0.0000 C   0  0  0  0  0  0  0  0  0  0  0  0
    2.1200    0.1100    0.0000 C   0  0  0  0  0  0  0  0  0  0  0  0
   -0.4700    0.1100    0.0000 C   0  0  0  0  0  0  0  0  0  0  0  0
    0.8300   -2.1400    0.0000 C   0  0  0  0  0  0  0  0  0  0  0  0
    0.8300    2.3600    0.0000 C   0  0  0  0  0  0  0  0  0  0  0  0
    7.4116    5.5568    0.0000 C   0  0  0  0  0  0  0  0  0  0  0  0
    0.8300   -0.6400    0.0000 C   0  0  0  0  0  0  0  0  0  0  0  0
   -1.7700   -0.6400    0.0000 C   0  0  0  0  0  0  0  0  0  0  0  0
    2.1200    1.6100    0.0000 C   0  0  0  0  0  0  0  0  0  0  0  0
   -5.6689   -2.8902    0.0000 O   0  0  0  0  0  0  0  0  0  0  0  0
    2.1289   -2.8902    0.0000 O   0  0  0  0  0  0  0  0  0  0  0  0
    0.8325    3.8600    0.0000 O   0  0  0  0  0  0  0  0  0  0  0  0
    8.4152    4.4421    0.0000 O   0  0  0  0  0  0  0  0  0  0  0  0
    7.8751    6.9834    0.0000 O   0  0  0  0  0  0  0  0  0  0  0  0
  7  6  1  0
  8  5  1  0
 10  9  1  0
 14  1  1  6
 14  5  1  0
 15 11  1  6
 15 12  1  0
 16  9  1  0
 16 11  1  0
 17  6  1  1
 17 14  1  0
 18  7  1  1
 19 13  1  1
 20 12  1  0
 21 13  1  0
 22  8  1  0
 23 18  1  0
 23 19  1  0
 23 20  1  6
 24  2  1  1
 24 10  1  0
 24 15  1  0
 24 19  1  0
 25  3  1  1
 25 17  1  0
 25 18  1  0
 25 21  1  0
 16 26  1  1
 20 27  1  6
 21 28  1  1
 29 22  2  0
 30  4  1  0
 30 22  1  0
M  END
>  <NAME>  (20) 
3beta,7alpha,12beta-Trihydroxy-5beta-cholan-24-oic acid Methyl ester

>  <SYNONYMS>  (20) 


>  <SPECTRUM TYPE>  (20) 
MS1

>  <INSTRUMENT TYPE>  (20) 
EI-B

>  <INSTRUMENT>  (20) 
JEOL GCmate

>  <ION MODE>  (20) 
P

>  <INCHIKEY>  (20) 
DLYVTEULDNMQAR-HLFBMUMPSA-N

>  <FORMULA>  (20) 
C25H42O5

>  <EXACT MASS>  (20) 
422.30322444399997

>  <MW>  (20) 
422

>  <ID>  (20) 
NU000051

>  <CONTRIBUTOR>  (20) 
Takashi Iida, {Department of Chemistry, College of Humanities and Sciences, Nihon University

>  <COMMENT>  (20) 
compound class=Natural Product; BILE ACID
SMILES=C(C3(C)4)([H])(CC(O)CC4)CC(C(C3([H])2)(C(C1(C)C(O)C2)([H])CCC1([H])C(C)CCC(=O)OC)[H])O
chemspider=10295401
lipidbank=BBA0087
InChI=InChI=1S/C25H42O5/c1-14(5-8-22(29)30-4)17-6-7-18-23-19(13-21(28)25(17,18)3)24(2)10-9-16(26)11-15(24)12-20(23)27/h14-21,23,26-28H,5-13H2,1-4H3/t14-,15+,16+,17-,18+,19+,20-,21-,23+,24+,25-/m1/s1
computed SMILES=O=C(OC)CCC(C)C1CCC2C3C(O)CC4CC(O)CCC4(C)C3CC(O)C12C
accession=NU000051
date=2016.01.19 (Created 2008.10.06, modified 2011.05.06)
author=Takashi Iida, Department of Chemistry, College of Humanities and Sciences, Nihon University. Koichi Metori, Chemical Analytical Center, College of Pharmacy, Nihon Univercity.
license=CC BY-NC-SA
publication=Iida, T., Chang, F. C., Matsumoto, T., and Tamura, T. 1982. High Resolution Mass Spectra of Mono-, Di- and Trihydroxy Stereoisomers of Bile Acids. Biomed. Mass Spectrom. 9: 473-476. doi:10.1002/bms.1200091104
comment=Mass spectral data were collected from the publications cited in LipidBank
comment=[Analytical] Sample was directly injected
exact mass=422.30322
ionization potential=70 eV
source temperature=200 C
ion type=[M]+*
computed spectral entropy=5.083137344437855
computed normalized entropy=0.8788539045003356
SPLASH=splash10-00di-4982000000-009be8de8e5e301f1f13
submitter=submitter = Takashi Iida (Department of Chemistry, College of Humanities and Sciences, Nihon University)
MoNA Rating=3.75

>  <NUM PEAKS>  (20) 
325

>  <MASS SPECTRAL PEAKS>  (20) 
51.0 0.4
53.0 3.3
54.0 1.0
55.1 25.5
56.1 2.1
57.1 5.5
58.1 2.8
59.0 4.3
60.1 0.6
61.1 0.3
65.1 1.5
66.1 0.9
67.1 15.8
68.1 3.4
69.1 10.1
70.1 1.8
71.1 3.4
72.1 0.5
73.1 6.1
74.1 3.5
75.1 0.4
77.1 4.9
78.1 1.2
79.1 15.4
80.1 3.8
81.1 25.6
82.1 4.1
83.1 11.0
84.1 3.3
85.1 3.5
86.1 0.5
87.1 1.8
88.1 0.5
91.1 13.1
92.1 2.9
93.1 21.9
94.1 9.9
95.1 21.0
96.1 3.7
97.1 5.7
98.1 1.6
99.1 3.1
100.1 0.6
101.1 1.0
103.0 1.0
104.0 1.0
105.1 16.6
106.1 5.2
107.1 23.2
108.1 9.0
109.1 19.6
110.1 4.6
111.1 5.3
112.1 1.7
113.1 1.3
114.1 0.6
115.1 7.6
116.1 2.2
117.1 4.6
118.1 2.8
119.1 13.3
120.1 5.5
121.1 22.1
122.1 7.1
123.1 9.4
124.1 4.0
125.1 3.4
126.1 1.3
126.6 0.4
127.1 1.1
128.1 1.5
129.1 3.1
130.1 1.7
131.1 8.5
132.1 3.4
133.1 12.1
134.1 4.5
135.1 11.4
136.1 4.7
137.1 6.5
138.1 2.3
139.1 2.6
140.1 0.7
141.1 4.2
142.1 1.6
143.1 6.5
144.1 3.1
145.1 16.3
146.1 4.6
147.1 15.9
148.1 4.3
149.1 6.0
150.1 2.4
151.1 2.3
152.1 1.0
153.1 1.6
154.1 12.5
155.1 4.7
156.1 1.7
157.1 7.0
158.1 2.7
159.1 12.6
160.1 3.9
161.1 8.2
162.1 2.7
163.1 6.7
164.1 2.5
165.1 2.1
166.1 0.6
167.1 1.0
168.1 4.9
169.1 3.2
170.1 1.3
171.1 6.1
172.1 2.2
173.1 7.2
174.1 2.2
175.1 4.9
176.1 1.5
177.1 2.8
178.1 1.1
179.1 1.1
180.1 0.6
181.1 1.5
182.1 0.7
183.1 2.6
184.1 1.1
185.1 5.0
186.1 1.7
187.1 5.2
188.1 1.5
189.1 3.1
190.1 1.2
191.1 2.6
192.1 0.8
193.1 1.5
194.1 2.0
195.1 5.4
196.1 1.5
197.1 3.6
198.1 1.3
199.1 5.3
200.1 1.9
201.1 7.1
202.1 1.8
203.1 2.4
204.1 0.9
205.1 1.4
206.1 0.6
207.1 2.1
208.1 1.9
209.1 2.3
210.1 0.7
211.1 4.9
212.1 1.5
213.1 4.6
214.1 1.9
215.2 4.7
216.1 2.0
217.1 3.4
218.1 1.6
219.2 3.3
220.2 1.0
221.1 1.6
222.1 1.2
223.1 1.6
224.1 0.7
225.1 2.6
226.2 2.0
227.2 5.5
228.2 2.0
229.2 10.0
230.2 2.7
231.1 3.3
232.2 3.5
233.2 3.3
234.2 1.3
235.2 1.2
236.1 0.5
237.2 1.0
238.1 0.5
239.1 1.3
240.2 0.6
241.2 1.5
242.1 0.9
243.1 3.4
244.2 3.4
245.2 5.7
246.2 2.4
247.1 11.0
248.2 3.1
249.2 3.0
250.2 1.2
251.1 2.4
252.2 1.1
253.2 17.1
254.2 4.1
255.2 2.3
256.2 1.0
257.2 1.9
258.2 1.7
259.2 2.2
260.2 2.0
261.2 4.1
262.2 2.5
263.1 5.7
264.2 2.2
265.1 20.6
266.2 4.3
267.2 1.4
268.2 0.6
269.2 10.5
270.2 4.6
271.2 100.0
272.2 26.1
273.2 5.3
274.2 1.8
275.2 1.8
276.2 1.1
277.2 2.1
278.2 1.1
279.2 1.1
280.1 0.4
281.2 1.4
282.2 0.5
283.2 0.8
284.2 0.4
285.2 1.1
286.2 0.6
287.2 3.1
288.2 2.0
289.2 23.9
290.2 6.1
291.2 1.4
292.2 1.0
293.2 0.8
294.2 0.3
295.2 1.1
296.2 0.4
297.2 1.1
298.2 0.6
299.2 4.2
300.2 1.5
301.2 0.9
302.2 0.6
303.2 0.9
304.2 0.4
305.2 3.0
306.2 0.8
307.2 1.0
308.2 0.4
309.2 0.5
310.2 0.4
311.2 1.2
312.2 0.7
313.2 1.9
314.2 1.3
315.2 1.1
316.2 1.1
317.2 0.8
318.2 0.3
319.2 0.5
321.2 0.7
323.2 0.3
325.2 1.3
326.2 0.7
327.2 1.1
328.2 0.6
329.2 1.2
330.2 1.0
331.2 2.3
332.2 1.4
333.2 0.5
335.2 0.4
337.2 1.0
338.2 0.3
339.2 1.2
340.2 0.5
341.2 0.9
342.2 0.7
343.2 2.3
344.2 1.2
345.2 0.7
346.2 0.4
347.2 1.9
348.2 0.5
349.2 0.3
351.2 0.4
352.2 0.3
353.2 2.8
354.2 1.4
355.2 4.4
356.2 1.3
357.2 7.3
358.2 2.2
359.2 0.9
360.2 0.6
366.2 0.3
367.2 0.3
368.2 3.0
369.2 1.6
370.2 0.8
371.2 5.1
372.3 2.0
373.3 3.8
374.3 1.1
375.3 4.5
376.3 1.3
384.3 2.9
385.3 1.1
386.3 21.2
387.3 6.4
388.3 1.3
389.2 1.7
390.3 0.5
400.2 0.5
402.2 9.0
403.2 2.7
404.2 5.2
405.2 1.7
406.2 0.3
418.3 0.3
420.3 5.8
421.3 1.8
422.3 0.4

$$$$

     RDKit          2D

 30 33  0  0  1  0  0  0  0  0999 V2000
    3.0099    4.6213    0.0000 C   0  0  0  0  0  0  0  0  0  0  0  0
   -1.7700    0.8600    0.0000 C   0  0  0  0  0  0  0  0  0  0  0  0
    2.2765    3.1018    0.0000 C   0  0  0  0  0  0  0  0  0  0  0  0
    9.3424    7.2952    0.0000 C   0  0  0  0  0  0  0  0  0  0  0  0
    5.4808    3.8184    0.0000 C   0  0  0  0  0  0  0  0  0  0  0  0
    4.4300    0.8600    0.0000 C   0  0  0  0  0  0  0  0  0  0  0  0
    3.5500   -0.3500    0.0000 C   0  0  0  0  0  0  0  0  0  0  0  0
    5.9443    5.2450    0.0000 C   0  0  0  0  0  0  0  0  0  0  0  0
   -4.3700   -0.6400    0.0000 C   0  0  0  0  0  0  0  0  0  0  0  0
   -3.0700    0.1100    0.0000 C   0  0  0  0  0  0  0  0  0  0  0  0
   -3.0700   -2.8900    0.0000 C   0  0  0  0  0  0  0  0  0  0  0  0
   -0.4700   -2.8900    0.0000 C   0  0  0  0  0  0  0  0  0  0  0  0
   -0.4700    1.6100    0.0000 C   0  0  0  0  0  0  0  0  0  0  0  0
    4.0136    3.5066    0.0000 C   0  0  0  0  0  0  0  0  0  0  0  0
   -1.7700   -2.1400    0.0000 C   0  0  0  0  0  0  0  0  0  0  0  0
   -4.3700   -2.1400    0.0000 C   0  0  0  0  0  0  0  0  0  0  0  0
    3.5500    2.0800    0.0000 C   0  0  0  0  0  0  0  0  0  0  0  0
    2.1200    0.1100    0.0000 C   0  0  0  0  0  0  0  0  0  0  0  0
   -0.4700    0.1100    0.0000 C   0  0  0  0  0  0  0  0  0  0  0  0
    0.8300   -2.1400    0.0000 C   0  0  0  0  0  0  0  0  0  0  0  0
    0.8300    2.3600    0.0000 C   0  0  0  0  0  0  0  0  0  0  0  0
    7.4116    5.5568    0.0000 C   0  0  0  0  0  0  0  0  0  0  0  0
    0.8300   -0.6400    0.0000 C   0  0  0  0  0  0  0  0  0  0  0  0
   -1.7700   -0.6400    0.0000 C   0  0  0  0  0  0  0  0  0  0  0  0
    2.1200    1.6100    0.0000 C   0  0  0  0  0  0  0  0  0  0  0  0
   -5.6689   -2.8902    0.0000 O   0  0  0  0  0  0  0  0  0  0  0  0
    2.1289   -2.8902    0.0000 O   0  0  0  0  0  0  0  0  0  0  0  0
    0.8325    3.8600    0.0000 O   0  0  0  0  0  0  0  0  0  0  0  0
    8.4152    4.4421    0.0000 O   0  0  0  0  0  0  0  0  0  0  0  0
    7.8751    6.9834    0.0000 O   0  0  0  0  0  0  0  0  0  0  0  0
  7  6  1  0
  8  5  1  0
 10  9  1  0
 14  1  1  6
 14  5  1  0
 15 11  1  6
 15 12  1  0
 16  9  1  0
 16 11  1  0
 17  6  1  1
 17 14  1  0
 18  7  1  1
 19 13  1  1
 20 12  1  0
 21 13  1  0
 22  8  1  0
 23 18  1  0
 23 19  1  0
 23 20  1  6
 24  2  1  1
 24 10  1  0
 24 15  1  0
 24 19  1  0
 25  3  1  1
 25 17  1  0
 25 18  1  0
 25 21  1  0
 16 26  1  6
 20 27  1  1
 21 28  1  1
 29 22  2  0
 30  4  1  0
 30 22  1  0
M  END
>  <NAME>  (21) 
3alpha,7beta,12beta-Trihydroxy-5beta-cholan-24-oic acid Methyl ester

>  <SYNONYMS>  (21) 


>  <SPECTRUM TYPE>  (21) 
MS1

>  <INSTRUMENT TYPE>  (21) 
EI-B

>  <INSTRUMENT>  (21) 
JEOL GCmate

>  <ION MODE>  (21) 
P

>  <INCHIKEY>  (21) 
DLYVTEULDNMQAR-MEAQBNKYSA-N

>  <FORMULA>  (21) 
C25H42O5

>  <EXACT MASS>  (21) 
422.30322444399997

>  <MW>  (21) 
422

>  <ID>  (21) 
NU000050

>  <CONTRIBUTOR>  (21) 
Takashi Iida, {Department of Chemistry, College of Humanities and Sciences, Nihon University

>  <COMMENT>  (21) 
compound class=Natural Product; BILE ACID
SMILES=C(C3(C)4)([H])(CC(O)CC4)CC(C(C3([H])2)(C(C1(C)C(O)C2)([H])CCC1([H])C(C)CCC(=O)OC)[H])O
chemspider=10295400
lipidbank=BBA0089
InChI=InChI=1S/C25H42O5/c1-14(5-8-22(29)30-4)17-6-7-18-23-19(13-21(28)25(17,18)3)24(2)10-9-16(26)11-15(24)12-20(23)27/h14-21,23,26-28H,5-13H2,1-4H3/t14-,15+,16-,17-,18+,19+,20+,21-,23+,24+,25-/m1/s1
computed SMILES=O=C(OC)CCC(C)C1CCC2C3C(O)CC4CC(O)CCC4(C)C3CC(O)C12C
accession=NU000050
date=2016.01.19 (Created 2008.10.06, modified 2011.05.06)
author=Takashi Iida, Department of Chemistry, College of Humanities and Sciences, Nihon University. Koichi Metori, Chemical Analytical Center, College of Pharmacy, Nihon Univercity.
license=CC BY-NC-SA
publication=Iida, T., Chang, F. C., Matsumoto, T., and Tamura, T. 1982. High Resolution Mass Spectra of Mono-, Di- and Trihydroxy Stereoisomers of Bile Acids. Biomed. Mass Spectrom. 9: 473-476. doi:10.1002/bms.1200091104
comment=Mass spectral data were collected from the publications cited in LipidBank
comment=[Analytical] Sample was directly injected
exact mass=422.30322
ionization potential=70 eV
source temperature=200 C
ion type=[M]+*
computed spectral entropy=5.02792947596998
computed normalized entropy=0.8725936549257246
SPLASH=splash10-00dr-4982000000-557ae38517f371276e2a
submitter=submitter = Takashi Iida (Department of Chemistry, College of Humanities and Sciences, Nihon University)
MoNA Rating=3.75

>  <NUM PEAKS>  (21) 
318

>  <MASS SPECTRAL PEAKS>  (21) 
51.0 0.4
53.0 3.4
54.1 1.0
55.1 27.4
56.1 2.4
57.1 6.0
58.1 3.1
59.0 4.5
60.1 0.7
61.1 0.3
65.1 1.5
66.1 0.9
67.1 17.2
68.1 4.1
69.1 11.6
70.1 2.1
71.1 4.0
72.1 0.6
73.1 6.7
74.1 5.6
75.1 0.5
77.1 4.9
78.1 1.3
79.1 15.7
80.1 4.2
81.1 31.1
82.1 5.0
83.1 13.3
84.1 4.3
85.1 3.9
86.1 0.5
87.1 2.0
88.1 0.7
89.0 0.3
91.1 13.6
92.1 3.7
93.1 25.6
94.1 12.0
95.1 27.7
96.1 4.3
97.1 6.4
98.1 1.7
99.1 3.2
100.1 0.7
101.1 1.2
102.1 0.4
103.0 1.1
104.1 1.1
105.1 21.7
106.1 7.3
107.1 22.7
108.1 8.4
109.1 22.8
110.1 4.9
111.1 5.2
112.1 1.7
113.1 1.3
114.1 0.7
115.1 13.8
116.1 6.0
117.1 5.2
118.1 4.0
119.1 16.1
120.1 6.8
121.1 19.2
122.1 7.1
123.1 9.2
124.1 2.8
125.1 3.1
126.1 1.1
127.1 1.1
128.1 1.5
129.1 3.7
130.1 1.9
131.1 10.5
132.1 4.1
133.1 16.0
134.1 5.3
135.1 12.4
136.1 4.1
137.1 5.1
138.1 1.6
139.1 2.3
140.1 0.7
141.1 3.5
142.1 1.7
143.1 8.3
144.1 3.7
145.1 16.7
146.1 5.1
147.1 16.8
148.1 4.6
149.1 8.7
150.1 2.5
151.1 3.0
152.1 1.1
153.1 2.0
154.1 17.0
155.1 5.4
156.1 2.0
157.1 12.3
158.1 4.0
159.1 14.8
160.1 4.4
161.1 10.2
162.1 4.8
163.1 8.7
164.1 3.6
165.1 3.7
166.1 0.9
167.1 1.2
168.1 7.0
169.1 3.9
170.1 1.5
171.1 8.3
172.1 2.9
173.1 8.1
174.1 3.0
175.1 9.3
176.1 2.6
177.1 3.9
178.1 1.6
179.1 1.6
180.1 0.8
181.1 1.9
182.1 0.8
183.1 3.4
184.1 1.4
185.1 6.8
186.1 3.5
187.1 6.7
188.1 2.7
189.1 4.8
190.1 1.6
191.1 2.4
192.1 0.8
193.1 1.6
194.1 4.2
195.1 10.5
196.1 3.2
197.1 5.4
198.1 2.8
199.1 9.2
200.1 3.4
201.1 9.0
202.1 2.5
203.1 3.5
204.1 2.5
205.1 1.8
206.1 1.7
207.1 3.5
208.1 7.0
209.1 3.4
210.1 0.9
211.1 5.5
212.1 2.1
213.1 6.9
214.1 7.7
215.1 7.1
216.1 2.7
217.1 3.9
218.2 2.5
219.1 2.2
220.1 1.4
221.1 1.7
222.1 0.8
223.1 1.1
224.2 0.6
225.2 3.4
226.2 3.7
227.2 6.9
228.2 2.4
229.2 7.2
230.1 2.6
231.2 3.7
232.2 8.1
233.2 2.9
234.2 1.0
235.1 1.0
236.1 0.4
237.1 1.5
238.2 0.7
239.2 2.8
240.2 1.7
241.2 3.9
242.2 1.4
243.2 4.3
244.2 4.1
245.2 4.4
246.2 2.0
247.2 3.1
248.2 1.3
249.2 2.4
250.2 0.9
251.2 2.4
252.2 2.5
253.2 54.7
254.2 13.1
255.2 3.4
256.2 1.0
257.2 1.9
258.2 2.0
259.2 1.7
260.2 1.5
261.2 2.2
262.2 2.0
263.1 1.9
264.2 1.1
265.2 2.8
266.2 1.9
267.2 1.2
268.2 0.6
269.2 6.7
270.2 3.7
271.2 100.0
272.2 23.3
273.2 4.2
274.2 1.4
275.2 1.1
276.2 1.8
277.2 1.1
278.2 0.6
279.2 0.9
280.1 0.4
281.2 4.9
282.2 1.4
283.2 1.0
284.2 0.4
285.2 1.2
286.2 1.3
287.2 5.0
288.2 7.9
289.2 55.3
290.2 12.9
291.2 2.1
292.2 0.8
293.2 0.8
294.2 0.5
295.2 1.4
296.2 0.5
297.2 1.2
298.2 0.5
299.2 5.0
300.2 1.8
301.2 1.0
302.2 0.6
303.2 0.9
304.2 0.5
305.2 0.4
307.2 1.0
308.2 0.4
309.2 0.5
310.2 0.4
311.2 0.9
312.2 0.8
313.2 2.3
314.2 2.0
315.2 1.3
316.2 0.7
317.2 0.9
318.2 0.4
319.2 0.5
321.2 1.3
322.2 0.4
323.2 0.4
325.2 1.2
326.2 0.9
327.2 1.7
328.2 0.8
329.2 0.7
330.2 0.5
331.2 1.3
332.2 0.7
333.2 0.3
335.2 0.5
336.2 0.6
337.2 1.7
338.2 0.5
339.2 1.6
340.2 0.6
341.2 0.7
342.2 0.7
343.2 1.3
344.2 0.8
345.2 0.6
351.2 0.3
353.2 4.0
354.2 2.0
355.2 9.0
356.2 2.7
357.2 8.0
358.2 2.7
359.2 0.7
360.2 1.4
361.2 0.4
362.2 0.3
367.2 0.5
368.2 8.2
369.2 3.0
370.3 1.1
371.2 4.5
372.3 2.1
373.3 3.2
374.2 1.0
375.3 0.7
384.3 1.7
385.3 0.9
386.3 27.4
387.3 8.1
388.3 1.6
389.3 1.0
390.3 0.3
400.2 0.5
402.2 0.9
403.2 0.4
404.2 4.8
405.2 1.5
406.3 0.3

$$$$

     RDKit          2D

 30 33  0  0  1  0  0  0  0  0999 V2000
    3.0099    4.6213    0.0000 C   0  0  0  0  0  0  0  0  0  0  0  0
   -1.7700    0.8600    0.0000 C   0  0  0  0  0  0  0  0  0  0  0  0
    2.2765    3.1018    0.0000 C   0  0  0  0  0  0  0  0  0  0  0  0
    9.3424    7.2952    0.0000 C   0  0  0  0  0  0  0  0  0  0  0  0
    5.4808    3.8184    0.0000 C   0  0  0  0  0  0  0  0  0  0  0  0
    4.4300    0.8600    0.0000 C   0  0  0  0  0  0  0  0  0  0  0  0
    3.5500   -0.3500    0.0000 C   0  0  0  0  0  0  0  0  0  0  0  0
    5.9443    5.2450    0.0000 C   0  0  0  0  0  0  0  0  0  0  0  0
   -4.3700   -0.6400    0.0000 C   0  0  0  0  0  0  0  0  0  0  0  0
   -3.0700    0.1100    0.0000 C   0  0  0  0  0  0  0  0  0  0  0  0
   -3.0700   -2.8900    0.0000 C   0  0  0  0  0  0  0  0  0  0  0  0
   -0.4700   -2.8900    0.0000 C   0  0  0  0  0  0  0  0  0  0  0  0
   -0.4700    1.6100    0.0000 C   0  0  0  0  0  0  0  0  0  0  0  0
    4.0136    3.5066    0.0000 C   0  0  0  0  0  0  0  0  0  0  0  0
   -1.7700   -2.1400    0.0000 C   0  0  0  0  0  0  0  0  0  0  0  0
   -4.3700   -2.1400    0.0000 C   0  0  0  0  0  0  0  0  0  0  0  0
    3.5500    2.0800    0.0000 C   0  0  0  0  0  0  0  0  0  0  0  0
    2.1200    0.1100    0.0000 C   0  0  0  0  0  0  0  0  0  0  0  0
   -0.4700    0.1100    0.0000 C   0  0  0  0  0  0  0  0  0  0  0  0
    0.8300   -2.1400    0.0000 C   0  0  0  0  0  0  0  0  0  0  0  0
    0.8300    2.3600    0.0000 C   0  0  0  0  0  0  0  0  0  0  0  0
    7.4116    5.5568    0.0000 C   0  0  0  0  0  0  0  0  0  0  0  0
    0.8300   -0.6400    0.0000 C   0  0  0  0  0  0  0  0  0  0  0  0
   -1.7700   -0.6400    0.0000 C   0  0  0  0  0  0  0  0  0  0  0  0
    2.1200    1.6100    0.0000 C   0  0  0  0  0  0  0  0  0  0  0  0
   -5.6689   -2.8902    0.0000 O   0  0  0  0  0  0  0  0  0  0  0  0
    2.1289   -2.8902    0.0000 O   0  0  0  0  0  0  0  0  0  0  0  0
    0.8325    3.8600    0.0000 O   0  0  0  0  0  0  0  0  0  0  0  0
    8.4152    4.4421    0.0000 O   0  0  0  0  0  0  0  0  0  0  0  0
    7.8751    6.9834    0.0000 O   0  0  0  0  0  0  0  0  0  0  0  0
  7  6  1  0
  8  5  1  0
 10  9  1  0
 14  1  1  6
 14  5  1  0
 15 11  1  6
 15 12  1  0
 16  9  1  0
 16 11  1  0
 17  6  1  1
 17 14  1  0
 18  7  1  1
 19 13  1  1
 20 12  1  0
 21 13  1  0
 22  8  1  0
 23 18  1  0
 23 19  1  0
 23 20  1  6
 24  2  1  1
 24 10  1  0
 24 15  1  0
 24 19  1  0
 25  3  1  1
 25 17  1  0
 25 18  1  0
 25 21  1  0
 16 26  1  1
 20 27  1  6
 21 28  1  6
 29 22  2  0
 30  4  1  0
 30 22  1  0
M  END
>  <NAME>  (22) 
3beta,7alpha,12alpha-Trihydroxy-5beta-cholan-24-oic acid Methyl ester

>  <SYNONYMS>  (22) 


>  <SPECTRUM TYPE>  (22) 
MS1

>  <INSTRUMENT TYPE>  (22) 
EI-B

>  <INSTRUMENT>  (22) 
JEOL GCmate

>  <ION MODE>  (22) 
P

>  <INCHIKEY>  (22) 
DLYVTEULDNMQAR-RMPHWFMRSA-N

>  <FORMULA>  (22) 
C25H42O5

>  <EXACT MASS>  (22) 
422.30322444399997

>  <MW>  (22) 
422

>  <ID>  (22) 
NU000049

>  <CONTRIBUTOR>  (22) 
Takashi Iida, {Department of Chemistry, College of Humanities and Sciences, Nihon University

>  <COMMENT>  (22) 
compound class=Natural Product; BILE ACID
SMILES=C(C3(C)4)([H])(CC(O)CC4)CC(C(C3([H])2)(C(C1(C)C(O)C2)([H])CCC1([H])C(C)CCC(=O)OC)[H])O
chemspider=10295399
lipidbank=BBA0086
InChI=InChI=1S/C25H42O5/c1-14(5-8-22(29)30-4)17-6-7-18-23-19(13-21(28)25(17,18)3)24(2)10-9-16(26)11-15(24)12-20(23)27/h14-21,23,26-28H,5-13H2,1-4H3/t14-,15+,16+,17-,18+,19+,20-,21+,23+,24+,25-/m1/s1
computed SMILES=O=C(OC)CCC(C)C1CCC2C3C(O)CC4CC(O)CCC4(C)C3CC(O)C12C
accession=NU000049
date=2016.01.19 (Created 2008.10.06, modified 2011.05.06)
author=Takashi Iida, Department of Chemistry, College of Humanities and Sciences, Nihon University. Koichi Metori, Chemical Analytical Center, College of Pharmacy, Nihon Univercity.
license=CC BY-NC-SA
publication=Iida, T., Chang, F. C., Matsumoto, T., and Tamura, T. 1982. High Resolution Mass Spectra of Mono-, Di- and Trihydroxy Stereoisomers of Bile Acids. Biomed. Mass Spectrom. 9: 473-476. doi:10.1002/bms.1200091104
comment=Mass spectral data were collected from the publications cited in LipidBank
comment=[Analytical] Sample was directly injected
exact mass=422.30322
ionization potential=70 eV
source temperature=200 C
ion type=[M]+*
computed spectral entropy=4.999143930402333
computed normalized entropy=0.8666549476091364
SPLASH=splash10-00dr-4983000000-dfa4f3f85f9ba1916787
submitter=submitter = Takashi Iida (Department of Chemistry, College of Humanities and Sciences, Nihon University)
MoNA Rating=3.75

>  <NUM PEAKS>  (22) 
320

>  <MASS SPECTRAL PEAKS>  (22) 
51.0 0.3
53.0 3.1
54.1 0.9
55.1 25.5
56.1 2.1
57.1 5.2
58.1 2.2
59.0 4.2
60.1 0.5
65.1 1.4
66.1 0.8
67.1 15.5
68.1 3.3
69.1 10.5
70.1 1.7
71.1 3.4
72.1 0.5
73.1 6.1
74.1 3.5
75.1 0.4
77.1 4.8
78.1 1.3
79.1 15.3
80.1 3.6
81.1 26.8
82.1 4.0
83.1 11.8
84.1 3.6
85.1 3.7
86.1 0.6
87.0 1.9
88.0 0.5
91.0 14.1
92.1 3.3
93.1 23.3
94.1 9.3
95.1 21.8
96.1 3.4
97.1 6.0
98.1 1.6
99.1 3.5
100.1 0.7
101.1 1.0
103.0 1.0
104.1 1.0
105.1 19.0
106.1 6.1
107.1 25.4
108.1 8.1
109.1 17.9
110.1 4.5
111.1 5.5
112.1 1.7
113.1 1.4
114.1 0.7
115.1 8.0
116.1 1.7
117.1 5.1
118.1 4.9
119.1 17.1
119.6 0.3
120.1 6.7
121.1 18.6
122.1 6.4
123.1 8.5
124.1 3.5
125.1 3.3
126.1 1.4
126.6 0.5
127.1 1.3
128.1 1.7
129.1 3.7
130.1 2.0
131.1 11.6
132.1 4.7
133.1 14.4
133.6 0.4
134.1 4.9
135.1 10.5
136.1 3.5
137.1 5.5
138.1 2.0
139.1 2.0
140.1 0.8
141.1 5.7
142.1 2.1
143.1 13.5
144.1 4.8
145.1 27.4
146.1 6.6
147.1 18.7
147.6 0.3
148.1 4.0
149.1 5.8
150.1 2.0
151.1 2.2
152.1 0.9
153.1 1.2
154.1 10.3
155.1 5.1
156.1 2.1
157.1 9.2
158.1 3.6
159.1 15.9
160.1 4.2
161.1 9.2
162.1 2.4
163.1 6.1
164.1 2.2
165.1 2.0
166.1 0.6
167.1 1.3
168.1 1.4
169.1 3.9
170.1 1.8
171.1 9.0
172.1 4.2
173.1 10.2
174.1 3.3
175.1 5.7
176.1 1.6
177.1 3.3
178.1 1.1
179.1 1.4
180.1 0.9
181.1 1.7
182.1 0.7
183.1 3.8
184.1 1.7
185.1 6.9
186.1 2.5
187.1 7.7
188.1 1.9
189.1 3.2
190.1 1.0
191.1 1.7
192.1 0.7
193.1 1.6
194.1 1.6
195.1 4.2
196.1 1.4
197.1 5.4
198.1 2.0
199.1 8.1
200.1 2.4
201.1 7.7
202.1 1.8
203.1 2.4
204.1 0.8
205.1 1.5
206.1 0.8
207.1 4.2
208.1 2.9
209.1 3.7
210.1 1.2
211.1 11.1
212.1 3.0
213.1 6.5
214.1 2.3
215.1 5.6
216.1 1.9
217.1 3.9
218.2 1.6
219.1 3.4
220.2 1.0
221.1 1.8
222.1 0.7
223.1 1.4
224.1 0.7
225.2 3.0
226.2 5.7
227.2 7.3
228.2 2.4
229.2 10.4
230.2 2.8
231.2 3.6
232.2 4.1
233.2 3.5
234.2 1.1
235.1 1.4
236.2 0.7
237.1 1.3
238.1 1.0
239.1 1.6
240.2 1.0
241.1 1.5
242.1 1.2
243.2 2.6
244.2 9.3
245.2 5.9
246.2 2.2
247.2 8.3
248.2 2.8
249.2 3.4
250.2 1.2
251.2 2.2
252.2 1.4
253.2 37.6
254.2 8.5
255.2 2.8
256.2 0.9
257.2 1.7
258.2 1.7
259.2 2.6
260.2 8.6
261.2 40.3
262.2 10.2
263.2 3.4
264.1 1.1
265.2 3.9
266.2 1.1
267.2 1.0
268.2 0.5
269.2 9.0
270.2 3.3
271.1 100.0
272.2 24.7
273.2 4.6
274.2 3.5
275.2 2.0
276.2 0.8
277.2 1.1
278.1 0.6
279.2 1.1
280.2 0.5
281.2 2.2
282.2 0.9
283.2 1.0
284.2 0.5
285.2 1.2
286.2 0.7
287.2 2.8
288.2 1.4
289.2 13.7
290.2 3.3
291.2 0.7
292.2 1.2
293.2 0.9
294.2 0.5
295.2 1.7
296.2 0.5
297.2 1.1
298.2 0.6
299.2 5.9
300.2 2.6
301.2 1.3
302.2 0.6
303.2 1.0
304.2 0.4
305.2 0.4
307.2 0.5
308.2 0.3
309.2 0.3
310.2 0.4
311.2 1.3
312.2 1.4
313.2 3.8
314.2 3.9
315.2 1.7
316.2 2.9
317.2 1.1
318.2 0.4
319.2 0.4
321.1 1.7
322.2 0.5
323.2 0.3
325.2 1.2
326.2 1.0
327.2 2.2
328.2 1.3
329.2 1.4
330.2 0.8
331.2 4.1
332.2 1.2
333.2 0.3
335.2 0.4
336.2 0.4
337.2 1.2
338.2 0.4
339.2 1.5
340.2 0.5
341.2 0.8
342.2 0.5
343.2 2.3
344.2 1.1
345.2 0.6
347.2 0.4
351.2 0.3
353.2 6.7
354.2 2.8
355.2 5.8
356.2 1.7
357.2 7.3
358.2 2.2
359.3 0.7
360.2 0.4
367.2 0.5
368.2 8.7
369.2 3.0
370.3 1.0
371.2 10.8
372.2 3.5
373.2 4.5
374.3 1.3
375.3 4.1
376.3 1.2
384.3 2.4
386.3 78.3
387.3 22.6
388.3 4.0
389.2 1.8
390.2 0.5
400.2 0.8
402.2 1.5
403.2 0.5
404.2 3.8
405.2 1.1
420.3 0.9
421.2 0.3
422.3 0.3

$$$$

     RDKit          2D

 30 33  0  0  1  0  0  0  0  0999 V2000
    3.0099    4.6213    0.0000 C   0  0  0  0  0  0  0  0  0  0  0  0
   -1.7700    0.8600    0.0000 C   0  0  0  0  0  0  0  0  0  0  0  0
    2.2765    3.1018    0.0000 C   0  0  0  0  0  0  0  0  0  0  0  0
    9.3424    7.2952    0.0000 C   0  0  0  0  0  0  0  0  0  0  0  0
    5.4808    3.8184    0.0000 C   0  0  0  0  0  0  0  0  0  0  0  0
    4.4300    0.8600    0.0000 C   0  0  0  0  0  0  0  0  0  0  0  0
    3.5500   -0.3500    0.0000 C   0  0  0  0  0  0  0  0  0  0  0  0
    5.9443    5.2450    0.0000 C   0  0  0  0  0  0  0  0  0  0  0  0
   -4.3700   -0.6400    0.0000 C   0  0  0  0  0  0  0  0  0  0  0  0
   -3.0700    0.1100    0.0000 C   0  0  0  0  0  0  0  0  0  0  0  0
   -3.0700   -2.8900    0.0000 C   0  0  0  0  0  0  0  0  0  0  0  0
   -0.4700   -2.8900    0.0000 C   0  0  0  0  0  0  0  0  0  0  0  0
   -0.4700    1.6100    0.0000 C   0  0  0  0  0  0  0  0  0  0  0  0
    4.0136    3.5066    0.0000 C   0  0  0  0  0  0  0  0  0  0  0  0
   -1.7700   -2.1400    0.0000 C   0  0  0  0  0  0  0  0  0  0  0  0
   -4.3700   -2.1400    0.0000 C   0  0  0  0  0  0  0  0  0  0  0  0
    3.5500    2.0800    0.0000 C   0  0  0  0  0  0  0  0  0  0  0  0
    2.1200    0.1100    0.0000 C   0  0  0  0  0  0  0  0  0  0  0  0
   -0.4700    0.1100    0.0000 C   0  0  0  0  0  0  0  0  0  0  0  0
    0.8300   -2.1400    0.0000 C   0  0  0  0  0  0  0  0  0  0  0  0
    0.8300    2.3600    0.0000 C   0  0  0  0  0  0  0  0  0  0  0  0
    7.4116    5.5568    0.0000 C   0  0  0  0  0  0  0  0  0  0  0  0
    0.8300   -0.6400    0.0000 C   0  0  0  0  0  0  0  0  0  0  0  0
   -1.7700   -0.6400    0.0000 C   0  0  0  0  0  0  0  0  0  0  0  0
    2.1200    1.6100    0.0000 C   0  0  0  0  0  0  0  0  0  0  0  0
   -5.6689   -2.8902    0.0000 O   0  0  0  0  0  0  0  0  0  0  0  0
    2.1289   -2.8902    0.0000 O   0  0  0  0  0  0  0  0  0  0  0  0
    0.8325    3.8600    0.0000 O   0  0  0  0  0  0  0  0  0  0  0  0
    8.4152    4.4421    0.0000 O   0  0  0  0  0  0  0  0  0  0  0  0
    7.8751    6.9834    0.0000 O   0  0  0  0  0  0  0  0  0  0  0  0
  7  6  1  0
  8  5  1  0
 10  9  1  0
 14  1  1  6
 14  5  1  0
 15 11  1  6
 15 12  1  0
 16  9  1  0
 16 11  1  0
 17  6  1  1
 17 14  1  0
 18  7  1  1
 19 13  1  1
 20 12  1  0
 21 13  1  0
 22  8  1  0
 23 18  1  0
 23 19  1  0
 23 20  1  6
 24  2  1  1
 24 10  1  0
 24 15  1  0
 24 19  1  0
 25  3  1  1
 25 17  1  0
 25 18  1  0
 25 21  1  0
 16 26  1  6
 20 27  1  1
 21 28  1  6
 29 22  2  0
 30  4  1  0
 30 22  1  0
M  END
>  <NAME>  (23) 
3alpha,7beta,12alpha-Trihydroxy-5beta-cholan-24-oic acid Methyl ester

>  <SYNONYMS>  (23) 
Ursocholic Acid Methyl ester
7-Epicholic Acid Methyl ester

>  <SPECTRUM TYPE>  (23) 
MS1

>  <INSTRUMENT TYPE>  (23) 
EI-B

>  <INSTRUMENT>  (23) 
JEOL GCmate

>  <ION MODE>  (23) 
P

>  <INCHIKEY>  (23) 
DLYVTEULDNMQAR-GVFWELEYSA-N

>  <FORMULA>  (23) 
C25H42O5

>  <EXACT MASS>  (23) 
422.30322444399997

>  <MW>  (23) 
422

>  <ID>  (23) 
NU000048

>  <CONTRIBUTOR>  (23) 
Takashi Iida, {Department of Chemistry, College of Humanities and Sciences, Nihon University

>  <COMMENT>  (23) 
compound class=Natural Product; BILE ACID
SMILES=C(C3(C)4)([H])(CC(O)CC4)CC(C(C3([H])2)(C(C1(C)C(O)C2)([H])CCC1([H])C(C)CCC(=O)OC)[H])O
chemspider=8652762
lipidbank=BBA0088
pubchem cid=10477353
InChI=InChI=1S/C25H42O5/c1-14(5-8-22(29)30-4)17-6-7-18-23-19(13-21(28)25(17,18)3)24(2)10-9-16(26)11-15(24)12-20(23)27/h14-21,23,26-28H,5-13H2,1-4H3/t14-,15+,16-,17-,18+,19+,20+,21+,23+,24+,25-/m1/s1
computed SMILES=O=C(OC)CCC(C)C1CCC2C3C(O)CC4CC(O)CCC4(C)C3CC(O)C12C
accession=NU000048
date=2016.01.19 (Created 2008.10.06, modified 2011.05.06)
author=Takashi Iida, Department of Chemistry, College of Humanities and Sciences, Nihon University. Koichi Metori, Chemical Analytical Center, College of Pharmacy, Nihon Univercity.
license=CC BY-NC-SA
publication=Iida, T., Chang, F. C., Matsumoto, T., and Tamura, T. 1982. High Resolution Mass Spectra of Mono-, Di- and Trihydroxy Stereoisomers of Bile Acids. Biomed. Mass Spectrom. 9: 473-476. doi:10.1002/bms.1200091104
comment=Mass spectral data were collected from the publications cited in LipidBank
comment=[Analytical] Sample was directly injected
exact mass=422.30322
ionization potential=70 eV
source temperature=200 C
ion type=[M]+*
computed spectral entropy=5.005568434410825
computed normalized entropy=0.8640698560014323
SPLASH=splash10-0zmr-4972000000-65b41beb61393f0ecd8b
submitter=submitter = Takashi Iida (Department of Chemistry, College of Humanities and Sciences, Nihon University)
MoNA Rating=3.75

>  <NUM PEAKS>  (23) 
328

>  <MASS SPECTRAL PEAKS>  (23) 
51.0 0.4
53.0 4.9
54.0 1.3
55.1 42.0
56.1 3.3
57.1 8.5
58.1 1.9
59.0 6.5
60.1 0.6
61.1 0.3
65.1 2.0
66.1 1.3
67.1 25.6
68.1 5.9
69.1 17.5
70.1 2.9
71.1 5.6
72.1 0.7
73.1 10.0
74.1 5.8
75.1 0.6
77.1 7.1
78.1 1.9
79.1 24.1
80.1 6.1
81.1 47.6
82.1 7.1
83.1 19.3
84.1 6.3
85.1 5.8
86.1 0.8
87.1 3.1
88.1 0.9
89.1 0.4
91.1 20.6
92.1 5.0
93.1 40.7
94.1 16.7
95.1 43.0
96.1 6.6
97.1 9.2
98.1 2.4
99.1 5.2
100.1 1.0
101.1 1.5
102.1 0.4
103.0 1.5
104.1 1.4
105.1 30.9
106.1 9.9
107.1 35.6
108.1 10.8
109.1 37.7
110.1 7.6
111.1 7.7
112.1 2.3
113.1 2.1
114.1 1.0
115.1 15.1
116.1 3.2
117.1 7.2
118.1 7.7
119.1 24.8
119.6 0.4
120.1 8.9
121.1 28.8
121.6 0.3
122.1 10.3
123.1 13.3
124.1 4.0
125.1 4.2
126.1 1.7
126.6 0.5
127.1 1.7
128.1 2.1
129.1 5.1
130.1 2.9
131.1 17.2
132.1 6.4
133.1 25.2
133.6 0.4
134.1 9.3
135.1 18.1
135.6 0.3
136.1 5.4
137.1 7.3
138.1 2.6
139.1 3.2
140.1 1.5
141.1 7.2
142.1 2.8
143.1 16.3
144.1 8.8
145.1 31.1
146.1 8.2
147.1 25.6
147.6 0.4
148.1 6.4
149.1 12.3
150.1 3.6
150.6 0.3
151.1 4.3
151.6 0.4
152.1 1.5
153.1 1.8
154.1 44.6
155.1 11.7
156.1 3.9
157.1 18.3
158.1 7.3
159.1 23.8
160.1 6.6
161.1 15.6
162.1 4.5
163.1 12.2
164.1 4.0
165.1 4.2
166.1 1.1
167.1 2.1
168.1 2.2
169.1 5.4
170.1 2.3
171.1 13.8
172.1 4.8
173.1 11.5
174.1 3.8
175.1 12.5
176.1 4.0
177.1 8.2
178.1 2.5
179.1 2.8
180.1 1.7
181.1 5.5
182.1 1.4
183.1 5.5
184.1 2.3
185.1 10.2
186.1 3.7
187.1 10.2
188.1 3.2
189.1 6.7
190.1 2.2
191.1 3.1
192.1 1.3
193.1 2.4
194.1 4.2
195.1 9.0
196.1 3.1
197.1 8.7
198.1 3.2
199.1 14.0
200.1 4.3
201.1 11.1
202.2 3.0
203.2 4.3
204.1 1.6
205.1 6.1
206.1 2.6
207.1 6.6
208.1 20.4
209.1 7.9
210.1 1.8
211.1 12.6
212.1 4.7
213.1 11.7
214.2 8.0
215.1 9.1
216.1 3.4
217.2 5.0
218.2 2.4
219.1 2.6
220.1 1.5
221.1 3.3
222.1 1.1
223.1 1.8
224.2 1.1
225.1 5.6
226.2 6.6
227.2 12.0
228.2 4.0
229.1 9.3
230.2 3.5
231.2 4.6
232.2 12.5
233.2 4.2
234.2 1.5
235.1 1.4
236.2 0.6
237.1 1.8
238.2 1.1
239.2 4.1
240.2 3.8
241.2 3.4
242.1 1.3
243.2 4.6
244.2 4.1
245.2 4.6
246.2 2.0
247.2 4.5
248.2 2.6
249.2 5.4
250.2 1.6
251.2 2.9
252.2 2.7
253.2 95.6
254.2 27.0
255.2 5.1
256.2 1.2
257.2 2.2
258.2 2.4
259.2 2.3
260.2 2.5
261.2 4.8
262.2 2.6
263.2 2.1
264.2 1.1
265.2 4.2
266.2 1.9
267.2 1.4
268.2 0.6
269.2 9.4
270.2 4.7
271.1 100.0
272.2 31.4
273.2 5.6
274.2 2.4
275.2 1.7
276.1 1.2
277.2 1.7
278.2 1.0
279.2 1.6
280.2 0.7
281.2 6.6
282.2 2.5
283.2 1.3
284.2 0.5
285.2 1.4
286.2 1.5
287.2 7.5
288.2 13.4
289.1 96.6
290.2 29.5
291.2 4.3
292.2 3.2
293.2 2.0
294.2 1.1
295.2 4.2
296.2 1.1
297.2 1.3
298.2 0.6
299.2 4.0
300.2 2.3
301.2 1.3
302.2 0.8
303.2 1.3
304.2 0.5
305.2 0.4
307.2 0.7
308.2 0.5
309.2 0.5
310.2 0.4
311.2 1.4
312.2 1.5
313.2 4.4
314.2 5.7
315.2 2.1
316.2 1.2
317.2 1.4
318.2 0.6
319.2 0.6
321.2 2.3
322.2 0.7
323.2 0.4
325.2 1.4
326.2 1.2
327.2 2.3
328.2 1.1
329.2 1.1
330.2 1.0
331.3 1.7
332.2 1.0
333.2 0.4
335.2 0.7
336.2 0.7
337.2 1.6
338.2 0.5
339.2 1.7
340.2 0.7
341.2 0.7
342.2 0.7
343.2 1.4
344.2 0.8
345.3 0.7
346.2 0.3
351.2 0.4
352.2 0.3
353.2 7.6
354.2 3.2
355.2 16.5
356.2 4.8
357.2 8.2
358.2 2.6
359.3 0.7
360.2 0.7
366.2 0.3
367.2 0.9
368.2 20.3
369.2 6.5
370.2 1.6
371.2 5.2
372.2 2.1
373.2 2.8
374.2 0.9
375.3 0.6
384.3 1.7
385.3 1.1
386.3 41.7
387.3 12.2
388.3 2.2
389.3 1.4
390.3 0.4
402.2 0.8
403.3 0.4
404.3 4.8
405.3 1.5
406.2 0.3
420.3 0.6
422.3 0.4

$$$$

     RDKit          2D

 30 33  0  0  1  0  0  0  0  0999 V2000
    3.0099    4.6213    0.0000 C   0  0  0  0  0  0  0  0  0  0  0  0
   -1.7700    0.8600    0.0000 C   0  0  0  0  0  0  0  0  0  0  0  0
    2.2765    3.1018    0.0000 C   0  0  0  0  0  0  0  0  0  0  0  0
    9.3424    7.2952    0.0000 C   0  0  0  0  0  0  0  0  0  0  0  0
    5.4808    3.8184    0.0000 C   0  0  0  0  0  0  0  0  0  0  0  0
    4.4300    0.8600    0.0000 C   0  0  0  0  0  0  0  0  0  0  0  0
    3.5500   -0.3500    0.0000 C   0  0  0  0  0  0  0  0  0  0  0  0
    5.9443    5.2450    0.0000 C   0  0  0  0  0  0  0  0  0  0  0  0
   -4.3700   -0.6400    0.0000 C   0  0  0  0  0  0  0  0  0  0  0  0
   -3.0700    0.1100    0.0000 C   0  0  0  0  0  0  0  0  0  0  0  0
   -3.0700   -2.8900    0.0000 C   0  0  0  0  0  0  0  0  0  0  0  0
   -0.4700   -2.8900    0.0000 C   0  0  0  0  0  0  0  0  0  0  0  0
   -0.4700    1.6100    0.0000 C   0  0  0  0  0  0  0  0  0  0  0  0
    4.0136    3.5066    0.0000 C   0  0  0  0  0  0  0  0  0  0  0  0
   -1.7700   -2.1400    0.0000 C   0  0  0  0  0  0  0  0  0  0  0  0
   -4.3700   -2.1400    0.0000 C   0  0  0  0  0  0  0  0  0  0  0  0
    3.5500    2.0800    0.0000 C   0  0  0  0  0  0  0  0  0  0  0  0
    2.1200    0.1100    0.0000 C   0  0  0  0  0  0  0  0  0  0  0  0
   -0.4700    0.1100    0.0000 C   0  0  0  0  0  0  0  0  0  0  0  0
    0.8300   -2.1400    0.0000 C   0  0  0  0  0  0  0  0  0  0  0  0
    0.8300    2.3600    0.0000 C   0  0  0  0  0  0  0  0  0  0  0  0
    7.4116    5.5568    0.0000 C   0  0  0  0  0  0  0  0  0  0  0  0
    0.8300   -0.6400    0.0000 C   0  0  0  0  0  0  0  0  0  0  0  0
   -1.7700   -0.6400    0.0000 C   0  0  0  0  0  0  0  0  0  0  0  0
    2.1200    1.6100    0.0000 C   0  0  0  0  0  0  0  0  0  0  0  0
   -5.6689   -2.8902    0.0000 O   0  0  0  0  0  0  0  0  0  0  0  0
    2.1289   -2.8902    0.0000 O   0  0  0  0  0  0  0  0  0  0  0  0
    0.8325    3.8600    0.0000 O   0  0  0  0  0  0  0  0  0  0  0  0
    8.4152    4.4421    0.0000 O   0  0  0  0  0  0  0  0  0  0  0  0
    7.8751    6.9834    0.0000 O   0  0  0  0  0  0  0  0  0  0  0  0
  7  6  1  0
  8  5  1  0
 10  9  1  0
 14  1  1  6
 14  5  1  0
 15 11  1  6
 15 12  1  0
 16  9  1  0
 16 11  1  0
 17  6  1  1
 17 14  1  0
 18  7  1  1
 19 13  1  1
 20 12  1  0
 21 13  1  0
 22  8  1  0
 23 18  1  0
 23 19  1  0
 23 20  1  6
 24  2  1  1
 24 10  1  0
 24 15  1  0
 24 19  1  0
 25  3  1  1
 25 17  1  0
 25 18  1  0
 25 21  1  0
 16 26  1  6
 20 27  1  6
 21 28  1  1
 29 22  2  0
 30  4  1  0
 30 22  1  0
M  END
>  <NAME>  (24) 
Lagocholic Acid Methyl ester

>  <SYNONYMS>  (24) 
3alpha,7alpha,12beta-Trihydroxy-5beta-cholan-24-oic acid Methyl ester

>  <SPECTRUM TYPE>  (24) 
MS1

>  <INSTRUMENT TYPE>  (24) 
EI-B

>  <INSTRUMENT>  (24) 
JEOL GCmate

>  <ION MODE>  (24) 
P

>  <INCHIKEY>  (24) 
DLYVTEULDNMQAR-IORFIOCPSA-N

>  <FORMULA>  (24) 
C25H42O5

>  <EXACT MASS>  (24) 
422.30322444399997

>  <MW>  (24) 
422

>  <ID>  (24) 
NU000047

>  <CONTRIBUTOR>  (24) 
Takashi Iida, {Department of Chemistry, College of Humanities and Sciences, Nihon University

>  <COMMENT>  (24) 
compound class=Natural Product; BILE ACID
SMILES=C(C3(C)4)([H])(CC(O)CC4)CC(C(C3([H])2)(C(C1(C)C(O)C2)([H])CCC1([H])C(C)CCC(=O)OC)[H])O
chemspider=10295398
lipidbank=BBA0085
InChI=InChI=1S/C25H42O5/c1-14(5-8-22(29)30-4)17-6-7-18-23-19(13-21(28)25(17,18)3)24(2)10-9-16(26)11-15(24)12-20(23)27/h14-21,23,26-28H,5-13H2,1-4H3/t14-,15+,16-,17-,18+,19+,20-,21-,23+,24+,25-/m1/s1
computed SMILES=O=C(OC)CCC(C)C1CCC2C3C(O)CC4CC(O)CCC4(C)C3CC(O)C12C
accession=NU000047
date=2016.01.19 (Created 2008.10.06, modified 2011.05.06)
author=Takashi Iida, Department of Chemistry, College of Humanities and Sciences, Nihon University. Koichi Metori, Chemical Analytical Center, College of Pharmacy, Nihon Univercity.
license=CC BY-NC-SA
publication=Iida, T., Chang, F. C., Matsumoto, T., and Tamura, T. 1982. High Resolution Mass Spectra of Mono-, Di- and Trihydroxy Stereoisomers of Bile Acids. Biomed. Mass Spectrom. 9: 473-476. doi:10.1002/bms.1200091104
comment=Mass spectral data were collected from the publications cited in LipidBank
comment=[Analytical] Sample was directly injected
exact mass=422.30322
ionization potential=70 eV
source temperature=200 C
ion type=[M]+*
computed spectral entropy=5.040766876731959
computed normalized entropy=0.8753000267511378
SPLASH=splash10-05fr-5983000000-7a7257fa76a2aea9f7b8
submitter=submitter = Takashi Iida (Department of Chemistry, College of Humanities and Sciences, Nihon University)
MoNA Rating=3.75

>  <NUM PEAKS>  (24) 
317

>  <MASS SPECTRAL PEAKS>  (24) 
51.0 0.4
53.0 3.7
54.0 1.1
55.1 31.3
56.1 2.6
57.1 6.7
58.1 2.1
59.0 5.0
60.1 0.6
61.1 0.4
65.1 1.6
66.1 0.9
67.1 18.3
68.1 3.8
69.1 12.6
70.1 2.1
71.1 4.2
72.1 0.6
73.1 7.3
74.1 4.0
75.1 0.4
77.1 5.4
78.1 1.4
79.1 17.0
80.1 4.2
81.1 30.4
82.1 4.6
83.1 13.5
84.1 4.1
85.1 4.2
86.1 0.6
87.1 2.0
88.1 0.6
89.0 0.3
91.0 15.1
92.1 3.5
93.1 25.0
94.1 11.4
95.1 26.9
96.1 4.3
97.1 6.7
98.1 1.8
99.1 3.6
100.1 0.8
101.1 1.2
102.0 0.4
103.0 1.2
104.1 1.1
105.1 21.4
106.1 6.2
107.1 24.3
108.1 8.6
109.1 20.0
110.1 4.5
111.1 5.3
112.1 1.7
113.1 1.5
114.1 0.7
115.1 9.0
116.1 2.4
117.1 5.5
118.1 3.8
119.1 15.7
120.1 5.7
121.1 20.4
122.1 6.7
123.1 8.9
124.1 3.0
125.1 3.5
126.1 1.4
126.6 0.4
127.1 1.2
128.1 1.7
129.1 4.0
130.1 2.1
131.1 11.1
132.1 4.2
133.1 13.7
133.6 0.3
134.1 5.1
135.1 11.1
136.1 4.1
137.1 5.2
138.1 1.7
139.1 2.4
140.1 0.8
141.1 4.2
142.1 1.9
143.1 8.3
144.1 4.1
145.1 17.6
146.1 5.5
147.1 15.8
147.6 0.3
148.1 4.7
149.1 6.1
150.1 2.2
151.1 2.6
152.1 1.0
153.1 1.9
154.1 10.6
155.1 5.3
156.1 2.1
157.1 10.5
158.1 4.4
159.1 16.1
160.1 5.0
161.1 8.9
162.1 3.1
163.1 6.1
164.1 2.9
165.1 2.6
166.1 0.7
167.1 1.2
168.1 7.4
169.1 4.7
170.1 1.8
171.1 8.3
172.1 3.7
173.1 9.0
174.1 3.1
175.1 5.9
176.1 2.1
177.1 3.0
178.1 1.4
179.1 1.5
180.1 0.6
181.1 1.6
182.1 0.8
183.1 3.7
184.1 1.6
185.1 6.8
186.1 2.6
187.1 6.8
188.1 2.1
189.1 3.9
190.1 1.9
191.1 2.0
192.1 0.7
193.1 1.6
194.1 2.5
195.1 6.9
196.1 1.8
197.1 5.2
198.1 2.4
199.1 9.4
200.1 3.9
201.1 12.1
202.1 3.1
203.1 3.1
204.1 1.1
205.1 1.5
206.1 0.7
207.1 2.3
208.1 3.1
209.1 2.8
210.1 0.8
211.1 7.5
212.1 2.7
213.1 7.5
214.1 4.9
215.1 9.4
216.1 3.9
217.1 4.3
218.1 2.3
219.1 2.6
220.1 0.8
221.1 1.3
222.1 0.7
223.1 1.3
224.1 0.6
225.1 3.8
226.1 6.3
227.2 11.2
228.2 4.5
229.2 14.5
230.2 4.0
231.1 3.9
232.2 5.2
233.1 3.0
234.1 1.2
235.1 1.1
236.2 0.5
237.1 1.3
238.2 0.8
239.1 2.7
240.2 1.6
241.2 2.1
242.1 1.1
243.2 3.1
244.2 4.8
245.2 8.3
246.2 3.5
247.1 4.9
248.1 1.7
249.2 1.8
250.2 1.1
251.2 2.1
252.2 1.6
253.2 57.8
254.2 14.5
255.2 4.6
256.2 1.2
257.2 2.1
258.2 2.2
259.2 1.7
260.2 1.5
261.1 3.2
262.2 1.6
263.2 2.6
264.2 1.7
265.2 2.6
266.2 1.1
267.2 0.9
268.2 0.6
269.2 8.9
270.2 4.7
271.1 100.0
272.2 37.4
273.2 6.4
274.2 1.9
275.2 1.3
276.2 1.1
277.2 1.1
278.2 0.7
279.2 1.1
280.1 0.5
281.2 5.5
282.2 1.7
283.2 1.1
284.2 0.5
285.2 1.1
286.1 0.7
287.2 1.3
288.2 1.5
289.2 18.1
290.2 4.6
291.2 1.0
292.2 0.9
293.2 0.9
294.2 0.5
295.2 2.1
296.2 0.6
297.2 1.2
298.2 0.6
299.2 4.4
300.2 1.8
301.2 1.0
302.2 0.7
303.2 1.4
304.2 0.6
305.2 0.4
307.2 0.8
308.2 0.4
309.2 0.4
310.2 0.6
311.2 1.2
312.2 1.0
313.2 4.2
314.2 3.2
315.2 1.5
316.2 0.7
317.2 0.6
318.2 0.3
319.2 0.3
321.2 1.2
322.1 0.4
323.2 0.4
325.2 1.5
326.2 1.3
327.2 1.8
328.2 0.8
329.2 0.7
330.2 0.5
331.2 2.1
332.2 1.9
333.2 0.6
335.2 0.4
336.2 0.4
337.2 0.7
339.2 2.2
340.2 0.8
341.2 1.0
342.2 0.9
343.2 1.9
344.2 1.0
345.2 0.7
353.2 5.2
354.2 2.6
355.2 9.2
356.2 2.7
357.2 23.0
358.2 7.0
359.3 1.7
360.2 1.0
361.2 0.3
367.2 0.6
368.2 10.8
369.2 3.7
370.3 1.4
371.2 6.7
372.2 2.3
373.2 5.5
374.3 1.6
375.3 1.9
376.2 0.6
384.3 2.0
385.3 1.1
386.3 34.6
387.3 10.0
388.3 2.1
389.2 1.5
390.2 0.4
402.2 0.7
404.2 5.9
405.2 1.7
406.2 0.4

$$$$

     RDKit          2D

 30 33  0  0  1  0  0  0  0  0999 V2000
    3.0099    4.6213    0.0000 C   0  0  0  0  0  0  0  0  0  0  0  0
   -1.7700    0.8600    0.0000 C   0  0  0  0  0  0  0  0  0  0  0  0
    2.2765    3.1018    0.0000 C   0  0  0  0  0  0  0  0  0  0  0  0
    9.3424    7.2952    0.0000 C   0  0  0  0  0  0  0  0  0  0  0  0
    5.4808    3.8184    0.0000 C   0  0  0  0  0  0  0  0  0  0  0  0
    4.4300    0.8600    0.0000 C   0  0  0  0  0  0  0  0  0  0  0  0
    3.5500   -0.3500    0.0000 C   0  0  0  0  0  0  0  0  0  0  0  0
    5.9443    5.2450    0.0000 C   0  0  0  0  0  0  0  0  0  0  0  0
   -4.3700   -0.6400    0.0000 C   0  0  0  0  0  0  0  0  0  0  0  0
   -3.0700    0.1100    0.0000 C   0  0  0  0  0  0  0  0  0  0  0  0
   -3.0700   -2.8900    0.0000 C   0  0  0  0  0  0  0  0  0  0  0  0
   -0.4700   -2.8900    0.0000 C   0  0  0  0  0  0  0  0  0  0  0  0
   -0.4700    1.6100    0.0000 C   0  0  0  0  0  0  0  0  0  0  0  0
    4.0136    3.5066    0.0000 C   0  0  0  0  0  0  0  0  0  0  0  0
   -1.7700   -2.1400    0.0000 C   0  0  0  0  0  0  0  0  0  0  0  0
   -4.3700   -2.1400    0.0000 C   0  0  0  0  0  0  0  0  0  0  0  0
    3.5500    2.0800    0.0000 C   0  0  0  0  0  0  0  0  0  0  0  0
    2.1200    0.1100    0.0000 C   0  0  0  0  0  0  0  0  0  0  0  0
   -0.4700    0.1100    0.0000 C   0  0  0  0  0  0  0  0  0  0  0  0
    0.8300   -2.1400    0.0000 C   0  0  0  0  0  0  0  0  0  0  0  0
    0.8300    2.3600    0.0000 C   0  0  0  0  0  0  0  0  0  0  0  0
    7.4116    5.5568    0.0000 C   0  0  0  0  0  0  0  0  0  0  0  0
    0.8300   -0.6400    0.0000 C   0  0  0  0  0  0  0  0  0  0  0  0
   -1.7700   -0.6400    0.0000 C   0  0  0  0  0  0  0  0  0  0  0  0
    2.1200    1.6100    0.0000 C   0  0  0  0  0  0  0  0  0  0  0  0
   -5.6689   -2.8902    0.0000 O   0  0  0  0  0  0  0  0  0  0  0  0
    2.1289   -2.8902    0.0000 O   0  0  0  0  0  0  0  0  0  0  0  0
    0.8325    3.8600    0.0000 O   0  0  0  0  0  0  0  0  0  0  0  0
    8.4152    4.4421    0.0000 O   0  0  0  0  0  0  0  0  0  0  0  0
    7.8751    6.9834    0.0000 O   0  0  0  0  0  0  0  0  0  0  0  0
  7  6  1  0
  8  5  1  0
 10  9  1  0
 14  1  1  6
 14  5  1  0
 15 11  1  6
 15 12  1  0
 16  9  1  0
 16 11  1  0
 17  6  1  1
 17 14  1  0
 18  7  1  1
 19 13  1  1
 20 12  1  0
 21 13  1  0
 22  8  1  0
 23 18  1  0
 23 19  1  0
 23 20  1  6
 24  2  1  1
 24 10  1  0
 24 15  1  0
 24 19  1  0
 25  3  1  1
 25 17  1  0
 25 18  1  0
 25 21  1  0
 16 26  1  6
 20 27  1  6
 21 28  1  6
 29 22  2  0
 30  4  1  0
 30 22  1  0
M  END
>  <NAME>  (25) 
3alpha,7alpha,12alpha-Trihydroxy-5beta-cholan-24-oic acid Methyl ester

>  <SYNONYMS>  (25) 
Cholic Acid Methyl ester

>  <SPECTRUM TYPE>  (25) 
MS1

>  <INSTRUMENT TYPE>  (25) 
EI-B

>  <INSTRUMENT>  (25) 
JEOL GCmate

>  <ION MODE>  (25) 
P

>  <INCHIKEY>  (25) 
DLYVTEULDNMQAR-SRNOMOOLSA-N

>  <FORMULA>  (25) 
C25H42O5

>  <EXACT MASS>  (25) 
422.30322444399997

>  <MW>  (25) 
422

>  <ID>  (25) 
NU000046

>  <CONTRIBUTOR>  (25) 
Takashi Iida, {Department of Chemistry, College of Humanities and Sciences, Nihon University

>  <COMMENT>  (25) 
compound class=Natural Product; BILE ACID
SMILES=C(C3(C)4)([H])(CC(O)CC4)CC(C(C3([H])2)(C(C1(C)C(O)C2)([H])CCC1([H])C(C)CCC(=O)OC)[H])O
chemspider=244513 9136051
lipidbank=BBA0084
pubchem cid=277782
InChI=InChI=1S/C25H42O5/c1-14(5-8-22(29)30-4)17-6-7-18-23-19(13-21(28)25(17,18)3)24(2)10-9-16(26)11-15(24)12-20(23)27/h14-21,23,26-28H,5-13H2,1-4H3/t14-,15+,16-,17-,18+,19+,20-,21+,23+,24+,25-/m1/s1
computed SMILES=O=C(OC)CCC(C)C1CCC2C3C(O)CC4CC(O)CCC4(C)C3CC(O)C12C
accession=NU000046
license=CC BY-NC-SA
date=2016.01.19 (Created 2008.10.06, modified 2011.05.06)
author=Takashi Iida, Department of Chemistry, College of Humanities and Sciences, Nihon University. Koichi Metori, Chemical Analytical Center, College of Pharmacy, Nihon Univercity.
publication=Iida, T., Chang, F. C., Matsumoto, T., and Tamura, T. 1982. High Resolution Mass Spectra of Mono-, Di- and Trihydroxy Stereoisomers of Bile Acids. Biomed. Mass Spectrom. 9: 473-476. doi:10.1002/bms.1200091104
comment=Mass spectral data were collected from the publications cited in LipidBank
comment=[Analytical] Sample was directly injected
exact mass=422.30322
ionization potential=70 eV
source temperature=200 C
ion type=[M]+*
computed spectral entropy=5.076089321936276
computed normalized entropy=0.8904726898150774
SPLASH=splash10-0q3a-4974000000-7d056b8becbb476ae1e6
submitter=submitter = Takashi Iida (Department of Chemistry, College of Humanities and Sciences, Nihon University)
MoNA Rating=3.75

>  <NUM PEAKS>  (25) 
299

>  <MASS SPECTRAL PEAKS>  (25) 
53.0 6.9
54.1 1.8
55.1 58.1
56.1 4.2
57.1 10.8
58.1 1.8
59.0 9.3
65.1 2.8
66.1 1.7
67.1 34.2
68.1 7.2
69.1 23.5
70.1 3.5
71.1 6.9
72.1 0.9
73.1 13.6
74.1 6.7
77.1 9.7
78.1 2.5
79.1 30.5
80.1 7.5
81.1 58.8
82.1 8.3
83.1 25.1
84.1 6.9
85.1 7.4
86.1 1.1
87.1 3.8
88.1 0.9
91.1 28.1
92.1 6.6
93.1 47.6
94.1 20.0
95.1 49.8
96.1 7.8
97.1 11.5
98.1 3.0
99.1 6.6
100.1 1.5
101.1 2.1
103.0 2.1
104.1 2.0
105.1 40.6
106.1 11.9
107.1 46.2
108.1 13.7
109.1 34.0
110.1 7.5
111.1 8.9
112.1 2.9
113.1 2.9
114.1 1.3
115.1 16.8
116.1 3.4
117.1 10.2
118.1 8.9
119.1 33.3
120.1 11.9
121.1 33.2
122.1 10.8
123.1 15.2
124.1 5.0
125.1 5.8
126.1 2.5
126.6 0.9
127.1 2.5
128.1 3.0
129.1 7.2
130.1 4.2
131.1 23.8
132.1 9.1
133.1 28.1
134.1 9.6
135.1 19.9
136.1 5.7
137.1 8.5
138.1 2.9
139.1 3.3
140.1 1.8
141.1 12.5
142.1 4.2
143.1 24.5
144.1 11.0
145.1 47.3
146.1 12.2
147.1 30.5
148.1 8.0
149.1 11.2
150.1 3.6
151.1 4.1
152.1 1.6
153.1 2.1
154.1 15.6
155.1 10.5
156.1 5.1
157.1 24.0
158.1 10.2
159.1 32.1
160.1 9.2
161.1 16.5
162.1 6.1
163.1 10.8
164.1 4.1
165.1 4.0
166.1 1.1
167.1 2.5
168.1 2.3
169.1 9.4
170.1 4.2
171.1 19.4
172.1 11.6
173.1 18.8
174.1 6.9
175.1 11.0
176.1 3.4
177.1 6.0
178.1 2.4
179.1 2.1
180.1 1.5
181.1 3.3
182.1 1.4
183.1 8.4
184.1 4.0
185.1 15.7
186.1 5.4
187.1 14.4
188.1 4.0
189.1 6.8
190.1 3.2
191.1 3.0
192.1 1.1
193.1 2.9
194.1 3.1
195.1 8.5
196.1 2.9
197.1 11.9
198.1 5.1
199.1 21.2
200.2 7.1
201.2 19.5
202.2 4.7
203.2 5.5
204.1 1.6
205.1 2.3
206.1 1.6
207.1 6.3
208.1 7.0
209.1 7.2
210.1 2.1
211.1 23.8
212.2 9.0
213.2 17.3
214.2 8.4
215.2 14.8
216.2 6.1
217.2 8.1
218.2 3.6
219.2 3.7
220.2 1.3
221.2 2.7
222.2 1.2
223.2 2.6
224.2 1.4
225.2 8.2
226.2 33.2
227.2 32.2
228.2 10.8
229.2 21.0
230.2 5.8
231.2 6.2
232.2 7.1
233.2 4.6
234.2 1.6
235.2 1.7
237.2 2.6
238.2 1.7
239.2 4.3
240.2 3.5
241.2 3.5
242.2 2.1
243.2 4.8
244.2 15.0
245.2 9.6
246.2 4.0
247.2 9.3
248.2 3.6
249.2 4.0
250.2 1.8
251.2 4.6
252.2 3.0
253.1 96.0
254.2 30.5
255.2 12.8
256.2 3.0
257.2 2.6
258.2 2.5
259.2 4.2
260.2 12.5
261.2 42.7
262.2 11.5
263.2 4.6
264.2 2.4
265.2 3.8
266.2 1.4
267.2 1.5
269.2 14.8
270.2 5.1
271.1 100.0
272.2 40.2
273.2 14.7
274.2 7.8
275.2 3.6
276.2 1.5
277.2 2.2
278.2 1.1
279.2 2.4
280.2 1.1
281.2 15.2
282.2 5.0
283.2 2.2
285.2 1.8
286.2 2.0
287.2 3.9
288.2 2.4
289.2 22.4
290.2 5.4
291.2 1.4
292.2 1.5
293.2 2.0
294.2 1.9
295.3 9.6
296.3 2.5
297.2 2.4
298.2 1.1
299.2 7.5
300.2 3.9
301.3 1.9
302.2 1.1
303.2 2.2
304.2 1.0
307.3 0.8
311.2 2.5
312.3 3.0
313.3 12.2
314.3 15.0
315.2 4.7
316.3 2.3
317.3 1.1
321.2 4.0
322.2 1.1
325.2 2.2
326.3 2.1
327.2 5.2
328.2 2.1
329.2 2.0
330.3 1.1
331.3 4.5
332.3 2.3
336.3 0.9
337.3 1.2
339.2 3.2
340.3 1.2
341.3 1.4
342.2 1.3
343.3 3.5
344.3 1.8
345.3 1.0
349.3 1.1
353.2 17.1
354.2 7.3
355.2 24.1
356.3 6.8
357.3 28.1
358.3 8.5
359.3 2.0
360.3 0.9
361.3 0.8
367.3 1.5
368.3 62.0
369.3 19.1
370.3 8.4
371.3 19.2
372.3 7.2
373.3 5.8
374.3 1.6
375.3 1.9
376.3 0.8
384.3 3.6
385.3 0.8
386.2 92.9
387.3 39.4
388.3 8.4
389.3 3.0
390.3 0.9
402.3 1.8
404.3 8.0
405.3 2.4
420.3 1.2
422.3 1.0

$$$$

     RDKit          2D

 29 32  0  0  1  0  0  0  0  0999 V2000
    3.1130    4.9420    0.0000 C   0  0  0  0  0  0  0  0  0  0  0  0
   -1.6800    1.1900    0.0000 C   0  0  0  0  0  0  0  0  0  0  0  0
    2.3787    3.4316    0.0000 C   0  0  0  0  0  0  0  0  0  0  0  0
    9.4486    7.6082    0.0000 C   0  0  0  0  0  0  0  0  0  0  0  0
   -4.2800   -1.8100    0.0000 C   0  0  0  0  0  0  0  0  0  0  0  0
   -4.2800   -0.3100    0.0000 C   0  0  0  0  0  0  0  0  0  0  0  0
   -2.9800   -2.5600    0.0000 C   0  0  0  0  0  0  0  0  0  0  0  0
    5.5829    4.1361    0.0000 C   0  0  0  0  0  0  0  0  0  0  0  0
    4.5300    1.1900    0.0000 C   0  0  0  0  0  0  0  0  0  0  0  0
    3.6500   -0.0200    0.0000 C   0  0  0  0  0  0  0  0  0  0  0  0
    6.0482    5.5621    0.0000 C   0  0  0  0  0  0  0  0  0  0  0  0
   -2.9800    0.4400    0.0000 C   0  0  0  0  0  0  0  0  0  0  0  0
   -0.3800   -2.5600    0.0000 C   0  0  0  0  0  0  0  0  0  0  0  0
   -0.3800    1.9400    0.0000 C   0  0  0  0  0  0  0  0  0  0  0  0
    4.1153    3.8260    0.0000 C   0  0  0  0  0  0  0  0  0  0  0  0
   -1.6800   -1.8100    0.0000 C   0  0  0  0  0  0  0  0  0  0  0  0
    3.6500    2.4000    0.0000 C   0  0  0  0  0  0  0  0  0  0  0  0
    2.2200    0.4400    0.0000 C   0  0  0  0  0  0  0  0  0  0  0  0
   -0.3800    0.4400    0.0000 C   0  0  0  0  0  0  0  0  0  0  0  0
    0.9200   -1.8100    0.0000 C   0  0  0  0  0  0  0  0  0  0  0  0
    0.9200    2.6900    0.0000 C   0  0  0  0  0  0  0  0  0  0  0  0
    7.5158    5.8722    0.0000 C   0  0  0  0  0  0  0  0  0  0  0  0
    0.9200   -0.3100    0.0000 C   0  0  0  0  0  0  0  0  0  0  0  0
   -1.6800   -0.3100    0.0000 C   0  0  0  0  0  0  0  0  0  0  0  0
    2.2200    1.9400    0.0000 C   0  0  0  0  0  0  0  0  0  0  0  0
    2.2189   -2.5602    0.0000 O   0  0  0  0  0  0  0  0  0  0  0  0
    0.9200    4.1900    0.0000 O   0  0  0  0  0  0  0  0  0  0  0  0
    8.5181    4.7562    0.0000 O   0  0  0  0  0  0  0  0  0  0  0  0
    7.9810    7.2982    0.0000 O   0  0  0  0  0  0  0  0  0  0  0  0
  6  5  1  0
  7  5  1  0
 10  9  1  0
 11  8  1  0
 12  6  1  0
 15  1  1  6
 15  8  1  0
 16  7  1  6
 16 13  1  0
 17  9  1  1
 17 15  1  0
 18 10  1  1
 19 14  1  1
 20 13  1  0
 21 14  1  0
 22 11  1  0
 23 18  1  0
 23 19  1  0
 23 20  1  6
 24  2  1  1
 24 12  1  0
 24 16  1  0
 24 19  1  0
 25  3  1  1
 25 17  1  0
 25 18  1  0
 25 21  1  0
 20 26  1  1
 21 27  1  1
 28 22  2  0
 29  4  1  0
 29 22  1  0
M  END
>  <NAME>  (26) 
7beta,12beta-Dihydroxy-5beta-cholan-24-oic acid Methyl ester

>  <SYNONYMS>  (26) 


>  <SPECTRUM TYPE>  (26) 
MS1

>  <INSTRUMENT TYPE>  (26) 
EI-B

>  <INSTRUMENT>  (26) 
JEOL GCmate

>  <ION MODE>  (26) 
P

>  <INCHIKEY>  (26) 
XPMSMFOWYBQWHS-KQLZVSNCSA-N

>  <FORMULA>  (26) 
C25H42O4

>  <EXACT MASS>  (26) 
406.308309824

>  <MW>  (26) 
406

>  <ID>  (26) 
NU000045

>  <CONTRIBUTOR>  (26) 
Takashi Iida, {Department of Chemistry, College of Humanities and Sciences, Nihon University

>  <COMMENT>  (26) 
compound class=Natural Product; BILE ACID
SMILES=C(C1(C)4)([H])(C(C)CCC(=O)OC)CCC1(C(C3([H])CC4O)([H])C(O)CC(C3(C)2)([H])CCCC2)[H]
chemspider=10295397
lipidbank=BBA0052
InChI=InChI=1S/C25H42O4/c1-15(8-11-22(28)29-4)17-9-10-18-23-19(14-21(27)25(17,18)3)24(2)12-6-5-7-16(24)13-20(23)26/h15-21,23,26-27H,5-14H2,1-4H3/t15-,16+,17-,18+,19+,20+,21-,23+,24+,25-/m1/s1
computed SMILES=O=C(OC)CCC(C)C1CCC2C3C(O)CC4CCCCC4(C)C3CC(O)C12C
accession=NU000045
date=2016.01.19 (Created 2008.09.25, modified 2011.05.06)
author=Takashi Iida, Department of Chemistry, College of Humanities and Sciences, Nihon University. Koichi Metori, Chemical Analytical Center, College of Pharmacy, Nihon Univercity.
license=CC BY-NC-SA
publication=Iida, T., Chang, F. C., Matsumoto, T., and Tamura, T. 1982. High Resolution Mass Spectra of Mono-, Di- and Trihydroxy Stereoisomers of Bile Acids. Biomed. Mass Spectrom. 9: 473-476. doi:10.1002/bms.1200091104
comment=Mass spectral data were collected from the publications cited in LipidBank
comment=[Analytical] Sample was directly injected
exact mass=406.30831
ionization potential=70 eV
source temperature=200 C
ion type=[M]+*
computed spectral entropy=4.866482142151462
computed normalized entropy=0.8275580042498989
SPLASH=splash10-0ab9-4972000000-88884e3882fe1ba10b63
submitter=submitter = Takashi Iida (Department of Chemistry, College of Humanities and Sciences, Nihon University)
MoNA Rating=3.75

>  <NUM PEAKS>  (26) 
358

>  <MASS SPECTRAL PEAKS>  (26) 
50.0 0.1
51.0 0.3
52.0 0.2
53.0 3.4
54.1 1.2
55.1 31.2
56.1 2.4
57.1 5.3
58.1 1.9
59.0 4.3
60.0 0.4
61.1 0.2
63.1 0.1
64.1 0.1
65.1 1.4
66.1 1.0
67.1 21.0
68.1 4.4
69.1 14.8
70.1 2.1
71.1 3.9
72.1 0.5
73.1 6.6
74.1 7.4
75.1 0.6
76.1 0.1
77.1 4.4
78.1 1.2
79.1 14.5
80.1 4.2
81.1 36.6
82.1 5.1
83.1 15.6
83.6 0.1
84.1 4.6
85.1 3.4
86.1 0.5
87.1 2.1
88.1 0.6
89.0 0.2
90.0 0.2
91.1 12.1
92.1 3.5
92.6 0.1
93.1 22.5
93.6 0.1
94.1 8.9
94.6 0.1
95.1 36.0
96.1 9.1
97.1 7.9
98.1 1.7
99.1 2.9
99.6 0.1
100.1 0.6
100.6 0.1
101.1 1.0
102.1 0.3
103.0 0.8
104.1 1.1
104.6 0.1
105.1 25.2
106.1 9.7
106.6 0.2
107.1 22.5
107.6 0.2
108.1 9.5
108.6 0.1
109.1 29.7
110.1 7.2
111.1 5.8
112.1 1.3
113.1 1.7
113.6 0.2
114.1 0.7
114.6 0.1
115.1 14.9
115.6 0.1
116.1 9.1
117.1 4.5
118.1 2.7
119.1 17.7
119.6 0.2
120.1 8.1
120.6 0.2
121.1 26.8
121.6 0.1
122.1 8.9
122.6 0.1
123.1 12.3
123.6 0.1
124.1 3.2
125.1 3.1
126.1 0.6
127.1 1.2
127.6 0.2
128.1 1.2
129.1 2.5
129.6 0.1
130.1 1.2
130.6 0.1
131.1 7.6
132.1 4.1
133.1 15.8
134.1 5.7
134.6 0.2
135.1 17.9
136.1 5.6
136.6 0.2
137.1 8.5
137.6 0.1
138.1 2.7
139.1 3.4
140.1 0.7
141.1 3.0
142.1 1.2
143.1 3.3
143.6 0.1
144.1 2.1
144.6 0.1
145.1 14.8
146.1 4.5
147.1 21.4
148.1 6.1
148.6 0.2
149.1 19.0
150.1 4.8
150.6 0.1
151.1 3.7
152.1 1.2
153.1 2.0
154.1 15.9
155.1 3.8
156.1 1.0
157.1 3.4
157.6 0.1
158.1 1.5
159.1 22.5
160.1 4.7
161.1 9.8
162.1 3.5
163.1 9.2
164.1 5.0
164.6 0.1
165.1 7.3
166.1 1.4
167.1 1.2
168.1 6.8
169.1 1.9
170.1 0.6
171.1 3.2
172.1 1.0
173.1 9.1
174.1 2.6
175.1 11.0
176.1 2.8
177.1 3.9
178.1 1.5
179.1 3.6
180.1 1.0
181.1 1.1
182.1 0.4
183.1 1.0
184.1 0.4
185.1 3.6
186.1 1.2
187.1 6.8
188.1 6.1
189.1 6.6
190.1 1.6
191.1 3.4
192.1 1.1
193.1 2.4
194.1 4.5
195.1 9.2
196.1 3.1
197.1 1.4
198.1 0.5
199.1 5.5
200.1 2.3
201.1 8.4
202.1 4.1
203.2 10.3
204.1 2.3
205.1 2.3
206.1 2.1
207.1 3.0
208.1 6.3
209.1 2.2
210.1 0.7
211.1 1.2
212.1 0.4
213.1 5.7
214.2 2.1
215.2 6.8
216.2 18.5
217.2 8.2
218.2 2.2
219.1 2.0
220.1 2.4
221.1 1.9
222.1 0.8
223.1 0.8
224.2 0.4
225.2 0.9
226.1 0.4
227.2 3.5
228.2 4.7
229.2 8.5
230.2 2.8
231.2 6.2
232.1 2.4
233.2 4.9
234.2 2.4
235.2 1.4
236.2 0.8
237.1 0.6
238.1 0.2
239.1 0.8
240.2 0.4
241.2 3.2
242.2 3.1
243.2 2.9
244.2 0.8
245.2 2.1
246.2 2.5
247.2 2.4
248.2 1.1
249.2 5.5
250.2 3.3
251.2 1.2
252.2 0.3
253.2 1.3
254.2 6.2
255.1 100.0
256.2 30.6
257.2 4.8
258.2 0.9
259.2 1.5
260.2 2.9
261.2 3.2
262.2 0.9
263.2 2.2
264.2 0.9
265.2 0.6
266.2 0.2
267.2 0.4
268.2 0.2
269.2 0.6
270.2 0.4
271.2 2.6
272.2 6.7
273.2 90.3
274.2 23.3
275.2 3.7
276.2 0.6
277.1 0.8
278.2 0.5
279.2 0.4
280.2 0.2
281.2 0.8
282.2 0.3
283.2 8.8
284.2 2.6
285.2 0.9
286.2 0.3
287.2 0.5
288.2 0.3
289.2 0.5
290.2 0.3
291.2 1.1
292.2 1.2
293.2 0.4
294.2 0.2
295.2 0.6
296.2 0.6
297.2 1.8
298.2 0.5
299.2 0.6
300.2 0.5
301.2 1.7
302.2 0.6
303.2 0.5
304.2 0.2
305.2 0.4
306.2 0.2
307.2 0.1
309.2 0.6
310.2 0.4
311.2 0.3
312.2 0.2
313.2 0.8
314.2 0.7
315.2 2.1
316.2 0.7
317.2 1.9
318.2 0.6
319.2 0.4
320.2 0.2
321.2 0.4
322.2 0.1
323.2 1.8
324.2 0.5
325.2 0.4
326.2 0.2
327.2 1.2
328.2 1.1
329.2 0.7
330.2 0.3
331.2 0.4
332.2 0.2
333.2 0.2
337.2 0.4
338.3 0.6
339.2 1.4
340.2 0.4
341.2 1.6
342.2 0.6
343.2 0.9
344.2 2.7
345.2 1.9
346.2 0.9
347.2 0.2
348.1 0.3
351.1 0.1
353.2 0.2
354.2 0.3
355.2 8.9
356.2 3.6
357.2 12.7
358.3 3.8
359.2 6.4
360.2 1.9
361.3 0.4
362.2 0.1
366.2 0.1
367.2 0.1
368.2 0.3
369.2 0.7
370.2 42.2
371.3 12.5
372.2 2.3
373.3 2.1
374.2 0.6
375.3 0.8
376.3 0.2
384.2 0.4
385.2 0.2
386.2 2.6
387.2 0.8
388.3 8.1
389.3 2.4
390.3 0.5
391.3 0.1
402.2 0.1
404.2 0.5
405.2 0.2
406.2 0.2

$$$$

     RDKit          2D

 29 32  0  0  1  0  0  0  0  0999 V2000
    3.1130    4.9420    0.0000 C   0  0  0  0  0  0  0  0  0  0  0  0
   -1.6800    1.1900    0.0000 C   0  0  0  0  0  0  0  0  0  0  0  0
    2.3787    3.4316    0.0000 C   0  0  0  0  0  0  0  0  0  0  0  0
    9.4486    7.6082    0.0000 C   0  0  0  0  0  0  0  0  0  0  0  0
   -4.2800   -1.8100    0.0000 C   0  0  0  0  0  0  0  0  0  0  0  0
   -4.2800   -0.3100    0.0000 C   0  0  0  0  0  0  0  0  0  0  0  0
   -2.9800   -2.5600    0.0000 C   0  0  0  0  0  0  0  0  0  0  0  0
    5.5829    4.1361    0.0000 C   0  0  0  0  0  0  0  0  0  0  0  0
    4.5300    1.1900    0.0000 C   0  0  0  0  0  0  0  0  0  0  0  0
    3.6500   -0.0200    0.0000 C   0  0  0  0  0  0  0  0  0  0  0  0
    6.0482    5.5621    0.0000 C   0  0  0  0  0  0  0  0  0  0  0  0
   -2.9800    0.4400    0.0000 C   0  0  0  0  0  0  0  0  0  0  0  0
   -0.3800   -2.5600    0.0000 C   0  0  0  0  0  0  0  0  0  0  0  0
   -0.3800    1.9400    0.0000 C   0  0  0  0  0  0  0  0  0  0  0  0
    4.1153    3.8260    0.0000 C   0  0  0  0  0  0  0  0  0  0  0  0
   -1.6800   -1.8100    0.0000 C   0  0  0  0  0  0  0  0  0  0  0  0
    3.6500    2.4000    0.0000 C   0  0  0  0  0  0  0  0  0  0  0  0
    2.2200    0.4400    0.0000 C   0  0  0  0  0  0  0  0  0  0  0  0
   -0.3800    0.4400    0.0000 C   0  0  0  0  0  0  0  0  0  0  0  0
    0.9200   -1.8100    0.0000 C   0  0  0  0  0  0  0  0  0  0  0  0
    0.9200    2.6900    0.0000 C   0  0  0  0  0  0  0  0  0  0  0  0
    7.5158    5.8722    0.0000 C   0  0  0  0  0  0  0  0  0  0  0  0
    0.9200   -0.3100    0.0000 C   0  0  0  0  0  0  0  0  0  0  0  0
   -1.6800   -0.3100    0.0000 C   0  0  0  0  0  0  0  0  0  0  0  0
    2.2200    1.9400    0.0000 C   0  0  0  0  0  0  0  0  0  0  0  0
    2.2189   -2.5602    0.0000 O   0  0  0  0  0  0  0  0  0  0  0  0
    0.9200    4.1900    0.0000 O   0  0  0  0  0  0  0  0  0  0  0  0
    8.5181    4.7562    0.0000 O   0  0  0  0  0  0  0  0  0  0  0  0
    7.9810    7.2982    0.0000 O   0  0  0  0  0  0  0  0  0  0  0  0
  6  5  1  0
  7  5  1  0
 10  9  1  0
 11  8  1  0
 12  6  1  0
 15  1  1  6
 15  8  1  0
 16  7  1  6
 16 13  1  0
 17  9  1  1
 17 15  1  0
 18 10  1  1
 19 14  1  1
 20 13  1  0
 21 14  1  0
 22 11  1  0
 23 18  1  0
 23 19  1  0
 23 20  1  6
 24  2  1  1
 24 12  1  0
 24 16  1  0
 24 19  1  0
 25  3  1  1
 25 17  1  0
 25 18  1  0
 25 21  1  0
 20 26  1  6
 21 27  1  1
 28 22  2  0
 29  4  1  0
 29 22  1  0
M  END
>  <NAME>  (27) 
7alpha,12beta-Dihydroxy-5beta-cholan-24-oic acid Methyl ester

>  <SYNONYMS>  (27) 


>  <SPECTRUM TYPE>  (27) 
MS1

>  <INSTRUMENT TYPE>  (27) 
EI-B

>  <INSTRUMENT>  (27) 
JEOL GCmate

>  <ION MODE>  (27) 
P

>  <INCHIKEY>  (27) 
XPMSMFOWYBQWHS-KKXJSBRXSA-N

>  <FORMULA>  (27) 
C25H42O4

>  <EXACT MASS>  (27) 
406.308309824

>  <MW>  (27) 
406

>  <ID>  (27) 
NU000044

>  <CONTRIBUTOR>  (27) 
Takashi Iida, {Department of Chemistry, College of Humanities and Sciences, Nihon University

>  <COMMENT>  (27) 
compound class=Natural Product; BILE ACID
SMILES=C(C1(C)4)([H])(C(C)CCC(=O)OC)CCC1(C(C3([H])CC4O)([H])C(O)CC(C3(C)2)([H])CCCC2)[H]
chemspider=10295396
lipidbank=BBA0050
InChI=InChI=1S/C25H42O4/c1-15(8-11-22(28)29-4)17-9-10-18-23-19(14-21(27)25(17,18)3)24(2)12-6-5-7-16(24)13-20(23)26/h15-21,23,26-27H,5-14H2,1-4H3/t15-,16+,17-,18+,19+,20-,21-,23+,24+,25-/m1/s1
computed SMILES=O=C(OC)CCC(C)C1CCC2C3C(O)CC4CCCCC4(C)C3CC(O)C12C
accession=NU000044
date=2016.01.19 (Created 2008.09.25, modified 2011.05.06)
author=Takashi Iida, Department of Chemistry, College of Humanities and Sciences, Nihon University. Koichi Metori, Chemical Analytical Center, College of Pharmacy, Nihon Univercity.
license=CC BY-NC-SA
publication=Iida, T., Chang, F. C., Matsumoto, T., and Tamura, T. 1982. High Resolution Mass Spectra of Mono-, Di- and Trihydroxy Stereoisomers of Bile Acids. Biomed. Mass Spectrom. 9: 473-476. doi:10.1002/bms.1200091104
comment=Mass spectral data were collected from the publications cited in LipidBank
comment=[Analytical] Sample was directly injected
exact mass=406.30831
ionization potential=70 eV
source temperature=200 C
ion type=[M]+*
computed spectral entropy=4.844462093055199
computed normalized entropy=0.8345132574857952
SPLASH=splash10-0a4i-5983000000-b2e95de7912f567158df
submitter=submitter = Takashi Iida (Department of Chemistry, College of Humanities and Sciences, Nihon University)
MoNA Rating=3.75

>  <NUM PEAKS>  (27) 
332

>  <MASS SPECTRAL PEAKS>  (27) 
51.0 0.2
52.0 0.1
53.0 2.4
54.1 0.9
55.1 22.4
56.1 1.8
57.1 3.5
58.1 1.7
59.0 3.2
60.1 0.4
61.1 0.1
65.1 1.1
66.1 0.7
67.1 15.3
68.1 2.8
69.1 10.5
70.1 1.5
71.1 2.7
72.1 0.4
73.1 4.6
74.1 2.8
75.1 0.3
77.1 3.3
78.1 0.9
79.1 10.5
80.1 2.9
81.1 24.6
82.1 3.3
83.1 10.4
84.1 3.2
85.1 2.4
86.1 0.4
87.1 1.5
88.1 0.4
89.1 0.2
90.0 0.1
91.1 8.9
92.1 2.3
92.6 0.1
93.1 14.6
94.1 5.6
95.1 24.2
96.1 6.1
97.1 5.5
98.1 1.2
99.1 2.2
99.6 0.1
100.1 0.5
101.1 0.8
102.1 0.3
103.0 0.6
104.1 0.7
105.1 12.7
106.1 4.4
106.6 0.3
107.1 15.5
107.6 0.1
108.1 7.1
108.6 0.1
109.1 23.7
110.1 4.8
111.1 4.2
112.1 0.9
113.1 1.3
113.6 0.2
114.1 0.5
114.6 0.1
115.1 6.0
116.1 1.7
117.1 3.2
118.1 3.1
119.1 11.0
119.6 0.1
120.1 5.2
120.6 0.2
121.1 22.3
122.1 6.4
123.1 8.4
124.1 2.6
125.1 2.5
126.1 0.5
127.1 1.0
127.6 0.2
128.1 1.0
129.1 1.9
130.1 1.1
130.6 0.1
131.1 6.1
132.1 3.6
133.1 10.2
134.1 3.7
134.6 0.2
135.1 11.4
136.1 4.8
136.6 0.1
137.1 5.0
138.1 1.9
139.1 2.9
140.1 0.6
141.1 2.9
142.1 0.9
143.1 2.7
144.1 1.6
145.1 11.9
146.1 3.5
147.1 13.7
148.1 3.8
148.6 0.1
149.1 8.0
150.1 2.8
150.6 0.2
151.1 2.2
152.1 0.8
153.1 1.4
154.1 8.1
155.1 2.6
156.1 0.7
157.1 2.9
158.1 1.2
159.1 12.3
160.1 3.0
161.1 6.5
162.1 2.0
163.1 5.2
164.1 1.8
165.1 3.1
166.1 0.7
167.1 0.7
168.1 5.3
169.1 1.6
170.1 0.5
171.1 3.3
171.6 0.2
172.1 1.0
173.1 5.4
174.1 1.4
175.1 4.7
176.1 1.4
177.1 2.7
178.1 1.2
179.1 1.5
180.1 0.4
181.1 0.7
182.1 0.3
183.1 0.8
184.1 0.4
185.1 2.7
186.1 0.9
187.1 4.6
188.1 1.4
189.2 3.3
190.2 1.0
191.1 1.9
192.2 0.7
193.1 1.7
194.2 1.7
195.1 4.3
196.1 1.0
197.1 1.0
198.1 0.4
199.1 3.6
200.2 1.2
201.2 4.8
202.2 2.7
203.2 9.2
204.2 2.0
205.2 1.9
206.1 0.6
207.1 1.6
208.1 1.9
209.2 1.2
210.1 0.4
211.1 1.1
212.2 0.4
213.2 5.1
214.2 1.9
215.2 5.8
216.2 5.4
217.2 6.4
218.2 2.1
219.2 1.7
220.2 0.8
221.1 0.8
222.2 0.5
223.2 0.6
224.1 0.3
225.2 0.8
226.1 0.3
227.2 2.5
228.2 5.1
229.2 9.0
230.2 3.6
231.2 11.3
232.2 3.1
233.2 2.9
234.2 2.3
235.2 1.2
236.2 0.5
237.2 0.6
238.2 0.2
239.2 0.7
240.2 0.3
241.2 2.0
242.2 2.0
243.2 1.8
244.2 0.6
245.2 1.5
246.2 2.3
247.2 2.6
248.2 1.0
249.2 6.7
250.2 2.6
251.2 1.2
252.2 0.3
253.2 1.2
254.2 3.1
255.2 100.0
256.2 37.8
257.2 5.3
258.2 0.8
259.2 1.2
260.2 2.4
261.2 4.0
262.2 1.0
263.2 3.2
264.2 1.1
265.2 0.6
266.2 0.2
267.2 0.3
268.2 0.2
269.2 0.4
270.2 0.3
271.2 2.6
272.2 2.0
273.2 31.3
274.2 8.3
275.2 1.6
276.2 0.4
277.2 0.8
278.2 0.7
279.2 0.5
280.2 0.2
281.2 0.6
282.2 0.3
283.2 6.0
284.2 1.7
285.2 0.7
286.2 0.3
287.2 0.4
288.2 0.2
289.2 0.3
290.2 0.2
291.2 0.8
292.2 1.2
293.2 0.4
294.2 0.1
295.2 0.5
296.2 0.4
297.2 1.8
298.3 0.5
299.2 0.5
300.2 0.4
301.3 0.8
302.2 0.3
303.2 0.4
304.2 0.1
305.2 0.3
306.2 0.1
309.3 0.4
310.2 0.5
311.3 0.3
312.3 0.1
313.3 0.8
314.2 0.7
315.3 3.2
316.3 0.9
317.2 0.8
318.2 0.3
319.2 0.2
320.2 0.1
321.2 0.2
323.2 1.2
324.2 0.3
325.2 0.2
327.3 0.9
328.3 1.0
329.3 0.6
330.3 0.2
331.3 0.3
332.2 0.1
333.3 0.3
337.2 0.3
338.3 0.4
339.3 0.7
340.3 0.2
341.3 1.9
342.3 0.6
343.3 0.9
344.3 1.4
345.3 1.3
346.3 0.4
351.2 0.1
353.2 0.1
354.3 0.2
355.3 8.0
356.2 3.4
357.3 10.1
358.3 2.9
359.3 16.5
360.3 4.6
361.3 0.9
362.3 0.2
366.3 0.1
368.3 0.3
369.3 0.6
370.3 31.4
371.3 9.1
372.3 1.7
373.3 2.5
374.3 0.8
375.3 0.3
376.3 0.1
384.2 0.2
386.3 1.2
387.3 0.4
388.3 8.7
389.3 2.5
390.3 0.4
391.3 0.2
404.2 0.2
405.2 0.1
406.3 0.3

$$$$

     RDKit          2D

 29 32  0  0  1  0  0  0  0  0999 V2000
    3.1130    4.9420    0.0000 C   0  0  0  0  0  0  0  0  0  0  0  0
   -1.6800    1.1900    0.0000 C   0  0  0  0  0  0  0  0  0  0  0  0
    2.3787    3.4316    0.0000 C   0  0  0  0  0  0  0  0  0  0  0  0
    9.4486    7.6082    0.0000 C   0  0  0  0  0  0  0  0  0  0  0  0
   -4.2800   -1.8100    0.0000 C   0  0  0  0  0  0  0  0  0  0  0  0
   -4.2800   -0.3100    0.0000 C   0  0  0  0  0  0  0  0  0  0  0  0
   -2.9800   -2.5600    0.0000 C   0  0  0  0  0  0  0  0  0  0  0  0
    5.5829    4.1361    0.0000 C   0  0  0  0  0  0  0  0  0  0  0  0
    4.5300    1.1900    0.0000 C   0  0  0  0  0  0  0  0  0  0  0  0
    3.6500   -0.0200    0.0000 C   0  0  0  0  0  0  0  0  0  0  0  0
    6.0482    5.5621    0.0000 C   0  0  0  0  0  0  0  0  0  0  0  0
   -2.9800    0.4400    0.0000 C   0  0  0  0  0  0  0  0  0  0  0  0
   -0.3800   -2.5600    0.0000 C   0  0  0  0  0  0  0  0  0  0  0  0
   -0.3800    1.9400    0.0000 C   0  0  0  0  0  0  0  0  0  0  0  0
    4.1153    3.8260    0.0000 C   0  0  0  0  0  0  0  0  0  0  0  0
   -1.6800   -1.8100    0.0000 C   0  0  0  0  0  0  0  0  0  0  0  0
    3.6500    2.4000    0.0000 C   0  0  0  0  0  0  0  0  0  0  0  0
    2.2200    0.4400    0.0000 C   0  0  0  0  0  0  0  0  0  0  0  0
   -0.3800    0.4400    0.0000 C   0  0  0  0  0  0  0  0  0  0  0  0
    0.9200   -1.8100    0.0000 C   0  0  0  0  0  0  0  0  0  0  0  0
    0.9200    2.6900    0.0000 C   0  0  0  0  0  0  0  0  0  0  0  0
    7.5158    5.8722    0.0000 C   0  0  0  0  0  0  0  0  0  0  0  0
    0.9200   -0.3100    0.0000 C   0  0  0  0  0  0  0  0  0  0  0  0
   -1.6800   -0.3100    0.0000 C   0  0  0  0  0  0  0  0  0  0  0  0
    2.2200    1.9400    0.0000 C   0  0  0  0  0  0  0  0  0  0  0  0
    2.2189   -2.5602    0.0000 O   0  0  0  0  0  0  0  0  0  0  0  0
    0.9200    4.1900    0.0000 O   0  0  0  0  0  0  0  0  0  0  0  0
    8.5181    4.7562    0.0000 O   0  0  0  0  0  0  0  0  0  0  0  0
    7.9810    7.2982    0.0000 O   0  0  0  0  0  0  0  0  0  0  0  0
  6  5  1  0
  7  5  1  0
 10  9  1  0
 11  8  1  0
 12  6  1  0
 15  1  1  6
 15  8  1  0
 16  7  1  6
 16 13  1  0
 17  9  1  1
 17 15  1  0
 18 10  1  1
 19 14  1  1
 20 13  1  0
 21 14  1  0
 22 11  1  0
 23 18  1  0
 23 19  1  0
 23 20  1  6
 24  2  1  1
 24 12  1  0
 24 16  1  0
 24 19  1  0
 25  3  1  1
 25 17  1  0
 25 18  1  0
 25 21  1  0
 20 26  1  1
 21 27  1  6
 28 22  2  0
 29  4  1  0
 29 22  1  0
M  END
>  <NAME>  (28) 
7beta,12alpha-Dihydroxy-5beta-cholan-24-oic acid Methyl ester

>  <SYNONYMS>  (28) 


>  <SPECTRUM TYPE>  (28) 
MS1

>  <INSTRUMENT TYPE>  (28) 
EI-B

>  <INSTRUMENT>  (28) 
JEOL GCmate

>  <ION MODE>  (28) 
P

>  <INCHIKEY>  (28) 
XPMSMFOWYBQWHS-UGBWVQFXSA-N

>  <FORMULA>  (28) 
C25H42O4

>  <EXACT MASS>  (28) 
406.308309824

>  <MW>  (28) 
406

>  <ID>  (28) 
NU000043

>  <CONTRIBUTOR>  (28) 
Takashi Iida, {Department of Chemistry, College of Humanities and Sciences, Nihon University

>  <COMMENT>  (28) 
compound class=Natural Product; BILE ACID
SMILES=C(C1(C)4)([H])(C(C)CCC(=O)OC)CCC1(C(C3([H])CC4O)([H])C(O)CC(C3(C)2)([H])CCCC2)[H]
chemspider=10295395
lipidbank=BBA0051
InChI=InChI=1S/C25H42O4/c1-15(8-11-22(28)29-4)17-9-10-18-23-19(14-21(27)25(17,18)3)24(2)12-6-5-7-16(24)13-20(23)26/h15-21,23,26-27H,5-14H2,1-4H3/t15-,16+,17-,18+,19+,20+,21+,23+,24+,25-/m1/s1
computed SMILES=O=C(OC)CCC(C)C1CCC2C3C(O)CC4CCCCC4(C)C3CC(O)C12C
accession=NU000043
date=2016.01.19 (Created 2008.09.25, modified 2011.05.06)
author=Takashi Iida, Department of Chemistry, College of Humanities and Sciences, Nihon University. Koichi Metori, Chemical Analytical Center, College of Pharmacy, Nihon Univercity.
license=CC BY-NC-SA
publication=Iida, T., Chang, F. C., Matsumoto, T., and Tamura, T. 1982. High Resolution Mass Spectra of Mono-, Di- and Trihydroxy Stereoisomers of Bile Acids. Biomed. Mass Spectrom. 9: 473-476. doi:10.1002/bms.1200091104
comment=Mass spectral data were collected from the publications cited in LipidBank
comment=[Analytical] Sample was directly injected
exact mass=406.30831
ionization potential=70 eV
source temperature=200 C
ion type=[M]+*
computed spectral entropy=4.792019049933871
computed normalized entropy=0.8184389728437903
SPLASH=splash10-0ab9-4971000000-ba08d78f9fe2216d3444
submitter=submitter = Takashi Iida (Department of Chemistry, College of Humanities and Sciences, Nihon University)
MoNA Rating=3.75

>  <NUM PEAKS>  (28) 
349

>  <MASS SPECTRAL PEAKS>  (28) 
50.0 0.1
51.0 0.3
52.0 0.2
53.0 3.1
54.1 1.1
55.1 29.5
56.1 2.3
57.1 4.8
58.1 1.6
59.0 4.1
60.1 0.4
61.1 0.1
63.1 0.1
64.1 0.1
65.1 1.3
66.1 0.9
67.1 19.2
68.1 3.9
69.1 13.6
70.1 1.9
71.1 3.5
72.1 0.4
73.1 5.8
74.1 3.9
75.1 0.4
76.1 0.1
77.1 4.0
78.1 1.1
79.1 13.3
80.1 3.7
81.1 33.7
82.1 4.6
83.1 13.7
84.1 4.3
85.1 3.2
86.1 0.4
87.1 1.9
88.1 0.6
89.1 0.2
90.1 0.2
91.1 11.1
92.1 2.9
92.6 0.1
93.1 20.1
93.6 0.1
94.1 7.0
95.1 32.0
96.1 7.2
97.1 6.9
98.1 1.5
99.1 2.7
99.6 0.1
100.1 0.6
101.1 0.8
102.1 0.3
103.0 0.8
104.1 0.9
105.1 18.6
105.6 0.1
106.1 9.1
106.6 0.2
107.1 20.6
107.6 0.2
108.1 6.9
108.6 0.1
109.1 28.7
110.1 6.4
111.1 5.5
112.1 1.1
113.1 1.7
113.6 0.2
114.1 0.6
114.6 0.1
115.1 8.8
115.6 0.1
116.1 2.3
117.1 4.0
118.1 3.1
119.1 14.8
119.6 0.1
120.1 6.0
120.6 0.2
121.1 21.2
121.6 0.2
122.1 7.0
122.6 0.1
123.1 10.1
123.6 0.1
124.1 2.9
124.6 0.1
125.1 2.7
126.1 0.5
127.1 1.2
127.6 0.2
128.1 1.1
128.6 0.1
129.1 2.2
129.6 0.1
130.1 1.3
130.6 0.1
131.1 8.1
131.6 0.1
132.1 4.7
132.6 0.1
133.1 14.7
134.1 5.5
134.6 0.2
135.1 15.5
136.1 4.3
136.6 0.2
137.1 5.0
137.6 0.1
138.1 2.3
139.1 2.6
140.1 0.7
140.6 0.1
141.1 3.7
141.6 0.1
142.1 1.2
143.1 3.3
143.6 0.1
144.1 2.1
145.1 22.7
146.1 6.0
147.1 19.6
148.1 5.1
148.6 0.2
149.1 14.3
150.1 3.4
150.6 0.1
151.1 2.6
152.1 0.9
153.1 1.2
154.1 24.3
155.1 5.0
156.1 1.2
157.1 3.3
157.6 0.1
158.1 1.5
159.1 22.3
160.1 4.5
161.1 8.7
162.1 2.8
163.1 8.1
164.1 2.8
164.6 0.1
165.1 5.5
166.1 1.0
167.1 1.2
168.1 0.9
169.1 1.2
170.1 0.5
171.1 3.2
172.1 1.1
173.1 9.2
174.1 2.2
175.1 6.7
176.1 2.3
177.1 4.0
178.1 1.9
178.6 0.2
179.1 2.8
180.1 1.1
181.1 1.9
182.1 0.4
183.1 0.9
184.1 0.4
185.1 3.5
186.1 1.2
187.1 5.8
188.1 2.2
189.2 10.8
190.2 2.7
191.1 2.9
192.1 1.1
193.1 1.9
194.1 1.9
195.1 4.0
196.1 1.6
197.1 1.4
198.1 0.5
199.1 4.8
200.1 1.6
201.2 5.2
202.2 2.8
203.2 7.1
204.2 1.6
205.1 1.6
206.1 1.1
207.1 4.4
208.1 15.5
209.1 3.5
210.1 0.7
211.1 1.8
212.1 0.7
213.1 5.8
214.2 2.0
215.2 7.0
216.2 14.1
217.2 6.3
218.2 1.5
219.2 1.5
220.1 1.3
221.1 1.9
222.2 0.6
223.2 0.7
224.2 0.3
225.2 0.8
226.1 0.4
227.2 3.9
228.2 4.3
229.2 7.0
230.2 2.2
231.2 4.1
232.2 1.9
233.2 5.5
234.2 2.3
235.2 1.2
236.2 1.0
237.2 0.5
238.1 0.2
239.2 0.9
240.2 0.4
241.2 4.0
242.2 3.8
243.2 1.9
244.2 0.5
245.2 1.4
246.2 1.9
247.2 2.4
248.2 1.0
249.2 4.2
250.2 1.8
251.2 0.7
252.2 0.2
253.2 1.3
254.2 2.9
255.1 100.0
256.2 33.7
257.2 4.7
258.2 0.8
259.2 1.1
260.2 2.2
261.2 5.2
262.2 1.3
263.2 1.4
264.2 0.6
265.2 0.5
266.2 0.1
267.2 0.3
268.2 0.2
269.2 0.5
270.2 0.3
271.2 2.5
272.2 6.5
273.2 77.1
274.2 20.9
275.2 3.3
276.2 0.6
277.2 0.8
278.2 0.4
279.2 0.3
280.2 0.1
281.2 0.7
282.2 0.3
283.2 4.7
284.2 2.1
285.2 0.7
286.2 0.3
287.2 0.4
288.2 0.2
289.2 0.3
290.2 0.2
291.2 0.4
292.2 0.8
293.2 0.3
294.2 0.1
295.2 0.5
296.2 0.6
297.2 2.5
298.2 0.7
299.2 0.5
300.2 0.5
301.2 1.3
302.2 0.5
303.2 0.3
304.2 0.1
305.2 0.4
306.2 0.1
309.2 0.3
310.2 0.3
311.2 0.2
312.2 0.2
313.2 0.8
314.2 0.7
315.3 1.5
316.3 0.5
317.2 1.0
318.2 0.3
319.2 0.2
320.2 0.1
321.2 0.3
322.2 0.1
323.2 1.5
324.2 0.4
325.2 0.2
326.2 0.1
327.2 0.8
328.2 0.6
329.2 0.4
330.2 0.2
331.3 0.3
332.2 0.2
333.2 0.1
337.3 0.3
338.2 0.6
339.2 1.1
340.2 0.3
341.3 1.0
342.2 0.4
343.3 0.5
344.2 0.7
345.2 0.8
346.3 0.3
353.2 0.1
354.2 0.1
355.2 7.5
356.2 2.8
357.2 9.7
358.2 2.9
359.2 3.3
360.2 1.0
361.3 0.2
368.3 0.3
369.3 0.6
370.2 31.0
371.3 9.1
372.3 1.7
373.3 1.5
374.3 0.5
375.2 0.1
384.2 0.2
386.3 0.7
387.3 0.3
388.3 2.9
389.3 0.9
390.3 0.2
404.2 0.2
406.3 0.2

$$$$

     RDKit          2D

 29 32  0  0  1  0  0  0  0  0999 V2000
    3.1130    4.9420    0.0000 C   0  0  0  0  0  0  0  0  0  0  0  0
   -1.6800    1.1900    0.0000 C   0  0  0  0  0  0  0  0  0  0  0  0
    2.3787    3.4316    0.0000 C   0  0  0  0  0  0  0  0  0  0  0  0
    9.4486    7.6082    0.0000 C   0  0  0  0  0  0  0  0  0  0  0  0
   -4.2800   -1.8100    0.0000 C   0  0  0  0  0  0  0  0  0  0  0  0
   -4.2800   -0.3100    0.0000 C   0  0  0  0  0  0  0  0  0  0  0  0
   -2.9800   -2.5600    0.0000 C   0  0  0  0  0  0  0  0  0  0  0  0
    5.5829    4.1361    0.0000 C   0  0  0  0  0  0  0  0  0  0  0  0
    4.5300    1.1900    0.0000 C   0  0  0  0  0  0  0  0  0  0  0  0
    3.6500   -0.0200    0.0000 C   0  0  0  0  0  0  0  0  0  0  0  0
    6.0482    5.5621    0.0000 C   0  0  0  0  0  0  0  0  0  0  0  0
   -2.9800    0.4400    0.0000 C   0  0  0  0  0  0  0  0  0  0  0  0
   -0.3800   -2.5600    0.0000 C   0  0  0  0  0  0  0  0  0  0  0  0
   -0.3800    1.9400    0.0000 C   0  0  0  0  0  0  0  0  0  0  0  0
    4.1153    3.8260    0.0000 C   0  0  0  0  0  0  0  0  0  0  0  0
   -1.6800   -1.8100    0.0000 C   0  0  0  0  0  0  0  0  0  0  0  0
    3.6500    2.4000    0.0000 C   0  0  0  0  0  0  0  0  0  0  0  0
    2.2200    0.4400    0.0000 C   0  0  0  0  0  0  0  0  0  0  0  0
   -0.3800    0.4400    0.0000 C   0  0  0  0  0  0  0  0  0  0  0  0
    0.9200   -1.8100    0.0000 C   0  0  0  0  0  0  0  0  0  0  0  0
    0.9200    2.6900    0.0000 C   0  0  0  0  0  0  0  0  0  0  0  0
    7.5158    5.8722    0.0000 C   0  0  0  0  0  0  0  0  0  0  0  0
    0.9200   -0.3100    0.0000 C   0  0  0  0  0  0  0  0  0  0  0  0
   -1.6800   -0.3100    0.0000 C   0  0  0  0  0  0  0  0  0  0  0  0
    2.2200    1.9400    0.0000 C   0  0  0  0  0  0  0  0  0  0  0  0
    2.2189   -2.5602    0.0000 O   0  0  0  0  0  0  0  0  0  0  0  0
    0.9200    4.1900    0.0000 O   0  0  0  0  0  0  0  0  0  0  0  0
    8.5181    4.7562    0.0000 O   0  0  0  0  0  0  0  0  0  0  0  0
    7.9810    7.2982    0.0000 O   0  0  0  0  0  0  0  0  0  0  0  0
  6  5  1  0
  7  5  1  0
 10  9  1  0
 11  8  1  0
 12  6  1  0
 15  1  1  6
 15  8  1  0
 16  7  1  6
 16 13  1  0
 17  9  1  1
 17 15  1  0
 18 10  1  1
 19 14  1  1
 20 13  1  0
 21 14  1  0
 22 11  1  0
 23 18  1  0
 23 19  1  0
 23 20  1  6
 24  2  1  1
 24 12  1  0
 24 16  1  0
 24 19  1  0
 25  3  1  1
 25 17  1  0
 25 18  1  0
 25 21  1  0
 20 26  1  6
 21 27  1  6
 28 22  2  0
 29  4  1  0
 29 22  1  0
M  END
>  <NAME>  (29) 
7alpha,12alpha-Dihydroxy-5beta-cholan-24-oic acid Methyl ester

>  <SYNONYMS>  (29) 


>  <SPECTRUM TYPE>  (29) 
MS1

>  <INSTRUMENT TYPE>  (29) 
EI-B

>  <INSTRUMENT>  (29) 
JEOL GCmate

>  <ION MODE>  (29) 
P

>  <INCHIKEY>  (29) 
XPMSMFOWYBQWHS-KGFCUSQPSA-N

>  <FORMULA>  (29) 
C25H42O4

>  <EXACT MASS>  (29) 
406.308309824

>  <MW>  (29) 
406

>  <ID>  (29) 
NU000042

>  <CONTRIBUTOR>  (29) 
Takashi Iida, {Department of Chemistry, College of Humanities and Sciences, Nihon University

>  <COMMENT>  (29) 
compound class=Natural Product; BILE ACID
SMILES=C(C1(C)4)([H])(C(C)CCC(=O)OC)CCC1(C(C3([H])CC4O)([H])C(O)CC(C3(C)2)([H])CCCC2)[H]
chemspider=10295394
lipidbank=BBA0049
InChI=InChI=1S/C25H42O4/c1-15(8-11-22(28)29-4)17-9-10-18-23-19(14-21(27)25(17,18)3)24(2)12-6-5-7-16(24)13-20(23)26/h15-21,23,26-27H,5-14H2,1-4H3/t15-,16+,17-,18+,19+,20-,21+,23+,24+,25-/m1/s1
computed SMILES=O=C(OC)CCC(C)C1CCC2C3C(O)CC4CCCCC4(C)C3CC(O)C12C
accession=NU000042
date=2016.01.19 (Created 2008.09.25, modified 2011.05.06)
author=Takashi Iida, Department of Chemistry, College of Humanities and Sciences, Nihon University. Koichi Metori, Chemical Analytical Center, College of Pharmacy, Nihon Univercity.
license=CC BY-NC-SA
publication=Iida, T., Chang, F. C., Matsumoto, T., and Tamura, T. 1982. High Resolution Mass Spectra of Mono-, Di- and Trihydroxy Stereoisomers of Bile Acids. Biomed. Mass Spectrom. 9: 473-476. doi:10.1002/bms.1200091104
comment=Mass spectral data were collected from the publications cited in LipidBank
comment=[Analytical] Sample was directly injected
exact mass=406.30831
ionization potential=70 eV
source temperature=200 C
ion type=[M]+*
computed spectral entropy=4.752792004844466
computed normalized entropy=0.8489520867939002
SPLASH=splash10-0ab9-5983000000-30ba07cbf9d9e7778edc
submitter=submitter = Takashi Iida (Department of Chemistry, College of Humanities and Sciences, Nihon University)
MoNA Rating=3.75

>  <NUM PEAKS>  (29) 
270

>  <MASS SPECTRAL PEAKS>  (29) 
53.0 2.7
54.1 1.0
55.1 25.1
56.1 1.9
57.1 3.8
58.1 1.9
59.0 3.5
60.1 0.4
65.1 1.2
66.1 0.7
67.1 16.7
68.1 3.0
69.1 11.5
70.1 1.6
71.1 2.8
72.1 0.4
73.1 5.0
74.1 2.7
77.1 3.6
78.1 1.0
79.1 11.5
80.1 3.0
81.1 26.6
82.1 3.5
83.1 11.5
84.1 3.3
85.1 2.7
86.1 0.4
87.1 1.6
88.1 0.4
91.1 10.1
92.1 2.4
93.1 15.9
94.1 5.4
95.1 25.9
96.1 5.6
97.1 5.9
98.1 1.3
99.1 2.6
100.1 0.6
101.1 0.8
103.1 0.7
104.1 0.8
105.1 14.6
106.1 5.2
107.1 16.3
108.1 6.5
109.1 23.5
110.1 4.6
111.1 4.2
112.1 0.9
113.1 1.5
114.1 0.6
115.1 6.2
116.1 1.3
117.1 3.9
118.1 5.1
119.1 13.9
120.1 5.9
121.1 18.0
122.1 5.6
123.1 7.9
124.1 2.4
125.1 2.3
126.1 0.5
127.1 1.1
128.1 1.1
129.1 2.4
130.1 1.4
131.1 7.5
132.1 5.1
133.1 11.6
134.1 3.9
135.1 10.6
136.1 3.5
137.1 3.9
138.1 1.6
139.1 2.4
140.1 0.5
141.1 4.9
142.1 1.3
143.1 3.6
144.1 2.2
145.1 24.4
146.1 5.5
147.1 14.2
148.1 3.7
149.1 7.8
150.1 2.2
151.1 1.9
152.1 0.7
153.1 1.0
154.1 7.7
155.1 3.0
156.1 1.1
157.1 3.8
158.1 1.5
159.1 13.3
160.1 3.0
161.1 7.1
162.1 2.2
163.1 5.5
164.1 1.6
165.1 2.6
166.1 0.6
167.1 0.9
168.1 0.9
169.1 1.6
170.1 0.7
171.1 4.0
172.1 1.5
173.1 8.9
174.1 2.7
175.1 4.7
176.1 1.3
177.1 2.9
178.1 1.7
179.1 1.3
180.1 0.7
181.1 0.8
182.1 0.3
183.1 1.2
184.1 0.5
185.1 4.0
186.1 1.3
187.1 6.9
188.1 1.8
189.1 3.0
190.1 0.9
191.1 1.7
192.1 0.6
193.1 1.5
194.1 0.9
195.1 2.5
196.1 0.7
197.2 1.5
198.1 0.7
199.1 4.6
200.1 1.6
201.1 5.7
202.2 2.5
203.2 7.5
204.2 1.6
205.1 1.8
206.1 0.7
207.1 3.6
208.1 2.1
209.1 1.5
210.1 0.5
211.1 3.5
212.1 1.0
213.1 8.2
214.2 2.6
215.2 6.3
216.2 5.5
217.2 5.7
218.2 1.5
219.2 1.4
220.2 0.8
221.1 1.1
222.2 0.4
223.1 0.6
224.1 0.3
225.2 1.0
226.2 0.6
227.2 3.0
228.2 16.0
229.2 11.5
230.2 3.5
231.2 8.2
232.2 2.2
233.2 2.4
234.2 1.4
235.2 1.1
236.2 0.6
237.2 0.6
239.2 1.2
240.2 0.7
241.2 1.8
242.2 1.7
243.2 1.2
244.2 0.5
245.2 1.6
246.2 1.6
247.2 2.7
248.2 1.3
249.2 4.9
250.2 1.5
251.2 0.9
252.2 0.3
253.2 1.8
254.2 2.1
255.2 100.0
256.2 29.1
257.2 4.7
258.2 0.8
259.2 1.2
260.2 9.8
261.2 32.1
262.2 6.6
263.2 3.1
264.2 1.0
265.2 0.5
267.2 0.4
269.2 0.5
271.2 3.4
272.2 1.4
273.2 14.7
274.2 7.3
275.2 1.9
276.2 0.5
277.2 1.0
278.2 0.5
279.2 0.5
281.2 0.8
282.2 0.4
283.2 6.4
284.2 2.4
285.2 0.8
287.2 0.5
289.2 0.3
291.2 0.4
292.2 1.2
293.2 0.4
295.2 0.6
296.2 1.1
297.3 3.2
298.2 0.8
299.2 0.6
300.2 0.5
301.2 0.6
305.2 0.5
309.3 0.3
310.2 0.4
313.3 1.1
314.2 1.0
315.3 3.6
316.2 1.0
317.2 0.6
323.2 1.9
324.3 0.5
327.2 1.0
328.3 0.8
329.2 0.5
337.2 0.3
338.3 0.5
339.3 0.6
341.3 1.2
342.2 0.4
343.3 0.6
344.2 0.5
345.3 0.7
355.2 16.7
356.2 5.4
357.2 9.1
358.3 2.6
359.3 10.3
360.3 2.9
361.3 0.5
368.3 0.6
370.2 72.3
371.3 22.2
372.3 4.0
373.2 2.1
374.3 0.6
386.3 1.0
387.3 0.4
388.3 4.0
389.3 1.2
406.3 0.5

$$$$

     RDKit          2D

 28 31  0  0  1  0  0  0  0  0999 V2000
    3.1130    4.9420    0.0000 C   0  0  0  0  0  0  0  0  0  0  0  0
   -1.6800    1.1900    0.0000 C   0  0  0  0  0  0  0  0  0  0  0  0
    2.3787    3.4316    0.0000 C   0  0  0  0  0  0  0  0  0  0  0  0
    9.4486    7.6082    0.0000 C   0  0  0  0  0  0  0  0  0  0  0  0
   -4.2800   -1.8100    0.0000 C   0  0  0  0  0  0  0  0  0  0  0  0
   -4.2800   -0.3100    0.0000 C   0  0  0  0  0  0  0  0  0  0  0  0
   -2.9800   -2.5600    0.0000 C   0  0  0  0  0  0  0  0  0  0  0  0
    5.5829    4.1361    0.0000 C   0  0  0  0  0  0  0  0  0  0  0  0
    4.5300    1.1900    0.0000 C   0  0  0  0  0  0  0  0  0  0  0  0
    3.6500   -0.0200    0.0000 C   0  0  0  0  0  0  0  0  0  0  0  0
    6.0482    5.5621    0.0000 C   0  0  0  0  0  0  0  0  0  0  0  0
   -0.3800    1.9400    0.0000 C   0  0  0  0  0  0  0  0  0  0  0  0
   -2.9800    0.4400    0.0000 C   0  0  0  0  0  0  0  0  0  0  0  0
    0.9200    2.6900    0.0000 C   0  0  0  0  0  0  0  0  0  0  0  0
   -0.3800   -2.5600    0.0000 C   0  0  0  0  0  0  0  0  0  0  0  0
    4.1153    3.8260    0.0000 C   0  0  0  0  0  0  0  0  0  0  0  0
   -1.6800   -1.8100    0.0000 C   0  0  0  0  0  0  0  0  0  0  0  0
    3.6500    2.4000    0.0000 C   0  0  0  0  0  0  0  0  0  0  0  0
    2.2200    0.4400    0.0000 C   0  0  0  0  0  0  0  0  0  0  0  0
   -0.3800    0.4400    0.0000 C   0  0  0  0  0  0  0  0  0  0  0  0
    0.9200   -1.8100    0.0000 C   0  0  0  0  0  0  0  0  0  0  0  0
    7.5158    5.8722    0.0000 C   0  0  0  0  0  0  0  0  0  0  0  0
    0.9200   -0.3100    0.0000 C   0  0  0  0  0  0  0  0  0  0  0  0
   -1.6800   -0.3100    0.0000 C   0  0  0  0  0  0  0  0  0  0  0  0
    2.2200    1.9400    0.0000 C   0  0  0  0  0  0  0  0  0  0  0  0
    2.2189   -2.5602    0.0000 O   0  0  0  0  0  0  0  0  0  0  0  0
    8.5181    4.7562    0.0000 O   0  0  0  0  0  0  0  0  0  0  0  0
    7.9810    7.2982    0.0000 O   0  0  0  0  0  0  0  0  0  0  0  0
  6  5  1  0
  7  5  1  0
 10  9  1  0
 11  8  1  0
 13  6  1  0
 14 12  1  0
 16  1  1  6
 16  8  1  0
 17  7  1  6
 17 15  1  0
 18  9  1  1
 18 16  1  0
 19 10  1  1
 20 12  1  1
 21 15  1  0
 22 11  1  0
 23 19  1  0
 23 20  1  0
 23 21  1  6
 24  2  1  1
 24 13  1  0
 24 17  1  0
 24 20  1  0
 25  3  1  1
 25 14  1  0
 25 18  1  0
 25 19  1  0
 21 26  1  1
 27 22  2  0
 28  4  1  0
 28 22  1  0
M  END
>  <NAME>  (30) 
7beta-Hydroxy-5beta-cholan-24-oic acid Methyl ester

>  <SYNONYMS>  (30) 


>  <SPECTRUM TYPE>  (30) 
MS1

>  <INSTRUMENT TYPE>  (30) 
EI-B

>  <INSTRUMENT>  (30) 
JEOL GCmate

>  <ION MODE>  (30) 
P

>  <INCHIKEY>  (30) 
SLMFZEZJHJUPDN-VKFOQVEHSA-N

>  <FORMULA>  (30) 
C25H42O3

>  <EXACT MASS>  (30) 
390.313395204

>  <MW>  (30) 
390

>  <ID>  (30) 
NU000041

>  <CONTRIBUTOR>  (30) 
Takashi Iida, {Department of Chemistry, College of Humanities and Sciences, Nihon University

>  <COMMENT>  (30) 
compound class=Natural Product; BILE ACID
SMILES=C(C1(C)4)([H])(C(C)CCC(=O)OC)CCC1(C(C3([H])CC4)([H])C(O)CC(C3(C)2)([H])CCCC2)[H]
chemspider=10295383
lipidbank=BBA0012
InChI=InChI=1S/C25H42O3/c1-16(8-11-22(27)28-4)18-9-10-19-23-20(12-14-25(18,19)3)24(2)13-6-5-7-17(24)15-21(23)26/h16-21,23,26H,5-15H2,1-4H3/t16-,17+,18-,19+,20+,21+,23+,24+,25-/m1/s1
computed SMILES=O=C(OC)CCC(C)C1CCC2C3C(O)CC4CCCCC4(C)C3CCC12C
accession=NU000041
date=2016.01.19 (Created 2008.09.25, modified 2011.05.06)
author=Takashi Iida, Department of Chemistry, College of Humanities and Sciences, Nihon University. Koichi Metori, Chemical Analytical Center, College of Pharmacy, Nihon Univercity.
license=CC BY-NC-SA
publication=Iida, T., Chang, F. C., Matsumoto, T., and Tamura, T. 1982. High Resolution Mass Spectra of Mono-, Di- and Trihydroxy Stereoisomers of Bile Acids. Biomed. Mass Spectrom. 9: 473-476. doi:10.1002/bms.1200091104
comment=Mass spectral data were collected from the publications cited in LipidBank
comment=[Analytical] Sample was directly injected
exact mass=390.3134
ionization potential=70 eV
source temperature=200 C
ion type=[M]+*
computed spectral entropy=4.660509128327068
computed normalized entropy=0.9171695054308708
SPLASH=splash10-0avj-5952000000-01f8237316d2426a31a7
submitter=submitter = Takashi Iida (Department of Chemistry, College of Humanities and Sciences, Nihon University)
MoNA Rating=3.75

>  <NUM PEAKS>  (30) 
161

>  <MASS SPECTRAL PEAKS>  (30) 
53.0 4.8
55.1 44.7
56.1 3.1
57.1 7.3
58.1 2.3
59.0 6.1
65.1 2.3
67.1 32.2
68.1 7.8
69.1 21.4
70.1 6.4
71.1 3.8
73.1 8.6
74.1 6.5
77.1 6.4
79.1 22.6
80.1 7.5
81.1 50.4
82.1 8.6
83.1 18.9
84.1 3.6
85.1 5.7
87.1 6.6
91.0 18.1
92.0 5.3
93.1 31.8
94.1 19.3
95.1 56.4
96.1 13.8
97.1 10.4
98.1 2.6
99.1 3.3
101.1 2.5
105.1 25.6
106.1 15.8
107.1 29.2
108.1 21.8
109.1 36.7
110.1 16.1
111.1 9.9
112.1 2.5
113.1 2.7
115.1 8.8
116.1 2.4
117.1 4.1
118.1 2.7
119.1 23.5
120.1 19.5
121.1 31.4
122.1 14.7
123.1 17.2
124.1 7.3
125.1 11.9
129.1 2.6
131.1 7.0
132.1 4.3
133.1 22.4
134.1 16.5
135.1 28.6
136.1 8.8
137.1 9.1
138.1 37.0
139.1 18.7
140.1 2.4
141.1 6.5
142.1 2.0
143.1 3.3
145.1 10.8
146.1 4.4
147.1 25.2
148.1 22.3
149.1 19.4
150.1 4.9
151.1 3.9
152.1 17.0
153.1 6.7
154.1 11.2
155.1 2.9
157.1 2.3
159.1 9.3
160.1 6.1
161.1 24.5
162.1 17.6
163.1 13.6
164.1 3.1
165.1 10.9
166.1 3.1
173.1 6.3
174.1 2.7
175.1 11.6
176.1 5.7
177.1 4.9
178.1 17.0
179.1 4.0
187.1 6.2
188.1 2.8
189.2 9.6
190.2 2.8
191.1 9.9
192.1 2.2
195.1 4.4
197.1 4.7
198.1 2.2
199.1 4.0
201.1 9.3
202.2 6.0
203.2 11.2
204.2 6.1
205.1 4.3
206.1 2.8
208.1 20.7
209.1 5.3
210.1 2.2
213.1 2.9
215.2 30.6
216.2 22.9
217.2 44.0
218.2 12.4
219.2 3.9
220.2 2.8
221.1 2.7
222.1 2.5
229.2 7.1
230.2 23.7
231.2 10.4
232.2 2.5
233.2 11.2
234.2 21.7
235.2 5.0
243.2 9.3
244.2 4.9
247.1 2.9
248.2 32.4
249.2 20.5
250.2 17.3
251.2 3.5
255.2 2.2
256.2 2.8
257.2 50.7
258.2 11.0
261.2 2.5
262.2 12.8
263.2 5.2
264.2 2.7
275.2 5.3
276.2 12.9
277.2 3.7
299.2 2.5
315.2 2.3
323.2 4.0
325.2 2.3
341.3 10.3
342.2 2.8
357.2 31.9
358.2 9.3
359.2 2.8
372.3 100.0
373.3 30.4
374.3 5.2
390.3 16.1
391.3 4.6

$$$$

     RDKit          2D

 28 31  0  0  1  0  0  0  0  0999 V2000
    3.1130    4.9420    0.0000 C   0  0  0  0  0  0  0  0  0  0  0  0
   -1.6800    1.1900    0.0000 C   0  0  0  0  0  0  0  0  0  0  0  0
    2.3787    3.4316    0.0000 C   0  0  0  0  0  0  0  0  0  0  0  0
    9.4486    7.6082    0.0000 C   0  0  0  0  0  0  0  0  0  0  0  0
   -4.2800   -1.8100    0.0000 C   0  0  0  0  0  0  0  0  0  0  0  0
   -4.2800   -0.3100    0.0000 C   0  0  0  0  0  0  0  0  0  0  0  0
   -2.9800   -2.5600    0.0000 C   0  0  0  0  0  0  0  0  0  0  0  0
    5.5829    4.1361    0.0000 C   0  0  0  0  0  0  0  0  0  0  0  0
    4.5300    1.1900    0.0000 C   0  0  0  0  0  0  0  0  0  0  0  0
    3.6500   -0.0200    0.0000 C   0  0  0  0  0  0  0  0  0  0  0  0
    6.0482    5.5621    0.0000 C   0  0  0  0  0  0  0  0  0  0  0  0
   -0.3800    1.9400    0.0000 C   0  0  0  0  0  0  0  0  0  0  0  0
   -2.9800    0.4400    0.0000 C   0  0  0  0  0  0  0  0  0  0  0  0
    0.9200    2.6900    0.0000 C   0  0  0  0  0  0  0  0  0  0  0  0
   -0.3800   -2.5600    0.0000 C   0  0  0  0  0  0  0  0  0  0  0  0
    4.1153    3.8260    0.0000 C   0  0  0  0  0  0  0  0  0  0  0  0
   -1.6800   -1.8100    0.0000 C   0  0  0  0  0  0  0  0  0  0  0  0
    3.6500    2.4000    0.0000 C   0  0  0  0  0  0  0  0  0  0  0  0
    2.2200    0.4400    0.0000 C   0  0  0  0  0  0  0  0  0  0  0  0
   -0.3800    0.4400    0.0000 C   0  0  0  0  0  0  0  0  0  0  0  0
    0.9200   -1.8100    0.0000 C   0  0  0  0  0  0  0  0  0  0  0  0
    7.5158    5.8722    0.0000 C   0  0  0  0  0  0  0  0  0  0  0  0
    0.9200   -0.3100    0.0000 C   0  0  0  0  0  0  0  0  0  0  0  0
   -1.6800   -0.3100    0.0000 C   0  0  0  0  0  0  0  0  0  0  0  0
    2.2200    1.9400    0.0000 C   0  0  0  0  0  0  0  0  0  0  0  0
    2.2189   -2.5602    0.0000 O   0  0  0  0  0  0  0  0  0  0  0  0
    8.5181    4.7562    0.0000 O   0  0  0  0  0  0  0  0  0  0  0  0
    7.9810    7.2982    0.0000 O   0  0  0  0  0  0  0  0  0  0  0  0
  6  5  1  0
  7  5  1  0
 10  9  1  0
 11  8  1  0
 13  6  1  0
 14 12  1  0
 16  1  1  6
 16  8  1  0
 17  7  1  6
 17 15  1  0
 18  9  1  1
 18 16  1  0
 19 10  1  1
 20 12  1  1
 21 15  1  0
 22 11  1  0
 23 19  1  0
 23 20  1  0
 23 21  1  6
 24  2  1  1
 24 13  1  0
 24 17  1  0
 24 20  1  0
 25  3  1  1
 25 14  1  0
 25 18  1  0
 25 19  1  0
 21 26  1  6
 27 22  2  0
 28  4  1  0
 28 22  1  0
M  END
>  <NAME>  (31) 
7alpha-Hydroxy-5beta-cholan-24-oic acid Methyl ester

>  <SYNONYMS>  (31) 


>  <SPECTRUM TYPE>  (31) 
MS1

>  <INSTRUMENT TYPE>  (31) 
EI-B

>  <INSTRUMENT>  (31) 
JEOL GCmate

>  <ION MODE>  (31) 
P

>  <INCHIKEY>  (31) 
SLMFZEZJHJUPDN-IGANSQQNSA-N

>  <FORMULA>  (31) 
C25H42O3

>  <EXACT MASS>  (31) 
390.31339520399996

>  <MW>  (31) 
390

>  <ID>  (31) 
NU000040

>  <CONTRIBUTOR>  (31) 
Takashi Iida, {Department of Chemistry, College of Humanities and Sciences, Nihon University

>  <COMMENT>  (31) 
compound class=Natural Product; BILE ACID
SMILES=C(C1(C)4)([H])(C(C)CCC(=O)OC)CCC1(C(C3([H])CC4)([H])C(O)CC(C3(C)2)([H])CCCC2)[H]
chemspider=10295382
lipidbank=BBA0011
InChI=InChI=1S/C25H42O3/c1-16(8-11-22(27)28-4)18-9-10-19-23-20(12-14-25(18,19)3)24(2)13-6-5-7-17(24)15-21(23)26/h16-21,23,26H,5-15H2,1-4H3/t16-,17+,18-,19+,20+,21-,23+,24+,25-/m1/s1
computed SMILES=O=C(OC)CCC(C)C1CCC2C3C(O)CC4CCCCC4(C)C3CCC12C
accession=NU000040
date=2016.01.19 (Created 2008.09.25, modified 2011.05.06)
author=Takashi Iida, Department of Chemistry, College of Humanities and Sciences, Nihon University. Koichi Metori, Chemical Analytical Center, College of Pharmacy, Nihon Univercity.
license=CC BY-NC-SA
publication=Iida, T., Chang, F. C., Matsumoto, T., and Tamura, T. 1982. High Resolution Mass Spectra of Mono-, Di- and Trihydroxy Stereoisomers of Bile Acids. Biomed. Mass Spectrom. 9: 473-476. doi:10.1002/bms.1200091104
comment=Mass spectral data were collected from the publications cited in LipidBank
comment=[Analytical] Sample was directly injected
exact mass=390.3134
ionization potential=70 eV
source temperature=200 C
ion type=[M]+*
computed spectral entropy=4.5769068228764365
computed normalized entropy=0.905198639281966
SPLASH=splash10-0aw9-4963000000-32f2116c22eed4596cfc
submitter=submitter = Takashi Iida (Department of Chemistry, College of Humanities and Sciences, Nihon University)
MoNA Rating=3.75

>  <NUM PEAKS>  (31) 
157

>  <MASS SPECTRAL PEAKS>  (31) 
53.0 4.8
55.1 43.1
56.1 2.9
57.1 5.3
58.1 2.5
59.0 5.5
65.1 2.1
67.1 33.7
68.1 8.0
69.1 20.3
70.1 4.7
71.1 2.8
73.1 7.7
74.1 4.5
77.1 6.7
79.1 23.2
80.1 6.4
81.1 49.7
82.1 8.1
83.1 17.9
84.1 2.8
85.1 6.6
87.1 5.8
91.1 18.2
92.1 5.0
93.1 31.8
94.1 15.4
95.1 56.5
96.1 11.4
97.1 10.3
98.1 2.2
99.1 3.0
101.1 2.7
105.1 25.2
106.1 12.9
107.1 30.0
108.1 36.1
109.1 47.5
110.1 11.5
111.1 7.6
115.1 7.8
117.1 4.4
118.1 2.8
119.1 25.7
120.1 35.1
121.1 43.9
122.1 29.1
123.1 19.9
124.1 5.7
125.1 9.9
129.1 2.5
131.1 8.0
132.1 4.6
133.1 26.6
134.1 23.2
135.1 32.9
136.1 10.5
137.1 8.0
138.1 16.0
139.1 8.4
141.1 6.0
143.1 3.9
145.1 12.1
146.1 5.3
147.1 28.0
148.1 19.1
149.1 23.6
150.1 10.7
151.1 14.8
152.1 11.1
153.1 3.6
154.1 5.8
155.1 2.2
157.1 2.5
158.1 2.1
159.1 11.0
160.1 7.4
161.1 23.3
162.1 13.6
163.1 13.0
164.1 3.9
165.1 6.4
166.1 2.3
173.1 7.6
174.1 3.7
175.1 13.5
176.1 4.7
177.1 5.1
178.1 7.8
179.1 2.4
187.1 6.8
188.1 2.9
189.2 8.3
190.2 2.6
191.1 6.5
199.1 3.5
201.1 10.2
202.2 5.9
203.2 11.2
204.2 4.3
205.1 2.7
208.1 4.5
209.1 2.2
213.2 3.1
215.2 50.4
216.2 16.2
217.2 65.8
218.2 25.5
219.2 7.3
220.2 2.2
221.2 2.0
229.2 6.2
230.2 57.6
231.2 20.3
232.2 12.9
233.2 15.1
234.2 6.2
235.2 2.4
243.2 4.1
244.2 2.5
247.2 2.7
248.2 35.4
249.2 17.2
250.2 13.4
251.2 3.1
255.2 2.9
256.2 3.1
257.2 79.1
258.2 17.2
259.2 2.9
261.2 2.3
262.2 10.1
263.2 4.3
264.2 5.4
275.2 3.6
276.2 8.5
277.2 2.5
278.2 2.5
294.2 3.5
313.3 3.3
315.2 2.9
317.3 3.2
325.2 4.0
328.3 14.7
329.3 4.7
341.3 12.0
342.3 3.5
357.2 28.1
358.2 8.3
359.3 15.9
360.3 4.3
372.3 100.0
373.3 29.2
374.3 28.8
375.3 7.8
390.3 9.5
391.3 2.7

$$$$

     RDKit          2D

 29 32  0  0  1  0  0  0  0  0999 V2000
    3.0730    4.7920    0.0000 C   0  0  0  0  0  0  0  0  0  0  0  0
   -1.7200    1.0400    0.0000 C   0  0  0  0  0  0  0  0  0  0  0  0
    2.3387    3.2816    0.0000 C   0  0  0  0  0  0  0  0  0  0  0  0
    9.4086    7.4582    0.0000 C   0  0  0  0  0  0  0  0  0  0  0  0
    5.5429    3.9861    0.0000 C   0  0  0  0  0  0  0  0  0  0  0  0
    4.4900    1.0400    0.0000 C   0  0  0  0  0  0  0  0  0  0  0  0
    3.6100   -0.1800    0.0000 C   0  0  0  0  0  0  0  0  0  0  0  0
    6.0082    5.4121    0.0000 C   0  0  0  0  0  0  0  0  0  0  0  0
   -4.3200   -0.4600    0.0000 C   0  0  0  0  0  0  0  0  0  0  0  0
   -0.4200    1.7900    0.0000 C   0  0  0  0  0  0  0  0  0  0  0  0
   -3.0200    0.2900    0.0000 C   0  0  0  0  0  0  0  0  0  0  0  0
    0.8800    2.5400    0.0000 C   0  0  0  0  0  0  0  0  0  0  0  0
   -3.0200   -2.7100    0.0000 C   0  0  0  0  0  0  0  0  0  0  0  0
   -0.4200   -2.7100    0.0000 C   0  0  0  0  0  0  0  0  0  0  0  0
    4.0753    3.6760    0.0000 C   0  0  0  0  0  0  0  0  0  0  0  0
   -1.7200   -1.9600    0.0000 C   0  0  0  0  0  0  0  0  0  0  0  0
   -4.3200   -1.9600    0.0000 C   0  0  0  0  0  0  0  0  0  0  0  0
    3.6100    2.2500    0.0000 C   0  0  0  0  0  0  0  0  0  0  0  0
    2.1800    0.2900    0.0000 C   0  0  0  0  0  0  0  0  0  0  0  0
   -0.4200    0.2900    0.0000 C   0  0  0  0  0  0  0  0  0  0  0  0
    0.8800   -1.9600    0.0000 C   0  0  0  0  0  0  0  0  0  0  0  0
    7.4758    5.7222    0.0000 C   0  0  0  0  0  0  0  0  0  0  0  0
    0.8800   -0.4600    0.0000 C   0  0  0  0  0  0  0  0  0  0  0  0
   -1.7200   -0.4600    0.0000 C   0  0  0  0  0  0  0  0  0  0  0  0
    2.1800    1.7900    0.0000 C   0  0  0  0  0  0  0  0  0  0  0  0
   -5.6189   -2.7102    0.0000 O   0  0  0  0  0  0  0  0  0  0  0  0
    2.1789   -2.7102    0.0000 O   0  0  0  0  0  0  0  0  0  0  0  0
    8.4781    4.6062    0.0000 O   0  0  0  0  0  0  0  0  0  0  0  0
    7.9410    7.1482    0.0000 O   0  0  0  0  0  0  0  0  0  0  0  0
  7  6  1  0
  8  5  1  0
 11  9  1  0
 12 10  1  0
 15  1  1  6
 15  5  1  0
 16 13  1  6
 16 14  1  0
 17  9  1  0
 17 13  1  0
 18  6  1  1
 18 15  1  0
 19  7  1  1
 20 10  1  1
 21 14  1  0
 22  8  1  0
 23 19  1  0
 23 20  1  0
 23 21  1  6
 24  2  1  1
 24 11  1  0
 24 16  1  0
 24 20  1  0
 25  3  1  1
 25 12  1  0
 25 18  1  0
 25 19  1  0
 17 26  1  1
 21 27  1  1
 28 22  2  0
 29  4  1  0
 29 22  1  0
M  END
>  <NAME>  (32) 
3beta,7beta-Dihydroxy-5beta-cholan-24-oic acid Methyl ester

>  <SYNONYMS>  (32) 
Isoursodeoxycholic Acid Methyl ester

>  <SPECTRUM TYPE>  (32) 
MS1

>  <INSTRUMENT TYPE>  (32) 
EI-B

>  <INSTRUMENT>  (32) 
JEOL GCmate

>  <ION MODE>  (32) 
P

>  <INCHIKEY>  (32) 
GRQROVWZGGDYSW-LWNNJCQBSA-N

>  <FORMULA>  (32) 
C25H42O4

>  <EXACT MASS>  (32) 
406.308309824

>  <MW>  (32) 
406

>  <ID>  (32) 
NU000039

>  <CONTRIBUTOR>  (32) 
Takashi Iida, {Department of Chemistry, College of Humanities and Sciences, Nihon University

>  <COMMENT>  (32) 
compound class=Natural Product; BILE ACID
SMILES=C(C3(C)4)([H])(CC(O)CC4)CC(C(C3([H])2)(C(C1(C)CC2)([H])CCC1([H])C(C)CCC(=O)OC)[H])O
chemspider=10295390
lipidbank=BBA0035
InChI=InChI=1S/C25H42O4/c1-15(5-8-22(28)29-4)18-6-7-19-23-20(10-12-25(18,19)3)24(2)11-9-17(26)13-16(24)14-21(23)27/h15-21,23,26-27H,5-14H2,1-4H3/t15-,16+,17+,18-,19+,20+,21+,23+,24+,25-/m1/s1
computed SMILES=O=C(OC)CCC(C)C1CCC2C3C(O)CC4CC(O)CCC4(C)C3CCC12C
accession=NU000039
date=2016.01.19 (Created 2008.09.19, modified 2011.05.06)
author=Takashi Iida, Department of Chemistry, College of Humanities and Sciences, Nihon University. Koichi Metori, Chemical Analytical Center, College of Pharmacy, Nihon Univercity.
license=CC BY-NC-SA
publication=Iida, T., Chang, F. C., Matsumoto, T., and Tamura, T. 1982. High Resolution Mass Spectra of Mono-, Di- and Trihydroxy Stereoisomers of Bile Acids. Biomed. Mass Spectrom. 9: 473-476. doi:10.1002/bms.1200091104
comment=Mass spectral data were collected from the publications cited in LipidBank
comment=[Analytical] Sample was directly injected
exact mass=406.30831
ionization potential=70 eV
source temperature=200 C
ion type=[M]+*
computed spectral entropy=5.041528366780984
computed normalized entropy=0.9198796777706264
SPLASH=splash10-0a4i-4942000000-2cea8468f976e04bbf26
submitter=submitter = Takashi Iida (Department of Chemistry, College of Humanities and Sciences, Nihon University)
MoNA Rating=3.75

>  <NUM PEAKS>  (32) 
240

>  <MASS SPECTRAL PEAKS>  (32) 
53.0 7.7
54.1 2.0
55.1 63.0
56.1 4.0
57.1 11.5
58.1 2.6
59.0 9.9
65.1 3.2
66.1 2.1
67.1 44.3
68.1 12.3
69.1 26.3
70.1 8.3
71.1 5.3
73.1 13.8
74.1 10.0
77.1 11.2
78.1 3.1
79.1 39.8
80.1 11.5
81.0 2.9
81.1 67.9
82.1 14.1
83.1 24.3
84.1 6.0
85.1 11.6
87.1 8.4
91.1 30.8
92.1 8.9
93.1 65.9
94.1 45.1
95.1 69.8
96.1 14.1
97.1 13.0
98.1 3.7
99.1 6.5
101.1 3.4
103.1 2.4
104.1 2.8
105.1 39.3
106.1 20.1
107.1 53.5
108.1 49.4
109.1 64.3
110.1 20.3
111.1 16.8
112.1 4.2
113.1 2.1
114.1 3.4
115.1 15.0
116.1 3.7
117.1 9.3
118.1 9.8
119.1 38.4
120.1 27.6
121.1 44.8
122.1 27.8
123.1 25.5
124.1 15.2
125.1 10.6
126.1 5.6
127.1 4.3
128.1 3.0
129.1 6.3
130.1 2.8
131.1 20.6
132.1 10.7
133.1 37.3
134.1 21.8
135.1 34.9
136.1 11.6
137.1 18.8
138.1 45.1
139.1 33.2
140.1 13.7
141.1 15.8
142.1 4.6
143.1 10.6
144.1 4.8
145.1 31.2
146.1 14.3
147.1 39.8
148.1 29.0
149.1 19.7
150.1 8.4
151.1 9.1
152.1 22.1
153.1 11.0
154.1 22.2
155.1 13.2
156.1 6.8
157.1 13.3
158.1 8.6
159.1 26.5
160.1 14.4
161.1 32.0
162.1 14.8
163.1 19.8
164.1 7.3
165.1 6.2
166.1 2.1
168.1 2.4
169.1 3.4
171.1 9.1
172.1 4.8
173.1 16.6
174.1 7.3
175.1 13.8
176.1 8.7
177.1 9.8
178.1 11.0
179.1 5.1
181.1 5.8
182.1 2.7
183.1 2.4
185.1 8.7
186.1 4.1
187.1 12.3
188.1 4.9
189.1 10.7
190.1 4.2
191.1 5.4
192.2 4.7
193.1 3.0
194.1 18.0
195.1 11.9
196.1 3.7
197.1 8.7
198.1 2.9
199.1 14.3
200.1 4.9
201.2 14.2
202.2 6.3
203.2 8.3
204.2 2.9
205.1 5.3
206.2 2.2
207.1 9.9
208.1 26.2
209.1 7.5
210.1 4.0
211.1 4.2
212.1 2.2
213.2 34.9
214.2 13.4
215.2 27.6
216.2 12.4
217.2 16.7
218.2 7.4
219.2 9.2
220.2 5.6
221.2 6.6
222.2 4.9
223.2 2.2
227.2 7.2
228.2 12.3
229.2 13.3
230.2 4.7
231.2 19.6
232.2 20.7
233.2 22.5
234.2 8.0
235.2 4.1
236.2 4.8
237.2 2.2
241.1 2.3
241.2 4.6
242.2 4.1
243.2 3.7
244.2 2.2
245.2 5.7
246.2 24.7
247.2 9.2
248.2 10.4
249.2 21.5
250.2 47.1
251.2 10.2
252.2 2.1
253.2 2.7
255.2 29.2
256.2 6.8
257.2 2.8
259.2 5.8
260.2 5.0
261.2 3.8
262.2 13.6
263.2 7.2
264.2 24.2
265.2 6.2
271.2 9.2
272.2 4.6
273.2 48.6
274.2 13.9
275.2 6.1
276.2 8.2
277.2 3.5
283.2 3.5
287.2 2.5
288.2 4.0
289.2 2.8
290.2 2.9
292.2 13.2
293.2 3.4
294.2 2.9
297.2 2.9
301.2 3.3
302.2 2.6
303.2 2.3
304.2 3.4
313.2 3.4
314.3 2.6
315.2 5.7
316.2 8.3
317.3 2.9
318.2 4.9
321.2 2.3
323.2 3.2
328.2 2.0
329.3 5.0
330.2 4.2
331.2 3.3
339.2 10.4
340.3 2.9
341.3 3.3
355.2 19.1
356.2 11.1
357.3 11.8
358.3 3.1
370.3 36.7
371.3 11.7
372.3 3.0
373.3 33.5
374.3 12.0
375.3 3.8
386.3 3.0
388.3 100.0
389.3 33.4
390.3 5.8
406.3 12.6
407.3 3.6

$$$$

     RDKit          2D

 29 32  0  0  1  0  0  0  0  0999 V2000
    3.0730    4.7920    0.0000 C   0  0  0  0  0  0  0  0  0  0  0  0
   -1.7200    1.0400    0.0000 C   0  0  0  0  0  0  0  0  0  0  0  0
    2.3387    3.2816    0.0000 C   0  0  0  0  0  0  0  0  0  0  0  0
    9.4086    7.4582    0.0000 C   0  0  0  0  0  0  0  0  0  0  0  0
    5.5429    3.9861    0.0000 C   0  0  0  0  0  0  0  0  0  0  0  0
    4.4900    1.0400    0.0000 C   0  0  0  0  0  0  0  0  0  0  0  0
    3.6100   -0.1800    0.0000 C   0  0  0  0  0  0  0  0  0  0  0  0
    6.0082    5.4121    0.0000 C   0  0  0  0  0  0  0  0  0  0  0  0
   -4.3200   -0.4600    0.0000 C   0  0  0  0  0  0  0  0  0  0  0  0
   -0.4200    1.7900    0.0000 C   0  0  0  0  0  0  0  0  0  0  0  0
   -3.0200    0.2900    0.0000 C   0  0  0  0  0  0  0  0  0  0  0  0
    0.8800    2.5400    0.0000 C   0  0  0  0  0  0  0  0  0  0  0  0
   -3.0200   -2.7100    0.0000 C   0  0  0  0  0  0  0  0  0  0  0  0
   -0.4200   -2.7100    0.0000 C   0  0  0  0  0  0  0  0  0  0  0  0
    4.0753    3.6760    0.0000 C   0  0  0  0  0  0  0  0  0  0  0  0
   -1.7200   -1.9600    0.0000 C   0  0  0  0  0  0  0  0  0  0  0  0
   -4.3200   -1.9600    0.0000 C   0  0  0  0  0  0  0  0  0  0  0  0
    3.6100    2.2500    0.0000 C   0  0  0  0  0  0  0  0  0  0  0  0
    2.1800    0.2900    0.0000 C   0  0  0  0  0  0  0  0  0  0  0  0
   -0.4200    0.2900    0.0000 C   0  0  0  0  0  0  0  0  0  0  0  0
    0.8800   -1.9600    0.0000 C   0  0  0  0  0  0  0  0  0  0  0  0
    7.4758    5.7222    0.0000 C   0  0  0  0  0  0  0  0  0  0  0  0
    0.8800   -0.4600    0.0000 C   0  0  0  0  0  0  0  0  0  0  0  0
   -1.7200   -0.4600    0.0000 C   0  0  0  0  0  0  0  0  0  0  0  0
    2.1800    1.7900    0.0000 C   0  0  0  0  0  0  0  0  0  0  0  0
   -5.6189   -2.7102    0.0000 O   0  0  0  0  0  0  0  0  0  0  0  0
    2.1789   -2.7102    0.0000 O   0  0  0  0  0  0  0  0  0  0  0  0
    8.4781    4.6062    0.0000 O   0  0  0  0  0  0  0  0  0  0  0  0
    7.9410    7.1482    0.0000 O   0  0  0  0  0  0  0  0  0  0  0  0
  7  6  1  0
  8  5  1  0
 11  9  1  0
 12 10  1  0
 15  1  1  6
 15  5  1  0
 16 13  1  6
 16 14  1  0
 17  9  1  0
 17 13  1  0
 18  6  1  1
 18 15  1  0
 19  7  1  1
 20 10  1  1
 21 14  1  0
 22  8  1  0
 23 19  1  0
 23 20  1  0
 23 21  1  6
 24  2  1  1
 24 11  1  0
 24 16  1  0
 24 20  1  0
 25  3  1  1
 25 12  1  0
 25 18  1  0
 25 19  1  0
 17 26  1  6
 21 27  1  1
 28 22  2  0
 29  4  1  0
 29 22  1  0
M  END
>  <NAME>  (33) 
3alpha,7beta-Dihydroxy-5beta-cholan-24-oic acid Methyl ester

>  <SYNONYMS>  (33) 
Ursodeoxycholic Acid Methyl ester

>  <SPECTRUM TYPE>  (33) 
MS1

>  <INSTRUMENT TYPE>  (33) 
EI-B

>  <INSTRUMENT>  (33) 
JEOL GCmate

>  <ION MODE>  (33) 
P

>  <INCHIKEY>  (33) 
GRQROVWZGGDYSW-ZQMFMVRBSA-N

>  <FORMULA>  (33) 
C25H42O4

>  <EXACT MASS>  (33) 
406.308309824

>  <MW>  (33) 
406

>  <ID>  (33) 
NU000038

>  <CONTRIBUTOR>  (33) 
Takashi Iida, {Department of Chemistry, College of Humanities and Sciences, Nihon University

>  <COMMENT>  (33) 
compound class=Natural Product; BILE ACID
SMILES=C(C3(C)4)([H])(CC(O)CC4)CC(C(C3([H])2)(C(C1(C)CC2)([H])CCC1([H])C(C)CCC(=O)OC)[H])O
chemspider=7977227
lipidbank=BBA0033
pubchem cid=9801465
InChI=InChI=1S/C25H42O4/c1-15(5-8-22(28)29-4)18-6-7-19-23-20(10-12-25(18,19)3)24(2)11-9-17(26)13-16(24)14-21(23)27/h15-21,23,26-27H,5-14H2,1-4H3/t15-,16+,17-,18-,19+,20+,21+,23+,24+,25-/m1/s1
computed SMILES=O=C(OC)CCC(C)C1CCC2C3C(O)CC4CC(O)CCC4(C)C3CCC12C
accession=NU000038
date=2016.01.19 (Created 2008.09.19, modified 2011.05.06)
author=Takashi Iida, Department of Chemistry, College of Humanities and Sciences, Nihon University. Koichi Metori, Chemical Analytical Center, College of Pharmacy, Nihon Univercity.
license=CC BY-NC-SA
publication=Iida, T., Chang, F. C., Matsumoto, T., and Tamura, T. 1982. High Resolution Mass Spectra of Mono-, Di- and Trihydroxy Stereoisomers of Bile Acids. Biomed. Mass Spectrom. 9: 473-476. doi:10.1002/bms.1200091104
comment=Mass spectral data were collected from the publications cited in LipidBank
comment=[Analytical] Sample was directly injected
exact mass=406.30831
ionization potential=70 eV
source temperature=200 C
ion type=[M]+*
computed spectral entropy=5.032180035604688
computed normalized entropy=0.9174779115116829
SPLASH=splash10-0a4i-4952000000-84c0a2e0da7c725f8f7e
submitter=submitter = Takashi Iida (Department of Chemistry, College of Humanities and Sciences, Nihon University)
MoNA Rating=3.75

>  <NUM PEAKS>  (33) 
241

>  <MASS SPECTRAL PEAKS>  (33) 
53.0 7.6
54.1 2.0
55.1 64.8
56.1 4.1
57.1 11.5
58.1 2.8
59.0 9.8
65.1 3.3
66.1 2.1
67.1 46.3
68.1 13.3
69.1 28.3
70.1 8.1
71.1 5.6
73.1 14.9
74.1 10.1
77.1 11.6
78.1 3.1
79.1 41.6
80.1 11.5
81.1 73.2
82.1 15.1
83.1 26.8
84.1 5.9
85.1 14.1
87.1 8.7
91.1 31.7
92.1 9.3
93.1 68.3
94.1 44.9
95.1 76.7
96.1 16.3
97.1 14.0
98.1 3.4
99.1 6.7
101.1 3.3
103.1 3.3
104.1 3.0
105.1 44.9
106.1 19.7
107.1 52.7
108.1 31.1
109.1 55.1
110.1 15.5
111.1 13.2
112.1 3.4
113.1 2.2
114.1 2.1
115.1 15.2
116.1 3.7
117.1 10.2
118.1 12.5
119.1 39.2
120.1 25.4
121.1 42.8
122.1 29.0
123.1 24.0
124.1 8.7
125.1 10.0
126.1 2.7
127.1 3.6
128.1 2.9
129.1 6.3
130.1 3.1
131.1 25.2
132.1 14.9
133.1 37.1
134.1 19.7
135.1 34.6
136.1 12.6
137.1 17.2
138.1 31.0
139.1 28.6
140.1 24.5
141.1 19.6
142.1 5.3
143.1 11.7
144.1 5.6
145.1 38.1
146.1 18.3
147.1 40.5
148.1 29.7
149.1 21.3
150.1 7.8
151.1 6.6
152.1 18.0
153.1 10.5
154.1 18.8
155.1 9.6
156.1 3.8
157.1 19.2
158.1 17.0
159.1 36.5
160.1 19.9
161.1 30.6
162.1 22.9
163.1 19.4
164.1 6.6
165.1 7.6
166.1 2.1
168.1 2.4
169.1 4.6
171.1 13.2
172.1 7.7
173.1 23.1
174.1 14.7
175.1 18.0
176.1 10.5
177.1 11.6
178.1 11.8
179.1 5.0
181.1 5.4
182.1 2.3
183.1 2.6
185.1 12.3
186.1 5.9
187.1 15.9
188.2 6.3
189.2 11.2
190.1 5.0
191.2 6.1
192.2 5.4
193.2 2.8
194.1 11.9
195.1 11.3
196.1 3.2
197.1 6.0
198.2 2.7
199.1 20.5
200.2 9.1
201.2 23.8
202.2 12.8
203.2 11.3
204.2 4.8
205.2 4.0
207.1 4.7
208.2 21.7
209.2 6.6
210.2 3.5
211.2 5.1
212.1 2.7
213.2 50.6
214.2 20.6
215.2 41.7
216.2 21.5
217.2 25.8
218.2 8.0
219.2 6.7
220.2 3.2
221.2 5.0
222.2 2.9
225.2 2.2
227.2 11.2
228.2 31.5
229.2 23.1
230.2 9.1
231.2 19.8
232.2 30.3
233.2 15.9
234.2 5.9
235.2 2.8
239.2 2.0
241.2 12.0
242.2 10.7
243.2 5.6
244.2 2.2
245.2 3.6
246.2 35.1
247.2 10.3
248.2 13.8
249.2 14.3
250.2 20.0
251.2 4.9
252.2 2.2
253.2 3.4
254.2 3.7
255.2 87.0
256.2 19.7
257.2 8.0
258.2 2.0
260.2 3.4
261.2 4.0
262.2 11.3
263.2 5.2
264.2 26.4
265.2 7.3
271.2 8.7
272.2 3.6
273.2 40.6
274.2 15.7
275.2 8.9
276.2 6.1
277.2 2.8
279.2 2.1
281.2 2.3
283.2 6.5
284.2 2.5
287.2 2.2
288.2 3.5
289.2 2.8
290.2 3.4
292.2 5.4
294.2 3.2
297.3 6.0
301.2 3.0
302.2 2.4
303.2 2.1
304.2 4.4
305.3 2.0
313.3 5.2
314.3 4.2
315.3 8.5
316.3 15.2
317.3 4.2
318.2 2.0
321.2 4.2
323.2 5.2
328.3 2.3
329.3 4.9
330.3 2.8
339.3 17.7
340.3 5.0
341.3 4.0
342.3 2.5
355.3 42.4
356.3 13.6
357.3 11.4
358.3 3.1
369.3 2.2
370.3 100.0
371.3 33.5
372.3 18.5
373.3 16.7
374.3 4.4
375.3 2.0
386.3 2.6
388.3 80.0
389.3 23.0
390.3 5.4
406.3 11.0
407.3 3.2

$$$$

     RDKit          2D

 29 32  0  0  1  0  0  0  0  0999 V2000
    3.0730    4.7920    0.0000 C   0  0  0  0  0  0  0  0  0  0  0  0
   -1.7200    1.0400    0.0000 C   0  0  0  0  0  0  0  0  0  0  0  0
    2.3387    3.2816    0.0000 C   0  0  0  0  0  0  0  0  0  0  0  0
    9.4086    7.4582    0.0000 C   0  0  0  0  0  0  0  0  0  0  0  0
    5.5429    3.9861    0.0000 C   0  0  0  0  0  0  0  0  0  0  0  0
    4.4900    1.0400    0.0000 C   0  0  0  0  0  0  0  0  0  0  0  0
    3.6100   -0.1800    0.0000 C   0  0  0  0  0  0  0  0  0  0  0  0
    6.0082    5.4121    0.0000 C   0  0  0  0  0  0  0  0  0  0  0  0
   -4.3200   -0.4600    0.0000 C   0  0  0  0  0  0  0  0  0  0  0  0
   -0.4200    1.7900    0.0000 C   0  0  0  0  0  0  0  0  0  0  0  0
   -3.0200    0.2900    0.0000 C   0  0  0  0  0  0  0  0  0  0  0  0
    0.8800    2.5400    0.0000 C   0  0  0  0  0  0  0  0  0  0  0  0
   -3.0200   -2.7100    0.0000 C   0  0  0  0  0  0  0  0  0  0  0  0
   -0.4200   -2.7100    0.0000 C   0  0  0  0  0  0  0  0  0  0  0  0
    4.0753    3.6760    0.0000 C   0  0  0  0  0  0  0  0  0  0  0  0
   -1.7200   -1.9600    0.0000 C   0  0  0  0  0  0  0  0  0  0  0  0
   -4.3200   -1.9600    0.0000 C   0  0  0  0  0  0  0  0  0  0  0  0
    3.6100    2.2500    0.0000 C   0  0  0  0  0  0  0  0  0  0  0  0
    2.1800    0.2900    0.0000 C   0  0  0  0  0  0  0  0  0  0  0  0
   -0.4200    0.2900    0.0000 C   0  0  0  0  0  0  0  0  0  0  0  0
    0.8800   -1.9600    0.0000 C   0  0  0  0  0  0  0  0  0  0  0  0
    7.4758    5.7222    0.0000 C   0  0  0  0  0  0  0  0  0  0  0  0
    0.8800   -0.4600    0.0000 C   0  0  0  0  0  0  0  0  0  0  0  0
   -1.7200   -0.4600    0.0000 C   0  0  0  0  0  0  0  0  0  0  0  0
    2.1800    1.7900    0.0000 C   0  0  0  0  0  0  0  0  0  0  0  0
   -5.6189   -2.7102    0.0000 O   0  0  0  0  0  0  0  0  0  0  0  0
    2.1789   -2.7102    0.0000 O   0  0  0  0  0  0  0  0  0  0  0  0
    8.4781    4.6062    0.0000 O   0  0  0  0  0  0  0  0  0  0  0  0
    7.9410    7.1482    0.0000 O   0  0  0  0  0  0  0  0  0  0  0  0
  7  6  1  0
  8  5  1  0
 11  9  1  0
 12 10  1  0
 15  1  1  6
 15  5  1  0
 16 13  1  6
 16 14  1  0
 17  9  1  0
 17 13  1  0
 18  6  1  1
 18 15  1  0
 19  7  1  1
 20 10  1  1
 21 14  1  0
 22  8  1  0
 23 19  1  0
 23 20  1  0
 23 21  1  6
 24  2  1  1
 24 11  1  0
 24 16  1  0
 24 20  1  0
 25  3  1  1
 25 12  1  0
 25 18  1  0
 25 19  1  0
 17 26  1  1
 21 27  1  6
 28 22  2  0
 29  4  1  0
 29 22  1  0
M  END
>  <NAME>  (34) 
3beta,7alpha-Dihydroxy-5beta-cholan-24-oic acid Methyl ester

>  <SYNONYMS>  (34) 
Isochenodeoxycholic Acid Methyl ester

>  <SPECTRUM TYPE>  (34) 
MS1

>  <INSTRUMENT TYPE>  (34) 
EI-B

>  <INSTRUMENT>  (34) 
JEOL GCmate

>  <ION MODE>  (34) 
P

>  <INCHIKEY>  (34) 
GRQROVWZGGDYSW-AMRVJQGXSA-N

>  <FORMULA>  (34) 
C25H42O4

>  <EXACT MASS>  (34) 
406.308309824

>  <MW>  (34) 
406

>  <ID>  (34) 
NU000037

>  <CONTRIBUTOR>  (34) 
Takashi Iida, {Department of Chemistry, College of Humanities and Sciences, Nihon University

>  <COMMENT>  (34) 
compound class=Natural Product; BILE ACID
SMILES=C(C3(C)4)([H])(CC(O)CC4)CC(C(C3([H])2)(C(C1(C)CC2)([H])CCC1([H])C(C)CCC(=O)OC)[H])O
lipidbank=BBA0034
InChI=InChI=1S/C25H42O4/c1-15(5-8-22(28)29-4)18-6-7-19-23-20(10-12-25(18,19)3)24(2)11-9-17(26)13-16(24)14-21(23)27/h15-21,23,26-27H,5-14H2,1-4H3/t15-,16+,17+,18-,19+,20+,21-,23+,24+,25-/m1/s1
computed SMILES=O=C(OC)CCC(C)C1CCC2C3C(O)CC4CC(O)CCC4(C)C3CCC12C
accession=NU000037
date=2016.01.19 (Created 2008.09.19, modified 2011.05.06)
author=Takashi Iida, Department of Chemistry, College of Humanities and Sciences, Nihon University. Koichi Metori, Chemical Analytical Center, College of Pharmacy, Nihon Univercity.
license=CC BY-NC-SA
publication=Iida, T., Chang, F. C., Matsumoto, T., and Tamura, T. 1982. High Resolution Mass Spectra of Mono-, Di- and Trihydroxy Stereoisomers of Bile Acids. Biomed. Mass Spectrom. 9: 473-476. doi:10.1002/bms.1200091104
comment=Mass spectral data were collected from the publications cited in LipidBank
comment=[Analytical] Sample was directly injected
exact mass=406.30831
ionization potential=70 eV
source temperature=200 C
ion type=[M]+*
computed spectral entropy=4.928075608103811
computed normalized entropy=0.914457230331134
SPLASH=splash10-0abi-4952000000-72bbab32a521020dbfdb
submitter=submitter = Takashi Iida (Department of Chemistry, College of Humanities and Sciences, Nihon University)
MoNA Rating=3.75

>  <NUM PEAKS>  (34) 
219

>  <MASS SPECTRAL PEAKS>  (34) 
53.0 6.8
55.1 55.7
56.1 3.7
57.1 9.8
58.1 3.2
59.0 8.9
65.1 3.0
67.1 38.3
68.1 9.3
69.1 22.2
70.1 5.9
71.1 4.5
73.1 12.7
74.1 6.9
77.1 10.4
78.1 2.8
79.1 35.5
80.1 8.4
81.1 56.4
82.1 9.9
83.1 21.4
84.1 4.3
85.1 12.7
87.1 6.5
91.1 29.7
92.1 7.7
93.1 55.2
94.1 27.0
95.1 55.5
96.1 10.3
97.1 11.2
98.1 3.0
99.1 5.8
101.1 3.1
103.1 2.4
104.1 2.4
105.1 38.2
106.1 16.9
107.1 53.0
108.1 42.6
109.1 53.9
110.1 15.3
111.1 12.6
112.1 3.0
114.1 2.9
115.1 13.7
116.1 2.9
117.1 9.4
118.1 10.9
119.1 40.6
120.1 42.4
121.1 48.4
122.1 35.7
123.1 23.7
124.1 13.4
125.1 8.9
126.1 2.8
127.1 3.4
128.1 2.6
129.1 6.0
130.1 3.0
131.1 22.0
132.1 14.0
133.1 37.9
134.1 22.4
135.1 31.7
136.1 10.9
137.1 15.5
138.1 19.5
139.1 11.6
140.1 7.8
141.1 14.7
142.1 3.8
143.1 11.7
144.1 5.1
145.1 28.1
146.1 16.3
147.1 44.3
148.1 20.4
149.1 14.9
150.1 6.9
151.1 6.5
152.1 11.5
153.1 6.7
154.1 11.8
155.1 12.7
156.1 7.9
157.1 14.1
158.1 8.1
159.1 25.1
160.1 13.2
161.1 28.4
162.1 13.1
163.1 11.8
164.1 5.4
165.1 3.9
169.1 3.7
171.1 10.7
172.1 5.3
173.1 16.8
174.1 7.5
175.1 12.9
176.1 7.4
177.1 7.6
178.1 5.1
179.1 3.0
181.1 4.1
183.1 2.5
185.1 9.8
186.1 5.0
187.1 11.0
188.2 4.3
189.2 9.3
190.1 3.2
191.1 3.2
192.1 2.5
194.1 7.9
195.1 4.2
197.1 4.8
198.1 2.3
199.1 13.3
200.1 6.2
201.2 15.0
202.2 5.1
203.2 6.1
205.1 2.9
207.1 7.1
208.1 8.8
209.1 4.7
211.1 5.6
212.1 2.7
213.2 47.7
214.2 11.4
215.2 16.8
216.2 8.3
217.1 14.1
218.2 5.4
219.2 4.7
220.2 2.8
221.2 3.4
222.2 2.2
227.2 6.4
228.2 27.9
229.2 19.6
230.2 5.7
231.2 22.6
232.2 7.0
233.2 10.3
234.2 5.0
235.2 3.1
236.2 2.5
241.2 3.1
243.2 2.9
244.2 2.4
245.2 4.0
246.2 41.2
247.2 14.2
248.2 9.5
249.2 24.5
250.2 22.2
251.2 5.4
253.2 3.2
255.2 25.0
256.2 5.9
257.2 3.5
261.2 3.3
262.2 15.8
263.2 7.4
264.2 27.1
265.2 6.7
271.2 10.0
272.2 5.2
273.2 94.1
274.2 23.2
275.2 6.3
276.2 8.5
277.2 3.2
288.2 3.0
289.2 2.9
290.2 2.3
292.2 9.9
293.2 2.6
294.2 5.8
295.2 2.0
297.2 2.2
304.2 2.3
313.2 2.6
314.2 2.1
315.2 4.7
316.2 8.9
317.3 3.5
318.2 4.0
323.2 3.4
328.2 2.6
329.3 3.9
330.3 3.4
331.3 4.1
333.3 3.6
339.3 7.5
340.3 2.2
341.2 2.3
353.2 2.1
355.2 25.6
356.2 9.6
357.2 13.6
358.2 3.6
370.3 46.0
371.3 14.8
372.3 4.1
373.3 31.3
374.3 9.0
386.3 5.7
387.3 2.4
388.3 100.0
389.3 31.0
390.3 5.5
404.2 5.0
406.3 7.3
407.3 2.1

$$$$

     RDKit          2D

 29 32  0  0  1  0  0  0  0  0999 V2000
    3.0730    4.7920    0.0000 C   0  0  0  0  0  0  0  0  0  0  0  0
   -1.7200    1.0400    0.0000 C   0  0  0  0  0  0  0  0  0  0  0  0
    2.3387    3.2816    0.0000 C   0  0  0  0  0  0  0  0  0  0  0  0
    9.4086    7.4582    0.0000 C   0  0  0  0  0  0  0  0  0  0  0  0
    5.5429    3.9861    0.0000 C   0  0  0  0  0  0  0  0  0  0  0  0
    4.4900    1.0400    0.0000 C   0  0  0  0  0  0  0  0  0  0  0  0
    3.6100   -0.1800    0.0000 C   0  0  0  0  0  0  0  0  0  0  0  0
    6.0082    5.4121    0.0000 C   0  0  0  0  0  0  0  0  0  0  0  0
   -4.3200   -0.4600    0.0000 C   0  0  0  0  0  0  0  0  0  0  0  0
   -0.4200    1.7900    0.0000 C   0  0  0  0  0  0  0  0  0  0  0  0
   -3.0200    0.2900    0.0000 C   0  0  0  0  0  0  0  0  0  0  0  0
    0.8800    2.5400    0.0000 C   0  0  0  0  0  0  0  0  0  0  0  0
   -3.0200   -2.7100    0.0000 C   0  0  0  0  0  0  0  0  0  0  0  0
   -0.4200   -2.7100    0.0000 C   0  0  0  0  0  0  0  0  0  0  0  0
    4.0753    3.6760    0.0000 C   0  0  0  0  0  0  0  0  0  0  0  0
   -1.7200   -1.9600    0.0000 C   0  0  0  0  0  0  0  0  0  0  0  0
   -4.3200   -1.9600    0.0000 C   0  0  0  0  0  0  0  0  0  0  0  0
    3.6100    2.2500    0.0000 C   0  0  0  0  0  0  0  0  0  0  0  0
    2.1800    0.2900    0.0000 C   0  0  0  0  0  0  0  0  0  0  0  0
   -0.4200    0.2900    0.0000 C   0  0  0  0  0  0  0  0  0  0  0  0
    0.8800   -1.9600    0.0000 C   0  0  0  0  0  0  0  0  0  0  0  0
    7.4758    5.7222    0.0000 C   0  0  0  0  0  0  0  0  0  0  0  0
    0.8800   -0.4600    0.0000 C   0  0  0  0  0  0  0  0  0  0  0  0
   -1.7200   -0.4600    0.0000 C   0  0  0  0  0  0  0  0  0  0  0  0
    2.1800    1.7900    0.0000 C   0  0  0  0  0  0  0  0  0  0  0  0
   -5.6189   -2.7102    0.0000 O   0  0  0  0  0  0  0  0  0  0  0  0
    2.1789   -2.7102    0.0000 O   0  0  0  0  0  0  0  0  0  0  0  0
    8.4781    4.6062    0.0000 O   0  0  0  0  0  0  0  0  0  0  0  0
    7.9410    7.1482    0.0000 O   0  0  0  0  0  0  0  0  0  0  0  0
  7  6  1  0
  8  5  1  0
 11  9  1  0
 12 10  1  0
 15  1  1  6
 15  5  1  0
 16 13  1  6
 16 14  1  0
 17  9  1  0
 17 13  1  0
 18  6  1  1
 18 15  1  0
 19  7  1  1
 20 10  1  1
 21 14  1  0
 22  8  1  0
 23 19  1  0
 23 20  1  0
 23 21  1  6
 24  2  1  1
 24 11  1  0
 24 16  1  0
 24 20  1  0
 25  3  1  1
 25 12  1  0
 25 18  1  0
 25 19  1  0
 17 26  1  6
 21 27  1  6
 28 22  2  0
 29  4  1  0
 29 22  1  0
M  END
>  <NAME>  (35) 
3alpha,7alpha-Dihydroxy-5beta-cholan-24-oic acid Methyl ester

>  <SYNONYMS>  (35) 
Chenodeoxycholic Acid Methyl ester

>  <SPECTRUM TYPE>  (35) 
MS1

>  <INSTRUMENT TYPE>  (35) 
EI-B

>  <INSTRUMENT>  (35) 
JEOL GCmate

>  <ION MODE>  (35) 
P

>  <INCHIKEY>  (35) 
GRQROVWZGGDYSW-IFJDUOSNSA-N

>  <FORMULA>  (35) 
C25H42O4

>  <EXACT MASS>  (35) 
406.308309824

>  <MW>  (35) 
406

>  <ID>  (35) 
NU000036

>  <CONTRIBUTOR>  (35) 
Takashi Iida, {Department of Chemistry, College of Humanities and Sciences, Nihon University

>  <COMMENT>  (35) 
compound class=Natural Product; BILE ACID
SMILES=C(C3(C)4)([H])(CC(O)CC4)CC(C(C3([H])2)(C(C1(C)CC2)([H])CCC1([H])C(C)CCC(=O)OC)[H])O
chemspider=92461
lipidbank=BBA0032
pubchem cid=102366
InChI=InChI=1S/C25H42O4/c1-15(5-8-22(28)29-4)18-6-7-19-23-20(10-12-25(18,19)3)24(2)11-9-17(26)13-16(24)14-21(23)27/h15-21,23,26-27H,5-14H2,1-4H3/t15-,16+,17-,18-,19+,20+,21-,23+,24+,25-/m1/s1
computed SMILES=O=C(OC)CCC(C)C1CCC2C3C(O)CC4CC(O)CCC4(C)C3CCC12C
accession=NU000036
date=2016.01.19 (Created 2008.09.19, modified 2011.05.06)
author=Takashi Iida, Department of Chemistry, College of Humanities and Sciences, Nihon University. Koichi Metori, Chemical Analytical Center, College of Pharmacy, Nihon Univercity.
license=CC BY-NC-SA
publication=Iida, T., Chang, F. C., Matsumoto, T., and Tamura, T. 1982. High Resolution Mass Spectra of Mono-, Di- and Trihydroxy Stereoisomers of Bile Acids. Biomed. Mass Spectrom. 9: 473-476. doi:10.1002/bms.1200091104
comment=Mass spectral data were collected from the publications cited in LipidBank
comment=[Analytical] Sample was directly injected
exact mass=406.30831
ionization potential=70 eV
source temperature=200 C
ion type=[M]+*
computed spectral entropy=4.829461031767853
computed normalized entropy=0.9123716074709939
SPLASH=splash10-0ab9-4953000000-e87318b95f39bde3db27
submitter=submitter = Takashi Iida (Department of Chemistry, College of Humanities and Sciences, Nihon University)
MoNA Rating=3.75

>  <NUM PEAKS>  (35) 
199

>  <MASS SPECTRAL PEAKS>  (35) 
53.0 5.5
55.1 46.2
56.1 3.0
57.1 8.0
58.1 2.4
59.0 7.4
65.1 2.4
67.1 32.0
68.1 7.8
69.1 18.9
70.1 4.7
71.1 3.6
73.1 10.8
74.1 5.7
77.1 8.5
78.1 2.2
79.1 29.2
80.1 6.5
81.1 47.9
82.1 8.0
83.1 18.7
84.1 3.5
85.1 12.5
87.1 5.4
91.1 24.5
92.1 6.2
93.1 45.4
94.1 21.8
95.1 47.8
96.1 10.2
97.1 9.7
98.1 2.2
99.1 4.9
101.1 2.4
103.1 2.9
104.1 2.1
105.1 33.3
106.1 14.7
107.1 38.2
108.1 21.8
109.1 34.1
110.1 7.7
111.1 7.8
112.1 2.1
115.1 10.8
116.1 2.2
117.1 8.3
118.1 9.4
119.1 30.9
120.1 23.3
121.1 29.5
122.1 21.2
123.1 15.0
124.1 4.6
125.1 6.5
127.1 2.7
128.1 2.0
129.1 4.9
130.1 2.6
131.1 22.2
132.1 14.0
133.1 29.7
134.1 14.6
135.1 21.9
136.1 7.3
137.1 9.2
138.1 8.9
139.1 6.8
140.1 14.4
141.1 16.1
142.1 3.7
143.1 10.4
144.1 4.6
145.1 27.6
146.1 15.7
147.1 32.4
148.1 23.4
149.1 12.4
150.1 4.3
151.1 4.1
152.1 5.3
153.1 3.3
154.1 7.6
155.1 7.3
156.1 2.6
157.1 17.8
158.1 11.2
159.1 28.8
160.1 13.8
161.1 20.4
162.1 17.7
163.1 9.6
164.1 3.1
165.1 3.1
169.1 4.5
171.1 13.8
172.1 7.4
173.1 20.1
174.1 15.4
175.1 11.0
176.1 3.9
177.1 5.3
178.1 3.3
179.1 2.4
181.1 2.6
183.1 2.5
185.1 11.9
186.1 5.9
187.1 11.5
188.1 3.7
189.2 5.7
191.1 2.4
192.2 2.6
194.1 3.1
195.1 3.0
197.1 4.0
198.1 2.0
199.1 14.2
200.2 10.0
201.2 21.7
202.2 8.9
203.2 5.1
205.1 2.0
207.1 3.1
208.1 6.6
209.1 3.7
211.1 4.6
212.2 2.4
213.1 57.5
214.2 15.5
215.2 17.2
216.2 9.4
217.2 9.9
218.2 3.0
219.2 2.8
221.1 2.1
227.2 7.4
228.2 44.3
229.2 27.2
230.2 6.0
231.2 12.8
232.2 4.7
233.2 3.2
239.2 2.3
241.2 4.8
242.2 3.5
243.2 2.8
245.2 2.1
246.2 29.9
247.2 8.4
248.2 6.5
249.2 9.8
250.2 7.1
251.2 2.2
253.2 3.3
254.2 4.9
255.2 73.6
256.2 16.4
257.2 4.4
261.2 2.4
262.2 8.3
263.2 3.9
264.2 22.2
265.2 6.1
271.2 7.6
272.2 3.6
273.2 61.8
274.2 17.4
275.2 6.2
276.2 5.1
281.2 2.2
283.2 3.6
288.2 2.0
294.2 4.1
297.2 3.3
304.2 2.4
313.2 3.4
314.2 3.6
315.3 6.1
316.2 13.8
317.3 3.4
321.2 2.9
323.2 5.0
329.2 2.8
339.3 16.0
340.3 4.5
341.2 2.1
355.2 52.7
356.2 15.3
357.2 4.3
370.2 100.0
371.3 33.7
372.3 6.5
373.3 10.9
374.3 3.2
386.3 3.2
388.3 33.6
389.3 9.6
406.3 4.0

$$$$

     RDKit          2D

 29 32  0  0  1  0  0  0  0  0999 V2000
    3.1099    4.4913    0.0000 C   0  0  0  0  0  0  0  0  0  0  0  0
   -1.6775    0.7300    0.0000 C   0  0  0  0  0  0  0  0  0  0  0  0
    2.3740    2.9721    0.0000 C   0  0  0  0  0  0  0  0  0  0  0  0
    9.4424    7.1652    0.0000 C   0  0  0  0  0  0  0  0  0  0  0  0
    5.5808    3.6884    0.0000 C   0  0  0  0  0  0  0  0  0  0  0  0
   -0.3800   -3.0200    0.0000 C   0  0  0  0  0  0  0  0  0  0  0  0
    0.9200   -2.2700    0.0000 C   0  0  0  0  0  0  0  0  0  0  0  0
    4.5300    0.7300    0.0000 C   0  0  0  0  0  0  0  0  0  0  0  0
    3.6500   -0.4800    0.0000 C   0  0  0  0  0  0  0  0  0  0  0  0
    6.0443    5.1150    0.0000 C   0  0  0  0  0  0  0  0  0  0  0  0
   -4.2700   -0.7700    0.0000 C   0  0  0  0  0  0  0  0  0  0  0  0
   -2.9700   -0.0200    0.0000 C   0  0  0  0  0  0  0  0  0  0  0  0
   -2.9700   -3.0200    0.0000 C   0  0  0  0  0  0  0  0  0  0  0  0
   -0.3800    1.4800    0.0000 C   0  0  0  0  0  0  0  0  0  0  0  0
    4.1136    3.3766    0.0000 C   0  0  0  0  0  0  0  0  0  0  0  0
   -1.6800   -2.2700    0.0000 C   0  0  0  0  0  0  0  0  0  0  0  0
   -4.2700   -2.2700    0.0000 C   0  0  0  0  0  0  0  0  0  0  0  0
    0.9200   -0.7700    0.0000 C   0  0  0  0  0  0  0  0  0  0  0  0
    3.6500    1.9500    0.0000 C   0  0  0  0  0  0  0  0  0  0  0  0
    2.2200   -0.0200    0.0000 C   0  0  0  0  0  0  0  0  0  0  0  0
   -0.3800   -0.0200    0.0000 C   0  0  0  0  0  0  0  0  0  0  0  0
    0.9200    2.2300    0.0000 C   0  0  0  0  0  0  0  0  0  0  0  0
    7.5116    5.4268    0.0000 C   0  0  0  0  0  0  0  0  0  0  0  0
   -1.6800   -0.7700    0.0000 C   0  0  0  0  0  0  0  0  0  0  0  0
    2.2200    1.4800    0.0000 C   0  0  0  0  0  0  0  0  0  0  0  0
   -5.5689   -3.0202    0.0000 O   0  0  0  0  0  0  0  0  0  0  0  0
    0.9200    3.7300    0.0000 O   0  0  0  0  0  0  0  0  0  0  0  0
    8.5152    4.3121    0.0000 O   0  0  0  0  0  0  0  0  0  0  0  0
    7.9751    6.8534    0.0000 O   0  0  0  0  0  0  0  0  0  0  0  0
  7  6  1  0
  9  8  1  0
 10  5  1  0
 12 11  1  0
 15  1  1  6
 15  5  1  0
 16  6  1  6
 16 13  1  0
 17 11  1  0
 17 13  1  0
 18  7  1  6
 19  8  1  1
 19 15  1  0
 20  9  1  1
 20 18  1  0
 21 14  1  1
 21 18  1  0
 22 14  1  0
 23 10  1  0
 24  2  1  1
 24 12  1  0
 24 16  1  0
 24 21  1  0
 25  3  1  1
 25 19  1  0
 25 20  1  0
 25 22  1  0
 17 26  1  1
 22 27  1  1
 28 23  2  0
 29  4  1  0
 29 23  1  0
M  END
>  <NAME>  (36) 
3beta,12beta-Dihydroxy-5beta-cholan-24-oic acid Methyl ester

>  <SYNONYMS>  (36) 


>  <SPECTRUM TYPE>  (36) 
MS1

>  <INSTRUMENT TYPE>  (36) 
EI-B

>  <INSTRUMENT>  (36) 
JEOL GCmate

>  <ION MODE>  (36) 
P

>  <INCHIKEY>  (36) 
ZHUOOEGSSFNTNP-PLQQDRFXSA-N

>  <FORMULA>  (36) 
C25H42O4

>  <EXACT MASS>  (36) 
406.308309824

>  <MW>  (36) 
406

>  <ID>  (36) 
NU000035

>  <CONTRIBUTOR>  (36) 
Takashi Iida, {Department of Chemistry, College of Humanities and Sciences, Nihon University

>  <COMMENT>  (36) 
compound class=Natural Product; BILE ACID
SMILES=C(C1(C)4)([H])(C(C)CCC(=O)OC)CCC1(C(C3([H])CC4O)([H])CCC(C3(C)2)([H])CC(O)CC2)[H]
chemspider=10295393
lipidbank=BBA0043
InChI=InChI=1S/C25H42O4/c1-15(5-10-23(28)29-4)19-8-9-20-18-7-6-16-13-17(26)11-12-24(16,2)21(18)14-22(27)25(19,20)3/h15-22,26-27H,5-14H2,1-4H3/t15-,16-,17+,18+,19-,20+,21+,22-,24+,25-/m1/s1
computed SMILES=O=C(OC)CCC(C)C1CCC2C3CCC4CC(O)CCC4(C)C3CC(O)C12C
accession=NU000035
date=2016.01.19 (Created 2008.09.08, modified 2011.05.06)
author=Takashi Iida, Department of Chemistry, College of Humanities and Sciences, Nihon University. Koichi Metori, Chemical Analytical Center, College of Pharmacy, Nihon Univercity.
license=CC BY-NC-SA
publication=Iida, T., Chang, F. C., Matsumoto, T., and Tamura, T. 1982. High Resolution Mass Spectra of Mono-, Di- and Trihydroxy Stereoisomers of Bile Acids. Biomed. Mass Spectrom. 9: 473-476. doi:10.1002/bms.1200091104
comment=Mass spectral data were collected from the publications cited in LipidBank
comment=[Analytical] Sample was directly injected
exact mass=406.30831
ionization potential=70 eV
source temperature=200 C
ion type=[M]+*
computed spectral entropy=4.796899163451504
computed normalized entropy=0.8434886495690432
SPLASH=splash10-0ab9-4971000000-cd8ee7058592af904be4
submitter=submitter = Takashi Iida (Department of Chemistry, College of Humanities and Sciences, Nihon University)
MoNA Rating=3.75

>  <NUM PEAKS>  (36) 
295

>  <MASS SPECTRAL PEAKS>  (36) 
51.0 0.4
53.0 4.0
54.1 1.2
55.1 33.5
56.1 2.8
57.1 6.0
58.1 2.2
59.0 5.1
60.1 0.5
65.1 1.7
66.1 1.0
67.1 21.0
68.1 3.6
69.1 13.3
70.1 1.7
71.1 3.9
72.1 0.7
73.1 6.7
74.1 4.4
75.1 0.4
77.1 5.8
78.1 1.6
79.1 20.8
80.1 4.8
81.1 45.7
82.1 6.0
83.1 14.0
84.1 6.1
85.1 3.6
86.1 0.6
87.1 3.0
88.1 0.7
91.1 17.2
92.1 4.2
93.1 28.4
94.1 11.7
95.1 29.1
96.1 4.8
97.1 7.2
98.1 2.8
99.1 3.1
100.1 0.8
101.1 1.3
102.1 0.3
103.0 0.9
104.1 1.0
105.1 24.0
106.1 9.1
107.1 34.9
108.1 16.3
109.1 23.8
110.1 5.3
111.1 6.2
112.1 2.3
113.1 1.5
114.1 0.8
115.1 10.1
116.1 1.7
117.1 4.6
118.1 3.1
119.1 18.0
120.1 10.0
120.6 0.4
121.1 37.0
121.6 0.3
122.1 12.7
123.1 11.4
124.1 9.2
125.1 4.0
126.1 1.1
127.1 1.8
127.6 0.5
128.1 1.4
129.1 2.6
130.1 1.3
131.1 9.8
132.1 3.2
133.1 16.4
134.1 7.1
135.1 15.2
136.1 3.9
137.1 7.1
138.1 1.9
139.1 2.1
140.1 0.8
141.1 2.6
142.1 1.0
143.1 3.8
144.1 1.8
145.1 15.0
146.1 4.8
147.1 36.3
148.1 9.7
148.6 0.4
149.1 11.8
150.1 2.5
151.1 2.6
152.1 0.8
153.1 1.6
154.1 26.2
155.1 4.9
156.1 1.1
157.1 4.3
158.1 2.0
159.1 14.3
160.1 4.7
161.1 17.2
162.1 4.6
163.1 7.5
164.1 2.4
165.1 5.8
166.1 1.2
167.1 1.0
168.1 3.7
169.1 1.6
170.1 0.5
171.1 4.3
172.1 1.5
173.1 9.1
174.1 3.2
175.1 7.6
176.1 2.3
177.1 3.5
178.1 1.3
179.1 1.6
180.1 0.8
181.1 0.9
182.1 0.5
183.1 0.9
184.1 0.4
185.1 4.4
186.1 1.5
187.1 8.0
188.1 2.3
189.1 4.4
190.1 2.1
191.1 2.7
192.1 1.6
193.1 1.9
194.1 1.8
195.1 14.3
196.1 2.8
197.1 1.5
198.1 0.5
199.1 6.2
200.1 2.4
201.2 10.9
202.2 3.3
203.1 6.7
204.1 1.6
205.1 5.1
206.1 1.2
207.1 1.4
208.1 16.4
209.1 7.7
210.1 1.2
211.1 1.4
212.1 0.6
213.1 9.1
214.1 3.8
215.2 8.4
216.2 4.2
217.2 4.3
218.2 2.8
219.2 4.5
220.1 1.5
221.1 2.7
222.1 0.8
223.2 0.6
225.1 0.8
226.1 0.4
227.2 3.4
228.2 2.3
229.2 4.9
230.2 1.7
231.2 10.2
232.2 4.2
233.2 5.6
234.2 3.4
235.2 1.5
236.2 0.6
237.1 0.5
239.2 0.6
240.1 0.3
241.2 2.0
242.2 1.0
243.2 1.8
244.2 0.8
245.2 2.3
246.2 3.6
247.2 3.0
248.2 1.1
249.2 7.7
250.2 3.1
251.2 1.0
252.2 0.4
253.2 3.0
254.2 1.9
255.2 100.0
256.2 27.4
257.2 4.4
258.2 0.9
259.2 2.3
260.2 2.4
261.2 1.7
262.2 2.3
263.2 2.7
264.2 1.1
265.2 0.7
266.2 0.3
267.2 0.5
269.2 0.7
270.2 1.2
271.2 9.5
272.2 15.0
273.2 98.3
274.2 30.9
275.2 5.0
276.2 1.3
277.2 0.8
278.2 0.4
279.2 0.4
281.2 0.6
283.2 3.1
284.2 0.9
285.2 0.7
286.2 0.3
287.2 0.8
288.2 0.6
289.2 0.7
290.2 0.4
291.2 4.6
292.2 1.1
293.2 0.3
295.2 0.5
297.2 1.3
298.2 0.4
299.2 0.9
300.2 0.5
301.2 2.4
302.2 1.0
303.2 0.8
304.2 0.4
305.2 0.6
306.2 0.3
309.2 0.3
311.2 0.3
313.2 0.8
314.3 0.7
315.2 1.4
316.3 1.4
317.2 0.9
318.2 0.7
319.2 0.6
321.2 0.4
323.2 0.8
327.2 0.6
328.2 0.7
329.2 1.3
330.2 0.8
331.2 0.7
332.2 0.4
333.3 0.5
334.2 0.4
337.2 0.4
338.2 0.4
339.3 1.0
340.3 0.3
341.3 1.6
342.3 0.5
343.2 0.6
344.3 0.5
345.2 1.0
346.3 0.6
354.2 0.4
355.2 4.4
356.2 2.5
357.2 11.2
358.2 3.2
359.2 2.8
360.3 1.0
369.3 0.4
370.3 6.0
371.3 2.2
372.3 0.8
373.3 7.4
374.3 2.2
375.3 1.0
386.3 1.6
387.3 0.7
388.3 23.0
389.3 6.7
390.3 1.2
391.3 0.5
404.2 0.6

$$$$

     RDKit          2D

 29 32  0  0  1  0  0  0  0  0999 V2000
    3.1099    4.4913    0.0000 C   0  0  0  0  0  0  0  0  0  0  0  0
   -1.6775    0.7300    0.0000 C   0  0  0  0  0  0  0  0  0  0  0  0
    2.3740    2.9721    0.0000 C   0  0  0  0  0  0  0  0  0  0  0  0
    9.4424    7.1652    0.0000 C   0  0  0  0  0  0  0  0  0  0  0  0
    5.5808    3.6884    0.0000 C   0  0  0  0  0  0  0  0  0  0  0  0
   -0.3800   -3.0200    0.0000 C   0  0  0  0  0  0  0  0  0  0  0  0
    0.9200   -2.2700    0.0000 C   0  0  0  0  0  0  0  0  0  0  0  0
    4.5300    0.7300    0.0000 C   0  0  0  0  0  0  0  0  0  0  0  0
    3.6500   -0.4800    0.0000 C   0  0  0  0  0  0  0  0  0  0  0  0
    6.0443    5.1150    0.0000 C   0  0  0  0  0  0  0  0  0  0  0  0
   -4.2700   -0.7700    0.0000 C   0  0  0  0  0  0  0  0  0  0  0  0
   -2.9700   -0.0200    0.0000 C   0  0  0  0  0  0  0  0  0  0  0  0
   -2.9700   -3.0200    0.0000 C   0  0  0  0  0  0  0  0  0  0  0  0
   -0.3800    1.4800    0.0000 C   0  0  0  0  0  0  0  0  0  0  0  0
    4.1136    3.3766    0.0000 C   0  0  0  0  0  0  0  0  0  0  0  0
   -1.6800   -2.2700    0.0000 C   0  0  0  0  0  0  0  0  0  0  0  0
   -4.2700   -2.2700    0.0000 C   0  0  0  0  0  0  0  0  0  0  0  0
    0.9200   -0.7700    0.0000 C   0  0  0  0  0  0  0  0  0  0  0  0
    3.6500    1.9500    0.0000 C   0  0  0  0  0  0  0  0  0  0  0  0
    2.2200   -0.0200    0.0000 C   0  0  0  0  0  0  0  0  0  0  0  0
   -0.3800   -0.0200    0.0000 C   0  0  0  0  0  0  0  0  0  0  0  0
    0.9200    2.2300    0.0000 C   0  0  0  0  0  0  0  0  0  0  0  0
    7.5116    5.4268    0.0000 C   0  0  0  0  0  0  0  0  0  0  0  0
   -1.6800   -0.7700    0.0000 C   0  0  0  0  0  0  0  0  0  0  0  0
    2.2200    1.4800    0.0000 C   0  0  0  0  0  0  0  0  0  0  0  0
   -5.5689   -3.0202    0.0000 O   0  0  0  0  0  0  0  0  0  0  0  0
    0.9200    3.7300    0.0000 O   0  0  0  0  0  0  0  0  0  0  0  0
    8.5152    4.3121    0.0000 O   0  0  0  0  0  0  0  0  0  0  0  0
    7.9751    6.8534    0.0000 O   0  0  0  0  0  0  0  0  0  0  0  0
  7  6  1  0
  9  8  1  0
 10  5  1  0
 12 11  1  0
 15  1  1  6
 15  5  1  0
 16  6  1  6
 16 13  1  0
 17 11  1  0
 17 13  1  0
 18  7  1  6
 19  8  1  1
 19 15  1  0
 20  9  1  1
 20 18  1  0
 21 14  1  1
 21 18  1  0
 22 14  1  0
 23 10  1  0
 24  2  1  1
 24 12  1  0
 24 16  1  0
 24 21  1  0
 25  3  1  1
 25 19  1  0
 25 20  1  0
 25 22  1  0
 17 26  1  6
 22 27  1  1
 28 23  2  0
 29  4  1  0
 29 23  1  0
M  END
>  <NAME>  (37) 
3alpha,12beta-Dihydroxy-5beta-cholan-24-oic acid Methyl ester

>  <SYNONYMS>  (37) 
Lagodeoxycholic Acid Methyl ester
Isodeoxycholic Acid Methyl ester

>  <SPECTRUM TYPE>  (37) 
MS1

>  <INSTRUMENT TYPE>  (37) 
EI-B

>  <INSTRUMENT>  (37) 
JEOL GCmate

>  <ION MODE>  (37) 
P

>  <INCHIKEY>  (37) 
ZHUOOEGSSFNTNP-QFSGMOSZSA-N

>  <FORMULA>  (37) 
C25H42O4

>  <EXACT MASS>  (37) 
406.308309824

>  <MW>  (37) 
406

>  <ID>  (37) 
NU000034

>  <CONTRIBUTOR>  (37) 
Takashi Iida, {Department of Chemistry, College of Humanities and Sciences, Nihon University

>  <COMMENT>  (37) 
compound class=Natural Product; BILE ACID
SMILES=C(C1(C)4)([H])(C(C)CCC(=O)OC)CCC1(C(C3([H])CC4O)([H])CCC(C3(C)2)([H])CC(O)CC2)[H]
chemspider=10295392
lipidbank=BBA0041
InChI=InChI=1S/C25H42O4/c1-15(5-10-23(28)29-4)19-8-9-20-18-7-6-16-13-17(26)11-12-24(16,2)21(18)14-22(27)25(19,20)3/h15-22,26-27H,5-14H2,1-4H3/t15-,16-,17-,18+,19-,20+,21+,22-,24+,25-/m1/s1
computed SMILES=O=C(OC)CCC(C)C1CCC2C3CCC4CC(O)CCC4(C)C3CC(O)C12C
accession=NU000034
date=2016.01.19 (Created 2008.09.08, modified 2011.05.06)
author=Takashi Iida, Department of Chemistry, College of Humanities and Sciences, Nihon University. Koichi Metori, Chemical Analytical Center, College of Pharmacy, Nihon Univercity.
license=CC BY-NC-SA
publication=Iida, T., Chang, F. C., Matsumoto, T., and Tamura, T. 1982. High Resolution Mass Spectra of Mono-, Di- and Trihydroxy Stereoisomers of Bile Acids. Biomed. Mass Spectrom. 9: 473-476. doi:10.1002/bms.1200091104
comment=Mass spectral data were collected from the publications cited in LipidBank
comment=[Analytical] Sample was directly injected
exact mass=406.30831
ionization potential=70 eV
source temperature=200 C
ion type=[M]+*
computed spectral entropy=4.935906345123302
computed normalized entropy=0.8566231047286735
SPLASH=splash10-0ab9-4972000000-babe2194b0b3a311d67c
submitter=submitter = Takashi Iida (Department of Chemistry, College of Humanities and Sciences, Nihon University)
MoNA Rating=3.75

>  <NUM PEAKS>  (37) 
318

>  <MASS SPECTRAL PEAKS>  (37) 
51.0 0.4
53.0 5.0
54.1 1.7
55.1 40.5
56.1 3.4
57.1 7.2
58.1 1.5
59.0 6.1
60.1 0.6
65.1 2.2
66.1 1.3
67.1 26.8
68.1 4.7
69.1 17.6
70.1 2.2
71.1 4.7
72.1 0.7
73.1 8.6
74.1 5.1
75.1 0.5
77.1 7.5
78.1 1.9
79.1 25.8
80.1 5.9
81.1 58.6
82.1 7.9
83.1 19.0
84.1 8.1
85.1 4.5
86.1 0.7
87.1 3.4
88.1 0.8
91.1 22.3
92.1 5.3
93.1 37.4
94.1 14.7
95.1 39.5
96.1 6.0
97.1 9.0
98.1 3.1
99.1 3.8
100.1 1.0
101.1 1.6
102.1 0.4
103.0 1.2
104.1 1.5
105.1 31.8
106.1 11.0
106.6 0.3
107.1 41.5
107.6 0.3
108.1 14.6
109.1 31.0
110.1 6.0
111.1 7.3
112.1 2.4
113.1 1.9
113.6 0.3
114.1 1.1
115.1 13.4
116.1 2.5
117.1 6.5
118.1 5.7
119.1 23.3
120.1 12.0
120.6 0.5
121.1 41.8
121.6 0.4
122.1 12.6
123.1 14.0
124.1 5.6
125.1 3.8
126.1 0.9
127.1 2.0
127.6 0.6
128.1 1.9
129.1 3.7
130.1 1.9
131.1 13.7
132.1 4.9
133.1 20.3
134.1 7.8
134.6 0.3
135.1 18.7
136.1 5.2
137.1 7.3
138.1 2.0
139.1 2.4
140.1 0.8
141.1 4.1
142.1 1.7
143.1 6.2
144.1 2.7
145.1 20.8
146.1 6.7
147.1 33.7
148.1 9.0
148.6 0.4
149.1 16.8
150.1 3.6
151.1 3.6
151.6 0.3
152.1 1.1
153.1 1.9
154.1 31.2
155.1 6.7
156.1 1.7
157.1 7.4
157.6 0.4
158.1 3.2
159.1 19.5
160.1 6.7
161.1 24.9
162.1 7.7
163.1 11.4
164.1 2.8
165.1 5.7
166.1 1.1
167.1 1.2
168.1 5.3
169.1 2.5
170.1 0.9
171.1 7.0
172.1 2.7
173.1 13.8
174.1 5.2
175.1 11.0
176.1 2.9
177.1 4.4
178.1 1.8
179.1 1.8
180.1 0.6
181.1 1.2
182.1 0.7
183.1 1.5
184.1 0.7
185.1 6.6
186.1 2.4
187.1 15.8
188.1 4.1
189.1 6.9
190.1 2.2
191.1 5.2
192.2 1.7
193.1 2.7
194.1 3.1
195.1 21.6
196.1 4.3
197.1 2.3
198.1 0.8
199.1 10.2
200.1 5.6
201.2 17.6
202.2 6.3
203.2 13.1
204.2 2.8
205.1 1.9
206.1 0.8
207.1 1.9
208.1 23.6
209.1 10.2
210.1 1.6
211.1 2.1
212.1 0.9
213.1 15.9
214.2 6.8
215.2 13.5
216.2 9.2
217.2 9.1
218.2 3.6
219.2 2.8
220.2 1.0
221.1 2.4
222.2 0.9
223.1 0.9
224.1 0.4
225.2 1.3
226.2 0.8
227.2 7.1
228.2 6.9
229.2 10.5
230.2 3.8
231.2 24.3
232.2 7.2
233.2 6.0
234.2 2.5
235.2 1.3
236.2 0.5
237.2 0.7
239.2 1.2
240.2 0.6
241.2 4.0
242.2 2.5
243.2 3.1
244.2 1.4
245.2 2.9
246.2 4.2
247.2 3.8
248.2 1.5
249.2 11.5
250.2 3.2
251.2 1.6
252.1 0.6
253.2 5.4
254.2 5.5
255.1 99.9
256.2 39.2
257.2 6.1
258.2 1.3
259.2 2.0
260.2 4.2
261.2 2.9
262.2 1.9
263.2 2.9
264.2 1.2
265.2 1.0
266.2 0.4
267.2 0.7
268.2 0.4
269.2 1.1
270.2 1.7
271.2 12.5
272.2 21.6
273.1 100.0
274.2 43.5
275.2 7.4
276.2 1.9
277.1 1.8
278.2 0.9
279.2 0.9
280.2 0.3
281.2 1.2
282.2 0.5
283.2 6.6
284.2 2.1
285.2 1.2
286.2 0.5
287.2 1.0
288.2 1.3
289.2 2.0
290.2 0.9
291.2 4.7
292.2 1.2
293.2 0.5
295.2 1.1
296.2 0.6
297.3 2.1
298.3 0.7
299.2 1.3
300.2 0.8
301.2 2.5
302.3 1.2
303.2 0.9
304.2 0.3
305.2 0.6
306.2 0.4
309.2 0.8
310.3 0.6
311.2 0.5
312.2 0.3
313.2 1.8
314.2 1.6
315.3 3.1
316.2 3.6
317.3 1.6
318.2 0.7
319.2 0.5
321.2 0.7
323.2 1.4
324.2 0.4
325.2 0.4
327.2 1.0
328.3 1.6
329.2 2.0
330.2 0.9
331.3 1.6
332.3 0.7
333.2 0.8
334.2 0.6
337.3 0.6
338.3 0.7
339.3 1.8
340.3 0.5
341.3 3.2
342.2 1.0
343.2 0.9
344.2 1.0
345.3 1.7
346.2 0.9
353.2 0.5
354.2 0.7
355.2 10.1
356.2 4.1
357.2 17.7
358.3 5.3
359.3 10.6
360.3 3.2
361.3 0.6
362.2 0.4
368.3 0.7
369.3 1.2
370.3 35.1
371.3 11.2
372.3 2.2
373.3 6.9
374.3 2.0
375.3 0.6
384.3 0.4
386.3 3.7
387.3 1.4
388.3 25.0
389.3 7.4
390.3 1.3
391.3 0.5
402.3 0.7
404.3 9.2
405.2 2.7
406.3 0.6

$$$$

     RDKit          2D

 29 32  0  0  1  0  0  0  0  0999 V2000
    3.1099    4.4913    0.0000 C   0  0  0  0  0  0  0  0  0  0  0  0
   -1.6775    0.7300    0.0000 C   0  0  0  0  0  0  0  0  0  0  0  0
    2.3740    2.9721    0.0000 C   0  0  0  0  0  0  0  0  0  0  0  0
    9.4424    7.1652    0.0000 C   0  0  0  0  0  0  0  0  0  0  0  0
    5.5808    3.6884    0.0000 C   0  0  0  0  0  0  0  0  0  0  0  0
   -0.3800   -3.0200    0.0000 C   0  0  0  0  0  0  0  0  0  0  0  0
    0.9200   -2.2700    0.0000 C   0  0  0  0  0  0  0  0  0  0  0  0
    4.5300    0.7300    0.0000 C   0  0  0  0  0  0  0  0  0  0  0  0
    3.6500   -0.4800    0.0000 C   0  0  0  0  0  0  0  0  0  0  0  0
    6.0443    5.1150    0.0000 C   0  0  0  0  0  0  0  0  0  0  0  0
   -4.2700   -0.7700    0.0000 C   0  0  0  0  0  0  0  0  0  0  0  0
   -2.9700   -0.0200    0.0000 C   0  0  0  0  0  0  0  0  0  0  0  0
   -2.9700   -3.0200    0.0000 C   0  0  0  0  0  0  0  0  0  0  0  0
   -0.3800    1.4800    0.0000 C   0  0  0  0  0  0  0  0  0  0  0  0
    4.1136    3.3766    0.0000 C   0  0  0  0  0  0  0  0  0  0  0  0
   -1.6800   -2.2700    0.0000 C   0  0  0  0  0  0  0  0  0  0  0  0
   -4.2700   -2.2700    0.0000 C   0  0  0  0  0  0  0  0  0  0  0  0
    0.9200   -0.7700    0.0000 C   0  0  0  0  0  0  0  0  0  0  0  0
    3.6500    1.9500    0.0000 C   0  0  0  0  0  0  0  0  0  0  0  0
    2.2200   -0.0200    0.0000 C   0  0  0  0  0  0  0  0  0  0  0  0
   -0.3800   -0.0200    0.0000 C   0  0  0  0  0  0  0  0  0  0  0  0
    0.9200    2.2300    0.0000 C   0  0  0  0  0  0  0  0  0  0  0  0
    7.5116    5.4268    0.0000 C   0  0  0  0  0  0  0  0  0  0  0  0
   -1.6800   -0.7700    0.0000 C   0  0  0  0  0  0  0  0  0  0  0  0
    2.2200    1.4800    0.0000 C   0  0  0  0  0  0  0  0  0  0  0  0
   -5.5689   -3.0202    0.0000 O   0  0  0  0  0  0  0  0  0  0  0  0
    0.9200    3.7300    0.0000 O   0  0  0  0  0  0  0  0  0  0  0  0
    8.5152    4.3121    0.0000 O   0  0  0  0  0  0  0  0  0  0  0  0
    7.9751    6.8534    0.0000 O   0  0  0  0  0  0  0  0  0  0  0  0
  7  6  1  0
  9  8  1  0
 10  5  1  0
 12 11  1  0
 15  1  1  6
 15  5  1  0
 16  6  1  6
 16 13  1  0
 17 11  1  0
 17 13  1  0
 18  7  1  6
 19  8  1  1
 19 15  1  0
 20  9  1  1
 20 18  1  0
 21 14  1  1
 21 18  1  0
 22 14  1  0
 23 10  1  0
 24  2  1  1
 24 12  1  0
 24 16  1  0
 24 21  1  0
 25  3  1  1
 25 19  1  0
 25 20  1  0
 25 22  1  0
 17 26  1  1
 22 27  1  6
 28 23  2  0
 29  4  1  0
 29 23  1  0
M  END
>  <NAME>  (38) 
3beta,12alpha-Dihydroxy-5beta-cholan-24-oic acid Methyl ester

>  <SYNONYMS>  (38) 
Isodeoxycholic Acid Methyl ester

>  <SPECTRUM TYPE>  (38) 
MS1

>  <INSTRUMENT TYPE>  (38) 
EI-B

>  <INSTRUMENT>  (38) 
JEOL GCmate

>  <ION MODE>  (38) 
P

>  <INCHIKEY>  (38) 
ZHUOOEGSSFNTNP-WIQCXVCASA-N

>  <FORMULA>  (38) 
C25H42O4

>  <EXACT MASS>  (38) 
406.308309824

>  <MW>  (38) 
406

>  <ID>  (38) 
NU000033

>  <CONTRIBUTOR>  (38) 
Takashi Iida, {Department of Chemistry, College of Humanities and Sciences, Nihon University

>  <COMMENT>  (38) 
compound class=Natural Product; BILE ACID
SMILES=C(C1(C)4)([H])(C(C)CCC(=O)OC)CCC1(C(C3([H])CC4O)([H])CCC(C3(C)2)([H])CC(O)CC2)[H]
lipidbank=BBA0042
InChI=InChI=1S/C25H42O4/c1-15(5-10-23(28)29-4)19-8-9-20-18-7-6-16-13-17(26)11-12-24(16,2)21(18)14-22(27)25(19,20)3/h15-22,26-27H,5-14H2,1-4H3/t15-,16-,17+,18+,19-,20+,21+,22+,24+,25-/m1/s1
computed SMILES=O=C(OC)CCC(C)C1CCC2C3CCC4CC(O)CCC4(C)C3CC(O)C12C
accession=NU000033
date=2016.01.19 (Created 2008.09.08, modified 2011.05.06)
author=Takashi Iida, Department of Chemistry, College of Humanities and Sciences, Nihon University. Koichi Metori, Chemical Analytical Center, College of Pharmacy, Nihon Univercity.
license=CC BY-NC-SA
publication=Iida, T., Chang, F. C., Matsumoto, T., and Tamura, T. 1982. High Resolution Mass Spectra of Mono-, Di- and Trihydroxy Stereoisomers of Bile Acids. Biomed. Mass Spectrom. 9: 473-476. doi:10.1002/bms.1200091104
comment=Mass spectral data were collected from the publications cited in LipidBank
comment=[Analytical] Sample was directly injected
exact mass=406.30831
ionization potential=70 eV
source temperature=200 C
ion type=[M]+*
computed spectral entropy=4.813510252176314
computed normalized entropy=0.8434233839685797
SPLASH=splash10-05fr-4961000000-7f529260adb853b0f658
submitter=submitter = Takashi Iida (Department of Chemistry, College of Humanities and Sciences, Nihon University)
MoNA Rating=3.75

>  <NUM PEAKS>  (38) 
301

>  <MASS SPECTRAL PEAKS>  (38) 
51.0 0.4
53.0 3.5
54.1 1.1
55.1 29.7
56.1 2.5
57.1 5.2
58.1 1.7
59.0 4.4
60.0 0.4
65.1 1.6
66.1 0.9
67.1 18.3
67.2 0.8
68.1 3.3
69.1 11.9
70.1 1.5
71.1 3.4
72.1 0.6
73.1 6.2
74.1 4.1
75.1 0.4
77.1 5.4
78.1 1.4
79.1 18.5
80.1 4.2
81.1 39.7
82.1 5.4
83.1 12.6
84.0 0.6
84.1 5.6
85.1 3.5
86.1 0.5
87.1 2.9
88.1 0.7
91.0 15.5
92.0 3.7
93.1 25.3
94.1 9.9
95.1 25.8
96.1 4.2
97.1 6.3
98.1 2.4
99.1 3.0
100.1 0.8
101.0 1.2
103.0 0.8
104.1 0.9
105.1 22.0
106.1 8.3
107.1 32.4
108.1 14.1
109.1 21.8
110.1 4.8
111.1 5.6
112.1 1.8
113.1 1.5
114.1 0.8
115.1 8.2
116.1 1.4
117.1 4.3
118.1 2.9
119.1 17.0
120.1 9.4
120.6 0.4
121.1 29.4
121.6 0.3
122.1 11.6
123.1 10.5
124.1 7.5
125.1 3.5
126.1 0.9
127.1 1.9
127.6 0.6
128.1 1.4
129.1 2.5
130.1 1.3
131.1 10.3
132.1 3.5
133.1 16.5
134.1 7.8
134.6 0.3
135.1 16.2
136.1 3.5
137.1 5.5
138.1 1.5
139.1 1.5
140.1 0.8
141.1 3.5
142.1 1.2
143.1 4.0
144.1 2.0
145.1 15.8
146.1 5.2
147.1 35.5
148.1 8.4
148.6 0.4
149.1 10.8
150.1 2.2
150.6 0.3
151.1 2.5
152.1 0.9
153.1 1.2
154.1 46.8
155.1 7.5
156.1 1.4
157.1 4.4
158.1 2.3
159.1 14.1
160.1 4.7
161.1 16.6
162.1 4.4
163.1 6.9
164.1 2.1
165.1 3.4
166.1 0.8
167.1 1.0
168.1 0.9
169.1 1.4
170.1 0.5
171.1 4.4
172.1 1.7
173.1 10.5
174.1 3.4
175.1 7.0
176.1 2.4
177.1 4.3
178.1 1.4
179.1 1.8
180.1 0.8
181.1 1.1
182.1 0.4
183.1 1.2
184.1 0.5
185.1 4.4
186.1 1.5
187.1 6.4
188.1 2.0
189.1 4.4
190.2 1.9
191.1 2.3
192.1 1.3
193.1 1.6
194.1 1.1
195.1 7.9
196.1 1.6
197.1 1.6
198.1 0.5
199.0 0.6
199.1 6.0
200.1 2.1
201.1 10.5
202.2 2.9
203.2 5.5
204.1 1.3
205.1 2.0
206.1 0.8
207.1 1.6
208.1 9.1
209.1 6.1
210.1 1.0
211.1 1.8
212.1 0.8
213.2 11.3
214.1 3.8
215.2 8.3
216.2 4.1
217.2 3.9
218.1 1.4
219.1 3.5
220.2 1.5
221.1 3.0
222.1 1.0
223.2 0.7
225.2 0.8
226.2 0.5
227.2 3.0
228.2 2.6
229.2 6.9
230.2 2.1
231.2 7.3
232.0 0.5
232.2 3.5
233.2 5.0
234.2 2.3
235.2 1.4
236.2 0.7
237.1 0.7
239.2 0.7
240.1 0.3
241.2 1.9
242.2 1.0
243.2 1.3
244.2 0.8
245.2 1.7
246.2 3.7
247.2 3.1
248.2 1.1
249.2 5.6
250.2 2.2
251.2 0.9
252.2 0.3
253.2 3.0
254.2 1.6
255.2 76.9
256.2 18.2
257.1 0.7
257.2 3.1
258.2 0.7
259.2 1.5
260.2 1.7
261.2 2.1
262.2 3.4
263.2 2.6
264.2 1.0
265.2 0.7
267.2 0.5
269.2 0.7
270.2 0.9
271.2 8.3
272.2 15.8
273.1 100.0
274.2 40.1
275.2 5.7
276.2 1.2
277.1 2.8
278.1 1.4
279.1 0.5
281.2 0.7
283.2 2.5
284.2 1.0
285.2 0.6
286.2 0.4
287.2 0.9
288.2 0.8
289.2 0.7
290.2 0.3
291.2 1.9
292.2 0.6
295.2 0.6
296.2 0.4
297.2 2.2
298.2 0.7
299.2 0.8
300.2 0.6
301.2 2.1
302.2 1.6
303.2 0.8
304.2 0.3
305.2 0.6
313.2 1.1
314.2 1.1
315.2 2.2
316.2 2.7
317.2 1.2
318.2 1.0
319.2 0.5
321.2 0.4
323.2 1.0
327.2 0.5
328.2 0.7
329.2 1.5
330.2 0.8
331.2 0.9
332.2 0.5
333.3 0.5
334.2 0.3
337.2 0.4
338.2 0.4
339.2 1.5
340.3 0.4
341.2 1.3
342.2 0.5
343.2 0.5
344.2 0.5
345.2 0.8
346.2 0.6
353.2 0.3
354.2 0.6
354.9 0.6
355.2 5.8
356.2 2.9
357.2 8.3
358.2 2.5
359.2 1.8
360.2 0.6
368.3 0.4
369.2 0.5
370.3 8.6
371.3 3.0
372.3 0.8
373.2 5.5
374.2 1.6
375.3 0.7
386.3 1.4
387.3 0.7
388.3 22.3
389.3 6.4
390.3 1.2
391.3 0.4
404.2 0.8
406.3 0.4

$$$$

     RDKit          2D

 29 32  0  0  1  0  0  0  0  0999 V2000
    3.1099    4.4913    0.0000 C   0  0  0  0  0  0  0  0  0  0  0  0
   -1.6775    0.7300    0.0000 C   0  0  0  0  0  0  0  0  0  0  0  0
    2.3740    2.9721    0.0000 C   0  0  0  0  0  0  0  0  0  0  0  0
    9.4424    7.1652    0.0000 C   0  0  0  0  0  0  0  0  0  0  0  0
    5.5808    3.6884    0.0000 C   0  0  0  0  0  0  0  0  0  0  0  0
   -0.3800   -3.0200    0.0000 C   0  0  0  0  0  0  0  0  0  0  0  0
    0.9200   -2.2700    0.0000 C   0  0  0  0  0  0  0  0  0  0  0  0
    4.5300    0.7300    0.0000 C   0  0  0  0  0  0  0  0  0  0  0  0
    3.6500   -0.4800    0.0000 C   0  0  0  0  0  0  0  0  0  0  0  0
    6.0443    5.1150    0.0000 C   0  0  0  0  0  0  0  0  0  0  0  0
   -4.2700   -0.7700    0.0000 C   0  0  0  0  0  0  0  0  0  0  0  0
   -2.9700   -0.0200    0.0000 C   0  0  0  0  0  0  0  0  0  0  0  0
   -2.9700   -3.0200    0.0000 C   0  0  0  0  0  0  0  0  0  0  0  0
   -0.3800    1.4800    0.0000 C   0  0  0  0  0  0  0  0  0  0  0  0
    4.1136    3.3766    0.0000 C   0  0  0  0  0  0  0  0  0  0  0  0
   -1.6800   -2.2700    0.0000 C   0  0  0  0  0  0  0  0  0  0  0  0
   -4.2700   -2.2700    0.0000 C   0  0  0  0  0  0  0  0  0  0  0  0
    0.9200   -0.7700    0.0000 C   0  0  0  0  0  0  0  0  0  0  0  0
    3.6500    1.9500    0.0000 C   0  0  0  0  0  0  0  0  0  0  0  0
    2.2200   -0.0200    0.0000 C   0  0  0  0  0  0  0  0  0  0  0  0
   -0.3800   -0.0200    0.0000 C   0  0  0  0  0  0  0  0  0  0  0  0
    0.9200    2.2300    0.0000 C   0  0  0  0  0  0  0  0  0  0  0  0
    7.5116    5.4268    0.0000 C   0  0  0  0  0  0  0  0  0  0  0  0
   -1.6800   -0.7700    0.0000 C   0  0  0  0  0  0  0  0  0  0  0  0
    2.2200    1.4800    0.0000 C   0  0  0  0  0  0  0  0  0  0  0  0
   -5.5689   -3.0202    0.0000 O   0  0  0  0  0  0  0  0  0  0  0  0
    0.9200    3.7300    0.0000 O   0  0  0  0  0  0  0  0  0  0  0  0
    8.5152    4.3121    0.0000 O   0  0  0  0  0  0  0  0  0  0  0  0
    7.9751    6.8534    0.0000 O   0  0  0  0  0  0  0  0  0  0  0  0
  7  6  1  0
  9  8  1  0
 10  5  1  0
 12 11  1  0
 15  1  1  6
 15  5  1  0
 16  6  1  6
 16 13  1  0
 17 11  1  0
 17 13  1  0
 18  7  1  6
 19  8  1  1
 19 15  1  0
 20  9  1  1
 20 18  1  0
 21 14  1  1
 21 18  1  0
 22 14  1  0
 23 10  1  0
 24  2  1  1
 24 12  1  0
 24 16  1  0
 24 21  1  0
 25  3  1  1
 25 19  1  0
 25 20  1  0
 25 22  1  0
 17 26  1  6
 22 27  1  6
 28 23  2  0
 29  4  1  0
 29 23  1  0
M  END
>  <NAME>  (39) 
3alpha,12alpha-Dihydroxy-5beta-cholan-24-oic acid Methyl ester

>  <SYNONYMS>  (39) 
3alpha,12alpha-Diol-5beta-24-cholanoic acid methyl ester
Deoxycholic Acid Methyl ester

>  <SPECTRUM TYPE>  (39) 
MS1

>  <INSTRUMENT TYPE>  (39) 
EI-B

>  <INSTRUMENT>  (39) 
JEOL GCmate

>  <ION MODE>  (39) 
P

>  <INCHIKEY>  (39) 
ZHUOOEGSSFNTNP-JMKDMENQSA-N

>  <FORMULA>  (39) 
C25H42O4

>  <EXACT MASS>  (39) 
406.308309824

>  <MW>  (39) 
406

>  <ID>  (39) 
NU000032

>  <CONTRIBUTOR>  (39) 
Takashi Iida, {Department of Chemistry, College of Humanities and Sciences, Nihon University

>  <COMMENT>  (39) 
compound class=Natural Product; BILE ACID
SMILES=C(C1(C)4)([H])(C(C)CCC(=O)OC)CCC1(C(C3([H])CC4O)([H])CCC(C3(C)2)([H])CC(O)CC2)[H]
chemspider=553230 199664 17600668 86301
lipidbank=BBA0040
pubchem cid=95608
InChI=InChI=1S/C25H42O4/c1-15(5-10-23(28)29-4)19-8-9-20-18-7-6-16-13-17(26)11-12-24(16,2)21(18)14-22(27)25(19,20)3/h15-22,26-27H,5-14H2,1-4H3/t15-,16-,17-,18+,19-,20+,21+,22+,24+,25-/m1/s1
computed SMILES=O=C(OC)CCC(C)C1CCC2C3CCC4CC(O)CCC4(C)C3CC(O)C12C
accession=NU000032
date=2016.01.19 (Created 2008.09.10, modified 2011.05.06)
author=Takashi Iida, Department of Chemistry, College of Humanities and Sciences, Nihon University. Koichi Metori, Chemical Analytical Center, College of Pharmacy, Nihon Univercity.
license=CC BY-NC-SA
publication=Iida, T., Chang, F. C., Matsumoto, T., and Tamura, T. 1982. High Resolution Mass Spectra of Mono-, Di- and Trihydroxy Stereoisomers of Bile Acids. Biomed. Mass Spectrom. 9: 473-476. doi:10.1002/bms.1200091104
comment=Mass spectral data were collected from the publications cited in LipidBank
comment=[Analytical] Sample was directly injected
exact mass=406.30831
ionization potential=70 eV
source temperature=200 C
ion type=[M]+*
computed spectral entropy=4.837022023866317
computed normalized entropy=0.8617337663043003
SPLASH=splash10-0ab9-4972000000-ccdec22c8c76fbd935dd
submitter=submitter = Takashi Iida (Department of Chemistry, College of Humanities and Sciences, Nihon University)
MoNA Rating=3.75

>  <NUM PEAKS>  (39) 
274

>  <MASS SPECTRAL PEAKS>  (39) 
53.0 3.7
54.1 1.2
55.1 31.6
56.1 2.6
57.1 5.4
58.1 1.6
59.0 4.8
65.1 1.7
66.1 1.0
67.1 20.3
68.1 3.6
69.1 13.5
70.1 1.8
71.1 3.6
72.1 0.5
73.1 6.7
74.1 4.0
77.1 5.6
78.1 1.5
79.1 20.0
80.1 4.5
81.1 43.5
82.1 6.0
83.1 14.8
84.1 6.5
85.1 3.7
86.1 0.5
87.1 2.8
88.1 0.7
91.1 17.2
92.1 4.2
93.1 28.2
94.1 10.7
95.1 30.2
96.1 4.4
97.1 6.7
98.1 2.1
99.1 3.2
100.1 0.8
101.1 1.3
103.0 0.9
104.1 1.1
105.1 25.3
106.1 9.2
107.1 32.6
108.1 11.3
109.1 23.0
110.1 4.6
111.1 5.7
112.1 1.6
113.1 1.5
114.1 0.9
115.1 9.3
116.1 1.7
117.1 5.4
118.1 5.0
119.1 19.8
120.1 10.3
121.1 27.2
122.1 9.4
123.1 10.6
124.1 4.0
125.1 2.9
126.1 0.7
127.1 1.8
127.6 0.6
128.1 1.5
129.1 3.1
130.1 1.7
131.1 13.0
132.1 5.0
133.1 17.9
134.1 7.7
135.1 15.7
136.1 3.7
137.1 5.1
138.1 1.5
139.1 1.4
140.1 0.8
141.1 5.0
142.1 1.7
143.1 5.6
144.1 2.7
145.1 19.9
146.1 6.6
147.1 32.0
148.1 7.8
149.1 11.8
150.1 2.6
151.1 2.8
152.1 0.8
153.1 1.2
154.1 39.1
155.1 7.9
156.1 1.7
157.1 6.9
158.1 3.3
159.1 18.1
160.1 5.9
161.1 20.3
162.1 5.8
163.1 8.2
164.1 2.2
165.1 3.2
166.1 0.8
167.1 1.2
168.1 0.8
169.1 2.2
170.1 0.8
171.1 6.3
172.1 2.6
173.1 14.3
174.1 4.8
175.1 8.0
176.1 2.3
177.1 4.8
178.1 1.5
179.1 1.4
180.1 0.6
181.1 1.4
183.1 1.5
184.1 0.6
185.1 5.7
186.1 2.1
187.1 8.7
188.1 2.9
189.2 5.2
190.2 1.6
191.1 3.1
192.1 1.3
193.1 2.0
194.1 1.5
195.1 9.0
196.1 1.9
197.1 2.2
198.1 0.7
199.1 8.2
200.2 3.9
201.2 13.7
202.2 4.8
203.2 8.1
204.2 1.8
205.1 1.3
206.1 0.9
207.1 2.6
208.1 9.2
209.1 6.5
210.1 1.2
211.1 2.5
212.1 1.2
213.2 16.7
214.2 6.7
215.2 11.2
216.2 6.2
217.2 6.0
218.2 1.8
219.2 1.9
220.2 1.0
221.1 2.7
222.1 0.9
223.2 0.7
225.2 1.3
226.2 1.2
227.2 5.0
228.2 10.2
229.2 10.7
230.2 3.2
231.2 9.7
232.2 3.4
233.2 3.2
234.2 1.5
235.2 1.1
237.2 0.7
239.2 1.1
240.2 0.6
241.2 2.7
242.2 2.0
243.2 1.7
244.2 1.1
245.2 1.9
246.2 3.2
247.2 2.8
248.2 1.2
249.2 4.0
250.2 1.3
251.2 1.0
252.2 0.6
253.2 5.0
254.2 5.0
255.2 100.0
256.2 34.0
257.2 4.9
258.2 0.9
259.2 1.3
260.2 2.5
261.2 5.3
262.2 4.5
263.2 2.9
264.2 1.1
265.2 1.0
267.2 0.6
269.2 1.0
270.2 1.3
271.2 12.1
272.2 14.1
273.2 92.4
274.2 30.0
275.2 5.3
276.2 1.4
277.2 0.9
281.2 1.2
283.2 4.2
284.2 2.1
285.2 1.0
287.2 0.9
288.2 1.2
289.2 0.8
291.2 1.1
295.2 0.9
296.2 0.8
297.2 2.8
298.2 0.9
299.2 1.1
300.2 0.8
301.2 1.7
302.2 1.2
303.2 0.7
305.2 0.6
313.2 2.0
314.3 2.2
315.2 3.5
316.2 5.5
317.3 1.7
318.2 0.6
323.2 2.2
324.2 0.6
327.2 1.0
328.2 1.6
329.3 1.7
330.2 0.7
331.3 0.9
332.3 0.5
333.3 0.6
337.3 0.5
338.3 0.6
339.2 1.0
341.2 1.7
342.3 0.8
343.3 0.6
344.3 0.6
345.3 1.0
346.2 0.6
353.2 0.6
354.3 0.9
355.2 14.1
356.2 5.2
357.3 12.5
358.2 3.6
359.3 5.5
360.3 1.7
368.3 0.7
369.3 1.1
370.3 42.7
371.3 12.9
372.3 2.5
373.2 4.2
374.3 1.2
386.3 2.5
387.3 1.0
388.3 17.1
389.3 5.0
390.3 0.9
404.3 1.3
406.3 0.5

$$$$

     RDKit          2D

 28 31  0  0  1  0  0  0  0  0999 V2000
    3.1130    4.9420    0.0000 C   0  0  0  0  0  0  0  0  0  0  0  0
   -1.6800    1.1900    0.0000 C   0  0  0  0  0  0  0  0  0  0  0  0
    2.3787    3.4316    0.0000 C   0  0  0  0  0  0  0  0  0  0  0  0
    9.4486    7.6082    0.0000 C   0  0  0  0  0  0  0  0  0  0  0  0
   -4.2800   -1.8100    0.0000 C   0  0  0  0  0  0  0  0  0  0  0  0
   -4.2800   -0.3100    0.0000 C   0  0  0  0  0  0  0  0  0  0  0  0
   -2.9800   -2.5600    0.0000 C   0  0  0  0  0  0  0  0  0  0  0  0
    5.5829    4.1361    0.0000 C   0  0  0  0  0  0  0  0  0  0  0  0
   -0.3800   -2.5600    0.0000 C   0  0  0  0  0  0  0  0  0  0  0  0
    0.9200   -1.8100    0.0000 C   0  0  0  0  0  0  0  0  0  0  0  0
    4.5300    1.1900    0.0000 C   0  0  0  0  0  0  0  0  0  0  0  0
    3.6500   -0.0200    0.0000 C   0  0  0  0  0  0  0  0  0  0  0  0
    6.0482    5.5621    0.0000 C   0  0  0  0  0  0  0  0  0  0  0  0
   -2.9800    0.4400    0.0000 C   0  0  0  0  0  0  0  0  0  0  0  0
   -0.3800    1.9400    0.0000 C   0  0  0  0  0  0  0  0  0  0  0  0
    4.1153    3.8260    0.0000 C   0  0  0  0  0  0  0  0  0  0  0  0
   -1.6800   -1.8100    0.0000 C   0  0  0  0  0  0  0  0  0  0  0  0
    0.9200   -0.3100    0.0000 C   0  0  0  0  0  0  0  0  0  0  0  0
    3.6500    2.4000    0.0000 C   0  0  0  0  0  0  0  0  0  0  0  0
    2.2200    0.4400    0.0000 C   0  0  0  0  0  0  0  0  0  0  0  0
   -0.3800    0.4400    0.0000 C   0  0  0  0  0  0  0  0  0  0  0  0
    0.9200    2.6900    0.0000 C   0  0  0  0  0  0  0  0  0  0  0  0
    7.5158    5.8722    0.0000 C   0  0  0  0  0  0  0  0  0  0  0  0
   -1.6800   -0.3100    0.0000 C   0  0  0  0  0  0  0  0  0  0  0  0
    2.2200    1.9400    0.0000 C   0  0  0  0  0  0  0  0  0  0  0  0
    0.9200    4.1900    0.0000 O   0  0  0  0  0  0  0  0  0  0  0  0
    8.5181    4.7562    0.0000 O   0  0  0  0  0  0  0  0  0  0  0  0
    7.9810    7.2982    0.0000 O   0  0  0  0  0  0  0  0  0  0  0  0
  6  5  1  0
  7  5  1  0
 10  9  1  0
 12 11  1  0
 13  8  1  0
 14  6  1  0
 16  1  1  6
 16  8  1  0
 17  7  1  6
 17  9  1  0
 18 10  1  6
 19 11  1  1
 19 16  1  0
 20 12  1  1
 20 18  1  0
 21 15  1  1
 21 18  1  0
 22 15  1  0
 23 13  1  0
 24  2  1  1
 24 14  1  0
 24 17  1  0
 24 21  1  0
 25  3  1  1
 25 19  1  0
 25 20  1  0
 25 22  1  0
 22 26  1  1
 27 23  2  0
 28  4  1  0
 28 23  1  0
M  END
>  <NAME>  (40) 
12beta-Hydroxy-5beta-cholan-24-oic acid Methyl ester

>  <SYNONYMS>  (40) 


>  <SPECTRUM TYPE>  (40) 
MS1

>  <INSTRUMENT TYPE>  (40) 
EI-B

>  <INSTRUMENT>  (40) 
JEOL GCmate

>  <ION MODE>  (40) 
P

>  <INCHIKEY>  (40) 
FKEDTKXWEOKYFM-VPXJZYEMSA-N

>  <FORMULA>  (40) 
C25H42O3

>  <EXACT MASS>  (40) 
390.31339520399996

>  <MW>  (40) 
390

>  <ID>  (40) 
NU000031

>  <CONTRIBUTOR>  (40) 
Takashi Iida, {Department of Chemistry, College of Humanities and Sciences, Nihon University

>  <COMMENT>  (40) 
compound class=Natural Product; BILE ACID
SMILES=C(C1(C)4)([H])(C(C)CCC(=O)OC)CCC1(C(C3([H])CC4O)([H])CCC(C3(C)2)([H])CCCC2)[H]
lipidbank=BBA0016
InChI=InChI=1S/C25H42O3/c1-16(8-13-23(27)28-4)19-11-12-20-18-10-9-17-7-5-6-14-24(17,2)21(18)15-22(26)25(19,20)3/h16-22,26H,5-15H2,1-4H3/t16-,17+,18+,19-,20+,21+,22-,24+,25-/m1/s1
computed SMILES=O=C(OC)CCC(C)C1CCC2C3CCC4CCCCC4(C)C3CC(O)C12C
accession=NU000031
ionization potential=70 eV
date=2016.01.19 (Created 2008.09.08, modified 2011.05.06)
author=Takashi Iida, Department of Chemistry, College of Humanities and Sciences, Nihon University. Koichi Metori, Chemical Analytical Center, College of Pharmacy, Nihon Univercity.
license=CC BY-NC-SA
publication=Iida, T., Chang, F. C., Matsumoto, T., and Tamura, T. 1982. High Resolution Mass Spectra of Mono-, Di- and Trihydroxy Stereoisomers of Bile Acids. Biomed. Mass Spectrom. 9: 473-476. doi:10.1002/bms.1200091104
comment=Mass spectral data were collected from the publications cited in LipidBank
comment=[Analytical] Sample was directly injected
exact mass=390.3134
source temperature=200 C
ion type=[M]+*
computed spectral entropy=4.359692306490874
computed normalized entropy=0.8228446891491712
SPLASH=splash10-0a4i-5981000000-73f6b083804d02a60281
submitter=submitter = Takashi Iida (Department of Chemistry, College of Humanities and Sciences, Nihon University)
MoNA Rating=3.75

>  <NUM PEAKS>  (40) 
200

>  <MASS SPECTRAL PEAKS>  (40) 
53.0 1.6
54.1 0.7
55.1 14.1
56.1 1.4
57.1 2.4
58.1 3.4
59.0 2.0
60.1 0.4
65.1 0.8
66.1 0.5
67.1 10.6
68.1 1.8
69.1 6.8
70.1 0.9
71.1 1.7
73.1 2.5
74.1 1.6
77.1 2.1
78.1 0.6
79.1 6.8
80.1 1.8
81.1 19.4
82.1 2.7
83.1 7.1
84.1 2.8
85.1 1.4
87.1 1.4
91.1 5.3
92.1 1.3
93.1 9.4
94.1 3.9
95.1 14.4
96.1 2.4
97.1 3.6
98.1 1.3
99.1 1.1
100.1 0.3
101.0 0.7
103.0 0.4
104.1 0.4
105.1 7.3
106.1 2.6
107.1 10.7
108.1 6.8
109.1 15.0
110.1 2.5
111.1 2.3
112.1 1.0
113.1 0.6
114.1 0.3
115.1 3.5
116.1 0.8
117.1 1.4
118.1 0.6
119.1 5.5
120.1 3.3
121.1 11.4
122.1 4.5
123.1 5.4
124.1 1.9
125.1 1.7
126.1 0.5
127.1 0.4
128.1 0.6
129.1 1.3
130.1 0.5
131.1 2.0
132.1 0.8
133.1 4.9
134.1 2.4
135.1 8.7
136.1 1.7
137.1 2.5
138.1 0.8
139.1 0.8
141.1 0.8
142.1 0.4
143.1 0.8
144.1 0.4
145.1 2.5
146.1 1.1
147.1 9.5
148.1 4.3
149.1 14.4
150.1 2.4
151.1 1.7
152.1 0.4
153.1 0.6
154.1 7.9
155.1 1.5
156.1 0.4
157.1 0.7
158.1 0.4
159.1 2.1
160.1 0.9
161.1 9.0
162.1 2.8
163.1 6.2
164.1 1.3
165.1 1.0
167.1 0.5
168.1 1.1
169.1 0.4
171.1 0.7
173.1 1.6
174.1 0.6
175.1 4.8
176.1 2.1
177.1 2.1
178.1 0.5
179.1 0.5
181.1 0.4
185.1 0.5
187.1 2.0
188.1 0.7
189.2 5.8
190.2 1.3
191.1 1.0
192.1 0.4
193.1 2.6
194.1 1.1
195.1 4.5
196.1 1.0
197.1 0.4
199.1 0.6
201.1 2.8
202.1 2.0
203.2 7.3
204.2 1.9
205.2 1.5
206.2 0.4
207.1 0.4
208.1 6.4
209.1 1.6
211.1 0.3
213.1 0.5
215.2 5.5
216.2 2.9
217.2 4.5
218.2 2.2
219.2 1.3
220.2 0.4
221.1 1.0
222.1 0.3
227.2 0.3
229.2 1.8
230.2 2.3
231.2 1.9
232.2 0.6
233.2 7.0
234.2 2.3
235.2 0.6
237.2 0.4
241.2 0.4
243.2 1.5
244.2 1.2
245.2 0.6
246.2 0.3
247.2 0.6
248.2 0.3
249.2 0.6
255.2 1.0
256.2 6.1
257.2 100.0
258.2 22.7
259.2 2.9
260.2 0.4
261.2 0.5
262.2 1.1
263.2 1.3
264.2 0.4
265.2 0.3
273.2 0.4
275.2 1.9
276.2 0.7
277.2 0.4
283.2 0.4
285.2 1.5
286.2 0.5
287.2 0.3
299.3 0.4
301.2 0.3
305.2 0.3
315.2 0.6
316.2 0.3
323.2 0.3
325.2 0.4
341.3 0.7
343.3 0.7
357.2 4.7
358.2 1.5
359.2 2.7
360.2 0.8
372.3 10.3
373.3 3.0
374.3 0.7
375.3 0.5
388.3 1.1
389.3 0.4
390.3 0.3

$$$$

     RDKit          2D

 28 31  0  0  1  0  0  0  0  0999 V2000
    3.1130    4.9420    0.0000 C   0  0  0  0  0  0  0  0  0  0  0  0
   -1.6800    1.1900    0.0000 C   0  0  0  0  0  0  0  0  0  0  0  0
    2.3787    3.4316    0.0000 C   0  0  0  0  0  0  0  0  0  0  0  0
    9.4486    7.6082    0.0000 C   0  0  0  0  0  0  0  0  0  0  0  0
   -4.2800   -1.8100    0.0000 C   0  0  0  0  0  0  0  0  0  0  0  0
   -4.2800   -0.3100    0.0000 C   0  0  0  0  0  0  0  0  0  0  0  0
   -2.9800   -2.5600    0.0000 C   0  0  0  0  0  0  0  0  0  0  0  0
    5.5829    4.1361    0.0000 C   0  0  0  0  0  0  0  0  0  0  0  0
   -0.3800   -2.5600    0.0000 C   0  0  0  0  0  0  0  0  0  0  0  0
    0.9200   -1.8100    0.0000 C   0  0  0  0  0  0  0  0  0  0  0  0
    4.5300    1.1900    0.0000 C   0  0  0  0  0  0  0  0  0  0  0  0
    3.6500   -0.0200    0.0000 C   0  0  0  0  0  0  0  0  0  0  0  0
    6.0482    5.5621    0.0000 C   0  0  0  0  0  0  0  0  0  0  0  0
   -2.9800    0.4400    0.0000 C   0  0  0  0  0  0  0  0  0  0  0  0
   -0.3800    1.9400    0.0000 C   0  0  0  0  0  0  0  0  0  0  0  0
    4.1153    3.8260    0.0000 C   0  0  0  0  0  0  0  0  0  0  0  0
   -1.6800   -1.8100    0.0000 C   0  0  0  0  0  0  0  0  0  0  0  0
    0.9200   -0.3100    0.0000 C   0  0  0  0  0  0  0  0  0  0  0  0
    3.6500    2.4000    0.0000 C   0  0  0  0  0  0  0  0  0  0  0  0
    2.2200    0.4400    0.0000 C   0  0  0  0  0  0  0  0  0  0  0  0
   -0.3800    0.4400    0.0000 C   0  0  0  0  0  0  0  0  0  0  0  0
    0.9200    2.6900    0.0000 C   0  0  0  0  0  0  0  0  0  0  0  0
    7.5158    5.8722    0.0000 C   0  0  0  0  0  0  0  0  0  0  0  0
   -1.6800   -0.3100    0.0000 C   0  0  0  0  0  0  0  0  0  0  0  0
    2.2200    1.9400    0.0000 C   0  0  0  0  0  0  0  0  0  0  0  0
    0.9200    4.1900    0.0000 O   0  0  0  0  0  0  0  0  0  0  0  0
    8.5181    4.7562    0.0000 O   0  0  0  0  0  0  0  0  0  0  0  0
    7.9810    7.2982    0.0000 O   0  0  0  0  0  0  0  0  0  0  0  0
  6  5  1  0
  7  5  1  0
 10  9  1  0
 12 11  1  0
 13  8  1  0
 14  6  1  0
 16  1  1  6
 16  8  1  0
 17  7  1  6
 17  9  1  0
 18 10  1  6
 19 11  1  1
 19 16  1  0
 20 12  1  1
 20 18  1  0
 21 15  1  1
 21 18  1  0
 22 15  1  0
 23 13  1  0
 24  2  1  1
 24 14  1  0
 24 17  1  0
 24 21  1  0
 25  3  1  1
 25 19  1  0
 25 20  1  0
 25 22  1  0
 22 26  1  6
 27 23  2  0
 28  4  1  0
 28 23  1  0
M  END
>  <NAME>  (41) 
12alpha-Hydroxy-5beta-cholan-24-oic acid Methyl ester

>  <SYNONYMS>  (41) 


>  <SPECTRUM TYPE>  (41) 
MS1

>  <INSTRUMENT TYPE>  (41) 
EI-B

>  <INSTRUMENT>  (41) 
JEOL GCmate

>  <ION MODE>  (41) 
P

>  <INCHIKEY>  (41) 
FKEDTKXWEOKYFM-HFCBJCDPSA-N

>  <FORMULA>  (41) 
C25H42O3

>  <EXACT MASS>  (41) 
390.31339520399996

>  <MW>  (41) 
390

>  <ID>  (41) 
NU000030

>  <CONTRIBUTOR>  (41) 
Takashi Iida, {Department of Chemistry, College of Humanities and Sciences, Nihon University

>  <COMMENT>  (41) 
compound class=Natural Product; BILE ACID
SMILES=C(C1(C)4)([H])(C(C)CCC(=O)OC)CCC1(C(C3([H])CC4O)([H])CCC(C3(C)2)([H])CCCC2)[H]
lipidbank=BBA0015
InChI=InChI=1S/C25H42O3/c1-16(8-13-23(27)28-4)19-11-12-20-18-10-9-17-7-5-6-14-24(17,2)21(18)15-22(26)25(19,20)3/h16-22,26H,5-15H2,1-4H3/t16-,17+,18+,19-,20+,21+,22+,24+,25-/m1/s1
computed SMILES=O=C(OC)CCC(C)C1CCC2C3CCC4CCCCC4(C)C3CC(O)C12C
accession=NU000030
date=2016.01.19 (Created 2008.09.08, modified 2011.05.06)
author=Takashi Iida, Department of Chemistry, College of Humanities and Sciences, Nihon University. Koichi Metori, Chemical Analytical Center, College of Pharmacy, Nihon Univercity.
license=CC BY-NC-SA
publication=Iida, T., Chang, F. C., Matsumoto, T., and Tamura, T. 1982. High Resolution Mass Spectra of Mono-, Di- and Trihydroxy Stereoisomers of Bile Acids. Biomed. Mass Spectrom. 9: 473-476. doi:10.1002/bms.1200091104
comment=Mass spectral data were collected from the publications cited in LipidBank
comment=[Analytical] Sample was directly injected
exact mass=390.3134
ionization potential=70 eV
source temperature=200 C
ion type=[M]+*
computed spectral entropy=4.393685680086587
computed normalized entropy=0.8324346786219933
SPLASH=splash10-0a4i-5981000000-baebeb8008678d11ebf9
submitter=submitter = Takashi Iida (Department of Chemistry, College of Humanities and Sciences, Nihon University)
MoNA Rating=3.75

>  <NUM PEAKS>  (41) 
196

>  <MASS SPECTRAL PEAKS>  (41) 
53.0 1.6
54.1 0.7
55.1 14.4
56.1 1.5
57.1 2.6
58.1 3.1
59.1 2.1
65.1 0.7
66.1 0.4
67.1 10.7
68.1 1.9
69.1 7.0
70.1 0.9
71.1 1.9
73.1 2.5
74.1 1.8
77.1 2.1
78.1 0.6
79.1 7.0
80.1 1.8
81.1 19.7
82.1 2.8
83.1 7.6
84.1 3.5
85.1 1.7
87.1 1.6
91.1 5.5
92.1 1.3
93.1 9.4
94.1 3.9
95.1 14.6
96.1 2.5
97.1 3.9
98.1 1.4
99.1 1.3
101.1 0.9
104.1 0.4
105.1 7.8
106.1 3.1
107.1 10.7
108.1 6.8
109.1 15.5
110.1 2.6
111.1 2.6
112.1 0.8
113.1 0.7
115.1 3.3
116.1 0.7
117.1 1.4
118.1 0.8
119.1 6.0
120.1 3.7
121.1 11.8
122.1 4.9
123.1 6.2
124.1 1.9
125.1 1.6
126.1 0.5
127.1 0.5
128.1 0.7
129.1 0.9
130.1 0.5
131.1 2.5
132.1 1.0
133.1 5.5
134.1 3.1
135.1 9.4
136.1 1.9
137.1 3.0
138.1 0.8
139.1 0.7
141.1 1.2
142.1 0.4
143.1 1.0
144.1 0.5
145.1 3.1
146.1 1.3
147.1 14.1
148.1 4.4
149.1 10.8
150.1 2.0
151.1 1.6
152.1 0.5
153.1 0.5
154.1 18.4
155.1 3.1
156.1 0.6
157.1 0.8
158.1 0.6
159.1 2.9
160.1 1.2
161.1 12.6
162.1 3.2
163.1 4.7
164.1 1.2
165.1 1.1
167.1 0.5
168.1 0.4
169.1 0.4
171.1 0.9
173.1 2.2
174.1 0.8
175.1 5.1
176.2 2.1
177.1 2.5
178.1 0.6
179.1 0.6
181.1 0.5
185.1 0.7
187.2 2.1
188.2 0.8
189.2 4.1
190.2 1.0
191.2 1.1
192.2 0.5
193.2 2.1
194.2 0.9
195.1 3.6
196.2 0.8
197.1 0.5
199.2 0.9
200.1 0.5
201.1 2.9
202.2 1.3
203.2 7.4
204.2 2.1
205.2 1.7
206.2 0.4
207.1 0.6
208.1 4.8
209.1 1.8
211.1 0.5
213.2 1.0
214.2 0.6
215.2 6.8
216.2 3.6
217.2 5.4
218.2 2.5
219.2 1.3
220.2 0.5
221.1 1.2
222.1 0.5
227.2 0.4
228.2 0.5
229.2 2.0
230.2 3.1
231.2 3.0
232.2 0.8
233.2 5.2
234.2 1.8
235.2 0.7
237.2 0.5
243.2 1.4
244.2 1.0
245.2 0.5
247.2 0.6
248.2 0.5
249.2 0.9
254.2 0.4
255.2 6.2
256.2 8.9
257.2 100.0
258.2 27.2
259.2 3.2
260.2 0.5
261.2 0.7
262.2 2.0
263.2 1.6
264.2 0.5
265.2 0.4
275.2 1.2
276.2 0.6
283.2 0.5
285.2 1.4
286.3 0.8
287.2 0.4
299.3 0.8
315.3 0.8
316.3 0.6
325.3 0.5
329.2 0.6
341.3 0.5
343.3 0.5
355.3 0.6
357.2 4.8
358.3 1.6
359.3 2.8
360.3 0.8
370.3 1.9
371.3 0.8
372.3 13.3
373.3 3.9
374.3 0.7
375.3 0.4
388.3 0.7
390.4 0.5

$$$$

     RDKit          2D

 28 31  0  0  1  0  0  0  0  0999 V2000
    3.2009    4.6377    0.0000 C   0  0  0  0  0  0  0  0  0  0  0  0
   -1.6125    0.9400    0.0000 C   0  0  0  0  0  0  0  0  0  0  0  0
    2.4507    3.1203    0.0000 C   0  0  0  0  0  0  0  0  0  0  0  0
    9.5655    7.2342    0.0000 C   0  0  0  0  0  0  0  0  0  0  0  0
    5.6618    3.8047    0.0000 C   0  0  0  0  0  0  0  0  0  0  0  0
   -0.3200   -2.8400    0.0000 C   0  0  0  0  0  0  0  0  0  0  0  0
    1.0100   -2.0900    0.0000 C   0  0  0  0  0  0  0  0  0  0  0  0
    4.5500    0.8800    0.0000 C   0  0  0  0  0  0  0  0  0  0  0  0
    3.7100   -0.3100    0.0000 C   0  0  0  0  0  0  0  0  0  0  0  0
    6.1427    5.2256    0.0000 C   0  0  0  0  0  0  0  0  0  0  0  0
   -4.2000   -0.5600    0.0000 C   0  0  0  0  0  0  0  0  0  0  0  0
   -0.3200    1.6300    0.0000 C   0  0  0  0  0  0  0  0  0  0  0  0
   -2.8900    0.1600    0.0000 C   0  0  0  0  0  0  0  0  0  0  0  0
    1.0100    2.3900    0.0000 C   0  0  0  0  0  0  0  0  0  0  0  0
   -2.8900   -2.8400    0.0000 C   0  0  0  0  0  0  0  0  0  0  0  0
    4.1909    3.5108    0.0000 C   0  0  0  0  0  0  0  0  0  0  0  0
   -1.6200   -2.0900    0.0000 C   0  0  0  0  0  0  0  0  0  0  0  0
   -4.2000   -2.0900    0.0000 C   0  0  0  0  0  0  0  0  0  0  0  0
    1.0100   -0.5600    0.0000 C   0  0  0  0  0  0  0  0  0  0  0  0
    3.7100    2.0900    0.0000 C   0  0  0  0  0  0  0  0  0  0  0  0
    2.2800    0.1600    0.0000 C   0  0  0  0  0  0  0  0  0  0  0  0
   -0.3200    0.1600    0.0000 C   0  0  0  0  0  0  0  0  0  0  0  0
    7.6137    5.5195    0.0000 C   0  0  0  0  0  0  0  0  0  0  0  0
   -1.6200   -0.5600    0.0000 C   0  0  0  0  0  0  0  0  0  0  0  0
    2.2800    1.6300    0.0000 C   0  0  0  0  0  0  0  0  0  0  0  0
   -5.4977   -2.8424    0.0000 O   0  0  0  0  0  0  0  0  0  0  0  0
    8.6037    4.3926    0.0000 O   0  0  0  0  0  0  0  0  0  0  0  0
    8.0946    6.9403    0.0000 O   0  0  0  0  0  0  0  0  0  0  0  0
  7  6  1  0
  9  8  1  0
 10  5  1  0
 13 11  1  0
 14 12  1  0
 16  1  1  6
 16  5  1  0
 17  6  1  6
 17 15  1  0
 18 11  1  0
 18 15  1  0
 19  7  1  6
 20  8  1  1
 20 16  1  0
 21  9  1  1
 21 19  1  0
 22 12  1  1
 22 19  1  0
 23 10  1  0
 24  2  1  1
 24 13  1  0
 24 17  1  0
 24 22  1  0
 25  3  1  1
 25 14  1  0
 25 20  1  0
 25 21  1  0
 18 26  1  1
 27 23  2  0
 28  4  1  0
 28 23  1  0
M  END
>  <NAME>  (42) 
3beta-Hydroxy-5beta-cholan-24-oic acid Methyl ester

>  <SYNONYMS>  (42) 
Isolithocholic Acid Methyl ester

>  <SPECTRUM TYPE>  (42) 
MS1

>  <INSTRUMENT TYPE>  (42) 
EI-B

>  <INSTRUMENT>  (42) 
JEOL GCmate

>  <ION MODE>  (42) 
P

>  <INCHIKEY>  (42) 
YXZVCZUDUJEPPK-ARCWCCGYSA-N

>  <FORMULA>  (42) 
C25H42O3

>  <EXACT MASS>  (42) 
390.31339520399996

>  <MW>  (42) 
390

>  <ID>  (42) 
NU000029

>  <CONTRIBUTOR>  (42) 
Takashi Iida, {Department of Chemistry, College of Humanities and Sciences, Nihon University

>  <COMMENT>  (42) 
compound class=Natural Product; BILE ACID
SMILES=C(C1(C)4)([H])(C(C)CCC(=O)OC)CCC1(C(C3([H])CC4)([H])CCC(C3(C)2)([H])CC(O)CC2)[H]
lipidbank=BBA0004
InChI=InChI=1S/C25H42O3/c1-16(5-10-23(27)28-4)20-8-9-21-19-7-6-17-15-18(26)11-13-24(17,2)22(19)12-14-25(20,21)3/h16-22,26H,5-15H2,1-4H3/t16-,17-,18+,19+,20-,21+,22+,24+,25-/m1/s1
computed SMILES=O=C(OC)CCC(C)C1CCC2C3CCC4CC(O)CCC4(C)C3CCC12C
accession=NU000029
date=2016.01.19 (Created 2008.09.08, modified 2011.05.06)
author=Takashi Iida, Department of Chemistry, College of Humanities and Sciences, Nihon University. Koichi Metori, Chemical Analytical Center, College of Pharmacy, Nihon Univercity.
license=CC BY-NC-SA
publication=Iida, T., Chang, F. C., Matsumoto, T., and Tamura, T. 1982. High Resolution Mass Spectra of Mono-, Di- and Trihydroxy Stereoisomers of Bile Acids. Biomed. Mass Spectrom. 9: 473-476. doi:10.1002/bms.1200091104
comment=Mass spectral data were collected from the publications cited in LipidBank
comment=[Analytical] Sample was directly injected
exact mass=390.3134
ionization potential=70 eV
source temperature=200 C
ion type=[M]+*
computed spectral entropy=4.626374292170905
computed normalized entropy=0.8977513124059446
SPLASH=splash10-05uv-4943000000-fe94ac4ce27c46ece825
submitter=submitter = Takashi Iida (Department of Chemistry, College of Humanities and Sciences, Nihon University)
MoNA Rating=3.75

>  <NUM PEAKS>  (42) 
173

>  <MASS SPECTRAL PEAKS>  (42) 
53.0 6.7
54.1 2.3
55.1 51.8
56.1 3.4
57.1 7.0
58.1 2.2
59.0 7.9
65.1 2.9
67.1 41.4
68.1 13.9
69.1 22.7
70.1 3.0
71.1 2.7
73.1 11.0
74.1 6.3
77.1 10.1
78.1 2.7
79.1 38.5
80.1 9.3
81.1 65.3
82.1 13.8
83.1 18.8
84.1 2.2
85.1 9.2
87.1 8.8
91.1 28.2
92.1 7.9
93.1 54.4
94.1 21.2
95.1 60.3
96.1 10.4
97.1 11.3
99.1 4.4
101.1 4.5
104.1 2.2
105.1 34.7
106.1 21.5
107.1 67.7
108.1 58.2
109.1 45.7
110.1 14.4
111.1 10.3
115.1 9.9
117.1 5.6
118.1 4.2
119.1 26.9
120.1 21.1
121.1 45.3
122.1 35.5
123.1 23.6
124.1 35.8
125.1 9.3
128.1 4.0
129.1 3.4
131.1 10.2
132.1 3.9
133.1 29.1
134.1 19.4
135.1 38.0
136.1 15.1
137.1 11.6
138.1 5.5
141.1 4.7
142.1 2.2
143.1 3.7
145.1 26.7
146.1 7.4
147.1 39.6
148.1 31.0
149.1 72.0
150.1 11.0
151.1 4.6
154.1 11.1
155.1 3.2
156.1 2.2
157.1 3.3
158.1 4.0
159.1 15.7
160.1 11.8
161.1 28.1
162.1 16.3
163.1 15.1
164.1 5.6
165.1 22.1
166.1 24.4
167.1 18.4
168.1 2.3
171.1 2.3
173.1 13.1
174.1 6.6
175.1 21.3
176.1 8.9
177.1 9.2
178.1 11.2
179.1 6.6
185.1 2.1
187.1 8.4
188.1 4.4
189.2 8.5
190.2 9.2
191.1 9.7
192.2 2.7
199.1 3.2
201.2 15.1
202.2 4.6
203.2 7.9
204.2 2.9
205.1 2.8
206.2 2.3
208.1 2.3
210.1 2.1
213.1 4.0
214.1 2.4
215.1 100.0
216.2 51.1
217.2 40.5
218.2 12.0
219.2 10.1
220.2 2.5
229.2 6.3
230.2 16.5
231.2 8.9
232.2 4.7
233.2 85.7
234.2 38.3
235.2 7.0
248.2 39.2
249.2 10.4
257.2 12.6
258.2 2.9
262.2 3.9
263.2 3.1
264.2 15.1
265.2 8.1
266.2 2.1
273.2 4.0
278.2 5.4
285.2 2.9
289.2 2.7
290.2 12.7
291.2 4.5
299.3 2.7
303.2 2.1
304.3 2.7
315.3 2.5
316.3 2.2
317.3 4.4
318.2 11.2
319.2 6.5
320.2 8.4
321.2 2.2
323.2 3.5
325.2 7.3
330.3 2.7
331.3 2.5
332.3 5.8
333.2 9.9
334.3 2.3
341.3 13.5
342.3 3.8
343.3 3.3
357.2 47.5
358.3 15.0
359.2 7.3
372.3 88.8
373.3 28.2
374.3 5.0
375.3 29.1
376.3 7.9
388.3 2.6
390.3 77.2
391.3 23.0
392.3 3.9

$$$$

     RDKit          2D

 28 31  0  0  1  0  0  0  0  0999 V2000
    3.2009    4.6377    0.0000 C   0  0  0  0  0  0  0  0  0  0  0  0
   -1.6125    0.9400    0.0000 C   0  0  0  0  0  0  0  0  0  0  0  0
    2.4507    3.1203    0.0000 C   0  0  0  0  0  0  0  0  0  0  0  0
    9.5655    7.2342    0.0000 C   0  0  0  0  0  0  0  0  0  0  0  0
    5.6618    3.8047    0.0000 C   0  0  0  0  0  0  0  0  0  0  0  0
   -0.3200   -2.8400    0.0000 C   0  0  0  0  0  0  0  0  0  0  0  0
    1.0100   -2.0900    0.0000 C   0  0  0  0  0  0  0  0  0  0  0  0
    4.5500    0.8800    0.0000 C   0  0  0  0  0  0  0  0  0  0  0  0
    3.7100   -0.3100    0.0000 C   0  0  0  0  0  0  0  0  0  0  0  0
    6.1427    5.2256    0.0000 C   0  0  0  0  0  0  0  0  0  0  0  0
   -4.2000   -0.5600    0.0000 C   0  0  0  0  0  0  0  0  0  0  0  0
   -0.3200    1.6300    0.0000 C   0  0  0  0  0  0  0  0  0  0  0  0
   -2.8900    0.1600    0.0000 C   0  0  0  0  0  0  0  0  0  0  0  0
    1.0100    2.3900    0.0000 C   0  0  0  0  0  0  0  0  0  0  0  0
   -2.8900   -2.8400    0.0000 C   0  0  0  0  0  0  0  0  0  0  0  0
    4.1909    3.5108    0.0000 C   0  0  0  0  0  0  0  0  0  0  0  0
   -1.6200   -2.0900    0.0000 C   0  0  0  0  0  0  0  0  0  0  0  0
   -4.2000   -2.0900    0.0000 C   0  0  0  0  0  0  0  0  0  0  0  0
    1.0100   -0.5600    0.0000 C   0  0  0  0  0  0  0  0  0  0  0  0
    3.7100    2.0900    0.0000 C   0  0  0  0  0  0  0  0  0  0  0  0
    2.2800    0.1600    0.0000 C   0  0  0  0  0  0  0  0  0  0  0  0
   -0.3200    0.1600    0.0000 C   0  0  0  0  0  0  0  0  0  0  0  0
    7.6137    5.5195    0.0000 C   0  0  0  0  0  0  0  0  0  0  0  0
   -1.6200   -0.5600    0.0000 C   0  0  0  0  0  0  0  0  0  0  0  0
    2.2800    1.6300    0.0000 C   0  0  0  0  0  0  0  0  0  0  0  0
   -5.4977   -2.8424    0.0000 O   0  0  0  0  0  0  0  0  0  0  0  0
    8.6037    4.3926    0.0000 O   0  0  0  0  0  0  0  0  0  0  0  0
    8.0946    6.9403    0.0000 O   0  0  0  0  0  0  0  0  0  0  0  0
  7  6  1  0
  9  8  1  0
 10  5  1  0
 13 11  1  0
 14 12  1  0
 16  1  1  6
 16  5  1  0
 17  6  1  6
 17 15  1  0
 18 11  1  0
 18 15  1  0
 19  7  1  6
 20  8  1  1
 20 16  1  0
 21  9  1  1
 21 19  1  0
 22 12  1  1
 22 19  1  0
 23 10  1  0
 24  2  1  1
 24 13  1  0
 24 17  1  0
 24 22  1  0
 25  3  1  1
 25 14  1  0
 25 20  1  0
 25 21  1  0
 18 26  1  6
 27 23  2  0
 28  4  1  0
 28 23  1  0
M  END
>  <NAME>  (43) 
Lithocholic Acid methyl ester

>  <SYNONYMS>  (43) 
3alpha-Hydroxy-5beta-cholan-24-oic acid Methyl ester

>  <SPECTRUM TYPE>  (43) 
MS1

>  <INSTRUMENT TYPE>  (43) 
EI-B

>  <INSTRUMENT>  (43) 
JEOL GCmate

>  <ION MODE>  (43) 
P

>  <INCHIKEY>  (43) 
YXZVCZUDUJEPPK-ULCLHEGSSA-N

>  <FORMULA>  (43) 
C25H42O3

>  <EXACT MASS>  (43) 
390.31339520399996

>  <MW>  (43) 
390

>  <ID>  (43) 
NU000028

>  <CONTRIBUTOR>  (43) 
Takashi Iida, {Department of Chemistry, College of Humanities and Sciences, Nihon University

>  <COMMENT>  (43) 
compound class=Natural Product; BILE ACID
SMILES=C(C1(C)4)([H])(C(C)CCC(=O)OC)CCC1(C(C3([H])CC4)([H])CCC(C3(C)2)([H])CC(O)CC2)[H]
chemspider=553235 433364 83844
lipidbank=BBA0003
InChI=InChI=1S/C25H42O3/c1-16(5-10-23(27)28-4)20-8-9-21-19-7-6-17-15-18(26)11-13-24(17,2)22(19)12-14-25(20,21)3/h16-22,26H,5-15H2,1-4H3/t16-,17-,18-,19+,20-,21+,22+,24+,25-/m1/s1
computed SMILES=O=C(OC)CCC(C)C1CCC2C3CCC4CC(O)CCC4(C)C3CCC12C
accession=NU000028
date=2016.01.19 (Created 2008.09.08, modified 2011.05.06)
author=Takashi Iida, Department of Chemistry, College of Humanities and Sciences, Nihon University. Koichi Metori, Chemical Analytical Center, College of Pharmacy, Nihon Univercity.
license=CC BY-NC-SA
publication=Iida, T., Chang, F. C., Matsumoto, T., and Tamura, T. 1982. High Resolution Mass Spectra of Mono-, Di- and Trihydroxy Stereoisomers of Bile Acids. Biomed. Mass Spectrom. 9: 473-476. doi:10.1002/bms.1200091104
comment=Mass spectral data were collected from the publications cited in LipidBank
comment=[Analytical] Sample was directly injected
exact mass=390.3134
ionization potential=70 eV
source temperature=200 C
ion type=[M]+*
computed spectral entropy=4.419585010017339
computed normalized entropy=0.9023539336794222
SPLASH=splash10-0600-4964000000-5b2431e1111136995c07
submitter=submitter = Takashi Iida (Department of Chemistry, College of Humanities and Sciences, Nihon University)
MoNA Rating=3.75

>  <NUM PEAKS>  (43) 
134

>  <MASS SPECTRAL PEAKS>  (43) 
53.0 3.3
55.1 23.6
56.1 2.4
57.1 4.9
58.1 3.3
59.0 3.7
67.1 18.8
68.1 6.4
69.1 10.7
71.1 2.2
73.1 5.0
74.1 3.1
77.1 5.3
79.1 17.9
80.1 4.3
81.1 29.1
82.1 6.1
83.1 9.4
85.1 4.2
87.0 4.0
91.0 14.7
92.0 4.3
93.1 24.2
94.1 11.2
95.1 26.2
96.1 4.2
97.1 5.7
99.1 2.2
101.0 2.3
105.1 21.5
106.1 12.7
107.1 26.6
108.1 15.0
109.1 17.0
110.1 4.3
111.1 4.4
115.1 5.3
117.1 3.6
118.1 3.0
119.1 15.7
120.1 11.4
121.1 19.2
122.1 10.5
123.1 9.6
124.1 5.0
125.1 2.7
129.1 2.2
131.1 6.6
132.1 2.7
133.1 15.0
134.1 9.7
135.1 17.5
136.1 5.4
137.1 3.8
141.1 2.5
143.1 2.7
145.1 13.6
146.1 4.1
147.1 19.8
148.1 9.4
149.1 18.7
150.1 3.3
151.1 2.2
154.1 8.8
155.1 2.3
157.1 2.4
158.1 2.2
159.1 11.7
160.1 7.8
161.1 20.5
162.1 17.4
163.1 7.4
165.1 16.9
166.1 5.6
167.1 2.1
173.1 9.8
174.1 7.2
175.1 14.8
176.1 9.6
177.1 4.3
187.1 6.6
188.1 4.8
189.1 5.7
199.1 2.7
201.1 12.4
202.1 4.7
203.1 8.0
208.1 2.3
213.1 4.0
214.2 2.9
215.1 90.2
216.2 41.4
217.2 19.5
218.2 8.8
219.2 3.1
229.2 7.6
230.2 27.5
231.2 10.2
232.2 2.8
233.2 7.9
234.2 4.6
246.2 2.0
248.2 10.9
249.2 3.6
255.2 4.1
256.2 2.2
257.2 29.5
258.2 6.6
262.2 5.3
263.2 3.2
264.2 3.4
273.2 5.3
276.2 2.1
285.2 3.0
315.2 2.9
316.2 3.2
317.2 4.7
318.2 13.3
319.2 3.2
323.2 5.1
325.2 4.0
330.2 3.8
331.2 2.7
341.2 7.8
342.2 2.3
356.2 2.3
357.2 24.7
358.2 7.8
359.2 2.4
372.2 100.0
373.3 35.5
374.2 6.6
388.3 3.4
390.3 5.5

$$$$

     RDKit          2D

 28 31  0  0  1  0  0  0  0  0999 V2000
    3.2009    4.6377    0.0000 C   0  0  0  0  0  0  0  0  0  0  0  0
   -1.6125    0.9400    0.0000 C   0  0  0  0  0  0  0  0  0  0  0  0
    2.4507    3.1203    0.0000 C   0  0  0  0  0  0  0  0  0  0  0  0
    9.5655    7.2342    0.0000 C   0  0  0  0  0  0  0  0  0  0  0  0
    5.6618    3.8047    0.0000 C   0  0  0  0  0  0  0  0  0  0  0  0
   -0.3200   -2.8400    0.0000 C   0  0  0  0  0  0  0  0  0  0  0  0
    1.0100   -2.0900    0.0000 C   0  0  0  0  0  0  0  0  0  0  0  0
    4.5500    0.8800    0.0000 C   0  0  0  0  0  0  0  0  0  0  0  0
    3.7100   -0.3100    0.0000 C   0  0  0  0  0  0  0  0  0  0  0  0
    6.1427    5.2256    0.0000 C   0  0  0  0  0  0  0  0  0  0  0  0
   -4.2000   -0.5600    0.0000 C   0  0  0  0  0  0  0  0  0  0  0  0
   -0.3200    1.6300    0.0000 C   0  0  0  0  0  0  0  0  0  0  0  0
   -2.8900    0.1600    0.0000 C   0  0  0  0  0  0  0  0  0  0  0  0
    1.0100    2.3900    0.0000 C   0  0  0  0  0  0  0  0  0  0  0  0
   -2.8900   -2.8400    0.0000 C   0  0  0  0  0  0  0  0  0  0  0  0
    4.1909    3.5108    0.0000 C   0  0  0  0  0  0  0  0  0  0  0  0
   -1.6200   -2.0900    0.0000 C   0  0  0  0  0  0  0  0  0  0  0  0
   -4.2000   -2.0900    0.0000 C   0  0  0  0  0  0  0  0  0  0  0  0
    1.0100   -0.5600    0.0000 C   0  0  0  0  0  0  0  0  0  0  0  0
    3.7100    2.0900    0.0000 C   0  0  0  0  0  0  0  0  0  0  0  0
    2.2800    0.1600    0.0000 C   0  0  0  0  0  0  0  0  0  0  0  0
   -0.3200    0.1600    0.0000 C   0  0  0  0  0  0  0  0  0  0  0  0
    7.6137    5.5195    0.0000 C   0  0  0  0  0  0  0  0  0  0  0  0
   -1.6200   -0.5600    0.0000 C   0  0  0  0  0  0  0  0  0  0  0  0
    2.2800    1.6300    0.0000 C   0  0  0  0  0  0  0  0  0  0  0  0
   -5.4977   -2.8424    0.0000 O   0  0  0  0  0  0  0  0  0  0  0  0
    8.6037    4.3926    0.0000 O   0  0  0  0  0  0  0  0  0  0  0  0
    8.0946    6.9403    0.0000 O   0  0  0  0  0  0  0  0  0  0  0  0
  7  6  1  0
  9  8  1  0
 10  5  1  0
 13 11  1  0
 14 12  1  0
 16  1  1  6
 16  5  1  0
 17  6  1  1
 17 15  1  0
 18 11  1  0
 18 15  1  0
 19  7  1  6
 20  8  1  1
 20 16  1  0
 21  9  1  1
 21 19  1  0
 22 12  1  1
 22 19  1  0
 23 10  1  0
 24  2  1  1
 24 13  1  0
 24 17  1  0
 24 22  1  0
 25  3  1  1
 25 14  1  0
 25 20  1  0
 25 21  1  0
 18 26  1  6
 27 23  2  0
 28  4  1  0
 28 23  1  0
M  END
>  <NAME>  (44) 
3alpha-Hydroxy-5alpha-cholan-24-oic acid Methyl ester

>  <SYNONYMS>  (44) 
Allolithocholic Acid Methyl ester

>  <SPECTRUM TYPE>  (44) 
MS1

>  <INSTRUMENT TYPE>  (44) 
EI-B

>  <INSTRUMENT>  (44) 
Hitachi type M-80 B double focusing mass spectrometer

>  <ION MODE>  (44) 
P

>  <INCHIKEY>  (44) 
YXZVCZUDUJEPPK-IZZHPKMPSA-N

>  <FORMULA>  (44) 
C25H42O3

>  <EXACT MASS>  (44) 
390.31339520399996

>  <MW>  (44) 
390

>  <ID>  (44) 
NU000002

>  <CONTRIBUTOR>  (44) 
Takashi Iida, {Department of Chemistry, College of Humanities and Sciences, Nihon University

>  <COMMENT>  (44) 
compound class=Natural Product; BILE ACID
SMILES=C(C1(C)4)([H])(C(C)CCC(=O)OC)CCC1(C(C3([H])CC4)([H])CCC(C3(C)2)([H])CC(O)CC2)[H]
lipidbank=BBA0005
InChI=InChI=1S/C25H42O3/c1-16(5-10-23(27)28-4)20-8-9-21-19-7-6-17-15-18(26)11-13-24(17,2)22(19)12-14-25(20,21)3/h16-22,26H,5-15H2,1-4H3/t16-,17+,18-,19+,20-,21+,22+,24+,25-/m1/s1
computed SMILES=O=C(OC)CCC(C)C1CCC2C3CCC4CC(O)CCC4(C)C3CCC12C
comment=[Analytical] Sample was directly injected and heated to 120 C
accession=NU000002
date=2016.01.19 (Created 2008.09.03, modified 2011.05.06)
author=Takashi Iida, Department of Chemistry, College of Humanities and Sciences, Nihon University
license=CC BY-NC-SA
publication=Iida, T., Tamura, T., and Matsumoto, T. 1988. Mass Spectra of Mono-, Di-, and Trihydroxy Stereoisomers of Methyl 5alpha-Cholanoates. J. Coll. Engin. Nihon Univ. (A). 29: 279 -288.
comment=Mass spectral data were collected from the publications cited in LipidBank
comment=Fragment ions less than m/z 200 were not shown
exact mass=390.3134
ionization potential=70 eV
source temperature=180 C
ion type=[M]+*
computed spectral entropy=3.2051717118523637
computed normalized entropy=0.8371564165794008
SPLASH=splash10-01c0-0094000000-371a09c1f59705fb5f8a
submitter=submitter = Takashi Iida (Department of Chemistry, College of Humanities and Sciences, Nihon University)
MoNA Rating=3.75

>  <NUM PEAKS>  (44) 
46

>  <MASS SPECTRAL PEAKS>  (44) 
201 13.919283
202 3.126764
203 6.651904
204 3.543593
206 5.579436
213 2.478724
215 100.000000
216 36.284790
217 37.949937
218 11.054123
219 14.911424
220 4.233967
229 5.220138
230 15.305458
231 8.177022
232 4.554731
233 77.450501
234 38.475316
235 6.025574
248 46.591551
249 11.997417
257 4.857583
262 2.861361
264 12.797968
265 7.208762
290 5.369936
291 2.781577
299 2.499891
318 2.764752
323 2.517802
325 3.794342
341 13.694586
342 3.925144
343 2.464613
357 24.502844
358 6.241045
359 3.924602
372 68.174960
373 20.103882
374 3.280904
375 13.647367
376 3.894751
388 2.923234
390 50.877079
391 15.658786
392 3.040467

$$$$

     RDKit          2D

 21 21  0  0  0  0  0  0  0  0999 V2000
   14.5504   -0.9021    0.0000 C   0  0  0  0  0  0  0  0  0  0  0  0
   -1.0390    3.6000    0.0000 C   0  0  0  0  0  0  0  0  0  0  0  0
   13.2512   -1.6519    0.0000 C   0  0  0  0  0  0  0  0  0  0  0  0
   11.9523   -0.9017    0.0000 C   0  0  0  0  0  0  0  0  0  0  0  0
   10.6531   -1.6515    0.0000 C   0  0  0  0  0  0  0  0  0  0  0  0
    9.3542   -0.9012    0.0000 C   0  0  0  0  0  0  0  0  0  0  0  0
    8.0551   -1.6510    0.0000 C   0  0  0  0  0  0  0  0  0  0  0  0
    6.7562   -0.9008    0.0000 C   0  0  0  0  0  0  0  0  0  0  0  0
    5.4570   -1.6506    0.0000 C   0  0  0  0  0  0  0  0  0  0  0  0
    4.1581   -0.9004    0.0000 C   0  0  0  0  0  0  0  0  0  0  0  0
    2.8589   -1.6502    0.0000 C   0  0  0  0  0  0  0  0  0  0  0  0
    1.5600    0.6000    0.0000 C   0  0  0  0  0  0  0  0  0  0  0  0
   -2.3389    1.3502    0.0000 C   0  0  0  0  0  0  0  0  0  0  0  0
    1.5600   -0.9000    0.0000 C   0  0  0  0  0  0  0  0  0  0  0  0
   -1.0400    0.6000    0.0000 C   0  0  0  0  0  0  0  0  0  0  0  0
    0.2600    1.3500    0.0000 C   0  0  0  0  0  0  0  0  0  0  0  0
   -1.0400   -0.9000    0.0000 C   0  0  0  0  0  0  0  0  0  0  0  0
   -3.6381    0.6004    0.0000 O   0  0  0  0  0  0  0  0  0  0  0  0
   -2.3389   -1.6502    0.0000 O   0  0  0  0  0  0  0  0  0  0  0  0
    0.2600    2.8500    0.0000 O   0  0  0  0  0  0  0  0  0  0  0  0
    0.2600   -1.6500    0.0000 O   0  0  0  0  0  0  0  0  0  0  0  0
  3  1  1  0
  4  3  1  0
  5  4  1  0
  6  5  1  0
  7  6  1  0
  8  7  1  0
  9  8  1  0
 10  9  1  0
 11 10  1  0
 14 11  1  0
 14 12  2  0
 15 13  1  0
 16 12  1  0
 16 15  2  0
 17 15  1  0
 18 13  2  0
 19 17  2  0
 20  2  1  0
 20 16  1  0
 21 14  1  0
 21 17  1  0
M  END
>  <NAME>  (45) 
6-DECYL-4-METHOXY-2H-PYRAN-2-ONE-3-CARBOXALDEHYDE

>  <SYNONYMS>  (45) 


>  <SPECTRUM TYPE>  (45) 
MS1

>  <INSTRUMENT TYPE>  (45) 
EI-B

>  <INSTRUMENT>  (45) 
JEOL JMS-DX-300

>  <ION MODE>  (45) 
P

>  <INCHIKEY>  (45) 
MNCBVHHTEQODCX-UHFFFAOYSA-N

>  <FORMULA>  (45) 
C17H26O4

>  <EXACT MASS>  (45) 
294.183109312

>  <MW>  (45) 
294

>  <ID>  (45) 
JP012128

>  <CONTRIBUTOR>  (45) 
University of Tokyo Team, {Faculty of Engineering, University of Tokyo

>  <COMMENT>  (45) 
SMILES=CCCCCCCCCCC(O1)=CC(OC)=C(C=O)C(=O)1
InChI=InChI=1S/C17H26O4/c1-3-4-5-6-7-8-9-10-11-14-12-16(20-2)15(13-18)17(19)21-14/h12-13H,3-11H2,1-2H3
computed SMILES=O=CC=1C(=O)OC(=CC1OC)CCCCCCCCCC
accession=JP012128
date=2016.01.19 (Created 2008.10.21, modified 2011.05.06)
author=HISAHIRO HAGIWARA, INSTITUTE FOR CHEMICAL REACTION SCIENCE TOHOKU UNIV.
license=CC BY-NC-SA
exact mass=294.18311
ionization energy=70 eV
ion type=[M]+*
computed spectral entropy=3.856235644702209
computed normalized entropy=0.92041847888331
SPLASH=splash10-0fr6-5940000000-1b4c821eb2087cf235fc
submitter=submitter = University of Tokyo Team (Faculty of Engineering, University of Tokyo)
MoNA Rating=3.75

>  <NUM PEAKS>  (45) 
66

>  <MASS SPECTRAL PEAKS>  (45) 
39 11.73
41 38.09
42 5.67
43 37.53
53 13.78
55 31.84
57 9.13
59 14.63
66 6.31
67 12.95
68 7.32
69 26.93
71 5.8
79 6.5
81 12.2
82 5.89
83 9.17
93 12.57
95 16.73
97 8.99
98 5.22
107 6.06
109 7.42
110 19.64
111 9.41
119 8.87
121 10.3
123 25.74
125 24.41
127 7.39
131 5.84
133 9.78
137 6.38
139 6.21
140 57.62
141 7.2
147 5.83
149 5.76
150 10.36
151 11.75
153 99.99
154 11.92
163 16.44
164 7.23
167 9.62
168 6.48
174 5.35
177 21.44
178 7.87
181 25.37
182 10.51
191 6.57
195 9.38
196 13.98
206 6.65
207 16.53
209 8.19
223 5.67
237 32.9
238 6.68
265 31.09
266 56.05
267 10.1
293 5.62
294 34.67
295 9.92

$$$$

     RDKit          2D

 24 26  0  0  0  0  0  0  0  0999 V2000
    3.8989   -1.5002    0.0000 C   0  0  0  0  0  0  0  0  0  0  0  0
    2.5990   -5.2500    0.0000 C   0  0  0  0  0  0  0  0  0  0  0  0
   -2.6000    0.7500    0.0000 C   0  0  0  0  0  0  0  0  0  0  0  0
   -1.3000    1.5000    0.0000 C   0  0  0  0  0  0  0  0  0  0  0  0
   -2.6000   -0.7500    0.0000 C   0  0  0  0  0  0  0  0  0  0  0  0
   -3.3490   -7.5600    0.0000 C   0  0  0  0  0  0  0  0  0  0  0  0
   -3.8090   -6.1300    0.0000 C   0  0  0  0  0  0  0  0  0  0  0  0
    2.6000    0.7500    0.0000 C   0  0  0  0  0  0  0  0  0  0  0  0
   -1.3890   -6.1300    0.0000 C   0  0  0  0  0  0  0  0  0  0  0  0
    2.6000   -0.7500    0.0000 C   0  0  0  0  0  0  0  0  0  0  0  0
    0.0000    0.7500    0.0000 C   0  0  0  0  0  0  0  0  0  0  0  0
    1.3000    1.5000    0.0000 C   0  0  0  0  0  0  0  0  0  0  0  0
   -1.3000   -1.5000    0.0000 C   0  0  0  0  0  0  0  0  0  0  0  0
    1.3000   -1.5000    0.0000 C   0  0  0  0  0  0  0  0  0  0  0  0
    0.0000   -0.7500    0.0000 C   0  0  0  0  0  0  0  0  0  0  0  0
    1.3000   -3.0000    0.0000 C   0  0  0  0  0  0  0  0  0  0  0  0
   -2.5990   -3.7500    0.0000 C   0  0  0  0  0  0  0  0  0  0  0  0
   -1.8490   -7.5600    0.0000 N   0  0  0  0  0  0  0  0  0  0  0  0
   -2.5990   -5.2500    0.0000 N   0  0  0  0  0  0  0  0  0  0  0  0
    1.3000    3.0000    0.0000 O   0  0  0  0  0  0  0  0  0  0  0  0
    0.0010   -3.7500    0.0000 O   0  0  0  0  0  0  0  0  0  0  0  0
    2.5990   -3.7500    0.0000 O   0  0  0  0  0  0  0  0  0  0  0  0
   -1.3000   -3.0000    0.0000 O   0  0  0  0  0  0  0  0  0  0  0  0
   -3.8981   -3.0000    0.0000 S   0  0  0  0  0  0  0  0  0  0  0  0
  4  3  1  0
  5  3  1  0
  7  6  2  0
 10  1  1  0
 10  8  1  0
 11  4  1  0
 12  8  1  0
 12 11  1  0
 13  5  1  0
 14 10  1  0
 15 11  1  0
 15 13  1  0
 15 14  1  0
 16 14  1  0
 18  6  1  0
 18  9  2  0
 19  7  1  0
 19  9  1  0
 19 17  1  0
 20 12  2  0
 21 16  2  0
 22  2  1  0
 22 16  1  0
 23 13  1  0
 23 17  1  0
 24 17  2  0
M  END
>  <NAME>  (46) 
O-((1S,2R,(4A)R,8S,(8A)R)-METHYL 1,2,3,5,6,7,8,(8A)-OCTAHYDRO-8-HYDROXY-2-METHYLNAPHTHALEN-4((4A)H)-ONE-1-CARBOXYLATE-8-YL) THIOCARBOXYIMIDAZOLE

>  <SYNONYMS>  (46) 


>  <SPECTRUM TYPE>  (46) 
MS1

>  <INSTRUMENT TYPE>  (46) 
EI-B

>  <INSTRUMENT>  (46) 
JEOL JMS-DX-300

>  <ION MODE>  (46) 
P

>  <INCHIKEY>  (46) 
GVLJXHPXDBXDJW-UHFFFAOYSA-N

>  <FORMULA>  (46) 
C17H22N2O4S

>  <EXACT MASS>  (46) 
350.130028184

>  <MW>  (46) 
350

>  <ID>  (46) 
JP012127

>  <CONTRIBUTOR>  (46) 
University of Tokyo Team, {Faculty of Engineering, University of Tokyo

>  <COMMENT>  (46) 
SMILES=COC(=O)C(C(C)1)C(C2OC(=S)n(c3)cnc3)C(CCC2)C(=O)C1
InChI=InChI=1S/C17H22N2O4S/c1-10-8-12(20)11-4-3-5-13(15(11)14(10)16(21)22-2)23-17(24)19-7-6-18-9-19/h6-7,9-11,13-15H,3-5,8H2,1-2H3
computed SMILES=O=C(OC)C1C(C)CC(=O)C2CCCC(OC(=S)N3C=NC=C3)C21
accession=JP012127
date=2016.01.19 (Created 2008.10.21, modified 2011.05.06)
author=HISAHIRO HAGIWARA, INSTITUTE FOR CHEMICAL REACTION SCIENCE TOHOKU UNIV.
license=CC BY-NC-SA
exact mass=350.13003
ionization energy=70 eV
ion type=[M]+*
computed spectral entropy=3.415967813232022
computed normalized entropy=0.8563503321539244
SPLASH=splash10-0229-8940000000-f924079ef8ad3b30109f
submitter=submitter = University of Tokyo Team (Faculty of Engineering, University of Tokyo)
MoNA Rating=3.75

>  <NUM PEAKS>  (46) 
54

>  <MASS SPECTRAL PEAKS>  (46) 
27 4.82
29 3.56
39 6.51
40 6.74
41 21.12
42 3.17
43 4.45
53 7.7
55 13.35
59 7.71
60 5.25
65 4.06
67 15.51
68 15.69
69 49.78
77 10.69
79 20.7
80 4.72
81 25.63
82 3.97
84 5.85
91 14.38
92 3.02
93 18.88
94 3.72
95 6.33
97 3.13
105 6.06
107 10.21
109 3.22
111 5.81
115 5.32
119 7.67
120 3.49
121 44.55
122 9.97
129 14.88
131 3.11
133 3.8
135 23.39
136 3.25
145 20.8
146 3.24
147 5.67
149 3.21
162 9.18
163 99.99
164 14.9
191 13.22
195 3.28
222 63.53
223 89.13
224 14.86
319 3.35

$$$$

     RDKit          2D

 17 18  0  0  1  0  0  0  0  0999 V2000
    3.8989   -1.5002    0.0000 C   0  0  0  0  0  0  0  0  0  0  0  0
    2.5990   -5.2500    0.0000 C   0  0  0  0  0  0  0  0  0  0  0  0
   -2.6000    0.7500    0.0000 C   0  0  0  0  0  0  0  0  0  0  0  0
   -1.3000    1.5000    0.0000 C   0  0  0  0  0  0  0  0  0  0  0  0
   -2.6000   -0.7500    0.0000 C   0  0  0  0  0  0  0  0  0  0  0  0
    2.6000    0.7500    0.0000 C   0  0  0  0  0  0  0  0  0  0  0  0
    2.6000   -0.7500    0.0000 C   0  0  0  0  0  0  0  0  0  0  0  0
    0.0000    0.7500    0.0000 C   0  0  0  0  0  0  0  0  0  0  0  0
   -1.3000   -1.5000    0.0000 C   0  0  0  0  0  0  0  0  0  0  0  0
    1.3000    1.5000    0.0000 C   0  0  0  0  0  0  0  0  0  0  0  0
    1.3000   -1.5000    0.0000 C   0  0  0  0  0  0  0  0  0  0  0  0
    0.0000   -0.7500    0.0000 C   0  0  0  0  0  0  0  0  0  0  0  0
    1.3000   -3.0000    0.0000 C   0  0  0  0  0  0  0  0  0  0  0  0
   -1.3000   -3.0000    0.0000 O   0  0  0  0  0  0  0  0  0  0  0  0
    1.3000    3.0000    0.0000 O   0  0  0  0  0  0  0  0  0  0  0  0
    0.0010   -3.7500    0.0000 O   0  0  0  0  0  0  0  0  0  0  0  0
    2.5990   -3.7500    0.0000 O   0  0  0  0  0  0  0  0  0  0  0  0
  4  3  1  0
  5  3  1  0
  7  1  1  1
  7  6  1  0
  8  4  1  1
  9  5  1  0
 10  6  1  0
 10  8  1  0
 11  7  1  0
 12  8  1  0
 12  9  1  6
 12 11  1  0
 11 13  1  6
  9 14  1  6
 15 10  2  0
 16 13  2  0
 17  2  1  0
 17 13  1  0
M  END
>  <NAME>  (47) 
METHYL (1S,2R,(4A)R,8S,(8A)R)-1,2,3,5,6,7,8,(8A)-OCTAHYDRO-8-HYDROXY-2-METHYLNAPHTHALEN-4(4A)H)-ONE-1-CARBOXYLATE

>  <SYNONYMS>  (47) 


>  <SPECTRUM TYPE>  (47) 
MS1

>  <INSTRUMENT TYPE>  (47) 
EI-B

>  <INSTRUMENT>  (47) 
JEOL JMS-DX-300

>  <ION MODE>  (47) 
P

>  <INCHIKEY>  (47) 
YWLUZFIMMMHFCW-TWXYISROSA-N

>  <FORMULA>  (47) 
C13H20O4

>  <EXACT MASS>  (47) 
240.13615912

>  <MW>  (47) 
240

>  <ID>  (47) 
JP012126

>  <CONTRIBUTOR>  (47) 
University of Tokyo Team, {Faculty of Engineering, University of Tokyo

>  <COMMENT>  (47) 
SMILES=COC(=O)C(C(C)1)C([H])(C(O)2)C([H])(CCC2)C(=O)C1
InChI=InChI=1S/C13H20O4/c1-7-6-10(15)8-4-3-5-9(14)12(8)11(7)13(16)17-2/h7-9,11-12,14H,3-6H2,1-2H3/t7-,8+,9-,11+,12+/m1/s1
computed SMILES=O=C(OC)C1C(C)CC(=O)C2CCCC(O)C21
accession=JP012126
date=2016.01.19 (Created 2008.10.21, modified 2011.05.06)
author=HISAHIRO HAGIWARA, INSTITUTE FOR CHEMICAL REACTION SCIENCE TOHOKU UNIV.
license=CC BY-NC-SA
exact mass=240.13616
ionization energy=70 eV
ion type=[M]+*
computed spectral entropy=4.1492735226215585
computed normalized entropy=0.9389959699611216
SPLASH=splash10-03dm-8910000000-7fcf10ed155265208f30
submitter=submitter = University of Tokyo Team (Faculty of Engineering, University of Tokyo)
MoNA Rating=3.75

>  <NUM PEAKS>  (47) 
83

>  <MASS SPECTRAL PEAKS>  (47) 
31 6.62
39 20.71
41 51.41
42 8.67
43 17.66
53 21.11
54 6.26
55 36.28
57 9.77
59 14.49
65 8.01
66 8.3
67 28.01
68 7.88
69 45.02
70 8
71 7.09
74 5.79
77 16.43
79 29.82
80 9.74
81 32.67
82 13.72
83 12.36
84 23.76
85 5.56
91 16.49
92 6
93 24.25
94 17.4
95 21.05
96 8.92
97 63.36
98 10.21
101 22.38
105 7.89
107 11.39
108 5.94
109 18.44
110 22.6
111 17.39
113 13.56
114 17.18
119 7.9
120 9.95
121 23.97
122 16.21
123 24.5
124 7.78
125 6.4
133 5.51
134 11.05
135 16.25
136 10.49
137 18.98
138 13.69
139 17.11
140 7.45
145 8
147 11.86
148 6.78
151 5.91
152 12.49
153 6.28
154 6.82
162 52.57
163 99.99
164 16.01
170 13.99
171 6.67
180 16.99
181 7.91
183 24.52
184 5.78
190 24.09
196 34.39
207 8.4
208 9.9
209 21.23
222 53.39
223 8.59
240 33.73
241 5.26

$$$$

     RDKit          2D

 16 17  0  0  1  0  0  0  0  0999 V2000
    3.8989    1.5002    0.0000 C   0  0  0  0  0  0  0  0  0  0  0  0
    2.5990    5.2500    0.0000 C   0  0  0  0  0  0  0  0  0  0  0  0
   -2.6000   -0.7500    0.0000 C   0  0  0  0  0  0  0  0  0  0  0  0
   -2.6000    0.7500    0.0000 C   0  0  0  0  0  0  0  0  0  0  0  0
   -1.3000   -1.5000    0.0000 C   0  0  0  0  0  0  0  0  0  0  0  0
   -1.3000    1.5000    0.0000 C   0  0  0  0  0  0  0  0  0  0  0  0
    2.6000   -0.7500    0.0000 C   0  0  0  0  0  0  0  0  0  0  0  0
    2.6000    0.7500    0.0000 C   0  0  0  0  0  0  0  0  0  0  0  0
    0.0000   -0.7500    0.0000 C   0  0  0  0  0  0  0  0  0  0  0  0
    0.0000    0.7500    0.0000 C   0  0  0  0  0  0  0  0  0  0  0  0
    1.3000   -1.5000    0.0000 C   0  0  0  0  0  0  0  0  0  0  0  0
    1.3000    1.5000    0.0000 C   0  0  0  0  0  0  0  0  0  0  0  0
    1.3000    3.0000    0.0000 C   0  0  0  0  0  0  0  0  0  0  0  0
    1.3000   -3.0000    0.0000 O   0  0  0  0  0  0  0  0  0  0  0  0
    0.0010    3.7500    0.0000 O   0  0  0  0  0  0  0  0  0  0  0  0
    2.5990    3.7500    0.0000 O   0  0  0  0  0  0  0  0  0  0  0  0
  4  3  1  0
  5  3  1  0
  6  4  1  0
  8  1  1  6
  8  7  1  0
  9  5  1  6
 10  6  1  1
 10  9  1  0
 11  7  1  0
 11  9  1  0
 12  8  1  0
 12 10  1  0
 12 13  1  1
 14 11  2  0
 15 13  2  0
 16  2  1  0
 16 13  1  0
M  END
>  <NAME>  (48) 
METHYL (1S,2R,(4A)R,(8A)R)-1,2,3,5,6,7,8,(8A)-OCTAHYDRO-2-METHYLNAPHTHALEN-4(4A)H-ONE-1-CARBOXYLATE

>  <SYNONYMS>  (48) 


>  <SPECTRUM TYPE>  (48) 
MS1

>  <INSTRUMENT TYPE>  (48) 
EI-B

>  <INSTRUMENT>  (48) 
JEOL JMS-DX-300

>  <ION MODE>  (48) 
P

>  <INCHIKEY>  (48) 
MGMNAJYGRQZXQO-BFLSOPEQSA-N

>  <FORMULA>  (48) 
C13H20O3

>  <EXACT MASS>  (48) 
224.1412445

>  <MW>  (48) 
224

>  <ID>  (48) 
JP012125

>  <CONTRIBUTOR>  (48) 
University of Tokyo Team, {Faculty of Engineering, University of Tokyo

>  <COMMENT>  (48) 
SMILES=COC(=O)C(C(C)1)C([H])(C2)C([H])(CCC2)C(=O)C1
InChI=InChI=1S/C13H20O3/c1-8-7-11(14)9-5-3-4-6-10(9)12(8)13(15)16-2/h8-10,12H,3-7H2,1-2H3/t8-,9-,10-,12+/m1/s1
computed SMILES=O=C(OC)C1C(C)CC(=O)C2CCCCC21
accession=JP012125
date=2016.01.19 (Created 2008.10.21, modified 2011.05.06)
author=HISAHIRO HAGIWARA, INSTITUTE FOR CHEMICAL REACTION SCIENCE TOHOKU UNIV.
license=CC BY-NC-SA
exact mass=224.14124
ionization energy=70 eV
ion type=[M]+*
computed spectral entropy=2.854543517843478
computed normalized entropy=0.8312621299564383
SPLASH=splash10-001r-9100000000-d93ff297b29fb3af3842
submitter=submitter = University of Tokyo Team (Faculty of Engineering, University of Tokyo)
MoNA Rating=3.75

>  <NUM PEAKS>  (48) 
31

>  <MASS SPECTRAL PEAKS>  (48) 
35 5.3
40 12.18
41 5.37
42 5.11
43 36.87
44 7.29
47 22.7
48 10.26
49 7.39
50 4.74
53 4.01
58 15.25
67 4.45
69 10.1
80 4.7
81 9.69
82 5.05
83 99.99
84 4.58
85 68.18
87 11.43
114 4.96
118 4.7
120 4.39
122 4.55
124 22.82
147 15.12
149 4.29
164 7.2
165 5.3
224 8.55

$$$$

     RDKit          2D

 16 17  0  0  1  0  0  0  0  0999 V2000
    3.8989    1.5002    0.0000 C   0  0  0  0  0  0  0  0  0  0  0  0
    2.5990    5.2500    0.0000 C   0  0  0  0  0  0  0  0  0  0  0  0
   -2.6000   -0.7500    0.0000 C   0  0  0  0  0  0  0  0  0  0  0  0
   -2.6000    0.7500    0.0000 C   0  0  0  0  0  0  0  0  0  0  0  0
   -1.3000   -1.5000    0.0000 C   0  0  0  0  0  0  0  0  0  0  0  0
   -1.3000    1.5000    0.0000 C   0  0  0  0  0  0  0  0  0  0  0  0
    2.6000   -0.7500    0.0000 C   0  0  0  0  0  0  0  0  0  0  0  0
    2.6000    0.7500    0.0000 C   0  0  0  0  0  0  0  0  0  0  0  0
    0.0000   -0.7500    0.0000 C   0  0  0  0  0  0  0  0  0  0  0  0
    0.0000    0.7500    0.0000 C   0  0  0  0  0  0  0  0  0  0  0  0
    1.3000   -1.5000    0.0000 C   0  0  0  0  0  0  0  0  0  0  0  0
    1.3000    1.5000    0.0000 C   0  0  0  0  0  0  0  0  0  0  0  0
    1.3000    3.0000    0.0000 C   0  0  0  0  0  0  0  0  0  0  0  0
    1.3000   -3.0000    0.0000 O   0  0  0  0  0  0  0  0  0  0  0  0
    0.0010    3.7500    0.0000 O   0  0  0  0  0  0  0  0  0  0  0  0
    2.5990    3.7500    0.0000 O   0  0  0  0  0  0  0  0  0  0  0  0
  4  3  1  0
  5  3  1  0
  6  4  1  0
  8  1  1  6
  8  7  1  0
  9  5  1  6
 10  6  1  1
 10  9  1  0
 11  7  1  0
 11  9  1  0
 12  8  1  0
 12 10  1  0
 12 13  1  1
 11 14  1  6
 15 13  2  0
 16  2  1  0
 16 13  1  0
M  END
>  <NAME>  (49) 
METHYL (1S,2R,4S,(4A)R,(8A)R)-DECAHYDRO-4-HYDROXY-2-METHYLNAPHTHALEN-1-CARBOXYLATE

>  <SYNONYMS>  (49) 


>  <SPECTRUM TYPE>  (49) 
MS1

>  <INSTRUMENT TYPE>  (49) 
EI-B

>  <INSTRUMENT>  (49) 
JEOL JMS-DX-300

>  <ION MODE>  (49) 
P

>  <INCHIKEY>  (49) 
PFMCGYTZQRCFBE-JCIQBVFBSA-N

>  <FORMULA>  (49) 
C13H22O3

>  <EXACT MASS>  (49) 
226.15689456399997

>  <MW>  (49) 
226

>  <ID>  (49) 
JP012124

>  <CONTRIBUTOR>  (49) 
University of Tokyo Team, {Faculty of Engineering, University of Tokyo

>  <COMMENT>  (49) 
SMILES=COC(=O)C(C(C)1)C([H])(C2)C([H])(CCC2)C(O)C1
InChI=InChI=1S/C13H22O3/c1-8-7-11(14)9-5-3-4-6-10(9)12(8)13(15)16-2/h8-12,14H,3-7H2,1-2H3/t8-,9-,10-,11+,12+/m1/s1
computed SMILES=O=C(OC)C1C(C)CC(O)C2CCCCC12
accession=JP012124
date=2016.01.19 (Created 2008.10.21, modified 2011.05.06)
author=HISAHIRO HAGIWARA, INSTITUTE FOR CHEMICAL REACTION SCIENCE TOHOKU UNIV.
license=CC BY-NC-SA
exact mass=226.15689
ionization energy=70 eV
ion type=[M]+*
computed spectral entropy=3.565976149029977
computed normalized entropy=0.8939559816242846
SPLASH=splash10-0002-6900000000-5c5b60f94c56c0465e0f
submitter=submitter = University of Tokyo Team (Faculty of Engineering, University of Tokyo)
MoNA Rating=3.75

>  <NUM PEAKS>  (49) 
54

>  <MASS SPECTRAL PEAKS>  (49) 
39 9.78
41 25.21
43 8.8
51 4.12
53 10.55
55 16.34
57 5.45
59 7.54
65 8.1
66 5.52
67 21.86
69 15.01
71 4.26
74 4.75
77 13.48
78 8.87
79 36.03
80 9.22
81 30.03
82 5.59
83 8.59
91 28.49
92 9.01
93 34.15
94 10.89
95 11.73
101 16.76
103 4.82
105 20.18
106 16.41
107 22.98
108 65.64
109 9.85
114 4.33
117 5.87
119 11.8
120 6.43
121 8.59
124 5.73
125 4.82
131 3.98
133 16.2
134 7.89
135 5.17
146 4.89
147 10.41
148 84.71
149 99.99
150 14.46
166 4.61
176 29.26
177 7.4
208 24.93
209 4.54

$$$$

     RDKit          2D

 13 14  0  0  1  0  0  0  0  0999 V2000
    3.8989    1.5002    0.0000 C   0  0  0  0  0  0  0  0  0  0  0  0
   -2.6000   -0.7500    0.0000 C   0  0  0  0  0  0  0  0  0  0  0  0
   -2.6000    0.7500    0.0000 C   0  0  0  0  0  0  0  0  0  0  0  0
   -1.3000   -1.5000    0.0000 C   0  0  0  0  0  0  0  0  0  0  0  0
   -1.3000    1.5000    0.0000 C   0  0  0  0  0  0  0  0  0  0  0  0
    2.6000   -0.7500    0.0000 C   0  0  0  0  0  0  0  0  0  0  0  0
    1.3000   -1.5000    0.0000 C   0  0  0  0  0  0  0  0  0  0  0  0
    1.3000    3.0000    0.0000 C   0  0  0  0  0  0  0  0  0  0  0  0
    2.6000    0.7500    0.0000 C   0  0  0  0  0  0  0  0  0  0  0  0
    0.0000   -0.7500    0.0000 C   0  0  0  0  0  0  0  0  0  0  0  0
    0.0000    0.7500    0.0000 C   0  0  0  0  0  0  0  0  0  0  0  0
    1.3000    1.5000    0.0000 C   0  0  0  0  0  0  0  0  0  0  0  0
    2.5990    3.7500    0.0000 O   0  0  0  0  0  0  0  0  0  0  0  0
  3  2  1  0
  4  2  1  0
  5  3  1  0
  7  6  2  0
  9  1  1  6
  9  6  1  0
 10  4  1  6
 10  7  1  0
 11  5  1  1
 11 10  1  0
 12  8  1  6
 12  9  1  0
 12 11  1  0
 13  8  1  0
M  END
>  <NAME>  (50) 
(1R,2R,(4A)S,(8A)R)-1,2,(4A),5,6,7,8,(8A)-OCTAHYDRO-2-METHYLNAPHTHALEN-1-METHANOL

>  <SYNONYMS>  (50) 


>  <SPECTRUM TYPE>  (50) 
MS1

>  <INSTRUMENT TYPE>  (50) 
EI-B

>  <INSTRUMENT>  (50) 
JEOL JMS-DX-300

>  <ION MODE>  (50) 
P

>  <INCHIKEY>  (50) 
TUMHGYLMWUWTEY-WRWGMCAJSA-N

>  <FORMULA>  (50) 
C12H20O

>  <EXACT MASS>  (50) 
180.15141526

>  <MW>  (50) 
180

>  <ID>  (50) 
JP012123

>  <CONTRIBUTOR>  (50) 
University of Tokyo Team, {Faculty of Engineering, University of Tokyo

>  <COMMENT>  (50) 
SMILES=OCC([H])(C([H])(C)1)C([H])(C2)C([H])(CCC2)C([H])=C([H])1
InChI=InChI=1S/C12H20O/c1-9-6-7-10-4-2-3-5-11(10)12(9)8-13/h6-7,9-13H,2-5,8H2,1H3/t9-,10+,11-,12-/m1/s1
computed SMILES=OCC1C(C=CC2CCCCC21)C
accession=JP012123
date=2016.01.19 (Created 2008.10.21, modified 2011.05.06)
author=HISAHIRO HAGIWARA, INSTITUTE FOR CHEMICAL REACTION SCIENCE TOHOKU UNIV.
license=CC BY-NC-SA
exact mass=180.15142
ionization energy=70 eV
ion type=[M]+*
computed spectral entropy=2.523295809617661
computed normalized entropy=0.8569699788215671
SPLASH=splash10-0002-4900000000-1056f553f6afb3db679c
submitter=submitter = University of Tokyo Team (Faculty of Engineering, University of Tokyo)
MoNA Rating=3.75

>  <NUM PEAKS>  (50) 
19

>  <MASS SPECTRAL PEAKS>  (50) 
41 8.34
55 6.51
67 8.14
77 6.99
79 14.53
81 21.5
91 15.65
93 13.18
95 5.35
105 17.05
107 12.68
119 11.12
120 5.66
133 6.46
147 13.18
149 99.99
150 15.56
162 9.56
180 12.86

$$$$

     RDKit          2D

 20 22  0  0  0  0  0  0  0  0999 V2000
    3.3966    4.6694    0.0000 C   0  0  0  0  0  0  0  0  0  0  0  0
   -6.1074    1.7708    0.0000 C   0  0  0  0  0  0  0  0  0  0  0  0
    1.9041    4.8274    0.0000 C   0  0  0  0  0  0  0  0  0  0  0  0
    4.0069    3.2983    0.0000 C   0  0  0  0  0  0  0  0  0  0  0  0
   -5.2250    0.5567    0.0000 C   0  0  0  0  0  0  0  0  0  0  0  0
   -5.4980    3.1423    0.0000 C   0  0  0  0  0  0  0  0  0  0  0  0
    1.0219    3.6143    0.0000 C   0  0  0  0  0  0  0  0  0  0  0  0
    3.1247    2.0851    0.0000 C   0  0  0  0  0  0  0  0  0  0  0  0
   -3.7333    0.7141    0.0000 C   0  0  0  0  0  0  0  0  0  0  0  0
   -4.0062    3.2998    0.0000 C   0  0  0  0  0  0  0  0  0  0  0  0
    1.6322    2.2431    0.0000 C   0  0  0  0  0  0  0  0  0  0  0  0
   -3.1239    2.0857    0.0000 C   0  0  0  0  0  0  0  0  0  0  0  0
   -0.7500    1.0300    0.0000 C   0  0  0  0  0  0  0  0  0  0  0  0
    0.7500    1.0300    0.0000 C   0  0  0  0  0  0  0  0  0  0  0  0
   -1.6322    2.2431    0.0000 C   0  0  0  0  0  0  0  0  0  0  0  0
   -1.2100   -0.3900    0.0000 C   0  0  0  0  0  0  0  0  0  0  0  0
    1.2100   -0.3900    0.0000 N   0  0  0  0  0  0  0  0  0  0  0  0
   -1.0227    3.6137    0.0000 O   0  0  0  0  0  0  0  0  0  0  0  0
   -2.6377   -0.8500    0.0000 O   0  0  0  0  0  0  0  0  0  0  0  0
   -0.0000   -1.2800    0.0000 O   0  0  0  0  0  0  0  0  0  0  0  0
  3  1  2  0
  4  1  1  0
  5  2  2  0
  6  2  1  0
  7  3  1  0
  8  4  2  0
  9  5  1  0
 10  6  2  0
 11  7  2  0
 11  8  1  0
 12  9  2  0
 12 10  1  0
 14 11  1  0
 14 13  1  0
 15 12  1  0
 15 13  1  0
 16 13  1  0
 17 14  2  0
 18 15  2  0
 19 16  2  0
 20 16  1  0
 20 17  1  0
M  END
>  <NAME>  (51) 
4-BENZOYL-3-PHENYL-5-ISOXAZOLONE

>  <SYNONYMS>  (51) 


>  <SPECTRUM TYPE>  (51) 
MS1

>  <INSTRUMENT TYPE>  (51) 
EI-B

>  <INSTRUMENT>  (51) 
JEOL JMS-DX-300

>  <ION MODE>  (51) 
P

>  <INCHIKEY>  (51) 
SVVFJNDRCLYVHB-UHFFFAOYSA-N

>  <FORMULA>  (51) 
C16H11NO3

>  <EXACT MASS>  (51) 
265.07389321200003

>  <MW>  (51) 
265

>  <ID>  (51) 
JP012122

>  <CONTRIBUTOR>  (51) 
University of Tokyo Team, {Faculty of Engineering, University of Tokyo

>  <COMMENT>  (51) 
SMILES=c(c3)ccc(c3)C(=O)C(C(=O)2)C(=NO2)c(c1)cccc1
InChI=InChI=1S/C16H11NO3/c18-15(12-9-5-2-6-10-12)13-14(17-20-16(13)19)11-7-3-1-4-8-11/h1-10,13H
computed SMILES=O=C1ON=C(C=2C=CC=CC2)C1C(=O)C=3C=CC=CC3
accession=JP012122
date=2016.01.19 (Created 2008.10.21, modified 2011.05.06)
author=HISAHIRO HAGIWARA, INSTITUTE FOR CHEMICAL REACTION SCIENCE TOHOKU UNIV.
license=CC BY-NC-SA
exact mass=265.07389
ionization energy=70 eV
ion type=[M]+*
computed spectral entropy=1.631937682988822
computed normalized entropy=0.5885971005719497
SPLASH=splash10-0a4i-3900000000-a8feb1f69d461d1d6136
submitter=submitter = University of Tokyo Team (Faculty of Engineering, University of Tokyo)
MoNA Rating=3.75

>  <NUM PEAKS>  (51) 
16

>  <MASS SPECTRAL PEAKS>  (51) 
39 1.04
50 2.19
51 6.76
63 1.51
75 1.01
76 3.03
77 26.82
78 3.45
89 2.15
102 6.35
103 2.72
104 1
105 99.99
106 19.69
116 2.39
265 1.76

$$$$

     RDKit          2D

 21 23  0  0  0  0  0  0  0  0999 V2000
    3.7924    0.9202    0.0000 C   0  0  0  0  0  0  0  0  0  0  0  0
    2.3658    0.4541    0.0000 C   0  0  0  0  0  0  0  0  0  0  0  0
    4.1029    2.3886    0.0000 C   0  0  0  0  0  0  0  0  0  0  0  0
   -5.4951    3.1364    0.0000 C   0  0  0  0  0  0  0  0  0  0  0  0
   -6.1079    1.7758    0.0000 C   0  0  0  0  0  0  0  0  0  0  0  0
    1.2497    1.4563    0.0000 C   0  0  0  0  0  0  0  0  0  0  0  0
    2.9869    3.3908    0.0000 C   0  0  0  0  0  0  0  0  0  0  0  0
   -4.0032    3.2913    0.0000 C   0  0  0  0  0  0  0  0  0  0  0  0
   -5.2276    0.5602    0.0000 C   0  0  0  0  0  0  0  0  0  0  0  0
    1.5603    2.9247    0.0000 C   0  0  0  0  0  0  0  0  0  0  0  0
   -3.1239    2.0857    0.0000 C   0  0  0  0  0  0  0  0  0  0  0  0
   -3.7356    0.7152    0.0000 C   0  0  0  0  0  0  0  0  0  0  0  0
   -1.0227    3.6137    0.0000 C   0  0  0  0  0  0  0  0  0  0  0  0
    0.4442    3.9269    0.0000 C   0  0  0  0  0  0  0  0  0  0  0  0
   -1.6322    2.2431    0.0000 C   0  0  0  0  0  0  0  0  0  0  0  0
   -1.7690    4.9064    0.0000 C   0  0  0  0  0  0  0  0  0  0  0  0
   -2.8552   -0.4993    0.0000 F   0  0  0  0  0  0  0  0  0  0  0  0
    0.5976    5.4116    0.0000 N   0  0  0  0  0  0  0  0  0  0  0  0
   -0.7500    1.0300    0.0000 O   0  0  0  0  0  0  0  0  0  0  0  0
   -3.2613    5.0582    0.0000 O   0  0  0  0  0  0  0  0  0  0  0  0
   -0.7715    6.0294    0.0000 O   0  0  0  0  0  0  0  0  0  0  0  0
  2  1  2  0
  3  1  1  0
  5  4  2  0
  6  2  1  0
  7  3  2  0
  8  4  1  0
  9  5  1  0
 10  6  2  0
 10  7  1  0
 11  8  2  0
 12  9  2  0
 12 11  1  0
 14 10  1  0
 14 13  1  0
 15 11  1  0
 15 13  1  0
 16 13  1  0
 17 12  1  0
 18 14  2  0
 19 15  2  0
 20 16  2  0
 21 16  1  0
 21 18  1  0
M  END
>  <NAME>  (52) 
4-(2-FLUOROBENZOYL)-3-PHENYL-5-ISOXAZOLONE

>  <SYNONYMS>  (52) 


>  <SPECTRUM TYPE>  (52) 
MS1

>  <INSTRUMENT TYPE>  (52) 
EI-B

>  <INSTRUMENT>  (52) 
JEOL JMS-DX-300

>  <ION MODE>  (52) 
P

>  <INCHIKEY>  (52) 
VHRCZUMIDWIWQN-UHFFFAOYSA-N

>  <FORMULA>  (52) 
C16H10FNO3

>  <EXACT MASS>  (52) 
283.0644714

>  <MW>  (52) 
283

>  <ID>  (52) 
JP012121

>  <CONTRIBUTOR>  (52) 
University of Tokyo Team, {Faculty of Engineering, University of Tokyo

>  <COMMENT>  (52) 
SMILES=Fc(c3)c(ccc3)C(=O)C(C(=O)2)C(=NO2)c(c1)cccc1
InChI=InChI=1S/C16H10FNO3/c17-12-9-5-4-8-11(12)15(19)13-14(18-21-16(13)20)10-6-2-1-3-7-10/h1-9,13H
computed SMILES=O=C1ON=C(C=2C=CC=CC2)C1C(=O)C=3C=CC=CC3F
accession=JP012121
date=2016.01.19 (Created 2008.10.21, modified 2011.05.06)
author=HISAHIRO HAGIWARA, INSTITUTE FOR CHEMICAL REACTION SCIENCE TOHOKU UNIV.
license=CC BY-NC-SA
exact mass=283.06447
ionization energy=70 eV
ion type=[M]+*
computed spectral entropy=1.555834334220507
computed normalized entropy=0.5611486196061769
SPLASH=splash10-00di-2900000000-702fbf54737c62123912
submitter=submitter = University of Tokyo Team (Faculty of Engineering, University of Tokyo)
MoNA Rating=3.75

>  <NUM PEAKS>  (52) 
16

>  <MASS SPECTRAL PEAKS>  (52) 
39 1.14
50 1.53
51 2.58
63 1.75
75 4.5
76 2.42
77 2.46
89 2.53
94 1.11
95 14.44
102 5
103 2.58
116 2.76
123 99.99
124 21.19
283 1.01

$$$$

     RDKit          2D

 21 23  0  0  0  0  0  0  0  0999 V2000
    3.3966    4.6694    0.0000 C   0  0  0  0  0  0  0  0  0  0  0  0
    1.9041    4.8274    0.0000 C   0  0  0  0  0  0  0  0  0  0  0  0
    4.0069    3.2983    0.0000 C   0  0  0  0  0  0  0  0  0  0  0  0
    1.0219    3.6143    0.0000 C   0  0  0  0  0  0  0  0  0  0  0  0
    3.1247    2.0851    0.0000 C   0  0  0  0  0  0  0  0  0  0  0  0
   -3.7336    0.7152    0.0000 C   0  0  0  0  0  0  0  0  0  0  0  0
   -4.0068    3.2994    0.0000 C   0  0  0  0  0  0  0  0  0  0  0  0
   -5.2263    0.5584    0.0000 C   0  0  0  0  0  0  0  0  0  0  0  0
   -5.4994    3.1425    0.0000 C   0  0  0  0  0  0  0  0  0  0  0  0
    1.6322    2.2431    0.0000 C   0  0  0  0  0  0  0  0  0  0  0  0
   -3.1239    2.0857    0.0000 C   0  0  0  0  0  0  0  0  0  0  0  0
   -6.1092    1.7720    0.0000 C   0  0  0  0  0  0  0  0  0  0  0  0
   -0.7500    1.0300    0.0000 C   0  0  0  0  0  0  0  0  0  0  0  0
    0.7500    1.0300    0.0000 C   0  0  0  0  0  0  0  0  0  0  0  0
   -1.6322    2.2431    0.0000 C   0  0  0  0  0  0  0  0  0  0  0  0
   -1.2100   -0.3900    0.0000 C   0  0  0  0  0  0  0  0  0  0  0  0
   -7.6009    1.6146    0.0000 F   0  0  0  0  0  0  0  0  0  0  0  0
    1.2100   -0.3900    0.0000 N   0  0  0  0  0  0  0  0  0  0  0  0
   -1.0227    3.6137    0.0000 O   0  0  0  0  0  0  0  0  0  0  0  0
   -2.6377   -0.8500    0.0000 O   0  0  0  0  0  0  0  0  0  0  0  0
   -0.0000   -1.2800    0.0000 O   0  0  0  0  0  0  0  0  0  0  0  0
  2  1  2  0
  3  1  1  0
  4  2  1  0
  5  3  2  0
  8  6  2  0
  9  7  1  0
 10  4  2  0
 10  5  1  0
 11  6  1  0
 11  7  2  0
 12  8  1  0
 12  9  2  0
 14 10  1  0
 14 13  1  0
 15 11  1  0
 15 13  1  0
 16 13  1  0
 17 12  1  0
 18 14  2  0
 19 15  2  0
 20 16  2  0
 21 16  1  0
 21 18  1  0
M  END
>  <NAME>  (53) 
4-(4-FLUOROBENZOYL)-3-PHENYL-5-ISOXAZOLONE

>  <SYNONYMS>  (53) 


>  <SPECTRUM TYPE>  (53) 
MS1

>  <INSTRUMENT TYPE>  (53) 
EI-B

>  <INSTRUMENT>  (53) 
JEOL JMS-DX-300

>  <ION MODE>  (53) 
P

>  <INCHIKEY>  (53) 
BCECACPCPCOKJZ-UHFFFAOYSA-N

>  <FORMULA>  (53) 
C16H10FNO3

>  <EXACT MASS>  (53) 
283.0644714

>  <MW>  (53) 
283

>  <ID>  (53) 
JP012120

>  <CONTRIBUTOR>  (53) 
University of Tokyo Team, {Faculty of Engineering, University of Tokyo

>  <COMMENT>  (53) 
SMILES=Fc(c3)ccc(c3)C(=O)C(C(=O)2)C(=NO2)c(c1)cccc1
InChI=InChI=1S/C16H10FNO3/c17-12-8-6-11(7-9-12)15(19)13-14(18-21-16(13)20)10-4-2-1-3-5-10/h1-9,13H
computed SMILES=O=C1ON=C(C=2C=CC=CC2)C1C(=O)C3=CC=C(F)C=C3
accession=JP012120
date=2016.01.19 (Created 2008.10.21, modified 2011.05.06)
author=HISAHIRO HAGIWARA, INSTITUTE FOR CHEMICAL REACTION SCIENCE TOHOKU UNIV.
license=CC BY-NC-SA
exact mass=283.06447
ionization energy=70 eV
ion type=[M]+*
computed spectral entropy=2.3066021926624725
computed normalized entropy=0.6922150743206316
SPLASH=splash10-00di-5900000000-c5854a0f05ad679a91a7
submitter=submitter = University of Tokyo Team (Faculty of Engineering, University of Tokyo)
MoNA Rating=3.75

>  <NUM PEAKS>  (53) 
28

>  <MASS SPECTRAL PEAKS>  (53) 
39 2.08
50 3.27
51 5.56
52 1.62
62 1.02
63 3.35
69 1.7
74 1.75
75 10.09
76 5.05
77 5.69
89 4.67
90 1.07
94 2.58
95 47.9
96 7.26
102 12.78
103 5.39
104 1.59
105 1.16
116 5.85
122 1.37
123 99.99
124 33.32
132 1.04
140 1.43
144 1.73
283 5.62

$$$$

     RDKit          2D

 21 23  0  0  0  0  0  0  0  0999 V2000
    3.3966    4.6694    0.0000 C   0  0  0  0  0  0  0  0  0  0  0  0
    1.9041    4.8274    0.0000 C   0  0  0  0  0  0  0  0  0  0  0  0
    4.0069    3.2983    0.0000 C   0  0  0  0  0  0  0  0  0  0  0  0
   -5.4951    3.1364    0.0000 C   0  0  0  0  0  0  0  0  0  0  0  0
    1.0219    3.6143    0.0000 C   0  0  0  0  0  0  0  0  0  0  0  0
    3.1247    2.0851    0.0000 C   0  0  0  0  0  0  0  0  0  0  0  0
   -4.0032    3.2913    0.0000 C   0  0  0  0  0  0  0  0  0  0  0  0
   -6.1079    1.7758    0.0000 C   0  0  0  0  0  0  0  0  0  0  0  0
   -3.7356    0.7152    0.0000 C   0  0  0  0  0  0  0  0  0  0  0  0
    1.6322    2.2431    0.0000 C   0  0  0  0  0  0  0  0  0  0  0  0
   -3.1239    2.0857    0.0000 C   0  0  0  0  0  0  0  0  0  0  0  0
   -5.2276    0.5602    0.0000 C   0  0  0  0  0  0  0  0  0  0  0  0
   -0.7500    1.0300    0.0000 C   0  0  0  0  0  0  0  0  0  0  0  0
    0.7500    1.0300    0.0000 C   0  0  0  0  0  0  0  0  0  0  0  0
   -1.6322    2.2431    0.0000 C   0  0  0  0  0  0  0  0  0  0  0  0
   -1.2100   -0.3900    0.0000 C   0  0  0  0  0  0  0  0  0  0  0  0
   -5.8396   -0.8093    0.0000 F   0  0  0  0  0  0  0  0  0  0  0  0
    1.2100   -0.3900    0.0000 N   0  0  0  0  0  0  0  0  0  0  0  0
   -1.0227    3.6137    0.0000 O   0  0  0  0  0  0  0  0  0  0  0  0
   -2.6377   -0.8500    0.0000 O   0  0  0  0  0  0  0  0  0  0  0  0
   -0.0000   -1.2800    0.0000 O   0  0  0  0  0  0  0  0  0  0  0  0
  2  1  2  0
  3  1  1  0
  5  2  1  0
  6  3  2  0
  7  4  2  0
  8  4  1  0
 10  5  2  0
 10  6  1  0
 11  7  1  0
 11  9  2  0
 12  8  2  0
 12  9  1  0
 14 10  1  0
 14 13  1  0
 15 11  1  0
 15 13  1  0
 16 13  1  0
 17 12  1  0
 18 14  2  0
 19 15  2  0
 20 16  2  0
 21 16  1  0
 21 18  1  0
M  END
>  <NAME>  (54) 
4-(3-FLUOROBENZOYL)-3-PHENYL-5-ISOXAZOLONE

>  <SYNONYMS>  (54) 


>  <SPECTRUM TYPE>  (54) 
MS1

>  <INSTRUMENT TYPE>  (54) 
EI-B

>  <INSTRUMENT>  (54) 
JEOL JMS-DX-300

>  <ION MODE>  (54) 
P

>  <INCHIKEY>  (54) 
CHDLZDDLKCBEJW-UHFFFAOYSA-N

>  <FORMULA>  (54) 
C16H10FNO3

>  <EXACT MASS>  (54) 
283.0644714

>  <MW>  (54) 
283

>  <ID>  (54) 
JP012119

>  <CONTRIBUTOR>  (54) 
University of Tokyo Team, {Faculty of Engineering, University of Tokyo

>  <COMMENT>  (54) 
SMILES=Fc(c3)cc(cc3)C(=O)C(C(=O)2)C(=NO2)c(c1)cccc1
InChI=InChI=1S/C16H10FNO3/c17-12-8-4-7-11(9-12)15(19)13-14(18-21-16(13)20)10-5-2-1-3-6-10/h1-9,13H
computed SMILES=O=C1ON=C(C=2C=CC=CC2)C1C(=O)C=3C=CC=C(F)C3
accession=JP012119
date=2016.01.19 (Created 2008.10.21, modified 2011.05.06)
author=HISAHIRO HAGIWARA, INSTITUTE FOR CHEMICAL REACTION SCIENCE TOHOKU UNIV.
license=CC BY-NC-SA
exact mass=283.06447
ionization energy=70 eV
ion type=[M]+*
computed spectral entropy=2.101626846313717
computed normalized entropy=0.6799087615345976
SPLASH=splash10-00di-6900000000-a4045d7084d46d1f6b47
submitter=submitter = University of Tokyo Team (Faculty of Engineering, University of Tokyo)
MoNA Rating=3.75

>  <NUM PEAKS>  (54) 
22

>  <MASS SPECTRAL PEAKS>  (54) 
39 3.48
50 4.58
51 6.52
52 4.17
63 2.61
69 1.1
74 2.03
75 5.69
76 3.81
77 7.13
78 21.68
79 1.63
89 2.4
94 1.2
95 23.2
96 1.86
102 5.93
103 2.26
116 2.55
123 99.99
124 8.98
283 2.32

$$$$

     RDKit          2D

 22 24  0  0  0  0  0  0  0  0999 V2000
    3.6789    4.2812    0.0000 C   0  0  0  0  0  0  0  0  0  0  0  0
    2.1865    4.4392    0.0000 C   0  0  0  0  0  0  0  0  0  0  0  0
    4.2892    2.9101    0.0000 C   0  0  0  0  0  0  0  0  0  0  0  0
   -6.1089    1.7692    0.0000 C   0  0  0  0  0  0  0  0  0  0  0  0
    1.3042    3.2261    0.0000 C   0  0  0  0  0  0  0  0  0  0  0  0
    3.4070    1.6969    0.0000 C   0  0  0  0  0  0  0  0  0  0  0  0
   -5.4988    3.1404    0.0000 C   0  0  0  0  0  0  0  0  0  0  0  0
   -5.2265    0.5562    0.0000 C   0  0  0  0  0  0  0  0  0  0  0  0
    1.9145    1.8549    0.0000 C   0  0  0  0  0  0  0  0  0  0  0  0
   -4.0063    3.2987    0.0000 C   0  0  0  0  0  0  0  0  0  0  0  0
   -3.7340    0.7144    0.0000 C   0  0  0  0  0  0  0  0  0  0  0  0
   -3.1239    2.0857    0.0000 C   0  0  0  0  0  0  0  0  0  0  0  0
   -0.4677    0.6418    0.0000 C   0  0  0  0  0  0  0  0  0  0  0  0
    1.0323    0.6418    0.0000 C   0  0  0  0  0  0  0  0  0  0  0  0
   -1.6322    2.2431    0.0000 C   0  0  0  0  0  0  0  0  0  0  0  0
   -0.9277   -0.7782    0.0000 C   0  0  0  0  0  0  0  0  0  0  0  0
   -3.3973    4.6695    0.0000 F   0  0  0  0  0  0  0  0  0  0  0  0
   -2.8516   -0.4986    0.0000 F   0  0  0  0  0  0  0  0  0  0  0  0
    1.4923   -0.7782    0.0000 N   0  0  0  0  0  0  0  0  0  0  0  0
   -1.0227    3.6137    0.0000 O   0  0  0  0  0  0  0  0  0  0  0  0
   -2.3554   -1.2382    0.0000 O   0  0  0  0  0  0  0  0  0  0  0  0
    0.2823   -1.6682    0.0000 O   0  0  0  0  0  0  0  0  0  0  0  0
  2  1  2  0
  3  1  1  0
  5  2  1  0
  6  3  2  0
  7  4  2  0
  8  4  1  0
  9  5  2  0
  9  6  1  0
 10  7  1  0
 11  8  2  0
 12 10  2  0
 12 11  1  0
 14  9  1  0
 14 13  1  0
 15 12  1  0
 15 13  1  0
 16 13  1  0
 17 10  1  0
 18 11  1  0
 19 14  2  0
 20 15  2  0
 21 16  2  0
 22 16  1  0
 22 19  1  0
M  END
>  <NAME>  (55) 
4-(2,6-DIFLUOROBENZOYL)-3-PHENYL-5-ISOXAZOLONE

>  <SYNONYMS>  (55) 


>  <SPECTRUM TYPE>  (55) 
MS1

>  <INSTRUMENT TYPE>  (55) 
EI-B

>  <INSTRUMENT>  (55) 
JEOL JMS-DX-300

>  <ION MODE>  (55) 
P

>  <INCHIKEY>  (55) 
BNKWTLOFWODNEM-UHFFFAOYSA-N

>  <FORMULA>  (55) 
C16H9F2NO3

>  <EXACT MASS>  (55) 
301.05504958800003

>  <MW>  (55) 
301

>  <ID>  (55) 
JP012118

>  <CONTRIBUTOR>  (55) 
University of Tokyo Team, {Faculty of Engineering, University of Tokyo

>  <COMMENT>  (55) 
SMILES=c(c3)ccc(c3)C(=N2)C(C(=O)O2)C(=O)c(c(F)1)c(F)ccc1
InChI=InChI=1S/C16H9F2NO3/c17-10-7-4-8-11(18)12(10)15(20)13-14(19-22-16(13)21)9-5-2-1-3-6-9/h1-8,13H
computed SMILES=O=C1ON=C(C=2C=CC=CC2)C1C(=O)C=3C(F)=CC=CC3F
accession=JP012118
date=2016.01.19 (Created 2008.10.21, modified 2011.05.06)
author=HISAHIRO HAGIWARA, INSTITUTE FOR CHEMICAL REACTION SCIENCE TOHOKU UNIV.
license=CC BY-NC-SA
exact mass=301.05505
ionization energy=70 eV
ion type=[M]+*
computed spectral entropy=1.5251455543400905
computed normalized entropy=0.5276641491439873
SPLASH=splash10-0006-1900000000-32f7834a582d5130d4b7
submitter=submitter = University of Tokyo Team (Faculty of Engineering, University of Tokyo)
MoNA Rating=3.75

>  <NUM PEAKS>  (55) 
18

>  <MASS SPECTRAL PEAKS>  (55) 
39 1.02
50 1.08
51 2.21
62 0.85
63 5.49
75 0.71
76 1.89
77 2.25
89 2.16
102 5.95
103 2.28
112 0.7
113 10.03
116 2.64
141 99.99
142 22.56
158 0.75
301 0.93

$$$$

     RDKit          2D

 21 23  0  0  0  0  0  0  0  0999 V2000
   -5.8060    4.6176    0.0000 C   0  0  0  0  0  0  0  0  0  0  0  0
   -4.3794    5.0838    0.0000 C   0  0  0  0  0  0  0  0  0  0  0  0
   -6.1166    3.1493    0.0000 C   0  0  0  0  0  0  0  0  0  0  0  0
    3.4850    2.4061    0.0000 C   0  0  0  0  0  0  0  0  0  0  0  0
    4.1029    3.7755    0.0000 C   0  0  0  0  0  0  0  0  0  0  0  0
   -3.2634    4.0816    0.0000 C   0  0  0  0  0  0  0  0  0  0  0  0
   -5.0005    2.1471    0.0000 C   0  0  0  0  0  0  0  0  0  0  0  0
    1.9948    2.2351    0.0000 C   0  0  0  0  0  0  0  0  0  0  0  0
    3.2085    4.9914    0.0000 C   0  0  0  0  0  0  0  0  0  0  0  0
   -3.5739    2.6132    0.0000 C   0  0  0  0  0  0  0  0  0  0  0  0
    1.1103    3.4522    0.0000 C   0  0  0  0  0  0  0  0  0  0  0  0
    1.7182    4.8204    0.0000 C   0  0  0  0  0  0  0  0  0  0  0  0
   -0.9909    1.9241    0.0000 C   0  0  0  0  0  0  0  0  0  0  0  0
   -2.4579    1.6110    0.0000 C   0  0  0  0  0  0  0  0  0  0  0  0
   -0.3814    3.2947    0.0000 C   0  0  0  0  0  0  0  0  0  0  0  0
   -0.2446    0.6315    0.0000 C   0  0  0  0  0  0  0  0  0  0  0  0
    0.8303    6.0294    0.0000 Cl  0  0  0  0  0  0  0  0  0  0  0  0
   -2.6113    0.1262    0.0000 N   0  0  0  0  0  0  0  0  0  0  0  0
   -1.2636    4.5079    0.0000 O   0  0  0  0  0  0  0  0  0  0  0  0
    1.2477    0.4797    0.0000 O   0  0  0  0  0  0  0  0  0  0  0  0
   -1.2421   -0.4915    0.0000 O   0  0  0  0  0  0  0  0  0  0  0  0
  2  1  2  0
  3  1  1  0
  5  4  2  0
  6  2  1  0
  7  3  2  0
  8  4  1  0
  9  5  1  0
 10  6  2  0
 10  7  1  0
 11  8  2  0
 12  9  2  0
 12 11  1  0
 14 10  1  0
 14 13  1  0
 15 11  1  0
 15 13  1  0
 16 13  1  0
 17 12  1  0
 18 14  2  0
 19 15  2  0
 20 16  2  0
 21 16  1  0
 21 18  1  0
M  END
>  <NAME>  (56) 
4-(2-CHLOROBENZOYL)-3-PHENYL-5-ISOXAZOLONE

>  <SYNONYMS>  (56) 


>  <SPECTRUM TYPE>  (56) 
MS1

>  <INSTRUMENT TYPE>  (56) 
EI-B

>  <INSTRUMENT>  (56) 
JEOL JMS-DX-300

>  <ION MODE>  (56) 
P

>  <INCHIKEY>  (56) 
PLRKKMYNKANJAL-UHFFFAOYSA-N

>  <FORMULA>  (56) 
C16H10ClNO3

>  <EXACT MASS>  (56) 
299.03492086

>  <MW>  (56) 
299

>  <ID>  (56) 
JP012117

>  <CONTRIBUTOR>  (56) 
University of Tokyo Team, {Faculty of Engineering, University of Tokyo

>  <COMMENT>  (56) 
SMILES=c(c3)ccc(c3)C(=N2)C(C(=O)O2)C(=O)c(c1)c(Cl)ccc1
InChI=InChI=1S/C16H10ClNO3/c17-12-9-5-4-8-11(12)15(19)13-14(18-21-16(13)20)10-6-2-1-3-7-10/h1-9,13H
computed SMILES=O=C1ON=C(C=2C=CC=CC2)C1C(=O)C=3C=CC=CC3Cl
accession=JP012117
date=2016.01.19 (Created 2008.10.21, modified 2011.05.06)
author=HISAHIRO HAGIWARA, INSTITUTE FOR CHEMICAL REACTION SCIENCE TOHOKU UNIV.
license=CC BY-NC-SA
exact mass=299.03492
ionization energy=70 eV
ion type=[M]+*
computed spectral entropy=2.5308561868765875
computed normalized entropy=0.6771214273451369
SPLASH=splash10-000f-1900000000-d7e6e6a50df47fe68226
submitter=submitter = University of Tokyo Team (Faculty of Engineering, University of Tokyo)
MoNA Rating=3.75

>  <NUM PEAKS>  (56) 
42

>  <MASS SPECTRAL PEAKS>  (56) 
36 0.8
38 0.72
39 1.74
50 3.74
51 4.8
52 1.13
61 0.5
62 0.94
63 3.06
64 0.6
74 1.87
75 10.86
76 6.25
77 4.49
85 1.29
87 0.8
88 0.55
89 5.14
90 1.02
102 10.24
103 4.05
104 2.23
105 1.11
110 0.76
111 24.62
112 4.48
113 9.24
116 7.3
117 1.65
132 0.85
138 0.56
139 99.99
140 30.11
141 61.87
142 14.12
144 2.04
156 0.8
158 0.51
161 0.56
165 1.05
259 0.66
299 0.6

$$$$

     RDKit          2D

 21 23  0  0  0  0  0  0  0  0999 V2000
    5.4932    1.7699    0.0000 C   0  0  0  0  0  0  0  0  0  0  0  0
    4.3807    2.7773    0.0000 C   0  0  0  0  0  0  0  0  0  0  0  0
    5.1780    0.3026    0.0000 C   0  0  0  0  0  0  0  0  0  0  0  0
   -5.5078   -3.1416    0.0000 C   0  0  0  0  0  0  0  0  0  0  0  0
    2.9530    2.3173    0.0000 C   0  0  0  0  0  0  0  0  0  0  0  0
    3.7502   -0.1574    0.0000 C   0  0  0  0  0  0  0  0  0  0  0  0
   -4.0098   -3.2961    0.0000 C   0  0  0  0  0  0  0  0  0  0  0  0
   -6.1079   -1.7605    0.0000 C   0  0  0  0  0  0  0  0  0  0  0  0
   -3.7359   -0.7207    0.0000 C   0  0  0  0  0  0  0  0  0  0  0  0
    2.6377    0.8500    0.0000 C   0  0  0  0  0  0  0  0  0  0  0  0
   -3.1239   -2.0857    0.0000 C   0  0  0  0  0  0  0  0  0  0  0  0
   -5.2220   -0.5501    0.0000 C   0  0  0  0  0  0  0  0  0  0  0  0
   -0.7500   -1.0300    0.0000 C   0  0  0  0  0  0  0  0  0  0  0  0
   -1.6322   -2.2431    0.0000 C   0  0  0  0  0  0  0  0  0  0  0  0
    1.2100    0.3900    0.0000 C   0  0  0  0  0  0  0  0  0  0  0  0
   -1.2100    0.3900    0.0000 C   0  0  0  0  0  0  0  0  0  0  0  0
   -5.8231    0.8242    0.0000 Cl  0  0  0  0  0  0  0  0  0  0  0  0
    0.7500   -1.0300    0.0000 N   0  0  0  0  0  0  0  0  0  0  0  0
   -1.0227   -3.6137    0.0000 O   0  0  0  0  0  0  0  0  0  0  0  0
   -2.6377    0.8500    0.0000 O   0  0  0  0  0  0  0  0  0  0  0  0
    0.0000    1.2800    0.0000 O   0  0  0  0  0  0  0  0  0  0  0  0
  2  1  2  0
  3  1  1  0
  5  2  1  0
  6  3  2  0
  7  4  2  0
  8  4  1  0
 10  5  2  0
 10  6  1  0
 11  7  1  0
 11  9  2  0
 12  8  2  0
 12  9  1  0
 14 11  1  0
 14 13  1  0
 15 10  1  0
 16 13  1  0
 17 12  1  0
 18 13  1  0
 18 15  2  0
 19 14  2  0
 20 16  2  0
 21 15  1  0
 21 16  1  0
M  END
>  <NAME>  (57) 
4-(3-CHLOROBENZOYL)-3-PHENYL-5-OXAZOLONE

>  <SYNONYMS>  (57) 


>  <SPECTRUM TYPE>  (57) 
MS1

>  <INSTRUMENT TYPE>  (57) 
EI-B

>  <INSTRUMENT>  (57) 
JEOL JMS-DX-300

>  <ION MODE>  (57) 
P

>  <INCHIKEY>  (57) 
KMASZWZAPIAVKK-UHFFFAOYSA-N

>  <FORMULA>  (57) 
C16H10ClNO3

>  <EXACT MASS>  (57) 
299.03492086

>  <MW>  (57) 
299

>  <ID>  (57) 
JP012116

>  <CONTRIBUTOR>  (57) 
University of Tokyo Team, {Faculty of Engineering, University of Tokyo

>  <COMMENT>  (57) 
SMILES=Clc(c3)cc(cc3)C(=O)C(N=1)C(=O)OC(c(c2)cccc2)1
InChI=InChI=1S/C16H10ClNO3/c17-12-8-4-7-11(9-12)14(19)13-16(20)21-15(18-13)10-5-2-1-3-6-10/h1-9,13H
computed SMILES=O=C1OC(=NC1C(=O)C=2C=CC=C(Cl)C2)C=3C=CC=CC3
accession=JP012116
date=2016.01.19 (Created 2008.10.21, modified 2011.05.06)
author=HISAHIRO HAGIWARA, INSTITUTE FOR CHEMICAL REACTION SCIENCE TOHOKU UNIV.
license=CC BY-NC-SA
exact mass=299.03492
ionization energy=70 eV
ion type=[M]+*
computed spectral entropy=2.635864607689419
computed normalized entropy=0.7474745107000449
SPLASH=splash10-000f-1900000000-722bac3683e8617dacfe
submitter=submitter = University of Tokyo Team (Faculty of Engineering, University of Tokyo)
MoNA Rating=3.75

>  <NUM PEAKS>  (57) 
34

>  <MASS SPECTRAL PEAKS>  (57) 
39 2.19
50 5.86
51 6.9
52 1.65
62 1.28
63 3.96
74 2.73
75 14.82
76 9.57
77 7
85 1.82
87 1.1
89 5.76
90 1.18
102 15.94
103 5.61
104 3.01
105 1.64
110 1.12
111 41.36
112 7.65
113 16.32
114 2.89
116 7.46
117 1.7
132 1.21
139 99.99
140 37.26
141 76.23
142 18.18
144 2.55
156 1.05
299 4.99
301 2.22

$$$$

     RDKit          2D

 21 23  0  0  0  0  0  0  0  0999 V2000
    5.4932    1.7699    0.0000 C   0  0  0  0  0  0  0  0  0  0  0  0
    4.3807    2.7773    0.0000 C   0  0  0  0  0  0  0  0  0  0  0  0
    5.1780    0.3026    0.0000 C   0  0  0  0  0  0  0  0  0  0  0  0
    2.9530    2.3173    0.0000 C   0  0  0  0  0  0  0  0  0  0  0  0
    3.7502   -0.1574    0.0000 C   0  0  0  0  0  0  0  0  0  0  0  0
   -3.7286   -0.7310    0.0000 C   0  0  0  0  0  0  0  0  0  0  0  0
   -4.0134   -3.3053    0.0000 C   0  0  0  0  0  0  0  0  0  0  0  0
   -5.2195   -0.5660    0.0000 C   0  0  0  0  0  0  0  0  0  0  0  0
   -5.5043   -3.1403    0.0000 C   0  0  0  0  0  0  0  0  0  0  0  0
   -3.1239   -2.0857    0.0000 C   0  0  0  0  0  0  0  0  0  0  0  0
    2.6377    0.8500    0.0000 C   0  0  0  0  0  0  0  0  0  0  0  0
   -6.1157   -1.7547    0.0000 C   0  0  0  0  0  0  0  0  0  0  0  0
   -0.7500   -1.0300    0.0000 C   0  0  0  0  0  0  0  0  0  0  0  0
   -1.6322   -2.2431    0.0000 C   0  0  0  0  0  0  0  0  0  0  0  0
    1.2100    0.3900    0.0000 C   0  0  0  0  0  0  0  0  0  0  0  0
   -1.2100    0.3900    0.0000 C   0  0  0  0  0  0  0  0  0  0  0  0
   -7.6057   -1.5822    0.0000 Cl  0  0  0  0  0  0  0  0  0  0  0  0
    0.7500   -1.0300    0.0000 N   0  0  0  0  0  0  0  0  0  0  0  0
   -1.0227   -3.6137    0.0000 O   0  0  0  0  0  0  0  0  0  0  0  0
   -2.6377    0.8500    0.0000 O   0  0  0  0  0  0  0  0  0  0  0  0
    0.0000    1.2800    0.0000 O   0  0  0  0  0  0  0  0  0  0  0  0
  2  1  2  0
  3  1  1  0
  4  2  1  0
  5  3  2  0
  8  6  2  0
  9  7  1  0
 10  6  1  0
 10  7  2  0
 11  4  2  0
 11  5  1  0
 12  8  1  0
 12  9  2  0
 14 10  1  0
 14 13  1  0
 15 11  1  0
 16 13  1  0
 17 12  1  0
 18 13  1  0
 18 15  2  0
 19 14  2  0
 20 16  2  0
 21 15  1  0
 21 16  1  0
M  END
>  <NAME>  (58) 
4-(4-CHLOROBENZOYL)-3-PHENYL-5-OXAZOLONE

>  <SYNONYMS>  (58) 


>  <SPECTRUM TYPE>  (58) 
MS1

>  <INSTRUMENT TYPE>  (58) 
EI-B

>  <INSTRUMENT>  (58) 
JEOL JMS-DX-300

>  <ION MODE>  (58) 
P

>  <INCHIKEY>  (58) 
JQOVUUKWQVLGJM-UHFFFAOYSA-N

>  <FORMULA>  (58) 
C16H10ClNO3

>  <EXACT MASS>  (58) 
299.03492086

>  <MW>  (58) 
299

>  <ID>  (58) 
JP012115

>  <CONTRIBUTOR>  (58) 
University of Tokyo Team, {Faculty of Engineering, University of Tokyo

>  <COMMENT>  (58) 
SMILES=Clc(c3)ccc(c3)C(=O)C(N=1)C(=O)OC(c(c2)cccc2)1
InChI=InChI=1S/C16H10ClNO3/c17-12-8-6-10(7-9-12)14(19)13-16(20)21-15(18-13)11-4-2-1-3-5-11/h1-9,13H
computed SMILES=O=C1OC(=NC1C(=O)C2=CC=C(Cl)C=C2)C=3C=CC=CC3
accession=JP012115
date=2016.01.19 (Created 2008.10.21, modified 2011.05.06)
author=HISAHIRO HAGIWARA, INSTITUTE FOR CHEMICAL REACTION SCIENCE TOHOKU UNIV.
license=CC BY-NC-SA
exact mass=299.03492
ionization energy=70 eV
ion type=[M]+*
computed spectral entropy=2.5171902850951873
computed normalized entropy=0.7263075882561405
SPLASH=splash10-000f-1900000000-5b130e3f3fe364401e87
submitter=submitter = University of Tokyo Team (Faculty of Engineering, University of Tokyo)
MoNA Rating=3.75

>  <NUM PEAKS>  (58) 
32

>  <MASS SPECTRAL PEAKS>  (58) 
39 1.81
50 4.94
51 5.41
52 1.33
62 1.08
63 3.31
74 2.68
75 12.64
76 7.66
77 5.15
85 1.52
89 4.94
102 13.52
103 4.77
104 3.46
105 1.2
110 1.03
111 33.4
112 6.07
113 12.97
114 2.24
116 6.43
117 1.44
132 1.06
139 99.99
140 35.22
141 75.3
142 17.13
144 1.84
156 1.03
299 2.83
301 1.24

$$$$

     RDKit          2D

 22 24  0  0  0  0  0  0  0  0999 V2000
    3.3966    4.6694    0.0000 C   0  0  0  0  0  0  0  0  0  0  0  0
    1.9041    4.8274    0.0000 C   0  0  0  0  0  0  0  0  0  0  0  0
    4.0069    3.2983    0.0000 C   0  0  0  0  0  0  0  0  0  0  0  0
    1.0219    3.6143    0.0000 C   0  0  0  0  0  0  0  0  0  0  0  0
    3.1247    2.0851    0.0000 C   0  0  0  0  0  0  0  0  0  0  0  0
   -5.2263    0.5584    0.0000 C   0  0  0  0  0  0  0  0  0  0  0  0
   -3.7336    0.7152    0.0000 C   0  0  0  0  0  0  0  0  0  0  0  0
   -5.4994    3.1425    0.0000 C   0  0  0  0  0  0  0  0  0  0  0  0
    1.6322    2.2431    0.0000 C   0  0  0  0  0  0  0  0  0  0  0  0
   -6.1092    1.7720    0.0000 C   0  0  0  0  0  0  0  0  0  0  0  0
   -3.1239    2.0857    0.0000 C   0  0  0  0  0  0  0  0  0  0  0  0
   -4.0068    3.2994    0.0000 C   0  0  0  0  0  0  0  0  0  0  0  0
   -0.7500    1.0300    0.0000 C   0  0  0  0  0  0  0  0  0  0  0  0
    0.7500    1.0300    0.0000 C   0  0  0  0  0  0  0  0  0  0  0  0
   -1.6322    2.2431    0.0000 C   0  0  0  0  0  0  0  0  0  0  0  0
   -1.2100   -0.3900    0.0000 C   0  0  0  0  0  0  0  0  0  0  0  0
   -7.6009    1.6146    0.0000 Cl  0  0  0  0  0  0  0  0  0  0  0  0
   -3.3971    4.6698    0.0000 Cl  0  0  0  0  0  0  0  0  0  0  0  0
    1.2100   -0.3900    0.0000 N   0  0  0  0  0  0  0  0  0  0  0  0
   -1.0227    3.6137    0.0000 O   0  0  0  0  0  0  0  0  0  0  0  0
   -2.6377   -0.8500    0.0000 O   0  0  0  0  0  0  0  0  0  0  0  0
   -0.0000   -1.2800    0.0000 O   0  0  0  0  0  0  0  0  0  0  0  0
  2  1  2  0
  3  1  1  0
  4  2  1  0
  5  3  2  0
  7  6  2  0
  9  4  2  0
  9  5  1  0
 10  6  1  0
 10  8  2  0
 11  7  1  0
 12  8  1  0
 12 11  2  0
 14  9  1  0
 14 13  1  0
 15 11  1  0
 15 13  1  0
 16 13  1  0
 17 10  1  0
 18 12  1  0
 19 14  2  0
 20 15  2  0
 21 16  2  0
 22 16  1  0
 22 19  1  0
M  END
>  <NAME>  (59) 
4-(2,4-DICHLOROBENZOYL)-3-PHENYL-5-OXAZOLONE

>  <SYNONYMS>  (59) 


>  <SPECTRUM TYPE>  (59) 
MS1

>  <INSTRUMENT TYPE>  (59) 
EI-B

>  <INSTRUMENT>  (59) 
JEOL JMS-DX-300

>  <ION MODE>  (59) 
P

>  <INCHIKEY>  (59) 
ATULXUIRHBZVCU-UHFFFAOYSA-N

>  <FORMULA>  (59) 
C16H9Cl2NO3

>  <EXACT MASS>  (59) 
332.99594850799997

>  <MW>  (59) 
333

>  <ID>  (59) 
JP012114

>  <CONTRIBUTOR>  (59) 
University of Tokyo Team, {Faculty of Engineering, University of Tokyo

>  <COMMENT>  (59) 
SMILES=Clc(c3)cc(Cl)c(c3)C(=O)C(C(=O)2)C(=NO2)c(c1)cccc1
InChI=InChI=1S/C16H9Cl2NO3/c17-10-6-7-11(12(18)8-10)15(20)13-14(19-22-16(13)21)9-4-2-1-3-5-9/h1-8,13H
computed SMILES=O=C1ON=C(C=2C=CC=CC2)C1C(=O)C3=CC=C(Cl)C=C3Cl
accession=JP012114
date=2016.01.19 (Created 2008.10.21, modified 2011.05.06)
author=HISAHIRO HAGIWARA, INSTITUTE FOR CHEMICAL REACTION SCIENCE TOHOKU UNIV.
license=CC BY-NC-SA
exact mass=332.99595
ionization energy=70 eV
ion type=[M]+*
computed spectral entropy=2.7747256672760825
computed normalized entropy=0.6862949498936777
SPLASH=splash10-00b9-1900000000-8196530370c2fb450d8c
submitter=submitter = University of Tokyo Team (Faculty of Engineering, University of Tokyo)
MoNA Rating=3.75

>  <NUM PEAKS>  (59) 
57

>  <MASS SPECTRAL PEAKS>  (59) 
36 0.78
38 0.78
39 1.92
50 2.64
51 4
52 1.15
61 0.42
62 1.18
63 3.84
64 0.65
73 0.67
74 4.29
75 5.38
76 3.65
77 4.28
78 0.59
84 1.09
85 1.07
86 0.65
87 0.86
88 0.67
89 6.1
90 1.13
102 12.6
103 4.22
104 1.16
105 1.15
109 8.66
110 4.79
111 3.72
112 1.7
116 10.49
117 2.31
123 0.53
132 1.03
138 2.43
139 1.47
140 1.2
141 0.56
144 3.75
145 18.42
147 12.82
149 2.61
160 0.56
161 0.71
173 99.99
174 32.76
175 91.84
176 26.25
177 24.84
190 0.85
192 0.79
199 0.87
327 0.92
329 0.99
333 0.69
335 0.49

$$$$

     RDKit          2D

 22 24  0  0  0  0  0  0  0  0999 V2000
   -7.2903    4.6109    0.0000 C   0  0  0  0  0  0  0  0  0  0  0  0
   -5.8637    5.0771    0.0000 C   0  0  0  0  0  0  0  0  0  0  0  0
   -7.6009    3.1426    0.0000 C   0  0  0  0  0  0  0  0  0  0  0  0
   -4.7477    4.0749    0.0000 C   0  0  0  0  0  0  0  0  0  0  0  0
   -6.4848    2.1404    0.0000 C   0  0  0  0  0  0  0  0  0  0  0  0
    2.0015    2.3886    0.0000 C   0  0  0  0  0  0  0  0  0  0  0  0
    0.5089    2.2318    0.0000 C   0  0  0  0  0  0  0  0  0  0  0  0
    1.7283    4.9728    0.0000 C   0  0  0  0  0  0  0  0  0  0  0  0
   -5.0582    2.6065    0.0000 C   0  0  0  0  0  0  0  0  0  0  0  0
    2.6112    3.7591    0.0000 C   0  0  0  0  0  0  0  0  0  0  0  0
   -0.3740    3.4455    0.0000 C   0  0  0  0  0  0  0  0  0  0  0  0
    0.2357    4.8160    0.0000 C   0  0  0  0  0  0  0  0  0  0  0  0
   -2.4752    1.9175    0.0000 C   0  0  0  0  0  0  0  0  0  0  0  0
   -3.9422    1.6043    0.0000 C   0  0  0  0  0  0  0  0  0  0  0  0
   -1.8657    3.2880    0.0000 C   0  0  0  0  0  0  0  0  0  0  0  0
   -1.7289    0.6248    0.0000 C   0  0  0  0  0  0  0  0  0  0  0  0
    4.1029    3.9166    0.0000 F   0  0  0  0  0  0  0  0  0  0  0  0
   -0.6461    6.0294    0.0000 F   0  0  0  0  0  0  0  0  0  0  0  0
   -4.0956    0.1195    0.0000 N   0  0  0  0  0  0  0  0  0  0  0  0
   -2.7479    4.5012    0.0000 O   0  0  0  0  0  0  0  0  0  0  0  0
   -0.2366    0.4730    0.0000 O   0  0  0  0  0  0  0  0  0  0  0  0
   -2.7264   -0.4982    0.0000 O   0  0  0  0  0  0  0  0  0  0  0  0
  2  1  2  0
  3  1  1  0
  4  2  1  0
  5  3  2  0
  7  6  2  0
  9  4  2  0
  9  5  1  0
 10  6  1  0
 10  8  2  0
 11  7  1  0
 12  8  1  0
 12 11  2  0
 14  9  1  0
 14 13  1  0
 15 11  1  0
 15 13  1  0
 16 13  1  0
 17 10  1  0
 18 12  1  0
 19 14  2  0
 20 15  2  0
 21 16  2  0
 22 16  1  0
 22 19  1  0
M  END
>  <NAME>  (60) 
4-(2,4-DIFLUOROBENZOYL)-3-PHENYL-5-ISOXAZOLONE

>  <SYNONYMS>  (60) 


>  <SPECTRUM TYPE>  (60) 
MS1

>  <INSTRUMENT TYPE>  (60) 
EI-B

>  <INSTRUMENT>  (60) 
JEOL JMS-DX-300

>  <ION MODE>  (60) 
P

>  <INCHIKEY>  (60) 
MBUZPEVHTORBKX-UHFFFAOYSA-N

>  <FORMULA>  (60) 
C16H9F2NO3

>  <EXACT MASS>  (60) 
301.055049588

>  <MW>  (60) 
301

>  <ID>  (60) 
JP012113

>  <CONTRIBUTOR>  (60) 
University of Tokyo Team, {Faculty of Engineering, University of Tokyo

>  <COMMENT>  (60) 
SMILES=Fc(c3)cc(F)c(c3)C(=O)C(C(=O)2)C(=NO2)c(c1)cccc1
InChI=InChI=1S/C16H9F2NO3/c17-10-6-7-11(12(18)8-10)15(20)13-14(19-22-16(13)21)9-4-2-1-3-5-9/h1-8,13H
computed SMILES=O=C1ON=C(C=2C=CC=CC2)C1C(=O)C3=CC=C(F)C=C3F
accession=JP012113
date=2016.01.19 (Created 2008.10.21, modified 2011.05.06)
author=HISAHIRO HAGIWARA, INSTITUTE FOR CHEMICAL REACTION SCIENCE TOHOKU UNIV.
license=CC BY-NC-SA
exact mass=301.05505
ionization energy=70 eV
ion type=[M]+*
computed spectral entropy=2.2348591918074967
computed normalized entropy=0.6706848829305468
SPLASH=splash10-0006-1900000000-34211cc94062faec8c46
submitter=submitter = University of Tokyo Team (Faculty of Engineering, University of Tokyo)
MoNA Rating=3.75

>  <NUM PEAKS>  (60) 
28

>  <MASS SPECTRAL PEAKS>  (60) 
39 1.78
50 2.23
51 4.33
52 1.38
62 1.63
63 9.76
64 1.3
74 1.4
75 1.42
76 3.42
77 4.43
89 3.88
93 1.43
94 1.18
102 12.18
103 4.46
104 1.17
112 1.85
113 26.94
114 9.38
116 4.71
123 2.88
132 1.02
140 1.33
141 99.99
142 44.17
144 1.85
301 3.4

$$$$

     RDKit          2D

 25 27  0  0  0  0  0  0  0  0999 V2000
    2.0868    6.2107    0.0000 C   0  0  0  0  0  0  0  0  0  0  0  0
    0.6591    5.7480    0.0000 C   0  0  0  0  0  0  0  0  0  0  0  0
    3.2021    5.2063    0.0000 C   0  0  0  0  0  0  0  0  0  0  0  0
    0.3466    4.2809    0.0000 C   0  0  0  0  0  0  0  0  0  0  0  0
    2.8895    3.7392    0.0000 C   0  0  0  0  0  0  0  0  0  0  0  0
    1.4618    3.2765    0.0000 C   0  0  0  0  0  0  0  0  0  0  0  0
   -3.2349    1.4380    0.0000 C   0  0  0  0  0  0  0  0  0  0  0  0
   -0.2210    1.1993    0.0000 C   0  0  0  0  0  0  0  0  0  0  0  0
   -4.5351    2.1876    0.0000 C   0  0  0  0  0  0  0  0  0  0  0  0
   -3.2345   -0.0620    0.0000 C   0  0  0  0  0  0  0  0  0  0  0  0
   -5.8349    1.4373    0.0000 C   0  0  0  0  0  0  0  0  0  0  0  0
   -4.5343   -0.8124    0.0000 C   0  0  0  0  0  0  0  0  0  0  0  0
   -5.8345   -0.0627    0.0000 C   0  0  0  0  0  0  0  0  0  0  0  0
    1.1493    1.8094    0.0000 C   0  0  0  0  0  0  0  0  0  0  0  0
   -1.9362    2.1886    0.0000 C   0  0  0  0  0  0  0  0  0  0  0  0
   -0.0637   -0.2850    0.0000 C   0  0  0  0  0  0  0  0  0  0  0  0
   -4.5355    3.6876    0.0000 F   0  0  0  0  0  0  0  0  0  0  0  0
   -1.9353   -0.8119    0.0000 F   0  0  0  0  0  0  0  0  0  0  0  0
   -7.1340    2.1871    0.0000 F   0  0  0  0  0  0  0  0  0  0  0  0
   -4.5338   -2.3124    0.0000 F   0  0  0  0  0  0  0  0  0  0  0  0
   -7.1332   -0.8133    0.0000 F   0  0  0  0  0  0  0  0  0  0  0  0
    2.1471    0.6993    0.0000 N   0  0  0  0  0  0  0  0  0  0  0  0
   -1.9368    3.6886    0.0000 O   0  0  0  0  0  0  0  0  0  0  0  0
   -1.1809   -1.2859    0.0000 O   0  0  0  0  0  0  0  0  0  0  0  0
    1.4037   -0.6059    0.0000 O   0  0  0  0  0  0  0  0  0  0  0  0
  2  1  2  0
  3  1  1  0
  4  2  1  0
  5  3  2  0
  6  4  2  0
  6  5  1  0
  9  7  2  0
 10  7  1  0
 11  9  1  0
 12 10  2  0
 13 11  2  0
 13 12  1  0
 14  6  1  0
 14  8  1  0
 15  7  1  0
 15  8  1  0
 16  8  1  0
 17  9  1  0
 18 10  1  0
 19 11  1  0
 20 12  1  0
 21 13  1  0
 22 14  2  0
 23 15  2  0
 24 16  2  0
 25 16  1  0
 25 22  1  0
M  END
>  <NAME>  (61) 
4-(PENTAFLUOROBENZOYL)-1-OXA-3-PHENYL-2-AZACYCLOPENT-2-EN-5-ONE

>  <SYNONYMS>  (61) 


>  <SPECTRUM TYPE>  (61) 
MS1

>  <INSTRUMENT TYPE>  (61) 
EI-B

>  <INSTRUMENT>  (61) 
JEOL JMS-DX-300

>  <ION MODE>  (61) 
P

>  <INCHIKEY>  (61) 
HPQAVSVVQHKXOS-UHFFFAOYSA-N

>  <FORMULA>  (61) 
C16H6F5NO3

>  <EXACT MASS>  (61) 
355.026784152

>  <MW>  (61) 
355

>  <ID>  (61) 
JP012112

>  <CONTRIBUTOR>  (61) 
University of Tokyo Team, {Faculty of Engineering, University of Tokyo

>  <COMMENT>  (61) 
SMILES=c(c3)ccc(c3)C(=N2)C(C(=O)O2)C(=O)c(c(F)1)c(F)c(F)c(F)c(F)1
InChI=InChI=1S/C16H6F5NO3/c17-9-7(10(18)12(20)13(21)11(9)19)15(23)8-14(22-25-16(8)24)6-4-2-1-3-5-6/h1-5,8H
computed SMILES=O=C1ON=C(C=2C=CC=CC2)C1C(=O)C=3C(F)=C(F)C(F)=C(F)C3F
accession=JP012112
date=2016.01.19 (Created 2008.10.21, modified 2011.05.06)
author=HISAHIRO HAGIWARA, INSTITUTE FOR CHEMICAL REACTION SCIENCE TOHOKU UNIV.
license=CC BY-NC-SA
exact mass=355.02678
ionization energy=70 eV
ion type=[M]+*
computed spectral entropy=1.784079513275548
computed normalized entropy=0.5859965067656437
SPLASH=splash10-0002-1900000000-e4b473f8929ac6e78d64
submitter=submitter = University of Tokyo Team (Faculty of Engineering, University of Tokyo)
MoNA Rating=3.75

>  <NUM PEAKS>  (61) 
21

>  <MASS SPECTRAL PEAKS>  (61) 
39 2.1
50 1.9
51 3
52 1.2
63 2.9
74 1.1
75 1.3
76 2.7
77 1.7
89 3.1
93 1.2
102 8.5
103 1.6
116 1.4
117 5.4
167 16.2
168 1.3
195 99.99
196 11.8
311 1.1
355 4.7

$$$$

     RDKit          2D

 21 23  0  0  0  0  0  0  0  0999 V2000
    3.3966    4.6694    0.0000 C   0  0  0  0  0  0  0  0  0  0  0  0
    1.9041    4.8274    0.0000 C   0  0  0  0  0  0  0  0  0  0  0  0
    4.0069    3.2983    0.0000 C   0  0  0  0  0  0  0  0  0  0  0  0
    1.0219    3.6143    0.0000 C   0  0  0  0  0  0  0  0  0  0  0  0
    3.1247    2.0851    0.0000 C   0  0  0  0  0  0  0  0  0  0  0  0
   -3.7336    0.7152    0.0000 C   0  0  0  0  0  0  0  0  0  0  0  0
   -4.0068    3.2994    0.0000 C   0  0  0  0  0  0  0  0  0  0  0  0
   -5.2263    0.5584    0.0000 C   0  0  0  0  0  0  0  0  0  0  0  0
   -5.4994    3.1425    0.0000 C   0  0  0  0  0  0  0  0  0  0  0  0
    1.6322    2.2431    0.0000 C   0  0  0  0  0  0  0  0  0  0  0  0
   -3.1239    2.0857    0.0000 C   0  0  0  0  0  0  0  0  0  0  0  0
   -6.1092    1.7720    0.0000 C   0  0  0  0  0  0  0  0  0  0  0  0
   -0.7500    1.0300    0.0000 C   0  0  0  0  0  0  0  0  0  0  0  0
    0.7500    1.0300    0.0000 C   0  0  0  0  0  0  0  0  0  0  0  0
   -1.6322    2.2431    0.0000 C   0  0  0  0  0  0  0  0  0  0  0  0
   -1.2100   -0.3900    0.0000 C   0  0  0  0  0  0  0  0  0  0  0  0
   -7.6009    1.6146    0.0000 F   0  0  0  0  0  0  0  0  0  0  0  0
    1.2100   -0.3900    0.0000 N   0  0  0  0  0  0  0  0  0  0  0  0
   -1.0227    3.6137    0.0000 O   0  0  0  0  0  0  0  0  0  0  0  0
   -2.6377   -0.8500    0.0000 O   0  0  0  0  0  0  0  0  0  0  0  0
   -0.0000   -1.2800    0.0000 O   0  0  0  0  0  0  0  0  0  0  0  0
  2  1  2  0
  3  1  1  0
  4  2  1  0
  5  3  2  0
  8  6  2  0
  9  7  1  0
 10  4  2  0
 10  5  1  0
 11  6  1  0
 11  7  2  0
 12  8  1  0
 12  9  2  0
 14 10  1  0
 14 13  1  0
 15 11  1  0
 15 13  1  0
 16 13  1  0
 17 12  1  0
 18 14  2  0
 19 15  2  0
 20 16  2  0
 21 16  1  0
 21 18  1  0
M  END
>  <NAME>  (62) 
4-(4-FLUOROBENZOYL)-1-OXA-3-PHENYL-2-AZACYCLOPENT-2-EN-1-ONE

>  <SYNONYMS>  (62) 


>  <SPECTRUM TYPE>  (62) 
MS1

>  <INSTRUMENT TYPE>  (62) 
EI-B

>  <INSTRUMENT>  (62) 
JEOL JMS-DX-300

>  <ION MODE>  (62) 
P

>  <INCHIKEY>  (62) 
BCECACPCPCOKJZ-UHFFFAOYSA-N

>  <FORMULA>  (62) 
C16H10FNO3

>  <EXACT MASS>  (62) 
283.0644714

>  <MW>  (62) 
283

>  <ID>  (62) 
JP012111

>  <CONTRIBUTOR>  (62) 
University of Tokyo Team, {Faculty of Engineering, University of Tokyo

>  <COMMENT>  (62) 
SMILES=Fc(c3)ccc(c3)C(=O)C(C(=O)2)C(=NO2)c(c1)cccc1
InChI=InChI=1S/C16H10FNO3/c17-12-8-6-11(7-9-12)15(19)13-14(18-21-16(13)20)10-4-2-1-3-5-10/h1-9,13H
computed SMILES=O=C1ON=C(C=2C=CC=CC2)C1C(=O)C3=CC=C(F)C=C3
accession=JP012111
date=2016.01.19 (Created 2008.10.21, modified 2011.05.06)
author=HISAHIRO HAGIWARA, INSTITUTE FOR CHEMICAL REACTION SCIENCE TOHOKU UNIV.
license=CC BY-NC-SA
exact mass=283.06447
ionization energy=70 eV
ion type=[M]+*
computed spectral entropy=2.7648705216939535
computed normalized entropy=0.7495150102046562
SPLASH=splash10-006x-9510000000-c446d9f4156180d84d53
submitter=submitter = University of Tokyo Team (Faculty of Engineering, University of Tokyo)
MoNA Rating=3.75

>  <NUM PEAKS>  (62) 
40

>  <MASS SPECTRAL PEAKS>  (62) 
38 2
39 4.3
41 1.6
44 99.99
45 2.5
50 4.8
51 9.3
52 1.9
63 2.9
64 4.9
65 3.4
66 2.2
69 1.6
74 1.9
75 8.5
76 2.8
77 13.3
78 1.6
91 8.7
92 1.8
93 7
94 2
95 30
96 2.5
103 3.6
104 3.4
105 1.1
119 10.8
120 2.7
123 83.4
124 6.9
138 1.9
140 2
144 4.6
194 19.5
195 3.5
215 7.9
238 3.5
239 21.2
240 4.2

$$$$

     RDKit          2D

 13 13  0  0  0  0  0  0  0  0999 V2000
    6.1262    0.5408    0.0000 C   0  0  0  0  0  0  0  0  0  0  0  0
   -0.3700   -1.7100    0.0000 C   0  0  0  0  0  0  0  0  0  0  0  0
    7.4251    1.2910    0.0000 C   0  0  0  0  0  0  0  0  0  0  0  0
    4.8270    1.2906    0.0000 C   0  0  0  0  0  0  0  0  0  0  0  0
   -1.6700   -0.9600    0.0000 C   0  0  0  0  0  0  0  0  0  0  0  0
    0.9300   -0.9600    0.0000 C   0  0  0  0  0  0  0  0  0  0  0  0
    8.7240    2.0412    0.0000 C   0  0  0  0  0  0  0  0  0  0  0  0
    3.5281    0.5404    0.0000 C   0  0  0  0  0  0  0  0  0  0  0  0
   -1.6700    0.5400    0.0000 C   0  0  0  0  0  0  0  0  0  0  0  0
    0.9300    0.5400    0.0000 C   0  0  0  0  0  0  0  0  0  0  0  0
   10.0229    2.7915    0.0000 Br  0  0  0  0  0  0  0  0  0  0  0  0
    2.2289    1.2902    0.0000 O   0  0  0  0  0  0  0  0  0  0  0  0
   -0.3700    1.2900    0.0000 O   0  0  0  0  0  0  0  0  0  0  0  0
  3  1  1  0
  4  1  1  0
  5  2  1  0
  6  2  1  0
  7  3  3  0
  8  4  1  0
  9  5  1  0
 10  6  1  0
 11  7  1  0
 12  8  1  0
 12 10  1  0
 13  9  1  0
 13 10  1  0
M  END
>  <NAME>  (63) 
1-BROMO-5-TETRAHYDROPYRANYLOXY-1-PENTYNE

>  <SYNONYMS>  (63) 


>  <SPECTRUM TYPE>  (63) 
MS1

>  <INSTRUMENT TYPE>  (63) 
EI-B

>  <INSTRUMENT>  (63) 
JEOL JMS-DX-300

>  <ION MODE>  (63) 
P

>  <INCHIKEY>  (63) 
NFAQYDQDGGRJQU-UHFFFAOYSA-N

>  <FORMULA>  (63) 
C10H15BrO2

>  <EXACT MASS>  (63) 
246.02554182

>  <MW>  (63) 
246

>  <ID>  (63) 
JP012109

>  <CONTRIBUTOR>  (63) 
University of Tokyo Team, {Faculty of Engineering, University of Tokyo

>  <COMMENT>  (63) 
SMILES=BrC#CCCCOC(C1)OCCC1
InChI=InChI=1S/C10H15BrO2/c11-7-3-1-4-8-12-10-6-2-5-9-13-10/h10H,1-2,4-6,8-9H2
computed SMILES=BrC#CCCCOC1OCCCC1
exact mass=246.02554
accession=JP012109
date=2016.01.19 (Created 2008.10.21, modified 2011.05.06)
author=HISAHIRO HAGIWARA, INSTITUTE FOR CHEMICAL REACTION SCIENCE TOHOKU UNIV.
license=CC BY-NC-SA
ionization energy=70 eV
ion type=[M]+*
computed spectral entropy=3.5414225718167684
computed normalized entropy=0.8580826892018143
SPLASH=splash10-05n0-9300000000-fa87d76c5b1e3844b5a9
submitter=submitter = University of Tokyo Team (Faculty of Engineering, University of Tokyo)
MoNA Rating=3.75

>  <NUM PEAKS>  (63) 
62

>  <MASS SPECTRAL PEAKS>  (63) 
38 5.8
39 24.3
40 2.4
41 33.1
42 3.8
43 14.1
44 2.7
50 3.5
51 8.7
52 3.8
53 10
54 3.7
55 39.1
56 24.7
57 15.8
63 2.1
65 51.1
66 24.1
67 19.5
69 2.2
77 2.6
79 4.7
80 3.7
81 7.5
82 3.6
83 11.5
84 6.6
85 99.99
86 8
87 2.1
91 3
93 2.2
101 2.9
109 4.5
111 4.6
117 7.4
119 8.3
120 2.5
122 2.1
144 9.5
145 9.7
146 10.4
147 10.2
162 19.3
163 10.8
164 18.8
165 10.3
167 8.7
188 3.1
190 4.7
191 2.5
192 2
199 2.1
224 4.5
225 2.4
226 8.3
227 3.8
228 4.3
229 2
242 2.3
245 2.3
247 3

$$$$

     RDKit          2D

 25 28  0  0  0  0  0  0  0  0999 V2000
   13.8517   -1.3005    0.0000 C   0  0  0  0  0  0  0  0  0  0  0  0
   13.1017   -0.0005    0.0000 C   0  0  0  0  0  0  0  0  0  0  0  0
   13.1017   -2.6005    0.0000 C   0  0  0  0  0  0  0  0  0  0  0  0
   -2.3100   -0.7500    0.0000 C   0  0  0  0  0  0  0  0  0  0  0  0
   -2.3100    0.7500    0.0000 C   0  0  0  0  0  0  0  0  0  0  0  0
   11.6017   -0.0005    0.0000 C   0  0  0  0  0  0  0  0  0  0  0  0
   11.6017   -2.6005    0.0000 C   0  0  0  0  0  0  0  0  0  0  0  0
   -1.0100   -1.5000    0.0000 C   0  0  0  0  0  0  0  0  0  0  0  0
   -1.0100    1.5000    0.0000 C   0  0  0  0  0  0  0  0  0  0  0  0
    9.3517   -1.3005    0.0000 C   0  0  0  0  0  0  0  0  0  0  0  0
    8.6017   -0.0014    0.0000 C   0  0  0  0  0  0  0  0  0  0  0  0
    6.3515   -1.3004    0.0000 C   0  0  0  0  0  0  0  0  0  0  0  0
    6.3510    1.2982    0.0000 C   0  0  0  0  0  0  0  0  0  0  0  0
    4.8506   -1.2996    0.0000 C   0  0  0  0  0  0  0  0  0  0  0  0
    4.8502    1.2989    0.0000 C   0  0  0  0  0  0  0  0  0  0  0  0
   10.8517   -1.3005    0.0000 C   0  0  0  0  0  0  0  0  0  0  0  0
    7.1017   -0.0014    0.0000 C   0  0  0  0  0  0  0  0  0  0  0  0
    4.1000   -0.0000    0.0000 C   0  0  0  0  0  0  0  0  0  0  0  0
    0.2900   -0.7500    0.0000 C   0  0  0  0  0  0  0  0  0  0  0  0
    0.2900    0.7500    0.0000 C   0  0  0  0  0  0  0  0  0  0  0  0
    2.6000    0.0000    0.0000 C   0  0  0  0  0  0  0  0  0  0  0  0
    1.7200   -1.2100    0.0000 C   0  0  0  0  0  0  0  0  0  0  0  0
    1.7200    1.2100    0.0000 C   0  0  0  0  0  0  0  0  0  0  0  0
    2.1853   -2.6360    0.0000 O   0  0  0  0  0  0  0  0  0  0  0  0
    2.1853    2.6360    0.0000 O   0  0  0  0  0  0  0  0  0  0  0  0
  2  1  2  0
  3  1  1  0
  5  4  2  0
  6  2  1  0
  7  3  2  0
  8  4  1  0
  9  5  1  0
 10 11  2  0
 14 12  2  0
 15 13  1  0
 16  6  2  0
 16  7  1  0
 16 10  1  0
 17 11  1  0
 17 12  1  0
 17 13  2  0
 18 14  1  0
 18 15  2  0
 19  8  2  0
 20  9  2  0
 20 19  1  0
 21 18  1  0
 22 19  1  0
 22 21  1  0
 23 20  1  0
 23 21  1  0
 24 22  2  0
 25 23  2  0
M  END
>  <NAME>  (64) 
3-(4-STYRYLPHENYL)INDAN-1,3-DIONE

>  <SYNONYMS>  (64) 


>  <SPECTRUM TYPE>  (64) 
MS1

>  <INSTRUMENT TYPE>  (64) 
EI-B

>  <INSTRUMENT>  (64) 
JEOL JMS-DX-300

>  <ION MODE>  (64) 
P

>  <INCHIKEY>  (64) 
AWDAOSFUOPBPIE-ZHACJKMWSA-N

>  <FORMULA>  (64) 
C23H16O2

>  <EXACT MASS>  (64) 
324.115029752

>  <MW>  (64) 
324

>  <ID>  (64) 
JP012107

>  <CONTRIBUTOR>  (64) 
University of Tokyo Team, {Faculty of Engineering, University of Tokyo

>  <COMMENT>  (64) 
SMILES=c(c4)ccc(c4)C=Cc(c3)ccc(c3)C(C(=O)1)C(=O)c(c2)c(ccc2)1
InChI=InChI=1S/C23H16O2/c24-22-19-8-4-5-9-20(19)23(25)21(22)18-14-12-17(13-15-18)11-10-16-6-2-1-3-7-16/h1-15,21H/b11-10+
computed SMILES=O=C1C=2C=CC=CC2C(=O)C1C3=CC=C(C=CC=4C=CC=CC4)C=C3
accession=JP012107
date=2016.01.19 (Created 2008.10.21, modified 2011.05.06)
author=HISAHIRO HAGIWARA, INSTITUTE FOR CHEMICAL REACTION SCIENCE TOHOKU UNIV.
license=CC BY-NC-SA
exact mass=324.11503
ionization energy=70 eV
ion type=[M]+*
computed spectral entropy=3.100827949980116
computed normalized entropy=0.809902946988874
SPLASH=splash10-00fr-1739000000-3a779110e18161641842
submitter=submitter = University of Tokyo Team (Faculty of Engineering, University of Tokyo)
MoNA Rating=3.75

>  <NUM PEAKS>  (64) 
46

>  <MASS SPECTRAL PEAKS>  (64) 
40 4.7
44 4.3
50 2.4
51 2.3
63 2.1
76 6.2
77 5
89 2.1
103 2.5
104 2.7
105 4
115 3.4
126 4.3
133 3.8
139 3.4
152 2
162 6
163 2.7
164 2
165 10.2
166 2.2
178 20.6
179 20.1
180 3.1
189 9.9
190 3.9
191 11.4
192 2.4
239 2.3
252 8.8
253 3.2
263 3.1
265 12.8
266 5.1
267 4.4
276 3.9
277 4.2
278 3.6
279 2.7
295 3.9
305 6.6
306 2.3
323 3.9
324 99.99
325 28.2
326 4.2

$$$$

     RDKit          2D

 18 18  0  0  0  0  0  0  0  0999 V2000
    1.4772    1.2395    0.0000 C   0  0  0  0  0  0  0  0  0  0  0  0
    0.5130    2.9095    0.0000 C   0  0  0  0  0  0  0  0  0  0  0  0
    0.5130   -1.4095    0.0000 C   0  0  0  0  0  0  0  0  0  0  0  0
    1.4772    0.2605    0.0000 C   0  0  0  0  0  0  0  0  0  0  0  0
   -0.3349    3.3991    0.0000 C   0  0  0  0  0  0  0  0  0  0  0  0
   -2.2632    3.3991    0.0000 C   0  0  0  0  0  0  0  0  0  0  0  0
   -2.2632   -1.8991    0.0000 C   0  0  0  0  0  0  0  0  0  0  0  0
   -0.3349   -1.8991    0.0000 C   0  0  0  0  0  0  0  0  0  0  0  0
   -3.1111    2.9095    0.0000 C   0  0  0  0  0  0  0  0  0  0  0  0
   -4.0753    1.2395    0.0000 C   0  0  0  0  0  0  0  0  0  0  0  0
   -4.0753    0.2605    0.0000 C   0  0  0  0  0  0  0  0  0  0  0  0
   -3.1111   -1.4095    0.0000 C   0  0  0  0  0  0  0  0  0  0  0  0
    0.0000    1.5000    0.0000 Si  0  0  0  0  0  4  0  0  0  0  0  0
    0.0000    0.0000    0.0000 Si  0  0  0  0  0  4  0  0  0  0  0  0
   -1.2990    2.2500    0.0000 Si  0  0  0  0  0  4  0  0  0  0  0  0
   -1.2990   -0.7500    0.0000 Si  0  0  0  0  0  4  0  0  0  0  0  0
   -2.5981    1.5000    0.0000 Si  0  0  0  0  0  4  0  0  0  0  0  0
   -2.5981   -0.0000    0.0000 Si  0  0  0  0  0  4  0  0  0  0  0  0
 13  1  1  0
 13  2  1  0
 14  3  1  0
 14  4  1  0
 14 13  1  0
 15  5  1  0
 15  6  1  0
 15 13  1  0
 16  7  1  0
 16  8  1  0
 16 14  1  0
 17  9  1  0
 17 10  1  0
 17 15  1  0
 18 11  1  0
 18 12  1  0
 18 16  1  0
 18 17  1  0
M  END
>  <NAME>  (65) 
DODECAMETHYLCYCLOHEXASILANE

>  <SYNONYMS>  (65) 


>  <SPECTRUM TYPE>  (65) 
MS1

>  <INSTRUMENT TYPE>  (65) 
EI-B

>  <INSTRUMENT>  (65) 
JEOL JMS-DX-300

>  <ION MODE>  (65) 
P

>  <INCHIKEY>  (65) 
RTCLHEHPUHREBC-UHFFFAOYSA-N

>  <FORMULA>  (65) 
C12H36Si6

>  <EXACT MASS>  (65) 
348.14326033199995

>  <MW>  (65) 
348

>  <ID>  (65) 
JP012106

>  <CONTRIBUTOR>  (65) 
University of Tokyo Team, {Faculty of Engineering, University of Tokyo

>  <COMMENT>  (65) 
SMILES=C[Si](C)([Si](C)(C)1)[Si](C)(C)[Si](C)(C)[Si](C)(C)[Si](C)(C)1
InChI=InChI=1S/C12H36Si6/c1-13(2)14(3,4)16(7,8)18(11,12)17(9,10)15(13,5)6/h1-12H3
computed SMILES=C[Si]1(C)[Si](C)(C)[Si](C)(C)[Si](C)(C)[Si](C)(C)[Si]1(C)C
accession=JP012106
date=2016.01.19 (Created 2008.10.21, modified 2011.05.06)
author=HISAHIRO HAGIWARA, INSTITUTE FOR CHEMICAL REACTION SCIENCE TOHOKU UNIV.
license=CC BY-NC-SA
exact mass=348.14326
ionization energy=70 eV
ion type=[M]+*
computed spectral entropy=1.8982725817394832
computed normalized entropy=0.6446975451591384
SPLASH=splash10-0006-9000000000-b8ab57b492be784ec26a
submitter=submitter = University of Tokyo Team (Faculty of Engineering, University of Tokyo)
MoNA Rating=3.75

>  <NUM PEAKS>  (65) 
19

>  <MASS SPECTRAL PEAKS>  (65) 
38 2.8
39 3.7
42 5.7
43 99.99
56 2
57 2.4
58 34.5
71 2.3
73 8.1
83 2.6
105 2.6
131 3.3
199 3.4
201 4.4
215 2.9
259 3.4
348 5.3
349 5.5
350 3.1

$$$$

     RDKit          2D

 20 19  0  0  0  0  0  0  0  0999 V2000
    6.9240    1.1848    0.0000 C   0  0  0  0  0  0  0  0  0  0  0  0
    4.3260   -0.3152    0.0000 C   0  0  0  0  0  0  0  0  0  0  0  0
    6.3750   -0.8642    0.0000 C   0  0  0  0  0  0  0  0  0  0  0  0
    0.9540    5.4976    0.0000 C   0  0  0  0  0  0  0  0  0  0  0  0
   -1.0950    6.0466    0.0000 C   0  0  0  0  0  0  0  0  0  0  0  0
   -1.6440    3.9976    0.0000 C   0  0  0  0  0  0  0  0  0  0  0  0
    6.2845    2.2469    0.0000 C   0  0  0  0  0  0  0  0  0  0  0  0
    4.6145    3.2110    0.0000 C   0  0  0  0  0  0  0  0  0  0  0  0
   -1.0045    2.9355    0.0000 C   0  0  0  0  0  0  0  0  0  0  0  0
    0.6655    1.9713    0.0000 C   0  0  0  0  0  0  0  0  0  0  0  0
    1.9655    1.2208    0.0000 C   0  0  0  0  0  0  0  0  0  0  0  0
    3.6355    0.2566    0.0000 C   0  0  0  0  0  0  0  0  0  0  0  0
    3.7945    3.9616    0.0000 C   0  0  0  0  0  0  0  0  0  0  0  0
    2.1245    4.9258    0.0000 C   0  0  0  0  0  0  0  0  0  0  0  0
    5.6250    0.4348    0.0000 Si  0  0  0  0  0  4  0  0  0  0  0  0
   -0.3450    4.7476    0.0000 Si  0  0  0  0  0  4  0  0  0  0  0  0
    4.8750    1.7338    0.0000 Si  0  0  0  0  0  4  0  0  0  0  0  0
    0.4050    3.4486    0.0000 Si  0  0  0  0  0  4  0  0  0  0  0  0
    3.3750    1.7338    0.0000 Si  0  0  0  0  0  4  0  0  0  0  0  0
    2.3850    3.4486    0.0000 Si  0  0  0  0  0  4  0  0  0  0  0  0
 15  1  1  0
 15  2  1  0
 15  3  1  0
 16  4  1  0
 16  5  1  0
 16  6  1  0
 17  7  1  0
 17  8  1  0
 17 15  1  0
 18  9  1  0
 18 10  1  0
 18 16  1  0
 19 11  1  0
 19 12  1  0
 19 17  1  0
 20 13  1  0
 20 14  1  0
 20 18  1  0
 20 19  1  0
M  END
>  <NAME>  (66) 
TETRADECAMETHYLHEXASILANE

>  <SYNONYMS>  (66) 


>  <SPECTRUM TYPE>  (66) 
MS1

>  <INSTRUMENT TYPE>  (66) 
EI-B

>  <INSTRUMENT>  (66) 
JEOL JMS-DX-300

>  <ION MODE>  (66) 
P

>  <INCHIKEY>  (66) 
MYVYLCKNQVLMQO-UHFFFAOYSA-N

>  <FORMULA>  (66) 
C14H42Si6

>  <EXACT MASS>  (66) 
378.190210524

>  <MW>  (66) 
378

>  <ID>  (66) 
JP012105

>  <CONTRIBUTOR>  (66) 
University of Tokyo Team, {Faculty of Engineering, University of Tokyo

>  <COMMENT>  (66) 
SMILES=C[Si](C)(C)[Si](C)(C)[Si](C)(C)[Si](C)(C)[Si](C)(C)[Si](C)(C)C
InChI=InChI=1S/C14H42Si6/c1-15(2,3)17(7,8)19(11,12)20(13,14)18(9,10)16(4,5)6/h1-14H3
computed SMILES=C[Si](C)(C)[Si](C)(C)[Si](C)(C)[Si](C)(C)[Si](C)(C)[Si](C)(C)C
accession=JP012105
date=2016.01.19 (Created 2008.10.21, modified 2011.05.06)
author=HISAHIRO HAGIWARA, INSTITUTE FOR CHEMICAL REACTION SCIENCE TOHOKU UNIV.
license=CC BY-NC-SA
exact mass=378.19021
ionization energy=70 eV
ion type=[M]+*
computed spectral entropy=3.322560818472535
computed normalized entropy=0.888939140639861
SPLASH=splash10-00dl-9611000000-b806527da8ea1fbad91e
submitter=submitter = University of Tokyo Team (Faculty of Engineering, University of Tokyo)
MoNA Rating=3.75

>  <NUM PEAKS>  (66) 
42

>  <MASS SPECTRAL PEAKS>  (66) 
33 6.4
42 5.4
43 99.6
45 12
47 9
58 41.2
59 14.6
73 99.99
74 8.8
75 34.1
77 18.8
79 7
81 12.6
99 6.7
101 6.5
113 5.9
115 11.5
116 22.2
117 8.5
129 10.8
131 25.7
145 5.9
157 10.7
158 6.2
159 12.1
171 7.4
173 47.7
174 32.8
175 12.9
187 5.3
189 31.7
190 8.3
191 5.8
205 10.3
215 8.3
231 11.9
232 9.3
247 17.9
248 6.3
378 29.5
379 14.3
380 10

$$$$

     RDKit          2D

 10 11  0  0  0  0  0  0  0  0999 V2000
   -2.6000   -0.7500    0.0000 C   0  0  0  0  0  0  0  0  0  0  0  0
   -2.6000    0.7500    0.0000 C   0  0  0  0  0  0  0  0  0  0  0  0
    2.6000   -0.7500    0.0000 C   0  0  0  0  0  0  0  0  0  0  0  0
    2.6000    0.7500    0.0000 C   0  0  0  0  0  0  0  0  0  0  0  0
   -1.3000   -1.5000    0.0000 C   0  0  0  0  0  0  0  0  0  0  0  0
   -1.3000    1.5000    0.0000 C   0  0  0  0  0  0  0  0  0  0  0  0
    1.3000   -1.5000    0.0000 C   0  0  0  0  0  0  0  0  0  0  0  0
    1.3000    1.5000    0.0000 C   0  0  0  0  0  0  0  0  0  0  0  0
    0.0000   -0.7500    0.0000 C   0  0  0  0  0  0  0  0  0  0  0  0
    0.0000    0.7500    0.0000 C   0  0  0  0  0  0  0  0  0  0  0  0
  2  1  2  0
  4  3  1  0
  5  1  1  0
  6  2  1  0
  7  3  1  0
  8  4  1  0
  9  5  2  0
  9  7  1  0
 10  6  2  0
 10  8  1  0
 10  9  1  0
M  END
>  <NAME>  (67) 
TETRALIN

>  <SYNONYMS>  (67) 


>  <SPECTRUM TYPE>  (67) 
MS1

>  <INSTRUMENT TYPE>  (67) 
EI-B

>  <INSTRUMENT>  (67) 
JEOL JMS-DX-300

>  <ION MODE>  (67) 
P

>  <INCHIKEY>  (67) 
CXWXQJXEFPUFDZ-UHFFFAOYSA-N

>  <FORMULA>  (67) 
C10H12

>  <EXACT MASS>  (67) 
132.093900384

>  <MW>  (67) 
132

>  <ID>  (67) 
JP012104

>  <CONTRIBUTOR>  (67) 
University of Tokyo Team, {Faculty of Engineering, University of Tokyo

>  <COMMENT>  (67) 
SMILES=C(C2)Cc(c1)c(C2)ccc1
InChI=InChI=1S/C10H12/c1-2-6-10-8-4-3-7-9(10)5-1/h1-2,5-6H,3-4,7-8H2
computed SMILES=C=1C=CC2=C(C1)CCCC2
accession=JP012104
date=2016.01.19 (Created 2008.10.21, modified 2011.05.06)
author=HISAHIRO HAGIWARA, INSTITUTE FOR CHEMICAL REACTION SCIENCE TOHOKU UNIV.
license=CC BY-NC-SA
exact mass=132.0939
ionization energy=70 eV
ion type=[M]+*
computed spectral entropy=2.8410830212856046
computed normalized entropy=0.775497533742077
SPLASH=splash10-0ue9-4900000000-6df963605be8ec78f34c
submitter=submitter = University of Tokyo Team (Faculty of Engineering, University of Tokyo)
MoNA Rating=3.75

>  <NUM PEAKS>  (67) 
39

>  <MASS SPECTRAL PEAKS>  (67) 
39 7.2
41 2
50 3.2
51 10.1
52 2.4
53 2.9
57 2.2
58 1.9
62 1.7
63 6.3
64 8.1
65 11
66 1.3
74 1.8
75 1.7
76 1.8
77 9.7
78 10
79 1.8
89 2.8
91 48.4
92 4.1
101 1
102 3.2
103 8.9
104 99.99
105 10.6
115 14.6
116 6.6
117 16.1
118 1.6
126 1.4
127 4.5
128 10
129 6.8
130 2.3
131 15.7
132 68.2
133 7.8

$$$$

     RDKit          2D

 38 43  0  0  0  0  0  0  0  0999 V2000
    5.1442    0.3500    0.0000 C   0  0  0  0  0  0  0  0  0  0  0  0
    4.1396    6.0472    0.0000 C   0  0  0  0  0  0  0  0  0  0  0  0
   -1.6455    6.0472    0.0000 C   0  0  0  0  0  0  0  0  0  0  0  0
   -5.6118    4.1000    0.0000 C   0  0  0  0  0  0  0  0  0  0  0  0
   -3.7759   -2.0772    0.0000 C   0  0  0  0  0  0  0  0  0  0  0  0
    2.0092   -2.0772    0.0000 C   0  0  0  0  0  0  0  0  0  0  0  0
    5.1447    1.8508    0.0000 C   0  0  0  0  0  0  0  0  0  0  0  0
    3.8447   -0.4008    0.0000 C   0  0  0  0  0  0  0  0  0  0  0  0
    2.6617    6.3083    0.0000 C   0  0  0  0  0  0  0  0  0  0  0  0
    4.6534    4.6370    0.0000 C   0  0  0  0  0  0  0  0  0  0  0  0
   -2.1592    4.6370    0.0000 C   0  0  0  0  0  0  0  0  0  0  0  0
   -0.1675    6.3083    0.0000 C   0  0  0  0  0  0  0  0  0  0  0  0
   -5.6123    2.5992    0.0000 C   0  0  0  0  0  0  0  0  0  0  0  0
   -4.3123    4.8508    0.0000 C   0  0  0  0  0  0  0  0  0  0  0  0
   -2.2979   -2.3383    0.0000 C   0  0  0  0  0  0  0  0  0  0  0  0
   -4.2897   -0.6670    0.0000 C   0  0  0  0  0  0  0  0  0  0  0  0
    2.5230   -0.6670    0.0000 C   0  0  0  0  0  0  0  0  0  0  0  0
    0.5312   -2.3383    0.0000 C   0  0  0  0  0  0  0  0  0  0  0  0
    3.8456    2.6008    0.0000 C   0  0  0  0  0  0  0  0  0  0  0  0
    2.5456    0.3492    0.0000 C   0  0  0  0  0  0  0  0  0  0  0  0
    1.6975    5.1592    0.0000 C   0  0  0  0  0  0  0  0  0  0  0  0
    3.6892    3.4880    0.0000 C   0  0  0  0  0  0  0  0  0  0  0  0
   -1.1951    3.4880    0.0000 C   0  0  0  0  0  0  0  0  0  0  0  0
    0.7967    5.1592    0.0000 C   0  0  0  0  0  0  0  0  0  0  0  0
   -4.3133    1.8492    0.0000 C   0  0  0  0  0  0  0  0  0  0  0  0
   -3.0133    4.1008    0.0000 C   0  0  0  0  0  0  0  0  0  0  0  0
   -1.3338   -1.1892    0.0000 C   0  0  0  0  0  0  0  0  0  0  0  0
   -3.3255    0.4820    0.0000 C   0  0  0  0  0  0  0  0  0  0  0  0
    1.5588    0.4820    0.0000 C   0  0  0  0  0  0  0  0  0  0  0  0
   -0.4329   -1.1892    0.0000 C   0  0  0  0  0  0  0  0  0  0  0  0
    2.5461    1.8500    0.0000 C   0  0  0  0  0  0  0  0  0  0  0  0
    2.2113    3.7491    0.0000 C   0  0  0  0  0  0  0  0  0  0  0  0
    0.2829    3.7491    0.0000 C   0  0  0  0  0  0  0  0  0  0  0  0
   -3.0138    2.6000    0.0000 C   0  0  0  0  0  0  0  0  0  0  0  0
   -1.8475    0.2209    0.0000 C   0  0  0  0  0  0  0  0  0  0  0  0
    0.0808    0.2209    0.0000 C   0  0  0  0  0  0  0  0  0  0  0  0
    1.2471    2.6000    0.0000 C   0  0  0  0  0  0  0  0  0  0  0  0
   -0.8833    1.3700    0.0000 C   0  0  0  0  0  0  0  0  0  0  0  0
  7  1  2  0
  8  1  1  0
  9  2  2  0
 10  2  1  0
 11  3  2  0
 12  3  1  0
 13  4  2  0
 14  4  1  0
 15  5  2  0
 16  5  1  0
 17  6  2  0
 18  6  1  0
 19  7  1  0
 20  8  2  0
 21  9  1  0
 22 10  2  0
 23 11  1  0
 24 12  2  0
 25 13  1  0
 26 14  2  0
 27 15  1  0
 28 16  2  0
 29 17  1  0
 30 18  2  0
 31 19  2  0
 31 20  1  0
 32 21  2  0
 32 22  1  0
 33 23  2  0
 33 24  1  0
 34 25  2  0
 34 26  1  0
 35 27  2  0
 35 28  1  0
 36 29  2  0
 36 30  1  0
 37 31  1  0
 37 32  1  0
 37 33  1  0
 38 34  1  0
 38 35  1  0
 38 36  1  0
 38 37  1  0
M  END
>  <NAME>  (68) 
HEXAPHENYLETHANE

>  <SYNONYMS>  (68) 


>  <SPECTRUM TYPE>  (68) 
MS1

>  <INSTRUMENT TYPE>  (68) 
EI-B

>  <INSTRUMENT>  (68) 
JEOL JMS-DX-300

>  <ION MODE>  (68) 
P

>  <INCHIKEY>  (68) 
IPOBVSHPVYWJQC-UHFFFAOYSA-N

>  <FORMULA>  (68) 
C38H30

>  <EXACT MASS>  (68) 
486.23475096

>  <MW>  (68) 
486

>  <ID>  (68) 
JP012103

>  <CONTRIBUTOR>  (68) 
University of Tokyo Team, {Faculty of Engineering, University of Tokyo

>  <COMMENT>  (68) 
SMILES=C(C(c(c6)cccc6)(c(c5)cccc5)c(c4)cccc4)(c(c3)cccc3)(c(c2)cccc2)c(c1)cccc1
InChI=InChI=1S/C38H30/c1-7-19-31(20-8-1)37(32-21-9-2-10-22-32,33-23-11-3-12-24-33)38(34-25-13-4-14-26-34,35-27-15-5-16-28-35)36-29-17-6-18-30-36/h1-30H
computed SMILES=C=1C=CC(=CC1)C(C=2C=CC=CC2)(C=3C=CC=CC3)C(C=4C=CC=CC4)(C=5C=CC=CC5)C=6C=CC=CC6
accession=JP012103
date=2016.01.19 (Created 2008.10.21, modified 2011.05.06)
author=HISAHIRO HAGIWARA, INSTITUTE FOR CHEMICAL REACTION SCIENCE TOHOKU UNIV.
license=CC BY-NC-SA
exact mass=486.23475
ionization energy=70 eV
ion type=[M]+*
computed spectral entropy=2.832059866391772
computed normalized entropy=0.8099681801357151
SPLASH=splash10-05ox-5970000000-9c7102ed7e93fa9f34f6
submitter=submitter = University of Tokyo Team (Faculty of Engineering, University of Tokyo)
MoNA Rating=3.75

>  <NUM PEAKS>  (68) 
33

>  <MASS SPECTRAL PEAKS>  (68) 
39 9.6
50 6.4
51 27.5
63 4.4
65 7.2
76 4.5
77 81.1
78 8.2
91 3.2
94 4.5
105 66
106 5.7
115 5.9
139 5
152 8.3
153 8
154 3.4
163 4
164 5.4
165 73.2
166 28.5
167 11.2
181 5.5
182 5.9
215 7.2
216 6.3
228 3.8
241 5.2
242 3.7
243 99.99
244 24.7
259 30.4
260 7.3

$$$$

     RDKit          2D

 16 18  0  0  0  0  0  0  0  0999 V2000
    0.3662    8.4218    0.0000 C   0  0  0  0  0  0  0  0  0  0  0  0
    1.6653    7.6720    0.0000 C   0  0  0  0  0  0  0  0  0  0  0  0
   -0.9282    7.6794    0.0000 C   0  0  0  0  0  0  0  0  0  0  0  0
    0.3707    5.4288    0.0000 C   0  0  0  0  0  0  0  0  0  0  0  0
    4.2682    6.1846    0.0000 C   0  0  0  0  0  0  0  0  0  0  0  0
   -2.2275    3.9285    0.0000 C   0  0  0  0  0  0  0  0  0  0  0  0
    7.0694    5.4392    0.0000 C   0  0  0  0  0  0  0  0  0  0  0  0
   -4.2774    1.8790    0.0000 C   0  0  0  0  0  0  0  0  0  0  0  0
    1.6701    6.1798    0.0000 C   0  0  0  0  0  0  0  0  0  0  0  0
   -0.9285    6.1785    0.0000 C   0  0  0  0  0  0  0  0  0  0  0  0
    5.5686    5.4369    0.0000 C   0  0  0  0  0  0  0  0  0  0  0  0
   -3.5265    3.1785    0.0000 C   0  0  0  0  0  0  0  0  0  0  0  0
    2.9705    5.4322    0.0000 O   0  0  0  0  0  0  0  0  0  0  0  0
   -2.2275    5.4285    0.0000 O   0  0  0  0  0  0  0  0  0  0  0  0
    6.3218    4.1388    0.0000 O   0  0  0  0  0  0  0  0  0  0  0  0
   -5.0274    3.1781    0.0000 O   0  0  0  0  0  0  0  0  0  0  0  0
  2  1  2  0
  3  1  1  0
  9  2  1  0
  9  4  2  0
 10  3  2  0
 10  4  1  0
 11  5  1  0
 11  7  1  0
 12  6  1  0
 12  8  1  0
 13  5  1  0
 13  9  1  0
 14  6  1  0
 14 10  1  0
 15  7  1  0
 15 11  1  0
 16  8  1  0
 16 12  1  0
M  END
>  <NAME>  (69) 
1,3-BENZENDIOL BIS(2-PROPENYL)ETHER BISEPOXIDE

>  <SYNONYMS>  (69) 


>  <SPECTRUM TYPE>  (69) 
MS1

>  <INSTRUMENT TYPE>  (69) 
EI-B

>  <INSTRUMENT>  (69) 
JEOL JMS-DX-300

>  <ION MODE>  (69) 
P

>  <INCHIKEY>  (69) 
WPYCRFCQABTEKC-UHFFFAOYSA-N

>  <FORMULA>  (69) 
C12H14O4

>  <EXACT MASS>  (69) 
222.089208928

>  <MW>  (69) 
222

>  <ID>  (69) 
JP012102

>  <CONTRIBUTOR>  (69) 
University of Tokyo Team, {Faculty of Engineering, University of Tokyo

>  <COMMENT>  (69) 
SMILES=c(c1)cc(OCC(O3)C3)cc1OCC(O2)C2
InChI=InChI=1S/C12H14O4/c1-2-9(13-5-11-7-15-11)4-10(3-1)14-6-12-8-16-12/h1-4,11-12H,5-8H2
computed SMILES=O(C1=CC=CC(OCC2OC2)=C1)CC3OC3
accession=JP012102
date=2016.01.19 (Created 2008.10.21, modified 2011.05.06)
author=HISAHIRO HAGIWARA, INSTITUTE FOR CHEMICAL REACTION SCIENCE TOHOKU UNIV.
license=CC BY-NC-SA
exact mass=222.08921
ionization energy=70 eV
ion type=[M]+*
computed spectral entropy=3.4090176381722728
computed normalized entropy=0.8506948338448456
SPLASH=splash10-00di-9640000000-92e200fa60c09517dc94
submitter=submitter = University of Tokyo Team (Faculty of Engineering, University of Tokyo)
MoNA Rating=3.75

>  <NUM PEAKS>  (69) 
55

>  <MASS SPECTRAL PEAKS>  (69) 
38 3.5
39 12.4
41 11.5
43 6.4
50 3.1
51 4.3
52 4.6
53 6.4
55 6.6
57 63.8
58 3.1
63 9.1
64 11
65 11.2
66 2.8
67 3.8
68 3.4
69 5.9
76 2.4
77 12.4
78 2.9
79 7.1
80 2.8
81 7.4
82 8.7
91 9
92 8.1
93 9.5
94 3.4
95 5.4
103 5.2
105 4.3
107 10.9
108 3.6
109 2.2
110 35
111 3.5
119 5.2
121 4.1
123 17.6
124 2.7
133 2.1
134 4.5
135 8.8
136 10.9
137 4.2
147 2.5
149 10.4
163 2.8
166 27.9
167 3.1
192 4.3
222 99.99
223 21.1
224 3.1

$$$$

     RDKit          2D

 23 27  0  0  0  0  0  0  0  0999 V2000
   -6.1668    3.0106    0.0000 C   0  0  0  0  0  0  0  0  0  0  0  0
   -6.1668   -2.9906    0.0000 C   0  0  0  0  0  0  0  0  0  0  0  0
   -6.1675    1.5098    0.0000 C   0  0  0  0  0  0  0  0  0  0  0  0
   -4.8671    3.7612    0.0000 C   0  0  0  0  0  0  0  0  0  0  0  0
   -4.8671   -3.7412    0.0000 C   0  0  0  0  0  0  0  0  0  0  0  0
   -6.1675   -1.4898    0.0000 C   0  0  0  0  0  0  0  0  0  0  0  0
   -4.8686    0.7596    0.0000 C   0  0  0  0  0  0  0  0  0  0  0  0
   -3.5682    3.0110    0.0000 C   0  0  0  0  0  0  0  0  0  0  0  0
   -3.5682   -2.9910    0.0000 C   0  0  0  0  0  0  0  0  0  0  0  0
   -4.8686   -0.7396    0.0000 C   0  0  0  0  0  0  0  0  0  0  0  0
    1.7600    1.2200    0.0000 C   0  0  0  0  0  0  0  0  0  0  0  0
    2.6400    0.0100    0.0000 C   0  0  0  0  0  0  0  0  0  0  0  0
   -0.3500   -0.0600    0.0000 C   0  0  0  0  0  0  0  0  0  0  0  0
   -3.5689    1.5102    0.0000 C   0  0  0  0  0  0  0  0  0  0  0  0
   -3.5689   -1.4902    0.0000 C   0  0  0  0  0  0  0  0  0  0  0  0
    0.3300    0.7600    0.0000 C   0  0  0  0  0  0  0  0  0  0  0  0
   -0.9700    1.5100    0.0000 C   0  0  0  0  0  0  0  0  0  0  0  0
   -0.9700   -1.4900    0.0000 C   0  0  0  0  0  0  0  0  0  0  0  0
    1.7600   -1.2100    0.0000 C   0  0  0  0  0  0  0  0  0  0  0  0
   -2.2700    0.7600    0.0000 C   0  0  0  0  0  0  0  0  0  0  0  0
   -2.2700   -0.7400    0.0000 C   0  0  0  0  0  0  0  0  0  0  0  0
    0.3300   -0.7400    0.0000 C   0  0  0  0  0  0  0  0  0  0  0  0
    2.2236   -2.6366    0.0000 O   0  0  0  0  0  0  0  0  0  0  0  0
  3  1  2  0
  4  1  1  0
  5  2  2  0
  6  2  1  0
  7  3  1  0
  8  4  2  0
  9  5  1  0
 10  6  2  0
 12 11  2  0
 14  7  2  0
 14  8  1  0
 15  9  2  0
 15 10  1  0
 16 11  1  0
 17 13  1  0
 17 16  1  0
 18 13  1  0
 19 12  1  0
 20 14  1  0
 20 17  1  0
 21 15  1  0
 21 18  1  0
 21 20  2  0
 22 16  1  0
 22 18  1  0
 22 19  1  0
 23 19  2  0
M  END
>  <NAME>  (70) 
8,9-DIPHENYLTRICYCLO(5,2,1,0(2,6))DECA-4,8-DIEN-3-ONE

>  <SYNONYMS>  (70) 


>  <SPECTRUM TYPE>  (70) 
MS1

>  <INSTRUMENT TYPE>  (70) 
EI-B

>  <INSTRUMENT>  (70) 
JEOL JMS-DX-300

>  <ION MODE>  (70) 
P

>  <INCHIKEY>  (70) 
APNUTSSHCCOFPX-UHFFFAOYSA-N

>  <FORMULA>  (70) 
C22H18O

>  <EXACT MASS>  (70) 
298.13576519599997

>  <MW>  (70) 
298

>  <ID>  (70) 
JP012101

>  <CONTRIBUTOR>  (70) 
University of Tokyo Team, {Faculty of Engineering, University of Tokyo

>  <COMMENT>  (70) 
SMILES=c(c5)ccc(c5)C(=C(c(c4)cccc4)2)C(C1)C(C=3)C(C(=O)C3)C12
InChI=InChI=1S/C22H18O/c23-19-12-11-16-17-13-18(22(16)19)21(15-9-5-2-6-10-15)20(17)14-7-3-1-4-8-14/h1-12,16-18,22H,13H2
computed SMILES=O=C1C=CC2C3C(C=4C=CC=CC4)=C(C=5C=CC=CC5)C(C3)C12
accession=JP012101
date=2016.01.19 (Created 2008.10.21, modified 2011.05.06)
author=HISAHIRO HAGIWARA, INSTITUTE FOR CHEMICAL REACTION SCIENCE TOHOKU UNIV.
license=CC BY-NC-SA
exact mass=298.13577
ionization energy=70 eV
ion type=[M]+*
computed spectral entropy=3.043248243202874
computed normalized entropy=0.7994531302370578
SPLASH=splash10-014i-1290000000-2997b7e6bd1ae3cc1463
submitter=submitter = University of Tokyo Team (Faculty of Engineering, University of Tokyo)
MoNA Rating=3.75

>  <NUM PEAKS>  (70) 
45

>  <MASS SPECTRAL PEAKS>  (70) 
39 4.6
51 5.6
52 3.7
53 2.5
63 3.2
65 2.9
77 4.1
81 3.8
89 3
91 6.1
101 2.5
113 2.4
114 2.1
115 11.5
116 2.2
126 3.2
127 2
139 3.3
141 5.8
152 3.5
165 6.8
178 5.2
179 3.6
189 5.3
190 2.1
191 5.8
192 2.9
202 19.5
203 12.6
204 2.8
207 2.5
213 2.1
215 14.5
216 7.2
217 23.9
218 99.99
219 25.9
220 3.5
239 2.6
255 2.7
270 3.1
297 3.3
298 51.1
299 15
300 2.1

$$$$

     RDKit          2D

 14 13  0  0  0  0  0  0  0  0999 V2000
   -1.3861    1.4498    0.0000 C   0  0  0  0  0  0  0  0  0  0  0  0
   -3.9841    1.4498    0.0000 C   0  0  0  0  0  0  0  0  0  0  0  0
    2.5111    3.6998    0.0000 C   0  0  0  0  0  0  0  0  0  0  0  0
   -6.0332    4.9988    0.0000 C   0  0  0  0  0  0  0  0  0  0  0  0
   -6.5822    2.9498    0.0000 C   0  0  0  0  0  0  0  0  0  0  0  0
   -4.5332    2.4007    0.0000 C   0  0  0  0  0  0  0  0  0  0  0  0
   -0.0870    3.6998    0.0000 C   0  0  0  0  0  0  0  0  0  0  0  0
   -1.3861    4.4498    0.0000 C   0  0  0  0  0  0  0  0  0  0  0  0
   -3.9841    4.4498    0.0000 C   0  0  0  0  0  0  0  0  0  0  0  0
   -2.6851    2.1998    0.0000 C   0  0  0  0  0  0  0  0  0  0  0  0
    1.2120    4.4498    0.0000 C   0  0  0  0  0  0  0  0  0  0  0  0
   -2.6851    3.6998    0.0000 C   0  0  0  0  0  0  0  0  0  0  0  0
    1.2120    5.9498    0.0000 O   0  0  0  0  0  0  0  0  0  0  0  0
   -5.2832    3.6998    0.0000 Si  0  0  0  0  0  4  0  0  0  0  0  0
  8  7  1  0
 10  1  2  0
 10  2  1  0
 11  3  1  0
 11  7  1  0
 12  8  1  0
 12  9  1  0
 12 10  1  0
 13 11  2  0
 14  4  1  0
 14  5  1  0
 14  6  1  0
 14  9  1  0
M  END
>  <NAME>  (71) 
6-METHYL-5-TRIMETHYLSILYLMETHYL-6-HEPTEN-2-ONE

>  <SYNONYMS>  (71) 


>  <SPECTRUM TYPE>  (71) 
MS1

>  <INSTRUMENT TYPE>  (71) 
EI-B

>  <INSTRUMENT>  (71) 
JEOL JMS-DX-300

>  <ION MODE>  (71) 
P

>  <INCHIKEY>  (71) 
AJNMYAQSXRODBL-UHFFFAOYSA-N

>  <FORMULA>  (71) 
C12H24OSi

>  <EXACT MASS>  (71) 
212.15964191799998

>  <MW>  (71) 
212

>  <ID>  (71) 
JP012098

>  <CONTRIBUTOR>  (71) 
University of Tokyo Team, {Faculty of Engineering, University of Tokyo

>  <COMMENT>  (71) 
SMILES=CC(=O)CCC(C(C)=C)C[Si](C)(C)C
InChI=InChI=1S/C12H24OSi/c1-10(2)12(8-7-11(3)13)9-14(4,5)6/h12H,1,7-9H2,2-6H3
computed SMILES=O=C(C)CCC(C(=C)C)C[Si](C)(C)C
accession=JP012098
date=2016.01.19 (Created 2008.10.21, modified 2011.05.06)
author=HISAHIRO HAGIWARA, INSTITUTE FOR CHEMICAL REACTION SCIENCE TOHOKU UNIV.
license=CC BY-NC-SA
exact mass=212.15964
ionization energy=70 eV
ion type=[M]+*
computed spectral entropy=2.915264090268416
computed normalized entropy=0.7850296258975342
SPLASH=splash10-00di-9500000000-2afa9eabf6f50ef8f1bb
submitter=submitter = University of Tokyo Team (Faculty of Engineering, University of Tokyo)
MoNA Rating=3.75

>  <NUM PEAKS>  (71) 
41

>  <MASS SPECTRAL PEAKS>  (71) 
39 2.2
41 3.3
43 16.1
44 2.9
45 10.3
53 2.2
55 2.1
58 2.6
59 8.4
67 2.4
72 2.6
73 99.99
74 10.8
75 41.6
76 3.3
77 2.7
85 3.1
93 2.2
99 2.8
107 15.1
111 3.4
112 2.6
115 11.7
121 3
122 17.7
123 2.7
127 2.6
129 5.4
130 9.3
139 2.5
141 14.5
142 2.5
143 4.4
144 4.3
154 9.8
155 2.2
169 3.6
183 1.8
194 1.6
197 5.1
212 0.6

$$$$

     RDKit          2D

 15 14  0  0  0  0  0  0  0  0999 V2000
   -8.2697    4.9755    0.0000 C   0  0  0  0  0  0  0  0  0  0  0  0
   -3.0736    1.9755    0.0000 C   0  0  0  0  0  0  0  0  0  0  0  0
   -0.4755    1.9755    0.0000 C   0  0  0  0  0  0  0  0  0  0  0  0
    0.0736    2.9264    0.0000 C   0  0  0  0  0  0  0  0  0  0  0  0
    2.1226    3.4755    0.0000 C   0  0  0  0  0  0  0  0  0  0  0  0
    1.5736    5.5245    0.0000 C   0  0  0  0  0  0  0  0  0  0  0  0
   -6.9707    4.2255    0.0000 C   0  0  0  0  0  0  0  0  0  0  0  0
   -3.0736    4.9755    0.0000 C   0  0  0  0  0  0  0  0  0  0  0  0
   -4.3726    4.2255    0.0000 C   0  0  0  0  0  0  0  0  0  0  0  0
   -0.4755    4.9755    0.0000 C   0  0  0  0  0  0  0  0  0  0  0  0
   -1.7745    2.7255    0.0000 C   0  0  0  0  0  0  0  0  0  0  0  0
   -1.7745    4.2255    0.0000 C   0  0  0  0  0  0  0  0  0  0  0  0
   -5.6716    4.9755    0.0000 C   0  0  0  0  0  0  0  0  0  0  0  0
   -5.6716    6.4755    0.0000 O   0  0  0  0  0  0  0  0  0  0  0  0
    0.8236    4.2255    0.0000 Si  0  0  0  0  0  4  0  0  0  0  0  0
  7  1  1  0
  9  8  1  0
 11  2  2  0
 11  3  1  0
 12  8  1  0
 12 10  1  0
 12 11  1  0
 13  7  1  0
 13  9  1  0
 14 13  2  0
 15  4  1  0
 15  5  1  0
 15  6  1  0
 15 10  1  0
M  END
>  <NAME>  (72) 
7-METHYL-6-TRIMETHYLSILYLMETHYL-7-OCTEN-3-ONE

>  <SYNONYMS>  (72) 


>  <SPECTRUM TYPE>  (72) 
MS1

>  <INSTRUMENT TYPE>  (72) 
EI-B

>  <INSTRUMENT>  (72) 
JEOL JMS-DX-300

>  <ION MODE>  (72) 
P

>  <INCHIKEY>  (72) 
QTOJCRMBVDQWJP-UHFFFAOYSA-N

>  <FORMULA>  (72) 
C13H26OSi

>  <EXACT MASS>  (72) 
226.17529198199998

>  <MW>  (72) 
226

>  <ID>  (72) 
JP012097

>  <CONTRIBUTOR>  (72) 
University of Tokyo Team, {Faculty of Engineering, University of Tokyo

>  <COMMENT>  (72) 
SMILES=CCC(=O)CCC(C(C)=C)C[Si](C)(C)C
InChI=InChI=1S/C13H26OSi/c1-7-13(14)9-8-12(11(2)3)10-15(4,5)6/h12H,2,7-10H2,1,3-6H3
computed SMILES=O=C(CC)CCC(C(=C)C)C[Si](C)(C)C
accession=JP012097
date=2016.01.19 (Created 2008.10.21, modified 2011.05.06)
author=HISAHIRO HAGIWARA, INSTITUTE FOR CHEMICAL REACTION SCIENCE TOHOKU UNIV.
license=CC BY-NC-SA
exact mass=226.17529
ionization energy=70 eV
ion type=[M]+*
computed spectral entropy=3.073262372392935
computed normalized entropy=0.7537054937377037
SPLASH=splash10-00di-9400000000-360ad26962b50ab65fff
submitter=submitter = University of Tokyo Team (Faculty of Engineering, University of Tokyo)
MoNA Rating=3.75

>  <NUM PEAKS>  (72) 
59

>  <MASS SPECTRAL PEAKS>  (72) 
39 1.7
41 3.3
43 2.3
44 1.7
45 11.6
47 1.3
53 2
55 2.7
57 5.9
59 8.4
61 2.1
67 2.2
68 1.3
71 1.2
72 2.4
73 99.99
74 10.8
75 38.7
76 3
77 2.2
79 1.8
81 1.3
83 3.6
85 3.3
91 1.2
93 1.8
95 1.4
97 1.2
99 2.4
107 15.2
108 1.9
109 1
111 2.6
112 2.7
113 1.3
117 1.2
121 3.5
127 1.8
129 7.5
130 1
135 2
136 6.5
137 1.2
139 2.3
141 8.3
142 1.7
143 3.8
144 13.2
145 1.9
154 4.8
155 1.8
157 2.4
158 2.6
169 1.3
183 2.3
197 5.2
198 1.1
211 2.1
226 0.5

$$$$

     RDKit          2D

 19 18  0  0  0  0  0  0  0  0999 V2000
    3.2476    5.6250    0.0000 C   0  0  0  0  0  0  0  0  0  0  0  0
    1.9486    7.8750    0.0000 C   0  0  0  0  0  0  0  0  0  0  0  0
   -3.2476    7.8750    0.0000 C   0  0  0  0  0  0  0  0  0  0  0  0
   -9.7428    5.6250    0.0000 C   0  0  0  0  0  0  0  0  0  0  0  0
   -6.5957    4.6740    0.0000 C   0  0  0  0  0  0  0  0  0  0  0  0
   -7.1447    2.6250    0.0000 C   0  0  0  0  0  0  0  0  0  0  0  0
   -5.0957    2.0760    0.0000 C   0  0  0  0  0  0  0  0  0  0  0  0
   -0.6495    6.3750    0.0000 C   0  0  0  0  0  0  0  0  0  0  0  0
    0.6495    5.6250    0.0000 C   0  0  0  0  0  0  0  0  0  0  0  0
   -1.9486    5.6250    0.0000 C   0  0  0  0  0  0  0  0  0  0  0  0
   -7.1447    5.6250    0.0000 C   0  0  0  0  0  0  0  0  0  0  0  0
   -5.8457    6.3750    0.0000 C   0  0  0  0  0  0  0  0  0  0  0  0
   -4.5466    4.1250    0.0000 C   0  0  0  0  0  0  0  0  0  0  0  0
    1.9486    6.3750    0.0000 C   0  0  0  0  0  0  0  0  0  0  0  0
   -3.2476    6.3750    0.0000 C   0  0  0  0  0  0  0  0  0  0  0  0
   -8.4437    6.3750    0.0000 C   0  0  0  0  0  0  0  0  0  0  0  0
   -4.5466    5.6250    0.0000 C   0  0  0  0  0  0  0  0  0  0  0  0
   -8.4437    7.8750    0.0000 O   0  0  0  0  0  0  0  0  0  0  0  0
   -5.8457    3.3750    0.0000 Si  0  0  0  0  0  4  0  0  0  0  0  0
  9  8  1  0
 10  8  1  0
 12 11  1  0
 14  1  1  0
 14  2  1  0
 14  9  2  0
 15  3  2  0
 15 10  1  0
 16  4  1  0
 16 11  1  0
 17 12  1  0
 17 13  1  0
 17 15  1  0
 18 16  2  0
 19  5  1  0
 19  6  1  0
 19  7  1  0
 19 13  1  0
M  END
>  <NAME>  (73) 
10-METHYL-6-METHYLENE-5-TRIMETHYLSILYLMETHYL-9-UNDECEN-2-ONE

>  <SYNONYMS>  (73) 


>  <SPECTRUM TYPE>  (73) 
MS1

>  <INSTRUMENT TYPE>  (73) 
EI-B

>  <INSTRUMENT>  (73) 
JEOL JMS-DX-300

>  <ION MODE>  (73) 
P

>  <INCHIKEY>  (73) 
ICGYNFPQDKXQEN-UHFFFAOYSA-N

>  <FORMULA>  (73) 
C17H32OSi

>  <EXACT MASS>  (73) 
280.22224217400003

>  <MW>  (73) 
280

>  <ID>  (73) 
JP012096

>  <CONTRIBUTOR>  (73) 
University of Tokyo Team, {Faculty of Engineering, University of Tokyo

>  <COMMENT>  (73) 
SMILES=CC(C)=CCCC(=C)C(CCC(C)=O)C[Si](C)(C)C
InChI=InChI=1S/C17H32OSi/c1-14(2)9-8-10-15(3)17(12-11-16(4)18)13-19(5,6)7/h9,17H,3,8,10-13H2,1-2,4-7H3
computed SMILES=O=C(C)CCC(C(=C)CCC=C(C)C)C[Si](C)(C)C
accession=JP012096
date=2016.01.19 (Created 2008.10.21, modified 2011.05.06)
author=HISAHIRO HAGIWARA, INSTITUTE FOR CHEMICAL REACTION SCIENCE TOHOKU UNIV.
license=CC BY-NC-SA
exact mass=280.22224
ionization energy=70 eV
ion type=[M]+*
computed spectral entropy=3.5209668251266764
computed normalized entropy=0.8565008174569073
SPLASH=splash10-00di-9600000000-c7f8840d341ee84126f9
submitter=submitter = University of Tokyo Team (Faculty of Engineering, University of Tokyo)
MoNA Rating=3.75

>  <NUM PEAKS>  (73) 
61

>  <MASS SPECTRAL PEAKS>  (73) 
39 2.8
41 27.3
43 13.2
45 10.8
53 3.1
55 4
59 7.6
61 2.5
67 5.4
69 35.7
70 2.4
72 2
73 99.99
74 11.3
75 37.1
76 2.9
77 3.1
79 7.6
80 2.5
81 8.9
82 3
91 5.3
93 13.6
94 3.7
95 4.7
106 2.5
107 30.4
108 8.9
109 6.4
113 3.3
115 12.7
117 4.2
119 2.5
120 2.3
121 19.2
122 3
129 3.4
130 15.2
131 5.7
133 3.5
135 8.8
141 3.2
147 13.9
148 5
150 8.1
169 10.5
170 2.6
171 23.5
172 3.9
179 10.9
180 2.4
183 3.3
189 2.3
190 9.9
191 2.2
197 2.1
209 4.6
211 2.4
222 4.6
265 2.8
280 2.1

$$$$

     RDKit          2D

 16 16  0  0  0  0  0  0  0  0999 V2000
    1.0594    1.3567    0.0000 C   0  0  0  0  0  0  0  0  0  0  0  0
    3.6574    1.3563    0.0000 C   0  0  0  0  0  0  0  0  0  0  0  0
    5.7059   -2.1931    0.0000 C   0  0  0  0  0  0  0  0  0  0  0  0
    6.2553   -0.1441    0.0000 C   0  0  0  0  0  0  0  0  0  0  0  0
    4.2063    0.4053    0.0000 C   0  0  0  0  0  0  0  0  0  0  0  0
   -0.2361   -3.8863    0.0000 C   0  0  0  0  0  0  0  0  0  0  0  0
    1.0584   -3.1441    0.0000 C   0  0  0  0  0  0  0  0  0  0  0  0
   -1.5352   -3.1363    0.0000 C   0  0  0  0  0  0  0  0  0  0  0  0
   -0.2402   -0.8933    0.0000 C   0  0  0  0  0  0  0  0  0  0  0  0
    3.6570   -1.6437    0.0000 C   0  0  0  0  0  0  0  0  0  0  0  0
    2.3583    0.6065    0.0000 C   0  0  0  0  0  0  0  0  0  0  0  0
    1.0589   -1.6433    0.0000 C   0  0  0  0  0  0  0  0  0  0  0  0
   -1.5397   -1.6441    0.0000 C   0  0  0  0  0  0  0  0  0  0  0  0
    2.3580   -0.8935    0.0000 C   0  0  0  0  0  0  0  0  0  0  0  0
   -2.8400   -0.8963    0.0000 O   0  0  0  0  0  0  0  0  0  0  0  0
    4.9561   -0.8939    0.0000 Si  0  0  0  0  0  4  0  0  0  0  0  0
  7  6  1  0
  8  6  1  0
 11  1  2  0
 11  2  1  0
 12  7  1  0
 12  9  1  0
 13  8  1  0
 13  9  1  0
 14 10  1  0
 14 11  1  0
 14 12  1  0
 15 13  2  0
 16  3  1  0
 16  4  1  0
 16  5  1  0
 16 10  1  0
M  END
>  <NAME>  (74) 
3-(2-METHYL-1-TRIMETHYLSILYLMETHYL-2-PROPENYL)CYCLOHEXANONE

>  <SYNONYMS>  (74) 


>  <SPECTRUM TYPE>  (74) 
MS1

>  <INSTRUMENT TYPE>  (74) 
EI-B

>  <INSTRUMENT>  (74) 
JEOL JMS-DX-300

>  <ION MODE>  (74) 
P

>  <INCHIKEY>  (74) 
LSOIEULYYCJKRO-UHFFFAOYSA-N

>  <FORMULA>  (74) 
C14H26OSi

>  <EXACT MASS>  (74) 
238.175291982

>  <MW>  (74) 
238

>  <ID>  (74) 
JP012095

>  <CONTRIBUTOR>  (74) 
University of Tokyo Team, {Faculty of Engineering, University of Tokyo

>  <COMMENT>  (74) 
SMILES=O=C(C1)CC(CC1)C(C(C)=C)C[Si](C)(C)C
InChI=InChI=1S/C14H26OSi/c1-11(2)14(10-16(3,4)5)12-7-6-8-13(15)9-12/h12,14H,1,6-10H2,2-5H3
computed SMILES=O=C1CCCC(C1)C(C(=C)C)C[Si](C)(C)C
accession=JP012095
date=2016.01.19 (Created 2008.10.21, modified 2011.05.06)
author=HISAHIRO HAGIWARA, INSTITUTE FOR CHEMICAL REACTION SCIENCE TOHOKU UNIV.
license=CC BY-NC-SA
exact mass=238.17529
ionization energy=70 eV
ion type=[M]+*
computed spectral entropy=2.7205317204776565
computed normalized entropy=0.7591788315341638
SPLASH=splash10-00di-9400000000-306afb991e442229762a
submitter=submitter = University of Tokyo Team (Faculty of Engineering, University of Tokyo)
MoNA Rating=3.75

>  <NUM PEAKS>  (74) 
36

>  <MASS SPECTRAL PEAKS>  (74) 
39 3
41 4.7
42 2.7
43 23.5
44 4.5
45 5.2
55 1.5
58 8.4
59 5.4
67 2.4
68 1.9
69 1.5
72 1.8
73 99.99
74 9.6
75 21.1
76 2.1
77 2.6
79 2.3
85 2
91 1.6
105 1.6
111 2.1
127 4.7
141 23.4
142 6.9
143 2
147 1.8
155 9.3
156 1.7
169 6.6
170 38.8
171 7.7
172 2.2
181 3.5
223 4.4

$$$$

     RDKit          2D

 19 19  0  0  0  0  0  0  0  0999 V2000
    3.6376   -3.9004    0.0000 C   0  0  0  0  0  0  0  0  0  0  0  0
   -2.8587   -3.1502    0.0000 C   0  0  0  0  0  0  0  0  0  0  0  0
   -4.1581   -0.9004    0.0000 C   0  0  0  0  0  0  0  0  0  0  0  0
    2.3389    1.3502    0.0000 C   0  0  0  0  0  0  0  0  0  0  0  0
    4.1868   -2.9495    0.0000 C   0  0  0  0  0  0  0  0  0  0  0  0
    6.2359   -2.4008    0.0000 C   0  0  0  0  0  0  0  0  0  0  0  0
    5.6872   -0.3517    0.0000 C   0  0  0  0  0  0  0  0  0  0  0  0
    2.3387   -3.1502    0.0000 C   0  0  0  0  0  0  0  0  0  0  0  0
   -0.2600   -1.6500    0.0000 C   0  0  0  0  0  0  0  0  0  0  0  0
   -1.5600    0.6000    0.0000 C   0  0  0  0  0  0  0  0  0  0  0  0
    3.6381   -0.9004    0.0000 C   0  0  0  0  0  0  0  0  0  0  0  0
   -2.8589   -1.6502    0.0000 C   0  0  0  0  0  0  0  0  0  0  0  0
    1.0400    0.6000    0.0000 C   0  0  0  0  0  0  0  0  0  0  0  0
    2.3389   -1.6502    0.0000 C   0  0  0  0  0  0  0  0  0  0  0  0
   -1.5600   -0.9000    0.0000 C   0  0  0  0  0  0  0  0  0  0  0  0
    1.0400   -0.9000    0.0000 C   0  0  0  0  0  0  0  0  0  0  0  0
   -0.2600    1.3500    0.0000 C   0  0  0  0  0  0  0  0  0  0  0  0
   -0.2600    2.8500    0.0000 O   0  0  0  0  0  0  0  0  0  0  0  0
    4.9370   -1.6506    0.0000 Si  0  0  0  0  0  4  0  0  0  0  0  0
  8  1  2  0
 12  2  2  0
 12  3  1  0
 13  4  1  0
 14  8  1  0
 14 11  1  0
 15  9  1  0
 15 10  1  0
 15 12  1  0
 16  9  1  0
 16 13  1  0
 16 14  1  0
 17 10  1  0
 17 13  1  0
 18 17  2  0
 19  5  1  0
 19  6  1  0
 19  7  1  0
 19 11  1  0
M  END
>  <NAME>  (75) 
3-ISOPROPENYL-6-METHYL-5-(1-TRIMETHYLSILYLMETHYL-2-PROPENYL)CYCLOHEXANONE

>  <SYNONYMS>  (75) 


>  <SPECTRUM TYPE>  (75) 
MS1

>  <INSTRUMENT TYPE>  (75) 
EI-B

>  <INSTRUMENT>  (75) 
JEOL JMS-DX-300

>  <ION MODE>  (75) 
P

>  <INCHIKEY>  (75) 
YBSDYQVCPCLBQT-UHFFFAOYSA-N

>  <FORMULA>  (75) 
C17H30OSi

>  <EXACT MASS>  (75) 
278.20659211

>  <MW>  (75) 
278

>  <ID>  (75) 
JP012094

>  <CONTRIBUTOR>  (75) 
University of Tokyo Team, {Faculty of Engineering, University of Tokyo

>  <COMMENT>  (75) 
SMILES=C=CC(C[Si](C)(C)C)C(C1)C(C)C(=O)CC(C(C)=C)1
InChI=InChI=1S/C17H30OSi/c1-8-14(11-19(5,6)7)16-9-15(12(2)3)10-17(18)13(16)4/h8,13-16H,1-2,9-11H2,3-7H3
computed SMILES=O=C1CC(C(=C)C)CC(C1C)C(C=C)C[Si](C)(C)C
accession=JP012094
date=2016.01.19 (Created 2008.10.21, modified 2011.05.06)
license=CC BY-NC-SA
author=HISAHIRO HAGIWARA, INSTITUTE FOR CHEMICAL REACTION SCIENCE TOHOKU UNIV.
exact mass=278.20659
ionization energy=70 eV
ion type=[M]+*
computed spectral entropy=2.9334848235380044
computed normalized entropy=0.82509075702397
SPLASH=splash10-00di-9310000000-567ef43a2866722d0618
submitter=submitter = University of Tokyo Team (Faculty of Engineering, University of Tokyo)
MoNA Rating=3.75

>  <NUM PEAKS>  (75) 
35

>  <MASS SPECTRAL PEAKS>  (75) 
41 6.5
43 9.9
45 7.9
55 11.2
58 3.7
59 7.6
67 5.2
69 3.4
73 99.99
74 9.8
75 14.7
79 3.2
81 5.6
91 3
93 3.6
97 10.4
107 4.2
109 4.4
117 3.3
119 3.6
127 19.1
128 3.2
141 4.5
169 3.5
170 3.6
181 11.5
182 3.2
195 8.4
196 3
209 10
221 3.8
223 4.1
224 17.9
225 3.8
263 3.8

$$$$

     RDKit          2D

 25 25  0  0  0  0  0  0  0  0999 V2000
   10.1331   -1.6515    0.0000 C   0  0  0  0  0  0  0  0  0  0  0  0
    8.8345    0.5988    0.0000 C   0  0  0  0  0  0  0  0  0  0  0  0
   -2.8587   -3.1502    0.0000 C   0  0  0  0  0  0  0  0  0  0  0  0
   -4.1581   -0.9004    0.0000 C   0  0  0  0  0  0  0  0  0  0  0  0
    3.6383    0.5996    0.0000 C   0  0  0  0  0  0  0  0  0  0  0  0
    2.3389    1.3502    0.0000 C   0  0  0  0  0  0  0  0  0  0  0  0
    2.8874   -5.1993    0.0000 C   0  0  0  0  0  0  0  0  0  0  0  0
    4.9365   -4.6506    0.0000 C   0  0  0  0  0  0  0  0  0  0  0  0
    4.3878   -2.6015    0.0000 C   0  0  0  0  0  0  0  0  0  0  0  0
    6.2362   -0.9008    0.0000 C   0  0  0  0  0  0  0  0  0  0  0  0
    7.5351   -1.6510    0.0000 C   0  0  0  0  0  0  0  0  0  0  0  0
    4.9370   -1.6506    0.0000 C   0  0  0  0  0  0  0  0  0  0  0  0
   -0.2600   -1.6500    0.0000 C   0  0  0  0  0  0  0  0  0  0  0  0
   -1.5600    0.6000    0.0000 C   0  0  0  0  0  0  0  0  0  0  0  0
    2.3387   -3.1502    0.0000 C   0  0  0  0  0  0  0  0  0  0  0  0
    8.8342   -0.9012    0.0000 C   0  0  0  0  0  0  0  0  0  0  0  0
   -2.8589   -1.6502    0.0000 C   0  0  0  0  0  0  0  0  0  0  0  0
    3.6381   -0.9004    0.0000 C   0  0  0  0  0  0  0  0  0  0  0  0
    1.0400    0.6000    0.0000 C   0  0  0  0  0  0  0  0  0  0  0  0
   -1.5600   -0.9000    0.0000 C   0  0  0  0  0  0  0  0  0  0  0  0
    1.0400   -0.9000    0.0000 C   0  0  0  0  0  0  0  0  0  0  0  0
    2.3389   -1.6502    0.0000 C   0  0  0  0  0  0  0  0  0  0  0  0
   -0.2600    1.3500    0.0000 C   0  0  0  0  0  0  0  0  0  0  0  0
   -0.2600    2.8500    0.0000 O   0  0  0  0  0  0  0  0  0  0  0  0
    3.6376   -3.9004    0.0000 Si  0  0  0  0  0  4  0  0  0  0  0  0
 11 10  1  0
 12 10  1  0
 16  1  1  0
 16  2  1  0
 16 11  2  0
 17  3  2  0
 17  4  1  0
 18  5  2  0
 18 12  1  0
 19  6  1  0
 20 13  1  0
 20 14  1  0
 20 17  1  0
 21 13  1  0
 21 19  1  0
 22 15  1  0
 22 18  1  0
 22 21  1  0
 23 14  1  0
 23 19  1  0
 24 23  2  0
 25  7  1  0
 25  8  1  0
 25  9  1  0
 25 15  1  0
M  END
>  <NAME>  (76) 
3-ISOPROPENYL-6-METHYL-5-(6-METHYL-2-METHYLENE-1-TRIMETHYLSILYLMETHYL-5-HEPTENYL)CYCLOHEXANONE

>  <SYNONYMS>  (76) 


>  <SPECTRUM TYPE>  (76) 
MS1

>  <INSTRUMENT TYPE>  (76) 
EI-B

>  <INSTRUMENT>  (76) 
JEOL JMS-DX-300

>  <ION MODE>  (76) 
P

>  <INCHIKEY>  (76) 
ONIYXPBYZAIWFM-UHFFFAOYSA-N

>  <FORMULA>  (76) 
C23H40OSi

>  <EXACT MASS>  (76) 
360.28484243

>  <MW>  (76) 
360

>  <ID>  (76) 
JP012093

>  <CONTRIBUTOR>  (76) 
University of Tokyo Team, {Faculty of Engineering, University of Tokyo

>  <COMMENT>  (76) 
SMILES=CC(C)=CCCC(=C)C(C[Si](C)(C)C)C(C1)C(C)C(=O)CC(C(C)=C)1
InChI=InChI=1S/C23H40OSi/c1-16(2)11-10-12-18(5)22(15-25(7,8)9)21-13-20(17(3)4)14-23(24)19(21)6/h11,19-22H,3,5,10,12-15H2,1-2,4,6-9H3
computed SMILES=O=C1CC(C(=C)C)CC(C1C)C(C(=C)CCC=C(C)C)C[Si](C)(C)C
accession=JP012093
date=2016.01.19 (Created 2008.10.21, modified 2011.05.06)
author=HISAHIRO HAGIWARA, INSTITUTE FOR CHEMICAL REACTION SCIENCE TOHOKU UNIV.
license=CC BY-NC-SA
exact mass=360.28484
ionization energy=70 eV
ion type=[M]+*
computed spectral entropy=2.98182409052045
computed normalized entropy=0.8029530697021684
SPLASH=splash10-00di-9210000000-4ffcabdaac3519a69010
submitter=submitter = University of Tokyo Team (Faculty of Engineering, University of Tokyo)
MoNA Rating=3.75

>  <NUM PEAKS>  (76) 
41

>  <MASS SPECTRAL PEAKS>  (76) 
39 2.9
41 11
42 3.8
43 40.9
44 2.2
45 4.9
55 7.5
58 25
59 5.7
67 3.9
69 9.8
73 99.99
74 11.7
75 11.4
77 2.1
79 2.3
81 3.5
91 2.4
93 4.1
94 2
95 2.1
97 4
105 2.3
107 3.3
109 4.5
117 2.6
119 2.8
135 25.1
136 4
141 4.4
151 4.7
181 6.4
195 5.4
196 3.2
209 10.4
210 3.6
221 3.6
223 6.1
224 7
345 3.1
360 2.3

$$$$

     RDKit          2D

 15 15  0  0  0  0  0  0  0  0999 V2000
    3.6574    1.3563    0.0000 C   0  0  0  0  0  0  0  0  0  0  0  0
    5.7059   -2.1931    0.0000 C   0  0  0  0  0  0  0  0  0  0  0  0
    6.2553   -0.1441    0.0000 C   0  0  0  0  0  0  0  0  0  0  0  0
    4.2063    0.4053    0.0000 C   0  0  0  0  0  0  0  0  0  0  0  0
    2.3583    0.6065    0.0000 C   0  0  0  0  0  0  0  0  0  0  0  0
   -0.2361   -3.8863    0.0000 C   0  0  0  0  0  0  0  0  0  0  0  0
    1.0584   -3.1441    0.0000 C   0  0  0  0  0  0  0  0  0  0  0  0
   -1.5352   -3.1363    0.0000 C   0  0  0  0  0  0  0  0  0  0  0  0
   -0.2402   -0.8933    0.0000 C   0  0  0  0  0  0  0  0  0  0  0  0
    3.6570   -1.6437    0.0000 C   0  0  0  0  0  0  0  0  0  0  0  0
    2.3580   -0.8935    0.0000 C   0  0  0  0  0  0  0  0  0  0  0  0
    1.0589   -1.6433    0.0000 C   0  0  0  0  0  0  0  0  0  0  0  0
   -1.5397   -1.6441    0.0000 C   0  0  0  0  0  0  0  0  0  0  0  0
   -2.8400   -0.8963    0.0000 O   0  0  0  0  0  0  0  0  0  0  0  0
    4.9561   -0.8939    0.0000 Si  0  0  0  0  0  4  0  0  0  0  0  0
  5  1  2  0
  7  6  1  0
  8  6  1  0
 11  5  1  0
 11 10  1  0
 12  7  1  0
 12  9  1  0
 12 11  1  0
 13  8  1  0
 13  9  1  0
 14 13  2  0
 15  2  1  0
 15  3  1  0
 15  4  1  0
 15 10  1  0
M  END
>  <NAME>  (77) 
3-(1-TRIMETHYLSILYLMETHYL-2-PROPENYL)CYCLOHEXANONE

>  <SYNONYMS>  (77) 


>  <SPECTRUM TYPE>  (77) 
MS1

>  <INSTRUMENT TYPE>  (77) 
EI-B

>  <INSTRUMENT>  (77) 
JEOL JMS-DX-300

>  <ION MODE>  (77) 
P

>  <INCHIKEY>  (77) 
ZDRGHKSWNMUTAK-UHFFFAOYSA-N

>  <FORMULA>  (77) 
C13H24OSi

>  <EXACT MASS>  (77) 
224.159641918

>  <MW>  (77) 
224

>  <ID>  (77) 
JP012092

>  <CONTRIBUTOR>  (77) 
University of Tokyo Team, {Faculty of Engineering, University of Tokyo

>  <COMMENT>  (77) 
SMILES=C=CC(C[Si](C)(C)C)C(C1)CC(=O)CC1
InChI=InChI=1S/C13H24OSi/c1-5-11(10-15(2,3)4)12-7-6-8-13(14)9-12/h5,11-12H,1,6-10H2,2-4H3
computed SMILES=O=C1CCCC(C1)C(C=C)C[Si](C)(C)C
accession=JP012092
date=2016.01.19 (Created 2008.10.21, modified 2011.05.06)
author=HISAHIRO HAGIWARA, INSTITUTE FOR CHEMICAL REACTION SCIENCE TOHOKU UNIV.
license=CC BY-NC-SA
exact mass=224.15964
ionization energy=70 eV
ion type=[M]+*
computed spectral entropy=2.564601843278529
computed normalized entropy=0.7213363639576151
SPLASH=splash10-006x-9100000000-0ec67d50cdb811320254
submitter=submitter = University of Tokyo Team (Faculty of Engineering, University of Tokyo)
MoNA Rating=3.75

>  <NUM PEAKS>  (77) 
35

>  <MASS SPECTRAL PEAKS>  (77) 
37 2.6
38 3.1
39 6.9
41 8.1
42 10.8
43 99.99
44 4.5
45 6
53 1.6
54 1.5
55 2.9
57 2.1
58 43.6
59 6.7
67 1.3
69 2.4
72 1.1
73 59.3
74 6.2
75 16.9
76 1.4
77 1.6
79 1.7
85 1
91 1.2
97 2.1
115 1.5
127 12.1
128 1.7
142 2
155 4.3
169 4
170 17.3
171 3
209 2.3

$$$$

     RDKit          2D

 20 20  0  0  0  0  0  0  0  0999 V2000
    1.2990    3.7500    0.0000 C   0  0  0  0  0  0  0  0  0  0  0  0
   -1.2990    3.7500    0.0000 C   0  0  0  0  0  0  0  0  0  0  0  0
    2.3264    2.0690    0.0000 C   0  0  0  0  0  0  0  0  0  0  0  0
    4.7677    1.1801    0.0000 C   0  0  0  0  0  0  0  0  0  0  0  0
    1.8127   -2.1596    0.0000 C   0  0  0  0  0  0  0  0  0  0  0  0
    5.4789   -2.8558    0.0000 C   0  0  0  0  0  0  0  0  0  0  0  0
    6.6958   -1.1182    0.0000 C   0  0  0  0  0  0  0  0  0  0  0  0
    4.9582    0.0987    0.0000 C   0  0  0  0  0  0  0  0  0  0  0  0
   -1.3000    0.7500    0.0000 C   0  0  0  0  0  0  0  0  0  0  0  0
    1.3000    0.7500    0.0000 C   0  0  0  0  0  0  0  0  0  0  0  0
    0.0000   -1.5000    0.0000 C   0  0  0  0  0  0  0  0  0  0  0  0
    3.7413   -1.6389    0.0000 C   0  0  0  0  0  0  0  0  0  0  0  0
    0.0000    3.0000    0.0000 C   0  0  0  0  0  0  0  0  0  0  0  0
    3.2904    0.9198    0.0000 C   0  0  0  0  0  0  0  0  0  0  0  0
    0.0000    1.5000    0.0000 C   0  0  0  0  0  0  0  0  0  0  0  0
   -1.3000   -0.7500    0.0000 C   0  0  0  0  0  0  0  0  0  0  0  0
    2.7772   -0.4897    0.0000 C   0  0  0  0  0  0  0  0  0  0  0  0
    1.3000   -0.7500    0.0000 C   0  0  0  0  0  0  0  0  0  0  0  0
   -2.5989   -1.5002    0.0000 O   0  0  0  0  0  0  0  0  0  0  0  0
    5.2185   -1.3785    0.0000 Si  0  0  0  0  0  4  0  0  0  0  0  0
 13  1  2  0
 13  2  1  0
 14  3  2  0
 14  4  1  0
 15  9  1  0
 15 10  1  0
 15 13  1  0
 16  9  1  0
 16 11  1  0
 17 12  1  0
 17 14  1  0
 18  5  1  0
 18 10  1  0
 18 11  1  0
 18 17  1  0
 19 16  2  0
 20  6  1  0
 20  7  1  0
 20  8  1  0
 20 12  1  0
M  END
>  <NAME>  (78) 
3-ISOPROPENYL-5-(2-METHYL-1-TRIMETHYLSILYLMETHYL-2-PROPENYL)-5-METHYLCYCLOHEXANONE

>  <SYNONYMS>  (78) 


>  <SPECTRUM TYPE>  (78) 
MS1

>  <INSTRUMENT TYPE>  (78) 
EI-B

>  <INSTRUMENT>  (78) 
JEOL JMS-DX-300

>  <ION MODE>  (78) 
P

>  <INCHIKEY>  (78) 
AQWFFLWTSWZNHW-UHFFFAOYSA-N

>  <FORMULA>  (78) 
C18H32OSi

>  <EXACT MASS>  (78) 
292.222242174

>  <MW>  (78) 
292

>  <ID>  (78) 
JP012091

>  <CONTRIBUTOR>  (78) 
University of Tokyo Team, {Faculty of Engineering, University of Tokyo

>  <COMMENT>  (78) 
SMILES=CC(=C)C(C1)CC(C)(CC(=O)1)C(C(C)=C)C[Si](C)(C)C
InChI=InChI=1S/C18H32OSi/c1-13(2)15-9-16(19)11-18(5,10-15)17(14(3)4)12-20(6,7)8/h15,17H,1,3,9-12H2,2,4-8H3
computed SMILES=O=C1CC(C(=C)C)CC(C)(C1)C(C(=C)C)C[Si](C)(C)C
accession=JP012091
date=2016.01.19 (Created 2008.10.21, modified 2011.05.06)
author=HISAHIRO HAGIWARA, INSTITUTE FOR CHEMICAL REACTION SCIENCE TOHOKU UNIV.
license=CC BY-NC-SA
exact mass=292.22224
ionization energy=70 eV
ion type=[M]+*
computed spectral entropy=2.740783329113417
computed normalized entropy=0.7429853328649226
SPLASH=splash10-00di-9310000000-c6589bed9a848d37647e
submitter=submitter = University of Tokyo Team (Faculty of Engineering, University of Tokyo)
MoNA Rating=3.75

>  <NUM PEAKS>  (78) 
40

>  <MASS SPECTRAL PEAKS>  (78) 
41 3.7
43 3
45 5.7
53 1.8
55 5.7
59 4.8
67 3.5
68 2.6
73 99.99
74 9.2
75 12
77 1.9
79 2.1
81 2.7
91 2
93 2.2
94 3.2
95 1.7
97 3.8
105 2
107 1.8
109 2.2
111 1.8
117 2.9
119 2.4
131 1.8
134 2.2
141 21.1
142 4
143 1.8
181 8.6
182 2.3
195 6.1
196 2
209 7.3
223 2
224 15.3
225 3.2
277 1.8
292 0.6

$$$$

     RDKit          2D

 17 16  0  0  0  0  0  0  0  0999 V2000
    3.8971    6.0000    0.0000 C   0  0  0  0  0  0  0  0  0  0  0  0
  -10.3923    6.7500    0.0000 C   0  0  0  0  0  0  0  0  0  0  0  0
   -3.4460    3.4414    0.0000 C   0  0  0  0  0  0  0  0  0  0  0  0
   -4.8613    4.8509    0.0000 C   0  0  0  0  0  0  0  0  0  0  0  0
    2.5981    6.7500    0.0000 C   0  0  0  0  0  0  0  0  0  0  0  0
   -9.0933    6.0000    0.0000 C   0  0  0  0  0  0  0  0  0  0  0  0
   -2.9329    4.8509    0.0000 C   0  0  0  0  0  0  0  0  0  0  0  0
    1.2990    6.0000    0.0000 C   0  0  0  0  0  0  0  0  0  0  0  0
   -7.7942    6.7500    0.0000 C   0  0  0  0  0  0  0  0  0  0  0  0
    0.0000    6.7500    0.0000 C   0  0  0  0  0  0  0  0  0  0  0  0
   -6.4952    6.0000    0.0000 C   0  0  0  0  0  0  0  0  0  0  0  0
   -2.5981    6.7500    0.0000 C   0  0  0  0  0  0  0  0  0  0  0  0
   -1.2990    6.0000    0.0000 C   0  0  0  0  0  0  0  0  0  0  0  0
   -5.1962    6.7500    0.0000 C   0  0  0  0  0  0  0  0  0  0  0  0
   -3.8971    6.0000    0.0000 C   0  0  0  0  0  0  0  0  0  0  0  0
   -1.2990    4.5000    0.0000 O   0  0  0  0  0  0  0  0  0  0  0  0
   -5.1962    8.2500    0.0000 O   0  0  0  0  0  0  0  0  0  0  0  0
  5  1  1  0
  6  2  1  0
  7  3  2  0
  8  5  1  0
  9  6  1  0
 10  8  1  0
 11  9  1  0
 13 10  1  0
 13 12  1  0
 14 11  1  0
 15  4  1  0
 15  7  1  0
 15 12  1  0
 15 14  1  0
 16 13  2  0
 17 14  2  0
M  END
>  <NAME>  (79) 
6-METHYL-6-VINYLDODECANE-5,8-DIONE

>  <SYNONYMS>  (79) 


>  <SPECTRUM TYPE>  (79) 
MS1

>  <INSTRUMENT TYPE>  (79) 
EI-B

>  <INSTRUMENT>  (79) 
JEOL JMS-DX-300

>  <ION MODE>  (79) 
P

>  <INCHIKEY>  (79) 
REOULBHPBOSYMQ-UHFFFAOYSA-N

>  <FORMULA>  (79) 
C15H26O2

>  <EXACT MASS>  (79) 
238.193280072

>  <MW>  (79) 
238

>  <ID>  (79) 
JP012090

>  <CONTRIBUTOR>  (79) 
University of Tokyo Team, {Faculty of Engineering, University of Tokyo

>  <COMMENT>  (79) 
SMILES=CCCCC(=O)CC(C)(C=C)C(=O)CCCC
InChI=InChI=1S/C15H26O2/c1-5-8-10-13(16)12-15(4,7-3)14(17)11-9-6-2/h7H,3,5-6,8-12H2,1-2,4H3
computed SMILES=O=C(CCCC)CC(C=C)(C(=O)CCCC)C
accession=JP012090
date=2016.01.19 (Created 2008.10.21, modified 2011.05.06)
license=CC BY-NC-SA
author=HISAHIRO HAGIWARA, INSTITUTE FOR CHEMICAL REACTION SCIENCE TOHOKU UNIV.
exact mass=238.19328
ionization energy=70 eV
ion type=[M]+*
computed spectral entropy=1.8316061416253515
computed normalized entropy=0.6114051505184818
SPLASH=splash10-052r-9100000000-9c4df35e6c188e35a7a5
submitter=submitter = University of Tokyo Team (Faculty of Engineering, University of Tokyo)
MoNA Rating=3.75

>  <NUM PEAKS>  (79) 
20

>  <MASS SPECTRAL PEAKS>  (79) 
39 1.9
41 13.1
42 1
43 1.9
53 1.4
55 2.5
57 61.5
58 3.1
67 1.9
68 1.9
85 99.99
86 6.6
94 1.5
97 2.1
138 12.5
139 2.1
153 8.7
154 1.7
181 1.3
238 3.7

$$$$

     RDKit          2D

 21 20  0  0  0  0  0  0  0  0999 V2000
  -11.6913    6.7500    0.0000 C   0  0  0  0  0  0  0  0  0  0  0  0
    3.8971    6.7500    0.0000 C   0  0  0  0  0  0  0  0  0  0  0  0
   -3.8971    8.2500    0.0000 C   0  0  0  0  0  0  0  0  0  0  0  0
   -2.0490    2.4510    0.0000 C   0  0  0  0  0  0  0  0  0  0  0  0
    0.0000    3.0000    0.0000 C   0  0  0  0  0  0  0  0  0  0  0  0
   -0.5490    5.0490    0.0000 C   0  0  0  0  0  0  0  0  0  0  0  0
  -10.3923    6.0000    0.0000 C   0  0  0  0  0  0  0  0  0  0  0  0
    2.5981    6.0000    0.0000 C   0  0  0  0  0  0  0  0  0  0  0  0
   -9.0933    6.7500    0.0000 C   0  0  0  0  0  0  0  0  0  0  0  0
    1.2990    6.7500    0.0000 C   0  0  0  0  0  0  0  0  0  0  0  0
   -7.7942    6.0000    0.0000 C   0  0  0  0  0  0  0  0  0  0  0  0
    0.0000    6.0000    0.0000 C   0  0  0  0  0  0  0  0  0  0  0  0
   -5.1962    6.0000    0.0000 C   0  0  0  0  0  0  0  0  0  0  0  0
   -2.5981    4.5000    0.0000 C   0  0  0  0  0  0  0  0  0  0  0  0
   -3.8971    6.7500    0.0000 C   0  0  0  0  0  0  0  0  0  0  0  0
   -6.4952    6.7500    0.0000 C   0  0  0  0  0  0  0  0  0  0  0  0
   -2.5981    6.0000    0.0000 C   0  0  0  0  0  0  0  0  0  0  0  0
   -1.2990    6.7500    0.0000 C   0  0  0  0  0  0  0  0  0  0  0  0
   -6.4952    8.2500    0.0000 O   0  0  0  0  0  0  0  0  0  0  0  0
   -1.2990    8.2500    0.0000 O   0  0  0  0  0  0  0  0  0  0  0  0
   -1.2990    3.7500    0.0000 Si  0  0  0  0  0  4  0  0  0  0  0  0
  7  1  1  0
  8  2  1  0
  9  7  1  0
 10  8  1  0
 11  9  1  0
 12 10  1  0
 15  3  2  0
 15 13  1  0
 16 11  1  0
 16 13  1  0
 17 14  1  0
 17 15  1  0
 18 12  1  0
 18 17  1  0
 19 16  2  0
 20 18  2  0
 21  4  1  0
 21  5  1  0
 21  6  1  0
 21 14  1  0
M  END
>  <NAME>  (80) 
7-METHYLENE-8-(TRIMETHYLSILYLMETHYL)-TRIDECANE-5,9-DIONE

>  <SYNONYMS>  (80) 


>  <SPECTRUM TYPE>  (80) 
MS1

>  <INSTRUMENT TYPE>  (80) 
EI-B

>  <INSTRUMENT>  (80) 
JEOL JMS-DX-300

>  <ION MODE>  (80) 
P

>  <INCHIKEY>  (80) 
YEXWVMSNWQPQHO-UHFFFAOYSA-N

>  <FORMULA>  (80) 
C18H34O2Si

>  <EXACT MASS>  (80) 
310.232806858

>  <MW>  (80) 
310

>  <ID>  (80) 
JP012089

>  <CONTRIBUTOR>  (80) 
University of Tokyo Team, {Faculty of Engineering, University of Tokyo

>  <COMMENT>  (80) 
SMILES=CCCCC(=O)CC(=C)C(C(=O)CCCC)C[Si](C)(C)C
InChI=InChI=1S/C18H34O2Si/c1-7-9-11-16(19)13-15(3)17(14-21(4,5)6)18(20)12-10-8-2/h17H,3,7-14H2,1-2,4-6H3
computed SMILES=O=C(CC(=C)C(C(=O)CCCC)C[Si](C)(C)C)CCCC
accession=JP012089
date=2016.01.19 (Created 2008.10.21, modified 2011.05.06)
author=HISAHIRO HAGIWARA, INSTITUTE FOR CHEMICAL REACTION SCIENCE TOHOKU UNIV.
license=CC BY-NC-SA
exact mass=310.23281
ionization energy=70 eV
ion type=[M]+*
computed spectral entropy=2.9393779786496093
computed normalized entropy=0.8267483036297265
SPLASH=splash10-00fr-9160000000-56818c8b6e5bbcd1567c
submitter=submitter = University of Tokyo Team (Faculty of Engineering, University of Tokyo)
MoNA Rating=3.75

>  <NUM PEAKS>  (80) 
35

>  <MASS SPECTRAL PEAKS>  (80) 
41 10.4
45 8.4
57 40.1
59 3.5
73 99.99
74 9.4
75 18.9
79 5.2
85 42.2
86 2.6
93 11.7
103 2.2
130 2.4
135 7
163 9.5
169 9.3
177 2.5
178 6.3
181 3
197 6.5
209 2
210 3.2
211 21.2
212 4.3
220 5.5
225 51.2
226 13.6
227 3.5
253 38.8
254 7.8
255 2.6
281 4.4
295 13.8
296 3.5
310 6.4

$$$$

     RDKit          2D

 14 13  0  0  0  0  0  0  0  0999 V2000
   -0.4755    1.9755    0.0000 C   0  0  0  0  0  0  0  0  0  0  0  0
   -8.2697    4.9755    0.0000 C   0  0  0  0  0  0  0  0  0  0  0  0
    0.0736    2.9264    0.0000 C   0  0  0  0  0  0  0  0  0  0  0  0
    2.1226    3.4755    0.0000 C   0  0  0  0  0  0  0  0  0  0  0  0
    1.5736    5.5245    0.0000 C   0  0  0  0  0  0  0  0  0  0  0  0
   -1.7745    2.7255    0.0000 C   0  0  0  0  0  0  0  0  0  0  0  0
   -6.9707    4.2255    0.0000 C   0  0  0  0  0  0  0  0  0  0  0  0
   -3.0736    4.9755    0.0000 C   0  0  0  0  0  0  0  0  0  0  0  0
   -4.3726    4.2255    0.0000 C   0  0  0  0  0  0  0  0  0  0  0  0
   -0.4755    4.9755    0.0000 C   0  0  0  0  0  0  0  0  0  0  0  0
   -1.7745    4.2255    0.0000 C   0  0  0  0  0  0  0  0  0  0  0  0
   -5.6716    4.9755    0.0000 C   0  0  0  0  0  0  0  0  0  0  0  0
   -5.6716    6.4755    0.0000 O   0  0  0  0  0  0  0  0  0  0  0  0
    0.8236    4.2255    0.0000 Si  0  0  0  0  0  4  0  0  0  0  0  0
  6  1  2  0
  7  2  1  0
  9  8  1  0
 11  6  1  0
 11  8  1  0
 11 10  1  0
 12  7  1  0
 12  9  1  0
 13 12  2  0
 14  3  1  0
 14  4  1  0
 14  5  1  0
 14 10  1  0
M  END
>  <NAME>  (81) 
7-TRIMETHYLSILYL-6-VINYLHEPTAN-3-ONE

>  <SYNONYMS>  (81) 


>  <SPECTRUM TYPE>  (81) 
MS1

>  <INSTRUMENT TYPE>  (81) 
EI-B

>  <INSTRUMENT>  (81) 
JEOL JMS-DX-300

>  <ION MODE>  (81) 
P

>  <INCHIKEY>  (81) 
MSJGHQLNYLHARC-UHFFFAOYSA-N

>  <FORMULA>  (81) 
C12H24OSi

>  <EXACT MASS>  (81) 
212.15964191799998

>  <MW>  (81) 
212

>  <ID>  (81) 
JP012088

>  <CONTRIBUTOR>  (81) 
University of Tokyo Team, {Faculty of Engineering, University of Tokyo

>  <COMMENT>  (81) 
SMILES=CCC(=O)CCC(C=C)C[Si](C)(C)C
InChI=InChI=1S/C12H24OSi/c1-6-11(10-14(3,4)5)8-9-12(13)7-2/h6,11H,1,7-10H2,2-5H3
computed SMILES=O=C(CC)CCC(C=C)C[Si](C)(C)C
accession=JP012088
date=2016.01.19 (Created 2008.10.21, modified 2011.05.06)
author=HISAHIRO HAGIWARA, INSTITUTE FOR CHEMICAL REACTION SCIENCE TOHOKU UNIV.
license=CC BY-NC-SA
exact mass=212.15964
ionization energy=70 eV
ion type=[M]+*
computed spectral entropy=3.0630655866536096
computed normalized entropy=0.8303512285384109
SPLASH=splash10-00di-9400000000-5f1b0b36c235b8f884bf
submitter=submitter = University of Tokyo Team (Faculty of Engineering, University of Tokyo)
MoNA Rating=3.75

>  <NUM PEAKS>  (81) 
40

>  <MASS SPECTRAL PEAKS>  (81) 
41 3
43 4.1
45 7.5
55 3.1
57 23.6
58 2.2
59 4.7
67 2
68 3.2
69 4.7
73 99.99
74 8.4
75 19.8
77 5.6
79 2.9
81 4.7
85 3
91 5.9
93 3.4
95 3
96 3
98 2.1
99 5.1
107 6.6
109 6.2
111 4
112 7.6
113 5.3
121 6.1
127 7.3
129 3.6
131 6.8
141 5.4
144 5.4
147 7.1
149 8.1
155 6.9
157 10.2
169 11.7
183 6.2

$$$$

     RDKit          2D

 20 19  0  0  0  0  0  0  0  0999 V2000
  -10.3923    6.7500    0.0000 C   0  0  0  0  0  0  0  0  0  0  0  0
    3.8971    6.0000    0.0000 C   0  0  0  0  0  0  0  0  0  0  0  0
    2.5981    8.2500    0.0000 C   0  0  0  0  0  0  0  0  0  0  0  0
   -2.5981    8.2500    0.0000 C   0  0  0  0  0  0  0  0  0  0  0  0
   -5.9462    5.0490    0.0000 C   0  0  0  0  0  0  0  0  0  0  0  0
   -6.4952    3.0000    0.0000 C   0  0  0  0  0  0  0  0  0  0  0  0
   -4.4462    2.4510    0.0000 C   0  0  0  0  0  0  0  0  0  0  0  0
   -9.0933    6.0000    0.0000 C   0  0  0  0  0  0  0  0  0  0  0  0
    0.0000    6.7500    0.0000 C   0  0  0  0  0  0  0  0  0  0  0  0
    1.2990    6.0000    0.0000 C   0  0  0  0  0  0  0  0  0  0  0  0
   -1.2990    6.0000    0.0000 C   0  0  0  0  0  0  0  0  0  0  0  0
   -5.1962    6.7500    0.0000 C   0  0  0  0  0  0  0  0  0  0  0  0
   -6.4952    6.0000    0.0000 C   0  0  0  0  0  0  0  0  0  0  0  0
   -3.8971    4.5000    0.0000 C   0  0  0  0  0  0  0  0  0  0  0  0
    2.5981    6.7500    0.0000 C   0  0  0  0  0  0  0  0  0  0  0  0
   -2.5981    6.7500    0.0000 C   0  0  0  0  0  0  0  0  0  0  0  0
   -3.8971    6.0000    0.0000 C   0  0  0  0  0  0  0  0  0  0  0  0
   -7.7942    6.7500    0.0000 C   0  0  0  0  0  0  0  0  0  0  0  0
   -7.7942    8.2500    0.0000 O   0  0  0  0  0  0  0  0  0  0  0  0
   -5.1962    3.7500    0.0000 Si  0  0  0  0  0  4  0  0  0  0  0  0
  8  1  1  0
 10  9  1  0
 11  9  1  0
 13 12  1  0
 15  2  1  0
 15  3  1  0
 15 10  2  0
 16  4  2  0
 16 11  1  0
 17 12  1  0
 17 14  1  0
 17 16  1  0
 18  8  1  0
 18 13  1  0
 19 18  2  0
 20  5  1  0
 20  6  1  0
 20  7  1  0
 20 14  1  0
M  END
>  <NAME>  (82) 
11-METHYL-7-METHYLENE-6-TRIMETHYLSILYLMETHYL-10-DODECEN-3-ONE

>  <SYNONYMS>  (82) 


>  <SPECTRUM TYPE>  (82) 
MS1

>  <INSTRUMENT TYPE>  (82) 
EI-B

>  <INSTRUMENT>  (82) 
JEOL JMS-DX-300

>  <ION MODE>  (82) 
P

>  <INCHIKEY>  (82) 
MJRLSIJCVDIDRU-UHFFFAOYSA-N

>  <FORMULA>  (82) 
C18H34OSi

>  <EXACT MASS>  (82) 
294.237892238

>  <MW>  (82) 
294

>  <ID>  (82) 
JP012087

>  <CONTRIBUTOR>  (82) 
University of Tokyo Team, {Faculty of Engineering, University of Tokyo

>  <COMMENT>  (82) 
SMILES=CCC(=O)CCC(C(=C)CCC=C(C)C)C[Si](C)(C)C
InChI=InChI=1S/C18H34OSi/c1-8-18(19)13-12-17(14-20(5,6)7)16(4)11-9-10-15(2)3/h10,17H,4,8-9,11-14H2,1-3,5-7H3
computed SMILES=O=C(CC)CCC(C(=C)CCC=C(C)C)C[Si](C)(C)C
accession=JP012087
date=2016.01.19 (Created 2008.10.21, modified 2011.05.06)
author=HISAHIRO HAGIWARA, INSTITUTE FOR CHEMICAL REACTION SCIENCE TOHOKU UNIV.
license=CC BY-NC-SA
exact mass=294.23789
ionization energy=70 eV
ion type=[M]+*
computed spectral entropy=3.2075202781440537
computed normalized entropy=0.8117748502984309
SPLASH=splash10-00di-9600000000-5fd83327143799ca5383
submitter=submitter = University of Tokyo Team (Faculty of Engineering, University of Tokyo)
MoNA Rating=3.75

>  <NUM PEAKS>  (82) 
52

>  <MASS SPECTRAL PEAKS>  (82) 
41 18.7
45 7.2
53 1.7
59 5.3
61 1.9
67 3.8
69 29.2
73 99.99
74 9.9
75 34.2
76 2.5
77 1.8
79 3.9
81 3.1
91 2.3
93 9.3
94 2.1
95 10.4
107 19.9
108 3.3
109 3
117 1.5
121 4.2
122 2.4
129 10.7
130 1.9
131 1.9
135 15.6
136 1.5
143 4.5
144 25.4
145 5.5
148 2.3
150 7.5
154 3.2
155 1.8
161 3.1
175 7.1
176 1.5
179 9.9
180 1.9
183 7.6
185 24.2
186 3.3
197 2.1
204 1.9
207 1.7
209 2.4
222 3.5
265 3.9
279 1.7
294 1.9

$$$$

     RDKit          2D

 21 21  0  0  0  0  0  0  0  0999 V2000
   -4.5455   -3.3737    0.0000 C   0  0  0  0  0  0  0  0  0  0  0  0
   -3.2461   -1.1239    0.0000 C   0  0  0  0  0  0  0  0  0  0  0  0
    1.9500   -1.1247    0.0000 C   0  0  0  0  0  0  0  0  0  0  0  0
    3.7972   -6.9241    0.0000 C   0  0  0  0  0  0  0  0  0  0  0  0
    5.8463   -6.3754    0.0000 C   0  0  0  0  0  0  0  0  0  0  0  0
    5.2976   -4.3262    0.0000 C   0  0  0  0  0  0  0  0  0  0  0  0
   -0.6483   -2.6243    0.0000 C   0  0  0  0  0  0  0  0  0  0  0  0
    5.8429   -0.3821    0.0000 C   0  0  0  0  0  0  0  0  0  0  0  0
   -1.9474   -3.3741    0.0000 C   0  0  0  0  0  0  0  0  0  0  0  0
    0.6506   -3.3745    0.0000 C   0  0  0  0  0  0  0  0  0  0  0  0
    4.5484   -1.1243    0.0000 C   0  0  0  0  0  0  0  0  0  0  0  0
    7.1419   -1.1321    0.0000 C   0  0  0  0  0  0  0  0  0  0  0  0
    5.8469   -3.3751    0.0000 C   0  0  0  0  0  0  0  0  0  0  0  0
    3.2485   -4.8749    0.0000 C   0  0  0  0  0  0  0  0  0  0  0  0
   -3.2464   -2.6239    0.0000 C   0  0  0  0  0  0  0  0  0  0  0  0
    1.9498   -2.6247    0.0000 C   0  0  0  0  0  0  0  0  0  0  0  0
    4.5479   -2.6251    0.0000 C   0  0  0  0  0  0  0  0  0  0  0  0
    7.1464   -2.6243    0.0000 C   0  0  0  0  0  0  0  0  0  0  0  0
    3.2487   -3.3749    0.0000 C   0  0  0  0  0  0  0  0  0  0  0  0
    8.4467   -3.3721    0.0000 O   0  0  0  0  0  0  0  0  0  0  0  0
    4.5474   -5.6251    0.0000 Si  0  0  0  0  0  4  0  0  0  0  0  0
  9  7  1  0
 10  7  1  0
 11  8  1  0
 12  8  1  0
 15  1  1  0
 15  2  1  0
 15  9  2  0
 16  3  2  0
 16 10  1  0
 17 11  1  0
 17 13  1  0
 18 12  1  0
 18 13  1  0
 19 14  1  0
 19 16  1  0
 19 17  1  0
 20 18  2  0
 21  4  1  0
 21  5  1  0
 21  6  1  0
 21 14  1  0
M  END
>  <NAME>  (83) 
7-(3-KETOCYCLOHEXYL)-2-METHYL-6-METHYLENE-8-TRIMETHYLSILYL-2-OCTENE

>  <SYNONYMS>  (83) 


>  <SPECTRUM TYPE>  (83) 
MS1

>  <INSTRUMENT TYPE>  (83) 
EI-B

>  <INSTRUMENT>  (83) 
JEOL JMS-DX-300

>  <ION MODE>  (83) 
P

>  <INCHIKEY>  (83) 
AONPXOGOSNOJNR-UHFFFAOYSA-N

>  <FORMULA>  (83) 
C19H34OSi

>  <EXACT MASS>  (83) 
306.237892238

>  <MW>  (83) 
306

>  <ID>  (83) 
JP012086

>  <CONTRIBUTOR>  (83) 
University of Tokyo Team, {Faculty of Engineering, University of Tokyo

>  <COMMENT>  (83) 
SMILES=CC(C)=CCCC(=C)C(C[Si](C)(C)C)C(C1)CC(=O)CC1
InChI=InChI=1S/C19H34OSi/c1-15(2)9-7-10-16(3)19(14-21(4,5)6)17-11-8-12-18(20)13-17/h9,17,19H,3,7-8,10-14H2,1-2,4-6H3
computed SMILES=O=C1CCCC(C1)C(C(=C)CCC=C(C)C)C[Si](C)(C)C
accession=JP012086
date=2016.01.19 (Created 2008.10.21, modified 2011.05.06)
author=HISAHIRO HAGIWARA, INSTITUTE FOR CHEMICAL REACTION SCIENCE TOHOKU UNIV.
license=CC BY-NC-SA
exact mass=306.23789
ionization energy=70 eV
ion type=[M]+*
computed spectral entropy=2.486322948072213
computed normalized entropy=0.7543828924659365
SPLASH=splash10-00di-9300000000-6bd891bcdadcbd91cc3e
submitter=submitter = University of Tokyo Team (Faculty of Engineering, University of Tokyo)
MoNA Rating=3.75

>  <NUM PEAKS>  (83) 
27

>  <MASS SPECTRAL PEAKS>  (83) 
41 13.5
45 5.2
55 2
59 4.5
69 11.7
73 99.99
74 10.2
75 13.7
93 2
97 5.4
133 2.1
135 19.2
136 2.6
141 2.1
142 2.2
155 3.8
169 11.3
170 10.2
181 3
195 3.6
197 4.9
209 6.5
210 2.1
224 2.1
263 4.5
291 3.1
306 2.5

$$$$

     RDKit          2D

 17 18  0  0  1  0  0  0  0  0999 V2000
    3.1487   -2.7991    0.0000 C   0  0  0  0  0  0  0  0  0  0  0  0
    5.1978   -2.2504    0.0000 C   0  0  0  0  0  0  0  0  0  0  0  0
    0.0000    2.2500    0.0000 C   0  0  0  0  0  0  0  0  0  0  0  0
   -2.2641   -2.6492    0.0000 C   0  0  0  0  0  0  0  0  0  0  0  0
   -2.6000    0.7500    0.0000 C   0  0  0  0  0  0  0  0  0  0  0  0
    2.6000    0.7500    0.0000 C   0  0  0  0  0  0  0  0  0  0  0  0
   -1.3000    1.5000    0.0000 C   0  0  0  0  0  0  0  0  0  0  0  0
   -2.6000   -0.7500    0.0000 C   0  0  0  0  0  0  0  0  0  0  0  0
    1.3000    1.5000    0.0000 C   0  0  0  0  0  0  0  0  0  0  0  0
    1.3000   -1.5000    0.0000 C   0  0  0  0  0  0  0  0  0  0  0  0
    2.6000   -0.7500    0.0000 C   0  0  0  0  0  0  0  0  0  0  0  0
    0.0000   -0.7500    0.0000 C   0  0  0  0  0  0  0  0  0  0  0  0
    3.8989   -1.5002    0.0000 C   0  0  0  0  0  0  0  0  0  0  0  0
    0.0000    0.7500    0.0000 C   0  0  0  0  0  0  0  0  0  0  0  0
   -1.3000   -1.5000    0.0000 C   0  0  0  0  0  0  0  0  0  0  0  0
    4.6491   -0.2013    0.0000 O   0  0  0  0  0  0  0  0  0  0  0  0
   -0.3359   -2.6492    0.0000 O   0  0  0  0  0  0  0  0  0  0  0  0
  7  5  1  0
  8  5  1  0
  9  6  1  0
 11  6  1  0
 11 10  1  0
 12 10  1  6
 13  1  1  0
 13  2  1  0
 11 13  1  1
 14  3  1  1
 14  7  1  0
 14  9  1  0
 14 12  1  0
 15  4  1  6
 15  8  1  0
 15 12  1  0
 16 13  1  0
 15 17  1  0
M  END
>  <NAME>  (84) 
1BETA-HYDROXY-1ALPHA,(4A)BETA-DIMETHYL-7BETA-(1-METHYL-1-HYDROXYETHYL)-(8A)BETA-DECAHYDRONPHTHALENE

>  <SYNONYMS>  (84) 


>  <SPECTRUM TYPE>  (84) 
MS1

>  <INSTRUMENT TYPE>  (84) 
EI-B

>  <INSTRUMENT>  (84) 
JEOL JMS-DX-300

>  <ION MODE>  (84) 
P

>  <INCHIKEY>  (84) 
LKKDASYGWYYFIK-OSRDXIQISA-N

>  <FORMULA>  (84) 
C15H28O2

>  <EXACT MASS>  (84) 
240.208930136

>  <MW>  (84) 
240

>  <ID>  (84) 
JP012085

>  <CONTRIBUTOR>  (84) 
University of Tokyo Team, {Faculty of Engineering, University of Tokyo

>  <COMMENT>  (84) 
SMILES=CC(C)(O)C([H])(C1)CC([H])(C(C)(O)2)C(C)(CCC2)C1
InChI=InChI=1S/C15H28O2/c1-13(2,16)11-6-9-14(3)7-5-8-15(4,17)12(14)10-11/h11-12,16-17H,5-10H2,1-4H3/t11-,12+,14-,15+/m1/s1
computed SMILES=OC(C)(C)C1CCC2(C)CCCC(O)(C)C2C1
accession=JP012085
date=2016.01.19 (Created 2008.10.21, modified 2011.05.06)
author=HISAHIRO HAGIWARA, INSTITUTE FOR CHEMICAL REACTION SCIENCE TOHOKU UNIV.
license=CC BY-NC-SA
exact mass=240.20893
ionization energy=70 eV
ion type=[M]+*
computed spectral entropy=3.6147852272908025
computed normalized entropy=0.928816068163703
SPLASH=splash10-0a4i-8910000000-0e214f68cfbb2c21da94
submitter=submitter = University of Tokyo Team (Faculty of Engineering, University of Tokyo)
MoNA Rating=3.75

>  <NUM PEAKS>  (84) 
49

>  <MASS SPECTRAL PEAKS>  (84) 
41 19.2
43 48.1
53 6.2
55 19.4
58 12.9
59 57.6
67 17.5
68 6.2
69 15
71 35.8
77 6.6
79 11.3
81 39.1
82 13.9
83 9.1
85 13.1
91 8.6
93 20.8
94 7.6
95 26.2
96 20.1
97 15.9
105 12
107 15.7
108 23.4
109 99.99
110 15.2
111 6.9
121 19.5
122 11.7
123 18.4
125 6.2
133 9.2
134 7
135 28.8
136 7.4
137 24.1
147 9.7
149 49.1
150 7
161 23.2
163 6.6
164 44.8
165 8.2
189 22.6
204 42.6
205 9.4
207 8.9
222 10.7

$$$$

     RDKit          2D

 19 20  0  0  1  0  0  0  0  0999 V2000
   -3.8987   -3.0002    0.0000 C   0  0  0  0  0  0  0  0  0  0  0  0
    1.3000   -3.0000    0.0000 C   0  0  0  0  0  0  0  0  0  0  0  0
    0.0000    2.2500    0.0000 C   0  0  0  0  0  0  0  0  0  0  0  0
   -7.7962   -0.7508    0.0000 C   0  0  0  0  0  0  0  0  0  0  0  0
   -2.6000    0.7500    0.0000 C   0  0  0  0  0  0  0  0  0  0  0  0
    2.6000    0.7500    0.0000 C   0  0  0  0  0  0  0  0  0  0  0  0
   -1.3000    1.5000    0.0000 C   0  0  0  0  0  0  0  0  0  0  0  0
    1.3000    1.5000    0.0000 C   0  0  0  0  0  0  0  0  0  0  0  0
   -1.3000   -1.5000    0.0000 C   0  0  0  0  0  0  0  0  0  0  0  0
   -3.8989   -1.5002    0.0000 C   0  0  0  0  0  0  0  0  0  0  0  0
    1.3000   -1.5000    0.0000 C   0  0  0  0  0  0  0  0  0  0  0  0
   -2.6000   -0.7500    0.0000 C   0  0  0  0  0  0  0  0  0  0  0  0
    0.0000   -0.7500    0.0000 C   0  0  0  0  0  0  0  0  0  0  0  0
    2.6000   -0.7500    0.0000 C   0  0  0  0  0  0  0  0  0  0  0  0
   -5.1981   -0.7504    0.0000 C   0  0  0  0  0  0  0  0  0  0  0  0
    0.0000    0.7500    0.0000 C   0  0  0  0  0  0  0  0  0  0  0  0
    3.8989   -1.5002    0.0000 O   0  0  0  0  0  0  0  0  0  0  0  0
   -5.1983    0.7496    0.0000 O   0  0  0  0  0  0  0  0  0  0  0  0
   -6.4970   -1.5006    0.0000 O   0  0  0  0  0  0  0  0  0  0  0  0
  7  5  1  0
  8  6  1  0
 10  1  1  0
 11  2  1  6
 12  5  1  0
 12  9  1  0
 12 10  1  0
 13  9  1  1
 13 11  1  0
 14  6  1  0
 14 11  1  0
 15 10  1  0
 16  3  1  6
 16  7  1  0
 16  8  1  0
 16 13  1  0
 17 14  2  0
 18 15  2  0
 19  4  1  0
 19 15  1  0
M  END
>  <NAME>  (85) 
1BETA,(4A)BETA-DIMETHYL-7-(1-CARBOMETHOXY-1-METHYL)-(8A)BETA-OCTAHYDRONAPHTHALEN-2(3H)-ONE

>  <SYNONYMS>  (85) 


>  <SPECTRUM TYPE>  (85) 
MS1

>  <INSTRUMENT TYPE>  (85) 
EI-B

>  <INSTRUMENT>  (85) 
JEOL JMS-DX-300

>  <ION MODE>  (85) 
P

>  <INCHIKEY>  (85) 
KBKKFVFNAGCAQX-DPSUSNHFSA-N

>  <FORMULA>  (85) 
C16H26O3

>  <EXACT MASS>  (85) 
266.18819469199997

>  <MW>  (85) 
266

>  <ID>  (85) 
JP012084

>  <CONTRIBUTOR>  (85) 
University of Tokyo Team, {Faculty of Engineering, University of Tokyo

>  <COMMENT>  (85) 
SMILES=COC(=O)C(C)C(C1)CC([H])(C([H])(C)2)C(C)(CCC(=O)2)C1
InChI=InChI=1S/C16H26O3/c1-10(15(18)19-4)12-5-7-16(3)8-6-14(17)11(2)13(16)9-12/h10-13H,5-9H2,1-4H3/t10?,11-,12?,13-,16+/m1/s1
computed SMILES=O=C(OC)C(C)C1CCC2(C)CCC(=O)C(C)C2C1
accession=JP012084
date=2016.01.19 (Created 2008.10.21, modified 2011.05.06)
author=HISAHIRO HAGIWARA, INSTITUTE FOR CHEMICAL REACTION SCIENCE TOHOKU UNIV.
license=CC BY-NC-SA
exact mass=266.18819
ionization energy=70 eV
ion type=[M]+*
computed spectral entropy=3.5189436919837633
computed normalized entropy=0.9414806688023803
SPLASH=splash10-032i-5940000000-002a2097d8ed3057d50e
submitter=submitter = University of Tokyo Team (Faculty of Engineering, University of Tokyo)
MoNA Rating=3.75

>  <NUM PEAKS>  (85) 
42

>  <MASS SPECTRAL PEAKS>  (85) 
41 20.5
55 26.6
57 10.6
67 20.1
69 9.9
79 15.8
81 24
88 71.8
91 12.5
93 23.6
95 27.5
97 14
105 17.4
106 9.6
107 43.4
109 16.2
119 13.2
121 30.9
122 16.4
123 46.3
124 16.1
134 15.7
135 17.2
138 11.5
151 10.9
160 9.1
161 58.9
162 9.8
163 19.5
177 20
178 28.7
179 44.8
182 11.2
189 13.8
206 10.6
207 16.3
234 11.2
235 13.1
248 25.3
251 35.3
266 99.99
267 21.8

$$$$

     RDKit          2D

 17 18  0  0  1  0  0  0  0  0999 V2000
   -3.8987   -3.0002    0.0000 C   0  0  0  0  0  0  0  0  0  0  0  0
    1.3000   -3.0000    0.0000 C   0  0  0  0  0  0  0  0  0  0  0  0
    0.0000    2.2500    0.0000 C   0  0  0  0  0  0  0  0  0  0  0  0
   -2.6000    0.7500    0.0000 C   0  0  0  0  0  0  0  0  0  0  0  0
    2.6000    0.7500    0.0000 C   0  0  0  0  0  0  0  0  0  0  0  0
   -1.3000    1.5000    0.0000 C   0  0  0  0  0  0  0  0  0  0  0  0
    1.3000    1.5000    0.0000 C   0  0  0  0  0  0  0  0  0  0  0  0
   -1.3000   -1.5000    0.0000 C   0  0  0  0  0  0  0  0  0  0  0  0
   -5.1981   -0.7504    0.0000 C   0  0  0  0  0  0  0  0  0  0  0  0
   -3.8989   -1.5002    0.0000 C   0  0  0  0  0  0  0  0  0  0  0  0
    1.3000   -1.5000    0.0000 C   0  0  0  0  0  0  0  0  0  0  0  0
   -2.6000   -0.7500    0.0000 C   0  0  0  0  0  0  0  0  0  0  0  0
    0.0000   -0.7500    0.0000 C   0  0  0  0  0  0  0  0  0  0  0  0
    2.6000   -0.7500    0.0000 C   0  0  0  0  0  0  0  0  0  0  0  0
    0.0000    0.7500    0.0000 C   0  0  0  0  0  0  0  0  0  0  0  0
   -6.4970   -1.5006    0.0000 O   0  0  0  0  0  0  0  0  0  0  0  0
    3.8989   -1.5002    0.0000 O   0  0  0  0  0  0  0  0  0  0  0  0
  6  4  1  0
  7  5  1  0
 10  1  1  0
 10  9  1  0
 11  2  1  6
 12  4  1  0
 12  8  1  0
 12 10  1  6
 13  8  1  1
 13 11  1  0
 14  5  1  0
 14 11  1  0
 15  3  1  6
 15  6  1  0
 15  7  1  0
 15 13  1  0
 16  9  1  0
 14 17  1  1
M  END
>  <NAME>  (86) 
2ALPHA-HYDROXY-7BETA-(2-HYDROXY-1-METHYLETHYL)-1BETA,(4A)BETA-DIMETHYL-(8A)BETA-DECAHYDRONAPHTHALENE

>  <SYNONYMS>  (86) 


>  <SPECTRUM TYPE>  (86) 
MS1

>  <INSTRUMENT TYPE>  (86) 
EI-B

>  <INSTRUMENT>  (86) 
JEOL JMS-DX-300

>  <ION MODE>  (86) 
P

>  <INCHIKEY>  (86) 
ARSHJAOOWKIGRS-CIJFKWAFSA-N

>  <FORMULA>  (86) 
C15H28O2

>  <EXACT MASS>  (86) 
240.208930136

>  <MW>  (86) 
240

>  <ID>  (86) 
JP012083

>  <CONTRIBUTOR>  (86) 
University of Tokyo Team, {Faculty of Engineering, University of Tokyo

>  <COMMENT>  (86) 
SMILES=OCC(C)C([H])(C2)CC([H])(C(C)1C2)C([H])(C)C([H])(O)CC1
InChI=InChI=1S/C15H28O2/c1-10(9-16)12-4-6-15(3)7-5-14(17)11(2)13(15)8-12/h10-14,16-17H,4-9H2,1-3H3/t10?,11-,12-,13-,14-,15+/m1/s1
computed SMILES=OCC(C)C1CCC2(C)CCC(O)C(C)C2C1
accession=JP012083
date=2016.01.19 (Created 2008.10.21, modified 2011.05.06)
author=HISAHIRO HAGIWARA, INSTITUTE FOR CHEMICAL REACTION SCIENCE TOHOKU UNIV.
license=CC BY-NC-SA
exact mass=240.20893
ionization energy=70 eV
ion type=[M]+*
computed spectral entropy=3.180348555708375
computed normalized entropy=0.9350673303629757
SPLASH=splash10-0bt9-4910000000-f95b8a01b04c47319973
submitter=submitter = University of Tokyo Team (Faculty of Engineering, University of Tokyo)
MoNA Rating=3.75

>  <NUM PEAKS>  (86) 
30

>  <MASS SPECTRAL PEAKS>  (86) 
41 17
55 22.5
67 17
69 14.1
79 11.2
81 42.2
83 9.5
93 22.5
95 31
105 9.3
107 29.4
108 10.9
109 45
121 20.4
122 11.3
123 18.4
133 9.9
135 17.7
147 11
149 16.4
161 9.7
162 12.4
163 99.99
164 18.8
189 16.9
191 13.1
193 13.3
204 11.2
207 31.1
222 32.8

$$$$

     RDKit          2D

 15 16  0  0  1  0  0  0  0  0999 V2000
    3.6987   -2.8302    0.0000 C   0  0  0  0  0  0  0  0  0  0  0  0
    4.9981   -0.5804    0.0000 C   0  0  0  0  0  0  0  0  0  0  0  0
   -1.5000   -2.8300    0.0000 C   0  0  0  0  0  0  0  0  0  0  0  0
   -0.2000    2.4200    0.0000 C   0  0  0  0  0  0  0  0  0  0  0  0
   -2.8000    0.9200    0.0000 C   0  0  0  0  0  0  0  0  0  0  0  0
   -2.8000   -0.5800    0.0000 C   0  0  0  0  0  0  0  0  0  0  0  0
    2.4000    0.9200    0.0000 C   0  0  0  0  0  0  0  0  0  0  0  0
   -1.5000    1.6700    0.0000 C   0  0  0  0  0  0  0  0  0  0  0  0
    1.1000    1.6700    0.0000 C   0  0  0  0  0  0  0  0  0  0  0  0
    1.1000   -1.3300    0.0000 C   0  0  0  0  0  0  0  0  0  0  0  0
    3.6989   -1.3302    0.0000 C   0  0  0  0  0  0  0  0  0  0  0  0
   -1.5000   -1.3300    0.0000 C   0  0  0  0  0  0  0  0  0  0  0  0
    2.4000   -0.5800    0.0000 C   0  0  0  0  0  0  0  0  0  0  0  0
   -0.2000   -0.5800    0.0000 C   0  0  0  0  0  0  0  0  0  0  0  0
   -0.2000    0.9200    0.0000 C   0  0  0  0  0  0  0  0  0  0  0  0
  6  5  1  0
  8  5  1  0
  9  7  1  0
 11  1  2  0
 11  2  1  0
 12  3  1  0
 12  6  2  0
 13  7  1  0
 13 10  1  0
 13 11  1  1
 14 10  1  6
 14 12  1  0
 15  4  1  1
 15  8  1  0
 15  9  1  0
 15 14  1  0
M  END
>  <NAME>  (87) 
7BETA-ISOPROPENYL-1,(4A)BETA-DIMETHYL-3,4,(4A),5,6,7,8,8ABETA-OCTAHYDRONAPHTHALENE

>  <SYNONYMS>  (87) 


>  <SPECTRUM TYPE>  (87) 
MS1

>  <INSTRUMENT TYPE>  (87) 
EI-B

>  <INSTRUMENT>  (87) 
JEOL JMS-DX-300

>  <ION MODE>  (87) 
P

>  <INCHIKEY>  (87) 
OZQAPQSEYFAMCY-RBSFLKMASA-N

>  <FORMULA>  (87) 
C15H24

>  <EXACT MASS>  (87) 
204.187800768

>  <MW>  (87) 
204

>  <ID>  (87) 
JP012082

>  <CONTRIBUTOR>  (87) 
University of Tokyo Team, {Faculty of Engineering, University of Tokyo

>  <COMMENT>  (87) 
SMILES=CC(=C)C([H])(C1)CC([H])(C(C)=2)C(C)(CCC([H])2)C1
InChI=InChI=1S/C15H24/c1-11(2)13-7-9-15(4)8-5-6-12(3)14(15)10-13/h6,13-14H,1,5,7-10H2,2-4H3/t13-,14-,15-/m1/s1
computed SMILES=C=C(C)C1CCC2(C)CCC=C(C)C2C1
accession=JP012082
date=2016.01.19 (Created 2008.10.21, modified 2011.05.06)
author=HISAHIRO HAGIWARA, INSTITUTE FOR CHEMICAL REACTION SCIENCE TOHOKU UNIV.
license=CC BY-NC-SA
exact mass=204.1878
ionization energy=70 eV
ion type=[M]+*
computed spectral entropy=3.7957912882668126
computed normalized entropy=0.9606573419949844
SPLASH=splash10-052f-9800000000-3a5b6d89a35ea45419e1
submitter=submitter = University of Tokyo Team (Faculty of Engineering, University of Tokyo)
MoNA Rating=3.75

>  <NUM PEAKS>  (87) 
52

>  <MASS SPECTRAL PEAKS>  (87) 
36 15
39 26.2
40 18
41 64.4
42 14.4
43 78.8
44 20
53 24
55 42.1
58 25.5
59 23
65 23.8
67 39.1
68 30.9
69 20.4
73 38
77 25.3
79 48.1
80 16.3
81 56.2
82 15.9
88 13.9
91 50.2
92 19.7
93 74.5
94 29.6
95 35.8
97 29.2
105 47.2
106 23
107 78.1
108 51.7
109 86.3
110 21.3
119 27.7
120 21.3
121 38.8
122 73.4
123 24.9
133 32.8
134 19.7
135 20.4
147 27
148 16.7
149 15
161 99.99
162 29.4
163 17.2
175 22.8
189 30.3
204 47.6
205 15.5

$$$$

     RDKit          2D

 17 18  0  0  1  0  0  0  0  0999 V2000
    1.3000    3.0000    0.0000 C   0  0  0  0  0  0  0  0  0  0  0  0
    1.3000   -3.0000    0.0000 C   0  0  0  0  0  0  0  0  0  0  0  0
   -4.6491   -0.2013    0.0000 C   0  0  0  0  0  0  0  0  0  0  0  0
   -5.1978   -2.2504    0.0000 C   0  0  0  0  0  0  0  0  0  0  0  0
   -2.6000    0.7500    0.0000 C   0  0  0  0  0  0  0  0  0  0  0  0
   -1.3000    1.5000    0.0000 C   0  0  0  0  0  0  0  0  0  0  0  0
    2.6000    0.7500    0.0000 C   0  0  0  0  0  0  0  0  0  0  0  0
   -1.3000   -1.5000    0.0000 C   0  0  0  0  0  0  0  0  0  0  0  0
    1.3000    1.5000    0.0000 C   0  0  0  0  0  0  0  0  0  0  0  0
    1.3000   -1.5000    0.0000 C   0  0  0  0  0  0  0  0  0  0  0  0
   -2.6000   -0.7500    0.0000 C   0  0  0  0  0  0  0  0  0  0  0  0
    0.0000    0.7500    0.0000 C   0  0  0  0  0  0  0  0  0  0  0  0
    0.0000   -0.7500    0.0000 C   0  0  0  0  0  0  0  0  0  0  0  0
    2.6000   -0.7500    0.0000 C   0  0  0  0  0  0  0  0  0  0  0  0
   -3.8989   -1.5002    0.0000 C   0  0  0  0  0  0  0  0  0  0  0  0
    3.8989   -1.5002    0.0000 O   0  0  0  0  0  0  0  0  0  0  0  0
   -3.1487   -2.7991    0.0000 O   0  0  0  0  0  0  0  0  0  0  0  0
  6  5  1  0
  9  1  1  6
  9  7  1  0
 10  2  1  6
 11  5  1  0
 11  8  1  0
 12  6  1  0
 12  9  1  0
 13  8  1  1
 13 10  1  0
 13 12  1  0
 14  7  1  0
 14 10  1  0
 15  3  1  0
 15  4  1  0
 11 15  1  6
 14 16  1  6
 15 17  1  0
M  END
>  <NAME>  (88) 
2BETA-HYDROXY-1BETA,(4A)BETA-DIMETHYL-7BETA-(1-METHYL-1-HYDROXYETHYL)-(8A)BETA-DECAHYDRONAPHTHALENE

>  <SYNONYMS>  (88) 


>  <SPECTRUM TYPE>  (88) 
MS1

>  <INSTRUMENT TYPE>  (88) 
EI-B

>  <INSTRUMENT>  (88) 
JEOL JMS-DX-300

>  <ION MODE>  (88) 
P

>  <INCHIKEY>  (88) 
LRDUEXWYKQITLS-MBVYDAKFSA-N

>  <FORMULA>  (88) 
C15H28O2

>  <EXACT MASS>  (88) 
240.208930136

>  <MW>  (88) 
240

>  <ID>  (88) 
JP012081

>  <CONTRIBUTOR>  (88) 
University of Tokyo Team, {Faculty of Engineering, University of Tokyo

>  <COMMENT>  (88) 
SMILES=CC(C)(O)C([H])(C2)CC([H])(C(C2)1)C([H])(C)C([H])(O)CC([H])(C)1
InChI=InChI=1S/C15H28O2/c1-9-7-14(16)10(2)13-8-11(15(3,4)17)5-6-12(9)13/h9-14,16-17H,5-8H2,1-4H3/t9-,10-,11-,12?,13-,14+/m1/s1
computed SMILES=OC1CC(C)C2CCC(CC2C1C)C(O)(C)C
accession=JP012081
date=2016.01.19 (Created 2008.10.21, modified 2011.05.06)
author=HISAHIRO HAGIWARA, INSTITUTE FOR CHEMICAL REACTION SCIENCE TOHOKU UNIV.
license=CC BY-NC-SA
exact mass=240.20893
ionization energy=70 eV
ion type=[M]+*
computed spectral entropy=3.5883674851883116
computed normalized entropy=0.8596153766246091
SPLASH=splash10-0a4j-6900000000-1a92b486b17fa2355578
submitter=submitter = University of Tokyo Team (Faculty of Engineering, University of Tokyo)
MoNA Rating=3.75

>  <NUM PEAKS>  (88) 
65

>  <MASS SPECTRAL PEAKS>  (88) 
39 4.8
41 21.1
43 15.9
45 2.5
53 6.4
55 20.8
56 2.2
57 9.7
58 3.2
59 87.6
60 3.4
65 2.4
67 21.3
68 5.8
69 18.3
70 2.4
71 5.4
77 7.3
79 11.7
80 3.1
81 24.7
82 11.8
83 12.3
84 3.7
85 2.2
91 8
92 2.2
93 17.2
94 7.4
95 24.5
96 10.1
97 4.7
105 5.2
106 2.1
107 18.5
108 19.5
109 90.5
110 12.9
111 2.7
115 6.3
116 2.6
119 3.1
121 13
122 12
123 19.1
124 14.9
125 20.4
126 2.8
133 5
135 23.7
136 4.5
147 3.8
149 99.99
150 15.1
161 2.5
163 6.6
164 46.2
165 11.6
180 2.2
181 15.8
182 6.5
189 7
207 4.1
222 2
225 3

$$$$

     RDKit          2D

 24 25  0  0  1  0  0  0  0  0999 V2000
   -3.8981   -6.0000    0.0000 C   0  0  0  0  0  0  0  0  0  0  0  0
   -1.3000   -6.0000    0.0000 C   0  0  0  0  0  0  0  0  0  0  0  0
   -4.5893   -2.0800    0.0000 C   0  0  0  0  0  0  0  0  0  0  0  0
   -2.1479   -1.1914    0.0000 C   0  0  0  0  0  0  0  0  0  0  0  0
   -4.5893   -5.4200    0.0000 C   0  0  0  0  0  0  0  0  0  0  0  0
   -5.0404   -2.8614    0.0000 C   0  0  0  0  0  0  0  0  0  0  0  0
    2.5983    0.7525    0.0000 C   0  0  0  0  0  0  0  0  0  0  0  0
    1.2976   -6.0008    0.0000 C   0  0  0  0  0  0  0  0  0  0  0  0
    2.5971   -5.2500    0.0000 C   0  0  0  0  0  0  0  0  0  0  0  0
   -0.0014   -5.2508    0.0000 C   0  0  0  0  0  0  0  0  0  0  0  0
    3.8976   -1.4975    0.0000 C   0  0  0  0  0  0  0  0  0  0  0  0
    3.8971   -2.9983    0.0000 C   0  0  0  0  0  0  0  0  0  0  0  0
    0.0000   -0.7483    0.0000 C   0  0  0  0  0  0  0  0  0  0  0  0
   -2.5990   -5.2500    0.0000 C   0  0  0  0  0  0  0  0  0  0  0  0
   -3.1121   -2.3405    0.0000 C   0  0  0  0  0  0  0  0  0  0  0  0
   -4.0762   -4.0105    0.0000 C   0  0  0  0  0  0  0  0  0  0  0  0
    2.5986   -0.7475    0.0000 C   0  0  0  0  0  0  0  0  0  0  0  0
    2.5976   -3.7492    0.0000 C   0  0  0  0  0  0  0  0  0  0  0  0
    1.2990   -1.4983    0.0000 C   0  0  0  0  0  0  0  0  0  0  0  0
   -0.0010   -3.7500    0.0000 C   0  0  0  0  0  0  0  0  0  0  0  0
    1.2986   -2.9992    0.0000 C   0  0  0  0  0  0  0  0  0  0  0  0
    0.0000    0.7517    0.0000 O   0  0  0  0  0  0  0  0  0  0  0  0
   -1.3000   -3.0000    0.0000 O   0  0  0  0  0  0  0  0  0  0  0  0
   -2.5990   -3.7500    0.0000 Si  0  0  0  0  0  4  0  0  0  0  0  0
  9  8  1  0
 10  8  1  0
 12 11  2  0
 14  1  1  0
 14  2  1  0
 15  3  1  0
 15  4  1  0
 16  5  1  0
 16  6  1  0
 17  7  1  1
 17 11  1  0
 18  9  1  1
 18 12  1  0
 19 13  1  6
 19 17  1  0
 20 10  1  0
 21 18  1  0
 21 19  1  0
 21 20  1  6
 22 13  2  0
 20 23  1  6
 24 14  1  0
 24 15  1  0
 24 16  1  0
 24 23  1  0
M  END
>  <NAME>  (89) 
1-FORMYL-8-(TRIISOPROPYLSILYL)OXY-2-METHYL-1BETA,2ALPHA,(4A)ALPHA,5,6,7,8BETA,(8A)BETA-OCTAHYDRONAPHTHALENE

>  <SYNONYMS>  (89) 


>  <SPECTRUM TYPE>  (89) 
MS1

>  <INSTRUMENT TYPE>  (89) 
EI-B

>  <INSTRUMENT>  (89) 
JEOL JMS-DX-300

>  <ION MODE>  (89) 
P

>  <INCHIKEY>  (89) 
QMUCTJUYXBSPAP-ZPAWYTMASA-N

>  <FORMULA>  (89) 
C21H38O2Si

>  <EXACT MASS>  (89) 
350.264106986

>  <MW>  (89) 
350

>  <ID>  (89) 
JP012080

>  <CONTRIBUTOR>  (89) 
University of Tokyo Team, {Faculty of Engineering, University of Tokyo

>  <COMMENT>  (89) 
SMILES=O=CC([H])(C([H])(C)2)C([H])(C([H])1C([H])=C([H])2)C([H])(CCC1)O[Si](C(C)C)(C(C)C)C(C)C
InChI=InChI=1S/C21H38O2Si/c1-14(2)24(15(3)4,16(5)6)23-20-10-8-9-18-12-11-17(7)19(13-22)21(18)20/h11-21H,8-10H2,1-7H3/t17-,18+,19+,20-,21-/m0/s1
computed SMILES=O=CC1C(C=CC2CCCC(O[Si](C(C)C)(C(C)C)C(C)C)C21)C
accession=JP012080
date=2016.01.19 (Created 2008.10.21, modified 2011.05.06)
author=HISAHIRO HAGIWARA, INSTITUTE FOR CHEMICAL REACTION SCIENCE TOHOKU UNIV.
license=CC BY-NC-SA
exact mass=350.26411
ionization energy=70 eV
ion type=[M]+*
computed spectral entropy=3.4841126830567943
computed normalized entropy=0.9100128014735888
SPLASH=splash10-0a4i-6901000000-8c53ab6b73d2483acef5
submitter=submitter = University of Tokyo Team (Faculty of Engineering, University of Tokyo)
MoNA Rating=3.75

>  <NUM PEAKS>  (89) 
46

>  <MASS SPECTRAL PEAKS>  (89) 
39 11.3
41 26.6
43 12.5
45 15.5
55 16
59 32.3
61 93.1
67 16.5
73 13.7
75 57.9
77 20.1
79 16.5
81 14.2
87 10.5
89 9.3
91 22.2
93 9.8
103 37.5
104 7.3
105 34.1
106 11.9
107 10.4
109 6.7
115 9
117 14
118 8.6
119 64.5
120 7.5
129 6.4
131 61.3
132 9.9
133 15.1
145 36.6
147 10.3
148 15.9
149 9.8
157 9.6
159 99.99
160 16.7
161 21
185 19.9
230 9.7
251 9.2
265 6.8
307 74.7
308 21.2

$$$$

     RDKit          2D

 24 25  0  0  1  0  0  0  0  0999 V2000
   -3.8981   -6.0000    0.0000 C   0  0  0  0  0  0  0  0  0  0  0  0
   -1.3000   -6.0000    0.0000 C   0  0  0  0  0  0  0  0  0  0  0  0
   -4.5893   -2.0800    0.0000 C   0  0  0  0  0  0  0  0  0  0  0  0
   -2.1479   -1.1914    0.0000 C   0  0  0  0  0  0  0  0  0  0  0  0
   -4.5893   -5.4200    0.0000 C   0  0  0  0  0  0  0  0  0  0  0  0
   -5.0404   -2.8614    0.0000 C   0  0  0  0  0  0  0  0  0  0  0  0
    2.5983    0.7525    0.0000 C   0  0  0  0  0  0  0  0  0  0  0  0
    1.2976   -6.0008    0.0000 C   0  0  0  0  0  0  0  0  0  0  0  0
    2.5971   -5.2500    0.0000 C   0  0  0  0  0  0  0  0  0  0  0  0
   -0.0014   -5.2508    0.0000 C   0  0  0  0  0  0  0  0  0  0  0  0
    3.8976   -1.4975    0.0000 C   0  0  0  0  0  0  0  0  0  0  0  0
    3.8971   -2.9983    0.0000 C   0  0  0  0  0  0  0  0  0  0  0  0
    0.0000   -0.7483    0.0000 C   0  0  0  0  0  0  0  0  0  0  0  0
   -2.5990   -5.2500    0.0000 C   0  0  0  0  0  0  0  0  0  0  0  0
   -3.1121   -2.3405    0.0000 C   0  0  0  0  0  0  0  0  0  0  0  0
   -4.0762   -4.0105    0.0000 C   0  0  0  0  0  0  0  0  0  0  0  0
    2.5986   -0.7475    0.0000 C   0  0  0  0  0  0  0  0  0  0  0  0
    2.5976   -3.7492    0.0000 C   0  0  0  0  0  0  0  0  0  0  0  0
    1.2990   -1.4983    0.0000 C   0  0  0  0  0  0  0  0  0  0  0  0
   -0.0010   -3.7500    0.0000 C   0  0  0  0  0  0  0  0  0  0  0  0
    1.2986   -2.9992    0.0000 C   0  0  0  0  0  0  0  0  0  0  0  0
    0.0000    0.7517    0.0000 O   0  0  0  0  0  0  0  0  0  0  0  0
   -1.3000   -3.0000    0.0000 O   0  0  0  0  0  0  0  0  0  0  0  0
   -2.5990   -3.7500    0.0000 Si  0  0  0  0  0  4  0  0  0  0  0  0
  9  8  1  0
 10  8  1  0
 12 11  2  0
 14  1  1  0
 14  2  1  0
 15  3  1  0
 15  4  1  0
 16  5  1  0
 16  6  1  0
 17  7  1  1
 17 11  1  0
 18  9  1  6
 18 12  1  0
 19 13  1  6
 19 17  1  0
 20 10  1  0
 21 18  1  0
 21 19  1  0
 21 20  1  6
 22 13  1  0
 20 23  1  6
 24 14  1  0
 24 15  1  0
 24 16  1  0
 24 23  1  0
M  END
>  <NAME>  (90) 
1-HYDROXYMETHYL-8-(TRIISOPROPYLSILYL)OXY-2-METHYL-1BETA-2ALPHA-(4A)BETA,5,6,7,8BETA,(8A)BETA-OCTAHYDRONAPHTHALENE

>  <SYNONYMS>  (90) 


>  <SPECTRUM TYPE>  (90) 
MS1

>  <INSTRUMENT TYPE>  (90) 
EI-B

>  <INSTRUMENT>  (90) 
JEOL JMS-DX-300

>  <ION MODE>  (90) 
P

>  <INCHIKEY>  (90) 
BNRUWIZMEBUHHR-WHZJULEDSA-N

>  <FORMULA>  (90) 
C21H40O2Si

>  <EXACT MASS>  (90) 
352.27975705

>  <MW>  (90) 
352

>  <ID>  (90) 
JP012079

>  <CONTRIBUTOR>  (90) 
University of Tokyo Team, {Faculty of Engineering, University of Tokyo

>  <COMMENT>  (90) 
SMILES=OCC([H])(C([H])(C)2)C([H])(C([H])1C([H])=C([H])2)C([H])(CCC1)O[Si](C(C)C)(C(C)C)C(C)C
InChI=InChI=1S/C21H40O2Si/c1-14(2)24(15(3)4,16(5)6)23-20-10-8-9-18-12-11-17(7)19(13-22)21(18)20/h11-12,14-22H,8-10,13H2,1-7H3/t17-,18-,19+,20-,21-/m0/s1
computed SMILES=OCC1C(C=CC2CCCC(O[Si](C(C)C)(C(C)C)C(C)C)C21)C
accession=JP012079
date=2016.01.19 (Created 2008.10.21, modified 2011.05.06)
author=HISAHIRO HAGIWARA, INSTITUTE FOR CHEMICAL REACTION SCIENCE TOHOKU UNIV.
license=CC BY-NC-SA
exact mass=352.27976
ionization energy=70 eV
ion type=[M]+*
computed spectral entropy=3.1204220989310327
computed normalized entropy=0.8348576566711575
SPLASH=splash10-03xr-4900000000-79ba05389da945b8b2d5
submitter=submitter = University of Tokyo Team (Faculty of Engineering, University of Tokyo)
MoNA Rating=3.75

>  <NUM PEAKS>  (90) 
42

>  <MASS SPECTRAL PEAKS>  (90) 
39 2.1
41 5.9
43 2.6
45 3.3
55 5.2
59 8.7
61 15.5
67 6.8
69 9.5
73 5
75 27.9
76 2.5
77 8.7
79 6.6
81 10.3
87 4
89 3.5
91 13.5
93 16.2
95 5.3
103 17.6
104 2.8
105 31.5
106 3.9
107 3.7
115 3.2
117 3.6
119 71.9
120 8.9
121 3.3
131 18.9
132 3.1
133 11.8
145 5.5
147 6.7
149 2.2
159 5.3
161 99.99
162 14.9
187 3.4
227 7.9
309 6.5

$$$$

     RDKit          2D

 10  9  0  0  0  0  0  0  0  0999 V2000
    2.2733    2.8125    0.0000 C   0  0  0  0  0  0  0  0  0  0  0  0
    0.9743    5.0625    0.0000 C   0  0  0  0  0  0  0  0  0  0  0  0
   -5.5209    2.8125    0.0000 C   0  0  0  0  0  0  0  0  0  0  0  0
   -4.2219    5.0625    0.0000 C   0  0  0  0  0  0  0  0  0  0  0  0
   -1.6238    5.0625    0.0000 C   0  0  0  0  0  0  0  0  0  0  0  0
   -0.3248    2.8125    0.0000 C   0  0  0  0  0  0  0  0  0  0  0  0
   -2.9228    2.8125    0.0000 C   0  0  0  0  0  0  0  0  0  0  0  0
    0.9743    3.5625    0.0000 C   0  0  0  0  0  0  0  0  0  0  0  0
   -4.2219    3.5625    0.0000 C   0  0  0  0  0  0  0  0  0  0  0  0
   -1.6238    3.5625    0.0000 Si  0  0  0  0  0  4  0  0  0  0  0  0
  8  1  1  0
  8  2  1  0
  8  6  1  0
  9  3  1  0
  9  4  1  0
  9  7  1  0
 10  5  1  0
 10  6  1  0
 10  7  1  0
M  END
>  <NAME>  (91) 
DIISOBUTYLMETHYLSILANE

>  <SYNONYMS>  (91) 


>  <SPECTRUM TYPE>  (91) 
MS1

>  <INSTRUMENT TYPE>  (91) 
EI-B

>  <INSTRUMENT>  (91) 
HITACHI RMU-6M

>  <ION MODE>  (91) 
P

>  <INCHIKEY>  (91) 
YRFUHKCAAALZQQ-UHFFFAOYSA-N

>  <FORMULA>  (91) 
C9H22Si

>  <EXACT MASS>  (91) 
158.149077234

>  <MW>  (91) 
158

>  <ID>  (91) 
JP012046

>  <CONTRIBUTOR>  (91) 
University of Tokyo Team, {Faculty of Engineering, University of Tokyo

>  <COMMENT>  (91) 
SMILES=CC(C)C[SiH](C)CC(C)C
InChI=InChI=1S/C9H22Si/c1-8(2)6-10(5)7-9(3)4/h8-10H,6-7H2,1-5H3
computed SMILES=CC(C)C[SiH](C)CC(C)C
accession=JP012046
date=2016.01.19 (Created 2008.10.21, modified 2011.05.06)
author=YAMAMOTO M, DEP. CHEMISTRY, FAC. SCIENCE, NARA WOMEN'S UNIV.
license=CC BY-NC-SA
exact mass=158.14908
ionization energy=70 eV
ion type=[M]+*
computed spectral entropy=2.890244095434185
computed normalized entropy=0.7782921789368145
SPLASH=splash10-0pb9-9300000000-5a65e6eabde758edcffc
submitter=submitter = University of Tokyo Team (Faculty of Engineering, University of Tokyo)
MoNA Rating=3.75

>  <NUM PEAKS>  (91) 
41

>  <MASS SPECTRAL PEAKS>  (91) 
39 4.6
41 10.8
42 1.8
43 15.8
44 3.6
45 23.3
46 1.6
50 1.4
53 1
55 3.3
56 2.4
57 3.2
58 9.9
59 99.99
60 8.4
61 3.6
67 1
69 4.7
70 1.1
71 2.3
72 6.6
73 25.5
74 5.8
75 1.2
81 2.3
83 1.1
85 6.7
86 2.2
87 10.2
88 1.3
95 1.1
99 2.2
100 14.8
101 43.8
102 5.9
103 1.9
143 14.3
144 2.4
156 11.4
157 3.5
158 2.6

$$$$

     RDKit          2D

 17 16  0  0  0  0  0  0  0  0999 V2000
    6.7254    4.9075    0.0000 C   0  0  0  0  0  0  0  0  0  0  0  0
    1.5292    7.3675    0.0000 C   0  0  0  0  0  0  0  0  0  0  0  0
    3.0292    7.3675    0.0000 H   0  0  0  0  0  0  0  0  0  0  0  0
    1.5292    8.8675    0.0000 H   0  0  0  0  0  0  0  0  0  0  0  0
   -1.3661    7.8780    0.0000 H   0  0  0  0  0  0  0  0  0  0  0  0
   -0.4207    5.2513    0.0000 C   0  0  0  0  0  0  0  0  0  0  0  0
   -0.0769    7.2012    0.0000 H   0  0  0  0  0  0  0  0  0  0  0  0
   -1.8979    5.5118    0.0000 H   0  0  0  0  0  0  0  0  0  0  0  0
   -1.4262    2.4886    0.0000 H   0  0  0  0  0  0  0  0  0  0  0  0
    0.0592    2.3614    0.0000 C   0  0  0  0  0  0  0  0  0  0  0  0
   -2.4869    3.8314    0.0000 H   0  0  0  0  0  0  0  0  0  0  0  0
   -0.6908    1.0623    0.0000 H   0  0  0  0  0  0  0  0  0  0  0  0
    1.3583    1.6114    0.0000 H   0  0  0  0  0  0  0  0  0  0  0  0
    5.4263    4.1575    0.0000 C   0  0  0  0  0  0  0  0  0  0  0  0
    4.1273    4.9075    0.0000 C   0  0  0  0  0  0  0  0  0  0  0  0
    2.8283    4.1575    0.0000 C   0  0  0  0  0  0  0  0  0  0  0  0
    1.5292    4.9075    0.0000 Si  0  0  0  0  0  4  0  0  0  0  0  0
  2  3  1  0
  2  4  1  0
  2  5  1  0
  6  7  1  0
  6  8  1  0
  6  9  1  0
 10 11  1  0
 10 12  1  0
 10 13  1  0
 14  1  1  0
 15 14  1  0
 16 15  1  0
 17  2  1  0
 17  6  1  0
 17 10  1  0
 17 16  1  0
M  ISO  8   3   2   4   2   5   2   7   2   8   2   9   2  11   2  12   2
M  ISO  1  13   2
M  END
>  <NAME>  (92) 
BUTYLTRIMETHYLSILANE (D9)

>  <SYNONYMS>  (92) 


>  <SPECTRUM TYPE>  (92) 
MS1

>  <INSTRUMENT TYPE>  (92) 
EI-B

>  <INSTRUMENT>  (92) 
HITACHI RMU-6M

>  <ION MODE>  (92) 
P

>  <INCHIKEY>  (92) 
LYVYUAHSSSHKHC-WVZRYRIDSA-N

>  <FORMULA>  (92) 
C7H18Si

>  <EXACT MASS>  (92) 
139.17426782

>  <MW>  (92) 
139

>  <ID>  (92) 
JP012045

>  <CONTRIBUTOR>  (92) 
University of Tokyo Team, {Faculty of Engineering, University of Tokyo

>  <COMMENT>  (92) 
SMILES=CCCC[Si](C([2H])([2H])[2H])(C([2H])([2H])[2H])C([2H])([2H])[2H]
InChI=InChI=1S/C7H18Si/c1-5-6-7-8(2,3)4/h5-7H2,1-4H3/i2D3,3D3,4D3
computed SMILES=[H]C([H])([H])[Si](CCCC)(C([H])([H])[H])C([H])([H])[H]
accession=JP012045
date=2016.01.19 (Created 2008.10.21, modified 2011.05.06)
author=YAMAMOTO M, DEP. CHEMISTRY, FAC. SCIENCE, NARA WOMEN'S UNIV.
license=CC BY-NC-SA
exact mass=130.11778
ionization energy=70 eV
ion type=[M]+*
computed spectral entropy=2.1584231307968733
computed normalized entropy=0.6624797962885414
SPLASH=splash10-001i-9000000000-44ef2a93b271ab187636
submitter=submitter = University of Tokyo Team (Faculty of Engineering, University of Tokyo)
MoNA Rating=3.75

>  <NUM PEAKS>  (92) 
26

>  <MASS SPECTRAL PEAKS>  (92) 
27 2.9
28 2
29 2.2
30 2.2
33 1.3
34 1.6
44 1.6
46 7.8
48 2.9
49 1.6
50 9.1
62 1.3
64 4.6
65 34.2
66 3.2
67 1
79 7.4
80 1.1
81 3.1
82 99.99
83 8.6
84 3.4
110 1.1
121 15.8
122 2
139 2.4

$$$$

     RDKit          2D

  8  7  0  0  0  0  0  0  0  0999 V2000
    1.5368    3.1373    0.0000 C   0  0  0  0  0  0  0  0  0  0  0  0
   -4.4094    4.4363    0.0000 C   0  0  0  0  0  0  0  0  0  0  0  0
   -4.9584    2.3873    0.0000 C   0  0  0  0  0  0  0  0  0  0  0  0
   -2.9094    1.8382    0.0000 C   0  0  0  0  0  0  0  0  0  0  0  0
    0.2377    3.8873    0.0000 C   0  0  0  0  0  0  0  0  0  0  0  0
   -1.0613    3.1373    0.0000 C   0  0  0  0  0  0  0  0  0  0  0  0
   -2.3603    3.8873    0.0000 C   0  0  0  0  0  0  0  0  0  0  0  0
   -3.6594    3.1373    0.0000 Si  0  0  0  0  0  4  0  0  0  0  0  0
  5  1  1  0
  6  5  1  0
  7  6  1  0
  8  2  1  0
  8  3  1  0
  8  4  1  0
  8  7  1  0
M  END
>  <NAME>  (93) 
BUTYLTRIMETHYLSILANE

>  <SYNONYMS>  (93) 


>  <SPECTRUM TYPE>  (93) 
MS1

>  <INSTRUMENT TYPE>  (93) 
EI-B

>  <INSTRUMENT>  (93) 
HITACHI RMU-6M

>  <ION MODE>  (93) 
P

>  <INCHIKEY>  (93) 
LYVYUAHSSSHKHC-UHFFFAOYSA-N

>  <FORMULA>  (93) 
C7H18Si

>  <EXACT MASS>  (93) 
130.117777106

>  <MW>  (93) 
130

>  <ID>  (93) 
JP012044

>  <CONTRIBUTOR>  (93) 
University of Tokyo Team, {Faculty of Engineering, University of Tokyo

>  <COMMENT>  (93) 
SMILES=CCCC[Si](C)(C)C
InChI=InChI=1S/C7H18Si/c1-5-6-7-8(2,3)4/h5-7H2,1-4H3
computed SMILES=CCCC[Si](C)(C)C
accession=JP012044
date=2016.01.19 (Created 2008.10.21, modified 2011.05.06)
author=YAMAMOTO M, DEP. CHEMISTRY, FAC. SCIENCE, NARA WOMEN'S UNIV.
license=CC BY-NC-SA
exact mass=130.11778
ionization energy=70 eV
ion type=[M]+*
computed spectral entropy=2.2489809694182386
computed normalized entropy=0.6612321241759771
SPLASH=splash10-00di-9100000000-82b5170c1dbd45704d68
submitter=submitter = University of Tokyo Team (Faculty of Engineering, University of Tokyo)
MoNA Rating=3.75

>  <NUM PEAKS>  (93) 
30

>  <MASS SPECTRAL PEAKS>  (93) 
27 2.2
28 1.6
29 3.2
31 4
39 1.1
41 1.1
42 1.5
43 9.5
44 3.5
45 10.4
53 1
55 1.7
57 2.2
58 4.4
59 42.9
60 3.6
61 1.7
71 1
72 2.2
73 99.99
74 9.2
75 3.8
85 1
86 1.1
87 1.5
101 1.5
115 22.6
116 2.8
117 1.3
130 3.5

$$$$

     RDKit          2D

 13 12  0  0  0  0  0  0  0  0999 V2000
   -7.1447    3.3750    0.0000 C   0  0  0  0  0  0  0  0  0  0  0  0
   -0.6495    2.6250    0.0000 C   0  0  0  0  0  0  0  0  0  0  0  0
   -1.3995    1.3260    0.0000 H   0  0  0  0  0  0  0  0  0  0  0  0
    0.6495    1.8750    0.0000 H   0  0  0  0  0  0  0  0  0  0  0  0
    0.1005    3.9240    0.0000 H   0  0  0  0  0  0  0  0  0  0  0  0
   -1.9486    4.8750    0.0000 C   0  0  0  0  0  0  0  0  0  0  0  0
   -0.4486    4.8750    0.0000 H   0  0  0  0  0  0  0  0  0  0  0  0
   -1.9486    6.3750    0.0000 H   0  0  0  0  0  0  0  0  0  0  0  0
   -3.4486    4.8750    0.0000 H   0  0  0  0  0  0  0  0  0  0  0  0
   -5.8457    2.6250    0.0000 C   0  0  0  0  0  0  0  0  0  0  0  0
   -4.5466    3.3750    0.0000 C   0  0  0  0  0  0  0  0  0  0  0  0
   -3.2476    2.6250    0.0000 C   0  0  0  0  0  0  0  0  0  0  0  0
   -1.9486    3.3750    0.0000 Si  0  0  0  0  0  4  0  0  0  0  0  0
  2  3  1  0
  2  4  1  0
  2  5  1  0
  6  7  1  0
  6  8  1  0
  6  9  1  0
 10  1  1  0
 11 10  1  0
 12 11  1  0
 13  2  1  0
 13  6  1  0
 13 12  1  0
M  ISO  6   3   2   4   2   5   2   7   2   8   2   9   2
M  END
>  <NAME>  (94) 
BUTYLDIMETHYLSILANE (D6)

>  <SYNONYMS>  (94) 


>  <SPECTRUM TYPE>  (94) 
MS1

>  <INSTRUMENT TYPE>  (94) 
EI-B

>  <INSTRUMENT>  (94) 
HITACHI RMU-6M

>  <ION MODE>  (94) 
P

>  <INCHIKEY>  (94) 
HXLVDKGPVGFXTH-XERRXZQWSA-N

>  <FORMULA>  (94) 
C6H16Si

>  <EXACT MASS>  (94) 
122.13978751799999

>  <MW>  (94) 
122

>  <ID>  (94) 
JP012042

>  <CONTRIBUTOR>  (94) 
University of Tokyo Team, {Faculty of Engineering, University of Tokyo

>  <COMMENT>  (94) 
SMILES=CCCC[SiH](C([2H])([2H])[2H])C([2H])([2H])[2H]
InChI=InChI=1S/C6H16Si/c1-4-5-6-7(2)3/h7H,4-6H2,1-3H3/i2D3,3D3
computed SMILES=[H]C([H])([H])[SiH](CCCC)C([H])([H])[H]
accession=JP012042
date=2016.01.19 (Created 2008.10.21, modified 2011.05.06)
author=YAMAMOTO M, DEP. CHEMISTRY, FAC. SCIENCE, NARA WOMEN'S UNIV.
license=CC BY-NC-SA
exact mass=116.10213
ionization energy=70 eV
ion type=[M]+*
computed spectral entropy=2.798771532489708
computed normalized entropy=0.7750858923403792
SPLASH=splash10-014i-9000000000-f311ab30df3f22c723bd
submitter=submitter = University of Tokyo Team (Faculty of Engineering, University of Tokyo)
MoNA Rating=3.75

>  <NUM PEAKS>  (94) 
37

>  <MASS SPECTRAL PEAKS>  (94) 
27 5.7
28 2
29 3.3
30 3.3
33 5.2
34 4.2
39 2.3
41 2
43 2.1
44 2
45 4.2
46 12.2
47 3.6
48 11.1
49 1.6
55 1.8
56 3.4
61 2.3
62 20.4
63 2.4
64 16.6
65 99.99
66 9.1
67 3.6
74 1.6
75 3.6
76 8.2
78 2.3
79 3.3
91 1
92 7.2
93 24.3
94 3
104 6.4
120 8.8
121 4.9
122 1.8

$$$$

     RDKit          2D

  7  6  0  0  0  0  0  0  0  0999 V2000
    1.6238    3.1875    0.0000 C   0  0  0  0  0  0  0  0  0  0  0  0
   -4.8714    3.9375    0.0000 C   0  0  0  0  0  0  0  0  0  0  0  0
   -3.5724    1.6875    0.0000 C   0  0  0  0  0  0  0  0  0  0  0  0
    0.3248    3.9375    0.0000 C   0  0  0  0  0  0  0  0  0  0  0  0
   -0.9743    3.1875    0.0000 C   0  0  0  0  0  0  0  0  0  0  0  0
   -2.2733    3.9375    0.0000 C   0  0  0  0  0  0  0  0  0  0  0  0
   -3.5724    3.1875    0.0000 Si  0  0  0  0  0  4  0  0  0  0  0  0
  4  1  1  0
  5  4  1  0
  6  5  1  0
  7  2  1  0
  7  3  1  0
  7  6  1  0
M  END
>  <NAME>  (95) 
BUTYLDIMETHYLSILANE

>  <SYNONYMS>  (95) 


>  <SPECTRUM TYPE>  (95) 
MS1

>  <INSTRUMENT TYPE>  (95) 
EI-B

>  <INSTRUMENT>  (95) 
HITACHI RMU-6M

>  <ION MODE>  (95) 
P

>  <INCHIKEY>  (95) 
HXLVDKGPVGFXTH-UHFFFAOYSA-N

>  <FORMULA>  (95) 
C6H16Si

>  <EXACT MASS>  (95) 
116.102127042

>  <MW>  (95) 
116

>  <ID>  (95) 
JP012041

>  <CONTRIBUTOR>  (95) 
University of Tokyo Team, {Faculty of Engineering, University of Tokyo

>  <COMMENT>  (95) 
SMILES=CCCC[SiH](C)C
InChI=InChI=1S/C6H16Si/c1-4-5-6-7(2)3/h7H,4-6H2,1-3H3
computed SMILES=CCCC[SiH](C)C
accession=JP012041
date=2016.01.19 (Created 2008.10.21, modified 2011.05.06)
author=YAMAMOTO M, DEP. CHEMISTRY, FAC. SCIENCE, NARA WOMEN'S UNIV.
license=CC BY-NC-SA
exact mass=116.10213
ionization energy=70 eV
ion type=[M]+*
computed spectral entropy=2.6553971927058946
computed normalized entropy=0.7530135317048815
SPLASH=splash10-0a4i-9000000000-6634b2afa59777099179
submitter=submitter = University of Tokyo Team (Faculty of Engineering, University of Tokyo)
MoNA Rating=3.75

>  <NUM PEAKS>  (95) 
34

>  <MASS SPECTRAL PEAKS>  (95) 
27 4.1
28 2
29 3.9
31 6.4
32 1.1
39 2
41 2.7
42 2.3
43 14.6
44 3.6
45 13.1
46 1.2
53 1.4
55 2.4
56 3.2
57 2.5
58 15.2
59 99.99
60 8.3
61 4
71 1.6
72 5.4
73 12.9
74 1.7
85 1.2
86 7
87 22.3
88 3.1
89 1.1
101 7.5
102 1.1
114 10.5
115 5.5
116 2.4

$$$$

     RDKit          2D

 11 10  0  0  0  0  0  0  0  0999 V2000
   -6.3212    3.8505    0.0000 C   0  0  0  0  0  0  0  0  0  0  0  0
    0.1740    3.1005    0.0000 C   0  0  0  0  0  0  0  0  0  0  0  0
   -0.5760    1.8014    0.0000 H   0  0  0  0  0  0  0  0  0  0  0  0
    1.4731    2.3505    0.0000 H   0  0  0  0  0  0  0  0  0  0  0  0
    0.9240    4.3995    0.0000 H   0  0  0  0  0  0  0  0  0  0  0  0
   -5.0221    3.1005    0.0000 C   0  0  0  0  0  0  0  0  0  0  0  0
   -3.7231    3.8505    0.0000 C   0  0  0  0  0  0  0  0  0  0  0  0
   -2.4240    3.1005    0.0000 C   0  0  0  0  0  0  0  0  0  0  0  0
   -1.1250    3.8505    0.0000 Si  0  0  0  0  0  4  0  0  0  0  0  0
   -0.1608    4.9995    0.0000 H   0  0  0  0  0  0  0  0  0  0  0  0
   -2.0892    4.9995    0.0000 H   0  0  0  0  0  0  0  0  0  0  0  0
  2  3  1  0
  2  4  1  0
  2  5  1  0
  9 10  1  0
  9 11  1  0
  6  1  1  0
  7  6  1  0
  8  7  1  0
  9  2  1  0
  9  8  1  0
M  ISO  5   3   2   4   2   5   2  10   2  11   2
M  END
>  <NAME>  (96) 
BUTYLMETHYLSILANE (5,5,6,6,6-D5)

>  <SYNONYMS>  (96) 


>  <SPECTRUM TYPE>  (96) 
MS1

>  <INSTRUMENT TYPE>  (96) 
EI-B

>  <INSTRUMENT>  (96) 
HITACHI RMU-6M

>  <ION MODE>  (96) 
P

>  <INCHIKEY>  (96) 
MFGTZDMAYACKNE-QKLSXCJMSA-N

>  <FORMULA>  (96) 
C5H14Si

>  <EXACT MASS>  (96) 
107.117860708

>  <MW>  (96) 
107

>  <ID>  (96) 
JP012040

>  <CONTRIBUTOR>  (96) 
University of Tokyo Team, {Faculty of Engineering, University of Tokyo

>  <COMMENT>  (96) 
SMILES=CCCC[Si]([2H])([2H])C([2H])([2H])[2H]
InChI=InChI=1S/C5H14Si/c1-3-4-5-6-2/h3-6H2,1-2H3/i2D3,6D2
computed SMILES=[H]C([H])([H])[Si]([H])([H])CCCC
accession=JP012040
date=2016.01.19 (Created 2008.10.21, modified 2011.05.06)
author=YAMAMOTO M, DEP. CHEMISTRY, FAC. SCIENCE, NARA WOMEN'S UNIV.
license=CC BY-NC-SA
exact mass=102.08648
ionization energy=70 eV
ion type=[M]+*
computed spectral entropy=3.066958531502162
computed normalized entropy=0.792249878748323
SPLASH=splash10-00dj-9000000000-88d0d6b268b6e0302a03
submitter=submitter = University of Tokyo Team (Faculty of Engineering, University of Tokyo)
MoNA Rating=3.75

>  <NUM PEAKS>  (96) 
48

>  <MASS SPECTRAL PEAKS>  (96) 
27 2.6
28 6.1
29 5.6
30 7.1
31 3.7
32 4.5
33 2.6
34 3.7
40 2.8
41 2.9
42 5
43 21.3
44 17.4
45 88.8
46 16.6
47 6.7
48 2.9
49 1.7
53 2.9
54 1.6
55 2.9
56 1.7
57 2.2
58 5.2
59 9.1
60 21
61 8.6
62 11.6
63 8.8
64 3.7
71 2.8
72 2.6
73 99.99
74 12.1
75 7.3
76 8.4
77 7.5
78 3.7
79 2.9
87 1.5
89 1.9
90 2.3
91 1.9
92 2.3
104 8
105 5.6
106 5.9
107 5.8

$$$$

     RDKit          2D

  9  8  0  0  0  0  0  0  0  0999 V2000
   -6.3212    3.8505    0.0000 C   0  0  0  0  0  0  0  0  0  0  0  0
    0.1740    3.1005    0.0000 C   0  0  0  0  0  0  0  0  0  0  0  0
   -0.5760    1.8014    0.0000 H   0  0  0  0  0  0  0  0  0  0  0  0
    1.4731    2.3505    0.0000 H   0  0  0  0  0  0  0  0  0  0  0  0
    0.9240    4.3995    0.0000 H   0  0  0  0  0  0  0  0  0  0  0  0
   -5.0221    3.1005    0.0000 C   0  0  0  0  0  0  0  0  0  0  0  0
   -3.7231    3.8505    0.0000 C   0  0  0  0  0  0  0  0  0  0  0  0
   -2.4240    3.1005    0.0000 C   0  0  0  0  0  0  0  0  0  0  0  0
   -1.1250    3.8505    0.0000 Si  0  0  0  0  0  4  0  0  0  0  0  0
  2  3  1  0
  2  4  1  0
  2  5  1  0
  6  1  1  0
  7  6  1  0
  8  7  1  0
  9  2  1  0
  9  8  1  0
M  ISO  3   3   2   4   2   5   2
M  END
>  <NAME>  (97) 
BUTYLMETHYLSILANE (6,6,6-D3)

>  <SYNONYMS>  (97) 


>  <SPECTRUM TYPE>  (97) 
MS1

>  <INSTRUMENT TYPE>  (97) 
EI-B

>  <INSTRUMENT>  (97) 
HITACHI RMU-6M

>  <ION MODE>  (97) 
P

>  <INCHIKEY>  (97) 
MFGTZDMAYACKNE-BMSJAHLVSA-N

>  <FORMULA>  (97) 
C5H14Si

>  <EXACT MASS>  (97) 
105.105307216

>  <MW>  (97) 
105

>  <ID>  (97) 
JP012039

>  <CONTRIBUTOR>  (97) 
University of Tokyo Team, {Faculty of Engineering, University of Tokyo

>  <COMMENT>  (97) 
SMILES=CCCC[SiH2]C([2H])([2H])[2H]
InChI=InChI=1S/C5H14Si/c1-3-4-5-6-2/h3-6H2,1-2H3/i2D3
computed SMILES=[H]C([H])([H])[SiH2]CCCC
accession=JP012039
date=2016.01.19 (Created 2008.10.21, modified 2011.05.06)
author=YAMAMOTO M, DEP. CHEMISTRY, FAC. SCIENCE, NARA WOMEN'S UNIV.
license=CC BY-NC-SA
exact mass=102.08648
ionization energy=70 eV
ion type=[M]+*
computed spectral entropy=3.0356896719281576
computed normalized entropy=0.812187802014022
SPLASH=splash10-00dj-9000000000-e7ed11b0896881c60ab7
submitter=submitter = University of Tokyo Team (Faculty of Engineering, University of Tokyo)
MoNA Rating=3.75

>  <NUM PEAKS>  (97) 
42

>  <MASS SPECTRAL PEAKS>  (97) 
27 5.1
28 7.1
29 7.6
30 4.7
31 7.6
32 5.7
39 3.8
40 3
41 4.5
42 5.6
43 23.5
44 14.8
45 92.7
46 12
47 5.1
48 3.6
53 3.1
55 3.6
56 2.6
57 3.8
58 11.1
59 25.3
60 8.1
61 7.2
62 17.2
63 2.5
69 3.8
71 4.3
72 3.5
73 99.99
74 12.7
75 19.5
76 7.5
77 4.8
87 2.3
88 4
89 3
90 3
103 16.9
104 7.1
105 7
106 2.3

$$$$

     RDKit          2D

  8  7  0  0  0  0  0  0  0  0999 V2000
    1.5368    3.1373    0.0000 C   0  0  0  0  0  0  0  0  0  0  0  0
   -4.4094    4.4363    0.0000 C   0  0  0  0  0  0  0  0  0  0  0  0
    0.2377    3.8873    0.0000 C   0  0  0  0  0  0  0  0  0  0  0  0
   -1.0613    3.1373    0.0000 C   0  0  0  0  0  0  0  0  0  0  0  0
   -2.3603    3.8873    0.0000 C   0  0  0  0  0  0  0  0  0  0  0  0
   -3.6594    3.1373    0.0000 Si  0  0  0  0  0  4  0  0  0  0  0  0
   -4.9584    2.3873    0.0000 H   0  0  0  0  0  0  0  0  0  0  0  0
   -2.9094    1.8382    0.0000 H   0  0  0  0  0  0  0  0  0  0  0  0
  6  7  1  0
  6  8  1  0
  3  1  1  0
  4  3  1  0
  5  4  1  0
  6  2  1  0
  6  5  1  0
M  ISO  2   7   2   8   2
M  END
>  <NAME>  (98) 
BUTYLMETHYLSILANE (5,5-D2)

>  <SYNONYMS>  (98) 


>  <SPECTRUM TYPE>  (98) 
MS1

>  <INSTRUMENT TYPE>  (98) 
EI-B

>  <INSTRUMENT>  (98) 
HITACHI RMU-6M

>  <ION MODE>  (98) 
P

>  <INCHIKEY>  (98) 
MFGTZDMAYACKNE-NCYHJHSESA-N

>  <FORMULA>  (98) 
C5H14Si

>  <EXACT MASS>  (98) 
104.09903047

>  <MW>  (98) 
104

>  <ID>  (98) 
JP012038

>  <CONTRIBUTOR>  (98) 
University of Tokyo Team, {Faculty of Engineering, University of Tokyo

>  <COMMENT>  (98) 
SMILES=CCCC[Si]([2H])([2H])C
InChI=InChI=1S/C5H14Si/c1-3-4-5-6-2/h3-6H2,1-2H3/i6D2
computed SMILES=[H][Si]([H])(C)CCCC
accession=JP012038
date=2016.01.19 (Created 2008.10.21, modified 2011.05.06)
author=YAMAMOTO M, DEP. CHEMISTRY, FAC. SCIENCE, NARA WOMEN'S UNIV.
license=CC BY-NC-SA
exact mass=102.08648
ionization energy=70 eV
ion type=[M]+*
computed spectral entropy=3.0352132531935334
computed normalized entropy=0.806979995701144
SPLASH=splash10-00dj-9000000000-00173b9c3eb984a8be86
submitter=submitter = University of Tokyo Team (Faculty of Engineering, University of Tokyo)
MoNA Rating=3.75

>  <NUM PEAKS>  (98) 
43

>  <MASS SPECTRAL PEAKS>  (98) 
26 1.9
27 5
28 7.2
29 7
30 6.6
31 6.1
32 2.7
39 3.9
40 4.8
41 4.6
42 6.9
43 22.6
44 15.5
45 90.8
46 14.6
47 5.3
53 3.2
54 2.2
55 3.4
56 7.7
57 21.2
58 8.3
59 18.4
60 18.6
61 8.5
62 2
70 1.7
71 3.8
72 8.2
73 99.99
74 17.6
75 8.5
76 4.4
86 2.7
87 3
88 2.8
89 3.7
100 2
101 6.7
102 5.1
103 5.8
104 6.3
105 2

$$$$

     RDKit          2D

  6  5  0  0  0  0  0  0  0  0999 V2000
    0.0502    1.3125    0.0000 C   0  0  0  0  0  0  0  0  0  0  0  0
    0.8002    0.0135    0.0000 H   0  0  0  0  0  0  0  0  0  0  0  0
   -0.6998    2.6115    0.0000 H   0  0  0  0  0  0  0  0  0  0  0  0
   -1.2488    0.5625    0.0000 H   0  0  0  0  0  0  0  0  0  0  0  0
    1.3493    2.0625    0.0000 C   0  0  0  0  0  0  0  0  0  0  0  0
    1.3493    3.5625    0.0000 I   0  0  0  0  0  0  0  0  0  0  0  0
  1  2  1  0
  1  3  1  0
  1  4  1  0
  5  1  1  0
  6  5  1  0
M  ISO  3   2   2   3   2   4   2
M  END
>  <NAME>  (99) 
IODOETHANE (2,2,2-D3)

>  <SYNONYMS>  (99) 


>  <SPECTRUM TYPE>  (99) 
MS1

>  <INSTRUMENT TYPE>  (99) 
EI-B

>  <INSTRUMENT>  (99) 
HITACHI RMU-6M

>  <ION MODE>  (99) 
P

>  <INCHIKEY>  (99) 
HVTICUPFWKNHNG-FIBGUPNXSA-N

>  <FORMULA>  (99) 
C2H5I

>  <EXACT MASS>  (99) 
158.962428398

>  <MW>  (99) 
159

>  <ID>  (99) 
JP012037

>  <CONTRIBUTOR>  (99) 
University of Tokyo Team, {Faculty of Engineering, University of Tokyo

>  <COMMENT>  (99) 
SMILES=[2H]C([2H])([2H])CI
InChI=InChI=1S/C2H5I/c1-2-3/h2H2,1H3/i1D3
computed SMILES=[H]C([H])([H])CI
accession=JP012037
date=2016.01.19 (Created 2008.10.21, modified 2011.05.06)
author=YAMAMOTO M, DEP. CHEMISTRY, FAC. SCIENCE, NARA WOMEN'S UNIV.
license=CC BY-NC-SA
exact mass=155.94359
ionization energy=70 eV
ion type=[M]+*
computed spectral entropy=1.916376841976063
computed normalized entropy=0.650846173255926
SPLASH=splash10-0560-9500000000-2d3c41c1e499441fb310
submitter=submitter = University of Tokyo Team (Faculty of Engineering, University of Tokyo)
MoNA Rating=3.75

>  <NUM PEAKS>  (99) 
19

>  <MASS SPECTRAL PEAKS>  (99) 
18 1.5
26 1.3
27 5.2
28 17.7
29 35.7
30 11.7
31 3.6
32 99.99
33 2.7
48 1.1
127 16.9
128 2.2
129 2.6
139 1
140 1.2
141 1.5
158 1.6
159 75.7
160 2.5

$$$$

     RDKit          2D

 12 11  0  0  0  0  0  0  0  0999 V2000
    0.0000    0.0000    0.0000 C   0  0  0  0  0  0  0  0  0  0  0  0
   -5.1962    4.5000    0.0000 C   0  0  0  0  0  0  0  0  0  0  0  0
    0.6235    4.6465    0.0000 C   0  0  0  0  0  0  0  0  0  0  0  0
   -2.1955    5.6726    0.0000 C   0  0  0  0  0  0  0  0  0  0  0  0
    0.0000    1.5000    0.0000 C   0  0  0  0  0  0  0  0  0  0  0  0
   -3.8971    3.7500    0.0000 C   0  0  0  0  0  0  0  0  0  0  0  0
   -1.2990    2.2500    0.0000 C   0  0  0  0  0  0  0  0  0  0  0  0
   -2.5981    4.5000    0.0000 C   0  0  0  0  0  0  0  0  0  0  0  0
   -0.7860    5.1595    0.0000 Si  0  0  0  0  0  4  0  0  0  0  0  0
   -0.2730    6.5691    0.0000 H   0  0  0  0  0  0  0  0  0  0  0  0
   -1.2990    3.7500    0.0000 Si  0  0  0  0  0  4  0  0  0  0  0  0
    0.1782    3.4895    0.0000 H   0  0  0  0  0  0  0  0  0  0  0  0
  9 10  1  0
 11 12  1  0
  5  1  1  0
  6  2  1  0
  7  5  1  0
  8  6  1  0
  9  3  1  0
  9  4  1  0
 11  7  1  0
 11  8  1  0
 11  9  1  0
M  ISO  2  10   2  12   2
M  END
>  <NAME>  (100) 
1,1-DIMETHYL-2,2-DIPROPYLDISILANE (1,2-D2)

>  <SYNONYMS>  (100) 


>  <SPECTRUM TYPE>  (100) 
MS1

>  <INSTRUMENT TYPE>  (100) 
EI-B

>  <INSTRUMENT>  (100) 
HITACHI RMU-6M

>  <ION MODE>  (100) 
P

>  <INCHIKEY>  (100) 
UFXQZDUFUWDYOA-QDRJLNDYSA-N

>  <FORMULA>  (100) 
C8H22Si2

>  <EXACT MASS>  (100) 
176.13855725599998

>  <MW>  (100) 
176

>  <ID>  (100) 
JP012036

>  <CONTRIBUTOR>  (100) 
University of Tokyo Team, {Faculty of Engineering, University of Tokyo

>  <COMMENT>  (100) 
SMILES=CCC[Si]([2H])(CCC)[Si]([2H])(C)C
InChI=InChI=1S/C8H22Si2/c1-5-7-10(8-6-2)9(3)4/h9-10H,5-8H2,1-4H3/i9D,10D
computed SMILES=[H][Si](C)(C)[Si]([H])(CCC)CCC
accession=JP012036
date=2016.01.19 (Created 2008.10.21, modified 2011.05.06)
author=YAMAMOTO M, DEP. CHEMISTRY, FAC. SCIENCE, NARA WOMEN'S UNIV.
license=CC BY-NC-SA
exact mass=174.126
ionization energy=70 eV
ion type=[M]+*
computed spectral entropy=3.4580550833451227
computed normalized entropy=0.9194020464150336
SPLASH=splash10-01t9-9800000000-91224964d1e8a9276e05
submitter=submitter = University of Tokyo Team (Faculty of Engineering, University of Tokyo)
MoNA Rating=3.75

>  <NUM PEAKS>  (100) 
43

>  <MASS SPECTRAL PEAKS>  (100) 
43 18.7
44 13.1
45 22.4
46 17.6
47 6.5
58 15
59 20.6
60 27.1
70 8.4
71 16.8
72 19.6
73 28
74 28
75 9.3
85 11.2
86 47.7
87 20.6
88 22.4
89 12.1
90 15.9
91 19.6
99 6.5
101 7.5
103 7.5
104 8.4
105 8.4
114 75.7
115 31.8
116 27.1
117 10.3
118 9.3
119 10.3
129 8.4
131 7.5
132 7.5
133 8.4
134 8.4
149 6.5
159 6.5
161 9.3
176 99.99
177 23.4
178 12.1

$$$$

     RDKit          2D

 10  9  0  0  0  0  0  0  0  0999 V2000
    2.2733    2.8125    0.0000 C   0  0  0  0  0  0  0  0  0  0  0  0
   -5.5209    2.8125    0.0000 C   0  0  0  0  0  0  0  0  0  0  0  0
   -2.9228    5.8125    0.0000 C   0  0  0  0  0  0  0  0  0  0  0  0
   -0.3248    5.8125    0.0000 C   0  0  0  0  0  0  0  0  0  0  0  0
    0.9743    3.5625    0.0000 C   0  0  0  0  0  0  0  0  0  0  0  0
   -4.2219    3.5625    0.0000 C   0  0  0  0  0  0  0  0  0  0  0  0
   -0.3248    2.8125    0.0000 C   0  0  0  0  0  0  0  0  0  0  0  0
   -2.9228    2.8125    0.0000 C   0  0  0  0  0  0  0  0  0  0  0  0
   -1.6238    5.0625    0.0000 Si  0  0  0  0  0  4  0  0  0  0  0  0
   -1.6238    3.5625    0.0000 Si  0  0  0  0  0  4  0  0  0  0  0  0
  5  1  1  0
  6  2  1  0
  7  5  1  0
  8  6  1  0
  9  3  1  0
  9  4  1  0
 10  7  1  0
 10  8  1  0
 10  9  1  0
M  END
>  <NAME>  (101) 
1,1-DIMETHYL-2,2-DIPROPYLDISILANE

>  <SYNONYMS>  (101) 


>  <SPECTRUM TYPE>  (101) 
MS1

>  <INSTRUMENT TYPE>  (101) 
EI-B

>  <INSTRUMENT>  (101) 
HITACHI RMU-6M

>  <ION MODE>  (101) 
P

>  <INCHIKEY>  (101) 
UFXQZDUFUWDYOA-UHFFFAOYSA-N

>  <FORMULA>  (101) 
C8H22Si2

>  <EXACT MASS>  (101) 
174.126003764

>  <MW>  (101) 
174

>  <ID>  (101) 
JP012035

>  <CONTRIBUTOR>  (101) 
University of Tokyo Team, {Faculty of Engineering, University of Tokyo

>  <COMMENT>  (101) 
SMILES=CCC[SiH](CCC)[SiH](C)C
InChI=InChI=1S/C8H22Si2/c1-5-7-10(8-6-2)9(3)4/h9-10H,5-8H2,1-4H3
computed SMILES=CCC[SiH](CCC)[SiH](C)C
accession=JP012035
date=2016.01.19 (Created 2008.10.21, modified 2011.05.06)
author=YAMAMOTO M, DEP. CHEMISTRY, FAC. SCIENCE, NARA WOMEN'S UNIV.
license=CC BY-NC-SA
exact mass=174.126
ionization energy=70 eV
ion type=[M]+*
computed spectral entropy=3.373207055791045
computed normalized entropy=0.8913948248144021
SPLASH=splash10-022i-7900000000-c12a247bcd7c9caf5d4a
submitter=submitter = University of Tokyo Team (Faculty of Engineering, University of Tokyo)
MoNA Rating=3.75

>  <NUM PEAKS>  (101) 
44

>  <MASS SPECTRAL PEAKS>  (101) 
43 8.8
44 5.3
45 9.6
55 5.3
57 5.3
58 7
59 15.8
69 5.3
70 6.1
71 9.6
72 25.4
73 26.3
74 8.8
75 6.1
85 13.2
86 42.1
87 24.6
88 13.2
89 26.3
90 7
91 5.3
99 7.9
100 5.3
101 7.9
102 4.4
103 13.1
104 5.3
105 6.1
114 99.99
115 29.8
116 14
117 12.3
118 4.4
119 4.4
129 7.9
130 6.1
131 11.4
158 7
159 7
160 5.3
173 9.6
174 50.9
175 14
176 7

$$$$

     RDKit          2D

 14 13  0  0  0  0  0  0  0  0999 V2000
   -8.4437    5.6250    0.0000 C   0  0  0  0  0  0  0  0  0  0  0  0
    3.2476    4.8750    0.0000 C   0  0  0  0  0  0  0  0  0  0  0  0
   -4.2118    6.7741    0.0000 C   0  0  0  0  0  0  0  0  0  0  0  0
   -0.9844    3.7259    0.0000 C   0  0  0  0  0  0  0  0  0  0  0  0
   -7.1447    4.8750    0.0000 C   0  0  0  0  0  0  0  0  0  0  0  0
    1.9486    5.6250    0.0000 C   0  0  0  0  0  0  0  0  0  0  0  0
   -5.8457    5.6250    0.0000 C   0  0  0  0  0  0  0  0  0  0  0  0
    0.6495    4.8750    0.0000 C   0  0  0  0  0  0  0  0  0  0  0  0
   -4.5466    4.8750    0.0000 C   0  0  0  0  0  0  0  0  0  0  0  0
   -0.6495    5.6250    0.0000 C   0  0  0  0  0  0  0  0  0  0  0  0
   -3.2476    5.6250    0.0000 Si  0  0  0  0  0  4  0  0  0  0  0  0
   -2.2834    6.7741    0.0000 H   0  0  0  0  0  0  0  0  0  0  0  0
   -1.9486    4.8750    0.0000 Si  0  0  0  0  0  4  0  0  0  0  0  0
   -2.9127    3.7259    0.0000 H   0  0  0  0  0  0  0  0  0  0  0  0
 11 12  1  0
 13 14  1  0
  5  1  1  0
  6  2  1  0
  7  5  1  0
  8  6  1  0
  9  7  1  0
 10  8  1  0
 11  3  1  0
 11  9  1  0
 13  4  1  0
 13 10  1  0
 13 11  1  0
M  ISO  2  12   2  14   2
M  END
>  <NAME>  (102) 
1,2-DIBUTYL-1,2-DIMETHYLDISILANE (1,2-D2)

>  <SYNONYMS>  (102) 


>  <SPECTRUM TYPE>  (102) 
MS1

>  <INSTRUMENT TYPE>  (102) 
EI-B

>  <INSTRUMENT>  (102) 
HITACHI RMU-6M

>  <ION MODE>  (102) 
P

>  <INCHIKEY>  (102) 
NSYKINUQOKOVNW-USUSYXOVSA-N

>  <FORMULA>  (102) 
C10H26Si2

>  <EXACT MASS>  (102) 
204.16985738399998

>  <MW>  (102) 
204

>  <ID>  (102) 
JP012034

>  <CONTRIBUTOR>  (102) 
University of Tokyo Team, {Faculty of Engineering, University of Tokyo

>  <COMMENT>  (102) 
SMILES=CCCC[Si]([2H])(C)[Si]([2H])(C)CCCC
InChI=InChI=1S/C10H26Si2/c1-5-7-9-11(3)12(4)10-8-6-2/h11-12H,5-10H2,1-4H3/i11D,12D
computed SMILES=[H][Si](C)(CCCC)[Si]([H])(C)CCCC
computed normalized entropy=0.8400886554498438
accession=JP012034
date=2016.01.19 (Created 2008.10.21, modified 2011.05.06)
author=YAMAMOTO M, DEP. CHEMISTRY, FAC. SCIENCE, NARA WOMEN'S UNIV.
license=CC BY-NC-SA
exact mass=202.1573
ionization energy=70 eV
ion type=[M]+*
computed spectral entropy=3.2694740814921666
SPLASH=splash10-00di-9100000000-75396bd7ce558fb1b791
submitter=submitter = University of Tokyo Team (Faculty of Engineering, University of Tokyo)
MoNA Rating=3.75

>  <NUM PEAKS>  (102) 
49

>  <MASS SPECTRAL PEAKS>  (102) 
27 6.7
28 2
29 10
31 2.7
39 2.7
41 4
43 38
44 16.7
45 28.7
46 42
47 4.7
55 4.7
56 2
57 2.7
58 14.7
59 70
60 40
61 4
69 2
71 8
72 99.99
73 33.3
74 20
75 2.7
76 2
77 2
85 15.3
86 9.3
87 8
88 10.7
89 8.7
90 15.3
91 18.7
92 3.3
99 2.7
100 27.3
101 20
102 26.7
103 5.3
104 4
105 3.3
115 4
118 1.3
119 2
122 1.3
147 2.7
204 17.3
205 2.7
206 1.3

$$$$

     RDKit          2D

 12 11  0  0  0  0  0  0  0  0999 V2000
   -8.4437    5.6250    0.0000 C   0  0  0  0  0  0  0  0  0  0  0  0
    3.2476    4.8750    0.0000 C   0  0  0  0  0  0  0  0  0  0  0  0
   -3.2476    7.1250    0.0000 C   0  0  0  0  0  0  0  0  0  0  0  0
   -1.9486    3.3750    0.0000 C   0  0  0  0  0  0  0  0  0  0  0  0
   -7.1447    4.8750    0.0000 C   0  0  0  0  0  0  0  0  0  0  0  0
    1.9486    5.6250    0.0000 C   0  0  0  0  0  0  0  0  0  0  0  0
   -5.8457    5.6250    0.0000 C   0  0  0  0  0  0  0  0  0  0  0  0
    0.6495    4.8750    0.0000 C   0  0  0  0  0  0  0  0  0  0  0  0
   -4.5466    4.8750    0.0000 C   0  0  0  0  0  0  0  0  0  0  0  0
   -0.6495    5.6250    0.0000 C   0  0  0  0  0  0  0  0  0  0  0  0
   -3.2476    5.6250    0.0000 Si  0  0  0  0  0  4  0  0  0  0  0  0
   -1.9486    4.8750    0.0000 Si  0  0  0  0  0  4  0  0  0  0  0  0
  5  1  1  0
  6  2  1  0
  7  5  1  0
  8  6  1  0
  9  7  1  0
 10  8  1  0
 11  3  1  0
 11  9  1  0
 12  4  1  0
 12 10  1  0
 12 11  1  0
M  END
>  <NAME>  (103) 
1,2-DIBUTYL-1,2-DIMETHYLDISILANE

>  <SYNONYMS>  (103) 


>  <SPECTRUM TYPE>  (103) 
MS1

>  <INSTRUMENT TYPE>  (103) 
EI-B

>  <INSTRUMENT>  (103) 
HITACHI RMU-6M

>  <ION MODE>  (103) 
P

>  <INCHIKEY>  (103) 
NSYKINUQOKOVNW-UHFFFAOYSA-N

>  <FORMULA>  (103) 
C10H26Si2

>  <EXACT MASS>  (103) 
202.157303892

>  <MW>  (103) 
202

>  <ID>  (103) 
JP012033

>  <CONTRIBUTOR>  (103) 
University of Tokyo Team, {Faculty of Engineering, University of Tokyo

>  <COMMENT>  (103) 
SMILES=CCCC[SiH](C)[SiH](C)CCCC
InChI=InChI=1S/C10H26Si2/c1-5-7-9-11(3)12(4)10-8-6-2/h11-12H,5-10H2,1-4H3
computed SMILES=CCCC[SiH](C)[SiH](C)CCCC
accession=JP012033
date=2016.01.19 (Created 2008.10.21, modified 2011.05.06)
author=YAMAMOTO M, DEP. CHEMISTRY, FAC. SCIENCE, NARA WOMEN'S UNIV.
license=CC BY-NC-SA
exact mass=202.1573
ionization energy=70 eV
ion type=[M]+*
computed spectral entropy=3.2238513091046084
computed normalized entropy=0.7906368374183714
SPLASH=splash10-0kmi-9100000000-33d5bab3dc05e2f20bfe
submitter=submitter = University of Tokyo Team (Faculty of Engineering, University of Tokyo)
MoNA Rating=3.75

>  <NUM PEAKS>  (103) 
59

>  <MASS SPECTRAL PEAKS>  (103) 
27 9.2
28 1.9
29 9.5
31 3.5
39 3
41 4.3
42 1.9
43 40.7
44 8.9
45 61
46 3.5
47 2.7
53 1.4
54 1.1
55 5.4
56 1.4
57 4.9
58 15.7
59 97.6
60 7.3
61 3.5
67 1.1
69 2.7
70 1.6
71 11.9
72 99.99
73 39.8
74 6.8
75 3.8
83 2.4
84 1.4
85 34.7
86 8.7
87 15.2
88 10.8
89 33.1
90 4.9
91 2.7
97 1.4
99 6.8
100 36.6
101 27.9
102 4.1
103 9.5
104 1.6
105 2.2
115 3.8
117 3.3
121 2.7
130 1.4
131 2.7
145 4.1
146 1.1
157 1.4
186 1.4
187 1.4
202 16.8
203 3.8
204 1.4

$$$$

     RDKit          2D

 11 10  0  0  0  0  0  0  0  0999 V2000
   -6.3212    3.8505    0.0000 C   0  0  0  0  0  0  0  0  0  0  0  0
   -0.5760    1.8014    0.0000 C   0  0  0  0  0  0  0  0  0  0  0  0
    0.9240    4.3995    0.0000 C   0  0  0  0  0  0  0  0  0  0  0  0
   -2.0892    4.9995    0.0000 C   0  0  0  0  0  0  0  0  0  0  0  0
   -5.0221    3.1005    0.0000 C   0  0  0  0  0  0  0  0  0  0  0  0
   -3.7231    3.8505    0.0000 C   0  0  0  0  0  0  0  0  0  0  0  0
   -2.4240    3.1005    0.0000 C   0  0  0  0  0  0  0  0  0  0  0  0
    0.1740    3.1005    0.0000 Si  0  0  0  0  0  4  0  0  0  0  0  0
    1.4731    2.3505    0.0000 H   0  0  0  0  0  0  0  0  0  0  0  0
   -1.1250    3.8505    0.0000 Si  0  0  0  0  0  4  0  0  0  0  0  0
   -0.1608    4.9995    0.0000 H   0  0  0  0  0  0  0  0  0  0  0  0
  8  9  1  0
 10 11  1  0
  5  1  1  0
  6  5  1  0
  7  6  1  0
  8  2  1  0
  8  3  1  0
 10  4  1  0
 10  7  1  0
 10  8  1  0
M  ISO  2   9   2  11   2
M  END
>  <NAME>  (104) 
1-BUTYL-1,2,2-TRIMETHYLDISILANE (1,2-D2)

>  <SYNONYMS>  (104) 


>  <SPECTRUM TYPE>  (104) 
MS1

>  <INSTRUMENT TYPE>  (104) 
EI-B

>  <INSTRUMENT>  (104) 
HITACHI RMU-6M

>  <ION MODE>  (104) 
P

>  <INCHIKEY>  (104) 
UCLLPTUTMNRQBU-XETGXLELSA-N

>  <FORMULA>  (104) 
C7H20Si2

>  <EXACT MASS>  (104) 
162.12290719199999

>  <MW>  (104) 
162

>  <ID>  (104) 
JP012032

>  <CONTRIBUTOR>  (104) 
University of Tokyo Team, {Faculty of Engineering, University of Tokyo

>  <COMMENT>  (104) 
SMILES=CCCC[Si]([2H])(C)[Si]([2H])(C)C
InChI=InChI=1S/C7H20Si2/c1-5-6-7-9(4)8(2)3/h8-9H,5-7H2,1-4H3/i8D,9D
computed SMILES=[H][Si](C)(C)[Si]([H])(C)CCCC
accession=JP012032
date=2016.01.19 (Created 2008.10.21, modified 2011.05.06)
author=YAMAMOTO M, DEP. CHEMISTRY, FAC. SCIENCE, NARA WOMEN'S UNIV.
license=CC BY-NC-SA
exact mass=160.11035
ionization energy=70 eV
ion type=[M]+*
computed spectral entropy=3.3572991641333703
computed normalized entropy=0.8303874825538714
SPLASH=splash10-05fr-9200000000-4d3a991bd56c7928e6e8
submitter=submitter = University of Tokyo Team (Faculty of Engineering, University of Tokyo)
MoNA Rating=3.75

>  <NUM PEAKS>  (104) 
57

>  <MASS SPECTRAL PEAKS>  (104) 
27 7.3
28 3.4
29 7.1
30 1.1
31 8.5
32 5.1
39 3.7
41 4.2
42 2.8
43 50.8
44 15.8
45 22.9
46 30.5
47 4.8
53 2.8
54 1.1
55 6.2
56 2.3
57 3.4
58 31.9
59 66.9
60 64.4
61 7.3
62 2.3
69 3.7
70 2.3
71 8.2
72 99.99
73 44.9
74 21.2
75 3.7
83 1.1
85 15
86 7.6
87 4.5
88 5.1
89 7.1
90 7.6
91 8.5
92 1.4
99 2.3
100 26
101 10.7
102 22
103 6.5
104 8.5
105 17.8
106 3.4
107 1.4
115 2.3
122 5.4
137 2
145 1.4
147 2.5
162 20.3
163 3.4
164 1.7

$$$$

     RDKit          2D

  9  8  0  0  0  0  0  0  0  0999 V2000
    1.9486    3.3750    0.0000 C   0  0  0  0  0  0  0  0  0  0  0  0
   -5.8457    3.3750    0.0000 C   0  0  0  0  0  0  0  0  0  0  0  0
   -4.5466    5.6250    0.0000 C   0  0  0  0  0  0  0  0  0  0  0  0
   -3.2476    1.8750    0.0000 C   0  0  0  0  0  0  0  0  0  0  0  0
    0.6495    4.1250    0.0000 C   0  0  0  0  0  0  0  0  0  0  0  0
   -0.6495    3.3750    0.0000 C   0  0  0  0  0  0  0  0  0  0  0  0
   -1.9486    4.1250    0.0000 C   0  0  0  0  0  0  0  0  0  0  0  0
   -4.5466    4.1250    0.0000 Si  0  0  0  0  0  4  0  0  0  0  0  0
   -3.2476    3.3750    0.0000 Si  0  0  0  0  0  4  0  0  0  0  0  0
  5  1  1  0
  6  5  1  0
  7  6  1  0
  8  2  1  0
  8  3  1  0
  9  4  1  0
  9  7  1  0
  9  8  1  0
M  END
>  <NAME>  (105) 
1-BUTYL-1,2,2-TRIMETHYLDISILANE

>  <SYNONYMS>  (105) 


>  <SPECTRUM TYPE>  (105) 
MS1

>  <INSTRUMENT TYPE>  (105) 
EI-B

>  <INSTRUMENT>  (105) 
HITACHI RMU-6M

>  <ION MODE>  (105) 
P

>  <INCHIKEY>  (105) 
UCLLPTUTMNRQBU-UHFFFAOYSA-N

>  <FORMULA>  (105) 
C7H20Si2

>  <EXACT MASS>  (105) 
160.1103537

>  <MW>  (105) 
160

>  <ID>  (105) 
JP012031

>  <CONTRIBUTOR>  (105) 
University of Tokyo Team, {Faculty of Engineering, University of Tokyo

>  <COMMENT>  (105) 
SMILES=CCCC[SiH](C)[SiH](C)C
InChI=InChI=1S/C7H20Si2/c1-5-6-7-9(4)8(2)3/h8-9H,5-7H2,1-4H3
computed SMILES=CCCC[SiH](C)[SiH](C)C
accession=JP012031
date=2016.01.19 (Created 2008.10.21, modified 2011.05.06)
author=YAMAMOTO M, DEP. CHEMISTRY, FAC. SCIENCE, NARA WOMEN'S UNIV.
license=CC BY-NC-SA
exact mass=160.11035
ionization energy=70 eV
ion type=[M]+*
computed spectral entropy=3.1163586392332623
computed normalized entropy=0.7925983831266612
SPLASH=splash10-0pi0-9100000000-002a7a118d1830e2b1ff
submitter=submitter = University of Tokyo Team (Faculty of Engineering, University of Tokyo)
MoNA Rating=3.75

>  <NUM PEAKS>  (105) 
51

>  <MASS SPECTRAL PEAKS>  (105) 
27 5.8
28 2.9
29 6.7
31 13.3
39 2.5
41 2.9
42 2.9
43 52.1
44 8.3
45 46.7
46 2.9
47 1.3
53 2.5
55 5
56 1.7
57 4.2
58 25.8
59 99.99
60 6.7
61 2.9
67 1.3
69 5
70 1.3
71 8.3
72 70
73 45
74 5.4
75 1.7
81 1.3
83 1.3
84 1.3
85 13.8
86 5.4
87 5.4
88 6.7
89 10
90 1.7
99 2.9
100 21.7
101 20.4
102 4.7
103 20.8
104 3.3
105 2.1
115 1.7
121 2.9
136 3.3
144 1.7
145 1.7
160 13.8
161 2.1

$$$$

     RDKit          2D

 12 11  0  0  0  0  0  0  0  0999 V2000
   -6.4952    4.5000    0.0000 C   0  0  0  0  0  0  0  0  0  0  0  0
    2.5981    3.7500    0.0000 C   0  0  0  0  0  0  0  0  0  0  0  0
   -1.6339    2.6009    0.0000 C   0  0  0  0  0  0  0  0  0  0  0  0
   -2.2632    5.6491    0.0000 C   0  0  0  0  0  0  0  0  0  0  0  0
   -5.1962    3.7500    0.0000 C   0  0  0  0  0  0  0  0  0  0  0  0
    1.2990    4.5000    0.0000 C   0  0  0  0  0  0  0  0  0  0  0  0
   -3.8971    4.5000    0.0000 C   0  0  0  0  0  0  0  0  0  0  0  0
    0.0000    3.7500    0.0000 C   0  0  0  0  0  0  0  0  0  0  0  0
   -2.5981    3.7500    0.0000 Si  0  0  0  0  0  4  0  0  0  0  0  0
   -3.5623    2.6009    0.0000 H   0  0  0  0  0  0  0  0  0  0  0  0
   -1.2990    4.5000    0.0000 Si  0  0  0  0  0  4  0  0  0  0  0  0
   -0.3349    5.6491    0.0000 H   0  0  0  0  0  0  0  0  0  0  0  0
  9 10  1  0
 11 12  1  0
  5  1  1  0
  6  2  1  0
  7  5  1  0
  8  6  1  0
  9  3  1  0
  9  7  1  0
 11  4  1  0
 11  8  1  0
 11  9  1  0
M  ISO  2  10   2  12   2
M  END
>  <NAME>  (106) 
1,2-DIMETHYL-1,2-DIPROPYLDISILANE (1,2-D2)

>  <SYNONYMS>  (106) 


>  <SPECTRUM TYPE>  (106) 
MS1

>  <INSTRUMENT TYPE>  (106) 
EI-B

>  <INSTRUMENT>  (106) 
HITACHI RMU-6M

>  <ION MODE>  (106) 
P

>  <INCHIKEY>  (106) 
ZHXZTSLNKZHPGH-QDRJLNDYSA-N

>  <FORMULA>  (106) 
C8H22Si2

>  <EXACT MASS>  (106) 
176.13855725599998

>  <MW>  (106) 
176

>  <ID>  (106) 
JP012030

>  <CONTRIBUTOR>  (106) 
University of Tokyo Team, {Faculty of Engineering, University of Tokyo

>  <COMMENT>  (106) 
SMILES=CCC[Si]([2H])(C)[Si]([2H])(C)CCC
InChI=InChI=1S/C8H22Si2/c1-5-7-9(3)10(4)8-6-2/h9-10H,5-8H2,1-4H3/i9D,10D
computed SMILES=[H][Si](C)(CCC)[Si]([H])(C)CCC
accession=JP012030
date=2016.01.19 (Created 2008.10.21, modified 2011.05.06)
author=YAMAMOTO M, DEP. CHEMISTRY, FAC. SCIENCE, NARA WOMEN'S UNIV.
license=CC BY-NC-SA
exact mass=174.126
ionization energy=70 eV
ion type=[M]+*
computed spectral entropy=3.4732973080121616
computed normalized entropy=0.8044717707786113
SPLASH=splash10-0a4r-9100000000-912ea5dc01f87f9127db
submitter=submitter = University of Tokyo Team (Faculty of Engineering, University of Tokyo)
MoNA Rating=3.75

>  <NUM PEAKS>  (106) 
75

>  <MASS SPECTRAL PEAKS>  (106) 
27 6.7
28 3.5
29 3.5
31 4
32 3.2
39 3.7
41 4
42 2.7
43 46.4
44 17.1
45 28.8
46 48
47 6.7
48 1.9
53 1.6
55 3.7
56 1.6
57 2.1
58 96
59 99.99
60 60.8
61 8.5
62 2.7
67 1.6
69 4.5
70 2.7
71 12.5
72 10.1
73 10.6
74 4.3
75 4
76 3.7
77 3.7
84 1.9
85 6.7
86 64.8
87 48.8
88 34.1
89 15.5
90 20.8
91 26.1
92 5.1
93 2.7
100 1.1
101 13.6
102 2.1
103 4.8
104 7.2
105 5.3
106 4.3
107 7.2
108 1.3
115 2.7
117 3.7
118 2.7
119 4.3
120 1.6
128 1.1
129 5.1
130 1.3
131 2.4
132 2.7
133 9.9
134 2.9
135 1.3
148 2.9
149 4.3
150 1.1
151 1.1
159 1.6
161 1.9
175 1.9
176 35.7
177 7.2
178 2.7

$$$$

     RDKit          2D

 10  9  0  0  0  0  0  0  0  0999 V2000
   -6.4952    4.5000    0.0000 C   0  0  0  0  0  0  0  0  0  0  0  0
    2.5981    3.7500    0.0000 C   0  0  0  0  0  0  0  0  0  0  0  0
   -2.5981    2.2500    0.0000 C   0  0  0  0  0  0  0  0  0  0  0  0
   -1.2990    6.0000    0.0000 C   0  0  0  0  0  0  0  0  0  0  0  0
   -5.1962    3.7500    0.0000 C   0  0  0  0  0  0  0  0  0  0  0  0
    1.2990    4.5000    0.0000 C   0  0  0  0  0  0  0  0  0  0  0  0
   -3.8971    4.5000    0.0000 C   0  0  0  0  0  0  0  0  0  0  0  0
    0.0000    3.7500    0.0000 C   0  0  0  0  0  0  0  0  0  0  0  0
   -2.5981    3.7500    0.0000 Si  0  0  0  0  0  4  0  0  0  0  0  0
   -1.2990    4.5000    0.0000 Si  0  0  0  0  0  4  0  0  0  0  0  0
  5  1  1  0
  6  2  1  0
  7  5  1  0
  8  6  1  0
  9  3  1  0
  9  7  1  0
 10  4  1  0
 10  8  1  0
 10  9  1  0
M  END
>  <NAME>  (107) 
1,2-DIMETHYL-1,2-DIPROPYLDISILANE

>  <SYNONYMS>  (107) 


>  <SPECTRUM TYPE>  (107) 
MS1

>  <INSTRUMENT TYPE>  (107) 
EI-B

>  <INSTRUMENT>  (107) 
HITACHI RMU-6M

>  <ION MODE>  (107) 
P

>  <INCHIKEY>  (107) 
ZHXZTSLNKZHPGH-UHFFFAOYSA-N

>  <FORMULA>  (107) 
C8H22Si2

>  <EXACT MASS>  (107) 
174.12600376400002

>  <MW>  (107) 
174

>  <ID>  (107) 
JP012029

>  <CONTRIBUTOR>  (107) 
University of Tokyo Team, {Faculty of Engineering, University of Tokyo

>  <COMMENT>  (107) 
SMILES=CCC[SiH](C)[SiH](C)CCC
InChI=InChI=1S/C8H22Si2/c1-5-7-9(3)10(4)8-6-2/h9-10H,5-8H2,1-4H3
computed SMILES=CCC[SiH](C)[SiH](C)CCC
accession=JP012029
date=2016.01.19 (Created 2008.10.21, modified 2011.05.06)
author=YAMAMOTO M, DEP. CHEMISTRY, FAC. SCIENCE, NARA WOMEN'S UNIV.
license=CC BY-NC-SA
exact mass=174.126
ionization energy=70 eV
ion type=[M]+*
computed spectral entropy=2.999653016321673
computed normalized entropy=0.7791007843411938
SPLASH=splash10-0a4r-9100000000-b00288db9c5a85964142
submitter=submitter = University of Tokyo Team (Faculty of Engineering, University of Tokyo)
MoNA Rating=3.75

>  <NUM PEAKS>  (107) 
47

>  <MASS SPECTRAL PEAKS>  (107) 
27 3.8
28 2.2
29 3.2
31 4.3
39 2.2
41 2.2
42 1.6
43 37.6
44 7.5
45 47.3
46 3.2
55 2.2
57 1.6
58 67.7
59 99.99
60 9.1
61 3.2
69 3.2
70 1.6
71 11.8
72 2.2
73 8.6
74 3.2
75 2.7
85 6.5
86 66.1
87 28.5
88 11.8
89 27.4
90 3.8
91 2.2
101 8.6
102 1.1
103 9.1
105 3.2
115 2.2
116 3.2
117 3.8
129 3.8
130 2.2
131 6.5
147 2.7
158 3.2
159 1.1
174 25.8
175 4.3
176 3.2

$$$$

     RDKit          2D

 10  9  0  0  0  0  0  0  0  0999 V2000
   -5.3003    2.7389    0.0000 C   0  0  0  0  0  0  0  0  0  0  0  0
    0.6459    1.4399    0.0000 C   0  0  0  0  0  0  0  0  0  0  0  0
   -0.8541    4.0380    0.0000 C   0  0  0  0  0  0  0  0  0  0  0  0
   -0.4390    0.8399    0.0000 C   0  0  0  0  0  0  0  0  0  0  0  0
   -4.0012    1.9889    0.0000 C   0  0  0  0  0  0  0  0  0  0  0  0
   -2.7022    2.7389    0.0000 C   0  0  0  0  0  0  0  0  0  0  0  0
   -0.1041    2.7389    0.0000 Si  0  0  0  0  0  4  0  0  0  0  0  0
    1.1949    3.4889    0.0000 H   0  0  0  0  0  0  0  0  0  0  0  0
   -1.4031    1.9889    0.0000 Si  0  0  0  0  0  4  0  0  0  0  0  0
   -2.3673    0.8399    0.0000 H   0  0  0  0  0  0  0  0  0  0  0  0
  7  8  1  0
  9 10  1  0
  5  1  1  0
  6  5  1  0
  7  2  1  0
  7  3  1  0
  9  4  1  0
  9  6  1  0
  9  7  1  0
M  ISO  2   8   2  10   2
M  END
>  <NAME>  (108) 
1,1,2-TRIMETHYL-2-PROPYLDISILANE (D2)

>  <SYNONYMS>  (108) 


>  <SPECTRUM TYPE>  (108) 
MS1

>  <INSTRUMENT TYPE>  (108) 
EI-B

>  <INSTRUMENT>  (108) 
HITACHI RMU-6M

>  <ION MODE>  (108) 
P

>  <INCHIKEY>  (108) 
MVBTVTKKXMKCEV-QTQOOCSTSA-N

>  <FORMULA>  (108) 
C6H18Si2

>  <EXACT MASS>  (108) 
148.107257128

>  <MW>  (108) 
148

>  <ID>  (108) 
JP012028

>  <CONTRIBUTOR>  (108) 
University of Tokyo Team, {Faculty of Engineering, University of Tokyo

>  <COMMENT>  (108) 
SMILES=CCC[Si]([2H])(C)[Si]([2H])(C)C
InChI=InChI=1S/C6H18Si2/c1-5-6-8(4)7(2)3/h7-8H,5-6H2,1-4H3/i7D,8D
computed SMILES=[H][Si](C)(C)[Si]([H])(C)CCC
accession=JP012028
date=2016.01.19 (Created 2008.10.21, modified 2011.05.06)
license=CC BY-NC-SA
author=YAMAMOTO M, DEP. CHEMISTRY, FAC. SCIENCE, NARA WOMEN'S UNIV.
exact mass=146.0947
ionization energy=70 eV
ion type=[M]+*
computed spectral entropy=3.2149217389837985
computed normalized entropy=0.8176664072349029
SPLASH=splash10-0a4r-9100000000-71d0bdb09e646bad2407
submitter=submitter = University of Tokyo Team (Faculty of Engineering, University of Tokyo)
MoNA Rating=3.75

>  <NUM PEAKS>  (108) 
51

>  <MASS SPECTRAL PEAKS>  (108) 
17 2.8
18 8.5
27 3.4
28 3.4
29 5.7
31 9.9
32 6.4
39 2.2
41 2.2
42 3.5
43 54.6
44 19.9
45 21.3
46 33.3
47 5.7
53 1.4
55 3.5
57 2.2
58 99.99
59 80.9
60 87.9
61 9.2
62 2.8
69 5
70 2.8
71 11.3
72 4.3
73 31.2
74 7.1
75 2.2
85 3.5
86 55.3
87 23.4
88 24.8
89 9.2
90 6.4
91 14.9
92 1.4
100 1.4
101 9.2
102 2.8
103 6.4
104 9.9
105 22
106 3.5
107 1.4
131 3.5
133 3.5
148 31.2
149 5
150 2.8

$$$$

     RDKit          2D

  8  7  0  0  0  0  0  0  0  0999 V2000
    1.6238    3.1875    0.0000 C   0  0  0  0  0  0  0  0  0  0  0  0
   -4.8714    3.9375    0.0000 C   0  0  0  0  0  0  0  0  0  0  0  0
   -3.5724    1.6875    0.0000 C   0  0  0  0  0  0  0  0  0  0  0  0
   -2.2733    5.4375    0.0000 C   0  0  0  0  0  0  0  0  0  0  0  0
    0.3248    3.9375    0.0000 C   0  0  0  0  0  0  0  0  0  0  0  0
   -0.9743    3.1875    0.0000 C   0  0  0  0  0  0  0  0  0  0  0  0
   -3.5724    3.1875    0.0000 Si  0  0  0  0  0  4  0  0  0  0  0  0
   -2.2733    3.9375    0.0000 Si  0  0  0  0  0  4  0  0  0  0  0  0
  5  1  1  0
  6  5  1  0
  7  2  1  0
  7  3  1  0
  8  4  1  0
  8  6  1  0
  8  7  1  0
M  END
>  <NAME>  (109) 
1,1,2-TRIMETHYL-2-PROPYLDISILANE

>  <SYNONYMS>  (109) 


>  <SPECTRUM TYPE>  (109) 
MS1

>  <INSTRUMENT TYPE>  (109) 
EI-B

>  <INSTRUMENT>  (109) 
HITACHI RMU-6M

>  <ION MODE>  (109) 
P

>  <INCHIKEY>  (109) 
MVBTVTKKXMKCEV-UHFFFAOYSA-N

>  <FORMULA>  (109) 
C6H18Si2

>  <EXACT MASS>  (109) 
146.094703636

>  <MW>  (109) 
146

>  <ID>  (109) 
JP012027

>  <CONTRIBUTOR>  (109) 
University of Tokyo Team, {Faculty of Engineering, University of Tokyo

>  <COMMENT>  (109) 
SMILES=CCC[SiH](C)[SiH](C)C
InChI=InChI=1S/C6H18Si2/c1-5-6-8(4)7(2)3/h7-8H,5-6H2,1-4H3
computed SMILES=CCC[SiH](C)[SiH](C)C
accession=JP012027
date=2016.01.19 (Created 2008.10.21, modified 2011.05.06)
author=YAMAMOTO M, DEP. CHEMISTRY, FAC. SCIENCE, NARA WOMEN'S UNIV.
license=CC BY-NC-SA
exact mass=146.0947
ionization energy=70 eV
ion type=[M]+*
computed spectral entropy=2.9618620496953185
computed normalized entropy=0.7826938753670544
SPLASH=splash10-0a4r-9100000000-59c6ac2e4c747076f1b6
submitter=submitter = University of Tokyo Team (Faculty of Engineering, University of Tokyo)
MoNA Rating=3.75

>  <NUM PEAKS>  (109) 
44

>  <MASS SPECTRAL PEAKS>  (109) 
17 1.7
18 7.6
27 1.7
28 2.2
29 4.3
31 8.7
39 1.3
41 1.3
42 2.6
43 41.6
44 7.4
45 34.6
46 2.2
47 1.3
53 1.7
55 2.6
57 2.2
58 63.2
59 99.99
60 8.7
61 3.5
69 4.3
70 1.7
71 10
72 1.7
73 24.7
74 2.6
85 4.3
86 48.1
87 21.6
88 9.5
89 12.1
90 1.7
99 1.3
101 6.5
102 4.8
103 20.3
104 3.9
105 1.3
130 2.2
131 2.6
146 23.4
147 3.5
148 1.7

$$$$

     RDKit          2D

 11 10  0  0  0  0  0  0  0  0999 V2000
    2.0490    4.0981    0.0000 C   0  0  0  0  0  0  0  0  0  0  0  0
    3.5490    2.5981    0.0000 C   0  0  0  0  0  0  0  0  0  0  0  0
   -1.5000    2.0490    0.0000 C   0  0  0  0  0  0  0  0  0  0  0  0
    1.0981    0.5490    0.0000 C   0  0  0  0  0  0  0  0  0  0  0  0
    0.8095    4.0753    0.0000 C   0  0  0  0  0  0  0  0  0  0  0  0
   -0.8605    3.1111    0.0000 C   0  0  0  0  0  0  0  0  0  0  0  0
    2.0490    2.5981    0.0000 Si  0  0  0  0  0  4  0  0  0  0  0  0
    2.0490    1.0981    0.0000 H   0  0  0  0  0  0  0  0  0  0  0  0
   -0.2010    1.2990    0.0000 Si  0  0  0  0  0  4  0  0  0  0  0  0
   -0.9510    0.0000    0.0000 H   0  0  0  0  0  0  0  0  0  0  0  0
    0.5490    2.5981    0.0000 Si  0  0  0  0  0  4  0  0  0  0  0  0
  7  8  1  0
  9 10  1  0
  7  1  1  0
  7  2  1  0
  9  3  1  0
  9  4  1  0
 11  5  1  0
 11  6  1  0
 11  7  1  0
 11  9  1  0
M  ISO  2   8   2  10   2
M  END
>  <NAME>  (110) 
1,1,2,2,3,3-HEXAMETHYLTRISILANE (D2)

>  <SYNONYMS>  (110) 


>  <SPECTRUM TYPE>  (110) 
MS1

>  <INSTRUMENT TYPE>  (110) 
EI-B

>  <INSTRUMENT>  (110) 
HITACHI RMU-6M

>  <ION MODE>  (110) 
P

>  <INCHIKEY>  (110) 
JSBOVJABZFDRGV-QTQOOCSTSA-N

>  <FORMULA>  (110) 
C6H20Si3

>  <EXACT MASS>  (110) 
178.09983372199997

>  <MW>  (110) 
178

>  <ID>  (110) 
JP012026

>  <CONTRIBUTOR>  (110) 
University of Tokyo Team, {Faculty of Engineering, University of Tokyo

>  <COMMENT>  (110) 
SMILES=[2H][Si](C)(C)[Si](C)(C)[Si]([2H])(C)C
InChI=InChI=1S/C6H20Si3/c1-7(2)9(5,6)8(3)4/h7-8H,1-6H3/i7D,8D
computed SMILES=[H][Si](C)(C)[Si](C)(C)[Si]([H])(C)C
accession=JP012026
date=2016.01.19 (Created 2008.10.21, modified 2011.05.06)
author=YAMAMOTO M, DEP. CHEMISTRY, FAC. SCIENCE, NARA WOMEN'S UNIV.
license=CC BY-NC-SA
exact mass=176.08728
ionization energy=70 eV
ion type=[M]+*
computed spectral entropy=3.003804706378006
computed normalized entropy=0.7462216812736234
SPLASH=splash10-01b9-8900000000-d38bcb9b1b3073a9ce2a
submitter=submitter = University of Tokyo Team (Faculty of Engineering, University of Tokyo)
MoNA Rating=3.75

>  <NUM PEAKS>  (110) 
56

>  <MASS SPECTRAL PEAKS>  (110) 
28 2.1
29 3.7
31 7.4
32 4.4
42 1.7
43 31.6
44 6.6
45 15.1
46 4.1
53 2
55 1.8
57 2
58 5
59 12.3
60 27.1
61 2.2
62 1.1
69 4.6
70 1.6
71 2.3
72 1.3
73 91.6
74 11.7
75 3.6
83 1.4
84 1.3
85 3.3
86 4
87 1.6
88 3.1
89 1
99 3.1
100 2.9
101 9.8
102 10.3
103 7.1
104 2
105 1.7
115 3.6
116 99.99
117 13.4
118 83.7
119 11.4
120 5.3
122 1.3
131 1
132 1.4
160 1.7
161 2.9
163 12.7
164 2.9
165 1.3
177 1.6
178 8.1
179 1.7
180 1.1

$$$$

     RDKit          2D

  9  8  0  0  0  0  0  0  0  0999 V2000
   -3.0565    2.7353    0.0000 C   0  0  0  0  0  0  0  0  0  0  0  0
   -1.7574    0.4853    0.0000 C   0  0  0  0  0  0  0  0  0  0  0  0
    2.1397    2.7353    0.0000 C   0  0  0  0  0  0  0  0  0  0  0  0
    0.8406    0.4853    0.0000 C   0  0  0  0  0  0  0  0  0  0  0  0
    0.5058    3.8844    0.0000 C   0  0  0  0  0  0  0  0  0  0  0  0
   -1.4226    3.8844    0.0000 C   0  0  0  0  0  0  0  0  0  0  0  0
   -1.7574    1.9853    0.0000 Si  0  0  0  0  0  4  0  0  0  0  0  0
    0.8406    1.9853    0.0000 Si  0  0  0  0  0  4  0  0  0  0  0  0
   -0.4584    2.7353    0.0000 Si  0  0  0  0  0  4  0  0  0  0  0  0
  7  1  1  0
  7  2  1  0
  8  3  1  0
  8  4  1  0
  9  5  1  0
  9  6  1  0
  9  7  1  0
  9  8  1  0
M  END
>  <NAME>  (111) 
1,1,2,2,3,3-HEXAMETHYLTRISILANE

>  <SYNONYMS>  (111) 


>  <SPECTRUM TYPE>  (111) 
MS1

>  <INSTRUMENT TYPE>  (111) 
EI-B

>  <INSTRUMENT>  (111) 
HITACHI RMU-6M

>  <ION MODE>  (111) 
P

>  <INCHIKEY>  (111) 
JSBOVJABZFDRGV-UHFFFAOYSA-N

>  <FORMULA>  (111) 
C6H20Si3

>  <EXACT MASS>  (111) 
176.08728023

>  <MW>  (111) 
176

>  <ID>  (111) 
JP012025

>  <CONTRIBUTOR>  (111) 
University of Tokyo Team, {Faculty of Engineering, University of Tokyo

>  <COMMENT>  (111) 
SMILES=C[SiH](C)[Si](C)(C)[SiH](C)C
InChI=InChI=1S/C6H20Si3/c1-7(2)9(5,6)8(3)4/h7-8H,1-6H3
computed SMILES=C[SiH](C)[Si](C)(C)[SiH](C)C
accession=JP012025
date=2016.01.19 (Created 2008.10.21, modified 2011.05.06)
author=YAMAMOTO M, DEP. CHEMISTRY, FAC. SCIENCE, NARA WOMEN'S UNIV.
license=CC BY-NC-SA
exact mass=176.08728
ionization energy=70 eV
ion type=[M]+*
computed spectral entropy=2.9693503362935245
computed normalized entropy=0.7478921955733275
SPLASH=splash10-01b9-9800000000-ef0e18f8264da24d4b2e
submitter=submitter = University of Tokyo Team (Faculty of Engineering, University of Tokyo)
MoNA Rating=3.75

>  <NUM PEAKS>  (111) 
53

>  <MASS SPECTRAL PEAKS>  (111) 
28 1.2
29 4.1
31 11.9
42 2.3
43 39
44 4
45 20.2
46 1.4
54 2.1
56 2.3
57 2.8
58 5.1
59 42.4
60 2.8
61 1.4
69 6.1
70 2.1
71 3.4
73 99.99
74 7.8
75 3.5
81 1.7
83 1.9
84 2.8
85 7.3
86 2.1
87 4.3
97 1.1
99 4.7
100 1.8
101 19
102 8.6
103 4
113 1.5
115 6.1
116 86.7
117 80
118 16.1
119 5.4
121 1.5
129 1.2
131 2.9
145 1.5
157 1.2
159 3.1
160 3.7
161 12.1
162 3.2
163 1.4
175 2.3
176 8.1
177 1.8
178 1.2

$$$$

     RDKit          2D

 12 11  0  0  0  0  0  0  0  0999 V2000
    6.9976    3.7231    0.0000 C   0  0  0  0  0  0  0  0  0  0  0  0
    7.5466    1.6740    0.0000 C   0  0  0  0  0  0  0  0  0  0  0  0
    0.5024    4.4731    0.0000 C   0  0  0  0  0  0  0  0  0  0  0  0
   -0.9976    1.8750    0.0000 C   0  0  0  0  0  0  0  0  0  0  0  0
    3.6495    2.4240    0.0000 C   0  0  0  0  0  0  0  0  0  0  0  0
    2.3505    3.1740    0.0000 C   0  0  0  0  0  0  0  0  0  0  0  0
    4.9486    3.1740    0.0000 C   0  0  0  0  0  0  0  0  0  0  0  0
    1.0514    2.4240    0.0000 C   0  0  0  0  0  0  0  0  0  0  0  0
    6.2476    2.4240    0.0000 Si  0  0  0  0  0  4  0  0  0  0  0  0
    5.4976    1.1250    0.0000 H   0  0  0  0  0  0  0  0  0  0  0  0
   -0.2476    3.1740    0.0000 Si  0  0  0  0  0  4  0  0  0  0  0  0
   -1.5466    3.9240    0.0000 H   0  0  0  0  0  0  0  0  0  0  0  0
  9 10  1  0
 11 12  1  0
  6  5  1  0
  7  5  1  0
  8  6  1  0
  9  1  1  0
  9  2  1  0
  9  7  1  0
 11  3  1  0
 11  4  1  0
 11  8  1  0
M  ISO  2  10   2  12   2
M  END
>  <NAME>  (112) 
1,4-BIS(DIMETHYLSILYL)BUTANE (D2)

>  <SYNONYMS>  (112) 


>  <SPECTRUM TYPE>  (112) 
MS1

>  <INSTRUMENT TYPE>  (112) 
EI-B

>  <INSTRUMENT>  (112) 
HITACHI RMU-6M

>  <ION MODE>  (112) 
P

>  <INCHIKEY>  (112) 
QLPZDSWCLQMGCV-QDRJLNDYSA-N

>  <FORMULA>  (112) 
C8H22Si2

>  <EXACT MASS>  (112) 
176.13855725599998

>  <MW>  (112) 
176

>  <ID>  (112) 
JP012024

>  <CONTRIBUTOR>  (112) 
University of Tokyo Team, {Faculty of Engineering, University of Tokyo

>  <COMMENT>  (112) 
SMILES=[2H][Si](C)(C)CCCC[Si]([2H])(C)C
InChI=InChI=1S/C8H22Si2/c1-9(2)7-5-6-8-10(3)4/h9-10H,5-8H2,1-4H3/i9D,10D
computed SMILES=[H][Si](C)(C)CCCC[Si]([H])(C)C
accession=JP012024
date=2016.01.19 (Created 2008.10.21, modified 2011.05.06)
author=YAMAMOTO M, DEP. CHEMISTRY, FAC. SCIENCE, NARA WOMEN'S UNIV.
license=CC BY-NC-SA
exact mass=174.126
ionization energy=70 eV
ion type=[M]+*
computed spectral entropy=3.0964008295806287
computed normalized entropy=0.813416171751926
SPLASH=splash10-03dr-9200000000-45225927a464a0bf18b9
submitter=submitter = University of Tokyo Team (Faculty of Engineering, University of Tokyo)
MoNA Rating=3.75

>  <NUM PEAKS>  (112) 
45

>  <MASS SPECTRAL PEAKS>  (112) 
27 1.2
28 2.7
31 7.8
32 4.9
43 13.5
44 7.6
45 6.9
46 6.7
55 1.9
57 2.4
58 10.2
59 44.6
60 99.99
61 9.7
62 3.2
71 4.4
72 5.5
73 15
74 2.4
85 3.6
86 24.8
87 4
88 40.2
89 3.8
90 1.5
97 3.9
98 3.2
99 34
100 11.1
101 3
113 3
114 14
115 2.7
116 7.3
117 1.3
145 2.6
146 9.7
147 2.2
157 1.9
158 2.3
161 10.5
162 1.9
174 3.5
175 5.7
176 3.6

$$$$

     RDKit          2D

 10  9  0  0  0  0  0  0  0  0999 V2000
   -6.4952    4.5000    0.0000 C   0  0  0  0  0  0  0  0  0  0  0  0
   -5.1962    2.2500    0.0000 C   0  0  0  0  0  0  0  0  0  0  0  0
    2.5981    3.7500    0.0000 C   0  0  0  0  0  0  0  0  0  0  0  0
    1.2990    6.0000    0.0000 C   0  0  0  0  0  0  0  0  0  0  0  0
   -2.5981    3.7500    0.0000 C   0  0  0  0  0  0  0  0  0  0  0  0
   -1.2990    4.5000    0.0000 C   0  0  0  0  0  0  0  0  0  0  0  0
   -3.8971    4.5000    0.0000 C   0  0  0  0  0  0  0  0  0  0  0  0
    0.0000    3.7500    0.0000 C   0  0  0  0  0  0  0  0  0  0  0  0
   -5.1962    3.7500    0.0000 Si  0  0  0  0  0  4  0  0  0  0  0  0
    1.2990    4.5000    0.0000 Si  0  0  0  0  0  4  0  0  0  0  0  0
  6  5  1  0
  7  5  1  0
  8  6  1  0
  9  1  1  0
  9  2  1  0
  9  7  1  0
 10  3  1  0
 10  4  1  0
 10  8  1  0
M  END
>  <NAME>  (113) 
1,4-BIS(DIMETHYLSILYL)BUTANE

>  <SYNONYMS>  (113) 


>  <SPECTRUM TYPE>  (113) 
MS1

>  <INSTRUMENT TYPE>  (113) 
EI-B

>  <INSTRUMENT>  (113) 
HITACHI RMU-6M

>  <ION MODE>  (113) 
P

>  <INCHIKEY>  (113) 
QLPZDSWCLQMGCV-UHFFFAOYSA-N

>  <FORMULA>  (113) 
C8H22Si2

>  <EXACT MASS>  (113) 
174.12600376400002

>  <MW>  (113) 
174

>  <ID>  (113) 
JP012023

>  <CONTRIBUTOR>  (113) 
University of Tokyo Team, {Faculty of Engineering, University of Tokyo

>  <COMMENT>  (113) 
SMILES=C[SiH](C)CCCC[SiH](C)C
InChI=InChI=1S/C8H22Si2/c1-9(2)7-5-6-8-10(3)4/h9-10H,5-8H2,1-4H3
computed SMILES=C[SiH](C)CCCC[SiH](C)C
accession=JP012023
date=2016.01.19 (Created 2008.10.21, modified 2011.05.06)
author=YAMAMOTO M, DEP. CHEMISTRY, FAC. SCIENCE, NARA WOMEN'S UNIV.
license=CC BY-NC-SA
exact mass=174.126
ionization energy=70 eV
ion type=[M]+*
computed spectral entropy=2.8921865774142543
computed normalized entropy=0.7840284870758818
SPLASH=splash10-0a4i-9200000000-f8e0e027df2ccb96b5dd
submitter=submitter = University of Tokyo Team (Faculty of Engineering, University of Tokyo)
MoNA Rating=3.75

>  <NUM PEAKS>  (113) 
40

>  <MASS SPECTRAL PEAKS>  (113) 
28 1.4
29 2.3
31 8.8
41 1.4
43 13
44 3.2
45 8.6
55 1.9
57 3
58 8.1
59 99.99
60 6.7
61 3.5
71 5.1
72 6.3
73 9.7
74 1.4
85 3.7
86 16.4
87 28
88 2.9
97 3.7
98 2.3
99 31.9
100 3.4
101 1.4
112 1
113 3.4
114 10
115 6
116 3
117 1.3
144 9
145 1.6
157 3
159 7.4
160 1.2
173 5.8
174 4.4
175 1.6

$$$$

     RDKit          2D

 17 16  0  0  0  0  0  0  0  0999 V2000
    5.9213    2.3941    0.0000 C   0  0  0  0  0  0  0  0  0  0  0  0
    5.3723    0.3451    0.0000 C   0  0  0  0  0  0  0  0  0  0  0  0
   -0.3577    5.7422    0.0000 C   0  0  0  0  0  0  0  0  0  0  0  0
   -0.3577    2.7422    0.0000 C   0  0  0  0  0  0  0  0  0  0  0  0
    1.8923    2.9432    0.0000 C   0  0  0  0  0  0  0  0  0  0  0  0
    0.4827    2.4302    0.0000 H   0  0  0  0  0  0  0  0  0  0  0  0
    2.1527    1.4660    0.0000 H   0  0  0  0  0  0  0  0  0  0  0  0
    3.8723    2.9432    0.0000 C   0  0  0  0  0  0  0  0  0  0  0  0
    5.2818    3.4562    0.0000 H   0  0  0  0  0  0  0  0  0  0  0  0
    3.6118    4.4204    0.0000 H   0  0  0  0  0  0  0  0  0  0  0  0
    1.1423    4.2422    0.0000 C   0  0  0  0  0  0  0  0  0  0  0  0
    2.5518    4.7552    0.0000 H   0  0  0  0  0  0  0  0  0  0  0  0
    0.8818    5.7194    0.0000 H   0  0  0  0  0  0  0  0  0  0  0  0
    4.6223    1.6441    0.0000 Si  0  0  0  0  0  4  0  0  0  0  0  0
    3.3232    0.8941    0.0000 H   0  0  0  0  0  0  0  0  0  0  0  0
   -0.3577    4.2422    0.0000 Si  0  0  0  0  0  4  0  0  0  0  0  0
   -1.8577    4.2422    0.0000 H   0  0  0  0  0  0  0  0  0  0  0  0
  5  6  1  0
  5  7  1  0
  8  9  1  0
  8 10  1  0
 11 12  1  0
 11 13  1  0
 14 15  1  0
 16 17  1  0
  8  5  1  0
 11  5  1  0
 14  1  1  0
 14  2  1  0
 14  8  1  0
 16  3  1  0
 16  4  1  0
 16 11  1  0
M  ISO  8   6   2   7   2   9   2  10   2  12   2  13   2  15   2  17   2
M  END
>  <NAME>  (114) 
1-DIMETHYLSILYL-3-DIMEHYLSILYLPROPANE (D8)

>  <SYNONYMS>  (114) 


>  <SPECTRUM TYPE>  (114) 
MS1

>  <INSTRUMENT TYPE>  (114) 
EI-B

>  <INSTRUMENT>  (114) 
HITACHI RMU-6M

>  <ION MODE>  (114) 
P

>  <INCHIKEY>  (114) 
NKDJYWYZEVYOLX-XZHXTBDASA-N

>  <FORMULA>  (114) 
C7H20Si2

>  <EXACT MASS>  (114) 
168.160567668

>  <MW>  (114) 
168

>  <ID>  (114) 
JP012022

>  <CONTRIBUTOR>  (114) 
University of Tokyo Team, {Faculty of Engineering, University of Tokyo

>  <COMMENT>  (114) 
SMILES=[2H]C([2H])(C([2H])([2H])[Si]([2H])(C)C)C([2H])([2H])[Si]([2H])(C)C
InChI=InChI=1S/C7H20Si2/c1-8(2)6-5-7-9(3)4/h8-9H,5-7H2,1-4H3/i5D2,6D2,7D2,8D,9D
computed SMILES=[H]C([H])(C([H])([H])[Si]([H])(C)C)C([H])([H])[Si]([H])(C)C
accession=JP012022
date=2016.01.19 (Created 2008.10.21, modified 2011.05.06)
author=YAMAMOTO M, DEP. CHEMISTRY, FAC. SCIENCE, NARA WOMEN'S UNIV.
license=CC BY-NC-SA
exact mass=160.11035
ionization energy=70 eV
ion type=[M]+*
computed spectral entropy=4.011360546553119
computed normalized entropy=0.8655005625442989
SPLASH=splash10-11or-9400000000-dd7182cc9100f8e42b28
submitter=submitter = University of Tokyo Team (Faculty of Engineering, University of Tokyo)
MoNA Rating=3.75

>  <NUM PEAKS>  (114) 
103

>  <MASS SPECTRAL PEAKS>  (114) 
28 1.5
29 4.8
30 6.3
31 12.3
32 9.3
33 3.1
34 17.3
39 2.7
41 2.3
42 2.7
43 27.4
44 15.7
45 9.4
46 34.2
47 6.1
48 8.3
49 6.9
50 1.9
53 1.5
54 1.1
55 3.1
56 2.1
57 4
58 11.9
59 43.8
60 86.7
61 13.2
62 6.9
63 25.3
64 15
65 7.3
66 99.99
67 9.2
68 4
69 2.3
71 1.9
72 46.4
73 8
74 6.1
75 2.7
76 20.1
77 5.8
78 46.4
79 25.1
80 5
81 1.9
82 1.1
83 1
84 1.5
85 14.6
86 31.7
87 9.2
88 23.6
89 30.9
90 8.8
91 5
92 1.1
93 9.6
94 9
98 2.7
99 5
100 57.1
101 10.6
102 9
103 5
104 3.1
105 6.9
106 54.5
107 10.7
108 8.6
109 1.9
110 1.5
118 1
119 1.9
120 3.6
121 4.6
122 15
123 8.3
124 10
125 5.9
134 3.3
135 1
136 6.5
137 7.5
138 2.3
139 4.4
140 1
146 1.5
147 1.9
148 1.3
149 2.3
150 36.7
151 6.9
152 4.4
153 40.2
154 7.3
155 3.6
163 2.3
164 12.6
165 17.3
166 17.6
167 3
168 6.1

$$$$

     RDKit          2D

 15 14  0  0  0  0  0  0  0  0999 V2000
    2.4366    3.0097    0.0000 C   0  0  0  0  0  0  0  0  0  0  0  0
    1.1376    5.2597    0.0000 C   0  0  0  0  0  0  0  0  0  0  0  0
   -5.7733    3.2497    0.0000 C   0  0  0  0  0  0  0  0  0  0  0  0
   -4.4743    5.4997    0.0000 C   0  0  0  0  0  0  0  0  0  0  0  0
   -1.8762    3.9997    0.0000 C   0  0  0  0  0  0  0  0  0  0  0  0
   -0.9120    5.1487    0.0000 H   0  0  0  0  0  0  0  0  0  0  0  0
   -2.8404    5.1487    0.0000 H   0  0  0  0  0  0  0  0  0  0  0  0
   -0.1615    3.0097    0.0000 C   0  0  0  0  0  0  0  0  0  0  0  0
   -1.1256    1.8606    0.0000 H   0  0  0  0  0  0  0  0  0  0  0  0
    0.8027    1.8606    0.0000 H   0  0  0  0  0  0  0  0  0  0  0  0
   -3.1752    3.2497    0.0000 C   0  0  0  0  0  0  0  0  0  0  0  0
   -4.1394    2.1006    0.0000 H   0  0  0  0  0  0  0  0  0  0  0  0
   -2.2110    2.1006    0.0000 H   0  0  0  0  0  0  0  0  0  0  0  0
    1.1376    3.7597    0.0000 Si  0  0  0  0  0  4  0  0  0  0  0  0
   -4.4743    3.9997    0.0000 Si  0  0  0  0  0  4  0  0  0  0  0  0
  5  6  1  0
  5  7  1  0
  8  9  1  0
  8 10  1  0
 11 12  1  0
 11 13  1  0
  8  5  1  0
 11  5  1  0
 14  1  1  0
 14  2  1  0
 14  8  1  0
 15  3  1  0
 15  4  1  0
 15 11  1  0
M  ISO  6   6   2   7   2   9   2  10   2  12   2  13   2
M  END
>  <NAME>  (115) 
1-DIMETHYLSILYL-3-DIMETHYLSILYLPROPANE (D6)

>  <SYNONYMS>  (115) 


>  <SPECTRUM TYPE>  (115) 
MS1

>  <INSTRUMENT TYPE>  (115) 
EI-B

>  <INSTRUMENT>  (115) 
HITACHI RMU-6M

>  <ION MODE>  (115) 
P

>  <INCHIKEY>  (115) 
NKDJYWYZEVYOLX-IPSWUHLQSA-N

>  <FORMULA>  (115) 
C7H20Si2

>  <EXACT MASS>  (115) 
166.148014176

>  <MW>  (115) 
166

>  <ID>  (115) 
JP012021

>  <CONTRIBUTOR>  (115) 
University of Tokyo Team, {Faculty of Engineering, University of Tokyo

>  <COMMENT>  (115) 
SMILES=C[SiH](C)C([2H])([2H])C([2H])([2H])C([2H])([2H])[SiH](C)C
InChI=InChI=1S/C7H20Si2/c1-8(2)6-5-7-9(3)4/h8-9H,5-7H2,1-4H3/i5D2,6D2,7D2
computed SMILES=[H]C([H])([SiH](C)C)C([H])([H])C([H])([H])[SiH](C)C
accession=JP012021
date=2016.01.19 (Created 2008.10.21, modified 2011.05.06)
author=YAMAMOTO M, DEP. CHEMISTRY, FAC. SCIENCE, NARA WOMEN'S UNIV.
license=CC BY-NC-SA
exact mass=160.11035
ionization energy=70 eV
ion type=[M]+*
computed spectral entropy=3.8905472266809293
computed normalized entropy=0.8543373743495133
SPLASH=splash10-0pvr-9400000000-d26d56a9aa2397d5af8b
submitter=submitter = University of Tokyo Team (Faculty of Engineering, University of Tokyo)
MoNA Rating=3.75

>  <NUM PEAKS>  (115) 
95

>  <MASS SPECTRAL PEAKS>  (115) 
27 1.2
28 5.2
29 6.6
30 4.4
31 12.3
32 2.2
33 7.6
34 7.4
39 2.6
41 2.4
42 2.4
43 27.1
44 9
45 13.9
46 19.3
47 3.8
48 8.2
49 2.8
53 2.4
55 3.2
56 1.2
57 5.6
58 14.7
59 96.4
60 10
61 11.7
62 23.9
63 4.8
64 8
65 99.99
66 8
67 4.4
69 2
71 2.8
72 34.7
73 8.8
74 3
75 2.4
76 22.9
77 3.6
78 37.7
79 26.3
80 2.8
81 1.2
82 1
83 1.1
84 1.1
85 37.1
86 5.4
87 11.8
88 37.5
89 5
90 2.4
91 3.6
93 7.4
98 1.2
99 5.6
100 43.4
101 12.4
102 9.2
103 2.8
104 3.6
105 7.4
106 38.3
107 11.9
108 3.2
109 2.2
118 2
119 1.6
120 5.4
121 3.2
122 11.1
123 13.6
124 2.4
125 1.6
132 1.2
134 3.2
135 1
136 8.6
137 5.2
138 1.4
139 3
146 2.6
147 1.6
148 30.7
149 8.8
150 4.8
151 34.7
152 6.6
153 2.8
163 1.8
164 15.1
165 27.1
166 9.2
167 2.8

$$$$

     RDKit          2D

 14 13  0  0  0  0  0  0  0  0999 V2000
    4.6740    1.6005    0.0000 C   0  0  0  0  0  0  0  0  0  0  0  0
    4.1250   -0.4486    0.0000 C   0  0  0  0  0  0  0  0  0  0  0  0
    1.6740    4.1986    0.0000 C   0  0  0  0  0  0  0  0  0  0  0  0
   -0.9240    2.6986    0.0000 C   0  0  0  0  0  0  0  0  0  0  0  0
    2.6250    2.1495    0.0000 C   0  0  0  0  0  0  0  0  0  0  0  0
    4.0345    2.6625    0.0000 H   0  0  0  0  0  0  0  0  0  0  0  0
    2.3645    3.6267    0.0000 H   0  0  0  0  0  0  0  0  0  0  0  0
    1.1250    2.1495    0.0000 C   0  0  0  0  0  0  0  0  0  0  0  0
   -0.2845    1.6365    0.0000 H   0  0  0  0  0  0  0  0  0  0  0  0
    1.3855    0.6723    0.0000 H   0  0  0  0  0  0  0  0  0  0  0  0
    3.3750    0.8505    0.0000 Si  0  0  0  0  0  4  0  0  0  0  0  0
    2.0760    0.1005    0.0000 H   0  0  0  0  0  0  0  0  0  0  0  0
    0.3750    3.4486    0.0000 Si  0  0  0  0  0  4  0  0  0  0  0  0
   -0.3750    4.7476    0.0000 H   0  0  0  0  0  0  0  0  0  0  0  0
  5  6  1  0
  5  7  1  0
  8  9  1  0
  8 10  1  0
 11 12  1  0
 13 14  1  0
  8  5  1  0
 11  1  1  0
 11  2  1  0
 11  5  1  0
 13  3  1  0
 13  4  1  0
 13  8  1  0
M  ISO  6   6   2   7   2   9   2  10   2  12   2  14   2
M  END
>  <NAME>  (116) 
1,2-BIS(DIMETHYLSILYL)ETHANE (D6)

>  <SYNONYMS>  (116) 


>  <SPECTRUM TYPE>  (116) 
MS1

>  <INSTRUMENT TYPE>  (116) 
EI-B

>  <INSTRUMENT>  (116) 
HITACHI RMU-6M

>  <ION MODE>  (116) 
P

>  <INCHIKEY>  (116) 
YZJSARUCMYJHNV-QNBRLEJZSA-N

>  <FORMULA>  (116) 
C6H18Si2

>  <EXACT MASS>  (116) 
152.132364112

>  <MW>  (116) 
152

>  <ID>  (116) 
JP012020

>  <CONTRIBUTOR>  (116) 
University of Tokyo Team, {Faculty of Engineering, University of Tokyo

>  <COMMENT>  (116) 
SMILES=[2H]C([2H])([Si]([2H])(C)C)C([2H])([2H])[Si]([2H])(C)C
InChI=InChI=1S/C6H18Si2/c1-7(2)5-6-8(3)4/h7-8H,5-6H2,1-4H3/i5D2,6D2,7D,8D
computed SMILES=[H]C([H])(C([H])([H])[Si]([H])(C)C)[Si]([H])(C)C
accession=JP012020
date=2016.01.19 (Created 2008.10.21, modified 2011.05.06)
author=YAMAMOTO M, DEP. CHEMISTRY, FAC. SCIENCE, NARA WOMEN'S UNIV.
license=CC BY-NC-SA
exact mass=146.0947
ionization energy=70 eV
ion type=[M]+*
computed spectral entropy=2.9459590658153023
computed normalized entropy=0.7784913946727796
SPLASH=splash10-06r6-9200000000-f89922c3e03e786e09a3
submitter=submitter = University of Tokyo Team (Faculty of Engineering, University of Tokyo)
MoNA Rating=3.75

>  <NUM PEAKS>  (116) 
44

>  <MASS SPECTRAL PEAKS>  (116) 
28 2.7
29 3.9
30 1.6
31 8.4
32 6.9
42 1.3
43 21.1
44 7.8
45 7.1
46 3.6
47 6.5
56 1.1
57 1.6
58 30.9
59 5.6
60 99.99
61 9.1
62 4.2
73 14.3
74 3.1
75 14.2
76 2.4
77 6.5
86 1.3
88 4.4
89 4.4
90 90.2
91 9.3
92 10
103 3.8
104 1.8
105 31.1
106 4
107 2.2
116 6.7
117 1.5
118 4.5
120 1.1
137 19.3
138 2.5
139 1.3
150 4.4
152 7.1
153 1.1

$$$$

     RDKit          2D

 14 13  0  0  0  0  0  0  0  0999 V2000
    4.6740    1.6005    0.0000 C   0  0  0  0  0  0  0  0  0  0  0  0
    2.0760    0.1005    0.0000 C   0  0  0  0  0  0  0  0  0  0  0  0
    4.1250   -0.4486    0.0000 C   0  0  0  0  0  0  0  0  0  0  0  0
    1.6740    4.1986    0.0000 C   0  0  0  0  0  0  0  0  0  0  0  0
   -0.3750    4.7476    0.0000 C   0  0  0  0  0  0  0  0  0  0  0  0
   -0.9240    2.6986    0.0000 C   0  0  0  0  0  0  0  0  0  0  0  0
    2.6250    2.1495    0.0000 C   0  0  0  0  0  0  0  0  0  0  0  0
    4.0345    2.6625    0.0000 H   0  0  0  0  0  0  0  0  0  0  0  0
    2.3645    3.6267    0.0000 H   0  0  0  0  0  0  0  0  0  0  0  0
    1.1250    2.1495    0.0000 C   0  0  0  0  0  0  0  0  0  0  0  0
   -0.2845    1.6365    0.0000 H   0  0  0  0  0  0  0  0  0  0  0  0
    1.3855    0.6723    0.0000 H   0  0  0  0  0  0  0  0  0  0  0  0
    3.3750    0.8505    0.0000 Si  0  0  0  0  0  4  0  0  0  0  0  0
    0.3750    3.4486    0.0000 Si  0  0  0  0  0  4  0  0  0  0  0  0
  7  8  1  0
  7  9  1  0
 10 11  1  0
 10 12  1  0
 10  7  1  0
 13  1  1  0
 13  2  1  0
 13  3  1  0
 13  7  1  0
 14  4  1  0
 14  5  1  0
 14  6  1  0
 14 10  1  0
M  ISO  4   8   2   9   2  11   2  12   2
M  END
>  <NAME>  (117) 
1,2-BIS(TRIMETHYLSILYL)ETHANE (1,1,2,2-D4)

>  <SYNONYMS>  (117) 


>  <SPECTRUM TYPE>  (117) 
MS1

>  <INSTRUMENT TYPE>  (117) 
EI-B

>  <INSTRUMENT>  (117) 
HITACHI RMU-6M

>  <ION MODE>  (117) 
P

>  <INCHIKEY>  (117) 
DMKCEJPDZDUPDV-OSEHSPPNSA-N

>  <FORMULA>  (117) 
C8H22Si2

>  <EXACT MASS>  (117) 
178.151110748

>  <MW>  (117) 
178

>  <ID>  (117) 
JP012019

>  <CONTRIBUTOR>  (117) 
University of Tokyo Team, {Faculty of Engineering, University of Tokyo

>  <COMMENT>  (117) 
SMILES=C[Si](C)(C)C([2H])([2H])C([2H])([2H])[Si](C)(C)C
InChI=InChI=1S/C8H22Si2/c1-9(2,3)7-8-10(4,5)6/h7-8H2,1-6H3/i7D2,8D2
computed SMILES=[H]C([H])(C([H])([H])[Si](C)(C)C)[Si](C)(C)C
accession=JP012019
date=2016.01.19 (Created 2008.10.21, modified 2011.05.06)
author=YAMAMOTO M, DEP. CHEMISTRY, FAC. SCIENCE, NARA WOMEN'S UNIV.
license=CC BY-NC-SA
exact mass=174.126
ionization energy=70 eV
ion type=[M]+*
computed spectral entropy=2.6077998332708052
computed normalized entropy=0.7458298852289799
SPLASH=splash10-00di-9100000000-6d62ca7ecaa88aad5f15
submitter=submitter = University of Tokyo Team (Faculty of Engineering, University of Tokyo)
MoNA Rating=3.75

>  <NUM PEAKS>  (117) 
33

>  <MASS SPECTRAL PEAKS>  (117) 
27 1.9
28 5.2
29 3.1
31 7.8
32 1.3
43 7.3
44 2.9
45 15.1
46 1.8
47 1
57 1.3
58 10.5
59 5.8
60 5.7
72 1.9
73 99.99
74 10.9
75 3.6
88 15.1
89 2.3
90 23
91 2.3
92 1
115 1.3
131 10.9
132 1.8
133 1
163 13.4
164 2.6
165 1.3
178 11
179 2.3
180 1

$$$$

     RDKit          2D

 10  9  0  0  0  0  0  0  0  0999 V2000
    1.3260   -0.6495    0.0000 C   0  0  0  0  0  0  0  0  0  0  0  0
   -0.1740    1.9486    0.0000 C   0  0  0  0  0  0  0  0  0  0  0  0
   -0.7231   -0.1005    0.0000 C   0  0  0  0  0  0  0  0  0  0  0  0
    3.9240    2.3505    0.0000 C   0  0  0  0  0  0  0  0  0  0  0  0
    4.4731    4.3995    0.0000 C   0  0  0  0  0  0  0  0  0  0  0  0
    2.4240    4.9486    0.0000 C   0  0  0  0  0  0  0  0  0  0  0  0
    1.8750    1.3995    0.0000 C   0  0  0  0  0  0  0  0  0  0  0  0
    1.8750    2.8995    0.0000 C   0  0  0  0  0  0  0  0  0  0  0  0
    0.5760    0.6495    0.0000 Si  0  0  0  0  0  4  0  0  0  0  0  0
    3.1740    3.6495    0.0000 Si  0  0  0  0  0  4  0  0  0  0  0  0
  8  7  1  0
  9  1  1  0
  9  2  1  0
  9  3  1  0
  9  7  1  0
 10  4  1  0
 10  5  1  0
 10  6  1  0
 10  8  1  0
M  END
>  <NAME>  (118) 
1,2-BIS(TRIMETHYLSILYL)ETHANE

>  <SYNONYMS>  (118) 


>  <SPECTRUM TYPE>  (118) 
MS1

>  <INSTRUMENT TYPE>  (118) 
EI-B

>  <INSTRUMENT>  (118) 
HITACHI RMU-6M

>  <ION MODE>  (118) 
P

>  <INCHIKEY>  (118) 
DMKCEJPDZDUPDV-UHFFFAOYSA-N

>  <FORMULA>  (118) 
C8H22Si2

>  <EXACT MASS>  (118) 
174.126003764

>  <MW>  (118) 
174

>  <ID>  (118) 
JP012018

>  <CONTRIBUTOR>  (118) 
University of Tokyo Team, {Faculty of Engineering, University of Tokyo

>  <COMMENT>  (118) 
SMILES=C[Si](C)(C)CC[Si](C)(C)C
InChI=InChI=1S/C8H22Si2/c1-9(2,3)7-8-10(4,5)6/h7-8H2,1-6H3
computed SMILES=C[Si](C)(C)CC[Si](C)(C)C
accession=JP012018
date=2016.01.19 (Created 2008.10.21, modified 2011.05.06)
author=YAMAMOTO M, DEP. CHEMISTRY, FAC. SCIENCE, NARA WOMEN'S UNIV.
license=CC BY-NC-SA
exact mass=174.126
ionization energy=70 eV
ion type=[M]+*
computed spectral entropy=2.4349779645829637
computed normalized entropy=0.7564684371391263
SPLASH=splash10-00di-9100000000-91102352c09056b869dc
submitter=submitter = University of Tokyo Team (Faculty of Engineering, University of Tokyo)
MoNA Rating=3.75

>  <NUM PEAKS>  (118) 
25

>  <MASS SPECTRAL PEAKS>  (118) 
28 1.9
29 3.6
31 2.6
43 8
44 3.8
45 14.9
55 1.9
57 2
58 10.7
59 9.2
72 3
73 99.99
74 9.6
75 4.1
85 16.2
86 26.6
87 4.7
88 1.8
131 8.6
159 11.4
160 4.1
161 1.8
174 11
175 2.1
176 1

$$$$

     RDKit          2D

 12 11  0  0  0  0  0  0  0  0999 V2000
    1.9486    2.6250    0.0000 C   0  0  0  0  0  0  0  0  0  0  0  0
    1.7919    1.7364    0.0000 C   0  0  0  0  0  0  0  0  0  0  0  0
   -4.5466    3.3750    0.0000 C   0  0  0  0  0  0  0  0  0  0  0  0
   -4.3900    4.2636    0.0000 C   0  0  0  0  0  0  0  0  0  0  0  0
    0.6495    3.3750    0.0000 C   0  0  0  0  0  0  0  0  0  0  0  0
    0.3147    1.4759    0.0000 C   0  0  0  0  0  0  0  0  0  0  0  0
   -3.2476    2.6250    0.0000 C   0  0  0  0  0  0  0  0  0  0  0  0
   -2.9127    4.5241    0.0000 C   0  0  0  0  0  0  0  0  0  0  0  0
   -0.6495    2.6250    0.0000 Si  0  0  0  0  0  4  0  0  0  0  0  0
   -1.6137    1.4759    0.0000 H   0  0  0  0  0  0  0  0  0  0  0  0
   -1.9486    3.3750    0.0000 Si  0  0  0  0  0  4  0  0  0  0  0  0
   -0.9844    4.5241    0.0000 H   0  0  0  0  0  0  0  0  0  0  0  0
  9 10  1  0
 11 12  1  0
  5  1  1  0
  6  2  1  0
  7  3  1  0
  8  4  1  0
  9  5  1  0
  9  6  1  0
 11  7  1  0
 11  8  1  0
 11  9  1  0
M  ISO  2  10   2  12   2
M  END
>  <NAME>  (119) 
1,1,2,2-TETRAETHYLDISILANE (1,2-D2)

>  <SYNONYMS>  (119) 


>  <SPECTRUM TYPE>  (119) 
MS1

>  <INSTRUMENT TYPE>  (119) 
EI-B

>  <INSTRUMENT>  (119) 
HITACHI RMU-6M

>  <ION MODE>  (119) 
P

>  <INCHIKEY>  (119) 
IIXGTNXLTMXDDF-QDRJLNDYSA-N

>  <FORMULA>  (119) 
C8H22Si2

>  <EXACT MASS>  (119) 
176.13855725599998

>  <MW>  (119) 
176

>  <ID>  (119) 
JP012017

>  <CONTRIBUTOR>  (119) 
University of Tokyo Team, {Faculty of Engineering, University of Tokyo

>  <COMMENT>  (119) 
SMILES=CC[Si]([2H])(CC)[Si]([2H])(CC)CC
InChI=InChI=1S/C8H22Si2/c1-5-9(6-2)10(7-3)8-4/h9-10H,5-8H2,1-4H3/i9D,10D
computed SMILES=[H][Si](CC)(CC)[Si]([H])(CC)CC
computed spectral entropy=3.2929918674778555
accession=JP012017
date=2016.01.19 (Created 2008.10.21, modified 2011.05.06)
author=YAMAMOTO M, DEP. CHEMISTRY, FAC. SCIENCE, NARA WOMEN'S UNIV.
license=CC BY-NC-SA
exact mass=174.126
ionization energy=70 eV
ion type=[M]+*
computed normalized entropy=0.8010442490528884
SPLASH=splash10-052r-9100000000-929842a56c5c9681f670
submitter=submitter = University of Tokyo Team (Faculty of Engineering, University of Tokyo)
MoNA Rating=3.75

>  <NUM PEAKS>  (119) 
61

>  <MASS SPECTRAL PEAKS>  (119) 
27 3.8
28 4.8
29 12
30 1.9
31 16.9
32 12.5
33 1.5
42 1
43 13.3
44 7.3
45 5.5
46 4.4
47 1
53 2.6
55 7.9
56 7
57 22
58 82.1
59 47.6
60 64.3
61 7.9
62 9.9
63 5.1
69 2.4
70 1.4
71 1.5
72 1.7
73 1.4
74 1.4
75 1.7
76 1
77 1.2
81 1.2
83 1.4
84 1.9
85 3.4
86 99.99
87 42.9
88 77.4
89 16.2
90 26.2
91 30.4
92 4.8
93 1.9
105 1.5
114 3.4
115 18.1
116 2.4
117 8.9
118 10.9
119 33.3
120 5.1
121 2.4
145 3.1
146 1.4
147 25
148 4.8
149 1.7
176 13.7
177 2.4
178 1.2

$$$$

     RDKit          2D

 10  9  0  0  0  0  0  0  0  0999 V2000
   -3.2476    0.3750    0.0000 C   0  0  0  0  0  0  0  0  0  0  0  0
   -4.5466    2.6250    0.0000 C   0  0  0  0  0  0  0  0  0  0  0  0
    0.6495    5.6250    0.0000 C   0  0  0  0  0  0  0  0  0  0  0  0
    1.9486    3.3750    0.0000 C   0  0  0  0  0  0  0  0  0  0  0  0
   -1.9486    1.1250    0.0000 C   0  0  0  0  0  0  0  0  0  0  0  0
   -3.2476    3.3750    0.0000 C   0  0  0  0  0  0  0  0  0  0  0  0
   -0.6495    4.8750    0.0000 C   0  0  0  0  0  0  0  0  0  0  0  0
    0.6495    2.6250    0.0000 C   0  0  0  0  0  0  0  0  0  0  0  0
   -1.9486    2.6250    0.0000 Si  0  0  0  0  0  4  0  0  0  0  0  0
   -0.6495    3.3750    0.0000 Si  0  0  0  0  0  4  0  0  0  0  0  0
  5  1  1  0
  6  2  1  0
  7  3  1  0
  8  4  1  0
  9  5  1  0
  9  6  1  0
 10  7  1  0
 10  8  1  0
 10  9  1  0
M  END
>  <NAME>  (120) 
1,1,2,2-TETRAETHYLDISILANE

>  <SYNONYMS>  (120) 


>  <SPECTRUM TYPE>  (120) 
MS1

>  <INSTRUMENT TYPE>  (120) 
EI-B

>  <INSTRUMENT>  (120) 
HITACHI RMU-6M

>  <ION MODE>  (120) 
P

>  <INCHIKEY>  (120) 
IIXGTNXLTMXDDF-UHFFFAOYSA-N

>  <FORMULA>  (120) 
C8H22Si2

>  <EXACT MASS>  (120) 
174.12600376400002

>  <MW>  (120) 
174

>  <ID>  (120) 
JP012016

>  <CONTRIBUTOR>  (120) 
University of Tokyo Team, {Faculty of Engineering, University of Tokyo

>  <COMMENT>  (120) 
SMILES=CC[SiH](CC)[SiH](CC)CC
InChI=InChI=1S/C8H22Si2/c1-5-9(6-2)10(7-3)8-4/h9-10H,5-8H2,1-4H3
computed SMILES=CC[SiH](CC)[SiH](CC)CC
accession=JP012016
date=2016.01.19 (Created 2008.10.21, modified 2011.05.06)
author=YAMAMOTO M, DEP. CHEMISTRY, FAC. SCIENCE, NARA WOMEN'S UNIV.
license=CC BY-NC-SA
exact mass=174.126
ionization energy=70 eV
ion type=[M]+*
computed spectral entropy=3.1583582071774146
computed normalized entropy=0.7954977306320304
SPLASH=splash10-052r-9200000000-1a379a05074104f6ace9
submitter=submitter = University of Tokyo Team (Faculty of Engineering, University of Tokyo)
MoNA Rating=3.75

>  <NUM PEAKS>  (120) 
53

>  <MASS SPECTRAL PEAKS>  (120) 
26 1.1
27 3.8
28 3.9
29 12.5
30 1.9
31 28.1
32 2.2
42 1
43 18.2
44 2.2
45 9.3
53 3.1
55 9.9
56 6.5
57 31.8
58 68.2
59 86.4
60 10.1
61 12.1
62 1.5
63 1
68 4.5
69 1.5
71 3.4
72 1.2
73 2.9
74 1
75 1.9
81 2.2
83 2.9
84 1.7
85 7.9
86 99.99
87 86.4
88 17.8
89 49.8
90 6.9
91 3.8
103 1.4
114 3.4
115 18
116 10.8
117 42
118 6.9
119 3.1
144 4.5
145 25.4
146 4.8
147 2.2
173 2.2
174 51.1
175 9.8
176 4.5

$$$$

     RDKit          2D

 10  9  0  0  0  0  0  0  0  0999 V2000
   -0.0775    4.0652    0.0000 C   0  0  0  0  0  0  0  0  0  0  0  0
   -3.9747    1.8152    0.0000 C   0  0  0  0  0  0  0  0  0  0  0  0
   -1.5615   -0.2980    0.0000 C   0  0  0  0  0  0  0  0  0  0  0  0
    0.7367    1.6303    0.0000 C   0  0  0  0  0  0  0  0  0  0  0  0
   -0.0775    2.5652    0.0000 C   0  0  0  0  0  0  0  0  0  0  0  0
   -2.6756    2.5652    0.0000 C   0  0  0  0  0  0  0  0  0  0  0  0
   -0.4124    0.6662    0.0000 Si  0  0  0  0  0  4  0  0  0  0  0  0
    0.5518   -0.4829    0.0000 H   0  0  0  0  0  0  0  0  0  0  0  0
   -1.3766    1.8152    0.0000 Si  0  0  0  0  0  4  0  0  0  0  0  0
   -2.3408    0.6662    0.0000 H   0  0  0  0  0  0  0  0  0  0  0  0
  7  8  1  0
  9 10  1  0
  5  1  1  0
  6  2  1  0
  7  3  1  0
  7  4  1  0
  9  5  1  0
  9  6  1  0
  9  7  1  0
M  ISO  2   8   2  10   2
M  END
>  <NAME>  (121) 
1,1-DIETHYL-2,2-DIMETHYLDISILANE (1,2-D2)

>  <SYNONYMS>  (121) 


>  <SPECTRUM TYPE>  (121) 
MS1

>  <INSTRUMENT TYPE>  (121) 
EI-B

>  <INSTRUMENT>  (121) 
HITACHI

>  <ION MODE>  (121) 
P

>  <INCHIKEY>  (121) 
OONIWCFTRWGZGX-QTQOOCSTSA-N

>  <FORMULA>  (121) 
C6H18Si2

>  <EXACT MASS>  (121) 
148.107257128

>  <MW>  (121) 
148

>  <ID>  (121) 
JP012015

>  <CONTRIBUTOR>  (121) 
University of Tokyo Team, {Faculty of Engineering, University of Tokyo

>  <COMMENT>  (121) 
SMILES=CC[Si]([2H])(CC)[Si]([2H])(C)C
InChI=InChI=1S/C6H18Si2/c1-5-8(6-2)7(3)4/h7-8H,5-6H2,1-4H3/i7D,8D
computed SMILES=[H][Si](C)(C)[Si]([H])(CC)CC
accession=JP012015
date=2016.01.19 (Created 2008.10.21, modified 2011.05.06)
author=YAMAMOTO M, DEP. CHEMISTRY, FAC. SCIENCE, NARA WOMEN'S UNIV.
license=CC BY-NC-SA
exact mass=146.0947
ionization energy=70 eV
ion type=[M]+*
computed spectral entropy=3.355027490994083
computed normalized entropy=0.8067135872172175
SPLASH=splash10-06rl-9100000000-4d54298bbd1cdfc104fb
submitter=submitter = University of Tokyo Team (Faculty of Engineering, University of Tokyo)
MoNA Rating=3.75

>  <NUM PEAKS>  (121) 
64

>  <MASS SPECTRAL PEAKS>  (121) 
27 5.5
28 4.9
29 15
30 4.1
31 17.1
32 14.6
33 1.5
39 1.1
41 2.6
42 2.6
43 41
44 13.8
45 14.6
46 14.1
47 3.3
54 4.1
55 1.2
56 7.2
57 5.5
58 91.9
59 51.6
60 99.99
61 7.7
62 2.7
69 6.9
70 4.5
71 5.3
72 5.6
73 9.3
74 3.5
75 5.7
76 7.5
77 4.9
78 1.2
83 1.2
84 1.6
85 3.6
86 99.1
87 27.9
88 53.1
89 15.4
90 21.1
91 28.6
92 5.7
93 1.9
101 8.5
102 1.5
103 5.3
104 4
105 10.2
106 1.3
107 1.5
117 2.9
118 1.5
119 9.3
120 2.1
131 2.7
133 4.5
134 1.1
135 1.1
146 1.5
148 38.9
149 7.9
150 4.1

$$$$

     RDKit          2D

  8  7  0  0  0  0  0  0  0  0999 V2000
    0.9743    2.8125    0.0000 C   0  0  0  0  0  0  0  0  0  0  0  0
   -4.2219    2.8125    0.0000 C   0  0  0  0  0  0  0  0  0  0  0  0
   -0.3248    0.5625    0.0000 C   0  0  0  0  0  0  0  0  0  0  0  0
   -2.9228    0.5625    0.0000 C   0  0  0  0  0  0  0  0  0  0  0  0
   -0.3248    3.5625    0.0000 C   0  0  0  0  0  0  0  0  0  0  0  0
   -2.9228    3.5625    0.0000 C   0  0  0  0  0  0  0  0  0  0  0  0
   -1.6238    1.3125    0.0000 Si  0  0  0  0  0  4  0  0  0  0  0  0
   -1.6238    2.8125    0.0000 Si  0  0  0  0  0  4  0  0  0  0  0  0
  5  1  1  0
  6  2  1  0
  7  3  1  0
  7  4  1  0
  8  5  1  0
  8  6  1  0
  8  7  1  0
M  END
>  <NAME>  (122) 
1,1-DIETHYL-2,2-DIMETHYLDISILANE

>  <SYNONYMS>  (122) 


>  <SPECTRUM TYPE>  (122) 
MS1

>  <INSTRUMENT TYPE>  (122) 
EI-B

>  <INSTRUMENT>  (122) 
HITACHI RMU-6M

>  <ION MODE>  (122) 
P

>  <INCHIKEY>  (122) 
OONIWCFTRWGZGX-UHFFFAOYSA-N

>  <FORMULA>  (122) 
C6H18Si2

>  <EXACT MASS>  (122) 
146.094703636

>  <MW>  (122) 
146

>  <ID>  (122) 
JP012014

>  <CONTRIBUTOR>  (122) 
University of Tokyo Team, {Faculty of Engineering, University of Tokyo

>  <COMMENT>  (122) 
SMILES=CC[SiH](CC)[SiH](C)C
InChI=InChI=1S/C6H18Si2/c1-5-8(6-2)7(3)4/h7-8H,5-6H2,1-4H3
computed SMILES=CC[SiH](CC)[SiH](C)C
accession=JP012014
date=2016.01.19 (Created 2008.10.21, modified 2011.05.06)
author=YAMAMOTO M, DEP. CHEMISTRY, FAC. SCIENCE, NARA WOMEN'S UNIV.
license=CC BY-NC-SA
exact mass=146.0947
ionization energy=70 eV
ion type=[M]+*
computed spectral entropy=3.270960197807397
computed normalized entropy=0.802190106848968
SPLASH=splash10-0a4r-9100000000-41867fd19898c85dfdfb
submitter=submitter = University of Tokyo Team (Faculty of Engineering, University of Tokyo)
MoNA Rating=3.75

>  <NUM PEAKS>  (122) 
59

>  <MASS SPECTRAL PEAKS>  (122) 
27 4.6
28 4.4
29 14.2
30 1
31 23.2
32 1.4
39 1
41 2.9
42 2.9
43 40.3
44 4.5
45 22.9
46 1.3
53 3.4
54 1.4
55 6.6
56 3.9
57 15
58 66.2
59 99.99
60 8.7
61 2.6
69 7.3
70 2.8
71 7.2
72 3.4
73 9.5
74 4.2
75 7.2
81 2.4
83 2.3
84 1.2
85 6.5
86 76.2
87 53.8
88 11.8
89 42.1
90 6.8
91 3.5
99 1.4
101 7.9
102 5.1
103 10.7
104 1.6
105 4.3
107 4.9
116 2.8
117 10.5
118 1.9
119 2.3
130 2.8
131 4.4
132 1.1
133 2.9
135 2.7
145 3.1
146 29.3
147 6.1
148 3.3

$$$$

     RDKit          2D

  8  7  0  0  0  0  0  0  0  0999 V2000
    1.9486    2.6250    0.0000 C   0  0  0  0  0  0  0  0  0  0  0  0
   -4.5466    3.3750    0.0000 C   0  0  0  0  0  0  0  0  0  0  0  0
   -0.6495    1.1250    0.0000 C   0  0  0  0  0  0  0  0  0  0  0  0
   -1.9486    4.8750    0.0000 C   0  0  0  0  0  0  0  0  0  0  0  0
    0.6495    3.3750    0.0000 C   0  0  0  0  0  0  0  0  0  0  0  0
   -3.2476    2.6250    0.0000 C   0  0  0  0  0  0  0  0  0  0  0  0
   -0.6495    2.6250    0.0000 Si  0  0  0  0  0  4  0  0  0  0  0  0
   -1.9486    3.3750    0.0000 Si  0  0  0  0  0  4  0  0  0  0  0  0
  5  1  1  0
  6  2  1  0
  7  3  1  0
  7  5  1  0
  8  4  1  0
  8  6  1  0
  8  7  1  0
M  END
>  <NAME>  (123) 
1,2-DIETHYL-1,2-DIMETHYLDISILANE

>  <SYNONYMS>  (123) 


>  <SPECTRUM TYPE>  (123) 
MS1

>  <INSTRUMENT TYPE>  (123) 
EI-B

>  <INSTRUMENT>  (123) 
HITACHI RMU-6M

>  <ION MODE>  (123) 
P

>  <INCHIKEY>  (123) 
FYFFMJYIIZPDAG-UHFFFAOYSA-N

>  <FORMULA>  (123) 
C6H18Si2

>  <EXACT MASS>  (123) 
146.094703636

>  <MW>  (123) 
146

>  <ID>  (123) 
JP012013

>  <CONTRIBUTOR>  (123) 
University of Tokyo Team, {Faculty of Engineering, University of Tokyo

>  <COMMENT>  (123) 
SMILES=CC[SiH](C)[SiH](C)CC
InChI=InChI=1S/C6H18Si2/c1-5-7(3)8(4)6-2/h7-8H,5-6H2,1-4H3
computed SMILES=CC[SiH](C)[SiH](C)CC
accession=JP012013
date=2016.01.19 (Created 2008.10.21, modified 2011.05.06)
author=YAMAMOTO M, DEP. CHEMISTRY, FAC. SCIENCE, NARA WOMEN'S UNIV.
license=CC BY-NC-SA
exact mass=146.0947
ionization energy=70 eV
ion type=[M]+*
computed spectral entropy=3.253856768162774
computed normalized entropy=0.7915243511897727
SPLASH=splash10-00dj-9200000000-ecf30a06950b65fa783b
submitter=submitter = University of Tokyo Team (Faculty of Engineering, University of Tokyo)
MoNA Rating=3.75

>  <NUM PEAKS>  (123) 
61

>  <MASS SPECTRAL PEAKS>  (123) 
28 2.7
29 3.6
30 6.9
32 4.5
33 1.1
40 1.3
41 1.6
42 2.3
43 37.9
44 22
45 78.7
46 5.4
47 2.6
53 3
54 1.2
55 4.7
56 1.6
57 6.2
58 2.3
59 26.7
60 2.5
67 1.8
68 3.1
69 7.2
70 4.2
71 9.4
72 99.99
73 85.4
74 11.9
75 8
76 1.8
77 1.2
81 2
82 2
83 1.9
84 1.6
85 6.4
86 7.6
87 25.3
88 12.1
89 48.9
90 7
91 4.3
99 1.6
100 4
101 12.6
102 7.2
103 11.2
104 2.4
105 1.5
117 20.3
118 3.5
119 1.8
130 5
131 5
132 1.4
133 1.4
145 3.7
146 43
147 8
148 3.7

$$$$

     RDKit          2D

  9  8  0  0  0  0  0  0  0  0999 V2000
   -4.2219    2.8125    0.0000 C   0  0  0  0  0  0  0  0  0  0  0  0
   -1.0748    0.7635    0.0000 C   0  0  0  0  0  0  0  0  0  0  0  0
    0.4252    3.3615    0.0000 C   0  0  0  0  0  0  0  0  0  0  0  0
   -2.5880    3.9616    0.0000 C   0  0  0  0  0  0  0  0  0  0  0  0
   -2.9228    2.0625    0.0000 C   0  0  0  0  0  0  0  0  0  0  0  0
   -0.3248    2.0625    0.0000 Si  0  0  0  0  0  4  0  0  0  0  0  0
    0.9743    1.3125    0.0000 H   0  0  0  0  0  0  0  0  0  0  0  0
   -1.6238    2.8125    0.0000 Si  0  0  0  0  0  4  0  0  0  0  0  0
   -0.6596    3.9616    0.0000 H   0  0  0  0  0  0  0  0  0  0  0  0
  6  7  1  0
  8  9  1  0
  5  1  1  0
  6  2  1  0
  6  3  1  0
  8  4  1  0
  8  5  1  0
  8  6  1  0
M  ISO  2   7   2   9   2
M  END
>  <NAME>  (124) 
1-ETHYL-1,2,2-TRIMETHYLDISILANE (1,2-D2)

>  <SYNONYMS>  (124) 


>  <SPECTRUM TYPE>  (124) 
MS1

>  <INSTRUMENT TYPE>  (124) 
EI-B

>  <INSTRUMENT>  (124) 
HITACHI RMU-6M

>  <ION MODE>  (124) 
P

>  <INCHIKEY>  (124) 
NHHYFIMQHQQRNN-QFIQSOQBSA-N

>  <FORMULA>  (124) 
C5H16Si2

>  <EXACT MASS>  (124) 
134.091607064

>  <MW>  (124) 
134

>  <ID>  (124) 
JP012012

>  <CONTRIBUTOR>  (124) 
University of Tokyo Team, {Faculty of Engineering, University of Tokyo

>  <COMMENT>  (124) 
SMILES=CC[Si]([2H])(C)[Si]([2H])(C)C
InChI=InChI=1S/C5H16Si2/c1-5-7(4)6(2)3/h6-7H,5H2,1-4H3/i6D,7D
computed SMILES=[H][Si](C)(C)[Si]([H])(C)CC
accession=JP012012
date=2016.01.19 (Created 2008.10.21, modified 2011.05.06)
author=YAMAMOTO M, DEP. CHEMISTRY, FAC. SCIENCE, NARA WOMEN'S UNIV.
license=CC BY-NC-SA
exact mass=132.07905
ionization energy=70 eV
ion type=[M]+*
computed spectral entropy=3.4970629521156074
computed normalized entropy=0.8377428173316169
SPLASH=splash10-00di-9100000000-9424b8bfa200cb09b21b
submitter=submitter = University of Tokyo Team (Faculty of Engineering, University of Tokyo)
MoNA Rating=3.75

>  <NUM PEAKS>  (124) 
65

>  <MASS SPECTRAL PEAKS>  (124) 
27 5.3
28 8.4
29 11.7
30 3.9
31 14.4
32 10.3
33 1.8
41 2.1
42 6.8
43 68.6
44 45.3
45 56.7
46 53.8
47 9.4
48 3.3
53 5
54 1.7
55 5.7
56 3
57 6.9
58 32.6
59 37.5
60 68.6
61 8.4
62 3
69 8.7
70 5.6
71 7.6
72 99.99
73 56.5
74 77.6
75 8.8
76 4
77 1.3
78 1.6
81 2.8
82 1.1
83 2.1
84 2.9
85 4
86 9.9
87 31.2
88 8.1
89 15.2
90 14.6
91 21.8
92 4.3
93 2.4
100 1.2
101 4.3
102 3.8
103 7.5
104 7.1
105 28
106 4.3
107 4
117 6.2
118 1.1
119 12.1
120 2.5
121 5.3
132 3.5
134 44.4
135 8.7
136 4

$$$$

     RDKit          2D

  7  6  0  0  0  0  0  0  0  0999 V2000
   -3.8971    2.2500    0.0000 C   0  0  0  0  0  0  0  0  0  0  0  0
    1.2990    2.2500    0.0000 C   0  0  0  0  0  0  0  0  0  0  0  0
   -0.0000    0.0000    0.0000 C   0  0  0  0  0  0  0  0  0  0  0  0
   -1.2990    3.7500    0.0000 C   0  0  0  0  0  0  0  0  0  0  0  0
   -2.5981    1.5000    0.0000 C   0  0  0  0  0  0  0  0  0  0  0  0
    0.0000    1.5000    0.0000 Si  0  0  0  0  0  4  0  0  0  0  0  0
   -1.2990    2.2500    0.0000 Si  0  0  0  0  0  4  0  0  0  0  0  0
  5  1  1  0
  6  2  1  0
  6  3  1  0
  7  4  1  0
  7  5  1  0
  7  6  1  0
M  END
>  <NAME>  (125) 
1-ETHYL-1,2,2-TRIMETHYLDISILANE

>  <SYNONYMS>  (125) 


>  <SPECTRUM TYPE>  (125) 
MS1

>  <INSTRUMENT TYPE>  (125) 
EI-B

>  <INSTRUMENT>  (125) 
HITACHI RMU-6M

>  <ION MODE>  (125) 
P

>  <INCHIKEY>  (125) 
NHHYFIMQHQQRNN-UHFFFAOYSA-N

>  <FORMULA>  (125) 
C5H16Si2

>  <EXACT MASS>  (125) 
132.079053572

>  <MW>  (125) 
132

>  <ID>  (125) 
JP012011

>  <CONTRIBUTOR>  (125) 
University of Tokyo Team, {Faculty of Engineering, University of Tokyo

>  <COMMENT>  (125) 
SMILES=CC[SiH](C)[SiH](C)C
InChI=InChI=1S/C5H16Si2/c1-5-7(4)6(2)3/h6-7H,5H2,1-4H3
computed SMILES=CC[SiH](C)[SiH](C)C
accession=JP012011
date=2016.01.19 (Created 2008.10.21, modified 2011.05.06)
author=YAMAMOTO M, DEP. CHEMISTRY, FAC. SCIENCE, NARA WOMEN'S UNIV.
license=CC BY-NC-SA
exact mass=132.07905
ionization energy=70 eV
ion type=[M]+*
computed spectral entropy=3.3019651732636133
computed normalized entropy=0.8000624319936064
SPLASH=splash10-05fu-9100000000-3ac53a04388118d361e8
submitter=submitter = University of Tokyo Team (Faculty of Engineering, University of Tokyo)
MoNA Rating=3.75

>  <NUM PEAKS>  (125) 
62

>  <MASS SPECTRAL PEAKS>  (125) 
26 1.3
27 4
28 7.9
29 10.4
30 2
31 16.1
32 3.6
40 1
41 1.4
42 7.1
43 70.3
44 29.9
45 81.2
46 7.3
47 3
50 1.6
51 1.4
52 1.4
53 6.6
54 1
55 6.9
56 3.2
58 28.9
59 83.6
60 8.1
61 3.3
67 1.4
68 1.3
69 9.8
70 5.2
71 7.9
72 92.3
73 99.99
74 13.1
75 4.9
78 5.3
81 3
82 1.4
83 2.3
84 2.3
85 7.8
86 8.4
87 28.2
88 11.5
89 29.1
90 5.3
91 3.3
99 1.6
100 2.2
101 6.6
102 8.8
103 31.1
104 5.2
105 3.6
116 6
117 8.6
118 2.2
119 4.2
131 3.2
132 34.3
133 7.3
134 3.7

$$$$

     RDKit          2D

 10  9  0  0  0  0  0  0  0  0999 V2000
    1.9486    2.6250    0.0000 C   0  0  0  0  0  0  0  0  0  0  0  0
   -4.5466    3.3750    0.0000 C   0  0  0  0  0  0  0  0  0  0  0  0
   -0.6495    2.6250    0.0000 C   0  0  0  0  0  0  0  0  0  0  0  0
   -1.6137    1.4759    0.0000 H   0  0  0  0  0  0  0  0  0  0  0  0
    0.3147    1.4759    0.0000 H   0  0  0  0  0  0  0  0  0  0  0  0
   -1.9486    3.3750    0.0000 C   0  0  0  0  0  0  0  0  0  0  0  0
   -0.9844    4.5241    0.0000 H   0  0  0  0  0  0  0  0  0  0  0  0
   -2.9127    4.5241    0.0000 H   0  0  0  0  0  0  0  0  0  0  0  0
    0.6495    3.3750    0.0000 Si  0  0  0  0  0  4  0  0  0  0  0  0
   -3.2476    2.6250    0.0000 Si  0  0  0  0  0  4  0  0  0  0  0  0
  3  4  1  0
  3  5  1  0
  6  7  1  0
  6  8  1  0
  6  3  1  0
  9  1  1  0
  9  3  1  0
 10  2  1  0
 10  6  1  0
M  ISO  4   4   2   5   2   7   2   8   2
M  END
>  <NAME>  (126) 
1,2-BIS(METHYLSILYL)ETHANE (D4)

>  <SYNONYMS>  (126) 


>  <SPECTRUM TYPE>  (126) 
MS1

>  <INSTRUMENT TYPE>  (126) 
EI-B

>  <INSTRUMENT>  (126) 
HITACHI RMU-6M

>  <ION MODE>  (126) 
P

>  <INCHIKEY>  (126) 
CBXZGERYGLVXSG-KHORGVISSA-N

>  <FORMULA>  (126) 
C4H14Si2

>  <EXACT MASS>  (126) 
122.088510492

>  <MW>  (126) 
122

>  <ID>  (126) 
JP012010

>  <CONTRIBUTOR>  (126) 
University of Tokyo Team, {Faculty of Engineering, University of Tokyo

>  <COMMENT>  (126) 
SMILES=C[SiH2]C([2H])([2H])C([2H])([2H])[SiH2]C
InChI=InChI=1S/C4H14Si2/c1-5-3-4-6-2/h3-6H2,1-2H3/i3D2,4D2
computed SMILES=[H]C([H])([SiH2]C)C([H])([H])[SiH2]C
accession=JP012010
date=2016.01.19 (Created 2008.10.21, modified 2011.05.06)
author=YAMAMOTO M, DEP. CHEMISTRY, FAC. SCIENCE, NARA WOMEN'S UNIV.
license=CC BY-NC-SA
exact mass=118.0634
ionization energy=70 eV
ion type=[M]+*
computed spectral entropy=3.1716302232053946
computed normalized entropy=0.7844645078923556
SPLASH=splash10-00dj-9000000000-ec8d007089a001e0f9df
submitter=submitter = University of Tokyo Team (Faculty of Engineering, University of Tokyo)
MoNA Rating=3.75

>  <NUM PEAKS>  (126) 
57

>  <MASS SPECTRAL PEAKS>  (126) 
27 1.1
28 6.1
29 3.4
30 2.5
31 1.4
32 2.7
33 1.3
42 1.9
43 13.9
44 17.8
45 26.7
46 32.7
47 34.5
48 3.4
49 1.6
53 1.9
54 1
55 2.5
56 2.1
57 1.3
58 3
59 4.9
60 8.3
61 2
69 1.9
70 1.6
71 2.7
73 99.99
74 11.1
75 30.3
76 4.1
77 7
78 5.2
79 3.3
80 1.1
85 1.4
86 3.3
87 2
88 2.3
89 2.8
90 16
91 5.5
92 4.5
93 1.2
94 3.5
103 1.1
105 2
107 10.5
108 1.8
109 1.2
118 2.8
119 1
120 8.9
121 1.9
122 7.7
123 1.5
124 1.1

$$$$

     RDKit          2D

  6  5  0  0  0  0  0  0  0  0999 V2000
   -4.5466    3.3750    0.0000 C   0  0  0  0  0  0  0  0  0  0  0  0
    1.9486    2.6250    0.0000 C   0  0  0  0  0  0  0  0  0  0  0  0
   -1.9486    3.3750    0.0000 C   0  0  0  0  0  0  0  0  0  0  0  0
   -0.6495    2.6250    0.0000 C   0  0  0  0  0  0  0  0  0  0  0  0
   -3.2476    2.6250    0.0000 Si  0  0  0  0  0  4  0  0  0  0  0  0
    0.6495    3.3750    0.0000 Si  0  0  0  0  0  4  0  0  0  0  0  0
  4  3  1  0
  5  1  1  0
  5  3  1  0
  6  2  1  0
  6  4  1  0
M  END
>  <NAME>  (127) 
1,2-BIS(METHYLSILYL)ETHANE

>  <SYNONYMS>  (127) 


>  <SPECTRUM TYPE>  (127) 
MS1

>  <INSTRUMENT TYPE>  (127) 
EI-B

>  <INSTRUMENT>  (127) 
HITACHI RMU-6M

>  <ION MODE>  (127) 
P

>  <INCHIKEY>  (127) 
CBXZGERYGLVXSG-UHFFFAOYSA-N

>  <FORMULA>  (127) 
C4H14Si2

>  <EXACT MASS>  (127) 
118.063403508

>  <MW>  (127) 
118

>  <ID>  (127) 
JP012009

>  <CONTRIBUTOR>  (127) 
University of Tokyo Team, {Faculty of Engineering, University of Tokyo

>  <COMMENT>  (127) 
SMILES=C[SiH2]CC[SiH2]C
InChI=InChI=1S/C4H14Si2/c1-5-3-4-6-2/h3-6H2,1-2H3
computed SMILES=C[SiH2]CC[SiH2]C
accession=JP012009
date=2016.01.19 (Created 2008.10.21, modified 2011.05.06)
author=YAMAMOTO M, DEP. CHEMISTRY, FAC. SCIENCE, NARA WOMEN'S UNIV.
license=CC BY-NC-SA
exact mass=118.0634
ionization energy=70 eV
ion type=[M]+*
computed spectral entropy=2.8794626733657553
computed normalized entropy=0.7859735829497372
SPLASH=splash10-00dj-9000000000-5cdf941cfd0e3feb3330
submitter=submitter = University of Tokyo Team (Faculty of Engineering, University of Tokyo)
MoNA Rating=3.75

>  <NUM PEAKS>  (127) 
39

>  <MASS SPECTRAL PEAKS>  (127) 
27 2.6
28 4.7
29 5.3
31 4.7
41 3.2
42 3.7
43 31
44 16.1
45 77.1
46 5
47 2.6
53 2
55 5.3
56 4.4
57 5
58 2.9
59 14.1
69 2.9
70 2.3
71 10.2
72 99.99
73 35.1
74 6.4
75 13.2
76 1.5
85 2
86 5.3
87 4.1
88 18.2
89 17
90 5
91 1.2
102 1.5
103 10
104 1.2
116 2.9
117 11.7
118 6.4
119 1.5

$$$$

     RDKit          2D

 11 10  0  0  0  0  0  0  0  0999 V2000
    5.3603    3.9608    0.0000 C   0  0  0  0  0  0  0  0  0  0  0  0
    5.9094    1.9118    0.0000 C   0  0  0  0  0  0  0  0  0  0  0  0
   -1.3358    3.9608    0.0000 C   0  0  0  0  0  0  0  0  0  0  0  0
    0.1642    1.3627    0.0000 C   0  0  0  0  0  0  0  0  0  0  0  0
    2.0123    2.6618    0.0000 C   0  0  0  0  0  0  0  0  0  0  0  0
    3.3113    3.4118    0.0000 C   0  0  0  0  0  0  0  0  0  0  0  0
    0.7132    3.4118    0.0000 C   0  0  0  0  0  0  0  0  0  0  0  0
    4.6103    2.6618    0.0000 Si  0  0  0  0  0  4  0  0  0  0  0  0
    3.8603    1.3627    0.0000 H   0  0  0  0  0  0  0  0  0  0  0  0
   -0.5858    2.6618    0.0000 Si  0  0  0  0  0  4  0  0  0  0  0  0
   -1.8849    1.9118    0.0000 H   0  0  0  0  0  0  0  0  0  0  0  0
  8  9  1  0
 10 11  1  0
  6  5  1  0
  7  5  1  0
  8  1  1  0
  8  2  1  0
  8  6  1  0
 10  3  1  0
 10  4  1  0
 10  7  1  0
M  ISO  2   9   2  11   2
M  END
>  <NAME>  (128) 
1,3-BIS(DIMETHYLSILYL)PROPANE (2D)

>  <SYNONYMS>  (128) 


>  <SPECTRUM TYPE>  (128) 
MS1

>  <INSTRUMENT TYPE>  (128) 
EI-B

>  <INSTRUMENT>  (128) 
HITACHI RMU-6M

>  <ION MODE>  (128) 
P

>  <INCHIKEY>  (128) 
NKDJYWYZEVYOLX-XETGXLELSA-N

>  <FORMULA>  (128) 
C7H20Si2

>  <EXACT MASS>  (128) 
162.122907192

>  <MW>  (128) 
162

>  <ID>  (128) 
JP012008

>  <CONTRIBUTOR>  (128) 
University of Tokyo Team, {Faculty of Engineering, University of Tokyo

>  <COMMENT>  (128) 
SMILES=[2H][Si](C)(C)CCC[Si]([2H])(C)C
InChI=InChI=1S/C7H20Si2/c1-8(2)6-5-7-9(3)4/h8-9H,5-7H2,1-4H3/i8D,9D
computed SMILES=[H][Si](C)(C)CCC[Si]([H])(C)C
accession=JP012008
date=2016.01.19 (Created 2008.10.21, modified 2011.05.06)
author=YAMAMOTO M, DEP. CHEMISTRY, FAC. SCIENCE, NARA WOMEN'S UNIV.
license=CC BY-NC-SA
exact mass=160.11035
ionization energy=70 eV
ion type=[M]+*
computed spectral entropy=3.2847218278361723
computed normalized entropy=0.802258280395794
SPLASH=splash10-03di-9300000000-5e04381be63848ad366e
submitter=submitter = University of Tokyo Team (Faculty of Engineering, University of Tokyo)
MoNA Rating=3.75

>  <NUM PEAKS>  (128) 
60

>  <MASS SPECTRAL PEAKS>  (128) 
28 2.7
29 6.1
30 1.1
31 12.9
32 8.4
39 1.6
42 2.6
43 26.4
44 12.6
45 8.2
46 8.5
47 1
53 1.3
55 2.7
56 1.4
57 3.1
58 10.9
59 45.6
60 99.99
61 9.3
62 4.7
69 1
70 1.3
71 2.3
72 42.1
75 1.9
83 1
84 1
85 12.7
86 28.1
87 8.9
88 10.8
89 1.2
98 1.6
99 5.8
100 45.6
101 9.5
102 6.6
103 2.1
104 1.4
115 1.2
116 5
117 3.6
118 6.1
119 4.7
120 1
130 2.8
131 3.7
132 1.2
133 1.4
143 1.2
144 1.6
147 34.2
148 5.4
149 2.7
158 4.8
159 6.7
160 7.6
161 1.6
162 1.9

$$$$

     RDKit          2D

  9  8  0  0  0  0  0  0  0  0999 V2000
    2.2733    2.8125    0.0000 C   0  0  0  0  0  0  0  0  0  0  0  0
    0.9743    5.0625    0.0000 C   0  0  0  0  0  0  0  0  0  0  0  0
   -5.5209    2.8125    0.0000 C   0  0  0  0  0  0  0  0  0  0  0  0
   -4.2219    5.0625    0.0000 C   0  0  0  0  0  0  0  0  0  0  0  0
   -1.6238    3.5625    0.0000 C   0  0  0  0  0  0  0  0  0  0  0  0
   -0.3248    2.8125    0.0000 C   0  0  0  0  0  0  0  0  0  0  0  0
   -2.9228    2.8125    0.0000 C   0  0  0  0  0  0  0  0  0  0  0  0
    0.9743    3.5625    0.0000 Si  0  0  0  0  0  4  0  0  0  0  0  0
   -4.2219    3.5625    0.0000 Si  0  0  0  0  0  4  0  0  0  0  0  0
  6  5  1  0
  7  5  1  0
  8  1  1  0
  8  2  1  0
  8  6  1  0
  9  3  1  0
  9  4  1  0
  9  7  1  0
M  END
>  <NAME>  (129) 
1,3-BIS(DIMETHYLSILYL)PROPANE

>  <SYNONYMS>  (129) 


>  <SPECTRUM TYPE>  (129) 
MS1

>  <INSTRUMENT TYPE>  (129) 
EI-B

>  <INSTRUMENT>  (129) 
HITACHI RMU-6M

>  <ION MODE>  (129) 
P

>  <INCHIKEY>  (129) 
NKDJYWYZEVYOLX-UHFFFAOYSA-N

>  <FORMULA>  (129) 
C7H20Si2

>  <EXACT MASS>  (129) 
160.1103537

>  <MW>  (129) 
160

>  <ID>  (129) 
JP012007

>  <CONTRIBUTOR>  (129) 
University of Tokyo Team, {Faculty of Engineering, University of Tokyo

>  <COMMENT>  (129) 
SMILES=C[SiH](C)CCC[SiH](C)C
InChI=InChI=1S/C7H20Si2/c1-8(2)6-5-7-9(3)4/h8-9H,5-7H2,1-4H3
computed SMILES=C[SiH](C)CCC[SiH](C)C
accession=JP012007
date=2016.01.19 (Created 2008.10.21, modified 2011.05.06)
author=YAMAMOTO M, DEP. CHEMISTRY, FAC. SCIENCE, NARA WOMEN'S UNIV.
license=CC BY-NC-SA
exact mass=160.11035
ionization energy=70 eV
ion type=[M]+*
computed spectral entropy=3.019324075995114
computed normalized entropy=0.8027554990751543
SPLASH=splash10-0a4i-9300000000-f6a8a8cdab52cc2fe72d
submitter=submitter = University of Tokyo Team (Faculty of Engineering, University of Tokyo)
MoNA Rating=3.75

>  <NUM PEAKS>  (129) 
43

>  <MASS SPECTRAL PEAKS>  (129) 
29 5.3
31 12.9
32 1.2
42 2.3
43 23.9
44 4.8
45 10.3
53 1.2
55 2.4
57 3.7
58 12
59 99.99
60 8.2
61 4.1
70 3.7
71 2.8
72 29.9
73 22.5
74 2.5
75 2.1
85 34.2
86 3.6
87 7.9
98 1.1
99 6.7
100 34.2
101 7.6
102 2.1
103 2.4
115 1.7
116 4.3
117 7
118 1.3
130 3.2
131 2.2
143 2.1
144 1
145 24.6
146 4.5
147 1.9
158 5.3
159 9.3
160 3.2

$$$$

     RDKit          2D

  9  8  0  0  0  0  0  0  0  0999 V2000
    2.0490    4.0981    0.0000 C   0  0  0  0  0  0  0  0  0  0  0  0
    3.5490    2.5981    0.0000 C   0  0  0  0  0  0  0  0  0  0  0  0
   -1.5000    2.0490    0.0000 C   0  0  0  0  0  0  0  0  0  0  0  0
    1.0981    0.5490    0.0000 C   0  0  0  0  0  0  0  0  0  0  0  0
    0.5490    2.5981    0.0000 C   0  0  0  0  0  0  0  0  0  0  0  0
    2.0490    2.5981    0.0000 Si  0  0  0  0  0  4  0  0  0  0  0  0
    2.0490    1.0981    0.0000 H   0  0  0  0  0  0  0  0  0  0  0  0
   -0.2010    1.2990    0.0000 Si  0  0  0  0  0  4  0  0  0  0  0  0
   -0.9510    0.0000    0.0000 H   0  0  0  0  0  0  0  0  0  0  0  0
  6  7  1  0
  8  9  1  0
  6  1  1  0
  6  2  1  0
  6  5  1  0
  8  3  1  0
  8  4  1  0
  8  5  1  0
M  ISO  2   7   2   9   2
M  END
>  <NAME>  (130) 
BIS(DIMETHYLSILYL)METHANE (D2)

>  <SYNONYMS>  (130) 


>  <SPECTRUM TYPE>  (130) 
MS1

>  <INSTRUMENT TYPE>  (130) 
EI-B

>  <INSTRUMENT>  (130) 
HITACHI RMU-6M

>  <ION MODE>  (130) 
P

>  <INCHIKEY>  (130) 
PTQFHZAGGNQPDA-QFIQSOQBSA-N

>  <FORMULA>  (130) 
C5H16Si2

>  <EXACT MASS>  (130) 
134.091607064

>  <MW>  (130) 
134

>  <ID>  (130) 
JP012006

>  <CONTRIBUTOR>  (130) 
University of Tokyo Team, {Faculty of Engineering, University of Tokyo

>  <COMMENT>  (130) 
SMILES=[2H][Si](C)(C)C[Si]([2H])(C)C
InChI=InChI=1S/C5H16Si2/c1-6(2)5-7(3)4/h6-7H,5H2,1-4H3/i6D,7D
computed SMILES=[H][Si](C)(C)C[Si]([H])(C)C
accession=JP012006
date=2016.01.19 (Created 2008.10.21, modified 2011.05.06)
author=YAMAMOTO M, DEP. CHEMISTRY, FAC. SCIENCE, NARA WOMEN'S UNIV.
license=CC BY-NC-SA
exact mass=132.07905
ionization energy=70 eV
ion type=[M]+*
computed spectral entropy=2.9172522115209474
computed normalized entropy=0.7457144826278118
SPLASH=splash10-01b9-8900000000-d611be88f5d07e787c53
submitter=submitter = University of Tokyo Team (Faculty of Engineering, University of Tokyo)
MoNA Rating=3.75

>  <NUM PEAKS>  (130) 
50

>  <MASS SPECTRAL PEAKS>  (130) 
28 2.1
29 4.2
31 5
32 3.7
42 1.6
43 14
44 7.4
45 7.6
46 5.3
47 1.6
53 1.6
56 1.8
57 1.6
58 2.4
59 5.3
60 14.2
61 3.4
62 1.1
69 2.6
70 1.6
71 1.6
72 6.6
73 34.7
74 12.9
75 2.9
81 1.1
83 1.1
84 1.1
85 1.3
86 2.1
87 1.6
88 1.1
89 1.1
100 1.1
101 1.1
102 2.9
103 2.4
104 1.1
115 2.1
116 2.9
117 2.1
118 1.6
119 99.99
120 16.3
121 8.4
122 1.1
130 1.8
132 9.5
133 2.1
134 1.1

$$$$

     RDKit          2D

  7  6  0  0  0  0  0  0  0  0999 V2000
    1.6238    1.6875    0.0000 C   0  0  0  0  0  0  0  0  0  0  0  0
    0.3248    3.9375    0.0000 C   0  0  0  0  0  0  0  0  0  0  0  0
   -3.5724    1.6875    0.0000 C   0  0  0  0  0  0  0  0  0  0  0  0
   -2.2733    3.9375    0.0000 C   0  0  0  0  0  0  0  0  0  0  0  0
   -0.9743    1.6875    0.0000 C   0  0  0  0  0  0  0  0  0  0  0  0
    0.3248    2.4375    0.0000 Si  0  0  0  0  0  4  0  0  0  0  0  0
   -2.2733    2.4375    0.0000 Si  0  0  0  0  0  4  0  0  0  0  0  0
  6  1  1  0
  6  2  1  0
  6  5  1  0
  7  3  1  0
  7  4  1  0
  7  5  1  0
M  END
>  <NAME>  (131) 
BIS(DIMETHYLSILYL)METHANE

>  <SYNONYMS>  (131) 


>  <SPECTRUM TYPE>  (131) 
MS1

>  <INSTRUMENT TYPE>  (131) 
EI-B

>  <INSTRUMENT>  (131) 
HITACHI RMU-6M

>  <ION MODE>  (131) 
P

>  <INCHIKEY>  (131) 
PTQFHZAGGNQPDA-UHFFFAOYSA-N

>  <FORMULA>  (131) 
C5H16Si2

>  <EXACT MASS>  (131) 
132.079053572

>  <MW>  (131) 
132

>  <ID>  (131) 
JP012005

>  <CONTRIBUTOR>  (131) 
University of Tokyo Team, {Faculty of Engineering, University of Tokyo

>  <COMMENT>  (131) 
SMILES=C[SiH](C)C[SiH](C)C
InChI=InChI=1S/C5H16Si2/c1-6(2)5-7(3)4/h6-7H,5H2,1-4H3
computed SMILES=C[SiH](C)C[SiH](C)C
accession=JP012005
date=2016.01.19 (Created 2008.10.21, modified 2011.05.06)
author=YAMAMOTO M, DEP. CHEMISTRY, FAC. SCIENCE, NARA WOMEN'S UNIV.
license=CC BY-NC-SA
exact mass=132.07905
ionization energy=70 eV
ion type=[M]+*
computed spectral entropy=2.8653006856533887
computed normalized entropy=0.7442054128991714
SPLASH=splash10-014i-9800000000-7ae57e21afe4b5a820a6
submitter=submitter = University of Tokyo Team (Faculty of Engineering, University of Tokyo)
MoNA Rating=3.75

>  <NUM PEAKS>  (131) 
47

>  <MASS SPECTRAL PEAKS>  (131) 
28 1.8
29 4.5
30 1.1
31 7.2
32 1.1
42 2.5
43 19.2
44 4.5
45 12.2
46 1.4
51 1.1
53 2.2
55 2.8
57 2.8
58 4.2
59 19.2
60 1.9
61 1.4
69 3.9
70 1.7
71 2.2
72 6.1
73 47.5
74 4.7
75 2.5
81 1.7
83 1.7
84 1.1
85 2.8
86 1.1
87 1.7
89 1.1
99 2.2
100 5.6
102 1.4
103 1.1
115 5.6
116 3.3
117 99.99
118 16.1
119 8.3
120 1.2
129 1.1
130 3.1
131 16.1
132 2.8
133 1.7

$$$$

     RDKit          2D

 17 18  0  0  0  0  0  0  0  0999 V2000
    1.7164    6.7735    0.0000 C   0  0  0  0  0  0  0  0  0  0  0  0
    2.2294    3.8640    0.0000 C   0  0  0  0  0  0  0  0  0  0  0  0
   -4.7788    1.5235    0.0000 C   0  0  0  0  0  0  0  0  0  0  0  0
    6.1494    6.0566    0.0000 C   0  0  0  0  0  0  0  0  0  0  0  0
   -3.4793    0.7727    0.0000 C   0  0  0  0  0  0  0  0  0  0  0  0
   -4.7793    3.0243    0.0000 C   0  0  0  0  0  0  0  0  0  0  0  0
    5.6359    4.6464    0.0000 C   0  0  0  0  0  0  0  0  0  0  0  0
    5.1850    7.2056    0.0000 C   0  0  0  0  0  0  0  0  0  0  0  0
   -2.1803    1.5227    0.0000 C   0  0  0  0  0  0  0  0  0  0  0  0
   -3.4803    3.7743    0.0000 C   0  0  0  0  0  0  0  0  0  0  0  0
    4.1579    4.3851    0.0000 C   0  0  0  0  0  0  0  0  0  0  0  0
    3.7071    6.9442    0.0000 C   0  0  0  0  0  0  0  0  0  0  0  0
   -0.8817    3.7735    0.0000 C   0  0  0  0  0  0  0  0  0  0  0  0
    0.4173    4.5235    0.0000 C   0  0  0  0  0  0  0  0  0  0  0  0
   -2.1807    3.0235    0.0000 C   0  0  0  0  0  0  0  0  0  0  0  0
    3.1936    5.5340    0.0000 C   0  0  0  0  0  0  0  0  0  0  0  0
    1.7164    5.2735    0.0000 Si  0  0  0  0  0  4  0  0  0  0  0  0
  5  3  2  0
  6  3  1  0
  7  4  2  0
  8  4  1  0
  9  5  1  0
 10  6  2  0
 11  7  1  0
 12  8  2  0
 14 13  3  0
 15  9  2  0
 15 10  1  0
 15 13  1  0
 16 11  2  0
 16 12  1  0
 17  1  1  0
 17  2  1  0
 17 14  1  0
 17 16  1  0
M  END
>  <NAME>  (132) 
(DIMETHYLPHENYLSILYL)PHENYLACETYLENE

>  <SYNONYMS>  (132) 


>  <SPECTRUM TYPE>  (132) 
MS1

>  <INSTRUMENT TYPE>  (132) 
EI-B

>  <INSTRUMENT>  (132) 
SHIMADZU QP-1000

>  <ION MODE>  (132) 
P

>  <INCHIKEY>  (132) 
ZLASSMJFYNXSGL-UHFFFAOYSA-N

>  <FORMULA>  (132) 
C16H16Si

>  <EXACT MASS>  (132) 
236.102127042

>  <MW>  (132) 
236

>  <ID>  (132) 
JP011969

>  <CONTRIBUTOR>  (132) 
University of Tokyo Team, {Faculty of Engineering, University of Tokyo

>  <COMMENT>  (132) 
SMILES=c(c2)ccc(c2)C#C[Si](C)(C)c(c1)cccc1
InChI=InChI=1S/C16H16Si/c1-17(2,16-11-7-4-8-12-16)14-13-15-9-5-3-6-10-15/h3-12H,1-2H3
computed SMILES=C(#C[Si](C=1C=CC=CC1)(C)C)C=2C=CC=CC2
accession=JP011969
date=2016.01.19 (Created 2008.10.21, modified 2011.05.06)
author=ISHIKAWA M, HIROSHIMA UNIV. FAC. TEQUNOLOGY
license=CC BY-NC-SA
exact mass=236.10213
ionization energy=70 eV
ion type=[M]+*
computed spectral entropy=1.9975842133535378
computed normalized entropy=0.6561239912711087
SPLASH=splash10-00di-2190000000-628abe5f47fb06c05c27
submitter=submitter = University of Tokyo Team (Faculty of Engineering, University of Tokyo)
MoNA Rating=3.75

>  <NUM PEAKS>  (132) 
21

>  <MASS SPECTRAL PEAKS>  (132) 
52 1.1
53 4.2
54 18.9
55 1.1
56 2.1
65 1.1
67 1.1
77 3.2
79 1.1
91 1.1
93 3.2
103 3.2
105 9.5
111 1.1
119 2.1
129 5.3
221 99.99
222 21.1
223 4.2
236 26.3
237 6.3

$$$$

     RDKit          2D

 11 10  0  0  0  0  0  0  0  0999 V2000
    2.5981    4.5000    0.0000 C   0  0  0  0  0  0  0  0  0  0  0  0
   -7.7942    4.5000    0.0000 C   0  0  0  0  0  0  0  0  0  0  0  0
   -3.5623    3.3509    0.0000 C   0  0  0  0  0  0  0  0  0  0  0  0
    1.2990    5.2500    0.0000 C   0  0  0  0  0  0  0  0  0  0  0  0
   -6.4952    5.2500    0.0000 C   0  0  0  0  0  0  0  0  0  0  0  0
    0.0000    4.5000    0.0000 C   0  0  0  0  0  0  0  0  0  0  0  0
   -5.1962    4.5000    0.0000 C   0  0  0  0  0  0  0  0  0  0  0  0
   -1.2990    5.2500    0.0000 C   0  0  0  0  0  0  0  0  0  0  0  0
   -3.8971    5.2500    0.0000 C   0  0  0  0  0  0  0  0  0  0  0  0
   -1.6339    3.3509    0.0000 I   0  0  0  0  0  0  0  0  0  0  0  0
   -2.5981    4.5000    0.0000 Si  0  0  0  0  0  4  0  0  0  0  0  0
  4  1  1  0
  5  2  1  0
  6  4  1  0
  7  5  1  0
  8  6  1  0
  9  7  1  0
 11  3  1  0
 11  8  1  0
 11  9  1  0
 11 10  1  0
M  END
>  <NAME>  (133) 
DIBUTYLIODOMETHYLSILANE

>  <SYNONYMS>  (133) 


>  <SPECTRUM TYPE>  (133) 
MS1

>  <INSTRUMENT TYPE>  (133) 
EI-B

>  <INSTRUMENT>  (133) 
SHIMADZU QP-1000

>  <ION MODE>  (133) 
P

>  <INCHIKEY>  (133) 
FXZJDXGJYGYLQK-UHFFFAOYSA-N

>  <FORMULA>  (133) 
C9H21ISi

>  <EXACT MASS>  (133) 
284.045725202

>  <MW>  (133) 
284

>  <ID>  (133) 
JP011968

>  <CONTRIBUTOR>  (133) 
University of Tokyo Team, {Faculty of Engineering, University of Tokyo

>  <COMMENT>  (133) 
SMILES=CCCC[Si](C)(I)CCCC
InChI=InChI=1S/C9H21ISi/c1-4-6-8-11(3,10)9-7-5-2/h4-9H2,1-3H3
computed SMILES=I[Si](C)(CCCC)CCCC
accession=JP011968
date=2016.01.19 (Created 2008.10.21, modified 2011.05.06)
author=ISHIKAWA M, HIROSHIMA UNIV. FAC. TEQUNOLOGY
license=CC BY-NC-SA
exact mass=284.04572
ionization energy=70 eV
ion type=[M]+*
computed spectral entropy=2.067660181422731
computed normalized entropy=0.7022255159820219
SPLASH=splash10-0a4i-9400000000-f9284fed2fc188c1d2dd
submitter=submitter = University of Tokyo Team (Faculty of Engineering, University of Tokyo)
MoNA Rating=3.75

>  <NUM PEAKS>  (133) 
19

>  <MASS SPECTRAL PEAKS>  (133) 
53 2.1
55 9.5
56 1.1
57 4.2
59 99.99
60 8.4
61 3.2
71 5.3
73 42.1
74 3.2
99 2.1
101 32.6
102 3.2
157 40
158 5.3
170 1.1
171 8.4
185 1.9
227 1.3

$$$$

     RDKit          2D

 22 23  0  0  0  0  0  0  0  0999 V2000
    7.7962    0.7508    0.0000 C   0  0  0  0  0  0  0  0  0  0  0  0
    0.8491   -4.0587    0.0000 C   0  0  0  0  0  0  0  0  0  0  0  0
    1.7509   -4.0587    0.0000 C   0  0  0  0  0  0  0  0  0  0  0  0
    1.7509    4.0587    0.0000 C   0  0  0  0  0  0  0  0  0  0  0  0
    0.8491    4.0587    0.0000 C   0  0  0  0  0  0  0  0  0  0  0  0
    6.4970    1.5006    0.0000 C   0  0  0  0  0  0  0  0  0  0  0  0
    0.3359   -2.6492    0.0000 C   0  0  0  0  0  0  0  0  0  0  0  0
    2.2641   -2.6492    0.0000 C   0  0  0  0  0  0  0  0  0  0  0  0
    2.2641    2.6492    0.0000 C   0  0  0  0  0  0  0  0  0  0  0  0
    0.3359    2.6492    0.0000 C   0  0  0  0  0  0  0  0  0  0  0  0
    5.1981    0.7504    0.0000 C   0  0  0  0  0  0  0  0  0  0  0  0
   -2.6000   -0.7500    0.0000 C   0  0  0  0  0  0  0  0  0  0  0  0
   -2.6000    0.7500    0.0000 C   0  0  0  0  0  0  0  0  0  0  0  0
    3.8989    1.5002    0.0000 C   0  0  0  0  0  0  0  0  0  0  0  0
   -1.3000   -1.5000    0.0000 C   0  0  0  0  0  0  0  0  0  0  0  0
   -1.3000    1.5000    0.0000 C   0  0  0  0  0  0  0  0  0  0  0  0
    2.6000   -0.7500    0.0000 C   0  0  0  0  0  0  0  0  0  0  0  0
    2.6000    0.7500    0.0000 C   0  0  0  0  0  0  0  0  0  0  0  0
    0.0000   -0.7500    0.0000 C   0  0  0  0  0  0  0  0  0  0  0  0
    0.0000    0.7500    0.0000 C   0  0  0  0  0  0  0  0  0  0  0  0
    1.3000   -1.5000    0.0000 Si  0  0  0  0  0  4  0  0  0  0  0  0
    1.3000    1.5000    0.0000 Si  0  0  0  0  0  4  0  0  0  0  0  0
  6  1  1  0
  7  2  1  0
  8  3  1  0
  9  4  1  0
 10  5  1  0
 11  6  1  0
 13 12  2  0
 14 11  1  0
 15 12  1  0
 16 13  1  0
 18 14  1  0
 18 17  1  0
 19 15  2  0
 20 16  2  0
 20 19  1  0
 21  7  1  0
 21  8  1  0
 21 17  1  0
 21 19  1  0
 22  9  1  0
 22 10  1  0
 22 18  1  0
 22 20  1  0
M  END
>  <NAME>  (134) 
5-BUTYL-1,1,4,4-TETRAETHYL-2,3-BENZO-1,4-DISILACYCLOHEX-2-ENE

>  <SYNONYMS>  (134) 


>  <SPECTRUM TYPE>  (134) 
MS1

>  <INSTRUMENT TYPE>  (134) 
EI-B

>  <INSTRUMENT>  (134) 
SHIMADZU QP-1000

>  <ION MODE>  (134) 
P

>  <INCHIKEY>  (134) 
GOGDOWVJFBUYPC-UHFFFAOYSA-N

>  <FORMULA>  (134) 
C20H36Si2

>  <EXACT MASS>  (134) 
332.235554212

>  <MW>  (134) 
332

>  <ID>  (134) 
JP011967

>  <CONTRIBUTOR>  (134) 
University of Tokyo Team, {Faculty of Engineering, University of Tokyo

>  <COMMENT>  (134) 
SMILES=CCCCC(C1)[Si](CC)(CC)c(c2)c(ccc2)[Si](CC)(CC)1
InChI=InChI=1S/C20H36Si2/c1-6-11-14-18-17-21(7-2,8-3)19-15-12-13-16-20(19)22(18,9-4)10-5/h12-13,15-16,18H,6-11,14,17H2,1-5H3
computed SMILES=C=1C=CC2=C(C1)[Si](CC)(CC)CC(CCCC)[Si]2(CC)CC
accession=JP011967
date=2016.01.19 (Created 2008.10.21, modified 2011.05.06)
author=ISHIKAWA M, HIROSHIMA UNIV. FAC. TEQUNOLOGY
license=CC BY-NC-SA
exact mass=332.23555
ionization energy=70 eV
ion type=[M]+*
computed spectral entropy=3.4690364636278415
computed normalized entropy=0.8193077948939808
SPLASH=splash10-0f89-6695000000-b9901575df0164b3ad96
submitter=submitter = University of Tokyo Team (Faculty of Engineering, University of Tokyo)
MoNA Rating=3.75

>  <NUM PEAKS>  (134) 
69

>  <MASS SPECTRAL PEAKS>  (134) 
54 3.2
56 6.3
57 1.1
58 9.5
59 3.2
60 37.9
61 2.1
67 1.1
68 3.2
69 3.2
71 2.1
73 4.2
74 8.4
81 9.5
82 5.3
83 1.1
85 1.1
87 8.4
88 18.9
89 1.1
95 5.3
96 9.5
102 9.5
103 1.1
105 7.4
107 5.3
109 3.2
110 6.3
124 1.1
131 8.4
132 1.1
133 7.4
134 1.1
135 8.4
137 3.2
145 5.3
147 6.3
148 1.1
149 27.4
150 3.2
151 1.1
159 5.3
161 6.3
162 2.1
163 8.4
164 1.1
175 2.1
177 14.7
178 2.1
189 1.1
191 3.2
205 44.2
206 8.4
207 3.2
219 6.3
220 1.1
233 99.99
234 25.3
235 9.5
247 6.3
248 1.1
249 1.1
275 2.1
303 73.7
304 23.2
305 7.4
332 20
333 5.3
334 2.1

$$$$

     RDKit          2D

 30 33  0  0  0  0  0  0  0  0999 V2000
   -5.1962   -6.0000    0.0000 C   0  0  0  0  0  0  0  0  0  0  0  0
   -2.5983   -1.4992    0.0000 C   0  0  0  0  0  0  0  0  0  0  0  0
    0.0006   -6.0006    0.0000 C   0  0  0  0  0  0  0  0  0  0  0  0
    2.1319   -8.7317    0.0000 C   0  0  0  0  0  0  0  0  0  0  0  0
    6.5639   -5.0103    0.0000 C   0  0  0  0  0  0  0  0  0  0  0  0
    3.6687    0.0007    0.0000 C   0  0  0  0  0  0  0  0  0  0  0  0
    0.8322   -7.9810    0.0000 C   0  0  0  0  0  0  0  0  0  0  0  0
    3.4308   -7.9815    0.0000 C   0  0  0  0  0  0  0  0  0  0  0  0
    5.5990   -6.1598    0.0000 C   0  0  0  0  0  0  0  0  0  0  0  0
    6.0507   -3.6008    0.0000 C   0  0  0  0  0  0  0  0  0  0  0  0
    4.6333   -1.1492    0.0000 C   0  0  0  0  0  0  0  0  0  0  0  0
    2.1916   -0.2600    0.0000 C   0  0  0  0  0  0  0  0  0  0  0  0
    0.8315   -6.4802    0.0000 C   0  0  0  0  0  0  0  0  0  0  0  0
    3.4301   -6.4806    0.0000 C   0  0  0  0  0  0  0  0  0  0  0  0
    4.1209   -5.8999    0.0000 C   0  0  0  0  0  0  0  0  0  0  0  0
    4.5725   -3.3409    0.0000 C   0  0  0  0  0  0  0  0  0  0  0  0
    4.1206   -2.5598    0.0000 C   0  0  0  0  0  0  0  0  0  0  0  0
    1.6789   -1.6706    0.0000 C   0  0  0  0  0  0  0  0  0  0  0  0
   -3.8976   -3.7492    0.0000 C   0  0  0  0  0  0  0  0  0  0  0  0
   -2.5976   -6.0008    0.0000 C   0  0  0  0  0  0  0  0  0  0  0  0
   -3.8971   -5.2500    0.0000 C   0  0  0  0  0  0  0  0  0  0  0  0
   -2.5986   -2.9992    0.0000 C   0  0  0  0  0  0  0  0  0  0  0  0
   -1.2986   -5.2508    0.0000 C   0  0  0  0  0  0  0  0  0  0  0  0
    2.1304   -5.7300    0.0000 C   0  0  0  0  0  0  0  0  0  0  0  0
    3.6076   -4.4905    0.0000 C   0  0  0  0  0  0  0  0  0  0  0  0
    2.6435   -2.8205    0.0000 C   0  0  0  0  0  0  0  0  0  0  0  0
   -1.2990   -3.7500    0.0000 C   0  0  0  0  0  0  0  0  0  0  0  0
   -0.0000   -3.0000    0.0000 C   0  0  0  0  0  0  0  0  0  0  0  0
    0.0000   -1.5000    0.0000 O   0  0  0  0  0  0  0  0  0  0  0  0
    2.1304   -4.2300    0.0000 Si  0  0  0  0  0  4  0  0  0  0  0  0
  7  4  2  0
  8  4  1  0
  9  5  2  0
 10  5  1  0
 11  6  2  0
 12  6  1  0
 13  7  1  0
 14  8  2  0
 15  9  1  0
 16 10  2  0
 17 11  1  0
 18 12  2  0
 21  1  1  0
 21 19  2  0
 21 20  1  0
 22  2  1  0
 22 19  1  0
 23  3  1  0
 23 20  2  0
 24 13  2  0
 24 14  1  0
 25 15  2  0
 25 16  1  0
 26 17  2  0
 26 18  1  0
 27 22  2  0
 27 23  1  0
 28 27  1  0
 29 28  2  0
 30 24  1  0
 30 25  1  0
 30 26  1  0
 30 28  1  0
M  END
>  <NAME>  (135) 
(2,4,6-TRIMETHYLBENZOYL)TRIPHENYLSILANE

>  <SYNONYMS>  (135) 


>  <SPECTRUM TYPE>  (135) 
MS1

>  <INSTRUMENT TYPE>  (135) 
EI-B

>  <INSTRUMENT>  (135) 
SHIMADZU QP-1000

>  <ION MODE>  (135) 
P

>  <INCHIKEY>  (135) 
CERAAUHWEOIMMB-UHFFFAOYSA-N

>  <FORMULA>  (135) 
C28H26OSi

>  <EXACT MASS>  (135) 
406.175291982

>  <MW>  (135) 
406

>  <ID>  (135) 
JP011965

>  <CONTRIBUTOR>  (135) 
University of Tokyo Team, {Faculty of Engineering, University of Tokyo

>  <COMMENT>  (135) 
SMILES=C([Si](c(c4)cccc4)(c(c3)cccc3)c(c2)cccc2)(=O)c(c1C)c(cc(C)c1)C
InChI=InChI=1S/C28H26OSi/c1-21-19-22(2)27(23(3)20-21)28(29)30(24-13-7-4-8-14-24,25-15-9-5-10-16-25)26-17-11-6-12-18-26/h4-20H,1-3H3
computed SMILES=O=C(C=1C(=CC(=CC1C)C)C)[Si](C=2C=CC=CC2)(C=3C=CC=CC3)C=4C=CC=CC4
accession=JP011965
date=2016.01.19 (Created 2008.10.21, modified 2011.05.06)
author=ISHIKAWA M, HIROSHIMA UNIV. FAC. TEQUNOLOGY
license=CC BY-NC-SA
exact mass=406.17529
ionization energy=70 eV
ion type=[M]+*
computed spectral entropy=3.125431112530059
computed normalized entropy=0.811769167276051
SPLASH=splash10-0a4l-2596100000-e510b53022b9b94a4d2e
submitter=submitter = University of Tokyo Team (Faculty of Engineering, University of Tokyo)
MoNA Rating=3.75

>  <NUM PEAKS>  (135) 
47

>  <MASS SPECTRAL PEAKS>  (135) 
51 4.2
52 4.2
53 14.7
55 1.1
65 2.1
77 6.3
78 3.2
79 5.3
91 8.4
103 5.3
105 15.8
106 1.1
115 1.1
117 2.1
119 7.4
129 2.1
147 9.5
148 1.1
155 6.3
179 2.1
180 8.4
181 21.1
182 3.2
199 15.8
200 3.2
205 1.1
206 23.2
207 5.3
255 1.1
257 4.2
259 99.99
260 25.3
261 6.3
288 3.2
299 1.1
314 1.1
316 27.4
317 7.4
318 1.1
329 6.3
330 3.2
392 55.8
393 18.9
394 4.2
406 11.6
407 6.3
408 2.1

$$$$

     RDKit          2D

 18 18  0  0  0  0  0  0  0  0999 V2000
    5.1975   -1.4994    0.0000 C   0  0  0  0  0  0  0  0  0  0  0  0
    1.2995    3.7500    0.0000 C   0  0  0  0  0  0  0  0  0  0  0  0
    7.7951    1.5010    0.0000 C   0  0  0  0  0  0  0  0  0  0  0  0
    6.4964   -0.7492    0.0000 C   0  0  0  0  0  0  0  0  0  0  0  0
   -2.5989   -1.5002    0.0000 C   0  0  0  0  0  0  0  0  0  0  0  0
    5.1968    3.0006    0.0000 C   0  0  0  0  0  0  0  0  0  0  0  0
    3.8983   -0.7496    0.0000 C   0  0  0  0  0  0  0  0  0  0  0  0
    2.5987    3.0002    0.0000 C   0  0  0  0  0  0  0  0  0  0  0  0
   -1.3000    0.7500    0.0000 C   0  0  0  0  0  0  0  0  0  0  0  0
   -0.0000   -1.5000    0.0000 C   0  0  0  0  0  0  0  0  0  0  0  0
    0.0000    1.5000    0.0000 C   0  0  0  0  0  0  0  0  0  0  0  0
    1.3000   -0.7500    0.0000 C   0  0  0  0  0  0  0  0  0  0  0  0
    6.4962    0.7508    0.0000 C   0  0  0  0  0  0  0  0  0  0  0  0
   -1.3000   -0.7500    0.0000 C   0  0  0  0  0  0  0  0  0  0  0  0
    5.1970    1.5006    0.0000 C   0  0  0  0  0  0  0  0  0  0  0  0
    1.3000    0.7500    0.0000 C   0  0  0  0  0  0  0  0  0  0  0  0
    3.8981    0.7504    0.0000 Si  0  0  0  0  0  4  0  0  0  0  0  0
    2.5989    1.5002    0.0000 Si  0  0  0  0  0  4  0  0  0  0  0  0
  7  1  1  0
  8  2  1  0
 11  9  2  0
 12 10  1  0
 13  3  1  0
 13  4  1  0
 14  5  1  0
 14  9  1  0
 14 10  2  0
 15  6  1  0
 15 13  1  0
 16 11  1  0
 16 12  2  0
 17  7  1  0
 17 15  1  0
 18  8  1  0
 18 16  1  0
 18 17  1  0
M  END
>  <NAME>  (136) 
1,2-DIETHYL-1,2-DIMETHYLPROPYL(PARA-TOLYL)DISILANE

>  <SYNONYMS>  (136) 


>  <SPECTRUM TYPE>  (136) 
MS1

>  <INSTRUMENT TYPE>  (136) 
EI-B

>  <INSTRUMENT>  (136) 
SHIMADZU QP-1000

>  <ION MODE>  (136) 
P

>  <INCHIKEY>  (136) 
ORBZJDGFDGGPEG-UHFFFAOYSA-N

>  <FORMULA>  (136) 
C16H30Si2

>  <EXACT MASS>  (136) 
278.18860402

>  <MW>  (136) 
278

>  <ID>  (136) 
JP011964

>  <CONTRIBUTOR>  (136) 
University of Tokyo Team, {Faculty of Engineering, University of Tokyo

>  <COMMENT>  (136) 
SMILES=Cc(c1)ccc(c1)[SiH](CC)[SiH](CC)C(C)C(C)C
InChI=InChI=1S/C16H30Si2/c1-7-17(15(6)13(3)4)18(8-2)16-11-9-14(5)10-12-16/h9-13,15,17-18H,7-8H2,1-6H3
computed SMILES=C=1C=C(C=CC1C)[SiH](CC)[SiH](CC)C(C)C(C)C
accession=JP011964
date=2016.01.19 (Created 2008.10.21, modified 2011.05.06)
author=ISHIKAWA M, HIROSHIMA UNIV. FAC. TEQUNOLOGY
license=CC BY-NC-SA
exact mass=278.1886
ionization energy=70 eV
ion type=[M]+*
computed spectral entropy=2.953973828309674
computed normalized entropy=0.7512982782664481
SPLASH=splash10-0ab9-9300000000-44dc5deedec02d5cfbc4
submitter=submitter = University of Tokyo Team (Faculty of Engineering, University of Tokyo)
MoNA Rating=3.75

>  <NUM PEAKS>  (136) 
51

>  <MASS SPECTRAL PEAKS>  (136) 
51 2.1
53 22.1
54 2.1
55 15.8
56 3.2
57 13.7
58 15.8
59 78.9
60 4.2
61 1.1
65 1.1
67 5.3
69 7.4
70 2.1
71 7.4
72 12.6
73 99.99
74 7.4
75 3.2
79 1.1
81 1.1
83 1.1
85 3.2
86 2.1
87 9.5
88 1.1
91 2.1
93 3.2
95 1.1
105 2.1
107 3.2
114 1.1
115 6.3
119 9.5
120 1.1
121 3.2
133 1.1
135 45.3
136 5.3
137 1.1
148 1.1
149 4.2
163 18.3
164 3.2
165 1.1
177 1.1
179 5.9
180 1.1
191 1.5
207 3.2
278 3.6

$$$$

     RDKit          2D

 22 23  0  0  0  0  0  0  0  0999 V2000
    2.1474    4.0587    0.0000 C   0  0  0  0  0  0  0  0  0  0  0  0
    6.4962    0.7508    0.0000 C   0  0  0  0  0  0  0  0  0  0  0  0
   -2.5989   -1.5002    0.0000 C   0  0  0  0  0  0  0  0  0  0  0  0
    7.7555   -3.8474    0.0000 C   0  0  0  0  0  0  0  0  0  0  0  0
    3.5629    2.6494    0.0000 C   0  0  0  0  0  0  0  0  0  0  0  0
    2.9341   -0.3988    0.0000 C   0  0  0  0  0  0  0  0  0  0  0  0
    1.6346    2.6491    0.0000 C   0  0  0  0  0  0  0  0  0  0  0  0
    5.1970    1.5006    0.0000 C   0  0  0  0  0  0  0  0  0  0  0  0
   -1.3000    0.7500    0.0000 C   0  0  0  0  0  0  0  0  0  0  0  0
    0.0000   -1.5000    0.0000 C   0  0  0  0  0  0  0  0  0  0  0  0
    5.3139   -2.9590    0.0000 C   0  0  0  0  0  0  0  0  0  0  0  0
    7.3040   -1.2880    0.0000 C   0  0  0  0  0  0  0  0  0  0  0  0
    0.0000    1.5000    0.0000 C   0  0  0  0  0  0  0  0  0  0  0  0
    1.3000   -0.7500    0.0000 C   0  0  0  0  0  0  0  0  0  0  0  0
    4.3496   -1.8090    0.0000 C   0  0  0  0  0  0  0  0  0  0  0  0
    6.3397   -0.1380    0.0000 C   0  0  0  0  0  0  0  0  0  0  0  0
   -1.3000   -0.7500    0.0000 C   0  0  0  0  0  0  0  0  0  0  0  0
    6.7911   -2.6985    0.0000 C   0  0  0  0  0  0  0  0  0  0  0  0
    1.3000    0.7500    0.0000 C   0  0  0  0  0  0  0  0  0  0  0  0
    4.8624   -0.3985    0.0000 C   0  0  0  0  0  0  0  0  0  0  0  0
    2.5989    1.5002    0.0000 Si  0  0  0  0  0  4  0  0  0  0  0  0
    3.8981    0.7504    0.0000 Si  0  0  0  0  0  4  0  0  0  0  0  0
  7  1  1  0
  8  2  1  0
 13  9  2  0
 14 10  1  0
 15 11  2  0
 16 12  1  0
 17  3  1  0
 17  9  1  0
 17 10  2  0
 18  4  1  0
 18 11  1  0
 18 12  2  0
 19 13  1  0
 19 14  2  0
 20 15  1  0
 20 16  2  0
 21  5  1  0
 21  7  1  0
 21 19  1  0
 22  6  1  0
 22  8  1  0
 22 20  1  0
 22 21  1  0
M  END
>  <NAME>  (137) 
1,2-DIETHYL-1,2-DIMETHYL-1,2-DI(PARA-TOLYL)DISILANE

>  <SYNONYMS>  (137) 


>  <SPECTRUM TYPE>  (137) 
MS1

>  <INSTRUMENT TYPE>  (137) 
EI-B

>  <INSTRUMENT>  (137) 
SHIMADZU QP-1000

>  <ION MODE>  (137) 
P

>  <INCHIKEY>  (137) 
DPXWZMNCMNSKSS-UHFFFAOYSA-N

>  <FORMULA>  (137) 
C20H30Si2

>  <EXACT MASS>  (137) 
326.18860401999996

>  <MW>  (137) 
326

>  <ID>  (137) 
JP011963

>  <CONTRIBUTOR>  (137) 
University of Tokyo Team, {Faculty of Engineering, University of Tokyo

>  <COMMENT>  (137) 
SMILES=Cc(c2)ccc(c2)[Si](C)(CC)[Si](C)(CC)c(c1)ccc(C)c1
InChI=InChI=1S/C20H30Si2/c1-7-21(5,19-13-9-17(3)10-14-19)22(6,8-2)20-15-11-18(4)12-16-20/h9-16H,7-8H2,1-6H3
computed SMILES=C=1C=C(C=CC1C)[Si](C)(CC)[Si](C2=CC=C(C=C2)C)(C)CC
accession=JP011963
date=2016.01.19 (Created 2008.10.21, modified 2011.05.06)
author=ISHIKAWA M, HIROSHIMA UNIV. FAC. TEQUNOLOGY
license=CC BY-NC-SA
exact mass=326.1886
ionization energy=70 eV
ion type=[M]+*
computed spectral entropy=2.870328400183593
computed normalized entropy=0.7679459913051045
SPLASH=splash10-000i-0932000000-b6880149b6ecdf0a2527
submitter=submitter = University of Tokyo Team (Faculty of Engineering, University of Tokyo)
MoNA Rating=3.75

>  <NUM PEAKS>  (137) 
42

>  <MASS SPECTRAL PEAKS>  (137) 
52 1.1
53 4.2
55 1.1
59 2.1
67 1.1
69 1.1
91 4.2
93 5.3
105 4.2
107 6.3
119 16.8
120 2.1
121 2.1
131 2.1
133 2.1
134 7.4
135 99.99
136 12.6
137 3.2
149 3.2
162 3.2
163 38.9
164 6.3
165 1.1
177 1.1
209 1.1
211 3.2
223 1.1
225 10.5
226 1.1
239 13.7
240 3.2
255 1.1
269 27.4
270 7.4
271 2.1
297 14.7
298 3.2
311 2.1
326 37.9
327 12.6
328 3.2

$$$$

     RDKit          2D

 22 23  0  0  0  0  0  0  0  0999 V2000
    8.6000    2.5981    0.0000 C   0  0  0  0  0  0  0  0  0  0  0  0
    1.9962   -3.7934    0.0000 C   0  0  0  0  0  0  0  0  0  0  0  0
    3.0205   -3.4591    0.0000 C   0  0  0  0  0  0  0  0  0  0  0  0
    3.0205    3.4591    0.0000 C   0  0  0  0  0  0  0  0  0  0  0  0
    1.9962    3.7934    0.0000 C   0  0  0  0  0  0  0  0  0  0  0  0
    7.1000    2.5981    0.0000 C   0  0  0  0  0  0  0  0  0  0  0  0
    1.1124   -2.5814    0.0000 C   0  0  0  0  0  0  0  0  0  0  0  0
    3.0195   -1.9591    0.0000 C   0  0  0  0  0  0  0  0  0  0  0  0
    3.0195    1.9591    0.0000 C   0  0  0  0  0  0  0  0  0  0  0  0
    1.1124    2.5814    0.0000 C   0  0  0  0  0  0  0  0  0  0  0  0
    6.3500    1.2990    0.0000 C   0  0  0  0  0  0  0  0  0  0  0  0
    4.8500    1.2990    0.0000 C   0  0  0  0  0  0  0  0  0  0  0  0
   -2.3100   -0.7500    0.0000 C   0  0  0  0  0  0  0  0  0  0  0  0
   -2.3100    0.7500    0.0000 C   0  0  0  0  0  0  0  0  0  0  0  0
   -1.0100   -1.5000    0.0000 C   0  0  0  0  0  0  0  0  0  0  0  0
   -1.0100    1.5000    0.0000 C   0  0  0  0  0  0  0  0  0  0  0  0
    4.1000   -0.0000    0.0000 C   0  0  0  0  0  0  0  0  0  0  0  0
    0.2900   -0.7500    0.0000 C   0  0  0  0  0  0  0  0  0  0  0  0
    0.2900    0.7500    0.0000 C   0  0  0  0  0  0  0  0  0  0  0  0
    2.6000    0.0000    0.0000 C   0  0  0  0  0  0  0  0  0  0  0  0
    1.7200   -1.2100    0.0000 Si  0  0  0  0  0  4  0  0  0  0  0  0
    1.7200    1.2100    0.0000 Si  0  0  0  0  0  4  0  0  0  0  0  0
  6  1  1  0
  7  2  1  0
  8  3  1  0
  9  4  1  0
 10  5  1  0
 11  6  1  0
 12 11  1  0
 14 13  2  0
 15 13  1  0
 16 14  1  0
 17 12  1  0
 18 15  2  0
 19 16  2  0
 19 18  1  0
 20 17  1  0
 21  7  1  0
 21  8  1  0
 21 18  1  0
 21 20  1  0
 22  9  1  0
 22 10  1  0
 22 19  1  0
 22 20  1  0
M  END
>  <NAME>  (138) 
4,5-BENZO-1,1,3,3-TETRAETHYL-2-PENTYL-1,3-DISILACYCLOPENT-4-ENE

>  <SYNONYMS>  (138) 


>  <SPECTRUM TYPE>  (138) 
MS1

>  <INSTRUMENT TYPE>  (138) 
EI-B

>  <INSTRUMENT>  (138) 
SHIMADZU QP-1000

>  <ION MODE>  (138) 
P

>  <INCHIKEY>  (138) 
AVYPDCPCKCFYLU-UHFFFAOYSA-N

>  <FORMULA>  (138) 
C20H36Si2

>  <EXACT MASS>  (138) 
332.235554212

>  <MW>  (138) 
332

>  <ID>  (138) 
JP011962

>  <CONTRIBUTOR>  (138) 
University of Tokyo Team, {Faculty of Engineering, University of Tokyo

>  <COMMENT>  (138) 
SMILES=CCCCCC([Si](CC)(CC)1)[Si](CC)(CC)c(c2)c(ccc2)1
InChI=InChI=1S/C20H36Si2/c1-6-11-12-17-20-21(7-2,8-3)18-15-13-14-16-19(18)22(20,9-4)10-5/h13-16,20H,6-12,17H2,1-5H3
computed SMILES=C=1C=CC2=C(C1)[Si](CC)(CC)C(CCCCC)[Si]2(CC)CC
accession=JP011962
date=2016.01.19 (Created 2008.10.21, modified 2011.05.06)
author=ISHIKAWA M, HIROSHIMA UNIV. FAC. TEQUNOLOGY
license=CC BY-NC-SA
exact mass=332.23555
ionization energy=70 eV
ion type=[M]+*
computed spectral entropy=3.710546069347086
computed normalized entropy=0.8397103219338127
SPLASH=splash10-0a4i-9753000000-37e56a9ee43fe729d3e5
submitter=submitter = University of Tokyo Team (Faculty of Engineering, University of Tokyo)
MoNA Rating=3.75

>  <NUM PEAKS>  (138) 
83

>  <MASS SPECTRAL PEAKS>  (138) 
53 5.3
55 17.9
57 23.2
59 99.99
60 6.3
61 2.1
67 2.1
68 4.2
69 5.3
71 5.3
73 11.6
74 6.3
75 1.1
81 15.8
82 5.3
83 3.2
85 4.2
87 18.9
88 15.8
93 1.1
94 1.1
95 6.3
96 8.4
101 2.1
102 6.3
103 1.1
105 11.6
106 1.1
107 8.4
108 1.1
109 3.2
110 5.3
115 3.2
119 2.1
121 1.1
131 14.7
132 2.1
133 11.6
134 2.1
135 11.6
136 1.1
137 4.2
143 2.1
145 8.4
146 1.1
147 8.4
148 2.1
149 30.5
150 4.2
151 2.1
159 9.5
160 1.1
161 8.4
162 2.1
163 11.6
164 2.1
173 1.1
175 3.2
177 18.9
178 3.2
187 1.1
189 2.1
191 5.3
203 2.1
205 46.3
206 9.5
207 3.2
215 1.1
219 8.4
220 1.1
221 2.1
233 51.6
234 17.9
235 6.3
247 6.3
248 1.1
249 3.2
275 3.2
303 65.3
304 20
305 10.5
306 2.1
332 4.2

$$$$

     RDKit          2D

  8  7  0  0  0  0  0  0  0  0999 V2000
    1.6740    0.1005    0.0000 C   0  0  0  0  0  0  0  0  0  0  0  0
   -0.9240    1.6005    0.0000 C   0  0  0  0  0  0  0  0  0  0  0  0
   -0.3750   -0.4486    0.0000 C   0  0  0  0  0  0  0  0  0  0  0  0
    2.4240    1.3995    0.0000 C   0  0  0  0  0  0  0  0  0  0  0  0
    1.8750    3.4486    0.0000 C   0  0  0  0  0  0  0  0  0  0  0  0
    0.3750    0.8505    0.0000 C   0  0  0  0  0  0  0  0  0  0  0  0
   -0.1740    2.8995    0.0000 I   0  0  0  0  0  0  0  0  0  0  0  0
    1.1250    2.1495    0.0000 Si  0  0  0  0  0  4  0  0  0  0  0  0
  6  1  1  0
  6  2  1  0
  6  3  1  0
  8  4  1  0
  8  5  1  0
  8  6  1  0
  8  7  1  0
M  END
>  <NAME>  (139) 
TERT-BUTYLIODODIMETHYLSILANE

>  <SYNONYMS>  (139) 


>  <SPECTRUM TYPE>  (139) 
MS1

>  <INSTRUMENT TYPE>  (139) 
EI-B

>  <INSTRUMENT>  (139) 
SHIMADZU QP-1000

>  <ION MODE>  (139) 
P

>  <INCHIKEY>  (139) 
ODGTVVCTZIKYTG-UHFFFAOYSA-N

>  <FORMULA>  (139) 
C6H15ISi

>  <EXACT MASS>  (139) 
241.99877501

>  <MW>  (139) 
242

>  <ID>  (139) 
JP011961

>  <CONTRIBUTOR>  (139) 
University of Tokyo Team, {Faculty of Engineering, University of Tokyo

>  <COMMENT>  (139) 
SMILES=CC(C)(C)[Si](C)(C)I
InChI=InChI=1S/C6H15ISi/c1-6(2,3)8(4,5)7/h1-5H3
computed SMILES=I[Si](C)(C)C(C)(C)C
accession=JP011961
date=2016.01.19 (Created 2008.10.21, modified 2011.05.06)
author=ISHIKAWA M, HIROSHIMA UNIV. FAC. TEQUNOLOGY
license=CC BY-NC-SA
exact mass=241.99877
ionization energy=70 eV
ion type=[M]+*
computed spectral entropy=2.1614288780792834
computed normalized entropy=0.73407154754186
SPLASH=splash10-0ab9-9000000000-715f772a1944f168c806
submitter=submitter = University of Tokyo Team (Faculty of Engineering, University of Tokyo)
MoNA Rating=3.75

>  <NUM PEAKS>  (139) 
19

>  <MASS SPECTRAL PEAKS>  (139) 
53 6.3
54 2.1
55 12.1
56 36.3
57 58.9
58 29.5
59 49.5
60 3.2
73 99.99
74 8.4
75 5.8
115 12.6
116 1.1
154 0.6
155 0.8
157 1.2
185 12.3
186 1.3
242 1.3

$$$$

     RDKit          2D

 15 16  0  0  0  0  0  0  0  0999 V2000
   -2.2746   -3.5637    0.0000 C   0  0  0  0  0  0  0  0  0  0  0  0
    5.5225   -3.5625    0.0000 C   0  0  0  0  0  0  0  0  0  0  0  0
   -2.2742   -2.0629    0.0000 C   0  0  0  0  0  0  0  0  0  0  0  0
   -0.9756   -4.3137    0.0000 C   0  0  0  0  0  0  0  0  0  0  0  0
    4.2225   -4.3125    0.0000 C   0  0  0  0  0  0  0  0  0  0  0  0
    5.5225   -2.0625    0.0000 C   0  0  0  0  0  0  0  0  0  0  0  0
   -0.9746   -1.3121    0.0000 C   0  0  0  0  0  0  0  0  0  0  0  0
    0.3239   -3.5629    0.0000 C   0  0  0  0  0  0  0  0  0  0  0  0
    2.9225   -3.5625    0.0000 C   0  0  0  0  0  0  0  0  0  0  0  0
    4.2225   -1.3125    0.0000 C   0  0  0  0  0  0  0  0  0  0  0  0
    1.6238    0.1877    0.0000 C   0  0  0  0  0  0  0  0  0  0  0  0
    0.3244   -2.0621    0.0000 C   0  0  0  0  0  0  0  0  0  0  0  0
    2.9225   -2.0625    0.0000 C   0  0  0  0  0  0  0  0  0  0  0  0
    2.9230    0.9375    0.0000 I   0  0  0  0  0  0  0  0  0  0  0  0
    1.6236   -1.3123    0.0000 Si  0  0  0  0  0  4  0  0  0  0  0  0
  3  1  2  0
  4  1  1  0
  5  2  2  0
  6  2  1  0
  7  3  1  0
  8  4  2  0
  9  5  1  0
 10  6  2  0
 12  7  2  0
 12  8  1  0
 13  9  2  0
 13 10  1  0
 14 11  1  0
 15 11  1  0
 15 12  1  0
 15 13  1  0
M  END
>  <NAME>  (140) 
IODOMETHYLDIPHENYLSILANE

>  <SYNONYMS>  (140) 


>  <SPECTRUM TYPE>  (140) 
MS1

>  <INSTRUMENT TYPE>  (140) 
EI-B

>  <INSTRUMENT>  (140) 
SHIMADZU QP-1000

>  <ION MODE>  (140) 
P

>  <INCHIKEY>  (140) 
WDRILLYELKEKFG-UHFFFAOYSA-N

>  <FORMULA>  (140) 
C13H13ISi

>  <EXACT MASS>  (140) 
323.983124946

>  <MW>  (140) 
324

>  <ID>  (140) 
JP011960

>  <CONTRIBUTOR>  (140) 
University of Tokyo Team, {Faculty of Engineering, University of Tokyo

>  <COMMENT>  (140) 
SMILES=IC[SiH](c(c2)cccc2)c(c1)cccc1
InChI=InChI=1S/C13H13ISi/c14-11-15(12-7-3-1-4-8-12)13-9-5-2-6-10-13/h1-10,15H,11H2
computed SMILES=IC[SiH](C=1C=CC=CC1)C=2C=CC=CC2
accession=JP011960
date=2016.01.19 (Created 2008.10.21, modified 2011.05.06)
author=ISHIKAWA M, HIROSHIMA UNIV. FAC. TEQUNOLOGY
license=CC BY-NC-SA
exact mass=323.98312
ionization energy=70 eV
ion type=[M]+*
computed spectral entropy=2.737653274250741
computed normalized entropy=0.7526016303230777
SPLASH=splash10-0002-6910000000-b0788b2e832c055e6184
submitter=submitter = University of Tokyo Team (Faculty of Engineering, University of Tokyo)
MoNA Rating=3.75

>  <NUM PEAKS>  (140) 
38

>  <MASS SPECTRAL PEAKS>  (140) 
52 9.5
53 24.7
54 33.7
55 3.2
56 1.1
63 8.4
65 6.3
66 2.1
67 3.2
77 8.4
78 2.1
79 5.3
91 6.3
93 4.2
103 2.1
105 13.7
106 1.1
119 3.2
155 2.1
165 2.1
180 2.1
181 5.3
195 5.3
197 99.99
198 18.9
199 5.3
217 7.4
218 1.1
219 2.1
232 2.1
247 3.2
261 2.9
262 0.8
263 3
276 1.2
278 1.1
309 3.3
324 0.7

$$$$

     RDKit          2D

  8  7  0  0  0  0  0  0  0  0999 V2000
    1.1262    2.5493    0.0000 C   0  0  0  0  0  0  0  0  0  0  0  0
   -4.0699    2.5493    0.0000 C   0  0  0  0  0  0  0  0  0  0  0  0
   -3.9132    1.6607    0.0000 C   0  0  0  0  0  0  0  0  0  0  0  0
   -0.1728    3.2993    0.0000 C   0  0  0  0  0  0  0  0  0  0  0  0
   -2.7709    3.2993    0.0000 C   0  0  0  0  0  0  0  0  0  0  0  0
   -2.4360    1.4002    0.0000 C   0  0  0  0  0  0  0  0  0  0  0  0
   -0.5077    1.4002    0.0000 I   0  0  0  0  0  0  0  0  0  0  0  0
   -1.4718    2.5493    0.0000 Si  0  0  0  0  0  4  0  0  0  0  0  0
  4  1  1  0
  5  2  1  0
  6  3  1  0
  8  4  1  0
  8  5  1  0
  8  6  1  0
  8  7  1  0
M  END
>  <NAME>  (141) 
TRIETHYLIODOSILANE

>  <SYNONYMS>  (141) 


>  <SPECTRUM TYPE>  (141) 
MS1

>  <INSTRUMENT TYPE>  (141) 
EI-B

>  <INSTRUMENT>  (141) 
SHIMADZU QP-1000

>  <ION MODE>  (141) 
P

>  <INCHIKEY>  (141) 
PPLMQFARLJLZAO-UHFFFAOYSA-N

>  <FORMULA>  (141) 
C6H15ISi

>  <EXACT MASS>  (141) 
241.99877501

>  <MW>  (141) 
242

>  <ID>  (141) 
JP011959

>  <CONTRIBUTOR>  (141) 
University of Tokyo Team, {Faculty of Engineering, University of Tokyo

>  <COMMENT>  (141) 
computed SMILES=I[Si](CC)(CC)CC
SMILES=CC[Si](I)(CC)CC
InChI=InChI=1S/C6H15ISi/c1-4-8(7,5-2)6-3/h4-6H2,1-3H3
accession=JP011959
date=2016.01.19 (Created 2008.10.21, modified 2011.05.06)
license=CC BY-NC-SA
author=ISHIKAWA M, HIROSHIMA UNIV. FAC. TEQUNOLOGY
exact mass=241.99877
ionization energy=70 eV
ion type=[M]+*
computed spectral entropy=2.306990104398172
computed normalized entropy=0.746346949033878
SPLASH=splash10-0aor-9500000000-179f1a7d44f4ca874e96
submitter=submitter = University of Tokyo Team (Faculty of Engineering, University of Tokyo)
MoNA Rating=3.75

>  <NUM PEAKS>  (141) 
22

>  <MASS SPECTRAL PEAKS>  (141) 
53 12.1
54 4.2
55 17.9
56 7.9
57 25.3
58 26.3
59 81.6
60 5.8
61 2.1
87 51.6
88 4.2
89 1.1
115 99.99
116 11.6
117 2.6
155 2.6
156 1.1
157 6.3
185 12.6
213 4.6
214 0.6
242 1.5

$$$$

     RDKit          2D

  7  6  0  0  0  0  0  0  0  0999 V2000
    1.2545    2.3272    0.0000 C   0  0  0  0  0  0  0  0  0  0  0  0
   -3.9417    2.3272    0.0000 C   0  0  0  0  0  0  0  0  0  0  0  0
   -0.0445    3.0772    0.0000 C   0  0  0  0  0  0  0  0  0  0  0  0
   -2.6426    3.0772    0.0000 C   0  0  0  0  0  0  0  0  0  0  0  0
   -2.3078    1.1781    0.0000 I   0  0  0  0  0  0  0  0  0  0  0  0
   -0.3794    1.1781    0.0000 I   0  0  0  0  0  0  0  0  0  0  0  0
   -1.3436    2.3272    0.0000 Si  0  0  0  0  0  4  0  0  0  0  0  0
  3  1  1  0
  4  2  1  0
  7  3  1  0
  7  4  1  0
  7  5  1  0
  7  6  1  0
M  END
>  <NAME>  (142) 
DIETHYLDIIODOSILANE

>  <SYNONYMS>  (142) 


>  <SPECTRUM TYPE>  (142) 
MS1

>  <INSTRUMENT TYPE>  (142) 
EI-B

>  <INSTRUMENT>  (142) 
SHIMADZU QP-1000

>  <ION MODE>  (142) 
P

>  <INCHIKEY>  (142) 
GPTNEHSWPUSHFX-UHFFFAOYSA-N

>  <FORMULA>  (142) 
C4H10I2Si

>  <EXACT MASS>  (142) 
339.86412285

>  <MW>  (142) 
340

>  <ID>  (142) 
JP011958

>  <CONTRIBUTOR>  (142) 
University of Tokyo Team, {Faculty of Engineering, University of Tokyo

>  <COMMENT>  (142) 
SMILES=CC[Si](I)(I)CC
InChI=InChI=1S/C4H10I2Si/c1-3-7(5,6)4-2/h3-4H2,1-2H3
computed SMILES=I[Si](I)(CC)CC
accession=JP011958
date=2016.01.19 (Created 2008.10.21, modified 2011.05.06)
author=ISHIKAWA M, HIROSHIMA UNIV. FAC. TEQUNOLOGY
license=CC BY-NC-SA
exact mass=339.86411
ionization energy=70 eV
ion type=[M]+*
computed spectral entropy=2.6286842512266704
computed normalized entropy=0.8271364777162606
SPLASH=splash10-08fu-7495000000-7e7045ed05b39055ee61
submitter=submitter = University of Tokyo Team (Faculty of Engineering, University of Tokyo)
MoNA Rating=3.75

>  <NUM PEAKS>  (142) 
24

>  <MASS SPECTRAL PEAKS>  (142) 
54 25.3
55 6.3
56 29.5
57 9.5
58 40
59 22.1
60 3.2
81 1.1
127 5.8
128 5.3
155 17.9
156 3.2
157 14.2
185 37.9
186 2.1
213 99.99
214 9.5
215 3.2
282 6.3
283 37.9
311 16.8
340 75.8
341 7.4
342 2.1

$$$$

     RDKit          2D

 10  9  0  0  0  0  0  0  0  0999 V2000
   -0.0870    2.9498    0.0000 C   0  0  0  0  0  0  0  0  0  0  0  0
   -7.3322    4.9988    0.0000 C   0  0  0  0  0  0  0  0  0  0  0  0
   -7.8812    2.9498    0.0000 C   0  0  0  0  0  0  0  0  0  0  0  0
   -5.8322    2.4007    0.0000 C   0  0  0  0  0  0  0  0  0  0  0  0
   -2.6851    5.9498    0.0000 C   0  0  0  0  0  0  0  0  0  0  0  0
   -3.9841    5.1998    0.0000 C   0  0  0  0  0  0  0  0  0  0  0  0
   -1.3861    5.1998    0.0000 C   0  0  0  0  0  0  0  0  0  0  0  0
   -5.2832    4.4498    0.0000 C   0  0  0  0  0  0  0  0  0  0  0  0
   -1.3861    3.6998    0.0000 O   0  0  0  0  0  0  0  0  0  0  0  0
   -6.5822    3.6998    0.0000 Si  0  0  0  0  0  4  0  0  0  0  0  0
  6  5  1  0
  5  7  2  0
  8  6  3  0
  9  1  1  0
  9  7  1  0
 10  2  1  0
 10  3  1  0
 10  4  1  0
 10  8  1  0
M  END
>  <NAME>  (143) 
CIS-1-METHOXY-4-TRIMETHYLSILYLBUT-1-EN-3-YNE

>  <SYNONYMS>  (143) 


>  <SPECTRUM TYPE>  (143) 
MS1

>  <INSTRUMENT TYPE>  (143) 
EI-B

>  <INSTRUMENT>  (143) 
SHIMADZU QP-1000

>  <ION MODE>  (143) 
P

>  <INCHIKEY>  (143) 
KHAWMPYFFORPIN-ALCCZGGFSA-N

>  <FORMULA>  (143) 
C8H14OSi

>  <EXACT MASS>  (143) 
154.08139159799998

>  <MW>  (143) 
154

>  <ID>  (143) 
JP011957

>  <CONTRIBUTOR>  (143) 
University of Tokyo Team, {Faculty of Engineering, University of Tokyo

>  <COMMENT>  (143) 
SMILES=COC=CC#C[Si](C)(C)C
InChI=InChI=1S/C8H14OSi/c1-9-7-5-6-8-10(2,3)4/h5,7H,1-4H3/b7-5-
computed SMILES=C(#C[Si](C)(C)C)C=COC
accession=JP011957
date=2016.01.19 (Created 2008.10.21, modified 2011.05.06)
author=ISHIKAWA M, HIROSHIMA UNIV. FAC. TEQUNOLOGY
license=CC BY-NC-SA
exact mass=154.08139
ionization energy=70 eV
ion type=[M]+*
computed spectral entropy=3.29971265033249
computed normalized entropy=0.8392316848614035
SPLASH=splash10-0rki-9300000000-3d3b802fb07c7e5aade8
submitter=submitter = University of Tokyo Team (Faculty of Engineering, University of Tokyo)
MoNA Rating=3.75

>  <NUM PEAKS>  (143) 
51

>  <MASS SPECTRAL PEAKS>  (143) 
52 5.3
53 10
54 64.2
55 14.7
56 43.2
57 3.7
58 8.9
59 12.6
60 93.2
61 8.4
62 21.1
63 2.1
64 9.5
65 39.5
66 18.4
67 31.6
68 5.3
69 25.3
70 17.9
71 11.6
72 2.1
73 7.4
75 10
77 15.3
78 3.2
79 9.5
80 2.1
81 6.3
83 43.2
84 4.2
85 17.4
87 2.1
89 3.2
93 3.2
94 1.1
95 7.4
97 3.2
98 1.1
99 3.2
107 2.1
109 56.8
110 6.3
111 8.9
113 3.2
123 2.1
124 3.2
139 99.99
140 12.1
141 3.2
154 22.1
155 2.1

$$$$

     RDKit          2D

 14 14  0  0  0  0  0  0  0  0999 V2000
    6.4962   -0.7508    0.0000 C   0  0  0  0  0  0  0  0  0  0  0  0
    6.0042   -3.5384    0.0000 C   0  0  0  0  0  0  0  0  0  0  0  0
    1.6346   -2.6491    0.0000 C   0  0  0  0  0  0  0  0  0  0  0  0
    5.1970   -1.5006    0.0000 C   0  0  0  0  0  0  0  0  0  0  0  0
    5.0402   -2.3892    0.0000 C   0  0  0  0  0  0  0  0  0  0  0  0
   -1.3000    0.7500    0.0000 C   0  0  0  0  0  0  0  0  0  0  0  0
    0.0000    1.5000    0.0000 C   0  0  0  0  0  0  0  0  0  0  0  0
   -1.3000   -0.7500    0.0000 C   0  0  0  0  0  0  0  0  0  0  0  0
    1.3000    0.7500    0.0000 C   0  0  0  0  0  0  0  0  0  0  0  0
   -0.0000   -1.5000    0.0000 C   0  0  0  0  0  0  0  0  0  0  0  0
    1.3000   -0.7500    0.0000 C   0  0  0  0  0  0  0  0  0  0  0  0
    3.8981   -0.7504    0.0000 O   0  0  0  0  0  0  0  0  0  0  0  0
    3.5629   -2.6494    0.0000 O   0  0  0  0  0  0  0  0  0  0  0  0
    2.5989   -1.5002    0.0000 Si  0  0  0  0  0  4  0  0  0  0  0  0
  4  1  1  0
  5  2  1  0
  7  6  2  0
  8  6  1  0
  9  7  1  0
 10  8  2  0
 11  9  2  0
 11 10  1  0
 12  4  1  0
 13  5  1  0
 14  3  1  0
 14 11  1  0
 14 12  1  0
 14 13  1  0
M  END
>  <NAME>  (144) 
DIETHOXYMETHYLPHENYLSILANE

>  <SYNONYMS>  (144) 


>  <SPECTRUM TYPE>  (144) 
MS1

>  <INSTRUMENT TYPE>  (144) 
EI-B

>  <INSTRUMENT>  (144) 
SHIMADZU QP-1000

>  <ION MODE>  (144) 
P

>  <INCHIKEY>  (144) 
MNFGEHQPOWJJBH-UHFFFAOYSA-N

>  <FORMULA>  (144) 
C11H18O2Si

>  <EXACT MASS>  (144) 
210.107606346

>  <MW>  (144) 
210

>  <ID>  (144) 
JP011956

>  <CONTRIBUTOR>  (144) 
University of Tokyo Team, {Faculty of Engineering, University of Tokyo

>  <COMMENT>  (144) 
SMILES=CCO[Si](C)(OCC)c(c1)cccc1
InChI=InChI=1S/C11H18O2Si/c1-4-12-14(3,13-5-2)11-9-7-6-8-10-11/h6-10H,4-5H2,1-3H3
computed SMILES=O(CC)[Si](OCC)(C=1C=CC=CC1)C
accession=JP011956
date=2016.01.19 (Created 2008.10.21, modified 2011.05.06)
author=ISHIKAWA M, HIROSHIMA UNIV. FAC. TEQUNOLOGY
license=CC BY-NC-SA
exact mass=210.10761
ionization energy=70 eV
ion type=[M]+*
computed spectral entropy=3.188105198024497
computed normalized entropy=0.8235442151005247
SPLASH=splash10-002b-5900000000-24356c680acf1a85b5d7
submitter=submitter = University of Tokyo Team (Faculty of Engineering, University of Tokyo)
MoNA Rating=3.75

>  <NUM PEAKS>  (144) 
48

>  <MASS SPECTRAL PEAKS>  (144) 
52 6.3
53 14.7
54 6.3
55 3.2
60 5.8
62 15.8
63 2.6
64 11.6
65 3.2
69 1.1
73 7.4
74 1.1
75 1.1
77 33.7
78 17.9
79 3.2
85 1.1
87 1.1
88 2.1
89 6.3
91 29.5
92 3.2
93 1.1
98 1.1
104 3.2
105 25.3
106 2.1
107 2.1
117 3.2
119 2.1
121 17.4
122 3.2
123 17.9
124 1.1
132 13.2
133 6.3
137 11.6
139 22.1
140 2.1
149 1.1
151 33.2
152 3.2
165 8.4
167 3.2
195 99.99
196 15.3
197 4.2
210 5.8

$$$$

     RDKit          2D

 30 33  0  0  0  0  0  0  0  0999 V2000
    1.9504    1.0609    0.0000 C   0  0  0  0  0  0  0  0  0  0  0  0
    1.1637   -3.5585    0.0000 C   0  0  0  0  0  0  0  0  0  0  0  0
    6.3614    1.9027    0.0000 C   0  0  0  0  0  0  0  0  0  0  0  0
    4.0032   -7.0387    0.0000 C   0  0  0  0  0  0  0  0  0  0  0  0
    6.3609    0.4019    0.0000 C   0  0  0  0  0  0  0  0  0  0  0  0
    5.0624    2.6527    0.0000 C   0  0  0  0  0  0  0  0  0  0  0  0
    2.5252   -6.7776    0.0000 C   0  0  0  0  0  0  0  0  0  0  0  0
    4.9673   -5.8896    0.0000 C   0  0  0  0  0  0  0  0  0  0  0  0
    5.0614   -0.3489    0.0000 C   0  0  0  0  0  0  0  0  0  0  0  0
    3.7629    1.9019    0.0000 C   0  0  0  0  0  0  0  0  0  0  0  0
    2.0114   -5.3674    0.0000 C   0  0  0  0  0  0  0  0  0  0  0  0
    4.4536   -4.4794    0.0000 C   0  0  0  0  0  0  0  0  0  0  0  0
   -1.4569    0.2811    0.0000 C   0  0  0  0  0  0  0  0  0  0  0  0
   -1.0057   -2.2780    0.0000 C   0  0  0  0  0  0  0  0  0  0  0  0
    6.3830   -3.4385    0.0000 C   0  0  0  0  0  0  0  0  0  0  0  0
    5.9318   -0.8794    0.0000 C   0  0  0  0  0  0  0  0  0  0  0  0
    0.0212    0.5408    0.0000 C   0  0  0  0  0  0  0  0  0  0  0  0
    0.4725   -2.0183    0.0000 C   0  0  0  0  0  0  0  0  0  0  0  0
    4.9048   -3.6982    0.0000 C   0  0  0  0  0  0  0  0  0  0  0  0
    4.4536   -1.1391    0.0000 C   0  0  0  0  0  0  0  0  0  0  0  0
   -1.9704   -1.1283    0.0000 C   0  0  0  0  0  0  0  0  0  0  0  0
    6.8965   -2.0291    0.0000 C   0  0  0  0  0  0  0  0  0  0  0  0
    3.7624    0.4011    0.0000 C   0  0  0  0  0  0  0  0  0  0  0  0
    2.9756   -4.2183    0.0000 C   0  0  0  0  0  0  0  0  0  0  0  0
    0.9860   -0.6090    0.0000 C   0  0  0  0  0  0  0  0  0  0  0  0
    3.9401   -2.5485    0.0000 C   0  0  0  0  0  0  0  0  0  0  0  0
   -3.4477   -1.3885    0.0000 Br  0  0  0  0  0  0  0  0  0  0  0  0
    8.3737   -1.7689    0.0000 Br  0  0  0  0  0  0  0  0  0  0  0  0
    2.4632   -0.3487    0.0000 Si  0  0  0  0  0  4  0  0  0  0  0  0
    2.4628   -2.8087    0.0000 Si  0  0  0  0  0  4  0  0  0  0  0  0
  5  3  2  0
  6  3  1  0
  7  4  2  0
  8  4  1  0
  9  5  1  0
 10  6  2  0
 11  7  1  0
 12  8  2  0
 17 13  2  0
 18 14  1  0
 19 15  2  0
 20 16  1  0
 21 13  1  0
 21 14  2  0
 22 15  1  0
 22 16  2  0
 23  9  2  0
 23 10  1  0
 24 11  2  0
 24 12  1  0
 25 17  1  0
 25 18  2  0
 26 19  1  0
 26 20  2  0
 27 21  1  0
 28 22  1  0
 29  1  1  0
 29 23  1  0
 29 25  1  0
 30  2  1  0
 30 24  1  0
 30 26  1  0
 30 29  1  0
M  END
>  <NAME>  (145) 
1,2-DI(PARA-BROMOPHENYL)-1,2-DIMETHYL-1,2-DIPHENYLDISILANE

>  <SYNONYMS>  (145) 


>  <SPECTRUM TYPE>  (145) 
MS1

>  <INSTRUMENT TYPE>  (145) 
EI-B

>  <INSTRUMENT>  (145) 
SHIMADZU QP-1000

>  <ION MODE>  (145) 
P

>  <INCHIKEY>  (145) 
XYZNTWCMWKNRRA-UHFFFAOYSA-N

>  <FORMULA>  (145) 
C26H24Br2Si2

>  <EXACT MASS>  (145) 
549.978328028

>  <MW>  (145) 
550

>  <ID>  (145) 
JP011955

>  <CONTRIBUTOR>  (145) 
University of Tokyo Team, {Faculty of Engineering, University of Tokyo

>  <COMMENT>  (145) 
SMILES=c(c1)c(ccc([Si](c(c4)cccc4)([Si](c(c3)cccc3)(c(c2)ccc(c2)Br)C)C)1)Br
InChI=InChI=1S/C26H24Br2Si2/c1-29(23-9-5-3-6-10-23,25-17-13-21(27)14-18-25)30(2,24-11-7-4-8-12-24)26-19-15-22(28)16-20-26/h3-20H,1-2H3
computed SMILES=BrC1=CC=C(C=C1)[Si](C=2C=CC=CC2)(C)[Si](C=3C=CC=CC3)(C4=CC=C(Br)C=C4)C
accession=JP011955
date=2016.01.19 (Created 2008.10.21, modified 2011.05.06)
author=ISHIKAWA M, HIROSHIMA UNIV. FAC. TEQUNOLOGY
license=CC BY-NC-SA
exact mass=549.97833
ionization energy=70 eV
ion type=[M]+*
computed spectral entropy=2.6504476497838647
computed normalized entropy=0.7792689904073131
SPLASH=splash10-0079-0000590000-acff3127955933fa3777
submitter=submitter = University of Tokyo Team (Faculty of Engineering, University of Tokyo)
MoNA Rating=3.75

>  <NUM PEAKS>  (145) 
30

>  <MASS SPECTRAL PEAKS>  (145) 
51 2.1
53 12.8
55 1.1
79 1.1
91 1.1
105 4.3
195 1.1
196 4.3
197 2.7
275 7.4
276 1.1
277 6.4
471 44.7
472 19.1
473 50
474 28.7
475 6.4
476 1.1
535 38.5
536 16
537 99.99
539 48.9
541 5.3
550 5.3
551 3.2
552 11.7
553 6.4
554 7.4
555 3.2
556 1.1

$$$$

     RDKit          2D

 14 15  0  0  0  0  0  0  0  0999 V2000
   -4.5977   -2.2700    0.0000 C   0  0  0  0  0  0  0  0  0  0  0  0
    0.7500    1.0300    0.0000 C   0  0  0  0  0  0  0  0  0  0  0  0
   -3.0977   -2.2700    0.0000 C   0  0  0  0  0  0  0  0  0  0  0  0
   -0.7500    1.0300    0.0000 C   0  0  0  0  0  0  0  0  0  0  0  0
   -5.0577   -0.8500    0.0000 C   0  0  0  0  0  0  0  0  0  0  0  0
    1.2100   -0.3900    0.0000 C   0  0  0  0  0  0  0  0  0  0  0  0
   -2.6377   -0.8500    0.0000 C   0  0  0  0  0  0  0  0  0  0  0  0
   -1.2100   -0.3900    0.0000 C   0  0  0  0  0  0  0  0  0  0  0  0
   -2.2155   -3.4831    0.0000 Br  0  0  0  0  0  0  0  0  0  0  0  0
   -1.6322    2.2431    0.0000 Br  0  0  0  0  0  0  0  0  0  0  0  0
   -6.4855   -0.3900    0.0000 Br  0  0  0  0  0  0  0  0  0  0  0  0
    2.6377   -0.8500    0.0000 Br  0  0  0  0  0  0  0  0  0  0  0  0
   -3.8477    0.0400    0.0000 S   0  0  0  0  0  0  0  0  0  0  0  0
   -0.0000   -1.2800    0.0000 S   0  0  0  0  0  0  0  0  0  0  0  0
  3  1  1  0
  4  2  1  0
  5  1  2  0
  6  2  2  0
  7  3  2  0
  8  4  2  0
  8  7  1  0
  9  3  1  0
 10  4  1  0
 11  5  1  0
 12  6  1  0
 13  5  1  0
 13  7  1  0
 14  6  1  0
 14  8  1  0
M  END
>  <NAME>  (146) 
3,3'5,5'-TETRABROMO-2,2'-BITHIOPHENE

>  <SYNONYMS>  (146) 


>  <SPECTRUM TYPE>  (146) 
MS1

>  <INSTRUMENT TYPE>  (146) 
EI-B

>  <INSTRUMENT>  (146) 
SHIMADZU QP-1000

>  <ION MODE>  (146) 
P

>  <INCHIKEY>  (146) 
MOMHMPZSZNZLAK-UHFFFAOYSA-N

>  <FORMULA>  (146) 
C8H2Br4S2

>  <EXACT MASS>  (146) 
477.633140464

>  <MW>  (146) 
477

>  <ID>  (146) 
JP011954

>  <CONTRIBUTOR>  (146) 
University of Tokyo Team, {Faculty of Engineering, University of Tokyo

>  <COMMENT>  (146) 
SMILES=Brc(c2)sc(c(Br)2)c(s1)c(Br)cc(Br)1
InChI=InChI=1S/C8H2Br4S2/c9-3-1-5(11)13-7(3)8-4(10)2-6(12)14-8/h1-2H
computed SMILES=BrC=1SC(=C(Br)C1)C=2SC(Br)=CC2Br
accession=JP011954
date=2016.01.19 (Created 2008.10.21, modified 2011.05.06)
author=ISHIKAWA M, HIROSHIMA UNIV. FAC. TEQUNOLOGY
license=CC BY-NC-SA
exact mass=477.63314
ionization energy=70 eV
ion type=[M]+*
computed spectral entropy=2.2290103083538115
computed normalized entropy=0.8970197365538779
SPLASH=splash10-001i-0000900000-98cfc41c40a11b3ddeaf
submitter=submitter = University of Tokyo Team (Faculty of Engineering, University of Tokyo)
MoNA Rating=3.75

>  <NUM PEAKS>  (146) 
12

>  <MASS SPECTRAL PEAKS>  (146) 
56 6.4
58 11.8
73 7.4
81 12.8
321 26.6
478 52.1
479 67
480 78.7
481 99.99
482 74.5
483 67
484 47.9

$$$$

     RDKit          2D

  7  6  0  0  0  0  0  0  0  0999 V2000
   -4.2219    2.8125    0.0000 C   0  0  0  0  0  0  0  0  0  0  0  0
   -1.0748    0.7635    0.0000 C   0  0  0  0  0  0  0  0  0  0  0  0
    0.9743    1.3125    0.0000 C   0  0  0  0  0  0  0  0  0  0  0  0
    0.4252    3.3615    0.0000 C   0  0  0  0  0  0  0  0  0  0  0  0
   -2.9228    2.0625    0.0000 C   0  0  0  0  0  0  0  0  0  0  0  0
   -1.6238    2.8125    0.0000 O   0  0  0  0  0  0  0  0  0  0  0  0
   -0.3248    2.0625    0.0000 Si  0  0  0  0  0  4  0  0  0  0  0  0
  5  1  1  0
  6  5  1  0
  7  2  1  0
  7  3  1  0
  7  4  1  0
  7  6  1  0
M  END
>  <NAME>  (147) 
ETHOXYTRIMETHYLSILANE

>  <SYNONYMS>  (147) 


>  <SPECTRUM TYPE>  (147) 
MS1

>  <INSTRUMENT TYPE>  (147) 
EI-B

>  <INSTRUMENT>  (147) 
SHIMADZU QP-1000

>  <ION MODE>  (147) 
P

>  <INCHIKEY>  (147) 
RSIHJDGMBDPTIM-UHFFFAOYSA-N

>  <FORMULA>  (147) 
C5H14OSi

>  <EXACT MASS>  (147) 
118.081391598

>  <MW>  (147) 
118

>  <ID>  (147) 
JP011953

>  <CONTRIBUTOR>  (147) 
University of Tokyo Team, {Faculty of Engineering, University of Tokyo

>  <COMMENT>  (147) 
SMILES=CCO[Si](C)(C)C
InChI=InChI=1S/C5H14OSi/c1-5-6-7(2,3)4/h5H2,1-4H3
computed SMILES=O(CC)[Si](C)(C)C
accession=JP011953
date=2016.01.19 (Created 2008.10.21, modified 2011.05.06)
author=ISHIKAWA M, HIROSHIMA UNIV. FAC. TEQUNOLOGY
license=CC BY-NC-SA
exact mass=118.08139
ionization energy=70 eV
ion type=[M]+*
computed spectral entropy=2.000548016487118
computed normalized entropy=0.6921421132149697
SPLASH=splash10-0h00-9200000000-82b3d110a5f48b20282c
submitter=submitter = University of Tokyo Team (Faculty of Engineering, University of Tokyo)
MoNA Rating=3.75

>  <NUM PEAKS>  (147) 
18

>  <MASS SPECTRAL PEAKS>  (147) 
52 2.1
53 5.8
54 1.1
56 2.1
58 2.1
59 11.6
60 55.3
61 5.3
62 12.1
73 41.1
75 99.99
76 6.3
77 3.2
102 1.1
103 69.5
104 5.8
105 2.1
118 0.4

$$$$

     RDKit          2D

 14 13  0  0  0  0  0  0  0  0999 V2000
    1.4534   -2.4240    0.0000 C   0  0  0  0  0  0  0  0  0  0  0  0
   -0.0466    0.1740    0.0000 C   0  0  0  0  0  0  0  0  0  0  0  0
   -0.5957   -1.8750    0.0000 C   0  0  0  0  0  0  0  0  0  0  0  0
   10.5466    2.8260    0.0000 C   0  0  0  0  0  0  0  0  0  0  0  0
   11.0957    4.8750    0.0000 C   0  0  0  0  0  0  0  0  0  0  0  0
    9.0466    5.4240    0.0000 C   0  0  0  0  0  0  0  0  0  0  0  0
    4.6005    1.1250    0.0000 C   0  0  0  0  0  0  0  0  0  0  0  0
    5.8995    1.8750    0.0000 C   0  0  0  0  0  0  0  0  0  0  0  0
    3.3014    0.3750    0.0000 C   0  0  0  0  0  0  0  0  0  0  0  0
    7.1986    2.6250    0.0000 C   0  0  0  0  0  0  0  0  0  0  0  0
    2.0024   -0.3750    0.0000 C   0  0  0  0  0  0  0  0  0  0  0  0
    8.4976    3.3750    0.0000 C   0  0  0  0  0  0  0  0  0  0  0  0
    0.7034   -1.1250    0.0000 Si  0  0  0  0  0  4  0  0  0  0  0  0
    9.7966    4.1250    0.0000 Si  0  0  0  0  0  4  0  0  0  0  0  0
  8  7  3  0
  9  7  1  0
 10  8  1  0
 11  9  3  0
 12 10  3  0
 13  1  1  0
 13  2  1  0
 13  3  1  0
 13 11  1  0
 14  4  1  0
 14  5  1  0
 14  6  1  0
 14 12  1  0
M  END
>  <NAME>  (148) 
1,6-BIS(TRIMETHYLSILYL)-1,3,5-HEXATRIYNE

>  <SYNONYMS>  (148) 


>  <SPECTRUM TYPE>  (148) 
MS1

>  <INSTRUMENT TYPE>  (148) 
EI-B

>  <INSTRUMENT>  (148) 
SHIMADZU QP-1000

>  <ION MODE>  (148) 
P

>  <INCHIKEY>  (148) 
WFRYFVIBFUVRKZ-UHFFFAOYSA-N

>  <FORMULA>  (148) 
C12H18Si2

>  <EXACT MASS>  (148) 
218.094703636

>  <MW>  (148) 
218

>  <ID>  (148) 
JP011952

>  <CONTRIBUTOR>  (148) 
University of Tokyo Team, {Faculty of Engineering, University of Tokyo

>  <COMMENT>  (148) 
SMILES=C[Si](C)(C)C#CC#CC#C[Si](C)(C)C
InChI=InChI=1S/C12H18Si2/c1-13(2,3)11-9-7-8-10-12-14(4,5)6/h1-6H3
computed SMILES=C(#CC#C[Si](C)(C)C)C#C[Si](C)(C)C
accession=JP011952
date=2016.01.19 (Created 2008.10.21, modified 2011.05.06)
author=ISHIKAWA M, HIROSHIMA UNIV. FAC. TEQUNOLOGY
license=CC BY-NC-SA
exact mass=218.0947
ionization energy=70 eV
ion type=[M]+*
computed spectral entropy=1.710768930146307
computed normalized entropy=0.6482500061473525
SPLASH=splash10-0udi-1090000000-48c39395ee676b8e8047
submitter=submitter = University of Tokyo Team (Faculty of Engineering, University of Tokyo)
MoNA Rating=3.75

>  <NUM PEAKS>  (148) 
14

>  <MASS SPECTRAL PEAKS>  (148) 
53 2.7
67 3.7
73 10.6
79 1.1
80 3.2
94 7.4
97 2.7
121 3.2
145 2.1
203 99.99
204 20.2
205 6.4
218 19.7
219 3.2

$$$$

     RDKit          2D

 15 15  0  0  0  0  0  0  0  0999 V2000
   -4.6896    5.2416    0.0000 C   0  0  0  0  0  0  0  0  0  0  0  0
   -5.2386    3.1926    0.0000 C   0  0  0  0  0  0  0  0  0  0  0  0
   -3.1896    2.6436    0.0000 C   0  0  0  0  0  0  0  0  0  0  0  0
   -1.6764    5.8417    0.0000 C   0  0  0  0  0  0  0  0  0  0  0  0
   -3.6047    5.8417    0.0000 C   0  0  0  0  0  0  0  0  0  0  0  0
    3.8546    0.9426    0.0000 C   0  0  0  0  0  0  0  0  0  0  0  0
    3.8551    2.4434    0.0000 C   0  0  0  0  0  0  0  0  0  0  0  0
    2.5551    0.1918    0.0000 C   0  0  0  0  0  0  0  0  0  0  0  0
    2.5561    3.1934    0.0000 C   0  0  0  0  0  0  0  0  0  0  0  0
    1.2561    0.9418    0.0000 C   0  0  0  0  0  0  0  0  0  0  0  0
   -0.0425    3.1926    0.0000 C   0  0  0  0  0  0  0  0  0  0  0  0
   -1.3415    3.9426    0.0000 C   0  0  0  0  0  0  0  0  0  0  0  0
    1.2566    2.4426    0.0000 C   0  0  0  0  0  0  0  0  0  0  0  0
   -3.9396    3.9426    0.0000 Si  0  0  0  0  0  4  0  0  0  0  0  0
   -2.6406    4.6926    0.0000 Si  0  0  0  0  0  4  0  0  0  0  0  0
  7  6  2  0
  8  6  1  0
  9  7  1  0
 10  8  2  0
 12 11  3  0
 13  9  2  0
 13 10  1  0
 13 11  1  0
 14  1  1  0
 14  2  1  0
 14  3  1  0
 15  4  1  0
 15  5  1  0
 15 12  1  0
 15 14  1  0
M  END
>  <NAME>  (149) 
PENTAMETHYL(PHENYLETHYNYL)DISILANE

>  <SYNONYMS>  (149) 


>  <SPECTRUM TYPE>  (149) 
MS1

>  <INSTRUMENT TYPE>  (149) 
EI-B

>  <INSTRUMENT>  (149) 
SHIMADZU QP-1000

>  <ION MODE>  (149) 
P

>  <INCHIKEY>  (149) 
BSWIDNCLOWNORA-UHFFFAOYSA-N

>  <FORMULA>  (149) 
C13H20Si2

>  <EXACT MASS>  (149) 
232.1103537

>  <MW>  (149) 
232

>  <ID>  (149) 
JP011951

>  <CONTRIBUTOR>  (149) 
University of Tokyo Team, {Faculty of Engineering, University of Tokyo

>  <COMMENT>  (149) 
SMILES=c(c1)ccc(c1)C#C[Si](C)(C)[Si](C)(C)C
InChI=InChI=1S/C13H20Si2/c1-14(2,3)15(4,5)12-11-13-9-7-6-8-10-13/h6-10H,1-5H3
computed SMILES=C(#C[Si](C)(C)[Si](C)(C)C)C=1C=CC=CC1
accession=JP011951
date=2016.01.19 (Created 2008.10.21, modified 2011.05.06)
author=ISHIKAWA M, HIROSHIMA UNIV. FAC. TEQUNOLOGY
license=CC BY-NC-SA
exact mass=232.11035
ionization energy=70 eV
ion type=[M]+*
computed spectral entropy=2.5115843092082084
computed normalized entropy=0.724690045533843
SPLASH=splash10-06di-5690000000-aec2a6aa1fceda18073d
submitter=submitter = University of Tokyo Team (Faculty of Engineering, University of Tokyo)
MoNA Rating=3.75

>  <NUM PEAKS>  (149) 
32

>  <MASS SPECTRAL PEAKS>  (149) 
53 9.6
55 3.2
57 1.6
58 3.2
59 3.2
67 1.6
72 2.7
73 64.9
74 4.8
75 1.1
77 2.1
91 1.1
103 1.6
105 9
117 1.1
129 10.6
130 1.1
131 5.9
135 3.2
143 3.7
144 1.1
145 1.6
158 6.4
159 63.8
160 9.6
161 1.6
217 99.99
218 22.3
219 8
232 36.2
233 8
234 3.2

$$$$

     RDKit          2D

 30 33  0  0  0  0  0  0  0  0999 V2000
    3.8981   -0.7504    0.0000 C   0  0  0  0  0  0  0  0  0  0  0  0
   -3.6432  -10.9529    0.0000 C   0  0  0  0  0  0  0  0  0  0  0  0
   -1.3000    0.7500    0.0000 C   0  0  0  0  0  0  0  0  0  0  0  0
   -7.0502   -6.0953    0.0000 C   0  0  0  0  0  0  0  0  0  0  0  0
    0.0000    1.5000    0.0000 C   0  0  0  0  0  0  0  0  0  0  0  0
   -1.3000   -0.7500    0.0000 C   0  0  0  0  0  0  0  0  0  0  0  0
   -5.5720   -5.8351    0.0000 C   0  0  0  0  0  0  0  0  0  0  0  0
   -7.5632   -7.5048    0.0000 C   0  0  0  0  0  0  0  0  0  0  0  0
    1.3000    0.7500    0.0000 C   0  0  0  0  0  0  0  0  0  0  0  0
    0.0000   -1.5000    0.0000 C   0  0  0  0  0  0  0  0  0  0  0  0
   -4.6070   -6.9845    0.0000 C   0  0  0  0  0  0  0  0  0  0  0  0
   -6.5981   -8.6542    0.0000 C   0  0  0  0  0  0  0  0  0  0  0  0
   -0.8089   -3.5376    0.0000 C   0  0  0  0  0  0  0  0  0  0  0  0
    1.1817   -5.2079    0.0000 C   0  0  0  0  0  0  0  0  0  0  0  0
   -0.7481   -7.5059    0.0000 C   0  0  0  0  0  0  0  0  0  0  0  0
   -2.7388   -5.8356    0.0000 C   0  0  0  0  0  0  0  0  0  0  0  0
    0.1565   -2.3885    0.0000 C   0  0  0  0  0  0  0  0  0  0  0  0
    2.1471   -4.0588    0.0000 C   0  0  0  0  0  0  0  0  0  0  0  0
   -1.7136   -8.6550    0.0000 C   0  0  0  0  0  0  0  0  0  0  0  0
   -3.7042   -6.9847    0.0000 C   0  0  0  0  0  0  0  0  0  0  0  0
   -0.2964   -4.9473    0.0000 C   0  0  0  0  0  0  0  0  0  0  0  0
   -1.2607   -6.0962    0.0000 C   0  0  0  0  0  0  0  0  0  0  0  0
    1.3000   -0.7500    0.0000 C   0  0  0  0  0  0  0  0  0  0  0  0
   -5.1200   -8.3941    0.0000 C   0  0  0  0  0  0  0  0  0  0  0  0
    1.6346   -2.6491    0.0000 C   0  0  0  0  0  0  0  0  0  0  0  0
   -3.1916   -8.3944    0.0000 C   0  0  0  0  0  0  0  0  0  0  0  0
    3.5629   -2.6494    0.0000 Cl  0  0  0  0  0  0  0  0  0  0  0  0
   -5.4552  -10.2931    0.0000 Cl  0  0  0  0  0  0  0  0  0  0  0  0
    2.5989   -1.5002    0.0000 Si  0  0  0  0  0  4  0  0  0  0  0  0
   -4.1560   -9.5433    0.0000 Si  0  0  0  0  0  4  0  0  0  0  0  0
  5  3  2  0
  6  3  1  0
  7  4  2  0
  8  4  1  0
  9  5  1  0
 10  6  2  0
 11  7  1  0
 12  8  2  0
 17 13  2  0
 18 14  1  0
 19 15  2  0
 20 16  1  0
 21 13  1  0
 21 14  2  0
 22 15  1  0
 22 16  2  0
 22 21  1  0
 23  9  2  0
 23 10  1  0
 24 11  2  0
 24 12  1  0
 25 17  1  0
 25 18  2  0
 26 19  1  0
 26 20  2  0
 29  1  1  0
 29 23  1  0
 29 25  1  0
 29 27  1  0
 30  2  1  0
 30 24  1  0
 30 26  1  0
 30 28  1  0
M  END
>  <NAME>  (150) 
4,4'-BIS(CHLOROMETHYLPHENYLSILYL)BIPHENYL

>  <SYNONYMS>  (150) 


>  <SPECTRUM TYPE>  (150) 
MS1

>  <INSTRUMENT TYPE>  (150) 
EI-B

>  <INSTRUMENT>  (150) 
SHIMADZU QP-1000

>  <ION MODE>  (150) 
P

>  <INCHIKEY>  (150) 
PQLPMUJETIAKPR-UHFFFAOYSA-N

>  <FORMULA>  (150) 
C26H24Cl2Si2

>  <EXACT MASS>  (150) 
462.079359188

>  <MW>  (150) 
462

>  <ID>  (150) 
JP011950

>  <CONTRIBUTOR>  (150) 
University of Tokyo Team, {Faculty of Engineering, University of Tokyo

>  <COMMENT>  (150) 
SMILES=c(c3)c(ccc3[Si](c(c4)cccc4)(C)Cl)c(c2)ccc(c2)[Si](c(c1)cccc1)(C)Cl
InChI=InChI=1S/C26H24Cl2Si2/c1-29(27,23-9-5-3-6-10-23)25-17-13-21(14-18-25)22-15-19-26(20-16-22)30(2,28)24-11-7-4-8-12-24/h3-20H,1-2H3
computed SMILES=Cl[Si](C=1C=CC=CC1)(C2=CC=C(C=C2)C=3C=CC(=CC3)[Si](Cl)(C=4C=CC=CC4)C)C
accession=JP011950
date=2016.01.19 (Created 2008.10.21, modified 2011.05.06)
author=ISHIKAWA M, HIROSHIMA UNIV. FAC. TEQUNOLOGY
license=CC BY-NC-SA
exact mass=462.07936
ionization energy=70 eV
ion type=[M]+*
computed spectral entropy=2.658429046232972
computed normalized entropy=0.7418487503175594
SPLASH=splash10-0006-2193000000-daf1f55c723f9d135228
submitter=submitter = University of Tokyo Team (Faculty of Engineering, University of Tokyo)
MoNA Rating=3.75

>  <NUM PEAKS>  (150) 
36

>  <MASS SPECTRAL PEAKS>  (150) 
51 5.3
53 2.6
63 25.3
65 8.9
77 3.2
91 5.3
103 1.1
105 1.1
129 1.1
136 6.3
147 1.6
151 1.1
152 5.8
153 1.1
155 3.3
165 3.3
167 1.1
195 2.1
215 3.2
229 1.1
230 4.2
231 3.2
255 5.3
256 1.1
257 4.2
273 2.1
293 99.99
294 26.3
295 38.9
296 8.4
297 1.1
308 48.9
309 12.6
310 18.9
311 4.2
447 0.5

$$$$

     RDKit          2D

 22 21  0  0  0  0  0  0  0  0999 V2000
    7.1447    5.6250    0.0000 C   0  0  0  0  0  0  0  0  0  0  0  0
    4.0955    3.0664    0.0000 C   0  0  0  0  0  0  0  0  0  0  0  0
    6.9880    4.7364    0.0000 C   0  0  0  0  0  0  0  0  0  0  0  0
   -9.7428   12.3750    0.0000 C   0  0  0  0  0  0  0  0  0  0  0  0
   -6.6936   14.9336    0.0000 C   0  0  0  0  0  0  0  0  0  0  0  0
   -9.5861   13.2636    0.0000 C   0  0  0  0  0  0  0  0  0  0  0  0
    5.8457    6.3750    0.0000 C   0  0  0  0  0  0  0  0  0  0  0  0
    3.5825    4.4759    0.0000 C   0  0  0  0  0  0  0  0  0  0  0  0
    5.5108    4.4759    0.0000 C   0  0  0  0  0  0  0  0  0  0  0  0
   -8.4437   11.6250    0.0000 C   0  0  0  0  0  0  0  0  0  0  0  0
   -6.1805   13.5241    0.0000 C   0  0  0  0  0  0  0  0  0  0  0  0
   -8.1089   13.5241    0.0000 C   0  0  0  0  0  0  0  0  0  0  0  0
   -0.6495    8.6250    0.0000 C   0  0  0  0  0  0  0  0  0  0  0  0
   -1.9486    9.3750    0.0000 C   0  0  0  0  0  0  0  0  0  0  0  0
    0.6495    7.8750    0.0000 C   0  0  0  0  0  0  0  0  0  0  0  0
   -3.2476   10.1250    0.0000 C   0  0  0  0  0  0  0  0  0  0  0  0
    1.9486    7.1250    0.0000 C   0  0  0  0  0  0  0  0  0  0  0  0
   -4.5466   10.8750    0.0000 C   0  0  0  0  0  0  0  0  0  0  0  0
    3.2476    6.3750    0.0000 C   0  0  0  0  0  0  0  0  0  0  0  0
   -5.8457   11.6250    0.0000 C   0  0  0  0  0  0  0  0  0  0  0  0
    4.5466    5.6250    0.0000 Si  0  0  0  0  0  4  0  0  0  0  0  0
   -7.1447   12.3750    0.0000 Si  0  0  0  0  0  4  0  0  0  0  0  0
  7  1  1  0
  8  2  1  0
  9  3  1  0
 10  4  1  0
 11  5  1  0
 12  6  1  0
 14 13  1  0
 15 13  3  0
 16 14  3  0
 17 15  1  0
 18 16  1  0
 19 17  3  0
 20 18  3  0
 21  7  1  0
 21  8  1  0
 21  9  1  0
 21 19  1  0
 22 10  1  0
 22 11  1  0
 22 12  1  0
 22 20  1  0
M  END
>  <NAME>  (151) 
1,8-BIS(TRIETHYLSILYL)-1,3,5,7-OCTATETRAYNE

>  <SYNONYMS>  (151) 


>  <SPECTRUM TYPE>  (151) 
MS1

>  <INSTRUMENT TYPE>  (151) 
EI-B

>  <INSTRUMENT>  (151) 
SHIMADZU QP-1000

>  <ION MODE>  (151) 
P

>  <INCHIKEY>  (151) 
YXTUPTZXIDLSHB-UHFFFAOYSA-N

>  <FORMULA>  (151) 
C20H30Si2

>  <EXACT MASS>  (151) 
326.18860402

>  <MW>  (151) 
326

>  <ID>  (151) 
JP011949

>  <CONTRIBUTOR>  (151) 
University of Tokyo Team, {Faculty of Engineering, University of Tokyo

>  <COMMENT>  (151) 
SMILES=CC[Si](CC)(CC)C#CC#CC#CC#C[Si](CC)(CC)CC
InChI=InChI=1S/C20H30Si2/c1-7-21(8-2,9-3)19-17-15-13-14-16-18-20-22(10-4,11-5)12-6/h7-12H2,1-6H3
computed SMILES=C(C#CC#C[Si](CC)(CC)CC)#CC#C[Si](CC)(CC)CC
accession=JP011949
date=2016.01.19 (Created 2008.10.21, modified 2011.05.06)
author=ISHIKAWA M, HIROSHIMA UNIV. FAC. TEQUNOLOGY
license=CC BY-NC-SA
exact mass=326.1886
ionization energy=70 eV
ion type=[M]+*
computed spectral entropy=3.2302374357327666
computed normalized entropy=0.8024733449173055
SPLASH=splash10-00ke-2290000000-c1829d2701b7c402ec6c
submitter=submitter = University of Tokyo Team (Faculty of Engineering, University of Tokyo)
MoNA Rating=3.75

>  <NUM PEAKS>  (151) 
56

>  <MASS SPECTRAL PEAKS>  (151) 
53 5.8
55 3.2
57 8.4
58 4.2
59 6.3
67 1.1
69 1.1
77 4.2
78 11.1
79 4.2
81 6.8
83 2.1
85 2.1
87 2.1
91 2.7
92 17.9
93 4.2
101 2.6
103 1.1
105 6.3
106 17.9
107 3.2
120 11.1
121 3.2
127 2.1
128 1.1
129 6.3
130 2.1
131 4.2
134 3.2
155 5.3
156 8.4
157 8.9
158 2.1
159 2.6
183 3.2
184 7.4
185 10
186 3.2
187 1.1
211 1.1
212 3.2
213 4.2
241 56.8
242 14.7
243 5.8
269 80
270 24.2
271 8.4
272 1.1
297 99.99
298 45.3
299 14.7
326 23.2
327 7.4
328 1.6

$$$$

     RDKit          2D

  8  7  0  0  0  0  0  0  0  0999 V2000
   -3.2476    1.8750    0.0000 C   0  0  0  0  0  0  0  0  0  0  0  0
    2.6986    3.5760    0.0000 C   0  0  0  0  0  0  0  0  0  0  0  0
    3.2476    5.6250    0.0000 C   0  0  0  0  0  0  0  0  0  0  0  0
    1.1986    6.1740    0.0000 C   0  0  0  0  0  0  0  0  0  0  0  0
   -1.9486    2.6250    0.0000 C   0  0  0  0  0  0  0  0  0  0  0  0
   -0.6495    3.3750    0.0000 C   0  0  0  0  0  0  0  0  0  0  0  0
    0.6495    4.1250    0.0000 C   0  0  0  0  0  0  0  0  0  0  0  0
    1.9486    4.8750    0.0000 Si  0  0  0  0  0  4  0  0  0  0  0  0
  5  1  3  0
  6  5  1  0
  7  6  3  0
  8  2  1  0
  8  3  1  0
  8  4  1  0
  8  7  1  0
M  END
>  <NAME>  (152) 
TRIMETHYLSILYL-1,3-BUTADIYNE

>  <SYNONYMS>  (152) 


>  <SPECTRUM TYPE>  (152) 
MS1

>  <INSTRUMENT TYPE>  (152) 
EI-B

>  <INSTRUMENT>  (152) 
SHIMADZU QP-1000

>  <ION MODE>  (152) 
P

>  <INCHIKEY>  (152) 
GVCHYDYMLIWQPE-UHFFFAOYSA-N

>  <FORMULA>  (152) 
C7H10Si

>  <EXACT MASS>  (152) 
122.05517685

>  <MW>  (152) 
122

>  <ID>  (152) 
JP011948

>  <CONTRIBUTOR>  (152) 
University of Tokyo Team, {Faculty of Engineering, University of Tokyo

>  <COMMENT>  (152) 
SMILES=C#CC#C[Si](C)(C)C
InChI=InChI=1S/C7H10Si/c1-5-6-7-8(2,3)4/h1H,2-4H3
computed SMILES=C#CC#C[Si](C)(C)C
accession=JP011948
date=2016.01.19 (Created 2008.10.21, modified 2011.05.06)
author=ISHIKAWA M, HIROSHIMA UNIV. FAC. TEQUNOLOGY
license=CC BY-NC-SA
exact mass=122.05518
ionization energy=70 eV
ion type=[M]+*
computed spectral entropy=1.6170639696319042
computed normalized entropy=0.6127430243691038
SPLASH=splash10-0a4i-2900000000-58d82b2fbf8eae78e395
submitter=submitter = University of Tokyo Team (Faculty of Engineering, University of Tokyo)
MoNA Rating=3.75

>  <NUM PEAKS>  (152) 
14

>  <MASS SPECTRAL PEAKS>  (152) 
53 10.5
54 1.1
55 3.2
65 1.1
66 1.1
67 2.1
77 9.5
79 6.3
91 3.2
107 99.99
108 11.6
109 3.2
122 20.5
123 2.1

$$$$

     RDKit          2D

 24 25  0  0  0  0  0  0  0  0999 V2000
    2.9542   -8.1239    0.0000 C   0  0  0  0  0  0  0  0  0  0  0  0
    4.2532   -5.8739    0.0000 C   0  0  0  0  0  0  0  0  0  0  0  0
    2.9551   -0.6235    0.0000 C   0  0  0  0  0  0  0  0  0  0  0  0
    3.6457   -4.5436    0.0000 C   0  0  0  0  0  0  0  0  0  0  0  0
    1.6551   -7.3739    0.0000 C   0  0  0  0  0  0  0  0  0  0  0  0
    2.9542   -5.1239    0.0000 C   0  0  0  0  0  0  0  0  0  0  0  0
    1.6560   -1.3733    0.0000 C   0  0  0  0  0  0  0  0  0  0  0  0
    2.1685   -4.2829    0.0000 C   0  0  0  0  0  0  0  0  0  0  0  0
    9.0420   -1.5721    0.0000 C   0  0  0  0  0  0  0  0  0  0  0  0
    8.0778   -0.4219    0.0000 C   0  0  0  0  0  0  0  0  0  0  0  0
    8.5289   -2.9825    0.0000 C   0  0  0  0  0  0  0  0  0  0  0  0
   -2.2425   -5.1248    0.0000 C   0  0  0  0  0  0  0  0  0  0  0  0
   -2.2420   -3.6239    0.0000 C   0  0  0  0  0  0  0  0  0  0  0  0
    6.6006   -0.6822    0.0000 C   0  0  0  0  0  0  0  0  0  0  0  0
    7.0516   -3.2428    0.0000 C   0  0  0  0  0  0  0  0  0  0  0  0
   -0.9434   -5.8748    0.0000 C   0  0  0  0  0  0  0  0  0  0  0  0
   -0.9425   -2.8731    0.0000 C   0  0  0  0  0  0  0  0  0  0  0  0
    4.6102   -2.3528    0.0000 C   0  0  0  0  0  0  0  0  0  0  0  0
    3.1330   -2.6131    0.0000 C   0  0  0  0  0  0  0  0  0  0  0  0
    6.0875   -2.0926    0.0000 C   0  0  0  0  0  0  0  0  0  0  0  0
    0.3561   -5.1239    0.0000 C   0  0  0  0  0  0  0  0  0  0  0  0
    0.3566   -3.6231    0.0000 C   0  0  0  0  0  0  0  0  0  0  0  0
    1.6551   -5.8739    0.0000 Si  0  0  0  0  0  4  0  0  0  0  0  0
    1.6557   -2.8733    0.0000 Si  0  0  0  0  0  4  0  0  0  0  0  0
  5  1  1  0
  6  2  1  0
  7  3  1  0
  8  4  1  0
 10  9  2  0
 11  9  1  0
 13 12  2  0
 14 10  1  0
 15 11  2  0
 16 12  1  0
 17 13  1  0
 19 18  3  0
 20 14  2  0
 20 15  1  0
 20 18  1  0
 21 16  2  0
 22 17  2  0
 22 21  1  0
 23  5  1  0
 23  6  1  0
 23 21  1  0
 24  7  1  0
 24  8  1  0
 24 19  1  0
 24 22  1  0
M  END
>  <NAME>  (153) 
1-DIETHYL(2-PHENYLETHYNYL)SILYL-2-DIETHYLSILYLBENZENE

>  <SYNONYMS>  (153) 


>  <SPECTRUM TYPE>  (153) 
MS1

>  <INSTRUMENT TYPE>  (153) 
EI-B

>  <INSTRUMENT>  (153) 
SHIMADZU QP-1000

>  <ION MODE>  (153) 
P

>  <INCHIKEY>  (153) 
DDVDTQDACUPAFP-UHFFFAOYSA-N

>  <FORMULA>  (153) 
C22H30Si2

>  <EXACT MASS>  (153) 
350.18860401999996

>  <MW>  (153) 
350

>  <ID>  (153) 
JP011947

>  <CONTRIBUTOR>  (153) 
University of Tokyo Team, {Faculty of Engineering, University of Tokyo

>  <COMMENT>  (153) 
SMILES=CC[SiH](CC)c(c2)c(ccc2)[Si](CC)(CC)C#Cc(c1)cccc1
InChI=InChI=1S/C22H30Si2/c1-5-23(6-2)21-16-12-13-17-22(21)24(7-3,8-4)19-18-20-14-10-9-11-15-20/h9-17,23H,5-8H2,1-4H3
computed SMILES=C(#C[Si](C=1C=CC=CC1[SiH](CC)CC)(CC)CC)C=2C=CC=CC2
accession=JP011947
date=2016.01.19 (Created 2008.10.21, modified 2011.05.06)
author=ISHIKAWA M, HIROSHIMA UNIV. FAC. TEQUNOLOGY
license=CC BY-NC-SA
exact mass=350.1886
ionization energy=70 eV
ion type=[M]+*
computed spectral entropy=1.982737921853302
computed normalized entropy=0.6998194915370132
SPLASH=splash10-00di-0059000000-5840f5181383500387f8
submitter=submitter = University of Tokyo Team (Faculty of Engineering, University of Tokyo)
MoNA Rating=3.75

>  <NUM PEAKS>  (153) 
17

>  <MASS SPECTRAL PEAKS>  (153) 
105 3.2
118 1.1
207 1.1
235 5.3
236 1.1
237 11.7
238 3.2
263 14.9
266 3.2
267 1.1
293 35.1
294 10.6
295 3.2
321 99.99
322 40.4
323 13.3
324 2.7

$$$$

     RDKit          2D

 29 33  0  0  0  0  0  0  0  0999 V2000
   -0.0122    5.7542    0.0000 C   0  0  0  0  0  0  0  0  0  0  0  0
   -3.2806    5.7637    0.0000 C   0  0  0  0  0  0  0  0  0  0  0  0
    0.9938    2.6612    0.0000 C   0  0  0  0  0  0  0  0  0  0  0  0
   -4.2788    2.6514    0.0000 C   0  0  0  0  0  0  0  0  0  0  0  0
   -2.6502    1.1267    0.0000 C   0  0  0  0  0  0  0  0  0  0  0  0
    3.6541    4.4726    0.0000 C   0  0  0  0  0  0  0  0  0  0  0  0
    4.1175    3.0450    0.0000 C   0  0  0  0  0  0  0  0  0  0  0  0
    2.1869    4.7844    0.0000 C   0  0  0  0  0  0  0  0  0  0  0  0
    3.2200   -2.6966    0.0000 C   0  0  0  0  0  0  0  0  0  0  0  0
   -3.2200   -2.6966    0.0000 C   0  0  0  0  0  0  0  0  0  0  0  0
    3.6900   -1.2666    0.0000 C   0  0  0  0  0  0  0  0  0  0  0  0
   -3.6800   -1.2666    0.0000 C   0  0  0  0  0  0  0  0  0  0  0  0
    3.1136    1.9294    0.0000 C   0  0  0  0  0  0  0  0  0  0  0  0
    1.1830    3.6688    0.0000 C   0  0  0  0  0  0  0  0  0  0  0  0
    1.7500   -3.0066    0.0000 C   0  0  0  0  0  0  0  0  0  0  0  0
   -1.7500   -3.0066    0.0000 C   0  0  0  0  0  0  0  0  0  0  0  0
    2.6800   -0.1566    0.0000 C   0  0  0  0  0  0  0  0  0  0  0  0
   -2.6800   -0.1566    0.0000 C   0  0  0  0  0  0  0  0  0  0  0  0
   -0.8964    4.5424    0.0000 C   0  0  0  0  0  0  0  0  0  0  0  0
   -2.3984    4.5506    0.0000 C   0  0  0  0  0  0  0  0  0  0  0  0
   -0.4332    3.1235    0.0000 C   0  0  0  0  0  0  0  0  0  0  0  0
   -2.8536    3.1191    0.0000 C   0  0  0  0  0  0  0  0  0  0  0  0
    1.6464    2.2412    0.0000 C   0  0  0  0  0  0  0  0  0  0  0  0
    0.7500   -1.8966    0.0000 C   0  0  0  0  0  0  0  0  0  0  0  0
   -0.7500   -1.8966    0.0000 C   0  0  0  0  0  0  0  0  0  0  0  0
    1.2100   -0.4666    0.0000 C   0  0  0  0  0  0  0  0  0  0  0  0
   -1.2100   -0.4666    0.0000 C   0  0  0  0  0  0  0  0  0  0  0  0
   -1.6464    2.2412    0.0000 C   0  0  0  0  0  0  0  0  0  0  0  0
    0.0000    0.4134    0.0000 Si  0  0  0  0  0  4  0  0  0  0  0  0
  7  6  2  0
  8  6  1  0
 11  9  2  0
 12 10  2  0
 13  7  1  0
 14  8  2  0
 15  9  1  0
 16 10  1  0
 17 11  1  0
 18 12  1  0
 19  1  1  0
 20  2  1  0
 20 19  1  0
 21  3  1  0
 21 19  2  0
 22  4  1  0
 22 20  2  0
 23 13  2  0
 23 14  1  0
 24 15  2  0
 25 16  2  0
 25 24  1  0
 26 17  2  0
 26 24  1  0
 27 18  2  0
 27 25  1  0
 28  5  1  0
 28 21  1  0
 28 22  1  0
 29 23  1  0
 29 26  1  0
 29 27  1  0
 29 28  1  0
M  END
>  <NAME>  (154) 
1-PHENYL-1-(PENTAMETHYLCYCLOPENTA-2,4-DIENYL)DIBENZOSILACYCLOPENTADIENE

>  <SYNONYMS>  (154) 


>  <SPECTRUM TYPE>  (154) 
MS1

>  <INSTRUMENT TYPE>  (154) 
EI-B

>  <INSTRUMENT>  (154) 
SHIMADZU QP-1000

>  <ION MODE>  (154) 
P

>  <INCHIKEY>  (154) 
DKHGQWUZCPYZOG-UHFFFAOYSA-N

>  <FORMULA>  (154) 
C28H28Si

>  <EXACT MASS>  (154) 
392.196027426

>  <MW>  (154) 
392

>  <ID>  (154) 
JP011946

>  <CONTRIBUTOR>  (154) 
University of Tokyo Team, {Faculty of Engineering, University of Tokyo

>  <COMMENT>  (154) 
SMILES=c(c5)cc(cc5)[Si](c43)(c(c2)c(c3cccc4)ccc2)C(C=1C)(C(=C(C)C(C)1)C)C
InChI=InChI=1S/C28H28Si/c1-19-20(2)22(4)28(5,21(19)3)29(23-13-7-6-8-14-23)26-17-11-9-15-24(26)25-16-10-12-18-27(25)29/h6-18H,1-5H3
computed SMILES=C=1C=CC(=CC1)[Si]2(C=3C=CC=CC3C=4C=CC=CC42)C5(C(=C(C(=C5C)C)C)C)C
accession=JP011946
date=2016.01.19 (Created 2008.10.21, modified 2011.05.06)
author=ISHIKAWA M, HIROSHIMA UNIV. FAC. TEQUNOLOGY
license=CC BY-NC-SA
exact mass=392.19603
ionization energy=70 eV
ion type=[M]+*
computed spectral entropy=2.2329277298018835
computed normalized entropy=0.7121453831609744
SPLASH=splash10-0a4l-1195000000-c0e7d1acccf0ea248120
submitter=submitter = University of Tokyo Team (Faculty of Engineering, University of Tokyo)
MoNA Rating=3.75

>  <NUM PEAKS>  (154) 
23

>  <MASS SPECTRAL PEAKS>  (154) 
53 3.2
54 6.8
56 2.1
77 2.7
78 1.1
79 1.1
91 2.7
105 2.7
119 5.8
134 12.1
135 2.1
229 2.1
254 2.1
255 8.4
256 5.3
257 99.99
258 24.2
259 5.8
334 4.7
390 2.6
392 54.7
393 22.1
394 5.8

$$$$

     RDKit          2D

 18 19  0  0  0  0  0  0  0  0999 V2000
    0.8491   -4.0587    0.0000 C   0  0  0  0  0  0  0  0  0  0  0  0
    1.7509   -4.0587    0.0000 C   0  0  0  0  0  0  0  0  0  0  0  0
    1.7509    4.0587    0.0000 C   0  0  0  0  0  0  0  0  0  0  0  0
    0.8491    4.0587    0.0000 C   0  0  0  0  0  0  0  0  0  0  0  0
    0.3359   -2.6492    0.0000 C   0  0  0  0  0  0  0  0  0  0  0  0
    2.2641   -2.6492    0.0000 C   0  0  0  0  0  0  0  0  0  0  0  0
    2.2641    2.6492    0.0000 C   0  0  0  0  0  0  0  0  0  0  0  0
    0.3359    2.6492    0.0000 C   0  0  0  0  0  0  0  0  0  0  0  0
   -2.6000   -0.7500    0.0000 C   0  0  0  0  0  0  0  0  0  0  0  0
   -2.6000    0.7500    0.0000 C   0  0  0  0  0  0  0  0  0  0  0  0
   -1.3000   -1.5000    0.0000 C   0  0  0  0  0  0  0  0  0  0  0  0
   -1.3000    1.5000    0.0000 C   0  0  0  0  0  0  0  0  0  0  0  0
    2.6000   -0.7500    0.0000 C   0  0  0  0  0  0  0  0  0  0  0  0
    2.6000    0.7500    0.0000 C   0  0  0  0  0  0  0  0  0  0  0  0
    0.0000   -0.7500    0.0000 C   0  0  0  0  0  0  0  0  0  0  0  0
    0.0000    0.7500    0.0000 C   0  0  0  0  0  0  0  0  0  0  0  0
    1.3000   -1.5000    0.0000 Si  0  0  0  0  0  4  0  0  0  0  0  0
    1.3000    1.5000    0.0000 Si  0  0  0  0  0  4  0  0  0  0  0  0
  5  1  1  0
  6  2  1  0
  7  3  1  0
  8  4  1  0
 10  9  2  0
 11  9  1  0
 12 10  1  0
 14 13  1  0
 15 11  2  0
 16 12  2  0
 16 15  1  0
 17  5  1  0
 17  6  1  0
 17 13  1  0
 17 15  1  0
 18  7  1  0
 18  8  1  0
 18 14  1  0
 18 16  1  0
M  END
>  <NAME>  (155) 
5,6-BENZO-1,1,4,4-TETRAETHYL-1,4-DISILACYCLOHEX-5-ENE

>  <SYNONYMS>  (155) 


>  <SPECTRUM TYPE>  (155) 
MS1

>  <INSTRUMENT TYPE>  (155) 
EI-B

>  <INSTRUMENT>  (155) 
SHIMADZU QP-1000

>  <ION MODE>  (155) 
P

>  <INCHIKEY>  (155) 
GRHDPCHHVFWZBM-UHFFFAOYSA-N

>  <FORMULA>  (155) 
C16H28Si2

>  <EXACT MASS>  (155) 
276.172953956

>  <MW>  (155) 
276

>  <ID>  (155) 
JP011945

>  <CONTRIBUTOR>  (155) 
University of Tokyo Team, {Faculty of Engineering, University of Tokyo

>  <COMMENT>  (155) 
SMILES=CC[Si](CC)(C1)c(c2)c(ccc2)[Si](CC)(CC)C1
InChI=InChI=1S/C16H28Si2/c1-5-17(6-2)13-14-18(7-3,8-4)16-12-10-9-11-15(16)17/h9-12H,5-8,13-14H2,1-4H3
computed SMILES=C=1C=CC2=C(C1)[Si](CC)(CC)CC[Si]2(CC)CC
accession=JP011945
date=2016.01.19 (Created 2008.10.21, modified 2011.05.06)
author=ISHIKAWA M, HIROSHIMA UNIV. FAC. TEQUNOLOGY
license=CC BY-NC-SA
exact mass=276.17295
ionization energy=70 eV
ion type=[M]+*
computed spectral entropy=3.4535576328461066
computed normalized entropy=0.8243060217357462
SPLASH=splash10-052b-7690000000-50660464190870fe31e4
submitter=submitter = University of Tokyo Team (Faculty of Engineering, University of Tokyo)
MoNA Rating=3.75

>  <NUM PEAKS>  (155) 
66

>  <MASS SPECTRAL PEAKS>  (155) 
53 8.4
54 1.1
55 9.5
56 2.1
57 22.1
58 8.4
59 60
60 3.2
61 1.1
67 2.1
68 3.2
69 1.1
79 2.1
80 3.2
81 43.2
82 5.3
87 6.3
95 26.3
96 11.6
97 2.1
104 1.1
105 9.5
107 4.2
108 3.2
109 15.8
110 4.2
119 1.1
130 2.1
131 15.8
132 4.2
133 8.4
134 3.2
135 8.4
136 2.1
145 2.1
147 3.2
149 4.2
158 3.2
159 15.8
160 5.3
161 9.5
162 5.3
163 15.8
164 3.2
177 2.1
189 4.2
190 3.2
191 28.4
192 6.3
193 1.1
217 1.1
218 2.1
219 63.2
220 14.7
221 14.7
222 4.2
245 2.1
246 5.3
248 99.99
249 30.5
250 1.1
251 3.2
274 1.1
275 4.2
276 9.5
277 3.2

$$$$

     RDKit          2D

 22 24  0  0  0  0  0  0  0  0999 V2000
   -0.4509   -4.0587    0.0000 C   0  0  0  0  0  0  0  0  0  0  0  0
    0.4509   -4.0587    0.0000 C   0  0  0  0  0  0  0  0  0  0  0  0
    0.4509    4.0587    0.0000 C   0  0  0  0  0  0  0  0  0  0  0  0
   -0.4509    4.0587    0.0000 C   0  0  0  0  0  0  0  0  0  0  0  0
   -0.9641   -2.6492    0.0000 C   0  0  0  0  0  0  0  0  0  0  0  0
    0.9641   -2.6492    0.0000 C   0  0  0  0  0  0  0  0  0  0  0  0
    0.9641    2.6492    0.0000 C   0  0  0  0  0  0  0  0  0  0  0  0
   -0.9641    2.6492    0.0000 C   0  0  0  0  0  0  0  0  0  0  0  0
    3.9000   -0.7500    0.0000 C   0  0  0  0  0  0  0  0  0  0  0  0
   -3.9000   -0.7500    0.0000 C   0  0  0  0  0  0  0  0  0  0  0  0
    3.9000    0.7500    0.0000 C   0  0  0  0  0  0  0  0  0  0  0  0
   -3.9000    0.7500    0.0000 C   0  0  0  0  0  0  0  0  0  0  0  0
    2.6000   -1.5000    0.0000 C   0  0  0  0  0  0  0  0  0  0  0  0
   -2.6000   -1.5000    0.0000 C   0  0  0  0  0  0  0  0  0  0  0  0
    2.6000    1.5000    0.0000 C   0  0  0  0  0  0  0  0  0  0  0  0
   -2.6000    1.5000    0.0000 C   0  0  0  0  0  0  0  0  0  0  0  0
    1.3000   -0.7500    0.0000 C   0  0  0  0  0  0  0  0  0  0  0  0
   -1.3000   -0.7500    0.0000 C   0  0  0  0  0  0  0  0  0  0  0  0
    1.3000    0.7500    0.0000 C   0  0  0  0  0  0  0  0  0  0  0  0
   -1.3000    0.7500    0.0000 C   0  0  0  0  0  0  0  0  0  0  0  0
   -0.0000   -1.5000    0.0000 Si  0  0  0  0  0  4  0  0  0  0  0  0
   -0.0000    1.5000    0.0000 Si  0  0  0  0  0  4  0  0  0  0  0  0
  5  1  1  0
  6  2  1  0
  7  3  1  0
  8  4  1  0
 11  9  2  0
 12 10  2  0
 13  9  1  0
 14 10  1  0
 15 11  1  0
 16 12  1  0
 17 13  2  0
 18 14  2  0
 19 15  2  0
 19 17  1  0
 20 16  2  0
 20 18  1  0
 21  5  1  0
 21  6  1  0
 21 17  1  0
 21 18  1  0
 22  7  1  0
 22  8  1  0
 22 19  1  0
 22 20  1  0
M  END
>  <NAME>  (156) 
2,3,5,6-BENZO-1,1,4,4-TETRAETHYL-1,4-DISILACYCLOHEXA-2,5-DIENE

>  <SYNONYMS>  (156) 


>  <SPECTRUM TYPE>  (156) 
MS1

>  <INSTRUMENT TYPE>  (156) 
EI-B

>  <INSTRUMENT>  (156) 
SHIMADZU QP-1000

>  <ION MODE>  (156) 
P

>  <INCHIKEY>  (156) 
XVDULWVRZSBLGW-UHFFFAOYSA-N

>  <FORMULA>  (156) 
C20H28Si2

>  <EXACT MASS>  (156) 
324.172953956

>  <MW>  (156) 
324

>  <ID>  (156) 
JP011944

>  <CONTRIBUTOR>  (156) 
University of Tokyo Team, {Faculty of Engineering, University of Tokyo

>  <COMMENT>  (156) 
SMILES=CC[Si](CC)(c21)c(c3)c(ccc3)[Si](CC)(CC)c(cccc2)1
InChI=InChI=1S/C20H28Si2/c1-5-21(6-2)17-13-9-11-15-19(17)22(7-3,8-4)20-16-12-10-14-18(20)21/h9-16H,5-8H2,1-4H3
computed SMILES=C=1C=CC2=C(C1)[Si](C=3C=CC=CC3[Si]2(CC)CC)(CC)CC
accession=JP011944
date=2016.01.19 (Created 2008.10.21, modified 2011.05.06)
author=ISHIKAWA M, HIROSHIMA UNIV. FAC. TEQUNOLOGY
license=CC BY-NC-SA
exact mass=324.17295
ionization energy=70 eV
ion type=[M]+*
computed spectral entropy=2.1137333885963643
computed normalized entropy=0.7055815391970037
SPLASH=splash10-0002-0190000000-85aaa55975a3766eb57e
submitter=submitter = University of Tokyo Team (Faculty of Engineering, University of Tokyo)
MoNA Rating=3.75

>  <NUM PEAKS>  (156) 
20

>  <MASS SPECTRAL PEAKS>  (156) 
54 1.1
105 20
106 1.1
119 4.2
133 3.2
181 2.1
209 3.2
211 13.7
212 3.2
239 10.5
240 2.1
267 24.2
268 6.3
269 2.1
295 99.99
296 30.5
297 10.5
298 1.1
324 4
325 1.1

$$$$

     RDKit          2D

 24 25  0  0  0  0  0  0  0  0999 V2000
    3.8971   -4.0589    0.0000 C   0  0  0  0  0  0  0  0  0  0  0  0
    2.5988   -1.8085    0.0000 C   0  0  0  0  0  0  0  0  0  0  0  0
    7.6388    2.0795    0.0000 C   0  0  0  0  0  0  0  0  0  0  0  0
    4.7465    3.7500    0.0000 C   0  0  0  0  0  0  0  0  0  0  0  0
    5.1964   -3.3093    0.0000 C   0  0  0  0  0  0  0  0  0  0  0  0
    3.8981   -1.0589    0.0000 C   0  0  0  0  0  0  0  0  0  0  0  0
    6.1616    2.3402    0.0000 C   0  0  0  0  0  0  0  0  0  0  0  0
    4.2332    2.3405    0.0000 C   0  0  0  0  0  0  0  0  0  0  0  0
   -1.2983   -1.0576    0.0000 C   0  0  0  0  0  0  0  0  0  0  0  0
    0.0011   -1.8087    0.0000 C   0  0  0  0  0  0  0  0  0  0  0  0
   -1.2986    0.4432    0.0000 C   0  0  0  0  0  0  0  0  0  0  0  0
    9.0947   -1.0614    0.0000 C   0  0  0  0  0  0  0  0  0  0  0  0
    9.0947    0.4394    0.0000 C   0  0  0  0  0  0  0  0  0  0  0  0
    1.3002   -1.0589    0.0000 C   0  0  0  0  0  0  0  0  0  0  0  0
    0.0006    1.1930    0.0000 C   0  0  0  0  0  0  0  0  0  0  0  0
    7.7954   -1.8110    0.0000 C   0  0  0  0  0  0  0  0  0  0  0  0
    7.7954    1.1907    0.0000 C   0  0  0  0  0  0  0  0  0  0  0  0
    2.5992    1.1917    0.0000 C   0  0  0  0  0  0  0  0  0  0  0  0
    3.8981    0.4415    0.0000 C   0  0  0  0  0  0  0  0  0  0  0  0
    1.3000    0.4419    0.0000 C   0  0  0  0  0  0  0  0  0  0  0  0
    6.4962   -1.0597    0.0000 C   0  0  0  0  0  0  0  0  0  0  0  0
    6.4962    0.4411    0.0000 C   0  0  0  0  0  0  0  0  0  0  0  0
    5.1969   -1.8093    0.0000 Si  0  0  0  0  0  4  0  0  0  0  0  0
    5.1972    1.1913    0.0000 Si  0  0  0  0  0  4  0  0  0  0  0  0
  5  1  1  0
  6  2  1  0
  7  3  1  0
  8  4  1  0
 10  9  2  0
 11  9  1  0
 13 12  2  0
 14 10  1  0
 15 11  2  0
 16 12  1  0
 17 13  1  0
 18 19  2  0
 20 14  2  0
 20 15  1  0
 20 18  1  0
 21 16  2  0
 22 17  2  0
 22 21  1  0
 23  5  1  0
 23  6  1  0
 23 21  1  0
 24  7  1  0
 24  8  1  0
 24 19  1  0
 24 22  1  0
M  END
>  <NAME>  (157) 
TRANS-1-(DIETHYL(2-PHENYLETHENYL)SILYL-2-(DIETHYL)BENZENE

>  <SYNONYMS>  (157) 


>  <SPECTRUM TYPE>  (157) 
MS1

>  <INSTRUMENT TYPE>  (157) 
EI-B

>  <INSTRUMENT>  (157) 
SHIMADZU QP-1000

>  <ION MODE>  (157) 
P

>  <INCHIKEY>  (157) 
FLKOOYUSMGBXQI-VHEBQXMUSA-N

>  <FORMULA>  (157) 
C22H32Si2

>  <EXACT MASS>  (157) 
352.204254084

>  <MW>  (157) 
352

>  <ID>  (157) 
JP011943

>  <CONTRIBUTOR>  (157) 
University of Tokyo Team, {Faculty of Engineering, University of Tokyo

>  <COMMENT>  (157) 
SMILES=CC[SiH](CC)c(c2)c(ccc2)[Si](CC)(CC)C([H])=C([H])c(c1)cccc1
InChI=InChI=1S/C22H32Si2/c1-5-23(6-2)21-16-12-13-17-22(21)24(7-3,8-4)19-18-20-14-10-9-11-15-20/h9-19,23H,5-8H2,1-4H3/b19-18+
computed SMILES=C=1C=CC(=CC1)C=C[Si](C=2C=CC=CC2[SiH](CC)CC)(CC)CC
accession=JP011943
date=2016.01.19 (Created 2008.10.21, modified 2011.05.06)
author=ISHIKAWA M, HIROSHIMA UNIV. FAC. TEQUNOLOGY
license=CC BY-NC-SA
exact mass=352.20425
ionization energy=70 eV
ion type=[M]+*
computed spectral entropy=3.1671763655690484
computed normalized entropy=0.805523098280058
SPLASH=splash10-00di-3249000000-78c93f9ff727e9a1b883
submitter=submitter = University of Tokyo Team (Faculty of Engineering, University of Tokyo)
MoNA Rating=3.75

>  <NUM PEAKS>  (157) 
51

>  <MASS SPECTRAL PEAKS>  (157) 
51 5.3
52 1.5
53 3.9
55 5.3
56 2.1
57 9.5
58 2.1
59 24.2
60 1.1
77 3.2
78 5.3
87 2.1
91 3.2
103 2.1
104 3.2
105 8.4
106 1.1
107 10.5
131 4.2
133 3.2
135 6.3
149 3.2
159 3.2
163 3.2
177 3.2
205 6.3
207 3.2
219 1.1
225 3.2
235 5.3
237 4.2
239 3.2
245 2.1
253 6.3
254 1.1
265 2.1
267 5.3
281 9.5
282 1.1
293 4.2
295 17.9
296 4.2
297 1.1
321 13.7
322 6.3
323 99.99
324 31.6
325 11.6
326 1.1
352 5.3
353 2.1

$$$$

     RDKit          2D

 12 12  0  0  0  0  0  0  0  0999 V2000
    5.1970    1.5006    0.0000 C   0  0  0  0  0  0  0  0  0  0  0  0
   -2.5989   -1.5002    0.0000 C   0  0  0  0  0  0  0  0  0  0  0  0
    3.5629    2.6494    0.0000 C   0  0  0  0  0  0  0  0  0  0  0  0
    3.8981    0.7504    0.0000 C   0  0  0  0  0  0  0  0  0  0  0  0
   -1.3000    0.7500    0.0000 C   0  0  0  0  0  0  0  0  0  0  0  0
   -0.0000   -1.5000    0.0000 C   0  0  0  0  0  0  0  0  0  0  0  0
    0.0000    1.5000    0.0000 C   0  0  0  0  0  0  0  0  0  0  0  0
    1.3000   -0.7500    0.0000 C   0  0  0  0  0  0  0  0  0  0  0  0
   -1.3000   -0.7500    0.0000 C   0  0  0  0  0  0  0  0  0  0  0  0
    1.3000    0.7500    0.0000 C   0  0  0  0  0  0  0  0  0  0  0  0
    1.6346    2.6491    0.0000 Cl  0  0  0  0  0  0  0  0  0  0  0  0
    2.5989    1.5002    0.0000 Si  0  0  0  0  0  4  0  0  0  0  0  0
  4  1  1  0
  7  5  2  0
  8  6  1  0
  9  2  1  0
  9  5  1  0
  9  6  2  0
 10  7  1  0
 10  8  2  0
 12  3  1  0
 12  4  1  0
 12 10  1  0
 12 11  1  0
M  END
>  <NAME>  (158) 
CHLOROETHYLMETHYL(PARA-TOLYL)SILANE

>  <SYNONYMS>  (158) 


>  <SPECTRUM TYPE>  (158) 
MS1

>  <INSTRUMENT TYPE>  (158) 
EI-B

>  <INSTRUMENT>  (158) 
SHIMADZU QP-1000

>  <ION MODE>  (158) 
P

>  <INCHIKEY>  (158) 
KBTQTCKPXGMEGG-UHFFFAOYSA-N

>  <FORMULA>  (158) 
C10H15ClSi

>  <EXACT MASS>  (158) 
198.06315469

>  <MW>  (158) 
198

>  <ID>  (158) 
JP011942

>  <CONTRIBUTOR>  (158) 
University of Tokyo Team, {Faculty of Engineering, University of Tokyo

>  <COMMENT>  (158) 
SMILES=Cc(c1)ccc(c1)[Si](C)(Cl)CC
InChI=InChI=1S/C10H15ClSi/c1-4-12(3,11)10-7-5-9(2)6-8-10/h5-8H,4H2,1-3H3
computed SMILES=Cl[Si](C1=CC=C(C=C1)C)(C)CC
accession=JP011942
date=2016.01.19 (Created 2008.10.21, modified 2011.05.06)
author=ISHIKAWA M, HIROSHIMA UNIV. FAC. TEQUNOLOGY
license=CC BY-NC-SA
exact mass=198.06315
ionization energy=70 eV
ion type=[M]+*
computed spectral entropy=2.8714058424309825
computed normalized entropy=0.7783951408953509
SPLASH=splash10-014i-6900000000-746e2924265a13420965
submitter=submitter = University of Tokyo Team (Faculty of Engineering, University of Tokyo)
MoNA Rating=3.75

>  <NUM PEAKS>  (158) 
40

>  <MASS SPECTRAL PEAKS>  (158) 
51 4.2
53 7.4
63 49.5
64 3.2
65 29.5
66 2.1
67 3.2
77 7.4
78 6.3
79 15.8
80 2.1
82 3.2
89 3.2
91 36.8
92 3.2
93 3.2
103 5.3
104 1.1
105 13.7
106 2.1
107 2.1
117 2.1
119 6.3
131 3.2
135 3.2
141 2.1
153 1.1
155 11.6
156 1.1
157 3.2
163 1.1
168 5.3
169 99.99
170 13.7
171 36.8
172 3.2
183 2.1
198 13.7
199 1.1
200 4.2

$$$$

     RDKit          2D

 16 16  0  0  0  0  0  0  0  0999 V2000
    1.6111   -3.2110    0.0000 C   0  0  0  0  0  0  0  0  0  0  0  0
    3.6601   -2.6620    0.0000 C   0  0  0  0  0  0  0  0  0  0  0  0
    3.1111   -0.6129    0.0000 C   0  0  0  0  0  0  0  0  0  0  0  0
    2.5620    0.3380    0.0000 C   0  0  0  0  0  0  0  0  0  0  0  0
    1.0620    1.8380    0.0000 C   0  0  0  0  0  0  0  0  0  0  0  0
   -0.4380    0.3380    0.0000 C   0  0  0  0  0  0  0  0  0  0  0  0
   -1.5356   -4.1628    0.0000 C   0  0  0  0  0  0  0  0  0  0  0  0
   -2.8351   -3.4120    0.0000 C   0  0  0  0  0  0  0  0  0  0  0  0
   -0.2365   -3.4128    0.0000 C   0  0  0  0  0  0  0  0  0  0  0  0
   -1.5365   -1.1612    0.0000 C   0  0  0  0  0  0  0  0  0  0  0  0
   -2.8356   -1.9112    0.0000 C   0  0  0  0  0  0  0  0  0  0  0  0
   -0.2370   -1.9120    0.0000 C   0  0  0  0  0  0  0  0  0  0  0  0
   -4.1347   -1.1614    0.0000 Br  0  0  0  0  0  0  0  0  0  0  0  0
    1.0620   -1.1620    0.0000 N   0  0  0  0  0  0  0  0  0  0  0  0
    2.3611   -1.9120    0.0000 Si  0  0  0  0  0  4  0  0  0  0  0  0
    1.0620    0.3380    0.0000 Si  0  0  0  0  0  4  0  0  0  0  0  0
  8  7  2  0
  9  7  1  0
 11  8  1  0
 11 10  2  0
 12  9  2  0
 12 10  1  0
 13 11  1  0
 14 12  1  0
 15  1  1  0
 15  2  1  0
 15  3  1  0
 15 14  1  0
 16  4  1  0
 16  5  1  0
 16  6  1  0
 16 14  1  0
M  END
>  <NAME>  (159) 
N,N-BIS(TRIMETHYLSILYL)-3-BROMOANILINE

>  <SYNONYMS>  (159) 


>  <SPECTRUM TYPE>  (159) 
MS1

>  <INSTRUMENT TYPE>  (159) 
EI-B

>  <INSTRUMENT>  (159) 
SHIMADZU QP-1000

>  <ION MODE>  (159) 
P

>  <INCHIKEY>  (159) 
MDGATTWZVMLJMF-UHFFFAOYSA-N

>  <FORMULA>  (159) 
C12H22BrNSi2

>  <EXACT MASS>  (159) 
315.047414864

>  <MW>  (159) 
315

>  <ID>  (159) 
JP011941

>  <CONTRIBUTOR>  (159) 
University of Tokyo Team, {Faculty of Engineering, University of Tokyo

>  <COMMENT>  (159) 
SMILES=Brc(c1)cc(cc1)N([Si](C)(C)C)[Si](C)(C)C
InChI=InChI=1S/C12H22BrNSi2/c1-15(2,3)14(16(4,5)6)12-9-7-8-11(13)10-12/h7-10H,1-6H3
computed SMILES=BrC1=CC=CC(=C1)N([Si](C)(C)C)[Si](C)(C)C
accession=JP011941
date=2016.01.19 (Created 2008.10.21, modified 2011.05.06)
author=ISHIKAWA M, HIROSHIMA UNIV. FAC. TEQUNOLOGY
license=CC BY-NC-SA
exact mass=315.04742
ionization energy=70 eV
ion type=[M]+*
computed spectral entropy=2.7213999664721413
computed normalized entropy=0.7377307934085956
SPLASH=splash10-0uk9-6019000000-9e3bee25a86696027a23
submitter=submitter = University of Tokyo Team (Faculty of Engineering, University of Tokyo)
MoNA Rating=3.75

>  <NUM PEAKS>  (159) 
40

>  <MASS SPECTRAL PEAKS>  (159) 
51 1.1
53 2.6
54 2.1
55 4.2
56 1.1
57 3.2
58 5.3
59 18.9
60 1.1
63 1.1
67 2.1
69 3.2
70 5.3
71 1.1
73 99.99
74 8.4
75 8.4
79 2.6
81 2.1
84 1.1
95 1.1
100 2.1
121 4.2
137 1.1
139 1.1
148 6.3
206 12.6
207 2.1
221 12.6
222 3.2
299 10.5
300 75.8
301 18.9
302 82.1
303 18.9
304 6.3
310 12.6
311 2.6
312 13.2
313 2.6

$$$$

     RDKit          2D

 11 10  0  0  0  0  0  0  0  0999 V2000
    2.2733    2.8125    0.0000 C   0  0  0  0  0  0  0  0  0  0  0  0
    0.9743    5.0625    0.0000 C   0  0  0  0  0  0  0  0  0  0  0  0
   -5.5209    2.8125    0.0000 C   0  0  0  0  0  0  0  0  0  0  0  0
   -4.2219    5.0625    0.0000 C   0  0  0  0  0  0  0  0  0  0  0  0
   -0.6596    4.7116    0.0000 C   0  0  0  0  0  0  0  0  0  0  0  0
   -2.5880    4.7116    0.0000 C   0  0  0  0  0  0  0  0  0  0  0  0
   -0.3248    2.8125    0.0000 O   0  0  0  0  0  0  0  0  0  0  0  0
   -2.9228    2.8125    0.0000 O   0  0  0  0  0  0  0  0  0  0  0  0
    0.9743    3.5625    0.0000 Si  0  0  0  0  0  4  0  0  0  0  0  0
   -4.2219    3.5625    0.0000 Si  0  0  0  0  0  4  0  0  0  0  0  0
   -1.6238    3.5625    0.0000 Si  0  0  0  0  0  4  0  0  0  0  0  0
  9  1  1  0
  9  2  1  0
  9  7  1  0
 10  3  1  0
 10  4  1  0
 10  8  1  0
 11  5  1  0
 11  6  1  0
 11  7  1  0
 11  8  1  0
M  END
>  <NAME>  (160) 
1,1,3,3,5,5-HEXAMETHYLTRISILOXANE

>  <SYNONYMS>  (160) 


>  <SPECTRUM TYPE>  (160) 
MS1

>  <INSTRUMENT TYPE>  (160) 
EI-B

>  <INSTRUMENT>  (160) 
SHIMADZU QP-1000

>  <ION MODE>  (160) 
P

>  <INCHIKEY>  (160) 
HZBDPZBVINJJET-UHFFFAOYSA-N

>  <FORMULA>  (160) 
C6H20O2Si3

>  <EXACT MASS>  (160) 
208.07710946999998

>  <MW>  (160) 
208

>  <ID>  (160) 
JP011940

>  <CONTRIBUTOR>  (160) 
University of Tokyo Team, {Faculty of Engineering, University of Tokyo

>  <COMMENT>  (160) 
SMILES=C[SiH](C)O[Si](C)(C)O[SiH](C)C
InChI=InChI=1S/C6H20O2Si3/c1-9(2)7-11(5,6)8-10(3)4/h9-10H,1-6H3
computed SMILES=O([SiH](C)C)[Si](O[SiH](C)C)(C)C
accession=JP011940
date=2016.01.19 (Created 2008.10.21, modified 2011.05.06)
author=ISHIKAWA M, HIROSHIMA UNIV. FAC. TEQUNOLOGY
license=CC BY-NC-SA
exact mass=208.07711
ionization energy=70 eV
ion type=[M]+*
computed spectral entropy=2.655177187345214
computed normalized entropy=0.7661221921728893
SPLASH=splash10-0a4j-9100000000-807f30e4e00d92f12330
submitter=submitter = University of Tokyo Team (Faculty of Engineering, University of Tokyo)
MoNA Rating=3.75

>  <NUM PEAKS>  (160) 
32

>  <MASS SPECTRAL PEAKS>  (160) 
51 1.1
52 1.6
55 4.2
56 1.1
57 3.7
58 27.4
59 99.99
60 4.2
61 16.3
71 1.1
72 1.1
73 29.5
74 33.2
75 21.1
77 1.1
81 6.3
82 5.8
87 8.4
88 3.7
89 9.5
96 71.1
97 8.9
103 9.5
104 2.1
105 3.2
115 5.8
117 2.1
119 6.8
134 11.6
192 1
208 5.2
209 1

$$$$

     RDKit          2D

  8  7  0  0  0  0  0  0  0  0999 V2000
   -3.2476    1.8750    0.0000 C   0  0  0  0  0  0  0  0  0  0  0  0
    2.6986    3.5760    0.0000 C   0  0  0  0  0  0  0  0  0  0  0  0
    3.2476    5.6250    0.0000 C   0  0  0  0  0  0  0  0  0  0  0  0
    1.1986    6.1740    0.0000 C   0  0  0  0  0  0  0  0  0  0  0  0
   -1.9486    2.6250    0.0000 C   0  0  0  0  0  0  0  0  0  0  0  0
   -0.6495    3.3750    0.0000 C   0  0  0  0  0  0  0  0  0  0  0  0
    0.6495    4.1250    0.0000 C   0  0  0  0  0  0  0  0  0  0  0  0
    1.9486    4.8750    0.0000 Si  0  0  0  0  0  4  0  0  0  0  0  0
  5  1  3  0
  6  5  1  0
  7  6  3  0
  8  2  1  0
  8  3  1  0
  8  4  1  0
  8  7  1  0
M  END
>  <NAME>  (161) 
TRIMETHYLSILYL-1,3-BUTADIYNE

>  <SYNONYMS>  (161) 


>  <SPECTRUM TYPE>  (161) 
MS1

>  <INSTRUMENT TYPE>  (161) 
EI-B

>  <INSTRUMENT>  (161) 
SHIMADZU QP-1000

>  <ION MODE>  (161) 
P

>  <INCHIKEY>  (161) 
GVCHYDYMLIWQPE-UHFFFAOYSA-N

>  <FORMULA>  (161) 
C7H10Si

>  <EXACT MASS>  (161) 
122.05517685

>  <MW>  (161) 
122

>  <ID>  (161) 
JP011939

>  <CONTRIBUTOR>  (161) 
University of Tokyo Team, {Faculty of Engineering, University of Tokyo

>  <COMMENT>  (161) 
SMILES=C#CC#C[Si](C)(C)C
InChI=InChI=1S/C7H10Si/c1-5-6-7-8(2,3)4/h1H,2-4H3
computed SMILES=C#CC#C[Si](C)(C)C
accession=JP011939
date=2016.01.19 (Created 2008.10.21, modified 2011.05.06)
author=ISHIKAWA M, HIROSHIMA UNIV. FAC. TEQUNOLOGY
license=CC BY-NC-SA
exact mass=122.05518
ionization energy=70 eV
ion type=[M]+*
computed spectral entropy=2.4181308411656146
computed normalized entropy=0.7256850033608747
SPLASH=splash10-0pb9-9600000000-daccff0d72e44ded15c5
submitter=submitter = University of Tokyo Team (Faculty of Engineering, University of Tokyo)
MoNA Rating=3.75

>  <NUM PEAKS>  (161) 
28

>  <MASS SPECTRAL PEAKS>  (161) 
52 1.1
53 1.1
54 69.5
55 9.5
56 21.6
57 2.1
58 3.2
59 1.1
63 1.1
64 2.1
65 9.5
66 8.4
67 11.6
69 1.1
73 6.3
77 24.2
79 13.7
80 1.1
82 3.2
89 1.1
90 2.1
91 4.2
93 1.1
107 99.99
108 11.6
109 4.2
122 19.5
123 2.1

$$$$

     RDKit          2D

 12 12  0  0  0  0  0  0  0  0999 V2000
    3.3481    2.7710    0.0000 C   0  0  0  0  0  0  0  0  0  0  0  0
    3.8971    4.8200    0.0000 C   0  0  0  0  0  0  0  0  0  0  0  0
   -3.8971    0.3200    0.0000 C   0  0  0  0  0  0  0  0  0  0  0  0
   -2.5976   -0.4308    0.0000 C   0  0  0  0  0  0  0  0  0  0  0  0
   -3.8976    1.8208    0.0000 C   0  0  0  0  0  0  0  0  0  0  0  0
   -1.2986    0.3192    0.0000 C   0  0  0  0  0  0  0  0  0  0  0  0
   -2.5986    2.5708    0.0000 C   0  0  0  0  0  0  0  0  0  0  0  0
    0.0000    2.5700    0.0000 C   0  0  0  0  0  0  0  0  0  0  0  0
    1.2990    3.3200    0.0000 C   0  0  0  0  0  0  0  0  0  0  0  0
   -1.2990    1.8200    0.0000 C   0  0  0  0  0  0  0  0  0  0  0  0
    1.8481    5.3690    0.0000 Cl  0  0  0  0  0  0  0  0  0  0  0  0
    2.5981    4.0700    0.0000 Si  0  0  0  0  0  4  0  0  0  0  0  0
  4  3  2  0
  5  3  1  0
  6  4  1  0
  7  5  2  0
  9  8  3  0
 10  6  2  0
 10  7  1  0
 10  8  1  0
 12  1  1  0
 12  2  1  0
 12  9  1  0
 12 11  1  0
M  END
>  <NAME>  (162) 
CHLORODIMETHYL(PHENYLETHYNYL)SILANE

>  <SYNONYMS>  (162) 


>  <SPECTRUM TYPE>  (162) 
MS1

>  <INSTRUMENT TYPE>  (162) 
EI-B

>  <INSTRUMENT>  (162) 
SHIMADZU QP-1000

>  <ION MODE>  (162) 
P

>  <INCHIKEY>  (162) 
MYOJVBNQQVJWHE-UHFFFAOYSA-N

>  <FORMULA>  (162) 
C10H11ClSi

>  <EXACT MASS>  (162) 
194.031854562

>  <MW>  (162) 
194

>  <ID>  (162) 
JP011938

>  <CONTRIBUTOR>  (162) 
University of Tokyo Team, {Faculty of Engineering, University of Tokyo

>  <COMMENT>  (162) 
SMILES=c(c1)ccc(c1)C#C[Si](C)(C)Cl
InChI=InChI=1S/C10H11ClSi/c1-12(2,11)9-8-10-6-4-3-5-7-10/h3-7H,1-2H3
computed SMILES=Cl[Si](C#CC=1C=CC=CC1)(C)C
accession=JP011938
date=2016.01.19 (Created 2008.10.21, modified 2011.05.06)
author=ISHIKAWA M, HIROSHIMA UNIV. FAC. TEQUNOLOGY
license=CC BY-NC-SA
exact mass=194.03185
ionization energy=70 eV
ion type=[M]+*
computed spectral entropy=2.743161505443263
computed normalized entropy=0.7845432784629088
SPLASH=splash10-0400-9500000000-c2e4812e18b6ce56a3af
submitter=submitter = University of Tokyo Team (Faculty of Engineering, University of Tokyo)
MoNA Rating=3.75

>  <NUM PEAKS>  (162) 
33

>  <MASS SPECTRAL PEAKS>  (162) 
51 6.3
52 11.6
54 16.8
63 99.99
64 7.4
65 38.9
66 3.7
67 3.7
74 3.2
75 3.2
76 2.1
77 9.5
78 2.1
79 2.1
88 1.1
89 10.5
90 11.6
91 5.8
101 1.1
103 5.3
105 1.1
115 13.2
116 1.1
117 1.1
129 11.6
159 6.3
179 52.6
180 6.3
181 20
182 2.1
194 12.6
195 2.1
196 4.2

$$$$

     RDKit          2D

 19 19  0  0  0  0  0  0  0  0999 V2000
   -1.2121    4.5398    0.0000 C   0  0  0  0  0  0  0  0  0  0  0  0
    3.1412    2.0265    0.0000 C   0  0  0  0  0  0  0  0  0  0  0  0
   -3.1686    2.3316    0.0000 C   0  0  0  0  0  0  0  0  0  0  0  0
   -4.9477    1.1763    0.0000 C   0  0  0  0  0  0  0  0  0  0  0  0
   -3.7923   -0.6028    0.0000 C   0  0  0  0  0  0  0  0  0  0  0  0
   -0.0224   -2.7794    0.0000 C   0  0  0  0  0  0  0  0  0  0  0  0
    2.0961   -2.8904    0.0000 C   0  0  0  0  0  0  0  0  0  0  0  0
    2.2071   -0.7720    0.0000 C   0  0  0  0  0  0  0  0  0  0  0  0
   -2.8297   -1.2813    0.0000 C   0  0  0  0  0  0  0  0  0  0  0  0
   -1.0912   -2.2850    0.0000 C   0  0  0  0  0  0  0  0  0  0  0  0
   -1.0553    3.0480    0.0000 C   0  0  0  0  0  0  0  0  0  0  0  0
    1.7709    1.4164    0.0000 C   0  0  0  0  0  0  0  0  0  0  0  0
   -0.8985    1.5562    0.0000 C   0  0  0  0  0  0  0  0  0  0  0  0
    0.4005    0.8062    0.0000 C   0  0  0  0  0  0  0  0  0  0  0  0
   -2.0132    0.5526    0.0000 C   0  0  0  0  0  0  0  0  0  0  0  0
    0.0887   -0.6610    0.0000 C   0  0  0  0  0  0  0  0  0  0  0  0
   -3.4804    0.8644    0.0000 Si  0  0  0  0  0  4  0  0  0  0  0  0
    1.0924   -1.7757    0.0000 Si  0  0  0  0  0  4  0  0  0  0  0  0
   -1.4031   -0.8178    0.0000 Si  0  0  0  0  0  4  0  0  0  0  0  0
 11  1  3  0
 12  2  3  0
 13 11  1  0
 14 12  1  0
 14 13  1  0
 15 13  2  0
 16 14  2  0
 17  3  1  0
 17  4  1  0
 17  5  1  0
 17 15  1  0
 18  6  1  0
 18  7  1  0
 18  8  1  0
 18 16  1  0
 19  9  1  0
 19 10  1  0
 19 15  1  0
 19 16  1  0
M  END
>  <NAME>  (163) 
3,4-DIETHYNYL-1,1-DIMETHYL-2,5-BIS(TRIMETHYLSILYL)-1-SILACYCLOPENTA-2,5-DIENE

>  <SYNONYMS>  (163) 


>  <SPECTRUM TYPE>  (163) 
MS1

>  <INSTRUMENT TYPE>  (163) 
EI-B

>  <INSTRUMENT>  (163) 
SHIMADZU QP-1000

>  <ION MODE>  (163) 
P

>  <INCHIKEY>  (163) 
CJPAQDRQMODKHS-UHFFFAOYSA-N

>  <FORMULA>  (163) 
C16H26Si3

>  <EXACT MASS>  (163) 
302.134230422

>  <MW>  (163) 
302

>  <ID>  (163) 
JP011937

>  <CONTRIBUTOR>  (163) 
University of Tokyo Team, {Faculty of Engineering, University of Tokyo

>  <COMMENT>  (163) 
SMILES=C#CC(C(C#C)=1)=C([Si](C)(C)C)[Si](C)(C)C([Si](C)(C)C)1
InChI=InChI=1S/C16H26Si3/c1-11-13-14(12-2)16(18(6,7)8)19(9,10)15(13)17(3,4)5/h1-2H,3-10H3
computed SMILES=C#CC=1C(C#C)=C([Si](C1[Si](C)(C)C)(C)C)[Si](C)(C)C
accession=JP011937
date=2016.01.19 (Created 2008.10.21, modified 2011.05.06)
author=ISHIKAWA M, HIROSHIMA UNIV. FAC. TEQUNOLOGY
license=CC BY-NC-SA
exact mass=302.13423
computed spectral entropy=2.4142520935133716
ionization energy=70 eV
ion type=[M]+*
computed normalized entropy=0.7245209848738944
SPLASH=splash10-00di-9020000000-d70c50d3b33cbd16dd12
submitter=submitter = University of Tokyo Team (Faculty of Engineering, University of Tokyo)
MoNA Rating=3.75

>  <NUM PEAKS>  (163) 
28

>  <MASS SPECTRAL PEAKS>  (163) 
54 7.4
56 6.8
58 1.1
59 3.2
60 9.5
67 5.3
69 3.7
73 99.99
74 7.4
75 3.2
77 1.1
79 2.1
81 1.1
83 6.8
93 1.1
97 4.2
107 3.7
165 4
199 3.2
207 3.2
213 4
227 2.8
228 2.7
229 4.2
287 24.2
288 7.5
289 4
302 6.5

$$$$

     RDKit          2D

 19 19  0  0  0  0  0  0  0  0999 V2000
   -5.9470   -1.7017    0.0000 C   0  0  0  0  0  0  0  0  0  0  0  0
   -6.4957   -3.7508    0.0000 C   0  0  0  0  0  0  0  0  0  0  0  0
   -4.4465   -4.2995    0.0000 C   0  0  0  0  0  0  0  0  0  0  0  0
    5.9470    1.7017    0.0000 C   0  0  0  0  0  0  0  0  0  0  0  0
    6.4957    3.7508    0.0000 C   0  0  0  0  0  0  0  0  0  0  0  0
    4.4465    4.2995    0.0000 C   0  0  0  0  0  0  0  0  0  0  0  0
   -1.3000    0.7500    0.0000 C   0  0  0  0  0  0  0  0  0  0  0  0
    0.0000    1.5000    0.0000 C   0  0  0  0  0  0  0  0  0  0  0  0
   -2.5989   -1.5002    0.0000 C   0  0  0  0  0  0  0  0  0  0  0  0
    2.5989    1.5002    0.0000 C   0  0  0  0  0  0  0  0  0  0  0  0
   -3.8978   -2.2504    0.0000 C   0  0  0  0  0  0  0  0  0  0  0  0
    3.8978    2.2504    0.0000 C   0  0  0  0  0  0  0  0  0  0  0  0
   -0.0000   -1.5000    0.0000 C   0  0  0  0  0  0  0  0  0  0  0  0
   -1.3000   -0.7500    0.0000 C   0  0  0  0  0  0  0  0  0  0  0  0
    1.3000    0.7500    0.0000 C   0  0  0  0  0  0  0  0  0  0  0  0
    1.3000   -0.7500    0.0000 C   0  0  0  0  0  0  0  0  0  0  0  0
    2.5989   -1.5002    0.0000 N   0  0  0  0  0  0  0  0  0  0  0  0
   -5.1968   -3.0006    0.0000 Si  0  0  0  0  0  4  0  0  0  0  0  0
    5.1968    3.0006    0.0000 Si  0  0  0  0  0  4  0  0  0  0  0  0
  8  7  2  0
 11  9  3  0
 12 10  3  0
 14  7  1  0
 14  9  1  0
 14 13  2  0
 15  8  1  0
 15 10  1  0
 16 13  1  0
 16 15  2  0
 17 16  1  0
 18  1  1  0
 18  2  1  0
 18  3  1  0
 18 11  1  0
 19  4  1  0
 19  5  1  0
 19  6  1  0
 19 12  1  0
M  END
>  <NAME>  (164) 
2,5-BIS(TRIMETHYLSILYLETHYNYL)ANILINE

>  <SYNONYMS>  (164) 


>  <SPECTRUM TYPE>  (164) 
MS1

>  <INSTRUMENT TYPE>  (164) 
EI-B

>  <INSTRUMENT>  (164) 
SHIMADZU QP-1000

>  <ION MODE>  (164) 
P

>  <INCHIKEY>  (164) 
OSGZOINJOWXGQI-UHFFFAOYSA-N

>  <FORMULA>  (164) 
C16H23NSi2

>  <EXACT MASS>  (164) 
285.136902796

>  <MW>  (164) 
285

>  <ID>  (164) 
JP011936

>  <CONTRIBUTOR>  (164) 
University of Tokyo Team, {Faculty of Engineering, University of Tokyo

>  <COMMENT>  (164) 
SMILES=C[Si](C)(C)C#Cc(c1)cc(N)c(c1)C#C[Si](C)(C)C
InChI=InChI=1S/C16H23NSi2/c1-18(2,3)11-9-14-7-8-15(16(17)13-14)10-12-19(4,5)6/h7-8,13H,17H2,1-6H3
computed SMILES=C(#C[Si](C)(C)C)C1=CC=C(C#C[Si](C)(C)C)C(N)=C1
accession=JP011936
date=2016.01.19 (Created 2008.10.21, modified 2011.05.06)
author=ISHIKAWA M, HIROSHIMA UNIV. FAC. TEQUNOLOGY
license=CC BY-NC-SA
exact mass=285.1369
ionization energy=70 eV
ion type=[M]+*
computed spectral entropy=2.6880312849756023
computed normalized entropy=0.7687760537398087
SPLASH=splash10-00di-9150000000-f66aa967402587c7dc73
submitter=submitter = University of Tokyo Team (Faculty of Engineering, University of Tokyo)
MoNA Rating=3.75

>  <NUM PEAKS>  (164) 
33

>  <MASS SPECTRAL PEAKS>  (164) 
53 12.1
54 2.1
55 5.8
56 3.2
57 4.2
58 23.2
59 14.2
60 2.1
67 3.2
69 1.6
70 7.9
71 1.1
73 99.99
74 14.2
75 6.3
77 2.1
83 3.7
84 1.1
85 12.1
97 2.1
100 2.1
101 2.1
106 1.1
113 2.1
114 3.2
120 2.1
128 14.2
270 55
271 14.2
272 4.2
285 41
286 11.6
287 3.2

$$$$

     RDKit          2D

 11 11  0  0  0  0  0  0  0  0999 V2000
   -2.9228   -0.9925    0.0000 C   0  0  0  0  0  0  0  0  0  0  0  0
   -4.2219    1.2575    0.0000 C   0  0  0  0  0  0  0  0  0  0  0  0
    3.5724    4.2575    0.0000 C   0  0  0  0  0  0  0  0  0  0  0  0
    2.2728    5.0083    0.0000 C   0  0  0  0  0  0  0  0  0  0  0  0
    3.5728    2.7567    0.0000 C   0  0  0  0  0  0  0  0  0  0  0  0
    0.9738    4.2583    0.0000 C   0  0  0  0  0  0  0  0  0  0  0  0
    2.2738    2.0067    0.0000 C   0  0  0  0  0  0  0  0  0  0  0  0
   -0.3248    2.0075    0.0000 C   0  0  0  0  0  0  0  0  0  0  0  0
   -1.6238    1.2575    0.0000 C   0  0  0  0  0  0  0  0  0  0  0  0
    0.9743    2.7575    0.0000 C   0  0  0  0  0  0  0  0  0  0  0  0
   -2.9228    0.5075    0.0000 Si  0  0  0  0  0  4  0  0  0  0  0  0
  4  3  2  0
  5  3  1  0
  6  4  1  0
  7  5  2  0
  9  8  3  0
 10  6  2  0
 10  7  1  0
 10  8  1  0
 11  1  1  0
 11  2  1  0
 11  9  1  0
M  END
>  <NAME>  (165) 
DIMETHYL(PHENYLETHYNYL)SILANE

>  <SYNONYMS>  (165) 


>  <SPECTRUM TYPE>  (165) 
MS1

>  <INSTRUMENT TYPE>  (165) 
EI-B

>  <INSTRUMENT>  (165) 
SHIMADZU QP-1000

>  <ION MODE>  (165) 
P

>  <INCHIKEY>  (165) 
JPQVPTPDZWZPQT-UHFFFAOYSA-N

>  <FORMULA>  (165) 
C10H12Si

>  <EXACT MASS>  (165) 
160.070826914

>  <MW>  (165) 
160

>  <ID>  (165) 
JP011935

>  <CONTRIBUTOR>  (165) 
University of Tokyo Team, {Faculty of Engineering, University of Tokyo

>  <COMMENT>  (165) 
SMILES=C[SiH](C)C#Cc(c1)cccc1
InChI=InChI=1S/C10H12Si/c1-11(2)9-8-10-6-4-3-5-7-10/h3-7,11H,1-2H3
computed SMILES=C(#C[SiH](C)C)C=1C=CC=CC1
accession=JP011935
date=2016.01.19 (Created 2008.10.21, modified 2011.05.06)
author=ISHIKAWA M, HIROSHIMA UNIV. FAC. TEQUNOLOGY
license=CC BY-NC-SA
exact mass=160.07083
ionization energy=70 eV
ion type=[M]+*
computed spectral entropy=3.084662416624838
computed normalized entropy=0.8103325222328696
SPLASH=splash10-0zfr-9300000000-ef701f4bd786f0899a4c
submitter=submitter = University of Tokyo Team (Faculty of Engineering, University of Tokyo)
MoNA Rating=3.75

>  <NUM PEAKS>  (165) 
45

>  <MASS SPECTRAL PEAKS>  (165) 
50 13.2
51 22.1
52 14.7
53 99.99
54 10.5
55 14.7
57 8.9
58 72.6
59 7.4
60 2.1
62 4.2
63 10.5
64 7.9
65 11.1
66 11.6
67 17.9
68 1.1
69 1.1
72 6.3
73 2.6
74 3.2
75 2.6
76 5.3
77 22.1
78 5.3
79 8.4
80 2.1
83 2.1
89 3.2
90 1.1
91 3.2
93 2.1
101 1.1
103 6.3
105 13.2
115 1.1
117 1.1
129 8.4
143 3.2
145 69.5
146 10.5
147 2.1
159 11.6
160 21.6
161 3.2

$$$$

     RDKit          2D

 18 19  0  0  0  0  0  0  0  0999 V2000
   -0.5000   -3.1900    0.0000 C   0  0  0  0  0  0  0  0  0  0  0  0
   -3.0989    1.3102    0.0000 C   0  0  0  0  0  0  0  0  0  0  0  0
    2.6838    2.4465    0.0000 C   0  0  0  0  0  0  0  0  0  0  0  0
    4.6149    4.1846    0.0000 C   0  0  0  0  0  0  0  0  0  0  0  0
    3.1000   -0.1900    0.0000 C   0  0  0  0  0  0  0  0  0  0  0  0
    4.1511    2.7581    0.0000 C   0  0  0  0  0  0  0  0  0  0  0  0
    0.8000    0.5600    0.0000 C   0  0  0  0  0  0  0  0  0  0  0  0
    0.8000   -0.9400    0.0000 C   0  0  0  0  0  0  0  0  0  0  0  0
   -0.5000    1.3100    0.0000 C   0  0  0  0  0  0  0  0  0  0  0  0
   -1.8000   -0.9400    0.0000 C   0  0  0  0  0  0  0  0  0  0  0  0
    2.2200   -1.4000    0.0000 N   0  0  0  0  0  0  0  0  0  0  0  0
   -0.5000   -1.6900    0.0000 N   0  0  0  0  0  0  0  0  0  0  0  0
   -1.8000    0.5600    0.0000 N   0  0  0  0  0  0  0  0  0  0  0  0
    2.2200    1.0200    0.0000 N   0  0  0  0  0  0  0  0  0  0  0  0
    6.0822    4.4961    0.0000 O   0  0  0  0  0  0  0  0  0  0  0  0
    5.1546    1.6431    0.0000 O   0  0  0  0  0  0  0  0  0  0  0  0
   -0.5000    2.8100    0.0000 O   0  0  0  0  0  0  0  0  0  0  0  0
   -3.0989   -1.6902    0.0000 O   0  0  0  0  0  0  0  0  0  0  0  0
  6  3  1  0
  6  4  1  0
  8  7  2  0
  9  7  1  0
 11  5  2  0
 11  8  1  0
 12  1  1  0
 12  8  1  0
 12 10  1  0
 13  2  1  0
 13  9  1  0
 13 10  1  0
 14  3  1  0
 14  5  1  0
 14  7  1  0
 15  4  1  0
 16  6  1  0
 17  9  2  0
 18 10  2  0
M  END
>  <NAME>  (166) 
7-(2,3-DIHYDROXYPROPYL)THEOPHYLLINE

>  <SYNONYMS>  (166) 
DYPHYLLINE

>  <SPECTRUM TYPE>  (166) 
MS1

>  <INSTRUMENT TYPE>  (166) 
EI-B

>  <INSTRUMENT>  (166) 
HITACHI M-2500

>  <ION MODE>  (166) 
P

>  <INCHIKEY>  (166) 
KSCFJBIXMNOVSH-UHFFFAOYSA-N

>  <FORMULA>  (166) 
C10H14N4O4

>  <EXACT MASS>  (166) 
254.101504928

>  <MW>  (166) 
254

>  <ID>  (166) 
JP011934

>  <CONTRIBUTOR>  (166) 
University of Tokyo Team, {Faculty of Engineering, University of Tokyo

>  <COMMENT>  (166) 
SMILES=OCC(O)Cn(c2)c(C(=O)1)c(n2)N(C)C(=O)N(C)1
cas=479-18-5
InChI=InChI=1S/C10H14N4O4/c1-12-8-7(9(17)13(2)10(12)18)14(5-11-8)3-6(16)4-15/h5-6,15-16H,3-4H2,1-2H3
computed SMILES=O=C1C2=C(N=CN2CC(O)CO)N(C(=O)N1C)C
accession=JP011934
date=2016.01.19 (Created 2008.10.21, modified 2011.05.06)
author=YAMAMOTO M, DEP. CHEMISTRY, FAC. SCIENCE, NARA WOMEN'S UNIV.
license=CC BY-NC-SA
exact mass=254.1015
ionization energy=70 eV
ion type=[M]+*
computed spectral entropy=2.770334962602652
computed normalized entropy=0.7509963383360496
SPLASH=splash10-001i-9000000000-d159f2e06ae5688fe714
submitter=submitter = University of Tokyo Team (Faculty of Engineering, University of Tokyo)
MoNA Rating=3.75

>  <NUM PEAKS>  (166) 
40

>  <MASS SPECTRAL PEAKS>  (166) 
15 7.76
27 3.16
28 8.32
29 23.33
30 3.33
31 99.99
32 2.87
39 1.58
40 3.25
41 3.32
42 7.29
43 23.36
44 7.47
45 1.03
52 1.99
53 2.98
54 2.82
55 2.44
56 6.97
57 2.83
58 5.34
60 1.42
61 12.93
66 4.13
67 5.85
68 3.72
69 1.12
70 1.3
80 1.75
81 6.83
82 2.4
94 2.7
95 2.37
109 3.83
180 2.76
193 3.03
194 1.55
223 1.34
254 1.43
255 1.25

$$$$

     RDKit          2D

 18 19  0  0  0  0  0  0  0  0999 V2000
   -0.5000   -3.1900    0.0000 C   0  0  0  0  0  0  0  0  0  0  0  0
   -3.0989    1.3102    0.0000 C   0  0  0  0  0  0  0  0  0  0  0  0
    2.6838    2.4465    0.0000 C   0  0  0  0  0  0  0  0  0  0  0  0
    4.6149    4.1846    0.0000 C   0  0  0  0  0  0  0  0  0  0  0  0
    3.1000   -0.1900    0.0000 C   0  0  0  0  0  0  0  0  0  0  0  0
    4.1511    2.7581    0.0000 C   0  0  0  0  0  0  0  0  0  0  0  0
    0.8000    0.5600    0.0000 C   0  0  0  0  0  0  0  0  0  0  0  0
    0.8000   -0.9400    0.0000 C   0  0  0  0  0  0  0  0  0  0  0  0
   -0.5000    1.3100    0.0000 C   0  0  0  0  0  0  0  0  0  0  0  0
   -1.8000   -0.9400    0.0000 C   0  0  0  0  0  0  0  0  0  0  0  0
    2.2200   -1.4000    0.0000 N   0  0  0  0  0  0  0  0  0  0  0  0
   -0.5000   -1.6900    0.0000 N   0  0  0  0  0  0  0  0  0  0  0  0
   -1.8000    0.5600    0.0000 N   0  0  0  0  0  0  0  0  0  0  0  0
    2.2200    1.0200    0.0000 N   0  0  0  0  0  0  0  0  0  0  0  0
    6.0822    4.4961    0.0000 O   0  0  0  0  0  0  0  0  0  0  0  0
    5.1546    1.6431    0.0000 O   0  0  0  0  0  0  0  0  0  0  0  0
   -0.5000    2.8100    0.0000 O   0  0  0  0  0  0  0  0  0  0  0  0
   -3.0989   -1.6902    0.0000 O   0  0  0  0  0  0  0  0  0  0  0  0
  6  3  1  0
  6  4  1  0
  8  7  2  0
  9  7  1  0
 11  5  2  0
 11  8  1  0
 12  1  1  0
 12  8  1  0
 12 10  1  0
 13  2  1  0
 13  9  1  0
 13 10  1  0
 14  3  1  0
 14  5  1  0
 14  7  1  0
 15  4  1  0
 16  6  1  0
 17  9  2  0
 18 10  2  0
M  END
>  <NAME>  (167) 
7-(2,3-DIHYDROXYPROPYL)THEOPHYLLINE

>  <SYNONYMS>  (167) 
DYPHYLLINE

>  <SPECTRUM TYPE>  (167) 
MS1

>  <INSTRUMENT TYPE>  (167) 
EI-B

>  <INSTRUMENT>  (167) 
HITACHI M-2500

>  <ION MODE>  (167) 
P

>  <INCHIKEY>  (167) 
KSCFJBIXMNOVSH-UHFFFAOYSA-N

>  <FORMULA>  (167) 
C10H14N4O4

>  <EXACT MASS>  (167) 
254.101504928

>  <MW>  (167) 
254

>  <ID>  (167) 
JP011933

>  <CONTRIBUTOR>  (167) 
University of Tokyo Team, {Faculty of Engineering, University of Tokyo

>  <COMMENT>  (167) 
SMILES=OCC(O)Cn(c2)c(C(=O)1)c(n2)N(C)C(=O)N(C)1
cas=479-18-5
InChI=InChI=1S/C10H14N4O4/c1-12-8-7(9(17)13(2)10(12)18)14(5-11-8)3-6(16)4-15/h5-6,15-16H,3-4H2,1-2H3
computed SMILES=O=C1C2=C(N=CN2CC(O)CO)N(C(=O)N1C)C
accession=JP011933
date=2016.01.19 (Created 2008.10.21, modified 2011.05.06)
author=YAMAMOTO M, DEP. CHEMISTRY, FAC. SCIENCE, NARA WOMEN'S UNIV.
license=CC BY-NC-SA
exact mass=254.1015
ionization energy=70 eV
ion type=[M]+*
computed spectral entropy=2.770334962602652
computed normalized entropy=0.7509963383360496
SPLASH=splash10-001i-9000000000-d159f2e06ae5688fe714
submitter=submitter = University of Tokyo Team (Faculty of Engineering, University of Tokyo)
MoNA Rating=3.75

>  <NUM PEAKS>  (167) 
40

>  <MASS SPECTRAL PEAKS>  (167) 
15 7.76
27 3.16
28 8.32
29 23.33
30 3.33
31 99.99
32 2.87
39 1.58
40 3.25
41 3.32
42 7.29
43 23.36
44 7.47
45 1.03
52 1.99
53 2.98
54 2.82
55 2.44
56 6.97
57 2.83
58 5.34
60 1.42
61 12.93
66 4.13
67 5.85
68 3.72
69 1.12
70 1.3
80 1.75
81 6.83
82 2.4
94 2.7
95 2.37
109 3.83
180 2.76
193 3.03
194 1.55
223 1.34
254 1.43
255 1.25

$$$$

     RDKit          2D

 17 18  0  0  0  0  0  0  0  0999 V2000
    4.6149    4.1846    0.0000 C   0  0  0  0  0  0  0  0  0  0  0  0
   -0.5000   -3.1900    0.0000 C   0  0  0  0  0  0  0  0  0  0  0  0
   -3.0989    1.3102    0.0000 C   0  0  0  0  0  0  0  0  0  0  0  0
    2.6838    2.4465    0.0000 C   0  0  0  0  0  0  0  0  0  0  0  0
    3.1000   -0.1900    0.0000 C   0  0  0  0  0  0  0  0  0  0  0  0
    4.1511    2.7581    0.0000 C   0  0  0  0  0  0  0  0  0  0  0  0
    0.8000    0.5600    0.0000 C   0  0  0  0  0  0  0  0  0  0  0  0
    0.8000   -0.9400    0.0000 C   0  0  0  0  0  0  0  0  0  0  0  0
   -0.5000    1.3100    0.0000 C   0  0  0  0  0  0  0  0  0  0  0  0
   -1.8000   -0.9400    0.0000 C   0  0  0  0  0  0  0  0  0  0  0  0
    2.2200   -1.4000    0.0000 N   0  0  0  0  0  0  0  0  0  0  0  0
   -0.5000   -1.6900    0.0000 N   0  0  0  0  0  0  0  0  0  0  0  0
   -1.8000    0.5600    0.0000 N   0  0  0  0  0  0  0  0  0  0  0  0
    2.2200    1.0200    0.0000 N   0  0  0  0  0  0  0  0  0  0  0  0
    5.1546    1.6431    0.0000 O   0  0  0  0  0  0  0  0  0  0  0  0
   -0.5000    2.8100    0.0000 O   0  0  0  0  0  0  0  0  0  0  0  0
   -3.0989   -1.6902    0.0000 O   0  0  0  0  0  0  0  0  0  0  0  0
  6  1  1  0
  6  4  1  0
  8  7  2  0
  9  7  1  0
 11  5  2  0
 11  8  1  0
 12  2  1  0
 12  8  1  0
 12 10  1  0
 13  3  1  0
 13  9  1  0
 13 10  1  0
 14  4  1  0
 14  5  1  0
 14  7  1  0
 15  6  1  0
 16  9  2  0
 17 10  2  0
M  END
>  <NAME>  (168) 
PROXYPHYLLINE

>  <SYNONYMS>  (168) 
7-(BETA-HYDROXYPROPYL)THEOPHYLLINE

>  <SPECTRUM TYPE>  (168) 
MS1

>  <INSTRUMENT TYPE>  (168) 
EI-B

>  <INSTRUMENT>  (168) 
HITACHI M-2500

>  <ION MODE>  (168) 
P

>  <INCHIKEY>  (168) 
KYHQZNGJUGFTGR-UHFFFAOYSA-N

>  <FORMULA>  (168) 
C10H14N4O3

>  <EXACT MASS>  (168) 
238.10659030799997

>  <MW>  (168) 
238

>  <ID>  (168) 
JP011932

>  <CONTRIBUTOR>  (168) 
University of Tokyo Team, {Faculty of Engineering, University of Tokyo

>  <COMMENT>  (168) 
SMILES=CC(O)Cn(c2)c(C(=O)1)c(n2)N(C)C(=O)N(C)1
cas=603-00-9
InChI=InChI=1S/C10H14N4O3/c1-6(15)4-14-5-11-8-7(14)9(16)13(3)10(17)12(8)2/h5-6,15H,4H2,1-3H3
computed SMILES=O=C1C2=C(N=CN2CC(O)C)N(C(=O)N1C)C
accession=JP011932
date=2016.01.19 (Created 2008.10.21, modified 2011.05.06)
author=YAMAMOTO M, DEP. CHEMISTRY, FAC. SCIENCE, NARA WOMEN'S UNIV.
license=CC BY-NC-SA
exact mass=238.10659
ionization energy=70 eV
ion type=[M]+*
computed spectral entropy=2.791342995382944
computed normalized entropy=0.7619205748405642
SPLASH=splash10-0002-9000000000-a3183abe7d00c2b94165
submitter=submitter = University of Tokyo Team (Faculty of Engineering, University of Tokyo)
MoNA Rating=3.75

>  <NUM PEAKS>  (168) 
39

>  <MASS SPECTRAL PEAKS>  (168) 
15 12.73
19 1.48
26 1.13
27 9.23
28 9.8
29 18.83
31 4.09
39 6.81
40 4.89
41 7.71
42 8.14
43 32.1
44 4.18
45 99.99
46 2.31
52 2.04
53 2.25
54 3.83
55 1.99
56 9.13
57 3.62
58 9.38
66 4.74
67 6.41
68 2.37
69 1.16
70 1.06
80 1.97
81 9.53
82 2.39
94 1.89
95 1.64
108 1.43
109 6.39
180 1.62
193 3.63
194 1.6
238 0.78
239 0.53

$$$$

     RDKit          2D

 16 17  0  0  0  0  0  0  0  0999 V2000
   -0.5000   -3.1900    0.0000 C   0  0  0  0  0  0  0  0  0  0  0  0
   -3.0989    1.3102    0.0000 C   0  0  0  0  0  0  0  0  0  0  0  0
    2.6838    2.4465    0.0000 C   0  0  0  0  0  0  0  0  0  0  0  0
    4.1511    2.7581    0.0000 C   0  0  0  0  0  0  0  0  0  0  0  0
    3.1000   -0.1900    0.0000 C   0  0  0  0  0  0  0  0  0  0  0  0
    0.8000    0.5600    0.0000 C   0  0  0  0  0  0  0  0  0  0  0  0
    0.8000   -0.9400    0.0000 C   0  0  0  0  0  0  0  0  0  0  0  0
   -0.5000    1.3100    0.0000 C   0  0  0  0  0  0  0  0  0  0  0  0
   -1.8000   -0.9400    0.0000 C   0  0  0  0  0  0  0  0  0  0  0  0
    2.2200   -1.4000    0.0000 N   0  0  0  0  0  0  0  0  0  0  0  0
   -0.5000   -1.6900    0.0000 N   0  0  0  0  0  0  0  0  0  0  0  0
   -1.8000    0.5600    0.0000 N   0  0  0  0  0  0  0  0  0  0  0  0
    2.2200    1.0200    0.0000 N   0  0  0  0  0  0  0  0  0  0  0  0
    4.6149    4.1846    0.0000 O   0  0  0  0  0  0  0  0  0  0  0  0
   -0.5000    2.8100    0.0000 O   0  0  0  0  0  0  0  0  0  0  0  0
   -3.0989   -1.6902    0.0000 O   0  0  0  0  0  0  0  0  0  0  0  0
  4  3  1  0
  7  6  2  0
  8  6  1  0
 10  5  2  0
 10  7  1  0
 11  1  1  0
 11  7  1  0
 11  9  1  0
 12  2  1  0
 12  8  1  0
 12  9  1  0
 13  3  1  0
 13  5  1  0
 13  6  1  0
 14  4  1  0
 15  8  2  0
 16  9  2  0
M  END
>  <NAME>  (169) 
BETA-HYDROXYETHYLTHEOPHYLLINE

>  <SYNONYMS>  (169) 
1,3-DIMETHYL-7-(2-HYDROXYETHYL)XANTHINE

>  <SPECTRUM TYPE>  (169) 
MS1

>  <INSTRUMENT TYPE>  (169) 
EI-B

>  <INSTRUMENT>  (169) 
HITACHI M-2500

>  <ION MODE>  (169) 
P

>  <INCHIKEY>  (169) 
NWPRCRWQMGIBOT-UHFFFAOYSA-N

>  <FORMULA>  (169) 
C9H12N4O3

>  <EXACT MASS>  (169) 
224.09094024399997

>  <MW>  (169) 
224

>  <ID>  (169) 
JP011931

>  <CONTRIBUTOR>  (169) 
University of Tokyo Team, {Faculty of Engineering, University of Tokyo

>  <COMMENT>  (169) 
SMILES=OCCn(c([H])2)c(C(=O)1)c(n2)N(C)C(=O)N(C)1
cas=519-37-9
InChI=InChI=1S/C9H12N4O3/c1-11-7-6(8(15)12(2)9(11)16)13(3-4-14)5-10-7/h5,14H,3-4H2,1-2H3
computed SMILES=O=C1C2=C(N=CN2CCO)N(C(=O)N1C)C
accession=JP011931
date=2016.01.19 (Created 2008.10.21, modified 2011.05.06)
author=YAMAMOTO M, DEP. CHEMISTRY, FAC. SCIENCE, NARA WOMEN'S UNIV.
license=CC BY-NC-SA
exact mass=224.09094
ionization energy=70 eV
ion type=[M]+*
computed spectral entropy=3.3757406124058202
computed normalized entropy=0.8278870908840326
SPLASH=splash10-0059-9000000000-52db58ceb5fd1e7148af
submitter=submitter = University of Tokyo Team (Faculty of Engineering, University of Tokyo)
MoNA Rating=3.75

>  <NUM PEAKS>  (169) 
59

>  <MASS SPECTRAL PEAKS>  (169) 
14 3.05
15 30.67
19 1.19
26 3.91
27 21.2
28 43.97
29 62
30 8.79
31 99.99
32 3.15
38 1.23
39 2.73
40 12.11
41 11.84
42 13.97
43 33.39
44 18.69
45 17.89
51 2.47
52 6.88
53 9.68
54 9.75
55 4.28
56 42.17
57 10.78
58 20.37
65 2.06
66 14.27
67 21.09
68 8.05
69 2.35
70 4.69
77 1.89
78 1.3
79 3.81
80 6.98
81 21.38
82 3.72
83 2.28
93 1.7
94 6.69
95 6.7
96 2.06
97 1.2
108 2.03
109 8.52
110 1.36
122 5.58
123 2.08
136 1.77
137 1.35
151 1.31
152 1.09
180 4.51
193 6.08
194 2.04
206 1.04
224 3.18
225 2

$$$$

     RDKit          2D

  7  7  0  0  0  0  0  0  0  0999 V2000
    0.4012   -1.4375    0.0000 C   0  0  0  0  0  0  0  0  0  0  0  0
   -0.5986   -0.3291    0.0000 C   0  0  0  0  0  0  0  0  0  0  0  0
    1.6112    0.6583    0.0000 C   0  0  0  0  0  0  0  0  0  0  0  0
    0.1514    0.9699    0.0000 N   0  0  0  0  0  0  0  0  0  0  0  0
   -2.0903   -0.4866    0.0000 O   0  0  0  0  0  0  0  0  0  0  0  0
    2.7234    1.6647    0.0000 O   0  0  0  0  0  0  0  0  0  0  0  0
    1.7769   -0.8346    0.0000 S   0  0  0  0  0  0  0  0  0  0  0  0
  2  1  1  0
  4  2  2  0
  4  3  1  0
  5  2  1  0
  6  3  2  0
  7  1  1  0
  7  3  1  0
M  END
>  <NAME>  (170) 
2,4-THIAZOLIDINEDIONE

>  <SYNONYMS>  (170) 


>  <SPECTRUM TYPE>  (170) 
MS1

>  <INSTRUMENT TYPE>  (170) 
EI-B

>  <INSTRUMENT>  (170) 
HITACHI M-2500

>  <ION MODE>  (170) 
P

>  <INCHIKEY>  (170) 
ZOBPZXTWZATXDG-UHFFFAOYSA-N

>  <FORMULA>  (170) 
C3H3NO2S

>  <EXACT MASS>  (170) 
116.988449336

>  <MW>  (170) 
117

>  <ID>  (170) 
JP011928

>  <CONTRIBUTOR>  (170) 
University of Tokyo Team, {Faculty of Engineering, University of Tokyo

>  <COMMENT>  (170) 
SMILES=O=C(C1)NC(=O)S1
cas=2295-31-0
InChI=InChI=1S/C3H3NO2S/c5-2-1-7-3(6)4-2/h1H2,(H,4,5,6)
computed SMILES=O=C1N=C(O)CS1
accession=JP011928
date=2016.01.19 (Created 2008.10.21, modified 2011.05.06)
author=YAMAMOTO M, DEP. CHEMISTRY, FAC. SCIENCE, NARA WOMEN'S UNIV.
license=CC BY-NC-SA
exact mass=116.98845
ionization energy=70 eV
ion type=[M]+*
computed spectral entropy=2.359563579143134
computed normalized entropy=0.7007295165844136
SPLASH=splash10-0002-9200000000-f5f3bbe3b05d2cd8d44b
submitter=submitter = University of Tokyo Team (Faculty of Engineering, University of Tokyo)
MoNA Rating=3.75

>  <NUM PEAKS>  (170) 
29

>  <MASS SPECTRAL PEAKS>  (170) 
12 1.11
13 2.24
14 6.82
15 1.11
17 1.2
18 5.52
27 2.55
28 7.65
29 4.45
30 1.13
32 6.02
33 1.36
40 1.14
42 11.39
43 9.22
44 4.5
45 24.48
46 99.99
47 3.96
48 4.69
60 1.89
70 1.96
74 42.21
75 1.24
76 1.85
89 2.07
117 53.61
118 2.59
119 2.53

$$$$

     RDKit          2D

 10 10  0  0  0  0  0  0  0  0999 V2000
   -1.3000   -0.7500    0.0000 C   0  0  0  0  0  0  0  0  0  0  0  0
   -1.3000    0.7500    0.0000 C   0  0  0  0  0  0  0  0  0  0  0  0
   -0.0000   -1.5000    0.0000 C   0  0  0  0  0  0  0  0  0  0  0  0
    1.3000    0.7500    0.0000 C   0  0  0  0  0  0  0  0  0  0  0  0
   -2.5989   -1.5002    0.0000 N   0  0  0  0  0  0  0  0  0  0  0  0
    0.0000    1.5000    0.0000 N   0  0  0  0  0  0  0  0  0  0  0  0
    1.3000   -0.7500    0.0000 N   0  0  0  0  0  0  0  0  0  0  0  0
   -2.5989    1.5002    0.0000 O   0  0  0  0  0  0  0  0  0  0  0  0
   -0.0000   -3.0000    0.0000 O   0  0  0  0  0  0  0  0  0  0  0  0
    2.5989    1.5002    0.0000 O   0  0  0  0  0  0  0  0  0  0  0  0
  2  1  1  0
  3  1  1  0
  5  1  1  0
  6  2  2  0
  6  4  1  0
  7  3  2  0
  7  4  1  0
  8  2  1  0
  9  3  1  0
 10  4  2  0
M  END
>  <NAME>  (171) 
URAMIL

>  <SYNONYMS>  (171) 
5-AMINOBARBITURIC ACID

>  <SPECTRUM TYPE>  (171) 
MS1

>  <INSTRUMENT TYPE>  (171) 
EI-B

>  <INSTRUMENT>  (171) 
HITACHI M-2500

>  <ION MODE>  (171) 
P

>  <INCHIKEY>  (171) 
PSQZLWHRJMYZHD-UHFFFAOYSA-N

>  <FORMULA>  (171) 
C4H5N3O3

>  <EXACT MASS>  (171) 
143.03309102

>  <MW>  (171) 
143

>  <ID>  (171) 
JP011927

>  <CONTRIBUTOR>  (171) 
University of Tokyo Team, {Faculty of Engineering, University of Tokyo

>  <COMMENT>  (171) 
SMILES=O=C(N1)NC(=O)C(N)C(=O)1
cas=118-78-5
InChI=InChI=1S/C4H5N3O3/c5-1-2(8)6-4(10)7-3(1)9/h1H,5H2,(H2,6,7,8,9,10)
computed SMILES=O=C1N=C(O)C(N)C(O)=N1
accession=JP011927
date=2016.01.19 (Created 2008.10.21, modified 2011.05.06)
author=YAMAMOTO M, DEP. CHEMISTRY, FAC. SCIENCE, NARA WOMEN'S UNIV.
license=CC BY-NC-SA
exact mass=143.03309
ionization energy=70 eV
ion type=[M]+*
computed spectral entropy=2.613920690227729
computed normalized entropy=0.7134916626800027
SPLASH=splash10-05r0-9000000000-ecc78860e3e51a2e559b
submitter=submitter = University of Tokyo Team (Faculty of Engineering, University of Tokyo)
MoNA Rating=3.75

>  <NUM PEAKS>  (171) 
39

>  <MASS SPECTRAL PEAKS>  (171) 
14 1.48
15 2.38
16 7.21
17 16.63
18 69.75
26 1.17
27 8.95
28 68.59
29 83.7
30 5.49
31 1.53
32 3.32
36 4.79
38 1.82
39 1.18
40 1.04
41 3.63
42 10.36
43 18.59
44 27.3
45 7.35
46 2.19
53 1.32
54 2.06
55 2.57
56 1.46
57 99.99
58 3.92
60 1.09
69 1.21
70 4.31
71 2.24
72 2.17
87 1.42
100 7.5
114 1.37
128 1.93
142 1.18
143 10.34

$$$$

     RDKit          2D

  6  5  0  0  0  0  0  0  0  0999 V2000
   -0.0000   -0.0000    0.0000 C   0  0  0  0  0  0  0  0  0  0  0  0
   -0.0000    1.5000    0.0000 C   0  0  0  0  0  0  0  0  0  0  0  0
   -1.2990    2.2500    0.0000 C   0  0  0  0  0  0  0  0  0  0  0  0
    1.2990    2.2500    0.0000 O   0  0  0  0  0  0  0  0  0  0  0  0
   -2.5981    1.5000    0.0000 O   0  0  0  0  0  0  0  0  0  0  0  0
   -1.2990    3.7500    0.0000 O   0  0  0  0  0  0  0  0  0  0  0  0
  2  1  1  0
  3  2  1  0
  4  2  1  0
  5  3  2  0
  6  3  1  0
M  END
>  <NAME>  (172) 
LACTIC ACID

>  <SYNONYMS>  (172) 


>  <SPECTRUM TYPE>  (172) 
MS1

>  <INSTRUMENT TYPE>  (172) 
EI-B

>  <INSTRUMENT>  (172) 
HITACHI M-2500

>  <ION MODE>  (172) 
P

>  <INCHIKEY>  (172) 
JVTAAEKCZFNVCJ-UHFFFAOYSA-N

>  <FORMULA>  (172) 
C3H6O3

>  <EXACT MASS>  (172) 
90.03169405199999

>  <MW>  (172) 
90

>  <ID>  (172) 
JP011926

>  <CONTRIBUTOR>  (172) 
University of Tokyo Team, {Faculty of Engineering, University of Tokyo

>  <COMMENT>  (172) 
SMILES=CC(O)C(O)=O
cas=50-21-5
InChI=InChI=1S/C3H6O3/c1-2(4)3(5)6/h2,4H,1H3,(H,5,6)
computed SMILES=O=C(O)C(O)C
accession=JP011926
date=2016.01.19 (Created 2008.10.21, modified 2011.05.06)
author=YAMAMOTO M, DEP. CHEMISTRY, FAC. SCIENCE, NARA WOMEN'S UNIV.
license=CC BY-NC-SA
exact mass=90.03169
ionization energy=70 eV
ion type=[M]+*
computed spectral entropy=2.145577512516181
computed normalized entropy=0.7286880549053137
SPLASH=splash10-00kb-9000000000-e9462d6d6eeac598b73b
submitter=submitter = University of Tokyo Team (Faculty of Engineering, University of Tokyo)
MoNA Rating=3.75

>  <NUM PEAKS>  (172) 
19

>  <MASS SPECTRAL PEAKS>  (172) 
14 2.88
15 9.09
17 10.38
18 45.11
19 15.99
26 4.16
27 16.85
28 5.75
29 20.61
30 1.58
42 2.46
43 12.95
44 3.17
45 99.99
46 2.77
55 1.77
56 2.27
74 4.18
89 1.11

$$$$

     RDKit          2D

 15 14  0  0  0  0  0  0  0  0999 V2000
   -3.5724    7.6875    0.0000 C   0  0  0  0  0  0  0  0  0  0  0  0
   -4.8714    8.4375    0.0000 C   0  0  0  0  0  0  0  0  0  0  0  0
   -2.2733    8.4375    0.0000 C   0  0  0  0  0  0  0  0  0  0  0  0
   -6.1704    7.6875    0.0000 C   0  0  0  0  0  0  0  0  0  0  0  0
   -0.9743    7.6875    0.0000 C   0  0  0  0  0  0  0  0  0  0  0  0
   -7.4695    8.4375    0.0000 C   0  0  0  0  0  0  0  0  0  0  0  0
    0.3248    8.4375    0.0000 C   0  0  0  0  0  0  0  0  0  0  0  0
   -8.7685    7.6875    0.0000 C   0  0  0  0  0  0  0  0  0  0  0  0
    1.6238    7.6875    0.0000 C   0  0  0  0  0  0  0  0  0  0  0  0
  -10.0675    8.4375    0.0000 C   0  0  0  0  0  0  0  0  0  0  0  0
    2.9228    8.4375    0.0000 C   0  0  0  0  0  0  0  0  0  0  0  0
  -11.3666    7.6875    0.0000 C   0  0  0  0  0  0  0  0  0  0  0  0
    4.2219    7.6875    0.0000 O   0  0  0  0  0  0  0  0  0  0  0  0
  -11.3666    6.1875    0.0000 O   0  0  0  0  0  0  0  0  0  0  0  0
  -12.6656    8.4375    0.0000 O   0  0  0  0  0  0  0  0  0  0  0  0
  2  1  1  0
  3  1  1  0
  4  2  1  0
  5  3  1  0
  6  4  1  0
  7  5  1  0
  8  6  1  0
  9  7  1  0
 10  8  1  0
 11  9  1  0
 12 10  1  0
 13 11  1  0
 14 12  2  0
 15 12  1  0
M  END
>  <NAME>  (173) 
12-HYDROXYDODECANOIC ACID

>  <SYNONYMS>  (173) 


>  <SPECTRUM TYPE>  (173) 
MS1

>  <INSTRUMENT TYPE>  (173) 
EI-B

>  <INSTRUMENT>  (173) 
HITACHI M-2500

>  <ION MODE>  (173) 
P

>  <INCHIKEY>  (173) 
ZDHCZVWCTKTBRY-UHFFFAOYSA-N

>  <FORMULA>  (173) 
C12H24O3

>  <EXACT MASS>  (173) 
216.17254462799997

>  <MW>  (173) 
216

>  <ID>  (173) 
JP011923

>  <CONTRIBUTOR>  (173) 
University of Tokyo Team, {Faculty of Engineering, University of Tokyo

>  <COMMENT>  (173) 
SMILES=OCCCCCCCCCCCC(O)=O
cas=505-95-3
InChI=InChI=1S/C12H24O3/c13-11-9-7-5-3-1-2-4-6-8-10-12(14)15/h13H,1-11H2,(H,14,15)
computed SMILES=O=C(O)CCCCCCCCCCCO
accession=JP011923
date=2016.01.19 (Created 2008.10.21, modified 2011.05.06)
author=YAMAMOTO M, DEP. CHEMISTRY, FAC. SCIENCE, NARA WOMEN'S UNIV.
license=CC BY-NC-SA
exact mass=216.17254
ionization energy=70 eV
ion type=[M]+*
computed spectral entropy=3.8374982266676185
computed normalized entropy=0.8486682119870372
SPLASH=splash10-053v-9100000000-a92cb682b3bdad87a6b8
submitter=submitter = University of Tokyo Team (Faculty of Engineering, University of Tokyo)
MoNA Rating=3.75

>  <NUM PEAKS>  (173) 
92

>  <MASS SPECTRAL PEAKS>  (173) 
15 2.25
17 2.56
18 10.78
19 1.52
26 2.54
27 29.2
28 11.05
29 38.4
30 1.42
31 51.65
39 19.1
40 4.23
41 83.39
42 22.59
43 38.72
44 3.58
45 13.46
53 6.6
54 12.01
55 99.99
56 24.33
57 16.96
58 1.93
59 4.59
60 37.91
61 4.62
66 1.44
67 16.02
68 25.39
69 57.25
70 14.54
71 9.67
72 1.07
73 40.35
74 3.86
79 2.8
80 3.39
81 13.78
82 19.57
83 39.85
84 52.98
85 7.94
86 1.44
87 10.21
88 1.42
93 1.82
94 4.76
95 10.73
96 17.96
97 24.19
98 73.37
99 7.38
100 4.75
101 7.15
102 1.4
107 1.28
108 3.16
109 6.21
110 12.35
111 9.88
112 23.49
113 3.94
114 5.74
115 4.27
116 1.76
119 1.15
121 1.67
123 5.48
124 5.04
125 3.66
126 7.44
127 2.49
129 12.27
130 2.17
133 1.54
134 1.42
136 3.97
137 4.91
138 6.66
139 2.64
140 1.31
143 5.07
151 3.38
152 6.31
153 1.14
155 1.91
157 1.27
162 4.22
170 1.04
180 4.22
187 2.31
198 2.79

$$$$

     RDKit          2D

 21 24  0  0  0  0  0  0  0  0999 V2000
    6.9568    4.4506    0.0000 C   0  0  0  0  0  0  0  0  0  0  0  0
    5.6571    5.2012    0.0000 C   0  0  0  0  0  0  0  0  0  0  0  0
    6.9575    2.9498    0.0000 C   0  0  0  0  0  0  0  0  0  0  0  0
   -3.4300   -1.5500    0.0000 C   0  0  0  0  0  0  0  0  0  0  0  0
   -3.4300   -0.0500    0.0000 C   0  0  0  0  0  0  0  0  0  0  0  0
   -2.1300   -2.3000    0.0000 C   0  0  0  0  0  0  0  0  0  0  0  0
    4.3582    4.4510    0.0000 C   0  0  0  0  0  0  0  0  0  0  0  0
    5.6586    2.1996    0.0000 C   0  0  0  0  0  0  0  0  0  0  0  0
   -2.1300    0.7000    0.0000 C   0  0  0  0  0  0  0  0  0  0  0  0
    0.4600   -2.3000    0.0000 C   0  0  0  0  0  0  0  0  0  0  0  0
    1.7600   -1.5500    0.0000 C   0  0  0  0  0  0  0  0  0  0  0  0
    1.7600    2.9500    0.0000 C   0  0  0  0  0  0  0  0  0  0  0  0
   -0.8300   -1.5500    0.0000 C   0  0  0  0  0  0  0  0  0  0  0  0
    4.3589    2.9502    0.0000 C   0  0  0  0  0  0  0  0  0  0  0  0
   -0.8300   -0.0500    0.0000 C   0  0  0  0  0  0  0  0  0  0  0  0
    0.4600    2.2000    0.0000 C   0  0  0  0  0  0  0  0  0  0  0  0
    1.7600   -0.0500    0.0000 C   0  0  0  0  0  0  0  0  0  0  0  0
    3.0600    2.2000    0.0000 C   0  0  0  0  0  0  0  0  0  0  0  0
    0.4600    0.7000    0.0000 C   0  0  0  0  0  0  0  0  0  0  0  0
   -0.8389    2.9502    0.0000 O   0  0  0  0  0  0  0  0  0  0  0  0
    3.0600    0.7000    0.0000 O   0  0  0  0  0  0  0  0  0  0  0  0
  2  1  2  0
  3  1  1  0
  5  4  2  0
  6  4  1  0
  7  2  1  0
  8  3  2  0
  9  5  1  0
 11 10  2  0
 13  6  2  0
 13 10  1  0
 14  7  2  0
 14  8  1  0
 15  9  2  0
 15 13  1  0
 16 12  1  0
 17 11  1  0
 18 12  2  0
 18 14  1  0
 19 15  1  0
 19 16  1  0
 19 17  2  0
 20 16  2  0
 21 17  1  0
 21 18  1  0
M  END
>  <NAME>  (174) 
BETA-NAPHTHOFLAVONE

>  <SYNONYMS>  (174) 
3,5-BENZOFLAVONE

>  <SPECTRUM TYPE>  (174) 
MS1

>  <INSTRUMENT TYPE>  (174) 
EI-B

>  <INSTRUMENT>  (174) 
HITACHI M-2500

>  <ION MODE>  (174) 
P

>  <INCHIKEY>  (174) 
OUGIDAPQYNCXRA-UHFFFAOYSA-N

>  <FORMULA>  (174) 
C19H12O2

>  <EXACT MASS>  (174) 
272.083729624

>  <MW>  (174) 
272

>  <ID>  (174) 
JP011922

>  <CONTRIBUTOR>  (174) 
University of Tokyo Team, {Faculty of Engineering, University of Tokyo

>  <COMMENT>  (174) 
SMILES=c(c4)ccc(c4)C(=C3)Oc(c1)c(C(=O)3)c(c2)c(ccc2)c1
cas=6051-87-2
InChI=InChI=1S/C19H12O2/c20-16-12-18(14-7-2-1-3-8-14)21-17-11-10-13-6-4-5-9-15(13)19(16)17/h1-12H
computed SMILES=O=C1C=C(OC=2C=CC=3C=CC=CC3C12)C=4C=CC=CC4
accession=JP011922
date=2016.01.19 (Created 2008.10.21, modified 2011.05.06)
author=YAMAMOTO M, DEP. CHEMISTRY, FAC. SCIENCE, NARA WOMEN'S UNIV.
license=CC BY-NC-SA
exact mass=272.08373
ionization energy=70 eV
ion type=[M]+*
computed spectral entropy=3.109235345323918
computed normalized entropy=0.7947896372310909
SPLASH=splash10-00di-3790000000-c4fd2800aec22c1db180
submitter=submitter = University of Tokyo Team (Faculty of Engineering, University of Tokyo)
MoNA Rating=3.75

>  <NUM PEAKS>  (174) 
50

>  <MASS SPECTRAL PEAKS>  (174) 
17 1.09
18 4.84
27 1.98
28 1.97
31 1.21
39 4.06
50 4.02
51 5.37
52 2.2
62 3.26
63 6.68
64 1.51
74 3.54
75 3.94
76 4.49
77 3.37
86 1.52
87 2.94
88 4.91
89 2.27
94 1.11
95 3.21
102 7.71
106 3.21
107 6.17
108 1.95
113 6.67
114 31.55
115 8.61
116 1.87
122 12.7
126 2.17
136 3.01
139 1.3
142 15.35
143 1.81
144 13.8
145 1.46
170 31.47
171 3.86
189 1.66
213 2.86
215 8.15
243 2.41
244 42.62
245 8.22
271 6.41
272 99.99
273 21.74
274 2.69

$$$$

     RDKit          2D

  8  8  0  0  0  0  0  0  0  0999 V2000
    0.7500    1.8100    0.0000 S   0  0  0  0  0  0  0  0  0  0  0  0
   -0.7500    1.8100    0.0000 S   0  0  0  0  0  0  0  0  0  0  0  0
    1.8100    0.7500    0.0000 S   0  0  0  0  0  0  0  0  0  0  0  0
   -1.8100    0.7500    0.0000 S   0  0  0  0  0  0  0  0  0  0  0  0
    1.8100   -0.7500    0.0000 S   0  0  0  0  0  0  0  0  0  0  0  0
   -1.8100   -0.7500    0.0000 S   0  0  0  0  0  0  0  0  0  0  0  0
    0.7500   -1.8100    0.0000 S   0  0  0  0  0  0  0  0  0  0  0  0
   -0.7500   -1.8100    0.0000 S   0  0  0  0  0  0  0  0  0  0  0  0
  2  1  1  0
  3  1  1  0
  4  2  1  0
  5  3  1  0
  6  4  1  0
  7  5  1  0
  8  6  1  0
  8  7  1  0
M  END
>  <NAME>  (175) 
SULFUR

>  <SYNONYMS>  (175) 


>  <SPECTRUM TYPE>  (175) 
MS1

>  <INSTRUMENT TYPE>  (175) 
EI-B

>  <INSTRUMENT>  (175) 
HITACHI M-80

>  <ION MODE>  (175) 
P

>  <INCHIKEY>  (175) 
JLQNHALFVCURHW-UHFFFAOYSA-N

>  <FORMULA>  (175) 
S8

>  <EXACT MASS>  (175) 
255.776568

>  <MW>  (175) 
255

>  <ID>  (175) 
JP011921

>  <CONTRIBUTOR>  (175) 
University of Tokyo Team, {Faculty of Engineering, University of Tokyo

>  <COMMENT>  (175) 
SMILES=S(S1)SSSSSS1
InChI=InChI=1S/S8/c1-2-4-6-8-7-5-3-1
computed SMILES=S1SSSSSSS1
accession=JP011921
date=2016.01.19 (Created 2008.10.21, modified 2011.05.06)
author=YAMAMOTO M, DEP. CHEMISTRY, FAC. SCIENCE, NARA WOMEN'S UNIV.
license=CC BY-NC-SA
exact mass=255.77657
ionization energy=70 eV
ion type=[M]+*
computed spectral entropy=2.4178929959010675
computed normalized entropy=0.7608093270202245
SPLASH=splash10-08fr-8970000000-05d363b8af247651039a
submitter=submitter = University of Tokyo Team (Faculty of Engineering, University of Tokyo)
MoNA Rating=3.75

>  <NUM PEAKS>  (175) 
24

>  <MASS SPECTRAL PEAKS>  (175) 
32 11.3
64 99.99
65 1.53
66 8.72
86 1.59
96 24.23
98 3.25
128 46.19
129 1.43
130 8.1
160 61.86
161 2.53
162 13.69
164 1.24
192 25.47
193 1.2
194 6.65
224 7.42
226 2.29
256 87.41
257 5.58
258 31.03
259 1.72
260 4.94

$$$$

     RDKit          2D

 13 13  0  0  0  0  0  0  0  0999 V2000
    2.3381   -1.6500    0.0000 C   0  0  0  0  0  0  0  0  0  0  0  0
   -2.8589   -0.1506    0.0000 C   0  0  0  0  0  0  0  0  0  0  0  0
    3.6381    0.6000    0.0000 C   0  0  0  0  0  0  0  0  0  0  0  0
    2.3381    2.8500    0.0000 C   0  0  0  0  0  0  0  0  0  0  0  0
    2.3381   -0.1500    0.0000 C   0  0  0  0  0  0  0  0  0  0  0  0
    3.6381    2.1000    0.0000 C   0  0  0  0  0  0  0  0  0  0  0  0
    1.0381    2.1000    0.0000 C   0  0  0  0  0  0  0  0  0  0  0  0
    1.0381    0.6000    0.0000 C   0  0  0  0  0  0  0  0  0  0  0  0
   -0.2608   -0.1502    0.0000 C   0  0  0  0  0  0  0  0  0  0  0  0
    4.9370    2.8502    0.0000 O   0  0  0  0  0  0  0  0  0  0  0  0
   -0.2608    2.8502    0.0000 O   0  0  0  0  0  0  0  0  0  0  0  0
   -0.2606   -1.6502    0.0000 O   0  0  0  0  0  0  0  0  0  0  0  0
   -1.5600    0.5996    0.0000 O   0  0  0  0  0  0  0  0  0  0  0  0
  5  1  1  0
  5  3  2  0
  6  3  1  0
  6  4  2  0
  7  4  1  0
  8  5  1  0
  8  7  2  0
  9  8  1  0
 10  6  1  0
 11  7  1  0
 12  9  2  0
 13  2  1  0
 13  9  1  0
M  END
>  <NAME>  (176) 
METHYL 2,4-DIHYDROXY-6-METHYLBENZOATE

>  <SYNONYMS>  (176) 


>  <SPECTRUM TYPE>  (176) 
MS1

>  <INSTRUMENT TYPE>  (176) 
EI-B

>  <INSTRUMENT>  (176) 
HITACHI M-80

>  <ION MODE>  (176) 
P

>  <INCHIKEY>  (176) 
NCCWCZLEACWJIN-UHFFFAOYSA-N

>  <FORMULA>  (176) 
C9H10O4

>  <EXACT MASS>  (176) 
182.0579088

>  <MW>  (176) 
182

>  <ID>  (176) 
JP011920

>  <CONTRIBUTOR>  (176) 
University of Tokyo Team, {Faculty of Engineering, University of Tokyo

>  <COMMENT>  (176) 
SMILES=COC(=O)c(c(C)1)c(O)cc(O)c1
InChI=InChI=1S/C9H10O4/c1-5-3-6(10)4-7(11)8(5)9(12)13-2/h3-4,10-11H,1-2H3
computed SMILES=O=C(OC)C=1C(O)=CC(O)=CC1C
accession=JP011920
date=2016.01.19 (Created 2008.10.21, modified 2011.05.06)
author=YAMAMOTO M, DEP. CHEMISTRY, FAC. SCIENCE, NARA WOMEN'S UNIV.
license=CC BY-NC-SA
exact mass=182.05791
ionization energy=70 eV
ion type=[M]+*
computed spectral entropy=2.657705249060374
computed normalized entropy=0.7254430266972838
SPLASH=splash10-0udi-3900000000-d351d3a1c60f50c4becb
submitter=submitter = University of Tokyo Team (Faculty of Engineering, University of Tokyo)
MoNA Rating=3.75

>  <NUM PEAKS>  (176) 
39

>  <MASS SPECTRAL PEAKS>  (176) 
15 1.02
27 1.79
28 1.06
29 1.53
38 1.19
39 7.51
40 1.77
41 3.75
43 2.14
50 2.25
51 4.49
52 1.76
53 6.4
55 3.59
62 1.15
63 2.11
64 1.05
65 8.17
66 11.55
67 4.69
69 11.92
77 3.02
79 1.25
81 1.11
91 1.08
93 2.74
94 14.24
95 2.98
109 2.52
121 7.6
122 54.35
123 5.11
150 99.99
151 42.32
152 4.05
153 1.05
182 52.98
183 8.65
184 1.74

$$$$

     RDKit          2D

  8  6  0  0  0  0  0  0  0  0999 V2000
    1.9486    2.6250    0.0000 C   0  0  0  0  0  0  0  0  0  0  0  0
    0.6495    3.3750    0.0000 C   0  0  0  0  0  0  0  0  0  0  0  0
   -3.2476    2.6250    0.0000 C   0  0  0  0  0  0  0  0  0  0  0  0
   -1.9486    3.3750    0.0000 C   0  0  0  0  0  0  0  0  0  0  0  0
   -4.5466    3.3750    0.0000 N   0  0  0  0  0  0  0  0  0  0  0  0
   -1.9486    4.8750    0.0000 O   0  0  0  0  0  0  0  0  0  0  0  0
   -0.6495    2.6250    0.0000 O   0  0  0  0  0  0  0  0  0  0  0  0
    0.0000    0.0000    0.0000 Cl  0  0  0  0  0  0  0  0  0  0  0  0
  2  1  1  0
  4  3  1  0
  5  3  1  0
  6  4  2  0
  7  2  1  0
  7  4  1  0
M  END
>  <NAME>  (177) 
GLYCINE ETHYL ESTER HYDROCHLORIDE

>  <SYNONYMS>  (177) 


>  <SPECTRUM TYPE>  (177) 
MS1

>  <INSTRUMENT TYPE>  (177) 
EI-B

>  <INSTRUMENT>  (177) 
HITACHI M-2500

>  <ION MODE>  (177) 
P

>  <INCHIKEY>  (177) 
TXTWXQXDMWILOF-UHFFFAOYSA-N

>  <FORMULA>  (177) 
C4H10ClNO2

>  <EXACT MASS>  (177) 
139.04000624

>  <MW>  (177) 
139

>  <ID>  (177) 
JP011918

>  <CONTRIBUTOR>  (177) 
University of Tokyo Team, {Faculty of Engineering, University of Tokyo

>  <COMMENT>  (177) 
SMILES=CCOC(=O)CN.Cl
cas=623-33-6
InChI=InChI=1S/C4H9NO2.ClH/c1-2-7-4(6)3-5;/h2-3,5H2,1H3;1H
computed SMILES=Cl.O=C(OCC)CN
accession=JP011918
date=2016.01.19 (Created 2008.10.21, modified 2011.05.06)
author=YAMAMOTO M, DEP. CHEMISTRY, FAC. SCIENCE, NARA WOMEN'S UNIV.
license=CC BY-NC-SA
exact mass=139.04001
ion type=[M]+*
ionization energy=70 eV
computed spectral entropy=1.7356643647173586
computed normalized entropy=0.5894720104570544
SPLASH=splash10-001i-9000000000-8ae5d06a0333d8c50cb3
submitter=submitter = University of Tokyo Team (Faculty of Engineering, University of Tokyo)
MoNA Rating=3.75

>  <NUM PEAKS>  (177) 
19

>  <MASS SPECTRAL PEAKS>  (177) 
14 1.66
25 1.83
27 6.94
28 1.86
29 4.35
30 99.99
31 2.86
35 3.7
36 19.91
37 1.4
38 7.83
40 1.19
42 2.53
43 1.49
45 2.28
46 1.44
60 2.93
74 1.92
104 6.49

$$$$

     RDKit          2D

 11 12  0  0  0  0  0  0  0  0999 V2000
   -2.3100   -0.7500    0.0000 C   0  0  0  0  0  0  0  0  0  0  0  0
   -2.3100    0.7500    0.0000 C   0  0  0  0  0  0  0  0  0  0  0  0
   -1.0100   -1.5000    0.0000 C   0  0  0  0  0  0  0  0  0  0  0  0
   -1.0100    1.5000    0.0000 C   0  0  0  0  0  0  0  0  0  0  0  0
    0.2900   -0.7500    0.0000 C   0  0  0  0  0  0  0  0  0  0  0  0
    0.2900    0.7500    0.0000 C   0  0  0  0  0  0  0  0  0  0  0  0
    1.7200   -1.2100    0.0000 C   0  0  0  0  0  0  0  0  0  0  0  0
    1.7200    1.2100    0.0000 C   0  0  0  0  0  0  0  0  0  0  0  0
    2.6000    0.0000    0.0000 N   0  0  0  0  0  0  0  0  0  0  0  0
    2.1853   -2.6360    0.0000 O   0  0  0  0  0  0  0  0  0  0  0  0
    2.1853    2.6360    0.0000 O   0  0  0  0  0  0  0  0  0  0  0  0
  2  1  2  0
  3  1  1  0
  4  2  1  0
  5  3  2  0
  6  4  2  0
  6  5  1  0
  7  5  1  0
  8  6  1  0
  9  7  2  0
  9  8  1  0
 10  7  1  0
 11  8  2  0
M  END
>  <NAME>  (178) 
PHTHALIMIDE

>  <SYNONYMS>  (178) 


>  <SPECTRUM TYPE>  (178) 
MS1

>  <INSTRUMENT TYPE>  (178) 
EI-B

>  <INSTRUMENT>  (178) 
HITACHI M-80

>  <ION MODE>  (178) 
P

>  <INCHIKEY>  (178) 
XKJCHHZQLQNZHY-UHFFFAOYSA-N

>  <FORMULA>  (178) 
C8H5NO2

>  <EXACT MASS>  (178) 
147.0320284

>  <MW>  (178) 
147

>  <ID>  (178) 
JP011917

>  <CONTRIBUTOR>  (178) 
University of Tokyo Team, {Faculty of Engineering, University of Tokyo

>  <COMMENT>  (178) 
SMILES=C1=CC=C2C(=C1)C(=O)NC2=O
cas=85-41-6
InChI=InChI=1S/C8H5NO2/c10-7-5-3-1-2-4-6(5)8(11)9-7/h1-4H,(H,9,10,11)
computed SMILES=O=C1N=C(O)C=2C=CC=CC12
accession=JP011917
date=2016.01.19 (Created 2008.10.21, modified 2011.05.06)
author=YAMAMOTO M, DEP. CHEMISTRY, FAC. SCIENCE, NARA WOMEN'S UNIV.
license=CC BY-NC-SA
exact mass=147.03203
ionization energy=70 eV
ion type=[M]+*
computed spectral entropy=2.6314952085836394
computed normalized entropy=0.7287607395806549
SPLASH=splash10-0ufs-9800000000-e9a94eb343ce2dbdbd59
submitter=submitter = University of Tokyo Team (Faculty of Engineering, University of Tokyo)
MoNA Rating=3.75

>  <NUM PEAKS>  (178) 
37

>  <MASS SPECTRAL PEAKS>  (178) 
18 3.5
26 1.2
27 1.11
28 10.03
32 2.33
37 7.06
38 7.29
39 2.75
43 5.53
44 1.38
46 1.4
49 3.57
50 41.55
51 3.91
52 2.94
53 1.81
59 1.21
61 2.14
62 2.04
63 3.58
64 2.71
66 3.62
70 1.29
73 5.04
74 21.79
75 16.79
76 84.03
77 7.77
90 3.33
91 1.35
92 1.98
103 38.14
104 73.14
105 5.98
139 1.11
147 99.99
148 9.49

$$$$

     RDKit          2D

 14 14  0  0  0  0  0  0  0  0999 V2000
   -0.2600    2.8500    0.0000 C   0  0  0  0  0  0  0  0  0  0  0  0
    2.3387   -3.1502    0.0000 C   0  0  0  0  0  0  0  0  0  0  0  0
    4.9370    1.3506    0.0000 C   0  0  0  0  0  0  0  0  0  0  0  0
   -1.5600    0.6000    0.0000 C   0  0  0  0  0  0  0  0  0  0  0  0
   -0.2600   -1.6500    0.0000 C   0  0  0  0  0  0  0  0  0  0  0  0
   -0.2600    1.3500    0.0000 C   0  0  0  0  0  0  0  0  0  0  0  0
   -1.5600   -0.9000    0.0000 C   0  0  0  0  0  0  0  0  0  0  0  0
    1.0400   -0.9000    0.0000 C   0  0  0  0  0  0  0  0  0  0  0  0
    1.0400    0.6000    0.0000 C   0  0  0  0  0  0  0  0  0  0  0  0
    2.3389    1.3502    0.0000 C   0  0  0  0  0  0  0  0  0  0  0  0
   -2.8589   -1.6502    0.0000 O   0  0  0  0  0  0  0  0  0  0  0  0
    2.3387    2.8502    0.0000 O   0  0  0  0  0  0  0  0  0  0  0  0
    2.3389   -1.6502    0.0000 O   0  0  0  0  0  0  0  0  0  0  0  0
    3.6381    0.6004    0.0000 O   0  0  0  0  0  0  0  0  0  0  0  0
  6  1  1  0
  6  4  2  0
  7  4  1  0
  7  5  2  0
  8  5  1  0
  9  6  1  0
  9  8  2  0
 10  9  1  0
 11  7  1  0
 12 10  2  0
 13  2  1  0
 13  8  1  0
 14  3  1  0
 14 10  1  0
M  END
>  <NAME>  (179) 
METHYL 4-HYDROXY-2-METHOXY-6-METHYLBENZOATE

>  <SYNONYMS>  (179) 


>  <SPECTRUM TYPE>  (179) 
MS1

>  <INSTRUMENT TYPE>  (179) 
EI-B

>  <INSTRUMENT>  (179) 
HITACHI M-80

>  <ION MODE>  (179) 
P

>  <INCHIKEY>  (179) 
ZGYSDRFXXJOWGZ-UHFFFAOYSA-N

>  <FORMULA>  (179) 
C10H12O4

>  <EXACT MASS>  (179) 
196.073558864

>  <MW>  (179) 
196

>  <ID>  (179) 
JP011916

>  <CONTRIBUTOR>  (179) 
University of Tokyo Team, {Faculty of Engineering, University of Tokyo

>  <COMMENT>  (179) 
SMILES=COC(=O)c(c(C)1)c(OC)cc(O)c1
InChI=InChI=1S/C10H12O4/c1-6-4-7(11)5-8(13-2)9(6)10(12)14-3/h4-5,11H,1-3H3
computed SMILES=O=C(OC)C=1C(OC)=CC(O)=CC1C
accession=JP011916
date=2016.01.19 (Created 2008.10.21, modified 2011.05.06)
author=YAMAMOTO M, DEP. CHEMISTRY, FAC. SCIENCE, NARA WOMEN'S UNIV.
license=CC BY-NC-SA
exact mass=196.07356
ionization energy=70 eV
ion type=[M]+*
computed spectral entropy=3.034988014827535
computed normalized entropy=0.7539684102169109
SPLASH=splash10-014i-3900000000-3f5671ad133f2fd19213
submitter=submitter = University of Tokyo Team (Faculty of Engineering, University of Tokyo)
MoNA Rating=3.75

>  <NUM PEAKS>  (179) 
56

>  <MASS SPECTRAL PEAKS>  (179) 
15 8.81
18 1.36
27 1.59
29 4.23
30 1.06
31 1.58
39 1.3
40 7.13
41 1.46
42 1.15
44 2.03
46 1.14
51 2.36
52 4.54
53 2.21
54 4.9
56 1.51
59 1.2
62 1.48
63 2.95
64 1.29
65 5.82
66 6.21
67 1.94
69 5.4
77 7.56
78 2.43
79 2.79
81 1.2
93 2.35
94 3.92
95 1.04
106 3.14
107 6.26
108 1.06
109 1.6
121 6.96
122 9.98
123 1.06
134 1.28
135 5.5
136 1.56
137 1.76
138 2.13
139 1.3
150 4.67
151 1.39
163 2.13
164 24.5
165 99.99
166 10.18
167 2.11
179 1.26
181 1.18
196 35.38
197 4.05

$$$$

     RDKit          2D

 33 36  0  0  1  0  0  0  0  0999 V2000
    8.4378    0.0777    0.0000 C   0  0  0  0  0  0  0  0  0  0  0  0
    6.4062    1.6971    0.0000 C   0  0  0  0  0  0  0  0  0  0  0  0
    2.4575    1.0074    0.0000 C   0  0  0  0  0  0  0  0  0  0  0  0
    3.8948   -5.5187    0.0000 C   0  0  0  0  0  0  0  0  0  0  0  0
   -4.7868   -7.1141    0.0000 C   0  0  0  0  0  0  0  0  0  0  0  0
   -0.2351   -5.0249    0.0000 C   0  0  0  0  0  0  0  0  0  0  0  0
    6.0195   -0.8720    0.0000 C   0  0  0  0  0  0  0  0  0  0  0  0
    0.0312   -0.0020    0.0000 C   0  0  0  0  0  0  0  0  0  0  0  0
    1.1551   -2.7821    0.0000 C   0  0  0  0  0  0  0  0  0  0  0  0
    0.2950   -3.8478    0.0000 C   0  0  0  0  0  0  0  0  0  0  0  0
   -2.3282   -3.7147    0.0000 C   0  0  0  0  0  0  0  0  0  0  0  0
    6.9545    0.3010    0.0000 C   0  0  0  0  0  0  0  0  0  0  0  0
    1.5461   -0.1839    0.0000 C   0  0  0  0  0  0  0  0  0  0  0  0
    2.4025   -5.3673    0.0000 C   0  0  0  0  0  0  0  0  0  0  0  0
   -4.3196   -5.6887    0.0000 C   0  0  0  0  0  0  0  0  0  0  0  0
    2.1180   -1.5985    0.0000 C   0  0  0  0  0  0  0  0  0  0  0  0
   -0.8194   -1.2446    0.0000 C   0  0  0  0  0  0  0  0  0  0  0  0
    4.5362   -0.6488    0.0000 C   0  0  0  0  0  0  0  0  0  0  0  0
   -3.4601   -2.9185    0.0000 C   0  0  0  0  0  0  0  0  0  0  0  0
   -2.3844   -3.9552    0.0000 C   0  0  0  0  0  0  0  0  0  0  0  0
   -3.3364   -1.6042    0.0000 C   0  0  0  0  0  0  0  0  0  0  0  0
   -1.0700   -3.7788    0.0000 C   0  0  0  0  0  0  0  0  0  0  0  0
   -0.3200   -2.4797    0.0000 C   0  0  0  0  0  0  0  0  0  0  0  0
   -1.8808   -2.2830    0.0000 C   0  0  0  0  0  0  0  0  0  0  0  0
    1.5252   -6.5840    0.0000 O   0  0  0  0  0  0  0  0  0  0  0  0
   -5.3204   -4.5714    0.0000 O   0  0  0  0  0  0  0  0  0  0  0  0
    3.9879    0.7474    0.0000 O   0  0  0  0  0  0  0  0  0  0  0  0
   -4.8666   -3.4399    0.0000 O   0  0  0  0  0  0  0  0  0  0  0  0
    1.7874   -3.9992    0.0000 O   0  0  0  0  0  0  0  0  0  0  0  0
   -3.3444   -2.6114    0.0000 O   0  0  0  0  0  0  0  0  0  0  0  0
   -2.8516   -5.3806    0.0000 O   0  0  0  0  0  0  0  0  0  0  0  0
    3.6012   -1.8217    0.0000 O   0  0  0  0  0  0  0  0  0  0  0  0
   -2.2551   -0.8314    0.0000 O   0  0  0  0  0  0  0  0  0  0  0  0
 12  1  1  0
 12  2  1  0
 12  7  1  0
 13  3  1  0
 13  8  2  0
 14  4  1  0
 15  5  1  0
 16  9  1  0
 16 13  1  0
 17  8  1  6
 18  7  1  0
 20 19  1  0
 21 19  1  0
 22  6  1  6
 22 20  1  0
 23  9  1  0
 23 10  1  1
 23 17  1  0
 23 22  1  0
 24 11  1  6
 24 21  1  0
 24 22  1  0
 25 14  2  0
 26 15  2  0
 27 18  2  0
 19 28  1  1
 29 10  1  0
 29 14  1  0
 30 11  1  0
 24 30  1  0
 31 15  1  0
 20 31  1  6
 16 32  1  1
 32 18  1  0
 17 33  1  0
 21 33  1  1
M  END
>  <NAME>  (180) 
T2 TOXIN

>  <SYNONYMS>  (180) 
MYCOTOXIN T2

>  <SPECTRUM TYPE>  (180) 
MS1

>  <INSTRUMENT TYPE>  (180) 
EI-B

>  <INSTRUMENT>  (180) 
HITACHI M-80

>  <ION MODE>  (180) 
P

>  <INCHIKEY>  (180) 
BXFOFFBJRFZBQZ-QYWOHJEZSA-N

>  <FORMULA>  (180) 
C24H34O9

>  <EXACT MASS>  (180) 
466.220282668

>  <MW>  (180) 
466

>  <ID>  (180) 
JP011915

>  <CONTRIBUTOR>  (180) 
University of Tokyo Team, {Faculty of Engineering, University of Tokyo

>  <COMMENT>  (180) 
SMILES=O(C1)C1(C34[H])C(C(C4O)OC(C)=O)(C(C(O3)([H])2)(COC(C)=O)CC(OC(=O)CC(C)C)C(C)=C2)C
cas=21259-20-1
InChI=InChI=1S/C24H34O9/c1-12(2)7-18(27)32-16-9-23(10-29-14(4)25)17(8-13(16)3)33-21-19(28)20(31-15(5)26)22(23,6)24(21)11-30-24/h8,12,16-17,19-21,28H,7,9-11H2,1-6H3/t16-,17+,19+,20+,21+,22+,23+,24-/m0/s1
computed SMILES=O=C(OCC12CC(OC(=O)CC(C)C)C(=CC2OC3C(O)C(OC(=O)C)C1(C)C43OC4)C)C
accession=JP011915
date=2016.01.19 (Created 2008.10.21, modified 2011.05.06)
author=YAMAMOTO M, DEP. CHEMISTRY, FAC. SCIENCE, NARA WOMEN'S UNIV.
license=CC BY-NC-SA
exact mass=466.22028
ionization energy=70 eV
ion type=[M]+*
computed spectral entropy=4.346606011857411
computed normalized entropy=0.8674760298317395
SPLASH=splash10-0596-7910000000-84a88b77277b1b533aba
submitter=submitter = University of Tokyo Team (Faculty of Engineering, University of Tokyo)
MoNA Rating=3.75

>  <NUM PEAKS>  (180) 
150

>  <MASS SPECTRAL PEAKS>  (180) 
15 3.24
27 3.25
28 1.53
29 8.45
31 1.36
39 3.92
41 16.39
43 99.99
44 2.59
45 1.24
53 2.86
56 5.63
57 38.67
58 1.78
59 1.25
60 2.18
65 1.78
67 3.04
69 4.64
71 2.52
73 1.27
77 5.13
78 1.4
79 5.03
80 1.43
81 2.82
82 4.19
83 4.48
85 25.63
86 1.42
91 9.33
92 2.98
93 7.21
94 2.62
95 8.16
96 4.22
97 2.97
100 1.51
103 1.96
104 3.93
105 22.7
106 4.02
107 6.24
108 4.24
109 4.46
110 1.38
111 3.51
112 1.83
115 2.33
116 1.3
117 2.76
118 4.76
119 4.76
120 8.55
121 37.97
122 19.44
123 5.8
124 15.23
125 17.03
126 2.55
127 1.17
128 2.35
129 3.19
130 1.68
131 3.22
132 1.25
133 2.89
134 2.53
135 3.17
136 1.61
137 2.2
138 8.45
139 2.3
141 3.14
142 7.53
143 4.79
144 2.1
145 6.29
146 2.18
147 4.5
148 1.33
149 1.57
151 1.1
155 1.49
156 1.1
157 6.09
158 2.81
159 6.51
160 3.17
161 4.57
162 1.34
163 1.97
164 2.12
167 2
169 1.59
171 3.65
172 5.68
173 8.21
174 2.19
175 4.68
176 1.88
177 1.47
180 17.8
181 2.96
183 1.68
184 2.21
185 10.33
186 5.82
187 4.3
188 2.42
189 3.47
190 1.12
191 1.36
197 1.65
198 1.49
199 1.87
200 3.38
201 4.57
202 2.71
203 5.25
204 1.59
205 7.34
206 1.2
213 3.18
214 2.15
215 3.7
216 1.45
218 3.73
219 1.65
226 1.4
227 3.15
231 4.15
232 1.38
233 2.1
244 1.68
245 3.23
246 1.64
261 2.1
262 1.19
263 1.04
275 2.05
276 1.42
278 7.51
279 1.36
291 1.54
304 2.81
305 3.01
364 9.08
365 2.06
382 2.23

$$$$

     RDKit          2D

 24 27  0  0  1  0  0  0  0  0999 V2000
    4.1839   -0.2973    0.0000 C   0  0  0  0  0  0  0  0  0  0  0  0
    4.6196    4.4955    0.0000 C   0  0  0  0  0  0  0  0  0  0  0  0
    2.9295    0.5252    0.0000 C   0  0  0  0  0  0  0  0  0  0  0  0
    1.9125    5.7889    0.0000 C   0  0  0  0  0  0  0  0  0  0  0  0
    0.5580    6.4354    0.0000 C   0  0  0  0  0  0  0  0  0  0  0  0
   -3.1548    3.8884    0.0000 C   0  0  0  0  0  0  0  0  0  0  0  0
   -1.2100    0.0000    0.0000 C   0  0  0  0  0  0  0  0  0  0  0  0
   -3.2717    5.3839    0.0000 C   0  0  0  0  0  0  0  0  0  0  0  0
   -1.5400   -1.3700    0.0000 C   0  0  0  0  0  0  0  0  0  0  0  0
    0.1600    2.1800    0.0000 C   0  0  0  0  0  0  0  0  0  0  0  0
    0.7917    3.4445    0.0000 C   0  0  0  0  0  0  0  0  0  0  0  0
    1.3400   -1.5100    0.0000 C   0  0  0  0  0  0  0  0  0  0  0  0
    1.5900   -0.1500    0.0000 C   0  0  0  0  0  0  0  0  0  0  0  0
    0.1600    0.5500    0.0000 C   0  0  0  0  0  0  0  0  0  0  0  0
    2.0294    4.2935    0.0000 C   0  0  0  0  0  0  0  0  0  0  0  0
   -1.8004    3.2420    0.0000 C   0  0  0  0  0  0  0  0  0  0  0  0
   -0.5627    4.0910    0.0000 C   0  0  0  0  0  0  0  0  0  0  0  0
   -0.6796    5.5864    0.0000 C   0  0  0  0  0  0  0  0  0  0  0  0
   -0.3300    1.1000    0.0000 C   0  0  0  0  0  0  0  0  0  0  0  0
   -1.6835    1.7465    0.0000 C   0  0  0  0  0  0  0  0  0  0  0  0
   -2.0341    6.2328    0.0000 N   0  0  0  0  0  0  0  0  0  0  0  0
   -0.1600   -0.8000    0.0000 N   0  0  0  0  0  0  0  0  0  0  0  0
   -2.9202    0.8976    0.0000 O   0  0  0  0  0  0  0  0  0  0  0  0
    3.3828    3.6468    0.0000 O   0  0  0  0  0  0  0  0  0  0  0  0
  3  1  2  0
  5  4  2  0
  8  6  1  0
  9  7  1  0
 13  3  1  6
 13 12  1  0
 14  7  1  6
 14 10  1  0
 14 13  1  0
 15  4  1  0
 15 11  2  0
 16  6  2  0
 17 11  1  0
 17 16  1  0
 18  5  1  0
 18 17  2  0
 19 10  1  6
 20 16  1  0
 20 19  1  0
 21  8  2  0
 21 18  1  0
 22  9  1  6
 22 12  1  0
 19 22  1  0
 20 23  1  6
 24  2  1  0
 24 15  1  0
M  END
>  <NAME>  (181) 
QUINIDINE

>  <SYNONYMS>  (181) 
CONQUININE

>  <SPECTRUM TYPE>  (181) 
MS1

>  <INSTRUMENT TYPE>  (181) 
EI-B

>  <INSTRUMENT>  (181) 
HITACHI M-2500

>  <ION MODE>  (181) 
P

>  <INCHIKEY>  (181) 
LOUPRKONTZGTKE-VPCNSNALSA-N

>  <FORMULA>  (181) 
C20H24N2O2

>  <EXACT MASS>  (181) 
324.183778008

>  <MW>  (181) 
324

>  <ID>  (181) 
JP011914

>  <CONTRIBUTOR>  (181) 
University of Tokyo Team, {Faculty of Engineering, University of Tokyo

>  <COMMENT>  (181) 
SMILES=COc(c4)cc(c3c4)c(ccn3)C(O)C(C1)N(C2)CC(C=C)C([H])(C2)1
cas=56-54-2
InChI=InChI=1S/C20H24N2O2/c1-3-13-12-22-9-7-14(13)10-19(22)20(23)16-6-8-21-18-5-4-15(24-2)11-17(16)18/h3-6,8,11,13-14,19-20,23H,1,7,9-10,12H2,2H3/t13-,14-,19+,20-/m1/s1
computed SMILES=OC(C=1C=CN=C2C=CC(OC)=CC21)C3N4CCC(C3)C(C=C)C4
accession=JP011914
date=2016.01.19 (Created 2008.10.21, modified 2011.05.06)
author=YAMAMOTO M, DEP. CHEMISTRY, FAC. SCIENCE, NARA WOMEN'S UNIV.
license=CC BY-NC-SA
exact mass=324.18378
ionization energy=70 eV
ion type=[M]+*
computed spectral entropy=4.020110667001886
computed normalized entropy=0.8354024638548511
SPLASH=splash10-000i-4902000000-d605b00c00597674d277
submitter=submitter = University of Tokyo Team (Faculty of Engineering, University of Tokyo)
MoNA Rating=3.75

>  <NUM PEAKS>  (181) 
123

>  <MASS SPECTRAL PEAKS>  (181) 
18 1.85
27 2.85
28 2.96
29 2.91
30 1.43
39 4.29
41 12.22
42 12.09
43 1.93
44 2.52
51 1.45
53 6.44
54 3.6
55 11.31
56 4.58
57 1.21
63 1.97
65 2.13
66 1.31
67 4.44
68 3.04
69 2.43
70 2.21
77 4.43
78 1.2
79 8.09
80 4.66
81 18.79
82 9.76
83 1.54
88 1.23
89 3.72
90 2.95
91 2.3
93 1.77
94 3.88
95 6.26
96 1.91
101 1.62
102 1.55
103 1.11
105 1.21
106 1.14
107 1.25
108 5.08
109 2.15
110 2.44
111 1.51
115 2.13
116 5.79
117 9.68
118 1.57
122 2.66
123 1.29
124 2.55
126 1.85
128 2.42
129 2.53
130 2.39
134 1.6
135 1.06
136 99.99
137 14.37
138 7.59
139 2.09
140 1.1
141 1.01
142 1.09
143 1.33
144 1.74
145 5.5
146 1.51
152 1.59
154 2.14
155 1.26
158 5.81
159 5.57
160 8
161 1.01
166 1.98
167 1.32
168 1.06
169 1.3
170 1.61
172 7.96
173 16.59
174 6.78
182 1.53
183 1.46
184 2.33
185 1.39
186 4.63
187 3.77
188 6.73
189 24.43
190 3.15
196 1.04
197 1.05
198 2.34
199 1.92
200 2.45
201 3.38
202 1.74
212 1.13
213 1.25
214 2.66
215 1.5
240 1.07
267 1.03
269 1.41
283 6.85
284 1.36
295 1.68
297 1.29
307 2.01
309 5.8
310 1.27
311 1.08
323 2.81
324 48.34
325 11.48
326 5.26
327 1.01

$$$$

     RDKit          2D

 24 27  0  0  1  0  0  0  0  0999 V2000
    4.1839   -0.2973    0.0000 C   0  0  0  0  0  0  0  0  0  0  0  0
    4.6196    4.4955    0.0000 C   0  0  0  0  0  0  0  0  0  0  0  0
    2.9295    0.5252    0.0000 C   0  0  0  0  0  0  0  0  0  0  0  0
    1.9125    5.7889    0.0000 C   0  0  0  0  0  0  0  0  0  0  0  0
    0.5580    6.4354    0.0000 C   0  0  0  0  0  0  0  0  0  0  0  0
   -3.1548    3.8884    0.0000 C   0  0  0  0  0  0  0  0  0  0  0  0
   -1.2100    0.0000    0.0000 C   0  0  0  0  0  0  0  0  0  0  0  0
   -3.2717    5.3839    0.0000 C   0  0  0  0  0  0  0  0  0  0  0  0
   -1.5400   -1.3700    0.0000 C   0  0  0  0  0  0  0  0  0  0  0  0
    0.1600    2.1800    0.0000 C   0  0  0  0  0  0  0  0  0  0  0  0
    0.7917    3.4445    0.0000 C   0  0  0  0  0  0  0  0  0  0  0  0
    1.3400   -1.5100    0.0000 C   0  0  0  0  0  0  0  0  0  0  0  0
    1.5900   -0.1500    0.0000 C   0  0  0  0  0  0  0  0  0  0  0  0
    0.1600    0.5500    0.0000 C   0  0  0  0  0  0  0  0  0  0  0  0
    2.0294    4.2935    0.0000 C   0  0  0  0  0  0  0  0  0  0  0  0
   -1.8004    3.2420    0.0000 C   0  0  0  0  0  0  0  0  0  0  0  0
   -0.5627    4.0910    0.0000 C   0  0  0  0  0  0  0  0  0  0  0  0
   -0.6796    5.5864    0.0000 C   0  0  0  0  0  0  0  0  0  0  0  0
   -0.3300    1.1000    0.0000 C   0  0  0  0  0  0  0  0  0  0  0  0
   -1.6835    1.7465    0.0000 C   0  0  0  0  0  0  0  0  0  0  0  0
   -2.0341    6.2328    0.0000 N   0  0  0  0  0  0  0  0  0  0  0  0
   -0.1600   -0.8000    0.0000 N   0  0  0  0  0  0  0  0  0  0  0  0
   -2.9202    0.8976    0.0000 O   0  0  0  0  0  0  0  0  0  0  0  0
    3.3828    3.6468    0.0000 O   0  0  0  0  0  0  0  0  0  0  0  0
  3  1  2  0
  5  4  2  0
  8  6  1  0
  9  7  1  0
 13  3  1  6
 13 12  1  0
 14  7  1  6
 14 10  1  0
 14 13  1  0
 15  4  1  0
 15 11  2  0
 16  6  2  0
 17 11  1  0
 17 16  1  0
 18  5  1  0
 18 17  2  0
 19 10  1  1
 20 16  1  0
 20 19  1  0
 21  8  2  0
 21 18  1  0
 22  9  1  0
 22 12  1  0
 19 22  1  0
 20 23  1  1
 24  2  1  0
 24 15  1  0
M  END
>  <NAME>  (182) 
QUININE

>  <SYNONYMS>  (182) 


>  <SPECTRUM TYPE>  (182) 
MS1

>  <INSTRUMENT TYPE>  (182) 
EI-B

>  <INSTRUMENT>  (182) 
HITACHI M-2500

>  <ION MODE>  (182) 
P

>  <INCHIKEY>  (182) 
LOUPRKONTZGTKE-FQZPYLGXSA-N

>  <FORMULA>  (182) 
C20H24N2O2

>  <EXACT MASS>  (182) 
324.183778008

>  <MW>  (182) 
324

>  <ID>  (182) 
JP011912

>  <CONTRIBUTOR>  (182) 
University of Tokyo Team, {Faculty of Engineering, University of Tokyo

>  <COMMENT>  (182) 
SMILES=COc(c4)cc(c3c4)c(ccn3)C(O)C(C1)N(C2)CC(C=C)C([H])(C2)1
cas=130-95-0
InChI=InChI=1S/C20H24N2O2/c1-3-13-12-22-9-7-14(13)10-19(22)20(23)16-6-8-21-18-5-4-15(24-2)11-17(16)18/h3-6,8,11,13-14,19-20,23H,1,7,9-10,12H2,2H3/t13-,14-,19-,20+/m1/s1
computed SMILES=OC(C=1C=CN=C2C=CC(OC)=CC21)C3N4CCC(C3)C(C=C)C4
accession=JP011912
date=2016.01.19 (Created 2008.10.21, modified 2011.05.06)
author=YAMAMOTO M, DEP. CHEMISTRY, FAC. SCIENCE, NARA WOMEN'S UNIV.
license=CC BY-NC-SA
exact mass=324.18378
ionization energy=70 eV
ion type=[M]+*
computed spectral entropy=2.8910444838544587
computed normalized entropy=0.7281692497184452
SPLASH=splash10-000i-4900000000-d7f434d4a2138ce9b55d
submitter=submitter = University of Tokyo Team (Faculty of Engineering, University of Tokyo)
MoNA Rating=3.75

>  <NUM PEAKS>  (182) 
53

>  <MASS SPECTRAL PEAKS>  (182) 
17 1.59
18 5.49
27 1.5
28 2.24
29 1.54
39 2.47
41 6.49
42 6.24
43 1.08
44 1.04
53 3.37
54 1.93
55 5.37
56 2.09
63 1.22
65 1.09
67 2.17
68 1.4
69 1.01
77 2.54
79 4.17
80 1.93
81 7.78
82 3.33
89 2.3
90 1.67
91 1.27
94 1.68
95 2.83
108 1.33
115 1.15
116 3.92
117 5.73
128 1.28
129 1.54
130 1.32
136 99.99
137 10.64
138 2.36
145 3.29
154 1.1
158 3.11
159 2.71
160 3.23
172 2.99
173 2.3
174 2.46
184 1.02
187 2.15
188 2.63
189 6.26
324 1.7
326 1.35

$$$$

     RDKit          2D

 11 11  0  0  0  0  0  0  0  0999 V2000
    2.9583   -2.0456    0.0000 C   0  0  0  0  0  0  0  0  0  0  0  0
   -0.9401    1.7059    0.0000 C   0  0  0  0  0  0  0  0  0  0  0  0
    0.3589    2.4559    0.0000 C   0  0  0  0  0  0  0  0  0  0  0  0
    0.3599   -0.5458    0.0000 C   0  0  0  0  0  0  0  0  0  0  0  0
    2.9581   -0.5456    0.0000 C   0  0  0  0  0  0  0  0  0  0  0  0
   -0.9396    0.2051    0.0000 C   0  0  0  0  0  0  0  0  0  0  0  0
    1.6589    0.2042    0.0000 C   0  0  0  0  0  0  0  0  0  0  0  0
    1.6585    1.7051    0.0000 C   0  0  0  0  0  0  0  0  0  0  0  0
    4.2570    0.2046    0.0000 O   0  0  0  0  0  0  0  0  0  0  0  0
   -2.2386   -0.5449    0.0000 O   0  0  0  0  0  0  0  0  0  0  0  0
    2.9575    2.4551    0.0000 O   0  0  0  0  0  0  0  0  0  0  0  0
  3  2  2  0
  5  1  1  0
  6  2  1  0
  6  4  2  0
  7  4  1  0
  7  5  1  0
  8  3  1  0
  8  7  2  0
  9  5  2  0
 10  6  1  0
 11  8  1  0
M  END
>  <NAME>  (183) 
2',5'-DIHYDROXYACETOPHENONE

>  <SYNONYMS>  (183) 


>  <SPECTRUM TYPE>  (183) 
MS1

>  <INSTRUMENT TYPE>  (183) 
EI-B

>  <INSTRUMENT>  (183) 
HITACHI M-2500

>  <ION MODE>  (183) 
P

>  <INCHIKEY>  (183) 
WLDWSGZHNBANIO-UHFFFAOYSA-N

>  <FORMULA>  (183) 
C8H8O3

>  <EXACT MASS>  (183) 
152.04734411599998

>  <MW>  (183) 
152

>  <ID>  (183) 
JP011911

>  <CONTRIBUTOR>  (183) 
University of Tokyo Team, {Faculty of Engineering, University of Tokyo

>  <COMMENT>  (183) 
SMILES=CC(=O)c(c1)c(O)ccc(O)1
cas=490-78-8
InChI=InChI=1S/C8H8O3/c1-5(9)7-4-6(10)2-3-8(7)11/h2-4,10-11H,1H3
computed SMILES=O=C(C1=CC(O)=CC=C1O)C
accession=JP011911
date=2016.01.19 (Created 2008.10.21, modified 2011.05.06)
author=YAMAMOTO M, DEP. CHEMISTRY, FAC. SCIENCE, NARA WOMEN'S UNIV.
license=CC BY-NC-SA
exact mass=152.04734
ionization energy=70 eV
ion type=[M]+*
computed spectral entropy=2.8081130900135562
computed normalized entropy=0.7334489703289072
SPLASH=splash10-0f79-5900000000-e57c3609fe3f8770c9bb
submitter=submitter = University of Tokyo Team (Faculty of Engineering, University of Tokyo)
MoNA Rating=3.75

>  <NUM PEAKS>  (183) 
46

>  <MASS SPECTRAL PEAKS>  (183) 
15 2.46
18 1.64
26 2.77
27 6.4
28 1.02
29 2.93
37 1.02
38 1.99
39 5.88
41 1.6
42 1.94
43 18.29
50 3.84
51 7.21
52 7.7
53 15.13
54 4.03
55 5.66
61 1.11
62 2.17
63 4.05
65 1.21
66 1.1
67 1.5
69 6.53
77 3.87
78 3.21
79 1.67
80 1.73
81 21.41
82 2.66
95 1.26
105 2.22
106 1.55
108 2.7
109 17.42
110 3.24
123 1.04
133 1.08
134 4.46
136 1.09
137 99.99
138 7.97
151 1.3
152 68.66
153 6.27

$$$$

     RDKit          2D

  9  8  0  0  0  0  0  0  0  0999 V2000
    0.6495    4.1250    0.0000 C   0  0  0  0  0  0  0  0  0  0  0  0
   -3.2476    3.3750    0.0000 C   0  0  0  0  0  0  0  0  0  0  0  0
   -0.6495    3.3750    0.0000 C   0  0  0  0  0  0  0  0  0  0  0  0
   -4.5466    4.1250    0.0000 C   0  0  0  0  0  0  0  0  0  0  0  0
    1.9486    3.3750    0.0000 N   0  0  0  0  0  0  0  0  0  0  0  0
   -1.9486    4.1250    0.0000 N   0  0  0  0  0  0  0  0  0  0  0  0
   -0.6495    1.8750    0.0000 O   0  0  0  0  0  0  0  0  0  0  0  0
   -4.5466    5.6250    0.0000 O   0  0  0  0  0  0  0  0  0  0  0  0
   -5.8457    3.3750    0.0000 O   0  0  0  0  0  0  0  0  0  0  0  0
  3  1  1  0
  4  2  1  0
  5  1  1  0
  6  2  1  0
  6  3  2  3
  7  3  1  0
  8  4  2  0
  9  4  1  0
M  END
>  <NAME>  (184) 
GLYCYLGLYCINE

>  <SYNONYMS>  (184) 


>  <SPECTRUM TYPE>  (184) 
MS1

>  <INSTRUMENT TYPE>  (184) 
EI-B

>  <INSTRUMENT>  (184) 
HITACHI M-2500

>  <ION MODE>  (184) 
P

>  <INCHIKEY>  (184) 
YMAWOPBAYDPSLA-UHFFFAOYSA-N

>  <FORMULA>  (184) 
C4H8N2O3

>  <EXACT MASS>  (184) 
132.053492116

>  <MW>  (184) 
132

>  <ID>  (184) 
JP011910

>  <CONTRIBUTOR>  (184) 
University of Tokyo Team, {Faculty of Engineering, University of Tokyo

>  <COMMENT>  (184) 
SMILES=NCC(=O)NCC(O)=O
cas=556-50-3
InChI=InChI=1S/C4H8N2O3/c5-1-3(7)6-2-4(8)9/h1-2,5H2,(H,6,7)(H,8,9)
computed SMILES=O=C(O)CN=C(O)CN
accession=JP011910
date=2016.01.19 (Created 2008.10.21, modified 2011.05.06)
author=YAMAMOTO M, DEP. CHEMISTRY, FAC. SCIENCE, NARA WOMEN'S UNIV.
license=CC BY-NC-SA
exact mass=132.05349
ionization energy=70 eV
ion type=[M]+*
computed spectral entropy=1.5250691511337993
computed normalized entropy=0.5276377154487083
SPLASH=splash10-001i-9000000000-156d6e678bff48157df2
submitter=submitter = University of Tokyo Team (Faculty of Engineering, University of Tokyo)
MoNA Rating=3.75

>  <NUM PEAKS>  (184) 
18

>  <MASS SPECTRAL PEAKS>  (184) 
18 2.22
27 1.29
28 15.95
29 5.24
30 99.99
31 4.16
42 3.49
43 2.49
44 1.07
45 2.89
56 3.37
59 1.22
71 1.69
74 1.26
89 1.24
104 3.43
114 1.83
132 1.67

$$$$

     RDKit          2D

  5  4  0  0  0  0  0  0  0  0999 V2000
    0.0000    1.5000    0.0000 C   0  0  0  0  0  0  0  0  0  0  0  0
   -1.2990    2.2500    0.0000 C   0  0  0  0  0  0  0  0  0  0  0  0
   -0.0000   -0.0000    0.0000 O   0  0  0  0  0  0  0  0  0  0  0  0
   -2.5981    1.5000    0.0000 O   0  0  0  0  0  0  0  0  0  0  0  0
   -1.2990    3.7500    0.0000 O   0  0  0  0  0  0  0  0  0  0  0  0
  2  1  1  0
  3  1  1  0
  4  2  2  0
  5  2  1  0
M  END
>  <NAME>  (185) 
GLYCOLIC ACID

>  <SYNONYMS>  (185) 
HYDROXYACETIC ACID

>  <SPECTRUM TYPE>  (185) 
MS1

>  <INSTRUMENT TYPE>  (185) 
EI-B

>  <INSTRUMENT>  (185) 
HITACHI M-2500

>  <ION MODE>  (185) 
P

>  <INCHIKEY>  (185) 
AEMRFAOFKBGASW-UHFFFAOYSA-N

>  <FORMULA>  (185) 
C2H4O3

>  <EXACT MASS>  (185) 
76.01604398799999

>  <MW>  (185) 
76

>  <ID>  (185) 
JP011909

>  <CONTRIBUTOR>  (185) 
University of Tokyo Team, {Faculty of Engineering, University of Tokyo

>  <COMMENT>  (185) 
SMILES=OCC(O)=O
cas=79-14-1
InChI=InChI=1S/C2H4O3/c3-1-2(4)5/h3H,1H2,(H,4,5)
computed SMILES=O=C(O)CO
accession=JP011909
date=2016.01.19 (Created 2008.10.21, modified 2011.05.06)
author=YAMAMOTO M, DEP. CHEMISTRY, FAC. SCIENCE, NARA WOMEN'S UNIV.
license=CC BY-NC-SA
exact mass=76.01604
ionization energy=70 eV
ion type=[M]+*
computed spectral entropy=1.7907719336539973
computed normalized entropy=0.6785649987812389
SPLASH=splash10-001i-9000000000-e66ed28d8419895e0fb4
submitter=submitter = University of Tokyo Team (Faculty of Engineering, University of Tokyo)
MoNA Rating=3.75

>  <NUM PEAKS>  (185) 
14

>  <MASS SPECTRAL PEAKS>  (185) 
14 1.34
19 3.4
28 3.12
29 27.06
30 5.3
31 99.99
32 31.97
42 2.45
44 1.65
45 12.5
46 1.25
47 1.72
49 14.08
77 10.01

$$$$

     RDKit          2D

  5  4  0  0  0  0  0  0  0  0999 V2000
    0.0000    1.5000    0.0000 C   0  0  0  0  0  0  0  0  0  0  0  0
   -1.2990    2.2500    0.0000 C   0  0  0  0  0  0  0  0  0  0  0  0
   -0.0000   -0.0000    0.0000 O   0  0  0  0  0  0  0  0  0  0  0  0
   -2.5981    1.5000    0.0000 O   0  0  0  0  0  0  0  0  0  0  0  0
   -1.2990    3.7500    0.0000 O   0  0  0  0  0  0  0  0  0  0  0  0
  2  1  1  0
  3  1  1  0
  4  2  2  0
  5  2  1  0
M  END
>  <NAME>  (186) 
GLYCOLIC ACID

>  <SYNONYMS>  (186) 
HYDROXYACETIC ACID

>  <SPECTRUM TYPE>  (186) 
MS1

>  <INSTRUMENT TYPE>  (186) 
EI-B

>  <INSTRUMENT>  (186) 
HITACHI M-2500

>  <ION MODE>  (186) 
P

>  <INCHIKEY>  (186) 
AEMRFAOFKBGASW-UHFFFAOYSA-N

>  <FORMULA>  (186) 
C2H4O3

>  <EXACT MASS>  (186) 
76.01604398799999

>  <MW>  (186) 
76

>  <ID>  (186) 
JP011908

>  <CONTRIBUTOR>  (186) 
University of Tokyo Team, {Faculty of Engineering, University of Tokyo

>  <COMMENT>  (186) 
SMILES=OCC(O)=O
cas=79-14-1
InChI=InChI=1S/C2H4O3/c3-1-2(4)5/h3H,1H2,(H,4,5)
computed SMILES=O=C(O)CO
accession=JP011908
date=2016.01.19 (Created 2008.10.21, modified 2011.05.06)
author=YAMAMOTO M, DEP. CHEMISTRY, FAC. SCIENCE, NARA WOMEN'S UNIV.
license=CC BY-NC-SA
exact mass=76.01604
ionization energy=70 eV
ion type=[M]+*
computed spectral entropy=1.6456314499518194
computed normalized entropy=0.6076812938260993
SPLASH=splash10-001i-9000000000-cadf899be6b15d008330
submitter=submitter = University of Tokyo Team (Faculty of Engineering, University of Tokyo)
MoNA Rating=3.75

>  <NUM PEAKS>  (186) 
15

>  <MASS SPECTRAL PEAKS>  (186) 
14 1.33
18 1.1
19 3.05
28 3.09
29 26.11
30 5.59
31 99.99
32 33.88
42 2.11
44 1.8
45 14.09
46 1.46
47 1.83
49 2.59
77 1.01

$$$$

     RDKit          2D

 17 18  0  0  0  0  0  0  0  0999 V2000
    2.5641   -0.6088    0.0000 C   0  0  0  0  0  0  0  0  0  0  0  0
    4.4924   -0.6085    0.0000 C   0  0  0  0  0  0  0  0  0  0  0  0
   -1.6700    0.5400    0.0000 C   0  0  0  0  0  0  0  0  0  0  0  0
    7.4270    1.2906    0.0000 C   0  0  0  0  0  0  0  0  0  0  0  0
   -0.3700    1.2900    0.0000 C   0  0  0  0  0  0  0  0  0  0  0  0
    6.1270    0.5406    0.0000 C   0  0  0  0  0  0  0  0  0  0  0  0
   -1.6700   -0.9600    0.0000 C   0  0  0  0  0  0  0  0  0  0  0  0
    7.4270    2.7906    0.0000 C   0  0  0  0  0  0  0  0  0  0  0  0
    0.9300   -0.9600    0.0000 C   0  0  0  0  0  0  0  0  0  0  0  0
    4.8270    2.7906    0.0000 C   0  0  0  0  0  0  0  0  0  0  0  0
    0.9300    0.5400    0.0000 C   0  0  0  0  0  0  0  0  0  0  0  0
    4.8270    1.2906    0.0000 C   0  0  0  0  0  0  0  0  0  0  0  0
    2.2289    1.2902    0.0000 C   0  0  0  0  0  0  0  0  0  0  0  0
    3.5281    0.5404    0.0000 C   0  0  0  0  0  0  0  0  0  0  0  0
   -0.3700   -1.7100    0.0000 N   0  0  0  0  0  0  0  0  0  0  0  0
    6.1270    3.5406    0.0000 N   0  0  0  0  0  0  0  0  0  0  0  0
    2.2287    2.7902    0.0000 O   0  0  0  0  0  0  0  0  0  0  0  0
  5  3  2  0
  6  4  2  0
  7  3  1  0
  8  4  1  0
 11  5  1  0
 11  9  2  0
 12  6  1  0
 12 10  2  0
 13 11  1  0
 14  1  1  0
 14  2  1  0
 14 12  1  0
 14 13  1  0
 15  7  2  0
 15  9  1  0
 16  8  2  0
 16 10  1  0
 17 13  2  0
M  END
>  <NAME>  (187) 
2-METHYL-1,2-DI-3-PYRIDYL-1-PROPANONE

>  <SYNONYMS>  (187) 
METYRAPONE

>  <SPECTRUM TYPE>  (187) 
MS1

>  <INSTRUMENT TYPE>  (187) 
EI-B

>  <INSTRUMENT>  (187) 
HITACHI M-2500

>  <ION MODE>  (187) 
P

>  <INCHIKEY>  (187) 
FJLBFSROUSIWMA-UHFFFAOYSA-N

>  <FORMULA>  (187) 
C14H14N2O

>  <EXACT MASS>  (187) 
226.11061306800002

>  <MW>  (187) 
226

>  <ID>  (187) 
JP011907

>  <CONTRIBUTOR>  (187) 
University of Tokyo Team, {Faculty of Engineering, University of Tokyo

>  <COMMENT>  (187) 
SMILES=c(c2)ncc(c2)C(=O)C(C)(C)c(c1)cncc1
cas=54-36-4
InChI=InChI=1S/C14H14N2O/c1-14(2,12-6-4-8-16-10-12)13(17)11-5-3-7-15-9-11/h3-10H,1-2H3
computed SMILES=O=C(C=1C=NC=CC1)C(C=2C=NC=CC2)(C)C
accession=JP011907
date=2016.01.19 (Created 2008.10.21, modified 2011.05.06)
author=YAMAMOTO M, DEP. CHEMISTRY, FAC. SCIENCE, NARA WOMEN'S UNIV.
license=CC BY-NC-SA
exact mass=226.11061
ionization energy=70 eV
ion type=[M]+*
computed spectral entropy=2.7430874469347484
computed normalized entropy=0.7654731268468068
SPLASH=splash10-05di-8930000000-51278af0b7707c808df8
submitter=submitter = University of Tokyo Team (Faculty of Engineering, University of Tokyo)
MoNA Rating=3.75

>  <NUM PEAKS>  (187) 
36

>  <MASS SPECTRAL PEAKS>  (187) 
18 1.58
26 1
27 3.64
28 2.65
38 1.04
39 9.21
40 1.14
41 9.79
50 7.21
51 28.51
52 7.62
53 4.5
63 2.53
65 8.55
66 1.14
75 1.1
76 1.6
77 8.79
78 41.31
79 9.78
80 9
91 5.59
92 43.56
93 4.8
104 8.96
105 2.73
106 83.63
107 6.13
117 2.25
118 6.57
119 4.62
120 99.99
121 9.47
226 77.04
227 12.96
228 1.13

$$$$

     RDKit          2D

 11 11  0  0  0  0  0  0  0  0999 V2000
   -3.8981    0.0002    0.0000 C   0  0  0  0  0  0  0  0  0  0  0  0
    0.0008   -2.2500    0.0000 C   0  0  0  0  0  0  0  0  0  0  0  0
   -1.2992   -3.0000    0.0000 C   0  0  0  0  0  0  0  0  0  0  0  0
   -1.2992    0.0000    0.0000 C   0  0  0  0  0  0  0  0  0  0  0  0
   -2.5992   -0.7500    0.0000 C   0  0  0  0  0  0  0  0  0  0  0  0
    0.0008   -0.7500    0.0000 C   0  0  0  0  0  0  0  0  0  0  0  0
   -2.5992   -2.2500    0.0000 C   0  0  0  0  0  0  0  0  0  0  0  0
   -3.8981   -3.0002    0.0000 N   0  0  0  0  0  0  0  0  0  0  0  0
    1.2998    0.0002    0.0000 N   0  0  0  0  0  0  0  0  0  0  0  0
    2.5989   -0.7496    0.0000 O   0  0  0  0  0  0  0  0  0  0  0  0
    1.2995    1.5002    0.0000 O   0  0  0  0  0  0  0  0  0  0  0  0
  3  2  2  0
  5  1  1  0
  5  4  1  0
  6  2  1  0
  6  4  2  0
  7  3  1  0
  7  5  2  0
  8  7  1  0
  9  6  1  0
 10  9  1  0
 11  9  2  0
M  CHG  2   9   1  10  -1
M  END
>  <NAME>  (188) 
2-METHYL-4-NITROANILINE

>  <SYNONYMS>  (188) 
4-NITRO-O-TOLUIDINE

>  <SPECTRUM TYPE>  (188) 
MS1

>  <INSTRUMENT TYPE>  (188) 
EI-B

>  <INSTRUMENT>  (188) 
HITACHI M-2500

>  <ION MODE>  (188) 
P

>  <INCHIKEY>  (188) 
XTTIQGSLJBWVIV-UHFFFAOYSA-N

>  <FORMULA>  (188) 
C7H8N2O2

>  <EXACT MASS>  (188) 
152.058577496

>  <MW>  (188) 
152

>  <ID>  (188) 
JP011906

>  <CONTRIBUTOR>  (188) 
University of Tokyo Team, {Faculty of Engineering, University of Tokyo

>  <COMMENT>  (188) 
SMILES=[O-1][N+1](=O)c(c1)cc(C)c(N)c1
cas=99-52-5
InChI=InChI=1S/C7H8N2O2/c1-5-4-6(9(10)11)2-3-7(5)8/h2-4H,8H2,1H3
computed SMILES=O=N(=O)C1=CC=C(N)C(=C1)C
accession=JP011906
date=2016.01.19 (Created 2008.10.21, modified 2011.05.06)
author=YAMAMOTO M, DEP. CHEMISTRY, FAC. SCIENCE, NARA WOMEN'S UNIV.
license=CC BY-NC-SA
exact mass=152.05858
ionization energy=70 eV
ion type=[M]+*
computed spectral entropy=3.086102523565541
computed normalized entropy=0.792971485621718
SPLASH=splash10-0ufr-9600000000-9f216819e597c04067e9
submitter=submitter = University of Tokyo Team (Faculty of Engineering, University of Tokyo)
MoNA Rating=3.75

>  <NUM PEAKS>  (188) 
49

>  <MASS SPECTRAL PEAKS>  (188) 
17 4.79
18 15.69
27 4.2
28 8.98
29 1.14
30 4.58
37 1.35
38 3.81
39 11.67
40 1.78
41 4.69
42 3.88
46 2.09
50 6.83
51 14.07
52 12.18
53 9.79
54 5.54
55 1.22
61 1
62 2.65
63 6.91
64 2.47
65 6.4
66 6.12
67 3.67
74 2.44
75 2.55
76 3.29
77 57.18
78 15.68
79 46.74
80 6.9
89 2.08
91 2.03
92 1.03
93 6.39
94 16.54
95 1.29
104 12.84
105 6.64
106 65.63
107 7.48
121 1.08
122 4.54
135 1.08
136 1.18
152 99.99
153 8.81

$$$$

     RDKit          2D

 25 28  0  0  0  0  0  0  0  0999 V2000
   -2.6000   -0.7500    0.0000 C   0  0  0  0  0  0  0  0  0  0  0  0
    8.6295    4.2328    0.0000 C   0  0  0  0  0  0  0  0  0  0  0  0
   -2.6000    0.7500    0.0000 C   0  0  0  0  0  0  0  0  0  0  0  0
    9.9286    3.4828    0.0000 C   0  0  0  0  0  0  0  0  0  0  0  0
   -1.3000   -1.5000    0.0000 C   0  0  0  0  0  0  0  0  0  0  0  0
    7.3300    3.4819    0.0000 C   0  0  0  0  0  0  0  0  0  0  0  0
   -1.3000    1.5000    0.0000 C   0  0  0  0  0  0  0  0  0  0  0  0
    9.9281    1.9819    0.0000 C   0  0  0  0  0  0  0  0  0  0  0  0
    3.8989   -1.5002    0.0000 C   0  0  0  0  0  0  0  0  0  0  0  0
    0.0000   -0.7500    0.0000 C   0  0  0  0  0  0  0  0  0  0  0  0
    7.3295    1.9811    0.0000 C   0  0  0  0  0  0  0  0  0  0  0  0
    2.6000   -0.7500    0.0000 C   0  0  0  0  0  0  0  0  0  0  0  0
    6.0295   -0.2705    0.0000 C   0  0  0  0  0  0  0  0  0  0  0  0
    0.0000    0.7500    0.0000 C   0  0  0  0  0  0  0  0  0  0  0  0
    8.6286    1.2311    0.0000 C   0  0  0  0  0  0  0  0  0  0  0  0
    1.3000   -1.5000    0.0000 C   0  0  0  0  0  0  0  0  0  0  0  0
    6.0300    1.2303    0.0000 C   0  0  0  0  0  0  0  0  0  0  0  0
    2.6000    0.7500    0.0000 C   0  0  0  0  0  0  0  0  0  0  0  0
    7.3286   -1.0205    0.0000 C   0  0  0  0  0  0  0  0  0  0  0  0
    1.3000   -3.0000    0.0000 O   0  0  0  0  0  0  0  0  0  0  0  0
    4.7310    1.9803    0.0000 O   0  0  0  0  0  0  0  0  0  0  0  0
    3.8989    1.5002    0.0000 O   0  0  0  0  0  0  0  0  0  0  0  0
    7.3288   -2.5205    0.0000 O   0  0  0  0  0  0  0  0  0  0  0  0
    1.3000    1.5000    0.0000 O   0  0  0  0  0  0  0  0  0  0  0  0
    8.6281   -0.2697    0.0000 O   0  0  0  0  0  0  0  0  0  0  0  0
  3  1  2  0
  4  2  2  0
  5  1  1  0
  6  2  1  0
  7  3  1  0
  8  4  1  0
 10  5  2  0
 11  6  2  0
 12  9  1  0
 13  9  1  0
 14  7  2  0
 14 10  1  0
 15  8  2  0
 15 11  1  0
 16 10  1  0
 16 12  2  0
 17 11  1  0
 17 13  2  0
 18 12  1  0
 19 13  1  0
 20 16  1  0
 21 17  1  0
 22 18  2  0
 23 19  2  0
 24 14  1  0
 24 18  1  0
 25 15  1  0
 25 19  1  0
M  END
>  <NAME>  (189) 
DICUMAROL

>  <SYNONYMS>  (189) 
3,3'-METHYLENEBIS(4-HYDROXYCOUMARIN)

>  <SPECTRUM TYPE>  (189) 
MS1

>  <INSTRUMENT TYPE>  (189) 
EI-B

>  <INSTRUMENT>  (189) 
HITACHI M-2500

>  <ION MODE>  (189) 
P

>  <INCHIKEY>  (189) 
DOBMPNYZJYQDGZ-UHFFFAOYSA-N

>  <FORMULA>  (189) 
C19H12O6

>  <EXACT MASS>  (189) 
336.06338810399996

>  <MW>  (189) 
336

>  <ID>  (189) 
JP011905

>  <CONTRIBUTOR>  (189) 
University of Tokyo Team, {Faculty of Engineering, University of Tokyo

>  <COMMENT>  (189) 
SMILES=O=C(O1)C(CC(C(=O)3)=C(O)c(c4)c(ccc4)O3)=C(O)c(c2)c(ccc2)1
cas=66-76-2
InChI=InChI=1S/C19H12O6/c20-16-10-5-1-3-7-14(10)24-18(22)12(16)9-13-17(21)11-6-2-4-8-15(11)25-19(13)23/h1-8,20-21H,9H2
computed SMILES=O=C1OC=2C=CC=CC2C(O)=C1CC=3C(=O)OC=4C=CC=CC4C3O
accession=JP011905
date=2016.01.19 (Created 2008.10.21, modified 2011.05.06)
author=YAMAMOTO M, DEP. CHEMISTRY, FAC. SCIENCE, NARA WOMEN'S UNIV.
license=CC BY-NC-SA
exact mass=336.06339
ionization energy=70 eV
ion type=[M]+*
computed spectral entropy=3.4388347196406275
computed normalized entropy=0.8015073366408945
SPLASH=splash10-0079-6914000000-95659ff5087535a07662
submitter=submitter = University of Tokyo Team (Faculty of Engineering, University of Tokyo)
MoNA Rating=3.75

>  <NUM PEAKS>  (189) 
73

>  <MASS SPECTRAL PEAKS>  (189) 
18 2.46
26 1.35
27 1.52
28 1.41
37 1.34
38 4.05
39 7.9
42 1.36
43 1.32
50 5.01
51 6.3
52 1.28
53 4.93
55 2.21
61 1.44
62 4.02
63 13.7
64 11.9
65 17.02
66 1.88
67 1.67
69 1.6
74 2.35
75 3.06
76 5.87
77 10.82
78 1.75
79 1.01
88 1.05
89 3.15
90 1.48
91 3.19
92 38.36
93 13.69
94 2.17
101 1.34
102 3.56
103 3.25
104 2.71
105 3.35
107 2.48
115 4.61
118 2.36
119 1.41
120 39.43
121 70.73
122 5.48
130 1.15
131 6.97
132 1.51
134 5.3
146 4
147 4.23
159 1.21
160 3.79
162 34.1
163 4.03
174 10.53
175 11.95
176 2.71
186 2.25
187 22.66
188 8.51
189 1.27
215 34.11
216 4.79
262 1.79
289 1.96
290 5.85
291 1.38
336 99.99
337 21.43
338 3.47

$$$$

     RDKit          2D

 12 12  0  0  0  0  0  0  0  0999 V2000
    3.8969   -0.3755    0.0000 C   0  0  0  0  0  0  0  0  0  0  0  0
    5.1960    0.3745    0.0000 C   0  0  0  0  0  0  0  0  0  0  0  0
    2.5974    0.3753    0.0000 C   0  0  0  0  0  0  0  0  0  0  0  0
    5.1955    1.8753    0.0000 C   0  0  0  0  0  0  0  0  0  0  0  0
    1.2978    2.6259    0.0000 C   0  0  0  0  0  0  0  0  0  0  0  0
   -0.0011    1.8757    0.0000 C   0  0  0  0  0  0  0  0  0  0  0  0
    2.5969    1.8761    0.0000 C   0  0  0  0  0  0  0  0  0  0  0  0
    3.8960    2.6261    0.0000 C   0  0  0  0  0  0  0  0  0  0  0  0
   -1.3003    2.6255    0.0000 C   0  0  0  0  0  0  0  0  0  0  0  0
    3.8962    4.1261    0.0000 O   0  0  0  0  0  0  0  0  0  0  0  0
   -1.3005    4.1255    0.0000 O   0  0  0  0  0  0  0  0  0  0  0  0
   -2.5992    1.8753    0.0000 O   0  0  0  0  0  0  0  0  0  0  0  0
  2  1  2  0
  3  1  1  0
  4  2  1  0
  5  6  2  0
  7  3  2  0
  7  5  1  0
  8  4  2  0
  8  7  1  0
  9  6  1  0
 10  8  1  0
 11  9  2  0
 12  9  1  0
M  END
>  <NAME>  (190) 
TRANS-ORTHO-COUMARIC ACID

>  <SYNONYMS>  (190) 


>  <SPECTRUM TYPE>  (190) 
MS1

>  <INSTRUMENT TYPE>  (190) 
EI-B

>  <INSTRUMENT>  (190) 
HITACHI M-2500

>  <ION MODE>  (190) 
P

>  <INCHIKEY>  (190) 
PMOWTIHVNWZYFI-AATRIKPKSA-N

>  <FORMULA>  (190) 
C9H8O3

>  <EXACT MASS>  (190) 
164.04734411599998

>  <MW>  (190) 
164

>  <ID>  (190) 
JP011904

>  <CONTRIBUTOR>  (190) 
University of Tokyo Team, {Faculty of Engineering, University of Tokyo

>  <COMMENT>  (190) 
SMILES=OC(=O)C=Cc(c1)c(O)ccc1
cas=14755-02-3
InChI=InChI=1S/C9H8O3/c10-8-4-2-1-3-7(8)5-6-9(11)12/h1-6,10H,(H,11,12)/b6-5+
computed SMILES=O=C(O)C=CC=1C=CC=CC1O
accession=JP011904
date=2016.01.19 (Created 2008.10.21, modified 2011.05.06)
author=YAMAMOTO M, DEP. CHEMISTRY, FAC. SCIENCE, NARA WOMEN'S UNIV.
license=CC BY-NC-SA
exact mass=164.04734
ionization energy=70 eV
ion type=[M]+*
computed spectral entropy=3.0327026937676207
computed normalized entropy=0.779250443613729
SPLASH=splash10-014i-9800000000-3650ee76a1293cba7523
submitter=submitter = University of Tokyo Team (Faculty of Engineering, University of Tokyo)
MoNA Rating=3.75

>  <NUM PEAKS>  (190) 
49

>  <MASS SPECTRAL PEAKS>  (190) 
17 1.38
18 4.16
26 1.16
27 2.69
28 1.28
29 2.08
37 1.48
38 4.03
39 13.16
40 1.58
41 2.19
43 2
44 1.13
45 5.16
50 5.26
51 8.61
52 2.16
53 3.03
55 1.44
59 1.48
61 2.46
62 6.53
63 16.65
64 6.17
65 14.59
66 1.97
73 1.01
74 2.92
75 4.81
76 1.4
77 1.58
78 1.36
79 2.04
86 1.36
87 1.46
89 21.63
90 31.36
91 30.48
92 4.38
101 2.53
103 3.29
107 2.14
118 99.99
119 13.28
120 2.81
146 34.5
147 7.08
164 28.74
165 3.11

$$$$

     RDKit          2D

 12 12  0  0  0  0  0  0  0  0999 V2000
    3.5596    3.1719    0.0000 C   0  0  0  0  0  0  0  0  0  0  0  0
    2.2461    0.9470    0.0000 C   0  0  0  0  0  0  0  0  0  0  0  0
    0.9653    3.1783    0.0000 C   0  0  0  0  0  0  0  0  0  0  0  0
    4.8441    2.4470    0.0000 C   0  0  0  0  0  0  0  0  0  0  0  0
    3.5706    0.1529    0.0000 C   0  0  0  0  0  0  0  0  0  0  0  0
   -0.3375    2.4347    0.0000 C   0  0  0  0  0  0  0  0  0  0  0  0
    2.2606    2.4219    0.0000 C   0  0  0  0  0  0  0  0  0  0  0  0
    4.8696    0.9029    0.0000 C   0  0  0  0  0  0  0  0  0  0  0  0
   -1.6328    3.1910    0.0000 C   0  0  0  0  0  0  0  0  0  0  0  0
    6.1748    0.1636    0.0000 O   0  0  0  0  0  0  0  0  0  0  0  0
   -1.6254    4.6910    0.0000 O   0  0  0  0  0  0  0  0  0  0  0  0
   -2.9355    2.4474    0.0000 O   0  0  0  0  0  0  0  0  0  0  0  0
  4  1  2  0
  5  2  1  0
  3  6  2  0
  7  1  1  0
  7  2  2  0
  7  3  1  0
  8  4  1  0
  8  5  2  0
  9  6  1  0
 10  8  1  0
 11  9  2  0
 12  9  1  0
M  END
>  <NAME>  (191) 
TRANS-PARA-COUMARIC ACID

>  <SYNONYMS>  (191) 


>  <SPECTRUM TYPE>  (191) 
MS1

>  <INSTRUMENT TYPE>  (191) 
EI-B

>  <INSTRUMENT>  (191) 
HITACHI M-2500

>  <ION MODE>  (191) 
P

>  <INCHIKEY>  (191) 
NGSWKAQJJWESNS-ZZXKWVIFSA-N

>  <FORMULA>  (191) 
C9H8O3

>  <EXACT MASS>  (191) 
164.04734411599998

>  <MW>  (191) 
164

>  <ID>  (191) 
JP011903

>  <CONTRIBUTOR>  (191) 
University of Tokyo Team, {Faculty of Engineering, University of Tokyo

>  <COMMENT>  (191) 
SMILES=OC(=O)C=Cc(c1)ccc(O)c1
cas=7400-08-0
InChI=InChI=1S/C9H8O3/c10-8-4-1-7(2-5-8)3-6-9(11)12/h1-6,10H,(H,11,12)/b6-3+
computed SMILES=O=C(O)C=CC1=CC=C(O)C=C1
accession=JP011903
date=2016.01.19 (Created 2008.10.21, modified 2011.05.06)
author=YAMAMOTO M, DEP. CHEMISTRY, FAC. SCIENCE, NARA WOMEN'S UNIV.
license=CC BY-NC-SA
exact mass=164.04734
ionization energy=70 eV
ion type=[M]+*
computed spectral entropy=3.113989203982064
computed normalized entropy=0.7881035506207766
SPLASH=splash10-03xr-5900000000-a364c62c9122c0fbe6de
submitter=submitter = University of Tokyo Team (Faculty of Engineering, University of Tokyo)
MoNA Rating=3.75

>  <NUM PEAKS>  (191) 
52

>  <MASS SPECTRAL PEAKS>  (191) 
18 1.46
27 2.28
29 1.53
38 3.02
39 11.76
40 1.17
41 1.25
45 3.9
50 3.94
51 6.35
52 1.36
53 3.96
55 2.35
59 1.58
61 2.33
62 6.32
63 13.55
64 4.81
65 18.9
66 2.1
68 1.7
69 1.45
74 2.39
75 2.75
77 6.06
78 1.25
79 3.28
89 11.2
90 4.35
91 25.04
92 2.75
94 2.61
95 1.46
101 1.95
107 13.85
108 1.71
110 1.36
117 1.03
118 26.44
119 26.12
120 3.92
121 2.16
123 2.05
135 2.53
136 4.86
146 3.84
147 44.31
148 4.32
163 25.81
164 99.99
165 10.04
166 1.05

$$$$

     RDKit          2D

  8  8  0  0  0  0  0  0  0  0999 V2000
   -0.0837   -0.8045    0.0000 C   0  0  0  0  0  0  0  0  0  0  0  0
   -1.3828   -1.5545    0.0000 C   0  0  0  0  0  0  0  0  0  0  0  0
   -0.0837    0.6955    0.0000 C   0  0  0  0  0  0  0  0  0  0  0  0
   -2.6818   -0.8045    0.0000 C   0  0  0  0  0  0  0  0  0  0  0  0
   -3.1948    2.1050    0.0000 O   0  0  0  0  0  0  0  0  0  0  0  0
   -4.1590    0.4350    0.0000 O   0  0  0  0  0  0  0  0  0  0  0  0
   -1.3828    1.4455    0.0000 O   0  0  0  0  0  0  0  0  0  0  0  0
   -2.6818    0.6955    0.0000 S   0  0  0  0  0  0  0  0  0  0  0  0
  2  1  1  0
  3  1  1  0
  4  2  1  0
  7  3  1  0
  8  4  1  0
  8  5  2  0
  8  6  2  0
  8  7  1  0
M  END
>  <NAME>  (192) 
1,4-BUTANE SULTONE

>  <SYNONYMS>  (192) 
4-HYDROXY-1-BUTANESULFONIC ACID DELTA SULTONE

>  <SPECTRUM TYPE>  (192) 
MS1

>  <INSTRUMENT TYPE>  (192) 
EI-B

>  <INSTRUMENT>  (192) 
HITACHI M-2500

>  <ION MODE>  (192) 
P

>  <INCHIKEY>  (192) 
MHYFEEDKONKGEB-UHFFFAOYSA-N

>  <FORMULA>  (192) 
C4H8O3S

>  <EXACT MASS>  (192) 
136.019415116

>  <MW>  (192) 
136

>  <ID>  (192) 
JP011902

>  <CONTRIBUTOR>  (192) 
University of Tokyo Team, {Faculty of Engineering, University of Tokyo

>  <COMMENT>  (192) 
SMILES=C(C1)COS(=O)(=O)C1
cas=1633-83-6
InChI=InChI=1S/C4H8O3S/c5-8(6)4-2-1-3-7-8/h1-4H2
computed SMILES=O=S1(=O)OCCCC1
accession=JP011902
date=2016.01.19 (Created 2008.10.21, modified 2011.05.06)
author=YAMAMOTO M, DEP. CHEMISTRY, FAC. SCIENCE, NARA WOMEN'S UNIV.
license=CC BY-NC-SA
exact mass=136.01941
ionization energy=70 eV
ion type=[M]+*
computed spectral entropy=2.5320478523679397
computed normalized entropy=0.744457780080536
SPLASH=splash10-0006-9000000000-10e6885b2c1cf30a82a7
submitter=submitter = University of Tokyo Team (Faculty of Engineering, University of Tokyo)
MoNA Rating=3.75

>  <NUM PEAKS>  (192) 
30

>  <MASS SPECTRAL PEAKS>  (192) 
15 3.26
17 1.5
18 6.31
26 4.43
27 23.79
28 8.83
29 8.8
30 2.23
31 4.19
38 2.4
39 21.33
40 10.22
41 46.97
42 99.99
43 11.12
44 2.71
48 3.66
51 1.02
53 1.66
54 34.86
55 5.62
57 1.16
64 2.57
65 2.09
71 18.29
72 1.23
78 2.01
106 1.4
107 1.54
121 1.23

$$$$

     RDKit          2D

 29 32  0  0  1  0  0  0  0  0999 V2000
    3.0099    4.6213    0.0000 C   0  0  0  0  0  0  0  0  0  0  0  0
   -1.7700    0.8600    0.0000 C   0  0  0  0  0  0  0  0  0  0  0  0
    2.2765    3.1018    0.0000 C   0  0  0  0  0  0  0  0  0  0  0  0
    5.4808    3.8184    0.0000 C   0  0  0  0  0  0  0  0  0  0  0  0
    4.4300    0.8600    0.0000 C   0  0  0  0  0  0  0  0  0  0  0  0
    3.5500   -0.3500    0.0000 C   0  0  0  0  0  0  0  0  0  0  0  0
    5.9443    5.2450    0.0000 C   0  0  0  0  0  0  0  0  0  0  0  0
   -4.3700   -0.6400    0.0000 C   0  0  0  0  0  0  0  0  0  0  0  0
   -3.0700    0.1100    0.0000 C   0  0  0  0  0  0  0  0  0  0  0  0
   -3.0700   -2.8900    0.0000 C   0  0  0  0  0  0  0  0  0  0  0  0
   -0.4700   -2.8900    0.0000 C   0  0  0  0  0  0  0  0  0  0  0  0
   -0.4700    1.6100    0.0000 C   0  0  0  0  0  0  0  0  0  0  0  0
    4.0136    3.5066    0.0000 C   0  0  0  0  0  0  0  0  0  0  0  0
   -1.7700   -2.1400    0.0000 C   0  0  0  0  0  0  0  0  0  0  0  0
   -4.3700   -2.1400    0.0000 C   0  0  0  0  0  0  0  0  0  0  0  0
    3.5500    2.0800    0.0000 C   0  0  0  0  0  0  0  0  0  0  0  0
    2.1200    0.1100    0.0000 C   0  0  0  0  0  0  0  0  0  0  0  0
   -0.4700    0.1100    0.0000 C   0  0  0  0  0  0  0  0  0  0  0  0
    0.8300   -2.1400    0.0000 C   0  0  0  0  0  0  0  0  0  0  0  0
    0.8300    2.3600    0.0000 C   0  0  0  0  0  0  0  0  0  0  0  0
    7.4116    5.5568    0.0000 C   0  0  0  0  0  0  0  0  0  0  0  0
    0.8300   -0.6400    0.0000 C   0  0  0  0  0  0  0  0  0  0  0  0
   -1.7700   -0.6400    0.0000 C   0  0  0  0  0  0  0  0  0  0  0  0
    2.1200    1.6100    0.0000 C   0  0  0  0  0  0  0  0  0  0  0  0
   -5.6689   -2.8902    0.0000 O   0  0  0  0  0  0  0  0  0  0  0  0
    2.1289   -2.8902    0.0000 O   0  0  0  0  0  0  0  0  0  0  0  0
    0.8325    3.8600    0.0000 O   0  0  0  0  0  0  0  0  0  0  0  0
    8.4152    4.4421    0.0000 O   0  0  0  0  0  0  0  0  0  0  0  0
    7.8751    6.9834    0.0000 O   0  0  0  0  0  0  0  0  0  0  0  0
  6  5  1  0
  7  4  1  0
  9  8  1  0
 13  1  1  6
 13  4  1  0
 14 10  1  6
 14 11  1  0
 15  8  1  0
 15 10  1  0
 16  5  1  1
 16 13  1  0
 17  6  1  1
 18 12  1  1
 19 11  1  0
 20 12  1  0
 21  7  1  0
 22 17  1  0
 22 18  1  0
 22 19  1  6
 23  2  1  1
 23  9  1  0
 23 14  1  0
 23 18  1  0
 24  3  1  1
 24 16  1  0
 24 17  1  0
 24 20  1  0
 15 25  1  6
 19 26  1  6
 20 27  1  6
 28 21  2  0
 29 21  1  0
M  END
>  <NAME>  (193) 
CHOLIC ACID

>  <SYNONYMS>  (193) 
3ALPHA,7ALPHA,12ALPHA-TRIHYDROXY-5BETA-CHOLAN-24-OIC ACID

>  <SPECTRUM TYPE>  (193) 
MS1

>  <INSTRUMENT TYPE>  (193) 
EI-B

>  <INSTRUMENT>  (193) 
HITACHI M-2500

>  <ION MODE>  (193) 
P

>  <INCHIKEY>  (193) 
BHQCQFFYRZLCQQ-OELDTZBJSA-N

>  <FORMULA>  (193) 
C24H40O5

>  <EXACT MASS>  (193) 
408.28757438

>  <MW>  (193) 
408

>  <ID>  (193) 
JP011901

>  <CONTRIBUTOR>  (193) 
University of Tokyo Team, {Faculty of Engineering, University of Tokyo

>  <COMMENT>  (193) 
SMILES=C(C2([H])O)C(C3(C)4)(C(C([H])(O)CC3([H])CC([H])(O)CC4)(C(C21C)([H])CCC1([H])C([H])(C)CCC(O)=O)[H])[H]
cas=81-25-4
InChI=InChI=1S/C24H40O5/c1-13(4-7-21(28)29)16-5-6-17-22-18(12-20(27)24(16,17)3)23(2)9-8-15(25)10-14(23)11-19(22)26/h13-20,22,25-27H,4-12H2,1-3H3,(H,28,29)/t13-,14+,15-,16-,17+,18+,19-,20+,22+,23+,24-/m1/s1
computed SMILES=O=C(O)CCC(C)C1CCC2C3C(O)CC4CC(O)CCC4(C)C3CC(O)C12C
accession=JP011901
date=2016.01.19 (Created 2008.10.21, modified 2011.05.06)
author=YAMAMOTO M, DEP. CHEMISTRY, FAC. SCIENCE, NARA WOMEN'S UNIV.
license=CC BY-NC-SA
exact mass=408.28757
ionization energy=70 eV
ion type=[M]+*
computed spectral entropy=4.9142899315503
computed normalized entropy=0.8819372011562373
SPLASH=splash10-0fk9-5796000000-2876080f3fa17fb96370
submitter=submitter = University of Tokyo Team (Faculty of Engineering, University of Tokyo)
MoNA Rating=3.75

>  <NUM PEAKS>  (193) 
263

>  <MASS SPECTRAL PEAKS>  (193) 
18 1.84
27 3.42
28 1.32
29 7.38
31 1.68
39 4.01
41 19.04
42 1.94
43 12.39
44 2.05
45 2.36
53 5.82
54 1.6
55 32.49
56 2.74
57 8.09
59 3.76
60 6.61
65 2.33
66 1.42
67 16.98
68 4.49
69 10.61
70 2.39
71 4.46
73 1.89
77 7.41
79 16.33
80 4.61
81 27.99
82 4.56
83 9.74
84 4
85 3.89
91 16.12
92 4.07
93 21.95
94 9.6
95 20.52
96 3.62
97 4.96
99 2.68
101 2.55
103 1.37
104 1.15
105 18.47
106 6.16
107 19.28
108 6.52
109 14.12
110 3.43
111 3.49
112 1.02
115 2.39
116 1.31
117 5.89
118 4.29
119 13.91
120 5.65
121 13.2
122 4.08
123 5.74
124 1.76
125 1.81
127 2.01
128 2.44
129 4.53
130 2.28
131 11
132 4.57
133 12.21
134 4.53
135 7.79
136 2.42
137 3.62
138 1.12
139 1.23
140 2.11
141 2.73
142 2.59
143 9.03
144 5
145 17.24
146 5.47
147 12.11
148 3.54
149 4.58
150 1.56
151 1.82
153 1.37
154 1
155 3.75
156 2.08
157 9.99
158 5.36
159 13.03
160 4.48
161 7.32
162 3.31
163 4.79
164 1.87
165 2.18
167 1.5
169 4.54
170 2.22
171 8.15
172 5.85
173 8.02
174 3.14
175 4.7
176 1.61
177 2.29
178 1.37
179 1.3
180 1.2
181 4.39
182 1.97
183 4.39
184 2.14
185 6.92
186 2.56
187 5.8
188 1.83
189 3.5
190 1.91
191 1.69
193 2.5
194 3.64
195 3.75
196 1.28
197 5.99
198 2.94
199 9.8
200 3.86
201 9.88
202 2.68
203 3.65
204 1.13
205 1.2
207 1.65
209 2.34
210 1.23
211 10.36
212 5.21
213 7.44
214 3.7
215 8.06
216 4.03
217 5
218 2.11
219 1.99
221 1.04
223 1.26
225 3.69
226 24.71
227 14.95
228 4.86
229 9.91
230 3.31
231 3.5
232 2.99
233 4.33
234 1.93
235 2.4
236 1.17
237 2.02
238 1.18
239 2.04
240 1.33
241 1.68
242 1.13
243 2.78
244 10.98
245 6.8
246 8.19
247 22.56
248 6.98
249 2.76
250 1.12
251 2.76
252 1.92
253 64.75
254 14.48
255 4.44
256 1.44
257 1.59
258 2.04
259 3.39
260 4.17
261 2.64
262 1.56
263 1.54
265 1.83
269 5.23
270 2.34
271 86.21
272 19.57
273 3.86
274 1.25
278 1.08
279 1.38
281 5.72
282 1.85
283 1.56
285 1.31
287 2.93
288 1.64
289 11.76
290 3.16
295 2.54
297 1.75
298 1.56
299 6.84
300 12.65
301 4.07
302 1.57
310 1.2
311 1.63
312 2.19
313 6.48
314 2.1
315 1.86
316 1.14
317 1.04
318 1.9
321 1.01
325 1.37
326 1.53
327 1.14
328 4.74
329 3.8
330 1.71
331 1.86
337 1.61
338 1.11
339 16.59
340 4.77
341 3.89
342 1.67
343 29.17
345 1.83
346 1.16
352 1.18
353 1.58
354 52.95
355 16.72
356 4.5
357 17.34
358 4.79
359 1.27
361 2.12
362 1.24
370 2.41
371 1.65
372 99.99
373 29.41
374 4.99
375 1.79
388 2.5
390 5.45
391 1.46
406 1.34
408 1.09

$$$$

     RDKit          2D

 13 13  0  0  0  0  0  0  0  0999 V2000
   -1.3000    0.7500    0.0000 C   0  0  0  0  0  0  0  0  0  0  0  0
    0.0000    1.5000    0.0000 C   0  0  0  0  0  0  0  0  0  0  0  0
    0.0000   -1.5000    0.0000 C   0  0  0  0  0  0  0  0  0  0  0  0
   -1.3000   -0.7500    0.0000 C   0  0  0  0  0  0  0  0  0  0  0  0
    1.3000    0.7500    0.0000 C   0  0  0  0  0  0  0  0  0  0  0  0
    1.3000   -0.7500    0.0000 C   0  0  0  0  0  0  0  0  0  0  0  0
    2.5989    1.5002    0.0000 Cl  0  0  0  0  0  0  0  0  0  0  0  0
   -2.5989   -1.5002    0.0000 N   0  0  0  0  0  0  0  0  0  0  0  0
    2.5989   -1.5002    0.0000 N   0  0  0  0  0  0  0  0  0  0  0  0
   -3.8981   -0.7504    0.0000 O   0  0  0  0  0  0  0  0  0  0  0  0
   -2.5987   -3.0002    0.0000 O   0  0  0  0  0  0  0  0  0  0  0  0
    3.8981   -0.7504    0.0000 O   0  0  0  0  0  0  0  0  0  0  0  0
    2.5987   -3.0002    0.0000 O   0  0  0  0  0  0  0  0  0  0  0  0
  2  1  2  0
  4  1  1  0
  4  3  2  0
  5  2  1  0
  6  3  1  0
  6  5  2  0
  7  5  1  0
  8  4  1  0
  9  6  1  0
 10  8  1  0
 11  8  2  0
 12  9  1  0
 13  9  2  0
M  CHG  4   8   1   9   1  10  -1  12  -1
M  END
>  <NAME>  (194) 
1-CHLORO-2,4-DINITROBENZENE

>  <SYNONYMS>  (194) 
2,4-DINITROCHLOROBENZENE

>  <SPECTRUM TYPE>  (194) 
MS1

>  <INSTRUMENT TYPE>  (194) 
EI-B

>  <INSTRUMENT>  (194) 
HITACHI M-2500

>  <ION MODE>  (194) 
P

>  <INCHIKEY>  (194) 
VYZAHLCBVHPDDF-UHFFFAOYSA-N

>  <FORMULA>  (194) 
C6H3ClN2O4

>  <EXACT MASS>  (194) 
201.97813425599998

>  <MW>  (194) 
202

>  <ID>  (194) 
JP011900

>  <CONTRIBUTOR>  (194) 
University of Tokyo Team, {Faculty of Engineering, University of Tokyo

>  <COMMENT>  (194) 
SMILES=[O-1][N+1](=O)c(c1)cc([N+1]([O-1])=O)c(Cl)c1
cas=97-00-7
InChI=InChI=1S/C6H3ClN2O4/c7-5-2-1-4(8(10)11)3-6(5)9(12)13/h1-3H
computed SMILES=O=N(=O)C1=CC=C(Cl)C(=C1)N(=O)=O
accession=JP011900
date=2016.01.19 (Created 2008.10.21, modified 2011.05.06)
author=YAMAMOTO M, DEP. CHEMISTRY, FAC. SCIENCE, NARA WOMEN'S UNIV.
license=CC BY-NC-SA
exact mass=201.97813
ionization energy=70 eV
ion type=[M]+*
computed spectral entropy=3.1677121429279222
computed normalized entropy=0.7941150192506494
SPLASH=splash10-0w59-9530000000-7ea2caea63400fe591c1
submitter=submitter = University of Tokyo Team (Faculty of Engineering, University of Tokyo)
MoNA Rating=3.75

>  <NUM PEAKS>  (194) 
54

>  <MASS SPECTRAL PEAKS>  (194) 
30 76.23
37 4.42
38 4.07
46 4.6
49 2.46
50 9.58
51 2.45
52 1.13
53 2.15
60 1.41
61 4.85
62 6.84
63 27.9
64 3.03
72 2.24
73 10.06
74 44.54
75 63.46
76 9.96
79 5.2
84 12.91
85 3.32
86 6.06
87 2.26
88 1.67
89 2.04
91 1.21
97 1.64
98 6.15
99 1.27
100 2.03
107 11.61
108 2.27
109 32.19
110 50.77
111 14.49
112 16.15
113 2.06
126 15.37
127 2.84
128 5.27
140 1.11
141 1.3
156 8.11
158 2.54
172 10.48
173 1
174 3.48
186 3.84
188 1.19
202 99.99
203 7.79
204 34.19
205 2.44

$$$$

     RDKit          2D

 10 10  0  0  0  0  0  0  0  0999 V2000
   -1.6344    3.0000    0.0000 C   0  0  0  0  0  0  0  0  0  0  0  0
   -2.5989    1.3300    0.0000 C   0  0  0  0  0  0  0  0  0  0  0  0
    1.4783    0.0904    0.0000 C   0  0  0  0  0  0  0  0  0  0  0  0
   -1.1217    0.0904    0.0000 C   0  0  0  0  0  0  0  0  0  0  0  0
    0.1783    2.3404    0.0000 C   0  0  0  0  0  0  0  0  0  0  0  0
    0.1783   -0.6596    0.0000 C   0  0  0  0  0  0  0  0  0  0  0  0
    1.4783    1.5904    0.0000 C   0  0  0  0  0  0  0  0  0  0  0  0
   -1.1217    1.5904    0.0000 C   0  0  0  0  0  0  0  0  0  0  0  0
    0.1783   -2.1596    0.0000 O   0  0  0  0  0  0  0  0  0  0  0  0
    2.7772    2.3406    0.0000 O   0  0  0  0  0  0  0  0  0  0  0  0
  6  3  1  0
  6  4  1  0
  7  3  1  0
  7  5  1  0
  8  1  1  0
  8  2  1  0
  8  4  1  0
  8  5  1  0
  9  6  2  0
 10  7  2  0
M  END
>  <NAME>  (195) 
5,5-DIMETHYL-1,3-CYCLOHEXANEDIONE

>  <SYNONYMS>  (195) 
DIMEDONE

>  <SPECTRUM TYPE>  (195) 
MS1

>  <INSTRUMENT TYPE>  (195) 
EI-B

>  <INSTRUMENT>  (195) 
HITACHI M-2500

>  <ION MODE>  (195) 
P

>  <INCHIKEY>  (195) 
BADXJIPKFRBFOT-UHFFFAOYSA-N

>  <FORMULA>  (195) 
C8H12O2

>  <EXACT MASS>  (195) 
140.083729624

>  <MW>  (195) 
140

>  <ID>  (195) 
JP011899

>  <CONTRIBUTOR>  (195) 
University of Tokyo Team, {Faculty of Engineering, University of Tokyo

>  <COMMENT>  (195) 
SMILES=O=C(C1)CC(C)(C)CC(=O)1
cas=126-81-8
InChI=InChI=1S/C8H12O2/c1-8(2)4-6(9)3-7(10)5-8/h3-5H2,1-2H3
computed SMILES=O=C1CC(=O)CC(C)(C)C1
accession=JP011899
date=2016.01.19 (Created 2008.10.21, modified 2011.05.06)
author=YAMAMOTO M, DEP. CHEMISTRY, FAC. SCIENCE, NARA WOMEN'S UNIV.
license=CC BY-NC-SA
exact mass=140.08373
ionization energy=70 eV
ion type=[M]+*
computed spectral entropy=2.8087160870408097
computed normalized entropy=0.7964914725633545
SPLASH=splash10-053u-9100000000-b54edab4c125238cb5cb
submitter=submitter = University of Tokyo Team (Faculty of Engineering, University of Tokyo)
MoNA Rating=3.75

>  <NUM PEAKS>  (195) 
34

>  <MASS SPECTRAL PEAKS>  (195) 
15 1.86
18 1.21
26 1.73
27 13.7
28 6.18
29 9.65
38 2.05
39 22.39
40 5
41 29.56
42 18.57
43 11.45
50 1.92
51 2.96
52 1.26
53 6.45
54 2.67
55 43.93
56 55
57 3.4
67 1.31
69 5.51
70 18.39
71 1.05
82 1.62
83 99.99
84 16.34
85 1.01
97 11.89
112 23.14
113 1.73
125 3.38
140 35.98
141 3.61

$$$$

     RDKit          2D

 10 10  0  0  0  0  0  0  0  0999 V2000
    0.0008   -2.2500    0.0000 C   0  0  0  0  0  0  0  0  0  0  0  0
   -1.2992    0.0000    0.0000 C   0  0  0  0  0  0  0  0  0  0  0  0
   -1.2992   -3.0000    0.0000 C   0  0  0  0  0  0  0  0  0  0  0  0
   -2.5992   -0.7500    0.0000 C   0  0  0  0  0  0  0  0  0  0  0  0
    0.0008   -0.7500    0.0000 C   0  0  0  0  0  0  0  0  0  0  0  0
   -2.5992   -2.2500    0.0000 C   0  0  0  0  0  0  0  0  0  0  0  0
    1.2998    0.0002    0.0000 B   0  0  0  0  0  0  0  0  0  0  0  0
   -3.8981   -3.0002    0.0000 Br  0  0  0  0  0  0  0  0  0  0  0  0
    2.5989   -0.7496    0.0000 O   0  0  0  0  0  0  0  0  0  0  0  0
    1.2995    1.5002    0.0000 O   0  0  0  0  0  0  0  0  0  0  0  0
  3  1  2  0
  4  2  1  0
  5  1  1  0
  5  2  2  0
  6  3  1  0
  6  4  2  0
  7  5  1  0
  8  6  1  0
  9  7  1  0
 10  7  1  0
M  END
>  <NAME>  (196) 
4-BROMOPHENYLBORIC ACID

>  <SYNONYMS>  (196) 
4-BROMOBENZENEBORIC ACID

>  <SPECTRUM TYPE>  (196) 
MS1

>  <INSTRUMENT TYPE>  (196) 
EI-B

>  <INSTRUMENT>  (196) 
HITACHI M-2500

>  <ION MODE>  (196) 
P

>  <INCHIKEY>  (196) 
QBLFZIBJXUQVRF-UHFFFAOYSA-N

>  <FORMULA>  (196) 
C6H6BBrO2

>  <EXACT MASS>  (196) 
199.964421932

>  <MW>  (196) 
200

>  <ID>  (196) 
JP011898

>  <CONTRIBUTOR>  (196) 
University of Tokyo Team, {Faculty of Engineering, University of Tokyo

>  <COMMENT>  (196) 
SMILES=O[B](O)c(c1)ccc(Br)c1
cas=5467-74-3
InChI=InChI=1S/C6H6BBrO2/c8-6-3-1-5(2-4-6)7(9)10/h1-4,9-10H
computed SMILES=BrC1=CC=C(C=C1)B(O)O
accession=JP011898
date=2016.01.19 (Created 2008.10.21, modified 2011.05.06)
author=YAMAMOTO M, DEP. CHEMISTRY, FAC. SCIENCE, NARA WOMEN'S UNIV.
license=CC BY-NC-SA
exact mass=199.96442
ionization energy=70 eV
ion type=[M]+*
computed spectral entropy=2.559643219098685
computed normalized entropy=0.768153098431555
SPLASH=splash10-004i-9000000000-f0291e45295f40a36d3f
submitter=submitter = University of Tokyo Team (Faculty of Engineering, University of Tokyo)
MoNA Rating=3.75

>  <NUM PEAKS>  (196) 
28

>  <MASS SPECTRAL PEAKS>  (196) 
17 4.53
18 21.94
26 1.17
29 1.71
31 3.3
37 2.85
38 4.69
39 3.08
44 7.17
45 28.52
49 2.95
50 27.47
51 28.95
52 3.23
53 3.17
59 2.5
61 1.18
62 1.28
63 1.21
65 1.43
73 3.97
74 15.57
75 18.38
76 19.9
77 99.99
78 12.61
79 2.68
80 4.5

$$$$

     RDKit          2D

 16 16  0  0  0  0  0  0  0  0999 V2000
    1.3000    0.7500    0.0000 C   0  0  0  0  0  0  0  0  0  0  0  0
   -1.3000    0.7500    0.0000 C   0  0  0  0  0  0  0  0  0  0  0  0
    0.0000   -1.5000    0.0000 C   0  0  0  0  0  0  0  0  0  0  0  0
    0.0000    3.0000    0.0000 C   0  0  0  0  0  0  0  0  0  0  0  0
    0.0000    1.5000    0.0000 C   0  0  0  0  0  0  0  0  0  0  0  0
    1.3000   -0.7500    0.0000 C   0  0  0  0  0  0  0  0  0  0  0  0
   -1.3000   -0.7500    0.0000 C   0  0  0  0  0  0  0  0  0  0  0  0
    2.5989   -1.5002    0.0000 C   0  0  0  0  0  0  0  0  0  0  0  0
   -2.5989   -1.5002    0.0000 C   0  0  0  0  0  0  0  0  0  0  0  0
   -1.2990    3.7500    0.0000 Br  0  0  0  0  0  0  0  0  0  0  0  0
    1.8487   -2.7991    0.0000 F   0  0  0  0  0  0  0  0  0  0  0  0
    3.8978   -2.2504    0.0000 F   0  0  0  0  0  0  0  0  0  0  0  0
    3.3491   -0.2013    0.0000 F   0  0  0  0  0  0  0  0  0  0  0  0
   -3.3491   -0.2013    0.0000 F   0  0  0  0  0  0  0  0  0  0  0  0
   -3.8978   -2.2504    0.0000 F   0  0  0  0  0  0  0  0  0  0  0  0
   -1.8487   -2.7991    0.0000 F   0  0  0  0  0  0  0  0  0  0  0  0
  5  1  2  0
  5  2  1  0
  5  4  1  0
  6  1  1  0
  6  3  2  0
  7  2  2  0
  7  3  1  0
  8  6  1  0
  9  7  1  0
 10  4  1  0
 11  8  1  0
 12  8  1  0
 13  8  1  0
 14  9  1  0
 15  9  1  0
 16  9  1  0
M  END
>  <NAME>  (197) 
3,5-BIS(TRIFLUOROMETHYL)BENZYL BROMIDE

>  <SYNONYMS>  (197) 


>  <SPECTRUM TYPE>  (197) 
MS1

>  <INSTRUMENT TYPE>  (197) 
EI-B

>  <INSTRUMENT>  (197) 
HITACHI M-2500

>  <ION MODE>  (197) 
P

>  <INCHIKEY>  (197) 
ATLQGZVLWOURFU-UHFFFAOYSA-N

>  <FORMULA>  (197) 
C9H5BrF6

>  <EXACT MASS>  (197) 
305.94788158

>  <MW>  (197) 
306

>  <ID>  (197) 
JP011897

>  <CONTRIBUTOR>  (197) 
University of Tokyo Team, {Faculty of Engineering, University of Tokyo

>  <COMMENT>  (197) 
SMILES=BrCc(c1)cc(cc1C(F)(F)F)C(F)(F)F
cas=32247-96-4
InChI=InChI=1S/C9H5BrF6/c10-4-5-1-6(8(11,12)13)3-7(2-5)9(14,15)16/h1-3H,4H2
computed SMILES=FC(F)(F)C1=CC(=CC(=C1)C(F)(F)F)CBr
accession=JP011897
date=2016.01.19 (Created 2008.10.21, modified 2011.05.06)
author=YAMAMOTO M, DEP. CHEMISTRY, FAC. SCIENCE, NARA WOMEN'S UNIV.
license=CC BY-NC-SA
exact mass=305.94788
ionization energy=70 eV
ion type=[M]+*
computed spectral entropy=2.247987303251278
computed normalized entropy=0.6273128011484097
SPLASH=splash10-004i-1290000000-4935afc999045d4ee9fb
submitter=submitter = University of Tokyo Team (Faculty of Engineering, University of Tokyo)
MoNA Rating=3.75

>  <NUM PEAKS>  (197) 
36

>  <MASS SPECTRAL PEAKS>  (197) 
29 1.17
31 2.26
32 1.52
39 1.11
62 1.75
63 2.56
69 2.93
75 1.52
87 1.72
88 1.04
89 1.45
99 1.04
104 1.93
107 1.59
108 1.16
127 1.74
132 1.18
137 1.45
138 3.78
139 1.43
156 1.41
157 1.8
158 5.34
173 1.5
176 1.12
177 8.86
187 4.69
207 2.58
208 3.58
226 1.17
227 99.99
228 9.18
287 5.51
289 4.5
306 1.56
308 1.46

$$$$

     RDKit          2D

 10 10  0  0  0  0  0  0  0  0999 V2000
    0.9634    3.5489    0.0000 C   0  0  0  0  0  0  0  0  0  0  0  0
    2.2624    2.7989    0.0000 C   0  0  0  0  0  0  0  0  0  0  0  0
   -0.3312    2.8067    0.0000 C   0  0  0  0  0  0  0  0  0  0  0  0
    0.9674    0.5559    0.0000 C   0  0  0  0  0  0  0  0  0  0  0  0
    3.5672    0.5589    0.0000 C   0  0  0  0  0  0  0  0  0  0  0  0
   -1.6308    0.5561    0.0000 C   0  0  0  0  0  0  0  0  0  0  0  0
    2.2669    1.3067    0.0000 C   0  0  0  0  0  0  0  0  0  0  0  0
   -0.3316    1.3059    0.0000 C   0  0  0  0  0  0  0  0  0  0  0  0
    4.8650    1.3111    0.0000 Br  0  0  0  0  0  0  0  0  0  0  0  0
   -2.9300   -0.1937    0.0000 N   0  0  0  0  0  0  0  0  0  0  0  0
  2  1  2  0
  3  1  1  0
  7  2  1  0
  7  4  2  0
  7  5  1  0
  8  3  2  0
  8  4  1  0
  8  6  1  0
  9  5  1  0
 10  6  3  0
M  END
>  <NAME>  (198) 
3-CYANOBENZYL BROMIDE

>  <SYNONYMS>  (198) 
ALPHA-BROMO-M-TOLUNITRILE

>  <SPECTRUM TYPE>  (198) 
MS1

>  <INSTRUMENT TYPE>  (198) 
EI-B

>  <INSTRUMENT>  (198) 
HITACHI M-2500

>  <ION MODE>  (198) 
P

>  <INCHIKEY>  (198) 
CVKOOKPNCVYHNY-UHFFFAOYSA-N

>  <FORMULA>  (198) 
C8H6BrN

>  <EXACT MASS>  (198) 
194.968361292

>  <MW>  (198) 
195

>  <ID>  (198) 
JP011896

>  <CONTRIBUTOR>  (198) 
University of Tokyo Team, {Faculty of Engineering, University of Tokyo

>  <COMMENT>  (198) 
SMILES=N#Cc(c1)cc(CBr)cc1
cas=28188-41-2
InChI=InChI=1S/C8H6BrN/c9-5-7-2-1-3-8(4-7)6-10/h1-4H,5H2
computed SMILES=N#CC1=CC=CC(=C1)CBr
accession=JP011896
date=2016.01.19 (Created 2008.10.21, modified 2011.05.06)
author=YAMAMOTO M, DEP. CHEMISTRY, FAC. SCIENCE, NARA WOMEN'S UNIV.
license=CC BY-NC-SA
exact mass=194.96836
ionization energy=70 eV
ion type=[M]+*
computed spectral entropy=2.091612570860679
computed normalized entropy=0.6581425874185654
SPLASH=splash10-014i-3900000000-8daf868bbab56440ed44
submitter=submitter = University of Tokyo Team (Faculty of Engineering, University of Tokyo)
MoNA Rating=3.75

>  <NUM PEAKS>  (198) 
24

>  <MASS SPECTRAL PEAKS>  (198) 
37 1.03
38 2.03
39 4.27
50 2.68
51 2.28
61 1.45
62 3.53
63 6.07
64 2.42
65 1.08
75 1.36
76 1.29
87 1.43
88 3.2
89 14.97
90 3.83
114 3.27
115 3.46
116 99.99
117 9.45
194 5.6
195 6.76
196 6.14
197 6.61

$$$$

     RDKit          2D

 10 10  0  0  0  0  0  0  0  0999 V2000
    2.5987    3.0002    0.0000 C   0  0  0  0  0  0  0  0  0  0  0  0
   -1.3000    0.7500    0.0000 C   0  0  0  0  0  0  0  0  0  0  0  0
    0.0000    1.5000    0.0000 C   0  0  0  0  0  0  0  0  0  0  0  0
   -1.3000   -0.7500    0.0000 C   0  0  0  0  0  0  0  0  0  0  0  0
    1.3000   -0.7500    0.0000 C   0  0  0  0  0  0  0  0  0  0  0  0
    2.5989    1.5002    0.0000 C   0  0  0  0  0  0  0  0  0  0  0  0
    1.3000    0.7500    0.0000 C   0  0  0  0  0  0  0  0  0  0  0  0
    0.0000   -1.5000    0.0000 C   0  0  0  0  0  0  0  0  0  0  0  0
   -0.0000   -3.0000    0.0000 Br  0  0  0  0  0  0  0  0  0  0  0  0
    3.8981    0.7504    0.0000 O   0  0  0  0  0  0  0  0  0  0  0  0
  3  2  2  0
  4  2  1  0
  6  1  1  0
  7  3  1  0
  7  5  2  0
  7  6  1  0
  8  4  2  0
  8  5  1  0
  9  8  1  0
 10  6  2  0
M  END
>  <NAME>  (199) 
3'-BROMOACETOPHENONE

>  <SYNONYMS>  (199) 


>  <SPECTRUM TYPE>  (199) 
MS1

>  <INSTRUMENT TYPE>  (199) 
EI-B

>  <INSTRUMENT>  (199) 
HITACHI M-2500

>  <ION MODE>  (199) 
P

>  <INCHIKEY>  (199) 
JYAQYXOVOHJRCS-UHFFFAOYSA-N

>  <FORMULA>  (199) 
C8H7BrO

>  <EXACT MASS>  (199) 
197.968026944

>  <MW>  (199) 
198

>  <ID>  (199) 
JP011895

>  <CONTRIBUTOR>  (199) 
University of Tokyo Team, {Faculty of Engineering, University of Tokyo

>  <COMMENT>  (199) 
SMILES=CC(=O)c(c1)cc(Br)cc1
cas=2142-63-4
InChI=InChI=1S/C8H7BrO/c1-6(10)7-3-2-4-8(9)5-7/h2-5H,1H3
computed SMILES=O=C(C=1C=CC=C(Br)C1)C
accession=JP011895
date=2016.01.19 (Created 2008.10.21, modified 2011.05.06)
author=YAMAMOTO M, DEP. CHEMISTRY, FAC. SCIENCE, NARA WOMEN'S UNIV.
license=CC BY-NC-SA
exact mass=197.96803
ionization energy=70 eV
ion type=[M]+*
computed spectral entropy=2.833729739280224
computed normalized entropy=0.7790137786023943
SPLASH=splash10-0kd0-4910000000-c1de8801257c1a77d628
submitter=submitter = University of Tokyo Team (Faculty of Engineering, University of Tokyo)
MoNA Rating=3.75

>  <NUM PEAKS>  (199) 
38

>  <MASS SPECTRAL PEAKS>  (199) 
15 3.37
28 1.03
37 2.31
38 4.53
39 2.85
42 2.1
43 29.87
49 2.45
50 28.76
51 7.71
61 1.99
62 3.33
63 4.49
65 1.12
73 3.34
74 17.31
75 29.04
76 33.7
77 7.76
89 3.81
90 2.77
91 2.47
104 3.99
105 1.25
129 1.14
131 1.14
155 48.86
156 4.33
157 48.07
158 3.89
183 99.99
184 7.88
185 97.59
186 7.75
198 42.82
199 3.66
200 41.4
201 3.55

$$$$

     RDKit          2D

 18 19  0  0  0  0  0  0  0  0999 V2000
    2.5987    3.0002    0.0000 C   0  0  0  0  0  0  0  0  0  0  0  0
    3.8879   -5.2522    0.0000 C   0  0  0  0  0  0  0  0  0  0  0  0
    2.5908   -6.0103    0.0000 C   0  0  0  0  0  0  0  0  0  0  0  0
    3.9018   -3.7523    0.0000 C   0  0  0  0  0  0  0  0  0  0  0  0
    1.2878   -5.2482    0.0000 C   0  0  0  0  0  0  0  0  0  0  0  0
   -1.3000    0.7500    0.0000 C   0  0  0  0  0  0  0  0  0  0  0  0
    0.0000    1.5000    0.0000 C   0  0  0  0  0  0  0  0  0  0  0  0
    0.0000   -1.5000    0.0000 C   0  0  0  0  0  0  0  0  0  0  0  0
   -1.3000   -0.7500    0.0000 C   0  0  0  0  0  0  0  0  0  0  0  0
    2.5987   -3.0002    0.0000 C   0  0  0  0  0  0  0  0  0  0  0  0
    1.3000   -0.7500    0.0000 C   0  0  0  0  0  0  0  0  0  0  0  0
    1.3017   -3.7482    0.0000 C   0  0  0  0  0  0  0  0  0  0  0  0
    1.3000    0.7500    0.0000 C   0  0  0  0  0  0  0  0  0  0  0  0
    2.5989   -1.5002    0.0000 C   0  0  0  0  0  0  0  0  0  0  0  0
   -2.5989   -1.5002    0.0000 Cl  0  0  0  0  0  0  0  0  0  0  0  0
    0.0063   -2.9919    0.0000 Cl  0  0  0  0  0  0  0  0  0  0  0  0
    2.5989    1.5002    0.0000 N   0  0  0  0  0  0  0  0  0  0  0  0
    3.8981   -0.7504    0.0000 O   0  0  0  0  0  0  0  0  0  0  0  0
  3  2  2  0
  4  2  1  0
  5  3  1  0
  7  6  2  0
  9  6  1  0
  9  8  2  0
 10  4  2  0
 11  8  1  0
 12  5  2  0
 12 10  1  0
 13  7  1  0
 13 11  2  0
 14 10  1  0
 14 11  1  0
 15  9  1  0
 16 12  1  0
 17  1  1  0
 17 13  1  0
 18 14  2  0
M  END
>  <NAME>  (200) 
2-METHYLAMINO-2',5-DICHLOROBENZOPHENONE

>  <SYNONYMS>  (200) 


>  <SPECTRUM TYPE>  (200) 
MS1

>  <INSTRUMENT TYPE>  (200) 
EI-B

>  <INSTRUMENT>  (200) 
HITACHI M-2500

>  <ION MODE>  (200) 
P

>  <INCHIKEY>  (200) 
DQYHYPVCQHTLRO-UHFFFAOYSA-N

>  <FORMULA>  (200) 
C14H11Cl2NO

>  <EXACT MASS>  (200) 
279.021769332

>  <MW>  (200) 
279

>  <ID>  (200) 
JP011894

>  <CONTRIBUTOR>  (200) 
University of Tokyo Team, {Faculty of Engineering, University of Tokyo

>  <COMMENT>  (200) 
SMILES=CNc(c2)c(cc(Cl)c2)C(=O)c(c1)c(Cl)ccc1
InChI=InChI=1S/C14H11Cl2NO/c1-17-13-7-6-9(15)8-11(13)14(18)10-4-2-3-5-12(10)16/h2-8,17H,1H3
computed SMILES=O=C(C=1C=CC=CC1Cl)C2=CC(Cl)=CC=C2NC
accession=JP011894
date=2016.01.19 (Created 2008.10.21, modified 2011.05.06)
author=YAMAMOTO M, DEP. CHEMISTRY, FAC. SCIENCE, NARA WOMEN'S UNIV.
license=CC BY-NC-SA
exact mass=279.02177
ionization energy=70 eV
ion type=[M]+*
computed spectral entropy=3.811440315521997
computed normalized entropy=0.8276437485673961
SPLASH=splash10-0059-1390000000-af0f7aeab34615842d92
submitter=submitter = University of Tokyo Team (Faculty of Engineering, University of Tokyo)
MoNA Rating=3.75

>  <NUM PEAKS>  (200) 
100

>  <MASS SPECTRAL PEAKS>  (200) 
28 1.66
30 2.18
39 1.43
50 4.55
51 4.22
52 1.39
62 1.92
63 4.59
73 1.54
74 4.29
75 16.74
76 5.2
77 10.39
78 1.96
85 1.67
87 1.38
89 2.13
90 2.64
91 1.33
98 1.73
99 1.66
102 1.42
104 3.14
105 3.91
110 1.25
111 23.86
112 6.05
113 9.17
114 2.24
122 4.59
123 2.01
124 1.06
125 9.61
126 1.86
127 3.07
132 1
133 5.44
138 4.47
139 17.35
140 8.02
141 5.82
142 1.79
150 4.31
151 3.55
152 5.22
153 1.52
164 2.76
165 1.84
166 11.89
167 2.26
168 17.61
169 1.87
170 4.54
179 1.42
180 4.35
181 2.91
186 1.4
190 1.1
191 1.42
199 2.99
200 2.36
201 4.45
202 1.3
203 1.22
208 6.64
209 8.61
210 1.28
214 6.81
215 3.27
216 2.99
217 1.15
226 3.38
227 14.26
228 5.04
229 39.51
230 6.72
231 12.06
232 1.68
235 2.1
237 1.4
242 2.63
243 7.3
244 66.88
245 12.45
246 20.89
247 3.37
250 1.07
261 1.61
262 14.62
263 4.01
264 10.17
265 2.18
266 1.34
278 12.06
279 99.99
280 23.34
281 67.46
282 11.75
283 11.26
284 1.66

$$$$

     RDKit          2D

  8  7  0  0  0  0  0  0  0  0999 V2000
   -1.9486    4.1250    0.0000 C   0  0  0  0  0  0  0  0  0  0  0  0
   -0.6495    3.3750    0.0000 C   0  0  0  0  0  0  0  0  0  0  0  0
   -3.2476    3.3750    0.0000 C   0  0  0  0  0  0  0  0  0  0  0  0
    0.6495    4.1250    0.0000 C   0  0  0  0  0  0  0  0  0  0  0  0
   -4.5466    4.1250    0.0000 C   0  0  0  0  0  0  0  0  0  0  0  0
    1.9486    3.3750    0.0000 N   0  0  0  0  0  0  0  0  0  0  0  0
   -4.5466    5.6250    0.0000 O   0  0  0  0  0  0  0  0  0  0  0  0
   -5.8457    3.3750    0.0000 O   0  0  0  0  0  0  0  0  0  0  0  0
  2  1  1  0
  3  1  1  0
  4  2  1  0
  5  3  1  0
  6  4  1  0
  7  5  2  0
  8  5  1  0
M  END
>  <NAME>  (201) 
5-AMINOVALERIC ACID

>  <SYNONYMS>  (201) 


>  <SPECTRUM TYPE>  (201) 
MS1

>  <INSTRUMENT TYPE>  (201) 
EI-B

>  <INSTRUMENT>  (201) 
HITACHI M-2500

>  <ION MODE>  (201) 
P

>  <INCHIKEY>  (201) 
JJMDCOVWQOJGCB-UHFFFAOYSA-N

>  <FORMULA>  (201) 
C5H11NO2

>  <EXACT MASS>  (201) 
117.078978592

>  <MW>  (201) 
117

>  <ID>  (201) 
JP011893

>  <CONTRIBUTOR>  (201) 
University of Tokyo Team, {Faculty of Engineering, University of Tokyo

>  <COMMENT>  (201) 
SMILES=NCCCCC(O)=O
cas=660-88-8
InChI=InChI=1S/C5H11NO2/c6-4-2-1-3-5(7)8/h1-4,6H2,(H,7,8)
computed SMILES=O=C(O)CCCCN
accession=JP011893
date=2016.01.19 (Created 2008.10.21, modified 2011.05.06)
author=YAMAMOTO M, DEP. CHEMISTRY, FAC. SCIENCE, NARA WOMEN'S UNIV.
license=CC BY-NC-SA
exact mass=117.07898
ionization energy=70 eV
ion type=[M]+*
computed spectral entropy=3.2247069657346517
computed normalized entropy=0.8422588150177089
SPLASH=splash10-0536-9000000000-5adf6445ea3955b657bd
submitter=submitter = University of Tokyo Team (Faculty of Engineering, University of Tokyo)
MoNA Rating=3.75

>  <NUM PEAKS>  (201) 
46

>  <MASS SPECTRAL PEAKS>  (201) 
14 1.55
15 7.13
17 2.06
18 15.27
26 6.54
27 34.1
28 54.66
29 16.73
30 99.99
31 19.12
37 1.91
38 4.37
39 29.23
40 6.14
41 35.66
42 43.66
43 37.88
44 34.57
45 52.37
46 1.48
50 1.72
51 2.24
52 1.8
53 4.08
54 6.42
55 38.86
56 51.74
57 4.81
58 3.3
59 1.19
60 15.11
68 2.37
69 1.37
70 9.49
71 4.6
72 6.89
73 3.02
82 1.65
89 2.28
98 14
99 31.23
100 8.87
101 2.04
116 1.37
117 35.67
118 10.82

$$$$

     RDKit          2D

  7  6  0  0  0  0  0  0  0  0999 V2000
   -0.9743    3.1875    0.0000 C   0  0  0  0  0  0  0  0  0  0  0  0
   -2.2733    3.9375    0.0000 C   0  0  0  0  0  0  0  0  0  0  0  0
    0.3248    3.9375    0.0000 C   0  0  0  0  0  0  0  0  0  0  0  0
   -3.5724    3.1875    0.0000 C   0  0  0  0  0  0  0  0  0  0  0  0
    1.6238    3.1875    0.0000 N   0  0  0  0  0  0  0  0  0  0  0  0
   -3.5724    1.6875    0.0000 O   0  0  0  0  0  0  0  0  0  0  0  0
   -4.8714    3.9375    0.0000 O   0  0  0  0  0  0  0  0  0  0  0  0
  2  1  1  0
  3  1  1  0
  4  2  1  0
  5  3  1  0
  6  4  2  0
  7  4  1  0
M  END
>  <NAME>  (202) 
4-AMINOBUTYRIC ACID

>  <SYNONYMS>  (202) 
GAMMA-AMINOBUTYRIC ACID

>  <SPECTRUM TYPE>  (202) 
MS1

>  <INSTRUMENT TYPE>  (202) 
EI-B

>  <INSTRUMENT>  (202) 
HITACHI M-2500

>  <ION MODE>  (202) 
P

>  <INCHIKEY>  (202) 
BTCSSZJGUNDROE-UHFFFAOYSA-N

>  <FORMULA>  (202) 
C4H9NO2

>  <EXACT MASS>  (202) 
103.063328528

>  <MW>  (202) 
103

>  <ID>  (202) 
JP011892

>  <CONTRIBUTOR>  (202) 
University of Tokyo Team, {Faculty of Engineering, University of Tokyo

>  <COMMENT>  (202) 
SMILES=NCCCC(O)=O
cas=56-12-2
InChI=InChI=1S/C4H9NO2/c5-3-1-2-4(6)7/h1-3,5H2,(H,6,7)
computed SMILES=O=C(O)CCCN
accession=JP011892
date=2016.01.19 (Created 2008.10.21, modified 2011.05.06)
author=YAMAMOTO M, DEP. CHEMISTRY, FAC. SCIENCE, NARA WOMEN'S UNIV.
license=CC BY-NC-SA
exact mass=103.06333
ionization energy=70 eV
ion type=[M]+*
computed spectral entropy=2.155016278633393
computed normalized entropy=0.6694934492297888
SPLASH=splash10-001i-9000000000-21ea76dfb0da62031f1d
submitter=submitter = University of Tokyo Team (Faculty of Engineering, University of Tokyo)
MoNA Rating=3.75

>  <NUM PEAKS>  (202) 
25

>  <MASS SPECTRAL PEAKS>  (202) 
15 1.11
17 1.25
18 4.62
26 2.3
27 6.17
28 17.5
29 3.86
30 99.99
31 2.28
39 3.9
40 1.09
41 6.87
42 6.13
43 12.86
44 7.65
45 5.72
54 1.28
55 1.57
56 7.51
57 1.21
69 1.73
84 2.28
85 1.3
86 1.5
103 3.91

$$$$

     RDKit          2D

 10  9  0  0  1  0  0  0  0  0999 V2000
    2.2733    2.0625    0.0000 C   0  0  0  0  0  0  0  0  0  0  0  0
   -2.9228    2.0625    0.0000 C   0  0  0  0  0  0  0  0  0  0  0  0
    0.9743    2.8125    0.0000 C   0  0  0  0  0  0  0  0  0  0  0  0
   -1.6238    2.8125    0.0000 C   0  0  0  0  0  0  0  0  0  0  0  0
   -1.6238    4.3125    0.0000 C   0  0  0  0  0  0  0  0  0  0  0  0
   -0.3248    2.0625    0.0000 N   0  0  0  0  0  0  0  0  0  0  0  0
    0.9743    4.3125    0.0000 O   0  0  0  0  0  0  0  0  0  0  0  0
   -0.3248    5.0625    0.0000 O   0  0  0  0  0  0  0  0  0  0  0  0
   -2.9228    5.0625    0.0000 O   0  0  0  0  0  0  0  0  0  0  0  0
   -4.2219    2.8125    0.0000 S   0  0  0  0  0  0  0  0  0  0  0  0
  3  1  1  0
  4  2  1  1
  5  4  1  0
  6  3  2  3
  4  6  1  0
  7  3  1  0
  8  5  2  0
  9  5  1  0
 10  2  1  0
M  END
>  <NAME>  (203) 
N-ACETYL-L-CYSTEINE

>  <SYNONYMS>  (203) 


>  <SPECTRUM TYPE>  (203) 
MS1

>  <INSTRUMENT TYPE>  (203) 
EI-B

>  <INSTRUMENT>  (203) 
HITACHI M-2500

>  <ION MODE>  (203) 
P

>  <INCHIKEY>  (203) 
PWKSKIMOESPYIA-BYPYZUCNSA-N

>  <FORMULA>  (203) 
C5H9NO3S

>  <EXACT MASS>  (203) 
163.030314148

>  <MW>  (203) 
163

>  <ID>  (203) 
JP011891

>  <CONTRIBUTOR>  (203) 
University of Tokyo Team, {Faculty of Engineering, University of Tokyo

>  <COMMENT>  (203) 
SMILES=CC(=O)NC(CS)C(O)=O
cas=616-91-1
InChI=InChI=1S/C5H9NO3S/c1-3(7)6-4(2-10)5(8)9/h4,10H,2H2,1H3,(H,6,7)(H,8,9)/t4-/m0/s1
computed SMILES=O=C(O)C(N=C(O)C)CS
accession=JP011891
date=2016.01.19 (Created 2008.10.21, modified 2011.05.06)
author=YAMAMOTO M, DEP. CHEMISTRY, FAC. SCIENCE, NARA WOMEN'S UNIV.
license=CC BY-NC-SA
exact mass=163.03031
ionization energy=70 eV
ion type=[M]+*
computed spectral entropy=3.0177344492120057
computed normalized entropy=0.7754043655810712
SPLASH=splash10-01ox-9000000000-192b8907b32f1e180c72
submitter=submitter = University of Tokyo Team (Faculty of Engineering, University of Tokyo)
MoNA Rating=3.75

>  <NUM PEAKS>  (203) 
49

>  <MASS SPECTRAL PEAKS>  (203) 
14 1.6
15 10.56
17 1.14
18 4.01
26 1.39
27 4.61
28 18.27
29 2.36
30 5.02
32 1.01
33 1.32
34 1.18
40 2.23
41 5.8
42 13.8
43 99.99
44 12.27
45 12.3
46 5.74
47 9.76
48 2.8
55 1.65
56 1.05
57 6.71
58 5.59
59 13.79
60 79.69
61 2.41
70 3.13
71 2.24
74 32.63
75 7.78
76 31
77 1.48
78 1.37
84 2.06
85 5.52
86 8.17
87 3.95
88 4.16
99 10.48
100 4.47
117 2.75
118 4.41
120 2.07
121 1.92
130 1.3
151 1.44
163 4.05

$$$$

     RDKit          2D

 15 16  0  0  0  0  0  0  0  0999 V2000
   -2.6580   -1.6509    0.0000 C   0  0  0  0  0  0  0  0  0  0  0  0
    0.5235   -0.9751    0.0000 C   0  0  0  0  0  0  0  0  0  0  0  0
    3.4741    3.7742    0.0000 C   0  0  0  0  0  0  0  0  0  0  0  0
    3.4746    2.2734    0.0000 C   0  0  0  0  0  0  0  0  0  0  0  0
    2.1746    4.5250    0.0000 C   0  0  0  0  0  0  0  0  0  0  0  0
    2.1756    1.5234    0.0000 C   0  0  0  0  0  0  0  0  0  0  0  0
    0.8756    3.7750    0.0000 C   0  0  0  0  0  0  0  0  0  0  0  0
   -2.0485   -0.2803    0.0000 C   0  0  0  0  0  0  0  0  0  0  0  0
    0.8760    2.2742    0.0000 C   0  0  0  0  0  0  0  0  0  0  0  0
   -2.7985    1.0187    0.0000 C   0  0  0  0  0  0  0  0  0  0  0  0
   -1.7988    2.1271    0.0000 C   0  0  0  0  0  0  0  0  0  0  0  0
   -4.2902    1.1762    0.0000 N   0  0  0  0  0  0  0  0  0  0  0  0
   -0.5888    0.0313    0.0000 N   0  0  0  0  0  0  0  0  0  0  0  0
   -0.4230    1.5242    0.0000 N   0  0  0  0  0  0  0  0  0  0  0  0
   -2.1143    3.5935    0.0000 O   0  0  0  0  0  0  0  0  0  0  0  0
  4  3  2  0
  5  3  1  0
  6  4  1  0
  7  5  2  0
  8  1  1  0
  9  6  2  0
  9  7  1  0
 10  8  2  0
 11 10  1  0
 12 10  1  0
 13  2  1  0
 13  8  1  0
 14  9  1  0
 14 11  1  0
 14 13  1  0
 15 11  2  0
M  END
>  <NAME>  (204) 
4-AMINOANTIPYRINE

>  <SYNONYMS>  (204) 
4-AMINO-1,5-DIMETHYL-2-PHENYL-3H-PYRAZOL-3-ONE

>  <SPECTRUM TYPE>  (204) 
MS1

>  <INSTRUMENT TYPE>  (204) 
EI-B

>  <INSTRUMENT>  (204) 
HITACHI M-2500

>  <ION MODE>  (204) 
P

>  <INCHIKEY>  (204) 
RLFWWDJHLFCNIJ-UHFFFAOYSA-N

>  <FORMULA>  (204) 
C11H13N3O

>  <EXACT MASS>  (204) 
203.10586203600002

>  <MW>  (204) 
203

>  <ID>  (204) 
JP011890

>  <CONTRIBUTOR>  (204) 
University of Tokyo Team, {Faculty of Engineering, University of Tokyo

>  <COMMENT>  (204) 
SMILES=CC(=C(N)1)N(C)N(c(c2)cccc2)C(=O)1
cas=83-07-8
InChI=InChI=1S/C11H13N3O/c1-8-10(12)11(15)14(13(8)2)9-6-4-3-5-7-9/h3-7H,12H2,1-2H3
computed SMILES=O=C1C(N)=C(N(N1C=2C=CC=CC2)C)C
accession=JP011890
date=2016.01.19 (Created 2008.10.21, modified 2011.05.06)
author=YAMAMOTO M, DEP. CHEMISTRY, FAC. SCIENCE, NARA WOMEN'S UNIV.
license=CC BY-NC-SA
exact mass=203.10586
ionization energy=70 eV
ion type=[M]+*
computed spectral entropy=2.936607056156965
computed normalized entropy=0.7670102138188927
SPLASH=splash10-0pb9-9010000000-173f15d248e0d2eca946
submitter=submitter = University of Tokyo Team (Faculty of Engineering, University of Tokyo)
MoNA Rating=3.75

>  <NUM PEAKS>  (204) 
46

>  <MASS SPECTRAL PEAKS>  (204) 
15 7.12
18 3.18
27 3.71
28 10.44
29 2.97
30 1.8
38 2.66
39 5.47
40 1.83
41 3.46
42 43.13
43 2.57
50 3.21
51 11.53
52 4.23
53 2.21
54 8.82
55 5.04
56 99.99
57 56.97
58 1.89
62 1.04
63 4.48
64 7.46
65 5.48
66 1.47
67 1.19
69 1.57
76 1.42
77 22.63
78 3.77
82 1.02
83 20.63
84 55.41
85 2.66
91 9.77
92 3.67
93 6.76
109 1.28
118 1.01
119 7.89
120 3.53
147 2.01
202 7.06
203 77.37
204 10.42

$$$$

     RDKit          2D

  6  6  0  0  0  0  0  0  0  0999 V2000
   -1.1900    1.1700    0.0000 C   0  0  0  0  0  0  0  0  0  0  0  0
   -1.6500   -0.2500    0.0000 C   0  0  0  0  0  0  0  0  0  0  0  0
    0.7700   -0.2500    0.0000 C   0  0  0  0  0  0  0  0  0  0  0  0
    2.1960   -0.7153    0.0000 N   0  0  0  0  0  0  0  0  0  0  0  0
    0.3100    1.1800    0.0000 N   0  0  0  0  0  0  0  0  0  0  0  0
   -0.4400   -1.1300    0.0000 S   0  0  0  0  0  0  0  0  0  0  0  0
  2  1  1  0
  4  3  2  0
  5  1  1  0
  5  3  1  0
  6  2  1  0
  6  3  1  0
M  END
>  <NAME>  (205) 
2-AMINO-2-THIAZOLINE

>  <SYNONYMS>  (205) 


>  <SPECTRUM TYPE>  (205) 
MS1

>  <INSTRUMENT TYPE>  (205) 
EI-B

>  <INSTRUMENT>  (205) 
HITACHI M-2500

>  <ION MODE>  (205) 
P

>  <INCHIKEY>  (205) 
REGFWZVTTFGQOJ-UHFFFAOYSA-N

>  <FORMULA>  (205) 
C3H6N2S

>  <EXACT MASS>  (205) 
102.02516919199999

>  <MW>  (205) 
102

>  <ID>  (205) 
JP011889

>  <CONTRIBUTOR>  (205) 
University of Tokyo Team, {Faculty of Engineering, University of Tokyo

>  <COMMENT>  (205) 
cas=1779-81-3
SMILES=NC(=N1)SCC1
InChI=InChI=1S/C3H6N2S/c4-3-5-1-2-6-3/h1-2H2,(H2,4,5)
computed SMILES=N=C1SCCN1
accession=JP011889
date=2016.01.19 (Created 2008.10.21, modified 2011.05.06)
author=YAMAMOTO M, DEP. CHEMISTRY, FAC. SCIENCE, NARA WOMEN'S UNIV.
license=CC BY-NC-SA
exact mass=102.02517
ionization energy=70 eV
ion type=[M]+*
computed spectral entropy=2.5750796192398773
computed normalized entropy=0.7498803769206112
SPLASH=splash10-0zfr-9600000000-5f7e0ed9711ed988a644
submitter=submitter = University of Tokyo Team (Faculty of Engineering, University of Tokyo)
MoNA Rating=3.75

>  <NUM PEAKS>  (205) 
31

>  <MASS SPECTRAL PEAKS>  (205) 
15 1.15
18 1.97
26 1.81
27 5.36
28 12.58
29 1.34
30 1.04
32 1.81
33 1.06
40 1.87
41 2.11
42 5.6
43 18.85
45 17.08
46 4.21
47 2.78
55 11.75
56 38.16
57 1.83
58 6.5
59 26.78
60 49.79
61 3.15
62 2.1
74 4.06
75 1.05
100 1.32
101 44.68
102 99.99
103 8.76
104 4.73

$$$$

     RDKit          2D

  9  9  0  0  0  0  0  0  0  0999 V2000
    4.7380   -0.1782    0.0000 C   0  0  0  0  0  0  0  0  0  0  0  0
   -1.1900    1.1700    0.0000 C   0  0  0  0  0  0  0  0  0  0  0  0
   -1.6500   -0.2500    0.0000 C   0  0  0  0  0  0  0  0  0  0  0  0
    3.3120    0.2870    0.0000 C   0  0  0  0  0  0  0  0  0  0  0  0
    0.7700   -0.2500    0.0000 C   0  0  0  0  0  0  0  0  0  0  0  0
    0.3100    1.1800    0.0000 N   0  0  0  0  0  0  0  0  0  0  0  0
    2.1960   -0.7153    0.0000 N   0  0  0  0  0  0  0  0  0  0  0  0
    3.0019    1.7547    0.0000 O   0  0  0  0  0  0  0  0  0  0  0  0
   -0.4400   -1.1300    0.0000 S   0  0  0  0  0  0  0  0  0  0  0  0
  3  2  2  0
  4  1  1  0
  6  2  1  0
  6  5  2  0
  7  4  2  3
  7  5  1  0
  8  4  1  0
  9  3  1  0
  9  5  1  0
M  END
>  <NAME>  (206) 
ACETAMIDOTHIAZOLE

>  <SYNONYMS>  (206) 


>  <SPECTRUM TYPE>  (206) 
MS1

>  <INSTRUMENT TYPE>  (206) 
EI-B

>  <INSTRUMENT>  (206) 
HITACHI M-2500

>  <ION MODE>  (206) 
P

>  <INCHIKEY>  (206) 
WXPLRSVMGRAIGW-UHFFFAOYSA-N

>  <FORMULA>  (206) 
C5H6N2OS

>  <EXACT MASS>  (206) 
142.020083812

>  <MW>  (206) 
142

>  <ID>  (206) 
JP011888

>  <CONTRIBUTOR>  (206) 
University of Tokyo Team, {Faculty of Engineering, University of Tokyo

>  <COMMENT>  (206) 
computed SMILES=OC(=NC1=NC=CS1)C
SMILES=CC(=O)Nc(n1)scc1
InChI=InChI=1S/C5H6N2OS/c1-4(8)7-5-6-2-3-9-5/h2-3H,1H3,(H,6,7,8)
accession=JP011888
date=2016.01.19 (Created 2008.10.21, modified 2011.05.06)
author=YAMAMOTO M, DEP. CHEMISTRY, FAC. SCIENCE, NARA WOMEN'S UNIV.
license=CC BY-NC-SA
exact mass=142.02008
ionization energy=70 eV
ion type=[M]+*
computed spectral entropy=2.1035366963559174
computed normalized entropy=0.6909250102058244
SPLASH=splash10-0udl-6900000000-bd41f53ff5bef1a17372
submitter=submitter = University of Tokyo Team (Faculty of Engineering, University of Tokyo)
MoNA Rating=3.75

>  <NUM PEAKS>  (206) 
21

>  <MASS SPECTRAL PEAKS>  (206) 
15 3.67
28 3.51
40 1.02
42 2.48
43 38.71
45 8.67
46 2.18
55 7.39
57 2.67
58 16.38
59 1.47
60 1
71 1.07
73 11.18
99 1.12
100 99.99
101 5.49
102 4.76
142 29.3
143 5.47
144 1.59

$$$$

     RDKit          2D

 14 14  0  0  0  0  0  0  0  0999 V2000
   -1.3000   -0.7500    0.0000 C   0  0  0  0  0  0  0  0  0  0  0  0
    0.0000    1.5000    0.0000 C   0  0  0  0  0  0  0  0  0  0  0  0
    0.0000   -1.5000    0.0000 C   0  0  0  0  0  0  0  0  0  0  0  0
    1.3000    0.7500    0.0000 C   0  0  0  0  0  0  0  0  0  0  0  0
   -5.1970    1.5006    0.0000 C   0  0  0  0  0  0  0  0  0  0  0  0
   -1.3000    0.7500    0.0000 C   0  0  0  0  0  0  0  0  0  0  0  0
    1.3000   -0.7500    0.0000 C   0  0  0  0  0  0  0  0  0  0  0  0
   -6.4962    0.7508    0.0000 C   0  0  0  0  0  0  0  0  0  0  0  0
   -2.5989    1.5002    0.0000 C   0  0  0  0  0  0  0  0  0  0  0  0
    2.5989   -1.5002    0.0000 N   0  0  0  0  0  0  0  0  0  0  0  0
   -3.8981    0.7504    0.0000 N   0  0  0  0  0  0  0  0  0  0  0  0
   -6.4964   -0.7492    0.0000 O   0  0  0  0  0  0  0  0  0  0  0  0
   -7.7951    1.5010    0.0000 O   0  0  0  0  0  0  0  0  0  0  0  0
   -2.5987    3.0002    0.0000 O   0  0  0  0  0  0  0  0  0  0  0  0
  3  1  2  0
  4  2  1  0
  6  1  1  0
  6  2  2  0
  7  3  1  0
  7  4  2  0
  8  5  1  0
  9  6  1  0
 10  7  1  0
 11  5  1  0
 11  9  1  0
 12  8  2  0
 13  8  1  0
 14  9  2  0
M  END
>  <NAME>  (207) 
4-AMINOHIPPURIC ACID

>  <SYNONYMS>  (207) 


>  <SPECTRUM TYPE>  (207) 
MS1

>  <INSTRUMENT TYPE>  (207) 
EI-B

>  <INSTRUMENT>  (207) 
HITACHI M-2500

>  <ION MODE>  (207) 
P

>  <INCHIKEY>  (207) 
HSMNQINEKMPTIC-UHFFFAOYSA-N

>  <FORMULA>  (207) 
C9H10N2O3

>  <EXACT MASS>  (207) 
194.06914217999997

>  <MW>  (207) 
194

>  <ID>  (207) 
JP011887

>  <CONTRIBUTOR>  (207) 
University of Tokyo Team, {Faculty of Engineering, University of Tokyo

>  <COMMENT>  (207) 
SMILES=OC(=O)CNC(=O)c(c1)ccc(N)c1
cas=61-78-9
InChI=InChI=1S/C9H10N2O3/c10-7-3-1-6(2-4-7)9(14)11-5-8(12)13/h1-4H,5,10H2,(H,11,14)(H,12,13)
computed SMILES=O=C(O)CNC(=O)C1=CC=C(N)C=C1
accession=JP011887
date=2016.01.19 (Created 2008.10.21, modified 2011.05.06)
author=YAMAMOTO M, DEP. CHEMISTRY, FAC. SCIENCE, NARA WOMEN'S UNIV.
license=CC BY-NC-SA
exact mass=194.06914
ionization energy=70 eV
ion type=[M]+*
computed spectral entropy=2.1828566126829076
computed normalized entropy=0.6781425352971752
SPLASH=splash10-00di-3900000000-454a970609f4250f1022
submitter=submitter = University of Tokyo Team (Faculty of Engineering, University of Tokyo)
MoNA Rating=3.75

>  <NUM PEAKS>  (207) 
25

>  <MASS SPECTRAL PEAKS>  (207) 
18 1.65
28 2.17
39 3.98
41 1.38
44 1.08
45 1.34
52 1.39
63 2.62
64 2.5
65 15.83
66 2.37
91 2.96
92 22.44
93 2.4
119 2.95
120 99.99
121 8.61
149 5.92
150 15.38
151 1.89
160 2.79
161 1.93
176 1.02
194 24.58
195 2.66

$$$$

     RDKit          2D

  7  7  0  0  0  0  0  0  0  0999 V2000
    1.3000    0.7500    0.0000 C   0  0  0  0  0  0  0  0  0  0  0  0
   -1.3000    0.7500    0.0000 C   0  0  0  0  0  0  0  0  0  0  0  0
    1.3000    2.2500    0.0000 C   0  0  0  0  0  0  0  0  0  0  0  0
   -1.3000    2.2500    0.0000 C   0  0  0  0  0  0  0  0  0  0  0  0
   -0.0000    0.0000    0.0000 C   0  0  0  0  0  0  0  0  0  0  0  0
   -0.0000   -1.5000    0.0000 N   0  0  0  0  0  0  0  0  0  0  0  0
    0.0000    3.0000    0.0000 N   0  0  0  0  0  0  0  0  0  0  0  0
  3  1  2  0
  4  2  2  0
  5  1  1  0
  5  2  1  0
  6  5  2  0
  7  3  1  0
  7  4  1  0
M  END
>  <NAME>  (208) 
4-AMINOPYRIDINE

>  <SYNONYMS>  (208) 


>  <SPECTRUM TYPE>  (208) 
MS1

>  <INSTRUMENT TYPE>  (208) 
EI-B

>  <INSTRUMENT>  (208) 
HITACHI M-2500

>  <ION MODE>  (208) 
P

>  <INCHIKEY>  (208) 
NUKYPUAOHBNCPY-UHFFFAOYSA-N

>  <FORMULA>  (208) 
C5H6N2

>  <EXACT MASS>  (208) 
94.053098192

>  <MW>  (208) 
94

>  <ID>  (208) 
JP011886

>  <CONTRIBUTOR>  (208) 
University of Tokyo Team, {Faculty of Engineering, University of Tokyo

>  <COMMENT>  (208) 
SMILES=Nc(c1)ccnc1
cas=504-24-5
InChI=InChI=1S/C5H6N2/c6-5-1-3-7-4-2-5/h1-4H,(H2,6,7)
computed SMILES=N=C1C=CNC=C1
accession=JP011886
date=2016.01.19 (Created 2008.10.21, modified 2011.05.06)
author=YAMAMOTO M, DEP. CHEMISTRY, FAC. SCIENCE, NARA WOMEN'S UNIV.
license=CC BY-NC-SA
exact mass=94.0531
ionization energy=70 eV
ion type=[M]+*
computed spectral entropy=2.2512117958909537
computed normalized entropy=0.7179767018718118
SPLASH=splash10-0006-9000000000-d76cf775a4e0c55c9a50
submitter=submitter = University of Tokyo Team (Faculty of Engineering, University of Tokyo)
MoNA Rating=3.75

>  <NUM PEAKS>  (208) 
23

>  <MASS SPECTRAL PEAKS>  (208) 
26 2.35
27 1.08
28 5.96
37 1.89
38 4.09
39 10.35
40 8.4
41 18.77
42 3.84
43 1.36
50 2.79
51 3.77
52 6.07
53 1.51
54 4.55
64 1
65 2.43
66 8.64
67 35.06
68 4.67
93 9.2
94 99.99
95 7.49

$$$$

     RDKit          2D

 11 11  0  0  0  0  0  0  0  0999 V2000
   -1.3447   -0.7348    0.0000 C   0  0  0  0  0  0  0  0  0  0  0  0
   -0.0056    1.4938    0.0000 C   0  0  0  0  0  0  0  0  0  0  0  0
   -0.0401   -1.4954    0.0000 C   0  0  0  0  0  0  0  0  0  0  0  0
    1.2682    0.7401    0.0000 C   0  0  0  0  0  0  0  0  0  0  0  0
   -1.3146    0.7521    0.0000 C   0  0  0  0  0  0  0  0  0  0  0  0
    1.2638   -0.7622    0.0000 C   0  0  0  0  0  0  0  0  0  0  0  0
   -3.9124    0.7888    0.0000 N   0  0  0  0  0  0  0  0  0  0  0  0
   -2.6029    1.5204    0.0000 N   0  0  0  0  0  0  0  0  0  0  0  0
    2.5575   -1.5214    0.0000 N   0  0  0  0  0  0  0  0  0  0  0  0
    3.8618   -0.7807    0.0000 O   0  0  0  0  0  0  0  0  0  0  0  0
    2.5468   -3.0214    0.0000 O   0  0  0  0  0  0  0  0  0  0  0  0
  3  1  2  0
  4  2  1  0
  5  1  1  0
  5  2  2  0
  6  3  1  0
  6  4  2  0
  8  5  1  0
  8  7  1  0
  9  6  1  0
 10  9  1  0
 11  9  2  0
M  CHG  2   9   1  10  -1
M  END
>  <NAME>  (209) 
4-NITROPHENYLHYDRAZINE

>  <SYNONYMS>  (209) 


>  <SPECTRUM TYPE>  (209) 
MS1

>  <INSTRUMENT TYPE>  (209) 
EI-B

>  <INSTRUMENT>  (209) 
HITACHI M-2500

>  <ION MODE>  (209) 
P

>  <INCHIKEY>  (209) 
KMVPXBDOWDXXEN-UHFFFAOYSA-N

>  <FORMULA>  (209) 
C6H7N3O2

>  <EXACT MASS>  (209) 
153.053826464

>  <MW>  (209) 
153

>  <ID>  (209) 
JP011885

>  <CONTRIBUTOR>  (209) 
University of Tokyo Team, {Faculty of Engineering, University of Tokyo

>  <COMMENT>  (209) 
SMILES=NNc(c1)ccc(c1)[N+1]([O-1])=O
cas=100-16-3
InChI=InChI=1S/C6H7N3O2/c7-8-5-1-3-6(4-2-5)9(10)11/h1-4,8H,7H2
computed SMILES=O=N(=O)C1=CC=C(C=C1)NN
accession=JP011885
date=2016.01.19 (Created 2008.10.21, modified 2011.05.06)
author=YAMAMOTO M, DEP. CHEMISTRY, FAC. SCIENCE, NARA WOMEN'S UNIV.
license=CC BY-NC-SA
exact mass=153.05383
ionization energy=70 eV
ion type=[M]+*
computed spectral entropy=3.4331273771181614
computed normalized entropy=0.8455056180325903
SPLASH=splash10-0udi-9500000000-c35caa4cc0f2fbabad94
submitter=submitter = University of Tokyo Team (Faculty of Engineering, University of Tokyo)
MoNA Rating=3.75

>  <NUM PEAKS>  (209) 
58

>  <MASS SPECTRAL PEAKS>  (209) 
17 2.03
18 7.85
26 1.09
27 2.16
28 5.12
29 3.09
30 7.59
31 1.94
37 2.66
38 5.89
39 11.28
40 1.67
41 3.96
42 1.06
43 1.23
46 1.51
50 14.58
51 12.73
52 10.33
53 9.88
54 2.56
56 1.11
61 2.66
62 6.05
63 26.89
64 16.01
65 13.06
66 2.3
67 1.79
73 1.25
74 7.04
75 7.36
76 9.63
77 9.6
78 5.88
79 4.1
80 22.78
81 3.59
90 32.24
91 13.38
92 4.97
93 2.85
105 2.94
106 5.35
107 14.25
108 3.92
109 4.51
122 5.05
123 31.92
124 2.41
137 1.98
138 3.74
139 5.82
150 4.33
151 7
152 1.19
153 99.99
154 8

$$$$

     RDKit          2D

 15 16  0  0  0  0  0  0  0  0999 V2000
   -3.0000    0.7500    0.0000 C   0  0  0  0  0  0  0  0  0  0  0  0
   -3.0000   -0.7500    0.0000 C   0  0  0  0  0  0  0  0  0  0  0  0
   -1.7000    1.5000    0.0000 C   0  0  0  0  0  0  0  0  0  0  0  0
   -1.7000   -1.5000    0.0000 C   0  0  0  0  0  0  0  0  0  0  0  0
    3.4100   -0.0000    0.0000 C   0  0  0  0  0  0  0  0  0  0  0  0
   -0.4000    0.7500    0.0000 C   0  0  0  0  0  0  0  0  0  0  0  0
   -0.4000   -0.7500    0.0000 C   0  0  0  0  0  0  0  0  0  0  0  0
    4.1600    1.2990    0.0000 C   0  0  0  0  0  0  0  0  0  0  0  0
    1.0300    1.2100    0.0000 C   0  0  0  0  0  0  0  0  0  0  0  0
    1.0300   -1.2100    0.0000 C   0  0  0  0  0  0  0  0  0  0  0  0
    1.9100    0.0000    0.0000 N   0  0  0  0  0  0  0  0  0  0  0  0
    3.4100    2.5981    0.0000 O   0  0  0  0  0  0  0  0  0  0  0  0
    5.6600    1.2990    0.0000 O   0  0  0  0  0  0  0  0  0  0  0  0
    1.4953    2.6360    0.0000 O   0  0  0  0  0  0  0  0  0  0  0  0
    1.4953   -2.6360    0.0000 O   0  0  0  0  0  0  0  0  0  0  0  0
  2  1  2  0
  3  1  1  0
  4  2  1  0
  6  3  2  0
  7  4  2  0
  7  6  1  0
  8  5  1  0
  9  6  1  0
 10  7  1  0
 11  5  1  0
 11  9  1  0
 11 10  1  0
 12  8  2  0
 13  8  1  0
 14  9  2  0
 15 10  2  0
M  END
>  <NAME>  (210) 
N-PHTHALOYLGLYCINE

>  <SYNONYMS>  (210) 
1,3-DIOXO-2-ISOINDOLINEACETIC ACID

>  <SPECTRUM TYPE>  (210) 
MS1

>  <INSTRUMENT TYPE>  (210) 
EI-B

>  <INSTRUMENT>  (210) 
HITACHI M-2500

>  <ION MODE>  (210) 
P

>  <INCHIKEY>  (210) 
WQINSVOOIJDOLJ-UHFFFAOYSA-N

>  <FORMULA>  (210) 
C10H7NO4

>  <EXACT MASS>  (210) 
205.03750770399998

>  <MW>  (210) 
205

>  <ID>  (210) 
JP011884

>  <CONTRIBUTOR>  (210) 
University of Tokyo Team, {Faculty of Engineering, University of Tokyo

>  <COMMENT>  (210) 
SMILES=OC(=O)Cn(c(=O)1)c(=O)c(c2)c(ccc2)1
cas=4702-13-0
InChI=InChI=1S/C10H7NO4/c12-8(13)5-11-9(14)6-3-1-2-4-7(6)10(11)15/h1-4H,5H2,(H,12,13)
computed SMILES=O=C(O)CN1C(=O)C=2C=CC=CC2C1=O
accession=JP011884
date=2016.01.19 (Created 2008.10.21, modified 2011.05.06)
author=YAMAMOTO M, DEP. CHEMISTRY, FAC. SCIENCE, NARA WOMEN'S UNIV.
license=CC BY-NC-SA
exact mass=205.03751
ionization energy=70 eV
ion type=[M]+*
computed spectral entropy=2.1451974027623
computed normalized entropy=0.6841656386620403
SPLASH=splash10-03di-2900000000-3333d17a667406bf7e82
submitter=submitter = University of Tokyo Team (Faculty of Engineering, University of Tokyo)
MoNA Rating=3.75

>  <NUM PEAKS>  (210) 
23

>  <MASS SPECTRAL PEAKS>  (210) 
28 1.13
38 1.19
45 2.29
50 8.98
51 3.69
52 1.5
66 1.8
74 5.02
75 5.64
76 16.12
77 13.78
78 1.53
102 1.24
104 14.66
105 6.48
117 1.71
130 1.58
132 3.37
133 10.74
160 99.99
161 66.81
162 6.71
205 1.42

$$$$

     RDKit          2D

 10 10  0  0  0  0  0  0  0  0999 V2000
   -3.9008    0.7413    0.0000 C   0  0  0  0  0  0  0  0  0  0  0  0
    0.0072   -1.5063    0.0000 C   0  0  0  0  0  0  0  0  0  0  0  0
    1.3207    0.7186    0.0000 C   0  0  0  0  0  0  0  0  0  0  0  0
   -1.2773   -0.7814    0.0000 C   0  0  0  0  0  0  0  0  0  0  0  0
   -0.0038    1.5127    0.0000 C   0  0  0  0  0  0  0  0  0  0  0  0
    2.6016   -1.5127    0.0000 C   0  0  0  0  0  0  0  0  0  0  0  0
    1.3062   -0.7563    0.0000 C   0  0  0  0  0  0  0  0  0  0  0  0
   -1.3028    0.7627    0.0000 C   0  0  0  0  0  0  0  0  0  0  0  0
    3.9043   -0.7691    0.0000 N   0  0  0  0  0  0  0  0  0  0  0  0
   -2.6080    1.5020    0.0000 O   0  0  0  0  0  0  0  0  0  0  0  0
  4  2  2  0
  5  3  1  0
  7  2  1  0
  7  3  2  0
  7  6  1  0
  8  4  1  0
  8  5  2  0
  9  6  1  0
 10  1  1  0
 10  8  1  0
M  END
>  <NAME>  (211) 
4-METHOXYBENZYLAMINE

>  <SYNONYMS>  (211) 


>  <SPECTRUM TYPE>  (211) 
MS1

>  <INSTRUMENT TYPE>  (211) 
EI-B

>  <INSTRUMENT>  (211) 
HITACHI M-2500

>  <ION MODE>  (211) 
P

>  <INCHIKEY>  (211) 
IDPURXSQCKYKIJ-UHFFFAOYSA-N

>  <FORMULA>  (211) 
C8H11NO

>  <EXACT MASS>  (211) 
137.084063972

>  <MW>  (211) 
137

>  <ID>  (211) 
JP011883

>  <CONTRIBUTOR>  (211) 
University of Tokyo Team, {Faculty of Engineering, University of Tokyo

>  <COMMENT>  (211) 
SMILES=NCc(c1)ccc(OC)c1
cas=2393-23-9
InChI=InChI=1S/C8H11NO/c1-10-8-4-2-7(6-9)3-5-8/h2-5H,6,9H2,1H3
computed SMILES=O(C1=CC=C(C=C1)CN)C
accession=JP011883
date=2016.01.19 (Created 2008.10.21, modified 2011.05.06)
author=YAMAMOTO M, DEP. CHEMISTRY, FAC. SCIENCE, NARA WOMEN'S UNIV.
license=CC BY-NC-SA
exact mass=137.08406
ionization energy=70 eV
ion type=[M]+*
computed spectral entropy=3.0758947009703634
computed normalized entropy=0.7862670277507037
SPLASH=splash10-000i-4900000000-cf58462d070dccc8a608
submitter=submitter = University of Tokyo Team (Faculty of Engineering, University of Tokyo)
MoNA Rating=3.75

>  <NUM PEAKS>  (211) 
50

>  <MASS SPECTRAL PEAKS>  (211) 
15 3.22
27 1.53
28 10.18
29 1.73
30 14.9
38 2.03
39 6.42
40 1.16
41 3.32
50 3.93
51 6.41
52 3.12
53 1.46
54 1.32
62 1.46
63 4.96
64 3.3
65 7.08
66 5.72
67 4.24
74 1.25
76 1.31
77 14.95
78 9.61
79 5.93
81 1.21
89 3.72
90 1.17
91 6.76
92 3.08
93 8.65
94 12.77
95 2.38
104 4.26
105 5.68
106 41.32
107 4.9
108 8.77
109 18.8
110 1.57
119 5.25
120 11.97
121 40
122 9.32
123 1.11
134 3.14
135 1.62
136 99.99
137 82.86
138 8.07

$$$$

     RDKit          2D

 25 29  0  0  0  0  0  0  0  0999 V2000
    3.2476    9.3717    0.0000 C   0  0  0  0  0  0  0  0  0  0  0  0
    0.6495    9.3717    0.0000 C   0  0  0  0  0  0  0  0  0  0  0  0
   -3.2500   -1.8800    0.0000 C   0  0  0  0  0  0  0  0  0  0  0  0
   -1.9500   -2.6200    0.0000 C   0  0  0  0  0  0  0  0  0  0  0  0
   -3.2500   -0.3800    0.0000 C   0  0  0  0  0  0  0  0  0  0  0  0
    0.6500   -2.6200    0.0000 C   0  0  0  0  0  0  0  0  0  0  0  0
    1.9500   -1.8800    0.0000 C   0  0  0  0  0  0  0  0  0  0  0  0
    3.2489    4.8702    0.0000 C   0  0  0  0  0  0  0  0  0  0  0  0
    0.6504    4.8706    0.0000 C   0  0  0  0  0  0  0  0  0  0  0  0
    3.2500    0.3800    0.0000 C   0  0  0  0  0  0  0  0  0  0  0  0
   -1.9500    1.8800    0.0000 C   0  0  0  0  0  0  0  0  0  0  0  0
    3.2482    6.3710    0.0000 C   0  0  0  0  0  0  0  0  0  0  0  0
    0.6496    6.3715    0.0000 C   0  0  0  0  0  0  0  0  0  0  0  0
    3.2500    1.8800    0.0000 C   0  0  0  0  0  0  0  0  0  0  0  0
   -0.6500    2.6200    0.0000 C   0  0  0  0  0  0  0  0  0  0  0  0
    1.9500    4.1200    0.0000 C   0  0  0  0  0  0  0  0  0  0  0  0
   -0.6500   -1.8800    0.0000 C   0  0  0  0  0  0  0  0  0  0  0  0
   -1.9500    0.3800    0.0000 C   0  0  0  0  0  0  0  0  0  0  0  0
    1.9500   -0.3800    0.0000 C   0  0  0  0  0  0  0  0  0  0  0  0
    1.9486    7.1217    0.0000 C   0  0  0  0  0  0  0  0  0  0  0  0
    1.9500    2.6200    0.0000 C   0  0  0  0  0  0  0  0  0  0  0  0
    0.6500    1.8800    0.0000 C   0  0  0  0  0  0  0  0  0  0  0  0
   -0.6500   -0.3800    0.0000 C   0  0  0  0  0  0  0  0  0  0  0  0
    0.6500    0.3800    0.0000 C   0  0  0  0  0  0  0  0  0  0  0  0
    1.9486    8.6217    0.0000 N   0  0  0  0  0  0  0  0  0  0  0  0
  4  3  2  0
  5  3  1  0
  7  6  1  0
 12  8  2  0
 13  9  1  0
 14 10  2  0
 15 11  2  0
 16  8  1  0
 16  9  2  0
 17  4  1  0
 17  6  2  0
 18  5  2  0
 18 11  1  0
 19  7  2  0
 19 10  1  0
 20 12  1  0
 20 13  2  0
 21 14  1  0
 21 16  1  0
 22 15  1  0
 22 21  2  0
 23 17  1  0
 23 18  1  0
 24 19  1  0
 24 22  1  0
 24 23  2  0
 25  1  1  0
 25  2  1  0
 25 20  1  0
M  END
>  <NAME>  (212) 
1-(4-DIMETHYLAMINOPHENYL)PYRENE

>  <SYNONYMS>  (212) 


>  <SPECTRUM TYPE>  (212) 
MS1

>  <INSTRUMENT TYPE>  (212) 
EI-B

>  <INSTRUMENT>  (212) 
HITACHI RMU-6M

>  <ION MODE>  (212) 
P

>  <INCHIKEY>  (212) 
VYIYLDMJKOXUIV-UHFFFAOYSA-N

>  <FORMULA>  (212) 
C24H19N

>  <EXACT MASS>  (212) 
321.15174960800005

>  <MW>  (212) 
321

>  <ID>  (212) 
JP011882

>  <CONTRIBUTOR>  (212) 
University of Tokyo Team, {Faculty of Engineering, University of Tokyo

>  <COMMENT>  (212) 
SMILES=CN(C)c(c5)ccc(c5)c(c4)c(c1)c(c3c4)c(c2cc3)c(ccc2)c1
InChI=InChI=1S/C24H19N/c1-25(2)20-12-8-16(9-13-20)21-14-10-19-7-6-17-4-3-5-18-11-15-22(21)24(19)23(17)18/h3-15H,1-2H3
computed SMILES=C1=CC=2C=CC3=CC=C(C4=CC=C(C=C4)N(C)C)C=5C=CC(=C1)C2C35
accession=JP011882
date=2016.01.19 (Created 2008.10.21, modified 2011.05.06)
author=YAMAMOTO M, DEP. CHEMISTRY, FAC. SCIENCE, NARA WOMEN'S UNIV.
license=CC BY-NC-SA
exact mass=321.15175
ionization energy=70 eV
ion type=[M]+*
computed spectral entropy=2.9785194356562794
computed normalized entropy=0.8377574808831831
SPLASH=splash10-00di-0549000000-a79cacf4b1bf9fe2c879
submitter=submitter = University of Tokyo Team (Faculty of Engineering, University of Tokyo)
MoNA Rating=3.75

>  <NUM PEAKS>  (212) 
35

>  <MASS SPECTRAL PEAKS>  (212) 
41 2.7
42 6
43 3
44 3
125 5.3
125.5 2
126 2
137 7
137.5 5.3
138 23.3
138.5 10.6
139 3.3
153 14
153.5 11
160.5 14.3
161 11
161.5 3.1
201 3.3
202 2
203 4.1
262 2
263 2.3
264 5.6
265 3.3
275 6.6
276 6.3
277 26.6
278 15
279 7.6
305 14
306 10.3
307 14
320 12
321 99.99
322 28.6

$$$$

     RDKit          2D

 22 25  0  0  0  0  0  0  0  0999 V2000
   -1.3005    8.5917    0.0000 C   0  0  0  0  0  0  0  0  0  0  0  0
    1.2976    8.5917    0.0000 C   0  0  0  0  0  0  0  0  0  0  0  0
    3.2200   -1.2700    0.0000 C   0  0  0  0  0  0  0  0  0  0  0  0
   -3.2200   -1.2700    0.0000 C   0  0  0  0  0  0  0  0  0  0  0  0
    3.6900    0.1600    0.0000 C   0  0  0  0  0  0  0  0  0  0  0  0
   -3.6800    0.1600    0.0000 C   0  0  0  0  0  0  0  0  0  0  0  0
    1.7500   -1.5800    0.0000 C   0  0  0  0  0  0  0  0  0  0  0  0
   -1.7500   -1.5800    0.0000 C   0  0  0  0  0  0  0  0  0  0  0  0
    2.6800    1.2700    0.0000 C   0  0  0  0  0  0  0  0  0  0  0  0
   -2.6800    1.2700    0.0000 C   0  0  0  0  0  0  0  0  0  0  0  0
    1.2989    4.0902    0.0000 C   0  0  0  0  0  0  0  0  0  0  0  0
   -1.2996    4.0906    0.0000 C   0  0  0  0  0  0  0  0  0  0  0  0
    1.2982    5.5910    0.0000 C   0  0  0  0  0  0  0  0  0  0  0  0
   -1.3004    5.5915    0.0000 C   0  0  0  0  0  0  0  0  0  0  0  0
   -0.0000    3.3400    0.0000 C   0  0  0  0  0  0  0  0  0  0  0  0
   -0.0014    6.3417    0.0000 C   0  0  0  0  0  0  0  0  0  0  0  0
    0.7500   -0.4700    0.0000 C   0  0  0  0  0  0  0  0  0  0  0  0
   -0.7500   -0.4700    0.0000 C   0  0  0  0  0  0  0  0  0  0  0  0
    1.2100    0.9600    0.0000 C   0  0  0  0  0  0  0  0  0  0  0  0
   -1.2100    0.9600    0.0000 C   0  0  0  0  0  0  0  0  0  0  0  0
   -0.0000    1.8400    0.0000 C   0  0  0  0  0  0  0  0  0  0  0  0
   -0.0014    7.8417    0.0000 N   0  0  0  0  0  0  0  0  0  0  0  0
  5  3  2  0
  6  4  2  0
  7  3  1  0
  8  4  1  0
  9  5  1  0
 10  6  1  0
 13 11  2  0
 14 12  1  0
 15 11  1  0
 15 12  2  0
 16 13  1  0
 16 14  2  0
 17  7  2  0
 18  8  2  0
 18 17  1  0
 19  9  2  0
 19 17  1  0
 20 10  2  0
 20 18  1  0
 21 15  1  0
 21 19  1  0
 21 20  1  0
 22  1  1  0
 22  2  1  0
 22 16  1  0
M  END
>  <NAME>  (213) 
9-(4-DIMETHYLAMINOPHENYL)FLUORENE

>  <SYNONYMS>  (213) 


>  <SPECTRUM TYPE>  (213) 
MS1

>  <INSTRUMENT TYPE>  (213) 
EI-B

>  <INSTRUMENT>  (213) 
HITACHI RMU-6M

>  <ION MODE>  (213) 
P

>  <INCHIKEY>  (213) 
WKIKVLRCRQYTJZ-UHFFFAOYSA-N

>  <FORMULA>  (213) 
C21H19N

>  <EXACT MASS>  (213) 
285.15174960800005

>  <MW>  (213) 
285

>  <ID>  (213) 
JP011881

>  <CONTRIBUTOR>  (213) 
University of Tokyo Team, {Faculty of Engineering, University of Tokyo

>  <COMMENT>  (213) 
SMILES=CN(C)c(c4)ccc(c4)C(c21)c(c3)c(ccc3)c(cccc2)1
InChI=InChI=1S/C21H19N/c1-22(2)16-13-11-15(12-14-16)21-19-9-5-3-7-17(19)18-8-4-6-10-20(18)21/h3-14,21H,1-2H3
computed SMILES=C=1C=CC2=C(C1)C=3C=CC=CC3C2C4=CC=C(C=C4)N(C)C
accession=JP011881
date=2016.01.19 (Created 2008.10.21, modified 2011.05.06)
author=YAMAMOTO M, DEP. CHEMISTRY, FAC. SCIENCE, NARA WOMEN'S UNIV.
license=CC BY-NC-SA
exact mass=285.15175
ionization energy=70 eV
ion type=[M]+*
computed spectral entropy=3.602495642568417
computed normalized entropy=0.8152581100599503
SPLASH=splash10-000i-1290000000-6fb9f74edac5f1de294d
submitter=submitter = University of Tokyo Team (Faculty of Engineering, University of Tokyo)
MoNA Rating=3.75

>  <NUM PEAKS>  (213) 
83

>  <MASS SPECTRAL PEAKS>  (213) 
41 1.9
42 9
43 1.9
44 1.6
50 2.2
51 3.4
52 2.2
63 3.8
65 1.6
68 1.7
69 1.5
70 2.2
71 1.5
75 1.9
76 1.6
77 2.4
78 3
79 1.6
118.5 2.2
119 2.4
119.5 4.9
120 6.9
120.5 8.5
121 2.8
134 2
134.5 1.7
135 1.6
135.5 1.4
142 7.2
142.5 5.6
143 7.7
150 1.6
151 1.6
152 1.6
153 2.8
154 1.1
164 5
165 3.6
166 17.9
167 4.9
177 1.7
179 2.3
188 2.7
189 1.4
190 2.9
194 1.4
194.5 1.4
195 1.4
195.5 1.7
196 1.1
201 2
202 2
203 5.4
204 2
212 0.7
213 0.8
214 3.2
215 1.4
216 4
217 1.6
224 1.6
225 2.9
226 2.7
227 5.6
228 3.5
229 3.3
230 2.4
240 20.1
241 9.6
242 27.7
243 8
269 14.1
270 18.5
271 16.9
272 3.3
283 4.8
284 49
285 99.99
286 22.9
390 4.8
391 2.9
405 12.4
406 5.2

$$$$

     RDKit          2D

 23 26  0  0  0  0  0  0  0  0999 V2000
   -1.3005    8.2517    0.0000 C   0  0  0  0  0  0  0  0  0  0  0  0
    1.2976    8.2517    0.0000 C   0  0  0  0  0  0  0  0  0  0  0  0
    3.9000   -0.7500    0.0000 C   0  0  0  0  0  0  0  0  0  0  0  0
   -3.9000   -0.7500    0.0000 C   0  0  0  0  0  0  0  0  0  0  0  0
    3.9000    0.7500    0.0000 C   0  0  0  0  0  0  0  0  0  0  0  0
   -3.9000    0.7500    0.0000 C   0  0  0  0  0  0  0  0  0  0  0  0
    2.6000   -1.5000    0.0000 C   0  0  0  0  0  0  0  0  0  0  0  0
   -2.6000   -1.5000    0.0000 C   0  0  0  0  0  0  0  0  0  0  0  0
    2.6000    1.5000    0.0000 C   0  0  0  0  0  0  0  0  0  0  0  0
   -2.6000    1.5000    0.0000 C   0  0  0  0  0  0  0  0  0  0  0  0
    1.2989    3.7502    0.0000 C   0  0  0  0  0  0  0  0  0  0  0  0
   -1.2996    3.7506    0.0000 C   0  0  0  0  0  0  0  0  0  0  0  0
    1.2982    5.2510    0.0000 C   0  0  0  0  0  0  0  0  0  0  0  0
   -1.3004    5.2515    0.0000 C   0  0  0  0  0  0  0  0  0  0  0  0
   -0.0000   -1.5000    0.0000 C   0  0  0  0  0  0  0  0  0  0  0  0
   -0.0000    3.0000    0.0000 C   0  0  0  0  0  0  0  0  0  0  0  0
    1.3000   -0.7500    0.0000 C   0  0  0  0  0  0  0  0  0  0  0  0
   -1.3000   -0.7500    0.0000 C   0  0  0  0  0  0  0  0  0  0  0  0
   -0.0014    6.0017    0.0000 C   0  0  0  0  0  0  0  0  0  0  0  0
    1.3000    0.7500    0.0000 C   0  0  0  0  0  0  0  0  0  0  0  0
   -1.3000    0.7500    0.0000 C   0  0  0  0  0  0  0  0  0  0  0  0
   -0.0000    1.5000    0.0000 C   0  0  0  0  0  0  0  0  0  0  0  0
   -0.0014    7.5017    0.0000 N   0  0  0  0  0  0  0  0  0  0  0  0
  5  3  2  0
  6  4  1  0
  7  3  1  0
  8  4  2  0
  9  5  1  0
 10  6  2  0
 13 11  2  0
 14 12  1  0
 16 11  1  0
 16 12  2  0
 17  7  2  0
 17 15  1  0
 18  8  1  0
 18 15  2  0
 19 13  1  0
 19 14  2  0
 20  9  2  0
 20 17  1  0
 21 10  1  0
 21 18  1  0
 22 16  1  0
 22 20  1  0
 22 21  2  0
 23  1  1  0
 23  2  1  0
 23 19  1  0
M  END
>  <NAME>  (214) 
9-(4-DIMETHYLAMINOPHENYL)ANTHRACENE

>  <SYNONYMS>  (214) 


>  <SPECTRUM TYPE>  (214) 
MS1

>  <INSTRUMENT TYPE>  (214) 
EI-B

>  <INSTRUMENT>  (214) 
HITACHI RMU-6M

>  <ION MODE>  (214) 
P

>  <INCHIKEY>  (214) 
CPADYVIHWPZXEE-UHFFFAOYSA-N

>  <FORMULA>  (214) 
C22H19N

>  <EXACT MASS>  (214) 
297.151749608

>  <MW>  (214) 
297

>  <ID>  (214) 
JP011880

>  <CONTRIBUTOR>  (214) 
University of Tokyo Team, {Faculty of Engineering, University of Tokyo

>  <COMMENT>  (214) 
SMILES=CN(C)c(c4)ccc(c4)c(c21)c(c3)c(ccc3)cc(cccc2)1
InChI=InChI=1S/C22H19N/c1-23(2)19-13-11-16(12-14-19)22-20-9-5-3-7-17(20)15-18-8-4-6-10-21(18)22/h3-15H,1-2H3
computed SMILES=C=1C=CC2=C(C1)C=C3C=CC=CC3=C2C4=CC=C(C=C4)N(C)C
accession=JP011880
date=2016.01.19 (Created 2008.10.21, modified 2011.05.06)
author=YAMAMOTO M, DEP. CHEMISTRY, FAC. SCIENCE, NARA WOMEN'S UNIV.
license=CC BY-NC-SA
exact mass=297.15175
ionization energy=70 eV
ion type=[M]+*
computed spectral entropy=3.1121008358169995
computed normalized entropy=0.7801737985132987
SPLASH=splash10-0002-0190000000-845bf0e1c4a18c3e7e1a
submitter=submitter = University of Tokyo Team (Faculty of Engineering, University of Tokyo)
MoNA Rating=3.75

>  <NUM PEAKS>  (214) 
54

>  <MASS SPECTRAL PEAKS>  (214) 
40 1.3
41 0.8
42 3.3
43 0.8
44 0.8
112.5 1.9
113 1.3
113.5 5
114 1.4
125.5 4.9
126 2.6
126.5 11.1
127 5.3
140 1.3
140.5 2
141 1.9
141.5 1.7
147.5 2.3
148 7.4
148.5 7.2
149 2
200 1.7
201 3.4
202 2
213 1.8
214 0.8
215 1.7
224 1.9
225 2
226 4.5
227 1.8
228 1.4
237 1.8
238 1.3
239 3.6
240 2.6
250 4.5
251 6
252 26.7
253 18
254 5.3
264 6
265 4.2
266 4.5
267 4.2
280 3
281 8.3
282 6.8
283 3
295 3.8
296 15.8
297 99.99
298 26.3
299 3.8

$$$$

     RDKit          2D

 19 21  0  0  0  0  0  0  0  0999 V2000
    2.4776    7.9817    0.0000 C   0  0  0  0  0  0  0  0  0  0  0  0
   -0.1205    7.9817    0.0000 C   0  0  0  0  0  0  0  0  0  0  0  0
   -2.7200   -1.0200    0.0000 C   0  0  0  0  0  0  0  0  0  0  0  0
   -2.7200    0.4800    0.0000 C   0  0  0  0  0  0  0  0  0  0  0  0
    2.4800   -1.0200    0.0000 C   0  0  0  0  0  0  0  0  0  0  0  0
   -1.4200   -1.7700    0.0000 C   0  0  0  0  0  0  0  0  0  0  0  0
    1.1800   -1.7700    0.0000 C   0  0  0  0  0  0  0  0  0  0  0  0
   -1.4200    1.2300    0.0000 C   0  0  0  0  0  0  0  0  0  0  0  0
    2.4800    0.4800    0.0000 C   0  0  0  0  0  0  0  0  0  0  0  0
    2.4789    3.4802    0.0000 C   0  0  0  0  0  0  0  0  0  0  0  0
   -0.1196    3.4806    0.0000 C   0  0  0  0  0  0  0  0  0  0  0  0
    2.4782    4.9810    0.0000 C   0  0  0  0  0  0  0  0  0  0  0  0
   -0.1204    4.9815    0.0000 C   0  0  0  0  0  0  0  0  0  0  0  0
   -0.1200   -1.0200    0.0000 C   0  0  0  0  0  0  0  0  0  0  0  0
    1.1800    2.7300    0.0000 C   0  0  0  0  0  0  0  0  0  0  0  0
    1.1786    5.7317    0.0000 C   0  0  0  0  0  0  0  0  0  0  0  0
   -0.1200    0.4800    0.0000 C   0  0  0  0  0  0  0  0  0  0  0  0
    1.1800    1.2300    0.0000 C   0  0  0  0  0  0  0  0  0  0  0  0
    1.1786    7.2317    0.0000 N   0  0  0  0  0  0  0  0  0  0  0  0
  4  3  2  0
  6  3  1  0
  7  5  2  0
  8  4  1  0
  9  5  1  0
 12 10  2  0
 13 11  1  0
 14  6  2  0
 14  7  1  0
 15 10  1  0
 15 11  2  0
 16 12  1  0
 16 13  2  0
 17  8  2  0
 17 14  1  0
 18  9  2  0
 18 15  1  0
 18 17  1  0
 19  1  1  0
 19  2  1  0
 19 16  1  0
M  END
>  <NAME>  (215) 
1-(4-DIMETHYLAMINOPHENYL)NAPHTHALENE

>  <SYNONYMS>  (215) 


>  <SPECTRUM TYPE>  (215) 
MS1

>  <INSTRUMENT TYPE>  (215) 
EI-B

>  <INSTRUMENT>  (215) 
HITACHI RMU-6M

>  <ION MODE>  (215) 
P

>  <INCHIKEY>  (215) 
VEXNITXCNXSHHK-UHFFFAOYSA-N

>  <FORMULA>  (215) 
C18H17N

>  <EXACT MASS>  (215) 
247.136099544

>  <MW>  (215) 
247

>  <ID>  (215) 
JP011879

>  <CONTRIBUTOR>  (215) 
University of Tokyo Team, {Faculty of Engineering, University of Tokyo

>  <COMMENT>  (215) 
SMILES=CN(C)c(c3)ccc(c3)c(c1)c(c2)c(ccc2)cc1
InChI=InChI=1S/C18H17N/c1-19(2)16-12-10-15(11-13-16)18-9-5-7-14-6-3-4-8-17(14)18/h3-13H,1-2H3
computed SMILES=C=1C=CC2=C(C1)C=CC=C2C3=CC=C(C=C3)N(C)C
accession=JP011879
date=2016.01.19 (Created 2008.10.21, modified 2011.05.06)
author=YAMAMOTO M, DEP. CHEMISTRY, FAC. SCIENCE, NARA WOMEN'S UNIV.
license=CC BY-NC-SA
exact mass=247.1361
ionization energy=70 eV
ion type=[M]+*
computed spectral entropy=2.964090195981908
computed normalized entropy=0.7538712223939894
SPLASH=splash10-0002-0290000000-6937d306a1477512bedf
submitter=submitter = University of Tokyo Team (Faculty of Engineering, University of Tokyo)
MoNA Rating=3.75

>  <NUM PEAKS>  (215) 
51

>  <MASS SPECTRAL PEAKS>  (215) 
28 2.6
49 1.9
51 1.2
52 3.9
53 1.2
54 1.2
74 0.9
75 1.5
76 1.2
77 1.5
87 1.3
88 3.2
89 1.5
100 2.8
100.5 2.8
101 11.2
101.5 4.5
102 1.2
120 1.2
122 1.5
122.5 3.8
123 9
123.5 7.5
124 1.9
150 1.5
151 1.5
152 2.4
163 1.9
164 1.2
165 1.9
175 1.3
176 2.6
177 1.2
178 1.2
188 1.2
189 4.9
190 3.7
191 1.2
200 5.2
201 5.4
202 26.1
203 17.1
204 5.4
230 2.7
231 9.8
232 6.8
233 2.7
245 6.8
246 34.2
247 99.99
248 21.8

$$$$

     RDKit          2D

 25 28  0  0  0  0  0  0  0  0999 V2000
   -2.1411   -3.7961    0.0000 C   0  0  0  0  0  0  0  0  0  0  0  0
    3.0557   -3.8050    0.0000 C   0  0  0  0  0  0  0  0  0  0  0  0
    1.7463   -9.0538    0.0000 C   0  0  0  0  0  0  0  0  0  0  0  0
   -0.8518   -9.0495    0.0000 C   0  0  0  0  0  0  0  0  0  0  0  0
    3.0600    2.2000    0.0000 C   0  0  0  0  0  0  0  0  0  0  0  0
    1.7600    2.9500    0.0000 C   0  0  0  0  0  0  0  0  0  0  0  0
   -3.4300   -0.0500    0.0000 C   0  0  0  0  0  0  0  0  0  0  0  0
   -3.4300   -1.5500    0.0000 C   0  0  0  0  0  0  0  0  0  0  0  0
    3.0600    0.7000    0.0000 C   0  0  0  0  0  0  0  0  0  0  0  0
    0.4600    2.2000    0.0000 C   0  0  0  0  0  0  0  0  0  0  0  0
   -2.1300    0.7000    0.0000 C   0  0  0  0  0  0  0  0  0  0  0  0
   -2.1300   -2.3000    0.0000 C   0  0  0  0  0  0  0  0  0  0  0  0
   -0.8466   -6.0493    0.0000 C   0  0  0  0  0  0  0  0  0  0  0  0
    1.7519   -6.0532    0.0000 C   0  0  0  0  0  0  0  0  0  0  0  0
    1.7600   -1.5500    0.0000 C   0  0  0  0  0  0  0  0  0  0  0  0
   -0.8434   -4.5484    0.0000 C   0  0  0  0  0  0  0  0  0  0  0  0
    1.7551   -4.5524    0.0000 C   0  0  0  0  0  0  0  0  0  0  0  0
    1.7600   -0.0500    0.0000 C   0  0  0  0  0  0  0  0  0  0  0  0
    0.4510   -6.8017    0.0000 C   0  0  0  0  0  0  0  0  0  0  0  0
    0.4600    0.7000    0.0000 C   0  0  0  0  0  0  0  0  0  0  0  0
   -0.8300   -0.0500    0.0000 C   0  0  0  0  0  0  0  0  0  0  0  0
   -0.8300   -1.5500    0.0000 C   0  0  0  0  0  0  0  0  0  0  0  0
    0.4600   -2.3000    0.0000 C   0  0  0  0  0  0  0  0  0  0  0  0
    0.4575   -3.8000    0.0000 C   0  0  0  0  0  0  0  0  0  0  0  0
    0.4485   -8.3017    0.0000 N   0  0  0  0  0  0  0  0  0  0  0  0
  6  5  2  0
  8  7  2  0
  9  5  1  0
 10  6  1  0
 11  7  1  0
 12  8  1  0
 16  1  1  0
 16 13  2  0
 17  2  1  0
 17 14  1  0
 18  9  2  0
 18 15  1  0
 19 13  1  0
 19 14  2  0
 20 10  2  0
 20 18  1  0
 21 11  2  0
 21 20  1  0
 22 12  2  0
 22 21  1  0
 23 15  2  0
 23 22  1  0
 24 16  1  0
 24 17  2  0
 24 23  1  0
 25  3  1  0
 25  4  1  0
 25 19  1  0
M  END
>  <NAME>  (216) 
4-(9-PHENANTHRYL)-3,5-DIMETHYL-N,N-DIMETHYLANILINE

>  <SYNONYMS>  (216) 


>  <SPECTRUM TYPE>  (216) 
MS1

>  <INSTRUMENT TYPE>  (216) 
EI-B

>  <INSTRUMENT>  (216) 
HITACHI RMU-6M

>  <ION MODE>  (216) 
P

>  <INCHIKEY>  (216) 
QJSUZPQTDAZZIE-UHFFFAOYSA-N

>  <FORMULA>  (216) 
C24H23N

>  <EXACT MASS>  (216) 
325.18304973600004

>  <MW>  (216) 
325

>  <ID>  (216) 
JP011878

>  <CONTRIBUTOR>  (216) 
University of Tokyo Team, {Faculty of Engineering, University of Tokyo

>  <COMMENT>  (216) 
SMILES=CN(C)c(c4)cc(C)c(c(C)4)c(c1)c(c3)c(ccc3)c(c2)c(ccc2)1
InChI=InChI=1S/C24H23N/c1-16-13-19(25(3)4)14-17(2)24(16)23-15-18-9-5-6-10-20(18)21-11-7-8-12-22(21)23/h5-15H,1-4H3
computed SMILES=C=1C=CC=2C(C1)=CC(=C3C=CC=CC23)C4=C(C=C(C=C4C)N(C)C)C
accession=JP011878
date=2016.01.19 (Created 2008.10.21, modified 2011.05.06)
author=YAMAMOTO M, DEP. CHEMISTRY, FAC. SCIENCE, NARA WOMEN'S UNIV.
license=CC BY-NC-SA
exact mass=325.18305
ionization energy=70 eV
ion type=[M]+*
computed spectral entropy=2.193953634321706
computed normalized entropy=0.9528219569375016
SPLASH=splash10-01t9-3119000000-2ab45427b17eb530a11a
submitter=submitter = University of Tokyo Team (Faculty of Engineering, University of Tokyo)
MoNA Rating=3.75

>  <NUM PEAKS>  (216) 
10

>  <MASS SPECTRAL PEAKS>  (216) 
33 25
42 30.8
45 30.8
163 36.7
268 30.8
311 27.5
313 30.8
325 34.2
326 99.99
327 46.7

$$$$

     RDKit          2D

 10 11  0  0  0  0  0  0  0  0999 V2000
   -2.3100   -0.7500    0.0000 C   0  0  0  0  0  0  0  0  0  0  0  0
   -2.3100    0.7500    0.0000 C   0  0  0  0  0  0  0  0  0  0  0  0
   -1.0100   -1.5000    0.0000 C   0  0  0  0  0  0  0  0  0  0  0  0
   -1.0100    1.5000    0.0000 C   0  0  0  0  0  0  0  0  0  0  0  0
    1.7200   -1.2100    0.0000 C   0  0  0  0  0  0  0  0  0  0  0  0
    1.7200    1.2100    0.0000 C   0  0  0  0  0  0  0  0  0  0  0  0
    0.2900   -0.7500    0.0000 C   0  0  0  0  0  0  0  0  0  0  0  0
    0.2900    0.7500    0.0000 C   0  0  0  0  0  0  0  0  0  0  0  0
    2.6000    0.0000    0.0000 C   0  0  0  0  0  0  0  0  0  0  0  0
    4.1000   -0.0000    0.0000 O   0  0  0  0  0  0  0  0  0  0  0  0
  2  1  1  0
  3  1  1  0
  4  2  1  0
  7  3  1  0
  7  5  1  0
  8  4  1  0
  8  6  1  0
  8  7  1  0
  9  5  1  0
  9  6  1  0
 10  9  2  0
M  END
>  <NAME>  (217) 
BICYCLO(4,3,0)NONAN-8-ONE

>  <SYNONYMS>  (217) 


>  <SPECTRUM TYPE>  (217) 
MS1

>  <INSTRUMENT TYPE>  (217) 
EI-B

>  <INSTRUMENT>  (217) 
HITACHI RMU-6M

>  <ION MODE>  (217) 
P

>  <INCHIKEY>  (217) 
HAMUKWWZXAKCAU-UHFFFAOYSA-N

>  <FORMULA>  (217) 
C9H14O

>  <EXACT MASS>  (217) 
138.104465068

>  <MW>  (217) 
138

>  <ID>  (217) 
JP011877

>  <CONTRIBUTOR>  (217) 
University of Tokyo Team, {Faculty of Engineering, University of Tokyo

>  <COMMENT>  (217) 
SMILES=O=C(C1)CC(C2)C(CCC2)1
InChI=InChI=1S/C9H14O/c10-9-5-7-3-1-2-4-8(7)6-9/h7-8H,1-6H2
computed SMILES=O=C1CC2CCCCC2C1
accession=JP011877
date=2016.01.19 (Created 2008.10.21, modified 2011.05.06)
author=YAMAMOTO M, DEP. CHEMISTRY, FAC. SCIENCE, NARA WOMEN'S UNIV.
license=CC BY-NC-SA
exact mass=138.10447
ionization energy=70 eV
ion type=[M]+*
computed spectral entropy=3.5393677704484507
computed normalized entropy=0.8330873800722807
SPLASH=splash10-00ko-9100000000-dcf8e726c29c802ce6e3
submitter=submitter = University of Tokyo Team (Faculty of Engineering, University of Tokyo)
MoNA Rating=3.75

>  <NUM PEAKS>  (217) 
70

>  <MASS SPECTRAL PEAKS>  (217) 
15 2.7
26 3.1
27 32.9
28 8.3
29 16.8
31 1.1
32 1.8
37 1.1
38 2.8
39 44.2
40 10.2
41 65.2
42 5.8
43 4.6
44 1.2
45 1
46 1
50 3.7
51 8.3
52 4.3
53 21.4
54 49.4
55 27.6
56 7.4
57 11.2
58 1.5
62 1.6
63 3.4
64 1.9
65 6.1
66 6.5
67 63.1
68 35.5
69 10.7
70 6.4
71 2.5
77 8.2
78 3.7
79 15.5
80 9.3
81 68.1
82 27.6
83 5.7
84 4
89 1.5
91 8.3
92 5.1
93 5.5
94 99.99
95 33.2
96 25.7
97 3.6
103 2.2
104 1.7
105 22.5
106 4.1
107 2.1
109 9.3
110 5
115 2.8
116 2.5
119 1.1
120 3.7
122 7.3
123 3.5
134 10.1
135 1.5
137 1.9
138 53.2
139 5.4

$$$$

     RDKit          2D

 10 11  0  0  0  0  0  0  0  0999 V2000
   -2.5200   -1.0100    0.0000 C   0  0  0  0  0  0  0  0  0  0  0  0
   -2.5200    0.4900    0.0000 C   0  0  0  0  0  0  0  0  0  0  0  0
   -1.2300   -1.7600    0.0000 C   0  0  0  0  0  0  0  0  0  0  0  0
   -1.2300    1.2400    0.0000 C   0  0  0  0  0  0  0  0  0  0  0  0
    1.5000   -1.4800    0.0000 C   0  0  0  0  0  0  0  0  0  0  0  0
    2.3800   -0.2600    0.0000 C   0  0  0  0  0  0  0  0  0  0  0  0
    0.0700   -1.0100    0.0000 C   0  0  0  0  0  0  0  0  0  0  0  0
    0.0700    0.4900    0.0000 C   0  0  0  0  0  0  0  0  0  0  0  0
    1.5000    0.9500    0.0000 C   0  0  0  0  0  0  0  0  0  0  0  0
    1.9653    2.3760    0.0000 O   0  0  0  0  0  0  0  0  0  0  0  0
  2  1  1  0
  3  1  1  0
  4  2  1  0
  6  5  1  0
  7  3  1  0
  7  5  1  0
  8  4  1  0
  8  7  1  0
  9  6  1  0
  9  8  1  0
 10  9  2  0
M  END
>  <NAME>  (218) 
BICYCLO(4.3.0)NONAN-7-ONE

>  <SYNONYMS>  (218) 


>  <SPECTRUM TYPE>  (218) 
MS1

>  <INSTRUMENT TYPE>  (218) 
EI-B

>  <INSTRUMENT>  (218) 
HITACHI RMU-6M

>  <ION MODE>  (218) 
P

>  <INCHIKEY>  (218) 
ATKSQUYIHKMKTG-UHFFFAOYSA-N

>  <FORMULA>  (218) 
C9H14O

>  <EXACT MASS>  (218) 
138.104465068

>  <MW>  (218) 
138

>  <ID>  (218) 
JP011876

>  <CONTRIBUTOR>  (218) 
University of Tokyo Team, {Faculty of Engineering, University of Tokyo

>  <COMMENT>  (218) 
SMILES=O=C(C1)C(C2)C(CCC2)C1
InChI=InChI=1S/C9H14O/c10-9-6-5-7-3-1-2-4-8(7)9/h7-8H,1-6H2
computed SMILES=O=C1CCC2CCCCC12
accession=JP011876
date=2016.01.19 (Created 2008.10.21, modified 2011.05.06)
author=YAMAMOTO M, DEP. CHEMISTRY, FAC. SCIENCE, NARA WOMEN'S UNIV.
license=CC BY-NC-SA
exact mass=138.10447
ionization energy=70 eV
ion type=[M]+*
computed spectral entropy=3.5143974803304285
computed normalized entropy=0.8388274683060417
SPLASH=splash10-00lg-9100000000-fce1fdc4fd5f77870bac
submitter=submitter = University of Tokyo Team (Faculty of Engineering, University of Tokyo)
MoNA Rating=3.75

>  <NUM PEAKS>  (218) 
66

>  <MASS SPECTRAL PEAKS>  (218) 
15 2.6
26 4.2
27 37.2
28 16.4
29 13.8
31 1
32 1.8
37 1.2
38 3.4
39 41.8
40 8.7
41 56.5
42 5.8
43 4
44 1.6
45 1.2
50 4
51 8.4
52 5.7
53 21
54 46.1
55 25
56 7.7
57 4.4
58 2
62 1.3
63 3.1
64 1.1
65 6.4
66 12.1
67 99.99
68 30.5
69 16.7
70 2.9
71 2.8
72 1.2
77 7.7
78 4.6
79 23.1
80 15.8
81 68.3
82 28
83 42.9
84 4.1
91 6.5
92 5.5
93 4.5
94 61.3
95 18.7
96 64
97 8.3
98 2
105 1.7
107 2.1
109 32.3
110 13.8
111 2.4
119 1.4
120 7
121 1.6
122 2.9
123 2.5
137 4.6
138 54.4
139 7.3
140 1.6

$$$$

     RDKit          2D

 11 12  0  0  0  0  0  0  0  0999 V2000
   -2.3100   -0.7500    0.0000 C   0  0  0  0  0  0  0  0  0  0  0  0
   -2.3100    0.7500    0.0000 C   0  0  0  0  0  0  0  0  0  0  0  0
   -1.0100   -1.5000    0.0000 C   0  0  0  0  0  0  0  0  0  0  0  0
   -1.0100    1.5000    0.0000 C   0  0  0  0  0  0  0  0  0  0  0  0
    1.7200   -1.2100    0.0000 C   0  0  0  0  0  0  0  0  0  0  0  0
    2.1853   -2.6360    0.0000 H   0  0  0  0  0  0  0  0  0  0  0  0
    1.7200    1.2100    0.0000 C   0  0  0  0  0  0  0  0  0  0  0  0
    0.2900   -0.7500    0.0000 C   0  0  0  0  0  0  0  0  0  0  0  0
    0.2900    0.7500    0.0000 C   0  0  0  0  0  0  0  0  0  0  0  0
    2.6000    0.0000    0.0000 C   0  0  0  0  0  0  0  0  0  0  0  0
    4.1000   -0.0000    0.0000 O   0  0  0  0  0  0  0  0  0  0  0  0
  5  6  1  0
  2  1  1  0
  3  1  1  0
  4  2  1  0
  8  3  1  0
  8  5  1  0
  9  4  1  0
  9  7  1  0
  9  8  1  0
 10  5  1  0
 10  7  1  0
 11 10  1  0
M  ISO  1   6   2
M  END
>  <NAME>  (219) 
BICYCLO(4.3.0)NONAN-8-OL (7-D)

>  <SYNONYMS>  (219) 


>  <SPECTRUM TYPE>  (219) 
MS1

>  <INSTRUMENT TYPE>  (219) 
EI-B

>  <INSTRUMENT>  (219) 
HITACHI RMU-6M

>  <ION MODE>  (219) 
P

>  <INCHIKEY>  (219) 
FNTAZLZSKBIIIW-UICOGKGYSA-N

>  <FORMULA>  (219) 
C9H16O

>  <EXACT MASS>  (219) 
141.126391878

>  <MW>  (219) 
141

>  <ID>  (219) 
JP011875

>  <CONTRIBUTOR>  (219) 
University of Tokyo Team, {Faculty of Engineering, University of Tokyo

>  <COMMENT>  (219) 
SMILES=OC(C1)C([2H])C(C2)C(CCC2)1
InChI=InChI=1S/C9H16O/c10-9-5-7-3-1-2-4-8(7)6-9/h7-10H,1-6H2/i5D
computed SMILES=[H]C1C(O)CC2CCCCC21
accession=JP011875
date=2016.01.19 (Created 2008.10.21, modified 2011.05.06)
author=YAMAMOTO M, DEP. CHEMISTRY, FAC. SCIENCE, NARA WOMEN'S UNIV.
license=CC BY-NC-SA
exact mass=140.12012
ionization energy=70 eV
ion type=[M]+*
computed spectral entropy=3.703586263085327
computed normalized entropy=0.8500880849316399
SPLASH=splash10-001i-9100000000-b36640e3d2a43b8b896c
submitter=submitter = University of Tokyo Team (Faculty of Engineering, University of Tokyo)
MoNA Rating=3.75

>  <NUM PEAKS>  (219) 
78

>  <MASS SPECTRAL PEAKS>  (219) 
21 1
22 1.3
24 1.1
25 1.1
26 2.9
27 23.7
28 10.3
29 24.7
30 5.9
31 34.9
32 4.3
33 1.1
38 1.8
39 20
40 7.6
41 29.4
42 11.1
43 8.5
44 5.3
45 14.9
46 3
50 1.3
51 3.9
52 3.3
53 10
54 18.4
55 22.3
56 8.3
57 3.9
58 10.5
59 15.5
60 1.8
61 1.8
62 1.1
63 1.5
64 1.5
65 4
66 4.9
67 31.5
68 20
69 6.5
70 3.6
71 12.5
72 3.1
73 2.5
74 9.6
75 1
76 1.9
77 4.1
78 3.1
79 10.8
80 25.8
81 99.99
82 16.8
83 3.4
84 12.3
85 3.6
91 2
92 2.4
93 9.9
94 32.4
95 19.4
96 17.4
97 3.1
98 3.1
99 1.9
100 1.1
101 1.5
107 1.9
108 6.3
109 3
110 1.3
111 1.6
112 1.6
122 3.1
123 64.5
124 7.4
125 1.5

$$$$

     RDKit          2D

 11 12  0  0  0  0  0  0  0  0999 V2000
   -2.5200   -1.0100    0.0000 C   0  0  0  0  0  0  0  0  0  0  0  0
   -2.5200    0.4900    0.0000 C   0  0  0  0  0  0  0  0  0  0  0  0
   -1.2300   -1.7600    0.0000 C   0  0  0  0  0  0  0  0  0  0  0  0
   -1.2300    1.2400    0.0000 C   0  0  0  0  0  0  0  0  0  0  0  0
    1.5000   -1.4800    0.0000 C   0  0  0  0  0  0  0  0  0  0  0  0
    2.3800   -0.2600    0.0000 C   0  0  0  0  0  0  0  0  0  0  0  0
    0.0700   -1.0100    0.0000 C   0  0  0  0  0  0  0  0  0  0  0  0
    0.0700    0.4900    0.0000 C   0  0  0  0  0  0  0  0  0  0  0  0
    1.5000    0.9500    0.0000 C   0  0  0  0  0  0  0  0  0  0  0  0
    2.7995    1.6991    0.0000 H   0  0  0  0  0  0  0  0  0  0  0  0
    0.8924    2.3214    0.0000 O   0  0  0  0  0  0  0  0  0  0  0  0
  9 10  1  0
  2  1  1  0
  3  1  1  0
  4  2  1  0
  6  5  1  0
  7  3  1  0
  7  5  1  0
  8  4  1  0
  8  7  1  0
  9  6  1  0
  9  8  1  0
 11  9  1  0
M  ISO  1  10   2
M  END
>  <NAME>  (220) 
BICYCLO(4.3.0)NONAN-7-OL (7-D)

>  <SYNONYMS>  (220) 


>  <SPECTRUM TYPE>  (220) 
MS1

>  <INSTRUMENT TYPE>  (220) 
EI-B

>  <INSTRUMENT>  (220) 
HITACHI RMU-6M

>  <ION MODE>  (220) 
P

>  <INCHIKEY>  (220) 
WHHUTBUNHHDROB-QOWOAITPSA-N

>  <FORMULA>  (220) 
C9H16O

>  <EXACT MASS>  (220) 
141.126391878

>  <MW>  (220) 
141

>  <ID>  (220) 
JP011874

>  <CONTRIBUTOR>  (220) 
University of Tokyo Team, {Faculty of Engineering, University of Tokyo

>  <COMMENT>  (220) 
SMILES=[2H]C(O)(C1)C(C2)C(CCC2)C1
InChI=InChI=1S/C9H16O/c10-9-6-5-7-3-1-2-4-8(7)9/h7-10H,1-6H2/i9D
computed SMILES=[H]C1(O)CCC2CCCCC21
accession=JP011874
date=2016.01.19 (Created 2008.10.21, modified 2011.05.06)
author=YAMAMOTO M, DEP. CHEMISTRY, FAC. SCIENCE, NARA WOMEN'S UNIV.
license=CC BY-NC-SA
exact mass=140.12012
ionization energy=70 eV
ion type=[M]+*
computed spectral entropy=3.662157196575666
computed normalized entropy=0.8430757920581236
SPLASH=splash10-01c3-9100000000-8b3a20ce567dc8b92a38
submitter=submitter = University of Tokyo Team (Faculty of Engineering, University of Tokyo)
MoNA Rating=3.75

>  <NUM PEAKS>  (220) 
77

>  <MASS SPECTRAL PEAKS>  (220) 
22 1.2
26 2
27 23
28 10.1
29 15.5
30 7.8
31 3.2
32 4.7
38 2
39 26.4
40 9
41 43.1
42 14.3
43 7.7
44 4
45 6.4
46 2.7
50 1.6
51 4.6
52 4.1
53 12.8
54 29.9
55 41.5
56 12.6
57 5.6
58 18.2
59 23
60 2.8
62 1
63 1.3
64 1.2
65 4.5
66 8.7
67 65.5
68 35.8
69 8.6
70 3.1
71 4.3
72 2.4
73 1.2
75 1.3
76 1.1
77 5.5
78 5.1
79 15.9
80 23.3
81 99.99
82 25
83 20.2
84 5.6
85 2.4
86 1.5
87 1
89 1.5
91 2.8
92 2.9
93 10.9
94 30.5
95 23.1
96 43.7
97 23.5
98 4.5
99 1.8
107 3.8
108 5.4
109 4.2
110 1.6
111 1.6
112 5.4
113 4.5
114 1
121 1.2
122 4.6
123 80.6
124 9.2
126 1.4
141 3.7

$$$$

     RDKit          2D

 10 11  0  0  0  0  0  0  0  0999 V2000
   -2.3100   -0.7500    0.0000 C   0  0  0  0  0  0  0  0  0  0  0  0
   -2.3100    0.7500    0.0000 C   0  0  0  0  0  0  0  0  0  0  0  0
   -1.0100   -1.5000    0.0000 C   0  0  0  0  0  0  0  0  0  0  0  0
   -1.0100    1.5000    0.0000 C   0  0  0  0  0  0  0  0  0  0  0  0
    1.7200   -1.2100    0.0000 C   0  0  0  0  0  0  0  0  0  0  0  0
    1.7200    1.2100    0.0000 C   0  0  0  0  0  0  0  0  0  0  0  0
    0.2900   -0.7500    0.0000 C   0  0  0  0  0  0  0  0  0  0  0  0
    0.2900    0.7500    0.0000 C   0  0  0  0  0  0  0  0  0  0  0  0
    2.6000    0.0000    0.0000 C   0  0  0  0  0  0  0  0  0  0  0  0
    4.1000   -0.0000    0.0000 O   0  0  0  0  0  0  0  0  0  0  0  0
  2  1  1  0
  3  1  1  0
  4  2  1  0
  7  3  1  0
  7  5  1  0
  8  4  1  0
  8  6  1  0
  8  7  1  0
  9  5  1  0
  9  6  1  0
 10  9  1  0
M  END
>  <NAME>  (221) 
BICYCLO(4.3.0)NONAN-8-OL

>  <SYNONYMS>  (221) 


>  <SPECTRUM TYPE>  (221) 
MS1

>  <INSTRUMENT TYPE>  (221) 
EI-B

>  <INSTRUMENT>  (221) 
HITACHI RMU-6M

>  <ION MODE>  (221) 
P

>  <INCHIKEY>  (221) 
FNTAZLZSKBIIIW-UHFFFAOYSA-N

>  <FORMULA>  (221) 
C9H16O

>  <EXACT MASS>  (221) 
140.120115132

>  <MW>  (221) 
140

>  <ID>  (221) 
JP011873

>  <CONTRIBUTOR>  (221) 
University of Tokyo Team, {Faculty of Engineering, University of Tokyo

>  <COMMENT>  (221) 
SMILES=OC(C1)CC(C2)C(CCC2)1
InChI=InChI=1S/C9H16O/c10-9-5-7-3-1-2-4-8(7)6-9/h7-10H,1-6H2
computed SMILES=OC1CC2CCCCC2C1
accession=JP011873
date=2016.01.19 (Created 2008.10.21, modified 2011.05.06)
author=YAMAMOTO M, DEP. CHEMISTRY, FAC. SCIENCE, NARA WOMEN'S UNIV.
license=CC BY-NC-SA
exact mass=140.12012
ionization energy=70 eV
ion type=[M]+*
computed spectral entropy=3.455335054632914
computed normalized entropy=0.8405354113991467
SPLASH=splash10-001l-9100000000-8cdfb1a20aee25636398
submitter=submitter = University of Tokyo Team (Faculty of Engineering, University of Tokyo)
MoNA Rating=3.75

>  <NUM PEAKS>  (221) 
61

>  <MASS SPECTRAL PEAKS>  (221) 
15 2.8
26 1.6
27 28.2
28 5.4
29 21
31 6
38 1.7
39 34.2
40 5.9
41 47.2
42 7.1
43 10.3
44 5.3
45 2.8
50 2
51 5.5
52 3
53 15.3
54 24
55 36.1
56 4.7
57 14.4
58 2.7
63 2
64 1.2
65 4.8
66 7.6
67 44.5
68 22.8
69 6.5
70 17.4
71 2.8
77 8.8
78 3.5
79 25.8
80 61.6
81 99.99
82 9.4
83 16.8
84 3.3
85 1.1
91 5.5
92 2.1
93 37.4
94 30
95 7.9
96 20.6
97 4.5
98 1.9
105 6.3
107 9.5
108 1.3
109 2.1
111 1.5
115 1.2
116 1
121 3.5
122 76.7
123 9.4
134 2.3
138 1.5

$$$$

     RDKit          2D

 10 11  0  0  0  0  0  0  0  0999 V2000
   -2.5200   -1.0100    0.0000 C   0  0  0  0  0  0  0  0  0  0  0  0
   -2.5200    0.4900    0.0000 C   0  0  0  0  0  0  0  0  0  0  0  0
   -1.2300   -1.7600    0.0000 C   0  0  0  0  0  0  0  0  0  0  0  0
   -1.2300    1.2400    0.0000 C   0  0  0  0  0  0  0  0  0  0  0  0
    1.5000   -1.4800    0.0000 C   0  0  0  0  0  0  0  0  0  0  0  0
    2.3800   -0.2600    0.0000 C   0  0  0  0  0  0  0  0  0  0  0  0
    0.0700   -1.0100    0.0000 C   0  0  0  0  0  0  0  0  0  0  0  0
    0.0700    0.4900    0.0000 C   0  0  0  0  0  0  0  0  0  0  0  0
    1.5000    0.9500    0.0000 C   0  0  0  0  0  0  0  0  0  0  0  0
    1.9653    2.3760    0.0000 O   0  0  0  0  0  0  0  0  0  0  0  0
  2  1  1  0
  3  1  1  0
  4  2  1  0
  6  5  1  0
  7  3  1  0
  7  5  1  0
  8  4  1  0
  8  7  1  0
  9  6  1  0
  9  8  1  0
 10  9  1  0
M  END
>  <NAME>  (222) 
BICYLO(4.3.1)NONAN-7-OL

>  <SYNONYMS>  (222) 


>  <SPECTRUM TYPE>  (222) 
MS1

>  <INSTRUMENT TYPE>  (222) 
EI-B

>  <INSTRUMENT>  (222) 
HITACHI RMU-6M

>  <ION MODE>  (222) 
P

>  <INCHIKEY>  (222) 
WHHUTBUNHHDROB-UHFFFAOYSA-N

>  <FORMULA>  (222) 
C9H16O

>  <EXACT MASS>  (222) 
140.120115132

>  <MW>  (222) 
140

>  <ID>  (222) 
JP011872

>  <CONTRIBUTOR>  (222) 
University of Tokyo Team, {Faculty of Engineering, University of Tokyo

>  <COMMENT>  (222) 
SMILES=OC(C1)C(C2)C(CCC2)C1
InChI=InChI=1S/C9H16O/c10-9-6-5-7-3-1-2-4-8(7)9/h7-10H,1-6H2
computed SMILES=OC1CCC2CCCCC12
accession=JP011872
date=2016.01.19 (Created 2008.10.21, modified 2011.05.06)
author=YAMAMOTO M, DEP. CHEMISTRY, FAC. SCIENCE, NARA WOMEN'S UNIV.
license=CC BY-NC-SA
exact mass=140.12012
ionization energy=70 eV
ion type=[M]+*
computed spectral entropy=3.5382876488083346
computed normalized entropy=0.8356633554131369
SPLASH=splash10-00sl-9100000000-55a514d9206793dd772a
submitter=submitter = University of Tokyo Team (Faculty of Engineering, University of Tokyo)
MoNA Rating=3.75

>  <NUM PEAKS>  (222) 
69

>  <MASS SPECTRAL PEAKS>  (222) 
26 2.4
27 29
28 7.9
29 20.5
30 2.7
31 9
32 2.1
38 2.6
39 31.9
40 7.5
41 54.4
42 6.9
43 8.8
44 8.8
45 3.2
50 2.4
51 6.1
52 4.4
53 18.7
54 34.6
55 53.5
56 5
57 21.6
58 31.3
59 3.1
62 1.1
63 1.8
65 5.9
66 11.6
67 89.2
68 38.6
69 8.1
70 5.8
71 3
72 1.8
73 1.1
74 1.1
77 10.4
78 4.3
79 27.8
80 52.3
81 99.99
82 17.4
83 26.8
84 3.3
91 4.9
92 2
93 24.5
94 38
95 11.2
96 68.1
97 17.8
98 3.2
99 1.4
105 1.3
107 9.6
108 1.8
109 5.1
110 1.6
111 6.1
112 4.3
121 2.8
122 89
123 10.8
124 1.2
138 2.3
139 1.1
140 4.3
141 1.1

$$$$

     RDKit          2D

 30 34  0  0  1  0  0  0  0  0999 V2000
   -2.8258   -5.4880    0.0000 C   0  0  0  0  0  0  0  0  0  0  0  0
   -6.0600    3.8971    0.0000 C   0  0  0  0  0  0  0  0  0  0  0  0
    6.8100   -0.0000    0.0000 C   0  0  0  0  0  0  0  0  0  0  0  0
   -1.3573   -5.1783    0.0000 C   0  0  0  0  0  0  0  0  0  0  0  0
   -3.8291   -4.3718    0.0000 C   0  0  0  0  0  0  0  0  0  0  0  0
   -6.8108    2.5976    0.0000 C   0  0  0  0  0  0  0  0  0  0  0  0
   -4.5592    3.8976    0.0000 C   0  0  0  0  0  0  0  0  0  0  0  0
    6.0600   -1.3000    0.0000 C   0  0  0  0  0  0  0  0  0  0  0  0
    6.0600    1.3000    0.0000 C   0  0  0  0  0  0  0  0  0  0  0  0
   -0.8920   -3.7523    0.0000 C   0  0  0  0  0  0  0  0  0  0  0  0
   -3.3638   -2.9458    0.0000 C   0  0  0  0  0  0  0  0  0  0  0  0
   -6.0608    1.2986    0.0000 C   0  0  0  0  0  0  0  0  0  0  0  0
   -3.8092    2.5986    0.0000 C   0  0  0  0  0  0  0  0  0  0  0  0
    4.5600   -1.3000    0.0000 C   0  0  0  0  0  0  0  0  0  0  0  0
    4.5600    1.3000    0.0000 C   0  0  0  0  0  0  0  0  0  0  0  0
   -1.4300    1.2100    0.0000 C   0  0  0  0  0  0  0  0  0  0  0  0
   -1.8953   -2.6360    0.0000 C   0  0  0  0  0  0  0  0  0  0  0  0
   -4.5600    1.2990    0.0000 C   0  0  0  0  0  0  0  0  0  0  0  0
    3.8100   -0.0000    0.0000 C   0  0  0  0  0  0  0  0  0  0  0  0
    0.0000    0.7500    0.0000 C   0  0  0  0  0  0  0  0  0  0  0  0
    0.0000   -0.7500    0.0000 C   0  0  0  0  0  0  0  0  0  0  0  0
   -1.4300   -1.2100    0.0000 C   0  0  0  0  0  0  0  0  0  0  0  0
   -3.8100    0.0000    0.0000 C   0  0  0  0  0  0  0  0  0  0  0  0
    1.4300    1.2100    0.0000 C   0  0  0  0  0  0  0  0  0  0  0  0
    1.4300   -1.2100    0.0000 C   0  0  0  0  0  0  0  0  0  0  0  0
   -2.3100    0.0000    0.0000 N   0  0  0  0  0  0  0  0  0  0  0  0
    2.3100    0.0000    0.0000 N   0  0  0  0  0  0  0  0  0  0  0  0
   -4.5600   -1.2990    0.0000 O   0  0  0  0  0  0  0  0  0  0  0  0
    1.8953    2.6360    0.0000 O   0  0  0  0  0  0  0  0  0  0  0  0
    1.8953   -2.6360    0.0000 O   0  0  0  0  0  0  0  0  0  0  0  0
  4  1  2  0
  5  1  1  0
  6  2  2  0
  7  2  1  0
  8  3  2  0
  9  3  1  0
 10  4  1  0
 11  5  2  0
 12  6  1  0
 13  7  2  0
 14  8  1  0
 15  9  2  0
 17 10  2  0
 17 11  1  0
 18 12  2  0
 18 13  1  0
 19 14  2  0
 19 15  1  0
 20 16  1  1
 21 20  1  0
 22 17  1  1
 22 21  1  0
 23 18  1  0
 24 20  1  0
 21 25  1  1
 26 16  1  0
 26 22  1  0
 26 23  1  0
 27 19  1  0
 27 24  1  0
 27 25  1  0
 28 23  2  0
 29 24  2  0
 30 25  2  0
M  END
>  <NAME>  (223) 
(2S,2AR,5AS)-1-BENZOYL-3,5-DIOXO-2,4-DIPHENYL-1,2,3,4,5,6-HEXAHYDROPYRROLO(3,4-C)PYRROLE

>  <SYNONYMS>  (223) 


>  <SPECTRUM TYPE>  (223) 
MS1

>  <INSTRUMENT TYPE>  (223) 
EI-B

>  <INSTRUMENT>  (223) 
Unknown

>  <ION MODE>  (223) 
P

>  <INCHIKEY>  (223) 
LZVNGKZIHPRVON-YPAWHYETSA-N

>  <FORMULA>  (223) 
C25H20N2O3

>  <EXACT MASS>  (223) 
396.1473925

>  <MW>  (223) 
396

>  <ID>  (223) 
JP011871

>  <CONTRIBUTOR>  (223) 
University of Tokyo Team, {Faculty of Engineering, University of Tokyo

>  <COMMENT>  (223) 
SMILES=C(C13[H])(=O)N(c(c5)cccc5)C(C1([H])CN(C3([H])c(c4)cccc4)C(=O)c(c2)cccc2)=O
InChI=InChI=1S/C25H20N2O3/c28-23(18-12-6-2-7-13-18)26-16-20-21(22(26)17-10-4-1-5-11-17)25(30)27(24(20)29)19-14-8-3-9-15-19/h1-15,20-22H,16H2/t20-,21-,22-/m1/s1
computed SMILES=O=C(C=1C=CC=CC1)N2CC3C(=O)N(C=4C=CC=CC4)C(=O)C3C2C=5C=CC=CC5
accession=JP011871
date=2016.01.19 (Created 2008.10.21, modified 2011.05.06)
author=YOSHIKI O, FAC, TECHNOLOGY, OSAKA UNIV.
license=CC BY-NC-SA
exact mass=396.14739
ionization energy=70 eV
ion type=[M]+*
computed spectral entropy=2.731781320122031
computed normalized entropy=0.7176316070739586
SPLASH=splash10-0a6r-7910000000-8d4c274b09399d94331c
submitter=submitter = University of Tokyo Team (Faculty of Engineering, University of Tokyo)
MoNA Rating=3.75

>  <NUM PEAKS>  (223) 
45

>  <MASS SPECTRAL PEAKS>  (223) 
50 2.7
51 12.7
52 1.5
54 1.8
55 1.6
63 1.8
64 2
65 2.9
67 1.4
68 2.8
69 1.9
76 2.3
77 60.5
78 5.7
84 2.4
86 1.5
89 2.1
90 2.2
91 11.6
92 1.2
93 1.2
103 2.4
105 99.99
106 8.9
115 4
116 1.5
117 5.6
118 5.1
119 2
128 2.1
129 2.3
131 1
143 1.5
144 5
145 1
173 2.6
188 7.4
208 1
209 6.6
210 1.2
248 2.3
291 13.6
292 3
396 10.4
397 2.8

$$$$

     RDKit          2D

 26 29  0  0  1  0  0  0  0  0999 V2000
   -3.3213   -2.1707    0.0000 C   0  0  0  0  0  0  0  0  0  0  0  0
   -2.3606   -4.0620    0.0000 C   0  0  0  0  0  0  0  0  0  0  0  0
   -0.4693   -3.1013    0.0000 C   0  0  0  0  0  0  0  0  0  0  0  0
   -2.8258    5.4880    0.0000 C   0  0  0  0  0  0  0  0  0  0  0  0
    6.8100   -0.0000    0.0000 C   0  0  0  0  0  0  0  0  0  0  0  0
   -3.8291    4.3718    0.0000 C   0  0  0  0  0  0  0  0  0  0  0  0
   -1.3573    5.1783    0.0000 C   0  0  0  0  0  0  0  0  0  0  0  0
    6.0600   -1.3000    0.0000 C   0  0  0  0  0  0  0  0  0  0  0  0
    6.0600    1.3000    0.0000 C   0  0  0  0  0  0  0  0  0  0  0  0
   -3.3638    2.9458    0.0000 C   0  0  0  0  0  0  0  0  0  0  0  0
   -0.8920    3.7523    0.0000 C   0  0  0  0  0  0  0  0  0  0  0  0
    4.5600   -1.3000    0.0000 C   0  0  0  0  0  0  0  0  0  0  0  0
    4.5600    1.3000    0.0000 C   0  0  0  0  0  0  0  0  0  0  0  0
   -1.8953    2.6360    0.0000 C   0  0  0  0  0  0  0  0  0  0  0  0
    3.8100   -0.0000    0.0000 C   0  0  0  0  0  0  0  0  0  0  0  0
    0.0000    0.7500    0.0000 C   0  0  0  0  0  0  0  0  0  0  0  0
    0.0000   -0.7500    0.0000 C   0  0  0  0  0  0  0  0  0  0  0  0
   -1.4300    1.2100    0.0000 C   0  0  0  0  0  0  0  0  0  0  0  0
   -1.4300   -1.2100    0.0000 C   0  0  0  0  0  0  0  0  0  0  0  0
    1.4300    1.2100    0.0000 C   0  0  0  0  0  0  0  0  0  0  0  0
    1.4300   -1.2100    0.0000 C   0  0  0  0  0  0  0  0  0  0  0  0
   -2.3100    0.0000    0.0000 N   0  0  0  0  0  0  0  0  0  0  0  0
    2.3100    0.0000    0.0000 N   0  0  0  0  0  0  0  0  0  0  0  0
    1.8953    2.6360    0.0000 O   0  0  0  0  0  0  0  0  0  0  0  0
    1.8953   -2.6360    0.0000 O   0  0  0  0  0  0  0  0  0  0  0  0
   -1.8953   -2.6360    0.0000 Si  0  0  0  0  0  4  0  0  0  0  0  0
  6  4  2  0
  7  4  1  0
  8  5  2  0
  9  5  1  0
 10  6  1  0
 11  7  2  0
 12  8  1  0
 13  9  2  0
 14 10  2  0
 14 11  1  0
 15 12  2  0
 15 13  1  0
 17 16  1  0
 18 14  1  0
 16 18  1  6
 19 17  1  0
 20 16  1  0
 17 21  1  6
 22 18  2  0
 19 22  1  0
 23 15  1  0
 23 20  1  0
 23 21  1  0
 24 20  2  0
 25 21  2  0
 26  1  1  0
 26  2  1  0
 26  3  1  0
 19 26  1  6
M  END
>  <NAME>  (224) 
(2AR,5AR,6S)-6-TRIMETHYLSILYL-3,5-DIOXO-2,4-DIPHENYL-3,4,5,6-TETRAHYDROPYRROLO(3,4-C)PYRROLE

>  <SYNONYMS>  (224) 


>  <SPECTRUM TYPE>  (224) 
MS1

>  <INSTRUMENT TYPE>  (224) 
EI-B

>  <INSTRUMENT>  (224) 
Unknown

>  <ION MODE>  (224) 
P

>  <INCHIKEY>  (224) 
NMQPRLMQDAJJKZ-AOIWGVFYSA-N

>  <FORMULA>  (224) 
C21H22N2O2Si

>  <EXACT MASS>  (224) 
362.145054474

>  <MW>  (224) 
362

>  <ID>  (224) 
JP011870

>  <CONTRIBUTOR>  (224) 
University of Tokyo Team, {Faculty of Engineering, University of Tokyo

>  <COMMENT>  (224) 
SMILES=c(c4)ccc(c4)N(C(=O)1)C(=O)C([H])(C([H])([Si](C)(C)C)2)C([H])1C(c(c3)cccc3)=N2
InChI=InChI=1S/C21H22N2O2Si/c1-26(2,3)19-17-16(18(22-19)14-10-6-4-7-11-14)20(24)23(21(17)25)15-12-8-5-9-13-15/h4-13,16-17,19H,1-3H3/t16-,17+,19+/m1/s1
computed SMILES=O=C1N(C=2C=CC=CC2)C(=O)C3C(N=C(C=4C=CC=CC4)C13)[Si](C)(C)C
accession=JP011870
date=2016.01.19 (Created 2008.10.21, modified 2011.05.06)
author=YOSHIKI O, FAC, TECHNOLOGY, OSAKA UNIV.
license=CC BY-NC-SA
exact mass=362.14505
ionization energy=70 eV
ion type=[M]+*
computed spectral entropy=3.2308551476901513
computed normalized entropy=0.8758364668400904
SPLASH=splash10-0229-9445000000-6462ceca91ff58192536
submitter=submitter = University of Tokyo Team (Faculty of Engineering, University of Tokyo)
MoNA Rating=3.75

>  <NUM PEAKS>  (224) 
40

>  <MASS SPECTRAL PEAKS>  (224) 
51 6.6
52 3.4
63 3.7
64 3.1
67 5.3
68 3.6
73 99.99
74 9.1
75 8.4
77 14.5
89 3.4
91 5.3
93 3.2
103 4.3
104 4.7
105 11.2
115 11.6
116 3.2
117 17.3
119 4.5
130 14.2
131 11.6
142 7
143 4.2
200 7.2
214 9.6
215 13.8
216 3.2
242 11
278 12.1
279 12.8
290 6.4
291 6.1
347 13.7
348 13
349 4.1
361 8.2
362 27.7
363 28.5
364 8.9

$$$$

     RDKit          2D

 34 38  0  0  1  0  0  0  0  0999 V2000
   -0.0107   -3.1013    0.0000 C   0  0  0  0  0  0  0  0  0  0  0  0
    1.8806   -4.0620    0.0000 C   0  0  0  0  0  0  0  0  0  0  0  0
    2.8413   -2.1707    0.0000 C   0  0  0  0  0  0  0  0  0  0  0  0
    2.3458    5.4880    0.0000 C   0  0  0  0  0  0  0  0  0  0  0  0
    6.0600   -3.8971    0.0000 C   0  0  0  0  0  0  0  0  0  0  0  0
   -7.2900    0.0000    0.0000 C   0  0  0  0  0  0  0  0  0  0  0  0
    0.8773    5.1783    0.0000 C   0  0  0  0  0  0  0  0  0  0  0  0
    3.3491    4.3718    0.0000 C   0  0  0  0  0  0  0  0  0  0  0  0
    6.8108   -2.5976    0.0000 C   0  0  0  0  0  0  0  0  0  0  0  0
    4.5592   -3.8976    0.0000 C   0  0  0  0  0  0  0  0  0  0  0  0
   -6.5400    1.3000    0.0000 C   0  0  0  0  0  0  0  0  0  0  0  0
   -6.5400   -1.3000    0.0000 C   0  0  0  0  0  0  0  0  0  0  0  0
    0.4120    3.7523    0.0000 C   0  0  0  0  0  0  0  0  0  0  0  0
    2.8838    2.9458    0.0000 C   0  0  0  0  0  0  0  0  0  0  0  0
    6.0608   -1.2986    0.0000 C   0  0  0  0  0  0  0  0  0  0  0  0
    3.8092   -2.5986    0.0000 C   0  0  0  0  0  0  0  0  0  0  0  0
   -5.0400    1.3000    0.0000 C   0  0  0  0  0  0  0  0  0  0  0  0
   -5.0400   -1.3000    0.0000 C   0  0  0  0  0  0  0  0  0  0  0  0
    1.4153    2.6360    0.0000 C   0  0  0  0  0  0  0  0  0  0  0  0
    4.5600   -1.2990    0.0000 C   0  0  0  0  0  0  0  0  0  0  0  0
   -4.2900    0.0000    0.0000 C   0  0  0  0  0  0  0  0  0  0  0  0
   -0.4800    0.7500    0.0000 C   0  0  0  0  0  0  0  0  0  0  0  0
   -0.4800   -0.7500    0.0000 C   0  0  0  0  0  0  0  0  0  0  0  0
    0.9500    1.2100    0.0000 C   0  0  0  0  0  0  0  0  0  0  0  0
    3.8100   -0.0000    0.0000 C   0  0  0  0  0  0  0  0  0  0  0  0
   -1.9100    1.2100    0.0000 C   0  0  0  0  0  0  0  0  0  0  0  0
   -1.9100   -1.2100    0.0000 C   0  0  0  0  0  0  0  0  0  0  0  0
    0.9500   -1.2100    0.0000 C   0  0  0  0  0  0  0  0  0  0  0  0
   -2.7900    0.0000    0.0000 N   0  0  0  0  0  0  0  0  0  0  0  0
    1.8300    0.0000    0.0000 N   0  0  0  0  0  0  0  0  0  0  0  0
    4.5600    1.2990    0.0000 O   0  0  0  0  0  0  0  0  0  0  0  0
   -2.3753    2.6360    0.0000 O   0  0  0  0  0  0  0  0  0  0  0  0
   -2.3753   -2.6360    0.0000 O   0  0  0  0  0  0  0  0  0  0  0  0
    1.4153   -2.6360    0.0000 Si  0  0  0  0  0  4  0  0  0  0  0  0
  7  4  2  0
  8  4  1  0
  9  5  2  0
 10  5  1  0
 11  6  2  0
 12  6  1  0
 13  7  1  0
 14  8  2  0
 15  9  1  0
 16 10  2  0
 17 11  1  0
 18 12  2  0
 19 13  2  0
 19 14  1  0
 20 15  2  0
 20 16  1  0
 21 17  2  0
 21 18  1  0
 23 22  1  0
 24 19  1  1
 24 22  1  0
 25 20  1  0
 22 26  1  1
 23 27  1  6
 28 23  1  0
 29 21  1  0
 29 26  1  0
 29 27  1  0
 30 24  1  0
 30 25  1  0
 30 28  1  0
 31 25  2  0
 32 26  2  0
 33 27  2  0
 34  1  1  0
 34  2  1  0
 34  3  1  0
 28 34  1  1
M  END
>  <NAME>  (225) 
(2S,2AR,5AS,6R)-1-BENZOYL-6-TRIMETHYLSILYL-3,5-DIOXO-2,4-DIPHENYL-1,2,3,4,5,6-HEXAHYDROPYRROLO(3,4-C)PYRROLE

>  <SYNONYMS>  (225) 


>  <SPECTRUM TYPE>  (225) 
MS1

>  <INSTRUMENT TYPE>  (225) 
EI-B

>  <INSTRUMENT>  (225) 
Unknown

>  <ION MODE>  (225) 
P

>  <INCHIKEY>  (225) 
BVDBCALRFHDKGL-PVIBPIFHSA-N

>  <FORMULA>  (225) 
C28H28N2O3Si

>  <EXACT MASS>  (225) 
468.186919286

>  <MW>  (225) 
468

>  <ID>  (225) 
JP011869

>  <CONTRIBUTOR>  (225) 
University of Tokyo Team, {Faculty of Engineering, University of Tokyo

>  <COMMENT>  (225) 
SMILES=c(c5)(cccc5)C(N(C3([H])c(c4)cccc4)C(C(C3([H])1)(C(N(c(c2)cccc2)C1=O)=O)[H])([Si](C)(C)C)[H])=O
InChI=InChI=1S/C28H28N2O3Si/c1-34(2,3)28-23-22(26(32)29(27(23)33)21-17-11-6-12-18-21)24(19-13-7-4-8-14-19)30(28)25(31)20-15-9-5-10-16-20/h4-18,22-24,28H,1-3H3/t22-,23+,24-,28+/m1/s1
computed SMILES=O=C(C=1C=CC=CC1)N2C(C=3C=CC=CC3)C4C(=O)N(C=5C=CC=CC5)C(=O)C4C2[Si](C)(C)C
accession=JP011869
date=2016.01.19 (Created 2008.10.21, modified 2011.05.06)
author=YOSHIKI O, FAC, TECHNOLOGY, OSAKA UNIV.
license=CC BY-NC-SA
exact mass=468.18692
ionization energy=70 eV
ion type=[M]+*
computed spectral entropy=2.8627571254454858
computed normalized entropy=0.8118163487430406
SPLASH=splash10-05di-9823200000-6d6103bef954875e6e3a
submitter=submitter = University of Tokyo Team (Faculty of Engineering, University of Tokyo)
MoNA Rating=3.75

>  <NUM PEAKS>  (225) 
34

>  <MASS SPECTRAL PEAKS>  (225) 
51 6.8
59 3.5
73 68.5
74 6.6
75 8.4
77 53.5
78 4.8
90 3.1
91 3.8
103 6.8
104 6.4
105 99.99
106 7.9
115 4.3
117 3.2
128 6.7
131 4.4
163 3.7
177 4.3
178 4.5
205 3.1
206 3.9
246 22.7
247 4.8
248 4.4
321 6
378 41.2
379 10.9
380 10.6
453 19.1
454 7.5
467 10.4
468 10.3
469 5.5

$$$$

     RDKit          2D

 26 29  0  0  1  0  0  0  0  0999 V2000
   -3.3213   -2.1707    0.0000 C   0  0  0  0  0  0  0  0  0  0  0  0
   -2.3606   -4.0620    0.0000 C   0  0  0  0  0  0  0  0  0  0  0  0
   -0.4693   -3.1013    0.0000 C   0  0  0  0  0  0  0  0  0  0  0  0
   -2.8258    5.4880    0.0000 C   0  0  0  0  0  0  0  0  0  0  0  0
    6.8100   -0.0000    0.0000 C   0  0  0  0  0  0  0  0  0  0  0  0
   -3.8291    4.3718    0.0000 C   0  0  0  0  0  0  0  0  0  0  0  0
   -1.3573    5.1783    0.0000 C   0  0  0  0  0  0  0  0  0  0  0  0
    6.0600   -1.3000    0.0000 C   0  0  0  0  0  0  0  0  0  0  0  0
    6.0600    1.3000    0.0000 C   0  0  0  0  0  0  0  0  0  0  0  0
   -3.3638    2.9458    0.0000 C   0  0  0  0  0  0  0  0  0  0  0  0
   -0.8920    3.7523    0.0000 C   0  0  0  0  0  0  0  0  0  0  0  0
    4.5600   -1.3000    0.0000 C   0  0  0  0  0  0  0  0  0  0  0  0
    4.5600    1.3000    0.0000 C   0  0  0  0  0  0  0  0  0  0  0  0
   -1.8953    2.6360    0.0000 C   0  0  0  0  0  0  0  0  0  0  0  0
    3.8100   -0.0000    0.0000 C   0  0  0  0  0  0  0  0  0  0  0  0
    0.0000    0.7500    0.0000 C   0  0  0  0  0  0  0  0  0  0  0  0
    0.0000   -0.7500    0.0000 C   0  0  0  0  0  0  0  0  0  0  0  0
   -1.4300    1.2100    0.0000 C   0  0  0  0  0  0  0  0  0  0  0  0
   -1.4300   -1.2100    0.0000 C   0  0  0  0  0  0  0  0  0  0  0  0
    1.4300    1.2100    0.0000 C   0  0  0  0  0  0  0  0  0  0  0  0
    1.4300   -1.2100    0.0000 C   0  0  0  0  0  0  0  0  0  0  0  0
   -2.3100    0.0000    0.0000 N   0  0  0  0  0  0  0  0  0  0  0  0
    2.3100    0.0000    0.0000 N   0  0  0  0  0  0  0  0  0  0  0  0
    1.8953    2.6360    0.0000 O   0  0  0  0  0  0  0  0  0  0  0  0
    1.8953   -2.6360    0.0000 O   0  0  0  0  0  0  0  0  0  0  0  0
   -1.8953   -2.6360    0.0000 Si  0  0  0  0  0  4  0  0  0  0  0  0
  6  4  2  0
  7  4  1  0
  8  5  2  0
  9  5  1  0
 10  6  1  0
 11  7  2  0
 12  8  1  0
 13  9  2  0
 14 10  2  0
 14 11  1  0
 15 12  2  0
 15 13  1  0
 17 16  1  0
 18 14  1  0
 16 18  1  6
 19 17  1  0
 20 16  1  0
 17 21  1  1
 22 18  2  0
 19 22  1  0
 23 15  1  0
 23 20  1  0
 23 21  1  0
 24 20  2  0
 25 21  2  0
 26  1  1  0
 26  2  1  0
 26  3  1  0
 19 26  1  6
M  END
>  <NAME>  (226) 
(2AR,5AS,6R)-2,4-DIPHENYL-6-TRIMETHYLSILYL-3,5-DIOXO-3,4,5,6-TETRAHYDROPYRROLO(3,4-C)PYRROLE

>  <SYNONYMS>  (226) 


>  <SPECTRUM TYPE>  (226) 
MS1

>  <INSTRUMENT TYPE>  (226) 
EI-B

>  <INSTRUMENT>  (226) 
Unknown

>  <ION MODE>  (226) 
P

>  <INCHIKEY>  (226) 
NMQPRLMQDAJJKZ-LMMKCTJWSA-N

>  <FORMULA>  (226) 
C21H22N2O2Si

>  <EXACT MASS>  (226) 
362.145054474

>  <MW>  (226) 
362

>  <ID>  (226) 
JP011868

>  <CONTRIBUTOR>  (226) 
University of Tokyo Team, {Faculty of Engineering, University of Tokyo

>  <COMMENT>  (226) 
SMILES=c(c4)ccc(c4)N(C(=O)1)C(=O)C([H])(C([H])([Si](C)(C)C)2)C([H])1C(c(c3)cccc3)=N2
InChI=InChI=1S/C21H22N2O2Si/c1-26(2,3)19-17-16(18(22-19)14-10-6-4-7-11-14)20(24)23(21(17)25)15-12-8-5-9-13-15/h4-13,16-17,19H,1-3H3/t16-,17-,19+/m1/s1
computed SMILES=O=C1N(C=2C=CC=CC2)C(=O)C3C(N=C(C=4C=CC=CC4)C13)[Si](C)(C)C
accession=JP011868
date=2016.01.19 (Created 2008.10.21, modified 2011.05.06)
author=YOSHIKI O, FAC, TECHNOLOGY, OSAKA UNIV.
license=CC BY-NC-SA
exact mass=362.14505
ionization energy=70 eV
ion type=[M]+*
computed spectral entropy=2.6186028601374844
computed normalized entropy=0.8135147183705681
SPLASH=splash10-0229-9345000000-47517cee570dee2c85d6
submitter=submitter = University of Tokyo Team (Faculty of Engineering, University of Tokyo)
MoNA Rating=3.75

>  <NUM PEAKS>  (226) 
25

>  <MASS SPECTRAL PEAKS>  (226) 
73 99.99
74 8.8
75 4.8
77 5.1
89 3.3
91 4
105 4.3
115 12.6
117 13
119 3.8
142 7.4
143 4.1
200 7
214 10.6
215 14.5
216 3.4
242 12.1
244 3.2
290 4.4
291 4.6
348 4.5
361 7.9
362 26.7
363 27.3
364 9.3

$$$$

     RDKit          2D

 22 25  0  0  1  0  0  0  0  0999 V2000
   -2.8258   -5.4880    0.0000 C   0  0  0  0  0  0  0  0  0  0  0  0
    6.8100   -0.0000    0.0000 C   0  0  0  0  0  0  0  0  0  0  0  0
   -1.3573   -5.1783    0.0000 C   0  0  0  0  0  0  0  0  0  0  0  0
   -3.8291   -4.3718    0.0000 C   0  0  0  0  0  0  0  0  0  0  0  0
    6.0600   -1.3000    0.0000 C   0  0  0  0  0  0  0  0  0  0  0  0
    6.0600    1.3000    0.0000 C   0  0  0  0  0  0  0  0  0  0  0  0
   -0.8920   -3.7523    0.0000 C   0  0  0  0  0  0  0  0  0  0  0  0
   -3.3638   -2.9458    0.0000 C   0  0  0  0  0  0  0  0  0  0  0  0
    4.5600   -1.3000    0.0000 C   0  0  0  0  0  0  0  0  0  0  0  0
    4.5600    1.3000    0.0000 C   0  0  0  0  0  0  0  0  0  0  0  0
   -1.4300    1.2100    0.0000 C   0  0  0  0  0  0  0  0  0  0  0  0
   -1.8953   -2.6360    0.0000 C   0  0  0  0  0  0  0  0  0  0  0  0
    3.8100   -0.0000    0.0000 C   0  0  0  0  0  0  0  0  0  0  0  0
    0.0000    0.7500    0.0000 C   0  0  0  0  0  0  0  0  0  0  0  0
    0.0000   -0.7500    0.0000 C   0  0  0  0  0  0  0  0  0  0  0  0
   -1.4300   -1.2100    0.0000 C   0  0  0  0  0  0  0  0  0  0  0  0
    1.4300    1.2100    0.0000 C   0  0  0  0  0  0  0  0  0  0  0  0
    1.4300   -1.2100    0.0000 C   0  0  0  0  0  0  0  0  0  0  0  0
   -2.3100    0.0000    0.0000 N   0  0  0  0  0  0  0  0  0  0  0  0
    2.3100    0.0000    0.0000 N   0  0  0  0  0  0  0  0  0  0  0  0
    1.8953    2.6360    0.0000 O   0  0  0  0  0  0  0  0  0  0  0  0
    1.8953   -2.6360    0.0000 O   0  0  0  0  0  0  0  0  0  0  0  0
  3  1  2  0
  4  1  1  0
  5  2  2  0
  6  2  1  0
  7  3  1  0
  8  4  2  0
  9  5  1  0
 10  6  2  0
 12  7  2  0
 12  8  1  0
 13  9  2  0
 13 10  1  0
 14 11  1  1
 15 14  1  0
 16 12  1  0
 15 16  1  1
 17 14  1  0
 18 15  1  0
 19 11  1  0
 19 16  2  0
 20 13  1  0
 20 17  1  0
 20 18  1  0
 21 17  2  0
 22 18  2  0
M  END
>  <NAME>  (227) 
(2AR,5AS)-3,5-DIOXO-2,4-DIPHENYL-3,4,5,6-TETRAHYDROPYRROLO(3,4-C)PYRROLE

>  <SYNONYMS>  (227) 


>  <SPECTRUM TYPE>  (227) 
MS1

>  <INSTRUMENT TYPE>  (227) 
EI-B

>  <INSTRUMENT>  (227) 
Unknown

>  <ION MODE>  (227) 
P

>  <INCHIKEY>  (227) 
HLWUBVVHVMJKTP-HUUCEWRRSA-N

>  <FORMULA>  (227) 
C18H14N2O2

>  <EXACT MASS>  (227) 
290.105527688

>  <MW>  (227) 
290

>  <ID>  (227) 
JP011867

>  <CONTRIBUTOR>  (227) 
University of Tokyo Team, {Faculty of Engineering, University of Tokyo

>  <COMMENT>  (227) 
SMILES=c(c4)ccc(c4)C(=N3)C([H])(C(=O)1)C([H])(C3)C(=O)N(c(c2)cccc2)1
InChI=InChI=1S/C18H14N2O2/c21-17-14-11-19-16(12-7-3-1-4-8-12)15(14)18(22)20(17)13-9-5-2-6-10-13/h1-10,14-15H,11H2/t14-,15-/m1/s1
computed SMILES=O=C1N(C=2C=CC=CC2)C(=O)C3CN=C(C=4C=CC=CC4)C13
accession=JP011867
date=2016.01.19 (Created 2008.10.21, modified 2011.05.06)
author=YOSHIKI O, FAC, TECHNOLOGY, OSAKA UNIV.
license=CC BY-NC-SA
exact mass=290.10553
ionization energy=70 eV
ion type=[M]+*
computed spectral entropy=3.1213613455235865
computed normalized entropy=0.8298844117598911
SPLASH=splash10-014l-9830000000-f8e87a6f2d5ed3b72673
submitter=submitter = University of Tokyo Team (Faculty of Engineering, University of Tokyo)
MoNA Rating=3.75

>  <NUM PEAKS>  (227) 
43

>  <MASS SPECTRAL PEAKS>  (227) 
50 8.1
51 24.4
52 5.9
54 4.9
55 2.8
62 3.7
63 14
64 14.7
65 9
66 2.2
67 3.5
68 57.2
69 3.1
75 2.9
76 6.3
77 39.7
78 3.9
85 9.2
86 9.4
89 13.5
90 12.2
91 15.7
93 2
103 6.7
104 7.3
105 2.7
114 2.6
115 29.6
116 18.7
117 99.99
118 24.7
119 8.2
130 3.7
142 4.8
143 35.1
144 4.5
159 2.3
170 6.9
171 2.1
187 3.2
290 91.5
291 19.7
292 2.3

$$$$

     RDKit          2D

 26 29  0  0  1  0  0  0  0  0999 V2000
   -3.3213   -2.1707    0.0000 C   0  0  0  0  0  0  0  0  0  0  0  0
   -2.3606   -4.0620    0.0000 C   0  0  0  0  0  0  0  0  0  0  0  0
   -0.4693   -3.1013    0.0000 C   0  0  0  0  0  0  0  0  0  0  0  0
   -2.8258    5.4880    0.0000 C   0  0  0  0  0  0  0  0  0  0  0  0
    6.8100   -0.0000    0.0000 C   0  0  0  0  0  0  0  0  0  0  0  0
   -3.8291    4.3718    0.0000 C   0  0  0  0  0  0  0  0  0  0  0  0
   -1.3573    5.1783    0.0000 C   0  0  0  0  0  0  0  0  0  0  0  0
    6.0600   -1.3000    0.0000 C   0  0  0  0  0  0  0  0  0  0  0  0
    6.0600    1.3000    0.0000 C   0  0  0  0  0  0  0  0  0  0  0  0
   -3.3638    2.9458    0.0000 C   0  0  0  0  0  0  0  0  0  0  0  0
   -0.8920    3.7523    0.0000 C   0  0  0  0  0  0  0  0  0  0  0  0
    4.5600   -1.3000    0.0000 C   0  0  0  0  0  0  0  0  0  0  0  0
    4.5600    1.3000    0.0000 C   0  0  0  0  0  0  0  0  0  0  0  0
   -1.8953    2.6360    0.0000 C   0  0  0  0  0  0  0  0  0  0  0  0
    3.8100   -0.0000    0.0000 C   0  0  0  0  0  0  0  0  0  0  0  0
    0.0000    0.7500    0.0000 C   0  0  0  0  0  0  0  0  0  0  0  0
    0.0000   -0.7500    0.0000 C   0  0  0  0  0  0  0  0  0  0  0  0
   -1.4300    1.2100    0.0000 C   0  0  0  0  0  0  0  0  0  0  0  0
   -1.4300   -1.2100    0.0000 C   0  0  0  0  0  0  0  0  0  0  0  0
    1.4300    1.2100    0.0000 C   0  0  0  0  0  0  0  0  0  0  0  0
    1.4300   -1.2100    0.0000 C   0  0  0  0  0  0  0  0  0  0  0  0
   -2.3100    0.0000    0.0000 N   0  0  0  0  0  0  0  0  0  0  0  0
    2.3100    0.0000    0.0000 N   0  0  0  0  0  0  0  0  0  0  0  0
    1.8953    2.6360    0.0000 O   0  0  0  0  0  0  0  0  0  0  0  0
    1.8953   -2.6360    0.0000 O   0  0  0  0  0  0  0  0  0  0  0  0
   -1.8953   -2.6360    0.0000 Si  0  0  0  0  0  4  0  0  0  0  0  0
  6  4  2  0
  7  4  1  0
  8  5  2  0
  9  5  1  0
 10  6  1  0
 11  7  2  0
 12  8  1  0
 13  9  2  0
 14 10  2  0
 14 11  1  0
 15 12  2  0
 15 13  1  0
 17 16  1  0
 18 14  1  0
 16 18  1  6
 19 17  1  0
 16 20  1  0
 17 21  1  1
 22 18  1  0
 19 22  1  0
 23 15  1  0
 23 20  1  0
 23 21  1  0
 24 20  2  0
 25 21  2  0
 26  1  1  0
 26  2  1  0
 26  3  1  0
 19 26  1  6
M  END
>  <NAME>  (228) 
(2S,2AR,5AS)-6-TRIMETHYLSILYL-3,5-DIOXO-4-PHENYL-1,2,3,4,5,6-HEXAHYDROPYRROLO(3,4-C)PYRROLE

>  <SYNONYMS>  (228) 


>  <SPECTRUM TYPE>  (228) 
MS1

>  <INSTRUMENT TYPE>  (228) 
EI-B

>  <INSTRUMENT>  (228) 
Unknown

>  <ION MODE>  (228) 
P

>  <INCHIKEY>  (228) 
VIMLDWOVFSLUBJ-VPQXAQPCSA-N

>  <FORMULA>  (228) 
C21H24N2O2Si

>  <EXACT MASS>  (228) 
364.160704538

>  <MW>  (228) 
364

>  <ID>  (228) 
JP011866

>  <CONTRIBUTOR>  (228) 
University of Tokyo Team, {Faculty of Engineering, University of Tokyo

>  <COMMENT>  (228) 
SMILES=c(c4)ccc(c4)N(C(=O)1)C(=O)C([H])(C([H])([Si](C)(C)C)2)C([H])1C(c(c3)cccc3)N2
InChI=InChI=1S/C21H24N2O2Si/c1-26(2,3)19-17-16(18(22-19)14-10-6-4-7-11-14)20(24)23(21(17)25)15-12-8-5-9-13-15/h4-13,16-19,22H,1-3H3/t16-,17-,18?,19+/m1/s1
computed SMILES=O=C1N(C=2C=CC=CC2)C(=O)C3C1C(NC3[Si](C)(C)C)C=4C=CC=CC4
accession=JP011866
date=2016.01.19 (Created 2008.10.21, modified 2011.05.06)
author=YOSHIKI O, FAC, TECHNOLOGY, OSAKA UNIV.
license=CC BY-NC-SA
exact mass=364.1607
ionization energy=70 eV
ion type=[M]+*
computed spectral entropy=3.1193918174090354
computed normalized entropy=0.8057943280701567
SPLASH=splash10-0006-3920000000-099a359497735e5be2f2
submitter=submitter = University of Tokyo Team (Faculty of Engineering, University of Tokyo)
MoNA Rating=3.75

>  <NUM PEAKS>  (228) 
48

>  <MASS SPECTRAL PEAKS>  (228) 
51 3.7
58 2.5
59 11.2
64 2.3
65 2.7
67 6.3
73 68.5
74 7
75 4.8
77 8.9
89 3.7
90 4.2
91 8.6
100 4.4
103 4.8
104 6
115 13.7
116 5
117 13.8
118 5.7
119 3.1
127 4.3
128 2.2
131 5.7
142 99.99
143 27
144 76.3
145 10
170 2.3
174 4.3
176 2.4
190 5.7
191 41.4
192 7.8
193 2.2
218 2.3
244 5.4
246 8.4
247 3
273 2.2
291 45
292 10
294 3.3
295 9.6
296 2.6
349 6.1
364 8.4
365 2.4

$$$$

     RDKit          2D

 21 22  0  0  0  0  0  0  0  0999 V2000
   -6.1880    0.0483    0.0000 C   0  0  0  0  0  0  0  0  0  0  0  0
   -4.3470   -6.9933    0.0000 C   0  0  0  0  0  0  0  0  0  0  0  0
    4.8424   -2.3072    0.0000 C   0  0  0  0  0  0  0  0  0  0  0  0
   -0.0330   -5.9450    0.0000 C   0  0  0  0  0  0  0  0  0  0  0  0
   -1.0362   -4.8298    0.0000 C   0  0  0  0  0  0  0  0  0  0  0  0
    1.3378   -5.3305    0.0000 C   0  0  0  0  0  0  0  0  0  0  0  0
   -0.8970   -2.1534    0.0000 C   0  0  0  0  0  0  0  0  0  0  0  0
   -0.2875   -3.5240    0.0000 C   0  0  0  0  0  0  0  0  0  0  0  0
   -2.8660   -1.9456    0.0000 C   0  0  0  0  0  0  0  0  0  0  0  0
   -3.8658   -3.0539    0.0000 C   0  0  0  0  0  0  0  0  0  0  0  0
   -3.6160   -0.6465    0.0000 C   0  0  0  0  0  0  0  0  0  0  0  0
   -3.5503   -4.5204    0.0000 C   0  0  0  0  0  0  0  0  0  0  0  0
    2.2998   -2.8414    0.0000 C   0  0  0  0  0  0  0  0  0  0  0  0
   -5.2416   -2.4511    0.0000 N   0  0  0  0  0  0  0  0  0  0  0  0
   -5.0758   -0.9582    0.0000 N   0  0  0  0  0  0  0  0  0  0  0  0
    1.1827   -3.8424    0.0000 N   0  0  0  0  0  0  0  0  0  0  0  0
   -3.0065    0.7241    0.0000 O   0  0  0  0  0  0  0  0  0  0  0  0
   -2.1225   -4.9804    0.0000 O   0  0  0  0  0  0  0  0  0  0  0  0
    1.9914   -1.3734    0.0000 O   0  0  0  0  0  0  0  0  0  0  0  0
   -4.6625   -5.5269    0.0000 O   0  0  0  0  0  0  0  0  0  0  0  0
    3.7253   -3.3083    0.0000 O   0  0  0  0  0  0  0  0  0  0  0  0
  5  4  1  0
  6  4  2  0
  8  5  2  0
  8  7  1  0
  7  9  2  0
 10  9  1  0
 11  9  1  0
 12 10  1  0
 14 10  2  0
 15  1  1  0
 15 11  1  0
 15 14  1  0
 16  6  1  0
 16  8  1  0
 16 13  1  0
 17 11  2  0
 18 12  2  0
 19 13  2  0
 20  2  1  0
 20 12  1  0
 21  3  1  0
 21 13  1  0
M  END
>  <NAME>  (229) 
1-METHYL-4-(1'-METHOXYCARBONYL-2'-PYRROLOMETHYLENE)-3-METHOXYCARBONYL-2-PYRAZOLIN-5-ONE

>  <SYNONYMS>  (229) 


>  <SPECTRUM TYPE>  (229) 
MS1

>  <INSTRUMENT TYPE>  (229) 
EI-B

>  <INSTRUMENT>  (229) 
Unknown

>  <ION MODE>  (229) 
P

>  <INCHIKEY>  (229) 
CBZBTEMGKJECOG-VQHVLOKHSA-N

>  <FORMULA>  (229) 
C13H13N3O5

>  <EXACT MASS>  (229) 
291.08552051600003

>  <MW>  (229) 
291

>  <ID>  (229) 
JP011865

>  <CONTRIBUTOR>  (229) 
University of Tokyo Team, {Faculty of Engineering, University of Tokyo

>  <COMMENT>  (229) 
SMILES=COC(=O)c(n1)c(=Cc(c([H])2)n(C(=O)OC)c([H])c([H])2)c(=O)n(C)1
InChI=InChI=1S/C13H13N3O5/c1-15-11(17)9(10(14-15)12(18)20-2)7-8-5-4-6-16(8)13(19)21-3/h4-7H,1-3H3/b9-7+
computed SMILES=O=C(OC)C1=NN(C(=O)C1=CC2=CC=CN2C(=O)OC)C
accession=JP011865
date=2016.01.19 (Created 2008.10.21, modified 2011.05.06)
author=YOSHIKI O, FAC, TECHNOLOGY, OSAKA UNIV.
license=CC BY-NC-SA
exact mass=291.08552
ionization energy=70 eV
ion type=[M]+*
computed spectral entropy=4.136143509787764
computed normalized entropy=0.8749321334322806
SPLASH=splash10-0f6x-8890000000-b52dbdb269a1d609dd26
submitter=submitter = University of Tokyo Team (Faculty of Engineering, University of Tokyo)
MoNA Rating=3.75

>  <NUM PEAKS>  (229) 
113

>  <MASS SPECTRAL PEAKS>  (229) 
50 6.1
51 13.1
52 6.1
53 4.6
54 1.7
55 2.1
56 2.3
57 1.9
59 46.7
60 1.8
61 1.6
62 6.5
63 11.7
64 5.9
65 4.9
66 3.6
67 2.6
68 1.3
69 1
74 4.1
75 9.1
76 9.8
77 8.3
78 4.9
79 2.9
80 3.4
81 1.2
84 9.7
86 6.5
87 1.4
88 3.8
89 8.6
90 8.2
91 4.5
92 2.6
93 1.7
94 11
95 1
101 1.5
102 14.6
103 15.8
104 9.2
105 5.3
106 2.9
107 1.5
108 1
115 1.2
116 6.6
117 9.9
118 16.9
119 4.5
120 1.1
129 2.4
130 11.8
131 11.8
132 6.2
133 4.7
134 1.5
143 1
144 10.1
145 7.3
146 7.1
147 1.9
148 2
149 1.6
151 1.9
152 1
157 1.8
158 5.2
159 5.9
160 3.1
161 1.6
162 3.4
165 1.1
167 1.9
172 3.8
173 6.9
174 2.8
175 1.5
176 4.3
177 1.2
186 2.2
187 1.4
188 9.4
189 5.5
190 2.6
192 1.5
200 6.1
201 13.9
202 5.2
203 2.1
204 3.6
205 2.8
214 3.3
215 1.3
216 11.4
217 3.6
218 3.1
220 2.6
230 4.4
231 1.8
232 19.1
233 8.3
234 2.1
244 3.8
246 1.7
260 3.6
276 8.9
277 1.2
290 6.8
291 99.99
292 13.8
293 2.5

$$$$

     RDKit          2D

 22 26  0  0  0  0  0  0  0  0999 V2000
    2.4000   -3.3004    0.0000 C   0  0  0  0  0  0  0  0  0  0  0  0
    0.9221   -3.5614    0.0000 C   0  0  0  0  0  0  0  0  0  0  0  0
    2.9138   -1.8902    0.0000 C   0  0  0  0  0  0  0  0  0  0  0  0
    1.9138    4.0108    0.0000 C   0  0  0  0  0  0  0  0  0  0  0  0
    2.6388    2.7551    0.0000 C   0  0  0  0  0  0  0  0  0  0  0  0
   -6.3245    0.4999    0.0000 C   0  0  0  0  0  0  0  0  0  0  0  0
   -0.0421   -2.4124    0.0000 C   0  0  0  0  0  0  0  0  0  0  0  0
    1.9496   -0.7411    0.0000 C   0  0  0  0  0  0  0  0  0  0  0  0
    0.4649    4.0663    0.0000 C   0  0  0  0  0  0  0  0  0  0  0  0
    1.9624    1.4725    0.0000 C   0  0  0  0  0  0  0  0  0  0  0  0
   -5.4428    1.7135    0.0000 C   0  0  0  0  0  0  0  0  0  0  0  0
   -5.4428   -0.7136    0.0000 C   0  0  0  0  0  0  0  0  0  0  0  0
    0.4717   -1.0022    0.0000 C   0  0  0  0  0  0  0  0  0  0  0  0
   -0.4489    2.8788    0.0000 C   0  0  0  0  0  0  0  0  0  0  0  0
    0.4771    1.2749    0.0000 C   0  0  0  0  0  0  0  0  0  0  0  0
   -4.0162    1.2499    0.0000 C   0  0  0  0  0  0  0  0  0  0  0  0
   -2.7172    1.9999    0.0000 C   0  0  0  0  0  0  0  0  0  0  0  0
   -2.7172   -1.0001    0.0000 C   0  0  0  0  0  0  0  0  0  0  0  0
   -4.0162   -0.2501    0.0000 N   0  0  0  0  0  0  0  0  0  0  0  0
   -1.4181    1.2499    0.0000 N   0  0  0  0  0  0  0  0  0  0  0  0
   -1.4181   -0.2501    0.0000 N   0  0  0  0  0  0  0  0  0  0  0  0
   -2.7172   -2.5001    0.0000 O   0  0  0  0  0  0  0  0  0  0  0  0
  2  1  2  0
  3  1  1  0
  5  4  2  0
  7  2  1  0
  8  3  2  0
  9  4  1  0
 10  5  1  0
 11  6  1  0
 12  6  2  0
 13  7  2  0
 13  8  1  0
 14  9  2  0
 15 10  2  0
 15 14  1  0
 16 11  2  0
 17 14  1  0
 17 16  1  0
 19 12  1  0
 19 16  1  0
 19 18  1  0
 20 13  1  0
 20 17  1  0
 21 15  1  0
 21 18  1  0
 21 20  1  0
 22 18  2  0
M  END
>  <NAME>  (230) 
6,11-PHENYLIMINO-5,6-DIHYDROPYRROLO(1,2-C)(1,3)BENZODIAZEPIN-5-ONE

>  <SYNONYMS>  (230) 


>  <SPECTRUM TYPE>  (230) 
MS1

>  <INSTRUMENT TYPE>  (230) 
EI-B

>  <INSTRUMENT>  (230) 
Unknown

>  <ION MODE>  (230) 
P

>  <INCHIKEY>  (230) 
UNCFTRHPAZCHOC-UHFFFAOYSA-N

>  <FORMULA>  (230) 
C18H13N3O

>  <EXACT MASS>  (230) 
287.105862036

>  <MW>  (230) 
287

>  <ID>  (230) 
JP011864

>  <CONTRIBUTOR>  (230) 
University of Tokyo Team, {Faculty of Engineering, University of Tokyo

>  <COMMENT>  (230) 
SMILES=c(c5)ccc(c5)N(N31)C(c(c4)n(cc4)C(=O)3)c(c2)c(ccc2)1
InChI=InChI=1S/C18H13N3O/c22-18-19-12-6-11-16(19)17-14-9-4-5-10-15(14)21(18)20(17)13-7-2-1-3-8-13/h1-12,17H
computed SMILES=O=C1N2C=CC=C2C3C=4C=CC=CC4N1N3C=5C=CC=CC5
accession=JP011864
date=2016.01.19 (Created 2008.10.21, modified 2011.05.06)
author=YOSHIKI O, FAC, TECHNOLOGY, OSAKA UNIV.
license=CC BY-NC-SA
exact mass=287.10586
ionization energy=70 eV
ion type=[M]+*
computed spectral entropy=4.1465398383335685
computed normalized entropy=0.8821523579823605
SPLASH=splash10-0pdr-9650000000-2e1783b0b9da57c4fa8a
submitter=submitter = University of Tokyo Team (Faculty of Engineering, University of Tokyo)
MoNA Rating=3.75

>  <NUM PEAKS>  (230) 
110

>  <MASS SPECTRAL PEAKS>  (230) 
50 20.4
51 63.8
52 14.2
53 7.2
54 4.5
55 21.7
56 10.8
57 24
58 5.3
59 2.7
60 5.8
61 3.8
62 6.9
63 18.5
64 20.3
65 13.4
66 7.5
67 6.5
68 3.6
69 10.7
70 7.4
71 11.3
73 3.4
74 7
75 10.9
76 14.5
77 90.8
78 11.9
79 4.9
80 2.8
81 6
82 4.1
83 7.6
84 5.2
85 6.6
86 4
87 4.6
88 6.2
89 6.5
90 6.8
91 15.3
92 4.1
93 8.1
94 4
95 4.9
96 2.6
97 4.2
98 2.8
99 4
100 2.7
101 9.7
102 8.3
103 6.5
104 7.5
105 11.3
106 3.7
107 2.6
109 4.1
111 2.4
113 4.2
114 7
115 11.2
116 6.1
117 3.4
119 4.1
121 3
125 2.9
126 9.6
127 21.4
128 14
129 14.6
130 3.4
139 2.6
140 7.9
141 4.2
142 3.6
143 4.4
144 2.3
145 2.4
149 14.1
151 3.8
152 6.2
153 9.2
154 42.8
155 11
156 4.6
166 4.5
167 8.4
168 14.7
169 5.5
179 6.5
180 3.6
182 18.1
183 4
184 4.6
195 6.3
196 4.7
202 3.7
229 4.2
230 8.8
231 18.5
232 5.9
245 6.6
257 12.6
258 88.7
259 62.8
260 10.1
286 18.2
287 99.99
288 21

$$$$

     RDKit          2D

 40 46  0  0  0  0  0  0  0  0999 V2000
    1.8900   -0.0000    0.0000 C   0  0  0  0  0  0  0  0  0  0  0  0
    1.4275    3.0025    0.0000 C   0  0  0  0  0  0  0  0  0  0  0  0
   -0.0750    4.5000    0.0000 C   0  0  0  0  0  0  0  0  0  0  0  0
   -1.5725    2.9975    0.0000 C   0  0  0  0  0  0  0  0  0  0  0  0
   -0.0775   -6.0000    0.0000 C   0  0  0  0  0  0  0  0  0  0  0  0
    8.0383   -0.0000    0.0000 C   0  0  0  0  0  0  0  0  0  0  0  0
   -8.1683    0.0000    0.0000 C   0  0  0  0  0  0  0  0  0  0  0  0
    1.2237   -5.2522    0.0000 C   0  0  0  0  0  0  0  0  0  0  0  0
   -1.3763   -5.2478    0.0000 C   0  0  0  0  0  0  0  0  0  0  0  0
    7.2883   -1.3000    0.0000 C   0  0  0  0  0  0  0  0  0  0  0  0
    7.2883    1.3000    0.0000 C   0  0  0  0  0  0  0  0  0  0  0  0
   -7.4183    1.3000    0.0000 C   0  0  0  0  0  0  0  0  0  0  0  0
   -7.4183   -1.3000    0.0000 C   0  0  0  0  0  0  0  0  0  0  0  0
    1.2262   -3.7522    0.0000 C   0  0  0  0  0  0  0  0  0  0  0  0
   -1.3738   -3.7478    0.0000 C   0  0  0  0  0  0  0  0  0  0  0  0
    5.7883   -1.3000    0.0000 C   0  0  0  0  0  0  0  0  0  0  0  0
    5.7883    1.3000    0.0000 C   0  0  0  0  0  0  0  0  0  0  0  0
   -5.9183    1.3000    0.0000 C   0  0  0  0  0  0  0  0  0  0  0  0
   -5.9183   -1.3000    0.0000 C   0  0  0  0  0  0  0  0  0  0  0  0
   -0.0725   -3.0000    0.0000 C   0  0  0  0  0  0  0  0  0  0  0  0
    5.0383   -0.0000    0.0000 C   0  0  0  0  0  0  0  0  0  0  0  0
   -5.1683    0.0000    0.0000 C   0  0  0  0  0  0  0  0  0  0  0  0
    1.2300   -0.7500    0.0000 C   0  0  0  0  0  0  0  0  0  0  0  0
   -1.3600   -0.7500    0.0000 C   0  0  0  0  0  0  0  0  0  0  0  0
    1.2300    0.7500    0.0000 C   0  0  0  0  0  0  0  0  0  0  0  0
   -1.3600    0.7500    0.0000 C   0  0  0  0  0  0  0  0  0  0  0  0
    2.6566   -1.2135    0.0000 C   0  0  0  0  0  0  0  0  0  0  0  0
   -2.7866   -1.2135    0.0000 C   0  0  0  0  0  0  0  0  0  0  0  0
    2.6566    1.2135    0.0000 C   0  0  0  0  0  0  0  0  0  0  0  0
   -2.7866    1.2135    0.0000 C   0  0  0  0  0  0  0  0  0  0  0  0
   -0.0700   -1.5000    0.0000 C   0  0  0  0  0  0  0  0  0  0  0  0
   -0.0700    1.5000    0.0000 C   0  0  0  0  0  0  0  0  0  0  0  0
    0.3900   -0.0000    0.0000 N   0  0  0  0  0  0  0  0  0  0  0  0
    3.5383    0.0000    0.0000 N   0  0  0  0  0  0  0  0  0  0  0  0
   -3.6683    0.0000    0.0000 N   0  0  0  0  0  0  0  0  0  0  0  0
    3.1201   -2.6401    0.0000 O   0  0  0  0  0  0  0  0  0  0  0  0
   -3.2501   -2.6401    0.0000 O   0  0  0  0  0  0  0  0  0  0  0  0
    3.1201    2.6401    0.0000 O   0  0  0  0  0  0  0  0  0  0  0  0
   -3.2501    2.6401    0.0000 O   0  0  0  0  0  0  0  0  0  0  0  0
   -0.0725    3.0000    0.0000 Si  0  0  0  0  0  4  0  0  0  0  0  0
  8  5  2  0
  9  5  1  0
 10  6  2  0
 11  6  1  0
 12  7  2  0
 13  7  1  0
 14  8  1  0
 15  9  2  0
 16 10  1  0
 17 11  2  0
 18 12  1  0
 19 13  2  0
 20 14  2  0
 20 15  1  0
 21 16  2  0
 21 17  1  0
 22 18  2  0
 22 19  1  0
 25 23  1  0
 26 24  1  0
 27 23  1  0
 28 24  1  0
 29 25  1  0
 30 26  1  0
 31 20  1  0
 31 23  1  0
 31 24  1  0
 32 25  1  0
 32 26  1  0
 33  1  1  0
 33 31  1  0
 33 32  1  0
 34 21  1  0
 34 27  1  0
 34 29  1  0
 35 22  1  0
 35 28  1  0
 35 30  1  0
 36 27  2  0
 37 28  2  0
 38 29  2  0
 39 30  2  0
 40  2  1  0
 40  3  1  0
 40  4  1  0
 40 32  1  0
M  END
>  <NAME>  (231) 
7-METHYL-1-PHENYL-4-TRIMETHYLSILYL-7-AZOBICYCLO(2,2,1)HEPTANE-N,N-DIPHENYL-2,3,5,6-TETRACARBOXODIIMIDO

>  <SYNONYMS>  (231) 


>  <SPECTRUM TYPE>  (231) 
MS1

>  <INSTRUMENT TYPE>  (231) 
EI-B

>  <INSTRUMENT>  (231) 
Unknown

>  <ION MODE>  (231) 
P

>  <INCHIKEY>  (231) 
QQVIDBZLVINMML-UHFFFAOYSA-N

>  <FORMULA>  (231) 
C32H31N3O4Si

>  <EXACT MASS>  (231) 
549.208383002

>  <MW>  (231) 
549

>  <ID>  (231) 
JP011863

>  <CONTRIBUTOR>  (231) 
University of Tokyo Team, {Faculty of Engineering, University of Tokyo

>  <COMMENT>  (231) 
SMILES=C(C56[Si](C)(C)C)(C(C(c(c7)cccc7)(N6C)C(C53)C(=O)N(c(c4)cccc4)C3=O)1)C(N(c(c2)cccc2)C(=O)1)=O
InChI=InChI=1S/C32H31N3O4Si/c1-33-31(20-14-8-5-9-15-20)23-25(29(38)34(27(23)36)21-16-10-6-11-17-21)32(33,40(2,3)4)26-24(31)28(37)35(30(26)39)22-18-12-7-13-19-22/h5-19,23-26H,1-4H3
computed SMILES=O=C1N(C=2C=CC=CC2)C(=O)C3C1C4(C=5C=CC=CC5)N(C)C3(C6C(=O)N(C=7C=CC=CC7)C(=O)C64)[Si](C)(C)C
accession=JP011863
date=2016.01.19 (Created 2008.10.21, modified 2011.05.06)
author=YOSHIKI O, FAC, TECHNOLOGY, OSAKA UNIV.
license=CC BY-NC-SA
exact mass=549.20838
ionization energy=70 eV
ion type=[M]+*
computed spectral entropy=3.359664583669347
computed normalized entropy=0.8346263486497429
SPLASH=splash10-004i-4469000000-b605540d91a12355ca48
submitter=submitter = University of Tokyo Team (Faculty of Engineering, University of Tokyo)
MoNA Rating=3.75

>  <NUM PEAKS>  (231) 
56

>  <MASS SPECTRAL PEAKS>  (231) 
51 3.4
54 5
55 2.3
58 2.1
59 22
64 2.9
73 37
74 3.6
75 5.7
77 13.8
91 7.2
103 3.9
115 6.4
117 2.2
118 10.9
119 4.1
128 3
129 4.5
130 2.2
154 2.9
155 2.1
156 4
157 2.1
166 2.5
167 2.8
170 2.2
173 5.3
180 3.7
181 5
182 5.8
184 6.2
198 2
199 2.9
212 2.7
214 42.8
215 8.9
216 2.7
229 16.6
230 4.1
256 26.2
257 11.2
258 4.7
259 9.3
271 12.8
272 3.1
333 4.9
347 8.2
348 2.8
375 37.7
376 99.99
377 29.3
378 8.2
476 2.8
534 5.7
535 2.3
549 2.3

$$$$

     RDKit          2D

 21 22  0  0  0  0  0  0  0  0999 V2000
   -7.0466    7.1972    0.0000 C   0  0  0  0  0  0  0  0  0  0  0  0
   -7.9862   -0.9858    0.0000 C   0  0  0  0  0  0  0  0  0  0  0  0
   -4.3970    1.6981    0.0000 C   0  0  0  0  0  0  0  0  0  0  0  0
  -13.2736    6.1707    0.0000 C   0  0  0  0  0  0  0  0  0  0  0  0
  -12.8878    4.7212    0.0000 C   0  0  0  0  0  0  0  0  0  0  0  0
  -12.0144    6.9856    0.0000 C   0  0  0  0  0  0  0  0  0  0  0  0
  -10.7800    3.2700    0.0000 C   0  0  0  0  0  0  0  0  0  0  0  0
  -11.3900    4.6400    0.0000 C   0  0  0  0  0  0  0  0  0  0  0  0
   -9.3800    2.7300    0.0000 C   0  0  0  0  0  0  0  0  0  0  0  0
   -8.0100    3.3400    0.0000 C   0  0  0  0  0  0  0  0  0  0  0  0
   -9.3419    1.2305    0.0000 C   0  0  0  0  0  0  0  0  0  0  0  0
   -6.9228    2.3066    0.0000 C   0  0  0  0  0  0  0  0  0  0  0  0
   -9.4800    6.6500    0.0000 C   0  0  0  0  0  0  0  0  0  0  0  0
   -7.4700    4.7400    0.0000 N   0  0  0  0  0  0  0  0  0  0  0  0
   -8.0800    6.1100    0.0000 N   0  0  0  0  0  0  0  0  0  0  0  0
  -10.8500    6.0400    0.0000 N   0  0  0  0  0  0  0  0  0  0  0  0
  -10.6215    0.4478    0.0000 O   0  0  0  0  0  0  0  0  0  0  0  0
   -7.2741    0.8483    0.0000 O   0  0  0  0  0  0  0  0  0  0  0  0
   -9.5181    8.1495    0.0000 O   0  0  0  0  0  0  0  0  0  0  0  0
   -8.0243    0.5137    0.0000 O   0  0  0  0  0  0  0  0  0  0  0  0
   -5.4842    2.7315    0.0000 O   0  0  0  0  0  0  0  0  0  0  0  0
  5  4  1  0
  6  4  2  0
  8  5  2  0
  8  7  1  0
  7  9  2  0
 10  9  1  0
 11  9  1  0
 12 10  1  0
 10 14  2  0
 15  1  1  0
 15 13  1  0
 15 14  1  0
 16  6  1  0
 16  8  1  0
 16 13  1  0
 17 11  2  0
 18 12  2  0
 19 13  2  0
 20  2  1  0
 20 11  1  0
 21  3  1  0
 21 12  1  0
M  END
>  <NAME>  (232) 
5-METHYL-2,3-DIMETHOXYCARBONYL-5,6-DIHYDROPYRROLO(1,2-D)(1,2,4)TRIAZOCIN-6-ONE

>  <SYNONYMS>  (232) 


>  <SPECTRUM TYPE>  (232) 
MS1

>  <INSTRUMENT TYPE>  (232) 
EI-B

>  <INSTRUMENT>  (232) 
Unknown

>  <ION MODE>  (232) 
P

>  <INCHIKEY>  (232) 
ZSTBUXXHIKVPIZ-IESVIYHPSA-N

>  <FORMULA>  (232) 
C13H13N3O5

>  <EXACT MASS>  (232) 
291.085520516

>  <MW>  (232) 
291

>  <ID>  (232) 
JP011862

>  <CONTRIBUTOR>  (232) 
University of Tokyo Team, {Faculty of Engineering, University of Tokyo

>  <COMMENT>  (232) 
SMILES=COC(=O)c(c1)c(C(=O)OC)nn(C)c(=O)n(c2)c(cc2)1
InChI=InChI=1S/C13H13N3O5/c1-15-13(19)16-6-4-5-8(16)7-9(11(17)20-2)10(14-15)12(18)21-3/h4-7H,1-3H3/b9-7+,14-10+
computed SMILES=O=C(OC)C1=NN(C(=O)N2C=CC=C2C=C1C(=O)OC)C
accession=JP011862
date=2016.01.19 (Created 2008.10.21, modified 2011.05.06)
author=YOSHIKI O, FAC, TECHNOLOGY, OSAKA UNIV.
license=CC BY-NC-SA
exact mass=291.08552
ionization energy=70 eV
ion type=[M]+*
computed spectral entropy=4.379944852721412
computed normalized entropy=0.8902361449672053
SPLASH=splash10-0a5c-9860000000-558e64b7f7f493b48495
submitter=submitter = University of Tokyo Team (Faculty of Engineering, University of Tokyo)
MoNA Rating=3.75

>  <NUM PEAKS>  (232) 
137

>  <MASS SPECTRAL PEAKS>  (232) 
50 14.4
51 30.8
52 19.1
53 14.2
54 4.9
55 6
56 23.4
57 11.1
58 4.4
59 99.99
60 3
61 6.3
62 28.9
63 42.7
64 20.3
65 14.9
66 10.3
67 5.7
68 2.8
69 3.5
70 1.3
71 1.9
72 6.2
73 2.1
74 7.1
75 15.1
76 18.2
77 22.9
78 16.3
79 9.4
80 10.7
81 2.4
82 1.9
83 1.6
84 1
85 1.2
86 1.1
87 3
88 10.4
89 25.3
90 28.3
91 10.6
92 8.2
93 4
94 4.9
95 1.9
96 1
99 1
100 1.3
101 1.8
102 15.2
103 29.5
104 27.3
105 8.7
106 7.7
107 3
108 1.1
109 1
111 1.1
115 4.1
116 26.2
117 25.1
118 15.6
119 18.9
120 4.4
121 1.2
129 11.1
130 13.3
131 19.2
132 13.3
133 5.2
134 2
135 4.6
143 1.3
144 33.6
145 14
146 28.3
147 9.7
148 4.5
149 10
150 1.1
157 1.7
158 5.4
159 11.6
160 14.4
161 4.3
162 6.1
163 1.4
171 1.9
172 11.3
173 11.4
174 14.4
175 11.3
176 8.1
177 18.9
178 2.5
182 1.5
186 2.8
187 1.7
188 5
189 10.8
190 12.4
191 2.9
192 17.9
193 2.1
200 37.2
201 9
202 2.9
203 4.3
204 17.5
205 7
206 49.6
207 6.5
214 1.1
216 3.2
217 4.3
218 3.6
219 1.1
220 29.7
221 4.4
230 15.8
231 59.8
232 34.4
233 6.1
234 1.7
235 1.5
247 1.3
248 2.5
260 10
261 1.9
263 6.3
264 1.1
276 1.1
290 2
291 65.4
292 10.5
293 1.7

$$$$

     RDKit          2D

 24 25  0  0  0  0  0  0  0  0999 V2000
   -5.9594    6.1638    0.0000 C   0  0  0  0  0  0  0  0  0  0  0  0
   -6.0132    8.2845    0.0000 C   0  0  0  0  0  0  0  0  0  0  0  0
   -8.1338    8.2306    0.0000 C   0  0  0  0  0  0  0  0  0  0  0  0
  -10.5834   -1.0518    0.0000 C   0  0  0  0  0  0  0  0  0  0  0  0
   -6.1868   -0.1851    0.0000 C   0  0  0  0  0  0  0  0  0  0  0  0
  -13.2736    6.1707    0.0000 C   0  0  0  0  0  0  0  0  0  0  0  0
  -12.8878    4.7212    0.0000 C   0  0  0  0  0  0  0  0  0  0  0  0
  -12.0144    6.9856    0.0000 C   0  0  0  0  0  0  0  0  0  0  0  0
  -10.7800    3.2700    0.0000 C   0  0  0  0  0  0  0  0  0  0  0  0
  -11.3900    4.6400    0.0000 C   0  0  0  0  0  0  0  0  0  0  0  0
   -9.3800    2.7300    0.0000 C   0  0  0  0  0  0  0  0  0  0  0  0
   -8.0100    3.3400    0.0000 C   0  0  0  0  0  0  0  0  0  0  0  0
   -9.3419    1.2305    0.0000 C   0  0  0  0  0  0  0  0  0  0  0  0
   -6.9228    2.3066    0.0000 C   0  0  0  0  0  0  0  0  0  0  0  0
   -9.4800    6.6500    0.0000 C   0  0  0  0  0  0  0  0  0  0  0  0
   -7.0466    7.1972    0.0000 C   0  0  0  0  0  0  0  0  0  0  0  0
   -7.4700    4.7400    0.0000 N   0  0  0  0  0  0  0  0  0  0  0  0
  -10.8500    6.0400    0.0000 N   0  0  0  0  0  0  0  0  0  0  0  0
   -8.0800    6.1100    0.0000 N   0  0  0  0  0  0  0  0  0  0  0  0
   -8.0243    0.5137    0.0000 O   0  0  0  0  0  0  0  0  0  0  0  0
   -5.4842    2.7315    0.0000 O   0  0  0  0  0  0  0  0  0  0  0  0
   -9.5181    8.1495    0.0000 O   0  0  0  0  0  0  0  0  0  0  0  0
  -10.6215    0.4478    0.0000 O   0  0  0  0  0  0  0  0  0  0  0  0
   -7.2741    0.8483    0.0000 O   0  0  0  0  0  0  0  0  0  0  0  0
  7  6  1  0
  8  6  2  0
 10  7  2  0
 10  9  1  0
  9 11  2  0
 12 11  1  0
 13 11  1  0
 14 12  1  0
 16  1  1  0
 16  2  1  0
 16  3  1  0
 12 17  2  0
 18  8  1  0
 18 10  1  0
 18 15  1  0
 19 15  1  0
 19 16  1  0
 19 17  1  0
 20 13  2  0
 21 14  2  0
 22 15  2  0
 23  4  1  0
 23 13  1  0
 24  5  1  0
 24 14  1  0
M  END
>  <NAME>  (233) 
5-TERT-BUTYL-2,3-DIMETHOXYCARBONYL-5,6-DIHYDROPYRROLO(1,2-D)(1,2,4)TRIAZOCIN-6-ONE

>  <SYNONYMS>  (233) 


>  <SPECTRUM TYPE>  (233) 
MS1

>  <INSTRUMENT TYPE>  (233) 
EI-B

>  <INSTRUMENT>  (233) 
Unknown

>  <ION MODE>  (233) 
P

>  <INCHIKEY>  (233) 
ZXJAGBZHYUDHNH-KAZNXQFFSA-N

>  <FORMULA>  (233) 
C16H19N3O5

>  <EXACT MASS>  (233) 
333.132470708

>  <MW>  (233) 
333

>  <ID>  (233) 
JP011861

>  <CONTRIBUTOR>  (233) 
University of Tokyo Team, {Faculty of Engineering, University of Tokyo

>  <COMMENT>  (233) 
SMILES=COC(=O)c(c1)c(C(=O)OC)nn(C(C)(C)C)c(=O)n(c2)c(cc2)1
InChI=InChI=1S/C16H19N3O5/c1-16(2,3)19-15(22)18-8-6-7-10(18)9-11(13(20)23-4)12(17-19)14(21)24-5/h6-9H,1-5H3/b11-9+,17-12+
computed SMILES=O=C(OC)C1=NN(C(=O)N2C=CC=C2C=C1C(=O)OC)C(C)(C)C
accession=JP011861
date=2016.01.19 (Created 2008.10.21, modified 2011.05.06)
author=YOSHIKI O, FAC, TECHNOLOGY, OSAKA UNIV.
license=CC BY-NC-SA
exact mass=333.13247
ionization energy=70 eV
ion type=[M]+*
computed spectral entropy=4.3453495327394025
computed normalized entropy=0.8832045486046267
SPLASH=splash10-0a4l-6961000000-40e623e1e0bf75c2e2f3
submitter=submitter = University of Tokyo Team (Faculty of Engineering, University of Tokyo)
MoNA Rating=3.75

>  <NUM PEAKS>  (233) 
137

>  <MASS SPECTRAL PEAKS>  (233) 
50 3.5
51 5.7
52 4.6
53 6.9
54 1.8
55 9.8
56 16.1
57 99.99
59 19
61 1.1
62 4.4
63 6.4
64 3.4
65 3.1
66 2.2
67 2.3
68 1.6
69 1.4
70 1.9
71 1.1
73 1
74 1.7
75 4.2
76 6.7
77 5.9
78 4.7
79 5.4
80 6.6
81 1.2
82 1.5
83 1
84 7.2
85 1.1
88 1.7
89 6
90 6.7
91 3
92 2.6
93 2.6
94 2.2
95 1.2
102 11.2
103 14.1
104 11.8
105 7.5
106 2.9
110 1.1
112 1
116 5.6
117 7.3
118 6.3
119 4.8
120 2
121 2
129 2.1
130 8.5
131 14.6
132 10.1
133 2.8
134 2.7
135 3.5
137 1.4
142 1.1
143 1
144 8.9
145 8.9
146 8.8
147 2.4
148 3.2
149 3.7
150 1.3
158 4.3
159 10.3
160 7.7
161 3.9
162 10
163 5.4
164 1
168 5.2
169 2.5
170 1
171 1
172 1.4
173 2
174 5.7
175 4
176 5.3
177 5.8
178 2.1
179 1
185 2.8
186 25.1
187 5.8
188 3.3
189 24.2
190 16.6
191 7.1
192 35.7
193 4
194 1.2
200 1.6
202 7.6
203 22.8
204 10.2
205 3.3
206 1.2
209 1.4
214 1.4
216 2
217 15.1
218 12.5
219 3.9
220 19.7
221 3.5
224 2.1
232 14.3
233 3
234 2.4
235 7.6
236 1.5
244 24.4
245 16.3
246 25.1
247 3.4
248 2.9
249 3
261 1.8
275 2.4
276 17.3
277 40.8
278 8.2
317 2.4
318 10.6
319 2.5
332 6.1
333 23.6
334 4

$$$$

     RDKit          2D

 17 17  0  0  0  0  0  0  0  0999 V2000
   -3.8834   -0.6547    0.0000 C   0  0  0  0  0  0  0  0  0  0  0  0
   -5.9324   -0.1057    0.0000 C   0  0  0  0  0  0  0  0  0  0  0  0
   -5.3834    1.9434    0.0000 C   0  0  0  0  0  0  0  0  0  0  0  0
   -1.2853    1.9434    0.0000 C   0  0  0  0  0  0  0  0  0  0  0  0
   -0.7363   -0.1057    0.0000 C   0  0  0  0  0  0  0  0  0  0  0  0
   -2.7853   -0.6547    0.0000 C   0  0  0  0  0  0  0  0  0  0  0  0
    1.8618    1.3943    0.0000 C   0  0  0  0  0  0  0  0  0  0  0  0
    1.8623    2.8952    0.0000 C   0  0  0  0  0  0  0  0  0  0  0  0
    0.5623    0.6435    0.0000 C   0  0  0  0  0  0  0  0  0  0  0  0
    0.5632    3.6452    0.0000 C   0  0  0  0  0  0  0  0  0  0  0  0
   -0.7368    1.3935    0.0000 C   0  0  0  0  0  0  0  0  0  0  0  0
   -2.0353    3.6443    0.0000 C   0  0  0  0  0  0  0  0  0  0  0  0
   -0.7363    2.8943    0.0000 C   0  0  0  0  0  0  0  0  0  0  0  0
   -3.3344    1.3943    0.0000 C   0  0  0  0  0  0  0  0  0  0  0  0
   -3.3344    2.8943    0.0000 N   0  0  0  0  0  0  0  0  0  0  0  0
   -4.6334    0.6443    0.0000 Si  0  0  0  0  0  4  0  0  0  0  0  0
   -2.0353    0.6443    0.0000 Si  0  0  0  0  0  4  0  0  0  0  0  0
  8  7  2  0
  9  7  1  0
 10  8  1  0
 11  9  2  0
 13 10  2  0
 13 11  1  0
 13 12  1  0
 12 15  2  0
 15 14  1  0
 16  1  1  0
 16  2  1  0
 16  3  1  0
 16 14  1  0
 17  4  1  0
 17  5  1  0
 17  6  1  0
 17 14  1  0
M  END
>  <NAME>  (234) 
N-(BENZYLIDENE)BIS(TRIMETHYLSILYL)METHYLAMINE

>  <SYNONYMS>  (234) 


>  <SPECTRUM TYPE>  (234) 
MS1

>  <INSTRUMENT TYPE>  (234) 
EI-B

>  <INSTRUMENT>  (234) 
Unknown

>  <ION MODE>  (234) 
P

>  <INCHIKEY>  (234) 
IVNKBXWUJJTCLW-QINSGFPZSA-N

>  <FORMULA>  (234) 
C14H25NSi2

>  <EXACT MASS>  (234) 
263.15255286

>  <MW>  (234) 
263

>  <ID>  (234) 
JP011859

>  <CONTRIBUTOR>  (234) 
University of Tokyo Team, {Faculty of Engineering, University of Tokyo

>  <COMMENT>  (234) 
SMILES=c(c1)ccc(c1)C=NC([Si](C)(C)C)[Si](C)(C)C
InChI=InChI=1S/C14H25NSi2/c1-16(2,3)14(17(4,5)6)15-12-13-10-8-7-9-11-13/h7-12,14H,1-6H3/b15-12-
computed SMILES=N(=CC=1C=CC=CC1)C([Si](C)(C)C)[Si](C)(C)C
accession=JP011859
date=2016.01.19 (Created 2008.10.21, modified 2011.05.06)
author=YOSHIKI O, FAC, TECHNOLOGY, OSAKA UNIV.
license=CC BY-NC-SA
exact mass=263.15255
ionization energy=70 eV
ion type=[M]+*
computed spectral entropy=3.0952322385346815
computed normalized entropy=0.8131091860264809
SPLASH=splash10-03kc-8960000000-f513ee4ff6ec8041b73e
submitter=submitter = University of Tokyo Team (Faculty of Engineering, University of Tokyo)
MoNA Rating=3.75

>  <NUM PEAKS>  (234) 
45

>  <MASS SPECTRAL PEAKS>  (234) 
57 3.4
58 4.2
59 60.4
60 4.6
63 3.3
71 3
72 3.6
73 99.99
74 20.5
75 10.1
85 8
86 5
89 10.3
90 6.6
91 6.6
100 4
105 5.3
117 8.3
118 2.8
121 7
131 2.6
133 4.3
135 11.3
145 9
146 4.3
147 3.5
148 10.3
149 7.4
160 6.5
162 8.7
172 14.3
173 2.8
174 5.2
176 3.4
186 3.3
189 42.8
190 83.4
191 16.3
192 3.9
248 24.6
249 6.4
262 97.8
263 37.9
264 13.2
265 2.9

$$$$

     RDKit          2D

 21 21  0  0  0  0  0  0  0  0999 V2000
    7.7942   -1.1249    0.0000 C   0  0  0  0  0  0  0  0  0  0  0  0
   -0.5500    5.4247    0.0000 C   0  0  0  0  0  0  0  0  0  0  0  0
   -2.5990    4.8753    0.0000 C   0  0  0  0  0  0  0  0  0  0  0  0
   -2.0496    2.8264    0.0000 C   0  0  0  0  0  0  0  0  0  0  0  0
    2.0485    2.8270    0.0000 C   0  0  0  0  0  0  0  0  0  0  0  0
    2.5972    4.8761    0.0000 C   0  0  0  0  0  0  0  0  0  0  0  0
    0.5480    5.4249    0.0000 C   0  0  0  0  0  0  0  0  0  0  0  0
    6.4953   -0.3747    0.0000 C   0  0  0  0  0  0  0  0  0  0  0  0
   -0.0010   -2.6257    0.0000 C   0  0  0  0  0  0  0  0  0  0  0  0
    1.2980   -3.3757    0.0000 C   0  0  0  0  0  0  0  0  0  0  0  0
   -0.0005   -1.1249    0.0000 C   0  0  0  0  0  0  0  0  0  0  0  0
    2.5975   -2.6249    0.0000 C   0  0  0  0  0  0  0  0  0  0  0  0
    5.1961   -1.1245    0.0000 C   0  0  0  0  0  0  0  0  0  0  0  0
    1.2987    1.1259    0.0000 C   0  0  0  0  0  0  0  0  0  0  0  0
    1.2990   -0.3741    0.0000 C   0  0  0  0  0  0  0  0  0  0  0  0
    2.5980   -1.1241    0.0000 C   0  0  0  0  0  0  0  0  0  0  0  0
   -0.0007    3.3757    0.0000 C   0  0  0  0  0  0  0  0  0  0  0  0
   -0.0004    1.8757    0.0000 N   0  0  0  0  0  0  0  0  0  0  0  0
    3.8972   -0.3743    0.0000 O   0  0  0  0  0  0  0  0  0  0  0  0
   -1.2998    4.1255    0.0000 Si  0  0  0  0  0  4  0  0  0  0  0  0
    1.2983    4.1259    0.0000 Si  0  0  0  0  0  4  0  0  0  0  0  0
  8  1  2  0
 10  9  2  0
 11  9  1  0
 12 10  1  0
 13  8  1  0
 15 11  2  0
 15 14  1  0
 16 12  2  0
 16 15  1  0
 14 18  2  0
 18 17  1  0
 19 13  1  0
 19 16  1  0
 20  2  1  0
 20  3  1  0
 20  4  1  0
 20 17  1  0
 21  5  1  0
 21  6  1  0
 21  7  1  0
 21 17  1  0
M  END
>  <NAME>  (235) 
N-(2-PROPENOXYBENZYLIDENE)BIS(TRIMETHYLSILYL)METHYLAMINE

>  <SYNONYMS>  (235) 


>  <SPECTRUM TYPE>  (235) 
MS1

>  <INSTRUMENT TYPE>  (235) 
EI-B

>  <INSTRUMENT>  (235) 
Unknown

>  <ION MODE>  (235) 
P

>  <INCHIKEY>  (235) 
GDNQPQDOMYIIIY-NBVRZTHBSA-N

>  <FORMULA>  (235) 
C17H29NOSi2

>  <EXACT MASS>  (235) 
319.178767608

>  <MW>  (235) 
319

>  <ID>  (235) 
JP011857

>  <CONTRIBUTOR>  (235) 
University of Tokyo Team, {Faculty of Engineering, University of Tokyo

>  <COMMENT>  (235) 
SMILES=C=CCOc(c1)c(ccc1)C=NC([Si](C)(C)C)[Si](C)(C)C
InChI=InChI=1S/C17H29NOSi2/c1-8-13-19-16-12-10-9-11-15(16)14-18-17(20(2,3)4)21(5,6)7/h8-12,14,17H,1,13H2,2-7H3/b18-14+
computed SMILES=N(=CC=1C=CC=CC1OCC=C)C([Si](C)(C)C)[Si](C)(C)C
accession=JP011857
date=2016.01.19 (Created 2008.10.21, modified 2011.05.06)
author=YOSHIKI O, FAC, TECHNOLOGY, OSAKA UNIV.
license=CC BY-NC-SA
exact mass=319.17877
ionization energy=70 eV
ion type=[M]+*
computed spectral entropy=3.4227956352703846
computed normalized entropy=0.8841689247409179
SPLASH=splash10-00fs-9880000000-f652b0c52c084e1e38d7
submitter=submitter = University of Tokyo Team (Faculty of Engineering, University of Tokyo)
MoNA Rating=3.75

>  <NUM PEAKS>  (235) 
48

>  <MASS SPECTRAL PEAKS>  (235) 
51 9
58 5
59 29.1
73 99.99
74 21.9
75 14.7
77 8.6
85 5.3
89 3.9
91 8.9
100 4.4
102 28.6
103 5.6
115 4
117 6.5
129 3.6
131 11.3
132 4.3
135 14.4
145 23.9
146 5.3
147 7.5
149 5.4
151 4.2
161 6.6
162 8.8
163 13.8
172 6.6
176 5.2
177 5.9
179 4.6
189 4.3
190 8.2
204 8.2
205 8.9
206 5.6
246 41.4
247 8.6
248 5.3
262 11.1
263 14.5
264 4.3
277 29
278 43.6
279 12.4
280 4.2
318 8.4
319 3.7

$$$$

     RDKit          2D

 23 24  0  0  0  0  0  0  0  0999 V2000
    1.9049    4.8269    0.0000 C   0  0  0  0  0  0  0  0  0  0  0  0
   -4.0061    3.2988    0.0000 C   0  0  0  0  0  0  0  0  0  0  0  0
   -3.0977    0.5778    0.0000 C   0  0  0  0  0  0  0  0  0  0  0  0
   -4.0655   -1.3099    0.0000 C   0  0  0  0  0  0  0  0  0  0  0  0
   -2.1778   -2.2777    0.0000 C   0  0  0  0  0  0  0  0  0  0  0  0
    5.4932   -1.7699    0.0000 C   0  0  0  0  0  0  0  0  0  0  0  0
    5.1780   -0.3026    0.0000 C   0  0  0  0  0  0  0  0  0  0  0  0
    4.3807   -2.7773    0.0000 C   0  0  0  0  0  0  0  0  0  0  0  0
    3.7502    0.1574    0.0000 C   0  0  0  0  0  0  0  0  0  0  0  0
    2.9530   -2.3173    0.0000 C   0  0  0  0  0  0  0  0  0  0  0  0
    2.6377   -0.8500    0.0000 C   0  0  0  0  0  0  0  0  0  0  0  0
    0.7500    1.0300    0.0000 C   0  0  0  0  0  0  0  0  0  0  0  0
   -0.7500    1.0300    0.0000 C   0  0  0  0  0  0  0  0  0  0  0  0
    1.2100   -0.3900    0.0000 C   0  0  0  0  0  0  0  0  0  0  0  0
   -1.2100   -0.3900    0.0000 C   0  0  0  0  0  0  0  0  0  0  0  0
    1.6322    2.2431    0.0000 C   0  0  0  0  0  0  0  0  0  0  0  0
   -1.6322    2.2431    0.0000 C   0  0  0  0  0  0  0  0  0  0  0  0
   -0.0000   -1.2800    0.0000 N   0  0  0  0  0  0  0  0  0  0  0  0
    3.1239    2.0857    0.0000 O   0  0  0  0  0  0  0  0  0  0  0  0
   -1.0227    3.6137    0.0000 O   0  0  0  0  0  0  0  0  0  0  0  0
    1.0227    3.6137    0.0000 O   0  0  0  0  0  0  0  0  0  0  0  0
   -3.1239    2.0857    0.0000 O   0  0  0  0  0  0  0  0  0  0  0  0
   -2.6377   -0.8500    0.0000 Si  0  0  0  0  0  4  0  0  0  0  0  0
  7  6  2  0
  8  6  1  0
  9  7  1  0
 10  8  2  0
 11  9  2  0
 11 10  1  0
 13 12  1  0
 14 11  1  0
 14 12  2  0
 15 13  2  0
 16 12  1  0
 17 13  1  0
 18 14  1  0
 18 15  1  0
 19 16  2  0
 20 17  2  0
 21  1  1  0
 21 16  1  0
 22  2  1  0
 22 17  1  0
 23  3  1  0
 23  4  1  0
 23  5  1  0
 23 15  1  0
M  END
>  <NAME>  (236) 
3,4-BIS(METHOXYCARBONYL)-2-TRIMETHYLSILYL-5-PHENYLPYRROLE

>  <SYNONYMS>  (236) 


>  <SPECTRUM TYPE>  (236) 
MS1

>  <INSTRUMENT TYPE>  (236) 
EI-B

>  <INSTRUMENT>  (236) 
Unknown

>  <ION MODE>  (236) 
P

>  <INCHIKEY>  (236) 
QSRJOFCWFWAPJH-UHFFFAOYSA-N

>  <FORMULA>  (236) 
C17H21NO4Si

>  <EXACT MASS>  (236) 
331.12398468200007

>  <MW>  (236) 
331

>  <ID>  (236) 
JP011856

>  <CONTRIBUTOR>  (236) 
University of Tokyo Team, {Faculty of Engineering, University of Tokyo

>  <COMMENT>  (236) 
SMILES=COC(=O)C1=C(NC(=C1C(=O)OC)[Si](C)(C)C)C2=CC=CC=C2
InChI=InChI=1S/C17H21NO4Si/c1-21-16(19)12-13(17(20)22-2)15(23(3,4)5)18-14(12)11-9-7-6-8-10-11/h6-10,18H,1-5H3
computed SMILES=O=C(OC)C1=C(NC(=C1C(=O)OC)[Si](C)(C)C)C=2C=CC=CC2
accession=JP011856
date=2016.01.19 (Created 2008.10.21, modified 2011.05.06)
author=YOSHIKI O, FAC, TECHNOLOGY, OSAKA UNIV.
license=CC BY-NC-SA
exact mass=331.12398
ionization energy=70 eV
ion type=[M]+*
computed spectral entropy=2.7924555627415426
computed normalized entropy=0.8675250971683203
SPLASH=splash10-0159-1169000000-68dba810b190e1aa545e
submitter=submitter = University of Tokyo Team (Faculty of Engineering, University of Tokyo)
MoNA Rating=3.75

>  <NUM PEAKS>  (236) 
25

>  <MASS SPECTRAL PEAKS>  (236) 
59 20.3
73 6.5
75 7.1
77 5.4
89 12.9
104 8.3
113 10.9
128 6.7
129 5.6
143 11.4
254 46.6
255 42.3
256 9.1
270 8
271 7.5
284 57.3
285 52.8
300 15.9
301 13.8
316 99.99
317 93.3
318 23.3
319 6.5
331 29.2
332 26.4

$$$$

     RDKit          2D

 24 25  0  0  0  0  0  0  0  0999 V2000
   -0.0000   -2.7800    0.0000 C   0  0  0  0  0  0  0  0  0  0  0  0
    1.9049    4.8269    0.0000 C   0  0  0  0  0  0  0  0  0  0  0  0
   -4.0061    3.2988    0.0000 C   0  0  0  0  0  0  0  0  0  0  0  0
   -3.0977    0.5778    0.0000 C   0  0  0  0  0  0  0  0  0  0  0  0
   -4.0655   -1.3099    0.0000 C   0  0  0  0  0  0  0  0  0  0  0  0
   -2.1778   -2.2777    0.0000 C   0  0  0  0  0  0  0  0  0  0  0  0
    5.4932   -1.7699    0.0000 C   0  0  0  0  0  0  0  0  0  0  0  0
    5.1780   -0.3026    0.0000 C   0  0  0  0  0  0  0  0  0  0  0  0
    4.3807   -2.7773    0.0000 C   0  0  0  0  0  0  0  0  0  0  0  0
    3.7502    0.1574    0.0000 C   0  0  0  0  0  0  0  0  0  0  0  0
    2.9530   -2.3173    0.0000 C   0  0  0  0  0  0  0  0  0  0  0  0
    2.6377   -0.8500    0.0000 C   0  0  0  0  0  0  0  0  0  0  0  0
    0.7500    1.0300    0.0000 C   0  0  0  0  0  0  0  0  0  0  0  0
   -0.7500    1.0300    0.0000 C   0  0  0  0  0  0  0  0  0  0  0  0
    1.2100   -0.3900    0.0000 C   0  0  0  0  0  0  0  0  0  0  0  0
   -1.2100   -0.3900    0.0000 C   0  0  0  0  0  0  0  0  0  0  0  0
    1.6322    2.2431    0.0000 C   0  0  0  0  0  0  0  0  0  0  0  0
   -1.6322    2.2431    0.0000 C   0  0  0  0  0  0  0  0  0  0  0  0
    0.0000   -1.2800    0.0000 N   0  0  0  0  0  0  0  0  0  0  0  0
    3.1239    2.0857    0.0000 O   0  0  0  0  0  0  0  0  0  0  0  0
   -1.0227    3.6137    0.0000 O   0  0  0  0  0  0  0  0  0  0  0  0
    1.0227    3.6137    0.0000 O   0  0  0  0  0  0  0  0  0  0  0  0
   -3.1239    2.0857    0.0000 O   0  0  0  0  0  0  0  0  0  0  0  0
   -2.6377   -0.8500    0.0000 Si  0  0  0  0  0  4  0  0  0  0  0  0
  8  7  2  0
  9  7  1  0
 10  8  1  0
 11  9  2  0
 12 10  2  0
 12 11  1  0
 14 13  1  0
 15 12  1  0
 15 13  2  0
 16 14  2  0
 17 13  1  0
 18 14  1  0
 19  1  1  0
 19 15  1  0
 19 16  1  0
 20 17  2  0
 21 18  2  0
 22  2  1  0
 22 17  1  0
 23  3  1  0
 23 18  1  0
 24  4  1  0
 24  5  1  0
 24  6  1  0
 24 16  1  0
M  END
>  <NAME>  (237) 
1-METHYL-3,4-BIS(METHOXYCARBONYL)-2-TRIMETHYLSILYL-5-PHENYLPYRROLE

>  <SYNONYMS>  (237) 


>  <SPECTRUM TYPE>  (237) 
MS1

>  <INSTRUMENT TYPE>  (237) 
EI-B

>  <INSTRUMENT>  (237) 
Unknown

>  <ION MODE>  (237) 
P

>  <INCHIKEY>  (237) 
YWPUIMMAJJUFBQ-UHFFFAOYSA-N

>  <FORMULA>  (237) 
C18H23NO4Si

>  <EXACT MASS>  (237) 
345.13963474600007

>  <MW>  (237) 
345

>  <ID>  (237) 
JP011855

>  <CONTRIBUTOR>  (237) 
University of Tokyo Team, {Faculty of Engineering, University of Tokyo

>  <COMMENT>  (237) 
SMILES=COC(=O)c(c(c(c2)cccc2)1)c(C(=O)OC)c([Si](C)(C)C)n(C)1
InChI=InChI=1S/C18H23NO4Si/c1-19-15(12-10-8-7-9-11-12)13(17(20)22-2)14(18(21)23-3)16(19)24(4,5)6/h7-11H,1-6H3
computed SMILES=O=C(OC)C=1C(C(=O)OC)=C(N(C1C=2C=CC=CC2)C)[Si](C)(C)C
accession=JP011855
date=2016.01.19 (Created 2008.10.21, modified 2011.05.06)
author=YOSHIKI O, FAC, TECHNOLOGY, OSAKA UNIV.
license=CC BY-NC-SA
exact mass=345.13963
ionization energy=70 eV
ion type=[M]+*
computed spectral entropy=3.0871210926390917
computed normalized entropy=0.8207808671913297
SPLASH=splash10-001i-3349000000-4d3aa6762590717b5045
submitter=submitter = University of Tokyo Team (Faculty of Engineering, University of Tokyo)
MoNA Rating=3.75

>  <NUM PEAKS>  (237) 
43

>  <MASS SPECTRAL PEAKS>  (237) 
51 2.4
59 21.9
73 10.5
75 5.9
77 9.1
89 7.5
91 2.9
113 3.4
118 21.4
119 2.3
126 2
127 3
128 2.3
129 4
134 2.3
135 2.6
139 7.4
149 7.9
150 8.2
154 2.2
168 2.5
182 2.4
212 3.6
226 2.2
228 2.5
256 2.9
270 2.6
282 7.8
283 2.1
284 8.3
285 2.1
286 10.7
287 3.3
298 31.2
299 7.7
300 6.3
314 10
315 2.5
330 99.99
331 24.5
332 6.5
345 18.9
346 4.4

$$$$

     RDKit          2D

 20 21  0  0  0  0  0  0  0  0999 V2000
   -0.0000   -2.7800    0.0000 C   0  0  0  0  0  0  0  0  0  0  0  0
   -1.9049    4.8269    0.0000 C   0  0  0  0  0  0  0  0  0  0  0  0
    2.1778   -2.2777    0.0000 C   0  0  0  0  0  0  0  0  0  0  0  0
    4.0655   -1.3099    0.0000 C   0  0  0  0  0  0  0  0  0  0  0  0
    3.0977    0.5778    0.0000 C   0  0  0  0  0  0  0  0  0  0  0  0
   -5.4932   -1.7699    0.0000 C   0  0  0  0  0  0  0  0  0  0  0  0
   -4.3807   -2.7773    0.0000 C   0  0  0  0  0  0  0  0  0  0  0  0
   -5.1780   -0.3026    0.0000 C   0  0  0  0  0  0  0  0  0  0  0  0
   -2.9530   -2.3173    0.0000 C   0  0  0  0  0  0  0  0  0  0  0  0
   -3.7502    0.1574    0.0000 C   0  0  0  0  0  0  0  0  0  0  0  0
    0.7500    1.0300    0.0000 C   0  0  0  0  0  0  0  0  0  0  0  0
   -2.6377   -0.8500    0.0000 C   0  0  0  0  0  0  0  0  0  0  0  0
   -0.7500    1.0300    0.0000 C   0  0  0  0  0  0  0  0  0  0  0  0
    1.2100   -0.3900    0.0000 C   0  0  0  0  0  0  0  0  0  0  0  0
   -1.2100   -0.3900    0.0000 C   0  0  0  0  0  0  0  0  0  0  0  0
   -1.6322    2.2431    0.0000 C   0  0  0  0  0  0  0  0  0  0  0  0
    0.0000   -1.2800    0.0000 N   0  0  0  0  0  0  0  0  0  0  0  0
   -3.1239    2.0857    0.0000 O   0  0  0  0  0  0  0  0  0  0  0  0
   -1.0227    3.6137    0.0000 O   0  0  0  0  0  0  0  0  0  0  0  0
    2.6377   -0.8500    0.0000 Si  0  0  0  0  0  4  0  0  0  0  0  0
  7  6  2  0
  8  6  1  0
  9  7  1  0
 10  8  2  0
 12  9  2  0
 12 10  1  0
 13 11  1  0
 14 11  2  0
 15 12  1  0
 15 13  2  0
 16 13  1  0
 17  1  1  0
 17 14  1  0
 17 15  1  0
 18 16  2  0
 19  2  1  0
 19 16  1  0
 20  3  1  0
 20  4  1  0
 20  5  1  0
 20 14  1  0
M  END
>  <NAME>  (238) 
1-METHYL-3-METHOXYCARBONYL-5-TRIMETHYLSILYL-2-PHENYLPYRROLE

>  <SYNONYMS>  (238) 


>  <SPECTRUM TYPE>  (238) 
MS1

>  <INSTRUMENT TYPE>  (238) 
EI-B

>  <INSTRUMENT>  (238) 
Unknown

>  <ION MODE>  (238) 
P

>  <INCHIKEY>  (238) 
XIPSZFRGMKNJAT-UHFFFAOYSA-N

>  <FORMULA>  (238) 
C16H21NO2Si

>  <EXACT MASS>  (238) 
287.134155442

>  <MW>  (238) 
287

>  <ID>  (238) 
JP011854

>  <CONTRIBUTOR>  (238) 
University of Tokyo Team, {Faculty of Engineering, University of Tokyo

>  <COMMENT>  (238) 
SMILES=COC(=O)c(c([H])1)c(c(c2)cccc2)n(C)c([Si](C)(C)C)1
InChI=InChI=1S/C16H21NO2Si/c1-17-14(20(3,4)5)11-13(16(18)19-2)15(17)12-9-7-6-8-10-12/h6-11H,1-5H3
computed SMILES=O=C(OC)C=1C=C(N(C1C=2C=CC=CC2)C)[Si](C)(C)C
accession=JP011854
date=2016.01.19 (Created 2008.10.21, modified 2011.05.06)
author=YOSHIKI O, FAC, TECHNOLOGY, OSAKA UNIV.
license=CC BY-NC-SA
exact mass=287.13416
ionization energy=70 eV
ion type=[M]+*
computed spectral entropy=2.928534301270048
computed normalized entropy=0.8236983413779242
SPLASH=splash10-00dr-2390000000-f46859728d67e32104d2
submitter=submitter = University of Tokyo Team (Faculty of Engineering, University of Tokyo)
MoNA Rating=3.75

>  <NUM PEAKS>  (238) 
35

>  <MASS SPECTRAL PEAKS>  (238) 
51 3.4
53 3.6
59 21.2
73 17.2
75 4.3
77 7.4
83 3.1
89 7.1
91 3.4
113 7.7
114 8.1
115 3.5
118 8
120 9.7
121 9.7
127 4.3
128 6.7
129 7
154 4.4
167 3.2
168 4.1
182 14.9
198 3.6
212 3.7
224 3.5
240 3.3
242 9.8
256 17.3
257 5.3
272 99.99
273 23.3
274 6.5
287 68
288 15.3
289 4.2

$$$$

     RDKit          2D

 19 19  0  0  0  0  0  0  0  0999 V2000
   -2.0353    1.3943    0.0000 C   0  0  0  0  0  0  0  0  0  0  0  0
   -5.3834    4.1934    0.0000 C   0  0  0  0  0  0  0  0  0  0  0  0
   -5.9324    2.1443    0.0000 C   0  0  0  0  0  0  0  0  0  0  0  0
   -3.8834    1.5953    0.0000 C   0  0  0  0  0  0  0  0  0  0  0  0
   -1.8344    5.1443    0.0000 C   0  0  0  0  0  0  0  0  0  0  0  0
   -3.3344    6.6443    0.0000 C   0  0  0  0  0  0  0  0  0  0  0  0
   -4.8344    5.1443    0.0000 C   0  0  0  0  0  0  0  0  0  0  0  0
    3.1608    1.3943    0.0000 C   0  0  0  0  0  0  0  0  0  0  0  0
    3.1613    2.8952    0.0000 C   0  0  0  0  0  0  0  0  0  0  0  0
    1.8613    0.6435    0.0000 C   0  0  0  0  0  0  0  0  0  0  0  0
    1.8623    3.6452    0.0000 C   0  0  0  0  0  0  0  0  0  0  0  0
    0.5623    1.3935    0.0000 C   0  0  0  0  0  0  0  0  0  0  0  0
    0.5627    2.8943    0.0000 C   0  0  0  0  0  0  0  0  0  0  0  0
   -0.7363    3.6443    0.0000 C   0  0  0  0  0  0  0  0  0  0  0  0
   -3.3344    3.6443    0.0000 C   0  0  0  0  0  0  0  0  0  0  0  0
   -2.0353    2.8943    0.0000 N   0  0  0  0  0  0  0  0  0  0  0  0
   -0.7363    5.1443    0.0000 O   0  0  0  0  0  0  0  0  0  0  0  0
   -4.6334    2.8943    0.0000 Si  0  0  0  0  0  4  0  0  0  0  0  0
   -3.3344    5.1443    0.0000 Si  0  0  0  0  0  4  0  0  0  0  0  0
  9  8  2  0
 10  8  1  0
 11  9  1  0
 12 10  2  0
 13 11  2  0
 13 12  1  0
 14 13  1  0
 16  1  1  0
 16 14  1  0
 16 15  1  0
 17 14  2  0
 18  2  1  0
 18  3  1  0
 18  4  1  0
 18 15  1  0
 19  5  1  0
 19  6  1  0
 19  7  1  0
 19 15  1  0
M  END
>  <NAME>  (239) 
N-METHYL-N-BIS(TRIMETHYLSILYL)METHYLBENZAMIDE

>  <SYNONYMS>  (239) 


>  <SPECTRUM TYPE>  (239) 
MS1

>  <INSTRUMENT TYPE>  (239) 
EI-B

>  <INSTRUMENT>  (239) 
Unknown

>  <ION MODE>  (239) 
P

>  <INCHIKEY>  (239) 
NWWLYVWRNWGAEB-UHFFFAOYSA-N

>  <FORMULA>  (239) 
C15H27NOSi2

>  <EXACT MASS>  (239) 
293.163117544

>  <MW>  (239) 
293

>  <ID>  (239) 
JP011852

>  <CONTRIBUTOR>  (239) 
University of Tokyo Team, {Faculty of Engineering, University of Tokyo

>  <COMMENT>  (239) 
SMILES=c(c1)ccc(c1)C(=O)N(C)C([Si](C)(C)C)[Si](C)(C)C
InChI=InChI=1S/C15H27NOSi2/c1-16(14(17)13-11-9-8-10-12-13)15(18(2,3)4)19(5,6)7/h8-12,15H,1-7H3
computed SMILES=O=C(C=1C=CC=CC1)N(C)C([Si](C)(C)C)[Si](C)(C)C
accession=JP011852
date=2016.01.19 (Created 2008.10.21, modified 2011.05.06)
author=YOSHIKI O, FAC, TECHNOLOGY, OSAKA UNIV.
license=CC BY-NC-SA
exact mass=293.16312
ionization energy=70 eV
ion type=[M]+*
computed spectral entropy=2.9122724817972627
computed normalized entropy=0.7742934149251567
SPLASH=splash10-05dl-7490000000-368063cfe423df4d2adc
submitter=submitter = University of Tokyo Team (Faculty of Engineering, University of Tokyo)
MoNA Rating=3.75

>  <NUM PEAKS>  (239) 
43

>  <MASS SPECTRAL PEAKS>  (239) 
50 2.1
51 10.5
57 2.7
58 4.2
59 28.8
60 2.4
61 2.1
72 2.8
73 96.6
74 8.9
75 6.2
77 60.9
78 4.4
86 2.6
91 4.5
100 6
103 2.3
104 5.3
105 62
106 4.9
114 2.5
116 2.5
118 37
119 4.2
130 2
133 2
135 3.3
147 7.4
162 2.1
188 3.2
190 5.5
204 3.5
205 3.1
219 4.3
220 12.6
221 2.5
278 86.7
279 22.3
280 9
292 99.99
293 38.8
294 14.7
295 2.9

$$$$

     RDKit          2D

 18 18  0  0  0  0  0  0  0  0999 V2000
   -5.3834    4.1934    0.0000 C   0  0  0  0  0  0  0  0  0  0  0  0
   -5.9324    2.1443    0.0000 C   0  0  0  0  0  0  0  0  0  0  0  0
   -3.8834    1.5953    0.0000 C   0  0  0  0  0  0  0  0  0  0  0  0
   -1.8344    5.1443    0.0000 C   0  0  0  0  0  0  0  0  0  0  0  0
   -3.3344    6.6443    0.0000 C   0  0  0  0  0  0  0  0  0  0  0  0
   -4.8344    5.1443    0.0000 C   0  0  0  0  0  0  0  0  0  0  0  0
    3.1608    1.3943    0.0000 C   0  0  0  0  0  0  0  0  0  0  0  0
    3.1613    2.8952    0.0000 C   0  0  0  0  0  0  0  0  0  0  0  0
    1.8613    0.6435    0.0000 C   0  0  0  0  0  0  0  0  0  0  0  0
    1.8623    3.6452    0.0000 C   0  0  0  0  0  0  0  0  0  0  0  0
    0.5623    1.3935    0.0000 C   0  0  0  0  0  0  0  0  0  0  0  0
    0.5627    2.8943    0.0000 C   0  0  0  0  0  0  0  0  0  0  0  0
   -0.7363    3.6443    0.0000 C   0  0  0  0  0  0  0  0  0  0  0  0
   -3.3344    3.6443    0.0000 C   0  0  0  0  0  0  0  0  0  0  0  0
   -2.0353    2.8943    0.0000 N   0  0  0  0  0  0  0  0  0  0  0  0
   -0.7363    5.1443    0.0000 O   0  0  0  0  0  0  0  0  0  0  0  0
   -4.6334    2.8943    0.0000 Si  0  0  0  0  0  4  0  0  0  0  0  0
   -3.3344    5.1443    0.0000 Si  0  0  0  0  0  4  0  0  0  0  0  0
  8  7  2  0
  9  7  1  0
 10  8  1  0
 11  9  2  0
 12 10  2  0
 12 11  1  0
 13 12  1  0
 15 13  2  3
 15 14  1  0
 16 13  1  0
 17  1  1  0
 17  2  1  0
 17  3  1  0
 17 14  1  0
 18  4  1  0
 18  5  1  0
 18  6  1  0
 18 14  1  0
M  END
>  <NAME>  (240) 
N-BIS(TRIMETHYLSILYL)METHYLBENZAMIDE

>  <SYNONYMS>  (240) 


>  <SPECTRUM TYPE>  (240) 
MS1

>  <INSTRUMENT TYPE>  (240) 
EI-B

>  <INSTRUMENT>  (240) 
Unknown

>  <ION MODE>  (240) 
P

>  <INCHIKEY>  (240) 
LOLJOUYHPBYQHE-UHFFFAOYSA-N

>  <FORMULA>  (240) 
C14H25NOSi2

>  <EXACT MASS>  (240) 
279.14746748

>  <MW>  (240) 
279

>  <ID>  (240) 
JP011851

>  <CONTRIBUTOR>  (240) 
University of Tokyo Team, {Faculty of Engineering, University of Tokyo

>  <COMMENT>  (240) 
SMILES=c(c1)ccc(c1)C(=O)NC([Si](C)(C)C)[Si](C)(C)C
InChI=InChI=1S/C14H25NOSi2/c1-17(2,3)14(18(4,5)6)15-13(16)12-10-8-7-9-11-12/h7-11,14H,1-6H3,(H,15,16)
computed SMILES=OC(=NC([Si](C)(C)C)[Si](C)(C)C)C=1C=CC=CC1
accession=JP011851
date=2016.01.19 (Created 2008.10.21, modified 2011.05.06)
author=YOSHIKI O, FAC, TECHNOLOGY, OSAKA UNIV.
license=CC BY-NC-SA
exact mass=279.14747
ionization energy=70 eV
ion type=[M]+*
computed spectral entropy=2.9266242967001954
computed normalized entropy=0.8231611212417184
SPLASH=splash10-00b9-8590000000-17c772949b096b5e6bb7
submitter=submitter = University of Tokyo Team (Faculty of Engineering, University of Tokyo)
MoNA Rating=3.75

>  <NUM PEAKS>  (240) 
35

>  <MASS SPECTRAL PEAKS>  (240) 
51 8.9
58 3.2
59 18.8
73 92.2
74 9.7
75 14.1
76 3.5
77 41.4
78 3.4
86 3.5
104 13.7
105 34.7
117 7.1
119 4.5
132 4.1
133 7
135 3
145 5.3
146 12.6
147 6.1
148 3.3
174 15.3
175 3.2
190 8.1
191 3.5
193 5.8
206 4.5
262 9.9
263 3.5
264 34.3
265 8.6
266 3.4
278 99.99
279 38.7
280 14.1

$$$$

     RDKit          2D

 17 17  0  0  0  0  0  0  0  0999 V2000
   -4.4518    5.3789    0.0000 C   0  0  0  0  0  0  0  0  0  0  0  0
   -6.5009    4.8299    0.0000 C   0  0  0  0  0  0  0  0  0  0  0  0
   -5.9518    2.7808    0.0000 C   0  0  0  0  0  0  0  0  0  0  0  0
    0.9585    5.2289    0.0000 C   0  0  0  0  0  0  0  0  0  0  0  0
   -0.9699    5.2289    0.0000 C   0  0  0  0  0  0  0  0  0  0  0  0
    3.8914    1.8299    0.0000 C   0  0  0  0  0  0  0  0  0  0  0  0
    3.8919    3.3307    0.0000 C   0  0  0  0  0  0  0  0  0  0  0  0
    2.5919    1.0790    0.0000 C   0  0  0  0  0  0  0  0  0  0  0  0
    2.5929    4.0807    0.0000 C   0  0  0  0  0  0  0  0  0  0  0  0
    1.2929    1.8290    0.0000 C   0  0  0  0  0  0  0  0  0  0  0  0
    1.2933    3.3299    0.0000 C   0  0  0  0  0  0  0  0  0  0  0  0
   -2.6038    4.0799    0.0000 C   0  0  0  0  0  0  0  0  0  0  0  0
   -5.2018    4.0799    0.0000 C   0  0  0  0  0  0  0  0  0  0  0  0
   -0.0057    4.0799    0.0000 C   0  0  0  0  0  0  0  0  0  0  0  0
   -3.9028    3.3299    0.0000 N   0  0  0  0  0  0  0  0  0  0  0  0
   -1.3047    3.3299    0.0000 N   0  0  0  0  0  0  0  0  0  0  0  0
   -2.6038    5.5799    0.0000 O   0  0  0  0  0  0  0  0  0  0  0  0
  7  6  2  0
  8  6  1  0
  9  7  1  0
 10  8  2  0
 11  9  2  0
 11 10  1  0
 13  1  1  0
 13  2  1  0
 13  3  1  0
 14  4  1  0
 14  5  1  0
 14 11  1  0
 15 12  2  3
 15 13  1  0
 16 12  1  0
 16 14  1  0
 17 12  1  0
M  END
>  <NAME>  (241) 
1-ALPHA,ALPHA-DIMETHYLBENZYL-3-TERT-BUTYLUREA

>  <SYNONYMS>  (241) 


>  <SPECTRUM TYPE>  (241) 
MS1

>  <INSTRUMENT TYPE>  (241) 
EI-B

>  <INSTRUMENT>  (241) 
Unknown

>  <ION MODE>  (241) 
P

>  <INCHIKEY>  (241) 
HDKBXCJPXGAQTP-UHFFFAOYSA-N

>  <FORMULA>  (241) 
C14H22N2O

>  <EXACT MASS>  (241) 
234.173213324

>  <MW>  (241) 
234

>  <ID>  (241) 
JP011850

>  <CONTRIBUTOR>  (241) 
University of Tokyo Team, {Faculty of Engineering, University of Tokyo

>  <COMMENT>  (241) 
SMILES=CC(C)(C)NC(=O)NC(C)(C)c(c1)cccc1
InChI=InChI=1S/C14H22N2O/c1-13(2,3)15-12(17)16-14(4,5)11-9-7-6-8-10-11/h6-10H,1-5H3,(H2,15,16,17)
computed SMILES=OC(=NC(C)(C)C)NC(C=1C=CC=CC1)(C)C
accession=JP011850
date=2016.01.19 (Created 2008.10.21, modified 2011.05.06)
author=YOSHIKI O, FAC, TECHNOLOGY, OSAKA UNIV.
license=CC BY-NC-SA
exact mass=234.17321
ionization energy=70 eV
ion type=[M]+*
computed spectral entropy=2.577175285931932
computed normalized entropy=0.7248728510851611
SPLASH=splash10-0ab9-9500000000-4e3edd19d302d864eec7
submitter=submitter = University of Tokyo Team (Faculty of Engineering, University of Tokyo)
MoNA Rating=3.75

>  <NUM PEAKS>  (241) 
35

>  <MASS SPECTRAL PEAKS>  (241) 
50 1.1
51 4.6
52 1.1
55 2.3
56 4.3
57 14.9
58 99.99
59 3.9
61 6.3
65 2
72 2
77 9.7
78 3.2
79 4.2
84 1.4
91 18.8
92 1.7
93 5.5
101 1.2
102 5.6
103 3.5
104 3.7
105 1.1
115 1.9
117 3.5
118 6.8
119 16
120 64.9
121 6.3
129 1.1
134 1.6
146 1.7
219 12.6
220 2.1
234 3.2

$$$$

     RDKit          2D

 10 11  0  0  0  0  0  0  0  0999 V2000
    2.6000    0.0000    0.0000 C   0  0  0  0  0  0  0  0  0  0  0  0
    1.7200    1.2100    0.0000 C   0  0  0  0  0  0  0  0  0  0  0  0
    1.7200   -1.2100    0.0000 C   0  0  0  0  0  0  0  0  0  0  0  0
   -1.0100    1.5000    0.0000 C   0  0  0  0  0  0  0  0  0  0  0  0
    0.2900    0.7500    0.0000 C   0  0  0  0  0  0  0  0  0  0  0  0
   -1.0100   -1.5000    0.0000 C   0  0  0  0  0  0  0  0  0  0  0  0
   -2.3100    0.7500    0.0000 N   0  0  0  0  0  0  0  0  0  0  0  0
   -2.3100   -0.7500    0.0000 N   0  0  0  0  0  0  0  0  0  0  0  0
    0.2900   -0.7500    0.0000 N   0  0  0  0  0  0  0  0  0  0  0  0
   -1.0100   -3.0000    0.0000 O   0  0  0  0  0  0  0  0  0  0  0  0
  2  1  1  0
  3  1  2  0
  5  2  2  0
  5  4  1  0
  7  4  2  0
  8  6  2  0
  8  7  1  0
  9  3  1  0
  9  5  1  0
  9  6  1  0
 10  6  1  0
M  END
>  <NAME>  (242) 
3H,4H-PYRRO(1,2-D)(1,2,4)TRIAZIN-4-ONE

>  <SYNONYMS>  (242) 


>  <SPECTRUM TYPE>  (242) 
MS1

>  <INSTRUMENT TYPE>  (242) 
EI-B

>  <INSTRUMENT>  (242) 
Unknown

>  <ION MODE>  (242) 
P

>  <INCHIKEY>  (242) 
OQRPWJFDQXSBRH-UHFFFAOYSA-N

>  <FORMULA>  (242) 
C6H5N3O

>  <EXACT MASS>  (242) 
135.04326178

>  <MW>  (242) 
135

>  <ID>  (242) 
JP011849

>  <CONTRIBUTOR>  (242) 
University of Tokyo Team, {Faculty of Engineering, University of Tokyo

>  <COMMENT>  (242) 
SMILES=O=C(N1)n(c2)c(cc2)C=N1
InChI=InChI=1S/C6H5N3O/c10-6-8-7-4-5-2-1-3-9(5)6/h1-4H,(H,8,10)
computed SMILES=OC1=NN=CC2=CC=CN12
accession=JP011849
date=2016.01.19 (Created 2008.10.21, modified 2011.05.06)
author=YOSHIKI O, FAC, TECHNOLOGY, OSAKA UNIV.
license=CC BY-NC-SA
exact mass=135.04326
ionization energy=70 eV
ion type=[M]+*
computed spectral entropy=2.2568106365643152
computed normalized entropy=0.7301131157588485
SPLASH=splash10-0udr-9300000000-f3ab3eab093be3ba1b05
submitter=submitter = University of Tokyo Team (Faculty of Engineering, University of Tokyo)
MoNA Rating=3.75

>  <NUM PEAKS>  (242) 
22

>  <MASS SPECTRAL PEAKS>  (242) 
50 20.7
51 41.2
52 75.4
53 10.4
55 1
56 3.2
62 2.5
63 5.5
64 11.5
65 11.1
66 4.3
67 3
68 2.9
75 1.4
76 1.8
77 1.1
78 8.7
79 46.1
80 3.1
106 1.4
135 99.99
136 8.5

$$$$

     RDKit          2D

 17 19  0  0  0  0  0  0  0  0999 V2000
   -7.5064    0.7492    0.0000 C   0  0  0  0  0  0  0  0  0  0  0  0
   -7.5066   -0.7517    0.0000 C   0  0  0  0  0  0  0  0  0  0  0  0
   -6.2070    1.5002    0.0000 C   0  0  0  0  0  0  0  0  0  0  0  0
    2.6000    0.0000    0.0000 C   0  0  0  0  0  0  0  0  0  0  0  0
   -6.2075   -1.5015    0.0000 C   0  0  0  0  0  0  0  0  0  0  0  0
   -4.9078    0.7504    0.0000 C   0  0  0  0  0  0  0  0  0  0  0  0
    1.7200    1.2100    0.0000 C   0  0  0  0  0  0  0  0  0  0  0  0
    1.7200   -1.2100    0.0000 C   0  0  0  0  0  0  0  0  0  0  0  0
   -1.0100    1.5000    0.0000 C   0  0  0  0  0  0  0  0  0  0  0  0
   -3.6089   -1.5002    0.0000 C   0  0  0  0  0  0  0  0  0  0  0  0
   -4.9081   -0.7504    0.0000 C   0  0  0  0  0  0  0  0  0  0  0  0
    0.2900    0.7500    0.0000 C   0  0  0  0  0  0  0  0  0  0  0  0
   -1.0100   -1.5000    0.0000 C   0  0  0  0  0  0  0  0  0  0  0  0
   -2.3100    0.7500    0.0000 N   0  0  0  0  0  0  0  0  0  0  0  0
    0.2900   -0.7500    0.0000 N   0  0  0  0  0  0  0  0  0  0  0  0
   -2.3100   -0.7500    0.0000 N   0  0  0  0  0  0  0  0  0  0  0  0
   -1.0100   -3.0000    0.0000 O   0  0  0  0  0  0  0  0  0  0  0  0
  2  1  2  0
  3  1  1  0
  5  2  1  0
  6  3  2  0
  7  4  1  0
  8  4  2  0
 11  5  2  0
 11  6  1  0
 11 10  1  0
 12  7  2  0
 12  9  1  0
 14  9  2  0
 15  8  1  0
 15 12  1  0
 15 13  1  0
 16 10  1  0
 16 13  1  0
 16 14  1  0
 17 13  2  0
M  END
>  <NAME>  (243) 
3H,4H-3-BENZYLPYRRO(1,2-D)(1,2,4)TRIAZIN-4-ONE

>  <SYNONYMS>  (243) 


>  <SPECTRUM TYPE>  (243) 
MS1

>  <INSTRUMENT TYPE>  (243) 
EI-B

>  <INSTRUMENT>  (243) 
Unknown

>  <ION MODE>  (243) 
P

>  <INCHIKEY>  (243) 
UEFIKAMUIWOPPJ-UHFFFAOYSA-N

>  <FORMULA>  (243) 
C13H11N3O

>  <EXACT MASS>  (243) 
225.090211972

>  <MW>  (243) 
225

>  <ID>  (243) 
JP011848

>  <CONTRIBUTOR>  (243) 
University of Tokyo Team, {Faculty of Engineering, University of Tokyo

>  <COMMENT>  (243) 
SMILES=c(c3)ccc(c3)CN(N=1)C(=O)n(c2)c(cc2)C1
InChI=InChI=1S/C13H11N3O/c17-13-15-8-4-7-12(15)9-14-16(13)10-11-5-2-1-3-6-11/h1-9H,10H2
computed SMILES=O=C1N2C=CC=C2C=NN1CC=3C=CC=CC3
accession=JP011848
date=2016.01.19 (Created 2008.10.21, modified 2011.05.06)
author=YOSHIKI O, FAC, TECHNOLOGY, OSAKA UNIV.
license=CC BY-NC-SA
exact mass=225.09021
ionization energy=70 eV
ion type=[M]+*
computed spectral entropy=2.5765209291900333
computed normalized entropy=0.743426793457817
SPLASH=splash10-0006-9210000000-92f5cdc54e3d2d646030
submitter=submitter = University of Tokyo Team (Faculty of Engineering, University of Tokyo)
MoNA Rating=3.75

>  <NUM PEAKS>  (243) 
32

>  <MASS SPECTRAL PEAKS>  (243) 
50 6.7
51 24
52 6.2
56 2.1
62 1.4
63 5.5
64 3.4
65 27.9
66 2.7
76 1.5
77 8.6
78 4.6
79 1.9
89 3.2
90 1.9
91 99.99
92 9.2
93 1.4
94 12.7
104 2.3
105 2.6
106 1.5
121 4.1
132 40.4
133 4
169 1.6
183 1.1
196 2.6
197 3.6
224 1.6
225 24.1
226 3.7

$$$$

     RDKit          2D

 11 12  0  0  0  0  0  0  0  0999 V2000
   -3.6089   -1.5002    0.0000 C   0  0  0  0  0  0  0  0  0  0  0  0
    2.6000    0.0000    0.0000 C   0  0  0  0  0  0  0  0  0  0  0  0
    1.7200    1.2100    0.0000 C   0  0  0  0  0  0  0  0  0  0  0  0
    1.7200   -1.2100    0.0000 C   0  0  0  0  0  0  0  0  0  0  0  0
   -1.0100    1.5000    0.0000 C   0  0  0  0  0  0  0  0  0  0  0  0
    0.2900    0.7500    0.0000 C   0  0  0  0  0  0  0  0  0  0  0  0
   -1.0100   -1.5000    0.0000 C   0  0  0  0  0  0  0  0  0  0  0  0
   -2.3100    0.7500    0.0000 N   0  0  0  0  0  0  0  0  0  0  0  0
   -2.3100   -0.7500    0.0000 N   0  0  0  0  0  0  0  0  0  0  0  0
    0.2900   -0.7500    0.0000 N   0  0  0  0  0  0  0  0  0  0  0  0
   -1.0100   -3.0000    0.0000 O   0  0  0  0  0  0  0  0  0  0  0  0
  3  2  1  0
  4  2  2  0
  6  3  2  0
  6  5  1  0
  8  5  2  0
  9  1  1  0
  9  7  1  0
  9  8  1  0
 10  4  1  0
 10  6  1  0
 10  7  1  0
 11  7  2  0
M  END
>  <NAME>  (244) 
3H,4H-3-METHYLPYRRO(1,2-D)(1,2,4)TRIAZIN-4-ONE

>  <SYNONYMS>  (244) 


>  <SPECTRUM TYPE>  (244) 
MS1

>  <INSTRUMENT TYPE>  (244) 
EI-B

>  <INSTRUMENT>  (244) 
Unknown

>  <ION MODE>  (244) 
P

>  <INCHIKEY>  (244) 
YPIXFRMCJJZKOC-UHFFFAOYSA-N

>  <FORMULA>  (244) 
C7H7N3O

>  <EXACT MASS>  (244) 
149.058911844

>  <MW>  (244) 
149

>  <ID>  (244) 
JP011847

>  <CONTRIBUTOR>  (244) 
University of Tokyo Team, {Faculty of Engineering, University of Tokyo

>  <COMMENT>  (244) 
SMILES=CN(N=1)C(=O)n(c2)c(cc2)C1
InChI=InChI=1S/C7H7N3O/c1-9-7(11)10-4-2-3-6(10)5-8-9/h2-5H,1H3
computed SMILES=O=C1N2C=CC=C2C=NN1C
accession=JP011847
date=2016.01.19 (Created 2008.10.21, modified 2011.05.06)
author=YOSHIKI O, FAC, TECHNOLOGY, OSAKA UNIV.
license=CC BY-NC-SA
exact mass=149.05891
ionization energy=70 eV
ion type=[M]+*
computed spectral entropy=2.6586819073432477
computed normalized entropy=0.7603821414955448
SPLASH=splash10-0002-9800000000-b79279597e28e14ee050
submitter=submitter = University of Tokyo Team (Faculty of Engineering, University of Tokyo)
MoNA Rating=3.75

>  <NUM PEAKS>  (244) 
33

>  <MASS SPECTRAL PEAKS>  (244) 
51 22.4
52 7.9
53 1.8
56 6.8
58 1.4
61 1.4
63 2.3
64 6.9
65 9.2
66 4.7
67 3.1
74 1.7
75 1.9
76 1.2
77 1.6
78 25
79 14
80 4
91 1.4
92 3.9
93 11
94 16.3
95 1.2
105 2.6
106 8
107 1.6
119 1
120 4.8
121 10.3
122 1.1
148 5.5
149 99.99
150 8.1

$$$$

     RDKit          2D

 15 16  0  0  0  0  0  0  0  0999 V2000
   -4.3591   -0.2013    0.0000 C   0  0  0  0  0  0  0  0  0  0  0  0
   -4.9078   -2.2504    0.0000 C   0  0  0  0  0  0  0  0  0  0  0  0
   -2.8587   -2.7991    0.0000 C   0  0  0  0  0  0  0  0  0  0  0  0
    2.6000    0.0000    0.0000 C   0  0  0  0  0  0  0  0  0  0  0  0
    1.7200    1.2100    0.0000 C   0  0  0  0  0  0  0  0  0  0  0  0
    1.7200   -1.2100    0.0000 C   0  0  0  0  0  0  0  0  0  0  0  0
    0.2900    0.7500    0.0000 C   0  0  0  0  0  0  0  0  0  0  0  0
   -1.0100    1.5000    0.0000 C   0  0  0  0  0  0  0  0  0  0  0  0
   -1.0100   -1.5000    0.0000 C   0  0  0  0  0  0  0  0  0  0  0  0
   -3.6089   -1.5002    0.0000 C   0  0  0  0  0  0  0  0  0  0  0  0
   -2.3100    0.7500    0.0000 N   0  0  0  0  0  0  0  0  0  0  0  0
    0.2900   -0.7500    0.0000 N   0  0  0  0  0  0  0  0  0  0  0  0
   -2.3100   -0.7500    0.0000 N   0  0  0  0  0  0  0  0  0  0  0  0
   -1.0100    3.0000    0.0000 O   0  0  0  0  0  0  0  0  0  0  0  0
   -1.0100   -3.0000    0.0000 O   0  0  0  0  0  0  0  0  0  0  0  0
  5  4  1  0
  6  4  2  0
  7  5  2  0
  8  7  1  0
 10  1  1  0
 10  2  1  0
 10  3  1  0
 11  8  1  0
 12  6  1  0
 12  7  1  0
 12  9  1  0
 13  9  1  0
 13 10  1  0
 13 11  1  0
 14  8  2  0
 15  9  2  0
M  END
>  <NAME>  (245) 
1H,2H,3H,4H-3-TERT-BUTYLPYRRO(1,2-D)(1,2,4)TRIAZINE-1,4-DIONE

>  <SYNONYMS>  (245) 


>  <SPECTRUM TYPE>  (245) 
MS1

>  <INSTRUMENT TYPE>  (245) 
EI-B

>  <INSTRUMENT>  (245) 
Unknown

>  <ION MODE>  (245) 
P

>  <INCHIKEY>  (245) 
WQLAWOVOLCRKAT-UHFFFAOYSA-N

>  <FORMULA>  (245) 
C10H13N3O2

>  <EXACT MASS>  (245) 
207.100776656

>  <MW>  (245) 
207

>  <ID>  (245) 
JP011846

>  <CONTRIBUTOR>  (245) 
University of Tokyo Team, {Faculty of Engineering, University of Tokyo

>  <COMMENT>  (245) 
SMILES=[H]c(c([H])1)c([H])n(C(=O)2)c1C(=O)NN(C(C)(C)C)2
InChI=InChI=1S/C10H13N3O2/c1-10(2,3)13-9(15)12-6-4-5-7(12)8(14)11-13/h4-6H,1-3H3,(H,11,14)
computed SMILES=O=C1NN(C(=O)N2C=CC=C12)C(C)(C)C
accession=JP011846
date=2016.01.19 (Created 2008.10.21, modified 2011.05.06)
author=YOSHIKI O, FAC, TECHNOLOGY, OSAKA UNIV.
license=CC BY-NC-SA
exact mass=207.10078
ionization energy=70 eV
ion type=[M]+*
computed spectral entropy=2.6795636533714164
computed normalized entropy=0.7263895951880716
SPLASH=splash10-0udl-9300000000-1cee83d2e912266455fd
submitter=submitter = University of Tokyo Team (Faculty of Engineering, University of Tokyo)
MoNA Rating=3.75

>  <NUM PEAKS>  (245) 
40

>  <MASS SPECTRAL PEAKS>  (245) 
50 4.7
51 29
52 2.5
53 4
54 2.4
55 5.9
56 10.6
57 53.2
58 3.8
60 1.1
64 2.7
65 4.5
66 14.2
67 4.6
68 2
70 1.5
73 1.8
81 1
83 1.7
84 43
85 1.7
86 27.9
87 2.8
88 5.6
93 5
94 86.5
95 14.3
96 1.3
99 1
101 3.1
102 1
107 1.1
125 1.8
144 1.1
151 99.99
152 9.5
166 1
181 1.2
207 8.1
208 1.1

$$$$

     RDKit          2D

 14 15  0  0  0  0  0  0  0  0999 V2000
   -4.3591   -0.2013    0.0000 C   0  0  0  0  0  0  0  0  0  0  0  0
   -4.9078   -2.2504    0.0000 C   0  0  0  0  0  0  0  0  0  0  0  0
   -2.8587   -2.7991    0.0000 C   0  0  0  0  0  0  0  0  0  0  0  0
    2.6000    0.0000    0.0000 C   0  0  0  0  0  0  0  0  0  0  0  0
    1.7200    1.2100    0.0000 C   0  0  0  0  0  0  0  0  0  0  0  0
    1.7200   -1.2100    0.0000 C   0  0  0  0  0  0  0  0  0  0  0  0
   -1.0100    1.5000    0.0000 C   0  0  0  0  0  0  0  0  0  0  0  0
    0.2900    0.7500    0.0000 C   0  0  0  0  0  0  0  0  0  0  0  0
   -1.0100   -1.5000    0.0000 C   0  0  0  0  0  0  0  0  0  0  0  0
   -3.6089   -1.5002    0.0000 C   0  0  0  0  0  0  0  0  0  0  0  0
   -2.3100    0.7500    0.0000 N   0  0  0  0  0  0  0  0  0  0  0  0
    0.2900   -0.7500    0.0000 N   0  0  0  0  0  0  0  0  0  0  0  0
   -2.3100   -0.7500    0.0000 N   0  0  0  0  0  0  0  0  0  0  0  0
   -1.0100   -3.0000    0.0000 O   0  0  0  0  0  0  0  0  0  0  0  0
  5  4  1  0
  6  4  2  0
  8  5  2  0
  8  7  1  0
 10  1  1  0
 10  2  1  0
 10  3  1  0
 11  7  2  0
 12  6  1  0
 12  8  1  0
 12  9  1  0
 13  9  1  0
 13 10  1  0
 13 11  1  0
 14  9  2  0
M  END
>  <NAME>  (246) 
3H,4H-3-TERT-BUTYLPYRRO(1,2-D)(1,2,4)TRIAZIN-4-ONE

>  <SYNONYMS>  (246) 


>  <SPECTRUM TYPE>  (246) 
MS1

>  <INSTRUMENT TYPE>  (246) 
EI-B

>  <INSTRUMENT>  (246) 
Unknown

>  <ION MODE>  (246) 
P

>  <INCHIKEY>  (246) 
BKVYRJITXUGASZ-UHFFFAOYSA-N

>  <FORMULA>  (246) 
C10H13N3O

>  <EXACT MASS>  (246) 
191.105862036

>  <MW>  (246) 
191

>  <ID>  (246) 
JP011845

>  <CONTRIBUTOR>  (246) 
University of Tokyo Team, {Faculty of Engineering, University of Tokyo

>  <COMMENT>  (246) 
SMILES=CC(C)(C)N(N=1)C(=O)n(c2)c(cc2)C1
InChI=InChI=1S/C10H13N3O/c1-10(2,3)13-9(14)12-6-4-5-8(12)7-11-13/h4-7H,1-3H3
computed SMILES=O=C1N2C=CC=C2C=NN1C(C)(C)C
accession=JP011845
date=2016.01.19 (Created 2008.10.21, modified 2011.05.06)
author=YOSHIKI O, FAC, TECHNOLOGY, OSAKA UNIV.
license=CC BY-NC-SA
exact mass=191.10586
ionization energy=70 eV
ion type=[M]+*
computed spectral entropy=2.050436293535868
computed normalized entropy=0.673483718868272
SPLASH=splash10-000i-7900000000-c1446fcdf62c8bbd036b
submitter=submitter = University of Tokyo Team (Faculty of Engineering, University of Tokyo)
MoNA Rating=3.75

>  <NUM PEAKS>  (246) 
21

>  <MASS SPECTRAL PEAKS>  (246) 
50 3.8
51 12.9
52 11.4
53 3.3
54 1
55 2.7
56 4.1
57 9.5
64 2.3
65 2.3
66 2.3
78 3.2
79 36.1
80 2.6
84 1
93 1.7
106 1.2
135 99.99
136 9.9
191 11.3
192 1.5

$$$$

     RDKit          2D

 10 11  0  0  0  0  0  0  0  0999 V2000
    2.6000    0.0000    0.0000 C   0  0  0  0  0  0  0  0  0  0  0  0
    1.7200    1.2100    0.0000 C   0  0  0  0  0  0  0  0  0  0  0  0
    1.7200   -1.2100    0.0000 C   0  0  0  0  0  0  0  0  0  0  0  0
   -1.0100    1.5000    0.0000 C   0  0  0  0  0  0  0  0  0  0  0  0
    0.2900    0.7500    0.0000 C   0  0  0  0  0  0  0  0  0  0  0  0
   -1.0100   -1.5000    0.0000 C   0  0  0  0  0  0  0  0  0  0  0  0
   -2.3100    0.7500    0.0000 N   0  0  0  0  0  0  0  0  0  0  0  0
   -2.3100   -0.7500    0.0000 N   0  0  0  0  0  0  0  0  0  0  0  0
    0.2900   -0.7500    0.0000 N   0  0  0  0  0  0  0  0  0  0  0  0
   -1.0100   -3.0000    0.0000 S   0  0  0  0  0  0  0  0  0  0  0  0
  2  1  1  0
  3  1  2  0
  5  2  2  0
  5  4  1  0
  7  4  2  0
  8  6  2  0
  8  7  1  0
  9  3  1  0
  9  5  1  0
  9  6  1  0
 10  6  1  0
M  END
>  <NAME>  (247) 
3H,4H-PYRROLO(1,2-D))1,2,4)TRIAZINE-4-THIONE

>  <SYNONYMS>  (247) 


>  <SPECTRUM TYPE>  (247) 
MS1

>  <INSTRUMENT TYPE>  (247) 
EI-B

>  <INSTRUMENT>  (247) 
Unknown

>  <ION MODE>  (247) 
P

>  <INCHIKEY>  (247) 
YHDJVFRFPVQQBR-UHFFFAOYSA-N

>  <FORMULA>  (247) 
C6H5N3S

>  <EXACT MASS>  (247) 
151.02041816

>  <MW>  (247) 
151

>  <ID>  (247) 
JP011844

>  <CONTRIBUTOR>  (247) 
University of Tokyo Team, {Faculty of Engineering, University of Tokyo

>  <COMMENT>  (247) 
SMILES=SC(=N1)n(c2)c(cc2)C=N1
InChI=InChI=1S/C6H5N3S/c10-6-8-7-4-5-2-1-3-9(5)6/h1-4H,(H,8,10)
computed SMILES=SC1=NN=CC2=CC=CN12
accession=JP011844
date=2016.01.19 (Created 2008.10.21, modified 2011.05.06)
author=YOSHIKI O, FAC, TECHNOLOGY, OSAKA UNIV.
license=CC BY-NC-SA
exact mass=151.02042
ionization energy=70 eV
ion type=[M]+*
computed spectral entropy=3.0222479723414377
computed normalized entropy=0.8720364324067434
SPLASH=splash10-0uxr-9300000000-25a26624baece34450e7
submitter=submitter = University of Tokyo Team (Faculty of Engineering, University of Tokyo)
MoNA Rating=3.75

>  <NUM PEAKS>  (247) 
32

>  <MASS SPECTRAL PEAKS>  (247) 
50 11.4
51 18.4
52 29.3
53 9.2
58 5.2
59 14.8
60 7.1
62 1.2
63 31.3
64 25.8
65 33.6
66 53.4
67 5.2
69 7.9
70 10.1
71 5
72 8.5
75 5.6
76 5.9
78 12.6
79 18.1
92 15.8
93 50.9
94 6.4
95 6
96 7.6
119 13.7
122 5.2
135 4.8
151 99.99
152 9.2
153 7.5

$$$$

     RDKit          2D

 19 19  0  0  0  0  0  0  0  0999 V2000
    0.0000    7.0700    0.0000 C   0  0  0  0  0  0  0  0  0  0  0  0
   -3.8971    9.3200    0.0000 C   0  0  0  0  0  0  0  0  0  0  0  0
   -2.5981    1.0700    0.0000 C   0  0  0  0  0  0  0  0  0  0  0  0
    5.1962    7.0700    0.0000 C   0  0  0  0  0  0  0  0  0  0  0  0
    5.1966    5.5692    0.0000 C   0  0  0  0  0  0  0  0  0  0  0  0
    3.8966    7.8208    0.0000 C   0  0  0  0  0  0  0  0  0  0  0  0
    3.8976    4.8192    0.0000 C   0  0  0  0  0  0  0  0  0  0  0  0
    2.5976    7.0708    0.0000 C   0  0  0  0  0  0  0  0  0  0  0  0
   -2.5981    5.5700    0.0000 C   0  0  0  0  0  0  0  0  0  0  0  0
    1.2990    4.8200    0.0000 C   0  0  0  0  0  0  0  0  0  0  0  0
    2.5981    5.5700    0.0000 C   0  0  0  0  0  0  0  0  0  0  0  0
   -1.2990    4.8200    0.0000 C   0  0  0  0  0  0  0  0  0  0  0  0
   -2.5981    7.0700    0.0000 C   0  0  0  0  0  0  0  0  0  0  0  0
   -1.2990    3.3200    0.0000 C   0  0  0  0  0  0  0  0  0  0  0  0
    0.0000    5.5700    0.0000 N   0  0  0  0  0  0  0  0  0  0  0  0
   -1.2990    7.8200    0.0000 O   0  0  0  0  0  0  0  0  0  0  0  0
   -0.0000    2.5700    0.0000 O   0  0  0  0  0  0  0  0  0  0  0  0
   -3.8971    7.8200    0.0000 O   0  0  0  0  0  0  0  0  0  0  0  0
   -2.5981    2.5700    0.0000 O   0  0  0  0  0  0  0  0  0  0  0  0
  5  4  2  0
  6  4  1  0
  7  5  1  0
  8  6  2  0
 11  7  2  0
 11  8  1  0
 11 10  1  0
  9 12  2  0
 13  9  1  0
 14 12  1  0
 15  1  1  0
 15 10  1  0
 15 12  1  0
 16 13  2  0
 17 14  2  0
 18  2  1  0
 18 13  1  0
 19  3  1  0
 19 14  1  0
M  END
>  <NAME>  (248) 
BENZYLMETHYLAMINO-1,2-BIS(METHOXYCARBONYL)ETHYLENE

>  <SYNONYMS>  (248) 


>  <SPECTRUM TYPE>  (248) 
MS1

>  <INSTRUMENT TYPE>  (248) 
EI-B

>  <INSTRUMENT>  (248) 
Unknown

>  <ION MODE>  (248) 
P

>  <INCHIKEY>  (248) 
XHXCFKCCRZRAAW-XFXZXTDPSA-N

>  <FORMULA>  (248) 
C14H17NO4

>  <EXACT MASS>  (248) 
263.115758024

>  <MW>  (248) 
263

>  <ID>  (248) 
JP011843

>  <CONTRIBUTOR>  (248) 
University of Tokyo Team, {Faculty of Engineering, University of Tokyo

>  <COMMENT>  (248) 
SMILES=COC(=O)C=C(C(=O)OC)N(C)Cc(c1)cccc1
InChI=InChI=1S/C14H17NO4/c1-15(10-11-7-5-4-6-8-11)12(14(17)19-3)9-13(16)18-2/h4-9H,10H2,1-3H3/b12-9-
computed SMILES=O=C(OC)C=C(C(=O)OC)N(C)CC=1C=CC=CC1
accession=JP011843
date=2016.01.19 (Created 2008.10.21, modified 2011.05.06)
author=YOSHIKI O, FAC, TECHNOLOGY, OSAKA UNIV.
license=CC BY-NC-SA
exact mass=263.11576
ionization energy=70 eV
ion type=[M]+*
computed spectral entropy=3.4445005252397474
computed normalized entropy=0.8107577692797917
SPLASH=splash10-0006-9520000000-47374378b412bb5db28f
submitter=submitter = University of Tokyo Team (Faculty of Engineering, University of Tokyo)
MoNA Rating=3.75

>  <NUM PEAKS>  (248) 
70

>  <MASS SPECTRAL PEAKS>  (248) 
50 1.5
51 4.5
52 2.5
53 3
54 2.2
55 5.2
56 11.4
57 1.1
59 4.8
63 3.5
65 19.9
66 1.4
68 1.1
72 2.2
77 3.8
78 1.3
82 17.7
83 1.1
85 1.5
86 1.3
89 3.5
90 1.6
91 99.99
92 8.6
93 6.6
100 7
101 1
102 1.5
103 2.4
104 1.4
105 1.5
112 2.8
114 3.3
115 2.1
116 1.8
118 2.6
120 5.9
121 7.9
122 6.4
131 2.2
135 1.1
140 4.4
141 3.5
142 2.1
143 1.6
144 17.8
145 3.1
146 2.5
156 1.1
158 1.5
159 1.2
172 4.7
173 2
174 1.7
188 7.3
189 10.5
190 2.1
191 1.6
202 5.7
203 3
204 9.9
205 1.6
216 2.7
217 1.1
231 16.5
232 13.6
233 2.1
248 2.4
249 1.8
263 4.2

$$$$

     RDKit          2D

 26 28  0  0  0  0  0  0  0  0999 V2000
   -0.8515    4.7421    0.0000 C   0  0  0  0  0  0  0  0  0  0  0  0
    6.7741   -0.8149    0.0000 C   0  0  0  0  0  0  0  0  0  0  0  0
   -6.7177   -3.2642    0.0000 C   0  0  0  0  0  0  0  0  0  0  0  0
   -5.4170   -4.0129    0.0000 C   0  0  0  0  0  0  0  0  0  0  0  0
   -6.7206   -1.7633    0.0000 C   0  0  0  0  0  0  0  0  0  0  0  0
    1.8987   -4.4526    0.0000 C   0  0  0  0  0  0  0  0  0  0  0  0
   -4.1192   -3.2608    0.0000 C   0  0  0  0  0  0  0  0  0  0  0  0
   -5.4228   -1.0112    0.0000 C   0  0  0  0  0  0  0  0  0  0  0  0
    0.8955   -3.3375    0.0000 C   0  0  0  0  0  0  0  0  0  0  0  0
    3.2694   -3.8382    0.0000 C   0  0  0  0  0  0  0  0  0  0  0  0
    1.0347   -0.6610    0.0000 C   0  0  0  0  0  0  0  0  0  0  0  0
   -4.1220   -1.7600    0.0000 C   0  0  0  0  0  0  0  0  0  0  0  0
    1.6442   -2.0316    0.0000 C   0  0  0  0  0  0  0  0  0  0  0  0
   -0.4570   -0.5036    0.0000 C   0  0  0  0  0  0  0  0  0  0  0  0
   -1.2033    0.7891    0.0000 C   0  0  0  0  0  0  0  0  0  0  0  0
   -1.4617   -1.6174    0.0000 C   0  0  0  0  0  0  0  0  0  0  0  0
   -0.5886    2.1573    0.0000 C   0  0  0  0  0  0  0  0  0  0  0  0
    4.2315   -1.3490    0.0000 C   0  0  0  0  0  0  0  0  0  0  0  0
   -2.6746    0.4867    0.0000 N   0  0  0  0  0  0  0  0  0  0  0  0
    3.1144   -2.3501    0.0000 N   0  0  0  0  0  0  0  0  0  0  0  0
   -2.8242   -1.0079    0.0000 N   0  0  0  0  0  0  0  0  0  0  0  0
   -1.1518   -3.0851    0.0000 O   0  0  0  0  0  0  0  0  0  0  0  0
    0.9037    2.3091    0.0000 O   0  0  0  0  0  0  0  0  0  0  0  0
    3.9231    0.1190    0.0000 O   0  0  0  0  0  0  0  0  0  0  0  0
   -1.4662    3.3738    0.0000 O   0  0  0  0  0  0  0  0  0  0  0  0
    5.6570   -1.8159    0.0000 O   0  0  0  0  0  0  0  0  0  0  0  0
  4  3  2  0
  5  3  1  0
  7  4  1  0
  8  5  2  0
  9  6  1  0
 10  6  2  0
 12  7  2  0
 12  8  1  0
 13  9  2  0
 13 11  1  0
 11 14  2  0
 15 14  1  0
 16 14  1  0
 17 15  1  0
 19 15  2  0
 20 10  1  0
 20 13  1  0
 20 18  1  0
 21 12  1  0
 21 16  1  0
 21 19  1  0
 22 16  2  0
 23 17  2  0
 24 18  2  0
 25  1  1  0
 25 17  1  0
 26  2  1  0
 26 18  1  0
M  END
>  <NAME>  (249) 
4H,5H-3-METHOXYCARBONYL-4-(1-METHOXYCARBONYLPYRROL-2-YL)METHYLENE-1-PHENYLPYRAZOL-5-ONE

>  <SYNONYMS>  (249) 


>  <SPECTRUM TYPE>  (249) 
MS1

>  <INSTRUMENT TYPE>  (249) 
EI-B

>  <INSTRUMENT>  (249) 
Unknown

>  <ION MODE>  (249) 
P

>  <INCHIKEY>  (249) 
MNBLTQPCVDADPL-KAMYIIQDSA-N

>  <FORMULA>  (249) 
C18H15N3O5

>  <EXACT MASS>  (249) 
353.10117058000003

>  <MW>  (249) 
353

>  <ID>  (249) 
JP011842

>  <CONTRIBUTOR>  (249) 
University of Tokyo Team, {Faculty of Engineering, University of Tokyo

>  <COMMENT>  (249) 
computed SMILES=O=C(OC)C1=NN(C(=O)C1=CC2=CC=CN2C(=O)OC)C=3C=CC=CC3
SMILES=COC(=O)n(c3)c(cc3)C=c(c(=O)1)c(C(=O)OC)nn(c(c2)cccc2)1
InChI=InChI=1S/C18H15N3O5/c1-25-17(23)15-14(11-13-9-6-10-20(13)18(24)26-2)16(22)21(19-15)12-7-4-3-5-8-12/h3-11H,1-2H3/b14-11-
accession=JP011842
date=2016.01.19 (Created 2008.10.21, modified 2011.05.06)
author=YOSHIKI O, FAC, TECHNOLOGY, OSAKA UNIV.
license=CC BY-NC-SA
exact mass=353.10117
ionization energy=70 eV
ion type=[M]+*
computed spectral entropy=3.900926547518292
computed normalized entropy=0.823640856696081
SPLASH=splash10-0ufu-9443000000-cefe5b5b5d4b4d1b2581
submitter=submitter = University of Tokyo Team (Faculty of Engineering, University of Tokyo)
MoNA Rating=3.75

>  <NUM PEAKS>  (249) 
114

>  <MASS SPECTRAL PEAKS>  (249) 
50 5.5
51 31
52 5.7
53 3.2
54 1.2
55 1.4
57 1
59 40.7
60 1.5
61 1.3
62 4.4
63 11
64 16.2
65 8.1
66 2.1
67 1.5
74 2
75 4.7
76 7
77 99.99
78 10.7
79 2.4
80 1.8
88 1.7
89 6.5
90 7.1
91 35.6
92 4.5
93 2.2
94 3.4
102 9.8
103 11.9
104 8.3
105 10.2
106 3.2
107 2
115 1.2
116 4.1
117 5.4
118 9.2
119 4.1
128 1
129 1.8
130 7.3
131 6.5
132 3.9
133 1.9
144 4.6
145 2.5
146 3
149 1.3
151 3.9
152 3
153 1
157 1
158 3
159 3.1
160 1.3
162 1.4
167 1
168 1.2
176 1.8
177 1
178 2.7
179 2.9
180 1.3
181 2.2
188 3
189 2.8
190 1.5
192 4.7
193 2
194 1.3
195 1.4
205 1.3
206 6.6
207 4.9
208 1.9
218 1.1
220 5
221 2.4
222 2.2
227 4.1
233 1
234 6
235 4.5
236 1.5
248 2.1
249 1.8
250 2.7
251 1.2
262 10.7
263 10.8
264 2.8
265 2.7
266 5.7
267 2.5
278 3.8
279 7.1
280 2.7
292 5
293 27.3
294 33.3
295 9
296 1.9
306 1.1
322 2.6
324 1.1
325 2.7
338 3
352 2.2
353 85.5
354 17.2
355 3.1

$$$$

     RDKit          2D

 26 28  0  0  0  0  0  0  0  0999 V2000
   -0.0000   -2.7800    0.0000 C   0  0  0  0  0  0  0  0  0  0  0  0
    1.9049    4.8269    0.0000 C   0  0  0  0  0  0  0  0  0  0  0  0
   -4.0061    3.2988    0.0000 C   0  0  0  0  0  0  0  0  0  0  0  0
    5.4932   -1.7699    0.0000 C   0  0  0  0  0  0  0  0  0  0  0  0
   -5.4932   -1.7699    0.0000 C   0  0  0  0  0  0  0  0  0  0  0  0
    5.1780   -0.3026    0.0000 C   0  0  0  0  0  0  0  0  0  0  0  0
    4.3807   -2.7773    0.0000 C   0  0  0  0  0  0  0  0  0  0  0  0
   -4.3807   -2.7773    0.0000 C   0  0  0  0  0  0  0  0  0  0  0  0
   -5.1780   -0.3026    0.0000 C   0  0  0  0  0  0  0  0  0  0  0  0
    3.7502    0.1574    0.0000 C   0  0  0  0  0  0  0  0  0  0  0  0
    2.9530   -2.3173    0.0000 C   0  0  0  0  0  0  0  0  0  0  0  0
   -2.9530   -2.3173    0.0000 C   0  0  0  0  0  0  0  0  0  0  0  0
   -3.7502    0.1574    0.0000 C   0  0  0  0  0  0  0  0  0  0  0  0
    2.6377   -0.8500    0.0000 C   0  0  0  0  0  0  0  0  0  0  0  0
   -2.6377   -0.8500    0.0000 C   0  0  0  0  0  0  0  0  0  0  0  0
    0.7500    1.0300    0.0000 C   0  0  0  0  0  0  0  0  0  0  0  0
   -0.7500    1.0300    0.0000 C   0  0  0  0  0  0  0  0  0  0  0  0
    1.2100   -0.3900    0.0000 C   0  0  0  0  0  0  0  0  0  0  0  0
   -1.2100   -0.3900    0.0000 C   0  0  0  0  0  0  0  0  0  0  0  0
    1.6322    2.2431    0.0000 C   0  0  0  0  0  0  0  0  0  0  0  0
   -1.6322    2.2431    0.0000 C   0  0  0  0  0  0  0  0  0  0  0  0
    0.0000   -1.2800    0.0000 N   0  0  0  0  0  0  0  0  0  0  0  0
    3.1239    2.0857    0.0000 O   0  0  0  0  0  0  0  0  0  0  0  0
   -1.0227    3.6137    0.0000 O   0  0  0  0  0  0  0  0  0  0  0  0
    1.0227    3.6137    0.0000 O   0  0  0  0  0  0  0  0  0  0  0  0
   -3.1239    2.0857    0.0000 O   0  0  0  0  0  0  0  0  0  0  0  0
  6  4  2  0
  7  4  1  0
  8  5  2  0
  9  5  1  0
 10  6  1  0
 11  7  2  0
 12  8  1  0
 13  9  2  0
 14 10  2  0
 14 11  1  0
 15 12  2  0
 15 13  1  0
 17 16  2  0
 18 14  1  0
 18 16  1  0
 19 15  1  0
 19 17  1  0
 20 16  1  0
 21 17  1  0
 22  1  1  0
 22 18  1  0
 22 19  1  0
 23 20  2  0
 24 21  2  0
 25  2  1  0
 25 20  1  0
 26  3  1  0
 26 21  1  0
M  END
>  <NAME>  (250) 
3,4-BIS(METHOXYCARBONYL)-1-METHYL-2,5-DIPHENYL-3-PYRROLINE

>  <SYNONYMS>  (250) 


>  <SPECTRUM TYPE>  (250) 
MS1

>  <INSTRUMENT TYPE>  (250) 
EI-B

>  <INSTRUMENT>  (250) 
Unknown

>  <ION MODE>  (250) 
P

>  <INCHIKEY>  (250) 
FGXNOZQWNCQTGN-UHFFFAOYSA-N

>  <FORMULA>  (250) 
C21H21NO4

>  <EXACT MASS>  (250) 
351.147058152

>  <MW>  (250) 
351

>  <ID>  (250) 
JP011841

>  <CONTRIBUTOR>  (250) 
University of Tokyo Team, {Faculty of Engineering, University of Tokyo

>  <COMMENT>  (250) 
SMILES=COC(=O)C(C(c(c3)cccc3)1)=C(C(=O)OC)C(c(c2)cccc2)N(C)1
InChI=InChI=1S/C21H21NO4/c1-22-18(14-10-6-4-7-11-14)16(20(23)25-2)17(21(24)26-3)19(22)15-12-8-5-9-13-15/h4-13,18-19H,1-3H3
computed SMILES=O=C(OC)C1=C(C(=O)OC)C(C=2C=CC=CC2)N(C)C1C=3C=CC=CC3
accession=JP011841
ion type=[M]+*
date=2016.01.19 (Created 2008.10.21, modified 2011.05.06)
author=YOSHIKI O, FAC, TECHNOLOGY, OSAKA UNIV.
license=CC BY-NC-SA
exact mass=351.14706
ionization energy=70 eV
computed spectral entropy=4.258480219701857
computed normalized entropy=0.8443627338524122
SPLASH=splash10-0006-2492000000-0fe957752605c4c17d1d
submitter=submitter = University of Tokyo Team (Faculty of Engineering, University of Tokyo)
MoNA Rating=3.75

>  <NUM PEAKS>  (250) 
155

>  <MASS SPECTRAL PEAKS>  (250) 
50 2.5
51 10.5
52 2.1
53 1.8
55 1.6
56 1.2
57 2.2
59 17.3
62 1.1
63 4.7
64 1.3
65 7.6
66 1
70 1.1
71 1.4
73 2.5
74 1.3
75 3
76 4
77 23.4
78 4.4
87 1.3
88 2.9
89 6.1
90 2.6
91 57.3
92 4.7
94 1.4
95 1.2
100 1
101 3.6
102 7.1
103 4.7
104 3.1
105 5.7
106 1.1
108 1.5
109 1.6
113 4
114 8.7
115 19.6
116 5.7
117 2.6
118 24.6
119 2.6
120 2.4
121 3
126 1.3
127 6.3
128 7.3
129 7
130 4.1
131 2.2
136 1.6
140 2
141 1.5
142 3.3
143 3.2
144 2.8
145 1.5
149 4.5
150 1
152 1
154 3.1
155 3.2
156 3.8
157 4.1
158 3.9
159 2.3
160 1.8
165 1.8
166 2.4
167 2.1
168 1.8
169 1.5
170 12.4
171 11.2
172 1.9
173 1.7
176 1.2
177 1.1
179 1.7
180 1.5
182 1.3
183 1.5
184 36.8
185 32.4
186 5
189 3.5
190 2.2
191 6.4
192 5.3
194 1
198 21
199 18.6
200 3
201 1.7
202 6.8
203 6.2
204 3.3
205 2.3
208 1.3
212 5.1
213 4.3
214 1.9
215 18.4
216 4.8
217 5.1
218 2.5
219 2.4
228 1.4
230 15.2
231 5.6
232 8.8
233 17.6
234 15.2
235 3.8
242 99.99
243 18
244 14.7
245 1.7
246 2.3
247 1.5
248 1.2
258 2
259 1.3
260 40.5
261 34.7
262 18.3
263 15
264 2.9
273 7.1
274 87.4
275 77.6
276 3.4
277 3
288 4.7
289 4.5
290 1.3
291 3.5
292 48.9
293 42.6
294 10.7
316 1.3
318 29.2
319 24.9
320 17.8
321 3.6
322 1.7
323 1.6
349 16.7
350 19.2
351 15
352 17.8
353 4.6

$$$$

     RDKit          2D

 26 28  0  0  0  0  0  0  0  0999 V2000
   -2.4441   -5.4695    0.0000 C   0  0  0  0  0  0  0  0  0  0  0  0
   -4.3490   -2.1701    0.0000 C   0  0  0  0  0  0  0  0  0  0  0  0
    7.0883   -2.2664    0.0000 C   0  0  0  0  0  0  0  0  0  0  0  0
   -0.4302    4.2358    0.0000 C   0  0  0  0  0  0  0  0  0  0  0  0
    7.0888   -0.7656    0.0000 C   0  0  0  0  0  0  0  0  0  0  0  0
    5.7888   -3.0172    0.0000 C   0  0  0  0  0  0  0  0  0  0  0  0
   -1.5433    3.2291    0.0000 C   0  0  0  0  0  0  0  0  0  0  0  0
    0.9985    3.7760    0.0000 C   0  0  0  0  0  0  0  0  0  0  0  0
    5.7897   -0.0156    0.0000 C   0  0  0  0  0  0  0  0  0  0  0  0
    4.4897   -2.2672    0.0000 C   0  0  0  0  0  0  0  0  0  0  0  0
   -1.2278    1.7627    0.0000 C   0  0  0  0  0  0  0  0  0  0  0  0
    1.3140    2.3096    0.0000 C   0  0  0  0  0  0  0  0  0  0  0  0
    3.1912   -0.0164    0.0000 C   0  0  0  0  0  0  0  0  0  0  0  0
    1.7264   -2.2593    0.0000 C   0  0  0  0  0  0  0  0  0  0  0  0
    4.4902   -0.7664    0.0000 C   0  0  0  0  0  0  0  0  0  0  0  0
    0.2009    1.3029    0.0000 C   0  0  0  0  0  0  0  0  0  0  0  0
    0.2666   -2.5709    0.0000 C   0  0  0  0  0  0  0  0  0  0  0  0
   -0.4834   -1.2719    0.0000 C   0  0  0  0  0  0  0  0  0  0  0  0
    0.5164   -0.1635    0.0000 C   0  0  0  0  0  0  0  0  0  0  0  0
   -0.3429   -3.9415    0.0000 C   0  0  0  0  0  0  0  0  0  0  0  0
   -1.9751   -1.1144    0.0000 C   0  0  0  0  0  0  0  0  0  0  0  0
    1.8921   -0.7664    0.0000 N   0  0  0  0  0  0  0  0  0  0  0  0
    0.5393   -5.1546    0.0000 O   0  0  0  0  0  0  0  0  0  0  0  0
   -2.5846    0.2562    0.0000 O   0  0  0  0  0  0  0  0  0  0  0  0
   -1.8346   -4.0990    0.0000 O   0  0  0  0  0  0  0  0  0  0  0  0
   -2.8573   -2.3276    0.0000 O   0  0  0  0  0  0  0  0  0  0  0  0
  5  3  2  0
  6  3  1  0
  7  4  2  0
  8  4  1  0
  9  5  1  0
 10  6  2  0
 11  7  1  0
 12  8  2  0
 15  9  2  0
 15 10  1  0
 15 13  1  0
 16 11  2  0
 16 12  1  0
 17 14  1  0
 18 17  2  0
 19 16  1  0
 19 18  1  0
 20 17  1  0
 21 18  1  0
 22 13  1  0
 22 14  1  0
 22 19  1  0
 23 20  2  0
 24 21  2  0
 25  1  1  0
 25 20  1  0
 26  2  1  0
 26 21  1  0
M  END
>  <NAME>  (251) 
1-BENZYL-3,4-BIS(METHOXYCARBONYL)-2-PHENYL-3-PYRROLINE

>  <SYNONYMS>  (251) 


>  <SPECTRUM TYPE>  (251) 
MS1

>  <INSTRUMENT TYPE>  (251) 
EI-B

>  <INSTRUMENT>  (251) 
Unknown

>  <ION MODE>  (251) 
P

>  <INCHIKEY>  (251) 
ZOQZAHIJVNSYFS-UHFFFAOYSA-N

>  <FORMULA>  (251) 
C21H21NO4

>  <EXACT MASS>  (251) 
351.14705815200006

>  <MW>  (251) 
351

>  <ID>  (251) 
JP011840

>  <CONTRIBUTOR>  (251) 
University of Tokyo Team, {Faculty of Engineering, University of Tokyo

>  <COMMENT>  (251) 
SMILES=COC(=O)C(C1)=C(C(=O)OC)C(c(c3)cccc3)N(Cc(c2)cccc2)1
InChI=InChI=1S/C21H21NO4/c1-25-20(23)17-14-22(13-15-9-5-3-6-10-15)19(18(17)21(24)26-2)16-11-7-4-8-12-16/h3-12,19H,13-14H2,1-2H3
computed SMILES=O=C(OC)C1=C(C(=O)OC)C(C=2C=CC=CC2)N(CC=3C=CC=CC3)C1
accession=JP011840
date=2016.01.19 (Created 2008.10.21, modified 2011.05.06)
author=YOSHIKI O, FAC, TECHNOLOGY, OSAKA UNIV.
license=CC BY-NC-SA
exact mass=351.14706
ionization energy=70 eV
ion type=[M]+*
computed spectral entropy=2.505867966042221
computed normalized entropy=0.6992757702912619
SPLASH=splash10-0006-9033000000-6a182ce34cd8d7eb482a
submitter=submitter = University of Tokyo Team (Faculty of Engineering, University of Tokyo)
MoNA Rating=3.75

>  <NUM PEAKS>  (251) 
36

>  <MASS SPECTRAL PEAKS>  (251) 
51 1.9
53 1.1
59 1.9
63 1.7
65 9.7
77 2.1
89 1.9
91 99.99
92 8.5
105 1
114 1
115 2
128 1.1
196 1.1
197 1
228 1.4
229 1.4
231 2
242 2.5
243 2.4
260 5.1
261 5.4
262 1.1
274 3.3
292 8.4
293 8.9
294 2.2
317 1
318 7.3
319 8
320 2.2
321 1.2
349 14
350 14.4
351 4
352 2.1

$$$$

     RDKit          2D

 19 20  0  0  0  0  0  0  0  0999 V2000
   -4.7099   -0.8075    0.0000 C   0  0  0  0  0  0  0  0  0  0  0  0
   -0.3505    3.4763    0.0000 C   0  0  0  0  0  0  0  0  0  0  0  0
    6.0600   -0.4684    0.0000 C   0  0  0  0  0  0  0  0  0  0  0  0
    5.0575    0.6484    0.0000 C   0  0  0  0  0  0  0  0  0  0  0  0
    5.5949   -1.8954    0.0000 C   0  0  0  0  0  0  0  0  0  0  0  0
    3.5898    0.3384    0.0000 C   0  0  0  0  0  0  0  0  0  0  0  0
    4.1273   -2.2055    0.0000 C   0  0  0  0  0  0  0  0  0  0  0  0
   -0.4386   -2.6086    0.0000 C   0  0  0  0  0  0  0  0  0  0  0  0
    3.1248   -1.0886    0.0000 C   0  0  0  0  0  0  0  0  0  0  0  0
   -0.7552   -1.1402    0.0000 C   0  0  0  0  0  0  0  0  0  0  0  0
    0.5438   -0.3902    0.0000 C   0  0  0  0  0  0  0  0  0  0  0  0
    1.6572   -1.3986    0.0000 C   0  0  0  0  0  0  0  0  0  0  0  0
   -2.1265   -0.5321    0.0000 C   0  0  0  0  0  0  0  0  0  0  0  0
    0.7028    1.1013    0.0000 C   0  0  0  0  0  0  0  0  0  0  0  0
    1.0493   -2.7657    0.0000 N   0  0  0  0  0  0  0  0  0  0  0  0
   -2.2854    0.9594    0.0000 O   0  0  0  0  0  0  0  0  0  0  0  0
    2.0740    1.7094    0.0000 O   0  0  0  0  0  0  0  0  0  0  0  0
   -3.3387   -1.4156    0.0000 O   0  0  0  0  0  0  0  0  0  0  0  0
   -0.5095    1.9848    0.0000 O   0  0  0  0  0  0  0  0  0  0  0  0
  4  3  2  0
  5  3  1  0
  6  4  1  0
  7  5  2  0
  9  6  2  0
  9  7  1  0
 10  8  2  0
 11 10  1  0
 12  9  1  0
 12 11  2  0
 13 10  1  0
 14 11  1  0
 15  8  1  0
 15 12  1  0
 16 13  2  0
 17 14  2  0
 18  1  1  0
 18 13  1  0
 19  2  1  0
 19 14  1  0
M  END
>  <NAME>  (252) 
3,4-BIS(METHOXYCARBONYL)-2-PHENYLPYRROLE

>  <SYNONYMS>  (252) 


>  <SPECTRUM TYPE>  (252) 
MS1

>  <INSTRUMENT TYPE>  (252) 
EI-B

>  <INSTRUMENT>  (252) 
Unknown

>  <ION MODE>  (252) 
P

>  <INCHIKEY>  (252) 
JHOYJHRSOQLJIX-UHFFFAOYSA-N

>  <FORMULA>  (252) 
C14H13NO4

>  <EXACT MASS>  (252) 
259.084457896

>  <MW>  (252) 
259

>  <ID>  (252) 
JP011839

>  <CONTRIBUTOR>  (252) 
University of Tokyo Team, {Faculty of Engineering, University of Tokyo

>  <COMMENT>  (252) 
SMILES=COC(=O)C1=CNC(=C1C(=O)OC)C2=CC=CC=C2
InChI=InChI=1S/C14H13NO4/c1-18-13(16)10-8-15-12(11(10)14(17)19-2)9-6-4-3-5-7-9/h3-8,15H,1-2H3
computed SMILES=O=C(OC)C1=CNC(C=2C=CC=CC2)=C1C(=O)OC
accession=JP011839
date=2016.01.19 (Created 2008.10.21, modified 2011.05.06)
author=YOSHIKI O, FAC, TECHNOLOGY, OSAKA UNIV.
license=CC BY-NC-SA
exact mass=259.08446
ionization energy=70 eV
ion type=[M]+*
computed spectral entropy=2.642216502457843
computed normalized entropy=0.7556730411730221
SPLASH=splash10-056r-1490000000-12420289f4a65856d561
submitter=submitter = University of Tokyo Team (Faculty of Engineering, University of Tokyo)
MoNA Rating=3.75

>  <NUM PEAKS>  (252) 
33

>  <MASS SPECTRAL PEAKS>  (252) 
51 3.7
53 2.2
59 2.6
63 3.8
70 4.7
71 4.8
77 5.4
85 2.4
88 2.3
98 4.5
99 4.2
104 4
105 2.2
106 2.2
113 5.5
114 9.2
115 9.9
129 3.2
140 4.7
141 3.9
142 2.8
168 2.9
169 7.7
170 5.2
196 14.8
197 2.6
198 19.5
199 2.9
212 3
228 99.99
229 15
259 71.2
260 11.7

$$$$

     RDKit          2D

 14 14  0  0  0  0  0  0  0  0999 V2000
    3.3974   -3.6638    0.0000 C   0  0  0  0  0  0  0  0  0  0  0  0
   -1.7991   -0.6636    0.0000 C   0  0  0  0  0  0  0  0  0  0  0  0
   -1.0489    0.6354    0.0000 H   0  0  0  0  0  0  0  0  0  0  0  0
   -3.0980    0.0867    0.0000 H   0  0  0  0  0  0  0  0  0  0  0  0
   -2.5493   -1.9625    0.0000 H   0  0  0  0  0  0  0  0  0  0  0  0
    3.3980    0.8377    0.0000 C   0  0  0  0  0  0  0  0  0  0  0  0
    2.0990    1.5877    0.0000 C   0  0  0  0  0  0  0  0  0  0  0  0
    3.3976   -0.6631    0.0000 C   0  0  0  0  0  0  0  0  0  0  0  0
    0.7995    0.8369    0.0000 C   0  0  0  0  0  0  0  0  0  0  0  0
    2.0983   -2.9140    0.0000 C   0  0  0  0  0  0  0  0  0  0  0  0
    2.0980   -1.4140    0.0000 C   0  0  0  0  0  0  0  0  0  0  0  0
    0.7990   -0.6640    0.0000 C   0  0  0  0  0  0  0  0  0  0  0  0
    0.7994   -3.6642    0.0000 O   0  0  0  0  0  0  0  0  0  0  0  0
   -0.5002   -1.4138    0.0000 O   0  0  0  0  0  0  0  0  0  0  0  0
  2  3  1  0
  2  4  1  0
  2  5  1  0
  7  6  2  0
  8  6  1  0
  9  7  1  0
 10  1  1  0
 11  8  2  0
 11 10  1  0
 12  9  2  0
 12 11  1  0
 13 10  2  0
 14  2  1  0
 14 12  1  0
M  ISO  3   3   2   4   2   5   2
M  END
>  <NAME>  (253) 
2-METHOXYACETOPHENONE (D3)

>  <SYNONYMS>  (253) 


>  <SPECTRUM TYPE>  (253) 
MS1

>  <INSTRUMENT TYPE>  (253) 
EI-B

>  <INSTRUMENT>  (253) 
HITACHI M-80A

>  <ION MODE>  (253) 
P

>  <INCHIKEY>  (253) 
DWPLEOPKBWNPQV-BMSJAHLVSA-N

>  <FORMULA>  (253) 
C9H10O2

>  <EXACT MASS>  (253) 
153.086909798

>  <MW>  (253) 
153

>  <ID>  (253) 
JP011805

>  <CONTRIBUTOR>  (253) 
University of Tokyo Team, {Faculty of Engineering, University of Tokyo

>  <COMMENT>  (253) 
SMILES=[2H]C([2H])([2H])Oc(c1)c(ccc1)C(C)=O
InChI=InChI=1S/C9H10O2/c1-7(10)8-5-3-4-6-9(8)11-2/h3-6H,1-2H3/i2D3
computed SMILES=[H]C([H])([H])OC=1C=CC=CC1C(=O)C
accession=JP011805
date=2016.01.19 (Created 2008.10.21, modified 2011.05.06)
author=TAJIMA S, GUNMA COLLEGE OF TECHNOLOGY
license=CC BY-NC-SA
exact mass=150.06808
ionization energy=70 eV
ion type=[M]+*
computed spectral entropy=2.585560538942094
computed normalized entropy=0.746035073489991
SPLASH=splash10-0f79-4900000000-59d6a384245d2a17b94f
submitter=submitter = University of Tokyo Team (Faculty of Engineering, University of Tokyo)
MoNA Rating=3.75

>  <NUM PEAKS>  (253) 
32

>  <MASS SPECTRAL PEAKS>  (253) 
15 2.83
18 3.26
38 2.3
39 4.55
43 15.62
50 2.87
51 3.91
52 3.01
53 1.45
62 1.7
63 10.24
64 5.43
65 2.17
76 1.17
77 2.39
78 19.53
79 3.24
82 2.79
92 20.57
93 1.77
106 2.47
108 3.97
120 2.47
135 1.12
136 3.78
137 1.31
138 99.99
139 8.82
153 41.3
154 22.77
155 13.67
156 1.33

$$$$

     RDKit          2D

 14 14  0  0  0  0  0  0  0  0999 V2000
    4.7781    0.5117    0.0000 C   0  0  0  0  0  0  0  0  0  0  0  0
   -3.0166    0.5069    0.0000 C   0  0  0  0  0  0  0  0  0  0  0  0
   -3.7688    1.8047    0.0000 H   0  0  0  0  0  0  0  0  0  0  0  0
   -4.3144   -0.2453    0.0000 H   0  0  0  0  0  0  0  0  0  0  0  0
   -2.2644   -0.7909    0.0000 H   0  0  0  0  0  0  0  0  0  0  0  0
    0.8850   -1.7309    0.0000 C   0  0  0  0  0  0  0  0  0  0  0  0
    2.1796   -0.9888    0.0000 C   0  0  0  0  0  0  0  0  0  0  0  0
   -0.4140   -0.9809    0.0000 C   0  0  0  0  0  0  0  0  0  0  0  0
    0.8810    1.2621    0.0000 C   0  0  0  0  0  0  0  0  0  0  0  0
    3.4792    1.2619    0.0000 C   0  0  0  0  0  0  0  0  0  0  0  0
    2.1800    0.5121    0.0000 C   0  0  0  0  0  0  0  0  0  0  0  0
   -0.4185    0.5112    0.0000 C   0  0  0  0  0  0  0  0  0  0  0  0
    3.4794    2.7619    0.0000 O   0  0  0  0  0  0  0  0  0  0  0  0
   -1.7188    1.2591    0.0000 O   0  0  0  0  0  0  0  0  0  0  0  0
  2  3  1  0
  2  4  1  0
  2  5  1  0
  7  6  2  0
  8  6  1  0
 10  1  1  0
 11  7  1  0
 11  9  2  0
 11 10  1  0
 12  8  2  0
 12  9  1  0
 13 10  2  0
 14  2  1  0
 14 12  1  0
M  ISO  3   3   2   4   2   5   2
M  END
>  <NAME>  (254) 
3-METHOXYACETOPHENONE (D3)

>  <SYNONYMS>  (254) 


>  <SPECTRUM TYPE>  (254) 
MS1

>  <INSTRUMENT TYPE>  (254) 
EI-B

>  <INSTRUMENT>  (254) 
HITACHI M-80A

>  <ION MODE>  (254) 
P

>  <INCHIKEY>  (254) 
BAYUSCHCCGXLAY-BMSJAHLVSA-N

>  <FORMULA>  (254) 
C9H10O2

>  <EXACT MASS>  (254) 
153.086909798

>  <MW>  (254) 
153

>  <ID>  (254) 
JP011804

>  <CONTRIBUTOR>  (254) 
University of Tokyo Team, {Faculty of Engineering, University of Tokyo

>  <COMMENT>  (254) 
SMILES=[2H]C([2H])([2H])Oc(c1)cc(cc1)C(C)=O
InChI=InChI=1S/C9H10O2/c1-7(10)8-4-3-5-9(6-8)11-2/h3-6H,1-2H3/i2D3
computed SMILES=[H]C([H])([H])OC1=CC=CC(=C1)C(=O)C
accession=JP011804
date=2016.01.19 (Created 2008.10.21, modified 2011.05.06)
author=TAJIMA S, GUNMA COLLEGE OF TECHNOLOGY
license=CC BY-NC-SA
exact mass=150.06808
ionization energy=70 eV
ion type=[M]+*
computed spectral entropy=3.0840741647423244
computed normalized entropy=0.8055270382779786
SPLASH=splash10-0ikl-9500000000-918b553e199588d65e59
submitter=submitter = University of Tokyo Team (Faculty of Engineering, University of Tokyo)
MoNA Rating=3.75

>  <NUM PEAKS>  (254) 
46

>  <MASS SPECTRAL PEAKS>  (254) 
15 5.93
18 9.46
26 1.15
27 1.82
29 1.86
30 2.76
37 2.79
38 11.18
39 9.98
40 1.38
42 5.7
43 46.01
44 1.22
49 1.29
50 13.43
51 10.84
52 6.16
53 2.93
61 3.31
62 9.96
63 37.56
64 33.43
65 7.43
66 1.63
73 1.3
74 6.88
75 4.35
76 5.75
77 7.19
78 40.22
79 11.5
80 5.76
81 1.28
82 3.37
89 1.29
91 1.47
92 48.71
93 4.67
110 46.04
111 4.43
120 1.74
124 1.43
138 99.99
139 9.56
153 45.64
154 4.35

$$$$

     RDKit          2D

 14 14  0  0  0  0  0  0  0  0999 V2000
    2.6101    2.9936    0.0000 C   0  0  0  0  0  0  0  0  0  0  0  0
   -3.9180   -0.7714    0.0000 C   0  0  0  0  0  0  0  0  0  0  0  0
   -3.1787    0.5337    0.0000 H   0  0  0  0  0  0  0  0  0  0  0  0
   -5.2232   -0.0322    0.0000 H   0  0  0  0  0  0  0  0  0  0  0  0
   -4.6572   -2.0766    0.0000 H   0  0  0  0  0  0  0  0  0  0  0  0
    1.3000   -0.7500    0.0000 C   0  0  0  0  0  0  0  0  0  0  0  0
    0.0300    1.5000    0.0000 C   0  0  0  0  0  0  0  0  0  0  0  0
    0.0300   -1.5000    0.0000 C   0  0  0  0  0  0  0  0  0  0  0  0
   -1.3200    0.7500    0.0000 C   0  0  0  0  0  0  0  0  0  0  0  0
    2.6027    1.4936    0.0000 C   0  0  0  0  0  0  0  0  0  0  0  0
    1.3000    0.7500    0.0000 C   0  0  0  0  0  0  0  0  0  0  0  0
   -1.3200   -0.7500    0.0000 C   0  0  0  0  0  0  0  0  0  0  0  0
    3.8980    0.7372    0.0000 O   0  0  0  0  0  0  0  0  0  0  0  0
   -2.6128   -1.5107    0.0000 O   0  0  0  0  0  0  0  0  0  0  0  0
  2  3  1  0
  2  4  1  0
  2  5  1  0
  8  6  2  0
  9  7  1  0
 10  1  1  0
 11  6  1  0
 11  7  2  0
 11 10  1  0
 12  8  1  0
 12  9  2  0
 13 10  2  0
 14  2  1  0
 14 12  1  0
M  ISO  3   3   2   4   2   5   2
M  END
>  <NAME>  (255) 
4-METHOXYACETOPHENONE (D3)

>  <SYNONYMS>  (255) 


>  <SPECTRUM TYPE>  (255) 
MS1

>  <INSTRUMENT TYPE>  (255) 
EI-B

>  <INSTRUMENT>  (255) 
HITACHI M-80A

>  <ION MODE>  (255) 
P

>  <INCHIKEY>  (255) 
NTPLXRHDUXRPNE-BMSJAHLVSA-N

>  <FORMULA>  (255) 
C9H10O2

>  <EXACT MASS>  (255) 
153.086909798

>  <MW>  (255) 
153

>  <ID>  (255) 
JP011803

>  <CONTRIBUTOR>  (255) 
University of Tokyo Team, {Faculty of Engineering, University of Tokyo

>  <COMMENT>  (255) 
SMILES=[2H]C([2H])([2H])Oc(c1)ccc(c1)C(C)=O
InChI=InChI=1S/C9H10O2/c1-7(10)8-3-5-9(11-2)6-4-8/h3-6H,1-2H3/i2D3
computed SMILES=[H]C([H])([H])OC1=CC=C(C=C1)C(=O)C
accession=JP011803
date=2016.01.19 (Created 2008.10.21, modified 2011.05.06)
author=TAJIMA S, GUNMA COLLEGE OF TECHNOLOGY
license=CC BY-NC-SA
exact mass=150.06808
ionization energy=70 eV
ion type=[M]+*
computed spectral entropy=2.681668723485573
computed normalized entropy=0.7604635727872628
SPLASH=splash10-000i-9800000000-b943a08390f9ab22ada1
submitter=submitter = University of Tokyo Team (Faculty of Engineering, University of Tokyo)
MoNA Rating=3.75

>  <NUM PEAKS>  (255) 
34

>  <MASS SPECTRAL PEAKS>  (255) 
15 2.68
18 3.62
37 1.09
38 4.65
39 4.43
42 1.81
43 15.74
50 5.85
51 5.2
52 2.91
53 1.56
61 1.29
62 4.13
63 14.32
64 15.29
65 2.79
66 1.05
74 2.46
75 1.74
76 2.25
77 4.08
78 25.46
79 6.98
80 3.09
82 1.59
92 25.69
93 2.09
110 10.23
120 1.81
124 1.19
138 99.99
139 9.14
153 33.84
154 3.6

$$$$

     RDKit          2D

 10 11  0  0  0  0  0  0  0  0999 V2000
    4.1000   -0.0000    0.0000 C   0  0  0  0  0  0  0  0  0  0  0  0
   -2.3100    0.7500    0.0000 C   0  0  0  0  0  0  0  0  0  0  0  0
   -2.3100   -0.7500    0.0000 C   0  0  0  0  0  0  0  0  0  0  0  0
   -1.0100    1.5000    0.0000 C   0  0  0  0  0  0  0  0  0  0  0  0
   -1.0100   -1.5000    0.0000 C   0  0  0  0  0  0  0  0  0  0  0  0
    1.7200    1.2100    0.0000 C   0  0  0  0  0  0  0  0  0  0  0  0
    2.6000    0.0000    0.0000 C   0  0  0  0  0  0  0  0  0  0  0  0
    0.2900    0.7500    0.0000 C   0  0  0  0  0  0  0  0  0  0  0  0
    0.2900   -0.7500    0.0000 C   0  0  0  0  0  0  0  0  0  0  0  0
    1.7200   -1.2100    0.0000 O   0  0  0  0  0  0  0  0  0  0  0  0
  3  2  2  0
  4  2  1  0
  5  3  1  0
  7  1  1  0
  7  6  2  0
  8  4  2  0
  8  6  1  0
  9  5  2  0
  9  8  1  0
 10  7  1  0
 10  9  1  0
M  END
>  <NAME>  (256) 
2-METHYLBENZOFURAN

>  <SYNONYMS>  (256) 


>  <SPECTRUM TYPE>  (256) 
MS1

>  <INSTRUMENT TYPE>  (256) 
EI-B

>  <INSTRUMENT>  (256) 
HITACHI M-80A

>  <ION MODE>  (256) 
P

>  <INCHIKEY>  (256) 
GBGPVUAOTCNZPT-UHFFFAOYSA-N

>  <FORMULA>  (256) 
C9H8O

>  <EXACT MASS>  (256) 
132.057514876

>  <MW>  (256) 
132

>  <ID>  (256) 
JP011802

>  <CONTRIBUTOR>  (256) 
University of Tokyo Team, {Faculty of Engineering, University of Tokyo

>  <COMMENT>  (256) 
SMILES=Cc(c1)oc(c2)c(ccc2)1
InChI=InChI=1S/C9H8O/c1-7-6-8-4-2-3-5-9(8)10-7/h2-6H,1H3
computed SMILES=O1C=2C=CC=CC2C=C1C
accession=JP011802
date=2016.01.19 (Created 2008.10.21, modified 2011.05.06)
author=TAJIMA S, GUNMA COLLEGE OF TECHNOLOGY
license=CC BY-NC-SA
exact mass=132.05751
ionization energy=70 eV
ion type=[M]+*
computed spectral entropy=2.546969066388171
computed normalized entropy=0.7284323061266138
SPLASH=splash10-001i-5900000000-83e7a36e777b30e97e68
submitter=submitter = University of Tokyo Team (Faculty of Engineering, University of Tokyo)
MoNA Rating=3.75

>  <NUM PEAKS>  (256) 
33

>  <MASS SPECTRAL PEAKS>  (256) 
15 1.89
26 2.31
27 4.79
37 1.8
38 4.56
39 11.37
43 5.23
49 1.06
50 9.38
51 19.5
52 4.84
53 1.55
61 1.91
62 4.84
63 9.95
64 1.8
65 2.54
66 5.13
74 3.92
75 3.48
76 3.77
77 18.36
78 10.67
87 1.27
89 2.58
102 4.97
103 13.77
104 5.48
105 1.16
130 1.22
131 99.99
132 88.65
133 8.59

$$$$

     RDKit          2D

  9 10  0  0  0  0  0  0  0  0999 V2000
   -2.3100    0.7500    0.0000 C   0  0  0  0  0  0  0  0  0  0  0  0
   -2.3100   -0.7500    0.0000 C   0  0  0  0  0  0  0  0  0  0  0  0
   -1.0100    1.5000    0.0000 C   0  0  0  0  0  0  0  0  0  0  0  0
   -1.0100   -1.5000    0.0000 C   0  0  0  0  0  0  0  0  0  0  0  0
    1.7200    1.2100    0.0000 C   0  0  0  0  0  0  0  0  0  0  0  0
    2.6000    0.0000    0.0000 C   0  0  0  0  0  0  0  0  0  0  0  0
    0.2900    0.7500    0.0000 C   0  0  0  0  0  0  0  0  0  0  0  0
    0.2900   -0.7500    0.0000 C   0  0  0  0  0  0  0  0  0  0  0  0
    1.7200   -1.2100    0.0000 O   0  0  0  0  0  0  0  0  0  0  0  0
  2  1  2  0
  3  1  1  0
  4  2  1  0
  6  5  2  0
  7  3  2  0
  7  5  1  0
  8  4  2  0
  8  7  1  0
  9  6  1  0
  9  8  1  0
M  END
>  <NAME>  (257) 
2,3-BENZOFURAN

>  <SYNONYMS>  (257) 


>  <SPECTRUM TYPE>  (257) 
MS1

>  <INSTRUMENT TYPE>  (257) 
EI-B

>  <INSTRUMENT>  (257) 
HITACHI M-80A

>  <ION MODE>  (257) 
P

>  <INCHIKEY>  (257) 
IANQTJSKSUMEQM-UHFFFAOYSA-N

>  <FORMULA>  (257) 
C8H6O

>  <EXACT MASS>  (257) 
118.041864812

>  <MW>  (257) 
118

>  <ID>  (257) 
JP011801

>  <CONTRIBUTOR>  (257) 
University of Tokyo Team, {Faculty of Engineering, University of Tokyo

>  <COMMENT>  (257) 
SMILES=c(c2)cc(c1)c(c2)oc1
InChI=InChI=1S/C8H6O/c1-2-4-8-7(3-1)5-6-9-8/h1-6H
computed SMILES=O1C=CC=2C=CC=CC12
accession=JP011801
date=2016.01.19 (Created 2008.10.21, modified 2011.05.06)
author=TAJIMA S, GUNMA COLLEGE OF TECHNOLOGY
license=CC BY-NC-SA
exact mass=118.04186
ionization energy=70 eV
ion type=[M]+*
computed spectral entropy=2.3688067712478835
computed normalized entropy=0.7187269478296964
SPLASH=splash10-014i-9500000000-3d2e5f26beb578276710
submitter=submitter = University of Tokyo Team (Faculty of Engineering, University of Tokyo)
MoNA Rating=3.75

>  <NUM PEAKS>  (257) 
27

>  <MASS SPECTRAL PEAKS>  (257) 
26 1.97
27 1.94
29 2.39
37 3.14
38 5.89
39 10.27
40 1.45
43 1.87
45 3.96
49 1.19
50 5.19
51 5.3
59 4.61
61 4.03
62 9.74
63 22.62
64 6.42
74 1.21
85 1.18
86 2.11
87 1.91
88 1.04
89 32.39
90 33.62
91 2.55
118 99.99
119 8.86

$$$$

     RDKit          2D

  9  9  0  0  0  0  0  0  0  0999 V2000
    2.5989   -1.5002    0.0000 C   0  0  0  0  0  0  0  0  0  0  0  0
   -1.3000    0.7500    0.0000 C   0  0  0  0  0  0  0  0  0  0  0  0
    0.0000    1.5000    0.0000 C   0  0  0  0  0  0  0  0  0  0  0  0
   -0.0000   -1.5000    0.0000 C   0  0  0  0  0  0  0  0  0  0  0  0
    1.3000   -0.7500    0.0000 C   0  0  0  0  0  0  0  0  0  0  0  0
   -1.3000   -0.7500    0.0000 C   0  0  0  0  0  0  0  0  0  0  0  0
    1.3000    0.7500    0.0000 C   0  0  0  0  0  0  0  0  0  0  0  0
   -2.5989   -1.5002    0.0000 F   0  0  0  0  0  0  0  0  0  0  0  0
    2.5989    1.5002    0.0000 F   0  0  0  0  0  0  0  0  0  0  0  0
  3  2  2  0
  5  1  1  0
  5  4  1  0
  6  2  1  0
  6  4  2  0
  7  3  1  0
  7  5  2  0
  8  6  1  0
  9  7  1  0
M  END
>  <NAME>  (258) 
2,5-DIFLUOROTOLUENE

>  <SYNONYMS>  (258) 


>  <SPECTRUM TYPE>  (258) 
MS1

>  <INSTRUMENT TYPE>  (258) 
EI-B

>  <INSTRUMENT>  (258) 
HITACHI M-80A

>  <ION MODE>  (258) 
P

>  <INCHIKEY>  (258) 
YSNVKDGEALPJGC-UHFFFAOYSA-N

>  <FORMULA>  (258) 
C7H6F2

>  <EXACT MASS>  (258) 
128.043756632

>  <MW>  (258) 
128

>  <ID>  (258) 
JP011800

>  <CONTRIBUTOR>  (258) 
University of Tokyo Team, {Faculty of Engineering, University of Tokyo

>  <COMMENT>  (258) 
SMILES=Fc(c1)cc(C)c(F)c1
InChI=InChI=1S/C7H6F2/c1-5-4-6(8)2-3-7(5)9/h2-4H,1H3
computed SMILES=FC1=CC=C(F)C(=C1)C
accession=JP011800
date=2016.01.19 (Created 2008.10.21, modified 2011.05.06)
author=TAJIMA S, GUNMA COLLEGE OF TECHNOLOGY
license=CC BY-NC-SA
exact mass=128.04376
ionization energy=70 eV
ion type=[M]+*
computed spectral entropy=2.687934035547239
computed normalized entropy=0.7146479721543841
SPLASH=splash10-004i-4900000000-1100881ce8d2185d8e26
submitter=submitter = University of Tokyo Team (Faculty of Engineering, University of Tokyo)
MoNA Rating=3.75

>  <NUM PEAKS>  (258) 
43

>  <MASS SPECTRAL PEAKS>  (258) 
26 1.21
27 1.48
31 6.21
33 1.26
37 2.03
38 2.97
39 4.55
44 2.42
50 5.73
51 7.46
54 1.71
56 2.32
57 10.81
61 2.98
62 4
63 6.2
64 2.21
68 1.98
69 1.81
70 1.45
74 2.68
75 6.47
76 1.31
77 3.72
78 1.18
80 1.42
81 6.62
82 1.21
83 3.21
85 1.14
86 1.2
87 1.05
99 1.37
101 12.11
105 1.19
107 9.05
108 2.18
109 6.45
125 3.89
126 4.35
127 99.99
128 61.85
129 4.44

$$$$

     RDKit          2D

  9  9  0  0  0  0  0  0  0  0999 V2000
   -2.5989   -1.5002    0.0000 C   0  0  0  0  0  0  0  0  0  0  0  0
   -1.3000    0.7500    0.0000 C   0  0  0  0  0  0  0  0  0  0  0  0
    0.0000    1.5000    0.0000 C   0  0  0  0  0  0  0  0  0  0  0  0
   -0.0000   -1.5000    0.0000 C   0  0  0  0  0  0  0  0  0  0  0  0
   -1.3000   -0.7500    0.0000 C   0  0  0  0  0  0  0  0  0  0  0  0
    1.3000    0.7500    0.0000 C   0  0  0  0  0  0  0  0  0  0  0  0
    1.3000   -0.7500    0.0000 C   0  0  0  0  0  0  0  0  0  0  0  0
    2.5989    1.5002    0.0000 F   0  0  0  0  0  0  0  0  0  0  0  0
    2.5989   -1.5002    0.0000 F   0  0  0  0  0  0  0  0  0  0  0  0
  3  2  2  0
  5  1  1  0
  5  2  1  0
  5  4  2  0
  6  3  1  0
  7  4  1  0
  7  6  2  0
  8  6  1  0
  9  7  1  0
M  END
>  <NAME>  (259) 
3,4-DIFLUOROTOLUENE

>  <SYNONYMS>  (259) 


>  <SPECTRUM TYPE>  (259) 
MS1

>  <INSTRUMENT TYPE>  (259) 
EI-B

>  <INSTRUMENT>  (259) 
HITACHI M-80A

>  <ION MODE>  (259) 
P

>  <INCHIKEY>  (259) 
FZMPLKVGINKUJZ-UHFFFAOYSA-N

>  <FORMULA>  (259) 
C7H6F2

>  <EXACT MASS>  (259) 
128.043756632

>  <MW>  (259) 
128

>  <ID>  (259) 
JP011799

>  <CONTRIBUTOR>  (259) 
University of Tokyo Team, {Faculty of Engineering, University of Tokyo

>  <COMMENT>  (259) 
SMILES=Cc(c1)cc(F)c(F)c1
InChI=InChI=1S/C7H6F2/c1-5-2-3-6(8)7(9)4-5/h2-4H,1H3
computed SMILES=FC1=CC=C(C=C1F)C
accession=JP011799
date=2016.01.19 (Created 2008.10.21, modified 2011.05.06)
author=TAJIMA S, GUNMA COLLEGE OF TECHNOLOGY
license=CC BY-NC-SA
exact mass=128.04376
ionization energy=70 eV
ion type=[M]+*
computed spectral entropy=2.5749769036585093
computed normalized entropy=0.707880663327627
SPLASH=splash10-004i-4900000000-51c14a490c10f4ccf383
submitter=submitter = University of Tokyo Team (Faculty of Engineering, University of Tokyo)
MoNA Rating=3.75

>  <NUM PEAKS>  (259) 
38

>  <MASS SPECTRAL PEAKS>  (259) 
26 1.22
27 1.75
31 4.91
37 1.76
38 2.73
39 4.31
44 1.44
50 5.4
51 7.54
54 1.16
56 2.09
57 7.04
61 2.43
62 3.32
63 6.08
64 2
68 1.7
69 1.42
74 2.49
75 7.68
76 1.36
77 4.33
78 4.73
80 1.37
81 5.09
83 2.5
99 1.57
101 11.97
102 1.06
105 1.01
107 6.46
108 1.05
109 7.96
125 3.9
126 3.58
127 99.99
128 55.9
129 3.91

$$$$

     RDKit          2D

 24 30  0  0  0  0  0  0  0  0999 V2000
   -1.3000   -3.7500    0.0000 C   0  0  0  0  0  0  0  0  0  0  0  0
   -2.6000   -3.0000    0.0000 C   0  0  0  0  0  0  0  0  0  0  0  0
    1.3000   -3.7500    0.0000 C   0  0  0  0  0  0  0  0  0  0  0  0
    2.6000   -3.0000    0.0000 C   0  0  0  0  0  0  0  0  0  0  0  0
   -3.9000   -0.7500    0.0000 C   0  0  0  0  0  0  0  0  0  0  0  0
   -3.9000    0.7500    0.0000 C   0  0  0  0  0  0  0  0  0  0  0  0
    3.9000   -0.7500    0.0000 C   0  0  0  0  0  0  0  0  0  0  0  0
    3.9000    0.7500    0.0000 C   0  0  0  0  0  0  0  0  0  0  0  0
   -2.6000    3.0000    0.0000 C   0  0  0  0  0  0  0  0  0  0  0  0
    2.6000    3.0000    0.0000 C   0  0  0  0  0  0  0  0  0  0  0  0
   -1.3000    3.7500    0.0000 C   0  0  0  0  0  0  0  0  0  0  0  0
    1.3000    3.7500    0.0000 C   0  0  0  0  0  0  0  0  0  0  0  0
    0.0000   -3.0000    0.0000 C   0  0  0  0  0  0  0  0  0  0  0  0
   -2.6000   -1.5000    0.0000 C   0  0  0  0  0  0  0  0  0  0  0  0
    2.6000   -1.5000    0.0000 C   0  0  0  0  0  0  0  0  0  0  0  0
   -2.6000    1.5000    0.0000 C   0  0  0  0  0  0  0  0  0  0  0  0
    2.6000    1.5000    0.0000 C   0  0  0  0  0  0  0  0  0  0  0  0
    0.0000    3.0000    0.0000 C   0  0  0  0  0  0  0  0  0  0  0  0
    0.0000   -1.5000    0.0000 C   0  0  0  0  0  0  0  0  0  0  0  0
   -1.3000   -0.7500    0.0000 C   0  0  0  0  0  0  0  0  0  0  0  0
    1.3000   -0.7500    0.0000 C   0  0  0  0  0  0  0  0  0  0  0  0
   -1.3000    0.7500    0.0000 C   0  0  0  0  0  0  0  0  0  0  0  0
    1.3000    0.7500    0.0000 C   0  0  0  0  0  0  0  0  0  0  0  0
    0.0000    1.5000    0.0000 C   0  0  0  0  0  0  0  0  0  0  0  0
  2  1  2  0
  4  3  1  0
  6  5  1  0
  8  7  2  0
 11  9  2  0
 12 10  1  0
 13  1  1  0
 13  3  2  0
 14  2  1  0
 14  5  2  0
 15  4  2  0
 15  7  1  0
 16  6  2  0
 16  9  1  0
 17  8  1  0
 17 10  2  0
 18 11  1  0
 18 12  2  0
 19 13  1  0
 20 14  1  0
 20 19  2  0
 21 15  1  0
 21 19  1  0
 22 16  1  0
 22 20  1  0
 23 17  1  0
 23 21  2  0
 24 18  1  0
 24 22  2  0
 24 23  1  0
M  END
>  <NAME>  (260) 
CORONENE

>  <SYNONYMS>  (260) 


>  <SPECTRUM TYPE>  (260) 
MS1

>  <INSTRUMENT TYPE>  (260) 
EI-B

>  <INSTRUMENT>  (260) 
HITACHI M-80A

>  <ION MODE>  (260) 
P

>  <INCHIKEY>  (260) 
VPUGDVKSAQVFFS-UHFFFAOYSA-N

>  <FORMULA>  (260) 
C24H12

>  <EXACT MASS>  (260) 
300.093900384

>  <MW>  (260) 
300

>  <ID>  (260) 
JP011798

>  <CONTRIBUTOR>  (260) 
University of Tokyo Team, {Faculty of Engineering, University of Tokyo

>  <COMMENT>  (260) 
SMILES=c(c42)(c71)c(c3)ccc1ccc(c67)ccc(c56)ccc(c45)ccc2c3
InChI=InChI=1S/C24H12/c1-2-14-5-6-16-9-11-18-12-10-17-8-7-15-4-3-13(1)19-20(14)22(16)24(18)23(17)21(15)19/h1-12H
computed SMILES=C1=CC2=CC=C3C=CC4=CC=C5C=CC6=CC=C1C=7C2=C3C4=C5C67
accession=JP011798
date=2016.01.19 (Created 2008.10.21, modified 2011.05.06)
author=TAJIMA S, GUNMA COLLEGE OF TECHNOLOGY
license=CC BY-NC-SA
exact mass=300.0939
ionization energy=70 eV
ion type=[M]+*
computed spectral entropy=2.5972743567297516
computed normalized entropy=0.7140104021412692
SPLASH=splash10-0udi-2249000000-4fe84853d495cc9162e8
submitter=submitter = University of Tokyo Team (Faculty of Engineering, University of Tokyo)
MoNA Rating=3.75

>  <NUM PEAKS>  (260) 
38

>  <MASS SPECTRAL PEAKS>  (260) 
39 3.99
41 2.55
42 1.63
43 2.49
50 1.75
51 2.26
53 2.95
54 1.45
55 1.76
62 1.34
63 1.43
69 1.61
74 1.27
77 1.28
81 2.39
82 1.54
105 1.91
110 3.55
135 2
136 2.26
137 1.24
147 1.68
148 3.33
149 8.69
150 14.85
272 1.31
274 1.33
275 1.27
276 6.27
294 2.54
295 2.73
296 9.17
297 5.62
298 19.69
299 12.08
300 99.99
301 23.79
302 3.98

$$$$

     RDKit          2D

 10 10  0  0  0  0  0  0  0  0999 V2000
    1.9487    3.0002    0.0000 C   0  0  0  0  0  0  0  0  0  0  0  0
   -1.9500    0.7500    0.0000 C   0  0  0  0  0  0  0  0  0  0  0  0
   -1.9500   -0.7500    0.0000 C   0  0  0  0  0  0  0  0  0  0  0  0
   -0.6500    1.5000    0.0000 C   0  0  0  0  0  0  0  0  0  0  0  0
   -0.6500   -1.5000    0.0000 C   0  0  0  0  0  0  0  0  0  0  0  0
    1.9489    1.5002    0.0000 C   0  0  0  0  0  0  0  0  0  0  0  0
    0.6500    0.7500    0.0000 C   0  0  0  0  0  0  0  0  0  0  0  0
    0.6500   -0.7500    0.0000 C   0  0  0  0  0  0  0  0  0  0  0  0
    3.2481    0.7504    0.0000 O   0  0  0  0  0  0  0  0  0  0  0  0
    1.9489   -1.5002    0.0000 O   0  0  0  0  0  0  0  0  0  0  0  0
  3  2  2  0
  4  2  1  0
  5  3  1  0
  6  1  1  0
  7  4  2  0
  7  6  1  0
  8  5  2  0
  8  7  1  0
  9  6  2  0
 10  8  1  0
M  END
>  <NAME>  (261) 
ORTHO-HYDROXYACETHOPHENONE

>  <SYNONYMS>  (261) 
2-ACETYLPHENOL

>  <SPECTRUM TYPE>  (261) 
MS1

>  <INSTRUMENT TYPE>  (261) 
EI-B

>  <INSTRUMENT>  (261) 
HITACHI M-80A

>  <ION MODE>  (261) 
P

>  <INCHIKEY>  (261) 
JECYUBVRTQDVAT-UHFFFAOYSA-N

>  <FORMULA>  (261) 
C8H8O2

>  <EXACT MASS>  (261) 
136.052429496

>  <MW>  (261) 
136

>  <ID>  (261) 
JP011797

>  <CONTRIBUTOR>  (261) 
University of Tokyo Team, {Faculty of Engineering, University of Tokyo

>  <COMMENT>  (261) 
SMILES=CC(=O)c(c1)c(O)ccc1
InChI=InChI=1S/C8H8O2/c1-6(9)7-4-2-3-5-8(7)10/h2-5,10H,1H3
computed SMILES=O=C(C=1C=CC=CC1O)C
accession=JP011797
date=2016.01.19 (Created 2008.10.21, modified 2011.05.06)
author=TAJIMA S, GUNMA COLLEGE OF TECHNOLOGY
license=CC BY-NC-SA
exact mass=136.05243
ionization energy=70 eV
ion type=[M]+*
computed spectral entropy=3.2335904630919834
computed normalized entropy=0.8265775683336217
SPLASH=splash10-0fyc-9100000000-6aa38be570fc2e4c3c7e
submitter=submitter = University of Tokyo Team (Faculty of Engineering, University of Tokyo)
MoNA Rating=3.75

>  <NUM PEAKS>  (261) 
50

>  <MASS SPECTRAL PEAKS>  (261) 
15 14.03
16 3.06
27 14.3
29 11.84
31 1.39
37 10.97
38 29.1
39 97.84
40 6.67
41 3.06
42 11.61
43 68.33
44 1.9
49 3.67
50 25.6
51 29.51
52 8.75
53 29.59
54 2.63
55 5.4
61 10.65
62 23.83
63 52.22
64 22.77
65 94.42
66 14.5
67 2.86
69 1.43
73 2.31
74 9.91
75 5.97
76 3.46
77 19.81
78 5.3
79 5.91
81 2.12
85 1.2
86 1.81
87 1.52
89 6.1
90 6.25
91 1.91
92 11.27
93 27.17
94 4.26
107 3.19
121 99.99
122 8.62
136 22.19
137 2.65

$$$$

     RDKit          2D

  9  9  0  0  0  0  0  0  0  0999 V2000
    2.5989    0.0004    0.0000 C   0  0  0  0  0  0  0  0  0  0  0  0
    1.3000   -2.2498    0.0000 C   0  0  0  0  0  0  0  0  0  0  0  0
   -0.0000   -2.9998    0.0000 C   0  0  0  0  0  0  0  0  0  0  0  0
   -1.3000   -0.7498    0.0000 C   0  0  0  0  0  0  0  0  0  0  0  0
    1.3000   -0.7498    0.0000 C   0  0  0  0  0  0  0  0  0  0  0  0
   -1.3000   -2.2498    0.0000 C   0  0  0  0  0  0  0  0  0  0  0  0
    0.0000    0.0002    0.0000 C   0  0  0  0  0  0  0  0  0  0  0  0
   -2.5989   -3.0000    0.0000 F   0  0  0  0  0  0  0  0  0  0  0  0
    0.0000    1.5002    0.0000 F   0  0  0  0  0  0  0  0  0  0  0  0
  3  2  2  0
  5  1  1  0
  5  2  1  0
  6  3  1  0
  6  4  2  0
  7  4  1  0
  7  5  2  0
  8  6  1  0
  9  7  1  0
M  END
>  <NAME>  (262) 
2,4-DIFLUOROTOLUENE

>  <SYNONYMS>  (262) 


>  <SPECTRUM TYPE>  (262) 
MS1

>  <INSTRUMENT TYPE>  (262) 
EI-B

>  <INSTRUMENT>  (262) 
HITACHI M-80A

>  <ION MODE>  (262) 
P

>  <INCHIKEY>  (262) 
MPXDAIBTYWGBSL-UHFFFAOYSA-N

>  <FORMULA>  (262) 
C7H6F2

>  <EXACT MASS>  (262) 
128.043756632

>  <MW>  (262) 
128

>  <ID>  (262) 
JP011796

>  <CONTRIBUTOR>  (262) 
University of Tokyo Team, {Faculty of Engineering, University of Tokyo

>  <COMMENT>  (262) 
SMILES=Fc(c1)cc(F)c(C)c1
InChI=InChI=1S/C7H6F2/c1-5-2-3-6(8)4-7(5)9/h2-4H,1H3
computed SMILES=FC1=CC=C(C(F)=C1)C
accession=JP011796
date=2016.01.19 (Created 2008.10.21, modified 2011.05.06)
author=TAJIMA S, GUNMA COLLEGE OF TECHNOLOGY
license=CC BY-NC-SA
exact mass=128.04376
ionization energy=70 eV
ion type=[M]+*
computed spectral entropy=2.703150780644829
computed normalized entropy=0.714327515834852
SPLASH=splash10-004i-4900000000-7801fcfdc5949367167a
submitter=submitter = University of Tokyo Team (Faculty of Engineering, University of Tokyo)
MoNA Rating=3.75

>  <NUM PEAKS>  (262) 
44

>  <MASS SPECTRAL PEAKS>  (262) 
26 1.68
27 1.96
31 6.56
33 1.12
37 1.92
38 2.79
39 4.07
43 1.04
44 2.31
49 1.16
50 6.79
51 8.01
54 1.89
56 2.44
57 9.13
61 2.92
62 3.59
63 5.79
64 2.19
68 1.7
69 1.41
70 1.13
74 3
75 7.53
76 1.45
77 3.33
78 1.23
80 1.56
81 6.18
82 1.02
83 2.67
85 1.09
86 1.07
99 1.54
101 10.87
105 1.12
107 7.25
108 1.59
109 5.15
125 3.9
126 3.85
127 99.99
128 52.42
129 3.68

$$$$

     RDKit          2D

 15 15  0  0  0  0  0  0  0  0999 V2000
    1.3000    0.7500    0.0000 C   0  0  0  0  0  0  0  0  0  0  0  0
    0.0000    1.5000    0.0000 C   0  0  0  0  0  0  0  0  0  0  0  0
    1.3000   -0.7500    0.0000 C   0  0  0  0  0  0  0  0  0  0  0  0
   -1.3000    0.7500    0.0000 C   0  0  0  0  0  0  0  0  0  0  0  0
   -0.0000   -1.5000    0.0000 C   0  0  0  0  0  0  0  0  0  0  0  0
   -1.3000   -0.7500    0.0000 C   0  0  0  0  0  0  0  0  0  0  0  0
    2.5989    1.5002    0.0000 C   0  0  0  0  0  0  0  0  0  0  0  0
    0.0000    3.0000    0.0000 F   0  0  0  0  0  0  0  0  0  0  0  0
    2.5989   -1.5002    0.0000 F   0  0  0  0  0  0  0  0  0  0  0  0
   -2.5989    1.5002    0.0000 F   0  0  0  0  0  0  0  0  0  0  0  0
   -0.0000   -3.0000    0.0000 F   0  0  0  0  0  0  0  0  0  0  0  0
   -2.5989   -1.5002    0.0000 F   0  0  0  0  0  0  0  0  0  0  0  0
    3.3491    0.2013    0.0000 F   0  0  0  0  0  0  0  0  0  0  0  0
    3.8978    2.2504    0.0000 F   0  0  0  0  0  0  0  0  0  0  0  0
    1.8487    2.7991    0.0000 F   0  0  0  0  0  0  0  0  0  0  0  0
  2  1  2  0
  3  1  1  0
  4  2  1  0
  5  3  2  0
  6  4  2  0
  6  5  1  0
  7  1  1  0
  8  2  1  0
  9  3  1  0
 10  4  1  0
 11  5  1  0
 12  6  1  0
 13  7  1  0
 14  7  1  0
 15  7  1  0
M  END
>  <NAME>  (263) 
PERFLUOROTOLUENE

>  <SYNONYMS>  (263) 
OCTAFLUOROTOLUENE

>  <SPECTRUM TYPE>  (263) 
MS1

>  <INSTRUMENT TYPE>  (263) 
EI-B

>  <INSTRUMENT>  (263) 
HITACHI M-80A

>  <ION MODE>  (263) 
P

>  <INCHIKEY>  (263) 
USPWUOFNOTUBAD-UHFFFAOYSA-N

>  <FORMULA>  (263) 
C7F8

>  <EXACT MASS>  (263) 
235.98722576

>  <MW>  (263) 
236

>  <ID>  (263) 
JP011795

>  <CONTRIBUTOR>  (263) 
University of Tokyo Team, {Faculty of Engineering, University of Tokyo

>  <COMMENT>  (263) 
SMILES=Fc(c(F)1)c(F)c(c(F)c(F)1)C(F)(F)F
InChI=InChI=1S/C7F8/c8-2-1(7(13,14)15)3(9)5(11)6(12)4(2)10
computed SMILES=FC=1C(F)=C(F)C(=C(F)C1F)C(F)(F)F
accession=JP011795
date=2016.01.19 (Created 2008.10.21, modified 2011.05.06)
author=TAJIMA S, GUNMA COLLEGE OF TECHNOLOGY
license=CC BY-NC-SA
exact mass=235.98723
ionization energy=70 eV
ion type=[M]+*
computed spectral entropy=2.8784757738010036
computed normalized entropy=0.775123175771723
SPLASH=splash10-014i-9630000000-be76dc75e762f2f1cc94
submitter=submitter = University of Tokyo Team (Faculty of Engineering, University of Tokyo)
MoNA Rating=3.75

>  <NUM PEAKS>  (263) 
41

>  <MASS SPECTRAL PEAKS>  (263) 
19 1.42
31 65.57
43 3.47
50 8.07
55 8.5
60 1.91
62 1.54
67 1.64
69 87.71
74 16.46
79 37.16
80 1.8
86 11.1
91 1.59
93 45.25
94 1.28
98 40.88
99 2.25
105 3.3
108 2.06
110 8.67
117 99.99
118 5.81
122 1.35
124 3.79
129 8.93
136 2.75
141 2.76
148 19.2
149 1.46
155 2.23
167 21.6
168 1.54
179 4.68
186 55.23
187 3.47
198 1.21
217 89.17
218 7.18
236 31.35
237 2.48

$$$$

     RDKit          2D

  7  6  0  0  0  0  0  0  0  0999 V2000
    1.2990    2.2500    0.0000 C   0  0  0  0  0  0  0  0  0  0  0  0
   -3.8971    2.2500    0.0000 C   0  0  0  0  0  0  0  0  0  0  0  0
   -0.0000    0.0000    0.0000 C   0  0  0  0  0  0  0  0  0  0  0  0
   -1.2990    2.2500    0.0000 B   0  0  0  0  0  0  0  0  0  0  0  0
    0.0000    3.0000    0.0000 O   0  0  0  0  0  0  0  0  0  0  0  0
   -2.5981    3.0000    0.0000 O   0  0  0  0  0  0  0  0  0  0  0  0
   -1.2990    0.7500    0.0000 O   0  0  0  0  0  0  0  0  0  0  0  0
  5  1  1  0
  5  4  1  0
  6  2  1  0
  6  4  1  0
  7  3  1  0
  7  4  1  0
M  END
>  <NAME>  (264) 
BORIC ACID TRIMETHYL ESTER

>  <SYNONYMS>  (264) 
TRIMETHYL BORATE

>  <SPECTRUM TYPE>  (264) 
MS1

>  <INSTRUMENT TYPE>  (264) 
EI-B

>  <INSTRUMENT>  (264) 
HITACHI M-80A

>  <ION MODE>  (264) 
P

>  <INCHIKEY>  (264) 
WRECIMRULFAWHA-UHFFFAOYSA-N

>  <FORMULA>  (264) 
C3H9BO3

>  <EXACT MASS>  (264) 
104.06447454799999

>  <MW>  (264) 
104

>  <ID>  (264) 
JP011794

>  <CONTRIBUTOR>  (264) 
University of Tokyo Team, {Faculty of Engineering, University of Tokyo

>  <COMMENT>  (264) 
SMILES=CO[B](OC)OC
InChI=InChI=1S/C3H9BO3/c1-5-4(6-2)7-3/h1-3H3
computed SMILES=O(B(OC)OC)C
accession=JP011794
date=2016.01.19 (Created 2008.10.21, modified 2011.05.06)
author=TAJIMA S, GUNMA COLLEGE OF TECHNOLOGY
license=CC BY-NC-SA
exact mass=104.06447
ionization energy=70 eV
ion type=[M]+*
computed spectral entropy=2.852466259547817
computed normalized entropy=0.8158044017932728
SPLASH=splash10-00fr-9000000000-4dfe09aa99b71dc3532e
submitter=submitter = University of Tokyo Team (Faculty of Engineering, University of Tokyo)
MoNA Rating=3.75

>  <NUM PEAKS>  (264) 
33

>  <MASS SPECTRAL PEAKS>  (264) 
13 1.59
14 14.31
15 54.53
16 4.42
27 3.06
28 2.83
29 79.11
30 9.47
31 16.79
39 1
40 2.73
41 5.14
42 18.7
43 47.72
44 3.26
45 6.86
55 1.11
56 9.44
57 38.14
58 13.08
59 28.64
71 5.46
72 43.41
73 99.99
74 2.62
86 2.75
87 10.54
88 4.64
89 14.28
102 1.06
103 11.85
104 31.64
105 1.69

$$$$

     RDKit          2D

  7  6  0  0  0  0  0  0  0  0999 V2000
   -4.2219    2.8125    0.0000 C   0  0  0  0  0  0  0  0  0  0  0  0
   -1.0748    0.7635    0.0000 C   0  0  0  0  0  0  0  0  0  0  0  0
    0.9743    1.3125    0.0000 C   0  0  0  0  0  0  0  0  0  0  0  0
    0.4252    3.3615    0.0000 C   0  0  0  0  0  0  0  0  0  0  0  0
   -2.9228    2.0625    0.0000 C   0  0  0  0  0  0  0  0  0  0  0  0
   -1.6238    2.8125    0.0000 O   0  0  0  0  0  0  0  0  0  0  0  0
   -0.3248    2.0625    0.0000 Si  0  0  0  0  0  4  0  0  0  0  0  0
  5  1  1  0
  6  5  1  0
  7  2  1  0
  7  3  1  0
  7  4  1  0
  7  6  1  0
M  END
>  <NAME>  (265) 
TRIMETHYLETHOXYSILANE

>  <SYNONYMS>  (265) 


>  <SPECTRUM TYPE>  (265) 
MS1

>  <INSTRUMENT TYPE>  (265) 
EI-B

>  <INSTRUMENT>  (265) 
HITACHI M-80A

>  <ION MODE>  (265) 
P

>  <INCHIKEY>  (265) 
RSIHJDGMBDPTIM-UHFFFAOYSA-N

>  <FORMULA>  (265) 
C5H14OSi

>  <EXACT MASS>  (265) 
118.08139159800001

>  <MW>  (265) 
118

>  <ID>  (265) 
JP011793

>  <CONTRIBUTOR>  (265) 
University of Tokyo Team, {Faculty of Engineering, University of Tokyo

>  <COMMENT>  (265) 
SMILES=CCO[Si](C)(C)C
InChI=InChI=1S/C5H14OSi/c1-5-6-7(2,3)4/h5H2,1-4H3
computed SMILES=O(CC)[Si](C)(C)C
accession=JP011793
date=2016.01.19 (Created 2008.10.21, modified 2011.05.06)
author=TAJIMA S, GUNMA COLLEGE OF TECHNOLOGY
license=CC BY-NC-SA
exact mass=118.08139
ionization energy=70 eV
ion type=[M]+*
computed spectral entropy=2.566789320238626
computed normalized entropy=0.7546722616210657
SPLASH=splash10-0ufr-9400000000-9879624f3f173e4aa797
submitter=submitter = University of Tokyo Team (Faculty of Engineering, University of Tokyo)
MoNA Rating=3.75

>  <NUM PEAKS>  (265) 
30

>  <MASS SPECTRAL PEAKS>  (265) 
14 3.79
15 13.2
26 2
27 7.9
29 8.14
31 1.56
42 2.69
43 15.88
44 4.19
45 20.52
46 1.56
47 5.66
51 2.85
55 1.51
57 1.17
58 4.49
59 23.08
60 2.48
61 6.36
72 1.23
73 25.7
74 3.1
75 59.09
76 4.47
77 3.63
87 1.18
103 99.99
104 9.69
105 5.41
118 2.41

$$$$

     RDKit          2D

 10 10  0  0  0  0  0  0  0  0999 V2000
   -1.9500    0.7500    0.0000 C   0  0  0  0  0  0  0  0  0  0  0  0
   -1.9500   -0.7500    0.0000 C   0  0  0  0  0  0  0  0  0  0  0  0
   -0.6500    1.5000    0.0000 C   0  0  0  0  0  0  0  0  0  0  0  0
   -0.6500   -1.5000    0.0000 C   0  0  0  0  0  0  0  0  0  0  0  0
    0.6500    0.7500    0.0000 C   0  0  0  0  0  0  0  0  0  0  0  0
    0.6500   -0.7500    0.0000 C   0  0  0  0  0  0  0  0  0  0  0  0
    1.9489    1.5002    0.0000 C   0  0  0  0  0  0  0  0  0  0  0  0
    1.9489   -1.5002    0.0000 O   0  0  0  0  0  0  0  0  0  0  0  0
    3.2481    0.7504    0.0000 O   0  0  0  0  0  0  0  0  0  0  0  0
    1.9487    3.0002    0.0000 O   0  0  0  0  0  0  0  0  0  0  0  0
  2  1  2  0
  3  1  1  0
  4  2  1  0
  5  3  2  0
  6  4  2  0
  6  5  1  0
  7  5  1  0
  8  6  1  0
  9  7  2  0
 10  7  1  0
M  END
>  <NAME>  (266) 
SALICYLIC ACID

>  <SYNONYMS>  (266) 
ORTHO-HYDROXYBENZOIC ACID

>  <SPECTRUM TYPE>  (266) 
MS1

>  <INSTRUMENT TYPE>  (266) 
EI-B

>  <INSTRUMENT>  (266) 
HITACHI M-80A

>  <ION MODE>  (266) 
P

>  <INCHIKEY>  (266) 
YGSDEFSMJLZEOE-UHFFFAOYSA-N

>  <FORMULA>  (266) 
C7H6O3

>  <EXACT MASS>  (266) 
138.03169405199998

>  <MW>  (266) 
138

>  <ID>  (266) 
JP011792

>  <CONTRIBUTOR>  (266) 
University of Tokyo Team, {Faculty of Engineering, University of Tokyo

>  <COMMENT>  (266) 
SMILES=OC(=O)c(c1)c(O)ccc1
InChI=InChI=1S/C7H6O3/c8-6-4-2-1-3-5(6)7(9)10/h1-4,8H,(H,9,10)
computed SMILES=O=C(O)C=1C=CC=CC1O
accession=JP011792
date=2016.01.19 (Created 2008.10.21, modified 2011.05.06)
author=TAJIMA S, GUNMA COLLEGE OF TECHNOLOGY
license=CC BY-NC-SA
exact mass=138.03169
ionization energy=70 eV
ion type=[M]+*
computed spectral entropy=2.5308397914699134
computed normalized entropy=0.7369974437191764
SPLASH=splash10-00du-9700000000-e1e2ee6b61d86c596403
submitter=submitter = University of Tokyo Team (Faculty of Engineering, University of Tokyo)
MoNA Rating=3.75

>  <NUM PEAKS>  (266) 
31

>  <MASS SPECTRAL PEAKS>  (266) 
26 1.24
27 2.89
29 2.53
31 1.14
37 4.1
38 8.73
39 20.42
40 1.46
45 4.69
46 5.45
50 3.7
51 2.27
53 8.62
55 4.39
60 1.12
61 2.77
62 5.36
63 16.68
64 23.19
65 12.97
66 2.39
69 1.32
74 1.43
81 2.09
92 73.16
93 7.81
120 99.99
121 13.64
122 1.12
138 62.53
139 5.24

$$$$

     RDKit          2D

  9  9  0  0  0  0  0  0  0  0999 V2000
    0.9719   -2.0515    0.0000 C   0  0  0  0  0  0  0  0  0  0  0  0
    2.2664   -1.3093    0.0000 C   0  0  0  0  0  0  0  0  0  0  0  0
   -0.3272   -1.3015    0.0000 C   0  0  0  0  0  0  0  0  0  0  0  0
    2.2669    0.1916    0.0000 C   0  0  0  0  0  0  0  0  0  0  0  0
   -1.6320    0.9385    0.0000 C   0  0  0  0  0  0  0  0  0  0  0  0
   -0.3317    0.1907    0.0000 C   0  0  0  0  0  0  0  0  0  0  0  0
    0.9678    0.9416    0.0000 C   0  0  0  0  0  0  0  0  0  0  0  0
    0.9676    2.4416    0.0000 F   0  0  0  0  0  0  0  0  0  0  0  0
   -2.9297    0.1864    0.0000 O   0  0  0  0  0  0  0  0  0  0  0  0
  2  1  2  0
  3  1  1  0
  4  2  1  0
  6  3  2  0
  6  5  1  0
  7  4  2  0
  7  6  1  0
  8  7  1  0
  9  5  2  0
M  END
>  <NAME>  (267) 
ORTHO-FLUOROBENZALDEHYDE

>  <SYNONYMS>  (267) 
2-FLUOROBENZALDEHYDE

>  <SPECTRUM TYPE>  (267) 
MS1

>  <INSTRUMENT TYPE>  (267) 
EI-B

>  <INSTRUMENT>  (267) 
HITACHI M-80A

>  <ION MODE>  (267) 
P

>  <INCHIKEY>  (267) 
ZWDVQMVZZYIAHO-UHFFFAOYSA-N

>  <FORMULA>  (267) 
C7H5FO

>  <EXACT MASS>  (267) 
124.032443

>  <MW>  (267) 
124

>  <ID>  (267) 
JP011791

>  <CONTRIBUTOR>  (267) 
University of Tokyo Team, {Faculty of Engineering, University of Tokyo

>  <COMMENT>  (267) 
SMILES=O=Cc(c1)c(F)ccc1
InChI=InChI=1S/C7H5FO/c8-7-4-2-1-3-6(7)5-9/h1-5H
computed SMILES=O=CC=1C=CC=CC1F
accession=JP011791
date=2016.01.19 (Created 2008.10.21, modified 2011.05.06)
author=TAJIMA S, GUNMA COLLEGE OF TECHNOLOGY
license=CC BY-NC-SA
exact mass=124.03244
ionization energy=70 eV
ion type=[M]+*
computed spectral entropy=2.299857314222932
computed normalized entropy=0.682998296063631
SPLASH=splash10-00di-6900000000-a32d07f8e13c7ee20a7e
submitter=submitter = University of Tokyo Team (Faculty of Engineering, University of Tokyo)
MoNA Rating=3.75

>  <NUM PEAKS>  (267) 
29

>  <MASS SPECTRAL PEAKS>  (267) 
29 4.3
31 1.27
37 1.85
38 1.7
39 2.49
43 1.18
49 1.45
50 10.16
51 4.78
57 2.27
61 1.69
62 2.08
63 2.32
68 3.86
69 6.19
70 6.77
73 1.36
74 6.41
75 18.21
76 4.28
77 1.26
92 1.14
93 1.3
94 3.57
95 42.84
96 11.29
123 99.99
124 82.48
125 8.29

$$$$

     RDKit          2D

  9  9  0  0  0  0  0  0  0  0999 V2000
    3.5724   -0.9375    0.0000 C   0  0  0  0  0  0  0  0  0  0  0  0
   -1.6243   -0.9383    0.0000 C   0  0  0  0  0  0  0  0  0  0  0  0
   -0.3243    1.3133    0.0000 C   0  0  0  0  0  0  0  0  0  0  0  0
   -0.3252   -1.6883    0.0000 C   0  0  0  0  0  0  0  0  0  0  0  0
    0.9748    0.5633    0.0000 C   0  0  0  0  0  0  0  0  0  0  0  0
   -1.6238    0.5625    0.0000 C   0  0  0  0  0  0  0  0  0  0  0  0
    0.9743   -0.9375    0.0000 C   0  0  0  0  0  0  0  0  0  0  0  0
   -2.9228    1.3125    0.0000 O   0  0  0  0  0  0  0  0  0  0  0  0
    2.2733   -1.6875    0.0000 O   0  0  0  0  0  0  0  0  0  0  0  0
  4  2  2  0
  5  3  1  0
  6  2  1  0
  6  3  2  0
  7  4  1  0
  7  5  2  0
  8  6  1  0
  9  1  1  0
  9  7  1  0
M  END
>  <NAME>  (268) 
PARA-METHOXYPHENOL

>  <SYNONYMS>  (268) 
4-METHOXYPHENOL

>  <SPECTRUM TYPE>  (268) 
MS1

>  <INSTRUMENT TYPE>  (268) 
EI-B

>  <INSTRUMENT>  (268) 
HITACHI M-80A

>  <ION MODE>  (268) 
P

>  <INCHIKEY>  (268) 
NWVVVBRKAWDGAB-UHFFFAOYSA-N

>  <FORMULA>  (268) 
C7H8O2

>  <EXACT MASS>  (268) 
124.052429496

>  <MW>  (268) 
124

>  <ID>  (268) 
JP011790

>  <CONTRIBUTOR>  (268) 
University of Tokyo Team, {Faculty of Engineering, University of Tokyo

>  <COMMENT>  (268) 
SMILES=COc(c1)ccc(O)c1
InChI=InChI=1S/C7H8O2/c1-9-7-4-2-6(8)3-5-7/h2-5,8H,1H3
computed SMILES=OC1=CC=C(OC)C=C1
accession=JP011790
date=2016.01.19 (Created 2008.10.21, modified 2011.05.06)
author=TAJIMA S, GUNMA COLLEGE OF TECHNOLOGY
license=CC BY-NC-SA
exact mass=124.05243
ionization energy=70 eV
ion type=[M]+*
computed spectral entropy=1.9672724413792224
computed normalized entropy=0.6190179733877691
SPLASH=splash10-05fr-3900000000-5f100d415313d60a9ba0
submitter=submitter = University of Tokyo Team (Faculty of Engineering, University of Tokyo)
MoNA Rating=3.75

>  <NUM PEAKS>  (268) 
24

>  <MASS SPECTRAL PEAKS>  (268) 
26 1.03
27 1.98
29 1.43
38 1.41
39 4.48
41 1.12
50 2.14
51 3.12
52 3.77
53 11.79
54 3.31
55 2.67
64 1.41
65 4.32
80 1.19
81 34.47
82 2.57
93 1.51
95 1.93
109 90.07
110 6.04
123 2.39
124 99.99
125 8.01

$$$$

     RDKit          2D

  9  9  0  0  0  0  0  0  0  0999 V2000
   -3.2458   -0.3738    0.0000 C   0  0  0  0  0  0  0  0  0  0  0  0
    0.6473    1.8688    0.0000 C   0  0  0  0  0  0  0  0  0  0  0  0
    1.9463    1.1188    0.0000 C   0  0  0  0  0  0  0  0  0  0  0  0
   -0.6473    1.1266    0.0000 C   0  0  0  0  0  0  0  0  0  0  0  0
    0.6513   -1.1242    0.0000 C   0  0  0  0  0  0  0  0  0  0  0  0
    1.9508   -0.3734    0.0000 C   0  0  0  0  0  0  0  0  0  0  0  0
   -0.6477   -0.3742    0.0000 C   0  0  0  0  0  0  0  0  0  0  0  0
    3.2511   -1.1212    0.0000 O   0  0  0  0  0  0  0  0  0  0  0  0
   -1.9469   -1.1240    0.0000 O   0  0  0  0  0  0  0  0  0  0  0  0
  3  2  2  0
  4  2  1  0
  6  3  1  0
  6  5  2  0
  7  4  2  0
  7  5  1  0
  8  6  1  0
  9  1  1  0
  9  7  1  0
M  END
>  <NAME>  (269) 
META-METHOXYPHENOL

>  <SYNONYMS>  (269) 
3-METHOXYPHENOL

>  <SPECTRUM TYPE>  (269) 
MS1

>  <INSTRUMENT TYPE>  (269) 
EI-B

>  <INSTRUMENT>  (269) 
HITACHI M-80A

>  <ION MODE>  (269) 
P

>  <INCHIKEY>  (269) 
ASHGTJPOSUFTGB-UHFFFAOYSA-N

>  <FORMULA>  (269) 
C7H8O2

>  <EXACT MASS>  (269) 
124.052429496

>  <MW>  (269) 
124

>  <ID>  (269) 
JP011789

>  <CONTRIBUTOR>  (269) 
University of Tokyo Team, {Faculty of Engineering, University of Tokyo

>  <COMMENT>  (269) 
SMILES=COc(c1)cc(O)cc1
InChI=InChI=1S/C7H8O2/c1-9-7-4-2-3-6(8)5-7/h2-5,8H,1H3
computed SMILES=OC1=CC=CC(OC)=C1
accession=JP011789
date=2016.01.19 (Created 2008.10.21, modified 2011.05.06)
author=TAJIMA S, GUNMA COLLEGE OF TECHNOLOGY
license=CC BY-NC-SA
exact mass=124.05243
ionization energy=70 eV
ion type=[M]+*
computed spectral entropy=2.6637481170504453
computed normalized entropy=0.7270924783985961
SPLASH=splash10-00di-9700000000-3ad15a062ac324441080
submitter=submitter = University of Tokyo Team (Faculty of Engineering, University of Tokyo)
MoNA Rating=3.75

>  <NUM PEAKS>  (269) 
39

>  <MASS SPECTRAL PEAKS>  (269) 
15 1.02
27 1.68
29 1.48
38 1.8
39 4.32
41 1.5
42 1.75
43 17.61
50 2.19
51 2.93
52 3.3
53 7.21
55 2.47
58 10.28
62 2.42
63 3.51
64 1.78
65 5.13
66 5.59
67 1.08
68 1.16
69 2.93
77 2.08
78 1.07
79 1.19
80 1.45
81 22.84
82 1.54
93 2.73
94 29.26
95 16.72
96 1.31
108 1
109 21.18
110 1.62
123 2.61
124 99.99
125 8.11
138 1.23

$$$$

     RDKit          2D

  9  9  0  0  0  0  0  0  0  0999 V2000
    3.5681    0.1904    0.0000 C   0  0  0  0  0  0  0  0  0  0  0  0
   -1.6200   -1.3100    0.0000 C   0  0  0  0  0  0  0  0  0  0  0  0
   -0.3300   -2.0600    0.0000 C   0  0  0  0  0  0  0  0  0  0  0  0
   -1.6200    0.1900    0.0000 C   0  0  0  0  0  0  0  0  0  0  0  0
    0.9700   -1.3100    0.0000 C   0  0  0  0  0  0  0  0  0  0  0  0
   -0.3300    0.9400    0.0000 C   0  0  0  0  0  0  0  0  0  0  0  0
    0.9700    0.1900    0.0000 C   0  0  0  0  0  0  0  0  0  0  0  0
   -0.3325    2.4400    0.0000 O   0  0  0  0  0  0  0  0  0  0  0  0
    2.2689    0.9402    0.0000 O   0  0  0  0  0  0  0  0  0  0  0  0
  3  2  2  0
  4  2  1  0
  5  3  1  0
  6  4  2  0
  7  5  2  0
  7  6  1  0
  8  6  1  0
  9  1  1  0
  9  7  1  0
M  END
>  <NAME>  (270) 
ORTHO-METHOXYPHENOL

>  <SYNONYMS>  (270) 
2-METHOXYPHENOL

>  <SPECTRUM TYPE>  (270) 
MS1

>  <INSTRUMENT TYPE>  (270) 
EI-B

>  <INSTRUMENT>  (270) 
HITACHI M-80A

>  <ION MODE>  (270) 
P

>  <INCHIKEY>  (270) 
LHGVFZTZFXWLCP-UHFFFAOYSA-N

>  <FORMULA>  (270) 
C7H8O2

>  <EXACT MASS>  (270) 
124.052429496

>  <MW>  (270) 
124

>  <ID>  (270) 
JP011788

>  <CONTRIBUTOR>  (270) 
University of Tokyo Team, {Faculty of Engineering, University of Tokyo

>  <COMMENT>  (270) 
SMILES=COc(c1)c(O)ccc1
InChI=InChI=1S/C7H8O2/c1-9-7-5-3-2-4-6(7)8/h2-5,8H,1H3
computed SMILES=OC=1C=CC=CC1OC
accession=JP011788
date=2016.01.19 (Created 2008.10.21, modified 2011.05.06)
author=TAJIMA S, GUNMA COLLEGE OF TECHNOLOGY
license=CC BY-NC-SA
exact mass=124.05243
ionization energy=70 eV
ion type=[M]+*
computed spectral entropy=2.005502609703134
computed normalized entropy=0.6155442560707546
SPLASH=splash10-05fr-4900000000-c09a31d9523d2eab5598
submitter=submitter = University of Tokyo Team (Faculty of Engineering, University of Tokyo)
MoNA Rating=3.75

>  <NUM PEAKS>  (270) 
26

>  <MASS SPECTRAL PEAKS>  (270) 
27 1.4
28 1.63
29 1.07
38 1.27
39 3.14
50 2.96
51 4.24
52 5.25
53 7.9
55 1.72
62 1.85
63 3.74
64 1.48
65 4.07
66 1.02
77 2.6
79 1.18
80 1.62
81 40.43
82 2.48
95 2.02
109 90.36
110 6.33
123 1.4
124 99.99
125 8.22

$$$$

     RDKit          2D

  5  4  0  0  0  0  0  0  0  0999 V2000
   -1.2990    0.7500    0.0000 C   0  0  0  0  0  0  0  0  0  0  0  0
    0.7500    0.2010    0.0000 C   0  0  0  0  0  0  0  0  0  0  0  0
    1.2990    2.2500    0.0000 C   0  0  0  0  0  0  0  0  0  0  0  0
   -0.7500    2.7990    0.0000 Cl  0  0  0  0  0  0  0  0  0  0  0  0
    0.0000    1.5000    0.0000 Si  0  0  0  0  0  4  0  0  0  0  0  0
  5  1  1  0
  5  2  1  0
  5  3  1  0
  5  4  1  0
M  END
>  <NAME>  (271) 
TRIMETHYLCHLOROSILANE

>  <SYNONYMS>  (271) 


>  <SPECTRUM TYPE>  (271) 
MS1

>  <INSTRUMENT TYPE>  (271) 
EI-B

>  <INSTRUMENT>  (271) 
HITACHI M-80A

>  <ION MODE>  (271) 
P

>  <INCHIKEY>  (271) 
IJOOHPMOJXWVHK-UHFFFAOYSA-N

>  <FORMULA>  (271) 
C3H9ClSi

>  <EXACT MASS>  (271) 
108.016204498

>  <MW>  (271) 
108

>  <ID>  (271) 
JP011787

>  <CONTRIBUTOR>  (271) 
University of Tokyo Team, {Faculty of Engineering, University of Tokyo

>  <COMMENT>  (271) 
SMILES=C[Si](C)(C)Cl
InChI=InChI=1S/C3H9ClSi/c1-5(2,3)4/h1-3H3
computed SMILES=Cl[Si](C)(C)C
accession=JP011787
date=2016.01.19 (Created 2008.10.21, modified 2011.05.06)
author=TAJIMA S, GUNMA COLLEGE OF TECHNOLOGY
license=CC BY-NC-SA
exact mass=108.0162
ionization energy=70 eV
ion type=[M]+*
computed spectral entropy=1.8619187637338013
computed normalized entropy=0.6441796833390904
SPLASH=splash10-0006-9000000000-8e86a7f30d7033195a51
submitter=submitter = University of Tokyo Team (Faculty of Engineering, University of Tokyo)
MoNA Rating=3.75

>  <NUM PEAKS>  (271) 
18

>  <MASS SPECTRAL PEAKS>  (271) 
63 6.22
65 6.1
67 1.71
72 1.32
73 26.79
74 2.37
75 1.16
77 1.59
78 2.25
79 2.89
92 1.4
93 99.99
94 8.33
95 37.79
96 2.68
97 1.2
108 10.22
110 3.84

$$$$

     RDKit          2D

 14 14  0  0  0  0  0  0  0  0999 V2000
    5.2126   -1.5201    0.0000 C   0  0  0  0  0  0  0  0  0  0  0  0
   -5.1930    1.4859    0.0000 C   0  0  0  0  0  0  0  0  0  0  0  0
   -0.0006    1.4667    0.0000 C   0  0  0  0  0  0  0  0  0  0  0  0
   -1.3141   -0.7581    0.0000 C   0  0  0  0  0  0  0  0  0  0  0  0
    1.2839    0.7419    0.0000 C   0  0  0  0  0  0  0  0  0  0  0  0
    0.0104   -1.5522    0.0000 C   0  0  0  0  0  0  0  0  0  0  0  0
    3.9074   -0.7808    0.0000 C   0  0  0  0  0  0  0  0  0  0  0  0
   -1.2996    0.7167    0.0000 C   0  0  0  0  0  0  0  0  0  0  0  0
    1.3094   -0.8022    0.0000 C   0  0  0  0  0  0  0  0  0  0  0  0
   -2.5950    1.4731    0.0000 C   0  0  0  0  0  0  0  0  0  0  0  0
    3.8950    0.7191    0.0000 O   0  0  0  0  0  0  0  0  0  0  0  0
   -2.5876    2.9731    0.0000 O   0  0  0  0  0  0  0  0  0  0  0  0
   -3.8977    0.7295    0.0000 O   0  0  0  0  0  0  0  0  0  0  0  0
    2.6146   -1.5415    0.0000 O   0  0  0  0  0  0  0  0  0  0  0  0
  5  3  2  0
  6  4  1  0
  7  1  1  0
  8  3  1  0
  8  4  2  0
  9  5  1  0
  9  6  2  0
 10  8  1  0
 11  7  2  0
 12 10  2  0
 13  2  1  0
 13 10  1  0
 14  7  1  0
 14  9  1  0
M  END
>  <NAME>  (272) 
PARA-ACETOXYBENZOIC ACID METHYL ESTER

>  <SYNONYMS>  (272) 
METHYL PARA-ACETOXYBENZOATE

>  <SPECTRUM TYPE>  (272) 
MS1

>  <INSTRUMENT TYPE>  (272) 
EI-B

>  <INSTRUMENT>  (272) 
HITACHI M-80A

>  <ION MODE>  (272) 
P

>  <INCHIKEY>  (272) 
PGJQPLVEUVHSFQ-UHFFFAOYSA-N

>  <FORMULA>  (272) 
C10H10O4

>  <EXACT MASS>  (272) 
194.0579088

>  <MW>  (272) 
194

>  <ID>  (272) 
JP011786

>  <CONTRIBUTOR>  (272) 
University of Tokyo Team, {Faculty of Engineering, University of Tokyo

>  <COMMENT>  (272) 
SMILES=COC(=O)c(c1)ccc(OC(C)=O)c1
InChI=InChI=1S/C10H10O4/c1-7(11)14-9-5-3-8(4-6-9)10(12)13-2/h3-6H,1-2H3
computed SMILES=O=C(OC)C1=CC=C(OC(=O)C)C=C1
accession=JP011786
date=2016.01.19 (Created 2008.10.21, modified 2011.05.06)
author=TAJIMA S, GUNMA COLLEGE OF TECHNOLOGY
license=CC BY-NC-SA
exact mass=194.05791
ionization energy=70 eV
ion type=[M]+*
computed spectral entropy=2.353736123940634
computed normalized entropy=0.6791446867140726
SPLASH=splash10-0fk9-4900000000-c4d17a834af0dc264242
submitter=submitter = University of Tokyo Team (Faculty of Engineering, University of Tokyo)
MoNA Rating=3.75

>  <NUM PEAKS>  (272) 
32

>  <MASS SPECTRAL PEAKS>  (272) 
15 1.85
29 1.03
38 3.1
39 4.92
41 1.14
42 1.36
43 36.02
50 1.57
51 1.03
52 1.01
53 1.36
62 2.04
63 6.88
64 5.54
65 10.48
66 1.37
75 1.18
77 1.03
92 5.24
93 8.15
95 1.89
120 2.01
121 99.99
122 8.17
123 2.91
135 1.09
151 2.67
152 57.68
153 5.01
163 3.17
194 10.86
195 1.88

$$$$

     RDKit          2D

 10 10  0  0  0  0  0  0  0  0999 V2000
   -0.6496    1.8749    0.0000 C   0  0  0  0  0  0  0  0  0  0  0  0
    3.2480   -0.3742    0.0000 C   0  0  0  0  0  0  0  0  0  0  0  0
    3.2475   -1.8751    0.0000 C   0  0  0  0  0  0  0  0  0  0  0  0
    1.9489    0.3758    0.0000 C   0  0  0  0  0  0  0  0  0  0  0  0
    1.9480   -2.6259    0.0000 C   0  0  0  0  0  0  0  0  0  0  0  0
   -0.6496    0.3749    0.0000 C   0  0  0  0  0  0  0  0  0  0  0  0
    0.6494   -0.3751    0.0000 C   0  0  0  0  0  0  0  0  0  0  0  0
    0.6489   -1.8759    0.0000 C   0  0  0  0  0  0  0  0  0  0  0  0
   -0.6502   -2.6257    0.0000 Br  0  0  0  0  0  0  0  0  0  0  0  0
   -1.9486   -0.3751    0.0000 O   0  0  0  0  0  0  0  0  0  0  0  0
  3  2  2  0
  4  2  1  0
  5  3  1  0
  6  1  1  0
  7  4  2  0
  7  6  1  0
  8  5  2  0
  8  7  1  0
  9  8  1  0
 10  6  2  0
M  END
>  <NAME>  (273) 
2-BROMOACETOPHENONE

>  <SYNONYMS>  (273) 


>  <SPECTRUM TYPE>  (273) 
MS1

>  <INSTRUMENT TYPE>  (273) 
EI-B

>  <INSTRUMENT>  (273) 
HITACHI M-80A

>  <ION MODE>  (273) 
P

>  <INCHIKEY>  (273) 
PIMNFNXBTGPCIL-UHFFFAOYSA-N

>  <FORMULA>  (273) 
C8H7BrO

>  <EXACT MASS>  (273) 
197.968026944

>  <MW>  (273) 
198

>  <ID>  (273) 
JP011785

>  <CONTRIBUTOR>  (273) 
University of Tokyo Team, {Faculty of Engineering, University of Tokyo

>  <COMMENT>  (273) 
SMILES=CC(=O)c(c1)c(Br)ccc1
InChI=InChI=1S/C8H7BrO/c1-6(10)7-4-2-3-5-8(7)9/h2-5H,1H3
computed SMILES=O=C(C=1C=CC=CC1Br)C
accession=JP011785
date=2016.01.19 (Created 2008.10.21, modified 2011.05.06)
author=TAJIMA S, GUNMA COLLEGE OF TECHNOLOGY
license=CC BY-NC-SA
exact mass=197.96803
ionization energy=70 eV
ion type=[M]+*
computed spectral entropy=2.5543924150412973
computed normalized entropy=0.784013728639386
SPLASH=splash10-0540-2900000000-21baa4fdb97d255c142b
submitter=submitter = University of Tokyo Team (Faculty of Engineering, University of Tokyo)
MoNA Rating=3.75

>  <NUM PEAKS>  (273) 
26

>  <MASS SPECTRAL PEAKS>  (273) 
38 2.42
39 2.18
43 16.89
50 14.3
51 5.42
63 3.08
74 8.75
75 16.4
76 18.29
77 7.97
89 2.56
91 2.1
104 3.3
105 2.94
155 31.43
156 3.3
157 30.27
158 3.38
183 99.99
184 7.67
185 97.59
186 8.07
198 30.27
199 2.74
200 28.79
201 2.88

$$$$

     RDKit          2D

 11 11  0  0  0  0  0  0  0  0999 V2000
    1.5257    1.9053    0.0000 C   0  0  0  0  0  0  0  0  0  0  0  0
    0.2121   -0.3195    0.0000 C   0  0  0  0  0  0  0  0  0  0  0  0
    2.8102    1.1805    0.0000 C   0  0  0  0  0  0  0  0  0  0  0  0
    1.5366   -1.1137    0.0000 C   0  0  0  0  0  0  0  0  0  0  0  0
    0.2266    1.1553    0.0000 C   0  0  0  0  0  0  0  0  0  0  0  0
    2.8357   -0.3637    0.0000 C   0  0  0  0  0  0  0  0  0  0  0  0
   -1.0687    1.9117    0.0000 C   0  0  0  0  0  0  0  0  0  0  0  0
   -0.3123    3.2070    0.0000 F   0  0  0  0  0  0  0  0  0  0  0  0
   -2.3640    2.6681    0.0000 F   0  0  0  0  0  0  0  0  0  0  0  0
   -1.8251    0.6164    0.0000 F   0  0  0  0  0  0  0  0  0  0  0  0
    4.1409   -1.1029    0.0000 O   0  0  0  0  0  0  0  0  0  0  0  0
  3  1  2  0
  4  2  1  0
  5  1  1  0
  5  2  2  0
  6  3  1  0
  6  4  2  0
  7  5  1  0
  8  7  1  0
  9  7  1  0
 10  7  1  0
 11  6  1  0
M  END
>  <NAME>  (274) 
2,2,2-TRIFLUORO-PARA-CRESOL

>  <SYNONYMS>  (274) 
PARA-HYDROXYBENZOTRIFLUORIDE

>  <SPECTRUM TYPE>  (274) 
MS1

>  <INSTRUMENT TYPE>  (274) 
EI-B

>  <INSTRUMENT>  (274) 
HITACHI RMU-7M

>  <ION MODE>  (274) 
P

>  <INCHIKEY>  (274) 
BAYGVMXZJBFEMB-UHFFFAOYSA-N

>  <FORMULA>  (274) 
C7H5F3O

>  <EXACT MASS>  (274) 
162.02924944

>  <MW>  (274) 
162

>  <ID>  (274) 
JP011784

>  <CONTRIBUTOR>  (274) 
University of Tokyo Team, {Faculty of Engineering, University of Tokyo

>  <COMMENT>  (274) 
SMILES=Oc(c1)ccc(c1)C(F)(F)F
InChI=InChI=1S/C7H5F3O/c8-7(9,10)5-1-3-6(11)4-2-5/h1-4,11H
computed SMILES=FC(F)(F)C1=CC=C(O)C=C1
accession=JP011784
date=2016.01.19 (Created 2008.10.21, modified 2011.05.06)
author=TAJIMA S, GUNMA COLLEGE OF TECHNOLOGY
license=CC BY-NC-SA
exact mass=162.02925
ionization energy=70 eV
ion type=[M]+*
computed spectral entropy=2.838862547711275
computed normalized entropy=0.7595274161805409
SPLASH=splash10-03di-3900000000-e1eb24e4633874ece248
submitter=submitter = University of Tokyo Team (Faculty of Engineering, University of Tokyo)
MoNA Rating=3.75

>  <NUM PEAKS>  (274) 
42

>  <MASS SPECTRAL PEAKS>  (274) 
27 1.73
29 3.27
31 1.73
36 2.89
37 5.97
38 12.13
39 2.12
40 1.54
42 2.5
50 4.43
51 2.5
53 3.65
55 1.73
56 1.54
57 6.35
61 1.93
62 3.47
63 9.24
64 2.7
65 6.16
69 2.89
71 1.54
71.5 1.34
74 1.35
75 3.85
81 2.5
83 5.78
84 2.5
112 24.46
113 6.1
114 8.28
115 1.93
133 4.04
141 6.55
142 2.7
143 48.14
144 4.24
145 2.7
154 2.69
161 8.09
162 99.99
163 8.47

$$$$

     RDKit          2D

  9  9  0  0  0  0  0  0  0  0999 V2000
   -2.5989   -0.7504    0.0000 C   0  0  0  0  0  0  0  0  0  0  0  0
    2.5992   -0.7500    0.0000 C   0  0  0  0  0  0  0  0  0  0  0  0
    1.2992    1.5000    0.0000 C   0  0  0  0  0  0  0  0  0  0  0  0
    1.2992   -1.5000    0.0000 C   0  0  0  0  0  0  0  0  0  0  0  0
   -0.0008    0.7500    0.0000 C   0  0  0  0  0  0  0  0  0  0  0  0
    2.5992    0.7500    0.0000 C   0  0  0  0  0  0  0  0  0  0  0  0
   -0.0008   -0.7500    0.0000 C   0  0  0  0  0  0  0  0  0  0  0  0
    3.8981    1.5002    0.0000 Br  0  0  0  0  0  0  0  0  0  0  0  0
   -1.2998   -1.5002    0.0000 O   0  0  0  0  0  0  0  0  0  0  0  0
  4  2  2  0
  5  3  1  0
  6  2  1  0
  6  3  2  0
  7  4  1  0
  7  5  2  0
  8  6  1  0
  9  1  1  0
  9  7  1  0
M  END
>  <NAME>  (275) 
PARA-BROMOANISOLE

>  <SYNONYMS>  (275) 
4-METHOXYBROMOBENZENE

>  <SPECTRUM TYPE>  (275) 
MS1

>  <INSTRUMENT TYPE>  (275) 
EI-B

>  <INSTRUMENT>  (275) 
HITACHI M-80A

>  <ION MODE>  (275) 
P

>  <INCHIKEY>  (275) 
QJPJQTDYNZXKQF-UHFFFAOYSA-N

>  <FORMULA>  (275) 
C7H7BrO

>  <EXACT MASS>  (275) 
185.968026944

>  <MW>  (275) 
186

>  <ID>  (275) 
JP011783

>  <CONTRIBUTOR>  (275) 
University of Tokyo Team, {Faculty of Engineering, University of Tokyo

>  <COMMENT>  (275) 
SMILES=COc(c1)ccc(Br)c1
InChI=InChI=1S/C7H7BrO/c1-9-7-4-2-6(8)3-5-7/h2-5H,1H3
computed SMILES=BrC1=CC=C(OC)C=C1
accession=JP011783
date=2016.01.19 (Created 2008.10.21, modified 2011.05.06)
author=TAJIMA S, GUNMA COLLEGE OF TECHNOLOGY
license=CC BY-NC-SA
exact mass=185.96803
ionization energy=70 eV
ion type=[M]+*
computed spectral entropy=2.957278800140117
computed normalized entropy=0.8129783516557473
SPLASH=splash10-000i-4900000000-fe8bbaa73b4cfc3543c3
submitter=submitter = University of Tokyo Team (Faculty of Engineering, University of Tokyo)
MoNA Rating=3.75

>  <NUM PEAKS>  (275) 
38

>  <MASS SPECTRAL PEAKS>  (275) 
15 6.32
29 3.06
37 4.52
38 12.84
39 3.99
49 2.01
50 15.54
51 6.11
53 2.4
61 4.34
62 9.95
63 33.46
64 20.2
73 2.21
74 9.47
75 11.21
76 8.63
77 17
78 2.81
79 4.44
92 13.7
117 4.48
119 4.5
143 37.88
144 2.56
145 37.88
146 2.03
155 3.57
156 2.09
157 3.9
171 38.04
172 3.41
173 36.72
174 2.58
186 99.99
187 8.07
188 96.58
189 7.91

$$$$

     RDKit          2D

  9  9  0  0  0  0  0  0  0  0999 V2000
    3.8971   -1.4998    0.0000 C   0  0  0  0  0  0  0  0  0  0  0  0
    0.0005   -3.7506    0.0000 C   0  0  0  0  0  0  0  0  0  0  0  0
   -1.2990   -2.9998    0.0000 C   0  0  0  0  0  0  0  0  0  0  0  0
    1.2995   -3.0006    0.0000 C   0  0  0  0  0  0  0  0  0  0  0  0
   -0.0005   -0.7490    0.0000 C   0  0  0  0  0  0  0  0  0  0  0  0
   -1.2995   -1.4990    0.0000 C   0  0  0  0  0  0  0  0  0  0  0  0
    1.2990   -1.4998    0.0000 C   0  0  0  0  0  0  0  0  0  0  0  0
   -2.5987   -0.7492    0.0000 Br  0  0  0  0  0  0  0  0  0  0  0  0
    2.5981   -0.7498    0.0000 O   0  0  0  0  0  0  0  0  0  0  0  0
  3  2  2  0
  4  2  1  0
  6  3  1  0
  6  5  2  0
  7  4  2  0
  7  5  1  0
  8  6  1  0
  9  1  1  0
  9  7  1  0
M  END
>  <NAME>  (276) 
META-BROMOANISOLE

>  <SYNONYMS>  (276) 
3-METHOXYBROMOBENZENE

>  <SPECTRUM TYPE>  (276) 
MS1

>  <INSTRUMENT TYPE>  (276) 
EI-B

>  <INSTRUMENT>  (276) 
HITACHI M-80A

>  <ION MODE>  (276) 
P

>  <INCHIKEY>  (276) 
PLDWAJLZAAHOGG-UHFFFAOYSA-N

>  <FORMULA>  (276) 
C7H7BrO

>  <EXACT MASS>  (276) 
185.968026944

>  <MW>  (276) 
186

>  <ID>  (276) 
JP011782

>  <CONTRIBUTOR>  (276) 
University of Tokyo Team, {Faculty of Engineering, University of Tokyo

>  <COMMENT>  (276) 
SMILES=COc(c1)cc(Br)cc1
InChI=InChI=1S/C7H7BrO/c1-9-7-4-2-3-6(8)5-7/h2-5H,1H3
computed SMILES=BrC1=CC=CC(OC)=C1
accession=JP011782
date=2016.01.19 (Created 2008.10.21, modified 2011.05.06)
author=TAJIMA S, GUNMA COLLEGE OF TECHNOLOGY
license=CC BY-NC-SA
exact mass=185.96803
ionization energy=70 eV
ion type=[M]+*
computed spectral entropy=2.9950430233660756
computed normalized entropy=0.81752221271619
SPLASH=splash10-000i-6900000000-6ef714916e3b09ba669b
submitter=submitter = University of Tokyo Team (Faculty of Engineering, University of Tokyo)
MoNA Rating=3.75

>  <NUM PEAKS>  (276) 
39

>  <MASS SPECTRAL PEAKS>  (276) 
29 3.49
37 4.48
38 12.18
39 4.98
49 2.03
50 15.37
51 6.61
53 2.99
61 4.35
62 9.47
63 32.97
64 21.02
65 1.63
73 2.32
74 8.67
75 10.89
76 8.57
77 58.1
78 6.61
79 9.4
92 23.2
93 2.91
107 5.28
117 3.7
119 3.71
143 24.76
144 1.71
145 22.82
155 4.58
156 13.62
157 6.41
158 13.28
159 2.32
171 4.85
173 4.93
186 99.99
187 8.57
188 96.92
189 7.35

$$$$

     RDKit          2D

  9  9  0  0  0  0  0  0  0  0999 V2000
    3.8981   -0.7504    0.0000 C   0  0  0  0  0  0  0  0  0  0  0  0
   -1.3000    0.7500    0.0000 C   0  0  0  0  0  0  0  0  0  0  0  0
    0.0000    1.5000    0.0000 C   0  0  0  0  0  0  0  0  0  0  0  0
   -1.3000   -0.7500    0.0000 C   0  0  0  0  0  0  0  0  0  0  0  0
    1.3000    0.7500    0.0000 C   0  0  0  0  0  0  0  0  0  0  0  0
    0.0000   -1.5000    0.0000 C   0  0  0  0  0  0  0  0  0  0  0  0
    1.3000   -0.7500    0.0000 C   0  0  0  0  0  0  0  0  0  0  0  0
   -0.0000   -3.0000    0.0000 Br  0  0  0  0  0  0  0  0  0  0  0  0
    2.5989   -1.5002    0.0000 O   0  0  0  0  0  0  0  0  0  0  0  0
  3  2  2  0
  4  2  1  0
  5  3  1  0
  6  4  2  0
  7  5  2  0
  7  6  1  0
  8  6  1  0
  9  1  1  0
  9  7  1  0
M  END
>  <NAME>  (277) 
ORTHO-BROMOANISOLE

>  <SYNONYMS>  (277) 
2-METHOXYBROMOBENZENE

>  <SPECTRUM TYPE>  (277) 
MS1

>  <INSTRUMENT TYPE>  (277) 
EI-B

>  <INSTRUMENT>  (277) 
HITACHI M-80A

>  <ION MODE>  (277) 
P

>  <INCHIKEY>  (277) 
HTDQSWDEWGSAMN-UHFFFAOYSA-N

>  <FORMULA>  (277) 
C7H7BrO

>  <EXACT MASS>  (277) 
185.968026944

>  <MW>  (277) 
186

>  <ID>  (277) 
JP011781

>  <CONTRIBUTOR>  (277) 
University of Tokyo Team, {Faculty of Engineering, University of Tokyo

>  <COMMENT>  (277) 
SMILES=COc(c1)c(Br)ccc1
InChI=InChI=1S/C7H7BrO/c1-9-7-5-3-2-4-6(7)8/h2-5H,1H3
computed SMILES=BrC=1C=CC=CC1OC
accession=JP011781
date=2016.01.19 (Created 2008.10.21, modified 2011.05.06)
author=TAJIMA S, GUNMA COLLEGE OF TECHNOLOGY
license=CC BY-NC-SA
exact mass=185.96803
ionization energy=70 eV
ion type=[M]+*
computed spectral entropy=3.0526086711466673
computed normalized entropy=0.7973085893983025
SPLASH=splash10-000i-5900000000-a7c241ec03f353869b71
submitter=submitter = University of Tokyo Team (Faculty of Engineering, University of Tokyo)
MoNA Rating=3.75

>  <NUM PEAKS>  (277) 
46

>  <MASS SPECTRAL PEAKS>  (277) 
26 1.3
27 1.44
29 3.85
32 1.77
37 5.16
38 11.87
39 6.76
49 2.34
50 15.89
51 14.52
52 1.56
53 3.96
61 4.51
62 9.91
63 32.98
64 17.84
65 1.83
73 2.11
74 8.46
75 10.21
76 8.96
77 29.03
78 4.6
79 5.77
81 1.24
92 14.84
93 1.7
107 1.05
117 5.5
119 5.59
143 43.3
144 2.56
145 42.87
146 2.39
155 2.93
156 1.59
157 3.13
158 1.43
171 30.69
172 2.77
173 29.59
174 1.77
186 99.99
187 8.31
188 98.67
189 7.41

$$$$

     RDKit          2D

 12 12  0  0  0  0  0  0  0  0999 V2000
   -1.3000    0.7500    0.0000 C   0  0  0  0  0  0  0  0  0  0  0  0
   -0.0000   -1.5000    0.0000 C   0  0  0  0  0  0  0  0  0  0  0  0
    0.0000    1.5000    0.0000 C   0  0  0  0  0  0  0  0  0  0  0  0
    1.3000   -0.7500    0.0000 C   0  0  0  0  0  0  0  0  0  0  0  0
   -2.5989   -1.5002    0.0000 C   0  0  0  0  0  0  0  0  0  0  0  0
   -1.3000   -0.7500    0.0000 C   0  0  0  0  0  0  0  0  0  0  0  0
    1.3000    0.7500    0.0000 C   0  0  0  0  0  0  0  0  0  0  0  0
    2.5989    1.5002    0.0000 C   0  0  0  0  0  0  0  0  0  0  0  0
    3.3491    0.2013    0.0000 F   0  0  0  0  0  0  0  0  0  0  0  0
    3.8978    2.2504    0.0000 F   0  0  0  0  0  0  0  0  0  0  0  0
    1.8487    2.7991    0.0000 F   0  0  0  0  0  0  0  0  0  0  0  0
   -3.8981   -0.7504    0.0000 O   0  0  0  0  0  0  0  0  0  0  0  0
  3  1  2  0
  4  2  1  0
  6  1  1  0
  6  2  2  0
  6  5  1  0
  7  3  1  0
  7  4  2  0
  8  7  1  0
  9  8  1  0
 10  8  1  0
 11  8  1  0
 12  5  1  0
M  END
>  <NAME>  (278) 
4-(TRIFLUOROMETHYL)BENZYL ALCOHOL

>  <SYNONYMS>  (278) 


>  <SPECTRUM TYPE>  (278) 
MS1

>  <INSTRUMENT TYPE>  (278) 
EI-B

>  <INSTRUMENT>  (278) 
HITACHI M-80A

>  <ION MODE>  (278) 
P

>  <INCHIKEY>  (278) 
MOOUWXDQAUXZRG-UHFFFAOYSA-N

>  <FORMULA>  (278) 
C8H7F3O

>  <EXACT MASS>  (278) 
176.044899504

>  <MW>  (278) 
176

>  <ID>  (278) 
JP011780

>  <CONTRIBUTOR>  (278) 
University of Tokyo Team, {Faculty of Engineering, University of Tokyo

>  <COMMENT>  (278) 
SMILES=OCc(c1)ccc(c1)C(F)(F)F
InChI=InChI=1S/C8H7F3O/c9-8(10,11)7-3-1-6(5-12)2-4-7/h1-4,12H,5H2
computed SMILES=FC(F)(F)C1=CC=C(C=C1)CO
accession=JP011780
date=2016.01.19 (Created 2008.10.21, modified 2011.05.06)
author=TAJIMA S, GUNMA COLLEGE OF TECHNOLOGY
license=CC BY-NC-SA
exact mass=176.0449
ionization energy=70 eV
ion type=[M]+*
computed spectral entropy=3.3410675440187028
computed normalized entropy=0.7890844362065708
SPLASH=splash10-004i-5900000000-3bbb9d7030eccec89ef4
submitter=submitter = University of Tokyo Team (Faculty of Engineering, University of Tokyo)
MoNA Rating=3.75

>  <NUM PEAKS>  (278) 
69

>  <MASS SPECTRAL PEAKS>  (278) 
27 2.81
29 11.37
30 1.37
31 9.47
38 3.69
39 6.7
40 1.74
49 1.03
50 13.86
51 16.26
52 3.21
53 2.67
57 3.93
61 1.9
62 4.99
63 9.03
64 1.92
69 15.45
70 1.2
73 1.07
74 6.27
75 15.06
76 4.38
77 27.99
78 9.75
79 57.53
80 4.44
81 2.98
83 2.73
87 2.49
88 2.17
89 4.74
90 1.69
94 1.2
95 6.31
96 4.85
97 1.22
99 3.61
100 1.45
101 2.72
105 2.35
106 1.33
107 95.94
108 7.82
109 9.63
110 2.88
114 1.59
119 3.57
125 6.23
126 4.59
127 99.99
128 7.84
129 1.27
132 1.12
138 1.87
139 1.14
145 19.88
146 3.12
147 9.76
155 3
156 1.91
157 25.04
158 5.15
159 9.26
173 5.49
174 1.08
175 14.71
176 81.88
177 5.8

$$$$

     RDKit          2D

  8  8  0  0  0  0  0  0  0  0999 V2000
   -1.3000    0.7500    0.0000 C   0  0  0  0  0  0  0  0  0  0  0  0
    0.0000    1.5000    0.0000 C   0  0  0  0  0  0  0  0  0  0  0  0
   -1.3000   -0.7500    0.0000 C   0  0  0  0  0  0  0  0  0  0  0  0
    1.3000   -0.7500    0.0000 C   0  0  0  0  0  0  0  0  0  0  0  0
    1.3000    0.7500    0.0000 C   0  0  0  0  0  0  0  0  0  0  0  0
   -0.0000   -1.5000    0.0000 C   0  0  0  0  0  0  0  0  0  0  0  0
    2.5989    1.5002    0.0000 F   0  0  0  0  0  0  0  0  0  0  0  0
   -0.0000   -3.0000    0.0000 O   0  0  0  0  0  0  0  0  0  0  0  0
  2  1  2  0
  3  1  1  0
  5  2  1  0
  5  4  2  0
  6  3  2  0
  6  4  1  0
  7  5  1  0
  8  6  1  0
M  END
>  <NAME>  (279) 
META-FLUOROPHENOL

>  <SYNONYMS>  (279) 


>  <SPECTRUM TYPE>  (279) 
MS1

>  <INSTRUMENT TYPE>  (279) 
EI-B

>  <INSTRUMENT>  (279) 
HITACHI M-80A

>  <ION MODE>  (279) 
P

>  <INCHIKEY>  (279) 
SJTBRFHBXDZMPS-UHFFFAOYSA-N

>  <FORMULA>  (279) 
C6H5FO

>  <EXACT MASS>  (279) 
112.032443

>  <MW>  (279) 
112

>  <ID>  (279) 
JP011779

>  <CONTRIBUTOR>  (279) 
University of Tokyo Team, {Faculty of Engineering, University of Tokyo

>  <COMMENT>  (279) 
SMILES=Oc(c1)cc(F)cc1
InChI=InChI=1S/C6H5FO/c7-5-2-1-3-6(8)4-5/h1-4,8H
computed SMILES=FC1=CC=CC(O)=C1
accession=JP011779
date=2016.01.19 (Created 2008.10.21, modified 2011.05.06)
author=TAJIMA S, GUNMA COLLEGE OF TECHNOLOGY
license=CC BY-NC-SA
exact mass=112.03244
ionization energy=70 eV
ion type=[M]+*
computed spectral entropy=3.1412331553309847
computed normalized entropy=0.8158734366276746
SPLASH=splash10-03e9-9100000000-aa539782382a8695d6e2
submitter=submitter = University of Tokyo Team (Faculty of Engineering, University of Tokyo)
MoNA Rating=3.75

>  <NUM PEAKS>  (279) 
47

>  <MASS SPECTRAL PEAKS>  (279) 
26 4.27
27 5.15
29 12.55
31 13.29
33 2.72
36 2.44
37 12.07
38 17.23
39 23.56
40 1.84
41 1.5
42 2.04
48 4.51
49 15.58
50 8.07
51 1.77
52 8.55
54 3.78
55 8.15
56 45.61
57 7.38
59 2.1
60 12.91
61 16.91
63 33.64
64 35.91
65 8.66
66 3.83
68 5
69 3.96
70 2.42
73 9.45
74 4.73
75 6.89
79 1.76
80 11.3
82 5.06
83 71.83
84 66.64
85 2.98
92 1.73
94 3.89
95 1.5
96 1.29
111 2.3
112 99.99
113 4.6

$$$$

     RDKit          2D

  8  8  0  0  0  0  0  0  0  0999 V2000
    2.2733   -0.6175    0.0000 C   0  0  0  0  0  0  0  0  0  0  0  0
    2.2738    0.8833    0.0000 C   0  0  0  0  0  0  0  0  0  0  0  0
    0.9738   -1.3683    0.0000 C   0  0  0  0  0  0  0  0  0  0  0  0
    0.9748    1.6333    0.0000 C   0  0  0  0  0  0  0  0  0  0  0  0
   -0.3252   -0.6183    0.0000 C   0  0  0  0  0  0  0  0  0  0  0  0
   -1.6238    1.6325    0.0000 C   0  0  0  0  0  0  0  0  0  0  0  0
   -0.3248    0.8825    0.0000 C   0  0  0  0  0  0  0  0  0  0  0  0
   -2.9228    0.8825    0.0000 Br  0  0  0  0  0  0  0  0  0  0  0  0
  2  1  2  0
  3  1  1  0
  4  2  1  0
  5  3  2  0
  7  4  2  0
  7  5  1  0
  7  6  1  0
  8  6  1  0
M  END
>  <NAME>  (280) 
BENZYL BROMIDE

>  <SYNONYMS>  (280) 
ALPHA-BROMOTOLUENE

>  <SPECTRUM TYPE>  (280) 
MS1

>  <INSTRUMENT TYPE>  (280) 
EI-B

>  <INSTRUMENT>  (280) 
HITACHI M-80A

>  <ION MODE>  (280) 
P

>  <INCHIKEY>  (280) 
AGEZXYOZHKGVCM-UHFFFAOYSA-N

>  <FORMULA>  (280) 
C7H7Br

>  <EXACT MASS>  (280) 
169.973112324

>  <MW>  (280) 
170

>  <ID>  (280) 
JP011778

>  <CONTRIBUTOR>  (280) 
University of Tokyo Team, {Faculty of Engineering, University of Tokyo

>  <COMMENT>  (280) 
SMILES=BrCc(c1)cccc1
InChI=InChI=1S/C7H7Br/c8-6-7-4-2-1-3-5-7/h1-5H,6H2
computed SMILES=BrCC=1C=CC=CC1
accession=JP011778
date=2016.01.19 (Created 2008.10.21, modified 2011.05.06)
author=TAJIMA S, GUNMA COLLEGE OF TECHNOLOGY
license=CC BY-NC-SA
exact mass=169.97311
ionization energy=70 eV
ion type=[M]+*
computed spectral entropy=2.5133596467742985
computed normalized entropy=0.7625861803716462
SPLASH=splash10-0006-9100000000-c48b5a5fb4ea89f4c580
submitter=submitter = University of Tokyo Team (Faculty of Engineering, University of Tokyo)
MoNA Rating=3.75

>  <NUM PEAKS>  (280) 
27

>  <MASS SPECTRAL PEAKS>  (280) 
26 1.01
27 1.7
37 1.16
38 4.25
39 16.74
40 1.91
41 3.92
50 6.83
51 9.83
52 4.5
61 1.86
62 5.73
63 16.6
64 6.23
65 35.42
66 1.71
79 2.5
81 3.27
86 1.42
89 14.83
90 8.25
91 99.99
92 17.9
170 15.9
171 1.27
172 15.16
173 1.2

$$$$

     RDKit          2D

  8  8  0  0  0  0  0  0  0  0999 V2000
   -1.3000    0.7500    0.0000 C   0  0  0  0  0  0  0  0  0  0  0  0
   -0.0000   -1.5000    0.0000 C   0  0  0  0  0  0  0  0  0  0  0  0
    0.0000    1.5000    0.0000 C   0  0  0  0  0  0  0  0  0  0  0  0
    1.3000   -0.7500    0.0000 C   0  0  0  0  0  0  0  0  0  0  0  0
   -1.3000   -0.7500    0.0000 C   0  0  0  0  0  0  0  0  0  0  0  0
    1.3000    0.7500    0.0000 C   0  0  0  0  0  0  0  0  0  0  0  0
   -2.5989   -1.5002    0.0000 F   0  0  0  0  0  0  0  0  0  0  0  0
    2.5989    1.5002    0.0000 O   0  0  0  0  0  0  0  0  0  0  0  0
  3  1  2  0
  4  2  1  0
  5  1  1  0
  5  2  2  0
  6  3  1  0
  6  4  2  0
  7  5  1  0
  8  6  1  0
M  END
>  <NAME>  (281) 
4-FLUOROPHENOL

>  <SYNONYMS>  (281) 
PARA-FLUOROPHENOL

>  <SPECTRUM TYPE>  (281) 
MS1

>  <INSTRUMENT TYPE>  (281) 
EI-B

>  <INSTRUMENT>  (281) 
HITACHI M-80A

>  <ION MODE>  (281) 
P

>  <INCHIKEY>  (281) 
RHMPLDJJXGPMEX-UHFFFAOYSA-N

>  <FORMULA>  (281) 
C6H5FO

>  <EXACT MASS>  (281) 
112.032443

>  <MW>  (281) 
112

>  <ID>  (281) 
JP011777

>  <CONTRIBUTOR>  (281) 
University of Tokyo Team, {Faculty of Engineering, University of Tokyo

>  <COMMENT>  (281) 
SMILES=Oc(c1)ccc(F)c1
InChI=InChI=1S/C6H5FO/c7-5-1-3-6(8)4-2-5/h1-4,8H
computed SMILES=FC1=CC=C(O)C=C1
accession=JP011777
date=2016.01.19 (Created 2008.10.21, modified 2011.05.06)
author=TAJIMA S, GUNMA COLLEGE OF TECHNOLOGY
license=CC BY-NC-SA
exact mass=112.03244
ionization energy=70 eV
ion type=[M]+*
computed spectral entropy=2.6734663451477774
computed normalized entropy=0.7403841377247027
SPLASH=splash10-03e9-9400000000-8a68a8d4696988d82cf8
submitter=submitter = University of Tokyo Team (Faculty of Engineering, University of Tokyo)
MoNA Rating=3.75

>  <NUM PEAKS>  (281) 
37

>  <MASS SPECTRAL PEAKS>  (281) 
26 1.5
27 1.36
28 1.88
29 3.13
31 5.34
37 2.95
38 4.17
39 5.52
49 1.47
50 4.44
51 2.86
53 4.09
55 1.79
56 5.91
57 22.39
58 3.74
61 4.41
62 5.69
63 12.81
64 18.58
65 2.79
68 1.48
69 1.19
73 2.9
74 2.11
75 2.55
81 5.92
82 3.17
83 42.21
84 32.85
85 1.66
86 1.15
94 1.33
95 1.07
111 2.67
112 99.99
113 6.34

$$$$

     RDKit          2D

  8  8  0  0  0  0  0  0  0  0999 V2000
   -1.3000    0.7500    0.0000 C   0  0  0  0  0  0  0  0  0  0  0  0
    0.0000    1.5000    0.0000 C   0  0  0  0  0  0  0  0  0  0  0  0
   -1.3000   -0.7500    0.0000 C   0  0  0  0  0  0  0  0  0  0  0  0
    1.3000   -0.7500    0.0000 C   0  0  0  0  0  0  0  0  0  0  0  0
    1.3000    0.7500    0.0000 C   0  0  0  0  0  0  0  0  0  0  0  0
   -0.0000   -1.5000    0.0000 C   0  0  0  0  0  0  0  0  0  0  0  0
    2.5989    1.5002    0.0000 F   0  0  0  0  0  0  0  0  0  0  0  0
   -0.0000   -3.0000    0.0000 F   0  0  0  0  0  0  0  0  0  0  0  0
  2  1  2  0
  3  1  1  0
  5  2  1  0
  5  4  2  0
  6  3  2  0
  6  4  1  0
  7  5  1  0
  8  6  1  0
M  END
>  <NAME>  (282) 
1,3-DIFLUOROBENZENE

>  <SYNONYMS>  (282) 
META-DIFLUOROBENZENE

>  <SPECTRUM TYPE>  (282) 
MS1

>  <INSTRUMENT TYPE>  (282) 
EI-B

>  <INSTRUMENT>  (282) 
HITACHI M-80A

>  <ION MODE>  (282) 
P

>  <INCHIKEY>  (282) 
UEMGWPRHOOEKTA-UHFFFAOYSA-N

>  <FORMULA>  (282) 
C6H4F2

>  <EXACT MASS>  (282) 
114.028106568

>  <MW>  (282) 
114

>  <ID>  (282) 
JP011776

>  <CONTRIBUTOR>  (282) 
University of Tokyo Team, {Faculty of Engineering, University of Tokyo

>  <COMMENT>  (282) 
SMILES=Fc(c1)cc(F)cc1
InChI=InChI=1S/C6H4F2/c7-5-2-1-3-6(8)4-5/h1-4H
computed SMILES=FC1=CC=CC(F)=C1
accession=JP011776
date=2016.01.19 (Created 2008.10.21, modified 2011.05.06)
author=TAJIMA S, GUNMA COLLEGE OF TECHNOLOGY
license=CC BY-NC-SA
exact mass=114.02811
ionization energy=70 eV
ion type=[M]+*
computed spectral entropy=2.411338103467599
computed normalized entropy=0.7161052147524813
SPLASH=splash10-03di-9800000000-e82b87974f5f1f5a434f
submitter=submitter = University of Tokyo Team (Faculty of Engineering, University of Tokyo)
MoNA Rating=3.75

>  <NUM PEAKS>  (282) 
29

>  <MASS SPECTRAL PEAKS>  (282) 
31 4.41
37 2.81
38 2.91
39 1.88
49 1.5
50 7.92
51 2.2
56 1.87
57 8.44
61 3.01
62 3.64
63 20.88
64 3.15
68 5.27
69 3.3
70 3.51
73 1.22
74 4.09
75 6.42
81 4.47
83 1.52
88 12.86
92 1.46
93 2.13
94 5.81
95 2.92
113 3.72
114 99.99
115 6.16

$$$$

     RDKit          2D

  8  8  0  0  0  0  0  0  0  0999 V2000
   -1.3000    0.7500    0.0000 C   0  0  0  0  0  0  0  0  0  0  0  0
    0.0000    1.5000    0.0000 C   0  0  0  0  0  0  0  0  0  0  0  0
   -1.3000   -0.7500    0.0000 C   0  0  0  0  0  0  0  0  0  0  0  0
    1.3000    0.7500    0.0000 C   0  0  0  0  0  0  0  0  0  0  0  0
    0.0000   -1.5000    0.0000 C   0  0  0  0  0  0  0  0  0  0  0  0
    1.3000   -0.7500    0.0000 C   0  0  0  0  0  0  0  0  0  0  0  0
   -0.0000   -3.0000    0.0000 F   0  0  0  0  0  0  0  0  0  0  0  0
    2.5989   -1.5002    0.0000 F   0  0  0  0  0  0  0  0  0  0  0  0
  2  1  2  0
  3  1  1  0
  4  2  1  0
  5  3  2  0
  6  4  2  0
  6  5  1  0
  7  5  1  0
  8  6  1  0
M  END
>  <NAME>  (283) 
1,2-DIFLUOROBENZENE

>  <SYNONYMS>  (283) 
ORTHO-DIFLUOROBENZENE

>  <SPECTRUM TYPE>  (283) 
MS1

>  <INSTRUMENT TYPE>  (283) 
EI-B

>  <INSTRUMENT>  (283) 
HITACHI M-80A

>  <ION MODE>  (283) 
P

>  <INCHIKEY>  (283) 
GOYDNIKZWGIXJT-UHFFFAOYSA-N

>  <FORMULA>  (283) 
C6H4F2

>  <EXACT MASS>  (283) 
114.028106568

>  <MW>  (283) 
114

>  <ID>  (283) 
JP011775

>  <CONTRIBUTOR>  (283) 
University of Tokyo Team, {Faculty of Engineering, University of Tokyo

>  <COMMENT>  (283) 
SMILES=Fc(c1)c(F)ccc1
InChI=InChI=1S/C6H4F2/c7-5-3-1-2-4-6(5)8/h1-4H
computed SMILES=FC=1C=CC=CC1F
accession=JP011775
date=2016.01.19 (Created 2008.10.21, modified 2011.05.06)
author=TAJIMA S, GUNMA COLLEGE OF TECHNOLOGY
license=CC BY-NC-SA
exact mass=114.02811
ionization energy=70 eV
ion type=[M]+*
computed spectral entropy=3.2366781089102115
computed normalized entropy=0.8553160443914805
SPLASH=splash10-03di-9200000000-a10128a6a1fbba03d510
submitter=submitter = University of Tokyo Team (Faculty of Engineering, University of Tokyo)
MoNA Rating=3.75

>  <NUM PEAKS>  (283) 
44

>  <MASS SPECTRAL PEAKS>  (283) 
26 7.71
27 1.96
31 38.7
33 2.57
36 5.85
37 23.96
38 18.28
39 10.22
44 4.19
45 2.14
48 2.69
49 9.64
50 29.33
51 10.88
55 2.21
56 12.72
57 20.97
60 3.52
61 15.26
62 15.5
63 49.15
64 7.05
68 16.94
69 9.63
70 6.34
73 5.49
74 15.26
75 18.91
76 1.38
79 1.07
80 2.1
81 11.73
82 1.66
83 5.1
87 2.42
88 26.09
92 3.83
93 4.88
94 14.72
95 8.53
99 1.24
113 3.43
114 99.99
115 5.06

$$$$

     RDKit          2D

  8  8  0  0  0  0  0  0  0  0999 V2000
   -0.0005    1.5008    0.0000 C   0  0  0  0  0  0  0  0  0  0  0  0
   -1.2995    0.7508    0.0000 C   0  0  0  0  0  0  0  0  0  0  0  0
    1.2995   -0.7508    0.0000 C   0  0  0  0  0  0  0  0  0  0  0  0
    0.0005   -1.5008    0.0000 C   0  0  0  0  0  0  0  0  0  0  0  0
    1.2990    0.7500    0.0000 C   0  0  0  0  0  0  0  0  0  0  0  0
   -1.2990   -0.7500    0.0000 C   0  0  0  0  0  0  0  0  0  0  0  0
    2.5981    1.5000    0.0000 O   0  0  0  0  0  0  0  0  0  0  0  0
   -2.5981   -1.5000    0.0000 O   0  0  0  0  0  0  0  0  0  0  0  0
  2  1  2  0
  4  3  1  0
  5  1  1  0
  5  3  2  0
  6  2  1  0
  6  4  2  0
  7  5  1  0
  8  6  1  0
M  END
>  <NAME>  (284) 
1,4-DIHYDROXYBENZENE

>  <SYNONYMS>  (284) 
HYDROQUINONE

>  <SPECTRUM TYPE>  (284) 
MS1

>  <INSTRUMENT TYPE>  (284) 
EI-B

>  <INSTRUMENT>  (284) 
HITACHI M-80A

>  <ION MODE>  (284) 
P

>  <INCHIKEY>  (284) 
QIGBRXMKCJKVMJ-UHFFFAOYSA-N

>  <FORMULA>  (284) 
C6H6O2

>  <EXACT MASS>  (284) 
110.036779432

>  <MW>  (284) 
110

>  <ID>  (284) 
JP011774

>  <CONTRIBUTOR>  (284) 
University of Tokyo Team, {Faculty of Engineering, University of Tokyo

>  <COMMENT>  (284) 
SMILES=Oc(c1)ccc(O)c1
InChI=InChI=1S/C6H6O2/c7-5-1-2-6(8)4-3-5/h1-4,7-8H
computed SMILES=OC1=CC=C(O)C=C1
accession=JP011774
date=2016.01.19 (Created 2008.10.21, modified 2011.05.06)
author=TAJIMA S, GUNMA COLLEGE OF TECHNOLOGY
license=CC BY-NC-SA
exact mass=110.03678
ionization energy=70 eV
ion type=[M]+*
computed spectral entropy=2.8074153037832192
computed normalized entropy=0.7961225984086814
SPLASH=splash10-03e9-9300000000-f8b11742557329691e8a
submitter=submitter = University of Tokyo Team (Faculty of Engineering, University of Tokyo)
MoNA Rating=3.75

>  <NUM PEAKS>  (284) 
34

>  <MASS SPECTRAL PEAKS>  (284) 
26 9.05
27 16
29 9.92
31 1.02
37 3.28
38 5.02
39 18.6
40 1.78
41 1.43
42 3.26
43 2.01
49 2.02
50 6.78
51 8.49
52 7.38
53 36.94
54 18.53
55 26.51
56 2.15
61 3.93
62 5.52
63 9.32
64 5.87
65 2.78
66 1.3
69 3.61
79 1.1
81 48.49
82 16.96
83 1.02
109 9.48
110 99.99
111 13.05
112 1.1

$$$$

     RDKit          2D

  8  8  0  0  0  0  0  0  0  0999 V2000
   -1.9467    1.4939    0.0000 C   0  0  0  0  0  0  0  0  0  0  0  0
   -0.6477    2.2439    0.0000 C   0  0  0  0  0  0  0  0  0  0  0  0
   -1.9512    0.0017    0.0000 C   0  0  0  0  0  0  0  0  0  0  0  0
    0.6473    0.0009    0.0000 C   0  0  0  0  0  0  0  0  0  0  0  0
    0.6468    1.5017    0.0000 C   0  0  0  0  0  0  0  0  0  0  0  0
   -0.6517   -0.7491    0.0000 C   0  0  0  0  0  0  0  0  0  0  0  0
    1.9446    2.2539    0.0000 O   0  0  0  0  0  0  0  0  0  0  0  0
   -0.6520   -2.2491    0.0000 O   0  0  0  0  0  0  0  0  0  0  0  0
  2  1  2  0
  3  1  1  0
  5  2  1  0
  5  4  2  0
  6  3  2  0
  6  4  1  0
  7  5  1  0
  8  6  1  0
M  END
>  <NAME>  (285) 
1,3-DIHYDROXYBENZENE

>  <SYNONYMS>  (285) 
RESORCINOL

>  <SPECTRUM TYPE>  (285) 
MS1

>  <INSTRUMENT TYPE>  (285) 
EI-B

>  <INSTRUMENT>  (285) 
HITACHI M-80A

>  <ION MODE>  (285) 
P

>  <INCHIKEY>  (285) 
GHMLBKRAJCXXBS-UHFFFAOYSA-N

>  <FORMULA>  (285) 
C6H6O2

>  <EXACT MASS>  (285) 
110.036779432

>  <MW>  (285) 
110

>  <ID>  (285) 
JP011773

>  <CONTRIBUTOR>  (285) 
University of Tokyo Team, {Faculty of Engineering, University of Tokyo

>  <COMMENT>  (285) 
SMILES=Oc(c1)cc(O)cc1
InChI=InChI=1S/C6H6O2/c7-5-2-1-3-6(8)4-5/h1-4,7-8H
computed SMILES=OC1=CC=CC(O)=C1
accession=JP011773
date=2016.01.19 (Created 2008.10.21, modified 2011.05.06)
author=TAJIMA S, GUNMA COLLEGE OF TECHNOLOGY
license=CC BY-NC-SA
exact mass=110.03678
ionization energy=70 eV
ion type=[M]+*
computed spectral entropy=3.0443672970223004
computed normalized entropy=0.8309856885412339
SPLASH=splash10-03e9-9300000000-fcd22d3e2208eda085dd
submitter=submitter = University of Tokyo Team (Faculty of Engineering, University of Tokyo)
MoNA Rating=3.75

>  <NUM PEAKS>  (285) 
39

>  <MASS SPECTRAL PEAKS>  (285) 
26 3.62
27 10.88
29 10.36
37 5.77
38 10.8
39 22.72
40 3.33
41 5.73
42 7.57
43 4.85
49 2.8
50 9.01
51 10.9
52 6.95
53 29.87
54 10.98
55 15.95
56 1.1
61 4.71
62 7.26
63 14.2
64 10.96
65 4.04
66 3.08
68 4.55
69 19.14
70 1.13
71 3.43
74 1.02
79 1.5
81 41.76
82 30.25
83 1.67
92 1.9
95 3.57
109 4.22
110 99.99
111 12.05
112 1.25

$$$$

     RDKit          2D

 17 16  0  0  0  0  0  0  0  0999 V2000
    1.7596    5.3350    0.0000 C   0  0  0  0  0  0  0  0  0  0  0  0
   -8.6327    5.3350    0.0000 C   0  0  0  0  0  0  0  0  0  0  0  0
   -4.3388    0.2178    0.0000 C   0  0  0  0  0  0  0  0  0  0  0  0
    1.4463    3.5578    0.0000 C   0  0  0  0  0  0  0  0  0  0  0  0
    0.4606    6.0850    0.0000 C   0  0  0  0  0  0  0  0  0  0  0  0
   -7.3336    6.0850    0.0000 C   0  0  0  0  0  0  0  0  0  0  0  0
   -4.8518    1.6273    0.0000 C   0  0  0  0  0  0  0  0  0  0  0  0
   -0.0309    3.2973    0.0000 C   0  0  0  0  0  0  0  0  0  0  0  0
   -0.8384    5.3350    0.0000 C   0  0  0  0  0  0  0  0  0  0  0  0
   -6.0346    5.3350    0.0000 C   0  0  0  0  0  0  0  0  0  0  0  0
   -3.8877    2.7764    0.0000 C   0  0  0  0  0  0  0  0  0  0  0  0
   -0.9951    4.4464    0.0000 C   0  0  0  0  0  0  0  0  0  0  0  0
   -3.4365    5.3350    0.0000 C   0  0  0  0  0  0  0  0  0  0  0  0
   -2.1375    6.0850    0.0000 O   0  0  0  0  0  0  0  0  0  0  0  0
   -4.7356    6.0850    0.0000 O   0  0  0  0  0  0  0  0  0  0  0  0
   -4.4007    4.1859    0.0000 O   0  0  0  0  0  0  0  0  0  0  0  0
   -2.4723    4.1859    0.0000 O   0  0  0  0  0  0  0  0  0  0  0  0
  5  1  1  0
  6  2  1  0
  7  3  1  0
  8  4  1  0
  9  5  1  0
 10  6  1  0
 11  7  1  0
 12  8  1  0
 14  9  1  0
 14 13  1  0
 15 10  1  0
 15 13  1  0
 16 11  1  0
 16 13  1  0
 17 12  1  0
 17 13  1  0
M  END
>  <NAME>  (286) 
TETRAPROPOXYMETHANE

>  <SYNONYMS>  (286) 


>  <SPECTRUM TYPE>  (286) 
MS1

>  <INSTRUMENT TYPE>  (286) 
EI-B

>  <INSTRUMENT>  (286) 
HITACHI M-80A

>  <ION MODE>  (286) 
P

>  <INCHIKEY>  (286) 
LFMXSZSVDQJYDU-UHFFFAOYSA-N

>  <FORMULA>  (286) 
C13H28O4

>  <EXACT MASS>  (286) 
248.198759376

>  <MW>  (286) 
248

>  <ID>  (286) 
JP011772

>  <CONTRIBUTOR>  (286) 
University of Tokyo Team, {Faculty of Engineering, University of Tokyo

>  <COMMENT>  (286) 
SMILES=CCCOC(OCCC)(OCCC)OCCC
InChI=InChI=1S/C13H28O4/c1-5-9-14-13(15-10-6-2,16-11-7-3)17-12-8-4/h5-12H2,1-4H3
computed SMILES=O(CCC)C(OCCC)(OCCC)OCCC
date=2016.01.19 (Created 2008.10.21, modified 2011.05.06)
author=TAJIMA S, GUNMA COLLEGE OF TECHNOLOGY
license=CC BY-NC-SA
exact mass=248.19876
ionization energy=70 eV
ion type=[M]+*
computed spectral entropy=2.285529905796167
accession=JP011772
computed normalized entropy=0.7289217419649711
SPLASH=splash10-06rf-9700000000-03c15dc78feeee303cac
submitter=submitter = University of Tokyo Team (Faculty of Engineering, University of Tokyo)
MoNA Rating=3.75

>  <NUM PEAKS>  (286) 
23

>  <MASS SPECTRAL PEAKS>  (286) 
27 18.13
29 8.86
30 1.44
31 8.25
39 4.95
40 1.17
41 25.11
42 8.41
43 86.48
44 3.07
59 7.63
61 1.23
63 88.93
64 1.18
76 2.68
104 1.27
105 67.03
106 3.08
147 24.47
148 1.93
189 99.99
190 11.61
191 1.42

$$$$

     RDKit          2D

 11 11  0  0  0  0  0  0  0  0999 V2000
    4.5401   -0.3765    0.0000 C   0  0  0  0  0  0  0  0  0  0  0  0
   -3.2546   -0.3812    0.0000 C   0  0  0  0  0  0  0  0  0  0  0  0
    0.6471   -2.6191    0.0000 C   0  0  0  0  0  0  0  0  0  0  0  0
    1.9416   -1.8769    0.0000 C   0  0  0  0  0  0  0  0  0  0  0  0
   -0.6520   -1.8691    0.0000 C   0  0  0  0  0  0  0  0  0  0  0  0
    0.6430    0.3740    0.0000 C   0  0  0  0  0  0  0  0  0  0  0  0
    3.2412    0.3737    0.0000 C   0  0  0  0  0  0  0  0  0  0  0  0
    1.9421   -0.3760    0.0000 C   0  0  0  0  0  0  0  0  0  0  0  0
   -0.6565   -0.3769    0.0000 C   0  0  0  0  0  0  0  0  0  0  0  0
    3.2415    1.8737    0.0000 O   0  0  0  0  0  0  0  0  0  0  0  0
   -1.9568    0.3709    0.0000 O   0  0  0  0  0  0  0  0  0  0  0  0
  4  3  2  0
  5  3  1  0
  7  1  1  0
  8  4  1  0
  8  6  2  0
  8  7  1  0
  9  5  2  0
  9  6  1  0
 10  7  2  0
 11  2  1  0
 11  9  1  0
M  END
>  <NAME>  (287) 
META-METHOXYACETOPHENONE

>  <SYNONYMS>  (287) 
META-ACETYLANISOLE

>  <SPECTRUM TYPE>  (287) 
MS1

>  <INSTRUMENT TYPE>  (287) 
EI-B

>  <INSTRUMENT>  (287) 
HITACHI M-80A

>  <ION MODE>  (287) 
P

>  <INCHIKEY>  (287) 
BAYUSCHCCGXLAY-UHFFFAOYSA-N

>  <FORMULA>  (287) 
C9H10O2

>  <EXACT MASS>  (287) 
150.06807956

>  <MW>  (287) 
150

>  <ID>  (287) 
JP011771

>  <CONTRIBUTOR>  (287) 
University of Tokyo Team, {Faculty of Engineering, University of Tokyo

>  <COMMENT>  (287) 
SMILES=COc(c1)cc(cc1)C(C)=O
InChI=InChI=1S/C9H10O2/c1-7(10)8-4-3-5-9(6-8)11-2/h3-6H,1-2H3
computed SMILES=O=C(C=1C=CC=C(OC)C1)C
accession=JP011771
author=TAJIMA S, GUNMA COLLEGE OF TECHNOLOGY
license=CC BY-NC-SA
exact mass=150.06808
date=2016.01.19 (Created 2008.10.21, modified 2011.05.06)
ionization energy=70 eV
ion type=[M]+*
computed spectral entropy=2.532252640494665
computed normalized entropy=0.7520137131832687
SPLASH=splash10-0f79-6900000000-9fa2d0bc92f056e89b2b
submitter=submitter = University of Tokyo Team (Faculty of Engineering, University of Tokyo)
MoNA Rating=3.75

>  <NUM PEAKS>  (287) 
29

>  <MASS SPECTRAL PEAKS>  (287) 
29 1.7
38 3
39 3.2
42 1.77
43 18.67
50 5.77
51 4.78
52 1.64
53 1.62
62 3.45
63 12.24
64 12.4
65 3.94
74 3.23
75 2.5
76 5.26
77 29.42
78 5.6
79 2.55
91 2.46
92 22.58
93 1.81
107 33.69
108 2.89
120 1
135 99.99
136 6.72
150 58.52
151 4.58

$$$$

     RDKit          2D

 11 11  0  0  0  0  0  0  0  0999 V2000
    1.9487    3.0002    0.0000 C   0  0  0  0  0  0  0  0  0  0  0  0
    1.9487   -3.0002    0.0000 C   0  0  0  0  0  0  0  0  0  0  0  0
   -1.9500    0.7500    0.0000 C   0  0  0  0  0  0  0  0  0  0  0  0
   -1.9500   -0.7500    0.0000 C   0  0  0  0  0  0  0  0  0  0  0  0
   -0.6500    1.5000    0.0000 C   0  0  0  0  0  0  0  0  0  0  0  0
   -0.6500   -1.5000    0.0000 C   0  0  0  0  0  0  0  0  0  0  0  0
    1.9489    1.5002    0.0000 C   0  0  0  0  0  0  0  0  0  0  0  0
    0.6500    0.7500    0.0000 C   0  0  0  0  0  0  0  0  0  0  0  0
    0.6500   -0.7500    0.0000 C   0  0  0  0  0  0  0  0  0  0  0  0
    3.2481    0.7504    0.0000 O   0  0  0  0  0  0  0  0  0  0  0  0
    1.9489   -1.5002    0.0000 O   0  0  0  0  0  0  0  0  0  0  0  0
  4  3  2  0
  5  3  1  0
  6  4  1  0
  7  1  1  0
  8  5  2  0
  8  7  1  0
  9  6  2  0
  9  8  1  0
 10  7  2  0
 11  2  1  0
 11  9  1  0
M  END
>  <NAME>  (288) 
ORTHO-METHOXYACETOPHENONE

>  <SYNONYMS>  (288) 
ORTHO-ACETYLANISOLE

>  <SPECTRUM TYPE>  (288) 
MS1

>  <INSTRUMENT TYPE>  (288) 
EI-B

>  <INSTRUMENT>  (288) 
HITACHI M-80A

>  <ION MODE>  (288) 
P

>  <INCHIKEY>  (288) 
DWPLEOPKBWNPQV-UHFFFAOYSA-N

>  <FORMULA>  (288) 
C9H10O2

>  <EXACT MASS>  (288) 
150.06807956

>  <MW>  (288) 
150

>  <ID>  (288) 
JP011770

>  <CONTRIBUTOR>  (288) 
University of Tokyo Team, {Faculty of Engineering, University of Tokyo

>  <COMMENT>  (288) 
SMILES=COc(c1)c(ccc1)C(C)=O
InChI=InChI=1S/C9H10O2/c1-7(10)8-5-3-4-6-9(8)11-2/h3-6H,1-2H3
computed SMILES=O=C(C=1C=CC=CC1OC)C
accession=JP011770
date=2016.01.19 (Created 2008.10.21, modified 2011.05.06)
author=TAJIMA S, GUNMA COLLEGE OF TECHNOLOGY
license=CC BY-NC-SA
exact mass=150.06808
ionization energy=70 eV
ion type=[M]+*
computed spectral entropy=2.7669686264115048
computed normalized entropy=0.7606606427762614
SPLASH=splash10-000i-9700000000-676b8bbe30b58c5fa762
submitter=submitter = University of Tokyo Team (Faculty of Engineering, University of Tokyo)
MoNA Rating=3.75

>  <NUM PEAKS>  (288) 
38

>  <MASS SPECTRAL PEAKS>  (288) 
27 1.58
29 2.49
31 1.51
37 1.05
38 3.45
39 5.06
42 1.65
43 18.31
50 6.92
51 9.88
52 2.77
53 2.45
58 1
61 1.18
62 3.05
63 10.94
64 8.18
65 5.43
74 2.55
75 2.14
76 3.89
77 37.07
78 9.54
79 4.35
89 1.39
91 3.35
92 20.69
93 2.49
104 1.09
105 3.45
107 2.03
120 4.85
121 5.46
133 1.48
135 99.99
136 8.85
150 17.54
151 1.16

$$$$

     RDKit          2D

  8  8  0  0  0  0  0  0  0  0999 V2000
    0.6513   -2.2440    0.0000 C   0  0  0  0  0  0  0  0  0  0  0  0
    1.9458   -1.5018    0.0000 C   0  0  0  0  0  0  0  0  0  0  0  0
   -0.6478   -1.4940    0.0000 C   0  0  0  0  0  0  0  0  0  0  0  0
    1.9463   -0.0009    0.0000 C   0  0  0  0  0  0  0  0  0  0  0  0
   -0.6523   -0.0018    0.0000 C   0  0  0  0  0  0  0  0  0  0  0  0
    0.6472    0.7491    0.0000 C   0  0  0  0  0  0  0  0  0  0  0  0
   -1.9526    0.7460    0.0000 O   0  0  0  0  0  0  0  0  0  0  0  0
    0.6470    2.2491    0.0000 O   0  0  0  0  0  0  0  0  0  0  0  0
  2  1  2  0
  3  1  1  0
  4  2  1  0
  5  3  2  0
  6  4  2  0
  6  5  1  0
  7  5  1  0
  8  6  1  0
M  END
>  <NAME>  (289) 
CATECHOL

>  <SYNONYMS>  (289) 
ORTHO-DIHYDROXYBENZENE

>  <SPECTRUM TYPE>  (289) 
MS1

>  <INSTRUMENT TYPE>  (289) 
EI-B

>  <INSTRUMENT>  (289) 
HITACHI M-80A

>  <ION MODE>  (289) 
P

>  <INCHIKEY>  (289) 
YCIMNLLNPGFGHC-UHFFFAOYSA-N

>  <FORMULA>  (289) 
C6H6O2

>  <EXACT MASS>  (289) 
110.036779432

>  <MW>  (289) 
110

>  <ID>  (289) 
JP011769

>  <CONTRIBUTOR>  (289) 
University of Tokyo Team, {Faculty of Engineering, University of Tokyo

>  <COMMENT>  (289) 
SMILES=Oc(c1)c(O)ccc1
InChI=InChI=1S/C6H6O2/c7-5-3-1-2-4-6(5)8/h1-4,7-8H
computed SMILES=OC=1C=CC=CC1O
accession=JP011769
ionization energy=70 eV
date=2016.01.19 (Created 2008.10.21, modified 2011.05.06)
author=TAJIMA S, GUNMA COLLEGE OF TECHNOLOGY
license=CC BY-NC-SA
exact mass=110.03678
ion type=[M]+*
computed spectral entropy=2.781758062765231
computed normalized entropy=0.7955818810237396
SPLASH=splash10-03di-9400000000-90885264baa17f65d954
submitter=submitter = University of Tokyo Team (Faculty of Engineering, University of Tokyo)
MoNA Rating=3.75

>  <NUM PEAKS>  (289) 
33

>  <MASS SPECTRAL PEAKS>  (289) 
26 4.28
27 10.37
29 6.68
37 3.56
38 7.36
39 11.04
40 1.05
42 1.95
43 1.49
46 1.28
49 2.69
50 9.3
51 10.71
52 7.76
53 19.6
54 6.22
55 10.13
61 2.55
62 5.26
63 28.34
64 50.09
65 4.78
66 1.73
77 1.26
79 1.56
80 1.02
81 23.18
82 6.56
92 16.73
93 1.86
109 5.7
110 99.99
111 15.37

$$$$

     RDKit          2D

  8  8  0  0  0  0  0  0  0  0999 V2000
   -1.3000    0.7500    0.0000 C   0  0  0  0  0  0  0  0  0  0  0  0
    0.0000    1.5000    0.0000 C   0  0  0  0  0  0  0  0  0  0  0  0
   -1.3000   -0.7500    0.0000 C   0  0  0  0  0  0  0  0  0  0  0  0
    1.3000    0.7500    0.0000 C   0  0  0  0  0  0  0  0  0  0  0  0
    0.0000   -1.5000    0.0000 C   0  0  0  0  0  0  0  0  0  0  0  0
    1.3000   -0.7500    0.0000 C   0  0  0  0  0  0  0  0  0  0  0  0
   -0.0000   -3.0000    0.0000 F   0  0  0  0  0  0  0  0  0  0  0  0
    2.5989   -1.5002    0.0000 O   0  0  0  0  0  0  0  0  0  0  0  0
  2  1  2  0
  3  1  1  0
  4  2  1  0
  5  3  2  0
  6  4  2  0
  6  5  1  0
  7  5  1  0
  8  6  1  0
M  END
>  <NAME>  (290) 
ORTHO-FLUOROPHENOL

>  <SYNONYMS>  (290) 
2-FLUOROPHENOL

>  <SPECTRUM TYPE>  (290) 
MS1

>  <INSTRUMENT TYPE>  (290) 
EI-B

>  <INSTRUMENT>  (290) 
HITACHI M-80A

>  <ION MODE>  (290) 
P

>  <INCHIKEY>  (290) 
HFHFGHLXUCOHLN-UHFFFAOYSA-N

>  <FORMULA>  (290) 
C6H5FO

>  <EXACT MASS>  (290) 
112.032443

>  <MW>  (290) 
112

>  <ID>  (290) 
JP011768

>  <CONTRIBUTOR>  (290) 
University of Tokyo Team, {Faculty of Engineering, University of Tokyo

>  <COMMENT>  (290) 
SMILES=Oc(c1)c(F)ccc1
InChI=InChI=1S/C6H5FO/c7-5-3-1-2-4-6(5)8/h1-4,8H
computed SMILES=FC=1C=CC=CC1O
accession=JP011768
date=2016.01.19 (Created 2008.10.21, modified 2011.05.06)
author=TAJIMA S, GUNMA COLLEGE OF TECHNOLOGY
license=CC BY-NC-SA
exact mass=112.03244
ionization energy=70 eV
ion type=[M]+*
computed spectral entropy=3.2257026723083544
computed normalized entropy=0.8049499562939952
SPLASH=splash10-03di-9200000000-26c5660c866c158228f0
submitter=submitter = University of Tokyo Team (Faculty of Engineering, University of Tokyo)
MoNA Rating=3.75

>  <NUM PEAKS>  (290) 
55

>  <MASS SPECTRAL PEAKS>  (290) 
26 3.13
27 3.05
29 6.05
31 10.34
33 1.34
37 7.94
38 14.13
39 14.48
40 1.34
41 1.15
42 1.97
43 8.31
44 1.57
45 3.01
49 3.64
50 10.71
51 6.99
52 1.56
53 10.02
55 4.01
56 17.44
57 41.96
58 7.37
60 2.04
61 9.04
62 13.14
63 52.93
64 67.8
65 11.06
66 3.36
68 4.22
69 3.44
70 1.56
71 1.02
73 6.87
74 4.72
75 4.93
76 1.72
77 1.13
79 1.45
80 2.4
81 12.43
82 5.22
83 49.65
84 9.23
86 1.15
91 1.34
92 43.6
93 4.04
94 2.17
95 1.38
110 1.43
111 5.58
112 99.99
113 23.18

$$$$

     RDKit          2D

 11 11  0  0  0  0  0  0  0  0999 V2000
   -1.9500    0.7500    0.0000 C   0  0  0  0  0  0  0  0  0  0  0  0
   -1.9500   -0.7500    0.0000 C   0  0  0  0  0  0  0  0  0  0  0  0
   -0.6500    1.5000    0.0000 C   0  0  0  0  0  0  0  0  0  0  0  0
   -0.6500   -1.5000    0.0000 C   0  0  0  0  0  0  0  0  0  0  0  0
    0.6500    0.7500    0.0000 C   0  0  0  0  0  0  0  0  0  0  0  0
    0.6500   -0.7500    0.0000 C   0  0  0  0  0  0  0  0  0  0  0  0
    1.9489    1.5002    0.0000 C   0  0  0  0  0  0  0  0  0  0  0  0
    2.6991    0.2013    0.0000 F   0  0  0  0  0  0  0  0  0  0  0  0
    3.2478    2.2504    0.0000 F   0  0  0  0  0  0  0  0  0  0  0  0
    1.1987    2.7991    0.0000 F   0  0  0  0  0  0  0  0  0  0  0  0
    1.9489   -1.5002    0.0000 O   0  0  0  0  0  0  0  0  0  0  0  0
  2  1  2  0
  3  1  1  0
  4  2  1  0
  5  3  2  0
  6  4  2  0
  6  5  1  0
  7  5  1  0
  8  7  1  0
  9  7  1  0
 10  7  1  0
 11  6  1  0
M  END
>  <NAME>  (291) 
2,2,2-TRIFLUORO-META-CRESOL

>  <SYNONYMS>  (291) 
META-HYDROXYBENZOTRIFLUORIDE

>  <SPECTRUM TYPE>  (291) 
MS1

>  <INSTRUMENT TYPE>  (291) 
EI-B

>  <INSTRUMENT>  (291) 
HITACHI M-80A

>  <ION MODE>  (291) 
P

>  <INCHIKEY>  (291) 
ZOQOPXVJANRGJZ-UHFFFAOYSA-N

>  <FORMULA>  (291) 
C7H5F3O

>  <EXACT MASS>  (291) 
162.02924944

>  <MW>  (291) 
162

>  <ID>  (291) 
JP011767

>  <CONTRIBUTOR>  (291) 
University of Tokyo Team, {Faculty of Engineering, University of Tokyo

>  <COMMENT>  (291) 
SMILES=Oc(c1)c(ccc1)C(F)(F)F
InChI=InChI=1S/C7H5F3O/c8-7(9,10)5-3-1-2-4-6(5)11/h1-4,11H
computed SMILES=FC(F)(F)C=1C=CC=CC1O
accession=JP011767
date=2016.01.19 (Created 2008.10.21, modified 2011.05.06)
author=TAJIMA S, GUNMA COLLEGE OF TECHNOLOGY
license=CC BY-NC-SA
exact mass=162.02925
ionization energy=70 eV
ion type=[M]+*
computed spectral entropy=3.3577258927618434
computed normalized entropy=0.8269358501130619
SPLASH=splash10-03di-8900000000-e5568cbdd3c4450d2517
submitter=submitter = University of Tokyo Team (Faculty of Engineering, University of Tokyo)
MoNA Rating=3.75

>  <NUM PEAKS>  (291) 
58

>  <MASS SPECTRAL PEAKS>  (291) 
27 2.61
29 5.6
31 3.88
37 6.83
38 15.24
39 34.45
40 1.45
42 1.36
49 1.7
50 10.67
51 5.5
53 8.09
55 1.64
56 1.82
57 9.33
61 5.84
62 11.02
63 30.06
64 9.65
65 20.89
66 2.89
67 1.1
68 1.91
69 13.95
70 1.3
72 1.66
73 1.59
74 5.19
75 11.68
76 1.47
81 3.61
83 12.22
84 7.67
87 1.61
88 8.3
89 1.75
92 2.31
93 2.72
94 1.59
95 6.49
99 2.06
112 31.79
113 12.19
114 42.09
115 5
123 1.83
125 2.06
132 2.55
133 7.53
134 1.68
141 3.86
142 1.05
143 47.09
144 4.51
145 7.28
161 9.46
162 99.99
163 8.1

$$$$

     RDKit          2D

  7  6  0  0  0  0  0  0  0  0999 V2000
   -2.5111    2.0993    0.0000 C   0  0  0  0  0  0  0  0  0  0  0  0
   -1.2120    1.3493    0.0000 C   0  0  0  0  0  0  0  0  0  0  0  0
    0.0870    2.0993    0.0000 C   0  0  0  0  0  0  0  0  0  0  0  0
    0.8370    0.8002    0.0000 F   0  0  0  0  0  0  0  0  0  0  0  0
    1.3861    2.8493    0.0000 F   0  0  0  0  0  0  0  0  0  0  0  0
   -0.6630    3.3983    0.0000 F   0  0  0  0  0  0  0  0  0  0  0  0
   -1.2120   -0.1507    0.0000 O   0  0  0  0  0  0  0  0  0  0  0  0
  2  1  1  0
  3  2  1  0
  4  3  1  0
  5  3  1  0
  6  3  1  0
  7  2  2  0
M  END
>  <NAME>  (292) 
1,1,1-TRIFLUOROACETONE

>  <SYNONYMS>  (292) 


>  <SPECTRUM TYPE>  (292) 
MS1

>  <INSTRUMENT TYPE>  (292) 
EI-B

>  <INSTRUMENT>  (292) 
HITACHI M-80A

>  <ION MODE>  (292) 
P

>  <INCHIKEY>  (292) 
FHUDAMLDXFJHJE-UHFFFAOYSA-N

>  <FORMULA>  (292) 
C3H3F3O

>  <EXACT MASS>  (292) 
112.013599376

>  <MW>  (292) 
112

>  <ID>  (292) 
JP011766

>  <CONTRIBUTOR>  (292) 
University of Tokyo Team, {Faculty of Engineering, University of Tokyo

>  <COMMENT>  (292) 
SMILES=CC(=O)C(F)(F)F
InChI=InChI=1S/C3H3F3O/c1-2(7)3(4,5)6/h1H3
computed SMILES=O=C(C)C(F)(F)F
accession=JP011766
date=2016.01.19 (Created 2008.10.21, modified 2011.05.06)
author=TAJIMA S, GUNMA COLLEGE OF TECHNOLOGY
license=CC BY-NC-SA
exact mass=112.0136
ionization energy=70 eV
ion type=[M]+*
computed spectral entropy=1.8094063769335382
computed normalized entropy=0.6260116443465956
SPLASH=splash10-00kf-9000000000-11dbb8873168018b095f
submitter=submitter = University of Tokyo Team (Faculty of Engineering, University of Tokyo)
MoNA Rating=3.75

>  <NUM PEAKS>  (292) 
18

>  <MASS SPECTRAL PEAKS>  (292) 
14 6.17
15 57.35
26 1.75
27 1.17
29 2.48
31 6.83
33 1.84
41 2.85
42 12.03
43 99.99
44 3.24
50 6.58
51 1.23
59 1.11
69 32.48
75 1.08
78 1.42
97 1.22

$$$$

     RDKit          2D

 26 29  0  0  0  0  0  0  0  0999 V2000
    3.3490    2.4510    0.0000 C   0  0  0  0  0  0  0  0  0  0  0  0
    3.8981    4.5000    0.0000 C   0  0  0  0  0  0  0  0  0  0  0  0
    1.8490    5.0490    0.0000 C   0  0  0  0  0  0  0  0  0  0  0  0
    0.7870    4.4095    0.0000 C   0  0  0  0  0  0  0  0  0  0  0  0
    5.2000   -0.7500    0.0000 C   0  0  0  0  0  0  0  0  0  0  0  0
   -3.0703    6.1896    0.0000 C   0  0  0  0  0  0  0  0  0  0  0  0
    5.2000    0.7500    0.0000 C   0  0  0  0  0  0  0  0  0  0  0  0
   -1.5930    6.4500    0.0000 C   0  0  0  0  0  0  0  0  0  0  0  0
   -0.0000   -0.7500    0.0000 C   0  0  0  0  0  0  0  0  0  0  0  0
   -2.1673    1.0686    0.0000 C   0  0  0  0  0  0  0  0  0  0  0  0
    3.9000   -1.5000    0.0000 C   0  0  0  0  0  0  0  0  0  0  0  0
   -3.5831    4.7791    0.0000 C   0  0  0  0  0  0  0  0  0  0  0  0
    1.3000   -1.5000    0.0000 C   0  0  0  0  0  0  0  0  0  0  0  0
   -3.1316    2.2186    0.0000 C   0  0  0  0  0  0  0  0  0  0  0  0
    3.9000    1.5000    0.0000 C   0  0  0  0  0  0  0  0  0  0  0  0
   -0.6287    5.3000    0.0000 C   0  0  0  0  0  0  0  0  0  0  0  0
   -0.0000    0.7500    0.0000 C   0  0  0  0  0  0  0  0  0  0  0  0
   -0.6901    1.3290    0.0000 C   0  0  0  0  0  0  0  0  0  0  0  0
    2.6000   -0.7500    0.0000 C   0  0  0  0  0  0  0  0  0  0  0  0
   -2.6188    3.6291    0.0000 C   0  0  0  0  0  0  0  0  0  0  0  0
    2.6000    0.7500    0.0000 C   0  0  0  0  0  0  0  0  0  0  0  0
   -1.1416    3.8895    0.0000 C   0  0  0  0  0  0  0  0  0  0  0  0
    1.3000    1.5000    0.0000 C   0  0  0  0  0  0  0  0  0  0  0  0
   -0.1772    2.7395    0.0000 C   0  0  0  0  0  0  0  0  0  0  0  0
    2.5990    3.7500    0.0000 Si  0  0  0  0  0  4  0  0  0  0  0  0
    1.3000    3.0000    0.0000 Si  0  0  0  0  0  4  0  0  0  0  0  0
  7  5  2  0
  8  6  2  0
 11  5  1  0
 12  6  1  0
 13  9  2  0
 14 10  2  0
 15  7  1  0
 16  8  1  0
 17  9  1  0
 18 10  1  0
 19 11  2  0
 19 13  1  0
 20 12  2  0
 20 14  1  0
 21 15  2  0
 21 19  1  0
 22 16  2  0
 22 20  1  0
 23 17  2  0
 23 21  1  0
 24 18  2  0
 24 22  1  0
 25  1  1  0
 25  2  1  0
 25  3  1  0
 26  4  1  0
 26 23  1  0
 26 24  1  0
 26 25  1  0
M  END
>  <NAME>  (293) 
1,2,2,2-(TETRAMETHYL)-1,1-DI(1-NAPHTHYL)DISILANE

>  <SYNONYMS>  (293) 


>  <SPECTRUM TYPE>  (293) 
MS1

>  <INSTRUMENT TYPE>  (293) 
EI-B

>  <INSTRUMENT>  (293) 
SHIMADZU QP-1000

>  <ION MODE>  (293) 
P

>  <INCHIKEY>  (293) 
GEYWEFDIDTUDMB-UHFFFAOYSA-N

>  <FORMULA>  (293) 
C24H26Si2

>  <EXACT MASS>  (293) 
370.157303892

>  <MW>  (293) 
370

>  <ID>  (293) 
JP011765

>  <CONTRIBUTOR>  (293) 
University of Tokyo Team, {Faculty of Engineering, University of Tokyo

>  <COMMENT>  (293) 
SMILES=[Si](C)([Si](C)(C)C)(c(c3)c(c4)c(ccc4)cc3)c(c1)c(c2)c(ccc2)cc1
InChI=InChI=1S/C24H26Si2/c1-25(2,3)26(4,23-17-9-13-19-11-5-7-15-21(19)23)24-18-10-14-20-12-6-8-16-22(20)24/h5-18H,1-4H3
computed SMILES=C=1C=CC2=C(C1)C=CC=C2[Si](C3=CC=CC=4C=CC=CC43)(C)[Si](C)(C)C
accession=JP011765
date=2016.01.19 (Created 2008.10.21, modified 2011.05.06)
author=FAC. TECHNOLOGY, HIROSHIMA UNIV.
license=CC BY-NC-SA
exact mass=370.1573
ionization energy=70 eV
ion type=[M]+*
computed spectral entropy=3.19471182496855
computed normalized entropy=0.777136913105214
SPLASH=splash10-00kb-2972000000-fb5bc3157ae493505baa
submitter=submitter = University of Tokyo Team (Faculty of Engineering, University of Tokyo)
MoNA Rating=3.75

>  <NUM PEAKS>  (293) 
61

>  <MASS SPECTRAL PEAKS>  (293) 
43 15.2
45 19.2
46 1.3
53 6.4
55 1
57 1.3
59 2.4
73 22.3
77 1.6
103 2.2
105 1.3
115 3
129 8.5
130 1.3
131 1.7
141 2.1
142 1
143 2.4
145 2.9
153 2.1
154 4
155 15.1
156 2.6
157 1.4
167 22.9
168 6.3
169 71.3
170 15.1
171 4.4
181 2.1
182 1.3
183 5.1
184 1.5
185 33.7
186 6.3
187 1.7
225 1
227 11.8
228 2.8
229 1.6
241 1.2
242 1.6
252 5.8
253 2.3
255 1
265 1.6
278 1.2
279 2.1
281 2.8
282 1.4
295 3.7
296 2
297 99.99
298 29.6
299 7.1
300 1.1
311 2.7
355 1.7
370 33.6
371 12.7
372 4.9

$$$$

     RDKit          2D

 26 29  0  0  0  0  0  0  0  0999 V2000
    2.5990   -3.7500    0.0000 C   0  0  0  0  0  0  0  0  0  0  0  0
    2.5990    3.7500    0.0000 C   0  0  0  0  0  0  0  0  0  0  0  0
   -2.5978   -5.2521    0.0000 C   0  0  0  0  0  0  0  0  0  0  0  0
   -2.5993    5.2496    0.0000 C   0  0  0  0  0  0  0  0  0  0  0  0
   -2.5976   -3.7512    0.0000 C   0  0  0  0  0  0  0  0  0  0  0  0
   -1.2987   -6.0019    0.0000 C   0  0  0  0  0  0  0  0  0  0  0  0
   -1.2994    5.9998    0.0000 C   0  0  0  0  0  0  0  0  0  0  0  0
   -2.5990    3.7496    0.0000 C   0  0  0  0  0  0  0  0  0  0  0  0
   -2.6000   -0.7500    0.0000 C   0  0  0  0  0  0  0  0  0  0  0  0
   -2.6000    0.7500    0.0000 C   0  0  0  0  0  0  0  0  0  0  0  0
   -1.2982   -3.0002    0.0000 C   0  0  0  0  0  0  0  0  0  0  0  0
    0.0007   -5.2508    0.0000 C   0  0  0  0  0  0  0  0  0  0  0  0
    0.0007    5.2500    0.0000 C   0  0  0  0  0  0  0  0  0  0  0  0
   -1.2989    2.9998    0.0000 C   0  0  0  0  0  0  0  0  0  0  0  0
   -1.3000   -1.5000    0.0000 C   0  0  0  0  0  0  0  0  0  0  0  0
   -1.3000    1.5000    0.0000 C   0  0  0  0  0  0  0  0  0  0  0  0
    2.6000   -0.7500    0.0000 C   0  0  0  0  0  0  0  0  0  0  0  0
    2.6000    0.7500    0.0000 C   0  0  0  0  0  0  0  0  0  0  0  0
    0.0010   -3.7500    0.0000 C   0  0  0  0  0  0  0  0  0  0  0  0
    0.0010    3.7500    0.0000 C   0  0  0  0  0  0  0  0  0  0  0  0
    0.0000   -0.7500    0.0000 C   0  0  0  0  0  0  0  0  0  0  0  0
    0.0000    0.7500    0.0000 C   0  0  0  0  0  0  0  0  0  0  0  0
    1.3000   -1.5000    0.0000 C   0  0  0  0  0  0  0  0  0  0  0  0
    1.3000    1.5000    0.0000 C   0  0  0  0  0  0  0  0  0  0  0  0
    1.3000   -3.0000    0.0000 Si  0  0  0  0  0  4  0  0  0  0  0  0
    1.3000    3.0000    0.0000 Si  0  0  0  0  0  4  0  0  0  0  0  0
  5  3  2  0
  6  3  1  0
  7  4  2  0
  8  4  1  0
 10  9  2  0
 11  5  1  0
 12  6  2  0
 13  7  1  0
 14  8  2  0
 15  9  1  0
 16 10  1  0
 18 17  1  0
 19 11  2  0
 19 12  1  0
 20 13  2  0
 20 14  1  0
 21 15  2  0
 22 16  2  0
 22 21  1  0
 23 17  2  0
 23 21  1  0
 24 18  2  0
 24 22  1  0
 25  1  1  0
 25 19  1  0
 25 23  1  0
 26  2  1  0
 26 20  1  0
 26 24  1  0
M  END
>  <NAME>  (294) 
1,4-BIS(METHLPHENYLSILYL)NAPHTHALENE

>  <SYNONYMS>  (294) 


>  <SPECTRUM TYPE>  (294) 
MS1

>  <INSTRUMENT TYPE>  (294) 
EI-B

>  <INSTRUMENT>  (294) 
SHIMADZU QP-1000

>  <ION MODE>  (294) 
P

>  <INCHIKEY>  (294) 
TXCYFZLDBJCYCD-UHFFFAOYSA-N

>  <FORMULA>  (294) 
C24H24Si2

>  <EXACT MASS>  (294) 
368.141653828

>  <MW>  (294) 
368

>  <ID>  (294) 
JP011764

>  <CONTRIBUTOR>  (294) 
University of Tokyo Team, {Faculty of Engineering, University of Tokyo

>  <COMMENT>  (294) 
SMILES=c(c4)ccc(c4)[SiH](C)c(c2)c(c3)c(ccc3)c(c2)[SiH](C)c(c1)cccc1
InChI=InChI=1S/C24H24Si2/c1-25(19-11-5-3-6-12-19)23-17-18-24(22-16-10-9-15-21(22)23)26(2)20-13-7-4-8-14-20/h3-18,25-26H,1-2H3
computed SMILES=C=1C=CC(=CC1)[SiH](C=2C=CC(=C3C=CC=CC32)[SiH](C=4C=CC=CC4)C)C
accession=JP011764
date=2016.01.19 (Created 2008.10.21, modified 2011.05.06)
author=FAC. TECHNOLOGY, HIROSHIMA UNIV.
license=CC BY-NC-SA
exact mass=368.14165
ionization energy=70 eV
ion type=[M]+*
computed spectral entropy=3.7773004998017923
computed normalized entropy=0.8133037424778602
SPLASH=splash10-00kb-4974000000-99ab4d71924e773634b0
submitter=submitter = University of Tokyo Team (Faculty of Engineering, University of Tokyo)
MoNA Rating=3.75

>  <NUM PEAKS>  (294) 
104

>  <MASS SPECTRAL PEAKS>  (294) 
32 3.8
39 2.2
43 53.4
45 5.2
50 1.3
51 2.9
52 1.1
53 14.7
55 2.5
59 1.1
65 1
67 2.3
69 2.9
77 3.3
78 3.6
79 5.8
81 2
91 5.8
93 4.3
95 4.8
97 1.1
98 3
103 4.1
104 1.4
105 36.7
106 8.7
107 3.6
115 1.5
117 1.1
119 5.4
120 5.5
121 26.5
122 3.9
123 1.5
128 1
129 6.3
130 5.2
131 2.2
135 6.6
136 3.1
137 5.3
142 1
143 2.6
144 4.6
145 6.6
153 2
154 1.6
155 8.5
156 1.5
165 1.2
167 6.8
168 2.4
169 21.7
170 5.3
171 2.9
179 2
181 2.5
183 3.4
185 1.7
195 3.2
197 50.6
198 9.6
199 2.9
202 2.9
203 1.3
205 2.5
212 5.6
213 2.3
215 3.5
229 2.8
230 1.9
231 9.6
232 3.1
233 2.2
240 1.3
241 1.3
243 1
245 7.3
246 2.4
247 99.99
248 23.7
249 6.2
250 1.1
257 1.2
271 1.6
273 2.2
275 13.3
276 4.1
277 1.8
289 2.6
290 5
291 1.8
307 1.1
309 6.8
310 1.8
323 1.8
351 1.2
353 5
354 2.1
367 3.5
368 70.7
369 25.4
370 8.9
371 2

$$$$

     RDKit          2D

 26 29  0  0  0  0  0  0  0  0999 V2000
    4.4483   -0.5487    0.0000 C   0  0  0  0  0  0  0  0  0  0  0  0
    6.4972    0.0006    0.0000 C   0  0  0  0  0  0  0  0  0  0  0  0
    5.9479    2.0496    0.0000 C   0  0  0  0  0  0  0  0  0  0  0  0
    4.8629    2.6494    0.0000 C   0  0  0  0  0  0  0  0  0  0  0  0
   -2.6000   -0.7500    0.0000 C   0  0  0  0  0  0  0  0  0  0  0  0
    0.5544    7.5096    0.0000 C   0  0  0  0  0  0  0  0  0  0  0  0
   -2.6000    0.7500    0.0000 C   0  0  0  0  0  0  0  0  0  0  0  0
    2.0316    7.7701    0.0000 C   0  0  0  0  0  0  0  0  0  0  0  0
   -1.3000   -1.5000    0.0000 C   0  0  0  0  0  0  0  0  0  0  0  0
    0.0415    6.0992    0.0000 C   0  0  0  0  0  0  0  0  0  0  0  0
   -1.3000    1.5000    0.0000 C   0  0  0  0  0  0  0  0  0  0  0  0
    2.9959    6.6201    0.0000 C   0  0  0  0  0  0  0  0  0  0  0  0
    1.3000   -1.5000    0.0000 C   0  0  0  0  0  0  0  0  0  0  0  0
    0.4930    3.5387    0.0000 C   0  0  0  0  0  0  0  0  0  0  0  0
    2.6000   -0.7500    0.0000 C   0  0  0  0  0  0  0  0  0  0  0  0
    1.4573    2.3886    0.0000 C   0  0  0  0  0  0  0  0  0  0  0  0
    1.3000    1.5000    0.0000 C   0  0  0  0  0  0  0  0  0  0  0  0
    3.4474    4.0596    0.0000 C   0  0  0  0  0  0  0  0  0  0  0  0
    0.0000   -0.7500    0.0000 C   0  0  0  0  0  0  0  0  0  0  0  0
    1.0059    4.9491    0.0000 C   0  0  0  0  0  0  0  0  0  0  0  0
    0.0000    0.7500    0.0000 C   0  0  0  0  0  0  0  0  0  0  0  0
    2.4831    5.2096    0.0000 C   0  0  0  0  0  0  0  0  0  0  0  0
    2.6000    0.7500    0.0000 C   0  0  0  0  0  0  0  0  0  0  0  0
    2.9346    2.6491    0.0000 C   0  0  0  0  0  0  0  0  0  0  0  0
    5.1981    0.7504    0.0000 Si  0  0  0  0  0  4  0  0  0  0  0  0
    3.8989    1.5002    0.0000 Si  0  0  0  0  0  4  0  0  0  0  0  0
  7  5  2  0
  8  6  2  0
  9  5  1  0
 10  6  1  0
 11  7  1  0
 12  8  1  0
 15 13  2  0
 16 14  2  0
 19  9  2  0
 19 13  1  0
 20 10  2  0
 20 14  1  0
 21 11  2  0
 21 17  1  0
 21 19  1  0
 22 12  2  0
 22 18  1  0
 22 20  1  0
 23 15  1  0
 23 17  2  0
 24 16  1  0
 24 18  2  0
 25  1  1  0
 25  2  1  0
 25  3  1  0
 26  4  1  0
 26 23  1  0
 26 24  1  0
 26 25  1  0
M  END
>  <NAME>  (295) 
1,2,2,2-TETRAMETHYL-1,1-DI(2-NAPHTHYL)DISILANE

>  <SYNONYMS>  (295) 


>  <SPECTRUM TYPE>  (295) 
MS1

>  <INSTRUMENT TYPE>  (295) 
EI-B

>  <INSTRUMENT>  (295) 
SHIMADZU QP-1000

>  <ION MODE>  (295) 
P

>  <INCHIKEY>  (295) 
BCRNXLPGCYHFLZ-UHFFFAOYSA-N

>  <FORMULA>  (295) 
C24H26Si2

>  <EXACT MASS>  (295) 
370.15730389199996

>  <MW>  (295) 
370

>  <ID>  (295) 
JP011762

>  <CONTRIBUTOR>  (295) 
University of Tokyo Team, {Faculty of Engineering, University of Tokyo

>  <COMMENT>  (295) 
SMILES=[Si](C)([Si](C)(C)C)(c(c3)cc(c4)c(ccc4)c3)c(c1)cc(c2)c(ccc2)c1
InChI=InChI=1S/C24H26Si2/c1-25(2,3)26(4,23-15-13-19-9-5-7-11-21(19)17-23)24-16-14-20-10-6-8-12-22(20)18-24/h5-18H,1-4H3
computed SMILES=C=1C=CC=2C=C(C=CC2C1)[Si](C=3C=CC=4C=CC=CC4C3)(C)[Si](C)(C)C
accession=JP011762
date=2016.01.19 (Created 2008.10.21, modified 2011.05.06)
author=FAC. TECHNOLOGY, HIROSHIMA UNIV.
license=CC BY-NC-SA
exact mass=370.1573
ionization energy=70 eV
ion type=[M]+*
computed spectral entropy=3.3280408312770446
computed normalized entropy=0.7807390954225268
SPLASH=splash10-0002-4961000000-651504d2d410b0a074c0
submitter=submitter = University of Tokyo Team (Faculty of Engineering, University of Tokyo)
MoNA Rating=3.75

>  <NUM PEAKS>  (295) 
71

>  <MASS SPECTRAL PEAKS>  (295) 
40 2
41 1.4
43 23.7
45 19.9
46 1.3
50 1.1
51 1.2
53 9.3
55 1.8
57 2.2
58 1.6
59 3.5
63 1
73 24.2
75 1.7
77 2.3
103 2.5
105 1.8
115 3.8
116 2.4
117 1.3
119 1
127 1.2
128 2.5
129 9.7
130 1.6
131 2
141 2.9
142 1.1
143 3
145 2.7
153 2.2
154 1.9
155 17.4
156 3.1
157 1.5
167 20.5
168 5.2
169 44.7
170 9.5
171 3
181 2.2
182 1.2
183 3.7
184 1.4
185 49
186 9.2
187 2.3
227 9
228 2.4
229 1.1
241 1.1
242 1.6
252 4
253 1.6
255 1
265 2.7
278 1.2
279 2
280 1.1
281 2.5
295 2.4
296 1.4
297 99.99
298 27.1
299 6.9
300 1.3
355 1.8
370 22.5
371 8.5
372 3.1

$$$$

     RDKit          2D

 26 29  0  0  0  0  0  0  0  0999 V2000
    2.5990    3.7500    0.0000 C   0  0  0  0  0  0  0  0  0  0  0  0
    1.1511    4.8634    0.0000 C   0  0  0  0  0  0  0  0  0  0  0  0
    3.3500    3.9526    0.0000 C   0  0  0  0  0  0  0  0  0  0  0  0
    3.6607    6.3123    0.0000 C   0  0  0  0  0  0  0  0  0  0  0  0
   -2.6000   -0.7500    0.0000 C   0  0  0  0  0  0  0  0  0  0  0  0
   -2.6000    0.7500    0.0000 C   0  0  0  0  0  0  0  0  0  0  0  0
    2.6000   -0.7500    0.0000 C   0  0  0  0  0  0  0  0  0  0  0  0
   -2.5976    3.7492    0.0000 C   0  0  0  0  0  0  0  0  0  0  0  0
    0.0024    8.2525    0.0000 C   0  0  0  0  0  0  0  0  0  0  0  0
   -1.3000   -1.5000    0.0000 C   0  0  0  0  0  0  0  0  0  0  0  0
    1.3000   -1.5000    0.0000 C   0  0  0  0  0  0  0  0  0  0  0  0
   -2.5971    5.2500    0.0000 C   0  0  0  0  0  0  0  0  0  0  0  0
   -1.2971    7.5017    0.0000 C   0  0  0  0  0  0  0  0  0  0  0  0
   -1.3000    1.5000    0.0000 C   0  0  0  0  0  0  0  0  0  0  0  0
    2.6000    0.7500    0.0000 C   0  0  0  0  0  0  0  0  0  0  0  0
   -1.2986    2.9992    0.0000 C   0  0  0  0  0  0  0  0  0  0  0  0
    1.3014    7.5025    0.0000 C   0  0  0  0  0  0  0  0  0  0  0  0
    0.0000   -0.7500    0.0000 C   0  0  0  0  0  0  0  0  0  0  0  0
   -1.2976    6.0008    0.0000 C   0  0  0  0  0  0  0  0  0  0  0  0
    0.0000    0.7500    0.0000 C   0  0  0  0  0  0  0  0  0  0  0  0
    1.3000    1.5000    0.0000 C   0  0  0  0  0  0  0  0  0  0  0  0
    0.0010    3.7500    0.0000 C   0  0  0  0  0  0  0  0  0  0  0  0
    1.3010    6.0017    0.0000 C   0  0  0  0  0  0  0  0  0  0  0  0
    0.0014    5.2508    0.0000 C   0  0  0  0  0  0  0  0  0  0  0  0
    1.3000    3.0000    0.0000 Si  0  0  0  0  0  4  0  0  0  0  0  0
    2.6000    5.2517    0.0000 Si  0  0  0  0  0  4  0  0  0  0  0  0
  6  5  2  0
 10  5  1  0
 11  7  2  0
 12  8  2  0
 13  9  1  0
 14  6  1  0
 15  7  1  0
 16  8  1  0
 17  9  2  0
 18 10  2  0
 18 11  1  0
 19 12  1  0
 19 13  2  0
 20 14  2  0
 20 18  1  0
 21 15  2  0
 21 20  1  0
 22 16  2  0
 23 17  1  0
 24 19  1  0
 24 22  1  0
 24 23  2  0
 25  1  1  0
 25 21  1  0
 25 22  1  0
 26  2  1  0
 26  3  1  0
 26  4  1  0
 26 23  1  0
M  END
>  <NAME>  (296) 
8-(TRIMETHYLSILYL)-1-(METHYL(1-NAPHTHYL)SILYL)NAPHTHALENE

>  <SYNONYMS>  (296) 


>  <SPECTRUM TYPE>  (296) 
MS1

>  <INSTRUMENT TYPE>  (296) 
EI-B

>  <INSTRUMENT>  (296) 
SHIMADZU QP-1000

>  <ION MODE>  (296) 
P

>  <INCHIKEY>  (296) 
RIUNZCLGVCVFFH-UHFFFAOYSA-N

>  <FORMULA>  (296) 
C24H26Si2

>  <EXACT MASS>  (296) 
370.15730389199996

>  <MW>  (296) 
370

>  <ID>  (296) 
JP011761

>  <CONTRIBUTOR>  (296) 
University of Tokyo Team, {Faculty of Engineering, University of Tokyo

>  <COMMENT>  (296) 
SMILES=c(c4)cc(c3)c(c4)c(cc3)[SiH](C)c(c2)c(c1cc2)c(ccc1)[Si](C)(C)C
InChI=InChI=1S/C24H26Si2/c1-25(21-15-7-11-18-10-5-6-14-20(18)21)22-16-8-12-19-13-9-17-23(24(19)22)26(2,3)4/h5-17,25H,1-4H3
computed SMILES=C=1C=CC2=C(C1)C=CC=C2[SiH](C=3C=CC=C4C=CC=C(C43)[Si](C)(C)C)C
accession=JP011761
date=2016.01.19 (Created 2008.10.21, modified 2011.05.06)
author=FAC. TECHNOLOGY, HIROSHIMA UNIV.
license=CC BY-NC-SA
exact mass=370.1573
ionization energy=70 eV
ion type=[M]+*
computed spectral entropy=3.244751599947159
computed normalized entropy=0.7773000898472653
SPLASH=splash10-0002-5890000000-7ff65f57d721145b92bc
submitter=submitter = University of Tokyo Team (Faculty of Engineering, University of Tokyo)
MoNA Rating=3.75

>  <NUM PEAKS>  (296) 
65

>  <MASS SPECTRAL PEAKS>  (296) 
43 26.6
45 22.5
53 4.9
55 1.1
57 1.4
59 8.4
73 40.1
75 1.6
77 1.2
103 1.4
105 1.4
115 2.2
128 1.8
129 5
130 1
131 1.3
141 2.2
143 2.1
145 6
146 1.1
153 1.7
154 2.4
155 10.6
156 1.8
157 1.1
167 14.8
168 4.8
169 44.3
170 9.6
171 8.9
172 1.3
181 2.2
182 1.2
183 5.5
184 1.6
185 33.7
186 6.3
187 1.7
195 1.3
197 1.2
211 1
227 9.1
228 2.4
229 1.4
252 6.1
253 2.2
265 1.1
278 1.2
279 1.9
280 1
281 4.3
282 1.6
293 1
295 7.5
296 8.7
297 99.99
298 35.4
299 6.5
300 1.1
311 1.6
355 3.6
356 1.4
370 8.6
371 3
372 1.1

$$$$

     RDKit          2D

 10 10  0  0  0  0  0  0  0  0999 V2000
   -0.0000   -3.0000    0.0000 C   0  0  0  0  0  0  0  0  0  0  0  0
    3.8981   -0.7504    0.0000 C   0  0  0  0  0  0  0  0  0  0  0  0
   -1.3000    0.7500    0.0000 C   0  0  0  0  0  0  0  0  0  0  0  0
    0.0000    1.5000    0.0000 C   0  0  0  0  0  0  0  0  0  0  0  0
   -1.3000   -0.7500    0.0000 C   0  0  0  0  0  0  0  0  0  0  0  0
    1.3000    0.7500    0.0000 C   0  0  0  0  0  0  0  0  0  0  0  0
    0.0000   -1.5000    0.0000 C   0  0  0  0  0  0  0  0  0  0  0  0
    1.3000   -0.7500    0.0000 C   0  0  0  0  0  0  0  0  0  0  0  0
    2.5987   -3.0002    0.0000 Cl  0  0  0  0  0  0  0  0  0  0  0  0
    2.5989   -1.5002    0.0000 Si  0  0  0  0  0  4  0  0  0  0  0  0
  4  3  2  0
  5  3  1  0
  6  4  1  0
  7  1  1  0
  7  5  2  0
  8  6  2  0
  8  7  1  0
 10  2  1  0
 10  8  1  0
 10  9  1  0
M  END
>  <NAME>  (297) 
CHLORO(ORTHO-TOLYL)METHYLSILANE

>  <SYNONYMS>  (297) 


>  <SPECTRUM TYPE>  (297) 
MS1

>  <INSTRUMENT TYPE>  (297) 
EI-B

>  <INSTRUMENT>  (297) 
SHIMADZU QP-1000

>  <ION MODE>  (297) 
P

>  <INCHIKEY>  (297) 
IXIOLGYXQUHGAH-UHFFFAOYSA-N

>  <FORMULA>  (297) 
C8H11ClSi

>  <EXACT MASS>  (297) 
170.031854562

>  <MW>  (297) 
170

>  <ID>  (297) 
JP011760

>  <CONTRIBUTOR>  (297) 
University of Tokyo Team, {Faculty of Engineering, University of Tokyo

>  <COMMENT>  (297) 
SMILES=Cc(c1)c(ccc1)[SiH](C)Cl
InChI=InChI=1S/C8H11ClSi/c1-7-5-3-4-6-8(7)10(2)9/h3-6,10H,1-2H3
computed SMILES=Cl[SiH](C=1C=CC=CC1C)C
accession=JP011760
date=2016.01.19 (Created 2008.10.21, modified 2011.05.06)
author=FAC. TECHNOLOGY, HIROSHIMA UNIV.
license=CC BY-NC-SA
exact mass=170.03185
ionization energy=70 eV
ion type=[M]+*
computed spectral entropy=3.2810572535346916
computed normalized entropy=0.8013632471992005
SPLASH=splash10-06tf-9400000000-e133a4981eed9351997b
submitter=submitter = University of Tokyo Team (Faculty of Engineering, University of Tokyo)
MoNA Rating=3.75

>  <NUM PEAKS>  (297) 
60

>  <MASS SPECTRAL PEAKS>  (297) 
36 9.8
38 5.6
39 23.8
41 7.7
43 21.2
45 4.4
50 4.5
51 8.6
53 16.5
54 2.4
55 2.5
56 1.8
57 3.1
61 1.4
63 99.99
65 52.8
67 6.5
69 1.1
73 2.9
78 48.9
79 27.2
80 18.7
84 1.7
85 1.2
88 4.7
89 6.6
91 82.2
92 80.1
94 13.3
95 2
103 4.8
104 1.3
105 11.9
107 3.1
109 1.6
117 2.7
119 10.2
120 1.4
121 1.1
122 2
124 2.1
131 2.3
133 3.1
134 3.4
135 5.7
136 1.8
137 1.6
138 1.2
141 2.6
153 1.6
154 1.6
155 71.9
156 9.4
157 24.9
158 3
169 25.9
171 15.8
172 16.6
173 2.4
176 46.9

$$$$

     RDKit          2D

 26 29  0  0  0  0  0  0  0  0999 V2000
   -5.1981   -0.7504    0.0000 C   0  0  0  0  0  0  0  0  0  0  0  0
    5.1981   -0.7504    0.0000 C   0  0  0  0  0  0  0  0  0  0  0  0
   -3.8968   -6.0019    0.0000 C   0  0  0  0  0  0  0  0  0  0  0  0
    3.8996   -6.0019    0.0000 C   0  0  0  0  0  0  0  0  0  0  0  0
   -5.1965   -5.2515    0.0000 C   0  0  0  0  0  0  0  0  0  0  0  0
   -2.5980   -5.2515    0.0000 C   0  0  0  0  0  0  0  0  0  0  0  0
    2.6001   -5.2510    0.0000 C   0  0  0  0  0  0  0  0  0  0  0  0
    5.1987   -5.2519    0.0000 C   0  0  0  0  0  0  0  0  0  0  0  0
   -5.1975   -3.7506    0.0000 C   0  0  0  0  0  0  0  0  0  0  0  0
   -2.5989   -3.7506    0.0000 C   0  0  0  0  0  0  0  0  0  0  0  0
    2.5996   -3.7502    0.0000 C   0  0  0  0  0  0  0  0  0  0  0  0
    5.1982   -3.7510    0.0000 C   0  0  0  0  0  0  0  0  0  0  0  0
   -1.3000    1.5000    0.0000 C   0  0  0  0  0  0  0  0  0  0  0  0
    1.3000    1.5000    0.0000 C   0  0  0  0  0  0  0  0  0  0  0  0
   -2.6000    0.7500    0.0000 C   0  0  0  0  0  0  0  0  0  0  0  0
    2.6000    0.7500    0.0000 C   0  0  0  0  0  0  0  0  0  0  0  0
   -1.3000   -1.5000    0.0000 C   0  0  0  0  0  0  0  0  0  0  0  0
    1.3000   -1.5000    0.0000 C   0  0  0  0  0  0  0  0  0  0  0  0
    0.0000    0.7500    0.0000 C   0  0  0  0  0  0  0  0  0  0  0  0
    0.0000   -0.7500    0.0000 C   0  0  0  0  0  0  0  0  0  0  0  0
   -3.8987   -3.0002    0.0000 C   0  0  0  0  0  0  0  0  0  0  0  0
    3.8987   -3.0002    0.0000 C   0  0  0  0  0  0  0  0  0  0  0  0
   -2.6000   -0.7500    0.0000 C   0  0  0  0  0  0  0  0  0  0  0  0
    2.6000   -0.7500    0.0000 C   0  0  0  0  0  0  0  0  0  0  0  0
   -3.8989   -1.5002    0.0000 Si  0  0  0  0  0  4  0  0  0  0  0  0
    3.8989   -1.5002    0.0000 Si  0  0  0  0  0  4  0  0  0  0  0  0
  5  3  2  0
  6  3  1  0
  7  4  2  0
  8  4  1  0
  9  5  1  0
 10  6  2  0
 11  7  1  0
 12  8  2  0
 15 13  2  0
 16 14  1  0
 19 13  1  0
 19 14  2  0
 20 17  1  0
 20 18  2  0
 20 19  1  0
 21  9  2  0
 21 10  1  0
 22 11  2  0
 22 12  1  0
 23 15  1  0
 23 17  2  0
 24 16  2  0
 24 18  1  0
 25  1  1  0
 25 21  1  0
 25 23  1  0
 26  2  1  0
 26 22  1  0
 26 24  1  0
M  END
>  <NAME>  (298) 
2,7-BIS(METHYLPHENYLSILYL)NAPHTHALENE

>  <SYNONYMS>  (298) 


>  <SPECTRUM TYPE>  (298) 
MS1

>  <INSTRUMENT TYPE>  (298) 
EI-B

>  <INSTRUMENT>  (298) 
SHIMADZU QP-1000

>  <ION MODE>  (298) 
P

>  <INCHIKEY>  (298) 
BDNUKGQZZTVCSN-UHFFFAOYSA-N

>  <FORMULA>  (298) 
C24H24Si2

>  <EXACT MASS>  (298) 
368.141653828

>  <MW>  (298) 
368

>  <ID>  (298) 
JP011759

>  <CONTRIBUTOR>  (298) 
University of Tokyo Team, {Faculty of Engineering, University of Tokyo

>  <COMMENT>  (298) 
SMILES=c(c4)ccc(c4)[SiH](C)c(c1)cc(c2)c(ccc2[SiH](C)c(c3)cccc3)c1
InChI=InChI=1S/C24H24Si2/c1-25(21-9-5-3-6-10-21)23-15-13-19-14-16-24(18-20(19)17-23)26(2)22-11-7-4-8-12-22/h3-18,25-26H,1-2H3
computed SMILES=C=1C=CC(=CC1)[SiH](C2=CC=C3C=CC(=CC3=C2)[SiH](C=4C=CC=CC4)C)C
accession=JP011759
date=2016.01.19 (Created 2008.10.21, modified 2011.05.06)
author=FAC. TECHNOLOGY, HIROSHIMA UNIV.
license=CC BY-NC-SA
exact mass=368.14165
ionization energy=70 eV
ion type=[M]+*
computed spectral entropy=3.400819176024345
computed normalized entropy=0.7926468534833828
SPLASH=splash10-0002-0693000000-1cd7a31e6606aac9a150
submitter=submitter = University of Tokyo Team (Faculty of Engineering, University of Tokyo)
MoNA Rating=3.75

>  <NUM PEAKS>  (298) 
73

>  <MASS SPECTRAL PEAKS>  (298) 
43 9.7
53 2.4
78 1
79 1.3
91 2.3
93 1.3
95 1.9
103 1.3
105 17.3
106 2.7
107 1.4
119 2.9
120 3.7
121 19.7
122 2.8
129 3.3
130 4.1
131 1.4
135 3.4
136 1.3
137 3.1
145 1.4
153 1
154 1
155 4.7
167 4.7
168 1.9
169 9
170 2.7
171 1.6
176 1.1
179 1.4
181 2
183 3.2
185 1.9
195 2.4
197 29.7
198 5.9
199 1.7
202 2.1
203 1
205 2
215 2.6
229 3.1
230 1.7
231 8.2
232 2.5
233 2
245 5.7
246 1.7
247 99.99
248 23.7
249 6.1
257 1.2
271 1.1
273 1.3
275 9.5
276 2.8
277 1
290 10.4
291 3.6
292 1.3
309 4.9
310 1.4
323 1.1
353 10
354 3.5
355 1.3
367 3.1
368 39
369 14.4
370 5.2
371 1.1

$$$$

     RDKit          2D

 26 29  0  0  0  0  0  0  0  0999 V2000
   -5.1981   -0.7504    0.0000 C   0  0  0  0  0  0  0  0  0  0  0  0
    5.1981    0.7504    0.0000 C   0  0  0  0  0  0  0  0  0  0  0  0
   -3.8968   -6.0019    0.0000 C   0  0  0  0  0  0  0  0  0  0  0  0
    3.8968    6.0019    0.0000 C   0  0  0  0  0  0  0  0  0  0  0  0
   -5.1965   -5.2515    0.0000 C   0  0  0  0  0  0  0  0  0  0  0  0
   -2.5980   -5.2515    0.0000 C   0  0  0  0  0  0  0  0  0  0  0  0
    5.1965    5.2515    0.0000 C   0  0  0  0  0  0  0  0  0  0  0  0
    2.5980    5.2515    0.0000 C   0  0  0  0  0  0  0  0  0  0  0  0
   -5.1975   -3.7506    0.0000 C   0  0  0  0  0  0  0  0  0  0  0  0
   -2.5989   -3.7506    0.0000 C   0  0  0  0  0  0  0  0  0  0  0  0
    5.1975    3.7506    0.0000 C   0  0  0  0  0  0  0  0  0  0  0  0
    2.5989    3.7506    0.0000 C   0  0  0  0  0  0  0  0  0  0  0  0
   -1.3000    1.5000    0.0000 C   0  0  0  0  0  0  0  0  0  0  0  0
    1.3000   -1.5000    0.0000 C   0  0  0  0  0  0  0  0  0  0  0  0
   -2.6000    0.7500    0.0000 C   0  0  0  0  0  0  0  0  0  0  0  0
    2.6000   -0.7500    0.0000 C   0  0  0  0  0  0  0  0  0  0  0  0
   -1.3000   -1.5000    0.0000 C   0  0  0  0  0  0  0  0  0  0  0  0
    1.3000    1.5000    0.0000 C   0  0  0  0  0  0  0  0  0  0  0  0
    0.0000   -0.7500    0.0000 C   0  0  0  0  0  0  0  0  0  0  0  0
    0.0000    0.7500    0.0000 C   0  0  0  0  0  0  0  0  0  0  0  0
   -3.8987   -3.0002    0.0000 C   0  0  0  0  0  0  0  0  0  0  0  0
    3.8987    3.0002    0.0000 C   0  0  0  0  0  0  0  0  0  0  0  0
   -2.6000   -0.7500    0.0000 C   0  0  0  0  0  0  0  0  0  0  0  0
    2.6000    0.7500    0.0000 C   0  0  0  0  0  0  0  0  0  0  0  0
   -3.8989   -1.5002    0.0000 Si  0  0  0  0  0  4  0  0  0  0  0  0
    3.8989    1.5002    0.0000 Si  0  0  0  0  0  4  0  0  0  0  0  0
  5  3  2  0
  6  3  1  0
  7  4  2  0
  8  4  1  0
  9  5  1  0
 10  6  2  0
 11  7  1  0
 12  8  2  0
 15 13  2  0
 16 14  1  0
 19 14  2  0
 19 17  1  0
 20 13  1  0
 20 18  2  0
 20 19  1  0
 21  9  2  0
 21 10  1  0
 22 11  2  0
 22 12  1  0
 23 15  1  0
 23 17  2  0
 24 16  2  0
 24 18  1  0
 25  1  1  0
 25 21  1  0
 25 23  1  0
 26  2  1  0
 26 22  1  0
 26 24  1  0
M  END
>  <NAME>  (299) 
2,6-BIS(METHYLPHENYLSILYL)NAPHTHALENE

>  <SYNONYMS>  (299) 


>  <SPECTRUM TYPE>  (299) 
MS1

>  <INSTRUMENT TYPE>  (299) 
EI-B

>  <INSTRUMENT>  (299) 
SHIMADZU QP-1000

>  <ION MODE>  (299) 
P

>  <INCHIKEY>  (299) 
PLVAMQPKLWRSLL-UHFFFAOYSA-N

>  <FORMULA>  (299) 
C24H24Si2

>  <EXACT MASS>  (299) 
368.141653828

>  <MW>  (299) 
368

>  <ID>  (299) 
JP011757

>  <CONTRIBUTOR>  (299) 
University of Tokyo Team, {Faculty of Engineering, University of Tokyo

>  <COMMENT>  (299) 
SMILES=c(c4)ccc(c4)[SiH](C)c(c3)cc(c2)c(c3)cc(c2)[SiH](C)c(c1)cccc1
InChI=InChI=1S/C24H24Si2/c1-25(21-9-5-3-6-10-21)23-15-13-20-18-24(16-14-19(20)17-23)26(2)22-11-7-4-8-12-22/h3-18,25-26H,1-2H3
computed SMILES=C=1C=CC(=CC1)[SiH](C2=CC=C3C=C(C=CC3=C2)[SiH](C=4C=CC=CC4)C)C
accession=JP011757
date=2016.01.19 (Created 2008.10.21, modified 2011.05.06)
author=FAC. TECHNOLOGY, HIROSHIMA UNIV.
license=CC BY-NC-SA
exact mass=368.14165
ionization energy=70 eV
ion type=[M]+*
computed spectral entropy=3.399552373034118
computed normalized entropy=0.7949071258843706
SPLASH=splash10-0002-1893000000-3123b85b75e434a97774
submitter=submitter = University of Tokyo Team (Faculty of Engineering, University of Tokyo)
MoNA Rating=3.75

>  <NUM PEAKS>  (299) 
72

>  <MASS SPECTRAL PEAKS>  (299) 
43 14.7
44 1.4
45 1.3
53 3.6
77 1
91 3.5
93 1.8
95 2.4
103 1.6
105 22
106 3.2
107 1.7
119 3.4
121 23.9
122 3.4
123 1.4
129 4.5
130 6
135 3.8
136 1.9
137 4.4
138 2.5
145 1.2
153 1.2
155 6
156 1.1
167 4.8
168 2.2
169 10.5
170 3.1
171 2
175 1
176 1.5
179 1.3
181 1.8
183 3
185 2.3
195 1.9
197 31.6
198 6.1
199 1.7
202 1.9
205 1.7
215 2.2
229 2.2
230 1.2
231 7.5
232 2.2
233 2.6
240 1
245 4.8
246 1.6
247 99.99
248 24.4
249 6
273 1
275 8.4
276 2.6
277 1.1
290 8.8
291 3.1
292 1
309 5.3
310 1.4
323 1
353 8.9
354 3
355 1.2
368 38
369 14.9
370 5.1
372 1.2

$$$$

     RDKit          2D

 26 27  0  0  0  0  0  0  0  0999 V2000
    3.1483   -0.5487    0.0000 C   0  0  0  0  0  0  0  0  0  0  0  0
    5.1972    0.0006    0.0000 C   0  0  0  0  0  0  0  0  0  0  0  0
    4.6479    2.0496    0.0000 C   0  0  0  0  0  0  0  0  0  0  0  0
   -7.0472   -1.7015    0.0000 C   0  0  0  0  0  0  0  0  0  0  0  0
   -9.0962   -2.2508    0.0000 C   0  0  0  0  0  0  0  0  0  0  0  0
   -8.5468   -4.2998    0.0000 C   0  0  0  0  0  0  0  0  0  0  0  0
    3.5629    2.6494    0.0000 C   0  0  0  0  0  0  0  0  0  0  0  0
    1.6346    2.6491    0.0000 C   0  0  0  0  0  0  0  0  0  0  0  0
   -7.4618   -4.8996    0.0000 C   0  0  0  0  0  0  0  0  0  0  0  0
   -5.5335   -4.8993    0.0000 C   0  0  0  0  0  0  0  0  0  0  0  0
   -1.3000    0.7500    0.0000 C   0  0  0  0  0  0  0  0  0  0  0  0
    0.0000   -1.5000    0.0000 C   0  0  0  0  0  0  0  0  0  0  0  0
   -2.5989   -3.0002    0.0000 C   0  0  0  0  0  0  0  0  0  0  0  0
   -3.8989   -0.7502    0.0000 C   0  0  0  0  0  0  0  0  0  0  0  0
    0.0000    1.5000    0.0000 C   0  0  0  0  0  0  0  0  0  0  0  0
    1.3000   -0.7500    0.0000 C   0  0  0  0  0  0  0  0  0  0  0  0
   -3.8989   -3.7502    0.0000 C   0  0  0  0  0  0  0  0  0  0  0  0
   -5.1989   -1.5002    0.0000 C   0  0  0  0  0  0  0  0  0  0  0  0
   -1.3000   -0.7500    0.0000 C   0  0  0  0  0  0  0  0  0  0  0  0
   -2.5989   -1.5002    0.0000 C   0  0  0  0  0  0  0  0  0  0  0  0
    1.3000    0.7500    0.0000 C   0  0  0  0  0  0  0  0  0  0  0  0
   -5.1989   -3.0002    0.0000 C   0  0  0  0  0  0  0  0  0  0  0  0
    3.8981    0.7504    0.0000 Si  0  0  0  0  0  4  0  0  0  0  0  0
   -7.7970   -3.0006    0.0000 Si  0  0  0  0  0  4  0  0  0  0  0  0
    2.5989    1.5002    0.0000 Si  0  0  0  0  0  4  0  0  0  0  0  0
   -6.4978   -3.7504    0.0000 Si  0  0  0  0  0  4  0  0  0  0  0  0
 15 11  2  0
 16 12  1  0
 17 13  2  0
 18 14  1  0
 19 11  1  0
 19 12  2  0
 20 13  1  0
 20 14  2  0
 20 19  1  0
 21 15  1  0
 21 16  2  0
 22 17  1  0
 22 18  2  0
 23  1  1  0
 23  2  1  0
 23  3  1  0
 24  4  1  0
 24  5  1  0
 24  6  1  0
 25  7  1  0
 25  8  1  0
 25 21  1  0
 25 23  1  0
 26  9  1  0
 26 10  1  0
 26 22  1  0
 26 24  1  0
M  END
>  <NAME>  (300) 
4,4'-(PENTAMETHYLDISILANYL)BIPHENYLENE

>  <SYNONYMS>  (300) 


>  <SPECTRUM TYPE>  (300) 
MS1

>  <INSTRUMENT TYPE>  (300) 
EI-B

>  <INSTRUMENT>  (300) 
SHIMADZU QP-1000

>  <ION MODE>  (300) 
P

>  <INCHIKEY>  (300) 
DHBZDKHWHZYFDI-UHFFFAOYSA-N

>  <FORMULA>  (300) 
C22H38Si4

>  <EXACT MASS>  (300) 
414.205057336

>  <MW>  (300) 
414

>  <ID>  (300) 
JP011755

>  <CONTRIBUTOR>  (300) 
University of Tokyo Team, {Faculty of Engineering, University of Tokyo

>  <COMMENT>  (300) 
SMILES=C[Si](C)(C)[Si](C)(C)c(c2)ccc(c2)c(c1)ccc(c1)[Si](C)(C)[Si](C)(C)C
InChI=InChI=1S/C22H38Si4/c1-23(2,3)25(7,8)21-15-11-19(12-16-21)20-13-17-22(18-14-20)26(9,10)24(4,5)6/h11-18H,1-10H3
computed SMILES=C=1C=C(C=CC1C=2C=CC(=CC2)[Si](C)(C)[Si](C)(C)C)[Si](C)(C)[Si](C)(C)C
accession=JP011755
date=2016.01.19 (Created 2008.10.21, modified 2011.05.06)
author=FAC. TECHNOLOGY, HIROSHIMA UNIV.
license=CC BY-NC-SA
exact mass=414.20506
ionization energy=70 eV
ion type=[M]+*
computed spectral entropy=3.1149523726259525
computed normalized entropy=0.7577348455697176
SPLASH=splash10-00yl-9876100000-158b4fd396ca6ec7f58f
submitter=submitter = University of Tokyo Team (Faculty of Engineering, University of Tokyo)
MoNA Rating=3.75

>  <NUM PEAKS>  (300) 
61

>  <MASS SPECTRAL PEAKS>  (300) 
41 1.1
43 8.3
45 21.2
46 1.2
55 1
57 2.2
59 7.7
73 99.99
74 8.1
83 1
101 1.5
115 2.3
116 72.2
118 5.4
119 1.9
120 1.1
131 20.8
133 2.1
134 2.4
155 1
165 2.3
179 1.4
180 1.1
181 3.1
193 3.2
194 1.1
195 10.9
196 2.4
207 1.4
209 4
210 1.1
211 1
221 1.1
223 1.3
224 9.1
225 2.5
235 1.1
237 2.2
251 2.5
253 11.6
254 3.1
255 1.3
267 5.4
268 6.3
269 2.5
283 46.9
284 13.3
285 4.8
311 1.8
325 1.4
326 1.7
341 59.3
342 22.3
343 9.7
344 2
399 4.3
400 2
401 1.1
414 13.4
415 5.9
416 2.9

$$$$

     RDKit          2D

 26 29  0  0  0  0  0  0  0  0999 V2000
   -2.5990   -3.7500    0.0000 C   0  0  0  0  0  0  0  0  0  0  0  0
    2.5990    3.7500    0.0000 C   0  0  0  0  0  0  0  0  0  0  0  0
    2.5993   -5.2496    0.0000 C   0  0  0  0  0  0  0  0  0  0  0  0
   -2.5993    5.2496    0.0000 C   0  0  0  0  0  0  0  0  0  0  0  0
    1.2994   -5.9998    0.0000 C   0  0  0  0  0  0  0  0  0  0  0  0
    2.5990   -3.7496    0.0000 C   0  0  0  0  0  0  0  0  0  0  0  0
   -1.2994    5.9998    0.0000 C   0  0  0  0  0  0  0  0  0  0  0  0
   -2.5990    3.7496    0.0000 C   0  0  0  0  0  0  0  0  0  0  0  0
   -2.6000    0.7500    0.0000 C   0  0  0  0  0  0  0  0  0  0  0  0
    2.6000   -0.7500    0.0000 C   0  0  0  0  0  0  0  0  0  0  0  0
   -0.0007   -5.2500    0.0000 C   0  0  0  0  0  0  0  0  0  0  0  0
    1.2989   -2.9998    0.0000 C   0  0  0  0  0  0  0  0  0  0  0  0
    0.0007    5.2500    0.0000 C   0  0  0  0  0  0  0  0  0  0  0  0
   -1.2989    2.9998    0.0000 C   0  0  0  0  0  0  0  0  0  0  0  0
    1.3000   -1.5000    0.0000 C   0  0  0  0  0  0  0  0  0  0  0  0
   -1.3000    1.5000    0.0000 C   0  0  0  0  0  0  0  0  0  0  0  0
   -2.6000   -0.7500    0.0000 C   0  0  0  0  0  0  0  0  0  0  0  0
    2.6000    0.7500    0.0000 C   0  0  0  0  0  0  0  0  0  0  0  0
   -0.0010   -3.7500    0.0000 C   0  0  0  0  0  0  0  0  0  0  0  0
    0.0010    3.7500    0.0000 C   0  0  0  0  0  0  0  0  0  0  0  0
    0.0000   -0.7500    0.0000 C   0  0  0  0  0  0  0  0  0  0  0  0
    0.0000    0.7500    0.0000 C   0  0  0  0  0  0  0  0  0  0  0  0
   -1.3000   -1.5000    0.0000 C   0  0  0  0  0  0  0  0  0  0  0  0
    1.3000    1.5000    0.0000 C   0  0  0  0  0  0  0  0  0  0  0  0
   -1.3000   -3.0000    0.0000 Si  0  0  0  0  0  4  0  0  0  0  0  0
    1.3000    3.0000    0.0000 Si  0  0  0  0  0  4  0  0  0  0  0  0
  5  3  2  0
  6  3  1  0
  7  4  2  0
  8  4  1  0
 11  5  1  0
 12  6  2  0
 13  7  1  0
 14  8  2  0
 15 10  2  0
 16  9  2  0
 17  9  1  0
 18 10  1  0
 19 11  2  0
 19 12  1  0
 20 13  2  0
 20 14  1  0
 21 15  1  0
 22 16  1  0
 22 21  2  0
 23 17  2  0
 23 21  1  0
 24 18  2  0
 24 22  1  0
 25  1  1  0
 25 19  1  0
 25 23  1  0
 26  2  1  0
 26 20  1  0
 26 24  1  0
M  END
>  <NAME>  (301) 
1,5-BIS(METHYLPHENYLSILYL)NAPHTHALENE

>  <SYNONYMS>  (301) 


>  <SPECTRUM TYPE>  (301) 
MS1

>  <INSTRUMENT TYPE>  (301) 
EI-B

>  <INSTRUMENT>  (301) 
SHIMADZU QP-1000

>  <ION MODE>  (301) 
P

>  <INCHIKEY>  (301) 
WYXNQGKTKYDVSW-UHFFFAOYSA-N

>  <FORMULA>  (301) 
C24H24Si2

>  <EXACT MASS>  (301) 
368.141653828

>  <MW>  (301) 
368

>  <ID>  (301) 
JP011753

>  <CONTRIBUTOR>  (301) 
University of Tokyo Team, {Faculty of Engineering, University of Tokyo

>  <COMMENT>  (301) 
SMILES=c(c4)ccc(c4)[SiH](C)c(c3)c(c2)c(cc3)c(cc2)[SiH](C)c(c1)cccc1
InChI=InChI=1S/C24H24Si2/c1-25(19-11-5-3-6-12-19)23-17-9-16-22-21(23)15-10-18-24(22)26(2)20-13-7-4-8-14-20/h3-18,25-26H,1-2H3
computed SMILES=C=1C=CC(=CC1)[SiH](C=2C=CC=C3C2C=CC=C3[SiH](C=4C=CC=CC4)C)C
accession=JP011753
date=2016.01.19 (Created 2008.10.21, modified 2011.05.06)
author=FAC. TECHNOLOGY, HIROSHIMA UNIV.
license=CC BY-NC-SA
exact mass=368.14165
ionization energy=70 eV
ion type=[M]+*
computed spectral entropy=3.8888535569905587
computed normalized entropy=0.8027876478721134
SPLASH=splash10-00ke-5953000000-c92306f0304974ac50d6
submitter=submitter = University of Tokyo Team (Faculty of Engineering, University of Tokyo)
MoNA Rating=3.75

>  <NUM PEAKS>  (301) 
127

>  <MASS SPECTRAL PEAKS>  (301) 
31 1.1
32 7.4
39 3.1
40 1
43 94.5
45 8.9
50 1.7
51 4.7
53 22.7
54 2.3
55 3.9
59 2
65 1.7
66 1
67 3.7
69 4.6
73 1
77 4.4
78 6.1
79 7.8
80 1.1
81 3
91 10.6
93 6.2
94 1
95 8.3
96 1
97 1.4
98 3.3
99 1.8
103 5.1
104 1.6
105 54.5
106 8.8
107 4.2
115 2
116 1
117 1.6
119 9.1
120 9.7
121 54.3
122 7.3
123 2.5
128 1.6
129 10.3
130 8.6
135 9.4
136 4.4
137 7.3
141 1.3
142 1.2
143 2.8
144 2.7
145 3.3
147 1.1
153 3
154 2.5
155 10.5
156 1.9
157 1
165 1.8
167 10.1
168 3.5
169 25.1
170 6.6
171 3.6
176 1.1
179 2.9
180 1
181 3.6
182 1.3
183 7
184 1.5
185 1.9
195 3.9
196 1.2
197 58.5
198 11.7
199 3.3
202 3.4
203 2
204 1.2
205 3.6
212 7.6
213 2.6
214 1.2
215 4.1
217 1.2
228 1.1
229 3.6
230 1.8
231 13.9
232 3.4
233 2.8
240 1.2
241 1.4
243 1.1
245 8.5
246 3.1
247 99.99
248 24.1
249 6
250 1.3
257 1.3
271 1.6
273 2.2
274 1
275 17.5
276 5.1
277 2.4
289 2.2
290 6.2
291 2.1
292 1
307 1.1
309 5.8
310 1.8
323 1.7
351 1.5
353 4.5
354 1.6
367 3.1
368 87.3
369 31.8
370 11
371 2.2
372 2.3

$$$$

     RDKit          2D

 28 31  0  0  0  0  0  0  0  0999 V2000
   -3.5667   -1.3641    0.0000 C   0  0  0  0  0  0  0  0  0  0  0  0
   -3.1791    2.0294    0.0000 C   0  0  0  0  0  0  0  0  0  0  0  0
   -0.2776   -4.4229    0.0000 C   0  0  0  0  0  0  0  0  0  0  0  0
   -6.1462   -3.6544    0.0000 C   0  0  0  0  0  0  0  0  0  0  0  0
   -1.7774   -4.3665    0.0000 C   0  0  0  0  0  0  0  0  0  0  0  0
    0.5203   -3.1526    0.0000 C   0  0  0  0  0  0  0  0  0  0  0  0
   -4.6464   -3.7103    0.0000 C   0  0  0  0  0  0  0  0  0  0  0  0
   -6.8469   -2.3281    0.0000 C   0  0  0  0  0  0  0  0  0  0  0  0
   -2.4793   -3.0399    0.0000 C   0  0  0  0  0  0  0  0  0  0  0  0
   -0.1817   -1.8261    0.0000 C   0  0  0  0  0  0  0  0  0  0  0  0
   -3.8473   -2.4399    0.0000 C   0  0  0  0  0  0  0  0  0  0  0  0
   -6.0478   -1.0577    0.0000 C   0  0  0  0  0  0  0  0  0  0  0  0
    1.0054    1.4364    0.0000 C   0  0  0  0  0  0  0  0  0  0  0  0
   -6.7324    2.6908    0.0000 C   0  0  0  0  0  0  0  0  0  0  0  0
   -0.4946    1.4364    0.0000 C   0  0  0  0  0  0  0  0  0  0  0  0
   -5.2366    2.5787    0.0000 C   0  0  0  0  0  0  0  0  0  0  0  0
   -1.6815   -1.7697    0.0000 C   0  0  0  0  0  0  0  0  0  0  0  0
   -4.5480   -1.1136    0.0000 C   0  0  0  0  0  0  0  0  0  0  0  0
    1.4654    0.0164    0.0000 C   0  0  0  0  0  0  0  0  0  0  0  0
   -7.2972    1.3091    0.0000 C   0  0  0  0  0  0  0  0  0  0  0  0
   -0.9546    0.0164    0.0000 C   0  0  0  0  0  0  0  0  0  0  0  0
   -4.8839    1.1283    0.0000 C   0  0  0  0  0  0  0  0  0  0  0  0
    2.8931   -0.4435    0.0000 Br  0  0  0  0  0  0  0  0  0  0  0  0
   -8.7553    0.9571    0.0000 Br  0  0  0  0  0  0  0  0  0  0  0  0
    0.2554   -0.8736    0.0000 S   0  0  0  0  0  0  0  0  0  0  0  0
   -6.1571    0.3312    0.0000 S   0  0  0  0  0  0  0  0  0  0  0  0
   -2.3824   -0.4435    0.0000 Si  0  0  0  0  0  4  0  0  0  0  0  0
   -3.4946    0.5629    0.0000 Si  0  0  0  0  0  4  0  0  0  0  0  0
  5  3  2  0
  6  3  1  0
  7  4  2  0
  8  4  1  0
  9  5  1  0
 10  6  2  0
 11  7  1  0
 12  8  2  0
 15 13  1  0
 16 14  1  0
 17  9  2  0
 17 10  1  0
 18 11  2  0
 18 12  1  0
 19 13  2  0
 20 14  2  0
 21 15  2  0
 22 16  2  0
 23 19  1  0
 24 20  1  0
 25 19  1  0
 25 21  1  0
 26 20  1  0
 26 22  1  0
 27  1  1  0
 27 17  1  0
 27 21  1  0
 28  2  1  0
 28 18  1  0
 28 22  1  0
 28 27  1  0
M  END
>  <NAME>  (302) 
1,2-DI(5-(2-BROMOTHIENYL))-1,2-DIMETHYLDIPHENYLDISILANE

>  <SYNONYMS>  (302) 


>  <SPECTRUM TYPE>  (302) 
MS1

>  <INSTRUMENT TYPE>  (302) 
EI-B

>  <INSTRUMENT>  (302) 
SHIMADZU QP-1000

>  <ION MODE>  (302) 
P

>  <INCHIKEY>  (302) 
RXWBLWOMHGKHMO-UHFFFAOYSA-N

>  <FORMULA>  (302) 
C22H20Br2S2Si2

>  <EXACT MASS>  (302) 
561.8911698999999

>  <MW>  (302) 
562

>  <ID>  (302) 
JP011752

>  <CONTRIBUTOR>  (302) 
University of Tokyo Team, {Faculty of Engineering, University of Tokyo

>  <COMMENT>  (302) 
SMILES=c(c4)ccc(c4)[Si](C)(c(s3)c([H])c([H])c(Br)3)[Si](C)(c(c2)cccc2)c(s1)c([H])c([H])c(Br)1
InChI=InChI=1S/C22H20Br2S2Si2/c1-27(17-9-5-3-6-10-17,21-15-13-19(23)25-21)28(2,18-11-7-4-8-12-18)22-16-14-20(24)26-22/h3-16H,1-2H3
computed SMILES=BrC=1SC(=CC1)[Si](C=2C=CC=CC2)(C)[Si](C=3SC(Br)=CC3)(C=4C=CC=CC4)C
accession=JP011752
date=2016.01.19 (Created 2008.10.21, modified 2011.05.06)
author=FAC. TECHNOLOGY, HIROSHIMA UNIV.
license=CC BY-NC-SA
exact mass=561.89117
ionization energy=70 eV
ion type=[M]+*
computed spectral entropy=4.141959012218177
computed normalized entropy=0.9095456708234402
SPLASH=splash10-000t-4950450000-77348780e72d6f3088a4
submitter=submitter = University of Tokyo Team (Faculty of Engineering, University of Tokyo)
MoNA Rating=3.75

>  <NUM PEAKS>  (302) 
95

>  <MASS SPECTRAL PEAKS>  (302) 
51 5.2
52 6.9
53 14.1
54 46.1
56 5.4
58 5.4
63 6.2
64 6.2
65 9
66 8.3
67 9.7
69 7.2
75 22.5
77 28.8
78 8.2
79 17.2
80 7.1
81 6.5
82 11.5
85 8.3
91 72.8
92 7.1
93 19.3
101 5.7
102 10.1
103 8.4
105 74.6
106 9.5
107 37.6
109 37.8
115 18.3
117 6
119 34.9
120 7
121 5.9
125 5.2
126 6.7
127 15.5
129 8.2
135 14.8
137 8.2
139 5.4
141 7.5
143 11.1
145 68.2
146 11
147 5.5
151 6
158 5.4
161 6.1
177 10
179 5.8
181 9
187 19.8
189 5.2
197 34.2
198 7.4
199 91.3
200 12.5
201 99.99
202 50.7
203 14.5
279 6
281 73
282 14.4
283 76.9
284 13.9
285 7.9
326 6.3
328 6.7
363 11
365 12.7
410 16.8
412 33.5
413 7.9
414 18.3
483 68.8
484 28.9
485 81.1
486 27.9
487 19.1
547 28.5
548 27.3
549 63.7
550 60.4
551 45.1
552 36.9
553 13
554 6.3
562 10.9
563 11.9
564 23.9
565 24.7
566 19.4
567 14.8

$$$$

     RDKit          2D

 18 19  0  0  0  0  0  0  0  0999 V2000
   -2.8000   -3.0000    0.0000 C   0  0  0  0  0  0  0  0  0  0  0  0
   -1.3000   -4.5000    0.0000 C   0  0  0  0  0  0  0  0  0  0  0  0
    2.8000    3.0000    0.0000 C   0  0  0  0  0  0  0  0  0  0  0  0
    1.3000    4.5000    0.0000 C   0  0  0  0  0  0  0  0  0  0  0  0
   -2.6000    0.7500    0.0000 C   0  0  0  0  0  0  0  0  0  0  0  0
    2.6000   -0.7500    0.0000 C   0  0  0  0  0  0  0  0  0  0  0  0
    1.3000   -1.5000    0.0000 C   0  0  0  0  0  0  0  0  0  0  0  0
   -1.3000    1.5000    0.0000 C   0  0  0  0  0  0  0  0  0  0  0  0
   -2.6000   -0.7500    0.0000 C   0  0  0  0  0  0  0  0  0  0  0  0
    2.6000    0.7500    0.0000 C   0  0  0  0  0  0  0  0  0  0  0  0
    0.0000   -0.7500    0.0000 C   0  0  0  0  0  0  0  0  0  0  0  0
    0.0000    0.7500    0.0000 C   0  0  0  0  0  0  0  0  0  0  0  0
   -1.3000   -1.5000    0.0000 C   0  0  0  0  0  0  0  0  0  0  0  0
    1.3000    1.5000    0.0000 C   0  0  0  0  0  0  0  0  0  0  0  0
    0.2000   -3.0000    0.0000 Cl  0  0  0  0  0  0  0  0  0  0  0  0
   -0.2000    3.0000    0.0000 Cl  0  0  0  0  0  0  0  0  0  0  0  0
   -1.3000   -3.0000    0.0000 Si  0  0  0  0  0  4  0  0  0  0  0  0
    1.3000    3.0000    0.0000 Si  0  0  0  0  0  4  0  0  0  0  0  0
  7  6  2  0
  8  5  2  0
  9  5  1  0
 10  6  1  0
 11  7  1  0
 12  8  1  0
 12 11  2  0
 13  9  2  0
 13 11  1  0
 14 10  2  0
 14 12  1  0
 17  1  1  0
 17  2  1  0
 17 13  1  0
 17 15  1  0
 18  3  1  0
 18  4  1  0
 18 14  1  0
 18 16  1  0
M  END
>  <NAME>  (303) 
1,5-BIS(CHLORODIMETHYLSILYL)NAPHTHALENE

>  <SYNONYMS>  (303) 


>  <SPECTRUM TYPE>  (303) 
MS1

>  <INSTRUMENT TYPE>  (303) 
EI-B

>  <INSTRUMENT>  (303) 
SHIMADZU QP-1000

>  <ION MODE>  (303) 
P

>  <INCHIKEY>  (303) 
HLLXILCLJRIWRS-UHFFFAOYSA-N

>  <FORMULA>  (303) 
C14H18Cl2Si2

>  <EXACT MASS>  (303) 
312.032408996

>  <MW>  (303) 
312

>  <ID>  (303) 
JP011751

>  <CONTRIBUTOR>  (303) 
University of Tokyo Team, {Faculty of Engineering, University of Tokyo

>  <COMMENT>  (303) 
SMILES=C[Si](C)(Cl)c(c2)c(c1)c(cc2)c(cc1)[Si](C)(C)Cl
InChI=InChI=1S/C14H18Cl2Si2/c1-17(2,15)13-9-5-8-12-11(13)7-6-10-14(12)18(3,4)16/h5-10H,1-4H3
computed SMILES=Cl[Si](C=1C=CC=C2C1C=CC=C2[Si](Cl)(C)C)(C)C
accession=JP011751
date=2016.01.19 (Created 2008.10.21, modified 2011.05.06)
author=FAC. TECHNOLOGY, HIROSHIMA UNIV.
license=CC BY-NC-SA
exact mass=312.03241
ionization energy=70 eV
ion type=[M]+*
computed spectral entropy=3.335214731309831
computed normalized entropy=0.7877021344854126
SPLASH=splash10-014i-5912000000-3194ee5050f213b31671
submitter=submitter = University of Tokyo Team (Faculty of Engineering, University of Tokyo)
MoNA Rating=3.75

>  <NUM PEAKS>  (303) 
69

>  <MASS SPECTRAL PEAKS>  (303) 
52 1.1
53 1.3
54 1
55 4.3
56 1
64 16.4
65 23.2
67 7.3
73 5.4
74 1.1
75 1.1
77 2.3
78 1.1
79 1.8
89 1.2
91 1.4
93 55.4
95 19.9
97 1.2
103 2
105 1.3
113 2
115 4.5
116 2
117 1.7
122 2.1
123 8.3
127 1.1
128 1.1
129 1.5
130 1
131 1.3
139 2.2
140 1
141 12.4
142 8.1
143 3.7
152 1.1
153 2.7
154 2.2
155 3.9
167 15.2
168 4.4
169 99.99
170 16.1
171 4.3
181 4.5
182 1.8
183 4.8
184 1.9
185 1.2
189 2.9
191 1.4
202 1.1
203 2.4
205 2.3
207 1
261 1.1
297 18.8
298 4.7
299 12.8
300 3.7
301 3.5
312 26
313 6.8
314 19.2
315 4.7
316 4.6
317 1.1

$$$$

     RDKit          2D

 28 31  0  0  0  0  0  0  0  0999 V2000
   -5.1981   -0.7504    0.0000 C   0  0  0  0  0  0  0  0  0  0  0  0
    5.1981   -0.7504    0.0000 C   0  0  0  0  0  0  0  0  0  0  0  0
   -6.7909   -4.9501    0.0000 C   0  0  0  0  0  0  0  0  0  0  0  0
    1.0059   -4.9491    0.0000 C   0  0  0  0  0  0  0  0  0  0  0  0
   -7.3042   -3.5398    0.0000 C   0  0  0  0  0  0  0  0  0  0  0  0
   -5.3136   -5.2101    0.0000 C   0  0  0  0  0  0  0  0  0  0  0  0
    0.4930   -3.5387    0.0000 C   0  0  0  0  0  0  0  0  0  0  0  0
    2.4831   -5.2096    0.0000 C   0  0  0  0  0  0  0  0  0  0  0  0
   -6.3402   -2.3894    0.0000 C   0  0  0  0  0  0  0  0  0  0  0  0
   -4.3496   -4.0598    0.0000 C   0  0  0  0  0  0  0  0  0  0  0  0
    1.4573   -2.3886    0.0000 C   0  0  0  0  0  0  0  0  0  0  0  0
    3.4474   -4.0596    0.0000 C   0  0  0  0  0  0  0  0  0  0  0  0
   -1.3000    1.5000    0.0000 C   0  0  0  0  0  0  0  0  0  0  0  0
    1.3000    1.5000    0.0000 C   0  0  0  0  0  0  0  0  0  0  0  0
   -2.6000    0.7500    0.0000 C   0  0  0  0  0  0  0  0  0  0  0  0
    2.6000    0.7500    0.0000 C   0  0  0  0  0  0  0  0  0  0  0  0
   -1.3000   -1.5000    0.0000 C   0  0  0  0  0  0  0  0  0  0  0  0
    1.3000   -1.5000    0.0000 C   0  0  0  0  0  0  0  0  0  0  0  0
    0.0000    0.7500    0.0000 C   0  0  0  0  0  0  0  0  0  0  0  0
    0.0000   -0.7500    0.0000 C   0  0  0  0  0  0  0  0  0  0  0  0
   -4.8629   -2.6494    0.0000 C   0  0  0  0  0  0  0  0  0  0  0  0
    2.9346   -2.6491    0.0000 C   0  0  0  0  0  0  0  0  0  0  0  0
   -2.6000   -0.7500    0.0000 C   0  0  0  0  0  0  0  0  0  0  0  0
    2.6000   -0.7500    0.0000 C   0  0  0  0  0  0  0  0  0  0  0  0
   -2.9346   -2.6491    0.0000 Cl  0  0  0  0  0  0  0  0  0  0  0  0
    4.8629   -2.6494    0.0000 Cl  0  0  0  0  0  0  0  0  0  0  0  0
   -3.8989   -1.5002    0.0000 Si  0  0  0  0  0  4  0  0  0  0  0  0
    3.8989   -1.5002    0.0000 Si  0  0  0  0  0  4  0  0  0  0  0  0
  5  3  2  0
  6  3  1  0
  7  4  2  0
  8  4  1  0
  9  5  1  0
 10  6  2  0
 11  7  1  0
 12  8  2  0
 15 13  2  0
 16 14  1  0
 19 13  1  0
 19 14  2  0
 20 17  1  0
 20 18  2  0
 20 19  1  0
 21  9  2  0
 21 10  1  0
 22 11  2  0
 22 12  1  0
 23 15  1  0
 23 17  2  0
 24 16  2  0
 24 18  1  0
 27  1  1  0
 27 21  1  0
 27 23  1  0
 27 25  1  0
 28  2  1  0
 28 22  1  0
 28 24  1  0
 28 26  1  0
M  END
>  <NAME>  (304) 
2,7-BIS(CHLOROMETHYLPHENYLSILYL)NAPHTHALENE

>  <SYNONYMS>  (304) 


>  <SPECTRUM TYPE>  (304) 
MS1

>  <INSTRUMENT TYPE>  (304) 
EI-B

>  <INSTRUMENT>  (304) 
SHIMADZU QP-1000

>  <ION MODE>  (304) 
P

>  <INCHIKEY>  (304) 
WMPCPWLALQEAIX-UHFFFAOYSA-N

>  <FORMULA>  (304) 
C24H22Cl2Si2

>  <EXACT MASS>  (304) 
436.063709124

>  <MW>  (304) 
436

>  <ID>  (304) 
JP011749

>  <CONTRIBUTOR>  (304) 
University of Tokyo Team, {Faculty of Engineering, University of Tokyo

>  <COMMENT>  (304) 
SMILES=c(c4)ccc(c4)[Si](C)(Cl)c(c1)cc(c2)c(ccc2[Si](C)(Cl)c(c3)cccc3)c1
InChI=InChI=1S/C24H22Cl2Si2/c1-27(25,21-9-5-3-6-10-21)23-15-13-19-14-16-24(18-20(19)17-23)28(2,26)22-11-7-4-8-12-22/h3-18H,1-2H3
computed SMILES=Cl[Si](C=1C=CC=CC1)(C2=CC=C3C=CC(=CC3=C2)[Si](Cl)(C=4C=CC=CC4)C)C
accession=JP011749
date=2016.01.19 (Created 2008.10.21, modified 2011.05.06)
author=FAC. TECHNOLOGY, HIROSHIMA UNIV.
license=CC BY-NC-SA
exact mass=436.06371
ionization energy=70 eV
ion type=[M]+*
computed spectral entropy=3.6787641615421944
computed normalized entropy=0.784159319217698
SPLASH=splash10-00dr-1220900000-272f63aae13eb88c806a
submitter=submitter = University of Tokyo Team (Faculty of Engineering, University of Tokyo)
MoNA Rating=3.75

>  <NUM PEAKS>  (304) 
109

>  <MASS SPECTRAL PEAKS>  (304) 
36 2.2
43 1.7
51 2.3
53 1.7
63 19
65 7.9
77 2.2
78 1.3
79 1.6
91 20.7
92 1.7
93 1.6
103 2.2
105 3.6
115 1.7
119 3.9
126 1.1
129 1.6
139 2.5
140 1.2
141 1.8
153 2.6
154 2.8
155 60.4
156 7.7
157 20.7
158 2.7
159 1.5
165 1
166 1.2
167 8.7
168 2.2
169 6.2
170 1.2
172 1.5
173 1.1
175 1.7
177 1.7
179 2.5
181 1.4
184 1.3
185 5
186 2.4
189 3.7
191 1.6
192 1.4
193 1.4
197 1.4
200 1.1
201 1.6
202 12.2
203 21.7
204 14.6
205 8.1
206 1.4
215 6.4
216 1.6
217 5.3
218 1.2
219 2
228 2
229 6.5
230 3.2
231 29.5
232 6.5
233 1.7
241 2.3
242 1.1
243 1.8
245 9.2
246 5.7
247 1.9
265 4.5
266 2.8
267 2.6
268 1.1
279 1.1
280 1.1
281 3.1
282 1.1
283 1.2
305 1.8
307 3.3
308 1.1
323 17.1
324 5.2
325 1.4
343 2.9
345 1.3
358 1.9
359 3.3
360 1.6
361 2.3
401 2.3
403 1
421 99.99
422 35.5
423 75.1
424 24.5
425 18.7
426 5.4
427 1.7
436 94.3
437 35.5
438 72.3
439 24.8
440 17.7
441 5.4
442 1.5

$$$$

     RDKit          2D

 26 29  0  0  0  0  0  0  0  0999 V2000
    4.8629    2.6494    0.0000 C   0  0  0  0  0  0  0  0  0  0  0  0
    2.9346    2.6491    0.0000 C   0  0  0  0  0  0  0  0  0  0  0  0
    6.4970    1.5006    0.0000 C   0  0  0  0  0  0  0  0  0  0  0  0
    4.2341   -0.3988    0.0000 C   0  0  0  0  0  0  0  0  0  0  0  0
   -2.6000   -0.7500    0.0000 C   0  0  0  0  0  0  0  0  0  0  0  0
    8.5426   -5.2590    0.0000 C   0  0  0  0  0  0  0  0  0  0  0  0
   -2.6000    0.7500    0.0000 C   0  0  0  0  0  0  0  0  0  0  0  0
    7.0654   -5.5195    0.0000 C   0  0  0  0  0  0  0  0  0  0  0  0
   -1.3000   -1.5000    0.0000 C   0  0  0  0  0  0  0  0  0  0  0  0
    9.0555   -3.8485    0.0000 C   0  0  0  0  0  0  0  0  0  0  0  0
   -1.3000    1.5000    0.0000 C   0  0  0  0  0  0  0  0  0  0  0  0
    6.1011   -4.3695    0.0000 C   0  0  0  0  0  0  0  0  0  0  0  0
    1.3000   -1.5000    0.0000 C   0  0  0  0  0  0  0  0  0  0  0  0
    8.6040   -1.2880    0.0000 C   0  0  0  0  0  0  0  0  0  0  0  0
    2.6000   -0.7500    0.0000 C   0  0  0  0  0  0  0  0  0  0  0  0
    7.6397   -0.1380    0.0000 C   0  0  0  0  0  0  0  0  0  0  0  0
    1.3000    1.5000    0.0000 C   0  0  0  0  0  0  0  0  0  0  0  0
    5.6496   -1.8090    0.0000 C   0  0  0  0  0  0  0  0  0  0  0  0
    0.0000   -0.7500    0.0000 C   0  0  0  0  0  0  0  0  0  0  0  0
    8.0911   -2.6985    0.0000 C   0  0  0  0  0  0  0  0  0  0  0  0
    0.0000    0.7500    0.0000 C   0  0  0  0  0  0  0  0  0  0  0  0
    6.6139   -2.9590    0.0000 C   0  0  0  0  0  0  0  0  0  0  0  0
    2.6000    0.7500    0.0000 C   0  0  0  0  0  0  0  0  0  0  0  0
    6.1624   -0.3985    0.0000 C   0  0  0  0  0  0  0  0  0  0  0  0
    3.8989    1.5002    0.0000 Si  0  0  0  0  0  4  0  0  0  0  0  0
    5.1981    0.7504    0.0000 Si  0  0  0  0  0  4  0  0  0  0  0  0
  7  5  2  0
  8  6  2  0
  9  5  1  0
 10  6  1  0
 11  7  1  0
 12  8  1  0
 15 13  2  0
 16 14  2  0
 19  9  2  0
 19 13  1  0
 20 10  2  0
 20 14  1  0
 21 11  2  0
 21 17  1  0
 21 19  1  0
 22 12  2  0
 22 18  1  0
 22 20  1  0
 23 15  1  0
 23 17  2  0
 24 16  1  0
 24 18  2  0
 25  1  1  0
 25  2  1  0
 25 23  1  0
 26  3  1  0
 26  4  1  0
 26 24  1  0
 26 25  1  0
M  END
>  <NAME>  (305) 
1,2-DI(BETA-NAPHTHYL)TETRAMETHYLDISILANE

>  <SYNONYMS>  (305) 


>  <SPECTRUM TYPE>  (305) 
MS1

>  <INSTRUMENT TYPE>  (305) 
EI-B

>  <INSTRUMENT>  (305) 
SHIMADZU QP-1000

>  <ION MODE>  (305) 
P

>  <INCHIKEY>  (305) 
VFQZUOTUGBMKPL-UHFFFAOYSA-N

>  <FORMULA>  (305) 
C24H26Si2

>  <EXACT MASS>  (305) 
370.157303892

>  <MW>  (305) 
370

>  <ID>  (305) 
JP011748

>  <CONTRIBUTOR>  (305) 
University of Tokyo Team, {Faculty of Engineering, University of Tokyo

>  <COMMENT>  (305) 
SMILES=c(c4)cc(c3)c(c4)cc(c3)[Si](C)(C)[Si](C)(C)c(c1)cc(c2)c(ccc2)c1
InChI=InChI=1S/C24H26Si2/c1-25(2,23-15-13-19-9-5-7-11-21(19)17-23)26(3,4)24-16-14-20-10-6-8-12-22(20)18-24/h5-18H,1-4H3
computed SMILES=C=1C=CC=2C=C(C=CC2C1)[Si](C)(C)[Si](C=3C=CC=4C=CC=CC4C3)(C)C
accession=JP011748
date=2016.01.19 (Created 2008.10.21, modified 2011.05.06)
author=FAC. TECHNOLOGY, HIROSHIMA UNIV.
license=CC BY-NC-SA
exact mass=370.1573
ionization energy=70 eV
ion type=[M]+*
computed spectral entropy=2.66216963658554
computed normalized entropy=0.7122538663029873
SPLASH=splash10-000i-2910000000-705cdd978cab4db6ba29
submitter=submitter = University of Tokyo Team (Faculty of Engineering, University of Tokyo)
MoNA Rating=3.75

>  <NUM PEAKS>  (305) 
42

>  <MASS SPECTRAL PEAKS>  (305) 
40 2
43 20.9
44 2.3
53 3.4
55 1.9
57 2.4
58 1.1
59 2.3
73 2.6
77 1
105 1.2
115 2.4
116 1.1
128 1
129 3.4
131 3
141 3.3
143 1.5
145 1.5
153 1.2
155 9.4
156 1.7
157 2.4
159 1.5
167 6.7
168 2
169 9.3
171 1.1
181 2.8
182 1
183 7.7
185 99.99
187 4.5
227 3.3
228 1.1
241 1
297 22.7
298 6.1
299 1.8
370 8.3
371 3.4
372 1.5

$$$$

     RDKit          2D

 21 21  0  0  0  0  0  0  0  0999 V2000
   10.2576    0.7895    0.0000 C   0  0  0  0  0  0  0  0  0  0  0  0
  -10.2576    0.7895    0.0000 C   0  0  0  0  0  0  0  0  0  0  0  0
    2.9533   -2.3164    0.0000 C   0  0  0  0  0  0  0  0  0  0  0  0
   -2.9533   -2.3164    0.0000 C   0  0  0  0  0  0  0  0  0  0  0  0
    8.8298    1.2495    0.0000 C   0  0  0  0  0  0  0  0  0  0  0  0
   -8.8298    1.2495    0.0000 C   0  0  0  0  0  0  0  0  0  0  0  0
    7.7176    0.2430    0.0000 C   0  0  0  0  0  0  0  0  0  0  0  0
   -7.7176    0.2430    0.0000 C   0  0  0  0  0  0  0  0  0  0  0  0
    6.2899    0.7030    0.0000 C   0  0  0  0  0  0  0  0  0  0  0  0
   -6.2899    0.7030    0.0000 C   0  0  0  0  0  0  0  0  0  0  0  0
    5.1777   -0.3035    0.0000 C   0  0  0  0  0  0  0  0  0  0  0  0
   -5.1777   -0.3035    0.0000 C   0  0  0  0  0  0  0  0  0  0  0  0
    0.7500    1.0300    0.0000 C   0  0  0  0  0  0  0  0  0  0  0  0
   -0.7500    1.0300    0.0000 C   0  0  0  0  0  0  0  0  0  0  0  0
    3.7499    0.1565    0.0000 C   0  0  0  0  0  0  0  0  0  0  0  0
   -3.7499    0.1565    0.0000 C   0  0  0  0  0  0  0  0  0  0  0  0
    1.2100   -0.3900    0.0000 C   0  0  0  0  0  0  0  0  0  0  0  0
   -1.2100   -0.3900    0.0000 C   0  0  0  0  0  0  0  0  0  0  0  0
   -0.0000   -1.2800    0.0000 S   0  0  0  0  0  0  0  0  0  0  0  0
    2.6377   -0.8500    0.0000 Si  0  0  0  0  0  4  0  0  0  0  0  0
   -2.6377   -0.8500    0.0000 Si  0  0  0  0  0  4  0  0  0  0  0  0
  5  1  1  0
  6  2  1  0
  7  5  1  0
  8  6  1  0
  9  7  1  0
 10  8  1  0
 11  9  1  0
 12 10  1  0
 14 13  1  0
 15 11  1  0
 16 12  1  0
 17 13  2  0
 18 14  2  0
 19 17  1  0
 19 18  1  0
 20  3  1  0
 20 15  1  0
 20 17  1  0
 21  4  1  0
 21 16  1  0
 21 18  1  0
M  END
>  <NAME>  (306) 
2,5-BIS(N-HEXYLMETHYLSILYL)THIOPHENE

>  <SYNONYMS>  (306) 


>  <SPECTRUM TYPE>  (306) 
MS1

>  <INSTRUMENT TYPE>  (306) 
EI-B

>  <INSTRUMENT>  (306) 
SHIMADZU QP-1000

>  <ION MODE>  (306) 
P

>  <INCHIKEY>  (306) 
UIVZUHLZPZAWTR-UHFFFAOYSA-N

>  <FORMULA>  (306) 
C18H36SSi2

>  <EXACT MASS>  (306) 
340.20762521200004

>  <MW>  (306) 
340

>  <ID>  (306) 
JP011738

>  <CONTRIBUTOR>  (306) 
University of Tokyo Team, {Faculty of Engineering, University of Tokyo

>  <COMMENT>  (306) 
SMILES=CCCCCC[SiH](C)c(c1)sc(c1)[SiH](C)CCCCCC
InChI=InChI=1S/C18H36SSi2/c1-5-7-9-11-15-20(3)17-13-14-18(19-17)21(4)16-12-10-8-6-2/h13-14,20-21H,5-12,15-16H2,1-4H3
computed SMILES=S1C(=CC=C1[SiH](C)CCCCCC)[SiH](C)CCCCCC
accession=JP011738
date=2016.01.19 (Created 2008.10.21, modified 2011.05.06)
author=FAC. TECHNOLOGY, HIROSHIMA UNIV.
license=CC BY-NC-SA
exact mass=340.20762
ionization energy=70 eV
ion type=[M]+*
computed spectral entropy=3.8417606966751134
computed normalized entropy=0.8647450530947358
SPLASH=splash10-05di-7900000000-5b5a767ebb192fa8cc45
submitter=submitter = University of Tokyo Team (Faculty of Engineering, University of Tokyo)
MoNA Rating=3.75

>  <NUM PEAKS>  (306) 
85

>  <MASS SPECTRAL PEAKS>  (306) 
53 8.4
55 20.5
56 3.8
57 9.1
58 8.5
59 66.2
60 5.6
61 3.8
67 7.6
68 3.7
69 37.2
70 4.7
71 15.6
72 23
73 24.7
74 2.7
75 7.6
77 5.6
78 2.1
79 3.8
81 8.2
82 3.9
83 28.8
84 6.2
85 37
86 9
87 5
91 2.6
92 6.3
93 11
94 3.2
95 43.9
96 10.9
97 15.4
98 5.4
99 24.2
100 47.6
101 12.2
102 2.7
105 2.4
107 3.6
108 2.7
109 14.7
110 4.4
111 24
112 3.7
114 3.3
115 2.1
118 2.1
119 2.8
121 12.7
122 2.4
123 3.4
125 2.3
126 3.7
127 50.9
128 80.5
129 18.7
130 5.6
131 5.7
133 4.2
141 2.5
144 23.2
145 12
146 4.5
147 4.2
155 3.7
156 2.3
157 13.6
158 3.9
159 4.2
169 2.4
170 6.1
171 99.99
172 28.1
173 22.2
174 4.5
178 2.4
185 5.1
199 2
211 5.9
212 7.4
213 2.8
255 5.4
340 2.2

$$$$

     RDKit          2D

 13 13  0  0  0  0  0  0  0  0999 V2000
   -1.3000   -2.2980    0.0000 C   0  0  0  0  0  0  0  0  0  0  0  0
    3.2270    1.4994    0.0000 C   0  0  0  0  0  0  0  0  0  0  0  0
   -0.6297    1.5000    0.0000 C   0  0  0  0  0  0  0  0  0  0  0  0
   -0.0008   -1.5482    0.0000 C   0  0  0  0  0  0  0  0  0  0  0  0
    2.2627    0.3505    0.0000 C   0  0  0  0  0  0  0  0  0  0  0  0
    0.3343    0.3508    0.0000 C   0  0  0  0  0  0  0  0  0  0  0  0
    5.1972   -3.0487    0.0000 C   0  0  0  0  0  0  0  0  0  0  0  0
    3.8972   -3.7987    0.0000 C   0  0  0  0  0  0  0  0  0  0  0  0
    5.1972   -1.5487    0.0000 C   0  0  0  0  0  0  0  0  0  0  0  0
    2.5972   -3.0487    0.0000 C   0  0  0  0  0  0  0  0  0  0  0  0
    3.8972   -0.7987    0.0000 C   0  0  0  0  0  0  0  0  0  0  0  0
    2.5972   -1.5487    0.0000 C   0  0  0  0  0  0  0  0  0  0  0  0
    1.2983   -0.7984    0.0000 Si  0  0  0  0  0  4  0  0  0  0  0  0
  4  1  3  0
  5  2  3  0
  6  3  3  0
  8  7  2  0
  9  7  1  0
 10  8  1  0
 11  9  2  0
 12 10  2  0
 12 11  1  0
 13  4  1  0
 13  5  1  0
 13  6  1  0
 13 12  1  0
M  END
>  <NAME>  (307) 
PHENYLTRIETHYNYLSILANE

>  <SYNONYMS>  (307) 


>  <SPECTRUM TYPE>  (307) 
MS1

>  <INSTRUMENT TYPE>  (307) 
EI-B

>  <INSTRUMENT>  (307) 
SHIMADZU QP-1000

>  <ION MODE>  (307) 
P

>  <INCHIKEY>  (307) 
HYVKPKFKOROWNW-UHFFFAOYSA-N

>  <FORMULA>  (307) 
C12H8Si

>  <EXACT MASS>  (307) 
180.039526786

>  <MW>  (307) 
180

>  <ID>  (307) 
JP011736

>  <CONTRIBUTOR>  (307) 
University of Tokyo Team, {Faculty of Engineering, University of Tokyo

>  <COMMENT>  (307) 
SMILES=C#C[Si](C#C)(C#C)c(c1)cccc1
InChI=InChI=1S/C12H8Si/c1-4-13(5-2,6-3)12-10-8-7-9-11-12/h1-3,7-11H
computed SMILES=C#C[Si](C#C)(C#C)C=1C=CC=CC1
accession=JP011736
date=2016.01.19 (Created 2008.10.21, modified 2011.05.06)
author=FAC. TECHNOLOGY, HIROSHIMA UNIV.
license=CC BY-NC-SA
exact mass=180.03953
ionization energy=70 eV
ion type=[M]+*
computed spectral entropy=2.813008493187914
computed normalized entropy=0.7912048116069634
SPLASH=splash10-0udi-9500000000-38d8dc580e3a92c50ef5
submitter=submitter = University of Tokyo Team (Faculty of Engineering, University of Tokyo)
MoNA Rating=3.75

>  <NUM PEAKS>  (307) 
35

>  <MASS SPECTRAL PEAKS>  (307) 
50 11.6
51 17.4
53 99.99
54 8.6
55 3.9
62 1.4
63 2.9
65 1.3
66 1.5
74 4.1
75 2.9
76 6.8
77 30
78 16.3
79 5.2
89 1.3
90 1.1
101 5.6
102 11.5
103 24.1
104 5.9
105 3
126 1.6
127 1.6
128 1.5
129 16.3
130 5.5
131 1.1
152 1.1
153 7.7
154 12.8
155 2.3
179 17
180 10.3
181 2.1

$$$$

     RDKit          2D

 18 18  0  0  0  0  0  0  0  0999 V2000
    1.5000    3.0000    0.0000 C   0  0  0  0  0  0  0  0  0  0  0  0
    0.0000    4.5000    0.0000 C   0  0  0  0  0  0  0  0  0  0  0  0
   -3.3491   -0.2013    0.0000 C   0  0  0  0  0  0  0  0  0  0  0  0
   -3.8978   -2.2504    0.0000 C   0  0  0  0  0  0  0  0  0  0  0  0
    1.8487   -2.7991    0.0000 C   0  0  0  0  0  0  0  0  0  0  0  0
    3.8978   -2.2504    0.0000 C   0  0  0  0  0  0  0  0  0  0  0  0
   -1.3000    0.7500    0.0000 C   0  0  0  0  0  0  0  0  0  0  0  0
    1.3000    0.7500    0.0000 C   0  0  0  0  0  0  0  0  0  0  0  0
    0.0000   -1.5000    0.0000 C   0  0  0  0  0  0  0  0  0  0  0  0
    0.0000    1.5000    0.0000 C   0  0  0  0  0  0  0  0  0  0  0  0
   -1.3000   -0.7500    0.0000 C   0  0  0  0  0  0  0  0  0  0  0  0
    1.3000   -0.7500    0.0000 C   0  0  0  0  0  0  0  0  0  0  0  0
   -1.5000    3.0000    0.0000 Cl  0  0  0  0  0  0  0  0  0  0  0  0
   -1.8487   -2.7991    0.0000 Cl  0  0  0  0  0  0  0  0  0  0  0  0
    3.3491   -0.2013    0.0000 Cl  0  0  0  0  0  0  0  0  0  0  0  0
    0.0000    3.0000    0.0000 Si  0  0  0  0  0  4  0  0  0  0  0  0
   -2.5989   -1.5002    0.0000 Si  0  0  0  0  0  4  0  0  0  0  0  0
    2.5989   -1.5002    0.0000 Si  0  0  0  0  0  4  0  0  0  0  0  0
 10  7  2  0
 10  8  1  0
 11  7  1  0
 11  9  2  0
 12  8  2  0
 12  9  1  0
 16  1  1  0
 16  2  1  0
 16 10  1  0
 16 13  1  0
 17  3  1  0
 17  4  1  0
 17 11  1  0
 17 14  1  0
 18  5  1  0
 18  6  1  0
 18 12  1  0
 18 15  1  0
M  END
>  <NAME>  (308) 
1,3,5-TRIS(CHROLODIMETHYLSILYL)BENZENE

>  <SYNONYMS>  (308) 


>  <SPECTRUM TYPE>  (308) 
MS1

>  <INSTRUMENT TYPE>  (308) 
EI-B

>  <INSTRUMENT>  (308) 
SHIMADZU QP-1000

>  <ION MODE>  (308) 
P

>  <INCHIKEY>  (308) 
LBFOVAINRVHXRL-UHFFFAOYSA-N

>  <FORMULA>  (308) 
C12H21Cl3Si3

>  <EXACT MASS>  (308) 
354.001663302

>  <MW>  (308) 
354

>  <ID>  (308) 
JP011735

>  <CONTRIBUTOR>  (308) 
University of Tokyo Team, {Faculty of Engineering, University of Tokyo

>  <COMMENT>  (308) 
SMILES=C[Si](C)(Cl)c(c1)cc(cc1[Si](C)(C)Cl)[Si](C)(C)Cl
InChI=InChI=1S/C12H21Cl3Si3/c1-16(2,13)10-7-11(17(3,4)14)9-12(8-10)18(5,6)15/h7-9H,1-6H3
computed SMILES=Cl[Si](C=1C=C(C=C(C1)[Si](Cl)(C)C)[Si](Cl)(C)C)(C)C
accession=JP011735
date=2016.01.19 (Created 2008.10.21, modified 2011.05.06)
author=FAC. TECHNOLOGY, HIROSHIMA UNIV.
license=CC BY-NC-SA
exact mass=354.00166
ionization energy=70 eV
ion type=[M]+*
computed spectral entropy=4.223121688062856
computed normalized entropy=0.8933309155103679
SPLASH=splash10-052f-8309000000-ae4b37872050b6063d1d
submitter=submitter = University of Tokyo Team (Faculty of Engineering, University of Tokyo)
MoNA Rating=3.75

>  <NUM PEAKS>  (308) 
113

>  <MASS SPECTRAL PEAKS>  (308) 
51 3
53 15.9
54 10
55 58.5
56 31.8
57 57.4
58 9.6
59 60.4
60 4.9
61 2.8
63 31.1
64 3.2
65 34.4
66 5.1
67 23.1
68 8.4
69 35.1
70 20.9
71 17.9
73 42
74 4.8
75 7.4
77 6.7
78 5.3
79 10.4
80 2.9
81 7.3
83 56.5
84 12.3
85 9.5
87 3.4
88 2.7
89 6.1
90 2.8
91 5.7
93 93.4
94 8.7
95 31
96 6.2
97 24.6
98 6
103 17.3
104 3.6
105 14.7
106 3.3
107 12.2
109 5.9
110 2.8
111 10.2
112 5
113 5.3
115 4.4
117 9.2
118 2.9
119 8.9
120 3.3
121 5.4
125 5.4
126 3.1
127 3.9
129 3.2
131 15.9
132 6.4
133 16.5
134 5.7
135 5.8
137 4.9
138 3.9
139 4.8
143 3.6
144 4.3
145 23.6
146 12.6
147 8.8
148 4.3
152 19.4
153 18.4
154 6.3
155 7.4
156 8.7
157 6.4
159 4.7
161 7
162 6.9
163 7.9
175 7.3
197 4.6
211 6.7
225 5.6
305 11.3
307 9.5
319 83.9
320 23
321 63.2
322 18.9
323 18.3
325 48
326 12.9
327 75
328 16.6
329 38.4
330 8.4
335 17.9
337 10.3
339 91.5
340 39.4
341 99.99
342 46.5
343 43.8
344 20.7
345 9.1
354 16.2
356 18.4

$$$$

     RDKit          2D

 21 21  0  0  0  0  0  0  0  0999 V2000
    0.7932    3.8267    0.0000 C   0  0  0  0  0  0  0  0  0  0  0  0
    4.6384    3.1067    0.0000 C   0  0  0  0  0  0  0  0  0  0  0  0
    3.5623    7.1228    0.0000 C   0  0  0  0  0  0  0  0  0  0  0  0
    3.1158    5.9626    0.0000 C   0  0  0  0  0  0  0  0  0  0  0  0
    2.0073    8.6221    0.0000 C   0  0  0  0  0  0  0  0  0  0  0  0
   -0.0879    8.2902    0.0000 C   0  0  0  0  0  0  0  0  0  0  0  0
   -2.7808    3.1625    0.0000 C   0  0  0  0  0  0  0  0  0  0  0  0
   -1.9519    1.2098    0.0000 C   0  0  0  0  0  0  0  0  0  0  0  0
    0.0008    2.0386    0.0000 C   0  0  0  0  0  0  0  0  0  0  0  0
    0.4495    1.0661    0.0000 C   0  0  0  0  0  0  0  0  0  0  0  0
    2.8505    1.7028    0.0000 C   0  0  0  0  0  0  0  0  0  0  0  0
    3.8533    4.5936    0.0000 C   0  0  0  0  0  0  0  0  0  0  0  0
   -2.4519    6.0604    0.0000 C   0  0  0  0  0  0  0  0  0  0  0  0
   -1.1529    6.8104    0.0000 C   0  0  0  0  0  0  0  0  0  0  0  0
   -2.1400    4.5932    0.0000 C   0  0  0  0  0  0  0  0  0  0  0  0
    2.0923    4.5767    0.0000 Si  0  0  0  0  0  4  0  0  0  0  0  0
    1.1257    7.4085    0.0000 Si  0  0  0  0  0  4  0  0  0  0  0  0
   -1.3900    2.6005    0.0000 Si  0  0  0  0  0  4  0  0  0  0  0  0
    1.6685    2.6263    0.0000 Si  0  0  0  0  0  4  0  0  0  0  0  0
   -0.0381    5.8067    0.0000 Si  0  0  0  0  0  4  0  0  0  0  0  0
   -0.6483    4.4364    0.0000 Si  0  0  0  0  0  4  0  0  0  0  0  0
 14 13  1  0
 15 13  1  0
 16  1  1  0
 16  2  1  0
 16  3  1  0
 17  4  1  0
 17  5  1  0
 17  6  1  0
 18  7  1  0
 18  8  1  0
 18  9  1  0
 19 10  1  0
 19 11  1  0
 19 12  1  0
 20 14  1  0
 20 16  1  0
 20 17  1  0
 21 15  1  0
 21 18  1  0
 21 19  1  0
 21 20  1  0
M  END
>  <NAME>  (309) 
1,1,2,2-TETRAKIS(TRIMETHYLSILYL)-1,2-DISILACYCLOPENTANE

>  <SYNONYMS>  (309) 


>  <SPECTRUM TYPE>  (309) 
MS1

>  <INSTRUMENT TYPE>  (309) 
EI-B

>  <INSTRUMENT>  (309) 
SHIMADZU QP-1000

>  <ION MODE>  (309) 
P

>  <INCHIKEY>  (309) 
AGTOZWQMZJDUSV-UHFFFAOYSA-N

>  <FORMULA>  (309) 
C15H42Si6

>  <EXACT MASS>  (309) 
390.190210524

>  <MW>  (309) 
390

>  <ID>  (309) 
JP011733

>  <CONTRIBUTOR>  (309) 
University of Tokyo Team, {Faculty of Engineering, University of Tokyo

>  <COMMENT>  (309) 
SMILES=C[Si](C)(C)[Si](C1)([Si](C)(C)C)[Si](CC1)([Si](C)(C)C)[Si](C)(C)C
InChI=InChI=1S/C15H42Si6/c1-16(2,3)20(17(4,5)6)14-13-15-21(20,18(7,8)9)19(10,11)12/h13-15H2,1-12H3
computed SMILES=C[Si](C)(C)[Si]1(CCC[Si]1([Si](C)(C)C)[Si](C)(C)C)[Si](C)(C)C
accession=JP011733
date=2016.01.19 (Created 2008.10.21, modified 2011.05.06)
author=FAC. TECHNOLOGY, HIROSHIMA UNIV.
license=CC BY-NC-SA
exact mass=390.19021
ionization energy=70 eV
ion type=[M]+*
computed spectral entropy=3.625640637497589
computed normalized entropy=0.8929175038488428
SPLASH=splash10-00di-9630000000-907d33f0793859e43c9b
submitter=submitter = University of Tokyo Team (Faculty of Engineering, University of Tokyo)
MoNA Rating=3.75

>  <NUM PEAKS>  (309) 
58

>  <MASS SPECTRAL PEAKS>  (309) 
44 10.3
45 15.6
47 22.2
56 4.6
57 4.4
58 9.6
60 16.5
69 3.6
71 3.2
73 99.99
74 8.8
75 4.6
83 3.4
85 5.7
97 3.5
99 9.3
101 6.3
111 3.6
113 8.4
115 8.9
117 6.7
125 7.8
127 8.6
129 9.1
131 11.3
141 12.9
142 3.2
143 6
145 3.9
155 4.7
157 10.4
159 5.7
169 6.7
171 9.5
173 4.5
175 4.4
183 4
185 10.1
187 3.8
199 7.3
201 5.9
202 6.2
203 3.3
213 8
215 5.9
217 5.5
227 8.6
228 3.4
229 7.8
241 4.7
243 3.2
244 9.9
245 6.8
301 3
317 9.1
318 3.1
319 2.1
390 4

$$$$

     RDKit          2D

 13 14  0  0  0  0  0  0  0  0999 V2000
   -0.4345   -0.8352    0.0000 C   0  0  0  0  0  0  0  0  0  0  0  0
    1.4893   -0.7015    0.0000 C   0  0  0  0  0  0  0  0  0  0  0  0
    0.5883    3.0476    0.0000 C   0  0  0  0  0  0  0  0  0  0  0  0
    3.1012    0.7032    0.0000 C   0  0  0  0  0  0  0  0  0  0  0  0
   -0.4115    4.1559    0.0000 C   0  0  0  0  0  0  0  0  0  0  0  0
    4.0191    1.8802    0.0000 C   0  0  0  0  0  0  0  0  0  0  0  0
   -1.6215    2.0602    0.0000 C   0  0  0  0  0  0  0  0  0  0  0  0
    1.7451    2.7079    0.0000 C   0  0  0  0  0  0  0  0  0  0  0  0
   -0.1617    1.7485    0.0000 C   0  0  0  0  0  0  0  0  0  0  0  0
    1.6917    1.2162    0.0000 C   0  0  0  0  0  0  0  0  0  0  0  0
   -1.7873    3.5531    0.0000 S   0  0  0  0  0  0  0  0  0  0  0  0
    3.1865    3.1304    0.0000 S   0  0  0  0  0  0  0  0  0  0  0  0
    0.4478    0.3779    0.0000 Si  0  0  0  0  0  4  0  0  0  0  0  0
  5  3  2  0
  6  4  2  0
  9  3  1  0
  9  7  2  0
 10  4  1  0
 10  8  2  0
 11  5  1  0
 11  7  1  0
 12  6  1  0
 12  8  1  0
 13  1  1  0
 13  2  1  0
 13  9  1  0
 13 10  1  0
M  END
>  <NAME>  (310) 
DIMETHYLDI(3-THIENYL)SILANE

>  <SYNONYMS>  (310) 


>  <SPECTRUM TYPE>  (310) 
MS1

>  <INSTRUMENT TYPE>  (310) 
EI-B

>  <INSTRUMENT>  (310) 
SHIMADZU QP-1000

>  <ION MODE>  (310) 
P

>  <INCHIKEY>  (310) 
VGHQCYAPAKSXHU-UHFFFAOYSA-N

>  <FORMULA>  (310) 
C10H12S2Si

>  <EXACT MASS>  (310) 
224.014968914

>  <MW>  (310) 
224

>  <ID>  (310) 
JP011732

>  <CONTRIBUTOR>  (310) 
University of Tokyo Team, {Faculty of Engineering, University of Tokyo

>  <COMMENT>  (310) 
SMILES=c(s2)cc(c2)[Si](C)(C)c(c1)csc1
InChI=InChI=1S/C10H12S2Si/c1-13(2,9-3-5-11-7-9)10-4-6-12-8-10/h3-8H,1-2H3
computed SMILES=S1C=CC(=C1)[Si](C2=CSC=C2)(C)C
accession=JP011732
date=2016.01.19 (Created 2008.10.21, modified 2011.05.06)
author=FAC. TECHNOLOGY, HIROSHIMA UNIV.
license=CC BY-NC-SA
exact mass=224.01497
ionization energy=70 eV
ion type=[M]+*
computed spectral entropy=3.227962877753911
computed normalized entropy=0.7821317593753719
SPLASH=splash10-0zfr-9140000000-9cb63ee3608f1d80f1b3
submitter=submitter = University of Tokyo Team (Faculty of Engineering, University of Tokyo)
MoNA Rating=3.75

>  <NUM PEAKS>  (310) 
62

>  <MASS SPECTRAL PEAKS>  (310) 
50 11.7
51 79.8
52 11.7
53 57.4
54 7.4
55 16
56 1.1
57 11.7
58 12.8
59 6.4
60 2.1
61 6.4
62 2.1
63 6.4
64 2.1
65 12.8
66 4.3
67 5.3
68 1.1
69 7.4
73 2.1
74 1.1
75 50
76 4.3
77 6.4
78 1.1
79 1.1
81 2.1
82 1.1
83 6.4
84 3.2
85 6.4
89 2.1
90 1.1
91 2.1
96 1.1
97 6.4
98 2.1
99 1.1
100 1.1
101 2.1
108 2.1
111 7.4
115 5.3
125 2.1
134 2.1
140 2.1
141 6.4
142 1.1
143 1.1
151 1.1
166 2.1
183 5.3
207 2.1
209 99.99
210 20.2
211 12.8
212 2.1
222 3.2
224 22.3
225 6.4
226 4.3

$$$$

     RDKit          2D

  9  9  0  0  0  0  0  0  0  0999 V2000
    0.2422   -1.8255    0.0000 C   0  0  0  0  0  0  0  0  0  0  0  0
    1.2100    0.0622    0.0000 C   0  0  0  0  0  0  0  0  0  0  0  0
   -3.6055   -2.2777    0.0000 C   0  0  0  0  0  0  0  0  0  0  0  0
   -2.1055   -2.2777    0.0000 C   0  0  0  0  0  0  0  0  0  0  0  0
   -4.0655   -0.8577    0.0000 C   0  0  0  0  0  0  0  0  0  0  0  0
   -1.6455   -0.8577    0.0000 C   0  0  0  0  0  0  0  0  0  0  0  0
   -0.6777    1.0300    0.0000 Cl  0  0  0  0  0  0  0  0  0  0  0  0
   -2.8555    0.0323    0.0000 S   0  0  0  0  0  0  0  0  0  0  0  0
   -0.2177   -0.3977    0.0000 Si  0  0  0  0  0  4  0  0  0  0  0  0
  4  3  1  0
  5  3  2  0
  6  4  2  0
  8  5  1  0
  8  6  1  0
  9  1  1  0
  9  2  1  0
  9  6  1  0
  9  7  1  0
M  END
>  <NAME>  (311) 
CHLORODIMETHYL-2-THIENYLSILANE

>  <SYNONYMS>  (311) 


>  <SPECTRUM TYPE>  (311) 
MS1

>  <INSTRUMENT TYPE>  (311) 
EI-B

>  <INSTRUMENT>  (311) 
SHIMADZU QP-1000

>  <ION MODE>  (311) 
P

>  <INCHIKEY>  (311) 
DEPVFYAOAUKMFL-UHFFFAOYSA-N

>  <FORMULA>  (311) 
C6H9ClSSi

>  <EXACT MASS>  (311) 
175.98827549799998

>  <MW>  (311) 
176

>  <ID>  (311) 
JP011731

>  <CONTRIBUTOR>  (311) 
University of Tokyo Team, {Faculty of Engineering, University of Tokyo

>  <COMMENT>  (311) 
SMILES=C[Si](C)(Cl)c(c1)scc1
InChI=InChI=1S/C6H9ClSSi/c1-9(2,7)6-4-3-5-8-6/h3-5H,1-2H3
computed SMILES=Cl[Si](C=1SC=CC1)(C)C
accession=JP011731
date=2016.01.19 (Created 2008.10.21, modified 2011.05.06)
author=FAC. TECHNOLOGY, HIROSHIMA UNIV.
license=CC BY-NC-SA
exact mass=175.98828
ionization energy=70 eV
ion type=[M]+*
computed spectral entropy=3.1397498555347454
computed normalized entropy=0.802589824031753
SPLASH=splash10-03di-9400000000-5fd0b55c692ba73a4a67
submitter=submitter = University of Tokyo Team (Faculty of Engineering, University of Tokyo)
MoNA Rating=3.75

>  <NUM PEAKS>  (311) 
50

>  <MASS SPECTRAL PEAKS>  (311) 
52 7.4
53 32.6
54 3.2
55 35.8
56 6.3
57 4.2
58 14.7
59 9.5
60 1.1
61 2.1
62 3.2
63 2.1
64 99.99
65 64.2
66 7.4
67 11.6
69 5.3
71 5.3
73 1.1
75 12.6
76 1.1
77 6.3
78 3.2
79 4.2
81 12.6
82 4.2
83 3.2
85 3.2
89 1.1
93 13.7
95 6.3
97 16.8
98 1.1
99 1.1
103 12.6
105 3.2
111 6.3
117 3.2
120 1.1
135 8.4
136 6.3
137 3.2
161 82.1
162 9.5
163 31.6
164 3.2
165 1.1
176 14.7
177 1.1
178 5.3

$$$$

     RDKit          2D

 14 15  0  0  0  0  0  0  0  0999 V2000
    1.2992    0.7499    0.0000 C   0  0  0  0  0  0  0  0  0  0  0  0
   -2.5992   -3.0016    0.0000 C   0  0  0  0  0  0  0  0  0  0  0  0
    5.1979   -3.0003    0.0000 C   0  0  0  0  0  0  0  0  0  0  0  0
   -2.5987   -1.5007    0.0000 C   0  0  0  0  0  0  0  0  0  0  0  0
   -1.3002   -3.7516    0.0000 C   0  0  0  0  0  0  0  0  0  0  0  0
    3.8979   -3.7503    0.0000 C   0  0  0  0  0  0  0  0  0  0  0  0
    5.1979   -1.5003    0.0000 C   0  0  0  0  0  0  0  0  0  0  0  0
   -1.2992   -0.7499    0.0000 C   0  0  0  0  0  0  0  0  0  0  0  0
   -0.0007   -3.0007    0.0000 C   0  0  0  0  0  0  0  0  0  0  0  0
    2.5979   -3.0003    0.0000 C   0  0  0  0  0  0  0  0  0  0  0  0
    3.8979   -0.7503    0.0000 C   0  0  0  0  0  0  0  0  0  0  0  0
   -0.0002   -1.4999    0.0000 C   0  0  0  0  0  0  0  0  0  0  0  0
    2.5979   -1.5003    0.0000 C   0  0  0  0  0  0  0  0  0  0  0  0
    1.2990   -0.7501    0.0000 Si  0  0  0  0  0  4  0  0  0  0  0  0
  4  2  2  0
  5  2  1  0
  6  3  2  0
  7  3  1  0
  8  4  1  0
  9  5  2  0
 10  6  1  0
 11  7  2  0
 12  8  2  0
 12  9  1  0
 13 10  2  0
 13 11  1  0
 14  1  1  0
 14 12  1  0
 14 13  1  0
M  END
>  <NAME>  (312) 
METHYLDIPHENYLSILANE

>  <SYNONYMS>  (312) 


>  <SPECTRUM TYPE>  (312) 
MS1

>  <INSTRUMENT TYPE>  (312) 
EI-B

>  <INSTRUMENT>  (312) 
SHIMADZU QP-1000

>  <ION MODE>  (312) 
P

>  <INCHIKEY>  (312) 
FULSRCPEOUATID-UHFFFAOYSA-N

>  <FORMULA>  (312) 
C13H14Si

>  <EXACT MASS>  (312) 
198.086476978

>  <MW>  (312) 
198

>  <ID>  (312) 
JP011730

>  <CONTRIBUTOR>  (312) 
University of Tokyo Team, {Faculty of Engineering, University of Tokyo

>  <COMMENT>  (312) 
SMILES=c(c2)ccc(c2)[SiH](C)c(c1)cccc1
InChI=InChI=1S/C13H14Si/c1-14(12-8-4-2-5-9-12)13-10-6-3-7-11-13/h2-11,14H,1H3
computed SMILES=C=1C=CC(=CC1)[SiH](C=2C=CC=CC2)C
accession=JP011730
date=2016.01.19 (Created 2008.10.21, modified 2011.05.06)
author=FAC. TECHNOLOGY, HIROSHIMA UNIV.
license=CC BY-NC-SA
exact mass=198.08648
ionization energy=70 eV
ion type=[M]+*
computed spectral entropy=2.681436600531569
computed normalized entropy=0.7541980571680671
SPLASH=splash10-05fr-3900000000-4e6c3fa5f4d4fca761cb
submitter=submitter = University of Tokyo Team (Faculty of Engineering, University of Tokyo)
MoNA Rating=3.75

>  <NUM PEAKS>  (312) 
35

>  <MASS SPECTRAL PEAKS>  (312) 
52 2.8
53 7.7
54 26.8
55 27.5
56 2.8
65 2.1
66 2.1
67 3.5
69 2.1
77 5.6
78 4.2
79 12
91 3.5
93 4.9
95 1.4
98 2.1
103 4.9
105 73.2
106 8.5
107 2.1
119 4.2
120 99.99
121 17.6
122 3.5
129 1.4
155 2.1
165 1.4
180 1.4
181 6.3
182 1.4
183 19.7
184 2.8
197 9.2
198 14.8
199 2.1

$$$$

     RDKit          2D

 18 19  0  0  0  0  0  0  0  0999 V2000
    2.5607   -2.7206    0.0000 C   0  0  0  0  0  0  0  0  0  0  0  0
    3.5252   -1.0508    0.0000 C   0  0  0  0  0  0  0  0  0  0  0  0
    0.7492    0.9392    0.0000 C   0  0  0  0  0  0  0  0  0  0  0  0
    2.5614    1.5985    0.0000 C   0  0  0  0  0  0  0  0  0  0  0  0
   -1.8503   -3.5625    0.0000 C   0  0  0  0  0  0  0  0  0  0  0  0
    6.9538   -0.6783    0.0000 C   0  0  0  0  0  0  0  0  0  0  0  0
   -1.8498   -2.0616    0.0000 C   0  0  0  0  0  0  0  0  0  0  0  0
   -0.5512   -4.3125    0.0000 C   0  0  0  0  0  0  0  0  0  0  0  0
    6.4404    0.7321    0.0000 C   0  0  0  0  0  0  0  0  0  0  0  0
    5.9892   -1.8270    0.0000 C   0  0  0  0  0  0  0  0  0  0  0  0
   -0.5503   -1.3108    0.0000 C   0  0  0  0  0  0  0  0  0  0  0  0
    0.7483   -3.5616    0.0000 C   0  0  0  0  0  0  0  0  0  0  0  0
    4.9626    0.9936    0.0000 C   0  0  0  0  0  0  0  0  0  0  0  0
    4.5113   -1.5655    0.0000 C   0  0  0  0  0  0  0  0  0  0  0  0
    0.7488   -2.0608    0.0000 C   0  0  0  0  0  0  0  0  0  0  0  0
    3.9980   -0.1551    0.0000 C   0  0  0  0  0  0  0  0  0  0  0  0
    2.0479   -1.3110    0.0000 Si  0  0  0  0  0  4  0  0  0  0  0  0
    2.0482    0.1890    0.0000 Si  0  0  0  0  0  4  0  0  0  0  0  0
  7  5  2  0
  8  5  1  0
  9  6  2  0
 10  6  1  0
 11  7  1  0
 12  8  2  0
 13  9  1  0
 14 10  2  0
 15 11  2  0
 15 12  1  0
 16 13  2  0
 16 14  1  0
 17  1  1  0
 17  2  1  0
 17 15  1  0
 18  3  1  0
 18  4  1  0
 18 16  1  0
 18 17  1  0
M  END
>  <NAME>  (313) 
1,1,2,2-TETRAMETHYLDIPHENYLDISILANE

>  <SYNONYMS>  (313) 


>  <SPECTRUM TYPE>  (313) 
MS1

>  <INSTRUMENT TYPE>  (313) 
EI-B

>  <INSTRUMENT>  (313) 
SHIMADZU QP-1000

>  <ION MODE>  (313) 
P

>  <INCHIKEY>  (313) 
IIOOIYHUTINYQO-UHFFFAOYSA-N

>  <FORMULA>  (313) 
C16H22Si2

>  <EXACT MASS>  (313) 
270.12600376399996

>  <MW>  (313) 
270

>  <ID>  (313) 
JP011729

>  <CONTRIBUTOR>  (313) 
University of Tokyo Team, {Faculty of Engineering, University of Tokyo

>  <COMMENT>  (313) 
SMILES=c(c2)ccc(c2)[Si](C)(C)[Si](C)(C)c(c1)cccc1
InChI=InChI=1S/C16H22Si2/c1-17(2,15-11-7-5-8-12-15)18(3,4)16-13-9-6-10-14-16/h5-14H,1-4H3
computed SMILES=C=1C=CC(=CC1)[Si](C)(C)[Si](C=2C=CC=CC2)(C)C
accession=JP011729
date=2016.01.19 (Created 2008.10.21, modified 2011.05.06)
author=FAC. TECHNOLOGY, HIROSHIMA UNIV.
license=CC BY-NC-SA
exact mass=270.126
ionization energy=70 eV
ion type=[M]+*
computed spectral entropy=3.2417988058456104
computed normalized entropy=0.8467230200296049
SPLASH=splash10-052r-6910000000-ca11c5b8070e13a7f0b2
submitter=submitter = University of Tokyo Team (Faculty of Engineering, University of Tokyo)
MoNA Rating=3.75

>  <NUM PEAKS>  (313) 
46

>  <MASS SPECTRAL PEAKS>  (313) 
51 9.5
52 8.4
53 24.2
55 10.5
57 13.7
58 10.5
59 6.3
65 5.3
66 8.4
67 7.4
68 4.2
69 4.2
73 4.2
77 6.3
78 9.5
79 8.4
80 4.2
81 4.2
82 3.2
83 3.2
91 11.6
92 10.5
93 10.5
94 3.2
95 2.1
103 4.2
105 49.5
107 28.4
108 6.3
109 5.3
117 2.1
119 14.7
120 11.6
121 5.3
131 3.2
135 99.99
165 1.1
177 1.1
195 3.2
197 38.9
198 7.4
199 1.1
255 5.3
270 23.2
271 6.3
272 1.1

$$$$

     RDKit          2D

 23 25  0  0  0  0  0  0  0  0999 V2000
    3.4627   -2.4183    0.0000 C   0  0  0  0  0  0  0  0  0  0  0  0
    4.9627   -0.9183    0.0000 C   0  0  0  0  0  0  0  0  0  0  0  0
    3.4627    0.5817    0.0000 C   0  0  0  0  0  0  0  0  0  0  0  0
    1.6521    2.7096    0.0000 C   0  0  0  0  0  0  0  0  0  0  0  0
   -0.3270    3.4734    0.0000 C   0  0  0  0  0  0  0  0  0  0  0  0
   -1.0908    1.4943    0.0000 C   0  0  0  0  0  0  0  0  0  0  0  0
    5.8138    3.0207    0.0000 C   0  0  0  0  0  0  0  0  0  0  0  0
    5.8125    1.5198    0.0000 C   0  0  0  0  0  0  0  0  0  0  0  0
    4.5151    3.7713    0.0000 C   0  0  0  0  0  0  0  0  0  0  0  0
   -2.9473   -1.6683    0.0000 C   0  0  0  0  0  0  0  0  0  0  0  0
   -2.9473   -0.1683    0.0000 C   0  0  0  0  0  0  0  0  0  0  0  0
   -1.6473   -2.4183    0.0000 C   0  0  0  0  0  0  0  0  0  0  0  0
    4.5126    0.7696    0.0000 C   0  0  0  0  0  0  0  0  0  0  0  0
    3.2152    3.0211    0.0000 C   0  0  0  0  0  0  0  0  0  0  0  0
   -1.6473    0.5817    0.0000 C   0  0  0  0  0  0  0  0  0  0  0  0
    1.0827   -2.1283    0.0000 C   0  0  0  0  0  0  0  0  0  0  0  0
   -0.3473   -1.6683    0.0000 C   0  0  0  0  0  0  0  0  0  0  0  0
    3.2140    1.5203    0.0000 C   0  0  0  0  0  0  0  0  0  0  0  0
   -0.3473   -0.1683    0.0000 C   0  0  0  0  0  0  0  0  0  0  0  0
    1.9627   -0.9183    0.0000 C   0  0  0  0  0  0  0  0  0  0  0  0
    3.4627   -0.9183    0.0000 Si  0  0  0  0  0  4  0  0  0  0  0  0
    0.2807    2.1020    0.0000 Si  0  0  0  0  0  4  0  0  0  0  0  0
    1.0827    0.2917    0.0000 Si  0  0  0  0  0  4  0  0  0  0  0  0
  8  7  2  0
  9  7  1  0
 11 10  2  0
 12 10  1  0
 13  8  1  0
 14  9  2  0
 15 11  1  0
 17 12  2  0
 17 16  1  0
 18 13  2  0
 18 14  1  0
 19 15  2  0
 19 17  1  0
 20 16  2  0
 21  1  1  0
 21  2  1  0
 21  3  1  0
 21 20  1  0
 22  4  1  0
 22  5  1  0
 22  6  1  0
 23 18  1  0
 23 19  1  0
 23 20  1  0
 23 22  1  0
M  END
>  <NAME>  (314) 
1-PHENYL-1,2-BIS(TRIMETHYLSILYL)-1-SILAINDENE

>  <SYNONYMS>  (314) 


>  <SPECTRUM TYPE>  (314) 
MS1

>  <INSTRUMENT TYPE>  (314) 
EI-B

>  <INSTRUMENT>  (314) 
SHIMADZU QP-1000

>  <ION MODE>  (314) 
P

>  <INCHIKEY>  (314) 
NDSQIVUJPKOZRS-UHFFFAOYSA-N

>  <FORMULA>  (314) 
C20H28Si3

>  <EXACT MASS>  (314) 
352.149880486

>  <MW>  (314) 
352

>  <ID>  (314) 
JP011728

>  <CONTRIBUTOR>  (314) 
University of Tokyo Team, {Faculty of Engineering, University of Tokyo

>  <COMMENT>  (314) 
SMILES=c(c3)ccc(c3)[Si]([Si](C)(C)C)(c21)C(=Cc(cccc2)1)[Si](C)(C)C
InChI=InChI=1S/C20H28Si3/c1-21(2,3)20-16-17-12-10-11-15-19(17)23(20,22(4,5)6)18-13-8-7-9-14-18/h7-16H,1-6H3
computed SMILES=C=1C=CC(=CC1)[Si]2(C=3C=CC=CC3C=C2[Si](C)(C)C)[Si](C)(C)C
accession=JP011728
date=2016.01.19 (Created 2008.10.21, modified 2011.05.06)
author=FAC. TECHNOLOGY, HIROSHIMA UNIV.
license=CC BY-NC-SA
exact mass=352.14988
ionization energy=70 eV
ion type=[M]+*
computed spectral entropy=3.187339444308467
computed normalized entropy=0.7918163900174306
SPLASH=splash10-00di-9611000000-12f51e04a1ac82f8fd44
submitter=submitter = University of Tokyo Team (Faculty of Engineering, University of Tokyo)
MoNA Rating=3.75

>  <NUM PEAKS>  (314) 
56

>  <MASS SPECTRAL PEAKS>  (314) 
55 13.8
56 5.3
58 4.3
59 4.3
60 12.8
67 3.2
69 3.2
73 99.99
74 8.5
75 3.2
77 1.1
79 2.1
81 1.1
83 4.3
91 2.1
93 3.2
101 2.1
103 3.2
105 18.1
106 2.1
107 4.3
117 2.1
119 4.3
121 3.2
129 3.2
131 3.2
133 3.2
135 26.6
136 3.2
143 5.3
145 16
146 2.1
147 2.1
159 2.1
161 1.1
165 1.1
175 3.2
177 4.3
179 1.1
195 2.1
202 3.2
217 1.6
218 4.3
219 2.1
249 1.1
253 1.1
254 1.1
277 2.1
278 1.1
279 12.8
280 3.2
337 18.1
338 6.4
339 2.1
352 4.9
353 2.1

$$$$

     RDKit          2D

 21 22  0  0  0  0  0  0  0  0999 V2000
   -2.5989   -1.5002    0.0000 C   0  0  0  0  0  0  0  0  0  0  0  0
    2.6380   -3.8464    0.0000 C   0  0  0  0  0  0  0  0  0  0  0  0
    2.5987    3.0002    0.0000 C   0  0  0  0  0  0  0  0  0  0  0  0
    7.7951    1.5010    0.0000 C   0  0  0  0  0  0  0  0  0  0  0  0
   -1.3000    0.7500    0.0000 C   0  0  0  0  0  0  0  0  0  0  0  0
   -0.0000   -1.5000    0.0000 C   0  0  0  0  0  0  0  0  0  0  0  0
    3.0890   -1.2876    0.0000 C   0  0  0  0  0  0  0  0  0  0  0  0
    5.0801   -2.9573    0.0000 C   0  0  0  0  0  0  0  0  0  0  0  0
    0.0000    1.5000    0.0000 C   0  0  0  0  0  0  0  0  0  0  0  0
    1.3000   -0.7500    0.0000 C   0  0  0  0  0  0  0  0  0  0  0  0
    4.0540   -0.1382    0.0000 C   0  0  0  0  0  0  0  0  0  0  0  0
    6.0452   -1.8079    0.0000 C   0  0  0  0  0  0  0  0  0  0  0  0
    3.8981    0.7504    0.0000 C   0  0  0  0  0  0  0  0  0  0  0  0
    5.1970    1.5006    0.0000 C   0  0  0  0  0  0  0  0  0  0  0  0
   -1.3000   -0.7500    0.0000 C   0  0  0  0  0  0  0  0  0  0  0  0
    3.6020   -2.6972    0.0000 C   0  0  0  0  0  0  0  0  0  0  0  0
    1.3000    0.7500    0.0000 C   0  0  0  0  0  0  0  0  0  0  0  0
    5.5322   -0.3984    0.0000 C   0  0  0  0  0  0  0  0  0  0  0  0
    7.4605   -0.3981    0.0000 Cl  0  0  0  0  0  0  0  0  0  0  0  0
    2.5989    1.5002    0.0000 Si  0  0  0  0  0  4  0  0  0  0  0  0
    6.4962    0.7508    0.0000 Si  0  0  0  0  0  4  0  0  0  0  0  0
  9  5  2  0
 10  6  1  0
 11  7  2  0
 12  8  1  0
 14 13  1  0
 15  1  1  0
 15  5  1  0
 15  6  2  0
 16  2  1  0
 16  7  1  0
 16  8  2  0
 17  9  1  0
 17 10  2  0
 18 11  1  0
 18 12  2  0
 20  3  1  0
 20 13  1  0
 20 17  1  0
 21  4  1  0
 21 14  1  0
 21 18  1  0
 21 19  1  0
M  END
>  <NAME>  (315) 
1-(CHLOROMETHYL(PARA-TOLYL)SILYL)-2-(METHYL(PARA-TOLYL)SILYL)ETHANE

>  <SYNONYMS>  (315) 


>  <SPECTRUM TYPE>  (315) 
MS1

>  <INSTRUMENT TYPE>  (315) 
EI-B

>  <INSTRUMENT>  (315) 
SHIMADZU QP-1000

>  <ION MODE>  (315) 
P

>  <INCHIKEY>  (315) 
OYOFPNYXPNQFJM-UHFFFAOYSA-N

>  <FORMULA>  (315) 
C18H25ClSi2

>  <EXACT MASS>  (315) 
332.11833154

>  <MW>  (315) 
332

>  <ID>  (315) 
JP011727

>  <CONTRIBUTOR>  (315) 
University of Tokyo Team, {Faculty of Engineering, University of Tokyo

>  <COMMENT>  (315) 
SMILES=Cc(c2)ccc(c2)[SiH](C)CC[Si](C)(Cl)c(c1)ccc(C)c1
InChI=InChI=1S/C18H25ClSi2/c1-15-5-9-17(10-6-15)20(3)13-14-21(4,19)18-11-7-16(2)8-12-18/h5-12,20H,13-14H2,1-4H3
computed SMILES=Cl[Si](C1=CC=C(C=C1)C)(C)CC[SiH](C2=CC=C(C=C2)C)C
accession=JP011727
date=2016.01.19 (Created 2008.10.21, modified 2011.05.06)
author=FAC. TECHNOLOGY, HIROSHIMA UNIV.
license=CC BY-NC-SA
exact mass=332.11833
ionization energy=70 eV
ion type=[M]+*
computed spectral entropy=3.364001233433718
computed normalized entropy=0.8029304180340741
SPLASH=splash10-01q3-2910000000-0fca1ebea9bffe1913cf
submitter=submitter = University of Tokyo Team (Faculty of Engineering, University of Tokyo)
MoNA Rating=3.75

>  <NUM PEAKS>  (315) 
66

>  <MASS SPECTRAL PEAKS>  (315) 
52 1.1
53 2.1
55 6.4
56 2.1
60 1.1
64 16
65 11.7
66 1.1
67 3.2
69 3.2
70 2.1
77 3.2
78 3.2
79 4.3
81 1.1
89 1.1
91 43.6
92 17
93 9.6
95 2.1
103 2.1
104 1.1
105 16
106 2.1
107 10.6
109 2.1
117 2.1
119 40.4
120 7.4
121 6.4
131 5.3
132 1.1
134 96.8
135 99.99
136 14.9
137 2.1
145 1.1
147 11.7
148 4.3
149 25.5
150 3.2
161 18.1
162 19.1
163 3.2
169 16
170 2.1
171 5.3
211 4.3
212 14.9
213 3.2
214 5.3
225 8.5
226 2.1
227 1.1
240 24.5
241 8.5
242 9.6
243 2.1
297 1.2
317 5.2
318 1.8
319 2.3
331 3.2
332 2.7
333 1.9
334 1.1

$$$$

     RDKit          2D

  9  9  0  0  0  0  0  0  0  0999 V2000
   -1.3000    0.7500    0.0000 C   0  0  0  0  0  0  0  0  0  0  0  0
    0.0000    1.5000    0.0000 C   0  0  0  0  0  0  0  0  0  0  0  0
   -1.3000   -0.7500    0.0000 C   0  0  0  0  0  0  0  0  0  0  0  0
    1.3000    0.7500    0.0000 C   0  0  0  0  0  0  0  0  0  0  0  0
    0.0000   -1.5000    0.0000 C   0  0  0  0  0  0  0  0  0  0  0  0
    1.3000   -0.7500    0.0000 C   0  0  0  0  0  0  0  0  0  0  0  0
    3.8981   -0.7504    0.0000 Cl  0  0  0  0  0  0  0  0  0  0  0  0
    2.5987   -3.0002    0.0000 Cl  0  0  0  0  0  0  0  0  0  0  0  0
    2.5989   -1.5002    0.0000 Si  0  0  0  0  0  4  0  0  0  0  0  0
  2  1  2  0
  3  1  1  0
  4  2  1  0
  5  3  2  0
  6  4  2  0
  6  5  1  0
  9  6  1  0
  9  7  1  0
  9  8  1  0
M  END
>  <NAME>  (316) 
DICHLOROPHENYLSILANE

>  <SYNONYMS>  (316) 


>  <SPECTRUM TYPE>  (316) 
MS1

>  <INSTRUMENT TYPE>  (316) 
EI-B

>  <INSTRUMENT>  (316) 
SHIMADZU QP-1000

>  <ION MODE>  (316) 
P

>  <INCHIKEY>  (316) 
VIRVTHOOZABTPR-UHFFFAOYSA-N

>  <FORMULA>  (316) 
C6H6Cl2Si

>  <EXACT MASS>  (316) 
175.961582082

>  <MW>  (316) 
176

>  <ID>  (316) 
JP011726

>  <CONTRIBUTOR>  (316) 
University of Tokyo Team, {Faculty of Engineering, University of Tokyo

>  <COMMENT>  (316) 
SMILES=c(c1)ccc(c1)[SiH](Cl)Cl
InChI=InChI=1S/C6H6Cl2Si/c7-9(8)6-4-2-1-3-5-6/h1-5,9H
computed SMILES=Cl[SiH](Cl)C=1C=CC=CC1
accession=JP011726
license=CC BY-NC-SA
date=2016.01.19 (Created 2008.10.21, modified 2011.05.06)
author=FAC. TECHNOLOGY, HIROSHIMA UNIV.
exact mass=175.96158
ionization energy=70 eV
ion type=[M]+*
computed spectral entropy=2.1701150520470276
computed normalized entropy=0.7244022008256795
SPLASH=splash10-004i-9000000000-db68c4d5834e32335dd0
submitter=submitter = University of Tokyo Team (Faculty of Engineering, University of Tokyo)
MoNA Rating=3.75

>  <NUM PEAKS>  (316) 
20

>  <MASS SPECTRAL PEAKS>  (316) 
52 17
53 29.8
54 6.4
55 7.4
64 25.5
65 9.6
71 8.5
72 8.5
74 2.1
75 1.1
78 99.99
79 6.4
101 2.1
102 4.3
105 1.1
141 1.2
175 4.3
176 4.3
177 3.1
178 2.6

$$$$

     RDKit          2D

 17 18  0  0  0  0  0  0  0  0999 V2000
   -2.5989   -1.5002    0.0000 C   0  0  0  0  0  0  0  0  0  0  0  0
    7.7963   -1.5010    0.0000 C   0  0  0  0  0  0  0  0  0  0  0  0
   -1.3000    0.7500    0.0000 C   0  0  0  0  0  0  0  0  0  0  0  0
    0.0000   -1.5000    0.0000 C   0  0  0  0  0  0  0  0  0  0  0  0
    5.1981   -1.5012    0.0000 C   0  0  0  0  0  0  0  0  0  0  0  0
    6.4966    0.7496    0.0000 C   0  0  0  0  0  0  0  0  0  0  0  0
    0.0000    1.5000    0.0000 C   0  0  0  0  0  0  0  0  0  0  0  0
    1.3000   -0.7500    0.0000 C   0  0  0  0  0  0  0  0  0  0  0  0
    3.8986   -0.7504    0.0000 C   0  0  0  0  0  0  0  0  0  0  0  0
    5.1971    1.5004    0.0000 C   0  0  0  0  0  0  0  0  0  0  0  0
   -1.3000   -0.7500    0.0000 C   0  0  0  0  0  0  0  0  0  0  0  0
    6.4971   -0.7512    0.0000 C   0  0  0  0  0  0  0  0  0  0  0  0
    1.3000    0.7500    0.0000 C   0  0  0  0  0  0  0  0  0  0  0  0
    3.8981    0.7504    0.0000 C   0  0  0  0  0  0  0  0  0  0  0  0
    3.5629    2.6494    0.0000 Cl  0  0  0  0  0  0  0  0  0  0  0  0
    1.6346    2.6491    0.0000 Cl  0  0  0  0  0  0  0  0  0  0  0  0
    2.5989    1.5002    0.0000 Si  0  0  0  0  0  4  0  0  0  0  0  0
  7  3  2  0
  8  4  1  0
  9  5  2  0
 10  6  1  0
 11  1  1  0
 11  3  1  0
 11  4  2  0
 12  2  1  0
 12  5  1  0
 12  6  2  0
 13  7  1  0
 13  8  2  0
 14  9  1  0
 14 10  2  0
 17 13  1  0
 17 14  1  0
 17 15  1  0
 17 16  1  0
M  END
>  <NAME>  (317) 
DICHLORODI(PARA-TOLYL)SILANE

>  <SYNONYMS>  (317) 


>  <SPECTRUM TYPE>  (317) 
MS1

>  <INSTRUMENT TYPE>  (317) 
EI-B

>  <INSTRUMENT>  (317) 
SHIMADZU QP-1000

>  <ION MODE>  (317) 
P

>  <INCHIKEY>  (317) 
JRAHXNQYHZPMCW-UHFFFAOYSA-N

>  <FORMULA>  (317) 
C14H14Cl2Si

>  <EXACT MASS>  (317) 
280.024182338

>  <MW>  (317) 
280

>  <ID>  (317) 
JP011725

>  <CONTRIBUTOR>  (317) 
University of Tokyo Team, {Faculty of Engineering, University of Tokyo

>  <COMMENT>  (317) 
SMILES=Cc(c2)ccc(c2)[Si](Cl)(Cl)c(c1)ccc(C)c1
InChI=InChI=1S/C14H14Cl2Si/c1-11-3-7-13(8-4-11)17(15,16)14-9-5-12(2)6-10-14/h3-10H,1-2H3
computed SMILES=Cl[Si](Cl)(C1=CC=C(C=C1)C)C2=CC=C(C=C2)C
accession=JP011725
date=2016.01.19 (Created 2008.10.21, modified 2011.05.06)
author=FAC. TECHNOLOGY, HIROSHIMA UNIV.
license=CC BY-NC-SA
exact mass=280.02418
ionization energy=70 eV
ion type=[M]+*
computed spectral entropy=3.0716504326143794
computed normalized entropy=0.7851820984570633
SPLASH=splash10-00l6-9610000000-d9a7a29ee121687c4060
submitter=submitter = University of Tokyo Team (Faculty of Engineering, University of Tokyo)
MoNA Rating=3.75

>  <NUM PEAKS>  (317) 
50

>  <MASS SPECTRAL PEAKS>  (317) 
50 5.3
51 8.5
52 2.1
53 3.2
63 42.6
65 62.8
76 2.1
77 2.1
89 18.1
90 18.1
91 99.99
92 11.7
115 3.2
121 12.8
122 9.6
123 3.2
125 1.1
128 1.1
139 1.1
152 4.3
153 5.3
154 1.1
155 1.1
165 13.8
166 6.4
167 18.1
168 2.1
178 2.1
179 3.2
181 13.8
182 63.8
183 9.6
189 18.1
190 4.3
191 12.8
192 1.1
193 1.1
229 5.5
230 1.5
231 1.9
243 1.7
244 1.1
245 2.6
265 3
267 1.7
280 8.9
281 3.6
282 6.4
283 2.1
284 1.3

$$$$

     RDKit          2D

 20 21  0  0  0  0  0  0  0  0999 V2000
    4.8525   -5.4077    0.0000 C   0  0  0  0  0  0  0  0  0  0  0  0
    2.2544   -5.4073    0.0000 C   0  0  0  0  0  0  0  0  0  0  0  0
    4.8530   -2.4077    0.0000 C   0  0  0  0  0  0  0  0  0  0  0  0
    1.7423    0.5024    0.0000 C   0  0  0  0  0  0  0  0  0  0  0  0
    6.1533    1.3442    0.0000 C   0  0  0  0  0  0  0  0  0  0  0  0
   -2.1780   -1.6897    0.0000 C   0  0  0  0  0  0  0  0  0  0  0  0
    6.1529   -0.1566    0.0000 C   0  0  0  0  0  0  0  0  0  0  0  0
    4.8543    2.0942    0.0000 C   0  0  0  0  0  0  0  0  0  0  0  0
   -1.6642   -0.2795    0.0000 C   0  0  0  0  0  0  0  0  0  0  0  0
   -1.2138   -2.8387    0.0000 C   0  0  0  0  0  0  0  0  0  0  0  0
    4.8533   -0.9075    0.0000 C   0  0  0  0  0  0  0  0  0  0  0  0
    3.5548    1.3434    0.0000 C   0  0  0  0  0  0  0  0  0  0  0  0
   -0.1863   -0.0184    0.0000 C   0  0  0  0  0  0  0  0  0  0  0  0
    0.2641   -2.5777    0.0000 C   0  0  0  0  0  0  0  0  0  0  0  0
    2.2549   -2.4073    0.0000 C   0  0  0  0  0  0  0  0  0  0  0  0
    3.5536   -4.6575    0.0000 C   0  0  0  0  0  0  0  0  0  0  0  0
    3.5538   -3.1575    0.0000 C   0  0  0  0  0  0  0  0  0  0  0  0
    3.5543   -0.1575    0.0000 C   0  0  0  0  0  0  0  0  0  0  0  0
    0.7779   -1.1675    0.0000 C   0  0  0  0  0  0  0  0  0  0  0  0
    2.2551   -0.9073    0.0000 Si  0  0  0  0  0  4  0  0  0  0  0  0
  7  5  2  0
  8  5  1  0
  9  6  2  0
 10  6  1  0
 11  7  1  0
 12  8  2  0
 13  9  1  0
 14 10  2  0
 16  1  1  0
 16  2  1  0
 17  3  1  0
 17 15  1  0
 17 16  2  0
 18 11  2  0
 18 12  1  0
 19 13  2  0
 19 14  1  0
 20  4  1  0
 20 15  1  0
 20 18  1  0
 20 19  1  0
M  END
>  <NAME>  (318) 
2,3-DIMETHYL-1-(METHYLDIPHENYLSILYL)-2-BUTENE

>  <SYNONYMS>  (318) 


>  <SPECTRUM TYPE>  (318) 
MS1

>  <INSTRUMENT TYPE>  (318) 
EI-B

>  <INSTRUMENT>  (318) 
SHIMADZU QP-1000

>  <ION MODE>  (318) 
P

>  <INCHIKEY>  (318) 
JEKZJRAGCKQIDM-UHFFFAOYSA-N

>  <FORMULA>  (318) 
C19H24Si

>  <EXACT MASS>  (318) 
280.164727298

>  <MW>  (318) 
280

>  <ID>  (318) 
JP011724

>  <CONTRIBUTOR>  (318) 
University of Tokyo Team, {Faculty of Engineering, University of Tokyo

>  <COMMENT>  (318) 
SMILES=CC(C)=C(C)C[Si](C)(c(c2)cccc2)c(c1)cccc1
InChI=InChI=1S/C19H24Si/c1-16(2)17(3)15-20(4,18-11-7-5-8-12-18)19-13-9-6-10-14-19/h5-14H,15H2,1-4H3
computed SMILES=C=1C=CC(=CC1)[Si](C=2C=CC=CC2)(C)CC(=C(C)C)C
accession=JP011724
date=2016.01.19 (Created 2008.10.21, modified 2011.05.06)
author=FAC. TECHNOLOGY, HIROSHIMA UNIV.
license=CC BY-NC-SA
exact mass=280.16473
ionization energy=70 eV
ion type=[M]+*
computed spectral entropy=2.928033427991256
computed normalized entropy=0.7937460316643948
SPLASH=splash10-052b-5900000000-cb4a67077c0f8d912580
submitter=submitter = University of Tokyo Team (Faculty of Engineering, University of Tokyo)
MoNA Rating=3.75

>  <NUM PEAKS>  (318) 
40

>  <MASS SPECTRAL PEAKS>  (318) 
50 3.2
51 8.4
53 14.7
54 6.3
55 33.7
59 2.1
65 4.2
66 2.1
67 14.7
68 3.2
69 4.2
77 3.2
78 3.2
79 8.4
81 1.1
83 4.2
91 6.3
93 14.7
94 1.1
95 2.1
103 6.3
105 43.2
106 5.3
107 2.1
117 2.1
119 14.7
120 3.2
121 6.3
129 2.1
145 1.1
155 2.1
165 6.3
180 3.2
181 6.3
193 1.1
195 9.5
197 99.99
198 17.9
199 4.2
280 2.5

$$$$

     RDKit          2D

 21 23  0  0  0  0  0  0  0  0999 V2000
    3.2164    1.9214    0.0000 C   0  0  0  0  0  0  0  0  0  0  0  0
   -2.7511    7.2971    0.0000 C   0  0  0  0  0  0  0  0  0  0  0  0
   -3.8965   -2.4135    0.0000 C   0  0  0  0  0  0  0  0  0  0  0  0
   -6.3217   -0.2299    0.0000 C   0  0  0  0  0  0  0  0  0  0  0  0
    1.1143    0.3944    0.0000 C   0  0  0  0  0  0  0  0  0  0  0  0
    0.8422    2.9786    0.0000 C   0  0  0  0  0  0  0  0  0  0  0  0
   -1.4522    5.0469    0.0000 C   0  0  0  0  0  0  0  0  0  0  0  0
   -4.0507    5.0465    0.0000 C   0  0  0  0  0  0  0  0  0  0  0  0
   -0.3784    0.2382    0.0000 C   0  0  0  0  0  0  0  0  0  0  0  0
   -0.6504    2.8225    0.0000 C   0  0  0  0  0  0  0  0  0  0  0  0
   -1.4529    3.5461    0.0000 C   0  0  0  0  0  0  0  0  0  0  0  0
   -4.0515    3.5457    0.0000 C   0  0  0  0  0  0  0  0  0  0  0  0
   -2.4407   -0.1718    0.0000 C   0  0  0  0  0  0  0  0  0  0  0  0
   -4.2443    1.4523    0.0000 C   0  0  0  0  0  0  0  0  0  0  0  0
    1.7246    1.7646    0.0000 C   0  0  0  0  0  0  0  0  0  0  0  0
   -2.7511    5.7971    0.0000 C   0  0  0  0  0  0  0  0  0  0  0  0
   -3.7397   -0.9218    0.0000 C   0  0  0  0  0  0  0  0  0  0  0  0
   -4.8544    0.0819    0.0000 C   0  0  0  0  0  0  0  0  0  0  0  0
   -1.2608    1.4523    0.0000 C   0  0  0  0  0  0  0  0  0  0  0  0
   -2.7525    2.7955    0.0000 C   0  0  0  0  0  0  0  0  0  0  0  0
   -2.7525    1.2955    0.0000 Si  0  0  0  0  0  4  0  0  0  0  0  0
  9  5  2  0
 10  6  1  0
 11  7  2  0
 12  8  1  0
 15  1  1  0
 15  5  1  0
 15  6  2  0
 16  2  1  0
 16  7  1  0
 16  8  2  0
 17  3  1  0
 17 13  1  0
 18  4  1  0
 18 14  1  0
 18 17  2  0
 19  9  1  0
 19 10  2  0
 20 11  1  0
 20 12  2  0
 21 13  1  0
 21 14  1  0
 21 19  1  0
 21 20  1  0
M  END
>  <NAME>  (319) 
3,4-DIMETHYL-1,1-DI(PARA-TOLYL)-1-SILACYCLOPENT-3-ENE

>  <SYNONYMS>  (319) 


>  <SPECTRUM TYPE>  (319) 
MS1

>  <INSTRUMENT TYPE>  (319) 
EI-B

>  <INSTRUMENT>  (319) 
SHIMADZU QP-1000

>  <ION MODE>  (319) 
P

>  <INCHIKEY>  (319) 
WIGCMNCYCAIXEH-UHFFFAOYSA-N

>  <FORMULA>  (319) 
C20H24Si

>  <EXACT MASS>  (319) 
292.164727298

>  <MW>  (319) 
292

>  <ID>  (319) 
JP011723

>  <CONTRIBUTOR>  (319) 
University of Tokyo Team, {Faculty of Engineering, University of Tokyo

>  <COMMENT>  (319) 
SMILES=Cc(c3)ccc(c3)[Si](C2)(CC(C)=C(C)2)c(c1)ccc(C)c1
InChI=InChI=1S/C20H24Si/c1-15-5-9-19(10-6-15)21(13-17(3)18(4)14-21)20-11-7-16(2)8-12-20/h5-12H,13-14H2,1-4H3
computed SMILES=C=1C=C(C=CC1C)[Si]2(C3=CC=C(C=C3)C)CC(=C(C)C2)C
accession=JP011723
date=2016.01.19 (Created 2008.10.21, modified 2011.05.06)
author=FAC. TECHNOLOGY, HIROSHIMA UNIV.
license=CC BY-NC-SA
exact mass=292.16473
ionization energy=70 eV
ion type=[M]+*
computed spectral entropy=3.6835515994479557
computed normalized entropy=0.8313482065901631
SPLASH=splash10-0udi-4790000000-04fe6f8ee1e54acbd465
submitter=submitter = University of Tokyo Team (Faculty of Engineering, University of Tokyo)
MoNA Rating=3.75

>  <NUM PEAKS>  (319) 
84

>  <MASS SPECTRAL PEAKS>  (319) 
51 3.2
52 3.2
53 16.8
55 6.3
56 1.1
57 1.1
58 1.1
62 2.1
63 2.1
65 6.3
66 11.6
67 11.6
68 3.2
69 2.1
76 2.1
77 3.2
78 3.2
79 3.2
80 1.1
81 2.1
82 1.1
89 1.1
91 11.6
93 18.9
94 3.2
95 2.1
103 1.1
104 3.2
105 6.3
107 9.5
108 11.6
109 6.3
115 1.1
117 6.3
119 32.6
120 4.2
121 3.2
128 2.1
129 1.1
131 1.1
135 3.2
141 1.1
142 3.2
143 3.2
145 3.2
155 3.2
156 3.2
157 3.2
158 3.2
159 6.3
160 2.1
165 5.3
166 1.1
167 2.1
169 1.1
171 1.1
178 2.1
179 6.3
180 2.1
181 3.2
182 1.1
183 2.1
185 22.1
186 3.2
187 3.2
193 3.2
195 17.9
196 3.2
197 1.1
200 99.99
201 24.2
202 5.3
205 1.1
207 4.2
208 6.3
209 22.1
210 13.7
211 12.6
212 2.1
235 2.1
249 1.1
292 41.1
293 11.6
294 2.1

$$$$

     RDKit          2D

 23 24  0  0  0  0  0  0  0  0999 V2000
    7.5548   -0.1823    0.0000 C   0  0  0  0  0  0  0  0  0  0  0  0
    8.1041    1.8666    0.0000 C   0  0  0  0  0  0  0  0  0  0  0  0
    6.0552    2.4160    0.0000 C   0  0  0  0  0  0  0  0  0  0  0  0
    2.7223   -3.2458    0.0000 C   0  0  0  0  0  0  0  0  0  0  0  0
    4.8355   -3.4310    0.0000 C   0  0  0  0  0  0  0  0  0  0  0  0
    5.0207   -1.3178    0.0000 C   0  0  0  0  0  0  0  0  0  0  0  0
   -0.9914    1.1177    0.0000 C   0  0  0  0  0  0  0  0  0  0  0  0
   -0.2941   -4.9491    0.0000 C   0  0  0  0  0  0  0  0  0  0  0  0
    0.3086    1.8677    0.0000 C   0  0  0  0  0  0  0  0  0  0  0  0
   -0.9914   -0.3823    0.0000 C   0  0  0  0  0  0  0  0  0  0  0  0
   -0.8070   -3.5387    0.0000 C   0  0  0  0  0  0  0  0  0  0  0  0
    1.1831   -5.2096    0.0000 C   0  0  0  0  0  0  0  0  0  0  0  0
    1.6086    1.1177    0.0000 C   0  0  0  0  0  0  0  0  0  0  0  0
    0.3086   -1.1323    0.0000 C   0  0  0  0  0  0  0  0  0  0  0  0
    0.1573   -2.3886    0.0000 C   0  0  0  0  0  0  0  0  0  0  0  0
    2.1474   -4.0596    0.0000 C   0  0  0  0  0  0  0  0  0  0  0  0
    5.5058    0.3670    0.0000 C   0  0  0  0  0  0  0  0  0  0  0  0
    4.2067   -0.3828    0.0000 C   0  0  0  0  0  0  0  0  0  0  0  0
    1.6086   -0.3823    0.0000 C   0  0  0  0  0  0  0  0  0  0  0  0
    1.6346   -2.6491    0.0000 C   0  0  0  0  0  0  0  0  0  0  0  0
    6.8050    1.1168    0.0000 Si  0  0  0  0  0  4  0  0  0  0  0  0
    3.8715   -2.2818    0.0000 Si  0  0  0  0  0  4  0  0  0  0  0  0
    2.9075   -1.1326    0.0000 Si  0  0  0  0  0  4  0  0  0  0  0  0
  9  7  2  0
 10  7  1  0
 11  8  2  0
 12  8  1  0
 13  9  1  0
 14 10  2  0
 15 11  1  0
 16 12  2  0
 18 17  3  0
 19 13  2  0
 19 14  1  0
 20 15  2  0
 20 16  1  0
 21  1  1  0
 21  2  1  0
 21  3  1  0
 21 17  1  0
 22  4  1  0
 22  5  1  0
 22  6  1  0
 23 18  1  0
 23 19  1  0
 23 20  1  0
 23 22  1  0
M  END
>  <NAME>  (320) 
(TRIMETHYL-1,1-DIPHENYLDISILANYL)TRIMETHYLSILYLACETYLENE

>  <SYNONYMS>  (320) 


>  <SPECTRUM TYPE>  (320) 
MS1

>  <INSTRUMENT TYPE>  (320) 
EI-B

>  <INSTRUMENT>  (320) 
SHIMADZU QP-1000

>  <ION MODE>  (320) 
P

>  <INCHIKEY>  (320) 
QJACLBMFJRBXMU-UHFFFAOYSA-N

>  <FORMULA>  (320) 
C20H28Si3

>  <EXACT MASS>  (320) 
352.14988048600003

>  <MW>  (320) 
352

>  <ID>  (320) 
JP011722

>  <CONTRIBUTOR>  (320) 
University of Tokyo Team, {Faculty of Engineering, University of Tokyo

>  <COMMENT>  (320) 
SMILES=C[Si](C)(C)C#C[Si](c(c2)cccc2)(c(c1)cccc1)[Si](C)(C)C
InChI=InChI=1S/C20H28Si3/c1-21(2,3)17-18-23(22(4,5)6,19-13-9-7-10-14-19)20-15-11-8-12-16-20/h7-16H,1-6H3
computed SMILES=C(#C[Si](C)(C)C)[Si](C=1C=CC=CC1)(C=2C=CC=CC2)[Si](C)(C)C
accession=JP011722
date=2016.01.19 (Created 2008.10.21, modified 2011.05.06)
author=FAC. TECHNOLOGY, HIROSHIMA UNIV.
license=CC BY-NC-SA
exact mass=352.14988
ionization energy=70 eV
ion type=[M]+*
computed spectral entropy=3.5287917302369474
computed normalized entropy=0.8007752552939844
SPLASH=splash10-0fkj-7931000000-49ba472597f66e818430
submitter=submitter = University of Tokyo Team (Faculty of Engineering, University of Tokyo)
MoNA Rating=3.75

>  <NUM PEAKS>  (320) 
82

>  <MASS SPECTRAL PEAKS>  (320) 
31 1.1
32 6.4
43 38.3
45 48.9
53 9.6
55 4.3
57 4.3
59 3.2
67 4.3
69 3.2
73 99.99
75 3.2
77 1.1
79 3.2
81 2.1
83 5.3
91 3.2
93 4.3
95 1.1
97 3.2
103 3.2
105 39.4
107 8.5
109 1.1
116 2.1
117 1.1
119 5.3
121 2.1
129 9.6
131 3.2
133 1.1
135 84
136 11.7
137 2.1
140 3.2
143 3.2
145 11.7
146 1.1
147 1.1
155 4.3
157 1.1
159 12.8
160 1.1
161 2.1
163 2.1
165 2.1
171 1.1
173 3.2
177 4.3
178 11.7
179 2.1
180 2.1
181 8.5
182 2.1
187 5.3
191 2.1
195 6.4
197 35.1
198 5.3
199 1.1
201 2.1
202 14.9
203 2.1
204 1.1
207 2.1
217 18.1
218 4.3
219 2.1
221 9.6
222 1.1
249 4.3
259 1.1
263 2.1
264 2.1
280 44.7
281 4.3
337 7.4
338 2.1
351 1.1
352 37.2
353 13.8
354 6.4

$$$$

     RDKit          2D

 17 17  0  0  0  0  0  0  0  0999 V2000
   -3.3491   -0.2013    0.0000 C   0  0  0  0  0  0  0  0  0  0  0  0
   -3.8978   -2.2504    0.0000 C   0  0  0  0  0  0  0  0  0  0  0  0
   -1.8487   -2.7991    0.0000 C   0  0  0  0  0  0  0  0  0  0  0  0
    3.1483   -0.5487    0.0000 C   0  0  0  0  0  0  0  0  0  0  0  0
    5.1972    0.0006    0.0000 C   0  0  0  0  0  0  0  0  0  0  0  0
    4.6479    2.0496    0.0000 C   0  0  0  0  0  0  0  0  0  0  0  0
    3.5629    2.6494    0.0000 C   0  0  0  0  0  0  0  0  0  0  0  0
    1.6346    2.6491    0.0000 C   0  0  0  0  0  0  0  0  0  0  0  0
   -1.3000    0.7500    0.0000 C   0  0  0  0  0  0  0  0  0  0  0  0
   -0.0000   -1.5000    0.0000 C   0  0  0  0  0  0  0  0  0  0  0  0
    0.0000    1.5000    0.0000 C   0  0  0  0  0  0  0  0  0  0  0  0
    1.3000   -0.7500    0.0000 C   0  0  0  0  0  0  0  0  0  0  0  0
   -1.3000   -0.7500    0.0000 C   0  0  0  0  0  0  0  0  0  0  0  0
    1.3000    0.7500    0.0000 C   0  0  0  0  0  0  0  0  0  0  0  0
   -2.5989   -1.5002    0.0000 Si  0  0  0  0  0  4  0  0  0  0  0  0
    3.8981    0.7504    0.0000 Si  0  0  0  0  0  4  0  0  0  0  0  0
    2.5989    1.5002    0.0000 Si  0  0  0  0  0  4  0  0  0  0  0  0
 11  9  2  0
 12 10  1  0
 13  9  1  0
 13 10  2  0
 14 11  1  0
 14 12  2  0
 15  1  1  0
 15  2  1  0
 15  3  1  0
 15 13  1  0
 16  4  1  0
 16  5  1  0
 16  6  1  0
 17  7  1  0
 17  8  1  0
 17 14  1  0
 17 16  1  0
M  END
>  <NAME>  (321) 
PARA-TRIMETHYLSILYLPENTAMETHYLDISILANYLBENZENE

>  <SYNONYMS>  (321) 


>  <SPECTRUM TYPE>  (321) 
MS1

>  <INSTRUMENT TYPE>  (321) 
EI-B

>  <INSTRUMENT>  (321) 
SHIMADZU QP-1000

>  <ION MODE>  (321) 
P

>  <INCHIKEY>  (321) 
WRILCDHGYNWDFY-UHFFFAOYSA-N

>  <FORMULA>  (321) 
C14H28Si3

>  <EXACT MASS>  (321) 
280.149880486

>  <MW>  (321) 
280

>  <ID>  (321) 
JP011721

>  <CONTRIBUTOR>  (321) 
University of Tokyo Team, {Faculty of Engineering, University of Tokyo

>  <COMMENT>  (321) 
SMILES=C[Si](C)(C)c(c1)ccc(c1)[Si](C)(C)[Si](C)(C)C
InChI=InChI=1S/C14H28Si3/c1-15(2,3)13-9-11-14(12-10-13)17(7,8)16(4,5)6/h9-12H,1-8H3
computed SMILES=C=1C=C(C=CC1[Si](C)(C)C)[Si](C)(C)[Si](C)(C)C
accession=JP011721
date=2016.01.19 (Created 2008.10.21, modified 2011.05.06)
author=FAC. TECHNOLOGY, HIROSHIMA UNIV.
license=CC BY-NC-SA
exact mass=280.14988
ionization energy=70 eV
ion type=[M]+*
computed spectral entropy=2.533041376626785
computed normalized entropy=0.7124594646763328
SPLASH=splash10-006t-4910000000-a945026703f3e65d76e2
submitter=submitter = University of Tokyo Team (Faculty of Engineering, University of Tokyo)
MoNA Rating=3.75

>  <NUM PEAKS>  (321) 
35

>  <MASS SPECTRAL PEAKS>  (321) 
58 1.1
59 6.4
72 46.8
73 44.7
74 4.3
82 1.1
83 1.1
105 1.1
108 1.1
109 2.1
131 2.1
132 2.1
133 3.2
134 2.1
135 3.2
145 3.2
147 1.1
161 2.1
164 1.1
175 4.3
177 12.8
178 2.1
191 7.4
192 7.4
193 2.1
196 4.3
197 99.99
198 22.3
199 8.5
265 4.3
266 1.3
279 1.3
280 10.6
281 3
282 1.7

$$$$

     RDKit          2D

 34 37  0  0  0  0  0  0  0  0999 V2000
    8.1302    0.5135    0.0000 C   0  0  0  0  0  0  0  0  0  0  0  0
    5.5323    2.0139    0.0000 C   0  0  0  0  0  0  0  0  0  0  0  0
    9.0937   -3.6357    0.0000 C   0  0  0  0  0  0  0  0  0  0  0  0
    2.9343    2.0143    0.0000 C   0  0  0  0  0  0  0  0  0  0  0  0
   12.0293   -0.2375    0.0000 C   0  0  0  0  0  0  0  0  0  0  0  0
    5.2344   -5.9336    0.0000 C   0  0  0  0  0  0  0  0  0  0  0  0
   -1.4994    1.2953    0.0000 C   0  0  0  0  0  0  0  0  0  0  0  0
    1.3950   -3.7161    0.0000 C   0  0  0  0  0  0  0  0  0  0  0  0
   10.7296    0.5129    0.0000 C   0  0  0  0  0  0  0  0  0  0  0  0
   12.0289   -1.7375    0.0000 C   0  0  0  0  0  0  0  0  0  0  0  0
    6.7125   -6.1942    0.0000 C   0  0  0  0  0  0  0  0  0  0  0  0
    4.7218   -4.5239    0.0000 C   0  0  0  0  0  0  0  0  0  0  0  0
   -0.5343    2.4447    0.0000 C   0  0  0  0  0  0  0  0  0  0  0  0
   -0.9863   -0.1142    0.0000 C   0  0  0  0  0  0  0  0  0  0  0  0
    0.4307   -2.5661    0.0000 C   0  0  0  0  0  0  0  0  0  0  0  0
    2.8723   -3.4556    0.0000 C   0  0  0  0  0  0  0  0  0  0  0  0
    9.4293   -0.2367    0.0000 C   0  0  0  0  0  0  0  0  0  0  0  0
   10.7286   -2.4871    0.0000 C   0  0  0  0  0  0  0  0  0  0  0  0
    7.6779   -5.0451    0.0000 C   0  0  0  0  0  0  0  0  0  0  0  0
    5.6873   -3.3748    0.0000 C   0  0  0  0  0  0  0  0  0  0  0  0
    0.9438    2.1846    0.0000 C   0  0  0  0  0  0  0  0  0  0  0  0
    0.4918   -0.3743    0.0000 C   0  0  0  0  0  0  0  0  0  0  0  0
    0.9436   -1.1556    0.0000 C   0  0  0  0  0  0  0  0  0  0  0  0
    3.3851   -2.0451    0.0000 C   0  0  0  0  0  0  0  0  0  0  0  0
    6.8308   -1.7363    0.0000 C   0  0  0  0  0  0  0  0  0  0  0  0
    4.2329   -0.2359    0.0000 C   0  0  0  0  0  0  0  0  0  0  0  0
    6.8310   -0.2363    0.0000 C   0  0  0  0  0  0  0  0  0  0  0  0
    5.5321    0.5139    0.0000 C   0  0  0  0  0  0  0  0  0  0  0  0
    9.4289   -1.7367    0.0000 C   0  0  0  0  0  0  0  0  0  0  0  0
    7.1653   -3.6354    0.0000 C   0  0  0  0  0  0  0  0  0  0  0  0
    1.4569    0.7750    0.0000 C   0  0  0  0  0  0  0  0  0  0  0  0
    2.4208   -0.8951    0.0000 C   0  0  0  0  0  0  0  0  0  0  0  0
    8.1297   -2.4865    0.0000 Si  0  0  0  0  0  4  0  0  0  0  0  0
    2.9340    0.5143    0.0000 Si  0  0  0  0  0  4  0  0  0  0  0  0
  9  5  2  0
 10  5  1  0
 11  6  2  0
 12  6  1  0
 13  7  2  0
 14  7  1  0
 15  8  2  0
 16  8  1  0
 17  9  1  0
 18 10  2  0
 19 11  1  0
 20 12  2  0
 21 13  1  0
 22 14  2  0
 23 15  1  0
 24 16  2  0
 27  1  1  0
 27 25  1  0
 28  2  1  0
 28 26  1  0
 27 28  2  0
 29 17  2  0
 29 18  1  0
 30 19  2  0
 30 20  1  0
 31 21  2  0
 31 22  1  0
 32 23  2  0
 32 24  1  0
 33  3  1  0
 33 25  1  0
 33 29  1  0
 33 30  1  0
 34  4  1  0
 34 26  1  0
 34 31  1  0
 34 32  1  0
M  END
>  <NAME>  (322) 
1,4-BIS(METHYLDIPHENYLSILYL)-2,3-DIMETHYL-2-BUTENE

>  <SYNONYMS>  (322) 


>  <SPECTRUM TYPE>  (322) 
MS1

>  <INSTRUMENT TYPE>  (322) 
EI-B

>  <INSTRUMENT>  (322) 
SHIMADZU QP-1000

>  <ION MODE>  (322) 
P

>  <INCHIKEY>  (322) 
UGKYGFNFBPZBAP-DQSJHHFOSA-N

>  <FORMULA>  (322) 
C32H36Si2

>  <EXACT MASS>  (322) 
476.235554212

>  <MW>  (322) 
476

>  <ID>  (322) 
JP011720

>  <CONTRIBUTOR>  (322) 
University of Tokyo Team, {Faculty of Engineering, University of Tokyo

>  <COMMENT>  (322) 
SMILES=[Si](C)(c(c4)cccc4)(c(c3)cccc3)CC(C)=C(C[Si](C)(c(c2)cccc2)c(c1)cccc1)C
InChI=InChI=1S/C32H36Si2/c1-27(25-33(3,29-17-9-5-10-18-29)30-19-11-6-12-20-30)28(2)26-34(4,31-21-13-7-14-22-31)32-23-15-8-16-24-32/h5-24H,25-26H2,1-4H3/b28-27-
computed SMILES=C=1C=CC(=CC1)[Si](C=2C=CC=CC2)(C)CC(=C(C)C[Si](C=3C=CC=CC3)(C=4C=CC=CC4)C)C
accession=JP011720
date=2016.01.19 (Created 2008.10.21, modified 2011.05.06)
author=FAC. TECHNOLOGY, HIROSHIMA UNIV.
license=CC BY-NC-SA
exact mass=476.23555
ionization energy=70 eV
ion type=[M]+*
computed spectral entropy=2.7578830226374618
computed normalized entropy=0.7527873935330159
SPLASH=splash10-002b-3900500000-bdce11b7b943f4f8d19d
submitter=submitter = University of Tokyo Team (Faculty of Engineering, University of Tokyo)
MoNA Rating=3.75

>  <NUM PEAKS>  (322) 
39

>  <MASS SPECTRAL PEAKS>  (322) 
52 3.2
53 4.3
54 12.8
55 3.2
56 3.2
58 3.2
65 2.1
67 8.5
69 3.2
77 3.2
78 6.4
79 3.2
82 2.1
91 3.2
93 9.6
94 1.1
95 2.1
103 2.1
105 26.6
106 3.2
107 2.1
109 1.1
119 9.6
120 2.1
121 3.2
124 3.2
165 3.2
180 1.1
181 3.2
195 8.5
197 99.99
198 19.1
199 5.3
202 3.2
245 1.1
476 69.1
477 35.1
478 11.7
479 2.1

$$$$

     RDKit          2D

 23 26  0  0  0  0  0  0  0  0999 V2000
    3.2955   -1.3551    0.0000 C   0  0  0  0  0  0  0  0  0  0  0  0
    5.8331    3.8461    0.0000 C   0  0  0  0  0  0  0  0  0  0  0  0
    1.8030   -1.1973    0.0000 C   0  0  0  0  0  0  0  0  0  0  0  0
    4.1776   -0.1418    0.0000 C   0  0  0  0  0  0  0  0  0  0  0  0
    5.4186    2.4037    0.0000 C   0  0  0  0  0  0  0  0  0  0  0  0
    4.7914    4.9254    0.0000 C   0  0  0  0  0  0  0  0  0  0  0  0
    1.1925    0.1737    0.0000 C   0  0  0  0  0  0  0  0  0  0  0  0
    3.5671    1.2292    0.0000 C   0  0  0  0  0  0  0  0  0  0  0  0
    3.9623    2.0405    0.0000 C   0  0  0  0  0  0  0  0  0  0  0  0
    3.3352    4.5623    0.0000 C   0  0  0  0  0  0  0  0  0  0  0  0
   -0.7767    4.2141    0.0000 C   0  0  0  0  0  0  0  0  0  0  0  0
    2.5101    5.2182    0.0000 C   0  0  0  0  0  0  0  0  0  0  0  0
   -2.2364    3.9025    0.0000 C   0  0  0  0  0  0  0  0  0  0  0  0
    1.9498    6.6016    0.0000 C   0  0  0  0  0  0  0  0  0  0  0  0
   -1.0264    1.8067    0.0000 C   0  0  0  0  0  0  0  0  0  0  0  0
    0.0959    5.0461    0.0000 C   0  0  0  0  0  0  0  0  0  0  0  0
    2.0746    1.3870    0.0000 C   0  0  0  0  0  0  0  0  0  0  0  0
    2.9207    3.1198    0.0000 C   0  0  0  0  0  0  0  0  0  0  0  0
   -0.0267    2.9150    0.0000 C   0  0  0  0  0  0  0  0  0  0  0  0
    1.3611    4.2540    0.0000 C   0  0  0  0  0  0  0  0  0  0  0  0
   -2.4022    2.4096    0.0000 S   0  0  0  0  0  0  0  0  0  0  0  0
    0.4508    6.5056    0.0000 S   0  0  0  0  0  0  0  0  0  0  0  0
    1.4651    2.7576    0.0000 Si  0  0  0  0  0  4  0  0  0  0  0  0
  3  1  2  0
  4  1  1  0
  5  2  2  0
  6  2  1  0
  7  3  1  0
  8  4  2  0
  9  5  1  0
 10  6  2  0
 13 11  2  0
 14 12  2  0
 17  7  2  0
 17  8  1  0
 18  9  2  0
 18 10  1  0
 19 11  1  0
 19 15  2  0
 20 12  1  0
 20 16  2  0
 21 13  1  0
 21 15  1  0
 22 14  1  0
 22 16  1  0
 23 17  1  0
 23 18  1  0
 23 19  1  0
 23 20  1  0
M  END
>  <NAME>  (323) 
DIPHENYLDI(3-THIENYL)SILANE

>  <SYNONYMS>  (323) 


>  <SPECTRUM TYPE>  (323) 
MS1

>  <INSTRUMENT TYPE>  (323) 
EI-B

>  <INSTRUMENT>  (323) 
SHIMADZU QP-1000

>  <ION MODE>  (323) 
P

>  <INCHIKEY>  (323) 
JQNWHOFPAXWKMW-UHFFFAOYSA-N

>  <FORMULA>  (323) 
C20H16S2Si

>  <EXACT MASS>  (323) 
348.046269042

>  <MW>  (323) 
348

>  <ID>  (323) 
JP011719

>  <CONTRIBUTOR>  (323) 
University of Tokyo Team, {Faculty of Engineering, University of Tokyo

>  <COMMENT>  (323) 
SMILES=c(c4)ccc(c4)[Si](c(c3)cccc3)(c(c2)csc2)c(c1)csc1
InChI=InChI=1S/C20H16S2Si/c1-3-7-17(8-4-1)23(19-11-13-21-15-19,20-12-14-22-16-20)18-9-5-2-6-10-18/h1-16H
computed SMILES=S1C=CC(=C1)[Si](C2=CSC=C2)(C=3C=CC=CC3)C=4C=CC=CC4
accession=JP011719
date=2016.01.19 (Created 2008.10.21, modified 2011.05.06)
author=FAC. TECHNOLOGY, HIROSHIMA UNIV.
license=CC BY-NC-SA
exact mass=348.04627
ionization energy=70 eV
ion type=[M]+*
computed spectral entropy=3.596305843218512
computed normalized entropy=0.8073698802613163
SPLASH=splash10-006t-4897000000-2594737be1ac005954e3
submitter=submitter = University of Tokyo Team (Faculty of Engineering, University of Tokyo)
MoNA Rating=3.75

>  <NUM PEAKS>  (323) 
86

>  <MASS SPECTRAL PEAKS>  (323) 
50 2.8
51 25.4
52 2.1
53 15.5
55 1.4
57 1.4
63 1.4
75 1.4
76 1.4
77 28.2
78 3.5
79 5.6
83 1.4
85 5.6
89 2.1
101 3.5
102 4.2
103 4.2
105 21.1
106 2.1
111 9.2
115 2.8
117 1.4
126 2.1
127 14.1
128 8.5
129 2.8
132 4.2
133 2.1
134 3.5
135 9.2
136 1.4
137 14.8
138 1.4
139 2.1
143 5.6
152 2.1
155 2.1
161 4.2
163 1.4
165 2.1
167 2.1
173 4.2
178 2.8
179 1.4
180 2.1
181 5.6
186 2.1
187 9.9
188 7
189 2.1
193 2.8
194 13.4
195 2.1
196 1.4
202 2.1
204 2.8
205 1.4
208 1.4
210 2.8
211 4.2
213 2.8
226 1.4
233 2.1
237 2.1
239 2.1
245 2.1
263 4.2
264 2.8
265 21.1
266 5.6
267 2.1
269 2.1
271 99.99
272 21.1
273 13.4
274 2.1
302 3.5
313 1.4
314 4.2
315 10.6
316 2.8
348 95.1
349 28.2
350 14.8
351 2.8

$$$$

     RDKit          2D

 28 31  0  0  0  0  0  0  0  0999 V2000
    0.8031   -3.1290    0.0000 C   0  0  0  0  0  0  0  0  0  0  0  0
    5.1970   -1.5006    0.0000 C   0  0  0  0  0  0  0  0  0  0  0  0
   -2.1315    0.2701    0.0000 C   0  0  0  0  0  0  0  0  0  0  0  0
    4.6616   -5.4281    0.0000 C   0  0  0  0  0  0  0  0  0  0  0  0
    6.7911    2.6985    0.0000 C   0  0  0  0  0  0  0  0  0  0  0  0
    1.0039    2.6976    0.0000 C   0  0  0  0  0  0  0  0  0  0  0  0
   -0.8315    1.0201    0.0000 C   0  0  0  0  0  0  0  0  0  0  0  0
   -2.1315   -1.2299    0.0000 C   0  0  0  0  0  0  0  0  0  0  0  0
    3.1835   -5.6882    0.0000 C   0  0  0  0  0  0  0  0  0  0  0  0
    5.1747   -4.0185    0.0000 C   0  0  0  0  0  0  0  0  0  0  0  0
    7.3040    1.2880    0.0000 C   0  0  0  0  0  0  0  0  0  0  0  0
    5.3139    2.9590    0.0000 C   0  0  0  0  0  0  0  0  0  0  0  0
    2.4820    2.9577    0.0000 C   0  0  0  0  0  0  0  0  0  0  0  0
    0.4909    1.2881    0.0000 C   0  0  0  0  0  0  0  0  0  0  0  0
    0.4685    0.2701    0.0000 C   0  0  0  0  0  0  0  0  0  0  0  0
   -0.8315   -1.9799    0.0000 C   0  0  0  0  0  0  0  0  0  0  0  0
    2.2184   -4.5388    0.0000 C   0  0  0  0  0  0  0  0  0  0  0  0
    4.2096   -2.8692    0.0000 C   0  0  0  0  0  0  0  0  0  0  0  0
    6.3397    0.1380    0.0000 C   0  0  0  0  0  0  0  0  0  0  0  0
    4.3496    1.8090    0.0000 C   0  0  0  0  0  0  0  0  0  0  0  0
    3.4471    1.8083    0.0000 C   0  0  0  0  0  0  0  0  0  0  0  0
    1.4560    0.1387    0.0000 C   0  0  0  0  0  0  0  0  0  0  0  0
    0.4685   -1.2299    0.0000 C   0  0  0  0  0  0  0  0  0  0  0  0
    2.7315   -3.1293    0.0000 C   0  0  0  0  0  0  0  0  0  0  0  0
    4.8624    0.3985    0.0000 C   0  0  0  0  0  0  0  0  0  0  0  0
    2.9341    0.3988    0.0000 C   0  0  0  0  0  0  0  0  0  0  0  0
    1.7675   -1.9801    0.0000 Si  0  0  0  0  0  4  0  0  0  0  0  0
    3.8981   -0.7504    0.0000 Si  0  0  0  0  0  4  0  0  0  0  0  0
  7  3  2  0
  8  3  1  0
  9  4  2  0
 10  4  1  0
 11  5  2  0
 12  5  1  0
 13  6  2  0
 14  6  1  0
 15  7  1  0
 16  8  2  0
 17  9  1  0
 18 10  2  0
 19 11  1  0
 20 12  2  0
 21 13  1  0
 22 14  2  0
 23 15  2  0
 23 16  1  0
 24 17  2  0
 24 18  1  0
 25 19  2  0
 25 20  1  0
 26 21  2  0
 26 22  1  0
 27  1  1  0
 27 23  1  0
 27 24  1  0
 28  2  1  0
 28 25  1  0
 28 26  1  0
 28 27  1  0
M  END
>  <NAME>  (324) 
1,2-DIMETHYLTETRAPHENYLDISILANE

>  <SYNONYMS>  (324) 


>  <SPECTRUM TYPE>  (324) 
MS1

>  <INSTRUMENT TYPE>  (324) 
EI-B

>  <INSTRUMENT>  (324) 
Unknown

>  <ION MODE>  (324) 
P

>  <INCHIKEY>  (324) 
JNZRJYXUMDPPRK-UHFFFAOYSA-N

>  <FORMULA>  (324) 
C26H26Si2

>  <EXACT MASS>  (324) 
394.157303892

>  <MW>  (324) 
394

>  <ID>  (324) 
JP011718

>  <CONTRIBUTOR>  (324) 
University of Tokyo Team, {Faculty of Engineering, University of Tokyo

>  <COMMENT>  (324) 
SMILES=c(c4)c(ccc4)[Si](C)([Si](C)(c(c3)cccc3)c(c2)cccc2)c(c1)cccc1
InChI=InChI=1S/C26H26Si2/c1-27(23-15-7-3-8-16-23,24-17-9-4-10-18-24)28(2,25-19-11-5-12-20-25)26-21-13-6-14-22-26/h3-22H,1-2H3
computed SMILES=C=1C=CC(=CC1)[Si](C=2C=CC=CC2)(C)[Si](C=3C=CC=CC3)(C=4C=CC=CC4)C
accession=JP011718
date=2016.01.19 (Created 2008.10.21, modified 2011.05.06)
author=FAC. TECHNOLOGY, HIROSHIMA UNIV.
license=CC BY-NC-SA
exact mass=394.1573
ionization energy=70 eV
ion type=[M]+*
computed spectral entropy=2.091152756424728
computed normalized entropy=0.6669292342499349
SPLASH=splash10-0002-1900000000-a72b5ba2515dd3220f94
submitter=submitter = University of Tokyo Team (Faculty of Engineering, University of Tokyo)
MoNA Rating=3.75

>  <NUM PEAKS>  (324) 
23

>  <MASS SPECTRAL PEAKS>  (324) 
54 5.5
67 1.4
69 1.4
79 3.5
91 2.1
93 7.7
103 1.4
105 25.4
106 2.1
119 7.7
155 1.4
165 4.2
180 1.4
181 7
182 1.4
195 7
196 1.4
197 99.99
198 10.6
199 4.2
394 7.9
395 3
396 1

$$$$

     RDKit          2D

 15 16  0  0  0  0  0  0  0  0999 V2000
   -1.3205   -6.5744    0.0000 C   0  0  0  0  0  0  0  0  0  0  0  0
    0.3844   -5.6734    0.0000 C   0  0  0  0  0  0  0  0  0  0  0  0
   -4.3269   -3.1141    0.0000 C   0  0  0  0  0  0  0  0  0  0  0  0
    0.3818   -1.4903    0.0000 C   0  0  0  0  0  0  0  0  0  0  0  0
   -3.5769   -4.4132    0.0000 C   0  0  0  0  0  0  0  0  0  0  0  0
   -0.7673   -2.4545    0.0000 C   0  0  0  0  0  0  0  0  0  0  0  0
   -3.3272   -2.0058    0.0000 C   0  0  0  0  0  0  0  0  0  0  0  0
    1.6469   -2.2824    0.0000 C   0  0  0  0  0  0  0  0  0  0  0  0
   -2.1172   -4.1015    0.0000 C   0  0  0  0  0  0  0  0  0  0  0  0
   -0.2069   -3.8379    0.0000 C   0  0  0  0  0  0  0  0  0  0  0  0
   -3.6427   -0.5393    0.0000 Br  0  0  0  0  0  0  0  0  0  0  0  0
    3.0363   -1.7170    0.0000 Br  0  0  0  0  0  0  0  0  0  0  0  0
   -1.9514   -2.6086    0.0000 S   0  0  0  0  0  0  0  0  0  0  0  0
    1.2921   -3.7419    0.0000 S   0  0  0  0  0  0  0  0  0  0  0  0
   -1.0050   -5.1080    0.0000 Si  0  0  0  0  0  4  0  0  0  0  0  0
  5  3  1  0
  6  4  1  0
  7  3  2  0
  8  4  2  0
  9  5  2  0
 10  6  2  0
 11  7  1  0
 12  8  1  0
 13  7  1  0
 13  9  1  0
 14  8  1  0
 14 10  1  0
 15  1  1  0
 15  2  1  0
 15  9  1  0
 15 10  1  0
M  END
>  <NAME>  (325) 
DI(2-(5-BROMOTHIENYL))DIMETHYLSILANE

>  <SYNONYMS>  (325) 


>  <SPECTRUM TYPE>  (325) 
MS1

>  <INSTRUMENT TYPE>  (325) 
EI-B

>  <INSTRUMENT>  (325) 
SHIMADZU QP-1000

>  <ION MODE>  (325) 
P

>  <INCHIKEY>  (325) 
KJJFHNIBGPJTSG-UHFFFAOYSA-N

>  <FORMULA>  (325) 
C10H10Br2S2Si

>  <EXACT MASS>  (325) 
379.83599305

>  <MW>  (325) 
380

>  <ID>  (325) 
JP011717

>  <CONTRIBUTOR>  (325) 
University of Tokyo Team, {Faculty of Engineering, University of Tokyo

>  <COMMENT>  (325) 
SMILES=Brc(c2)sc(c2)[Si](C)(C)c(c1)sc(Br)c1
InChI=InChI=1S/C10H10Br2S2Si/c1-15(2,9-5-3-7(11)13-9)10-6-4-8(12)14-10/h3-6H,1-2H3
computed SMILES=BrC=1SC(=CC1)[Si](C=2SC(Br)=CC2)(C)C
accession=JP011717
date=2016.01.19 (Created 2008.10.21, modified 2011.05.06)
author=FAC. TECHNOLOGY, HIROSHIMA UNIV.
license=CC BY-NC-SA
exact mass=379.83599
ionization energy=70 eV
ion type=[M]+*
computed spectral entropy=4.277430428902922
computed normalized entropy=0.8760196495206609
SPLASH=splash10-014r-9705000000-556c17e85d81a1e0631d
submitter=submitter = University of Tokyo Team (Faculty of Engineering, University of Tokyo)
MoNA Rating=3.75

>  <NUM PEAKS>  (325) 
132

>  <MASS SPECTRAL PEAKS>  (325) 
51 12.6
52 9.5
53 57.9
54 7.4
55 22.1
56 3.2
57 25
58 13.7
59 8.4
60 2.1
61 6.3
62 6.3
63 24.2
64 6.3
65 11.6
66 9.5
67 14.7
68 3.2
69 24.2
70 11.6
71 11.6
72 2.1
73 3.2
74 3.2
75 42.1
76 5.3
77 18.9
78 3.2
79 8.4
80 4.2
81 16.8
82 44.2
83 23.2
84 6.3
85 15.8
86 3.2
87 7.4
88 2.1
89 5.3
90 3.2
91 5.3
93 10.5
94 2.1
95 15.8
96 21.1
97 12.6
98 2.1
99 3.2
100 2.1
101 2.1
102 3.2
103 4.2
104 2.1
105 1.1
106 3.2
107 32.6
108 4.2
109 53.7
110 5.3
111 16.8
112 1.1
114 3.2
115 24.2
116 2.1
117 5.3
119 7.4
120 7.4
121 4.2
122 4.2
123 6.3
124 3.2
125 11.6
131 2.1
132 8.4
133 2.1
134 2.1
135 4.2
136 1.1
137 58.9
138 8.4
139 63.2
140 4.2
141 4.2
145 3.2
146 2.1
147 21.1
148 2.1
149 18.9
150 2.1
151 3.2
155 1.1
157 2.1
159 1.1
163 1.1
164 4.2
165 1.1
175 2.1
177 3.2
179 11.6
181 8.4
183 8.4
186 1.1
188 1.1
189 4.2
191 4.2
199 2.1
201 8.4
203 14.7
205 8.4
207 3.2
211 10.5
213 1.1
219 8.4
229 1.1
283 1.1
285 3.2
287 2.1
364 2.1
365 44.2
366 9.5
367 99.99
368 15.8
369 55.8
370 9.5
371 6.3
380 22.1
381 4.2
382 44.2
383 7.4
384 29.5
385 4.2
386 2.1

$$$$

     RDKit          2D

 23 25  0  0  0  0  0  0  0  0999 V2000
   -3.7499    0.1565    0.0000 C   0  0  0  0  0  0  0  0  0  0  0  0
    3.7499    0.1565    0.0000 C   0  0  0  0  0  0  0  0  0  0  0  0
   -6.1911   -3.6138    0.0000 C   0  0  0  0  0  0  0  0  0  0  0  0
    0.5355   -4.8306    0.0000 C   0  0  0  0  0  0  0  0  0  0  0  0
   -6.3960   -2.1270    0.0000 C   0  0  0  0  0  0  0  0  0  0  0  0
   -4.8016   -4.1789    0.0000 C   0  0  0  0  0  0  0  0  0  0  0  0
   -0.2628   -3.5597    0.0000 C   0  0  0  0  0  0  0  0  0  0  0  0
    2.0344   -4.7743    0.0000 C   0  0  0  0  0  0  0  0  0  0  0  0
   -5.2115   -1.2054    0.0000 C   0  0  0  0  0  0  0  0  0  0  0  0
   -3.6171   -3.2573    0.0000 C   0  0  0  0  0  0  0  0  0  0  0  0
    0.4379   -2.2325    0.0000 C   0  0  0  0  0  0  0  0  0  0  0  0
    2.7351   -3.4471    0.0000 C   0  0  0  0  0  0  0  0  0  0  0  0
   -0.7500    1.0300    0.0000 C   0  0  0  0  0  0  0  0  0  0  0  0
    0.7500    1.0300    0.0000 C   0  0  0  0  0  0  0  0  0  0  0  0
   -3.8220   -1.7705    0.0000 C   0  0  0  0  0  0  0  0  0  0  0  0
    1.9368   -2.1761    0.0000 C   0  0  0  0  0  0  0  0  0  0  0  0
   -1.2100   -0.3900    0.0000 C   0  0  0  0  0  0  0  0  0  0  0  0
    1.2100   -0.3900    0.0000 C   0  0  0  0  0  0  0  0  0  0  0  0
   -1.9368   -2.1761    0.0000 Cl  0  0  0  0  0  0  0  0  0  0  0  0
    3.8220   -1.7705    0.0000 Cl  0  0  0  0  0  0  0  0  0  0  0  0
   -0.0000   -1.2800    0.0000 O   0  0  0  0  0  0  0  0  0  0  0  0
   -2.6377   -0.8500    0.0000 Si  0  0  0  0  0  4  0  0  0  0  0  0
    2.6377   -0.8500    0.0000 Si  0  0  0  0  0  4  0  0  0  0  0  0
  5  3  2  0
  6  3  1  0
  7  4  2  0
  8  4  1  0
  9  5  1  0
 10  6  2  0
 11  7  1  0
 12  8  2  0
 14 13  1  0
 15  9  2  0
 15 10  1  0
 16 11  2  0
 16 12  1  0
 17 13  2  0
 18 14  2  0
 21 17  1  0
 21 18  1  0
 22  1  1  0
 22 15  1  0
 22 17  1  0
 22 19  1  0
 23  2  1  0
 23 16  1  0
 23 18  1  0
 23 20  1  0
M  END
>  <NAME>  (326) 
2,5-DI(CHLOROMETHYLPHENYLSILYL)FURAN

>  <SYNONYMS>  (326) 


>  <SPECTRUM TYPE>  (326) 
MS1

>  <INSTRUMENT TYPE>  (326) 
EI-B

>  <INSTRUMENT>  (326) 
SHIMADZU QP-1000

>  <ION MODE>  (326) 
P

>  <INCHIKEY>  (326) 
GMFLVRCCIKBFCP-UHFFFAOYSA-N

>  <FORMULA>  (326) 
C18H18Cl2OSi2

>  <EXACT MASS>  (326) 
376.027323616

>  <MW>  (326) 
376

>  <ID>  (326) 
JP011716

>  <CONTRIBUTOR>  (326) 
University of Tokyo Team, {Faculty of Engineering, University of Tokyo

>  <COMMENT>  (326) 
SMILES=c(c3)ccc(c3)[Si](C)(Cl)c(c2)oc(c2)[Si](C)(Cl)c(c1)cccc1
InChI=InChI=1S/C18H18Cl2OSi2/c1-22(19,15-9-5-3-6-10-15)17-13-14-18(21-17)23(2,20)16-11-7-4-8-12-16/h3-14H,1-2H3
computed SMILES=Cl[Si](C=1OC(=CC1)[Si](Cl)(C=2C=CC=CC2)C)(C=3C=CC=CC3)C
accession=JP011716
date=2016.01.19 (Created 2008.10.21, modified 2011.05.06)
author=FAC. TECHNOLOGY, HIROSHIMA UNIV.
license=CC BY-NC-SA
exact mass=376.02732
ionization energy=70 eV
ion type=[M]+*
computed spectral entropy=3.95555536453186
computed normalized entropy=0.8448194150597046
SPLASH=splash10-03fu-9435000000-8ab43f4a5af86c84d07e
submitter=submitter = University of Tokyo Team (Faculty of Engineering, University of Tokyo)
MoNA Rating=3.75

>  <NUM PEAKS>  (326) 
108

>  <MASS SPECTRAL PEAKS>  (326) 
36 4.3
38 2.1
39 11.7
41 1.1
43 8.5
45 3.2
51 24.5
53 11.7
55 2.1
63 99.99
65 48.9
66 4.3
67 3.2
75 1.1
77 19.1
78 8.5
79 7.4
80 2.1
81 1.1
89 6.4
91 67
93 6.4
95 2.1
101 1.1
102 2.1
103 10.6
105 13.8
106 1.1
113 4.3
115 16
117 4.3
119 9.6
120 1.1
121 1.1
127 3.2
128 1.1
129 8.5
130 3.2
131 3.2
137 2.1
139 3.2
141 3.2
142 2.1
143 3.2
153 1.1
155 27.7
156 3.2
157 12.8
158 3.2
159 2.1
161 2.1
165 6.4
167 2.1
175 2.1
177 2.1
181 3.2
183 2.1
185 2.1
195 9.6
196 2.1
197 1.1
203 2.1
204 2.1
213 7.4
215 4.3
217 1.1
219 2.1
223 1.1
233 20.2
234 3.2
235 13.8
236 1.1
237 3.2
245 4.3
247 1.1
263 8.5
264 1.1
275 16
276 3.2
277 6.4
283 3.2
285 2.1
289 2.1
291 2.1
298 6.4
299 1.1
300 3.2
311 17
312 4.3
313 12.8
314 2.1
315 3.2
325 5.3
327 2.1
341 8.5
342 2.1
343 3.2
361 17
362 4.3
363 11.7
364 3.2
365 2.1
376 48.9
377 14.9
378 38.3
379 10.1
380 8.5
381 1.1

$$$$

     RDKit          2D

 32 35  0  0  0  0  0  0  0  0999 V2000
   -0.1613   -4.2779    0.0000 C   0  0  0  0  0  0  0  0  0  0  0  0
   -1.1256   -5.4268    0.0000 H   0  0  0  0  0  0  0  0  0  0  0  0
    6.4959   -2.2508    0.0000 C   0  0  0  0  0  0  0  0  0  0  0  0
    7.7948   -3.0010    0.0000 H   0  0  0  0  0  0  0  0  0  0  0  0
    0.8031   -3.1290    0.0000 C   0  0  0  0  0  0  0  0  0  0  0  0
    5.1970   -1.5006    0.0000 C   0  0  0  0  0  0  0  0  0  0  0  0
   -2.1315    0.2701    0.0000 C   0  0  0  0  0  0  0  0  0  0  0  0
    4.6616   -5.4281    0.0000 C   0  0  0  0  0  0  0  0  0  0  0  0
    6.7911    2.6985    0.0000 C   0  0  0  0  0  0  0  0  0  0  0  0
    1.0039    2.6976    0.0000 C   0  0  0  0  0  0  0  0  0  0  0  0
   -0.8315    1.0201    0.0000 C   0  0  0  0  0  0  0  0  0  0  0  0
   -2.1315   -1.2299    0.0000 C   0  0  0  0  0  0  0  0  0  0  0  0
    3.1835   -5.6882    0.0000 C   0  0  0  0  0  0  0  0  0  0  0  0
    5.1747   -4.0185    0.0000 C   0  0  0  0  0  0  0  0  0  0  0  0
    7.3040    1.2880    0.0000 C   0  0  0  0  0  0  0  0  0  0  0  0
    5.3139    2.9590    0.0000 C   0  0  0  0  0  0  0  0  0  0  0  0
    2.4820    2.9577    0.0000 C   0  0  0  0  0  0  0  0  0  0  0  0
    0.4909    1.2881    0.0000 C   0  0  0  0  0  0  0  0  0  0  0  0
    0.4685    0.2701    0.0000 C   0  0  0  0  0  0  0  0  0  0  0  0
   -0.8315   -1.9799    0.0000 C   0  0  0  0  0  0  0  0  0  0  0  0
    2.2184   -4.5388    0.0000 C   0  0  0  0  0  0  0  0  0  0  0  0
    4.2096   -2.8692    0.0000 C   0  0  0  0  0  0  0  0  0  0  0  0
    6.3397    0.1380    0.0000 C   0  0  0  0  0  0  0  0  0  0  0  0
    4.3496    1.8090    0.0000 C   0  0  0  0  0  0  0  0  0  0  0  0
    3.4471    1.8083    0.0000 C   0  0  0  0  0  0  0  0  0  0  0  0
    1.4560    0.1387    0.0000 C   0  0  0  0  0  0  0  0  0  0  0  0
    0.4685   -1.2299    0.0000 C   0  0  0  0  0  0  0  0  0  0  0  0
    2.7315   -3.1293    0.0000 C   0  0  0  0  0  0  0  0  0  0  0  0
    4.8624    0.3985    0.0000 C   0  0  0  0  0  0  0  0  0  0  0  0
    2.9341    0.3988    0.0000 C   0  0  0  0  0  0  0  0  0  0  0  0
    1.7675   -1.9801    0.0000 Si  0  0  0  0  0  4  0  0  0  0  0  0
    3.8981   -0.7504    0.0000 Si  0  0  0  0  0  4  0  0  0  0  0  0
  1  2  1  0
  3  4  1  0
  5  1  3  0
  6  3  3  0
 11  7  2  0
 12  7  1  0
 13  8  2  0
 14  8  1  0
 15  9  2  0
 16  9  1  0
 17 10  2  0
 18 10  1  0
 19 11  1  0
 20 12  2  0
 21 13  1  0
 22 14  2  0
 23 15  1  0
 24 16  2  0
 25 17  1  0
 26 18  2  0
 27 19  2  0
 27 20  1  0
 28 21  2  0
 28 22  1  0
 29 23  2  0
 29 24  1  0
 30 25  2  0
 30 26  1  0
 31  5  1  0
 31 27  1  0
 31 28  1  0
 32  6  1  0
 32 29  1  0
 32 30  1  0
 32 31  1  0
M  ISO  2   2   2   4   2
M  END
>  <NAME>  (327) 
1,2-DI(DEUTERIOETHYNYL)-1,1,2,2-TETRAPHENYL-DISILANE

>  <SYNONYMS>  (327) 


>  <SPECTRUM TYPE>  (327) 
MS1

>  <INSTRUMENT TYPE>  (327) 
EI-B

>  <INSTRUMENT>  (327) 
SHIMADZU QP-1000

>  <ION MODE>  (327) 
P

>  <INCHIKEY>  (327) 
BWYKIYGPAWQNGN-QDNHWIQGSA-N

>  <FORMULA>  (327) 
C28H22Si2

>  <EXACT MASS>  (327) 
416.138557256

>  <MW>  (327) 
416

>  <ID>  (327) 
JP011715

>  <CONTRIBUTOR>  (327) 
University of Tokyo Team, {Faculty of Engineering, University of Tokyo

>  <COMMENT>  (327) 
SMILES=c(c1)cccc1[Si](C#C[2H])(c(c4)cccc4)[Si](C#C[2H])(c(c3)cccc3)c(c2)cccc2
InChI=InChI=1S/C28H22Si2/c1-3-29(25-17-9-5-10-18-25,26-19-11-6-12-20-26)30(4-2,27-21-13-7-14-22-27)28-23-15-8-16-24-28/h1-2,5-24H/i1D,2D
computed SMILES=[H]C#C[Si](C=1C=CC=CC1)(C=2C=CC=CC2)[Si](C#C[H])(C=3C=CC=CC3)C=4C=CC=CC4
accession=JP011715
date=2016.01.19 (Created 2008.10.21, modified 2011.05.06)
author=FAC. TECHNOLOGY, HIROSHIMA UNIV.
license=CC BY-NC-SA
exact mass=414.126
ionization energy=70 eV
ion type=[M]+*
computed spectral entropy=3.2876452743731814
computed normalized entropy=0.824181103758698
SPLASH=splash10-0a4i-3930000000-3e3acfaa61a136873116
submitter=submitter = University of Tokyo Team (Faculty of Engineering, University of Tokyo)
MoNA Rating=3.75

>  <NUM PEAKS>  (327) 
54

>  <MASS SPECTRAL PEAKS>  (327) 
39 1.4
43 2.8
44 1.4
51 5.6
52 1.4
53 40.1
54 35.9
55 5.6
56 1.4
77 7
78 6.3
79 14.8
80 3.5
103 24.6
104 10.6
105 99.99
106 16.9
107 4.2
129 21.8
130 21.8
131 7
132 3.5
152 2.1
153 3.5
154 2.1
155 25.4
156 8.5
157 2.8
165 2.1
166 1.4
178 1.4
179 9.2
180 18.3
181 62
182 16.9
183 12
184 2.8
204 1.4
205 3.5
206 5.6
207 21.1
208 90.8
209 16.2
210 4.2
259 10.6
261 2.8
309 1.4
338 2.8
339 3.5
340 2.1
415 4.2
416 12.7
417 11.3
418 4.2

$$$$

     RDKit          2D

 30 33  0  0  0  0  0  0  0  0999 V2000
   -0.1613   -4.2779    0.0000 C   0  0  0  0  0  0  0  0  0  0  0  0
    6.4959   -2.2508    0.0000 C   0  0  0  0  0  0  0  0  0  0  0  0
    0.8031   -3.1290    0.0000 C   0  0  0  0  0  0  0  0  0  0  0  0
    5.1970   -1.5006    0.0000 C   0  0  0  0  0  0  0  0  0  0  0  0
   -2.1315    0.2701    0.0000 C   0  0  0  0  0  0  0  0  0  0  0  0
    4.6616   -5.4281    0.0000 C   0  0  0  0  0  0  0  0  0  0  0  0
    6.7911    2.6985    0.0000 C   0  0  0  0  0  0  0  0  0  0  0  0
    1.0039    2.6976    0.0000 C   0  0  0  0  0  0  0  0  0  0  0  0
   -0.8315    1.0201    0.0000 C   0  0  0  0  0  0  0  0  0  0  0  0
   -2.1315   -1.2299    0.0000 C   0  0  0  0  0  0  0  0  0  0  0  0
    3.1835   -5.6882    0.0000 C   0  0  0  0  0  0  0  0  0  0  0  0
    5.1747   -4.0185    0.0000 C   0  0  0  0  0  0  0  0  0  0  0  0
    7.3040    1.2880    0.0000 C   0  0  0  0  0  0  0  0  0  0  0  0
    5.3139    2.9590    0.0000 C   0  0  0  0  0  0  0  0  0  0  0  0
    2.4820    2.9577    0.0000 C   0  0  0  0  0  0  0  0  0  0  0  0
    0.4909    1.2881    0.0000 C   0  0  0  0  0  0  0  0  0  0  0  0
    0.4685    0.2701    0.0000 C   0  0  0  0  0  0  0  0  0  0  0  0
   -0.8315   -1.9799    0.0000 C   0  0  0  0  0  0  0  0  0  0  0  0
    2.2184   -4.5388    0.0000 C   0  0  0  0  0  0  0  0  0  0  0  0
    4.2096   -2.8692    0.0000 C   0  0  0  0  0  0  0  0  0  0  0  0
    6.3397    0.1380    0.0000 C   0  0  0  0  0  0  0  0  0  0  0  0
    4.3496    1.8090    0.0000 C   0  0  0  0  0  0  0  0  0  0  0  0
    3.4471    1.8083    0.0000 C   0  0  0  0  0  0  0  0  0  0  0  0
    1.4560    0.1387    0.0000 C   0  0  0  0  0  0  0  0  0  0  0  0
    0.4685   -1.2299    0.0000 C   0  0  0  0  0  0  0  0  0  0  0  0
    2.7315   -3.1293    0.0000 C   0  0  0  0  0  0  0  0  0  0  0  0
    4.8624    0.3985    0.0000 C   0  0  0  0  0  0  0  0  0  0  0  0
    2.9341    0.3988    0.0000 C   0  0  0  0  0  0  0  0  0  0  0  0
    1.7675   -1.9801    0.0000 Si  0  0  0  0  0  4  0  0  0  0  0  0
    3.8981   -0.7504    0.0000 Si  0  0  0  0  0  4  0  0  0  0  0  0
  3  1  3  0
  4  2  3  0
  9  5  2  0
 10  5  1  0
 11  6  2  0
 12  6  1  0
 13  7  2  0
 14  7  1  0
 15  8  2  0
 16  8  1  0
 17  9  1  0
 18 10  2  0
 19 11  1  0
 20 12  2  0
 21 13  1  0
 22 14  2  0
 23 15  1  0
 24 16  2  0
 25 17  2  0
 25 18  1  0
 26 19  2  0
 26 20  1  0
 27 21  2  0
 27 22  1  0
 28 23  2  0
 28 24  1  0
 29  3  1  0
 29 25  1  0
 29 26  1  0
 30  4  1  0
 30 27  1  0
 30 28  1  0
 30 29  1  0
M  END
>  <NAME>  (328) 
1,2-DIETHYNYL-1,1,2,2-TETRAPHENYLDISILANE

>  <SYNONYMS>  (328) 


>  <SPECTRUM TYPE>  (328) 
MS1

>  <INSTRUMENT TYPE>  (328) 
EI-B

>  <INSTRUMENT>  (328) 
Unknown

>  <ION MODE>  (328) 
P

>  <INCHIKEY>  (328) 
BWYKIYGPAWQNGN-UHFFFAOYSA-N

>  <FORMULA>  (328) 
C28H22Si2

>  <EXACT MASS>  (328) 
414.12600376399996

>  <MW>  (328) 
414

>  <ID>  (328) 
JP011714

>  <CONTRIBUTOR>  (328) 
University of Tokyo Team, {Faculty of Engineering, University of Tokyo

>  <COMMENT>  (328) 
SMILES=c(c1)cccc1[Si]([Si](c(c4)cccc4)(c(c3)cccc3)C#C)(c(c2)cccc2)C#C
InChI=InChI=1S/C28H22Si2/c1-3-29(25-17-9-5-10-18-25,26-19-11-6-12-20-26)30(4-2,27-21-13-7-14-22-27)28-23-15-8-16-24-28/h1-2,5-24H
computed SMILES=C#C[Si](C=1C=CC=CC1)(C=2C=CC=CC2)[Si](C#C)(C=3C=CC=CC3)C=4C=CC=CC4
ion type=[M]+*
accession=JP011714
date=2016.01.19 (Created 2008.10.21, modified 2011.05.06)
author=FAC. TECHNOLOGY, HIROSHIMA UNIV.
license=CC BY-NC-SA
exact mass=414.126
ionization energy=70 eV
computed spectral entropy=2.953098700779563
computed normalized entropy=0.7900908861323752
SPLASH=splash10-0pb9-3900000000-977a6ff1f67a61ee910f
submitter=submitter = University of Tokyo Team (Faculty of Engineering, University of Tokyo)
MoNA Rating=3.75

>  <NUM PEAKS>  (328) 
42

>  <MASS SPECTRAL PEAKS>  (328) 
39 1.1
50 1.1
51 8.5
53 78.7
54 5.3
55 3.2
77 10.6
78 4.3
79 18.1
102 2.1
103 36.2
104 7.4
105 99.99
106 11.7
107 3.2
129 42.6
130 7.4
131 5.3
152 3.2
153 4.3
154 1.1
155 23.4
156 3.2
157 1.1
165 3.2
178 4.3
179 5.3
180 11.7
181 46.8
182 7.4
183 3.2
195 3.2
197 43.6
198 7.4
199 1.1
259 3.2
336 1.1
337 4.3
338 1.1
414 8.5
415 9.6
416 3.2

$$$$

     RDKit          2D

 20 20  0  0  0  0  0  0  0  0999 V2000
   -8.7610    8.4841    0.0000 C   0  0  0  0  0  0  0  0  0  0  0  0
   -7.3238    8.9434    0.0000 C   0  0  0  0  0  0  0  0  0  0  0  0
  -10.7287    1.3459    0.0000 C   0  0  0  0  0  0  0  0  0  0  0  0
   -9.3045    1.8165    0.0000 C   0  0  0  0  0  0  0  0  0  0  0  0
   -9.8700    4.6573    0.0000 C   0  0  0  0  0  0  0  0  0  0  0  0
   -6.3005    7.1091    0.0000 C   0  0  0  0  0  0  0  0  0  0  0  0
  -11.7599    3.1815    0.0000 C   0  0  0  0  0  0  0  0  0  0  0  0
   -8.1926    5.6445    0.0000 C   0  0  0  0  0  0  0  0  0  0  0  0
   -9.6414    7.2697    0.0000 C   0  0  0  0  0  0  0  0  0  0  0  0
   -8.2076    7.7314    0.0000 C   0  0  0  0  0  0  0  0  0  0  0  0
   -9.8484    2.5604    0.0000 C   0  0  0  0  0  0  0  0  0  0  0  0
   -8.4214    3.0290    0.0000 C   0  0  0  0  0  0  0  0  0  0  0  0
  -10.4600    6.3600    0.0000 C   0  0  0  0  0  0  0  0  0  0  0  0
  -11.3400    5.1500    0.0000 C   0  0  0  0  0  0  0  0  0  0  0  0
   -6.7200    5.1500    0.0000 C   0  0  0  0  0  0  0  0  0  0  0  0
   -7.6000    3.9300    0.0000 C   0  0  0  0  0  0  0  0  0  0  0  0
   -9.0300    5.9000    0.0000 Si  0  0  0  0  0  4  0  0  0  0  0  0
   -7.6000    6.3600    0.0000 Si  0  0  0  0  0  4  0  0  0  0  0  0
  -10.4600    3.9300    0.0000 Si  0  0  0  0  0  4  0  0  0  0  0  0
   -9.0300    4.4000    0.0000 Si  0  0  0  0  0  4  0  0  0  0  0  0
  9  1  1  0
 10  2  1  0
 11  3  1  0
 12  4  1  0
 14 13  3  0
 16 15  3  0
 17  5  1  0
 17  9  1  0
 17 13  1  0
 18  6  1  0
 18 10  1  0
 18 15  1  0
 18 17  1  0
 19  7  1  0
 19 11  1  0
 19 14  1  0
 20  8  1  0
 20 12  1  0
 20 16  1  0
 20 19  1  0
M  END
>  <NAME>  (329) 
1,2,5,6-TERTAETHYL-1,2,5,6-TETRAMETHYL-1,2,5,6-TETRASILACYCLOOCTA-3,7-DIYNE

>  <SYNONYMS>  (329) 


>  <SPECTRUM TYPE>  (329) 
MS1

>  <INSTRUMENT TYPE>  (329) 
EI-B

>  <INSTRUMENT>  (329) 
SHIMADZU QP-1000

>  <ION MODE>  (329) 
P

>  <INCHIKEY>  (329) 
ZSRIYGVDTADWFF-UHFFFAOYSA-N

>  <FORMULA>  (329) 
C16H32Si4

>  <EXACT MASS>  (329) 
336.158107144

>  <MW>  (329) 
336

>  <ID>  (329) 
JP011713

>  <CONTRIBUTOR>  (329) 
University of Tokyo Team, {Faculty of Engineering, University of Tokyo

>  <COMMENT>  (329) 
SMILES=CC[Si](C)(C#1)[Si](C)(CC)C#C[Si](C)(CC)[Si](C)(CC)C1
InChI=InChI=1S/C16H32Si4/c1-9-17(5)13-14-19(7,11-3)20(8,12-4)16-15-18(17,6)10-2/h9-12H2,1-8H3
computed SMILES=C1#C[Si](C)(CC)[Si](C#C[Si](C)(CC)[Si]1(C)CC)(C)CC
accession=JP011713
date=2016.01.19 (Created 2008.10.21, modified 2011.05.06)
author=FAC. TECHNOLOGY, HIROSHIMA UNIV.
license=CC BY-NC-SA
exact mass=336.15811
ionization energy=70 eV
ion type=[M]+*
computed spectral entropy=3.8797815932492874
computed normalized entropy=0.8519733153975687
SPLASH=splash10-03k9-9332000000-778716b28f3957199984
submitter=submitter = University of Tokyo Team (Faculty of Engineering, University of Tokyo)
MoNA Rating=3.75

>  <NUM PEAKS>  (329) 
95

>  <MASS SPECTRAL PEAKS>  (329) 
54 3.2
56 6.4
57 1.1
58 5.3
60 99.99
61 6.4
62 2.1
67 9.6
68 1.1
69 23.4
70 3.2
71 10.6
73 63.8
74 4.3
75 1.1
81 13.8
82 2.1
83 24.5
84 3.2
85 20.2
86 2.1
87 14.9
88 1.1
93 9.6
95 10.6
96 4.3
97 25.5
98 3.2
99 11.7
100 1.1
101 6.4
104 1.1
107 2.1
109 10.6
110 2.1
111 24.5
112 17
113 17
114 2.1
115 3.2
135 1.1
137 5.3
139 8.5
140 5.3
141 7.4
149 2.1
153 6.4
155 3.2
157 1.1
159 3.2
161 1.1
163 2.1
165 3.2
167 3.2
168 1.1
169 3.2
171 2.1
175 1.1
177 2.1
179 3.2
181 4.3
183 3.2
191 2.1
193 3.2
195 3.2
197 2.1
205 1.1
207 3.2
209 3.2
211 1.1
219 1.1
221 2.1
223 10.6
224 3.2
225 3.2
235 2.1
237 4.3
249 2.1
251 27.7
252 9.6
253 5.3
265 6.4
266 1.1
277 1.1
279 27.7
280 10.6
281 5.3
293 5.3
307 22.3
308 10.6
309 4.3
321 2.1
336 34
337 12.8
338 6.4

$$$$

     RDKit          2D

 22 24  0  0  0  0  0  0  0  0999 V2000
    1.8961   -0.3813    0.0000 C   0  0  0  0  0  0  0  0  0  0  0  0
   -2.0024   -4.1328    0.0000 C   0  0  0  0  0  0  0  0  0  0  0  0
   -2.0019   -2.6319    0.0000 C   0  0  0  0  0  0  0  0  0  0  0  0
   -0.7033   -4.8828    0.0000 C   0  0  0  0  0  0  0  0  0  0  0  0
   -0.7024   -1.8811    0.0000 C   0  0  0  0  0  0  0  0  0  0  0  0
    0.5962   -4.1319    0.0000 C   0  0  0  0  0  0  0  0  0  0  0  0
    1.9563   -5.8513    0.0000 C   0  0  0  0  0  0  0  0  0  0  0  0
    4.3982   -4.9625    0.0000 C   0  0  0  0  0  0  0  0  0  0  0  0
    5.8160   -2.5111    0.0000 C   0  0  0  0  0  0  0  0  0  0  0  0
    5.3648    0.0480    0.0000 C   0  0  0  0  0  0  0  0  0  0  0  0
    1.4439   -4.4407    0.0000 C   0  0  0  0  0  0  0  0  0  0  0  0
    3.8858   -3.5519    0.0000 C   0  0  0  0  0  0  0  0  0  0  0  0
    4.3378   -2.7708    0.0000 C   0  0  0  0  0  0  0  0  0  0  0  0
    3.8866   -0.2117    0.0000 C   0  0  0  0  0  0  0  0  0  0  0  0
    3.4335   -6.1122    0.0000 C   0  0  0  0  0  0  0  0  0  0  0  0
    6.3295   -1.1017    0.0000 C   0  0  0  0  0  0  0  0  0  0  0  0
    0.5967   -2.6311    0.0000 C   0  0  0  0  0  0  0  0  0  0  0  0
    2.4086   -3.2909    0.0000 C   0  0  0  0  0  0  0  0  0  0  0  0
    3.3731   -1.6211    0.0000 C   0  0  0  0  0  0  0  0  0  0  0  0
    3.9463   -7.5219    0.0000 Br  0  0  0  0  0  0  0  0  0  0  0  0
    7.8067   -0.8415    0.0000 Br  0  0  0  0  0  0  0  0  0  0  0  0
    1.8958   -1.8813    0.0000 Si  0  0  0  0  0  4  0  0  0  0  0  0
  3  2  2  0
  4  2  1  0
  5  3  1  0
  6  4  2  0
 11  7  2  0
 12  8  1  0
 13  9  2  0
 14 10  1  0
 15  7  1  0
 15  8  2  0
 16  9  1  0
 16 10  2  0
 17  5  2  0
 17  6  1  0
 18 11  1  0
 18 12  2  0
 19 13  1  0
 19 14  2  0
 20 15  1  0
 21 16  1  0
 22  1  1  0
 22 17  1  0
 22 18  1  0
 22 19  1  0
M  END
>  <NAME>  (330) 
DI(4-BROMOPHENYL)METHYLPHENYLSILANE

>  <SYNONYMS>  (330) 


>  <SPECTRUM TYPE>  (330) 
MS1

>  <INSTRUMENT TYPE>  (330) 
EI-B

>  <INSTRUMENT>  (330) 
SHIMADZU QP-1000

>  <ION MODE>  (330) 
P

>  <INCHIKEY>  (330) 
HKEBXOBIFIZXTE-UHFFFAOYSA-N

>  <FORMULA>  (330) 
C19H16Br2Si

>  <EXACT MASS>  (330) 
429.938801242

>  <MW>  (330) 
430

>  <ID>  (330) 
JP011712

>  <CONTRIBUTOR>  (330) 
University of Tokyo Team, {Faculty of Engineering, University of Tokyo

>  <COMMENT>  (330) 
SMILES=Brc(c3)ccc(c3)[Si](C)(c(c2)cccc2)c(c1)ccc(Br)c1
InChI=InChI=1S/C19H16Br2Si/c1-22(17-5-3-2-4-6-17,18-11-7-15(20)8-12-18)19-13-9-16(21)10-14-19/h2-14H,1H3
computed SMILES=BrC1=CC=C(C=C1)[Si](C=2C=CC=CC2)(C3=CC=C(Br)C=C3)C
accession=JP011712
date=2016.01.19 (Created 2008.10.21, modified 2011.05.06)
author=FAC. TECHNOLOGY, HIROSHIMA UNIV.
license=CC BY-NC-SA
exact mass=429.9388
ionization energy=70 eV
ion type=[M]+*
computed spectral entropy=4.13144206001619
computed normalized entropy=0.862965887355323
SPLASH=splash10-0pb9-8900100000-02c291f77181d3a8956e
submitter=submitter = University of Tokyo Team (Faculty of Engineering, University of Tokyo)
MoNA Rating=3.75

>  <NUM PEAKS>  (330) 
120

>  <MASS SPECTRAL PEAKS>  (330) 
52 55.3
53 50
54 89.4
55 99.99
56 12.8
57 12.8
58 16
63 2.1
64 10.4
65 13.8
66 12.8
67 13.8
68 3.2
69 8.5
70 2.1
71 4.3
73 6.4
74 8.5
75 28.7
76 35.1
77 53.2
78 22.3
79 31.9
80 16
81 7.4
82 12.8
83 3.2
85 3.2
86 1.1
87 2.1
88 1.1
89 10.4
90 12.8
91 40.4
92 6.4
93 18.1
94 2.1
95 3.2
96 1.1
97 2.1
98 1.1
99 1.1
101 7.4
102 7.4
103 43.6
104 17
105 98.9
107 76.6
109 71.3
110 3.2
111 3.2
113 3.2
114 3.2
115 7.4
116 3.2
117 12.8
118 6.4
119 18.1
120 7.4
121 6.4
122 6.4
123 3.2
124 3.2
125 3.2
126 5.3
127 13.8
128 15
129 16
130 3.2
131 2.1
135 50
139 3.2
141 3.2
142 2.1
143 2.1
145 2.1
147 1.1
149 3.2
150 6.4
151 13.8
152 44.7
153 28.7
154 6.4
155 12.8
156 2.1
157 1.1
163 1.1
164 3.2
165 28.7
166 4.3
167 5.3
168 3.2
169 3.2
175 2.1
176 3.2
177 3.2
178 2.1
179 19.1
180 26.6
181 26.6
182 6.4
183 9.6
185 9.6
193 6.4
194 2.1
195 6.4
196 3.2
197 2.1
201 2.1
274 3.2
276 3.2
415 16
416 9.6
417 37.2
418 8.5
419 23.4
420 4.3
430 3.2
432 5.3
434 3.2

$$$$

     RDKit          2D

 30 33  0  0  0  0  0  0  0  0999 V2000
    6.5639    1.3418    0.0000 C   0  0  0  0  0  0  0  0  0  0  0  0
    3.9661   -3.1590    0.0000 C   0  0  0  0  0  0  0  0  0  0  0  0
    1.3672    1.3425    0.0000 C   0  0  0  0  0  0  0  0  0  0  0  0
   -0.7626    1.0718    0.0000 C   0  0  0  0  0  0  0  0  0  0  0  0
    1.3664   -6.1598    0.0000 C   0  0  0  0  0  0  0  0  0  0  0  0
   -5.1962    0.3521    0.0000 C   0  0  0  0  0  0  0  0  0  0  0  0
   -2.3009   -4.6588    0.0000 C   0  0  0  0  0  0  0  0  0  0  0  0
    2.6660   -5.4092    0.0000 C   0  0  0  0  0  0  0  0  0  0  0  0
    0.0674   -5.4096    0.0000 C   0  0  0  0  0  0  0  0  0  0  0  0
   -4.2313    1.5017    0.0000 C   0  0  0  0  0  0  0  0  0  0  0  0
   -4.6829   -1.0573    0.0000 C   0  0  0  0  0  0  0  0  0  0  0  0
   -3.2655   -3.5090    0.0000 C   0  0  0  0  0  0  0  0  0  0  0  0
   -0.8238   -4.3981    0.0000 C   0  0  0  0  0  0  0  0  0  0  0  0
    2.6667   -3.9084    0.0000 C   0  0  0  0  0  0  0  0  0  0  0  0
    0.0682   -3.9088    0.0000 C   0  0  0  0  0  0  0  0  0  0  0  0
   -2.7531    1.2418    0.0000 C   0  0  0  0  0  0  0  0  0  0  0  0
   -3.2047   -1.3172    0.0000 C   0  0  0  0  0  0  0  0  0  0  0  0
   -2.7528   -2.0984    0.0000 C   0  0  0  0  0  0  0  0  0  0  0  0
   -0.3111   -2.9876    0.0000 C   0  0  0  0  0  0  0  0  0  0  0  0
    5.2654   -0.9090    0.0000 C   0  0  0  0  0  0  0  0  0  0  0  0
    3.9654    1.3427    0.0000 C   0  0  0  0  0  0  0  0  0  0  0  0
    5.2649    0.5918    0.0000 C   0  0  0  0  0  0  0  0  0  0  0  0
    3.9664   -1.6590    0.0000 C   0  0  0  0  0  0  0  0  0  0  0  0
    2.6664    0.5927    0.0000 C   0  0  0  0  0  0  0  0  0  0  0  0
    1.3678   -3.1582    0.0000 C   0  0  0  0  0  0  0  0  0  0  0  0
   -2.2398   -0.1677    0.0000 C   0  0  0  0  0  0  0  0  0  0  0  0
   -1.2757   -1.8377    0.0000 C   0  0  0  0  0  0  0  0  0  0  0  0
    2.6668   -0.9082    0.0000 C   0  0  0  0  0  0  0  0  0  0  0  0
    1.3678   -1.6582    0.0000 Si  0  0  0  0  0  4  0  0  0  0  0  0
   -0.7626   -0.4282    0.0000 Si  0  0  0  0  0  4  0  0  0  0  0  0
  8  5  2  0
  9  5  1  0
 10  6  2  0
 11  6  1  0
 12  7  2  0
 13  7  1  0
 14  8  1  0
 15  9  2  0
 16 10  1  0
 17 11  2  0
 18 12  1  0
 19 13  2  0
 22  1  1  0
 22 20  2  0
 22 21  1  0
 23  2  1  0
 23 20  1  0
 24  3  1  0
 24 21  2  0
 25 14  2  0
 25 15  1  0
 26 16  2  0
 26 17  1  0
 27 18  2  0
 27 19  1  0
 28 23  2  0
 28 24  1  0
 29 25  1  0
 29 28  1  0
 30  4  1  0
 30 26  1  0
 30 27  1  0
 30 29  1  0
M  END
>  <NAME>  (331) 
1-METHYL-2-MESITYL-1,1,2-TRIPHENYLDISILANE

>  <SYNONYMS>  (331) 


>  <SPECTRUM TYPE>  (331) 
MS1

>  <INSTRUMENT TYPE>  (331) 
EI-B

>  <INSTRUMENT>  (331) 
SHIMADZU QP-1000

>  <ION MODE>  (331) 
P

>  <INCHIKEY>  (331) 
DBYXZJROQFGNRY-UHFFFAOYSA-N

>  <FORMULA>  (331) 
C28H30Si2

>  <EXACT MASS>  (331) 
422.18860402

>  <MW>  (331) 
422

>  <ID>  (331) 
JP011711

>  <CONTRIBUTOR>  (331) 
University of Tokyo Team, {Faculty of Engineering, University of Tokyo

>  <COMMENT>  (331) 
SMILES=c([Si](c(c4)cccc4)(C)[SiH](c(c3C)c(cc(C)c3)C)c(c2)cccc2)(c1)cccc1
InChI=InChI=1S/C28H30Si2/c1-22-20-23(2)28(24(3)21-22)29(25-14-8-5-9-15-25)30(4,26-16-10-6-11-17-26)27-18-12-7-13-19-27/h5-21,29H,1-4H3
computed SMILES=C=1C=CC(=CC1)[SiH](C=2C(=CC(=CC2C)C)C)[Si](C=3C=CC=CC3)(C=4C=CC=CC4)C
accession=JP011711
date=2016.01.19 (Created 2008.10.21, modified 2011.05.06)
author=FAC. TECHNOLOGY, HIROSHIMA UNIV.
license=CC BY-NC-SA
exact mass=422.1886
ionization energy=70 eV
ion type=[M]+*
computed spectral entropy=2.9694450975970863
computed normalized entropy=0.7755871574496632
SPLASH=splash10-0udj-0936100000-1c15bf681618aebe7269
submitter=submitter = University of Tokyo Team (Faculty of Engineering, University of Tokyo)
MoNA Rating=3.75

>  <NUM PEAKS>  (331) 
46

>  <MASS SPECTRAL PEAKS>  (331) 
55 5.3
67 1.1
78 1.1
79 2.1
91 3.2
93 4.3
103 1.1
105 33
106 4.3
107 2.1
119 10.6
120 3.2
121 2.1
131 2.1
133 2.1
145 4.3
146 11.7
147 3.2
165 3.2
178 1.1
179 2.1
180 1.1
181 4.3
193 6.4
194 2.1
195 8.5
197 73.4
198 12.8
199 3.2
209 14.9
210 3.2
221 1.1
222 1.1
223 12.8
224 9.6
225 10.6
226 1.1
239 12.8
240 2.1
301 99.99
302 28.7
303 6.4
344 2.1
422 17
423 6.4
424 2.1

$$$$

     RDKit          2D

 14 14  0  0  0  0  0  0  0  0999 V2000
   -3.3491   -0.2013    0.0000 C   0  0  0  0  0  0  0  0  0  0  0  0
   -3.8978   -2.2504    0.0000 C   0  0  0  0  0  0  0  0  0  0  0  0
   -1.8487   -2.7991    0.0000 C   0  0  0  0  0  0  0  0  0  0  0  0
    3.3491    0.2013    0.0000 C   0  0  0  0  0  0  0  0  0  0  0  0
    3.8978    2.2504    0.0000 C   0  0  0  0  0  0  0  0  0  0  0  0
    1.8487    2.7991    0.0000 C   0  0  0  0  0  0  0  0  0  0  0  0
   -1.3000    0.7500    0.0000 C   0  0  0  0  0  0  0  0  0  0  0  0
   -0.0000   -1.5000    0.0000 C   0  0  0  0  0  0  0  0  0  0  0  0
    0.0000    1.5000    0.0000 C   0  0  0  0  0  0  0  0  0  0  0  0
    1.3000   -0.7500    0.0000 C   0  0  0  0  0  0  0  0  0  0  0  0
   -1.3000   -0.7500    0.0000 C   0  0  0  0  0  0  0  0  0  0  0  0
    1.3000    0.7500    0.0000 C   0  0  0  0  0  0  0  0  0  0  0  0
   -2.5989   -1.5002    0.0000 Si  0  0  0  0  0  4  0  0  0  0  0  0
    2.5989    1.5002    0.0000 Si  0  0  0  0  0  4  0  0  0  0  0  0
  9  7  2  0
 10  8  1  0
 11  7  1  0
 11  8  2  0
 12  9  1  0
 12 10  2  0
 13  1  1  0
 13  2  1  0
 13  3  1  0
 13 11  1  0
 14  4  1  0
 14  5  1  0
 14  6  1  0
 14 12  1  0
M  END
>  <NAME>  (332) 
1,4-BIS(TRIMETHYLSILYL)BENZENE

>  <SYNONYMS>  (332) 


>  <SPECTRUM TYPE>  (332) 
MS1

>  <INSTRUMENT TYPE>  (332) 
EI-B

>  <INSTRUMENT>  (332) 
SHIMADZU QP-1000

>  <ION MODE>  (332) 
P

>  <INCHIKEY>  (332) 
NVRBTKMAZQNKPX-UHFFFAOYSA-N

>  <FORMULA>  (332) 
C12H22Si2

>  <EXACT MASS>  (332) 
222.12600376400002

>  <MW>  (332) 
222

>  <ID>  (332) 
JP011710

>  <CONTRIBUTOR>  (332) 
University of Tokyo Team, {Faculty of Engineering, University of Tokyo

>  <COMMENT>  (332) 
SMILES=C[Si](C)(C)c(c1)ccc(c1)[Si](C)(C)C
InChI=InChI=1S/C12H22Si2/c1-13(2,3)11-7-9-12(10-8-11)14(4,5)6/h7-10H,1-6H3
computed SMILES=C=1C=C(C=CC1[Si](C)(C)C)[Si](C)(C)C
accession=JP011710
date=2016.01.19 (Created 2008.10.21, modified 2011.05.06)
author=FAC. TECHNOLOGY, HIROSHIMA UNIV.
license=CC BY-NC-SA
exact mass=222.126
ionization energy=70 eV
ion type=[M]+*
computed spectral entropy=2.2926382553792486
computed normalized entropy=0.695616424170503
SPLASH=splash10-00di-9200000000-833fcdc5c3f0cba0de81
submitter=submitter = University of Tokyo Team (Faculty of Engineering, University of Tokyo)
MoNA Rating=3.75

>  <NUM PEAKS>  (332) 
27

>  <MASS SPECTRAL PEAKS>  (332) 
53 3.5
55 5.6
56 1.4
57 6.3
58 18.3
59 12.7
73 99.99
74 7
75 2.8
83 2.1
91 1.4
93 2.8
105 3.5
107 2.1
118 1.4
119 9.9
120 1.4
121 2.1
131 1.4
133 4.2
134 7
135 3.5
148 1.4
149 3.5
161 4.4
163 1.3
207 7.4

$$$$

     RDKit          2D

 24 25  0  0  0  0  0  0  0  0999 V2000
   -3.8663    5.5520    0.0000 C   0  0  0  0  0  0  0  0  0  0  0  0
    0.2470    0.8106    0.0000 C   0  0  0  0  0  0  0  0  0  0  0  0
    1.7473   -0.6891    0.0000 C   0  0  0  0  0  0  0  0  0  0  0  0
    3.2470    0.8111    0.0000 C   0  0  0  0  0  0  0  0  0  0  0  0
    3.6692    3.2077    0.0000 C   0  0  0  0  0  0  0  0  0  0  0  0
    2.7724    5.1301    0.0000 C   0  0  0  0  0  0  0  0  0  0  0  0
    0.8500    4.2333    0.0000 C   0  0  0  0  0  0  0  0  0  0  0  0
    9.1330    1.0097    0.0000 C   0  0  0  0  0  0  0  0  0  0  0  0
    8.6200    2.4201    0.0000 C   0  0  0  0  0  0  0  0  0  0  0  0
    8.1689   -0.1405    0.0000 C   0  0  0  0  0  0  0  0  0  0  0  0
    7.1427    2.6803    0.0000 C   0  0  0  0  0  0  0  0  0  0  0  0
    6.6916    0.1198    0.0000 C   0  0  0  0  0  0  0  0  0  0  0  0
   -1.2681    5.5523    0.0000 C   0  0  0  0  0  0  0  0  0  0  0  0
   -2.5667    3.3014    0.0000 C   0  0  0  0  0  0  0  0  0  0  0  0
    0.0314    4.8014    0.0000 C   0  0  0  0  0  0  0  0  0  0  0  0
   -1.2672    2.5506    0.0000 C   0  0  0  0  0  0  0  0  0  0  0  0
    4.7013    1.7904    0.0000 C   0  0  0  0  0  0  0  0  0  0  0  0
    3.2240    2.0506    0.0000 C   0  0  0  0  0  0  0  0  0  0  0  0
   -2.5672    4.8023    0.0000 C   0  0  0  0  0  0  0  0  0  0  0  0
    6.1785    1.5302    0.0000 C   0  0  0  0  0  0  0  0  0  0  0  0
    0.0319    3.3006    0.0000 C   0  0  0  0  0  0  0  0  0  0  0  0
    1.7470    0.8109    0.0000 Si  0  0  0  0  0  4  0  0  0  0  0  0
    2.2596    3.7205    0.0000 Si  0  0  0  0  0  4  0  0  0  0  0  0
    1.7468    2.3109    0.0000 Si  0  0  0  0  0  4  0  0  0  0  0  0
  9  8  2  0
 10  8  1  0
 11  9  1  0
 12 10  2  0
 15 13  2  0
 16 14  1  0
 18 17  3  0
 19  1  1  0
 19 13  1  0
 19 14  2  0
 20 11  2  0
 20 12  1  0
 20 17  1  0
 21 15  1  0
 21 16  2  0
 22  2  1  0
 22  3  1  0
 22  4  1  0
 23  5  1  0
 23  6  1  0
 23  7  1  0
 24 18  1  0
 24 21  1  0
 24 22  1  0
 24 23  1  0
M  END
>  <NAME>  (333) 
2-(PHENYLETHYNYL)-2-(PARA-TOLYL)-HEXAMETHYLTRISILANE

>  <SYNONYMS>  (333) 


>  <SPECTRUM TYPE>  (333) 
MS1

>  <INSTRUMENT TYPE>  (333) 
EI-B

>  <INSTRUMENT>  (333) 
SHIMADZU QP-1000

>  <ION MODE>  (333) 
P

>  <INCHIKEY>  (333) 
KAMAFVFQMVILDR-UHFFFAOYSA-N

>  <FORMULA>  (333) 
C21H30Si3

>  <EXACT MASS>  (333) 
366.16553054999997

>  <MW>  (333) 
366

>  <ID>  (333) 
JP011709

>  <CONTRIBUTOR>  (333) 
University of Tokyo Team, {Faculty of Engineering, University of Tokyo

>  <COMMENT>  (333) 
SMILES=Cc(c2)ccc(c2)[Si](C#Cc(c1)cccc1)([Si](C)(C)C)[Si](C)(C)C
InChI=InChI=1S/C21H30Si3/c1-19-13-15-21(16-14-19)24(22(2,3)4,23(5,6)7)18-17-20-11-9-8-10-12-20/h8-16H,1-7H3
computed SMILES=C(#C[Si](C1=CC=C(C=C1)C)([Si](C)(C)C)[Si](C)(C)C)C=2C=CC=CC2
ionization energy=70 eV
accession=JP011709
date=2016.01.19 (Created 2008.10.21, modified 2011.05.06)
author=FAC. TECHNOLOGY, HIROSHIMA UNIV.
license=CC BY-NC-SA
exact mass=366.16553
ion type=[M]+*
computed spectral entropy=3.675414703709705
computed normalized entropy=0.8363766593594071
SPLASH=splash10-0gi1-3924000000-64a23d0a5393aed14e48
submitter=submitter = University of Tokyo Team (Faculty of Engineering, University of Tokyo)
MoNA Rating=3.75

>  <NUM PEAKS>  (333) 
81

>  <MASS SPECTRAL PEAKS>  (333) 
54 8.5
56 2.8
58 2.8
59 1.4
60 5.6
67 2.8
69 1.4
73 99.99
74 9.2
75 2.8
77 1.4
79 0.7
83 1.4
91 3.5
93 13.4
95 1.4
103 3.5
105 13.4
106 1.4
107 2.8
116 11.3
117 5.6
119 29.6
120 4.2
121 15.5
122 1.4
129 14.1
130 2.1
131 7
133 3.5
135 11.3
136 1.4
143 5.6
145 9.2
146 1.4
147 2.1
149 78.2
150 11.3
151 2.8
159 15.1
160 2.1
161 2.1
175 4.9
177 44.4
178 11.3
179 4.2
187 14.8
188 2.8
189 3.5
190 3.5
191 14.1
192 21.1
193 5.6
202 4.2
207 2.1
208 2.1
211 8.5
217 3.5
231 3.5
234 2.1
235 9.9
236 2.1
265 2.1
275 5.6
276 2.1
277 4.2
291 4.2
292 6.3
293 21.1
294 5.6
295 1.4
307 7
351 50
352 19.7
353 7.7
354 1.4
364 7
366 63.4
367 23.9
368 10.6
369 2.1

$$$$

     RDKit          2D

 30 33  0  0  0  0  0  0  0  0999 V2000
    8.4133    0.0155    0.0000 C   0  0  0  0  0  0  0  0  0  0  0  0
    7.1139    2.2653    0.0000 C   0  0  0  0  0  0  0  0  0  0  0  0
    5.1851    2.8429    0.0000 C   0  0  0  0  0  0  0  0  0  0  0  0
    6.4018    4.5806    0.0000 C   0  0  0  0  0  0  0  0  0  0  0  0
    4.6642    5.7973    0.0000 C   0  0  0  0  0  0  0  0  0  0  0  0
    5.4801    1.9141    0.0000 C   0  0  0  0  0  0  0  0  0  0  0  0
   -1.9828   -1.4853    0.0000 C   0  0  0  0  0  0  0  0  0  0  0  0
   -1.9828    0.0147    0.0000 C   0  0  0  0  0  0  0  0  0  0  0  0
    0.5544    7.5096    0.0000 C   0  0  0  0  0  0  0  0  0  0  0  0
    2.0316    7.7701    0.0000 C   0  0  0  0  0  0  0  0  0  0  0  0
   -0.6828   -2.2353    0.0000 C   0  0  0  0  0  0  0  0  0  0  0  0
    0.0415    6.0992    0.0000 C   0  0  0  0  0  0  0  0  0  0  0  0
   -0.6828    0.7647    0.0000 C   0  0  0  0  0  0  0  0  0  0  0  0
    2.9959    6.6201    0.0000 C   0  0  0  0  0  0  0  0  0  0  0  0
    1.9172   -2.2353    0.0000 C   0  0  0  0  0  0  0  0  0  0  0  0
    0.4930    3.5387    0.0000 C   0  0  0  0  0  0  0  0  0  0  0  0
    3.2172   -1.4853    0.0000 C   0  0  0  0  0  0  0  0  0  0  0  0
    1.4573    2.3886    0.0000 C   0  0  0  0  0  0  0  0  0  0  0  0
    1.9172    0.7647    0.0000 C   0  0  0  0  0  0  0  0  0  0  0  0
    5.8153    0.0151    0.0000 C   0  0  0  0  0  0  0  0  0  0  0  0
    7.1142    0.7653    0.0000 C   0  0  0  0  0  0  0  0  0  0  0  0
    0.6172   -1.4853    0.0000 C   0  0  0  0  0  0  0  0  0  0  0  0
    1.0059    4.9491    0.0000 C   0  0  0  0  0  0  0  0  0  0  0  0
    0.6172    0.0147    0.0000 C   0  0  0  0  0  0  0  0  0  0  0  0
    3.2172    0.0147    0.0000 C   0  0  0  0  0  0  0  0  0  0  0  0
    2.4831    5.2096    0.0000 C   0  0  0  0  0  0  0  0  0  0  0  0
    2.9346    2.6491    0.0000 C   0  0  0  0  0  0  0  0  0  0  0  0
    3.4474    4.0596    0.0000 C   0  0  0  0  0  0  0  0  0  0  0  0
    4.9246    4.3201    0.0000 Si  0  0  0  0  0  4  0  0  0  0  0  0
    4.5161    0.7649    0.0000 Si  0  0  0  0  0  4  0  0  0  0  0  0
  8  7  2  0
 10  9  2  0
 11  7  1  0
 12  9  1  0
 13  8  1  0
 14 10  1  0
 17 15  2  0
 18 16  2  0
 21  1  1  0
 21  2  1  0
 21 20  1  0
 22 11  2  0
 22 15  1  0
 23 12  2  0
 23 16  1  0
 24 13  2  0
 24 19  1  0
 24 22  1  0
 25 17  1  0
 25 19  2  0
 26 14  2  0
 26 23  1  0
 27 18  1  0
 28 26  1  0
 28 27  2  0
 29  3  1  0
 29  4  1  0
 29  5  1  0
 29 28  1  0
 30  6  1  0
 30 20  1  0
 30 25  1  0
 30 27  1  0
M  END
>  <NAME>  (334) 
2(ISOBUTYLMETHYL(2-NAPHTHYLSILYL))-1-(TRIMETHYLSILYL)NAPHTHALENE

>  <SYNONYMS>  (334) 


>  <SPECTRUM TYPE>  (334) 
MS1

>  <INSTRUMENT TYPE>  (334) 
EI-B

>  <INSTRUMENT>  (334) 
SHIMADZU QP-1000

>  <ION MODE>  (334) 
P

>  <INCHIKEY>  (334) 
NWUOBOGYTBAVIH-UHFFFAOYSA-N

>  <FORMULA>  (334) 
C28H34Si2

>  <EXACT MASS>  (334) 
426.219904148

>  <MW>  (334) 
426

>  <ID>  (334) 
JP011708

>  <CONTRIBUTOR>  (334) 
University of Tokyo Team, {Faculty of Engineering, University of Tokyo

>  <COMMENT>  (334) 
SMILES=C[Si](C)(C)c(c([Si](CC(C)C)(C)c(c4)ccc(c43)cccc3)2)c(c1)c(cc2)ccc1
InChI=InChI=1S/C28H34Si2/c1-21(2)20-30(6,25-17-15-22-11-7-8-13-24(22)19-25)27-18-16-23-12-9-10-14-26(23)28(27)29(3,4)5/h7-19,21H,20H2,1-6H3
computed SMILES=C=1C=CC=2C=C(C=CC2C1)[Si](C=3C=CC=4C=CC=CC4C3[Si](C)(C)C)(C)CC(C)C
accession=JP011708
date=2016.01.19 (Created 2008.10.21, modified 2011.05.06)
author=FAC. TECHNOLOGY, HIROSHIMA UNIV.
license=CC BY-NC-SA
exact mass=426.2199
ionization energy=70 eV
ion type=[M]+*
computed spectral entropy=3.322245753782914
computed normalized entropy=0.7958642883332607
SPLASH=splash10-05fs-2930000000-a2dfadbe8107dee9d8fe
submitter=submitter = University of Tokyo Team (Faculty of Engineering, University of Tokyo)
MoNA Rating=3.75

>  <NUM PEAKS>  (334) 
65

>  <MASS SPECTRAL PEAKS>  (334) 
54 9.6
56 4.3
57 3.2
58 2.1
59 5.3
60 16
68 1.1
69 1.1
71 1.1
73 73.4
74 5.3
75 2.1
76 1.1
77 1.1
83 6.4
97 6.4
98 30.9
99 2.1
103 2.1
105 2.1
115 5.3
127 1.1
128 8.5
129 16
130 2.1
131 3.2
153 3.2
155 99.99
156 14.9
157 5.3
165 2.1
166 1.1
167 23.4
168 8.5
169 37.2
170 47.9
171 74.5
172 12.8
173 2.1
181 3.2
183 9.6
184 71.3
185 76.6
186 14.9
187 3.2
195 1.1
209 1.1
211 11.7
212 1.1
225 4.3
226 54.3
227 14.9
228 3.2
252 2.1
265 1.1
280 1.1
281 1.1
295 1.1
297 67
298 18.1
299 3.2
370 17
371 9.6
372 3.2
426 1

$$$$

     RDKit          2D

 23 23  0  0  0  0  0  0  0  0999 V2000
    9.6432   -1.3004    0.0000 C   0  0  0  0  0  0  0  0  0  0  0  0
   11.6923   -0.7517    0.0000 C   0  0  0  0  0  0  0  0  0  0  0  0
   11.1436    1.2975    0.0000 C   0  0  0  0  0  0  0  0  0  0  0  0
    2.4137   -3.6134    0.0000 C   0  0  0  0  0  0  0  0  0  0  0  0
    4.5269   -3.7987    0.0000 C   0  0  0  0  0  0  0  0  0  0  0  0
    4.7121   -1.6854    0.0000 C   0  0  0  0  0  0  0  0  0  0  0  0
   10.0588    1.8977    0.0000 C   0  0  0  0  0  0  0  0  0  0  0  0
    8.1305    1.8980    0.0000 C   0  0  0  0  0  0  0  0  0  0  0  0
    1.6346   -2.6491    0.0000 C   0  0  0  0  0  0  0  0  0  0  0  0
   -1.3000    0.7500    0.0000 C   0  0  0  0  0  0  0  0  0  0  0  0
    0.0000    1.5000    0.0000 C   0  0  0  0  0  0  0  0  0  0  0  0
   -1.3000   -0.7500    0.0000 C   0  0  0  0  0  0  0  0  0  0  0  0
    6.4964    0.7492    0.0000 C   0  0  0  0  0  0  0  0  0  0  0  0
    5.1972   -0.0006    0.0000 C   0  0  0  0  0  0  0  0  0  0  0  0
    1.3000    0.7500    0.0000 C   0  0  0  0  0  0  0  0  0  0  0  0
    0.0000   -1.5000    0.0000 C   0  0  0  0  0  0  0  0  0  0  0  0
    7.7953   -0.0010    0.0000 C   0  0  0  0  0  0  0  0  0  0  0  0
    3.8981   -0.7504    0.0000 C   0  0  0  0  0  0  0  0  0  0  0  0
    1.3000   -0.7500    0.0000 C   0  0  0  0  0  0  0  0  0  0  0  0
   10.3934   -0.0015    0.0000 Si  0  0  0  0  0  4  0  0  0  0  0  0
    3.5629   -2.6494    0.0000 Si  0  0  0  0  0  4  0  0  0  0  0  0
    9.0945    0.7488    0.0000 Si  0  0  0  0  0  4  0  0  0  0  0  0
    2.5989   -1.5002    0.0000 Si  0  0  0  0  0  4  0  0  0  0  0  0
 11 10  2  0
 12 10  1  0
 14 13  1  0
 15 11  1  0
 16 12  2  0
 13 17  2  0
 18 14  3  0
 19 15  2  0
 19 16  1  0
 20  1  1  0
 20  2  1  0
 20  3  1  0
 21  4  1  0
 21  5  1  0
 21  6  1  0
 22  7  1  0
 22  8  1  0
 22 17  1  0
 22 20  1  0
 23  9  1  0
 23 18  1  0
 23 19  1  0
 23 21  1  0
M  END
>  <NAME>  (335) 
1-(PENTAMETHYLDISILANYL)-4-(1-PHENYLTETRAMETHYLDISILANYL)BUT-1-EN-3-YNE

>  <SYNONYMS>  (335) 


>  <SPECTRUM TYPE>  (335) 
MS1

>  <INSTRUMENT TYPE>  (335) 
EI-B

>  <INSTRUMENT>  (335) 
SHIMADZU QP-1000

>  <ION MODE>  (335) 
P

>  <INCHIKEY>  (335) 
FHHYPLJAVCZASC-GHRIWEEISA-N

>  <FORMULA>  (335) 
C19H34Si4

>  <EXACT MASS>  (335) 
374.173757208

>  <MW>  (335) 
374

>  <ID>  (335) 
JP011706

>  <CONTRIBUTOR>  (335) 
University of Tokyo Team, {Faculty of Engineering, University of Tokyo

>  <COMMENT>  (335) 
SMILES=c(c1)ccc(c1)[Si](C)(C#CC=C[Si](C)(C)[Si](C)(C)C)[Si](C)(C)C
InChI=InChI=1S/C19H34Si4/c1-20(2,3)22(7,8)17-13-14-18-23(9,21(4,5)6)19-15-11-10-12-16-19/h10-13,15-17H,1-9H3/b17-13+
computed SMILES=C(#C[Si](C=1C=CC=CC1)(C)[Si](C)(C)C)C=C[Si](C)(C)[Si](C)(C)C
accession=JP011706
date=2016.01.19 (Created 2008.10.21, modified 2011.05.06)
author=FAC. TECHNOLOGY, HIROSHIMA UNIV.
license=CC BY-NC-SA
exact mass=374.17376
ionization energy=70 eV
ion type=[M]+*
computed spectral entropy=2.684235135206212
computed normalized entropy=0.7051413521476051
SPLASH=splash10-00di-9711000000-23dafdadf64e71ea7b53
submitter=submitter = University of Tokyo Team (Faculty of Engineering, University of Tokyo)
MoNA Rating=3.75

>  <NUM PEAKS>  (335) 
45

>  <MASS SPECTRAL PEAKS>  (335) 
54 1.1
58 1.1
59 1.1
60 6.3
73 99.99
74 8.4
75 3.2
83 3.2
97 3.2
105 5.3
107 3.2
116 3.2
121 2.1
125 1.1
127 4.2
129 5.3
131 3.2
135 45.3
136 5.3
137 1.1
141 3.2
143 1.1
145 4.2
151 1.1
155 5.3
159 4.2
163 3.2
175 1.1
177 2.1
187 1.1
189 1.1
191 1.1
203 1.1
209 2.1
213 3.2
217 3.2
227 4.2
239 4.2
271 1.1
286 1.1
301 7.6
302 2.5
303 1.1
359 3.4
360 1.3

$$$$

     RDKit          2D

 14 15  0  0  0  0  0  0  0  0999 V2000
    4.6491    0.2013    0.0000 C   0  0  0  0  0  0  0  0  0  0  0  0
    5.1978    2.2504    0.0000 C   0  0  0  0  0  0  0  0  0  0  0  0
   -2.6000   -0.7500    0.0000 C   0  0  0  0  0  0  0  0  0  0  0  0
   -2.6000    0.7500    0.0000 C   0  0  0  0  0  0  0  0  0  0  0  0
   -1.3000   -1.5000    0.0000 C   0  0  0  0  0  0  0  0  0  0  0  0
   -1.3000    1.5000    0.0000 C   0  0  0  0  0  0  0  0  0  0  0  0
    1.3000   -1.5000    0.0000 C   0  0  0  0  0  0  0  0  0  0  0  0
    2.6000   -0.7500    0.0000 C   0  0  0  0  0  0  0  0  0  0  0  0
    1.3000    1.5000    0.0000 C   0  0  0  0  0  0  0  0  0  0  0  0
    0.0000   -0.7500    0.0000 C   0  0  0  0  0  0  0  0  0  0  0  0
    0.0000    0.7500    0.0000 C   0  0  0  0  0  0  0  0  0  0  0  0
    2.6000    0.7500    0.0000 C   0  0  0  0  0  0  0  0  0  0  0  0
    3.1487    2.7991    0.0000 Cl  0  0  0  0  0  0  0  0  0  0  0  0
    3.8989    1.5002    0.0000 Si  0  0  0  0  0  4  0  0  0  0  0  0
  4  3  2  0
  5  3  1  0
  6  4  1  0
  8  7  2  0
 10  5  2  0
 10  7  1  0
 11  6  2  0
 11  9  1  0
 11 10  1  0
 12  8  1  0
 12  9  2  0
 14  1  1  0
 14  2  1  0
 14 12  1  0
 14 13  1  0
M  END
>  <NAME>  (336) 
CHLORODIMETHYL(2-NAPHTHYL)SILANE

>  <SYNONYMS>  (336) 


>  <SPECTRUM TYPE>  (336) 
MS1

>  <INSTRUMENT TYPE>  (336) 
EI-B

>  <INSTRUMENT>  (336) 
SHIMADZU QP-1000

>  <ION MODE>  (336) 
P

>  <INCHIKEY>  (336) 
URILQKXUGKSUFB-UHFFFAOYSA-N

>  <FORMULA>  (336) 
C12H13ClSi

>  <EXACT MASS>  (336) 
220.04750462599998

>  <MW>  (336) 
220

>  <ID>  (336) 
JP011704

>  <CONTRIBUTOR>  (336) 
University of Tokyo Team, {Faculty of Engineering, University of Tokyo

>  <COMMENT>  (336) 
SMILES=c(c2)cc(c1)c(c2)cc(c1)[Si](C)(C)Cl
InChI=InChI=1S/C12H13ClSi/c1-14(2,13)12-8-7-10-5-3-4-6-11(10)9-12/h3-9H,1-2H3
computed SMILES=Cl[Si](C=1C=CC=2C=CC=CC2C1)(C)C
accession=JP011704
date=2016.01.19 (Created 2008.10.21, modified 2011.05.06)
author=FAC. TECHNOLOGY, HIROSHIMA UNIV.
license=CC BY-NC-SA
exact mass=220.0475
ionization energy=70 eV
ion type=[M]+*
computed spectral entropy=3.4919608582706894
computed normalized entropy=0.846098171875384
SPLASH=splash10-066r-7950000000-d60d21059ae09b785fce
submitter=submitter = University of Tokyo Team (Faculty of Engineering, University of Tokyo)
MoNA Rating=3.75

>  <NUM PEAKS>  (336) 
62

>  <MASS SPECTRAL PEAKS>  (336) 
51 5.3
52 11.6
53 14.7
54 12.6
63 84.2
64 7.4
65 41.1
66 2.1
67 5.3
74 6.3
75 11.6
76 7.4
77 24.2
78 7.4
79 5.3
87 2.1
89 5.3
91 5.3
92 2.1
93 15.8
94 1.1
95 5.3
100 1.1
101 8.4
102 22.1
103 11.6
105 1.1
109 1.1
110 1.1
113 1.1
115 59
116 5.3
117 1.1
126 14.7
127 18.9
128 10.5
129 7.4
139 9.5
140 2.1
141 49.5
142 8.4
143 4.2
153 3.2
154 3.2
155 10.5
156 1.1
167 28.4
168 6.3
169 44.2
170 7.4
171 2.1
183 2.1
185 5.3
189 8.4
191 2.1
205 99.99
206 16.8
207 35.8
208 5.3
220 30.5
221 4.2
222 9.5

$$$$

     RDKit          2D

 24 26  0  0  0  0  0  0  0  0999 V2000
    8.1196   -4.3149    0.0000 C   0  0  0  0  0  0  0  0  0  0  0  0
   -0.9758    0.9382    0.0000 C   0  0  0  0  0  0  0  0  0  0  0  0
    8.1191   -5.8158    0.0000 C   0  0  0  0  0  0  0  0  0  0  0  0
    6.8205   -3.5649    0.0000 C   0  0  0  0  0  0  0  0  0  0  0  0
    0.3238    0.1873    0.0000 C   0  0  0  0  0  0  0  0  0  0  0  0
   -2.2748    0.1882    0.0000 C   0  0  0  0  0  0  0  0  0  0  0  0
    6.8196   -6.5666    0.0000 C   0  0  0  0  0  0  0  0  0  0  0  0
    5.5210   -4.3158    0.0000 C   0  0  0  0  0  0  0  0  0  0  0  0
    0.3242   -1.3135    0.0000 C   0  0  0  0  0  0  0  0  0  0  0  0
   -2.2743   -1.3127    0.0000 C   0  0  0  0  0  0  0  0  0  0  0  0
    1.6232   -6.5658    0.0000 C   0  0  0  0  0  0  0  0  0  0  0  0
    2.9224   -4.3154    0.0000 C   0  0  0  0  0  0  0  0  0  0  0  0
    0.3239   -5.8145    0.0000 C   0  0  0  0  0  0  0  0  0  0  0  0
    1.6232   -3.5641    0.0000 C   0  0  0  0  0  0  0  0  0  0  0  0
    4.2211   -8.0664    0.0000 C   0  0  0  0  0  0  0  0  0  0  0  0
   -2.2742   -4.3133    0.0000 C   0  0  0  0  0  0  0  0  0  0  0  0
    5.5205   -5.8166    0.0000 C   0  0  0  0  0  0  0  0  0  0  0  0
   -0.9748   -2.0635    0.0000 C   0  0  0  0  0  0  0  0  0  0  0  0
    2.9224   -5.8162    0.0000 C   0  0  0  0  0  0  0  0  0  0  0  0
    0.3239   -4.3137    0.0000 C   0  0  0  0  0  0  0  0  0  0  0  0
    2.9220   -8.8162    0.0000 Cl  0  0  0  0  0  0  0  0  0  0  0  0
   -3.5731   -3.5631    0.0000 Cl  0  0  0  0  0  0  0  0  0  0  0  0
    4.2214   -6.5664    0.0000 Si  0  0  0  0  0  4  0  0  0  0  0  0
   -0.9750   -3.5635    0.0000 Si  0  0  0  0  0  4  0  0  0  0  0  0
  3  1  2  0
  4  1  1  0
  5  2  2  0
  6  2  1  0
  7  3  1  0
  8  4  2  0
  9  5  1  0
 10  6  2  0
 13 11  2  0
 14 12  1  0
 17  7  2  0
 17  8  1  0
 18  9  2  0
 18 10  1  0
 19 11  1  0
 19 12  2  0
 20 13  1  0
 20 14  2  0
 21 15  1  0
 22 16  1  0
 23 15  1  0
 23 17  1  0
 23 19  1  0
 24 16  1  0
 24 18  1  0
 24 20  1  0
M  END
>  <NAME>  (337) 
1,4-BIS(CHLOROMETHYLPHENYLSILYL)BENZENE

>  <SYNONYMS>  (337) 


>  <SPECTRUM TYPE>  (337) 
MS1

>  <INSTRUMENT TYPE>  (337) 
EI-B

>  <INSTRUMENT>  (337) 
SHIMADZU QP-1000

>  <ION MODE>  (337) 
P

>  <INCHIKEY>  (337) 
FKOCKWJYGCCZDI-UHFFFAOYSA-N

>  <FORMULA>  (337) 
C20H20Cl2Si2

>  <EXACT MASS>  (337) 
386.04805906

>  <MW>  (337) 
386

>  <ID>  (337) 
JP011703

>  <CONTRIBUTOR>  (337) 
University of Tokyo Team, {Faculty of Engineering, University of Tokyo

>  <COMMENT>  (337) 
SMILES=ClC[SiH](c(c3)cccc3)c(c2)ccc(c2)[SiH](CCl)c(c1)cccc1
InChI=InChI=1S/C20H20Cl2Si2/c21-15-23(17-7-3-1-4-8-17)19-11-13-20(14-12-19)24(16-22)18-9-5-2-6-10-18/h1-14,23-24H,15-16H2
computed SMILES=ClC[SiH](C=1C=CC=CC1)C2=CC=C(C=C2)[SiH](C=3C=CC=CC3)CCl
accession=JP011703
date=2016.01.19 (Created 2008.10.21, modified 2011.05.06)
author=FAC. TECHNOLOGY, HIROSHIMA UNIV.
license=CC BY-NC-SA
exact mass=386.04806
ionization energy=70 eV
ion type=[M]+*
computed spectral entropy=3.2650122945705835
computed normalized entropy=0.8007314070041135
SPLASH=splash10-0229-9305000000-5bca0e87ca43e28d2639
submitter=submitter = University of Tokyo Team (Faculty of Engineering, University of Tokyo)
MoNA Rating=3.75

>  <NUM PEAKS>  (337) 
59

>  <MASS SPECTRAL PEAKS>  (337) 
51 24.2
52 5.3
53 16.8
62 6.3
63 99.99
64 6.3
65 40
66 3.2
67 3.2
74 1.1
75 1.1
76 3.2
77 14.7
78 11.6
79 8.4
80 1.1
81 1.1
91 47.4
92 3.2
93 6.3
103 8.4
104 2.1
105 14.7
106 1.1
113 1.1
115 2.1
117 1.1
119 7.4
120 1.1
121 1.1
129 3.2
139 1.1
141 1.1
142 2.1
152 3.2
153 1.1
155 22.1
156 3.2
157 6.3
165 3.2
175 1.1
178 3.2
179 2.1
180 1.1
181 3.2
195 3.2
196 1.1
273 1.1
371 59
372 18.9
373 46.3
374 12.6
375 10.5
376 2.1
386 18.9
387 5.3
388 13.7
389 4.2
390 3.2

$$$$

     RDKit          2D

 28 29  0  0  0  0  0  0  0  0999 V2000
    3.1197   -9.6561    0.0000 C   0  0  0  0  0  0  0  0  0  0  0  0
   11.6923   -0.7517    0.0000 C   0  0  0  0  0  0  0  0  0  0  0  0
    0.8031   -3.1290    0.0000 C   0  0  0  0  0  0  0  0  0  0  0  0
    4.8624    0.3985    0.0000 C   0  0  0  0  0  0  0  0  0  0  0  0
    3.6329   -8.2467    0.0000 C   0  0  0  0  0  0  0  0  0  0  0  0
   10.3931   -1.5015    0.0000 C   0  0  0  0  0  0  0  0  0  0  0  0
    2.6689   -7.0974    0.0000 C   0  0  0  0  0  0  0  0  0  0  0  0
    9.0942   -0.7512    0.0000 C   0  0  0  0  0  0  0  0  0  0  0  0
    3.1822   -5.6880    0.0000 C   0  0  0  0  0  0  0  0  0  0  0  0
    7.7951   -1.5010    0.0000 C   0  0  0  0  0  0  0  0  0  0  0  0
   -2.1315    0.2701    0.0000 C   0  0  0  0  0  0  0  0  0  0  0  0
    1.0039    2.6976    0.0000 C   0  0  0  0  0  0  0  0  0  0  0  0
   -0.8315    1.0201    0.0000 C   0  0  0  0  0  0  0  0  0  0  0  0
   -2.1315   -1.2299    0.0000 C   0  0  0  0  0  0  0  0  0  0  0  0
    2.4820    2.9577    0.0000 C   0  0  0  0  0  0  0  0  0  0  0  0
    0.4909    1.2881    0.0000 C   0  0  0  0  0  0  0  0  0  0  0  0
    2.2182   -4.5388    0.0000 C   0  0  0  0  0  0  0  0  0  0  0  0
    6.4962   -0.7508    0.0000 C   0  0  0  0  0  0  0  0  0  0  0  0
    0.4685    0.2701    0.0000 C   0  0  0  0  0  0  0  0  0  0  0  0
   -0.8315   -1.9799    0.0000 C   0  0  0  0  0  0  0  0  0  0  0  0
    3.4471    1.8083    0.0000 C   0  0  0  0  0  0  0  0  0  0  0  0
    1.4560    0.1387    0.0000 C   0  0  0  0  0  0  0  0  0  0  0  0
    2.7315   -3.1293    0.0000 C   0  0  0  0  0  0  0  0  0  0  0  0
    5.1970   -1.5006    0.0000 C   0  0  0  0  0  0  0  0  0  0  0  0
    0.4685   -1.2299    0.0000 C   0  0  0  0  0  0  0  0  0  0  0  0
    2.9341    0.3988    0.0000 C   0  0  0  0  0  0  0  0  0  0  0  0
    1.7675   -1.9801    0.0000 Si  0  0  0  0  0  4  0  0  0  0  0  0
    3.8981   -0.7504    0.0000 Si  0  0  0  0  0  4  0  0  0  0  0  0
  5  1  1  0
  6  2  1  0
  7  5  1  0
  8  6  1  0
  9  7  1  0
 10  8  1  0
 13 11  2  0
 14 11  1  0
 15 12  2  0
 16 12  1  0
 17  9  1  0
 18 10  1  0
 19 13  1  0
 20 14  2  0
 21 15  1  0
 22 16  2  0
 23 17  1  0
 24 18  1  0
 25 19  2  0
 25 20  1  0
 26 21  2  0
 26 22  1  0
 27  3  1  0
 27 23  1  0
 27 25  1  0
 28  4  1  0
 28 24  1  0
 28 26  1  0
 28 27  1  0
M  END
>  <NAME>  (338) 
1,2-DI(N-HEXYL)-1,2-DIMETHYLDIPHENYLDISILANE

>  <SYNONYMS>  (338) 


>  <SPECTRUM TYPE>  (338) 
MS1

>  <INSTRUMENT TYPE>  (338) 
EI-B

>  <INSTRUMENT>  (338) 
SHIMADZU QP-1000

>  <ION MODE>  (338) 
P

>  <INCHIKEY>  (338) 
BZEWXEKVKZOJLE-UHFFFAOYSA-N

>  <FORMULA>  (338) 
C26H42Si2

>  <EXACT MASS>  (338) 
410.28250440399995

>  <MW>  (338) 
410

>  <ID>  (338) 
JP011702

>  <CONTRIBUTOR>  (338) 
University of Tokyo Team, {Faculty of Engineering, University of Tokyo

>  <COMMENT>  (338) 
SMILES=c(c1[Si](C)([Si](C)(CCCCCC)c(c2)cccc2)CCCCCC)cccc1
InChI=InChI=1S/C26H42Si2/c1-5-7-9-17-23-27(3,25-19-13-11-14-20-25)28(4,24-18-10-8-6-2)26-21-15-12-16-22-26/h11-16,19-22H,5-10,17-18,23-24H2,1-4H3
computed SMILES=C=1C=CC(=CC1)[Si](C)(CCCCCC)[Si](C=2C=CC=CC2)(C)CCCCCC
accession=JP011702
date=2016.01.19 (Created 2008.10.21, modified 2011.05.06)
author=FAC. TECHNOLOGY, HIROSHIMA UNIV.
license=CC BY-NC-SA
exact mass=410.2825
ionization energy=70 eV
ion type=[M]+*
computed spectral entropy=1.9226076972178612
computed normalized entropy=0.66517661334239
SPLASH=splash10-00di-0910000000-5635318cc75692e52455
submitter=submitter = University of Tokyo Team (Faculty of Engineering, University of Tokyo)
MoNA Rating=3.75

>  <NUM PEAKS>  (338) 
18

>  <MASS SPECTRAL PEAKS>  (338) 
55 1.1
59 1.1
105 15.8
106 1.1
107 2.1
119 3.2
120 4.2
121 99.99
122 17.9
123 5.3
135 6.3
183 2.1
197 3.2
205 23.2
206 3.2
241 2.1
410 10.5
411 3.2

$$$$

     RDKit          2D

 20 21  0  0  0  0  0  0  0  0999 V2000
    7.7953   -0.0010    0.0000 C   0  0  0  0  0  0  0  0  0  0  0  0
    1.6346   -2.6491    0.0000 C   0  0  0  0  0  0  0  0  0  0  0  0
    9.3895    4.1981    0.0000 C   0  0  0  0  0  0  0  0  0  0  0  0
   -1.3000    0.7500    0.0000 C   0  0  0  0  0  0  0  0  0  0  0  0
    9.9023    2.7876    0.0000 C   0  0  0  0  0  0  0  0  0  0  0  0
    7.9122    4.4586    0.0000 C   0  0  0  0  0  0  0  0  0  0  0  0
    0.0000    1.5000    0.0000 C   0  0  0  0  0  0  0  0  0  0  0  0
   -1.3000   -0.7500    0.0000 C   0  0  0  0  0  0  0  0  0  0  0  0
    8.9380    1.6376    0.0000 C   0  0  0  0  0  0  0  0  0  0  0  0
    6.9479    3.3086    0.0000 C   0  0  0  0  0  0  0  0  0  0  0  0
    1.3000    0.7500    0.0000 C   0  0  0  0  0  0  0  0  0  0  0  0
    0.0000   -1.5000    0.0000 C   0  0  0  0  0  0  0  0  0  0  0  0
    5.1972   -0.0006    0.0000 C   0  0  0  0  0  0  0  0  0  0  0  0
    3.8981   -0.7504    0.0000 C   0  0  0  0  0  0  0  0  0  0  0  0
    7.4608    1.8981    0.0000 C   0  0  0  0  0  0  0  0  0  0  0  0
    1.3000   -0.7500    0.0000 C   0  0  0  0  0  0  0  0  0  0  0  0
    5.5324    1.8984    0.0000 Cl  0  0  0  0  0  0  0  0  0  0  0  0
    3.5629   -2.6494    0.0000 Cl  0  0  0  0  0  0  0  0  0  0  0  0
    6.4964    0.7492    0.0000 Si  0  0  0  0  0  4  0  0  0  0  0  0
    2.5989   -1.5002    0.0000 Si  0  0  0  0  0  4  0  0  0  0  0  0
  5  3  2  0
  6  3  1  0
  7  4  2  0
  8  4  1  0
  9  5  1  0
 10  6  2  0
 11  7  1  0
 12  8  2  0
 14 13  3  0
 15  9  2  0
 15 10  1  0
 16 11  2  0
 16 12  1  0
 19  1  1  0
 19 13  1  0
 19 15  1  0
 19 17  1  0
 20  2  1  0
 20 14  1  0
 20 16  1  0
 20 18  1  0
M  END
>  <NAME>  (339) 
BIS(CHLOROMETHYLPHENYLSILYL)ACETYLENE

>  <SYNONYMS>  (339) 


>  <SPECTRUM TYPE>  (339) 
MS1

>  <INSTRUMENT TYPE>  (339) 
EI-B

>  <INSTRUMENT>  (339) 
SHIMADZU QP-1000

>  <ION MODE>  (339) 
P

>  <INCHIKEY>  (339) 
ZTFMCSPBSBCTFO-UHFFFAOYSA-N

>  <FORMULA>  (339) 
C16H16Cl2Si2

>  <EXACT MASS>  (339) 
334.016758932

>  <MW>  (339) 
334

>  <ID>  (339) 
JP011701

>  <CONTRIBUTOR>  (339) 
University of Tokyo Team, {Faculty of Engineering, University of Tokyo

>  <COMMENT>  (339) 
SMILES=c(c2)ccc(c2)[Si](C)(Cl)C#C[Si](C)(Cl)c(c1)cccc1
InChI=InChI=1S/C16H16Cl2Si2/c1-19(17,15-9-5-3-6-10-15)13-14-20(2,18)16-11-7-4-8-12-16/h3-12H,1-2H3
computed SMILES=Cl[Si](C#C[Si](Cl)(C=1C=CC=CC1)C)(C=2C=CC=CC2)C
license=CC BY-NC-SA
exact mass=334.01676
accession=JP011701
date=2016.01.19 (Created 2008.10.21, modified 2011.05.06)
author=FAC. TECHNOLOGY, HIROSHIMA UNIV.
ionization energy=70 eV
ion type=[M]+*
computed spectral entropy=3.5524401547821265
computed normalized entropy=0.8228025327144309
SPLASH=splash10-0hb9-9531000000-8f38973d2c35666b140f
submitter=submitter = University of Tokyo Team (Faculty of Engineering, University of Tokyo)
MoNA Rating=3.75

>  <NUM PEAKS>  (339) 
75

>  <MASS SPECTRAL PEAKS>  (339) 
51 10.6
52 34
53 39.4
54 24.5
55 1.1
56 2.1
63 79.8
65 39.4
66 6.4
67 8.5
74 1.1
75 2.1
76 2.1
77 27.7
78 11.7
79 8.5
80 3.2
89 5.3
91 44.7
92 4.3
93 6.4
101 1.1
102 2.1
103 13.8
104 3.2
105 31.9
106 3.2
107 1.1
113 3.2
115 10.6
116 2.1
117 6.4
119 8.5
120 3.2
129 42.3
130 5.3
131 5.3
135 2.1
139 2.1
140 1.1
141 2.1
142 3.2
143 11.7
144 3.2
145 1.1
152 3.2
153 3.2
155 14.9
156 1.1
157 4.3
159 6.4
165 3.2
167 1.1
175 1.1
177 1.1
178 3.2
179 11.7
180 2.1
181 6.4
195 2.1
205 3.2
217 2.1
219 2.1
221 99.99
222 21.3
223 5.3
241 5.3
243 2.1
319 16
320 4.3
321 11.7
322 2.1
323 2.1
334 4.3
336 3.2

$$$$

     RDKit          2D

 10  9  0  0  0  0  0  0  0  0999 V2000
    1.9486    2.6250    0.0000 C   0  0  0  0  0  0  0  0  0  0  0  0
   -4.5466    3.3750    0.0000 C   0  0  0  0  0  0  0  0  0  0  0  0
   -1.6137    1.4759    0.0000 C   0  0  0  0  0  0  0  0  0  0  0  0
   -0.9844    4.5241    0.0000 C   0  0  0  0  0  0  0  0  0  0  0  0
    0.6495    3.3750    0.0000 C   0  0  0  0  0  0  0  0  0  0  0  0
   -3.2476    2.6250    0.0000 C   0  0  0  0  0  0  0  0  0  0  0  0
    0.3147    1.4759    0.0000 Cl  0  0  0  0  0  0  0  0  0  0  0  0
   -2.9127    4.5241    0.0000 Cl  0  0  0  0  0  0  0  0  0  0  0  0
   -0.6495    2.6250    0.0000 Si  0  0  0  0  0  4  0  0  0  0  0  0
   -1.9486    3.3750    0.0000 Si  0  0  0  0  0  4  0  0  0  0  0  0
  5  1  1  0
  6  2  1  0
  9  3  1  0
  9  5  1  0
  9  7  1  0
 10  4  1  0
 10  6  1  0
 10  8  1  0
 10  9  1  0
M  END
>  <NAME>  (340) 
1,2-DICHLORO-1,2-DIETHYL-1,2-DIMETHYLDISILANE

>  <SYNONYMS>  (340) 


>  <SPECTRUM TYPE>  (340) 
MS1

>  <INSTRUMENT TYPE>  (340) 
EI-B

>  <INSTRUMENT>  (340) 
SHIMADZU QP-1000

>  <ION MODE>  (340) 
P

>  <INCHIKEY>  (340) 
SHNKFHWZADNPMU-UHFFFAOYSA-N

>  <FORMULA>  (340) 
C6H16Cl2Si2

>  <EXACT MASS>  (340) 
214.016758932

>  <MW>  (340) 
214

>  <ID>  (340) 
JP011700

>  <CONTRIBUTOR>  (340) 
University of Tokyo Team, {Faculty of Engineering, University of Tokyo

>  <COMMENT>  (340) 
SMILES=CC[Si](C)(Cl)[Si](C)(Cl)CC
InChI=InChI=1S/C6H16Cl2Si2/c1-5-9(3,7)10(4,8)6-2/h5-6H2,1-4H3
computed SMILES=Cl[Si](C)(CC)[Si](Cl)(C)CC
accession=JP011700
date=2016.01.19 (Created 2008.10.21, modified 2011.05.06)
author=FAC. TECHNOLOGY, HIROSHIMA UNIV.
license=CC BY-NC-SA
exact mass=214.01676
ionization energy=70 eV
ion type=[M]+*
computed spectral entropy=2.6819643366993353
computed normalized entropy=0.7670409085500405
SPLASH=splash10-00di-9200000000-fcf4f5923d6800e759e2
submitter=submitter = University of Tokyo Team (Faculty of Engineering, University of Tokyo)
MoNA Rating=3.75

>  <NUM PEAKS>  (340) 
33

>  <MASS SPECTRAL PEAKS>  (340) 
56 3.2
58 4.2
59 3.2
60 27.4
61 1.1
62 3.2
63 12.6
65 5.3
70 4.2
71 4.2
72 99.99
73 16.8
74 3.2
78 4.2
79 44.2
80 3.2
81 15.8
87 18.9
88 1.1
89 2.1
93 3.2
101 2.1
106 8.4
107 30.5
108 5.3
109 9.5
151 2.1
157 1.1
179 5.3
181 3.2
185 1.1
214 1.8
216 1.2

$$$$

     RDKit          2D

 24 24  0  0  0  0  0  0  0  0999 V2000
   -8.8462    8.4916    0.0000 C   0  0  0  0  0  0  0  0  0  0  0  0
  -11.1334    7.4251    0.0000 C   0  0  0  0  0  0  0  0  0  0  0  0
   -6.2995    8.6091    0.0000 C   0  0  0  0  0  0  0  0  0  0  0  0
   -7.3238    8.9434    0.0000 C   0  0  0  0  0  0  0  0  0  0  0  0
  -11.7616    1.6815    0.0000 C   0  0  0  0  0  0  0  0  0  0  0  0
  -10.7287    1.3459    0.0000 C   0  0  0  0  0  0  0  0  0  0  0  0
   -6.4465    4.6745    0.0000 C   0  0  0  0  0  0  0  0  0  0  0  0
   -6.9298    2.8705    0.0000 C   0  0  0  0  0  0  0  0  0  0  0  0
   -8.1900    7.1427    0.0000 C   0  0  0  0  0  0  0  0  0  0  0  0
   -9.6414    7.2697    0.0000 C   0  0  0  0  0  0  0  0  0  0  0  0
   -6.3005    7.1091    0.0000 C   0  0  0  0  0  0  0  0  0  0  0  0
   -8.2076    7.7314    0.0000 C   0  0  0  0  0  0  0  0  0  0  0  0
  -11.7599    3.1815    0.0000 C   0  0  0  0  0  0  0  0  0  0  0  0
   -9.8484    2.5604    0.0000 C   0  0  0  0  0  0  0  0  0  0  0  0
   -7.8175    5.2830    0.0000 C   0  0  0  0  0  0  0  0  0  0  0  0
   -8.4214    3.0290    0.0000 C   0  0  0  0  0  0  0  0  0  0  0  0
  -10.4600    6.3600    0.0000 C   0  0  0  0  0  0  0  0  0  0  0  0
  -11.3400    5.1500    0.0000 C   0  0  0  0  0  0  0  0  0  0  0  0
   -6.7200    5.1500    0.0000 C   0  0  0  0  0  0  0  0  0  0  0  0
   -7.6000    3.9300    0.0000 C   0  0  0  0  0  0  0  0  0  0  0  0
   -9.0300    5.9000    0.0000 Si  0  0  0  0  0  4  0  0  0  0  0  0
   -7.6000    6.3600    0.0000 Si  0  0  0  0  0  4  0  0  0  0  0  0
  -10.4600    3.9300    0.0000 Si  0  0  0  0  0  4  0  0  0  0  0  0
   -9.0300    4.4000    0.0000 Si  0  0  0  0  0  4  0  0  0  0  0  0
  9  1  1  0
 10  2  1  0
 11  3  1  0
 12  4  1  0
 13  5  1  0
 14  6  1  0
 15  7  1  0
 16  8  1  0
 18 17  3  0
 20 19  3  0
 21  9  1  0
 21 10  1  0
 21 17  1  0
 22 11  1  0
 22 12  1  0
 22 19  1  0
 22 21  1  0
 23 13  1  0
 23 14  1  0
 23 18  1  0
 24 15  1  0
 24 16  1  0
 24 20  1  0
 24 23  1  0
M  END
>  <NAME>  (341) 
1,1,2,2,5,5,6,6-OCTETHYL-1,2,5,6-TETRASILACYCLOOCTA-3,7-DIYNE

>  <SYNONYMS>  (341) 


>  <SPECTRUM TYPE>  (341) 
MS1

>  <INSTRUMENT TYPE>  (341) 
EI-B

>  <INSTRUMENT>  (341) 
SHIMADZU QP-1000

>  <ION MODE>  (341) 
P

>  <INCHIKEY>  (341) 
LQYQMXQJUXKONI-UHFFFAOYSA-N

>  <FORMULA>  (341) 
C20H40Si4

>  <EXACT MASS>  (341) 
392.2207074

>  <MW>  (341) 
392

>  <ID>  (341) 
JP011699

>  <CONTRIBUTOR>  (341) 
University of Tokyo Team, {Faculty of Engineering, University of Tokyo

>  <COMMENT>  (341) 
SMILES=CC[Si](CC)(C#1)[Si](CC)(CC)C#C[Si](CC)(CC)[Si](CC)(CC)C1
InChI=InChI=1S/C20H40Si4/c1-9-21(10-2)17-18-23(13-5,14-6)24(15-7,16-8)20-19-22(21,11-3)12-4/h9-16H2,1-8H3
computed SMILES=C1#C[Si](CC)(CC)[Si](C#C[Si](CC)(CC)[Si]1(CC)CC)(CC)CC
accession=JP011699
date=2016.01.19 (Created 2008.10.21, modified 2011.05.06)
author=FAC. TECHNOLOGY, HIROSHIMA UNIV.
license=CC BY-NC-SA
exact mass=392.22071
ionization energy=70 eV
ion type=[M]+*
computed spectral entropy=4.232085110723489
computed normalized entropy=0.8614659912324382
SPLASH=splash10-0btl-7946000000-ace919ae6bbd0f035d0a
submitter=submitter = University of Tokyo Team (Faculty of Engineering, University of Tokyo)
MoNA Rating=3.75

>  <NUM PEAKS>  (341) 
136

>  <MASS SPECTRAL PEAKS>  (341) 
43 13.8
45 11.7
53 5.3
55 23.4
57 36.2
59 99.99
60 7.4
67 7.4
68 1.1
69 18.1
71 8.5
73 8.5
79 2.1
80 1.1
81 38.3
83 71.3
85 36.2
87 66
89 3.2
90 2.1
91 1.1
93 18.1
95 13.8
97 28.3
98 26.6
100 2.1
101 3.1
103 1.1
104 3.1
105 5.3
107 5.3
109 34
111 76.6
112 55.3
115 13.8
117 1.1
118 2.1
119 3.2
121 3.2
123 2.1
125 24.5
126 34
129 2.1
133 2.1
135 11.7
137 24.5
139 29.8
140 28.3
142 4.3
143 3.2
147 2.1
149 3.2
151 4.3
153 8.5
154 13.8
156 1.1
157 2.1
161 5.3
162 1.1
163 8.5
164 3.2
165 18.1
166 3.2
167 22.3
168 11.7
169 12.8
170 2.1
171 2.1
175 1.1
177 2.1
179 4.3
181 4.3
182 1.1
183 4.3
185 1.1
189 3.2
191 8.5
192 3.2
193 18.1
194 6.4
195 56.4
196 17
197 17
198 3.2
199 1.1
205 1.1
207 3.2
209 3.2
210 1.1
211 2.1
217 1.1
219 5.3
220 2.1
221 18.1
222 5.3
223 48.9
224 13.8
225 11.7
226 2.1
237 2.1
247 3.2
248 1.1
249 8.5
250 2.1
251 37.2
252 12.8
253 8.5
254 1.1
265 1.1
275 2.1
277 6.4
278 2.1
279 54.3
280 20.2
281 10.6
282 3.2
305 3.2
306 1.1
307 74.5
308 30.9
309 17
310 3.2
333 1.1
334 1.1
335 71.3
336 29.8
337 17
338 3.2
363 36.2
364 14.9
365 17
366 2.1
392 96.8
393 40.4
394 20.2
396 1.1

$$$$

     RDKit          2D

 11 11  0  0  0  0  0  0  0  0999 V2000
   -1.3000    0.3512    0.0000 C   0  0  0  0  0  0  0  0  0  0  0  0
    2.2624    1.4997    0.0000 C   0  0  0  0  0  0  0  0  0  0  0  0
   -0.0011   -0.3990    0.0000 C   0  0  0  0  0  0  0  0  0  0  0  0
    5.1970   -1.8994    0.0000 C   0  0  0  0  0  0  0  0  0  0  0  0
    3.8970   -2.6494    0.0000 C   0  0  0  0  0  0  0  0  0  0  0  0
    5.1970   -0.3994    0.0000 C   0  0  0  0  0  0  0  0  0  0  0  0
    2.5970   -1.8994    0.0000 C   0  0  0  0  0  0  0  0  0  0  0  0
    3.8970    0.3506    0.0000 C   0  0  0  0  0  0  0  0  0  0  0  0
    2.5970   -0.3994    0.0000 C   0  0  0  0  0  0  0  0  0  0  0  0
    0.3341    1.5000    0.0000 Cl  0  0  0  0  0  0  0  0  0  0  0  0
    1.2981    0.3508    0.0000 Si  0  0  0  0  0  4  0  0  0  0  0  0
  3  1  2  0
  5  4  2  0
  6  4  1  0
  7  5  1  0
  8  6  2  0
  9  7  2  0
  9  8  1  0
 11  2  1  0
 11  3  1  0
 11  9  1  0
 11 10  1  0
M  END
>  <NAME>  (342) 
CHLOROMETHYLPHENYLVINYLSILANE

>  <SYNONYMS>  (342) 


>  <SPECTRUM TYPE>  (342) 
MS1

>  <INSTRUMENT TYPE>  (342) 
EI-B

>  <INSTRUMENT>  (342) 
SHIMADZU QP-1000

>  <ION MODE>  (342) 
P

>  <INCHIKEY>  (342) 
GSXJAPJSIVGONK-UHFFFAOYSA-N

>  <FORMULA>  (342) 
C9H11ClSi

>  <EXACT MASS>  (342) 
182.03185456199998

>  <MW>  (342) 
182

>  <ID>  (342) 
JP011698

>  <CONTRIBUTOR>  (342) 
University of Tokyo Team, {Faculty of Engineering, University of Tokyo

>  <COMMENT>  (342) 
SMILES=C=C[Si](C)(Cl)c(c1)cccc1
InChI=InChI=1S/C9H11ClSi/c1-3-11(2,10)9-7-5-4-6-8-9/h3-8H,1H2,2H3
computed SMILES=Cl[Si](C=C)(C=1C=CC=CC1)C
license=CC BY-NC-SA
accession=JP011698
date=2016.01.19 (Created 2008.10.21, modified 2011.05.06)
author=FAC. TECHNOLOGY, HIROSHIMA UNIV.
exact mass=182.03185
ionization energy=70 eV
ion type=[M]+*
computed spectral entropy=3.1057462955264454
computed normalized entropy=0.8158712005260638
SPLASH=splash10-014i-3900000000-71ade3fb6364bce1abe4
submitter=submitter = University of Tokyo Team (Faculty of Engineering, University of Tokyo)
MoNA Rating=3.75

>  <NUM PEAKS>  (342) 
45

>  <MASS SPECTRAL PEAKS>  (342) 
50 6.3
51 12.6
53 1.1
63 62.1
65 27.4
66 2.1
67 2.1
77 7.4
78 8.4
79 12.6
80 2.1
81 3.2
89 2.1
91 2.1
92 1.1
93 2.1
103 7.4
104 16.8
105 14.7
106 1.1
107 1.1
115 1.1
119 3.2
121 2.1
129 1.1
131 8.4
140 4.2
141 45.3
142 10.5
143 15.8
144 1.1
145 5.3
146 34.7
147 11.6
148 2.1
155 28.4
156 3.2
157 9.5
167 99.99
168 15.8
169 35.8
170 3.2
182 16.2
183 2.7
184 5.7

$$$$

     RDKit          2D

 24 26  0  0  0  0  0  0  0  0999 V2000
    7.1112    0.7671    0.0000 C   0  0  0  0  0  0  0  0  0  0  0  0
    3.4627   -2.4183    0.0000 C   0  0  0  0  0  0  0  0  0  0  0  0
    4.9627   -0.9183    0.0000 C   0  0  0  0  0  0  0  0  0  0  0  0
    3.4627    0.5817    0.0000 C   0  0  0  0  0  0  0  0  0  0  0  0
    1.6521    2.7096    0.0000 C   0  0  0  0  0  0  0  0  0  0  0  0
   -0.3270    3.4734    0.0000 C   0  0  0  0  0  0  0  0  0  0  0  0
   -1.0908    1.4943    0.0000 C   0  0  0  0  0  0  0  0  0  0  0  0
   -2.9473   -1.6683    0.0000 C   0  0  0  0  0  0  0  0  0  0  0  0
   -2.9473   -0.1683    0.0000 C   0  0  0  0  0  0  0  0  0  0  0  0
    4.5140    3.7703    0.0000 C   0  0  0  0  0  0  0  0  0  0  0  0
    5.8130    3.0186    0.0000 C   0  0  0  0  0  0  0  0  0  0  0  0
   -1.6473   -2.4183    0.0000 C   0  0  0  0  0  0  0  0  0  0  0  0
    3.2145    3.0211    0.0000 C   0  0  0  0  0  0  0  0  0  0  0  0
   -1.6473    0.5817    0.0000 C   0  0  0  0  0  0  0  0  0  0  0  0
    4.5130    0.7686    0.0000 C   0  0  0  0  0  0  0  0  0  0  0  0
    1.0827   -2.1283    0.0000 C   0  0  0  0  0  0  0  0  0  0  0  0
    5.8125    1.5177    0.0000 C   0  0  0  0  0  0  0  0  0  0  0  0
   -0.3473   -1.6683    0.0000 C   0  0  0  0  0  0  0  0  0  0  0  0
    3.2140    1.5203    0.0000 C   0  0  0  0  0  0  0  0  0  0  0  0
   -0.3473   -0.1683    0.0000 C   0  0  0  0  0  0  0  0  0  0  0  0
    1.9627   -0.9183    0.0000 C   0  0  0  0  0  0  0  0  0  0  0  0
    3.4627   -0.9183    0.0000 Si  0  0  0  0  0  4  0  0  0  0  0  0
    0.2807    2.1020    0.0000 Si  0  0  0  0  0  4  0  0  0  0  0  0
    1.0827    0.2917    0.0000 Si  0  0  0  0  0  4  0  0  0  0  0  0
  9  8  2  0
 11 10  2  0
 12  8  1  0
 13 10  1  0
 14  9  1  0
 17  1  1  0
 17 11  1  0
 17 15  2  0
 18 12  2  0
 18 16  1  0
 19 13  2  0
 19 15  1  0
 20 14  2  0
 20 18  1  0
 21 16  2  0
 22  2  1  0
 22  3  1  0
 22  4  1  0
 22 21  1  0
 23  5  1  0
 23  6  1  0
 23  7  1  0
 24 19  1  0
 24 20  1  0
 24 21  1  0
 24 23  1  0
M  END
>  <NAME>  (343) 
1-(META-TOLYL)-1,2-BIS(TRIMETHYLSILYL)-1-SILAINDENE

>  <SYNONYMS>  (343) 


>  <SPECTRUM TYPE>  (343) 
MS1

>  <INSTRUMENT TYPE>  (343) 
EI-B

>  <INSTRUMENT>  (343) 
SHIMADZU QP-1000

>  <ION MODE>  (343) 
P

>  <INCHIKEY>  (343) 
CNOMQMUIWZHTOR-UHFFFAOYSA-N

>  <FORMULA>  (343) 
C21H30Si3

>  <EXACT MASS>  (343) 
366.16553054999997

>  <MW>  (343) 
366

>  <ID>  (343) 
JP011697

>  <CONTRIBUTOR>  (343) 
University of Tokyo Team, {Faculty of Engineering, University of Tokyo

>  <COMMENT>  (343) 
SMILES=Cc(c3)cc(cc3)[Si]([Si](C)(C)C)(c21)C([Si](C)(C)C)=C([H])c(cccc2)1
InChI=InChI=1S/C21H30Si3/c1-17-11-10-13-19(15-17)24(23(5,6)7)20-14-9-8-12-18(20)16-21(24)22(2,3)4/h8-16H,1-7H3
computed SMILES=C=1C=CC2=C(C1)C=C([Si]2(C=3C=CC=C(C3)C)[Si](C)(C)C)[Si](C)(C)C
accession=JP011697
date=2016.01.19 (Created 2008.10.21, modified 2011.05.06)
author=FAC. TECHNOLOGY, HIROSHIMA UNIV.
license=CC BY-NC-SA
exact mass=366.16553
ionization energy=70 eV
ion type=[M]+*
computed spectral entropy=3.1647078924402927
computed normalized entropy=0.7729461564228314
SPLASH=splash10-00di-9321000000-14bdb3f9dd4384b48242
submitter=submitter = University of Tokyo Team (Faculty of Engineering, University of Tokyo)
MoNA Rating=3.75

>  <NUM PEAKS>  (343) 
60

>  <MASS SPECTRAL PEAKS>  (343) 
52 4.2
53 6.3
54 4.2
55 3.2
56 2.1
58 15.8
59 11.6
66 1.1
67 1.1
70 1.1
72 73.7
73 99.99
74 9.5
75 2.1
82 1.1
83 2.1
91 2.1
92 3.2
93 3.2
105 4.2
115 1.1
116 1.1
117 1.1
119 5.3
121 4.2
131 3.2
133 3.2
135 3.2
143 4.2
145 11.6
146 2.1
147 2.1
149 18.9
150 2.1
159 5.3
161 1.1
175 2.1
177 3.2
187 1.1
191 3.2
202 6.3
203 1.1
209 2.1
217 17.9
218 4.2
219 2.1
233 2.1
263 3.2
277 3.2
278 1.1
291 3.2
293 24.2
294 6.3
295 2.1
351 18.9
352 18.9
354 2.1
366 2.5
367 2.5
368 1.1

$$$$

     RDKit          2D

  7  7  0  0  0  0  0  0  0  0999 V2000
   -1.3000    0.7500    0.0000 C   0  0  0  0  0  0  0  0  0  0  0  0
    0.0000    1.5000    0.0000 C   0  0  0  0  0  0  0  0  0  0  0  0
   -1.3000   -0.7500    0.0000 C   0  0  0  0  0  0  0  0  0  0  0  0
    1.3000    0.7500    0.0000 C   0  0  0  0  0  0  0  0  0  0  0  0
    0.0000   -1.5000    0.0000 C   0  0  0  0  0  0  0  0  0  0  0  0
    1.3000   -0.7500    0.0000 C   0  0  0  0  0  0  0  0  0  0  0  0
    2.5989   -1.5002    0.0000 Si  0  0  0  0  0  4  0  0  0  0  0  0
  2  1  2  0
  3  1  1  0
  4  2  1  0
  5  3  2  0
  6  4  2  0
  6  5  1  0
  7  6  1  0
M  END
>  <NAME>  (344) 
PHENYLSILANE

>  <SYNONYMS>  (344) 


>  <SPECTRUM TYPE>  (344) 
MS1

>  <INSTRUMENT TYPE>  (344) 
EI-B

>  <INSTRUMENT>  (344) 
SHIMADZU QP-1000

>  <ION MODE>  (344) 
P

>  <INCHIKEY>  (344) 
PARWUHTVGZSQPD-UHFFFAOYSA-N

>  <FORMULA>  (344) 
C6H8Si

>  <EXACT MASS>  (344) 
108.039526786

>  <MW>  (344) 
108

>  <ID>  (344) 
JP011696

>  <CONTRIBUTOR>  (344) 
University of Tokyo Team, {Faculty of Engineering, University of Tokyo

>  <COMMENT>  (344) 
SMILES=[SiH3]c(c1)cccc1
InChI=InChI=1S/C6H8Si/c7-6-4-2-1-3-5-6/h1-5H,7H3
computed SMILES=C=1C=CC(=CC1)[SiH3]
accession=JP011696
date=2016.01.19 (Created 2008.10.21, modified 2011.05.06)
author=FAC. TECHNOLOGY, HIROSHIMA UNIV.
license=CC BY-NC-SA
exact mass=108.03953
ionization energy=70 eV
ion type=[M]+*
computed spectral entropy=2.0412148056246733
computed normalized entropy=0.7204592657686465
SPLASH=splash10-0fb9-9000000000-b352d2aca3d6968ccb79
submitter=submitter = University of Tokyo Team (Faculty of Engineering, University of Tokyo)
MoNA Rating=3.75

>  <NUM PEAKS>  (344) 
17

>  <MASS SPECTRAL PEAKS>  (344) 
51 5.6
52 33.8
53 36.6
54 32.4
55 2.8
63 4.2
64 4.2
74 4.2
75 1.4
76 4.9
77 26.8
78 99.99
79 6.3
105 1.7
106 2.3
107 2.4
108 2.4

$$$$

     RDKit          2D

 12 12  0  0  0  0  0  0  0  0999 V2000
    2.5987   -3.0002    0.0000 C   0  0  0  0  0  0  0  0  0  0  0  0
    4.6479   -2.0496    0.0000 C   0  0  0  0  0  0  0  0  0  0  0  0
    5.1972   -0.0006    0.0000 C   0  0  0  0  0  0  0  0  0  0  0  0
    3.1483    0.5487    0.0000 C   0  0  0  0  0  0  0  0  0  0  0  0
   -1.3000    0.7500    0.0000 C   0  0  0  0  0  0  0  0  0  0  0  0
    0.0000    1.5000    0.0000 C   0  0  0  0  0  0  0  0  0  0  0  0
   -1.3000   -0.7500    0.0000 C   0  0  0  0  0  0  0  0  0  0  0  0
    1.3000    0.7500    0.0000 C   0  0  0  0  0  0  0  0  0  0  0  0
   -0.0000   -1.5000    0.0000 C   0  0  0  0  0  0  0  0  0  0  0  0
    1.3000   -0.7500    0.0000 C   0  0  0  0  0  0  0  0  0  0  0  0
    2.5989   -1.5002    0.0000 Si  0  0  0  0  0  4  0  0  0  0  0  0
    3.8981   -0.7504    0.0000 Si  0  0  0  0  0  4  0  0  0  0  0  0
  6  5  2  0
  7  5  1  0
  8  6  1  0
  9  7  2  0
 10  8  2  0
 10  9  1  0
 11  1  1  0
 11 10  1  0
 12  2  1  0
 12  3  1  0
 12  4  1  0
 12 11  1  0
M  END
>  <NAME>  (345) 
1,2,2,2-TETRAMETHYL-1-PHENYLDISILANE

>  <SYNONYMS>  (345) 


>  <SPECTRUM TYPE>  (345) 
MS1

>  <INSTRUMENT TYPE>  (345) 
EI-B

>  <INSTRUMENT>  (345) 
SHIMADZU QP-1000

>  <ION MODE>  (345) 
P

>  <INCHIKEY>  (345) 
TYOJOOJHYFAQKT-UHFFFAOYSA-N

>  <FORMULA>  (345) 
C10H18Si2

>  <EXACT MASS>  (345) 
194.094703636

>  <MW>  (345) 
194

>  <ID>  (345) 
JP011693

>  <CONTRIBUTOR>  (345) 
University of Tokyo Team, {Faculty of Engineering, University of Tokyo

>  <COMMENT>  (345) 
SMILES=c(c1)ccc(c1)[SiH](C)[Si](C)(C)C
InChI=InChI=1S/C10H18Si2/c1-11(12(2,3)4)10-8-6-5-7-9-10/h5-9,11H,1-4H3
computed SMILES=C=1C=CC(=CC1)[SiH](C)[Si](C)(C)C
accession=JP011693
date=2016.01.19 (Created 2008.10.21, modified 2011.05.06)
author=FAC. TECHNOLOGY, HIROSHIMA UNIV.
license=CC BY-NC-SA
exact mass=194.0947
ionization energy=70 eV
ion type=[M]+*
computed spectral entropy=2.534451768616073
computed normalized entropy=0.701885733746888
SPLASH=splash10-00di-9300000000-9ab4cdfbd8a003b747b0
submitter=submitter = University of Tokyo Team (Faculty of Engineering, University of Tokyo)
MoNA Rating=3.75

>  <NUM PEAKS>  (345) 
37

>  <MASS SPECTRAL PEAKS>  (345) 
51 3.5
52 2.8
53 13.4
55 5.6
57 4.2
59 7
65 1.4
66 2.8
67 2.1
68 2.8
69 2.8
70 1.4
72 99.99
73 98.6
74 9.2
75 2.8
76 1.4
77 2.1
78 3.5
79 3.5
80 1.4
91 1.4
92 1.4
93 1.4
104 12.6
105 15.5
106 3.5
107 2.8
115 2.1
116 2.8
119 3.5
120 9.2
121 9.2
135 26.8
136 2.1
179 2.5
194 2.5

$$$$

     RDKit          2D

 30 32  0  0  0  0  0  0  0  0999 V2000
   -5.3381    2.6712    0.0000 C   0  0  0  0  0  0  0  0  0  0  0  0
    0.5723    3.7139    0.0000 C   0  0  0  0  0  0  0  0  0  0  0  0
    3.0702   -3.2088    0.0000 C   0  0  0  0  0  0  0  0  0  0  0  0
    0.4721   -4.7088    0.0000 C   0  0  0  0  0  0  0  0  0  0  0  0
   -1.8876   -0.5195    0.0000 C   0  0  0  0  0  0  0  0  0  0  0  0
   -2.2969    3.0873    0.0000 C   0  0  0  0  0  0  0  0  0  0  0  0
    0.6220    0.9294    0.0000 C   0  0  0  0  0  0  0  0  0  0  0  0
   -3.0373    0.1745    0.0000 C   0  0  0  0  0  0  0  0  0  0  0  0
   -4.2540   -1.5631    0.0000 C   0  0  0  0  0  0  0  0  0  0  0  0
   -2.5164   -2.7799    0.0000 C   0  0  0  0  0  0  0  0  0  0  0  0
    4.7849    2.2812    0.0000 C   0  0  0  0  0  0  0  0  0  0  0  0
    3.4854    3.0320    0.0000 C   0  0  0  0  0  0  0  0  0  0  0  0
    4.7854    0.7803    0.0000 C   0  0  0  0  0  0  0  0  0  0  0  0
    2.1864    2.2820    0.0000 C   0  0  0  0  0  0  0  0  0  0  0  0
    3.4864    0.0303    0.0000 C   0  0  0  0  0  0  0  0  0  0  0  0
   -3.3482    4.3418    0.0000 C   0  0  0  0  0  0  0  0  0  0  0  0
   -1.8701    4.6022    0.0000 C   0  0  0  0  0  0  0  0  0  0  0  0
   -2.8957    1.7830    0.0000 C   0  0  0  0  0  0  0  0  0  0  0  0
    1.7712   -0.9588    0.0000 C   0  0  0  0  0  0  0  0  0  0  0  0
   -0.8269   -2.4588    0.0000 C   0  0  0  0  0  0  0  0  0  0  0  0
   -3.8610    2.9322    0.0000 C   0  0  0  0  0  0  0  0  0  0  0  0
   -0.9049    3.4530    0.0000 C   0  0  0  0  0  0  0  0  0  0  0  0
    1.7712   -2.4588    0.0000 C   0  0  0  0  0  0  0  0  0  0  0  0
    0.4721   -3.2088    0.0000 C   0  0  0  0  0  0  0  0  0  0  0  0
    2.1869    0.7812    0.0000 C   0  0  0  0  0  0  0  0  0  0  0  0
   -1.4177    2.0433    0.0000 C   0  0  0  0  0  0  0  0  0  0  0  0
    0.4721   -0.2088    0.0000 C   0  0  0  0  0  0  0  0  0  0  0  0
   -0.8269    0.5412    0.0000 Si  0  0  0  0  0  4  0  0  0  0  0  0
   -2.7768   -1.3027    0.0000 Si  0  0  0  0  0  4  0  0  0  0  0  0
   -0.8269   -0.9588    0.0000 Si  0  0  0  0  0  4  0  0  0  0  0  0
 12 11  2  0
 13 11  1  0
 14 12  1  0
 15 13  2  0
 17 16  2  0
 21  1  1  0
 21 16  1  0
 21 18  2  0
 22  2  1  0
 22 17  1  0
 23  3  1  0
 23 19  1  0
 24  4  1  0
 24 20  1  0
 24 23  2  0
 25 14  2  0
 25 15  1  0
 26 18  1  0
 26 22  2  0
 27 19  1  0
 27 25  1  0
 27 26  1  0
 28  5  1  0
 28  6  1  0
 28  7  1  0
 29  8  1  0
 29  9  1  0
 29 10  1  0
 30 20  1  0
 30 27  1  0
 30 28  1  0
 30 29  1  0
M  END
>  <NAME>  (346) 
3,4-DIMETHYL-6-(2,5-DIMETHYLPHENYL)-6-PHENYL-1,1-BIS(TRIMETHYLSILYL)-1-SILACYCLOHEX-3-ENE

>  <SYNONYMS>  (346) 


>  <SPECTRUM TYPE>  (346) 
MS1

>  <INSTRUMENT TYPE>  (346) 
EI-B

>  <INSTRUMENT>  (346) 
SHIMADZU QP-1000

>  <ION MODE>  (346) 
P

>  <INCHIKEY>  (346) 
FWLIDNPVHLYBNP-UHFFFAOYSA-N

>  <FORMULA>  (346) 
C27H42Si3

>  <EXACT MASS>  (346) 
450.25943093399997

>  <MW>  (346) 
450

>  <ID>  (346) 
JP011692

>  <CONTRIBUTOR>  (346) 
University of Tokyo Team, {Faculty of Engineering, University of Tokyo

>  <COMMENT>  (346) 
SMILES=c(c1C)cc(cc1C([Si]3([Si](C)(C)C)[Si](C)(C)C)(CC(=C(C3)C)C)c(c2)cccc2)C
InChI=InChI=1S/C27H42Si3/c1-21-16-17-22(2)26(18-21)27(25-14-12-11-13-15-25)19-23(3)24(4)20-30(27,28(5,6)7)29(8,9)10/h11-18H,19-20H2,1-10H3
computed SMILES=C=1C=CC(=CC1)C2(C3=CC(=CC=C3C)C)CC(=C(C)C[Si]2([Si](C)(C)C)[Si](C)(C)C)C
accession=JP011692
date=2016.01.19 (Created 2008.10.21, modified 2011.05.06)
author=FAC. TECHNOLOGY, HIROSHIMA UNIV.
license=CC BY-NC-SA
exact mass=450.25943
ion type=[M]+*
ionization energy=70 eV
computed spectral entropy=3.3334661378903765
computed normalized entropy=0.7769485258199145
SPLASH=splash10-00di-9302100000-bcef7cc7e323fa35d041
submitter=submitter = University of Tokyo Team (Faculty of Engineering, University of Tokyo)
MoNA Rating=3.75

>  <NUM PEAKS>  (346) 
73

>  <MASS SPECTRAL PEAKS>  (346) 
53 2.1
55 3.2
57 1.1
58 1.1
59 35.1
60 2.1
67 3.2
69 3.2
71 1.1
73 99.99
74 7.4
75 3.2
81 1.1
83 3.2
85 3.2
91 2.1
95 1.1
97 2.1
99 3.2
101 2.1
105 4.3
109 2.1
111 1.1
115 3.2
119 2.1
121 2
123 1.5
125 3.2
127 1.1
129 3.2
131 4.3
133 2.1
135 12.8
136 1.1
141 1.1
145 2.1
149 3.2
155 1.1
159 3.2
163 6.4
169 2.1
173 1.1
175 1.1
179 1.1
181 5.3
191 1.1
213 2.1
225 2.1
227 3.2
236 2.1
241 2.1
255 1.1
303 1.5
306 1.9
307 4.5
308 1.5
321 1.3
334 1.5
335 4.9
336 1.3
369 3
376 5.5
377 13
378 4.5
379 1.5
408 1.5
409 1.5
435 1.3
436 1.1
450 11.9
451 12.8
452 6.2
453 3

$$$$

     RDKit          2D

 12 11  0  0  0  0  0  0  0  0999 V2000
    1.9486    2.6250    0.0000 C   0  0  0  0  0  0  0  0  0  0  0  0
   -1.1007    0.0664    0.0000 C   0  0  0  0  0  0  0  0  0  0  0  0
   -4.5466    3.3750    0.0000 C   0  0  0  0  0  0  0  0  0  0  0  0
   -1.4974    5.9336    0.0000 C   0  0  0  0  0  0  0  0  0  0  0  0
    0.6495    3.3750    0.0000 C   0  0  0  0  0  0  0  0  0  0  0  0
   -1.6137    1.4759    0.0000 C   0  0  0  0  0  0  0  0  0  0  0  0
   -3.2476    2.6250    0.0000 C   0  0  0  0  0  0  0  0  0  0  0  0
   -0.9844    4.5241    0.0000 C   0  0  0  0  0  0  0  0  0  0  0  0
    0.3147    1.4759    0.0000 Cl  0  0  0  0  0  0  0  0  0  0  0  0
   -2.9127    4.5241    0.0000 Cl  0  0  0  0  0  0  0  0  0  0  0  0
   -0.6495    2.6250    0.0000 Si  0  0  0  0  0  4  0  0  0  0  0  0
   -1.9486    3.3750    0.0000 Si  0  0  0  0  0  4  0  0  0  0  0  0
  5  1  1  0
  6  2  1  0
  7  3  1  0
  8  4  1  0
 11  5  1  0
 11  6  1  0
 11  9  1  0
 12  7  1  0
 12  8  1  0
 12 10  1  0
 12 11  1  0
M  END
>  <NAME>  (347) 
1,2-DICHLOROTETRAETHYLDISILANE

>  <SYNONYMS>  (347) 


>  <SPECTRUM TYPE>  (347) 
MS1

>  <INSTRUMENT TYPE>  (347) 
EI-B

>  <INSTRUMENT>  (347) 
SHIMADZU QP-1000

>  <ION MODE>  (347) 
P

>  <INCHIKEY>  (347) 
RGDZHSGMSWHBAK-UHFFFAOYSA-N

>  <FORMULA>  (347) 
C8H20Cl2Si2

>  <EXACT MASS>  (347) 
242.04805905999999

>  <MW>  (347) 
242

>  <ID>  (347) 
JP011691

>  <CONTRIBUTOR>  (347) 
University of Tokyo Team, {Faculty of Engineering, University of Tokyo

>  <COMMENT>  (347) 
SMILES=CC[Si](Cl)(CC)[Si](Cl)(CC)CC
InChI=InChI=1S/C8H20Cl2Si2/c1-5-11(9,6-2)12(10,7-3)8-4/h5-8H2,1-4H3
computed SMILES=Cl[Si](CC)(CC)[Si](Cl)(CC)CC
accession=JP011691
date=2016.01.19 (Created 2008.10.21, modified 2011.05.06)
author=FAC. TECHNOLOGY, HIROSHIMA UNIV.
license=CC BY-NC-SA
exact mass=242.04806
ionization energy=70 eV
ion type=[M]+*
computed spectral entropy=2.855188754425339
computed normalized entropy=0.7967555923272006
SPLASH=splash10-052r-9100000000-61d569079f463cd22494
submitter=submitter = University of Tokyo Team (Faculty of Engineering, University of Tokyo)
MoNA Rating=3.75

>  <NUM PEAKS>  (347) 
36

>  <MASS SPECTRAL PEAKS>  (347) 
54 2.1
56 9.5
57 5.3
58 26.3
59 99.99
60 27.4
61 4.2
63 24.2
64 3.2
65 35.8
66 2.1
67 9.5
75 1.1
79 2.1
86 93.7
87 34.7
88 5.3
91 4.2
92 7.4
93 49.5
94 5.3
95 16.8
115 9.5
120 14.7
121 32.6
122 8.4
123 11.6
157 3.2
159 2.1
185 3.2
187 2.1
207 1.7
213 2.9
215 2.1
242 1.6
244 1.1

$$$$

     RDKit          2D

 28 30  0  0  0  0  0  0  0  0999 V2000
    3.5371   -0.6115    0.0000 C   0  0  0  0  0  0  0  0  0  0  0  0
   -1.6597   -0.6109    0.0000 C   0  0  0  0  0  0  0  0  0  0  0  0
    0.9392   -5.1124    0.0000 C   0  0  0  0  0  0  0  0  0  0  0  0
   -0.3600   -6.3415    0.0000 C   0  0  0  0  0  0  0  0  0  0  0  0
   -2.1721   -7.0011    0.0000 C   0  0  0  0  0  0  0  0  0  0  0  0
   -4.3677   -3.3746    0.0000 C   0  0  0  0  0  0  0  0  0  0  0  0
   -1.9939   -1.7125    0.0000 C   0  0  0  0  0  0  0  0  0  0  0  0
   -6.0921   -4.8084    0.0000 C   0  0  0  0  0  0  0  0  0  0  0  0
   -5.8528    0.5860    0.0000 C   0  0  0  0  0  0  0  0  0  0  0  0
   -5.5786   -6.2187    0.0000 C   0  0  0  0  0  0  0  0  0  0  0  0
   -5.1277   -3.6595    0.0000 C   0  0  0  0  0  0  0  0  0  0  0  0
   -4.3748    0.8464    0.0000 C   0  0  0  0  0  0  0  0  0  0  0  0
   -6.3656   -0.8236    0.0000 C   0  0  0  0  0  0  0  0  0  0  0  0
   -4.1007   -6.4800    0.0000 C   0  0  0  0  0  0  0  0  0  0  0  0
   -3.6498   -3.9208    0.0000 C   0  0  0  0  0  0  0  0  0  0  0  0
   -3.4095   -0.3029    0.0000 C   0  0  0  0  0  0  0  0  0  0  0  0
   -5.4004   -1.9729    0.0000 C   0  0  0  0  0  0  0  0  0  0  0  0
    0.9385   -0.6107    0.0000 C   0  0  0  0  0  0  0  0  0  0  0  0
    2.2385   -2.8624    0.0000 C   0  0  0  0  0  0  0  0  0  0  0  0
    2.2380   -1.3615    0.0000 C   0  0  0  0  0  0  0  0  0  0  0  0
   -0.3605   -1.3607    0.0000 C   0  0  0  0  0  0  0  0  0  0  0  0
    0.9395   -3.6124    0.0000 C   0  0  0  0  0  0  0  0  0  0  0  0
   -3.1363   -5.3311    0.0000 C   0  0  0  0  0  0  0  0  0  0  0  0
   -3.9223   -1.7125    0.0000 C   0  0  0  0  0  0  0  0  0  0  0  0
   -0.3600   -2.8615    0.0000 C   0  0  0  0  0  0  0  0  0  0  0  0
   -1.6591   -3.6115    0.0000 Si  0  0  0  0  0  4  0  0  0  0  0  0
   -1.6591   -5.5915    0.0000 Si  0  0  0  0  0  4  0  0  0  0  0  0
   -2.9581   -2.8615    0.0000 Si  0  0  0  0  0  4  0  0  0  0  0  0
 10  8  2  0
 11  8  1  0
 12  9  2  0
 13  9  1  0
 14 10  1  0
 15 11  2  0
 16 12  1  0
 17 13  2  0
 20  1  1  0
 20 18  2  0
 20 19  1  0
 21  2  1  0
 21 18  1  0
 22  3  1  0
 22 19  2  0
 23 14  2  0
 23 15  1  0
 24 16  2  0
 24 17  1  0
 25 21  2  0
 25 22  1  0
 26 25  1  0
 27  4  1  0
 27  5  1  0
 27 23  1  0
 27 26  1  0
 28  6  1  0
 28  7  1  0
 28 24  1  0
 28 26  1  0
M  END
>  <NAME>  (348) 
1,1,3,3-TETRAMETHYL-2-MESITYL-1,3-DIPHENYLTRISILANE

>  <SYNONYMS>  (348) 


>  <SPECTRUM TYPE>  (348) 
MS1

>  <INSTRUMENT TYPE>  (348) 
EI-B

>  <INSTRUMENT>  (348) 
SHIMADZU QP-1000

>  <ION MODE>  (348) 
P

>  <INCHIKEY>  (348) 
HTWVIZKVBCZIGX-UHFFFAOYSA-N

>  <FORMULA>  (348) 
C25H34Si3

>  <EXACT MASS>  (348) 
418.19683067799997

>  <MW>  (348) 
418

>  <ID>  (348) 
JP011690

>  <CONTRIBUTOR>  (348) 
University of Tokyo Team, {Faculty of Engineering, University of Tokyo

>  <COMMENT>  (348) 
SMILES=[SiH](c(c(C)3)c(C)cc(C)c3)([Si](C)(C)c(c2)cccc2)[Si](C)(C)c(c1)cccc1
InChI=InChI=1S/C25H34Si3/c1-20-18-21(2)25(22(3)19-20)26(27(4,5)23-14-10-8-11-15-23)28(6,7)24-16-12-9-13-17-24/h8-19,26H,1-7H3
computed SMILES=C=1C=CC(=CC1)[Si](C)(C)[SiH](C=2C(=CC(=CC2C)C)C)[Si](C=3C=CC=CC3)(C)C
accession=JP011690
date=2016.01.19 (Created 2008.10.21, modified 2011.05.06)
author=FAC. TECHNOLOGY, HIROSHIMA UNIV.
license=CC BY-NC-SA
exact mass=418.19683
ionization energy=70 eV
ion type=[M]+*
computed spectral entropy=3.901416957405111
computed normalized entropy=0.8567242923499165
SPLASH=splash10-0a4r-7910000000-2a47cf897bfc30c304f2
submitter=submitter = University of Tokyo Team (Faculty of Engineering, University of Tokyo)
MoNA Rating=3.75

>  <NUM PEAKS>  (348) 
95

>  <MASS SPECTRAL PEAKS>  (348) 
51 8.4
52 5.3
53 25.3
54 3.2
55 26.3
56 2.1
57 21.1
58 21.1
59 35.8
60 3.2
63 7.4
65 7.4
66 2.1
67 18.9
68 1.1
69 9.5
71 2.1
73 21.1
74 2.1
75 3.2
77 8.4
78 9.5
79 8.4
80 1.1
81 7.4
83 5.3
84 2.1
85 1.1
89 3.2
91 24.2
92 3.2
93 11.6
95 7.4
97 1.1
103 3.2
105 60
106 8.4
107 30.5
108 3.2
109 6.3
115 2.1
117 3.2
118 1.1
119 27.4
120 6.3
121 29.5
122 3.2
123 1.1
131 6.3
132 1.1
133 8.4
135 99.99
136 14.7
137 3.2
143 1.1
145 12.6
146 15.8
147 11.6
148 1.1
149 3.2
159 5.3
160 3.2
161 14.7
162 3.2
163 5.3
165 1.1
173 1.1
176 2.1
177 3.2
178 1.1
179 1.1
189 1.1
195 1.1
204 5.3
205 1.1
206 1.1
209 3.2
222 2.1
223 8.4
224 5.3
237 2.1
267 9.5
268 3.2
282 11.6
283 4.2
301 1.1
317 1.1
359 2.1
395 9.5
396 4.2
397 3.2
403 2.1
418 12.6
419 5.5
420 2.5

$$$$

     RDKit          2D

 20 22  0  0  0  0  0  0  0  0999 V2000
   -3.7499    0.1565    0.0000 C   0  0  0  0  0  0  0  0  0  0  0  0
   -6.1911   -3.6138    0.0000 C   0  0  0  0  0  0  0  0  0  0  0  0
   -6.3960   -2.1270    0.0000 C   0  0  0  0  0  0  0  0  0  0  0  0
   -4.8016   -4.1789    0.0000 C   0  0  0  0  0  0  0  0  0  0  0  0
   -5.2115   -1.2054    0.0000 C   0  0  0  0  0  0  0  0  0  0  0  0
   -3.6171   -3.2573    0.0000 C   0  0  0  0  0  0  0  0  0  0  0  0
    0.7500    1.0300    0.0000 C   0  0  0  0  0  0  0  0  0  0  0  0
   -0.1980   -3.8598    0.0000 C   0  0  0  0  0  0  0  0  0  0  0  0
   -0.7500    1.0300    0.0000 C   0  0  0  0  0  0  0  0  0  0  0  0
   -0.4585   -2.3826    0.0000 C   0  0  0  0  0  0  0  0  0  0  0  0
   -3.8220   -1.7705    0.0000 C   0  0  0  0  0  0  0  0  0  0  0  0
    1.2100   -0.3900    0.0000 C   0  0  0  0  0  0  0  0  0  0  0  0
   -1.5166   -4.5594    0.0000 C   0  0  0  0  0  0  0  0  0  0  0  0
   -1.2100   -0.3900    0.0000 C   0  0  0  0  0  0  0  0  0  0  0  0
   -1.9368   -2.1761    0.0000 C   0  0  0  0  0  0  0  0  0  0  0  0
    2.6377   -0.8500    0.0000 Br  0  0  0  0  0  0  0  0  0  0  0  0
   -1.7217   -6.0453    0.0000 Br  0  0  0  0  0  0  0  0  0  0  0  0
   -0.0000   -1.2800    0.0000 S   0  0  0  0  0  0  0  0  0  0  0  0
   -2.6032   -3.5223    0.0000 S   0  0  0  0  0  0  0  0  0  0  0  0
   -2.6377   -0.8500    0.0000 Si  0  0  0  0  0  4  0  0  0  0  0  0
  3  2  2  0
  4  2  1  0
  5  3  1  0
  6  4  2  0
  9  7  1  0
 10  8  1  0
 11  5  2  0
 11  6  1  0
 12  7  2  0
 13  8  2  0
 14  9  2  0
 15 10  2  0
 16 12  1  0
 17 13  1  0
 18 12  1  0
 18 14  1  0
 19 13  1  0
 19 15  1  0
 20  1  1  0
 20 11  1  0
 20 14  1  0
 20 15  1  0
M  END
>  <NAME>  (349) 
DI(5-(2-BROMOTHIENYL))METHYLPHENYLSILANE

>  <SYNONYMS>  (349) 


>  <SPECTRUM TYPE>  (349) 
MS1

>  <INSTRUMENT TYPE>  (349) 
EI-B

>  <INSTRUMENT>  (349) 
SHIMADZU QP-1000

>  <ION MODE>  (349) 
P

>  <INCHIKEY>  (349) 
JWROVZUCWZMWIQ-UHFFFAOYSA-N

>  <FORMULA>  (349) 
C15H12Br2S2Si

>  <EXACT MASS>  (349) 
441.851643114

>  <MW>  (349) 
442

>  <ID>  (349) 
JP011689

>  <CONTRIBUTOR>  (349) 
University of Tokyo Team, {Faculty of Engineering, University of Tokyo

>  <COMMENT>  (349) 
SMILES=c(c3)ccc(c3)[Si](C)(c(c2)sc(Br)c2)c(c1)sc(Br)c1
InChI=InChI=1S/C15H12Br2S2Si/c1-20(11-5-3-2-4-6-11,14-9-7-12(16)18-14)15-10-8-13(17)19-15/h2-10H,1H3
computed SMILES=BrC=1SC(=CC1)[Si](C=2SC(Br)=CC2)(C=3C=CC=CC3)C
accession=JP011689
date=2016.01.19 (Created 2008.10.21, modified 2011.05.06)
author=FAC. TECHNOLOGY, HIROSHIMA UNIV.
license=CC BY-NC-SA
exact mass=441.85164
ionization energy=70 eV
ion type=[M]+*
computed spectral entropy=3.347277250744636
computed normalized entropy=0.901363213267395
SPLASH=splash10-004i-6400900000-a5a63c400996875f1f1e
submitter=submitter = University of Tokyo Team (Faculty of Engineering, University of Tokyo)
MoNA Rating=3.75

>  <NUM PEAKS>  (349) 
41

>  <MASS SPECTRAL PEAKS>  (349) 
51 24.5
52 6.4
53 36.2
57 8.5
63 9.6
65 7.4
67 5.3
69 8.5
75 13.8
76 5.3
77 26.6
78 3.2
79 8.5
81 5.3
82 21.3
85 6.4
89 4.3
91 25.5
93 7.4
102 5.3
103 5.3
105 28.7
106 5.3
107 22.3
109 26.6
115 16
119 11.7
120 13.8
126 5.3
127 7.4
129 8.5
199 10.6
201 11.7
427 47.9
429 99.99
430 23.4
431 60.6
432 12.8
442 22.3
444 45.7
446 28.7

$$$$

     RDKit          2D

 14 15  0  0  0  0  0  0  0  0999 V2000
    1.2135   -0.8817    0.0000 C   0  0  0  0  0  0  0  0  0  0  0  0
   -1.8901   -1.8901    0.0000 C   0  0  0  0  0  0  0  0  0  0  0  0
   -0.8165    3.3338    0.0000 C   0  0  0  0  0  0  0  0  0  0  0  0
   -5.3259    4.2131    0.0000 C   0  0  0  0  0  0  0  0  0  0  0  0
   -4.0260    4.9633    0.0000 C   0  0  0  0  0  0  0  0  0  0  0  0
   -5.3256    2.7131    0.0000 C   0  0  0  0  0  0  0  0  0  0  0  0
   -2.7259    4.2135    0.0000 C   0  0  0  0  0  0  0  0  0  0  0  0
   -4.0255    1.9633    0.0000 C   0  0  0  0  0  0  0  0  0  0  0  0
    0.0000    1.5000    0.0000 C   0  0  0  0  0  0  0  0  0  0  0  0
   -2.3083    0.7500    0.0000 C   0  0  0  0  0  0  0  0  0  0  0  0
    0.0000    0.0000    0.0000 C   0  0  0  0  0  0  0  0  0  0  0  0
   -1.4266   -0.4635    0.0000 C   0  0  0  0  0  0  0  0  0  0  0  0
   -2.7256    2.7135    0.0000 C   0  0  0  0  0  0  0  0  0  0  0  0
   -1.4266    1.9635    0.0000 Si  0  0  0  0  0  4  0  0  0  0  0  0
  5  4  2  0
  6  4  1  0
  7  5  1  0
  8  6  2  0
 11  1  1  0
 11  9  1  0
 12  2  1  0
 12 10  1  0
 12 11  2  0
 13  7  2  0
 13  8  1  0
 14  3  1  0
 14  9  1  0
 14 10  1  0
 14 13  1  0
M  END
>  <NAME>  (350) 
1,3,4-TRIMETHYL-1-PHENYL-1-SILACYCLOPENT-3-ENE

>  <SYNONYMS>  (350) 


>  <SPECTRUM TYPE>  (350) 
MS1

>  <INSTRUMENT TYPE>  (350) 
EI-B

>  <INSTRUMENT>  (350) 
SHIMADZU QP-1000

>  <ION MODE>  (350) 
P

>  <INCHIKEY>  (350) 
OWCZXLLXIGBHOM-UHFFFAOYSA-N

>  <FORMULA>  (350) 
C13H18Si

>  <EXACT MASS>  (350) 
202.117777106

>  <MW>  (350) 
202

>  <ID>  (350) 
JP011688

>  <CONTRIBUTOR>  (350) 
University of Tokyo Team, {Faculty of Engineering, University of Tokyo

>  <COMMENT>  (350) 
SMILES=CC(=C(C)2)C[Si](C)(C2)c(c1)cccc1
InChI=InChI=1S/C13H18Si/c1-11-9-14(3,10-12(11)2)13-7-5-4-6-8-13/h4-8H,9-10H2,1-3H3
computed SMILES=C=1C=CC(=CC1)[Si]2(C)CC(=C(C)C2)C
accession=JP011688
date=2016.01.19 (Created 2008.10.21, modified 2011.05.06)
author=FAC. TECHNOLOGY, HIROSHIMA UNIV.
license=CC BY-NC-SA
exact mass=202.11778
ionization energy=70 eV
ion type=[M]+*
computed spectral entropy=3.3082756535387348
computed normalized entropy=0.8742362232289212
SPLASH=splash10-0pb9-6910000000-f239a46c6a82de5f0f2b
submitter=submitter = University of Tokyo Team (Faculty of Engineering, University of Tokyo)
MoNA Rating=3.75

>  <NUM PEAKS>  (350) 
44

>  <MASS SPECTRAL PEAKS>  (350) 
50 7.4
51 19.1
52 7.4
53 83
54 13.8
55 17
57 6.4
59 61.7
65 8.5
66 8.5
67 34
68 4.3
69 18.1
73 6.4
77 9.6
78 9.6
79 23.4
81 11.7
83 12.8
91 7.4
93 10.6
95 8.5
103 7.4
105 99.99
106 12.8
107 12.8
109 94.7
110 9.6
111 5.3
119 9.6
120 12.8
121 33
123 11.7
124 77.7
125 12.8
131 4.3
145 22.3
147 4.3
159 8.5
185 5.3
187 60.6
188 11.7
202 57.4
203 10.6

$$$$

     RDKit          2D

 26 27  0  0  0  0  0  0  0  0999 V2000
    3.1487   -2.7991    0.0000 C   0  0  0  0  0  0  0  0  0  0  0  0
    5.1978   -2.2504    0.0000 C   0  0  0  0  0  0  0  0  0  0  0  0
    4.6491   -0.2013    0.0000 C   0  0  0  0  0  0  0  0  0  0  0  0
   -4.8639    0.7888    0.0000 C   0  0  0  0  0  0  0  0  0  0  0  0
   -6.9129    0.2394    0.0000 C   0  0  0  0  0  0  0  0  0  0  0  0
   -6.3635   -1.8095    0.0000 C   0  0  0  0  0  0  0  0  0  0  0  0
    4.2335    0.4414    0.0000 C   0  0  0  0  0  0  0  0  0  0  0  0
    4.7822    2.4905    0.0000 C   0  0  0  0  0  0  0  0  0  0  0  0
   -5.2786   -2.4094    0.0000 C   0  0  0  0  0  0  0  0  0  0  0  0
   -3.3502   -2.4091    0.0000 C   0  0  0  0  0  0  0  0  0  0  0  0
   -1.7157    1.7401    0.0000 C   0  0  0  0  0  0  0  0  0  0  0  0
   -3.0157    0.9901    0.0000 C   0  0  0  0  0  0  0  0  0  0  0  0
   -1.7157   -1.2599    0.0000 C   0  0  0  0  0  0  0  0  0  0  0  0
    0.8843    1.7401    0.0000 C   0  0  0  0  0  0  0  0  0  0  0  0
    0.8843   -1.2599    0.0000 C   0  0  0  0  0  0  0  0  0  0  0  0
    0.8843   -2.7599    0.0000 H   0  0  0  0  0  0  0  0  0  0  0  0
   -0.4157    0.9901    0.0000 C   0  0  0  0  0  0  0  0  0  0  0  0
   -0.4157   -0.5099    0.0000 C   0  0  0  0  0  0  0  0  0  0  0  0
   -3.0157   -0.5099    0.0000 C   0  0  0  0  0  0  0  0  0  0  0  0
    2.1843   -0.5099    0.0000 C   0  0  0  0  0  0  0  0  0  0  0  0
    2.1843    0.9901    0.0000 C   0  0  0  0  0  0  0  0  0  0  0  0
    2.7331    3.0392    0.0000 O   0  0  0  0  0  0  0  0  0  0  0  0
    3.8989   -1.5002    0.0000 Si  0  0  0  0  0  4  0  0  0  0  0  0
   -5.6137   -0.5103    0.0000 Si  0  0  0  0  0  4  0  0  0  0  0  0
    3.4833    1.7403    0.0000 Si  0  0  0  0  0  4  0  0  0  0  0  0
   -4.3146   -1.2601    0.0000 Si  0  0  0  0  0  4  0  0  0  0  0  0
 15 16  1  0
 12 11  2  0
 17 11  1  0
 17 14  1  0
 18 13  1  0
 18 15  1  0
 18 17  2  0
 19 12  1  0
 19 13  2  0
 20 15  1  0
 21 14  2  0
 21 20  1  0
 23  1  1  0
 23  2  1  0
 23  3  1  0
 23 20  1  0
 24  4  1  0
 24  5  1  0
 24  6  1  0
 25  7  1  0
 25  8  1  0
 25 21  1  0
 25 22  1  0
 26  9  1  0
 26 10  1  0
 26 19  1  0
 26 24  1  0
M  ISO  1  16   2
M  END
>  <NAME>  (351) 
5-DEUTERIO-6-HYDRO-7-(HYDROXYDIMETHYLSILYL)-3-(PENTAMETHYLDISILANYL)-6-(TRIMETHYLSILYL)NAPHTHALENE

>  <SYNONYMS>  (351) 


>  <SPECTRUM TYPE>  (351) 
MS1

>  <INSTRUMENT TYPE>  (351) 
EI-B

>  <INSTRUMENT>  (351) 
SHIMADZU QP-1000

>  <ION MODE>  (351) 
P

>  <INCHIKEY>  (351) 
OHHXNTFRQNXLRK-RWFJLFJASA-N

>  <FORMULA>  (351) 
C20H38OSi4

>  <EXACT MASS>  (351) 
407.206248702

>  <MW>  (351) 
407

>  <ID>  (351) 
JP011686

>  <CONTRIBUTOR>  (351) 
University of Tokyo Team, {Faculty of Engineering, University of Tokyo

>  <COMMENT>  (351) 
SMILES=C[Si](C)(O)C(=C1)C([Si](C)(C)C)C([2H])c(c2)c(ccc2[Si](C)(C)[Si](C)(C)C)1
InChI=InChI=1S/C20H38OSi4/c1-22(2,3)19-15-17-13-18(25(9,10)23(4,5)6)12-11-16(17)14-20(19)24(7,8)21/h11-14,19,21H,15H2,1-10H3/i15D
computed SMILES=[H]C1C=2C=C(C=CC2C=C(C1[Si](C)(C)C)[Si](O)(C)C)[Si](C)(C)[Si](C)(C)C
accession=JP011686
date=2016.01.19 (Created 2008.10.21, modified 2011.05.06)
author=FAC. TECHNOLOGY, HIROSHIMA UNIV.
license=CC BY-NC-SA
exact mass=406.19997
ionization energy=70 eV
ion type=[M]+*
computed spectral entropy=2.636702270281247
computed normalized entropy=0.767825304310231
SPLASH=splash10-00di-9301000000-0f9ba0a73a3ef79685c9
submitter=submitter = University of Tokyo Team (Faculty of Engineering, University of Tokyo)
MoNA Rating=3.75

>  <NUM PEAKS>  (351) 
31

>  <MASS SPECTRAL PEAKS>  (351) 
43 7.4
45 27.4
47 6.3
59 7.4
60 1.1
73 99.99
74 8.4
75 42.1
117 4.2
131 16.8
132 3.2
133 14.7
134 3.2
147 11.6
148 1.1
170 1.1
184 1.1
185 3.2
186 14.7
187 3.2
205 5.3
244 3.2
245 1.1
246 3.2
259 3.2
260 4.2
261 1.1
333 1.1
335 21.1
336 7.4
393 3.2

$$$$

     RDKit          2D

 28 31  0  0  0  0  0  0  0  0999 V2000
    0.0010   -3.7500    0.0000 C   0  0  0  0  0  0  0  0  0  0  0  0
    2.5990    3.7500    0.0000 C   0  0  0  0  0  0  0  0  0  0  0  0
    5.7335   -2.2197    0.0000 C   0  0  0  0  0  0  0  0  0  0  0  0
   -0.2410    7.2297    0.0000 C   0  0  0  0  0  0  0  0  0  0  0  0
    4.7686   -1.0702    0.0000 C   0  0  0  0  0  0  0  0  0  0  0  0
    5.2203   -3.6292    0.0000 C   0  0  0  0  0  0  0  0  0  0  0  0
    1.2370    6.9688    0.0000 C   0  0  0  0  0  0  0  0  0  0  0  0
   -1.2050    6.0805    0.0000 C   0  0  0  0  0  0  0  0  0  0  0  0
   -2.6000   -0.7500    0.0000 C   0  0  0  0  0  0  0  0  0  0  0  0
   -2.6000    0.7500    0.0000 C   0  0  0  0  0  0  0  0  0  0  0  0
    3.2905   -1.3301    0.0000 C   0  0  0  0  0  0  0  0  0  0  0  0
    3.7421   -3.8891    0.0000 C   0  0  0  0  0  0  0  0  0  0  0  0
    1.7510    5.5588    0.0000 C   0  0  0  0  0  0  0  0  0  0  0  0
   -0.6910    4.6704    0.0000 C   0  0  0  0  0  0  0  0  0  0  0  0
   -1.3000   -1.5000    0.0000 C   0  0  0  0  0  0  0  0  0  0  0  0
   -1.3000    1.5000    0.0000 C   0  0  0  0  0  0  0  0  0  0  0  0
    2.6000   -0.7500    0.0000 C   0  0  0  0  0  0  0  0  0  0  0  0
    2.6000    0.7500    0.0000 C   0  0  0  0  0  0  0  0  0  0  0  0
    2.7772   -2.7395    0.0000 C   0  0  0  0  0  0  0  0  0  0  0  0
    0.7870    4.4095    0.0000 C   0  0  0  0  0  0  0  0  0  0  0  0
    0.0000   -0.7500    0.0000 C   0  0  0  0  0  0  0  0  0  0  0  0
    0.0000    0.7500    0.0000 C   0  0  0  0  0  0  0  0  0  0  0  0
    1.3000   -1.5000    0.0000 C   0  0  0  0  0  0  0  0  0  0  0  0
    1.3000    1.5000    0.0000 C   0  0  0  0  0  0  0  0  0  0  0  0
    1.8130   -4.4095    0.0000 Cl  0  0  0  0  0  0  0  0  0  0  0  0
   -0.1772    2.7395    0.0000 Cl  0  0  0  0  0  0  0  0  0  0  0  0
    1.3000   -3.0000    0.0000 Si  0  0  0  0  0  4  0  0  0  0  0  0
    1.3000    3.0000    0.0000 Si  0  0  0  0  0  4  0  0  0  0  0  0
  5  3  2  0
  6  3  1  0
  7  4  2  0
  8  4  1  0
 10  9  2  0
 11  5  1  0
 12  6  2  0
 13  7  1  0
 14  8  2  0
 15  9  1  0
 16 10  1  0
 18 17  1  0
 19 11  2  0
 19 12  1  0
 20 13  2  0
 20 14  1  0
 21 15  2  0
 22 16  2  0
 22 21  1  0
 23 17  2  0
 23 21  1  0
 24 18  2  0
 24 22  1  0
 27  1  1  0
 27 19  1  0
 27 23  1  0
 27 25  1  0
 28  2  1  0
 28 20  1  0
 28 24  1  0
 28 26  1  0
M  END
>  <NAME>  (352) 
1,4-BIS(CHLOROMETHYLPHENYLSILYL)NAPHTHALENE

>  <SYNONYMS>  (352) 


>  <SPECTRUM TYPE>  (352) 
MS1

>  <INSTRUMENT TYPE>  (352) 
EI-B

>  <INSTRUMENT>  (352) 
SHIMADZU QP-1000

>  <ION MODE>  (352) 
P

>  <INCHIKEY>  (352) 
KMXNBQNAAWVWLF-UHFFFAOYSA-N

>  <FORMULA>  (352) 
C24H22Cl2Si2

>  <EXACT MASS>  (352) 
436.06370912399996

>  <MW>  (352) 
436

>  <ID>  (352) 
JP011685

>  <CONTRIBUTOR>  (352) 
University of Tokyo Team, {Faculty of Engineering, University of Tokyo

>  <COMMENT>  (352) 
SMILES=c(c4)ccc(c4)[Si](C)(Cl)c(c2)c(c3)c(ccc3)c(c2)[Si](C)(Cl)c(c1)cccc1
InChI=InChI=1S/C24H22Cl2Si2/c1-27(25,19-11-5-3-6-12-19)23-17-18-24(22-16-10-9-15-21(22)23)28(2,26)20-13-7-4-8-14-20/h3-18H,1-2H3
computed SMILES=Cl[Si](C=1C=CC=CC1)(C=2C=CC(=C3C=CC=CC32)[Si](Cl)(C=4C=CC=CC4)C)C
accession=JP011685
date=2016.01.19 (Created 2008.10.21, modified 2011.05.06)
author=FAC. TECHNOLOGY, HIROSHIMA UNIV.
license=CC BY-NC-SA
exact mass=436.06371
ionization energy=70 eV
ion type=[M]+*
computed spectral entropy=3.995411685558816
computed normalized entropy=0.8405040243128137
SPLASH=splash10-06su-9521300000-c78d06fa08c79fe79b37
submitter=submitter = University of Tokyo Team (Faculty of Engineering, University of Tokyo)
MoNA Rating=3.75

>  <NUM PEAKS>  (352) 
116

>  <MASS SPECTRAL PEAKS>  (352) 
32 91.5
36 5.3
38 3.2
39 5.3
40 7.4
41 4.3
43 12.8
44 5.3
45 2.1
50 4.3
51 12.8
53 11.7
55 2.1
57 2.1
63 99.99
64 6.4
65 41.5
66 2.1
67 3.2
69 2.1
73 3.2
77 13.8
78 8.5
79 8.5
80 2.1
81 3.2
89 2.1
91 66
92 3.2
93 5.3
105 13.8
113 2.1
115 4.3
119 8.5
120 2.1
121 2.1
126 2.1
135 4.3
139 3.2
140 2.1
141 3.2
142 3.2
143 7.4
144 3.2
146 3.2
147 2.1
153 5.3
154 2.1
155 78.7
156 11.7
157 27.7
158 3.2
161 7.4
162 2.1
164 5.3
165 4.3
167 7.4
168 2.1
169 7.4
175 2.1
177 2.1
179 3.2
181 2.1
182 5.3
183 2.1
189 4.3
191 2.1
195 2.1
197 4.3
200 2.1
201 3.2
202 16
203 6.4
204 3.2
205 4.3
219 3.2
228 2.1
229 3.2
230 3.2
231 27.7
232 5.3
241 3.2
242 2.1
243 2.1
245 17
246 9.6
247 3.2
265 4.3
281 5.3
282 2.1
283 3.2
305 2.1
307 3.2
323 10.6
324 2.1
343 8.5
344 3.2
345 7.4
346 0.21
347 2.1
358 5.3
359 3.2
360 3.2
385 4.3
387 2.1
421 18.1
422 5.3
423 14.9
424 4.3
425 3.2
436 45.7
437 18.1
438 27.7
439 12.8
440 9.6
441 3.2

$$$$

     RDKit          2D

  9  9  0  0  0  0  0  0  0  0999 V2000
    0.2422   -1.8255    0.0000 C   0  0  0  0  0  0  0  0  0  0  0  0
    1.2100    0.0622    0.0000 C   0  0  0  0  0  0  0  0  0  0  0  0
   -0.6777    1.0300    0.0000 C   0  0  0  0  0  0  0  0  0  0  0  0
   -3.6055   -2.2777    0.0000 C   0  0  0  0  0  0  0  0  0  0  0  0
   -2.1055   -2.2777    0.0000 C   0  0  0  0  0  0  0  0  0  0  0  0
   -4.0655   -0.8577    0.0000 C   0  0  0  0  0  0  0  0  0  0  0  0
   -1.6455   -0.8577    0.0000 C   0  0  0  0  0  0  0  0  0  0  0  0
   -2.8555    0.0323    0.0000 S   0  0  0  0  0  0  0  0  0  0  0  0
   -0.2177   -0.3977    0.0000 Si  0  0  0  0  0  4  0  0  0  0  0  0
  5  4  1  0
  6  4  2  0
  7  5  2  0
  8  6  1  0
  8  7  1  0
  9  1  1  0
  9  2  1  0
  9  3  1  0
  9  7  1  0
M  END
>  <NAME>  (353) 
2-TRIMETHYLSILYLTHIOPHENE

>  <SYNONYMS>  (353) 


>  <SPECTRUM TYPE>  (353) 
MS1

>  <INSTRUMENT TYPE>  (353) 
EI-B

>  <INSTRUMENT>  (353) 
SHIMADZU QP-1000

>  <ION MODE>  (353) 
P

>  <INCHIKEY>  (353) 
OANGLGSZPSFVDY-UHFFFAOYSA-N

>  <FORMULA>  (353) 
C7H12SSi

>  <EXACT MASS>  (353) 
156.04289791399998

>  <MW>  (353) 
156

>  <ID>  (353) 
JP011684

>  <CONTRIBUTOR>  (353) 
University of Tokyo Team, {Faculty of Engineering, University of Tokyo

>  <COMMENT>  (353) 
SMILES=C[Si](C)(C)c(c1)scc1
InChI=InChI=1S/C7H12SSi/c1-9(2,3)7-5-4-6-8-7/h4-6H,1-3H3
computed SMILES=S1C=CC=C1[Si](C)(C)C
accession=JP011684
date=2016.01.19 (Created 2008.10.21, modified 2011.05.06)
author=FAC. TECHNOLOGY, HIROSHIMA UNIV.
license=CC BY-NC-SA
exact mass=156.0429
ionization energy=70 eV
ion type=[M]+*
computed spectral entropy=3.0645203811559036
computed normalized entropy=0.8252217342521052
SPLASH=splash10-0006-7900000000-eeb25dcec03804ae3ac4
submitter=submitter = University of Tokyo Team (Faculty of Engineering, University of Tokyo)
MoNA Rating=3.75

>  <NUM PEAKS>  (353) 
41

>  <MASS SPECTRAL PEAKS>  (353) 
51 21.8
53 31
55 15.5
57 7
58 8.5
59 8.5
61 5.6
63 4.2
65 12.7
66 12
67 9.2
69 9.2
71 9.2
73 50
75 25.4
77 6.3
79 2.1
81 2.8
83 19.7
85 8.5
86 1.4
87 1.4
91 4.2
95 2.1
97 15.5
98 1.4
99 1.4
101 4.2
109 1.4
111 9.2
113 3.5
115 24.6
117 1.4
125 2.1
127 2.1
141 99.99
142 63.4
143 38
156 80.3
157 11.3
158 7

$$$$

     RDKit          2D

 26 29  0  0  0  0  0  0  0  0999 V2000
    0.7870    4.4095    0.0000 C   0  0  0  0  0  0  0  0  0  0  0  0
   -0.1772    2.7395    0.0000 C   0  0  0  0  0  0  0  0  0  0  0  0
    2.5990    5.2500    0.0000 C   0  0  0  0  0  0  0  0  0  0  0  0
    3.1121    2.3405    0.0000 C   0  0  0  0  0  0  0  0  0  0  0  0
   -2.6000   -0.7500    0.0000 C   0  0  0  0  0  0  0  0  0  0  0  0
    6.9693    0.5604    0.0000 C   0  0  0  0  0  0  0  0  0  0  0  0
   -2.6000    0.7500    0.0000 C   0  0  0  0  0  0  0  0  0  0  0  0
    5.4921    0.3000    0.0000 C   0  0  0  0  0  0  0  0  0  0  0  0
    2.6000   -0.7500    0.0000 C   0  0  0  0  0  0  0  0  0  0  0  0
    6.0663    5.6814    0.0000 C   0  0  0  0  0  0  0  0  0  0  0  0
   -1.3000   -1.5000    0.0000 C   0  0  0  0  0  0  0  0  0  0  0  0
    7.4822    1.9709    0.0000 C   0  0  0  0  0  0  0  0  0  0  0  0
    1.3000   -1.5000    0.0000 C   0  0  0  0  0  0  0  0  0  0  0  0
    7.0307    4.5314    0.0000 C   0  0  0  0  0  0  0  0  0  0  0  0
   -1.3000    1.5000    0.0000 C   0  0  0  0  0  0  0  0  0  0  0  0
    4.5277    1.4500    0.0000 C   0  0  0  0  0  0  0  0  0  0  0  0
    2.6000    0.7500    0.0000 C   0  0  0  0  0  0  0  0  0  0  0  0
    4.5891    5.4210    0.0000 C   0  0  0  0  0  0  0  0  0  0  0  0
    0.0000   -0.7500    0.0000 C   0  0  0  0  0  0  0  0  0  0  0  0
    6.5178    3.1209    0.0000 C   0  0  0  0  0  0  0  0  0  0  0  0
    0.0000    0.7500    0.0000 C   0  0  0  0  0  0  0  0  0  0  0  0
    5.0406    2.8605    0.0000 C   0  0  0  0  0  0  0  0  0  0  0  0
    1.3000    1.5000    0.0000 C   0  0  0  0  0  0  0  0  0  0  0  0
    4.0762    4.0105    0.0000 C   0  0  0  0  0  0  0  0  0  0  0  0
    1.3000    3.0000    0.0000 Si  0  0  0  0  0  4  0  0  0  0  0  0
    2.5990    3.7500    0.0000 Si  0  0  0  0  0  4  0  0  0  0  0  0
  7  5  2  0
  8  6  2  0
 11  5  1  0
 12  6  1  0
 13  9  2  0
 14 10  2  0
 15  7  1  0
 16  8  1  0
 17  9  1  0
 18 10  1  0
 19 11  2  0
 19 13  1  0
 20 12  2  0
 20 14  1  0
 21 15  2  0
 21 19  1  0
 22 16  2  0
 22 20  1  0
 23 17  2  0
 23 21  1  0
 24 18  2  0
 24 22  1  0
 25  1  1  0
 25  2  1  0
 25 23  1  0
 26  3  1  0
 26  4  1  0
 26 24  1  0
 26 25  1  0
M  END
>  <NAME>  (354) 
1,2-BIS(1-NAPHTHYL)TETRAMETHYLDISILANE

>  <SYNONYMS>  (354) 


>  <SPECTRUM TYPE>  (354) 
MS1

>  <INSTRUMENT TYPE>  (354) 
EI-B

>  <INSTRUMENT>  (354) 
SHIMADZU QP-1000

>  <ION MODE>  (354) 
P

>  <INCHIKEY>  (354) 
RLWPPMCLXCJLGQ-UHFFFAOYSA-N

>  <FORMULA>  (354) 
C24H26Si2

>  <EXACT MASS>  (354) 
370.157303892

>  <MW>  (354) 
370

>  <ID>  (354) 
JP011683

>  <CONTRIBUTOR>  (354) 
University of Tokyo Team, {Faculty of Engineering, University of Tokyo

>  <COMMENT>  (354) 
SMILES=c(c4)cc(c3)c(c4)c(cc3)[Si](C)(C)[Si](C)(C)c(c1)c(c2)c(ccc2)cc1
InChI=InChI=1S/C24H26Si2/c1-25(2,23-17-9-13-19-11-5-7-15-21(19)23)26(3,4)24-18-10-14-20-12-6-8-16-22(20)24/h5-18H,1-4H3
computed SMILES=C=1C=CC2=C(C1)C=CC=C2[Si](C)(C)[Si](C3=CC=CC=4C=CC=CC43)(C)C
accession=JP011683
date=2016.01.19 (Created 2008.10.21, modified 2011.05.06)
author=FAC. TECHNOLOGY, HIROSHIMA UNIV.
license=CC BY-NC-SA
exact mass=370.1573
ionization energy=70 eV
ion type=[M]+*
computed spectral entropy=2.460193582065781
computed normalized entropy=0.7464549011639552
SPLASH=splash10-000i-0910000000-85f148566f422969263b
submitter=submitter = University of Tokyo Team (Faculty of Engineering, University of Tokyo)
MoNA Rating=3.75

>  <NUM PEAKS>  (354) 
27

>  <MASS SPECTRAL PEAKS>  (354) 
45 11.6
54 2.1
115 3.2
128 1.1
129 4.2
131 3.2
141 3.2
143 1.1
153 1.1
155 14.7
156 1.1
157 1.1
167 10.5
168 3.2
169 13.7
170 3.2
181 3.2
183 10.5
184 2.1
185 99.99
186 17.9
187 4.2
227 3.2
297 23.2
298 6.3
370 12.6
371 4.2

$$$$

     RDKit          2D

 23 24  0  0  0  0  0  0  0  0999 V2000
    0.6369    1.4377    0.0000 C   0  0  0  0  0  0  0  0  0  0  0  0
    0.4221    5.4277    0.0000 C   0  0  0  0  0  0  0  0  0  0  0  0
   -1.0779    6.9277    0.0000 C   0  0  0  0  0  0  0  0  0  0  0  0
   -2.5779    5.4277    0.0000 C   0  0  0  0  0  0  0  0  0  0  0  0
   -3.1646    2.5801    0.0000 C   0  0  0  0  0  0  0  0  0  0  0  0
   -2.2681    0.6576    0.0000 C   0  0  0  0  0  0  0  0  0  0  0  0
   -0.3455    1.5541    0.0000 C   0  0  0  0  0  0  0  0  0  0  0  0
    4.5340    5.1877    0.0000 C   0  0  0  0  0  0  0  0  0  0  0  0
   -5.9841    4.7913    0.0000 C   0  0  0  0  0  0  0  0  0  0  0  0
    4.5345    3.6869    0.0000 C   0  0  0  0  0  0  0  0  0  0  0  0
    3.2345    5.9385    0.0000 C   0  0  0  0  0  0  0  0  0  0  0  0
   -5.0192    5.9409    0.0000 C   0  0  0  0  0  0  0  0  0  0  0  0
   -5.4708    3.3819    0.0000 C   0  0  0  0  0  0  0  0  0  0  0  0
    3.2354    2.9369    0.0000 C   0  0  0  0  0  0  0  0  0  0  0  0
    1.9354    5.1885    0.0000 C   0  0  0  0  0  0  0  0  0  0  0  0
   -3.5410    5.6810    0.0000 C   0  0  0  0  0  0  0  0  0  0  0  0
   -3.9927    3.1220    0.0000 C   0  0  0  0  0  0  0  0  0  0  0  0
    0.6369    2.9377    0.0000 C   0  0  0  0  0  0  0  0  0  0  0  0
    1.9359    3.6877    0.0000 C   0  0  0  0  0  0  0  0  0  0  0  0
   -3.0278    4.2715    0.0000 C   0  0  0  0  0  0  0  0  0  0  0  0
   -1.0779    5.4277    0.0000 Si  0  0  0  0  0  4  0  0  0  0  0  0
   -1.7551    2.0671    0.0000 Si  0  0  0  0  0  4  0  0  0  0  0  0
   -1.0779    3.9277    0.0000 Si  0  0  0  0  0  4  0  0  0  0  0  0
 10  8  2  0
 11  8  1  0
 12  9  2  0
 13  9  1  0
 14 10  1  0
 15 11  2  0
 16 12  1  0
 17 13  2  0
 18  1  1  0
 19 14  2  0
 19 15  1  0
 19 18  1  0
 20 16  2  0
 20 17  1  0
 21  2  1  0
 21  3  1  0
 21  4  1  0
 22  5  1  0
 22  6  1  0
 22  7  1  0
 23 18  1  0
 23 20  1  0
 23 21  1  0
 23 22  1  0
M  END
>  <NAME>  (355) 
PHENYL(1-PHENYLETHYL)BIS(TRIMETHYLSILYL)SILANE

>  <SYNONYMS>  (355) 


>  <SPECTRUM TYPE>  (355) 
MS1

>  <INSTRUMENT TYPE>  (355) 
EI-B

>  <INSTRUMENT>  (355) 
SHIMADZU QP-1000

>  <ION MODE>  (355) 
P

>  <INCHIKEY>  (355) 
SRINWIMSOLZBIV-UHFFFAOYSA-N

>  <FORMULA>  (355) 
C20H32Si3

>  <EXACT MASS>  (355) 
356.18118061399997

>  <MW>  (355) 
356

>  <ID>  (355) 
JP011682

>  <CONTRIBUTOR>  (355) 
University of Tokyo Team, {Faculty of Engineering, University of Tokyo

>  <COMMENT>  (355) 
SMILES=c(c2)ccc(c2)C(C)[Si](c(c1)cccc1)([Si](C)(C)C)[Si](C)(C)C
InChI=InChI=1S/C20H32Si3/c1-18(19-14-10-8-11-15-19)23(21(2,3)4,22(5,6)7)20-16-12-9-13-17-20/h8-18H,1-7H3
computed SMILES=C=1C=CC(=CC1)C(C)[Si](C=2C=CC=CC2)([Si](C)(C)C)[Si](C)(C)C
accession=JP011682
date=2016.01.19 (Created 2008.10.21, modified 2011.05.06)
author=FAC. TECHNOLOGY, HIROSHIMA UNIV.
license=CC BY-NC-SA
exact mass=356.18118
ionization energy=70 eV
ion type=[M]+*
computed spectral entropy=2.852222994206614
computed normalized entropy=0.7290915698218029
SPLASH=splash10-00dr-7900000000-f67aa2052b7adc1ad76a
submitter=submitter = University of Tokyo Team (Faculty of Engineering, University of Tokyo)
MoNA Rating=3.75

>  <NUM PEAKS>  (355) 
50

>  <MASS SPECTRAL PEAKS>  (355) 
51 1.4
53 3.5
55 2.1
57 3.5
58 1.4
59 19.7
69 2.1
73 99.99
74 7
75 2.8
77 3.5
79 3.5
83 1.4
85 1.4
91 2.1
93 1.4
95 1.4
99 1.4
101 1.4
102 1.4
103 2.1
105 21.8
106 2.1
107 6.3
109 1.4
115 1.4
119 2.1
121 11.3
122 1.4
131 6.3
132 1.4
133 2.1
135 72.5
136 8.5
137 2.1
145 4.2
146 3.5
147 2.8
161 2.1
163 3.5
175 1.4
177 8.5
179 2.8
191 5.6
193 2.1
206 8.6
207 2
251 6.8
252 2.1
356 2.5

$$$$

     RDKit          2D

 19 21  0  0  0  0  0  0  0  0999 V2000
   -3.5362   -0.0577    0.0000 C   0  0  0  0  0  0  0  0  0  0  0  0
   -1.7977   -1.0614    0.0000 C   0  0  0  0  0  0  0  0  0  0  0  0
   -7.1213    2.7118    0.0000 C   0  0  0  0  0  0  0  0  0  0  0  0
    2.3933   -2.7815    0.0000 C   0  0  0  0  0  0  0  0  0  0  0  0
   -6.6580    1.2843    0.0000 C   0  0  0  0  0  0  0  0  0  0  0  0
   -6.1174    3.8274    0.0000 C   0  0  0  0  0  0  0  0  0  0  0  0
    2.8575   -1.3543    0.0000 C   0  0  0  0  0  0  0  0  0  0  0  0
    0.9254   -3.0940    0.0000 C   0  0  0  0  0  0  0  0  0  0  0  0
   -5.1908    0.9724    0.0000 C   0  0  0  0  0  0  0  0  0  0  0  0
   -4.6502    3.5156    0.0000 C   0  0  0  0  0  0  0  0  0  0  0  0
    1.8538   -0.2396    0.0000 C   0  0  0  0  0  0  0  0  0  0  0  0
   -0.0783   -1.9793    0.0000 C   0  0  0  0  0  0  0  0  0  0  0  0
   -1.6050    2.7799    0.0000 C   0  0  0  0  0  0  0  0  0  0  0  0
   -0.3059    2.0299    0.0000 C   0  0  0  0  0  0  0  0  0  0  0  0
   -4.1869    2.0880    0.0000 C   0  0  0  0  0  0  0  0  0  0  0  0
    0.3859   -0.5521    0.0000 C   0  0  0  0  0  0  0  0  0  0  0  0
   -2.7197    1.7762    0.0000 C   0  0  0  0  0  0  0  0  0  0  0  0
   -0.6178    0.5627    0.0000 C   0  0  0  0  0  0  0  0  0  0  0  0
   -2.1096    0.4059    0.0000 Si  0  0  0  0  0  4  0  0  0  0  0  0
  5  3  2  0
  6  3  1  0
  7  4  2  0
  8  4  1  0
  9  5  1  0
 10  6  2  0
 11  7  1  0
 12  8  2  0
 14 13  2  0
 15  9  2  0
 15 10  1  0
 16 11  2  0
 16 12  1  0
 17 13  1  0
 17 15  1  0
 18 14  1  0
 18 16  1  0
 19  1  1  0
 19  2  1  0
 19 17  1  0
 19 18  1  0
M  END
>  <NAME>  (356) 
3,4-DIMETHYL-1,1-DIPHENYL-1-SILACYCLOPENT-3-ENE

>  <SYNONYMS>  (356) 


>  <SPECTRUM TYPE>  (356) 
MS1

>  <INSTRUMENT TYPE>  (356) 
EI-B

>  <INSTRUMENT>  (356) 
SHIMADZU QP-1000

>  <ION MODE>  (356) 
P

>  <INCHIKEY>  (356) 
YRZXTMMJKPLFDH-UHFFFAOYSA-N

>  <FORMULA>  (356) 
C18H20Si

>  <EXACT MASS>  (356) 
264.13342717

>  <MW>  (356) 
264

>  <ID>  (356) 
JP011680

>  <CONTRIBUTOR>  (356) 
University of Tokyo Team, {Faculty of Engineering, University of Tokyo

>  <COMMENT>  (356) 
SMILES=c(c3)ccc(c3)C(C([H])=1)[Si](C)(C)C(c(c2)cccc2)C([H])1
InChI=InChI=1S/C18H20Si/c1-19(2)17(15-9-5-3-6-10-15)13-14-18(19)16-11-7-4-8-12-16/h3-14,17-18H,1-2H3
computed SMILES=C=1C=CC(=CC1)C2C=CC(C=3C=CC=CC3)[Si]2(C)C
accession=JP011680
date=2016.01.19 (Created 2008.10.21, modified 2011.05.06)
author=FAC. TECHNOLOGY, HIROSHIMA UNIV.
license=CC BY-NC-SA
exact mass=264.13343
ionization energy=70 eV
ion type=[M]+*
computed spectral entropy=3.6778483704981846
computed normalized entropy=0.8417192502759004
SPLASH=splash10-0a4r-2900000000-0a5ce29dd0ce2f5c0c3e
submitter=submitter = University of Tokyo Team (Faculty of Engineering, University of Tokyo)
MoNA Rating=3.75

>  <NUM PEAKS>  (356) 
79

>  <MASS SPECTRAL PEAKS>  (356) 
50 3.5
51 9.2
53 44.4
54 7
55 9.9
57 2.1
58 1.4
59 2.1
63 2.8
65 3.5
66 3.5
67 12.7
68 2.1
69 4.2
77 8.5
78 8.5
79 17.6
80 2.1
81 3.5
82 1.4
83 1.4
91 5.6
93 4.2
95 3.5
100 1.4
103 13.4
104 9.2
105 99.99
106 13.4
107 15.5
108 17.6
109 11.3
110 8.5
111 2.1
115 2.1
117 2.1
119 2.8
121 9.2
128 2.8
129 7.7
130 2.8
131 6.3
132 1.4
141 3.5
142 8.5
143 7
144 4.2
145 12
146 3.5
152 1.4
153 1.4
154 1.4
155 7
156 1.4
157 2.8
158 1.4
159 1.4
165 1.4
169 1.4
171 23.9
172 3.5
173 3.5
179 2.8
180 14.8
181 47.9
182 14.8
183 15.5
184 3.5
185 9.2
186 61.3
187 21.1
188 3.5
207 2.8
217 2.1
221 1.4
222 1.4
264 10.7
265 5.2
266 1

$$$$

     RDKit          2D

 22 22  0  0  0  0  0  0  0  0999 V2000
    3.8090   -0.8240    0.0000 C   0  0  0  0  0  0  0  0  0  0  0  0
    5.8580   -1.3734    0.0000 C   0  0  0  0  0  0  0  0  0  0  0  0
    5.3086   -3.4223    0.0000 C   0  0  0  0  0  0  0  0  0  0  0  0
   -0.4542   -2.7662    0.0000 C   0  0  0  0  0  0  0  0  0  0  0  0
   -1.6713   -4.5037    0.0000 C   0  0  0  0  0  0  0  0  0  0  0  0
    0.0662   -5.7207    0.0000 C   0  0  0  0  0  0  0  0  0  0  0  0
    4.2237   -4.0222    0.0000 C   0  0  0  0  0  0  0  0  0  0  0  0
    2.1104   -3.8369    0.0000 C   0  0  0  0  0  0  0  0  0  0  0  0
    1.2830   -5.4832    0.0000 C   0  0  0  0  0  0  0  0  0  0  0  0
    3.2331   -4.3274    0.0000 C   0  0  0  0  0  0  0  0  0  0  0  0
    0.4836   -1.8620    0.0000 C   0  0  0  0  0  0  0  0  0  0  0  0
    1.9600    2.3789    0.0000 C   0  0  0  0  0  0  0  0  0  0  0  0
    3.2595    1.6281    0.0000 C   0  0  0  0  0  0  0  0  0  0  0  0
    0.6610    1.6289    0.0000 C   0  0  0  0  0  0  0  0  0  0  0  0
    3.2600    0.1273    0.0000 C   0  0  0  0  0  0  0  0  0  0  0  0
    0.6615    0.1281    0.0000 C   0  0  0  0  0  0  0  0  0  0  0  0
    1.9610   -0.6227    0.0000 C   0  0  0  0  0  0  0  0  0  0  0  0
    4.5588   -2.1232    0.0000 Si  0  0  0  0  0  4  0  0  0  0  0  0
   -0.1940   -4.2435    0.0000 Si  0  0  0  0  0  4  0  0  0  0  0  0
    3.2597   -2.8729    0.0000 Si  0  0  0  0  0  4  0  0  0  0  0  0
    1.2832   -3.9832    0.0000 Si  0  0  0  0  0  4  0  0  0  0  0  0
    1.9607   -2.1227    0.0000 Si  0  0  0  0  0  4  0  0  0  0  0  0
 13 12  2  0
 14 12  1  0
 15 13  1  0
 16 14  2  0
 17 15  2  0
 17 16  1  0
 18  1  1  0
 18  2  1  0
 18  3  1  0
 19  4  1  0
 19  5  1  0
 19  6  1  0
 20  7  1  0
 20  8  1  0
 20 18  1  0
 21  9  1  0
 21 10  1  0
 21 19  1  0
 22 11  1  0
 22 17  1  0
 22 20  1  0
 22 21  1  0
M  END
>  <NAME>  (357) 
3-PHENYLDECAMETHYLPENTASILANE

>  <SYNONYMS>  (357) 


>  <SPECTRUM TYPE>  (357) 
MS1

>  <INSTRUMENT TYPE>  (357) 
EI-B

>  <INSTRUMENT>  (357) 
SHIMADZU QP-1000

>  <ION MODE>  (357) 
P

>  <INCHIKEY>  (357) 
NFLALYPIVCUPHL-UHFFFAOYSA-N

>  <FORMULA>  (357) 
C17H38Si5

>  <EXACT MASS>  (357) 
382.181983866

>  <MW>  (357) 
382

>  <ID>  (357) 
JP011679

>  <CONTRIBUTOR>  (357) 
University of Tokyo Team, {Faculty of Engineering, University of Tokyo

>  <COMMENT>  (357) 
SMILES=c(c1)ccc(c1)[Si](C)([Si](C)(C)[Si](C)(C)C)[Si](C)(C)[Si](C)(C)C
InChI=InChI=1S/C17H38Si5/c1-18(2,3)20(7,8)22(11,17-15-13-12-14-16-17)21(9,10)19(4,5)6/h12-16H,1-11H3
computed SMILES=C=1C=CC(=CC1)[Si](C)([Si](C)(C)[Si](C)(C)C)[Si](C)(C)[Si](C)(C)C
license=CC BY-NC-SA
accession=JP011679
date=2016.01.19 (Created 2008.10.21, modified 2011.05.06)
author=FAC. TECHNOLOGY, HIROSHIMA UNIV.
exact mass=382.18198
ionization energy=70 eV
ion type=[M]+*
computed spectral entropy=3.598074990084904
computed normalized entropy=0.8333722978423769
SPLASH=splash10-00di-7920000000-a2ef087669fe7ffc5a1d
submitter=submitter = University of Tokyo Team (Faculty of Engineering, University of Tokyo)
MoNA Rating=3.75

>  <NUM PEAKS>  (357) 
75

>  <MASS SPECTRAL PEAKS>  (357) 
54 2.8
55 2.8
56 5.6
57 2.1
58 9.2
59 1.4
60 12.7
69 2.8
71 4.2
73 99.99
74 8.5
75 4.2
77 2.1
83 2.1
85 3.5
91 5.6
97 1.4
99 2.8
101 2.1
103 2.1
105 5.6
107 2.8
113 1.4
115 5.6
116 14.8
117 3.5
121 2.8
129 3.5
131 12.7
132 1.4
133 2.8
135 33.8
136 4.9
137 1.4
145 2.1
147 3.5
155 1.4
157 1.4
159 3.5
161 3.5
162 2.8
163 4.2
165 1.4
173 2.8
174 4.2
175 5.6
176 2.1
177 18.3
178 3.5
179 2.8
180 2.8
181 18.3
182 2.8
189 1.4
191 15.5
192 3.5
193 5.6
207 2.1
209 8.5
210 1.4
219 2.8
221 2.8
233 2.1
235 5.6
236 2.1
238 3.5
245 1.4
249 2.8
251 26.1
252 6.3
253 3.5
309 2.1
382 10.6
383 4.2
384 1.4

$$$$

     RDKit          2D

 26 30  0  0  0  0  0  0  0  0999 V2000
   -2.1292   -1.0724    0.0000 C   0  0  0  0  0  0  0  0  0  0  0  0
   -0.2007   -1.0721    0.0000 C   0  0  0  0  0  0  0  0  0  0  0  0
    1.6120    2.0676    0.0000 C   0  0  0  0  0  0  0  0  0  0  0  0
    0.6480    3.7379    0.0000 C   0  0  0  0  0  0  0  0  0  0  0  0
    2.7324    3.8276    0.0000 C   0  0  0  0  0  0  0  0  0  0  0  0
    4.0315    3.0776    0.0000 C   0  0  0  0  0  0  0  0  0  0  0  0
   -5.0627    0.8259    0.0000 C   0  0  0  0  0  0  0  0  0  0  0  0
   -2.4627    5.3292    0.0000 C   0  0  0  0  0  0  0  0  0  0  0  0
    0.1344   -0.6724    0.0000 C   0  0  0  0  0  0  0  0  0  0  0  0
    1.4334    3.0776    0.0000 C   0  0  0  0  0  0  0  0  0  0  0  0
   -5.0623    2.3267    0.0000 C   0  0  0  0  0  0  0  0  0  0  0  0
   -3.7623    4.5784    0.0000 C   0  0  0  0  0  0  0  0  0  0  0  0
    0.1344    0.8276    0.0000 C   0  0  0  0  0  0  0  0  0  0  0  0
    4.0315    1.5776    0.0000 C   0  0  0  0  0  0  0  0  0  0  0  0
   -3.7637    0.0759    0.0000 C   0  0  0  0  0  0  0  0  0  0  0  0
   -1.1637    4.5792    0.0000 C   0  0  0  0  0  0  0  0  0  0  0  0
    1.4334   -1.4224    0.0000 C   0  0  0  0  0  0  0  0  0  0  0  0
    1.4334    1.5776    0.0000 C   0  0  0  0  0  0  0  0  0  0  0  0
   -3.7627    3.0776    0.0000 C   0  0  0  0  0  0  0  0  0  0  0  0
    2.7324    0.8276    0.0000 C   0  0  0  0  0  0  0  0  0  0  0  0
   -2.4642    0.8267    0.0000 C   0  0  0  0  0  0  0  0  0  0  0  0
   -1.1642    3.0784    0.0000 C   0  0  0  0  0  0  0  0  0  0  0  0
   -2.4637    2.3276    0.0000 C   0  0  0  0  0  0  0  0  0  0  0  0
    0.1344    0.8276    0.0000 C   0  0  0  0  0  0  0  0  0  0  0  0
   -1.1651    0.0767    0.0000 Si  0  0  0  0  0  4  0  0  0  0  0  0
    0.1349    2.3284    0.0000 Si  0  0  0  0  0  4  0  0  0  0  0  0
  6  5  2  0
 10  5  1  0
 11  7  2  0
 12  8  1  0
 13  9  2  0
 14  6  1  0
 15  7  1  0
 16  8  2  0
 17  9  1  0
 18 10  2  0
 18 13  1  0
 19 11  1  0
 19 12  2  0
 20 14  2  0
 20 18  1  0
 21 15  2  0
 22 16  1  0
 23 19  1  0
 23 21  1  0
 23 22  2  0
 24 17  1  0
 24 20  1  0
 25  1  1  0
 25  2  1  0
 25 21  1  0
 25 24  1  0
 26  3  1  0
 26  4  1  0
 26 22  1  0
 26 24  1  0
M  END
>  <NAME>  (358) 
2,3-DIHYDRO-1,1,3,3-TETRAMETHYL-1,3-DISILAPHENALENE-2-SPIRO-1',2'-DIHYDRONAPHTHALENE

>  <SYNONYMS>  (358) 


>  <SPECTRUM TYPE>  (358) 
MS1

>  <INSTRUMENT TYPE>  (358) 
EI-B

>  <INSTRUMENT>  (358) 
SHIMADZU QP-1000

>  <ION MODE>  (358) 
P

>  <INCHIKEY>  (358) 
OCLRIMUNJXLNRW-UHFFFAOYSA-N

>  <FORMULA>  (358) 
C24H26Si2

>  <EXACT MASS>  (358) 
370.157303892

>  <MW>  (358) 
370

>  <ID>  (358) 
JP011678

>  <CONTRIBUTOR>  (358) 
University of Tokyo Team, {Faculty of Engineering, University of Tokyo

>  <COMMENT>  (358) 
SMILES=c(C([Si]5(C)C)([Si](c(c43)cccc3cccc45)(C)C)1)(c2)c(ccc2)C=CC1
InChI=InChI=1S/C24H26Si2/c1-25(2)21-15-7-11-19-12-8-16-22(23(19)21)26(3,4)24(25)17-9-13-18-10-5-6-14-20(18)24/h5-16H,17H2,1-4H3
computed SMILES=C=1C=CC2=C(C1)C=CCC23[Si](C=4C=CC=C5C=CC=C(C54)[Si]3(C)C)(C)C
accession=JP011678
date=2016.01.19 (Created 2008.10.21, modified 2011.05.06)
author=FAC. TECHNOLOGY, HIROSHIMA UNIV.
license=CC BY-NC-SA
exact mass=370.1573
ionization energy=70 eV
ion type=[M]+*
computed spectral entropy=2.6878834996689864
computed normalized entropy=0.7443767941267563
SPLASH=splash10-000i-1931000000-f1d9154b2f3d7776620d
submitter=submitter = University of Tokyo Team (Faculty of Engineering, University of Tokyo)
MoNA Rating=3.75

>  <NUM PEAKS>  (358) 
37

>  <MASS SPECTRAL PEAKS>  (358) 
43 7.4
45 3.2
58 2.1
59 4.3
73 10.6
128 2.1
129 1.1
145 1.1
155 5.3
167 8.5
168 2.1
169 11.7
171 4.3
181 3.2
183 10.6
184 2.1
185 99.99
186 19.1
187 4.3
195 2.1
197 1.1
211 1.1
225 1.1
227 11.7
228 2.1
242 1.1
252 2.1
281 1.1
295 2.1
297 43.6
298 11.7
299 1.1
311 4.3
312 1.1
370 19.1
371 6.4
372 1.1

$$$$

     RDKit          2D

 23 26  0  0  0  0  0  0  0  0999 V2000
    0.0010    3.7500    0.0000 C   0  0  0  0  0  0  0  0  0  0  0  0
    1.8130    4.4095    0.0000 C   0  0  0  0  0  0  0  0  0  0  0  0
   -2.6000   -0.7500    0.0000 C   0  0  0  0  0  0  0  0  0  0  0  0
    5.6703    6.1896    0.0000 C   0  0  0  0  0  0  0  0  0  0  0  0
   -2.6000    0.7500    0.0000 C   0  0  0  0  0  0  0  0  0  0  0  0
    4.1930    6.4500    0.0000 C   0  0  0  0  0  0  0  0  0  0  0  0
    2.6000   -0.7500    0.0000 C   0  0  0  0  0  0  0  0  0  0  0  0
    4.7673    1.0686    0.0000 C   0  0  0  0  0  0  0  0  0  0  0  0
   -1.3000   -1.5000    0.0000 C   0  0  0  0  0  0  0  0  0  0  0  0
    6.1831    4.7791    0.0000 C   0  0  0  0  0  0  0  0  0  0  0  0
    1.3000   -1.5000    0.0000 C   0  0  0  0  0  0  0  0  0  0  0  0
    5.7316    2.2186    0.0000 C   0  0  0  0  0  0  0  0  0  0  0  0
   -1.3000    1.5000    0.0000 C   0  0  0  0  0  0  0  0  0  0  0  0
    3.2287    5.3000    0.0000 C   0  0  0  0  0  0  0  0  0  0  0  0
    2.6000    0.7500    0.0000 C   0  0  0  0  0  0  0  0  0  0  0  0
    3.2901    1.3290    0.0000 C   0  0  0  0  0  0  0  0  0  0  0  0
    0.0000   -0.7500    0.0000 C   0  0  0  0  0  0  0  0  0  0  0  0
    5.2188    3.6291    0.0000 C   0  0  0  0  0  0  0  0  0  0  0  0
    0.0000    0.7500    0.0000 C   0  0  0  0  0  0  0  0  0  0  0  0
    3.7416    3.8895    0.0000 C   0  0  0  0  0  0  0  0  0  0  0  0
    1.3000    1.5000    0.0000 C   0  0  0  0  0  0  0  0  0  0  0  0
    2.7772    2.7395    0.0000 C   0  0  0  0  0  0  0  0  0  0  0  0
    1.3000    3.0000    0.0000 Si  0  0  0  0  0  4  0  0  0  0  0  0
  5  3  2  0
  6  4  2  0
  9  3  1  0
 10  4  1  0
 11  7  2  0
 12  8  2  0
 13  5  1  0
 14  6  1  0
 15  7  1  0
 16  8  1  0
 17  9  2  0
 17 11  1  0
 18 10  2  0
 18 12  1  0
 19 13  2  0
 19 17  1  0
 20 14  2  0
 20 18  1  0
 21 15  2  0
 21 19  1  0
 22 16  2  0
 22 20  1  0
 23  1  1  0
 23  2  1  0
 23 21  1  0
 23 22  1  0
M  END
>  <NAME>  (359) 
DIMETHYLDI(1-NAPHTHYL)SILANE

>  <SYNONYMS>  (359) 


>  <SPECTRUM TYPE>  (359) 
MS1

>  <INSTRUMENT TYPE>  (359) 
EI-B

>  <INSTRUMENT>  (359) 
SHIMADZU QP-1000

>  <ION MODE>  (359) 
P

>  <INCHIKEY>  (359) 
SHCZBMYTPGCRGJ-UHFFFAOYSA-N

>  <FORMULA>  (359) 
C22H20Si

>  <EXACT MASS>  (359) 
312.13342717

>  <MW>  (359) 
312

>  <ID>  (359) 
JP011677

>  <CONTRIBUTOR>  (359) 
University of Tokyo Team, {Faculty of Engineering, University of Tokyo

>  <COMMENT>  (359) 
SMILES=c(c4)cc(c3)c(c4)c(cc3)[Si](C)(C)c(c1)c(c2)c(ccc2)cc1
InChI=InChI=1S/C22H20Si/c1-23(2,21-15-7-11-17-9-3-5-13-19(17)21)22-16-8-12-18-10-4-6-14-20(18)22/h3-16H,1-2H3
computed SMILES=C=1C=CC2=C(C1)C=CC=C2[Si](C3=CC=CC=4C=CC=CC43)(C)C
accession=JP011677
date=2016.01.19 (Created 2008.10.21, modified 2011.05.06)
author=FAC. TECHNOLOGY, HIROSHIMA UNIV.
license=CC BY-NC-SA
exact mass=312.13343
ionization energy=70 eV
ion type=[M]+*
computed spectral entropy=2.688265784033175
computed normalized entropy=0.7337847820503257
SPLASH=splash10-01ot-0694000000-a6065be633a24a42e39a
submitter=submitter = University of Tokyo Team (Faculty of Engineering, University of Tokyo)
MoNA Rating=3.75

>  <NUM PEAKS>  (359) 
39

>  <MASS SPECTRAL PEAKS>  (359) 
43 4.3
53 1.1
59 1.1
115 2.1
127 1.1
128 1.1
129 3.2
140 1.1
141 2.1
143 1.1
147 2.1
148 2.1
153 1.1
154 1.1
155 7.4
156 2.1
167 21.3
168 4.3
169 41.5
170 7.4
171 1.1
181 2.1
183 4.3
185 8.5
250 1.1
252 10.6
253 12.8
254 3.2
265 2.1
279 1.1
281 1.1
295 4.3
297 99.99
298 27.7
299 6.4
311 6.4
312 58.5
313 16
314 3.2

$$$$

     RDKit          2D

 18 19  0  0  0  0  0  0  0  0999 V2000
    4.3394   -1.6818    0.0000 C   0  0  0  0  0  0  0  0  0  0  0  0
    4.8888    0.3671    0.0000 C   0  0  0  0  0  0  0  0  0  0  0  0
    2.8398    0.9165    0.0000 C   0  0  0  0  0  0  0  0  0  0  0  0
    1.3261   -2.2814    0.0000 C   0  0  0  0  0  0  0  0  0  0  0  0
   -1.6085    1.1178    0.0000 C   0  0  0  0  0  0  0  0  0  0  0  0
    5.4931   -4.9482    0.0000 C   0  0  0  0  0  0  0  0  0  0  0  0
   -0.3085    1.8678    0.0000 C   0  0  0  0  0  0  0  0  0  0  0  0
   -1.6085   -0.3822    0.0000 C   0  0  0  0  0  0  0  0  0  0  0  0
    4.0150   -5.2084    0.0000 C   0  0  0  0  0  0  0  0  0  0  0  0
    6.0061   -3.5387    0.0000 C   0  0  0  0  0  0  0  0  0  0  0  0
    0.9915    1.1178    0.0000 C   0  0  0  0  0  0  0  0  0  0  0  0
   -0.3085   -1.1322    0.0000 C   0  0  0  0  0  0  0  0  0  0  0  0
    3.0499   -4.0590    0.0000 C   0  0  0  0  0  0  0  0  0  0  0  0
    5.0410   -2.3893    0.0000 C   0  0  0  0  0  0  0  0  0  0  0  0
    0.9915   -0.3822    0.0000 C   0  0  0  0  0  0  0  0  0  0  0  0
    3.5629   -2.6494    0.0000 C   0  0  0  0  0  0  0  0  0  0  0  0
    3.5896   -0.3827    0.0000 Si  0  0  0  0  0  4  0  0  0  0  0  0
    2.2904   -1.1325    0.0000 Si  0  0  0  0  0  4  0  0  0  0  0  0
  7  5  2  0
  8  5  1  0
  9  6  2  0
 10  6  1  0
 11  7  1  0
 12  8  2  0
 13  9  1  0
 14 10  2  0
 15 11  2  0
 15 12  1  0
 16 13  2  0
 16 14  1  0
 17  1  1  0
 17  2  1  0
 17  3  1  0
 18  4  1  0
 18 15  1  0
 18 16  1  0
 18 17  1  0
M  END
>  <NAME>  (360) 
1,1-DIPHENYLTETRAMETHYLDISILANE

>  <SYNONYMS>  (360) 


>  <SPECTRUM TYPE>  (360) 
MS1

>  <INSTRUMENT TYPE>  (360) 
EI-B

>  <INSTRUMENT>  (360) 
SHIMADZU QP-1000

>  <ION MODE>  (360) 
P

>  <INCHIKEY>  (360) 
ZQZXXLQCPQMXIO-UHFFFAOYSA-N

>  <FORMULA>  (360) 
C16H22Si2

>  <EXACT MASS>  (360) 
270.12600376399996

>  <MW>  (360) 
270

>  <ID>  (360) 
JP011676

>  <CONTRIBUTOR>  (360) 
University of Tokyo Team, {Faculty of Engineering, University of Tokyo

>  <COMMENT>  (360) 
SMILES=c(c2)ccc(c2)[Si](C)(c(c1)cccc1)[Si](C)(C)C
InChI=InChI=1S/C16H22Si2/c1-17(2,3)18(4,15-11-7-5-8-12-15)16-13-9-6-10-14-16/h5-14H,1-4H3
computed SMILES=C=1C=CC(=CC1)[Si](C=2C=CC=CC2)(C)[Si](C)(C)C
accession=JP011676
date=2016.01.19 (Created 2008.10.21, modified 2011.05.06)
author=FAC. TECHNOLOGY, HIROSHIMA UNIV.
license=CC BY-NC-SA
exact mass=270.126
ionization energy=70 eV
ion type=[M]+*
computed spectral entropy=3.018493497573044
computed normalized entropy=0.7839942282296835
SPLASH=splash10-0002-2910000000-a29160204f2b715680a2
submitter=submitter = University of Tokyo Team (Faculty of Engineering, University of Tokyo)
MoNA Rating=3.75

>  <NUM PEAKS>  (360) 
47

>  <MASS SPECTRAL PEAKS>  (360) 
52 1.4
53 1.4
54 12
55 12
56 2.8
58 2.8
59 2.1
60 2.1
67 2.1
69 2.1
73 33.8
74 3.5
75 1.4
77 1.4
79 4.2
91 3.5
93 9.2
95 1.4
102 2.1
103 2.1
105 36.6
106 4.2
107 7.7
119 10.6
120 5.6
121 3.5
135 67.6
136 8.5
137 2.1
145 1.4
155 1.4
165 6.3
177 2.1
179 2.1
180 2.8
181 11.3
182 3.5
193 2.8
195 13.4
197 99.99
198 41.5
199 9.9
255 10.6
256 2.1
270 26.8
271 6.3
272 2.1

$$$$

     RDKit          2D

 14 13  0  0  0  0  0  0  0  0999 V2000
    0.6764    3.0736    0.0000 C   0  0  0  0  0  0  0  0  0  0  0  0
    3.2745    4.5736    0.0000 C   0  0  0  0  0  0  0  0  0  0  0  0
    1.4264   -1.2255    0.0000 C   0  0  0  0  0  0  0  0  0  0  0  0
   -0.0736    1.3726    0.0000 C   0  0  0  0  0  0  0  0  0  0  0  0
   -0.6226   -0.6764    0.0000 C   0  0  0  0  0  0  0  0  0  0  0  0
    5.1226    4.3726    0.0000 C   0  0  0  0  0  0  0  0  0  0  0  0
    7.1716    3.8236    0.0000 C   0  0  0  0  0  0  0  0  0  0  0  0
    6.6226    1.7745    0.0000 C   0  0  0  0  0  0  0  0  0  0  0  0
    1.9755    0.8236    0.0000 C   0  0  0  0  0  0  0  0  0  0  0  0
    4.5736    2.3236    0.0000 C   0  0  0  0  0  0  0  0  0  0  0  0
    1.9755    2.3236    0.0000 C   0  0  0  0  0  0  0  0  0  0  0  0
    3.2745    3.0736    0.0000 C   0  0  0  0  0  0  0  0  0  0  0  0
    0.6764    0.0736    0.0000 Si  0  0  0  0  0  4  0  0  0  0  0  0
    5.8726    3.0736    0.0000 Si  0  0  0  0  0  4  0  0  0  0  0  0
 11  1  1  0
 11  9  1  0
 12  2  1  0
 12 10  1  0
 11 12  2  0
 13  3  1  0
 13  4  1  0
 13  5  1  0
 13  9  1  0
 14  6  1  0
 14  7  1  0
 14  8  1  0
 14 10  1  0
M  END
>  <NAME>  (361) 
1,4-BIS(TRIMETHYLSILYL)-2,3-DIMETHYL-2-BUTENE

>  <SYNONYMS>  (361) 


>  <SPECTRUM TYPE>  (361) 
MS1

>  <INSTRUMENT TYPE>  (361) 
EI-B

>  <INSTRUMENT>  (361) 
SHIMADZU QP-1000

>  <ION MODE>  (361) 
P

>  <INCHIKEY>  (361) 
NWOONZIQJRZSMV-QXMHVHEDSA-N

>  <FORMULA>  (361) 
C12H28Si2

>  <EXACT MASS>  (361) 
228.17295395600001

>  <MW>  (361) 
228

>  <ID>  (361) 
JP011675

>  <CONTRIBUTOR>  (361) 
University of Tokyo Team, {Faculty of Engineering, University of Tokyo

>  <COMMENT>  (361) 
SMILES=CC(C[Si](C)(C)C)=C(C)C[Si](C)(C)C
InChI=InChI=1S/C12H28Si2/c1-11(9-13(3,4)5)12(2)10-14(6,7)8/h9-10H2,1-8H3/b12-11-
computed SMILES=C(=C(C)C[Si](C)(C)C)(C)C[Si](C)(C)C
accession=JP011675
date=2016.01.19 (Created 2008.10.21, modified 2011.05.06)
author=FAC. TECHNOLOGY, HIROSHIMA UNIV.
license=CC BY-NC-SA
exact mass=228.17295
ionization energy=70 eV
ion type=[M]+*
computed spectral entropy=1.9155781080497059
computed normalized entropy=0.6627445423989374
SPLASH=splash10-004i-0900000000-82d5ee4f9b39ee3287cf
submitter=submitter = University of Tokyo Team (Faculty of Engineering, University of Tokyo)
MoNA Rating=3.75

>  <NUM PEAKS>  (361) 
18

>  <MASS SPECTRAL PEAKS>  (361) 
109 2.1
111 2.1
112 3.2
123 5.3
125 99.99
126 12.8
127 3.2
131 1.1
139 14.9
140 24.5
141 4.3
154 4.3
155 11.7
156 1.1
227 2.9
228 2.1
229 5.3
230 1.4

$$$$

     RDKit          2D

 29 31  0  0  0  0  0  0  0  0999 V2000
    0.5722    3.7164    0.0000 C   0  0  0  0  0  0  0  0  0  0  0  0
    3.0702   -3.2088    0.0000 C   0  0  0  0  0  0  0  0  0  0  0  0
    0.4721   -4.7088    0.0000 C   0  0  0  0  0  0  0  0  0  0  0  0
   -1.8876   -0.5195    0.0000 C   0  0  0  0  0  0  0  0  0  0  0  0
   -2.2969    3.0873    0.0000 C   0  0  0  0  0  0  0  0  0  0  0  0
    0.6220    0.9294    0.0000 C   0  0  0  0  0  0  0  0  0  0  0  0
   -3.0373    0.1745    0.0000 C   0  0  0  0  0  0  0  0  0  0  0  0
   -4.2540   -1.5631    0.0000 C   0  0  0  0  0  0  0  0  0  0  0  0
   -2.5164   -2.7799    0.0000 C   0  0  0  0  0  0  0  0  0  0  0  0
    4.7849    2.2812    0.0000 C   0  0  0  0  0  0  0  0  0  0  0  0
    3.4854    3.0320    0.0000 C   0  0  0  0  0  0  0  0  0  0  0  0
    4.7854    0.7803    0.0000 C   0  0  0  0  0  0  0  0  0  0  0  0
   -3.3443    4.3338    0.0000 C   0  0  0  0  0  0  0  0  0  0  0  0
   -3.8591    2.9333    0.0000 C   0  0  0  0  0  0  0  0  0  0  0  0
   -1.8670    4.5941    0.0000 C   0  0  0  0  0  0  0  0  0  0  0  0
    2.1864    2.2820    0.0000 C   0  0  0  0  0  0  0  0  0  0  0  0
    3.4864    0.0303    0.0000 C   0  0  0  0  0  0  0  0  0  0  0  0
   -2.8949    1.7831    0.0000 C   0  0  0  0  0  0  0  0  0  0  0  0
    1.7712   -0.9588    0.0000 C   0  0  0  0  0  0  0  0  0  0  0  0
   -0.8269   -2.4588    0.0000 C   0  0  0  0  0  0  0  0  0  0  0  0
   -0.9046    3.4537    0.0000 C   0  0  0  0  0  0  0  0  0  0  0  0
    1.7712   -2.4588    0.0000 C   0  0  0  0  0  0  0  0  0  0  0  0
    0.4721   -3.2088    0.0000 C   0  0  0  0  0  0  0  0  0  0  0  0
    2.1869    0.7812    0.0000 C   0  0  0  0  0  0  0  0  0  0  0  0
   -1.4177    2.0433    0.0000 C   0  0  0  0  0  0  0  0  0  0  0  0
    0.4721   -0.2088    0.0000 C   0  0  0  0  0  0  0  0  0  0  0  0
   -0.8269    0.5412    0.0000 Si  0  0  0  0  0  4  0  0  0  0  0  0
   -2.7768   -1.3027    0.0000 Si  0  0  0  0  0  4  0  0  0  0  0  0
   -0.8269   -0.9588    0.0000 Si  0  0  0  0  0  4  0  0  0  0  0  0
 11 10  2  0
 12 10  1  0
 14 13  2  0
 15 13  1  0
 16 11  1  0
 17 12  2  0
 18 14  1  0
 21  1  1  0
 21 15  2  0
 22  2  1  0
 22 19  1  0
 23  3  1  0
 23 20  1  0
 23 22  2  0
 24 16  2  0
 24 17  1  0
 25 18  2  0
 25 21  1  0
 26 19  1  0
 26 24  1  0
 26 25  1  0
 27  4  1  0
 27  5  1  0
 27  6  1  0
 28  7  1  0
 28  8  1  0
 28  9  1  0
 29 20  1  0
 29 26  1  0
 29 27  1  0
 29 28  1  0
M  END
>  <NAME>  (362) 
3,4 DIMETHYL-6-(2-METHYLPHENYL)-6-PHENYL-1,1-BIS(TRIMETHLSILYL)-1-SILACYCLOHEX-3-ENE

>  <SYNONYMS>  (362) 


>  <SPECTRUM TYPE>  (362) 
MS1

>  <INSTRUMENT TYPE>  (362) 
EI-B

>  <INSTRUMENT>  (362) 
SHIMADZU QP-1000

>  <ION MODE>  (362) 
P

>  <INCHIKEY>  (362) 
OXASNBRYTYGECG-UHFFFAOYSA-N

>  <FORMULA>  (362) 
C26H40Si3

>  <EXACT MASS>  (362) 
436.24378086999997

>  <MW>  (362) 
436

>  <ID>  (362) 
JP011674

>  <CONTRIBUTOR>  (362) 
University of Tokyo Team, {Faculty of Engineering, University of Tokyo

>  <COMMENT>  (362) 
SMILES=c(c1C)cccc1C([Si]3([Si](C)(C)C)[Si](C)(C)C)(CC(=C(C3)C)C)c(c2)cccc2
InChI=InChI=1S/C26H40Si3/c1-21-15-13-14-18-25(21)26(24-16-11-10-12-17-24)19-22(2)23(3)20-29(26,27(4,5)6)28(7,8)9/h10-18H,19-20H2,1-9H3
computed SMILES=C=1C=CC(=CC1)C2(C=3C=CC=CC3C)CC(=C(C)C[Si]2([Si](C)(C)C)[Si](C)(C)C)C
accession=JP011674
license=CC BY-NC-SA
date=2016.01.19 (Created 2008.10.21, modified 2011.05.06)
author=FAC. TECHNOLOGY, HIROSHIMA UNIV.
exact mass=436.24378
ionization energy=70 eV
ion type=[M]+*
computed spectral entropy=3.645191204141367
computed normalized entropy=0.8004588817200545
SPLASH=splash10-00di-9422000000-03c475120112cf93cb52
submitter=submitter = University of Tokyo Team (Faculty of Engineering, University of Tokyo)
MoNA Rating=3.75

>  <NUM PEAKS>  (362) 
95

>  <MASS SPECTRAL PEAKS>  (362) 
51 1.1
53 4.3
55 3.2
57 2.1
58 3.2
59 37.2
60 2.1
67 3.2
69 3.2
71 1.1
73 99.99
74 8.5
75 2.1
83 3.2
85 3.2
91 2.1
97 1.1
99 2.1
101 2.1
105 5.3
109 1.1
111 1.1
115 2.1
117 2.1
119 1.1
121 4.3
123 2.1
125 3.2
127 1.1
129 2.1
131 4.3
135 12.8
141 2.1
145 3.2
149 3.2
155 1.7
159 2.3
165 1.7
167 2.3
169 2.6
173 1.3
175 2.3
177 1.5
178 2.3
179 3.2
180 1.1
181 7.4
182 1.7
183 1.3
191 2.3
193 2.1
195 1.3
197 1.5
199 1.3
205 1.5
207 1.3
209 1.3
211 3.4
212 1.1
213 4.3
221 1.1
222 4.9
223 2.3
227 4
228 1.1
231 1.1
235 1.5
247 1.1
255 2.3
261 1.5
262 2
263 1.7
265 2
271 1.7
277 1.7
280 1.1
281 1.3
285 1.5
289 1.3
292 2.3
293 6.6
294 1.9
307 1.9
320 2.3
321 5.3
322 1.7
323 1.1
354 1.5
362 5.7
363 13.4
364 5.3
365 2.1
394 2.1
436 5.3
437 5.7

$$$$

     RDKit          2D

 20 19  0  0  0  0  0  0  0  0999 V2000
    3.2476    4.8750    0.0000 C   0  0  0  0  0  0  0  0  0  0  0  0
   -2.8509   -0.2422    0.0000 C   0  0  0  0  0  0  0  0  0  0  0  0
   -8.4437    5.6250    0.0000 C   0  0  0  0  0  0  0  0  0  0  0  0
   -2.3453   10.7422    0.0000 C   0  0  0  0  0  0  0  0  0  0  0  0
    1.9486    5.6250    0.0000 C   0  0  0  0  0  0  0  0  0  0  0  0
   -3.3639    1.1673    0.0000 C   0  0  0  0  0  0  0  0  0  0  0  0
   -7.1447    4.8750    0.0000 C   0  0  0  0  0  0  0  0  0  0  0  0
   -1.8323    9.3327    0.0000 C   0  0  0  0  0  0  0  0  0  0  0  0
    0.6495    4.8750    0.0000 C   0  0  0  0  0  0  0  0  0  0  0  0
   -2.3997    2.3164    0.0000 C   0  0  0  0  0  0  0  0  0  0  0  0
   -5.8457    5.6250    0.0000 C   0  0  0  0  0  0  0  0  0  0  0  0
   -2.7964    8.1836    0.0000 C   0  0  0  0  0  0  0  0  0  0  0  0
   -0.6495    5.6250    0.0000 C   0  0  0  0  0  0  0  0  0  0  0  0
   -2.9127    3.7259    0.0000 C   0  0  0  0  0  0  0  0  0  0  0  0
   -4.5466    4.8750    0.0000 C   0  0  0  0  0  0  0  0  0  0  0  0
   -2.2834    6.7741    0.0000 C   0  0  0  0  0  0  0  0  0  0  0  0
   -0.9844    3.7259    0.0000 Cl  0  0  0  0  0  0  0  0  0  0  0  0
   -4.2118    6.7741    0.0000 Cl  0  0  0  0  0  0  0  0  0  0  0  0
   -1.9486    4.8750    0.0000 Si  0  0  0  0  0  4  0  0  0  0  0  0
   -3.2476    5.6250    0.0000 Si  0  0  0  0  0  4  0  0  0  0  0  0
  5  1  1  0
  6  2  1  0
  7  3  1  0
  8  4  1  0
  9  5  1  0
 10  6  1  0
 11  7  1  0
 12  8  1  0
 13  9  1  0
 14 10  1  0
 15 11  1  0
 16 12  1  0
 19 13  1  0
 19 14  1  0
 19 17  1  0
 20 15  1  0
 20 16  1  0
 20 18  1  0
 20 19  1  0
M  END
>  <NAME>  (363) 
TETRA(N-BUTYL)-1,2-DICHLORODISILANE

>  <SYNONYMS>  (363) 


>  <SPECTRUM TYPE>  (363) 
MS1

>  <INSTRUMENT TYPE>  (363) 
EI-B

>  <INSTRUMENT>  (363) 
SHIMADZU QP-1000

>  <ION MODE>  (363) 
P

>  <INCHIKEY>  (363) 
DIQHHFKDWOIRSK-UHFFFAOYSA-N

>  <FORMULA>  (363) 
C16H36Cl2Si2

>  <EXACT MASS>  (363) 
354.173259572

>  <MW>  (363) 
354

>  <ID>  (363) 
JP011671

>  <CONTRIBUTOR>  (363) 
University of Tokyo Team, {Faculty of Engineering, University of Tokyo

>  <COMMENT>  (363) 
SMILES=CCCC[Si](Cl)(CCCC)[Si](Cl)(CCCC)CCCC
InChI=InChI=1S/C16H36Cl2Si2/c1-5-9-13-19(17,14-10-6-2)20(18,15-11-7-3)16-12-8-4/h5-16H2,1-4H3
computed SMILES=Cl[Si](CCCC)(CCCC)[Si](Cl)(CCCC)CCCC
accession=JP011671
date=2016.01.19 (Created 2008.10.21, modified 2011.05.06)
author=FAC. TECHNOLOGY, HIROSHIMA UNIV.
license=CC BY-NC-SA
exact mass=354.17326
ionization energy=70 eV
ion type=[M]+*
computed spectral entropy=3.5934073492211005
computed normalized entropy=0.8576857928591664
SPLASH=splash10-03dr-8900000000-4b2460a7d2b00dd60872
submitter=submitter = University of Tokyo Team (Faculty of Engineering, University of Tokyo)
MoNA Rating=3.75

>  <NUM PEAKS>  (363) 
66

>  <MASS SPECTRAL PEAKS>  (363) 
55 18.1
56 4.3
57 11.7
58 12.8
59 23.4
60 1.1
63 10.6
65 7.4
67 2.1
69 1.1
71 6.4
72 18.1
73 5.3
78 2.1
79 19.1
80 1.1
81 6.4
83 4.3
84 5.3
85 24.5
86 44.7
87 11.7
88 1.1
91 3.2
92 4.3
93 21.3
94 2.1
95 7.4
99 10.6
100 16
101 7.4
103 1.1
105 3.2
107 2.1
112 3.2
113 13.8
114 99.99
115 11.7
116 2.1
119 5.3
121 23.4
122 2.1
123 8.5
127 2.1
129 3.2
131 2.1
135 5.3
137 1.1
140 7.4
141 2.1
142 23.4
143 11.7
144 2.1
145 2.1
147 2.1
148 6.4
149 2.1
150 2.1
157 2.1
159 1.1
176 12.8
177 14.9
178 6.4
179 4.3
185 5.3
187 2.1

$$$$

     RDKit          2D

 28 30  0  0  0  0  0  0  0  0999 V2000
    0.0806    4.2503    0.0000 C   0  0  0  0  0  0  0  0  0  0  0  0
   -1.4090    2.9058    0.0000 C   0  0  0  0  0  0  0  0  0  0  0  0
    2.7105   -1.8303    0.0000 C   0  0  0  0  0  0  0  0  0  0  0  0
    4.6908   -1.0698    0.0000 C   0  0  0  0  0  0  0  0  0  0  0  0
    4.3622    0.6192    0.0000 C   0  0  0  0  0  0  0  0  0  0  0  0
   -7.4749    1.8399    0.0000 C   0  0  0  0  0  0  0  0  0  0  0  0
   -8.0243   -0.2090    0.0000 C   0  0  0  0  0  0  0  0  0  0  0  0
   -5.9753   -0.7584    0.0000 C   0  0  0  0  0  0  0  0  0  0  0  0
   -4.4616    2.4395    0.0000 C   0  0  0  0  0  0  0  0  0  0  0  0
   -6.3900    2.4398    0.0000 C   0  0  0  0  0  0  0  0  0  0  0  0
    3.0649    0.3270    0.0000 C   0  0  0  0  0  0  0  0  0  0  0  0
    3.4819    2.2905    0.0000 C   0  0  0  0  0  0  0  0  0  0  0  0
   -2.8271   -1.7097    0.0000 C   0  0  0  0  0  0  0  0  0  0  0  0
   -4.1271   -0.9597    0.0000 C   0  0  0  0  0  0  0  0  0  0  0  0
   -0.2271   -1.7097    0.0000 C   0  0  0  0  0  0  0  0  0  0  0  0
    1.0729   -0.9597    0.0000 C   0  0  0  0  0  0  0  0  0  0  0  0
   -2.8271    1.2903    0.0000 C   0  0  0  0  0  0  0  0  0  0  0  0
   -1.5271   -0.9597    0.0000 C   0  0  0  0  0  0  0  0  0  0  0  0
   -4.1271    0.5403    0.0000 C   0  0  0  0  0  0  0  0  0  0  0  0
   -1.5271    0.5403    0.0000 C   0  0  0  0  0  0  0  0  0  0  0  0
   -0.2271    1.2903    0.0000 C   0  0  0  0  0  0  0  0  0  0  0  0
    0.0829    2.7503    0.0000 C   0  0  0  0  0  0  0  0  0  0  0  0
    1.0729    0.5403    0.0000 C   0  0  0  0  0  0  0  0  0  0  0  0
    1.5729    2.9103    0.0000 O   0  0  0  0  0  0  0  0  0  0  0  0
    3.3204   -0.4599    0.0000 Si  0  0  0  0  0  4  0  0  0  0  0  0
   -6.7251    0.5408    0.0000 Si  0  0  0  0  0  4  0  0  0  0  0  0
   -5.4260    1.2906    0.0000 Si  0  0  0  0  0  4  0  0  0  0  0  0
    2.1829    1.5403    0.0000 Si  0  0  0  0  0  4  0  0  0  0  0  0
 14 13  2  0
 16 15  2  0
 18 13  1  0
 18 15  1  0
 19 14  1  0
 19 17  2  0
 20 17  1  0
 20 18  2  0
 21 20  1  0
 22  1  1  0
 22  2  1  0
 22 21  1  0
 23 16  1  0
 23 21  1  0
 24 22  1  0
 25  3  1  0
 25  4  1  0
 25  5  1  0
 25 23  1  0
 26  6  1  0
 26  7  1  0
 26  8  1  0
 27  9  1  0
 27 10  1  0
 27 19  1  0
 27 26  1  0
 28 11  1  0
 28 12  1  0
 28 23  1  0
 28 24  1  0
M  END
>  <NAME>  (364) 
7,8-DIHYDRO-2-(PENTAMETHYLDISILANYL)-7,8-(1,1,3,3-TETRAMETHYL-2-OXA-1-SILA-1,3-PROPANEDIYL)-7-(TRIMETHYLSILYL)NAPHTHALENE

>  <SYNONYMS>  (364) 


>  <SPECTRUM TYPE>  (364) 
MS1

>  <INSTRUMENT TYPE>  (364) 
EI-B

>  <INSTRUMENT>  (364) 
SHIMADZU QP-1000

>  <ION MODE>  (364) 
P

>  <INCHIKEY>  (364) 
RSFDNGIJKSFATQ-UHFFFAOYSA-N

>  <FORMULA>  (364) 
C23H42OSi4

>  <EXACT MASS>  (364) 
446.23127208399995

>  <MW>  (364) 
446

>  <ID>  (364) 
JP011670

>  <CONTRIBUTOR>  (364) 
University of Tokyo Team, {Faculty of Engineering, University of Tokyo

>  <COMMENT>  (364) 
SMILES=C[Si](C)(C)[Si](C)(C)c(c3)cc(c(c3)2)C(C(C)(C)1)C(C=C2)([Si](C)(C)C)[Si](C)(C)O1
InChI=InChI=1S/C23H42OSi4/c1-22(2)21-20-17-19(27(9,10)26(6,7)8)14-13-18(20)15-16-23(21,25(3,4)5)28(11,12)24-22/h13-17,21H,1-12H3
computed SMILES=O1C(C)(C)C2C=3C=C(C=CC3C=CC2([Si]1(C)C)[Si](C)(C)C)[Si](C)(C)[Si](C)(C)C
accession=JP011670
date=2016.01.19 (Created 2008.10.21, modified 2011.05.06)
author=FAC. TECHNOLOGY, HIROSHIMA UNIV.
license=CC BY-NC-SA
exact mass=446.23127
ionization energy=70 eV
ion type=[M]+*
computed spectral entropy=3.3659228294447874
computed normalized entropy=0.8063273989260077
SPLASH=splash10-014i-5955000000-dd50337d5651a016a093
submitter=submitter = University of Tokyo Team (Faculty of Engineering, University of Tokyo)
MoNA Rating=3.75

>  <NUM PEAKS>  (364) 
65

>  <MASS SPECTRAL PEAKS>  (364) 
45 5.3
47 16
59 5.3
60 7.4
62 3.2
73 99.99
74 9.6
75 24.5
76 1.1
101 19.1
102 1.1
115 7.5
116 91.5
117 11.7
118 4.2
121 1.1
131 36.2
132 5.3
133 4.3
147 43.6
148 5.3
149 3.2
167 2.1
169 6.4
176 3.2
178 11.7
179 2.1
180 5.3
195 3.2
197 2.1
198 1.1
205 5.3
211 2.1
225 7.4
226 3.2
227 33
228 7.4
229 2.1
240 3.2
241 6.4
242 6.4
243 10.6
244 2.1
257 43.6
258 11.7
259 3.2
283 3.2
284 1.1
285 6.4
299 11.7
300 6.4
301 1.1
314 3.2
315 88.3
316 26.6
317 9.6
318 1.1
331 2.3
373 6
374 2.1
388 3
389 1.3
446 8.5
447 3.8
448 1.7

$$$$

     RDKit          2D

  8  8  0  0  0  0  0  0  0  0999 V2000
    3.8981   -0.7504    0.0000 C   0  0  0  0  0  0  0  0  0  0  0  0
   -1.3000    0.7500    0.0000 C   0  0  0  0  0  0  0  0  0  0  0  0
    0.0000    1.5000    0.0000 C   0  0  0  0  0  0  0  0  0  0  0  0
   -1.3000   -0.7500    0.0000 C   0  0  0  0  0  0  0  0  0  0  0  0
    1.3000    0.7500    0.0000 C   0  0  0  0  0  0  0  0  0  0  0  0
    0.0000   -1.5000    0.0000 C   0  0  0  0  0  0  0  0  0  0  0  0
    1.3000   -0.7500    0.0000 C   0  0  0  0  0  0  0  0  0  0  0  0
    2.5989   -1.5002    0.0000 Si  0  0  0  0  0  4  0  0  0  0  0  0
  3  2  2  0
  4  2  1  0
  5  3  1  0
  6  4  2  0
  7  5  2  0
  7  6  1  0
  8  1  1  0
  8  7  1  0
M  END
>  <NAME>  (365) 
METHYLPHENYLSILANE

>  <SYNONYMS>  (365) 


>  <SPECTRUM TYPE>  (365) 
MS1

>  <INSTRUMENT TYPE>  (365) 
EI-B

>  <INSTRUMENT>  (365) 
SHIMADZU QP-1000

>  <ION MODE>  (365) 
P

>  <INCHIKEY>  (365) 
QRLBICHXRCOJDU-UHFFFAOYSA-N

>  <FORMULA>  (365) 
C7H10Si

>  <EXACT MASS>  (365) 
122.05517685

>  <MW>  (365) 
122

>  <ID>  (365) 
JP011669

>  <CONTRIBUTOR>  (365) 
University of Tokyo Team, {Faculty of Engineering, University of Tokyo

>  <COMMENT>  (365) 
SMILES=C[SiH2]c(c1)cccc1
InChI=InChI=1S/C7H10Si/c1-8-7-5-3-2-4-6-7/h2-6H,8H2,1H3
computed SMILES=C=1C=CC(=CC1)[SiH2]C
accession=JP011669
date=2016.01.19 (Created 2008.10.21, modified 2011.05.06)
author=FAC. TECHNOLOGY, HIROSHIMA UNIV.
license=CC BY-NC-SA
exact mass=122.05518
ionization energy=70 eV
ion type=[M]+*
computed spectral entropy=2.894441959963389
computed normalized entropy=0.8141093107915975
SPLASH=splash10-05fr-6900000000-9b69bffc7619f799d83d
submitter=submitter = University of Tokyo Team (Faculty of Engineering, University of Tokyo)
MoNA Rating=3.75

>  <NUM PEAKS>  (365) 
35

>  <MASS SPECTRAL PEAKS>  (365) 
52 13.8
53 16
54 64.9
55 63.8
56 14.9
59 3.2
60 9.6
61 3.2
64 1.1
65 5.3
66 7.4
67 8.5
68 1.1
69 6.4
74 6.4
77 14.9
78 9.6
79 16
80 3.2
81 8.5
91 3.2
93 5.3
95 5.3
96 1.1
103 5.3
105 45.7
106 20.2
107 74.5
108 8.5
109 2.1
120 51
121 99.99
122 83
123 11.7
124 2.1

$$$$

     RDKit          2D

  8  7  0  0  0  0  0  0  0  0999 V2000
    1.6740    0.1005    0.0000 C   0  0  0  0  0  0  0  0  0  0  0  0
   -0.9240    1.6005    0.0000 C   0  0  0  0  0  0  0  0  0  0  0  0
   -0.3750   -0.4486    0.0000 C   0  0  0  0  0  0  0  0  0  0  0  0
    2.4240    1.3995    0.0000 C   0  0  0  0  0  0  0  0  0  0  0  0
    1.8750    3.4486    0.0000 C   0  0  0  0  0  0  0  0  0  0  0  0
    0.3750    0.8505    0.0000 C   0  0  0  0  0  0  0  0  0  0  0  0
   -0.1740    2.8995    0.0000 Cl  0  0  0  0  0  0  0  0  0  0  0  0
    1.1250    2.1495    0.0000 Si  0  0  0  0  0  4  0  0  0  0  0  0
  6  1  1  0
  6  2  1  0
  6  3  1  0
  8  4  1  0
  8  5  1  0
  8  6  1  0
  8  7  1  0
M  END
>  <NAME>  (366) 
TERT-BUTYLCHLORODIMETHYLSILANE

>  <SYNONYMS>  (366) 


>  <SPECTRUM TYPE>  (366) 
MS1

>  <INSTRUMENT TYPE>  (366) 
EI-B

>  <INSTRUMENT>  (366) 
SHIMADZU QP-1000

>  <ION MODE>  (366) 
P

>  <INCHIKEY>  (366) 
BCNZYOJHNLTNEZ-UHFFFAOYSA-N

>  <FORMULA>  (366) 
C6H15ClSi

>  <EXACT MASS>  (366) 
150.06315469

>  <MW>  (366) 
150

>  <ID>  (366) 
JP011668

>  <CONTRIBUTOR>  (366) 
University of Tokyo Team, {Faculty of Engineering, University of Tokyo

>  <COMMENT>  (366) 
SMILES=CC(C)(C)[Si](C)(C)Cl
InChI=InChI=1S/C6H15ClSi/c1-6(2,3)8(4,5)7/h1-5H3
computed SMILES=Cl[Si](C)(C)C(C)(C)C
accession=JP011668
date=2016.01.19 (Created 2008.10.21, modified 2011.05.06)
author=FAC. TECHNOLOGY, HIROSHIMA UNIV.
license=CC BY-NC-SA
exact mass=150.06315
ionization energy=70 eV
ion type=[M]+*
computed spectral entropy=2.2485574519684084
computed normalized entropy=0.7636624388816394
SPLASH=splash10-0a4i-9000000000-6f61cf310e7f760f6dde
submitter=submitter = University of Tokyo Team (Faculty of Engineering, University of Tokyo)
MoNA Rating=3.75

>  <NUM PEAKS>  (366) 
19

>  <MASS SPECTRAL PEAKS>  (366) 
56 99.99
57 57
58 18.3
59 63.4
63 7
65 10.6
67 2.1
71 5.6
72 6.3
73 13.4
74 19.7
75 1.4
78 1.4
79 2.1
93 52.8
94 4.2
95 18.3
150 2.3
152 1

$$$$

     RDKit          2D

  9  9  0  0  0  0  0  0  0  0999 V2000
    1.1480    1.5688    0.0000 C   0  0  0  0  0  0  0  0  0  0  0  0
   -0.3438    2.9120    0.0000 C   0  0  0  0  0  0  0  0  0  0  0  0
   -3.7447    0.9485    0.0000 C   0  0  0  0  0  0  0  0  0  0  0  0
   -3.3273   -1.0151    0.0000 C   0  0  0  0  0  0  0  0  0  0  0  0
   -0.0319   -0.0552    0.0000 C   0  0  0  0  0  0  0  0  0  0  0  0
   -1.3309   -0.8052    0.0000 C   0  0  0  0  0  0  0  0  0  0  0  0
   -1.8355    1.5688    0.0000 O   0  0  0  0  0  0  0  0  0  0  0  0
   -0.3438    1.4120    0.0000 Si  0  0  0  0  0  4  0  0  0  0  0  0
   -2.4456    0.1985    0.0000 Si  0  0  0  0  0  4  0  0  0  0  0  0
  6  5  1  0
  8  1  1  0
  8  2  1  0
  8  5  1  0
  8  7  1  0
  9  3  1  0
  9  4  1  0
  9  6  1  0
  9  7  1  0
M  END
>  <NAME>  (367) 
2,2,5,5-TETRAMETHYL-2,5-DISILAOXOLANE

>  <SYNONYMS>  (367) 


>  <SPECTRUM TYPE>  (367) 
MS1

>  <INSTRUMENT TYPE>  (367) 
EI-B

>  <INSTRUMENT>  (367) 
SHIMADZU QP-1000

>  <ION MODE>  (367) 
P

>  <INCHIKEY>  (367) 
ZJWXCSUSULCHCK-UHFFFAOYSA-N

>  <FORMULA>  (367) 
C6H16OSi2

>  <EXACT MASS>  (367) 
160.073968192

>  <MW>  (367) 
160

>  <ID>  (367) 
JP011666

>  <CONTRIBUTOR>  (367) 
University of Tokyo Team, {Faculty of Engineering, University of Tokyo

>  <COMMENT>  (367) 
SMILES=C[Si](C)(C1)O[Si](C)(C)C1
InChI=InChI=1S/C6H16OSi2/c1-8(2)5-6-9(3,4)7-8/h5-6H2,1-4H3
computed SMILES=O1[Si](C)(C)CC[Si]1(C)C
accession=JP011666
date=2016.01.19 (Created 2008.10.21, modified 2011.05.06)
author=FAC. TECHNOLOGY, HIROSHIMA UNIV.
license=CC BY-NC-SA
exact mass=160.07397
ionization energy=70 eV
ion type=[M]+*
computed spectral entropy=2.805767506848463
computed normalized entropy=0.7770233427416352
SPLASH=splash10-06dj-9700000000-8691b26eec5a02a0aacd
submitter=submitter = University of Tokyo Team (Faculty of Engineering, University of Tokyo)
MoNA Rating=3.75

>  <NUM PEAKS>  (367) 
37

>  <MASS SPECTRAL PEAKS>  (367) 
51 31.9
52 22.3
53 4.3
55 5.3
56 1.1
57 6.4
58 48.9
59 66
60 2.1
61 2.1
65 3.2
66 6.4
67 1.1
70 1.1
71 2.1
72 11.7
73 45.7
74 19.1
75 3.2
85 2.1
87 6.4
101 3.2
102 2.1
103 3.2
105 1.1
117 99.99
118 12.8
119 12.8
127 2.1
128 3.2
131 2.1
132 10.6
133 3.2
145 75.5
146 11.7
147 5.3
160 6.4

$$$$

     RDKit          2D

 26 29  0  0  0  0  0  0  0  0999 V2000
   -0.3047   -4.3849    0.0000 C   0  0  0  0  0  0  0  0  0  0  0  0
   -2.0775    1.1118    0.0000 C   0  0  0  0  0  0  0  0  0  0  0  0
    5.8274    1.0402    0.0000 C   0  0  0  0  0  0  0  0  0  0  0  0
   -8.2096   -4.3133    0.0000 C   0  0  0  0  0  0  0  0  0  0  0  0
    5.8279   -0.4606    0.0000 C   0  0  0  0  0  0  0  0  0  0  0  0
    4.5279    1.7910    0.0000 C   0  0  0  0  0  0  0  0  0  0  0  0
   -8.2101   -2.8125    0.0000 C   0  0  0  0  0  0  0  0  0  0  0  0
   -6.9101   -5.0642    0.0000 C   0  0  0  0  0  0  0  0  0  0  0  0
    4.5288   -1.2106    0.0000 C   0  0  0  0  0  0  0  0  0  0  0  0
    3.2288    1.0410    0.0000 C   0  0  0  0  0  0  0  0  0  0  0  0
   -6.9110   -2.0625    0.0000 C   0  0  0  0  0  0  0  0  0  0  0  0
   -5.6110   -4.3142    0.0000 C   0  0  0  0  0  0  0  0  0  0  0  0
    0.3047   -3.0143    0.0000 C   0  0  0  0  0  0  0  0  0  0  0  0
   -2.6870   -0.2588    0.0000 C   0  0  0  0  0  0  0  0  0  0  0  0
    3.2293   -0.4598    0.0000 C   0  0  0  0  0  0  0  0  0  0  0  0
   -5.6115   -2.8133    0.0000 C   0  0  0  0  0  0  0  0  0  0  0  0
   -0.4453   -1.7153    0.0000 C   0  0  0  0  0  0  0  0  0  0  0  0
   -1.9370   -1.5578    0.0000 C   0  0  0  0  0  0  0  0  0  0  0  0
    0.5545   -0.6069    0.0000 C   0  0  0  0  0  0  0  0  0  0  0  0
   -2.9367   -2.6662    0.0000 C   0  0  0  0  0  0  0  0  0  0  0  0
    1.7645   -2.7027    0.0000 N   0  0  0  0  0  0  0  0  0  0  0  0
   -4.1467   -0.5704    0.0000 N   0  0  0  0  0  0  0  0  0  0  0  0
    1.9303   -1.2098    0.0000 N   0  0  0  0  0  0  0  0  0  0  0  0
   -4.3125   -2.0633    0.0000 N   0  0  0  0  0  0  0  0  0  0  0  0
    0.2390    0.8595    0.0000 O   0  0  0  0  0  0  0  0  0  0  0  0
   -2.6212   -4.1327    0.0000 O   0  0  0  0  0  0  0  0  0  0  0  0
  5  3  2  0
  6  3  1  0
  7  4  2  0
  8  4  1  0
  9  5  1  0
 10  6  2  0
 11  7  1  0
 12  8  2  0
 13  1  1  0
 14  2  1  0
 15  9  2  0
 15 10  1  0
 16 11  2  0
 16 12  1  0
 17 13  1  0
 18 14  1  0
 18 17  1  0
 19 17  1  0
 20 18  1  0
 21 13  2  0
 22 14  2  0
 23 15  1  0
 23 19  1  0
 23 21  1  0
 24 16  1  0
 24 20  1  0
 24 22  1  0
 25 19  2  0
 26 20  2  0
M  END
>  <NAME>  (368) 
4,4'-BIS-(1-PHENYL-3-METHYL-5-PYRAZOLONE)

>  <SYNONYMS>  (368) 


>  <SPECTRUM TYPE>  (368) 
MS1

>  <INSTRUMENT TYPE>  (368) 
EI-B

>  <INSTRUMENT>  (368) 
HITACHI M-2500

>  <ION MODE>  (368) 
P

>  <INCHIKEY>  (368) 
FORCWSNQDMPPOC-UHFFFAOYSA-N

>  <FORMULA>  (368) 
C20H18N4O2

>  <EXACT MASS>  (368) 
346.142975816

>  <MW>  (368) 
346

>  <ID>  (368) 
JP011665

>  <CONTRIBUTOR>  (368) 
University of Tokyo Team, {Faculty of Engineering, University of Tokyo

>  <COMMENT>  (368) 
cas=7477-67-0
SMILES=c(c4)ccc(c4)N(N=3)C(=O)C(C(C)3)C(C(C)=1)C(=O)N(c(c2)cccc2)N1
InChI=InChI=1S/C20H18N4O2/c1-13-17(19(25)23(21-13)15-9-5-3-6-10-15)18-14(2)22-24(20(18)26)16-11-7-4-8-12-16/h3-12,17-18H,1-2H3
computed SMILES=O=C1N(N=C(C)C1C2C(=O)N(N=C2C)C=3C=CC=CC3)C=4C=CC=CC4
accession=JP011665
date=2016.01.19 (Created 2008.10.21, modified 2011.05.06)
author=YAMAMOTO M, DEP. CHEMISTRY, FAC. SCIENCE, NARA WOMEN'S UNIV.
license=CC BY-NC-SA
exact mass=346.14298
ionization energy=70 eV
ion type=[M]+*
computed spectral entropy=2.822884225450323
computed normalized entropy=0.7144292851830949
SPLASH=splash10-0002-4329000000-7419289a51d82a967e56
submitter=submitter = University of Tokyo Team (Faculty of Engineering, University of Tokyo)
MoNA Rating=3.75

>  <NUM PEAKS>  (368) 
52

>  <MASS SPECTRAL PEAKS>  (368) 
18 3.86
39 1.87
40 1.1
41 1.22
42 3.07
51 4.21
52 1.32
53 1.38
64 1.51
65 1.86
67 1.55
77 31.55
78 2.97
91 4.15
92 2.21
93 4.39
94 1.74
105 4.21
106 2.34
115 1.02
118 1.55
119 1.02
122 2.59
128 1.71
132 1.39
142 1.48
143 1.39
144 1.26
158 1.04
172 1.23
173 17.19
174 2.42
184 1.57
185 4.2
186 1.12
198 2.39
202 1.01
212 1.27
213 12.96
214 2.09
225 1.07
226 4.8
227 1.78
241 7.11
242 1.28
254 3.91
255 1.57
276 1.12
345 2.18
346 99.99
347 24
348 3.18

$$$$

     RDKit          2D

 16 19  0  0  0  0  0  0  0  0999 V2000
   -3.2500   -1.8800    0.0000 C   0  0  0  0  0  0  0  0  0  0  0  0
    3.2500    1.8800    0.0000 C   0  0  0  0  0  0  0  0  0  0  0  0
   -1.9500   -2.6200    0.0000 C   0  0  0  0  0  0  0  0  0  0  0  0
   -3.2500   -0.3800    0.0000 C   0  0  0  0  0  0  0  0  0  0  0  0
    3.2500    0.3800    0.0000 C   0  0  0  0  0  0  0  0  0  0  0  0
    1.9500    2.6200    0.0000 C   0  0  0  0  0  0  0  0  0  0  0  0
    0.6500   -2.6200    0.0000 C   0  0  0  0  0  0  0  0  0  0  0  0
   -1.9500    1.8800    0.0000 C   0  0  0  0  0  0  0  0  0  0  0  0
    1.9500   -1.8800    0.0000 C   0  0  0  0  0  0  0  0  0  0  0  0
   -0.6500    2.6200    0.0000 C   0  0  0  0  0  0  0  0  0  0  0  0
   -0.6500   -1.8800    0.0000 C   0  0  0  0  0  0  0  0  0  0  0  0
   -1.9500    0.3800    0.0000 C   0  0  0  0  0  0  0  0  0  0  0  0
    1.9500   -0.3800    0.0000 C   0  0  0  0  0  0  0  0  0  0  0  0
    0.6500    1.8800    0.0000 C   0  0  0  0  0  0  0  0  0  0  0  0
   -0.6500   -0.3800    0.0000 C   0  0  0  0  0  0  0  0  0  0  0  0
    0.6500    0.3800    0.0000 C   0  0  0  0  0  0  0  0  0  0  0  0
  3  1  2  0
  4  1  1  0
  5  2  2  0
  6  2  1  0
  9  7  1  0
 10  8  2  0
 11  3  1  0
 11  7  2  0
 12  4  2  0
 12  8  1  0
 13  5  1  0
 13  9  2  0
 14  6  2  0
 14 10  1  0
 15 11  1  0
 15 12  1  0
 16 13  1  0
 16 14  1  0
 16 15  2  0
M  END
>  <NAME>  (369) 
PYRENE

>  <SYNONYMS>  (369) 


>  <SPECTRUM TYPE>  (369) 
MS1

>  <INSTRUMENT TYPE>  (369) 
EI-B

>  <INSTRUMENT>  (369) 
HITACHI M-2500

>  <ION MODE>  (369) 
P

>  <INCHIKEY>  (369) 
BBEAQIROQSPTKN-UHFFFAOYSA-N

>  <FORMULA>  (369) 
C16H10

>  <EXACT MASS>  (369) 
202.07825032

>  <MW>  (369) 
202

>  <ID>  (369) 
JP011664

>  <CONTRIBUTOR>  (369) 
University of Tokyo Team, {Faculty of Engineering, University of Tokyo

>  <COMMENT>  (369) 
SMILES=c(c4)cc(c3)c(c41)c(c2c3)c(ccc2)cc1
cas=129-00-0
InChI=InChI=1S/C16H10/c1-3-11-7-9-13-5-2-6-14-10-8-12(4-1)15(11)16(13)14/h1-10H
computed SMILES=C=1C=C2C=CC3=CC=CC=4C=CC(C1)=C2C34
accession=JP011664
date=2016.01.19 (Created 2008.10.21, modified 2011.05.06)
author=YAMAMOTO M, DEP. CHEMISTRY, FAC. SCIENCE, NARA WOMEN'S UNIV.
license=CC BY-NC-SA
exact mass=202.07825
ionization energy=70 eV
ion type=[M]+*
computed spectral entropy=1.9699900174063443
computed normalized entropy=0.6575988230981816
SPLASH=splash10-0udi-1290000000-1f9a049804cf2fb46ba3
submitter=submitter = University of Tokyo Team (Faculty of Engineering, University of Tokyo)
MoNA Rating=3.75

>  <NUM PEAKS>  (369) 
20

>  <MASS SPECTRAL PEAKS>  (369) 
18 1.36
74 1.09
75 1.23
78 5.07
87 2.76
88 4.58
99 2.15
100 12.05
101 17.91
102 3
150 1.14
174 1.67
175 1.24
198 1.86
199 2.73
200 15.5
201 13.04
202 99.99
203 17.94
204 1.42

$$$$

     RDKit          2D

 22 22  0  0  0  0  0  0  0  0999 V2000
   -6.4964   -0.7492    0.0000 C   0  0  0  0  0  0  0  0  0  0  0  0
   -3.8983   -0.7496    0.0000 C   0  0  0  0  0  0  0  0  0  0  0  0
    3.8981   -0.7504    0.0000 C   0  0  0  0  0  0  0  0  0  0  0  0
    2.5987   -3.0002    0.0000 C   0  0  0  0  0  0  0  0  0  0  0  0
   -7.7951    1.5010    0.0000 C   0  0  0  0  0  0  0  0  0  0  0  0
   -1.3000   -0.7500    0.0000 C   0  0  0  0  0  0  0  0  0  0  0  0
    0.0000    1.5000    0.0000 C   0  0  0  0  0  0  0  0  0  0  0  0
    0.0000   -1.5000    0.0000 C   0  0  0  0  0  0  0  0  0  0  0  0
    1.3000    0.7500    0.0000 C   0  0  0  0  0  0  0  0  0  0  0  0
   -9.0942    0.7512    0.0000 C   0  0  0  0  0  0  0  0  0  0  0  0
   -5.1970    1.5006    0.0000 C   0  0  0  0  0  0  0  0  0  0  0  0
   -6.4962    0.7508    0.0000 C   0  0  0  0  0  0  0  0  0  0  0  0
   -3.8981    0.7504    0.0000 C   0  0  0  0  0  0  0  0  0  0  0  0
   -1.3000    0.7500    0.0000 C   0  0  0  0  0  0  0  0  0  0  0  0
    1.3000   -0.7500    0.0000 C   0  0  0  0  0  0  0  0  0  0  0  0
  -10.3931    1.5015    0.0000 C   0  0  0  0  0  0  0  0  0  0  0  0
   -2.5989    1.5002    0.0000 C   0  0  0  0  0  0  0  0  0  0  0  0
  -11.6923    0.7517    0.0000 N   0  0  0  0  0  0  0  0  0  0  0  0
    2.5989   -1.5002    0.0000 N   0  0  0  0  0  0  0  0  0  0  0  0
  -10.3929    3.0015    0.0000 O   0  0  0  0  0  0  0  0  0  0  0  0
   -2.5987    3.0002    0.0000 O   0  0  0  0  0  0  0  0  0  0  0  0
  -12.9912    1.5019    0.0000 O   0  0  0  0  0  0  0  0  0  0  0  0
  8  6  2  0
  9  7  1  0
  5 10  2  0
 12  1  1  0
 12  5  1  0
 11 12  2  0
 13  2  1  0
 13 11  1  0
 14  6  1  0
 14  7  2  0
 15  8  1  0
 15  9  2  0
 16 10  1  0
 17 13  1  0
 17 14  1  0
 18 16  2  3
 19  3  1  0
 19  4  1  0
 19 15  1  0
 20 16  1  0
 21 17  2  0
 22 18  1  0
M  END
>  <NAME>  (370) 
TRICHOSTATIN A

>  <SYNONYMS>  (370) 
7-(4-(DIMETHYLAMINO)PHENYL)-N-HYDROXY-4,6-DIMETHYL-7-OXO-2,4-HEPTADIENAMIDE

>  <SPECTRUM TYPE>  (370) 
MS1

>  <INSTRUMENT TYPE>  (370) 
EI-B

>  <INSTRUMENT>  (370) 
HITACHI M-2500

>  <ION MODE>  (370) 
P

>  <INCHIKEY>  (370) 
RTKIYFITIVXBLE-WKWSCTOISA-N

>  <FORMULA>  (370) 
C17H22N2O3

>  <EXACT MASS>  (370) 
302.16304256399997

>  <MW>  (370) 
302

>  <ID>  (370) 
JP011663

>  <CONTRIBUTOR>  (370) 
University of Tokyo Team, {Faculty of Engineering, University of Tokyo

>  <COMMENT>  (370) 
SMILES=ONC(=O)C=CC(C)=CC(C)C(=O)c(c1)ccc(N(C)C)c1
InChI=InChI=1S/C17H22N2O3/c1-12(5-10-16(20)18-22)11-13(2)17(21)14-6-8-15(9-7-14)19(3)4/h5-11,13,22H,1-4H3,(H,18,20)/b10-5+,12-11+
computed SMILES=O=C(C1=CC=C(C=C1)N(C)C)C(C=C(C=CC(O)=NO)C)C
accession=JP011663
date=2016.01.19 (Created 2008.10.21, modified 2011.05.06)
author=YAMAMOTO M, DEP. CHEMISTRY, FAC. SCIENCE, NARA WOMEN'S UNIV.
license=CC BY-NC-SA
exact mass=302.16304
ionization energy=70 eV
ion type=[M]+*
computed spectral entropy=1.9426540895344868
computed normalized entropy=0.5962543058083192
SPLASH=splash10-0002-0930000000-7008314c3db5ba758a41
submitter=submitter = University of Tokyo Team (Faculty of Engineering, University of Tokyo)
MoNA Rating=3.75

>  <NUM PEAKS>  (370) 
26

>  <MASS SPECTRAL PEAKS>  (370) 
42 1.42
44 1.14
77 1.83
79 2.77
105 2.46
118 1.03
119 2.63
120 3.95
121 2.68
134 1.61
148 99.99
149 7.13
177 3.68
199 1.42
200 1.48
214 1.26
225 1
228 15.75
229 2.98
240 1.38
243 1.93
256 1.83
274 1.46
286 5.58
287 7.33
288 1.65

$$$$

     RDKit          2D

  8  7  0  0  0  0  0  0  0  0999 V2000
   -1.2990    2.2500    0.0000 C   0  0  0  0  0  0  0  0  0  0  0  0
   -1.2990    3.7500    0.0000 C   0  0  0  0  0  0  0  0  0  0  0  0
    0.0000    1.5000    0.0000 C   0  0  0  0  0  0  0  0  0  0  0  0
   -2.5981    4.5000    0.0000 C   0  0  0  0  0  0  0  0  0  0  0  0
    0.0000    0.0000    0.0000 O   0  0  0  0  0  0  0  0  0  0  0  0
    1.2990    2.2500    0.0000 O   0  0  0  0  0  0  0  0  0  0  0  0
   -3.8971    3.7500    0.0000 O   0  0  0  0  0  0  0  0  0  0  0  0
   -2.5981    6.0000    0.0000 O   0  0  0  0  0  0  0  0  0  0  0  0
  2  1  1  0
  3  1  1  0
  4  2  1  0
  5  3  2  0
  6  3  1  0
  7  4  2  0
  8  4  1  0
M  END
>  <NAME>  (371) 
SUCCINIC ACID

>  <SYNONYMS>  (371) 


>  <SPECTRUM TYPE>  (371) 
MS1

>  <INSTRUMENT TYPE>  (371) 
EI-B

>  <INSTRUMENT>  (371) 
HITACHI M-2500

>  <ION MODE>  (371) 
P

>  <INCHIKEY>  (371) 
KDYFGRWQOYBRFD-UHFFFAOYSA-N

>  <FORMULA>  (371) 
C4H6O4

>  <EXACT MASS>  (371) 
118.026608672

>  <MW>  (371) 
118

>  <ID>  (371) 
JP011660

>  <CONTRIBUTOR>  (371) 
University of Tokyo Team, {Faculty of Engineering, University of Tokyo

>  <COMMENT>  (371) 
SMILES=OC(=O)CCC(O)=O
cas=110-15-6
InChI=InChI=1S/C4H6O4/c5-3(6)1-2-4(7)8/h1-2H2,(H,5,6)(H,7,8)
computed SMILES=O=C(O)CCC(=O)O
accession=JP011660
date=2016.01.19 (Created 2008.10.21, modified 2011.05.06)
author=YAMAMOTO M, DEP. CHEMISTRY, FAC. SCIENCE, NARA WOMEN'S UNIV.
license=CC BY-NC-SA
exact mass=118.02661
ionization energy=70 eV
ion type=[M]+*
computed spectral entropy=2.750312323543606
computed normalized entropy=0.7865884100619791
SPLASH=splash10-0kos-9100000000-f1df0903a24c305e68ec
submitter=submitter = University of Tokyo Team (Faculty of Engineering, University of Tokyo)
MoNA Rating=3.75

>  <NUM PEAKS>  (371) 
33

>  <MASS SPECTRAL PEAKS>  (371) 
14 2.53
15 2.22
18 3.27
19 1.9
25 2.1
26 16.06
27 54.84
28 57.49
29 33.95
30 9.05
31 5.43
41 1.36
42 9.24
43 7.53
44 3.75
45 80.83
46 8.7
47 3.32
53 4.03
54 1.45
55 99.99
56 25.63
57 2.52
63 1.01
71 1.53
72 18.03
73 66.22
74 89.89
75 3.28
100 61.47
101 46.91
102 2.24
119 1.77

$$$$

     RDKit          2D

 11 11  0  0  0  0  0  0  0  0999 V2000
   -1.3000   -0.7500    0.0000 C   0  0  0  0  0  0  0  0  0  0  0  0
    0.0000    1.5000    0.0000 C   0  0  0  0  0  0  0  0  0  0  0  0
    0.0000   -1.5000    0.0000 C   0  0  0  0  0  0  0  0  0  0  0  0
    1.3000    0.7500    0.0000 C   0  0  0  0  0  0  0  0  0  0  0  0
   -2.5989    1.5002    0.0000 C   0  0  0  0  0  0  0  0  0  0  0  0
   -1.3000    0.7500    0.0000 C   0  0  0  0  0  0  0  0  0  0  0  0
    1.3000   -0.7500    0.0000 C   0  0  0  0  0  0  0  0  0  0  0  0
   -3.8981    0.7504    0.0000 Br  0  0  0  0  0  0  0  0  0  0  0  0
    2.5989   -1.5002    0.0000 N   0  0  0  0  0  0  0  0  0  0  0  0
    3.8981   -0.7504    0.0000 O   0  0  0  0  0  0  0  0  0  0  0  0
    2.5987   -3.0002    0.0000 O   0  0  0  0  0  0  0  0  0  0  0  0
  3  1  2  0
  4  2  1  0
  6  1  1  0
  6  2  2  0
  6  5  1  0
  7  3  1  0
  7  4  2  0
  8  5  1  0
  9  7  1  0
 10  9  1  0
 11  9  2  0
M  CHG  2   9   1  10  -1
M  END
>  <NAME>  (372) 
4-NITROBENZYL BROMIDE

>  <SYNONYMS>  (372) 
ALPHA-BROMO-4-NITROTOLUENE

>  <SPECTRUM TYPE>  (372) 
MS1

>  <INSTRUMENT TYPE>  (372) 
EI-B

>  <INSTRUMENT>  (372) 
HITACHI M-2500

>  <ION MODE>  (372) 
P

>  <INCHIKEY>  (372) 
VOLRSQPSJGXRNJ-UHFFFAOYSA-N

>  <FORMULA>  (372) 
C7H6BrNO2

>  <EXACT MASS>  (372) 
214.958190532

>  <MW>  (372) 
215

>  <ID>  (372) 
JP011659

>  <CONTRIBUTOR>  (372) 
University of Tokyo Team, {Faculty of Engineering, University of Tokyo

>  <COMMENT>  (372) 
SMILES=[O-1][N+1](=O)c(c1)ccc(c1)CBr
cas=100-11-8
InChI=InChI=1S/C7H6BrNO2/c8-5-6-1-3-7(4-2-6)9(10)11/h1-4H,5H2
computed SMILES=O=N(=O)C1=CC=C(C=C1)CBr
accession=JP011659
date=2016.01.19 (Created 2008.10.21, modified 2011.05.06)
author=YAMAMOTO M, DEP. CHEMISTRY, FAC. SCIENCE, NARA WOMEN'S UNIV.
license=CC BY-NC-SA
exact mass=214.95819
ionization energy=70 eV
ion type=[M]+*
computed spectral entropy=2.458340550887738
computed normalized entropy=0.7377520027300127
SPLASH=splash10-000i-9710000000-25a76843974a1f2654a2
submitter=submitter = University of Tokyo Team (Faculty of Engineering, University of Tokyo)
MoNA Rating=3.75

>  <NUM PEAKS>  (372) 
28

>  <MASS SPECTRAL PEAKS>  (372) 
30 16.64
38 2.26
39 5.66
40 1.08
50 3.68
51 5.16
52 1.94
61 1.42
62 4.71
63 12.82
64 4.98
77 1.82
78 29.92
79 1.84
86 1.18
87 1.06
89 22.73
90 25.52
91 1.88
106 15.85
107 1.23
120 1.51
136 99.99
137 8.22
169 1.14
215 8.03
216 1.02
217 7.81

$$$$

     RDKit          2D

  8  8  0  0  0  0  0  0  0  0999 V2000
    0.0005   -1.5008    0.0000 C   0  0  0  0  0  0  0  0  0  0  0  0
    1.2995   -0.7508    0.0000 C   0  0  0  0  0  0  0  0  0  0  0  0
   -1.2995    0.7508    0.0000 C   0  0  0  0  0  0  0  0  0  0  0  0
   -0.0005    1.5008    0.0000 C   0  0  0  0  0  0  0  0  0  0  0  0
   -1.2990   -0.7500    0.0000 N   0  0  0  0  0  0  0  0  0  0  0  0
    1.2990    0.7500    0.0000 N   0  0  0  0  0  0  0  0  0  0  0  0
   -2.5981   -1.5000    0.0000 O   0  0  0  0  0  0  0  0  0  0  0  0
    2.5981    1.5000    0.0000 O   0  0  0  0  0  0  0  0  0  0  0  0
  2  1  2  0
  4  3  1  0
  5  1  1  0
  5  3  2  0
  6  2  1  0
  6  4  2  0
  7  5  1  0
  8  6  1  0
M  CHG  4   5   1   6   1   7  -1   8  -1
M  END
>  <NAME>  (373) 
PYRAZINE-N,N'-DIOXIDE

>  <SYNONYMS>  (373) 


>  <SPECTRUM TYPE>  (373) 
MS1

>  <INSTRUMENT TYPE>  (373) 
EI-B

>  <INSTRUMENT>  (373) 
HITACHI M-2500

>  <ION MODE>  (373) 
P

>  <INCHIKEY>  (373) 
SXTKIFFXFIDYJF-UHFFFAOYSA-N

>  <FORMULA>  (373) 
C4H4N2O2

>  <EXACT MASS>  (373) 
112.027277368

>  <MW>  (373) 
112

>  <ID>  (373) 
JP011658

>  <CONTRIBUTOR>  (373) 
University of Tokyo Team, {Faculty of Engineering, University of Tokyo

>  <COMMENT>  (373) 
SMILES=[O-1][n+1](c1)cc[n+1]([O-1])c1
InChI=InChI=1S/C4H4N2O2/c7-5-1-2-6(8)4-3-5/h1-4H
computed SMILES=O=N1=CC=N(=O)C=C1
accession=JP011658
date=2016.01.19 (Created 2008.10.21, modified 2011.05.06)
author=YAMAMOTO M, DEP. CHEMISTRY, FAC. SCIENCE, NARA WOMEN'S UNIV.
license=CC BY-NC-SA
exact mass=112.02728
ionization energy=70 eV
ion type=[M]+*
computed spectral entropy=2.3572084754018383
computed normalized entropy=0.7152078732159985
SPLASH=splash10-03di-9700000000-d19bf49cbec3c7c1b51a
submitter=submitter = University of Tokyo Team (Faculty of Engineering, University of Tokyo)
MoNA Rating=3.75

>  <NUM PEAKS>  (373) 
27

>  <MASS SPECTRAL PEAKS>  (373) 
16 2.17
17 2.87
25 1.15
26 9.69
27 3
28 11.58
29 8.93
30 28.28
37 1.19
39 3.99
40 9.29
41 9.37
42 1.23
46 6.13
51 2.57
52 10.92
53 3.48
55 1.85
56 2.54
67 1.1
68 1.09
80 1.44
85 1.45
95 1.39
96 6.96
112 99.99
113 12.41

$$$$

     RDKit          2D

 12 13  0  0  0  0  0  0  0  0999 V2000
   -2.6000   -0.7500    0.0000 C   0  0  0  0  0  0  0  0  0  0  0  0
   -2.6000    0.7500    0.0000 C   0  0  0  0  0  0  0  0  0  0  0  0
   -1.3000   -1.5000    0.0000 C   0  0  0  0  0  0  0  0  0  0  0  0
   -1.3000    1.5000    0.0000 C   0  0  0  0  0  0  0  0  0  0  0  0
    1.3000   -1.5000    0.0000 C   0  0  0  0  0  0  0  0  0  0  0  0
    2.6000    0.7500    0.0000 C   0  0  0  0  0  0  0  0  0  0  0  0
    0.0000   -0.7500    0.0000 C   0  0  0  0  0  0  0  0  0  0  0  0
    2.6000   -0.7500    0.0000 C   0  0  0  0  0  0  0  0  0  0  0  0
    0.0000    0.7500    0.0000 C   0  0  0  0  0  0  0  0  0  0  0  0
    1.3000    1.5000    0.0000 C   0  0  0  0  0  0  0  0  0  0  0  0
    3.8989   -1.5002    0.0000 O   0  0  0  0  0  0  0  0  0  0  0  0
    1.3000    3.0000    0.0000 O   0  0  0  0  0  0  0  0  0  0  0  0
  2  1  2  0
  3  1  1  0
  4  2  1  0
  7  3  2  0
  7  5  1  0
  8  5  2  0
  8  6  1  0
  9  4  2  0
  9  7  1  0
 10  6  2  0
 10  9  1  0
 11  8  1  0
 12 10  1  0
M  END
>  <NAME>  (374) 
1,3-DIHYDROXYNAPHTHALENE

>  <SYNONYMS>  (374) 
NAPHTHORESORCINOL

>  <SPECTRUM TYPE>  (374) 
MS1

>  <INSTRUMENT TYPE>  (374) 
EI-B

>  <INSTRUMENT>  (374) 
HITACHI M-2500

>  <ION MODE>  (374) 
P

>  <INCHIKEY>  (374) 
XOOMNEFVDUTJPP-UHFFFAOYSA-N

>  <FORMULA>  (374) 
C10H8O2

>  <EXACT MASS>  (374) 
160.052429496

>  <MW>  (374) 
160

>  <ID>  (374) 
JP011657

>  <CONTRIBUTOR>  (374) 
University of Tokyo Team, {Faculty of Engineering, University of Tokyo

>  <COMMENT>  (374) 
SMILES=Oc(c1)cc(c2)c(ccc2)c(O)1
cas=132-86-5
InChI=InChI=1S/C10H8O2/c11-8-5-7-3-1-2-4-9(7)10(12)6-8/h1-6,11-12H
computed SMILES=OC=1C=C(O)C=2C=CC=CC2C1
accession=JP011657
date=2016.01.19 (Created 2008.10.21, modified 2011.05.06)
author=YAMAMOTO M, DEP. CHEMISTRY, FAC. SCIENCE, NARA WOMEN'S UNIV.
license=CC BY-NC-SA
exact mass=160.05243
ionization energy=70 eV
ion type=[M]+*
computed spectral entropy=2.5110467822840237
computed normalized entropy=0.7120788599904563
SPLASH=splash10-03di-3900000000-6dcf0f604c39c6722882
submitter=submitter = University of Tokyo Team (Faculty of Engineering, University of Tokyo)
MoNA Rating=3.75

>  <NUM PEAKS>  (374) 
34

>  <MASS SPECTRAL PEAKS>  (374) 
17 2.59
18 11.75
28 3.44
39 1.51
50 1.64
51 4.12
62 1.64
63 3
65 1.11
66 1.27
69 1.96
74 1.35
75 1.4
76 1.74
77 8.23
78 1.95
80 5.17
89 2.63
90 5.92
91 3.89
102 3.31
103 8.09
104 3.14
105 1.17
114 2.06
115 3.23
118 7.54
119 1.54
131 28.12
132 8.63
138 1.53
159 2.07
160 99.99
161 10.75

$$$$

     RDKit          2D

  7  6  0  0  0  0  0  0  0  0999 V2000
    1.6238    3.1875    0.0000 C   0  0  0  0  0  0  0  0  0  0  0  0
    0.3248    3.9375    0.0000 C   0  0  0  0  0  0  0  0  0  0  0  0
   -0.9743    3.1875    0.0000 C   0  0  0  0  0  0  0  0  0  0  0  0
   -2.2733    3.9375    0.0000 C   0  0  0  0  0  0  0  0  0  0  0  0
   -3.5724    3.1875    0.0000 B   0  0  0  0  0  0  0  0  0  0  0  0
   -4.8714    3.9375    0.0000 O   0  0  0  0  0  0  0  0  0  0  0  0
   -3.5724    1.6875    0.0000 O   0  0  0  0  0  0  0  0  0  0  0  0
  2  1  1  0
  3  2  1  0
  4  3  1  0
  5  4  1  0
  6  5  1  0
  7  5  1  0
M  END
>  <NAME>  (375) 
1-BUTANEBORONIC ACID

>  <SYNONYMS>  (375) 
BUTYLBORONIC ACID

>  <SPECTRUM TYPE>  (375) 
MS1

>  <INSTRUMENT TYPE>  (375) 
EI-B

>  <INSTRUMENT>  (375) 
HITACHI M-2500

>  <ION MODE>  (375) 
P

>  <INCHIKEY>  (375) 
QPKFVRWIISEVCW-UHFFFAOYSA-N

>  <FORMULA>  (375) 
C4H11BO2

>  <EXACT MASS>  (375) 
102.085209992

>  <MW>  (375) 
102

>  <ID>  (375) 
JP011656

>  <CONTRIBUTOR>  (375) 
University of Tokyo Team, {Faculty of Engineering, University of Tokyo

>  <COMMENT>  (375) 
SMILES=CCCC[B](O)O
cas=4426-47-5
InChI=InChI=1S/C4H11BO2/c1-2-3-4-5(6)7/h6-7H,2-4H2,1H3
computed SMILES=OB(O)CCCC
accession=JP011656
ionization energy=70 eV
date=2016.01.19 (Created 2008.10.21, modified 2011.05.06)
author=YAMAMOTO M, DEP. CHEMISTRY, FAC. SCIENCE, NARA WOMEN'S UNIV.
license=CC BY-NC-SA
exact mass=102.08521
ion type=[M]+*
computed spectral entropy=2.426845705762527
computed normalized entropy=0.7283003484185686
SPLASH=splash10-006t-9000000000-f4ffdf1c6be77b4d613a
submitter=submitter = University of Tokyo Team (Faculty of Engineering, University of Tokyo)
MoNA Rating=3.75

>  <NUM PEAKS>  (375) 
28

>  <MASS SPECTRAL PEAKS>  (375) 
26 1.02
27 6.44
28 4.21
29 5.82
39 4.61
41 10.73
42 5.12
43 12.24
44 25.57
45 99.99
53 1
54 1.3
55 5.6
56 45.25
57 6.26
59 2.04
60 8.17
61 1.43
72 20.11
73 73.33
74 3.15
84 2.88
85 4.32
86 1.04
87 3.31
101 1.59
102 4.76
103 1.36

$$$$

     RDKit          2D

 40 39  0  0  0  0  0  0  0  0999 V2000
    1.2600    1.9157    0.0000 C   0  0  0  0  0  0  0  0  0  0  0  0
    8.7300    1.0323    0.0000 C   0  0  0  0  0  0  0  0  0  0  0  0
    3.7500   -2.3971    0.0000 C   0  0  0  0  0  0  0  0  0  0  0  0
    2.2500    3.6304    0.0000 C   0  0  0  0  0  0  0  0  0  0  0  0
    6.7500    1.0323    0.0000 C   0  0  0  0  0  0  0  0  0  0  0  0
    4.7400   -0.6824    0.0000 C   0  0  0  0  0  0  0  0  0  0  0  0
   -0.2400    1.9157    0.0000 C   0  0  0  0  0  0  0  0  0  0  0  0
    9.4800   -0.2667    0.0000 C   0  0  0  0  0  0  0  0  0  0  0  0
    4.5000   -3.6962    0.0000 C   0  0  0  0  0  0  0  0  0  0  0  0
    3.7500    3.6304    0.0000 C   0  0  0  0  0  0  0  0  0  0  0  0
    6.0000    2.3314    0.0000 C   0  0  0  0  0  0  0  0  0  0  0  0
    3.7500    1.0323    0.0000 C   0  0  0  0  0  0  0  0  0  0  0  0
    0.9995    0.4385    0.0000 F   0  0  0  0  0  0  0  0  0  0  0  0
    2.4091    0.9515    0.0000 F   0  0  0  0  0  0  0  0  0  0  0  0
    8.4695    2.5096    0.0000 F   0  0  0  0  0  0  0  0  0  0  0  0
   10.1395    1.5454    0.0000 F   0  0  0  0  0  0  0  0  0  0  0  0
    2.6009   -3.3613    0.0000 F   0  0  0  0  0  0  0  0  0  0  0  0
    2.6009   -1.4329    0.0000 F   0  0  0  0  0  0  0  0  0  0  0  0
    2.5105    5.1076    0.0000 F   0  0  0  0  0  0  0  0  0  0  0  0
    0.8405    4.1435    0.0000 F   0  0  0  0  0  0  0  0  0  0  0  0
    7.0105   -0.4449    0.0000 F   0  0  0  0  0  0  0  0  0  0  0  0
    5.2500    1.0323    0.0000 F   0  0  0  0  0  0  0  0  0  0  0  0
    5.8891    0.2818    0.0000 F   0  0  0  0  0  0  0  0  0  0  0  0
    5.8891   -1.6466    0.0000 F   0  0  0  0  0  0  0  0  0  0  0  0
   -0.2400    0.4157    0.0000 F   0  0  0  0  0  0  0  0  0  0  0  0
   -0.2400    3.4157    0.0000 F   0  0  0  0  0  0  0  0  0  0  0  0
   -1.7400    1.9157    0.0000 F   0  0  0  0  0  0  0  0  0  0  0  0
   10.7790    0.4833    0.0000 F   0  0  0  0  0  0  0  0  0  0  0  0
   10.2300   -1.5657    0.0000 F   0  0  0  0  0  0  0  0  0  0  0  0
    8.1810   -1.0167    0.0000 F   0  0  0  0  0  0  0  0  0  0  0  0
    5.7990   -2.9462    0.0000 F   0  0  0  0  0  0  0  0  0  0  0  0
    5.2500   -4.9952    0.0000 F   0  0  0  0  0  0  0  0  0  0  0  0
    3.2010   -4.4462    0.0000 F   0  0  0  0  0  0  0  0  0  0  0  0
    3.4895    5.1076    0.0000 F   0  0  0  0  0  0  0  0  0  0  0  0
    5.1595    4.1435    0.0000 F   0  0  0  0  0  0  0  0  0  0  0  0
    6.2605    3.8086    0.0000 F   0  0  0  0  0  0  0  0  0  0  0  0
    7.4095    2.8444    0.0000 F   0  0  0  0  0  0  0  0  0  0  0  0
    2.6009    0.0682    0.0000 F   0  0  0  0  0  0  0  0  0  0  0  0
    2.6009    1.9965    0.0000 F   0  0  0  0  0  0  0  0  0  0  0  0
    4.5000    2.3314    0.0000 N   0  0  0  0  0  0  0  0  0  0  0  0
  4  1  1  0
  5  2  1  0
  6  3  1  0
  7  1  1  0
  8  2  1  0
  9  3  1  0
 10  4  1  0
 11  5  1  0
 12  6  1  0
 13  1  1  0
 14  1  1  0
 15  2  1  0
 16  2  1  0
 17  3  1  0
 18  3  1  0
 19  4  1  0
 20  4  1  0
 21  5  1  0
 22  5  1  0
 23  6  1  0
 24  6  1  0
 25  7  1  0
 26  7  1  0
 27  7  1  0
 28  8  1  0
 29  8  1  0
 30  8  1  0
 31  9  1  0
 32  9  1  0
 33  9  1  0
 34 10  1  0
 35 10  1  0
 36 11  1  0
 37 11  1  0
 38 12  1  0
 39 12  1  0
 40 10  1  0
 40 11  1  0
 40 12  1  0
M  END
>  <NAME>  (376) 
PERFLUOROTRIBUTYLAMINE

>  <SYNONYMS>  (376) 
HEPTACOSAFLUOROTRIBUTYLAMINE

>  <SPECTRUM TYPE>  (376) 
MS1

>  <INSTRUMENT TYPE>  (376) 
EI-B

>  <INSTRUMENT>  (376) 
HITACHI M-2500

>  <ION MODE>  (376) 
P

>  <INCHIKEY>  (376) 
RVZRBWKZFJCCIB-UHFFFAOYSA-N

>  <FORMULA>  (376) 
C12F27N

>  <EXACT MASS>  (376) 
670.95996094

>  <MW>  (376) 
671

>  <ID>  (376) 
JP011655

>  <CONTRIBUTOR>  (376) 
University of Tokyo Team, {Faculty of Engineering, University of Tokyo

>  <COMMENT>  (376) 
SMILES=FC(F)(F)C(F)(F)C(F)(F)C(F)(F)N(C(F)(F)C(F)(F)C(F)(F)C(F)(F)F)C(F)(F)C(F)(F)C(F)(F)C(F)(F)F
cas=311-89-7
InChI=InChI=1S/C12F27N/c13-1(14,7(25,26)27)4(19,20)10(34,35)40(11(36,37)5(21,22)2(15,16)8(28,29)30)12(38,39)6(23,24)3(17,18)9(31,32)33
computed SMILES=FC(F)(F)C(F)(F)C(F)(F)C(F)(F)N(C(F)(F)C(F)(F)C(F)(F)C(F)(F)F)C(F)(F)C(F)(F)C(F)(F)C(F)(F)F
accession=JP011655
date=2016.01.19 (Created 2008.10.21, modified 2011.05.06)
author=YAMAMOTO M, DEP. CHEMISTRY, FAC. SCIENCE, NARA WOMEN'S UNIV.
license=CC BY-NC-SA
exact mass=670.95996
ionization energy=70 eV
ion type=[M]+*
computed spectral entropy=2.3674814745441943
computed normalized entropy=0.6894264112143504
SPLASH=splash10-014i-5490110000-9a01b29094d0274f88df
submitter=submitter = University of Tokyo Team (Faculty of Engineering, University of Tokyo)
MoNA Rating=3.75

>  <NUM PEAKS>  (376) 
31

>  <MASS SPECTRAL PEAKS>  (376) 
51 1.24
69 77.06
100 10.29
113 2.25
114 3.61
119 8.47
131 40.53
132 1.32
150 2.76
164 1.1
169 2.99
181 2.08
201 2.39
214 1.35
219 99.99
220 4.45
228 1.04
246 2.23
264 23.73
265 1.28
376 1.12
396 2.5
414 11.61
415 1.03
448 2.36
464 3.91
466 3.52
484 3.95
502 23.54
503 2.44
614 2.5

$$$$

     RDKit          2D

 33 36  0  0  1  0  0  0  0  0999 V2000
    9.5655    7.2342    0.0000 C   0  0  0  0  0  0  0  0  0  0  0  0
   10.0746    4.6865    0.0000 C   0  0  0  0  0  0  0  0  0  0  0  0
    8.1228    2.9718    0.0000 C   0  0  0  0  0  0  0  0  0  0  0  0
    3.2009    4.6377    0.0000 C   0  0  0  0  0  0  0  0  0  0  0  0
   -8.0957   -2.8471    0.0000 C   0  0  0  0  0  0  0  0  0  0  0  0
   -1.6125    0.9400    0.0000 C   0  0  0  0  0  0  0  0  0  0  0  0
    2.4507    3.1203    0.0000 C   0  0  0  0  0  0  0  0  0  0  0  0
    8.0946    6.9403    0.0000 C   0  0  0  0  0  0  0  0  0  0  0  0
    5.6618    3.8047    0.0000 C   0  0  0  0  0  0  0  0  0  0  0  0
    6.1427    5.2256    0.0000 C   0  0  0  0  0  0  0  0  0  0  0  0
   -0.3200   -2.8400    0.0000 C   0  0  0  0  0  0  0  0  0  0  0  0
    1.0100   -2.0900    0.0000 C   0  0  0  0  0  0  0  0  0  0  0  0
    4.5500    0.8800    0.0000 C   0  0  0  0  0  0  0  0  0  0  0  0
    3.7100   -0.3100    0.0000 C   0  0  0  0  0  0  0  0  0  0  0  0
   -4.2000   -0.5600    0.0000 C   0  0  0  0  0  0  0  0  0  0  0  0
   -0.3200    1.6300    0.0000 C   0  0  0  0  0  0  0  0  0  0  0  0
   -2.8900    0.1600    0.0000 C   0  0  0  0  0  0  0  0  0  0  0  0
    1.0100    2.3900    0.0000 C   0  0  0  0  0  0  0  0  0  0  0  0
   -2.8900   -2.8400    0.0000 C   0  0  0  0  0  0  0  0  0  0  0  0
    8.6037    4.3926    0.0000 C   0  0  0  0  0  0  0  0  0  0  0  0
    4.1909    3.5108    0.0000 C   0  0  0  0  0  0  0  0  0  0  0  0
   -6.7981   -2.0947    0.0000 C   0  0  0  0  0  0  0  0  0  0  0  0
    7.6137    5.5195    0.0000 C   0  0  0  0  0  0  0  0  0  0  0  0
   -1.6200   -2.0900    0.0000 C   0  0  0  0  0  0  0  0  0  0  0  0
   -4.2000   -2.0900    0.0000 C   0  0  0  0  0  0  0  0  0  0  0  0
    1.0100   -0.5600    0.0000 C   0  0  0  0  0  0  0  0  0  0  0  0
    3.7100    2.0900    0.0000 C   0  0  0  0  0  0  0  0  0  0  0  0
    2.2800    0.1600    0.0000 C   0  0  0  0  0  0  0  0  0  0  0  0
   -0.3200    0.1600    0.0000 C   0  0  0  0  0  0  0  0  0  0  0  0
   -1.6200   -0.5600    0.0000 C   0  0  0  0  0  0  0  0  0  0  0  0
    2.2800    1.6300    0.0000 C   0  0  0  0  0  0  0  0  0  0  0  0
   -6.8008   -0.5947    0.0000 O   0  0  0  0  0  0  0  0  0  0  0  0
   -5.4977   -2.8424    0.0000 O   0  0  0  0  0  0  0  0  0  0  0  0
  8  1  1  0
  9 10  2  0
 12 11  1  0
 14 13  1  0
 17 15  1  0
 18 16  1  0
 20  2  1  0
 20  3  1  0
 21  4  1  6
 21  9  1  0
 22  5  1  0
 23  8  1  1
 23 10  1  0
 23 20  1  0
 24 11  2  0
 24 19  1  0
 25 15  1  0
 25 19  1  0
 26 12  1  6
 27 13  1  1
 27 21  1  0
 28 14  1  1
 28 26  1  0
 29 16  1  1
 29 26  1  0
 30  6  1  1
 30 17  1  0
 30 24  1  0
 30 29  1  0
 31  7  1  1
 31 18  1  0
 31 27  1  0
 31 28  1  0
 32 22  2  0
 33 22  1  0
 25 33  1  1
M  END
>  <NAME>  (377) 
STIGMASTEROL ACETATE

>  <SYNONYMS>  (377) 


>  <SPECTRUM TYPE>  (377) 
MS1

>  <INSTRUMENT TYPE>  (377) 
EI-B

>  <INSTRUMENT>  (377) 
HITACHI M-2500

>  <ION MODE>  (377) 
P

>  <INCHIKEY>  (377) 
IZEUIYYDWBKERE-ZRODXFKISA-N

>  <FORMULA>  (377) 
C31H50O2

>  <EXACT MASS>  (377) 
454.38108084

>  <MW>  (377) 
454

>  <ID>  (377) 
JP011654

>  <CONTRIBUTOR>  (377) 
University of Tokyo Team, {Faculty of Engineering, University of Tokyo

>  <COMMENT>  (377) 
SMILES=C(C31[H])CC(C4(C(C=CC([H])(C(C)C)CC)([H])C)[H])(C(CC4)(C1([H])CC=C(C3(C)2)CC([H])(CC2)OC(C)=O)[H])C
InChI=InChI=1S/C31H50O2/c1-8-23(20(2)3)10-9-21(4)27-13-14-28-26-12-11-24-19-25(33-22(5)32)15-17-30(24,6)29(26)16-18-31(27,28)7/h9-11,20-21,23,25-29H,8,12-19H2,1-7H3/b10-9+/t21-,23-,25+,26+,27-,28+,29+,30+,31-/m1/s1
computed SMILES=O=C(OC1CC2=CCC3C(CCC4(C)C(CCC34)C(C=CC(CC)C(C)C)C)C2(C)CC1)C
accession=JP011654
date=2016.01.19 (Created 2008.10.21, modified 2011.05.06)
author=YAMAMOTO M, DEP. CHEMISTRY, FAC. SCIENCE, NARA WOMEN'S UNIV.
license=CC BY-NC-SA
exact mass=454.38108
ionization energy=70 eV
ion type=[M]+*
computed spectral entropy=3.530362578090252
computed normalized entropy=0.8033686256982996
SPLASH=splash10-0006-4539000000-122d14c7e2f191729d0c
submitter=submitter = University of Tokyo Team (Faculty of Engineering, University of Tokyo)
MoNA Rating=3.75

>  <NUM PEAKS>  (377) 
81

>  <MASS SPECTRAL PEAKS>  (377) 
18 1.05
41 2.82
43 3.71
55 9.36
57 1.86
67 3.85
69 6.65
71 1.28
77 1.06
79 3.23
81 11.66
82 1.04
83 9.47
91 3.83
93 4.84
94 1
95 4.65
97 4.75
105 4.87
106 1.08
107 4.84
108 1.1
109 3.43
117 1.77
119 3.47
120 2.17
121 3.19
123 2.08
129 1.02
131 2.94
133 6.49
134 1.17
135 2.96
137 1.25
139 1.78
143 2.68
144 1.03
145 7.34
146 4.55
147 5.54
148 1.06
149 1.75
157 3.22
158 2.39
159 5.56
160 1.64
161 3.58
171 1.06
173 2.1
175 1.66
185 1.17
187 1.17
189 1.54
199 1.85
201 1.21
211 1.64
213 4.24
214 1.22
227 1.07
228 4.69
229 1.44
253 5.05
254 3.62
255 21.79
256 4.58
257 1
267 1.39
281 1.99
282 4.34
283 2.79
286 1
296 1.25
351 8.36
352 3.11
379 3.82
380 1.67
382 3.43
394 99.99
395 35.97
396 7.33
397 1.12

$$$$

     RDKit          2D

 24 27  0  0  1  0  0  0  0  0999 V2000
    6.0781    1.9994    0.0000 C   0  0  0  0  0  0  0  0  0  0  0  0
   -1.8400    0.7800    0.0000 C   0  0  0  0  0  0  0  0  0  0  0  0
    2.2172    3.0217    0.0000 C   0  0  0  0  0  0  0  0  0  0  0  0
   -0.5400   -2.9700    0.0000 C   0  0  0  0  0  0  0  0  0  0  0  0
    0.7600   -2.2200    0.0000 C   0  0  0  0  0  0  0  0  0  0  0  0
   -4.4400   -0.7200    0.0000 C   0  0  0  0  0  0  0  0  0  0  0  0
   -0.5400    1.5300    0.0000 C   0  0  0  0  0  0  0  0  0  0  0  0
    3.4800   -0.4400    0.0000 C   0  0  0  0  0  0  0  0  0  0  0  0
   -3.1400    0.0300    0.0000 C   0  0  0  0  0  0  0  0  0  0  0  0
    0.7600    2.2800    0.0000 C   0  0  0  0  0  0  0  0  0  0  0  0
    4.3700    0.7800    0.0000 C   0  0  0  0  0  0  0  0  0  0  0  0
   -3.1400   -2.9700    0.0000 C   0  0  0  0  0  0  0  0  0  0  0  0
    4.7763    2.7447    0.0000 C   0  0  0  0  0  0  0  0  0  0  0  0
   -1.8400   -2.2200    0.0000 C   0  0  0  0  0  0  0  0  0  0  0  0
   -4.4400   -2.2200    0.0000 C   0  0  0  0  0  0  0  0  0  0  0  0
    0.7600   -0.7200    0.0000 C   0  0  0  0  0  0  0  0  0  0  0  0
   -0.5400    0.0300    0.0000 C   0  0  0  0  0  0  0  0  0  0  0  0
    2.0600    0.0300    0.0000 C   0  0  0  0  0  0  0  0  0  0  0  0
   -1.8400   -0.7200    0.0000 C   0  0  0  0  0  0  0  0  0  0  0  0
    2.0600    1.5300    0.0000 C   0  0  0  0  0  0  0  0  0  0  0  0
    3.4800    1.9900    0.0000 C   0  0  0  0  0  0  0  0  0  0  0  0
    4.7709    4.2447    0.0000 O   0  0  0  0  0  0  0  0  0  0  0  0
   -5.7389   -2.9702    0.0000 O   0  0  0  0  0  0  0  0  0  0  0  0
    3.5277    0.4908    0.0000 O   0  0  0  0  0  0  0  0  0  0  0  0
  5  4  1  0
  9  6  1  0
 10  7  1  0
 11  8  1  0
 13  1  1  0
 14  4  2  0
 14 12  1  0
 15  6  1  0
 15 12  1  0
 16  5  1  6
 17  7  1  1
 17 16  1  0
 18  8  1  1
 18 16  1  0
 19  2  1  1
 19  9  1  0
 19 14  1  0
 19 17  1  0
 20  3  1  1
 20 10  1  0
 20 18  1  0
 21 11  1  0
 21 13  1  0
 21 20  1  0
 22 13  2  0
 15 23  1  1
 21 24  1  6
M  END
>  <NAME>  (378) 
17ALPHA-HYDROXYPREGNENOLONE

>  <SYNONYMS>  (378) 


>  <SPECTRUM TYPE>  (378) 
MS1

>  <INSTRUMENT TYPE>  (378) 
EI-B

>  <INSTRUMENT>  (378) 
HITACHI M-2500

>  <ION MODE>  (378) 
P

>  <INCHIKEY>  (378) 
JERGUCIJOXJXHF-TVWVXWENSA-N

>  <FORMULA>  (378) 
C21H32O3

>  <EXACT MASS>  (378) 
332.23514488399996

>  <MW>  (378) 
332

>  <ID>  (378) 
JP011653

>  <CONTRIBUTOR>  (378) 
University of Tokyo Team, {Faculty of Engineering, University of Tokyo

>  <COMMENT>  (378) 
SMILES=[H]C(O)(C4)CC(=C([H])3)C(C)(C4)C([H])(C2)C([H])(C3)C([H])(C1)C(C)(C2)C(O)(C(C)=O)C1
cas=19454-90-1
InChI=InChI=1S/C21H32O3/c1-13(22)21(24)11-8-18-16-5-4-14-12-15(23)6-9-19(14,2)17(16)7-10-20(18,21)3/h4,15-18,23-24H,5-12H2,1-3H3/t15-,16+,17-,18-,19-,20-,21-/m0/s1
computed SMILES=O=C(C)C1(O)CCC2C3CC=C4CC(O)CCC4(C)C3CCC21C
accession=JP011653
date=2016.01.19 (Created 2008.10.21, modified 2011.05.06)
author=YAMAMOTO M, DEP. CHEMISTRY, FAC. SCIENCE, NARA WOMEN'S UNIV.
license=CC BY-NC-SA
exact mass=332.23514
ionization energy=70 eV
ion type=[M]+*
computed spectral entropy=4.512274116450653
computed normalized entropy=0.86985512266507
SPLASH=splash10-0ff0-3792000000-974e157d4c25e376b004
submitter=submitter = University of Tokyo Team (Faculty of Engineering, University of Tokyo)
MoNA Rating=3.75

>  <NUM PEAKS>  (378) 
179

>  <MASS SPECTRAL PEAKS>  (378) 
18 2.81
27 1.41
28 1.08
29 3.06
39 1.92
41 10.26
43 26.3
44 1.05
45 1.02
53 4.01
55 10.8
57 4.18
59 1.06
65 2.44
67 9.97
68 1.58
69 4.04
71 2.68
77 7.89
78 1.96
79 14.02
80 1.85
81 16.69
82 1.75
83 3.1
85 2.38
87 5.42
91 19.42
92 3.72
93 14.82
94 2.96
95 11.49
96 1.52
97 4.92
100 2.11
103 1.78
104 1.43
105 19.84
106 4.13
107 15.93
108 3.91
109 6.84
110 1.25
111 1.77
115 3.34
116 2.14
117 8.3
118 3.3
119 16.07
120 6.15
121 9.87
122 2.19
123 4.08
124 1.1
125 1.5
128 3.44
129 6.22
130 2.69
131 13.44
132 3.85
133 18.92
134 3.93
135 7.27
136 1.34
137 2.55
141 2.68
142 2.22
143 14.06
144 4.55
145 23.11
146 5.07
147 13.04
148 3.42
149 4.12
151 4.38
155 3.24
156 1.98
157 15.27
158 7.75
159 22.62
160 5.01
161 8.07
162 1.64
163 6.04
164 1.15
165 1.33
169 4.18
170 1.55
171 13.93
172 4.16
173 10.66
174 2.95
175 6
176 2.02
177 2.55
181 1.13
183 5.51
184 1.9
185 11.59
186 5.38
187 6.89
188 2.02
189 4.23
190 1.29
191 1.47
195 1.66
197 11.95
198 3.67
199 7.65
200 2.16
201 3.97
202 1.64
203 2.35
207 1.05
209 2.02
211 13.17
212 3.82
213 43.86
214 9.03
215 8.17
216 1.92
217 2.16
221 1.19
223 1.79
224 1.16
225 6.33
226 6.09
227 16.13
228 13.56
229 12.34
230 2.69
231 16.52
232 6.11
233 1.64
237 1.97
238 1.69
239 1.91
241 1.72
242 1.33
243 1.92
244 9.26
245 27.48
246 13.56
247 2.45
251 1.19
253 68.64
254 14.59
255 4.46
256 1.35
257 1.17
258 1.58
263 4.14
269 2.75
270 1.59
271 82.23
272 16.95
273 4.8
274 1.55
281 9.99
282 2.16
286 1.9
287 3.79
288 1.62
289 51.81
290 10.37
291 1.57
296 3.57
297 1.14
298 1.07
299 10.72
300 2.36
304 2
314 7.98
315 1.88
316 1.8
317 2.09
332 99.99
333 23.3
334 4.28

$$$$

     RDKit          2D

 26 29  0  0  1  0  0  0  0  0999 V2000
   -1.7600    0.6800    0.0000 C   0  0  0  0  0  0  0  0  0  0  0  0
    2.2972    2.9217    0.0000 C   0  0  0  0  0  0  0  0  0  0  0  0
   -0.4600   -3.0700    0.0000 C   0  0  0  0  0  0  0  0  0  0  0  0
    0.8400   -2.3200    0.0000 C   0  0  0  0  0  0  0  0  0  0  0  0
   -4.3600   -0.8200    0.0000 C   0  0  0  0  0  0  0  0  0  0  0  0
    3.5600   -0.5400    0.0000 C   0  0  0  0  0  0  0  0  0  0  0  0
   -3.0600   -0.0700    0.0000 C   0  0  0  0  0  0  0  0  0  0  0  0
    4.4500    0.6800    0.0000 C   0  0  0  0  0  0  0  0  0  0  0  0
   -3.0600   -3.0700    0.0000 C   0  0  0  0  0  0  0  0  0  0  0  0
    0.8400    2.1800    0.0000 C   0  0  0  0  0  0  0  0  0  0  0  0
    6.1581    1.8994    0.0000 C   0  0  0  0  0  0  0  0  0  0  0  0
   -1.7600   -2.3200    0.0000 C   0  0  0  0  0  0  0  0  0  0  0  0
   -4.3600   -2.3200    0.0000 C   0  0  0  0  0  0  0  0  0  0  0  0
    0.8400   -0.8200    0.0000 C   0  0  0  0  0  0  0  0  0  0  0  0
    2.1400   -0.0700    0.0000 C   0  0  0  0  0  0  0  0  0  0  0  0
   -0.4600    1.4300    0.0000 C   0  0  0  0  0  0  0  0  0  0  0  0
    4.8563    2.6447    0.0000 C   0  0  0  0  0  0  0  0  0  0  0  0
   -0.4600   -0.0700    0.0000 C   0  0  0  0  0  0  0  0  0  0  0  0
   -1.7600   -0.8200    0.0000 C   0  0  0  0  0  0  0  0  0  0  0  0
    2.1400    1.4300    0.0000 C   0  0  0  0  0  0  0  0  0  0  0  0
    3.5600    1.8900    0.0000 C   0  0  0  0  0  0  0  0  0  0  0  0
    7.4544    2.6541    0.0000 O   0  0  0  0  0  0  0  0  0  0  0  0
   -5.6589   -3.0702    0.0000 O   0  0  0  0  0  0  0  0  0  0  0  0
   -1.7589    2.1802    0.0000 O   0  0  0  0  0  0  0  0  0  0  0  0
    4.8509    4.1447    0.0000 O   0  0  0  0  0  0  0  0  0  0  0  0
    3.6077    0.3908    0.0000 O   0  0  0  0  0  0  0  0  0  0  0  0
  4  3  1  0
  7  5  1  0
  8  6  1  0
 12  3  1  0
 12  9  2  0
 13  5  1  0
 13  9  1  0
 14  4  1  6
 15  6  1  1
 15 14  1  0
 16 10  1  0
 17 11  1  0
 18 14  1  0
 18 16  1  1
 19  1  1  1
 19  7  1  0
 19 12  1  0
 19 18  1  0
 20  2  1  1
 20 10  1  0
 20 15  1  0
 21  8  1  0
 21 17  1  0
 21 20  1  0
 22 11  1  0
 23 13  2  0
 16 24  1  1
 25 17  2  0
 21 26  1  6
M  END
>  <NAME>  (379) 
(8S,9S,10R,11S,13S,14S,17R)-11,17-dihydroxy-17-(2-hydroxyacetyl)-10,13-dimethyl-2,6,7,8,9,11,12,14,15,16-decahydro-1H-cyclopenta[a]phenanthren-3-one

>  <SYNONYMS>  (379) 
Cortisol
Hydrocortisone

>  <SPECTRUM TYPE>  (379) 
MS1

>  <INSTRUMENT TYPE>  (379) 
EI-B

>  <INSTRUMENT>  (379) 
HITACHI M-2500

>  <ION MODE>  (379) 
P

>  <INCHIKEY>  (379) 
JYGXADMDTFJGBT-VWUMJDOOSA-N

>  <FORMULA>  (379) 
C21H30O5

>  <EXACT MASS>  (379) 
362.20932406

>  <MW>  (379) 
362

>  <ID>  (379) 
JP011651

>  <CONTRIBUTOR>  (379) 
University of Tokyo Team, {Faculty of Engineering, University of Tokyo

>  <COMMENT>  (379) 
SMILES=C[C@]12CCC(=O)C=C1CC[C@@H]3[C@@H]2[C@H](C[C@]4([C@H]3CC[C@@]4(C(=O)CO)O)C)O
cas=50-23-7 80562-38-5
chebi=17650
chemspider=5551
hmdb=HMDB00063
kegg=C00735
lipidmaps=LMST02030001
pubchem cid=5754
InChI=InChI=1S/C21H30O5/c1-19-7-5-13(23)9-12(19)3-4-14-15-6-8-21(26,17(25)11-22)20(15,2)10-16(24)18(14)19/h9,14-16,18,22,24,26H,3-8,10-11H2,1-2H3/t14-,15-,16-,18+,19-,20-,21-/m0/s1
computed SMILES=O=C1C=C2CCC3C4CCC(O)(C(=O)CO)C4(C)CC(O)C3C2(C)CC1
accession=JP011651
date=2016.01.19 (Created 2008.10.21, modified 2011.05.06)
author=YAMAMOTO M, DEP. CHEMISTRY, FAC. SCIENCE, NARA WOMEN'S UNIV.
license=CC BY-NC-SA
exact mass=362.20932
ionization energy=70 eV
ion type=[M]+*
computed spectral entropy=5.066277845310378
computed normalized entropy=0.9031648665493163
SPLASH=splash10-03ec-3975000000-577516644c3109b5b3bc
submitter=submitter = University of Tokyo Team (Faculty of Engineering, University of Tokyo)
MoNA Rating=3.75

>  <NUM PEAKS>  (379) 
273

>  <MASS SPECTRAL PEAKS>  (379) 
18 3.56
27 3.82
28 2.47
29 7.94
30 5.53
31 7.26
32 1.78
39 5.65
40 1.32
41 18.36
42 3.46
43 16.32
44 1.1
45 1.24
51 1.73
52 1.22
53 8.07
54 1.25
55 16.06
56 1.21
57 4.09
60 5.74
65 5.19
66 2.27
67 12.81
68 2.17
69 5.84
70 1.4
71 2.98
72 1.38
73 1.03
77 16.11
78 4.15
79 21.75
80 3.91
81 12.17
82 2.15
83 5.31
84 1.43
85 2.02
86 1.08
87 1.33
91 27.76
92 5.36
93 17.19
94 5.7
95 15.38
96 4.46
97 13.96
98 1.75
99 2.87
100 1.2
103 3.57
104 2.36
105 23.91
106 7.56
107 17.77
108 6.72
109 17.8
110 7.9
111 5.38
112 1.26
113 1.35
115 5.26
116 2.78
117 9.21
118 4.69
119 26.37
120 10.61
121 25.22
122 20.45
123 53.74
124 37.75
125 8.34
126 1.77
127 2.34
128 4.71
129 8.21
130 3.9
131 15.31
132 5.69
133 15.75
134 9.4
135 13.35
136 13.75
137 19.09
138 6.54
139 1.91
141 3.51
142 3.72
143 14.2
144 7.72
145 21.6
146 7.9
147 20.04
148 13.22
149 12.8
150 4.29
151 2.74
152 1.86
153 1.87
154 1.11
155 5.03
156 3.18
157 10.12
158 5.14
159 14.02
160 9.69
161 21.51
162 12.68
163 60.79
164 11.85
165 3.52
166 1.88
167 2.29
168 1.49
169 5.6
170 2.99
171 9.87
172 6.64
173 16.93
174 9.32
175 12.67
176 5.93
177 3.53
178 2.47
179 2.54
180 1.6
181 3.09
182 2.16
183 6.22
184 5.1
185 12.55
186 6.86
187 9.89
188 6.78
189 23.01
190 5.73
191 5.68
192 2.74
193 2.47
194 1.23
195 3.98
196 2.23
197 6.18
198 5.79
199 14.24
200 9.88
201 7.07
202 4.55
203 4.89
204 2.29
205 3.35
206 1.55
207 3.05
208 2.46
209 10.23
210 3.19
211 8.77
212 4.97
213 17.38
214 10.52
215 7.5
216 3.12
217 3.73
218 1.6
219 1.25
221 2.03
222 2.11
223 6.17
224 5.04
225 18.4
226 8.68
227 55.15
228 16.23
229 9.42
230 3.47
231 2.85
232 2.1
233 1.79
235 2.07
236 1.15
237 2.94
238 2.91
239 6.2
240 16.16
241 15.88
242 55.07
243 19.28
244 4.39
245 8.88
246 3.65
247 2.9
248 1.18
249 3.66
250 1.89
251 7.44
252 3.33
253 6.14
254 3.44
255 4.67
256 8.29
257 7.25
258 11.39
259 6.54
260 25.7
261 9.83
262 1.98
263 2.16
265 4.37
266 4.53
267 18.65
268 7.71
269 42.09
270 12.8
271 5.91
272 2.83
273 3.1
274 7.08
275 3.13
276 1.16
278 1.71
279 1.97
280 1.38
281 5.84
282 2.07
283 6.36
284 15.99
285 43.3
286 14.86
287 7.13
288 4.46
289 1.51
290 1.64
291 1.52
293 2.63
295 6.29
296 8.28
297 7.72
298 3.28
299 16.6
300 4.42
301 3.11
302 63.2
303 31.32
304 7.02
305 1.13
308 2.87
309 1.04
311 12.05
312 5.21
313 14.68
314 32.66
315 52.35
316 13.87
317 2.82
326 7.14
327 2.42
328 3.49
329 14.98
330 9.8
331 2.47
332 99.99
333 23.19
334 5.62
344 57.13
345 15.17
346 3.69
347 1.02
360 1.29
362 67.67
363 18.25
364 2.99

$$$$

     RDKit          2D

 23 26  0  0  1  0  0  0  0  0999 V2000
    6.0726    3.4994    0.0000 C   0  0  0  0  0  0  0  0  0  0  0  0
   -1.8400    0.7800    0.0000 C   0  0  0  0  0  0  0  0  0  0  0  0
    2.2172    3.0217    0.0000 C   0  0  0  0  0  0  0  0  0  0  0  0
    4.7763    2.7447    0.0000 C   0  0  0  0  0  0  0  0  0  0  0  0
   -0.5400   -2.9700    0.0000 C   0  0  0  0  0  0  0  0  0  0  0  0
    0.7600   -2.2200    0.0000 C   0  0  0  0  0  0  0  0  0  0  0  0
   -4.4400   -0.7200    0.0000 C   0  0  0  0  0  0  0  0  0  0  0  0
   -0.5400    1.5300    0.0000 C   0  0  0  0  0  0  0  0  0  0  0  0
    3.4800   -0.4400    0.0000 C   0  0  0  0  0  0  0  0  0  0  0  0
   -3.1400    0.0300    0.0000 C   0  0  0  0  0  0  0  0  0  0  0  0
    0.7600    2.2800    0.0000 C   0  0  0  0  0  0  0  0  0  0  0  0
    4.3700    0.7800    0.0000 C   0  0  0  0  0  0  0  0  0  0  0  0
   -3.1400   -2.9700    0.0000 C   0  0  0  0  0  0  0  0  0  0  0  0
   -1.8400   -2.2200    0.0000 C   0  0  0  0  0  0  0  0  0  0  0  0
   -4.4400   -2.2200    0.0000 C   0  0  0  0  0  0  0  0  0  0  0  0
    0.7600   -0.7200    0.0000 C   0  0  0  0  0  0  0  0  0  0  0  0
   -0.5400    0.0300    0.0000 C   0  0  0  0  0  0  0  0  0  0  0  0
    2.0600    0.0300    0.0000 C   0  0  0  0  0  0  0  0  0  0  0  0
   -1.8400   -0.7200    0.0000 C   0  0  0  0  0  0  0  0  0  0  0  0
    2.0600    1.5300    0.0000 C   0  0  0  0  0  0  0  0  0  0  0  0
    3.4800    1.9900    0.0000 C   0  0  0  0  0  0  0  0  0  0  0  0
   -5.7389   -2.9702    0.0000 O   0  0  0  0  0  0  0  0  0  0  0  0
    3.5277    0.4908    0.0000 O   0  0  0  0  0  0  0  0  0  0  0  0
  4  1  3  0
  6  5  1  0
 10  7  1  0
 11  8  1  0
 12  9  1  0
 14  5  1  0
 14 13  2  0
 15  7  1  0
 15 13  1  0
 16  6  1  6
 17  8  1  1
 17 16  1  0
 18  9  1  1
 18 16  1  0
 19  2  1  1
 19 10  1  0
 19 14  1  0
 19 17  1  0
 20  3  1  1
 20 11  1  0
 20 18  1  0
 21  4  1  0
 21 12  1  0
 21 20  1  0
 22 15  2  0
 21 23  1  1
M  END
>  <NAME>  (380) 
ETHISTERONE

>  <SYNONYMS>  (380) 
17ALPHA-ETHYNYLTESTOSTERONE

>  <SPECTRUM TYPE>  (380) 
MS1

>  <INSTRUMENT TYPE>  (380) 
EI-B

>  <INSTRUMENT>  (380) 
HITACHI M-2500

>  <ION MODE>  (380) 
P

>  <INCHIKEY>  (380) 
CHNXZKVNWQUJIB-CEGNMAFCSA-N

>  <FORMULA>  (380) 
C21H28O2

>  <EXACT MASS>  (380) 
312.208930136

>  <MW>  (380) 
312

>  <ID>  (380) 
JP011650

>  <CONTRIBUTOR>  (380) 
University of Tokyo Team, {Faculty of Engineering, University of Tokyo

>  <COMMENT>  (380) 
SMILES=O=C(C4)C=C(C3)C(C)(C4)C([H])(C2)C([H])(C3)C([H])(C1)C(C)(C2)C(O)(C#C)C1
cas=434-03-7
InChI=InChI=1S/C21H28O2/c1-4-21(23)12-9-18-16-6-5-14-13-15(22)7-10-19(14,2)17(16)8-11-20(18,21)3/h1,13,16-18,23H,5-12H2,2-3H3/t16-,17+,18+,19+,20+,21+/m1/s1
computed SMILES=O=C1C=C2CCC3C(CCC4(C)C3CCC4(O)C#C)C2(C)CC1
accession=JP011650
date=2016.01.19 (Created 2008.10.21, modified 2011.05.06)
author=YAMAMOTO M, DEP. CHEMISTRY, FAC. SCIENCE, NARA WOMEN'S UNIV.
license=CC BY-NC-SA
exact mass=312.20893
ionization energy=70 eV
ion type=[M]+*
computed spectral entropy=4.567174147823647
computed normalized entropy=0.896623110238167
SPLASH=splash10-03di-3952000000-9a0346ae86fbbfdc4aa9
submitter=submitter = University of Tokyo Team (Faculty of Engineering, University of Tokyo)
MoNA Rating=3.75

>  <NUM PEAKS>  (380) 
163

>  <MASS SPECTRAL PEAKS>  (380) 
18 2.2
27 1.87
28 1.21
29 2.17
39 3.98
40 1.13
41 8.47
43 3.23
51 1.32
53 5.89
54 1.03
55 7.92
65 3.67
66 1.44
67 8.79
68 2.61
69 2
77 10.07
78 2.48
79 14.62
80 2.2
81 7.86
82 1.16
83 1.94
87 1.03
91 16.65
92 3.1
93 10.98
94 2.78
95 8.54
96 1.88
97 5.35
103 1.97
104 1.36
105 13.05
106 4.68
107 11.24
108 4.49
109 8.88
110 3.04
111 2.47
115 3.2
116 1.48
117 5.56
118 2.51
119 10.37
120 6.74
121 15.8
122 11.07
123 13.29
124 30.38
125 3.4
128 2.51
129 3.85
130 1.54
131 7.41
132 2.82
133 8.64
134 6
135 8.34
136 7.03
137 8.08
138 2.4
141 1.72
142 1.5
143 4.21
144 2.09
145 7.01
146 3.55
147 8.24
148 14.1
149 11.08
150 2.71
151 1.02
155 2.92
156 1.66
157 4.17
158 2.04
159 7.75
160 4.55
161 9.72
162 4.76
163 6.47
164 1.41
169 2.39
170 2.55
171 6.65
172 2.85
173 7.3
174 5.38
175 5.99
176 4.03
177 4.2
178 1.31
181 1.06
183 2.22
184 2.08
185 4.49
186 2.29
187 8.87
188 6.93
189 15.8
190 4.43
191 2.08
195 1.39
197 2.15
198 1.93
199 3.2
200 3.41
201 5.71
202 4.64
203 2.83
209 2.1
210 1.05
211 5.22
212 1.8
213 6.46
214 2.83
215 3.42
216 1.73
217 2.08
223 2.11
224 1.47
225 1.96
226 3.99
227 10.01
228 3.39
229 22.22
230 4.75
231 4.2
232 1.5
237 3.1
238 1.75
239 1.9
240 1.42
241 1.79
242 10.77
243 2.95
244 5.54
245 32.21
246 5.97
251 2.4
252 2.56
253 1.25
255 2.95
256 1.23
261 1.18
265 1.15
266 1.92
269 2.67
270 9.52
271 2.16
279 10.7
280 2.31
283 2.8
284 3.8
294 4.28
295 2.23
297 26.29
298 5.93
312 99.99
313 23.41
314 4.21

$$$$

     RDKit          2D

 23 26  0  0  1  0  0  0  0  0999 V2000
    5.6618    3.8047    0.0000 C   0  0  0  0  0  0  0  0  0  0  0  0
   -1.6125    0.9400    0.0000 C   0  0  0  0  0  0  0  0  0  0  0  0
    2.4507    3.1203    0.0000 C   0  0  0  0  0  0  0  0  0  0  0  0
   -0.3200   -2.8400    0.0000 C   0  0  0  0  0  0  0  0  0  0  0  0
    1.0100   -2.0900    0.0000 C   0  0  0  0  0  0  0  0  0  0  0  0
    4.5500    0.8800    0.0000 C   0  0  0  0  0  0  0  0  0  0  0  0
    3.7100   -0.3100    0.0000 C   0  0  0  0  0  0  0  0  0  0  0  0
   -4.2000   -0.5600    0.0000 C   0  0  0  0  0  0  0  0  0  0  0  0
   -0.3200    1.6300    0.0000 C   0  0  0  0  0  0  0  0  0  0  0  0
   -2.8900    0.1600    0.0000 C   0  0  0  0  0  0  0  0  0  0  0  0
    1.0100    2.3900    0.0000 C   0  0  0  0  0  0  0  0  0  0  0  0
   -2.8900   -2.8400    0.0000 C   0  0  0  0  0  0  0  0  0  0  0  0
    4.1909    3.5108    0.0000 C   0  0  0  0  0  0  0  0  0  0  0  0
   -1.6200   -2.0900    0.0000 C   0  0  0  0  0  0  0  0  0  0  0  0
   -4.2000   -2.0900    0.0000 C   0  0  0  0  0  0  0  0  0  0  0  0
    1.0100   -0.5600    0.0000 C   0  0  0  0  0  0  0  0  0  0  0  0
    3.7100    2.0900    0.0000 C   0  0  0  0  0  0  0  0  0  0  0  0
    2.2800    0.1600    0.0000 C   0  0  0  0  0  0  0  0  0  0  0  0
   -0.3200    0.1600    0.0000 C   0  0  0  0  0  0  0  0  0  0  0  0
   -1.6200   -0.5600    0.0000 C   0  0  0  0  0  0  0  0  0  0  0  0
    2.2800    1.6300    0.0000 C   0  0  0  0  0  0  0  0  0  0  0  0
    3.2009    4.6377    0.0000 O   0  0  0  0  0  0  0  0  0  0  0  0
   -5.4977   -2.8424    0.0000 O   0  0  0  0  0  0  0  0  0  0  0  0
  5  4  1  0
  7  6  1  0
 10  8  1  0
 11  9  1  0
 13  1  1  0
 14  4  1  0
 14 12  2  0
 15  8  1  0
 15 12  1  0
 16  5  1  6
 17  6  1  0
 17 13  1  1
 18  7  1  1
 18 16  1  0
 19  9  1  1
 19 16  1  0
 20  2  1  1
 20 10  1  0
 20 14  1  0
 20 19  1  0
 21  3  1  1
 21 11  1  0
 21 17  1  0
 21 18  1  0
 22 13  2  0
 23 15  2  0
M  END
>  <NAME>  (381) 
PROGESTERONE

>  <SYNONYMS>  (381) 
PREGN-4-ENE-3,20-DIONE

>  <SPECTRUM TYPE>  (381) 
MS1

>  <INSTRUMENT TYPE>  (381) 
EI-B

>  <INSTRUMENT>  (381) 
HITACHI M-2500

>  <ION MODE>  (381) 
P

>  <INCHIKEY>  (381) 
RJKFOVLPORLFTN-LEKSSAKUSA-N

>  <FORMULA>  (381) 
C21H30O2

>  <EXACT MASS>  (381) 
314.2245802

>  <MW>  (381) 
314

>  <ID>  (381) 
JP011649

>  <CONTRIBUTOR>  (381) 
University of Tokyo Team, {Faculty of Engineering, University of Tokyo

>  <COMMENT>  (381) 
SMILES=O=C(C4)C=C(C3)C(C)(C4)C([H])(C2)C([H])(C3)C([H])(C1)C(C)(C2)C(C(C)=O)C1
cas=57-83-0
InChI=InChI=1S/C21H30O2/c1-13(22)17-6-7-18-16-5-4-14-12-15(23)8-10-20(14,2)19(16)9-11-21(17,18)3/h12,16-19H,4-11H2,1-3H3/t16-,17+,18-,19-,20-,21+/m0/s1
computed SMILES=O=C1C=C2CCC3C(CCC4(C)C(C(=O)C)CCC34)C2(C)CC1
accession=JP011649
date=2016.01.19 (Created 2008.10.21, modified 2011.05.06)
author=YAMAMOTO M, DEP. CHEMISTRY, FAC. SCIENCE, NARA WOMEN'S UNIV.
license=CC BY-NC-SA
exact mass=314.22458
ionization energy=70 eV
ion type=[M]+*
computed spectral entropy=4.156591816782748
computed normalized entropy=0.8512718481484179
SPLASH=splash10-0229-3963000000-f35e3d9faf6b2ee87465
submitter=submitter = University of Tokyo Team (Faculty of Engineering, University of Tokyo)
MoNA Rating=3.75

>  <NUM PEAKS>  (381) 
132

>  <MASS SPECTRAL PEAKS>  (381) 
18 2.19
27 1.04
29 1.42
39 1.89
41 5.84
43 23.7
53 3.17
55 5.76
65 2.01
67 6.14
69 1.83
71 4.32
77 6.34
78 1.64
79 10.11
80 1.6
81 6.9
83 1.3
84 3.77
85 4.21
91 11.68
92 2.2
93 9.07
94 3.95
95 8.72
96 1.62
97 2.38
103 1.02
105 9.23
106 2.8
107 9.71
108 3.01
109 7.34
110 1.96
111 2.63
115 1.69
117 3.54
118 1.29
119 6.62
120 4.64
121 8.02
122 6.71
123 8.93
124 64.82
125 7.96
128 1.25
129 1.9
131 5.54
132 3.8
133 11.29
134 6.77
135 8.45
136 4.64
137 7.08
138 2.84
143 2.54
144 1.41
145 5.68
146 2.9
147 13.9
148 4.84
149 7.95
150 1.8
155 1.21
157 2.52
158 1.23
159 5.89
160 2.05
161 3.97
162 1.84
163 2.83
171 2.78
172 2.59
173 8.6
174 3.95
175 3.5
176 1.95
177 2.92
178 1.35
183 1.14
185 3.05
186 1.57
187 7.47
188 2.62
189 2.28
190 9.88
191 20.58
192 3.43
197 1.22
199 1.82
200 1.32
201 4.04
202 2.44
203 1.14
211 4.44
212 1.26
213 2.29
214 1.71
215 2.47
216 2.03
225 1.7
226 1.65
227 5.34
228 3.79
229 37.95
230 9.34
231 4.46
232 1.51
239 1.81
243 2.86
244 15.99
245 3.02
253 3.45
254 3.41
255 1.04
256 2.75
257 4.9
258 1.43
270 1.52
271 5.58
272 62.94
273 12.82
274 1.39
281 1.94
286 2.09
296 5.95
297 1.79
299 9.07
300 2.11
314 99.99
315 24.65
316 3.4

$$$$

     RDKit          2D

 11 12  0  0  0  0  0  0  0  0999 V2000
    2.6000    0.0000    0.0000 C   0  0  0  0  0  0  0  0  0  0  0  0
    0.2900    0.7500    0.0000 C   0  0  0  0  0  0  0  0  0  0  0  0
    0.2900   -0.7500    0.0000 C   0  0  0  0  0  0  0  0  0  0  0  0
   -1.0100    1.5000    0.0000 C   0  0  0  0  0  0  0  0  0  0  0  0
   -2.3100   -0.7500    0.0000 C   0  0  0  0  0  0  0  0  0  0  0  0
   -3.6089   -1.5002    0.0000 N   0  0  0  0  0  0  0  0  0  0  0  0
    1.7200    1.2100    0.0000 N   0  0  0  0  0  0  0  0  0  0  0  0
    1.7200   -1.2100    0.0000 N   0  0  0  0  0  0  0  0  0  0  0  0
   -1.0100   -1.5000    0.0000 N   0  0  0  0  0  0  0  0  0  0  0  0
   -2.3100    0.7500    0.0000 N   0  0  0  0  0  0  0  0  0  0  0  0
   -1.0100    3.0000    0.0000 O   0  0  0  0  0  0  0  0  0  0  0  0
  3  2  2  0
  4  2  1  0
  6  5  2  0
  7  1  2  0
  7  2  1  0
  8  1  1  0
  8  3  1  0
  9  3  1  0
  9  5  1  0
 10  4  2  0
 10  5  1  0
 11  4  1  0
M  END
>  <NAME>  (382) 
GUANINE

>  <SYNONYMS>  (382) 


>  <SPECTRUM TYPE>  (382) 
MS1

>  <INSTRUMENT TYPE>  (382) 
EI-B

>  <INSTRUMENT>  (382) 
HITACHI M-2500

>  <ION MODE>  (382) 
P

>  <INCHIKEY>  (382) 
UYTPUPDQBNUYGX-UHFFFAOYSA-N

>  <FORMULA>  (382) 
C5H5N5O

>  <EXACT MASS>  (382) 
151.04940978000002

>  <MW>  (382) 
151

>  <ID>  (382) 
JP011648

>  <CONTRIBUTOR>  (382) 
University of Tokyo Team, {Faculty of Engineering, University of Tokyo

>  <COMMENT>  (382) 
SMILES=C1=NC2=C(N1)C(=O)N=C(N2)N
cas=73-40-5
InChI=InChI=1S/C5H5N5O/c6-5-9-3-2(4(11)10-5)7-1-8-3/h1H,(H4,6,7,8,9,10,11)
computed SMILES=N=C1N=C(O)C=2N=CNC2N1
accession=JP011648
date=2016.01.19 (Created 2008.10.21, modified 2011.05.06)
author=YAMAMOTO M, DEP. CHEMISTRY, FAC. SCIENCE, NARA WOMEN'S UNIV.
license=CC BY-NC-SA
exact mass=151.04941
ionization energy=70 eV
ion type=[M]+*
computed spectral entropy=3.1881552610888457
computed normalized entropy=0.7786729261883509
SPLASH=splash10-0udi-5900000000-0a63148e3a8dc8d026df
submitter=submitter = University of Tokyo Team (Faculty of Engineering, University of Tokyo)
MoNA Rating=3.75

>  <NUM PEAKS>  (382) 
60

>  <MASS SPECTRAL PEAKS>  (382) 
15 1.03
17 1
18 4.9
27 2.08
28 10.82
29 1.31
36 2.73
38 1.18
39 1.53
41 1.4
42 3.45
43 15.54
44 4.48
45 1.06
53 8.54
54 11.44
55 2.43
56 1.07
65 1.25
66 1.43
68 2.29
69 4.14
70 1.46
73 10.83
74 7.1
75 1.71
77 1.02
79 1.44
80 1.92
81 5.73
82 2.13
83 1.86
91 5.38
92 1.98
96 2.15
103 1.14
106 1.98
107 1.05
108 9.14
109 14.82
110 12.15
111 1.01
115 1.47
117 1.37
119 1.07
120 6.78
123 1.11
124 1.14
131 1.84
132 1.39
133 12.5
134 9.16
135 13.8
136 1.66
147 2.33
148 1.01
149 2.43
150 1.08
151 99.99
152 10.87

$$$$

     RDKit          2D

 18 20  0  0  0  0  0  0  0  0999 V2000
    3.9000   -0.7500    0.0000 C   0  0  0  0  0  0  0  0  0  0  0  0
    3.9000    0.7500    0.0000 C   0  0  0  0  0  0  0  0  0  0  0  0
    2.6000   -1.5000    0.0000 C   0  0  0  0  0  0  0  0  0  0  0  0
    2.6000    1.5000    0.0000 C   0  0  0  0  0  0  0  0  0  0  0  0
   -3.9000   -0.7500    0.0000 C   0  0  0  0  0  0  0  0  0  0  0  0
   -3.9000    0.7500    0.0000 C   0  0  0  0  0  0  0  0  0  0  0  0
    1.3000   -0.7500    0.0000 C   0  0  0  0  0  0  0  0  0  0  0  0
    1.3000    0.7500    0.0000 C   0  0  0  0  0  0  0  0  0  0  0  0
   -2.6000   -1.5000    0.0000 C   0  0  0  0  0  0  0  0  0  0  0  0
   -2.6000    1.5000    0.0000 C   0  0  0  0  0  0  0  0  0  0  0  0
   -1.3000   -0.7500    0.0000 C   0  0  0  0  0  0  0  0  0  0  0  0
   -1.3000    0.7500    0.0000 C   0  0  0  0  0  0  0  0  0  0  0  0
   -0.0000   -1.5000    0.0000 C   0  0  0  0  0  0  0  0  0  0  0  0
   -0.0000    1.5000    0.0000 C   0  0  0  0  0  0  0  0  0  0  0  0
   -2.6000   -3.0000    0.0000 N   0  0  0  0  0  0  0  0  0  0  0  0
   -2.6000    3.0000    0.0000 N   0  0  0  0  0  0  0  0  0  0  0  0
   -0.0000   -3.0000    0.0000 O   0  0  0  0  0  0  0  0  0  0  0  0
    0.0000    3.0000    0.0000 O   0  0  0  0  0  0  0  0  0  0  0  0
  2  1  2  0
  3  1  1  0
  4  2  1  0
  6  5  2  0
  7  3  2  0
  8  4  2  0
  8  7  1  0
  9  5  1  0
 10  6  1  0
 11  9  2  0
 12 10  2  0
 12 11  1  0
 13  7  1  0
 13 11  1  0
 14  8  1  0
 14 12  1  0
 15  9  1  0
 16 10  1  0
 17 13  2  0
 18 14  2  0
M  END
>  <NAME>  (383) 
1,4-DIAMINOANTHRAQUINONE

>  <SYNONYMS>  (383) 


>  <SPECTRUM TYPE>  (383) 
MS1

>  <INSTRUMENT TYPE>  (383) 
EI-B

>  <INSTRUMENT>  (383) 
HITACHI M-2500

>  <ION MODE>  (383) 
P

>  <INCHIKEY>  (383) 
FBMQNRKSAWNXBT-UHFFFAOYSA-N

>  <FORMULA>  (383) 
C14H10N2O2

>  <EXACT MASS>  (383) 
238.07422756

>  <MW>  (383) 
238

>  <ID>  (383) 
JP011647

>  <CONTRIBUTOR>  (383) 
University of Tokyo Team, {Faculty of Engineering, University of Tokyo

>  <COMMENT>  (383) 
SMILES=Nc(c3)c(c(=O)1)c(c(N)c3)c(=O)c(c2)c(ccc2)1
cas=128-95-0
InChI=InChI=1S/C14H10N2O2/c15-9-5-6-10(16)12-11(9)13(17)7-3-1-2-4-8(7)14(12)18/h1-6H,15-16H2
computed SMILES=O=C1C=2C=CC=CC2C(=O)C=3C(N)=CC=C(N)C13
accession=JP011647
date=2016.01.19 (Created 2008.10.21, modified 2011.05.06)
author=YAMAMOTO M, DEP. CHEMISTRY, FAC. SCIENCE, NARA WOMEN'S UNIV.
license=CC BY-NC-SA
exact mass=238.07423
ionization energy=70 eV
ion type=[M]+*
computed spectral entropy=2.7429998429885725
computed normalized entropy=0.716442089745969
SPLASH=splash10-000i-2290000000-696c3ff9d6caa646075d
submitter=submitter = University of Tokyo Team (Faculty of Engineering, University of Tokyo)
MoNA Rating=3.75

>  <NUM PEAKS>  (383) 
46

>  <MASS SPECTRAL PEAKS>  (383) 
18 3.47
39 1.11
50 2.15
51 5.73
52 1.15
57 1.54
63 1
65 3.12
74 1.11
75 1.24
76 2.02
77 18.02
78 1.89
91 1.62
92 1.37
93 2.79
104 1.06
105 1.32
119 2.53
123 10.96
127 2.25
128 2.02
138 1.96
139 2.12
140 1.01
149 8.62
154 4.55
155 1.34
164 1.13
166 1.2
167 2.27
181 4.29
182 4.27
183 1.59
195 1.76
209 2.48
210 3.44
211 1.33
222 1.21
223 14.56
224 3.77
237 8.59
238 99.99
239 37.59
240 8.68
241 1.14

$$$$

     RDKit          2D

 18 20  0  0  0  0  0  0  0  0999 V2000
    3.9000   -0.7500    0.0000 C   0  0  0  0  0  0  0  0  0  0  0  0
    3.9000    0.7500    0.0000 C   0  0  0  0  0  0  0  0  0  0  0  0
    2.6000   -1.5000    0.0000 C   0  0  0  0  0  0  0  0  0  0  0  0
    2.6000    1.5000    0.0000 C   0  0  0  0  0  0  0  0  0  0  0  0
   -3.9000   -0.7500    0.0000 C   0  0  0  0  0  0  0  0  0  0  0  0
   -3.9000    0.7500    0.0000 C   0  0  0  0  0  0  0  0  0  0  0  0
    1.3000   -0.7500    0.0000 C   0  0  0  0  0  0  0  0  0  0  0  0
    1.3000    0.7500    0.0000 C   0  0  0  0  0  0  0  0  0  0  0  0
   -2.6000   -1.5000    0.0000 C   0  0  0  0  0  0  0  0  0  0  0  0
   -2.6000    1.5000    0.0000 C   0  0  0  0  0  0  0  0  0  0  0  0
   -1.3000   -0.7500    0.0000 C   0  0  0  0  0  0  0  0  0  0  0  0
   -1.3000    0.7500    0.0000 C   0  0  0  0  0  0  0  0  0  0  0  0
   -0.0000   -1.5000    0.0000 C   0  0  0  0  0  0  0  0  0  0  0  0
   -0.0000    1.5000    0.0000 C   0  0  0  0  0  0  0  0  0  0  0  0
   -2.6000   -3.0000    0.0000 N   0  0  0  0  0  0  0  0  0  0  0  0
   -2.6000    3.0000    0.0000 O   0  0  0  0  0  0  0  0  0  0  0  0
   -0.0000   -3.0000    0.0000 O   0  0  0  0  0  0  0  0  0  0  0  0
    0.0000    3.0000    0.0000 O   0  0  0  0  0  0  0  0  0  0  0  0
  2  1  2  0
  3  1  1  0
  4  2  1  0
  6  5  2  0
  7  3  2  0
  8  4  2  0
  8  7  1  0
  9  5  1  0
 10  6  1  0
 11  9  2  0
 12 10  2  0
 12 11  1  0
 13  7  1  0
 13 11  1  0
 14  8  1  0
 14 12  1  0
 15  9  1  0
 16 10  1  0
 17 13  2  0
 18 14  2  0
M  END
>  <NAME>  (384) 
1-AMINO-4-HYDROXYANTHRAQUINONE

>  <SYNONYMS>  (384) 


>  <SPECTRUM TYPE>  (384) 
MS1

>  <INSTRUMENT TYPE>  (384) 
EI-B

>  <INSTRUMENT>  (384) 
HITACHI M-2500

>  <ION MODE>  (384) 
P

>  <INCHIKEY>  (384) 
AQXYVFBSOOBBQV-UHFFFAOYSA-N

>  <FORMULA>  (384) 
C14H9NO3

>  <EXACT MASS>  (384) 
239.05824314799997

>  <MW>  (384) 
239

>  <ID>  (384) 
JP011646

>  <CONTRIBUTOR>  (384) 
University of Tokyo Team, {Faculty of Engineering, University of Tokyo

>  <COMMENT>  (384) 
SMILES=Nc(c3)c(c(=O)1)c(c(O)c3)c(=O)c(c2)c(ccc2)1
cas=116-85-8
InChI=InChI=1S/C14H9NO3/c15-9-5-6-10(16)12-11(9)13(17)7-3-1-2-4-8(7)14(12)18/h1-6,16H,15H2
computed SMILES=O=C1C=2C=CC=CC2C(=O)C=3C(N)=CC=C(O)C13
accession=JP011646
date=2016.01.19 (Created 2008.10.21, modified 2011.05.06)
author=YAMAMOTO M, DEP. CHEMISTRY, FAC. SCIENCE, NARA WOMEN'S UNIV.
license=CC BY-NC-SA
exact mass=239.05824
ionization energy=70 eV
ion type=[M]+*
computed spectral entropy=2.977056908483714
computed normalized entropy=0.7463195825633505
SPLASH=splash10-000i-3290000000-3e2d6b88efefae5fd955
submitter=submitter = University of Tokyo Team (Faculty of Engineering, University of Tokyo)
MoNA Rating=3.75

>  <NUM PEAKS>  (384) 
54

>  <MASS SPECTRAL PEAKS>  (384) 
17 1.66
18 9.85
29 1.53
31 1
41 4.13
42 2.7
43 5.09
51 1.63
52 1.14
55 6.56
56 7.33
57 3.69
64 1.17
68 2.24
69 6.08
70 7.1
71 1.57
75 1.39
76 1.71
77 4.1
78 1.25
82 1.81
83 5.55
84 5.15
92 1.71
97 2.43
98 1.19
101 1.72
102 2.8
105 2.19
111 1.23
112 2.16
120 3.84
126 1.37
127 4.42
128 5.6
129 2.02
139 1.37
154 12.24
155 3.32
156 1.03
167 1.02
182 4.61
183 4.96
184 1.95
210 4.02
211 4.26
212 2.1
237 1.59
238 28.81
239 99.99
240 55.33
241 7.47
242 1.27

$$$$

     RDKit          2D

 15 16  0  0  0  0  0  0  0  0999 V2000
   -5.1780    0.7831    0.0000 C   0  0  0  0  0  0  0  0  0  0  0  0
   -2.5800   -0.7500    0.0000 C   0  0  0  0  0  0  0  0  0  0  0  0
   -1.2800   -1.5000    0.0000 C   0  0  0  0  0  0  0  0  0  0  0  0
   -1.2800    1.4800    0.0000 C   0  0  0  0  0  0  0  0  0  0  0  0
    3.8789   -1.5002    0.0000 C   0  0  0  0  0  0  0  0  0  0  0  0
   -2.5800    0.7600    0.0000 C   0  0  0  0  0  0  0  0  0  0  0  0
   -0.0100   -0.7500    0.0000 C   0  0  0  0  0  0  0  0  0  0  0  0
    2.5800   -0.7500    0.0000 C   0  0  0  0  0  0  0  0  0  0  0  0
   -0.0100    0.7600    0.0000 C   0  0  0  0  0  0  0  0  0  0  0  0
    2.5800    0.7600    0.0000 C   0  0  0  0  0  0  0  0  0  0  0  0
    5.1781   -0.7504    0.0000 Br  0  0  0  0  0  0  0  0  0  0  0  0
    1.2800   -1.5000    0.0000 N   0  0  0  0  0  0  0  0  0  0  0  0
    3.8723    1.5215    0.0000 O   0  0  0  0  0  0  0  0  0  0  0  0
   -3.8723    1.5215    0.0000 O   0  0  0  0  0  0  0  0  0  0  0  0
    1.2800    1.4800    0.0000 O   0  0  0  0  0  0  0  0  0  0  0  0
  3  2  2  0
  6  2  1  0
  6  4  2  0
  7  3  1  0
  8  5  1  0
  9  4  1  0
  9  7  2  0
 10  8  1  0
 11  5  1  0
 12  7  1  0
 12  8  2  0
 13 10  2  0
 14  1  1  0
 14  6  1  0
 15  9  1  0
 15 10  1  0
M  END
>  <NAME>  (385) 
3-BROMOMETHYL-7-METHOXY-1,4-BENZOXAZIN-2-ONE

>  <SYNONYMS>  (385) 


>  <SPECTRUM TYPE>  (385) 
MS1

>  <INSTRUMENT TYPE>  (385) 
EI-B

>  <INSTRUMENT>  (385) 
HITACHI M-2500

>  <ION MODE>  (385) 
P

>  <INCHIKEY>  (385) 
XFCZURAACWKKIH-UHFFFAOYSA-N

>  <FORMULA>  (385) 
C10H8BrNO3

>  <EXACT MASS>  (385) 
268.968755216

>  <MW>  (385) 
269

>  <ID>  (385) 
JP011645

>  <CONTRIBUTOR>  (385) 
University of Tokyo Team, {Faculty of Engineering, University of Tokyo

>  <COMMENT>  (385) 
SMILES=COc(c2)cc(O1)c(c2)N=C(CBr)C(=O)1
InChI=InChI=1S/C10H8BrNO3/c1-14-6-2-3-7-9(4-6)15-10(13)8(5-11)12-7/h2-4H,5H2,1H3
computed SMILES=O=C1OC=2C=C(OC)C=CC2N=C1CBr
accession=JP011645
date=2016.01.19 (Created 2008.10.21, modified 2011.05.06)
author=YAMAMOTO M, DEP. CHEMISTRY, FAC. SCIENCE, NARA WOMEN'S UNIV.
license=CC BY-NC-SA
exact mass=268.96876
ionization energy=70 eV
ion type=[M]+*
computed spectral entropy=2.601009917466546
computed normalized entropy=0.7004064740757462
SPLASH=splash10-01ox-1900000000-5c45ac061ab86952eae7
submitter=submitter = University of Tokyo Team (Faculty of Engineering, University of Tokyo)
MoNA Rating=3.75

>  <NUM PEAKS>  (385) 
41

>  <MASS SPECTRAL PEAKS>  (385) 
17 1.48
18 8.37
28 3.28
38 1.07
39 1.7
43 2.43
44 1.13
50 1.5
51 5.36
52 1.63
62 1.08
63 2.78
64 1.68
65 1.5
69 1.29
76 1.52
77 1.75
79 5.97
91 4.43
103 1.08
106 2.43
107 1.66
119 5.45
120 2.09
132 1.26
134 8.28
147 5.45
148 12.52
149 1.45
162 71.95
163 14.36
164 1.32
167 1.4
176 1.82
190 99.99
191 26.33
192 2.86
269 11.88
270 1.41
271 11.93
272 1.33

$$$$

     RDKit          2D

 10 10  0  0  0  0  0  0  0  0999 V2000
    0.0005   -1.5008    0.0000 C   0  0  0  0  0  0  0  0  0  0  0  0
   -0.0005    1.5008    0.0000 C   0  0  0  0  0  0  0  0  0  0  0  0
   -1.2990   -0.7500    0.0000 C   0  0  0  0  0  0  0  0  0  0  0  0
    1.2995   -0.7508    0.0000 C   0  0  0  0  0  0  0  0  0  0  0  0
   -1.2995    0.7508    0.0000 C   0  0  0  0  0  0  0  0  0  0  0  0
    1.2990    0.7500    0.0000 C   0  0  0  0  0  0  0  0  0  0  0  0
   -2.5981   -1.5000    0.0000 O   0  0  0  0  0  0  0  0  0  0  0  0
    2.5987   -1.5006    0.0000 O   0  0  0  0  0  0  0  0  0  0  0  0
   -2.5987    1.5006    0.0000 O   0  0  0  0  0  0  0  0  0  0  0  0
    2.5981    1.5000    0.0000 O   0  0  0  0  0  0  0  0  0  0  0  0
  3  1  2  0
  4  1  1  0
  5  2  1  0
  5  3  1  0
  6  2  2  0
  6  4  1  0
  7  3  1  0
  8  4  2  0
  9  5  2  0
 10  6  1  0
M  END
>  <NAME>  (386) 
2,5-DIHYDROXY-1,4-BENZOQUINONE

>  <SYNONYMS>  (386) 
2,5-DIHYDROX-P-QUINONE

>  <SPECTRUM TYPE>  (386) 
MS1

>  <INSTRUMENT TYPE>  (386) 
EI-B

>  <INSTRUMENT>  (386) 
HITACHI M-2500

>  <ION MODE>  (386) 
P

>  <INCHIKEY>  (386) 
QFSYADJLNBHAKO-UHFFFAOYSA-N

>  <FORMULA>  (386) 
C6H4O4

>  <EXACT MASS>  (386) 
140.010958608

>  <MW>  (386) 
140

>  <ID>  (386) 
JP011644

>  <CONTRIBUTOR>  (386) 
University of Tokyo Team, {Faculty of Engineering, University of Tokyo

>  <COMMENT>  (386) 
SMILES=Oc(c1)c(=O)cc(O)c(=O)1
cas=615-94-1
InChI=InChI=1S/C6H4O4/c7-3-1-4(8)6(10)2-5(3)9/h1-2,7,10H
computed SMILES=O=C1C=C(O)C(=O)C=C1O
accession=JP011644
date=2016.01.19 (Created 2008.10.21, modified 2011.05.06)
author=YAMAMOTO M, DEP. CHEMISTRY, FAC. SCIENCE, NARA WOMEN'S UNIV.
license=CC BY-NC-SA
exact mass=140.01096
ionization energy=70 eV
ion type=[M]+*
computed spectral entropy=2.4125249655596916
computed normalized entropy=0.7591202334340444
SPLASH=splash10-0006-9600000000-28a6cd351da5ca55d6a8
submitter=submitter = University of Tokyo Team (Faculty of Engineering, University of Tokyo)
MoNA Rating=3.75

>  <NUM PEAKS>  (386) 
24

>  <MASS SPECTRAL PEAKS>  (386) 
14 1.96
15 1.04
18 3.01
29 2.48
37 1.3
38 3.84
39 2.01
41 8.22
42 25.7
43 8.66
53 8.3
55 3.39
66 6.8
69 24.31
70 12.82
71 24.27
84 10.11
94 5.24
95 2.77
111 1.01
112 6.57
140 99.99
141 8.35
142 4.39

$$$$

     RDKit          2D

 21 22  0  0  0  0  0  0  0  0999 V2000
    5.8474   -0.3761    0.0000 C   0  0  0  0  0  0  0  0  0  0  0  0
   -0.6498    4.8766    0.0000 C   0  0  0  0  0  0  0  0  0  0  0  0
    4.5479    0.3747    0.0000 C   0  0  0  0  0  0  0  0  0  0  0  0
    0.6497    4.1257    0.0000 C   0  0  0  0  0  0  0  0  0  0  0  0
    7.1465    0.3739    0.0000 C   0  0  0  0  0  0  0  0  0  0  0  0
   -1.9489    4.1266    0.0000 C   0  0  0  0  0  0  0  0  0  0  0  0
    5.8465    2.6255    0.0000 C   0  0  0  0  0  0  0  0  0  0  0  0
   -0.6489    1.8749    0.0000 C   0  0  0  0  0  0  0  0  0  0  0  0
    4.5474    1.8755    0.0000 C   0  0  0  0  0  0  0  0  0  0  0  0
    0.6502    2.6249    0.0000 C   0  0  0  0  0  0  0  0  0  0  0  0
    7.1460    1.8747    0.0000 C   0  0  0  0  0  0  0  0  0  0  0  0
   -1.9484    2.6257    0.0000 C   0  0  0  0  0  0  0  0  0  0  0  0
    3.2483    2.6253    0.0000 N   0  0  0  0  0  0  0  0  0  0  0  0
    1.9493    1.8751    0.0000 N   0  0  0  0  0  0  0  0  0  0  0  0
    8.4450    2.6247    0.0000 N   0  0  0  0  0  0  0  0  0  0  0  0
   -3.2474    1.8757    0.0000 N   0  0  0  0  0  0  0  0  0  0  0  0
    1.9496    0.3751    0.0000 O   0  0  0  0  0  0  0  0  0  0  0  0
    9.7440    1.8747    0.0000 O   0  0  0  0  0  0  0  0  0  0  0  0
    8.4450    4.1247    0.0000 O   0  0  0  0  0  0  0  0  0  0  0  0
   -4.5465    2.6257    0.0000 O   0  0  0  0  0  0  0  0  0  0  0  0
   -3.2474    0.3757    0.0000 O   0  0  0  0  0  0  0  0  0  0  0  0
  3  1  2  0
  4  2  2  0
  5  1  1  0
  6  2  1  0
  9  3  1  0
  9  7  2  0
 10  4  1  0
 10  8  2  0
 11  5  2  0
 11  7  1  0
 12  6  2  0
 12  8  1  0
 13  9  1  0
 14 10  1  0
 13 14  2  0
 15 11  1  0
 16 12  1  0
 17 14  1  0
 18 15  1  0
 19 15  2  0
 20 16  1  0
 21 16  2  0
M  CHG  6  14   1  15   1  16   1  17  -1  18  -1  20  -1
M  END
>  <NAME>  (387) 
3,3'-DINITROAZOXYBENZENE

>  <SYNONYMS>  (387) 


>  <SPECTRUM TYPE>  (387) 
MS1

>  <INSTRUMENT TYPE>  (387) 
EI-B

>  <INSTRUMENT>  (387) 
HITACHI M-2500

>  <ION MODE>  (387) 
P

>  <INCHIKEY>  (387) 
XTUPRRZRWPZCTF-BUHFOSPRSA-N

>  <FORMULA>  (387) 
C12H8N4O5

>  <EXACT MASS>  (387) 
288.049469356

>  <MW>  (387) 
288

>  <ID>  (387) 
JP011643

>  <CONTRIBUTOR>  (387) 
University of Tokyo Team, {Faculty of Engineering, University of Tokyo

>  <COMMENT>  (387) 
SMILES=[O-1][N+1](=O)c(c2)cc(cc2)N=[N+1]([O-1])c(c1)cc(cc1)[N+1]([O-1])=O
InChI=InChI=1S/C12H8N4O5/c17-14(10-4-2-6-12(8-10)16(20)21)13-9-3-1-5-11(7-9)15(18)19/h1-8H/b14-13+
computed SMILES=O=N(=O)C=1C=CC=C(N=N(=O)C=2C=CC=C(C2)N(=O)=O)C1
computed InChI=InChI=1S/C12H8N4O5/c17-14(10-4-2-6-12(8-10)16(20)21)13-9-3-1-5-11(7-9)15(18)19/h1-8H/b14-13-
accession=JP011643
date=2016.01.19 (Created 2008.10.21, modified 2011.05.06)
author=YAMAMOTO M, DEP. CHEMISTRY, FAC. SCIENCE, NARA WOMEN'S UNIV.
license=CC BY-NC-SA
exact mass=288.04947
ionization energy=70 eV
ion type=[M]+*
computed spectral entropy=3.227277031126526
computed normalized entropy=0.7882280013519439
SPLASH=splash10-0fmu-9730000000-b350471bacf514f58632
submitter=submitter = University of Tokyo Team (Faculty of Engineering, University of Tokyo)
MoNA Rating=3.75

>  <NUM PEAKS>  (387) 
60

>  <MASS SPECTRAL PEAKS>  (387) 
27 1.28
28 1.26
30 5.83
37 1.02
38 2.33
39 15.43
50 17.3
51 8.8
52 4.58
53 1.39
62 2.26
63 28.45
64 17.53
65 4.26
66 1.11
74 4.42
75 35.43
76 37.63
77 5.17
78 5.08
79 3.3
80 2.23
90 35.05
91 5.47
92 44.04
93 3.81
94 1.36
106 4.76
107 1.12
110 3.44
120 1.11
121 6.5
122 99.99
123 7.13
127 1.01
128 1.23
138 9.89
139 6.05
140 3.91
149 2.54
150 49.56
151 4.51
152 7.55
153 1.13
155 1.01
165 1.06
166 8.89
167 2.85
168 3.42
195 1.04
196 1.03
214 1.85
242 3.01
258 4.8
260 1.35
272 5.34
287 9.5
288 86.6
289 13.3
290 1.79

$$$$

     RDKit          2D

  9  9  0  0  0  0  0  0  0  0999 V2000
   -1.3000    0.7500    0.0000 C   0  0  0  0  0  0  0  0  0  0  0  0
    0.0000    1.5000    0.0000 C   0  0  0  0  0  0  0  0  0  0  0  0
   -0.0000   -1.5000    0.0000 C   0  0  0  0  0  0  0  0  0  0  0  0
   -1.3000   -0.7500    0.0000 C   0  0  0  0  0  0  0  0  0  0  0  0
    1.3000   -0.7500    0.0000 C   0  0  0  0  0  0  0  0  0  0  0  0
    1.3000    0.7500    0.0000 C   0  0  0  0  0  0  0  0  0  0  0  0
   -2.5989   -1.5002    0.0000 N   0  0  0  0  0  0  0  0  0  0  0  0
    2.5989   -1.5002    0.0000 N   0  0  0  0  0  0  0  0  0  0  0  0
    2.5989    1.5002    0.0000 O   0  0  0  0  0  0  0  0  0  0  0  0
  2  1  2  0
  4  1  1  0
  4  3  2  0
  5  3  1  0
  6  2  1  0
  6  5  2  0
  7  4  1  0
  8  5  1  0
  9  6  1  0
M  END
>  <NAME>  (388) 
2,4-DIAMINOPHENOL

>  <SYNONYMS>  (388) 
AMIDOL

>  <SPECTRUM TYPE>  (388) 
MS1

>  <INSTRUMENT TYPE>  (388) 
EI-B

>  <INSTRUMENT>  (388) 
HITACHI M-2500

>  <ION MODE>  (388) 
P

>  <INCHIKEY>  (388) 
XIWMTQIUUWJNRP-UHFFFAOYSA-N

>  <FORMULA>  (388) 
C6H8N2O

>  <EXACT MASS>  (388) 
124.063662876

>  <MW>  (388) 
124

>  <ID>  (388) 
JP011642

>  <CONTRIBUTOR>  (388) 
University of Tokyo Team, {Faculty of Engineering, University of Tokyo

>  <COMMENT>  (388) 
SMILES=C1=CC(=C(C=C1N)N)O
cas=95-86-3
pubchem cid=7266
InChI=InChI=1S/C6H8N2O/c7-4-1-2-6(9)5(8)3-4/h1-3,9H,7-8H2
computed SMILES=OC1=CC=C(N)C=C1N
accession=JP011642
date=2016.01.19 (Created 2008.10.21, modified 2011.05.06)
author=YAMAMOTO M, DEP. CHEMISTRY, FAC. SCIENCE, NARA WOMEN'S UNIV.
license=CC BY-NC-SA
exact mass=124.064
ionization energy=70 eV
ion type=[M]+*
computed spectral entropy=2.364158832279123
computed normalized entropy=0.7256257771032122
SPLASH=splash10-00di-8900000000-d0aeccc005bc4f79d8f8
submitter=submitter = University of Tokyo Team (Faculty of Engineering, University of Tokyo)
MoNA Rating=3.75

>  <NUM PEAKS>  (388) 
26

>  <MASS SPECTRAL PEAKS>  (388) 
18 4.34
28 3.19
35 3.12
36 27.51
37 1.02
38 9.02
39 1.6
40 1.48
41 3.9
42 2.42
48 1.09
51 2.31
52 9.08
53 3.08
54 1.86
62 3.69
67 2.26
68 2.11
78 3.76
79 13.56
80 3.09
95 12.85
96 8.03
123 28.19
124 99.99
125 7.59

$$$$

     RDKit          2D

  4  3  0  0  0  0  0  0  0  0999 V2000
   -0.3248    1.3125    0.0000 C   0  0  0  0  0  0  0  0  0  0  0  0
    0.9743    0.5625    0.0000 N   0  0  0  0  0  0  0  0  0  0  0  0
   -1.6238    0.5625    0.0000 N   0  0  0  0  0  0  0  0  0  0  0  0
   -0.3248    2.8125    0.0000 O   0  0  0  0  0  0  0  0  0  0  0  0
  2  1  2  0
  3  1  1  0
  4  1  1  0
M  END
>  <NAME>  (389) 
UREA

>  <SYNONYMS>  (389) 


>  <SPECTRUM TYPE>  (389) 
MS1

>  <INSTRUMENT TYPE>  (389) 
EI-B

>  <INSTRUMENT>  (389) 
HITACHI M-2500

>  <ION MODE>  (389) 
P

>  <INCHIKEY>  (389) 
XSQUKJJJFZCRTK-UHFFFAOYSA-N

>  <FORMULA>  (389) 
CH4N2O

>  <EXACT MASS>  (389) 
60.032362748

>  <MW>  (389) 
60

>  <ID>  (389) 
JP011641

>  <CONTRIBUTOR>  (389) 
University of Tokyo Team, {Faculty of Engineering, University of Tokyo

>  <COMMENT>  (389) 
SMILES=NC(N)=O
cas=57-13-6
InChI=InChI=1S/CH4N2O/c2-1(3)4/h(H4,2,3,4)
computed SMILES=N=C(O)N
license=CC BY-NC-SA
accession=JP011641
date=2016.01.19 (Created 2008.10.21, modified 2011.05.06)
author=YAMAMOTO M, DEP. CHEMISTRY, FAC. SCIENCE, NARA WOMEN'S UNIV.
exact mass=60.03236
ionization energy=70 eV
ion type=[M]+*
computed spectral entropy=1.8028939917683053
computed normalized entropy=0.683158327610543
SPLASH=splash10-02tc-9000000000-d69da17ffbb84fb6bdca
submitter=submitter = University of Tokyo Team (Faculty of Engineering, University of Tokyo)
MoNA Rating=3.75

>  <NUM PEAKS>  (389) 
14

>  <MASS SPECTRAL PEAKS>  (389) 
16 11.08
17 52.82
18 46.68
27 1.02
28 2.49
29 2.13
31 2.1
41 1.28
42 3.02
43 11.23
44 69.84
45 1.3
60 99.99
61 4.14

$$$$

     RDKit          2D

 18 20  0  0  0  0  0  0  0  0999 V2000
    3.9000    0.7500    0.0000 C   0  0  0  0  0  0  0  0  0  0  0  0
   -3.9000   -0.7500    0.0000 C   0  0  0  0  0  0  0  0  0  0  0  0
    2.6000    1.5000    0.0000 C   0  0  0  0  0  0  0  0  0  0  0  0
   -2.6000   -1.5000    0.0000 C   0  0  0  0  0  0  0  0  0  0  0  0
    2.6000   -1.5000    0.0000 C   0  0  0  0  0  0  0  0  0  0  0  0
   -2.6000    1.5000    0.0000 C   0  0  0  0  0  0  0  0  0  0  0  0
    3.9000   -0.7500    0.0000 C   0  0  0  0  0  0  0  0  0  0  0  0
   -3.9000    0.7500    0.0000 C   0  0  0  0  0  0  0  0  0  0  0  0
    1.3000    0.7500    0.0000 C   0  0  0  0  0  0  0  0  0  0  0  0
   -1.3000   -0.7500    0.0000 C   0  0  0  0  0  0  0  0  0  0  0  0
    1.3000   -0.7500    0.0000 C   0  0  0  0  0  0  0  0  0  0  0  0
   -1.3000    0.7500    0.0000 C   0  0  0  0  0  0  0  0  0  0  0  0
   -0.0000    1.5000    0.0000 C   0  0  0  0  0  0  0  0  0  0  0  0
   -0.0000   -1.5000    0.0000 C   0  0  0  0  0  0  0  0  0  0  0  0
    5.1989   -1.5002    0.0000 N   0  0  0  0  0  0  0  0  0  0  0  0
   -5.1989    1.5002    0.0000 N   0  0  0  0  0  0  0  0  0  0  0  0
    0.0000    3.0000    0.0000 O   0  0  0  0  0  0  0  0  0  0  0  0
   -0.0000   -3.0000    0.0000 O   0  0  0  0  0  0  0  0  0  0  0  0
  3  1  2  0
  4  2  1  0
  7  1  1  0
  7  5  2  0
  8  2  2  0
  8  6  1  0
  9  3  1  0
 10  4  2  0
 11  5  1  0
 11  9  2  0
 12  6  2  0
 12 10  1  0
 13  9  1  0
 13 12  1  0
 14 10  1  0
 14 11  1  0
 15  7  1  0
 16  8  1  0
 17 13  2  0
 18 14  2  0
M  END
>  <NAME>  (390) 
2,6-DIAMINOANTHRAQUINONE

>  <SYNONYMS>  (390) 


>  <SPECTRUM TYPE>  (390) 
MS1

>  <INSTRUMENT TYPE>  (390) 
EI-B

>  <INSTRUMENT>  (390) 
HITACHI M-2500

>  <ION MODE>  (390) 
P

>  <INCHIKEY>  (390) 
WQOWBWVMZPPPGX-UHFFFAOYSA-N

>  <FORMULA>  (390) 
C14H10N2O2

>  <EXACT MASS>  (390) 
238.07422756

>  <MW>  (390) 
238

>  <ID>  (390) 
JP011640

>  <CONTRIBUTOR>  (390) 
University of Tokyo Team, {Faculty of Engineering, University of Tokyo

>  <COMMENT>  (390) 
SMILES=Nc(c3)cc(c(=O)1)c(c3)c(=O)c(c2)c(ccc(N)2)1
cas=131-14-6
InChI=InChI=1S/C14H10N2O2/c15-7-1-3-9-11(5-7)14(18)10-4-2-8(16)6-12(10)13(9)17/h1-6H,15-16H2
computed SMILES=O=C1C2=CC=C(N)C=C2C(=O)C3=CC=C(N)C=C13
accession=JP011640
date=2016.01.19 (Created 2008.10.21, modified 2011.05.06)
author=YAMAMOTO M, DEP. CHEMISTRY, FAC. SCIENCE, NARA WOMEN'S UNIV.
license=CC BY-NC-SA
exact mass=238.07423
ionization energy=70 eV
ion type=[M]+*
computed spectral entropy=3.075920974336568
computed normalized entropy=0.7641372010838667
SPLASH=splash10-00xr-2980000000-2159cbbbb4d67a838113
submitter=submitter = University of Tokyo Team (Faculty of Engineering, University of Tokyo)
MoNA Rating=3.75

>  <NUM PEAKS>  (390) 
56

>  <MASS SPECTRAL PEAKS>  (390) 
50 1.66
51 1.5
52 1.32
62 1.53
63 3.48
64 1.42
70 1.35
71 1.66
75 1.57
76 2.39
77 2.6
82 1.19
83 1
84 9.88
89 1.92
90 1.26
91 1.65
97 3.76
105 1.5
113 1.69
114 1.58
115 2.48
126 1.6
127 1.36
128 1.11
139 15.62
140 6.77
141 2.68
151 1.42
152 1.71
154 2.41
164 1.67
165 1.34
166 10.95
167 30.01
168 19.92
169 33.19
170 4.51
180 1.48
181 1.79
182 2.78
194 8.15
195 20
196 3.22
203 1.44
208 1.35
209 1.42
210 4.65
220 1.86
222 6.88
223 99.99
224 15.82
225 1.47
237 4.26
238 25.32
239 4.85

$$$$

     RDKit          2D

 18 20  0  0  0  0  0  0  0  0999 V2000
    3.9000    0.7500    0.0000 C   0  0  0  0  0  0  0  0  0  0  0  0
   -3.9000   -0.7500    0.0000 C   0  0  0  0  0  0  0  0  0  0  0  0
    2.6000    1.5000    0.0000 C   0  0  0  0  0  0  0  0  0  0  0  0
   -2.6000   -1.5000    0.0000 C   0  0  0  0  0  0  0  0  0  0  0  0
    3.9000   -0.7500    0.0000 C   0  0  0  0  0  0  0  0  0  0  0  0
   -3.9000    0.7500    0.0000 C   0  0  0  0  0  0  0  0  0  0  0  0
    1.3000    0.7500    0.0000 C   0  0  0  0  0  0  0  0  0  0  0  0
   -1.3000   -0.7500    0.0000 C   0  0  0  0  0  0  0  0  0  0  0  0
    2.6000   -1.5000    0.0000 C   0  0  0  0  0  0  0  0  0  0  0  0
   -2.6000    1.5000    0.0000 C   0  0  0  0  0  0  0  0  0  0  0  0
    1.3000   -0.7500    0.0000 C   0  0  0  0  0  0  0  0  0  0  0  0
   -1.3000    0.7500    0.0000 C   0  0  0  0  0  0  0  0  0  0  0  0
   -0.0000    1.5000    0.0000 C   0  0  0  0  0  0  0  0  0  0  0  0
   -0.0000   -1.5000    0.0000 C   0  0  0  0  0  0  0  0  0  0  0  0
    2.6000   -3.0000    0.0000 N   0  0  0  0  0  0  0  0  0  0  0  0
   -2.6000    3.0000    0.0000 N   0  0  0  0  0  0  0  0  0  0  0  0
    0.0000    3.0000    0.0000 O   0  0  0  0  0  0  0  0  0  0  0  0
   -0.0000   -3.0000    0.0000 O   0  0  0  0  0  0  0  0  0  0  0  0
  3  1  2  0
  4  2  2  0
  5  1  1  0
  6  2  1  0
  7  3  1  0
  8  4  1  0
  9  5  2  0
 10  6  2  0
 11  7  2  0
 11  9  1  0
 12  8  2  0
 12 10  1  0
 13  7  1  0
 13 12  1  0
 14  8  1  0
 14 11  1  0
 15  9  1  0
 16 10  1  0
 17 13  2  0
 18 14  2  0
M  END
>  <NAME>  (391) 
1,5-DIAMINOANTHRAQUINONE

>  <SYNONYMS>  (391) 


>  <SPECTRUM TYPE>  (391) 
MS1

>  <INSTRUMENT TYPE>  (391) 
EI-B

>  <INSTRUMENT>  (391) 
HITACHI M-2500

>  <ION MODE>  (391) 
P

>  <INCHIKEY>  (391) 
VWBVCOPVKXNMMZ-UHFFFAOYSA-N

>  <FORMULA>  (391) 
C14H10N2O2

>  <EXACT MASS>  (391) 
238.07422756

>  <MW>  (391) 
238

>  <ID>  (391) 
JP011639

>  <CONTRIBUTOR>  (391) 
University of Tokyo Team, {Faculty of Engineering, University of Tokyo

>  <COMMENT>  (391) 
SMILES=Nc(c3)c(c(=O)1)c(cc3)c(=O)c(c(N)2)c(ccc2)1
cas=129-44-2
InChI=InChI=1S/C14H10N2O2/c15-9-5-1-3-7-11(9)14(18)8-4-2-6-10(16)12(8)13(7)17/h1-6H,15-16H2
computed SMILES=O=C1C=2C=CC=C(N)C2C(=O)C=3C=CC=C(N)C13
accession=JP011639
date=2016.01.19 (Created 2008.10.21, modified 2011.05.06)
author=YAMAMOTO M, DEP. CHEMISTRY, FAC. SCIENCE, NARA WOMEN'S UNIV.
license=CC BY-NC-SA
exact mass=238.07423
ionization energy=70 eV
ion type=[M]+*
computed spectral entropy=2.7710993440565237
computed normalized entropy=0.7237813775397328
SPLASH=splash10-000i-1290000000-194169a42399982b4a85
submitter=submitter = University of Tokyo Team (Faculty of Engineering, University of Tokyo)
MoNA Rating=3.75

>  <NUM PEAKS>  (391) 
46

>  <MASS SPECTRAL PEAKS>  (391) 
17 1.96
18 10.23
28 2.44
39 1.15
44 1
63 2.49
64 1.81
65 1.76
75 1.21
76 1.3
77 3.59
78 1.6
84 1.6
90 1.33
91 3.34
92 1.42
119 4.15
126 1.06
127 2.71
128 1.49
138 1.66
139 4.2
140 2.26
153 1.11
154 5.4
155 1.82
164 1.93
165 1.93
166 2.92
167 4.27
168 1.63
181 5.1
182 5.13
184 1.18
194 1.13
195 4.3
209 2.84
210 10.65
211 2.04
222 3.37
223 31.05
224 4.91
237 4.43
238 99.99
239 21.38
240 3.19

$$$$

     RDKit          2D

 18 20  0  0  0  0  0  0  0  0999 V2000
    3.9000    0.7500    0.0000 C   0  0  0  0  0  0  0  0  0  0  0  0
   -3.9000   -0.7500    0.0000 C   0  0  0  0  0  0  0  0  0  0  0  0
    2.6000    1.5000    0.0000 C   0  0  0  0  0  0  0  0  0  0  0  0
   -2.6000   -1.5000    0.0000 C   0  0  0  0  0  0  0  0  0  0  0  0
    3.9000   -0.7500    0.0000 C   0  0  0  0  0  0  0  0  0  0  0  0
   -3.9000    0.7500    0.0000 C   0  0  0  0  0  0  0  0  0  0  0  0
    1.3000    0.7500    0.0000 C   0  0  0  0  0  0  0  0  0  0  0  0
   -1.3000   -0.7500    0.0000 C   0  0  0  0  0  0  0  0  0  0  0  0
    2.6000   -1.5000    0.0000 C   0  0  0  0  0  0  0  0  0  0  0  0
   -2.6000    1.5000    0.0000 C   0  0  0  0  0  0  0  0  0  0  0  0
    1.3000   -0.7500    0.0000 C   0  0  0  0  0  0  0  0  0  0  0  0
   -1.3000    0.7500    0.0000 C   0  0  0  0  0  0  0  0  0  0  0  0
   -0.0000    1.5000    0.0000 C   0  0  0  0  0  0  0  0  0  0  0  0
   -0.0000   -1.5000    0.0000 C   0  0  0  0  0  0  0  0  0  0  0  0
    2.6000   -3.0000    0.0000 O   0  0  0  0  0  0  0  0  0  0  0  0
   -2.6000    3.0000    0.0000 O   0  0  0  0  0  0  0  0  0  0  0  0
    0.0000    3.0000    0.0000 O   0  0  0  0  0  0  0  0  0  0  0  0
   -0.0000   -3.0000    0.0000 O   0  0  0  0  0  0  0  0  0  0  0  0
  3  1  2  0
  4  2  2  0
  5  1  1  0
  6  2  1  0
  7  3  1  0
  8  4  1  0
  9  5  2  0
 10  6  2  0
 11  7  2  0
 11  9  1  0
 12  8  2  0
 12 10  1  0
 13  7  1  0
 13 12  1  0
 14  8  1  0
 14 11  1  0
 15  9  1  0
 16 10  1  0
 17 13  2  0
 18 14  2  0
M  END
>  <NAME>  (392) 
1,5-DIHYDROXYANTHRAQUINONE

>  <SYNONYMS>  (392) 
ANTHRARUFIN

>  <SPECTRUM TYPE>  (392) 
MS1

>  <INSTRUMENT TYPE>  (392) 
EI-B

>  <INSTRUMENT>  (392) 
HITACHI M-2500

>  <ION MODE>  (392) 
P

>  <INCHIKEY>  (392) 
JPICKYUTICNNNJ-UHFFFAOYSA-N

>  <FORMULA>  (392) 
C14H8O4

>  <EXACT MASS>  (392) 
240.042258736

>  <MW>  (392) 
240

>  <ID>  (392) 
JP011638

>  <CONTRIBUTOR>  (392) 
University of Tokyo Team, {Faculty of Engineering, University of Tokyo

>  <COMMENT>  (392) 
SMILES=Oc(c3)c(c(=O)1)c(cc3)c(=O)c(c(O)2)c(ccc2)1
cas=117-12-4
InChI=InChI=1S/C14H8O4/c15-9-5-1-3-7-11(9)14(18)8-4-2-6-10(16)12(8)13(7)17/h1-6,15-16H
computed SMILES=O=C1C=2C=CC=C(O)C2C(=O)C=3C=CC=C(O)C13
accession=JP011638
date=2016.01.19 (Created 2008.10.21, modified 2011.05.06)
author=YAMAMOTO M, DEP. CHEMISTRY, FAC. SCIENCE, NARA WOMEN'S UNIV.
license=CC BY-NC-SA
exact mass=240.04226
ionization energy=70 eV
ion type=[M]+*
computed spectral entropy=2.285837328458854
computed normalized entropy=0.6537487159044336
SPLASH=splash10-0006-1290000000-4c1d7a2a5cad384d8ba3
submitter=submitter = University of Tokyo Team (Faculty of Engineering, University of Tokyo)
MoNA Rating=3.75

>  <NUM PEAKS>  (392) 
33

>  <MASS SPECTRAL PEAKS>  (392) 
39 1.2
51 1.81
62 1.26
63 3.35
64 2.31
75 1.46
77 1.26
91 1.2
92 6.26
101 1.04
102 1.57
119 1.57
120 3.93
121 1.1
126 1.32
127 2.85
128 4.25
138 3.12
139 1.58
155 4.24
156 1.53
183 1.02
184 10.87
185 1.42
211 1.43
212 8.79
213 1.23
223 5.97
224 2.39
239 5.94
240 99.99
241 15.87
242 1.93

$$$$

     RDKit          2D

 27 29  0  0  1  0  0  0  0  0999 V2000
   -5.0589   -1.5802    0.0000 C   0  0  0  0  0  0  0  0  0  0  0  0
   -5.0589    1.4202    0.0000 C   0  0  0  0  0  0  0  0  0  0  0  0
   -2.4600   -1.5800    0.0000 C   0  0  0  0  0  0  0  0  0  0  0  0
   -2.4600    1.4200    0.0000 C   0  0  0  0  0  0  0  0  0  0  0  0
    0.1400    2.9200    0.0000 C   0  0  0  0  0  0  0  0  0  0  0  0
    2.7381    7.4200    0.0000 C   0  0  0  0  0  0  0  0  0  0  0  0
   -3.7600   -0.8300    0.0000 C   0  0  0  0  0  0  0  0  0  0  0  0
   -3.7600    0.6700    0.0000 C   0  0  0  0  0  0  0  0  0  0  0  0
   -1.1600   -0.8300    0.0000 C   0  0  0  0  0  0  0  0  0  0  0  0
   -1.1600    0.6700    0.0000 C   0  0  0  0  0  0  0  0  0  0  0  0
    1.4390    3.6700    0.0000 C   0  0  0  0  0  0  0  0  0  0  0  0
    2.7381    5.9200    0.0000 C   0  0  0  0  0  0  0  0  0  0  0  0
    1.4400   -0.8300    0.0000 C   0  0  0  0  0  0  0  0  0  0  0  0
    1.4390    5.1700    0.0000 C   0  0  0  0  0  0  0  0  0  0  0  0
    1.4400    0.6700    0.0000 C   0  0  0  0  0  0  0  0  0  0  0  0
    2.7300   -1.5800    0.0000 C   0  0  0  0  0  0  0  0  0  0  0  0
    4.0300    0.6700    0.0000 C   0  0  0  0  0  0  0  0  0  0  0  0
    0.1400   -1.5800    0.0000 N   0  0  0  0  0  0  0  0  0  0  0  0
    2.7300    1.4200    0.0000 N   0  0  0  0  0  0  0  0  0  0  0  0
    4.0300   -0.8300    0.0000 N   0  0  0  0  0  0  0  0  0  0  0  0
    0.1400    1.4200    0.0000 N   0  0  0  0  0  0  0  0  0  0  0  0
    4.0371    8.1700    0.0000 O   0  0  0  0  0  0  0  0  0  0  0  0
    2.7381    2.9200    0.0000 O   0  0  0  0  0  0  0  0  0  0  0  0
    4.0371    5.1700    0.0000 O   0  0  0  0  0  0  0  0  0  0  0  0
    0.1400    5.9200    0.0000 O   0  0  0  0  0  0  0  0  0  0  0  0
    2.7275   -3.0800    0.0000 O   0  0  0  0  0  0  0  0  0  0  0  0
    5.3289    1.4202    0.0000 O   0  0  0  0  0  0  0  0  0  0  0  0
  7  1  1  0
  7  3  2  0
  8  2  1  0
  8  4  2  0
  8  7  1  0
  9  3  1  0
 10  4  1  0
 10  9  2  0
 11  5  1  0
 12  6  1  0
 14 11  1  0
 14 12  1  0
 15 13  1  0
 16 13  1  0
 18  9  1  0
 18 13  2  0
 19 15  2  0
 19 17  1  0
 20 16  2  0
 20 17  1  0
 21  5  1  0
 21 10  1  0
 21 15  1  0
 22  6  1  0
 11 23  1  1
 12 24  1  1
 14 25  1  6
 26 16  1  0
 27 17  2  0
M  END
>  <NAME>  (393) 
(-)-RIBOFLAVIN

>  <SYNONYMS>  (393) 
VITAMIN B2

>  <SPECTRUM TYPE>  (393) 
MS1

>  <INSTRUMENT TYPE>  (393) 
EI-B

>  <INSTRUMENT>  (393) 
HITACHI M-2500

>  <ION MODE>  (393) 
P

>  <INCHIKEY>  (393) 
AUNGANRZJHBGPY-SCRDCRAPSA-N

>  <FORMULA>  (393) 
C17H20N4O6

>  <EXACT MASS>  (393) 
376.13828435999994

>  <MW>  (393) 
376

>  <ID>  (393) 
JP011637

>  <CONTRIBUTOR>  (393) 
University of Tokyo Team, {Faculty of Engineering, University of Tokyo

>  <COMMENT>  (393) 
SMILES=OCC([H])(O)C([H])(O)C([H])(O)CN(c21)C(=N3)C(C(=O)NC(=O)3)=Nc(cc(C)c(C)c2)1
cas=83-88-5
InChI=InChI=1S/C17H20N4O6/c1-7-3-9-10(4-8(7)2)21(5-11(23)14(25)12(24)6-22)15-13(18-9)16(26)20-17(27)19-15/h3-4,11-12,14,22-25H,5-6H2,1-2H3,(H,20,26,27)/t11-,12+,14-/m0/s1
computed SMILES=O=C1N=C(O)C2=NC3=CC(=C(C=C3N(C2=N1)CC(O)C(O)C(O)CO)C)C
accession=JP011637
date=2016.01.19 (Created 2008.10.21, modified 2011.05.06)
author=YAMAMOTO M, DEP. CHEMISTRY, FAC. SCIENCE, NARA WOMEN'S UNIV.
license=CC BY-NC-SA
exact mass=376.13828
ionization energy=70 eV
ion type=[M]+*
computed spectral entropy=4.164063612260296
computed normalized entropy=0.8451084271962833
SPLASH=splash10-006x-4980000000-dd278a577316361d270a
submitter=submitter = University of Tokyo Team (Faculty of Engineering, University of Tokyo)
MoNA Rating=3.75

>  <NUM PEAKS>  (393) 
138

>  <MASS SPECTRAL PEAKS>  (393) 
15 1.42
17 1.77
18 8.72
27 3.39
28 3.11
29 3.24
31 2.42
39 5.23
40 1.16
41 2.59
42 2.5
43 6.64
44 14.65
45 2.76
50 1.73
51 3.97
52 2.43
53 2.32
54 1.09
55 1.8
56 2.29
57 2.32
58 1.09
60 1.39
61 1.69
63 2.58
64 1.8
65 3.15
66 1.31
68 1.15
69 1.91
70 2.05
73 1.6
74 2.43
75 2.07
76 2.5
77 6.32
78 2.7
79 1.61
81 1.6
85 1.09
86 2.01
88 1.01
89 3.33
90 2.43
91 4.73
92 1.32
98 1.31
99 1.97
100 1.28
101 1.71
102 3.93
103 6.4
104 3.32
105 1.29
114 1.83
115 1.83
116 7.22
117 3.66
118 3.18
121 1.62
128 2.96
129 3.22
130 5.91
131 5.79
132 1.58
141 1.54
142 1.8
143 3.6
144 3.37
145 4.93
146 2.85
147 1.53
155 1.18
156 26.5
157 8.07
158 5.91
159 6.64
160 2.54
161 1.18
169 1.81
170 19.44
171 49.16
172 13.93
173 5.74
174 10.98
175 3.52
182 1.05
183 1.22
184 3.93
185 9.21
186 3.1
187 3.25
188 3.24
189 2.96
196 1.65
197 4.96
198 5.64
199 5.54
200 2
201 2.02
210 1.15
211 1.94
212 2.36
213 21.2
214 5.01
215 1.48
216 2.58
217 9.99
218 3.92
219 1.02
225 1.33
226 1.78
227 3.29
228 2.5
229 1.2
230 1.93
231 1.56
239 1.21
240 1.97
241 3.28
242 99.99
243 19.4
244 3.1
245 7.09
246 1.29
254 1.48
255 1.32
256 38.02
257 7.67
258 4.76
259 1.75
270 1.44
291 1.07
333 2.2
343 4.26
344 1.07
361 2.93

$$$$

     RDKit          2D

 11 11  0  0  0  0  0  0  0  0999 V2000
    2.5987    3.0002    0.0000 C   0  0  0  0  0  0  0  0  0  0  0  0
   -1.3000    0.7500    0.0000 C   0  0  0  0  0  0  0  0  0  0  0  0
    0.0000    1.5000    0.0000 C   0  0  0  0  0  0  0  0  0  0  0  0
   -0.0000   -1.5000    0.0000 C   0  0  0  0  0  0  0  0  0  0  0  0
    2.5989    1.5002    0.0000 C   0  0  0  0  0  0  0  0  0  0  0  0
   -1.3000   -0.7500    0.0000 C   0  0  0  0  0  0  0  0  0  0  0  0
    1.3000    0.7500    0.0000 C   0  0  0  0  0  0  0  0  0  0  0  0
    1.3000   -0.7500    0.0000 C   0  0  0  0  0  0  0  0  0  0  0  0
    3.8981    0.7504    0.0000 O   0  0  0  0  0  0  0  0  0  0  0  0
   -2.5989   -1.5002    0.0000 O   0  0  0  0  0  0  0  0  0  0  0  0
    2.5989   -1.5002    0.0000 O   0  0  0  0  0  0  0  0  0  0  0  0
  3  2  2  0
  5  1  1  0
  6  2  1  0
  6  4  2  0
  7  3  1  0
  7  5  1  0
  8  4  1  0
  8  7  2  0
  9  5  2  0
 10  6  1  0
 11  8  1  0
M  END
>  <NAME>  (394) 
2',4'-DIHYDROXYACETOPHENONE

>  <SYNONYMS>  (394) 


>  <SPECTRUM TYPE>  (394) 
MS1

>  <INSTRUMENT TYPE>  (394) 
EI-B

>  <INSTRUMENT>  (394) 
HITACHI M-2500

>  <ION MODE>  (394) 
P

>  <INCHIKEY>  (394) 
SULYEHHGGXARJS-UHFFFAOYSA-N

>  <FORMULA>  (394) 
C8H8O3

>  <EXACT MASS>  (394) 
152.04734411599998

>  <MW>  (394) 
152

>  <ID>  (394) 
JP011636

>  <CONTRIBUTOR>  (394) 
University of Tokyo Team, {Faculty of Engineering, University of Tokyo

>  <COMMENT>  (394) 
SMILES=CC(=O)c(c1)c(O)cc(O)c1
cas=89-84-9
InChI=InChI=1S/C8H8O3/c1-5(9)7-3-2-6(10)4-8(7)11/h2-4,10-11H,1H3
computed SMILES=O=C(C1=CC=C(O)C=C1O)C
accession=JP011636
date=2016.01.19 (Created 2008.10.21, modified 2011.05.06)
author=YAMAMOTO M, DEP. CHEMISTRY, FAC. SCIENCE, NARA WOMEN'S UNIV.
license=CC BY-NC-SA
exact mass=152.04734
ionization energy=70 eV
ion type=[M]+*
computed spectral entropy=1.927974536908131
computed normalized entropy=0.6066525741312093
SPLASH=splash10-0f79-2900000000-647d0e62b5caf8adccc9
submitter=submitter = University of Tokyo Team (Faculty of Engineering, University of Tokyo)
MoNA Rating=3.75

>  <NUM PEAKS>  (394) 
24

>  <MASS SPECTRAL PEAKS>  (394) 
18 1.72
27 2.57
38 1.05
39 2.93
42 1.21
43 6.98
44 1
50 1.39
51 2.96
52 1.77
53 3.96
55 1.82
62 1.78
63 1.84
69 5.77
77 1.29
81 8.66
108 1.28
109 2.85
123 1.15
137 99.99
138 7.88
152 53.06
153 4.88

$$$$

     RDKit          2D

 16 17  0  0  0  0  0  0  0  0999 V2000
   -0.0000   -1.9300    0.0000 C   0  0  0  0  0  0  0  0  0  0  0  0
    3.8971    4.8200    0.0000 C   0  0  0  0  0  0  0  0  0  0  0  0
    1.3000   -1.1800    0.0000 C   0  0  0  0  0  0  0  0  0  0  0  0
   -1.3000   -1.1800    0.0000 C   0  0  0  0  0  0  0  0  0  0  0  0
    2.5976    5.5708    0.0000 C   0  0  0  0  0  0  0  0  0  0  0  0
    3.8976    3.3192    0.0000 C   0  0  0  0  0  0  0  0  0  0  0  0
    1.3000    0.3200    0.0000 C   0  0  0  0  0  0  0  0  0  0  0  0
   -1.3000    0.3200    0.0000 C   0  0  0  0  0  0  0  0  0  0  0  0
    1.2986    4.8208    0.0000 C   0  0  0  0  0  0  0  0  0  0  0  0
    2.5986    2.5692    0.0000 C   0  0  0  0  0  0  0  0  0  0  0  0
   -0.0000    1.0700    0.0000 C   0  0  0  0  0  0  0  0  0  0  0  0
    1.2990    3.3200    0.0000 C   0  0  0  0  0  0  0  0  0  0  0  0
    0.0000    2.5700    0.0000 C   0  0  0  0  0  0  0  0  0  0  0  0
   -1.2990    3.3200    0.0000 C   0  0  0  0  0  0  0  0  0  0  0  0
   -2.5981    2.5700    0.0000 O   0  0  0  0  0  0  0  0  0  0  0  0
   -1.2990    4.8200    0.0000 O   0  0  0  0  0  0  0  0  0  0  0  0
  3  1  2  0
  4  1  1  0
  5  2  2  0
  6  2  1  0
  7  3  1  0
  8  4  2  0
  9  5  1  0
 10  6  2  0
 11  7  2  0
 11  8  1  0
 12  9  2  0
 12 10  1  0
 13 11  1  0
 13 12  1  0
 14 13  1  0
 15 14  2  0
 16 14  1  0
M  END
>  <NAME>  (395) 
DIPHENYLACETIC ACID

>  <SYNONYMS>  (395) 


>  <SPECTRUM TYPE>  (395) 
MS1

>  <INSTRUMENT TYPE>  (395) 
EI-B

>  <INSTRUMENT>  (395) 
HITACHI M-2500

>  <ION MODE>  (395) 
P

>  <INCHIKEY>  (395) 
PYHXGXCGESYPCW-UHFFFAOYSA-N

>  <FORMULA>  (395) 
C14H12O2

>  <EXACT MASS>  (395) 
212.083729624

>  <MW>  (395) 
212

>  <ID>  (395) 
JP011633

>  <CONTRIBUTOR>  (395) 
University of Tokyo Team, {Faculty of Engineering, University of Tokyo

>  <COMMENT>  (395) 
SMILES=OC(=O)C(c(c2)cccc2)c(c1)cccc1
cas=117-34-0
InChI=InChI=1S/C14H12O2/c15-14(16)13(11-7-3-1-4-8-11)12-9-5-2-6-10-12/h1-10,13H,(H,15,16)
computed SMILES=O=C(O)C(C=1C=CC=CC1)C=2C=CC=CC2
accession=JP011633
date=2016.01.19 (Created 2008.10.21, modified 2011.05.06)
author=YAMAMOTO M, DEP. CHEMISTRY, FAC. SCIENCE, NARA WOMEN'S UNIV.
license=CC BY-NC-SA
exact mass=212.08373
ionization energy=70 eV
ion type=[M]+*
computed spectral entropy=2.098524210874147
computed normalized entropy=0.6603173901067598
SPLASH=splash10-014i-0910000000-5402c61b553fa7bf5889
submitter=submitter = University of Tokyo Team (Faculty of Engineering, University of Tokyo)
MoNA Rating=3.75

>  <NUM PEAKS>  (395) 
24

>  <MASS SPECTRAL PEAKS>  (395) 
18 1.35
39 1.67
51 1.8
63 1.79
77 1.72
82 3.5
83 3.35
89 1.3
91 1
115 2.47
128 1.61
139 1.98
151 1.14
152 13.38
153 2.63
163 1.61
164 1.99
165 27.95
166 9.85
167 99.99
168 18.27
169 1.44
212 29.07
213 4.47

$$$$

     RDKit          2D

 17 17  0  0  1  0  0  0  0  0999 V2000
    4.2221    2.7571    0.0000 C   0  0  0  0  0  0  0  0  0  0  0  0
    4.2226    4.2579    0.0000 C   0  0  0  0  0  0  0  0  0  0  0  0
    2.9226    2.0063    0.0000 C   0  0  0  0  0  0  0  0  0  0  0  0
    2.9236    5.0079    0.0000 C   0  0  0  0  0  0  0  0  0  0  0  0
    1.6236    2.7563    0.0000 C   0  0  0  0  0  0  0  0  0  0  0  0
   -4.8712    5.0071    0.0000 C   0  0  0  0  0  0  0  0  0  0  0  0
   -3.5721    4.2571    0.0000 C   0  0  0  0  0  0  0  0  0  0  0  0
    0.3250    5.0071    0.0000 C   0  0  0  0  0  0  0  0  0  0  0  0
    1.6240    4.2571    0.0000 C   0  0  0  0  0  0  0  0  0  0  0  0
   -6.1702    4.2571    0.0000 C   0  0  0  0  0  0  0  0  0  0  0  0
   -2.2731    5.0071    0.0000 C   0  0  0  0  0  0  0  0  0  0  0  0
   -7.4692    5.0071    0.0000 C   0  0  0  0  0  0  0  0  0  0  0  0
   -6.1702    2.7571    0.0000 N   0  0  0  0  0  0  0  0  0  0  0  0
   -2.2731    6.5071    0.0000 O   0  0  0  0  0  0  0  0  0  0  0  0
   -7.4692    6.5071    0.0000 O   0  0  0  0  0  0  0  0  0  0  0  0
   -8.7683    4.2571    0.0000 O   0  0  0  0  0  0  0  0  0  0  0  0
   -0.9740    4.2571    0.0000 O   0  0  0  0  0  0  0  0  0  0  0  0
  2  1  2  0
  3  1  1  0
  4  2  1  0
  5  3  2  0
  7  6  1  0
  9  4  2  0
  9  5  1  0
  9  8  1  0
 10  6  1  0
 11  7  1  0
 12 10  1  0
 10 13  1  1
 14 11  2  0
 15 12  2  0
 16 12  1  0
 17  8  1  0
 17 11  1  0
M  END
>  <NAME>  (396) 
GAMMA-BENZYL L-GLUTAMATE

>  <SYNONYMS>  (396) 


>  <SPECTRUM TYPE>  (396) 
MS1

>  <INSTRUMENT TYPE>  (396) 
EI-B

>  <INSTRUMENT>  (396) 
HITACHI M-2500

>  <ION MODE>  (396) 
P

>  <INCHIKEY>  (396) 
BGGHCRNCRWQABU-SNVBAGLBSA-N

>  <FORMULA>  (396) 
C12H15NO4

>  <EXACT MASS>  (396) 
237.10010795999997

>  <MW>  (396) 
237

>  <ID>  (396) 
JP011632

>  <CONTRIBUTOR>  (396) 
University of Tokyo Team, {Faculty of Engineering, University of Tokyo

>  <COMMENT>  (396) 
SMILES=O=C(OCc(c1)cccc1)CCC([H])(N)C(O)=O
cas=1676-73-9
InChI=InChI=1S/C12H15NO4/c13-10(12(15)16)6-7-11(14)17-8-9-4-2-1-3-5-9/h1-5,10H,6-8,13H2,(H,15,16)/t10-/m1/s1
computed SMILES=O=C(O)C(N)CCC(=O)OCC=1C=CC=CC1
accession=JP011632
date=2016.01.19 (Created 2008.10.21, modified 2011.05.06)
author=YAMAMOTO M, DEP. CHEMISTRY, FAC. SCIENCE, NARA WOMEN'S UNIV.
license=CC BY-NC-SA
exact mass=237.10011
ionization energy=70 eV
ion type=[M]+*
computed spectral entropy=3.173152788416725
computed normalized entropy=0.7882920629569171
SPLASH=splash10-0006-9400000000-3ec5a8e9ea9e55e7d5d2
submitter=submitter = University of Tokyo Team (Faculty of Engineering, University of Tokyo)
MoNA Rating=3.75

>  <NUM PEAKS>  (396) 
56

>  <MASS SPECTRAL PEAKS>  (396) 
17 1.22
18 6.41
20 2.56
27 2.09
28 7.18
29 1.46
30 1.64
39 4.47
41 6.38
42 1.04
43 1.93
44 4.34
50 1.97
51 5.42
52 1.39
53 1.14
54 1.11
55 1.66
56 5.64
57 2.23
58 1.35
63 2.1
65 7.49
73 1.01
74 4.47
75 2.67
77 10.42
78 2.25
79 16.07
80 1.55
84 25.17
85 2.14
89 2.95
90 3.33
91 99.99
92 9.07
93 1.04
100 3.86
102 1.65
103 2.62
104 1.16
105 1.81
107 14.19
108 20.77
109 1.55
120 1.66
121 11.92
122 1.01
128 8.08
129 2.57
146 22.09
147 1.49
174 3.23
192 36.36
193 4.55
214 6.95

$$$$

     RDKit          2D

 16 17  0  0  0  0  0  0  0  0999 V2000
   -1.0205    2.4142    0.0000 C   0  0  0  0  0  0  0  0  0  0  0  0
   -1.0200    0.9142    0.0000 C   0  0  0  0  0  0  0  0  0  0  0  0
    0.2792    3.1646    0.0000 C   0  0  0  0  0  0  0  0  0  0  0  0
    6.7766    2.4180    0.0000 C   0  0  0  0  0  0  0  0  0  0  0  0
    5.4773    3.1676    0.0000 C   0  0  0  0  0  0  0  0  0  0  0  0
    0.2802    0.1646    0.0000 C   0  0  0  0  0  0  0  0  0  0  0  0
    1.5795    2.4151    0.0000 C   0  0  0  0  0  0  0  0  0  0  0  0
    6.7766    0.9171    0.0000 C   0  0  0  0  0  0  0  0  0  0  0  0
    4.1780    2.4163    0.0000 C   0  0  0  0  0  0  0  0  0  0  0  0
    1.5800    0.9151    0.0000 C   0  0  0  0  0  0  0  0  0  0  0  0
    5.4773    0.1659    0.0000 C   0  0  0  0  0  0  0  0  0  0  0  0
    4.1780    0.9155    0.0000 C   0  0  0  0  0  0  0  0  0  0  0  0
    5.4780   -1.3341    0.0000 C   0  0  0  0  0  0  0  0  0  0  0  0
    4.1794   -2.0847    0.0000 O   0  0  0  0  0  0  0  0  0  0  0  0
    6.7774   -2.0835    0.0000 O   0  0  0  0  0  0  0  0  0  0  0  0
    2.8791    0.1653    0.0000 O   0  0  0  0  0  0  0  0  0  0  0  0
  2  1  2  0
  3  1  1  0
  5  4  2  0
  6  2  1  0
  7  3  2  0
  8  4  1  0
  9  5  1  0
 10  6  2  0
 10  7  1  0
 11  8  2  0
 12  9  2  0
 12 11  1  0
 13 11  1  0
 14 13  2  0
 15 13  1  0
 16 10  1  0
 16 12  1  0
M  END
>  <NAME>  (397) 
2-PHENOXYBENZOIC ACID

>  <SYNONYMS>  (397) 


>  <SPECTRUM TYPE>  (397) 
MS1

>  <INSTRUMENT TYPE>  (397) 
EI-B

>  <INSTRUMENT>  (397) 
HITACHI M-2500

>  <ION MODE>  (397) 
P

>  <INCHIKEY>  (397) 
PKRSYEPBQPFNRB-UHFFFAOYSA-N

>  <FORMULA>  (397) 
C13H10O3

>  <EXACT MASS>  (397) 
214.06299417999998

>  <MW>  (397) 
214

>  <ID>  (397) 
JP011631

>  <CONTRIBUTOR>  (397) 
University of Tokyo Team, {Faculty of Engineering, University of Tokyo

>  <COMMENT>  (397) 
SMILES=OC(=O)c(c2)c(ccc2)Oc(c1)cccc1
cas=2243-42-7
InChI=InChI=1S/C13H10O3/c14-13(15)11-8-4-5-9-12(11)16-10-6-2-1-3-7-10/h1-9H,(H,14,15)
computed SMILES=O=C(O)C=1C=CC=CC1OC=2C=CC=CC2
accession=JP011631
date=2016.01.19 (Created 2008.10.21, modified 2011.05.06)
author=YAMAMOTO M, DEP. CHEMISTRY, FAC. SCIENCE, NARA WOMEN'S UNIV.
license=CC BY-NC-SA
exact mass=214.06299
ionization energy=70 eV
ion type=[M]+*
computed spectral entropy=2.5068571325319606
computed normalized entropy=0.7169603063808484
SPLASH=splash10-0229-4950000000-296b6a7105ff56fd5b4b
submitter=submitter = University of Tokyo Team (Faculty of Engineering, University of Tokyo)
MoNA Rating=3.75

>  <NUM PEAKS>  (397) 
33

>  <MASS SPECTRAL PEAKS>  (397) 
27 1.1
38 1.45
39 6.89
45 1.14
50 3.99
51 10.43
63 3.94
64 2.61
65 9.02
66 1.68
74 1.56
75 1.48
76 1.41
77 9.89
78 1.07
91 1.27
92 7.46
93 5.93
94 7.57
115 5.13
120 9.04
121 99.99
122 8.29
139 4.78
140 1.31
141 4.55
168 5.52
169 3.88
197 9.09
198 1.28
214 73.77
215 11.11
216 1.2

$$$$

     RDKit          2D

 13 14  0  0  0  0  0  0  0  0999 V2000
    1.2800    1.8298    0.0000 C   0  0  0  0  0  0  0  0  0  0  0  0
   -0.0037    4.0793    0.0000 C   0  0  0  0  0  0  0  0  0  0  0  0
    2.5828    2.5733    0.0000 C   0  0  0  0  0  0  0  0  0  0  0  0
    1.2991    4.8227    0.0000 C   0  0  0  0  0  0  0  0  0  0  0  0
   -1.3044    0.3189    0.0000 C   0  0  0  0  0  0  0  0  0  0  0  0
   -2.6044    2.5706    0.0000 C   0  0  0  0  0  0  0  0  0  0  0  0
   -2.6034   -0.4311    0.0000 C   0  0  0  0  0  0  0  0  0  0  0  0
   -3.9034    1.8206    0.0000 C   0  0  0  0  0  0  0  0  0  0  0  0
   -0.0058    2.5698    0.0000 C   0  0  0  0  0  0  0  0  0  0  0  0
   -1.3049    1.8198    0.0000 C   0  0  0  0  0  0  0  0  0  0  0  0
    2.6084    4.0617    0.0000 C   0  0  0  0  0  0  0  0  0  0  0  0
    3.9150    4.7985    0.0000 Cl  0  0  0  0  0  0  0  0  0  0  0  0
   -3.9029    0.3198    0.0000 N   0  0  0  0  0  0  0  0  0  0  0  0
  3  1  2  0
  4  2  1  0
  7  5  1  0
  8  6  1  0
  9  1  1  0
  9  2  2  0
 10  5  2  0
 10  6  1  0
 10  9  1  0
 11  3  1  0
 11  4  2  0
 12 11  1  0
 13  7  1  0
 13  8  1  0
M  END
>  <NAME>  (398) 
4-(4-CHLOROPHENYL)-1,2,3,6-TETRAHYDRO PYRIDINE

>  <SYNONYMS>  (398) 


>  <SPECTRUM TYPE>  (398) 
MS1

>  <INSTRUMENT TYPE>  (398) 
EI-B

>  <INSTRUMENT>  (398) 
HITACHI M-2500

>  <ION MODE>  (398) 
P

>  <INCHIKEY>  (398) 
SXOMHACGFSJBIO-UHFFFAOYSA-N

>  <FORMULA>  (398) 
C11H12ClN

>  <EXACT MASS>  (398) 
193.065827064

>  <MW>  (398) 
193

>  <ID>  (398) 
JP011630

>  <CONTRIBUTOR>  (398) 
University of Tokyo Team, {Faculty of Engineering, University of Tokyo

>  <COMMENT>  (398) 
SMILES=Clc(c2)ccc(c2)C(C1)=CCNC1
InChI=InChI=1S/C11H12ClN/c12-11-3-1-9(2-4-11)10-5-7-13-8-6-10/h1-5,13H,6-8H2
computed SMILES=ClC=1C=CC(=CC1)C2=CCNCC2
accession=JP011630
date=2016.01.19 (Created 2008.10.21, modified 2011.05.06)
author=YAMAMOTO M, DEP. CHEMISTRY, FAC. SCIENCE, NARA WOMEN'S UNIV.
license=CC BY-NC-SA
exact mass=193.06583
ionization energy=70 eV
ion type=[M]+*
computed spectral entropy=3.7990467483855492
computed normalized entropy=0.8231738986061715
SPLASH=splash10-002f-3900000000-aa808bbfe500ca19895f
submitter=submitter = University of Tokyo Team (Faculty of Engineering, University of Tokyo)
MoNA Rating=3.75

>  <NUM PEAKS>  (398) 
101

>  <MASS SPECTRAL PEAKS>  (398) 
17 1.66
18 11.33
26 1.54
27 5.02
28 11.86
29 2.19
30 4.48
36 4.82
38 1.54
39 3.32
41 4.14
42 3.63
43 1.72
44 6.81
45 1.69
50 3.82
51 8.01
52 2.07
53 4.65
54 3.17
55 2.98
56 7.02
57 1.11
62 1.61
63 4.69
64 2.06
65 1.91
67 1.39
68 8.56
72 2.56
73 1.28
74 3.18
75 7.54
76 2.43
77 8.82
78 7.27
79 3.03
80 13.72
81 5.42
82 34.68
83 2.51
87 1.4
89 2.94
91 1.8
98 1.46
99 2.21
100 1.1
101 7.99
102 6.5
103 2.9
111 1.02
112 1.09
113 1.46
114 2.42
115 9.69
116 2.65
117 1.18
125 15.25
126 3.61
127 17.79
128 26.72
129 67
130 15.95
131 1.94
136 4.05
137 1.9
138 4.04
139 1.38
140 1.43
141 2.35
143 2.44
149 9.24
150 1.85
151 4.32
152 1.31
153 1.13
154 2.46
155 1.51
156 6.16
157 6.5
158 34.58
159 4.46
162 1.37
163 1.94
164 25.55
165 5.44
166 9.13
167 1.62
175 1.6
177 2.51
178 3.94
179 1.11
180 1.27
189 1.38
190 6.42
191 2.68
192 62.16
193 99.99
194 30.19
195 31.88
196 3.82

$$$$

     RDKit          2D

 13 13  0  0  0  0  0  0  0  0999 V2000
   -3.3013   -1.3889    0.0000 C   0  0  0  0  0  0  0  0  0  0  0  0
   -2.8499   -2.1704    0.0000 C   0  0  0  0  0  0  0  0  0  0  0  0
   -2.3372   -0.2397    0.0000 C   0  0  0  0  0  0  0  0  0  0  0  0
   -1.3727   -1.9096    0.0000 C   0  0  0  0  0  0  0  0  0  0  0  0
   -0.8600    1.0000    0.0000 C   0  0  0  0  0  0  0  0  0  0  0  0
    0.4400   -1.2500    0.0000 C   0  0  0  0  0  0  0  0  0  0  0  0
    1.7400    1.0000    0.0000 C   0  0  0  0  0  0  0  0  0  0  0  0
   -0.8600   -0.5000    0.0000 C   0  0  0  0  0  0  0  0  0  0  0  0
    0.4400    1.7500    0.0000 N   0  0  0  0  0  0  0  0  0  0  0  0
    1.7400   -0.5000    0.0000 N   0  0  0  0  0  0  0  0  0  0  0  0
   -2.1589    1.7502    0.0000 O   0  0  0  0  0  0  0  0  0  0  0  0
    0.4400   -2.7500    0.0000 O   0  0  0  0  0  0  0  0  0  0  0  0
    3.0389    1.7502    0.0000 O   0  0  0  0  0  0  0  0  0  0  0  0
  3  1  1  0
  4  2  1  0
  8  3  1  0
  8  4  1  0
  8  5  1  0
  8  6  1  0
  9  5  2  0
  9  7  1  0
 10  6  2  0
 10  7  1  0
 11  5  1  0
 12  6  1  0
 13  7  2  0
M  END
>  <NAME>  (399) 
5,5'-DIETHYL-BARBITURIC ACID

>  <SYNONYMS>  (399) 
BARBITAL

>  <SPECTRUM TYPE>  (399) 
MS1

>  <INSTRUMENT TYPE>  (399) 
EI-B

>  <INSTRUMENT>  (399) 
HITACHI M-2500

>  <ION MODE>  (399) 
P

>  <INCHIKEY>  (399) 
FTOAOBMCPZCFFF-UHFFFAOYSA-N

>  <FORMULA>  (399) 
C8H12N2O3

>  <EXACT MASS>  (399) 
184.08479224399997

>  <MW>  (399) 
184

>  <ID>  (399) 
JP011629

>  <CONTRIBUTOR>  (399) 
University of Tokyo Team, {Faculty of Engineering, University of Tokyo

>  <COMMENT>  (399) 
SMILES=CCC(CC)(C(=O)1)C(=O)NC(=O)N1
InChI=InChI=1S/C8H12N2O3/c1-3-8(4-2)5(11)9-7(13)10-6(8)12/h3-4H2,1-2H3,(H2,9,10,11,12,13)
computed SMILES=O=C1N=C(O)C(C(O)=N1)(CC)CC
accession=JP011629
date=2016.01.19 (Created 2008.10.21, modified 2011.05.06)
author=YAMAMOTO M, DEP. CHEMISTRY, FAC. SCIENCE, NARA WOMEN'S UNIV.
license=CC BY-NC-SA
exact mass=184.08479
ionization energy=70 eV
ion type=[M]+*
computed spectral entropy=2.9584113620706063
computed normalized entropy=0.7817820057308756
SPLASH=splash10-0a4u-5900000000-497f9ee367181a6df30a
submitter=submitter = University of Tokyo Team (Faculty of Engineering, University of Tokyo)
MoNA Rating=3.75

>  <NUM PEAKS>  (399) 
44

>  <MASS SPECTRAL PEAKS>  (399) 
26 2.4
27 13.2
28 4.08
29 15.51
30 1.23
38 1.72
39 23.56
40 3.51
41 26.69
42 4.51
43 4.01
44 8.08
51 1.19
52 1.81
53 7.08
54 7.14
55 40.04
56 6.89
57 2.36
67 1.7
68 1.46
69 5.62
70 3.66
80 1
83 7.99
84 1.07
85 3.05
94 2.01
98 10.57
112 12.88
113 1.78
126 1.42
141 81.38
142 7.94
155 51.23
156 99.99
157 20.84
158 2.34
166 1.28
169 1.06
183 1.86
185 53.69
186 35.1
187 3.77

$$$$

     RDKit          2D

 13 13  0  0  0  0  0  0  0  0999 V2000
   -3.3013   -1.3889    0.0000 C   0  0  0  0  0  0  0  0  0  0  0  0
   -2.8499   -2.1704    0.0000 C   0  0  0  0  0  0  0  0  0  0  0  0
   -2.3372   -0.2397    0.0000 C   0  0  0  0  0  0  0  0  0  0  0  0
   -1.3727   -1.9096    0.0000 C   0  0  0  0  0  0  0  0  0  0  0  0
   -0.8600    1.0000    0.0000 C   0  0  0  0  0  0  0  0  0  0  0  0
    0.4400   -1.2500    0.0000 C   0  0  0  0  0  0  0  0  0  0  0  0
    1.7400    1.0000    0.0000 C   0  0  0  0  0  0  0  0  0  0  0  0
   -0.8600   -0.5000    0.0000 C   0  0  0  0  0  0  0  0  0  0  0  0
    0.4400    1.7500    0.0000 N   0  0  0  0  0  0  0  0  0  0  0  0
    1.7400   -0.5000    0.0000 N   0  0  0  0  0  0  0  0  0  0  0  0
   -2.1589    1.7502    0.0000 O   0  0  0  0  0  0  0  0  0  0  0  0
    0.4400   -2.7500    0.0000 O   0  0  0  0  0  0  0  0  0  0  0  0
    3.0389    1.7502    0.0000 O   0  0  0  0  0  0  0  0  0  0  0  0
  3  1  1  0
  4  2  1  0
  8  3  1  0
  8  4  1  0
  8  5  1  0
  8  6  1  0
  9  5  2  0
  9  7  1  0
 10  6  2  0
 10  7  1  0
 11  5  1  0
 12  6  1  0
 13  7  2  0
M  END
>  <NAME>  (400) 
5,5'-DIETHYL-BARBITURIC ACID

>  <SYNONYMS>  (400) 
BARBITAL

>  <SPECTRUM TYPE>  (400) 
MS1

>  <INSTRUMENT TYPE>  (400) 
EI-B

>  <INSTRUMENT>  (400) 
HITACHI M-2500

>  <ION MODE>  (400) 
P

>  <INCHIKEY>  (400) 
FTOAOBMCPZCFFF-UHFFFAOYSA-N

>  <FORMULA>  (400) 
C8H12N2O3

>  <EXACT MASS>  (400) 
184.08479224399997

>  <MW>  (400) 
184

>  <ID>  (400) 
JP011628

>  <CONTRIBUTOR>  (400) 
University of Tokyo Team, {Faculty of Engineering, University of Tokyo

>  <COMMENT>  (400) 
SMILES=CCC(CC)(C(=O)1)C(=O)NC(=O)N1
InChI=InChI=1S/C8H12N2O3/c1-3-8(4-2)5(11)9-7(13)10-6(8)12/h3-4H2,1-2H3,(H2,9,10,11,12,13)
computed SMILES=O=C1N=C(O)C(C(O)=N1)(CC)CC
license=CC BY-NC-SA
accession=JP011628
date=2016.01.19 (Created 2008.10.21, modified 2011.05.06)
author=YAMAMOTO M, DEP. CHEMISTRY, FAC. SCIENCE, NARA WOMEN'S UNIV.
exact mass=184.08479
ionization energy=70 eV
ion type=[M]+*
computed spectral entropy=2.2290828578406074
computed normalized entropy=0.6841672221272622
SPLASH=splash10-0a4l-2900000000-42c0874d0bac13cc2d94
submitter=submitter = University of Tokyo Team (Faculty of Engineering, University of Tokyo)
MoNA Rating=3.75

>  <NUM PEAKS>  (400) 
26

>  <MASS SPECTRAL PEAKS>  (400) 
27 3.75
28 1.27
29 4.72
39 4.64
41 7.07
42 1.31
44 2.46
53 1.66
54 1.41
55 7.38
56 1.11
69 3.68
70 2.38
83 6.7
85 2.58
94 1.68
98 9.59
112 11.76
113 1.45
126 1.04
141 63.1
142 4.08
155 17.05
156 99.99
157 7.58
185 3.36

$$$$

     RDKit          2D

 33 38  0  0  0  0  0  0  0  0999 V2000
    3.8976   -0.7542    0.0000 C   0  0  0  0  0  0  0  0  0  0  0  0
   -9.0976   -0.7542    0.0000 C   0  0  0  0  0  0  0  0  0  0  0  0
    2.5986   -1.5042    0.0000 C   0  0  0  0  0  0  0  0  0  0  0  0
   -7.7986   -1.5042    0.0000 C   0  0  0  0  0  0  0  0  0  0  0  0
   -0.0024    6.0008    0.0000 C   0  0  0  0  0  0  0  0  0  0  0  0
   -5.1976    6.0008    0.0000 C   0  0  0  0  0  0  0  0  0  0  0  0
    3.8971    0.7467    0.0000 C   0  0  0  0  0  0  0  0  0  0  0  0
   -9.0971    0.7467    0.0000 C   0  0  0  0  0  0  0  0  0  0  0  0
    1.2990   -0.7533    0.0000 C   0  0  0  0  0  0  0  0  0  0  0  0
   -6.4990   -0.7533    0.0000 C   0  0  0  0  0  0  0  0  0  0  0  0
    1.2971    5.2500    0.0000 C   0  0  0  0  0  0  0  0  0  0  0  0
   -6.4971    5.2500    0.0000 C   0  0  0  0  0  0  0  0  0  0  0  0
   -1.3014    5.2508    0.0000 C   0  0  0  0  0  0  0  0  0  0  0  0
   -3.8986    5.2508    0.0000 C   0  0  0  0  0  0  0  0  0  0  0  0
    2.5976    1.4975    0.0000 C   0  0  0  0  0  0  0  0  0  0  0  0
   -7.7976    1.4975    0.0000 C   0  0  0  0  0  0  0  0  0  0  0  0
    1.2986    0.7475    0.0000 C   0  0  0  0  0  0  0  0  0  0  0  0
   -6.4986    0.7475    0.0000 C   0  0  0  0  0  0  0  0  0  0  0  0
    1.2976    3.7492    0.0000 C   0  0  0  0  0  0  0  0  0  0  0  0
   -6.4976    3.7492    0.0000 C   0  0  0  0  0  0  0  0  0  0  0  0
   -1.3010    3.7500    0.0000 C   0  0  0  0  0  0  0  0  0  0  0  0
   -3.8990    3.7500    0.0000 C   0  0  0  0  0  0  0  0  0  0  0  0
   -0.0014    2.9992    0.0000 C   0  0  0  0  0  0  0  0  0  0  0  0
   -5.1986    2.9992    0.0000 C   0  0  0  0  0  0  0  0  0  0  0  0
    2.5971    2.9983    0.0000 C   0  0  0  0  0  0  0  0  0  0  0  0
   -7.7971    2.9983    0.0000 C   0  0  0  0  0  0  0  0  0  0  0  0
   -0.0010    1.4983    0.0000 C   0  0  0  0  0  0  0  0  0  0  0  0
   -5.1990    1.4983    0.0000 C   0  0  0  0  0  0  0  0  0  0  0  0
   -2.6000    3.0000    0.0000 N   0  0  0  0  0  0  0  0  0  0  0  0
    3.8962    3.7483    0.0000 O   0  0  0  0  0  0  0  0  0  0  0  0
   -9.0962    3.7483    0.0000 O   0  0  0  0  0  0  0  0  0  0  0  0
   -1.3000    0.7483    0.0000 O   0  0  0  0  0  0  0  0  0  0  0  0
   -3.9000    0.7483    0.0000 O   0  0  0  0  0  0  0  0  0  0  0  0
  3  1  2  0
  4  2  2  0
  7  1  1  0
  8  2  1  0
  9  3  1  0
 10  4  1  0
 11  5  1  0
 12  6  1  0
 13  5  2  0
 14  6  2  0
 15  7  2  0
 16  8  2  0
 17  9  2  0
 17 15  1  0
 18 10  2  0
 18 16  1  0
 19 11  2  0
 20 12  2  0
 21 13  1  0
 22 14  1  0
 23 19  1  0
 23 21  2  0
 24 20  1  0
 24 22  2  0
 25 15  1  0
 25 19  1  0
 26 16  1  0
 26 20  1  0
 27 17  1  0
 27 23  1  0
 28 18  1  0
 28 24  1  0
 29 21  1  0
 29 22  1  0
 30 25  2  0
 31 26  2  0
 32 27  2  0
 33 28  2  0
M  END
>  <NAME>  (401) 
1,1'-DIANTHRIMIDE

>  <SYNONYMS>  (401) 


>  <SPECTRUM TYPE>  (401) 
MS1

>  <INSTRUMENT TYPE>  (401) 
EI-B

>  <INSTRUMENT>  (401) 
HITACHI M-2500

>  <ION MODE>  (401) 
P

>  <INCHIKEY>  (401) 
WITKIIIPSSFHST-UHFFFAOYSA-N

>  <FORMULA>  (401) 
C28H15NO4

>  <EXACT MASS>  (401) 
429.10010796

>  <MW>  (401) 
429

>  <ID>  (401) 
JP011627

>  <CONTRIBUTOR>  (401) 
University of Tokyo Team, {Faculty of Engineering, University of Tokyo

>  <COMMENT>  (401) 
SMILES=c(c1=O)(c6)c(ccc6)c(c(c2)c(c(Nc(c5)c(c4=O)c(cc5)c(=O)c(c43)cccc3)cc2)1)=O
cas=82-22-4
InChI=InChI=1S/C28H15NO4/c30-25-15-7-1-3-9-17(15)27(32)23-19(25)11-5-13-21(23)29-22-14-6-12-20-24(22)28(33)18-10-4-2-8-16(18)26(20)31/h1-14,29H
computed SMILES=O=C1C=2C=CC=CC2C(=O)C=3C(=CC=CC13)NC4=CC=CC=5C(=O)C=6C=CC=CC6C(=O)C45
accession=JP011627
date=2016.01.19 (Created 2008.10.21, modified 2011.05.06)
author=YAMAMOTO M, DEP. CHEMISTRY, FAC. SCIENCE, NARA WOMEN'S UNIV.
license=CC BY-NC-SA
exact mass=429.10011
ionization energy=70 eV
ion type=[M]+*
computed spectral entropy=2.942825366881442
computed normalized entropy=0.7377380637598958
SPLASH=splash10-004i-0211900000-450cee2c478566b485ec
submitter=submitter = University of Tokyo Team (Faculty of Engineering, University of Tokyo)
MoNA Rating=3.75

>  <NUM PEAKS>  (401) 
54

>  <MASS SPECTRAL PEAKS>  (401) 
51 1.18
63 1.14
75 1.61
76 2.41
77 3.69
104 2.18
105 1.94
139 5.24
140 2.42
145 1.06
150 2.6
151 4.89
152 2.83
157 1.25
158 6.55
159 1.38
164 1.23
166 1.02
167 1.46
168 3.1
180 2.05
195 1.39
196 1.76
208 2.26
214 6.18
215 2.12
223 8.48
224 6.69
225 1.02
240 1.77
296 1.81
314 1.99
315 4.74
316 2.35
317 1.12
324 1.35
328 1.38
343 1.81
344 3.32
345 2.06
356 1.73
371 1.35
372 5.67
373 3.6
384 2.5
400 7.24
401 2.5
412 4.97
413 1.63
426 1.18
428 5.99
429 99.99
430 31.98
431 5.68

$$$$

     RDKit          2D

 12 12  0  0  0  0  0  0  0  0999 V2000
    3.5596    3.1719    0.0000 C   0  0  0  0  0  0  0  0  0  0  0  0
    2.2461    0.9470    0.0000 C   0  0  0  0  0  0  0  0  0  0  0  0
    0.9653    3.1783    0.0000 C   0  0  0  0  0  0  0  0  0  0  0  0
    4.8441    2.4470    0.0000 C   0  0  0  0  0  0  0  0  0  0  0  0
    3.5706    0.1529    0.0000 C   0  0  0  0  0  0  0  0  0  0  0  0
   -0.3375    2.4347    0.0000 C   0  0  0  0  0  0  0  0  0  0  0  0
    2.2606    2.4219    0.0000 C   0  0  0  0  0  0  0  0  0  0  0  0
    4.8696    0.9029    0.0000 C   0  0  0  0  0  0  0  0  0  0  0  0
   -1.6328    3.1910    0.0000 C   0  0  0  0  0  0  0  0  0  0  0  0
    6.1748    0.1636    0.0000 O   0  0  0  0  0  0  0  0  0  0  0  0
   -1.6254    4.6910    0.0000 O   0  0  0  0  0  0  0  0  0  0  0  0
   -2.9355    2.4474    0.0000 O   0  0  0  0  0  0  0  0  0  0  0  0
  4  1  2  0
  5  2  1  0
  6  3  1  0
  7  1  1  0
  7  2  2  0
  7  3  1  0
  8  4  1  0
  8  5  2  0
  9  6  1  0
 10  8  1  0
 11  9  2  0
 12  9  1  0
M  END
>  <NAME>  (402) 
3-(4-HYDROXYPHENYL)PROPIONIC ACID

>  <SYNONYMS>  (402) 


>  <SPECTRUM TYPE>  (402) 
MS1

>  <INSTRUMENT TYPE>  (402) 
EI-B

>  <INSTRUMENT>  (402) 
HITACHI M-2500

>  <ION MODE>  (402) 
P

>  <INCHIKEY>  (402) 
NMHMNPHRMNGLLB-UHFFFAOYSA-N

>  <FORMULA>  (402) 
C9H10O3

>  <EXACT MASS>  (402) 
166.06299417999998

>  <MW>  (402) 
166

>  <ID>  (402) 
JP011626

>  <CONTRIBUTOR>  (402) 
University of Tokyo Team, {Faculty of Engineering, University of Tokyo

>  <COMMENT>  (402) 
SMILES=OC(=O)CCc(c1)ccc(O)c1
cas=501-97-3
InChI=InChI=1S/C9H10O3/c10-8-4-1-7(2-5-8)3-6-9(11)12/h1-2,4-5,10H,3,6H2,(H,11,12)
computed SMILES=O=C(O)CCC1=CC=C(O)C=C1
accession=JP011626
date=2016.01.19 (Created 2008.10.21, modified 2011.05.06)
author=YAMAMOTO M, DEP. CHEMISTRY, FAC. SCIENCE, NARA WOMEN'S UNIV.
license=CC BY-NC-SA
exact mass=166.06299
ionization energy=70 eV
ion type=[M]+*
computed spectral entropy=2.49439561370696
computed normalized entropy=0.6761933114743405
SPLASH=splash10-066r-9800000000-44e113d8fc2602ffba88
submitter=submitter = University of Tokyo Team (Faculty of Engineering, University of Tokyo)
MoNA Rating=3.75

>  <NUM PEAKS>  (402) 
40

>  <MASS SPECTRAL PEAKS>  (402) 
17 3.66
18 79.83
28 29.02
32 7.44
39 1
41 5.09
42 2.1
43 4.18
44 3.21
45 2.4
51 2.16
53 1.15
55 2.61
56 2.91
57 2.01
60 2.97
61 2.08
63 1.19
65 2.26
69 1.32
73 1.65
77 7.36
78 1.7
81 1.03
82 1.02
83 1.17
91 3.77
94 1.26
95 1.18
103 1.07
107 99.99
108 7.84
119 2.54
120 5.8
121 1.87
123 1.39
138 7.98
139 1.09
166 33.08
167 3.32

$$$$

     RDKit          2D

 12 12  0  0  0  0  0  0  0  0999 V2000
   -0.3233   -3.9365    0.0000 C   0  0  0  0  0  0  0  0  0  0  0  0
    0.9713   -3.1943    0.0000 C   0  0  0  0  0  0  0  0  0  0  0  0
   -1.6223   -3.1865    0.0000 C   0  0  0  0  0  0  0  0  0  0  0  0
    2.2709   -0.9437    0.0000 C   0  0  0  0  0  0  0  0  0  0  0  0
    3.5698   -1.6939    0.0000 C   0  0  0  0  0  0  0  0  0  0  0  0
   -0.3273   -0.9434    0.0000 C   0  0  0  0  0  0  0  0  0  0  0  0
    0.9717   -1.6934    0.0000 C   0  0  0  0  0  0  0  0  0  0  0  0
   -1.6268   -1.6943    0.0000 C   0  0  0  0  0  0  0  0  0  0  0  0
    4.8690   -0.9441    0.0000 C   0  0  0  0  0  0  0  0  0  0  0  0
   -2.9271   -0.9465    0.0000 O   0  0  0  0  0  0  0  0  0  0  0  0
    4.8692    0.5559    0.0000 O   0  0  0  0  0  0  0  0  0  0  0  0
    6.1679   -1.6943    0.0000 O   0  0  0  0  0  0  0  0  0  0  0  0
  2  1  2  0
  3  1  1  0
  5  4  1  0
  7  2  1  0
  7  4  1  0
  7  6  2  0
  8  3  2  0
  8  6  1  0
  9  5  1  0
 10  8  1  0
 11  9  2  0
 12  9  1  0
M  END
>  <NAME>  (403) 
3-(3-HYDROXYPHENYL)PROPIONIC ACID

>  <SYNONYMS>  (403) 


>  <SPECTRUM TYPE>  (403) 
MS1

>  <INSTRUMENT TYPE>  (403) 
EI-B

>  <INSTRUMENT>  (403) 
HITACHI M-2500

>  <ION MODE>  (403) 
P

>  <INCHIKEY>  (403) 
QVWAEZJXDYOKEH-UHFFFAOYSA-N

>  <FORMULA>  (403) 
C9H10O3

>  <EXACT MASS>  (403) 
166.06299417999998

>  <MW>  (403) 
166

>  <ID>  (403) 
JP011625

>  <CONTRIBUTOR>  (403) 
University of Tokyo Team, {Faculty of Engineering, University of Tokyo

>  <COMMENT>  (403) 
SMILES=OC(=O)CCc(c1)cc(O)cc1
InChI=InChI=1S/C9H10O3/c10-8-3-1-2-7(6-8)4-5-9(11)12/h1-3,6,10H,4-5H2,(H,11,12)
computed SMILES=O=C(O)CCC=1C=CC=C(O)C1
accession=JP011625
date=2016.01.19 (Created 2008.10.21, modified 2011.05.06)
author=YAMAMOTO M, DEP. CHEMISTRY, FAC. SCIENCE, NARA WOMEN'S UNIV.
license=CC BY-NC-SA
exact mass=166.06299
ionization energy=70 eV
ion type=[M]+*
computed spectral entropy=2.101364316184193
computed normalized entropy=0.6798238289807794
SPLASH=splash10-01b9-1900000000-77779ae60312f591e17e
submitter=submitter = University of Tokyo Team (Faculty of Engineering, University of Tokyo)
MoNA Rating=3.75

>  <NUM PEAKS>  (403) 
22

>  <MASS SPECTRAL PEAKS>  (403) 
65 1.71
77 8.97
78 1.12
79 1.95
91 8.12
92 1.8
93 3.1
94 3.01
95 1.15
103 5.01
107 37.27
108 2.79
119 1.91
120 51.25
121 45.87
122 4.12
147 1.17
148 1.62
149 3.48
166 99.99
167 10.78
168 1.22

$$$$

     RDKit          2D

 12 12  0  0  0  0  0  0  0  0999 V2000
   -1.3000   -0.7500    0.0000 C   0  0  0  0  0  0  0  0  0  0  0  0
   -0.0000   -1.5000    0.0000 C   0  0  0  0  0  0  0  0  0  0  0  0
   -1.3000    0.7500    0.0000 C   0  0  0  0  0  0  0  0  0  0  0  0
    1.3000   -0.7500    0.0000 C   0  0  0  0  0  0  0  0  0  0  0  0
    0.0000    1.5000    0.0000 C   0  0  0  0  0  0  0  0  0  0  0  0
    1.3000    0.7500    0.0000 C   0  0  0  0  0  0  0  0  0  0  0  0
   -2.5989   -1.5002    0.0000 Cl  0  0  0  0  0  0  0  0  0  0  0  0
   -0.0000   -3.0000    0.0000 Cl  0  0  0  0  0  0  0  0  0  0  0  0
   -2.5989    1.5002    0.0000 Cl  0  0  0  0  0  0  0  0  0  0  0  0
    2.5989   -1.5002    0.0000 Cl  0  0  0  0  0  0  0  0  0  0  0  0
    0.0000    3.0000    0.0000 Cl  0  0  0  0  0  0  0  0  0  0  0  0
    2.5989    1.5002    0.0000 Cl  0  0  0  0  0  0  0  0  0  0  0  0
  2  1  2  0
  3  1  1  0
  4  2  1  0
  5  3  2  0
  6  4  2  0
  6  5  1  0
  7  1  1  0
  8  2  1  0
  9  3  1  0
 10  4  1  0
 11  5  1  0
 12  6  1  0
M  END
>  <NAME>  (404) 
HEXACHLOROBENZENE

>  <SYNONYMS>  (404) 


>  <SPECTRUM TYPE>  (404) 
MS1

>  <INSTRUMENT TYPE>  (404) 
EI-B

>  <INSTRUMENT>  (404) 
HITACHI M-2500

>  <ION MODE>  (404) 
P

>  <INCHIKEY>  (404) 
CKAPSXZOOQJIBF-UHFFFAOYSA-N

>  <FORMULA>  (404) 
C6Cl6

>  <EXACT MASS>  (404) 
281.81311608

>  <MW>  (404) 
282

>  <ID>  (404) 
JP011624

>  <CONTRIBUTOR>  (404) 
University of Tokyo Team, {Faculty of Engineering, University of Tokyo

>  <COMMENT>  (404) 
SMILES=Clc(c(Cl)1)c(Cl)c(Cl)c(Cl)c(Cl)1
cas=118-74-1
InChI=InChI=1S/C6Cl6/c7-1-2(8)4(10)6(12)5(11)3(1)9
computed SMILES=ClC=1C(Cl)=C(Cl)C(Cl)=C(Cl)C1Cl
accession=JP011624
date=2016.01.19 (Created 2008.10.21, modified 2011.05.06)
license=CC BY-NC-SA
author=YAMAMOTO M, DEP. CHEMISTRY, FAC. SCIENCE, NARA WOMEN'S UNIV.
exact mass=281.81312
ionization energy=70 eV
ion type=[M]+*
computed spectral entropy=3.073475580577907
computed normalized entropy=0.7704908178876027
SPLASH=splash10-001r-0290000000-be7d6414f99da634dbcc
submitter=submitter = University of Tokyo Team (Faculty of Engineering, University of Tokyo)
MoNA Rating=3.75

>  <NUM PEAKS>  (404) 
54

>  <MASS SPECTRAL PEAKS>  (404) 
35 2.3
36 3.17
47 3.45
49 1.07
60 2.27
71 6.12
72 2.98
73 1.64
83 1.39
88 1.18
89 1.18
94 1.32
95 3.71
97 1.15
106 5.46
107 11.67
108 3.95
109 3.42
118 4.96
120 3.31
130 1.71
132 1.14
141 3.97
142 21.92
143 6.1
144 12.18
145 1.37
146 1.79
165 1.05
167 1.05
177 7.31
179 7.16
181 2.29
212 10.9
214 13.95
215 1
216 6.91
218 1.49
247 13.85
248 1.24
249 23.66
250 2.02
251 14.14
252 1.27
253 4.65
282 53.02
283 3.52
284 99.99
285 6.59
286 80.06
287 5.28
288 35.21
290 8.25
292 1.04

$$$$

     RDKit          2D

 12 12  0  0  0  0  0  0  0  0999 V2000
   -1.3000    0.7500    0.0000 C   0  0  0  0  0  0  0  0  0  0  0  0
    0.0000    1.5000    0.0000 C   0  0  0  0  0  0  0  0  0  0  0  0
    0.0000   -1.5000    0.0000 C   0  0  0  0  0  0  0  0  0  0  0  0
    1.3000   -0.7500    0.0000 C   0  0  0  0  0  0  0  0  0  0  0  0
   -1.3000   -0.7500    0.0000 C   0  0  0  0  0  0  0  0  0  0  0  0
    1.3000    0.7500    0.0000 C   0  0  0  0  0  0  0  0  0  0  0  0
   -2.5989   -1.5002    0.0000 C   0  0  0  0  0  0  0  0  0  0  0  0
    2.5989    1.5002    0.0000 C   0  0  0  0  0  0  0  0  0  0  0  0
   -3.8981   -0.7504    0.0000 O   0  0  0  0  0  0  0  0  0  0  0  0
   -2.5987   -3.0002    0.0000 O   0  0  0  0  0  0  0  0  0  0  0  0
    3.8981    0.7504    0.0000 O   0  0  0  0  0  0  0  0  0  0  0  0
    2.5987    3.0002    0.0000 O   0  0  0  0  0  0  0  0  0  0  0  0
  2  1  2  0
  4  3  1  0
  5  1  1  0
  5  3  2  0
  6  2  1  0
  6  4  2  0
  7  5  1  0
  8  6  1  0
  9  7  1  0
 10  7  2  0
 11  8  1  0
 12  8  2  0
M  END
>  <NAME>  (405) 
TEREPHTHALIC ACID

>  <SYNONYMS>  (405) 


>  <SPECTRUM TYPE>  (405) 
MS1

>  <INSTRUMENT TYPE>  (405) 
EI-B

>  <INSTRUMENT>  (405) 
HITACHI M-2500

>  <ION MODE>  (405) 
P

>  <INCHIKEY>  (405) 
KKEYFWRCBNTPAC-UHFFFAOYSA-N

>  <FORMULA>  (405) 
C8H6O4

>  <EXACT MASS>  (405) 
166.026608672

>  <MW>  (405) 
166

>  <ID>  (405) 
JP011623

>  <CONTRIBUTOR>  (405) 
University of Tokyo Team, {Faculty of Engineering, University of Tokyo

>  <COMMENT>  (405) 
SMILES=OC(=O)c(c1)ccc(c1)C(O)=O
cas=100-21-0
InChI=InChI=1S/C8H6O4/c9-7(10)5-1-2-6(4-3-5)8(11)12/h1-4H,(H,9,10)(H,11,12)
computed SMILES=O=C(O)C1=CC=C(C=C1)C(=O)O
license=CC BY-NC-SA
accession=JP011623
date=2016.01.19 (Created 2008.10.21, modified 2011.05.06)
author=YAMAMOTO M, DEP. CHEMISTRY, FAC. SCIENCE, NARA WOMEN'S UNIV.
exact mass=166.02661
ionization energy=70 eV
ion type=[M]+*
computed spectral entropy=2.492174148874616
computed normalized entropy=0.7127609779369006
SPLASH=splash10-014j-4900000000-95e39c2780c93f2f98fd
submitter=submitter = University of Tokyo Team (Faculty of Engineering, University of Tokyo)
MoNA Rating=3.75

>  <NUM PEAKS>  (405) 
33

>  <MASS SPECTRAL PEAKS>  (405) 
37 1.8
38 2.88
39 6.05
44 1.12
45 7.38
49 1.27
50 12.53
51 8.38
52 1.84
53 2.53
63 1.75
65 26.12
66 1.95
73 2.19
74 10.52
75 8.93
76 9.06
77 5.66
78 1.04
93 3.72
103 2.85
104 3.58
105 2.86
120 1.16
121 27.99
122 2.89
138 2.31
148 1.06
149 99.99
150 8.97
166 91.76
167 8.46
168 1.1

$$$$

     RDKit          2D

 13 13  0  0  0  0  0  0  0  0999 V2000
    5.1970    1.5006    0.0000 C   0  0  0  0  0  0  0  0  0  0  0  0
   -1.3000    0.7500    0.0000 C   0  0  0  0  0  0  0  0  0  0  0  0
   -0.0000   -1.5000    0.0000 C   0  0  0  0  0  0  0  0  0  0  0  0
    0.0000    1.5000    0.0000 C   0  0  0  0  0  0  0  0  0  0  0  0
    1.3000   -0.7500    0.0000 C   0  0  0  0  0  0  0  0  0  0  0  0
    3.8981    0.7504    0.0000 C   0  0  0  0  0  0  0  0  0  0  0  0
   -1.3000   -0.7500    0.0000 C   0  0  0  0  0  0  0  0  0  0  0  0
    1.3000    0.7500    0.0000 C   0  0  0  0  0  0  0  0  0  0  0  0
   -2.5989   -1.5002    0.0000 N   0  0  0  0  0  0  0  0  0  0  0  0
    3.8983   -0.7496    0.0000 O   0  0  0  0  0  0  0  0  0  0  0  0
   -3.8981   -0.7504    0.0000 O   0  0  0  0  0  0  0  0  0  0  0  0
   -2.5987   -3.0002    0.0000 O   0  0  0  0  0  0  0  0  0  0  0  0
    2.5989    1.5002    0.0000 O   0  0  0  0  0  0  0  0  0  0  0  0
  4  2  2  0
  5  3  1  0
  6  1  1  0
  7  2  1  0
  7  3  2  0
  8  4  1  0
  8  5  2  0
  9  7  1  0
 10  6  2  0
 11  9  1  0
 12  9  2  0
 13  6  1  0
 13  8  1  0
M  CHG  2   9   1  11  -1
M  END
>  <NAME>  (406) 
4-NITROPHENYL ACETATE

>  <SYNONYMS>  (406) 
4-ACETOXYNITROBENZENE

>  <SPECTRUM TYPE>  (406) 
MS1

>  <INSTRUMENT TYPE>  (406) 
EI-B

>  <INSTRUMENT>  (406) 
HITACHI M-2500

>  <ION MODE>  (406) 
P

>  <INCHIKEY>  (406) 
QAUUDNIGJSLPSX-UHFFFAOYSA-N

>  <FORMULA>  (406) 
C8H7NO4

>  <EXACT MASS>  (406) 
181.037507704

>  <MW>  (406) 
181

>  <ID>  (406) 
JP011622

>  <CONTRIBUTOR>  (406) 
University of Tokyo Team, {Faculty of Engineering, University of Tokyo

>  <COMMENT>  (406) 
SMILES=CC(=O)Oc(c1)ccc(c1)[N+1]([O-1])=O
cas=830-03-5
InChI=InChI=1S/C8H7NO4/c1-6(10)13-8-4-2-7(3-5-8)9(11)12/h2-5H,1H3
computed SMILES=O=C(OC1=CC=C(C=C1)N(=O)=O)C
accession=JP011622
date=2016.01.19 (Created 2008.10.21, modified 2011.05.06)
author=YAMAMOTO M, DEP. CHEMISTRY, FAC. SCIENCE, NARA WOMEN'S UNIV.
license=CC BY-NC-SA
exact mass=181.03751
ionization energy=70 eV
ion type=[M]+*
computed spectral entropy=2.526294510181886
computed normalized entropy=0.728934512332884
SPLASH=splash10-0006-9300000000-1f46a677a572cc91d6bc
submitter=submitter = University of Tokyo Team (Faculty of Engineering, University of Tokyo)
MoNA Rating=3.75

>  <NUM PEAKS>  (406) 
32

>  <MASS SPECTRAL PEAKS>  (406) 
15 3.05
26 1.04
30 5.31
38 4.17
39 5.31
42 3.33
43 99.99
44 2.21
50 3.3
51 1.65
52 1.45
53 1.42
54 1.11
61 1.34
62 4.17
63 12.56
64 6.79
65 11.74
74 1.59
75 1.54
76 1.37
81 5.36
92 1.13
93 6.58
94 1.2
109 19.71
110 1.62
123 7.24
139 17.53
140 2.72
181 16
182 4.39

$$$$

     RDKit          2D

 14 15  0  0  0  0  0  0  0  0999 V2000
    0.6388    3.2226    0.0000 C   0  0  0  0  0  0  0  0  0  0  0  0
    0.1765    0.6742    0.0000 C   0  0  0  0  0  0  0  0  0  0  0  0
   -0.8371    3.4903    0.0000 C   0  0  0  0  0  0  0  0  0  0  0  0
   -1.2994    0.9419    0.0000 C   0  0  0  0  0  0  0  0  0  0  0  0
    3.9251    0.8181    0.0000 C   0  0  0  0  0  0  0  0  0  0  0  0
    2.6251    3.0698    0.0000 C   0  0  0  0  0  0  0  0  0  0  0  0
    5.2241    1.5681    0.0000 C   0  0  0  0  0  0  0  0  0  0  0  0
    3.9241    3.8198    0.0000 C   0  0  0  0  0  0  0  0  0  0  0  0
    1.1483    1.8293    0.0000 C   0  0  0  0  0  0  0  0  0  0  0  0
   -1.8133    2.3665    0.0000 C   0  0  0  0  0  0  0  0  0  0  0  0
    2.6256    1.5689    0.0000 C   0  0  0  0  0  0  0  0  0  0  0  0
   -3.2879    2.6417    0.0000 Cl  0  0  0  0  0  0  0  0  0  0  0  0
    5.2236    3.0689    0.0000 N   0  0  0  0  0  0  0  0  0  0  0  0
    2.1124    0.1595    0.0000 O   0  0  0  0  0  0  0  0  0  0  0  0
  3  1  2  0
  4  2  1  0
  7  5  1  0
  8  6  1  0
  9  1  1  0
  9  2  2  0
 10  3  1  0
 10  4  2  0
 11  5  1  0
 11  6  1  0
 11  9  1  0
 12 10  1  0
 13  7  1  0
 13  8  1  0
 14 11  1  0
M  END
>  <NAME>  (407) 
4-(4-CHLOROPHENYL)-4-HYDROXYPIPERIDINE

>  <SYNONYMS>  (407) 
4-(4-CHLOROPHENYL)-4-PIPERIDINOL

>  <SPECTRUM TYPE>  (407) 
MS1

>  <INSTRUMENT TYPE>  (407) 
EI-B

>  <INSTRUMENT>  (407) 
HITACHI M-2500

>  <ION MODE>  (407) 
P

>  <INCHIKEY>  (407) 
LZAYOZUFUAMFLD-UHFFFAOYSA-N

>  <FORMULA>  (407) 
C11H14ClNO

>  <EXACT MASS>  (407) 
211.076391748

>  <MW>  (407) 
211

>  <ID>  (407) 
JP011621

>  <CONTRIBUTOR>  (407) 
University of Tokyo Team, {Faculty of Engineering, University of Tokyo

>  <COMMENT>  (407) 
SMILES=Clc(c2)ccc(c2)C(O)(C1)CCNC1
cas=39512-49-7
InChI=InChI=1S/C11H14ClNO/c12-10-3-1-9(2-4-10)11(14)5-7-13-8-6-11/h1-4,13-14H,5-8H2
computed SMILES=ClC1=CC=C(C=C1)C2(O)CCNCC2
accession=JP011621
date=2016.01.19 (Created 2008.10.21, modified 2011.05.06)
author=YAMAMOTO M, DEP. CHEMISTRY, FAC. SCIENCE, NARA WOMEN'S UNIV.
license=CC BY-NC-SA
exact mass=211.07639
ionization energy=70 eV
ion type=[M]+*
computed spectral entropy=3.7455635871369646
computed normalized entropy=0.822499965698572
SPLASH=splash10-052f-9400000000-5958c2e8aa283789e161
submitter=submitter = University of Tokyo Team (Faculty of Engineering, University of Tokyo)
MoNA Rating=3.75

>  <NUM PEAKS>  (407) 
95

>  <MASS SPECTRAL PEAKS>  (407) 
15 4.63
17 1.63
18 8.31
20 5.24
26 1.84
27 9.87
28 31.39
29 24.31
30 48.13
31 1.04
39 4.26
41 4.8
42 99.99
43 36.17
44 47.46
45 1.97
50 5.55
51 7.3
52 1.28
53 2.36
54 1.61
55 5.01
56 61.99
57 76.22
58 5.71
60 4.21
62 1
63 3.77
65 1.99
68 3.86
70 1.84
74 2.68
75 9.74
76 3.21
77 7.28
78 1.27
80 3.16
81 2.9
82 14.68
89 2.99
90 1.12
91 4.52
98 2.51
99 3.75
101 3.58
102 2.86
103 1.91
111 9.85
112 4.31
113 3.75
114 1.56
116 1.32
125 5.89
126 1.31
127 4.32
128 4.32
129 10.8
130 3.93
131 3.42
133 1.45
136 1.16
137 1.84
138 2.43
139 16.43
140 3.14
141 5.06
149 1.28
151 2.02
153 1.3
154 7.58
155 1.99
156 2.77
158 15.94
159 2.26
164 7.72
165 3.5
166 6.81
167 2.77
168 1.71
178 1.37
182 1.66
183 5.6
185 1.8
189 6.62
190 3.44
191 4.23
192 23.36
193 58.61
194 14.78
195 19.95
196 2.82
210 4.61
211 25.32
212 4.5
213 8.05

$$$$

     RDKit          2D

 21 23  0  0  0  0  0  0  0  0999 V2000
   -2.6000    0.7500    0.0000 C   0  0  0  0  0  0  0  0  0  0  0  0
   -2.6000   -0.7500    0.0000 C   0  0  0  0  0  0  0  0  0  0  0  0
   -1.3000    1.5000    0.0000 C   0  0  0  0  0  0  0  0  0  0  0  0
   -1.3000   -1.5000    0.0000 C   0  0  0  0  0  0  0  0  0  0  0  0
    9.0956   -1.5023    0.0000 C   0  0  0  0  0  0  0  0  0  0  0  0
    7.7963   -3.7527    0.0000 C   0  0  0  0  0  0  0  0  0  0  0  0
    7.7963   -0.7510    0.0000 C   0  0  0  0  0  0  0  0  0  0  0  0
    6.4970   -3.0015    0.0000 C   0  0  0  0  0  0  0  0  0  0  0  0
    2.6000    0.7500    0.0000 C   0  0  0  0  0  0  0  0  0  0  0  0
    9.0956   -3.0031    0.0000 C   0  0  0  0  0  0  0  0  0  0  0  0
    6.4970   -1.5006    0.0000 C   0  0  0  0  0  0  0  0  0  0  0  0
    0.0000    0.7500    0.0000 C   0  0  0  0  0  0  0  0  0  0  0  0
    0.0000   -0.7500    0.0000 C   0  0  0  0  0  0  0  0  0  0  0  0
    2.6000   -0.7500    0.0000 C   0  0  0  0  0  0  0  0  0  0  0  0
   10.3945   -3.7533    0.0000 N   0  0  0  0  0  0  0  0  0  0  0  0
    1.3000    1.5000    0.0000 N   0  0  0  0  0  0  0  0  0  0  0  0
    1.3000   -1.5000    0.0000 N   0  0  0  0  0  0  0  0  0  0  0  0
    3.8989   -1.5002    0.0000 N   0  0  0  0  0  0  0  0  0  0  0  0
    6.1624    0.3985    0.0000 O   0  0  0  0  0  0  0  0  0  0  0  0
    4.2341    0.3988    0.0000 O   0  0  0  0  0  0  0  0  0  0  0  0
    5.1981   -0.7504    0.0000 S   0  0  0  0  0  0  0  0  0  0  0  0
  2  1  2  0
  3  1  1  0
  4  2  1  0
  7  5  2  0
  8  6  1  0
 10  5  1  0
 10  6  2  0
 11  7  1  0
 11  8  2  0
 12  3  2  0
 13  4  2  0
 13 12  1  0
 14  9  1  0
 15 10  1  0
 16  9  2  0
 16 12  1  0
 17 13  1  0
 17 14  1  0
 18 14  2  3
 21 11  1  0
 21 18  1  0
 21 19  2  0
 21 20  2  0
M  END
>  <NAME>  (408) 
2-SULFANILAMIDOQUINOXALINE

>  <SYNONYMS>  (408) 
SULFAQUNOXALINE

>  <SPECTRUM TYPE>  (408) 
MS1

>  <INSTRUMENT TYPE>  (408) 
EI-B

>  <INSTRUMENT>  (408) 
HITACHI M-2500

>  <ION MODE>  (408) 
P

>  <INCHIKEY>  (408) 
NHZLNPMOSADWGC-UHFFFAOYSA-N

>  <FORMULA>  (408) 
C14H12N4O2S

>  <EXACT MASS>  (408) 
300.06809662399996

>  <MW>  (408) 
300

>  <ID>  (408) 
JP011620

>  <CONTRIBUTOR>  (408) 
University of Tokyo Team, {Faculty of Engineering, University of Tokyo

>  <COMMENT>  (408) 
SMILES=Nc(c3)ccc(c3)S(=O)(=O)Nc(c1)nc(c2)c(ccc2)n1
InChI=InChI=1S/C14H12N4O2S/c15-10-5-7-11(8-6-10)21(19,20)18-14-9-16-12-3-1-2-4-13(12)17-14/h1-9H,15H2,(H,17,18)
computed SMILES=O=S(=O)(N=C1C=NC=2C=CC=CC2N1)C3=CC=C(N)C=C3
accession=JP011620
date=2016.01.19 (Created 2008.10.21, modified 2011.05.06)
author=YAMAMOTO M, DEP. CHEMISTRY, FAC. SCIENCE, NARA WOMEN'S UNIV.
license=CC BY-NC-SA
exact mass=300.0681
ionization energy=70 eV
ion type=[M]+*
computed spectral entropy=2.8952101367610696
computed normalized entropy=0.7650806161538168
SPLASH=splash10-000i-8490000000-cc9214994a8554fe8414
submitter=submitter = University of Tokyo Team (Faculty of Engineering, University of Tokyo)
MoNA Rating=3.75

>  <NUM PEAKS>  (408) 
44

>  <MASS SPECTRAL PEAKS>  (408) 
27 1.04
28 1.6
38 1.81
39 8.76
40 1.25
41 1.86
50 1.74
51 1.88
52 2.74
62 1.82
63 6.86
64 5.97
65 26.25
66 4.07
75 1.21
76 1.75
80 2.17
89 1.35
90 16.76
91 6.16
92 52.38
93 8.92
102 2.06
107 1.44
108 28.35
109 2.62
116 1.54
117 4.76
118 9.47
119 1.61
129 1.5
140 5.14
144 4.58
145 10.02
146 1.25
156 17.85
157 2.12
234 3.56
235 54.24
236 99.99
237 16.11
238 1.25
300 10.88
301 2.42

$$$$

     RDKit          2D

 12 12  0  0  0  0  0  0  0  0999 V2000
    1.3000   -1.1200    0.0000 C   0  0  0  0  0  0  0  0  0  0  0  0
   -0.0000   -1.8800    0.0000 C   0  0  0  0  0  0  0  0  0  0  0  0
    0.0000    1.1200    0.0000 C   0  0  0  0  0  0  0  0  0  0  0  0
    1.3000    0.3800    0.0000 C   0  0  0  0  0  0  0  0  0  0  0  0
   -1.3000    0.3800    0.0000 C   0  0  0  0  0  0  0  0  0  0  0  0
    2.5967    1.1340    0.0000 C   0  0  0  0  0  0  0  0  0  0  0  0
   -2.5967    1.1340    0.0000 C   0  0  0  0  0  0  0  0  0  0  0  0
   -1.3000   -1.1200    0.0000 N   0  0  0  0  0  0  0  0  0  0  0  0
    2.5922    2.6340    0.0000 O   0  0  0  0  0  0  0  0  0  0  0  0
    3.8981    0.3879    0.0000 O   0  0  0  0  0  0  0  0  0  0  0  0
   -3.8981    0.3879    0.0000 O   0  0  0  0  0  0  0  0  0  0  0  0
   -2.5922    2.6340    0.0000 O   0  0  0  0  0  0  0  0  0  0  0  0
  2  1  2  0
  4  1  1  0
  4  3  2  0
  5  3  1  0
  6  4  1  0
  7  5  1  0
  8  2  1  0
  8  5  2  0
  9  6  2  0
 10  6  1  0
 11  7  1  0
 12  7  2  0
M  END
>  <NAME>  (409) 
2,4-PYRIDINEDICARBOXYLIC ACID

>  <SYNONYMS>  (409) 


>  <SPECTRUM TYPE>  (409) 
MS1

>  <INSTRUMENT TYPE>  (409) 
EI-B

>  <INSTRUMENT>  (409) 
HITACHI M-2500

>  <ION MODE>  (409) 
P

>  <INCHIKEY>  (409) 
MJIVRKPEXXHNJT-UHFFFAOYSA-N

>  <FORMULA>  (409) 
C7H5NO4

>  <EXACT MASS>  (409) 
167.02185764

>  <MW>  (409) 
167

>  <ID>  (409) 
JP011619

>  <CONTRIBUTOR>  (409) 
University of Tokyo Team, {Faculty of Engineering, University of Tokyo

>  <COMMENT>  (409) 
SMILES=OC(=O)c(c1)cc(nc1)C(O)=O
InChI=InChI=1S/C7H5NO4/c9-6(10)4-1-2-8-5(3-4)7(11)12/h1-3H,(H,9,10)(H,11,12)
computed SMILES=O=C(O)C1=NC=CC(=C1)C(=O)O
accession=JP011619
date=2016.01.19 (Created 2008.10.21, modified 2011.05.06)
author=YAMAMOTO M, DEP. CHEMISTRY, FAC. SCIENCE, NARA WOMEN'S UNIV.
license=CC BY-NC-SA
exact mass=167.02186
ionization energy=70 eV
ion type=[M]+*
computed spectral entropy=2.5252605244254354
computed normalized entropy=0.7161095715533243
SPLASH=splash10-01b9-3900000000-9761e6214187542c251d
submitter=submitter = University of Tokyo Team (Faculty of Engineering, University of Tokyo)
MoNA Rating=3.75

>  <NUM PEAKS>  (409) 
34

>  <MASS SPECTRAL PEAKS>  (409) 
28 1
38 1.12
39 3.34
44 1.18
45 5.37
49 1.37
50 7
51 9.77
52 5.57
53 1.27
66 3.39
67 2.67
68 2.73
75 1.49
76 3.81
77 6.83
78 8.51
79 3.24
80 2.84
94 7.45
95 1.06
96 3.18
105 2.52
106 4.1
122 8.55
123 66.21
124 8.91
137 1.84
138 2.33
150 25.54
151 2.32
168 99.99
169 8.62
170 1.2

$$$$

     RDKit          2D

 12 12  0  0  0  0  0  0  0  0999 V2000
    1.3000   -1.1200    0.0000 C   0  0  0  0  0  0  0  0  0  0  0  0
   -0.0000   -1.8800    0.0000 C   0  0  0  0  0  0  0  0  0  0  0  0
    0.0000    1.1200    0.0000 C   0  0  0  0  0  0  0  0  0  0  0  0
    1.3000    0.3800    0.0000 C   0  0  0  0  0  0  0  0  0  0  0  0
   -1.3000    0.3800    0.0000 C   0  0  0  0  0  0  0  0  0  0  0  0
    2.5967    1.1340    0.0000 C   0  0  0  0  0  0  0  0  0  0  0  0
   -2.5967    1.1340    0.0000 C   0  0  0  0  0  0  0  0  0  0  0  0
   -1.3000   -1.1200    0.0000 N   0  0  0  0  0  0  0  0  0  0  0  0
    2.5922    2.6340    0.0000 O   0  0  0  0  0  0  0  0  0  0  0  0
    3.8981    0.3879    0.0000 O   0  0  0  0  0  0  0  0  0  0  0  0
   -3.8981    0.3879    0.0000 O   0  0  0  0  0  0  0  0  0  0  0  0
   -2.5922    2.6340    0.0000 O   0  0  0  0  0  0  0  0  0  0  0  0
  2  1  2  0
  4  1  1  0
  4  3  2  0
  5  3  1  0
  6  4  1  0
  7  5  1  0
  8  2  1  0
  8  5  2  0
  9  6  2  0
 10  6  1  0
 11  7  1  0
 12  7  2  0
M  END
>  <NAME>  (410) 
2,4-PYRIDINEDICARBOXYLIC ACID

>  <SYNONYMS>  (410) 


>  <SPECTRUM TYPE>  (410) 
MS1

>  <INSTRUMENT TYPE>  (410) 
EI-B

>  <INSTRUMENT>  (410) 
HITACHI M-2500

>  <ION MODE>  (410) 
P

>  <INCHIKEY>  (410) 
MJIVRKPEXXHNJT-UHFFFAOYSA-N

>  <FORMULA>  (410) 
C7H5NO4

>  <EXACT MASS>  (410) 
167.02185764

>  <MW>  (410) 
167

>  <ID>  (410) 
JP011618

>  <CONTRIBUTOR>  (410) 
University of Tokyo Team, {Faculty of Engineering, University of Tokyo

>  <COMMENT>  (410) 
SMILES=OC(=O)c(c1)cc(nc1)C(O)=O
InChI=InChI=1S/C7H5NO4/c9-6(10)4-1-2-8-5(3-4)7(11)12/h1-3H,(H,9,10)(H,11,12)
computed SMILES=O=C(O)C1=NC=CC(=C1)C(=O)O
computed spectral entropy=2.4196809748133927
computed normalized entropy=0.6861694820828823
accession=JP011618
date=2016.01.19 (Created 2008.10.21, modified 2011.05.06)
author=YAMAMOTO M, DEP. CHEMISTRY, FAC. SCIENCE, NARA WOMEN'S UNIV.
license=CC BY-NC-SA
exact mass=167.02186
ionization energy=70 eV
ion type=[M]+*
SPLASH=splash10-01b9-9400000000-5fd87d30c6a4eddfa46c
submitter=submitter = University of Tokyo Team (Faculty of Engineering, University of Tokyo)
MoNA Rating=3.75

>  <NUM PEAKS>  (410) 
34

>  <MASS SPECTRAL PEAKS>  (410) 
16 1.26
17 18.64
18 99.99
19 6.49
28 1.09
38 1.23
39 2.89
44 1.79
45 5.13
49 1.42
50 7.14
51 9.96
52 5.01
53 1.16
65 1.18
66 3.88
67 1.72
68 2.33
75 1.66
76 3.81
77 7.24
78 9.07
79 2.83
93 3.46
94 4.64
96 1.62
105 2.24
106 2.63
122 5.73
123 79.82
124 5.78
137 3.73
150 2.85
168 1.53

$$$$

     RDKit          2D

 12 12  0  0  0  0  0  0  0  0999 V2000
    0.0000    1.5000    0.0000 C   0  0  0  0  0  0  0  0  0  0  0  0
    1.3000    0.7500    0.0000 C   0  0  0  0  0  0  0  0  0  0  0  0
   -1.3000   -0.7500    0.0000 C   0  0  0  0  0  0  0  0  0  0  0  0
   -1.3000    0.7500    0.0000 C   0  0  0  0  0  0  0  0  0  0  0  0
    1.3000   -0.7500    0.0000 C   0  0  0  0  0  0  0  0  0  0  0  0
   -2.5989    1.5002    0.0000 C   0  0  0  0  0  0  0  0  0  0  0  0
    2.5989   -1.5002    0.0000 C   0  0  0  0  0  0  0  0  0  0  0  0
    0.0000   -1.5000    0.0000 N   0  0  0  0  0  0  0  0  0  0  0  0
   -2.5987    3.0002    0.0000 O   0  0  0  0  0  0  0  0  0  0  0  0
   -3.8981    0.7504    0.0000 O   0  0  0  0  0  0  0  0  0  0  0  0
    3.8981   -0.7504    0.0000 O   0  0  0  0  0  0  0  0  0  0  0  0
    2.5987   -3.0002    0.0000 O   0  0  0  0  0  0  0  0  0  0  0  0
  2  1  2  0
  4  1  1  0
  4  3  2  0
  5  2  1  0
  6  4  1  0
  7  5  1  0
  8  3  1  0
  8  5  2  0
  9  6  2  0
 10  6  1  0
 11  7  1  0
 12  7  2  0
M  END
>  <NAME>  (411) 
2,5-PYRIDINEDICARBOXYLIC ACID

>  <SYNONYMS>  (411) 
ISOCINCHOMERONIC ACID

>  <SPECTRUM TYPE>  (411) 
MS1

>  <INSTRUMENT TYPE>  (411) 
EI-B

>  <INSTRUMENT>  (411) 
HITACHI M-2500

>  <ION MODE>  (411) 
P

>  <INCHIKEY>  (411) 
LVPMIMZXDYBCDF-UHFFFAOYSA-N

>  <FORMULA>  (411) 
C7H5NO4

>  <EXACT MASS>  (411) 
167.02185763999998

>  <MW>  (411) 
167

>  <ID>  (411) 
JP011617

>  <CONTRIBUTOR>  (411) 
University of Tokyo Team, {Faculty of Engineering, University of Tokyo

>  <COMMENT>  (411) 
SMILES=OC(=O)c(c1)cnc(c1)C(O)=O
cas=100-26-5
InChI=InChI=1S/C7H5NO4/c9-6(10)4-1-2-5(7(11)12)8-3-4/h1-3H,(H,9,10)(H,11,12)
computed SMILES=O=C(O)C1=NC=C(C=C1)C(=O)O
accession=JP011617
date=2016.01.19 (Created 2008.10.21, modified 2011.05.06)
author=YAMAMOTO M, DEP. CHEMISTRY, FAC. SCIENCE, NARA WOMEN'S UNIV.
license=CC BY-NC-SA
exact mass=167.02186
ionization energy=70 eV
ion type=[M]+*
computed spectral entropy=2.527112676263079
computed normalized entropy=0.7227533851530341
SPLASH=splash10-01b9-3900000000-8e114fc34ace946d02eb
submitter=submitter = University of Tokyo Team (Faculty of Engineering, University of Tokyo)
MoNA Rating=3.75

>  <NUM PEAKS>  (411) 
33

>  <MASS SPECTRAL PEAKS>  (411) 
27 1.11
28 1.13
38 1.39
39 3.66
44 1.5
45 6.75
49 1.54
50 7.52
51 11.45
52 6.23
53 2.07
66 1.68
67 2.86
68 2.95
75 1.74
76 3.89
77 9.9
78 11.82
79 4.12
80 2.87
94 6.27
95 1.15
96 3.89
105 4.43
106 4.6
122 11.81
123 81.13
124 9.34
150 27.76
151 2.51
168 99.99
169 8.51
170 1.18

$$$$

     RDKit          2D

 12 12  0  0  0  0  0  0  0  0999 V2000
    0.0000    1.5000    0.0000 C   0  0  0  0  0  0  0  0  0  0  0  0
    1.3000    0.7500    0.0000 C   0  0  0  0  0  0  0  0  0  0  0  0
   -1.3000   -0.7500    0.0000 C   0  0  0  0  0  0  0  0  0  0  0  0
   -1.3000    0.7500    0.0000 C   0  0  0  0  0  0  0  0  0  0  0  0
    1.3000   -0.7500    0.0000 C   0  0  0  0  0  0  0  0  0  0  0  0
   -2.5989    1.5002    0.0000 C   0  0  0  0  0  0  0  0  0  0  0  0
    2.5989   -1.5002    0.0000 C   0  0  0  0  0  0  0  0  0  0  0  0
    0.0000   -1.5000    0.0000 N   0  0  0  0  0  0  0  0  0  0  0  0
   -2.5987    3.0002    0.0000 O   0  0  0  0  0  0  0  0  0  0  0  0
   -3.8981    0.7504    0.0000 O   0  0  0  0  0  0  0  0  0  0  0  0
    3.8981   -0.7504    0.0000 O   0  0  0  0  0  0  0  0  0  0  0  0
    2.5987   -3.0002    0.0000 O   0  0  0  0  0  0  0  0  0  0  0  0
  2  1  2  0
  4  1  1  0
  4  3  2  0
  5  2  1  0
  6  4  1  0
  7  5  1  0
  8  3  1  0
  8  5  2  0
  9  6  2  0
 10  6  1  0
 11  7  1  0
 12  7  2  0
M  END
>  <NAME>  (412) 
2,5-PYRIDINEDICARBOXYLIC ACID

>  <SYNONYMS>  (412) 
ISOCINCHLOMERONIC ACID

>  <SPECTRUM TYPE>  (412) 
MS1

>  <INSTRUMENT TYPE>  (412) 
EI-B

>  <INSTRUMENT>  (412) 
HITACHI M-2500

>  <ION MODE>  (412) 
P

>  <INCHIKEY>  (412) 
LVPMIMZXDYBCDF-UHFFFAOYSA-N

>  <FORMULA>  (412) 
C7H5NO4

>  <EXACT MASS>  (412) 
167.02185764

>  <MW>  (412) 
167

>  <ID>  (412) 
JP011616

>  <CONTRIBUTOR>  (412) 
University of Tokyo Team, {Faculty of Engineering, University of Tokyo

>  <COMMENT>  (412) 
SMILES=OC(=O)c(c1)cnc(c1)C(O)=O
cas=100-26-5
InChI=InChI=1S/C7H5NO4/c9-6(10)4-1-2-5(7(11)12)8-3-4/h1-3H,(H,9,10)(H,11,12)
computed SMILES=O=C(O)C1=NC=C(C=C1)C(=O)O
accession=JP011616
date=2016.01.19 (Created 2008.10.21, modified 2011.05.06)
author=YAMAMOTO M, DEP. CHEMISTRY, FAC. SCIENCE, NARA WOMEN'S UNIV.
license=CC BY-NC-SA
exact mass=167.02186
ionization energy=70 eV
ion type=[M]+*
computed spectral entropy=2.410775096119356
computed normalized entropy=0.7159380160931805
SPLASH=splash10-00di-6900000000-c4b800dc9b08fb6a940d
submitter=submitter = University of Tokyo Team (Faculty of Engineering, University of Tokyo)
MoNA Rating=3.75

>  <NUM PEAKS>  (412) 
29

>  <MASS SPECTRAL PEAKS>  (412) 
26 1.09
27 1.26
28 1.23
38 1.59
39 2.96
44 1.7
45 6.97
49 1.91
50 8.67
51 12.7
52 5.96
53 1.88
66 1.83
67 2.06
68 2.94
75 2.5
76 4.29
77 12.3
78 13.98
79 3.3
94 4.6
96 2.6
105 4.42
106 3.06
122 8.67
123 99.99
124 7.23
150 3.44
168 3.46

$$$$

     RDKit          2D

 12 12  0  0  0  0  0  0  0  0999 V2000
   -1.9500   -0.7500    0.0000 C   0  0  0  0  0  0  0  0  0  0  0  0
   -0.6500   -1.5000    0.0000 C   0  0  0  0  0  0  0  0  0  0  0  0
   -1.9500    0.7500    0.0000 C   0  0  0  0  0  0  0  0  0  0  0  0
    0.6500   -0.7500    0.0000 C   0  0  0  0  0  0  0  0  0  0  0  0
    0.6500    0.7500    0.0000 C   0  0  0  0  0  0  0  0  0  0  0  0
    1.9489   -1.5002    0.0000 C   0  0  0  0  0  0  0  0  0  0  0  0
    1.9489    1.5002    0.0000 C   0  0  0  0  0  0  0  0  0  0  0  0
   -0.6500    1.5000    0.0000 N   0  0  0  0  0  0  0  0  0  0  0  0
    3.2481   -0.7504    0.0000 O   0  0  0  0  0  0  0  0  0  0  0  0
    1.9487   -3.0002    0.0000 O   0  0  0  0  0  0  0  0  0  0  0  0
    3.2481    0.7504    0.0000 O   0  0  0  0  0  0  0  0  0  0  0  0
    1.9487    3.0002    0.0000 O   0  0  0  0  0  0  0  0  0  0  0  0
  2  1  2  0
  3  1  1  0
  4  2  1  0
  5  4  2  0
  6  4  1  0
  7  5  1  0
  8  3  2  0
  8  5  1  0
  9  6  2  0
 10  6  1  0
 11  7  2  0
 12  7  1  0
M  END
>  <NAME>  (413) 
2,3-PYRIDINEDICARBOXYLIC ACID

>  <SYNONYMS>  (413) 
QUINOLINIC ACID

>  <SPECTRUM TYPE>  (413) 
MS1

>  <INSTRUMENT TYPE>  (413) 
EI-B

>  <INSTRUMENT>  (413) 
HITACHI M-2500

>  <ION MODE>  (413) 
P

>  <INCHIKEY>  (413) 
GJAWHXHKYYXBSV-UHFFFAOYSA-N

>  <FORMULA>  (413) 
C7H5NO4

>  <EXACT MASS>  (413) 
167.02185764

>  <MW>  (413) 
167

>  <ID>  (413) 
JP011615

>  <CONTRIBUTOR>  (413) 
University of Tokyo Team, {Faculty of Engineering, University of Tokyo

>  <COMMENT>  (413) 
SMILES=OC(=O)c(c1)c(ncc1)C(O)=O
cas=89-00-9
InChI=InChI=1S/C7H5NO4/c9-6(10)4-2-1-3-8-5(4)7(11)12/h1-3H,(H,9,10)(H,11,12)
computed SMILES=O=C(O)C1=NC=CC=C1C(=O)O
ion type=[M]+*
accession=JP011615
date=2016.01.19 (Created 2008.10.21, modified 2011.05.06)
author=YAMAMOTO M, DEP. CHEMISTRY, FAC. SCIENCE, NARA WOMEN'S UNIV.
license=CC BY-NC-SA
exact mass=167.02186
ionization energy=70 eV
computed spectral entropy=2.92284815211004
computed normalized entropy=0.7923403809930416
SPLASH=splash10-0100-5900000000-3d726d602fec21fd8beb
submitter=submitter = University of Tokyo Team (Faculty of Engineering, University of Tokyo)
MoNA Rating=3.75

>  <NUM PEAKS>  (413) 
40

>  <MASS SPECTRAL PEAKS>  (413) 
26 2.49
27 1.41
28 2.36
37 1.56
38 2.32
39 9.21
40 1.15
43 1.16
44 8.4
45 7.82
49 3.4
50 14.1
51 17.5
52 17.71
53 2.95
66 4.14
67 4.13
75 2.67
76 6.58
77 25.59
78 20.83
79 50.53
80 7.62
94 7.29
95 6.01
96 3.43
105 40.61
106 25.61
107 1.65
122 4.82
123 97.03
124 58.85
125 4.39
140 2.24
144 2.18
150 22.14
151 1.94
156 4.47
168 99.99
169 8.47

$$$$

     RDKit          2D

 12 12  0  0  0  0  0  0  0  0999 V2000
   -1.9500   -0.7500    0.0000 C   0  0  0  0  0  0  0  0  0  0  0  0
   -0.6500   -1.5000    0.0000 C   0  0  0  0  0  0  0  0  0  0  0  0
   -1.9500    0.7500    0.0000 C   0  0  0  0  0  0  0  0  0  0  0  0
    0.6500   -0.7500    0.0000 C   0  0  0  0  0  0  0  0  0  0  0  0
    0.6500    0.7500    0.0000 C   0  0  0  0  0  0  0  0  0  0  0  0
    1.9489   -1.5002    0.0000 C   0  0  0  0  0  0  0  0  0  0  0  0
    1.9489    1.5002    0.0000 C   0  0  0  0  0  0  0  0  0  0  0  0
   -0.6500    1.5000    0.0000 N   0  0  0  0  0  0  0  0  0  0  0  0
    3.2481   -0.7504    0.0000 O   0  0  0  0  0  0  0  0  0  0  0  0
    1.9487   -3.0002    0.0000 O   0  0  0  0  0  0  0  0  0  0  0  0
    3.2481    0.7504    0.0000 O   0  0  0  0  0  0  0  0  0  0  0  0
    1.9487    3.0002    0.0000 O   0  0  0  0  0  0  0  0  0  0  0  0
  2  1  2  0
  3  1  1  0
  4  2  1  0
  5  4  2  0
  6  4  1  0
  7  5  1  0
  8  3  2  0
  8  5  1  0
  9  6  2  0
 10  6  1  0
 11  7  2  0
 12  7  1  0
M  END
>  <NAME>  (414) 
2,3-PYRIDINEDICARBOXYLIC ACID

>  <SYNONYMS>  (414) 
QUINOLINIC ACID

>  <SPECTRUM TYPE>  (414) 
MS1

>  <INSTRUMENT TYPE>  (414) 
EI-B

>  <INSTRUMENT>  (414) 
HITACHI M-2500

>  <ION MODE>  (414) 
P

>  <INCHIKEY>  (414) 
GJAWHXHKYYXBSV-UHFFFAOYSA-N

>  <FORMULA>  (414) 
C7H5NO4

>  <EXACT MASS>  (414) 
167.02185763999998

>  <MW>  (414) 
167

>  <ID>  (414) 
JP011614

>  <CONTRIBUTOR>  (414) 
University of Tokyo Team, {Faculty of Engineering, University of Tokyo

>  <COMMENT>  (414) 
SMILES=OC(=O)c(c1)c(ncc1)C(O)=O
cas=89-00-9
InChI=InChI=1S/C7H5NO4/c9-6(10)4-2-1-3-8-5(4)7(11)12/h1-3H,(H,9,10)(H,11,12)
computed SMILES=O=C(O)C1=NC=CC=C1C(=O)O
accession=JP011614
date=2016.01.19 (Created 2008.10.21, modified 2011.05.06)
author=YAMAMOTO M, DEP. CHEMISTRY, FAC. SCIENCE, NARA WOMEN'S UNIV.
license=CC BY-NC-SA
exact mass=167.02186
ionization energy=70 eV
ion type=[M]+*
computed spectral entropy=2.9400881952258677
computed normalized entropy=0.8025218296331689
SPLASH=splash10-05i0-9500000000-555e92ebc410fc53e92f
submitter=submitter = University of Tokyo Team (Faculty of Engineering, University of Tokyo)
MoNA Rating=3.75

>  <NUM PEAKS>  (414) 
39

>  <MASS SPECTRAL PEAKS>  (414) 
15 3.17
18 1.24
26 2.94
27 1.74
28 2.81
29 2.42
37 1.74
38 2.71
39 7.49
40 1.14
41 1.03
42 2.89
43 21.37
44 18.39
45 24.72
49 3.8
50 17.35
51 21.84
52 15.38
53 3.05
60 17.42
66 3.9
67 2.71
75 3.25
76 6.72
77 30.52
78 28.9
79 25.64
80 1.61
94 5.68
95 1.75
105 49.2
106 19.24
107 1.27
122 1.24
123 99.99
124 8.74
150 1.35
168 1.56

$$$$

     RDKit          2D

 12 12  0  0  0  0  0  0  0  0999 V2000
    0.0100    1.8800    0.0000 C   0  0  0  0  0  0  0  0  0  0  0  0
    1.3000    1.1200    0.0000 C   0  0  0  0  0  0  0  0  0  0  0  0
   -1.3000    1.1200    0.0000 C   0  0  0  0  0  0  0  0  0  0  0  0
    1.3000   -0.3800    0.0000 C   0  0  0  0  0  0  0  0  0  0  0  0
   -1.3000   -0.3800    0.0000 C   0  0  0  0  0  0  0  0  0  0  0  0
    2.6002   -1.1280    0.0000 C   0  0  0  0  0  0  0  0  0  0  0  0
   -2.5977   -1.1324    0.0000 C   0  0  0  0  0  0  0  0  0  0  0  0
    0.0100   -1.1300    0.0000 N   0  0  0  0  0  0  0  0  0  0  0  0
    3.8981   -0.3761    0.0000 O   0  0  0  0  0  0  0  0  0  0  0  0
    2.6024   -2.6280    0.0000 O   0  0  0  0  0  0  0  0  0  0  0  0
   -2.5950   -2.6324    0.0000 O   0  0  0  0  0  0  0  0  0  0  0  0
   -3.8981   -0.3847    0.0000 O   0  0  0  0  0  0  0  0  0  0  0  0
  2  1  2  0
  3  1  1  0
  4  2  1  0
  5  3  2  0
  6  4  1  0
  7  5  1  0
  8  4  2  0
  8  5  1  0
  9  6  1  0
 10  6  2  0
 11  7  2  0
 12  7  1  0
M  END
>  <NAME>  (415) 
2,6-PYRIDINE DICARBOXYLIC ACID

>  <SYNONYMS>  (415) 


>  <SPECTRUM TYPE>  (415) 
MS1

>  <INSTRUMENT TYPE>  (415) 
EI-B

>  <INSTRUMENT>  (415) 
HITACHI M-2500

>  <ION MODE>  (415) 
P

>  <INCHIKEY>  (415) 
WJJMNDUMQPNECX-UHFFFAOYSA-N

>  <FORMULA>  (415) 
C7H5NO4

>  <EXACT MASS>  (415) 
167.02185763999998

>  <MW>  (415) 
167

>  <ID>  (415) 
JP011613

>  <CONTRIBUTOR>  (415) 
University of Tokyo Team, {Faculty of Engineering, University of Tokyo

>  <COMMENT>  (415) 
SMILES=OC(=O)c(c1)nc(cc1)C(O)=O
cas=499-83-2
InChI=InChI=1S/C7H5NO4/c9-6(10)4-2-1-3-5(8-4)7(11)12/h1-3H,(H,9,10)(H,11,12)
computed SMILES=O=C(O)C=1N=C(C=CC1)C(=O)O
accession=JP011613
date=2016.01.19 (Created 2008.10.21, modified 2011.05.06)
author=YAMAMOTO M, DEP. CHEMISTRY, FAC. SCIENCE, NARA WOMEN'S UNIV.
license=CC BY-NC-SA
exact mass=167.02186
ionization energy=70 eV
ion type=[M]+*
computed spectral entropy=3.250885083025195
computed normalized entropy=0.7846438259217693
SPLASH=splash10-0g29-9200000000-bbc0b97db569b40d51b6
submitter=submitter = University of Tokyo Team (Faculty of Engineering, University of Tokyo)
MoNA Rating=3.75

>  <NUM PEAKS>  (415) 
63

>  <MASS SPECTRAL PEAKS>  (415) 
15 1.58
16 2.14
17 20.22
18 86.54
20 1.94
26 8.32
27 11.71
28 19.02
29 3.71
30 1.83
31 1.1
32 3.78
37 3.65
38 6.42
39 13.67
40 2.39
41 6.28
42 2.23
43 5.29
44 12.67
45 18.91
49 4.99
50 28.4
51 42.76
52 22.52
53 6.69
54 1.09
55 3.81
56 3.24
57 4.14
58 1.02
60 2.11
61 1.02
65 1.78
66 6.58
67 2.5
68 1.49
69 2.49
70 1.1
71 1.31
73 2.32
74 1.1
75 7.28
76 12.48
77 73.26
78 22.6
79 12.62
80 1.38
81 1.36
83 1.4
85 1.09
87 1.05
93 1.5
94 8.33
95 1.48
104 1.63
106 6.51
122 7.94
123 99.99
124 7.64
138 3.82
149 1.86
150 1.6

$$$$

     RDKit          2D

 12 12  0  0  0  0  0  0  0  0999 V2000
    0.0100    1.8800    0.0000 C   0  0  0  0  0  0  0  0  0  0  0  0
    1.3000    1.1200    0.0000 C   0  0  0  0  0  0  0  0  0  0  0  0
   -1.3000    1.1200    0.0000 C   0  0  0  0  0  0  0  0  0  0  0  0
    1.3000   -0.3800    0.0000 C   0  0  0  0  0  0  0  0  0  0  0  0
   -1.3000   -0.3800    0.0000 C   0  0  0  0  0  0  0  0  0  0  0  0
    2.6002   -1.1280    0.0000 C   0  0  0  0  0  0  0  0  0  0  0  0
   -2.5977   -1.1324    0.0000 C   0  0  0  0  0  0  0  0  0  0  0  0
    0.0100   -1.1300    0.0000 N   0  0  0  0  0  0  0  0  0  0  0  0
    3.8981   -0.3761    0.0000 O   0  0  0  0  0  0  0  0  0  0  0  0
    2.6024   -2.6280    0.0000 O   0  0  0  0  0  0  0  0  0  0  0  0
   -2.5950   -2.6324    0.0000 O   0  0  0  0  0  0  0  0  0  0  0  0
   -3.8981   -0.3847    0.0000 O   0  0  0  0  0  0  0  0  0  0  0  0
  2  1  2  0
  3  1  1  0
  4  2  1  0
  5  3  2  0
  6  4  1  0
  7  5  1  0
  8  4  2  0
  8  5  1  0
  9  6  1  0
 10  6  2  0
 11  7  2  0
 12  7  1  0
M  END
>  <NAME>  (416) 
2,6-PYRIDINE DICARBOXYLIC ACID

>  <SYNONYMS>  (416) 


>  <SPECTRUM TYPE>  (416) 
MS1

>  <INSTRUMENT TYPE>  (416) 
EI-B

>  <INSTRUMENT>  (416) 
HITACHI M-2500

>  <ION MODE>  (416) 
P

>  <INCHIKEY>  (416) 
WJJMNDUMQPNECX-UHFFFAOYSA-N

>  <FORMULA>  (416) 
C7H5NO4

>  <EXACT MASS>  (416) 
167.02185764

>  <MW>  (416) 
167

>  <ID>  (416) 
JP011612

>  <CONTRIBUTOR>  (416) 
University of Tokyo Team, {Faculty of Engineering, University of Tokyo

>  <COMMENT>  (416) 
SMILES=OC(=O)c(c1)nc(cc1)C(O)=O
cas=499-83-2
InChI=InChI=1S/C7H5NO4/c9-6(10)4-2-1-3-5(8-4)7(11)12/h1-3H,(H,9,10)(H,11,12)
computed SMILES=O=C(O)C=1N=C(C=CC1)C(=O)O
accession=JP011612
date=2016.01.19 (Created 2008.10.21, modified 2011.05.06)
author=YAMAMOTO M, DEP. CHEMISTRY, FAC. SCIENCE, NARA WOMEN'S UNIV.
license=CC BY-NC-SA
exact mass=167.02186
ionization energy=70 eV
ion type=[M]+*
computed spectral entropy=2.8292977917494766
computed normalized entropy=0.7835397702734321
SPLASH=splash10-0kor-7900000000-48c091dd3ea56a6cad7d
submitter=submitter = University of Tokyo Team (Faculty of Engineering, University of Tokyo)
MoNA Rating=3.75

>  <NUM PEAKS>  (416) 
37

>  <MASS SPECTRAL PEAKS>  (416) 
18 1.14
26 4.89
27 5.33
28 3.23
29 1.26
37 2.34
38 3.96
39 9.19
40 1.33
44 5.18
45 14.97
49 3.16
50 18.88
51 28.19
52 16.42
53 4.64
65 1.13
66 4.58
67 1.07
75 4.58
76 9.13
77 55.76
78 16.43
79 7.13
80 1.44
93 1
94 6.54
104 1.27
105 79.62
106 6.34
122 14.03
123 99.99
124 7.75
150 18.54
151 1.62
168 31.3
169 2.58

$$$$

     RDKit          2D

 10  9  0  0  0  0  0  0  0  0999 V2000
    1.7108    1.8113    0.0000 C   0  0  0  0  0  0  0  0  0  0  0  0
    0.4118    1.0613    0.0000 C   0  0  0  0  0  0  0  0  0  0  0  0
    1.7108    3.3113    0.0000 C   0  0  0  0  0  0  0  0  0  0  0  0
    1.1618   -0.2377    0.0000 F   0  0  0  0  0  0  0  0  0  0  0  0
   -0.3382    2.3603    0.0000 F   0  0  0  0  0  0  0  0  0  0  0  0
   -0.8873    0.3113    0.0000 F   0  0  0  0  0  0  0  0  0  0  0  0
    3.2108    3.3113    0.0000 F   0  0  0  0  0  0  0  0  0  0  0  0
    1.7108    4.8113    0.0000 F   0  0  0  0  0  0  0  0  0  0  0  0
    0.2108    3.3113    0.0000 F   0  0  0  0  0  0  0  0  0  0  0  0
    3.0099    1.0613    0.0000 O   0  0  0  0  0  0  0  0  0  0  0  0
  2  1  1  0
  3  1  1  0
  4  2  1  0
  5  2  1  0
  6  2  1  0
  7  3  1  0
  8  3  1  0
  9  3  1  0
 10  1  1  0
M  END
>  <NAME>  (417) 
HEXAFLUOROISOPROPANOL

>  <SYNONYMS>  (417) 
1,1,1,3,3,3-HEXAFLUORO-2-PROPANOL

>  <SPECTRUM TYPE>  (417) 
MS1

>  <INSTRUMENT TYPE>  (417) 
EI-B

>  <INSTRUMENT>  (417) 
HITACHI M-2500

>  <ION MODE>  (417) 
P

>  <INCHIKEY>  (417) 
BYEAHWXPCBROCE-UHFFFAOYSA-N

>  <FORMULA>  (417) 
C3H2F6O

>  <EXACT MASS>  (417) 
168.000984004

>  <MW>  (417) 
168

>  <ID>  (417) 
JP011611

>  <CONTRIBUTOR>  (417) 
University of Tokyo Team, {Faculty of Engineering, University of Tokyo

>  <COMMENT>  (417) 
SMILES=OC(C(F)(F)F)C(F)(F)F
cas=920-66-1
InChI=InChI=1S/C3H2F6O/c4-2(5,6)1(10)3(7,8)9/h1,10H
computed SMILES=FC(F)(F)C(O)C(F)(F)F
ion type=[M]+*
accession=JP011611
date=2016.01.19 (Created 2008.10.21, modified 2011.05.06)
author=YAMAMOTO M, DEP. CHEMISTRY, FAC. SCIENCE, NARA WOMEN'S UNIV.
license=CC BY-NC-SA
exact mass=168.00098
ionization energy=70 eV
computed spectral entropy=2.5388116844189654
computed normalized entropy=0.7464464420992396
SPLASH=splash10-0f92-9100000000-ca9bd0b3175790aec673
submitter=submitter = University of Tokyo Team (Faculty of Engineering, University of Tokyo)
MoNA Rating=3.75

>  <NUM PEAKS>  (417) 
30

>  <MASS SPECTRAL PEAKS>  (417) 
17 1.37
18 6.07
28 1.7
29 56.41
30 2.47
31 10.03
32 4.92
44 1.25
47 1.15
49 54.23
50 9.71
51 92.25
52 1.3
60 3.36
63 1.88
67 2.85
69 51.9
78 3.68
79 52.04
80 9.2
82 1.36
93 1.13
97 1.95
99 99.99
100 3.28
101 26.2
113 1.43
129 43.92
130 1.38
149 10.99

$$$$

     RDKit          2D

  7  6  0  0  0  0  0  0  0  0999 V2000
   -2.3078    1.1781    0.0000 C   0  0  0  0  0  0  0  0  0  0  0  0
   -0.3794    1.1781    0.0000 C   0  0  0  0  0  0  0  0  0  0  0  0
    1.2545    2.3272    0.0000 C   0  0  0  0  0  0  0  0  0  0  0  0
   -3.9417    2.3272    0.0000 C   0  0  0  0  0  0  0  0  0  0  0  0
   -1.3436    2.3272    0.0000 C   0  0  0  0  0  0  0  0  0  0  0  0
   -0.0445    3.0772    0.0000 O   0  0  0  0  0  0  0  0  0  0  0  0
   -2.6426    3.0772    0.0000 O   0  0  0  0  0  0  0  0  0  0  0  0
  5  1  1  0
  5  2  1  0
  6  3  1  0
  6  5  1  0
  7  4  1  0
  7  5  1  0
M  END
>  <NAME>  (418) 
2,2-DIMETHOXYPROPANE

>  <SYNONYMS>  (418) 


>  <SPECTRUM TYPE>  (418) 
MS1

>  <INSTRUMENT TYPE>  (418) 
EI-B

>  <INSTRUMENT>  (418) 
HITACHI M-2500

>  <ION MODE>  (418) 
P

>  <INCHIKEY>  (418) 
HEWZVZIVELJPQZ-UHFFFAOYSA-N

>  <FORMULA>  (418) 
C5H12O2

>  <EXACT MASS>  (418) 
104.083729624

>  <MW>  (418) 
104

>  <ID>  (418) 
JP011610

>  <CONTRIBUTOR>  (418) 
University of Tokyo Team, {Faculty of Engineering, University of Tokyo

>  <COMMENT>  (418) 
SMILES=COC(C)(C)OC
cas=77-76-9
InChI=InChI=1S/C5H12O2/c1-5(2,6-3)7-4/h1-4H3
computed SMILES=O(C)C(OC)(C)C
accession=JP011610
date=2016.01.19 (Created 2008.10.21, modified 2011.05.06)
author=YAMAMOTO M, DEP. CHEMISTRY, FAC. SCIENCE, NARA WOMEN'S UNIV.
license=CC BY-NC-SA
exact mass=104.08373
ionization energy=70 eV
ion type=[M]+*
computed spectral entropy=2.17633003146645
computed normalized entropy=0.7148346172458581
SPLASH=splash10-00dl-9000000000-cf50cb8dd1f78918a0f5
submitter=submitter = University of Tokyo Team (Faculty of Engineering, University of Tokyo)
MoNA Rating=3.75

>  <NUM PEAKS>  (418) 
21

>  <MASS SPECTRAL PEAKS>  (418) 
15 6.78
27 5.03
28 1.03
29 5.73
31 5.81
32 2.39
33 1.05
39 6.08
40 1.94
41 12.66
42 11.97
43 36.11
45 5.81
47 3.27
55 2.42
57 2.13
72 6.89
73 99.99
74 4.71
89 23.18
90 1.01

$$$$

     RDKit          2D

  9  9  0  0  0  0  0  0  0  0999 V2000
    3.8981   -0.7504    0.0000 C   0  0  0  0  0  0  0  0  0  0  0  0
    2.5987   -3.0002    0.0000 C   0  0  0  0  0  0  0  0  0  0  0  0
   -1.3000    0.7500    0.0000 C   0  0  0  0  0  0  0  0  0  0  0  0
    0.0000    1.5000    0.0000 C   0  0  0  0  0  0  0  0  0  0  0  0
   -1.3000   -0.7500    0.0000 C   0  0  0  0  0  0  0  0  0  0  0  0
    1.3000    0.7500    0.0000 C   0  0  0  0  0  0  0  0  0  0  0  0
    0.0000   -1.5000    0.0000 C   0  0  0  0  0  0  0  0  0  0  0  0
    1.3000   -0.7500    0.0000 C   0  0  0  0  0  0  0  0  0  0  0  0
    2.5989   -1.5002    0.0000 Si  0  0  0  0  0  4  0  0  0  0  0  0
  4  3  2  0
  5  3  1  0
  6  4  1  0
  7  5  2  0
  8  6  2  0
  8  7  1  0
  9  1  1  0
  9  2  1  0
  9  8  1  0
M  END
>  <NAME>  (419) 
DIMETHYLPHENYLSILANE

>  <SYNONYMS>  (419) 


>  <SPECTRUM TYPE>  (419) 
MS1

>  <INSTRUMENT TYPE>  (419) 
EI-B

>  <INSTRUMENT>  (419) 
HITACHI RMU-6M

>  <ION MODE>  (419) 
P

>  <INCHIKEY>  (419) 
ZISUALSZTAEPJH-UHFFFAOYSA-N

>  <FORMULA>  (419) 
C8H12Si

>  <EXACT MASS>  (419) 
136.070826914

>  <MW>  (419) 
136

>  <ID>  (419) 
JP011609

>  <CONTRIBUTOR>  (419) 
University of Tokyo Team, {Faculty of Engineering, University of Tokyo

>  <COMMENT>  (419) 
SMILES=C[SiH](C)c(c1)cccc1
InChI=InChI=1S/C8H12Si/c1-9(2)8-6-4-3-5-7-8/h3-7,9H,1-2H3
computed SMILES=C=1C=CC(=CC1)[SiH](C)C
accession=JP011609
date=2016.01.19 (Created 2008.10.21, modified 2011.05.06)
author=YAMAMOTO M, DEP. CHEMISTRY, FAC. SCIENCE, NARA WOMEN'S UNIV.
license=CC BY-NC-SA
exact mass=136.07083
ionization energy=70 eV
ion type=[M]+*
computed spectral entropy=2.8714765289517525
computed normalized entropy=0.7634468894570515
SPLASH=splash10-05g0-7900000000-320bd44f93d424b212a8
submitter=submitter = University of Tokyo Team (Faculty of Engineering, University of Tokyo)
MoNA Rating=3.75

>  <NUM PEAKS>  (419) 
43

>  <MASS SPECTRAL PEAKS>  (419) 
27 1.5
28 3.4
29 3.9
31 2.5
39 3.4
42 2
43 30.5
44 2.5
45 2
50 2.5
51 4.9
53 14.3
54 2
55 3.4
58 60.1
59 8.4
60 1.7
65 1.7
66 3
67 4.9
69 4.4
77 2.5
78 1.5
79 5.9
81 2
91 3.9
93 4.9
95 3.4
103 2
105 18.2
106 3
107 3.9
117 1.2
119 4.9
120 4.4
121 99.99
122 13.3
123 4.4
134 1.2
135 26.6
136 46.2
137 6.9
138 2

$$$$

     RDKit          2D

 10 10  0  0  0  0  0  0  0  0999 V2000
    1.8487   -2.7991    0.0000 C   0  0  0  0  0  0  0  0  0  0  0  0
    3.3491   -0.2013    0.0000 C   0  0  0  0  0  0  0  0  0  0  0  0
   -1.3000    0.7500    0.0000 C   0  0  0  0  0  0  0  0  0  0  0  0
    0.0000    1.5000    0.0000 C   0  0  0  0  0  0  0  0  0  0  0  0
   -1.3000   -0.7500    0.0000 C   0  0  0  0  0  0  0  0  0  0  0  0
    1.3000    0.7500    0.0000 C   0  0  0  0  0  0  0  0  0  0  0  0
    0.0000   -1.5000    0.0000 C   0  0  0  0  0  0  0  0  0  0  0  0
    1.3000   -0.7500    0.0000 C   0  0  0  0  0  0  0  0  0  0  0  0
    2.5989   -1.5002    0.0000 Si  0  0  0  0  0  4  0  0  0  0  0  0
    3.8978   -2.2504    0.0000 H   0  0  0  0  0  0  0  0  0  0  0  0
  9 10  1  0
  4  3  2  0
  5  3  1  0
  6  4  1  0
  7  5  2  0
  8  6  2  0
  8  7  1  0
  9  1  1  0
  9  2  1  0
  9  8  1  0
M  ISO  1  10   2
M  END
>  <NAME>  (420) 
DIMETHYLPHENYLSILANE(1-D)

>  <SYNONYMS>  (420) 


>  <SPECTRUM TYPE>  (420) 
MS1

>  <INSTRUMENT TYPE>  (420) 
EI-B

>  <INSTRUMENT>  (420) 
HITACHI RMU-6M

>  <ION MODE>  (420) 
P

>  <INCHIKEY>  (420) 
ZISUALSZTAEPJH-QOWOAITPSA-N

>  <FORMULA>  (420) 
C8H12Si

>  <EXACT MASS>  (420) 
137.07710366

>  <MW>  (420) 
137

>  <ID>  (420) 
JP011608

>  <CONTRIBUTOR>  (420) 
University of Tokyo Team, {Faculty of Engineering, University of Tokyo

>  <COMMENT>  (420) 
SMILES=c(c1)ccc(c1)[Si]([2H])(C)C
InChI=InChI=1S/C8H12Si/c1-9(2)8-6-4-3-5-7-8/h3-7,9H,1-2H3/i9D
computed SMILES=[H][Si](C=1C=CC=CC1)(C)C
accession=JP011608
date=2016.01.19 (Created 2008.10.21, modified 2011.05.06)
author=YAMAMOTO M, DEP. CHEMISTRY, FAC. SCIENCE, NARA WOMEN'S UNIV.
license=CC BY-NC-SA
exact mass=136.07083
ionization energy=70 eV
ion type=[M]+*
computed spectral entropy=3.104224554699921
computed normalized entropy=0.7581737461331742
SPLASH=splash10-05fr-8900000000-fd6c98accbde8b3a4559
submitter=submitter = University of Tokyo Team (Faculty of Engineering, University of Tokyo)
MoNA Rating=3.75

>  <NUM PEAKS>  (420) 
60

>  <MASS SPECTRAL PEAKS>  (420) 
27 1.4
28 1.7
29 4.1
31 2.1
32 1.4
39 2.8
42 1.7
43 29.9
44 7.9
45 1.7
46 1
50 2.8
51 6.2
52 1.4
53 15.5
54 3.1
55 3.3
56 1.4
57 1
58 61.9
59 5.5
60 5.2
61 2.1
63 1
65 1.7
66 2.6
67 3.8
68 2.4
69 2.9
70 2.1
74 1
77 2.1
78 1.2
79 5
80 1.7
81 1.4
82 1.2
91 2.1
92 2.4
93 3.5
94 1.7
95 2.1
96 2.8
103 1.4
105 11.3
106 7.2
107 3.1
108 1.9
117 1
119 2.4
120 4.5
121 2.1
122 99.99
123 13.4
124 5.2
135 10.3
136 9
137 38.1
138 6.2
139 1.9

$$$$

     RDKit          2D

 10 10  0  0  0  0  0  0  0  0999 V2000
   -3.8969    2.5696    0.0000 C   0  0  0  0  0  0  0  0  0  0  0  0
   -2.5978    0.3196    0.0000 C   0  0  0  0  0  0  0  0  0  0  0  0
    2.5983    0.3196    0.0000 C   0  0  0  0  0  0  0  0  0  0  0  0
    2.5988    1.8204    0.0000 C   0  0  0  0  0  0  0  0  0  0  0  0
    1.2988   -0.4312    0.0000 C   0  0  0  0  0  0  0  0  0  0  0  0
    1.2998    2.5704    0.0000 C   0  0  0  0  0  0  0  0  0  0  0  0
   -0.0002    0.3188    0.0000 C   0  0  0  0  0  0  0  0  0  0  0  0
   -1.2988    2.5696    0.0000 C   0  0  0  0  0  0  0  0  0  0  0  0
    0.0002    1.8196    0.0000 C   0  0  0  0  0  0  0  0  0  0  0  0
   -2.5978    1.8196    0.0000 Si  0  0  0  0  0  4  0  0  0  0  0  0
  4  3  2  0
  5  3  1  0
  6  4  1  0
  7  5  2  0
  9  6  2  0
  9  7  1  0
  9  8  1  0
 10  1  1  0
 10  2  1  0
 10  8  1  0
M  END
>  <NAME>  (421) 
DIMETHYLBENZYLSILANE

>  <SYNONYMS>  (421) 


>  <SPECTRUM TYPE>  (421) 
MS1

>  <INSTRUMENT TYPE>  (421) 
EI-B

>  <INSTRUMENT>  (421) 
HITACHI RMU-6M

>  <ION MODE>  (421) 
P

>  <INCHIKEY>  (421) 
USQQZWZBVGCDBX-UHFFFAOYSA-N

>  <FORMULA>  (421) 
C9H14Si

>  <EXACT MASS>  (421) 
150.086476978

>  <MW>  (421) 
150

>  <ID>  (421) 
JP011607

>  <CONTRIBUTOR>  (421) 
University of Tokyo Team, {Faculty of Engineering, University of Tokyo

>  <COMMENT>  (421) 
SMILES=C[SiH](C)Cc(c1)cccc1
InChI=InChI=1S/C9H14Si/c1-10(2)8-9-6-4-3-5-7-9/h3-7,10H,8H2,1-2H3
computed SMILES=C=1C=CC(=CC1)C[SiH](C)C
accession=JP011607
date=2016.01.19 (Created 2008.10.21, modified 2011.05.06)
author=YAMAMOTO M, DEP. CHEMISTRY, FAC. SCIENCE, NARA WOMEN'S UNIV.
license=CC BY-NC-SA
exact mass=150.08648
ionization energy=70 eV
ion type=[M]+*
computed spectral entropy=2.9416790851973933
computed normalized entropy=0.7683349733132344
SPLASH=splash10-0a4i-9300000000-0188d6f80b9d1f6e01f2
submitter=submitter = University of Tokyo Team (Faculty of Engineering, University of Tokyo)
MoNA Rating=3.75

>  <NUM PEAKS>  (421) 
46

>  <MASS SPECTRAL PEAKS>  (421) 
27 1.2
28 4.6
29 2.5
31 6.5
32 1.4
39 6
41 1.5
42 1.9
43 19.4
44 2.8
45 3.7
51 2.2
52 2.3
53 4.6
55 1.9
57 1.9
58 11.1
59 99.99
60 8.3
61 4.6
62 1.2
63 2.8
65 6.5
67 2.5
69 1.4
72 6.5
73 1.1
77 2
89 1.5
91 10.2
92 1.2
93 2.8
105 3.7
107 5.6
117 1.5
119 4.2
121 5.6
133 1.2
134 1.9
135 23.2
136 3.7
137 1.4
149 5.6
150 23.2
151 4.6
152 1.2

$$$$

     RDKit          2D

 10 10  0  0  0  0  0  0  0  0999 V2000
   -3.8969    2.5696    0.0000 C   0  0  0  0  0  0  0  0  0  0  0  0
   -2.5978    0.3196    0.0000 C   0  0  0  0  0  0  0  0  0  0  0  0
    2.5983    0.3196    0.0000 C   0  0  0  0  0  0  0  0  0  0  0  0
    2.5988    1.8204    0.0000 C   0  0  0  0  0  0  0  0  0  0  0  0
    1.2988   -0.4312    0.0000 C   0  0  0  0  0  0  0  0  0  0  0  0
    1.2998    2.5704    0.0000 C   0  0  0  0  0  0  0  0  0  0  0  0
   -0.0002    0.3188    0.0000 C   0  0  0  0  0  0  0  0  0  0  0  0
   -1.2988    2.5696    0.0000 C   0  0  0  0  0  0  0  0  0  0  0  0
   -2.5978    1.8196    0.0000 C   0  0  0  0  0  0  0  0  0  0  0  0
    0.0002    1.8196    0.0000 C   0  0  0  0  0  0  0  0  0  0  0  0
  4  3  2  0
  5  3  1  0
  6  4  1  0
  7  5  2  0
  9  1  1  0
  9  2  1  0
  9  8  1  0
 10  6  2  0
 10  7  1  0
 10  8  1  0
M  END
>  <NAME>  (422) 
ISO-BUTYLBENZENE

>  <SYNONYMS>  (422) 


>  <SPECTRUM TYPE>  (422) 
MS1

>  <INSTRUMENT TYPE>  (422) 
EI-B

>  <INSTRUMENT>  (422) 
HITACHI RMU-6M

>  <ION MODE>  (422) 
P

>  <INCHIKEY>  (422) 
KXUHSQYYJYAXGZ-UHFFFAOYSA-N

>  <FORMULA>  (422) 
C10H14

>  <EXACT MASS>  (422) 
134.109550448

>  <MW>  (422) 
134

>  <ID>  (422) 
JP011605

>  <CONTRIBUTOR>  (422) 
University of Tokyo Team, {Faculty of Engineering, University of Tokyo

>  <COMMENT>  (422) 
SMILES=CC(C)Cc(c1)cccc1
InChI=InChI=1S/C10H14/c1-9(2)8-10-6-4-3-5-7-10/h3-7,9H,8H2,1-2H3
computed SMILES=C=1C=CC(=CC1)CC(C)C
accession=JP011605
date=2016.01.19 (Created 2008.10.21, modified 2011.05.06)
author=YAMAMOTO M, DEP. CHEMISTRY, FAC. SCIENCE, NARA WOMEN'S UNIV.
license=CC BY-NC-SA
exact mass=134.10955
ionization energy=70 eV
ion type=[M]+*
computed spectral entropy=2.40439754273118
computed normalized entropy=0.700176616730192
SPLASH=splash10-0006-9100000000-441e2bdac95b54c434ff
submitter=submitter = University of Tokyo Team (Faculty of Engineering, University of Tokyo)
MoNA Rating=3.75

>  <NUM PEAKS>  (422) 
31

>  <MASS SPECTRAL PEAKS>  (422) 
27 10.2
28 1.2
29 2.5
38 1.2
39 15.7
40 1.2
41 12.3
43 22.2
50 2.5
51 7.7
52 1.9
53 1.2
56 1.2
58 1.9
63 4.3
64 1.2
65 15.4
77 3.1
78 3.1
89 2.5
91 99.99
92 61
93 4.9
103 1.2
104 1.5
106 1.2
115 2.2
117 1.5
119 1.5
134 22.2
135 2.5

$$$$

     RDKit          2D

  8  9  0  0  0  0  0  0  0  0999 V2000
   -4.4296    0.0000    0.0000 C   0  0  0  0  0  0  0  0  0  0  0  0
   -4.4296    1.5000    0.0000 C   0  0  0  0  0  0  0  0  0  0  0  0
    0.0000    0.7500    0.0000 C   0  0  0  0  0  0  0  0  0  0  0  0
   -3.0030   -0.4635    0.0000 C   0  0  0  0  0  0  0  0  0  0  0  0
   -3.0030    1.9635    0.0000 C   0  0  0  0  0  0  0  0  0  0  0  0
   -1.0607    1.8107    0.0000 C   0  0  0  0  0  0  0  0  0  0  0  0
   -1.0607   -0.3107    0.0000 C   0  0  0  0  0  0  0  0  0  0  0  0
   -2.1213    0.7500    0.0000 Si  0  0  0  0  0  4  0  0  0  0  0  0
  2  1  1  0
  4  1  1  0
  5  2  1  0
  6  3  1  0
  7  3  1  0
  8  4  1  0
  8  5  1  0
  8  6  1  0
  8  7  1  0
M  END
>  <NAME>  (423) 
SPIRO(3.4)SILAOCTANE

>  <SYNONYMS>  (423) 


>  <SPECTRUM TYPE>  (423) 
MS1

>  <INSTRUMENT TYPE>  (423) 
EI-B

>  <INSTRUMENT>  (423) 
HITACHI RMU-6M

>  <ION MODE>  (423) 
P

>  <INCHIKEY>  (423) 
HYJKBOFKAIXWGW-UHFFFAOYSA-N

>  <FORMULA>  (423) 
C7H14Si

>  <EXACT MASS>  (423) 
126.08647697800001

>  <MW>  (423) 
126

>  <ID>  (423) 
JP011604

>  <CONTRIBUTOR>  (423) 
University of Tokyo Team, {Faculty of Engineering, University of Tokyo

>  <COMMENT>  (423) 
SMILES=C(C2)C[Si](C2)(C1)CC1
InChI=InChI=1S/C7H14Si/c1-2-5-8(4-1)6-3-7-8/h1-7H2
computed SMILES=C1CC[Si]2(C1)CCC2
accession=JP011604
date=2016.01.19 (Created 2008.10.21, modified 2011.05.06)
author=YAMAMOTO M, DEP. CHEMISTRY, FAC. SCIENCE, NARA WOMEN'S UNIV.
license=CC BY-NC-SA
exact mass=126.08648
ionization energy=70 eV
ion type=[M]+*
computed spectral entropy=2.897536689537417
computed normalized entropy=0.7909070378544079
SPLASH=splash10-0002-9100000000-74d4caebb7ecad244ff1
submitter=submitter = University of Tokyo Team (Faculty of Engineering, University of Tokyo)
MoNA Rating=3.75

>  <NUM PEAKS>  (423) 
39

>  <MASS SPECTRAL PEAKS>  (423) 
27 3.4
28 3.3
29 4.7
31 1.6
39 3.9
41 1.9
42 14.1
43 23.2
44 3.8
45 4.4
53 5
54 2.3
55 18.2
56 6.8
57 7.8
58 1.8
59 1.1
66 1.9
67 4.5
68 1.7
69 6.2
70 51.6
71 7.4
72 2.5
81 1.6
82 2
83 21.5
84 6.1
85 9.2
86 1.1
95 1.6
96 6
97 22.6
98 99.99
99 12.4
100 4.3
126 33.1
127 4.5
128 1.5

$$$$

     RDKit          2D

  9 10  0  0  0  0  0  0  0  0999 V2000
   -4.1119   -0.8740    0.0000 C   0  0  0  0  0  0  0  0  0  0  0  0
   -2.8129   -1.6240    0.0000 C   0  0  0  0  0  0  0  0  0  0  0  0
   -1.8037    3.1240    0.0000 C   0  0  0  0  0  0  0  0  0  0  0  0
   -0.5046    2.3740    0.0000 C   0  0  0  0  0  0  0  0  0  0  0  0
   -3.8000    0.5932    0.0000 C   0  0  0  0  0  0  0  0  0  0  0  0
   -1.6982   -0.6203    0.0000 C   0  0  0  0  0  0  0  0  0  0  0  0
   -2.9184    2.1203    0.0000 C   0  0  0  0  0  0  0  0  0  0  0  0
   -0.8165    0.9068    0.0000 C   0  0  0  0  0  0  0  0  0  0  0  0
   -2.3083    0.7500    0.0000 Si  0  0  0  0  0  4  0  0  0  0  0  0
  2  1  1  0
  4  3  1  0
  5  1  1  0
  6  2  1  0
  7  3  1  0
  8  4  1  0
  9  5  1  0
  9  6  1  0
  9  7  1  0
  9  8  1  0
M  END
>  <NAME>  (424) 
SPIRO(4.4)SILANONANE

>  <SYNONYMS>  (424) 


>  <SPECTRUM TYPE>  (424) 
MS1

>  <INSTRUMENT TYPE>  (424) 
EI-B

>  <INSTRUMENT>  (424) 
HITACHI RMU-6M

>  <ION MODE>  (424) 
P

>  <INCHIKEY>  (424) 
FXRBQAKUIDSTTE-UHFFFAOYSA-N

>  <FORMULA>  (424) 
C8H16Si

>  <EXACT MASS>  (424) 
140.102127042

>  <MW>  (424) 
140

>  <ID>  (424) 
JP011603

>  <CONTRIBUTOR>  (424) 
University of Tokyo Team, {Faculty of Engineering, University of Tokyo

>  <COMMENT>  (424) 
SMILES=C(C2)C[Si](C2)(C1)CCC1
InChI=InChI=1S/C8H16Si/c1-2-6-9(5-1)7-3-4-8-9/h1-8H2
computed SMILES=C1CC[Si]2(C1)CCCC2
accession=JP011603
date=2016.01.19 (Created 2008.10.21, modified 2011.05.06)
author=YAMAMOTO M, DEP. CHEMISTRY, FAC. SCIENCE, NARA WOMEN'S UNIV.
license=CC BY-NC-SA
exact mass=140.10213
ionization energy=70 eV
ion type=[M]+*
computed spectral entropy=2.7416419702912775
computed normalized entropy=0.7650697589092305
SPLASH=splash10-03e9-9600000000-cf37b92898e3b893f006
submitter=submitter = University of Tokyo Team (Faculty of Engineering, University of Tokyo)
MoNA Rating=3.75

>  <NUM PEAKS>  (424) 
36

>  <MASS SPECTRAL PEAKS>  (424) 
27 3.2
28 3.4
29 4.8
31 2.6
39 2.6
41 1.8
42 5
43 12.8
44 2
45 2.6
53 4.6
54 2.9
55 16.2
56 13.7
57 14.6
58 3.1
59 2.2
67 2.4
69 2.9
70 3.6
71 1.6
81 2.7
82 6
83 19.8
84 70
85 13.1
86 3.3
97 3
98 2.4
111 2.8
112 99.99
113 13.1
114 4.4
140 33.3
141 4.9
142 1.8

$$$$

     RDKit          2D

  9 10  0  0  0  0  0  0  0  0999 V2000
   -3.5166   -1.5910    0.0000 C   0  0  0  0  0  0  0  0  0  0  0  0
    0.9186   -0.5303    0.0000 C   0  0  0  0  0  0  0  0  0  0  0  0
   -2.0677   -1.9792    0.0000 C   0  0  0  0  0  0  0  0  0  0  0  0
   -3.1284   -0.1421    0.0000 C   0  0  0  0  0  0  0  0  0  0  0  0
   -0.3805   -1.2803    0.0000 C   0  0  0  0  0  0  0  0  0  0  0  0
    0.9186    0.9697    0.0000 C   0  0  0  0  0  0  0  0  0  0  0  0
   -1.6795    0.9697    0.0000 C   0  0  0  0  0  0  0  0  0  0  0  0
   -1.6795   -0.5303    0.0000 C   0  0  0  0  0  0  0  0  0  0  0  0
   -0.3805    1.7197    0.0000 Si  0  0  0  0  0  4  0  0  0  0  0  0
  3  1  1  0
  4  1  1  0
  5  2  1  0
  6  2  1  0
  8  3  1  0
  8  4  1  0
  8  5  1  0
  8  7  1  0
  9  6  1  0
  9  7  1  0
M  END
>  <NAME>  (425) 
SPIRO(3.5)SILANONANE

>  <SYNONYMS>  (425) 


>  <SPECTRUM TYPE>  (425) 
MS1

>  <INSTRUMENT TYPE>  (425) 
EI-B

>  <INSTRUMENT>  (425) 
HITACHI RMU-6M

>  <ION MODE>  (425) 
P

>  <INCHIKEY>  (425) 
FLNUVQXINSOEAK-UHFFFAOYSA-N

>  <FORMULA>  (425) 
C8H16Si

>  <EXACT MASS>  (425) 
140.102127042

>  <MW>  (425) 
140

>  <ID>  (425) 
JP011602

>  <CONTRIBUTOR>  (425) 
University of Tokyo Team, {Faculty of Engineering, University of Tokyo

>  <COMMENT>  (425) 
SMILES=C(C1)[SiH2]CC(C2)(CC2)C1
InChI=InChI=1S/C8H16Si/c1-3-8(4-1)5-2-6-9-7-8/h1-7,9H2
computed SMILES=C1C[SiH2]CC2(C1)CCC2
accession=JP011602
date=2016.01.19 (Created 2008.10.21, modified 2011.05.06)
author=YAMAMOTO M, DEP. CHEMISTRY, FAC. SCIENCE, NARA WOMEN'S UNIV.
license=CC BY-NC-SA
exact mass=140.10213
ionization energy=70 eV
ion type=[M]+*
computed spectral entropy=3.0924419924381255
computed normalized entropy=0.8123761958798487
SPLASH=splash10-01qc-9300000000-6fea4f2fd28bd457b166
submitter=submitter = University of Tokyo Team (Faculty of Engineering, University of Tokyo)
MoNA Rating=3.75

>  <NUM PEAKS>  (425) 
45

>  <MASS SPECTRAL PEAKS>  (425) 
27 4
28 4.6
29 5.5
31 2.5
32 1.2
39 4.9
41 5.3
42 11.7
43 32.9
44 6
45 8
53 5
54 2.3
55 16.9
56 11.3
57 7.2
58 6.8
59 3
66 1.8
67 4.7
68 1.6
69 10
70 11.2
71 15.2
72 2
81 2.8
82 7
83 25.2
84 99.99
85 12.2
86 4.2
95 2.9
96 1.4
97 19.4
98 7.9
99 10.9
100 2.4
110 1.6
111 6
112 89.9
113 11.9
114 3.8
140 43.8
141 6.8
142 2.3

$$$$

     RDKit          2D

 10 11  0  0  0  0  0  0  0  0999 V2000
    0.0000    1.5000    0.0000 C   0  0  0  0  0  0  0  0  0  0  0  0
    0.0000   -0.0000    0.0000 C   0  0  0  0  0  0  0  0  0  0  0  0
   -1.2990    2.2500    0.0000 C   0  0  0  0  0  0  0  0  0  0  0  0
   -4.9721   -0.5046    0.0000 C   0  0  0  0  0  0  0  0  0  0  0  0
   -4.2221   -1.8037    0.0000 C   0  0  0  0  0  0  0  0  0  0  0  0
   -1.2990   -0.7500    0.0000 C   0  0  0  0  0  0  0  0  0  0  0  0
   -2.5981    1.5000    0.0000 C   0  0  0  0  0  0  0  0  0  0  0  0
   -3.9684    0.6101    0.0000 C   0  0  0  0  0  0  0  0  0  0  0  0
   -2.7549   -1.4918    0.0000 C   0  0  0  0  0  0  0  0  0  0  0  0
   -2.5981   -0.0000    0.0000 Si  0  0  0  0  0  4  0  0  0  0  0  0
  2  1  1  0
  3  1  1  0
  5  4  1  0
  6  2  1  0
  7  3  1  0
  8  4  1  0
  9  5  1  0
 10  6  1  0
 10  7  1  0
 10  8  1  0
 10  9  1  0
M  END
>  <NAME>  (426) 
SPIRO(4.5)SILADECANE

>  <SYNONYMS>  (426) 


>  <SPECTRUM TYPE>  (426) 
MS1

>  <INSTRUMENT TYPE>  (426) 
EI-B

>  <INSTRUMENT>  (426) 
HITACHI RMU-6M

>  <ION MODE>  (426) 
P

>  <INCHIKEY>  (426) 
ICUSJPNKTSVHAM-UHFFFAOYSA-N

>  <FORMULA>  (426) 
C9H18Si

>  <EXACT MASS>  (426) 
154.117777106

>  <MW>  (426) 
154

>  <ID>  (426) 
JP011601

>  <CONTRIBUTOR>  (426) 
University of Tokyo Team, {Faculty of Engineering, University of Tokyo

>  <COMMENT>  (426) 
SMILES=C(C2)CC[Si](C2)(C1)CCC1
InChI=InChI=1S/C9H18Si/c1-2-6-10(7-3-1)8-4-5-9-10/h1-9H2
computed SMILES=C1CC[Si]2(CC1)CCCC2
accession=JP011601
date=2016.01.19 (Created 2008.10.21, modified 2011.05.06)
author=YAMAMOTO M, DEP. CHEMISTRY, FAC. SCIENCE, NARA WOMEN'S UNIV.
license=CC BY-NC-SA
exact mass=154.11778
ionization energy=70 eV
ion type=[M]+*
computed spectral entropy=3.1031733000153627
computed normalized entropy=0.797357807481982
SPLASH=splash10-002b-9400000000-ca9ee0a44f7fa392518d
submitter=submitter = University of Tokyo Team (Faculty of Engineering, University of Tokyo)
MoNA Rating=3.75

>  <NUM PEAKS>  (426) 
49

>  <MASS SPECTRAL PEAKS>  (426) 
27 3.2
28 2.3
29 3.7
31 2.6
39 3.4
41 3.6
42 6.6
43 22.4
44 4.1
45 7.1
53 4.2
54 1.9
55 17.4
56 7.1
57 13.4
58 3
59 3.8
66 1
67 3.9
68 1.8
69 6.4
70 19.6
71 13.4
72 2.2
73 1.2
76 1.5
81 2.1
82 2.8
83 20.5
84 10
85 11.3
86 1.5
93 1.1
95 3.8
96 5.1
97 30
98 86.3
99 12.6
100 3.6
111 4.7
112 3.8
113 1.4
125 3.1
126 99.99
127 15
128 4.6
154 46
155 8
156 2.9

$$$$

     RDKit          2D

 11 12  0  0  0  0  0  0  0  0999 V2000
   -5.1962   -1.5000    0.0000 C   0  0  0  0  0  0  0  0  0  0  0  0
    0.0000    1.5000    0.0000 C   0  0  0  0  0  0  0  0  0  0  0  0
   -3.8971   -2.2500    0.0000 C   0  0  0  0  0  0  0  0  0  0  0  0
   -5.1962    0.0000    0.0000 C   0  0  0  0  0  0  0  0  0  0  0  0
    0.0000   -0.0000    0.0000 C   0  0  0  0  0  0  0  0  0  0  0  0
   -1.2990    2.2500    0.0000 C   0  0  0  0  0  0  0  0  0  0  0  0
   -2.5981   -1.5000    0.0000 C   0  0  0  0  0  0  0  0  0  0  0  0
   -3.8971    0.7500    0.0000 C   0  0  0  0  0  0  0  0  0  0  0  0
   -1.2990   -0.7500    0.0000 C   0  0  0  0  0  0  0  0  0  0  0  0
   -2.5981    1.5000    0.0000 C   0  0  0  0  0  0  0  0  0  0  0  0
   -2.5981   -0.0000    0.0000 Si  0  0  0  0  0  4  0  0  0  0  0  0
  3  1  1  0
  4  1  1  0
  5  2  1  0
  6  2  1  0
  7  3  1  0
  8  4  1  0
  9  5  1  0
 10  6  1  0
 11  7  1  0
 11  8  1  0
 11  9  1  0
 11 10  1  0
M  END
>  <NAME>  (427) 
SPIRO(5.5)SILAUNDECANE

>  <SYNONYMS>  (427) 


>  <SPECTRUM TYPE>  (427) 
MS1

>  <INSTRUMENT TYPE>  (427) 
EI-B

>  <INSTRUMENT>  (427) 
HITACHI RMU-6M

>  <ION MODE>  (427) 
P

>  <INCHIKEY>  (427) 
HFUJMZDLRNNFDY-UHFFFAOYSA-N

>  <FORMULA>  (427) 
C10H20Si

>  <EXACT MASS>  (427) 
168.13342717

>  <MW>  (427) 
168

>  <ID>  (427) 
JP011600

>  <CONTRIBUTOR>  (427) 
University of Tokyo Team, {Faculty of Engineering, University of Tokyo

>  <COMMENT>  (427) 
SMILES=C(C2)CC[Si](C2)(C1)CCCC1
InChI=InChI=1S/C10H20Si/c1-3-7-11(8-4-1)9-5-2-6-10-11/h1-10H2
computed SMILES=C1CC[Si]2(CC1)CCCCC2
accession=JP011600
date=2016.01.19 (Created 2008.10.21, modified 2011.05.06)
author=YAMAMOTO M, DEP. CHEMISTRY, FAC. SCIENCE, NARA WOMEN'S UNIV.
license=CC BY-NC-SA
exact mass=168.13343
ionization energy=70 eV
ion type=[M]+*
computed spectral entropy=3.4386069411625546
computed normalized entropy=0.8660841610727101
SPLASH=splash10-00ke-9700000000-d06bd4ce9ee8acab2532
submitter=submitter = University of Tokyo Team (Faculty of Engineering, University of Tokyo)
MoNA Rating=3.75

>  <NUM PEAKS>  (427) 
53

>  <MASS SPECTRAL PEAKS>  (427) 
27 6.3
28 4.3
29 5.7
31 4.8
39 6.3
41 8.8
42 9
43 44.5
44 7.1
45 17.5
53 5.3
54 2.3
55 24.8
56 10.1
57 14.7
58 4.5
59 9.4
66 2.1
67 6.1
68 3.6
69 17.3
70 21.9
71 40.6
72 5.1
73 3.5
81 3.8
82 3.8
83 24
84 30.1
85 9.3
86 2.7
95 7
96 5.7
97 63.4
98 52.2
99 44.4
100 7.7
101 2.8
111 11.8
112 65.6
113 13
114 4.9
125 33.7
126 39.6
127 11.4
128 2.8
139 4.3
140 83.7
141 12.2
142 5.6
168 99.99
169 17.2
170 6.1

$$$$

     RDKit          2D

 12 12  0  0  0  0  0  0  0  0999 V2000
   -2.8445   -1.3818    0.0000 C   0  0  0  0  0  0  0  0  0  0  0  0
   -0.9161   -1.3818    0.0000 C   0  0  0  0  0  0  0  0  0  0  0  0
   -1.8803    2.7673    0.0000 C   0  0  0  0  0  0  0  0  0  0  0  0
   -0.5813    2.0173    0.0000 C   0  0  0  0  0  0  0  0  0  0  0  0
   -3.1794    2.0173    0.0000 C   0  0  0  0  0  0  0  0  0  0  0  0
   -0.5813    0.5173    0.0000 C   0  0  0  0  0  0  0  0  0  0  0  0
   -0.0682   -0.8923    0.0000 H   0  0  0  0  0  0  0  0  0  0  0  0
    0.8959    0.7777    0.0000 H   0  0  0  0  0  0  0  0  0  0  0  0
   -3.1794    0.5173    0.0000 C   0  0  0  0  0  0  0  0  0  0  0  0
   -4.6566    0.7777    0.0000 H   0  0  0  0  0  0  0  0  0  0  0  0
   -3.6924   -0.8923    0.0000 H   0  0  0  0  0  0  0  0  0  0  0  0
   -1.8803   -0.2327    0.0000 Si  0  0  0  0  0  4  0  0  0  0  0  0
  6  7  1  0
  6  8  1  0
  9 10  1  0
  9 11  1  0
  4  3  1  0
  5  3  1  0
  6  4  1  0
  9  5  1  0
 12  1  1  0
 12  2  1  0
 12  6  1  0
 12  9  1  0
M  ISO  4   7   2   8   2  10   2  11   2
M  END
>  <NAME>  (428) 
1,1-DIMETHYL-SILACYCLOHEXANE (2,2,6,6-D4)

>  <SYNONYMS>  (428) 


>  <SPECTRUM TYPE>  (428) 
MS1

>  <INSTRUMENT TYPE>  (428) 
EI-B

>  <INSTRUMENT>  (428) 
HITACHI RMU-6M

>  <ION MODE>  (428) 
P

>  <INCHIKEY>  (428) 
VPVXTYYXTKCTPM-KXGHAPEVSA-N

>  <FORMULA>  (428) 
C7H16Si

>  <EXACT MASS>  (428) 
132.127234026

>  <MW>  (428) 
132

>  <ID>  (428) 
JP011599

>  <CONTRIBUTOR>  (428) 
University of Tokyo Team, {Faculty of Engineering, University of Tokyo

>  <COMMENT>  (428) 
SMILES=[2H]C([2H])(C1)[Si](C)(C)C([2H])([2H])CC1
InChI=InChI=1S/C7H16Si/c1-8(2)6-4-3-5-7-8/h3-7H2,1-2H3/i6D2,7D2
computed SMILES=[H]C1([H])CCCC([H])([H])[Si]1(C)C
accession=JP011599
date=2016.01.19 (Created 2008.10.21, modified 2011.05.06)
author=YAMAMOTO M, DEP. CHEMISTRY, FAC. SCIENCE, NARA WOMEN'S UNIV.
license=CC BY-NC-SA
exact mass=128.10213
ionization energy=70 eV
ion type=[M]+*
computed spectral entropy=3.1549337310298853
computed normalized entropy=0.7946352056031175
SPLASH=splash10-014r-9500000000-9b8970e055843b943e18
submitter=submitter = University of Tokyo Team (Faculty of Engineering, University of Tokyo)
MoNA Rating=3.75

>  <NUM PEAKS>  (428) 
53

>  <MASS SPECTRAL PEAKS>  (428) 
27 1.3
28 2.3
29 6.1
30 1.8
31 4.8
32 1.9
39 1.1
40 1.9
41 1.6
42 3
43 25.7
44 8.5
45 9.7
46 6.4
47 2.7
53 1.9
54 1.3
55 2.4
56 2.4
57 3.5
58 8.5
59 20.6
60 10.3
61 14.7
62 5.6
63 1.4
68 1.2
69 1.6
70 1.3
71 2.4
72 10.5
73 5.4
74 10
75 2.5
85 2.3
86 9.7
87 54.6
88 25
89 10.4
90 2
99 1.1
100 1
101 3.5
102 3.6
103 2.3
115 1.7
116 2.7
117 99.99
118 12.4
119 4.2
132 33.5
133 5
134 1.7

$$$$

     RDKit          2D

 10 10  0  0  0  0  0  0  0  0999 V2000
   -1.8803    2.7673    0.0000 C   0  0  0  0  0  0  0  0  0  0  0  0
   -0.5813    2.0173    0.0000 C   0  0  0  0  0  0  0  0  0  0  0  0
   -3.1794    2.0173    0.0000 C   0  0  0  0  0  0  0  0  0  0  0  0
   -0.5813    0.5173    0.0000 C   0  0  0  0  0  0  0  0  0  0  0  0
   -0.0682   -0.8923    0.0000 H   0  0  0  0  0  0  0  0  0  0  0  0
    0.8959    0.7777    0.0000 H   0  0  0  0  0  0  0  0  0  0  0  0
   -3.1794    0.5173    0.0000 C   0  0  0  0  0  0  0  0  0  0  0  0
   -4.6566    0.7777    0.0000 H   0  0  0  0  0  0  0  0  0  0  0  0
   -3.6924   -0.8923    0.0000 H   0  0  0  0  0  0  0  0  0  0  0  0
   -1.8803   -0.2327    0.0000 Si  0  0  0  0  0  4  0  0  0  0  0  0
  4  5  1  0
  4  6  1  0
  7  8  1  0
  7  9  1  0
  2  1  1  0
  3  1  1  0
  4  2  1  0
  7  3  1  0
 10  4  1  0
 10  7  1  0
M  ISO  4   5   2   6   2   8   2   9   2
M  END
>  <NAME>  (429) 
SILACYCLOHEXANE (2,2,6,6-D4)

>  <SYNONYMS>  (429) 


>  <SPECTRUM TYPE>  (429) 
MS1

>  <INSTRUMENT TYPE>  (429) 
EI-B

>  <INSTRUMENT>  (429) 
HITACHI RMU-6M

>  <ION MODE>  (429) 
P

>  <INCHIKEY>  (429) 
VMNDCBPWBMKDBI-CQOLUAMGSA-N

>  <FORMULA>  (429) 
C5H12Si

>  <EXACT MASS>  (429) 
104.095933898

>  <MW>  (429) 
104

>  <ID>  (429) 
JP011598

>  <CONTRIBUTOR>  (429) 
University of Tokyo Team, {Faculty of Engineering, University of Tokyo

>  <COMMENT>  (429) 
SMILES=[2H]C([2H])(C1)[SiH2]C([2H])([2H])CC1
InChI=InChI=1S/C5H12Si/c1-2-4-6-5-3-1/h1-6H2/i4D2,5D2
computed SMILES=[H]C1([H])CCCC([H])([H])[SiH2]1
accession=JP011598
date=2016.01.19 (Created 2008.10.21, modified 2011.05.06)
author=YAMAMOTO M, DEP. CHEMISTRY, FAC. SCIENCE, NARA WOMEN'S UNIV.
license=CC BY-NC-SA
exact mass=100.07083
ionization energy=70 eV
ion type=[M]+*
computed spectral entropy=3.2591275425021364
computed normalized entropy=0.8248358680522562
SPLASH=splash10-0fk9-9200000000-7079a1b25f4913509e04
submitter=submitter = University of Tokyo Team (Faculty of Engineering, University of Tokyo)
MoNA Rating=3.75

>  <NUM PEAKS>  (429) 
52

>  <MASS SPECTRAL PEAKS>  (429) 
27 2.9
28 7.6
29 6.2
30 5.1
31 3.8
32 5.2
33 1.7
39 2.5
40 4.8
41 3.7
42 3.5
43 12.1
44 28.5
45 25.9
46 21.2
47 9.3
48 2.8
53 2.8
54 2.8
55 3.4
56 5.3
57 6.5
58 4.8
59 7.5
60 13.1
61 10.3
62 4
63 1.9
66 1.2
67 1.9
68 1.2
69 2.6
70 2.1
71 4.1
72 11.5
73 25.1
74 99.99
75 23
76 25
77 3.2
78 1.3
85 2.3
86 1.5
87 3
88 1
89 2
101 6.2
102 9.2
103 15.6
104 54
105 6.6
106 2.1

$$$$

     RDKit          2D

 10 10  0  0  0  0  0  0  0  0999 V2000
    1.4772    1.2395    0.0000 C   0  0  0  0  0  0  0  0  0  0  0  0
    0.5130    2.9095    0.0000 C   0  0  0  0  0  0  0  0  0  0  0  0
   -4.0753    0.2605    0.0000 C   0  0  0  0  0  0  0  0  0  0  0  0
   -3.1111   -1.4095    0.0000 C   0  0  0  0  0  0  0  0  0  0  0  0
   -0.0000   -0.0000    0.0000 C   0  0  0  0  0  0  0  0  0  0  0  0
   -1.2990    2.2500    0.0000 C   0  0  0  0  0  0  0  0  0  0  0  0
   -1.2990   -0.7500    0.0000 C   0  0  0  0  0  0  0  0  0  0  0  0
   -2.5981    1.5000    0.0000 C   0  0  0  0  0  0  0  0  0  0  0  0
   -0.0000    1.5000    0.0000 Si  0  0  0  0  0  4  0  0  0  0  0  0
   -2.5981    0.0000    0.0000 Si  0  0  0  0  0  4  0  0  0  0  0  0
  7  5  1  0
  8  6  1  0
  9  1  1  0
  9  2  1  0
  9  5  1  0
  9  6  1  0
 10  3  1  0
 10  4  1  0
 10  7  1  0
 10  8  1  0
M  END
>  <NAME>  (430) 
1,1,4,4-TETRAMETHYL-1,4-DISILACYCLOHEXANE

>  <SYNONYMS>  (430) 


>  <SPECTRUM TYPE>  (430) 
MS1

>  <INSTRUMENT TYPE>  (430) 
EI-B

>  <INSTRUMENT>  (430) 
HITACHI RMU-6M

>  <ION MODE>  (430) 
P

>  <INCHIKEY>  (430) 
PBSFHKRMPPPFIU-UHFFFAOYSA-N

>  <FORMULA>  (430) 
C8H20Si2

>  <EXACT MASS>  (430) 
172.1103537

>  <MW>  (430) 
172

>  <ID>  (430) 
JP011597

>  <CONTRIBUTOR>  (430) 
University of Tokyo Team, {Faculty of Engineering, University of Tokyo

>  <COMMENT>  (430) 
SMILES=C[Si](C)(C1)CC[Si](C)(C)C1
InChI=InChI=1S/C8H20Si2/c1-9(2)5-7-10(3,4)8-6-9/h5-8H2,1-4H3
computed SMILES=C[Si]1(C)CC[Si](C)(C)CC1
accession=JP011597
date=2016.01.19 (Created 2008.10.21, modified 2011.05.06)
author=YAMAMOTO M, DEP. CHEMISTRY, FAC. SCIENCE, NARA WOMEN'S UNIV.
license=CC BY-NC-SA
exact mass=172.11035
ionization energy=70 eV
ion type=[M]+*
computed spectral entropy=3.3603063392568426
computed normalized entropy=0.820718991328156
SPLASH=splash10-0ab9-7900000000-5276148bcf3214f15458
submitter=submitter = University of Tokyo Team (Faculty of Engineering, University of Tokyo)
MoNA Rating=3.75

>  <NUM PEAKS>  (430) 
60

>  <MASS SPECTRAL PEAKS>  (430) 
28 7.3
29 7.1
31 9.3
32 3
42 3
43 36.3
44 6.8
45 20.5
46 1.8
47 1.2
53 3
55 6.5
57 4.9
58 22.2
59 68.3
60 6.5
61 3.3
67 2.6
69 3.3
70 2.3
71 9.8
72 6.5
73 44.3
74 4.5
75 2.1
81 1.8
83 5.4
84 1.9
85 27.8
86 8
87 9.2
97 56.1
98 6.9
99 8.3
100 3
101 7.9
102 2
103 3.3
111 1.7
113 6.1
114 1.9
115 6.5
116 82.2
117 15.9
118 7.6
127 3.1
128 2.4
129 45.4
130 7.5
131 4.3
141 2.2
143 13.8
144 6.5
145 2.5
157 99.99
158 18.4
159 9.9
172 98.6
173 19.5
174 9.8

$$$$

     RDKit          2D

 10 10  0  0  0  0  0  0  0  0999 V2000
   -0.0682   -0.8923    0.0000 C   0  0  0  0  0  0  0  0  0  0  0  0
    0.8959    0.7777    0.0000 C   0  0  0  0  0  0  0  0  0  0  0  0
   -4.6566    0.7777    0.0000 C   0  0  0  0  0  0  0  0  0  0  0  0
   -3.6924   -0.8923    0.0000 C   0  0  0  0  0  0  0  0  0  0  0  0
   -1.8803    2.7673    0.0000 C   0  0  0  0  0  0  0  0  0  0  0  0
   -0.5813    2.0173    0.0000 C   0  0  0  0  0  0  0  0  0  0  0  0
   -3.1794    2.0173    0.0000 C   0  0  0  0  0  0  0  0  0  0  0  0
   -1.8803   -0.2327    0.0000 C   0  0  0  0  0  0  0  0  0  0  0  0
   -0.5813    0.5173    0.0000 Si  0  0  0  0  0  4  0  0  0  0  0  0
   -3.1794    0.5173    0.0000 Si  0  0  0  0  0  4  0  0  0  0  0  0
  6  5  1  0
  7  5  1  0
  9  1  1  0
  9  2  1  0
  9  6  1  0
  9  8  1  0
 10  3  1  0
 10  4  1  0
 10  7  1  0
 10  8  1  0
M  END
>  <NAME>  (431) 
1,1,3,3-TETRAMETHYL-1,3-DISILACYCLOHEXANE

>  <SYNONYMS>  (431) 


>  <SPECTRUM TYPE>  (431) 
MS1

>  <INSTRUMENT TYPE>  (431) 
EI-B

>  <INSTRUMENT>  (431) 
HITACHI RMU-6M

>  <ION MODE>  (431) 
P

>  <INCHIKEY>  (431) 
CPOLUICVVAWBCV-UHFFFAOYSA-N

>  <FORMULA>  (431) 
C8H20Si2

>  <EXACT MASS>  (431) 
172.1103537

>  <MW>  (431) 
172

>  <ID>  (431) 
JP011596

>  <CONTRIBUTOR>  (431) 
University of Tokyo Team, {Faculty of Engineering, University of Tokyo

>  <COMMENT>  (431) 
SMILES=C[Si](C)(C1)C[Si](C)(C)CC1
InChI=InChI=1S/C8H20Si2/c1-9(2)6-5-7-10(3,4)8-9/h5-8H2,1-4H3
computed SMILES=C[Si]1(C)CCC[Si](C)(C)C1
accession=JP011596
date=2016.01.19 (Created 2008.10.21, modified 2011.05.06)
author=YAMAMOTO M, DEP. CHEMISTRY, FAC. SCIENCE, NARA WOMEN'S UNIV.
license=CC BY-NC-SA
exact mass=172.11035
ionization energy=70 eV
ion type=[M]+*
computed spectral entropy=3.0494667137442013
computed normalized entropy=0.8211680449359149
SPLASH=splash10-0a4i-4900000000-1828b7699b6b62749ee3
submitter=submitter = University of Tokyo Team (Faculty of Engineering, University of Tokyo)
MoNA Rating=3.75

>  <NUM PEAKS>  (431) 
41

>  <MASS SPECTRAL PEAKS>  (431) 
28 4.5
29 2.8
31 3.3
43 15.2
44 4.2
45 11.6
51 3.2
53 2
55 3.1
57 6
58 3.8
59 23.7
64 5.9
65 8.1
69 2.7
71 4.9
72 2.7
73 21
74 2.1
83 3.1
85 4.6
97 4.1
99 5.6
101 3.5
113 5.3
115 9.9
117 6.6
129 53.9
130 11.9
131 27.6
132 4.7
133 2.2
141 3.4
144 2.5
155 2.9
157 99.99
158 18.9
159 8.2
172 27.7
173 6.2
174 3.3

$$$$

     RDKit          2D

 10 10  0  0  0  0  0  0  0  0999 V2000
   -3.1111    2.9095    0.0000 C   0  0  0  0  0  0  0  0  0  0  0  0
   -4.0753    1.2395    0.0000 C   0  0  0  0  0  0  0  0  0  0  0  0
   -4.0753    0.2605    0.0000 C   0  0  0  0  0  0  0  0  0  0  0  0
   -3.1111   -1.4095    0.0000 C   0  0  0  0  0  0  0  0  0  0  0  0
    0.0000    1.5000    0.0000 C   0  0  0  0  0  0  0  0  0  0  0  0
    0.0000   -0.0000    0.0000 C   0  0  0  0  0  0  0  0  0  0  0  0
   -1.2990    2.2500    0.0000 C   0  0  0  0  0  0  0  0  0  0  0  0
   -1.2990   -0.7500    0.0000 C   0  0  0  0  0  0  0  0  0  0  0  0
   -2.5981    1.5000    0.0000 Si  0  0  0  0  0  4  0  0  0  0  0  0
   -2.5981    0.0000    0.0000 Si  0  0  0  0  0  4  0  0  0  0  0  0
  6  5  1  0
  7  5  1  0
  8  6  1  0
  9  1  1  0
  9  2  1  0
  9  7  1  0
 10  3  1  0
 10  4  1  0
 10  8  1  0
 10  9  1  0
M  END
>  <NAME>  (432) 
1,1,2,2-TETRAMETHYL-1,2-DISILACYCLOHEXANE

>  <SYNONYMS>  (432) 


>  <SPECTRUM TYPE>  (432) 
MS1

>  <INSTRUMENT TYPE>  (432) 
EI-B

>  <INSTRUMENT>  (432) 
HITACHI RMU-6M

>  <ION MODE>  (432) 
P

>  <INCHIKEY>  (432) 
KJMGETFPTJFIJX-UHFFFAOYSA-N

>  <FORMULA>  (432) 
C8H20Si2

>  <EXACT MASS>  (432) 
172.1103537

>  <MW>  (432) 
172

>  <ID>  (432) 
JP011595

>  <CONTRIBUTOR>  (432) 
University of Tokyo Team, {Faculty of Engineering, University of Tokyo

>  <COMMENT>  (432) 
SMILES=C(C1)C[Si](C)(C)[Si](C)(C)C1
InChI=InChI=1S/C8H20Si2/c1-9(2)7-5-6-8-10(9,3)4/h5-8H2,1-4H3
computed SMILES=C[Si]1(C)CCCC[Si]1(C)C
accession=JP011595
date=2016.01.19 (Created 2008.10.21, modified 2011.05.06)
author=YAMAMOTO M, DEP. CHEMISTRY, FAC. SCIENCE, NARA WOMEN'S UNIV.
license=CC BY-NC-SA
exact mass=172.11035
ionization energy=70 eV
ion type=[M]+*
computed spectral entropy=3.4315905943791445
computed normalized entropy=0.8381294105146677
SPLASH=splash10-05fs-9500000000-909f8f6ec3c9f1bedbd6
submitter=submitter = University of Tokyo Team (Faculty of Engineering, University of Tokyo)
MoNA Rating=3.75

>  <NUM PEAKS>  (432) 
60

>  <MASS SPECTRAL PEAKS>  (432) 
27 2.2
28 4.9
29 8.1
31 12.2
32 2.3
42 3
43 48.8
44 9.9
45 28
46 2.3
47 1.8
53 3.2
55 6.7
57 4.7
58 28.2
59 90.2
60 7.7
61 3.4
69 6.7
70 2.9
71 16.7
72 10.7
73 99.99
74 9.3
75 4.7
81 2.2
83 8.4
84 2.9
85 37.6
86 14.5
87 4.5
95 3.8
97 93.1
98 20.3
99 36.9
100 5.3
101 8.2
103 9.6
111 2.1
112 2.3
113 12.7
114 2.1
115 8.6
116 39.1
117 17
118 4.9
127 2.3
129 28.9
130 6.4
131 6.3
141 1.6
144 24.7
145 5.2
155 2.3
157 58.7
158 12.1
159 6
172 94
173 19.9
174 8.6

$$$$

     RDKit          2D

 10 10  0  0  0  0  0  0  0  0999 V2000
   -2.8562   -0.8990    0.0000 C   0  0  0  0  0  0  0  0  0  0  0  0
   -3.5980    2.9839    0.0000 C   0  0  0  0  0  0  0  0  0  0  0  0
   -4.0153    1.0203    0.0000 C   0  0  0  0  0  0  0  0  0  0  0  0
   -0.6144   -0.9432    0.0000 C   0  0  0  0  0  0  0  0  0  0  0  0
    0.8774    0.4000    0.0000 C   0  0  0  0  0  0  0  0  0  0  0  0
   -1.6016    2.7740    0.0000 C   0  0  0  0  0  0  0  0  0  0  0  0
   -0.3025    2.0240    0.0000 C   0  0  0  0  0  0  0  0  0  0  0  0
   -2.1062    0.4000    0.0000 C   0  0  0  0  0  0  0  0  0  0  0  0
   -2.7163    1.7703    0.0000 Si  0  0  0  0  0  4  0  0  0  0  0  0
   -0.6144    0.5568    0.0000 Si  0  0  0  0  0  4  0  0  0  0  0  0
  7  6  1  0
  8  1  1  0
  9  2  1  0
  9  3  1  0
  9  6  1  0
  9  8  1  0
 10  4  1  0
 10  5  1  0
 10  7  1  0
 10  8  1  0
M  END
>  <NAME>  (433) 
1,1,2,3,3-PENTAMETHYL-1,3-DISILACYCLOPENTANE

>  <SYNONYMS>  (433) 


>  <SPECTRUM TYPE>  (433) 
MS1

>  <INSTRUMENT TYPE>  (433) 
EI-B

>  <INSTRUMENT>  (433) 
HITACHI RMU-6M

>  <ION MODE>  (433) 
P

>  <INCHIKEY>  (433) 
BRAPPWUWCAUKTQ-UHFFFAOYSA-N

>  <FORMULA>  (433) 
C8H20Si2

>  <EXACT MASS>  (433) 
172.1103537

>  <MW>  (433) 
172

>  <ID>  (433) 
JP011594

>  <CONTRIBUTOR>  (433) 
University of Tokyo Team, {Faculty of Engineering, University of Tokyo

>  <COMMENT>  (433) 
SMILES=CC([Si](C)(C)1)[Si](C)(C)CC1
InChI=InChI=1S/C8H20Si2/c1-8-9(2,3)6-7-10(8,4)5/h8H,6-7H2,1-5H3
computed SMILES=CC1[Si](C)(C)CC[Si]1(C)C
accession=JP011594
date=2016.01.19 (Created 2008.10.21, modified 2011.05.06)
author=YAMAMOTO M, DEP. CHEMISTRY, FAC. SCIENCE, NARA WOMEN'S UNIV.
license=CC BY-NC-SA
exact mass=172.11035
ionization energy=70 eV
ion type=[M]+*
computed spectral entropy=3.365770695253885
computed normalized entropy=0.8155224379050869
SPLASH=splash10-0adi-7900000000-4bed822106fe7443460c
submitter=submitter = University of Tokyo Team (Faculty of Engineering, University of Tokyo)
MoNA Rating=3.75

>  <NUM PEAKS>  (433) 
62

>  <MASS SPECTRAL PEAKS>  (433) 
28 2.7
29 4.8
31 9.3
42 2.6
43 32.3
44 5.3
45 21.1
46 1.8
53 3.2
55 6.9
56 1.4
57 4.6
58 18.9
59 62.1
60 6
61 2.9
67 2.6
69 4.4
70 1.8
71 10
72 3.6
73 37.8
74 3.2
75 1.7
81 2
83 6
84 1.6
85 22
86 6.1
87 3.5
95 1.8
97 47.3
98 5.8
99 7
100 1.7
101 4.6
102 2.2
103 2.9
111 1.7
113 6.3
114 1.7
115 10.4
116 16.2
117 6.4
118 2.1
127 3.1
129 99.99
130 17.3
131 9.8
132 1.6
141 2.6
143 4.8
144 27.3
145 5.5
146 2.3
155 2.5
157 85.3
158 16.7
159 8.2
172 70.9
173 15.1
174 6.9

$$$$

     RDKit          2D

 12 12  0  0  0  0  0  0  0  0999 V2000
   -1.5598    0.9945    0.0000 C   0  0  0  0  0  0  0  0  0  0  0  0
   -0.2608    1.7445    0.0000 H   0  0  0  0  0  0  0  0  0  0  0  0
   -2.3098    2.2936    0.0000 H   0  0  0  0  0  0  0  0  0  0  0  0
   -2.9693    0.4815    0.0000 H   0  0  0  0  0  0  0  0  0  0  0  0
   -2.9402   -1.5345    0.0000 C   0  0  0  0  0  0  0  0  0  0  0  0
   -3.6902   -0.2355    0.0000 H   0  0  0  0  0  0  0  0  0  0  0  0
   -4.2392   -2.2845    0.0000 H   0  0  0  0  0  0  0  0  0  0  0  0
   -2.1902   -2.8336    0.0000 H   0  0  0  0  0  0  0  0  0  0  0  0
    1.2392   -0.8536    0.0000 C   0  0  0  0  0  0  0  0  0  0  0  0
   -0.0598   -1.6036    0.0000 C   0  0  0  0  0  0  0  0  0  0  0  0
    0.4892    0.4455    0.0000 C   0  0  0  0  0  0  0  0  0  0  0  0
   -0.8098   -0.3045    0.0000 Si  0  0  0  0  0  4  0  0  0  0  0  0
  1  2  1  0
  1  3  1  0
  1  4  1  0
  5  6  1  0
  5  7  1  0
  5  8  1  0
 10  9  1  0
 11  9  1  0
 12  1  1  0
 12  5  1  0
 12 10  1  0
 12 11  1  0
M  ISO  6   2   2   3   2   4   2   6   2   7   2   8   2
M  END
>  <NAME>  (434) 
1,1-DIMETHYLSILACYCLOBUTANE (D6-DIMETHYL)

>  <SYNONYMS>  (434) 


>  <SPECTRUM TYPE>  (434) 
MS1

>  <INSTRUMENT TYPE>  (434) 
EI-B

>  <INSTRUMENT>  (434) 
HITACHI RMU-6M

>  <ION MODE>  (434) 
P

>  <INCHIKEY>  (434) 
YQQFFTNDQFUNHB-WFGJKAKNSA-N

>  <FORMULA>  (434) 
C5H12Si

>  <EXACT MASS>  (434) 
106.10848739

>  <MW>  (434) 
106

>  <ID>  (434) 
JP011593

>  <CONTRIBUTOR>  (434) 
University of Tokyo Team, {Faculty of Engineering, University of Tokyo

>  <COMMENT>  (434) 
SMILES=[2H]C([2H])([2H])[Si](C1)(CC1)C([2H])([2H])[2H]
InChI=InChI=1S/C5H12Si/c1-6(2)4-3-5-6/h3-5H2,1-2H3/i1D3,2D3
computed SMILES=[H]C([H])([H])[Si]1(CCC1)C([H])([H])[H]
accession=JP011593
date=2016.01.19 (Created 2008.10.21, modified 2011.05.06)
author=YAMAMOTO M, DEP. CHEMISTRY, FAC. SCIENCE, NARA WOMEN'S UNIV.
license=CC BY-NC-SA
exact mass=100.07083
ionization energy=70 eV
ion type=[M]+*
computed spectral entropy=2.7002654934127213
computed normalized entropy=0.7179265687422203
SPLASH=splash10-004j-9000000000-ed3f9616fdaed264b885
submitter=submitter = University of Tokyo Team (Faculty of Engineering, University of Tokyo)
MoNA Rating=3.75

>  <NUM PEAKS>  (434) 
43

>  <MASS SPECTRAL PEAKS>  (434) 
27 1.1
28 3
29 3
30 6.1
32 1
33 1.8
34 1.6
39 1.4
42 1.6
43 2.6
44 3.5
45 3
46 23.2
47 15.9
48 17.9
49 2.8
50 1.1
53 1.5
54 1.4
56 1.1
57 1.6
58 1.7
60 2.8
61 1.3
62 2.2
63 1
64 3
65 13.4
66 1.2
67 1.1
74 1.7
75 2.4
76 3.2
77 4.8
78 99.99
79 9.5
80 4.1
88 4.3
91 1.3
105 1
106 21.5
107 2.2
108 0.9

$$$$

     RDKit          2D

  6  6  0  0  0  0  0  0  0  0999 V2000
   -2.2500    1.2990    0.0000 C   0  0  0  0  0  0  0  0  0  0  0  0
   -2.7990   -0.7500    0.0000 C   0  0  0  0  0  0  0  0  0  0  0  0
    0.5490   -0.5490    0.0000 C   0  0  0  0  0  0  0  0  0  0  0  0
   -0.7500   -1.2990    0.0000 C   0  0  0  0  0  0  0  0  0  0  0  0
   -0.2010    0.7500    0.0000 C   0  0  0  0  0  0  0  0  0  0  0  0
   -1.5000    0.0000    0.0000 Si  0  0  0  0  0  4  0  0  0  0  0  0
  4  3  1  0
  5  3  1  0
  6  1  1  0
  6  2  1  0
  6  4  1  0
  6  5  1  0
M  END
>  <NAME>  (435) 
1,1-DIMETHYLSILACYCLOBUTANE

>  <SYNONYMS>  (435) 


>  <SPECTRUM TYPE>  (435) 
MS1

>  <INSTRUMENT TYPE>  (435) 
EI-B

>  <INSTRUMENT>  (435) 
HITACHI RMU-6M

>  <ION MODE>  (435) 
P

>  <INCHIKEY>  (435) 
YQQFFTNDQFUNHB-UHFFFAOYSA-N

>  <FORMULA>  (435) 
C5H12Si

>  <EXACT MASS>  (435) 
100.070826914

>  <MW>  (435) 
100

>  <ID>  (435) 
JP011592

>  <CONTRIBUTOR>  (435) 
University of Tokyo Team, {Faculty of Engineering, University of Tokyo

>  <COMMENT>  (435) 
SMILES=C[Si](C)(C1)CC1
InChI=InChI=1S/C5H12Si/c1-6(2)4-3-5-6/h3-5H2,1-2H3
computed SMILES=C[Si]1(C)CCC1
accession=JP011592
date=2016.01.19 (Created 2008.10.21, modified 2011.05.06)
author=YAMAMOTO M, DEP. CHEMISTRY, FAC. SCIENCE, NARA WOMEN'S UNIV.
license=CC BY-NC-SA
exact mass=100.07083
ionization energy=70 eV
ion type=[M]+*
computed spectral entropy=2.587350982561621
computed normalized entropy=0.7607176803415009
SPLASH=splash10-00dl-9000000000-055bb7f02533379623d8
submitter=submitter = University of Tokyo Team (Faculty of Engineering, University of Tokyo)
MoNA Rating=3.75

>  <NUM PEAKS>  (435) 
30

>  <MASS SPECTRAL PEAKS>  (435) 
27 2.7
28 3.8
29 9.5
31 5.1
39 2.8
41 1.2
42 6.6
43 29.8
44 33.9
45 7
46 1.7
53 4.2
54 1.6
55 5.1
56 2.1
57 5.5
58 4.4
59 16.2
60 1.6
66 1.5
67 2
70 5.5
71 6.6
72 99.99
73 9.7
74 4.4
85 7.6
100 18
101 2.1
102 1.1

$$$$

     RDKit          2D

  6  6  0  0  0  0  0  0  0  0999 V2000
   -2.7990   -0.7500    0.0000 C   0  0  0  0  0  0  0  0  0  0  0  0
    0.5490   -0.5490    0.0000 C   0  0  0  0  0  0  0  0  0  0  0  0
   -0.7500   -1.2990    0.0000 C   0  0  0  0  0  0  0  0  0  0  0  0
   -0.2010    0.7500    0.0000 C   0  0  0  0  0  0  0  0  0  0  0  0
   -1.5000    0.0000    0.0000 Si  0  0  0  0  0  4  0  0  0  0  0  0
   -2.2500    1.2990    0.0000 H   0  0  0  0  0  0  0  0  0  0  0  0
  5  6  1  0
  3  2  1  0
  4  2  1  0
  5  1  1  0
  5  3  1  0
  5  4  1  0
M  ISO  1   6   2
M  END
>  <NAME>  (436) 
1-METHYL-SILACYCLOBUTANE (1-D)

>  <SYNONYMS>  (436) 


>  <SPECTRUM TYPE>  (436) 
MS1

>  <INSTRUMENT TYPE>  (436) 
EI-B

>  <INSTRUMENT>  (436) 
HITACHI RMU-6M

>  <ION MODE>  (436) 
P

>  <INCHIKEY>  (436) 
CQFRXHDORNUERA-UICOGKGYSA-N

>  <FORMULA>  (436) 
C4H10Si

>  <EXACT MASS>  (436) 
87.06145359599999

>  <MW>  (436) 
87

>  <ID>  (436) 
JP011591

>  <CONTRIBUTOR>  (436) 
University of Tokyo Team, {Faculty of Engineering, University of Tokyo

>  <COMMENT>  (436) 
SMILES=[2H][Si](C)(C1)CC1
InChI=InChI=1S/C4H10Si/c1-5-3-2-4-5/h5H,2-4H2,1H3/i5D
computed SMILES=[H][Si]1(C)CCC1
accession=JP011591
date=2016.01.19 (Created 2008.10.21, modified 2011.05.06)
author=YAMAMOTO M, DEP. CHEMISTRY, FAC. SCIENCE, NARA WOMEN'S UNIV.
license=CC BY-NC-SA
exact mass=86.05518
ionization energy=70 eV
ion type=[M]+*
computed spectral entropy=2.6222314435781167
computed normalized entropy=0.7317476169688821
SPLASH=splash10-0a4l-9000000000-0bc90a3f4f3966f2dc19
submitter=submitter = University of Tokyo Team (Faculty of Engineering, University of Tokyo)
MoNA Rating=3.75

>  <NUM PEAKS>  (436) 
36

>  <MASS SPECTRAL PEAKS>  (436) 
26 1.3
27 3.7
28 6
29 6.4
30 2.5
31 2.4
32 1.4
39 3.7
40 1.2
41 2.3
42 7.1
43 46.4
44 35.5
45 8.2
46 10.8
47 1.7
53 3.9
54 1.5
55 3
56 2.3
57 2
58 31.5
59 99.99
60 10.9
61 4.1
66 1.7
67 2.1
68 1
70 1.8
71 2.1
72 4.8
80 1.5
86 1.8
87 29.5
88 2.8
89 1.2

$$$$

     RDKit          2D

  5  5  0  0  0  0  0  0  0  0999 V2000
    0.4686   -0.2490    0.0000 C   0  0  0  0  0  0  0  0  0  0  0  0
   -3.0293    0.6883    0.0000 C   0  0  0  0  0  0  0  0  0  0  0  0
   -1.7303    1.4383    0.0000 C   0  0  0  0  0  0  0  0  0  0  0  0
   -2.2793   -0.6107    0.0000 C   0  0  0  0  0  0  0  0  0  0  0  0
   -0.9803    0.1393    0.0000 Si  0  0  0  0  0  4  0  0  0  0  0  0
  3  2  1  0
  4  2  1  0
  5  1  1  0
  5  3  1  0
  5  4  1  0
M  END
>  <NAME>  (437) 
1-METHYLSILACYCLOBUTANE

>  <SYNONYMS>  (437) 


>  <SPECTRUM TYPE>  (437) 
MS1

>  <INSTRUMENT TYPE>  (437) 
EI-B

>  <INSTRUMENT>  (437) 
HITACHI RMU-6M

>  <ION MODE>  (437) 
P

>  <INCHIKEY>  (437) 
CQFRXHDORNUERA-UHFFFAOYSA-N

>  <FORMULA>  (437) 
C4H10Si

>  <EXACT MASS>  (437) 
86.05517685

>  <MW>  (437) 
86

>  <ID>  (437) 
JP011590

>  <CONTRIBUTOR>  (437) 
University of Tokyo Team, {Faculty of Engineering, University of Tokyo

>  <COMMENT>  (437) 
SMILES=C[SiH](C1)CC1
InChI=InChI=1S/C4H10Si/c1-5-3-2-4-5/h5H,2-4H2,1H3
computed SMILES=C[SiH]1CCC1
accession=JP011590
date=2016.01.19 (Created 2008.10.21, modified 2011.05.06)
author=YAMAMOTO M, DEP. CHEMISTRY, FAC. SCIENCE, NARA WOMEN'S UNIV.
license=CC BY-NC-SA
exact mass=86.05518
ionization energy=70 eV
ion type=[M]+*
computed spectral entropy=2.358667915314721
computed normalized entropy=0.6934816332717646
SPLASH=splash10-0a4l-9000000000-b7c5eee69262772032a4
submitter=submitter = University of Tokyo Team (Faculty of Engineering, University of Tokyo)
MoNA Rating=3.75

>  <NUM PEAKS>  (437) 
30

>  <MASS SPECTRAL PEAKS>  (437) 
27 3
28 5
29 7.7
30 1
31 2.6
39 3.9
41 1.7
42 10.1
43 60
44 6.8
45 12.2
46 1
53 4.5
54 1
55 4.4
56 1.1
57 2.3
58 99.99
59 12.4
60 4.1
65 1
66 2
67 1.9
69 1.2
70 2.2
71 5.6
85 2.3
86 30.3
87 3.2
88 1.1

$$$$

     RDKit          2D

  6  6  0  0  0  0  0  0  0  0999 V2000
    0.5490   -0.5490    0.0000 C   0  0  0  0  0  0  0  0  0  0  0  0
   -0.7500   -1.2990    0.0000 C   0  0  0  0  0  0  0  0  0  0  0  0
   -0.2010    0.7500    0.0000 C   0  0  0  0  0  0  0  0  0  0  0  0
   -1.5000    0.0000    0.0000 Si  0  0  0  0  0  4  0  0  0  0  0  0
   -2.2500    1.2990    0.0000 H   0  0  0  0  0  0  0  0  0  0  0  0
   -2.7990   -0.7500    0.0000 H   0  0  0  0  0  0  0  0  0  0  0  0
  4  5  1  0
  4  6  1  0
  2  1  1  0
  3  1  1  0
  4  2  1  0
  4  3  1  0
M  ISO  2   5   2   6   2
M  END
>  <NAME>  (438) 
SILACYCLOBUTANE (1,1-D2)

>  <SYNONYMS>  (438) 


>  <SPECTRUM TYPE>  (438) 
MS1

>  <INSTRUMENT TYPE>  (438) 
EI-B

>  <INSTRUMENT>  (438) 
HITACHI RMU-6M

>  <ION MODE>  (438) 
P

>  <INCHIKEY>  (438) 
QZYLHXTXFGOILC-APZFVMQVSA-N

>  <FORMULA>  (438) 
C3H8Si

>  <EXACT MASS>  (438) 
74.05208027799999

>  <MW>  (438) 
74

>  <ID>  (438) 
JP011589

>  <CONTRIBUTOR>  (438) 
University of Tokyo Team, {Faculty of Engineering, University of Tokyo

>  <COMMENT>  (438) 
SMILES=[2H][Si]([2H])(C1)CC1
InChI=InChI=1S/C3H8Si/c1-2-4-3-1/h1-4H2/i4D2
computed SMILES=[H][Si]1([H])CCC1
accession=JP011589
date=2016.01.19 (Created 2008.10.21, modified 2011.05.06)
author=YAMAMOTO M, DEP. CHEMISTRY, FAC. SCIENCE, NARA WOMEN'S UNIV.
license=CC BY-NC-SA
exact mass=72.03953
ionization energy=70 eV
ion type=[M]+*
computed spectral entropy=2.9602726711526373
computed normalized entropy=0.7971496494424564
SPLASH=splash10-006w-9000000000-d843b0c415044c7310f7
submitter=submitter = University of Tokyo Team (Faculty of Engineering, University of Tokyo)
MoNA Rating=3.75

>  <NUM PEAKS>  (438) 
41

>  <MASS SPECTRAL PEAKS>  (438) 
26 3.1
27 7.4
28 49
29 9.9
30 10.6
31 3
32 5.6
33 4.2
37 1.9
38 2.3
39 9.5
40 3.5
41 4.5
42 14
43 24.7
44 63.7
45 86.8
46 99.99
47 13.3
48 4.3
52 1.1
53 6
54 3.2
55 6
56 6.5
57 5.1
58 9.8
59 7.4
60 1.5
65 3.9
66 6
67 6.2
68 3.2
69 2.3
70 11
71 10.8
72 22.1
73 20.5
74 98
75 9.7
76 4.1

$$$$

     RDKit          2D

  4  4  0  0  0  0  0  0  0  0999 V2000
   -0.4755   -0.2745    0.0000 C   0  0  0  0  0  0  0  0  0  0  0  0
   -1.7745    0.4755    0.0000 C   0  0  0  0  0  0  0  0  0  0  0  0
    0.2745    1.0245    0.0000 C   0  0  0  0  0  0  0  0  0  0  0  0
   -1.0245    1.7745    0.0000 Si  0  0  0  0  0  4  0  0  0  0  0  0
  2  1  1  0
  3  1  1  0
  4  2  1  0
  4  3  1  0
M  END
>  <NAME>  (439) 
SILACYCLOBUTANE

>  <SYNONYMS>  (439) 


>  <SPECTRUM TYPE>  (439) 
MS1

>  <INSTRUMENT TYPE>  (439) 
EI-B

>  <INSTRUMENT>  (439) 
HITACHI RMU-6M

>  <ION MODE>  (439) 
P

>  <INCHIKEY>  (439) 
QZYLHXTXFGOILC-UHFFFAOYSA-N

>  <FORMULA>  (439) 
C3H8Si

>  <EXACT MASS>  (439) 
72.039526786

>  <MW>  (439) 
72

>  <ID>  (439) 
JP011588

>  <CONTRIBUTOR>  (439) 
University of Tokyo Team, {Faculty of Engineering, University of Tokyo

>  <COMMENT>  (439) 
SMILES=C(C1)C[SiH2]1
InChI=InChI=1S/C3H8Si/c1-2-4-3-1/h1-4H2
computed SMILES=C1C[SiH2]C1
accession=JP011588
date=2016.01.19 (Created 2008.10.21, modified 2011.05.06)
author=YAMAMOTO M, DEP. CHEMISTRY, FAC. SCIENCE, NARA WOMEN'S UNIV.
license=CC BY-NC-SA
exact mass=72.03953
ionization energy=70 eV
ion type=[M]+*
computed spectral entropy=2.651517152355673
computed normalized entropy=0.7650661293071112
SPLASH=splash10-006x-9000000000-fbdfa4d9f40a1f1c54c8
submitter=submitter = University of Tokyo Team (Faculty of Engineering, University of Tokyo)
MoNA Rating=3.75

>  <NUM PEAKS>  (439) 
32

>  <MASS SPECTRAL PEAKS>  (439) 
26 1.7
27 4.3
28 26
29 10.1
30 1.9
31 3.5
32 1.3
38 1.1
39 6.1
40 1.1
41 3.4
42 15.1
43 38.5
44 99.99
45 14.6
46 4.5
53 5.2
54 1.4
55 7.3
56 3.1
57 7.7
58 1.2
65 3.1
66 5
67 4
68 1.1
69 2.1
70 21.1
71 18.9
72 55.9
73 5.9
74 2.4

$$$$

     RDKit          2D

 11 11  0  0  0  0  0  0  0  0999 V2000
   -1.6980    2.7340    0.0000 C   0  0  0  0  0  0  0  0  0  0  0  0
   -3.4365    1.7303    0.0000 C   0  0  0  0  0  0  0  0  0  0  0  0
   -0.2062   -0.3572    0.0000 C   0  0  0  0  0  0  0  0  0  0  0  0
   -1.5053   -1.1072    0.0000 C   0  0  0  0  0  0  0  0  0  0  0  0
   -0.5181    1.1100    0.0000 C   0  0  0  0  0  0  0  0  0  0  0  0
    0.9737    1.2668    0.0000 H   0  0  0  0  0  0  0  0  0  0  0  0
   -0.5181    2.6100    0.0000 H   0  0  0  0  0  0  0  0  0  0  0  0
   -2.6200   -0.1035    0.0000 C   0  0  0  0  0  0  0  0  0  0  0  0
   -3.9190    0.6465    0.0000 H   0  0  0  0  0  0  0  0  0  0  0  0
   -3.5017   -1.3170    0.0000 H   0  0  0  0  0  0  0  0  0  0  0  0
   -2.0099    1.2668    0.0000 Si  0  0  0  0  0  4  0  0  0  0  0  0
  5  6  1  0
  5  7  1  0
  8  9  1  0
  8 10  1  0
  4  3  1  0
  5  3  1  0
  8  4  1  0
 11  1  1  0
 11  2  1  0
 11  5  1  0
 11  8  1  0
M  ISO  4   6   2   7   2   9   2  10   2
M  END
>  <NAME>  (440) 
1,1-DIMETHYL-SILACYCLOPENTANE (2,2,5,5-D4)

>  <SYNONYMS>  (440) 


>  <SPECTRUM TYPE>  (440) 
MS1

>  <INSTRUMENT TYPE>  (440) 
EI-B

>  <INSTRUMENT>  (440) 
HITACHI RMU-6M

>  <ION MODE>  (440) 
P

>  <INCHIKEY>  (440) 
KDQBKCRYCZJUAE-NZLXMSDQSA-N

>  <FORMULA>  (440) 
C6H14Si

>  <EXACT MASS>  (440) 
118.111583962

>  <MW>  (440) 
118

>  <ID>  (440) 
JP011587

>  <CONTRIBUTOR>  (440) 
University of Tokyo Team, {Faculty of Engineering, University of Tokyo

>  <COMMENT>  (440) 
SMILES=[2H]C([2H])(C1)[Si](C)(C)C([2H])([2H])C1
InChI=InChI=1S/C6H14Si/c1-7(2)5-3-4-6-7/h3-6H2,1-2H3/i5D2,6D2
computed SMILES=[H]C1([H])CCC([H])([H])[Si]1(C)C
accession=JP011587
date=2016.01.19 (Created 2008.10.21, modified 2011.05.06)
author=YAMAMOTO M, DEP. CHEMISTRY, FAC. SCIENCE, NARA WOMEN'S UNIV.
license=CC BY-NC-SA
exact mass=114.08648
ionization energy=70 eV
ion type=[M]+*
computed spectral entropy=3.0239912713395825
computed normalized entropy=0.7898340320178888
SPLASH=splash10-052r-9200000000-da26ca98e87e36f16e9f
submitter=submitter = University of Tokyo Team (Faculty of Engineering, University of Tokyo)
MoNA Rating=3.75

>  <NUM PEAKS>  (440) 
46

>  <MASS SPECTRAL PEAKS>  (440) 
27 1.8
28 3.3
29 8.1
30 2.4
31 4.5
32 2.2
33 1.6
40 2.2
41 1.7
42 5
43 28.2
44 7.6
45 7.8
46 6.1
47 2.6
53 2.7
54 1.9
55 3.1
56 3.4
57 4
58 58
59 17.5
60 9.6
61 6.9
62 3.2
71 2
72 7.1
73 17.3
74 11.8
75 3.5
76 1.5
86 2.3
87 3.6
88 99.99
89 10.8
90 4.6
99 1.7
100 4.4
101 4.2
102 2
103 46.8
104 5.8
105 2.2
118 23.1
119 3.1
120 1.1

$$$$

     RDKit          2D

  7  7  0  0  0  0  0  0  0  0999 V2000
   -3.4230    1.7537    0.0000 C   0  0  0  0  0  0  0  0  0  0  0  0
   -3.4230   -0.2537    0.0000 C   0  0  0  0  0  0  0  0  0  0  0  0
    0.0000    1.5000    0.0000 C   0  0  0  0  0  0  0  0  0  0  0  0
   -0.0000   -0.0000    0.0000 C   0  0  0  0  0  0  0  0  0  0  0  0
   -1.4266    1.9635    0.0000 C   0  0  0  0  0  0  0  0  0  0  0  0
   -1.4266   -0.4635    0.0000 C   0  0  0  0  0  0  0  0  0  0  0  0
   -2.3083    0.7500    0.0000 Si  0  0  0  0  0  4  0  0  0  0  0  0
  4  3  1  0
  5  3  1  0
  6  4  1  0
  7  1  1  0
  7  2  1  0
  7  5  1  0
  7  6  1  0
M  END
>  <NAME>  (441) 
1,1-DIMETHYLSILACYCLOPENTANE

>  <SYNONYMS>  (441) 


>  <SPECTRUM TYPE>  (441) 
MS1

>  <INSTRUMENT TYPE>  (441) 
EI-B

>  <INSTRUMENT>  (441) 
HITACHI RMU-6M

>  <ION MODE>  (441) 
P

>  <INCHIKEY>  (441) 
KDQBKCRYCZJUAE-UHFFFAOYSA-N

>  <FORMULA>  (441) 
C6H14Si

>  <EXACT MASS>  (441) 
114.086476978

>  <MW>  (441) 
114

>  <ID>  (441) 
JP011585

>  <CONTRIBUTOR>  (441) 
University of Tokyo Team, {Faculty of Engineering, University of Tokyo

>  <COMMENT>  (441) 
SMILES=C[Si](C)(C1)CCC1
InChI=InChI=1S/C6H14Si/c1-7(2)5-3-4-6-7/h3-6H2,1-2H3
computed SMILES=C[Si]1(C)CCCC1
accession=JP011585
date=2016.01.19 (Created 2008.10.21, modified 2011.05.06)
author=YAMAMOTO M, DEP. CHEMISTRY, FAC. SCIENCE, NARA WOMEN'S UNIV.
license=CC BY-NC-SA
exact mass=114.08648
ionization energy=70 eV
ion type=[M]+*
computed spectral entropy=2.816051183132517
computed normalized entropy=0.7686648827398666
SPLASH=splash10-052s-9000000000-73b021b0d93049e1c9e4
submitter=submitter = University of Tokyo Team (Faculty of Engineering, University of Tokyo)
MoNA Rating=3.75

>  <NUM PEAKS>  (441) 
39

>  <MASS SPECTRAL PEAKS>  (441) 
27 3.8
28 2.8
29 9.2
31 6.4
39 2.8
41 1.5
42 5.4
43 31.8
44 5
45 9.9
53 3.9
54 1
55 7
56 1.7
57 3.5
58 61.5
59 34
60 4.1
61 1.2
67 1.4
69 1.1
70 2.5
71 29.2
72 7.2
73 3.1
83 1.5
85 4.2
86 99.99
87 10.4
88 4
95 1.4
97 10.8
98 1.6
99 48.6
100 5.6
101 1.9
114 23.2
115 2.6
116 0.9

$$$$

     RDKit          2D

 10 10  0  0  0  0  0  0  0  0999 V2000
   -2.8562   -0.8990    0.0000 C   0  0  0  0  0  0  0  0  0  0  0  0
   -1.6016    2.7740    0.0000 C   0  0  0  0  0  0  0  0  0  0  0  0
   -0.3025    2.0240    0.0000 C   0  0  0  0  0  0  0  0  0  0  0  0
   -2.7163    1.7703    0.0000 C   0  0  0  0  0  0  0  0  0  0  0  0
   -3.5980    2.9839    0.0000 H   0  0  0  0  0  0  0  0  0  0  0  0
   -4.0153    1.0203    0.0000 H   0  0  0  0  0  0  0  0  0  0  0  0
   -0.6144    0.5568    0.0000 C   0  0  0  0  0  0  0  0  0  0  0  0
   -0.6144   -0.9432    0.0000 H   0  0  0  0  0  0  0  0  0  0  0  0
    0.8774    0.4000    0.0000 H   0  0  0  0  0  0  0  0  0  0  0  0
   -2.1062    0.4000    0.0000 Si  0  0  0  0  0  4  0  0  0  0  0  0
  4  5  1  0
  4  6  1  0
  7  8  1  0
  7  9  1  0
  3  2  1  0
  4  2  1  0
  7  3  1  0
 10  1  1  0
 10  4  1  0
 10  7  1  0
M  ISO  4   5   2   6   2   8   2   9   2
M  END
>  <NAME>  (442) 
1-METHYL-SILACYCLOPENTANE(2,2,5,5-D4)

>  <SYNONYMS>  (442) 


>  <SPECTRUM TYPE>  (442) 
MS1

>  <INSTRUMENT TYPE>  (442) 
EI-B

>  <INSTRUMENT>  (442) 
HITACHI RMU-6M

>  <ION MODE>  (442) 
P

>  <INCHIKEY>  (442) 
SBWCARQXLPGQNH-CQOLUAMGSA-N

>  <FORMULA>  (442) 
C5H12Si

>  <EXACT MASS>  (442) 
104.095933898

>  <MW>  (442) 
104

>  <ID>  (442) 
JP011584

>  <CONTRIBUTOR>  (442) 
University of Tokyo Team, {Faculty of Engineering, University of Tokyo

>  <COMMENT>  (442) 
SMILES=[2H]C([2H])(C1)[SiH](C)C([2H])([2H])C1
InChI=InChI=1S/C5H12Si/c1-6-4-2-3-5-6/h6H,2-5H2,1H3/i4D2,5D2
computed SMILES=[H]C1([H])CCC([H])([H])[SiH]1C
accession=JP011584
date=2016.01.19 (Created 2008.10.21, modified 2011.05.06)
author=YAMAMOTO M, DEP. CHEMISTRY, FAC. SCIENCE, NARA WOMEN'S UNIV.
license=CC BY-NC-SA
exact mass=100.07083
ionization energy=70 eV
ion type=[M]+*
computed spectral entropy=2.883769822548555
computed normalized entropy=0.7765487704962787
SPLASH=splash10-00di-9000000000-fa40433879f5f08c56ac
submitter=submitter = University of Tokyo Team (Faculty of Engineering, University of Tokyo)
MoNA Rating=3.75

>  <NUM PEAKS>  (442) 
41

>  <MASS SPECTRAL PEAKS>  (442) 
27 1.4
28 5.2
29 4.5
30 3.1
31 1.2
32 1.4
40 2
41 1.4
42 4.2
43 17.6
44 22.6
45 21.1
46 8.9
47 2.9
53 1.7
54 2.3
55 1.4
56 3.4
57 3.9
58 4.5
59 8.2
60 9.9
61 4.2
62 2.3
67 1
68 1
70 1
71 2.4
72 5.6
73 10.8
74 99.99
75 17.1
76 6.2
86 1.4
87 3.7
88 2.6
89 7.4
103 4.7
104 22.8
105 2.7
106 1

$$$$

     RDKit          2D

  7  7  0  0  0  0  0  0  0  0999 V2000
   -3.4230   -0.2537    0.0000 C   0  0  0  0  0  0  0  0  0  0  0  0
    0.0000    1.5000    0.0000 C   0  0  0  0  0  0  0  0  0  0  0  0
   -0.0000   -0.0000    0.0000 C   0  0  0  0  0  0  0  0  0  0  0  0
   -1.4266    1.9635    0.0000 C   0  0  0  0  0  0  0  0  0  0  0  0
   -1.4266   -0.4635    0.0000 C   0  0  0  0  0  0  0  0  0  0  0  0
   -2.3083    0.7500    0.0000 Si  0  0  0  0  0  4  0  0  0  0  0  0
   -3.4230    1.7537    0.0000 H   0  0  0  0  0  0  0  0  0  0  0  0
  6  7  1  0
  3  2  1  0
  4  2  1  0
  5  3  1  0
  6  1  1  0
  6  4  1  0
  6  5  1  0
M  ISO  1   7   2
M  END
>  <NAME>  (443) 
1-METHYL-SILACYCLOPENTANE (1-D)

>  <SYNONYMS>  (443) 


>  <SPECTRUM TYPE>  (443) 
MS1

>  <INSTRUMENT TYPE>  (443) 
EI-B

>  <INSTRUMENT>  (443) 
HITACHI RMU-6M

>  <ION MODE>  (443) 
P

>  <INCHIKEY>  (443) 
SBWCARQXLPGQNH-RAMDWTOOSA-N

>  <FORMULA>  (443) 
C5H12Si

>  <EXACT MASS>  (443) 
101.07710366

>  <MW>  (443) 
101

>  <ID>  (443) 
JP011583

>  <CONTRIBUTOR>  (443) 
University of Tokyo Team, {Faculty of Engineering, University of Tokyo

>  <COMMENT>  (443) 
SMILES=[2H][Si](C)(C1)CCC1
InChI=InChI=1S/C5H12Si/c1-6-4-2-3-5-6/h6H,2-5H2,1H3/i6D
computed SMILES=[H][Si]1(C)CCCC1
accession=JP011583
date=2016.01.19 (Created 2008.10.21, modified 2011.05.06)
author=YAMAMOTO M, DEP. CHEMISTRY, FAC. SCIENCE, NARA WOMEN'S UNIV.
license=CC BY-NC-SA
exact mass=100.07083
ionization energy=70 eV
ion type=[M]+*
computed spectral entropy=2.796752292625166
computed normalized entropy=0.7633970880713261
SPLASH=splash10-00di-9000000000-de324cb3b1c21189d7de
submitter=submitter = University of Tokyo Team (Faculty of Engineering, University of Tokyo)
MoNA Rating=3.75

>  <NUM PEAKS>  (443) 
39

>  <MASS SPECTRAL PEAKS>  (443) 
26 1
27 3.6
28 4.6
29 4.5
30 1.6
31 1.5
32 1.2
39 2.8
41 1.1
42 3.6
43 18
44 24.2
45 17.4
46 9.1
47 1.1
53 3.1
54 1.4
55 4.2
56 3.2
57 4.6
58 10.6
59 6.3
60 3.2
67 1.1
70 2.7
71 7.4
72 17.2
73 99.99
74 9.7
75 3.7
83 1
84 2.3
85 1.8
86 8
87 1.1
99 2.4
101 18.6
102 2.3
103 0.9

$$$$

     RDKit          2D

  6  6  0  0  0  0  0  0  0  0999 V2000
    0.0000    0.7500    0.0000 C   0  0  0  0  0  0  0  0  0  0  0  0
   -3.8083    0.0000    0.0000 C   0  0  0  0  0  0  0  0  0  0  0  0
   -3.8083    1.5000    0.0000 C   0  0  0  0  0  0  0  0  0  0  0  0
   -2.3817   -0.4635    0.0000 C   0  0  0  0  0  0  0  0  0  0  0  0
   -2.3817    1.9635    0.0000 C   0  0  0  0  0  0  0  0  0  0  0  0
   -1.5000    0.7500    0.0000 Si  0  0  0  0  0  4  0  0  0  0  0  0
  3  2  1  0
  4  2  1  0
  5  3  1  0
  6  1  1  0
  6  4  1  0
  6  5  1  0
M  END
>  <NAME>  (444) 
1-METHYLSILACYCLOPENTANE

>  <SYNONYMS>  (444) 


>  <SPECTRUM TYPE>  (444) 
MS1

>  <INSTRUMENT TYPE>  (444) 
EI-B

>  <INSTRUMENT>  (444) 
HITACHI RMU-6M

>  <ION MODE>  (444) 
P

>  <INCHIKEY>  (444) 
SBWCARQXLPGQNH-UHFFFAOYSA-N

>  <FORMULA>  (444) 
C5H12Si

>  <EXACT MASS>  (444) 
100.070826914

>  <MW>  (444) 
100

>  <ID>  (444) 
JP011582

>  <CONTRIBUTOR>  (444) 
University of Tokyo Team, {Faculty of Engineering, University of Tokyo

>  <COMMENT>  (444) 
SMILES=C[SiH](C1)CCC1
InChI=InChI=1S/C5H12Si/c1-6-4-2-3-5-6/h6H,2-5H2,1H3
computed SMILES=C[SiH]1CCCC1
accession=JP011582
date=2016.01.19 (Created 2008.10.21, modified 2011.05.06)
author=YAMAMOTO M, DEP. CHEMISTRY, FAC. SCIENCE, NARA WOMEN'S UNIV.
license=CC BY-NC-SA
exact mass=100.07083
ionization energy=70 eV
ion type=[M]+*
computed spectral entropy=2.6874005590791907
computed normalized entropy=0.7620889980815871
SPLASH=splash10-00di-9000000000-22ba1b2e6bf44ce5543c
submitter=submitter = University of Tokyo Team (Faculty of Engineering, University of Tokyo)
MoNA Rating=3.75

>  <NUM PEAKS>  (444) 
34

>  <MASS SPECTRAL PEAKS>  (444) 
27 4
28 4.4
29 5.6
31 2.3
39 2.5
41 1.3
42 4.7
43 23.6
44 24.6
45 13.9
46 1.6
53 3.3
54 1.3
55 5.2
56 3.1
57 8.8
58 8.1
59 6
67 1.1
69 1.3
70 5.2
71 10.2
72 99.99
73 10.2
74 4.4
83 2.6
84 1.3
85 9.7
86 1.1
97 1.4
99 3.6
100 18.2
101 2.2
102 0.8

$$$$

     RDKit          2D

  9  9  0  0  0  0  0  0  0  0999 V2000
   -0.0319   -0.0552    0.0000 C   0  0  0  0  0  0  0  0  0  0  0  0
   -1.3309   -0.8052    0.0000 C   0  0  0  0  0  0  0  0  0  0  0  0
   -0.3438    1.4120    0.0000 C   0  0  0  0  0  0  0  0  0  0  0  0
    1.1480    1.5688    0.0000 H   0  0  0  0  0  0  0  0  0  0  0  0
   -0.3438    2.9120    0.0000 H   0  0  0  0  0  0  0  0  0  0  0  0
   -2.4456    0.1985    0.0000 C   0  0  0  0  0  0  0  0  0  0  0  0
   -3.7447    0.9485    0.0000 H   0  0  0  0  0  0  0  0  0  0  0  0
   -3.3273   -1.0151    0.0000 H   0  0  0  0  0  0  0  0  0  0  0  0
   -1.8355    1.5688    0.0000 Si  0  0  0  0  0  4  0  0  0  0  0  0
  3  4  1  0
  3  5  1  0
  6  7  1  0
  6  8  1  0
  2  1  1  0
  3  1  1  0
  6  2  1  0
  9  3  1  0
  9  6  1  0
M  ISO  4   4   2   5   2   7   2   8   2
M  END
>  <NAME>  (445) 
SILACYCLOPENTANE (2,2,5,5-D4)

>  <SYNONYMS>  (445) 


>  <SPECTRUM TYPE>  (445) 
MS1

>  <INSTRUMENT TYPE>  (445) 
EI-B

>  <INSTRUMENT>  (445) 
HITACHI RMU-6M

>  <ION MODE>  (445) 
P

>  <INCHIKEY>  (445) 
DWRSCILTXDLQBG-KHORGVISSA-N

>  <FORMULA>  (445) 
C4H10Si

>  <EXACT MASS>  (445) 
90.080283834

>  <MW>  (445) 
90

>  <ID>  (445) 
JP011581

>  <CONTRIBUTOR>  (445) 
University of Tokyo Team, {Faculty of Engineering, University of Tokyo

>  <COMMENT>  (445) 
SMILES=[2H]C([2H])(C1)[SiH2]C([2H])([2H])C1
InChI=InChI=1S/C4H10Si/c1-2-4-5-3-1/h1-5H2/i3D2,4D2
computed SMILES=[H]C1([H])CCC([H])([H])[SiH2]1
accession=JP011581
date=2016.01.19 (Created 2008.10.21, modified 2011.05.06)
author=YAMAMOTO M, DEP. CHEMISTRY, FAC. SCIENCE, NARA WOMEN'S UNIV.
license=CC BY-NC-SA
exact mass=86.05518
ionization energy=70 eV
ion type=[M]+*
computed spectral entropy=2.7759837206634432
computed normalized entropy=0.7746530068177684
SPLASH=splash10-03di-9000000000-f5de7cac6a0efb5ad66f
submitter=submitter = University of Tokyo Team (Faculty of Engineering, University of Tokyo)
MoNA Rating=3.75

>  <NUM PEAKS>  (445) 
36

>  <MASS SPECTRAL PEAKS>  (445) 
27 2.1
28 8.3
29 7.6
30 5.9
31 3.1
32 3
33 1.5
40 3
41 2.5
42 1.2
43 8.2
44 19.7
45 13.5
46 4.5
47 3.1
48 1.3
53 2.3
54 3.5
55 2.1
56 4.7
57 6.5
58 8.8
59 16.7
60 99.99
61 26
62 9.8
63 1.5
73 1.8
74 1.4
86 1.3
87 1.5
88 5.3
89 9.6
90 31.4
91 3.5
92 1.3

$$$$

     RDKit          2D

  7  7  0  0  0  0  0  0  0  0999 V2000
    0.0000    1.5000    0.0000 C   0  0  0  0  0  0  0  0  0  0  0  0
   -0.0000   -0.0000    0.0000 C   0  0  0  0  0  0  0  0  0  0  0  0
   -1.4266    1.9635    0.0000 C   0  0  0  0  0  0  0  0  0  0  0  0
   -1.4266   -0.4635    0.0000 C   0  0  0  0  0  0  0  0  0  0  0  0
   -2.3083    0.7500    0.0000 Si  0  0  0  0  0  4  0  0  0  0  0  0
   -3.4230    1.7537    0.0000 H   0  0  0  0  0  0  0  0  0  0  0  0
   -3.4230   -0.2537    0.0000 H   0  0  0  0  0  0  0  0  0  0  0  0
  5  6  1  0
  5  7  1  0
  2  1  1  0
  3  1  1  0
  4  2  1  0
  5  3  1  0
  5  4  1  0
M  ISO  2   6   2   7   2
M  END
>  <NAME>  (446) 
SILACYCLOPENTANE (1,1-D2)

>  <SYNONYMS>  (446) 


>  <SPECTRUM TYPE>  (446) 
MS1

>  <INSTRUMENT TYPE>  (446) 
EI-B

>  <INSTRUMENT>  (446) 
HITACHI RMU-6M

>  <ION MODE>  (446) 
P

>  <INCHIKEY>  (446) 
DWRSCILTXDLQBG-BFWBPSQCSA-N

>  <FORMULA>  (446) 
C4H10Si

>  <EXACT MASS>  (446) 
88.06773034199999

>  <MW>  (446) 
88

>  <ID>  (446) 
JP011580

>  <CONTRIBUTOR>  (446) 
University of Tokyo Team, {Faculty of Engineering, University of Tokyo

>  <COMMENT>  (446) 
SMILES=[2H][Si]([2H])(C1)CCC1
InChI=InChI=1S/C4H10Si/c1-2-4-5-3-1/h1-5H2/i5D2
computed SMILES=[H][Si]1([H])CCCC1
accession=JP011580
date=2016.01.19 (Created 2008.10.21, modified 2011.05.06)
author=YAMAMOTO M, DEP. CHEMISTRY, FAC. SCIENCE, NARA WOMEN'S UNIV.
license=CC BY-NC-SA
exact mass=86.05518
ionization energy=70 eV
ion type=[M]+*
computed spectral entropy=2.8180201745833475
computed normalized entropy=0.7692023355360849
SPLASH=splash10-08fr-9000000000-b65361946da468baec11
submitter=submitter = University of Tokyo Team (Faculty of Engineering, University of Tokyo)
MoNA Rating=3.75

>  <NUM PEAKS>  (446) 
39

>  <MASS SPECTRAL PEAKS>  (446) 
26 1.4
27 5.6
28 7.9
29 7
30 5
31 2.9
32 4.7
33 2.8
39 4.7
40 1.1
41 2.2
42 1.6
43 11.5
44 24.7
45 8.9
46 4.7
47 2.1
53 4.5
54 2.8
55 4.7
56 6.1
57 7.3
58 15.2
59 39.8
60 99.99
61 9.6
62 4
66 1
67 1.2
72 1.7
73 1.5
83 1.2
84 3.8
85 1
86 4.9
87 1.9
88 28.5
89 3.2
90 1.6

$$$$

     RDKit          2D

  5  5  0  0  0  0  0  0  0  0999 V2000
    0.0000    1.5000    0.0000 C   0  0  0  0  0  0  0  0  0  0  0  0
    0.0000    0.0000    0.0000 C   0  0  0  0  0  0  0  0  0  0  0  0
   -1.4266    1.9635    0.0000 C   0  0  0  0  0  0  0  0  0  0  0  0
   -1.4266   -0.4635    0.0000 C   0  0  0  0  0  0  0  0  0  0  0  0
   -2.3083    0.7500    0.0000 Si  0  0  0  0  0  4  0  0  0  0  0  0
  2  1  1  0
  3  1  1  0
  4  2  1  0
  5  3  1  0
  5  4  1  0
M  END
>  <NAME>  (447) 
SILACYCLOPENTANE

>  <SYNONYMS>  (447) 


>  <SPECTRUM TYPE>  (447) 
MS1

>  <INSTRUMENT TYPE>  (447) 
EI-B

>  <INSTRUMENT>  (447) 
HITACHI RMU-6M

>  <ION MODE>  (447) 
P

>  <INCHIKEY>  (447) 
DWRSCILTXDLQBG-UHFFFAOYSA-N

>  <FORMULA>  (447) 
C4H10Si

>  <EXACT MASS>  (447) 
86.05517685

>  <MW>  (447) 
86

>  <ID>  (447) 
JP011579

>  <CONTRIBUTOR>  (447) 
University of Tokyo Team, {Faculty of Engineering, University of Tokyo

>  <COMMENT>  (447) 
computed SMILES=C1CC[SiH2]C1
SMILES=C(C1)C[SiH2]C1
InChI=InChI=1S/C4H10Si/c1-2-4-5-3-1/h1-5H2
accession=JP011579
date=2016.01.19 (Created 2008.10.21, modified 2011.05.06)
author=YAMAMOTO M, DEP. CHEMISTRY, FAC. SCIENCE, NARA WOMEN'S UNIV.
license=CC BY-NC-SA
exact mass=86.05518
ionization energy=70 eV
ion type=[M]+*
computed spectral entropy=2.4905715763681293
computed normalized entropy=0.7474245859649166
SPLASH=splash10-0a4i-9000000000-6f97781d8fd889cef70a
submitter=submitter = University of Tokyo Team (Faculty of Engineering, University of Tokyo)
MoNA Rating=3.75

>  <NUM PEAKS>  (447) 
28

>  <MASS SPECTRAL PEAKS>  (447) 
26 1.2
27 4.9
28 6.3
29 9.2
30 3
31 4.8
39 3.8
41 1.5
42 3.1
43 27.3
44 4.4
45 3.8
53 5.1
54 2.2
55 7.7
56 8.4
57 12.2
58 99.99
59 9.3
60 4.2
67 1.2
71 2.5
83 2.1
84 3.6
85 6.9
86 24.7
87 2.7
88 1

$$$$

     RDKit          2D

 11 11  0  0  0  0  0  0  0  0999 V2000
   -4.8712    2.0071    0.0000 C   0  0  0  0  0  0  0  0  0  0  0  0
    2.9231    0.5071    0.0000 C   0  0  0  0  0  0  0  0  0  0  0  0
    2.9236    2.0079    0.0000 C   0  0  0  0  0  0  0  0  0  0  0  0
    1.6236   -0.2437    0.0000 C   0  0  0  0  0  0  0  0  0  0  0  0
    1.6245    2.7579    0.0000 C   0  0  0  0  0  0  0  0  0  0  0  0
    0.3245    0.5063    0.0000 C   0  0  0  0  0  0  0  0  0  0  0  0
   -0.9740    2.7571    0.0000 C   0  0  0  0  0  0  0  0  0  0  0  0
   -3.5721    2.7571    0.0000 C   0  0  0  0  0  0  0  0  0  0  0  0
    0.3250    2.0071    0.0000 C   0  0  0  0  0  0  0  0  0  0  0  0
   -3.5721    4.2571    0.0000 O   0  0  0  0  0  0  0  0  0  0  0  0
   -2.2731    2.0071    0.0000 O   0  0  0  0  0  0  0  0  0  0  0  0
  3  2  2  0
  4  2  1  0
  5  3  1  0
  6  4  2  0
  8  1  1  0
  9  5  2  0
  9  6  1  0
  9  7  1  0
 10  8  2  0
 11  7  1  0
 11  8  1  0
M  END
>  <NAME>  (448) 
BENZYL ACETATE

>  <SYNONYMS>  (448) 


>  <SPECTRUM TYPE>  (448) 
MS1

>  <INSTRUMENT TYPE>  (448) 
EI-B

>  <INSTRUMENT>  (448) 
JEOL JMS-DX-300

>  <ION MODE>  (448) 
P

>  <INCHIKEY>  (448) 
QUKGYYKBILRGFE-UHFFFAOYSA-N

>  <FORMULA>  (448) 
C9H10O2

>  <EXACT MASS>  (448) 
150.06807956

>  <MW>  (448) 
150

>  <ID>  (448) 
JP011500

>  <CONTRIBUTOR>  (448) 
University of Tokyo Team, {Faculty of Engineering, University of Tokyo

>  <COMMENT>  (448) 
SMILES=CC(=O)OCc(c1)cccc1
InChI=InChI=1S/C9H10O2/c1-8(10)11-7-9-5-3-2-4-6-9/h2-6H,7H2,1H3
computed SMILES=O=C(OCC=1C=CC=CC1)C
accession=JP011500
date=2016.01.19 (Created 2008.10.21, modified 2011.05.06)
author=FUJISE Y, HAMAMATSU UNIV. SCHOOL OF MEDICINE
license=CC BY-NC-SA
exact mass=150.06808
ionization energy=70 eV
ion type=[M]+*
computed spectral entropy=3.0682398909901596
computed normalized entropy=0.8157608732882798
SPLASH=splash10-0006-9200000000-25dd8e6faa7ec0169f6b
submitter=submitter = University of Tokyo Team (Faculty of Engineering, University of Tokyo)
MoNA Rating=3.75

>  <NUM PEAKS>  (448) 
43

>  <MASS SPECTRAL PEAKS>  (448) 
26 2.56
27 7.06
28 4.93
29 7.82
30 1.2
31 2.1
37 1.26
38 5.06
39 26.67
40 2.03
41 4.36
42 7.21
43 82.86
44 3.42
45 1.53
50 16.04
51 39.05
52 10.25
53 3.83
61 1.17
62 5.32
63 16.04
64 4.59
65 31.15
66 1.95
74 3.26
75 2.65
76 3.53
77 49.86
78 12.37
79 44.88
80 4.71
89 18.72
90 40.69
91 89.67
92 7.55
105 9.61
106 1.54
107 23.8
108 99.99
109 7.61
150 39.12
151 4.33

$$$$

     RDKit          2D

 17 18  0  0  0  0  0  0  0  0999 V2000
   -0.3325    2.4400    0.0000 C   0  0  0  0  0  0  0  0  0  0  0  0
    8.7645   -1.3088    0.0000 C   0  0  0  0  0  0  0  0  0  0  0  0
    8.7647    0.1921    0.0000 C   0  0  0  0  0  0  0  0  0  0  0  0
    7.4651   -2.0598    0.0000 C   0  0  0  0  0  0  0  0  0  0  0  0
   -1.6200   -1.3100    0.0000 C   0  0  0  0  0  0  0  0  0  0  0  0
   -0.3300   -2.0600    0.0000 C   0  0  0  0  0  0  0  0  0  0  0  0
   -1.6200    0.1900    0.0000 C   0  0  0  0  0  0  0  0  0  0  0  0
    7.4656    0.9419    0.0000 C   0  0  0  0  0  0  0  0  0  0  0  0
    6.1659   -1.3100    0.0000 C   0  0  0  0  0  0  0  0  0  0  0  0
    0.9700   -1.3100    0.0000 C   0  0  0  0  0  0  0  0  0  0  0  0
    4.8670    0.9406    0.0000 C   0  0  0  0  0  0  0  0  0  0  0  0
   -0.3300    0.9400    0.0000 C   0  0  0  0  0  0  0  0  0  0  0  0
    6.1662    0.1908    0.0000 C   0  0  0  0  0  0  0  0  0  0  0  0
    0.9700    0.1900    0.0000 C   0  0  0  0  0  0  0  0  0  0  0  0
    2.2689    0.9402    0.0000 C   0  0  0  0  0  0  0  0  0  0  0  0
    2.2687    2.4402    0.0000 O   0  0  0  0  0  0  0  0  0  0  0  0
    3.5681    0.1904    0.0000 O   0  0  0  0  0  0  0  0  0  0  0  0
  3  2  2  0
  4  2  1  0
  6  5  2  0
  7  5  1  0
  8  3  1  0
  9  4  2  0
 10  6  1  0
 12  1  1  0
 12  7  2  0
 13  8  2  0
 13  9  1  0
 13 11  1  0
 14 10  2  0
 14 12  1  0
 15 14  1  0
 16 15  2  0
 17 11  1  0
 17 15  1  0
M  END
>  <NAME>  (449) 
BENZYL 2-METHYLBENZOATE

>  <SYNONYMS>  (449) 


>  <SPECTRUM TYPE>  (449) 
MS1

>  <INSTRUMENT TYPE>  (449) 
EI-B

>  <INSTRUMENT>  (449) 
JEOL JMS-DX-300

>  <ION MODE>  (449) 
P

>  <INCHIKEY>  (449) 
IRNSYGIUGHROTJ-UHFFFAOYSA-N

>  <FORMULA>  (449) 
C15H14O2

>  <EXACT MASS>  (449) 
226.099379688

>  <MW>  (449) 
226

>  <ID>  (449) 
JP011499

>  <CONTRIBUTOR>  (449) 
University of Tokyo Team, {Faculty of Engineering, University of Tokyo

>  <COMMENT>  (449) 
SMILES=Cc(c2)c(ccc2)C(=O)OCc(c1)cccc1
InChI=InChI=1S/C15H14O2/c1-12-7-5-6-10-14(12)15(16)17-11-13-8-3-2-4-9-13/h2-10H,11H2,1H3
computed SMILES=O=C(OCC=1C=CC=CC1)C=2C=CC=CC2C
accession=JP011499
date=2016.01.19 (Created 2008.10.21, modified 2011.05.06)
author=FUJISE Y, HAMAMATSU UNIV. SCHOOL OF MEDICINE
license=CC BY-NC-SA
exact mass=226.09938
ionization energy=70 eV
ion type=[M]+*
computed spectral entropy=2.9835730182556452
computed normalized entropy=0.7884311588175792
SPLASH=splash10-00kf-9430000000-daee0022520caecec5b5
submitter=submitter = University of Tokyo Team (Faculty of Engineering, University of Tokyo)
MoNA Rating=3.75

>  <NUM PEAKS>  (449) 
44

>  <MASS SPECTRAL PEAKS>  (449) 
27 2.01
28 4.48
29 1.18
38 1.16
39 10.65
41 3.19
45 3.11
50 3.27
51 9.66
52 2.37
53 1.33
62 1.45
63 7.64
64 2.31
65 33.29
66 2.11
74 1.15
75 1
76 1.35
77 15.85
78 2.93
79 8.34
89 11.06
90 13.6
91 99.99
92 15.26
105 9.16
107 4.83
108 2.05
118 11.14
119 62.57
120 5.95
122 6.33
135 10.08
136 7.36
148 1.51
165 1.15
167 2.33
181 3
208 49.42
209 8.29
211 1.6
226 26.3
227 4.4

$$$$

     RDKit          2D

  9 10  0  0  0  0  0  0  0  0999 V2000
   -2.5115    3.3300    0.0000 C   0  0  0  0  0  0  0  0  0  0  0  0
   -2.5120    1.8292    0.0000 C   0  0  0  0  0  0  0  0  0  0  0  0
   -1.2120    4.0808    0.0000 C   0  0  0  0  0  0  0  0  0  0  0  0
   -1.2129    1.0792    0.0000 C   0  0  0  0  0  0  0  0  0  0  0  0
    0.0871    3.3308    0.0000 C   0  0  0  0  0  0  0  0  0  0  0  0
    2.8865    1.0795    0.0000 C   0  0  0  0  0  0  0  0  0  0  0  0
    0.0866    1.8300    0.0000 C   0  0  0  0  0  0  0  0  0  0  0  0
    1.3856    1.0800    0.0000 C   0  0  0  0  0  0  0  0  0  0  0  0
    2.1365   -0.2195    0.0000 O   0  0  0  0  0  0  0  0  0  0  0  0
  2  1  2  0
  3  1  1  0
  4  2  1  0
  5  3  2  0
  7  4  2  0
  7  5  1  0
  8  6  1  0
  8  7  1  0
  9  6  1  0
  9  8  1  0
M  END
>  <NAME>  (450) 
STYRENE OXIDE

>  <SYNONYMS>  (450) 


>  <SPECTRUM TYPE>  (450) 
MS1

>  <INSTRUMENT TYPE>  (450) 
EI-B

>  <INSTRUMENT>  (450) 
JEOL JMS-DX-300

>  <ION MODE>  (450) 
P

>  <INCHIKEY>  (450) 
AWMVMTVKBNGEAK-UHFFFAOYSA-N

>  <FORMULA>  (450) 
C8H8O

>  <EXACT MASS>  (450) 
120.057514876

>  <MW>  (450) 
120

>  <ID>  (450) 
JP011498

>  <CONTRIBUTOR>  (450) 
University of Tokyo Team, {Faculty of Engineering, University of Tokyo

>  <COMMENT>  (450) 
SMILES=c(c2)ccc(c2)C(C1)O1
InChI=InChI=1S/C8H8O/c1-2-4-7(5-3-1)8-6-9-8/h1-5,8H,6H2
computed SMILES=O1CC1C=2C=CC=CC2
accession=JP011498
date=2016.01.19 (Created 2008.10.21, modified 2011.05.06)
author=FUJISE Y, HAMAMATSU UNIV. SCHOOL OF MEDICINE
license=CC BY-NC-SA
exact mass=120.05751
ionization energy=70 eV
ion type=[M]+*
computed spectral entropy=3.141481967018344
computed normalized entropy=0.7912471010746758
SPLASH=splash10-0kdi-9600000000-ee02f9b2bd239f01f9b0
submitter=submitter = University of Tokyo Team (Faculty of Engineering, University of Tokyo)
MoNA Rating=3.75

>  <NUM PEAKS>  (450) 
53

>  <MASS SPECTRAL PEAKS>  (450) 
38 3.11
39 15.74
40 2.22
41 4.25
42 1.4
43 15.83
44 1.38
45 2.99
50 10.66
51 31.99
52 7.58
53 4.06
55 1.79
57 2.7
60 1.12
61 1.11
62 3.08
63 10.47
64 3.22
65 12.85
66 1.28
69 1.31
71 1.42
73 1.36
74 3.44
75 2.75
76 4.27
77 82.83
78 25.59
79 86.62
80 6.66
85 1.13
87 1.26
89 14.95
90 14.67
91 45.42
92 10.19
93 1.73
94 1.8
102 1.98
103 17.11
104 67.17
105 66.69
106 6.99
107 99.99
108 11.76
115 1.29
118 1.94
119 9.96
120 29.05
121 15.13
122 9.97
123 1.09

$$$$

     RDKit          2D

 10 11  0  0  0  0  0  0  0  0999 V2000
    3.1628    4.4556    0.0000 C   0  0  0  0  0  0  0  0  0  0  0  0
    1.8635    2.2056    0.0000 C   0  0  0  0  0  0  0  0  0  0  0  0
    0.5639    4.4558    0.0000 C   0  0  0  0  0  0  0  0  0  0  0  0
    0.5634    1.4558    0.0000 C   0  0  0  0  0  0  0  0  0  0  0  0
   -0.7362    3.7060    0.0000 C   0  0  0  0  0  0  0  0  0  0  0  0
   -2.7864    0.1565    0.0000 C   0  0  0  0  0  0  0  0  0  0  0  0
    1.8638    3.7056    0.0000 C   0  0  0  0  0  0  0  0  0  0  0  0
   -0.7365    2.2060    0.0000 C   0  0  0  0  0  0  0  0  0  0  0  0
   -2.0355    1.4560    0.0000 C   0  0  0  0  0  0  0  0  0  0  0  0
   -3.5364    1.4556    0.0000 O   0  0  0  0  0  0  0  0  0  0  0  0
  4  2  2  0
  5  3  1  0
  7  1  1  0
  7  2  1  0
  7  3  2  0
  8  4  1  0
  8  5  2  0
  9  6  1  0
  9  8  1  0
 10  6  1  0
 10  9  1  0
M  END
>  <NAME>  (451) 
4-METHYLSTYRENE OXIDE

>  <SYNONYMS>  (451) 


>  <SPECTRUM TYPE>  (451) 
MS1

>  <INSTRUMENT TYPE>  (451) 
EI-B

>  <INSTRUMENT>  (451) 
JEOL JMS-DX-300

>  <ION MODE>  (451) 
P

>  <INCHIKEY>  (451) 
QAWJAMQTRGCJMH-UHFFFAOYSA-N

>  <FORMULA>  (451) 
C9H10O

>  <EXACT MASS>  (451) 
134.07316494

>  <MW>  (451) 
134

>  <ID>  (451) 
JP011497

>  <CONTRIBUTOR>  (451) 
University of Tokyo Team, {Faculty of Engineering, University of Tokyo

>  <COMMENT>  (451) 
SMILES=Cc(c2)ccc(c2)C(C1)O1
InChI=InChI=1S/C9H10O/c1-7-2-4-8(5-3-7)9-6-10-9/h2-5,9H,6H2,1H3
computed SMILES=O1CC1C2=CC=C(C=C2)C
accession=JP011497
date=2016.01.19 (Created 2008.10.21, modified 2011.05.06)
author=FUJISE Y, HAMAMATSU UNIV. SCHOOL OF MEDICINE
license=CC BY-NC-SA
exact mass=134.07316
ionization energy=70 eV
ion type=[M]+*
computed spectral entropy=3.182836166376612
computed normalized entropy=0.8313226120616328
SPLASH=splash10-0fvi-9500000000-6a6554bf1cb06c3b2808
submitter=submitter = University of Tokyo Team (Faculty of Engineering, University of Tokyo)
MoNA Rating=3.75

>  <NUM PEAKS>  (451) 
46

>  <MASS SPECTRAL PEAKS>  (451) 
37 2.63
38 9.4
39 51.87
40 4.15
41 6.15
42 1.26
43 1.18
49 1.22
50 24.74
51 48.87
52 18.4
53 12.59
54 1.12
61 2.77
62 11.05
63 34.71
64 6.47
65 26.14
66 3.16
74 6.65
75 6.96
76 8.88
77 61.9
78 99.99
79 26.37
80 1.49
86 1.78
87 2.37
89 13.42
90 3.78
91 59.85
92 5.04
101 1.14
102 11.95
103 66.11
104 39.63
105 46.48
106 7.15
115 2.65
117 3.28
118 2.86
119 89.89
120 8.59
133 8.4
134 26.58
135 3.3

$$$$

     RDKit          2D

 10 11  0  0  0  0  0  0  0  0999 V2000
   -4.5970    0.9432    0.0000 C   0  0  0  0  0  0  0  0  0  0  0  0
   -3.2975    0.1923    0.0000 C   0  0  0  0  0  0  0  0  0  0  0  0
   -4.5975    2.4440    0.0000 C   0  0  0  0  0  0  0  0  0  0  0  0
   -1.9985    0.9423    0.0000 C   0  0  0  0  0  0  0  0  0  0  0  0
   -3.2985    3.1940    0.0000 C   0  0  0  0  0  0  0  0  0  0  0  0
   -0.6999    3.1932    0.0000 C   0  0  0  0  0  0  0  0  0  0  0  0
    2.0999    2.4427    0.0000 C   0  0  0  0  0  0  0  0  0  0  0  0
   -1.9990    2.4432    0.0000 C   0  0  0  0  0  0  0  0  0  0  0  0
    0.5991    2.4432    0.0000 C   0  0  0  0  0  0  0  0  0  0  0  0
    1.3499    1.1436    0.0000 O   0  0  0  0  0  0  0  0  0  0  0  0
  2  1  2  0
  3  1  1  0
  4  2  1  0
  5  3  2  0
  8  4  2  0
  8  5  1  0
  8  6  1  0
  9  6  1  0
  9  7  1  0
 10  7  1  0
 10  9  1  0
M  END
>  <NAME>  (452) 
1,2-EPOXY-3-PHENYL-PROPANE

>  <SYNONYMS>  (452) 


>  <SPECTRUM TYPE>  (452) 
MS1

>  <INSTRUMENT TYPE>  (452) 
EI-B

>  <INSTRUMENT>  (452) 
JEOL JMS-DX-300

>  <ION MODE>  (452) 
P

>  <INCHIKEY>  (452) 
JFDMLXYWGLECEY-UHFFFAOYSA-N

>  <FORMULA>  (452) 
C9H10O

>  <EXACT MASS>  (452) 
134.07316494

>  <MW>  (452) 
134

>  <ID>  (452) 
JP011496

>  <CONTRIBUTOR>  (452) 
University of Tokyo Team, {Faculty of Engineering, University of Tokyo

>  <COMMENT>  (452) 
SMILES=c(c2)ccc(c2)CC(C1)O1
InChI=InChI=1S/C9H10O/c1-2-4-8(5-3-1)6-9-7-10-9/h1-5,9H,6-7H2
computed SMILES=O1CC1CC=2C=CC=CC2
accession=JP011496
date=2016.01.19 (Created 2008.10.21, modified 2011.05.06)
author=FUJISE Y, HAMAMATSU UNIV. SCHOOL OF MEDICINE
license=CC BY-NC-SA
exact mass=134.07316
ionization energy=70 eV
ion type=[M]+*
computed spectral entropy=3.112315274508297
computed normalized entropy=0.8326887050915208
SPLASH=splash10-0ufu-9400000000-3ec62a3489ce7d9714fc
submitter=submitter = University of Tokyo Team (Faculty of Engineering, University of Tokyo)
MoNA Rating=3.75

>  <NUM PEAKS>  (452) 
42

>  <MASS SPECTRAL PEAKS>  (452) 
37 2.23
38 7.54
39 46.73
40 3.29
41 10.14
42 2.65
43 6.39
49 1.14
50 24.39
51 56.35
52 17.35
53 4.87
55 2.8
61 1.52
62 7.05
63 23.55
64 5.16
65 44.58
74 6.81
75 6.16
76 7.64
77 52.22
78 75.33
79 16.88
87 1.27
89 10.04
90 4.5
91 99.99
92 17.91
102 9.46
103 47.66
104 83.79
105 53.33
106 7.58
115 5.18
116 3.88
117 4.53
118 1.4
119 4.62
133 4.01
134 43.16
135 4.27

$$$$

     RDKit          2D

  7  8  0  0  1  0  0  0  0  0999 V2000
   -1.6700   -0.7500    0.0000 C   0  0  0  0  0  0  0  0  0  0  0  0
   -1.6700    0.7500    0.0000 C   0  0  0  0  0  0  0  0  0  0  0  0
   -0.3700   -1.5000    0.0000 C   0  0  0  0  0  0  0  0  0  0  0  0
   -0.3700    1.5000    0.0000 C   0  0  0  0  0  0  0  0  0  0  0  0
    0.9300   -0.7500    0.0000 C   0  0  0  0  0  0  0  0  0  0  0  0
    0.9300    0.7500    0.0000 C   0  0  0  0  0  0  0  0  0  0  0  0
    2.2300   -0.0000    0.0000 O   0  0  0  0  0  0  0  0  0  0  0  0
  2  1  1  0
  3  1  1  0
  4  2  1  0
  5  3  1  1
  6  4  1  1
  6  5  1  0
  5  7  1  0
  6  7  1  0
M  END
>  <NAME>  (453) 
CYCLOHEXENE OXIDE

>  <SYNONYMS>  (453) 


>  <SPECTRUM TYPE>  (453) 
MS1

>  <INSTRUMENT TYPE>  (453) 
EI-B

>  <INSTRUMENT>  (453) 
JEOL JMS-DX-300

>  <ION MODE>  (453) 
P

>  <INCHIKEY>  (453) 
ZWAJLVLEBYIOTI-OLQVQODUSA-N

>  <FORMULA>  (453) 
C6H10O

>  <EXACT MASS>  (453) 
98.07316494

>  <MW>  (453) 
98

>  <ID>  (453) 
JP011495

>  <CONTRIBUTOR>  (453) 
University of Tokyo Team, {Faculty of Engineering, University of Tokyo

>  <COMMENT>  (453) 
SMILES=[H]C(C2)(O1)C([H])(CCC2)1
InChI=InChI=1S/C6H10O/c1-2-4-6-5(3-1)7-6/h5-6H,1-4H2/t5-,6+
computed SMILES=O1C2CCCCC12
accession=JP011495
date=2016.01.19 (Created 2008.10.21, modified 2011.05.06)
author=FUJISE Y, HAMAMATSU UNIV. SCHOOL OF MEDICINE
license=CC BY-NC-SA
exact mass=98.07316
ionization energy=70 eV
ion type=[M]+*
computed spectral entropy=3.400541774030442
computed normalized entropy=0.8485797453932376
SPLASH=splash10-05tf-9000000000-8c60284c636a3896c8bc
submitter=submitter = University of Tokyo Team (Faculty of Engineering, University of Tokyo)
MoNA Rating=3.75

>  <NUM PEAKS>  (453) 
55

>  <MASS SPECTRAL PEAKS>  (453) 
33 1.89
34 1.41
37 1.73
38 4.36
39 51.78
40 10.99
41 99.99
42 38.54
43 50.71
44 30.65
45 18.22
47 3.3
50 2.87
51 5.18
52 2.32
53 14.43
54 14.24
55 44.08
56 13.16
57 68.38
58 5.98
59 1.99
60 6.38
61 1.02
63 1.34
65 5.09
66 3.1
67 42.56
68 15.28
69 47.82
70 83.52
71 22.17
72 2.24
73 10.47
74 2.11
75 2.45
77 7.66
78 1.64
79 40.13
80 14.64
81 56.49
82 9.15
83 30.72
84 6.62
85 7.81
86 3.26
87 6
88 4.76
89 1.06
91 1.02
95 7.78
96 5.3
97 32.34
98 58.63
99 15.32

$$$$

     RDKit          2D

 31 32  0  0  0  0  0  0  0  0999 V2000
    2.6142   -2.7270    0.0000 C   0  0  0  0  0  0  0  0  0  0  0  0
   -6.5112    4.0334    0.0000 C   0  0  0  0  0  0  0  0  0  0  0  0
    7.8023    1.7607    0.0000 C   0  0  0  0  0  0  0  0  0  0  0  0
   -5.2123    1.7998    0.0000 C   0  0  0  0  0  0  0  0  0  0  0  0
    6.5189    5.5193    0.0000 C   0  0  0  0  0  0  0  0  0  0  0  0
   -2.6207   -1.2129    0.0000 C   0  0  0  0  0  0  0  0  0  0  0  0
    2.5965    6.2875    0.0000 C   0  0  0  0  0  0  0  0  0  0  0  0
    1.3035   -0.4580    0.0000 C   0  0  0  0  0  0  0  0  0  0  0  0
    3.9136   -0.4772    0.0000 C   0  0  0  0  0  0  0  0  0  0  0  0
   -3.9132    4.0330    0.0000 C   0  0  0  0  0  0  0  0  0  0  0  0
    3.9138    1.0228    0.0000 C   0  0  0  0  0  0  0  0  0  0  0  0
   -2.6142    3.2828    0.0000 C   0  0  0  0  0  0  0  0  0  0  0  0
    5.2042    1.7678    0.0000 C   0  0  0  0  0  0  0  0  0  0  0  0
   -2.6142    1.7928    0.0000 C   0  0  0  0  0  0  0  0  0  0  0  0
    5.2124    3.2736    0.0000 C   0  0  0  0  0  0  0  0  0  0  0  0
   -1.3142    1.0328    0.0000 C   0  0  0  0  0  0  0  0  0  0  0  0
    3.8942    4.0368    0.0000 C   0  0  0  0  0  0  0  0  0  0  0  0
    0.0058    1.7928    0.0000 C   0  0  0  0  0  0  0  0  0  0  0  0
    2.6038    3.2918    0.0000 C   0  0  0  0  0  0  0  0  0  0  0  0
    0.0058    3.2828    0.0000 C   0  0  0  0  0  0  0  0  0  0  0  0
    2.6144   -1.2270    0.0000 O   0  0  0  0  0  0  0  0  0  0  0  0
   -5.2123    3.2832    0.0000 O   0  0  0  0  0  0  0  0  0  0  0  0
    6.5012    1.0142    0.0000 O   0  0  0  0  0  0  0  0  0  0  0  0
   -3.9153    1.0463    0.0000 O   0  0  0  0  0  0  0  0  0  0  0  0
    6.5139    4.0193    0.0000 O   0  0  0  0  0  0  0  0  0  0  0  0
   -1.3192   -0.4672    0.0000 O   0  0  0  0  0  0  0  0  0  0  0  0
    3.8951    5.5368    0.0000 O   0  0  0  0  0  0  0  0  0  0  0  0
    1.3044    1.0420    0.0000 O   0  0  0  0  0  0  0  0  0  0  0  0
    2.6143    1.7736    0.0000 O   0  0  0  0  0  0  0  0  0  0  0  0
   -1.3142    4.0328    0.0000 O   0  0  0  0  0  0  0  0  0  0  0  0
    1.3022    4.0373    0.0000 O   0  0  0  0  0  0  0  0  0  0  0  0
 11  9  1  0
 12 10  1  0
 13 11  1  0
 14 12  1  0
 15 13  1  0
 16 14  1  0
 17 15  1  0
 18 16  1  0
 19 17  1  0
 20 18  1  0
 21  1  1  0
 21  9  1  0
 22  2  1  0
 22 10  1  0
 23  3  1  0
 23 13  1  0
 24  4  1  0
 24 14  1  0
 25  5  1  0
 25 15  1  0
 26  6  1  0
 26 16  1  0
 27  7  1  0
 27 17  1  0
 28  8  1  0
 28 18  1  0
 29 11  1  0
 29 19  1  0
 30 12  1  0
 30 20  1  0
 31 19  1  0
 31 20  1  0
M  END
>  <NAME>  (454) 
2,2',3,3',4,4',6,6'-OCTA-ORTHO-METHYL-TREHALOSE

>  <SYNONYMS>  (454) 


>  <SPECTRUM TYPE>  (454) 
MS1

>  <INSTRUMENT TYPE>  (454) 
EI-B

>  <INSTRUMENT>  (454) 
JEOL JMS-DX-300

>  <ION MODE>  (454) 
P

>  <INCHIKEY>  (454) 
PREGLBRFCLDAND-UHFFFAOYSA-N

>  <FORMULA>  (454) 
C20H38O11

>  <EXACT MASS>  (454) 
454.241412036

>  <MW>  (454) 
454

>  <ID>  (454) 
JP011494

>  <CONTRIBUTOR>  (454) 
University of Tokyo Team, {Faculty of Engineering, University of Tokyo

>  <COMMENT>  (454) 
SMILES=COCC([H])(O1)C([H])(OC)C([H])(OC)C([H])(OC)C([H])1OC([H])(O2)C([H])(OC)C([H])(OC)C([H])(OC)C([H])(COC)2
InChI=InChI=1S/C20H38O11/c1-21-9-11-13(23-3)15(25-5)17(27-7)19(29-11)31-20-18(28-8)16(26-6)14(24-4)12(30-20)10-22-2/h11-20H,9-10H2,1-8H3
computed SMILES=O(C)CC1OC(OC2OC(COC)C(OC)C(OC)C2OC)C(OC)C(OC)C1OC
accession=JP011494
date=2016.01.19 (Created 2008.10.21, modified 2011.05.06)
author=FUJISE Y, HAMAMATSU UNIV. SCHOOL OF MEDICINE
license=CC BY-NC-SA
exact mass=454.24141
ionization energy=70 eV
ion type=[M]+*
computed spectral entropy=4.692028782463451
computed normalized entropy=0.8751675225747718
SPLASH=splash10-0k9m-9710000000-e0be1dcc12b10149e716
submitter=submitter = University of Tokyo Team (Faculty of Engineering, University of Tokyo)
MoNA Rating=3.75

>  <NUM PEAKS>  (454) 
213

>  <MASS SPECTRAL PEAKS>  (454) 
33 5.56
34 1.5
35 6.26
36 1.77
37 2.37
38 3.2
39 36.76
40 16.11
41 57.55
42 50.76
43 89.5
44 36.75
45 73.48
46 11.46
47 19.81
48 14.57
49 6.46
50 5.41
51 1.26
53 8.07
54 3.58
55 37.28
56 17.81
57 54.54
58 11.54
59 36.86
60 17.32
61 23.95
62 1.24
63 4.46
64 3.06
65 7.2
66 63.72
67 11.74
68 14.23
69 34.21
70 26.69
71 67.75
72 16.25
73 58
74 24.93
75 65.72
76 10.44
77 9.14
78 12.07
79 3.83
80 4.54
81 15.29
82 8.53
83 66.85
84 9.91
85 61.61
86 7.59
87 24.83
88 68.09
89 61.32
90 5.54
91 5.76
92 1.42
93 9.33
94 72.87
95 67.16
96 12.63
97 19.4
98 9.09
99 41.44
100 5.58
101 91.24
102 55.71
103 14.36
104 3.64
105 3.22
106 2.73
107 12.12
108 43.76
109 8
110 6.01
111 83.02
112 19.28
113 18.73
114 10.74
115 56.87
116 11.06
117 10.57
118 3.95
119 7.03
120 2.91
121 2.42
122 28.54
123 8.98
124 4.7
125 12.39
126 4.69
127 60.61
128 10.08
129 16.86
130 3.21
131 20.27
132 2.83
133 6.94
135 1.81
136 4.2
137 3.33
138 1.94
139 3.37
140 2.98
141 6.32
142 1.89
143 36.39
144 7.06
145 43.42
146 5.24
147 68.63
148 6.78
149 29.12
150 4.69
151 3.21
152 1.47
153 2.09
154 3.05
155 71.25
156 12.1
157 33.3
158 69.01
159 12.76
160 3.32
161 3.81
163 2.11
165 1.87
166 1.29
167 4.57
168 2.25
169 3.4
171 2.69
173 4.35
175 43.02
176 8.07
177 2.33
179 1.56
180 1.15
181 1.36
182 1.68
183 2.36
185 2.41
186 1.66
187 99.99
188 26.54
189 5.79
190 2.75
191 21.54
192 2.83
193 1.59
194 1.19
196 2.27
197 1.65
199 7.66
200 9.13
201 2.4
203 7.01
204 48.8
205 8.55
206 1.47
207 3.52
208 1.29
210 1.37
211 1.99
217 1.34
218 16.77
219 21.87
220 3.99
221 1.17
223 1.51
224 1.98
225 1.32
231 21.59
232 4.21
234 3.41
235 9.74
236 2.31
238 1.23
239 1.36
240 1
243 4.35
244 3.78
249 18.6
250 3.83
252 1.51
262 6
263 10.7
264 2.9
275 46.03
276 9.87
277 2
278 1.13
279 5.79
280 1.8
291 1.66
293 4.58
294 1.19
305 1.66
307 39.13
308 9.03
319 1.09
320 10.99
321 8.08
322 1.7
345 3.31
351 28.23
352 7.84
353 12.05
376 1.45
390 2.63
422 10.53

$$$$

     RDKit          2D

 27 27  0  0  0  0  0  0  0  0999 V2000
   -6.5024   -0.4896    0.0000 C   0  0  0  0  0  0  0  0  0  0  0  0
    1.2730   -4.9889    0.0000 C   0  0  0  0  0  0  0  0  0  0  0  0
    5.1869   -1.2525    0.0000 C   0  0  0  0  0  0  0  0  0  0  0  0
    3.8940    4.0320    0.0000 C   0  0  0  0  0  0  0  0  0  0  0  0
   -1.3082    5.5241    0.0000 C   0  0  0  0  0  0  0  0  0  0  0  0
   -2.6054   -1.2402    0.0000 C   0  0  0  0  0  0  0  0  0  0  0  0
   -5.2035   -1.2398    0.0000 C   0  0  0  0  0  0  0  0  0  0  0  0
    1.2771   -3.4889    0.0000 C   0  0  0  0  0  0  0  0  0  0  0  0
    3.8904   -0.4982    0.0000 C   0  0  0  0  0  0  0  0  0  0  0  0
    2.5945    3.2828    0.0000 C   0  0  0  0  0  0  0  0  0  0  0  0
   -1.3030    4.0241    0.0000 C   0  0  0  0  0  0  0  0  0  0  0  0
   -1.3062   -0.4904    0.0000 C   0  0  0  0  0  0  0  0  0  0  0  0
   -0.0158   -1.2354    0.0000 C   0  0  0  0  0  0  0  0  0  0  0  0
    1.2923   -0.4896    0.0000 C   0  0  0  0  0  0  0  0  0  0  0  0
    1.2942    1.0336    0.0000 C   0  0  0  0  0  0  0  0  0  0  0  0
    0.0038    1.7786    0.0000 C   0  0  0  0  0  0  0  0  0  0  0  0
   -5.2037   -2.7398    0.0000 O   0  0  0  0  0  0  0  0  0  0  0  0
    2.5782   -2.7425    0.0000 O   0  0  0  0  0  0  0  0  0  0  0  0
    3.8954    1.0018    0.0000 O   0  0  0  0  0  0  0  0  0  0  0  0
    1.2960    4.0336    0.0000 O   0  0  0  0  0  0  0  0  0  0  0  0
   -2.5995    3.2696    0.0000 O   0  0  0  0  0  0  0  0  0  0  0  0
   -3.9043   -0.4900    0.0000 O   0  0  0  0  0  0  0  0  0  0  0  0
   -0.0199   -2.7354    0.0000 O   0  0  0  0  0  0  0  0  0  0  0  0
    2.5889   -1.2439    0.0000 O   0  0  0  0  0  0  0  0  0  0  0  0
    2.5936    1.7828    0.0000 O   0  0  0  0  0  0  0  0  0  0  0  0
   -0.0014    3.2786    0.0000 O   0  0  0  0  0  0  0  0  0  0  0  0
   -1.3057    1.0104    0.0000 O   0  0  0  0  0  0  0  0  0  0  0  0
  7  1  1  0
  8  2  1  0
  9  3  1  0
 10  4  1  0
 11  5  1  0
 12  6  1  0
 13 12  1  0
 14 13  1  0
 15 14  1  0
 16 15  1  0
 17  7  2  0
 18  8  2  0
 19  9  2  0
 20 10  2  0
 21 11  2  0
 22  6  1  0
 22  7  1  0
 23  8  1  0
 23 13  1  0
 24  9  1  0
 24 14  1  0
 25 10  1  0
 25 15  1  0
 26 11  1  0
 26 16  1  0
 27 12  1  0
 27 16  1  0
M  END
>  <NAME>  (455) 
A-D-GALACTOSE PENTAACETATE

>  <SYNONYMS>  (455) 


>  <SPECTRUM TYPE>  (455) 
MS1

>  <INSTRUMENT TYPE>  (455) 
EI-B

>  <INSTRUMENT>  (455) 
JEOL JMS-DX-300

>  <ION MODE>  (455) 
P

>  <INCHIKEY>  (455) 
LPTITAGPBXDDGR-UHFFFAOYSA-N

>  <FORMULA>  (455) 
C16H22O11

>  <EXACT MASS>  (455) 
390.116211524

>  <MW>  (455) 
390

>  <ID>  (455) 
JP011491

>  <CONTRIBUTOR>  (455) 
University of Tokyo Team, {Faculty of Engineering, University of Tokyo

>  <COMMENT>  (455) 
SMILES=CC(=O)OCC([H])(O1)C([H])(OC(C)=O)C([H])(OC(C)=O)C([H])(OC(C)=O)C([H])(OC(C)=O)1
InChI=InChI=1S/C16H22O11/c1-7(17)22-6-12-13(23-8(2)18)14(24-9(3)19)15(25-10(4)20)16(27-12)26-11(5)21/h12-16H,6H2,1-5H3
computed SMILES=O=C(OCC1OC(OC(=O)C)C(OC(=O)C)C(OC(=O)C)C1OC(=O)C)C
accession=JP011491
date=2016.01.19 (Created 2008.10.21, modified 2011.05.06)
author=FUJISE Y, HAMAMATSU UNIV. SCHOOL OF MEDICINE
license=CC BY-NC-SA
exact mass=390.11621
ionization energy=70 eV
ion type=[M]+*
computed spectral entropy=4.158521248801943
computed normalized entropy=0.8570682832968489
SPLASH=splash10-0fr6-6930000000-9800b852e2198d41f783
submitter=submitter = University of Tokyo Team (Faculty of Engineering, University of Tokyo)
MoNA Rating=3.75

>  <NUM PEAKS>  (455) 
128

>  <MASS SPECTRAL PEAKS>  (455) 
39 2.72
40 6.52
41 15.22
42 10.2
43 68.03
44 46.56
45 7.4
53 2.76
54 2.14
55 15.06
56 5.33
57 21.66
58 1.33
60 8.78
61 8.83
67 3.7
68 5.13
69 32.63
70 13.63
71 14.7
72 1.33
73 33.33
74 2.82
78 1.19
79 1.17
80 8.09
81 31.89
82 7.39
83 7.97
84 5.36
85 16.26
86 11.22
87 2.63
88 1.05
89 1.55
93 2.24
94 3.4
95 4.75
96 4.27
97 32.76
98 69.15
99 21
100 2.29
101 5.56
102 10.53
103 54.66
104 4.31
105 1.3
107 3.3
109 35.67
110 5.48
111 5.02
112 11.32
113 8.89
114 17.75
115 77.17
117 19.12
118 2.39
121 2.37
122 1.92
123 3.25
124 1.13
125 4.39
126 17.78
127 26.04
128 4
129 3.71
131 8.09
135 1.6
136 3.29
137 3.87
138 1.89
139 15.76
140 60.61
141 11.46
142 1.65
143 10.02
144 5.45
145 50.85
146 4.05
147 1.25
149 17.86
150 2.19
151 1.03
153 1.64
155 6.74
156 3.66
157 81.95
158 48.4
159 5.6
161 1.01
167 9.68
168 10.25
169 59.05
170 6.74
171 2.66
173 1.27
182 12.33
183 2.04
185 2.65
186 4.63
187 5.42
197 6.3
199 24.69
200 68.32
201 9.46
202 1.14
203 6.51
210 4.03
211 8.73
212 1.25
215 2.54
224 1.06
228 5.32
229 5.76
242 99.99
243 32.44
244 5.67
245 18.14
246 3.12
256 2.87
270 2.28
271 1.15
276 7.01
280 1.43
288 2.93
331 59.78
332 14.79

$$$$

     RDKit          2D

 27 27  0  0  1  0  0  0  0  0999 V2000
   -6.5024   -0.4896    0.0000 C   0  0  0  0  0  0  0  0  0  0  0  0
    1.2730   -4.9889    0.0000 C   0  0  0  0  0  0  0  0  0  0  0  0
    5.1869   -1.2525    0.0000 C   0  0  0  0  0  0  0  0  0  0  0  0
    3.8940    4.0320    0.0000 C   0  0  0  0  0  0  0  0  0  0  0  0
   -1.3082    5.5241    0.0000 C   0  0  0  0  0  0  0  0  0  0  0  0
   -2.6054   -1.2402    0.0000 C   0  0  0  0  0  0  0  0  0  0  0  0
   -5.2035   -1.2398    0.0000 C   0  0  0  0  0  0  0  0  0  0  0  0
    1.2771   -3.4889    0.0000 C   0  0  0  0  0  0  0  0  0  0  0  0
    3.8904   -0.4982    0.0000 C   0  0  0  0  0  0  0  0  0  0  0  0
    2.5945    3.2828    0.0000 C   0  0  0  0  0  0  0  0  0  0  0  0
   -1.3030    4.0241    0.0000 C   0  0  0  0  0  0  0  0  0  0  0  0
   -1.3062   -0.4904    0.0000 C   0  0  0  0  0  0  0  0  0  0  0  0
   -0.0158   -1.2354    0.0000 C   0  0  0  0  0  0  0  0  0  0  0  0
    1.2923   -0.4896    0.0000 C   0  0  0  0  0  0  0  0  0  0  0  0
    1.2942    1.0336    0.0000 C   0  0  0  0  0  0  0  0  0  0  0  0
    0.0038    1.7786    0.0000 C   0  0  0  0  0  0  0  0  0  0  0  0
   -5.2037   -2.7398    0.0000 O   0  0  0  0  0  0  0  0  0  0  0  0
    2.5782   -2.7425    0.0000 O   0  0  0  0  0  0  0  0  0  0  0  0
    3.8954    1.0018    0.0000 O   0  0  0  0  0  0  0  0  0  0  0  0
    1.2960    4.0336    0.0000 O   0  0  0  0  0  0  0  0  0  0  0  0
   -2.5995    3.2696    0.0000 O   0  0  0  0  0  0  0  0  0  0  0  0
   -3.9043   -0.4900    0.0000 O   0  0  0  0  0  0  0  0  0  0  0  0
   -0.0199   -2.7354    0.0000 O   0  0  0  0  0  0  0  0  0  0  0  0
    2.5889   -1.2439    0.0000 O   0  0  0  0  0  0  0  0  0  0  0  0
    2.5936    1.7828    0.0000 O   0  0  0  0  0  0  0  0  0  0  0  0
   -0.0014    3.2786    0.0000 O   0  0  0  0  0  0  0  0  0  0  0  0
   -1.3057    1.0104    0.0000 O   0  0  0  0  0  0  0  0  0  0  0  0
  7  1  1  0
  8  2  1  0
  9  3  1  0
 10  4  1  0
 11  5  1  0
 12  6  1  1
 13 12  1  0
 14 13  1  0
 15 14  1  0
 16 15  1  0
 17  7  2  0
 18  8  2  0
 19  9  2  0
 20 10  2  0
 21 11  2  0
 22  6  1  0
 22  7  1  0
 23  8  1  0
 13 23  1  6
 24  9  1  0
 14 24  1  1
 25 10  1  0
 15 25  1  6
 26 11  1  0
 16 26  1  1
 27 12  1  0
 27 16  1  0
M  END
>  <NAME>  (456) 
B-D-GLUCOSE PENTAACETATE

>  <SYNONYMS>  (456) 


>  <SPECTRUM TYPE>  (456) 
MS1

>  <INSTRUMENT TYPE>  (456) 
EI-B

>  <INSTRUMENT>  (456) 
JEOL JMS-DX-300

>  <ION MODE>  (456) 
P

>  <INCHIKEY>  (456) 
LPTITAGPBXDDGR-IBEHDNSVSA-N

>  <FORMULA>  (456) 
C16H22O11

>  <EXACT MASS>  (456) 
390.116211524

>  <MW>  (456) 
390

>  <ID>  (456) 
JP011490

>  <CONTRIBUTOR>  (456) 
University of Tokyo Team, {Faculty of Engineering, University of Tokyo

>  <COMMENT>  (456) 
SMILES=CC(=O)OCC(O1)C(OC(C)=O)C(OC(C)=O)C(OC(C)=O)C(OC(C)=O)1
InChI=InChI=1S/C16H22O11/c1-7(17)22-6-12-13(23-8(2)18)14(24-9(3)19)15(25-10(4)20)16(27-12)26-11(5)21/h12-16H,6H2,1-5H3/t12-,13-,14+,15-,16-/m1/s1
computed SMILES=O=C(OCC1OC(OC(=O)C)C(OC(=O)C)C(OC(=O)C)C1OC(=O)C)C
accession=JP011490
date=2016.01.19 (Created 2008.10.21, modified 2011.05.06)
author=FUJISE Y, HAMAMATSU UNIV. SCHOOL OF MEDICINE
license=CC BY-NC-SA
exact mass=390.11621
ionization energy=70 eV
ion type=[M]+*
computed spectral entropy=4.399100037635778
computed normalized entropy=0.871133757342875
SPLASH=splash10-0k97-5930000000-e21c830a522243fe6a57
submitter=submitter = University of Tokyo Team (Faculty of Engineering, University of Tokyo)
MoNA Rating=3.75

>  <NUM PEAKS>  (456) 
156

>  <MASS SPECTRAL PEAKS>  (456) 
39 4.68
40 7.81
41 17.67
42 20.59
43 67.62
44 60.52
45 12.74
46 1.05
48 1.56
53 4.16
54 3.54
55 14.83
56 6.56
57 22.48
58 1.95
60 10.88
61 14.6
67 3.67
68 7.38
69 46.39
70 25.19
71 20.2
72 1.93
73 47.74
74 5.65
76 1.41
77 1.26
78 4.15
79 1.64
80 18.17
81 49.54
82 11.04
83 8.81
84 9.31
85 42.15
86 25.53
87 3.83
88 1.24
89 2.91
91 2.04
93 2.67
94 8.84
95 6.36
96 6.29
97 55.95
98 74.15
99 38.84
100 4.38
101 9.84
102 25.95
103 64.51
104 8.89
105 1.95
107 6.45
108 1.58
109 31.11
110 5.33
111 7.16
112 26.19
113 23.88
114 36.54
115 80.78
116 39.9
117 4.65
119 1.05
121 2.43
122 3.54
123 3.47
124 1.34
125 8.78
126 48
127 32.46
128 6.89
129 5.04
130 1.1
131 17.86
132 1.9
133 1.31
135 1.64
136 3.3
137 3.89
138 3.18
139 36.06
140 73.72
141 23.18
142 3.98
143 21.14
144 13.71
145 70.9
146 8.95
147 2.19
149 18.4
150 2.87
151 1
152 1
153 3.01
154 1.1
155 32.77
156 9.24
157 86.74
158 70.61
159 10.85
160 1.26
161 2.61
167 10.8
168 37.72
169 46.43
170 5.73
171 4.84
173 3.95
175 2.02
182 26.22
183 3.8
185 5.94
186 11.21
187 9.55
188 1.25
191 1.08
192 1.05
196 1.07
197 22.82
198 3.66
199 51.16
200 84.77
201 18.57
202 3.05
203 11.68
204 1.8
205 1.07
210 10.92
211 22.52
212 3.41
215 27.76
216 3.52
217 2.91
224 1.34
228 25.51
229 10.31
230 1.61
236 2.15
242 99.99
243 49.7
244 8.54
245 21.34
246 3.53
259 2.17
270 5.77
271 2.03
279 6.84
280 1.35
287 2.65
288 9
289 2.32
317 4.54
331 8.84
347 1.83

$$$$

     RDKit          2D

 27 27  0  0  0  0  0  0  0  0999 V2000
   -6.5024   -0.4896    0.0000 C   0  0  0  0  0  0  0  0  0  0  0  0
    1.2730   -4.9889    0.0000 C   0  0  0  0  0  0  0  0  0  0  0  0
    5.1869   -1.2525    0.0000 C   0  0  0  0  0  0  0  0  0  0  0  0
    3.8940    4.0320    0.0000 C   0  0  0  0  0  0  0  0  0  0  0  0
   -1.3082    5.5241    0.0000 C   0  0  0  0  0  0  0  0  0  0  0  0
   -2.6054   -1.2402    0.0000 C   0  0  0  0  0  0  0  0  0  0  0  0
   -5.2035   -1.2398    0.0000 C   0  0  0  0  0  0  0  0  0  0  0  0
    1.2771   -3.4889    0.0000 C   0  0  0  0  0  0  0  0  0  0  0  0
    3.8904   -0.4982    0.0000 C   0  0  0  0  0  0  0  0  0  0  0  0
    2.5945    3.2828    0.0000 C   0  0  0  0  0  0  0  0  0  0  0  0
   -1.3030    4.0241    0.0000 C   0  0  0  0  0  0  0  0  0  0  0  0
   -1.3062   -0.4904    0.0000 C   0  0  0  0  0  0  0  0  0  0  0  0
   -0.0158   -1.2354    0.0000 C   0  0  0  0  0  0  0  0  0  0  0  0
    1.2923   -0.4896    0.0000 C   0  0  0  0  0  0  0  0  0  0  0  0
    1.2942    1.0336    0.0000 C   0  0  0  0  0  0  0  0  0  0  0  0
    0.0038    1.7786    0.0000 C   0  0  0  0  0  0  0  0  0  0  0  0
   -5.2037   -2.7398    0.0000 O   0  0  0  0  0  0  0  0  0  0  0  0
    2.5782   -2.7425    0.0000 O   0  0  0  0  0  0  0  0  0  0  0  0
    3.8954    1.0018    0.0000 O   0  0  0  0  0  0  0  0  0  0  0  0
    1.2960    4.0336    0.0000 O   0  0  0  0  0  0  0  0  0  0  0  0
   -2.5995    3.2696    0.0000 O   0  0  0  0  0  0  0  0  0  0  0  0
   -3.9043   -0.4900    0.0000 O   0  0  0  0  0  0  0  0  0  0  0  0
   -0.0199   -2.7354    0.0000 O   0  0  0  0  0  0  0  0  0  0  0  0
    2.5889   -1.2439    0.0000 O   0  0  0  0  0  0  0  0  0  0  0  0
    2.5936    1.7828    0.0000 O   0  0  0  0  0  0  0  0  0  0  0  0
   -0.0014    3.2786    0.0000 O   0  0  0  0  0  0  0  0  0  0  0  0
   -1.3057    1.0104    0.0000 O   0  0  0  0  0  0  0  0  0  0  0  0
  7  1  1  0
  8  2  1  0
  9  3  1  0
 10  4  1  0
 11  5  1  0
 12  6  1  0
 13 12  1  0
 14 13  1  0
 15 14  1  0
 16 15  1  0
 17  7  2  0
 18  8  2  0
 19  9  2  0
 20 10  2  0
 21 11  2  0
 22  6  1  0
 22  7  1  0
 23  8  1  0
 23 13  1  0
 24  9  1  0
 24 14  1  0
 25 10  1  0
 25 15  1  0
 26 11  1  0
 26 16  1  0
 27 12  1  0
 27 16  1  0
M  END
>  <NAME>  (457) 
A-D-GLUCOSE PENTAACETATE

>  <SYNONYMS>  (457) 


>  <SPECTRUM TYPE>  (457) 
MS1

>  <INSTRUMENT TYPE>  (457) 
EI-B

>  <INSTRUMENT>  (457) 
JEOL JMS-DX-300

>  <ION MODE>  (457) 
P

>  <INCHIKEY>  (457) 
LPTITAGPBXDDGR-UHFFFAOYSA-N

>  <FORMULA>  (457) 
C16H22O11

>  <EXACT MASS>  (457) 
390.116211524

>  <MW>  (457) 
390

>  <ID>  (457) 
JP011489

>  <CONTRIBUTOR>  (457) 
University of Tokyo Team, {Faculty of Engineering, University of Tokyo

>  <COMMENT>  (457) 
SMILES=CC(=O)OCC([H])(O1)C([H])(OC(C)=O)C([H])(OC(C)=O)C([H])(OC(C)=O)C([H])(OC(C)=O)1
InChI=InChI=1S/C16H22O11/c1-7(17)22-6-12-13(23-8(2)18)14(24-9(3)19)15(25-10(4)20)16(27-12)26-11(5)21/h12-16H,6H2,1-5H3
computed SMILES=O=C(OCC1OC(OC(=O)C)C(OC(=O)C)C(OC(=O)C)C1OC(=O)C)C
accession=JP011489
date=2016.01.19 (Created 2008.10.21, modified 2011.05.06)
author=FUJISE Y, HAMAMATSU UNIV. SCHOOL OF MEDICINE
license=CC BY-NC-SA
exact mass=390.11621
ionization energy=70 eV
ion type=[M]+*
computed spectral entropy=4.132084938922174
computed normalized entropy=0.8516197785592851
SPLASH=splash10-0fr7-5930000000-4744f03cb713ca68d089
submitter=submitter = University of Tokyo Team (Faculty of Engineering, University of Tokyo)
MoNA Rating=3.75

>  <NUM PEAKS>  (457) 
128

>  <MASS SPECTRAL PEAKS>  (457) 
39 2.29
40 4.55
41 8.51
42 11.8
43 68.83
44 47.91
45 6.67
51 1.32
53 2.3
54 1.73
55 8.3
56 0.35
57 11.98
60 6.26
61 10.6
67 1.52
68 3.51
69 21.77
70 12.57
71 9.61
73 32.57
74 3.39
77 2.25
78 2.25
80 8.66
81 27.91
82 6.16
83 4.08
84 3.77
85 18.54
86 14.36
87 2.13
89 1.66
94 5.22
95 2.67
96 3.14
97 42.94
98 70.43
99 22.19
100 2.43
101 5.16
102 14.36
103 60.54
104 4.48
105 1.05
107 3.72
109 52.32
110 7.05
111 3.8
112 13.72
113 10.63
114 19.52
115 79.17
116 23.1
117 2.47
122 1.69
123 1.25
125 3.77
126 23
127 28.41
128 4.52
129 2.66
131 9.32
132 1.01
137 1.2
138 1.66
139 22.13
140 65.88
141 13.02
142 1.85
143 11.75
144 8.04
145 61.38
146 4.75
147 1
149 5.59
152 1.39
153 1.75
154 1.05
155 11.88
156 4.29
157 83.84
158 51.4
159 5.45
161 1.13
167 3.49
168 15.56
169 72.96
170 9.97
171 3.35
173 1.88
182 14.5
183 3.38
185 3.5
186 6.35
187 6.01
197 11.15
198 1.69
199 27.02
200 74.79
201 13.05
202 1.89
203 5.41
210 5.19
211 14.07
212 2.07
215 8.51
216 1.12
217 1.23
228 7.83
229 5.07
242 99.99
243 32.55
244 5.86
245 10.92
246 1.7
270 3.29
271 6.44
272 1.14
277 9.46
278 6.72
279 3.42
287 1.55
288 4.94
289 3.4
317 1.22
331 35.1
347 1.26

$$$$

     RDKit          2D

 26 28  0  0  0  0  0  0  0  0999 V2000
    0.0000    3.0000    0.0000 C   0  0  0  0  0  0  0  0  0  0  0  0
    2.5989   -1.5002    0.0000 C   0  0  0  0  0  0  0  0  0  0  0  0
   -7.7978   -7.5004    0.0000 C   0  0  0  0  0  0  0  0  0  0  0  0
  -10.3968   -3.0002    0.0000 C   0  0  0  0  0  0  0  0  0  0  0  0
    3.8981    0.7504    0.0000 C   0  0  0  0  0  0  0  0  0  0  0  0
  -11.6959   -5.2508    0.0000 C   0  0  0  0  0  0  0  0  0  0  0  0
   -2.5989   -3.0002    0.0000 C   0  0  0  0  0  0  0  0  0  0  0  0
   -3.8989   -0.7502    0.0000 C   0  0  0  0  0  0  0  0  0  0  0  0
   -3.8989   -3.7502    0.0000 C   0  0  0  0  0  0  0  0  0  0  0  0
   -5.1989   -1.5002    0.0000 C   0  0  0  0  0  0  0  0  0  0  0  0
   -1.3000    0.7500    0.0000 C   0  0  0  0  0  0  0  0  0  0  0  0
    0.0000   -1.5000    0.0000 C   0  0  0  0  0  0  0  0  0  0  0  0
   -6.4978   -5.2504    0.0000 C   0  0  0  0  0  0  0  0  0  0  0  0
   -7.7978   -3.0004    0.0000 C   0  0  0  0  0  0  0  0  0  0  0  0
    0.0000    1.5000    0.0000 C   0  0  0  0  0  0  0  0  0  0  0  0
    1.3000   -0.7500    0.0000 C   0  0  0  0  0  0  0  0  0  0  0  0
   -7.7978   -6.0004    0.0000 C   0  0  0  0  0  0  0  0  0  0  0  0
   -9.0978   -3.7504    0.0000 C   0  0  0  0  0  0  0  0  0  0  0  0
   -2.5989   -1.5002    0.0000 C   0  0  0  0  0  0  0  0  0  0  0  0
   -5.1989   -3.0002    0.0000 C   0  0  0  0  0  0  0  0  0  0  0  0
   -1.3000   -0.7500    0.0000 C   0  0  0  0  0  0  0  0  0  0  0  0
   -6.4978   -3.7504    0.0000 C   0  0  0  0  0  0  0  0  0  0  0  0
    1.3000    0.7500    0.0000 C   0  0  0  0  0  0  0  0  0  0  0  0
   -9.0978   -5.2504    0.0000 C   0  0  0  0  0  0  0  0  0  0  0  0
    2.5989    1.5002    0.0000 O   0  0  0  0  0  0  0  0  0  0  0  0
  -10.3968   -6.0006    0.0000 O   0  0  0  0  0  0  0  0  0  0  0  0
  9  7  2  0
 10  8  1  0
 15  1  1  0
 15 11  2  0
 16  2  1  0
 16 12  1  0
 17  3  1  0
 17 13  2  0
 18  4  1  0
 18 14  1  0
 19  7  1  0
 19  8  2  0
 20  9  1  0
 20 10  2  0
 21 11  1  0
 21 12  2  0
 21 19  1  0
 22 13  1  0
 22 14  2  0
 22 20  1  0
 23 15  1  0
 23 16  2  0
 24 17  1  0
 24 18  2  0
 25  5  1  0
 25 23  1  0
 26  6  1  0
 26 24  1  0
M  END
>  <NAME>  (458) 
4,4''-DI-METHOXY-3,5,3'',5''-TETRA-METHYL-TERPHENYL

>  <SYNONYMS>  (458) 


>  <SPECTRUM TYPE>  (458) 
MS1

>  <INSTRUMENT TYPE>  (458) 
EI-B

>  <INSTRUMENT>  (458) 
JEOL JMS-DX-300

>  <ION MODE>  (458) 
P

>  <INCHIKEY>  (458) 
NESXEOLYZMMQRA-UHFFFAOYSA-N

>  <FORMULA>  (458) 
C24H26O2

>  <EXACT MASS>  (458) 
346.193280072

>  <MW>  (458) 
346

>  <ID>  (458) 
JP011488

>  <CONTRIBUTOR>  (458) 
University of Tokyo Team, {Faculty of Engineering, University of Tokyo

>  <COMMENT>  (458) 
SMILES=COc(c(C)3)c(C)cc(c3)c(c2)ccc(c2)c(c1)cc(C)c(OC)c(C)1
InChI=InChI=1S/C24H26O2/c1-15-11-21(12-16(2)23(15)25-5)19-7-9-20(10-8-19)22-13-17(3)24(26-6)18(4)14-22/h7-14H,1-6H3
computed SMILES=O(C=1C(=CC(=CC1C)C=2C=CC(=CC2)C3=CC(=C(OC)C(=C3)C)C)C)C
accession=JP011488
date=2016.01.19 (Created 2008.10.21, modified 2011.05.06)
author=FUJISE Y, HAMAMATSU UNIV. SCHOOL OF MEDICINE
license=CC BY-NC-SA
exact mass=346.19328
ionization energy=70 eV
ion type=[M]+*
computed spectral entropy=2.427366970147351
computed normalized entropy=0.6625702539253658
SPLASH=splash10-000t-0109000000-bb0add4f227d353d0005
submitter=submitter = University of Tokyo Team (Faculty of Engineering, University of Tokyo)
MoNA Rating=3.75

>  <NUM PEAKS>  (458) 
39

>  <MASS SPECTRAL PEAKS>  (458) 
41 2.53
77 1.34
91 2.95
115 1.73
121 1
128 1.84
143 1.49
144 1.84
150 1.25
152 2.23
153 1.15
158 6.47
159 1.59
165 3.15
166 3.15
167 1.24
173 7.68
178 1.69
179 1.26
189 1.44
202 1.89
203 1.48
215 2.65
229 2.03
230 1.1
245 1.38
257 1.07
273 2.36
288 2.4
300 1.02
315 1.76
316 9.05
317 2.51
331 51.13
332 12.57
333 1.86
346 99.99
347 26.63
348 3.21

$$$$

     RDKit          2D

 16 17  0  0  0  0  0  0  0  0999 V2000
   -3.9180   -0.7714    0.0000 C   0  0  0  0  0  0  0  0  0  0  0  0
    7.8207    3.0150    0.0000 C   0  0  0  0  0  0  0  0  0  0  0  0
    1.3000   -0.7500    0.0000 C   0  0  0  0  0  0  0  0  0  0  0  0
    0.0300    1.5000    0.0000 C   0  0  0  0  0  0  0  0  0  0  0  0
    2.6027    2.9936    0.0000 C   0  0  0  0  0  0  0  0  0  0  0  0
    3.8727    0.7436    0.0000 C   0  0  0  0  0  0  0  0  0  0  0  0
    0.0300   -1.5000    0.0000 C   0  0  0  0  0  0  0  0  0  0  0  0
   -1.3200    0.7500    0.0000 C   0  0  0  0  0  0  0  0  0  0  0  0
    3.8727    3.7436    0.0000 C   0  0  0  0  0  0  0  0  0  0  0  0
    5.2227    1.4936    0.0000 C   0  0  0  0  0  0  0  0  0  0  0  0
    1.3000    0.7500    0.0000 C   0  0  0  0  0  0  0  0  0  0  0  0
    2.6027    1.4936    0.0000 C   0  0  0  0  0  0  0  0  0  0  0  0
   -1.3200   -0.7500    0.0000 C   0  0  0  0  0  0  0  0  0  0  0  0
    5.2227    2.9936    0.0000 C   0  0  0  0  0  0  0  0  0  0  0  0
   -2.6128   -1.5107    0.0000 O   0  0  0  0  0  0  0  0  0  0  0  0
    6.5155    3.7543    0.0000 O   0  0  0  0  0  0  0  0  0  0  0  0
  7  3  2  0
  8  4  1  0
  9  5  2  0
 10  6  1  0
 11  3  1  0
 11  4  2  0
 12  5  1  0
 12  6  2  0
 12 11  1  0
 13  7  1  0
 13  8  2  0
 14  9  1  0
 14 10  2  0
 15  1  1  0
 15 13  1  0
 16  2  1  0
 16 14  1  0
M  END
>  <NAME>  (459) 
4,4'-DI-METHOXY-BIPHENYL

>  <SYNONYMS>  (459) 


>  <SPECTRUM TYPE>  (459) 
MS1

>  <INSTRUMENT TYPE>  (459) 
EI-B

>  <INSTRUMENT>  (459) 
JEOL JMS-DX-300

>  <ION MODE>  (459) 
P

>  <INCHIKEY>  (459) 
UIMPAOAAAYDUKQ-UHFFFAOYSA-N

>  <FORMULA>  (459) 
C14H14O2

>  <EXACT MASS>  (459) 
214.099379688

>  <MW>  (459) 
214

>  <ID>  (459) 
JP011487

>  <CONTRIBUTOR>  (459) 
University of Tokyo Team, {Faculty of Engineering, University of Tokyo

>  <COMMENT>  (459) 
SMILES=COc(c2)ccc(c2)c(c1)ccc(OC)c1
InChI=InChI=1S/C14H14O2/c1-15-13-7-3-11(4-8-13)12-5-9-14(16-2)10-6-12/h3-10H,1-2H3
computed SMILES=O(C=1C=CC(=CC1)C2=CC=C(OC)C=C2)C
accession=JP011487
date=2016.01.19 (Created 2008.10.21, modified 2011.05.06)
author=FUJISE Y, HAMAMATSU UNIV. SCHOOL OF MEDICINE
license=CC BY-NC-SA
exact mass=214.09938
ionization energy=70 eV
ion type=[M]+*
computed spectral entropy=2.8296781239646687
computed normalized entropy=0.7161487181004814
SPLASH=splash10-03dj-1950000000-89d83f8036414d19fc85
submitter=submitter = University of Tokyo Team (Faculty of Engineering, University of Tokyo)
MoNA Rating=3.75

>  <NUM PEAKS>  (459) 
52

>  <MASS SPECTRAL PEAKS>  (459) 
39 2.62
41 1.55
43 1.34
50 1.8
51 2.85
55 1.11
57 1.08
62 1.49
63 4.47
69 1.96
74 1.8
75 3.32
76 3.27
77 2.97
78 1.57
87 1.52
88 1
89 2.79
91 1.02
101 1.77
102 6.87
103 1.05
107 5.86
113 1.64
114 1.3
115 3.3
126 2.5
127 6.5
128 22.2
129 2.66
139 9.56
140 4.64
141 2.32
145 1.24
152 2.33
153 1.24
155 2.19
156 11.28
157 1.87
168 2.31
169 1.13
171 30.06
172 4.25
183 1.72
185 1.2
199 76.57
200 12.52
201 1.17
211 3.19
214 99.99
215 17.46
216 1.49

$$$$

     RDKit          2D

 12 12  0  0  0  0  0  0  0  0999 V2000
    0.0100    1.8800    0.0000 C   0  0  0  0  0  0  0  0  0  0  0  0
    1.3000    1.1200    0.0000 C   0  0  0  0  0  0  0  0  0  0  0  0
   -1.3000    1.1200    0.0000 C   0  0  0  0  0  0  0  0  0  0  0  0
    1.3000   -0.3800    0.0000 C   0  0  0  0  0  0  0  0  0  0  0  0
   -1.3000   -0.3800    0.0000 C   0  0  0  0  0  0  0  0  0  0  0  0
    2.6002   -1.1280    0.0000 C   0  0  0  0  0  0  0  0  0  0  0  0
   -2.5977   -1.1324    0.0000 C   0  0  0  0  0  0  0  0  0  0  0  0
    0.0100   -1.1300    0.0000 N   0  0  0  0  0  0  0  0  0  0  0  0
    3.8981   -0.3761    0.0000 O   0  0  0  0  0  0  0  0  0  0  0  0
    2.6024   -2.6280    0.0000 O   0  0  0  0  0  0  0  0  0  0  0  0
   -2.5950   -2.6324    0.0000 O   0  0  0  0  0  0  0  0  0  0  0  0
   -3.8981   -0.3847    0.0000 O   0  0  0  0  0  0  0  0  0  0  0  0
  2  1  2  0
  3  1  1  0
  4  2  1  0
  5  3  2  0
  6  4  1  0
  7  5  1  0
  8  4  2  0
  8  5  1  0
  9  6  1  0
 10  6  2  0
 11  7  2  0
 12  7  1  0
M  END
>  <NAME>  (460) 
2,6-DI-CARBOXY-PYRIDINE

>  <SYNONYMS>  (460) 


>  <SPECTRUM TYPE>  (460) 
MS1

>  <INSTRUMENT TYPE>  (460) 
EI-B

>  <INSTRUMENT>  (460) 
JEOL JMS-DX-300

>  <ION MODE>  (460) 
P

>  <INCHIKEY>  (460) 
WJJMNDUMQPNECX-UHFFFAOYSA-N

>  <FORMULA>  (460) 
C7H5NO4

>  <EXACT MASS>  (460) 
167.02185764

>  <MW>  (460) 
167

>  <ID>  (460) 
JP011486

>  <CONTRIBUTOR>  (460) 
University of Tokyo Team, {Faculty of Engineering, University of Tokyo

>  <COMMENT>  (460) 
SMILES=OC(=O)c(c1)nc(cc1)C(O)=O
InChI=InChI=1S/C7H5NO4/c9-6(10)4-2-1-3-5(8-4)7(11)12/h1-3H,(H,9,10)(H,11,12)
computed SMILES=O=C(O)C=1N=C(C=CC1)C(=O)O
accession=JP011486
date=2016.01.19 (Created 2008.10.21, modified 2011.05.06)
author=FUJISE Y, HAMAMATSU UNIV. SCHOOL OF MEDICINE
license=CC BY-NC-SA
exact mass=167.02186
ionization energy=70 eV
ion type=[M]+*
computed spectral entropy=3.492590811015018
computed normalized entropy=0.8193415672206639
SPLASH=splash10-0kor-9400000000-4be19de76ddc678df43f
submitter=submitter = University of Tokyo Team (Faculty of Engineering, University of Tokyo)
MoNA Rating=3.75

>  <NUM PEAKS>  (460) 
71

>  <MASS SPECTRAL PEAKS>  (460) 
36 2.65
37 2.83
38 5.25
39 12.04
40 2.86
41 20.93
42 3.62
43 14.65
44 10.56
45 24.27
49 4.66
50 26.44
51 38.02
52 18.58
53 8.38
54 2.09
55 12.23
56 3.62
57 9.9
59 0.12
60 6.26
61 1.43
65 2.39
66 6.22
67 6.44
68 6.13
69 19.58
70 3.82
71 3.67
73 5.15
74 1.24
75 7.25
76 13.34
77 59.69
78 18.84
79 7.34
80 1.77
81 12.69
82 3.27
83 4.86
84 2.3
85 2.48
87 1.22
91 1.87
93 3.84
94 7.8
95 5.74
96 2.38
97 3.17
98 1.86
99 1.03
104 1.56
105 71.81
106 5.39
107 2.51
109 2.68
111 2.35
119 1.01
121 3.2
122 6.19
123 99.99
124 7.23
125 1.33
129 1.96
134 1.17
135 1.93
136 3.57
137 3.43
149 2.98
150 1.33
167 1.35

$$$$

     RDKit          2D

 17 17  0  0  0  0  0  0  0  0999 V2000
   -6.4962    0.7506    0.0000 C   0  0  0  0  0  0  0  0  0  0  0  0
    6.4962    0.7506    0.0000 C   0  0  0  0  0  0  0  0  0  0  0  0
   -5.1970    1.5004    0.0000 C   0  0  0  0  0  0  0  0  0  0  0  0
    5.1970    1.5004    0.0000 C   0  0  0  0  0  0  0  0  0  0  0  0
   -1.3000   -0.7502    0.0000 C   0  0  0  0  0  0  0  0  0  0  0  0
    1.3000   -0.7502    0.0000 C   0  0  0  0  0  0  0  0  0  0  0  0
    0.0000   -1.5002    0.0000 C   0  0  0  0  0  0  0  0  0  0  0  0
   -1.3000    0.7498    0.0000 C   0  0  0  0  0  0  0  0  0  0  0  0
    1.3000    0.7498    0.0000 C   0  0  0  0  0  0  0  0  0  0  0  0
   -2.5989    1.5000    0.0000 C   0  0  0  0  0  0  0  0  0  0  0  0
    2.5989    1.5000    0.0000 C   0  0  0  0  0  0  0  0  0  0  0  0
    0.0000   -3.0002    0.0000 Cl  0  0  0  0  0  0  0  0  0  0  0  0
    0.0000    1.4998    0.0000 N   0  0  0  0  0  0  0  0  0  0  0  0
   -2.5987    3.0000    0.0000 O   0  0  0  0  0  0  0  0  0  0  0  0
    2.5987    3.0000    0.0000 O   0  0  0  0  0  0  0  0  0  0  0  0
   -3.8981    0.7502    0.0000 O   0  0  0  0  0  0  0  0  0  0  0  0
    3.8981    0.7502    0.0000 O   0  0  0  0  0  0  0  0  0  0  0  0
  3  1  1  0
  4  2  1  0
  7  5  2  0
  7  6  1  0
  8  5  1  0
  9  6  2  0
 10  8  1  0
 11  9  1  0
 12  7  1  0
 13  8  2  0
 13  9  1  0
 14 10  2  0
 15 11  2  0
 16  3  1  0
 16 10  1  0
 17  4  1  0
 17 11  1  0
M  END
>  <NAME>  (461) 
2,6-DIETHOXYCARBONYL-4-CHLORO-PYRIDINE

>  <SYNONYMS>  (461) 


>  <SPECTRUM TYPE>  (461) 
MS1

>  <INSTRUMENT TYPE>  (461) 
EI-B

>  <INSTRUMENT>  (461) 
JEOL JMS-DX-300

>  <ION MODE>  (461) 
P

>  <INCHIKEY>  (461) 
XQVRVZXJZVVBLW-UHFFFAOYSA-N

>  <FORMULA>  (461) 
C11H12ClNO4

>  <EXACT MASS>  (461) 
257.04548554400003

>  <MW>  (461) 
257

>  <ID>  (461) 
JP011485

>  <CONTRIBUTOR>  (461) 
University of Tokyo Team, {Faculty of Engineering, University of Tokyo

>  <COMMENT>  (461) 
SMILES=CCOC(=O)c(c1)nc(cc(Cl)1)C(=O)OCC
InChI=InChI=1S/C11H12ClNO4/c1-3-16-10(14)8-5-7(12)6-9(13-8)11(15)17-4-2/h5-6H,3-4H2,1-2H3
computed SMILES=O=C(OCC)C=1N=C(C=C(Cl)C1)C(=O)OCC
accession=JP011485
date=2016.01.19 (Created 2008.10.21, modified 2011.05.06)
author=FUJISE Y, HAMAMATSU UNIV. SCHOOL OF MEDICINE
license=CC BY-NC-SA
exact mass=257.04549
ionization energy=70 eV
ion type=[M]+*
computed spectral entropy=3.3768050723351437
computed normalized entropy=0.8002841346142792
SPLASH=splash10-000i-2900000000-98167a2cf44165295d33
submitter=submitter = University of Tokyo Team (Faculty of Engineering, University of Tokyo)
MoNA Rating=3.75

>  <NUM PEAKS>  (461) 
68

>  <MASS SPECTRAL PEAKS>  (461) 
36 2.29
38 1.63
39 1.64
40 1.93
42 1.09
43 7.27
44 3.28
45 7.14
49 2.41
50 10.02
51 4.8
52 2.38
53 6.42
57 1.17
60 4.48
61 1.34
62 4.36
63 1.07
64 4.96
65 2.23
66 1.34
69 1.76
73 5.87
75 11.36
76 47.73
77 10.58
78 6.91
79 1.07
83 2.32
84 1.33
85 3.28
86 1.26
87 1.5
92 3.67
100 5.34
102 2.68
103 1.73
104 6.01
105 1.29
110 1.3
111 39.28
112 25.07
113 40.98
114 10.55
115 9.34
128 10.03
129 1.14
130 3.63
138 3.66
139 75.62
140 27.71
141 37.78
142 8.84
143 1.09
149 1.2
156 9.66
157 57.76
158 10.92
159 19.58
160 2.82
184 40.95
185 99.99
186 47.06
187 84.72
242 3.15
257 7.22
258 2.54
259 2.54

$$$$

     RDKit          2D

 20 21  0  0  0  0  0  0  0  0999 V2000
   -3.8989   -5.2502    0.0000 C   0  0  0  0  0  0  0  0  0  0  0  0
   -6.4978   -0.7500    0.0000 C   0  0  0  0  0  0  0  0  0  0  0  0
    0.0000    3.0000    0.0000 C   0  0  0  0  0  0  0  0  0  0  0  0
    2.5989   -1.5002    0.0000 C   0  0  0  0  0  0  0  0  0  0  0  0
   -7.7970   -3.0006    0.0000 C   0  0  0  0  0  0  0  0  0  0  0  0
    3.8981    0.7504    0.0000 C   0  0  0  0  0  0  0  0  0  0  0  0
   -2.5989   -3.0002    0.0000 C   0  0  0  0  0  0  0  0  0  0  0  0
   -3.8989   -0.7502    0.0000 C   0  0  0  0  0  0  0  0  0  0  0  0
   -1.3000    0.7500    0.0000 C   0  0  0  0  0  0  0  0  0  0  0  0
   -0.0000   -1.5000    0.0000 C   0  0  0  0  0  0  0  0  0  0  0  0
   -3.8989   -3.7502    0.0000 C   0  0  0  0  0  0  0  0  0  0  0  0
   -5.1989   -1.5002    0.0000 C   0  0  0  0  0  0  0  0  0  0  0  0
    0.0000    1.5000    0.0000 C   0  0  0  0  0  0  0  0  0  0  0  0
    1.3000   -0.7500    0.0000 C   0  0  0  0  0  0  0  0  0  0  0  0
   -2.5989   -1.5002    0.0000 C   0  0  0  0  0  0  0  0  0  0  0  0
   -1.3000   -0.7500    0.0000 C   0  0  0  0  0  0  0  0  0  0  0  0
   -5.1989   -3.0002    0.0000 C   0  0  0  0  0  0  0  0  0  0  0  0
    1.3000    0.7500    0.0000 C   0  0  0  0  0  0  0  0  0  0  0  0
   -6.4978   -3.7504    0.0000 O   0  0  0  0  0  0  0  0  0  0  0  0
    2.5989    1.5002    0.0000 O   0  0  0  0  0  0  0  0  0  0  0  0
 11  1  1  0
 11  7  2  0
 12  2  1  0
 12  8  1  0
 13  3  1  0
 13  9  2  0
 14  4  1  0
 14 10  1  0
 15  7  1  0
 15  8  2  0
 16  9  1  0
 16 10  2  0
 16 15  1  0
 17 11  1  0
 17 12  2  0
 18 13  1  0
 18 14  2  0
 19  5  1  0
 19 17  1  0
 20  6  1  0
 20 18  1  0
M  END
>  <NAME>  (462) 
3,3',5,5'-TETRAMETHYL-4,4'-DIMETHOXY-1,1'-BIPHENYL

>  <SYNONYMS>  (462) 


>  <SPECTRUM TYPE>  (462) 
MS1

>  <INSTRUMENT TYPE>  (462) 
EI-B

>  <INSTRUMENT>  (462) 
JEOL JMS-DX-300

>  <ION MODE>  (462) 
P

>  <INCHIKEY>  (462) 
LZRFEVSDBKMZJX-UHFFFAOYSA-N

>  <FORMULA>  (462) 
C18H22O2

>  <EXACT MASS>  (462) 
270.161979944

>  <MW>  (462) 
270

>  <ID>  (462) 
JP011484

>  <CONTRIBUTOR>  (462) 
University of Tokyo Team, {Faculty of Engineering, University of Tokyo

>  <COMMENT>  (462) 
SMILES=COc(c(C)2)c(C)cc(c2)c(c1)cc(C)c(OC)c(C)1
InChI=InChI=1S/C18H22O2/c1-11-7-15(8-12(2)17(11)19-5)16-9-13(3)18(20-6)14(4)10-16/h7-10H,1-6H3
computed SMILES=O(C=1C(=CC(=CC1C)C=2C=C(C(OC)=C(C2)C)C)C)C
accession=JP011484
date=2016.01.19 (Created 2008.10.21, modified 2011.05.06)
author=FUJISE Y, HAMAMATSU UNIV. SCHOOL OF MEDICINE
license=CC BY-NC-SA
exact mass=270.16198
ionization energy=70 eV
ion type=[M]+*
computed spectral entropy=2.2974392767518665
computed normalized entropy=0.6228013968278907
SPLASH=splash10-05fr-0190000000-7d3e1e5cb5d08b37d16f
submitter=submitter = University of Tokyo Team (Faculty of Engineering, University of Tokyo)
MoNA Rating=3.75

>  <NUM PEAKS>  (462) 
40

>  <MASS SPECTRAL PEAKS>  (462) 
41 1.27
43 1.01
44 1.65
77 0.98
91 1.74
105 1.41
115 1.8
120 1.79
128 2.14
129 1.35
135 2.91
141 1.81
152 1.77
153 2.25
154 1.39
165 3.17
166 1.23
167 1.71
169 1.93
178 0.98
179 1.44
181 2.4
182 1.64
185 1.81
195 1
196 1.39
197 3.19
209 1.51
211 1.26
212 2.91
224 1.26
225 1.61
227 2.13
239 2.14
240 4.46
241 1.85
255 64.62
256 16.33
270 99.99
271 26.54

$$$$

     RDKit          2D

 18 19  0  0  0  0  0  0  0  0999 V2000
    2.4562    0.9086    0.0000 C   0  0  0  0  0  0  0  0  0  0  0  0
    0.3305    3.0136    0.0000 C   0  0  0  0  0  0  0  0  0  0  0  0
    1.3400   -0.0934    0.0000 C   0  0  0  0  0  0  0  0  0  0  0  0
   -6.5073   -6.5008    0.0000 C   0  0  0  0  0  0  0  0  0  0  0  0
   -5.2087   -7.2532    0.0000 C   0  0  0  0  0  0  0  0  0  0  0  0
   -6.5059   -5.0000    0.0000 C   0  0  0  0  0  0  0  0  0  0  0  0
   -3.9087   -6.5048    0.0000 C   0  0  0  0  0  0  0  0  0  0  0  0
   -5.2059   -4.2516    0.0000 C   0  0  0  0  0  0  0  0  0  0  0  0
   -2.0516    1.7944    0.0000 C   0  0  0  0  0  0  0  0  0  0  0  0
   -2.6074   -4.2556    0.0000 C   0  0  0  0  0  0  0  0  0  0  0  0
   -0.5494    1.7988    0.0000 C   0  0  0  0  0  0  0  0  0  0  0  0
   -3.9073   -5.0040    0.0000 C   0  0  0  0  0  0  0  0  0  0  0  0
   -0.0859    0.3722    0.0000 C   0  0  0  0  0  0  0  0  0  0  0  0
   -1.3037   -0.5072    0.0000 C   0  0  0  0  0  0  0  0  0  0  0  0
   -1.3056   -2.0072    0.0000 C   0  0  0  0  0  0  0  0  0  0  0  0
   -2.5146    0.3716    0.0000 N   0  0  0  0  0  0  0  0  0  0  0  0
   -0.0075   -2.7588    0.0000 O   0  0  0  0  0  0  0  0  0  0  0  0
   -2.6055   -2.7556    0.0000 O   0  0  0  0  0  0  0  0  0  0  0  0
  3  1  1  0
  5  4  2  0
  6  4  1  0
  7  5  1  0
  8  6  2  0
 11  2  1  0
 11  9  2  0
 12  7  2  0
 12  8  1  0
 12 10  1  0
 13  3  1  0
 13 11  1  0
 14 13  2  0
 15 14  1  0
 16  9  1  0
 16 14  1  0
 17 15  2  0
 18 10  1  0
 18 15  1  0
M  END
>  <NAME>  (463) 
BENZYL 3-ETHYL-4-METHYL-PYRROLE-2-CARBOXYLATE

>  <SYNONYMS>  (463) 


>  <SPECTRUM TYPE>  (463) 
MS1

>  <INSTRUMENT TYPE>  (463) 
EI-B

>  <INSTRUMENT>  (463) 
JEOL JMS-DX-300

>  <ION MODE>  (463) 
P

>  <INCHIKEY>  (463) 
QQDVJEVOWNBCDV-UHFFFAOYSA-N

>  <FORMULA>  (463) 
C15H17NO2

>  <EXACT MASS>  (463) 
243.125928784

>  <MW>  (463) 
243

>  <ID>  (463) 
JP011483

>  <CONTRIBUTOR>  (463) 
University of Tokyo Team, {Faculty of Engineering, University of Tokyo

>  <COMMENT>  (463) 
SMILES=CCC1=C(NC=C1C)C(=O)OCC2=CC=CC=C2
InChI=InChI=1S/C15H17NO2/c1-3-13-11(2)9-16-14(13)15(17)18-10-12-7-5-4-6-8-12/h4-9,16H,3,10H2,1-2H3
computed SMILES=O=C(OCC=1C=CC=CC1)C=2NC=C(C2CC)C
accession=JP011483
date=2016.01.19 (Created 2008.10.21, modified 2011.05.06)
author=FUJISE Y, HAMAMATSU UNIV. SCHOOL OF MEDICINE
license=CC BY-NC-SA
exact mass=243.12593
ionization energy=70 eV
ion type=[M]+*
computed spectral entropy=3.530348965017377
computed normalized entropy=0.8553995667816874
SPLASH=splash10-0f6x-9200000000-9a9259808eb0822157d8
submitter=submitter = University of Tokyo Team (Faculty of Engineering, University of Tokyo)
MoNA Rating=3.75

>  <NUM PEAKS>  (463) 
62

>  <MASS SPECTRAL PEAKS>  (463) 
37 1.4
38 6.03
39 55.04
40 9.63
41 28.43
42 5.57
43 2.08
44 1.06
50 9.92
51 32.68
52 22.1
53 28.41
54 4.64
55 3.2
62 3.55
63 15.94
64 7.57
65 66.61
66 23.28
67 10.81
68 3.63
69 1.15
74 1.19
75 1.9
76 2.67
77 39.27
78 15.09
79 30.84
80 12.76
81 6.07
82 1.45
89 11.19
90 8.98
91 99.99
92 24.5
93 37.7
94 8.57
96 1.27
104 4.38
105 7.28
106 22.44
107 16.49
108 13.03
109 8.26
119 1.16
120 6.73
121 1.35
122 1.79
133 1.65
134 23.27
135 3.89
136 23.55
137 2.95
138 2.1
152 32.39
153 3.7
168 1.14
184 2.59
198 1.88
228 1.81
243 17.76
244 3.11

$$$$

     RDKit          2D

 22 23  0  0  0  0  0  0  0  0999 V2000
   -3.1239    2.0857    0.0000 C   0  0  0  0  0  0  0  0  0  0  0  0
   -6.2899    0.7030    0.0000 C   0  0  0  0  0  0  0  0  0  0  0  0
    1.6322    2.2431    0.0000 C   0  0  0  0  0  0  0  0  0  0  0  0
   -1.6322    2.2431    0.0000 C   0  0  0  0  0  0  0  0  0  0  0  0
   -5.1777   -0.3035    0.0000 C   0  0  0  0  0  0  0  0  0  0  0  0
    5.3275   -7.1757    0.0000 C   0  0  0  0  0  0  0  0  0  0  0  0
    6.4407   -6.1690    0.0000 C   0  0  0  0  0  0  0  0  0  0  0  0
    3.8989   -6.7159    0.0000 C   0  0  0  0  0  0  0  0  0  0  0  0
    6.1252   -4.7026    0.0000 C   0  0  0  0  0  0  0  0  0  0  0  0
    3.5834   -5.2495    0.0000 C   0  0  0  0  0  0  0  0  0  0  0  0
    4.3810   -2.7764    0.0000 C   0  0  0  0  0  0  0  0  0  0  0  0
   -2.6377   -0.8500    0.0000 C   0  0  0  0  0  0  0  0  0  0  0  0
    0.7500    1.0300    0.0000 C   0  0  0  0  0  0  0  0  0  0  0  0
    4.6965   -4.2428    0.0000 C   0  0  0  0  0  0  0  0  0  0  0  0
   -0.7500    1.0300    0.0000 C   0  0  0  0  0  0  0  0  0  0  0  0
   -1.2100   -0.3900    0.0000 C   0  0  0  0  0  0  0  0  0  0  0  0
    1.2100   -0.3900    0.0000 C   0  0  0  0  0  0  0  0  0  0  0  0
    2.6377   -0.8500    0.0000 C   0  0  0  0  0  0  0  0  0  0  0  0
    0.0000   -1.2800    0.0000 N   0  0  0  0  0  0  0  0  0  0  0  0
    3.7499    0.1565    0.0000 O   0  0  0  0  0  0  0  0  0  0  0  0
   -3.7499    0.1565    0.0000 O   0  0  0  0  0  0  0  0  0  0  0  0
    2.9533   -2.3164    0.0000 O   0  0  0  0  0  0  0  0  0  0  0  0
  4  1  1  0
  5  2  1  0
  7  6  2  0
  8  6  1  0
  9  7  1  0
 10  8  2  0
 13  3  1  0
 14  9  2  0
 14 10  1  0
 14 11  1  0
 15  4  1  0
 15 13  1  0
 16 12  1  0
 16 15  2  0
 17 13  2  0
 18 17  1  0
 19 16  1  0
 19 17  1  0
 20 18  2  0
 21  5  1  0
 21 12  1  0
 22 11  1  0
 22 18  1  0
M  END
>  <NAME>  (464) 
BENZYL 5-ETHOXYMETHYL-4-ETHYL-3-METHYL-2-CARBOXYLATE

>  <SYNONYMS>  (464) 


>  <SPECTRUM TYPE>  (464) 
MS1

>  <INSTRUMENT TYPE>  (464) 
EI-B

>  <INSTRUMENT>  (464) 
JEOL JMS-DX-300

>  <ION MODE>  (464) 
P

>  <INCHIKEY>  (464) 
NAHUUKINEAKKQM-UHFFFAOYSA-N

>  <FORMULA>  (464) 
C18H23NO3

>  <EXACT MASS>  (464) 
301.16779359599997

>  <MW>  (464) 
301

>  <ID>  (464) 
JP011482

>  <CONTRIBUTOR>  (464) 
University of Tokyo Team, {Faculty of Engineering, University of Tokyo

>  <COMMENT>  (464) 
SMILES=CCC1=C(NC(=C1C)C(=O)OCC2=CC=CC=C2)COCC
InChI=InChI=1S/C18H23NO3/c1-4-15-13(3)17(19-16(15)12-21-5-2)18(20)22-11-14-9-7-6-8-10-14/h6-10,19H,4-5,11-12H2,1-3H3
computed SMILES=O=C(OCC=1C=CC=CC1)C=2NC(=C(C2C)CC)COCC
accession=JP011482
date=2016.01.19 (Created 2008.10.21, modified 2011.05.06)
author=FUJISE Y, HAMAMATSU UNIV. SCHOOL OF MEDICINE
license=CC BY-NC-SA
exact mass=301.16779
ionization energy=70 eV
ion type=[M]+*
computed spectral entropy=3.5483506177752
computed normalized entropy=0.8030048903584559
SPLASH=splash10-0f6x-9422000000-78c416f234986cfb0528
submitter=submitter = University of Tokyo Team (Faculty of Engineering, University of Tokyo)
MoNA Rating=3.75

>  <NUM PEAKS>  (464) 
83

>  <MASS SPECTRAL PEAKS>  (464) 
36 2.6
39 6.27
40 3.06
41 8.04
42 2.8
43 6.6
44 6.11
45 1.34
51 3.05
52 1.7
53 3.52
54 1.36
55 3.28
56 3.17
57 6.42
63 1.66
65 13.78
66 2.49
67 2.43
69 2.03
71 1.59
77 8.88
78 2.49
79 6.39
80 1.6
81 1.59
82 1.17
83 3.23
85 1.88
89 2.18
90 2.05
91 99.99
92 13.82
93 3.76
94 3.44
95 1.43
97 1.09
104 2.5
105 2.62
106 3.22
107 2.47
108 1.64
118 1.46
119 1.63
120 5.84
121 8.98
122 8.56
123 1.3
134 1.48
136 1.33
138 1.66
146 2.11
147 1.39
148 6.62
149 4.63
150 1.18
151 1.12
162 2.29
164 9.45
165 1.51
166 6.58
167 12.92
168 1.48
180 2.72
182 1.38
194 5.17
195 1
210 11.04
211 1.58
212 2.23
238 1.19
240 1.03
242 3.29
254 2.22
255 3.31
256 36.69
257 6.59
271 3.68
272 5.03
300 1.23
301 60.13
302 12.38
303 1.63

$$$$

     RDKit          2D

 12 12  0  0  0  0  0  0  0  0999 V2000
   -4.6965   -4.2428    0.0000 C   0  0  0  0  0  0  0  0  0  0  0  0
   -1.6322    2.2431    0.0000 C   0  0  0  0  0  0  0  0  0  0  0  0
    2.6377   -0.8500    0.0000 C   0  0  0  0  0  0  0  0  0  0  0  0
   -4.3810   -2.7764    0.0000 C   0  0  0  0  0  0  0  0  0  0  0  0
    0.7500    1.0300    0.0000 C   0  0  0  0  0  0  0  0  0  0  0  0
   -0.7500    1.0300    0.0000 C   0  0  0  0  0  0  0  0  0  0  0  0
    1.2100   -0.3900    0.0000 C   0  0  0  0  0  0  0  0  0  0  0  0
   -1.2100   -0.3900    0.0000 C   0  0  0  0  0  0  0  0  0  0  0  0
   -2.6377   -0.8500    0.0000 C   0  0  0  0  0  0  0  0  0  0  0  0
   -0.0000   -1.2800    0.0000 N   0  0  0  0  0  0  0  0  0  0  0  0
   -3.7499    0.1565    0.0000 O   0  0  0  0  0  0  0  0  0  0  0  0
   -2.9533   -2.3164    0.0000 O   0  0  0  0  0  0  0  0  0  0  0  0
  4  1  1  0
  6  2  1  0
  6  5  1  0
  7  3  1  0
  7  5  2  0
  8  6  2  0
  9  8  1  0
 10  7  1  0
 10  8  1  0
 11  9  2  0
 12  4  1  0
 12  9  1  0
M  END
>  <NAME>  (465) 
ETHYL 3-METHYL-5-METHYLPYRROLE-2-CARBOXYLATE

>  <SYNONYMS>  (465) 


>  <SPECTRUM TYPE>  (465) 
MS1

>  <INSTRUMENT TYPE>  (465) 
EI-B

>  <INSTRUMENT>  (465) 
JEOL JMS-DX-300

>  <ION MODE>  (465) 
P

>  <INCHIKEY>  (465) 
IZSBSZYFPYIJDI-UHFFFAOYSA-N

>  <FORMULA>  (465) 
C9H13NO2

>  <EXACT MASS>  (465) 
167.094628656

>  <MW>  (465) 
167

>  <ID>  (465) 
JP011481

>  <CONTRIBUTOR>  (465) 
University of Tokyo Team, {Faculty of Engineering, University of Tokyo

>  <COMMENT>  (465) 
SMILES=CCOC(=O)C1=C(C=C(N1)C)C
InChI=InChI=1S/C9H13NO2/c1-4-12-9(11)8-6(2)5-7(3)10-8/h5,10H,4H2,1-3H3
computed SMILES=O=C(OCC)C=1NC(=CC1C)C
accession=JP011481
date=2016.01.19 (Created 2008.10.21, modified 2011.05.06)
author=FUJISE Y, HAMAMATSU UNIV. SCHOOL OF MEDICINE
license=CC BY-NC-SA
exact mass=167.09463
ionization energy=70 eV
ion type=[M]+*
computed spectral entropy=2.9368280304867187
computed normalized entropy=0.7961301167517117
SPLASH=splash10-00xr-6900000000-7edac69e161fdc108b38
submitter=submitter = University of Tokyo Team (Faculty of Engineering, University of Tokyo)
MoNA Rating=3.75

>  <NUM PEAKS>  (465) 
40

>  <MASS SPECTRAL PEAKS>  (465) 
38 2.09
39 16.82
40 5.33
41 16.4
42 7.48
43 2.36
45 1.09
50 1.3
51 3.94
52 5.88
53 9.16
54 2.87
63 2.21
64 2.64
65 20.94
66 27.19
67 18.37
68 1.42
77 1.87
78 2.44
80 1.42
91 1.43
92 11.76
93 26.58
94 22.69
95 26.06
96 1.88
110 1.67
120 30.54
121 87.72
122 62.15
123 8.5
138 34.51
139 14.94
140 1.15
152 1.25
166 1.37
167 99.99
168 10.61
169 0.9

$$$$

     RDKit          2D

 13 13  0  0  0  0  0  0  0  0999 V2000
    3.1434   -0.6954    0.0000 C   0  0  0  0  0  0  0  0  0  0  0  0
   -4.7358   -4.3522    0.0000 C   0  0  0  0  0  0  0  0  0  0  0  0
    1.7722    1.9635    0.0000 C   0  0  0  0  0  0  0  0  0  0  0  0
    1.7722   -1.3035    0.0000 C   0  0  0  0  0  0  0  0  0  0  0  0
   -3.2682   -4.0421    0.0000 C   0  0  0  0  0  0  0  0  0  0  0  0
   -0.8700    1.5400    0.0000 C   0  0  0  0  0  0  0  0  0  0  0  0
    0.5600    1.0800    0.0000 C   0  0  0  0  0  0  0  0  0  0  0  0
    0.5600   -0.4200    0.0000 C   0  0  0  0  0  0  0  0  0  0  0  0
   -0.8700   -0.8800    0.0000 C   0  0  0  0  0  0  0  0  0  0  0  0
   -1.3353   -2.3060    0.0000 C   0  0  0  0  0  0  0  0  0  0  0  0
   -1.7500    0.3300    0.0000 N   0  0  0  0  0  0  0  0  0  0  0  0
   -0.3330   -3.4220    0.0000 O   0  0  0  0  0  0  0  0  0  0  0  0
   -2.8029   -2.6161    0.0000 O   0  0  0  0  0  0  0  0  0  0  0  0
  4  1  1  0
  5  2  1  0
  7  3  1  0
  7  6  2  0
  8  4  1  0
  8  7  1  0
  9  8  2  0
 10  9  1  0
 11  6  1  0
 11  9  1  0
 12 10  2  0
 13  5  1  0
 13 10  1  0
M  END
>  <NAME>  (466) 
ETHYL 3-ETHYL-4-METHYLPYRROLE-2-CARBOXYLATE

>  <SYNONYMS>  (466) 


>  <SPECTRUM TYPE>  (466) 
MS1

>  <INSTRUMENT TYPE>  (466) 
EI-B

>  <INSTRUMENT>  (466) 
JEOL JMS-DX-300

>  <ION MODE>  (466) 
P

>  <INCHIKEY>  (466) 
IJIMBHGENKKALU-UHFFFAOYSA-N

>  <FORMULA>  (466) 
C10H15NO2

>  <EXACT MASS>  (466) 
181.11027872

>  <MW>  (466) 
181

>  <ID>  (466) 
JP011480

>  <CONTRIBUTOR>  (466) 
University of Tokyo Team, {Faculty of Engineering, University of Tokyo

>  <COMMENT>  (466) 
SMILES=CCC1=C(NC=C1C)C(=O)OCC
InChI=InChI=1S/C10H15NO2/c1-4-8-7(3)6-11-9(8)10(12)13-5-2/h6,11H,4-5H2,1-3H3
computed SMILES=O=C(OCC)C=1NC=C(C1CC)C
accession=JP011480
date=2016.01.19 (Created 2008.10.21, modified 2011.05.06)
author=FUJISE Y, HAMAMATSU UNIV. SCHOOL OF MEDICINE
license=CC BY-NC-SA
exact mass=181.11028
ionization energy=70 eV
ion type=[M]+*
computed spectral entropy=3.672146136416054
computed normalized entropy=0.8586469072458046
SPLASH=splash10-001r-8900000000-5d1b5b3df2b7d99b076b
submitter=submitter = University of Tokyo Team (Faculty of Engineering, University of Tokyo)
MoNA Rating=3.75

>  <NUM PEAKS>  (466) 
72

>  <MASS SPECTRAL PEAKS>  (466) 
37 2.84
38 9.67
39 58.58
40 14.25
41 47.22
42 15.31
43 25.98
44 3.16
45 14.23
50 9.72
51 28.36
52 28.78
53 34.69
54 6.53
55 4.47
56 1.68
57 0.91
62 2.48
63 8.67
64 7.32
65 40.29
66 23.66
67 11.44
68 3.1
74 1.06
75 1.24
76 3.62
77 39.81
78 16.12
79 35.29
80 17.43
81 6.87
82 2.4
91 6.72
92 21.64
93 33.04
94 9.95
95 1.05
104 8.72
105 4.72
106 49.29
107 21.58
108 29.38
109 5.49
110 0.98
114 1.17
118 1.34
119 3.24
120 69.03
121 7.28
122 10.25
123 1.21
124 1.21
128 4.5
132 1.27
133 2.86
134 88.75
135 26.61
136 38.26
137 4.88
138 16.96
139 2.14
140 1.44
152 81.07
153 10.82
154 1.59
166 22.53
167 2.62
180 3.13
181 99.99
182 21.01
183 2.09

$$$$

     RDKit          2D

 15 15  0  0  0  0  0  0  0  0999 V2000
   -7.7951    1.5010    0.0000 C   0  0  0  0  0  0  0  0  0  0  0  0
   -6.4962    0.7508    0.0000 C   0  0  0  0  0  0  0  0  0  0  0  0
   -1.3000   -0.7500    0.0000 C   0  0  0  0  0  0  0  0  0  0  0  0
    0.0000    1.5000    0.0000 C   0  0  0  0  0  0  0  0  0  0  0  0
    0.0000   -1.5000    0.0000 C   0  0  0  0  0  0  0  0  0  0  0  0
    1.3000    0.7500    0.0000 C   0  0  0  0  0  0  0  0  0  0  0  0
   -2.5989    1.5002    0.0000 C   0  0  0  0  0  0  0  0  0  0  0  0
   -1.3000    0.7500    0.0000 C   0  0  0  0  0  0  0  0  0  0  0  0
    1.3000   -0.7500    0.0000 C   0  0  0  0  0  0  0  0  0  0  0  0
   -3.8981    0.7504    0.0000 C   0  0  0  0  0  0  0  0  0  0  0  0
    2.5989   -1.5002    0.0000 N   0  0  0  0  0  0  0  0  0  0  0  0
   -3.8983   -0.7496    0.0000 O   0  0  0  0  0  0  0  0  0  0  0  0
    3.8981   -0.7504    0.0000 O   0  0  0  0  0  0  0  0  0  0  0  0
    2.5987   -3.0002    0.0000 O   0  0  0  0  0  0  0  0  0  0  0  0
   -5.1970    1.5006    0.0000 O   0  0  0  0  0  0  0  0  0  0  0  0
  2  1  1  0
  5  3  2  0
  6  4  1  0
  8  3  1  0
  8  4  2  0
  8  7  1  0
  9  5  1  0
  9  6  2  0
 10  7  1  0
 11  9  1  0
 12 10  2  0
 13 11  1  0
 14 11  2  0
 15  2  1  0
 15 10  1  0
M  CHG  2  11   1  13  -1
M  END
>  <NAME>  (467) 
ETHYL 4-NITROPHENYLACETATE

>  <SYNONYMS>  (467) 


>  <SPECTRUM TYPE>  (467) 
MS1

>  <INSTRUMENT TYPE>  (467) 
EI-B

>  <INSTRUMENT>  (467) 
JEOL JMS-DX-300

>  <ION MODE>  (467) 
P

>  <INCHIKEY>  (467) 
DWDRNKYLWMKWTH-UHFFFAOYSA-N

>  <FORMULA>  (467) 
C10H11NO4

>  <EXACT MASS>  (467) 
209.06880783199998

>  <MW>  (467) 
209

>  <ID>  (467) 
JP011478

>  <CONTRIBUTOR>  (467) 
University of Tokyo Team, {Faculty of Engineering, University of Tokyo

>  <COMMENT>  (467) 
SMILES=CCOC(=O)Cc(c1)ccc(c1)[N+1]([O-1])=O
InChI=InChI=1S/C10H11NO4/c1-2-15-10(12)7-8-3-5-9(6-4-8)11(13)14/h3-6H,2,7H2,1H3
computed SMILES=O=C(OCC)CC1=CC=C(C=C1)N(=O)=O
accession=JP011478
date=2016.01.19 (Created 2008.10.21, modified 2011.05.06)
author=FUJISE Y, HAMAMATSU UNIV. SCHOOL OF MEDICINE
license=CC BY-NC-SA
exact mass=209.06881
ionization energy=70 eV
ion type=[M]+*
computed spectral entropy=3.1759759934815657
computed normalized entropy=0.7961866872385827
SPLASH=splash10-052r-9710000000-8eea6f911a6d3d813827
submitter=submitter = University of Tokyo Team (Faculty of Engineering, University of Tokyo)
MoNA Rating=3.75

>  <NUM PEAKS>  (467) 
54

>  <MASS SPECTRAL PEAKS>  (467) 
38 3.06
39 16.27
40 3.1
41 1.51
42 1.17
43 5.35
44 1.4
45 5.71
46 3.6
50 5.26
51 13.32
52 8.25
53 2.1
62 6.59
63 32.61
64 14.72
65 4.42
73 2.18
75 1.85
76 1.73
77 17.96
78 62.73
79 12.24
87 1.36
88 1.49
89 82.58
90 77.88
91 19.16
92 1.76
105 1.85
106 28.35
107 53.91
108 3.66
117 2.44
118 1.23
119 12.72
120 22.99
121 5.61
133 2.11
135 5.94
136 71.38
137 99.99
138 8.37
148 1.85
150 1.5
163 3.34
164 15.47
165 5.09
179 1.86
181 5.94
193 2.16
209 63.79
210 8.93
211 1.07

$$$$

     RDKit          2D

 19 21  0  0  0  0  0  0  0  0999 V2000
  -10.0911   -1.1235    0.0000 C   0  0  0  0  0  0  0  0  0  0  0  0
   -8.6244   -1.4378    0.0000 C   0  0  0  0  0  0  0  0  0  0  0  0
    3.6900    0.1600    0.0000 C   0  0  0  0  0  0  0  0  0  0  0  0
    3.2200   -1.2700    0.0000 C   0  0  0  0  0  0  0  0  0  0  0  0
    2.6800    1.2700    0.0000 C   0  0  0  0  0  0  0  0  0  0  0  0
    1.7500   -1.5800    0.0000 C   0  0  0  0  0  0  0  0  0  0  0  0
   -3.2200   -1.2700    0.0000 C   0  0  0  0  0  0  0  0  0  0  0  0
   -1.7500   -1.5800    0.0000 C   0  0  0  0  0  0  0  0  0  0  0  0
   -2.6800    1.2700    0.0000 C   0  0  0  0  0  0  0  0  0  0  0  0
   -5.1467    0.4742    0.0000 C   0  0  0  0  0  0  0  0  0  0  0  0
   -0.0000    1.8400    0.0000 C   0  0  0  0  0  0  0  0  0  0  0  0
   -3.6800    0.1600    0.0000 C   0  0  0  0  0  0  0  0  0  0  0  0
    1.2100    0.9600    0.0000 C   0  0  0  0  0  0  0  0  0  0  0  0
   -1.2100    0.9600    0.0000 C   0  0  0  0  0  0  0  0  0  0  0  0
    0.7500   -0.4700    0.0000 C   0  0  0  0  0  0  0  0  0  0  0  0
   -0.7500   -0.4700    0.0000 C   0  0  0  0  0  0  0  0  0  0  0  0
   -6.1522   -0.6389    0.0000 C   0  0  0  0  0  0  0  0  0  0  0  0
   -5.6910   -2.0662    0.0000 O   0  0  0  0  0  0  0  0  0  0  0  0
   -7.6189   -0.3247    0.0000 O   0  0  0  0  0  0  0  0  0  0  0  0
  2  1  1  0
  4  3  2  0
  5  3  1  0
  6  4  1  0
  8  7  1  0
 12  7  2  0
 12  9  1  0
 12 10  1  0
 13  5  2  0
 13 11  1  0
 14  9  2  0
 14 11  1  0
 15  6  2  0
 15 13  1  0
 16  8  2  0
 16 14  1  0
 16 15  1  0
 17 10  1  0
 18 17  2  0
 19  2  1  0
 19 17  1  0
M  END
>  <NAME>  (468) 
ETHYL 2-FLUORENYLMETHYLCARBOXYLATE

>  <SYNONYMS>  (468) 


>  <SPECTRUM TYPE>  (468) 
MS1

>  <INSTRUMENT TYPE>  (468) 
EI-B

>  <INSTRUMENT>  (468) 
JEOL JMS-DX-300

>  <ION MODE>  (468) 
P

>  <INCHIKEY>  (468) 
JIUOWDAPJJNCNT-UHFFFAOYSA-N

>  <FORMULA>  (468) 
C17H16O2

>  <EXACT MASS>  (468) 
252.115029752

>  <MW>  (468) 
252

>  <ID>  (468) 
JP011477

>  <CONTRIBUTOR>  (468) 
University of Tokyo Team, {Faculty of Engineering, University of Tokyo

>  <COMMENT>  (468) 
SMILES=CCOC(=O)Cc(c3)cc(C1)c(c3)c(c2)c(ccc2)1
InChI=InChI=1S/C17H16O2/c1-2-19-17(18)10-12-7-8-16-14(9-12)11-13-5-3-4-6-15(13)16/h3-9H,2,10-11H2,1H3
computed SMILES=O=C(OCC)CC1=CC=C2C=3C=CC=CC3CC2=C1
accession=JP011477
date=2016.01.19 (Created 2008.10.21, modified 2011.05.06)
author=FUJISE Y, HAMAMATSU UNIV. SCHOOL OF MEDICINE
license=CC BY-NC-SA
exact mass=252.11503
ionization energy=70 eV
ion type=[M]+*
computed spectral entropy=2.2309085875024324
computed normalized entropy=0.6380391142545565
SPLASH=splash10-004i-0920000000-b8b58e1d411d41c93a6e
submitter=submitter = University of Tokyo Team (Faculty of Engineering, University of Tokyo)
MoNA Rating=3.75

>  <NUM PEAKS>  (468) 
33

>  <MASS SPECTRAL PEAKS>  (468) 
43 1.28
45 1.4
51 0.96
63 1.03
76 2.65
89 4.1
90 2.97
126 0.86
127 0.67
128 0.88
139 1.39
150 1.73
151 4.5
152 9.18
153 1.54
163 0.84
164 0.62
165 3.68
166 0.94
167 0.65
175 0.75
176 8.22
177 8.44
178 63.66
179 99.99
180 15.93
181 1.16
223 4.27
224 1.38
251 0.74
252 49.47
253 9.26
254 0.99

$$$$

     RDKit          2D

  9  9  0  0  0  0  0  0  0  0999 V2000
   -0.3162    1.6831    0.0000 C   0  0  0  0  0  0  0  0  0  0  0  0
    0.9788   -0.5599    0.0000 C   0  0  0  0  0  0  0  0  0  0  0  0
   -1.6153    0.9331    0.0000 C   0  0  0  0  0  0  0  0  0  0  0  0
   -0.3203   -1.3099    0.0000 C   0  0  0  0  0  0  0  0  0  0  0  0
    2.2685    1.7061    0.0000 C   0  0  0  0  0  0  0  0  0  0  0  0
    0.9733    0.9496    0.0000 C   0  0  0  0  0  0  0  0  0  0  0  0
   -1.6334   -0.5554    0.0000 C   0  0  0  0  0  0  0  0  0  0  0  0
   -2.9363   -1.2988    0.0000 Cl  0  0  0  0  0  0  0  0  0  0  0  0
    3.5713    0.9627    0.0000 O   0  0  0  0  0  0  0  0  0  0  0  0
  3  1  2  0
  4  2  1  0
  6  1  1  0
  6  2  2  0
  6  5  1  0
  7  3  1  0
  7  4  2  0
  8  7  1  0
  9  5  1  0
M  END
>  <NAME>  (469) 
4-CHLOROBENZYLALCOHOL

>  <SYNONYMS>  (469) 


>  <SPECTRUM TYPE>  (469) 
MS1

>  <INSTRUMENT TYPE>  (469) 
EI-B

>  <INSTRUMENT>  (469) 
JEOL JMS-DX-300

>  <ION MODE>  (469) 
P

>  <INCHIKEY>  (469) 
PTHGDVCPCZKZKR-UHFFFAOYSA-N

>  <FORMULA>  (469) 
C7H7ClO

>  <EXACT MASS>  (469) 
142.018542524

>  <MW>  (469) 
142

>  <ID>  (469) 
JP011476

>  <CONTRIBUTOR>  (469) 
University of Tokyo Team, {Faculty of Engineering, University of Tokyo

>  <COMMENT>  (469) 
SMILES=OCc(c1)ccc(Cl)c1
InChI=InChI=1S/C7H7ClO/c8-7-3-1-6(5-9)2-4-7/h1-4,9H,5H2
computed SMILES=ClC1=CC=C(C=C1)CO
accession=JP011476
date=2016.01.19 (Created 2008.10.21, modified 2011.05.06)
author=FUJISE Y, HAMAMATSU UNIV. SCHOOL OF MEDICINE
license=CC BY-NC-SA
exact mass=142.01854
ionization energy=70 eV
ion type=[M]+*
computed spectral entropy=3.4503179796367336
computed normalized entropy=0.8427033746676568
SPLASH=splash10-004i-9200000000-2edda7c06e59effab1ba
submitter=submitter = University of Tokyo Team (Faculty of Engineering, University of Tokyo)
MoNA Rating=3.75

>  <NUM PEAKS>  (469) 
60

>  <MASS SPECTRAL PEAKS>  (469) 
35 6.07
36 2.61
37 14.61
38 24.21
39 36.43
40 3.24
42 2.06
43 2.24
47 3.05
48 1.56
49 10.68
50 69.12
51 72.69
52 16.85
53 10.32
55 5.57
60 4.87
61 12.77
62 21.34
63 38.92
64 5.21
65 2.12
66 1.14
68 1
72 3.94
73 17.36
74 35.66
75 55.34
76 16.73
77 99.99
78 30.46
79 98.05
80 9.17
84 3.92
85 9.8
86 6.52
87 6.22
88 1.45
89 28.24
90 5.56
97 2.19
99 4.61
101 1.66
105 16.49
106 4.27
107 70.09
108 5.96
111 19.07
112 5.96
113 19.03
114 2.61
115 4.19
125 15.13
126 1.21
127 4.9
139 2.15
141 6.63
142 29.87
143 4.01
144 9.75

$$$$

     RDKit          2D

 11 11  0  0  0  0  0  0  0  0999 V2000
   -1.3000   -0.7500    0.0000 C   0  0  0  0  0  0  0  0  0  0  0  0
    0.0000    1.5000    0.0000 C   0  0  0  0  0  0  0  0  0  0  0  0
    0.0000   -1.5000    0.0000 C   0  0  0  0  0  0  0  0  0  0  0  0
    1.3000    0.7500    0.0000 C   0  0  0  0  0  0  0  0  0  0  0  0
   -2.5989    1.5002    0.0000 C   0  0  0  0  0  0  0  0  0  0  0  0
   -1.3000    0.7500    0.0000 C   0  0  0  0  0  0  0  0  0  0  0  0
    1.3000   -0.7500    0.0000 C   0  0  0  0  0  0  0  0  0  0  0  0
    2.5989   -1.5002    0.0000 N   0  0  0  0  0  0  0  0  0  0  0  0
   -3.8981    0.7504    0.0000 O   0  0  0  0  0  0  0  0  0  0  0  0
    3.8981   -0.7504    0.0000 O   0  0  0  0  0  0  0  0  0  0  0  0
    2.5987   -3.0002    0.0000 O   0  0  0  0  0  0  0  0  0  0  0  0
  3  1  2  0
  4  2  1  0
  6  1  1  0
  6  2  2  0
  6  5  1  0
  7  3  1  0
  7  4  2  0
  8  7  1  0
  9  5  1  0
 10  8  1  0
 11  8  2  0
M  CHG  2   8   1  10  -1
M  END
>  <NAME>  (470) 
4-NITROBENZYLALCOHOL

>  <SYNONYMS>  (470) 


>  <SPECTRUM TYPE>  (470) 
MS1

>  <INSTRUMENT TYPE>  (470) 
EI-B

>  <INSTRUMENT>  (470) 
JEOL JMS-DX-300

>  <ION MODE>  (470) 
P

>  <INCHIKEY>  (470) 
JKTYGPATCNUWKN-UHFFFAOYSA-N

>  <FORMULA>  (470) 
C7H7NO3

>  <EXACT MASS>  (470) 
153.042593084

>  <MW>  (470) 
153

>  <ID>  (470) 
JP011475

>  <CONTRIBUTOR>  (470) 
University of Tokyo Team, {Faculty of Engineering, University of Tokyo

>  <COMMENT>  (470) 
SMILES=OCc(c1)ccc(c1)[N+1]([O-1])=O
InChI=InChI=1S/C7H7NO3/c9-5-6-1-3-7(4-2-6)8(10)11/h1-4,9H,5H2
computed SMILES=O=N(=O)C1=CC=C(C=C1)CO
accession=JP011475
date=2016.01.19 (Created 2008.10.21, modified 2011.05.06)
author=FUJISE Y, HAMAMATSU UNIV. SCHOOL OF MEDICINE
license=CC BY-NC-SA
exact mass=153.04259
ionization energy=70 eV
ion type=[M]+*
computed spectral entropy=3.29076113963388
computed normalized entropy=0.8211848098283293
SPLASH=splash10-0fb9-9300000000-4a9fa5a740fc524f1fc3
submitter=submitter = University of Tokyo Team (Faculty of Engineering, University of Tokyo)
MoNA Rating=3.75

>  <NUM PEAKS>  (470) 
55

>  <MASS SPECTRAL PEAKS>  (470) 
37 1.54
38 5.87
39 28.47
40 3.62
41 9.74
42 0.85
43 0.9
46 13.37
50 29.18
51 57.59
52 16.61
53 16.01
55 4.87
61 1.68
62 7.69
63 23.76
64 6.31
65 7.4
66 7.34
67 7.73
68 1.16
73 1.02
74 10.19
75 9.37
76 12.85
77 99.99
78 51.88
79 42.83
80 3.14
86 1.2
87 1.32
89 48.51
90 6.84
91 2.37
92 2.92
94 8.15
95 3.04
104 2.12
105 15.14
106 21.46
107 82.61
108 19.99
109 1.31
122 1.26
123 0.97
124 6.45
125 1.27
136 13.51
137 4.1
150 2.34
151 2.25
152 4.81
153 48.42
154 4.37
155 1.18

$$$$

     RDKit          2D

 14 15  0  0  0  0  0  0  0  0999 V2000
    4.8705    4.2614    0.0000 C   0  0  0  0  0  0  0  0  0  0  0  0
    3.5710    5.0123    0.0000 C   0  0  0  0  0  0  0  0  0  0  0  0
    4.8710    2.7606    0.0000 C   0  0  0  0  0  0  0  0  0  0  0  0
   -0.3213   -0.2318    0.0000 C   0  0  0  0  0  0  0  0  0  0  0  0
   -1.6204    0.5180    0.0000 C   0  0  0  0  0  0  0  0  0  0  0  0
    2.2719    4.2623    0.0000 C   0  0  0  0  0  0  0  0  0  0  0  0
    3.5719    2.0106    0.0000 C   0  0  0  0  0  0  0  0  0  0  0  0
    0.9731    0.5106    0.0000 C   0  0  0  0  0  0  0  0  0  0  0  0
   -0.3258    2.7612    0.0000 C   0  0  0  0  0  0  0  0  0  0  0  0
   -2.9256    2.7578    0.0000 C   0  0  0  0  0  0  0  0  0  0  0  0
   -1.6252    2.0102    0.0000 C   0  0  0  0  0  0  0  0  0  0  0  0
    2.2724    2.7614    0.0000 C   0  0  0  0  0  0  0  0  0  0  0  0
    0.9734    2.0114    0.0000 C   0  0  0  0  0  0  0  0  0  0  0  0
   -4.2233    2.0054    0.0000 O   0  0  0  0  0  0  0  0  0  0  0  0
  2  1  2  0
  3  1  1  0
  5  4  2  0
  6  2  1  0
  7  3  2  0
  8  4  1  0
 11  5  1  0
 11  9  2  0
 11 10  1  0
 12  6  2  0
 12  7  1  0
 13  8  2  0
 13  9  1  0
 13 12  1  0
 14 10  1  0
M  END
>  <NAME>  (471) 
3-PHENYLBENZYLALCOHOL

>  <SYNONYMS>  (471) 


>  <SPECTRUM TYPE>  (471) 
MS1

>  <INSTRUMENT TYPE>  (471) 
EI-B

>  <INSTRUMENT>  (471) 
JEOL JMS-DX-300

>  <ION MODE>  (471) 
P

>  <INCHIKEY>  (471) 
WGUZZTGZDPJWSG-UHFFFAOYSA-N

>  <FORMULA>  (471) 
C13H12O

>  <EXACT MASS>  (471) 
184.088815004

>  <MW>  (471) 
184

>  <ID>  (471) 
JP011474

>  <CONTRIBUTOR>  (471) 
University of Tokyo Team, {Faculty of Engineering, University of Tokyo

>  <COMMENT>  (471) 
SMILES=OCc(c2)cc(cc2)c(c1)cccc1
InChI=InChI=1S/C13H12O/c14-10-11-5-4-8-13(9-11)12-6-2-1-3-7-12/h1-9,14H,10H2
computed SMILES=OCC1=CC=CC(=C1)C=2C=CC=CC2
ion type=[M]+*
accession=JP011474
date=2016.01.19 (Created 2008.10.21, modified 2011.05.06)
author=FUJISE Y, HAMAMATSU UNIV. SCHOOL OF MEDICINE
license=CC BY-NC-SA
exact mass=184.08882
ionization energy=70 eV
computed spectral entropy=3.4191473019028367
computed normalized entropy=0.8190776468107421
SPLASH=splash10-0kai-2900000000-5e8ea4207ee8ca37305e
submitter=submitter = University of Tokyo Team (Faculty of Engineering, University of Tokyo)
MoNA Rating=3.75

>  <NUM PEAKS>  (471) 
65

>  <MASS SPECTRAL PEAKS>  (471) 
39 8.49
50 4.71
51 15.87
52 3.39
53 1.98
55 0.88
62 1.91
63 7.74
64 1.39
65 2.81
74 2.85
75 5.32
76 6.95
77 36.75
78 17.89
79 13.58
82 1.33
83 1.22
86 1.16
87 2.36
88 1.15
89 4.37
91 4.93
92 2.91
99 1.04
101 2.07
102 5.41
103 1.74
105 5.81
106 2.38
107 12.25
108 0.98
113 1.59
114 1.13
115 10.17
116 2.19
126 5.91
127 9.15
128 11.77
129 7.04
130 1.02
139 4.93
140 0.88
141 4.08
150 3.61
151 11.35
152 40.02
153 27.57
154 15.63
155 68.33
156 12.07
157 1.28
163 2.04
164 2.67
165 30.43
166 16.75
167 9.28
168 1.93
169 2.1
181 2.92
182 2.02
183 20.09
184 99.99
185 15.32
186 1.36

$$$$

     RDKit          2D

  9  9  0  0  0  0  0  0  0  0999 V2000
    0.0004   -3.7508    0.0000 C   0  0  0  0  0  0  0  0  0  0  0  0
   -1.2991   -2.9999    0.0000 C   0  0  0  0  0  0  0  0  0  0  0  0
    1.2994   -3.0008    0.0000 C   0  0  0  0  0  0  0  0  0  0  0  0
   -1.2996   -1.4991    0.0000 C   0  0  0  0  0  0  0  0  0  0  0  0
    2.5980   -0.7499    0.0000 C   0  0  0  0  0  0  0  0  0  0  0  0
    1.2989   -1.4999    0.0000 C   0  0  0  0  0  0  0  0  0  0  0  0
   -0.0006   -0.7491    0.0000 C   0  0  0  0  0  0  0  0  0  0  0  0
   -0.0003    0.7509    0.0000 Br  0  0  0  0  0  0  0  0  0  0  0  0
    3.8970   -1.4999    0.0000 O   0  0  0  0  0  0  0  0  0  0  0  0
  2  1  2  0
  3  1  1  0
  4  2  1  0
  6  3  2  0
  6  5  1  0
  7  4  2  0
  7  6  1  0
  8  7  1  0
  9  5  1  0
M  END
>  <NAME>  (472) 
2-BROMOBENZYLALCOHOL

>  <SYNONYMS>  (472) 


>  <SPECTRUM TYPE>  (472) 
MS1

>  <INSTRUMENT TYPE>  (472) 
EI-B

>  <INSTRUMENT>  (472) 
JEOL JMS-DX-300

>  <ION MODE>  (472) 
P

>  <INCHIKEY>  (472) 
IOWGHQGLUMEZKG-UHFFFAOYSA-N

>  <FORMULA>  (472) 
C7H7BrO

>  <EXACT MASS>  (472) 
185.968026944

>  <MW>  (472) 
186

>  <ID>  (472) 
JP011473

>  <CONTRIBUTOR>  (472) 
University of Tokyo Team, {Faculty of Engineering, University of Tokyo

>  <COMMENT>  (472) 
SMILES=OCc(c1)c(Br)ccc1
InChI=InChI=1S/C7H7BrO/c8-7-4-2-1-3-6(7)5-9/h1-4,9H,5H2
computed SMILES=BrC=1C=CC=CC1CO
accession=JP011473
date=2016.01.19 (Created 2008.10.21, modified 2011.05.06)
author=FUJISE Y, HAMAMATSU UNIV. SCHOOL OF MEDICINE
license=CC BY-NC-SA
exact mass=185.96803
ionization energy=70 eV
ion type=[M]+*
computed spectral entropy=3.141268544675356
computed normalized entropy=0.8114454754026457
SPLASH=splash10-056r-9400000000-2fdb20cf3e108d574988
submitter=submitter = University of Tokyo Team (Faculty of Engineering, University of Tokyo)
MoNA Rating=3.75

>  <NUM PEAKS>  (472) 
48

>  <MASS SPECTRAL PEAKS>  (472) 
37 2.79
38 8.33
39 19.96
40 1.58
49 3.14
50 38.93
51 55.01
52 13.56
53 10.37
54 1.69
55 1.32
61 3.15
62 9.27
63 18.69
64 3.21
73 2.66
74 16.15
75 18.19
76 17.39
77 97.9
78 40.09
79 99.99
80 8.67
81 5.74
82 3.66
83 2.56
85 1.11
86 2.31
87 2.03
89 15.87
90 8.38
105 24.83
106 3.42
107 96.41
108 8.38
155 4.11
156 0.96
157 9.68
158 0.94
159 5.91
169 4.85
171 4.6
183 2.23
185 6.54
186 40.98
187 7.93
188 41.72
189 3.25

$$$$

     RDKit          2D

 15 16  0  0  0  0  0  0  0  0999 V2000
   -1.6700   -0.9600    0.0000 C   0  0  0  0  0  0  0  0  0  0  0  0
   -1.6700    0.5400    0.0000 C   0  0  0  0  0  0  0  0  0  0  0  0
   -0.3700   -1.7100    0.0000 C   0  0  0  0  0  0  0  0  0  0  0  0
   -0.3700    1.2900    0.0000 C   0  0  0  0  0  0  0  0  0  0  0  0
    0.9300   -0.9600    0.0000 C   0  0  0  0  0  0  0  0  0  0  0  0
    4.8197   -1.7391    0.0000 C   0  0  0  0  0  0  0  0  0  0  0  0
    6.1512    0.4751    0.0000 C   0  0  0  0  0  0  0  0  0  0  0  0
    3.5411   -1.0039    0.0000 C   0  0  0  0  0  0  0  0  0  0  0  0
    4.8331    1.2799    0.0000 C   0  0  0  0  0  0  0  0  0  0  0  0
    7.4139   -1.7665    0.0000 C   0  0  0  0  0  0  0  0  0  0  0  0
    6.1247   -0.9996    0.0000 C   0  0  0  0  0  0  0  0  0  0  0  0
    0.9300    0.5400    0.0000 C   0  0  0  0  0  0  0  0  0  0  0  0
    3.5281    0.5404    0.0000 C   0  0  0  0  0  0  0  0  0  0  0  0
    8.7226   -1.0334    0.0000 O   0  0  0  0  0  0  0  0  0  0  0  0
    2.2289    1.2902    0.0000 O   0  0  0  0  0  0  0  0  0  0  0  0
  2  1  2  0
  3  1  1  0
  4  2  1  0
  5  3  2  0
  8  6  2  0
  9  7  1  0
 11  6  1  0
 11  7  2  0
 11 10  1  0
 12  4  2  0
 12  5  1  0
 13  8  1  0
 13  9  2  0
 14 10  1  0
 15 12  1  0
 15 13  1  0
M  END
>  <NAME>  (473) 
4-PHENOXYBENZYLALCOHOL

>  <SYNONYMS>  (473) 


>  <SPECTRUM TYPE>  (473) 
MS1

>  <INSTRUMENT TYPE>  (473) 
EI-B

>  <INSTRUMENT>  (473) 
JEOL JMS-DX-300

>  <ION MODE>  (473) 
P

>  <INCHIKEY>  (473) 
FEOMFFKZOZMBKD-UHFFFAOYSA-N

>  <FORMULA>  (473) 
C13H12O2

>  <EXACT MASS>  (473) 
200.083729624

>  <MW>  (473) 
200

>  <ID>  (473) 
JP011472

>  <CONTRIBUTOR>  (473) 
University of Tokyo Team, {Faculty of Engineering, University of Tokyo

>  <COMMENT>  (473) 
SMILES=OCc(c2)ccc(c2)Oc(c1)cccc1
InChI=InChI=1S/C13H12O2/c14-10-11-6-8-13(9-7-11)15-12-4-2-1-3-5-12/h1-9,14H,10H2
computed SMILES=OCC1=CC=C(OC=2C=CC=CC2)C=C1
accession=JP011472
date=2016.01.19 (Created 2008.10.21, modified 2011.05.06)
author=FUJISE Y, HAMAMATSU UNIV. SCHOOL OF MEDICINE
license=CC BY-NC-SA
exact mass=200.08373
ionization energy=70 eV
ion type=[M]+*
computed spectral entropy=3.379723420691075
computed normalized entropy=0.8096334149599808
SPLASH=splash10-0ufr-9530000000-455d18a21cfdecb43c2c
submitter=submitter = University of Tokyo Team (Faculty of Engineering, University of Tokyo)
MoNA Rating=3.75

>  <NUM PEAKS>  (473) 
65

>  <MASS SPECTRAL PEAKS>  (473) 
38 1.7
39 16.12
40 2.34
41 6.59
50 7.56
51 33.83
52 4.99
53 2.94
55 2.63
62 1.42
63 7.49
64 3.32
65 27.43
66 8.25
67 5.78
74 1.48
75 2.01
76 3.62
77 62.82
78 12.06
79 32.99
80 2.01
89 6.07
90 1.66
91 3.12
92 1.13
93 13.43
94 3.17
95 5.65
100 1.15
105 2.63
106 0.92
107 29.86
108 2.31
115 11.23
116 1.37
121 1.09
122 2.53
123 2.34
127 1.99
128 3.61
129 1.69
139 3.34
141 6.85
142 1.88
151 0.88
152 4.2
153 9.04
154 2.04
155 3.8
168 1.23
169 3.63
170 1.31
171 16.24
172 2.35
181 7.08
182 1.19
183 14.49
184 3.7
197 3.23
198 2.85
199 20.74
200 99.99
201 14.33
202 1.09

$$$$

     RDKit          2D

 14 15  0  0  0  0  0  0  0  0999 V2000
   -4.2225    0.5081    0.0000 C   0  0  0  0  0  0  0  0  0  0  0  0
   -2.9230   -0.2427    0.0000 C   0  0  0  0  0  0  0  0  0  0  0  0
   -4.2230    2.0090    0.0000 C   0  0  0  0  0  0  0  0  0  0  0  0
   -1.6239    0.5073    0.0000 C   0  0  0  0  0  0  0  0  0  0  0  0
   -2.9239    2.7590    0.0000 C   0  0  0  0  0  0  0  0  0  0  0  0
    2.2746    2.7577    0.0000 C   0  0  0  0  0  0  0  0  0  0  0  0
    0.9750    5.0079    0.0000 C   0  0  0  0  0  0  0  0  0  0  0  0
    0.9745    2.0079    0.0000 C   0  0  0  0  0  0  0  0  0  0  0  0
   -0.3251    4.2581    0.0000 C   0  0  0  0  0  0  0  0  0  0  0  0
    3.5739    5.0077    0.0000 C   0  0  0  0  0  0  0  0  0  0  0  0
    2.2749    4.2577    0.0000 C   0  0  0  0  0  0  0  0  0  0  0  0
   -1.6244    2.0081    0.0000 C   0  0  0  0  0  0  0  0  0  0  0  0
   -0.3254    2.7581    0.0000 C   0  0  0  0  0  0  0  0  0  0  0  0
    4.8730    4.2577    0.0000 O   0  0  0  0  0  0  0  0  0  0  0  0
  2  1  2  0
  3  1  1  0
  4  2  1  0
  5  3  2  0
  8  6  2  0
  9  7  1  0
 11  6  1  0
 11  7  2  0
 11 10  1  0
 12  4  2  0
 12  5  1  0
 13  8  1  0
 13  9  2  0
 13 12  1  0
 14 10  1  0
M  END
>  <NAME>  (474) 
4-PHENYLBENZYLALCOHOL

>  <SYNONYMS>  (474) 


>  <SPECTRUM TYPE>  (474) 
MS1

>  <INSTRUMENT TYPE>  (474) 
EI-B

>  <INSTRUMENT>  (474) 
JEOL JMS-DX-300

>  <ION MODE>  (474) 
P

>  <INCHIKEY>  (474) 
AXCHZLOJGKSWLV-UHFFFAOYSA-N

>  <FORMULA>  (474) 
C13H12O

>  <EXACT MASS>  (474) 
184.088815004

>  <MW>  (474) 
184

>  <ID>  (474) 
JP011471

>  <CONTRIBUTOR>  (474) 
University of Tokyo Team, {Faculty of Engineering, University of Tokyo

>  <COMMENT>  (474) 
SMILES=OCc(c2)ccc(c2)c(c1)cccc1
InChI=InChI=1S/C13H12O/c14-10-11-6-8-13(9-7-11)12-4-2-1-3-5-12/h1-9,14H,10H2
computed SMILES=OCC=1C=CC(=CC1)C=2C=CC=CC2
accession=JP011471
date=2016.01.19 (Created 2008.10.21, modified 2011.05.06)
author=FUJISE Y, HAMAMATSU UNIV. SCHOOL OF MEDICINE
license=CC BY-NC-SA
exact mass=184.08882
ionization energy=70 eV
ion type=[M]+*
computed spectral entropy=3.125027533994896
computed normalized entropy=0.8029732347899035
SPLASH=splash10-001i-1900000000-37f29d9149b2b2bfc624
submitter=submitter = University of Tokyo Team (Faculty of Engineering, University of Tokyo)
MoNA Rating=3.75

>  <NUM PEAKS>  (474) 
49

>  <MASS SPECTRAL PEAKS>  (474) 
39 3.32
50 1.8
51 6.69
52 1.52
63 3.05
65 1.19
69 8.9
74 1.01
75 1.68
76 3.01
77 18.29
78 8.62
79 7.49
89 2.12
91 1.89
92 1.63
102 2.5
105 3.58
106 1.75
107 8.29
115 7.9
116 1.11
119 2.04
126 2.37
127 5.05
128 6.5
129 3.8
131 2.51
139 2.13
141 2
150 1.59
151 5.29
152 20.82
153 15.97
154 8.83
155 56.85
156 9.84
164 1.36
165 15.55
166 11.91
167 13.71
168 2.36
169 2.65
181 5.57
182 4.68
183 21.47
184 99.99
185 15.82
186 1.43

$$$$

     RDKit          2D

 15 17  0  0  0  0  0  0  0  0999 V2000
    3.6900    0.1600    0.0000 C   0  0  0  0  0  0  0  0  0  0  0  0
    3.2200   -1.2700    0.0000 C   0  0  0  0  0  0  0  0  0  0  0  0
    2.6800    1.2700    0.0000 C   0  0  0  0  0  0  0  0  0  0  0  0
    1.7500   -1.5800    0.0000 C   0  0  0  0  0  0  0  0  0  0  0  0
   -3.2200   -1.2700    0.0000 C   0  0  0  0  0  0  0  0  0  0  0  0
   -1.7500   -1.5800    0.0000 C   0  0  0  0  0  0  0  0  0  0  0  0
   -2.6800    1.2700    0.0000 C   0  0  0  0  0  0  0  0  0  0  0  0
   -0.0000    1.8400    0.0000 C   0  0  0  0  0  0  0  0  0  0  0  0
   -5.1467    0.4742    0.0000 C   0  0  0  0  0  0  0  0  0  0  0  0
   -3.6800    0.1600    0.0000 C   0  0  0  0  0  0  0  0  0  0  0  0
    1.2100    0.9600    0.0000 C   0  0  0  0  0  0  0  0  0  0  0  0
   -1.2100    0.9600    0.0000 C   0  0  0  0  0  0  0  0  0  0  0  0
    0.7500   -0.4700    0.0000 C   0  0  0  0  0  0  0  0  0  0  0  0
   -0.7500   -0.4700    0.0000 C   0  0  0  0  0  0  0  0  0  0  0  0
   -6.1522   -0.6389    0.0000 O   0  0  0  0  0  0  0  0  0  0  0  0
  2  1  2  0
  3  1  1  0
  4  2  1  0
  6  5  1  0
 10  5  2  0
 10  7  1  0
 10  9  1  0
 11  3  2  0
 11  8  1  0
 12  7  2  0
 12  8  1  0
 13  4  2  0
 13 11  1  0
 14  6  2  0
 14 12  1  0
 14 13  1  0
 15  9  1  0
M  END
>  <NAME>  (475) 
2-FLUORENYLMETHANOL

>  <SYNONYMS>  (475) 


>  <SPECTRUM TYPE>  (475) 
MS1

>  <INSTRUMENT TYPE>  (475) 
EI-B

>  <INSTRUMENT>  (475) 
JEOL JMS-DX-300

>  <ION MODE>  (475) 
P

>  <INCHIKEY>  (475) 
NVRRCUVMHFKHCL-UHFFFAOYSA-N

>  <FORMULA>  (475) 
C14H12O

>  <EXACT MASS>  (475) 
196.088815004

>  <MW>  (475) 
196

>  <ID>  (475) 
JP011470

>  <CONTRIBUTOR>  (475) 
University of Tokyo Team, {Faculty of Engineering, University of Tokyo

>  <COMMENT>  (475) 
SMILES=OCc(c3)cc(C1)c(c3)c(c2)c(ccc2)1
InChI=InChI=1S/C14H12O/c15-9-10-5-6-14-12(7-10)8-11-3-1-2-4-13(11)14/h1-7,15H,8-9H2
computed SMILES=OCC1=CC=C2C=3C=CC=CC3CC2=C1
accession=JP011470
date=2016.01.19 (Created 2008.10.21, modified 2011.05.06)
author=FUJISE Y, HAMAMATSU UNIV. SCHOOL OF MEDICINE
license=CC BY-NC-SA
exact mass=196.08882
ionization energy=70 eV
ion type=[M]+*
computed spectral entropy=3.0055913133790284
computed normalized entropy=0.7500228142883182
SPLASH=splash10-014i-1900000000-acc1a6b8fbc03a1e9e00
submitter=submitter = University of Tokyo Team (Faculty of Engineering, University of Tokyo)
MoNA Rating=3.75

>  <NUM PEAKS>  (475) 
55

>  <MASS SPECTRAL PEAKS>  (475) 
39 3.42
40 1.18
43 1.17
44 1.46
50 1.78
51 3.46
62 1.61
63 4.78
65 1.1
69 1.05
74 1.84
75 2.62
76 3.71
77 3.66
82 1.94
83 2.17
86 1.56
87 2.83
88 2.4
89 6.31
97 1.58
98 3.03
105 5.85
113 2.2
115 6.8
126 1.53
127 1.04
128 2.14
137 1.21
138 1.2
139 8.6
140 1.07
141 1.37
150 1.83
151 3.88
152 14.6
153 2.41
162 1.87
163 14
164 12.03
165 99.99
166 63.52
167 29.91
168 3.91
176 4.52
177 3.66
178 20.73
179 11.26
180 2.99
181 1.07
194 3.65
195 8.49
196 62.29
197 8.81
198 0.99

$$$$

     RDKit          2D

 21 23  0  0  0  0  0  0  0  0999 V2000
    2.6004   -8.2528    0.0000 C   0  0  0  0  0  0  0  0  0  0  0  0
    6.4919   -7.4934    0.0000 C   0  0  0  0  0  0  0  0  0  0  0  0
   -2.6000    0.7500    0.0000 C   0  0  0  0  0  0  0  0  0  0  0  0
    6.4966   -6.0012    0.0000 C   0  0  0  0  0  0  0  0  0  0  0  0
   -2.6000   -0.7500    0.0000 C   0  0  0  0  0  0  0  0  0  0  0  0
    5.1927   -8.2432    0.0000 C   0  0  0  0  0  0  0  0  0  0  0  0
   -1.3000    1.5000    0.0000 C   0  0  0  0  0  0  0  0  0  0  0  0
    5.1972   -5.2502    0.0000 C   0  0  0  0  0  0  0  0  0  0  0  0
   -1.3000   -1.5000    0.0000 C   0  0  0  0  0  0  0  0  0  0  0  0
    1.3000    1.5000    0.0000 C   0  0  0  0  0  0  0  0  0  0  0  0
    2.6000    0.7500    0.0000 C   0  0  0  0  0  0  0  0  0  0  0  0
    1.3000   -3.0000    0.0000 C   0  0  0  0  0  0  0  0  0  0  0  0
    3.8983   -7.5008    0.0000 C   0  0  0  0  0  0  0  0  0  0  0  0
    0.0000    0.7500    0.0000 C   0  0  0  0  0  0  0  0  0  0  0  0
    3.8981   -6.0000    0.0000 C   0  0  0  0  0  0  0  0  0  0  0  0
    0.0000   -0.7500    0.0000 C   0  0  0  0  0  0  0  0  0  0  0  0
    1.3000   -1.5000    0.0000 C   0  0  0  0  0  0  0  0  0  0  0  0
    2.5990   -5.2500    0.0000 C   0  0  0  0  0  0  0  0  0  0  0  0
    2.6000   -0.7500    0.0000 N   0  0  0  0  0  0  0  0  0  0  0  0
    1.3000   -6.0000    0.0000 O   0  0  0  0  0  0  0  0  0  0  0  0
    2.5990   -3.7500    0.0000 O   0  0  0  0  0  0  0  0  0  0  0  0
  4  2  2  0
  5  3  2  0
  6  2  1  0
  7  3  1  0
  8  4  1  0
  9  5  1  0
 11 10  2  0
 13  1  1  0
 13  6  2  0
 14  7  2  0
 14 10  1  0
 15  8  2  0
 15 13  1  0
 16  9  2  0
 16 14  1  0
 17 12  1  0
 17 16  1  0
 18 15  1  0
 19 11  1  0
 19 17  2  0
 20 18  2  0
 21 12  1  0
 21 18  1  0
M  END
>  <NAME>  (476) 
3-ISOQUINOLYLMETHYL 2-METHYLBENZOATE

>  <SYNONYMS>  (476) 


>  <SPECTRUM TYPE>  (476) 
MS1

>  <INSTRUMENT TYPE>  (476) 
EI-B

>  <INSTRUMENT>  (476) 
JEOL JMS-DX-300

>  <ION MODE>  (476) 
P

>  <INCHIKEY>  (476) 
AZZFAKNRCBCLEK-UHFFFAOYSA-N

>  <FORMULA>  (476) 
C18H15NO2

>  <EXACT MASS>  (476) 
277.11027872

>  <MW>  (476) 
277

>  <ID>  (476) 
JP011469

>  <CONTRIBUTOR>  (476) 
University of Tokyo Team, {Faculty of Engineering, University of Tokyo

>  <COMMENT>  (476) 
SMILES=Cc(c3)c(ccc3)C(=O)OCc(n1)c(c2)c(ccc2)cc1
InChI=InChI=1S/C18H15NO2/c1-13-6-2-4-8-15(13)18(20)21-12-17-16-9-5-3-7-14(16)10-11-19-17/h2-11H,12H2,1H3
computed SMILES=O=C(OCC1=NC=CC=2C=CC=CC21)C=3C=CC=CC3C
accession=JP011469
date=2016.01.19 (Created 2008.10.21, modified 2011.05.06)
author=FUJISE Y, HAMAMATSU UNIV. SCHOOL OF MEDICINE
license=CC BY-NC-SA
exact mass=277.11028
ionization energy=70 eV
ion type=[M]+*
computed spectral entropy=3.2365383456277574
computed normalized entropy=0.7970899572340537
SPLASH=splash10-0aou-3920000000-ac18bb2be545525373fd
submitter=submitter = University of Tokyo Team (Faculty of Engineering, University of Tokyo)
MoNA Rating=3.75

>  <NUM PEAKS>  (476) 
58

>  <MASS SPECTRAL PEAKS>  (476) 
39 5.7
41 1.73
43 1.67
45 2.62
50 1.41
51 3.52
52 1.13
57 1.39
62 1.14
63 4.65
64 1.35
65 15.31
75 2.19
76 1.73
77 8.54
78 1.34
79 2.8
88 1.29
89 9.26
90 11.93
91 34.78
92 3.66
101 2.98
102 4.14
103 2.68
105 3.45
113 1.1
114 2.35
115 26.42
116 7.85
118 24.26
119 22
120 1.93
128 12.93
129 6.94
130 4.52
135 4.59
136 3.86
140 4.34
141 3.19
142 43.32
143 11.23
144 1.63
156 3.51
157 1.97
158 99.99
159 15.71
160 1.04
218 2.14
230 1.64
231 1.1
232 8.58
233 1.99
246 1.26
276 1.46
277 44.7
278 9.12
279 1.03

$$$$

     RDKit          2D

 21 23  0  0  0  0  0  0  0  0999 V2000
   -5.2002   -3.7498    0.0000 C   0  0  0  0  0  0  0  0  0  0  0  0
   -6.4883   -7.4996    0.0000 C   0  0  0  0  0  0  0  0  0  0  0  0
   -5.1984   -8.2498    0.0000 C   0  0  0  0  0  0  0  0  0  0  0  0
   -2.6000    0.7500    0.0000 C   0  0  0  0  0  0  0  0  0  0  0  0
    2.6000    0.7500    0.0000 C   0  0  0  0  0  0  0  0  0  0  0  0
   -6.4881   -5.9996    0.0000 C   0  0  0  0  0  0  0  0  0  0  0  0
   -1.3000    1.5000    0.0000 C   0  0  0  0  0  0  0  0  0  0  0  0
   -2.6000   -0.7500    0.0000 C   0  0  0  0  0  0  0  0  0  0  0  0
    1.3000    1.5000    0.0000 C   0  0  0  0  0  0  0  0  0  0  0  0
   -3.8983   -7.5000    0.0000 C   0  0  0  0  0  0  0  0  0  0  0  0
    2.6000   -0.7500    0.0000 C   0  0  0  0  0  0  0  0  0  0  0  0
   -1.3000   -3.0000    0.0000 C   0  0  0  0  0  0  0  0  0  0  0  0
   -5.1980   -5.2498    0.0000 C   0  0  0  0  0  0  0  0  0  0  0  0
   -0.0000    0.7500    0.0000 C   0  0  0  0  0  0  0  0  0  0  0  0
   -1.3000   -1.5000    0.0000 C   0  0  0  0  0  0  0  0  0  0  0  0
   -3.8981   -6.0000    0.0000 C   0  0  0  0  0  0  0  0  0  0  0  0
   -0.0000   -0.7500    0.0000 C   0  0  0  0  0  0  0  0  0  0  0  0
   -2.5990   -5.2500    0.0000 C   0  0  0  0  0  0  0  0  0  0  0  0
    1.3000   -1.5000    0.0000 N   0  0  0  0  0  0  0  0  0  0  0  0
   -1.3000   -6.0000    0.0000 O   0  0  0  0  0  0  0  0  0  0  0  0
   -2.5990   -3.7500    0.0000 O   0  0  0  0  0  0  0  0  0  0  0  0
  3  2  2  0
  6  2  1  0
  7  4  2  0
  8  4  1  0
  9  5  1  0
 10  3  1  0
 11  5  2  0
 13  1  1  0
 13  6  2  0
 14  7  1  0
 14  9  2  0
 15  8  2  0
 15 12  1  0
 16 10  2  0
 16 13  1  0
 17 14  1  0
 17 15  1  0
 18 16  1  0
 19 11  1  0
 19 17  2  0
 20 18  2  0
 21 12  1  0
 21 18  1  0
M  END
>  <NAME>  (477) 
8-QUINOLYLMETHYL 2-METHYLBENZOATE

>  <SYNONYMS>  (477) 


>  <SPECTRUM TYPE>  (477) 
MS1

>  <INSTRUMENT TYPE>  (477) 
EI-B

>  <INSTRUMENT>  (477) 
JEOL JMS-DX-300

>  <ION MODE>  (477) 
P

>  <INCHIKEY>  (477) 
GJVZYYVLYSMMHW-UHFFFAOYSA-N

>  <FORMULA>  (477) 
C18H15NO2

>  <EXACT MASS>  (477) 
277.11027872000005

>  <MW>  (477) 
277

>  <ID>  (477) 
JP011468

>  <CONTRIBUTOR>  (477) 
University of Tokyo Team, {Faculty of Engineering, University of Tokyo

>  <COMMENT>  (477) 
SMILES=Cc(c3)c(ccc3)C(=O)OCc(c1)c(n2)c(ccc2)cc1
InChI=InChI=1S/C18H15NO2/c1-13-6-2-3-10-16(13)18(20)21-12-15-8-4-7-14-9-5-11-19-17(14)15/h2-11H,12H2,1H3
computed SMILES=O=C(OCC1=CC=CC2=CC=CN=C21)C=3C=CC=CC3C
accession=JP011468
date=2016.01.19 (Created 2008.10.21, modified 2011.05.06)
author=FUJISE Y, HAMAMATSU UNIV. SCHOOL OF MEDICINE
license=CC BY-NC-SA
exact mass=277.11028
ionization energy=70 eV
ion type=[M]+*
computed spectral entropy=2.7110965981577917
computed normalized entropy=0.7508053807217384
SPLASH=splash10-0a4i-2900000000-e416173071241b3724aa
submitter=submitter = University of Tokyo Team (Faculty of Engineering, University of Tokyo)
MoNA Rating=3.75

>  <NUM PEAKS>  (477) 
37

>  <MASS SPECTRAL PEAKS>  (477) 
39 3.09
41 1.21
51 1.64
63 2.77
65 9.96
75 1.05
76 1.02
77 4.04
89 4.5
90 3.99
91 20.22
92 1.84
101 1.12
102 2.35
103 1.68
114 2.19
115 5.5
116 3.53
118 4.3
119 12.99
120 1.07
128 6.56
129 5.11
130 3.81
135 1.7
140 2.14
141 6.74
142 35.1
143 6.21
156 8.91
157 1.41
158 99.99
159 15.56
160 1.04
232 2.62
277 11.61
278 2.57

$$$$

     RDKit          2D

 21 23  0  0  0  0  0  0  0  0999 V2000
   -6.4989    1.5022    0.0000 C   0  0  0  0  0  0  0  0  0  0  0  0
  -10.3902    0.7422    0.0000 C   0  0  0  0  0  0  0  0  0  0  0  0
  -10.3947   -0.7500    0.0000 C   0  0  0  0  0  0  0  0  0  0  0  0
    2.6000    0.7500    0.0000 C   0  0  0  0  0  0  0  0  0  0  0  0
   -9.0912    1.4922    0.0000 C   0  0  0  0  0  0  0  0  0  0  0  0
    1.3000    1.5000    0.0000 C   0  0  0  0  0  0  0  0  0  0  0  0
   -9.0952   -1.5008    0.0000 C   0  0  0  0  0  0  0  0  0  0  0  0
   -2.6000    0.7500    0.0000 C   0  0  0  0  0  0  0  0  0  0  0  0
   -1.3000    1.5000    0.0000 C   0  0  0  0  0  0  0  0  0  0  0  0
    2.6000   -0.7500    0.0000 C   0  0  0  0  0  0  0  0  0  0  0  0
   -1.3000   -1.5000    0.0000 C   0  0  0  0  0  0  0  0  0  0  0  0
   -3.8989   -1.5002    0.0000 C   0  0  0  0  0  0  0  0  0  0  0  0
   -7.7966    0.7500    0.0000 C   0  0  0  0  0  0  0  0  0  0  0  0
   -2.6000   -0.7500    0.0000 C   0  0  0  0  0  0  0  0  0  0  0  0
   -0.0000    0.7500    0.0000 C   0  0  0  0  0  0  0  0  0  0  0  0
   -7.7962   -0.7508    0.0000 C   0  0  0  0  0  0  0  0  0  0  0  0
   -0.0000   -0.7500    0.0000 C   0  0  0  0  0  0  0  0  0  0  0  0
   -6.4970   -1.5006    0.0000 C   0  0  0  0  0  0  0  0  0  0  0  0
    1.3000   -1.5000    0.0000 N   0  0  0  0  0  0  0  0  0  0  0  0
   -6.4968   -3.0006    0.0000 O   0  0  0  0  0  0  0  0  0  0  0  0
   -5.1981   -0.7504    0.0000 O   0  0  0  0  0  0  0  0  0  0  0  0
  3  2  2  0
  5  2  1  0
  6  4  2  0
  7  3  1  0
  9  8  1  0
 10  4  1  0
 13  1  1  0
 13  5  2  0
 14  8  2  0
 14 11  1  0
 14 12  1  0
 15  6  1  0
 15  9  2  0
 16  7  2  0
 16 13  1  0
 17 11  2  0
 17 15  1  0
 18 16  1  0
 19 10  2  0
 19 17  1  0
 20 18  2  0
 21 12  1  0
 21 18  1  0
M  END
>  <NAME>  (478) 
7-QUINOLYLMETHYL 2-METHYLBENZOATE

>  <SYNONYMS>  (478) 


>  <SPECTRUM TYPE>  (478) 
MS1

>  <INSTRUMENT TYPE>  (478) 
EI-B

>  <INSTRUMENT>  (478) 
JEOL JMS-DX-300

>  <ION MODE>  (478) 
P

>  <INCHIKEY>  (478) 
KAZSXOXSTGUMJZ-UHFFFAOYSA-N

>  <FORMULA>  (478) 
C18H15NO2

>  <EXACT MASS>  (478) 
277.11027872

>  <MW>  (478) 
277

>  <ID>  (478) 
JP011467

>  <CONTRIBUTOR>  (478) 
University of Tokyo Team, {Faculty of Engineering, University of Tokyo

>  <COMMENT>  (478) 
SMILES=Cc(c3)c(ccc3)C(=O)OCc(c1)cc(n2)c(ccc2)c1
InChI=InChI=1S/C18H15NO2/c1-13-5-2-3-7-16(13)18(20)21-12-14-8-9-15-6-4-10-19-17(15)11-14/h2-11H,12H2,1H3
computed SMILES=O=C(OCC1=CC=C2C=CC=NC2=C1)C=3C=CC=CC3C
accession=JP011467
date=2016.01.19 (Created 2008.10.21, modified 2011.05.06)
author=FUJISE Y, HAMAMATSU UNIV. SCHOOL OF MEDICINE
license=CC BY-NC-SA
exact mass=277.11028
ion type=[M]+*
ionization energy=70 eV
computed spectral entropy=2.9882222541622094
computed normalized entropy=0.752645477770102
SPLASH=splash10-00kf-2920000000-b196df37f3d13c57270f
submitter=submitter = University of Tokyo Team (Faculty of Engineering, University of Tokyo)
MoNA Rating=3.75

>  <NUM PEAKS>  (478) 
53

>  <MASS SPECTRAL PEAKS>  (478) 
39 5.13
41 2.32
43 1.69
51 3.11
57 1.3
63 4.47
64 1.32
65 14.14
69 3.13
75 1.39
76 0.99
77 7.12
78 1.01
79 3.44
81 1.72
88 1.17
89 7.61
90 5.18
91 33.69
92 3.28
101 2.2
102 2.12
103 1.38
105 2.31
113 1.76
114 4.57
115 11.28
116 7.14
118 2.13
119 99.99
120 10.43
128 4.3
129 2.21
130 5.86
135 7.48
136 1.44
140 4.13
141 15.96
142 95.44
143 16.69
144 1.33
156 3.6
157 1.11
158 29.31
159 3.28
218 1.68
232 11.52
233 3.29
259 1.08
276 1.95
277 60.51
278 12.21
279 1.16

$$$$

     RDKit          2D

 21 23  0  0  0  0  0  0  0  0999 V2000
   -9.0979    3.0012    0.0000 C   0  0  0  0  0  0  0  0  0  0  0  0
  -10.3866   -0.7483    0.0000 C   0  0  0  0  0  0  0  0  0  0  0  0
   -9.0969   -1.4988    0.0000 C   0  0  0  0  0  0  0  0  0  0  0  0
    2.6000    0.7500    0.0000 C   0  0  0  0  0  0  0  0  0  0  0  0
  -10.3862    0.7517    0.0000 C   0  0  0  0  0  0  0  0  0  0  0  0
    1.3000    1.5000    0.0000 C   0  0  0  0  0  0  0  0  0  0  0  0
   -7.7966   -0.7492    0.0000 C   0  0  0  0  0  0  0  0  0  0  0  0
   -2.6000   -0.7500    0.0000 C   0  0  0  0  0  0  0  0  0  0  0  0
   -1.3000   -1.5000    0.0000 C   0  0  0  0  0  0  0  0  0  0  0  0
    2.6000   -0.7500    0.0000 C   0  0  0  0  0  0  0  0  0  0  0  0
   -1.3000    1.5000    0.0000 C   0  0  0  0  0  0  0  0  0  0  0  0
   -3.8989    1.5002    0.0000 C   0  0  0  0  0  0  0  0  0  0  0  0
   -9.0959    1.5012    0.0000 C   0  0  0  0  0  0  0  0  0  0  0  0
   -2.6000    0.7500    0.0000 C   0  0  0  0  0  0  0  0  0  0  0  0
   -0.0000    0.7500    0.0000 C   0  0  0  0  0  0  0  0  0  0  0  0
   -7.7962    0.7508    0.0000 C   0  0  0  0  0  0  0  0  0  0  0  0
   -0.0000   -0.7500    0.0000 C   0  0  0  0  0  0  0  0  0  0  0  0
   -6.4970    1.5006    0.0000 C   0  0  0  0  0  0  0  0  0  0  0  0
    1.3000   -1.5000    0.0000 N   0  0  0  0  0  0  0  0  0  0  0  0
   -6.4968    3.0006    0.0000 O   0  0  0  0  0  0  0  0  0  0  0  0
   -5.1981    0.7504    0.0000 O   0  0  0  0  0  0  0  0  0  0  0  0
  3  2  2  0
  5  2  1  0
  6  4  2  0
  7  3  1  0
  9  8  1  0
 10  4  1  0
 13  1  1  0
 13  5  2  0
 14  8  2  0
 14 11  1  0
 14 12  1  0
 15  6  1  0
 15 11  2  0
 16  7  2  0
 16 13  1  0
 17  9  2  0
 17 15  1  0
 18 16  1  0
 19 10  2  0
 19 17  1  0
 20 18  2  0
 21 12  1  0
 21 18  1  0
M  END
>  <NAME>  (479) 
6-QUINOLYLMETHYL 2-METHYLBENZOATE

>  <SYNONYMS>  (479) 


>  <SPECTRUM TYPE>  (479) 
MS1

>  <INSTRUMENT TYPE>  (479) 
EI-B

>  <INSTRUMENT>  (479) 
JEOL JMS-DX-300

>  <ION MODE>  (479) 
P

>  <INCHIKEY>  (479) 
OXTADCIUYHDWPS-UHFFFAOYSA-N

>  <FORMULA>  (479) 
C18H15NO2

>  <EXACT MASS>  (479) 
277.11027872

>  <MW>  (479) 
277

>  <ID>  (479) 
JP011466

>  <CONTRIBUTOR>  (479) 
University of Tokyo Team, {Faculty of Engineering, University of Tokyo

>  <COMMENT>  (479) 
SMILES=Cc(c3)c(ccc3)C(=O)OCc(c1)cc(c2)c(ncc2)c1
InChI=InChI=1S/C18H15NO2/c1-13-5-2-3-7-16(13)18(20)21-12-14-8-9-17-15(11-14)6-4-10-19-17/h2-11H,12H2,1H3
computed SMILES=O=C(OCC1=CC=C2N=CC=CC2=C1)C=3C=CC=CC3C
accession=JP011466
date=2016.01.19 (Created 2008.10.21, modified 2011.05.06)
author=FUJISE Y, HAMAMATSU UNIV. SCHOOL OF MEDICINE
license=CC BY-NC-SA
exact mass=277.11028
ionization energy=70 eV
ion type=[M]+*
computed spectral entropy=2.786949848762277
computed normalized entropy=0.7161044537732808
SPLASH=splash10-00kf-2920000000-276176028b47949fa97d
submitter=submitter = University of Tokyo Team (Faculty of Engineering, University of Tokyo)
MoNA Rating=3.75

>  <NUM PEAKS>  (479) 
49

>  <MASS SPECTRAL PEAKS>  (479) 
39 4.3
41 2.33
43 1.68
50 1.33
51 3.36
55 1.34
57 1.23
60 1.07
63 3.57
64 1.17
65 12.04
69 2.69
75 1.23
76 1.11
77 5.28
78 4.46
79 2.61
89 6.31
90 4.31
91 26.34
92 2.83
101 1.8
102 1.58
103 1.14
105 1.13
113 1.32
114 3.93
115 8.82
116 5.69
118 1.62
119 94.1
120 9.15
128 3.56
129 1.3
130 3.44
135 6.27
140 3.81
141 14.64
142 99.99
143 14.26
144 1.45
156 1.47
158 2.19
218 1.12
232 2.47
259 1.4
277 48.32
278 9.96
279 1.18

$$$$

     RDKit          2D

 21 23  0  0  0  0  0  0  0  0999 V2000
   -2.6004    8.2528    0.0000 C   0  0  0  0  0  0  0  0  0  0  0  0
   -6.4919    7.4934    0.0000 C   0  0  0  0  0  0  0  0  0  0  0  0
   -6.4966    6.0012    0.0000 C   0  0  0  0  0  0  0  0  0  0  0  0
   -2.6000   -0.7500    0.0000 C   0  0  0  0  0  0  0  0  0  0  0  0
    2.6000    0.7500    0.0000 C   0  0  0  0  0  0  0  0  0  0  0  0
   -5.1927    8.2432    0.0000 C   0  0  0  0  0  0  0  0  0  0  0  0
   -2.6000    0.7500    0.0000 C   0  0  0  0  0  0  0  0  0  0  0  0
   -5.1972    5.2502    0.0000 C   0  0  0  0  0  0  0  0  0  0  0  0
    1.3000    1.5000    0.0000 C   0  0  0  0  0  0  0  0  0  0  0  0
   -1.3000   -1.5000    0.0000 C   0  0  0  0  0  0  0  0  0  0  0  0
    2.6000   -0.7500    0.0000 C   0  0  0  0  0  0  0  0  0  0  0  0
   -1.3000    3.0000    0.0000 C   0  0  0  0  0  0  0  0  0  0  0  0
   -3.8983    7.5008    0.0000 C   0  0  0  0  0  0  0  0  0  0  0  0
   -1.3000    1.5000    0.0000 C   0  0  0  0  0  0  0  0  0  0  0  0
   -3.8981    6.0000    0.0000 C   0  0  0  0  0  0  0  0  0  0  0  0
   -0.0000    0.7500    0.0000 C   0  0  0  0  0  0  0  0  0  0  0  0
   -0.0000   -0.7500    0.0000 C   0  0  0  0  0  0  0  0  0  0  0  0
   -2.5990    5.2500    0.0000 C   0  0  0  0  0  0  0  0  0  0  0  0
    1.3000   -1.5000    0.0000 N   0  0  0  0  0  0  0  0  0  0  0  0
   -1.3000    6.0000    0.0000 O   0  0  0  0  0  0  0  0  0  0  0  0
   -2.5990    3.7500    0.0000 O   0  0  0  0  0  0  0  0  0  0  0  0
  3  2  2  0
  6  2  1  0
  7  4  2  0
  8  3  1  0
  9  5  2  0
 10  4  1  0
 11  5  1  0
 13  1  1  0
 13  6  2  0
 14  7  1  0
 14 12  1  0
 15  8  2  0
 15 13  1  0
 16  9  1  0
 16 14  2  0
 17 10  2  0
 17 16  1  0
 18 15  1  0
 19 11  2  0
 19 17  1  0
 20 18  2  0
 21 12  1  0
 21 18  1  0
M  END
>  <NAME>  (480) 
5-QUINOLYLMETHYL 2-METHYLBENZOATE

>  <SYNONYMS>  (480) 


>  <SPECTRUM TYPE>  (480) 
MS1

>  <INSTRUMENT TYPE>  (480) 
EI-B

>  <INSTRUMENT>  (480) 
JEOL JMS-DX-300

>  <ION MODE>  (480) 
P

>  <INCHIKEY>  (480) 
DEMBFYWIAASJQR-UHFFFAOYSA-N

>  <FORMULA>  (480) 
C18H15NO2

>  <EXACT MASS>  (480) 
277.11027872

>  <MW>  (480) 
277

>  <ID>  (480) 
JP011465

>  <CONTRIBUTOR>  (480) 
University of Tokyo Team, {Faculty of Engineering, University of Tokyo

>  <COMMENT>  (480) 
SMILES=Cc(c3)c(ccc3)C(=O)OCc(c1)c(c2)c(ncc2)cc1
InChI=InChI=1S/C18H15NO2/c1-13-6-2-3-8-15(13)18(20)21-12-14-7-4-10-17-16(14)9-5-11-19-17/h2-11H,12H2,1H3
computed SMILES=O=C(OCC1=CC=CC2=NC=CC=C21)C=3C=CC=CC3C
accession=JP011465
date=2016.01.19 (Created 2008.10.21, modified 2011.05.06)
author=FUJISE Y, HAMAMATSU UNIV. SCHOOL OF MEDICINE
license=CC BY-NC-SA
exact mass=277.11028
ionization energy=70 eV
ion type=[M]+*
computed spectral entropy=2.8973731046076288
computed normalized entropy=0.7297632435332496
SPLASH=splash10-00kf-2920000000-9afb99a35bd015fe2869
submitter=submitter = University of Tokyo Team (Faculty of Engineering, University of Tokyo)
MoNA Rating=3.75

>  <NUM PEAKS>  (480) 
53

>  <MASS SPECTRAL PEAKS>  (480) 
39 4.71
41 2.66
43 1.79
45 1.25
51 2.41
55 1.13
57 1.38
63 3.59
64 1.2
65 12.12
69 3.51
75 1.37
76 1.08
77 4.84
78 1.25
79 2.62
81 1.63
89 7.26
90 4.14
91 26.87
92 2.7
101 1.73
102 1.96
103 1.34
105 1.44
113 1.53
114 4.41
115 12.23
116 6.72
118 1.85
119 77.1
120 6.76
128 3.6
129 1.72
130 2.67
135 6.59
136 1.39
140 4.61
141 17.34
142 99.99
143 16.6
144 1.37
156 1.1
158 2.93
218 1.71
230 1.15
232 2.3
233 1.01
259 4.6
260 1
277 58.31
278 11.82
279 1.41

$$$$

     RDKit          2D

 21 23  0  0  0  0  0  0  0  0999 V2000
    5.2002    3.7498    0.0000 C   0  0  0  0  0  0  0  0  0  0  0  0
    6.4883    7.4996    0.0000 C   0  0  0  0  0  0  0  0  0  0  0  0
    5.1984    8.2498    0.0000 C   0  0  0  0  0  0  0  0  0  0  0  0
   -2.6000    0.7500    0.0000 C   0  0  0  0  0  0  0  0  0  0  0  0
   -2.6000   -0.7500    0.0000 C   0  0  0  0  0  0  0  0  0  0  0  0
    6.4881    5.9996    0.0000 C   0  0  0  0  0  0  0  0  0  0  0  0
    3.8983    7.5000    0.0000 C   0  0  0  0  0  0  0  0  0  0  0  0
   -1.3000    1.5000    0.0000 C   0  0  0  0  0  0  0  0  0  0  0  0
   -1.3000   -1.5000    0.0000 C   0  0  0  0  0  0  0  0  0  0  0  0
    2.6000    0.7500    0.0000 C   0  0  0  0  0  0  0  0  0  0  0  0
    2.6000   -0.7500    0.0000 C   0  0  0  0  0  0  0  0  0  0  0  0
    1.3000    3.0000    0.0000 C   0  0  0  0  0  0  0  0  0  0  0  0
    5.1980    5.2498    0.0000 C   0  0  0  0  0  0  0  0  0  0  0  0
    1.3000    1.5000    0.0000 C   0  0  0  0  0  0  0  0  0  0  0  0
    3.8981    6.0000    0.0000 C   0  0  0  0  0  0  0  0  0  0  0  0
   -0.0000    0.7500    0.0000 C   0  0  0  0  0  0  0  0  0  0  0  0
   -0.0000   -0.7500    0.0000 C   0  0  0  0  0  0  0  0  0  0  0  0
    2.5990    5.2500    0.0000 C   0  0  0  0  0  0  0  0  0  0  0  0
    1.3000   -1.5000    0.0000 N   0  0  0  0  0  0  0  0  0  0  0  0
    1.3000    6.0000    0.0000 O   0  0  0  0  0  0  0  0  0  0  0  0
    2.5990    3.7500    0.0000 O   0  0  0  0  0  0  0  0  0  0  0  0
  3  2  2  0
  5  4  2  0
  6  2  1  0
  7  3  1  0
  8  4  1  0
  9  5  1  0
 11 10  1  0
 13  1  1  0
 13  6  2  0
 14 10  2  0
 14 12  1  0
 15  7  2  0
 15 13  1  0
 16  8  2  0
 16 14  1  0
 17  9  2  0
 17 16  1  0
 18 15  1  0
 19 11  2  0
 19 17  1  0
 20 18  2  0
 21 12  1  0
 21 18  1  0
M  END
>  <NAME>  (481) 
4-QUINOLYLMETHYL 2-METHYLBENZOATE

>  <SYNONYMS>  (481) 


>  <SPECTRUM TYPE>  (481) 
MS1

>  <INSTRUMENT TYPE>  (481) 
EI-B

>  <INSTRUMENT>  (481) 
JEOL JMS-DX-300

>  <ION MODE>  (481) 
P

>  <INCHIKEY>  (481) 
WUEPOTIALDBBBY-UHFFFAOYSA-N

>  <FORMULA>  (481) 
C18H15NO2

>  <EXACT MASS>  (481) 
277.11027872000005

>  <MW>  (481) 
277

>  <ID>  (481) 
JP011464

>  <CONTRIBUTOR>  (481) 
University of Tokyo Team, {Faculty of Engineering, University of Tokyo

>  <COMMENT>  (481) 
SMILES=Cc(c3)c(ccc3)C(=O)OCc(c1)c(c2)c(ccc2)nc1
InChI=InChI=1S/C18H15NO2/c1-13-6-2-3-7-15(13)18(20)21-12-14-10-11-19-17-9-5-4-8-16(14)17/h2-11H,12H2,1H3
computed SMILES=O=C(OCC=1C=CN=C2C=CC=CC21)C=3C=CC=CC3C
accession=JP011464
date=2016.01.19 (Created 2008.10.21, modified 2011.05.06)
author=FUJISE Y, HAMAMATSU UNIV. SCHOOL OF MEDICINE
license=CC BY-NC-SA
exact mass=277.11028
ionization energy=70 eV
ion type=[M]+*
computed spectral entropy=3.16213548893919
computed normalized entropy=0.7855550848432052
SPLASH=splash10-016u-3930000000-2cd8a5ea356120927f41
submitter=submitter = University of Tokyo Team (Faculty of Engineering, University of Tokyo)
MoNA Rating=3.75

>  <NUM PEAKS>  (481) 
56

>  <MASS SPECTRAL PEAKS>  (481) 
39 6.68
41 2.84
50 1.69
51 4.68
52 1.46
62 1.39
63 5.25
64 2.03
65 18.03
66 1.36
75 3.07
76 1.89
77 8.57
78 3.84
79 5.02
88 1.34
89 11.28
90 7.43
91 47.11
92 4.5
101 4.57
102 2.88
103 1.63
105 3.88
113 1.3
114 4.07
115 34.19
116 8.05
118 5.28
119 99.99
120 10.78
128 4.66
129 3.62
130 4.42
135 27.37
136 5.37
140 4.15
141 2.85
142 43.47
143 35.52
144 4.39
156 1.59
158 1.74
217 1.61
218 1.29
230 1.05
231 1.37
232 9.59
233 1.84
259 8.12
260 1.35
263 1.2
276 2.34
277 73.7
278 15.68
279 1.71

$$$$

     RDKit          2D

 21 23  0  0  0  0  0  0  0  0999 V2000
    6.4989   -1.5022    0.0000 C   0  0  0  0  0  0  0  0  0  0  0  0
   10.3902   -0.7422    0.0000 C   0  0  0  0  0  0  0  0  0  0  0  0
   -2.6000    0.7500    0.0000 C   0  0  0  0  0  0  0  0  0  0  0  0
   10.3947    0.7500    0.0000 C   0  0  0  0  0  0  0  0  0  0  0  0
   -2.6000   -0.7500    0.0000 C   0  0  0  0  0  0  0  0  0  0  0  0
    9.0912   -1.4922    0.0000 C   0  0  0  0  0  0  0  0  0  0  0  0
   -1.3000    1.5000    0.0000 C   0  0  0  0  0  0  0  0  0  0  0  0
    9.0952    1.5008    0.0000 C   0  0  0  0  0  0  0  0  0  0  0  0
   -1.3000   -1.5000    0.0000 C   0  0  0  0  0  0  0  0  0  0  0  0
    1.3000    1.5000    0.0000 C   0  0  0  0  0  0  0  0  0  0  0  0
    2.6000   -0.7500    0.0000 C   0  0  0  0  0  0  0  0  0  0  0  0
    3.8989    1.5002    0.0000 C   0  0  0  0  0  0  0  0  0  0  0  0
    7.7966   -0.7500    0.0000 C   0  0  0  0  0  0  0  0  0  0  0  0
    2.6000    0.7500    0.0000 C   0  0  0  0  0  0  0  0  0  0  0  0
   -0.0000    0.7500    0.0000 C   0  0  0  0  0  0  0  0  0  0  0  0
    7.7962    0.7508    0.0000 C   0  0  0  0  0  0  0  0  0  0  0  0
   -0.0000   -0.7500    0.0000 C   0  0  0  0  0  0  0  0  0  0  0  0
    6.4970    1.5006    0.0000 C   0  0  0  0  0  0  0  0  0  0  0  0
    1.3000   -1.5000    0.0000 N   0  0  0  0  0  0  0  0  0  0  0  0
    6.4968    3.0006    0.0000 O   0  0  0  0  0  0  0  0  0  0  0  0
    5.1981    0.7504    0.0000 O   0  0  0  0  0  0  0  0  0  0  0  0
  4  2  2  0
  5  3  2  0
  6  2  1  0
  7  3  1  0
  8  4  1  0
  9  5  1  0
 13  1  1  0
 13  6  2  0
 14 10  2  0
 14 11  1  0
 14 12  1  0
 15  7  2  0
 15 10  1  0
 16  8  2  0
 16 13  1  0
 17  9  2  0
 17 15  1  0
 18 16  1  0
 19 11  2  0
 19 17  1  0
 20 18  2  0
 21 12  1  0
 21 18  1  0
M  END
>  <NAME>  (482) 
3-QUINOLYLMETHYL 2-METHYLBENZOATE

>  <SYNONYMS>  (482) 


>  <SPECTRUM TYPE>  (482) 
MS1

>  <INSTRUMENT TYPE>  (482) 
EI-B

>  <INSTRUMENT>  (482) 
JEOL JMS-DX-300

>  <ION MODE>  (482) 
P

>  <INCHIKEY>  (482) 
KKFPCXIMNQALBG-UHFFFAOYSA-N

>  <FORMULA>  (482) 
C18H15NO2

>  <EXACT MASS>  (482) 
277.11027872

>  <MW>  (482) 
277

>  <ID>  (482) 
JP011463

>  <CONTRIBUTOR>  (482) 
University of Tokyo Team, {Faculty of Engineering, University of Tokyo

>  <COMMENT>  (482) 
SMILES=Cc(c3)c(ccc3)C(=O)OCc(c1)cc(c2)c(ccc2)n1
InChI=InChI=1S/C18H15NO2/c1-13-6-2-4-8-16(13)18(20)21-12-14-10-15-7-3-5-9-17(15)19-11-14/h2-11H,12H2,1H3
computed SMILES=O=C(OCC1=CN=C2C=CC=CC2=C1)C=3C=CC=CC3C
accession=JP011463
date=2016.01.19 (Created 2008.10.21, modified 2011.05.06)
author=FUJISE Y, HAMAMATSU UNIV. SCHOOL OF MEDICINE
license=CC BY-NC-SA
exact mass=277.11028
ionization energy=70 eV
ion type=[M]+*
computed spectral entropy=2.831452859955021
computed normalized entropy=0.7482322858707405
SPLASH=splash10-00mo-3940000000-1a07132b6d747567db13
submitter=submitter = University of Tokyo Team (Faculty of Engineering, University of Tokyo)
MoNA Rating=3.75

>  <NUM PEAKS>  (482) 
44

>  <MASS SPECTRAL PEAKS>  (482) 
39 4.25
41 1.64
51 2.37
63 5.16
64 1.26
65 14.1
75 1.62
77 4.93
79 2.97
88 1.28
89 9.43
90 4.91
91 27.95
92 2.64
101 2.8
102 1.13
103 1.14
105 1.15
113 1.65
114 3.98
115 33.16
116 6.75
118 2.28
119 49.21
120 4.52
128 4.1
129 1.18
130 2.5
135 5.77
136 1.66
140 5.07
141 7.14
142 99.99
144 1.3
156 2.41
158 5.98
218 1.42
228 12.32
229 1.44
232 47.88
233 3.09
259 2.11
276 1.49
277 59.46

$$$$

     RDKit          2D

 17 18  0  0  0  0  0  0  0  0999 V2000
    4.8289   -1.7122    0.0000 C   0  0  0  0  0  0  0  0  0  0  0  0
    8.7202   -0.9522    0.0000 C   0  0  0  0  0  0  0  0  0  0  0  0
    8.7247    0.5400    0.0000 C   0  0  0  0  0  0  0  0  0  0  0  0
   -1.6700    0.5400    0.0000 C   0  0  0  0  0  0  0  0  0  0  0  0
    7.4212   -1.7022    0.0000 C   0  0  0  0  0  0  0  0  0  0  0  0
   -0.3700    1.2900    0.0000 C   0  0  0  0  0  0  0  0  0  0  0  0
    7.4252    1.2908    0.0000 C   0  0  0  0  0  0  0  0  0  0  0  0
   -1.6700   -0.9600    0.0000 C   0  0  0  0  0  0  0  0  0  0  0  0
    0.9300   -0.9600    0.0000 C   0  0  0  0  0  0  0  0  0  0  0  0
    2.2289    1.2902    0.0000 C   0  0  0  0  0  0  0  0  0  0  0  0
    6.1266   -0.9600    0.0000 C   0  0  0  0  0  0  0  0  0  0  0  0
    0.9300    0.5400    0.0000 C   0  0  0  0  0  0  0  0  0  0  0  0
    6.1262    0.5408    0.0000 C   0  0  0  0  0  0  0  0  0  0  0  0
    4.8270    1.2906    0.0000 C   0  0  0  0  0  0  0  0  0  0  0  0
   -0.3700   -1.7100    0.0000 N   0  0  0  0  0  0  0  0  0  0  0  0
    4.8268    2.7906    0.0000 O   0  0  0  0  0  0  0  0  0  0  0  0
    3.5281    0.5404    0.0000 O   0  0  0  0  0  0  0  0  0  0  0  0
  3  2  2  0
  5  2  1  0
  6  4  2  0
  7  3  1  0
  8  4  1  0
 11  1  1  0
 11  5  2  0
 12  6  1  0
 12  9  2  0
 12 10  1  0
 13  7  2  0
 13 11  1  0
 14 13  1  0
 15  8  2  0
 15  9  1  0
 16 14  2  0
 17 10  1  0
 17 14  1  0
M  END
>  <NAME>  (483) 
3-PYRIDYLMETHYL 2-METHYLBENZOATE

>  <SYNONYMS>  (483) 


>  <SPECTRUM TYPE>  (483) 
MS1

>  <INSTRUMENT TYPE>  (483) 
EI-B

>  <INSTRUMENT>  (483) 
JEOL JMS-DX-300

>  <ION MODE>  (483) 
P

>  <INCHIKEY>  (483) 
UKWSQGOFAPMMCG-UHFFFAOYSA-N

>  <FORMULA>  (483) 
C14H13NO2

>  <EXACT MASS>  (483) 
227.094628656

>  <MW>  (483) 
227

>  <ID>  (483) 
JP011462

>  <CONTRIBUTOR>  (483) 
University of Tokyo Team, {Faculty of Engineering, University of Tokyo

>  <COMMENT>  (483) 
SMILES=Cc(c2)c(ccc2)C(=O)OCc(c1)cncc1
InChI=InChI=1S/C14H13NO2/c1-11-5-2-3-7-13(11)14(16)17-10-12-6-4-8-15-9-12/h2-9H,10H2,1H3
computed SMILES=O=C(OCC=1C=NC=CC1)C=2C=CC=CC2C
accession=JP011462
date=2016.01.19 (Created 2008.10.21, modified 2011.05.06)
author=FUJISE Y, HAMAMATSU UNIV. SCHOOL OF MEDICINE
license=CC BY-NC-SA
exact mass=227.09463
ionization energy=70 eV
ion type=[M]+*
computed spectral entropy=3.264498312175823
computed normalized entropy=0.7849459209944086
SPLASH=splash10-00kf-9520000000-125e539344c895ef5e4b
submitter=submitter = University of Tokyo Team (Faculty of Engineering, University of Tokyo)
MoNA Rating=3.75

>  <NUM PEAKS>  (483) 
64

>  <MASS SPECTRAL PEAKS>  (483) 
38 4.01
39 34.6
40 2.17
41 5.87
43 3.48
44 2.12
45 4.15
50 5.19
51 12.37
52 6.22
53 7.16
54 1.08
55 2.26
56 1.01
57 3.02
60 2.11
62 2.47
63 15.41
64 8.83
65 77.38
66 5.34
67 1.15
69 2.31
71 1.31
75 1.03
76 1.01
77 11.45
78 8.09
79 11.36
80 7.86
81 1.66
83 1.31
85 1
89 13.56
90 21.24
91 76.24
92 95.14
93 57.03
94 3.81
105 3.54
106 11.57
107 3.11
108 12.35
109 6.78
118 47.27
119 69.54
120 6.3
133 1.44
135 67.95
137 2.5
149 1.21
167 2.16
168 2.75
180 1.67
181 1.19
182 45.56
183 7.9
209 4.25
210 1.1
212 1.02
226 7.17
227 99.99
228 15.78
229 1.47

$$$$

     RDKit          2D

 17 18  0  0  0  0  0  0  0  0999 V2000
    4.8289   -1.7122    0.0000 C   0  0  0  0  0  0  0  0  0  0  0  0
    8.7202   -0.9522    0.0000 C   0  0  0  0  0  0  0  0  0  0  0  0
    8.7247    0.5400    0.0000 C   0  0  0  0  0  0  0  0  0  0  0  0
   -0.3700   -1.7100    0.0000 C   0  0  0  0  0  0  0  0  0  0  0  0
   -1.6700   -0.9600    0.0000 C   0  0  0  0  0  0  0  0  0  0  0  0
    7.4212   -1.7022    0.0000 C   0  0  0  0  0  0  0  0  0  0  0  0
    0.9300   -0.9600    0.0000 C   0  0  0  0  0  0  0  0  0  0  0  0
    7.4252    1.2908    0.0000 C   0  0  0  0  0  0  0  0  0  0  0  0
   -1.6700    0.5400    0.0000 C   0  0  0  0  0  0  0  0  0  0  0  0
    2.2289    1.2902    0.0000 C   0  0  0  0  0  0  0  0  0  0  0  0
    6.1266   -0.9600    0.0000 C   0  0  0  0  0  0  0  0  0  0  0  0
    0.9300    0.5400    0.0000 C   0  0  0  0  0  0  0  0  0  0  0  0
    6.1262    0.5408    0.0000 C   0  0  0  0  0  0  0  0  0  0  0  0
    4.8270    1.2906    0.0000 C   0  0  0  0  0  0  0  0  0  0  0  0
   -0.3700    1.2900    0.0000 N   0  0  0  0  0  0  0  0  0  0  0  0
    4.8268    2.7906    0.0000 O   0  0  0  0  0  0  0  0  0  0  0  0
    3.5281    0.5404    0.0000 O   0  0  0  0  0  0  0  0  0  0  0  0
  3  2  2  0
  5  4  2  0
  6  2  1  0
  7  4  1  0
  8  3  1  0
  9  5  1  0
 11  1  1  0
 11  6  2  0
 12  7  2  0
 12 10  1  0
 13  8  2  0
 13 11  1  0
 14 13  1  0
 15  9  2  0
 15 12  1  0
 16 14  2  0
 17 10  1  0
 17 14  1  0
M  END
>  <NAME>  (484) 
2-PYRIDYLMETHYL 2-METHYLBENZOATE

>  <SYNONYMS>  (484) 


>  <SPECTRUM TYPE>  (484) 
MS1

>  <INSTRUMENT TYPE>  (484) 
EI-B

>  <INSTRUMENT>  (484) 
JEOL JMS-DX-300

>  <ION MODE>  (484) 
P

>  <INCHIKEY>  (484) 
GBUUDAAJVDQGIY-UHFFFAOYSA-N

>  <FORMULA>  (484) 
C14H13NO2

>  <EXACT MASS>  (484) 
227.094628656

>  <MW>  (484) 
227

>  <ID>  (484) 
JP011461

>  <CONTRIBUTOR>  (484) 
University of Tokyo Team, {Faculty of Engineering, University of Tokyo

>  <COMMENT>  (484) 
SMILES=Cc(c2)c(ccc2)C(=O)OCc(c1)nccc1
InChI=InChI=1S/C14H13NO2/c1-11-6-2-3-8-13(11)14(16)17-10-12-7-4-5-9-15-12/h2-9H,10H2,1H3
computed SMILES=O=C(OCC1=NC=CC=C1)C=2C=CC=CC2C
accession=JP011461
date=2016.01.19 (Created 2008.10.21, modified 2011.05.06)
author=FUJISE Y, HAMAMATSU UNIV. SCHOOL OF MEDICINE
license=CC BY-NC-SA
exact mass=227.09463
ionization energy=70 eV
ion type=[M]+*
computed spectral entropy=3.3378296476054983
computed normalized entropy=0.8025783799887681
SPLASH=splash10-014l-9610000000-32a69a7055f56a2d3d3e
submitter=submitter = University of Tokyo Team (Faculty of Engineering, University of Tokyo)
MoNA Rating=3.75

>  <NUM PEAKS>  (484) 
64

>  <MASS SPECTRAL PEAKS>  (484) 
38 2.32
39 16.77
40 1.64
41 6.47
42 1.28
43 4.72
44 1.34
45 4.79
50 6
51 15.67
52 13.27
53 8.28
54 1.13
55 2.99
56 1.01
57 4.03
60 1.96
62 1.71
63 7.72
64 4.47
65 42.73
66 4.5
69 3.51
71 1.61
73 1.85
75 1.19
76 1.38
77 6.85
78 17.39
79 16.05
80 17.02
81 2.5
83 1.38
85 1.15
89 8.77
90 24.63
91 46.42
92 24.48
93 11.57
94 1.33
105 4.94
106 2.8
107 1.21
108 69.6
109 18.92
110 1.53
118 99.99
119 36.82
120 2.95
129 1.02
135 6.63
136 4.84
167 1.15
168 2.82
169 1.21
180 1.83
182 3.21
183 1.28
196 2.69
197 1.41
226 3.85
227 44.03
228 7.17
229 0.87

$$$$

     RDKit          2D

 20 21  0  0  0  0  0  0  0  0999 V2000
   -0.3325    2.4400    0.0000 C   0  0  0  0  0  0  0  0  0  0  0  0
   -1.6200   -1.3100    0.0000 C   0  0  0  0  0  0  0  0  0  0  0  0
   -0.3300   -2.0600    0.0000 C   0  0  0  0  0  0  0  0  0  0  0  0
   -1.6200    0.1900    0.0000 C   0  0  0  0  0  0  0  0  0  0  0  0
    0.9700   -1.3100    0.0000 C   0  0  0  0  0  0  0  0  0  0  0  0
    6.1666   -1.3092    0.0000 C   0  0  0  0  0  0  0  0  0  0  0  0
    7.4659    0.9412    0.0000 C   0  0  0  0  0  0  0  0  0  0  0  0
    7.4669   -2.0588    0.0000 C   0  0  0  0  0  0  0  0  0  0  0  0
    8.7662    0.1917    0.0000 C   0  0  0  0  0  0  0  0  0  0  0  0
    4.8670    0.9406    0.0000 C   0  0  0  0  0  0  0  0  0  0  0  0
   -0.3300    0.9400    0.0000 C   0  0  0  0  0  0  0  0  0  0  0  0
    6.1662    0.1908    0.0000 C   0  0  0  0  0  0  0  0  0  0  0  0
    8.7666   -1.3083    0.0000 C   0  0  0  0  0  0  0  0  0  0  0  0
    0.9700    0.1900    0.0000 C   0  0  0  0  0  0  0  0  0  0  0  0
    2.2689    0.9402    0.0000 C   0  0  0  0  0  0  0  0  0  0  0  0
   10.0658   -2.0581    0.0000 N   0  0  0  0  0  0  0  0  0  0  0  0
    2.2687    2.4402    0.0000 O   0  0  0  0  0  0  0  0  0  0  0  0
   11.3647   -1.3079    0.0000 O   0  0  0  0  0  0  0  0  0  0  0  0
   10.0660   -3.5581    0.0000 O   0  0  0  0  0  0  0  0  0  0  0  0
    3.5681    0.1904    0.0000 O   0  0  0  0  0  0  0  0  0  0  0  0
  3  2  2  0
  4  2  1  0
  5  3  1  0
  8  6  2  0
  9  7  1  0
 11  1  1  0
 11  4  2  0
 12  6  1  0
 12  7  2  0
 12 10  1  0
 13  8  1  0
 13  9  2  0
 14  5  2  0
 14 11  1  0
 15 14  1  0
 16 13  1  0
 17 15  2  0
 18 16  1  0
 19 16  2  0
 20 10  1  0
 20 15  1  0
M  CHG  2  16   1  18  -1
M  END
>  <NAME>  (485) 
4 NITROBENZYL 2-METHYLBENZOATE

>  <SYNONYMS>  (485) 


>  <SPECTRUM TYPE>  (485) 
MS1

>  <INSTRUMENT TYPE>  (485) 
EI-B

>  <INSTRUMENT>  (485) 
JEOL JMS-DX-300

>  <ION MODE>  (485) 
P

>  <INCHIKEY>  (485) 
XCRHOGKPDBYWJW-UHFFFAOYSA-N

>  <FORMULA>  (485) 
C15H13NO4

>  <EXACT MASS>  (485) 
271.084457896

>  <MW>  (485) 
271

>  <ID>  (485) 
JP011460

>  <CONTRIBUTOR>  (485) 
University of Tokyo Team, {Faculty of Engineering, University of Tokyo

>  <COMMENT>  (485) 
SMILES=[O-1][N+1](=O)c(c1)ccc(COC(=O)c(c2)c(C)ccc2)c1
InChI=InChI=1S/C15H13NO4/c1-11-4-2-3-5-14(11)15(17)20-10-12-6-8-13(9-7-12)16(18)19/h2-9H,10H2,1H3
computed SMILES=O=C(OCC1=CC=C(C=C1)N(=O)=O)C=2C=CC=CC2C
accession=JP011460
date=2016.01.19 (Created 2008.10.21, modified 2011.05.06)
author=FUJISE Y, HAMAMATSU UNIV. SCHOOL OF MEDICINE
license=CC BY-NC-SA
exact mass=271.08446
ionization energy=70 eV
ion type=[M]+*
computed spectral entropy=3.030806464068801
computed normalized entropy=0.8058083512820275
SPLASH=splash10-00ku-8910000000-2e35fd7e3114dca563a1
submitter=submitter = University of Tokyo Team (Faculty of Engineering, University of Tokyo)
MoNA Rating=3.75

>  <NUM PEAKS>  (485) 
43

>  <MASS SPECTRAL PEAKS>  (485) 
39 8.32
40 1.18
41 2.36
45 1.12
50 2.77
51 7.17
52 3.19
53 1.01
62 1.5
63 9.71
64 5.27
65 23.08
66 1.61
75 1.37
76 2.58
77 11.97
78 21.22
79 11.71
89 28.88
90 28.65
91 53.6
92 5.12
105 2.92
106 6.05
107 5.74
118 5.11
119 53.83
120 7.29
121 1.02
133 15.09
134 1.36
135 99.99
136 21.25
137 13.67
165 1.13
180 0.99
210 1.14
226 1.33
253 11.49
254 10.05
255 1.67
271 22.38
272 3.3

$$$$

     RDKit          2D

 20 21  0  0  0  0  0  0  0  0999 V2000
   -0.3325    2.4400    0.0000 C   0  0  0  0  0  0  0  0  0  0  0  0
   -1.6200   -1.3100    0.0000 C   0  0  0  0  0  0  0  0  0  0  0  0
   -0.3300   -2.0600    0.0000 C   0  0  0  0  0  0  0  0  0  0  0  0
    7.4663   -2.0533    0.0000 C   0  0  0  0  0  0  0  0  0  0  0  0
   -1.6200    0.1900    0.0000 C   0  0  0  0  0  0  0  0  0  0  0  0
    6.1684   -1.3013    0.0000 C   0  0  0  0  0  0  0  0  0  0  0  0
    8.7620   -1.3131    0.0000 C   0  0  0  0  0  0  0  0  0  0  0  0
    0.9700   -1.3100    0.0000 C   0  0  0  0  0  0  0  0  0  0  0  0
    7.4668    0.9397    0.0000 C   0  0  0  0  0  0  0  0  0  0  0  0
    4.8670    0.9406    0.0000 C   0  0  0  0  0  0  0  0  0  0  0  0
   -0.3300    0.9400    0.0000 C   0  0  0  0  0  0  0  0  0  0  0  0
    6.1662    0.1908    0.0000 C   0  0  0  0  0  0  0  0  0  0  0  0
    8.7647    0.1877    0.0000 C   0  0  0  0  0  0  0  0  0  0  0  0
    0.9700    0.1900    0.0000 C   0  0  0  0  0  0  0  0  0  0  0  0
    2.2689    0.9402    0.0000 C   0  0  0  0  0  0  0  0  0  0  0  0
   10.0650    0.9356    0.0000 N   0  0  0  0  0  0  0  0  0  0  0  0
    2.2687    2.4402    0.0000 O   0  0  0  0  0  0  0  0  0  0  0  0
   11.3628    0.1834    0.0000 O   0  0  0  0  0  0  0  0  0  0  0  0
   10.0675    2.4356    0.0000 O   0  0  0  0  0  0  0  0  0  0  0  0
    3.5681    0.1904    0.0000 O   0  0  0  0  0  0  0  0  0  0  0  0
  3  2  2  0
  5  2  1  0
  6  4  2  0
  7  4  1  0
  8  3  1  0
 11  1  1  0
 11  5  2  0
 12  6  1  0
 12  9  2  0
 12 10  1  0
 13  7  2  0
 13  9  1  0
 14  8  2  0
 14 11  1  0
 15 14  1  0
 16 13  1  0
 17 15  2  0
 18 16  1  0
 19 16  2  0
 20 10  1  0
 20 15  1  0
M  CHG  2  16   1  18  -1
M  END
>  <NAME>  (486) 
3-NITROBENZYL 2-METHYLBENZOATE

>  <SYNONYMS>  (486) 


>  <SPECTRUM TYPE>  (486) 
MS1

>  <INSTRUMENT TYPE>  (486) 
EI-B

>  <INSTRUMENT>  (486) 
JEOL JMS-DX-300

>  <ION MODE>  (486) 
P

>  <INCHIKEY>  (486) 
TUTITNMJRNVZEO-UHFFFAOYSA-N

>  <FORMULA>  (486) 
C15H13NO4

>  <EXACT MASS>  (486) 
271.084457896

>  <MW>  (486) 
271

>  <ID>  (486) 
JP011459

>  <CONTRIBUTOR>  (486) 
University of Tokyo Team, {Faculty of Engineering, University of Tokyo

>  <COMMENT>  (486) 
SMILES=[O-1][N+1](=O)c(c2)cc(cc2)COC(=O)c(c1)c(C)ccc1
InChI=InChI=1S/C15H13NO4/c1-11-5-2-3-8-14(11)15(17)20-10-12-6-4-7-13(9-12)16(18)19/h2-9H,10H2,1H3
computed SMILES=O=C(OCC=1C=CC=C(C1)N(=O)=O)C=2C=CC=CC2C
accession=JP011459
date=2016.01.19 (Created 2008.10.21, modified 2011.05.06)
author=FUJISE Y, HAMAMATSU UNIV. SCHOOL OF MEDICINE
license=CC BY-NC-SA
exact mass=271.08446
ionization energy=70 eV
ion type=[M]+*
computed spectral entropy=3.056660292328499
computed normalized entropy=0.7774150173110722
SPLASH=splash10-000l-9820000000-946ee7c95b36776d6f9c
submitter=submitter = University of Tokyo Team (Faculty of Engineering, University of Tokyo)
MoNA Rating=3.75

>  <NUM PEAKS>  (486) 
51

>  <MASS SPECTRAL PEAKS>  (486) 
39 9.52
40 1.2
41 1.92
44 1.26
50 2.78
51 7.04
52 2.6
53 1.2
62 1.67
63 10.72
64 5.74
65 23.52
66 1.7
75 1.69
76 3.32
77 13.14
78 7.19
79 12.71
89 33.03
90 45.49
91 62.53
92 5.78
105 3.77
106 1.19
107 2.29
118 7.36
119 57.94
120 7.07
133 15.6
134 1.56
135 99.99
136 37.73
137 3.89
152 0.99
165 1.83
178 1.35
179 1.62
192 1.73
206 1.47
208 1.26
209 1.03
223 2.56
224 2.26
225 1.35
226 1.17
236 3.99
253 17.57
254 6.58
255 1.01
271 21.9
272 3.63

$$$$

     RDKit          2D

 18 19  0  0  0  0  0  0  0  0999 V2000
   -0.3325    2.4400    0.0000 C   0  0  0  0  0  0  0  0  0  0  0  0
   -1.6200   -1.3100    0.0000 C   0  0  0  0  0  0  0  0  0  0  0  0
   -0.3300   -2.0600    0.0000 C   0  0  0  0  0  0  0  0  0  0  0  0
    8.7734    0.1875    0.0000 C   0  0  0  0  0  0  0  0  0  0  0  0
   -1.6200    0.1900    0.0000 C   0  0  0  0  0  0  0  0  0  0  0  0
    7.4674    0.9371    0.0000 C   0  0  0  0  0  0  0  0  0  0  0  0
    8.7608   -1.3184    0.0000 C   0  0  0  0  0  0  0  0  0  0  0  0
    0.9700   -1.3100    0.0000 C   0  0  0  0  0  0  0  0  0  0  0  0
    6.1710   -1.3050    0.0000 C   0  0  0  0  0  0  0  0  0  0  0  0
    4.8670    0.9406    0.0000 C   0  0  0  0  0  0  0  0  0  0  0  0
   -0.3300    0.9400    0.0000 C   0  0  0  0  0  0  0  0  0  0  0  0
    6.1662    0.1908    0.0000 C   0  0  0  0  0  0  0  0  0  0  0  0
    7.4596   -2.0646    0.0000 C   0  0  0  0  0  0  0  0  0  0  0  0
    0.9700    0.1900    0.0000 C   0  0  0  0  0  0  0  0  0  0  0  0
    2.2689    0.9402    0.0000 C   0  0  0  0  0  0  0  0  0  0  0  0
    7.4507   -3.5646    0.0000 Cl  0  0  0  0  0  0  0  0  0  0  0  0
    2.2687    2.4402    0.0000 O   0  0  0  0  0  0  0  0  0  0  0  0
    3.5681    0.1904    0.0000 O   0  0  0  0  0  0  0  0  0  0  0  0
  3  2  2  0
  5  2  1  0
  6  4  2  0
  7  4  1  0
  8  3  1  0
 11  1  1  0
 11  5  2  0
 12  6  1  0
 12  9  2  0
 12 10  1  0
 13  7  2  0
 13  9  1  0
 14  8  2  0
 14 11  1  0
 15 14  1  0
 16 13  1  0
 17 15  2  0
 18 10  1  0
 18 15  1  0
M  END
>  <NAME>  (487) 
3-CHLOROBENZYL 2-METHYLBENZOATE

>  <SYNONYMS>  (487) 


>  <SPECTRUM TYPE>  (487) 
MS1

>  <INSTRUMENT TYPE>  (487) 
EI-B

>  <INSTRUMENT>  (487) 
JEOL JMS-DX-300

>  <ION MODE>  (487) 
P

>  <INCHIKEY>  (487) 
JDSAPFZIJUADTD-UHFFFAOYSA-N

>  <FORMULA>  (487) 
C15H13ClO2

>  <EXACT MASS>  (487) 
260.06040733599997

>  <MW>  (487) 
260

>  <ID>  (487) 
JP011458

>  <CONTRIBUTOR>  (487) 
University of Tokyo Team, {Faculty of Engineering, University of Tokyo

>  <COMMENT>  (487) 
SMILES=Clc(c2)cc(cc2)COC(=O)c(c1)c(C)ccc1
InChI=InChI=1S/C15H13ClO2/c1-11-5-2-3-8-14(11)15(17)18-10-12-6-4-7-13(16)9-12/h2-9H,10H2,1H3
computed SMILES=O=C(OCC=1C=CC=C(Cl)C1)C=2C=CC=CC2C
accession=JP011458
date=2016.01.19 (Created 2008.10.21, modified 2011.05.06)
author=FUJISE Y, HAMAMATSU UNIV. SCHOOL OF MEDICINE
license=CC BY-NC-SA
exact mass=260.06041
ionization energy=70 eV
ion type=[M]+*
computed spectral entropy=3.6511893851702473
computed normalized entropy=0.8240443130312696
SPLASH=splash10-014u-7920000000-dabd8f440ab924ec0f34
submitter=submitter = University of Tokyo Team (Faculty of Engineering, University of Tokyo)
MoNA Rating=3.75

>  <NUM PEAKS>  (487) 
84

>  <MASS SPECTRAL PEAKS>  (487) 
38 3.29
39 17.77
40 1.72
41 5.66
43 2.37
44 1.77
45 4.59
50 11.53
51 15.63
52 3.12
53 2.12
55 1.69
57 2.38
59 1.31
60 1.36
61 1.43
62 4.83
63 19.17
64 5.93
65 36.93
66 2.3
69 1.04
73 3.24
74 5.34
75 2.32
76 4.8
77 29.03
78 3.88
79 15.09
80 1.04
85 1.77
86 1
87 1.08
89 39.43
90 36.19
91 74.75
92 7.99
99 7.79
101 2.3
105 4.58
107 8.9
111 13.28
112 2.29
113 5.76
114 1.17
115 1.11
118 34.47
119 99.99
120 9.24
125 84.02
126 7.03
127 27.18
128 2.6
133 1.93
134 1.39
135 73.33
136 34.02
137 2.92
139 17.05
140 8.92
141 8.34
142 8.24
143 1.09
144 1.95
149 2.2
156 8.3
158 2.68
166 1.65
167 1.42
179 1.29
181 1.16
207 15.31
208 4.12
215 2.28
225 23.63
226 4.12
242 22.46
243 3.69
244 8.05
245 2.35
260 36.09
261 5.43
262 12.01
263 1.61

$$$$

     RDKit          2D

 18 19  0  0  0  0  0  0  0  0999 V2000
   -0.3325    2.4400    0.0000 C   0  0  0  0  0  0  0  0  0  0  0  0
   -1.6200   -1.3100    0.0000 C   0  0  0  0  0  0  0  0  0  0  0  0
   -0.3300   -2.0600    0.0000 C   0  0  0  0  0  0  0  0  0  0  0  0
   -1.6200    0.1900    0.0000 C   0  0  0  0  0  0  0  0  0  0  0  0
    0.9700   -1.3100    0.0000 C   0  0  0  0  0  0  0  0  0  0  0  0
    6.1685   -1.2927    0.0000 C   0  0  0  0  0  0  0  0  0  0  0  0
    7.4743    0.9440    0.0000 C   0  0  0  0  0  0  0  0  0  0  0  0
    7.4638   -2.0490    0.0000 C   0  0  0  0  0  0  0  0  0  0  0  0
    8.7697    0.1877    0.0000 C   0  0  0  0  0  0  0  0  0  0  0  0
    4.8670    0.9406    0.0000 C   0  0  0  0  0  0  0  0  0  0  0  0
   -0.3300    0.9400    0.0000 C   0  0  0  0  0  0  0  0  0  0  0  0
    6.1662    0.1908    0.0000 C   0  0  0  0  0  0  0  0  0  0  0  0
    8.7655   -1.3268    0.0000 C   0  0  0  0  0  0  0  0  0  0  0  0
    0.9700    0.1900    0.0000 C   0  0  0  0  0  0  0  0  0  0  0  0
    2.2689    0.9402    0.0000 C   0  0  0  0  0  0  0  0  0  0  0  0
   10.0571   -2.0897    0.0000 Cl  0  0  0  0  0  0  0  0  0  0  0  0
    2.2687    2.4402    0.0000 O   0  0  0  0  0  0  0  0  0  0  0  0
    3.5681    0.1904    0.0000 O   0  0  0  0  0  0  0  0  0  0  0  0
  3  2  2  0
  4  2  1  0
  5  3  1  0
  8  6  2  0
  9  7  1  0
 11  1  1  0
 11  4  2  0
 12  6  1  0
 12  7  2  0
 12 10  1  0
 13  8  1  0
 13  9  2  0
 14  5  2  0
 14 11  1  0
 15 14  1  0
 16 13  1  0
 17 15  2  0
 18 10  1  0
 18 15  1  0
M  END
>  <NAME>  (488) 
4-CHLOROBENZYL 2-METHYLBENZOATE

>  <SYNONYMS>  (488) 


>  <SPECTRUM TYPE>  (488) 
MS1

>  <INSTRUMENT TYPE>  (488) 
EI-B

>  <INSTRUMENT>  (488) 
JEOL JMS-DX-300

>  <ION MODE>  (488) 
P

>  <INCHIKEY>  (488) 
DACJFLLVIFTDCX-UHFFFAOYSA-N

>  <FORMULA>  (488) 
C15H13ClO2

>  <EXACT MASS>  (488) 
260.060407336

>  <MW>  (488) 
260

>  <ID>  (488) 
JP011457

>  <CONTRIBUTOR>  (488) 
University of Tokyo Team, {Faculty of Engineering, University of Tokyo

>  <COMMENT>  (488) 
SMILES=Clc(c2)ccc(c2)COC(=O)c(c1)c(C)ccc1
InChI=InChI=1S/C15H13ClO2/c1-11-4-2-3-5-14(11)15(17)18-10-12-6-8-13(16)9-7-12/h2-9H,10H2,1H3
computed SMILES=O=C(OCC1=CC=C(Cl)C=C1)C=2C=CC=CC2C
accession=JP011457
date=2016.01.19 (Created 2008.10.21, modified 2011.05.06)
author=FUJISE Y, HAMAMATSU UNIV. SCHOOL OF MEDICINE
license=CC BY-NC-SA
exact mass=260.06041
ionization energy=70 eV
ion type=[M]+*
computed spectral entropy=3.122273220151075
computed normalized entropy=0.7941026667522081
SPLASH=splash10-00or-7920000000-62b7fd15a74ee3cc9e55
submitter=submitter = University of Tokyo Team (Faculty of Engineering, University of Tokyo)
MoNA Rating=3.75

>  <NUM PEAKS>  (488) 
51

>  <MASS SPECTRAL PEAKS>  (488) 
38 1.04
39 11.9
41 2.42
50 2.76
51 6.93
52 1.77
62 2.08
63 13.53
64 3.65
65 28.75
66 1.4
73 1.49
75 4.54
76 1.77
77 12.71
78 1.79
79 4.98
89 32.36
90 16.34
91 41.36
92 3.78
99 5.68
101 1.79
105 1.6
111 3.58
113 1.77
118 3.55
119 51.9
120 4.74
124 1.51
125 99.99
126 10.75
127 44.03
128 3.47
135 15.76
136 1.68
139 2.33
141 2.61
148 1.16
165 1.02
207 8.91
208 1.41
215 1.9
242 11.82
243 1.88
244 3.62
245 1.61
260 29.43
261 4.28
262 9.82
263 1.81

$$$$

     RDKit          2D

 11 11  0  0  0  0  0  0  0  0999 V2000
   -8.1696    4.1302    0.0000 C   0  0  0  0  0  0  0  0  0  0  0  0
   -6.8706    4.8802    0.0000 C   0  0  0  0  0  0  0  0  0  0  0  0
   -5.5716    4.1302    0.0000 C   0  0  0  0  0  0  0  0  0  0  0  0
   -4.2725    4.8802    0.0000 C   0  0  0  0  0  0  0  0  0  0  0  0
   -2.9735    4.1302    0.0000 C   0  0  0  0  0  0  0  0  0  0  0  0
   -1.6745    4.8802    0.0000 C   0  0  0  0  0  0  0  0  0  0  0  0
   -0.3754    4.1302    0.0000 C   0  0  0  0  0  0  0  0  0  0  0  0
    0.9236    4.8802    0.0000 C   0  0  0  0  0  0  0  0  0  0  0  0
    3.7235    4.1298    0.0000 C   0  0  0  0  0  0  0  0  0  0  0  0
    2.2227    4.1302    0.0000 C   0  0  0  0  0  0  0  0  0  0  0  0
    2.9735    2.8307    0.0000 O   0  0  0  0  0  0  0  0  0  0  0  0
  2  1  1  0
  3  2  1  0
  4  3  1  0
  5  4  1  0
  6  5  1  0
  7  6  1  0
  8  7  1  0
 10  8  1  0
 10  9  1  0
 11  9  1  0
 11 10  1  0
M  END
>  <NAME>  (489) 
1,2-EPOXY-DECANE

>  <SYNONYMS>  (489) 


>  <SPECTRUM TYPE>  (489) 
MS1

>  <INSTRUMENT TYPE>  (489) 
EI-B

>  <INSTRUMENT>  (489) 
JEOL JMS-DX-300

>  <ION MODE>  (489) 
P

>  <INCHIKEY>  (489) 
AAMHBRRZYSORSH-UHFFFAOYSA-N

>  <FORMULA>  (489) 
C10H20O

>  <EXACT MASS>  (489) 
156.15141526

>  <MW>  (489) 
156

>  <ID>  (489) 
JP011456

>  <CONTRIBUTOR>  (489) 
University of Tokyo Team, {Faculty of Engineering, University of Tokyo

>  <COMMENT>  (489) 
SMILES=CCCCCCCCC(C1)O1
InChI=InChI=1S/C10H20O/c1-2-3-4-5-6-7-8-10-9-11-10/h10H,2-9H2,1H3
computed SMILES=O1CC1CCCCCCCC
accession=JP011456
date=2016.01.19 (Created 2008.10.21, modified 2011.05.06)
author=FUJISE Y, HAMAMATSU UNIV. SCHOOL OF MEDICINE
license=CC BY-NC-SA
exact mass=156.15142
ionization energy=70 eV
ion type=[M]+*
computed spectral entropy=3.3967580045705543
computed normalized entropy=0.84763553404744
SPLASH=splash10-05mo-9000000000-5e1c4c3a53a6576e983b
submitter=submitter = University of Tokyo Team (Faculty of Engineering, University of Tokyo)
MoNA Rating=3.75

>  <NUM PEAKS>  (489) 
55

>  <MASS SPECTRAL PEAKS>  (489) 
38 1.88
39 60.31
40 12.97
41 93.64
42 68.61
43 92.97
44 10.61
45 18.39
51 2.59
52 1.62
53 18.6
54 44.99
55 91.9
56 80.05
57 67.68
58 80.46
59 18.35
65 2.68
66 8.5
67 60.91
68 78.04
69 75.67
70 46.17
71 99.99
72 14.83
73 1.76
77 1.86
79 4.73
80 2.98
81 56.13
82 76.52
83 38.95
84 13.11
85 29.94
86 2.7
94 2.02
95 48.95
96 41.12
97 17.31
98 13.74
99 7.26
100 1.37
109 11.04
110 7.85
111 1.5
113 12.95
114 1.14
124 6.45
125 1.33
126 1.82
127 5.19
128 1.02
155 0.41
156 0.4
157 0.65

$$$$

     RDKit          2D

 29 29  0  0  1  0  0  0  0  0999 V2000
   -3.9076    4.0204    0.0000 C   0  0  0  0  0  0  0  0  0  0  0  0
   -3.1574    5.3193    0.0000 H   0  0  0  0  0  0  0  0  0  0  0  0
   -5.2065    4.7706    0.0000 H   0  0  0  0  0  0  0  0  0  0  0  0
   -4.6578    2.7215    0.0000 H   0  0  0  0  0  0  0  0  0  0  0  0
   -2.6151   -2.7165    0.0000 C   0  0  0  0  0  0  0  0  0  0  0  0
   -4.1151   -2.7124    0.0000 H   0  0  0  0  0  0  0  0  0  0  0  0
   -2.6192   -4.2165    0.0000 H   0  0  0  0  0  0  0  0  0  0  0  0
   -1.1151   -2.7205    0.0000 H   0  0  0  0  0  0  0  0  0  0  0  0
    1.2816   -3.4843    0.0000 C   0  0  0  0  0  0  0  0  0  0  0  0
    0.5273   -4.7808    0.0000 H   0  0  0  0  0  0  0  0  0  0  0  0
    2.5781   -4.2386    0.0000 H   0  0  0  0  0  0  0  0  0  0  0  0
    2.0359   -2.1877    0.0000 H   0  0  0  0  0  0  0  0  0  0  0  0
    3.9081   -0.4716    0.0000 C   0  0  0  0  0  0  0  0  0  0  0  0
    4.6573   -1.7710    0.0000 H   0  0  0  0  0  0  0  0  0  0  0  0
    5.2076    0.2777    0.0000 H   0  0  0  0  0  0  0  0  0  0  0  0
    3.1589    0.8279    0.0000 H   0  0  0  0  0  0  0  0  0  0  0  0
    2.6013    3.2745    0.0000 C   0  0  0  0  0  0  0  0  0  0  0  0
   -2.6089    1.7702    0.0000 C   0  0  0  0  0  0  0  0  0  0  0  0
   -1.3100    1.0200    0.0000 C   0  0  0  0  0  0  0  0  0  0  0  0
   -1.3100   -0.4700    0.0000 C   0  0  0  0  0  0  0  0  0  0  0  0
   -0.0100   -1.2300    0.0000 C   0  0  0  0  0  0  0  0  0  0  0  0
    1.3100   -0.4700    0.0000 C   0  0  0  0  0  0  0  0  0  0  0  0
    1.3100    1.0200    0.0000 C   0  0  0  0  0  0  0  0  0  0  0  0
   -2.6087    3.2702    0.0000 O   0  0  0  0  0  0  0  0  0  0  0  0
   -2.6111   -1.2165    0.0000 O   0  0  0  0  0  0  0  0  0  0  0  0
   -0.0150   -2.7300    0.0000 O   0  0  0  0  0  0  0  0  0  0  0  0
    2.6086   -1.2208    0.0000 O   0  0  0  0  0  0  0  0  0  0  0  0
    2.6064    1.7745    0.0000 O   0  0  0  0  0  0  0  0  0  0  0  0
   -0.0100    1.7700    0.0000 O   0  0  0  0  0  0  0  0  0  0  0  0
  1  2  1  0
  1  3  1  0
  1  4  1  0
  5  6  1  0
  5  7  1  0
  5  8  1  0
  9 10  1  0
  9 11  1  0
  9 12  1  0
 13 14  1  0
 13 15  1  0
 13 16  1  0
 19 18  1  0
 20 19  1  0
 21 20  1  0
 22 21  1  0
 23 22  1  0
 24  1  1  0
 24 18  1  0
 25  5  1  0
 20 25  1  6
 26  9  1  0
 21 26  1  6
 27 13  1  0
 27 22  1  0
 28 17  1  0
 23 28  1  6
 29 19  1  0
 29 23  1  0
M  ISO  8   2   2   3   2   4   2   6   2   7   2   8   2  10   2  11   2
M  ISO  4  12   2  14   2  15   2  16   2
M  END
>  <NAME>  (490) 
METHYL 2,3,4,6,-TETRA-ORTHO-[D3]METHYL-A-D-MANNOSIDE-D12

>  <SYNONYMS>  (490) 


>  <SPECTRUM TYPE>  (490) 
MS1

>  <INSTRUMENT TYPE>  (490) 
EI-B

>  <INSTRUMENT>  (490) 
JEOL JMS-DX-300

>  <ION MODE>  (490) 
P

>  <INCHIKEY>  (490) 
ZYGZAHUNAGVTEC-GMXVFYJPSA-N

>  <FORMULA>  (490) 
C11H22O6

>  <EXACT MASS>  (490) 
262.216959376

>  <MW>  (490) 
262

>  <ID>  (490) 
JP011455

>  <CONTRIBUTOR>  (490) 
University of Tokyo Team, {Faculty of Engineering, University of Tokyo

>  <COMMENT>  (490) 
SMILES=[2H]C([2H])([2H])OCC([H])(O1)C([H])(OC([2H])([2H])[2H])C([H])(OC([2H])([2H])[2H])C([H])(OC([2H])([2H])[2H])C([H])(OC)1
InChI=InChI=1S/C11H22O6/c1-12-6-7-8(13-2)9(14-3)10(15-4)11(16-5)17-7/h7-11H,6H2,1-5H3/t7?,8-,9-,10?,11+/m1/s1/i1D3,2D3,3D3,4D3
computed SMILES=[H]C([H])([H])OCC1OC(OC)C(OC([H])([H])[H])C(OC([H])([H])[H])C1OC([H])([H])[H]
accession=JP011455
date=2016.01.19 (Created 2008.10.21, modified 2011.05.06)
author=FUJISE Y, HAMAMATSU UNIV. SCHOOL OF MEDICINE
license=CC BY-NC-SA
exact mass=250.14164
ionization energy=70 eV
ion type=[M]+*
computed spectral entropy=4.2028786371106746
computed normalized entropy=0.8555208405365048
SPLASH=splash10-0a6v-9500000000-13da2667d240d2313257
submitter=submitter = University of Tokyo Team (Faculty of Engineering, University of Tokyo)
MoNA Rating=3.75

>  <NUM PEAKS>  (490) 
136

>  <MASS SPECTRAL PEAKS>  (490) 
33 11.99
34 2.94
35 1.09
36 8.13
37 1.53
39 5.48
40 10.76
41 11.49
42 29.63
43 26.49
44 32.05
45 25.14
46 5.85
47 9.87
48 63.7
49 9.37
50 27.27
51 1.45
53 11.19
54 5.69
55 12.55
56 8.55
57 12.74
58 7.25
59 8.55
60 12.2
61 8.39
62 17.49
63 12.1
64 1.74
65 2.34
67 1.55
68 4.87
69 6.76
70 3.09
71 8.94
72 5.73
73 17.84
74 66.7
75 14.27
76 65.11
77 40.05
78 85.74
79 18.17
80 5.92
81 68.77
82 5.53
83 5.56
84 2.33
85 4.65
86 6.06
87 5.84
88 19.41
89 4.26
90 11.11
91 75.49
92 23.48
93 25.99
94 97.69
95 73.06
96 8.66
97 2.67
98 7.62
99 3.64
100 2.5
101 12.3
102 10.72
103 2.66
104 57.81
105 5.11
106 14.6
107 95.44
108 49.19
109 6.35
110 3.66
111 2.36
112 1.11
113 1.57
114 20.67
115 3.07
116 3.9
117 2.84
118 1.41
119 4.88
120 13.36
121 8.27
122 3.07
123 14.13
124 1.59
125 2.78
126 1.11
127 1.11
128 2.34
131 1.4
132 2.63
133 23.96
134 3.56
135 5.77
136 1.33
137 11.74
138 1.92
139 1.44
140 9.76
141 1.98
142 1.83
144 1.34
147 1.61
149 14.34
150 3.74
151 18.31
152 2.3
153 2.46
154 23.71
155 99.99
156 20.48
157 3.18
161 7.27
165 1.01
166 2.36
167 4.41
168 4.85
169 1.16
179 9.44
180 1.48
182 1.4
184 3.07
185 54.39
186 6.52
195 1.36
196 31.13
197 4.24
214 3.86
230 1.83
231 27.66
232 4.01
262 0.73

$$$$

     RDKit          2D

 16 16  0  0  0  0  0  0  0  0999 V2000
    3.9081    1.0290    0.0000 C   0  0  0  0  0  0  0  0  0  0  0  0
    3.1625   -0.2727    0.0000 H   0  0  0  0  0  0  0  0  0  0  0  0
    5.2097    0.2835    0.0000 H   0  0  0  0  0  0  0  0  0  0  0  0
    4.6536    2.3306    0.0000 H   0  0  0  0  0  0  0  0  0  0  0  0
   -2.6089    1.7702    0.0000 C   0  0  0  0  0  0  0  0  0  0  0  0
   -1.3100    1.0200    0.0000 C   0  0  0  0  0  0  0  0  0  0  0  0
   -1.3100   -0.4700    0.0000 C   0  0  0  0  0  0  0  0  0  0  0  0
   -0.0100   -1.2300    0.0000 C   0  0  0  0  0  0  0  0  0  0  0  0
    1.3100   -0.4700    0.0000 C   0  0  0  0  0  0  0  0  0  0  0  0
    1.3100    1.0200    0.0000 C   0  0  0  0  0  0  0  0  0  0  0  0
   -2.6087    3.2702    0.0000 O   0  0  0  0  0  0  0  0  0  0  0  0
   -2.6111   -1.2165    0.0000 O   0  0  0  0  0  0  0  0  0  0  0  0
   -0.0150   -2.7300    0.0000 O   0  0  0  0  0  0  0  0  0  0  0  0
    2.6086   -1.2208    0.0000 O   0  0  0  0  0  0  0  0  0  0  0  0
    2.6064    1.7745    0.0000 O   0  0  0  0  0  0  0  0  0  0  0  0
   -0.0100    1.7700    0.0000 O   0  0  0  0  0  0  0  0  0  0  0  0
  1  2  1  0
  1  3  1  0
  1  4  1  0
  6  5  1  0
  7  6  1  0
  8  7  1  0
  9  8  1  0
 10  9  1  0
 11  5  1  0
 12  7  1  0
 13  8  1  0
 14  9  1  0
 15  1  1  0
 15 10  1  0
 16  6  1  0
 16 10  1  0
M  ISO  3   2   3   3   3   4   3
M  END
>  <NAME>  (491) 
(D3)METHYL A-D-GLUCOSIDE

>  <SYNONYMS>  (491) 


>  <SPECTRUM TYPE>  (491) 
MS1

>  <INSTRUMENT TYPE>  (491) 
EI-B

>  <INSTRUMENT>  (491) 
JEOL JMS-DX-300

>  <ION MODE>  (491) 
P

>  <INCHIKEY>  (491) 
HOVAGTYPODGVJG-RLXJOQACSA-N

>  <FORMULA>  (491) 
C7H14O6

>  <EXACT MASS>  (491) 
200.103710906

>  <MW>  (491) 
200

>  <ID>  (491) 
JP011454

>  <CONTRIBUTOR>  (491) 
University of Tokyo Team, {Faculty of Engineering, University of Tokyo

>  <COMMENT>  (491) 
SMILES=[3H]C([3H])([3H])OC([H])(O1)C([H])(O)C([H])(O)C([H])(O)C([H])(CO)1
InChI=InChI=1S/C7H14O6/c1-12-7-6(11)5(10)4(9)3(2-8)13-7/h3-11H,2H2,1H3/i1T3
computed SMILES=[H]C([H])([H])OC1OC(CO)C(O)C(O)C1O
accession=JP011454
date=2016.01.19 (Created 2008.10.21, modified 2011.05.06)
author=FUJISE Y, HAMAMATSU UNIV. SCHOOL OF MEDICINE
license=CC BY-NC-SA
exact mass=194.07904
ionization energy=70 eV
ion type=[M]+*
computed spectral entropy=3.932385714054516
computed normalized entropy=0.8520656610601298
SPLASH=splash10-03kc-9100000000-5fc110e987f170384196
submitter=submitter = University of Tokyo Team (Faculty of Engineering, University of Tokyo)
MoNA Rating=3.75

>  <NUM PEAKS>  (491) 
101

>  <MASS SPECTRAL PEAKS>  (491) 
33 11.61
34 1.14
35 1.83
36 45.4
37 2.32
38 1.62
39 20.35
40 6.06
41 37.04
42 66.19
43 71.68
44 77.23
45 54.54
46 13.36
47 10.54
48 42.76
49 1.82
51 1.45
52 1.07
53 7.42
54 7.99
55 49.17
56 53.9
57 83.63
58 21.25
59 50.49
60 99.99
61 65.72
62 11.62
63 2.4
64 77.24
65 7.04
66 1.06
67 2.1
68 4.75
69 43.05
70 41.38
71 75.24
72 14.97
73 90.95
74 8.13
75 18.04
76 6.34
77 89
78 50.87
79 5.64
80 1.57
81 6.32
82 2.67
83 5.88
84 2.78
85 30.7
86 11.6
87 21.3
88 11.45
89 6.41
90 18.07
91 6.87
92 1.14
93 1.27
94 1.77
95 1.57
96 1.34
97 31.08
98 45.43
99 11.61
100 1.09
101 5.23
102 1.95
103 4.3
104 1.22
106 12.86
107 16.48
108 2.61
109 2.26
113 1.91
115 3.13
116 23.34
117 3.33
119 18.77
120 4.28
123 2.77
124 12.31
125 1.99
126 1.52
127 6.82
131 18.1
132 3.16
133 1.57
136 7.41
137 2.62
144 32.51
145 20.47
146 3
148 4.53
149 4.84
163 7.17
164 1.28
166 7.2
167 3.34
198 0.4

$$$$

     RDKit          2D

 55 56  0  0  0  0  0  0  0  0999 V2000
    2.6155   -2.7252    0.0000 C   0  0  0  0  0  0  0  0  0  0  0  0
    1.1155   -2.7249    0.0000 H   0  0  0  0  0  0  0  0  0  0  0  0
    2.6153   -4.2252    0.0000 H   0  0  0  0  0  0  0  0  0  0  0  0
    4.1155   -2.7254    0.0000 H   0  0  0  0  0  0  0  0  0  0  0  0
   -6.5099    4.0353    0.0000 C   0  0  0  0  0  0  0  0  0  0  0  0
   -5.7597    5.3342    0.0000 H   0  0  0  0  0  0  0  0  0  0  0  0
   -7.8088    4.7855    0.0000 H   0  0  0  0  0  0  0  0  0  0  0  0
   -7.2601    2.7364    0.0000 H   0  0  0  0  0  0  0  0  0  0  0  0
    7.8036    1.7626    0.0000 C   0  0  0  0  0  0  0  0  0  0  0  0
    8.5501    0.4615    0.0000 H   0  0  0  0  0  0  0  0  0  0  0  0
    9.1047    2.5090    0.0000 H   0  0  0  0  0  0  0  0  0  0  0  0
    7.0571    3.0636    0.0000 H   0  0  0  0  0  0  0  0  0  0  0  0
   -5.2110    1.8017    0.0000 C   0  0  0  0  0  0  0  0  0  0  0  0
   -4.4575    3.0987    0.0000 H   0  0  0  0  0  0  0  0  0  0  0  0
   -6.5080    2.5552    0.0000 H   0  0  0  0  0  0  0  0  0  0  0  0
   -5.9645    0.5047    0.0000 H   0  0  0  0  0  0  0  0  0  0  0  0
    6.5202    5.5211    0.0000 C   0  0  0  0  0  0  0  0  0  0  0  0
    8.0202    5.5162    0.0000 H   0  0  0  0  0  0  0  0  0  0  0  0
    6.5252    7.0211    0.0000 H   0  0  0  0  0  0  0  0  0  0  0  0
    5.0202    5.5261    0.0000 H   0  0  0  0  0  0  0  0  0  0  0  0
   -2.6194   -1.2110    0.0000 C   0  0  0  0  0  0  0  0  0  0  0  0
   -3.3651    0.0905    0.0000 H   0  0  0  0  0  0  0  0  0  0  0  0
   -3.9209   -1.9567    0.0000 H   0  0  0  0  0  0  0  0  0  0  0  0
   -1.8737   -2.5126    0.0000 H   0  0  0  0  0  0  0  0  0  0  0  0
    2.5978    6.2894    0.0000 C   0  0  0  0  0  0  0  0  0  0  0  0
    3.3486    7.5880    0.0000 H   0  0  0  0  0  0  0  0  0  0  0  0
    1.2992    7.0402    0.0000 H   0  0  0  0  0  0  0  0  0  0  0  0
    1.8470    4.9908    0.0000 H   0  0  0  0  0  0  0  0  0  0  0  0
    1.3048   -0.4561    0.0000 C   0  0  0  0  0  0  0  0  0  0  0  0
   -0.1952   -0.4552    0.0000 H   0  0  0  0  0  0  0  0  0  0  0  0
    1.3039   -1.9561    0.0000 H   0  0  0  0  0  0  0  0  0  0  0  0
    2.8048   -0.4570    0.0000 H   0  0  0  0  0  0  0  0  0  0  0  0
    3.9149   -0.4754    0.0000 C   0  0  0  0  0  0  0  0  0  0  0  0
   -3.9118    4.0349    0.0000 C   0  0  0  0  0  0  0  0  0  0  0  0
    3.9151    1.0246    0.0000 C   0  0  0  0  0  0  0  0  0  0  0  0
   -2.6129    3.2846    0.0000 C   0  0  0  0  0  0  0  0  0  0  0  0
    5.2055    1.7696    0.0000 C   0  0  0  0  0  0  0  0  0  0  0  0
   -2.6129    1.7946    0.0000 C   0  0  0  0  0  0  0  0  0  0  0  0
    5.2137    3.2755    0.0000 C   0  0  0  0  0  0  0  0  0  0  0  0
   -1.3129    1.0346    0.0000 C   0  0  0  0  0  0  0  0  0  0  0  0
    3.8955    4.0386    0.0000 C   0  0  0  0  0  0  0  0  0  0  0  0
    0.0071    1.7946    0.0000 C   0  0  0  0  0  0  0  0  0  0  0  0
    2.6051    3.2936    0.0000 C   0  0  0  0  0  0  0  0  0  0  0  0
    0.0071    3.2846    0.0000 C   0  0  0  0  0  0  0  0  0  0  0  0
    2.6157   -1.2252    0.0000 O   0  0  0  0  0  0  0  0  0  0  0  0
   -5.2110    3.2851    0.0000 O   0  0  0  0  0  0  0  0  0  0  0  0
    6.5025    1.0161    0.0000 O   0  0  0  0  0  0  0  0  0  0  0  0
   -3.9140    1.0482    0.0000 O   0  0  0  0  0  0  0  0  0  0  0  0
    6.5152    4.0212    0.0000 O   0  0  0  0  0  0  0  0  0  0  0  0
   -1.3179   -0.4653    0.0000 O   0  0  0  0  0  0  0  0  0  0  0  0
    3.8964    5.5386    0.0000 O   0  0  0  0  0  0  0  0  0  0  0  0
    1.3057    1.0439    0.0000 O   0  0  0  0  0  0  0  0  0  0  0  0
    2.6156    1.7755    0.0000 O   0  0  0  0  0  0  0  0  0  0  0  0
   -1.3129    4.0346    0.0000 O   0  0  0  0  0  0  0  0  0  0  0  0
    1.3035    4.0391    0.0000 O   0  0  0  0  0  0  0  0  0  0  0  0
  1  2  1  0
  1  3  1  0
  1  4  1  0
  5  6  1  0
  5  7  1  0
  5  8  1  0
  9 10  1  0
  9 11  1  0
  9 12  1  0
 13 14  1  0
 13 15  1  0
 13 16  1  0
 17 18  1  0
 17 19  1  0
 17 20  1  0
 21 22  1  0
 21 23  1  0
 21 24  1  0
 25 26  1  0
 25 27  1  0
 25 28  1  0
 29 30  1  0
 29 31  1  0
 29 32  1  0
 35 33  1  0
 36 34  1  0
 37 35  1  0
 38 36  1  0
 39 37  1  0
 40 38  1  0
 41 39  1  0
 42 40  1  0
 43 41  1  0
 44 42  1  0
 45  1  1  0
 45 33  1  0
 46  5  1  0
 46 34  1  0
 47  9  1  0
 47 37  1  0
 48 13  1  0
 48 38  1  0
 49 17  1  0
 49 39  1  0
 50 21  1  0
 50 40  1  0
 51 25  1  0
 51 41  1  0
 52 29  1  0
 52 42  1  0
 53 35  1  0
 53 43  1  0
 54 36  1  0
 54 44  1  0
 55 43  1  0
 55 44  1  0
M  ISO  8   2   2   3   2   4   2   6   2   7   2   8   2  10   2  11   2
M  ISO  8  12   2  14   2  15   2  16   2  18   2  19   2  20   2  22   2
M  ISO  8  23   2  24   2  26   2  27   2  28   2  30   2  31   2  32   2
M  END
>  <NAME>  (492) 
2,2',3,3',4,4',6,6'-OCTA-ORTHO-[D3]METHYL-TREHALOSE-D24

>  <SYNONYMS>  (492) 


>  <SPECTRUM TYPE>  (492) 
MS1

>  <INSTRUMENT TYPE>  (492) 
EI-B

>  <INSTRUMENT>  (492) 
JEOL JMS-DX-300

>  <ION MODE>  (492) 
P

>  <INCHIKEY>  (492) 
PREGLBRFCLDAND-JFUAVBILSA-N

>  <FORMULA>  (492) 
C20H38O11

>  <EXACT MASS>  (492) 
478.39205394

>  <MW>  (492) 
478

>  <ID>  (492) 
JP011453

>  <CONTRIBUTOR>  (492) 
University of Tokyo Team, {Faculty of Engineering, University of Tokyo

>  <COMMENT>  (492) 
SMILES=[2H]C([2H])([2H])OCC([H])(O1)C([H])(OC([2H])([2H])[2H])C([H])(OC([2H])([2H])[2H])C([H])(OC([2H])([2H])[2H])C([H])1OC([H])(O2)C([H])(OC([2H])([2H])[2H])C([H])(OC([2H])([2H])[2H])C([H])(OC([2H])([2H])[2H])C([H])(COC([2H])([2H])[2H])2
InChI=InChI=1S/C20H38O11/c1-21-9-11-13(23-3)15(25-5)17(27-7)19(29-11)31-20-18(28-8)16(26-6)14(24-4)12(30-20)10-22-2/h11-20H,9-10H2,1-8H3/i1D3,2D3,3D3,4D3,5D3,6D3,7D3,8D3
computed SMILES=[H]C([H])([H])OCC1OC(OC2OC(COC([H])([H])[H])C(OC([H])([H])[H])C(OC([H])([H])[H])C2OC([H])([H])[H])C(OC([H])([H])[H])C(OC([H])([H])[H])C1OC([H])([H])[H]
accession=JP011453
date=2016.01.19 (Created 2008.10.21, modified 2011.05.06)
author=FUJISE Y, HAMAMATSU UNIV. SCHOOL OF MEDICINE
license=CC BY-NC-SA
exact mass=454.24141
ionization energy=70 eV
ion type=[M]+*
computed spectral entropy=4.676651435624885
computed normalized entropy=0.8860458208209298
SPLASH=splash10-0002-9300000000-808f01f5a98b881568cb
submitter=submitter = University of Tokyo Team (Faculty of Engineering, University of Tokyo)
MoNA Rating=3.75

>  <NUM PEAKS>  (492) 
196

>  <MASS SPECTRAL PEAKS>  (492) 
33 16.66
34 17.3
35 49.15
36 20.15
37 35.51
38 9.95
39 29.6
40 15.35
41 46.26
42 49.25
43 40.54
44 35.94
45 71.53
46 92.73
47 80.29
48 99.99
49 97.75
50 85.53
51 38.05
52 12.8
53 28.46
54 46.69
55 54.95
56 15.95
57 24.43
58 12.1
59 10.69
60 24.49
61 25.39
62 73.67
63 47.32
64 36.86
65 29.29
66 58.17
67 57.33
68 38.07
69 32.12
70 15.51
71 13.69
72 9.56
73 7.2
74 49.7
75 22.01
76 32.15
77 29.22
78 25.79
79 13.61
80 26.92
81 71.07
82 77.8
83 92.24
84 30.44
85 82.79
86 12.7
87 60.26
88 14.23
89 11.54
90 11.06
91 8.84
92 5.51
93 8.15
94 61.3
95 77.04
96 54.14
97 67.12
98 91.69
99 65.25
100 43.24
101 14.78
102 19.56
103 3.68
104 3.31
105 4.44
106 6.73
107 83.24
108 27.53
109 8.88
110 8.12
111 9.25
112 9.52
113 7.64
114 64.78
115 22.22
116 4.4
117 9.09
118 34.13
119 12.44
120 20.35
121 13.72
122 10.35
123 7.56
124 4.69
125 4.73
126 7.1
127 4.82
128 17.8
129 19.41
130 6.56
131 5.98
132 2.34
133 27.95
134 4.33
135 8.88
136 3
137 7.6
138 2.89
139 2.44
140 6.36
141 3.55
142 4.82
143 14.58
144 3.3
145 5.58
146 21.71
147 9.55
148 35.1
149 23.9
150 3.98
151 2.24
152 2.02
153 31.99
154 20.66
155 7.15
156 1.64
157 3.4
158 10.84
159 2.47
160 4.23
161 31.68
162 5.73
163 3.64
164 1.65
165 2.28
166 15.65
167 28.7
168 5.91
169 2.38
170 1.73
172 1.64
173 1.08
174 1.01
175 5.9
176 1.74
177 1.55
178 1.04
179 1.72
180 1.38
181 1.25
182 2.1
183 2.05
184 16.67
185 2.91
187 1.73
188 2.15
191 1.31
192 1.19
193 1.22
195 2.68
196 78.41
197 12.92
198 1.8
199 1.24
200 8.03
201 1.58
208 3.92
209 3.82
210 1.47
211 1.32
212 3.01
213 16.74
214 2.66
219 1.28
230 6.66
231 8.61
232 1.38
243 8.22
244 1.61
246 1.43
247 3.2
255 1.62
256 1.66
264 7.07
265 1.48
277 1.96
278 3.94
279 1.78
290 17.61
291 3.65
325 13.59
326 3.21
336 1.89
338 3.59
360 1.15
371 3.65
372 9.59
443 3.96

$$$$

     RDKit          2D

 27 27  0  0  1  0  0  0  0  0999 V2000
   -6.5024   -0.4896    0.0000 C   0  0  0  0  0  0  0  0  0  0  0  0
    1.2730   -4.9889    0.0000 C   0  0  0  0  0  0  0  0  0  0  0  0
    5.1869   -1.2525    0.0000 C   0  0  0  0  0  0  0  0  0  0  0  0
    3.8940    4.0320    0.0000 C   0  0  0  0  0  0  0  0  0  0  0  0
   -1.3082    5.5241    0.0000 C   0  0  0  0  0  0  0  0  0  0  0  0
   -2.6054   -1.2402    0.0000 C   0  0  0  0  0  0  0  0  0  0  0  0
   -5.2035   -1.2398    0.0000 C   0  0  0  0  0  0  0  0  0  0  0  0
    1.2771   -3.4889    0.0000 C   0  0  0  0  0  0  0  0  0  0  0  0
    3.8904   -0.4982    0.0000 C   0  0  0  0  0  0  0  0  0  0  0  0
    2.5945    3.2828    0.0000 C   0  0  0  0  0  0  0  0  0  0  0  0
   -1.3030    4.0241    0.0000 C   0  0  0  0  0  0  0  0  0  0  0  0
   -1.3062   -0.4904    0.0000 C   0  0  0  0  0  0  0  0  0  0  0  0
   -0.0158   -1.2354    0.0000 C   0  0  0  0  0  0  0  0  0  0  0  0
    1.2923   -0.4896    0.0000 C   0  0  0  0  0  0  0  0  0  0  0  0
    1.2942    1.0336    0.0000 C   0  0  0  0  0  0  0  0  0  0  0  0
    0.0038    1.7786    0.0000 C   0  0  0  0  0  0  0  0  0  0  0  0
   -5.2037   -2.7398    0.0000 O   0  0  0  0  0  0  0  0  0  0  0  0
    2.5782   -2.7425    0.0000 O   0  0  0  0  0  0  0  0  0  0  0  0
    3.8954    1.0018    0.0000 O   0  0  0  0  0  0  0  0  0  0  0  0
    1.2960    4.0336    0.0000 O   0  0  0  0  0  0  0  0  0  0  0  0
   -2.5995    3.2696    0.0000 O   0  0  0  0  0  0  0  0  0  0  0  0
   -3.9043   -0.4900    0.0000 O   0  0  0  0  0  0  0  0  0  0  0  0
   -0.0199   -2.7354    0.0000 O   0  0  0  0  0  0  0  0  0  0  0  0
    2.5889   -1.2439    0.0000 O   0  0  0  0  0  0  0  0  0  0  0  0
    2.5936    1.7828    0.0000 O   0  0  0  0  0  0  0  0  0  0  0  0
   -0.0014    3.2786    0.0000 O   0  0  0  0  0  0  0  0  0  0  0  0
   -1.3057    1.0104    0.0000 O   0  0  0  0  0  0  0  0  0  0  0  0
  7  1  1  0
  8  2  1  0
  9  3  1  0
 10  4  1  0
 11  5  1  0
 12  6  1  1
 13 12  1  0
 14 13  1  0
 15 14  1  0
 16 15  1  0
 17  7  2  0
 18  8  2  0
 19  9  2  0
 20 10  2  0
 21 11  2  0
 22  6  1  0
 22  7  1  0
 23  8  1  0
 13 23  1  1
 24  9  1  0
 14 24  1  1
 25 10  1  0
 15 25  1  6
 26 11  1  0
 16 26  1  1
 27 12  1  0
 27 16  1  0
M  END
>  <NAME>  (493) 
B-D-GALACTOSE PENTAACETATE

>  <SYNONYMS>  (493) 


>  <SPECTRUM TYPE>  (493) 
MS1

>  <INSTRUMENT TYPE>  (493) 
EI-B

>  <INSTRUMENT>  (493) 
JEOL JMS-D-300

>  <ION MODE>  (493) 
P

>  <INCHIKEY>  (493) 
LPTITAGPBXDDGR-LYYZXLFJSA-N

>  <FORMULA>  (493) 
C16H22O11

>  <EXACT MASS>  (493) 
390.116211524

>  <MW>  (493) 
390

>  <ID>  (493) 
JP011452

>  <CONTRIBUTOR>  (493) 
University of Tokyo Team, {Faculty of Engineering, University of Tokyo

>  <COMMENT>  (493) 
SMILES=CC(=O)OCC(O1)C(OC(C)=O)C(OC(C)=O)C(OC(C)=O)C(OC(C)=O)1
InChI=InChI=1S/C16H22O11/c1-7(17)22-6-12-13(23-8(2)18)14(24-9(3)19)15(25-10(4)20)16(27-12)26-11(5)21/h12-16H,6H2,1-5H3/t12-,13+,14+,15-,16-/m1/s1
computed SMILES=O=C(OCC1OC(OC(=O)C)C(OC(=O)C)C(OC(=O)C)C1OC(=O)C)C
accession=JP011452
date=2016.01.19 (Created 2008.10.21, modified 2011.05.06)
author=FUJISE Y, HAMAMATSU UNIV. SCHOOL OF MEDICINE
license=CC BY-NC-SA
exact mass=390.11621
ionization energy=70 eV
ion type=[M]+*
computed spectral entropy=4.322994753160202
computed normalized entropy=0.8582559921426877
SPLASH=splash10-0006-6930000000-eaaf976fb6e9844998a4
submitter=submitter = University of Tokyo Team (Faculty of Engineering, University of Tokyo)
MoNA Rating=3.75

>  <NUM PEAKS>  (493) 
154

>  <MASS SPECTRAL PEAKS>  (493) 
39 3.24
40 7.38
41 19
42 1.09
43 73.81
44 60.16
45 9.33
48 1.48
53 2.78
54 2.48
55 17.96
56 7.42
57 28.58
58 1.69
59 1.21
60 9.43
61 8.17
67 5.02
68 7.11
69 40.09
70 16.21
71 18.7
72 1.4
73 30.37
74 3.48
76 1.59
77 1.18
78 4.82
79 1.66
80 7.38
81 36.38
82 8.46
83 10.43
84 7.98
85 20.51
86 12.51
87 2.46
88 1.41
89 1.7
91 2.29
93 3.56
94 10.07
95 7.85
96 5.25
97 29.95
98 71.92
99 19.59
100 2.29
101 8.95
102 10.29
103 57.2
104 5.46
105 1.86
107 7.76
108 1.84
109 20.31
110 4.59
111 6.21
112 12.03
113 11.58
114 14.86
115 79.99
116 16.26
117 2.33
119 1.09
121 3.53
122 2.3
123 4.54
124 1.57
125 5.57
126 22.18
127 22.62
128 5.12
129 4.4
131 7.25
132 1.23
133 1.57
135 2.44
136 5.15
137 5.8
138 2.41
139 13.93
140 53.16
141 10.39
142 1.57
143 26.94
144 6.49
145 57.53
146 4.76
147 1.92
149 30.73
150 4.28
151 1.57
152 1.01
153 1.87
154 1.01
155 8.33
156 3.26
157 84.86
158 44.98
159 4.98
161 1.81
163 1.17
167 16.57
168 25.49
169 34.3
170 4.08
171 2.27
173 1.78
175 1.62
182 10.1
183 1.93
185 3.94
186 5.72
187 4.7
191 1.41
192 1.41
196 1.7
197 5.57
199 20.08
200 57.86
201 8.48
202 1.27
203 11.73
204 1.46
210 10.6
211 8.5
212 1.19
213 1.19
215 5.16
217 3.27
224 1.42
228 12.51
229 5.69
242 99.99
243 25.1
244 3.8
245 30.73
246 5.31
247 1.1
256 4.23
257 1.18
259 0.99
270 2.92
279 13.15
280 3.33
287 1.68
288 4.96
289 1.4
327 1.39
331 22.09
341 1.19
368 1.34
386 1.44

$$$$

     RDKit          2D

 26 29  0  0  0  0  0  0  0  0999 V2000
    0.0000    3.0000    0.0000 C   0  0  0  0  0  0  0  0  0  0  0  0
    2.5989   -1.5002    0.0000 C   0  0  0  0  0  0  0  0  0  0  0  0
   -3.8989   -5.2502    0.0000 C   0  0  0  0  0  0  0  0  0  0  0  0
   -6.4978   -0.7500    0.0000 C   0  0  0  0  0  0  0  0  0  0  0  0
    5.9476    2.8003    0.0000 C   0  0  0  0  0  0  0  0  0  0  0  0
    6.6978    1.5013    0.0000 C   0  0  0  0  0  0  0  0  0  0  0  0
   -9.8465   -5.0505    0.0000 C   0  0  0  0  0  0  0  0  0  0  0  0
  -10.5967   -3.7516    0.0000 C   0  0  0  0  0  0  0  0  0  0  0  0
   -1.3000    0.7500    0.0000 C   0  0  0  0  0  0  0  0  0  0  0  0
    0.0000   -1.5000    0.0000 C   0  0  0  0  0  0  0  0  0  0  0  0
   -2.5989   -3.0002    0.0000 C   0  0  0  0  0  0  0  0  0  0  0  0
   -3.8989   -0.7502    0.0000 C   0  0  0  0  0  0  0  0  0  0  0  0
    3.8981    0.7504    0.0000 C   0  0  0  0  0  0  0  0  0  0  0  0
   -7.7970   -3.0006    0.0000 C   0  0  0  0  0  0  0  0  0  0  0  0
    0.0000    1.5000    0.0000 C   0  0  0  0  0  0  0  0  0  0  0  0
    1.3000   -0.7500    0.0000 C   0  0  0  0  0  0  0  0  0  0  0  0
   -3.8989   -3.7502    0.0000 C   0  0  0  0  0  0  0  0  0  0  0  0
   -5.1989   -1.5002    0.0000 C   0  0  0  0  0  0  0  0  0  0  0  0
    5.1970    1.5006    0.0000 C   0  0  0  0  0  0  0  0  0  0  0  0
   -9.0959   -3.7508    0.0000 C   0  0  0  0  0  0  0  0  0  0  0  0
   -1.3000   -0.7500    0.0000 C   0  0  0  0  0  0  0  0  0  0  0  0
   -2.5989   -1.5002    0.0000 C   0  0  0  0  0  0  0  0  0  0  0  0
    1.3000    0.7500    0.0000 C   0  0  0  0  0  0  0  0  0  0  0  0
   -5.1989   -3.0002    0.0000 C   0  0  0  0  0  0  0  0  0  0  0  0
    2.5989    1.5002    0.0000 O   0  0  0  0  0  0  0  0  0  0  0  0
   -6.4978   -3.7504    0.0000 O   0  0  0  0  0  0  0  0  0  0  0  0
  6  5  1  0
  8  7  1  0
 15  1  1  0
 15  9  2  0
 16  2  1  0
 16 10  1  0
 17  3  1  0
 17 11  2  0
 18  4  1  0
 18 12  1  0
 19  5  1  0
 19  6  1  0
 19 13  1  0
 20  7  1  0
 20  8  1  0
 20 14  1  0
 21  9  1  0
 21 10  2  0
 22 11  1  0
 22 12  2  0
 22 21  1  0
 23 15  1  0
 23 16  2  0
 24 17  1  0
 24 18  2  0
 25 13  1  0
 25 23  1  0
 26 14  1  0
 26 24  1  0
M  END
>  <NAME>  (494) 
3,3',5,5'-TETRA-METHYL-4,4'-DICYCLOPROPYL-METHYLOXY-BIPHENYL

>  <SYNONYMS>  (494) 


>  <SPECTRUM TYPE>  (494) 
MS1

>  <INSTRUMENT TYPE>  (494) 
EI-B

>  <INSTRUMENT>  (494) 
JEOL JMS-DX-300

>  <ION MODE>  (494) 
P

>  <INCHIKEY>  (494) 
ROUMLMHVPQDDRQ-UHFFFAOYSA-N

>  <FORMULA>  (494) 
C24H30O2

>  <EXACT MASS>  (494) 
350.2245802

>  <MW>  (494) 
350

>  <ID>  (494) 
JP011451

>  <CONTRIBUTOR>  (494) 
University of Tokyo Team, {Faculty of Engineering, University of Tokyo

>  <COMMENT>  (494) 
SMILES=Cc(c1)c(OCC(C4)C4)c(C)cc1c(c2)cc(C)c(OCC(C3)C3)c(C)2
InChI=InChI=1S/C24H30O2/c1-15-9-21(10-16(2)23(15)25-13-19-5-6-19)22-11-17(3)24(18(4)12-22)26-14-20-7-8-20/h9-12,19-20H,5-8,13-14H2,1-4H3
computed SMILES=O(C=1C(=CC(=CC1C)C=2C=C(C(OCC3CC3)=C(C2)C)C)C)CC4CC4
accession=JP011451
date=2016.01.19 (Created 2008.10.21, modified 2011.05.06)
author=FUJISE Y, HAMAMATSU UNIV. SCHOOL OF MEDICINE
license=CC BY-NC-SA
exact mass=350.22458
ionization energy=70 eV
ion type=[M]+*
computed spectral entropy=3.2821322381221774
computed normalized entropy=0.7276068415299729
SPLASH=splash10-0f6y-2192000000-77a8078906d8f0fc462a
submitter=submitter = University of Tokyo Team (Faculty of Engineering, University of Tokyo)
MoNA Rating=3.75

>  <NUM PEAKS>  (494) 
91

>  <MASS SPECTRAL PEAKS>  (494) 
36 12.4
40 7.67
41 4.94
42 1.02
43 6.99
44 3.66
51 1.43
53 0.73
54 2.33
55 75.39
56 0.64
57 2.65
65 1.05
69 2.93
71 2.67
77 2.3
81 1.4
89 1.05
90 1.43
91 3.26
105 1.46
115 1.86
121 1.01
128 2.73
129 2.1
135 1.08
141 2.28
142 1.04
143 1.08
149 1.87
152 2.1
153 2.95
154 2.26
155 1.7
157 1.33
159 1.06
165 4.81
166 2.52
167 2.69
168 1.43
169 3.45
170 1.42
171 1.51
172 1.51
178 1.31
179 2.34
180 2.19
181 3.91
182 2.94
183 4.15
184 1.73
185 3.17
195 2.64
196 1.86
197 5.25
198 10.42
199 2.88
200 5.95
209 1.77
210 1.4
211 3.59
212 2.86
213 6.24
214 2.55
215 1.43
223 1.07
224 1.42
225 3.38
226 3.58
227 1.63
239 2.1
240 7
241 98.1
242 78.08
243 15.62
255 5.14
256 1.69
267 2.52
268 4.81
269 1.79
270 6.47
271 1.73
279 1.11
295 24.46
296 99.99
297 28.55
322 1.95
326 1.83
328 1.82
350 92.12
351 34.07

$$$$

     RDKit          2D

 21 21  0  0  0  0  0  0  0  0999 V2000
    6.2206    2.9801    0.0000 C   0  0  0  0  0  0  0  0  0  0  0  0
   -3.5558   -4.0615    0.0000 C   0  0  0  0  0  0  0  0  0  0  0  0
   -3.6530    1.1705    0.0000 C   0  0  0  0  0  0  0  0  0  0  0  0
   -7.0130   -1.8242    0.0000 C   0  0  0  0  0  0  0  0  0  0  0  0
   -6.4743    0.7174    0.0000 C   0  0  0  0  0  0  0  0  0  0  0  0
    4.7929    3.4401    0.0000 C   0  0  0  0  0  0  0  0  0  0  0  0
   -2.1281   -3.6015    0.0000 C   0  0  0  0  0  0  0  0  0  0  0  0
   -2.2828    1.7810    0.0000 C   0  0  0  0  0  0  0  0  0  0  0  0
    3.6807    2.4336    0.0000 C   0  0  0  0  0  0  0  0  0  0  0  0
   -1.8125   -2.1351    0.0000 C   0  0  0  0  0  0  0  0  0  0  0  0
   -3.5395    0.0954    0.0000 C   0  0  0  0  0  0  0  0  0  0  0  0
   -4.5425   -1.0199    0.0000 C   0  0  0  0  0  0  0  0  0  0  0  0
    2.2529    2.8936    0.0000 C   0  0  0  0  0  0  0  0  0  0  0  0
   -0.3848   -1.6751    0.0000 C   0  0  0  0  0  0  0  0  0  0  0  0
   -2.0721   -0.2156    0.0000 C   0  0  0  0  0  0  0  0  0  0  0  0
   -0.3190    2.1988    0.0000 C   0  0  0  0  0  0  0  0  0  0  0  0
   -6.0099   -0.7089    0.0000 C   0  0  0  0  0  0  0  0  0  0  0  0
    1.1407    1.8871    0.0000 C   0  0  0  0  0  0  0  0  0  0  0  0
   -0.0693   -0.2087    0.0000 C   0  0  0  0  0  0  0  0  0  0  0  0
   -1.0690    0.8997    0.0000 C   0  0  0  0  0  0  0  0  0  0  0  0
    1.3065    0.3942    0.0000 O   0  0  0  0  0  0  0  0  0  0  0  0
  6  1  1  0
  7  2  1  0
  8  3  2  0
  9  6  1  0
 10  7  1  0
 12 11  1  0
 13  9  1  0
 14 10  1  0
 15 11  1  0
 17  4  1  0
 17  5  1  0
 17 12  2  0
 18 13  1  0
 18 16  1  0
 19 14  1  0
 20  8  1  0
 20 15  1  0
 20 16  1  0
 20 19  1  0
 21 18  1  0
 21 19  1  0
M  END
>  <NAME>  (495) 
3-ETHENYL-2,5-DIBUTYL-3-(4-METHYL-3-PENTENYL)TETRAHYDROFURAN

>  <SYNONYMS>  (495) 


>  <SPECTRUM TYPE>  (495) 
MS1

>  <INSTRUMENT TYPE>  (495) 
EI-B

>  <INSTRUMENT>  (495) 
JEOL JMS-DX-300

>  <ION MODE>  (495) 
P

>  <INCHIKEY>  (495) 
CORRSPQDYCFIHB-UHFFFAOYSA-N

>  <FORMULA>  (495) 
C20H36O

>  <EXACT MASS>  (495) 
292.27661577199996

>  <MW>  (495) 
292

>  <ID>  (495) 
JP011403

>  <CONTRIBUTOR>  (495) 
University of Tokyo Team, {Faculty of Engineering, University of Tokyo

>  <COMMENT>  (495) 
SMILES=CCCCC(O1)CC(C=C)(CCC=C(C)C)C(CCCC)1
InChI=InChI=1S/C20H36O/c1-6-9-13-18-16-20(8-3,15-11-12-17(4)5)19(21-18)14-10-7-2/h8,12,18-19H,3,6-7,9-11,13-16H2,1-2,4-5H3
computed SMILES=O1C(CCCC)CC(C=C)(CCC=C(C)C)C1CCCC
accession=JP011403
date=2016.01.19 (Created 2008.10.21, modified 2011.05.06)
author=HISAHIRO HAGIWARA, INSTITUTE FOR CHEMICAL REACTION SCIENCE TOHOKU UNIV.
license=CC BY-NC-SA
exact mass=292.27662
ionization energy=70 eV
ion type=[M]+*
computed spectral entropy=3.4791190213185845
computed normalized entropy=0.8721817336710488
SPLASH=splash10-0296-9410000000-9cb79cb128f1c549453d
submitter=submitter = University of Tokyo Team (Faculty of Engineering, University of Tokyo)
MoNA Rating=3.75

>  <NUM PEAKS>  (495) 
54

>  <MASS SPECTRAL PEAKS>  (495) 
39 6.7
41 62.9
42 5.2
43 14.6
53 9.6
54 2.3
55 27.5
56 2
57 14.9
65 3.3
66 2.1
67 25.8
68 9.4
69 72.2
70 5.3
77 6.9
78 3.4
79 28.8
80 13
81 27.6
82 13.2
83 9.4
85 11.8
91 6.9
92 4.8
93 77.6
94 16.2
95 22.7
96 6.7
105 2.4
107 22
108 7.7
109 9.7
121 18.9
122 11
123 4.8
124 2.3
135 20.3
136 9.5
137 3.3
149 19.9
150 6.3
151 2.2
163 99.99
164 19
165 5.4
191 7.1
192 3.2
206 12
207 15.8
208 14.5
209 2.7
235 8.6
292 4.2

$$$$

     RDKit          2D

 19 19  0  0  0  0  0  0  0  0999 V2000
   -3.0032    1.9715    0.0000 C   0  0  0  0  0  0  0  0  0  0  0  0
   -6.3632   -1.0232    0.0000 C   0  0  0  0  0  0  0  0  0  0  0  0
   -5.8245    1.5184    0.0000 C   0  0  0  0  0  0  0  0  0  0  0  0
    4.3304    3.2346    0.0000 C   0  0  0  0  0  0  0  0  0  0  0  0
    2.5872    5.1610    0.0000 C   0  0  0  0  0  0  0  0  0  0  0  0
    1.3772   -1.8806    0.0000 C   0  0  0  0  0  0  0  0  0  0  0  0
   -1.1628   -1.3341    0.0000 C   0  0  0  0  0  0  0  0  0  0  0  0
   -1.6331    2.5820    0.0000 C   0  0  0  0  0  0  0  0  0  0  0  0
   -2.8897    0.8964    0.0000 C   0  0  0  0  0  0  0  0  0  0  0  0
   -3.8928   -0.2189    0.0000 C   0  0  0  0  0  0  0  0  0  0  0  0
   -1.4223    0.5854    0.0000 C   0  0  0  0  0  0  0  0  0  0  0  0
    0.3307    2.9998    0.0000 C   0  0  0  0  0  0  0  0  0  0  0  0
   -5.3602    0.0921    0.0000 C   0  0  0  0  0  0  0  0  0  0  0  0
    2.9027    3.6946    0.0000 C   0  0  0  0  0  0  0  0  0  0  0  0
    0.2650   -0.8741    0.0000 C   0  0  0  0  0  0  0  0  0  0  0  0
    1.7905    2.6881    0.0000 C   0  0  0  0  0  0  0  0  0  0  0  0
    0.5805    0.5923    0.0000 C   0  0  0  0  0  0  0  0  0  0  0  0
   -0.4193    1.7007    0.0000 C   0  0  0  0  0  0  0  0  0  0  0  0
    1.9562    1.1952    0.0000 O   0  0  0  0  0  0  0  0  0  0  0  0
  8  1  2  0
 10  9  1  0
 11  9  1  0
 13  2  1  0
 13  3  1  0
 13 10  2  0
 14  4  1  0
 14  5  1  0
 15  6  1  0
 15  7  1  0
 16 12  1  0
 16 14  1  0
 17 15  1  0
 18  8  1  0
 18 11  1  0
 18 12  1  0
 18 17  1  0
 19 16  1  0
 19 17  1  0
M  END
>  <NAME>  (496) 
3-ETHENYL-2,5-DIPROPYL-3-(4-METHYL-3-PENTENYL)TETRAHYDROFURAN

>  <SYNONYMS>  (496) 


>  <SPECTRUM TYPE>  (496) 
MS1

>  <INSTRUMENT TYPE>  (496) 
EI-B

>  <INSTRUMENT>  (496) 
JEOL JMS-DX-300

>  <ION MODE>  (496) 
P

>  <INCHIKEY>  (496) 
WTBSTODNZOIJQY-UHFFFAOYSA-N

>  <FORMULA>  (496) 
C18H32O

>  <EXACT MASS>  (496) 
264.245315644

>  <MW>  (496) 
264

>  <ID>  (496) 
JP011402

>  <CONTRIBUTOR>  (496) 
University of Tokyo Team, {Faculty of Engineering, University of Tokyo

>  <COMMENT>  (496) 
SMILES=CC(C)=CCCC(C=C)(C1)C(C(C)C)OC(C(C)C)1
InChI=InChI=1S/C18H32O/c1-8-18(11-9-10-13(2)3)12-16(14(4)5)19-17(18)15(6)7/h8,10,14-17H,1,9,11-12H2,2-7H3
computed SMILES=O1C(CC(C=C)(CCC=C(C)C)C1C(C)C)C(C)C
accession=JP011402
date=2016.01.19 (Created 2008.10.21, modified 2011.05.06)
author=HISAHIRO HAGIWARA, INSTITUTE FOR CHEMICAL REACTION SCIENCE TOHOKU UNIV.
license=CC BY-NC-SA
exact mass=264.24532
ionization energy=70 eV
ion type=[M]+*
computed spectral entropy=3.4865382995867997
computed normalized entropy=0.8661450147602019
SPLASH=splash10-00kg-9500000000-538047bcd00150903b4c
submitter=submitter = University of Tokyo Team (Faculty of Engineering, University of Tokyo)
MoNA Rating=3.75

>  <NUM PEAKS>  (496) 
56

>  <MASS SPECTRAL PEAKS>  (496) 
39 7.6
40 2.1
41 59.8
42 3.7
43 23.9
53 10.5
54 2.6
55 31
56 2.5
57 5
65 3.9
66 2.2
67 26.7
68 8.9
69 70.3
70 5.4
71 16.9
77 7.2
78 3.6
79 30.2
80 11
81 31.6
82 13.5
83 9
91 7.4
92 3.7
93 67
94 12.1
95 13.1
96 5.1
105 3.3
107 21.2
108 7.4
109 9.9
110 3.5
121 14.6
122 10.8
123 8.2
124 2.8
135 19.2
136 7.5
137 3.4
149 99.99
150 18.6
151 5.8
163 2.8
177 7.2
178 3.3
179 12.5
180 12.7
181 2.7
192 10.5
193 4.3
194 4.2
221 9.2
264 4.5

$$$$

     RDKit          2D

 21 21  0  0  0  0  0  0  0  0999 V2000
   -3.2813    1.4467    0.0000 C   0  0  0  0  0  0  0  0  0  0  0  0
   -6.6413   -1.5481    0.0000 C   0  0  0  0  0  0  0  0  0  0  0  0
   -6.1026    0.9936    0.0000 C   0  0  0  0  0  0  0  0  0  0  0  0
    5.1646    3.7162    0.0000 C   0  0  0  0  0  0  0  0  0  0  0  0
    4.3679    1.2433    0.0000 C   0  0  0  0  0  0  0  0  0  0  0  0
    0.7836   -3.8719    0.0000 C   0  0  0  0  0  0  0  0  0  0  0  0
    2.5268   -1.9455    0.0000 C   0  0  0  0  0  0  0  0  0  0  0  0
   -1.9111    2.0572    0.0000 C   0  0  0  0  0  0  0  0  0  0  0  0
   -3.1678    0.3715    0.0000 C   0  0  0  0  0  0  0  0  0  0  0  0
   -4.1708   -0.7438    0.0000 C   0  0  0  0  0  0  0  0  0  0  0  0
   -1.7004    0.0605    0.0000 C   0  0  0  0  0  0  0  0  0  0  0  0
    2.6246    3.1697    0.0000 C   0  0  0  0  0  0  0  0  0  0  0  0
   -0.0131   -1.3990    0.0000 C   0  0  0  0  0  0  0  0  0  0  0  0
    0.0527    2.4749    0.0000 C   0  0  0  0  0  0  0  0  0  0  0  0
   -5.6382   -0.4328    0.0000 C   0  0  0  0  0  0  0  0  0  0  0  0
    4.0524    2.7098    0.0000 C   0  0  0  0  0  0  0  0  0  0  0  0
    1.0991   -2.4054    0.0000 C   0  0  0  0  0  0  0  0  0  0  0  0
    1.5124    2.1633    0.0000 C   0  0  0  0  0  0  0  0  0  0  0  0
    0.3024    0.0675    0.0000 C   0  0  0  0  0  0  0  0  0  0  0  0
   -0.6973    1.1758    0.0000 C   0  0  0  0  0  0  0  0  0  0  0  0
    1.6782    0.6704    0.0000 O   0  0  0  0  0  0  0  0  0  0  0  0
  8  1  2  0
 10  9  1  0
 11  9  1  0
 15  2  1  0
 15  3  1  0
 15 10  2  0
 16  4  1  0
 16  5  1  0
 16 12  1  0
 17  6  1  0
 17  7  1  0
 17 13  1  0
 18 12  1  0
 18 14  1  0
 19 13  1  0
 20  8  1  0
 20 11  1  0
 20 14  1  0
 20 19  1  0
 21 18  1  0
 21 19  1  0
M  END
>  <NAME>  (497) 
3-ETHENYL-3-(4-METHYL-3-PENTENYL)-2,5-BIS(2-METHYLPROPYL)TETRAHYDROFURAN

>  <SYNONYMS>  (497) 


>  <SPECTRUM TYPE>  (497) 
MS1

>  <INSTRUMENT TYPE>  (497) 
EI-B

>  <INSTRUMENT>  (497) 
JEOL JMS-DX-300

>  <ION MODE>  (497) 
P

>  <INCHIKEY>  (497) 
IYZIXNDGGPPYAM-UHFFFAOYSA-N

>  <FORMULA>  (497) 
C20H36O

>  <EXACT MASS>  (497) 
292.276615772

>  <MW>  (497) 
292

>  <ID>  (497) 
JP011401

>  <CONTRIBUTOR>  (497) 
University of Tokyo Team, {Faculty of Engineering, University of Tokyo

>  <COMMENT>  (497) 
SMILES=CC(C)=CCCC(C=C)(C1)C(CC(C)C)OC(CC(C)C)1
InChI=InChI=1S/C20H36O/c1-8-20(11-9-10-15(2)3)14-18(12-16(4)5)21-19(20)13-17(6)7/h8,10,16-19H,1,9,11-14H2,2-7H3
computed SMILES=O1C(CC(C)C)CC(C=C)(CCC=C(C)C)C1CC(C)C
accession=JP011401
date=2016.01.19 (Created 2008.10.21, modified 2011.05.06)
author=HISAHIRO HAGIWARA, INSTITUTE FOR CHEMICAL REACTION SCIENCE TOHOKU UNIV.
license=CC BY-NC-SA
exact mass=292.27662
ionization energy=70 eV
ion type=[M]+*
computed spectral entropy=3.5683936064535295
computed normalized entropy=0.8751344789701059
SPLASH=splash10-0296-9400000000-142a800369e62d1bfaf4
submitter=submitter = University of Tokyo Team (Faculty of Engineering, University of Tokyo)
MoNA Rating=3.75

>  <NUM PEAKS>  (497) 
59

>  <MASS SPECTRAL PEAKS>  (497) 
39 7.6
40 2.1
41 73.3
42 4.9
43 31.4
53 10.2
54 2.3
55 30.3
56 3
57 19.7
65 3.4
66 3
67 33.6
68 9.5
69 99.99
70 7.9
71 5
77 7.6
78 3.8
79 32.8
80 16.5
81 45.4
82 23.2
83 14.9
85 17.5
91 8.2
92 7
93 77
94 16.5
95 27.3
96 6.4
97 2.5
105 3.5
107 59.4
108 12.1
109 16.6
110 2.3
121 20.7
122 16.2
123 7.1
124 2.7
135 27.3
136 13.6
137 5.2
149 19.5
150 15.7
151 3.6
162 4.8
163 91.5
164 15.4
165 3.8
191 8.5
192 3.3
206 11.9
207 14.5
208 13.7
209 3.1
235 10.4
292 5.2

$$$$

     RDKit          2D

 14 13  0  0  0  0  0  0  0  0999 V2000
   -3.9841    1.4498    0.0000 C   0  0  0  0  0  0  0  0  0  0  0  0
    2.5111    3.6998    0.0000 C   0  0  0  0  0  0  0  0  0  0  0  0
    1.2120    5.9498    0.0000 C   0  0  0  0  0  0  0  0  0  0  0  0
   -6.0332    4.9988    0.0000 C   0  0  0  0  0  0  0  0  0  0  0  0
   -6.5822    2.9498    0.0000 C   0  0  0  0  0  0  0  0  0  0  0  0
   -4.5332    2.4007    0.0000 C   0  0  0  0  0  0  0  0  0  0  0  0
   -2.6851    2.1998    0.0000 C   0  0  0  0  0  0  0  0  0  0  0  0
   -0.0870    3.6998    0.0000 C   0  0  0  0  0  0  0  0  0  0  0  0
   -3.9841    4.4498    0.0000 C   0  0  0  0  0  0  0  0  0  0  0  0
    1.2120    4.4498    0.0000 C   0  0  0  0  0  0  0  0  0  0  0  0
   -2.6851    3.6998    0.0000 C   0  0  0  0  0  0  0  0  0  0  0  0
   -1.3861    4.4498    0.0000 C   0  0  0  0  0  0  0  0  0  0  0  0
   -1.3861    5.9498    0.0000 O   0  0  0  0  0  0  0  0  0  0  0  0
   -5.2832    3.6998    0.0000 Si  0  0  0  0  0  4  0  0  0  0  0  0
  7  1  2  0
 10  2  1  0
 10  3  1  0
 10  8  1  0
 11  7  1  0
 11  9  1  0
 12  8  1  0
 12 11  1  0
 13 12  1  0
 14  4  1  0
 14  5  1  0
 14  6  1  0
 14  9  1  0
M  END
>  <NAME>  (498) 
6-METHYL-3-(TRIMETHYLSILYL)METHYL-1-HEPTEN-4-OL

>  <SYNONYMS>  (498) 


>  <SPECTRUM TYPE>  (498) 
MS1

>  <INSTRUMENT TYPE>  (498) 
EI-B

>  <INSTRUMENT>  (498) 
JEOL JMS-DX-300

>  <ION MODE>  (498) 
P

>  <INCHIKEY>  (498) 
XMDRTAVKUHDSRY-UHFFFAOYSA-N

>  <FORMULA>  (498) 
C12H26OSi

>  <EXACT MASS>  (498) 
214.175291982

>  <MW>  (498) 
214

>  <ID>  (498) 
JP011400

>  <CONTRIBUTOR>  (498) 
University of Tokyo Team, {Faculty of Engineering, University of Tokyo

>  <COMMENT>  (498) 
SMILES=CC(C)CC(O)C(C=C)C[Si](C)(C)C
InChI=InChI=1S/C12H26OSi/c1-7-11(9-14(4,5)6)12(13)8-10(2)3/h7,10-13H,1,8-9H2,2-6H3
computed SMILES=OC(CC(C)C)C(C=C)C[Si](C)(C)C
accession=JP011400
date=2016.01.19 (Created 2008.10.21, modified 2011.05.06)
author=HISAHIRO HAGIWARA, INSTITUTE FOR CHEMICAL REACTION SCIENCE TOHOKU UNIV.
license=CC BY-NC-SA
exact mass=214.17529
ionization energy=70 eV
ion type=[M]+*
computed spectral entropy=3.272691176884349
computed normalized entropy=0.8409152854444878
SPLASH=splash10-00fr-9100000000-662f1c0ffeda7421cf8c
submitter=submitter = University of Tokyo Team (Faculty of Engineering, University of Tokyo)
MoNA Rating=3.75

>  <NUM PEAKS>  (498) 
49

>  <MASS SPECTRAL PEAKS>  (498) 
31 3.9
39 7.2
41 25.1
42 2.4
43 24.6
44 8.3
45 34.9
46 2.2
47 4.9
53 4
54 9.8
55 9.2
56 2.6
57 8.7
58 3.6
59 14.5
60 2.1
61 6.1
67 20.6
68 10.4
69 32
70 5.9
71 5.3
72 5.3
73 99.99
74 35.3
75 91.6
76 8
77 4.8
79 2.3
80 2.4
81 12.6
82 14.7
83 4
85 4.9
87 5.4
95 5.5
96 5.2
97 10
103 12.8
109 5.8
113 6.1
117 2.4
124 2.7
127 8.8
128 35.8
129 5.7
159 5.3
181 1.9

$$$$

     RDKit          2D

 14 13  0  0  0  0  0  0  0  0999 V2000
   -0.4118    2.8358    0.0000 C   0  0  0  0  0  0  0  0  0  0  0  0
    1.6373   -0.7132    0.0000 C   0  0  0  0  0  0  0  0  0  0  0  0
    0.1373    1.8849    0.0000 C   0  0  0  0  0  0  0  0  0  0  0  0
   -0.4118   -0.1642    0.0000 C   0  0  0  0  0  0  0  0  0  0  0  0
    4.9853    5.0858    0.0000 C   0  0  0  0  0  0  0  0  0  0  0  0
    3.4853    6.5858    0.0000 C   0  0  0  0  0  0  0  0  0  0  0  0
    1.9853    5.0858    0.0000 C   0  0  0  0  0  0  0  0  0  0  0  0
    0.8873    3.5858    0.0000 C   0  0  0  0  0  0  0  0  0  0  0  0
    3.4853    3.5858    0.0000 C   0  0  0  0  0  0  0  0  0  0  0  0
    2.1863    2.8358    0.0000 C   0  0  0  0  0  0  0  0  0  0  0  0
    2.1863    1.3358    0.0000 C   0  0  0  0  0  0  0  0  0  0  0  0
    0.8873    0.5858    0.0000 C   0  0  0  0  0  0  0  0  0  0  0  0
    3.4853    0.5858    0.0000 O   0  0  0  0  0  0  0  0  0  0  0  0
    3.4853    5.0858    0.0000 Si  0  0  0  0  0  4  0  0  0  0  0  0
  8  1  2  0
 10  8  1  0
 10  9  1  0
 11 10  1  0
 12  2  1  0
 12  3  1  0
 12  4  1  0
 12 11  1  0
 13 11  2  0
 14  5  1  0
 14  6  1  0
 14  7  1  0
 14  9  1  0
M  END
>  <NAME>  (499) 
2,2-DIMETHYL-4-(TRIMETHYLSILYL)METHYL-5-HEXEN-3-ONE

>  <SYNONYMS>  (499) 


>  <SPECTRUM TYPE>  (499) 
MS1

>  <INSTRUMENT TYPE>  (499) 
EI-B

>  <INSTRUMENT>  (499) 
JEOL JMS-DX-300

>  <ION MODE>  (499) 
P

>  <INCHIKEY>  (499) 
INDDZOADHRZSTG-UHFFFAOYSA-N

>  <FORMULA>  (499) 
C12H24OSi

>  <EXACT MASS>  (499) 
212.159641918

>  <MW>  (499) 
212

>  <ID>  (499) 
JP011399

>  <CONTRIBUTOR>  (499) 
University of Tokyo Team, {Faculty of Engineering, University of Tokyo

>  <COMMENT>  (499) 
SMILES=C=CC(C[Si](C)(C)C)C(=O)C(C)(C)C
InChI=InChI=1S/C12H24OSi/c1-8-10(9-14(5,6)7)11(13)12(2,3)4/h8,10H,1,9H2,2-7H3
computed SMILES=O=C(C(C=C)C[Si](C)(C)C)C(C)(C)C
accession=JP011399
date=2016.01.19 (Created 2008.10.21, modified 2011.05.06)
author=HISAHIRO HAGIWARA, INSTITUTE FOR CHEMICAL REACTION SCIENCE TOHOKU UNIV.
license=CC BY-NC-SA
exact mass=212.15964
ionization energy=70 eV
ion type=[M]+*
computed spectral entropy=2.4007452904847275
computed normalized entropy=0.7656672681098562
SPLASH=splash10-05fr-9200000000-6da95b13b45f6d1e3871
submitter=submitter = University of Tokyo Team (Faculty of Engineering, University of Tokyo)
MoNA Rating=3.75

>  <NUM PEAKS>  (499) 
23

>  <MASS SPECTRAL PEAKS>  (499) 
39 2.7
41 11.1
43 3.5
44 2.6
45 11.5
57 58.4
58 4.3
59 5
73 99.99
74 12.4
75 22.4
85 8.7
97 3.5
127 11.7
141 2.3
143 17.1
144 2.6
155 30.3
156 5.3
157 2
158 6.7
197 3.8
212 0.3

$$$$

     RDKit          2D

 15 15  0  0  0  0  0  0  0  0999 V2000
    1.0227    3.6137    0.0000 C   0  0  0  0  0  0  0  0  0  0  0  0
   -4.3810   -2.7764    0.0000 C   0  0  0  0  0  0  0  0  0  0  0  0
   -1.8410   -3.3229    0.0000 C   0  0  0  0  0  0  0  0  0  0  0  0
    5.1777   -0.3035    0.0000 C   0  0  0  0  0  0  0  0  0  0  0  0
    3.4344    1.6229    0.0000 C   0  0  0  0  0  0  0  0  0  0  0  0
    1.6322    2.2431    0.0000 C   0  0  0  0  0  0  0  0  0  0  0  0
   -2.6377   -0.8500    0.0000 C   0  0  0  0  0  0  0  0  0  0  0  0
    2.6377   -0.8500    0.0000 C   0  0  0  0  0  0  0  0  0  0  0  0
   -0.7500    1.0300    0.0000 C   0  0  0  0  0  0  0  0  0  0  0  0
   -2.9533   -2.3164    0.0000 C   0  0  0  0  0  0  0  0  0  0  0  0
    3.7499    0.1565    0.0000 C   0  0  0  0  0  0  0  0  0  0  0  0
    0.7500    1.0300    0.0000 C   0  0  0  0  0  0  0  0  0  0  0  0
   -1.2100   -0.3900    0.0000 C   0  0  0  0  0  0  0  0  0  0  0  0
    1.2100   -0.3900    0.0000 C   0  0  0  0  0  0  0  0  0  0  0  0
   -0.0000   -1.2800    0.0000 O   0  0  0  0  0  0  0  0  0  0  0  0
  6  1  2  0
 10  2  1  0
 10  3  1  0
 10  7  1  0
 11  4  1  0
 11  5  1  0
 11  8  1  0
 12  6  1  0
 12  9  1  0
 13  7  1  0
 13  9  1  0
 14  8  1  0
 14 12  1  0
 15 13  1  0
 15 14  1  0
M  END
>  <NAME>  (500) 
3-ETHENYL-2,5-BIS(2-METHYLPROPYL)TETRAHYDROFURAN

>  <SYNONYMS>  (500) 


>  <SPECTRUM TYPE>  (500) 
MS1

>  <INSTRUMENT TYPE>  (500) 
EI-B

>  <INSTRUMENT>  (500) 
JEOL JMS-DX-300

>  <ION MODE>  (500) 
P

>  <INCHIKEY>  (500) 
ITEQWNDUNHFRAG-UHFFFAOYSA-N

>  <FORMULA>  (500) 
C14H26O

>  <EXACT MASS>  (500) 
210.198365452

>  <MW>  (500) 
210

>  <ID>  (500) 
JP011398

>  <CONTRIBUTOR>  (500) 
University of Tokyo Team, {Faculty of Engineering, University of Tokyo

>  <COMMENT>  (500) 
SMILES=CC(C)CC(C1)OC(CC(C)C)C(C=C)1
InChI=InChI=1S/C14H26O/c1-6-12-9-13(7-10(2)3)15-14(12)8-11(4)5/h6,10-14H,1,7-9H2,2-5H3
computed SMILES=O1C(CC(C)C)CC(C=C)C1CC(C)C
accession=JP011398
date=2016.01.19 (Created 2008.10.21, modified 2011.05.06)
author=HISAHIRO HAGIWARA, INSTITUTE FOR CHEMICAL REACTION SCIENCE TOHOKU UNIV.
license=CC BY-NC-SA
exact mass=210.19837
ionization energy=70 eV
ion type=[M]+*
computed spectral entropy=3.2109467736040394
computed normalized entropy=0.8704396046401317
SPLASH=splash10-0159-9100000000-e4bf3022ed210ddf0972
submitter=submitter = University of Tokyo Team (Faculty of Engineering, University of Tokyo)
MoNA Rating=3.75

>  <NUM PEAKS>  (500) 
40

>  <MASS SPECTRAL PEAKS>  (500) 
39 14.9
40 3
41 57.6
42 8.6
43 27.3
44 2.5
45 3.7
53 11.2
54 60
55 43.4
56 13.4
57 39.4
65 3.7
66 13.3
67 41.6
68 52.9
69 80.7
70 23.4
71 5.9
73 3.8
77 4.1
79 12.8
80 17.7
81 72.9
82 99.99
83 25.1
85 5.3
91 2.2
93 6.8
95 24.4
96 33.9
97 6.1
107 4.2
109 41.7
110 4.2
124 46.4
125 5.6
135 5
153 13.6
210 0.7

$$$$

     RDKit          2D

 16 16  0  0  0  0  0  0  0  0999 V2000
   -3.3344    0.6443    0.0000 C   0  0  0  0  0  0  0  0  0  0  0  0
   -5.3834    4.1934    0.0000 C   0  0  0  0  0  0  0  0  0  0  0  0
   -5.9324    2.1443    0.0000 C   0  0  0  0  0  0  0  0  0  0  0  0
   -3.8834    1.5953    0.0000 C   0  0  0  0  0  0  0  0  0  0  0  0
   -2.0353    1.3943    0.0000 C   0  0  0  0  0  0  0  0  0  0  0  0
    3.1608    1.3943    0.0000 C   0  0  0  0  0  0  0  0  0  0  0  0
    3.1613    2.8952    0.0000 C   0  0  0  0  0  0  0  0  0  0  0  0
    1.8613    0.6435    0.0000 C   0  0  0  0  0  0  0  0  0  0  0  0
    1.8623    3.6452    0.0000 C   0  0  0  0  0  0  0  0  0  0  0  0
    0.5623    1.3935    0.0000 C   0  0  0  0  0  0  0  0  0  0  0  0
   -3.3344    3.6443    0.0000 C   0  0  0  0  0  0  0  0  0  0  0  0
   -2.0353    2.8943    0.0000 C   0  0  0  0  0  0  0  0  0  0  0  0
    0.5627    2.8943    0.0000 C   0  0  0  0  0  0  0  0  0  0  0  0
   -0.7363    3.6443    0.0000 C   0  0  0  0  0  0  0  0  0  0  0  0
   -0.7363    5.1443    0.0000 O   0  0  0  0  0  0  0  0  0  0  0  0
   -4.6334    2.8943    0.0000 Si  0  0  0  0  0  4  0  0  0  0  0  0
  5  1  2  0
  7  6  2  0
  8  6  1  0
  9  7  1  0
 10  8  2  0
 12  5  1  0
 12 11  1  0
 13  9  2  0
 13 10  1  0
 14 12  1  0
 14 13  1  0
 15 14  1  0
 16  2  1  0
 16  3  1  0
 16  4  1  0
 16 11  1  0
M  END
>  <NAME>  (501) 
2-(TRIMETHYLSILYL)METHYL-1-PHENYL-3-BUTEN-1-OL

>  <SYNONYMS>  (501) 


>  <SPECTRUM TYPE>  (501) 
MS1

>  <INSTRUMENT TYPE>  (501) 
EI-B

>  <INSTRUMENT>  (501) 
JEOL JMS-DX-300

>  <ION MODE>  (501) 
P

>  <INCHIKEY>  (501) 
QJMIILNHQISUMY-UHFFFAOYSA-N

>  <FORMULA>  (501) 
C14H22OSi

>  <EXACT MASS>  (501) 
234.14399185399998

>  <MW>  (501) 
234

>  <ID>  (501) 
JP011397

>  <CONTRIBUTOR>  (501) 
University of Tokyo Team, {Faculty of Engineering, University of Tokyo

>  <COMMENT>  (501) 
SMILES=C=CC(C[Si](C)(C)C)C(O)c(c1)cccc1
InChI=InChI=1S/C14H22OSi/c1-5-12(11-16(2,3)4)14(15)13-9-7-6-8-10-13/h5-10,12,14-15H,1,11H2,2-4H3
computed SMILES=OC(C=1C=CC=CC1)C(C=C)C[Si](C)(C)C
accession=JP011397
date=2016.01.19 (Created 2008.10.21, modified 2011.05.06)
author=HISAHIRO HAGIWARA, INSTITUTE FOR CHEMICAL REACTION SCIENCE TOHOKU UNIV.
license=CC BY-NC-SA
exact mass=234.14399
ionization energy=70 eV
ion type=[M]+*
computed spectral entropy=1.9971753714235927
computed normalized entropy=0.6559897035664496
SPLASH=splash10-00di-6900000000-1558c6d9cfae03139262
submitter=submitter = University of Tokyo Team (Faculty of Engineering, University of Tokyo)
MoNA Rating=3.75

>  <NUM PEAKS>  (501) 
21

>  <MASS SPECTRAL PEAKS>  (501) 
43 1.7
44 1.2
45 6.3
51 1.4
58 1.5
59 7.4
73 26.7
74 2.8
75 2.2
77 9.1
78 1.6
89 20.3
90 2.3
91 6.7
97 1.5
105 2.9
115 1.3
121 99.99
122 13.3
128 1.6
129 1.5

$$$$

     RDKit          2D

 13 13  0  0  0  0  0  0  0  0999 V2000
    5.1777    3.6137    0.0000 C   0  0  0  0  0  0  0  0  0  0  0  0
   -4.3810    1.1408    0.0000 C   0  0  0  0  0  0  0  0  0  0  0  0
   -0.2260   -2.7764    0.0000 C   0  0  0  0  0  0  0  0  0  0  0  0
    3.7499    3.1538    0.0000 C   0  0  0  0  0  0  0  0  0  0  0  0
   -2.9533    0.6808    0.0000 C   0  0  0  0  0  0  0  0  0  0  0  0
   -0.8355   -1.4058    0.0000 C   0  0  0  0  0  0  0  0  0  0  0  0
    3.4344    1.6873    0.0000 C   0  0  0  0  0  0  0  0  0  0  0  0
   -1.8410    1.6873    0.0000 C   0  0  0  0  0  0  0  0  0  0  0  0
    1.5467   -0.1927    0.0000 C   0  0  0  0  0  0  0  0  0  0  0  0
    0.0467   -0.1927    0.0000 C   0  0  0  0  0  0  0  0  0  0  0  0
    2.0067    1.2273    0.0000 C   0  0  0  0  0  0  0  0  0  0  0  0
   -0.4133    1.2273    0.0000 C   0  0  0  0  0  0  0  0  0  0  0  0
    0.7967    2.1173    0.0000 O   0  0  0  0  0  0  0  0  0  0  0  0
  4  1  1  0
  5  2  1  0
  6  3  2  0
  7  4  1  0
  8  5  1  0
 10  6  1  0
 10  9  1  0
 11  7  1  0
 11  9  1  0
 12  8  1  0
 12 10  1  0
 13 11  1  0
 13 12  1  0
M  END
>  <NAME>  (502) 
2,5-DIBUTYL-3-ETHENYLTETRAHYDROFURAN

>  <SYNONYMS>  (502) 


>  <SPECTRUM TYPE>  (502) 
MS1

>  <INSTRUMENT TYPE>  (502) 
EI-B

>  <INSTRUMENT>  (502) 
JEOL JMS-DX-300

>  <ION MODE>  (502) 
P

>  <INCHIKEY>  (502) 
RGUDGBPPEKIZQX-UHFFFAOYSA-N

>  <FORMULA>  (502) 
C12H22O

>  <EXACT MASS>  (502) 
182.167065324

>  <MW>  (502) 
182

>  <ID>  (502) 
JP011396

>  <CONTRIBUTOR>  (502) 
University of Tokyo Team, {Faculty of Engineering, University of Tokyo

>  <COMMENT>  (502) 
SMILES=CCCC(C1)OC(CCC)C(C=C)1
InChI=InChI=1S/C12H22O/c1-4-7-11-9-10(6-3)12(13-11)8-5-2/h6,10-12H,3-5,7-9H2,1-2H3
computed SMILES=O1C(CCC)CC(C=C)C1CCC
accession=JP011396
date=2016.01.19 (Created 2008.10.21, modified 2011.05.06)
author=HISAHIRO HAGIWARA, INSTITUTE FOR CHEMICAL REACTION SCIENCE TOHOKU UNIV.
license=CC BY-NC-SA
exact mass=182.16707
ionization energy=70 eV
ion type=[M]+*
computed spectral entropy=3.1001124084585103
computed normalized entropy=0.8294238723759446
SPLASH=splash10-0gc0-9100000000-23caaad7097752ecf8db
submitter=submitter = University of Tokyo Team (Faculty of Engineering, University of Tokyo)
MoNA Rating=3.75

>  <NUM PEAKS>  (502) 
42

>  <MASS SPECTRAL PEAKS>  (502) 
31 3.1
39 24.5
40 4.5
41 52.7
42 5.8
43 27.4
44 2.9
45 3.5
51 2.7
52 2.2
53 15.1
54 99.99
55 41.7
56 7.9
57 6.7
65 6
66 7
67 51.1
68 62.2
69 32.2
70 2.6
71 10.5
77 4.9
79 12.6
80 6.5
81 68.1
82 37.7
83 5.9
87 4.6
91 2
93 6.4
95 34.3
96 3.5
97 2.5
109 2.4
110 62.8
111 9
121 6.1
139 15.4
181 1.2
182 1.2
183 1.3

$$$$

     RDKit          2D

 13 12  0  0  0  0  0  0  0  0999 V2000
   -0.1507    1.4130    0.0000 C   0  0  0  0  0  0  0  0  0  0  0  0
   -5.3469    4.4130    0.0000 C   0  0  0  0  0  0  0  0  0  0  0  0
   -4.0478    2.1630    0.0000 C   0  0  0  0  0  0  0  0  0  0  0  0
    0.3983    2.3639    0.0000 C   0  0  0  0  0  0  0  0  0  0  0  0
    2.4474    2.9130    0.0000 C   0  0  0  0  0  0  0  0  0  0  0  0
    1.8983    4.9620    0.0000 C   0  0  0  0  0  0  0  0  0  0  0  0
   -1.4498    2.1630    0.0000 C   0  0  0  0  0  0  0  0  0  0  0  0
   -0.1507    4.4130    0.0000 C   0  0  0  0  0  0  0  0  0  0  0  0
   -4.0478    3.6630    0.0000 C   0  0  0  0  0  0  0  0  0  0  0  0
   -1.4498    3.6630    0.0000 C   0  0  0  0  0  0  0  0  0  0  0  0
   -2.7488    4.4130    0.0000 C   0  0  0  0  0  0  0  0  0  0  0  0
   -2.7488    5.9130    0.0000 O   0  0  0  0  0  0  0  0  0  0  0  0
    1.1483    3.6630    0.0000 Si  0  0  0  0  0  4  0  0  0  0  0  0
  7  1  2  0
  9  2  1  0
  9  3  1  0
 10  7  1  0
 10  8  1  0
 11  9  1  0
 11 10  1  0
 12 11  2  0
 13  4  1  0
 13  5  1  0
 13  6  1  0
 13  8  1  0
M  END
>  <NAME>  (503) 
2-METHYL-4-(TRIMETHYLSILYL)METHYL-5-HEXEN-3-ONE

>  <SYNONYMS>  (503) 


>  <SPECTRUM TYPE>  (503) 
MS1

>  <INSTRUMENT TYPE>  (503) 
EI-B

>  <INSTRUMENT>  (503) 
JEOL JMS-DX-300

>  <ION MODE>  (503) 
P

>  <INCHIKEY>  (503) 
IRXDIOWOELNKOQ-UHFFFAOYSA-N

>  <FORMULA>  (503) 
C11H22OSi

>  <EXACT MASS>  (503) 
198.14399185399998

>  <MW>  (503) 
198

>  <ID>  (503) 
JP011395

>  <CONTRIBUTOR>  (503) 
University of Tokyo Team, {Faculty of Engineering, University of Tokyo

>  <COMMENT>  (503) 
SMILES=C=CC(C(=O)C(C)C)C[Si](C)(C)C
InChI=InChI=1S/C11H22OSi/c1-7-10(8-13(4,5)6)11(12)9(2)3/h7,9-10H,1,8H2,2-6H3
computed SMILES=O=C(C(C)C)C(C=C)C[Si](C)(C)C
accession=JP011395
date=2016.01.19 (Created 2008.10.21, modified 2011.05.06)
author=HISAHIRO HAGIWARA, INSTITUTE FOR CHEMICAL REACTION SCIENCE TOHOKU UNIV.
license=CC BY-NC-SA
exact mass=198.14399
ionization energy=70 eV
ion type=[M]+*
computed spectral entropy=2.5132262487662222
computed normalized entropy=0.7908066958359432
SPLASH=splash10-00di-9300000000-88eeac637cb3e53b0284
submitter=submitter = University of Tokyo Team (Faculty of Engineering, University of Tokyo)
MoNA Rating=3.75

>  <NUM PEAKS>  (503) 
24

>  <MASS SPECTRAL PEAKS>  (503) 
39 3.7
41 8.6
43 28.9
44 3.6
45 14.5
55 2.4
58 2.9
59 6.3
67 2.1
71 14.8
72 2.5
73 99.99
74 12.1
75 24.3
97 3.9
127 9.8
129 20.4
130 2.6
144 2.7
155 26.1
156 4.3
183 11.7
184 2
198 2.6

$$$$

     RDKit          2D

 24 23  0  0  0  0  0  0  0  0999 V2000
    4.5466    7.8750    0.0000 C   0  0  0  0  0  0  0  0  0  0  0  0
  -13.6399    7.8750    0.0000 C   0  0  0  0  0  0  0  0  0  0  0  0
  -12.3409   10.1250    0.0000 C   0  0  0  0  0  0  0  0  0  0  0  0
   -7.1447   10.1250    0.0000 C   0  0  0  0  0  0  0  0  0  0  0  0
   -3.2476   10.8750    0.0000 C   0  0  0  0  0  0  0  0  0  0  0  0
   -7.8947    6.9240    0.0000 C   0  0  0  0  0  0  0  0  0  0  0  0
   -8.4437    4.8750    0.0000 C   0  0  0  0  0  0  0  0  0  0  0  0
   -6.3947    4.3260    0.0000 C   0  0  0  0  0  0  0  0  0  0  0  0
    3.2476    8.6250    0.0000 C   0  0  0  0  0  0  0  0  0  0  0  0
    1.9486    7.8750    0.0000 C   0  0  0  0  0  0  0  0  0  0  0  0
    0.6495    8.6250    0.0000 C   0  0  0  0  0  0  0  0  0  0  0  0
   -0.6495    7.8750    0.0000 C   0  0  0  0  0  0  0  0  0  0  0  0
   -1.9486    8.6250    0.0000 C   0  0  0  0  0  0  0  0  0  0  0  0
   -9.7428    8.6250    0.0000 C   0  0  0  0  0  0  0  0  0  0  0  0
  -11.0418    7.8750    0.0000 C   0  0  0  0  0  0  0  0  0  0  0  0
   -8.4437    7.8750    0.0000 C   0  0  0  0  0  0  0  0  0  0  0  0
   -3.2476    7.8750    0.0000 C   0  0  0  0  0  0  0  0  0  0  0  0
   -5.8457    6.3750    0.0000 C   0  0  0  0  0  0  0  0  0  0  0  0
  -12.3409    8.6250    0.0000 C   0  0  0  0  0  0  0  0  0  0  0  0
   -7.1447    8.6250    0.0000 C   0  0  0  0  0  0  0  0  0  0  0  0
   -5.8457    7.8750    0.0000 C   0  0  0  0  0  0  0  0  0  0  0  0
   -4.5466    8.6250    0.0000 C   0  0  0  0  0  0  0  0  0  0  0  0
   -4.5466   10.1250    0.0000 O   0  0  0  0  0  0  0  0  0  0  0  0
   -7.1447    5.6250    0.0000 Si  0  0  0  0  0  4  0  0  0  0  0  0
  9  1  1  0
 10  9  1  0
 11 10  1  0
 12 11  1  0
 13 12  1  0
 15 14  1  0
 16 14  1  0
 17 13  1  0
 19  2  1  0
 19  3  1  0
 19 15  2  0
 20  4  2  0
 20 16  1  0
 21 18  1  0
 21 20  1  0
 22 17  1  0
 22 21  1  0
 23  5  1  0
 23 22  1  0
 24  6  1  0
 24  7  1  0
 24  8  1  0
 24 18  1  0
M  END
>  <NAME>  (504) 
8-METHOXY-2-METHYL-6-METHYLENE-7-(TRIMETHYLSILYL)METHYL-2-PENTADECENE

>  <SYNONYMS>  (504) 


>  <SPECTRUM TYPE>  (504) 
MS1

>  <INSTRUMENT TYPE>  (504) 
EI-B

>  <INSTRUMENT>  (504) 
JEOL JMS-DX-300

>  <ION MODE>  (504) 
P

>  <INCHIKEY>  (504) 
VVUBCPPTYJMBNS-UHFFFAOYSA-N

>  <FORMULA>  (504) 
C22H44OSi

>  <EXACT MASS>  (504) 
352.316142558

>  <MW>  (504) 
352

>  <ID>  (504) 
JP011394

>  <CONTRIBUTOR>  (504) 
University of Tokyo Team, {Faculty of Engineering, University of Tokyo

>  <COMMENT>  (504) 
SMILES=CCCCCCCC(OC)C(C[Si](C)(C)C)C(=C)CCC=C(C)C
InChI=InChI=1S/C22H44OSi/c1-9-10-11-12-13-17-22(23-5)21(18-24(6,7)8)20(4)16-14-15-19(2)3/h15,21-22H,4,9-14,16-18H2,1-3,5-8H3
computed SMILES=O(C)C(CCCCCCC)C(C(=C)CCC=C(C)C)C[Si](C)(C)C
accession=JP011394
date=2016.01.19 (Created 2008.10.21, modified 2011.05.06)
author=HISAHIRO HAGIWARA, INSTITUTE FOR CHEMICAL REACTION SCIENCE TOHOKU UNIV.
license=CC BY-NC-SA
exact mass=352.31614
ionization energy=70 eV
ion type=[M]+*
computed spectral entropy=2.9816773986042997
computed normalized entropy=0.8029135681350748
SPLASH=splash10-006x-9600000000-c4490035051bdada8912
submitter=submitter = University of Tokyo Team (Faculty of Engineering, University of Tokyo)
MoNA Rating=3.75

>  <NUM PEAKS>  (504) 
41

>  <MASS SPECTRAL PEAKS>  (504) 
32 2.4
41 13.5
43 17.1
45 22.2
55 22
57 6.5
58 7.7
59 9.2
67 4.8
69 29.2
70 4.6
71 7
73 73.1
74 6.9
75 4.1
79 2.3
81 5.5
83 5.5
89 17.6
91 2.1
93 2.5
95 5.6
97 2.6
105 10.2
107 2.5
109 4.8
111 35.7
112 2.8
119 3
123 2.5
131 2.7
135 4.5
141 6.7
143 99.99
144 11.8
166 2.1
169 2.2
179 2.2
283 2.5
320 3.1
352 1.5

$$$$

     RDKit          2D

 20 19  0  0  0  0  0  0  0  0999 V2000
    3.5724    5.0625    0.0000 C   0  0  0  0  0  0  0  0  0  0  0  0
   -9.4180    5.0625    0.0000 C   0  0  0  0  0  0  0  0  0  0  0  0
   -8.1190    7.3125    0.0000 C   0  0  0  0  0  0  0  0  0  0  0  0
   -2.9228    7.3125    0.0000 C   0  0  0  0  0  0  0  0  0  0  0  0
    0.9743    8.0625    0.0000 C   0  0  0  0  0  0  0  0  0  0  0  0
   -1.0748    1.5135    0.0000 C   0  0  0  0  0  0  0  0  0  0  0  0
    0.9743    2.0625    0.0000 C   0  0  0  0  0  0  0  0  0  0  0  0
    0.4252    4.1115    0.0000 C   0  0  0  0  0  0  0  0  0  0  0  0
    2.2733    5.8125    0.0000 C   0  0  0  0  0  0  0  0  0  0  0  0
   -5.5209    5.8125    0.0000 C   0  0  0  0  0  0  0  0  0  0  0  0
    0.9743    5.0625    0.0000 C   0  0  0  0  0  0  0  0  0  0  0  0
   -6.8200    5.0625    0.0000 C   0  0  0  0  0  0  0  0  0  0  0  0
   -4.2219    5.0625    0.0000 C   0  0  0  0  0  0  0  0  0  0  0  0
   -1.6238    3.5625    0.0000 C   0  0  0  0  0  0  0  0  0  0  0  0
   -8.1190    5.8125    0.0000 C   0  0  0  0  0  0  0  0  0  0  0  0
   -2.9228    5.8125    0.0000 C   0  0  0  0  0  0  0  0  0  0  0  0
   -1.6238    5.0625    0.0000 C   0  0  0  0  0  0  0  0  0  0  0  0
   -0.3248    5.8125    0.0000 C   0  0  0  0  0  0  0  0  0  0  0  0
   -0.3248    7.3125    0.0000 O   0  0  0  0  0  0  0  0  0  0  0  0
   -0.3248    2.8125    0.0000 Si  0  0  0  0  0  4  0  0  0  0  0  0
  9  1  1  0
 11  9  1  0
 12 10  1  0
 13 10  1  0
 15  2  1  0
 15  3  1  0
 15 12  2  0
 16  4  2  0
 16 13  1  0
 17 14  1  0
 17 16  1  0
 18 11  1  0
 18 17  1  0
 19  5  1  0
 19 18  1  0
 20  6  1  0
 20  7  1  0
 20  8  1  0
 20 14  1  0
M  END
>  <NAME>  (505) 
8-METHOXY-2-METHYL-6-METHYLENE-7-(TRIMETHYLSILYL)METHYL-2-UNDECENE

>  <SYNONYMS>  (505) 


>  <SPECTRUM TYPE>  (505) 
MS1

>  <INSTRUMENT TYPE>  (505) 
EI-B

>  <INSTRUMENT>  (505) 
JEOL JMS-DX-300

>  <ION MODE>  (505) 
P

>  <INCHIKEY>  (505) 
CHILDVNDWKTFNC-UHFFFAOYSA-N

>  <FORMULA>  (505) 
C18H36OSi

>  <EXACT MASS>  (505) 
296.253542302

>  <MW>  (505) 
296

>  <ID>  (505) 
JP011393

>  <CONTRIBUTOR>  (505) 
University of Tokyo Team, {Faculty of Engineering, University of Tokyo

>  <COMMENT>  (505) 
SMILES=CCCC(OC)C(C(=C)CCC=C(C)C)C[Si](C)(C)C
InChI=InChI=1S/C18H36OSi/c1-9-11-18(19-5)17(14-20(6,7)8)16(4)13-10-12-15(2)3/h12,17-18H,4,9-11,13-14H2,1-3,5-8H3
computed SMILES=O(C)C(CCC)C(C(=C)CCC=C(C)C)C[Si](C)(C)C
accession=JP011393
date=2016.01.19 (Created 2008.10.21, modified 2011.05.06)
author=HISAHIRO HAGIWARA, INSTITUTE FOR CHEMICAL REACTION SCIENCE TOHOKU UNIV.
license=CC BY-NC-SA
exact mass=296.25354
ionization energy=70 eV
ion type=[M]+*
computed spectral entropy=2.725319097772536
computed normalized entropy=0.7159339986395726
SPLASH=splash10-000i-9100000000-1c812c5e9afa31a3ef63
submitter=submitter = University of Tokyo Team (Faculty of Engineering, University of Tokyo)
MoNA Rating=3.75

>  <NUM PEAKS>  (505) 
45

>  <MASS SPECTRAL PEAKS>  (505) 
39 1.1
41 8.1
43 1.7
45 35
46 1.1
53 1.2
55 9.9
57 5.3
59 6.6
67 3.7
71 1.6
73 53.1
74 5.5
75 3.3
77 1.2
79 1.6
81 7.4
82 1.3
86 1
87 99.99
88 7.5
89 13
90 1.2
91 1.3
93 2
95 1.2
101 1.7
105 8.2
107 1.7
109 1.5
110 2.9
123 6.5
125 1.1
135 4.5
136 1.2
141 3.6
147 3.9
149 2.2
194 2.2
195 2
221 1.1
222 1.4
227 3.5
264 2
296 1.1

$$$$

     RDKit          2D

 21 20  0  0  0  0  0  0  0  0999 V2000
  -10.3923    6.7500    0.0000 C   0  0  0  0  0  0  0  0  0  0  0  0
    3.8971    6.0000    0.0000 C   0  0  0  0  0  0  0  0  0  0  0  0
    2.5981    8.2500    0.0000 C   0  0  0  0  0  0  0  0  0  0  0  0
   -2.5981    8.2500    0.0000 C   0  0  0  0  0  0  0  0  0  0  0  0
   -6.4952    9.0000    0.0000 C   0  0  0  0  0  0  0  0  0  0  0  0
   -5.9462    5.0490    0.0000 C   0  0  0  0  0  0  0  0  0  0  0  0
   -6.4952    3.0000    0.0000 C   0  0  0  0  0  0  0  0  0  0  0  0
   -4.4462    2.4510    0.0000 C   0  0  0  0  0  0  0  0  0  0  0  0
   -9.0933    6.0000    0.0000 C   0  0  0  0  0  0  0  0  0  0  0  0
   -7.7942    6.7500    0.0000 C   0  0  0  0  0  0  0  0  0  0  0  0
    0.0000    6.7500    0.0000 C   0  0  0  0  0  0  0  0  0  0  0  0
    1.2990    6.0000    0.0000 C   0  0  0  0  0  0  0  0  0  0  0  0
   -1.2990    6.0000    0.0000 C   0  0  0  0  0  0  0  0  0  0  0  0
   -6.4952    6.0000    0.0000 C   0  0  0  0  0  0  0  0  0  0  0  0
   -3.8971    4.5000    0.0000 C   0  0  0  0  0  0  0  0  0  0  0  0
    2.5981    6.7500    0.0000 C   0  0  0  0  0  0  0  0  0  0  0  0
   -2.5981    6.7500    0.0000 C   0  0  0  0  0  0  0  0  0  0  0  0
   -3.8971    6.0000    0.0000 C   0  0  0  0  0  0  0  0  0  0  0  0
   -5.1962    6.7500    0.0000 C   0  0  0  0  0  0  0  0  0  0  0  0
   -5.1962    8.2500    0.0000 O   0  0  0  0  0  0  0  0  0  0  0  0
   -5.1962    3.7500    0.0000 Si  0  0  0  0  0  4  0  0  0  0  0  0
  9  1  1  0
 10  9  1  0
 12 11  1  0
 13 11  1  0
 14 10  1  0
 16  2  1  0
 16  3  1  0
 16 12  2  0
 17  4  2  0
 17 13  1  0
 18 15  1  0
 18 17  1  0
 19 14  1  0
 19 18  1  0
 20  5  1  0
 20 19  1  0
 21  6  1  0
 21  7  1  0
 21  8  1  0
 21 15  1  0
M  END
>  <NAME>  (506) 
8-METHOXY-2-METHYL-6-METHYLENE-7-(TRIMETHYLSILYL)METHYL-2-DODECENE

>  <SYNONYMS>  (506) 


>  <SPECTRUM TYPE>  (506) 
MS1

>  <INSTRUMENT TYPE>  (506) 
EI-B

>  <INSTRUMENT>  (506) 
JEOL JMS-DX-300

>  <ION MODE>  (506) 
P

>  <INCHIKEY>  (506) 
DHDKZORTHXTREN-UHFFFAOYSA-N

>  <FORMULA>  (506) 
C19H38OSi

>  <EXACT MASS>  (506) 
310.26919236599997

>  <MW>  (506) 
310

>  <ID>  (506) 
JP011392

>  <CONTRIBUTOR>  (506) 
University of Tokyo Team, {Faculty of Engineering, University of Tokyo

>  <COMMENT>  (506) 
SMILES=CCCCC(OC)C(C(=C)CCC=C(C)C)C[Si](C)(C)C
InChI=InChI=1S/C19H38OSi/c1-9-10-14-19(20-5)18(15-21(6,7)8)17(4)13-11-12-16(2)3/h12,18-19H,4,9-11,13-15H2,1-3,5-8H3
computed SMILES=O(C)C(CCCC)C(C(=C)CCC=C(C)C)C[Si](C)(C)C
accession=JP011392
date=2016.01.19 (Created 2008.10.21, modified 2011.05.06)
author=HISAHIRO HAGIWARA, INSTITUTE FOR CHEMICAL REACTION SCIENCE TOHOKU UNIV.
license=CC BY-NC-SA
exact mass=310.26919
ionization energy=70 eV
ion type=[M]+*
computed spectral entropy=2.8379989984347405
computed normalized entropy=0.7371143374280591
SPLASH=splash10-0uk9-9700000000-d012423d913f346b657b
submitter=submitter = University of Tokyo Team (Faculty of Engineering, University of Tokyo)
MoNA Rating=3.75

>  <NUM PEAKS>  (506) 
47

>  <MASS SPECTRAL PEAKS>  (506) 
39 1.1
41 11
43 3.7
44 1.1
45 22.8
53 1.1
55 2.5
58 1.3
59 8.5
67 2.9
69 14.5
70 3.2
71 3.6
72 1.2
73 53.1
74 5.6
75 3.6
77 1.3
79 1.7
81 6.3
82 1.1
87 1.1
89 14.4
90 1.3
91 1.7
93 2.3
95 5.8
97 1.1
101 99.99
102 9.9
103 1.2
105 8.3
107 1.8
109 1.2
115 6.4
124 2.4
135 4.4
136 1.5
137 3.8
141 4.4
194 1.4
209 2.6
210 1.4
222 1.6
241 3.3
278 2.5
310 1.2

$$$$

     RDKit          2D

 14 13  0  0  0  0  0  0  0  0999 V2000
   -8.3567    5.4743    0.0000 C   0  0  0  0  0  0  0  0  0  0  0  0
   -7.0577    3.2243    0.0000 C   0  0  0  0  0  0  0  0  0  0  0  0
   -1.8615    3.2243    0.0000 C   0  0  0  0  0  0  0  0  0  0  0  0
    2.7856    4.1752    0.0000 C   0  0  0  0  0  0  0  0  0  0  0  0
    3.3346    6.2243    0.0000 C   0  0  0  0  0  0  0  0  0  0  0  0
    1.2856    6.7733    0.0000 C   0  0  0  0  0  0  0  0  0  0  0  0
   -4.4596    4.7243    0.0000 C   0  0  0  0  0  0  0  0  0  0  0  0
   -5.7587    5.4743    0.0000 C   0  0  0  0  0  0  0  0  0  0  0  0
   -3.1606    5.4743    0.0000 C   0  0  0  0  0  0  0  0  0  0  0  0
   -0.5625    5.4743    0.0000 C   0  0  0  0  0  0  0  0  0  0  0  0
    0.7365    4.7243    0.0000 C   0  0  0  0  0  0  0  0  0  0  0  0
   -7.0577    4.7243    0.0000 C   0  0  0  0  0  0  0  0  0  0  0  0
   -1.8615    4.7243    0.0000 C   0  0  0  0  0  0  0  0  0  0  0  0
    2.0356    5.4743    0.0000 Si  0  0  0  0  0  4  0  0  0  0  0  0
  8  7  1  0
  9  7  1  0
 11 10  1  0
 12  1  1  0
 12  2  1  0
 12  8  2  0
 13  3  2  0
 13  9  1  0
 13 10  1  0
 14  4  1  0
 14  5  1  0
 14  6  1  0
 14 11  1  0
M  END
>  <NAME>  (507) 
2-METHYL-6-METHYLENE-8-TRIMETHYLSILYL-2-OCTENE

>  <SYNONYMS>  (507) 


>  <SPECTRUM TYPE>  (507) 
MS1

>  <INSTRUMENT TYPE>  (507) 
EI-B

>  <INSTRUMENT>  (507) 
JEOL JMS-DX-300

>  <ION MODE>  (507) 
P

>  <INCHIKEY>  (507) 
JAMFQSRTFAGHMG-UHFFFAOYSA-N

>  <FORMULA>  (507) 
C13H26Si

>  <EXACT MASS>  (507) 
210.180377362

>  <MW>  (507) 
210

>  <ID>  (507) 
JP011391

>  <CONTRIBUTOR>  (507) 
University of Tokyo Team, {Faculty of Engineering, University of Tokyo

>  <COMMENT>  (507) 
SMILES=CC(C)=CCCC(=C)CC[Si](C)(C)C
InChI=InChI=1S/C13H26Si/c1-12(2)8-7-9-13(3)10-11-14(4,5)6/h8H,3,7,9-11H2,1-2,4-6H3
computed SMILES=C=C(CCC=C(C)C)CC[Si](C)(C)C
accession=JP011391
date=2016.01.19 (Created 2008.10.21, modified 2011.05.06)
author=HISAHIRO HAGIWARA, INSTITUTE FOR CHEMICAL REACTION SCIENCE TOHOKU UNIV.
license=CC BY-NC-SA
exact mass=210.18038
ionization energy=70 eV
ion type=[M]+*
computed spectral entropy=2.6085517650734276
computed normalized entropy=0.6979085985324405
SPLASH=splash10-00di-9200000000-c92f675c8dd4c56022b7
submitter=submitter = University of Tokyo Team (Faculty of Engineering, University of Tokyo)
MoNA Rating=3.75

>  <NUM PEAKS>  (507) 
42

>  <MASS SPECTRAL PEAKS>  (507) 
39 2.2
41 21.2
42 1.1
43 2.6
44 1.4
45 7.7
53 2.1
55 1.5
58 1.2
59 8.3
67 2.4
68 1.3
70 2.6
71 1
72 1.8
73 99.99
74 11.6
75 5.1
77 1.2
79 1.2
83 1.4
85 2.4
93 4.1
95 1
97 1
99 1.9
101 1.8
107 1.5
108 2.5
109 6.7
111 1.5
113 1.7
121 1.6
127 2
136 7.8
137 1
139 3.1
141 7.5
142 1.2
153 1.2
167 5.4
210 4

$$$$

     RDKit          2D

 13 12  0  0  0  0  0  0  0  0999 V2000
    2.1863    4.2623    0.0000 C   0  0  0  0  0  0  0  0  0  0  0  0
   -4.3089    2.0123    0.0000 C   0  0  0  0  0  0  0  0  0  0  0  0
   -6.3579    5.5613    0.0000 C   0  0  0  0  0  0  0  0  0  0  0  0
   -6.9070    3.5123    0.0000 C   0  0  0  0  0  0  0  0  0  0  0  0
   -4.8579    2.9632    0.0000 C   0  0  0  0  0  0  0  0  0  0  0  0
    0.8873    5.0123    0.0000 C   0  0  0  0  0  0  0  0  0  0  0  0
   -3.0099    2.7623    0.0000 C   0  0  0  0  0  0  0  0  0  0  0  0
   -0.4118    4.2623    0.0000 C   0  0  0  0  0  0  0  0  0  0  0  0
   -4.3089    5.0123    0.0000 C   0  0  0  0  0  0  0  0  0  0  0  0
   -3.0099    4.2623    0.0000 C   0  0  0  0  0  0  0  0  0  0  0  0
   -1.7108    5.0123    0.0000 C   0  0  0  0  0  0  0  0  0  0  0  0
   -1.7108    6.5123    0.0000 O   0  0  0  0  0  0  0  0  0  0  0  0
   -5.6079    4.2623    0.0000 Si  0  0  0  0  0  4  0  0  0  0  0  0
  6  1  1  0
  7  2  2  0
  8  6  1  0
 10  7  1  0
 10  9  1  0
 11  8  1  0
 11 10  1  0
 12 11  2  0
 13  3  1  0
 13  4  1  0
 13  5  1  0
 13  9  1  0
M  END
>  <NAME>  (508) 
3-(TRIMETHYLSILYL)METHYL-1-HEPTEN-4-ONE

>  <SYNONYMS>  (508) 


>  <SPECTRUM TYPE>  (508) 
MS1

>  <INSTRUMENT TYPE>  (508) 
EI-B

>  <INSTRUMENT>  (508) 
JEOL JMS-DX-300

>  <ION MODE>  (508) 
P

>  <INCHIKEY>  (508) 
HZMBUJNSEJGMND-UHFFFAOYSA-N

>  <FORMULA>  (508) 
C11H22OSi

>  <EXACT MASS>  (508) 
198.14399185399998

>  <MW>  (508) 
198

>  <ID>  (508) 
JP011390

>  <CONTRIBUTOR>  (508) 
University of Tokyo Team, {Faculty of Engineering, University of Tokyo

>  <COMMENT>  (508) 
SMILES=CCCC(=O)C(C=C)C[Si](C)(C)C
InChI=InChI=1S/C11H22OSi/c1-6-8-11(12)10(7-2)9-13(3,4)5/h7,10H,2,6,8-9H2,1,3-5H3
computed SMILES=O=C(CCC)C(C=C)C[Si](C)(C)C
accession=JP011390
date=2016.01.19 (Created 2008.10.21, modified 2011.05.06)
author=HISAHIRO HAGIWARA, INSTITUTE FOR CHEMICAL REACTION SCIENCE TOHOKU UNIV.
license=CC BY-NC-SA
exact mass=198.14399
ionization energy=70 eV
ion type=[M]+*
computed spectral entropy=2.7072942150758794
computed normalized entropy=0.7243267842167607
SPLASH=splash10-00di-9300000000-4daef33fbf5c05fff09a
submitter=submitter = University of Tokyo Team (Faculty of Engineering, University of Tokyo)
MoNA Rating=3.75

>  <NUM PEAKS>  (508) 
42

>  <MASS SPECTRAL PEAKS>  (508) 
39 1.5
41 3.9
43 13.5
44 1.9
45 9.4
47 1.3
55 1.4
57 1
58 1.8
59 4.3
61 1.7
67 2.5
71 16.3
72 2.2
73 99.99
74 12.1
75 31.5
76 2.5
77 2.5
79 1.3
85 1.5
95 1
97 2.6
99 1.1
101 2.1
109 1.2
111 1.2
116 1.1
127 11.2
128 1.9
129 2.5
130 1.3
141 2.3
144 1.6
155 24
156 4.1
157 1.4
170 2.1
183 22.2
184 4
185 1.2
198 2.6

$$$$

     RDKit          2D

 14 13  0  0  0  0  0  0  0  0999 V2000
   -3.9841    1.4498    0.0000 C   0  0  0  0  0  0  0  0  0  0  0  0
    2.5111    3.6998    0.0000 C   0  0  0  0  0  0  0  0  0  0  0  0
    1.2120    5.9498    0.0000 C   0  0  0  0  0  0  0  0  0  0  0  0
   -6.0332    4.9988    0.0000 C   0  0  0  0  0  0  0  0  0  0  0  0
   -6.5822    2.9498    0.0000 C   0  0  0  0  0  0  0  0  0  0  0  0
   -4.5332    2.4007    0.0000 C   0  0  0  0  0  0  0  0  0  0  0  0
   -2.6851    2.1998    0.0000 C   0  0  0  0  0  0  0  0  0  0  0  0
   -0.0870    3.6998    0.0000 C   0  0  0  0  0  0  0  0  0  0  0  0
   -3.9841    4.4498    0.0000 C   0  0  0  0  0  0  0  0  0  0  0  0
    1.2120    4.4498    0.0000 C   0  0  0  0  0  0  0  0  0  0  0  0
   -2.6851    3.6998    0.0000 C   0  0  0  0  0  0  0  0  0  0  0  0
   -1.3861    4.4498    0.0000 C   0  0  0  0  0  0  0  0  0  0  0  0
   -1.3861    5.9498    0.0000 O   0  0  0  0  0  0  0  0  0  0  0  0
   -5.2832    3.6998    0.0000 Si  0  0  0  0  0  4  0  0  0  0  0  0
  7  1  2  0
 10  2  1  0
 10  3  1  0
 10  8  1  0
 11  7  1  0
 11  9  1  0
 12  8  1  0
 12 11  1  0
 13 12  2  0
 14  4  1  0
 14  5  1  0
 14  6  1  0
 14  9  1  0
M  END
>  <NAME>  (509) 
6-METHYL-3-(TRIMETHYLSILYL)METHYL-1-HEPTEN-4-ONE

>  <SYNONYMS>  (509) 


>  <SPECTRUM TYPE>  (509) 
MS1

>  <INSTRUMENT TYPE>  (509) 
EI-B

>  <INSTRUMENT>  (509) 
JEOL JMS-DX-300

>  <ION MODE>  (509) 
P

>  <INCHIKEY>  (509) 
XOMWHWHZCDVEAJ-UHFFFAOYSA-N

>  <FORMULA>  (509) 
C12H24OSi

>  <EXACT MASS>  (509) 
212.159641918

>  <MW>  (509) 
212

>  <ID>  (509) 
JP011389

>  <CONTRIBUTOR>  (509) 
University of Tokyo Team, {Faculty of Engineering, University of Tokyo

>  <COMMENT>  (509) 
SMILES=CC(C)CC(=O)C(C=C)C[Si](C)(C)C
InChI=InChI=1S/C12H24OSi/c1-7-11(9-14(4,5)6)12(13)8-10(2)3/h7,10-11H,1,8-9H2,2-6H3
computed SMILES=O=C(CC(C)C)C(C=C)C[Si](C)(C)C
accession=JP011389
date=2016.01.19 (Created 2008.10.21, modified 2011.05.06)
author=HISAHIRO HAGIWARA, INSTITUTE FOR CHEMICAL REACTION SCIENCE TOHOKU UNIV.
license=CC BY-NC-SA
exact mass=212.15964
ionization energy=70 eV
ion type=[M]+*
computed spectral entropy=2.7644738749165683
computed normalized entropy=0.7262198533086569
SPLASH=splash10-00di-9200000000-831b2e74ef2b0c60fe9b
submitter=submitter = University of Tokyo Team (Faculty of Engineering, University of Tokyo)
MoNA Rating=3.75

>  <NUM PEAKS>  (509) 
45

>  <MASS SPECTRAL PEAKS>  (509) 
39 2.1
41 7.9
42 1.2
43 5.1
44 1.8
45 9.2
47 1.4
53 1
55 1.5
57 24
58 2.2
59 3.7
61 1.5
67 1.6
71 1
72 1.5
73 99.99
74 10.5
75 26
76 2.1
77 1.9
79 1.6
83 3
85 20
86 1.3
95 1
97 2.4
101 1.6
107 1.3
111 1
115 1
116 1
127 8.2
128 1.4
130 1.7
141 4.7
142 1.1
155 19.4
156 3.1
157 3
170 2.2
197 18.1
198 3.3
199 1.1
212 0.5

$$$$

     RDKit          2D

 14 13  0  0  0  0  0  0  0  0999 V2000
   -8.2697    4.9755    0.0000 C   0  0  0  0  0  0  0  0  0  0  0  0
   -0.4755    1.9755    0.0000 C   0  0  0  0  0  0  0  0  0  0  0  0
    0.0736    2.9264    0.0000 C   0  0  0  0  0  0  0  0  0  0  0  0
    2.1226    3.4755    0.0000 C   0  0  0  0  0  0  0  0  0  0  0  0
    1.5736    5.5245    0.0000 C   0  0  0  0  0  0  0  0  0  0  0  0
   -6.9707    4.2255    0.0000 C   0  0  0  0  0  0  0  0  0  0  0  0
   -1.7745    2.7255    0.0000 C   0  0  0  0  0  0  0  0  0  0  0  0
   -5.6716    4.9755    0.0000 C   0  0  0  0  0  0  0  0  0  0  0  0
   -4.3726    4.2255    0.0000 C   0  0  0  0  0  0  0  0  0  0  0  0
   -0.4755    4.9755    0.0000 C   0  0  0  0  0  0  0  0  0  0  0  0
   -1.7745    4.2255    0.0000 C   0  0  0  0  0  0  0  0  0  0  0  0
   -3.0736    4.9755    0.0000 C   0  0  0  0  0  0  0  0  0  0  0  0
   -3.0736    6.4755    0.0000 O   0  0  0  0  0  0  0  0  0  0  0  0
    0.8236    4.2255    0.0000 Si  0  0  0  0  0  4  0  0  0  0  0  0
  6  1  1  0
  7  2  2  0
  8  6  1  0
  9  8  1  0
 11  7  1  0
 11 10  1  0
 12  9  1  0
 12 11  1  0
 13 12  2  0
 14  3  1  0
 14  4  1  0
 14  5  1  0
 14 10  1  0
M  END
>  <NAME>  (510) 
3-(TRIMETHYLSILYL)METHYL-1-OCTEN-4-ONE

>  <SYNONYMS>  (510) 


>  <SPECTRUM TYPE>  (510) 
MS1

>  <INSTRUMENT TYPE>  (510) 
EI-B

>  <INSTRUMENT>  (510) 
JEOL JMS-DX-300

>  <ION MODE>  (510) 
P

>  <INCHIKEY>  (510) 
XEQPALKIEVLRRQ-UHFFFAOYSA-N

>  <FORMULA>  (510) 
C12H24OSi

>  <EXACT MASS>  (510) 
212.15964191799998

>  <MW>  (510) 
212

>  <ID>  (510) 
JP011388

>  <CONTRIBUTOR>  (510) 
University of Tokyo Team, {Faculty of Engineering, University of Tokyo

>  <COMMENT>  (510) 
SMILES=CCCCC(=O)C(C=C)C[Si](C)(C)C
InChI=InChI=1S/C12H24OSi/c1-6-8-9-12(13)11(7-2)10-14(3,4)5/h7,11H,2,6,8-10H2,1,3-5H3
computed SMILES=O=C(CCCC)C(C=C)C[Si](C)(C)C
accession=JP011388
date=2016.01.19 (Created 2008.10.21, modified 2011.05.06)
author=HISAHIRO HAGIWARA, INSTITUTE FOR CHEMICAL REACTION SCIENCE TOHOKU UNIV.
license=CC BY-NC-SA
exact mass=212.15964
ionization energy=70 eV
ion type=[M]+*
computed spectral entropy=3.048992693589004
computed normalized entropy=0.7754648802867652
SPLASH=splash10-00fr-9300000000-99f1911610c06a5467c5
submitter=submitter = University of Tokyo Team (Faculty of Engineering, University of Tokyo)
MoNA Rating=3.75

>  <NUM PEAKS>  (510) 
51

>  <MASS SPECTRAL PEAKS>  (510) 
39 2.1
41 8.4
43 5.5
44 2.5
45 11.7
47 1.6
53 1.3
55 2.7
57 22.1
58 3.1
59 5.7
61 2
67 2.8
71 1.3
72 1.9
73 99.99
74 13.8
75 34.6
76 30
77 3.2
79 1.7
81 3.1
83 1.1
85 21.6
86 1.5
93 1.3
95 1.3
97 3.4
99 1.1
101 1.8
111 1.3
115 1.7
116 1.6
127 12.6
128 2.2
129 2
130 1.5
141 2.8
143 3.5
155 31.8
156 5.6
157 3.4
170 6.9
171 1.3
183 15.2
184 2.8
185 1.1
197 18.7
198 3.7
199 1.1
212 1

$$$$

     RDKit          2D

 14 13  0  0  0  0  0  0  0  0999 V2000
   -7.2954    5.5380    0.0000 C   0  0  0  0  0  0  0  0  0  0  0  0
   -0.8002    3.2880    0.0000 C   0  0  0  0  0  0  0  0  0  0  0  0
   -4.6974    2.5380    0.0000 C   0  0  0  0  0  0  0  0  0  0  0  0
    1.0478    3.4889    0.0000 C   0  0  0  0  0  0  0  0  0  0  0  0
    3.0969    4.0380    0.0000 C   0  0  0  0  0  0  0  0  0  0  0  0
    2.5478    6.0870    0.0000 C   0  0  0  0  0  0  0  0  0  0  0  0
   -5.9964    4.7880    0.0000 C   0  0  0  0  0  0  0  0  0  0  0  0
   -4.6974    5.5380    0.0000 C   0  0  0  0  0  0  0  0  0  0  0  0
   -2.0993    5.5380    0.0000 C   0  0  0  0  0  0  0  0  0  0  0  0
    0.4988    5.5380    0.0000 C   0  0  0  0  0  0  0  0  0  0  0  0
   -0.8002    4.7880    0.0000 C   0  0  0  0  0  0  0  0  0  0  0  0
   -3.3983    4.7880    0.0000 C   0  0  0  0  0  0  0  0  0  0  0  0
   -3.3983    3.2880    0.0000 O   0  0  0  0  0  0  0  0  0  0  0  0
    1.7978    4.7880    0.0000 Si  0  0  0  0  0  4  0  0  0  0  0  0
  7  1  1  0
  8  7  1  0
 11  2  2  0
 11  9  1  0
 11 10  1  0
 12  8  1  0
 12  9  1  0
 13  3  1  0
 13 12  1  0
 14  4  1  0
 14  5  1  0
 14  6  1  0
 14 10  1  0
M  END
>  <NAME>  (511) 
4-METHOXY-3-(TRIMEHYLSILYL)METHYL-1-HEPTENE

>  <SYNONYMS>  (511) 


>  <SPECTRUM TYPE>  (511) 
MS1

>  <INSTRUMENT TYPE>  (511) 
EI-B

>  <INSTRUMENT>  (511) 
JEOL JMS-DX-300

>  <ION MODE>  (511) 
P

>  <INCHIKEY>  (511) 
GFJSMWFWSLNDHO-UHFFFAOYSA-N

>  <FORMULA>  (511) 
C12H26OSi

>  <EXACT MASS>  (511) 
214.17529198199998

>  <MW>  (511) 
214

>  <ID>  (511) 
JP011387

>  <CONTRIBUTOR>  (511) 
University of Tokyo Team, {Faculty of Engineering, University of Tokyo

>  <COMMENT>  (511) 
InChI=InChI=1S/C12H26OSi/c1-7-8-12(13-3)9-11(2)10-14(4,5)6/h12H,2,7-10H2,1,3-6H3
SMILES=CCCC(OC)CC(=C)C[Si](C)(C)C
computed SMILES=O(C)C(CC(=C)C[Si](C)(C)C)CCC
accession=JP011387
date=2016.01.19 (Created 2008.10.21, modified 2011.05.06)
author=HISAHIRO HAGIWARA, INSTITUTE FOR CHEMICAL REACTION SCIENCE TOHOKU UNIV.
license=CC BY-NC-SA
exact mass=214.17529
ionization energy=70 eV
ion type=[M]+*
computed spectral entropy=2.4914648176731293
computed normalized entropy=0.6899810181086794
SPLASH=splash10-000i-9000000000-c3036d2ec7ab82f4f4a0
submitter=submitter = University of Tokyo Team (Faculty of Engineering, University of Tokyo)
MoNA Rating=3.75

>  <NUM PEAKS>  (511) 
37

>  <MASS SPECTRAL PEAKS>  (511) 
39 1.3
41 3.3
43 3.2
44 1.5
45 55.1
46 2.1
54 1.8
55 16.1
56 1
57 8.8
58 2.6
59 8.9
67 6.5
68 2.2
71 2.4
72 1.3
73 35.3
74 3.8
75 3.2
77 1.3
81 2.3
82 1.2
85 1.1
86 1.3
87 99.99
88 9.9
89 29.8
90 3.1
91 1.5
95 1.2
97 2.1
103 1
110 3.9
127 1.2
128 1.8
167 1
183 0.5

$$$$

     RDKit          2D

 15 14  0  0  0  0  0  0  0  0999 V2000
   -8.2697    4.9755    0.0000 C   0  0  0  0  0  0  0  0  0  0  0  0
   -0.4755    1.9755    0.0000 C   0  0  0  0  0  0  0  0  0  0  0  0
   -4.3726    7.2255    0.0000 C   0  0  0  0  0  0  0  0  0  0  0  0
    0.0736    2.9264    0.0000 C   0  0  0  0  0  0  0  0  0  0  0  0
    2.1226    3.4755    0.0000 C   0  0  0  0  0  0  0  0  0  0  0  0
    1.5736    5.5245    0.0000 C   0  0  0  0  0  0  0  0  0  0  0  0
   -6.9707    4.2255    0.0000 C   0  0  0  0  0  0  0  0  0  0  0  0
   -1.7745    2.7255    0.0000 C   0  0  0  0  0  0  0  0  0  0  0  0
   -5.6716    4.9755    0.0000 C   0  0  0  0  0  0  0  0  0  0  0  0
   -4.3726    4.2255    0.0000 C   0  0  0  0  0  0  0  0  0  0  0  0
   -0.4755    4.9755    0.0000 C   0  0  0  0  0  0  0  0  0  0  0  0
   -1.7745    4.2255    0.0000 C   0  0  0  0  0  0  0  0  0  0  0  0
   -3.0736    4.9755    0.0000 C   0  0  0  0  0  0  0  0  0  0  0  0
   -3.0736    6.4755    0.0000 O   0  0  0  0  0  0  0  0  0  0  0  0
    0.8236    4.2255    0.0000 Si  0  0  0  0  0  4  0  0  0  0  0  0
  7  1  1  0
  8  2  2  0
  9  7  1  0
 10  9  1  0
 12  8  1  0
 12 11  1  0
 13 10  1  0
 13 12  1  0
 14  3  1  0
 14 13  1  0
 15  4  1  0
 15  5  1  0
 15  6  1  0
 15 11  1  0
M  END
>  <NAME>  (512) 
4-METHOXY-3-(TRIMETHYLSILYL)METHYL-1-OCTENE

>  <SYNONYMS>  (512) 


>  <SPECTRUM TYPE>  (512) 
MS1

>  <INSTRUMENT TYPE>  (512) 
EI-B

>  <INSTRUMENT>  (512) 
JEOL JMS-DX-300

>  <ION MODE>  (512) 
P

>  <INCHIKEY>  (512) 
BLPVQRKCHUVWDZ-UHFFFAOYSA-N

>  <FORMULA>  (512) 
C13H28OSi

>  <EXACT MASS>  (512) 
228.19094204599998

>  <MW>  (512) 
228

>  <ID>  (512) 
JP011386

>  <CONTRIBUTOR>  (512) 
University of Tokyo Team, {Faculty of Engineering, University of Tokyo

>  <COMMENT>  (512) 
SMILES=CCCCC(OC)C(C=C)C[Si](C)(C)C
InChI=InChI=1S/C13H28OSi/c1-7-9-10-13(14-3)12(8-2)11-15(4,5)6/h8,12-13H,2,7,9-11H2,1,3-6H3
computed SMILES=O(C)C(CCCC)C(C=C)C[Si](C)(C)C
accession=JP011386
date=2016.01.19 (Created 2008.10.21, modified 2011.05.06)
author=HISAHIRO HAGIWARA, INSTITUTE FOR CHEMICAL REACTION SCIENCE TOHOKU UNIV.
license=CC BY-NC-SA
exact mass=228.19094
ionization energy=70 eV
ion type=[M]+*
computed spectral entropy=2.6496088652777536
computed normalized entropy=0.7134933206316386
SPLASH=splash10-0udi-9500000000-8732c9438cf51ace4c83
submitter=submitter = University of Tokyo Team (Faculty of Engineering, University of Tokyo)
MoNA Rating=3.75

>  <NUM PEAKS>  (512) 
41

>  <MASS SPECTRAL PEAKS>  (512) 
39 1.5
41 9.9
42 1
43 4.6
44 1.6
45 36.7
46 1.3
53 1
54 1.5
55 2.9
57 1.1
58 2.9
59 10.5
60 1
67 7.1
68 1.6
69 29.1
70 5.2
71 5.8
72 1.4
73 32.9
74 3.5
75 3
77 1.4
81 1.4
82 2.3
83 1
85 1.2
89 29.5
90 3
91 1.5
95 1.4
96 1.4
97 2.6
101 99.99
102 11.4
103 1.8
124 2.2
127 1.3
128 1.6
197 1

$$$$

     RDKit          2D

 21 20  0  0  0  0  0  0  0  0999 V2000
    3.2476    5.6250    0.0000 C   0  0  0  0  0  0  0  0  0  0  0  0
    1.9486    7.8750    0.0000 C   0  0  0  0  0  0  0  0  0  0  0  0
   -9.7428    5.6250    0.0000 C   0  0  0  0  0  0  0  0  0  0  0  0
   -8.4437    7.8750    0.0000 C   0  0  0  0  0  0  0  0  0  0  0  0
   -3.2476    7.8750    0.0000 C   0  0  0  0  0  0  0  0  0  0  0  0
   -7.1447    8.6250    0.0000 C   0  0  0  0  0  0  0  0  0  0  0  0
   -6.5957    4.6740    0.0000 C   0  0  0  0  0  0  0  0  0  0  0  0
   -7.1447    2.6250    0.0000 C   0  0  0  0  0  0  0  0  0  0  0  0
   -5.0957    2.0760    0.0000 C   0  0  0  0  0  0  0  0  0  0  0  0
   -0.6495    6.3750    0.0000 C   0  0  0  0  0  0  0  0  0  0  0  0
    0.6495    5.6250    0.0000 C   0  0  0  0  0  0  0  0  0  0  0  0
   -1.9486    5.6250    0.0000 C   0  0  0  0  0  0  0  0  0  0  0  0
   -7.1447    5.6250    0.0000 C   0  0  0  0  0  0  0  0  0  0  0  0
   -4.5466    4.1250    0.0000 C   0  0  0  0  0  0  0  0  0  0  0  0
    1.9486    6.3750    0.0000 C   0  0  0  0  0  0  0  0  0  0  0  0
   -8.4437    6.3750    0.0000 C   0  0  0  0  0  0  0  0  0  0  0  0
   -3.2476    6.3750    0.0000 C   0  0  0  0  0  0  0  0  0  0  0  0
   -4.5466    5.6250    0.0000 C   0  0  0  0  0  0  0  0  0  0  0  0
   -5.8457    6.3750    0.0000 C   0  0  0  0  0  0  0  0  0  0  0  0
   -5.8457    7.8750    0.0000 O   0  0  0  0  0  0  0  0  0  0  0  0
   -5.8457    3.3750    0.0000 Si  0  0  0  0  0  4  0  0  0  0  0  0
 11 10  1  0
 12 10  1  0
 15  1  1  0
 15  2  1  0
 15 11  2  0
 16  3  1  0
 16  4  1  0
 16 13  1  0
 17  5  2  0
 17 12  1  0
 18 14  1  0
 18 17  1  0
 19 13  1  0
 19 18  1  0
 20  6  1  0
 20 19  1  0
 21  7  1  0
 21  8  1  0
 21  9  1  0
 21 14  1  0
M  END
>  <NAME>  (513) 
8-METHOXY-2,10-DIMETHYL-6-METHYLENE-7-(TRIMETHYLSILYL)METHYL-2-UNDECENE

>  <SYNONYMS>  (513) 


>  <SPECTRUM TYPE>  (513) 
MS1

>  <INSTRUMENT TYPE>  (513) 
EI-B

>  <INSTRUMENT>  (513) 
JEOL JMS-DX-300

>  <ION MODE>  (513) 
P

>  <INCHIKEY>  (513) 
ZJJKDNJZLGKDGV-UHFFFAOYSA-N

>  <FORMULA>  (513) 
C19H38OSi

>  <EXACT MASS>  (513) 
310.26919236599997

>  <MW>  (513) 
310

>  <ID>  (513) 
JP011385

>  <CONTRIBUTOR>  (513) 
University of Tokyo Team, {Faculty of Engineering, University of Tokyo

>  <COMMENT>  (513) 
SMILES=CC(C)=CCCC(=C)C(C[Si](C)(C)C)C(OC)CC(C)C
InChI=InChI=1S/C19H38OSi/c1-15(2)11-10-12-17(5)18(14-21(7,8)9)19(20-6)13-16(3)4/h11,16,18-19H,5,10,12-14H2,1-4,6-9H3
computed SMILES=O(C)C(CC(C)C)C(C(=C)CCC=C(C)C)C[Si](C)(C)C
license=CC BY-NC-SA
accession=JP011385
date=2016.01.19 (Created 2008.10.21, modified 2011.05.06)
author=HISAHIRO HAGIWARA, INSTITUTE FOR CHEMICAL REACTION SCIENCE TOHOKU UNIV.
exact mass=310.26919
ionization energy=70 eV
ion type=[M]+*
computed spectral entropy=2.7470028625246723
computed normalized entropy=0.7926174814144263
SPLASH=splash10-0uk9-9500000000-02110dc0bff6ee42c5ed
submitter=submitter = University of Tokyo Team (Faculty of Engineering, University of Tokyo)
MoNA Rating=3.75

>  <NUM PEAKS>  (513) 
32

>  <MASS SPECTRAL PEAKS>  (513) 
41 10.5
43 10.8
45 25
55 2.8
59 22.6
67 2.5
69 31.4
70 4.5
71 11.9
73 58.5
74 6.6
75 3.9
79 2
81 9.4
85 3
89 14.5
93 2.6
95 4.6
101 99.99
102 11.7
105 8.1
107 2.2
124 2.7
135 6.1
137 3.5
141 4.3
194 2.1
209 3.9
222 4.1
241 5
278 3
310 2.3

$$$$

     RDKit          2D

 29 32  0  0  1  0  0  0  0  0999 V2000
    9.5655    7.2342    0.0000 C   0  0  0  0  0  0  0  0  0  0  0  0
    7.1046    8.0672    0.0000 C   0  0  0  0  0  0  0  0  0  0  0  0
    8.6037    4.3926    0.0000 C   0  0  0  0  0  0  0  0  0  0  0  0
    3.2009    4.6377    0.0000 C   0  0  0  0  0  0  0  0  0  0  0  0
   -1.6125    0.9400    0.0000 C   0  0  0  0  0  0  0  0  0  0  0  0
    2.4507    3.1203    0.0000 C   0  0  0  0  0  0  0  0  0  0  0  0
    6.1427    5.2256    0.0000 C   0  0  0  0  0  0  0  0  0  0  0  0
    5.6618    3.8047    0.0000 C   0  0  0  0  0  0  0  0  0  0  0  0
   -0.3200   -2.8400    0.0000 C   0  0  0  0  0  0  0  0  0  0  0  0
    1.0100   -2.0900    0.0000 C   0  0  0  0  0  0  0  0  0  0  0  0
    4.5500    0.8800    0.0000 C   0  0  0  0  0  0  0  0  0  0  0  0
    3.7100   -0.3100    0.0000 C   0  0  0  0  0  0  0  0  0  0  0  0
   -4.2000   -0.5600    0.0000 C   0  0  0  0  0  0  0  0  0  0  0  0
   -0.3200    1.6300    0.0000 C   0  0  0  0  0  0  0  0  0  0  0  0
   -2.8900    0.1600    0.0000 C   0  0  0  0  0  0  0  0  0  0  0  0
    1.0100    2.3900    0.0000 C   0  0  0  0  0  0  0  0  0  0  0  0
   -2.8900   -2.8400    0.0000 C   0  0  0  0  0  0  0  0  0  0  0  0
    8.0946    6.9403    0.0000 C   0  0  0  0  0  0  0  0  0  0  0  0
    7.6137    5.5195    0.0000 C   0  0  0  0  0  0  0  0  0  0  0  0
    4.1909    3.5108    0.0000 C   0  0  0  0  0  0  0  0  0  0  0  0
   -1.6200   -2.0900    0.0000 C   0  0  0  0  0  0  0  0  0  0  0  0
   -4.2000   -2.0900    0.0000 C   0  0  0  0  0  0  0  0  0  0  0  0
    1.0100   -0.5600    0.0000 C   0  0  0  0  0  0  0  0  0  0  0  0
    3.7100    2.0900    0.0000 C   0  0  0  0  0  0  0  0  0  0  0  0
    2.2800    0.1600    0.0000 C   0  0  0  0  0  0  0  0  0  0  0  0
   -0.3200    0.1600    0.0000 C   0  0  0  0  0  0  0  0  0  0  0  0
   -1.6200   -0.5600    0.0000 C   0  0  0  0  0  0  0  0  0  0  0  0
    2.2800    1.6300    0.0000 C   0  0  0  0  0  0  0  0  0  0  0  0
   -5.4977   -2.8424    0.0000 O   0  0  0  0  0  0  0  0  0  0  0  0
  7  8  2  0
 10  9  1  0
 12 11  1  0
 15 13  1  0
 16 14  1  0
 18  1  1  0
 18  2  1  0
 19  3  1  6
 19  7  1  0
 19 18  1  0
 20  4  1  6
 20  8  1  0
 21  9  2  0
 21 17  1  0
 22 13  1  0
 22 17  1  0
 23 10  2  0
 24 11  1  1
 24 20  1  0
 25 12  1  1
 25 23  1  0
 26 14  1  1
 26 23  1  0
 27  5  1  1
 27 15  1  0
 27 21  1  0
 27 26  1  0
 28  6  1  1
 28 16  1  0
 28 24  1  0
 28 25  1  0
 22 29  1  1
M  END
>  <NAME>  (514) 
ERGOSTEROL

>  <SYNONYMS>  (514) 
ERGOSTA-5,7,22-TRIEN-3BETA-OL

>  <SPECTRUM TYPE>  (514) 
MS1

>  <INSTRUMENT TYPE>  (514) 
EI-B

>  <INSTRUMENT>  (514) 
JEOL JMS-DX-300

>  <ION MODE>  (514) 
P

>  <INCHIKEY>  (514) 
DNVPQKQSNYMLRS-NBEWGGKZSA-N

>  <FORMULA>  (514) 
C28H44O

>  <EXACT MASS>  (514) 
396.33921602799995

>  <MW>  (514) 
396

>  <ID>  (514) 
JP011384

>  <CONTRIBUTOR>  (514) 
University of Tokyo Team, {Faculty of Engineering, University of Tokyo

>  <COMMENT>  (514) 
SMILES=C(=CC([H])(C)C(C)C)C(C(C4)([H])C(C3(C4)[H])(CCC(C=23)(C(C1)(C)C(=CC2)CC(O)C1)[H])C)([H])C
InChI=InChI=1S/C28H44O/c1-18(2)19(3)7-8-20(4)24-11-12-25-23-10-9-21-17-22(29)13-15-27(21,5)26(23)14-16-28(24,25)6/h7-10,18-20,22,24-26,29H,11-17H2,1-6H3/b8-7+/t19-,20-,22+,24-,25+,26+,27+,28-/m1/s1
computed SMILES=OC1CC2=CC=C3C(CCC4(C)C3CCC4C(C=CC(C)C(C)C)C)C2(C)CC1
accession=JP011384
date=2016.01.19 (Created 2008.10.21, modified 2011.05.06)
author=HISAHIRO HAGIWARA, INSTITUTE FOR CHEMICAL REACTION SCIENCE TOHOKU UNIV.
license=CC BY-NC-SA
exact mass=396.33922
ionization energy=70 eV
ion type=[M]+*
computed spectral entropy=3.734081964342168
computed normalized entropy=0.9497069079726349
SPLASH=splash10-0aov-9512000000-7c781aa72c0cc96a2b8a
submitter=submitter = University of Tokyo Team (Faculty of Engineering, University of Tokyo)
MoNA Rating=3.75

>  <NUM PEAKS>  (514) 
51

>  <MASS SPECTRAL PEAKS>  (514) 
41 51
43 46.4
53 10.5
55 76
57 31
67 28.7
69 99.99
71 11.8
77 10.7
79 22.3
81 49.6
82 12.2
83 29
91 24.9
93 26
95 31.3
97 14.5
105 25
107 30.5
109 28
117 10.2
119 22
121 16.1
123 12
125 13.4
129 10.9
131 15.8
133 16.2
135 13.3
143 22.8
145 22.6
147 15.8
155 10.8
157 19.5
159 19.3
161 10.2
171 12.6
175 10.1
183 10.2
197 12
211 14.6
213 13.2
251 19
253 22.8
269 13.3
271 37.1
337 16.1
363 36
364 12.3
396 48.4
397 16.7

$$$$

     RDKit          2D

 15 14  0  0  0  0  0  0  0  0999 V2000
   -3.9841    1.4498    0.0000 C   0  0  0  0  0  0  0  0  0  0  0  0
    2.5111    3.6998    0.0000 C   0  0  0  0  0  0  0  0  0  0  0  0
    1.2120    5.9498    0.0000 C   0  0  0  0  0  0  0  0  0  0  0  0
   -0.0870    6.6998    0.0000 C   0  0  0  0  0  0  0  0  0  0  0  0
   -6.0332    4.9988    0.0000 C   0  0  0  0  0  0  0  0  0  0  0  0
   -6.5822    2.9498    0.0000 C   0  0  0  0  0  0  0  0  0  0  0  0
   -4.5332    2.4007    0.0000 C   0  0  0  0  0  0  0  0  0  0  0  0
   -2.6851    2.1998    0.0000 C   0  0  0  0  0  0  0  0  0  0  0  0
   -0.0870    3.6998    0.0000 C   0  0  0  0  0  0  0  0  0  0  0  0
   -3.9841    4.4498    0.0000 C   0  0  0  0  0  0  0  0  0  0  0  0
    1.2120    4.4498    0.0000 C   0  0  0  0  0  0  0  0  0  0  0  0
   -2.6851    3.6998    0.0000 C   0  0  0  0  0  0  0  0  0  0  0  0
   -1.3861    4.4498    0.0000 C   0  0  0  0  0  0  0  0  0  0  0  0
   -1.3861    5.9498    0.0000 O   0  0  0  0  0  0  0  0  0  0  0  0
   -5.2832    3.6998    0.0000 Si  0  0  0  0  0  4  0  0  0  0  0  0
  8  1  2  0
 11  2  1  0
 11  3  1  0
 11  9  1  0
 12  8  1  0
 12 10  1  0
 13  9  1  0
 13 12  1  0
 14  4  1  0
 14 13  1  0
 15  5  1  0
 15  6  1  0
 15  7  1  0
 15 10  1  0
M  END
>  <NAME>  (515) 
4-METHOXY-6-METHYL-3-(TRIMETHYLSILYL)METHYL-1-HEPTENE

>  <SYNONYMS>  (515) 


>  <SPECTRUM TYPE>  (515) 
MS1

>  <INSTRUMENT TYPE>  (515) 
EI-B

>  <INSTRUMENT>  (515) 
JEOL JMS-DX-300

>  <ION MODE>  (515) 
P

>  <INCHIKEY>  (515) 
NQDYFUFXDDHZLI-UHFFFAOYSA-N

>  <FORMULA>  (515) 
C13H28OSi

>  <EXACT MASS>  (515) 
228.19094204599998

>  <MW>  (515) 
228

>  <ID>  (515) 
JP011383

>  <CONTRIBUTOR>  (515) 
University of Tokyo Team, {Faculty of Engineering, University of Tokyo

>  <COMMENT>  (515) 
SMILES=COC(CC(C)C)C(C=C)C[Si](C)(C)C
InChI=InChI=1S/C13H28OSi/c1-8-12(10-15(5,6)7)13(14-4)9-11(2)3/h8,11-13H,1,9-10H2,2-7H3
computed SMILES=O(C)C(CC(C)C)C(C=C)C[Si](C)(C)C
accession=JP011383
date=2016.01.19 (Created 2008.10.21, modified 2011.05.06)
author=HISAHIRO HAGIWARA, INSTITUTE FOR CHEMICAL REACTION SCIENCE TOHOKU UNIV.
license=CC BY-NC-SA
exact mass=228.19094
ionization energy=70 eV
ion type=[M]+*
computed spectral entropy=2.6761698510810947
computed normalized entropy=0.7411328409626939
SPLASH=splash10-0v4j-9200000000-c3825eecb7108ff72691
submitter=submitter = University of Tokyo Team (Faculty of Engineering, University of Tokyo)
MoNA Rating=3.75

>  <NUM PEAKS>  (515) 
37

>  <MASS SPECTRAL PEAKS>  (515) 
31 2.5
33 3
39 3.4
41 13.2
42 1.2
43 23.8
44 3.4
45 56.1
46 1.9
53 1.9
54 1.2
55 3.5
57 1.7
58 5.2
59 49.1
60 2.4
67 9.4
68 1.5
69 68.8
70 5.1
71 13.6
72 2
73 49.3
74 4.7
75 4.2
81 1.7
82 1.2
85 3.3
89 31.3
90 2.9
91 1.5
95 1.1
97 3.3
101 99.99
102 8.6
103 1.6
127 1.3

$$$$

     RDKit          2D

 18 17  0  0  0  0  0  0  0  0999 V2000
    3.4853    6.5123    0.0000 C   0  0  0  0  0  0  0  0  0  0  0  0
   -8.2060    4.2623    0.0000 C   0  0  0  0  0  0  0  0  0  0  0  0
   -6.9070    9.5123    0.0000 C   0  0  0  0  0  0  0  0  0  0  0  0
  -10.2550    7.8113    0.0000 C   0  0  0  0  0  0  0  0  0  0  0  0
  -10.8041    5.7623    0.0000 C   0  0  0  0  0  0  0  0  0  0  0  0
   -8.7550    5.2132    0.0000 C   0  0  0  0  0  0  0  0  0  0  0  0
    2.1863    7.2623    0.0000 C   0  0  0  0  0  0  0  0  0  0  0  0
   -6.9070    5.0123    0.0000 C   0  0  0  0  0  0  0  0  0  0  0  0
    0.8873    6.5123    0.0000 C   0  0  0  0  0  0  0  0  0  0  0  0
   -0.4118    7.2623    0.0000 C   0  0  0  0  0  0  0  0  0  0  0  0
   -1.7108    6.5123    0.0000 C   0  0  0  0  0  0  0  0  0  0  0  0
   -3.0099    7.2623    0.0000 C   0  0  0  0  0  0  0  0  0  0  0  0
   -4.3089    6.5123    0.0000 C   0  0  0  0  0  0  0  0  0  0  0  0
   -8.2060    7.2623    0.0000 C   0  0  0  0  0  0  0  0  0  0  0  0
   -6.9070    6.5123    0.0000 C   0  0  0  0  0  0  0  0  0  0  0  0
   -5.6079    7.2623    0.0000 C   0  0  0  0  0  0  0  0  0  0  0  0
   -5.6079    8.7623    0.0000 O   0  0  0  0  0  0  0  0  0  0  0  0
   -9.5050    6.5123    0.0000 Si  0  0  0  0  0  4  0  0  0  0  0  0
  7  1  1  0
  8  2  2  0
  9  7  1  0
 10  9  1  0
 11 10  1  0
 12 11  1  0
 13 12  1  0
 15  8  1  0
 15 14  1  0
 16 13  1  0
 16 15  1  0
 17  3  1  0
 17 16  1  0
 18  4  1  0
 18  5  1  0
 18  6  1  0
 18 14  1  0
M  END
>  <NAME>  (516) 
4-METHOXY-3-(TRIMETHYLSILYL)METHYL-1-UNDECENE

>  <SYNONYMS>  (516) 


>  <SPECTRUM TYPE>  (516) 
MS1

>  <INSTRUMENT TYPE>  (516) 
EI-B

>  <INSTRUMENT>  (516) 
JEOL JMS-DX-300

>  <ION MODE>  (516) 
P

>  <INCHIKEY>  (516) 
WHLNIXZXZWJMBT-UHFFFAOYSA-N

>  <FORMULA>  (516) 
C16H34OSi

>  <EXACT MASS>  (516) 
270.237892238

>  <MW>  (516) 
270

>  <ID>  (516) 
JP011382

>  <CONTRIBUTOR>  (516) 
University of Tokyo Team, {Faculty of Engineering, University of Tokyo

>  <COMMENT>  (516) 
SMILES=CCCCCCCC(OC)C(C=C)C[Si](C)(C)C
InChI=InChI=1S/C16H34OSi/c1-7-9-10-11-12-13-16(17-3)15(8-2)14-18(4,5)6/h8,15-16H,2,7,9-14H2,1,3-6H3
computed SMILES=O(C)C(CCCCCCC)C(C=C)C[Si](C)(C)C
accession=JP011382
date=2016.01.19 (Created 2008.10.21, modified 2011.05.06)
author=HISAHIRO HAGIWARA, INSTITUTE FOR CHEMICAL REACTION SCIENCE TOHOKU UNIV.
license=CC BY-NC-SA
exact mass=270.23789
ionization energy=70 eV
ion type=[M]+*
computed spectral entropy=2.8154207638583295
computed normalized entropy=0.7532556516194687
SPLASH=splash10-00kf-9200000000-2056a45fa243211165f6
submitter=submitter = University of Tokyo Team (Faculty of Engineering, University of Tokyo)
MoNA Rating=3.75

>  <NUM PEAKS>  (516) 
42

>  <MASS SPECTRAL PEAKS>  (516) 
31 1.3
39 2
41 14
42 1.4
43 14.4
44 2.1
45 35
46 1.2
53 1.3
54 1.8
55 31.8
56 2.1
57 7.4
58 5.6
59 12.9
60 1
67 10.3
68 2.2
69 99.99
70 7.4
71 8.5
72 2
73 49.7
74 4.7
75 3.9
81 2
82 1.6
83 5.5
85 1.5
89 33.7
90 3
91 1.6
95 1.5
96 1.1
97 2.7
103 1.1
111 28.1
112 3.1
127 1
128 1.2
143 80
144 9.4

$$$$

     RDKit          2D

 21 21  0  0  0  0  0  0  0  0999 V2000
   -7.8675   -6.6292    0.0000 C   0  0  0  0  0  0  0  0  0  0  0  0
   10.2576    0.7895    0.0000 C   0  0  0  0  0  0  0  0  0  0  0  0
    1.0227    3.6137    0.0000 C   0  0  0  0  0  0  0  0  0  0  0  0
   -6.4398   -6.1692    0.0000 C   0  0  0  0  0  0  0  0  0  0  0  0
    8.8298    1.2495    0.0000 C   0  0  0  0  0  0  0  0  0  0  0  0
    1.6322    2.2431    0.0000 C   0  0  0  0  0  0  0  0  0  0  0  0
   -6.1242   -4.7028    0.0000 C   0  0  0  0  0  0  0  0  0  0  0  0
    7.7176    0.2430    0.0000 C   0  0  0  0  0  0  0  0  0  0  0  0
   -4.6965   -4.2428    0.0000 C   0  0  0  0  0  0  0  0  0  0  0  0
    6.2899    0.7030    0.0000 C   0  0  0  0  0  0  0  0  0  0  0  0
   -4.3810   -2.7764    0.0000 C   0  0  0  0  0  0  0  0  0  0  0  0
    5.1777   -0.3035    0.0000 C   0  0  0  0  0  0  0  0  0  0  0  0
   -2.9533   -2.3164    0.0000 C   0  0  0  0  0  0  0  0  0  0  0  0
    3.7499    0.1565    0.0000 C   0  0  0  0  0  0  0  0  0  0  0  0
   -2.6377   -0.8500    0.0000 C   0  0  0  0  0  0  0  0  0  0  0  0
    2.6377   -0.8500    0.0000 C   0  0  0  0  0  0  0  0  0  0  0  0
   -0.7500    1.0300    0.0000 C   0  0  0  0  0  0  0  0  0  0  0  0
    0.7500    1.0300    0.0000 C   0  0  0  0  0  0  0  0  0  0  0  0
   -1.2100   -0.3900    0.0000 C   0  0  0  0  0  0  0  0  0  0  0  0
    1.2100   -0.3900    0.0000 C   0  0  0  0  0  0  0  0  0  0  0  0
    0.0000   -1.2800    0.0000 O   0  0  0  0  0  0  0  0  0  0  0  0
  4  1  1  0
  5  2  1  0
  6  3  2  0
  7  4  1  0
  8  5  1  0
  9  7  1  0
 10  8  1  0
 11  9  1  0
 12 10  1  0
 13 11  1  0
 14 12  1  0
 15 13  1  0
 16 14  1  0
 18  6  1  0
 18 17  1  0
 19 15  1  0
 19 17  1  0
 20 16  1  0
 20 18  1  0
 21 19  1  0
 21 20  1  0
M  END
>  <NAME>  (517) 
3-ETHENYL-2,5-DIHEPTYLTETRAHYDROFURAN

>  <SYNONYMS>  (517) 


>  <SPECTRUM TYPE>  (517) 
MS1

>  <INSTRUMENT TYPE>  (517) 
EI-B

>  <INSTRUMENT>  (517) 
JEOL JMS-DX-300

>  <ION MODE>  (517) 
P

>  <INCHIKEY>  (517) 
PJPJMIPPHVYOFO-UHFFFAOYSA-N

>  <FORMULA>  (517) 
C20H38O

>  <EXACT MASS>  (517) 
294.292265836

>  <MW>  (517) 
294

>  <ID>  (517) 
JP011381

>  <CONTRIBUTOR>  (517) 
University of Tokyo Team, {Faculty of Engineering, University of Tokyo

>  <COMMENT>  (517) 
SMILES=CCCCCCCC(C1)OC(CCCCCCC)C(C=C)1
InChI=InChI=1S/C20H38O/c1-4-7-9-11-13-15-19-17-18(6-3)20(21-19)16-14-12-10-8-5-2/h6,18-20H,3-5,7-17H2,1-2H3
computed SMILES=O1C(CCCCCCC)CC(C=C)C1CCCCCCC
accession=JP011381
date=2016.01.19 (Created 2008.10.21, modified 2011.05.06)
author=HISAHIRO HAGIWARA, INSTITUTE FOR CHEMICAL REACTION SCIENCE TOHOKU UNIV.
license=CC BY-NC-SA
exact mass=294.29227
ionization energy=70 eV
ion type=[M]+*
computed spectral entropy=3.5277475588670755
computed normalized entropy=0.8420139071318314
SPLASH=splash10-0159-9300000000-2bedd8c91d359fcbfc0a
submitter=submitter = University of Tokyo Team (Faculty of Engineering, University of Tokyo)
MoNA Rating=3.75

>  <NUM PEAKS>  (517) 
66

>  <MASS SPECTRAL PEAKS>  (517) 
39 9.6
40 1.4
41 54.7
42 9.1
43 42.9
44 3.6
45 1.2
53 10
54 89
55 61.3
56 11.8
57 37.1
58 2.2
65 3.5
66 7.7
67 63.1
68 70.5
69 53.3
70 10.1
71 5.6
73 2.6
77 3.8
78 1.1
79 17.3
80 13.5
81 62.8
82 90
83 31.6
84 5.8
85 3.5
91 2.4
93 8.5
94 4.1
95 46.4
96 99.99
97 24.3
98 3
99 1.9
107 5.3
108 1.9
109 29.7
110 33
111 10.8
112 2.1
121 6.6
122 1.4
123 11.5
124 33
125 4.6
127 7.5
135 3.8
137 11
138 69.1
139 8.5
151 6.8
152 1.1
166 69.6
167 10.5
177 7.2
178 1.1
195 27.9
196 4.2
221 1.4
293 1.7
294 1.1
295 2.4

$$$$

     RDKit          2D

 20 19  0  0  0  0  0  0  0  0999 V2000
    5.8457   10.1250    0.0000 C   0  0  0  0  0  0  0  0  0  0  0  0
    4.5466   10.8750    0.0000 C   0  0  0  0  0  0  0  0  0  0  0  0
    3.2476   10.1250    0.0000 C   0  0  0  0  0  0  0  0  0  0  0  0
    1.9486   10.8750    0.0000 C   0  0  0  0  0  0  0  0  0  0  0  0
    0.6495   10.1250    0.0000 C   0  0  0  0  0  0  0  0  0  0  0  0
   -0.6495   10.8750    0.0000 C   0  0  0  0  0  0  0  0  0  0  0  0
   -1.9486   10.1250    0.0000 C   0  0  0  0  0  0  0  0  0  0  0  0
   -3.2476   10.8750    0.0000 C   0  0  0  0  0  0  0  0  0  0  0  0
   -4.5466   10.1250    0.0000 C   0  0  0  0  0  0  0  0  0  0  0  0
   -5.8457   10.8750    0.0000 C   0  0  0  0  0  0  0  0  0  0  0  0
   -7.1447   10.1250    0.0000 C   0  0  0  0  0  0  0  0  0  0  0  0
   -8.4437   10.8750    0.0000 C   0  0  0  0  0  0  0  0  0  0  0  0
   -9.7428   10.1250    0.0000 C   0  0  0  0  0  0  0  0  0  0  0  0
  -11.0418   10.8750    0.0000 C   0  0  0  0  0  0  0  0  0  0  0  0
  -12.3409   10.1250    0.0000 C   0  0  0  0  0  0  0  0  0  0  0  0
  -13.6399   10.8750    0.0000 C   0  0  0  0  0  0  0  0  0  0  0  0
  -14.9389   10.1250    0.0000 C   0  0  0  0  0  0  0  0  0  0  0  0
  -16.2380   10.8750    0.0000 C   0  0  0  0  0  0  0  0  0  0  0  0
  -16.2380   12.3750    0.0000 O   0  0  0  0  0  0  0  0  0  0  0  0
  -17.5370   10.1250    0.0000 O   0  0  0  0  0  0  0  0  0  0  0  0
  2  1  1  0
  3  2  1  0
  4  3  1  0
  5  4  1  0
  6  5  1  0
  7  6  1  0
  8  7  1  0
  9  8  1  0
 10  9  1  0
 11 10  1  0
 12 11  1  0
 13 12  1  0
 14 13  1  0
 15 14  1  0
 16 15  1  0
 17 16  1  0
 18 17  1  0
 19 18  2  0
 20 18  1  0
M  END
>  <NAME>  (518) 
STEARIC ACID

>  <SYNONYMS>  (518) 


>  <SPECTRUM TYPE>  (518) 
MS1

>  <INSTRUMENT TYPE>  (518) 
EI-B

>  <INSTRUMENT>  (518) 
JEOL JMS-DX-300

>  <ION MODE>  (518) 
P

>  <INCHIKEY>  (518) 
QIQXTHQIDYTFRH-UHFFFAOYSA-N

>  <FORMULA>  (518) 
C18H36O2

>  <EXACT MASS>  (518) 
284.271530392

>  <MW>  (518) 
284

>  <ID>  (518) 
JP011379

>  <CONTRIBUTOR>  (518) 
University of Tokyo Team, {Faculty of Engineering, University of Tokyo

>  <COMMENT>  (518) 
SMILES=CCCCCCCCCCCCCCCCCC(O)=O
InChI=InChI=1S/C18H36O2/c1-2-3-4-5-6-7-8-9-10-11-12-13-14-15-16-17-18(19)20/h2-17H2,1H3,(H,19,20)
computed SMILES=O=C(O)CCCCCCCCCCCCCCCCC
accession=JP011379
date=2016.01.19 (Created 2008.10.21, modified 2011.05.06)
author=HISAHIRO HAGIWARA, INSTITUTE FOR CHEMICAL REACTION SCIENCE TOHOKU UNIV.
license=CC BY-NC-SA
exact mass=284.27153
ionization energy=70 eV
ion type=[M]+*
computed spectral entropy=3.5612742847362204
computed normalized entropy=0.8770654520913902
SPLASH=splash10-075c-9220000000-207b53a511763954eb66
submitter=submitter = University of Tokyo Team (Faculty of Engineering, University of Tokyo)
MoNA Rating=3.75

>  <NUM PEAKS>  (518) 
58

>  <MASS SPECTRAL PEAKS>  (518) 
39 4.6
41 39.8
42 9.1
43 57.9
45 3.9
54 3.8
55 41.7
56 12.3
57 54.4
59 4
60 52.5
61 18.9
67 5.9
68 5.1
69 28.4
70 9.3
71 34.9
73 65.9
74 7.2
81 5.2
82 5.5
83 22.8
84 10.5
85 25.2
87 16.7
95 3.8
96 5.2
97 20
98 12.7
99 9.2
101 7.4
111 10.7
112 4.7
113 6
115 12.3
116 7.9
125 5.9
127 4.3
129 41.2
130 5.6
139 3.2
141 3.5
143 8.3
157 4.2
171 9.5
185 23.4
186 3.7
199 8.1
213 3.6
224 3
227 6.2
241 22.7
242 4
255 3.8
256 3.3
284 99.99
285 24.9
286 3.2

$$$$

     RDKit          2D

 19 20  0  0  1  0  0  0  0  0999 V2000
    4.8079    0.1966    0.0000 C   0  0  0  0  0  0  0  0  0  0  0  0
   -5.5879   -6.7498    0.0000 C   0  0  0  0  0  0  0  0  0  0  0  0
   -4.2898   -7.5032    0.0000 C   0  0  0  0  0  0  0  0  0  0  0  0
   -5.5854   -5.2490    0.0000 C   0  0  0  0  0  0  0  0  0  0  0  0
   -1.1300    1.5500    0.0000 C   0  0  0  0  0  0  0  0  0  0  0  0
   -2.9893   -6.7557    0.0000 C   0  0  0  0  0  0  0  0  0  0  0  0
   -4.2849   -4.5015    0.0000 C   0  0  0  0  0  0  0  0  0  0  0  0
    0.3700    1.5500    0.0000 C   0  0  0  0  0  0  0  0  0  0  0  0
   -1.5900    0.1200    0.0000 C   0  0  0  0  0  0  0  0  0  0  0  0
   -1.6864   -4.5075    0.0000 C   0  0  0  0  0  0  0  0  0  0  0  0
   -2.9869   -5.2549    0.0000 C   0  0  0  0  0  0  0  0  0  0  0  0
    0.8400    0.1200    0.0000 C   0  0  0  0  0  0  0  0  0  0  0  0
    2.2666   -0.3436    0.0000 C   0  0  0  0  0  0  0  0  0  0  0  0
   -0.3829   -2.2600    0.0000 C   0  0  0  0  0  0  0  0  0  0  0  0
   -0.3800   -0.7600    0.0000 N   0  0  0  0  0  0  0  0  0  0  0  0
    2.5784   -1.8108    0.0000 O   0  0  0  0  0  0  0  0  0  0  0  0
    0.9146   -3.0125    0.0000 O   0  0  0  0  0  0  0  0  0  0  0  0
    3.3813    0.6601    0.0000 O   0  0  0  0  0  0  0  0  0  0  0  0
   -1.6834   -3.0075    0.0000 O   0  0  0  0  0  0  0  0  0  0  0  0
  3  2  2  0
  4  2  1  0
  6  3  1  0
  7  4  2  0
  8  5  1  0
  9  5  1  0
 11  6  2  0
 11  7  1  0
 11 10  1  0
 12  8  1  0
 12 13  1  1
 15  9  1  0
 15 12  1  0
 15 14  1  0
 16 13  2  0
 17 14  2  0
 18  1  1  0
 18 13  1  0
 19 10  1  0
 19 14  1  0
M  END
>  <NAME>  (519) 
N-(BENZYLOXYCARBONYL)-(S)-PROLINE METHYL ESTER

>  <SYNONYMS>  (519) 


>  <SPECTRUM TYPE>  (519) 
MS1

>  <INSTRUMENT TYPE>  (519) 
EI-B

>  <INSTRUMENT>  (519) 
JEOL JMS-DX-300

>  <ION MODE>  (519) 
P

>  <INCHIKEY>  (519) 
BLQYEDXWEDWCNJ-LBPRGKRZSA-N

>  <FORMULA>  (519) 
C14H17NO4

>  <EXACT MASS>  (519) 
263.115758024

>  <MW>  (519) 
263

>  <ID>  (519) 
JP011378

>  <CONTRIBUTOR>  (519) 
University of Tokyo Team, {Faculty of Engineering, University of Tokyo

>  <COMMENT>  (519) 
SMILES=COC(=O)C(C2)N(CC2)C(=O)OCc(c1)cccc1
InChI=InChI=1S/C14H17NO4/c1-18-13(16)12-8-5-9-15(12)14(17)19-10-11-6-3-2-4-7-11/h2-4,6-7,12H,5,8-10H2,1H3/t12-/m0/s1
computed SMILES=O=C(OCC=1C=CC=CC1)N2CCCC2C(=O)OC
accession=JP011378
date=2016.01.19 (Created 2008.10.21, modified 2011.05.06)
author=HISAHIRO HAGIWARA, INSTITUTE FOR CHEMICAL REACTION SCIENCE TOHOKU UNIV.
license=CC BY-NC-SA
exact mass=263.11576
ionization energy=70 eV
ion type=[M]+*
computed spectral entropy=2.1253520735526568
computed normalized entropy=0.6778363878827457
SPLASH=splash10-0006-9220000000-f4fd10656d1b0b98c1f4
submitter=submitter = University of Tokyo Team (Faculty of Engineering, University of Tokyo)
MoNA Rating=3.75

>  <NUM PEAKS>  (519) 
23

>  <MASS SPECTRAL PEAKS>  (519) 
39 3.6
41 4.8
42 3
51 1.9
59 1.8
63 1.6
65 9.4
68 2
69 1.9
70 2.8
77 1.6
89 2.4
90 1.7
91 99.99
92 10.7
102 2.8
128 4.8
160 30.7
161 4.5
204 27.6
205 4.4
263 5.5
264 1.1

$$$$

     RDKit          2D

 18 19  0  0  1  0  0  0  0  0999 V2000
    4.4067   -4.9738    0.0000 C   0  0  0  0  0  0  0  0  0  0  0  0
    4.4101   -3.4729    0.0000 C   0  0  0  0  0  0  0  0  0  0  0  0
    3.1057   -5.7220    0.0000 C   0  0  0  0  0  0  0  0  0  0  0  0
   -5.0101   -5.2630    0.0000 C   0  0  0  0  0  0  0  0  0  0  0  0
    3.1126   -2.7204    0.0000 C   0  0  0  0  0  0  0  0  0  0  0  0
    1.8082   -4.9695    0.0000 C   0  0  0  0  0  0  0  0  0  0  0  0
   -5.7601   -3.9640    0.0000 C   0  0  0  0  0  0  0  0  0  0  0  0
   -3.5417   -4.9464    0.0000 C   0  0  0  0  0  0  0  0  0  0  0  0
    0.5140   -2.7161    0.0000 C   0  0  0  0  0  0  0  0  0  0  0  0
    1.8116   -3.4687    0.0000 C   0  0  0  0  0  0  0  0  0  0  0  0
   -4.7567   -2.8420    0.0000 C   0  0  0  0  0  0  0  0  0  0  0  0
   -5.0685   -1.3747    0.0000 C   0  0  0  0  0  0  0  0  0  0  0  0
   -2.0841   -2.7111    0.0000 C   0  0  0  0  0  0  0  0  0  0  0  0
   -3.3846   -3.4585    0.0000 N   0  0  0  0  0  0  0  0  0  0  0  0
   -3.9538   -0.3711    0.0000 O   0  0  0  0  0  0  0  0  0  0  0  0
   -6.4951   -0.9112    0.0000 O   0  0  0  0  0  0  0  0  0  0  0  0
   -2.0811   -1.2111    0.0000 O   0  0  0  0  0  0  0  0  0  0  0  0
   -0.7865   -3.4636    0.0000 O   0  0  0  0  0  0  0  0  0  0  0  0
  2  1  2  0
  3  1  1  0
  5  2  1  0
  6  3  2  0
  7  4  1  0
  8  4  1  0
 10  5  2  0
 10  6  1  0
 10  9  1  0
 11  7  1  0
 11 12  1  1
 14  8  1  0
 14 11  1  0
 14 13  1  0
 15 12  2  0
 16 12  1  0
 17 13  2  0
 18  9  1  0
 18 13  1  0
M  END
>  <NAME>  (520) 
N-(BENZYLOXYCARBONYL)-(S)-PROLINE

>  <SYNONYMS>  (520) 


>  <SPECTRUM TYPE>  (520) 
MS1

>  <INSTRUMENT TYPE>  (520) 
EI-B

>  <INSTRUMENT>  (520) 
JEOL JMS-DX-300

>  <ION MODE>  (520) 
P

>  <INCHIKEY>  (520) 
JXGVXCZADZNAMJ-NSHDSACASA-N

>  <FORMULA>  (520) 
C13H15NO4

>  <EXACT MASS>  (520) 
249.10010795999997

>  <MW>  (520) 
249

>  <ID>  (520) 
JP011377

>  <CONTRIBUTOR>  (520) 
University of Tokyo Team, {Faculty of Engineering, University of Tokyo

>  <COMMENT>  (520) 
SMILES=OC(=O)C(C2)N(CC2)C(=O)OCc(c1)cccc1
InChI=InChI=1S/C13H15NO4/c15-12(16)11-7-4-8-14(11)13(17)18-9-10-5-2-1-3-6-10/h1-3,5-6,11H,4,7-9H2,(H,15,16)/t11-/m0/s1
computed SMILES=O=C(O)C1N(C(=O)OCC=2C=CC=CC2)CCC1
accession=JP011377
date=2016.01.19 (Created 2008.10.21, modified 2011.05.06)
author=HISAHIRO HAGIWARA, INSTITUTE FOR CHEMICAL REACTION SCIENCE TOHOKU UNIV.
license=CC BY-NC-SA
exact mass=249.10011
ionization energy=70 eV
ion type=[M]+*
computed spectral entropy=2.4094051252281217
computed normalized entropy=0.7155311700777416
SPLASH=splash10-01ox-9410000000-dafb05c1e2403151bfdb
submitter=submitter = University of Tokyo Team (Faculty of Engineering, University of Tokyo)
MoNA Rating=3.75

>  <NUM PEAKS>  (520) 
29

>  <MASS SPECTRAL PEAKS>  (520) 
39 4.8
41 6.1
42 2.2
43 2.2
44 1.3
45 1
51 2.6
63 2
65 11.4
68 2.4
69 2.1
70 11.9
77 2.3
79 1.5
89 3
90 2
91 99.99
92 10.7
102 2.2
107 2.1
108 7
114 38.8
115 3.1
160 24.3
161 3.4
204 12.6
205 1.9
249 5.2
250 1.1

$$$$

     RDKit          2D

 30 21  0  0  0  0  0  0  0  0999 V2000
   -2.5981    2.2500    0.0000 C   0  0  0  0  0  3  0  0  0  0  0  0
    1.2990    1.5000    0.0000 C   0  0  0  0  0  0  0  0  0  0  0  0
   -1.2990    1.5000    0.0000 C   0  0  0  0  0  0  0  0  0  0  0  0
    0.0000    2.2500    0.0000 C   0  0  0  0  0  0  0  0  0  0  0  0
   -2.5981    2.2500    0.0000 C   0  0  0  0  0  3  0  0  0  0  0  0
    1.2990    1.5000    0.0000 C   0  0  0  0  0  0  0  0  0  0  0  0
   -1.2990    1.5000    0.0000 C   0  0  0  0  0  0  0  0  0  0  0  0
    0.0000    2.2500    0.0000 C   0  0  0  0  0  0  0  0  0  0  0  0
   -2.5981    2.2500    0.0000 C   0  0  0  0  0  3  0  0  0  0  0  0
    1.2990    1.5000    0.0000 C   0  0  0  0  0  0  0  0  0  0  0  0
   -1.2990    1.5000    0.0000 C   0  0  0  0  0  0  0  0  0  0  0  0
    0.0000    2.2500    0.0000 C   0  0  0  0  0  0  0  0  0  0  0  0
   -2.5981    2.2500    0.0000 C   0  0  0  0  0  3  0  0  0  0  0  0
    1.2990    1.5000    0.0000 C   0  0  0  0  0  0  0  0  0  0  0  0
   -1.2990    1.5000    0.0000 C   0  0  0  0  0  0  0  0  0  0  0  0
    0.0000    2.2500    0.0000 C   0  0  0  0  0  0  0  0  0  0  0  0
   -2.5981    2.2500    0.0000 C   0  0  0  0  0  3  0  0  0  0  0  0
    1.2990    1.5000    0.0000 C   0  0  0  0  0  0  0  0  0  0  0  0
   -1.2990    1.5000    0.0000 C   0  0  0  0  0  0  0  0  0  0  0  0
    0.0000    2.2500    0.0000 C   0  0  0  0  0  0  0  0  0  0  0  0
   -2.5981    2.2500    0.0000 C   0  0  0  0  0  3  0  0  0  0  0  0
    1.2990    1.5000    0.0000 C   0  0  0  0  0  0  0  0  0  0  0  0
   -1.2990    1.5000    0.0000 C   0  0  0  0  0  0  0  0  0  0  0  0
    0.0000    2.2500    0.0000 C   0  0  0  0  0  0  0  0  0  0  0  0
   -2.5981    2.2500    0.0000 C   0  0  0  0  0  0  0  0  0  0  0  0
    1.2990    1.5000    0.0000 C   0  0  0  0  0  0  0  0  0  0  0  0
   -1.2990    1.5000    0.0000 C   0  0  0  0  0  0  0  0  0  0  0  0
    0.0000    2.2500    0.0000 C   0  0  0  0  0  0  0  0  0  0  0  0
    0.0000    0.0000    0.0000 Sn  0  0  0  0  0 15  0  0  0  0  0  0
    0.0000    0.0000    0.0000 Sn  0  0  0  0  0 15  0  0  0  0  0  0
  3  1  1  0
  4  2  1  0
  4  3  1  0
  7  5  1  0
  8  6  1  0
  8  7  1  0
 11  9  1  0
 12 10  1  0
 12 11  1  0
 15 13  1  0
 16 14  1  0
 16 15  1  0
 19 17  1  0
 20 18  1  0
 20 19  1  0
 23 21  1  0
 24 22  1  0
 24 23  1  0
 27 25  1  0
 28 26  1  0
 27 28  2  0
M  CHG  2  25  -1  26   1
M  RAD  6   1   2   5   2   9   2  13   2  17   2  21   2
M  END
>  <NAME>  (521) 
1,4-BIS(TRIBUTYLSTANNYL)-2-BUTENYLENE

>  <SYNONYMS>  (521) 


>  <SPECTRUM TYPE>  (521) 
MS1

>  <INSTRUMENT TYPE>  (521) 
EI-B

>  <INSTRUMENT>  (521) 
JEOL JMS-DX-300

>  <ION MODE>  (521) 
P

>  <INCHIKEY>  (521) 
VDQCIJNLWBPEDB-NGJXEQNTSA-N

>  <FORMULA>  (521) 
C28H60Sn2

>  <EXACT MASS>  (521) 
636.27389132

>  <MW>  (521) 
636

>  <ID>  (521) 
JP011376

>  <CONTRIBUTOR>  (521) 
University of Tokyo Team, {Faculty of Engineering, University of Tokyo

>  <COMMENT>  (521) 
SMILES=C(C=CC[Sn](CCCC)(CCCC)CCCC)[Sn](CCCC)(CCCC)CCCC
InChI=InChI=1S/6C4H9.C4H6.2Sn/c7*1-3-4-2;;/h6*1,3-4H2,2H3;3-4H,1-2H2;;/b;;;;;;4-3+;;
computed SMILES=[Sn].[Sn].[CH2]CCC.[CH2]CCC.[CH2]CCC.[CH2]CCC.[CH2]CCC.[CH2]CCC.[CH2+]C=C[CH2-]
accession=JP011376
date=2016.01.19 (Created 2008.10.21, modified 2011.05.06)
author=HISAHIRO HAGIWARA, INSTITUTE FOR CHEMICAL REACTION SCIENCE TOHOKU UNIV.
license=CC BY-NC-SA
exact mass=636.2739
ionization energy=70 eV
ion type=[M]+*
computed spectral entropy=3.519638574213876
computed normalized entropy=0.840078429114548
SPLASH=splash10-000l-0390000000-ba689be25cc3451729d9
submitter=submitter = University of Tokyo Team (Faculty of Engineering, University of Tokyo)
MoNA Rating=3.75

>  <NUM PEAKS>  (521) 
66

>  <MASS SPECTRAL PEAKS>  (521) 
39 3.4
41 6.7
54 2.1
56 2.1
57 2.3
117 6.9
118 5.9
120 8
121 17.1
122 2.5
123 8.9
125 3.3
171 2.8
173 8
174 5
175 32.7
176 17.8
177 18.4
178 16.7
179 50.2
180 2.8
181 2.3
183 9.7
227 2.5
229 2.5
230 4.8
231 22.8
232 20.4
233 42.6
234 25.2
235 52.9
236 6.3
237 9.1
238 2.6
239 10.9
283 4.4
285 3.7
286 2.7
287 49.3
288 33.4
289 78.4
290 39.7
291 99.99
292 16
293 16.2
295 20.6
347 2
353 2.5
355 2.2
357 2
409 3.3
411 3.6
413 2.9
465 3.3
466 2.8
467 3.7
469 3
519 2.2
520 2.5
521 4.4
522 4.2
523 5.1
524 3.9
525 4
634 3.1
636 2.4

$$$$

     RDKit          2D

 12  3  0  0  0  0  0  0  0  0999 V2000
   -2.5981    2.2500    0.0000 C   0  0  0  0  0  0  0  0  0  0  0  0
    1.2990    1.5000    0.0000 C   0  0  0  0  0  0  0  0  0  0  0  0
   -1.2990    1.5000    0.0000 C   0  0  0  0  0  0  0  0  0  0  0  0
    0.0000    2.2500    0.0000 C   0  0  0  0  0  0  0  0  0  0  0  0
    0.0000    0.0000    0.0000 C   0  0  0  0  0  3  0  0  0  0  0  0
    0.0000    0.0000    0.0000 C   0  0  0  0  0  3  0  0  0  0  0  0
    0.0000    0.0000    0.0000 C   0  0  0  0  0  3  0  0  0  0  0  0
    0.0000    0.0000    0.0000 C   0  0  0  0  0  3  0  0  0  0  0  0
    0.0000    0.0000    0.0000 C   0  0  0  0  0  3  0  0  0  0  0  0
    0.0000    0.0000    0.0000 C   0  0  0  0  0  3  0  0  0  0  0  0
    0.0000    0.0000    0.0000 Sn  0  0  0  0  0 15  0  0  0  0  0  0
    0.0000    0.0000    0.0000 Sn  0  0  0  0  0 15  0  0  0  0  0  0
  3  1  1  0
  4  2  1  0
  3  4  2  0
M  CHG  2   1  -1   2   1
M  RAD  6   5   2   6   2   7   2   8   2   9   2  10   2
M  END
>  <NAME>  (522) 
1,4-BIS(TRIMETHYLSTANNYL)-2-BUTENYLENE

>  <SYNONYMS>  (522) 


>  <SPECTRUM TYPE>  (522) 
MS1

>  <INSTRUMENT TYPE>  (522) 
EI-B

>  <INSTRUMENT>  (522) 
JEOL JMS-DX-300

>  <ION MODE>  (522) 
P

>  <INCHIKEY>  (522) 
CFJUYISNWQKCKP-FSEHQYEXSA-N

>  <FORMULA>  (522) 
C10H24Sn2

>  <EXACT MASS>  (522) 
383.992190168

>  <MW>  (522) 
384

>  <ID>  (522) 
JP011375

>  <CONTRIBUTOR>  (522) 
University of Tokyo Team, {Faculty of Engineering, University of Tokyo

>  <COMMENT>  (522) 
SMILES=C[Sn](C)(C)CC=CC[Sn](C)(C)C
InChI=InChI=1S/C4H6.6CH3.2Sn/c1-3-4-2;;;;;;;;/h3-4H,1-2H2;6*1H3;;/b4-3+;;;;;;;;
computed SMILES=[Sn].[Sn].[CH3].[CH3].[CH3].[CH3].[CH3].[CH3].[CH2+]C=C[CH2-]
accession=JP011375
date=2016.01.19 (Created 2008.10.21, modified 2011.05.06)
author=HISAHIRO HAGIWARA, INSTITUTE FOR CHEMICAL REACTION SCIENCE TOHOKU UNIV.
license=CC BY-NC-SA
exact mass=383.99219
ionization energy=70 eV
ion type=[M]+*
computed spectral entropy=3.272097244819754
computed normalized entropy=0.8165273745836371
SPLASH=splash10-03xr-0901000000-a29ad20dd006be018bc1
submitter=submitter = University of Tokyo Team (Faculty of Engineering, University of Tokyo)
MoNA Rating=3.75

>  <NUM PEAKS>  (522) 
55

>  <MASS SPECTRAL PEAKS>  (522) 
40 4.9
44 4
107 5
131 9.1
132 5.3
133 14.4
134 5.4
135 20.1
137 3.3
139 4
146 4.6
147 3.1
148 7.6
149 3.5
150 10
154 2.1
157 3.8
159 2.8
161 48.5
162 28.5
163 76.7
164 32.6
165 99.99
166 4.2
167 16.9
169 21.4
185 4.5
186 2.4
187 6.7
188 2.8
189 8.9
215 5.7
216 3.5
217 9.4
218 4
219 12.3
223 2.3
309 2.8
310 2.3
311 5.7
312 3.4
313 6.2
314 2.6
315 5
317 2.1
326 3
328 3.1
330 2.4
378 2.4
379 2.1
380 4.9
381 3.1
382 5.3
383 2.5
384 4.3

$$$$

     RDKit          2D

 13 12  0  0  0  0  0  0  0  0999 V2000
    4.9486    2.4240    0.0000 C   0  0  0  0  0  0  0  0  0  0  0  0
    1.8014   -1.1250    0.0000 C   0  0  0  0  0  0  0  0  0  0  0  0
    0.3014    1.4731    0.0000 C   0  0  0  0  0  0  0  0  0  0  0  0
   -0.2476   -0.5760    0.0000 C   0  0  0  0  0  0  0  0  0  0  0  0
    5.6986    4.1250    0.0000 C   0  0  0  0  0  0  0  0  0  0  0  0
    6.2476    6.1740    0.0000 C   0  0  0  0  0  0  0  0  0  0  0  0
    4.1986    6.7231    0.0000 C   0  0  0  0  0  0  0  0  0  0  0  0
    2.3505    2.4240    0.0000 C   0  0  0  0  0  0  0  0  0  0  0  0
    2.3505    0.9240    0.0000 C   0  0  0  0  0  0  0  0  0  0  0  0
    3.6495    4.6740    0.0000 C   0  0  0  0  0  0  0  0  0  0  0  0
    3.6495    3.1740    0.0000 C   0  0  0  0  0  0  0  0  0  0  0  0
    1.0514    0.1740    0.0000 Si  0  0  0  0  0  4  0  0  0  0  0  0
    4.9486    5.4240    0.0000 Si  0  0  0  0  0  4  0  0  0  0  0  0
  9  8  1  0
 11  1  1  0
  8 11  2  0
 11 10  1  0
 12  2  1  0
 12  3  1  0
 12  4  1  0
 12  9  1  0
 13  5  1  0
 13  6  1  0
 13  7  1  0
 13 10  1  0
M  END
>  <NAME>  (523) 
2-METHYL-1,4-BIS(TRIMETHYLSILYL)-2-BUTENE

>  <SYNONYMS>  (523) 


>  <SPECTRUM TYPE>  (523) 
MS1

>  <INSTRUMENT TYPE>  (523) 
EI-B

>  <INSTRUMENT>  (523) 
JEOL JMS-DX-300

>  <ION MODE>  (523) 
P

>  <INCHIKEY>  (523) 
VSXNVFHRYDHBRC-DHZHZOJOSA-N

>  <FORMULA>  (523) 
C11H26Si2

>  <EXACT MASS>  (523) 
214.15730389200002

>  <MW>  (523) 
214

>  <ID>  (523) 
JP011374

>  <CONTRIBUTOR>  (523) 
University of Tokyo Team, {Faculty of Engineering, University of Tokyo

>  <COMMENT>  (523) 
SMILES=CC(=CC[Si](C)(C)C)C[Si](C)(C)C
InChI=InChI=1S/C11H26Si2/c1-11(10-13(5,6)7)8-9-12(2,3)4/h8H,9-10H2,1-7H3/b11-8+
computed SMILES=C(=C(C)C[Si](C)(C)C)C[Si](C)(C)C
accession=JP011374
date=2016.01.19 (Created 2008.10.21, modified 2011.05.06)
author=HISAHIRO HAGIWARA, INSTITUTE FOR CHEMICAL REACTION SCIENCE TOHOKU UNIV.
license=CC BY-NC-SA
exact mass=214.1573
ionization energy=70 eV
ion type=[M]+*
computed spectral entropy=2.037352845001971
computed normalized entropy=0.6591151288745497
SPLASH=splash10-00di-9300000000-b6ea2bb533dd6c777de9
submitter=submitter = University of Tokyo Team (Faculty of Engineering, University of Tokyo)
MoNA Rating=3.75

>  <NUM PEAKS>  (523) 
22

>  <MASS SPECTRAL PEAKS>  (523) 
43 3.9
44 2.2
45 13.1
58 1.5
59 4.8
72 1.7
73 99.99
74 11
75 4.9
83 1.2
85 1.1
109 1.1
111 27.7
112 3.7
113 1.4
125 1.8
126 18
127 2.5
141 1.6
214 10.1
215 2.3
216 1

$$$$

     RDKit          2D

 13  4  0  0  0  0  0  0  0  0999 V2000
    0.0000    0.0000    0.0000 C   0  0  0  0  0  0  0  0  0  0  0  0
   -1.2990    3.7500    0.0000 C   0  0  0  0  0  0  0  0  0  0  0  0
   -2.5981    1.5000    0.0000 C   0  0  0  0  0  0  0  0  0  0  0  0
    0.0000    1.5000    0.0000 C   0  0  0  0  0  0  0  0  0  0  0  0
   -1.2990    2.2500    0.0000 C   0  0  0  0  0  0  0  0  0  0  0  0
    0.0000    0.0000    0.0000 C   0  0  0  0  0  3  0  0  0  0  0  0
    0.0000    0.0000    0.0000 C   0  0  0  0  0  3  0  0  0  0  0  0
    0.0000    0.0000    0.0000 C   0  0  0  0  0  3  0  0  0  0  0  0
    0.0000    0.0000    0.0000 C   0  0  0  0  0  3  0  0  0  0  0  0
    0.0000    0.0000    0.0000 C   0  0  0  0  0  3  0  0  0  0  0  0
    0.0000    0.0000    0.0000 C   0  0  0  0  0  3  0  0  0  0  0  0
    0.0000    0.0000    0.0000 Sn  0  0  0  0  0 15  0  0  0  0  0  0
    0.0000    0.0000    0.0000 Sn  0  0  0  0  0 15  0  0  0  0  0  0
  4  1  1  0
  5  2  1  0
  5  3  1  0
  4  5  2  0
M  CHG  2   1  -1   2   1
M  RAD  6   6   2   7   2   8   2   9   2  10   2  11   2
M  END
>  <NAME>  (524) 
2-METHYL-1,4-BIS(TRIMETHYLSTANNYL)-2-BUTENE

>  <SYNONYMS>  (524) 


>  <SPECTRUM TYPE>  (524) 
MS1

>  <INSTRUMENT TYPE>  (524) 
EI-B

>  <INSTRUMENT>  (524) 
JEOL JMS-DX-300

>  <ION MODE>  (524) 
P

>  <INCHIKEY>  (524) 
JUVFDQMUBKKZOB-XPOPMFIKSA-N

>  <FORMULA>  (524) 
C11H26Sn2

>  <EXACT MASS>  (524) 
398.007840232

>  <MW>  (524) 
398

>  <ID>  (524) 
JP011373

>  <CONTRIBUTOR>  (524) 
University of Tokyo Team, {Faculty of Engineering, University of Tokyo

>  <COMMENT>  (524) 
SMILES=CC(=CC[Sn](C)(C)C)C[Sn](C)(C)C
InChI=InChI=1S/C5H8.6CH3.2Sn/c1-4-5(2)3;;;;;;;;/h4H,1-2H2,3H3;6*1H3;;/b5-4-;;;;;;;;
computed SMILES=[Sn].[Sn].[CH3].[CH3].[CH3].[CH3].[CH3].[CH3].[CH2+]C(=C[CH2-])C
accession=JP011373
date=2016.01.19 (Created 2008.10.21, modified 2011.05.06)
author=HISAHIRO HAGIWARA, INSTITUTE FOR CHEMICAL REACTION SCIENCE TOHOKU UNIV.
license=CC BY-NC-SA
exact mass=398.00784
ionization energy=70 eV
ion type=[M]+*
computed spectral entropy=3.58056736231952
computed normalized entropy=0.78809928343028
SPLASH=splash10-03xr-0910000000-e6d2f211cb739f939776
submitter=submitter = University of Tokyo Team (Faculty of Engineering, University of Tokyo)
MoNA Rating=3.75

>  <NUM PEAKS>  (524) 
94

>  <MASS SPECTRAL PEAKS>  (524) 
39 2.1
41 4.5
43 5.2
53 2.8
55 1.9
57 1.2
58 3.3
65 1.1
67 5.8
68 3.4
69 2.7
73 1.7
75 1.1
77 1.1
81 2.3
82 2.4
91 1
93 1.5
95 1.6
105 1.1
116 1.3
117 1.6
118 2.5
119 2.3
120 3.6
121 2.2
131 8.4
132 5.2
133 14.7
134 5.9
135 19.2
136 1.8
137 2.9
139 3.9
146 3.9
147 4.3
148 7.9
149 5.6
150 10
151 5.1
152 1.8
154 2
155 1.2
157 4.4
159 3.1
160 1.6
161 45
162 27
163 74.5
164 32
165 99.99
166 4.2
167 17.2
168 1.1
169 19.3
170 1.1
183 1.6
185 2
187 1.1
199 3
200 1.8
201 4.8
202 2
203 5.5
205 1
207 1.3
215 1.6
216 1.5
217 2.2
218 1.5
219 1.6
229 5.9
230 4.2
231 9.8
232 4.2
233 12.7
234 1.7
235 2.2
237 2.7
287 1.2
311 2.2
312 1.3
313 2.3
315 1.8
326 1.4
328 1.5
330 1.3
392 1.2
393 1.1
394 2.5
395 1.4
396 2.6
397 1.2
398 2.1

$$$$

     RDKit          2D

 15 16  0  0  0  0  0  0  0  0999 V2000
   -1.3668   -4.1724    0.0000 C   0  0  0  0  0  0  0  0  0  0  0  0
    1.1664   -3.5952    0.0000 C   0  0  0  0  0  0  0  0  0  0  0  0
    2.4653   -2.6360    0.0000 C   0  0  0  0  0  0  0  0  0  0  0  0
   -2.7100   -0.0000    0.0000 C   0  0  0  0  0  0  0  0  0  0  0  0
   -2.0600    1.3500    0.0000 C   0  0  0  0  0  0  0  0  0  0  0  0
   -2.0600   -1.3500    0.0000 C   0  0  0  0  0  0  0  0  0  0  0  0
   -0.6000    1.6900    0.0000 C   0  0  0  0  0  0  0  0  0  0  0  0
   -0.2668   -3.1525    0.0000 C   0  0  0  0  0  0  0  0  0  0  0  0
    2.0000   -1.2100    0.0000 C   0  0  0  0  0  0  0  0  0  0  0  0
   -0.6000   -1.6900    0.0000 C   0  0  0  0  0  0  0  0  0  0  0  0
    0.5700    0.7500    0.0000 C   0  0  0  0  0  0  0  0  0  0  0  0
    0.5700   -0.7500    0.0000 C   0  0  0  0  0  0  0  0  0  0  0  0
    2.8800   -0.0000    0.0000 C   0  0  0  0  0  0  0  0  0  0  0  0
    4.3800   -0.0000    0.0000 O   0  0  0  0  0  0  0  0  0  0  0  0
    2.0000    1.2100    0.0000 O   0  0  0  0  0  0  0  0  0  0  0  0
  5  4  1  0
  6  4  1  0
  7  5  1  0
  8  1  1  0
  8  2  1  0
  9  3  2  0
 10  6  1  0
 10  8  1  0
 11  7  1  0
 12  9  1  0
 12 10  1  0
 12 11  1  0
 13  9  1  0
 14 13  2  0
 15 11  1  0
 15 13  1  0
M  END
>  <NAME>  (525) 
4-ISOPROPYL-3-METHYLENE-1-OXA-3,3A,4,5,6,7,8,8A-OCTAHYDROAZULEN-2(1H)-ONE

>  <SYNONYMS>  (525) 


>  <SPECTRUM TYPE>  (525) 
MS1

>  <INSTRUMENT TYPE>  (525) 
EI-B

>  <INSTRUMENT>  (525) 
JEOL JMS-DX-300

>  <ION MODE>  (525) 
P

>  <INCHIKEY>  (525) 
AUGHXHZIGLSKLS-UHFFFAOYSA-N

>  <FORMULA>  (525) 
C13H20O2

>  <EXACT MASS>  (525) 
208.14632988

>  <MW>  (525) 
208

>  <ID>  (525) 
JP011372

>  <CONTRIBUTOR>  (525) 
University of Tokyo Team, {Faculty of Engineering, University of Tokyo

>  <COMMENT>  (525) 
SMILES=CC(C)C(C2)C(C(=C)1)C(CCC2)OC(=O)1
InChI=InChI=1S/C13H20O2/c1-8(2)10-6-4-5-7-11-12(10)9(3)13(14)15-11/h8,10-12H,3-7H2,1-2H3
computed SMILES=O=C1OC2CCCCC(C(C)C)C2C1=C
accession=JP011372
date=2016.01.19 (Created 2008.10.21, modified 2011.05.06)
author=HISAHIRO HAGIWARA, INSTITUTE FOR CHEMICAL REACTION SCIENCE TOHOKU UNIV.
license=CC BY-NC-SA
exact mass=208.14633
ionization energy=70 eV
ion type=[M]+*
computed spectral entropy=3.8049800921141808
computed normalized entropy=0.9293258137632475
SPLASH=splash10-053r-9600000000-5e1b189c3cabd5581925
submitter=submitter = University of Tokyo Team (Faculty of Engineering, University of Tokyo)
MoNA Rating=3.75

>  <NUM PEAKS>  (525) 
60

>  <MASS SPECTRAL PEAKS>  (525) 
52 27.8
54 11.2
55 50.3
56 6.8
57 18
65 5
66 5.5
67 35.2
68 14
69 27.6
71 6
77 9.3
78 5.5
79 22.8
80 6.6
81 31.5
82 99.99
83 18.6
84 8.5
91 16.2
92 6.5
93 24.2
94 8.7
95 25.4
96 15.6
97 13.5
98 7.2
101 10
105 5.4
107 10.1
108 9.6
109 30.3
110 17.9
111 9.2
112 5.2
119 18.9
120 6.8
121 12.6
122 7.8
123 14.3
124 9.7
125 5.5
126 10.1
134 5
135 8
136 22.1
137 20.6
138 13.3
139 5.3
147 15.9
148 5.7
151 7.8
152 9.2
163 7.2
165 19.8
166 9.3
179 5.4
180 14.2
193 7
208 9.2

$$$$

     RDKit          2D

 19 20  0  0  0  0  0  0  0  0999 V2000
    5.8658   -4.6822    0.0000 C   0  0  0  0  0  0  0  0  0  0  0  0
   -4.9600    1.2990    0.0000 C   0  0  0  0  0  0  0  0  0  0  0  0
   -4.9600   -1.2990    0.0000 C   0  0  0  0  0  0  0  0  0  0  0  0
    4.3982   -4.3721    0.0000 C   0  0  0  0  0  0  0  0  0  0  0  0
   -2.0600   -1.3500    0.0000 C   0  0  0  0  0  0  0  0  0  0  0  0
   -2.0600    1.3500    0.0000 C   0  0  0  0  0  0  0  0  0  0  0  0
   -0.6000   -1.6900    0.0000 C   0  0  0  0  0  0  0  0  0  0  0  0
   -0.6000    1.6900    0.0000 C   0  0  0  0  0  0  0  0  0  0  0  0
   -4.2100    0.0000    0.0000 C   0  0  0  0  0  0  0  0  0  0  0  0
   -2.7100   -0.0000    0.0000 C   0  0  0  0  0  0  0  0  0  0  0  0
    0.5700   -0.7500    0.0000 C   0  0  0  0  0  0  0  0  0  0  0  0
    0.5700    0.7500    0.0000 C   0  0  0  0  0  0  0  0  0  0  0  0
    2.0000   -1.2100    0.0000 C   0  0  0  0  0  0  0  0  0  0  0  0
    2.4653   -2.6360    0.0000 C   0  0  0  0  0  0  0  0  0  0  0  0
    2.8800   -0.0000    0.0000 C   0  0  0  0  0  0  0  0  0  0  0  0
    1.4630   -3.7520    0.0000 O   0  0  0  0  0  0  0  0  0  0  0  0
    4.3800   -0.0000    0.0000 O   0  0  0  0  0  0  0  0  0  0  0  0
    3.9329   -2.9461    0.0000 O   0  0  0  0  0  0  0  0  0  0  0  0
    2.0000    1.2100    0.0000 O   0  0  0  0  0  0  0  0  0  0  0  0
  4  1  1  0
  7  5  1  0
  8  6  1  0
  9  2  1  0
  9  3  1  0
 10  5  1  0
 10  6  1  0
 10  9  1  0
 11  7  1  0
 12  8  1  0
 12 11  1  0
 13 11  1  0
 14 13  1  0
 15 13  1  0
 16 14  2  0
 17 15  2  0
 18  4  1  0
 18 14  1  0
 19 12  1  0
 19 15  1  0
M  END
>  <NAME>  (526) 
3-ETHOXYCARBONYL-6-ISOPROPYL-1-OXA-3,3A,4,5,6,7,8,8A-OCTAHYDROAZULEN-2(1H)-ONE

>  <SYNONYMS>  (526) 


>  <SPECTRUM TYPE>  (526) 
MS1

>  <INSTRUMENT TYPE>  (526) 
EI-B

>  <INSTRUMENT>  (526) 
JEOL JMS-DX-300

>  <ION MODE>  (526) 
P

>  <INCHIKEY>  (526) 
RGOPUEJOQWLLPT-UHFFFAOYSA-N

>  <FORMULA>  (526) 
C15H24O4

>  <EXACT MASS>  (526) 
268.167459248

>  <MW>  (526) 
268

>  <ID>  (526) 
JP011371

>  <CONTRIBUTOR>  (526) 
University of Tokyo Team, {Faculty of Engineering, University of Tokyo

>  <COMMENT>  (526) 
SMILES=CCOC(=O)C(C(=O)1)C(C2)C(CCC(C(C)C)C2)O1
InChI=InChI=1S/C15H24O4/c1-4-18-14(16)13-11-7-5-10(9(2)3)6-8-12(11)19-15(13)17/h9-13H,4-8H2,1-3H3
computed SMILES=O=C(OCC)C1C(=O)OC2CCC(CCC12)C(C)C
accession=JP011371
date=2016.01.19 (Created 2008.10.21, modified 2011.05.06)
author=HISAHIRO HAGIWARA, INSTITUTE FOR CHEMICAL REACTION SCIENCE TOHOKU UNIV.
license=CC BY-NC-SA
exact mass=268.16746
ionization energy=70 eV
ion type=[M]+*
computed spectral entropy=2.1550754988106977
computed normalized entropy=0.6538780851199651
SPLASH=splash10-0uxr-9600000000-e4dcca9306c1a440de14
submitter=submitter = University of Tokyo Team (Faculty of Engineering, University of Tokyo)
MoNA Rating=3.75

>  <NUM PEAKS>  (526) 
27

>  <MASS SPECTRAL PEAKS>  (526) 
52 1.4
55 1.8
58 3.4
59 19.2
60 1.1
67 1.3
68 1.6
69 67.4
70 4.5
71 7.9
72 1.1
73 35.6
74 3.4
75 2.7
81 5.3
82 1.2
85 1.8
89 12.8
95 1.1
100 1
101 99.99
102 8
111 1.2
138 1
141 1.4
142 4.8
242 1

$$$$

     RDKit          2D

 20 21  0  0  0  0  0  0  0  0999 V2000
    5.8658   -4.6822    0.0000 C   0  0  0  0  0  0  0  0  0  0  0  0
   -4.9600   -1.2990    0.0000 C   0  0  0  0  0  0  0  0  0  0  0  0
   -4.9600    1.2990    0.0000 C   0  0  0  0  0  0  0  0  0  0  0  0
    4.3982   -4.3721    0.0000 C   0  0  0  0  0  0  0  0  0  0  0  0
   -2.0600   -1.3500    0.0000 C   0  0  0  0  0  0  0  0  0  0  0  0
   -0.6000   -1.6900    0.0000 C   0  0  0  0  0  0  0  0  0  0  0  0
   -2.0600    1.3500    0.0000 C   0  0  0  0  0  0  0  0  0  0  0  0
   -4.2100    0.0000    0.0000 C   0  0  0  0  0  0  0  0  0  0  0  0
   -2.7100   -0.0000    0.0000 C   0  0  0  0  0  0  0  0  0  0  0  0
    0.5700   -0.7500    0.0000 C   0  0  0  0  0  0  0  0  0  0  0  0
   -0.6000    1.6900    0.0000 C   0  0  0  0  0  0  0  0  0  0  0  0
    2.0000   -1.2100    0.0000 C   0  0  0  0  0  0  0  0  0  0  0  0
    0.5700    0.7500    0.0000 C   0  0  0  0  0  0  0  0  0  0  0  0
    2.4653   -2.6360    0.0000 C   0  0  0  0  0  0  0  0  0  0  0  0
    2.8800   -0.0000    0.0000 C   0  0  0  0  0  0  0  0  0  0  0  0
   -0.2668    3.1525    0.0000 O   0  0  0  0  0  0  0  0  0  0  0  0
    1.4630   -3.7520    0.0000 O   0  0  0  0  0  0  0  0  0  0  0  0
    4.3800   -0.0000    0.0000 O   0  0  0  0  0  0  0  0  0  0  0  0
    3.9329   -2.9461    0.0000 O   0  0  0  0  0  0  0  0  0  0  0  0
    2.0000    1.2100    0.0000 O   0  0  0  0  0  0  0  0  0  0  0  0
  4  1  1  0
  6  5  1  0
  8  2  1  0
  8  3  1  0
  9  5  1  0
  9  7  1  0
  9  8  1  0
 10  6  1  0
 11  7  1  0
 12 10  1  0
 13 10  1  0
 13 11  1  0
 14 12  1  0
 15 12  1  0
 16 11  2  0
 17 14  2  0
 18 15  2  0
 19  4  1  0
 19 14  1  0
 20 13  1  0
 20 15  1  0
M  END
>  <NAME>  (527) 
3-CARBOETHOXY-6-ISOPROPYL-1-OXA-3,3A,4,5,6,7-HEXAHYDROAZULENE-2(1H),8(8AH)-DIONE

>  <SYNONYMS>  (527) 


>  <SPECTRUM TYPE>  (527) 
MS1

>  <INSTRUMENT TYPE>  (527) 
EI-B

>  <INSTRUMENT>  (527) 
JEOL JMS-DX-300

>  <ION MODE>  (527) 
P

>  <INCHIKEY>  (527) 
GOLXPQWCEJWVSR-UHFFFAOYSA-N

>  <FORMULA>  (527) 
C15H22O5

>  <EXACT MASS>  (527) 
282.146723804

>  <MW>  (527) 
282

>  <ID>  (527) 
JP011370

>  <CONTRIBUTOR>  (527) 
University of Tokyo Team, {Faculty of Engineering, University of Tokyo

>  <COMMENT>  (527) 
SMILES=CCOC(=O)C(C(=O)2)C(C1)C(O2)C(=O)CC(C(C)C)C1
InChI=InChI=1S/C15H22O5/c1-4-19-14(17)12-10-6-5-9(8(2)3)7-11(16)13(10)20-15(12)18/h8-10,12-13H,4-7H2,1-3H3
computed SMILES=O=C(OCC)C1C(=O)OC2C(=O)CC(CCC21)C(C)C
accession=JP011370
date=2016.01.19 (Created 2008.10.21, modified 2011.05.06)
author=HISAHIRO HAGIWARA, INSTITUTE FOR CHEMICAL REACTION SCIENCE TOHOKU UNIV.
license=CC BY-NC-SA
exact mass=282.14672
ionization energy=70 eV
ion type=[M]+*
computed spectral entropy=2.9986849892724012
computed normalized entropy=0.7788493583831756
SPLASH=splash10-0a4i-9210000000-7b5793bf5b053c5849cb
submitter=submitter = University of Tokyo Team (Faculty of Engineering, University of Tokyo)
MoNA Rating=3.75

>  <NUM PEAKS>  (527) 
47

>  <MASS SPECTRAL PEAKS>  (527) 
52 1.9
53 3.8
55 4.8
56 3.2
57 3.3
58 99.99
59 41.7
60 2.3
61 3.9
67 2.7
68 4.8
69 3.2
70 1.8
73 6.7
77 1.8
79 1.9
80 1.2
81 2.3
83 3.5
84 4.1
88 8.4
89 5.4
91 1.9
93 1.8
94 4.1
95 3.1
96 2.9
97 2.6
98 2.8
101 11.8
107 1.2
109 2.4
119 3.9
121 1.6
122 4
133 5.9
135 4.4
136 4.6
137 1.7
147 3.7
150 3.6
191 4.2
207 23.1
208 6.6
209 4.8
281 10
282 5.2

$$$$

     RDKit          2D

 18 19  0  0  0  0  0  0  0  0999 V2000
   -4.9600    1.2990    0.0000 C   0  0  0  0  0  0  0  0  0  0  0  0
   -4.9600   -1.2990    0.0000 C   0  0  0  0  0  0  0  0  0  0  0  0
    4.3982   -4.3721    0.0000 C   0  0  0  0  0  0  0  0  0  0  0  0
   -2.0600   -1.3500    0.0000 C   0  0  0  0  0  0  0  0  0  0  0  0
   -2.0600    1.3500    0.0000 C   0  0  0  0  0  0  0  0  0  0  0  0
   -0.6000   -1.6900    0.0000 C   0  0  0  0  0  0  0  0  0  0  0  0
   -0.6000    1.6900    0.0000 C   0  0  0  0  0  0  0  0  0  0  0  0
   -4.2100    0.0000    0.0000 C   0  0  0  0  0  0  0  0  0  0  0  0
   -2.7100   -0.0000    0.0000 C   0  0  0  0  0  0  0  0  0  0  0  0
    0.5700   -0.7500    0.0000 C   0  0  0  0  0  0  0  0  0  0  0  0
    0.5700    0.7500    0.0000 C   0  0  0  0  0  0  0  0  0  0  0  0
    2.0000   -1.2100    0.0000 C   0  0  0  0  0  0  0  0  0  0  0  0
    2.4653   -2.6360    0.0000 C   0  0  0  0  0  0  0  0  0  0  0  0
    2.8800   -0.0000    0.0000 C   0  0  0  0  0  0  0  0  0  0  0  0
    1.4630   -3.7520    0.0000 O   0  0  0  0  0  0  0  0  0  0  0  0
    4.3800   -0.0000    0.0000 O   0  0  0  0  0  0  0  0  0  0  0  0
    3.9329   -2.9461    0.0000 O   0  0  0  0  0  0  0  0  0  0  0  0
    2.0000    1.2100    0.0000 O   0  0  0  0  0  0  0  0  0  0  0  0
  6  4  1  0
  7  5  1  0
  8  1  1  0
  8  2  1  0
  9  4  1  0
  9  5  1  0
  9  8  1  0
 10  6  1  0
 11  7  1  0
 11 10  1  0
 12 10  1  0
 13 12  1  0
 14 12  1  0
 15 13  2  0
 16 14  2  0
 17  3  1  0
 17 13  1  0
 18 11  1  0
 18 14  1  0
M  END
>  <NAME>  (528) 
3-CARBOMETHOXY-6-ISOPROPYL-1-OXA-3,3A,4,5,6,7,8,8A-OCTAHYDROAZULEN-2(1H)-ONE

>  <SYNONYMS>  (528) 


>  <SPECTRUM TYPE>  (528) 
MS1

>  <INSTRUMENT TYPE>  (528) 
EI-B

>  <INSTRUMENT>  (528) 
JEOL JMS-DX-300

>  <ION MODE>  (528) 
P

>  <INCHIKEY>  (528) 
BTBGIRSEZXWHEE-UHFFFAOYSA-N

>  <FORMULA>  (528) 
C14H22O4

>  <EXACT MASS>  (528) 
254.151809184

>  <MW>  (528) 
254

>  <ID>  (528) 
JP011369

>  <CONTRIBUTOR>  (528) 
University of Tokyo Team, {Faculty of Engineering, University of Tokyo

>  <COMMENT>  (528) 
SMILES=COC(=O)C(C(=O)1)C(C2)C(CCC(C(C)C)C2)O1
InChI=InChI=1S/C14H22O4/c1-8(2)9-4-6-10-11(7-5-9)18-14(16)12(10)13(15)17-3/h8-12H,4-7H2,1-3H3
computed SMILES=O=C(OC)C1C(=O)OC2CCC(CCC12)C(C)C
accession=JP011369
date=2016.01.19 (Created 2008.10.21, modified 2011.05.06)
author=HISAHIRO HAGIWARA, INSTITUTE FOR CHEMICAL REACTION SCIENCE TOHOKU UNIV.
license=CC BY-NC-SA
exact mass=254.15181
ionization energy=70 eV
ion type=[M]+*
computed spectral entropy=3.948050686469726
computed normalized entropy=0.935666187225258
SPLASH=splash10-0f7x-7910000000-b42732726dc86fcf3c1d
submitter=submitter = University of Tokyo Team (Faculty of Engineering, University of Tokyo)
MoNA Rating=3.75

>  <NUM PEAKS>  (528) 
68

>  <MASS SPECTRAL PEAKS>  (528) 
52 24.2
53 12.2
55 55.5
57 13.8
58 25.2
59 19.3
67 34.9
68 23.7
69 36.2
77 11.9
79 39.7
80 21.6
81 50
82 22.8
83 20.1
84 10.3
87 17.5
91 17.4
92 24.3
93 93
94 35.2
95 42.2
96 34.8
97 17.8
100 16.5
101 12.5
105 14
107 30.5
108 33.2
109 21
111 16.9
113 29.9
114 10.1
119 33.1
121 29.5
122 13.2
123 17.2
124 12.9
126 18.1
133 14.9
134 14
135 27.3
136 95.5
137 26.2
139 11.7
151 19.7
154 99.99
155 17.8
161 14
165 12.6
167 15.7
179 18.2
180 76.9
181 11.6
194 21.2
204 4.6
208 27.7
209 8
210 5.8
211 5.5
212 23.6
213 3.7
222 12
223 8.8
226 7.9
236 4.2
254 4.5
255 3.3

$$$$

     RDKit          2D

 11 11  0  0  0  0  0  0  0  0999 V2000
   -0.1782    1.7605    0.0000 C   0  0  0  0  0  0  0  0  0  0  0  0
   -4.0753   -0.4895    0.0000 C   0  0  0  0  0  0  0  0  0  0  0  0
   -4.0753    1.0105    0.0000 C   0  0  0  0  0  0  0  0  0  0  0  0
   -2.7762   -1.2395    0.0000 C   0  0  0  0  0  0  0  0  0  0  0  0
   -2.7762    1.7605    0.0000 C   0  0  0  0  0  0  0  0  0  0  0  0
   -1.8121    2.9095    0.0000 H   0  0  0  0  0  0  0  0  0  0  0  0
   -3.7404    2.9095    0.0000 H   0  0  0  0  0  0  0  0  0  0  0  0
   -1.4772   -0.4895    0.0000 C   0  0  0  0  0  0  0  0  0  0  0  0
   -0.9642   -1.8991    0.0000 H   0  0  0  0  0  0  0  0  0  0  0  0
    0.0000   -0.2291    0.0000 H   0  0  0  0  0  0  0  0  0  0  0  0
   -1.4772    1.0105    0.0000 Si  0  0  0  0  0  4  0  0  0  0  0  0
  5  6  1  0
  5  7  1  0
  8  9  1  0
  8 10  1  0
  3  2  1  0
  4  2  1  0
  5  3  1  0
  8  4  1  0
 11  1  1  0
 11  5  1  0
 11  8  1  0
M  ISO  4   6   2   7   2   9   2  10   2
M  END
>  <NAME>  (529) 
1-METHYLSILACYCLOHEXANE (2,2,6,6-D4)

>  <SYNONYMS>  (529) 


>  <SPECTRUM TYPE>  (529) 
MS1

>  <INSTRUMENT TYPE>  (529) 
EI-B

>  <INSTRUMENT>  (529) 
HITACHI RMU-6M

>  <ION MODE>  (529) 
P

>  <INCHIKEY>  (529) 
SVXKLJJAGXDRDF-NZLXMSDQSA-N

>  <FORMULA>  (529) 
C6H14Si

>  <EXACT MASS>  (529) 
118.111583962

>  <MW>  (529) 
118

>  <ID>  (529) 
JP011368

>  <CONTRIBUTOR>  (529) 
University of Tokyo Team, {Faculty of Engineering, University of Tokyo

>  <COMMENT>  (529) 
SMILES=[2H]C([2H])(C1)[SiH](C)C([2H])([2H])CC1
InChI=InChI=1S/C6H14Si/c1-7-5-3-2-4-6-7/h7H,2-6H2,1H3/i5D2,6D2
computed SMILES=[H]C1([H])CCCC([H])([H])[SiH]1C
accession=JP011368
date=2016.01.19 (Created 2008.10.21, modified 2011.05.06)
author=YAMAMOTO M, DEP. CHEMISTRY, FAC. SCIENCE, NARA WOMEN'S UNIV.
license=CC BY-NC-SA
exact mass=114.08648
ionization energy=70 eV
ion type=[M]+*
computed spectral entropy=3.363014408593536
computed normalized entropy=0.8392150722547027
SPLASH=splash10-00kr-9200000000-0c6d67dca8bab82dada9
submitter=submitter = University of Tokyo Team (Faculty of Engineering, University of Tokyo)
MoNA Rating=3.75

>  <NUM PEAKS>  (529) 
55

>  <MASS SPECTRAL PEAKS>  (529) 
27 2.3
28 5.6
29 6
30 3.8
31 1.6
32 2.5
39 2.2
40 3.8
41 3.2
42 5.1
43 36.9
44 18.5
45 29.3
46 13.6
47 4.7
48 1.7
53 2.1
54 2.1
55 2.6
56 4
57 4.5
58 29.5
59 16.1
60 38.9
61 14.9
62 5.2
63 2.5
67 1.2
68 1.8
69 1.6
70 1.3
71 5.2
72 9.6
73 29.8
74 32.5
75 11.4
76 2.7
77 1.4
85 2.1
86 5.6
87 25.7
88 99.99
89 15.8
90 10.9
99 2.1
100 2.6
101 6.5
102 4.3
103 24.1
104 3.2
116 6
117 25.7
118 53.8
119 7.9
120 2.7

$$$$

     RDKit          2D

  7  7  0  0  0  0  0  0  0  0999 V2000
    0.0000    1.5000    0.0000 C   0  0  0  0  0  0  0  0  0  0  0  0
    0.0000   -0.0000    0.0000 C   0  0  0  0  0  0  0  0  0  0  0  0
   -1.2990    2.2500    0.0000 C   0  0  0  0  0  0  0  0  0  0  0  0
   -1.2990   -0.7500    0.0000 C   0  0  0  0  0  0  0  0  0  0  0  0
   -2.5981    1.5000    0.0000 C   0  0  0  0  0  0  0  0  0  0  0  0
   -2.5981    0.0000    0.0000 Si  0  0  0  0  0  4  0  0  0  0  0  0
   -3.8971   -0.7500    0.0000 H   0  0  0  0  0  0  0  0  0  0  0  0
  6  7  1  0
  2  1  1  0
  3  1  1  0
  4  2  1  0
  5  3  1  0
  6  4  1  0
  6  5  1  0
M  ISO  1   7   2
M  END
>  <NAME>  (530) 
SILACYCLOHEXANE (1-D)

>  <SYNONYMS>  (530) 


>  <SPECTRUM TYPE>  (530) 
MS1

>  <INSTRUMENT TYPE>  (530) 
EI-B

>  <INSTRUMENT>  (530) 
HITACHI RMU-6M

>  <ION MODE>  (530) 
P

>  <INCHIKEY>  (530) 
VMNDCBPWBMKDBI-RAMDWTOOSA-N

>  <FORMULA>  (530) 
C5H12Si

>  <EXACT MASS>  (530) 
101.07710366

>  <MW>  (530) 
101

>  <ID>  (530) 
JP011367

>  <CONTRIBUTOR>  (530) 
University of Tokyo Team, {Faculty of Engineering, University of Tokyo

>  <COMMENT>  (530) 
SMILES=[2H][SiH](C1)CCCC1
InChI=InChI=1S/C5H12Si/c1-2-4-6-5-3-1/h1-6H2/i6D
computed SMILES=[H][SiH]1CCCCC1
accession=JP011367
date=2016.01.19 (Created 2008.10.21, modified 2011.05.06)
author=YAMAMOTO M, DEP. CHEMISTRY, FAC. SCIENCE, NARA WOMEN'S UNIV.
license=CC BY-NC-SA
exact mass=100.07083
ionization energy=70 eV
ion type=[M]+*
computed spectral entropy=3.082075844266666
computed normalized entropy=0.8005084903492401
SPLASH=splash10-00di-9100000000-30bcb41551babb86ec1f
submitter=submitter = University of Tokyo Team (Faculty of Engineering, University of Tokyo)
MoNA Rating=3.75

>  <NUM PEAKS>  (530) 
47

>  <MASS SPECTRAL PEAKS>  (530) 
26 0.8
27 4.9
28 5
29 4.7
30 2
31 4
32 4.2
39 5.8
40 1.3
41 6.3
42 3.8
43 17.7
44 23
45 22.7
46 7.2
47 1.3
53 3
54 1.1
55 4.8
56 3.5
57 4.2
58 9.8
59 9.1
60 8.8
61 1.3
66 1.6
67 2.2
68 1
69 2
70 7.2
71 14.2
72 33.4
73 99.99
74 12
75 4
83 2.4
84 1.1
85 1
86 2.6
96 0.7
97 3.9
98 7.8
99 5.3
100 7.5
101 43.7
102 6.3
103 2.1

$$$$

     RDKit          2D

 11 11  0  0  0  0  0  0  0  0999 V2000
   -4.0753    0.2605    0.0000 C   0  0  0  0  0  0  0  0  0  0  0  0
   -3.8148    1.7377    0.0000 H   0  0  0  0  0  0  0  0  0  0  0  0
   -5.5525    0.5209    0.0000 H   0  0  0  0  0  0  0  0  0  0  0  0
   -4.3358   -1.2167    0.0000 H   0  0  0  0  0  0  0  0  0  0  0  0
   -3.1111   -1.4095    0.0000 C   0  0  0  0  0  0  0  0  0  0  0  0
    0.0000    1.5000    0.0000 C   0  0  0  0  0  0  0  0  0  0  0  0
    0.0000    0.0000    0.0000 C   0  0  0  0  0  0  0  0  0  0  0  0
   -1.2990    2.2500    0.0000 C   0  0  0  0  0  0  0  0  0  0  0  0
   -1.2990   -0.7500    0.0000 C   0  0  0  0  0  0  0  0  0  0  0  0
   -2.5981    1.5000    0.0000 C   0  0  0  0  0  0  0  0  0  0  0  0
   -2.5981   -0.0000    0.0000 Si  0  0  0  0  0  4  0  0  0  0  0  0
  1  2  1  0
  1  3  1  0
  1  4  1  0
  7  6  1  0
  8  6  1  0
  9  7  1  0
 10  8  1  0
 11  1  1  0
 11  5  1  0
 11  9  1  0
 11 10  1  0
M  ISO  3   2   2   3   2   4   2
M  END
>  <NAME>  (531) 
1,1-DIMETHYLSILACYCLOHEXANE(METHYL-D3)

>  <SYNONYMS>  (531) 


>  <SPECTRUM TYPE>  (531) 
MS1

>  <INSTRUMENT TYPE>  (531) 
EI-B

>  <INSTRUMENT>  (531) 
HITACHI RMU-6M

>  <ION MODE>  (531) 
P

>  <INCHIKEY>  (531) 
VPVXTYYXTKCTPM-FIBGUPNXSA-N

>  <FORMULA>  (531) 
C7H16Si

>  <EXACT MASS>  (531) 
131.12095728

>  <MW>  (531) 
131

>  <ID>  (531) 
JP011366

>  <CONTRIBUTOR>  (531) 
University of Tokyo Team, {Faculty of Engineering, University of Tokyo

>  <COMMENT>  (531) 
SMILES=[2H]C([2H])([2H])[Si](C)(C1)CCCC1
InChI=InChI=1S/C7H16Si/c1-8(2)6-4-3-5-7-8/h3-7H2,1-2H3/i1D3
computed SMILES=[H]C([H])([H])[Si]1(C)CCCCC1
accession=JP011366
date=2016.01.19 (Created 2008.10.21, modified 2011.05.06)
author=YAMAMOTO M, DEP. CHEMISTRY, FAC. SCIENCE, NARA WOMEN'S UNIV.
license=CC BY-NC-SA
exact mass=128.10213
ionization energy=70 eV
ion type=[M]+*
computed spectral entropy=3.3322727712758216
computed normalized entropy=0.79251281197304
SPLASH=splash10-029i-9600000000-a33c50ea32f9a0610134
submitter=submitter = University of Tokyo Team (Faculty of Engineering, University of Tokyo)
MoNA Rating=3.75

>  <NUM PEAKS>  (531) 
67

>  <MASS SPECTRAL PEAKS>  (531) 
27 4.2
28 4.6
29 6.5
30 3.9
31 2.9
32 6.3
33 3.2
39 5
40 1.3
41 5
42 3.2
43 20.8
44 6.6
45 9.9
46 19.1
47 4.9
48 8.5
53 3
54 1.4
55 4.9
56 2.5
57 3.8
58 2.6
59 17.6
60 5.1
61 12.7
62 12.5
63 5.7
64 2.8
66 1.4
67 3.3
68 1.8
69 2.8
70 1.5
71 4.7
72 2.3
73 2.4
74 5.7
75 29.9
76 5.4
77 1.8
79 3.2
81 1.4
83 1.9
84 2.6
85 65.9
86 8.9
87 7.2
88 83.3
89 12
90 4.2
97 2.1
100 1.1
102 5.4
103 8.5
104 1.3
111 1.8
113 88.2
114 12
115 4.8
116 99.99
117 12.1
118 4.1
130 0.9
131 61.8
132 8.2
133 2.4

$$$$

     RDKit          2D

 10 10  0  0  0  0  0  0  0  0999 V2000
   -3.8971   -0.7500    0.0000 C   0  0  0  0  0  0  0  0  0  0  0  0
   -4.6471    0.5490    0.0000 H   0  0  0  0  0  0  0  0  0  0  0  0
   -5.1962   -1.5000    0.0000 H   0  0  0  0  0  0  0  0  0  0  0  0
   -3.1471   -2.0490    0.0000 H   0  0  0  0  0  0  0  0  0  0  0  0
    0.0000    1.5000    0.0000 C   0  0  0  0  0  0  0  0  0  0  0  0
    0.0000   -0.0000    0.0000 C   0  0  0  0  0  0  0  0  0  0  0  0
   -1.2990    2.2500    0.0000 C   0  0  0  0  0  0  0  0  0  0  0  0
   -1.2990   -0.7500    0.0000 C   0  0  0  0  0  0  0  0  0  0  0  0
   -2.5981    1.5000    0.0000 C   0  0  0  0  0  0  0  0  0  0  0  0
   -2.5981   -0.0000    0.0000 Si  0  0  0  0  0  4  0  0  0  0  0  0
  1  2  1  0
  1  3  1  0
  1  4  1  0
  6  5  1  0
  7  5  1  0
  8  6  1  0
  9  7  1  0
 10  1  1  0
 10  8  1  0
 10  9  1  0
M  ISO  3   2   2   3   2   4   2
M  END
>  <NAME>  (532) 
1-METHYLSILACYCLOHEXANE(METHYL-D3)

>  <SYNONYMS>  (532) 


>  <SPECTRUM TYPE>  (532) 
MS1

>  <INSTRUMENT TYPE>  (532) 
EI-B

>  <INSTRUMENT>  (532) 
HITACHI RMU-6M

>  <ION MODE>  (532) 
P

>  <INCHIKEY>  (532) 
SVXKLJJAGXDRDF-FIBGUPNXSA-N

>  <FORMULA>  (532) 
C6H14Si

>  <EXACT MASS>  (532) 
117.10530721600001

>  <MW>  (532) 
117

>  <ID>  (532) 
JP011365

>  <CONTRIBUTOR>  (532) 
University of Tokyo Team, {Faculty of Engineering, University of Tokyo

>  <COMMENT>  (532) 
SMILES=[2H]C([2H])([2H])[SiH](C1)CCCC1
InChI=InChI=1S/C6H14Si/c1-7-5-3-2-4-6-7/h7H,2-6H2,1H3/i1D3
computed SMILES=[H]C([H])([H])[SiH]1CCCCC1
accession=JP011365
date=2016.01.19 (Created 2008.10.21, modified 2011.05.06)
author=YAMAMOTO M, DEP. CHEMISTRY, FAC. SCIENCE, NARA WOMEN'S UNIV.
license=CC BY-NC-SA
exact mass=114.08648
ionization energy=70 eV
ion type=[M]+*
computed spectral entropy=3.3568249773261103
computed normalized entropy=0.8041479528108166
SPLASH=splash10-029i-9100000000-cb1ff44e48f46048972b
submitter=submitter = University of Tokyo Team (Faculty of Engineering, University of Tokyo)
MoNA Rating=3.75

>  <NUM PEAKS>  (532) 
65

>  <MASS SPECTRAL PEAKS>  (532) 
27 3.9
28 5
29 3.5
30 2.5
31 1.4
32 2
33 0.8
39 4.5
40 0.8
41 4.5
42 2.9
43 13.8
44 4.8
45 7.6
46 24.7
47 7.4
48 26
49 1.7
50 0.7
53 3.1
54 1.2
55 5.4
56 1.5
57 3.8
58 1.4
59 4.8
60 2.9
61 65.8
62 20.7
63 3.5
64 1.6
65 7
66 1.6
67 3.8
68 2.5
69 3.1
70 3.8
71 30.7
72 3.9
73 3.6
74 10.6
75 22.7
76 7.7
77 1.3
83 1.3
86 1.1
87 5.8
88 30.5
89 99.99
90 11
91 3.8
93 2.3
95 0.9
97 8.2
98 3.5
99 20.2
100 3.6
102 1.8
106 0.9
114 0.8
115 5.3
116 25.4
117 62.9
118 9
119 3

$$$$

     RDKit          2D

  8  8  0  0  0  0  0  0  0  0999 V2000
   -4.1590    0.4350    0.0000 C   0  0  0  0  0  0  0  0  0  0  0  0
   -0.0837   -0.8045    0.0000 C   0  0  0  0  0  0  0  0  0  0  0  0
   -1.3828   -1.5545    0.0000 C   0  0  0  0  0  0  0  0  0  0  0  0
   -0.0837    0.6955    0.0000 C   0  0  0  0  0  0  0  0  0  0  0  0
   -2.6818   -0.8045    0.0000 C   0  0  0  0  0  0  0  0  0  0  0  0
   -1.3828    1.4455    0.0000 C   0  0  0  0  0  0  0  0  0  0  0  0
   -2.6818    0.6955    0.0000 Si  0  0  0  0  0  4  0  0  0  0  0  0
   -3.1948    2.1050    0.0000 H   0  0  0  0  0  0  0  0  0  0  0  0
  7  8  1  0
  3  2  1  0
  4  2  1  0
  5  3  1  0
  6  4  1  0
  7  1  1  0
  7  5  1  0
  7  6  1  0
M  ISO  1   8   2
M  END
>  <NAME>  (533) 
1-METHYLSILACYCLOHEXANE (1-D)

>  <SYNONYMS>  (533) 


>  <SPECTRUM TYPE>  (533) 
MS1

>  <INSTRUMENT TYPE>  (533) 
EI-B

>  <INSTRUMENT>  (533) 
HITACHI RMU-6M

>  <ION MODE>  (533) 
P

>  <INCHIKEY>  (533) 
SVXKLJJAGXDRDF-WHRKIXHSSA-N

>  <FORMULA>  (533) 
C6H14Si

>  <EXACT MASS>  (533) 
115.092753724

>  <MW>  (533) 
115

>  <ID>  (533) 
JP011364

>  <CONTRIBUTOR>  (533) 
University of Tokyo Team, {Faculty of Engineering, University of Tokyo

>  <COMMENT>  (533) 
computed SMILES=[H][Si]1(C)CCCCC1
SMILES=[2H][Si](C)(C1)CCCC1
InChI=InChI=1S/C6H14Si/c1-7-5-3-2-4-6-7/h7H,2-6H2,1H3/i7D
accession=JP011364
date=2016.01.19 (Created 2008.10.21, modified 2011.05.06)
author=YAMAMOTO M, DEP. CHEMISTRY, FAC. SCIENCE, NARA WOMEN'S UNIV.
license=CC BY-NC-SA
exact mass=114.08648
ionization energy=70 eV
ion type=[M]+*
computed spectral entropy=3.304828680118677
computed normalized entropy=0.8139084015056628
SPLASH=splash10-05n0-9200000000-735b7f71fbfeef8e8738
submitter=submitter = University of Tokyo Team (Faculty of Engineering, University of Tokyo)
MoNA Rating=3.75

>  <NUM PEAKS>  (533) 
58

>  <MASS SPECTRAL PEAKS>  (533) 
26 0.7
27 5.2
28 6.4
29 5.1
30 1.9
31 2.6
32 1.9
38 0.7
39 5.4
40 1.5
41 5.7
42 4.8
43 29.9
44 17.3
45 15.9
46 17.6
47 1.8
48 0.9
53 3.5
54 1.2
55 4.6
56 2.6
57 4.3
58 31.2
59 53.5
60 10.9
61 2.3
65 0.6
66 1.2
67 3.4
68 2.4
69 3.5
70 4
71 15.9
72 47.4
73 13.4
74 6.6
75 1.5
83 1.8
84 4.8
85 18
86 16.5
87 99.99
88 10
89 3.9
96 0.7
97 4
98 9.1
99 2.1
100 27.9
101 2.7
102 1.2
112 7
113 21.7
114 4.6
115 68.8
116 8.4
117 2.7

$$$$

     RDKit          2D

 14 14  0  0  0  0  0  0  0  0999 V2000
   -2.7639    0.6119    0.0000 C   0  0  0  0  0  0  0  0  0  0  0  0
   -2.5034    2.0891    0.0000 H   0  0  0  0  0  0  0  0  0  0  0  0
   -4.2411    0.8723    0.0000 H   0  0  0  0  0  0  0  0  0  0  0  0
   -3.2769   -0.7977    0.0000 H   0  0  0  0  0  0  0  0  0  0  0  0
   -2.5167   -1.7790    0.0000 C   0  0  0  0  0  0  0  0  0  0  0  0
   -4.6471   -0.5490    0.0000 H   0  0  0  0  0  0  0  0  0  0  0  0
   -3.2667   -3.0781    0.0000 H   0  0  0  0  0  0  0  0  0  0  0  0
   -1.2177   -2.5290    0.0000 H   0  0  0  0  0  0  0  0  0  0  0  0
    1.3114    1.8514    0.0000 C   0  0  0  0  0  0  0  0  0  0  0  0
    1.3114    0.3514    0.0000 C   0  0  0  0  0  0  0  0  0  0  0  0
    0.0123    2.6014    0.0000 C   0  0  0  0  0  0  0  0  0  0  0  0
    0.0123   -0.3986    0.0000 C   0  0  0  0  0  0  0  0  0  0  0  0
   -1.2867    1.8514    0.0000 C   0  0  0  0  0  0  0  0  0  0  0  0
   -1.2867    0.3514    0.0000 Si  0  0  0  0  0  4  0  0  0  0  0  0
  1  2  1  0
  1  3  1  0
  1  4  1  0
  5  6  1  0
  5  7  1  0
  5  8  1  0
 10  9  1  0
 11  9  1  0
 12 10  1  0
 13 11  1  0
 14  1  1  0
 14  5  1  0
 14 12  1  0
 14 13  1  0
M  ISO  6   2   2   3   2   4   2   6   2   7   2   8   2
M  END
>  <NAME>  (534) 
1,1-DIMETHLSILACYCLOHEXANE(METHYL-D6)

>  <SYNONYMS>  (534) 


>  <SPECTRUM TYPE>  (534) 
MS1

>  <INSTRUMENT TYPE>  (534) 
EI-B

>  <INSTRUMENT>  (534) 
HITACHI RMU-6M

>  <ION MODE>  (534) 
P

>  <INCHIKEY>  (534) 
VPVXTYYXTKCTPM-WFGJKAKNSA-N

>  <FORMULA>  (534) 
C7H16Si

>  <EXACT MASS>  (534) 
134.139787518

>  <MW>  (534) 
134

>  <ID>  (534) 
JP011363

>  <CONTRIBUTOR>  (534) 
University of Tokyo Team, {Faculty of Engineering, University of Tokyo

>  <COMMENT>  (534) 
SMILES=[2H]C([2H])([2H])[Si](C1)(CCCC1)C([2H])([2H])[2H]
InChI=InChI=1S/C7H16Si/c1-8(2)6-4-3-5-7-8/h3-7H2,1-2H3/i1D3,2D3
computed SMILES=[H]C([H])([H])[Si]1(CCCCC1)C([H])([H])[H]
accession=JP011363
date=2016.01.19 (Created 2008.10.21, modified 2011.05.06)
author=YAMAMOTO M, DEP. CHEMISTRY, FAC. SCIENCE, NARA WOMEN'S UNIV.
license=CC BY-NC-SA
exact mass=128.10213
ionization energy=70 eV
ion type=[M]+*
computed spectral entropy=3.2209292397276355
computed normalized entropy=0.7581341289613747
SPLASH=splash10-014r-9500000000-a9abc9a2e70ce96f6921
submitter=submitter = University of Tokyo Team (Faculty of Engineering, University of Tokyo)
MoNA Rating=3.75

>  <NUM PEAKS>  (534) 
70

>  <MASS SPECTRAL PEAKS>  (534) 
27 2.8
28 7.4
29 2.4
30 3.4
31 1
32 2.2
33 3.7
34 3.7
39 2.4
40 0.8
41 2.3
42 1
43 3.4
44 3.1
45 3.3
46 18.2
47 3.4
48 7.1
49 2.5
50 1.1
53 1.4
54 0.6
55 2.4
56 1.2
57 1.2
58 0.8
59 1.5
60 2.5
61 2.9
62 17.2
63 2.9
64 7.4
65 25.4
66 2.3
67 2.3
69 0.8
71 0.8
72 1.1
73 1.1
74 3.7
75 1.4
76 1.6
77 1.2
78 16.1
79 2.6
80 0.8
82 4.9
85 1.5
86 3.1
87 5.7
88 70.4
89 8.9
90 3.7
91 7.2
92 3
93 1
97 1
105 3.2
106 6.4
107 0.7
110 0.6
114 2
115 2.4
116 99.99
117 13.2
118 4.1
133 1.6
134 39.7
135 5.7
136 1.7

$$$$

     RDKit          2D

  8  8  0  0  0  0  0  0  0  0999 V2000
   -0.0837   -0.8045    0.0000 C   0  0  0  0  0  0  0  0  0  0  0  0
   -1.3828   -1.5545    0.0000 C   0  0  0  0  0  0  0  0  0  0  0  0
   -0.0837    0.6955    0.0000 C   0  0  0  0  0  0  0  0  0  0  0  0
   -2.6818   -0.8045    0.0000 C   0  0  0  0  0  0  0  0  0  0  0  0
   -1.3828    1.4455    0.0000 C   0  0  0  0  0  0  0  0  0  0  0  0
   -2.6818    0.6955    0.0000 Si  0  0  0  0  0  4  0  0  0  0  0  0
   -3.1948    2.1050    0.0000 H   0  0  0  0  0  0  0  0  0  0  0  0
   -4.1590    0.4350    0.0000 H   0  0  0  0  0  0  0  0  0  0  0  0
  6  7  1  0
  6  8  1  0
  2  1  1  0
  3  1  1  0
  4  2  1  0
  5  3  1  0
  6  4  1  0
  6  5  1  0
M  ISO  2   7   2   8   2
M  END
>  <NAME>  (535) 
SILACYCLOHEXANE (1,1-D2)

>  <SYNONYMS>  (535) 


>  <SPECTRUM TYPE>  (535) 
MS1

>  <INSTRUMENT TYPE>  (535) 
EI-B

>  <INSTRUMENT>  (535) 
HITACHI RMU-6M

>  <ION MODE>  (535) 
P

>  <INCHIKEY>  (535) 
VMNDCBPWBMKDBI-NCYHJHSESA-N

>  <FORMULA>  (535) 
C5H12Si

>  <EXACT MASS>  (535) 
102.08338040599999

>  <MW>  (535) 
102

>  <ID>  (535) 
JP011362

>  <CONTRIBUTOR>  (535) 
University of Tokyo Team, {Faculty of Engineering, University of Tokyo

>  <COMMENT>  (535) 
SMILES=[2H][Si]([2H])(C1)CCCC1
InChI=InChI=1S/C5H12Si/c1-2-4-6-5-3-1/h1-6H2/i6D2
computed SMILES=[H][Si]1([H])CCCCC1
accession=JP011362
date=2016.01.19 (Created 2008.10.21, modified 2011.05.06)
author=YAMAMOTO M, DEP. CHEMISTRY, FAC. SCIENCE, NARA WOMEN'S UNIV.
license=CC BY-NC-SA
exact mass=100.07083
ionization energy=70 eV
ion type=[M]+*
computed spectral entropy=3.1312572762632747
computed normalized entropy=0.7924738384367381
SPLASH=splash10-00di-9100000000-451e106b2eebcfd502b3
submitter=submitter = University of Tokyo Team (Faculty of Engineering, University of Tokyo)
MoNA Rating=3.75

>  <NUM PEAKS>  (535) 
52

>  <MASS SPECTRAL PEAKS>  (535) 
27 5.2
28 6
29 4.4
30 2.5
31 2.8
32 4.5
33 3.2
38 0.6
39 5.7
40 1.6
41 5.9
42 2.8
43 11.9
44 22.5
45 22.8
46 18.3
47 3.9
48 0.7
53 2.8
54 1
55 3.7
56 3.9
57 3.9
58 5.9
59 10.5
60 6.3
61 9
62 1.1
66 1.2
67 1.8
68 1.2
69 1.9
70 4.6
71 8.5
72 19.2
73 41.8
74 99.99
75 10.4
76 3.9
83 2
84 1.3
86 1.9
87 2.3
96 0.6
97 2.8
98 6.8
99 3.9
100 7.7
101 2.3
102 58.9
103 6.1
104 2

$$$$

     RDKit          2D

  8  8  0  0  0  0  0  0  0  0999 V2000
   -3.1948    2.1050    0.0000 C   0  0  0  0  0  0  0  0  0  0  0  0
   -4.1590    0.4350    0.0000 C   0  0  0  0  0  0  0  0  0  0  0  0
   -0.0837   -0.8045    0.0000 C   0  0  0  0  0  0  0  0  0  0  0  0
   -1.3828   -1.5545    0.0000 C   0  0  0  0  0  0  0  0  0  0  0  0
   -0.0837    0.6955    0.0000 C   0  0  0  0  0  0  0  0  0  0  0  0
   -2.6818   -0.8045    0.0000 C   0  0  0  0  0  0  0  0  0  0  0  0
   -1.3828    1.4455    0.0000 C   0  0  0  0  0  0  0  0  0  0  0  0
   -2.6818    0.6955    0.0000 Si  0  0  0  0  0  4  0  0  0  0  0  0
  4  3  1  0
  5  3  1  0
  6  4  1  0
  7  5  1  0
  8  1  1  0
  8  2  1  0
  8  6  1  0
  8  7  1  0
M  END
>  <NAME>  (536) 
1,1-DIMETHYLSILACYCLOHEXANE

>  <SYNONYMS>  (536) 


>  <SPECTRUM TYPE>  (536) 
MS1

>  <INSTRUMENT TYPE>  (536) 
EI-B

>  <INSTRUMENT>  (536) 
HITACHI RMU-6M

>  <ION MODE>  (536) 
P

>  <INCHIKEY>  (536) 
VPVXTYYXTKCTPM-UHFFFAOYSA-N

>  <FORMULA>  (536) 
C7H16Si

>  <EXACT MASS>  (536) 
128.102127042

>  <MW>  (536) 
128

>  <ID>  (536) 
JP011361

>  <CONTRIBUTOR>  (536) 
University of Tokyo Team, {Faculty of Engineering, University of Tokyo

>  <COMMENT>  (536) 
SMILES=C(C1)CC[Si](C)(C)C1
InChI=InChI=1S/C7H16Si/c1-8(2)6-4-3-5-7-8/h3-7H2,1-2H3
computed SMILES=C[Si]1(C)CCCCC1
accession=JP011361
date=2016.01.19 (Created 2008.10.21, modified 2011.05.06)
author=YAMAMOTO M, DEP. CHEMISTRY, FAC. SCIENCE, NARA WOMEN'S UNIV.
license=CC BY-NC-SA
exact mass=128.10213
ionization energy=70 eV
ion type=[M]+*
computed spectral entropy=2.733297904365568
computed normalized entropy=0.7222941154604431
SPLASH=splash10-03dr-9500000000-5e60b40b26e28936df96
submitter=submitter = University of Tokyo Team (Faculty of Engineering, University of Tokyo)
MoNA Rating=3.75

>  <NUM PEAKS>  (536) 
44

>  <MASS SPECTRAL PEAKS>  (536) 
27 2.4
28 7
29 4.6
31 5.2
32 1.9
39 2.4
41 2.6
42 2.5
43 22.9
44 4.7
45 9.4
46 0.8
53 1.8
54 0.6
55 3.9
56 0.8
57 3.2
58 7
59 44.3
60 3.3
61 1.6
66 0.7
67 1.4
69 1.7
70 1
71 6
72 15.5
73 3
74 0.7
83 1.5
84 2.2
85 85.4
86 10
87 3.5
97 1.3
99 2.4
100 4.4
111 1.6
113 99.99
114 11.6
115 4.1
128 33.5
129 4.1
130 1

$$$$

     RDKit          2D

  7  7  0  0  0  0  0  0  0  0999 V2000
   -3.8971   -0.7500    0.0000 C   0  0  0  0  0  0  0  0  0  0  0  0
    0.0000    1.5000    0.0000 C   0  0  0  0  0  0  0  0  0  0  0  0
    0.0000   -0.0000    0.0000 C   0  0  0  0  0  0  0  0  0  0  0  0
   -1.2990    2.2500    0.0000 C   0  0  0  0  0  0  0  0  0  0  0  0
   -1.2990   -0.7500    0.0000 C   0  0  0  0  0  0  0  0  0  0  0  0
   -2.5981    1.5000    0.0000 C   0  0  0  0  0  0  0  0  0  0  0  0
   -2.5981    0.0000    0.0000 Si  0  0  0  0  0  4  0  0  0  0  0  0
  3  2  1  0
  4  2  1  0
  5  3  1  0
  6  4  1  0
  7  1  1  0
  7  5  1  0
  7  6  1  0
M  END
>  <NAME>  (537) 
1-METHYLSILACYCLOHEXANE

>  <SYNONYMS>  (537) 


>  <SPECTRUM TYPE>  (537) 
MS1

>  <INSTRUMENT TYPE>  (537) 
EI-B

>  <INSTRUMENT>  (537) 
HITACHI RMU-6M

>  <ION MODE>  (537) 
P

>  <INCHIKEY>  (537) 
SVXKLJJAGXDRDF-UHFFFAOYSA-N

>  <FORMULA>  (537) 
C6H14Si

>  <EXACT MASS>  (537) 
114.08647697800001

>  <MW>  (537) 
114

>  <ID>  (537) 
JP011360

>  <CONTRIBUTOR>  (537) 
University of Tokyo Team, {Faculty of Engineering, University of Tokyo

>  <COMMENT>  (537) 
SMILES=C[SiH](C1)CCCC1
InChI=InChI=1S/C6H14Si/c1-7-5-3-2-4-6-7/h7H,2-6H2,1H3
computed SMILES=C[SiH]1CCCCC1
accession=JP011360
date=2016.01.19 (Created 2008.10.21, modified 2011.05.06)
author=YAMAMOTO M, DEP. CHEMISTRY, FAC. SCIENCE, NARA WOMEN'S UNIV.
license=CC BY-NC-SA
exact mass=114.08648
ionization energy=70 eV
ion type=[M]+*
computed spectral entropy=3.0597014523232713
computed normalized entropy=0.7781884900636431
SPLASH=splash10-06y9-9100000000-b0a6ccc7848306ae928d
submitter=submitter = University of Tokyo Team (Faculty of Engineering, University of Tokyo)
MoNA Rating=3.75

>  <NUM PEAKS>  (537) 
51

>  <MASS SPECTRAL PEAKS>  (537) 
26 0.5
27 5.1
28 4.1
29 6.9
30 0.6
31 3.7
32 0.5
39 5.7
40 0.7
41 6
42 6.1
43 46.4
44 9.7
45 31.2
46 2
47 1.1
53 3.3
54 1
55 6.9
56 1.6
57 6.4
58 69.4
59 25.4
60 3.8
61 0.8
65 0.6
66 1.3
67 2.3
68 1.9
69 2.7
70 5.1
71 46
72 25.9
73 8.4
74 1.4
83 2.4
84 4.7
85 31.3
86 99.99
87 10.5
88 3.5
95 1
97 10
98 3
101 0.9
111 0.9
112 4.9
113 24.9
114 52.7
115 6.7
116 2.1

$$$$

     RDKit          2D

  6  6  0  0  0  0  0  0  0  0999 V2000
    0.0000    1.5000    0.0000 C   0  0  0  0  0  0  0  0  0  0  0  0
   -0.0000   -0.0000    0.0000 C   0  0  0  0  0  0  0  0  0  0  0  0
   -1.2990    2.2500    0.0000 C   0  0  0  0  0  0  0  0  0  0  0  0
   -1.2990   -0.7500    0.0000 C   0  0  0  0  0  0  0  0  0  0  0  0
   -2.5981    1.5000    0.0000 C   0  0  0  0  0  0  0  0  0  0  0  0
   -2.5981    0.0000    0.0000 Si  0  0  0  0  0  4  0  0  0  0  0  0
  2  1  1  0
  3  1  1  0
  4  2  1  0
  5  3  1  0
  6  4  1  0
  6  5  1  0
M  END
>  <NAME>  (538) 
SILACYCLOHEXANE

>  <SYNONYMS>  (538) 


>  <SPECTRUM TYPE>  (538) 
MS1

>  <INSTRUMENT TYPE>  (538) 
EI-B

>  <INSTRUMENT>  (538) 
HITACHI RMU-6M

>  <ION MODE>  (538) 
P

>  <INCHIKEY>  (538) 
VMNDCBPWBMKDBI-UHFFFAOYSA-N

>  <FORMULA>  (538) 
C5H12Si

>  <EXACT MASS>  (538) 
100.07082691400001

>  <MW>  (538) 
100

>  <ID>  (538) 
JP011359

>  <CONTRIBUTOR>  (538) 
University of Tokyo Team, {Faculty of Engineering, University of Tokyo

>  <COMMENT>  (538) 
SMILES=C(C1)CC[SiH2]C1
InChI=InChI=1S/C5H12Si/c1-2-4-6-5-3-1/h1-6H2
computed SMILES=C1CC[SiH2]CC1
accession=JP011359
date=2016.01.19 (Created 2008.10.21, modified 2011.05.06)
author=YAMAMOTO M, DEP. CHEMISTRY, FAC. SCIENCE, NARA WOMEN'S UNIV.
license=CC BY-NC-SA
exact mass=100.07083
ionization energy=70 eV
ion type=[M]+*
computed spectral entropy=2.910668208399175
computed normalized entropy=0.7787387612220211
SPLASH=splash10-00di-9100000000-ee6c8ed6514e9a8618b2
submitter=submitter = University of Tokyo Team (Faculty of Engineering, University of Tokyo)
MoNA Rating=3.75

>  <NUM PEAKS>  (538) 
42

>  <MASS SPECTRAL PEAKS>  (538) 
26 0.7
27 4.9
28 4.6
29 5.2
30 1.4
31 5.9
32 0.9
39 5.5
40 0.7
41 7
42 4.3
43 22.8
44 27.4
45 9.8
46 1.5
53 2.7
54 1.1
55 6.6
56 2.5
57 6.8
58 10.2
59 9.6
60 1.1
65 0.6
66 1.4
67 1.8
68 0.6
69 2.7
70 10.8
71 22.2
72 99.99
73 9.3
74 3.4
83 2.6
85 3
95 0.6
97 6.2
98 6
99 10.2
100 39.6
101 4.5
102 1.5

$$$$

     RDKit          2D

  7  6  0  0  0  0  0  0  0  0999 V2000
   -2.5111    2.0993    0.0000 C   0  0  0  0  0  0  0  0  0  0  0  0
   -1.2120   -0.1507    0.0000 C   0  0  0  0  0  0  0  0  0  0  0  0
    0.8370    0.8002    0.0000 C   0  0  0  0  0  0  0  0  0  0  0  0
    1.3861    2.8493    0.0000 C   0  0  0  0  0  0  0  0  0  0  0  0
   -0.6630    3.3983    0.0000 C   0  0  0  0  0  0  0  0  0  0  0  0
   -1.2120    1.3493    0.0000 Si  0  0  0  0  0  4  0  0  0  0  0  0
    0.0870    2.0993    0.0000 Si  0  0  0  0  0  4  0  0  0  0  0  0
  6  1  1  0
  6  2  1  0
  7  3  1  0
  7  4  1  0
  7  5  1  0
  7  6  1  0
M  END
>  <NAME>  (539) 
PENTAMETHYLDISILANE

>  <SYNONYMS>  (539) 


>  <SPECTRUM TYPE>  (539) 
MS1

>  <INSTRUMENT TYPE>  (539) 
EI-B

>  <INSTRUMENT>  (539) 
HITACHI RMU-6M

>  <ION MODE>  (539) 
P

>  <INCHIKEY>  (539) 
FHQRQPAFALORSL-UHFFFAOYSA-N

>  <FORMULA>  (539) 
C5H16Si2

>  <EXACT MASS>  (539) 
132.079053572

>  <MW>  (539) 
132

>  <ID>  (539) 
JP011358

>  <CONTRIBUTOR>  (539) 
University of Tokyo Team, {Faculty of Engineering, University of Tokyo

>  <COMMENT>  (539) 
SMILES=C[SiH](C)[Si](C)(C)C
InChI=InChI=1S/C5H16Si2/c1-6(2)7(3,4)5/h6H,1-5H3
computed SMILES=C[SiH](C)[Si](C)(C)C
accession=JP011358
date=2016.01.19 (Created 2008.10.21, modified 2011.05.06)
author=YAMAMOTO M, DEP. CHEMISTRY, FAC. SCIENCE, NARA WOMEN'S UNIV.
license=CC BY-NC-SA
exact mass=132.07905
ionization energy=70 eV
ion type=[M]+*
computed spectral entropy=2.206303395752836
computed normalized entropy=0.6771755747583342
SPLASH=splash10-00di-9100000000-06dd6efa6cd0e2efe7ff
submitter=submitter = University of Tokyo Team (Faculty of Engineering, University of Tokyo)
MoNA Rating=3.75

>  <NUM PEAKS>  (539) 
26

>  <MASS SPECTRAL PEAKS>  (539) 
15 3.1
28 1
29 4.9
31 6.2
42 1.8
43 19
44 4
45 14.2
53 1
55 0.9
57 1.8
58 4.9
59 11.9
60 0.9
69 1
72 1
73 99.99
74 8
75 3.1
101 1
116 2.2
117 13.9
118 2.2
131 2.2
132 10.2
133 1

$$$$

     RDKit          2D

  5  4  0  0  0  0  0  0  0  0999 V2000
   -1.2990    0.7500    0.0000 C   0  0  0  0  0  0  0  0  0  0  0  0
    0.7500    0.2010    0.0000 C   0  0  0  0  0  0  0  0  0  0  0  0
    1.2990    2.2500    0.0000 C   0  0  0  0  0  0  0  0  0  0  0  0
   -0.7500    2.7990    0.0000 Si  0  0  0  0  0  4  0  0  0  0  0  0
    0.0000    1.5000    0.0000 Si  0  0  0  0  0  4  0  0  0  0  0  0
  5  1  1  0
  5  2  1  0
  5  3  1  0
  5  4  1  0
M  END
>  <NAME>  (540) 
1,1,1-TRIMETHYLDISILANE

>  <SYNONYMS>  (540) 


>  <SPECTRUM TYPE>  (540) 
MS1

>  <INSTRUMENT TYPE>  (540) 
EI-B

>  <INSTRUMENT>  (540) 
HITACHI RMU-6M

>  <ION MODE>  (540) 
P

>  <INCHIKEY>  (540) 
ZVGUNGATIFIZOL-UHFFFAOYSA-N

>  <FORMULA>  (540) 
C3H12Si2

>  <EXACT MASS>  (540) 
104.047753444

>  <MW>  (540) 
104

>  <ID>  (540) 
JP011357

>  <CONTRIBUTOR>  (540) 
University of Tokyo Team, {Faculty of Engineering, University of Tokyo

>  <COMMENT>  (540) 
SMILES=C[Si](C)(C)[SiH3]
InChI=InChI=1S/C3H12Si2/c1-5(2,3)4/h1-4H3
computed SMILES=C[Si](C)(C)[SiH3]
accession=JP011357
date=2016.01.19 (Created 2008.10.21, modified 2011.05.06)
author=YAMAMOTO M, DEP. CHEMISTRY, FAC. SCIENCE, NARA WOMEN'S UNIV.
license=CC BY-NC-SA
exact mass=104.04775
ionization energy=70 eV
ion type=[M]+*
computed spectral entropy=2.295274438101232
computed normalized entropy=0.6888155967295504
SPLASH=splash10-00di-9200000000-06c6032e383f95cc6d69
submitter=submitter = University of Tokyo Team (Faculty of Engineering, University of Tokyo)
MoNA Rating=3.75

>  <NUM PEAKS>  (540) 
28

>  <MASS SPECTRAL PEAKS>  (540) 
43 5.9
44 1
45 5.9
59 2.9
69 4.4
70 1
71 1
72 1
73 99.99
74 8.8
75 4
81 1
83 1
84 1
85 5.1
86 2.2
87 14
88 2.2
89 19.9
90 2.2
91 1
99 1
100 1
101 2.9
102 16.9
103 15.4
104 10.3
105 2.2

$$$$

     RDKit          2D

  8  7  0  0  0  0  0  0  0  0999 V2000
    1.6740    0.1005    0.0000 C   0  0  0  0  0  0  0  0  0  0  0  0
   -0.9240    1.6005    0.0000 C   0  0  0  0  0  0  0  0  0  0  0  0
   -0.3750   -0.4486    0.0000 C   0  0  0  0  0  0  0  0  0  0  0  0
    2.4240    1.3995    0.0000 C   0  0  0  0  0  0  0  0  0  0  0  0
    1.8750    3.4486    0.0000 C   0  0  0  0  0  0  0  0  0  0  0  0
   -0.1740    2.8995    0.0000 C   0  0  0  0  0  0  0  0  0  0  0  0
    0.3750    0.8505    0.0000 Si  0  0  0  0  0  4  0  0  0  0  0  0
    1.1250    2.1495    0.0000 Si  0  0  0  0  0  4  0  0  0  0  0  0
  7  1  1  0
  7  2  1  0
  7  3  1  0
  8  4  1  0
  8  5  1  0
  8  6  1  0
  8  7  1  0
M  END
>  <NAME>  (541) 
HEXAMETHYLDISILANE

>  <SYNONYMS>  (541) 


>  <SPECTRUM TYPE>  (541) 
MS1

>  <INSTRUMENT TYPE>  (541) 
EI-B

>  <INSTRUMENT>  (541) 
HITACHI RMU-6M

>  <ION MODE>  (541) 
P

>  <INCHIKEY>  (541) 
NEXSMEBSBIABKL-UHFFFAOYSA-N

>  <FORMULA>  (541) 
C6H18Si2

>  <EXACT MASS>  (541) 
146.094703636

>  <MW>  (541) 
146

>  <ID>  (541) 
JP011356

>  <CONTRIBUTOR>  (541) 
University of Tokyo Team, {Faculty of Engineering, University of Tokyo

>  <COMMENT>  (541) 
SMILES=C[Si](C)(C)[Si](C)(C)C
InChI=InChI=1S/C6H18Si2/c1-7(2,3)8(4,5)6/h1-6H3
computed SMILES=C[Si](C)(C)[Si](C)(C)C
accession=JP011356
date=2016.01.19 (Created 2008.10.21, modified 2011.05.06)
author=YAMAMOTO M, DEP. CHEMISTRY, FAC. SCIENCE, NARA WOMEN'S UNIV.
license=CC BY-NC-SA
exact mass=146.0947
ionization energy=70 eV
ion type=[M]+*
computed spectral entropy=1.8494846446246982
computed normalized entropy=0.6281280263272022
SPLASH=splash10-00di-9200000000-de52ff23d333dec69709
submitter=submitter = University of Tokyo Team (Faculty of Engineering, University of Tokyo)
MoNA Rating=3.75

>  <NUM PEAKS>  (541) 
19

>  <MASS SPECTRAL PEAKS>  (541) 
28 3.4
29 1.5
43 5.9
44 1.9
45 10.8
55 1.1
58 1.5
59 3.4
72 2.7
73 99.99
74 8.2
75 3.8
115 1.6
131 23
132 3.6
133 2
146 11.7
147 2
148 1

$$$$

     RDKit          2D

  6  5  0  0  0  0  0  0  0  0999 V2000
    0.0000    0.0000    0.0000 C   0  0  0  0  0  0  0  0  0  0  0  0
   -0.5490    3.5490    0.0000 C   0  0  0  0  0  0  0  0  0  0  0  0
   -2.5981    3.0000    0.0000 C   0  0  0  0  0  0  0  0  0  0  0  0
   -2.0490    0.9510    0.0000 C   0  0  0  0  0  0  0  0  0  0  0  0
    0.0000    1.5000    0.0000 C   0  0  0  0  0  0  0  0  0  0  0  0
   -1.2990    2.2500    0.0000 C   0  0  0  0  0  0  0  0  0  0  0  0
  5  1  1  0
  6  2  1  0
  6  3  1  0
  6  4  1  0
  6  5  1  0
M  END
>  <NAME>  (542) 
2,2-DIMETHYLBUTANE

>  <SYNONYMS>  (542) 


>  <SPECTRUM TYPE>  (542) 
MS1

>  <INSTRUMENT TYPE>  (542) 
EI-B

>  <INSTRUMENT>  (542) 
HITACHI RMU-6M

>  <ION MODE>  (542) 
P

>  <INCHIKEY>  (542) 
HNRMPXKDFBEGFZ-UHFFFAOYSA-N

>  <FORMULA>  (542) 
C6H14

>  <EXACT MASS>  (542) 
86.109550448

>  <MW>  (542) 
86

>  <ID>  (542) 
JP011355

>  <CONTRIBUTOR>  (542) 
University of Tokyo Team, {Faculty of Engineering, University of Tokyo

>  <COMMENT>  (542) 
computed SMILES=CCC(C)(C)C
SMILES=CCC(C)(C)C
InChI=InChI=1S/C6H14/c1-5-6(2,3)4/h5H2,1-4H3
accession=JP011355
date=2016.01.19 (Created 2008.10.21, modified 2011.05.06)
author=YAMAMOTO M, DEP. CHEMISTRY, FAC. SCIENCE, NARA WOMEN'S UNIV.
license=CC BY-NC-SA
exact mass=86.10955
ionization energy=70 eV
ion type=[M]+*
computed spectral entropy=2.3897749848262366
computed normalized entropy=0.7424253419046035
SPLASH=splash10-0596-9000000000-17b30ed1df026ca3fe98
submitter=submitter = University of Tokyo Team (Faculty of Engineering, University of Tokyo)
MoNA Rating=3.75

>  <NUM PEAKS>  (542) 
25

>  <MASS SPECTRAL PEAKS>  (542) 
15 2.7
26 2.3
27 28.6
28 5.4
29 41
32 1.4
38 2
39 25.7
40 3.5
41 65
42 2.9
43 99.99
44 3.3
50 1.7
51 2.4
53 4.6
54 1.1
55 15.5
56 32.5
57 98.5
58 4.6
69 1.3
70 3.9
71 82.5
72 4.5

$$$$

     RDKit          2D

  8  7  0  0  0  0  0  0  0  0999 V2000
    1.6740    0.1005    0.0000 C   0  0  0  0  0  0  0  0  0  0  0  0
    2.4240    1.3995    0.0000 C   0  0  0  0  0  0  0  0  0  0  0  0
    1.8750    3.4486    0.0000 C   0  0  0  0  0  0  0  0  0  0  0  0
   -0.1740    2.8995    0.0000 C   0  0  0  0  0  0  0  0  0  0  0  0
    0.3750    0.8505    0.0000 Si  0  0  0  0  0  4  0  0  0  0  0  0
   -0.9240    1.6005    0.0000 H   0  0  0  0  0  0  0  0  0  0  0  0
   -0.3750   -0.4486    0.0000 H   0  0  0  0  0  0  0  0  0  0  0  0
    1.1250    2.1495    0.0000 Si  0  0  0  0  0  4  0  0  0  0  0  0
  5  6  1  0
  5  7  1  0
  5  1  1  0
  8  2  1  0
  8  3  1  0
  8  4  1  0
  8  5  1  0
M  ISO  2   6   2   7   2
M  END
>  <NAME>  (543) 
1,1,1,2-TETRAMETHYLDISILANE (D2)

>  <SYNONYMS>  (543) 


>  <SPECTRUM TYPE>  (543) 
MS1

>  <INSTRUMENT TYPE>  (543) 
EI-B

>  <INSTRUMENT>  (543) 
HITACHI RMU-6M

>  <ION MODE>  (543) 
P

>  <INCHIKEY>  (543) 
VIPCDVWYAADTGR-BFWBPSQCSA-N

>  <FORMULA>  (543) 
C4H14Si2

>  <EXACT MASS>  (543) 
120.075957

>  <MW>  (543) 
120

>  <ID>  (543) 
JP011354

>  <CONTRIBUTOR>  (543) 
University of Tokyo Team, {Faculty of Engineering, University of Tokyo

>  <COMMENT>  (543) 
SMILES=[2H][Si]([2H])(C)[Si](C)(C)C
InChI=InChI=1S/C4H14Si2/c1-5-6(2,3)4/h5H2,1-4H3/i5D2
computed SMILES=[H][Si]([H])(C)[Si](C)(C)C
accession=JP011354
date=2016.01.19 (Created 2008.10.21, modified 2011.05.06)
author=YAMAMOTO M, DEP. CHEMISTRY, FAC. SCIENCE, NARA WOMEN'S UNIV.
license=CC BY-NC-SA
exact mass=118.0634
ionization energy=70 eV
ion type=[M]+*
computed spectral entropy=2.5088567639367763
computed normalized entropy=0.6848135793176149
SPLASH=splash10-00di-9100000000-3d5e0e7788fd63732a1f
submitter=submitter = University of Tokyo Team (Faculty of Engineering, University of Tokyo)
MoNA Rating=3.75

>  <NUM PEAKS>  (543) 
39

>  <MASS SPECTRAL PEAKS>  (543) 
28 1.9
29 3.2
31 2.4
32 1.2
42 1.9
43 17.6
44 5.3
45 12.8
46 2.3
47 1.9
53 1.5
55 1.6
57 1.3
58 2.1
59 2.2
60 6.1
61 1
69 2.7
70 1.3
71 1.3
72 1.8
73 99.99
74 10.7
75 4.3
81 1.2
85 1.1
86 1.5
87 1.1
88 1.1
101 2.4
102 1.3
103 2.2
105 12.7
106 2.1
107 1.5
116 2.1
118 2.2
120 9.5
121 1.5

$$$$

     RDKit          2D

  6  5  0  0  0  0  0  0  0  0999 V2000
    0.0000    0.0000    0.0000 C   0  0  0  0  0  0  0  0  0  0  0  0
   -0.5490    3.5490    0.0000 C   0  0  0  0  0  0  0  0  0  0  0  0
   -2.5981    3.0000    0.0000 C   0  0  0  0  0  0  0  0  0  0  0  0
   -2.0490    0.9510    0.0000 C   0  0  0  0  0  0  0  0  0  0  0  0
    0.0000    1.5000    0.0000 Si  0  0  0  0  0  4  0  0  0  0  0  0
   -1.2990    2.2500    0.0000 Si  0  0  0  0  0  4  0  0  0  0  0  0
  5  1  1  0
  6  2  1  0
  6  3  1  0
  6  4  1  0
  6  5  1  0
M  END
>  <NAME>  (544) 
1,1,1,2-TETRAMETHYLDISILANE

>  <SYNONYMS>  (544) 


>  <SPECTRUM TYPE>  (544) 
MS1

>  <INSTRUMENT TYPE>  (544) 
EI-B

>  <INSTRUMENT>  (544) 
HITACHI RMU-6M

>  <ION MODE>  (544) 
P

>  <INCHIKEY>  (544) 
VIPCDVWYAADTGR-UHFFFAOYSA-N

>  <FORMULA>  (544) 
C4H14Si2

>  <EXACT MASS>  (544) 
118.063403508

>  <MW>  (544) 
118

>  <ID>  (544) 
JP011353

>  <CONTRIBUTOR>  (544) 
University of Tokyo Team, {Faculty of Engineering, University of Tokyo

>  <COMMENT>  (544) 
SMILES=C[SiH2][Si](C)(C)C
InChI=InChI=1S/C4H14Si2/c1-5-6(2,3)4/h5H2,1-4H3
computed SMILES=C[SiH2][Si](C)(C)C
accession=JP011353
date=2016.01.19 (Created 2008.10.21, modified 2011.05.06)
author=YAMAMOTO M, DEP. CHEMISTRY, FAC. SCIENCE, NARA WOMEN'S UNIV.
license=CC BY-NC-SA
exact mass=118.0634
ionization energy=70 eV
ion type=[M]+*
computed spectral entropy=2.3901700463368027
computed normalized entropy=0.6835878385271773
SPLASH=splash10-00di-9100000000-f1a302d201c6817f3982
submitter=submitter = University of Tokyo Team (Faculty of Engineering, University of Tokyo)
MoNA Rating=3.75

>  <NUM PEAKS>  (544) 
33

>  <MASS SPECTRAL PEAKS>  (544) 
28 1.4
29 3.2
31 3.2
42 2.1
43 18.8
44 3.2
45 14.2
46 1
53 1.6
55 1.8
57 1.5
58 1.5
59 8.3
69 3.3
70 1.3
71 1.3
72 1.6
73 99.99
74 9.2
75 3.9
81 1.2
85 2.1
86 1
87 1.2
101 3.8
102 3.1
103 13.2
104 2.2
105 0.9
116 2.4
117 3.2
118 9.6
119 1.7

$$$$

     RDKit          2D

  7  6  0  0  0  0  0  0  0  0999 V2000
   -2.5111    2.0993    0.0000 C   0  0  0  0  0  0  0  0  0  0  0  0
   -1.2120   -0.1507    0.0000 C   0  0  0  0  0  0  0  0  0  0  0  0
    0.8370    0.8002    0.0000 C   0  0  0  0  0  0  0  0  0  0  0  0
   -0.6630    3.3983    0.0000 C   0  0  0  0  0  0  0  0  0  0  0  0
   -1.2120    1.3493    0.0000 C   0  0  0  0  0  0  0  0  0  0  0  0
    0.0870    2.0993    0.0000 Si  0  0  0  0  0  4  0  0  0  0  0  0
    1.3861    2.8493    0.0000 H   0  0  0  0  0  0  0  0  0  0  0  0
  6  7  1  0
  5  1  1  0
  5  2  1  0
  6  3  1  0
  6  4  1  0
  6  5  1  0
M  ISO  1   7   2
M  END
>  <NAME>  (545) 
ISOPROPYLDIMETHYLSILANE (D)

>  <SYNONYMS>  (545) 


>  <SPECTRUM TYPE>  (545) 
MS1

>  <INSTRUMENT TYPE>  (545) 
EI-B

>  <INSTRUMENT>  (545) 
HITACHI RMU-6M

>  <ION MODE>  (545) 
P

>  <INCHIKEY>  (545) 
IIRAZPOUDJHBPM-RAMDWTOOSA-N

>  <FORMULA>  (545) 
C5H14Si

>  <EXACT MASS>  (545) 
103.09275372399999

>  <MW>  (545) 
103

>  <ID>  (545) 
JP011352

>  <CONTRIBUTOR>  (545) 
University of Tokyo Team, {Faculty of Engineering, University of Tokyo

>  <COMMENT>  (545) 
SMILES=CC(C)[Si]([2H])(C)C
InChI=InChI=1S/C5H14Si/c1-5(2)6(3)4/h5-6H,1-4H3/i6D
computed SMILES=[H][Si](C)(C)C(C)C
accession=JP011352
date=2016.01.19 (Created 2008.10.21, modified 2011.05.06)
author=YAMAMOTO M, DEP. CHEMISTRY, FAC. SCIENCE, NARA WOMEN'S UNIV.
license=CC BY-NC-SA
exact mass=102.08648
ionization energy=70 eV
ion type=[M]+*
computed spectral entropy=2.392026227197094
computed normalized entropy=0.6965740070530425
SPLASH=splash10-08fr-9000000000-9e0be689f7174de5d997
submitter=submitter = University of Tokyo Team (Faculty of Engineering, University of Tokyo)
MoNA Rating=3.75

>  <NUM PEAKS>  (545) 
31

>  <MASS SPECTRAL PEAKS>  (545) 
15 1
27 3.5
28 2.3
29 3.4
31 4.8
32 2.8
39 2.8
41 3.4
42 2.4
43 12.5
44 5.5
45 4.2
46 5.5
53 1.7
55 1.8
56 1.1
57 1.7
58 29.3
59 21.8
60 99.99
61 8.3
62 3.8
67 1
72 1.1
73 4
74 1
86 1.1
88 2.9
101 1.9
103 8.8
104 1.1

$$$$

     RDKit          2D

  6  5  0  0  0  0  0  0  0  0999 V2000
   -0.0000   -0.0000    0.0000 C   0  0  0  0  0  0  0  0  0  0  0  0
    1.2990    2.2500    0.0000 C   0  0  0  0  0  0  0  0  0  0  0  0
   -1.2990    3.7500    0.0000 C   0  0  0  0  0  0  0  0  0  0  0  0
   -2.5981    1.5000    0.0000 C   0  0  0  0  0  0  0  0  0  0  0  0
   -0.0000    1.5000    0.0000 C   0  0  0  0  0  0  0  0  0  0  0  0
   -1.2990    2.2500    0.0000 Si  0  0  0  0  0  4  0  0  0  0  0  0
  5  1  1  0
  5  2  1  0
  6  3  1  0
  6  4  1  0
  6  5  1  0
M  END
>  <NAME>  (546) 
ISOPROPYLDIMETHYLSILANE

>  <SYNONYMS>  (546) 


>  <SPECTRUM TYPE>  (546) 
MS1

>  <INSTRUMENT TYPE>  (546) 
EI-B

>  <INSTRUMENT>  (546) 
HITACHI RMU-6M

>  <ION MODE>  (546) 
P

>  <INCHIKEY>  (546) 
IIRAZPOUDJHBPM-UHFFFAOYSA-N

>  <FORMULA>  (546) 
C5H14Si

>  <EXACT MASS>  (546) 
102.08647697800001

>  <MW>  (546) 
102

>  <ID>  (546) 
JP011351

>  <CONTRIBUTOR>  (546) 
University of Tokyo Team, {Faculty of Engineering, University of Tokyo

>  <COMMENT>  (546) 
SMILES=CC(C)[SiH](C)C
InChI=InChI=1S/C5H14Si/c1-5(2)6(3)4/h5-6H,1-4H3
computed SMILES=CC(C)[SiH](C)C
accession=JP011351
date=2016.01.19 (Created 2008.10.21, modified 2011.05.06)
author=YAMAMOTO M, DEP. CHEMISTRY, FAC. SCIENCE, NARA WOMEN'S UNIV.
license=CC BY-NC-SA
exact mass=102.08648
ionization energy=70 eV
ion type=[M]+*
computed spectral entropy=2.4197064911627026
computed normalized entropy=0.6861767179707423
SPLASH=splash10-0a4i-9000000000-ad275a56414e9d9cf1de
submitter=submitter = University of Tokyo Team (Faculty of Engineering, University of Tokyo)
MoNA Rating=3.75

>  <NUM PEAKS>  (546) 
34

>  <MASS SPECTRAL PEAKS>  (546) 
14 1.3
15 1.5
27 3.4
28 3.6
29 3.8
31 7.1
32 1.2
39 3.5
41 2.5
42 3.5
43 17.9
44 3.3
45 8.1
46 1
53 1.9
54 1
55 2.4
57 2.3
58 32.6
59 99.99
60 8.3
61 4.4
66 1
67 1.2
69 1.1
71 1.5
73 5.8
74 1
85 1.1
86 1.4
87 3.2
101 2.5
102 8.4
103 1.5

$$$$

     RDKit          2D

  8  7  0  0  0  0  0  0  0  0999 V2000
    1.6740    0.1005    0.0000 C   0  0  0  0  0  0  0  0  0  0  0  0
   -0.3750   -0.4486    0.0000 C   0  0  0  0  0  0  0  0  0  0  0  0
    2.4240    1.3995    0.0000 C   0  0  0  0  0  0  0  0  0  0  0  0
   -0.1740    2.8995    0.0000 C   0  0  0  0  0  0  0  0  0  0  0  0
    0.3750    0.8505    0.0000 Si  0  0  0  0  0  4  0  0  0  0  0  0
   -0.9240    1.6005    0.0000 H   0  0  0  0  0  0  0  0  0  0  0  0
    1.1250    2.1495    0.0000 Si  0  0  0  0  0  4  0  0  0  0  0  0
    1.8750    3.4486    0.0000 H   0  0  0  0  0  0  0  0  0  0  0  0
  5  6  1  0
  7  8  1  0
  5  1  1  0
  5  2  1  0
  7  3  1  0
  7  4  1  0
  7  5  1  0
M  ISO  2   6   2   8   2
M  END
>  <NAME>  (547) 
1,1,2,2-TETRAMETHYLDISILANE (D2)

>  <SYNONYMS>  (547) 


>  <SPECTRUM TYPE>  (547) 
MS1

>  <INSTRUMENT TYPE>  (547) 
EI-B

>  <INSTRUMENT>  (547) 
HITACHI RMU-6M

>  <ION MODE>  (547) 
P

>  <INCHIKEY>  (547) 
RDWAGGBALVFUHB-KCZCTXNHSA-N

>  <FORMULA>  (547) 
C4H14Si2

>  <EXACT MASS>  (547) 
120.075957

>  <MW>  (547) 
120

>  <ID>  (547) 
JP011350

>  <CONTRIBUTOR>  (547) 
University of Tokyo Team, {Faculty of Engineering, University of Tokyo

>  <COMMENT>  (547) 
SMILES=[2H][Si](C)(C)[Si]([2H])(C)C
InChI=InChI=1S/C4H14Si2/c1-5(2)6(3)4/h5-6H,1-4H3/i5D,6D
computed SMILES=[H][Si](C)(C)[Si]([H])(C)C
accession=JP011350
date=2016.01.19 (Created 2008.10.21, modified 2011.05.06)
author=YAMAMOTO M, DEP. CHEMISTRY, FAC. SCIENCE, NARA WOMEN'S UNIV.
license=CC BY-NC-SA
exact mass=118.0634
ionization energy=70 eV
ion type=[M]+*
computed spectral entropy=2.9622419988252946
computed normalized entropy=0.7392053173271268
SPLASH=splash10-074i-9200000000-c7d8112d6a72d812a412
submitter=submitter = University of Tokyo Team (Faculty of Engineering, University of Tokyo)
MoNA Rating=3.75

>  <NUM PEAKS>  (547) 
55

>  <MASS SPECTRAL PEAKS>  (547) 
28 3.3
29 4.9
30 1
31 7.9
32 5.2
39 1.2
42 3
43 38.9
44 10.4
45 6.5
46 3.3
47 1.8
50 1.6
51 1.7
52 1.8
53 2
55 1.8
56 1.2
57 1.8
58 67.9
59 12.1
60 99.99
61 8.5
62 3.7
69 4.2
70 2.4
71 2
72 1.8
73 78.6
74 12.2
75 4
76 1.1
77 1.8
81 1.2
83 1
84 1.2
85 1.8
86 3.1
87 1.8
88 2
89 1.6
99 1
101 4
102 3.5
103 10.2
104 2.4
105 31.2
106 4.7
107 2.6
116 1
118 4.7
119 1.8
120 34
121 5.2
122 2.9

$$$$

     RDKit          2D

  6  5  0  0  0  0  0  0  0  0999 V2000
   -0.0000   -0.0000    0.0000 C   0  0  0  0  0  0  0  0  0  0  0  0
    1.2990    2.2500    0.0000 C   0  0  0  0  0  0  0  0  0  0  0  0
   -1.2990    3.7500    0.0000 C   0  0  0  0  0  0  0  0  0  0  0  0
   -2.5981    1.5000    0.0000 C   0  0  0  0  0  0  0  0  0  0  0  0
   -0.0000    1.5000    0.0000 Si  0  0  0  0  0  4  0  0  0  0  0  0
   -1.2990    2.2500    0.0000 Si  0  0  0  0  0  4  0  0  0  0  0  0
  5  1  1  0
  5  2  1  0
  6  3  1  0
  6  4  1  0
  6  5  1  0
M  END
>  <NAME>  (548) 
1,1,2,2-TETRAMETHYLDISILANE

>  <SYNONYMS>  (548) 


>  <SPECTRUM TYPE>  (548) 
MS1

>  <INSTRUMENT TYPE>  (548) 
EI-B

>  <INSTRUMENT>  (548) 
HITACHI RMU-6M

>  <ION MODE>  (548) 
P

>  <INCHIKEY>  (548) 
RDWAGGBALVFUHB-UHFFFAOYSA-N

>  <FORMULA>  (548) 
C4H14Si2

>  <EXACT MASS>  (548) 
118.063403508

>  <MW>  (548) 
118

>  <ID>  (548) 
JP011349

>  <CONTRIBUTOR>  (548) 
University of Tokyo Team, {Faculty of Engineering, University of Tokyo

>  <COMMENT>  (548) 
SMILES=C[SiH](C)[SiH](C)C
InChI=InChI=1S/C4H14Si2/c1-5(2)6(3)4/h5-6H,1-4H3
computed SMILES=C[SiH](C)[SiH](C)C
accession=JP011349
date=2016.01.19 (Created 2008.10.21, modified 2011.05.06)
author=YAMAMOTO M, DEP. CHEMISTRY, FAC. SCIENCE, NARA WOMEN'S UNIV.
license=CC BY-NC-SA
exact mass=118.0634
ionization energy=70 eV
ion type=[M]+*
computed spectral entropy=2.849654831879143
computed normalized entropy=0.7442992270031628
SPLASH=splash10-0ab9-9200000000-aeea5de1da9f8e7293b3
submitter=submitter = University of Tokyo Team (Faculty of Engineering, University of Tokyo)
MoNA Rating=3.75

>  <NUM PEAKS>  (548) 
46

>  <MASS SPECTRAL PEAKS>  (548) 
28 3.4
29 5.1
31 11.7
32 1.1
39 2.1
42 3.5
43 41.4
44 6.2
45 9.6
50 2.1
51 2.8
52 3.1
53 2.3
55 2.5
57 3
58 61.5
59 99.99
60 9.1
61 3.4
69 5.3
70 1.8
71 2.4
72 1.5
73 84.7
74 7.6
75 3.4
76 1
77 2.7
81 1.5
83 1.3
84 1
85 4
86 1.5
87 3
99 1.6
100 1.1
101 7.3
102 14.6
103 29.5
104 4.6
105 2
116 1.3
117 8.4
118 32.2
119 5.2
120 2.6

$$$$

     RDKit          2D

 13 14  0  0  0  0  0  0  0  0999 V2000
    0.4487    2.2416    0.0000 C   0  0  0  0  0  0  0  0  0  0  0  0
   -2.3100    0.7500    0.0000 C   0  0  0  0  0  0  0  0  0  0  0  0
    2.6000    0.0000    0.0000 C   0  0  0  0  0  0  0  0  0  0  0  0
   -1.0100    1.5000    0.0000 C   0  0  0  0  0  0  0  0  0  0  0  0
    1.7200   -1.2100    0.0000 C   0  0  0  0  0  0  0  0  0  0  0  0
   -1.0100   -1.5000    0.0000 C   0  0  0  0  0  0  0  0  0  0  0  0
   -2.3100   -0.7500    0.0000 C   0  0  0  0  0  0  0  0  0  0  0  0
    1.7200    1.2100    0.0000 C   0  0  0  0  0  0  0  0  0  0  0  0
    0.2900    0.7500    0.0000 C   0  0  0  0  0  0  0  0  0  0  0  0
    0.2900   -0.7500    0.0000 C   0  0  0  0  0  0  0  0  0  0  0  0
   -3.6089   -1.5002    0.0000 O   0  0  0  0  0  0  0  0  0  0  0  0
    2.1853    2.6360    0.0000 O   0  0  0  0  0  0  0  0  0  0  0  0
    0.4487   -2.2416    0.0000 O   0  0  0  0  0  0  0  0  0  0  0  0
  4  2  1  0
  5  3  1  0
  7  2  1  0
  7  6  1  0
  8  3  1  0
  9  1  1  0
  9  4  1  0
  9  8  1  0
 10  5  1  0
 10  6  1  0
 10  9  1  0
 11  7  2  0
 12  8  2  0
 13 10  1  0
M  END
>  <NAME>  (549) 
1-HYDROXY-6-METHYLBICYCLO(4.3.0)NONANE-3,7-DIONE

>  <SYNONYMS>  (549) 


>  <SPECTRUM TYPE>  (549) 
MS1

>  <INSTRUMENT TYPE>  (549) 
EI-B

>  <INSTRUMENT>  (549) 
HITACHI RMU-6M

>  <ION MODE>  (549) 
P

>  <INCHIKEY>  (549) 
PUHCDQVSBDIJTM-UHFFFAOYSA-N

>  <FORMULA>  (549) 
C10H14O3

>  <EXACT MASS>  (549) 
182.09429430799997

>  <MW>  (549) 
182

>  <ID>  (549) 
JP011348

>  <CONTRIBUTOR>  (549) 
University of Tokyo Team, {Faculty of Engineering, University of Tokyo

>  <COMMENT>  (549) 
SMILES=O=C(C2)CC(O)(C1)C(C)(C2)C(=O)C1
InChI=InChI=1S/C10H14O3/c1-9-4-2-7(11)6-10(9,13)5-3-8(9)12/h13H,2-6H2,1H3
computed SMILES=O=C1CCC2(C(=O)CCC2(O)C1)C
accession=JP011348
date=2016.01.19 (Created 2008.10.21, modified 2011.05.06)
author=YAMAMOTO M, DEP. CHEMISTRY, FAC. SCIENCE, NARA WOMEN'S UNIV.
license=CC BY-NC-SA
exact mass=182.09429
ionization energy=70 eV
ion type=[M]+*
computed spectral entropy=3.8713561400278653
computed normalized entropy=0.8885964828109668
SPLASH=splash10-005c-9600000000-dad872bda11279f13c1a
submitter=submitter = University of Tokyo Team (Faculty of Engineering, University of Tokyo)
MoNA Rating=3.75

>  <NUM PEAKS>  (549) 
78

>  <MASS SPECTRAL PEAKS>  (549) 
38 2.5
39 34
40 10.2
41 51
42 11
43 63.7
44 4.2
45 2.5
50 6.4
51 11.3
52 8.5
53 23.4
54 9.3
55 32.3
56 22.9
57 9.3
58 3.8
59 1.3
62 1.5
63 4.7
64 1.3
65 11.7
66 7
67 11
68 4.9
69 47.8
70 11.9
71 19.4
72 2.1
73 3.6
74 1.5
77 14.9
78 6.4
79 50
80 14.9
81 14
82 6.6
83 18.3
84 28.9
85 6.6
86 1.5
91 7.4
92 2.8
93 15.5
94 19.5
95 34
96 9.3
97 37.8
98 11.9
99 8.1
100 1.1
105 2.5
107 19.1
108 8.5
109 39.5
110 10.8
111 12.1
112 13.2
113 23.8
114 2.5
121 17.8
122 57.7
123 27
124 8.9
125 99.99
126 17.8
127 7.6
136 14.1
137 4.9
139 3.8
140 6.6
149 4
164 39.5
165 5.9
167 4.7
182 94.1
183 14.2
185 1.9

$$$$

     RDKit          2D

 13 14  0  0  0  0  0  0  0  0999 V2000
    0.4487    2.2416    0.0000 C   0  0  0  0  0  0  0  0  0  0  0  0
   -2.3100    0.7500    0.0000 C   0  0  0  0  0  0  0  0  0  0  0  0
    2.6000    0.0000    0.0000 C   0  0  0  0  0  0  0  0  0  0  0  0
   -1.0100    1.5000    0.0000 C   0  0  0  0  0  0  0  0  0  0  0  0
    1.7200   -1.2100    0.0000 C   0  0  0  0  0  0  0  0  0  0  0  0
   -1.0100   -1.5000    0.0000 C   0  0  0  0  0  0  0  0  0  0  0  0
   -2.3100   -0.7500    0.0000 C   0  0  0  0  0  0  0  0  0  0  0  0
    1.7200    1.2100    0.0000 C   0  0  0  0  0  0  0  0  0  0  0  0
    0.2900    0.7500    0.0000 C   0  0  0  0  0  0  0  0  0  0  0  0
    0.2900   -0.7500    0.0000 C   0  0  0  0  0  0  0  0  0  0  0  0
   -3.6089   -1.5002    0.0000 O   0  0  0  0  0  0  0  0  0  0  0  0
    2.1853    2.6360    0.0000 O   0  0  0  0  0  0  0  0  0  0  0  0
    0.4487   -2.2416    0.0000 O   0  0  0  0  0  0  0  0  0  0  0  0
  4  2  1  0
  5  3  1  0
  7  2  1  0
  7  6  1  0
  8  3  1  0
  9  1  1  0
  9  4  1  0
  9  8  1  0
 10  5  1  0
 10  6  1  0
 10  9  1  0
 11  7  1  0
 12  8  1  0
 13 10  1  0
M  END
>  <NAME>  (550) 
1,3,7-TRIHYDROXY-6-METHYLBICYCLO(4.3.0)NONANE

>  <SYNONYMS>  (550) 


>  <SPECTRUM TYPE>  (550) 
MS1

>  <INSTRUMENT TYPE>  (550) 
EI-B

>  <INSTRUMENT>  (550) 
HITACHI RMU-6M

>  <ION MODE>  (550) 
P

>  <INCHIKEY>  (550) 
QNFLQEIYODCTMR-UHFFFAOYSA-N

>  <FORMULA>  (550) 
C10H18O3

>  <EXACT MASS>  (550) 
186.12559443599997

>  <MW>  (550) 
186

>  <ID>  (550) 
JP011347

>  <CONTRIBUTOR>  (550) 
University of Tokyo Team, {Faculty of Engineering, University of Tokyo

>  <COMMENT>  (550) 
SMILES=OC(C2)CC(O)(C1)C(C)(C2)C(O)C1
InChI=InChI=1S/C10H18O3/c1-9-4-2-7(11)6-10(9,13)5-3-8(9)12/h7-8,11-13H,2-6H2,1H3
computed SMILES=OC1CCC2(C)C(O)CCC2(O)C1
accession=JP011347
date=2016.01.19 (Created 2008.10.21, modified 2011.05.06)
author=YAMAMOTO M, DEP. CHEMISTRY, FAC. SCIENCE, NARA WOMEN'S UNIV.
license=CC BY-NC-SA
exact mass=186.12559
ionization energy=70 eV
ion type=[M]+*
computed spectral entropy=4.121018296971311
computed normalized entropy=0.9008259355259866
SPLASH=splash10-0006-9300000000-53efbb4371f912ba11dc
submitter=submitter = University of Tokyo Team (Faculty of Engineering, University of Tokyo)
MoNA Rating=3.75

>  <NUM PEAKS>  (550) 
97

>  <MASS SPECTRAL PEAKS>  (550) 
26 2.2
27 43.3
28 13.6
29 39.2
30 2.7
31 17.4
38 2
39 36.7
40 8.9
41 74.9
42 6.5
43 99.99
44 10.4
45 7.9
47 1.7
50 2.5
51 7.9
52 4.2
53 25.3
54 8.2
55 43.9
56 7.9
57 25.6
58 10.9
59 3.5
63 2.7
64 1.5
65 9.4
66 6.7
67 36.2
68 13.4
69 24.3
70 6.9
71 16.4
72 4.5
73 2
74 1.5
77 15.1
78 5.5
79 31.3
80 12.4
81 39.7
82 25.8
83 18.4
84 10.4
85 20.1
86 3.2
87 1.2
91 23.8
92 9.9
93 42.4
94 21.6
95 26.1
96 14.1
97 15.9
98 26.6
99 9.2
100 3.2
104 4.5
105 6.5
106 36.7
107 23.8
108 29
109 24.3
110 21.8
111 38.7
112 6.5
113 9.4
114 20.3
115 4
117 11.9
118 1.5
119 2.2
121 9.9
122 9.4
123 4.2
124 11.2
125 10.7
126 5.2
127 4.5
128 3.7
129 2
130 3
131 2.2
132 12.9
133 3
135 10.2
136 1.5
139 3
140 6.7
149 1.7
150 38
151 6
153 5
166 1.5
168 11.4
169 3

$$$$

     RDKit          2D

 12 12  0  0  0  0  0  0  0  0999 V2000
    1.3000   -0.7500    0.0000 C   0  0  0  0  0  0  0  0  0  0  0  0
    1.8127   -2.1596    0.0000 H   0  0  0  0  0  0  0  0  0  0  0  0
    2.7772   -0.4897    0.0000 H   0  0  0  0  0  0  0  0  0  0  0  0
   -1.3000    0.7500    0.0000 C   0  0  0  0  0  0  0  0  0  0  0  0
   -1.8127    2.1596    0.0000 H   0  0  0  0  0  0  0  0  0  0  0  0
   -2.7772    0.4897    0.0000 H   0  0  0  0  0  0  0  0  0  0  0  0
    1.3000    0.7500    0.0000 C   0  0  0  0  0  0  0  0  0  0  0  0
   -1.3000   -0.7500    0.0000 C   0  0  0  0  0  0  0  0  0  0  0  0
    0.0000   -1.5000    0.0000 N   0  0  0  0  0  0  0  0  0  0  0  0
    0.0000    1.5000    0.0000 N   0  0  0  0  0  0  0  0  0  0  0  0
    2.5989    1.5002    0.0000 O   0  0  0  0  0  0  0  0  0  0  0  0
   -2.5989   -1.5002    0.0000 O   0  0  0  0  0  0  0  0  0  0  0  0
  1  2  1  0
  1  3  1  0
  4  5  1  0
  4  6  1  0
  7  1  1  0
  8  4  1  0
  9  1  1  0
  9  8  2  0
 10  4  1  0
 10  7  2  0
 11  7  1  0
 12  8  1  0
M  ISO  4   2   2   3   2   5   2   6   2
M  END
>  <NAME>  (551) 
CYCLO-GLYCYLGLYCINE (3,3,6,6-D4)

>  <SYNONYMS>  (551) 


>  <SPECTRUM TYPE>  (551) 
MS1

>  <INSTRUMENT TYPE>  (551) 
EI-B

>  <INSTRUMENT>  (551) 
HITACHI RMU-6M

>  <ION MODE>  (551) 
P

>  <INCHIKEY>  (551) 
BXRNXXXXHLBUKK-LNLMKGTHSA-N

>  <FORMULA>  (551) 
C4H6N2O2

>  <EXACT MASS>  (551) 
118.06803441599999

>  <MW>  (551) 
118

>  <ID>  (551) 
JP011346

>  <CONTRIBUTOR>  (551) 
University of Tokyo Team, {Faculty of Engineering, University of Tokyo

>  <COMMENT>  (551) 
SMILES=[2H]C([2H])(N1)C(=O)NC([2H])([2H])C(=O)1
InChI=InChI=1S/C4H6N2O2/c7-3-1-5-4(8)2-6-3/h1-2H2,(H,5,8)(H,6,7)/i1D2,2D2
computed SMILES=[H]C1([H])N=C(O)C([H])([H])N=C1O
accession=JP011346
date=2016.01.19 (Created 2008.10.21, modified 2011.05.06)
author=YAMAMOTO M, DEP. CHEMISTRY, FAC. SCIENCE, NARA WOMEN'S UNIV.
license=CC BY-NC-SA
exact mass=114.04293
ionization energy=70 eV
ion type=[M]+*
computed spectral entropy=2.8582108202903216
computed normalized entropy=0.7915468834896039
SPLASH=splash10-00lr-9200000000-75e9ebb58c77f551b84e
submitter=submitter = University of Tokyo Team (Faculty of Engineering, University of Tokyo)
MoNA Rating=3.75

>  <NUM PEAKS>  (551) 
37

>  <MASS SPECTRAL PEAKS>  (551) 
18 12.94
27 3.29
28 17.71
29 63.34
30 27.81
31 54.6
32 77.98
33 55.05
38 1.02
39 1.02
40 1.02
41 1.59
42 3.18
43 10.78
44 45.29
45 10.78
46 10.33
47 30.31
56 1.7
57 2.61
58 9.88
59 2.61
60 4.99
61 1.14
62 1.7
72 0.91
73 4.31
74 10.33
75 31.56
76 1.36
88 1.02
89 1.48
90 4.09
116 2.72
117 38.14
118 99.99
119 6.58

$$$$

     RDKit          2D

 10 10  0  0  0  0  0  0  0  0999 V2000
    2.0285   -0.7989    0.0000 C   0  0  0  0  0  0  0  0  0  0  0  0
    1.8177    1.1977    0.0000 C   0  0  0  0  0  0  0  0  0  0  0  0
   -2.8950   -0.9104    0.0000 C   0  0  0  0  0  0  0  0  0  0  0  0
   -1.5498   -2.3970    0.0000 C   0  0  0  0  0  0  0  0  0  0  0  0
   -0.1851    1.1908    0.0000 C   0  0  0  0  0  0  0  0  0  0  0  0
   -1.5608    0.5879    0.0000 C   0  0  0  0  0  0  0  0  0  0  0  0
    0.0647   -1.2166    0.0000 C   0  0  0  0  0  0  0  0  0  0  0  0
    0.8147    0.0824    0.0000 C   0  0  0  0  0  0  0  0  0  0  0  0
   -1.3951   -0.9050    0.0000 C   0  0  0  0  0  0  0  0  0  0  0  0
    0.6742   -2.5872    0.0000 O   0  0  0  0  0  0  0  0  0  0  0  0
  6  5  1  0
  8  1  1  0
  8  2  1  0
  8  5  1  0
  8  7  1  0
  9  3  1  0
  9  4  1  0
  9  6  1  0
  9  7  1  0
 10  7  2  0
M  END
>  <NAME>  (552) 
2,2,5,5-TETRAMETHYLCYCLOPENTANONE

>  <SYNONYMS>  (552) 


>  <SPECTRUM TYPE>  (552) 
MS1

>  <INSTRUMENT TYPE>  (552) 
EI-B

>  <INSTRUMENT>  (552) 
HITACHI RMU-6M

>  <ION MODE>  (552) 
P

>  <INCHIKEY>  (552) 
BXYUQRQZHXARGL-UHFFFAOYSA-N

>  <FORMULA>  (552) 
C9H16O

>  <EXACT MASS>  (552) 
140.120115132

>  <MW>  (552) 
140

>  <ID>  (552) 
JP011345

>  <CONTRIBUTOR>  (552) 
University of Tokyo Team, {Faculty of Engineering, University of Tokyo

>  <COMMENT>  (552) 
SMILES=O=C(C(C)(C)1)C(C)(C)CC1
InChI=InChI=1S/C9H16O/c1-8(2)5-6-9(3,4)7(8)10/h5-6H2,1-4H3
computed SMILES=O=C1C(C)(C)CCC1(C)C
accession=JP011345
date=2016.01.19 (Created 2008.10.21, modified 2011.05.06)
author=YAMAMOTO M, DEP. CHEMISTRY, FAC. SCIENCE, NARA WOMEN'S UNIV.
license=CC BY-NC-SA
exact mass=140.12012
ionization energy=70 eV
ion type=[M]+*
computed spectral entropy=2.333018288778499
computed normalized entropy=0.7787806371664581
SPLASH=splash10-0a4i-9000000000-be91db224640e551f8d7
submitter=submitter = University of Tokyo Team (Faculty of Engineering, University of Tokyo)
MoNA Rating=3.75

>  <NUM PEAKS>  (552) 
20

>  <MASS SPECTRAL PEAKS>  (552) 
27 10.5
28 4.1
29 9.6
39 12.6
40 3.6
41 36.9
42 4.8
43 3.3
53 4
55 10.6
56 99.99
57 43.1
69 16.8
70 3.8
72 14.5
97 3.1
112 4.1
125 2
140 15.5
141 1.9

$$$$

     RDKit          2D

  9  9  0  0  0  0  0  0  0  0999 V2000
    2.2808    0.5629    0.0000 C   0  0  0  0  0  0  0  0  0  0  0  0
   -2.9207   -0.5873    0.0000 C   0  0  0  0  0  0  0  0  0  0  0  0
   -1.5754   -2.0739    0.0000 C   0  0  0  0  0  0  0  0  0  0  0  0
   -0.2107    1.5139    0.0000 C   0  0  0  0  0  0  0  0  0  0  0  0
   -1.5864    0.9110    0.0000 C   0  0  0  0  0  0  0  0  0  0  0  0
    0.7891    0.4055    0.0000 C   0  0  0  0  0  0  0  0  0  0  0  0
    0.0391   -0.8935    0.0000 C   0  0  0  0  0  0  0  0  0  0  0  0
   -1.4207   -0.5819    0.0000 C   0  0  0  0  0  0  0  0  0  0  0  0
    0.6486   -2.2641    0.0000 O   0  0  0  0  0  0  0  0  0  0  0  0
  5  4  1  0
  6  1  1  0
  6  4  1  0
  7  6  1  0
  8  2  1  0
  8  3  1  0
  8  5  1  0
  8  7  1  0
  9  7  2  0
M  END
>  <NAME>  (553) 
2,2,5-TRIMETHYLCYCLOPENTANONE

>  <SYNONYMS>  (553) 


>  <SPECTRUM TYPE>  (553) 
MS1

>  <INSTRUMENT TYPE>  (553) 
EI-B

>  <INSTRUMENT>  (553) 
HITACHI RMU-6M

>  <ION MODE>  (553) 
P

>  <INCHIKEY>  (553) 
KWJHOYYJYPCTBS-UHFFFAOYSA-N

>  <FORMULA>  (553) 
C8H14O

>  <EXACT MASS>  (553) 
126.104465068

>  <MW>  (553) 
126

>  <ID>  (553) 
JP011344

>  <CONTRIBUTOR>  (553) 
University of Tokyo Team, {Faculty of Engineering, University of Tokyo

>  <COMMENT>  (553) 
SMILES=CC(C1)C(=O)C(C)(C)C1
InChI=InChI=1S/C8H14O/c1-6-4-5-8(2,3)7(6)9/h6H,4-5H2,1-3H3
computed SMILES=O=C1C(C)CCC1(C)C
accession=JP011344
date=2016.01.19 (Created 2008.10.21, modified 2011.05.06)
author=YAMAMOTO M, DEP. CHEMISTRY, FAC. SCIENCE, NARA WOMEN'S UNIV.
license=CC BY-NC-SA
exact mass=126.10447
ionization energy=70 eV
ion type=[M]+*
computed spectral entropy=2.594558748440437
computed normalized entropy=0.8163986159279041
SPLASH=splash10-0a4i-9100000000-6865e12137d7091e3a29
submitter=submitter = University of Tokyo Team (Faculty of Engineering, University of Tokyo)
MoNA Rating=3.75

>  <NUM PEAKS>  (553) 
24

>  <MASS SPECTRAL PEAKS>  (553) 
27 12
28 10.7
29 8.2
39 14.9
40 5.1
41 32
42 8.1
43 4.5
55 14.9
56 99.99
57 16.8
68 3.6
69 13.6
70 7.8
71 5
72 3.5
82 3.1
83 4.7
84 3.5
93 5.1
108 4.5
111 6.7
126 17.7
127 2.8

$$$$

     RDKit          2D

 14 14  0  0  0  0  0  0  0  0999 V2000
    1.8532   -0.9044    0.0000 C   0  0  0  0  0  0  0  0  0  0  0  0
    0.7379   -1.9074    0.0000 H   0  0  0  0  0  0  0  0  0  0  0  0
    2.8562   -2.0197    0.0000 H   0  0  0  0  0  0  0  0  0  0  0  0
    4.5798    0.1954    0.0000 H   0  0  0  0  0  0  0  0  0  0  0  0
    1.4894    2.4450    0.0000 C   0  0  0  0  0  0  0  0  0  0  0  0
    3.2168    0.0659    0.0000 H   0  0  0  0  0  0  0  0  0  0  0  0
    2.7032    3.3263    0.0000 H   0  0  0  0  0  0  0  0  0  0  0  0
    0.6081    3.6588    0.0000 H   0  0  0  0  0  0  0  0  0  0  0  0
   -2.3225    2.2690    0.0000 C   0  0  0  0  0  0  0  0  0  0  0  0
   -2.4883    0.7761    0.0000 C   0  0  0  0  0  0  0  0  0  0  0  0
   -0.8628    2.5807    0.0000 C   0  0  0  0  0  0  0  0  0  0  0  0
   -1.1125    0.1733    0.0000 C   0  0  0  0  0  0  0  0  0  0  0  0
   -0.1128    1.2816    0.0000 C   0  0  0  0  0  0  0  0  0  0  0  0
   -0.6960   -1.7624    0.0000 O   0  0  0  0  0  0  0  0  0  0  0  0
  1  2  1  0
  1  3  1  0
  1  4  1  0
  5  6  1  0
  5  7  1  0
  5  8  1  0
 10  9  1  0
 11  9  1  0
 12 10  1  0
 13  1  1  0
 13  5  1  0
 13 11  1  0
 13 12  1  0
 14 12  2  0
M  ISO  6   2   2   3   2   4   2   6   2   7   2   8   2
M  END
>  <NAME>  (554) 
2,2-DIMETHYLCYCLOPENTANONE (D6-METHYL)

>  <SYNONYMS>  (554) 


>  <SPECTRUM TYPE>  (554) 
MS1

>  <INSTRUMENT TYPE>  (554) 
EI-B

>  <INSTRUMENT>  (554) 
HITACHI RMU-6M

>  <ION MODE>  (554) 
P

>  <INCHIKEY>  (554) 
FTGZMZBYOHMEPS-WFGJKAKNSA-N

>  <FORMULA>  (554) 
C7H12O

>  <EXACT MASS>  (554) 
118.12647548

>  <MW>  (554) 
118

>  <ID>  (554) 
JP011343

>  <CONTRIBUTOR>  (554) 
University of Tokyo Team, {Faculty of Engineering, University of Tokyo

>  <COMMENT>  (554) 
SMILES=[2H]C([2H])([2H])C(C1)(C([2H])([2H])[2H])C(=O)CC1
InChI=InChI=1S/C7H12O/c1-7(2)5-3-4-6(7)8/h3-5H2,1-2H3/i1D3,2D3
computed SMILES=[H]C([H])([H])C1(C(=O)CCC1)C([H])([H])[H]
accession=JP011343
date=2016.01.19 (Created 2008.10.21, modified 2011.05.06)
author=YAMAMOTO M, DEP. CHEMISTRY, FAC. SCIENCE, NARA WOMEN'S UNIV.
license=CC BY-NC-SA
exact mass=112.08882
ionization energy=70 eV
ion type=[M]+*
computed spectral entropy=2.774825471110775
computed normalized entropy=0.8240515865580843
SPLASH=splash10-03di-9100000000-f522213444ee16274d1f
submitter=submitter = University of Tokyo Team (Faculty of Engineering, University of Tokyo)
MoNA Rating=3.75

>  <NUM PEAKS>  (554) 
29

>  <MASS SPECTRAL PEAKS>  (554) 
31 3.9
32 35.9
39 5.8
40 7.4
41 10.6
42 11.8
43 7.3
44 19.1
45 24.8
46 11
55 7.1
56 3.9
57 2.1
58 7.9
59 5
60 3.9
61 10.5
62 99.99
63 4.9
72 8
73 8.1
74 2.2
75 3.9
76 2.5
99 5.2
100 10.1
101 3.2
118 21.6
119 2.8

$$$$

     RDKit          2D

  8  8  0  0  0  0  0  0  0  0999 V2000
   -0.5857    1.0412    0.0000 C   0  0  0  0  0  0  0  0  0  0  0  0
   -2.4202    0.2254    0.0000 C   0  0  0  0  0  0  0  0  0  0  0  0
   -0.8003   -2.7925    0.0000 C   0  0  0  0  0  0  0  0  0  0  0  0
    0.5754   -2.1896    0.0000 C   0  0  0  0  0  0  0  0  0  0  0  0
   -1.8001   -1.6841    0.0000 C   0  0  0  0  0  0  0  0  0  0  0  0
    0.4097   -0.6967    0.0000 C   0  0  0  0  0  0  0  0  0  0  0  0
   -1.0501   -0.3851    0.0000 C   0  0  0  0  0  0  0  0  0  0  0  0
    1.5219    0.3098    0.0000 O   0  0  0  0  0  0  0  0  0  0  0  0
  4  3  1  0
  5  3  1  0
  6  4  1  0
  7  1  1  0
  7  2  1  0
  7  5  1  0
  7  6  1  0
  8  6  2  0
M  END
>  <NAME>  (555) 
2,2-DIMETHYLCYCLOPENTANONE

>  <SYNONYMS>  (555) 


>  <SPECTRUM TYPE>  (555) 
MS1

>  <INSTRUMENT TYPE>  (555) 
EI-B

>  <INSTRUMENT>  (555) 
HITACHI RMU-6M

>  <ION MODE>  (555) 
P

>  <INCHIKEY>  (555) 
FTGZMZBYOHMEPS-UHFFFAOYSA-N

>  <FORMULA>  (555) 
C7H12O

>  <EXACT MASS>  (555) 
112.088815004

>  <MW>  (555) 
112

>  <ID>  (555) 
JP011342

>  <CONTRIBUTOR>  (555) 
University of Tokyo Team, {Faculty of Engineering, University of Tokyo

>  <COMMENT>  (555) 
SMILES=O=C(C1)C(C)(C)CC1
InChI=InChI=1S/C7H12O/c1-7(2)5-3-4-6(7)8/h3-5H2,1-2H3
computed SMILES=O=C1CCCC1(C)C
accession=JP011342
date=2016.01.19 (Created 2008.10.21, modified 2011.05.06)
author=YAMAMOTO M, DEP. CHEMISTRY, FAC. SCIENCE, NARA WOMEN'S UNIV.
license=CC BY-NC-SA
exact mass=112.08882
ionization energy=70 eV
ion type=[M]+*
computed spectral entropy=2.5329054551863233
computed normalized entropy=0.7969989151848352
SPLASH=splash10-0a4i-9000000000-9067b42b2c1d698938f3
submitter=submitter = University of Tokyo Team (Faculty of Engineering, University of Tokyo)
MoNA Rating=3.75

>  <NUM PEAKS>  (555) 
24

>  <MASS SPECTRAL PEAKS>  (555) 
27 13
28 8.6
29 6.4
39 17.6
40 5.6
41 39
42 8.2
43 4.2
53 3.9
54 2.4
55 12.9
56 99.99
57 6.3
67 3
68 7.8
69 9.7
70 3.5
79 5.9
83 2.4
84 3.3
94 8.2
97 7.6
112 21.8
113 2.4

$$$$

     RDKit          2D

 10 10  0  0  0  0  0  0  0  0999 V2000
    2.8331    0.2364    0.0000 C   0  0  0  0  0  0  0  0  0  0  0  0
    3.4426    1.6070    0.0000 H   0  0  0  0  0  0  0  0  0  0  0  0
   -1.9806   -1.9149    0.0000 C   0  0  0  0  0  0  0  0  0  0  0  0
   -3.4083   -1.4550    0.0000 H   0  0  0  0  0  0  0  0  0  0  0  0
    0.3416    1.1873    0.0000 C   0  0  0  0  0  0  0  0  0  0  0  0
   -1.0341    0.5844    0.0000 C   0  0  0  0  0  0  0  0  0  0  0  0
    1.3414    0.0789    0.0000 C   0  0  0  0  0  0  0  0  0  0  0  0
   -0.8684   -0.9085    0.0000 C   0  0  0  0  0  0  0  0  0  0  0  0
    0.5914   -1.2201    0.0000 C   0  0  0  0  0  0  0  0  0  0  0  0
    1.2009   -2.5907    0.0000 O   0  0  0  0  0  0  0  0  0  0  0  0
  1  2  1  0
  3  4  1  0
  6  5  1  0
  7  1  1  0
  7  5  1  0
  8  3  1  0
  8  6  1  0
  9  7  1  0
  9  8  1  0
 10  9  2  0
M  ISO  2   2   2   4   2
M  END
>  <NAME>  (556) 
2,5-DIMETHYLCYCLOPENTANONE (2,5-D2)

>  <SYNONYMS>  (556) 


>  <SPECTRUM TYPE>  (556) 
MS1

>  <INSTRUMENT TYPE>  (556) 
EI-B

>  <INSTRUMENT>  (556) 
HITACHI RMU-6M

>  <ION MODE>  (556) 
P

>  <INCHIKEY>  (556) 
MKLARKDYEBNZFK-QDNHWIQGSA-N

>  <FORMULA>  (556) 
C7H12O

>  <EXACT MASS>  (556) 
114.10136849599999

>  <MW>  (556) 
114

>  <ID>  (556) 
JP011341

>  <CONTRIBUTOR>  (556) 
University of Tokyo Team, {Faculty of Engineering, University of Tokyo

>  <COMMENT>  (556) 
SMILES=[2H]C([H])([H])C(C1)C(=O)C(C1)C([2H])([H])[H]
InChI=InChI=1S/C7H12O/c1-5-3-4-6(2)7(5)8/h5-6H,3-4H2,1-2H3/i1D,2D
computed SMILES=[H]CC1C(=O)C(CC1)C[H]
accession=JP011341
date=2016.01.19 (Created 2008.10.21, modified 2011.05.06)
author=YAMAMOTO M, DEP. CHEMISTRY, FAC. SCIENCE, NARA WOMEN'S UNIV.
license=CC BY-NC-SA
exact mass=112.08882
ionization energy=70 eV
ion type=[M]+*
computed spectral entropy=3.130982475844797
computed normalized entropy=0.8607308083886884
SPLASH=splash10-0006-9000000000-2296b33d1b8a2253944c
submitter=submitter = University of Tokyo Team (Faculty of Engineering, University of Tokyo)
MoNA Rating=3.75

>  <NUM PEAKS>  (556) 
38

>  <MASS SPECTRAL PEAKS>  (556) 
26 3.1
27 13.2
28 20
29 16.1
30 7.4
39 14
40 14.3
41 21.5
42 32.4
43 99.99
44 20
45 4.4
51 2.6
52 2.1
53 2.6
54 4
55 10.4
56 35
57 24.6
58 9.1
59 6.6
67 3.9
68 2.5
69 28.1
70 14.8
71 17.3
72 4
81 5.5
82 2.5
83 3.2
84 3.8
85 4.2
86 5.9
96 3.8
99 11.9
113 3.3
114 32.4
115 3.1

$$$$

     RDKit          2D

 10 10  0  0  0  0  0  0  0  0999 V2000
   -2.6377    0.8500    0.0000 C   0  0  0  0  0  0  0  0  0  0  0  0
   -2.1778    2.2777    0.0000 H   0  0  0  0  0  0  0  0  0  0  0  0
   -4.0655    1.3099    0.0000 H   0  0  0  0  0  0  0  0  0  0  0  0
   -3.0977   -0.5778    0.0000 H   0  0  0  0  0  0  0  0  0  0  0  0
    1.2100    0.3900    0.0000 C   0  0  0  0  0  0  0  0  0  0  0  0
    0.0000    1.2800    0.0000 C   0  0  0  0  0  0  0  0  0  0  0  0
    0.7500   -1.0300    0.0000 C   0  0  0  0  0  0  0  0  0  0  0  0
   -1.2100    0.3900    0.0000 C   0  0  0  0  0  0  0  0  0  0  0  0
   -0.7500   -1.0300    0.0000 C   0  0  0  0  0  0  0  0  0  0  0  0
   -1.6322   -2.2431    0.0000 O   0  0  0  0  0  0  0  0  0  0  0  0
  1  2  1  0
  1  3  1  0
  1  4  1  0
  6  5  1  0
  7  5  1  0
  8  1  1  0
  8  6  1  0
  9  7  1  0
  9  8  1  0
 10  9  2  0
M  ISO  3   2   2   3   2   4   2
M  END
>  <NAME>  (557) 
2-METHYLCYCLOPENTANONE (D3-METHYL)

>  <SYNONYMS>  (557) 


>  <SPECTRUM TYPE>  (557) 
MS1

>  <INSTRUMENT TYPE>  (557) 
EI-B

>  <INSTRUMENT>  (557) 
HITACHI RMU-6M

>  <ION MODE>  (557) 
P

>  <INCHIKEY>  (557) 
ZIXLDMFVRPABBX-FIBGUPNXSA-N

>  <FORMULA>  (557) 
C6H10O

>  <EXACT MASS>  (557) 
101.091995178

>  <MW>  (557) 
101

>  <ID>  (557) 
JP011339

>  <CONTRIBUTOR>  (557) 
University of Tokyo Team, {Faculty of Engineering, University of Tokyo

>  <COMMENT>  (557) 
SMILES=[2H]C([2H])([2H])C(C1)C(=O)CC1
InChI=InChI=1S/C6H10O/c1-5-3-2-4-6(5)7/h5H,2-4H2,1H3/i1D3
computed SMILES=[H]C([H])([H])C1C(=O)CCC1
accession=JP011339
date=2016.01.19 (Created 2008.10.21, modified 2011.05.06)
author=YAMAMOTO M, DEP. CHEMISTRY, FAC. SCIENCE, NARA WOMEN'S UNIV.
license=CC BY-NC-SA
exact mass=98.07316
ionization energy=70 eV
ion type=[M]+*
computed spectral entropy=3.0642197886553153
computed normalized entropy=0.8923212598617501
SPLASH=splash10-0595-9000000000-1e0b3b9b2aeb2e84699c
submitter=submitter = University of Tokyo Team (Faculty of Engineering, University of Tokyo)
MoNA Rating=3.75

>  <NUM PEAKS>  (557) 
31

>  <MASS SPECTRAL PEAKS>  (557) 
26 5.6
27 18.3
28 31.3
29 12.7
30 5.6
31 7.7
32 4.5
39 13.6
40 9.8
41 20.8
42 16.3
43 24.3
44 29.2
45 99.99
46 13.2
55 44.8
56 16.3
57 8.1
58 20.4
59 11
71 9.3
72 35.8
73 19
74 10.3
81 1.7
82 4.1
83 10.8
84 8.1
100 4.5
101 45.8
102 4.7

$$$$

     RDKit          2D

  7  7  0  0  0  0  0  0  0  0999 V2000
   -0.5227    1.8503    0.0000 C   0  0  0  0  0  0  0  0  0  0  0  0
    1.0029   -1.7119    0.0000 C   0  0  0  0  0  0  0  0  0  0  0  0
    1.1686   -0.2190    0.0000 C   0  0  0  0  0  0  0  0  0  0  0  0
   -0.4569   -2.0235    0.0000 C   0  0  0  0  0  0  0  0  0  0  0  0
   -0.2071    0.3839    0.0000 C   0  0  0  0  0  0  0  0  0  0  0  0
   -1.2069   -0.7245    0.0000 C   0  0  0  0  0  0  0  0  0  0  0  0
   -2.6986   -0.5670    0.0000 O   0  0  0  0  0  0  0  0  0  0  0  0
  3  2  1  0
  4  2  1  0
  5  1  1  0
  5  3  1  0
  6  4  1  0
  6  5  1  0
  7  6  2  0
M  END
>  <NAME>  (558) 
2-METHYLCYCLOPENTANONE

>  <SYNONYMS>  (558) 


>  <SPECTRUM TYPE>  (558) 
MS1

>  <INSTRUMENT TYPE>  (558) 
EI-B

>  <INSTRUMENT>  (558) 
HITACHI RMU-6M

>  <ION MODE>  (558) 
P

>  <INCHIKEY>  (558) 
ZIXLDMFVRPABBX-UHFFFAOYSA-N

>  <FORMULA>  (558) 
C6H10O

>  <EXACT MASS>  (558) 
98.07316494

>  <MW>  (558) 
98

>  <ID>  (558) 
JP011338

>  <CONTRIBUTOR>  (558) 
University of Tokyo Team, {Faculty of Engineering, University of Tokyo

>  <COMMENT>  (558) 
SMILES=CC(C1)C(=O)CC1
InChI=InChI=1S/C6H10O/c1-5-3-2-4-6(5)7/h5H,2-4H2,1H3
computed SMILES=O=C1CCCC1C
accession=JP011338
date=2016.01.19 (Created 2008.10.21, modified 2011.05.06)
author=YAMAMOTO M, DEP. CHEMISTRY, FAC. SCIENCE, NARA WOMEN'S UNIV.
license=CC BY-NC-SA
exact mass=98.07316
ionization energy=70 eV
ion type=[M]+*
computed spectral entropy=2.5980899100611343
computed normalized entropy=0.8533653350257081
SPLASH=splash10-0006-9000000000-6fe195a9eefd663b40ac
submitter=submitter = University of Tokyo Team (Faculty of Engineering, University of Tokyo)
MoNA Rating=3.75

>  <NUM PEAKS>  (558) 
21

>  <MASS SPECTRAL PEAKS>  (558) 
26 5.4
27 24.8
28 19.3
29 9.9
38 3.9
39 21.7
40 6.7
41 40.2
42 99.99
43 13
53 4.2
54 4.7
55 33
56 14
69 28.5
70 18.7
80 4.3
83 9.9
97 2.8
98 35.2
99 3.3

$$$$

     RDKit          2D

 14 13  0  0  0  0  0  0  0  0999 V2000
    3.8971    6.7500    0.0000 C   0  0  0  0  0  0  0  0  0  0  0  0
    2.5981    7.5000    0.0000 C   0  0  0  0  0  0  0  0  0  0  0  0
    1.2990    6.7500    0.0000 C   0  0  0  0  0  0  0  0  0  0  0  0
    0.0000    7.5000    0.0000 C   0  0  0  0  0  0  0  0  0  0  0  0
   -1.2990    6.7500    0.0000 C   0  0  0  0  0  0  0  0  0  0  0  0
   -2.5981    7.5000    0.0000 C   0  0  0  0  0  0  0  0  0  0  0  0
   -3.8971    6.7500    0.0000 C   0  0  0  0  0  0  0  0  0  0  0  0
   -5.1962    7.5000    0.0000 C   0  0  0  0  0  0  0  0  0  0  0  0
   -6.4952    6.7500    0.0000 C   0  0  0  0  0  0  0  0  0  0  0  0
   -7.7942    7.5000    0.0000 C   0  0  0  0  0  0  0  0  0  0  0  0
   -9.0933    6.7500    0.0000 C   0  0  0  0  0  0  0  0  0  0  0  0
  -10.3923    7.5000    0.0000 C   0  0  0  0  0  0  0  0  0  0  0  0
  -10.3923    9.0000    0.0000 O   0  0  0  0  0  0  0  0  0  0  0  0
  -11.6913    6.7500    0.0000 O   0  0  0  0  0  0  0  0  0  0  0  0
  2  1  1  0
  3  2  1  0
  4  3  1  0
  5  4  1  0
  6  5  1  0
  7  6  1  0
  8  7  1  0
  9  8  1  0
 10  9  1  0
 11 10  1  0
 12 11  1  0
 13 12  2  0
 14 12  1  0
M  END
>  <NAME>  (559) 
LAURIC ACID

>  <SYNONYMS>  (559) 


>  <SPECTRUM TYPE>  (559) 
MS1

>  <INSTRUMENT TYPE>  (559) 
EI-B

>  <INSTRUMENT>  (559) 
HITACHI RMU-6M

>  <ION MODE>  (559) 
P

>  <INCHIKEY>  (559) 
POULHZVOKOAJMA-UHFFFAOYSA-N

>  <FORMULA>  (559) 
C12H24O2

>  <EXACT MASS>  (559) 
200.177630008

>  <MW>  (559) 
200

>  <ID>  (559) 
JP011337

>  <CONTRIBUTOR>  (559) 
University of Tokyo Team, {Faculty of Engineering, University of Tokyo

>  <COMMENT>  (559) 
SMILES=CCCCCCCCCCCC(O)=O
InChI=InChI=1S/C12H24O2/c1-2-3-4-5-6-7-8-9-10-11-12(13)14/h2-11H2,1H3,(H,13,14)
computed SMILES=O=C(O)CCCCCCCCCCC
accession=JP011337
date=2016.01.19 (Created 2008.10.21, modified 2011.05.06)
author=YAMAMOTO M, DEP. CHEMISTRY, FAC. SCIENCE, NARA WOMEN'S UNIV.
license=CC BY-NC-SA
exact mass=200.17763
ionization energy=70 eV
ion type=[M]+*
computed spectral entropy=3.532514284678809
computed normalized entropy=0.7909957372215324
SPLASH=splash10-0706-9100000000-2dd666a9a0355b1ca144
submitter=submitter = University of Tokyo Team (Faculty of Engineering, University of Tokyo)
MoNA Rating=3.75

>  <NUM PEAKS>  (559) 
87

>  <MASS SPECTRAL PEAKS>  (559) 
26 1.6
27 31.4
28 7.6
29 48.9
30 1.3
31 2.8
39 16.2
40 3.4
41 75.5
42 15.9
43 80.1
44 2.9
45 8.6
51 1.9
53 5.2
54 4.6
55 49.1
56 12.9
57 47.8
58 2.8
59 4.6
60 99.99
61 20
62 1.4
65 0.7
66 0.6
67 4.2
68 3.2
69 24
70 7.9
71 25
72 1.9
73 92.7
74 9.2
75 0.9
77 2.1
78 0.7
79 2.9
80 0.6
81 2.8
82 3.1
83 11.8
84 7.9
85 22.9
86 2
87 12.5
88 2
89 1
91 0.9
93 1.2
94 0.9
95 2.1
96 2.9
97 8.2
98 7.8
99 5.7
100 0.7
101 8.9
102 2.5
105 1
107 3.4
108 0.6
109 0.9
110 1.5
111 4.4
112 3
113 0.8
115 10.6
116 1.6
129 20.8
130 2.3
138 3.9
139 1.3
140 5.2
141 3.8
142 0.8
143 3.9
144 0.7
157 14.6
158 2.1
164 1.4
171 4.9
172 1.3
181 0.9
183 1
200 23.7
201 4

$$$$

     RDKit          2D

  7  7  0  0  0  0  0  0  0  0999 V2000
   -0.7500    1.0300    0.0000 C   0  0  0  0  0  0  0  0  0  0  0  0
    0.7500    1.0300    0.0000 C   0  0  0  0  0  0  0  0  0  0  0  0
   -1.2100   -0.3900    0.0000 C   0  0  0  0  0  0  0  0  0  0  0  0
    1.2100   -0.3900    0.0000 C   0  0  0  0  0  0  0  0  0  0  0  0
   -2.6377   -0.8500    0.0000 O   0  0  0  0  0  0  0  0  0  0  0  0
    2.6377   -0.8500    0.0000 O   0  0  0  0  0  0  0  0  0  0  0  0
   -0.0000   -1.2800    0.0000 O   0  0  0  0  0  0  0  0  0  0  0  0
  2  1  2  0
  3  1  1  0
  4  2  1  0
  5  3  2  0
  6  4  2  0
  7  3  1  0
  7  4  1  0
M  END
>  <NAME>  (560) 
MALIC ANHYDRIDE

>  <SYNONYMS>  (560) 


>  <SPECTRUM TYPE>  (560) 
MS1

>  <INSTRUMENT TYPE>  (560) 
EI-B

>  <INSTRUMENT>  (560) 
HITACHI RMU-6M

>  <ION MODE>  (560) 
P

>  <INCHIKEY>  (560) 
FPYJFEHAWHCUMM-UHFFFAOYSA-N

>  <FORMULA>  (560) 
C4H2O3

>  <EXACT MASS>  (560) 
98.000393924

>  <MW>  (560) 
98

>  <ID>  (560) 
JP011336

>  <CONTRIBUTOR>  (560) 
University of Tokyo Team, {Faculty of Engineering, University of Tokyo

>  <COMMENT>  (560) 
SMILES=O=c(c1)oc(=O)c1
InChI=InChI=1S/C4H2O3/c5-3-1-2-4(6)7-3/h1-2H
computed SMILES=O=C1OC(=O)C=C1
accession=JP011336
date=2016.01.19 (Created 2008.10.21, modified 2011.05.06)
author=YAMAMOTO M, DEP. CHEMISTRY, FAC. SCIENCE, NARA WOMEN'S UNIV.
license=CC BY-NC-SA
exact mass=98.00039
ionization energy=70 eV
ion type=[M]+*
computed spectral entropy=2.0277431430270676
computed normalized entropy=0.6223704912864364
SPLASH=splash10-0fb9-9000000000-60d6e75945840ee88b72
submitter=submitter = University of Tokyo Team (Faculty of Engineering, University of Tokyo)
MoNA Rating=3.75

>  <NUM PEAKS>  (560) 
26

>  <MASS SPECTRAL PEAKS>  (560) 
24 3.7
25 14.9
26 99.99
27 2.8
28 13.6
29 3.3
32 2.4
36 1.6
37 1.9
40 1.2
41 4.1
42 1.2
44 5.2
45 1.1
52 2.7
53 9.4
54 74.8
55 3
56 0.5
57 0.5
69 0.7
70 0.7
82 0.5
98 25
99 1.7
100 0.5

$$$$

     RDKit          2D

 11 11  0  0  0  0  0  0  0  0999 V2000
    2.5983    0.3196    0.0000 C   0  0  0  0  0  0  0  0  0  0  0  0
    2.5988    1.8204    0.0000 C   0  0  0  0  0  0  0  0  0  0  0  0
    1.2988   -0.4312    0.0000 C   0  0  0  0  0  0  0  0  0  0  0  0
    1.2998    2.5704    0.0000 C   0  0  0  0  0  0  0  0  0  0  0  0
   -0.0002    0.3188    0.0000 C   0  0  0  0  0  0  0  0  0  0  0  0
    0.0002    1.8196    0.0000 C   0  0  0  0  0  0  0  0  0  0  0  0
   -1.2988    2.5696    0.0000 C   0  0  0  0  0  0  0  0  0  0  0  0
   -2.5978    1.8196    0.0000 C   0  0  0  0  0  0  0  0  0  0  0  0
   -1.2988    4.0696    0.0000 O   0  0  0  0  0  0  0  0  0  0  0  0
   -2.5978    0.3196    0.0000 O   0  0  0  0  0  0  0  0  0  0  0  0
   -3.8969    2.5696    0.0000 O   0  0  0  0  0  0  0  0  0  0  0  0
  2  1  2  0
  3  1  1  0
  4  2  1  0
  5  3  2  0
  6  4  2  0
  6  5  1  0
  7  6  1  0
  8  7  1  0
  9  7  1  0
 10  8  2  0
 11  8  1  0
M  END
>  <NAME>  (561) 
DL-MANDERIC ACID

>  <SYNONYMS>  (561) 


>  <SPECTRUM TYPE>  (561) 
MS1

>  <INSTRUMENT TYPE>  (561) 
EI-B

>  <INSTRUMENT>  (561) 
HITACHI RMU-6M

>  <ION MODE>  (561) 
P

>  <INCHIKEY>  (561) 
IWYDHOAUDWTVEP-UHFFFAOYSA-N

>  <FORMULA>  (561) 
C8H8O3

>  <EXACT MASS>  (561) 
152.04734411599998

>  <MW>  (561) 
152

>  <ID>  (561) 
JP011335

>  <CONTRIBUTOR>  (561) 
University of Tokyo Team, {Faculty of Engineering, University of Tokyo

>  <COMMENT>  (561) 
SMILES=OC(=O)C(O)c(c1)cccc1
InChI=InChI=1S/C8H8O3/c9-7(8(10)11)6-4-2-1-3-5-6/h1-5,7,9H,(H,10,11)
computed SMILES=O=C(O)C(O)C=1C=CC=CC1
accession=JP011335
date=2016.01.19 (Created 2008.10.21, modified 2011.05.06)
author=YAMAMOTO M, DEP. CHEMISTRY, FAC. SCIENCE, NARA WOMEN'S UNIV.
license=CC BY-NC-SA
exact mass=152.04734
ionization energy=70 eV
ion type=[M]+*
computed spectral entropy=2.6381721267931226
computed normalized entropy=0.7361959493172731
SPLASH=splash10-056r-9500000000-14cb57f84409d9c91d01
submitter=submitter = University of Tokyo Team (Faculty of Engineering, University of Tokyo)
MoNA Rating=3.75

>  <NUM PEAKS>  (561) 
36

>  <MASS SPECTRAL PEAKS>  (561) 
26 1.6
27 6
28 3.9
29 7
37 1.3
38 2.9
39 8.4
44 2.4
45 3.5
49 1.1
50 9.1
51 20.9
52 5.6
53 3.9
61 1.2
62 2.2
63 4.2
64 1.5
65 0.6
74 2.7
75 2.4
76 1.8
77 48.5
78 8.9
79 62.4
80 5.4
89 3.5
90 6
91 2
105 9.1
106 4.2
107 99.99
108 10
109 0.6
152 10.8
153 1

$$$$

     RDKit          2D

  8  7  0  0  0  0  0  0  0  0999 V2000
    0.0000    0.0000    0.0000 C   0  0  0  0  0  0  0  0  0  0  0  0
   -1.2990    3.7500    0.0000 C   0  0  0  0  0  0  0  0  0  0  0  0
    0.0000    1.5000    0.0000 C   0  0  0  0  0  0  0  0  0  0  0  0
   -2.5981    4.5000    0.0000 C   0  0  0  0  0  0  0  0  0  0  0  0
   -1.2990    2.2500    0.0000 N   0  0  0  0  0  0  0  0  0  0  0  0
    1.2990    2.2500    0.0000 O   0  0  0  0  0  0  0  0  0  0  0  0
   -3.8971    3.7500    0.0000 O   0  0  0  0  0  0  0  0  0  0  0  0
   -2.5981    6.0000    0.0000 O   0  0  0  0  0  0  0  0  0  0  0  0
  3  1  1  0
  4  2  1  0
  5  2  1  0
  5  3  2  3
  6  3  1  0
  7  4  2  0
  8  4  1  0
M  END
>  <NAME>  (562) 
N-ACETYLGLYCINE

>  <SYNONYMS>  (562) 
ACETAMIDOACETIC ACID

>  <SPECTRUM TYPE>  (562) 
MS1

>  <INSTRUMENT TYPE>  (562) 
EI-B

>  <INSTRUMENT>  (562) 
HITACHI M-2500

>  <ION MODE>  (562) 
P

>  <INCHIKEY>  (562) 
OKJIRPAQVSHGFK-UHFFFAOYSA-N

>  <FORMULA>  (562) 
C4H7NO3

>  <EXACT MASS>  (562) 
117.04259308399999

>  <MW>  (562) 
117

>  <ID>  (562) 
JP011334

>  <CONTRIBUTOR>  (562) 
University of Tokyo Team, {Faculty of Engineering, University of Tokyo

>  <COMMENT>  (562) 
SMILES=CC(=O)NCC(O)=O
cas=543-24-8
InChI=InChI=1S/C4H7NO3/c1-3(6)5-2-4(7)8/h2H2,1H3,(H,5,6)(H,7,8)
computed SMILES=O=C(O)CN=C(O)C
accession=JP011334
date=2016.01.19 (Created 2008.10.21, modified 2011.05.06)
author=YAMAMOTO M, DEP. CHEMISTRY, FAC. SCIENCE, NARA WOMEN'S UNIV.
license=CC BY-NC-SA
exact mass=117.04259
ionization energy=70 eV
ion type=[M]+*
computed spectral entropy=2.319226367532461
computed normalized entropy=0.7503055692466137
SPLASH=splash10-008c-9000000000-c8db9b668b0e8c255556
submitter=submitter = University of Tokyo Team (Faculty of Engineering, University of Tokyo)
MoNA Rating=3.75

>  <NUM PEAKS>  (562) 
22

>  <MASS SPECTRAL PEAKS>  (562) 
14 1.63
15 7.66
27 1.15
28 12.3
29 4.26
30 99.99
31 3.38
42 7
43 73.43
44 2.7
45 5.03
56 7.44
57 3.26
72 58
73 31.51
74 5.93
76 5.51
99 16.08
100 1.75
117 6.04
118 26.67
119 1.35

$$$$

     RDKit          2D

 15 14  0  0  0  0  0  0  0  0999 V2000
    2.2733    5.0625    0.0000 C   0  0  0  0  0  0  0  0  0  0  0  0
   -8.1190    5.0625    0.0000 C   0  0  0  0  0  0  0  0  0  0  0  0
   -4.2219    1.3125    0.0000 C   0  0  0  0  0  0  0  0  0  0  0  0
    0.9743    5.8125    0.0000 C   0  0  0  0  0  0  0  0  0  0  0  0
   -6.8200    5.8125    0.0000 C   0  0  0  0  0  0  0  0  0  0  0  0
   -4.2219    2.8125    0.0000 C   0  0  0  0  0  0  0  0  0  0  0  0
   -2.9228    5.0625    0.0000 C   0  0  0  0  0  0  0  0  0  0  0  0
   -1.6238    5.8125    0.0000 C   0  0  0  0  0  0  0  0  0  0  0  0
   -4.2219    5.8125    0.0000 C   0  0  0  0  0  0  0  0  0  0  0  0
   -2.9228    3.5625    0.0000 N   0  0  0  0  0  0  0  0  0  0  0  0
   -5.5209    3.5625    0.0000 O   0  0  0  0  0  0  0  0  0  0  0  0
   -1.6238    7.3125    0.0000 O   0  0  0  0  0  0  0  0  0  0  0  0
   -4.2219    7.3125    0.0000 O   0  0  0  0  0  0  0  0  0  0  0  0
   -0.3248    5.0625    0.0000 O   0  0  0  0  0  0  0  0  0  0  0  0
   -5.5209    5.0625    0.0000 O   0  0  0  0  0  0  0  0  0  0  0  0
  4  1  1  0
  5  2  1  0
  6  3  1  0
  8  7  1  0
  9  7  1  0
 10  6  2  3
 10  7  1  0
 11  6  1  0
 12  8  2  0
 13  9  2  0
 14  4  1  0
 14  8  1  0
 15  5  1  0
 15  9  1  0
M  END
>  <NAME>  (563) 
DIETHYL ACETAMIDOMALONATE

>  <SYNONYMS>  (563) 


>  <SPECTRUM TYPE>  (563) 
MS1

>  <INSTRUMENT TYPE>  (563) 
EI-B

>  <INSTRUMENT>  (563) 
HITACHI M-2500

>  <ION MODE>  (563) 
P

>  <INCHIKEY>  (563) 
ISOLMABRZPQKOV-UHFFFAOYSA-N

>  <FORMULA>  (563) 
C9H15NO5

>  <EXACT MASS>  (563) 
217.09502257999998

>  <MW>  (563) 
217

>  <ID>  (563) 
JP011333

>  <CONTRIBUTOR>  (563) 
University of Tokyo Team, {Faculty of Engineering, University of Tokyo

>  <COMMENT>  (563) 
SMILES=CCOC(=O)C(NC(C)=O)C(=O)OCC
cas=1068-90-2
InChI=InChI=1S/C9H15NO5/c1-4-14-8(12)7(10-6(3)11)9(13)15-5-2/h7H,4-5H2,1-3H3,(H,10,11)
computed SMILES=O=C(OCC)C(N=C(O)C)C(=O)OCC
accession=JP011333
date=2016.01.19 (Created 2008.10.21, modified 2011.05.06)
author=YAMAMOTO M, DEP. CHEMISTRY, FAC. SCIENCE, NARA WOMEN'S UNIV.
license=CC BY-NC-SA
exact mass=217.09502
ionization energy=70 eV
ion type=[M]+*
computed spectral entropy=2.554009294366477
computed normalized entropy=0.7584748781566769
SPLASH=splash10-0udi-6910000000-1a6f92f58c9d01e57383
submitter=submitter = University of Tokyo Team (Faculty of Engineering, University of Tokyo)
MoNA Rating=3.75

>  <NUM PEAKS>  (563) 
29

>  <MASS SPECTRAL PEAKS>  (563) 
15 1.79
27 5.06
28 8.78
29 12.8
30 1.86
42 1.54
43 33.44
44 1.37
45 1.12
46 2.82
57 5.48
58 1.1
71 2.19
72 1.39
74 20.48
99 25.72
100 3.04
102 99.99
103 11.62
116 2.44
127 5.68
144 13.45
145 15.44
146 1.31
172 9.07
173 2.23
176 1.89
218 17.75
219 1.78

$$$$

     RDKit          2D

 13 11  0  0  0  0  0  0  0  0999 V2000
    1.0281    2.6481    0.0000 C   0  0  0  0  0  0  0  0  0  0  0  0
    3.7005    2.4945    0.0000 C   0  0  0  0  0  0  0  0  0  0  0  0
    3.9359    0.0852    0.0000 C   0  0  0  0  0  0  0  0  0  0  0  0
    2.3237    1.8922    0.0000 C   0  0  0  0  0  0  0  0  0  0  0  0
   -0.2744    1.9041    0.0000 C   0  0  0  0  0  0  0  0  0  0  0  0
   -1.5700    2.6601    0.0000 C   0  0  0  0  0  0  0  0  0  0  0  0
   -0.2813    0.4041    0.0000 N   0  0  0  0  0  0  0  0  0  0  0  0
    4.6941    1.3772    0.0000 N   0  0  0  0  0  0  0  0  0  0  0  0
    2.4755    0.4096    0.0000 N   0  0  0  0  0  0  0  0  0  0  0  0
   -1.5631    4.1601    0.0000 O   0  0  0  0  0  0  0  0  0  0  0  0
   -2.8724    1.9161    0.0000 O   0  0  0  0  0  0  0  0  0  0  0  0
    0.0000    0.0000    0.0000 Cl  0  0  0  0  0  0  0  0  0  0  0  0
    0.0000    0.0000    0.0000 O   0  0  0  0  0  0  0  0  0  0  0  0
  4  1  1  0
  4  2  2  0
  5  1  1  0
  6  5  1  0
  7  5  1  0
  8  2  1  0
  8  3  2  0
  9  3  1  0
  9  4  1  0
 10  6  2  0
 11  6  1  0
M  END
>  <NAME>  (564) 
DL-HISTIDINE MONOHYDROCHLORIDE MONOHYDRATE

>  <SYNONYMS>  (564) 


>  <SPECTRUM TYPE>  (564) 
MS1

>  <INSTRUMENT TYPE>  (564) 
EI-B

>  <INSTRUMENT>  (564) 
HITACHI M-2500

>  <ION MODE>  (564) 
P

>  <INCHIKEY>  (564) 
CMXXUDSWGMGYLZ-UHFFFAOYSA-N

>  <FORMULA>  (564) 
C6H12ClN3O3

>  <EXACT MASS>  (564) 
209.056718924

>  <MW>  (564) 
209

>  <ID>  (564) 
JP011332

>  <CONTRIBUTOR>  (564) 
University of Tokyo Team, {Faculty of Engineering, University of Tokyo

>  <COMMENT>  (564) 
SMILES=C1=C(NC=N1)CC(C(=O)O)N.O.Cl
InChI=InChI=1S/C6H9N3O2.ClH.H2O/c7-5(6(10)11)1-4-2-8-3-9-4;;/h2-3,5H,1,7H2,(H,8,9)(H,10,11);1H;1H2
computed SMILES=Cl.O=C(O)C(N)CC1=CN=CN1.O
computed spectral entropy=1.6950884354087001
accession=JP011332
date=2016.01.19 (Created 2008.10.21, modified 2011.05.06)
author=YAMAMOTO M, DEP. CHEMISTRY, FAC. SCIENCE, NARA WOMEN'S UNIV.
license=CC BY-NC-SA
exact mass=209.05672
ionization energy=70 eV
ion type=[M]+*
computed normalized entropy=0.6608662391238339
SPLASH=splash10-001r-9100000000-f78e213f7e87829d7644
submitter=submitter = University of Tokyo Team (Faculty of Engineering, University of Tokyo)
MoNA Rating=3.75

>  <NUM PEAKS>  (564) 
13

>  <MASS SPECTRAL PEAKS>  (564) 
17 1.65
18 7.22
36 52.52
38 17.05
81 4.7
82 99.99
83 5.42
94 1.97
109 1.33
110 17.24
111 3.28
155 4.91
156 2.7

$$$$

     RDKit          2D

 16 15  0  0  0  0  0  0  0  0999 V2000
   -6.4952    4.5000    0.0000 C   0  0  0  0  0  0  0  0  0  0  0  0
    2.5981    3.7500    0.0000 C   0  0  0  0  0  0  0  0  0  0  0  0
   -5.1962    3.7500    0.0000 C   0  0  0  0  0  0  0  0  0  0  0  0
    1.2990    4.5000    0.0000 C   0  0  0  0  0  0  0  0  0  0  0  0
   -2.5981    3.7500    0.0000 C   0  0  0  0  0  0  0  0  0  0  0  0
   -1.2990    4.5000    0.0000 C   0  0  0  0  0  0  0  0  0  0  0  0
   -2.5981    2.2500    0.0000 C   0  0  0  0  0  0  0  0  0  0  0  0
   -1.2990    6.0000    0.0000 C   0  0  0  0  0  0  0  0  0  0  0  0
   -5.1962    2.2500    0.0000 O   0  0  0  0  0  0  0  0  0  0  0  0
    1.2990    6.0000    0.0000 O   0  0  0  0  0  0  0  0  0  0  0  0
   -1.2990    1.5000    0.0000 O   0  0  0  0  0  0  0  0  0  0  0  0
   -3.8971    1.5000    0.0000 O   0  0  0  0  0  0  0  0  0  0  0  0
   -2.5981    6.7500    0.0000 O   0  0  0  0  0  0  0  0  0  0  0  0
    0.0000    6.7500    0.0000 O   0  0  0  0  0  0  0  0  0  0  0  0
   -3.8971    4.5000    0.0000 O   0  0  0  0  0  0  0  0  0  0  0  0
    0.0000    3.7500    0.0000 O   0  0  0  0  0  0  0  0  0  0  0  0
  3  1  1  0
  4  2  1  0
  6  5  1  0
  7  5  1  0
  8  6  1  0
  9  3  2  0
 10  4  2  0
 11  7  2  0
 12  7  1  0
 13  8  2  0
 14  8  1  0
 15  3  1  0
 15  5  1  0
 16  4  1  0
 16  6  1  0
M  END
>  <NAME>  (565) 
(+)-DIACETYL-L-TARTARIC ACID

>  <SYNONYMS>  (565) 


>  <SPECTRUM TYPE>  (565) 
MS1

>  <INSTRUMENT TYPE>  (565) 
EI-B

>  <INSTRUMENT>  (565) 
HITACHI M-2500

>  <ION MODE>  (565) 
P

>  <INCHIKEY>  (565) 
DNISEZBAYYIQFB-UHFFFAOYSA-N

>  <FORMULA>  (565) 
C8H10O8

>  <EXACT MASS>  (565) 
234.03756728

>  <MW>  (565) 
234

>  <ID>  (565) 
JP011331

>  <CONTRIBUTOR>  (565) 
University of Tokyo Team, {Faculty of Engineering, University of Tokyo

>  <COMMENT>  (565) 
SMILES=CC(=O)OC(C(O)=O)C(OC(C)=O)C(O)=O
InChI=InChI=1S/C8H10O8/c1-3(9)15-5(7(11)12)6(8(13)14)16-4(2)10/h5-6H,1-2H3,(H,11,12)(H,13,14)
computed SMILES=O=C(O)C(OC(=O)C)C(OC(=O)C)C(=O)O
accession=JP011331
date=2016.01.19 (Created 2008.10.21, modified 2011.05.06)
author=YAMAMOTO M, DEP. CHEMISTRY, FAC. SCIENCE, NARA WOMEN'S UNIV.
license=CC BY-NC-SA
exact mass=234.03757
ionization energy=70 eV
ion type=[M]+*
computed spectral entropy=2.201415200531354
computed normalized entropy=0.7121918361682767
SPLASH=splash10-002r-0970000000-8f6a0e7be1d1a2e20952
submitter=submitter = University of Tokyo Team (Faculty of Engineering, University of Tokyo)
MoNA Rating=3.75

>  <NUM PEAKS>  (565) 
22

>  <MASS SPECTRAL PEAKS>  (565) 
43 9.89
61 1.35
76 1.19
100 14.78
102 1.33
103 1.76
118 3.62
129 17.6
130 2.73
147 6.39
151 2.03
160 2.2
175 62.2
176 4.41
189 11.36
193 17.17
194 1.19
217 13.96
218 1.3
235 99.99
236 10.07
237 2.16

$$$$

     RDKit          2D

 13 13  0  0  0  0  0  0  0  0999 V2000
   -1.3000    0.7500    0.0000 C   0  0  0  0  0  0  0  0  0  0  0  0
    0.0000    1.5000    0.0000 C   0  0  0  0  0  0  0  0  0  0  0  0
   -0.0000   -1.5000    0.0000 C   0  0  0  0  0  0  0  0  0  0  0  0
   -1.3000   -0.7500    0.0000 C   0  0  0  0  0  0  0  0  0  0  0  0
    1.3000   -0.7500    0.0000 C   0  0  0  0  0  0  0  0  0  0  0  0
    1.3000    0.7500    0.0000 C   0  0  0  0  0  0  0  0  0  0  0  0
    2.5989   -1.5002    0.0000 C   0  0  0  0  0  0  0  0  0  0  0  0
    3.8981   -0.7504    0.0000 C   0  0  0  0  0  0  0  0  0  0  0  0
   -2.5989   -1.5002    0.0000 Cl  0  0  0  0  0  0  0  0  0  0  0  0
    2.5989    1.5002    0.0000 Cl  0  0  0  0  0  0  0  0  0  0  0  0
    3.8983    0.7496    0.0000 O   0  0  0  0  0  0  0  0  0  0  0  0
    5.1970   -1.5006    0.0000 O   0  0  0  0  0  0  0  0  0  0  0  0
    2.5987   -3.0002    0.0000 S   0  0  0  0  0  0  0  0  0  0  0  0
  2  1  2  0
  4  1  1  0
  4  3  2  0
  5  3  1  0
  6  2  1  0
  6  5  2  0
  7  5  1  0
  8  7  1  0
  9  4  1  0
 10  6  1  0
 11  8  2  0
 12  8  1  0
 13  7  1  0
M  END
>  <NAME>  (566) 
2,5-DICHLOROPHENYLTHIOGLYCOLIC ACID

>  <SYNONYMS>  (566) 


>  <SPECTRUM TYPE>  (566) 
MS1

>  <INSTRUMENT TYPE>  (566) 
EI-B

>  <INSTRUMENT>  (566) 
HITACHI M-2500

>  <ION MODE>  (566) 
P

>  <INCHIKEY>  (566) 
CRTGVRQQKMHWLD-UHFFFAOYSA-N

>  <FORMULA>  (566) 
C8H6Cl2O2S

>  <EXACT MASS>  (566) 
235.946555792

>  <MW>  (566) 
236

>  <ID>  (566) 
JP011330

>  <CONTRIBUTOR>  (566) 
University of Tokyo Team, {Faculty of Engineering, University of Tokyo

>  <COMMENT>  (566) 
SMILES=OC(=O)C(S)c(c1)c(Cl)ccc(Cl)1
cas=6274-27-7
InChI=InChI=1S/C8H6Cl2O2S/c9-4-1-2-6(10)5(3-4)7(13)8(11)12/h1-3,7,13H,(H,11,12)
computed SMILES=O=C(O)C(S)C1=CC(Cl)=CC=C1Cl
accession=JP011330
date=2016.01.19 (Created 2008.10.21, modified 2011.05.06)
author=YAMAMOTO M, DEP. CHEMISTRY, FAC. SCIENCE, NARA WOMEN'S UNIV.
license=CC BY-NC-SA
exact mass=235.94656
ionization energy=70 eV
ion type=[M]+*
computed spectral entropy=1.4772227959974094
computed normalized entropy=0.6160497552812112
SPLASH=splash10-000i-0090000000-003892a9ed9e6a48049e
submitter=submitter = University of Tokyo Team (Faculty of Engineering, University of Tokyo)
MoNA Rating=3.75

>  <NUM PEAKS>  (566) 
11

>  <MASS SPECTRAL PEAKS>  (566) 
144 1.35
191 4.02
193 2.8
201 5.96
203 2.21
236 99.99
237 9.8
238 70.37
239 6.83
240 13.18
241 1.31

$$$$

     RDKit          2D

 11 12  0  0  1  0  0  0  0  0999 V2000
   -0.6759    1.4813    0.0000 C   0  0  0  0  0  0  0  0  0  0  0  0
   -0.6759   -2.3013    0.0000 C   0  0  0  0  0  0  0  0  0  0  0  0
    2.4475    2.5900    0.0000 C   0  0  0  0  0  0  0  0  0  0  0  0
    1.1450   -1.1600    0.0000 C   0  0  0  0  0  0  0  0  0  0  0  0
    1.1450    0.3400    0.0000 C   0  0  0  0  0  0  0  0  0  0  0  0
    3.7350   -1.1600    0.0000 C   0  0  0  0  0  0  0  0  0  0  0  0
    2.4450   -1.9100    0.0000 C   0  0  0  0  0  0  0  0  0  0  0  0
    3.7350    0.3400    0.0000 C   0  0  0  0  0  0  0  0  0  0  0  0
    1.5750   -0.4100    0.0000 C   0  0  0  0  0  0  0  0  0  0  0  0
    2.4450    1.0900    0.0000 C   0  0  0  0  0  0  0  0  0  0  0  0
    5.0352    1.0880    0.0000 O   0  0  0  0  0  0  0  0  0  0  0  0
  5  4  1  0
  7  4  1  6
  7  6  1  0
  8  6  1  0
  9  1  1  0
  9  2  1  0
  9  7  1  0
 10  3  1  1
 10  5  1  0
 10  8  1  0
 10  9  1  0
 11  8  2  0
M  END
>  <NAME>  (567) 
(1S)-(-)-CAMPHOR

>  <SYNONYMS>  (567) 


>  <SPECTRUM TYPE>  (567) 
MS1

>  <INSTRUMENT TYPE>  (567) 
EI-B

>  <INSTRUMENT>  (567) 
HITACHI M-2500

>  <ION MODE>  (567) 
P

>  <INCHIKEY>  (567) 
DSSYKIVIOFKYAU-OIBJUYFYSA-N

>  <FORMULA>  (567) 
C10H16O

>  <EXACT MASS>  (567) 
152.120115132

>  <MW>  (567) 
152

>  <ID>  (567) 
JP011329

>  <CONTRIBUTOR>  (567) 
University of Tokyo Team, {Faculty of Engineering, University of Tokyo

>  <COMMENT>  (567) 
SMILES=O=C(C1)C(C)(C2)C(C)(C)C([H])(C2)1
cas=464-48-2
InChI=InChI=1S/C10H16O/c1-9(2)7-4-5-10(9,3)8(11)6-7/h7H,4-6H2,1-3H3/t7-,10+/m0/s1
computed SMILES=O=C1CC2CCC1(C)C2(C)C
accession=JP011329
date=2016.01.19 (Created 2008.10.21, modified 2011.05.06)
author=YAMAMOTO M, DEP. CHEMISTRY, FAC. SCIENCE, NARA WOMEN'S UNIV.
license=CC BY-NC-SA
exact mass=152.12012
ionization energy=70 eV
ion type=[M]+*
computed spectral entropy=2.4129944726086605
computed normalized entropy=0.6962430318649988
SPLASH=splash10-0zfr-3900000000-f7126616e4f1ddd0b8e1
submitter=submitter = University of Tokyo Team (Faculty of Engineering, University of Tokyo)
MoNA Rating=3.75

>  <NUM PEAKS>  (567) 
32

>  <MASS SPECTRAL PEAKS>  (567) 
18 2.78
30 2.62
55 1.04
68 1.83
69 2.18
79 1.33
80 15.16
81 28.18
82 2.93
83 2.64
86 1.75
87 1.45
93 3.79
94 1.24
95 21.17
96 2.71
97 2.1
100 1.1
108 68.88
109 16.51
110 16.24
111 2.3
123 1.22
124 2.04
136 1.13
137 3.83
138 3.4
144 4.3
150 1.02
152 99.99
153 12.52
154 1.27

$$$$

     RDKit          2D

 13 12  0  0  0  0  0  0  0  0999 V2000
    3.5724    6.5625    0.0000 C   0  0  0  0  0  0  0  0  0  0  0  0
    2.2733    7.3125    0.0000 C   0  0  0  0  0  0  0  0  0  0  0  0
    0.9743    6.5625    0.0000 C   0  0  0  0  0  0  0  0  0  0  0  0
   -0.3248    7.3125    0.0000 C   0  0  0  0  0  0  0  0  0  0  0  0
   -1.6238    6.5625    0.0000 C   0  0  0  0  0  0  0  0  0  0  0  0
   -2.9228    7.3125    0.0000 C   0  0  0  0  0  0  0  0  0  0  0  0
   -4.2219    6.5625    0.0000 C   0  0  0  0  0  0  0  0  0  0  0  0
   -5.5209    7.3125    0.0000 C   0  0  0  0  0  0  0  0  0  0  0  0
   -6.8200    6.5625    0.0000 C   0  0  0  0  0  0  0  0  0  0  0  0
   -8.1190    7.3125    0.0000 C   0  0  0  0  0  0  0  0  0  0  0  0
   -9.4180    6.5625    0.0000 C   0  0  0  0  0  0  0  0  0  0  0  0
   -9.4180    5.0625    0.0000 O   0  0  0  0  0  0  0  0  0  0  0  0
  -10.7171    7.3125    0.0000 O   0  0  0  0  0  0  0  0  0  0  0  0
  2  1  2  0
  3  2  1  0
  4  3  1  0
  5  4  1  0
  6  5  1  0
  7  6  1  0
  8  7  1  0
  9  8  1  0
 10  9  1  0
 11 10  1  0
 12 11  2  0
 13 11  1  0
M  END
>  <NAME>  (568) 
UNDECYLENIC ACID

>  <SYNONYMS>  (568) 
10-UNDECENOIC ACID

>  <SPECTRUM TYPE>  (568) 
MS1

>  <INSTRUMENT TYPE>  (568) 
EI-B

>  <INSTRUMENT>  (568) 
HITACHI M-2500

>  <ION MODE>  (568) 
P

>  <INCHIKEY>  (568) 
FRPZMMHWLSIFAZ-UHFFFAOYSA-N

>  <FORMULA>  (568) 
C11H20O2

>  <EXACT MASS>  (568) 
184.14632988

>  <MW>  (568) 
184

>  <ID>  (568) 
JP011327

>  <CONTRIBUTOR>  (568) 
University of Tokyo Team, {Faculty of Engineering, University of Tokyo

>  <COMMENT>  (568) 
SMILES=C=CCCCCCCCCC(O)=O
cas=112-38-9
InChI=InChI=1S/C11H20O2/c1-2-3-4-5-6-7-8-9-10-11(12)13/h2H,1,3-10H2,(H,12,13)
computed SMILES=O=C(O)CCCCCCCCC=C
accession=JP011327
date=2016.01.19 (Created 2008.10.21, modified 2011.05.06)
author=YAMAMOTO M, DEP. CHEMISTRY, FAC. SCIENCE, NARA WOMEN'S UNIV.
license=CC BY-NC-SA
exact mass=184.14633
ionization energy=70 eV
ion type=[M]+*
computed spectral entropy=4.01673482841178
computed normalized entropy=0.8528950143036553
SPLASH=splash10-056u-9200000000-5b8c18292287532e1deb
submitter=submitter = University of Tokyo Team (Faculty of Engineering, University of Tokyo)
MoNA Rating=3.75

>  <NUM PEAKS>  (568) 
111

>  <MASS SPECTRAL PEAKS>  (568) 
26 5.04
27 31.67
28 74.1
29 31.24
30 2.48
31 5.4
32 18.07
34 1.13
36 1.39
38 2.13
39 38.02
40 8.26
41 84.75
42 20.4
43 22.68
44 8.05
45 19.27
47 1.3
50 1.41
51 2.26
52 1.57
53 11.61
54 14.72
55 99.99
56 26.23
57 9.84
58 2.11
59 6.79
60 32.67
61 4.12
63 1.1
65 2.69
66 2.52
67 13.71
68 21.01
69 43.4
70 13.22
71 6.34
72 1.23
73 24.15
74 2.05
75 1.22
77 3.18
78 1.91
79 6.88
80 16.13
82 27.84
83 37.17
84 22.86
85 5.45
86 2.42
87 8.62
88 1.38
90 1.07
91 3.27
92 1.3
93 4.12
94 6.02
95 13.68
96 32.71
97 14.22
98 16.82
99 5.09
100 9.74
101 11.11
102 2.33
103 1.48
105 3.59
106 2.4
107 2.68
108 2.98
109 6.38
110 10.46
111 5.31
112 2.1
113 6.01
114 9.74
115 3.86
116 2.51
117 1.61
118 1.39
119 4.66
120 1.86
121 1.59
122 10.83
123 12.08
124 21.65
125 7.87
126 2.05
127 2.78
128 5.21
129 2.37
133 2.03
137 8.97
138 4.85
139 1.5
141 4.32
142 1.94
143 1.11
145 1.84
148 6.04
149 2.6
151 1.97
152 1.56
153 1.61
155 1.63
166 8.98
167 2.22
168 1.01
184 2
185 1.78

$$$$

     RDKit          2D

 17 17  0  0  0  0  0  0  0  0999 V2000
   -2.5981   -1.9300    0.0000 C   0  0  0  0  0  0  0  0  0  0  0  0
   -5.1962    2.5700    0.0000 C   0  0  0  0  0  0  0  0  0  0  0  0
   -1.2990   -1.1800    0.0000 C   0  0  0  0  0  0  0  0  0  0  0  0
   -3.8971    3.3200    0.0000 C   0  0  0  0  0  0  0  0  0  0  0  0
    3.8971    4.8200    0.0000 C   0  0  0  0  0  0  0  0  0  0  0  0
    2.5976    5.5708    0.0000 C   0  0  0  0  0  0  0  0  0  0  0  0
    3.8976    3.3192    0.0000 C   0  0  0  0  0  0  0  0  0  0  0  0
    1.2986    4.8208    0.0000 C   0  0  0  0  0  0  0  0  0  0  0  0
    2.5986    2.5692    0.0000 C   0  0  0  0  0  0  0  0  0  0  0  0
    1.2990    3.3200    0.0000 C   0  0  0  0  0  0  0  0  0  0  0  0
    0.0000    2.5700    0.0000 C   0  0  0  0  0  0  0  0  0  0  0  0
    0.0000    1.0700    0.0000 C   0  0  0  0  0  0  0  0  0  0  0  0
   -1.2990    3.3200    0.0000 C   0  0  0  0  0  0  0  0  0  0  0  0
    1.2990    0.3200    0.0000 O   0  0  0  0  0  0  0  0  0  0  0  0
   -1.2990    4.8200    0.0000 O   0  0  0  0  0  0  0  0  0  0  0  0
   -1.2990    0.3200    0.0000 O   0  0  0  0  0  0  0  0  0  0  0  0
   -2.5981    2.5700    0.0000 O   0  0  0  0  0  0  0  0  0  0  0  0
  3  1  1  0
  4  2  1  0
  6  5  2  0
  7  5  1  0
  8  6  1  0
  9  7  2  0
 10  8  2  0
 10  9  1  0
 11 10  1  0
 12 11  1  0
 13 11  1  0
 14 12  2  0
 15 13  2  0
 16  3  1  0
 16 12  1  0
 17  4  1  0
 17 13  1  0
M  END
>  <NAME>  (569) 
DIETHYL PHENYLMALONATE

>  <SYNONYMS>  (569) 


>  <SPECTRUM TYPE>  (569) 
MS1

>  <INSTRUMENT TYPE>  (569) 
EI-B

>  <INSTRUMENT>  (569) 
HITACHI M-2500

>  <ION MODE>  (569) 
P

>  <INCHIKEY>  (569) 
FGYDHYCFHBSNPE-UHFFFAOYSA-N

>  <FORMULA>  (569) 
C13H16O4

>  <EXACT MASS>  (569) 
236.104858992

>  <MW>  (569) 
236

>  <ID>  (569) 
JP011326

>  <CONTRIBUTOR>  (569) 
University of Tokyo Team, {Faculty of Engineering, University of Tokyo

>  <COMMENT>  (569) 
SMILES=CCOC(=O)C(C(=O)OCC)c(c1)cccc1
cas=83-13-6
InChI=InChI=1S/C13H16O4/c1-3-16-12(14)11(13(15)17-4-2)10-8-6-5-7-9-10/h5-9,11H,3-4H2,1-2H3
computed SMILES=O=C(OCC)C(C(=O)OCC)C=1C=CC=CC1
accession=JP011326
date=2016.01.19 (Created 2008.10.21, modified 2011.05.06)
author=YAMAMOTO M, DEP. CHEMISTRY, FAC. SCIENCE, NARA WOMEN'S UNIV.
license=CC BY-NC-SA
exact mass=236.10486
ionization energy=70 eV
ion type=[M]+*
computed spectral entropy=3.262508166697098
computed normalized entropy=0.8256914528847137
SPLASH=splash10-01rf-9700000000-463c4e043907544a828c
submitter=submitter = University of Tokyo Team (Faculty of Engineering, University of Tokyo)
MoNA Rating=3.75

>  <NUM PEAKS>  (569) 
52

>  <MASS SPECTRAL PEAKS>  (569) 
15 4.28
18 2.1
26 3.08
27 16.45
28 4.19
29 48.62
30 1.76
31 11.67
32 5.98
38 1.25
39 6.12
40 1.11
41 1.38
43 4.51
44 4.16
45 3.86
50 2.48
51 6.02
52 1.28
53 1.08
62 3.11
63 11.24
64 4.96
65 6.23
77 22.87
78 5.18
79 52.1
80 3.49
89 29.5
90 45.85
91 99.99
92 11.23
104 1
105 10.8
106 2.1
107 58.75
108 4.58
117 4.05
118 63.81
119 20.76
120 2.02
135 40.86
136 41.18
137 3.62
146 3.12
163 42.97
164 49.49
165 5.44
191 3.4
192 4.72
236 27.59
237 4.38

$$$$

     RDKit          2D

 11 10  0  0  0  0  0  0  0  0999 V2000
    2.2841    2.8734    0.0000 C   0  0  0  0  0  0  0  0  0  0  0  0
   -5.5102    2.8734    0.0000 C   0  0  0  0  0  0  0  0  0  0  0  0
   -3.0284    7.3311    0.0000 C   0  0  0  0  0  0  0  0  0  0  0  0
   -0.6489    4.7725    0.0000 C   0  0  0  0  0  0  0  0  0  0  0  0
    0.9850    3.6234    0.0000 C   0  0  0  0  0  0  0  0  0  0  0  0
   -4.2111    3.6234    0.0000 C   0  0  0  0  0  0  0  0  0  0  0  0
   -2.0642    6.1820    0.0000 C   0  0  0  0  0  0  0  0  0  0  0  0
   -1.6131    3.6234    0.0000 C   0  0  0  0  0  0  0  0  0  0  0  0
   -0.3140    2.8734    0.0000 O   0  0  0  0  0  0  0  0  0  0  0  0
   -2.9121    2.8734    0.0000 O   0  0  0  0  0  0  0  0  0  0  0  0
   -2.5772    4.7725    0.0000 O   0  0  0  0  0  0  0  0  0  0  0  0
  5  1  1  0
  6  2  1  0
  7  3  1  0
  8  4  1  0
  9  5  1  0
  9  8  1  0
 10  6  1  0
 10  8  1  0
 11  7  1  0
 11  8  1  0
M  END
>  <NAME>  (570) 
TRIETHYL ORTHOACETATE

>  <SYNONYMS>  (570) 
1,1,1-TRIETHOXYETHANE

>  <SPECTRUM TYPE>  (570) 
MS1

>  <INSTRUMENT TYPE>  (570) 
EI-B

>  <INSTRUMENT>  (570) 
HITACHI M-2500

>  <ION MODE>  (570) 
P

>  <INCHIKEY>  (570) 
NDQXKKFRNOPRDW-UHFFFAOYSA-N

>  <FORMULA>  (570) 
C8H18O3

>  <EXACT MASS>  (570) 
162.12559443599997

>  <MW>  (570) 
162

>  <ID>  (570) 
JP011324

>  <CONTRIBUTOR>  (570) 
University of Tokyo Team, {Faculty of Engineering, University of Tokyo

>  <COMMENT>  (570) 
SMILES=CCOC(C)(OCC)OCC
cas=78-39-7
InChI=InChI=1S/C8H18O3/c1-5-9-8(4,10-6-2)11-7-3/h5-7H2,1-4H3
computed SMILES=O(CC)C(OCC)(OCC)C
accession=JP011324
date=2016.01.19 (Created 2008.10.21, modified 2011.05.06)
author=YAMAMOTO M, DEP. CHEMISTRY, FAC. SCIENCE, NARA WOMEN'S UNIV.
license=CC BY-NC-SA
exact mass=162.12559
ionization energy=70 eV
ion type=[M]+*
computed spectral entropy=2.7778984088327867
computed normalized entropy=0.8015320517032807
SPLASH=splash10-0036-9000000000-f6aed8ac583cfc4cef19
submitter=submitter = University of Tokyo Team (Faculty of Engineering, University of Tokyo)
MoNA Rating=3.75

>  <NUM PEAKS>  (570) 
32

>  <MASS SPECTRAL PEAKS>  (570) 
13 2.71
14 9.8
15 26.61
17 4.33
18 13.25
19 3.08
25 2.38
26 15.29
27 47.58
28 11.36
29 43.99
30 6.4
31 83.66
32 1.85
39 1
41 2.95
42 37.1
43 99.99
44 4.28
45 47.79
46 13.03
60 28.3
61 17.38
70 6.44
72 1.1
73 3.9
87 1.64
88 3.44
89 4.58
105 1.07
116 10.46
117 2.35

$$$$

     RDKit          2D

  8  7  0  0  0  0  0  0  0  0999 V2000
   -2.2733    0.5625    0.0000 C   0  0  0  0  0  0  0  0  0  0  0  0
    0.3248    0.5625    0.0000 C   0  0  0  0  0  0  0  0  0  0  0  0
    0.3248    5.0625    0.0000 C   0  0  0  0  0  0  0  0  0  0  0  0
    1.6238    2.8125    0.0000 C   0  0  0  0  0  0  0  0  0  0  0  0
   -0.9743    2.8125    0.0000 C   0  0  0  0  0  0  0  0  0  0  0  0
   -0.9743    1.3125    0.0000 N   0  0  0  0  0  0  0  0  0  0  0  0
    0.3248    3.5625    0.0000 N   0  0  0  0  0  0  0  0  0  0  0  0
   -2.2733    3.5625    0.0000 O   0  0  0  0  0  0  0  0  0  0  0  0
  6  1  1  0
  6  2  1  0
  6  5  1  0
  7  3  1  0
  7  4  1  0
  7  5  1  0
  8  5  2  0
M  END
>  <NAME>  (571) 
1,1,3,3-TETRAMETHYLUREA

>  <SYNONYMS>  (571) 


>  <SPECTRUM TYPE>  (571) 
MS1

>  <INSTRUMENT TYPE>  (571) 
EI-B

>  <INSTRUMENT>  (571) 
HITACHI M-2500

>  <ION MODE>  (571) 
P

>  <INCHIKEY>  (571) 
AVQQQNCBBIEMEU-UHFFFAOYSA-N

>  <FORMULA>  (571) 
C5H12N2O

>  <EXACT MASS>  (571) 
116.094963004

>  <MW>  (571) 
116

>  <ID>  (571) 
JP011323

>  <CONTRIBUTOR>  (571) 
University of Tokyo Team, {Faculty of Engineering, University of Tokyo

>  <COMMENT>  (571) 
SMILES=CN(C)C(=O)N(C)C
cas=632-22-4
InChI=InChI=1S/C5H12N2O/c1-6(2)5(8)7(3)4/h1-4H3
computed SMILES=O=C(N(C)C)N(C)C
accession=JP011323
date=2016.01.19 (Created 2008.10.21, modified 2011.05.06)
author=YAMAMOTO M, DEP. CHEMISTRY, FAC. SCIENCE, NARA WOMEN'S UNIV.
license=CC BY-NC-SA
exact mass=116.09496
ionization energy=70 eV
ion type=[M]+*
computed spectral entropy=1.8659807706474751
computed normalized entropy=0.7070633705860084
SPLASH=splash10-00dl-9200000000-e3c90e73a580e1f62365
submitter=submitter = University of Tokyo Team (Faculty of Engineering, University of Tokyo)
MoNA Rating=3.75

>  <NUM PEAKS>  (571) 
14

>  <MASS SPECTRAL PEAKS>  (571) 
15 7.28
18 4
28 4.82
41 1.51
42 14.14
43 4.11
44 36.62
45 6.46
56 4.33
58 4.45
72 99.99
73 4.56
116 39.73
117 3.34

$$$$

     RDKit          2D

 11 12  0  0  0  0  0  0  0  0999 V2000
   -2.6000    0.7500    0.0000 C   0  0  0  0  0  0  0  0  0  0  0  0
    2.6000    0.7500    0.0000 C   0  0  0  0  0  0  0  0  0  0  0  0
   -1.3000    1.5000    0.0000 C   0  0  0  0  0  0  0  0  0  0  0  0
    1.3000    1.5000    0.0000 C   0  0  0  0  0  0  0  0  0  0  0  0
   -2.6000   -0.7500    0.0000 C   0  0  0  0  0  0  0  0  0  0  0  0
    2.6000   -0.7500    0.0000 C   0  0  0  0  0  0  0  0  0  0  0  0
   -0.0000    0.7500    0.0000 C   0  0  0  0  0  0  0  0  0  0  0  0
   -1.3000   -1.5000    0.0000 C   0  0  0  0  0  0  0  0  0  0  0  0
   -0.0000   -0.7500    0.0000 C   0  0  0  0  0  0  0  0  0  0  0  0
   -1.3000   -3.0000    0.0000 N   0  0  0  0  0  0  0  0  0  0  0  0
    1.3000   -1.5000    0.0000 N   0  0  0  0  0  0  0  0  0  0  0  0
  3  1  2  0
  4  2  1  0
  5  1  1  0
  6  2  2  0
  7  3  1  0
  7  4  2  0
  8  5  2  0
  9  7  1  0
  9  8  1  0
 10  8  1  0
 11  6  1  0
 11  9  2  0
M  END
>  <NAME>  (572) 
8-AMINOQUINOLINE

>  <SYNONYMS>  (572) 
8-QUINOLINAMINE

>  <SPECTRUM TYPE>  (572) 
MS1

>  <INSTRUMENT TYPE>  (572) 
EI-B

>  <INSTRUMENT>  (572) 
HITACHI M-2500

>  <ION MODE>  (572) 
P

>  <INCHIKEY>  (572) 
WREVVZMUNPAPOV-UHFFFAOYSA-N

>  <FORMULA>  (572) 
C9H8N2

>  <EXACT MASS>  (572) 
144.068748256

>  <MW>  (572) 
144

>  <ID>  (572) 
JP011322

>  <CONTRIBUTOR>  (572) 
University of Tokyo Team, {Faculty of Engineering, University of Tokyo

>  <COMMENT>  (572) 
SMILES=Nc(c1)c(n2)c(ccc2)cc1
cas=578-66-5
InChI=InChI=1S/C9H8N2/c10-8-5-1-3-7-4-2-6-11-9(7)8/h1-6H,10H2
computed SMILES=N1=CC=CC2=CC=CC(N)=C12
accession=JP011322
date=2016.01.19 (Created 2008.10.21, modified 2011.05.06)
author=YAMAMOTO M, DEP. CHEMISTRY, FAC. SCIENCE, NARA WOMEN'S UNIV.
license=CC BY-NC-SA
exact mass=144.06875
ionization energy=70 eV
ion type=[M]+*
computed spectral entropy=2.4127640312871024
computed normalized entropy=0.7026129940541946
SPLASH=splash10-0006-3900000000-a802a2374fbfb44b96c3
submitter=submitter = University of Tokyo Team (Faculty of Engineering, University of Tokyo)
MoNA Rating=3.75

>  <NUM PEAKS>  (572) 
31

>  <MASS SPECTRAL PEAKS>  (572) 
18 3.73
28 1.99
38 1.4
39 3.54
50 1.62
51 2.03
52 2
58 1.07
59 6.47
62 2.33
63 5.32
64 2.31
65 1.56
71 2.3
72 7.12
75 1.01
76 1.36
78 1
88 1.56
89 11.41
90 10.49
91 1.74
114 1.09
115 2.1
116 10.39
117 33.3
118 4.33
142 3.14
143 8.74
144 99.99
145 16.27

$$$$

     RDKit          2D

 11 12  0  0  0  0  0  0  0  0999 V2000
   -2.6000    0.7500    0.0000 C   0  0  0  0  0  0  0  0  0  0  0  0
   -2.6000   -0.7500    0.0000 C   0  0  0  0  0  0  0  0  0  0  0  0
   -1.3000    1.5000    0.0000 C   0  0  0  0  0  0  0  0  0  0  0  0
   -1.3000   -1.5000    0.0000 C   0  0  0  0  0  0  0  0  0  0  0  0
    1.3000    1.5000    0.0000 C   0  0  0  0  0  0  0  0  0  0  0  0
    2.6000   -0.7500    0.0000 C   0  0  0  0  0  0  0  0  0  0  0  0
   -0.0000    0.7500    0.0000 C   0  0  0  0  0  0  0  0  0  0  0  0
    2.6000    0.7500    0.0000 C   0  0  0  0  0  0  0  0  0  0  0  0
   -0.0000   -0.7500    0.0000 C   0  0  0  0  0  0  0  0  0  0  0  0
    3.8989    1.5002    0.0000 N   0  0  0  0  0  0  0  0  0  0  0  0
    1.3000   -1.5000    0.0000 N   0  0  0  0  0  0  0  0  0  0  0  0
  2  1  2  0
  3  1  1  0
  4  2  1  0
  7  3  2  0
  7  5  1  0
  8  5  2  0
  8  6  1  0
  9  4  2  0
  9  7  1  0
 10  8  1  0
 11  6  2  0
 11  9  1  0
M  END
>  <NAME>  (573) 
3-AMINOQUINOLINE

>  <SYNONYMS>  (573) 
3-QUINOLINEAMINE

>  <SPECTRUM TYPE>  (573) 
MS1

>  <INSTRUMENT TYPE>  (573) 
EI-B

>  <INSTRUMENT>  (573) 
HITACHI M-2500

>  <ION MODE>  (573) 
P

>  <INCHIKEY>  (573) 
SVNCRRZKBNSMIV-UHFFFAOYSA-N

>  <FORMULA>  (573) 
C9H8N2

>  <EXACT MASS>  (573) 
144.068748256

>  <MW>  (573) 
144

>  <ID>  (573) 
JP011321

>  <CONTRIBUTOR>  (573) 
University of Tokyo Team, {Faculty of Engineering, University of Tokyo

>  <COMMENT>  (573) 
SMILES=Nc(c1)cc(c2)c(ccc2)n1
cas=580-17-6
InChI=InChI=1S/C9H8N2/c10-8-5-7-3-1-2-4-9(7)11-6-8/h1-6H,10H2
computed SMILES=N=1C=C(N)C=C2C=CC=CC12
accession=JP011321
date=2016.01.19 (Created 2008.10.21, modified 2011.05.06)
author=YAMAMOTO M, DEP. CHEMISTRY, FAC. SCIENCE, NARA WOMEN'S UNIV.
license=CC BY-NC-SA
exact mass=144.06875
ionization energy=70 eV
ion type=[M]+*
computed spectral entropy=1.9767972841588284
computed normalized entropy=0.6304579591045549
SPLASH=splash10-0006-2900000000-b31e3c55cf424a327fdc
submitter=submitter = University of Tokyo Team (Faculty of Engineering, University of Tokyo)
MoNA Rating=3.75

>  <NUM PEAKS>  (573) 
23

>  <MASS SPECTRAL PEAKS>  (573) 
28 1.23
39 1.89
50 1.23
51 1.24
59 2.97
62 1.57
63 3.54
64 1.04
72 4.16
76 1.07
88 1.2
89 10.63
90 8.32
91 1.08
104 1.09
115 1.02
116 8.98
117 15.59
118 2.43
142 1.37
143 12.41
144 99.99
145 10.83

$$$$

     RDKit          2D

  7  6  0  0  0  0  0  0  0  0999 V2000
    1.6238    1.6875    0.0000 C   0  0  0  0  0  0  0  0  0  0  0  0
   -3.5724    1.6875    0.0000 C   0  0  0  0  0  0  0  0  0  0  0  0
   -0.9743    1.6875    0.0000 C   0  0  0  0  0  0  0  0  0  0  0  0
    0.3248    2.4375    0.0000 C   0  0  0  0  0  0  0  0  0  0  0  0
   -2.2733    2.4375    0.0000 C   0  0  0  0  0  0  0  0  0  0  0  0
    0.3248    3.9375    0.0000 O   0  0  0  0  0  0  0  0  0  0  0  0
   -2.2733    3.9375    0.0000 O   0  0  0  0  0  0  0  0  0  0  0  0
  4  1  1  0
  4  3  1  0
  5  2  1  0
  5  3  1  0
  6  4  2  0
  7  5  2  0
M  END
>  <NAME>  (574) 
2,4-PENTANEDIONE

>  <SYNONYMS>  (574) 
ACETYLACETONE

>  <SPECTRUM TYPE>  (574) 
MS1

>  <INSTRUMENT TYPE>  (574) 
EI-B

>  <INSTRUMENT>  (574) 
HITACHI M-2500

>  <ION MODE>  (574) 
P

>  <INCHIKEY>  (574) 
YRKCREAYFQTBPV-UHFFFAOYSA-N

>  <FORMULA>  (574) 
C5H8O2

>  <EXACT MASS>  (574) 
100.052429496

>  <MW>  (574) 
100

>  <ID>  (574) 
JP011320

>  <CONTRIBUTOR>  (574) 
University of Tokyo Team, {Faculty of Engineering, University of Tokyo

>  <COMMENT>  (574) 
SMILES=CC(=O)CC(C)=O
cas=123-54-6
InChI=InChI=1S/C5H8O2/c1-4(6)3-5(2)7/h3H2,1-2H3
computed SMILES=O=C(C)CC(=O)C
accession=JP011320
date=2016.01.19 (Created 2008.10.21, modified 2011.05.06)
author=YAMAMOTO M, DEP. CHEMISTRY, FAC. SCIENCE, NARA WOMEN'S UNIV.
license=CC BY-NC-SA
exact mass=100.05243
ionization energy=70 eV
ion type=[M]+*
computed spectral entropy=1.9744743678665402
computed normalized entropy=0.6485333605696716
SPLASH=splash10-0006-9100000000-d3295daaa18cb9c248cf
submitter=submitter = University of Tokyo Team (Faculty of Engineering, University of Tokyo)
MoNA Rating=3.75

>  <NUM PEAKS>  (574) 
21

>  <MASS SPECTRAL PEAKS>  (574) 
14 1.4
15 7.85
18 1.08
26 1.56
27 5.45
28 1.14
29 3.89
31 3.46
38 1.17
39 4.59
41 5.22
42 5.45
43 99.99
44 2.3
55 1.59
58 3.89
72 4.5
85 49.05
86 2.11
100 42.45
101 2.84

$$$$

     RDKit          2D

  9  9  0  0  0  0  0  0  0  0999 V2000
   -2.9228    0.8825    0.0000 C   0  0  0  0  0  0  0  0  0  0  0  0
    2.2733   -0.6175    0.0000 C   0  0  0  0  0  0  0  0  0  0  0  0
    2.2738    0.8833    0.0000 C   0  0  0  0  0  0  0  0  0  0  0  0
    0.9738   -1.3683    0.0000 C   0  0  0  0  0  0  0  0  0  0  0  0
    0.9748    1.6333    0.0000 C   0  0  0  0  0  0  0  0  0  0  0  0
   -0.3252   -0.6183    0.0000 C   0  0  0  0  0  0  0  0  0  0  0  0
   -1.6238    1.6325    0.0000 C   0  0  0  0  0  0  0  0  0  0  0  0
   -0.3248    0.8825    0.0000 C   0  0  0  0  0  0  0  0  0  0  0  0
   -1.6238    3.1325    0.0000 O   0  0  0  0  0  0  0  0  0  0  0  0
  3  2  2  0
  4  2  1  0
  5  3  1  0
  6  4  2  0
  7  1  1  0
  8  5  2  0
  8  6  1  0
  8  7  1  0
  9  7  1  0
M  END
>  <NAME>  (575) 
DL-ALPHA-PHENYLETHANOL

>  <SYNONYMS>  (575) 


>  <SPECTRUM TYPE>  (575) 
MS1

>  <INSTRUMENT TYPE>  (575) 
EI-B

>  <INSTRUMENT>  (575) 
HITACHI M-2500

>  <ION MODE>  (575) 
P

>  <INCHIKEY>  (575) 
WAPNOHKVXSQRPX-UHFFFAOYSA-N

>  <FORMULA>  (575) 
C8H10O

>  <EXACT MASS>  (575) 
122.07316494

>  <MW>  (575) 
122

>  <ID>  (575) 
JP011319

>  <CONTRIBUTOR>  (575) 
University of Tokyo Team, {Faculty of Engineering, University of Tokyo

>  <COMMENT>  (575) 
SMILES=CC(O)c(c1)cccc1
InChI=InChI=1S/C8H10O/c1-7(9)8-5-3-2-4-6-8/h2-7,9H,1H3
computed SMILES=OC(C=1C=CC=CC1)C
accession=JP011319
date=2016.01.19 (Created 2008.10.21, modified 2011.05.06)
author=YAMAMOTO M, DEP. CHEMISTRY, FAC. SCIENCE, NARA WOMEN'S UNIV.
license=CC BY-NC-SA
exact mass=122.07316
ionization energy=70 eV
ion type=[M]+*
computed spectral entropy=2.5061370630221353
computed normalized entropy=0.7298038442743346
SPLASH=splash10-056r-9700000000-b55daadb4b176fb12df9
submitter=submitter = University of Tokyo Team (Faculty of Engineering, University of Tokyo)
MoNA Rating=3.75

>  <NUM PEAKS>  (575) 
31

>  <MASS SPECTRAL PEAKS>  (575) 
15 1.26
27 3.48
29 1.73
38 1.21
39 4.98
43 25.56
45 3.39
50 5.72
51 5.72
52 3.87
53 8.6
60 1.13
63 2.31
65 1.42
74 1.94
75 1.4
76 1.48
77 35.21
78 17.01
79 70.78
80 4.87
91 1.99
103 3.39
104 2.39
105 9.4
106 1.46
107 99.99
108 7.81
121 6.44
122 45.57
123 4.04

$$$$

     RDKit          2D

  9  8  0  0  0  0  0  0  0  0999 V2000
   -0.9743    5.0625    0.0000 C   0  0  0  0  0  0  0  0  0  0  0  0
   -3.5724    0.5625    0.0000 C   0  0  0  0  0  0  0  0  0  0  0  0
   -4.8714    2.8125    0.0000 C   0  0  0  0  0  0  0  0  0  0  0  0
    0.3248    2.8125    0.0000 C   0  0  0  0  0  0  0  0  0  0  0  0
   -0.9743    0.5625    0.0000 C   0  0  0  0  0  0  0  0  0  0  0  0
   -2.2733    4.3125    0.0000 C   0  0  0  0  0  0  0  0  0  0  0  0
   -3.5724    2.0625    0.0000 C   0  0  0  0  0  0  0  0  0  0  0  0
   -0.9743    2.0625    0.0000 C   0  0  0  0  0  0  0  0  0  0  0  0
   -2.2733    2.8125    0.0000 N   0  0  0  0  0  0  0  0  0  0  0  0
  6  1  1  0
  7  2  1  0
  7  3  1  0
  8  4  1  0
  8  5  1  0
  9  6  1  0
  9  7  1  0
  9  8  1  0
M  END
>  <NAME>  (576) 
N,N-DIISOPROPYLETHYLAMINE

>  <SYNONYMS>  (576) 
N-ETHYLDIISOPROPYLAMINE

>  <SPECTRUM TYPE>  (576) 
MS1

>  <INSTRUMENT TYPE>  (576) 
EI-B

>  <INSTRUMENT>  (576) 
HITACHI M-2500

>  <ION MODE>  (576) 
P

>  <INCHIKEY>  (576) 
JGFZNNIVVJXRND-UHFFFAOYSA-N

>  <FORMULA>  (576) 
C8H19N

>  <EXACT MASS>  (576) 
129.151749608

>  <MW>  (576) 
129

>  <ID>  (576) 
JP011318

>  <CONTRIBUTOR>  (576) 
University of Tokyo Team, {Faculty of Engineering, University of Tokyo

>  <COMMENT>  (576) 
SMILES=CCN(C(C)C)C(C)C
cas=7087-68-5
InChI=InChI=1S/C8H19N/c1-6-9(7(2)3)8(4)5/h7-8H,6H2,1-5H3
computed SMILES=N(CC)(C(C)C)C(C)C
accession=JP011318
date=2016.01.19 (Created 2008.10.21, modified 2011.05.06)
author=YAMAMOTO M, DEP. CHEMISTRY, FAC. SCIENCE, NARA WOMEN'S UNIV.
license=CC BY-NC-SA
exact mass=129.15175
ionization energy=70 eV
ion type=[M]+*
computed spectral entropy=2.366623721005462
computed normalized entropy=0.7446770405227388
SPLASH=splash10-022c-9400000000-6cccff0d6d3386c2830c
submitter=submitter = University of Tokyo Team (Faculty of Engineering, University of Tokyo)
MoNA Rating=3.75

>  <NUM PEAKS>  (576) 
24

>  <MASS SPECTRAL PEAKS>  (576) 
15 1.6
18 1.88
27 7.27
28 5.13
29 3.7
30 13.88
39 2.89
41 10.08
42 13.87
43 12.03
44 27.5
56 4.95
58 4.07
70 8.47
71 1.94
72 99.99
73 4.84
84 2.83
86 6.23
114 87.2
115 7.2
128 1.21
129 29.96
130 2.95

$$$$

     RDKit          2D

  9  9  0  0  0  0  0  0  0  0999 V2000
    3.5728   -1.3131    0.0000 C   0  0  0  0  0  0  0  0  0  0  0  0
   -1.6239   -1.3125    0.0000 C   0  0  0  0  0  0  0  0  0  0  0  0
    0.9744   -2.8133    0.0000 C   0  0  0  0  0  0  0  0  0  0  0  0
    0.9737    1.6883    0.0000 C   0  0  0  0  0  0  0  0  0  0  0  0
    2.2732    0.9375    0.0000 C   0  0  0  0  0  0  0  0  0  0  0  0
   -0.3254    0.9383    0.0000 C   0  0  0  0  0  0  0  0  0  0  0  0
    2.2737   -0.5633    0.0000 C   0  0  0  0  0  0  0  0  0  0  0  0
   -0.3249   -0.5625    0.0000 C   0  0  0  0  0  0  0  0  0  0  0  0
    0.9746   -1.3133    0.0000 C   0  0  0  0  0  0  0  0  0  0  0  0
  5  4  2  0
  6  4  1  0
  7  1  1  0
  7  5  1  0
  8  2  1  0
  8  6  2  0
  9  3  1  0
  9  7  2  0
  9  8  1  0
M  END
>  <NAME>  (577) 
1,2,3-TRIMETHYLBENZENE

>  <SYNONYMS>  (577) 


>  <SPECTRUM TYPE>  (577) 
MS1

>  <INSTRUMENT TYPE>  (577) 
EI-B

>  <INSTRUMENT>  (577) 
HITACHI M-2500

>  <ION MODE>  (577) 
P

>  <INCHIKEY>  (577) 
FYGHSUNMUKGBRK-UHFFFAOYSA-N

>  <FORMULA>  (577) 
C9H12

>  <EXACT MASS>  (577) 
120.093900384

>  <MW>  (577) 
120

>  <ID>  (577) 
JP011317

>  <CONTRIBUTOR>  (577) 
University of Tokyo Team, {Faculty of Engineering, University of Tokyo

>  <COMMENT>  (577) 
SMILES=Cc(c1)c(C)c(C)cc1
cas=526-73-8
InChI=InChI=1S/C9H12/c1-7-5-4-6-8(2)9(7)3/h4-6H,1-3H3
computed SMILES=C=1C=C(C(=C(C1)C)C)C
accession=JP011317
date=2016.01.19 (Created 2008.10.21, modified 2011.05.06)
author=YAMAMOTO M, DEP. CHEMISTRY, FAC. SCIENCE, NARA WOMEN'S UNIV.
license=CC BY-NC-SA
exact mass=120.0939
ionization energy=70 eV
ion type=[M]+*
computed spectral entropy=2.2476948348764885
computed normalized entropy=0.6819800027303706
SPLASH=splash10-0ab9-2900000000-4249969893bf07e58bb1
submitter=submitter = University of Tokyo Team (Faculty of Engineering, University of Tokyo)
MoNA Rating=3.75

>  <NUM PEAKS>  (577) 
27

>  <MASS SPECTRAL PEAKS>  (577) 
27 2.93
39 5.53
41 3.11
50 1.58
51 4.75
52 1.52
53 2.13
58 2.22
59 2.76
63 2.5
65 3.54
77 9.29
78 3.11
79 6.14
91 8.23
92 1.53
102 1.03
103 5.3
104 2.63
105 99.99
106 9.1
115 3.31
117 3.36
118 1.24
119 17.94
120 72.16
121 7.01

$$$$

     RDKit          2D

  6  5  0  0  0  0  0  0  0  0999 V2000
   -0.0000   -0.0000    0.0000 C   0  0  0  0  0  0  0  0  0  0  0  0
    1.2990    2.2500    0.0000 C   0  0  0  0  0  0  0  0  0  0  0  0
   -1.2990    3.7500    0.0000 C   0  0  0  0  0  0  0  0  0  0  0  0
   -2.5981    1.5000    0.0000 C   0  0  0  0  0  0  0  0  0  0  0  0
   -0.0000    1.5000    0.0000 C   0  0  0  0  0  0  0  0  0  0  0  0
   -1.2990    2.2500    0.0000 N   0  0  0  0  0  0  0  0  0  0  0  0
  5  1  1  0
  5  2  1  0
  6  3  1  0
  6  4  1  0
  6  5  1  0
M  END
>  <NAME>  (578) 
N,N-DIMETHYLISOPROPYLAMINE

>  <SYNONYMS>  (578) 


>  <SPECTRUM TYPE>  (578) 
MS1

>  <INSTRUMENT TYPE>  (578) 
EI-B

>  <INSTRUMENT>  (578) 
HITACHI M-2500

>  <ION MODE>  (578) 
P

>  <INCHIKEY>  (578) 
VMOWKUTXPNPTEN-UHFFFAOYSA-N

>  <FORMULA>  (578) 
C5H13N

>  <EXACT MASS>  (578) 
87.10479941599999

>  <MW>  (578) 
87

>  <ID>  (578) 
JP011316

>  <CONTRIBUTOR>  (578) 
University of Tokyo Team, {Faculty of Engineering, University of Tokyo

>  <COMMENT>  (578) 
SMILES=CC(C)N(C)C
cas=996-35-0
InChI=InChI=1S/C5H13N/c1-5(2)6(3)4/h5H,1-4H3
computed SMILES=N(C)(C)C(C)C
accession=JP011316
date=2016.01.19 (Created 2008.10.21, modified 2011.05.06)
author=YAMAMOTO M, DEP. CHEMISTRY, FAC. SCIENCE, NARA WOMEN'S UNIV.
license=CC BY-NC-SA
exact mass=87.1048
ionization energy=70 eV
ion type=[M]+*
computed spectral entropy=2.0578749734061184
computed normalized entropy=0.6869355421286548
SPLASH=splash10-00di-9000000000-7567b1be5990df584093
submitter=submitter = University of Tokyo Team (Faculty of Engineering, University of Tokyo)
MoNA Rating=3.75

>  <NUM PEAKS>  (578) 
20

>  <MASS SPECTRAL PEAKS>  (578) 
15 3.48
18 1.07
27 2.85
28 2.65
29 1.39
30 1.8
39 2.39
41 3.82
42 11.95
43 5.22
44 23.03
56 9.12
57 3.38
70 5.09
71 3.74
72 99.99
73 5.03
86 6.12
87 23.21
88 1.44

$$$$

     RDKit          2D

 18 18  0  0  0  0  0  0  0  0999 V2000
   -9.1077    4.1129    0.0000 C   0  0  0  0  0  0  0  0  0  0  0  0
   -7.8074    3.3651    0.0000 C   0  0  0  0  0  0  0  0  0  0  0  0
   -6.5096    4.1173    0.0000 C   0  0  0  0  0  0  0  0  0  0  0  0
   -5.2093    3.3695    0.0000 C   0  0  0  0  0  0  0  0  0  0  0  0
   -3.9115    4.1216    0.0000 C   0  0  0  0  0  0  0  0  0  0  0  0
   -2.6112    3.3738    0.0000 C   0  0  0  0  0  0  0  0  0  0  0  0
    5.1830    1.8825    0.0000 C   0  0  0  0  0  0  0  0  0  0  0  0
    3.8885    1.1403    0.0000 C   0  0  0  0  0  0  0  0  0  0  0  0
   -1.3135    4.1260    0.0000 C   0  0  0  0  0  0  0  0  0  0  0  0
    5.1835    3.3833    0.0000 C   0  0  0  0  0  0  0  0  0  0  0  0
    2.5894    1.8903    0.0000 C   0  0  0  0  0  0  0  0  0  0  0  0
   -0.0132    3.3782    0.0000 C   0  0  0  0  0  0  0  0  0  0  0  0
    3.8844    4.1333    0.0000 C   0  0  0  0  0  0  0  0  0  0  0  0
    2.5849    3.3825    0.0000 C   0  0  0  0  0  0  0  0  0  0  0  0
    3.8842    5.6333    0.0000 N   0  0  0  0  0  0  0  0  0  0  0  0
    5.1831    6.3836    0.0000 O   0  0  0  0  0  0  0  0  0  0  0  0
    2.5850    6.3831    0.0000 O   0  0  0  0  0  0  0  0  0  0  0  0
    1.2846    4.1303    0.0000 O   0  0  0  0  0  0  0  0  0  0  0  0
  2  1  1  0
  3  2  1  0
  4  3  1  0
  5  4  1  0
  6  5  1  0
  8  7  2  0
  9  6  1  0
 10  7  1  0
 11  8  1  0
 12  9  1  0
 13 10  2  0
 14 11  2  0
 14 13  1  0
 15 13  1  0
 16 15  1  0
 17 15  2  0
 18 12  1  0
 18 14  1  0
M  CHG  2  15   1  16  -1
M  END
>  <NAME>  (579) 
2-NITROPHENYL OCTYL ETHER

>  <SYNONYMS>  (579) 


>  <SPECTRUM TYPE>  (579) 
MS1

>  <INSTRUMENT TYPE>  (579) 
EI-B

>  <INSTRUMENT>  (579) 
HITACHI M-2500

>  <ION MODE>  (579) 
P

>  <INCHIKEY>  (579) 
CXVOIIMJZFREMM-UHFFFAOYSA-N

>  <FORMULA>  (579) 
C14H21NO3

>  <EXACT MASS>  (579) 
251.152143532

>  <MW>  (579) 
251

>  <ID>  (579) 
JP011315

>  <CONTRIBUTOR>  (579) 
University of Tokyo Team, {Faculty of Engineering, University of Tokyo

>  <COMMENT>  (579) 
SMILES=CCCCCCCCOc(c1)c(ccc1)[N+1]([O-1])=O
InChI=InChI=1S/C14H21NO3/c1-2-3-4-5-6-9-12-18-14-11-8-7-10-13(14)15(16)17/h7-8,10-11H,2-6,9,12H2,1H3
computed SMILES=O=N(=O)C=1C=CC=CC1OCCCCCCCC
accession=JP011315
date=2016.01.19 (Created 2008.10.21, modified 2011.05.06)
author=YAMAMOTO M, DEP. CHEMISTRY, FAC. SCIENCE, NARA WOMEN'S UNIV.
license=CC BY-NC-SA
exact mass=251.15214
ionization energy=70 eV
ion type=[M]+*
computed spectral entropy=3.341028349802653
computed normalized entropy=0.8263630927421064
SPLASH=splash10-0abc-9300000000-af963402f653863b03e6
submitter=submitter = University of Tokyo Team (Faculty of Engineering, University of Tokyo)
MoNA Rating=3.75

>  <NUM PEAKS>  (579) 
57

>  <MASS SPECTRAL PEAKS>  (579) 
14 1.28
15 1.34
18 40.41
26 1.18
27 11.77
28 58.54
29 7.61
30 1.55
32 2.72
36 1.14
38 1.15
39 8.37
41 32.61
42 12.01
43 52.92
44 4.63
51 1.13
52 1.58
53 4.3
55 15.36
56 1.98
57 32.87
58 13.64
63 2.47
64 3.55
65 3.43
67 1.34
69 5.81
70 18.64
71 20.97
77 2.02
78 3.77
79 6.83
80 16.12
81 3.81
82 4.85
83 14.91
84 7.62
91 2.12
92 1.75
94 3.41
106 2.18
108 8.4
109 99.99
110 8.17
111 5.12
112 19.88
113 2.11
120 1.64
122 2.92
123 5.93
132 2.8
138 6.17
139 10.74
221 33.95
222 5.49
251 4.05

$$$$

     RDKit          2D

 10 10  0  0  0  0  0  0  0  0999 V2000
    3.5637    0.9495    0.0000 C   0  0  0  0  0  0  0  0  0  0  0  0
   -0.3238    1.6700    0.0000 C   0  0  0  0  0  0  0  0  0  0  0  0
    0.9712   -0.5730    0.0000 C   0  0  0  0  0  0  0  0  0  0  0  0
   -1.6229    0.9200    0.0000 C   0  0  0  0  0  0  0  0  0  0  0  0
   -0.3279   -1.3230    0.0000 C   0  0  0  0  0  0  0  0  0  0  0  0
    2.2610    1.6930    0.0000 C   0  0  0  0  0  0  0  0  0  0  0  0
    0.9657    0.9365    0.0000 C   0  0  0  0  0  0  0  0  0  0  0  0
   -1.6410   -0.5685    0.0000 C   0  0  0  0  0  0  0  0  0  0  0  0
   -2.9438   -1.3119    0.0000 Cl  0  0  0  0  0  0  0  0  0  0  0  0
    2.2534    3.1930    0.0000 O   0  0  0  0  0  0  0  0  0  0  0  0
  4  2  2  0
  5  3  1  0
  6  1  1  0
  7  2  1  0
  7  3  2  0
  7  6  1  0
  8  4  1  0
  8  5  2  0
  9  8  1  0
 10  6  1  0
M  END
>  <NAME>  (580) 
4-CHLOROPHENYLMETHYLCARBINOL

>  <SYNONYMS>  (580) 
4-CHLORO-ALPHA-ETHYL ALCOHOL

>  <SPECTRUM TYPE>  (580) 
MS1

>  <INSTRUMENT TYPE>  (580) 
EI-B

>  <INSTRUMENT>  (580) 
HITACHI M-2500

>  <ION MODE>  (580) 
P

>  <INCHIKEY>  (580) 
MVOSNPUNXINWAD-UHFFFAOYSA-N

>  <FORMULA>  (580) 
C8H9ClO

>  <EXACT MASS>  (580) 
156.034192588

>  <MW>  (580) 
156

>  <ID>  (580) 
JP011314

>  <CONTRIBUTOR>  (580) 
University of Tokyo Team, {Faculty of Engineering, University of Tokyo

>  <COMMENT>  (580) 
SMILES=CC(O)c(c1)ccc(Cl)c1
InChI=InChI=1S/C8H9ClO/c1-6(10)7-2-4-8(9)5-3-7/h2-6,10H,1H3
computed SMILES=ClC1=CC=C(C=C1)C(O)C
accession=JP011314
date=2016.01.19 (Created 2008.10.21, modified 2011.05.06)
author=YAMAMOTO M, DEP. CHEMISTRY, FAC. SCIENCE, NARA WOMEN'S UNIV.
license=CC BY-NC-SA
exact mass=156.03419
ionization energy=70 eV
ion type=[M]+*
computed spectral entropy=3.2303679659289637
computed normalized entropy=0.7955703250947115
SPLASH=splash10-004l-9700000000-cbf22a5516f35c6f483e
submitter=submitter = University of Tokyo Team (Faculty of Engineering, University of Tokyo)
MoNA Rating=3.75

>  <NUM PEAKS>  (580) 
58

>  <MASS SPECTRAL PEAKS>  (580) 
15 3.54
26 1.04
27 4.84
29 6.13
37 1.53
38 3.07
39 6.13
43 39.61
44 1.38
45 5.39
49 1.65
50 18.13
51 23.75
52 3.86
53 1.18
61 2.2
62 3.79
63 6.87
65 3.09
70 1.06
73 3.82
74 11.38
75 23.1
76 6.55
77 99.99
78 13.18
79 1.52
84 1.16
85 3.12
86 1.47
87 1.7
89 3.17
91 5.55
99 1.17
101 2.54
102 3.7
103 8.3
104 1.49
105 4.92
106 3.01
111 10.85
112 11.12
113 34.97
114 5.36
115 9.89
121 11.87
122 1.05
125 1.09
138 1.94
139 9.61
140 1.9
141 87.06
142 7.1
144 2.12
155 1.57
156 28.74
157 3.15
158 8.95

$$$$

     RDKit          2D

  9  8  0  0  0  0  0  0  0  0999 V2000
    2.5981    4.5000    0.0000 C   0  0  0  0  0  0  0  0  0  0  0  0
   -7.7942    4.5000    0.0000 C   0  0  0  0  0  0  0  0  0  0  0  0
    1.2990    5.2500    0.0000 C   0  0  0  0  0  0  0  0  0  0  0  0
   -6.4952    5.2500    0.0000 C   0  0  0  0  0  0  0  0  0  0  0  0
    0.0000    4.5000    0.0000 C   0  0  0  0  0  0  0  0  0  0  0  0
   -5.1962    4.5000    0.0000 C   0  0  0  0  0  0  0  0  0  0  0  0
   -1.2990    5.2500    0.0000 C   0  0  0  0  0  0  0  0  0  0  0  0
   -3.8971    5.2500    0.0000 C   0  0  0  0  0  0  0  0  0  0  0  0
   -2.5981    4.5000    0.0000 N   0  0  0  0  0  0  0  0  0  0  0  0
  3  1  1  0
  4  2  1  0
  5  3  1  0
  6  4  1  0
  7  5  1  0
  8  6  1  0
  9  7  1  0
  9  8  1  0
M  END
>  <NAME>  (581) 
DIBUTYLAMINE

>  <SYNONYMS>  (581) 


>  <SPECTRUM TYPE>  (581) 
MS1

>  <INSTRUMENT TYPE>  (581) 
EI-B

>  <INSTRUMENT>  (581) 
HITACHI M-2500

>  <ION MODE>  (581) 
P

>  <INCHIKEY>  (581) 
JQVDAXLFBXTEQA-UHFFFAOYSA-N

>  <FORMULA>  (581) 
C8H19N

>  <EXACT MASS>  (581) 
129.151749608

>  <MW>  (581) 
129

>  <ID>  (581) 
JP011312

>  <CONTRIBUTOR>  (581) 
University of Tokyo Team, {Faculty of Engineering, University of Tokyo

>  <COMMENT>  (581) 
SMILES=CCCCNCCCC
cas=111-92-2
InChI=InChI=1S/C8H19N/c1-3-5-7-9-8-6-4-2/h9H,3-8H2,1-2H3
computed SMILES=N(CCCC)CCCC
accession=JP011312
date=2016.01.19 (Created 2008.10.21, modified 2011.05.06)
author=YAMAMOTO M, DEP. CHEMISTRY, FAC. SCIENCE, NARA WOMEN'S UNIV.
license=CC BY-NC-SA
exact mass=129.15175
ionization energy=70 eV
ion type=[M]+*
computed spectral entropy=2.5066483146356737
computed normalized entropy=0.7369899577573713
SPLASH=splash10-002o-9000000000-cea1fed937c50a7590a3
submitter=submitter = University of Tokyo Team (Faculty of Engineering, University of Tokyo)
MoNA Rating=3.75

>  <NUM PEAKS>  (581) 
30

>  <MASS SPECTRAL PEAKS>  (581) 
15 1.65
26 1.12
27 14.84
28 10.97
29 24.44
30 36.41
39 9.1
40 1.15
41 24.03
42 8.74
43 9.5
44 99.99
45 2.77
53 1.46
54 1.36
55 4.29
56 8.31
57 19.11
58 1.72
68 1.4
70 2.64
72 2.77
84 2.76
86 90.09
87 5.55
100 1.23
114 1.19
128 1.79
129 13.91
130 1.87

$$$$

     RDKit          2D

  8  7  0  0  0  0  0  0  0  0999 V2000
    1.6238    3.1875    0.0000 C   0  0  0  0  0  0  0  0  0  0  0  0
   -4.8714    3.9375    0.0000 C   0  0  0  0  0  0  0  0  0  0  0  0
    0.3248    3.9375    0.0000 C   0  0  0  0  0  0  0  0  0  0  0  0
   -3.5724    3.1875    0.0000 C   0  0  0  0  0  0  0  0  0  0  0  0
   -2.2733    3.9375    0.0000 C   0  0  0  0  0  0  0  0  0  0  0  0
   -3.5724    1.6875    0.0000 Br  0  0  0  0  0  0  0  0  0  0  0  0
   -2.2733    5.4375    0.0000 O   0  0  0  0  0  0  0  0  0  0  0  0
   -0.9743    3.1875    0.0000 O   0  0  0  0  0  0  0  0  0  0  0  0
  3  1  1  0
  4  2  1  0
  5  4  1  0
  6  4  1  0
  7  5  2  0
  8  3  1  0
  8  5  1  0
M  END
>  <NAME>  (582) 
ETHYL 2-BROMOPROPIONATE

>  <SYNONYMS>  (582) 


>  <SPECTRUM TYPE>  (582) 
MS1

>  <INSTRUMENT TYPE>  (582) 
EI-B

>  <INSTRUMENT>  (582) 
HITACHI M-2500

>  <ION MODE>  (582) 
P

>  <INCHIKEY>  (582) 
ARFLASKVLJTEJD-UHFFFAOYSA-N

>  <FORMULA>  (582) 
C5H9BrO2

>  <EXACT MASS>  (582) 
179.978591628

>  <MW>  (582) 
180

>  <ID>  (582) 
JP011311

>  <CONTRIBUTOR>  (582) 
University of Tokyo Team, {Faculty of Engineering, University of Tokyo

>  <COMMENT>  (582) 
SMILES=CCOC(=O)C(C)Br
cas=535-11-5
InChI=InChI=1S/C5H9BrO2/c1-3-8-5(7)4(2)6/h4H,3H2,1-2H3
computed SMILES=O=C(OCC)C(Br)C
accession=JP011311
date=2016.01.19 (Created 2008.10.21, modified 2011.05.06)
author=YAMAMOTO M, DEP. CHEMISTRY, FAC. SCIENCE, NARA WOMEN'S UNIV.
license=CC BY-NC-SA
exact mass=179.97859
ionization energy=70 eV
ion type=[M]+*
computed spectral entropy=2.9613534418227587
computed normalized entropy=0.8083263577538725
SPLASH=splash10-056r-9500000000-843d57926d0c18b539cc
submitter=submitter = University of Tokyo Team (Faculty of Engineering, University of Tokyo)
MoNA Rating=3.75

>  <NUM PEAKS>  (582) 
39

>  <MASS SPECTRAL PEAKS>  (582) 
14 1.28
15 5.13
25 1.26
26 18.37
27 73.38
28 34.25
29 99.99
30 2.68
31 4.16
41 11.46
42 2.4
43 14.44
44 1.12
45 16.52
53 1.45
55 13.61
56 15.04
57 41.33
58 2.36
73 5.43
74 2.22
79 2.13
80 1.04
81 2.18
101 5.48
106 9.17
107 60.74
108 24.73
109 59.08
110 15.26
135 12.69
136 1
137 12.34
152 4.81
154 4.82
180 15.31
181 1.11
182 15.09
183 1.03

$$$$

     RDKit          2D

 10  9  0  0  0  0  0  0  0  0999 V2000
    2.5981    4.5000    0.0000 C   0  0  0  0  0  0  0  0  0  0  0  0
   -7.7942    4.5000    0.0000 C   0  0  0  0  0  0  0  0  0  0  0  0
    1.2990    5.2500    0.0000 C   0  0  0  0  0  0  0  0  0  0  0  0
   -6.4952    5.2500    0.0000 C   0  0  0  0  0  0  0  0  0  0  0  0
   -1.2990    5.2500    0.0000 C   0  0  0  0  0  0  0  0  0  0  0  0
   -3.8971    5.2500    0.0000 C   0  0  0  0  0  0  0  0  0  0  0  0
   -2.5981    4.5000    0.0000 C   0  0  0  0  0  0  0  0  0  0  0  0
   -2.5981    3.0000    0.0000 O   0  0  0  0  0  0  0  0  0  0  0  0
    0.0000    4.5000    0.0000 O   0  0  0  0  0  0  0  0  0  0  0  0
   -5.1962    4.5000    0.0000 O   0  0  0  0  0  0  0  0  0  0  0  0
  3  1  1  0
  4  2  1  0
  7  5  1  0
  7  6  1  0
  8  7  1  0
  9  3  1  0
  9  5  1  0
 10  4  1  0
 10  6  1  0
M  END
>  <NAME>  (583) 
DIETHYLIN

>  <SYNONYMS>  (583) 
GLYCEROL ALPHA,ALPHA-DIETHYL ESTER

>  <SPECTRUM TYPE>  (583) 
MS1

>  <INSTRUMENT TYPE>  (583) 
EI-B

>  <INSTRUMENT>  (583) 
HITACHI M-2500

>  <ION MODE>  (583) 
P

>  <INCHIKEY>  (583) 
WIHIUTUAHOZVLE-UHFFFAOYSA-N

>  <FORMULA>  (583) 
C7H16O3

>  <EXACT MASS>  (583) 
148.10994437199997

>  <MW>  (583) 
148

>  <ID>  (583) 
JP011310

>  <CONTRIBUTOR>  (583) 
University of Tokyo Team, {Faculty of Engineering, University of Tokyo

>  <COMMENT>  (583) 
SMILES=CCOCC(O)COCC
InChI=InChI=1S/C7H16O3/c1-3-9-5-7(8)6-10-4-2/h7-8H,3-6H2,1-2H3
computed SMILES=OC(COCC)COCC
accession=JP011310
date=2016.01.19 (Created 2008.10.21, modified 2011.05.06)
author=YAMAMOTO M, DEP. CHEMISTRY, FAC. SCIENCE, NARA WOMEN'S UNIV.
license=CC BY-NC-SA
exact mass=148.10994
ionization energy=70 eV
ion type=[M]+*
computed spectral entropy=2.951318108037907
computed normalized entropy=0.7896144949786612
SPLASH=splash10-08j3-9000000000-bed6a6ca4d0d104ef7b3
submitter=submitter = University of Tokyo Team (Faculty of Engineering, University of Tokyo)
MoNA Rating=3.75

>  <NUM PEAKS>  (583) 
42

>  <MASS SPECTRAL PEAKS>  (583) 
15 7.66
18 1.68
19 3.99
26 3.31
27 27.12
28 6.23
29 48.17
30 1.68
31 67.29
32 1.13
33 1.37
39 2.35
41 5.72
42 5.06
43 46.37
44 23.11
45 28.03
47 3.55
55 1.67
56 1.4
57 21.07
58 14.84
59 92.86
60 9.38
61 99.99
62 2.56
72 1.76
73 6.57
74 1.63
75 6.01
85 10.66
86 45.1
87 5.03
88 5.48
89 33.38
90 2.12
101 3.71
102 5.31
103 4.08
105 1.45
129 2.01
130 3.21

$$$$

     RDKit          2D

  9  8  0  0  0  0  0  0  0  0999 V2000
    1.9486    2.6250    0.0000 C   0  0  0  0  0  0  0  0  0  0  0  0
   -4.5466    3.3750    0.0000 C   0  0  0  0  0  0  0  0  0  0  0  0
   -3.2476    1.1250    0.0000 C   0  0  0  0  0  0  0  0  0  0  0  0
   -0.6495    2.6250    0.0000 C   0  0  0  0  0  0  0  0  0  0  0  0
    0.6495    3.3750    0.0000 C   0  0  0  0  0  0  0  0  0  0  0  0
   -1.9486    3.3750    0.0000 C   0  0  0  0  0  0  0  0  0  0  0  0
   -3.2476    2.6250    0.0000 N   0  0  0  0  0  0  0  0  0  0  0  0
    0.6495    4.8750    0.0000 O   0  0  0  0  0  0  0  0  0  0  0  0
   -1.9486    4.8750    0.0000 O   0  0  0  0  0  0  0  0  0  0  0  0
  5  1  1  0
  5  4  1  0
  6  4  1  0
  7  2  1  0
  7  3  1  0
  7  6  1  0
  8  5  2  0
  9  6  2  0
M  END
>  <NAME>  (584) 
N,N-DIMETHYLACETOACETAMIDE

>  <SYNONYMS>  (584) 


>  <SPECTRUM TYPE>  (584) 
MS1

>  <INSTRUMENT TYPE>  (584) 
EI-B

>  <INSTRUMENT>  (584) 
HITACHI M-2500

>  <ION MODE>  (584) 
P

>  <INCHIKEY>  (584) 
YPEWWOUWRRQBAX-UHFFFAOYSA-N

>  <FORMULA>  (584) 
C6H11NO2

>  <EXACT MASS>  (584) 
129.078978592

>  <MW>  (584) 
129

>  <ID>  (584) 
JP011309

>  <CONTRIBUTOR>  (584) 
University of Tokyo Team, {Faculty of Engineering, University of Tokyo

>  <COMMENT>  (584) 
SMILES=CC(=O)CC(=O)N(C)C
InChI=InChI=1S/C6H11NO2/c1-5(8)4-6(9)7(2)3/h4H2,1-3H3
computed SMILES=O=C(N(C)C)CC(=O)C
accession=JP011309
date=2016.01.19 (Created 2008.10.21, modified 2011.05.06)
author=YAMAMOTO M, DEP. CHEMISTRY, FAC. SCIENCE, NARA WOMEN'S UNIV.
license=CC BY-NC-SA
exact mass=129.07898
ionization energy=70 eV
ion type=[M]+*
computed spectral entropy=2.7788041480111327
computed normalized entropy=0.7880090899989872
SPLASH=splash10-0006-9100000000-69468d943f9c9f10bf3b
submitter=submitter = University of Tokyo Team (Faculty of Engineering, University of Tokyo)
MoNA Rating=3.75

>  <NUM PEAKS>  (584) 
34

>  <MASS SPECTRAL PEAKS>  (584) 
14 1.74
15 15.33
18 3.81
26 1.7
27 6.14
28 8.05
29 2.7
30 7.6
31 2.25
38 1.31
39 4.31
40 2.37
41 5.32
42 35.1
43 67.41
44 99.99
45 57.91
46 10.59
55 3.61
56 3.89
57 1.64
58 10.39
69 7.67
70 1.03
72 50.82
73 2.13
85 20.56
86 10.09
87 10.11
101 5.91
112 4.78
114 7.38
129 63.93
130 6.35

$$$$

     RDKit          2D

 14 14  0  0  0  0  0  0  0  0999 V2000
    4.9068    1.6700    0.0000 C   0  0  0  0  0  0  0  0  0  0  0  0
   -0.2904    0.1688    0.0000 C   0  0  0  0  0  0  0  0  0  0  0  0
   -1.5889    2.4196    0.0000 C   0  0  0  0  0  0  0  0  0  0  0  0
    1.0087   -0.5812    0.0000 C   0  0  0  0  0  0  0  0  0  0  0  0
   -2.8880    1.6696    0.0000 C   0  0  0  0  0  0  0  0  0  0  0  0
    1.0096    2.4204    0.0000 C   0  0  0  0  0  0  0  0  0  0  0  0
   -0.2899    1.6696    0.0000 C   0  0  0  0  0  0  0  0  0  0  0  0
    2.3082    0.1696    0.0000 C   0  0  0  0  0  0  0  0  0  0  0  0
    2.3087    1.6704    0.0000 C   0  0  0  0  0  0  0  0  0  0  0  0
   -4.1870    2.4196    0.0000 C   0  0  0  0  0  0  0  0  0  0  0  0
    3.6072   -0.5804    0.0000 O   0  0  0  0  0  0  0  0  0  0  0  0
   -4.1870    3.9196    0.0000 O   0  0  0  0  0  0  0  0  0  0  0  0
   -5.4860    1.6696    0.0000 O   0  0  0  0  0  0  0  0  0  0  0  0
    3.6078    2.4202    0.0000 O   0  0  0  0  0  0  0  0  0  0  0  0
  4  2  2  0
  3  5  2  0
  7  2  1  0
  7  3  1  0
  7  6  2  0
  8  4  1  0
  9  6  1  0
  9  8  2  0
 10  5  1  0
 11  8  1  0
 12 10  2  0
 13 10  1  0
 14  1  1  0
 14  9  1  0
M  END
>  <NAME>  (585) 
3-HYDROXY-4-METHOXYCINNAMIC ACID

>  <SYNONYMS>  (585) 
FERULIC ACID

>  <SPECTRUM TYPE>  (585) 
MS1

>  <INSTRUMENT TYPE>  (585) 
EI-B

>  <INSTRUMENT>  (585) 
HITACHI M-2500

>  <ION MODE>  (585) 
P

>  <INCHIKEY>  (585) 
KSEBMYQBYZTDHS-HWKANZROSA-N

>  <FORMULA>  (585) 
C10H10O4

>  <EXACT MASS>  (585) 
194.0579088

>  <MW>  (585) 
194

>  <ID>  (585) 
JP011308

>  <CONTRIBUTOR>  (585) 
University of Tokyo Team, {Faculty of Engineering, University of Tokyo

>  <COMMENT>  (585) 
SMILES=COc(c1)c(O)ccc(C=CC(O)=O)1
cas=537-73-5
InChI=InChI=1S/C10H10O4/c1-14-9-6-7(2-4-8(9)11)3-5-10(12)13/h2-6,11H,1H3,(H,12,13)/b5-3+
computed SMILES=O=C(O)C=CC1=CC=C(O)C(OC)=C1
accession=JP011308
date=2016.01.19 (Created 2008.10.21, modified 2011.05.06)
author=YAMAMOTO M, DEP. CHEMISTRY, FAC. SCIENCE, NARA WOMEN'S UNIV.
license=CC BY-NC-SA
exact mass=194.05791
ionization energy=70 eV
ion type=[M]+*
computed spectral entropy=2.8166376220236833
computed normalized entropy=0.7488667274765032
SPLASH=splash10-0006-2900000000-a338415bd30d4e62e664
submitter=submitter = University of Tokyo Team (Faculty of Engineering, University of Tokyo)
MoNA Rating=3.75

>  <NUM PEAKS>  (585) 
43

>  <MASS SPECTRAL PEAKS>  (585) 
15 1.63
39 2.52
41 1.07
45 2.02
50 2.11
51 5.71
52 2.52
53 1.68
55 2.65
62 1.19
63 2.97
65 1.69
67 2.8
69 2.03
77 7.57
78 4.06
79 2.17
81 1.08
89 4.99
91 1.67
95 4.52
105 6.61
106 1.77
107 4.72
109 1.44
117 2.15
123 4.39
133 13.59
134 5.09
145 1.02
147 2.61
148 2.73
149 2.95
151 5.08
161 2.65
177 17.67
178 2.12
179 20.38
180 3.16
193 2.81
194 99.99
195 22.11
196 2.66

$$$$

     RDKit          2D

 14 14  0  0  0  0  0  0  0  0999 V2000
    1.3000   -0.7500    0.0000 C   0  0  0  0  0  0  0  0  0  0  0  0
    0.0000    1.5000    0.0000 C   0  0  0  0  0  0  0  0  0  0  0  0
   -0.0000   -1.5000    0.0000 C   0  0  0  0  0  0  0  0  0  0  0  0
   -1.3000    0.7500    0.0000 C   0  0  0  0  0  0  0  0  0  0  0  0
    3.8981    0.7504    0.0000 C   0  0  0  0  0  0  0  0  0  0  0  0
    5.1970    1.5006    0.0000 C   0  0  0  0  0  0  0  0  0  0  0  0
    1.3000    0.7500    0.0000 C   0  0  0  0  0  0  0  0  0  0  0  0
   -1.3000   -0.7500    0.0000 C   0  0  0  0  0  0  0  0  0  0  0  0
    2.5989    1.5002    0.0000 C   0  0  0  0  0  0  0  0  0  0  0  0
    6.4962    0.7508    0.0000 C   0  0  0  0  0  0  0  0  0  0  0  0
   -2.5989   -1.5002    0.0000 F   0  0  0  0  0  0  0  0  0  0  0  0
    2.5987    3.0002    0.0000 O   0  0  0  0  0  0  0  0  0  0  0  0
    6.4964   -0.7492    0.0000 O   0  0  0  0  0  0  0  0  0  0  0  0
    7.7951    1.5010    0.0000 O   0  0  0  0  0  0  0  0  0  0  0  0
  3  1  2  0
  4  2  1  0
  6  5  1  0
  7  1  1  0
  7  2  2  0
  8  3  1  0
  8  4  2  0
  9  5  1  0
  9  7  1  0
 10  6  1  0
 11  8  1  0
 12  9  2  0
 13 10  2  0
 14 10  1  0
M  END
>  <NAME>  (586) 
3-(4-FLUOROBENZOYL)PROPIONIC ACID

>  <SYNONYMS>  (586) 


>  <SPECTRUM TYPE>  (586) 
MS1

>  <INSTRUMENT TYPE>  (586) 
EI-B

>  <INSTRUMENT>  (586) 
HITACHI M-2500

>  <ION MODE>  (586) 
P

>  <INCHIKEY>  (586) 
WUYWHIAAQYQKPP-UHFFFAOYSA-N

>  <FORMULA>  (586) 
C10H9FO3

>  <EXACT MASS>  (586) 
196.05357236799998

>  <MW>  (586) 
196

>  <ID>  (586) 
JP011306

>  <CONTRIBUTOR>  (586) 
University of Tokyo Team, {Faculty of Engineering, University of Tokyo

>  <COMMENT>  (586) 
SMILES=OC(=O)CCC(=O)c(c1)ccc(F)c1
cas=366-77-8
InChI=InChI=1S/C10H9FO3/c11-8-3-1-7(2-4-8)9(12)5-6-10(13)14/h1-4H,5-6H2,(H,13,14)
computed SMILES=O=C(O)CCC(=O)C1=CC=C(F)C=C1
accession=JP011306
date=2016.01.19 (Created 2008.10.21, modified 2011.05.06)
author=YAMAMOTO M, DEP. CHEMISTRY, FAC. SCIENCE, NARA WOMEN'S UNIV.
license=CC BY-NC-SA
exact mass=196.05357
ionization energy=70 eV
ion type=[M]+*
computed spectral entropy=2.046283842695211
computed normalized entropy=0.6438795413579183
SPLASH=splash10-00di-8900000000-4bf6f4fc7af5412f349a
submitter=submitter = University of Tokyo Team (Faculty of Engineering, University of Tokyo)
MoNA Rating=3.75

>  <NUM PEAKS>  (586) 
24

>  <MASS SPECTRAL PEAKS>  (586) 
27 4.15
28 1.96
29 1.16
45 5.88
50 3.91
51 2.69
55 3.44
57 1.15
63 1.18
68 1.83
69 3.59
73 1.32
74 3.53
75 20.51
76 2.11
94 4.07
95 46.22
96 4.02
101 1.1
123 99.99
124 7.81
151 1.08
179 1.3
196 6.4

$$$$

     RDKit          2D

 14 14  0  0  0  0  0  0  0  0999 V2000
    4.9068    1.6700    0.0000 C   0  0  0  0  0  0  0  0  0  0  0  0
   -0.2904    0.1688    0.0000 C   0  0  0  0  0  0  0  0  0  0  0  0
   -1.5889    2.4196    0.0000 C   0  0  0  0  0  0  0  0  0  0  0  0
    1.0087   -0.5812    0.0000 C   0  0  0  0  0  0  0  0  0  0  0  0
   -2.8880    1.6696    0.0000 C   0  0  0  0  0  0  0  0  0  0  0  0
    1.0096    2.4204    0.0000 C   0  0  0  0  0  0  0  0  0  0  0  0
   -0.2899    1.6696    0.0000 C   0  0  0  0  0  0  0  0  0  0  0  0
    2.3082    0.1696    0.0000 C   0  0  0  0  0  0  0  0  0  0  0  0
    2.3087    1.6704    0.0000 C   0  0  0  0  0  0  0  0  0  0  0  0
   -4.1870    2.4196    0.0000 C   0  0  0  0  0  0  0  0  0  0  0  0
    3.6072   -0.5804    0.0000 O   0  0  0  0  0  0  0  0  0  0  0  0
   -4.1870    3.9196    0.0000 O   0  0  0  0  0  0  0  0  0  0  0  0
   -5.4860    1.6696    0.0000 O   0  0  0  0  0  0  0  0  0  0  0  0
    3.6078    2.4202    0.0000 O   0  0  0  0  0  0  0  0  0  0  0  0
  4  2  2  0
  3  5  2  0
  7  2  1  0
  7  3  1  0
  7  6  2  0
  8  4  1  0
  9  6  1  0
  9  8  2  0
 10  5  1  0
 11  8  1  0
 12 10  2  0
 13 10  1  0
 14  1  1  0
 14  9  1  0
M  END
>  <NAME>  (587) 
4-HYDROXY-3-METHOXYCINNAMIC ACID

>  <SYNONYMS>  (587) 
FERULIC ACID

>  <SPECTRUM TYPE>  (587) 
MS1

>  <INSTRUMENT TYPE>  (587) 
EI-B

>  <INSTRUMENT>  (587) 
HITACHI M-2500

>  <ION MODE>  (587) 
P

>  <INCHIKEY>  (587) 
KSEBMYQBYZTDHS-HWKANZROSA-N

>  <FORMULA>  (587) 
C10H10O4

>  <EXACT MASS>  (587) 
194.0579088

>  <MW>  (587) 
194

>  <ID>  (587) 
JP011305

>  <CONTRIBUTOR>  (587) 
University of Tokyo Team, {Faculty of Engineering, University of Tokyo

>  <COMMENT>  (587) 
cas=1135-24-6
SMILES=COc(c1)c(O)ccc(C=CC(O)=O)1
InChI=InChI=1S/C10H10O4/c1-14-9-6-7(2-4-8(9)11)3-5-10(12)13/h2-6,11H,1H3,(H,12,13)/b5-3+
computed SMILES=O=C(O)C=CC1=CC=C(O)C(OC)=C1
accession=JP011305
date=2016.01.19 (Created 2008.10.21, modified 2011.05.06)
author=YAMAMOTO M, DEP. CHEMISTRY, FAC. SCIENCE, NARA WOMEN'S UNIV.
license=CC BY-NC-SA
exact mass=194.05791
ionization energy=70 eV
ion type=[M]+*
computed spectral entropy=3.067678561823963
computed normalized entropy=0.776383027804045
SPLASH=splash10-0006-2900000000-8db541bacfe47b9e0c8b
submitter=submitter = University of Tokyo Team (Faculty of Engineering, University of Tokyo)
MoNA Rating=3.75

>  <NUM PEAKS>  (587) 
52

>  <MASS SPECTRAL PEAKS>  (587) 
15 2.31
29 1.18
39 2.47
41 1
45 3.34
50 2.53
51 6.16
52 2.91
53 2.39
55 2.84
62 1.81
63 4.01
65 2.21
66 1.17
67 3.03
69 2.15
76 1.09
77 8.9
78 4.8
79 2.57
81 1.37
89 6.09
91 1.8
95 4.82
105 7.95
106 2.33
107 5.22
109 1.93
117 4.31
118 1.56
123 4.93
133 17.75
134 5.95
135 1.63
137 1.09
145 5.74
148 4.3
149 3.19
150 1.24
151 6.68
152 1.06
161 4.67
163 1.09
170 1.15
177 8.98
178 1.35
179 20.73
180 2.22
193 6.66
194 99.99
195 11.69
196 1.45

$$$$

     RDKit          2D

 14 15  0  0  0  0  0  0  0  0999 V2000
   -3.0200   -1.1200    0.0000 C   0  0  0  0  0  0  0  0  0  0  0  0
   -3.0200    0.3600    0.0000 C   0  0  0  0  0  0  0  0  0  0  0  0
   -1.7200   -1.8800    0.0000 C   0  0  0  0  0  0  0  0  0  0  0  0
   -1.7500    1.1100    0.0000 C   0  0  0  0  0  0  0  0  0  0  0  0
    0.8800   -1.8800    0.0000 C   0  0  0  0  0  0  0  0  0  0  0  0
    2.1700   -1.1200    0.0000 C   0  0  0  0  0  0  0  0  0  0  0  0
   -0.4200   -1.1200    0.0000 C   0  0  0  0  0  0  0  0  0  0  0  0
   -0.4200    0.3600    0.0000 C   0  0  0  0  0  0  0  0  0  0  0  0
    2.1500    0.3800    0.0000 C   0  0  0  0  0  0  0  0  0  0  0  0
    0.8500    1.1400    0.0000 C   0  0  0  0  0  0  0  0  0  0  0  0
    3.4461    1.1351    0.0000 C   0  0  0  0  0  0  0  0  0  0  0  0
    0.8337    2.6399    0.0000 O   0  0  0  0  0  0  0  0  0  0  0  0
    3.4401    2.6351    0.0000 O   0  0  0  0  0  0  0  0  0  0  0  0
    4.7481    0.3903    0.0000 O   0  0  0  0  0  0  0  0  0  0  0  0
  2  1  2  0
  3  1  1  0
  4  2  1  0
  6  5  2  0
  7  3  2  0
  7  5  1  0
  8  4  2  0
  8  7  1  0
  9  6  1  0
 10  8  1  0
 10  9  2  0
 11  9  1  0
 12 10  1  0
 13 11  2  0
 14 11  1  0
M  END
>  <NAME>  (588) 
1-HYDROXY-2-NAPHTHOIC ACID

>  <SYNONYMS>  (588) 


>  <SPECTRUM TYPE>  (588) 
MS1

>  <INSTRUMENT TYPE>  (588) 
EI-B

>  <INSTRUMENT>  (588) 
HITACHI M-2500

>  <ION MODE>  (588) 
P

>  <INCHIKEY>  (588) 
SJJCQDRGABAVBB-UHFFFAOYSA-N

>  <FORMULA>  (588) 
C11H8O3

>  <EXACT MASS>  (588) 
188.04734411599998

>  <MW>  (588) 
188

>  <ID>  (588) 
JP011304

>  <CONTRIBUTOR>  (588) 
University of Tokyo Team, {Faculty of Engineering, University of Tokyo

>  <COMMENT>  (588) 
SMILES=OC(=O)c(c1)c(O)c(c2)c(ccc2)c1
cas=86-48-6
InChI=InChI=1S/C11H8O3/c12-10-8-4-2-1-3-7(8)5-6-9(10)11(13)14/h1-6,12H,(H,13,14)
computed SMILES=O=C(O)C=1C=CC=2C=CC=CC2C1O
accession=JP011304
date=2016.01.19 (Created 2008.10.21, modified 2011.05.06)
author=YAMAMOTO M, DEP. CHEMISTRY, FAC. SCIENCE, NARA WOMEN'S UNIV.
license=CC BY-NC-SA
exact mass=188.04734
ionization energy=70 eV
ion type=[M]+*
computed spectral entropy=3.170317832982812
computed normalized entropy=0.7712028969345077
SPLASH=splash10-03ki-4900000000-3ff6ac6d10c5e52710d3
submitter=submitter = University of Tokyo Team (Faculty of Engineering, University of Tokyo)
MoNA Rating=3.75

>  <NUM PEAKS>  (588) 
61

>  <MASS SPECTRAL PEAKS>  (588) 
16 1.16
17 3.83
18 8.52
27 3.01
28 1.96
29 1.57
37 1.15
38 2.91
39 7.24
41 2.03
43 1.5
44 1.01
45 4.35
50 6.22
51 6.58
52 1.01
53 3.97
55 1.47
57 2.7
61 3.53
62 10.24
63 18.54
64 3.31
65 4.61
69 1.39
71 2.94
73 1.32
74 7.43
75 6.44
76 3.57
77 5.81
78 1.03
85 4.17
86 7.8
87 14.64
88 16.68
89 10.99
90 1.52
98 1.51
99 1.19
101 1.16
102 2.58
103 3.52
105 1.08
110 1.17
113 27.93
114 99.99
115 39.78
116 7.37
131 2.69
142 8.26
143 4.25
144 8.47
145 1.15
158 1.04
169 1.01
170 94.02
171 12.34
172 1.04
188 47.83
189 6.13

$$$$

     RDKit          2D

 13 13  0  0  0  0  0  0  0  0999 V2000
    3.2823   -3.0174    0.0000 C   0  0  0  0  0  0  0  0  0  0  0  0
    4.5818    0.7330    0.0000 C   0  0  0  0  0  0  0  0  0  0  0  0
   -0.6153   -0.7683    0.0000 C   0  0  0  0  0  0  0  0  0  0  0  0
    0.6838   -1.5183    0.0000 C   0  0  0  0  0  0  0  0  0  0  0  0
   -1.9138    1.4826    0.0000 C   0  0  0  0  0  0  0  0  0  0  0  0
   -3.2129    0.7326    0.0000 C   0  0  0  0  0  0  0  0  0  0  0  0
    0.6847    1.4834    0.0000 C   0  0  0  0  0  0  0  0  0  0  0  0
   -0.6148    0.7326    0.0000 C   0  0  0  0  0  0  0  0  0  0  0  0
    1.9833   -0.7674    0.0000 C   0  0  0  0  0  0  0  0  0  0  0  0
    1.9838    0.7334    0.0000 C   0  0  0  0  0  0  0  0  0  0  0  0
   -4.5119    1.4826    0.0000 N   0  0  0  0  0  0  0  0  0  0  0  0
    3.2823   -1.5174    0.0000 O   0  0  0  0  0  0  0  0  0  0  0  0
    3.2829    1.4832    0.0000 O   0  0  0  0  0  0  0  0  0  0  0  0
  4  3  2  0
  6  5  1  0
  8  3  1  0
  8  5  1  0
  8  7  2  0
  9  4  1  0
 10  7  1  0
 10  9  2  0
 11  6  1  0
 12  1  1  0
 12  9  1  0
 13  2  1  0
 13 10  1  0
M  END
>  <NAME>  (589) 
2-(3,4-DIMETHOXYPHENYL)ETHYLAMINE

>  <SYNONYMS>  (589) 
HOMOVERATRYLAMINE

>  <SPECTRUM TYPE>  (589) 
MS1

>  <INSTRUMENT TYPE>  (589) 
EI-B

>  <INSTRUMENT>  (589) 
HITACHI M-2500

>  <ION MODE>  (589) 
P

>  <INCHIKEY>  (589) 
ANOUKFYBOAKOIR-UHFFFAOYSA-N

>  <FORMULA>  (589) 
C10H15NO2

>  <EXACT MASS>  (589) 
181.11027872

>  <MW>  (589) 
181

>  <ID>  (589) 
JP011303

>  <CONTRIBUTOR>  (589) 
University of Tokyo Team, {Faculty of Engineering, University of Tokyo

>  <COMMENT>  (589) 
SMILES=NCCc(c1)cc(OC)c(OC)c1
cas=120-20-7
InChI=InChI=1S/C10H15NO2/c1-12-9-4-3-8(5-6-11)7-10(9)13-2/h3-4,7H,5-6,11H2,1-2H3
computed SMILES=O(C1=CC=C(C=C1OC)CCN)C
accession=JP011303
date=2016.01.19 (Created 2008.10.21, modified 2011.05.06)
author=YAMAMOTO M, DEP. CHEMISTRY, FAC. SCIENCE, NARA WOMEN'S UNIV.
license=CC BY-NC-SA
exact mass=181.11028
ionization energy=70 eV
ion type=[M]+*
computed spectral entropy=3.367512760871137
computed normalized entropy=0.8097156600398485
SPLASH=splash10-0ue9-8900000000-7b3bb96b7d3241d758d7
submitter=submitter = University of Tokyo Team (Faculty of Engineering, University of Tokyo)
MoNA Rating=3.75

>  <NUM PEAKS>  (589) 
64

>  <MASS SPECTRAL PEAKS>  (589) 
15 4.45
17 1.76
18 4.28
27 2.79
28 9.43
29 2.05
30 68.53
31 1.58
38 1.99
39 12.23
40 1.61
41 3.17
42 1.88
43 2.98
44 1.15
50 4.55
51 12.4
52 4.93
53 3.05
55 1.43
62 2.25
63 6.61
64 3.59
65 19.29
66 5.18
67 2.76
74 1.13
75 1.11
76 1.45
77 13.33
78 16.32
79 8.09
80 3.84
81 2.88
89 6.3
90 7.82
91 11.4
92 2.83
93 3.27
94 5.67
95 1.99
104 1.21
105 10.24
106 14.9
107 21.64
108 8.42
109 10.1
118 2.41
119 1.36
120 1.07
121 6.28
122 3.48
123 1.33
134 1.35
136 2.44
137 23.17
138 2.45
149 1.43
151 54.6
152 99.99
153 10.12
164 2.83
181 19.62
182 2.45

$$$$

     RDKit          2D

  7  6  0  0  0  0  0  0  0  0999 V2000
    1.6238    3.1875    0.0000 C   0  0  0  0  0  0  0  0  0  0  0  0
   -4.8714    3.9375    0.0000 C   0  0  0  0  0  0  0  0  0  0  0  0
   -3.5724    1.6875    0.0000 C   0  0  0  0  0  0  0  0  0  0  0  0
    0.3248    3.9375    0.0000 C   0  0  0  0  0  0  0  0  0  0  0  0
   -2.2733    3.9375    0.0000 C   0  0  0  0  0  0  0  0  0  0  0  0
   -3.5724    3.1875    0.0000 C   0  0  0  0  0  0  0  0  0  0  0  0
   -0.9743    3.1875    0.0000 O   0  0  0  0  0  0  0  0  0  0  0  0
  4  1  2  0
  6  2  1  0
  6  3  1  0
  6  5  1  0
  7  4  1  0
  7  5  1  0
M  END
>  <NAME>  (590) 
ISOBUTYL VINYL ETHER

>  <SYNONYMS>  (590) 


>  <SPECTRUM TYPE>  (590) 
MS1

>  <INSTRUMENT TYPE>  (590) 
EI-B

>  <INSTRUMENT>  (590) 
HITACHI M-2500

>  <ION MODE>  (590) 
P

>  <INCHIKEY>  (590) 
OZCMOJQQLBXBKI-UHFFFAOYSA-N

>  <FORMULA>  (590) 
C6H12O

>  <EXACT MASS>  (590) 
100.088815004

>  <MW>  (590) 
100

>  <ID>  (590) 
JP011301

>  <CONTRIBUTOR>  (590) 
University of Tokyo Team, {Faculty of Engineering, University of Tokyo

>  <COMMENT>  (590) 
cas=109-53-5
SMILES=C=COCC(C)C
InChI=InChI=1S/C6H12O/c1-4-7-5-6(2)3/h4,6H,1,5H2,2-3H3
computed SMILES=O(C=C)CC(C)C
accession=JP011301
date=2016.01.19 (Created 2008.10.21, modified 2011.05.06)
author=YAMAMOTO M, DEP. CHEMISTRY, FAC. SCIENCE, NARA WOMEN'S UNIV.
license=CC BY-NC-SA
exact mass=100.08882
ionization energy=70 eV
ion type=[M]+*
computed spectral entropy=2.569152774047475
computed normalized entropy=0.7795145447117224
SPLASH=splash10-0a6u-9000000000-25e7de3edb227c6e46d2
submitter=submitter = University of Tokyo Team (Faculty of Engineering, University of Tokyo)
MoNA Rating=3.75

>  <NUM PEAKS>  (590) 
27

>  <MASS SPECTRAL PEAKS>  (590) 
14 1.76
15 8.94
26 5.56
27 37.21
28 6.74
29 53.3
30 1.24
31 12.29
37 1.12
38 3.26
39 35.68
40 5.13
41 99.99
42 8.56
43 10.44
44 15.8
45 6.17
50 1.16
51 1.33
53 2.65
55 10.83
56 48.34
57 73.89
58 3.97
59 1.83
100 13.98
101 1.66

$$$$

     RDKit          2D

 10 10  0  0  0  0  0  0  0  0999 V2000
   -0.0330    1.6954    0.0000 C   0  0  0  0  0  0  0  0  0  0  0  0
    1.2275   -0.5786    0.0000 C   0  0  0  0  0  0  0  0  0  0  0  0
   -1.3440    0.9459    0.0000 C   0  0  0  0  0  0  0  0  0  0  0  0
   -0.0621   -1.3049    0.0000 C   0  0  0  0  0  0  0  0  0  0  0  0
    1.2396    0.9259    0.0000 C   0  0  0  0  0  0  0  0  0  0  0  0
   -1.3609   -0.5499    0.0000 C   0  0  0  0  0  0  0  0  0  0  0  0
    2.5491    1.6575    0.0000 N   0  0  0  0  0  0  0  0  0  0  0  0
   -2.6653   -1.2906    0.0000 N   0  0  0  0  0  0  0  0  0  0  0  0
   -3.9590   -0.5314    0.0000 O   0  0  0  0  0  0  0  0  0  0  0  0
   -2.6760   -2.7906    0.0000 O   0  0  0  0  0  0  0  0  0  0  0  0
  3  1  2  0
  4  2  1  0
  5  1  1  0
  5  2  2  0
  6  3  1  0
  6  4  2  0
  7  5  1  0
  8  6  1  0
  9  8  1  0
 10  8  2  0
M  CHG  2   8   1   9  -1
M  END
>  <NAME>  (591) 
4-NITROANILINE

>  <SYNONYMS>  (591) 


>  <SPECTRUM TYPE>  (591) 
MS1

>  <INSTRUMENT TYPE>  (591) 
EI-B

>  <INSTRUMENT>  (591) 
HITACHI M-2500

>  <ION MODE>  (591) 
P

>  <INCHIKEY>  (591) 
TYMLOMAKGOJONV-UHFFFAOYSA-N

>  <FORMULA>  (591) 
C6H6N2O2

>  <EXACT MASS>  (591) 
138.042927432

>  <MW>  (591) 
138

>  <ID>  (591) 
JP011300

>  <CONTRIBUTOR>  (591) 
University of Tokyo Team, {Faculty of Engineering, University of Tokyo

>  <COMMENT>  (591) 
SMILES=Nc(c1)ccc(c1)[N+1]([O-1])=O
cas=100-01-6
InChI=InChI=1S/C6H6N2O2/c7-5-1-3-6(4-2-5)8(9)10/h1-4H,7H2
computed SMILES=O=N(=O)C1=CC=C(N)C=C1
accession=JP011300
date=2016.01.19 (Created 2008.10.21, modified 2011.05.06)
author=YAMAMOTO M, DEP. CHEMISTRY, FAC. SCIENCE, NARA WOMEN'S UNIV.
license=CC BY-NC-SA
exact mass=138.04293
ionization energy=70 eV
ion type=[M]+*
computed spectral entropy=2.7532475404151624
computed normalized entropy=0.7683083549158933
SPLASH=splash10-0ap0-9600000000-4508cf17b2ad0f7ca670
submitter=submitter = University of Tokyo Team (Faculty of Engineering, University of Tokyo)
MoNA Rating=3.75

>  <NUM PEAKS>  (591) 
36

>  <MASS SPECTRAL PEAKS>  (591) 
26 1.24
27 1.73
28 6.02
30 8.55
37 3.12
38 7.24
39 23.44
40 2.88
41 8.04
42 2.61
46 2.18
50 4.61
51 4.7
52 13.26
53 9.06
54 4.19
61 3.85
62 7.62
63 16.18
64 10.65
65 77.12
66 10.76
74 2.64
75 1.74
79 2.13
80 31.18
81 2.12
90 2.03
91 6.18
93 3.21
105 1.01
108 99.99
109 7.21
122 5.98
138 74.19
139 6.09

$$$$

     RDKit          2D

  8  7  0  0  0  0  0  0  0  0999 V2000
    1.6238    3.1875    0.0000 C   0  0  0  0  0  0  0  0  0  0  0  0
   -4.8714    3.9375    0.0000 C   0  0  0  0  0  0  0  0  0  0  0  0
    0.3248    3.9375    0.0000 C   0  0  0  0  0  0  0  0  0  0  0  0
   -3.5724    3.1875    0.0000 C   0  0  0  0  0  0  0  0  0  0  0  0
   -2.2733    3.9375    0.0000 C   0  0  0  0  0  0  0  0  0  0  0  0
   -3.5724    1.6875    0.0000 O   0  0  0  0  0  0  0  0  0  0  0  0
   -2.2733    5.4375    0.0000 O   0  0  0  0  0  0  0  0  0  0  0  0
   -0.9743    3.1875    0.0000 O   0  0  0  0  0  0  0  0  0  0  0  0
  3  1  1  0
  4  2  1  0
  5  4  1  0
  6  4  2  0
  7  5  2  0
  8  3  1  0
  8  5  1  0
M  END
>  <NAME>  (592) 
ETHYL PYRUVATE

>  <SYNONYMS>  (592) 


>  <SPECTRUM TYPE>  (592) 
MS1

>  <INSTRUMENT TYPE>  (592) 
EI-B

>  <INSTRUMENT>  (592) 
HITACHI M-2500

>  <ION MODE>  (592) 
P

>  <INCHIKEY>  (592) 
XXRCUYVCPSWGCC-UHFFFAOYSA-N

>  <FORMULA>  (592) 
C5H8O3

>  <EXACT MASS>  (592) 
116.04734411599999

>  <MW>  (592) 
116

>  <ID>  (592) 
JP011299

>  <CONTRIBUTOR>  (592) 
University of Tokyo Team, {Faculty of Engineering, University of Tokyo

>  <COMMENT>  (592) 
SMILES=CCOC(=O)C(C)=O
cas=617-35-6
InChI=InChI=1S/C5H8O3/c1-3-8-5(7)4(2)6/h3H2,1-2H3
computed SMILES=O=C(OCC)C(=O)C
accession=JP011299
date=2016.01.19 (Created 2008.10.21, modified 2011.05.06)
author=YAMAMOTO M, DEP. CHEMISTRY, FAC. SCIENCE, NARA WOMEN'S UNIV.
license=CC BY-NC-SA
exact mass=116.04734
ionization energy=70 eV
ion type=[M]+*
computed spectral entropy=1.908054665005549
computed normalized entropy=0.626717228739598
SPLASH=splash10-0006-9000000000-980c9b02bf8c3edc429d
submitter=submitter = University of Tokyo Team (Faculty of Engineering, University of Tokyo)
MoNA Rating=3.75

>  <NUM PEAKS>  (592) 
21

>  <MASS SPECTRAL PEAKS>  (592) 
14 2.37
15 8.62
26 3.61
27 14.56
28 2.26
29 18.32
30 1.24
31 4.56
39 2.07
40 1.1
41 1.23
42 6.73
43 99.99
44 3.4
45 3.96
61 4.01
68 2.17
73 1.73
89 2.39
116 1.64
117 1.37

$$$$

     RDKit          2D

 10 10  0  0  0  0  0  0  0  0999 V2000
   -0.3325    2.8100    0.0000 C   0  0  0  0  0  0  0  0  0  0  0  0
   -1.6200   -0.9400    0.0000 C   0  0  0  0  0  0  0  0  0  0  0  0
   -1.6200    0.5600    0.0000 C   0  0  0  0  0  0  0  0  0  0  0  0
   -0.3300   -1.6900    0.0000 C   0  0  0  0  0  0  0  0  0  0  0  0
    0.9700    0.5600    0.0000 C   0  0  0  0  0  0  0  0  0  0  0  0
   -0.3300    1.3100    0.0000 C   0  0  0  0  0  0  0  0  0  0  0  0
    0.9700   -0.9400    0.0000 C   0  0  0  0  0  0  0  0  0  0  0  0
    2.2689   -1.6902    0.0000 C   0  0  0  0  0  0  0  0  0  0  0  0
    2.2687   -3.1902    0.0000 Cl  0  0  0  0  0  0  0  0  0  0  0  0
    3.5681   -0.9404    0.0000 O   0  0  0  0  0  0  0  0  0  0  0  0
  3  2  2  0
  4  2  1  0
  6  1  1  0
  6  3  1  0
  6  5  2  0
  7  4  2  0
  7  5  1  0
  8  7  1  0
  9  8  1  0
 10  8  2  0
M  END
>  <NAME>  (593) 
META-TOLUOYL CHLORIDE

>  <SYNONYMS>  (593) 
3-METHYLBENZOYL CHLORIDE

>  <SPECTRUM TYPE>  (593) 
MS1

>  <INSTRUMENT TYPE>  (593) 
EI-B

>  <INSTRUMENT>  (593) 
HITACHI M-2500

>  <ION MODE>  (593) 
P

>  <INCHIKEY>  (593) 
YHOYYHYBFSYOSQ-UHFFFAOYSA-N

>  <FORMULA>  (593) 
C8H7ClO

>  <EXACT MASS>  (593) 
154.018542524

>  <MW>  (593) 
154

>  <ID>  (593) 
JP011298

>  <CONTRIBUTOR>  (593) 
University of Tokyo Team, {Faculty of Engineering, University of Tokyo

>  <COMMENT>  (593) 
SMILES=Cc(c1)cc(cc1)C(=O)Cl
cas=1711-06-4
InChI=InChI=1S/C8H7ClO/c1-6-3-2-4-7(5-6)8(9)10/h2-5H,1H3
computed SMILES=O=C(Cl)C1=CC=CC(=C1)C
accession=JP011298
date=2016.01.19 (Created 2008.10.21, modified 2011.05.06)
author=YAMAMOTO M, DEP. CHEMISTRY, FAC. SCIENCE, NARA WOMEN'S UNIV.
license=CC BY-NC-SA
exact mass=154.01854
ionization energy=70 eV
ion type=[M]+*
computed spectral entropy=2.3463395083334957
computed normalized entropy=0.6968023086771442
SPLASH=splash10-014l-9600000000-f7adc66ca78671809104
submitter=submitter = University of Tokyo Team (Faculty of Engineering, University of Tokyo)
MoNA Rating=3.75

>  <NUM PEAKS>  (593) 
29

>  <MASS SPECTRAL PEAKS>  (593) 
27 1.41
37 1.42
38 2.98
39 10.18
41 1.57
46 1.07
50 6.79
51 5.81
52 1.56
61 2.55
62 6.19
63 13.87
64 3.39
65 18.96
66 1.09
74 2.54
75 1.86
76 1.43
85 1.01
86 1.59
87 1.28
89 10.68
90 5.33
91 64.21
92 5.26
119 99.99
120 8.94
154 7.18
156 2.2

$$$$

     RDKit          2D

 15 16  0  0  0  0  0  0  0  0999 V2000
   -3.5763   -0.5718    0.0000 C   0  0  0  0  0  0  0  0  0  0  0  0
    5.5184   -2.8196    0.0000 C   0  0  0  0  0  0  0  0  0  0  0  0
    5.5192   -1.3188    0.0000 C   0  0  0  0  0  0  0  0  0  0  0  0
    4.2188   -3.5702    0.0000 C   0  0  0  0  0  0  0  0  0  0  0  0
   -0.9725   -3.5618    0.0000 C   0  0  0  0  0  0  0  0  0  0  0  0
   -2.2715   -2.8118    0.0000 C   0  0  0  0  0  0  0  0  0  0  0  0
    4.2202   -0.5685    0.0000 C   0  0  0  0  0  0  0  0  0  0  0  0
    2.9199   -2.8200    0.0000 C   0  0  0  0  0  0  0  0  0  0  0  0
    0.3220   -2.8196    0.0000 C   0  0  0  0  0  0  0  0  0  0  0  0
   -0.9765   -0.5688    0.0000 C   0  0  0  0  0  0  0  0  0  0  0  0
   -2.2760   -1.3196    0.0000 C   0  0  0  0  0  0  0  0  0  0  0  0
    2.9206   -1.3192    0.0000 C   0  0  0  0  0  0  0  0  0  0  0  0
    0.3225   -1.3188    0.0000 C   0  0  0  0  0  0  0  0  0  0  0  0
    1.6217   -0.5690    0.0000 C   0  0  0  0  0  0  0  0  0  0  0  0
    1.6219    0.9310    0.0000 O   0  0  0  0  0  0  0  0  0  0  0  0
  3  2  2  0
  4  2  1  0
  6  5  2  0
  7  3  1  0
  8  4  2  0
  9  5  1  0
 11  1  1  0
 11  6  1  0
 11 10  2  0
 12  7  2  0
 12  8  1  0
 13  9  2  0
 13 10  1  0
 14 12  1  0
 14 13  1  0
 15 14  2  0
M  END
>  <NAME>  (594) 
3-METHYLBENZOPHENONE

>  <SYNONYMS>  (594) 


>  <SPECTRUM TYPE>  (594) 
MS1

>  <INSTRUMENT TYPE>  (594) 
EI-B

>  <INSTRUMENT>  (594) 
HITACHI M-2500

>  <ION MODE>  (594) 
P

>  <INCHIKEY>  (594) 
URBLVRAVOIVZFJ-UHFFFAOYSA-N

>  <FORMULA>  (594) 
C14H12O

>  <EXACT MASS>  (594) 
196.088815004

>  <MW>  (594) 
196

>  <ID>  (594) 
JP011297

>  <CONTRIBUTOR>  (594) 
University of Tokyo Team, {Faculty of Engineering, University of Tokyo

>  <COMMENT>  (594) 
SMILES=Cc(c2)cc(cc2)C(=O)c(c1)cccc1
cas=643-65-2
InChI=InChI=1S/C14H12O/c1-11-6-5-9-13(10-11)14(15)12-7-3-2-4-8-12/h2-10H,1H3
computed SMILES=O=C(C=1C=CC=CC1)C2=CC=CC(=C2)C
accession=JP011297
date=2016.01.19 (Created 2008.10.21, modified 2011.05.06)
author=YAMAMOTO M, DEP. CHEMISTRY, FAC. SCIENCE, NARA WOMEN'S UNIV.
license=CC BY-NC-SA
exact mass=196.08882
ionization energy=70 eV
ion type=[M]+*
computed spectral entropy=3.134072254245282
computed normalized entropy=0.7751749969581475
SPLASH=splash10-016s-8900000000-bd57f16f02845a6b099c
submitter=submitter = University of Tokyo Team (Faculty of Engineering, University of Tokyo)
MoNA Rating=3.75

>  <NUM PEAKS>  (594) 
57

>  <MASS SPECTRAL PEAKS>  (594) 
14 1.94
16 1.06
18 2.27
27 2.84
28 13.95
32 3.33
38 2.29
39 15.69
40 1.18
41 3.75
50 12.83
51 37.23
52 3.71
61 1.07
62 5.26
63 15
64 4.52
65 36.82
66 2.06
74 5.37
75 5
76 5.63
77 71.97
78 5.73
86 1.94
87 2.36
89 13.13
90 6.28
91 56.06
92 4.73
98 1.01
102 1.07
105 63.68
106 5.09
115 3.42
119 99.99
120 9.02
126 1.24
128 1.27
139 2.94
141 1.11
151 1.88
152 7.54
153 2.67
163 1.46
164 1.45
165 9.92
166 2.47
167 4.5
168 4.72
181 18.92
182 3.48
194 1.17
195 5.16
196 88.04
197 13.37
198 1.27

$$$$

     RDKit          2D

 13 12  0  0  1  0  0  0  0  0999 V2000
    2.5981    4.5000    0.0000 C   0  0  0  0  0  0  0  0  0  0  0  0
    0.0000    4.5000    0.0000 C   0  0  0  0  0  0  0  0  0  0  0  0
   -6.4952    5.2500    0.0000 C   0  0  0  0  0  0  0  0  0  0  0  0
   -1.2990    5.2500    0.0000 C   0  0  0  0  0  0  0  0  0  0  0  0
   -5.1962    4.5000    0.0000 C   0  0  0  0  0  0  0  0  0  0  0  0
   -2.5981    4.5000    0.0000 C   0  0  0  0  0  0  0  0  0  0  0  0
   -3.8971    5.2500    0.0000 C   0  0  0  0  0  0  0  0  0  0  0  0
    1.2990    5.2500    0.0000 N   0  0  0  0  0  0  0  0  0  0  0  0
   -7.7942    4.5000    0.0000 O   0  0  0  0  0  0  0  0  0  0  0  0
   -1.2990    6.7500    0.0000 O   0  0  0  0  0  0  0  0  0  0  0  0
   -5.1962    3.0000    0.0000 O   0  0  0  0  0  0  0  0  0  0  0  0
   -2.5981    3.0000    0.0000 O   0  0  0  0  0  0  0  0  0  0  0  0
   -3.8971    6.7500    0.0000 O   0  0  0  0  0  0  0  0  0  0  0  0
  4  2  1  0
  5  3  1  0
  6  4  1  0
  7  5  1  0
  7  6  1  0
  8  1  1  0
  8  2  1  0
  9  3  1  0
  4 10  1  1
  5 11  1  6
  6 12  1  1
  7 13  1  1
M  END
>  <NAME>  (595) 
N-METHYL-D-GLUCAMINE

>  <SYNONYMS>  (595) 


>  <SPECTRUM TYPE>  (595) 
MS1

>  <INSTRUMENT TYPE>  (595) 
EI-B

>  <INSTRUMENT>  (595) 
HITACHI M-2500

>  <ION MODE>  (595) 
P

>  <INCHIKEY>  (595) 
MBBZMMPHUWSWHV-BDVNFPICSA-N

>  <FORMULA>  (595) 
C7H17NO5

>  <EXACT MASS>  (595) 
195.11067264399998

>  <MW>  (595) 
195

>  <ID>  (595) 
JP011296

>  <CONTRIBUTOR>  (595) 
University of Tokyo Team, {Faculty of Engineering, University of Tokyo

>  <COMMENT>  (595) 
SMILES=CNCC([H])(O)C([H])(O)C([H])(O)C([H])(O)CO
cas=6284-40-8
InChI=InChI=1S/C7H17NO5/c1-8-2-4(10)6(12)7(13)5(11)3-9/h4-13H,2-3H2,1H3/t4-,5+,6+,7+/m0/s1
computed SMILES=OCC(O)C(O)C(O)C(O)CNC
accession=JP011296
date=2016.01.19 (Created 2008.10.21, modified 2011.05.06)
author=YAMAMOTO M, DEP. CHEMISTRY, FAC. SCIENCE, NARA WOMEN'S UNIV.
license=CC BY-NC-SA
exact mass=195.11067
ionization energy=70 eV
ion type=[M]+*
computed spectral entropy=2.5076344171935476
computed normalized entropy=0.7111111866437705
SPLASH=splash10-0006-9100000000-e892e9e9fcffcbf59eaa
submitter=submitter = University of Tokyo Team (Faculty of Engineering, University of Tokyo)
MoNA Rating=3.75

>  <NUM PEAKS>  (595) 
34

>  <MASS SPECTRAL PEAKS>  (595) 
15 3.45
18 1.08
19 1.81
27 2.1
28 4.53
29 2.92
30 7.05
31 5.8
32 5.51
41 1.29
42 4.41
43 6.83
44 99.99
45 6.69
55 1.01
56 3.49
57 2.27
58 1.84
60 2.27
61 3.61
66 1.02
73 3.63
74 19.09
75 3.49
86 2.13
87 1.28
88 1.2
104 5.75
105 1.31
116 4.48
134 4.82
164 2.63
196 13.79
197 1.08

$$$$

     RDKit          2D

  9  9  0  0  0  0  0  0  0  0999 V2000
    2.2733   -0.6175    0.0000 C   0  0  0  0  0  0  0  0  0  0  0  0
    2.2738    0.8833    0.0000 C   0  0  0  0  0  0  0  0  0  0  0  0
    0.9738   -1.3683    0.0000 C   0  0  0  0  0  0  0  0  0  0  0  0
    0.9748    1.6333    0.0000 C   0  0  0  0  0  0  0  0  0  0  0  0
   -0.3252   -0.6183    0.0000 C   0  0  0  0  0  0  0  0  0  0  0  0
   -0.3248    0.8825    0.0000 C   0  0  0  0  0  0  0  0  0  0  0  0
   -1.6238    1.6325    0.0000 C   0  0  0  0  0  0  0  0  0  0  0  0
   -2.9228    0.8825    0.0000 N   0  0  0  0  0  0  0  0  0  0  0  0
   -1.6238    3.1325    0.0000 S   0  0  0  0  0  0  0  0  0  0  0  0
  2  1  2  0
  3  1  1  0
  4  2  1  0
  5  3  2  0
  6  4  2  0
  6  5  1  0
  7  6  1  0
  8  7  2  0
  9  7  1  0
M  END
>  <NAME>  (596) 
THIOBENZAMIDE

>  <SYNONYMS>  (596) 


>  <SPECTRUM TYPE>  (596) 
MS1

>  <INSTRUMENT TYPE>  (596) 
EI-B

>  <INSTRUMENT>  (596) 
HITACHI M-2500

>  <ION MODE>  (596) 
P

>  <INCHIKEY>  (596) 
QIOZLISABUUKJY-UHFFFAOYSA-N

>  <FORMULA>  (596) 
C7H7NS

>  <EXACT MASS>  (596) 
137.029920224

>  <MW>  (596) 
137

>  <ID>  (596) 
JP011295

>  <CONTRIBUTOR>  (596) 
University of Tokyo Team, {Faculty of Engineering, University of Tokyo

>  <COMMENT>  (596) 
SMILES=NC(=S)c(c1)cccc1
cas=2227-79-4
InChI=InChI=1S/C7H7NS/c8-7(9)6-4-2-1-3-5-6/h1-5H,(H2,8,9)
computed SMILES=N=C(S)C=1C=CC=CC1
accession=JP011295
date=2016.01.19 (Created 2008.10.21, modified 2011.05.06)
author=YAMAMOTO M, DEP. CHEMISTRY, FAC. SCIENCE, NARA WOMEN'S UNIV.
license=CC BY-NC-SA
exact mass=137.02992
ionization energy=70 eV
ion type=[M]+*
computed spectral entropy=3.010109471549841
computed normalized entropy=0.7618131621176049
SPLASH=splash10-0f9i-5900000000-b3b926ef69c0e81f5e20
submitter=submitter = University of Tokyo Team (Faculty of Engineering, University of Tokyo)
MoNA Rating=3.75

>  <NUM PEAKS>  (596) 
52

>  <MASS SPECTRAL PEAKS>  (596) 
18 1.6
27 2.15
28 1.76
32 1.29
37 1.82
38 2.84
39 6.1
44 3.46
45 1.7
49 1.6
50 16.13
51 30.82
52 7.55
60 12.57
61 1.17
62 1.7
63 3.21
64 5.13
65 3
66 1.3
68 1.59
69 3.06
73 1.56
74 7.11
75 6.08
76 12.84
77 78.44
78 18.25
79 1.74
91 2.61
93 1.12
96 1.2
102 1.64
103 20.72
104 54.87
105 59.42
106 4.18
108 2.51
109 4.62
110 2.29
119 1.62
120 1.19
121 60.16
122 7.31
123 1.48
128 2.85
134 1.09
135 65.54
136 17.18
137 99.99
138 10.08
139 4.15

$$$$

     RDKit          2D

 15 16  0  0  1  0  0  0  0  0999 V2000
   -2.5200    0.5000    0.0000 C   0  0  0  0  0  0  0  0  0  0  0  0
   -2.5300   -1.0000    0.0000 C   0  0  0  0  0  0  0  0  0  0  0  0
   -1.2200    1.2400    0.0000 C   0  0  0  0  0  0  0  0  0  0  0  0
   -1.2300   -1.7600    0.0000 C   0  0  0  0  0  0  0  0  0  0  0  0
    1.9684    2.3650    0.0000 C   0  0  0  0  0  0  0  0  0  0  0  0
    2.3800   -0.2700    0.0000 C   0  0  0  0  0  0  0  0  0  0  0  0
    1.5000    0.9400    0.0000 C   0  0  0  0  0  0  0  0  0  0  0  0
    0.0800    0.4900    0.0000 C   0  0  0  0  0  0  0  0  0  0  0  0
    3.4366    2.6719    0.0000 C   0  0  0  0  0  0  0  0  0  0  0  0
    0.0700   -1.0100    0.0000 C   0  0  0  0  0  0  0  0  0  0  0  0
    3.9050    4.0969    0.0000 C   0  0  0  0  0  0  0  0  0  0  0  0
    4.4365    1.5538    0.0000 N   0  0  0  0  0  0  0  0  0  0  0  0
    1.5000   -1.4800    0.0000 N   0  0  0  0  0  0  0  0  0  0  0  0
    2.9051    5.2150    0.0000 O   0  0  0  0  0  0  0  0  0  0  0  0
    5.3733    4.4038    0.0000 O   0  0  0  0  0  0  0  0  0  0  0  0
  2  1  2  0
  3  1  1  0
  4  2  1  0
  7  5  1  0
  7  6  2  0
  8  3  2  0
  8  7  1  0
  9  5  1  0
 10  4  2  0
 10  8  1  0
 11  9  1  0
  9 12  1  1
 13  6  1  0
 13 10  1  0
 14 11  2  0
 15 11  1  0
M  END
>  <NAME>  (597) 
L-TRYPTOPHAN

>  <SYNONYMS>  (597) 


>  <SPECTRUM TYPE>  (597) 
MS1

>  <INSTRUMENT TYPE>  (597) 
EI-B

>  <INSTRUMENT>  (597) 
HITACHI M-2500

>  <ION MODE>  (597) 
P

>  <INCHIKEY>  (597) 
QIVBCDIJIAJPQS-VIFPVBQESA-N

>  <FORMULA>  (597) 
C11H12N2O2

>  <EXACT MASS>  (597) 
204.089877624

>  <MW>  (597) 
204

>  <ID>  (597) 
JP011293

>  <CONTRIBUTOR>  (597) 
University of Tokyo Team, {Faculty of Engineering, University of Tokyo

>  <COMMENT>  (597) 
SMILES=C1=CC=C2C(=C1)C(=CN2)C[C@@H](C(=O)O)N
cas=73-22-3
InChI=InChI=1S/C11H12N2O2/c12-9(11(14)15)5-7-6-13-10-4-2-1-3-8(7)10/h1-4,6,9,13H,5,12H2,(H,14,15)/t9-/m0/s1
computed SMILES=O=C(O)C(N)CC1=CNC=2C=CC=CC21
accession=JP011293
date=2016.01.19 (Created 2008.10.21, modified 2011.05.06)
author=YAMAMOTO M, DEP. CHEMISTRY, FAC. SCIENCE, NARA WOMEN'S UNIV.
license=CC BY-NC-SA
exact mass=204.08988
ionization energy=70 eV
ion type=[M]+*
computed spectral entropy=1.6671964834617523
computed normalized entropy=0.5476052542113692
SPLASH=splash10-001i-0900000000-d054a214c1717940989f
submitter=submitter = University of Tokyo Team (Faculty of Engineering, University of Tokyo)
MoNA Rating=3.75

>  <NUM PEAKS>  (597) 
21

>  <MASS SPECTRAL PEAKS>  (597) 
28 1.21
43 1.31
45 1.38
60 1.03
77 2.7
102 2.53
103 5.3
115 1.5
117 2.7
128 2.86
129 3.97
130 99.99
131 12.45
132 2.52
143 1.19
149 1
157 1.01
158 2.54
159 2.98
204 8.39
205 1.38

$$$$

     RDKit          2D

 13 14  0  0  0  0  0  0  0  0999 V2000
   -0.3000   -3.0000    0.0000 C   0  0  0  0  0  0  0  0  0  0  0  0
   -2.8989    1.5002    0.0000 C   0  0  0  0  0  0  0  0  0  0  0  0
    3.3100    0.0000    0.0000 C   0  0  0  0  0  0  0  0  0  0  0  0
    1.0000    0.7500    0.0000 C   0  0  0  0  0  0  0  0  0  0  0  0
    1.0000   -0.7500    0.0000 C   0  0  0  0  0  0  0  0  0  0  0  0
   -0.3000    1.5000    0.0000 C   0  0  0  0  0  0  0  0  0  0  0  0
   -1.6000   -0.7500    0.0000 C   0  0  0  0  0  0  0  0  0  0  0  0
    2.4300    1.2100    0.0000 N   0  0  0  0  0  0  0  0  0  0  0  0
    2.4300   -1.2100    0.0000 N   0  0  0  0  0  0  0  0  0  0  0  0
   -0.3000   -1.5000    0.0000 N   0  0  0  0  0  0  0  0  0  0  0  0
   -1.6000    0.7500    0.0000 N   0  0  0  0  0  0  0  0  0  0  0  0
   -0.3000    3.0000    0.0000 O   0  0  0  0  0  0  0  0  0  0  0  0
   -2.8989   -1.5002    0.0000 O   0  0  0  0  0  0  0  0  0  0  0  0
  5  4  2  0
  6  4  1  0
  8  3  2  0
  8  4  1  0
  9  3  1  0
  9  5  1  0
 10  1  1  0
 10  5  1  0
 10  7  1  0
 11  2  1  0
 11  6  1  0
 11  7  1  0
 12  6  2  0
 13  7  2  0
M  END
>  <NAME>  (598) 
THEOPHYLLINE

>  <SYNONYMS>  (598) 
3,7-DIHYDRO-1,3-DIMETHYL-1H-PURINE-2,6-DIONE

>  <SPECTRUM TYPE>  (598) 
MS1

>  <INSTRUMENT TYPE>  (598) 
EI-B

>  <INSTRUMENT>  (598) 
HITACHI M-2500

>  <ION MODE>  (598) 
P

>  <INCHIKEY>  (598) 
ZFXYFBGIUFBOJW-UHFFFAOYSA-N

>  <FORMULA>  (598) 
C7H8N4O2

>  <EXACT MASS>  (598) 
180.064725496

>  <MW>  (598) 
180

>  <ID>  (598) 
JP011292

>  <CONTRIBUTOR>  (598) 
University of Tokyo Team, {Faculty of Engineering, University of Tokyo

>  <COMMENT>  (598) 
SMILES=CN1C2=C(C(=O)N(C1=O)C)NC=N2
cas=58-55-9
InChI=InChI=1S/C7H8N4O2/c1-10-5-4(8-3-9-5)6(12)11(2)7(10)13/h3H,1-2H3,(H,8,9)
computed SMILES=O=C1C=2N=CNC2N(C(=O)N1C)C
accession=JP011292
date=2016.01.19 (Created 2008.10.21, modified 2011.05.06)
author=YAMAMOTO M, DEP. CHEMISTRY, FAC. SCIENCE, NARA WOMEN'S UNIV.
license=CC BY-NC-SA
exact mass=180.06473
ionization energy=70 eV
ion type=[M]+*
computed spectral entropy=2.5078853346311027
computed normalized entropy=0.7303129526387118
SPLASH=splash10-001i-9700000000-8d0e1898a6571fbca10a
submitter=submitter = University of Tokyo Team (Faculty of Engineering, University of Tokyo)
MoNA Rating=3.75

>  <NUM PEAKS>  (598) 
31

>  <MASS SPECTRAL PEAKS>  (598) 
15 4.32
18 1.21
27 1.09
28 6.62
38 1.08
39 1.63
40 5.47
41 15.87
42 5.54
53 13.56
54 1.8
56 2.72
58 1.23
66 1.97
67 6.14
68 32.77
69 2.97
70 1.82
81 1.03
94 5.14
95 47.92
96 8.27
122 5.06
123 7.98
124 3.25
136 1.26
151 7.2
152 2.44
179 1
180 99.99
181 9.4

$$$$

     RDKit          2D

 16 16  0  0  1  0  0  0  0  0999 V2000
   -2.9356    5.4356    0.0000 C   0  0  0  0  0  0  0  0  0  0  0  0
    6.1662    0.1908    0.0000 C   0  0  0  0  0  0  0  0  0  0  0  0
   -1.6353    4.6878    0.0000 C   0  0  0  0  0  0  0  0  0  0  0  0
    4.8670    0.9406    0.0000 C   0  0  0  0  0  0  0  0  0  0  0  0
   -1.6200   -1.3100    0.0000 C   0  0  0  0  0  0  0  0  0  0  0  0
   -0.3300   -2.0600    0.0000 C   0  0  0  0  0  0  0  0  0  0  0  0
   -1.6200    0.1900    0.0000 C   0  0  0  0  0  0  0  0  0  0  0  0
    0.9700   -1.3100    0.0000 C   0  0  0  0  0  0  0  0  0  0  0  0
   -0.3300    0.9400    0.0000 C   0  0  0  0  0  0  0  0  0  0  0  0
    0.9700    0.1900    0.0000 C   0  0  0  0  0  0  0  0  0  0  0  0
   -0.3325    2.4400    0.0000 C   0  0  0  0  0  0  0  0  0  0  0  0
    2.2689    0.9402    0.0000 C   0  0  0  0  0  0  0  0  0  0  0  0
    0.9653    3.1922    0.0000 O   0  0  0  0  0  0  0  0  0  0  0  0
    2.2687    2.4402    0.0000 O   0  0  0  0  0  0  0  0  0  0  0  0
   -1.6328    3.1878    0.0000 O   0  0  0  0  0  0  0  0  0  0  0  0
    3.5681    0.1904    0.0000 O   0  0  0  0  0  0  0  0  0  0  0  0
  3  1  1  0
  4  2  1  0
  6  5  1  0
  7  5  1  0
  8  6  1  0
  9  7  1  0
 10  8  1  0
 10  9  1  0
  9 11  1  1
 10 12  1  6
 13 11  2  0
 14 12  2  0
 15  3  1  0
 15 11  1  0
 16  4  1  0
 16 12  1  0
M  END
>  <NAME>  (599) 
TRANS-1,2-CYCLOHEXANEDICARBOXYLIC ACID DIETHYL ESTER

>  <SYNONYMS>  (599) 
DIETHYL TRANS-1,2-CYCLOHEXANEDICARBOXYLATE

>  <SPECTRUM TYPE>  (599) 
MS1

>  <INSTRUMENT TYPE>  (599) 
EI-B

>  <INSTRUMENT>  (599) 
HITACHI M-80A

>  <ION MODE>  (599) 
P

>  <INCHIKEY>  (599) 
ZTUZDYWYNQDJKR-NXEZZACHSA-N

>  <FORMULA>  (599) 
C12H20O4

>  <EXACT MASS>  (599) 
228.13615912

>  <MW>  (599) 
228

>  <ID>  (599) 
JP011291

>  <CONTRIBUTOR>  (599) 
University of Tokyo Team, {Faculty of Engineering, University of Tokyo

>  <COMMENT>  (599) 
SMILES=CCOC(=O)C(C1)C(CCC1)C(=O)OCC
InChI=InChI=1S/C12H20O4/c1-3-15-11(13)9-7-5-6-8-10(9)12(14)16-4-2/h9-10H,3-8H2,1-2H3/t9-,10-/m1/s1
computed SMILES=O=C(OCC)C1CCCCC1C(=O)OCC
accession=JP011291
date=2016.01.19 (Created 2008.10.21, modified 2011.05.06)
author=TAJIMA S, GUNMA COLLEGE OF TECHNOLOGY
license=CC BY-NC-SA
exact mass=228.13616
ionization energy=70 eV
ion type=[M]+*
computed spectral entropy=3.377679324057872
computed normalized entropy=0.8184078852137907
SPLASH=splash10-001l-9400000000-8bd5d426bf1692cc6d7f
submitter=submitter = University of Tokyo Team (Faculty of Engineering, University of Tokyo)
MoNA Rating=3.75

>  <NUM PEAKS>  (599) 
62

>  <MASS SPECTRAL PEAKS>  (599) 
34 1.25
37 1.29
38 2.17
39 16.92
40 19.07
41 27.39
42 4.89
43 58.71
44 3.22
45 7.24
46 1.17
50 1.03
51 2.33
52 1.86
53 13.43
54 20.25
55 13.28
56 1.71
57 3.25
58 8.94
59 1.21
60 1.05
65 2.83
66 3.22
67 29.57
68 3.86
69 3.59
73 2.75
77 4.55
78 1.07
79 13.68
80 13.77
81 99.99
82 23.58
83 5.88
85 1.32
86 1.03
88 1.85
91 1.82
97 1.97
99 3.05
101 2.39
108 10.62
109 27.93
110 3.63
111 1.12
118 1.19
119 1.68
125 3.43
126 4.28
127 6.15
128 3.46
136 1.55
140 1.61
154 26.78
155 17.86
156 7.72
182 18.73
183 50.97
184 5.58
228 8.46
229 1.23

$$$$

     RDKit          2D

 16 16  0  0  1  0  0  0  0  0999 V2000
   -2.9356    5.4356    0.0000 C   0  0  0  0  0  0  0  0  0  0  0  0
    6.1662    0.1908    0.0000 C   0  0  0  0  0  0  0  0  0  0  0  0
   -1.6353    4.6878    0.0000 C   0  0  0  0  0  0  0  0  0  0  0  0
    4.8670    0.9406    0.0000 C   0  0  0  0  0  0  0  0  0  0  0  0
   -1.6200   -1.3100    0.0000 C   0  0  0  0  0  0  0  0  0  0  0  0
   -0.3300   -2.0600    0.0000 C   0  0  0  0  0  0  0  0  0  0  0  0
   -1.6200    0.1900    0.0000 C   0  0  0  0  0  0  0  0  0  0  0  0
    0.9700   -1.3100    0.0000 C   0  0  0  0  0  0  0  0  0  0  0  0
   -0.3300    0.9400    0.0000 C   0  0  0  0  0  0  0  0  0  0  0  0
    0.9700    0.1900    0.0000 C   0  0  0  0  0  0  0  0  0  0  0  0
   -0.3325    2.4400    0.0000 C   0  0  0  0  0  0  0  0  0  0  0  0
    2.2689    0.9402    0.0000 C   0  0  0  0  0  0  0  0  0  0  0  0
    0.9653    3.1922    0.0000 O   0  0  0  0  0  0  0  0  0  0  0  0
    2.2687    2.4402    0.0000 O   0  0  0  0  0  0  0  0  0  0  0  0
   -1.6328    3.1878    0.0000 O   0  0  0  0  0  0  0  0  0  0  0  0
    3.5681    0.1904    0.0000 O   0  0  0  0  0  0  0  0  0  0  0  0
  3  1  1  0
  4  2  1  0
  6  5  1  0
  7  5  1  0
  8  6  1  0
  9  7  1  0
 10  8  1  0
 10  9  1  0
  9 11  1  6
 10 12  1  6
 13 11  2  0
 14 12  2  0
 15  3  1  0
 15 11  1  0
 16  4  1  0
 16 12  1  0
M  END
>  <NAME>  (600) 
CIS-1,2-CYCLOHEXANEDICARBOXYLIC ACID DIETHYL ESTER

>  <SYNONYMS>  (600) 
DIETHYL CIS-1,2-CYCLOHEXANEDICARBOXYLATE

>  <SPECTRUM TYPE>  (600) 
MS1

>  <INSTRUMENT TYPE>  (600) 
EI-B

>  <INSTRUMENT>  (600) 
HITACHI M-80A

>  <ION MODE>  (600) 
P

>  <INCHIKEY>  (600) 
ZTUZDYWYNQDJKR-AOOOYVTPSA-N

>  <FORMULA>  (600) 
C12H20O4

>  <EXACT MASS>  (600) 
228.13615912

>  <MW>  (600) 
228

>  <ID>  (600) 
JP011290

>  <CONTRIBUTOR>  (600) 
University of Tokyo Team, {Faculty of Engineering, University of Tokyo

>  <COMMENT>  (600) 
SMILES=CCOC(=O)C([H])(C1)C([H])(CCC1)C(=O)OCC
InChI=InChI=1S/C12H20O4/c1-3-15-11(13)9-7-5-6-8-10(9)12(14)16-4-2/h9-10H,3-8H2,1-2H3/t9-,10+
computed SMILES=O=C(OCC)C1CCCCC1C(=O)OCC
accession=JP011290
date=2016.01.19 (Created 2008.10.21, modified 2011.05.06)
author=TAJIMA S, GUNMA COLLEGE OF TECHNOLOGY
license=CC BY-NC-SA
exact mass=228.13616
ionization energy=70 eV
ion type=[M]+*
computed spectral entropy=3.3912200723789248
computed normalized entropy=0.8316833674813793
SPLASH=splash10-0f89-9300000000-953d5112da5f95f0928c
submitter=submitter = University of Tokyo Team (Faculty of Engineering, University of Tokyo)
MoNA Rating=3.75

>  <NUM PEAKS>  (600) 
59

>  <MASS SPECTRAL PEAKS>  (600) 
30 2.47
31 7.86
38 1.4
39 19.67
40 7.06
41 31.56
42 3.02
43 21.85
45 5.91
51 3.22
52 3.49
53 19.7
54 22.53
55 13.42
56 1.3
57 3.13
58 1.8
65 2.95
66 5.15
67 32.47
68 4.71
69 2.89
70 1.26
71 1.1
73 3.52
77 5.96
78 1.31
79 16.36
80 29.7
81 99.99
82 18.43
83 4.22
85 1.46
86 3.53
88 3.41
95 1.13
97 3.11
99 3.7
100 1.52
101 1.98
108 22.37
109 17.36
110 2.97
113 1.12
114 1.48
115 1.71
125 7.09
126 3.86
127 4.33
128 2.64
136 2.5
140 2.44
154 40.65
155 9.66
156 3.07
182 14.48
183 31.69
184 3.48
228 2.85

$$$$

     RDKit          2D

  6  5  0  0  0  0  0  0  0  0999 V2000
    1.2990    2.2500    0.0000 C   0  0  0  0  0  0  0  0  0  0  0  0
   -3.8971    2.2500    0.0000 C   0  0  0  0  0  0  0  0  0  0  0  0
   -1.2990    2.2500    0.0000 C   0  0  0  0  0  0  0  0  0  0  0  0
   -1.2990    0.7500    0.0000 O   0  0  0  0  0  0  0  0  0  0  0  0
    0.0000    3.0000    0.0000 O   0  0  0  0  0  0  0  0  0  0  0  0
   -2.5981    3.0000    0.0000 O   0  0  0  0  0  0  0  0  0  0  0  0
  4  3  2  0
  5  1  1  0
  5  3  1  0
  6  2  1  0
  6  3  1  0
M  END
>  <NAME>  (601) 
DIMETHYL CARBONATE

>  <SYNONYMS>  (601) 
CARBONIC ACID DIMETHYL ESTER

>  <SPECTRUM TYPE>  (601) 
MS1

>  <INSTRUMENT TYPE>  (601) 
EI-B

>  <INSTRUMENT>  (601) 
HITACHI M-80A

>  <ION MODE>  (601) 
P

>  <INCHIKEY>  (601) 
IEJIGPNLZYLLBP-UHFFFAOYSA-N

>  <FORMULA>  (601) 
C3H6O3

>  <EXACT MASS>  (601) 
90.03169405199999

>  <MW>  (601) 
90

>  <ID>  (601) 
JP011289

>  <CONTRIBUTOR>  (601) 
University of Tokyo Team, {Faculty of Engineering, University of Tokyo

>  <COMMENT>  (601) 
SMILES=COC(=O)OC
InChI=InChI=1S/C3H6O3/c1-5-3(4)6-2/h1-2H3
computed SMILES=O=C(OC)OC
accession=JP011289
date=2016.01.19 (Created 2008.10.21, modified 2011.05.06)
author=TAJIMA S, GUNMA COLLEGE OF TECHNOLOGY
license=CC BY-NC-SA
exact mass=90.03169
ionization energy=70 eV
ion type=[M]+*
computed spectral entropy=2.0918609819810805
computed normalized entropy=0.7383351438639751
SPLASH=splash10-05nb-9000000000-a91772bfccbb956b6353
submitter=submitter = University of Tokyo Team (Faculty of Engineering, University of Tokyo)
MoNA Rating=3.75

>  <NUM PEAKS>  (601) 
17

>  <MASS SPECTRAL PEAKS>  (601) 
15 70.21
16 1.6
29 47.3
30 7.18
31 59.35
33 8.93
43 1.8
44 3.54
45 99.99
46 2.31
47 1.66
59 56.86
60 6.32
61 4.21
62 6.98
90 7.26
91 3.57

$$$$

     RDKit          2D

 11 11  0  0  0  0  0  0  0  0999 V2000
   -1.9500    0.7500    0.0000 C   0  0  0  0  0  0  0  0  0  0  0  0
   -1.9500   -0.7500    0.0000 C   0  0  0  0  0  0  0  0  0  0  0  0
   -0.6500    1.5000    0.0000 C   0  0  0  0  0  0  0  0  0  0  0  0
   -0.6500   -1.5000    0.0000 C   0  0  0  0  0  0  0  0  0  0  0  0
    0.6500    0.7500    0.0000 C   0  0  0  0  0  0  0  0  0  0  0  0
    0.6500   -0.7500    0.0000 C   0  0  0  0  0  0  0  0  0  0  0  0
    1.9489    1.5002    0.0000 C   0  0  0  0  0  0  0  0  0  0  0  0
    2.6991    0.2013    0.0000 F   0  0  0  0  0  0  0  0  0  0  0  0
    3.2478    2.2504    0.0000 F   0  0  0  0  0  0  0  0  0  0  0  0
    1.1987    2.7991    0.0000 F   0  0  0  0  0  0  0  0  0  0  0  0
    1.9489   -1.5002    0.0000 O   0  0  0  0  0  0  0  0  0  0  0  0
  2  1  2  0
  3  1  1  0
  4  2  1  0
  5  3  2  0
  6  4  2  0
  6  5  1  0
  7  5  1  0
  8  7  1  0
  9  7  1  0
 10  7  1  0
 11  6  1  0
M  END
>  <NAME>  (602) 
2-HYDROXY-ALPHA,ALPHA,ALPHA-TRIFLUOROTOLUENE

>  <SYNONYMS>  (602) 
2-HYDROXYBENZOTRIFLUORIDE

>  <SPECTRUM TYPE>  (602) 
MS1

>  <INSTRUMENT TYPE>  (602) 
EI-B

>  <INSTRUMENT>  (602) 
HITACHI M-80A

>  <ION MODE>  (602) 
P

>  <INCHIKEY>  (602) 
ZOQOPXVJANRGJZ-UHFFFAOYSA-N

>  <FORMULA>  (602) 
C7H5F3O

>  <EXACT MASS>  (602) 
162.02924944

>  <MW>  (602) 
162

>  <ID>  (602) 
JP011288

>  <CONTRIBUTOR>  (602) 
University of Tokyo Team, {Faculty of Engineering, University of Tokyo

>  <COMMENT>  (602) 
SMILES=Oc(c1)c(ccc1)C(F)(F)F
InChI=InChI=1S/C7H5F3O/c8-7(9,10)5-3-1-2-4-6(5)11/h1-4,11H
computed SMILES=FC(F)(F)C=1C=CC=CC1O
accession=JP011288
date=2016.01.19 (Created 2008.10.21, modified 2011.05.06)
author=TAJIMA S, GUNMA COLLEGE OF TECHNOLOGY
license=CC BY-NC-SA
exact mass=162.02925
ionization energy=70 eV
ion type=[M]+*
computed spectral entropy=3.160796119644369
computed normalized entropy=0.8079697167574402
SPLASH=splash10-03di-8900000000-52616b254edd4d742070
submitter=submitter = University of Tokyo Team (Faculty of Engineering, University of Tokyo)
MoNA Rating=3.75

>  <NUM PEAKS>  (602) 
50

>  <MASS SPECTRAL PEAKS>  (602) 
37 4.97
38 13.48
39 20.89
40 12.09
44 1.57
50 11.23
51 6.6
53 6.64
55 1.28
56 2.72
57 9.16
61 4.69
62 7.56
63 24.11
64 6.15
65 3.53
66 1.44
68 2.15
69 12.3
70 1.31
71 3.29
72 2.17
74 4.36
75 14.22
76 2.7
81 2.6
83 5.37
87 3.11
88 16.03
89 1.52
92 2.31
93 1.42
94 2.04
95 7.55
96 2.51
99 2.58
101 1.23
113 7.15
114 99.99
115 7.77
123 2.18
132 1.13
133 3.59
141 1.88
142 47.32
143 18.22
144 1.77
145 2.28
162 44.39
163 3.87

$$$$

     RDKit          2D

 17 16  0  0  0  0  0  0  0  0999 V2000
    1.7596    5.3350    0.0000 C   0  0  0  0  0  0  0  0  0  0  0  0
   -8.6327    5.3350    0.0000 C   0  0  0  0  0  0  0  0  0  0  0  0
   -4.3388    0.2178    0.0000 C   0  0  0  0  0  0  0  0  0  0  0  0
    1.4463    3.5578    0.0000 C   0  0  0  0  0  0  0  0  0  0  0  0
    0.4606    6.0850    0.0000 C   0  0  0  0  0  0  0  0  0  0  0  0
   -7.3336    6.0850    0.0000 C   0  0  0  0  0  0  0  0  0  0  0  0
   -4.8518    1.6273    0.0000 C   0  0  0  0  0  0  0  0  0  0  0  0
   -0.0309    3.2973    0.0000 C   0  0  0  0  0  0  0  0  0  0  0  0
   -0.8384    5.3350    0.0000 C   0  0  0  0  0  0  0  0  0  0  0  0
   -6.0346    5.3350    0.0000 C   0  0  0  0  0  0  0  0  0  0  0  0
   -3.8877    2.7764    0.0000 C   0  0  0  0  0  0  0  0  0  0  0  0
   -0.9951    4.4464    0.0000 C   0  0  0  0  0  0  0  0  0  0  0  0
   -2.1375    6.0850    0.0000 O   0  0  0  0  0  0  0  0  0  0  0  0
   -4.7356    6.0850    0.0000 O   0  0  0  0  0  0  0  0  0  0  0  0
   -4.4007    4.1859    0.0000 O   0  0  0  0  0  0  0  0  0  0  0  0
   -2.4723    4.1859    0.0000 O   0  0  0  0  0  0  0  0  0  0  0  0
   -3.4365    5.3350    0.0000 Si  0  0  0  0  0  4  0  0  0  0  0  0
  5  1  1  0
  6  2  1  0
  7  3  1  0
  8  4  1  0
  9  5  1  0
 10  6  1  0
 11  7  1  0
 12  8  1  0
 13  9  1  0
 14 10  1  0
 15 11  1  0
 16 12  1  0
 17 13  1  0
 17 14  1  0
 17 15  1  0
 17 16  1  0
M  END
>  <NAME>  (603) 
TETRAPROPOXYSILANE

>  <SYNONYMS>  (603) 


>  <SPECTRUM TYPE>  (603) 
MS1

>  <INSTRUMENT TYPE>  (603) 
EI-B

>  <INSTRUMENT>  (603) 
HITACHI M-80A

>  <ION MODE>  (603) 
P

>  <INCHIKEY>  (603) 
ZQZCOBSUOFHDEE-UHFFFAOYSA-N

>  <FORMULA>  (603) 
C12H28O4Si

>  <EXACT MASS>  (603) 
264.175685906

>  <MW>  (603) 
264

>  <ID>  (603) 
JP011287

>  <CONTRIBUTOR>  (603) 
University of Tokyo Team, {Faculty of Engineering, University of Tokyo

>  <COMMENT>  (603) 
SMILES=CCCO[Si](OCCC)(OCCC)OCCC
InChI=InChI=1S/C12H28O4Si/c1-5-9-13-17(14-10-6-2,15-11-7-3)16-12-8-4/h5-12H2,1-4H3
computed SMILES=O(CCC)[Si](OCCC)(OCCC)OCCC
accession=JP011287
date=2016.01.19 (Created 2008.10.21, modified 2011.05.06)
author=TAJIMA S, GUNMA COLLEGE OF TECHNOLOGY
license=CC BY-NC-SA
exact mass=264.17569
ionization energy=70 eV
ion type=[M]+*
computed spectral entropy=3.3137122215021644
computed normalized entropy=0.8029087285138062
SPLASH=splash10-002r-8790000000-3d34b1cdead9978966c3
submitter=submitter = University of Tokyo Team (Faculty of Engineering, University of Tokyo)
MoNA Rating=3.75

>  <NUM PEAKS>  (603) 
62

>  <MASS SPECTRAL PEAKS>  (603) 
27 11.23
29 18.53
31 3.51
39 2.65
41 10.33
42 2.21
43 13.43
45 4.49
55 1.41
57 1.1
62 3.63
63 15.22
76 1.64
77 3.15
79 42.45
80 2.38
81 1.97
83 3.05
87 1.05
89 2.29
91 1.11
92 1.03
93 7.61
97 2.5
101 1.36
103 4.92
105 4.87
107 1.64
109 1.07
117 3.7
119 3.58
121 12.16
123 2.71
133 2.95
135 5.65
137 5.26
139 1.08
145 1.37
147 3.45
149 1.18
151 25.44
152 2.43
153 1.11
163 6.48
165 2.26
177 20.47
178 2.62
179 2.55
193 11.78
194 1.5
205 16.2
206 2.59
207 1.05
221 4.4
222 1.05
223 1.16
235 99.99
236 16.4
237 5.51
263 2.36
264 6.16
265 1.42

$$$$

     RDKit          2D

 10  9  0  0  0  0  0  0  0  0999 V2000
    1.7108    1.8113    0.0000 C   0  0  0  0  0  0  0  0  0  0  0  0
    0.4118    1.0613    0.0000 C   0  0  0  0  0  0  0  0  0  0  0  0
    1.7108    3.3113    0.0000 C   0  0  0  0  0  0  0  0  0  0  0  0
    1.1618   -0.2377    0.0000 F   0  0  0  0  0  0  0  0  0  0  0  0
   -0.3382    2.3603    0.0000 F   0  0  0  0  0  0  0  0  0  0  0  0
   -0.8873    0.3113    0.0000 F   0  0  0  0  0  0  0  0  0  0  0  0
    3.2108    3.3113    0.0000 F   0  0  0  0  0  0  0  0  0  0  0  0
    1.7108    4.8113    0.0000 F   0  0  0  0  0  0  0  0  0  0  0  0
    0.2108    3.3113    0.0000 F   0  0  0  0  0  0  0  0  0  0  0  0
    3.0099    1.0613    0.0000 O   0  0  0  0  0  0  0  0  0  0  0  0
  2  1  1  0
  3  1  1  0
  4  2  1  0
  5  2  1  0
  6  2  1  0
  7  3  1  0
  8  3  1  0
  9  3  1  0
 10  1  2  0
M  END
>  <NAME>  (604) 
HEXAFLUOROACETONE

>  <SYNONYMS>  (604) 
PERFLUOROACETONE

>  <SPECTRUM TYPE>  (604) 
MS1

>  <INSTRUMENT TYPE>  (604) 
EI-B

>  <INSTRUMENT>  (604) 
HITACHI M-80A

>  <ION MODE>  (604) 
P

>  <INCHIKEY>  (604) 
VBZWSGALLODQNC-UHFFFAOYSA-N

>  <FORMULA>  (604) 
C3F6O

>  <EXACT MASS>  (604) 
165.98533394

>  <MW>  (604) 
166

>  <ID>  (604) 
JP011286

>  <CONTRIBUTOR>  (604) 
University of Tokyo Team, {Faculty of Engineering, University of Tokyo

>  <COMMENT>  (604) 
SMILES=O=C(C(F)(F)F)C(F)(F)F
InChI=InChI=1S/C3F6O/c4-2(5,6)1(10)3(7,8)9
computed SMILES=O=C(C(F)(F)F)C(F)(F)F
accession=JP011286
date=2016.01.19 (Created 2008.10.21, modified 2011.05.06)
author=TAJIMA S, GUNMA COLLEGE OF TECHNOLOGY
license=CC BY-NC-SA
exact mass=165.98533
ionization energy=70 eV
ion type=[M]+*
computed spectral entropy=1.7073940329476647
computed normalized entropy=0.6304883241280882
SPLASH=splash10-014i-9000000000-3f3d6b6a01fe1cfb62cf
submitter=submitter = University of Tokyo Team (Faculty of Engineering, University of Tokyo)
MoNA Rating=3.75

>  <NUM PEAKS>  (604) 
15

>  <MASS SPECTRAL PEAKS>  (604) 
31 33.75
40 1.26
43 1.64
47 1.39
50 42.88
62 1.05
69 99.99
70 1.79
74 1.02
78 6.43
93 1.76
97 19.4
100 1.33
119 1.38
147 11.98

$$$$

     RDKit          2D

 15 16  0  0  0  0  0  0  0  0999 V2000
   -0.0000   -1.5000    0.0000 C   0  0  0  0  0  0  0  0  0  0  0  0
   -1.3000    0.7500    0.0000 C   0  0  0  0  0  0  0  0  0  0  0  0
    6.4966    0.7496    0.0000 C   0  0  0  0  0  0  0  0  0  0  0  0
    5.1981   -1.5012    0.0000 C   0  0  0  0  0  0  0  0  0  0  0  0
    1.3000   -0.7500    0.0000 C   0  0  0  0  0  0  0  0  0  0  0  0
   -0.0000    1.5000    0.0000 C   0  0  0  0  0  0  0  0  0  0  0  0
    5.1971    1.5004    0.0000 C   0  0  0  0  0  0  0  0  0  0  0  0
    3.8986   -0.7504    0.0000 C   0  0  0  0  0  0  0  0  0  0  0  0
   -1.3000   -0.7500    0.0000 C   0  0  0  0  0  0  0  0  0  0  0  0
    6.4971   -0.7512    0.0000 C   0  0  0  0  0  0  0  0  0  0  0  0
    1.3000    0.7500    0.0000 C   0  0  0  0  0  0  0  0  0  0  0  0
    3.8981    0.7504    0.0000 C   0  0  0  0  0  0  0  0  0  0  0  0
   -2.5989   -1.5002    0.0000 N   0  0  0  0  0  0  0  0  0  0  0  0
    7.7963   -1.5010    0.0000 N   0  0  0  0  0  0  0  0  0  0  0  0
    2.5989    1.5002    0.0000 S   0  0  0  0  0  0  0  0  0  0  0  0
  5  1  2  0
  6  2  1  0
  7  3  2  0
  8  4  1  0
  9  1  1  0
  9  2  2  0
 10  3  1  0
 10  4  2  0
 11  5  1  0
 11  6  2  0
 12  7  1  0
 12  8  2  0
 13  9  1  0
 14 10  1  0
 15 11  1  0
 15 12  1  0
M  END
>  <NAME>  (605) 
4,4-THIODIANILINE

>  <SYNONYMS>  (605) 
4,4-DIAMINODIPHENYL SULFIDE

>  <SPECTRUM TYPE>  (605) 
MS1

>  <INSTRUMENT TYPE>  (605) 
EI-B

>  <INSTRUMENT>  (605) 
HITACHI M-80A

>  <ION MODE>  (605) 
P

>  <INCHIKEY>  (605) 
ICNFHJVPAJKPHW-UHFFFAOYSA-N

>  <FORMULA>  (605) 
C12H12N2S

>  <EXACT MASS>  (605) 
216.072119384

>  <MW>  (605) 
216

>  <ID>  (605) 
JP011285

>  <CONTRIBUTOR>  (605) 
University of Tokyo Team, {Faculty of Engineering, University of Tokyo

>  <COMMENT>  (605) 
SMILES=Nc(c2)ccc(c2)Sc(c1)ccc(N)c1
InChI=InChI=1S/C12H12N2S/c13-9-1-5-11(6-2-9)15-12-7-3-10(14)4-8-12/h1-8H,13-14H2
computed SMILES=S(C1=CC=C(N)C=C1)C2=CC=C(N)C=C2
accession=JP011285
date=2016.01.19 (Created 2008.10.21, modified 2011.05.06)
author=TAJIMA S, GUNMA COLLEGE OF TECHNOLOGY
license=CC BY-NC-SA
exact mass=216.07212
ionization energy=70 eV
ion type=[M]+*
computed spectral entropy=2.325004533579791
computed normalized entropy=0.6649505235460306
SPLASH=splash10-014i-2290000000-d7a0bc204648e8a1a9b9
submitter=submitter = University of Tokyo Team (Faculty of Engineering, University of Tokyo)
MoNA Rating=3.75

>  <NUM PEAKS>  (605) 
33

>  <MASS SPECTRAL PEAKS>  (605) 
28 4.86
39 3.26
52 1.2
53 1.66
54 1.11
63 1.8
65 5.73
66 1.34
80 8.93
91 1.04
92 1.95
93 1.7
97 1.5
108 1.59
117 1.03
124 5.91
125 1.07
130 1.12
156 2.84
171 1.85
182 1.58
183 5.6
184 17.31
185 2.38
188 1.51
199 1.67
200 1.81
201 1
214 1.36
215 9.54
216 99.99
217 17.44
218 5.81

$$$$

     RDKit          2D

 18 19  0  0  0  0  0  0  0  0999 V2000
    4.8623    1.6474    0.0000 C   0  0  0  0  0  0  0  0  0  0  0  0
    4.8628    3.1482    0.0000 C   0  0  0  0  0  0  0  0  0  0  0  0
    3.5628    0.8966    0.0000 C   0  0  0  0  0  0  0  0  0  0  0  0
    3.5637    3.8982    0.0000 C   0  0  0  0  0  0  0  0  0  0  0  0
    2.2637    1.6466    0.0000 C   0  0  0  0  0  0  0  0  0  0  0  0
   -1.6238    5.3846    0.0000 C   0  0  0  0  0  0  0  0  0  0  0  0
   -2.9313    3.1372    0.0000 C   0  0  0  0  0  0  0  0  0  0  0  0
   -2.9391    6.1266    0.0000 C   0  0  0  0  0  0  0  0  0  0  0  0
   -4.2156    3.8728    0.0000 C   0  0  0  0  0  0  0  0  0  0  0  0
    2.2642    3.1474    0.0000 C   0  0  0  0  0  0  0  0  0  0  0  0
   -1.6329    3.8974    0.0000 C   0  0  0  0  0  0  0  0  0  0  0  0
   -4.2324    5.3750    0.0000 C   0  0  0  0  0  0  0  0  0  0  0  0
    0.9652    3.8974    0.0000 C   0  0  0  0  0  0  0  0  0  0  0  0
   -0.3339    3.1474    0.0000 N   0  0  0  0  0  0  0  0  0  0  0  0
   -5.5367    6.1159    0.0000 N   0  0  0  0  0  0  0  0  0  0  0  0
    0.9652    5.3974    0.0000 O   0  0  0  0  0  0  0  0  0  0  0  0
   -6.8305    5.3568    0.0000 O   0  0  0  0  0  0  0  0  0  0  0  0
   -5.5472    7.6159    0.0000 O   0  0  0  0  0  0  0  0  0  0  0  0
  2  1  2  0
  3  1  1  0
  4  2  1  0
  5  3  2  0
  8  6  2  0
  9  7  1  0
 10  4  2  0
 10  5  1  0
 11  6  1  0
 11  7  2  0
 12  8  1  0
 12  9  2  0
 13 10  1  0
 14 11  1  0
 14 13  1  0
 15 12  1  0
 16 13  2  0
 17 15  1  0
 18 15  2  0
M  CHG  2  15   1  17  -1
M  END
>  <NAME>  (606) 
N-BENZOYL-PARA-NITROANILINE

>  <SYNONYMS>  (606) 


>  <SPECTRUM TYPE>  (606) 
MS1

>  <INSTRUMENT TYPE>  (606) 
EI-B

>  <INSTRUMENT>  (606) 
HITACHI M-80A

>  <ION MODE>  (606) 
P

>  <INCHIKEY>  (606) 
GMGQGZYFQSCZCW-UHFFFAOYSA-N

>  <FORMULA>  (606) 
C13H10N2O3

>  <EXACT MASS>  (606) 
242.06914217999997

>  <MW>  (606) 
242

>  <ID>  (606) 
JP011284

>  <CONTRIBUTOR>  (606) 
University of Tokyo Team, {Faculty of Engineering, University of Tokyo

>  <COMMENT>  (606) 
SMILES=[O-1][N+1](=O)c(c2)ccc(c2)NC(=O)c(c1)cccc1
InChI=InChI=1S/C13H10N2O3/c16-13(10-4-2-1-3-5-10)14-11-6-8-12(9-7-11)15(17)18/h1-9H,(H,14,16)
computed SMILES=O=C(NC1=CC=C(C=C1)N(=O)=O)C=2C=CC=CC2
accession=JP011284
date=2016.01.19 (Created 2008.10.21, modified 2011.05.06)
author=TAJIMA S, GUNMA COLLEGE OF TECHNOLOGY
license=CC BY-NC-SA
exact mass=242.06914
ionization energy=70 eV
ion type=[M]+*
computed spectral entropy=1.6431067318244428
computed normalized entropy=0.6067489927460273
SPLASH=splash10-0a4i-6910000000-db71d6897b54931df0f7
submitter=submitter = University of Tokyo Team (Faculty of Engineering, University of Tokyo)
MoNA Rating=3.75

>  <NUM PEAKS>  (606) 
15

>  <MASS SPECTRAL PEAKS>  (606) 
30 3.56
39 1.55
40 2.1
50 2.82
51 10.73
52 1.61
63 2.45
65 1.47
76 2.25
77 46.66
78 3.37
105 99.99
106 7.87
242 11.12
243 1.94

$$$$

     RDKit          2D

  5  4  0  0  0  0  0  0  0  0999 V2000
    0.0000    1.5000    0.0000 C   0  0  0  0  0  0  0  0  0  0  0  0
   -1.2990    0.7500    0.0000 Br  0  0  0  0  0  0  0  0  0  0  0  0
    0.7500    0.2010    0.0000 Br  0  0  0  0  0  0  0  0  0  0  0  0
    1.2990    2.2500    0.0000 Br  0  0  0  0  0  0  0  0  0  0  0  0
   -0.7500    2.7990    0.0000 Br  0  0  0  0  0  0  0  0  0  0  0  0
  2  1  1  0
  3  1  1  0
  4  1  1  0
  5  1  1  0
M  END
>  <NAME>  (607) 
CARBON TETRABROMIDE

>  <SYNONYMS>  (607) 
TETRABROMOMETHANE

>  <SPECTRUM TYPE>  (607) 
MS1

>  <INSTRUMENT TYPE>  (607) 
EI-B

>  <INSTRUMENT>  (607) 
HITACHI M-80A

>  <ION MODE>  (607) 
P

>  <INCHIKEY>  (607) 
HJUGFYREWKUQJT-UHFFFAOYSA-N

>  <FORMULA>  (607) 
CBr4

>  <EXACT MASS>  (607) 
327.6733484

>  <MW>  (607) 
327

>  <ID>  (607) 
JP011283

>  <CONTRIBUTOR>  (607) 
University of Tokyo Team, {Faculty of Engineering, University of Tokyo

>  <COMMENT>  (607) 
SMILES=BrC(Br)(Br)Br
computed SMILES=BrC(Br)(Br)Br
InChI=InChI=1S/CBr4/c2-1(3,4)5
accession=JP011283
date=2016.01.19 (Created 2008.10.21, modified 2011.05.06)
author=TAJIMA S, GUNMA COLLEGE OF TECHNOLOGY
license=CC BY-NC-SA
exact mass=327.67335
ionization energy=70 eV
ion type=[M]+*
computed spectral entropy=2.4079311329500834
computed normalized entropy=0.7909060229329897
SPLASH=splash10-0udi-5290000000-7cb0064329bc19e56e21
submitter=submitter = University of Tokyo Team (Faculty of Engineering, University of Tokyo)
MoNA Rating=3.75

>  <NUM PEAKS>  (607) 
21

>  <MASS SPECTRAL PEAKS>  (607) 
12 11.48
79 43.25
80 1.5
81 42.15
82 1.44
91 33.9
93 32.83
125 1.01
126 1.01
158 1.85
160 3.69
162 1.8
170 15.79
172 30.36
174 14.66
249 34.58
251 99.99
252 1.1
253 97.07
254 1.1
255 32.03

$$$$

     RDKit          2D

 10 10  0  0  0  0  0  0  0  0999 V2000
   -1.3000    0.7500    0.0000 C   0  0  0  0  0  0  0  0  0  0  0  0
    0.0000    1.5000    0.0000 C   0  0  0  0  0  0  0  0  0  0  0  0
   -1.3000   -0.7500    0.0000 C   0  0  0  0  0  0  0  0  0  0  0  0
    1.3000    0.7500    0.0000 C   0  0  0  0  0  0  0  0  0  0  0  0
    0.0000   -1.5000    0.0000 C   0  0  0  0  0  0  0  0  0  0  0  0
    1.3000   -0.7500    0.0000 C   0  0  0  0  0  0  0  0  0  0  0  0
   -0.0000   -3.0000    0.0000 Cl  0  0  0  0  0  0  0  0  0  0  0  0
    2.5989   -1.5002    0.0000 N   0  0  0  0  0  0  0  0  0  0  0  0
    3.8981   -0.7504    0.0000 O   0  0  0  0  0  0  0  0  0  0  0  0
    2.5987   -3.0002    0.0000 O   0  0  0  0  0  0  0  0  0  0  0  0
  2  1  2  0
  3  1  1  0
  4  2  1  0
  5  3  2  0
  6  4  2  0
  6  5  1  0
  7  5  1  0
  8  6  1  0
  9  8  1  0
 10  8  2  0
M  CHG  2   8   1   9  -1
M  END
>  <NAME>  (608) 
ORTHO-CHLORONITROBENZENE

>  <SYNONYMS>  (608) 


>  <SPECTRUM TYPE>  (608) 
MS1

>  <INSTRUMENT TYPE>  (608) 
EI-B

>  <INSTRUMENT>  (608) 
HITACHI M-80A

>  <ION MODE>  (608) 
P

>  <INCHIKEY>  (608) 
BFCFYVKQTRLZHA-UHFFFAOYSA-N

>  <FORMULA>  (608) 
C6H4ClNO2

>  <EXACT MASS>  (608) 
156.993056048

>  <MW>  (608) 
157

>  <ID>  (608) 
JP011282

>  <CONTRIBUTOR>  (608) 
University of Tokyo Team, {Faculty of Engineering, University of Tokyo

>  <COMMENT>  (608) 
SMILES=[O-1][N+1](=O)c(c1)c(Cl)ccc1
InChI=InChI=1S/C6H4ClNO2/c7-5-3-1-2-4-6(5)8(9)10/h1-4H
computed SMILES=O=N(=O)C=1C=CC=CC1Cl
accession=JP011282
date=2016.01.19 (Created 2008.10.21, modified 2011.05.06)
author=TAJIMA S, GUNMA COLLEGE OF TECHNOLOGY
license=CC BY-NC-SA
exact mass=156.99306
ionization energy=70 eV
ion type=[M]+*
computed spectral entropy=3.0884320896363424
computed normalized entropy=0.8161409412346202
SPLASH=splash10-06vj-9600000000-93355ce0298bbe4b7b67
submitter=submitter = University of Tokyo Team (Faculty of Engineering, University of Tokyo)
MoNA Rating=3.75

>  <NUM PEAKS>  (608) 
44

>  <MASS SPECTRAL PEAKS>  (608) 
27 2.69
28 4.8
30 59.17
37 4.87
38 6.12
39 8.25
46 4.38
49 3.32
50 34.43
51 17.53
52 1.31
53 1.08
61 4.59
62 2.88
63 9.36
64 2.92
72 1.48
73 11.74
74 18.37
75 99.99
76 15.98
77 1.23
84 3.3
85 10.75
86 1.67
87 3.63
99 67.96
100 3.94
101 21.79
111 70.36
112 5.47
113 22.24
114 1.64
125 1.48
127 34.16
128 2.72
129 10.76
141 21.43
142 1.69
143 6.97
157 68.37
158 10.55
159 22.24
160 3.36

$$$$

     RDKit          2D

 10 10  0  0  0  0  0  0  0  0999 V2000
    0.3376   -3.5524    0.0000 C   0  0  0  0  0  0  0  0  0  0  0  0
    1.6321   -2.8102    0.0000 C   0  0  0  0  0  0  0  0  0  0  0  0
   -0.9615   -2.8024    0.0000 C   0  0  0  0  0  0  0  0  0  0  0  0
    0.3335   -0.5594    0.0000 C   0  0  0  0  0  0  0  0  0  0  0  0
    1.6326   -1.3094    0.0000 C   0  0  0  0  0  0  0  0  0  0  0  0
   -0.9660   -1.3102    0.0000 C   0  0  0  0  0  0  0  0  0  0  0  0
    2.9317   -0.5596    0.0000 Cl  0  0  0  0  0  0  0  0  0  0  0  0
   -2.2663   -0.5624    0.0000 N   0  0  0  0  0  0  0  0  0  0  0  0
   -3.5641   -1.3146    0.0000 O   0  0  0  0  0  0  0  0  0  0  0  0
   -2.2688    0.9376    0.0000 O   0  0  0  0  0  0  0  0  0  0  0  0
  2  1  2  0
  3  1  1  0
  5  2  1  0
  5  4  2  0
  6  3  2  0
  6  4  1  0
  7  5  1  0
  8  6  1  0
  9  8  1  0
 10  8  2  0
M  CHG  2   8   1   9  -1
M  END
>  <NAME>  (609) 
META-CHLORONITROBENZENE

>  <SYNONYMS>  (609) 


>  <SPECTRUM TYPE>  (609) 
MS1

>  <INSTRUMENT TYPE>  (609) 
EI-B

>  <INSTRUMENT>  (609) 
HITACHI M-80A

>  <ION MODE>  (609) 
P

>  <INCHIKEY>  (609) 
KMAQZIILEGKYQZ-UHFFFAOYSA-N

>  <FORMULA>  (609) 
C6H4ClNO2

>  <EXACT MASS>  (609) 
156.993056048

>  <MW>  (609) 
157

>  <ID>  (609) 
JP011281

>  <CONTRIBUTOR>  (609) 
University of Tokyo Team, {Faculty of Engineering, University of Tokyo

>  <COMMENT>  (609) 
SMILES=[O-1][N+1](=O)c(c1)cc(Cl)cc1
InChI=InChI=1S/C6H4ClNO2/c7-5-2-1-3-6(4-5)8(9)10/h1-4H
computed SMILES=O=N(=O)C=1C=CC=C(Cl)C1
accession=JP011281
date=2016.01.19 (Created 2008.10.21, modified 2011.05.06)
author=TAJIMA S, GUNMA COLLEGE OF TECHNOLOGY
license=CC BY-NC-SA
exact mass=156.99306
ionization energy=70 eV
ion type=[M]+*
computed spectral entropy=3.0708514112053953
computed normalized entropy=0.7932554787397118
SPLASH=splash10-08i0-7900000000-80b39a02069a03495157
submitter=submitter = University of Tokyo Team (Faculty of Engineering, University of Tokyo)
MoNA Rating=3.75

>  <NUM PEAKS>  (609) 
48

>  <MASS SPECTRAL PEAKS>  (609) 
27 1.18
28 1.14
30 51.99
37 3.67
38 5.13
39 5.09
46 5.56
49 2.3
50 26.84
51 12.99
53 1.57
61 3.74
62 2.9
63 9.39
64 2.62
69 4
73 8.47
74 21
75 91.15
76 18.7
77 1.45
84 2.45
85 9.2
86 1.37
87 3.43
90 1.23
91 1.01
92 1.51
99 47.01
100 2.81
101 15.23
110 1.35
111 99.99
112 7.81
113 31.74
114 2.45
125 3.47
127 19.29
128 2.08
129 5.82
141 37.89
142 3.58
143 12.2
144 1.13
157 96.61
158 18.05
159 32.55
160 5.84

$$$$

     RDKit          2D

 14 14  0  0  0  0  0  0  0  0999 V2000
    7.7951    1.5010    0.0000 C   0  0  0  0  0  0  0  0  0  0  0  0
   -1.3000    0.7500    0.0000 C   0  0  0  0  0  0  0  0  0  0  0  0
   -0.0000   -1.5000    0.0000 C   0  0  0  0  0  0  0  0  0  0  0  0
    0.0000    1.5000    0.0000 C   0  0  0  0  0  0  0  0  0  0  0  0
    1.3000   -0.7500    0.0000 C   0  0  0  0  0  0  0  0  0  0  0  0
    5.1970    1.5006    0.0000 C   0  0  0  0  0  0  0  0  0  0  0  0
    6.4962    0.7508    0.0000 C   0  0  0  0  0  0  0  0  0  0  0  0
   -1.3000   -0.7500    0.0000 C   0  0  0  0  0  0  0  0  0  0  0  0
    1.3000    0.7500    0.0000 C   0  0  0  0  0  0  0  0  0  0  0  0
    3.8981    0.7504    0.0000 C   0  0  0  0  0  0  0  0  0  0  0  0
   -2.5989   -1.5002    0.0000 Cl  0  0  0  0  0  0  0  0  0  0  0  0
    2.5989    1.5002    0.0000 N   0  0  0  0  0  0  0  0  0  0  0  0
    6.4964   -0.7492    0.0000 O   0  0  0  0  0  0  0  0  0  0  0  0
    3.8983   -0.7496    0.0000 O   0  0  0  0  0  0  0  0  0  0  0  0
  4  2  2  0
  5  3  1  0
  7  1  1  0
  7  6  1  0
  8  2  1  0
  8  3  2  0
  9  4  1  0
  9  5  2  0
 10  6  1  0
 11  8  1  0
 12  9  1  0
 12 10  1  0
 13  7  2  0
 14 10  2  0
M  END
>  <NAME>  (610) 
PARA-CHLOROACETOACETANILIDE

>  <SYNONYMS>  (610) 


>  <SPECTRUM TYPE>  (610) 
MS1

>  <INSTRUMENT TYPE>  (610) 
EI-B

>  <INSTRUMENT>  (610) 
HITACHI M-80A

>  <ION MODE>  (610) 
P

>  <INCHIKEY>  (610) 
JMRJWEJJUKUBEA-UHFFFAOYSA-N

>  <FORMULA>  (610) 
C10H10ClNO2

>  <EXACT MASS>  (610) 
211.04000624

>  <MW>  (610) 
211

>  <ID>  (610) 
JP011280

>  <CONTRIBUTOR>  (610) 
University of Tokyo Team, {Faculty of Engineering, University of Tokyo

>  <COMMENT>  (610) 
SMILES=CC(=O)CC(=O)Nc(c1)ccc(Cl)c1
InChI=InChI=1S/C10H10ClNO2/c1-7(13)6-10(14)12-9-4-2-8(11)3-5-9/h2-5H,6H2,1H3,(H,12,14)
computed SMILES=O=C(NC1=CC=C(Cl)C=C1)CC(=O)C
accession=JP011280
date=2016.01.19 (Created 2008.10.21, modified 2011.05.06)
author=TAJIMA S, GUNMA COLLEGE OF TECHNOLOGY
license=CC BY-NC-SA
exact mass=211.04001
ionization energy=70 eV
ion type=[M]+*
computed spectral entropy=2.5131709672257947
computed normalized entropy=0.7126812331530819
SPLASH=splash10-01t9-4970000000-60dce85599c8f50ae7a1
submitter=submitter = University of Tokyo Team (Faculty of Engineering, University of Tokyo)
MoNA Rating=3.75

>  <NUM PEAKS>  (610) 
34

>  <MASS SPECTRAL PEAKS>  (610) 
15 1.64
27 1.07
28 3.28
39 2.77
42 1.75
43 31.53
58 4.25
63 4.84
64 1.69
65 3.12
73 1.97
75 1.8
85 3.59
90 1.8
91 2.27
92 2.68
99 4.08
100 1.08
101 1.36
125 1.28
126 2.32
127 99.99
128 8.85
129 31.66
130 2.72
140 1.14
153 5.21
154 1
155 1.71
211 58.1
212 33.57
213 21.72
214 10.95
215 1.19

$$$$

     RDKit          2D

 18 21  0  0  0  0  0  0  0  0999 V2000
   -1.3000    3.7500    0.0000 C   0  0  0  0  0  0  0  0  0  0  0  0
   -2.6000    3.0000    0.0000 C   0  0  0  0  0  0  0  0  0  0  0  0
    3.9000    0.7500    0.0000 C   0  0  0  0  0  0  0  0  0  0  0  0
    3.9000   -0.7500    0.0000 C   0  0  0  0  0  0  0  0  0  0  0  0
   -2.6000   -3.0000    0.0000 C   0  0  0  0  0  0  0  0  0  0  0  0
   -1.3000   -3.7500    0.0000 C   0  0  0  0  0  0  0  0  0  0  0  0
   -0.0000    3.0000    0.0000 C   0  0  0  0  0  0  0  0  0  0  0  0
   -2.6000    1.5000    0.0000 C   0  0  0  0  0  0  0  0  0  0  0  0
    2.6000    1.5000    0.0000 C   0  0  0  0  0  0  0  0  0  0  0  0
   -2.6000   -1.5000    0.0000 C   0  0  0  0  0  0  0  0  0  0  0  0
    2.6000   -1.5000    0.0000 C   0  0  0  0  0  0  0  0  0  0  0  0
   -0.0000   -3.0000    0.0000 C   0  0  0  0  0  0  0  0  0  0  0  0
   -0.0000    1.5000    0.0000 C   0  0  0  0  0  0  0  0  0  0  0  0
   -1.3000    0.7500    0.0000 C   0  0  0  0  0  0  0  0  0  0  0  0
    1.3000    0.7500    0.0000 C   0  0  0  0  0  0  0  0  0  0  0  0
   -1.3000   -0.7500    0.0000 C   0  0  0  0  0  0  0  0  0  0  0  0
    1.3000   -0.7500    0.0000 C   0  0  0  0  0  0  0  0  0  0  0  0
   -0.0000   -1.5000    0.0000 C   0  0  0  0  0  0  0  0  0  0  0  0
  2  1  2  0
  4  3  2  0
  6  5  2  0
  7  1  1  0
  8  2  1  0
  9  3  1  0
 10  5  1  0
 11  4  1  0
 12  6  1  0
 13  7  2  0
 14  8  2  0
 14 13  1  0
 15  9  2  0
 15 13  1  0
 16 10  2  0
 16 14  1  0
 17 11  2  0
 17 15  1  0
 18 12  2  0
 18 16  1  0
 18 17  1  0
M  END
>  <NAME>  (611) 
TRIPHENYLENE

>  <SYNONYMS>  (611) 
9,10-BENZOPHENANTHRENE

>  <SPECTRUM TYPE>  (611) 
MS1

>  <INSTRUMENT TYPE>  (611) 
EI-B

>  <INSTRUMENT>  (611) 
HITACHI M-80A

>  <ION MODE>  (611) 
P

>  <INCHIKEY>  (611) 
SLGBZMMZGDRARJ-UHFFFAOYSA-N

>  <FORMULA>  (611) 
C18H12

>  <EXACT MASS>  (611) 
228.093900384

>  <MW>  (611) 
228

>  <ID>  (611) 
JP011279

>  <CONTRIBUTOR>  (611) 
University of Tokyo Team, {Faculty of Engineering, University of Tokyo

>  <COMMENT>  (611) 
SMILES=c(c4)cc(c(c4)1)c(c3)c(ccc3)c(c2)c(ccc2)1
InChI=InChI=1S/C18H12/c1-2-8-14-13(7-1)15-9-3-4-11-17(15)18-12-6-5-10-16(14)18/h1-12H
computed SMILES=C=1C=CC=2C(C1)=C3C=CC=CC3=C4C=CC=CC24
accession=JP011279
date=2016.01.19 (Created 2008.10.21, modified 2011.05.06)
author=TAJIMA S, GUNMA COLLEGE OF TECHNOLOGY
license=CC BY-NC-SA
exact mass=228.0939
ionization energy=70 eV
ion type=[M]+*
computed spectral entropy=1.9286883335501939
computed normalized entropy=0.6550274423062414
SPLASH=splash10-004i-0190000000-1333b8e7d67faf2be6d4
submitter=submitter = University of Tokyo Team (Faculty of Engineering, University of Tokyo)
MoNA Rating=3.75

>  <NUM PEAKS>  (611) 
19

>  <MASS SPECTRAL PEAKS>  (611) 
39 1.2
87 1.16
88 1.31
100 2.72
101 3.45
112 3.13
113 8.19
114 7.09
115 1.36
200 3.09
201 1.63
202 3.14
224 4.89
225 4.1
226 22.26
227 11.72
228 99.99
229 19.33
230 1.87

$$$$

     RDKit          2D

 18 21  0  0  0  0  0  0  0  0999 V2000
   -5.2000   -0.7500    0.0000 C   0  0  0  0  0  0  0  0  0  0  0  0
   -5.2000    0.7500    0.0000 C   0  0  0  0  0  0  0  0  0  0  0  0
    5.2000   -0.7500    0.0000 C   0  0  0  0  0  0  0  0  0  0  0  0
    5.2000    0.7500    0.0000 C   0  0  0  0  0  0  0  0  0  0  0  0
   -3.9000   -1.5000    0.0000 C   0  0  0  0  0  0  0  0  0  0  0  0
   -3.9000    1.5000    0.0000 C   0  0  0  0  0  0  0  0  0  0  0  0
    3.9000   -1.5000    0.0000 C   0  0  0  0  0  0  0  0  0  0  0  0
    3.9000    1.5000    0.0000 C   0  0  0  0  0  0  0  0  0  0  0  0
   -1.3000   -1.5000    0.0000 C   0  0  0  0  0  0  0  0  0  0  0  0
   -1.3000    1.5000    0.0000 C   0  0  0  0  0  0  0  0  0  0  0  0
    1.3000   -1.5000    0.0000 C   0  0  0  0  0  0  0  0  0  0  0  0
    1.3000    1.5000    0.0000 C   0  0  0  0  0  0  0  0  0  0  0  0
   -2.6000   -0.7500    0.0000 C   0  0  0  0  0  0  0  0  0  0  0  0
   -2.6000    0.7500    0.0000 C   0  0  0  0  0  0  0  0  0  0  0  0
    2.6000   -0.7500    0.0000 C   0  0  0  0  0  0  0  0  0  0  0  0
    2.6000    0.7500    0.0000 C   0  0  0  0  0  0  0  0  0  0  0  0
    0.0000   -0.7500    0.0000 C   0  0  0  0  0  0  0  0  0  0  0  0
    0.0000    0.7500    0.0000 C   0  0  0  0  0  0  0  0  0  0  0  0
  2  1  2  0
  4  3  1  0
  5  1  1  0
  6  2  1  0
  7  3  2  0
  8  4  2  0
 13  5  2  0
 13  9  1  0
 14  6  2  0
 14 10  1  0
 14 13  1  0
 15  7  1  0
 15 11  2  0
 16  8  1  0
 16 12  2  0
 16 15  1  0
 17  9  2  0
 17 11  1  0
 18 10  2  0
 18 12  1  0
 18 17  1  0
M  END
>  <NAME>  (612) 
NAPHTHACENE

>  <SYNONYMS>  (612) 
2,3-BENZANTHRACENE

>  <SPECTRUM TYPE>  (612) 
MS1

>  <INSTRUMENT TYPE>  (612) 
EI-B

>  <INSTRUMENT>  (612) 
HITACHI M-80A

>  <ION MODE>  (612) 
P

>  <INCHIKEY>  (612) 
IFLREYGFSNHWGE-UHFFFAOYSA-N

>  <FORMULA>  (612) 
C18H12

>  <EXACT MASS>  (612) 
228.093900384

>  <MW>  (612) 
228

>  <ID>  (612) 
JP011278

>  <CONTRIBUTOR>  (612) 
University of Tokyo Team, {Faculty of Engineering, University of Tokyo

>  <COMMENT>  (612) 
SMILES=c(c4)cc(c1)c(c4)cc(c2)c(cc(c3)c(ccc3)2)1
InChI=InChI=1S/C18H12/c1-2-6-14-10-18-12-16-8-4-3-7-15(16)11-17(18)9-13(14)5-1/h1-12H
computed SMILES=C=1C=CC2=CC3=CC=4C=CC=CC4C=C3C=C2C1
accession=JP011278
date=2016.01.19 (Created 2008.10.21, modified 2011.05.06)
author=TAJIMA S, GUNMA COLLEGE OF TECHNOLOGY
license=CC BY-NC-SA
exact mass=228.0939
ionization energy=70 eV
ion type=[M]+*
computed spectral entropy=1.780778248138043
computed normalized entropy=0.6047937351522817
SPLASH=splash10-004i-0190000000-b50449b26ea5f819731c
submitter=submitter = University of Tokyo Team (Faculty of Engineering, University of Tokyo)
MoNA Rating=3.75

>  <NUM PEAKS>  (612) 
19

>  <MASS SPECTRAL PEAKS>  (612) 
29 1.05
39 1.09
40 1.91
88 1.19
100 1.86
101 3.03
112 1.49
113 4.09
114 10.23
200 2.49
201 1.33
202 2.66
224 3.34
225 3.03
226 16.84
227 5.46
228 99.99
229 19.42
230 1.97

$$$$

     RDKit          2D

 20 24  0  0  0  0  0  0  0  0999 V2000
   -3.9000    0.7500    0.0000 C   0  0  0  0  0  0  0  0  0  0  0  0
   -1.3000   -3.7500    0.0000 C   0  0  0  0  0  0  0  0  0  0  0  0
    1.3000    3.7500    0.0000 C   0  0  0  0  0  0  0  0  0  0  0  0
    3.9000   -0.7500    0.0000 C   0  0  0  0  0  0  0  0  0  0  0  0
   -3.9000   -0.7500    0.0000 C   0  0  0  0  0  0  0  0  0  0  0  0
   -2.6000   -3.0000    0.0000 C   0  0  0  0  0  0  0  0  0  0  0  0
    2.6000    3.0000    0.0000 C   0  0  0  0  0  0  0  0  0  0  0  0
    3.9000    0.7500    0.0000 C   0  0  0  0  0  0  0  0  0  0  0  0
   -2.6000    1.5000    0.0000 C   0  0  0  0  0  0  0  0  0  0  0  0
   -0.0000    3.0000    0.0000 C   0  0  0  0  0  0  0  0  0  0  0  0
   -0.0000   -3.0000    0.0000 C   0  0  0  0  0  0  0  0  0  0  0  0
    2.6000   -1.5000    0.0000 C   0  0  0  0  0  0  0  0  0  0  0  0
   -2.6000   -1.5000    0.0000 C   0  0  0  0  0  0  0  0  0  0  0  0
    2.6000    1.5000    0.0000 C   0  0  0  0  0  0  0  0  0  0  0  0
   -1.3000    0.7500    0.0000 C   0  0  0  0  0  0  0  0  0  0  0  0
   -0.0000    1.5000    0.0000 C   0  0  0  0  0  0  0  0  0  0  0  0
   -0.0000   -1.5000    0.0000 C   0  0  0  0  0  0  0  0  0  0  0  0
    1.3000   -0.7500    0.0000 C   0  0  0  0  0  0  0  0  0  0  0  0
   -1.3000   -0.7500    0.0000 C   0  0  0  0  0  0  0  0  0  0  0  0
    1.3000    0.7500    0.0000 C   0  0  0  0  0  0  0  0  0  0  0  0
  5  1  2  0
  6  2  1  0
  7  3  2  0
  8  4  2  0
  9  1  1  0
 10  3  1  0
 11  2  2  0
 12  4  1  0
 13  5  1  0
 13  6  2  0
 14  7  1  0
 14  8  1  0
 15  9  2  0
 16 10  2  0
 16 15  1  0
 17 11  1  0
 18 12  2  0
 18 17  1  0
 19 13  1  0
 19 15  1  0
 19 17  2  0
 20 14  2  0
 20 16  1  0
 20 18  1  0
M  END
>  <NAME>  (613) 
PERYLENE

>  <SYNONYMS>  (613) 
DIBENZ(DE,KL)ANTHRACENE

>  <SPECTRUM TYPE>  (613) 
MS1

>  <INSTRUMENT TYPE>  (613) 
EI-B

>  <INSTRUMENT>  (613) 
HITACHI M-80A

>  <ION MODE>  (613) 
P

>  <INCHIKEY>  (613) 
CSHWQDPOILHKBI-UHFFFAOYSA-N

>  <FORMULA>  (613) 
C20H12

>  <EXACT MASS>  (613) 
252.093900384

>  <MW>  (613) 
252

>  <ID>  (613) 
JP011277

>  <CONTRIBUTOR>  (613) 
University of Tokyo Team, {Faculty of Engineering, University of Tokyo

>  <COMMENT>  (613) 
SMILES=c(c5)cc(c21)c(c54)c(ccc4)c(c3)c(c(cc3)ccc2)1
InChI=InChI=1S/C20H12/c1-5-13-6-2-11-17-18-12-4-8-14-7-3-10-16(20(14)18)15(9-1)19(13)17/h1-12H
computed SMILES=C1=CC=2C=CC=C3C4=CC=CC5=CC=CC(C(=C1)C23)=C54
accession=JP011277
date=2016.01.19 (Created 2008.10.21, modified 2011.05.06)
author=TAJIMA S, GUNMA COLLEGE OF TECHNOLOGY
license=CC BY-NC-SA
exact mass=252.0939
ionization energy=70 eV
ion type=[M]+*
computed spectral entropy=1.9886239020566092
computed normalized entropy=0.6880166527450722
SPLASH=splash10-0udi-0190000000-8617dfdf4352ea7fce47
submitter=submitter = University of Tokyo Team (Faculty of Engineering, University of Tokyo)
MoNA Rating=3.75

>  <NUM PEAKS>  (613) 
18

>  <MASS SPECTRAL PEAKS>  (613) 
28 1.02
29 1.09
40 2.02
112 2.72
113 3.73
124 3.63
125 10.79
126 15.15
224 2.06
225 1.15
226 15.1
248 4.24
249 3.6
250 20.09
251 6.69
252 99.99
253 21.61
254 2.31

$$$$

     RDKit          2D

  7  6  0  0  0  0  0  0  0  0999 V2000
    1.2545    2.3272    0.0000 C   0  0  0  0  0  0  0  0  0  0  0  0
   -3.9417    2.3272    0.0000 C   0  0  0  0  0  0  0  0  0  0  0  0
   -2.3078    1.1781    0.0000 C   0  0  0  0  0  0  0  0  0  0  0  0
   -0.3794    1.1781    0.0000 C   0  0  0  0  0  0  0  0  0  0  0  0
   -0.0445    3.0772    0.0000 O   0  0  0  0  0  0  0  0  0  0  0  0
   -2.6426    3.0772    0.0000 O   0  0  0  0  0  0  0  0  0  0  0  0
   -1.3436    2.3272    0.0000 Si  0  0  0  0  0  4  0  0  0  0  0  0
  5  1  1  0
  6  2  1  0
  7  3  1  0
  7  4  1  0
  7  5  1  0
  7  6  1  0
M  END
>  <NAME>  (614) 
DIMETHOXYDIMETHYLSILANE

>  <SYNONYMS>  (614) 


>  <SPECTRUM TYPE>  (614) 
MS1

>  <INSTRUMENT TYPE>  (614) 
EI-B

>  <INSTRUMENT>  (614) 
HITACHI M-80A

>  <ION MODE>  (614) 
P

>  <INCHIKEY>  (614) 
JJQZDUKDJDQPMQ-UHFFFAOYSA-N

>  <FORMULA>  (614) 
C4H12O2Si

>  <EXACT MASS>  (614) 
120.06065615400001

>  <MW>  (614) 
120

>  <ID>  (614) 
JP011276

>  <CONTRIBUTOR>  (614) 
University of Tokyo Team, {Faculty of Engineering, University of Tokyo

>  <COMMENT>  (614) 
SMILES=CO[Si](C)(C)OC
InChI=InChI=1S/C4H12O2Si/c1-5-7(3,4)6-2/h1-4H3
computed SMILES=O(C)[Si](OC)(C)C
accession=JP011276
date=2016.01.19 (Created 2008.10.21, modified 2011.05.06)
author=TAJIMA S, GUNMA COLLEGE OF TECHNOLOGY
license=CC BY-NC-SA
exact mass=120.06066
ionization energy=70 eV
ion type=[M]+*
computed spectral entropy=1.6065390944971676
computed normalized entropy=0.6087549051961599
SPLASH=splash10-0a4i-6900000000-c3104c3bd016363b5b0b
submitter=submitter = University of Tokyo Team (Faculty of Engineering, University of Tokyo)
MoNA Rating=3.75

>  <NUM PEAKS>  (614) 
14

>  <MASS SPECTRAL PEAKS>  (614) 
15 3.46
43 5.56
45 2.6
58 2.44
59 7.17
61 1.75
74 1.03
75 41.11
76 3.08
77 1.58
89 7.07
105 99.99
106 8.46
107 4.02

$$$$

     RDKit          2D

 16 19  0  0  0  0  0  0  0  0999 V2000
   -3.2500   -1.8800    0.0000 C   0  0  0  0  0  0  0  0  0  0  0  0
    3.2500    1.8800    0.0000 C   0  0  0  0  0  0  0  0  0  0  0  0
   -1.9500   -2.6200    0.0000 C   0  0  0  0  0  0  0  0  0  0  0  0
   -3.2500   -0.3800    0.0000 C   0  0  0  0  0  0  0  0  0  0  0  0
    3.2500    0.3800    0.0000 C   0  0  0  0  0  0  0  0  0  0  0  0
    1.9500    2.6200    0.0000 C   0  0  0  0  0  0  0  0  0  0  0  0
    0.6500   -2.6200    0.0000 C   0  0  0  0  0  0  0  0  0  0  0  0
   -1.9500    1.8800    0.0000 C   0  0  0  0  0  0  0  0  0  0  0  0
    1.9500   -1.8800    0.0000 C   0  0  0  0  0  0  0  0  0  0  0  0
   -0.6500    2.6200    0.0000 C   0  0  0  0  0  0  0  0  0  0  0  0
   -0.6500   -1.8800    0.0000 C   0  0  0  0  0  0  0  0  0  0  0  0
   -1.9500    0.3800    0.0000 C   0  0  0  0  0  0  0  0  0  0  0  0
    1.9500   -0.3800    0.0000 C   0  0  0  0  0  0  0  0  0  0  0  0
    0.6500    1.8800    0.0000 C   0  0  0  0  0  0  0  0  0  0  0  0
   -0.6500   -0.3800    0.0000 C   0  0  0  0  0  0  0  0  0  0  0  0
    0.6500    0.3800    0.0000 C   0  0  0  0  0  0  0  0  0  0  0  0
  3  1  2  0
  4  1  1  0
  5  2  2  0
  6  2  1  0
  9  7  1  0
 10  8  2  0
 11  3  1  0
 11  7  2  0
 12  4  2  0
 12  8  1  0
 13  5  1  0
 13  9  2  0
 14  6  2  0
 14 10  1  0
 15 11  1  0
 15 12  1  0
 16 13  1  0
 16 14  1  0
 16 15  2  0
M  END
>  <NAME>  (615) 
PYRENE

>  <SYNONYMS>  (615) 


>  <SPECTRUM TYPE>  (615) 
MS1

>  <INSTRUMENT TYPE>  (615) 
EI-B

>  <INSTRUMENT>  (615) 
HITACHI M-80A

>  <ION MODE>  (615) 
P

>  <INCHIKEY>  (615) 
BBEAQIROQSPTKN-UHFFFAOYSA-N

>  <FORMULA>  (615) 
C16H10

>  <EXACT MASS>  (615) 
202.07825032

>  <MW>  (615) 
202

>  <ID>  (615) 
JP011275

>  <CONTRIBUTOR>  (615) 
University of Tokyo Team, {Faculty of Engineering, University of Tokyo

>  <COMMENT>  (615) 
SMILES=c(c4)cc(c3)c(c41)c(c2c3)c(ccc2)cc1
InChI=InChI=1S/C16H10/c1-3-11-7-9-13-5-2-6-14-10-8-12(4-1)15(11)16(13)14/h1-10H
computed SMILES=C=1C=C2C=CC3=CC=CC=4C=CC(C1)=C2C34
accession=JP011275
date=2016.01.19 (Created 2008.10.21, modified 2011.05.06)
author=TAJIMA S, GUNMA COLLEGE OF TECHNOLOGY
license=CC BY-NC-SA
exact mass=202.07825
ionization energy=70 eV
ion type=[M]+*
computed spectral entropy=1.7326410099079281
computed normalized entropy=0.5691010808261707
SPLASH=splash10-0udi-0190000000-ab79745741c952b34e15
submitter=submitter = University of Tokyo Team (Faculty of Engineering, University of Tokyo)
MoNA Rating=3.75

>  <NUM PEAKS>  (615) 
21

>  <MASS SPECTRAL PEAKS>  (615) 
39 1.12
50 1.11
63 1.38
74 1.48
75 1.38
87 1.89
88 2.14
99 1.25
100 4.85
101 7.2
102 1.22
150 1.2
174 1.64
175 1
198 1.51
199 2.06
200 10.33
201 9.16
202 99.99
203 19.17
204 2.31

$$$$

     RDKit          2D

 16 19  0  0  0  0  0  0  0  0999 V2000
   -3.9400    0.7500    0.0000 C   0  0  0  0  0  0  0  0  0  0  0  0
   -3.9300   -0.7500    0.0000 C   0  0  0  0  0  0  0  0  0  0  0  0
    2.3300    2.6000    0.0000 C   0  0  0  0  0  0  0  0  0  0  0  0
    2.2500   -2.6300    0.0000 C   0  0  0  0  0  0  0  0  0  0  0  0
    3.1100    1.3100    0.0000 C   0  0  0  0  0  0  0  0  0  0  0  0
    3.0700   -1.3700    0.0000 C   0  0  0  0  0  0  0  0  0  0  0  0
   -2.6500    1.5100    0.0000 C   0  0  0  0  0  0  0  0  0  0  0  0
   -2.6200   -1.4900    0.0000 C   0  0  0  0  0  0  0  0  0  0  0  0
    0.8200    2.5500    0.0000 C   0  0  0  0  0  0  0  0  0  0  0  0
    0.7600   -2.5400    0.0000 C   0  0  0  0  0  0  0  0  0  0  0  0
    2.3900   -0.0100    0.0000 C   0  0  0  0  0  0  0  0  0  0  0  0
   -1.3400    0.7700    0.0000 C   0  0  0  0  0  0  0  0  0  0  0  0
   -1.3400   -0.7300    0.0000 C   0  0  0  0  0  0  0  0  0  0  0  0
    0.1000    1.2300    0.0000 C   0  0  0  0  0  0  0  0  0  0  0  0
    0.0800   -1.2000    0.0000 C   0  0  0  0  0  0  0  0  0  0  0  0
    0.9200    0.0000    0.0000 C   0  0  0  0  0  0  0  0  0  0  0  0
  2  1  2  0
  5  3  2  0
  6  4  2  0
  7  1  1  0
  8  2  1  0
  9  3  1  0
 10  4  1  0
 11  5  1  0
 11  6  1  0
 12  7  2  0
 13  8  2  0
 13 12  1  0
 14  9  2  0
 14 12  1  0
 15 10  2  0
 15 13  1  0
 16 11  2  0
 16 14  1  0
 16 15  1  0
M  END
>  <NAME>  (616) 
FLUORANTHENE

>  <SYNONYMS>  (616) 


>  <SPECTRUM TYPE>  (616) 
MS1

>  <INSTRUMENT TYPE>  (616) 
EI-B

>  <INSTRUMENT>  (616) 
HITACHI M-80A

>  <ION MODE>  (616) 
P

>  <INCHIKEY>  (616) 
GVEPBJHOBDJJJI-UHFFFAOYSA-N

>  <FORMULA>  (616) 
C16H10

>  <EXACT MASS>  (616) 
202.07825032

>  <MW>  (616) 
202

>  <ID>  (616) 
JP011274

>  <CONTRIBUTOR>  (616) 
University of Tokyo Team, {Faculty of Engineering, University of Tokyo

>  <COMMENT>  (616) 
SMILES=c(c4)cc(c(c4)1)c(c3)c(c2cc3)c(ccc2)1
InChI=InChI=1S/C16H10/c1-2-8-13-12(7-1)14-9-3-5-11-6-4-10-15(13)16(11)14/h1-10H
computed SMILES=C1=CC=C2C(=C1)C3=CC=CC4=CC=CC2=C43
accession=JP011274
date=2016.01.19 (Created 2008.10.21, modified 2011.05.06)
author=TAJIMA S, GUNMA COLLEGE OF TECHNOLOGY
license=CC BY-NC-SA
exact mass=202.07825
ionization energy=70 eV
ion type=[M]+*
computed spectral entropy=1.795634060133826
computed normalized entropy=0.5993973747205298
SPLASH=splash10-0udi-0190000000-da5621de3cc73018691e
submitter=submitter = University of Tokyo Team (Faculty of Engineering, University of Tokyo)
MoNA Rating=3.75

>  <NUM PEAKS>  (616) 
20

>  <MASS SPECTRAL PEAKS>  (616) 
63 1.02
74 1.28
75 1.52
87 1.82
88 3.33
99 1.2
100 4.76
101 8.24
102 1.4
150 1.57
174 2
175 1.57
176 1.82
198 1.49
199 2.46
200 14.54
201 11.38
202 99.99
203 18.2
204 2.38

$$$$

     RDKit          2D

 10 10  0  0  0  0  0  0  0  0999 V2000
    0.0005   -3.7506    0.0000 C   0  0  0  0  0  0  0  0  0  0  0  0
   -1.2990   -2.9998    0.0000 C   0  0  0  0  0  0  0  0  0  0  0  0
    1.2995   -3.0006    0.0000 C   0  0  0  0  0  0  0  0  0  0  0  0
   -0.0005   -0.7490    0.0000 C   0  0  0  0  0  0  0  0  0  0  0  0
   -1.2995   -1.4990    0.0000 C   0  0  0  0  0  0  0  0  0  0  0  0
    1.2990   -1.4998    0.0000 C   0  0  0  0  0  0  0  0  0  0  0  0
   -2.5987   -0.7492    0.0000 Br  0  0  0  0  0  0  0  0  0  0  0  0
    2.5981   -0.7498    0.0000 N   0  0  0  0  0  0  0  0  0  0  0  0
    3.8971   -1.4998    0.0000 O   0  0  0  0  0  0  0  0  0  0  0  0
    2.5981    0.7502    0.0000 O   0  0  0  0  0  0  0  0  0  0  0  0
  2  1  2  0
  3  1  1  0
  5  2  1  0
  5  4  2  0
  6  3  2  0
  6  4  1  0
  7  5  1  0
  8  6  1  0
  9  8  1  0
 10  8  2  0
M  CHG  2   8   1   9  -1
M  END
>  <NAME>  (617) 
META-BROMONITROBENZENE

>  <SYNONYMS>  (617) 
3-BROMONITROBENZENE

>  <SPECTRUM TYPE>  (617) 
MS1

>  <INSTRUMENT TYPE>  (617) 
EI-B

>  <INSTRUMENT>  (617) 
HITACHI M-80A

>  <ION MODE>  (617) 
P

>  <INCHIKEY>  (617) 
FWIROFMBWVMWLB-UHFFFAOYSA-N

>  <FORMULA>  (617) 
C6H4BrNO2

>  <EXACT MASS>  (617) 
200.942540468

>  <MW>  (617) 
201

>  <ID>  (617) 
JP011273

>  <CONTRIBUTOR>  (617) 
University of Tokyo Team, {Faculty of Engineering, University of Tokyo

>  <COMMENT>  (617) 
SMILES=[O-1][N+1](=O)c(c1)cc(Br)cc1
InChI=InChI=1S/C6H4BrNO2/c7-5-2-1-3-6(4-5)8(9)10/h1-4H
computed SMILES=O=N(=O)C=1C=CC=C(Br)C1
license=CC BY-NC-SA
exact mass=200.94254
accession=JP011273
date=2016.01.19 (Created 2008.10.21, modified 2011.05.06)
author=TAJIMA S, GUNMA COLLEGE OF TECHNOLOGY
ionization energy=70 eV
ion type=[M]+*
computed spectral entropy=3.011774305468312
computed normalized entropy=0.7738729115859864
SPLASH=splash10-0zi0-9540000000-24e842b46d470da10f15
submitter=submitter = University of Tokyo Team (Faculty of Engineering, University of Tokyo)
MoNA Rating=3.75

>  <NUM PEAKS>  (617) 
49

>  <MASS SPECTRAL PEAKS>  (617) 
26 1.81
27 1.26
30 62.11
37 5.89
38 8.96
39 5.48
40 1.1
46 6.38
49 3.74
50 60
51 9.45
61 2.32
62 3.12
63 11.31
64 7.58
65 1.01
69 3.66
73 4.18
74 26.09
75 83.58
76 86.1
77 7.13
79 1.29
81 1.25
90 2.52
92 8.67
117 1.71
119 1.56
129 1.96
131 1.93
143 24.68
144 1.44
145 23.79
146 1.4
155 67.26
156 5.71
157 64.95
158 5.25
169 1.03
171 10.5
172 1.2
173 9.34
185 13.69
186 1.33
188 1.31
201 99.99
202 9.55
203 98.73
204 9.2

$$$$

     RDKit          2D

 10 10  0  0  0  0  0  0  0  0999 V2000
   -1.3000    0.7500    0.0000 C   0  0  0  0  0  0  0  0  0  0  0  0
    0.0000    1.5000    0.0000 C   0  0  0  0  0  0  0  0  0  0  0  0
   -1.3000   -0.7500    0.0000 C   0  0  0  0  0  0  0  0  0  0  0  0
    1.3000    0.7500    0.0000 C   0  0  0  0  0  0  0  0  0  0  0  0
    0.0000   -1.5000    0.0000 C   0  0  0  0  0  0  0  0  0  0  0  0
    1.3000   -0.7500    0.0000 C   0  0  0  0  0  0  0  0  0  0  0  0
   -0.0000   -3.0000    0.0000 Br  0  0  0  0  0  0  0  0  0  0  0  0
    2.5989   -1.5002    0.0000 N   0  0  0  0  0  0  0  0  0  0  0  0
    3.8981   -0.7504    0.0000 O   0  0  0  0  0  0  0  0  0  0  0  0
    2.5987   -3.0002    0.0000 O   0  0  0  0  0  0  0  0  0  0  0  0
  2  1  2  0
  3  1  1  0
  4  2  1  0
  5  3  2  0
  6  4  2  0
  6  5  1  0
  7  5  1  0
  8  6  1  0
  9  8  1  0
 10  8  2  0
M  CHG  2   8   1   9  -1
M  END
>  <NAME>  (618) 
ORTHO-BROMONITROBENZENE

>  <SYNONYMS>  (618) 
2-BROMONITROBENZENE

>  <SPECTRUM TYPE>  (618) 
MS1

>  <INSTRUMENT TYPE>  (618) 
EI-B

>  <INSTRUMENT>  (618) 
HITACHI M-80A

>  <ION MODE>  (618) 
P

>  <INCHIKEY>  (618) 
ORPVVAKYSXQCJI-UHFFFAOYSA-N

>  <FORMULA>  (618) 
C6H4BrNO2

>  <EXACT MASS>  (618) 
200.942540468

>  <MW>  (618) 
201

>  <ID>  (618) 
JP011272

>  <CONTRIBUTOR>  (618) 
University of Tokyo Team, {Faculty of Engineering, University of Tokyo

>  <COMMENT>  (618) 
SMILES=[O-1][N+1](=O)c(c1)c(Br)ccc1
InChI=InChI=1S/C6H4BrNO2/c7-5-3-1-2-4-6(5)8(9)10/h1-4H
computed SMILES=O=N(=O)C=1C=CC=CC1Br
accession=JP011272
date=2016.01.19 (Created 2008.10.21, modified 2011.05.06)
author=TAJIMA S, GUNMA COLLEGE OF TECHNOLOGY
license=CC BY-NC-SA
exact mass=200.94254
ionization energy=70 eV
ion type=[M]+*
computed spectral entropy=3.2038951835908747
computed normalized entropy=0.7995080607216872
SPLASH=splash10-0ufr-9520000000-e4a898e6627dc87eda3d
submitter=submitter = University of Tokyo Team (Faculty of Engineering, University of Tokyo)
MoNA Rating=3.75

>  <NUM PEAKS>  (618) 
55

>  <MASS SPECTRAL PEAKS>  (618) 
26 2.42
27 2.74
28 4.28
29 1.62
30 81.04
37 6.97
38 10.14
39 11.03
40 2.66
46 6.02
49 4.54
50 72.12
51 12.68
52 1.33
53 2.08
61 2.26
62 3.26
63 16.35
64 12.67
65 1.3
73 3.94
74 24.81
75 99.99
76 92.89
77 7.28
78 3.97
79 1.5
81 1.44
90 1.91
92 17.07
93 1.29
94 1.88
117 2.67
119 2.53
122 3.62
129 2.43
131 2.36
143 44.12
144 2.56
145 42.5
146 2.38
155 54.19
156 4.76
157 52.8
158 4.03
171 28.38
172 2.3
173 27.49
174 2.08
185 10.03
187 9.7
201 76.52
202 6.83
203 74.38
204 6.52

$$$$

     RDKit          2D

 13 13  0  0  0  0  0  0  0  0999 V2000
   -1.6700   -0.9600    0.0000 C   0  0  0  0  0  0  0  0  0  0  0  0
   -1.6700    0.5400    0.0000 C   0  0  0  0  0  0  0  0  0  0  0  0
   -0.3700   -1.7100    0.0000 C   0  0  0  0  0  0  0  0  0  0  0  0
   -0.3700    1.2900    0.0000 C   0  0  0  0  0  0  0  0  0  0  0  0
    0.9300   -0.9600    0.0000 C   0  0  0  0  0  0  0  0  0  0  0  0
    0.9300    0.5400    0.0000 C   0  0  0  0  0  0  0  0  0  0  0  0
    3.5281    0.5404    0.0000 C   0  0  0  0  0  0  0  0  0  0  0  0
    4.8270    1.2906    0.0000 C   0  0  0  0  0  0  0  0  0  0  0  0
    5.5772   -0.0083    0.0000 F   0  0  0  0  0  0  0  0  0  0  0  0
    6.1259    2.0408    0.0000 F   0  0  0  0  0  0  0  0  0  0  0  0
    4.0768    2.5895    0.0000 F   0  0  0  0  0  0  0  0  0  0  0  0
    3.5283   -0.9596    0.0000 O   0  0  0  0  0  0  0  0  0  0  0  0
    2.2289    1.2902    0.0000 O   0  0  0  0  0  0  0  0  0  0  0  0
  2  1  2  0
  3  1  1  0
  4  2  1  0
  5  3  2  0
  6  4  2  0
  6  5  1  0
  8  7  1  0
  9  8  1  0
 10  8  1  0
 11  8  1  0
 12  7  2  0
 13  6  1  0
 13  7  1  0
M  END
>  <NAME>  (619) 
PHENYL TRIFLUOROACETATE

>  <SYNONYMS>  (619) 
TRIFLUOROACETIC ACID PHENYL ESTER

>  <SPECTRUM TYPE>  (619) 
MS1

>  <INSTRUMENT TYPE>  (619) 
EI-B

>  <INSTRUMENT>  (619) 
HITACHI M-80A

>  <ION MODE>  (619) 
P

>  <INCHIKEY>  (619) 
DVCMYAIUSOSIQP-UHFFFAOYSA-N

>  <FORMULA>  (619) 
C8H5F3O2

>  <EXACT MASS>  (619) 
190.02416406

>  <MW>  (619) 
190

>  <ID>  (619) 
JP011271

>  <CONTRIBUTOR>  (619) 
University of Tokyo Team, {Faculty of Engineering, University of Tokyo

>  <COMMENT>  (619) 
SMILES=O=C(Oc(c1)cccc1)C(F)(F)F
InChI=InChI=1S/C8H5F3O2/c9-8(10,11)7(12)13-6-4-2-1-3-5-6/h1-5H
computed SMILES=O=C(OC=1C=CC=CC1)C(F)(F)F
accession=JP011271
date=2016.01.19 (Created 2008.10.21, modified 2011.05.06)
author=TAJIMA S, GUNMA COLLEGE OF TECHNOLOGY
license=CC BY-NC-SA
exact mass=190.02416
ionization energy=70 eV
ion type=[M]+*
computed spectral entropy=2.9670125620128904
computed normalized entropy=0.7840549362059211
SPLASH=splash10-014i-9100000000-ae667447b781e5bc4b3a
submitter=submitter = University of Tokyo Team (Faculty of Engineering, University of Tokyo)
MoNA Rating=3.75

>  <NUM PEAKS>  (619) 
44

>  <MASS SPECTRAL PEAKS>  (619) 
26 2.26
27 2.81
29 1.65
31 3.32
37 5.19
38 14.51
39 54.67
40 3.79
45 4.61
49 1.79
50 20.01
51 21.19
52 1.16
53 2.02
55 1.29
61 3.06
62 6.55
63 15.69
64 6.96
65 99.99
66 9.61
69 59.28
70 1.49
73 1.06
74 4.27
75 2.59
76 2.32
77 38.3
78 3.4
84 1.6
92 1.68
93 20.82
94 10.62
95 1.72
96 12.16
97 2.57
114 1.78
115 1.03
121 4.48
143 4.55
162 20.41
163 1.59
190 52.15
191 4.8

$$$$

     RDKit          2D

 11 11  0  0  0  0  0  0  0  0999 V2000
   -1.3000    0.7500    0.0000 C   0  0  0  0  0  0  0  0  0  0  0  0
   -0.0000   -1.5000    0.0000 C   0  0  0  0  0  0  0  0  0  0  0  0
    0.0000    1.5000    0.0000 C   0  0  0  0  0  0  0  0  0  0  0  0
    1.3000   -0.7500    0.0000 C   0  0  0  0  0  0  0  0  0  0  0  0
   -2.5989   -1.5002    0.0000 C   0  0  0  0  0  0  0  0  0  0  0  0
   -1.3000   -0.7500    0.0000 C   0  0  0  0  0  0  0  0  0  0  0  0
    1.3000    0.7500    0.0000 C   0  0  0  0  0  0  0  0  0  0  0  0
    2.5989    1.5002    0.0000 C   0  0  0  0  0  0  0  0  0  0  0  0
   -3.8981   -0.7504    0.0000 O   0  0  0  0  0  0  0  0  0  0  0  0
    3.8981    0.7504    0.0000 O   0  0  0  0  0  0  0  0  0  0  0  0
    2.5987    3.0002    0.0000 O   0  0  0  0  0  0  0  0  0  0  0  0
  3  1  2  0
  4  2  1  0
  6  1  1  0
  6  2  2  0
  6  5  1  0
  7  3  1  0
  7  4  2  0
  8  7  1  0
  9  5  2  0
 10  8  1  0
 11  8  2  0
M  END
>  <NAME>  (620) 
PARA-FORMYLBENZOIC ACID

>  <SYNONYMS>  (620) 


>  <SPECTRUM TYPE>  (620) 
MS1

>  <INSTRUMENT TYPE>  (620) 
EI-B

>  <INSTRUMENT>  (620) 
HITACHI M-80A

>  <ION MODE>  (620) 
P

>  <INCHIKEY>  (620) 
GOUHYARYYWKXHS-UHFFFAOYSA-N

>  <FORMULA>  (620) 
C8H6O3

>  <EXACT MASS>  (620) 
150.03169405199998

>  <MW>  (620) 
150

>  <ID>  (620) 
JP011270

>  <CONTRIBUTOR>  (620) 
University of Tokyo Team, {Faculty of Engineering, University of Tokyo

>  <COMMENT>  (620) 
SMILES=O=Cc(c1)ccc(c1)C(O)=O
InChI=InChI=1S/C8H6O3/c9-5-6-1-3-7(4-2-6)8(10)11/h1-5H,(H,10,11)
computed SMILES=O=CC1=CC=C(C=C1)C(=O)O
accession=JP011270
date=2016.01.19 (Created 2008.10.21, modified 2011.05.06)
author=TAJIMA S, GUNMA COLLEGE OF TECHNOLOGY
license=CC BY-NC-SA
exact mass=150.03169
ionization energy=70 eV
ion type=[M]+*
computed spectral entropy=3.1137304052034933
computed normalized entropy=0.8087301390264928
SPLASH=splash10-0udj-9700000000-7c8f8c2a3566d84216bd
submitter=submitter = University of Tokyo Team (Faculty of Engineering, University of Tokyo)
MoNA Rating=3.75

>  <NUM PEAKS>  (620) 
47

>  <MASS SPECTRAL PEAKS>  (620) 
17 1.07
18 3.84
26 1.9
27 5.55
29 17.52
37 5.99
38 8.33
39 16.01
40 3.65
43 1.28
44 1
45 10.63
49 4.64
50 42.45
51 47.71
52 6.38
53 5.8
61 3.11
62 3.73
63 4.49
64 1.38
65 43.32
66 5.16
73 5.1
74 22.3
75 18.06
76 20.71
77 36.6
78 4
79 1.44
89 1.27
91 1.38
93 4.21
103 4.03
104 7.3
105 23.47
106 2.07
107 1.56
121 29.8
122 4.79
133 14.53
134 1.65
135 1.76
149 99.99
150 85.97
151 10.42
152 1.29

$$$$

     RDKit          2D

 13 12  0  0  0  0  0  0  0  0999 V2000
    3.0227    2.4827    0.0000 C   0  0  0  0  0  0  0  0  0  0  0  0
   -4.7716    2.4827    0.0000 C   0  0  0  0  0  0  0  0  0  0  0  0
    0.5409    6.9404    0.0000 C   0  0  0  0  0  0  0  0  0  0  0  0
   -4.2800    5.2704    0.0000 C   0  0  0  0  0  0  0  0  0  0  0  0
    1.7236    3.2327    0.0000 C   0  0  0  0  0  0  0  0  0  0  0  0
   -3.4725    3.2327    0.0000 C   0  0  0  0  0  0  0  0  0  0  0  0
   -0.4233    5.7913    0.0000 C   0  0  0  0  0  0  0  0  0  0  0  0
   -3.3158    4.1213    0.0000 C   0  0  0  0  0  0  0  0  0  0  0  0
   -0.8744    3.2327    0.0000 C   0  0  0  0  0  0  0  0  0  0  0  0
    0.4246    2.4827    0.0000 O   0  0  0  0  0  0  0  0  0  0  0  0
   -2.1735    2.4827    0.0000 O   0  0  0  0  0  0  0  0  0  0  0  0
    0.0897    4.3818    0.0000 O   0  0  0  0  0  0  0  0  0  0  0  0
   -1.8386    4.3818    0.0000 O   0  0  0  0  0  0  0  0  0  0  0  0
  5  1  1  0
  6  2  1  0
  7  3  1  0
  8  4  1  0
 10  5  1  0
 10  9  1  0
 11  6  1  0
 11  9  1  0
 12  7  1  0
 12  9  1  0
 13  8  1  0
 13  9  1  0
M  END
>  <NAME>  (621) 
TETRAETHOXYMETHANE

>  <SYNONYMS>  (621) 


>  <SPECTRUM TYPE>  (621) 
MS1

>  <INSTRUMENT TYPE>  (621) 
EI-B

>  <INSTRUMENT>  (621) 
HITACHI M-80A

>  <ION MODE>  (621) 
P

>  <INCHIKEY>  (621) 
CWLNAJYDRSIKJS-UHFFFAOYSA-N

>  <FORMULA>  (621) 
C9H20O4

>  <EXACT MASS>  (621) 
192.13615912

>  <MW>  (621) 
192

>  <ID>  (621) 
JP011269

>  <CONTRIBUTOR>  (621) 
University of Tokyo Team, {Faculty of Engineering, University of Tokyo

>  <COMMENT>  (621) 
SMILES=CCOC(OCC)(OCC)OCC
InChI=InChI=1S/C9H20O4/c1-5-10-9(11-6-2,12-7-3)13-8-4/h5-8H2,1-4H3
computed SMILES=O(CC)C(OCC)(OCC)OCC
accession=JP011269
date=2016.01.19 (Created 2008.10.21, modified 2011.05.06)
author=TAJIMA S, GUNMA COLLEGE OF TECHNOLOGY
license=CC BY-NC-SA
exact mass=192.13616
ionization energy=70 eV
ion type=[M]+*
computed spectral entropy=2.42509695940986
computed normalized entropy=0.7443293748694534
SPLASH=splash10-01r2-9300000000-aa4708a5b094a593f766
submitter=submitter = University of Tokyo Team (Faculty of Engineering, University of Tokyo)
MoNA Rating=3.75

>  <NUM PEAKS>  (621) 
26

>  <MASS SPECTRAL PEAKS>  (621) 
15 6.34
19 7.52
26 4.38
27 31.79
28 5.67
29 84.77
30 5.35
31 13.83
41 1.44
42 1.02
43 8.5
44 2.89
45 24.22
46 1.05
47 14.45
63 99.99
64 1.26
75 2.72
91 55.79
92 2.06
102 1.68
103 1.37
119 26.04
120 1.58
147 92.08
148 7.58

$$$$

     RDKit          2D

 10  9  0  0  0  0  0  0  0  0999 V2000
    1.7108    1.8113    0.0000 C   0  0  0  0  0  0  0  0  0  0  0  0
    0.4118    1.0613    0.0000 C   0  0  0  0  0  0  0  0  0  0  0  0
    1.7108    3.3113    0.0000 C   0  0  0  0  0  0  0  0  0  0  0  0
    1.1618   -0.2377    0.0000 F   0  0  0  0  0  0  0  0  0  0  0  0
   -0.3382    2.3603    0.0000 F   0  0  0  0  0  0  0  0  0  0  0  0
   -0.8873    0.3113    0.0000 F   0  0  0  0  0  0  0  0  0  0  0  0
    3.2108    3.3113    0.0000 F   0  0  0  0  0  0  0  0  0  0  0  0
    1.7108    4.8113    0.0000 F   0  0  0  0  0  0  0  0  0  0  0  0
    0.2108    3.3113    0.0000 F   0  0  0  0  0  0  0  0  0  0  0  0
    3.0099    1.0613    0.0000 O   0  0  0  0  0  0  0  0  0  0  0  0
  2  1  1  0
  3  1  1  0
  4  2  1  0
  5  2  1  0
  6  2  1  0
  7  3  1  0
  8  3  1  0
  9  3  1  0
 10  1  1  0
M  END
>  <NAME>  (622) 
1,1,1,3,3,3-HEXAFLUORO-2-PROPANOL

>  <SYNONYMS>  (622) 


>  <SPECTRUM TYPE>  (622) 
MS1

>  <INSTRUMENT TYPE>  (622) 
EI-B

>  <INSTRUMENT>  (622) 
HITACHI M-80A

>  <ION MODE>  (622) 
P

>  <INCHIKEY>  (622) 
BYEAHWXPCBROCE-UHFFFAOYSA-N

>  <FORMULA>  (622) 
C3H2F6O

>  <EXACT MASS>  (622) 
168.000984004

>  <MW>  (622) 
168

>  <ID>  (622) 
JP011268

>  <CONTRIBUTOR>  (622) 
University of Tokyo Team, {Faculty of Engineering, University of Tokyo

>  <COMMENT>  (622) 
SMILES=OC(C(F)(F)F)C(F)(F)F
InChI=InChI=1S/C3H2F6O/c4-2(5,6)1(10)3(7,8)9/h1,10H
computed SMILES=FC(F)(F)C(O)C(F)(F)F
accession=JP011268
date=2016.01.19 (Created 2008.10.21, modified 2011.05.06)
author=TAJIMA S, GUNMA COLLEGE OF TECHNOLOGY
license=CC BY-NC-SA
exact mass=168.00098
ionization energy=70 eV
ion type=[M]+*
computed spectral entropy=2.7152261594598013
computed normalized entropy=0.7637019252405721
SPLASH=splash10-0fvj-9000000000-080c4a2565ed0f5063e3
submitter=submitter = University of Tokyo Team (Faculty of Engineering, University of Tokyo)
MoNA Rating=3.75

>  <NUM PEAKS>  (622) 
35

>  <MASS SPECTRAL PEAKS>  (622) 
17 2.16
18 1.62
19 1.04
29 99.99
30 10.85
31 39.3
32 12.68
33 2.43
40 1.62
43 1.35
44 6.04
47 2.47
49 41.99
50 27.65
51 69.09
52 1.56
60 7.65
61 1
63 4.89
67 3.23
69 88.5
70 1.23
74 1
78 4.43
79 21.49
80 13.41
81 1.2
82 2.07
93 2.91
99 33.38
100 3.21
101 13.5
113 1.6
129 19.06
149 5.61

$$$$

     RDKit          2D

 11 11  0  0  0  0  0  0  0  0999 V2000
   -1.6700   -0.9600    0.0000 C   0  0  0  0  0  0  0  0  0  0  0  0
   -1.6700    0.5400    0.0000 C   0  0  0  0  0  0  0  0  0  0  0  0
   -0.3700   -1.7100    0.0000 C   0  0  0  0  0  0  0  0  0  0  0  0
   -0.3700    1.2900    0.0000 C   0  0  0  0  0  0  0  0  0  0  0  0
    0.9300   -0.9600    0.0000 C   0  0  0  0  0  0  0  0  0  0  0  0
    0.9300    0.5400    0.0000 C   0  0  0  0  0  0  0  0  0  0  0  0
    3.5281    0.5404    0.0000 C   0  0  0  0  0  0  0  0  0  0  0  0
    2.7783   -0.7587    0.0000 F   0  0  0  0  0  0  0  0  0  0  0  0
    4.8272   -0.2094    0.0000 F   0  0  0  0  0  0  0  0  0  0  0  0
    4.2779    1.8396    0.0000 F   0  0  0  0  0  0  0  0  0  0  0  0
    2.2289    1.2902    0.0000 O   0  0  0  0  0  0  0  0  0  0  0  0
  2  1  2  0
  3  1  1  0
  4  2  1  0
  5  3  2  0
  6  4  2  0
  6  5  1  0
  8  7  1  0
  9  7  1  0
 10  7  1  0
 11  6  1  0
 11  7  1  0
M  END
>  <NAME>  (623) 
TRIFLUOROMETHOXYBENZENE

>  <SYNONYMS>  (623) 


>  <SPECTRUM TYPE>  (623) 
MS1

>  <INSTRUMENT TYPE>  (623) 
EI-B

>  <INSTRUMENT>  (623) 
HITACHI M-80A

>  <ION MODE>  (623) 
P

>  <INCHIKEY>  (623) 
GQHWSLKNULCZGI-UHFFFAOYSA-N

>  <FORMULA>  (623) 
C7H5F3O

>  <EXACT MASS>  (623) 
162.02924944

>  <MW>  (623) 
162

>  <ID>  (623) 
JP011267

>  <CONTRIBUTOR>  (623) 
University of Tokyo Team, {Faculty of Engineering, University of Tokyo

>  <COMMENT>  (623) 
SMILES=FC(F)(F)Oc(c1)cccc1
InChI=InChI=1S/C7H5F3O/c8-7(9,10)11-6-4-2-1-3-5-6/h1-5H
computed SMILES=FC(F)(F)OC=1C=CC=CC1
accession=JP011267
date=2016.01.19 (Created 2008.10.21, modified 2011.05.06)
author=TAJIMA S, GUNMA COLLEGE OF TECHNOLOGY
license=CC BY-NC-SA
exact mass=162.02925
ionization energy=70 eV
ion type=[M]+*
computed spectral entropy=2.7853703885372627
computed normalized entropy=0.7602903015102408
SPLASH=splash10-02ti-9200000000-28162e10b5f8871ad200
submitter=submitter = University of Tokyo Team (Faculty of Engineering, University of Tokyo)
MoNA Rating=3.75

>  <NUM PEAKS>  (623) 
39

>  <MASS SPECTRAL PEAKS>  (623) 
26 3.43
27 2.9
31 2.19
37 6.98
38 17.04
39 54.82
40 2.24
43 1.07
47 1.7
49 2.56
50 16.76
51 15.1
52 1.04
53 2.38
61 3.71
62 6.93
63 16.18
64 8.19
65 99.99
66 6.43
67 1.21
69 34.85
70 2.33
73 1.34
74 4.76
75 4.29
76 3.28
77 24.15
78 1.57
84 1.85
92 1.89
93 16.29
94 1.44
95 2.75
96 17.29
97 1.19
114 1.98
162 84.23
163 6.72

$$$$

     RDKit          2D

 10 10  0  0  0  0  0  0  0  0999 V2000
   -1.3000    0.7500    0.0000 C   0  0  0  0  0  0  0  0  0  0  0  0
    0.0000    1.5000    0.0000 C   0  0  0  0  0  0  0  0  0  0  0  0
   -1.3000   -0.7500    0.0000 C   0  0  0  0  0  0  0  0  0  0  0  0
    1.3000    0.7500    0.0000 C   0  0  0  0  0  0  0  0  0  0  0  0
    0.0000   -1.5000    0.0000 C   0  0  0  0  0  0  0  0  0  0  0  0
    1.3000   -0.7500    0.0000 C   0  0  0  0  0  0  0  0  0  0  0  0
   -0.0000   -3.0000    0.0000 I   0  0  0  0  0  0  0  0  0  0  0  0
    2.5989   -1.5002    0.0000 N   0  0  0  0  0  0  0  0  0  0  0  0
    3.8981   -0.7504    0.0000 O   0  0  0  0  0  0  0  0  0  0  0  0
    2.5987   -3.0002    0.0000 O   0  0  0  0  0  0  0  0  0  0  0  0
  2  1  2  0
  3  1  1  0
  4  2  1  0
  5  3  2  0
  6  4  2  0
  6  5  1  0
  7  5  1  0
  8  6  1  0
  9  8  1  0
 10  8  2  0
M  CHG  2   8   1   9  -1
M  END
>  <NAME>  (624) 
ORTHO-IODONITROBENZENE

>  <SYNONYMS>  (624) 


>  <SPECTRUM TYPE>  (624) 
MS1

>  <INSTRUMENT TYPE>  (624) 
EI-B

>  <INSTRUMENT>  (624) 
HITACHI M-80A

>  <ION MODE>  (624) 
P

>  <INCHIKEY>  (624) 
JXMZUNPWVXQADG-UHFFFAOYSA-N

>  <FORMULA>  (624) 
C6H4INO2

>  <EXACT MASS>  (624) 
248.928676368

>  <MW>  (624) 
249

>  <ID>  (624) 
JP011266

>  <CONTRIBUTOR>  (624) 
University of Tokyo Team, {Faculty of Engineering, University of Tokyo

>  <COMMENT>  (624) 
SMILES=[O-1][N+1](=O)c(c1)c(I)ccc1
InChI=InChI=1S/C6H4INO2/c7-5-3-1-2-4-6(5)8(9)10/h1-4H
computed SMILES=O=N(=O)C=1C=CC=CC1I
accession=JP011266
date=2016.01.19 (Created 2008.10.21, modified 2011.05.06)
author=TAJIMA S, GUNMA COLLEGE OF TECHNOLOGY
license=CC BY-NC-SA
exact mass=248.92867
ionization energy=70 eV
ion type=[M]+*
computed spectral entropy=2.1467559136926355
computed normalized entropy=0.6754938803090067
SPLASH=splash10-000t-3090000000-cc1b490beeae79da5a41
submitter=submitter = University of Tokyo Team (Faculty of Engineering, University of Tokyo)
MoNA Rating=3.75

>  <NUM PEAKS>  (624) 
24

>  <MASS SPECTRAL PEAKS>  (624) 
30 4.1
39 2.84
50 3.23
63 6.24
64 1.71
74 1.22
75 1.93
76 10.22
77 1.41
92 35.82
93 2.55
94 1.3
122 2.4
152 1.51
191 3.76
203 2.69
204 2.38
219 11.68
220 2.35
233 54.14
234 4.47
249 99.99
250 13.48
251 1.08

$$$$

     RDKit          2D

 11 11  0  0  0  0  0  0  0  0999 V2000
    3.8980    2.2543    0.0000 C   0  0  0  0  0  0  0  0  0  0  0  0
   -1.3199    2.2329    0.0000 C   0  0  0  0  0  0  0  0  0  0  0  0
   -0.0499   -0.0171    0.0000 C   0  0  0  0  0  0  0  0  0  0  0  0
   -0.0499    2.9829    0.0000 C   0  0  0  0  0  0  0  0  0  0  0  0
    1.3001    0.7329    0.0000 C   0  0  0  0  0  0  0  0  0  0  0  0
   -1.3199    0.7329    0.0000 C   0  0  0  0  0  0  0  0  0  0  0  0
    1.3001    2.2329    0.0000 C   0  0  0  0  0  0  0  0  0  0  0  0
   -2.6227   -0.0107    0.0000 C   0  0  0  0  0  0  0  0  0  0  0  0
   -2.6300   -1.5107    0.0000 O   0  0  0  0  0  0  0  0  0  0  0  0
   -3.9180    0.7457    0.0000 O   0  0  0  0  0  0  0  0  0  0  0  0
    2.5929    2.9936    0.0000 O   0  0  0  0  0  0  0  0  0  0  0  0
  4  2  2  0
  5  3  1  0
  6  2  1  0
  6  3  2  0
  7  4  1  0
  7  5  2  0
  8  6  1  0
  9  8  1  0
 10  8  2  0
 11  1  1  0
 11  7  1  0
M  END
>  <NAME>  (625) 
PARA-ANISIC ACID

>  <SYNONYMS>  (625) 
4-METHOXYBENZOIC ACID

>  <SPECTRUM TYPE>  (625) 
MS1

>  <INSTRUMENT TYPE>  (625) 
EI-B

>  <INSTRUMENT>  (625) 
HITACHI M-80A

>  <ION MODE>  (625) 
P

>  <INCHIKEY>  (625) 
ZEYHEAKUIGZSGI-UHFFFAOYSA-N

>  <FORMULA>  (625) 
C8H8O3

>  <EXACT MASS>  (625) 
152.04734411599998

>  <MW>  (625) 
152

>  <ID>  (625) 
JP011265

>  <CONTRIBUTOR>  (625) 
University of Tokyo Team, {Faculty of Engineering, University of Tokyo

>  <COMMENT>  (625) 
SMILES=COc(c1)ccc(c1)C(O)=O
InChI=InChI=1S/C8H8O3/c1-11-7-4-2-6(3-5-7)8(9)10/h2-5H,1H3,(H,9,10)
computed SMILES=O=C(O)C1=CC=C(OC)C=C1
accession=JP011265
date=2016.01.19 (Created 2008.10.21, modified 2011.05.06)
author=TAJIMA S, GUNMA COLLEGE OF TECHNOLOGY
license=CC BY-NC-SA
exact mass=152.04734
ionization energy=70 eV
ion type=[M]+*
computed spectral entropy=3.046275332744182
computed normalized entropy=0.7956543894493877
SPLASH=splash10-0udr-9700000000-a7c8d60e07932915543c
submitter=submitter = University of Tokyo Team (Faculty of Engineering, University of Tokyo)
MoNA Rating=3.75

>  <NUM PEAKS>  (625) 
46

>  <MASS SPECTRAL PEAKS>  (625) 
15 17.17
27 7.12
29 6.72
30 1.13
31 1.43
37 4.17
38 11.31
39 13.01
45 11.31
49 1.25
50 13.12
51 9.64
52 2.69
53 11.62
55 1.88
61 3.12
62 8.47
63 24.12
64 16.78
65 11.02
66 2.38
73 1.26
74 5.89
75 5.02
76 5.01
77 27.43
78 4.03
79 3.25
81 14.07
92 21.78
93 2.02
104 1.01
105 3.01
106 1.19
107 8.71
108 1.17
109 7.36
119 1.07
120 1.32
121 1.64
135 90.79
136 8.21
137 1.19
152 99.99
153 11.41
154 1.21

$$$$

     RDKit          2D

  7  6  0  0  0  0  0  0  0  0999 V2000
    1.6238    1.6875    0.0000 C   0  0  0  0  0  0  0  0  0  0  0  0
   -3.5724    1.6875    0.0000 C   0  0  0  0  0  0  0  0  0  0  0  0
   -2.2733    3.9375    0.0000 C   0  0  0  0  0  0  0  0  0  0  0  0
   -0.9743    1.6875    0.0000 C   0  0  0  0  0  0  0  0  0  0  0  0
    0.3248    2.4375    0.0000 C   0  0  0  0  0  0  0  0  0  0  0  0
   -2.2733    2.4375    0.0000 N   0  0  0  0  0  0  0  0  0  0  0  0
    0.3248    3.9375    0.0000 O   0  0  0  0  0  0  0  0  0  0  0  0
  5  1  1  0
  5  4  1  0
  6  2  1  0
  6  3  1  0
  6  4  1  0
  7  5  1  0
M  END
>  <NAME>  (626) 
1-DIMETHYLAMINO-2-PROPANOL

>  <SYNONYMS>  (626) 
N,N-DIMETHYL-2-HYDROXYPROPYLAMINE

>  <SPECTRUM TYPE>  (626) 
MS1

>  <INSTRUMENT TYPE>  (626) 
EI-B

>  <INSTRUMENT>  (626) 
HITACHI M-80A

>  <ION MODE>  (626) 
P

>  <INCHIKEY>  (626) 
NCXUNZWLEYGQAH-UHFFFAOYSA-N

>  <FORMULA>  (626) 
C5H13NO

>  <EXACT MASS>  (626) 
103.099714036

>  <MW>  (626) 
103

>  <ID>  (626) 
JP011264

>  <CONTRIBUTOR>  (626) 
University of Tokyo Team, {Faculty of Engineering, University of Tokyo

>  <COMMENT>  (626) 
SMILES=CN(C)CC(C)O
InChI=InChI=1S/C5H13NO/c1-5(7)4-6(2)3/h5,7H,4H2,1-3H3
computed SMILES=OC(C)CN(C)C
accession=JP011264
date=2016.01.19 (Created 2008.10.21, modified 2011.05.06)
author=TAJIMA S, GUNMA COLLEGE OF TECHNOLOGY
license=CC BY-NC-SA
exact mass=103.09971
ionization energy=70 eV
ion type=[M]+*
computed spectral entropy=1.8013255587675299
computed normalized entropy=0.6117720800169133
SPLASH=splash10-0a4i-9000000000-300e4c96d72dcb35c51b
submitter=submitter = University of Tokyo Team (Faculty of Engineering, University of Tokyo)
MoNA Rating=3.75

>  <NUM PEAKS>  (626) 
19

>  <MASS SPECTRAL PEAKS>  (626) 
15 4.83
27 2.22
28 1.67
29 2.99
30 6.1
31 1.49
39 1.37
41 2.92
42 14.73
43 5.19
44 9.58
45 2.48
56 1.26
57 2.72
58 99.99
59 4.62
86 1.35
88 5.1
103 3.35

$$$$

     RDKit          2D

  8  8  0  0  0  0  0  0  0  0999 V2000
   -1.3000    0.7500    0.0000 C   0  0  0  0  0  0  0  0  0  0  0  0
   -0.0000   -1.5000    0.0000 C   0  0  0  0  0  0  0  0  0  0  0  0
    0.0000    1.5000    0.0000 C   0  0  0  0  0  0  0  0  0  0  0  0
    1.3000   -0.7500    0.0000 C   0  0  0  0  0  0  0  0  0  0  0  0
   -1.3000   -0.7500    0.0000 C   0  0  0  0  0  0  0  0  0  0  0  0
    1.3000    0.7500    0.0000 C   0  0  0  0  0  0  0  0  0  0  0  0
   -2.5989   -1.5002    0.0000 N   0  0  0  0  0  0  0  0  0  0  0  0
    2.5989    1.5002    0.0000 O   0  0  0  0  0  0  0  0  0  0  0  0
  3  1  2  0
  4  2  1  0
  5  1  1  0
  5  2  2  0
  6  3  1  0
  6  4  2  0
  7  5  1  0
  8  6  1  0
M  END
>  <NAME>  (627) 
PARA-AMINOPHENOL

>  <SYNONYMS>  (627) 
4-AMINOPHENOL

>  <SPECTRUM TYPE>  (627) 
MS1

>  <INSTRUMENT TYPE>  (627) 
EI-B

>  <INSTRUMENT>  (627) 
HITACHI M-80A

>  <ION MODE>  (627) 
P

>  <INCHIKEY>  (627) 
PLIKAWJENQZMHA-UHFFFAOYSA-N

>  <FORMULA>  (627) 
C6H7NO

>  <EXACT MASS>  (627) 
109.052763844

>  <MW>  (627) 
109

>  <ID>  (627) 
JP011263

>  <CONTRIBUTOR>  (627) 
University of Tokyo Team, {Faculty of Engineering, University of Tokyo

>  <COMMENT>  (627) 
SMILES=Nc(c1)ccc(O)c1
InChI=InChI=1S/C6H7NO/c7-5-1-3-6(8)4-2-5/h1-4,8H,7H2
computed SMILES=OC1=CC=C(N)C=C1
accession=JP011263
date=2016.01.19 (Created 2008.10.21, modified 2011.05.06)
author=TAJIMA S, GUNMA COLLEGE OF TECHNOLOGY
license=CC BY-NC-SA
exact mass=109.05276
ionization energy=70 eV
ion type=[M]+*
computed spectral entropy=2.8909974661554347
computed normalized entropy=0.8006267481274306
SPLASH=splash10-0pe9-9300000000-8ff47e2157f6fbfe6754
submitter=submitter = University of Tokyo Team (Faculty of Engineering, University of Tokyo)
MoNA Rating=3.75

>  <NUM PEAKS>  (627) 
37

>  <MASS SPECTRAL PEAKS>  (627) 
25 1.32
26 8.36
27 18.28
28 17.87
29 18.64
30 2.68
37 2.95
38 5.99
39 14.46
40 4.44
41 9.38
42 4.15
49 1.15
50 4.15
51 7.18
52 22.42
53 28.9
54 16.92
55 8.18
56 1.29
61 1.77
62 2.64
63 5.54
64 3.82
65 4.19
66 1.93
67 1
68 2.51
78 1.35
79 1.4
80 58.4
81 13.95
82 4.25
91 1.04
108 10.78
109 99.99
110 10.61

$$$$

     RDKit          2D

  8  8  0  0  0  0  0  0  0  0999 V2000
   -0.0000   -1.8800    0.0000 C   0  0  0  0  0  0  0  0  0  0  0  0
    1.3000   -1.1200    0.0000 C   0  0  0  0  0  0  0  0  0  0  0  0
   -1.3000   -1.1200    0.0000 C   0  0  0  0  0  0  0  0  0  0  0  0
   -0.0000    1.1200    0.0000 C   0  0  0  0  0  0  0  0  0  0  0  0
    1.3000    0.3800    0.0000 C   0  0  0  0  0  0  0  0  0  0  0  0
   -1.3000    0.3800    0.0000 C   0  0  0  0  0  0  0  0  0  0  0  0
    2.5967    1.1340    0.0000 N   0  0  0  0  0  0  0  0  0  0  0  0
   -2.5967    1.1340    0.0000 O   0  0  0  0  0  0  0  0  0  0  0  0
  2  1  2  0
  3  1  1  0
  5  2  1  0
  5  4  2  0
  6  3  2  0
  6  4  1  0
  7  5  1  0
  8  6  1  0
M  END
>  <NAME>  (628) 
META-AMINOPHENOL

>  <SYNONYMS>  (628) 
3-AMINOPHENOL

>  <SPECTRUM TYPE>  (628) 
MS1

>  <INSTRUMENT TYPE>  (628) 
EI-B

>  <INSTRUMENT>  (628) 
HITACHI M-80A

>  <ION MODE>  (628) 
P

>  <INCHIKEY>  (628) 
CWLKGDAVCFYWJK-UHFFFAOYSA-N

>  <FORMULA>  (628) 
C6H7NO

>  <EXACT MASS>  (628) 
109.052763844

>  <MW>  (628) 
109

>  <ID>  (628) 
JP011262

>  <CONTRIBUTOR>  (628) 
University of Tokyo Team, {Faculty of Engineering, University of Tokyo

>  <COMMENT>  (628) 
SMILES=Nc(c1)cc(O)cc1
InChI=InChI=1S/C6H7NO/c7-5-2-1-3-6(8)4-5/h1-4,8H,7H2
computed SMILES=OC1=CC=CC(N)=C1
accession=JP011262
date=2016.01.19 (Created 2008.10.21, modified 2011.05.06)
author=TAJIMA S, GUNMA COLLEGE OF TECHNOLOGY
license=CC BY-NC-SA
exact mass=109.05276
ionization energy=70 eV
ion type=[M]+*
computed spectral entropy=3.033585731452415
computed normalized entropy=0.8116249003424963
SPLASH=splash10-0pc0-9200000000-2adddd2c83a52d651775
submitter=submitter = University of Tokyo Team (Faculty of Engineering, University of Tokyo)
MoNA Rating=3.75

>  <NUM PEAKS>  (628) 
42

>  <MASS SPECTRAL PEAKS>  (628) 
26 4.08
27 11.25
28 8.16
29 7.86
30 1.57
37 15.11
38 11.06
39 19.75
40 8.76
41 12.59
42 7.68
43 1.64
44 1.32
49 1.99
50 7.19
51 9.46
52 15.92
53 25.2
54 12.24
55 5.05
61 3
62 4.59
63 8.84
64 6.65
65 6.65
66 4.05
67 1.76
68 7.6
69 1.92
70 2.04
76 1.24
78 2.32
79 2.01
80 70.92
81 25.15
82 7.09
91 2.61
92 1.25
94 1.03
108 4.63
109 99.99
110 7.77

$$$$

     RDKit          2D

 23 24  0  0  0  0  0  0  0  0999 V2000
   -3.1239    2.0857    0.0000 C   0  0  0  0  0  0  0  0  0  0  0  0
   -6.2899    0.7030    0.0000 C   0  0  0  0  0  0  0  0  0  0  0  0
    1.6322    2.2431    0.0000 C   0  0  0  0  0  0  0  0  0  0  0  0
   -1.6322    2.2431    0.0000 C   0  0  0  0  0  0  0  0  0  0  0  0
   -5.1777   -0.3035    0.0000 C   0  0  0  0  0  0  0  0  0  0  0  0
    5.3275   -7.1757    0.0000 C   0  0  0  0  0  0  0  0  0  0  0  0
    6.4407   -6.1690    0.0000 C   0  0  0  0  0  0  0  0  0  0  0  0
    3.8989   -6.7159    0.0000 C   0  0  0  0  0  0  0  0  0  0  0  0
    6.1252   -4.7026    0.0000 C   0  0  0  0  0  0  0  0  0  0  0  0
    3.5834   -5.2495    0.0000 C   0  0  0  0  0  0  0  0  0  0  0  0
    4.3810   -2.7764    0.0000 C   0  0  0  0  0  0  0  0  0  0  0  0
    0.7500    1.0300    0.0000 C   0  0  0  0  0  0  0  0  0  0  0  0
    4.6965   -4.2428    0.0000 C   0  0  0  0  0  0  0  0  0  0  0  0
   -0.7500    1.0300    0.0000 C   0  0  0  0  0  0  0  0  0  0  0  0
    1.2100   -0.3900    0.0000 C   0  0  0  0  0  0  0  0  0  0  0  0
   -1.2100   -0.3900    0.0000 C   0  0  0  0  0  0  0  0  0  0  0  0
    2.6377   -0.8500    0.0000 C   0  0  0  0  0  0  0  0  0  0  0  0
   -2.6377   -0.8500    0.0000 C   0  0  0  0  0  0  0  0  0  0  0  0
    0.0000   -1.2800    0.0000 N   0  0  0  0  0  0  0  0  0  0  0  0
    3.7499    0.1565    0.0000 O   0  0  0  0  0  0  0  0  0  0  0  0
   -2.9533   -2.3164    0.0000 O   0  0  0  0  0  0  0  0  0  0  0  0
   -3.7499    0.1565    0.0000 O   0  0  0  0  0  0  0  0  0  0  0  0
    2.9533   -2.3164    0.0000 O   0  0  0  0  0  0  0  0  0  0  0  0
  4  1  1  0
  5  2  1  0
  7  6  2  0
  8  6  1  0
  9  7  1  0
 10  8  2  0
 12  3  1  0
 13  9  2  0
 13 10  1  0
 13 11  1  0
 14  4  1  0
 14 12  1  0
 15 12  2  0
 16 14  2  0
 17 15  1  0
 18 16  1  0
 19 15  1  0
 19 16  1  0
 20 17  2  0
 21 18  2  0
 22  5  1  0
 22 18  1  0
 23 11  1  0
 23 17  1  0
M  END
>  <NAME>  (629) 
2-ETHOXYCARBONYL-3-ETHYL-4-METHYL-5-BENZYLOXYCARBONYL-PYRROLE

>  <SYNONYMS>  (629) 


>  <SPECTRUM TYPE>  (629) 
MS1

>  <INSTRUMENT TYPE>  (629) 
EI-B

>  <INSTRUMENT>  (629) 
JEOL JMS-DX-300

>  <ION MODE>  (629) 
P

>  <INCHIKEY>  (629) 
ACIHICHTZKRCGJ-UHFFFAOYSA-N

>  <FORMULA>  (629) 
C18H21NO4

>  <EXACT MASS>  (629) 
315.147058152

>  <MW>  (629) 
315

>  <ID>  (629) 
JP011210

>  <CONTRIBUTOR>  (629) 
University of Tokyo Team, {Faculty of Engineering, University of Tokyo

>  <COMMENT>  (629) 
SMILES=CCC1=C(NC(=C1C)C(=O)OCC2=CC=CC=C2)C(=O)OCC
InChI=InChI=1S/C18H21NO4/c1-4-14-12(3)15(19-16(14)18(21)22-5-2)17(20)23-11-13-9-7-6-8-10-13/h6-10,19H,4-5,11H2,1-3H3
computed SMILES=O=C(OCC=1C=CC=CC1)C=2NC(C(=O)OCC)=C(C2C)CC
accession=JP011210
date=2016.01.19 (Created 2008.10.21, modified 2011.05.06)
author=SAWADA M, THE INST. OF SCIENTIFIC AND INDUSTRIALRESEARCH OSAKA UNIV.
license=CC BY-NC-SA
exact mass=315.14706
ionization energy=70 eV
ion type=[M]+*
computed spectral entropy=3.962913470386099
computed normalized entropy=0.8532687184273698
SPLASH=splash10-01dl-9632000000-988b97d259dc54ba438e
submitter=submitter = University of Tokyo Team (Faculty of Engineering, University of Tokyo)
MoNA Rating=3.75

>  <NUM PEAKS>  (629) 
104

>  <MASS SPECTRAL PEAKS>  (629) 
39 21.6
40 4.4
41 17.8
42 2.7
43 8.9
44 28.2
45 3.6
50 3.3
51 12.9
52 8.7
53 13.3
54 3.6
55 7.6
56 2
57 5.1
63 7.6
64 4.9
65 50
66 9.1
67 8.2
68 3.8
69 10.3
71 1.8
76 1.8
77 34.4
78 12.9
79 37.1
80 8.4
81 8.2
82 1.4
83 1.8
89 9.1
90 8.4
91 93.8
92 39.6
93 4.7
94 2.2
95 4.8
96 1.3
97 3.6
104 8.2
105 10.4
106 15.8
107 10.4
108 4.2
109 1.8
119 4.4
120 2.7
121 1.4
122 1.4
123 1.6
125 6.4
131 1.1
132 1.8
133 7.1
134 8.4
135 6.9
136 3.6
137 3.6
146 1.6
147 1.3
148 1.3
149 3.8
150 1.5
151 3.6
152 12
153 9.3
154 1.9
160 16.9
161 2.7
162 40
163 5.9
164 6.7
165 2
166 2.9
167 2.7
168 1.4
178 55.6
179 10.2
180 12.4
181 28.4
182 15.3
183 3.3
192 1.8
196 6.7
206 5.6
208 31.6
209 7.1
210 2.9
224 93.1
225 17.6
226 4.2
242 2.9
254 8.4
255 1.6
268 7.3
269 4.7
270 13.1
271 3.1
286 8.4
287 1.8
300 8.4
315 99.99
316 29.6

$$$$

     RDKit          2D

 27 30  0  0  0  0  0  0  0  0999 V2000
    5.1971   -5.2500    0.0000 C   0  0  0  0  0  0  0  0  0  0  0  0
    3.8982    6.0002    0.0000 C   0  0  0  0  0  0  0  0  0  0  0  0
    5.1976   -3.7492    0.0000 C   0  0  0  0  0  0  0  0  0  0  0  0
    3.8976   -6.0008    0.0000 C   0  0  0  0  0  0  0  0  0  0  0  0
    2.5983    5.2500    0.0000 C   0  0  0  0  0  0  0  0  0  0  0  0
    5.1983    5.2504    0.0000 C   0  0  0  0  0  0  0  0  0  0  0  0
    3.8986   -2.9992    0.0000 C   0  0  0  0  0  0  0  0  0  0  0  0
    2.5986   -5.2508    0.0000 C   0  0  0  0  0  0  0  0  0  0  0  0
    2.5986    3.7500    0.0000 C   0  0  0  0  0  0  0  0  0  0  0  0
    5.1986    3.7504    0.0000 C   0  0  0  0  0  0  0  0  0  0  0  0
   -2.6000    0.7500    0.0000 C   0  0  0  0  0  0  0  0  0  0  0  0
   -1.3000    1.5000    0.0000 C   0  0  0  0  0  0  0  0  0  0  0  0
    1.3000   -3.0000    0.0000 C   0  0  0  0  0  0  0  0  0  0  0  0
    3.8989    1.5002    0.0000 C   0  0  0  0  0  0  0  0  0  0  0  0
    2.5990   -3.7500    0.0000 C   0  0  0  0  0  0  0  0  0  0  0  0
    3.8987    3.0002    0.0000 C   0  0  0  0  0  0  0  0  0  0  0  0
   -2.6000   -0.7500    0.0000 C   0  0  0  0  0  0  0  0  0  0  0  0
    0.0000   -0.7500    0.0000 C   0  0  0  0  0  0  0  0  0  0  0  0
    1.3000    1.5000    0.0000 C   0  0  0  0  0  0  0  0  0  0  0  0
    2.6000   -0.7500    0.0000 C   0  0  0  0  0  0  0  0  0  0  0  0
   -1.3000   -1.5000    0.0000 N   0  0  0  0  0  0  0  0  0  0  0  0
    0.0000    0.7500    0.0000 N   0  0  0  0  0  0  0  0  0  0  0  0
    1.3000   -1.5000    0.0000 N   0  0  0  0  0  0  0  0  0  0  0  0
    2.6000    0.7500    0.0000 N   0  0  0  0  0  0  0  0  0  0  0  0
   -3.8989   -1.5002    0.0000 O   0  0  0  0  0  0  0  0  0  0  0  0
    1.3000    3.0000    0.0000 O   0  0  0  0  0  0  0  0  0  0  0  0
    3.8989   -1.5002    0.0000 O   0  0  0  0  0  0  0  0  0  0  0  0
  3  1  2  0
  4  1  1  0
  5  2  2  0
  6  2  1  0
  7  3  1  0
  8  4  2  0
  9  5  1  0
 10  6  2  0
 12 11  2  0
 15  7  2  0
 15  8  1  0
 15 13  1  0
 16  9  2  0
 16 10  1  0
 16 14  1  0
 17 11  1  0
 21 17  1  0
 21 18  2  0
 22 12  1  0
 22 18  1  0
 22 19  1  0
 23 13  1  0
 23 18  1  0
 23 20  1  0
 24 14  1  0
 24 19  1  0
 24 20  1  0
 25 17  2  0
 26 19  2  0
 27 20  2  0
M  END
>  <NAME>  (630) 
1,3-DIBENZYL-2H-PYRIMIDO(1,2-A)(1,3,5)TRIAZINE-2,4,8(1H,3H)-TRIONE

>  <SYNONYMS>  (630) 


>  <SPECTRUM TYPE>  (630) 
MS1

>  <INSTRUMENT TYPE>  (630) 
EI-B

>  <INSTRUMENT>  (630) 
JEOL JMS-DX-300

>  <ION MODE>  (630) 
P

>  <INCHIKEY>  (630) 
MTHWPJNAKAQTFK-UHFFFAOYSA-N

>  <FORMULA>  (630) 
C20H16N4O3

>  <EXACT MASS>  (630) 
360.12224037199996

>  <MW>  (630) 
360

>  <ID>  (630) 
JP011209

>  <CONTRIBUTOR>  (630) 
University of Tokyo Team, {Faculty of Engineering, University of Tokyo

>  <COMMENT>  (630) 
SMILES=c(c4)ccc(c4)CN(C(=O)1)C(=O)N(C([H])=3)C(=NC(=O)C([H])3)N(Cc(c2)cccc2)1
InChI=InChI=1S/C20H16N4O3/c25-17-11-12-22-18(21-17)23(13-15-7-3-1-4-8-15)20(27)24(19(22)26)14-16-9-5-2-6-10-16/h1-12H,13-14H2
computed SMILES=O=C1N=C2N(C=C1)C(=O)N(C(=O)N2CC=3C=CC=CC3)CC=4C=CC=CC4
license=CC BY-NC-SA
exact mass=360.12224
accession=JP011209
date=2016.01.19 (Created 2008.10.21, modified 2011.05.06)
author=SAWADA M, THE INST. OF SCIENTIFIC AND INDUSTRIALRESEARCH OSAKA UNIV.
ionization energy=70 eV
ion type=[M]+*
computed spectral entropy=3.2993871672618056
computed normalized entropy=0.7994377840511626
SPLASH=splash10-03xu-9524000000-ecbb0efd09e12498106f
submitter=submitter = University of Tokyo Team (Faculty of Engineering, University of Tokyo)
MoNA Rating=3.75

>  <NUM PEAKS>  (630) 
62

>  <MASS SPECTRAL PEAKS>  (630) 
39 8.4
40 6.6
41 4.9
43 2.7
44 43.6
45 1.5
50 1.7
51 6.9
52 1.5
53 2.2
55 2
56 1.5
57 1.3
63 4
64 1.3
65 27.7
66 1.8
67 1.8
68 4
69 4.9
70 24.6
71 1.3
77 14.8
78 4
79 1.7
89 6.4
90 4
91 67.5
92 10.6
95 10.8
96 15.5
97 1.4
103 2.2
104 10.2
105 4.6
106 3.5
120 1.5
129 1.8
131 12.6
132 67.7
133 10.8
138 1.8
139 2
158 10.6
159 1.4
163 11.7
164 4
170 1.5
171 2.9
182 1.8
198 17.3
199 4
200 3
226 3.1
227 1.3
255 1.5
256 6
269 52.2
270 11.9
359 2.7
360 99.99
361 39.4

$$$$

     RDKit          2D

 13 14  0  0  0  0  0  0  0  0999 V2000
   -2.6000    0.7500    0.0000 C   0  0  0  0  0  0  0  0  0  0  0  0
   -1.3000    1.5000    0.0000 C   0  0  0  0  0  0  0  0  0  0  0  0
   -2.6000   -0.7500    0.0000 C   0  0  0  0  0  0  0  0  0  0  0  0
    0.0000   -0.7500    0.0000 C   0  0  0  0  0  0  0  0  0  0  0  0
    2.6000   -0.7500    0.0000 C   0  0  0  0  0  0  0  0  0  0  0  0
    1.3000    1.5000    0.0000 C   0  0  0  0  0  0  0  0  0  0  0  0
   -1.3000   -1.5000    0.0000 N   0  0  0  0  0  0  0  0  0  0  0  0
    1.3000   -1.5000    0.0000 N   0  0  0  0  0  0  0  0  0  0  0  0
    2.6000    0.7500    0.0000 N   0  0  0  0  0  0  0  0  0  0  0  0
    0.0000    0.7500    0.0000 N   0  0  0  0  0  0  0  0  0  0  0  0
   -3.8989   -1.5002    0.0000 O   0  0  0  0  0  0  0  0  0  0  0  0
    3.8989   -1.5002    0.0000 O   0  0  0  0  0  0  0  0  0  0  0  0
    1.3000    3.0000    0.0000 O   0  0  0  0  0  0  0  0  0  0  0  0
  2  1  2  0
  3  1  1  0
  7  3  2  0
  7  4  1  0
  8  4  2  0
  8  5  1  0
  9  5  2  0
  9  6  1  0
 10  2  1  0
 10  4  1  0
 10  6  1  0
 11  3  1  0
 12  5  1  0
 13  6  2  0
M  END
>  <NAME>  (631) 
2H-PYRIMIDO(1,2-A)(1,3,5)TRIAZINE-2,4,8(1H,3H)-TRIONE

>  <SYNONYMS>  (631) 


>  <SPECTRUM TYPE>  (631) 
MS1

>  <INSTRUMENT TYPE>  (631) 
EI-B

>  <INSTRUMENT>  (631) 
JEOL JMS-DX-300

>  <ION MODE>  (631) 
P

>  <INCHIKEY>  (631) 
KRKHYEGWNVQRIP-UHFFFAOYSA-N

>  <FORMULA>  (631) 
C6H4N4O3

>  <EXACT MASS>  (631) 
180.02833998799997

>  <MW>  (631) 
180

>  <ID>  (631) 
JP011208

>  <CONTRIBUTOR>  (631) 
University of Tokyo Team, {Faculty of Engineering, University of Tokyo

>  <COMMENT>  (631) 
SMILES=O=C(C=2)N=C(N1)N(C2)C(=O)NC(=O)1
InChI=InChI=1S/C6H4N4O3/c11-3-1-2-10-4(7-3)8-5(12)9-6(10)13/h1-2H,(H2,7,8,9,11,12,13)
computed SMILES=O=C1N=C(O)N=C2N=C(O)C=CN12
accession=JP011208
date=2016.01.19 (Created 2008.10.21, modified 2011.05.06)
author=SAWADA M, THE INST. OF SCIENTIFIC AND INDUSTRIALRESEARCH OSAKA UNIV.
license=CC BY-NC-SA
exact mass=180.02834
ionization energy=70 eV
ion type=[M]+*
computed spectral entropy=2.854532199428061
computed normalized entropy=0.7847325325327208
SPLASH=splash10-000f-9700000000-c8c4e58e68f85992a425
submitter=submitter = University of Tokyo Team (Faculty of Engineering, University of Tokyo)
MoNA Rating=3.75

>  <NUM PEAKS>  (631) 
38

>  <MASS SPECTRAL PEAKS>  (631) 
38 2.3
39 4.9
40 30.6
41 20.8
42 13.5
43 32.7
44 41.6
52 2
53 6.7
54 8.4
55 1.7
56 1
65 1.4
66 2
67 6.2
68 10
69 63
70 12
81 13.6
82 1.8
83 1
93 1.7
94 4
95 11.7
96 5.7
108 2.4
109 68.6
110 5.7
111 2.9
129 2.5
136 1.1
137 99.99
138 11.9
139 1.7
152 2.9
179 1
180 46.7
181 5

$$$$

     RDKit          2D

  9  9  0  0  0  0  0  0  0  0999 V2000
    4.2222   -0.1879    0.0000 C   0  0  0  0  0  0  0  0  0  0  0  0
   -0.9749    1.3133    0.0000 C   0  0  0  0  0  0  0  0  0  0  0  0
    0.3242    2.0633    0.0000 C   0  0  0  0  0  0  0  0  0  0  0  0
   -0.9744   -0.1875    0.0000 C   0  0  0  0  0  0  0  0  0  0  0  0
    1.6242   -0.1883    0.0000 C   0  0  0  0  0  0  0  0  0  0  0  0
    1.6237    1.3125    0.0000 N   0  0  0  0  0  0  0  0  0  0  0  0
    0.3251   -0.9383    0.0000 N   0  0  0  0  0  0  0  0  0  0  0  0
   -2.2734   -0.9375    0.0000 O   0  0  0  0  0  0  0  0  0  0  0  0
    2.9233   -0.9381    0.0000 S   0  0  0  0  0  0  0  0  0  0  0  0
  3  2  2  0
  4  2  1  0
  6  3  1  0
  6  5  2  0
  7  4  2  0
  7  5  1  0
  8  4  1  0
  9  1  1  0
  9  5  1  0
M  END
>  <NAME>  (632) 
2-METHYLTHIO-4-PYRIMIDINONE

>  <SYNONYMS>  (632) 


>  <SPECTRUM TYPE>  (632) 
MS1

>  <INSTRUMENT TYPE>  (632) 
EI-B

>  <INSTRUMENT>  (632) 
JEOL JMS-DX-300

>  <ION MODE>  (632) 
P

>  <INCHIKEY>  (632) 
UYHSQVMHSFXUOA-UHFFFAOYSA-N

>  <FORMULA>  (632) 
C5H6N2OS

>  <EXACT MASS>  (632) 
142.020083812

>  <MW>  (632) 
142

>  <ID>  (632) 
JP011207

>  <CONTRIBUTOR>  (632) 
University of Tokyo Team, {Faculty of Engineering, University of Tokyo

>  <COMMENT>  (632) 
SMILES=O=C(C=1)NC(=NC1)SC
InChI=InChI=1S/C5H6N2OS/c1-9-5-6-3-2-4(8)7-5/h2-3H,1H3,(H,6,7,8)
computed SMILES=OC1=NC(=NC=C1)SC
accession=JP011207
date=2016.01.19 (Created 2008.10.21, modified 2011.05.06)
author=SAWADA M, THE INST. OF SCIENTIFIC AND INDUSTRIALRESEARCH OSAKA UNIV.
license=CC BY-NC-SA
exact mass=142.02008
ionization energy=70 eV
ion type=[M]+*
computed spectral entropy=3.2195146857079204
computed normalized entropy=0.81883455332101
SPLASH=splash10-0007-9300000000-c82c88cd6b113a969baf
submitter=submitter = University of Tokyo Team (Faculty of Engineering, University of Tokyo)
MoNA Rating=3.75

>  <NUM PEAKS>  (632) 
51

>  <MASS SPECTRAL PEAKS>  (632) 
38 1.7
39 4.8
40 45.4
41 12
42 8.3
43 8
44 10
45 20.9
46 11.4
47 11.9
48 1.6
51 1.6
52 3
53 12.4
54 2.2
55 3.5
56 1.2
57 3.9
58 3.2
59 5.1
60 1.7
66 1.3
67 19.2
68 18.6
69 24.7
70 17.1
71 2.6
72 4.4
73 6.6
74 9.2
75 2.2
81 3.7
82 2.4
83 2.3
84 1.4
86 1.4
95 58.1
96 25.4
97 7
98 1.3
99 1.1
100 3.4
101 4.2
109 2.4
113 2.3
114 9.2
115 1.6
141 7.1
142 99.99
143 10.8
144 5.7

$$$$

     RDKit          2D

 31 35  0  0  0  0  0  0  0  0999 V2000
   -6.0271   -6.0500    0.0000 C   0  0  0  0  0  0  0  0  0  0  0  0
   -4.7282    5.2002    0.0000 C   0  0  0  0  0  0  0  0  0  0  0  0
   -4.7276   -6.8008    0.0000 C   0  0  0  0  0  0  0  0  0  0  0  0
   -6.0276   -4.5492    0.0000 C   0  0  0  0  0  0  0  0  0  0  0  0
   -6.0283    4.4504    0.0000 C   0  0  0  0  0  0  0  0  0  0  0  0
   -3.4283    4.4500    0.0000 C   0  0  0  0  0  0  0  0  0  0  0  0
    3.0600    2.2000    0.0000 C   0  0  0  0  0  0  0  0  0  0  0  0
    1.7600    2.9500    0.0000 C   0  0  0  0  0  0  0  0  0  0  0  0
   -3.4286   -6.0508    0.0000 C   0  0  0  0  0  0  0  0  0  0  0  0
   -4.7286   -3.7992    0.0000 C   0  0  0  0  0  0  0  0  0  0  0  0
   -6.0286    2.9504    0.0000 C   0  0  0  0  0  0  0  0  0  0  0  0
   -3.4286    2.9500    0.0000 C   0  0  0  0  0  0  0  0  0  0  0  0
    3.0600    0.7000    0.0000 C   0  0  0  0  0  0  0  0  0  0  0  0
    0.4600    2.2000    0.0000 C   0  0  0  0  0  0  0  0  0  0  0  0
    0.4600   -2.3000    0.0000 C   0  0  0  0  0  0  0  0  0  0  0  0
   -2.1300   -3.8000    0.0000 C   0  0  0  0  0  0  0  0  0  0  0  0
   -4.7289    0.7002    0.0000 C   0  0  0  0  0  0  0  0  0  0  0  0
   -3.4290   -4.5500    0.0000 C   0  0  0  0  0  0  0  0  0  0  0  0
   -4.7287    2.2002    0.0000 C   0  0  0  0  0  0  0  0  0  0  0  0
    1.7600   -0.0500    0.0000 C   0  0  0  0  0  0  0  0  0  0  0  0
    0.4600    0.7000    0.0000 C   0  0  0  0  0  0  0  0  0  0  0  0
    1.7600   -1.5500    0.0000 C   0  0  0  0  0  0  0  0  0  0  0  0
   -0.8300   -1.5500    0.0000 C   0  0  0  0  0  0  0  0  0  0  0  0
   -3.4300   -1.5500    0.0000 C   0  0  0  0  0  0  0  0  0  0  0  0
   -2.1300    0.7000    0.0000 C   0  0  0  0  0  0  0  0  0  0  0  0
   -2.1300   -2.3000    0.0000 N   0  0  0  0  0  0  0  0  0  0  0  0
   -3.4300   -0.0500    0.0000 N   0  0  0  0  0  0  0  0  0  0  0  0
   -0.8300   -0.0500    0.0000 N   0  0  0  0  0  0  0  0  0  0  0  0
    3.0589   -2.3002    0.0000 O   0  0  0  0  0  0  0  0  0  0  0  0
   -4.7289   -2.3002    0.0000 O   0  0  0  0  0  0  0  0  0  0  0  0
   -2.1300    2.2000    0.0000 O   0  0  0  0  0  0  0  0  0  0  0  0
  3  1  2  0
  4  1  1  0
  5  2  2  0
  6  2  1  0
  8  7  2  0
  9  3  1  0
 10  4  2  0
 11  5  1  0
 12  6  2  0
 13  7  1  0
 14  8  1  0
 18  9  2  0
 18 10  1  0
 18 16  1  0
 19 11  2  0
 19 12  1  0
 19 17  1  0
 20 13  2  0
 21 14  2  0
 21 20  1  0
 22 15  1  0
 22 20  1  0
 23 15  2  0
 26 16  1  0
 26 23  1  0
 26 24  1  0
 27 17  1  0
 27 24  1  0
 27 25  1  0
 28 21  1  0
 28 23  1  0
 28 25  1  0
 29 22  2  0
 30 24  2  0
 31 25  2  0
M  END
>  <NAME>  (633) 
2,4-DIBENZYL-1H-(1,3,5)TRIAZINO(1,2-A)QUINOLINE-1,3,6(2H,4H)-TRIONE

>  <SYNONYMS>  (633) 


>  <SPECTRUM TYPE>  (633) 
MS1

>  <INSTRUMENT TYPE>  (633) 
EI-B

>  <INSTRUMENT>  (633) 
JEOL JMS-DX-300

>  <ION MODE>  (633) 
P

>  <INCHIKEY>  (633) 
YOQHFMHTERFQNX-UHFFFAOYSA-N

>  <FORMULA>  (633) 
C25H19N3O3

>  <EXACT MASS>  (633) 
409.14264146799997

>  <MW>  (633) 
409

>  <ID>  (633) 
JP011206

>  <CONTRIBUTOR>  (633) 
University of Tokyo Team, {Faculty of Engineering, University of Tokyo

>  <COMMENT>  (633) 
SMILES=c(c5)ccc(c5)CN(C(=O)1)C(=O)N(c43)C(=CC(=O)c(cccc4)3)N(Cc(c2)cccc2)1
InChI=InChI=1S/C25H19N3O3/c29-22-15-23-26(16-18-9-3-1-4-10-18)24(30)27(17-19-11-5-2-6-12-19)25(31)28(23)21-14-8-7-13-20(21)22/h1-15H,16-17H2
computed SMILES=O=C1C=C2N(C(=O)N(C(=O)N2CC=3C=CC=CC3)CC=4C=CC=CC4)C=5C=CC=CC15
accession=JP011206
date=2016.01.19 (Created 2008.10.21, modified 2011.05.06)
author=SAWADA M, THE INST. OF SCIENTIFIC AND INDUSTRIALRESEARCH OSAKA UNIV.
license=CC BY-NC-SA
exact mass=409.14264
ionization energy=70 eV
ion type=[M]+*
computed spectral entropy=3.636462645716146
computed normalized entropy=0.8081369907028194
SPLASH=splash10-0006-9210200000-0e52d526faf4515a7390
submitter=submitter = University of Tokyo Team (Faculty of Engineering, University of Tokyo)
MoNA Rating=3.75

>  <NUM PEAKS>  (633) 
90

>  <MASS SPECTRAL PEAKS>  (633) 
39 11.4
40 10.3
41 12.7
42 2.6
43 12.5
44 63.3
45 7.3
50 2.2
51 6.8
52 1.8
53 1.3
54 1.1
55 8.1
56 3.5
57 7.3
60 1.8
62 1.3
63 6.6
64 2.4
65 46.2
66 3.3
67 2.9
68 1.5
69 7
70 7
71 3.5
73 1.8
75 1.5
76 3.7
77 13.2
78 4.4
79 1.3
81 3.3
82 1.5
83 3.5
84 1.4
85 1.8
88 2.6
89 11.2
90 10.5
91 99.99
92 31.2
93 1.8
95 1.7
96 1.4
97 2.6
98 1.1
102 5.1
103 3.9
104 6.8
105 6.1
111 1.3
114 1.5
115 3.7
116 2.4
129 7.9
130 3.7
132 32.3
133 7.9
143 1.5
144 1.6
146 5.9
157 9
158 2
165 1.5
180 3.1
181 6.2
186 3.3
204 1.3
218 1.3
219 2.9
220 1.5
231 1.1
232 2.6
247 8.1
248 3
275 3.5
276 4.8
277 20.2
278 4.6
304 4
305 2.4
318 11.8
319 3.5
339 3.3
381 1.7
392 3.6
408 4
409 92.1
410 38.7

$$$$

     RDKit          2D

  9  9  0  0  0  0  0  0  0  0999 V2000
    0.9744   -2.8133    0.0000 C   0  0  0  0  0  0  0  0  0  0  0  0
   -0.3254    0.9383    0.0000 C   0  0  0  0  0  0  0  0  0  0  0  0
    0.9737    1.6883    0.0000 C   0  0  0  0  0  0  0  0  0  0  0  0
   -0.3249   -0.5625    0.0000 C   0  0  0  0  0  0  0  0  0  0  0  0
    2.2737   -0.5633    0.0000 C   0  0  0  0  0  0  0  0  0  0  0  0
    2.2732    0.9375    0.0000 N   0  0  0  0  0  0  0  0  0  0  0  0
    0.9746   -1.3133    0.0000 N   0  0  0  0  0  0  0  0  0  0  0  0
   -1.6239   -1.3125    0.0000 O   0  0  0  0  0  0  0  0  0  0  0  0
    3.5728   -1.3131    0.0000 O   0  0  0  0  0  0  0  0  0  0  0  0
  3  2  2  0
  4  2  1  0
  6  3  1  0
  6  5  2  0
  7  1  1  0
  7  4  1  0
  7  5  1  0
  8  4  2  0
  9  5  1  0
M  END
>  <NAME>  (634) 
3-METHYLURACIL

>  <SYNONYMS>  (634) 


>  <SPECTRUM TYPE>  (634) 
MS1

>  <INSTRUMENT TYPE>  (634) 
EI-B

>  <INSTRUMENT>  (634) 
JEOL JMS-DX-300

>  <ION MODE>  (634) 
P

>  <INCHIKEY>  (634) 
VPLZGVOSFFCKFC-UHFFFAOYSA-N

>  <FORMULA>  (634) 
C5H6N2O2

>  <EXACT MASS>  (634) 
126.042927432

>  <MW>  (634) 
126

>  <ID>  (634) 
JP011205

>  <CONTRIBUTOR>  (634) 
University of Tokyo Team, {Faculty of Engineering, University of Tokyo

>  <COMMENT>  (634) 
SMILES=O=C(C=1)N(C)C(=O)NC1
InChI=InChI=1S/C5H6N2O2/c1-7-4(8)2-3-6-5(7)9/h2-3H,1H3,(H,6,9)
computed SMILES=O=C1C=CN=C(O)N1C
accession=JP011205
date=2016.01.19 (Created 2008.10.21, modified 2011.05.06)
author=SAWADA M, THE INST. OF SCIENTIFIC AND INDUSTRIALRESEARCH OSAKA UNIV.
license=CC BY-NC-SA
exact mass=126.04293
ionization energy=70 eV
ion type=[M]+*
computed spectral entropy=2.5127390670048975
computed normalized entropy=0.7540770860047783
SPLASH=splash10-00ou-9300000000-551e0e5d025fd3c413b3
submitter=submitter = University of Tokyo Team (Faculty of Engineering, University of Tokyo)
MoNA Rating=3.75

>  <NUM PEAKS>  (634) 
28

>  <MASS SPECTRAL PEAKS>  (634) 
38 1.6
39 4
40 28.6
41 28.2
42 33.4
43 7.9
44 4.4
52 1
53 3.3
54 2.1
55 7.4
56 8.6
57 3.6
58 4.7
67 1.7
68 13.4
69 74.9
70 12.9
71 1.8
81 3.1
82 3.2
83 1.9
84 1.8
96 5.7
97 7.3
98 5
126 99.99
127 7.3

$$$$

     RDKit          2D

 18 20  0  0  0  0  0  0  0  0999 V2000
    4.0657    3.5303    0.0000 C   0  0  0  0  0  0  0  0  0  0  0  0
   -5.5657   -2.0303    0.0000 C   0  0  0  0  0  0  0  0  0  0  0  0
    4.0662    2.0295    0.0000 C   0  0  0  0  0  0  0  0  0  0  0  0
    2.7662    4.2812    0.0000 C   0  0  0  0  0  0  0  0  0  0  0  0
   -5.5662   -0.5295    0.0000 C   0  0  0  0  0  0  0  0  0  0  0  0
   -4.2662   -2.7812    0.0000 C   0  0  0  0  0  0  0  0  0  0  0  0
    2.7671    1.2795    0.0000 C   0  0  0  0  0  0  0  0  0  0  0  0
    1.4671    3.5312    0.0000 C   0  0  0  0  0  0  0  0  0  0  0  0
   -4.2671    0.2205    0.0000 C   0  0  0  0  0  0  0  0  0  0  0  0
   -2.9671   -2.0312    0.0000 C   0  0  0  0  0  0  0  0  0  0  0  0
    1.4676    2.0303    0.0000 C   0  0  0  0  0  0  0  0  0  0  0  0
   -2.9676   -0.5303    0.0000 C   0  0  0  0  0  0  0  0  0  0  0  0
   -1.2803    1.6686    0.0000 C   0  0  0  0  0  0  0  0  0  0  0  0
   -0.2197   -0.1686    0.0000 C   0  0  0  0  0  0  0  0  0  0  0  0
    0.1686    1.2803    0.0000 N   0  0  0  0  0  0  0  0  0  0  0  0
   -1.6686    0.2197    0.0000 N   0  0  0  0  0  0  0  0  0  0  0  0
   -2.0303    2.9676    0.0000 O   0  0  0  0  0  0  0  0  0  0  0  0
    0.5303   -1.4676    0.0000 O   0  0  0  0  0  0  0  0  0  0  0  0
  3  1  2  0
  4  1  1  0
  5  2  2  0
  6  2  1  0
  7  3  1  0
  8  4  2  0
  9  5  1  0
 10  6  2  0
 11  7  2  0
 11  8  1  0
 12  9  2  0
 12 10  1  0
 15 11  1  0
 15 13  1  0
 15 14  1  0
 16 12  1  0
 16 13  1  0
 16 14  1  0
 17 13  2  0
 18 14  2  0
M  END
>  <NAME>  (635) 
PHENYLISOCYANATE-CYCLICDIMER

>  <SYNONYMS>  (635) 


>  <SPECTRUM TYPE>  (635) 
MS1

>  <INSTRUMENT TYPE>  (635) 
EI-B

>  <INSTRUMENT>  (635) 
JEOL JMS-DX-300

>  <ION MODE>  (635) 
P

>  <INCHIKEY>  (635) 
ZDIXQAFFNKGCNG-UHFFFAOYSA-N

>  <FORMULA>  (635) 
C14H10N2O2

>  <EXACT MASS>  (635) 
238.07422756

>  <MW>  (635) 
238

>  <ID>  (635) 
JP011204

>  <CONTRIBUTOR>  (635) 
University of Tokyo Team, {Faculty of Engineering, University of Tokyo

>  <COMMENT>  (635) 
SMILES=c(c3)ccc(c3)n(c(=O)1)c(=O)n(c(c2)cccc2)1
InChI=InChI=1S/C14H10N2O2/c17-13-15(11-7-3-1-4-8-11)14(18)16(13)12-9-5-2-6-10-12/h1-10H
computed SMILES=O=C1N(C=2C=CC=CC2)C(=O)N1C=3C=CC=CC3
accession=JP011204
date=2016.01.19 (Created 2008.10.21, modified 2011.05.06)
author=SAWADA M, THE INST. OF SCIENTIFIC AND INDUSTRIALRESEARCH OSAKA UNIV.
license=CC BY-NC-SA
exact mass=238.07423
ionization energy=70 eV
ion type=[M]+*
computed spectral entropy=2.510036010551083
computed normalized entropy=0.7703995204744094
SPLASH=splash10-02tc-9410000000-612ce45cf16713ce5ef9
submitter=submitter = University of Tokyo Team (Faculty of Engineering, University of Tokyo)
MoNA Rating=3.75

>  <NUM PEAKS>  (635) 
26

>  <MASS SPECTRAL PEAKS>  (635) 
37 2.9
38 9
39 13
40 6.7
41 6.8
44 2.3
50 4.7
51 10.2
52 6.2
61 1.1
62 2.8
63 19.1
64 45.7
65 10.9
66 1.1
76 1.3
77 3.9
90 7.1
91 71.3
92 7.2
93 1
119 99.99
120 26.5
121 1.7
238 28.5
239 5.8

$$$$

     RDKit          2D

 27 30  0  0  0  0  0  0  0  0999 V2000
    5.1968   -3.0006    0.0000 C   0  0  0  0  0  0  0  0  0  0  0  0
   -5.1968   -3.0006    0.0000 C   0  0  0  0  0  0  0  0  0  0  0  0
    0.0000    6.0000    0.0000 C   0  0  0  0  0  0  0  0  0  0  0  0
    3.8971   -3.7512    0.0000 C   0  0  0  0  0  0  0  0  0  0  0  0
    5.1975   -1.4998    0.0000 C   0  0  0  0  0  0  0  0  0  0  0  0
   -5.1975   -1.4998    0.0000 C   0  0  0  0  0  0  0  0  0  0  0  0
   -3.8971   -3.7512    0.0000 C   0  0  0  0  0  0  0  0  0  0  0  0
    1.3000    5.2500    0.0000 C   0  0  0  0  0  0  0  0  0  0  0  0
   -1.3000    5.2500    0.0000 C   0  0  0  0  0  0  0  0  0  0  0  0
    2.5982   -3.0010    0.0000 C   0  0  0  0  0  0  0  0  0  0  0  0
    3.8986   -0.7496    0.0000 C   0  0  0  0  0  0  0  0  0  0  0  0
   -3.8986   -0.7496    0.0000 C   0  0  0  0  0  0  0  0  0  0  0  0
   -2.5982   -3.0010    0.0000 C   0  0  0  0  0  0  0  0  0  0  0  0
    1.3000    3.7500    0.0000 C   0  0  0  0  0  0  0  0  0  0  0  0
   -1.3000    3.7500    0.0000 C   0  0  0  0  0  0  0  0  0  0  0  0
    2.5989   -1.5002    0.0000 C   0  0  0  0  0  0  0  0  0  0  0  0
   -2.5989   -1.5002    0.0000 C   0  0  0  0  0  0  0  0  0  0  0  0
    0.0000    3.0000    0.0000 C   0  0  0  0  0  0  0  0  0  0  0  0
   -0.0000   -1.5000    0.0000 C   0  0  0  0  0  0  0  0  0  0  0  0
    1.3000    0.7500    0.0000 C   0  0  0  0  0  0  0  0  0  0  0  0
   -1.3000    0.7500    0.0000 C   0  0  0  0  0  0  0  0  0  0  0  0
    1.3000   -0.7500    0.0000 N   0  0  0  0  0  0  0  0  0  0  0  0
   -1.3000   -0.7500    0.0000 N   0  0  0  0  0  0  0  0  0  0  0  0
    0.0000    1.5000    0.0000 N   0  0  0  0  0  0  0  0  0  0  0  0
   -0.0000   -3.0000    0.0000 O   0  0  0  0  0  0  0  0  0  0  0  0
    2.5989    1.5002    0.0000 O   0  0  0  0  0  0  0  0  0  0  0  0
   -2.5989    1.5002    0.0000 O   0  0  0  0  0  0  0  0  0  0  0  0
  4  1  2  0
  5  1  1  0
  6  2  2  0
  7  2  1  0
  8  3  2  0
  9  3  1  0
 10  4  1  0
 11  5  2  0
 12  6  1  0
 13  7  2  0
 14  8  1  0
 15  9  2  0
 16 10  2  0
 16 11  1  0
 17 12  2  0
 17 13  1  0
 18 14  2  0
 18 15  1  0
 22 16  1  0
 22 19  1  0
 22 20  1  0
 23 17  1  0
 23 19  1  0
 23 21  1  0
 24 18  1  0
 24 20  1  0
 24 21  1  0
 25 19  2  0
 26 20  2  0
 27 21  2  0
M  END
>  <NAME>  (636) 
PHENYLISOCYANATE-CYCLICTRIMER

>  <SYNONYMS>  (636) 


>  <SPECTRUM TYPE>  (636) 
MS1

>  <INSTRUMENT TYPE>  (636) 
EI-B

>  <INSTRUMENT>  (636) 
JEOL JMS-DX-300

>  <ION MODE>  (636) 
P

>  <INCHIKEY>  (636) 
YEACGXMAEGBJSM-UHFFFAOYSA-N

>  <FORMULA>  (636) 
C21H15N3O3

>  <EXACT MASS>  (636) 
357.11134134

>  <MW>  (636) 
357

>  <ID>  (636) 
JP011203

>  <CONTRIBUTOR>  (636) 
University of Tokyo Team, {Faculty of Engineering, University of Tokyo

>  <COMMENT>  (636) 
SMILES=c(c4)ccc(c4)N(C(=O)1)C(=O)N(c(c3)cccc3)C(=O)N(c(c2)cccc2)1
InChI=InChI=1S/C21H15N3O3/c25-19-22(16-10-4-1-5-11-16)20(26)24(18-14-8-3-9-15-18)21(27)23(19)17-12-6-2-7-13-17/h1-15H
computed SMILES=O=C1N(C=2C=CC=CC2)C(=O)N(C=3C=CC=CC3)C(=O)N1C=4C=CC=CC4
accession=JP011203
date=2016.01.19 (Created 2008.10.21, modified 2011.05.06)
author=SAWADA M, THE INST. OF SCIENTIFIC AND INDUSTRIALRESEARCH OSAKA UNIV.
license=CC BY-NC-SA
exact mass=357.11134
ionization energy=70 eV
ion type=[M]+*
computed spectral entropy=2.3621697765795586
computed normalized entropy=0.7088909967459825
SPLASH=splash10-066r-7904000000-0de98e602c0b4482c406
submitter=submitter = University of Tokyo Team (Faculty of Engineering, University of Tokyo)
MoNA Rating=3.75

>  <NUM PEAKS>  (636) 
28

>  <MASS SPECTRAL PEAKS>  (636) 
39 2.4
40 6.8
41 3.7
43 3.5
44 11.6
51 2.6
55 2
57 3.1
63 2.6
64 8.8
65 3.1
69 3.1
70 1.3
71 1.4
77 3.8
81 1.4
90 2.2
91 27.9
92 2.6
93 1.8
119 99.99
120 10.5
145 1.5
149 2
237 2
238 3.8
357 40.2
358 13.8

$$$$

     RDKit          2D

 16 17  0  0  0  0  0  0  0  0999 V2000
    3.2481    2.1950    0.0000 C   0  0  0  0  0  0  0  0  0  0  0  0
   -7.1442    2.1950    0.0000 C   0  0  0  0  0  0  0  0  0  0  0  0
    1.9486    1.4442    0.0000 C   0  0  0  0  0  0  0  0  0  0  0  0
    3.2486    3.6958    0.0000 C   0  0  0  0  0  0  0  0  0  0  0  0
   -7.1447    3.6958    0.0000 C   0  0  0  0  0  0  0  0  0  0  0  0
   -5.8447    1.4442    0.0000 C   0  0  0  0  0  0  0  0  0  0  0  0
    0.6495    2.1942    0.0000 C   0  0  0  0  0  0  0  0  0  0  0  0
    1.9495    4.4458    0.0000 C   0  0  0  0  0  0  0  0  0  0  0  0
   -5.8457    4.4458    0.0000 C   0  0  0  0  0  0  0  0  0  0  0  0
   -4.5457    2.1942    0.0000 C   0  0  0  0  0  0  0  0  0  0  0  0
    0.6500    3.6950    0.0000 C   0  0  0  0  0  0  0  0  0  0  0  0
   -4.5462    3.6950    0.0000 C   0  0  0  0  0  0  0  0  0  0  0  0
   -1.9481    3.6950    0.0000 C   0  0  0  0  0  0  0  0  0  0  0  0
   -0.6490    4.4450    0.0000 N   0  0  0  0  0  0  0  0  0  0  0  0
   -3.2471    4.4450    0.0000 N   0  0  0  0  0  0  0  0  0  0  0  0
   -1.9481    2.1950    0.0000 O   0  0  0  0  0  0  0  0  0  0  0  0
  3  1  2  0
  4  1  1  0
  5  2  2  0
  6  2  1  0
  7  3  1  0
  8  4  2  0
  9  5  1  0
 10  6  2  0
 11  7  2  0
 11  8  1  0
 12  9  2  0
 12 10  1  0
 14 11  1  0
 14 13  2  3
 15 12  1  0
 15 13  1  0
 16 13  1  0
M  END
>  <NAME>  (637) 
N,N'-DIPHENYLUREA

>  <SYNONYMS>  (637) 


>  <SPECTRUM TYPE>  (637) 
MS1

>  <INSTRUMENT TYPE>  (637) 
EI-B

>  <INSTRUMENT>  (637) 
JEOL JMS-DX-300

>  <ION MODE>  (637) 
P

>  <INCHIKEY>  (637) 
GWEHVDNNLFDJLR-UHFFFAOYSA-N

>  <FORMULA>  (637) 
C13H12N2O

>  <EXACT MASS>  (637) 
212.094963004

>  <MW>  (637) 
212

>  <ID>  (637) 
JP011202

>  <CONTRIBUTOR>  (637) 
University of Tokyo Team, {Faculty of Engineering, University of Tokyo

>  <COMMENT>  (637) 
SMILES=O=C(Nc(c2)cccc2)Nc(c1)cccc1
InChI=InChI=1S/C13H12N2O/c16-13(14-11-7-3-1-4-8-11)15-12-9-5-2-6-10-12/h1-10H,(H2,14,15,16)
computed SMILES=OC(=NC=1C=CC=CC1)NC=2C=CC=CC2
accession=JP011202
date=2016.01.19 (Created 2008.10.21, modified 2011.05.06)
author=SAWADA M, THE INST. OF SCIENTIFIC AND INDUSTRIALRESEARCH OSAKA UNIV.
license=CC BY-NC-SA
exact mass=212.09496
ionization energy=70 eV
ion type=[M]+*
computed spectral entropy=1.8961767417807582
computed normalized entropy=0.6439857491349876
SPLASH=splash10-01ox-9040000000-aeb7951e27e369a7e434
submitter=submitter = University of Tokyo Team (Faculty of Engineering, University of Tokyo)
MoNA Rating=3.75

>  <NUM PEAKS>  (637) 
19

>  <MASS SPECTRAL PEAKS>  (637) 
39 3.6
40 1.3
41 1.1
44 1.2
51 2.7
63 1.2
64 1.8
65 8.9
66 7.1
69 1.2
77 7.7
91 2.9
92 8.5
93 99.99
94 9.1
119 4.9
120 1.8
212 62.9
213 11.8

$$$$

     RDKit          2D

 19 21  0  0  0  0  0  0  0  0999 V2000
   -2.1300   -3.8000    0.0000 C   0  0  0  0  0  0  0  0  0  0  0  0
   -4.7289    0.7002    0.0000 C   0  0  0  0  0  0  0  0  0  0  0  0
    3.0600    2.2000    0.0000 C   0  0  0  0  0  0  0  0  0  0  0  0
    1.7600    2.9500    0.0000 C   0  0  0  0  0  0  0  0  0  0  0  0
    3.0600    0.7000    0.0000 C   0  0  0  0  0  0  0  0  0  0  0  0
    0.4600    2.2000    0.0000 C   0  0  0  0  0  0  0  0  0  0  0  0
    1.7600   -0.0500    0.0000 C   0  0  0  0  0  0  0  0  0  0  0  0
    0.4600    0.7000    0.0000 C   0  0  0  0  0  0  0  0  0  0  0  0
    1.7600   -1.5500    0.0000 C   0  0  0  0  0  0  0  0  0  0  0  0
   -0.8300   -1.5500    0.0000 C   0  0  0  0  0  0  0  0  0  0  0  0
   -3.4300   -1.5500    0.0000 C   0  0  0  0  0  0  0  0  0  0  0  0
   -2.1300    0.7000    0.0000 C   0  0  0  0  0  0  0  0  0  0  0  0
    0.4600   -2.3000    0.0000 N   0  0  0  0  0  0  0  0  0  0  0  0
   -2.1300   -2.3000    0.0000 N   0  0  0  0  0  0  0  0  0  0  0  0
   -3.4300   -0.0500    0.0000 N   0  0  0  0  0  0  0  0  0  0  0  0
   -0.8300   -0.0500    0.0000 N   0  0  0  0  0  0  0  0  0  0  0  0
    3.0589   -2.3002    0.0000 O   0  0  0  0  0  0  0  0  0  0  0  0
   -4.7289   -2.3002    0.0000 O   0  0  0  0  0  0  0  0  0  0  0  0
   -2.1300    2.2000    0.0000 O   0  0  0  0  0  0  0  0  0  0  0  0
  4  3  2  0
  5  3  1  0
  6  4  1  0
  7  5  2  0
  8  6  2  0
  8  7  1  0
  9  7  1  0
 13  9  2  0
 13 10  1  0
 14  1  1  0
 14 10  1  0
 14 11  1  0
 15  2  1  0
 15 11  1  0
 15 12  1  0
 16  8  1  0
 16 10  1  0
 16 12  1  0
 17  9  1  0
 18 11  2  0
 19 12  2  0
M  END
>  <NAME>  (638) 
2,4-DIMETHYL-4,4A-DIHYDRO-1H-(1,3,5)TRIAZINO(1,2-A)QUINAZOLINE-1,3,6(2H,5H)-TRIONE

>  <SYNONYMS>  (638) 


>  <SPECTRUM TYPE>  (638) 
MS1

>  <INSTRUMENT TYPE>  (638) 
EI-B

>  <INSTRUMENT>  (638) 
JEOL JMS-DX-300

>  <ION MODE>  (638) 
P

>  <INCHIKEY>  (638) 
CBBILJACUYRJLM-UHFFFAOYSA-N

>  <FORMULA>  (638) 
C12H12N4O3

>  <EXACT MASS>  (638) 
260.09094024399997

>  <MW>  (638) 
260

>  <ID>  (638) 
JP011201

>  <CONTRIBUTOR>  (638) 
University of Tokyo Team, {Faculty of Engineering, University of Tokyo

>  <COMMENT>  (638) 
SMILES=O=C(N1)c(c3)c(ccc3)N(C(=O)2)C1N(C)C(=O)N(C)2
InChI=InChI=1S/C12H12N4O3/c1-14-10-13-9(17)7-5-3-4-6-8(7)16(10)12(19)15(2)11(14)18/h3-6,10H,1-2H3,(H,13,17)
computed SMILES=O=C1N(C(=O)N(C)C2N=C(O)C=3C=CC=CC3N12)C
accession=JP011201
date=2016.01.19 (Created 2008.10.21, modified 2011.05.06)
author=SAWADA M, THE INST. OF SCIENTIFIC AND INDUSTRIALRESEARCH OSAKA UNIV.
license=CC BY-NC-SA
exact mass=260.09094
ionization energy=70 eV
ion type=[M]+*
computed spectral entropy=3.901716769679461
computed normalized entropy=0.8383648497450992
SPLASH=splash10-01ow-9630000000-cd823a7f4b4cad22afde
submitter=submitter = University of Tokyo Team (Faculty of Engineering, University of Tokyo)
MoNA Rating=3.75

>  <NUM PEAKS>  (638) 
105

>  <MASS SPECTRAL PEAKS>  (638) 
34 1.3
38 1.6
39 7.7
40 34.2
41 14.9
42 20.9
43 18.5
44 48.6
45 3.7
50 5.1
51 2.7
52 2
53 1.7
54 2
55 12.5
56 15.2
57 20.4
58 16.9
59 1.3
60 3.2
61 3.7
62 1.7
63 6.8
64 7.8
65 3
67 5.1
68 2.4
69 10.8
70 5.3
71 4.7
73 2.8
74 1.8
75 2
76 8.1
77 4.5
78 2
79 2
80 1
81 4.1
82 3.7
83 6.6
84 3.2
85 2.8
89 1.2
90 24.2
91 11.6
92 7.1
93 1.5
95 3.3
96 4
97 4.3
98 2.2
99 1.2
101 1.6
102 2
103 4.6
104 3
105 1.1
107 1.1
109 1.9
110 1.8
111 2.5
112 1.6
115 1.1
117 4.5
118 16.1
119 12.9
120 1.7
121 1.2
123 1.4
124 1.3
125 1.3
129 2.6
130 2.1
131 3.7
132 12.9
133 2.3
134 1.2
135 1.7
144 1.5
145 20
146 99.99
147 32.5
148 12.9
149 2.7
152 1
159 4
160 8.6
161 3.2
173 1.2
175 1.6
202 12.9
203 23.4
204 3.9
209 1
216 5.3
217 7.7
218 1.6
236 1.9
256 2.1
257 1
258 2.6
259 22
260 70.3
261 13.3

$$$$

     RDKit          2D

 11 12  0  0  0  0  0  0  0  0999 V2000
   -2.6000   -0.7500    0.0000 C   0  0  0  0  0  0  0  0  0  0  0  0
   -2.6000    0.7500    0.0000 C   0  0  0  0  0  0  0  0  0  0  0  0
   -1.3000   -1.5000    0.0000 C   0  0  0  0  0  0  0  0  0  0  0  0
   -1.3000    1.5000    0.0000 C   0  0  0  0  0  0  0  0  0  0  0  0
    2.6000    0.7500    0.0000 C   0  0  0  0  0  0  0  0  0  0  0  0
    0.0000   -0.7500    0.0000 C   0  0  0  0  0  0  0  0  0  0  0  0
    0.0000    0.7500    0.0000 C   0  0  0  0  0  0  0  0  0  0  0  0
    1.3000   -1.5000    0.0000 C   0  0  0  0  0  0  0  0  0  0  0  0
    1.3000    1.5000    0.0000 N   0  0  0  0  0  0  0  0  0  0  0  0
    2.6000   -0.7500    0.0000 N   0  0  0  0  0  0  0  0  0  0  0  0
    1.3000   -3.0000    0.0000 O   0  0  0  0  0  0  0  0  0  0  0  0
  2  1  2  0
  3  1  1  0
  4  2  1  0
  6  3  2  0
  7  4  2  0
  7  6  1  0
  8  6  1  0
  9  5  2  0
  9  7  1  0
 10  5  1  0
 10  8  2  0
 11  8  1  0
M  END
>  <NAME>  (639) 
4-QUINAZOLINONE

>  <SYNONYMS>  (639) 


>  <SPECTRUM TYPE>  (639) 
MS1

>  <INSTRUMENT TYPE>  (639) 
EI-B

>  <INSTRUMENT>  (639) 
JEOL JMS-DX-300

>  <ION MODE>  (639) 
P

>  <INCHIKEY>  (639) 
QMNUDYFKZYBWQX-UHFFFAOYSA-N

>  <FORMULA>  (639) 
C8H6N2O

>  <EXACT MASS>  (639) 
146.048012812

>  <MW>  (639) 
146

>  <ID>  (639) 
JP011200

>  <CONTRIBUTOR>  (639) 
University of Tokyo Team, {Faculty of Engineering, University of Tokyo

>  <COMMENT>  (639) 
SMILES=O=C(N=1)c(c2)c(ccc2)NC1
InChI=InChI=1S/C8H6N2O/c11-8-6-3-1-2-4-7(6)9-5-10-8/h1-5H,(H,9,10,11)
computed SMILES=OC1=NC=NC=2C=CC=CC12
accession=JP011200
date=2016.01.19 (Created 2008.10.21, modified 2011.05.06)
author=SAWADA M, THE INST. OF SCIENTIFIC AND INDUSTRIALRESEARCH OSAKA UNIV.
license=CC BY-NC-SA
exact mass=146.04801
ionization energy=70 eV
ion type=[M]+*
computed spectral entropy=2.855367327656259
computed normalized entropy=0.7689004754363952
SPLASH=splash10-0002-6900000000-66f7a9b813d726764f21
submitter=submitter = University of Tokyo Team (Faculty of Engineering, University of Tokyo)
MoNA Rating=3.75

>  <NUM PEAKS>  (639) 
41

>  <MASS SPECTRAL PEAKS>  (639) 
37 1.7
38 3.8
39 7
40 2.4
41 2.2
42 1.6
43 2.1
44 12.2
45 1.3
50 6.2
51 2.7
52 3.8
53 2.1
57 1.1
58 1.7
59 1
61 1.1
62 2.8
63 11.2
64 12.7
65 3.2
73 1.5
74 3
75 2.7
76 5.8
77 1.7
88 1
90 15.8
91 15.1
92 12.2
103 1.5
117 6
118 28.3
119 17.9
120 2.1
131 1
134 1.5
135 1.9
145 31.5
146 99.99
147 13.2

$$$$

     RDKit          2D

 15 16  0  0  0  0  0  0  0  0999 V2000
    1.3000   -3.0000    0.0000 C   0  0  0  0  0  0  0  0  0  0  0  0
    3.8989    1.5002    0.0000 C   0  0  0  0  0  0  0  0  0  0  0  0
   -2.6000    0.7500    0.0000 C   0  0  0  0  0  0  0  0  0  0  0  0
   -1.3000    1.5000    0.0000 C   0  0  0  0  0  0  0  0  0  0  0  0
   -2.6000   -0.7500    0.0000 C   0  0  0  0  0  0  0  0  0  0  0  0
    0.0000   -0.7500    0.0000 C   0  0  0  0  0  0  0  0  0  0  0  0
    2.6000   -0.7500    0.0000 C   0  0  0  0  0  0  0  0  0  0  0  0
    1.3000    1.5000    0.0000 C   0  0  0  0  0  0  0  0  0  0  0  0
   -1.3000   -1.5000    0.0000 N   0  0  0  0  0  0  0  0  0  0  0  0
    1.3000   -1.5000    0.0000 N   0  0  0  0  0  0  0  0  0  0  0  0
    2.6000    0.7500    0.0000 N   0  0  0  0  0  0  0  0  0  0  0  0
    0.0000    0.7500    0.0000 N   0  0  0  0  0  0  0  0  0  0  0  0
   -3.8989   -1.5002    0.0000 O   0  0  0  0  0  0  0  0  0  0  0  0
    3.8989   -1.5002    0.0000 O   0  0  0  0  0  0  0  0  0  0  0  0
    1.3000    3.0000    0.0000 O   0  0  0  0  0  0  0  0  0  0  0  0
  4  3  2  0
  5  3  1  0
  9  5  1  0
  9  6  2  0
 10  1  1  0
 10  6  1  0
 10  7  1  0
 11  2  1  0
 11  7  1  0
 11  8  1  0
 12  4  1  0
 12  6  1  0
 12  8  1  0
 13  5  2  0
 14  7  2  0
 15  8  2  0
M  END
>  <NAME>  (640) 
1,3-DIMETHYL-2H-PYRIMIDO(1,2-A)(1,3,5)TRIAZINE-2,4,8-(1H,3H)-TRIONE

>  <SYNONYMS>  (640) 


>  <SPECTRUM TYPE>  (640) 
MS1

>  <INSTRUMENT TYPE>  (640) 
EI-B

>  <INSTRUMENT>  (640) 
JEOL JMS-DX-300

>  <ION MODE>  (640) 
P

>  <INCHIKEY>  (640) 
HCPJFABTTFNIRP-UHFFFAOYSA-N

>  <FORMULA>  (640) 
C8H8N4O3

>  <EXACT MASS>  (640) 
208.05964011599997

>  <MW>  (640) 
208

>  <ID>  (640) 
JP011199

>  <CONTRIBUTOR>  (640) 
University of Tokyo Team, {Faculty of Engineering, University of Tokyo

>  <COMMENT>  (640) 
SMILES=[H]C(C(=O)2)=C([H])N(C(=O)1)C(=N2)N(C)C(=O)N(C)1
InChI=InChI=1S/C8H8N4O3/c1-10-6-9-5(13)3-4-12(6)8(15)11(2)7(10)14/h3-4H,1-2H3
computed SMILES=O=C1N=C2N(C=C1)C(=O)N(C(=O)N2C)C
accession=JP011199
date=2016.01.19 (Created 2008.10.21, modified 2011.05.06)
author=SAWADA M, THE INST. OF SCIENTIFIC AND INDUSTRIALRESEARCH OSAKA UNIV.
license=CC BY-NC-SA
exact mass=208.05964
ionization energy=70 eV
ion type=[M]+*
computed spectral entropy=3.6093518692900526
computed normalized entropy=0.8001472588706461
SPLASH=splash10-0pbc-9630000000-752e5aef0f02acdc22bf
submitter=submitter = University of Tokyo Team (Faculty of Engineering, University of Tokyo)
MoNA Rating=3.75

>  <NUM PEAKS>  (640) 
91

>  <MASS SPECTRAL PEAKS>  (640) 
34 1.2
38 1
39 6.1
40 33.6
41 11.4
42 11.7
43 18
44 56.5
45 2.7
50 1.7
51 2.6
52 1.5
53 6
54 5.8
55 9.2
56 20.4
57 16.4
58 2.7
60 1.3
61 2.1
63 1.5
65 2.1
66 1.7
67 3.8
68 6.6
69 10.2
70 5.3
71 3.8
72 1.7
73 1.1
74 1
75 1
76 1.7
77 4.3
78 2
79 1.7
80 1.8
81 5.2
82 3.6
83 39.7
84 4
85 1.8
91 2.1
93 2.8
94 5
95 10.7
96 7.7
97 2.7
104 1.3
105 3.7
106 1
107 1.9
109 9
110 2.2
111 1.1
112 2.5
113 1.8
118 2
119 1.5
120 5.2
121 7.7
122 4.2
123 51.9
124 5.2
125 2.2
126 1.3
127 3.2
128 4.2
133 1.1
134 7.8
135 12.6
136 3.8
137 2.1
149 6.1
150 1.6
151 79.3
152 9.2
153 2.1
154 1
155 3.9
156 4.7
167 3.7
168 1.9
169 1.4
179 2.1
180 1.7
182 1
183 1.4
208 99.99
209 15.1
210 2

$$$$

     RDKit          2D

 15 16  0  0  0  0  0  0  0  0999 V2000
    1.0105   -2.6039    0.0000 C   0  0  0  0  0  0  0  0  0  0  0  0
    4.9076    1.1461    0.0000 C   0  0  0  0  0  0  0  0  0  0  0  0
   -0.5286    3.1247    0.0000 C   0  0  0  0  0  0  0  0  0  0  0  0
    3.6081    1.8969    0.0000 C   0  0  0  0  0  0  0  0  0  0  0  0
    4.9081   -0.3547    0.0000 C   0  0  0  0  0  0  0  0  0  0  0  0
   -1.4937    1.9753    0.0000 C   0  0  0  0  0  0  0  0  0  0  0  0
    0.9495    2.8646    0.0000 C   0  0  0  0  0  0  0  0  0  0  0  0
    2.3091    1.1469    0.0000 C   0  0  0  0  0  0  0  0  0  0  0  0
    3.6091   -1.1047    0.0000 C   0  0  0  0  0  0  0  0  0  0  0  0
   -0.9806    0.5658    0.0000 C   0  0  0  0  0  0  0  0  0  0  0  0
    1.4626    1.4551    0.0000 C   0  0  0  0  0  0  0  0  0  0  0  0
    2.3096   -0.3539    0.0000 C   0  0  0  0  0  0  0  0  0  0  0  0
    0.4975    0.3057    0.0000 C   0  0  0  0  0  0  0  0  0  0  0  0
    1.0105   -1.1039    0.0000 C   0  0  0  0  0  0  0  0  0  0  0  0
   -0.4667   -1.3644    0.0000 O   0  0  0  0  0  0  0  0  0  0  0  0
  4  2  2  0
  5  2  1  0
  6  3  2  0
  7  3  1  0
  8  4  1  0
  9  5  2  0
 10  6  1  0
 11  7  2  0
 12  8  2  0
 12  9  1  0
 13 10  2  0
 13 11  1  0
 14  1  1  0
 14 12  1  0
 14 13  1  0
 15 14  1  0
M  END
>  <NAME>  (641) 
1,1-DIPHENYLETHANOL

>  <SYNONYMS>  (641) 


>  <SPECTRUM TYPE>  (641) 
MS1

>  <INSTRUMENT TYPE>  (641) 
EI-B

>  <INSTRUMENT>  (641) 
JEOL JMS-DX-300

>  <ION MODE>  (641) 
P

>  <INCHIKEY>  (641) 
GIMDPFBLSKQRNP-UHFFFAOYSA-N

>  <FORMULA>  (641) 
C14H14O

>  <EXACT MASS>  (641) 
198.104465068

>  <MW>  (641) 
198

>  <ID>  (641) 
JP011198

>  <CONTRIBUTOR>  (641) 
University of Tokyo Team, {Faculty of Engineering, University of Tokyo

>  <COMMENT>  (641) 
SMILES=c(c2)ccc(c2)C(C)(O)c(c1)cccc1
InChI=InChI=1S/C14H14O/c1-14(15,12-8-4-2-5-9-12)13-10-6-3-7-11-13/h2-11,15H,1H3
computed SMILES=OC(C=1C=CC=CC1)(C=2C=CC=CC2)C
accession=JP011198
date=2016.01.19 (Created 2008.10.21, modified 2011.05.06)
author=SAWADA M, THE INST. OF SCIENTIFIC AND INDUSTRIALRESEARCH OSAKA UNIV.
license=CC BY-NC-SA
exact mass=198.10447
ionization energy=70 eV
ion type=[M]+*
computed spectral entropy=2.9898285489915906
computed normalized entropy=0.7566803674831267
SPLASH=splash10-0560-4900000000-d62fc52ab41948ba5a50
submitter=submitter = University of Tokyo Team (Faculty of Engineering, University of Tokyo)
MoNA Rating=3.75

>  <NUM PEAKS>  (641) 
52

>  <MASS SPECTRAL PEAKS>  (641) 
39 4.8
43 48.7
44 1.7
50 5.3
51 25.7
52 4.1
53 1.2
63 3.3
65 2.7
74 1.9
75 2.7
76 5.3
77 59.8
78 19.2
79 1.9
83 1.9
89 2.3
91 5.7
92 1.6
99 1
102 2.1
103 5.3
104 1.2
105 76.5
106 10.8
115 2.6
120 1.4
121 26
122 2.6
126 1
127 1.6
128 1.8
139 1.4
151 1.8
152 5.1
153 3.6
154 3.3
155 10.1
156 1.3
165 7.2
166 2.1
176 1
178 3.6
179 2.6
180 1.9
181 4.3
182 2.6
183 99.99
184 30.6
185 2.9
198 42.4
199 7.9

$$$$

     RDKit          2D

 18 19  0  0  0  0  0  0  0  0999 V2000
   -5.3467    2.4774    0.0000 C   0  0  0  0  0  0  0  0  0  0  0  0
   -5.3472    0.9766    0.0000 C   0  0  0  0  0  0  0  0  0  0  0  0
   -4.0472    3.2283    0.0000 C   0  0  0  0  0  0  0  0  0  0  0  0
    2.4430    0.9809    0.0000 C   0  0  0  0  0  0  0  0  0  0  0  0
    2.4500    2.4731    0.0000 C   0  0  0  0  0  0  0  0  0  0  0  0
   -4.0482    0.2266    0.0000 C   0  0  0  0  0  0  0  0  0  0  0  0
   -2.7482    2.4783    0.0000 C   0  0  0  0  0  0  0  0  0  0  0  0
    1.1427    0.2331    0.0000 C   0  0  0  0  0  0  0  0  0  0  0  0
    1.1518    3.2261    0.0000 C   0  0  0  0  0  0  0  0  0  0  0  0
   -2.7486    0.9774    0.0000 C   0  0  0  0  0  0  0  0  0  0  0  0
   -0.1506    0.9774    0.0000 C   0  0  0  0  0  0  0  0  0  0  0  0
   -0.1485    2.4783    0.0000 C   0  0  0  0  0  0  0  0  0  0  0  0
   -1.4496    0.2274    0.0000 C   0  0  0  0  0  0  0  0  0  0  0  0
   -1.4464    3.2302    0.0000 C   0  0  0  0  0  0  0  0  0  0  0  0
   -0.6945    4.5281    0.0000 F   0  0  0  0  0  0  0  0  0  0  0  0
   -2.7443    3.9822    0.0000 F   0  0  0  0  0  0  0  0  0  0  0  0
   -2.1984    1.9323    0.0000 F   0  0  0  0  0  0  0  0  0  0  0  0
   -1.4496   -1.2726    0.0000 O   0  0  0  0  0  0  0  0  0  0  0  0
  2  1  2  0
  3  1  1  0
  5  4  2  0
  6  2  1  0
  7  3  2  0
  8  4  1  0
  9  5  1  0
 10  6  2  0
 10  7  1  0
 11  8  2  0
 12  9  2  0
 12 11  1  0
 13 10  1  0
 13 11  1  0
 14 12  1  0
 15 14  1  0
 16 14  1  0
 17 14  1  0
 18 13  2  0
M  END
>  <NAME>  (642) 
2-TRIFLUOROMETHYLBENZOPHENONE

>  <SYNONYMS>  (642) 


>  <SPECTRUM TYPE>  (642) 
MS1

>  <INSTRUMENT TYPE>  (642) 
EI-B

>  <INSTRUMENT>  (642) 
JEOL JMS-DX-300

>  <ION MODE>  (642) 
P

>  <INCHIKEY>  (642) 
JXIWJBWMQXDALU-UHFFFAOYSA-N

>  <FORMULA>  (642) 
C14H9F3O

>  <EXACT MASS>  (642) 
250.060549568

>  <MW>  (642) 
250

>  <ID>  (642) 
JP011197

>  <CONTRIBUTOR>  (642) 
University of Tokyo Team, {Faculty of Engineering, University of Tokyo

>  <COMMENT>  (642) 
SMILES=c(c2)ccc(c2)C(=O)c(c1)c(ccc1)C(F)(F)F
InChI=InChI=1S/C14H9F3O/c15-14(16,17)12-9-5-4-8-11(12)13(18)10-6-2-1-3-7-10/h1-9H
computed SMILES=O=C(C=1C=CC=CC1)C=2C=CC=CC2C(F)(F)F
accession=JP011197
date=2016.01.19 (Created 2008.10.21, modified 2011.05.06)
author=SAWADA M, THE INST. OF SCIENTIFIC AND INDUSTRIALRESEARCH OSAKA UNIV.
license=CC BY-NC-SA
exact mass=250.06055
ionization energy=70 eV
ion type=[M]+*
computed spectral entropy=2.6194876367712774
computed normalized entropy=0.7309819431008319
SPLASH=splash10-0zfr-5940000000-aac8784b27a7b0906160
submitter=submitter = University of Tokyo Team (Faculty of Engineering, University of Tokyo)
MoNA Rating=3.75

>  <NUM PEAKS>  (642) 
36

>  <MASS SPECTRAL PEAKS>  (642) 
39 2.2
50 11.1
51 27.6
52 1.3
57 1
62 1
63 1.2
69 2.2
74 4
75 9.7
76 5.5
77 54.3
78 3.8
95 9.6
99 1.9
105 99.99
106 10.5
107 1.5
119 1.2
125 7.5
126 4
144 1.1
145 36.5
146 3.4
151 1.2
152 1.8
173 34.1
174 3.6
181 1.8
183 2.7
201 2.9
211 1.6
231 5
232 1
250 86
251 17.8

$$$$

     RDKit          2D

 15 16  0  0  0  0  0  0  0  0999 V2000
    4.8791   -2.0600    0.0000 C   0  0  0  0  0  0  0  0  0  0  0  0
   -1.6198    1.6892    0.0000 C   0  0  0  0  0  0  0  0  0  0  0  0
   -1.6200    0.1883    0.0000 C   0  0  0  0  0  0  0  0  0  0  0  0
   -0.3204    2.4402    0.0000 C   0  0  0  0  0  0  0  0  0  0  0  0
    6.1666    1.6900    0.0000 C   0  0  0  0  0  0  0  0  0  0  0  0
    4.8766    2.4400    0.0000 C   0  0  0  0  0  0  0  0  0  0  0  0
    6.1666    0.1900    0.0000 C   0  0  0  0  0  0  0  0  0  0  0  0
   -0.3208   -0.5615    0.0000 C   0  0  0  0  0  0  0  0  0  0  0  0
    0.9788    1.6904    0.0000 C   0  0  0  0  0  0  0  0  0  0  0  0
    3.5766    1.6900    0.0000 C   0  0  0  0  0  0  0  0  0  0  0  0
    4.8766   -0.5600    0.0000 C   0  0  0  0  0  0  0  0  0  0  0  0
    0.9786    0.1896    0.0000 C   0  0  0  0  0  0  0  0  0  0  0  0
    3.5766    0.1900    0.0000 C   0  0  0  0  0  0  0  0  0  0  0  0
    2.2777   -0.5602    0.0000 C   0  0  0  0  0  0  0  0  0  0  0  0
    2.2780   -2.0602    0.0000 O   0  0  0  0  0  0  0  0  0  0  0  0
  3  2  2  0
  4  2  1  0
  6  5  2  0
  7  5  1  0
  8  3  1  0
  9  4  2  0
 10  6  1  0
 11  1  1  0
 11  7  2  0
 12  8  2  0
 12  9  1  0
 13 10  2  0
 13 11  1  0
 14 12  1  0
 14 13  1  0
 15 14  2  0
M  END
>  <NAME>  (643) 
2-METHYLBENZOPHENONE

>  <SYNONYMS>  (643) 


>  <SPECTRUM TYPE>  (643) 
MS1

>  <INSTRUMENT TYPE>  (643) 
EI-B

>  <INSTRUMENT>  (643) 
JEOL JMS-DX-300

>  <ION MODE>  (643) 
P

>  <INCHIKEY>  (643) 
CKGKXGQVRVAKEA-UHFFFAOYSA-N

>  <FORMULA>  (643) 
C14H12O

>  <EXACT MASS>  (643) 
196.088815004

>  <MW>  (643) 
196

>  <ID>  (643) 
JP011196

>  <CONTRIBUTOR>  (643) 
University of Tokyo Team, {Faculty of Engineering, University of Tokyo

>  <COMMENT>  (643) 
SMILES=Cc(c2)c(ccc2)C(=O)c(c1)cccc1
InChI=InChI=1S/C14H12O/c1-11-7-5-6-10-13(11)14(15)12-8-3-2-4-9-12/h2-10H,1H3
computed SMILES=O=C(C=1C=CC=CC1)C=2C=CC=CC2C
accession=JP011196
date=2016.01.19 (Created 2008.10.21, modified 2011.05.06)
author=SAWADA M, THE INST. OF SCIENTIFIC AND INDUSTRIALRESEARCH OSAKA UNIV.
license=CC BY-NC-SA
exact mass=196.08882
ionization energy=70 eV
ion type=[M]+*
computed spectral entropy=3.4416672244742186
computed normalized entropy=0.8156561061026848
SPLASH=splash10-00kb-9700000000-e948b50c570012fbe35d
submitter=submitter = University of Tokyo Team (Faculty of Engineering, University of Tokyo)
MoNA Rating=3.75

>  <NUM PEAKS>  (643) 
68

>  <MASS SPECTRAL PEAKS>  (643) 
37 1
38 4.9
39 40.7
40 4.7
41 9.8
50 24.9
51 56.2
52 7.7
53 2.7
61 1.6
62 9.1
63 31.8
64 9.5
65 61.2
66 4.9
70 1.8
74 8.3
75 8.7
76 15.2
77 75.5
78 12.6
82 5.2
83 5.6
84 2
86 2.7
87 3.8
88 3.5
89 37.8
90 18.8
91 76
92 10.3
97 5.8
98 2.8
102 1.8
105 62.9
106 5.5
113 1.6
115 5.8
118 3.8
119 67.3
120 6.2
126 2
127 1.6
128 2.2
139 4.6
141 1.4
150 1.1
151 2.7
152 10.2
153 3.3
163 2.6
164 2.9
165 18.2
166 4.8
167 5.6
168 1.3
176 1.2
177 6.7
178 19.8
179 12.2
180 1.7
181 9.9
182 1.8
194 5.7
195 99.99
196 98.2
197 20.4
198 1.8

$$$$

     RDKit          2D

 13 14  0  0  0  0  0  0  0  0999 V2000
    2.4790    4.9800    0.0000 C   0  0  0  0  0  0  0  0  0  0  0  0
   -2.7200   -1.0200    0.0000 C   0  0  0  0  0  0  0  0  0  0  0  0
   -2.7200    0.4800    0.0000 C   0  0  0  0  0  0  0  0  0  0  0  0
    2.4800   -1.0200    0.0000 C   0  0  0  0  0  0  0  0  0  0  0  0
   -1.4200   -1.7700    0.0000 C   0  0  0  0  0  0  0  0  0  0  0  0
    1.1800   -1.7700    0.0000 C   0  0  0  0  0  0  0  0  0  0  0  0
    2.4800    0.4800    0.0000 C   0  0  0  0  0  0  0  0  0  0  0  0
   -1.4200    1.2300    0.0000 C   0  0  0  0  0  0  0  0  0  0  0  0
    1.1800    2.7300    0.0000 C   0  0  0  0  0  0  0  0  0  0  0  0
   -0.1200   -1.0200    0.0000 C   0  0  0  0  0  0  0  0  0  0  0  0
    1.1800    1.2300    0.0000 C   0  0  0  0  0  0  0  0  0  0  0  0
   -0.1200    0.4800    0.0000 C   0  0  0  0  0  0  0  0  0  0  0  0
    2.4790    3.4800    0.0000 N   0  0  0  0  0  0  0  0  0  0  0  0
  3  2  2  0
  5  2  1  0
  6  4  2  0
  7  4  1  0
  8  3  1  0
 10  5  2  0
 10  6  1  0
 11  7  2  0
 11  9  1  0
 12  8  2  0
 12 10  1  0
 12 11  1  0
 13  1  1  0
  9 13  2  0
M  END
>  <NAME>  (644) 
N-(1-NAPHTHYLMETHYLIDENE)METHYLAMINE

>  <SYNONYMS>  (644) 


>  <SPECTRUM TYPE>  (644) 
MS1

>  <INSTRUMENT TYPE>  (644) 
EI-B

>  <INSTRUMENT>  (644) 
JEOL JMS-DX-300

>  <ION MODE>  (644) 
P

>  <INCHIKEY>  (644) 
JPFXXCHVHVZOIN-UKTHLTGXSA-N

>  <FORMULA>  (644) 
C12H11N

>  <EXACT MASS>  (644) 
169.089149352

>  <MW>  (644) 
169

>  <ID>  (644) 
JP011195

>  <CONTRIBUTOR>  (644) 
University of Tokyo Team, {Faculty of Engineering, University of Tokyo

>  <COMMENT>  (644) 
SMILES=CN=Cc(c1)c(c2)c(ccc2)cc1
InChI=InChI=1S/C12H11N/c1-13-9-11-7-4-6-10-5-2-3-8-12(10)11/h2-9H,1H3/b13-9+
computed SMILES=N(=CC1=CC=CC=2C=CC=CC12)C
accession=JP011195
date=2016.01.19 (Created 2008.10.21, modified 2011.05.06)
author=SAWADA M, THE INST. OF SCIENTIFIC AND INDUSTRIALRESEARCH OSAKA UNIV.
license=CC BY-NC-SA
exact mass=169.08915
ionization energy=70 eV
ion type=[M]+*
computed spectral entropy=3.7089621817103327
computed normalized entropy=0.8701010370698273
SPLASH=splash10-004i-9500000000-4bb24581bfb8b8b57aa4
submitter=submitter = University of Tokyo Team (Faculty of Engineering, University of Tokyo)
MoNA Rating=3.75

>  <NUM PEAKS>  (644) 
71

>  <MASS SPECTRAL PEAKS>  (644) 
37 8.4
38 30.4
39 54.5
40 18.4
41 53.7
42 85.4
43 8.7
44 1
49 3.2
50 62
51 63.5
52 24
53 4.6
61 14.6
62 48.8
63 70.8
64 14.9
65 11.4
66 2
73 4.4
74 61.6
75 62
76 39.1
77 54
78 10.9
83 2.2
85 5.3
86 22.4
87 39.8
88 11.3
89 18.6
90 2.7
91 2.2
97 1.6
98 16.9
99 15.1
100 14.3
101 32.4
102 27.9
103 3.3
110 2.8
111 5.6
112 1.8
113 11.8
114 4.8
115 3.7
116 4.4
122 1.8
125 7
126 79.6
127 99.99
128 39.7
129 3.7
137 1.9
138 2.3
139 25.5
140 6.4
141 8
142 1.6
151 1.3
152 4.2
153 19.3
154 19.4
155 3.2
156 2.3
166 5.4
167 11
168 46.6
169 50.5
170 11.2
171 1

$$$$

     RDKit          2D

 10 10  0  0  0  0  0  0  0  0999 V2000
   -4.8712    2.0071    0.0000 C   0  0  0  0  0  0  0  0  0  0  0  0
   -3.5721    2.7571    0.0000 C   0  0  0  0  0  0  0  0  0  0  0  0
    2.9231    0.5071    0.0000 C   0  0  0  0  0  0  0  0  0  0  0  0
    2.9236    2.0079    0.0000 C   0  0  0  0  0  0  0  0  0  0  0  0
    1.6236   -0.2437    0.0000 C   0  0  0  0  0  0  0  0  0  0  0  0
    1.6245    2.7579    0.0000 C   0  0  0  0  0  0  0  0  0  0  0  0
    0.3245    0.5063    0.0000 C   0  0  0  0  0  0  0  0  0  0  0  0
   -0.9740    2.7571    0.0000 C   0  0  0  0  0  0  0  0  0  0  0  0
    0.3250    2.0071    0.0000 C   0  0  0  0  0  0  0  0  0  0  0  0
   -2.2731    2.0071    0.0000 N   0  0  0  0  0  0  0  0  0  0  0  0
  2  1  1  0
  4  3  2  0
  5  3  1  0
  6  4  1  0
  7  5  2  0
  9  6  2  0
  9  7  1  0
  9  8  1  0
 10  2  1  0
  8 10  2  0
M  END
>  <NAME>  (645) 
N-BENZYLIDENEETHYLAMINE

>  <SYNONYMS>  (645) 


>  <SPECTRUM TYPE>  (645) 
MS1

>  <INSTRUMENT TYPE>  (645) 
EI-B

>  <INSTRUMENT>  (645) 
JEOL JMS-DX-300

>  <ION MODE>  (645) 
P

>  <INCHIKEY>  (645) 
IIVYBNBDIDWPQV-CSKARUKUSA-N

>  <FORMULA>  (645) 
C9H11N

>  <EXACT MASS>  (645) 
133.089149352

>  <MW>  (645) 
133

>  <ID>  (645) 
JP011194

>  <CONTRIBUTOR>  (645) 
University of Tokyo Team, {Faculty of Engineering, University of Tokyo

>  <COMMENT>  (645) 
SMILES=CCN=Cc(c1)cccc1
InChI=InChI=1S/C9H11N/c1-2-10-8-9-6-4-3-5-7-9/h3-8H,2H2,1H3/b10-8+
computed SMILES=N(=CC=1C=CC=CC1)CC
accession=JP011194
date=2016.01.19 (Created 2008.10.21, modified 2011.05.06)
author=SAWADA M, THE INST. OF SCIENTIFIC AND INDUSTRIALRESEARCH OSAKA UNIV.
license=CC BY-NC-SA
exact mass=133.08915
ionization energy=70 eV
ion type=[M]+*
computed spectral entropy=3.372176424748165
computed normalized entropy=0.8620032193238858
SPLASH=splash10-0uel-9400000000-056e0a744abe8202f16c
submitter=submitter = University of Tokyo Team (Faculty of Engineering, University of Tokyo)
MoNA Rating=3.75

>  <NUM PEAKS>  (645) 
50

>  <MASS SPECTRAL PEAKS>  (645) 
37 3.8
38 15.6
39 50.4
40 11
41 24.5
42 11.1
49 2
50 45
51 72.3
52 27.2
53 4
54 9.8
55 10.4
56 14.4
59 2
61 2.8
62 13.3
63 44.6
64 12.2
65 35.2
66 3.4
73 1
74 9
75 10.2
76 19.2
77 81.4
78 29.6
79 12
80 1.3
86 1.7
87 2.2
88 1.8
89 49.6
90 25.1
91 99.99
92 21
102 2.1
103 14.9
104 55.9
105 33.4
106 4.8
116 2.7
117 13.8
118 84.7
119 10.2
130 2.8
132 84.6
133 88.2
134 23.3
135 1.8

$$$$

     RDKit          2D

 10 10  0  0  0  0  0  0  0  0999 V2000
   -2.9242    2.0631    0.0000 C   0  0  0  0  0  0  0  0  0  0  0  0
    2.2730   -0.9380    0.0000 C   0  0  0  0  0  0  0  0  0  0  0  0
    3.5721   -0.1880    0.0000 C   0  0  0  0  0  0  0  0  0  0  0  0
    0.9735   -0.1871    0.0000 C   0  0  0  0  0  0  0  0  0  0  0  0
    3.5716    1.3129    0.0000 C   0  0  0  0  0  0  0  0  0  0  0  0
   -0.3261    2.0635    0.0000 C   0  0  0  0  0  0  0  0  0  0  0  0
    0.9730    1.3137    0.0000 C   0  0  0  0  0  0  0  0  0  0  0  0
    2.2721    2.0637    0.0000 C   0  0  0  0  0  0  0  0  0  0  0  0
   -1.6250    1.3133    0.0000 N   0  0  0  0  0  0  0  0  0  0  0  0
    2.2723    3.5637    0.0000 O   0  0  0  0  0  0  0  0  0  0  0  0
  3  2  2  0
  4  2  1  0
  5  3  1  0
  7  4  2  0
  7  6  1  0
  8  5  2  0
  8  7  1  0
  9  1  1  0
  6  9  2  0
 10  8  1  0
M  END
>  <NAME>  (646) 
N-(2-HYDROXYBENZYLIDENE)METHYLAMINE

>  <SYNONYMS>  (646) 


>  <SPECTRUM TYPE>  (646) 
MS1

>  <INSTRUMENT TYPE>  (646) 
EI-B

>  <INSTRUMENT>  (646) 
JEOL JMS-DX-300

>  <ION MODE>  (646) 
P

>  <INCHIKEY>  (646) 
XFDQQADEQRAUEK-RMKNXTFCSA-N

>  <FORMULA>  (646) 
C8H9NO

>  <EXACT MASS>  (646) 
135.068413908

>  <MW>  (646) 
135

>  <ID>  (646) 
JP011193

>  <CONTRIBUTOR>  (646) 
University of Tokyo Team, {Faculty of Engineering, University of Tokyo

>  <COMMENT>  (646) 
SMILES=CN=Cc(c1)c(O)ccc1
InChI=InChI=1S/C8H9NO/c1-9-6-7-4-2-3-5-8(7)10/h2-6,10H,1H3/b9-6+
computed SMILES=OC=1C=CC=CC1C=NC
accession=JP011193
date=2016.01.19 (Created 2008.10.21, modified 2011.05.06)
author=SAWADA M, THE INST. OF SCIENTIFIC AND INDUSTRIALRESEARCH OSAKA UNIV.
license=CC BY-NC-SA
exact mass=135.06841
ionization energy=70 eV
ion type=[M]+*
computed spectral entropy=3.226805126420338
computed normalized entropy=0.8206887659421749
SPLASH=splash10-0080-5900000000-ea3c57b7cddd8acb6e80
submitter=submitter = University of Tokyo Team (Faculty of Engineering, University of Tokyo)
MoNA Rating=3.75

>  <NUM PEAKS>  (646) 
51

>  <MASS SPECTRAL PEAKS>  (646) 
38 3.8
39 18.6
40 2.6
41 6.7
42 35.9
43 1.2
50 5.9
51 15.3
52 6.8
53 5.5
54 1.8
55 1.7
62 2.1
63 7.7
64 6.2
65 20.8
66 7.7
67 2.1
68 2.1
74 1.7
75 2.2
76 3
77 21.7
78 16.3
79 12.2
80 11
81 1.7
89 2.2
90 5
91 13.3
92 8.2
93 2.5
94 7.7
102 9.7
104 2.9
105 5
106 17.6
107 33.2
108 8
116 1.7
117 2.8
118 34.6
119 12.1
120 78.6
121 11.8
122 3
133 3.9
134 92.4
135 99.99
136 36.7
137 2.8

$$$$

     RDKit          2D

 13 13  0  0  0  0  0  0  0  0999 V2000
   -3.8190    0.7931    0.0000 C   0  0  0  0  0  0  0  0  0  0  0  0
    1.3830   -2.1926    0.0000 C   0  0  0  0  0  0  0  0  0  0  0  0
    0.0839   -1.4426    0.0000 C   0  0  0  0  0  0  0  0  0  0  0  0
    2.6775   -1.4504    0.0000 C   0  0  0  0  0  0  0  0  0  0  0  0
    1.3789    0.8004    0.0000 C   0  0  0  0  0  0  0  0  0  0  0  0
   -1.2209    0.7974    0.0000 C   0  0  0  0  0  0  0  0  0  0  0  0
    0.0794    0.0496    0.0000 C   0  0  0  0  0  0  0  0  0  0  0  0
    2.6780    0.0504    0.0000 C   0  0  0  0  0  0  0  0  0  0  0  0
    3.9771    0.8002    0.0000 C   0  0  0  0  0  0  0  0  0  0  0  0
    4.7269   -0.4990    0.0000 F   0  0  0  0  0  0  0  0  0  0  0  0
    5.2763    1.5500    0.0000 F   0  0  0  0  0  0  0  0  0  0  0  0
    3.2273    2.0994    0.0000 F   0  0  0  0  0  0  0  0  0  0  0  0
   -2.5187    0.0452    0.0000 N   0  0  0  0  0  0  0  0  0  0  0  0
  3  2  2  0
  4  2  1  0
  7  3  1  0
  7  5  2  0
  7  6  1  0
  8  4  2  0
  8  5  1  0
  9  8  1  0
 10  9  1  0
 11  9  1  0
 12  9  1  0
 13  1  1  0
  6 13  2  0
M  END
>  <NAME>  (647) 
N-(3-TRIFLUOROMETHYLBENZYLIDENE)METHYLAMINE

>  <SYNONYMS>  (647) 


>  <SPECTRUM TYPE>  (647) 
MS1

>  <INSTRUMENT TYPE>  (647) 
EI-B

>  <INSTRUMENT>  (647) 
JEOL JMS-DX-300

>  <ION MODE>  (647) 
P

>  <INCHIKEY>  (647) 
PYFNALSBVCFOLS-AWNIVKPZSA-N

>  <FORMULA>  (647) 
C9H8F3N

>  <EXACT MASS>  (647) 
187.060883916

>  <MW>  (647) 
187

>  <ID>  (647) 
JP011192

>  <CONTRIBUTOR>  (647) 
University of Tokyo Team, {Faculty of Engineering, University of Tokyo

>  <COMMENT>  (647) 
SMILES=CN=Cc(c1)cc(cc1)C(F)(F)F
InChI=InChI=1S/C9H8F3N/c1-13-6-7-3-2-4-8(5-7)9(10,11)12/h2-6H,1H3/b13-6+
computed SMILES=FC(F)(F)C=1C=CC=C(C=NC)C1
accession=JP011192
date=2016.01.19 (Created 2008.10.21, modified 2011.05.06)
author=SAWADA M, THE INST. OF SCIENTIFIC AND INDUSTRIALRESEARCH OSAKA UNIV.
license=CC BY-NC-SA
exact mass=187.06088
ionization energy=70 eV
ion type=[M]+*
computed spectral entropy=3.651994397519468
computed normalized entropy=0.8198719485997673
SPLASH=splash10-00ku-7900000000-525e555fdbb005f503ab
submitter=submitter = University of Tokyo Team (Faculty of Engineering, University of Tokyo)
MoNA Rating=3.75

>  <NUM PEAKS>  (647) 
86

>  <MASS SPECTRAL PEAKS>  (647) 
33 1.6
37 2
38 8.1
39 16.2
40 6.7
41 29.5
42 70.3
43 5.7
49 1.1
50 22
51 18.5
52 3
57 5.7
61 2.7
62 9.8
63 18
64 3.2
65 2.3
66 1.4
68 1.1
69 56.9
70 1.8
74 8.6
75 23.9
76 10.3
77 6.5
80 1
81 3.3
83 1.9
86 2.9
87 5.2
88 4.2
89 13.9
90 5.8
91 7
93 1.1
94 1.9
95 12.2
96 5.1
99 5.8
100 2.7
101 2.1
102 3.6
107 7.3
108 3
109 12.2
110 1.2
112 1
114 1.3
116 3
117 8.2
118 22.8
119 8.7
120 1.2
121 5
125 12.3
126 7.4
127 4.8
132 1.3
137 1.4
138 3.8
139 1.8
143 1
144 1.3
145 37.8
146 7.9
152 8.9
153 1.2
155 1
157 1.3
158 3
159 21
160 2
166 3.5
167 1.5
168 22
169 2.6
170 3
171 5
172 1.9
173 3.6
174 2.8
185 3.6
186 99.99
187 95.5
188 19.7

$$$$

     RDKit          2D

 10 10  0  0  0  0  0  0  0  0999 V2000
    4.2171    2.0942    0.0000 C   0  0  0  0  0  0  0  0  0  0  0  0
   -0.9657    2.0581    0.0000 C   0  0  0  0  0  0  0  0  0  0  0  0
    0.3293   -0.1849    0.0000 C   0  0  0  0  0  0  0  0  0  0  0  0
   -2.2648    1.3081    0.0000 C   0  0  0  0  0  0  0  0  0  0  0  0
   -0.9698   -0.9349    0.0000 C   0  0  0  0  0  0  0  0  0  0  0  0
    1.6190    2.0811    0.0000 C   0  0  0  0  0  0  0  0  0  0  0  0
    0.3238    1.3246    0.0000 C   0  0  0  0  0  0  0  0  0  0  0  0
   -2.2830   -0.1804    0.0000 C   0  0  0  0  0  0  0  0  0  0  0  0
   -3.5858   -0.9238    0.0000 Cl  0  0  0  0  0  0  0  0  0  0  0  0
    2.9218    1.3377    0.0000 N   0  0  0  0  0  0  0  0  0  0  0  0
  4  2  2  0
  5  3  1  0
  7  2  1  0
  7  3  2  0
  7  6  1  0
  8  4  1  0
  8  5  2  0
  9  8  1  0
 10  1  1  0
  6 10  2  0
M  END
>  <NAME>  (648) 
N-(4-CHLOROBENZYLIDENE)METHYLAMINE

>  <SYNONYMS>  (648) 


>  <SPECTRUM TYPE>  (648) 
MS1

>  <INSTRUMENT TYPE>  (648) 
EI-B

>  <INSTRUMENT>  (648) 
JEOL JMS-DX-300

>  <ION MODE>  (648) 
P

>  <INCHIKEY>  (648) 
MVKUBKNVOVQEAV-UXBLZVDNSA-N

>  <FORMULA>  (648) 
C8H8ClN

>  <EXACT MASS>  (648) 
153.034526936

>  <MW>  (648) 
153

>  <ID>  (648) 
JP011191

>  <CONTRIBUTOR>  (648) 
University of Tokyo Team, {Faculty of Engineering, University of Tokyo

>  <COMMENT>  (648) 
SMILES=CN=Cc(c1)ccc(Cl)c1
InChI=InChI=1S/C8H8ClN/c1-10-6-7-2-4-8(9)5-3-7/h2-6H,1H3/b10-6+
computed SMILES=ClC1=CC=C(C=NC)C=C1
accession=JP011191
date=2016.01.19 (Created 2008.10.21, modified 2011.05.06)
author=SAWADA M, THE INST. OF SCIENTIFIC AND INDUSTRIALRESEARCH OSAKA UNIV.
license=CC BY-NC-SA
exact mass=153.03453
ionization energy=70 eV
ion type=[M]+*
computed spectral entropy=3.078787167882464
computed normalized entropy=0.7718223818253257
SPLASH=splash10-0udi-3900000000-91cd218cef369d2bc8a9
submitter=submitter = University of Tokyo Team (Faculty of Engineering, University of Tokyo)
MoNA Rating=3.75

>  <NUM PEAKS>  (648) 
54

>  <MASS SPECTRAL PEAKS>  (648) 
36 1.2
38 1.8
39 4
40 1
41 10.5
42 46.9
43 1.7
50 8.8
51 8.1
52 1
59 3.8
61 1.7
62 3.6
63 8
64 1.1
65 1.5
73 2.7
74 3.8
75 16.4
76 6.1
77 8.9
85 2.1
86 1.6
87 1.9
88 1
89 15.8
90 4.8
91 6.1
99 2
102 6.3
111 20.1
112 12.1
113 7.1
114 3.9
116 3
117 9.8
118 13.3
119 1.3
123 1.3
125 20.5
126 1.9
127 6.5
137 7.7
138 1.9
139 7.5
140 5
141 1.9
142 1.4
151 1.9
152 99.99
153 98.3
154 75.4
155 51.4
156 5.6

$$$$

     RDKit          2D

  9  9  0  0  0  0  0  0  0  0999 V2000
   -3.5724    2.0075    0.0000 C   0  0  0  0  0  0  0  0  0  0  0  0
    2.9228   -0.2425    0.0000 C   0  0  0  0  0  0  0  0  0  0  0  0
    2.9233    1.2583    0.0000 C   0  0  0  0  0  0  0  0  0  0  0  0
    1.6233   -0.9933    0.0000 C   0  0  0  0  0  0  0  0  0  0  0  0
    1.6243    2.0083    0.0000 C   0  0  0  0  0  0  0  0  0  0  0  0
    0.3243   -0.2433    0.0000 C   0  0  0  0  0  0  0  0  0  0  0  0
   -0.9743    2.0075    0.0000 C   0  0  0  0  0  0  0  0  0  0  0  0
    0.3248    1.2575    0.0000 C   0  0  0  0  0  0  0  0  0  0  0  0
   -2.2733    1.2575    0.0000 N   0  0  0  0  0  0  0  0  0  0  0  0
  3  2  2  0
  4  2  1  0
  5  3  1  0
  6  4  2  0
  8  5  2  0
  8  6  1  0
  8  7  1  0
  9  1  1  0
  7  9  2  0
M  END
>  <NAME>  (649) 
N-BENZYLIDENEMETHYLAMINE

>  <SYNONYMS>  (649) 


>  <SPECTRUM TYPE>  (649) 
MS1

>  <INSTRUMENT TYPE>  (649) 
EI-B

>  <INSTRUMENT>  (649) 
JEOL JMS-DX-300

>  <ION MODE>  (649) 
P

>  <INCHIKEY>  (649) 
HXTGGPKOEKKUQO-VQHVLOKHSA-N

>  <FORMULA>  (649) 
C8H9N

>  <EXACT MASS>  (649) 
119.073499288

>  <MW>  (649) 
119

>  <ID>  (649) 
JP011190

>  <CONTRIBUTOR>  (649) 
University of Tokyo Team, {Faculty of Engineering, University of Tokyo

>  <COMMENT>  (649) 
SMILES=CN=Cc(c1)cccc1
InChI=InChI=1S/C8H9N/c1-9-7-8-5-3-2-4-6-8/h2-7H,1H3/b9-7+
computed SMILES=N(=CC=1C=CC=CC1)C
accession=JP011190
date=2016.01.19 (Created 2008.10.21, modified 2011.05.06)
author=SAWADA M, THE INST. OF SCIENTIFIC AND INDUSTRIALRESEARCH OSAKA UNIV.
license=CC BY-NC-SA
exact mass=119.0735
ionization energy=70 eV
ion type=[M]+*
computed spectral entropy=3.506226955914278
computed normalized entropy=0.8917554549551185
SPLASH=splash10-016u-9300000000-fdd2d6bff044ff6a3506
submitter=submitter = University of Tokyo Team (Faculty of Engineering, University of Tokyo)
MoNA Rating=3.75

>  <NUM PEAKS>  (649) 
51

>  <MASS SPECTRAL PEAKS>  (649) 
37 9.9
38 20.9
39 42.6
40 11.1
41 43.2
42 61.7
43 11.5
44 1.8
45 1
46 1.9
49 5.7
50 47.6
51 57.3
52 35.6
53 3.2
59 14.2
60 5.8
61 11
62 26.8
63 48.9
64 18.4
65 42
66 5
73 3.7
74 18.4
75 20.4
76 42
77 72.8
78 67
79 10.7
85 3.7
86 6.6
87 5.7
88 3.3
89 54
90 31.8
91 72.8
92 16.4
99 1.2
102 7.2
103 30
104 16.5
105 21.1
106 20.6
107 2
116 12.2
117 36.4
118 99.99
119 95.9
120 68.8
121 5.6

$$$$

     RDKit          2D

 21 23  0  0  0  0  0  0  0  0999 V2000
    3.1142    2.4260    0.0000 C   0  0  0  0  0  0  0  0  0  0  0  0
   -5.9791    6.1760    0.0000 C   0  0  0  0  0  0  0  0  0  0  0  0
   -4.9745    0.4788    0.0000 C   0  0  0  0  0  0  0  0  0  0  0  0
    3.1147    3.9269    0.0000 C   0  0  0  0  0  0  0  0  0  0  0  0
    1.8147    1.6752    0.0000 C   0  0  0  0  0  0  0  0  0  0  0  0
   -5.9795    4.6752    0.0000 C   0  0  0  0  0  0  0  0  0  0  0  0
   -4.6795    6.9269    0.0000 C   0  0  0  0  0  0  0  0  0  0  0  0
   -3.4965    0.2177    0.0000 C   0  0  0  0  0  0  0  0  0  0  0  0
   -5.4883    1.8890    0.0000 C   0  0  0  0  0  0  0  0  0  0  0  0
    1.8156    4.6769    0.0000 C   0  0  0  0  0  0  0  0  0  0  0  0
    0.5156    2.4252    0.0000 C   0  0  0  0  0  0  0  0  0  0  0  0
   -4.6805    3.9252    0.0000 C   0  0  0  0  0  0  0  0  0  0  0  0
   -3.3805    6.1769    0.0000 C   0  0  0  0  0  0  0  0  0  0  0  0
   -2.5324    1.3668    0.0000 C   0  0  0  0  0  0  0  0  0  0  0  0
   -4.5241    3.0381    0.0000 C   0  0  0  0  0  0  0  0  0  0  0  0
   -0.7829    4.6760    0.0000 C   0  0  0  0  0  0  0  0  0  0  0  0
    0.5161    3.9260    0.0000 C   0  0  0  0  0  0  0  0  0  0  0  0
   -3.3810    4.6760    0.0000 C   0  0  0  0  0  0  0  0  0  0  0  0
   -3.0461    2.7770    0.0000 C   0  0  0  0  0  0  0  0  0  0  0  0
   -2.0819    3.9260    0.0000 C   0  0  0  0  0  0  0  0  0  0  0  0
   -1.1178    2.7770    0.0000 O   0  0  0  0  0  0  0  0  0  0  0  0
  4  1  2  0
  5  1  1  0
  6  2  2  0
  7  2  1  0
  8  3  2  0
  9  3  1  0
 10  4  1  0
 11  5  2  0
 12  6  1  0
 13  7  2  0
 14  8  1  0
 15  9  2  0
 17 10  2  0
 17 11  1  0
 17 16  1  0
 18 12  2  0
 18 13  1  0
 19 14  2  0
 19 15  1  0
 20 16  1  0
 20 18  1  0
 20 19  1  0
 21 20  1  0
M  END
>  <NAME>  (650) 
1-BENZYL-1,1-DIPHENYLMETHANOL

>  <SYNONYMS>  (650) 


>  <SPECTRUM TYPE>  (650) 
MS1

>  <INSTRUMENT TYPE>  (650) 
EI-B

>  <INSTRUMENT>  (650) 
JEOL JMS-DX-300

>  <ION MODE>  (650) 
P

>  <INCHIKEY>  (650) 
QMPKJVBRCQVFLL-UHFFFAOYSA-N

>  <FORMULA>  (650) 
C20H18O

>  <EXACT MASS>  (650) 
274.135765196

>  <MW>  (650) 
274

>  <ID>  (650) 
JP011189

>  <CONTRIBUTOR>  (650) 
University of Tokyo Team, {Faculty of Engineering, University of Tokyo

>  <COMMENT>  (650) 
SMILES=c(c3)ccc(c3)CC(O)(c(c2)cccc2)c(c1)cccc1
InChI=InChI=1S/C20H18O/c21-20(18-12-6-2-7-13-18,19-14-8-3-9-15-19)16-17-10-4-1-5-11-17/h1-15,21H,16H2
computed SMILES=OC(C=1C=CC=CC1)(C=2C=CC=CC2)CC=3C=CC=CC3
accession=JP011189
date=2016.01.19 (Created 2008.10.21, modified 2011.05.06)
author=SAWADA M, THE INST. OF SCIENTIFIC AND INDUSTRIALRESEARCH OSAKA UNIV.
license=CC BY-NC-SA
exact mass=274.13577
ionization energy=70 eV
ion type=[M]+*
computed spectral entropy=3.769585214301271
computed normalized entropy=0.8099736419485571
SPLASH=splash10-0560-8900000000-6ea36257e6615de8fca0
submitter=submitter = University of Tokyo Team (Faculty of Engineering, University of Tokyo)
MoNA Rating=3.75

>  <NUM PEAKS>  (650) 
105

>  <MASS SPECTRAL PEAKS>  (650) 
38 2
39 15.3
40 8.7
41 13.6
42 1.9
43 9.8
44 27.6
45 3.3
50 10.2
51 40.2
52 6.6
53 3.4
55 6
56 1.9
57 6
60 2.4
61 1.7
62 1.7
63 7.3
64 2.1
65 26.8
66 2.6
67 2.8
68 2.7
69 15.2
70 2.4
71 2.8
73 2
74 3.5
75 3.7
76 8.7
77 71.7
78 21
79 3.2
81 6.8
82 1.7
83 2.3
84 1.5
85 1.1
87 1.5
89 6
90 3.1
91 47.7
92 8.6
93 2.2
94 1.7
95 2.7
97 1.6
101 1.5
102 2.2
103 1
104 3.7
105 83.9
106 28.1
107 3.8
109 1.3
113 2.2
114 1
115 4.7
118 1
119 1.1
121 1.9
122 9.3
123 2
126 2.8
127 3
128 2.6
129 1.4
135 1
136 1.6
137 2.2
139 3.3
149 6.4
150 2.6
151 5
152 15.3
153 7.6
154 3
155 1.7
163 2.7
164 2.3
165 15.1
166 3.6
167 7
168 1.5
176 2.8
177 2.3
178 8.5
179 4.8
180 1.3
181 11.2
182 8.7
183 99.99
184 53.1
185 5.7
197 1.2
239 1.8
240 1
241 1.3
252 1.8
253 1.7
254 1
255 1.9
256 8.1
257 2.4

$$$$

     RDKit          2D

 10 10  0  0  0  0  0  0  0  0999 V2000
    2.0490    0.5210    0.0000 C   0  0  0  0  0  0  0  0  0  0  0  0
    2.5981    2.5700    0.0000 C   0  0  0  0  0  0  0  0  0  0  0  0
   -2.5981   -0.4300    0.0000 C   0  0  0  0  0  0  0  0  0  0  0  0
   -1.2986   -1.1808    0.0000 C   0  0  0  0  0  0  0  0  0  0  0  0
   -2.5986    1.0708    0.0000 C   0  0  0  0  0  0  0  0  0  0  0  0
    0.0005   -0.4308    0.0000 C   0  0  0  0  0  0  0  0  0  0  0  0
   -1.2995    1.8208    0.0000 C   0  0  0  0  0  0  0  0  0  0  0  0
    0.0000    1.0700    0.0000 C   0  0  0  0  0  0  0  0  0  0  0  0
    1.2990    1.8200    0.0000 C   0  0  0  0  0  0  0  0  0  0  0  0
    0.5490    3.1190    0.0000 O   0  0  0  0  0  0  0  0  0  0  0  0
  4  3  2  0
  5  3  1  0
  6  4  1  0
  7  5  2  0
  8  6  2  0
  8  7  1  0
  9  1  1  0
  9  2  1  0
  9  8  1  0
 10  9  1  0
M  END
>  <NAME>  (651) 
1-METHYL-1-PHENYLETHANOL

>  <SYNONYMS>  (651) 


>  <SPECTRUM TYPE>  (651) 
MS1

>  <INSTRUMENT TYPE>  (651) 
EI-B

>  <INSTRUMENT>  (651) 
JEOL JMS-DX-300

>  <ION MODE>  (651) 
P

>  <INCHIKEY>  (651) 
BDCFWIDZNLCTMF-UHFFFAOYSA-N

>  <FORMULA>  (651) 
C9H12O

>  <EXACT MASS>  (651) 
136.088815004

>  <MW>  (651) 
136

>  <ID>  (651) 
JP011188

>  <CONTRIBUTOR>  (651) 
University of Tokyo Team, {Faculty of Engineering, University of Tokyo

>  <COMMENT>  (651) 
SMILES=CC(C)(O)c(c1)cccc1
InChI=InChI=1S/C9H12O/c1-9(2,10)8-6-4-3-5-7-8/h3-7,10H,1-2H3
computed SMILES=OC(C=1C=CC=CC1)(C)C
accession=JP011188
date=2016.01.19 (Created 2008.10.21, modified 2011.05.06)
author=SAWADA M, THE INST. OF SCIENTIFIC AND INDUSTRIALRESEARCH OSAKA UNIV.
license=CC BY-NC-SA
exact mass=136.08882
ionization energy=70 eV
ion type=[M]+*
computed spectral entropy=3.170807025651739
computed normalized entropy=0.7809017433358926
SPLASH=splash10-00dl-9500000000-d2c8039d1de2234ffb7d
submitter=submitter = University of Tokyo Team (Faculty of Engineering, University of Tokyo)
MoNA Rating=3.75

>  <NUM PEAKS>  (651) 
58

>  <MASS SPECTRAL PEAKS>  (651) 
34 1.2
38 1.7
39 10.9
40 17.8
41 7.8
42 4.5
43 74.3
44 17.2
45 2.4
50 6.2
51 18.6
52 4.2
53 1.7
55 3.1
56 1
57 3
58 1.6
59 8.7
60 2.8
61 12.8
62 2
63 3.7
64 1
65 5.1
66 1.2
67 1.2
69 1.8
70 1
74 2.6
75 2.6
76 2.1
77 26.9
78 18
79 3.8
83 1.2
85 1.2
89 1.6
91 12.8
92 2.6
93 4.4
94 1.2
95 1.2
97 1
102 3
103 5.1
104 1.2
105 10
106 1.8
115 3.1
117 4.2
118 7.9
119 3.3
120 1.9
121 99.99
122 17.6
123 1.4
136 34.5
137 3.8

$$$$

     RDKit          2D

 21 23  0  0  0  0  0  0  0  0999 V2000
    2.5840   -1.5353    0.0000 C   0  0  0  0  0  0  0  0  0  0  0  0
    2.5814    5.9675    0.0000 C   0  0  0  0  0  0  0  0  0  0  0  0
   -1.8496    2.2482    0.0000 C   0  0  0  0  0  0  0  0  0  0  0  0
    1.2815    5.2173    0.0000 C   0  0  0  0  0  0  0  0  0  0  0  0
    3.8815    5.2177    0.0000 C   0  0  0  0  0  0  0  0  0  0  0  0
   -1.3365    0.8378    0.0000 C   0  0  0  0  0  0  0  0  0  0  0  0
   -0.8855    3.3983    0.0000 C   0  0  0  0  0  0  0  0  0  0  0  0
    6.4753   -0.7753    0.0000 C   0  0  0  0  0  0  0  0  0  0  0  0
    6.4798    0.7168    0.0000 C   0  0  0  0  0  0  0  0  0  0  0  0
    5.1763   -1.5253    0.0000 C   0  0  0  0  0  0  0  0  0  0  0  0
    1.2818    3.7173    0.0000 C   0  0  0  0  0  0  0  0  0  0  0  0
    3.8818    3.7177    0.0000 C   0  0  0  0  0  0  0  0  0  0  0  0
    0.1407    0.5775    0.0000 C   0  0  0  0  0  0  0  0  0  0  0  0
    0.5918    3.1381    0.0000 C   0  0  0  0  0  0  0  0  0  0  0  0
    5.1803    1.4677    0.0000 C   0  0  0  0  0  0  0  0  0  0  0  0
    3.8818   -0.7832    0.0000 C   0  0  0  0  0  0  0  0  0  0  0  0
    2.5819    2.9675    0.0000 C   0  0  0  0  0  0  0  0  0  0  0  0
    1.1049    1.7277    0.0000 C   0  0  0  0  0  0  0  0  0  0  0  0
    3.8813    0.7177    0.0000 C   0  0  0  0  0  0  0  0  0  0  0  0
    2.5821    1.4675    0.0000 C   0  0  0  0  0  0  0  0  0  0  0  0
    2.0693    0.0579    0.0000 O   0  0  0  0  0  0  0  0  0  0  0  0
  4  2  2  0
  5  2  1  0
  6  3  2  0
  7  3  1  0
  9  8  2  0
 10  8  1  0
 11  4  1  0
 12  5  2  0
 13  6  1  0
 14  7  2  0
 15  9  1  0
 16  1  1  0
 16 10  2  0
 17 11  2  0
 17 12  1  0
 18 13  2  0
 18 14  1  0
 19 15  2  0
 19 16  1  0
 20 17  1  0
 20 18  1  0
 20 19  1  0
 21 20  1  0
M  END
>  <NAME>  (652) 
1-(2-METHYLPHENYL)-1,1-DIPHENYLMETHANOL

>  <SYNONYMS>  (652) 


>  <SPECTRUM TYPE>  (652) 
MS1

>  <INSTRUMENT TYPE>  (652) 
EI-B

>  <INSTRUMENT>  (652) 
JEOL JMS-DX-300

>  <ION MODE>  (652) 
P

>  <INCHIKEY>  (652) 
RCHCPDVJDGLJNS-UHFFFAOYSA-N

>  <FORMULA>  (652) 
C20H18O

>  <EXACT MASS>  (652) 
274.135765196

>  <MW>  (652) 
274

>  <ID>  (652) 
JP011187

>  <CONTRIBUTOR>  (652) 
University of Tokyo Team, {Faculty of Engineering, University of Tokyo

>  <COMMENT>  (652) 
SMILES=c(c3)ccc(c3)C(O)(c(c2)cccc2)c(c1)c(C)ccc1
InChI=InChI=1S/C20H18O/c1-16-10-8-9-15-19(16)20(21,17-11-4-2-5-12-17)18-13-6-3-7-14-18/h2-15,21H,1H3
computed SMILES=OC(C=1C=CC=CC1)(C=2C=CC=CC2)C=3C=CC=CC3C
ion type=[M]+*
accession=JP011187
date=2016.01.19 (Created 2008.10.21, modified 2011.05.06)
author=SAWADA M, THE INST. OF SCIENTIFIC AND INDUSTRIALRESEARCH OSAKA UNIV.
license=CC BY-NC-SA
exact mass=274.13577
ionization energy=70 eV
computed spectral entropy=3.4397591967007197
computed normalized entropy=0.8069475766236106
SPLASH=splash10-0a6r-3920000000-17bb9c9cd6d4734d03f4
submitter=submitter = University of Tokyo Team (Faculty of Engineering, University of Tokyo)
MoNA Rating=3.75

>  <NUM PEAKS>  (652) 
71

>  <MASS SPECTRAL PEAKS>  (652) 
39 5.1
41 2
50 2.8
51 16.5
52 2.2
63 3.1
65 13.8
75 1.4
76 3.3
77 65
78 8.7
79 1.6
89 3.7
90 1.8
91 32.4
92 8.1
93 2.2
105 99.99
106 8.9
113 1.5
115 3.2
119 37.5
120 5.1
126 1.7
127 1.6
128 2
139 2
151 2.6
152 8.6
153 5
154 24.7
155 8.6
163 1.7
164 1.7
165 11.7
166 2.8
167 2
168 2.6
169 3.4
176 1.8
177 2.2
178 18.9
179 11.4
180 2.1
181 6.7
182 4.2
183 58.6
184 9.7
185 1
189 1
195 7.7
196 5
197 42.5
198 7.7
202 1.4
215 2
226 1.3
239 3.1
240 1.6
241 2.9
252 1.8
253 1.7
254 1.1
255 3.7
256 24.9
257 8.2
258 2.1
259 1.8
273 1.7
274 43.4
275 13

$$$$

     RDKit          2D

 21 23  0  0  0  0  0  0  0  0999 V2000
   -2.5989   -1.5002    0.0000 C   0  0  0  0  0  0  0  0  0  0  0  0
    6.4964   -0.7492    0.0000 C   0  0  0  0  0  0  0  0  0  0  0  0
    5.4909    4.9479    0.0000 C   0  0  0  0  0  0  0  0  0  0  0  0
    6.4966    0.7517    0.0000 C   0  0  0  0  0  0  0  0  0  0  0  0
    5.1970   -1.5002    0.0000 C   0  0  0  0  0  0  0  0  0  0  0  0
    4.0129    5.2087    0.0000 C   0  0  0  0  0  0  0  0  0  0  0  0
    6.0049    3.5378    0.0000 C   0  0  0  0  0  0  0  0  0  0  0  0
    5.1975    1.5015    0.0000 C   0  0  0  0  0  0  0  0  0  0  0  0
    3.8978   -0.7504    0.0000 C   0  0  0  0  0  0  0  0  0  0  0  0
    3.0489    4.0595    0.0000 C   0  0  0  0  0  0  0  0  0  0  0  0
    5.0409    2.3886    0.0000 C   0  0  0  0  0  0  0  0  0  0  0  0
   -1.3000    0.7500    0.0000 C   0  0  0  0  0  0  0  0  0  0  0  0
    0.0000   -1.5000    0.0000 C   0  0  0  0  0  0  0  0  0  0  0  0
    0.0000    1.5000    0.0000 C   0  0  0  0  0  0  0  0  0  0  0  0
    1.3000   -0.7500    0.0000 C   0  0  0  0  0  0  0  0  0  0  0  0
   -1.3000   -0.7500    0.0000 C   0  0  0  0  0  0  0  0  0  0  0  0
    3.8981    0.7504    0.0000 C   0  0  0  0  0  0  0  0  0  0  0  0
    3.5629    2.6494    0.0000 C   0  0  0  0  0  0  0  0  0  0  0  0
    1.3000    0.7500    0.0000 C   0  0  0  0  0  0  0  0  0  0  0  0
    2.5989    1.5002    0.0000 C   0  0  0  0  0  0  0  0  0  0  0  0
    1.6346    2.6491    0.0000 O   0  0  0  0  0  0  0  0  0  0  0  0
  4  2  2  0
  5  2  1  0
  6  3  2  0
  7  3  1  0
  8  4  1  0
  9  5  2  0
 10  6  1  0
 11  7  2  0
 14 12  2  0
 15 13  1  0
 16  1  1  0
 16 12  1  0
 16 13  2  0
 17  8  2  0
 17  9  1  0
 18 10  2  0
 18 11  1  0
 19 14  1  0
 19 15  2  0
 20 17  1  0
 20 18  1  0
 20 19  1  0
 21 20  1  0
M  END
>  <NAME>  (653) 
1-(4-METHYLPHENYL)-1,1-DIPHENYLMETHANOL

>  <SYNONYMS>  (653) 


>  <SPECTRUM TYPE>  (653) 
MS1

>  <INSTRUMENT TYPE>  (653) 
EI-B

>  <INSTRUMENT>  (653) 
JEOL JMS-DX-300

>  <ION MODE>  (653) 
P

>  <INCHIKEY>  (653) 
QUMADPCRQDGMNX-UHFFFAOYSA-N

>  <FORMULA>  (653) 
C20H18O

>  <EXACT MASS>  (653) 
274.13576519599997

>  <MW>  (653) 
274

>  <ID>  (653) 
JP011186

>  <CONTRIBUTOR>  (653) 
University of Tokyo Team, {Faculty of Engineering, University of Tokyo

>  <COMMENT>  (653) 
SMILES=Cc(c3)ccc(c3)C(O)(c(c2)cccc2)c(c1)cccc1
InChI=InChI=1S/C20H18O/c1-16-12-14-19(15-13-16)20(21,17-8-4-2-5-9-17)18-10-6-3-7-11-18/h2-15,21H,1H3
computed SMILES=OC(C=1C=CC=CC1)(C=2C=CC=CC2)C3=CC=C(C=C3)C
accession=JP011186
date=2016.01.19 (Created 2008.10.21, modified 2011.05.06)
author=SAWADA M, THE INST. OF SCIENTIFIC AND INDUSTRIALRESEARCH OSAKA UNIV.
license=CC BY-NC-SA
exact mass=274.13577
ionization energy=70 eV
ion type=[M]+*
computed spectral entropy=3.380198894234683
computed normalized entropy=0.7735986349685346
SPLASH=splash10-05vk-3920000000-d7909b3b0311fdcf0b24
submitter=submitter = University of Tokyo Team (Faculty of Engineering, University of Tokyo)
MoNA Rating=3.75

>  <NUM PEAKS>  (653) 
79

>  <MASS SPECTRAL PEAKS>  (653) 
38 1
39 6.4
40 1.2
41 2.8
43 1.8
44 1.4
50 5.2
51 19.1
52 4
53 1
55 1.2
57 1.6
63 3.2
65 11.6
69 1
74 1.2
75 1.3
76 2.8
77 56.6
78 16.8
79 2.2
89 3
90 2.7
91 23.2
92 4.2
98 1.6
105 80.5
106 7
113 1
115 2.7
119 37.1
120 4.1
126 1
127 1.2
128 1.4
139 1.8
149 1.8
151 1.9
152 7.3
153 4.2
154 8.2
155 3.4
163 1.2
164 1.3
165 11.4
166 2.6
167 4.7
168 20
169 20.9
170 3
176 1.2
178 3.9
179 4.4
180 1.1
181 6.1
182 2.4
183 21.2
184 3.6
195 2.8
196 10.9
197 99.99
198 19.1
199 1.8
202 1.2
215 1.8
226 1.6
239 3.2
240 1.4
241 3.4
242 1.4
252 1
255 1.3
256 1.5
257 4
258 2
259 1.8
273 1.8
274 77.7
275 21.1

$$$$

     RDKit          2D

 20 22  0  0  0  0  0  0  0  0999 V2000
    0.5340    5.5708    0.0000 C   0  0  0  0  0  0  0  0  0  0  0  0
    4.4312   -1.1792    0.0000 C   0  0  0  0  0  0  0  0  0  0  0  0
   -3.8976    1.8522    0.0000 C   0  0  0  0  0  0  0  0  0  0  0  0
   -0.7660    4.8208    0.0000 C   0  0  0  0  0  0  0  0  0  0  0  0
    1.8340    4.8208    0.0000 C   0  0  0  0  0  0  0  0  0  0  0  0
    4.4316    0.3217    0.0000 C   0  0  0  0  0  0  0  0  0  0  0  0
    3.1316   -1.9300    0.0000 C   0  0  0  0  0  0  0  0  0  0  0  0
   -3.3847    0.4418    0.0000 C   0  0  0  0  0  0  0  0  0  0  0  0
   -2.9332    3.0023    0.0000 C   0  0  0  0  0  0  0  0  0  0  0  0
   -0.7660    3.3208    0.0000 C   0  0  0  0  0  0  0  0  0  0  0  0
    1.8340    3.3208    0.0000 C   0  0  0  0  0  0  0  0  0  0  0  0
    3.1326    1.0717    0.0000 C   0  0  0  0  0  0  0  0  0  0  0  0
    1.8326   -1.1800    0.0000 C   0  0  0  0  0  0  0  0  0  0  0  0
   -1.9075    0.1813    0.0000 C   0  0  0  0  0  0  0  0  0  0  0  0
   -1.4560    2.7418    0.0000 C   0  0  0  0  0  0  0  0  0  0  0  0
    0.5340    2.5708    0.0000 C   0  0  0  0  0  0  0  0  0  0  0  0
    1.8331    0.3208    0.0000 C   0  0  0  0  0  0  0  0  0  0  0  0
   -0.9432    1.3313    0.0000 C   0  0  0  0  0  0  0  0  0  0  0  0
    0.5340    1.0708    0.0000 C   0  0  0  0  0  0  0  0  0  0  0  0
    0.0210   -0.3387    0.0000 O   0  0  0  0  0  0  0  0  0  0  0  0
  4  1  2  0
  5  1  1  0
  6  2  2  0
  7  2  1  0
  8  3  2  0
  9  3  1  0
 10  4  1  0
 11  5  2  0
 12  6  1  0
 13  7  2  0
 14  8  1  0
 15  9  2  0
 16 10  2  0
 16 11  1  0
 17 12  2  0
 17 13  1  0
 18 14  2  0
 18 15  1  0
 19 16  1  0
 19 17  1  0
 19 18  1  0
 20 19  1  0
M  END
>  <NAME>  (654) 
1,1,1-TRIPHENYLMETHANOL

>  <SYNONYMS>  (654) 


>  <SPECTRUM TYPE>  (654) 
MS1

>  <INSTRUMENT TYPE>  (654) 
EI-B

>  <INSTRUMENT>  (654) 
JEOL JMS-DX-300

>  <ION MODE>  (654) 
P

>  <INCHIKEY>  (654) 
LZTRCELOJRDYMQ-UHFFFAOYSA-N

>  <FORMULA>  (654) 
C19H16O

>  <EXACT MASS>  (654) 
260.120115132

>  <MW>  (654) 
260

>  <ID>  (654) 
JP011185

>  <CONTRIBUTOR>  (654) 
University of Tokyo Team, {Faculty of Engineering, University of Tokyo

>  <COMMENT>  (654) 
SMILES=c(c3)ccc(c3)C(O)(c(c2)cccc2)c(c1)cccc1
InChI=InChI=1S/C19H16O/c20-19(16-10-4-1-5-11-16,17-12-6-2-7-13-17)18-14-8-3-9-15-18/h1-15,20H
computed SMILES=OC(C=1C=CC=CC1)(C=2C=CC=CC2)C=3C=CC=CC3
computed spectral entropy=2.9218266850094947
accession=JP011185
date=2016.01.19 (Created 2008.10.21, modified 2011.05.06)
author=SAWADA M, THE INST. OF SCIENTIFIC AND INDUSTRIALRESEARCH OSAKA UNIV.
license=CC BY-NC-SA
exact mass=260.12012
ionization energy=70 eV
ion type=[M]+*
computed normalized entropy=0.7359223826933694
SPLASH=splash10-06ur-4920000000-5917f68282546c774d9c
submitter=submitter = University of Tokyo Team (Faculty of Engineering, University of Tokyo)
MoNA Rating=3.75

>  <NUM PEAKS>  (654) 
53

>  <MASS SPECTRAL PEAKS>  (654) 
39 5
40 2.1
41 3.1
43 3
44 3.3
50 5.4
51 30.1
52 3.3
53 1.1
55 1.7
57 2.3
63 2.2
65 1.5
69 2.2
74 1.2
75 1.7
76 4
77 82.1
78 10.4
79 2.6
91 3
105 99.99
106 9.2
115 2.3
127 1.2
128 1
139 1.8
149 2.2
151 1.7
152 5.7
153 4.3
154 23.3
155 18.1
156 2.6
163 1.6
164 1.6
165 11
166 2.2
167 1.6
181 6.8
182 17.5
183 86.1
184 14.9
185 1.4
215 1.4
239 2.7
241 2.4
242 1.8
243 2.2
244 1.2
259 1.8
260 61.7
261 16.1

$$$$

     RDKit          2D

 17 18  0  0  0  0  0  0  0  0999 V2000
   -3.5728    0.1874    0.0000 C   0  0  0  0  0  0  0  0  0  0  0  0
   -0.9750   -4.3134    0.0000 C   0  0  0  0  0  0  0  0  0  0  0  0
    1.6239    0.1881    0.0000 C   0  0  0  0  0  0  0  0  0  0  0  0
    5.5205   -0.5626    0.0000 C   0  0  0  0  0  0  0  0  0  0  0  0
    4.2209    0.1883    0.0000 C   0  0  0  0  0  0  0  0  0  0  0  0
    5.5209   -2.0634    0.0000 C   0  0  0  0  0  0  0  0  0  0  0  0
    2.9219   -0.5617    0.0000 C   0  0  0  0  0  0  0  0  0  0  0  0
    4.2219   -2.8134    0.0000 C   0  0  0  0  0  0  0  0  0  0  0  0
   -2.2742   -2.0634    0.0000 C   0  0  0  0  0  0  0  0  0  0  0  0
   -0.9742    0.1883    0.0000 C   0  0  0  0  0  0  0  0  0  0  0  0
   -2.2738   -0.5626    0.0000 C   0  0  0  0  0  0  0  0  0  0  0  0
   -0.9752   -2.8134    0.0000 C   0  0  0  0  0  0  0  0  0  0  0  0
    0.3248   -0.5617    0.0000 C   0  0  0  0  0  0  0  0  0  0  0  0
    2.9224   -2.0626    0.0000 C   0  0  0  0  0  0  0  0  0  0  0  0
    0.3243   -2.0626    0.0000 C   0  0  0  0  0  0  0  0  0  0  0  0
    1.6233   -2.8126    0.0000 C   0  0  0  0  0  0  0  0  0  0  0  0
    1.6233   -4.3126    0.0000 O   0  0  0  0  0  0  0  0  0  0  0  0
  5  4  2  0
  6  4  1  0
  7  5  1  0
  8  6  2  0
 11  1  1  0
 11  9  2  0
 11 10  1  0
 12  2  1  0
 12  9  1  0
 13  3  1  0
 13 10  2  0
 14  7  2  0
 14  8  1  0
 15 12  2  0
 15 13  1  0
 16 14  1  0
 16 15  1  0
 17 16  2  0
M  END
>  <NAME>  (655) 
2,4,6-TRIMETHYLBENZOPHENONE

>  <SYNONYMS>  (655) 


>  <SPECTRUM TYPE>  (655) 
MS1

>  <INSTRUMENT TYPE>  (655) 
EI-B

>  <INSTRUMENT>  (655) 
JEOL JMS-DX-300

>  <ION MODE>  (655) 
P

>  <INCHIKEY>  (655) 
HPAFOABSQZMTHE-UHFFFAOYSA-N

>  <FORMULA>  (655) 
C16H16O

>  <EXACT MASS>  (655) 
224.120115132

>  <MW>  (655) 
224

>  <ID>  (655) 
JP011184

>  <CONTRIBUTOR>  (655) 
University of Tokyo Team, {Faculty of Engineering, University of Tokyo

>  <COMMENT>  (655) 
SMILES=Cc(c2)cc(C)c(c(C)2)C(=O)c(c1)cccc1
InChI=InChI=1S/C16H16O/c1-11-9-12(2)15(13(3)10-11)16(17)14-7-5-4-6-8-14/h4-10H,1-3H3
computed SMILES=O=C(C=1C=CC=CC1)C=2C(=CC(=CC2C)C)C
accession=JP011184
date=2016.01.19 (Created 2008.10.21, modified 2011.05.06)
author=SAWADA M, THE INST. OF SCIENTIFIC AND INDUSTRIALRESEARCH OSAKA UNIV.
license=CC BY-NC-SA
exact mass=224.12012
ionization energy=70 eV
ion type=[M]+*
computed spectral entropy=3.0966706287098744
computed normalized entropy=0.7659241556856252
SPLASH=splash10-00di-3490000000-a2643cd433d432dba546
submitter=submitter = University of Tokyo Team (Faculty of Engineering, University of Tokyo)
MoNA Rating=3.75

>  <NUM PEAKS>  (655) 
57

>  <MASS SPECTRAL PEAKS>  (655) 
39 4.2
40 1.7
41 5.1
50 2.7
51 12.2
52 1.8
53 2.2
63 1.7
65 3.1
75 1.1
76 2.4
77 38.4
78 7
79 2.8
89 1.7
91 16.1
92 1.4
93 1.6
97 1.2
98 1
102 1.4
103 6.4
104 5
105 18
106 1.4
115 7.1
116 1.6
117 7.9
118 2.8
119 19.4
120 2
146 2.4
147 41.6
148 5.1
152 1.3
165 5.8
166 1.8
178 2.8
179 2.7
180 1.1
181 1
191 1.6
192 3.2
193 1.7
194 2.1
195 1.7
205 1.1
206 8.2
207 14.7
208 15
209 30.4
210 6.3
222 1.9
223 90.6
224 99.99
225 21.7
226 2.3

$$$$

     RDKit          2D

 16 17  0  0  0  0  0  0  0  0999 V2000
    5.5220    1.3116    0.0000 C   0  0  0  0  0  0  0  0  0  0  0  0
    2.9230    5.8131    0.0000 C   0  0  0  0  0  0  0  0  0  0  0  0
   -3.5721    2.0622    0.0000 C   0  0  0  0  0  0  0  0  0  0  0  0
   -2.2725    1.3116    0.0000 C   0  0  0  0  0  0  0  0  0  0  0  0
   -3.5729    3.5631    0.0000 C   0  0  0  0  0  0  0  0  0  0  0  0
   -0.9736    2.0618    0.0000 C   0  0  0  0  0  0  0  0  0  0  0  0
   -2.2739    4.3133    0.0000 C   0  0  0  0  0  0  0  0  0  0  0  0
    2.9238    1.3114    0.0000 C   0  0  0  0  0  0  0  0  0  0  0  0
    1.6242    2.0622    0.0000 C   0  0  0  0  0  0  0  0  0  0  0  0
    4.2223    3.5622    0.0000 C   0  0  0  0  0  0  0  0  0  0  0  0
    4.2228    2.0614    0.0000 C   0  0  0  0  0  0  0  0  0  0  0  0
    2.9228    4.3131    0.0000 C   0  0  0  0  0  0  0  0  0  0  0  0
   -0.9743    3.5627    0.0000 C   0  0  0  0  0  0  0  0  0  0  0  0
    1.6238    3.5631    0.0000 C   0  0  0  0  0  0  0  0  0  0  0  0
    0.3246    4.3129    0.0000 C   0  0  0  0  0  0  0  0  0  0  0  0
    0.3244    5.8129    0.0000 O   0  0  0  0  0  0  0  0  0  0  0  0
  4  3  2  0
  5  3  1  0
  6  4  1  0
  7  5  2  0
  9  8  2  0
 11  1  1  0
 11  8  1  0
 11 10  2  0
 12  2  1  0
 12 10  1  0
 13  6  2  0
 13  7  1  0
 14  9  1  0
 14 12  2  0
 15 13  1  0
 15 14  1  0
 16 15  2  0
M  END
>  <NAME>  (656) 
2,4-DIMETHYLBENZOPHENONE

>  <SYNONYMS>  (656) 


>  <SPECTRUM TYPE>  (656) 
MS1

>  <INSTRUMENT TYPE>  (656) 
EI-B

>  <INSTRUMENT>  (656) 
JEOL JMS-DX-300

>  <ION MODE>  (656) 
P

>  <INCHIKEY>  (656) 
UYSQHMXRROFKRN-UHFFFAOYSA-N

>  <FORMULA>  (656) 
C15H14O

>  <EXACT MASS>  (656) 
210.104465068

>  <MW>  (656) 
210

>  <ID>  (656) 
JP011183

>  <CONTRIBUTOR>  (656) 
University of Tokyo Team, {Faculty of Engineering, University of Tokyo

>  <COMMENT>  (656) 
SMILES=Cc(c2)cc(C)c(c2)C(=O)c(c1)cccc1
InChI=InChI=1S/C15H14O/c1-11-8-9-14(12(2)10-11)15(16)13-6-4-3-5-7-13/h3-10H,1-2H3
computed SMILES=O=C(C=1C=CC=CC1)C2=CC=C(C=C2C)C
accession=JP011183
date=2016.01.19 (Created 2008.10.21, modified 2011.05.06)
author=SAWADA M, THE INST. OF SCIENTIFIC AND INDUSTRIALRESEARCH OSAKA UNIV.
license=CC BY-NC-SA
exact mass=210.10447
ionization energy=70 eV
ion type=[M]+*
computed spectral entropy=3.0692630838487847
computed normalized entropy=0.7730572841186357
SPLASH=splash10-0bt9-5980000000-59a6ad9816235c483d96
submitter=submitter = University of Tokyo Team (Faculty of Engineering, University of Tokyo)
MoNA Rating=3.75

>  <NUM PEAKS>  (656) 
53

>  <MASS SPECTRAL PEAKS>  (656) 
39 6.9
40 1
50 5
51 20.4
52 2.9
53 2.9
62 1.3
63 4.8
64 1.1
65 3.7
74 1.5
75 2.2
76 3.6
77 52.7
78 10.9
79 14.8
89 3.4
90 2.2
91 2.9
102 2.3
103 12.7
104 6
105 36.9
106 3.2
115 2.2
119 3.8
128 1
132 1.2
133 33.8
134 3.8
139 1.7
151 1.2
152 3.6
153 1.5
164 1
165 13.1
166 4.8
167 2.2
177 1.5
178 5.7
179 2.1
181 2.8
191 3
192 6.7
193 8.1
194 16.8
195 34.6
196 8.3
208 2.8
209 99.99
210 98.2
211 20.2
212 2

$$$$

     RDKit          2D

 15 16  0  0  0  0  0  0  0  0999 V2000
    2.5921    1.0731    0.0000 C   0  0  0  0  0  0  0  0  0  0  0  0
    2.5925    2.5740    0.0000 C   0  0  0  0  0  0  0  0  0  0  0  0
    1.2925    0.3223    0.0000 C   0  0  0  0  0  0  0  0  0  0  0  0
   -5.1990    2.5640    0.0000 C   0  0  0  0  0  0  0  0  0  0  0  0
   -5.2072    1.0617    0.0000 C   0  0  0  0  0  0  0  0  0  0  0  0
    1.2935    3.3240    0.0000 C   0  0  0  0  0  0  0  0  0  0  0  0
   -0.0065    1.0723    0.0000 C   0  0  0  0  0  0  0  0  0  0  0  0
   -3.9069    3.3258    0.0000 C   0  0  0  0  0  0  0  0  0  0  0  0
   -3.8958    0.3141    0.0000 C   0  0  0  0  0  0  0  0  0  0  0  0
   -0.0060    2.5731    0.0000 C   0  0  0  0  0  0  0  0  0  0  0  0
   -2.6041    2.5731    0.0000 C   0  0  0  0  0  0  0  0  0  0  0  0
   -2.6036    1.0759    0.0000 C   0  0  0  0  0  0  0  0  0  0  0  0
   -1.3051    3.3231    0.0000 C   0  0  0  0  0  0  0  0  0  0  0  0
   -1.3011    0.3320    0.0000 Cl  0  0  0  0  0  0  0  0  0  0  0  0
   -1.3051    4.8231    0.0000 O   0  0  0  0  0  0  0  0  0  0  0  0
  2  1  2  0
  3  1  1  0
  5  4  2  0
  6  2  1  0
  7  3  2  0
  8  4  1  0
  9  5  1  0
 10  6  2  0
 10  7  1  0
 11  8  2  0
 12  9  2  0
 12 11  1  0
 13 10  1  0
 13 11  1  0
 14 12  1  0
 15 13  2  0
M  END
>  <NAME>  (657) 
2-CHLOROBENZOPHENONE

>  <SYNONYMS>  (657) 


>  <SPECTRUM TYPE>  (657) 
MS1

>  <INSTRUMENT TYPE>  (657) 
EI-B

>  <INSTRUMENT>  (657) 
JEOL JMS-DX-300

>  <ION MODE>  (657) 
P

>  <INCHIKEY>  (657) 
VMHYWKBKHMYRNF-UHFFFAOYSA-N

>  <FORMULA>  (657) 
C13H9ClO

>  <EXACT MASS>  (657) 
216.034192588

>  <MW>  (657) 
216

>  <ID>  (657) 
JP011182

>  <CONTRIBUTOR>  (657) 
University of Tokyo Team, {Faculty of Engineering, University of Tokyo

>  <COMMENT>  (657) 
SMILES=c(c2)ccc(c2)C(=O)c(c1)c(Cl)ccc1
InChI=InChI=1S/C13H9ClO/c14-12-9-5-4-8-11(12)13(15)10-6-2-1-3-7-10/h1-9H
computed SMILES=O=C(C=1C=CC=CC1)C=2C=CC=CC2Cl
ionization energy=70 eV
accession=JP011182
date=2016.01.19 (Created 2008.10.21, modified 2011.05.06)
author=SAWADA M, THE INST. OF SCIENTIFIC AND INDUSTRIALRESEARCH OSAKA UNIV.
license=CC BY-NC-SA
exact mass=216.03419
ion type=[M]+*
computed spectral entropy=2.8633163092238725
computed normalized entropy=0.7762021895376999
SPLASH=splash10-0699-4940000000-a66bbaef7592513cc5c3
submitter=submitter = University of Tokyo Team (Faculty of Engineering, University of Tokyo)
MoNA Rating=3.75

>  <NUM PEAKS>  (657) 
40

>  <MASS SPECTRAL PEAKS>  (657) 
38 1
39 2.2
50 13.3
51 24.9
52 1.5
62 1
63 2
74 7.1
75 24
76 10.9
77 53.4
78 4.1
85 2.6
86 1.2
87 1.8
94 1.1
105 99.99
106 11
110 1.1
111 27.1
112 2.6
113 9.2
126 1.8
139 65
140 5.8
141 21.4
142 1.8
150 2.2
151 4.7
152 11
153 3.7
180 2
181 10
182 1.7
188 2.2
215 1.3
216 80.5
217 14.9
218 28.1
219 5

$$$$

     RDKit          2D

 16 17  0  0  0  0  0  0  0  0999 V2000
    3.8969    4.8754    0.0000 C   0  0  0  0  0  0  0  0  0  0  0  0
   -3.8975    0.3748    0.0000 C   0  0  0  0  0  0  0  0  0  0  0  0
   -2.5978   -0.3758    0.0000 C   0  0  0  0  0  0  0  0  0  0  0  0
   -3.8982    1.8756    0.0000 C   0  0  0  0  0  0  0  0  0  0  0  0
    2.5984   -0.3760    0.0000 C   0  0  0  0  0  0  0  0  0  0  0  0
    3.8975    0.3740    0.0000 C   0  0  0  0  0  0  0  0  0  0  0  0
   -1.2989    0.3744    0.0000 C   0  0  0  0  0  0  0  0  0  0  0  0
   -2.5993    2.6258    0.0000 C   0  0  0  0  0  0  0  0  0  0  0  0
    1.2989    0.3748    0.0000 C   0  0  0  0  0  0  0  0  0  0  0  0
    3.8970    1.8748    0.0000 C   0  0  0  0  0  0  0  0  0  0  0  0
   -1.2996    1.8752    0.0000 C   0  0  0  0  0  0  0  0  0  0  0  0
    1.2984    1.8756    0.0000 C   0  0  0  0  0  0  0  0  0  0  0  0
    2.5975    2.6256    0.0000 C   0  0  0  0  0  0  0  0  0  0  0  0
   -0.0007    2.6254    0.0000 C   0  0  0  0  0  0  0  0  0  0  0  0
   -0.0010    4.1254    0.0000 O   0  0  0  0  0  0  0  0  0  0  0  0
    2.5977    4.1256    0.0000 O   0  0  0  0  0  0  0  0  0  0  0  0
  3  2  2  0
  4  2  1  0
  6  5  2  0
  7  3  1  0
  8  4  2  0
  9  5  1  0
 10  6  1  0
 11  7  2  0
 11  8  1  0
 12  9  2  0
 13 10  2  0
 13 12  1  0
 14 11  1  0
 14 12  1  0
 15 14  2  0
 16  1  1  0
 16 13  1  0
M  END
>  <NAME>  (658) 
2-METHOXYBENZOPHENONE

>  <SYNONYMS>  (658) 


>  <SPECTRUM TYPE>  (658) 
MS1

>  <INSTRUMENT TYPE>  (658) 
EI-B

>  <INSTRUMENT>  (658) 
JEOL JMS-DX-300

>  <ION MODE>  (658) 
P

>  <INCHIKEY>  (658) 
CSUUDNFYSFENAE-UHFFFAOYSA-N

>  <FORMULA>  (658) 
C14H12O2

>  <EXACT MASS>  (658) 
212.083729624

>  <MW>  (658) 
212

>  <ID>  (658) 
JP011181

>  <CONTRIBUTOR>  (658) 
University of Tokyo Team, {Faculty of Engineering, University of Tokyo

>  <COMMENT>  (658) 
SMILES=COc(c2)c(ccc2)C(=O)c(c1)cccc1
InChI=InChI=1S/C14H12O2/c1-16-13-10-6-5-9-12(13)14(15)11-7-3-2-4-8-11/h2-10H,1H3
computed SMILES=O=C(C=1C=CC=CC1)C=2C=CC=CC2OC
accession=JP011181
date=2016.01.19 (Created 2008.10.21, modified 2011.05.06)
author=SAWADA M, THE INST. OF SCIENTIFIC AND INDUSTRIALRESEARCH OSAKA UNIV.
license=CC BY-NC-SA
exact mass=212.08373
ionization energy=70 eV
ion type=[M]+*
computed spectral entropy=3.1221148517664856
computed normalized entropy=0.78268421616165
SPLASH=splash10-03g0-6940000000-b4443bb784cbccf5a7ae
submitter=submitter = University of Tokyo Team (Faculty of Engineering, University of Tokyo)
MoNA Rating=3.75

>  <NUM PEAKS>  (658) 
54

>  <MASS SPECTRAL PEAKS>  (658) 
38 1.8
39 4
40 1.4
50 8.3
51 25.7
52 1.9
53 1.7
62 1.9
63 8.7
64 8.5
65 2.2
74 2.7
75 2.8
76 6.8
77 67.3
78 8.7
79 3.8
89 1.1
91 4.5
92 21
93 1.7
105 35.3
106 3.6
107 1.8
115 3.7
120 3.2
121 24.3
122 2
134 4.2
135 86.2
136 9.8
139 2.8
141 2
151 1.7
152 4.7
153 2
165 3.7
166 1.2
167 6.7
168 2.8
169 3.8
181 5.5
182 1.2
183 2
193 1
194 13.7
195 31
196 7.9
197 9.7
198 1.4
211 11.2
212 99.99
213 20.3
214 2.3

$$$$

     RDKit          2D

 17 18  0  0  0  0  0  0  0  0999 V2000
    1.9462    2.1934    0.0000 C   0  0  0  0  0  0  0  0  0  0  0  0
    1.9467    3.6942    0.0000 C   0  0  0  0  0  0  0  0  0  0  0  0
    0.6467    1.4425    0.0000 C   0  0  0  0  0  0  0  0  0  0  0  0
   -5.8435    3.6899    0.0000 C   0  0  0  0  0  0  0  0  0  0  0  0
    0.6477    4.4442    0.0000 C   0  0  0  0  0  0  0  0  0  0  0  0
   -0.6523    2.1925    0.0000 C   0  0  0  0  0  0  0  0  0  0  0  0
   -4.5432    4.4377    0.0000 C   0  0  0  0  0  0  0  0  0  0  0  0
   -5.8505    2.1977    0.0000 C   0  0  0  0  0  0  0  0  0  0  0  0
   -3.2520    2.1925    0.0000 C   0  0  0  0  0  0  0  0  0  0  0  0
   -0.6518    3.6934    0.0000 C   0  0  0  0  0  0  0  0  0  0  0  0
   -3.2499    3.6934    0.0000 C   0  0  0  0  0  0  0  0  0  0  0  0
   -4.5522    1.4447    0.0000 C   0  0  0  0  0  0  0  0  0  0  0  0
   -1.9509    4.4434    0.0000 C   0  0  0  0  0  0  0  0  0  0  0  0
   -4.5550   -0.0553    0.0000 N   0  0  0  0  0  0  0  0  0  0  0  0
   -1.9509    5.9434    0.0000 O   0  0  0  0  0  0  0  0  0  0  0  0
   -5.8554   -0.8029    0.0000 O   0  0  0  0  0  0  0  0  0  0  0  0
   -3.2573   -0.8077    0.0000 O   0  0  0  0  0  0  0  0  0  0  0  0
  2  1  2  0
  3  1  1  0
  5  2  1  0
  6  3  2  0
  7  4  2  0
  8  4  1  0
 10  5  2  0
 10  6  1  0
 11  7  1  0
 11  9  2  0
 12  8  2  0
 12  9  1  0
 13 10  1  0
 13 11  1  0
 14 12  1  0
 15 13  2  0
 16 14  1  0
 17 14  2  0
M  CHG  2  14   1  16  -1
M  END
>  <NAME>  (659) 
3-NITROBENZOPHENONE

>  <SYNONYMS>  (659) 


>  <SPECTRUM TYPE>  (659) 
MS1

>  <INSTRUMENT TYPE>  (659) 
EI-B

>  <INSTRUMENT>  (659) 
JEOL JMS-DX-300

>  <ION MODE>  (659) 
P

>  <INCHIKEY>  (659) 
MFYLRNKOXORIPK-UHFFFAOYSA-N

>  <FORMULA>  (659) 
C13H9NO3

>  <EXACT MASS>  (659) 
227.05824314799997

>  <MW>  (659) 
227

>  <ID>  (659) 
JP011180

>  <CONTRIBUTOR>  (659) 
University of Tokyo Team, {Faculty of Engineering, University of Tokyo

>  <COMMENT>  (659) 
SMILES=[O-1][N+1](=O)c(c2)cc(cc2)C(=O)c(c1)cccc1
InChI=InChI=1S/C13H9NO3/c15-13(10-5-2-1-3-6-10)11-7-4-8-12(9-11)14(16)17/h1-9H
computed SMILES=O=C(C=1C=CC=CC1)C2=CC=CC(=C2)N(=O)=O
accession=JP011180
date=2016.01.19 (Created 2008.10.21, modified 2011.05.06)
author=SAWADA M, THE INST. OF SCIENTIFIC AND INDUSTRIALRESEARCH OSAKA UNIV.
license=CC BY-NC-SA
exact mass=227.05824
ionization energy=70 eV
ion type=[M]+*
computed spectral entropy=3.2678384596150765
computed normalized entropy=0.7545693079775306
SPLASH=splash10-0kdi-9630000000-3ca6be8c3cf21338b407
submitter=submitter = University of Tokyo Team (Faculty of Engineering, University of Tokyo)
MoNA Rating=3.75

>  <NUM PEAKS>  (659) 
76

>  <MASS SPECTRAL PEAKS>  (659) 
38 1.7
39 5.1
40 2.2
41 4.3
43 4.7
44 12.7
45 1
46 1
50 29.2
51 44.6
52 2.9
53 1.8
55 3.9
56 1.5
57 3.8
60 1.3
62 2.2
63 6.2
64 2.7
65 2.3
67 1
69 2.6
71 1.8
73 1.9
74 10.4
75 15.6
76 41.8
77 81.6
78 10.6
81 1.3
83 1.7
85 1.5
86 1.2
87 1.9
91 2.4
92 4.8
95 1.4
97 1.6
98 1.7
99 1.4
101 1.2
102 1.2
104 19.4
105 99.99
106 21.4
107 1.6
111 1.6
113 1.2
115 2
119 4.4
120 1.9
122 1.8
123 1.2
125 1.2
126 3.4
127 1.7
135 1.2
139 2
141 2.1
145 1.1
149 2
150 29.6
151 9.7
152 13.4
153 5.2
180 5.6
181 7.1
182 1.8
196 1.4
197 2.7
210 4.9
211 1.6
216 1
227 97.7
228 20.9
229 2.6

$$$$

     RDKit          2D

 18 19  0  0  0  0  0  0  0  0999 V2000
    0.0000   -1.9300    0.0000 C   0  0  0  0  0  0  0  0  0  0  0  0
    1.3000   -1.1800    0.0000 C   0  0  0  0  0  0  0  0  0  0  0  0
   -1.3000   -1.1800    0.0000 C   0  0  0  0  0  0  0  0  0  0  0  0
   -2.5988    5.5644    0.0000 C   0  0  0  0  0  0  0  0  0  0  0  0
    1.3000    0.3200    0.0000 C   0  0  0  0  0  0  0  0  0  0  0  0
   -1.3000    0.3200    0.0000 C   0  0  0  0  0  0  0  0  0  0  0  0
   -1.3011    4.8122    0.0000 C   0  0  0  0  0  0  0  0  0  0  0  0
   -3.8946    4.8243    0.0000 C   0  0  0  0  0  0  0  0  0  0  0  0
   -2.5998    2.5713    0.0000 C   0  0  0  0  0  0  0  0  0  0  0  0
    0.0000    1.0700    0.0000 C   0  0  0  0  0  0  0  0  0  0  0  0
   -1.2990    3.3200    0.0000 C   0  0  0  0  0  0  0  0  0  0  0  0
   -3.8976    3.3235    0.0000 C   0  0  0  0  0  0  0  0  0  0  0  0
    0.0000    2.5700    0.0000 C   0  0  0  0  0  0  0  0  0  0  0  0
   -5.1980    2.5759    0.0000 C   0  0  0  0  0  0  0  0  0  0  0  0
   -5.9456    3.8763    0.0000 F   0  0  0  0  0  0  0  0  0  0  0  0
   -6.4984    1.8283    0.0000 F   0  0  0  0  0  0  0  0  0  0  0  0
   -4.4504    1.2755    0.0000 F   0  0  0  0  0  0  0  0  0  0  0  0
    1.2990    3.3200    0.0000 O   0  0  0  0  0  0  0  0  0  0  0  0
  2  1  2  0
  3  1  1  0
  5  2  1  0
  6  3  2  0
  7  4  2  0
  8  4  1  0
 10  5  2  0
 10  6  1  0
 11  7  1  0
 11  9  2  0
 12  8  2  0
 12  9  1  0
 13 10  1  0
 13 11  1  0
 14 12  1  0
 15 14  1  0
 16 14  1  0
 17 14  1  0
 18 13  2  0
M  END
>  <NAME>  (660) 
3-TRIFLUOROMETHYLBENZOPHENONE

>  <SYNONYMS>  (660) 


>  <SPECTRUM TYPE>  (660) 
MS1

>  <INSTRUMENT TYPE>  (660) 
EI-B

>  <INSTRUMENT>  (660) 
JEOL JMS-DX-300

>  <ION MODE>  (660) 
P

>  <INCHIKEY>  (660) 
IOXDAYKKVHAKSX-UHFFFAOYSA-N

>  <FORMULA>  (660) 
C14H9F3O

>  <EXACT MASS>  (660) 
250.060549568

>  <MW>  (660) 
250

>  <ID>  (660) 
JP011179

>  <CONTRIBUTOR>  (660) 
University of Tokyo Team, {Faculty of Engineering, University of Tokyo

>  <COMMENT>  (660) 
SMILES=c(c2)ccc(c2)C(=O)c(c1)cc(cc1)C(F)(F)F
InChI=InChI=1S/C14H9F3O/c15-14(16,17)12-8-4-7-11(9-12)13(18)10-5-2-1-3-6-10/h1-9H
computed SMILES=O=C(C=1C=CC=CC1)C2=CC=CC(=C2)C(F)(F)F
accession=JP011179
date=2016.01.19 (Created 2008.10.21, modified 2011.05.06)
author=SAWADA M, THE INST. OF SCIENTIFIC AND INDUSTRIALRESEARCH OSAKA UNIV.
license=CC BY-NC-SA
exact mass=250.06055
ionization energy=70 eV
ion type=[M]+*
computed spectral entropy=2.947129864104976
computed normalized entropy=0.7612960049867836
SPLASH=splash10-0zi1-7930000000-96d4de0d5e96cef8c563
submitter=submitter = University of Tokyo Team (Faculty of Engineering, University of Tokyo)
MoNA Rating=3.75

>  <NUM PEAKS>  (660) 
48

>  <MASS SPECTRAL PEAKS>  (660) 
38 1.2
39 3.2
50 18.9
51 43.7
52 2.6
57 2.4
62 1.7
63 2.4
69 3.8
74 7.2
75 16.5
76 10.4
77 76.7
78 7
81 1
87 1
94 1.2
95 13.9
96 1
99 2.6
100 1.4
101 1
105 99.99
106 15.4
107 1.9
110 1.7
111 1.2
125 9.3
126 5.4
144 1.6
145 51.5
146 4.7
150 1
151 2.2
152 5.1
153 2
173 37.7
174 4
181 8.7
182 1.6
183 1.8
201 4.6
222 1.6
231 11.6
232 2.3
249 1.2
250 58
251 11.9

$$$$

     RDKit          2D

 15 16  0  0  0  0  0  0  0  0999 V2000
   -5.8542    3.6957    0.0000 C   0  0  0  0  0  0  0  0  0  0  0  0
   -5.8547    2.1948    0.0000 C   0  0  0  0  0  0  0  0  0  0  0  0
   -4.5547    4.4465    0.0000 C   0  0  0  0  0  0  0  0  0  0  0  0
    0.6488    4.4517    0.0000 C   0  0  0  0  0  0  0  0  0  0  0  0
   -4.5557    1.4448    0.0000 C   0  0  0  0  0  0  0  0  0  0  0  0
   -3.2557    3.6965    0.0000 C   0  0  0  0  0  0  0  0  0  0  0  0
   -0.6535    3.6957    0.0000 C   0  0  0  0  0  0  0  0  0  0  0  0
    1.9465    3.6877    0.0000 C   0  0  0  0  0  0  0  0  0  0  0  0
    0.6397    1.4517    0.0000 C   0  0  0  0  0  0  0  0  0  0  0  0
   -3.2562    2.1957    0.0000 C   0  0  0  0  0  0  0  0  0  0  0  0
   -0.6581    2.1957    0.0000 C   0  0  0  0  0  0  0  0  0  0  0  0
    1.9419    2.1877    0.0000 C   0  0  0  0  0  0  0  0  0  0  0  0
   -1.9571    1.4457    0.0000 C   0  0  0  0  0  0  0  0  0  0  0  0
    3.2363    1.4298    0.0000 Cl  0  0  0  0  0  0  0  0  0  0  0  0
   -1.9571   -0.0543    0.0000 O   0  0  0  0  0  0  0  0  0  0  0  0
  2  1  2  0
  3  1  1  0
  5  2  1  0
  6  3  2  0
  7  4  2  0
  8  4  1  0
 10  5  2  0
 10  6  1  0
 11  7  1  0
 11  9  2  0
 12  8  2  0
 12  9  1  0
 13 10  1  0
 13 11  1  0
 14 12  1  0
 15 13  2  0
M  END
>  <NAME>  (661) 
3-CHLOROBENZOPHENONE

>  <SYNONYMS>  (661) 


>  <SPECTRUM TYPE>  (661) 
MS1

>  <INSTRUMENT TYPE>  (661) 
EI-B

>  <INSTRUMENT>  (661) 
JEOL JMS-DX-300

>  <ION MODE>  (661) 
P

>  <INCHIKEY>  (661) 
CPLWKNRPZVNELG-UHFFFAOYSA-N

>  <FORMULA>  (661) 
C13H9ClO

>  <EXACT MASS>  (661) 
216.034192588

>  <MW>  (661) 
216

>  <ID>  (661) 
JP011178

>  <CONTRIBUTOR>  (661) 
University of Tokyo Team, {Faculty of Engineering, University of Tokyo

>  <COMMENT>  (661) 
SMILES=Clc(c2)cc(cc2)C(=O)c(c1)cccc1
InChI=InChI=1S/C13H9ClO/c14-12-8-4-7-11(9-12)13(15)10-5-2-1-3-6-10/h1-9H
computed SMILES=O=C(C=1C=CC=CC1)C=2C=CC=C(Cl)C2
accession=JP011178
date=2016.01.19 (Created 2008.10.21, modified 2011.05.06)
author=SAWADA M, THE INST. OF SCIENTIFIC AND INDUSTRIALRESEARCH OSAKA UNIV.
license=CC BY-NC-SA
exact mass=216.03419
ionization energy=70 eV
ion type=[M]+*
computed spectral entropy=3.1756982674558105
computed normalized entropy=0.7821063512546265
SPLASH=splash10-0kxr-9820000000-9e9106b4c81e03e7393b
submitter=submitter = University of Tokyo Team (Faculty of Engineering, University of Tokyo)
MoNA Rating=3.75

>  <NUM PEAKS>  (661) 
58

>  <MASS SPECTRAL PEAKS>  (661) 
38 1.8
39 4.6
40 2.5
43 1
44 8.2
49 1
50 27.8
51 50.3
52 3.2
53 1.6
61 1.9
62 2.4
63 4.6
65 1.7
73 2
74 13.8
75 41.3
76 21.5
77 77.1
78 6.9
84 1.3
85 4.6
86 1.9
87 3
90 1.3
91 2.6
94 1.8
95 1.3
98 1.5
99 1.5
104 1.8
105 99.99
106 14.1
110 1.6
111 36.2
112 3.3
113 12.2
114 1.2
119 4.7
123 1.3
125 1
126 2.1
139 36.1
140 3.3
141 11.6
142 1.2
150 3
151 4.8
152 10
153 3.4
181 13.1
182 2.7
188 2.1
196 2.5
216 59.7
217 11
218 20.7
219 3.5

$$$$

     RDKit          2D

 15 16  0  0  0  0  0  0  0  0999 V2000
   -3.5763   -0.5718    0.0000 C   0  0  0  0  0  0  0  0  0  0  0  0
    5.5184   -2.8196    0.0000 C   0  0  0  0  0  0  0  0  0  0  0  0
    5.5192   -1.3188    0.0000 C   0  0  0  0  0  0  0  0  0  0  0  0
    4.2188   -3.5702    0.0000 C   0  0  0  0  0  0  0  0  0  0  0  0
   -0.9725   -3.5618    0.0000 C   0  0  0  0  0  0  0  0  0  0  0  0
   -2.2715   -2.8118    0.0000 C   0  0  0  0  0  0  0  0  0  0  0  0
    4.2202   -0.5685    0.0000 C   0  0  0  0  0  0  0  0  0  0  0  0
    2.9199   -2.8200    0.0000 C   0  0  0  0  0  0  0  0  0  0  0  0
    0.3220   -2.8196    0.0000 C   0  0  0  0  0  0  0  0  0  0  0  0
   -0.9765   -0.5688    0.0000 C   0  0  0  0  0  0  0  0  0  0  0  0
   -2.2760   -1.3196    0.0000 C   0  0  0  0  0  0  0  0  0  0  0  0
    2.9206   -1.3192    0.0000 C   0  0  0  0  0  0  0  0  0  0  0  0
    0.3225   -1.3188    0.0000 C   0  0  0  0  0  0  0  0  0  0  0  0
    1.6217   -0.5690    0.0000 C   0  0  0  0  0  0  0  0  0  0  0  0
    1.6219    0.9310    0.0000 O   0  0  0  0  0  0  0  0  0  0  0  0
  3  2  2  0
  4  2  1  0
  6  5  2  0
  7  3  1  0
  8  4  2  0
  9  5  1  0
 11  1  1  0
 11  6  1  0
 11 10  2  0
 12  7  2  0
 12  8  1  0
 13  9  2  0
 13 10  1  0
 14 12  1  0
 14 13  1  0
 15 14  2  0
M  END
>  <NAME>  (662) 
3-METHYLBENZOPHENONE

>  <SYNONYMS>  (662) 


>  <SPECTRUM TYPE>  (662) 
MS1

>  <INSTRUMENT TYPE>  (662) 
EI-B

>  <INSTRUMENT>  (662) 
JEOL JMS-DX-300

>  <ION MODE>  (662) 
P

>  <INCHIKEY>  (662) 
URBLVRAVOIVZFJ-UHFFFAOYSA-N

>  <FORMULA>  (662) 
C14H12O

>  <EXACT MASS>  (662) 
196.088815004

>  <MW>  (662) 
196

>  <ID>  (662) 
JP011177

>  <CONTRIBUTOR>  (662) 
University of Tokyo Team, {Faculty of Engineering, University of Tokyo

>  <COMMENT>  (662) 
SMILES=Cc(c2)cc(cc2)C(=O)c(c1)cccc1
InChI=InChI=1S/C14H12O/c1-11-6-5-9-13(10-11)14(15)12-7-3-2-4-8-12/h2-10H,1H3
computed SMILES=O=C(C=1C=CC=CC1)C2=CC=CC(=C2)C
accession=JP011177
date=2016.01.19 (Created 2008.10.21, modified 2011.05.06)
author=SAWADA M, THE INST. OF SCIENTIFIC AND INDUSTRIALRESEARCH OSAKA UNIV.
license=CC BY-NC-SA
exact mass=196.08882
ionization energy=70 eV
ion type=[M]+*
computed spectral entropy=3.1752101503577714
computed normalized entropy=0.778707784793843
SPLASH=splash10-0691-8900000000-ff3726000289e47013f8
submitter=submitter = University of Tokyo Team (Faculty of Engineering, University of Tokyo)
MoNA Rating=3.75

>  <NUM PEAKS>  (662) 
59

>  <MASS SPECTRAL PEAKS>  (662) 
38 2.8
39 24.5
40 4
41 6.1
43 1.2
44 1.2
50 14.9
51 46.6
52 4.6
53 2.2
62 5.9
63 19.5
64 5.7
65 49.6
66 2.9
74 4.8
75 5.3
76 7.3
77 75
78 7.3
82 1.2
83 2.4
84 2.8
86 1.7
87 2.2
89 16
90 8.4
91 73.5
92 8.4
98 1.7
102 1
105 80.3
106 7.3
115 3.3
118 1.2
119 99.99
120 14.8
121 1.3
126 1.2
128 1.3
136 5.9
139 2.7
151 1.9
152 8.2
153 3.3
163 1.3
164 1.7
165 9.2
166 2.7
167 4.3
168 4.7
181 30.3
182 5.8
185 1.1
186 2
195 7.8
196 97.6
197 19.1
198 1.9

$$$$

     RDKit          2D

 15 16  0  0  0  0  0  0  0  0999 V2000
    2.2743    1.6329    0.0000 C   0  0  0  0  0  0  0  0  0  0  0  0
    2.2748    3.1337    0.0000 C   0  0  0  0  0  0  0  0  0  0  0  0
    0.9748    0.8821    0.0000 C   0  0  0  0  0  0  0  0  0  0  0  0
    0.9757    3.8837    0.0000 C   0  0  0  0  0  0  0  0  0  0  0  0
   -0.3243    1.6321    0.0000 C   0  0  0  0  0  0  0  0  0  0  0  0
   -2.9221    1.6329    0.0000 C   0  0  0  0  0  0  0  0  0  0  0  0
   -4.2218    3.8831    0.0000 C   0  0  0  0  0  0  0  0  0  0  0  0
   -4.2222    0.8831    0.0000 C   0  0  0  0  0  0  0  0  0  0  0  0
   -5.5219    3.1333    0.0000 C   0  0  0  0  0  0  0  0  0  0  0  0
   -0.3238    3.1329    0.0000 C   0  0  0  0  0  0  0  0  0  0  0  0
   -2.9219    3.1329    0.0000 C   0  0  0  0  0  0  0  0  0  0  0  0
   -5.5221    1.6333    0.0000 C   0  0  0  0  0  0  0  0  0  0  0  0
   -1.6228    3.8829    0.0000 C   0  0  0  0  0  0  0  0  0  0  0  0
   -6.8212    0.8833    0.0000 F   0  0  0  0  0  0  0  0  0  0  0  0
   -1.6228    5.3829    0.0000 O   0  0  0  0  0  0  0  0  0  0  0  0
  2  1  2  0
  3  1  1  0
  4  2  1  0
  5  3  2  0
  8  6  2  0
  9  7  1  0
 10  4  2  0
 10  5  1  0
 11  6  1  0
 11  7  2  0
 12  8  1  0
 12  9  2  0
 13 10  1  0
 13 11  1  0
 14 12  1  0
 15 13  2  0
M  END
>  <NAME>  (663) 
4-FLUOROBENZOPHENONE

>  <SYNONYMS>  (663) 


>  <SPECTRUM TYPE>  (663) 
MS1

>  <INSTRUMENT TYPE>  (663) 
EI-B

>  <INSTRUMENT>  (663) 
JEOL JMS-DX-300

>  <ION MODE>  (663) 
P

>  <INCHIKEY>  (663) 
OGTSHGYHILFRHD-UHFFFAOYSA-N

>  <FORMULA>  (663) 
C13H9FO

>  <EXACT MASS>  (663) 
200.063743128

>  <MW>  (663) 
200

>  <ID>  (663) 
JP011176

>  <CONTRIBUTOR>  (663) 
University of Tokyo Team, {Faculty of Engineering, University of Tokyo

>  <COMMENT>  (663) 
SMILES=Fc(c2)ccc(c2)C(=O)c(c1)cccc1
InChI=InChI=1S/C13H9FO/c14-12-8-6-11(7-9-12)13(15)10-4-2-1-3-5-10/h1-9H
computed SMILES=O=C(C=1C=CC=CC1)C2=CC=C(F)C=C2
accession=JP011176
date=2016.01.19 (Created 2008.10.21, modified 2011.05.06)
author=SAWADA M, THE INST. OF SCIENTIFIC AND INDUSTRIALRESEARCH OSAKA UNIV.
license=CC BY-NC-SA
exact mass=200.06374
ionization energy=70 eV
ion type=[M]+*
computed spectral entropy=2.9645873536960115
computed normalized entropy=0.7539976668909084
SPLASH=splash10-0ufr-9630000000-7e761e728c37cae11d58
submitter=submitter = University of Tokyo Team (Faculty of Engineering, University of Tokyo)
MoNA Rating=3.75

>  <NUM PEAKS>  (663) 
51

>  <MASS SPECTRAL PEAKS>  (663) 
38 1.7
39 4.8
50 22.4
51 50.5
52 3
53 1.2
57 2.6
61 1
62 2.5
63 3.4
68 3.2
69 6.8
70 1.3
73 2.3
74 11.3
75 42.9
76 11
77 72.7
78 7.5
81 1.1
85 3.8
86 9.5
87 1.4
93 1.8
94 7.7
95 76.8
96 7.8
98 1.2
99 1.3
105 85.7
106 12.8
107 1.6
120 1.2
122 1.1
123 94.3
124 15.3
125 2.1
144 1.8
150 1.5
151 2
152 1.3
168 1.2
169 3
170 11.3
171 5.2
172 4.8
183 1.7
199 19.1
200 99.99
201 22.1
202 2.2

$$$$

     RDKit          2D

 16 17  0  0  0  0  0  0  0  0999 V2000
    6.1804    0.9239    0.0000 C   0  0  0  0  0  0  0  0  0  0  0  0
   -4.2301    0.9471    0.0000 C   0  0  0  0  0  0  0  0  0  0  0  0
   -2.9343    0.1899    0.0000 C   0  0  0  0  0  0  0  0  0  0  0  0
   -4.2232    2.4479    0.0000 C   0  0  0  0  0  0  0  0  0  0  0  0
   -1.6316    0.9334    0.0000 C   0  0  0  0  0  0  0  0  0  0  0  0
   -2.9205    3.1915    0.0000 C   0  0  0  0  0  0  0  0  0  0  0  0
    2.2724    3.1715    0.0000 C   0  0  0  0  0  0  0  0  0  0  0  0
    0.9589    0.9466    0.0000 C   0  0  0  0  0  0  0  0  0  0  0  0
    3.5569    2.4466    0.0000 C   0  0  0  0  0  0  0  0  0  0  0  0
    2.2834    0.1525    0.0000 C   0  0  0  0  0  0  0  0  0  0  0  0
   -1.6247    2.4343    0.0000 C   0  0  0  0  0  0  0  0  0  0  0  0
    0.9734    2.4215    0.0000 C   0  0  0  0  0  0  0  0  0  0  0  0
    3.5824    0.9025    0.0000 C   0  0  0  0  0  0  0  0  0  0  0  0
   -0.3220    3.1779    0.0000 C   0  0  0  0  0  0  0  0  0  0  0  0
   -0.3146    4.6778    0.0000 O   0  0  0  0  0  0  0  0  0  0  0  0
    4.8876    0.1632    0.0000 O   0  0  0  0  0  0  0  0  0  0  0  0
  3  2  2  0
  4  2  1  0
  5  3  1  0
  6  4  2  0
  9  7  2  0
 10  8  1  0
 11  5  2  0
 11  6  1  0
 12  7  1  0
 12  8  2  0
 13  9  1  0
 13 10  2  0
 14 11  1  0
 14 12  1  0
 15 14  2  0
 16  1  1  0
 16 13  1  0
M  END
>  <NAME>  (664) 
4-METHOXYBENZOPHENONE

>  <SYNONYMS>  (664) 


>  <SPECTRUM TYPE>  (664) 
MS1

>  <INSTRUMENT TYPE>  (664) 
EI-B

>  <INSTRUMENT>  (664) 
JEOL JMS-DX-300

>  <ION MODE>  (664) 
P

>  <INCHIKEY>  (664) 
SWFHGTMLYIBPPA-UHFFFAOYSA-N

>  <FORMULA>  (664) 
C14H12O2

>  <EXACT MASS>  (664) 
212.083729624

>  <MW>  (664) 
212

>  <ID>  (664) 
JP011175

>  <CONTRIBUTOR>  (664) 
University of Tokyo Team, {Faculty of Engineering, University of Tokyo

>  <COMMENT>  (664) 
SMILES=COc(c2)ccc(c2)C(=O)c(c1)cccc1
InChI=InChI=1S/C14H12O2/c1-16-13-9-7-12(8-10-13)14(15)11-5-3-2-4-6-11/h2-10H,1H3
computed SMILES=O=C(C=1C=CC=CC1)C2=CC=C(OC)C=C2
accession=JP011175
license=CC BY-NC-SA
date=2016.01.19 (Created 2008.10.21, modified 2011.05.06)
author=SAWADA M, THE INST. OF SCIENTIFIC AND INDUSTRIALRESEARCH OSAKA UNIV.
exact mass=212.08373
ionization energy=70 eV
ion type=[M]+*
computed spectral entropy=2.8146824751396005
computed normalized entropy=0.7394095175770176
SPLASH=splash10-01p9-7940000000-5c3f9fed027b23e839c5
submitter=submitter = University of Tokyo Team (Faculty of Engineering, University of Tokyo)
MoNA Rating=3.75

>  <NUM PEAKS>  (664) 
45

>  <MASS SPECTRAL PEAKS>  (664) 
38 1.9
39 2.8
40 1.9
44 1.2
50 6.5
51 15.7
52 1
53 1.4
62 1.8
63 8.9
64 11.9
65 2.2
74 2.5
75 2.5
76 5.4
77 55.7
78 4.5
79 1.8
89 1.3
91 1.5
92 23.5
93 1.7
104 1.1
105 18.7
106 1.8
107 11.3
115 4.3
119 2.6
135 99.99
136 14.7
137 1.4
139 3.7
140 1.3
141 3.8
152 2
153 1.1
168 1.3
169 4.6
181 5.7
182 1
196 1.6
211 4.1
212 63.9
213 12
214 1.3

$$$$

     RDKit          2D

 15 16  0  0  0  0  0  0  0  0999 V2000
   -2.5989   -1.5002    0.0000 C   0  0  0  0  0  0  0  0  0  0  0  0
    6.4964   -0.7492    0.0000 C   0  0  0  0  0  0  0  0  0  0  0  0
    6.4966    0.7517    0.0000 C   0  0  0  0  0  0  0  0  0  0  0  0
    5.1970   -1.5002    0.0000 C   0  0  0  0  0  0  0  0  0  0  0  0
    5.1975    1.5015    0.0000 C   0  0  0  0  0  0  0  0  0  0  0  0
    3.8978   -0.7504    0.0000 C   0  0  0  0  0  0  0  0  0  0  0  0
   -1.3000    0.7500    0.0000 C   0  0  0  0  0  0  0  0  0  0  0  0
    0.0000   -1.5000    0.0000 C   0  0  0  0  0  0  0  0  0  0  0  0
    0.0000    1.5000    0.0000 C   0  0  0  0  0  0  0  0  0  0  0  0
    1.3000   -0.7500    0.0000 C   0  0  0  0  0  0  0  0  0  0  0  0
   -1.3000   -0.7500    0.0000 C   0  0  0  0  0  0  0  0  0  0  0  0
    3.8981    0.7504    0.0000 C   0  0  0  0  0  0  0  0  0  0  0  0
    1.3000    0.7500    0.0000 C   0  0  0  0  0  0  0  0  0  0  0  0
    2.5989    1.5002    0.0000 C   0  0  0  0  0  0  0  0  0  0  0  0
    2.5987    3.0002    0.0000 O   0  0  0  0  0  0  0  0  0  0  0  0
  3  2  2  0
  4  2  1  0
  5  3  1  0
  6  4  2  0
  9  7  2  0
 10  8  1  0
 11  1  1  0
 11  7  1  0
 11  8  2  0
 12  5  2  0
 12  6  1  0
 13  9  1  0
 13 10  2  0
 14 12  1  0
 14 13  1  0
 15 14  2  0
M  END
>  <NAME>  (665) 
4-METHYLBENZOPHENONE

>  <SYNONYMS>  (665) 


>  <SPECTRUM TYPE>  (665) 
MS1

>  <INSTRUMENT TYPE>  (665) 
EI-B

>  <INSTRUMENT>  (665) 
JEOL JMS-DX-300

>  <ION MODE>  (665) 
P

>  <INCHIKEY>  (665) 
WXPWZZHELZEVPO-UHFFFAOYSA-N

>  <FORMULA>  (665) 
C14H12O

>  <EXACT MASS>  (665) 
196.088815004

>  <MW>  (665) 
196

>  <ID>  (665) 
JP011174

>  <CONTRIBUTOR>  (665) 
University of Tokyo Team, {Faculty of Engineering, University of Tokyo

>  <COMMENT>  (665) 
SMILES=Cc(c2)ccc(c2)C(=O)c(c1)cccc1
InChI=InChI=1S/C14H12O/c1-11-7-9-13(10-8-11)14(15)12-5-3-2-4-6-12/h2-10H,1H3
computed SMILES=O=C(C=1C=CC=CC1)C2=CC=C(C=C2)C
accession=JP011174
date=2016.01.19 (Created 2008.10.21, modified 2011.05.06)
author=SAWADA M, THE INST. OF SCIENTIFIC AND INDUSTRIALRESEARCH OSAKA UNIV.
license=CC BY-NC-SA
exact mass=196.08882
ionization energy=70 eV
ion type=[M]+*
computed spectral entropy=3.149459172079183
computed normalized entropy=0.7932563248885748
SPLASH=splash10-014j-7900000000-8e2c0d10d0c7e495a81e
submitter=submitter = University of Tokyo Team (Faculty of Engineering, University of Tokyo)
MoNA Rating=3.75

>  <NUM PEAKS>  (665) 
53

>  <MASS SPECTRAL PEAKS>  (665) 
38 2
39 19
40 2.7
41 5.4
50 10.9
51 36.9
52 3.3
53 1.3
62 4.3
63 14.5
64 4.1
65 48.6
66 2.8
74 3.8
75 4.1
76 6.8
77 65.9
78 6.7
82 2.1
83 4.8
84 9.4
86 1.3
87 1.7
89 14.9
90 9.2
91 71.9
92 7.8
105 70.6
106 6.9
115 3.2
118 1.7
119 98.5
120 28.2
121 1.8
126 1.1
128 1.4
139 2.4
151 2.2
152 9.6
153 3.7
163 1.4
164 1.8
165 12.1
166 3.3
167 7.7
168 4.5
181 35.3
182 6.1
194 1
195 6.2
196 99.99
197 27.3
198 2.8

$$$$

     RDKit          2D

 15 16  0  0  0  0  0  0  0  0999 V2000
    1.3000   -3.0000    0.0000 C   0  0  0  0  0  0  0  0  0  0  0  0
    3.8989    1.5002    0.0000 C   0  0  0  0  0  0  0  0  0  0  0  0
   -2.6000    0.7500    0.0000 C   0  0  0  0  0  0  0  0  0  0  0  0
   -1.3000    1.5000    0.0000 C   0  0  0  0  0  0  0  0  0  0  0  0
   -2.6000   -0.7500    0.0000 C   0  0  0  0  0  0  0  0  0  0  0  0
    0.0000   -0.7500    0.0000 C   0  0  0  0  0  0  0  0  0  0  0  0
    2.6000   -0.7500    0.0000 C   0  0  0  0  0  0  0  0  0  0  0  0
    1.3000    1.5000    0.0000 C   0  0  0  0  0  0  0  0  0  0  0  0
   -1.3000   -1.5000    0.0000 N   0  0  0  0  0  0  0  0  0  0  0  0
    1.3000   -1.5000    0.0000 N   0  0  0  0  0  0  0  0  0  0  0  0
    2.6000    0.7500    0.0000 N   0  0  0  0  0  0  0  0  0  0  0  0
    0.0000    0.7500    0.0000 N   0  0  0  0  0  0  0  0  0  0  0  0
   -3.8989   -1.5002    0.0000 O   0  0  0  0  0  0  0  0  0  0  0  0
    3.8989   -1.5002    0.0000 O   0  0  0  0  0  0  0  0  0  0  0  0
    1.3000    3.0000    0.0000 O   0  0  0  0  0  0  0  0  0  0  0  0
  4  3  2  0
  5  3  1  0
  9  5  2  0
  9  6  1  0
 10  1  1  0
 10  6  1  0
 10  7  1  0
 11  2  1  0
 11  7  1  0
 11  8  1  0
 12  4  1  0
 12  6  1  0
 12  8  1  0
 13  5  1  0
 14  7  2  0
 15  8  2  0
M  END
>  <NAME>  (666) 
1,3-DIMETHYL-1,9A-DIHYDRO-2H-PYRIMIDO(1,2-A)(1,3,5)TRIAZINE-2,4,8(3H,9H)-TRIONE

>  <SYNONYMS>  (666) 


>  <SPECTRUM TYPE>  (666) 
MS1

>  <INSTRUMENT TYPE>  (666) 
EI-B

>  <INSTRUMENT>  (666) 
JEOL JMS-DX-300

>  <ION MODE>  (666) 
P

>  <INCHIKEY>  (666) 
DKISKIJEFSNOLW-UHFFFAOYSA-N

>  <FORMULA>  (666) 
C8H10N4O3

>  <EXACT MASS>  (666) 
210.07529017999997

>  <MW>  (666) 
210

>  <ID>  (666) 
JP011173

>  <CONTRIBUTOR>  (666) 
University of Tokyo Team, {Faculty of Engineering, University of Tokyo

>  <COMMENT>  (666) 
SMILES=[H]C(C(=O)2)=C([H])N(C(=O)1)C(N2)N(C)C(=O)N(C)1
InChI=InChI=1S/C8H10N4O3/c1-10-6-9-5(13)3-4-12(6)8(15)11(2)7(10)14/h3-4,6H,1-2H3,(H,9,13)
computed SMILES=O=C1N2C=CC(O)=NC2N(C(=O)N1C)C
accession=JP011173
date=2016.01.19 (Created 2008.10.21, modified 2011.05.06)
author=SAWADA M, THE INST. OF SCIENTIFIC AND INDUSTRIALRESEARCH OSAKA UNIV.
license=CC BY-NC-SA
exact mass=210.07529
ionization energy=70 eV
ion type=[M]+*
computed spectral entropy=3.2387566392700733
computed normalized entropy=0.8157477358818278
SPLASH=splash10-0a4m-9120000000-a8b1ee98b62eee93be1c
submitter=submitter = University of Tokyo Team (Faculty of Engineering, University of Tokyo)
MoNA Rating=3.75

>  <NUM PEAKS>  (666) 
53

>  <MASS SPECTRAL PEAKS>  (666) 
38 1
39 3.7
40 42.7
41 22.1
42 41.3
43 7
44 12.3
51 1.2
52 4.2
53 8.9
54 3.9
55 8.7
56 29.4
57 15.9
58 35.5
59 1.3
67 8.3
68 65.9
69 27
70 10.9
71 2
79 2
81 1.7
82 3.3
83 8.8
84 13.1
85 2
87 1.1
91 1.1
95 16
96 83
97 40.2
98 15
99 1.3
109 7.3
110 4.6
111 2.2
113 1
123 2.2
124 3.1
125 5.4
141 2.4
142 1.7
152 48.5
153 18.2
154 1.8
167 1.7
181 2.2
182 2.2
208 3.4
209 99.99
210 57.4
211 8.1

$$$$

     RDKit          2D

  7  7  0  0  0  0  0  0  0  0999 V2000
    1.3000   -0.7500    0.0000 C   0  0  0  0  0  0  0  0  0  0  0  0
    1.3000   -2.2500    0.0000 C   0  0  0  0  0  0  0  0  0  0  0  0
   -1.3000   -2.2500    0.0000 C   0  0  0  0  0  0  0  0  0  0  0  0
    0.0000    0.0000    0.0000 C   0  0  0  0  0  0  0  0  0  0  0  0
   -0.0000   -3.0000    0.0000 N   0  0  0  0  0  0  0  0  0  0  0  0
   -1.3000   -0.7500    0.0000 N   0  0  0  0  0  0  0  0  0  0  0  0
    0.0000    1.5000    0.0000 O   0  0  0  0  0  0  0  0  0  0  0  0
  2  1  2  0
  4  1  1  0
  5  2  1  0
  5  3  2  0
  6  3  1  0
  6  4  2  0
  7  4  1  0
M  END
>  <NAME>  (667) 
4-PYRIMIDINONE

>  <SYNONYMS>  (667) 


>  <SPECTRUM TYPE>  (667) 
MS1

>  <INSTRUMENT TYPE>  (667) 
EI-B

>  <INSTRUMENT>  (667) 
JEOL JMS-DX-300

>  <ION MODE>  (667) 
P

>  <INCHIKEY>  (667) 
DNCYBUMDUBHIJZ-UHFFFAOYSA-N

>  <FORMULA>  (667) 
C4H4N2O

>  <EXACT MASS>  (667) 
96.032362748

>  <MW>  (667) 
96

>  <ID>  (667) 
JP011172

>  <CONTRIBUTOR>  (667) 
University of Tokyo Team, {Faculty of Engineering, University of Tokyo

>  <COMMENT>  (667) 
SMILES=O=C(C=1)NC=NC1
InChI=InChI=1S/C4H4N2O/c7-4-1-2-5-3-6-4/h1-3H,(H,5,6,7)
computed SMILES=OC=1N=CN=CC1
accession=JP011172
date=2016.01.19 (Created 2008.10.21, modified 2011.05.06)
author=SAWADA M, THE INST. OF SCIENTIFIC AND INDUSTRIALRESEARCH OSAKA UNIV.
license=CC BY-NC-SA
exact mass=96.03236
ionization energy=70 eV
ion type=[M]+*
computed spectral entropy=2.771540781086814
computed normalized entropy=0.7734131809223475
SPLASH=splash10-00kg-9000000000-70bc8298a30dcebb8ab7
submitter=submitter = University of Tokyo Team (Faculty of Engineering, University of Tokyo)
MoNA Rating=3.75

>  <NUM PEAKS>  (667) 
36

>  <MASS SPECTRAL PEAKS>  (667) 
37 2
38 16.2
39 23.3
40 58.6
41 63.3
42 60.3
43 13.3
44 17
45 2.1
50 3
51 14.6
52 22.2
53 18.5
54 3.6
55 5
56 1.4
57 3.9
60 1.4
65 1
66 1.1
67 11.8
68 83.4
69 51
70 3.4
71 2
73 1.6
77 1.2
79 3.7
81 1.7
82 1.1
83 1.8
85 1.1
95 6.2
96 99.99
97 16
98 1.7

$$$$

     RDKit          2D

 25 28  0  0  0  0  0  0  0  0999 V2000
   -2.1300   -3.8000    0.0000 C   0  0  0  0  0  0  0  0  0  0  0  0
   -8.6264   -1.5492    0.0000 C   0  0  0  0  0  0  0  0  0  0  0  0
   -7.3270   -2.3002    0.0000 C   0  0  0  0  0  0  0  0  0  0  0  0
   -8.6266   -0.0483    0.0000 C   0  0  0  0  0  0  0  0  0  0  0  0
    3.0600    2.2000    0.0000 C   0  0  0  0  0  0  0  0  0  0  0  0
    1.7600    2.9500    0.0000 C   0  0  0  0  0  0  0  0  0  0  0  0
   -6.0278   -1.5504    0.0000 C   0  0  0  0  0  0  0  0  0  0  0  0
   -7.3275    0.7015    0.0000 C   0  0  0  0  0  0  0  0  0  0  0  0
    3.0600    0.7000    0.0000 C   0  0  0  0  0  0  0  0  0  0  0  0
    0.4600    2.2000    0.0000 C   0  0  0  0  0  0  0  0  0  0  0  0
    0.4600   -2.3000    0.0000 C   0  0  0  0  0  0  0  0  0  0  0  0
   -4.7289    0.7002    0.0000 C   0  0  0  0  0  0  0  0  0  0  0  0
   -6.0281   -0.0496    0.0000 C   0  0  0  0  0  0  0  0  0  0  0  0
    1.7600   -0.0500    0.0000 C   0  0  0  0  0  0  0  0  0  0  0  0
    0.4600    0.7000    0.0000 C   0  0  0  0  0  0  0  0  0  0  0  0
    1.7600   -1.5500    0.0000 C   0  0  0  0  0  0  0  0  0  0  0  0
   -0.8300   -1.5500    0.0000 C   0  0  0  0  0  0  0  0  0  0  0  0
   -3.4300   -1.5500    0.0000 C   0  0  0  0  0  0  0  0  0  0  0  0
   -2.1300    0.7000    0.0000 C   0  0  0  0  0  0  0  0  0  0  0  0
   -2.1300   -2.3000    0.0000 N   0  0  0  0  0  0  0  0  0  0  0  0
   -3.4300   -0.0500    0.0000 N   0  0  0  0  0  0  0  0  0  0  0  0
   -0.8300   -0.0500    0.0000 N   0  0  0  0  0  0  0  0  0  0  0  0
    3.0589   -2.3002    0.0000 O   0  0  0  0  0  0  0  0  0  0  0  0
   -4.7289   -2.3002    0.0000 O   0  0  0  0  0  0  0  0  0  0  0  0
   -2.1300    2.2000    0.0000 O   0  0  0  0  0  0  0  0  0  0  0  0
  3  2  2  0
  4  2  1  0
  6  5  2  0
  7  3  1  0
  8  4  2  0
  9  5  1  0
 10  6  1  0
 13  7  2  0
 13  8  1  0
 13 12  1  0
 14  9  2  0
 15 10  2  0
 15 14  1  0
 16 11  1  0
 16 14  1  0
 17 11  1  0
 20  1  1  0
 20 17  1  0
 20 18  1  0
 21 12  1  0
 21 18  1  0
 21 19  1  0
 22 15  1  0
 22 17  1  0
 22 19  1  0
 23 16  2  0
 24 18  2  0
 25 19  2  0
M  END
>  <NAME>  (668) 
2-BENZYL-4-METHYL-4,4A-DIHYDRO-1H-(1,3,5)TRIAZINO(1,2-A)QUINOLINE-1,3,6(2H,5H)-TRIONE

>  <SYNONYMS>  (668) 


>  <SPECTRUM TYPE>  (668) 
MS1

>  <INSTRUMENT TYPE>  (668) 
EI-B

>  <INSTRUMENT>  (668) 
JEOL JMS-DX-300

>  <ION MODE>  (668) 
P

>  <INCHIKEY>  (668) 
JCTQHUHKWKEIOF-UHFFFAOYSA-N

>  <FORMULA>  (668) 
C19H17N3O3

>  <EXACT MASS>  (668) 
335.126991404

>  <MW>  (668) 
335

>  <ID>  (668) 
JP011171

>  <CONTRIBUTOR>  (668) 
University of Tokyo Team, {Faculty of Engineering, University of Tokyo

>  <COMMENT>  (668) 
SMILES=c(c4)ccc(c4)CN(C(=O)1)C(=O)N(c32)C(CC(=O)c(cccc3)2)N(C)1
InChI=InChI=1S/C19H17N3O3/c1-20-17-11-16(23)14-9-5-6-10-15(14)22(17)19(25)21(18(20)24)12-13-7-3-2-4-8-13/h2-10,17H,11-12H2,1H3
computed SMILES=O=C1C=2C=CC=CC2N3C(=O)N(C(=O)N(C)C3C1)CC=4C=CC=CC4
accession=JP011171
date=2016.01.19 (Created 2008.10.21, modified 2011.05.06)
author=SAWADA M, THE INST. OF SCIENTIFIC AND INDUSTRIALRESEARCH OSAKA UNIV.
license=CC BY-NC-SA
exact mass=335.12699
ionization energy=70 eV
ion type=[M]+*
computed spectral entropy=3.959867008628451
computed normalized entropy=0.8457402871770029
SPLASH=splash10-000f-9522000000-d9ada45f2cb6d0adcfcb
submitter=submitter = University of Tokyo Team (Faculty of Engineering, University of Tokyo)
MoNA Rating=3.75

>  <NUM PEAKS>  (668) 
108

>  <MASS SPECTRAL PEAKS>  (668) 
35 1.8
38 2
39 14.9
40 12.4
41 11.3
42 9.8
43 10.9
44 38.7
45 2.7
47 4.4
48 1.6
49 1.6
50 6.4
51 12.7
52 3.8
53 1.8
54 1.8
55 7.8
56 12.9
57 10.4
58 9.1
60 1.6
62 2.2
63 11.6
64 7.6
65 38.2
66 2.9
67 1.8
68 1.6
69 4.7
70 6.7
71 3.3
73 1.8
74 1.7
75 2.8
76 10.7
77 26.7
78 8.9
79 2.9
81 2.2
82 2.2
83 19.8
84 2.6
85 9.1
86 1.3
87 1.7
89 17.6
90 43.1
91 77.1
92 35.1
93 3.3
95 1.3
96 1.2
97 2.2
102 1.8
103 3.8
104 18.6
105 16
106 12.6
107 2.9
116 9.6
117 17.6
118 10.2
119 3.8
120 3.6
128 1.3
129 3.3
130 2.7
131 2
132 32.9
133 14.9
134 1.8
143 1.3
144 8.9
145 37.3
146 58.2
147 8
149 2.2
157 1.6
158 1.6
159 1.4
161 9.3
162 1.6
171 1.8
172 1.6
173 2.9
174 21.3
175 5.6
187 8.7
188 1.6
189 1.6
190 2
200 1.6
201 2.4
202 1.3
203 1.1
230 24
231 32.9
232 6
235 1.6
244 69.3
245 14.7
246 1.6
257 1.8
292 2
334 2.9
335 99.99
336 36.7

$$$$

     RDKit          2D

 31 35  0  0  0  0  0  0  0  0999 V2000
   -6.0271   -6.0500    0.0000 C   0  0  0  0  0  0  0  0  0  0  0  0
   -4.7282    5.2002    0.0000 C   0  0  0  0  0  0  0  0  0  0  0  0
   -4.7276   -6.8008    0.0000 C   0  0  0  0  0  0  0  0  0  0  0  0
   -6.0276   -4.5492    0.0000 C   0  0  0  0  0  0  0  0  0  0  0  0
   -6.0283    4.4504    0.0000 C   0  0  0  0  0  0  0  0  0  0  0  0
   -3.4283    4.4500    0.0000 C   0  0  0  0  0  0  0  0  0  0  0  0
    3.0600    2.2000    0.0000 C   0  0  0  0  0  0  0  0  0  0  0  0
    1.7600    2.9500    0.0000 C   0  0  0  0  0  0  0  0  0  0  0  0
   -3.4286   -6.0508    0.0000 C   0  0  0  0  0  0  0  0  0  0  0  0
   -4.7286   -3.7992    0.0000 C   0  0  0  0  0  0  0  0  0  0  0  0
   -6.0286    2.9504    0.0000 C   0  0  0  0  0  0  0  0  0  0  0  0
   -3.4286    2.9500    0.0000 C   0  0  0  0  0  0  0  0  0  0  0  0
    3.0600    0.7000    0.0000 C   0  0  0  0  0  0  0  0  0  0  0  0
    0.4600    2.2000    0.0000 C   0  0  0  0  0  0  0  0  0  0  0  0
    0.4600   -2.3000    0.0000 C   0  0  0  0  0  0  0  0  0  0  0  0
   -2.1300   -3.8000    0.0000 C   0  0  0  0  0  0  0  0  0  0  0  0
   -4.7289    0.7002    0.0000 C   0  0  0  0  0  0  0  0  0  0  0  0
   -3.4290   -4.5500    0.0000 C   0  0  0  0  0  0  0  0  0  0  0  0
   -4.7287    2.2002    0.0000 C   0  0  0  0  0  0  0  0  0  0  0  0
    1.7600   -0.0500    0.0000 C   0  0  0  0  0  0  0  0  0  0  0  0
    0.4600    0.7000    0.0000 C   0  0  0  0  0  0  0  0  0  0  0  0
    1.7600   -1.5500    0.0000 C   0  0  0  0  0  0  0  0  0  0  0  0
   -0.8300   -1.5500    0.0000 C   0  0  0  0  0  0  0  0  0  0  0  0
   -3.4300   -1.5500    0.0000 C   0  0  0  0  0  0  0  0  0  0  0  0
   -2.1300    0.7000    0.0000 C   0  0  0  0  0  0  0  0  0  0  0  0
   -2.1300   -2.3000    0.0000 N   0  0  0  0  0  0  0  0  0  0  0  0
   -3.4300   -0.0500    0.0000 N   0  0  0  0  0  0  0  0  0  0  0  0
   -0.8300   -0.0500    0.0000 N   0  0  0  0  0  0  0  0  0  0  0  0
    3.0589   -2.3002    0.0000 O   0  0  0  0  0  0  0  0  0  0  0  0
   -4.7289   -2.3002    0.0000 O   0  0  0  0  0  0  0  0  0  0  0  0
   -2.1300    2.2000    0.0000 O   0  0  0  0  0  0  0  0  0  0  0  0
  3  1  2  0
  4  1  1  0
  5  2  2  0
  6  2  1  0
  8  7  2  0
  9  3  1  0
 10  4  2  0
 11  5  1  0
 12  6  2  0
 13  7  1  0
 14  8  1  0
 18  9  2  0
 18 10  1  0
 18 16  1  0
 19 11  2  0
 19 12  1  0
 19 17  1  0
 20 13  2  0
 21 14  2  0
 21 20  1  0
 22 15  1  0
 22 20  1  0
 23 15  1  0
 26 16  1  0
 26 23  1  0
 26 24  1  0
 27 17  1  0
 27 24  1  0
 27 25  1  0
 28 21  1  0
 28 23  1  0
 28 25  1  0
 29 22  2  0
 30 24  2  0
 31 25  2  0
M  END
>  <NAME>  (669) 
2,4-DIBENZYL-4,4A-DIHYDRO-1H-(1,3,5)TRIAZINO(1,2-A)QUINOLINE-1,3,6(2H,5H)-TRIONE

>  <SYNONYMS>  (669) 


>  <SPECTRUM TYPE>  (669) 
MS1

>  <INSTRUMENT TYPE>  (669) 
EI-B

>  <INSTRUMENT>  (669) 
JEOL JMS-DX-300

>  <ION MODE>  (669) 
P

>  <INCHIKEY>  (669) 
FCBJZQPHTRBDDA-UHFFFAOYSA-N

>  <FORMULA>  (669) 
C25H21N3O3

>  <EXACT MASS>  (669) 
411.158291532

>  <MW>  (669) 
411

>  <ID>  (669) 
JP011170

>  <CONTRIBUTOR>  (669) 
University of Tokyo Team, {Faculty of Engineering, University of Tokyo

>  <COMMENT>  (669) 
SMILES=c(c5)ccc(c5)CN(C(=O)1)C(=O)N(c43)C(CC(=O)c(cccc4)3)N(Cc(c2)cccc2)1
InChI=InChI=1S/C25H21N3O3/c29-22-15-23-26(16-18-9-3-1-4-10-18)24(30)27(17-19-11-5-2-6-12-19)25(31)28(23)21-14-8-7-13-20(21)22/h1-14,23H,15-17H2
computed SMILES=O=C1C=2C=CC=CC2N3C(=O)N(C(=O)N(CC=4C=CC=CC4)C3C1)CC=5C=CC=CC5
accession=JP011170
date=2016.01.19 (Created 2008.10.21, modified 2011.05.06)
author=SAWADA M, THE INST. OF SCIENTIFIC AND INDUSTRIALRESEARCH OSAKA UNIV.
license=CC BY-NC-SA
exact mass=411.15829
ionization energy=70 eV
ion type=[M]+*
computed spectral entropy=4.442057719395817
computed normalized entropy=0.8720603767912041
SPLASH=splash10-0006-9400000000-14edc046392cf928ef74
submitter=submitter = University of Tokyo Team (Faculty of Engineering, University of Tokyo)
MoNA Rating=3.75

>  <NUM PEAKS>  (669) 
163

>  <MASS SPECTRAL PEAKS>  (669) 
33 1.8
34 7.1
35 1.3
36 6
37 3.6
38 8.2
39 32.2
40 68.9
41 44.4
42 17.1
43 61.3
44 88.4
45 19.3
46 4.9
48 1.8
49 1.6
50 14.7
51 26.9
52 8.4
53 8
54 7.6
55 37.3
56 19.6
57 35.6
58 5.8
59 3.6
60 10.2
61 7.1
62 4.4
63 15.1
64 8.7
65 39.1
66 4.9
67 12
68 7.6
69 27.8
70 17.3
71 16.7
72 3.8
73 8.9
74 6.2
75 5.8
76 10.4
77 4.2
78 21.8
79 10
80 3.8
81 12.9
82 10.7
83 17.8
84 8
85 10.9
86 2.7
87 4.2
88 1.8
89 16.4
90 28.4
91 99.99
92 27.8
93 10.9
94 3.1
95 8.2
96 6.2
97 12.4
98 6
99 4.4
100 1.6
101 3.6
102 2.7
103 4.9
104 31.6
105 31.8
106 21.3
107 8.4
108 1.8
109 6.2
110 4.2
111 7.1
112 4.2
113 4.3
114 1.5
115 3.8
116 8.9
117 24.9
118 8.7
119 7.8
120 2.7
121 3.8
122 2.7
123 4.2
124 3.8
125 4.4
126 2.4
127 2.7
128 2.6
129 5.8
130 3.8
131 3.6
132 46.2
133 50.2
134 6.2
135 4.7
136 1.8
137 3.8
138 1.8
139 3.6
140 1.7
141 1.7
143 2.9
144 4.4
145 32.4
146 56
147 9.6
149 13.3
150 2.2
151 2
152 1.8
153 1.6
157 3.8
158 1.6
159 2.2
160 1.6
161 2
163 1.6
165 2
166 1.6
167 6.2
168 1.6
169 1.6
171 2
172 2.7
174 2.7
175 7.3
176 1.3
179 1.3
180 2.9
181 3.1
185 2
187 5.1
194 1.6
200 2
201 2.9
215 1.6
222 1.8
229 11.6
230 3.6
236 3.8
237 2.4
249 4
250 1.6
256 3.8
257 4.2
266 2.7
277 1.3
278 2
279 4.4
306 11.1
307 25.3
308 6.2
320 37.8
321 11.8
411 79.3
412 32.9

$$$$

     RDKit          2D

 25 27  0  0  0  0  0  0  0  0999 V2000
   -4.7281   -6.8000    0.0000 C   0  0  0  0  0  0  0  0  0  0  0  0
   -8.6262   -0.0492    0.0000 C   0  0  0  0  0  0  0  0  0  0  0  0
   -3.4290   -6.0500    0.0000 C   0  0  0  0  0  0  0  0  0  0  0  0
   -7.3270    0.7006    0.0000 C   0  0  0  0  0  0  0  0  0  0  0  0
   -3.4290   -4.5500    0.0000 C   0  0  0  0  0  0  0  0  0  0  0  0
   -6.0281   -0.0496    0.0000 C   0  0  0  0  0  0  0  0  0  0  0  0
    3.0600    2.2000    0.0000 C   0  0  0  0  0  0  0  0  0  0  0  0
    1.7600    2.9500    0.0000 C   0  0  0  0  0  0  0  0  0  0  0  0
    3.0600    0.7000    0.0000 C   0  0  0  0  0  0  0  0  0  0  0  0
    0.4600    2.2000    0.0000 C   0  0  0  0  0  0  0  0  0  0  0  0
   -2.1300   -3.8000    0.0000 C   0  0  0  0  0  0  0  0  0  0  0  0
   -4.7289    0.7002    0.0000 C   0  0  0  0  0  0  0  0  0  0  0  0
    0.4600   -2.3000    0.0000 C   0  0  0  0  0  0  0  0  0  0  0  0
    1.7600   -0.0500    0.0000 C   0  0  0  0  0  0  0  0  0  0  0  0
    0.4600    0.7000    0.0000 C   0  0  0  0  0  0  0  0  0  0  0  0
    1.7600   -1.5500    0.0000 C   0  0  0  0  0  0  0  0  0  0  0  0
   -0.8300   -1.5500    0.0000 C   0  0  0  0  0  0  0  0  0  0  0  0
   -3.4300   -1.5500    0.0000 C   0  0  0  0  0  0  0  0  0  0  0  0
   -2.1300    0.7000    0.0000 C   0  0  0  0  0  0  0  0  0  0  0  0
   -2.1300   -2.3000    0.0000 N   0  0  0  0  0  0  0  0  0  0  0  0
   -3.4300   -0.0500    0.0000 N   0  0  0  0  0  0  0  0  0  0  0  0
   -0.8300   -0.0500    0.0000 N   0  0  0  0  0  0  0  0  0  0  0  0
    3.0589   -2.3002    0.0000 O   0  0  0  0  0  0  0  0  0  0  0  0
   -4.7289   -2.3002    0.0000 O   0  0  0  0  0  0  0  0  0  0  0  0
   -2.1300    2.2000    0.0000 O   0  0  0  0  0  0  0  0  0  0  0  0
  3  1  1  0
  4  2  1  0
  5  3  1  0
  6  4  1  0
  8  7  2  0
  9  7  1  0
 10  8  1  0
 11  5  1  0
 12  6  1  0
 14  9  2  0
 15 10  2  0
 15 14  1  0
 16 13  1  0
 16 14  1  0
 17 13  1  0
 20 11  1  0
 20 17  1  0
 20 18  1  0
 21 12  1  0
 21 18  1  0
 21 19  1  0
 22 15  1  0
 22 17  1  0
 22 19  1  0
 23 16  2  0
 24 18  2  0
 25 19  2  0
M  END
>  <NAME>  (670) 
2,4-DIBUTYL-4,4A-DIHYDRO-1H-(1,3,5)TRIAZINO(1,2-A)QUINOLINE-1,3,6(2H,5H)-TRIONE

>  <SYNONYMS>  (670) 


>  <SPECTRUM TYPE>  (670) 
MS1

>  <INSTRUMENT TYPE>  (670) 
EI-B

>  <INSTRUMENT>  (670) 
JEOL JMS-DX-300

>  <ION MODE>  (670) 
P

>  <INCHIKEY>  (670) 
CIRCGMQRWBBGDH-UHFFFAOYSA-N

>  <FORMULA>  (670) 
C19H25N3O3

>  <EXACT MASS>  (670) 
343.18959166

>  <MW>  (670) 
343

>  <ID>  (670) 
JP011169

>  <CONTRIBUTOR>  (670) 
University of Tokyo Team, {Faculty of Engineering, University of Tokyo

>  <COMMENT>  (670) 
SMILES=CCCCN(C(=O)1)C(=O)N(c32)C(CC(=O)c(cccc3)2)N(CCCC)1
InChI=InChI=1S/C19H25N3O3/c1-3-5-11-20-17-13-16(23)14-9-7-8-10-15(14)22(17)19(25)21(18(20)24)12-6-4-2/h7-10,17H,3-6,11-13H2,1-2H3
computed SMILES=O=C1C=2C=CC=CC2N3C(=O)N(C(=O)N(CCCC)C3C1)CCCC
accession=JP011169
date=2016.01.19 (Created 2008.10.21, modified 2011.05.06)
author=SAWADA M, THE INST. OF SCIENTIFIC AND INDUSTRIALRESEARCH OSAKA UNIV.
license=CC BY-NC-SA
exact mass=343.18959
ionization energy=70 eV
ion type=[M]+*
computed spectral entropy=4.047898483882579
computed normalized entropy=0.8411769344130439
SPLASH=splash10-0006-9636000000-78238559f4fdbf27ab79
submitter=submitter = University of Tokyo Team (Faculty of Engineering, University of Tokyo)
MoNA Rating=3.75

>  <NUM PEAKS>  (670) 
123

>  <MASS SPECTRAL PEAKS>  (670) 
34 1.6
39 8.4
40 22.9
41 30.9
42 7.8
43 17.6
44 49.6
45 2.9
50 1.6
51 2
53 2.2
54 3.3
55 15.1
56 35.1
57 21.6
58 2
60 1.3
63 3.6
64 3.6
65 3.3
67 1.6
68 1.6
69 5.6
70 13.3
71 4.7
72 2.7
73 1.6
76 6
77 8.9
78 1.8
81 1.6
82 2.7
83 3.8
84 4.2
85 2
89 8.2
90 35.6
91 8.7
92 2.7
93 1.8
95 1.6
96 1.6
97 2.7
98 4.4
99 2.7
100 1.8
103 2.5
104 8.4
105 4
111 1.6
112 1.6
113 1.7
116 10.4
117 21.3
118 13.8
119 5.6
120 1.8
126 1.3
128 2.7
129 2.7
130 2.7
131 1.8
132 6
133 4.7
134 1.4
135 1.3
143 3.6
144 10.7
145 6
146 77.8
147 10.3
149 6.7
153 2.2
155 2.9
158 6.2
159 4.7
160 3.1
161 3.8
162 3.8
167 2.7
168 1.8
169 1.1
173 3.1
174 3.1
186 1.8
187 5.8
188 3.8
189 2.7
201 27.1
202 6.7
203 1.3
215 5.1
216 3.1
217 1.6
224 11.6
225 1.8
230 6.2
231 2.9
232 3.8
243 1.4
244 1.5
245 6.2
246 1.3
258 3.6
259 2.7
272 2.2
273 4.4
279 1.8
286 13.1
287 10.2
288 12.9
289 2.9
298 3.6
300 3.8
301 83.8
302 21.6
314 8.4
315 14.9
328 5.6
341 1.6
342 4.4
343 99.99
344 31.6

$$$$

     RDKit          2D

 23 25  0  0  0  0  0  0  0  0999 V2000
   -3.4290   -4.5500    0.0000 C   0  0  0  0  0  0  0  0  0  0  0  0
   -0.8310   -4.5500    0.0000 C   0  0  0  0  0  0  0  0  0  0  0  0
   -6.0281   -0.0496    0.0000 C   0  0  0  0  0  0  0  0  0  0  0  0
   -4.7287    2.2002    0.0000 C   0  0  0  0  0  0  0  0  0  0  0  0
    3.0600    2.2000    0.0000 C   0  0  0  0  0  0  0  0  0  0  0  0
    1.7600    2.9500    0.0000 C   0  0  0  0  0  0  0  0  0  0  0  0
    3.0600    0.7000    0.0000 C   0  0  0  0  0  0  0  0  0  0  0  0
    0.4600    2.2000    0.0000 C   0  0  0  0  0  0  0  0  0  0  0  0
    0.4600   -2.3000    0.0000 C   0  0  0  0  0  0  0  0  0  0  0  0
   -2.1300   -3.8000    0.0000 C   0  0  0  0  0  0  0  0  0  0  0  0
   -4.7289    0.7002    0.0000 C   0  0  0  0  0  0  0  0  0  0  0  0
    1.7600   -0.0500    0.0000 C   0  0  0  0  0  0  0  0  0  0  0  0
    0.4600    0.7000    0.0000 C   0  0  0  0  0  0  0  0  0  0  0  0
    1.7600   -1.5500    0.0000 C   0  0  0  0  0  0  0  0  0  0  0  0
   -0.8300   -1.5500    0.0000 C   0  0  0  0  0  0  0  0  0  0  0  0
   -3.4300   -1.5500    0.0000 C   0  0  0  0  0  0  0  0  0  0  0  0
   -2.1300    0.7000    0.0000 C   0  0  0  0  0  0  0  0  0  0  0  0
   -2.1300   -2.3000    0.0000 N   0  0  0  0  0  0  0  0  0  0  0  0
   -3.4300   -0.0500    0.0000 N   0  0  0  0  0  0  0  0  0  0  0  0
   -0.8300   -0.0500    0.0000 N   0  0  0  0  0  0  0  0  0  0  0  0
    3.0589   -2.3002    0.0000 O   0  0  0  0  0  0  0  0  0  0  0  0
   -4.7289   -2.3002    0.0000 O   0  0  0  0  0  0  0  0  0  0  0  0
   -2.1300    2.2000    0.0000 O   0  0  0  0  0  0  0  0  0  0  0  0
  6  5  2  0
  7  5  1  0
  8  6  1  0
 10  1  1  0
 10  2  1  0
 11  3  1  0
 11  4  1  0
 12  7  2  0
 13  8  2  0
 13 12  1  0
 14  9  1  0
 14 12  1  0
 15  9  1  0
 18 10  1  0
 18 15  1  0
 18 16  1  0
 19 11  1  0
 19 16  1  0
 19 17  1  0
 20 13  1  0
 20 15  1  0
 20 17  1  0
 21 14  2  0
 22 16  2  0
 23 17  2  0
M  END
>  <NAME>  (671) 
2,4-DIISOPROPYL-4,4A-DIHYDRO-1H-(1,3,5)TRIAZINO(1,2-A)QUINOLINE-1,3,6(2H,5H)-TRIONE

>  <SYNONYMS>  (671) 


>  <SPECTRUM TYPE>  (671) 
MS1

>  <INSTRUMENT TYPE>  (671) 
EI-B

>  <INSTRUMENT>  (671) 
JEOL JMS-DX-300

>  <ION MODE>  (671) 
P

>  <INCHIKEY>  (671) 
CMEXHSKNMGAZGH-UHFFFAOYSA-N

>  <FORMULA>  (671) 
C17H21N3O3

>  <EXACT MASS>  (671) 
315.158291532

>  <MW>  (671) 
315

>  <ID>  (671) 
JP011168

>  <CONTRIBUTOR>  (671) 
University of Tokyo Team, {Faculty of Engineering, University of Tokyo

>  <COMMENT>  (671) 
SMILES=CC(C)N(C(=O)1)C(=O)N(c32)C(CC(=O)c(cccc3)2)N(C(C)C)1
InChI=InChI=1S/C17H21N3O3/c1-10(2)18-15-9-14(21)12-7-5-6-8-13(12)20(15)17(23)19(11(3)4)16(18)22/h5-8,10-11,15H,9H2,1-4H3
computed SMILES=O=C1C=2C=CC=CC2N3C(=O)N(C(=O)N(C3C1)C(C)C)C(C)C
accession=JP011168
date=2016.01.19 (Created 2008.10.21, modified 2011.05.06)
author=SAWADA M, THE INST. OF SCIENTIFIC AND INDUSTRIALRESEARCH OSAKA UNIV.
license=CC BY-NC-SA
exact mass=315.15829
ionization energy=70 eV
ion type=[M]+*
computed spectral entropy=3.7790932063468645
computed normalized entropy=0.8224145026894513
SPLASH=splash10-00kg-9623000000-40c6002b530b9b3888f3
submitter=submitter = University of Tokyo Team (Faculty of Engineering, University of Tokyo)
MoNA Rating=3.75

>  <NUM PEAKS>  (671) 
99

>  <MASS SPECTRAL PEAKS>  (671) 
34 1.5
36 1.8
38 1.3
39 8
40 21.3
41 25.6
42 13.8
43 31.1
44 66.4
45 6.4
50 1.8
51 2.2
53 1.3
54 2.2
55 6.2
56 8.4
57 7.3
58 6.7
60 2.2
63 3.6
64 4
65 2.9
67 1.3
68 2
69 4.7
70 28.4
71 4.2
72 1.5
73 1.3
75 1.3
76 5.3
77 8.2
78 1.8
81 1.6
82 1.6
83 3.6
84 11.8
85 4
86 1.8
87 1.6
89 6.7
90 28.7
91 7.1
92 2.9
93 1.3
95 1.1
96 1
97 1.6
99 1.1
102 1
103 1.9
104 5.8
105 3.6
111 1.3
113 1.3
116 7.6
117 14.7
118 10.7
119 4.7
120 1.6
128 2.4
129 2.9
130 1.3
131 1.6
132 3.8
133 5.3
134 2.4
141 1.1
144 8.4
145 81.8
146 62
147 9.8
149 4.4
155 4.4
159 1.5
160 7.1
161 3.8
162 4.2
167 1.6
187 6.4
188 3.1
189 2.2
201 1.7
202 2.7
203 2.2
215 15.6
216 4.2
217 2.2
230 17.3
231 18
232 8.4
258 2.2
259 4
272 12.7
273 15.3
274 7.8
279 1.3
315 99.99
316 27.3

$$$$

     RDKit          2D

 21 23  0  0  0  0  0  0  0  0999 V2000
   -3.4290   -4.5500    0.0000 C   0  0  0  0  0  0  0  0  0  0  0  0
   -6.0281   -0.0496    0.0000 C   0  0  0  0  0  0  0  0  0  0  0  0
   -2.1300   -3.8000    0.0000 C   0  0  0  0  0  0  0  0  0  0  0  0
   -4.7289    0.7002    0.0000 C   0  0  0  0  0  0  0  0  0  0  0  0
    3.0600    2.2000    0.0000 C   0  0  0  0  0  0  0  0  0  0  0  0
    1.7600    2.9500    0.0000 C   0  0  0  0  0  0  0  0  0  0  0  0
    3.0600    0.7000    0.0000 C   0  0  0  0  0  0  0  0  0  0  0  0
    0.4600    2.2000    0.0000 C   0  0  0  0  0  0  0  0  0  0  0  0
    0.4600   -2.3000    0.0000 C   0  0  0  0  0  0  0  0  0  0  0  0
    1.7600   -0.0500    0.0000 C   0  0  0  0  0  0  0  0  0  0  0  0
    0.4600    0.7000    0.0000 C   0  0  0  0  0  0  0  0  0  0  0  0
    1.7600   -1.5500    0.0000 C   0  0  0  0  0  0  0  0  0  0  0  0
   -0.8300   -1.5500    0.0000 C   0  0  0  0  0  0  0  0  0  0  0  0
   -3.4300   -1.5500    0.0000 C   0  0  0  0  0  0  0  0  0  0  0  0
   -2.1300    0.7000    0.0000 C   0  0  0  0  0  0  0  0  0  0  0  0
   -2.1300   -2.3000    0.0000 N   0  0  0  0  0  0  0  0  0  0  0  0
   -3.4300   -0.0500    0.0000 N   0  0  0  0  0  0  0  0  0  0  0  0
   -0.8300   -0.0500    0.0000 N   0  0  0  0  0  0  0  0  0  0  0  0
    3.0589   -2.3002    0.0000 O   0  0  0  0  0  0  0  0  0  0  0  0
   -4.7289   -2.3002    0.0000 O   0  0  0  0  0  0  0  0  0  0  0  0
   -2.1300    2.2000    0.0000 O   0  0  0  0  0  0  0  0  0  0  0  0
  3  1  1  0
  4  2  1  0
  6  5  2  0
  7  5  1  0
  8  6  1  0
 10  7  2  0
 11  8  2  0
 11 10  1  0
 12  9  1  0
 12 10  1  0
 13  9  1  0
 16  3  1  0
 16 13  1  0
 16 14  1  0
 17  4  1  0
 17 14  1  0
 17 15  1  0
 18 11  1  0
 18 13  1  0
 18 15  1  0
 19 12  2  0
 20 14  2  0
 21 15  2  0
M  END
>  <NAME>  (672) 
2,4-DIETHYL-4,4A-DIHYDRO-1H-(1,3,5)TRIAZINO(1,2-A)QUINOLINE-1,3,6(2H,5H)-TRIONE

>  <SYNONYMS>  (672) 


>  <SPECTRUM TYPE>  (672) 
MS1

>  <INSTRUMENT TYPE>  (672) 
EI-B

>  <INSTRUMENT>  (672) 
JEOL JMS-DX-300

>  <ION MODE>  (672) 
P

>  <INCHIKEY>  (672) 
ZSGVKLDFLDCXII-UHFFFAOYSA-N

>  <FORMULA>  (672) 
C15H17N3O3

>  <EXACT MASS>  (672) 
287.126991404

>  <MW>  (672) 
287

>  <ID>  (672) 
JP011167

>  <CONTRIBUTOR>  (672) 
University of Tokyo Team, {Faculty of Engineering, University of Tokyo

>  <COMMENT>  (672) 
SMILES=CCN(C(=O)1)C(=O)N(c32)C(CC(=O)c(cccc3)2)N(CC)1
InChI=InChI=1S/C15H17N3O3/c1-3-16-13-9-12(19)10-7-5-6-8-11(10)18(13)15(21)17(4-2)14(16)20/h5-8,13H,3-4,9H2,1-2H3
computed SMILES=O=C1C=2C=CC=CC2N3C(=O)N(C(=O)N(CC)C3C1)CC
accession=JP011167
date=2016.01.19 (Created 2008.10.21, modified 2011.05.06)
author=SAWADA M, THE INST. OF SCIENTIFIC AND INDUSTRIALRESEARCH OSAKA UNIV.
license=CC BY-NC-SA
exact mass=287.12699
ionization energy=70 eV
ion type=[M]+*
computed spectral entropy=4.139261168567282
computed normalized entropy=0.8616242789163541
SPLASH=splash10-000b-9740000000-1bee785e235dd8e1e03d
submitter=submitter = University of Tokyo Team (Faculty of Engineering, University of Tokyo)
MoNA Rating=3.75

>  <NUM PEAKS>  (672) 
122

>  <MASS SPECTRAL PEAKS>  (672) 
34 1
38 2.9
39 13.9
40 10.7
41 7.3
42 12.8
43 15.7
44 17.2
45 5.1
46 5.6
47 1.9
50 4.9
51 9
52 3.6
53 2.4
54 2.6
55 12.9
56 31.1
57 8.8
58 2.7
59 1.1
60 3
61 2.6
62 2
63 9.7
64 10.9
65 20.1
66 4.9
67 1.5
68 1.5
69 4.1
70 16.6
71 3.7
72 4.2
73 4.9
74 5.6
75 2.9
76 11.9
77 25.5
78 4.8
79 3.2
80 1.3
83 5.7
84 1
85 1.1
87 5.2
88 1.5
89 14.3
90 47.8
91 15.4
92 10.9
93 29.6
94 3.2
97 2.1
98 1.2
99 1
101 5.8
102 1.9
103 4.7
104 10.2
105 5.1
106 12.6
107 1.6
115 1.9
116 15.3
117 29.9
118 18.7
119 8.7
120 3.6
123 4.5
124 4.9
126 1
127 1.4
128 1.7
129 1.7
130 8.7
131 2.8
132 7.3
133 9.2
134 2.2
135 2.7
136 1.2
143 1.1
144 11
145 84.3
146 61.6
147 10.4
148 1.1
149 1.5
155 2.8
157 18.4
158 3
159 2.8
160 2.6
161 5.4
162 1.8
173 5.7
174 3.3
175 1.2
187 5.1
188 5.1
189 2.7
201 11
202 2
215 6.2
216 7.3
217 4.2
218 1
230 1.7
244 7.2
245 5.8
246 1
249 22.9
250 4.3
251 1.3
258 11.4
259 4.9
260 1.7
272 1.7
286 10.2
287 99.99
288 26.7

$$$$

     RDKit          2D

 19 21  0  0  0  0  0  0  0  0999 V2000
   -2.1300   -3.8000    0.0000 C   0  0  0  0  0  0  0  0  0  0  0  0
   -4.7289    0.7002    0.0000 C   0  0  0  0  0  0  0  0  0  0  0  0
    3.0600    2.2000    0.0000 C   0  0  0  0  0  0  0  0  0  0  0  0
    1.7600    2.9500    0.0000 C   0  0  0  0  0  0  0  0  0  0  0  0
    3.0600    0.7000    0.0000 C   0  0  0  0  0  0  0  0  0  0  0  0
    0.4600    2.2000    0.0000 C   0  0  0  0  0  0  0  0  0  0  0  0
    0.4600   -2.3000    0.0000 C   0  0  0  0  0  0  0  0  0  0  0  0
    1.7600   -0.0500    0.0000 C   0  0  0  0  0  0  0  0  0  0  0  0
    0.4600    0.7000    0.0000 C   0  0  0  0  0  0  0  0  0  0  0  0
    1.7600   -1.5500    0.0000 C   0  0  0  0  0  0  0  0  0  0  0  0
   -0.8300   -1.5500    0.0000 C   0  0  0  0  0  0  0  0  0  0  0  0
   -3.4300   -1.5500    0.0000 C   0  0  0  0  0  0  0  0  0  0  0  0
   -2.1300    0.7000    0.0000 C   0  0  0  0  0  0  0  0  0  0  0  0
   -2.1300   -2.3000    0.0000 N   0  0  0  0  0  0  0  0  0  0  0  0
   -3.4300   -0.0500    0.0000 N   0  0  0  0  0  0  0  0  0  0  0  0
   -0.8300   -0.0500    0.0000 N   0  0  0  0  0  0  0  0  0  0  0  0
    3.0589   -2.3002    0.0000 O   0  0  0  0  0  0  0  0  0  0  0  0
   -4.7289   -2.3002    0.0000 O   0  0  0  0  0  0  0  0  0  0  0  0
   -2.1300    2.2000    0.0000 O   0  0  0  0  0  0  0  0  0  0  0  0
  4  3  2  0
  5  3  1  0
  6  4  1  0
  8  5  2  0
  9  6  2  0
  9  8  1  0
 10  7  1  0
 10  8  1  0
 11  7  2  0
 14  1  1  0
 14 11  1  0
 14 12  1  0
 15  2  1  0
 15 12  1  0
 15 13  1  0
 16  9  1  0
 16 11  1  0
 16 13  1  0
 17 10  2  0
 18 12  2  0
 19 13  2  0
M  END
>  <NAME>  (673) 
2,4-DIMETHYL-1H-(1,3,5)TRIAZINO(1,2-A)QUINOLINE-1,3,6(2H,4H)-TRIONE

>  <SYNONYMS>  (673) 


>  <SPECTRUM TYPE>  (673) 
MS1

>  <INSTRUMENT TYPE>  (673) 
EI-B

>  <INSTRUMENT>  (673) 
JEOL JMS-DX-300

>  <ION MODE>  (673) 
P

>  <INCHIKEY>  (673) 
SOSVIGDJLBZSBE-UHFFFAOYSA-N

>  <FORMULA>  (673) 
C13H11N3O3

>  <EXACT MASS>  (673) 
257.08004121199997

>  <MW>  (673) 
257

>  <ID>  (673) 
JP011166

>  <CONTRIBUTOR>  (673) 
University of Tokyo Team, {Faculty of Engineering, University of Tokyo

>  <COMMENT>  (673) 
SMILES=O=C(C=1)c(c3)c(ccc3)N(C(=O)2)C1N(C)C(=O)N(C)2
InChI=InChI=1S/C13H11N3O3/c1-14-11-7-10(17)8-5-3-4-6-9(8)16(11)13(19)15(2)12(14)18/h3-7H,1-2H3
computed SMILES=O=C1C=C2N(C(=O)N(C(=O)N2C)C)C=3C=CC=CC13
accession=JP011166
date=2016.01.19 (Created 2008.10.21, modified 2011.05.06)
author=SAWADA M, THE INST. OF SCIENTIFIC AND INDUSTRIALRESEARCH OSAKA UNIV.
license=CC BY-NC-SA
exact mass=257.08004
ionization energy=70 eV
ion type=[M]+*
computed spectral entropy=3.4856756991562117
computed normalized entropy=0.8000708419627788
SPLASH=splash10-0ab9-7960000000-4022e34b421a2c271cdc
submitter=submitter = University of Tokyo Team (Faculty of Engineering, University of Tokyo)
MoNA Rating=3.75

>  <NUM PEAKS>  (673) 
78

>  <MASS SPECTRAL PEAKS>  (673) 
38 1.2
39 3.9
40 6.9
41 3.6
42 2.5
43 5.8
44 27.2
45 1.4
50 3.8
51 2.7
52 1.7
53 1.5
54 1.7
55 4
56 4.6
57 5.8
58 1.2
61 1.7
62 2.5
63 5
64 3.4
65 1.8
67 1.6
68 1.3
69 2.8
70 2.2
71 1.8
74 1.6
75 3.3
76 6.8
77 3
81 1.6
82 12.4
83 2.3
84 1
85 1.1
86 3
87 1.2
88 16.3
89 5.4
90 10
91 1.9
92 1.2
95 1.2
97 1.2
100 1.2
102 3.4
103 3.8
104 1.7
105 1.9
114 6.3
115 27.2
116 4
117 2.5
118 1.5
119 2.4
129 2.7
130 1.2
131 3.9
143 27
144 5.5
145 2.3
146 23.3
147 2.7
149 1.3
157 6
158 1
159 1.3
171 20
172 59.8
173 8.2
199 1.2
200 37.2
201 5.8
229 4.8
257 99.99
258 20.8
259 2.8

$$$$

     RDKit          2D

 19 21  0  0  0  0  0  0  0  0999 V2000
   -2.1300   -3.8000    0.0000 C   0  0  0  0  0  0  0  0  0  0  0  0
   -4.7289    0.7002    0.0000 C   0  0  0  0  0  0  0  0  0  0  0  0
    3.0600    2.2000    0.0000 C   0  0  0  0  0  0  0  0  0  0  0  0
    1.7600    2.9500    0.0000 C   0  0  0  0  0  0  0  0  0  0  0  0
    3.0600    0.7000    0.0000 C   0  0  0  0  0  0  0  0  0  0  0  0
    0.4600    2.2000    0.0000 C   0  0  0  0  0  0  0  0  0  0  0  0
    0.4600   -2.3000    0.0000 C   0  0  0  0  0  0  0  0  0  0  0  0
    1.7600   -0.0500    0.0000 C   0  0  0  0  0  0  0  0  0  0  0  0
    0.4600    0.7000    0.0000 C   0  0  0  0  0  0  0  0  0  0  0  0
    1.7600   -1.5500    0.0000 C   0  0  0  0  0  0  0  0  0  0  0  0
   -0.8300   -1.5500    0.0000 C   0  0  0  0  0  0  0  0  0  0  0  0
   -3.4300   -1.5500    0.0000 C   0  0  0  0  0  0  0  0  0  0  0  0
   -2.1300    0.7000    0.0000 C   0  0  0  0  0  0  0  0  0  0  0  0
   -2.1300   -2.3000    0.0000 N   0  0  0  0  0  0  0  0  0  0  0  0
   -3.4300   -0.0500    0.0000 N   0  0  0  0  0  0  0  0  0  0  0  0
   -0.8300   -0.0500    0.0000 N   0  0  0  0  0  0  0  0  0  0  0  0
    3.0589   -2.3002    0.0000 O   0  0  0  0  0  0  0  0  0  0  0  0
   -4.7289   -2.3002    0.0000 O   0  0  0  0  0  0  0  0  0  0  0  0
   -2.1300    2.2000    0.0000 O   0  0  0  0  0  0  0  0  0  0  0  0
  4  3  2  0
  5  3  1  0
  6  4  1  0
  8  5  2  0
  9  6  2  0
  9  8  1  0
 10  7  1  0
 10  8  1  0
 11  7  1  0
 14  1  1  0
 14 11  1  0
 14 12  1  0
 15  2  1  0
 15 12  1  0
 15 13  1  0
 16  9  1  0
 16 11  1  0
 16 13  1  0
 17 10  2  0
 18 12  2  0
 19 13  2  0
M  END
>  <NAME>  (674) 
2,4-DIMETHYL-4,4A-DIHYDRO-1H-(1,3,5)TRIAZINO(1,2-A)QUINOLINE-1,3,6(2H,5H)-TRIONE

>  <SYNONYMS>  (674) 


>  <SPECTRUM TYPE>  (674) 
MS1

>  <INSTRUMENT TYPE>  (674) 
EI-B

>  <INSTRUMENT>  (674) 
JEOL JMS-DX-300

>  <ION MODE>  (674) 
P

>  <INCHIKEY>  (674) 
QZQGHWFEIUGPCM-UHFFFAOYSA-N

>  <FORMULA>  (674) 
C13H13N3O3

>  <EXACT MASS>  (674) 
259.095691276

>  <MW>  (674) 
259

>  <ID>  (674) 
JP011165

>  <CONTRIBUTOR>  (674) 
University of Tokyo Team, {Faculty of Engineering, University of Tokyo

>  <COMMENT>  (674) 
SMILES=O=C(C1)c(c3)c(ccc3)N(C(=O)2)C1N(C)C(=O)N(C)2
InChI=InChI=1S/C13H13N3O3/c1-14-11-7-10(17)8-5-3-4-6-9(8)16(11)13(19)15(2)12(14)18/h3-6,11H,7H2,1-2H3
computed SMILES=O=C1C=2C=CC=CC2N3C(=O)N(C(=O)N(C)C3C1)C
accession=JP011165
date=2016.01.19 (Created 2008.10.21, modified 2011.05.06)
author=SAWADA M, THE INST. OF SCIENTIFIC AND INDUSTRIALRESEARCH OSAKA UNIV.
license=CC BY-NC-SA
exact mass=259.09569
ionization energy=70 eV
ion type=[M]+*
computed spectral entropy=3.592961111946416
computed normalized entropy=0.8222917936685763
SPLASH=splash10-0a4m-9760000000-1550e28a7295750addd4
submitter=submitter = University of Tokyo Team (Faculty of Engineering, University of Tokyo)
MoNA Rating=3.75

>  <NUM PEAKS>  (674) 
79

>  <MASS SPECTRAL PEAKS>  (674) 
38 1.3
39 4.8
40 17.2
41 5
42 22.1
43 7.9
44 34.4
45 1.7
50 3.8
51 3.7
52 1.8
53 1
54 1.8
55 4.7
56 8.4
57 8.3
58 6
59 2
61 3.1
62 1.7
63 5.9
64 5.9
65 2.1
67 1.3
69 2.8
70 2.2
71 1.7
72 1
74 1.1
75 2.5
76 9.3
77 7.9
78 2.1
81 1.3
82 1.3
83 1.7
84 1.5
88 1.1
89 10.4
90 30.3
91 7.5
92 3.1
95 1.4
102 1
103 3.2
104 4.1
105 3.8
113 1.2
116 8.1
117 18.8
118 10.8
119 5.8
120 1
127 2.2
131 2.6
132 8.6
133 4
144 6.2
145 69.8
146 30.8
147 3.9
148 6.7
149 2.5
159 7.1
160 2.5
161 4
173 1.6
174 2.8
175 1.2
201 4.6
202 3.8
216 5.9
217 3.4
230 7.3
231 1.8
244 3
258 16.3
259 99.99
260 20.3

$$$$

     RDKit          2D

 11 12  0  0  0  0  0  0  0  0999 V2000
   -2.6000    0.7500    0.0000 C   0  0  0  0  0  0  0  0  0  0  0  0
   -2.6000   -0.7500    0.0000 C   0  0  0  0  0  0  0  0  0  0  0  0
   -1.3000    1.5000    0.0000 C   0  0  0  0  0  0  0  0  0  0  0  0
   -1.3000   -1.5000    0.0000 C   0  0  0  0  0  0  0  0  0  0  0  0
    2.6000    0.7500    0.0000 C   0  0  0  0  0  0  0  0  0  0  0  0
    2.6000   -0.7500    0.0000 C   0  0  0  0  0  0  0  0  0  0  0  0
   -0.0000    0.7500    0.0000 C   0  0  0  0  0  0  0  0  0  0  0  0
   -0.0000   -0.7500    0.0000 C   0  0  0  0  0  0  0  0  0  0  0  0
    1.3000    1.5000    0.0000 C   0  0  0  0  0  0  0  0  0  0  0  0
    1.3000   -1.5000    0.0000 N   0  0  0  0  0  0  0  0  0  0  0  0
    1.3000    3.0000    0.0000 O   0  0  0  0  0  0  0  0  0  0  0  0
  2  1  2  0
  3  1  1  0
  4  2  1  0
  6  5  2  0
  7  3  2  0
  8  4  2  0
  8  7  1  0
  9  5  1  0
  9  7  1  0
 10  6  1  0
 10  8  1  0
 11  9  2  0
M  END
>  <NAME>  (675) 
4-QUINOLINONE

>  <SYNONYMS>  (675) 


>  <SPECTRUM TYPE>  (675) 
MS1

>  <INSTRUMENT TYPE>  (675) 
EI-B

>  <INSTRUMENT>  (675) 
JEOL JMS-DX-300

>  <ION MODE>  (675) 
P

>  <INCHIKEY>  (675) 
PMZDQRJGMBOQBF-UHFFFAOYSA-N

>  <FORMULA>  (675) 
C9H7NO

>  <EXACT MASS>  (675) 
145.052763844

>  <MW>  (675) 
145

>  <ID>  (675) 
JP011164

>  <CONTRIBUTOR>  (675) 
University of Tokyo Team, {Faculty of Engineering, University of Tokyo

>  <COMMENT>  (675) 
SMILES=O=C(C=1)c(c2)c(ccc2)NC1
InChI=InChI=1S/C9H7NO/c11-9-5-6-10-8-4-2-1-3-7(8)9/h1-6H,(H,10,11)
computed SMILES=O=C1C=CNC=2C=CC=CC12
accession=JP011164
date=2016.01.19 (Created 2008.10.21, modified 2011.05.06)
author=SAWADA M, THE INST. OF SCIENTIFIC AND INDUSTRIALRESEARCH OSAKA UNIV.
license=CC BY-NC-SA
exact mass=145.05276
ionization energy=70 eV
ion type=[M]+*
computed spectral entropy=3.4409356696247233
computed normalized entropy=0.7994618099660551
SPLASH=splash10-00ke-9500000000-7eaa976076b44037ed38
submitter=submitter = University of Tokyo Team (Faculty of Engineering, University of Tokyo)
MoNA Rating=3.75

>  <NUM PEAKS>  (675) 
74

>  <MASS SPECTRAL PEAKS>  (675) 
37 4.4
38 7.8
39 15
40 9.8
41 6.8
42 2.2
43 4.4
44 58.4
45 3
46 1.6
49 1.2
50 12.9
51 9.9
52 7.2
53 5.2
54 1.8
55 4
56 1.6
57 3.8
58 2.2
59 20.6
60 1.1
61 4.7
62 10.9
63 29.2
64 17.6
65 6.2
66 1.7
67 2.1
68 2.4
69 4.9
70 1.7
71 2
73 4.1
74 7.8
75 6.6
76 7
77 10.3
78 4.5
81 2.6
82 1.4
83 2
84 1.2
85 1.9
86 1.8
87 3
88 4.4
89 51
90 60.1
91 10.2
92 10.4
93 2
95 1.7
96 1.1
97 1.7
98 1.4
99 1
101 1.2
102 1.2
103 1
104 6.1
105 4.6
111 1
114 1.2
115 2
116 24.1
117 85.7
118 16.3
119 3.1
121 1.1
144 11
145 99.99
146 27.1
147 2.2

$$$$

     RDKit          2D

  7  7  0  0  0  0  0  0  0  0999 V2000
    1.3000    0.7500    0.0000 C   0  0  0  0  0  0  0  0  0  0  0  0
   -1.3000    0.7500    0.0000 C   0  0  0  0  0  0  0  0  0  0  0  0
    1.3000    2.2500    0.0000 C   0  0  0  0  0  0  0  0  0  0  0  0
   -1.3000    2.2500    0.0000 C   0  0  0  0  0  0  0  0  0  0  0  0
   -0.0000    0.0000    0.0000 C   0  0  0  0  0  0  0  0  0  0  0  0
    0.0000    3.0000    0.0000 N   0  0  0  0  0  0  0  0  0  0  0  0
   -0.0000   -1.5000    0.0000 O   0  0  0  0  0  0  0  0  0  0  0  0
  3  1  2  0
  4  2  1  0
  5  1  1  0
  5  2  1  0
  6  3  1  0
  6  4  2  0
  7  5  2  0
M  END
>  <NAME>  (676) 
4-PYRIDINONE

>  <SYNONYMS>  (676) 


>  <SPECTRUM TYPE>  (676) 
MS1

>  <INSTRUMENT TYPE>  (676) 
EI-B

>  <INSTRUMENT>  (676) 
JEOL JMS-DX-300

>  <ION MODE>  (676) 
P

>  <INCHIKEY>  (676) 
MPOYBFYHRQBZPM-UHFFFAOYSA-N

>  <FORMULA>  (676) 
C5H5NO

>  <EXACT MASS>  (676) 
95.03711378

>  <MW>  (676) 
95

>  <ID>  (676) 
JP011162

>  <CONTRIBUTOR>  (676) 
University of Tokyo Team, {Faculty of Engineering, University of Tokyo

>  <COMMENT>  (676) 
SMILES=O=C(C1)C=CN=C1
InChI=InChI=1S/C5H5NO/c7-5-1-3-6-4-2-5/h1,3-4H,2H2
computed SMILES=O=C1C=CN=CC1
accession=JP011162
date=2016.01.19 (Created 2008.10.21, modified 2011.05.06)
author=SAWADA M, THE INST. OF SCIENTIFIC AND INDUSTRIALRESEARCH OSAKA UNIV.
license=CC BY-NC-SA
exact mass=95.03711
ionization energy=70 eV
ion type=[M]+*
computed spectral entropy=2.7157053674631038
computed normalized entropy=0.7908315336516423
SPLASH=splash10-0002-9000000000-a5770552d65d4a5284ef
submitter=submitter = University of Tokyo Team (Faculty of Engineering, University of Tokyo)
MoNA Rating=3.75

>  <NUM PEAKS>  (676) 
31

>  <MASS SPECTRAL PEAKS>  (676) 
25 1.3
26 7.5
27 5.2
29 6.8
37 5.2
38 9.5
39 27.2
40 21
41 24.5
42 7.4
43 2.7
44 7.9
48 1.1
49 2.2
50 7
51 6.8
52 4.3
53 7
54 1.6
55 7.1
64 1
65 1
66 6
67 24.5
68 23.7
69 3
76 1.8
78 1
94 4.7
95 99.99
96 6.8

$$$$

     RDKit          2D

 19 20  0  0  0  0  0  0  0  0999 V2000
    3.8884    2.5492    0.0000 C   0  0  0  0  0  0  0  0  0  0  0  0
    3.8888    4.0501    0.0000 C   0  0  0  0  0  0  0  0  0  0  0  0
    2.5888    1.7984    0.0000 C   0  0  0  0  0  0  0  0  0  0  0  0
   -5.1900    1.8241    0.0000 C   0  0  0  0  0  0  0  0  0  0  0  0
   -6.4686    2.5592    0.0000 C   0  0  0  0  0  0  0  0  0  0  0  0
    2.5898    4.8001    0.0000 C   0  0  0  0  0  0  0  0  0  0  0  0
    1.2898    2.5484    0.0000 C   0  0  0  0  0  0  0  0  0  0  0  0
   -3.9086    2.5691    0.0000 C   0  0  0  0  0  0  0  0  0  0  0  0
   -6.4962    4.0590    0.0000 C   0  0  0  0  0  0  0  0  0  0  0  0
   -2.6068    4.7992    0.0000 C   0  0  0  0  0  0  0  0  0  0  0  0
    1.2903    4.0492    0.0000 C   0  0  0  0  0  0  0  0  0  0  0  0
   -3.9059    4.0492    0.0000 C   0  0  0  0  0  0  0  0  0  0  0  0
   -5.1845    4.7843    0.0000 C   0  0  0  0  0  0  0  0  0  0  0  0
   -0.0087    4.7992    0.0000 C   0  0  0  0  0  0  0  0  0  0  0  0
   -5.1721    6.2843    0.0000 N   0  0  0  0  0  0  0  0  0  0  0  0
   -0.0087    6.2992    0.0000 O   0  0  0  0  0  0  0  0  0  0  0  0
   -6.4649    7.0450    0.0000 O   0  0  0  0  0  0  0  0  0  0  0  0
   -3.8669    7.0235    0.0000 O   0  0  0  0  0  0  0  0  0  0  0  0
   -1.3078    4.0492    0.0000 O   0  0  0  0  0  0  0  0  0  0  0  0
  2  1  2  0
  3  1  1  0
  5  4  2  0
  6  2  1  0
  7  3  2  0
  8  4  1  0
  9  5  1  0
 11  6  2  0
 11  7  1  0
 12  8  2  0
 12 10  1  0
 13  9  2  0
 13 12  1  0
 14 11  1  0
 15 13  1  0
 16 14  2  0
 17 15  1  0
 18 15  2  0
 19 10  1  0
 19 14  1  0
M  CHG  2  15   1  17  -1
M  END
>  <NAME>  (677) 
2-NITROBENZYL BENZOATE

>  <SYNONYMS>  (677) 


>  <SPECTRUM TYPE>  (677) 
MS1

>  <INSTRUMENT TYPE>  (677) 
EI-B

>  <INSTRUMENT>  (677) 
JEOL JMS-DX-300

>  <ION MODE>  (677) 
P

>  <INCHIKEY>  (677) 
IFNWVKHDWYPTRH-UHFFFAOYSA-N

>  <FORMULA>  (677) 
C14H11NO4

>  <EXACT MASS>  (677) 
257.068807832

>  <MW>  (677) 
257

>  <ID>  (677) 
JP011161

>  <CONTRIBUTOR>  (677) 
University of Tokyo Team, {Faculty of Engineering, University of Tokyo

>  <COMMENT>  (677) 
SMILES=[O-1][N+1](=O)c(c2)c(ccc2)COC(=O)c(c1)cccc1
InChI=InChI=1S/C14H11NO4/c16-14(11-6-2-1-3-7-11)19-10-12-8-4-5-9-13(12)15(17)18/h1-9H,10H2
computed SMILES=O=C(OCC=1C=CC=CC1N(=O)=O)C=2C=CC=CC2
accession=JP011161
date=2016.01.19 (Created 2008.10.21, modified 2011.05.06)
author=SAWADA M, THE INST. OF SCIENTIFIC AND INDUSTRIALRESEARCH OSAKA UNIV.
license=CC BY-NC-SA
exact mass=257.06881
ionization energy=70 eV
ion type=[M]+*
computed spectral entropy=3.708155220589881
computed normalized entropy=0.8220507012538741
SPLASH=splash10-06vi-9420000000-d15f9a1e25d0dbab3c05
submitter=submitter = University of Tokyo Team (Faculty of Engineering, University of Tokyo)
MoNA Rating=3.75

>  <NUM PEAKS>  (677) 
91

>  <MASS SPECTRAL PEAKS>  (677) 
37 1.8
38 6.2
39 28.8
40 11.6
41 8.6
42 2.8
43 7.9
44 27
45 2.4
49 1.2
50 37.2
51 55.4
52 32.9
53 6.8
54 1.7
55 9.9
56 9.1
57 10.9
60 2
61 2.1
62 7.1
63 27.5
64 22.8
65 22.1
66 4.7
67 1.7
68 1.6
69 5.8
70 6.9
71 5.6
73 2.4
74 9.4
75 11.2
76 35.1
77 77.1
78 63.3
79 53.9
80 5.5
81 1.9
82 1.2
83 3.9
84 2.6
85 2.2
86 1.6
87 1.8
89 31.4
90 11
91 54.8
92 17.7
93 6.9
94 2
95 1
97 1.7
98 2.7
103 1.6
104 14
105 91.8
106 69.1
107 15.1
108 1.8
111 1.2
112 1.3
113 1.1
115 1
116 1.1
119 4.6
120 1.7
121 6.7
122 22.9
123 3.3
134 1.4
135 84.9
136 38.4
137 5.1
139 1.6
149 3.6
151 1.1
152 3.5
153 1.3
165 3.1
166 1.7
167 4
181 1.2
211 99.99
212 51.8
213 6.5
227 2
249 1.1
256 1.1
257 14.1
258 3

$$$$

     RDKit          2D

 11 11  0  0  1  0  0  0  0  0999 V2000
   -3.5021   -0.3312    0.0000 C   0  0  0  0  0  0  0  0  0  0  0  0
    2.7765    1.2491    0.0000 C   0  0  0  0  0  0  0  0  0  0  0  0
    1.2824    1.1160    0.0000 C   0  0  0  0  0  0  0  0  0  0  0  0
    0.2927    2.2417    0.0000 C   0  0  0  0  0  0  0  0  0  0  0  0
   -1.0818    1.6612    0.0000 C   0  0  0  0  0  0  0  0  0  0  0  0
   -0.9520    0.1660    0.0000 C   0  0  0  0  0  0  0  0  0  0  0  0
    3.6388    0.0217    0.0000 O   0  0  0  0  0  0  0  0  0  0  0  0
    0.6272    3.7039    0.0000 O   0  0  0  0  0  0  0  0  0  0  0  0
   -2.3666    2.4353    0.0000 O   0  0  0  0  0  0  0  0  0  0  0  0
   -2.0835   -0.8188    0.0000 O   0  0  0  0  0  0  0  0  0  0  0  0
    0.5064   -0.1680    0.0000 O   0  0  0  0  0  0  0  0  0  0  0  0
  3  2  1  1
  4  3  1  0
  5  4  1  0
  6  5  1  0
  7  2  1  0
  4  8  1  6
  5  9  1  6
 10  1  1  0
  6 10  1  1
 11  3  1  0
 11  6  1  0
M  END
>  <NAME>  (678) 
METHYL BETA-D-RIBOFURANOSIDE

>  <SYNONYMS>  (678) 


>  <SPECTRUM TYPE>  (678) 
MS1

>  <INSTRUMENT TYPE>  (678) 
EI-B

>  <INSTRUMENT>  (678) 
JEOL JMS-DX-300

>  <ION MODE>  (678) 
P

>  <INCHIKEY>  (678) 
NALRCAPFICWVAQ-KVTDHHQDSA-N

>  <FORMULA>  (678) 
C6H12O5

>  <EXACT MASS>  (678) 
164.06847348399998

>  <MW>  (678) 
164

>  <ID>  (678) 
JP011153

>  <CONTRIBUTOR>  (678) 
University of Tokyo Team, {Faculty of Engineering, University of Tokyo

>  <COMMENT>  (678) 
SMILES=OCC(O1)C(O)C(O)C(OC)1
InChI=InChI=1S/C6H12O5/c1-10-6-5(9)4(8)3(2-7)11-6/h3-9H,2H2,1H3/t3-,4-,5-,6-/m1/s1
computed SMILES=OCC1OC(OC)C(O)C1O
accession=JP011153
date=2016.01.19 (Created 2008.10.21, modified 2011.05.06)
author=SAWADA M, THE INST. OF SCIENTIFIC AND INDUSTRIALRESEARCH OSAKA UNIV.
license=CC BY-NC-SA
exact mass=164.06847
ionization energy=70 eV
ion type=[M]+*
computed spectral entropy=3.071708985151734
computed normalized entropy=0.821824639108286
SPLASH=splash10-00di-9100000000-6d33226606549e07d13e
submitter=submitter = University of Tokyo Team (Faculty of Engineering, University of Tokyo)
MoNA Rating=3.75

>  <NUM PEAKS>  (678) 
42

>  <MASS SPECTRAL PEAKS>  (678) 
27 7.7
30 2.6
33 10.4
39 2.3
40 2.9
41 5.2
42 5.7
43 16.8
44 6.1
45 49.9
46 1.2
47 1.4
54 2.2
55 9
56 4
57 43.8
58 11.9
59 7
60 11.5
61 24.3
68 8.9
69 4.1
71 8.4
72 3.3
73 99.99
74 13.6
75 24
76 1
83 1.6
85 9.5
86 17.7
87 15.1
88 1.2
101 1.8
103 2.6
104 7.6
105 4.3
115 4.8
116 1.4
117 2.6
133 34.7
134 2

$$$$

     RDKit          2D

 11 11  0  0  1  0  0  0  0  0999 V2000
   -3.5021   -0.3312    0.0000 C   0  0  0  0  0  0  0  0  0  0  0  0
    2.7765    1.2491    0.0000 C   0  0  0  0  0  0  0  0  0  0  0  0
    1.2824    1.1160    0.0000 C   0  0  0  0  0  0  0  0  0  0  0  0
    0.2927    2.2417    0.0000 C   0  0  0  0  0  0  0  0  0  0  0  0
   -1.0818    1.6612    0.0000 C   0  0  0  0  0  0  0  0  0  0  0  0
   -0.9520    0.1660    0.0000 C   0  0  0  0  0  0  0  0  0  0  0  0
    3.6388    0.0217    0.0000 O   0  0  0  0  0  0  0  0  0  0  0  0
    0.6272    3.7039    0.0000 O   0  0  0  0  0  0  0  0  0  0  0  0
   -2.3666    2.4353    0.0000 O   0  0  0  0  0  0  0  0  0  0  0  0
   -2.0835   -0.8188    0.0000 O   0  0  0  0  0  0  0  0  0  0  0  0
    0.5064   -0.1680    0.0000 O   0  0  0  0  0  0  0  0  0  0  0  0
  3  2  1  1
  4  3  1  0
  5  4  1  0
  6  5  1  0
  7  2  1  0
  4  8  1  6
  5  9  1  6
 10  1  1  0
  6 10  1  6
 11  3  1  0
 11  6  1  0
M  END
>  <NAME>  (679) 
METHYL ALPHA-D-RIBOFURANOSIDE

>  <SYNONYMS>  (679) 


>  <SPECTRUM TYPE>  (679) 
MS1

>  <INSTRUMENT TYPE>  (679) 
EI-B

>  <INSTRUMENT>  (679) 
JEOL JMS-DX-300

>  <ION MODE>  (679) 
P

>  <INCHIKEY>  (679) 
NALRCAPFICWVAQ-KAZBKCHUSA-N

>  <FORMULA>  (679) 
C6H12O5

>  <EXACT MASS>  (679) 
164.06847348399998

>  <MW>  (679) 
164

>  <ID>  (679) 
JP011152

>  <CONTRIBUTOR>  (679) 
University of Tokyo Team, {Faculty of Engineering, University of Tokyo

>  <COMMENT>  (679) 
SMILES=OCC(O1)C(O)C(O)C(OC)1
InChI=InChI=1S/C6H12O5/c1-10-6-5(9)4(8)3(2-7)11-6/h3-9H,2H2,1H3/t3-,4-,5-,6+/m1/s1
computed SMILES=OCC1OC(OC)C(O)C1O
accession=JP011152
date=2016.01.19 (Created 2008.10.21, modified 2011.05.06)
author=SAWADA M, THE INST. OF SCIENTIFIC AND INDUSTRIALRESEARCH OSAKA UNIV.
license=CC BY-NC-SA
exact mass=164.06847
ionization energy=70 eV
ion type=[M]+*
computed spectral entropy=3.018764631055543
computed normalized entropy=0.8360103176216886
SPLASH=splash10-00di-9000000000-7a11fdf751a5f66464fb
submitter=submitter = University of Tokyo Team (Faculty of Engineering, University of Tokyo)
MoNA Rating=3.75

>  <NUM PEAKS>  (679) 
37

>  <MASS SPECTRAL PEAKS>  (679) 
27 6.3
30 2.4
33 9.2
39 2
40 4
41 4.8
42 4.9
43 16.2
44 7.6
45 30.7
47 1.3
54 2.3
55 9
56 5.8
57 42.7
58 11.6
59 5.2
60 14.1
61 24.4
68 8.9
69 4
71 9.2
72 3.8
73 99.99
74 13.4
75 14.1
85 9.5
86 17.2
87 10.7
88 2.2
101 1.8
103 2
104 6.6
105 2.2
115 2.5
117 1.9
133 18

$$$$

     RDKit          2D

 13 13  0  0  1  0  0  0  0  0999 V2000
   -2.6111   -0.4888    0.0000 C   0  0  0  0  0  0  0  0  0  0  0  0
    3.9059   -1.2300    0.0000 C   0  0  0  0  0  0  0  0  0  0  0  0
    2.6070   -0.4798    0.0000 C   0  0  0  0  0  0  0  0  0  0  0  0
    2.6070    1.0102    0.0000 C   0  0  0  0  0  0  0  0  0  0  0  0
    1.3070    1.7702    0.0000 C   0  0  0  0  0  0  0  0  0  0  0  0
   -0.0130    1.0102    0.0000 C   0  0  0  0  0  0  0  0  0  0  0  0
   -0.0130   -0.4798    0.0000 C   0  0  0  0  0  0  0  0  0  0  0  0
    3.9057   -2.7300    0.0000 O   0  0  0  0  0  0  0  0  0  0  0  0
    3.9081    1.7567    0.0000 O   0  0  0  0  0  0  0  0  0  0  0  0
    1.3120    3.2702    0.0000 O   0  0  0  0  0  0  0  0  0  0  0  0
   -1.3116    1.7610    0.0000 O   0  0  0  0  0  0  0  0  0  0  0  0
   -1.3095   -1.2343    0.0000 O   0  0  0  0  0  0  0  0  0  0  0  0
    1.3070   -1.2298    0.0000 O   0  0  0  0  0  0  0  0  0  0  0  0
  3  2  1  1
  4  3  1  0
  5  4  1  0
  6  5  1  0
  7  6  1  0
  8  2  1  0
  9  4  1  0
  5 10  1  6
  6 11  1  1
 12  1  1  0
 12  7  1  0
 13  3  1  0
 13  7  1  0
M  END
>  <NAME>  (680) 
METHYL BETA-D-TALOPYRANOSIDE

>  <SYNONYMS>  (680) 


>  <SPECTRUM TYPE>  (680) 
MS1

>  <INSTRUMENT TYPE>  (680) 
EI-B

>  <INSTRUMENT>  (680) 
JEOL JMS-DX-300

>  <ION MODE>  (680) 
P

>  <INCHIKEY>  (680) 
HOVAGTYPODGVJG-WMYZWQRYSA-N

>  <FORMULA>  (680) 
C7H14O6

>  <EXACT MASS>  (680) 
194.07903816799998

>  <MW>  (680) 
194

>  <ID>  (680) 
JP011151

>  <CONTRIBUTOR>  (680) 
University of Tokyo Team, {Faculty of Engineering, University of Tokyo

>  <COMMENT>  (680) 
SMILES=OCC([H])(O1)C([H])(O)C([H])(O)C([H])(O)C([H])(OC)1
InChI=InChI=1S/C7H14O6/c1-12-7-6(11)5(10)4(9)3(2-8)13-7/h3-11H,2H2,1H3/t3-,4?,5-,6+,7?/m1/s1
computed SMILES=OCC1OC(OC)C(O)C(O)C1O
accession=JP011151
date=2016.01.19 (Created 2008.10.21, modified 2011.05.06)
author=SAWADA M, THE INST. OF SCIENTIFIC AND INDUSTRIALRESEARCH OSAKA UNIV.
license=CC BY-NC-SA
exact mass=194.07904
ionization energy=70 eV
ion type=[M]+*
computed spectral entropy=3.4705309194909084
computed normalized entropy=0.8224966422584269
SPLASH=splash10-03k9-9000000000-669479bc1c5777c47bc4
submitter=submitter = University of Tokyo Team (Faculty of Engineering, University of Tokyo)
MoNA Rating=3.75

>  <NUM PEAKS>  (680) 
68

>  <MASS SPECTRAL PEAKS>  (680) 
26 1.3
27 8.2
30 4.6
33 8.1
34 5.1
39 3.3
40 7
41 6.9
42 12.2
43 20
44 14.7
45 21.8
46 8.9
47 2.8
48 1
53 1
54 2.1
55 10.5
56 19
57 50.1
58 39.6
59 11
60 65.7
61 99.99
62 67
63 4.8
68 1.4
69 8.2
70 9.9
71 34.7
72 22.3
73 36.3
74 92.4
75 78.8
76 19.2
77 4.1
81 1
85 6.7
86 4.7
87 20.3
88 18.4
89 3.7
90 1.7
91 1.6
92 1.1
97 5.7
98 10.4
99 4.9
100 1
101 1.7
102 1.6
103 10
104 7.9
105 4.1
116 5.1
117 8.1
118 3.6
121 2.4
122 3
123 1.3
131 1.1
132 1.8
133 3.9
134 5.4
135 2.8
144 4.8
145 5.7
146 1.7

$$$$

     RDKit          2D

 13 13  0  0  1  0  0  0  0  0999 V2000
   -2.6111   -0.4888    0.0000 C   0  0  0  0  0  0  0  0  0  0  0  0
    3.9059   -1.2300    0.0000 C   0  0  0  0  0  0  0  0  0  0  0  0
    2.6070   -0.4798    0.0000 C   0  0  0  0  0  0  0  0  0  0  0  0
    2.6070    1.0102    0.0000 C   0  0  0  0  0  0  0  0  0  0  0  0
    1.3070    1.7702    0.0000 C   0  0  0  0  0  0  0  0  0  0  0  0
   -0.0130    1.0102    0.0000 C   0  0  0  0  0  0  0  0  0  0  0  0
   -0.0130   -0.4798    0.0000 C   0  0  0  0  0  0  0  0  0  0  0  0
    3.9057   -2.7300    0.0000 O   0  0  0  0  0  0  0  0  0  0  0  0
    3.9081    1.7567    0.0000 O   0  0  0  0  0  0  0  0  0  0  0  0
    1.3120    3.2702    0.0000 O   0  0  0  0  0  0  0  0  0  0  0  0
   -1.3116    1.7610    0.0000 O   0  0  0  0  0  0  0  0  0  0  0  0
   -1.3095   -1.2343    0.0000 O   0  0  0  0  0  0  0  0  0  0  0  0
    1.3070   -1.2298    0.0000 O   0  0  0  0  0  0  0  0  0  0  0  0
  3  2  1  1
  4  3  1  0
  5  4  1  0
  6  5  1  0
  7  6  1  0
  8  2  1  0
  9  4  1  0
  5 10  1  6
  6 11  1  1
 12  1  1  0
 12  7  1  0
 13  3  1  0
 13  7  1  0
M  END
>  <NAME>  (681) 
METHYL ALPHA-D-TALOPYRANOSIDE

>  <SYNONYMS>  (681) 


>  <SPECTRUM TYPE>  (681) 
MS1

>  <INSTRUMENT TYPE>  (681) 
EI-B

>  <INSTRUMENT>  (681) 
JEOL JMS-DX-300

>  <ION MODE>  (681) 
P

>  <INCHIKEY>  (681) 
HOVAGTYPODGVJG-WMYZWQRYSA-N

>  <FORMULA>  (681) 
C7H14O6

>  <EXACT MASS>  (681) 
194.07903816799998

>  <MW>  (681) 
194

>  <ID>  (681) 
JP011150

>  <CONTRIBUTOR>  (681) 
University of Tokyo Team, {Faculty of Engineering, University of Tokyo

>  <COMMENT>  (681) 
SMILES=OCC([H])(O1)C([H])(O)C([H])(O)C([H])(O)C([H])(OC)1
InChI=InChI=1S/C7H14O6/c1-12-7-6(11)5(10)4(9)3(2-8)13-7/h3-11H,2H2,1H3/t3-,4?,5-,6+,7?/m1/s1
computed SMILES=OCC1OC(OC)C(O)C(O)C1O
accession=JP011150
date=2016.01.19 (Created 2008.10.21, modified 2011.05.06)
author=SAWADA M, THE INST. OF SCIENTIFIC AND INDUSTRIALRESEARCH OSAKA UNIV.
license=CC BY-NC-SA
exact mass=194.07904
ionization energy=70 eV
ion type=[M]+*
computed spectral entropy=3.488161104843172
computed normalized entropy=0.823824601732582
SPLASH=splash10-0229-9100000000-cb173d574fe58b66fd7e
submitter=submitter = University of Tokyo Team (Faculty of Engineering, University of Tokyo)
MoNA Rating=3.75

>  <NUM PEAKS>  (681) 
69

>  <MASS SPECTRAL PEAKS>  (681) 
26 1.2
27 10.2
30 3.7
33 10
34 2.1
39 4.3
40 6.7
41 9.2
42 12
43 23.3
44 12.9
45 25.2
46 5.2
47 1.8
53 1.7
54 1.9
55 10.7
56 16.9
57 57.3
58 16.9
59 15
60 96.3
61 89.3
62 19.2
63 1.5
68 1.7
69 11.4
70 11.3
71 36.8
72 12.1
73 69.2
74 99.99
75 40.7
76 6.9
81 1.1
85 13.3
86 6.5
87 25
88 8.8
89 2.7
90 1.4
91 4.6
92 3.4
97 7.8
98 11.5
99 4.3
101 3.1
102 1.1
103 11.5
104 6.9
105 2.1
115 1.4
116 12.4
117 6.8
118 1.3
120 1.2
121 4.2
122 2.2
127 2.4
131 2
133 9
134 4.9
135 1
144 9.3
145 7.3
146 2.4
163 4
164 3.4
165 1.3

$$$$

     RDKit          2D

 13 13  0  0  1  0  0  0  0  0999 V2000
   -2.6111   -0.4888    0.0000 C   0  0  0  0  0  0  0  0  0  0  0  0
    3.9059   -1.2300    0.0000 C   0  0  0  0  0  0  0  0  0  0  0  0
    2.6070   -0.4798    0.0000 C   0  0  0  0  0  0  0  0  0  0  0  0
    2.6070    1.0102    0.0000 C   0  0  0  0  0  0  0  0  0  0  0  0
    1.3070    1.7702    0.0000 C   0  0  0  0  0  0  0  0  0  0  0  0
   -0.0130    1.0102    0.0000 C   0  0  0  0  0  0  0  0  0  0  0  0
   -0.0130   -0.4798    0.0000 C   0  0  0  0  0  0  0  0  0  0  0  0
    3.9057   -2.7300    0.0000 O   0  0  0  0  0  0  0  0  0  0  0  0
    3.9081    1.7567    0.0000 O   0  0  0  0  0  0  0  0  0  0  0  0
    1.3120    3.2702    0.0000 O   0  0  0  0  0  0  0  0  0  0  0  0
   -1.3116    1.7610    0.0000 O   0  0  0  0  0  0  0  0  0  0  0  0
   -1.3095   -1.2343    0.0000 O   0  0  0  0  0  0  0  0  0  0  0  0
    1.3070   -1.2298    0.0000 O   0  0  0  0  0  0  0  0  0  0  0  0
  3  2  1  1
  4  3  1  0
  5  4  1  0
  6  5  1  0
  7  6  1  0
  8  2  1  0
  9  4  1  0
  5 10  1  6
  6 11  1  1
 12  1  1  0
 12  7  1  0
 13  3  1  0
 13  7  1  0
M  END
>  <NAME>  (682) 
METHYL BETA-D-MANNOPYRANOSIDE

>  <SYNONYMS>  (682) 


>  <SPECTRUM TYPE>  (682) 
MS1

>  <INSTRUMENT TYPE>  (682) 
EI-B

>  <INSTRUMENT>  (682) 
JEOL JMS-DX-300

>  <ION MODE>  (682) 
P

>  <INCHIKEY>  (682) 
HOVAGTYPODGVJG-WMYZWQRYSA-N

>  <FORMULA>  (682) 
C7H14O6

>  <EXACT MASS>  (682) 
194.07903816799998

>  <MW>  (682) 
194

>  <ID>  (682) 
JP011149

>  <CONTRIBUTOR>  (682) 
University of Tokyo Team, {Faculty of Engineering, University of Tokyo

>  <COMMENT>  (682) 
SMILES=OCC([H])(O1)C([H])(O)C([H])(O)C([H])(O)C([H])(OC)1
InChI=InChI=1S/C7H14O6/c1-12-7-6(11)5(10)4(9)3(2-8)13-7/h3-11H,2H2,1H3/t3-,4?,5-,6+,7?/m1/s1
computed SMILES=OCC1OC(OC)C(O)C(O)C1O
accession=JP011149
date=2016.01.19 (Created 2008.10.21, modified 2011.05.06)
author=SAWADA M, THE INST. OF SCIENTIFIC AND INDUSTRIALRESEARCH OSAKA UNIV.
license=CC BY-NC-SA
exact mass=194.07904
ionization energy=70 eV
ion type=[M]+*
computed spectral entropy=3.4006788998354804
computed normalized entropy=0.8272399037763593
SPLASH=splash10-03k9-9000000000-6de2a5336a0e608d593f
submitter=submitter = University of Tokyo Team (Faculty of Engineering, University of Tokyo)
MoNA Rating=3.75

>  <NUM PEAKS>  (682) 
61

>  <MASS SPECTRAL PEAKS>  (682) 
27 8.1
30 3.8
33 8.3
34 3.5
39 3.2
40 3.2
41 6.8
42 11.9
43 19.5
44 14.1
45 19
46 6.6
47 1.8
53 1.1
54 2.1
55 10.8
56 18.7
57 46.9
58 25.6
59 8.3
60 73.1
61 99.99
62 43.6
63 3.2
68 1.1
69 9.2
70 10.7
71 33.1
72 10.8
73 39.8
74 80.9
75 56.7
76 16.8
77 3.4
85 6.1
86 3.8
87 6.9
88 5
89 1.8
90 1
97 5.8
98 11.9
99 5.6
100 1.1
101 1.2
103 4.6
104 6.8
105 3.3
116 7.2
117 6.8
118 1.7
121 2.9
122 3
131 2.3
132 2.8
133 3
134 2.8
135 1.2
144 8.8
145 8.8
146 2.8

$$$$

     RDKit          2D

 13 13  0  0  1  0  0  0  0  0999 V2000
   -2.6111   -0.4888    0.0000 C   0  0  0  0  0  0  0  0  0  0  0  0
    3.9059   -1.2300    0.0000 C   0  0  0  0  0  0  0  0  0  0  0  0
    2.6070   -0.4798    0.0000 C   0  0  0  0  0  0  0  0  0  0  0  0
    2.6070    1.0102    0.0000 C   0  0  0  0  0  0  0  0  0  0  0  0
    1.3070    1.7702    0.0000 C   0  0  0  0  0  0  0  0  0  0  0  0
   -0.0130    1.0102    0.0000 C   0  0  0  0  0  0  0  0  0  0  0  0
   -0.0130   -0.4798    0.0000 C   0  0  0  0  0  0  0  0  0  0  0  0
    3.9057   -2.7300    0.0000 O   0  0  0  0  0  0  0  0  0  0  0  0
    3.9081    1.7567    0.0000 O   0  0  0  0  0  0  0  0  0  0  0  0
    1.3120    3.2702    0.0000 O   0  0  0  0  0  0  0  0  0  0  0  0
   -1.3116    1.7610    0.0000 O   0  0  0  0  0  0  0  0  0  0  0  0
   -1.3095   -1.2343    0.0000 O   0  0  0  0  0  0  0  0  0  0  0  0
    1.3070   -1.2298    0.0000 O   0  0  0  0  0  0  0  0  0  0  0  0
  3  2  1  1
  4  3  1  0
  5  4  1  0
  6  5  1  0
  7  6  1  0
  8  2  1  0
  9  4  1  0
  5 10  1  6
  6 11  1  1
 12  1  1  0
 12  7  1  0
 13  3  1  0
 13  7  1  0
M  END
>  <NAME>  (683) 
METHYL ALPHA-D-MANNOPYRANOSIDE

>  <SYNONYMS>  (683) 


>  <SPECTRUM TYPE>  (683) 
MS1

>  <INSTRUMENT TYPE>  (683) 
EI-B

>  <INSTRUMENT>  (683) 
JEOL JMS-DX-300

>  <ION MODE>  (683) 
P

>  <INCHIKEY>  (683) 
HOVAGTYPODGVJG-WMYZWQRYSA-N

>  <FORMULA>  (683) 
C7H14O6

>  <EXACT MASS>  (683) 
194.07903816799998

>  <MW>  (683) 
194

>  <ID>  (683) 
JP011148

>  <CONTRIBUTOR>  (683) 
University of Tokyo Team, {Faculty of Engineering, University of Tokyo

>  <COMMENT>  (683) 
SMILES=OCC([H])(O1)C([H])(O)C([H])(O)C([H])(O)C([H])(OC)1
InChI=InChI=1S/C7H14O6/c1-12-7-6(11)5(10)4(9)3(2-8)13-7/h3-11H,2H2,1H3/t3-,4?,5-,6+,7?/m1/s1
computed SMILES=OCC1OC(OC)C(O)C(O)C1O
accession=JP011148
date=2016.01.19 (Created 2008.10.21, modified 2011.05.06)
author=SAWADA M, THE INST. OF SCIENTIFIC AND INDUSTRIALRESEARCH OSAKA UNIV.
license=CC BY-NC-SA
exact mass=194.07904
ionization energy=70 eV
ion type=[M]+*
computed spectral entropy=3.1999565193701587
computed normalized entropy=0.817979985017993
SPLASH=splash10-0229-9100000000-bee940c955424be19015
submitter=submitter = University of Tokyo Team (Faculty of Engineering, University of Tokyo)
MoNA Rating=3.75

>  <NUM PEAKS>  (683) 
50

>  <MASS SPECTRAL PEAKS>  (683) 
27 7.8
30 2.3
33 9.6
39 3.3
40 1.8
41 7.3
42 9.3
43 21.9
44 10.5
45 23.9
47 1.7
53 1.3
54 1.8
55 9.3
56 14.6
57 48.7
58 3.2
59 13.2
60 99.99
61 49.8
62 1.8
69 11
70 8.7
71 31.1
72 4.6
73 76.7
74 96.9
75 20.8
76 1.1
85 12.2
86 3.5
87 13
88 1.5
89 1.7
91 2.4
97 7.2
98 12.4
99 3.1
101 2.1
103 6.4
104 5.8
116 14.1
117 1.6
121 4.8
127 3.1
131 5.8
133 3.9
144 12.3
145 10.2
163 7.3

$$$$

     RDKit          2D

 13 13  0  0  1  0  0  0  0  0999 V2000
   -2.6111   -0.4888    0.0000 C   0  0  0  0  0  0  0  0  0  0  0  0
    3.9059   -1.2300    0.0000 C   0  0  0  0  0  0  0  0  0  0  0  0
    2.6070   -0.4798    0.0000 C   0  0  0  0  0  0  0  0  0  0  0  0
    2.6070    1.0102    0.0000 C   0  0  0  0  0  0  0  0  0  0  0  0
    1.3070    1.7702    0.0000 C   0  0  0  0  0  0  0  0  0  0  0  0
   -0.0130    1.0102    0.0000 C   0  0  0  0  0  0  0  0  0  0  0  0
   -0.0130   -0.4798    0.0000 C   0  0  0  0  0  0  0  0  0  0  0  0
    3.9057   -2.7300    0.0000 O   0  0  0  0  0  0  0  0  0  0  0  0
    3.9081    1.7567    0.0000 O   0  0  0  0  0  0  0  0  0  0  0  0
    1.3120    3.2702    0.0000 O   0  0  0  0  0  0  0  0  0  0  0  0
   -1.3116    1.7610    0.0000 O   0  0  0  0  0  0  0  0  0  0  0  0
   -1.3095   -1.2343    0.0000 O   0  0  0  0  0  0  0  0  0  0  0  0
    1.3070   -1.2298    0.0000 O   0  0  0  0  0  0  0  0  0  0  0  0
  3  2  1  1
  4  3  1  0
  5  4  1  0
  6  5  1  0
  7  6  1  0
  8  2  1  0
  9  4  1  0
  5 10  1  6
  6 11  1  6
 12  1  1  0
 12  7  1  0
 13  3  1  0
 13  7  1  0
M  END
>  <NAME>  (684) 
METHYL BETA-D-GALACTOPYRANOSIDE

>  <SYNONYMS>  (684) 


>  <SPECTRUM TYPE>  (684) 
MS1

>  <INSTRUMENT TYPE>  (684) 
EI-B

>  <INSTRUMENT>  (684) 
JEOL JMS-DX-300

>  <ION MODE>  (684) 
P

>  <INCHIKEY>  (684) 
HOVAGTYPODGVJG-HJPAEZFKSA-N

>  <FORMULA>  (684) 
C7H14O6

>  <EXACT MASS>  (684) 
194.07903816799998

>  <MW>  (684) 
194

>  <ID>  (684) 
JP011147

>  <CONTRIBUTOR>  (684) 
University of Tokyo Team, {Faculty of Engineering, University of Tokyo

>  <COMMENT>  (684) 
SMILES=OCC([H])(O1)C([H])(O)C([H])(O)C([H])(O)C([H])(OC)1
InChI=InChI=1S/C7H14O6/c1-12-7-6(11)5(10)4(9)3(2-8)13-7/h3-11H,2H2,1H3/t3-,4?,5-,6-,7?/m1/s1
computed SMILES=OCC1OC(OC)C(O)C(O)C1O
accession=JP011147
date=2016.01.19 (Created 2008.10.21, modified 2011.05.06)
author=SAWADA M, THE INST. OF SCIENTIFIC AND INDUSTRIALRESEARCH OSAKA UNIV.
license=CC BY-NC-SA
exact mass=194.07904
ionization energy=70 eV
ion type=[M]+*
computed spectral entropy=3.0902929830093893
computed normalized entropy=0.802642730277879
SPLASH=splash10-0229-9000000000-505fb08ac939d34e021e
submitter=submitter = University of Tokyo Team (Faculty of Engineering, University of Tokyo)
MoNA Rating=3.75

>  <NUM PEAKS>  (684) 
47

>  <MASS SPECTRAL PEAKS>  (684) 
27 6.2
30 2
33 8
39 2.9
40 1.7
41 6.8
42 8.1
43 16.6
44 7.6
45 15.1
47 1.5
55 7.7
56 13.4
57 51.6
58 3.5
59 8
60 99.99
61 36.2
62 1.4
69 7.3
70 6.9
71 33.4
72 3.3
73 59.1
74 48.5
75 10.8
85 5.3
86 2.9
87 7.4
88 1.2
89 1.9
91 1.9
97 5.7
98 6.8
99 1.8
101 1.4
103 7.5
104 3.1
116 6.9
117 1.5
121 3
131 3.9
133 3.5
144 4.9
145 4
146 1.4
163 1.7

$$$$

     RDKit          2D

 13 13  0  0  1  0  0  0  0  0999 V2000
   -2.6111   -0.4888    0.0000 C   0  0  0  0  0  0  0  0  0  0  0  0
    3.9059   -1.2300    0.0000 C   0  0  0  0  0  0  0  0  0  0  0  0
    2.6070   -0.4798    0.0000 C   0  0  0  0  0  0  0  0  0  0  0  0
    2.6070    1.0102    0.0000 C   0  0  0  0  0  0  0  0  0  0  0  0
    1.3070    1.7702    0.0000 C   0  0  0  0  0  0  0  0  0  0  0  0
   -0.0130    1.0102    0.0000 C   0  0  0  0  0  0  0  0  0  0  0  0
   -0.0130   -0.4798    0.0000 C   0  0  0  0  0  0  0  0  0  0  0  0
    3.9057   -2.7300    0.0000 O   0  0  0  0  0  0  0  0  0  0  0  0
    3.9081    1.7567    0.0000 O   0  0  0  0  0  0  0  0  0  0  0  0
    1.3120    3.2702    0.0000 O   0  0  0  0  0  0  0  0  0  0  0  0
   -1.3116    1.7610    0.0000 O   0  0  0  0  0  0  0  0  0  0  0  0
   -1.3095   -1.2343    0.0000 O   0  0  0  0  0  0  0  0  0  0  0  0
    1.3070   -1.2298    0.0000 O   0  0  0  0  0  0  0  0  0  0  0  0
  3  2  1  1
  4  3  1  0
  5  4  1  0
  6  5  1  0
  7  6  1  0
  8  2  1  0
  9  4  1  0
  5 10  1  6
  6 11  1  6
 12  1  1  0
 12  7  1  0
 13  3  1  0
 13  7  1  0
M  END
>  <NAME>  (685) 
METHYL BETA-D-GLUCOPYRANOSIDE

>  <SYNONYMS>  (685) 


>  <SPECTRUM TYPE>  (685) 
MS1

>  <INSTRUMENT TYPE>  (685) 
EI-B

>  <INSTRUMENT>  (685) 
JEOL JMS-DX-300

>  <ION MODE>  (685) 
P

>  <INCHIKEY>  (685) 
HOVAGTYPODGVJG-HJPAEZFKSA-N

>  <FORMULA>  (685) 
C7H14O6

>  <EXACT MASS>  (685) 
194.07903816799998

>  <MW>  (685) 
194

>  <ID>  (685) 
JP011146

>  <CONTRIBUTOR>  (685) 
University of Tokyo Team, {Faculty of Engineering, University of Tokyo

>  <COMMENT>  (685) 
SMILES=OCC([H])(O1)C([H])(O)C([H])(O)C([H])(O)C([H])(OC)1
InChI=InChI=1S/C7H14O6/c1-12-7-6(11)5(10)4(9)3(2-8)13-7/h3-11H,2H2,1H3/t3-,4?,5-,6-,7?/m1/s1
computed SMILES=OCC1OC(OC)C(O)C(O)C1O
accession=JP011146
date=2016.01.19 (Created 2008.10.21, modified 2011.05.06)
author=SAWADA M, THE INST. OF SCIENTIFIC AND INDUSTRIALRESEARCH OSAKA UNIV.
license=CC BY-NC-SA
exact mass=194.07904
ionization energy=70 eV
ion type=[M]+*
computed spectral entropy=3.090692456715686
computed normalized entropy=0.8167382598940984
SPLASH=splash10-03k9-9000000000-9886dc1918786bdc64de
submitter=submitter = University of Tokyo Team (Faculty of Engineering, University of Tokyo)
MoNA Rating=3.75

>  <NUM PEAKS>  (685) 
44

>  <MASS SPECTRAL PEAKS>  (685) 
27 6.2
30 1.6
33 8.1
39 2.9
40 2
41 6.1
42 8.3
43 16.4
44 7.4
45 16.1
47 1.7
54 1.4
55 7.9
56 14.5
57 46.7
58 2.9
59 6.9
60 99.99
61 41.9
62 1.6
69 8.4
70 7.7
71 24.4
72 3.3
73 63.1
74 50.1
75 13.2
85 5.9
86 2.7
87 6.6
89 1.4
97 6.1
98 9.7
99 2.3
101 1.1
103 4.7
104 4.5
116 9.3
121 3.8
131 7.6
133 2.6
144 8.8
145 2.8
163 4.5

$$$$

     RDKit          2D

 13 13  0  0  1  0  0  0  0  0999 V2000
   -2.6111   -0.4888    0.0000 C   0  0  0  0  0  0  0  0  0  0  0  0
    3.9059   -1.2300    0.0000 C   0  0  0  0  0  0  0  0  0  0  0  0
    2.6070   -0.4798    0.0000 C   0  0  0  0  0  0  0  0  0  0  0  0
    2.6070    1.0102    0.0000 C   0  0  0  0  0  0  0  0  0  0  0  0
    1.3070    1.7702    0.0000 C   0  0  0  0  0  0  0  0  0  0  0  0
   -0.0130    1.0102    0.0000 C   0  0  0  0  0  0  0  0  0  0  0  0
   -0.0130   -0.4798    0.0000 C   0  0  0  0  0  0  0  0  0  0  0  0
    3.9057   -2.7300    0.0000 O   0  0  0  0  0  0  0  0  0  0  0  0
    3.9081    1.7567    0.0000 O   0  0  0  0  0  0  0  0  0  0  0  0
    1.3120    3.2702    0.0000 O   0  0  0  0  0  0  0  0  0  0  0  0
   -1.3116    1.7610    0.0000 O   0  0  0  0  0  0  0  0  0  0  0  0
   -1.3095   -1.2343    0.0000 O   0  0  0  0  0  0  0  0  0  0  0  0
    1.3070   -1.2298    0.0000 O   0  0  0  0  0  0  0  0  0  0  0  0
  3  2  1  1
  4  3  1  0
  5  4  1  0
  6  5  1  0
  7  6  1  0
  8  2  1  0
  9  4  1  0
  5 10  1  6
  6 11  1  6
 12  1  1  0
 12  7  1  0
 13  3  1  0
 13  7  1  0
M  END
>  <NAME>  (686) 
METHYL ALPHA-D-GALACTOPYRANOSIDE

>  <SYNONYMS>  (686) 


>  <SPECTRUM TYPE>  (686) 
MS1

>  <INSTRUMENT TYPE>  (686) 
EI-B

>  <INSTRUMENT>  (686) 
JEOL JMS-DX-300

>  <ION MODE>  (686) 
P

>  <INCHIKEY>  (686) 
HOVAGTYPODGVJG-HJPAEZFKSA-N

>  <FORMULA>  (686) 
C7H14O6

>  <EXACT MASS>  (686) 
194.07903816799998

>  <MW>  (686) 
194

>  <ID>  (686) 
JP011145

>  <CONTRIBUTOR>  (686) 
University of Tokyo Team, {Faculty of Engineering, University of Tokyo

>  <COMMENT>  (686) 
SMILES=OCC([H])(O1)C([H])(O)C([H])(O)C([H])(O)C([H])(OC)1
InChI=InChI=1S/C7H14O6/c1-12-7-6(11)5(10)4(9)3(2-8)13-7/h3-11H,2H2,1H3/t3-,4?,5-,6-,7?/m1/s1
computed SMILES=OCC1OC(OC)C(O)C(O)C1O
accession=JP011145
date=2016.01.19 (Created 2008.10.21, modified 2011.05.06)
author=SAWADA M, THE INST. OF SCIENTIFIC AND INDUSTRIALRESEARCH OSAKA UNIV.
license=CC BY-NC-SA
exact mass=194.07904
ionization energy=70 eV
ion type=[M]+*
computed spectral entropy=3.1701659231061994
computed normalized entropy=0.8145715064606732
SPLASH=splash10-0229-9000000000-4a1706d0c1048c7fb2f7
submitter=submitter = University of Tokyo Team (Faculty of Engineering, University of Tokyo)
MoNA Rating=3.75

>  <NUM PEAKS>  (686) 
49

>  <MASS SPECTRAL PEAKS>  (686) 
27 7.7
30 2.2
33 9
39 3.4
40 1.6
41 7.1
42 8.9
43 19.7
44 7
45 20
47 1.6
53 1.6
54 1.2
55 8
56 12.2
57 51
58 3.9
59 11.7
60 99.99
61 43.3
62 1.7
69 8.9
70 7.8
71 37.3
72 4.2
73 73.8
74 72
75 12
85 9.8
86 3.8
87 10.4
88 1.4
89 2.4
91 9.6
97 7.1
98 8.4
99 2.4
101 2.3
103 8.8
104 3.9
116 9.4
117 1.8
121 3.6
127 1.6
131 3.5
133 6
144 6.9
145 6.2
163 3.1

$$$$

     RDKit          2D

 13 13  0  0  1  0  0  0  0  0999 V2000
   -2.6111   -0.4888    0.0000 C   0  0  0  0  0  0  0  0  0  0  0  0
    3.9059   -1.2300    0.0000 C   0  0  0  0  0  0  0  0  0  0  0  0
    2.6070   -0.4798    0.0000 C   0  0  0  0  0  0  0  0  0  0  0  0
    2.6070    1.0102    0.0000 C   0  0  0  0  0  0  0  0  0  0  0  0
    1.3070    1.7702    0.0000 C   0  0  0  0  0  0  0  0  0  0  0  0
   -0.0130    1.0102    0.0000 C   0  0  0  0  0  0  0  0  0  0  0  0
   -0.0130   -0.4798    0.0000 C   0  0  0  0  0  0  0  0  0  0  0  0
    3.9057   -2.7300    0.0000 O   0  0  0  0  0  0  0  0  0  0  0  0
    3.9081    1.7567    0.0000 O   0  0  0  0  0  0  0  0  0  0  0  0
    1.3120    3.2702    0.0000 O   0  0  0  0  0  0  0  0  0  0  0  0
   -1.3116    1.7610    0.0000 O   0  0  0  0  0  0  0  0  0  0  0  0
   -1.3095   -1.2343    0.0000 O   0  0  0  0  0  0  0  0  0  0  0  0
    1.3070   -1.2298    0.0000 O   0  0  0  0  0  0  0  0  0  0  0  0
  3  2  1  1
  4  3  1  0
  5  4  1  0
  6  5  1  0
  7  6  1  0
  8  2  1  0
  9  4  1  0
  5 10  1  6
  6 11  1  6
 12  1  1  0
 12  7  1  0
 13  3  1  0
 13  7  1  0
M  END
>  <NAME>  (687) 
METHYL ALPHA-D-GLUCOPYRANOSIDE

>  <SYNONYMS>  (687) 


>  <SPECTRUM TYPE>  (687) 
MS1

>  <INSTRUMENT TYPE>  (687) 
EI-B

>  <INSTRUMENT>  (687) 
JEOL JMS-DX-300

>  <ION MODE>  (687) 
P

>  <INCHIKEY>  (687) 
HOVAGTYPODGVJG-HJPAEZFKSA-N

>  <FORMULA>  (687) 
C7H14O6

>  <EXACT MASS>  (687) 
194.07903816799998

>  <MW>  (687) 
194

>  <ID>  (687) 
JP011144

>  <CONTRIBUTOR>  (687) 
University of Tokyo Team, {Faculty of Engineering, University of Tokyo

>  <COMMENT>  (687) 
SMILES=OCC([H])(O1)C([H])(O)C([H])(O)C([H])(O)C([H])(OC)1
InChI=InChI=1S/C7H14O6/c1-12-7-6(11)5(10)4(9)3(2-8)13-7/h3-11H,2H2,1H3/t3-,4?,5-,6-,7?/m1/s1
computed SMILES=OCC1OC(OC)C(O)C(O)C1O
accession=JP011144
date=2016.01.19 (Created 2008.10.21, modified 2011.05.06)
author=SAWADA M, THE INST. OF SCIENTIFIC AND INDUSTRIALRESEARCH OSAKA UNIV.
license=CC BY-NC-SA
exact mass=194.07904
ionization energy=70 eV
ion type=[M]+*
computed spectral entropy=3.2047931025738086
computed normalized entropy=0.8192163231471243
SPLASH=splash10-0229-9000000000-24af86eb2d444a225ac0
submitter=submitter = University of Tokyo Team (Faculty of Engineering, University of Tokyo)
MoNA Rating=3.75

>  <NUM PEAKS>  (687) 
50

>  <MASS SPECTRAL PEAKS>  (687) 
27 6.8
33 7.9
34 1.7
39 3.1
40 29.4
41 7
42 7.4
43 17.8
44 29.7
45 18.3
47 1.3
53 1.2
54 1.3
55 7.8
56 12.4
57 43.1
58 3
59 9.2
60 99.99
61 45.8
62 1.7
69 10.2
70 8.4
71 21.3
72 3.9
73 67.7
74 70.7
75 13.5
81 1.3
85 10
86 2.8
87 9.4
88 1.8
89 1.5
91 2
97 7.7
98 11.4
99 2.8
101 1.8
103 4.6
104 4.9
116 11.1
117 1.2
121 4
127 2.1
131 5.2
133 2.8
144 9.1
145 7.5
163 2.8

$$$$

     RDKit          2D

 18 19  0  0  0  0  0  0  0  0999 V2000
   -0.6493    5.9469    0.0000 C   0  0  0  0  0  0  0  0  0  0  0  0
   -7.1454    3.6965    0.0000 C   0  0  0  0  0  0  0  0  0  0  0  0
   -7.1459    2.1956    0.0000 C   0  0  0  0  0  0  0  0  0  0  0  0
   -5.8459    4.4473    0.0000 C   0  0  0  0  0  0  0  0  0  0  0  0
    3.2488    2.1960    0.0000 C   0  0  0  0  0  0  0  0  0  0  0  0
    3.2490    3.6960    0.0000 C   0  0  0  0  0  0  0  0  0  0  0  0
   -5.8469    1.4456    0.0000 C   0  0  0  0  0  0  0  0  0  0  0  0
   -4.5469    3.6973    0.0000 C   0  0  0  0  0  0  0  0  0  0  0  0
    1.9487    1.4462    0.0000 C   0  0  0  0  0  0  0  0  0  0  0  0
    1.9492    4.4462    0.0000 C   0  0  0  0  0  0  0  0  0  0  0  0
   -0.6502    1.4465    0.0000 C   0  0  0  0  0  0  0  0  0  0  0  0
   -4.5474    2.1965    0.0000 C   0  0  0  0  0  0  0  0  0  0  0  0
    0.6488    2.1965    0.0000 C   0  0  0  0  0  0  0  0  0  0  0  0
    0.6490    3.6965    0.0000 C   0  0  0  0  0  0  0  0  0  0  0  0
   -3.2483    1.4465    0.0000 C   0  0  0  0  0  0  0  0  0  0  0  0
   -3.2483   -0.0535    0.0000 O   0  0  0  0  0  0  0  0  0  0  0  0
   -0.6498    4.4469    0.0000 O   0  0  0  0  0  0  0  0  0  0  0  0
   -1.9493    2.1965    0.0000 O   0  0  0  0  0  0  0  0  0  0  0  0
  3  2  2  0
  4  2  1  0
  6  5  2  0
  7  3  1  0
  8  4  2  0
  9  5  1  0
 10  6  1  0
 12  7  2  0
 12  8  1  0
 13  9  2  0
 13 11  1  0
 14 10  2  0
 14 13  1  0
 15 12  1  0
 16 15  2  0
 17  1  1  0
 17 14  1  0
 18 11  1  0
 18 15  1  0
M  END
>  <NAME>  (688) 
2-METHOXYBENZYL BENZOATE

>  <SYNONYMS>  (688) 


>  <SPECTRUM TYPE>  (688) 
MS1

>  <INSTRUMENT TYPE>  (688) 
EI-B

>  <INSTRUMENT>  (688) 
JEOL JMS-DX-300

>  <ION MODE>  (688) 
P

>  <INCHIKEY>  (688) 
BZUHSQFJABFAHL-UHFFFAOYSA-N

>  <FORMULA>  (688) 
C15H14O3

>  <EXACT MASS>  (688) 
242.094294308

>  <MW>  (688) 
242

>  <ID>  (688) 
JP011143

>  <CONTRIBUTOR>  (688) 
University of Tokyo Team, {Faculty of Engineering, University of Tokyo

>  <COMMENT>  (688) 
SMILES=COc(c2)c(ccc2)COC(=O)c(c1)cccc1
InChI=InChI=1S/C15H14O3/c1-17-14-10-6-5-9-13(14)11-18-15(16)12-7-3-2-4-8-12/h2-10H,11H2,1H3
computed SMILES=O=C(OCC=1C=CC=CC1OC)C=2C=CC=CC2
accession=JP011143
date=2016.01.19 (Created 2008.10.21, modified 2011.05.06)
author=SAWADA M, THE INST. OF SCIENTIFIC AND INDUSTRIALRESEARCH OSAKA UNIV.
license=CC BY-NC-SA
exact mass=242.09429
ionization energy=70 eV
ion type=[M]+*
computed spectral entropy=2.6563309720968116
computed normalized entropy=0.7597097747967438
SPLASH=splash10-000l-6910000000-123e5ef62134fa916b02
submitter=submitter = University of Tokyo Team (Faculty of Engineering, University of Tokyo)
MoNA Rating=3.75

>  <NUM PEAKS>  (688) 
33

>  <MASS SPECTRAL PEAKS>  (688) 
27 1.4
39 3.7
40 1.5
41 1.7
42 1.2
43 1.7
50 3
51 11
52 2.7
63 1.7
65 7.9
76 1.8
77 27.4
78 7.4
79 1.2
89 2.1
90 2.6
91 46.4
92 7.2
93 3.7
94 1.7
105 34.2
106 3.2
107 7.1
109 3.2
119 4.8
120 3.4
121 27.2
122 4.1
137 99.99
138 9.2
242 31
243 5.1

$$$$

     RDKit          2D

 20 21  0  0  0  0  0  0  0  0999 V2000
    3.3491    0.2013    0.0000 C   0  0  0  0  0  0  0  0  0  0  0  0
    3.8978    2.2504    0.0000 C   0  0  0  0  0  0  0  0  0  0  0  0
    1.8487    2.7991    0.0000 C   0  0  0  0  0  0  0  0  0  0  0  0
   -9.0945    0.7488    0.0000 C   0  0  0  0  0  0  0  0  0  0  0  0
   -9.0947   -0.7521    0.0000 C   0  0  0  0  0  0  0  0  0  0  0  0
   -7.7951    1.4998    0.0000 C   0  0  0  0  0  0  0  0  0  0  0  0
   -7.7956   -1.5019    0.0000 C   0  0  0  0  0  0  0  0  0  0  0  0
   -6.4959    0.7500    0.0000 C   0  0  0  0  0  0  0  0  0  0  0  0
   -1.3000    0.7500    0.0000 C   0  0  0  0  0  0  0  0  0  0  0  0
    0.0000   -1.5000    0.0000 C   0  0  0  0  0  0  0  0  0  0  0  0
    0.0000    1.5000    0.0000 C   0  0  0  0  0  0  0  0  0  0  0  0
    1.3000   -0.7500    0.0000 C   0  0  0  0  0  0  0  0  0  0  0  0
   -2.5989   -1.5002    0.0000 C   0  0  0  0  0  0  0  0  0  0  0  0
   -1.3000   -0.7500    0.0000 C   0  0  0  0  0  0  0  0  0  0  0  0
   -6.4962   -0.7508    0.0000 C   0  0  0  0  0  0  0  0  0  0  0  0
    1.3000    0.7500    0.0000 C   0  0  0  0  0  0  0  0  0  0  0  0
   -5.1970   -1.5006    0.0000 C   0  0  0  0  0  0  0  0  0  0  0  0
    2.5989    1.5002    0.0000 C   0  0  0  0  0  0  0  0  0  0  0  0
   -5.1968   -3.0006    0.0000 O   0  0  0  0  0  0  0  0  0  0  0  0
   -3.8981   -0.7504    0.0000 O   0  0  0  0  0  0  0  0  0  0  0  0
  5  4  2  0
  6  4  1  0
  7  5  1  0
  8  6  2  0
 11  9  2  0
 12 10  1  0
 14  9  1  0
 14 10  2  0
 14 13  1  0
 15  7  2  0
 15  8  1  0
 16 11  1  0
 16 12  2  0
 17 15  1  0
 18  1  1  0
 18  2  1  0
 18  3  1  0
 18 16  1  0
 19 17  2  0
 20 13  1  0
 20 17  1  0
M  END
>  <NAME>  (689) 
4-TERT-BUTYLBENZYL BENZOATE

>  <SYNONYMS>  (689) 


>  <SPECTRUM TYPE>  (689) 
MS1

>  <INSTRUMENT TYPE>  (689) 
EI-B

>  <INSTRUMENT>  (689) 
JEOL JMS-DX-300

>  <ION MODE>  (689) 
P

>  <INCHIKEY>  (689) 
GPHOLSWHPRJMDQ-UHFFFAOYSA-N

>  <FORMULA>  (689) 
C18H20O2

>  <EXACT MASS>  (689) 
268.14632988

>  <MW>  (689) 
268

>  <ID>  (689) 
JP011141

>  <CONTRIBUTOR>  (689) 
University of Tokyo Team, {Faculty of Engineering, University of Tokyo

>  <COMMENT>  (689) 
SMILES=O=C(OCc(c2)ccc(c2)C(C)(C)C)c(c1)cccc1
InChI=InChI=1S/C18H20O2/c1-18(2,3)16-11-9-14(10-12-16)13-20-17(19)15-7-5-4-6-8-15/h4-12H,13H2,1-3H3
computed SMILES=O=C(OCC1=CC=C(C=C1)C(C)(C)C)C=2C=CC=CC2
accession=JP011141
date=2016.01.19 (Created 2008.10.21, modified 2011.05.06)
author=SAWADA M, THE INST. OF SCIENTIFIC AND INDUSTRIALRESEARCH OSAKA UNIV.
license=CC BY-NC-SA
exact mass=268.14633
ionization energy=70 eV
ion type=[M]+*
computed spectral entropy=2.707468485864139
computed normalized entropy=0.724373409736418
SPLASH=splash10-0pb9-3960000000-c1b20467c415ef8fd320
submitter=submitter = University of Tokyo Team (Faculty of Engineering, University of Tokyo)
MoNA Rating=3.75

>  <NUM PEAKS>  (689) 
42

>  <MASS SPECTRAL PEAKS>  (689) 
27 1.2
29 2
39 2.3
40 2.7
41 4.7
50 1.3
51 5.4
53 1.1
55 1.2
57 3.7
65 1.7
77 22.1
78 2.7
79 1.4
89 1.8
91 10.1
103 1.5
104 1.8
105 99.99
106 8.2
107 1.2
115 5
116 2.9
117 10.9
118 1.8
119 2.7
127 1.6
128 1.4
129 1.6
131 10.9
132 7.7
133 1.7
145 1.2
147 13
148 2
163 1.7
211 1.7
253 70.6
254 13.6
255 1.6
268 36.2
269 7.3

$$$$

     RDKit          2D

 18 19  0  0  0  0  0  0  0  0999 V2000
   -9.4187    3.1342    0.0000 C   0  0  0  0  0  0  0  0  0  0  0  0
   -9.4192    1.6333    0.0000 C   0  0  0  0  0  0  0  0  0  0  0  0
   -8.1192    3.8850    0.0000 C   0  0  0  0  0  0  0  0  0  0  0  0
   -8.1202    0.8833    0.0000 C   0  0  0  0  0  0  0  0  0  0  0  0
   -6.8202    3.1350    0.0000 C   0  0  0  0  0  0  0  0  0  0  0  0
    0.9755    1.6337    0.0000 C   0  0  0  0  0  0  0  0  0  0  0  0
   -0.3242    3.8840    0.0000 C   0  0  0  0  0  0  0  0  0  0  0  0
   -0.3246    0.8840    0.0000 C   0  0  0  0  0  0  0  0  0  0  0  0
   -1.6243    3.1342    0.0000 C   0  0  0  0  0  0  0  0  0  0  0  0
    2.2748    3.8837    0.0000 C   0  0  0  0  0  0  0  0  0  0  0  0
   -2.9236    0.8842    0.0000 C   0  0  0  0  0  0  0  0  0  0  0  0
    0.9757    3.1337    0.0000 C   0  0  0  0  0  0  0  0  0  0  0  0
   -1.6245    1.6342    0.0000 C   0  0  0  0  0  0  0  0  0  0  0  0
   -6.8207    1.6342    0.0000 C   0  0  0  0  0  0  0  0  0  0  0  0
   -5.5216    0.8842    0.0000 C   0  0  0  0  0  0  0  0  0  0  0  0
    3.5738    4.6337    0.0000 N   0  0  0  0  0  0  0  0  0  0  0  0
   -5.5216   -0.6158    0.0000 O   0  0  0  0  0  0  0  0  0  0  0  0
   -4.2226    1.6342    0.0000 O   0  0  0  0  0  0  0  0  0  0  0  0
  2  1  2  0
  3  1  1  0
  4  2  1  0
  5  3  2  0
  8  6  2  0
  9  7  1  0
 12  6  1  0
 12  7  2  0
 12 10  1  0
 13  8  1  0
 13  9  2  0
 13 11  1  0
 14  4  2  0
 14  5  1  0
 15 14  1  0
 16 10  3  0
 17 15  2  0
 18 11  1  0
 18 15  1  0
M  END
>  <NAME>  (690) 
4-CYANOBENZYL BENZOATE

>  <SYNONYMS>  (690) 


>  <SPECTRUM TYPE>  (690) 
MS1

>  <INSTRUMENT TYPE>  (690) 
EI-B

>  <INSTRUMENT>  (690) 
JEOL JMS-DX-300

>  <ION MODE>  (690) 
P

>  <INCHIKEY>  (690) 
NLLRGSOJQLUKFM-UHFFFAOYSA-N

>  <FORMULA>  (690) 
C15H11NO2

>  <EXACT MASS>  (690) 
237.078978592

>  <MW>  (690) 
237

>  <ID>  (690) 
JP011140

>  <CONTRIBUTOR>  (690) 
University of Tokyo Team, {Faculty of Engineering, University of Tokyo

>  <COMMENT>  (690) 
SMILES=N#Cc(c2)ccc(c2)COC(=O)c(c1)cccc1
InChI=InChI=1S/C15H11NO2/c16-10-12-6-8-13(9-7-12)11-18-15(17)14-4-2-1-3-5-14/h1-9H,11H2
computed SMILES=N#CC1=CC=C(C=C1)COC(=O)C=2C=CC=CC2
accession=JP011140
date=2016.01.19 (Created 2008.10.21, modified 2011.05.06)
author=SAWADA M, THE INST. OF SCIENTIFIC AND INDUSTRIALRESEARCH OSAKA UNIV.
license=CC BY-NC-SA
exact mass=237.07898
ionization energy=70 eV
ion type=[M]+*
computed spectral entropy=2.6483245762934287
computed normalized entropy=0.7390290442930959
SPLASH=splash10-0a4i-6910000000-f542880d0e88fd3726ad
submitter=submitter = University of Tokyo Team (Faculty of Engineering, University of Tokyo)
MoNA Rating=3.75

>  <NUM PEAKS>  (690) 
36

>  <MASS SPECTRAL PEAKS>  (690) 
27 1.8
29 1.7
38 1.3
39 4.8
40 1.6
44 1.2
50 7.8
51 22.2
52 1.8
62 1.7
63 4.6
64 1.8
65 1.1
74 1.7
75 2.9
76 4.4
77 38.4
78 3.8
88 1.7
89 12.3
90 3.8
102 2.8
104 2.3
105 99.99
106 9.6
114 1.3
115 2.6
116 22.3
117 2.3
130 1
132 3.1
192 7.8
193 3.7
219 4.1
237 25.1
238 4.3

$$$$

     RDKit          2D

 19 20  0  0  0  0  0  0  0  0999 V2000
    9.0947    0.7508    0.0000 C   0  0  0  0  0  0  0  0  0  0  0  0
   -3.8978    0.7492    0.0000 C   0  0  0  0  0  0  0  0  0  0  0  0
   -3.8981   -0.7517    0.0000 C   0  0  0  0  0  0  0  0  0  0  0  0
   -2.5984    1.5002    0.0000 C   0  0  0  0  0  0  0  0  0  0  0  0
   -2.5989   -1.5015    0.0000 C   0  0  0  0  0  0  0  0  0  0  0  0
   -1.2993    0.7504    0.0000 C   0  0  0  0  0  0  0  0  0  0  0  0
    5.1966   -1.4996    0.0000 C   0  0  0  0  0  0  0  0  0  0  0  0
    3.8966    0.7504    0.0000 C   0  0  0  0  0  0  0  0  0  0  0  0
    6.4966   -0.7496    0.0000 C   0  0  0  0  0  0  0  0  0  0  0  0
    5.1966    1.5004    0.0000 C   0  0  0  0  0  0  0  0  0  0  0  0
    2.5977   -1.4998    0.0000 C   0  0  0  0  0  0  0  0  0  0  0  0
    3.8966   -0.7496    0.0000 C   0  0  0  0  0  0  0  0  0  0  0  0
   -1.2995   -0.7504    0.0000 C   0  0  0  0  0  0  0  0  0  0  0  0
    6.4966    0.7504    0.0000 C   0  0  0  0  0  0  0  0  0  0  0  0
   -0.0004   -1.5002    0.0000 C   0  0  0  0  0  0  0  0  0  0  0  0
   -0.0001   -3.0002    0.0000 O   0  0  0  0  0  0  0  0  0  0  0  0
    7.7953    3.0006    0.0000 O   0  0  0  0  0  0  0  0  0  0  0  0
    1.2986   -0.7500    0.0000 O   0  0  0  0  0  0  0  0  0  0  0  0
    7.7956    1.5006    0.0000 S   0  0  0  0  0  0  0  0  0  0  0  0
  3  2  2  0
  4  2  1  0
  5  3  1  0
  6  4  2  0
  9  7  2  0
 10  8  1  0
 12  7  1  0
 12  8  2  0
 12 11  1  0
 13  5  2  0
 13  6  1  0
 14  9  1  0
 14 10  2  0
 15 13  1  0
 16 15  2  0
 18 11  1  0
 18 15  1  0
 19  1  1  0
 19 14  1  0
 19 17  2  0
M  END
>  <NAME>  (691) 
4-METHYLSULFINYLBENZYL BENZOATE

>  <SYNONYMS>  (691) 


>  <SPECTRUM TYPE>  (691) 
MS1

>  <INSTRUMENT TYPE>  (691) 
EI-B

>  <INSTRUMENT>  (691) 
JEOL JMS-DX-300

>  <ION MODE>  (691) 
P

>  <INCHIKEY>  (691) 
HKUADHPETBQPPU-UHFFFAOYSA-N

>  <FORMULA>  (691) 
C15H14O3S

>  <EXACT MASS>  (691) 
274.066365308

>  <MW>  (691) 
274

>  <ID>  (691) 
JP011139

>  <CONTRIBUTOR>  (691) 
University of Tokyo Team, {Faculty of Engineering, University of Tokyo

>  <COMMENT>  (691) 
SMILES=CS(=O)c(c1)ccc(COC(=O)c(c2)cccc2)c1
InChI=InChI=1S/C15H14O3S/c1-19(17)14-9-7-12(8-10-14)11-18-15(16)13-5-3-2-4-6-13/h2-10H,11H2,1H3
computed SMILES=O=C(OCC1=CC=C(C=C1)S(=O)C)C=2C=CC=CC2
accession=JP011139
date=2016.01.19 (Created 2008.10.21, modified 2011.05.06)
author=SAWADA M, THE INST. OF SCIENTIFIC AND INDUSTRIALRESEARCH OSAKA UNIV.
license=CC BY-NC-SA
exact mass=274.06637
ionization energy=70 eV
ion type=[M]+*
computed spectral entropy=2.975808962268754
computed normalized entropy=0.768704325578499
SPLASH=splash10-0a4i-5940000000-5df4604bef638982102c
submitter=submitter = University of Tokyo Team (Faculty of Engineering, University of Tokyo)
MoNA Rating=3.75

>  <NUM PEAKS>  (691) 
48

>  <MASS SPECTRAL PEAKS>  (691) 
29 4.3
39 2.5
40 7.9
43 1.4
44 11.7
45 1.9
50 2.6
51 8
52 1.1
57 1.4
60 2.2
61 1
63 2.9
65 1.7
73 1.5
74 1.7
76 1.5
77 28.8
78 5.8
79 1
89 8.2
90 4.7
91 2.6
105 99.99
106 8.8
107 7.1
109 17.4
110 2.1
111 1
121 2.5
122 5.1
123 1.3
135 2.5
136 1.3
137 9.2
138 4.5
139 1.5
152 1.9
153 5
154 1.1
227 2.8
258 6.1
259 20.2
260 3.5
261 1.1
274 39.9
275 6.8
276 2.5

$$$$

     RDKit          2D

 20 21  0  0  0  0  0  0  0  0999 V2000
    8.5460    0.4028    0.0000 C   0  0  0  0  0  0  0  0  0  0  0  0
   -3.8976    0.9502    0.0000 C   0  0  0  0  0  0  0  0  0  0  0  0
   -3.8978   -0.5506    0.0000 C   0  0  0  0  0  0  0  0  0  0  0  0
   -2.5982    1.7013    0.0000 C   0  0  0  0  0  0  0  0  0  0  0  0
   -2.5987   -1.3004    0.0000 C   0  0  0  0  0  0  0  0  0  0  0  0
   -1.2990    0.9515    0.0000 C   0  0  0  0  0  0  0  0  0  0  0  0
    5.1969   -1.2985    0.0000 C   0  0  0  0  0  0  0  0  0  0  0  0
    3.8969    0.9515    0.0000 C   0  0  0  0  0  0  0  0  0  0  0  0
    6.4969   -0.5485    0.0000 C   0  0  0  0  0  0  0  0  0  0  0  0
    5.1969    1.7015    0.0000 C   0  0  0  0  0  0  0  0  0  0  0  0
    2.5980   -1.2987    0.0000 C   0  0  0  0  0  0  0  0  0  0  0  0
    3.8969   -0.5485    0.0000 C   0  0  0  0  0  0  0  0  0  0  0  0
   -1.2993   -0.5493    0.0000 C   0  0  0  0  0  0  0  0  0  0  0  0
    6.4969    0.9515    0.0000 C   0  0  0  0  0  0  0  0  0  0  0  0
   -0.0001   -1.2991    0.0000 C   0  0  0  0  0  0  0  0  0  0  0  0
    0.0001   -2.7991    0.0000 O   0  0  0  0  0  0  0  0  0  0  0  0
    9.0947    2.4519    0.0000 O   0  0  0  0  0  0  0  0  0  0  0  0
    7.0456    3.0006    0.0000 O   0  0  0  0  0  0  0  0  0  0  0  0
    1.2988   -0.5489    0.0000 O   0  0  0  0  0  0  0  0  0  0  0  0
    7.7958    1.7017    0.0000 S   0  0  0  0  0  0  0  0  0  0  0  0
  3  2  2  0
  4  2  1  0
  5  3  1  0
  6  4  2  0
  9  7  2  0
 10  8  1  0
 12  7  1  0
 12  8  2  0
 12 11  1  0
 13  5  2  0
 13  6  1  0
 14  9  1  0
 14 10  2  0
 15 13  1  0
 16 15  2  0
 19 11  1  0
 19 15  1  0
 20  1  1  0
 20 14  1  0
 20 17  2  0
 20 18  2  0
M  END
>  <NAME>  (692) 
4-MESYLBENZYL BENZOATE

>  <SYNONYMS>  (692) 
4-METHYLSULFONYLBENZYL BENZOATE

>  <SPECTRUM TYPE>  (692) 
MS1

>  <INSTRUMENT TYPE>  (692) 
EI-B

>  <INSTRUMENT>  (692) 
JEOL JMS-DX-300

>  <ION MODE>  (692) 
P

>  <INCHIKEY>  (692) 
MGLQGYMIDWSOTL-UHFFFAOYSA-N

>  <FORMULA>  (692) 
C15H14O4S

>  <EXACT MASS>  (692) 
290.061279928

>  <MW>  (692) 
290

>  <ID>  (692) 
JP011138

>  <CONTRIBUTOR>  (692) 
University of Tokyo Team, {Faculty of Engineering, University of Tokyo

>  <COMMENT>  (692) 
SMILES=O=C(OCc(c2)ccc(c2)S(C)(=O)=O)c(c1)cccc1
InChI=InChI=1S/C15H14O4S/c1-20(17,18)14-9-7-12(8-10-14)11-19-15(16)13-5-3-2-4-6-13/h2-10H,11H2,1H3
computed SMILES=O=C(OCC1=CC=C(C=C1)S(=O)(=O)C)C=2C=CC=CC2
accession=JP011138
date=2016.01.19 (Created 2008.10.21, modified 2011.05.06)
author=SAWADA M, THE INST. OF SCIENTIFIC AND INDUSTRIALRESEARCH OSAKA UNIV.
license=CC BY-NC-SA
exact mass=290.06128
ionization energy=70 eV
ion type=[M]+*
computed spectral entropy=2.8254035452202126
computed normalized entropy=0.7466337098690022
SPLASH=splash10-0a4i-8910000000-209f67b697e8bff2cb1c
submitter=submitter = University of Tokyo Team (Faculty of Engineering, University of Tokyo)
MoNA Rating=3.75

>  <NUM PEAKS>  (692) 
44

>  <MASS SPECTRAL PEAKS>  (692) 
27 1.5
29 7
39 2.6
40 13.6
41 1.2
43 2.2
44 22.3
45 1.5
50 3.2
51 8.9
52 1.3
55 1
57 2.1
60 3
61 1.6
63 3.6
64 1.1
65 1.8
71 1.1
73 2.2
74 2.7
75 1.2
76 1.9
77 26.6
78 4.9
79 1.7
89 10.9
90 3.8
91 3.8
105 99.99
106 10.3
107 15.4
108 1.3
122 8.6
123 1.1
155 1.2
167 1.4
170 1.3
185 6.2
193 1.8
245 1.5
290 17.2
291 2.9
292 1.1

$$$$

     RDKit          2D

 19 20  0  0  0  0  0  0  0  0999 V2000
    3.2471    3.6954    0.0000 C   0  0  0  0  0  0  0  0  0  0  0  0
    3.2476    5.1962    0.0000 C   0  0  0  0  0  0  0  0  0  0  0  0
    1.9476    2.9446    0.0000 C   0  0  0  0  0  0  0  0  0  0  0  0
    1.9486    5.9462    0.0000 C   0  0  0  0  0  0  0  0  0  0  0  0
    0.6486    3.6946    0.0000 C   0  0  0  0  0  0  0  0  0  0  0  0
   -5.8463    5.9452    0.0000 C   0  0  0  0  0  0  0  0  0  0  0  0
   -4.5474    3.6946    0.0000 C   0  0  0  0  0  0  0  0  0  0  0  0
   -7.1457    5.1942    0.0000 C   0  0  0  0  0  0  0  0  0  0  0  0
   -5.8468    2.9435    0.0000 C   0  0  0  0  0  0  0  0  0  0  0  0
   -3.2481    5.9454    0.0000 C   0  0  0  0  0  0  0  0  0  0  0  0
   -4.5471    5.1954    0.0000 C   0  0  0  0  0  0  0  0  0  0  0  0
    0.6490    5.1954    0.0000 C   0  0  0  0  0  0  0  0  0  0  0  0
   -7.1459    3.6933    0.0000 C   0  0  0  0  0  0  0  0  0  0  0  0
   -0.6500    5.9454    0.0000 C   0  0  0  0  0  0  0  0  0  0  0  0
   -8.4450    2.9433    0.0000 N   0  0  0  0  0  0  0  0  0  0  0  0
   -0.6500    7.4454    0.0000 O   0  0  0  0  0  0  0  0  0  0  0  0
   -9.7440    3.6933    0.0000 O   0  0  0  0  0  0  0  0  0  0  0  0
   -8.4450    1.4433    0.0000 O   0  0  0  0  0  0  0  0  0  0  0  0
   -1.9490    5.1954    0.0000 O   0  0  0  0  0  0  0  0  0  0  0  0
  2  1  2  0
  3  1  1  0
  4  2  1  0
  5  3  2  0
  8  6  2  0
  9  7  1  0
 11  6  1  0
 11  7  2  0
 11 10  1  0
 12  4  2  0
 12  5  1  0
 13  8  1  0
 13  9  2  0
 14 12  1  0
 15 13  1  0
 16 14  2  0
 17 15  1  0
 18 15  2  0
 19 10  1  0
 19 14  1  0
M  CHG  2  15   1  17  -1
M  END
>  <NAME>  (693) 
4-NITROBENZYL BENZOATE

>  <SYNONYMS>  (693) 


>  <SPECTRUM TYPE>  (693) 
MS1

>  <INSTRUMENT TYPE>  (693) 
EI-B

>  <INSTRUMENT>  (693) 
JEOL JMS-DX-300

>  <ION MODE>  (693) 
P

>  <INCHIKEY>  (693) 
CRTADXBPEXSZLH-UHFFFAOYSA-N

>  <FORMULA>  (693) 
C14H11NO4

>  <EXACT MASS>  (693) 
257.068807832

>  <MW>  (693) 
257

>  <ID>  (693) 
JP011137

>  <CONTRIBUTOR>  (693) 
University of Tokyo Team, {Faculty of Engineering, University of Tokyo

>  <COMMENT>  (693) 
SMILES=[O-1][N+1](=O)c(c1)ccc(COC(=O)c(c2)cccc2)c1
InChI=InChI=1S/C14H11NO4/c16-14(12-4-2-1-3-5-12)19-10-11-6-8-13(9-7-11)15(17)18/h1-9H,10H2
computed SMILES=O=C(OCC1=CC=C(C=C1)N(=O)=O)C=2C=CC=CC2
accession=JP011137
date=2016.01.19 (Created 2008.10.21, modified 2011.05.06)
author=SAWADA M, THE INST. OF SCIENTIFIC AND INDUSTRIALRESEARCH OSAKA UNIV.
license=CC BY-NC-SA
exact mass=257.06881
ionization energy=70 eV
ion type=[M]+*
computed spectral entropy=2.456922020475011
computed normalized entropy=0.7296424622379792
SPLASH=splash10-0a4i-9820000000-47add01200d5e4660f0f
submitter=submitter = University of Tokyo Team (Faculty of Engineering, University of Tokyo)
MoNA Rating=3.75

>  <NUM PEAKS>  (693) 
29

>  <MASS SPECTRAL PEAKS>  (693) 
27 1.2
30 7.4
39 3.6
50 5.8
51 17.1
52 2.6
62 1.1
63 5.4
64 2.2
74 1.4
75 1.8
76 4.6
77 36.7
78 13.5
79 1
89 14.3
90 6.3
105 99.99
106 13.5
107 1.6
136 2.3
152 1.3
165 1.2
166 1.2
210 1.7
212 4.3
240 4.7
257 20.9
258 3.4

$$$$

     RDKit          2D

 18 19  0  0  0  0  0  0  0  0999 V2000
    4.5487    2.9411    0.0000 C   0  0  0  0  0  0  0  0  0  0  0  0
    4.5492    4.4420    0.0000 C   0  0  0  0  0  0  0  0  0  0  0  0
    3.2492    2.1903    0.0000 C   0  0  0  0  0  0  0  0  0  0  0  0
   -4.5401    2.1979    0.0000 C   0  0  0  0  0  0  0  0  0  0  0  0
   -5.8393    2.9477    0.0000 C   0  0  0  0  0  0  0  0  0  0  0  0
   -3.2457    2.9403    0.0000 C   0  0  0  0  0  0  0  0  0  0  0  0
    3.2502    5.1920    0.0000 C   0  0  0  0  0  0  0  0  0  0  0  0
    1.9502    2.9403    0.0000 C   0  0  0  0  0  0  0  0  0  0  0  0
   -4.5446    5.1909    0.0000 C   0  0  0  0  0  0  0  0  0  0  0  0
   -7.1445    5.1875    0.0000 C   0  0  0  0  0  0  0  0  0  0  0  0
   -1.9465    5.1911    0.0000 C   0  0  0  0  0  0  0  0  0  0  0  0
   -5.8440    4.4399    0.0000 C   0  0  0  0  0  0  0  0  0  0  0  0
   -3.2455    4.4411    0.0000 C   0  0  0  0  0  0  0  0  0  0  0  0
    1.9507    4.4411    0.0000 C   0  0  0  0  0  0  0  0  0  0  0  0
    0.6516    5.1911    0.0000 C   0  0  0  0  0  0  0  0  0  0  0  0
   -8.4449    5.9351    0.0000 N   0  0  0  0  0  0  0  0  0  0  0  0
    0.6516    6.6911    0.0000 O   0  0  0  0  0  0  0  0  0  0  0  0
   -0.6474    4.4411    0.0000 O   0  0  0  0  0  0  0  0  0  0  0  0
  2  1  2  0
  3  1  1  0
  5  4  2  0
  6  4  1  0
  7  2  1  0
  8  3  2  0
 12  5  1  0
 12  9  2  0
 12 10  1  0
 13  6  2  0
 13  9  1  0
 13 11  1  0
 14  7  2  0
 14  8  1  0
 15 14  1  0
 16 10  3  0
 17 15  2  0
 18 11  1  0
 18 15  1  0
M  END
>  <NAME>  (694) 
3-CYANOBENZYL BENZOATE

>  <SYNONYMS>  (694) 


>  <SPECTRUM TYPE>  (694) 
MS1

>  <INSTRUMENT TYPE>  (694) 
EI-B

>  <INSTRUMENT>  (694) 
JEOL JMS-DX-300

>  <ION MODE>  (694) 
P

>  <INCHIKEY>  (694) 
MBZWZTKBDXXWON-UHFFFAOYSA-N

>  <FORMULA>  (694) 
C15H11NO2

>  <EXACT MASS>  (694) 
237.078978592

>  <MW>  (694) 
237

>  <ID>  (694) 
JP011136

>  <CONTRIBUTOR>  (694) 
University of Tokyo Team, {Faculty of Engineering, University of Tokyo

>  <COMMENT>  (694) 
SMILES=N#Cc(c2)cc(cc2)COC(=O)c(c1)cccc1
InChI=InChI=1S/C15H11NO2/c16-10-12-5-4-6-13(9-12)11-18-15(17)14-7-2-1-3-8-14/h1-9H,11H2
computed SMILES=N#CC1=CC=CC(=C1)COC(=O)C=2C=CC=CC2
accession=JP011136
date=2016.01.19 (Created 2008.10.21, modified 2011.05.06)
author=SAWADA M, THE INST. OF SCIENTIFIC AND INDUSTRIALRESEARCH OSAKA UNIV.
license=CC BY-NC-SA
exact mass=237.07898
ionization energy=70 eV
ion type=[M]+*
computed spectral entropy=2.5178424236290518
computed normalized entropy=0.7081845096691524
SPLASH=splash10-0a4i-4920000000-ed5bdac65ec39b618c12
submitter=submitter = University of Tokyo Team (Faculty of Engineering, University of Tokyo)
MoNA Rating=3.75

>  <NUM PEAKS>  (694) 
35

>  <MASS SPECTRAL PEAKS>  (694) 
27 1
29 1.3
39 3
40 2.4
44 2.4
50 3.5
51 11.1
52 0.8
62 1
63 2.7
64 1
74 1.1
75 1.5
76 2.4
77 27.4
78 2.7
88 1
89 8.3
90 2.2
102 1.2
104 1.2
105 99.99
106 9.8
114 1
115 1.7
116 19.1
117 1.9
132 5.6
191 3
192 8
193 2.9
219 7.5
220 1.4
237 25
238 4.5

$$$$

     RDKit          2D

 20 21  0  0  0  0  0  0  0  0999 V2000
   -4.0477    2.3376    0.0000 C   0  0  0  0  0  0  0  0  0  0  0  0
    8.3938    3.2890    0.0000 C   0  0  0  0  0  0  0  0  0  0  0  0
    7.0942    4.0396    0.0000 C   0  0  0  0  0  0  0  0  0  0  0  0
    8.3946    1.7881    0.0000 C   0  0  0  0  0  0  0  0  0  0  0  0
   -0.7002    4.0394    0.0000 C   0  0  0  0  0  0  0  0  0  0  0  0
    0.5994    3.2886    0.0000 C   0  0  0  0  0  0  0  0  0  0  0  0
    5.7953    3.2894    0.0000 C   0  0  0  0  0  0  0  0  0  0  0  0
    7.0956    1.0379    0.0000 C   0  0  0  0  0  0  0  0  0  0  0  0
   -1.9992    3.2894    0.0000 C   0  0  0  0  0  0  0  0  0  0  0  0
   -0.6992    1.0377    0.0000 C   0  0  0  0  0  0  0  0  0  0  0  0
    1.8990    1.0379    0.0000 C   0  0  0  0  0  0  0  0  0  0  0  0
    0.5998    1.7877    0.0000 C   0  0  0  0  0  0  0  0  0  0  0  0
    5.7960    1.7886    0.0000 C   0  0  0  0  0  0  0  0  0  0  0  0
   -1.9987    1.7886    0.0000 C   0  0  0  0  0  0  0  0  0  0  0  0
    4.4971    1.0383    0.0000 C   0  0  0  0  0  0  0  0  0  0  0  0
    4.4973   -0.4617    0.0000 O   0  0  0  0  0  0  0  0  0  0  0  0
   -4.5968    0.2886    0.0000 O   0  0  0  0  0  0  0  0  0  0  0  0
   -2.5477   -0.2605    0.0000 O   0  0  0  0  0  0  0  0  0  0  0  0
    3.1979    1.7881    0.0000 O   0  0  0  0  0  0  0  0  0  0  0  0
   -3.2977    1.0386    0.0000 S   0  0  0  0  0  0  0  0  0  0  0  0
  3  2  2  0
  4  2  1  0
  6  5  2  0
  7  3  1  0
  8  4  2  0
  9  5  1  0
 12  6  1  0
 12 10  2  0
 12 11  1  0
 13  7  2  0
 13  8  1  0
 14  9  2  0
 14 10  1  0
 15 13  1  0
 16 15  2  0
 19 11  1  0
 19 15  1  0
 20  1  1  0
 20 14  1  0
 20 17  2  0
 20 18  2  0
M  END
>  <NAME>  (695) 
3-MESYLBENZYL BENZOATE

>  <SYNONYMS>  (695) 
3-METHYLSULFONYLBENZYL BENZOATE

>  <SPECTRUM TYPE>  (695) 
MS1

>  <INSTRUMENT TYPE>  (695) 
EI-B

>  <INSTRUMENT>  (695) 
JEOL JMS-DX-300

>  <ION MODE>  (695) 
P

>  <INCHIKEY>  (695) 
JXJFREBCZWEBPA-UHFFFAOYSA-N

>  <FORMULA>  (695) 
C15H14O4S

>  <EXACT MASS>  (695) 
290.061279928

>  <MW>  (695) 
290

>  <ID>  (695) 
JP011135

>  <CONTRIBUTOR>  (695) 
University of Tokyo Team, {Faculty of Engineering, University of Tokyo

>  <COMMENT>  (695) 
SMILES=O=C(OCc(c2)cc(cc2)S(C)(=O)=O)c(c1)cccc1
InChI=InChI=1S/C15H14O4S/c1-20(17,18)14-9-5-6-12(10-14)11-19-15(16)13-7-3-2-4-8-13/h2-10H,11H2,1H3
computed SMILES=O=C(OCC1=CC=CC(=C1)S(=O)(=O)C)C=2C=CC=CC2
accession=JP011135
date=2016.01.19 (Created 2008.10.21, modified 2011.05.06)
author=SAWADA M, THE INST. OF SCIENTIFIC AND INDUSTRIALRESEARCH OSAKA UNIV.
license=CC BY-NC-SA
exact mass=290.06128
ionization energy=70 eV
ion type=[M]+*
computed spectral entropy=3.303865927427184
computed normalized entropy=0.8244550115279526
SPLASH=splash10-0a73-9610000000-27a4e7d1e93c4a0f5c6b
submitter=submitter = University of Tokyo Team (Faculty of Engineering, University of Tokyo)
MoNA Rating=3.75

>  <NUM PEAKS>  (695) 
55

>  <MASS SPECTRAL PEAKS>  (695) 
27 3.1
38 2.2
39 7.3
40 27
41 6
42 1.5
43 13.9
44 27.2
45 2.4
50 8.4
51 22.6
52 4
55 3.8
57 3.6
60 2
62 1.5
63 8.6
64 3.5
65 4.4
69 3.5
71 1.8
73 2
74 2.7
75 3.1
76 6.9
77 45.8
78 15.9
79 6.6
81 2
89 21.2
90 14.4
91 4.9
92 1.3
94 1.5
105 99.99
106 13.3
107 5.8
121 2.2
122 7.7
135 2.2
149 2.4
165 1.8
166 1.5
167 2
169 13.5
170 1.5
184 2.9
185 37.2
186 8.8
187 2.4
211 1.5
228 6
272 3.5
290 19.5
291 3.5

$$$$

     RDKit          2D

 19 20  0  0  0  0  0  0  0  0999 V2000
    0.0000   -1.9300    0.0000 C   0  0  0  0  0  0  0  0  0  0  0  0
    1.3000   -1.1800    0.0000 C   0  0  0  0  0  0  0  0  0  0  0  0
   -1.3000   -1.1800    0.0000 C   0  0  0  0  0  0  0  0  0  0  0  0
   -3.8979    7.8144    0.0000 C   0  0  0  0  0  0  0  0  0  0  0  0
   -2.6001    7.0622    0.0000 C   0  0  0  0  0  0  0  0  0  0  0  0
    1.3000    0.3200    0.0000 C   0  0  0  0  0  0  0  0  0  0  0  0
   -1.3000    0.3200    0.0000 C   0  0  0  0  0  0  0  0  0  0  0  0
   -5.1936    7.0743    0.0000 C   0  0  0  0  0  0  0  0  0  0  0  0
   -3.8989    4.8213    0.0000 C   0  0  0  0  0  0  0  0  0  0  0  0
   -1.2990    4.8200    0.0000 C   0  0  0  0  0  0  0  0  0  0  0  0
   -2.5981    5.5700    0.0000 C   0  0  0  0  0  0  0  0  0  0  0  0
    0.0000    1.0700    0.0000 C   0  0  0  0  0  0  0  0  0  0  0  0
   -5.1966    5.5735    0.0000 C   0  0  0  0  0  0  0  0  0  0  0  0
    0.0000    2.5700    0.0000 C   0  0  0  0  0  0  0  0  0  0  0  0
   -6.4970    4.8259    0.0000 N   0  0  0  0  0  0  0  0  0  0  0  0
    1.2990    3.3200    0.0000 O   0  0  0  0  0  0  0  0  0  0  0  0
   -7.7947    5.5783    0.0000 O   0  0  0  0  0  0  0  0  0  0  0  0
   -6.4998    3.3259    0.0000 O   0  0  0  0  0  0  0  0  0  0  0  0
   -1.2990    3.3200    0.0000 O   0  0  0  0  0  0  0  0  0  0  0  0
  2  1  2  0
  3  1  1  0
  5  4  2  0
  6  2  1  0
  7  3  2  0
  8  4  1  0
 11  5  1  0
 11  9  2  0
 11 10  1  0
 12  6  2  0
 12  7  1  0
 13  8  2  0
 13  9  1  0
 14 12  1  0
 15 13  1  0
 16 14  2  0
 17 15  1  0
 18 15  2  0
 19 10  1  0
 19 14  1  0
M  CHG  2  15   1  17  -1
M  END
>  <NAME>  (696) 
3-NITROBENZYL BENZOATE

>  <SYNONYMS>  (696) 


>  <SPECTRUM TYPE>  (696) 
MS1

>  <INSTRUMENT TYPE>  (696) 
EI-B

>  <INSTRUMENT>  (696) 
JEOL JMS-DX-300

>  <ION MODE>  (696) 
P

>  <INCHIKEY>  (696) 
XYHCAQKUZAEVJN-UHFFFAOYSA-N

>  <FORMULA>  (696) 
C14H11NO4

>  <EXACT MASS>  (696) 
257.068807832

>  <MW>  (696) 
257

>  <ID>  (696) 
JP011134

>  <CONTRIBUTOR>  (696) 
University of Tokyo Team, {Faculty of Engineering, University of Tokyo

>  <COMMENT>  (696) 
SMILES=[O-1][N+1](=O)c(c2)cc(cc2)COC(=O)c(c1)cccc1
InChI=InChI=1S/C14H11NO4/c16-14(12-6-2-1-3-7-12)19-10-11-5-4-8-13(9-11)15(17)18/h1-9H,10H2
computed SMILES=O=C(OCC=1C=CC=C(C1)N(=O)=O)C=2C=CC=CC2
accession=JP011134
date=2016.01.19 (Created 2008.10.21, modified 2011.05.06)
author=SAWADA M, THE INST. OF SCIENTIFIC AND INDUSTRIALRESEARCH OSAKA UNIV.
license=CC BY-NC-SA
exact mass=257.06881
ionization energy=70 eV
ion type=[M]+*
computed spectral entropy=2.4479651658743284
computed normalized entropy=0.7197362843664236
SPLASH=splash10-0a4r-7900000000-29c8cdfa27bf932c5090
submitter=submitter = University of Tokyo Team (Faculty of Engineering, University of Tokyo)
MoNA Rating=3.75

>  <NUM PEAKS>  (696) 
30

>  <MASS SPECTRAL PEAKS>  (696) 
27 1.2
30 1.7
38 1
39 3.9
44 1.6
50 6.2
51 17.8
52 2.1
62 1.2
63 5.8
64 2.3
74 1.6
75 1.8
76 5.1
77 39.7
78 7.3
89 14.9
90 12.8
91 1.2
105 99.99
106 9.6
135 30.8
136 11.2
152 1.4
165 1.7
166 1.2
210 1.2
212 2.1
240 2.9
257 2.8

$$$$

     RDKit          2D

 17 18  0  0  0  0  0  0  0  0999 V2000
    3.2481    2.1950    0.0000 C   0  0  0  0  0  0  0  0  0  0  0  0
    3.2486    3.6958    0.0000 C   0  0  0  0  0  0  0  0  0  0  0  0
    1.9486    1.4442    0.0000 C   0  0  0  0  0  0  0  0  0  0  0  0
   -5.8447    1.4442    0.0000 C   0  0  0  0  0  0  0  0  0  0  0  0
   -7.1442    2.1950    0.0000 C   0  0  0  0  0  0  0  0  0  0  0  0
    1.9495    4.4458    0.0000 C   0  0  0  0  0  0  0  0  0  0  0  0
    0.6495    2.1942    0.0000 C   0  0  0  0  0  0  0  0  0  0  0  0
   -4.5457    2.1942    0.0000 C   0  0  0  0  0  0  0  0  0  0  0  0
   -7.1447    3.6958    0.0000 C   0  0  0  0  0  0  0  0  0  0  0  0
   -3.2471    4.4450    0.0000 C   0  0  0  0  0  0  0  0  0  0  0  0
    0.6500    3.6950    0.0000 C   0  0  0  0  0  0  0  0  0  0  0  0
   -4.5462    3.6950    0.0000 C   0  0  0  0  0  0  0  0  0  0  0  0
   -5.8457    4.4458    0.0000 C   0  0  0  0  0  0  0  0  0  0  0  0
   -0.6490    4.4450    0.0000 C   0  0  0  0  0  0  0  0  0  0  0  0
   -5.8454    5.9458    0.0000 Br  0  0  0  0  0  0  0  0  0  0  0  0
   -0.6490    5.9450    0.0000 O   0  0  0  0  0  0  0  0  0  0  0  0
   -1.9481    3.6950    0.0000 O   0  0  0  0  0  0  0  0  0  0  0  0
  2  1  2  0
  3  1  1  0
  5  4  2  0
  6  2  1  0
  7  3  2  0
  8  4  1  0
  9  5  1  0
 11  6  2  0
 11  7  1  0
 12  8  2  0
 12 10  1  0
 13  9  2  0
 13 12  1  0
 14 11  1  0
 15 13  1  0
 16 14  2  0
 17 10  1  0
 17 14  1  0
M  END
>  <NAME>  (697) 
2-BROMOBENZYL BENZOATE

>  <SYNONYMS>  (697) 


>  <SPECTRUM TYPE>  (697) 
MS1

>  <INSTRUMENT TYPE>  (697) 
EI-B

>  <INSTRUMENT>  (697) 
JEOL JMS-DX-300

>  <ION MODE>  (697) 
P

>  <INCHIKEY>  (697) 
DETHHGJSHHWELU-UHFFFAOYSA-N

>  <FORMULA>  (697) 
C14H11BrO2

>  <EXACT MASS>  (697) 
289.994241692

>  <MW>  (697) 
290

>  <ID>  (697) 
JP011133

>  <CONTRIBUTOR>  (697) 
University of Tokyo Team, {Faculty of Engineering, University of Tokyo

>  <COMMENT>  (697) 
SMILES=O=C(OCc(c2)c(Br)ccc2)c(c1)cccc1
InChI=InChI=1S/C14H11BrO2/c15-13-9-5-4-8-12(13)10-17-14(16)11-6-2-1-3-7-11/h1-9H,10H2
computed SMILES=O=C(OCC=1C=CC=CC1Br)C=2C=CC=CC2
accession=JP011133
date=2016.01.19 (Created 2008.10.21, modified 2011.05.06)
author=SAWADA M, THE INST. OF SCIENTIFIC AND INDUSTRIALRESEARCH OSAKA UNIV.
license=CC BY-NC-SA
exact mass=289.99424
ionization energy=70 eV
ion type=[M]+*
computed spectral entropy=2.641518147670602
computed normalized entropy=0.7371296742214649
SPLASH=splash10-0bt9-9840000000-f1d85ca205bbce5ea5c0
submitter=submitter = University of Tokyo Team (Faculty of Engineering, University of Tokyo)
MoNA Rating=3.75

>  <NUM PEAKS>  (697) 
36

>  <MASS SPECTRAL PEAKS>  (697) 
27 1.5
29 1.8
38 1.4
39 5.3
40 2.7
44 1.7
50 9.4
51 23.9
52 2.1
62 2.2
63 7.2
64 2.2
74 2.4
75 3.7
76 5.3
77 44.8
78 7.6
89 17.4
90 15.6
91 2.2
105 99.99
106 8.6
122 1
155 1.3
157 2.2
165 1.4
166 1.2
167 1.5
169 13.4
170 1
171 13.1
172 1
185 2.2
187 1
211 63.7
212 10.4

$$$$

     RDKit          2D

 21 22  0  0  0  0  0  0  0  0999 V2000
   -5.1966   -3.0004    0.0000 C   0  0  0  0  0  0  0  0  0  0  0  0
   -7.7956    1.4998    0.0000 C   0  0  0  0  0  0  0  0  0  0  0  0
    3.8978   -0.7492    0.0000 C   0  0  0  0  0  0  0  0  0  0  0  0
    3.8981    0.7517    0.0000 C   0  0  0  0  0  0  0  0  0  0  0  0
    2.5984   -1.5002    0.0000 C   0  0  0  0  0  0  0  0  0  0  0  0
    2.5989    1.5015    0.0000 C   0  0  0  0  0  0  0  0  0  0  0  0
    1.2993   -0.7504    0.0000 C   0  0  0  0  0  0  0  0  0  0  0  0
   -3.8966   -0.7504    0.0000 C   0  0  0  0  0  0  0  0  0  0  0  0
   -5.1966    1.4996    0.0000 C   0  0  0  0  0  0  0  0  0  0  0  0
   -2.5977    1.4998    0.0000 C   0  0  0  0  0  0  0  0  0  0  0  0
   -5.1966   -1.5004    0.0000 C   0  0  0  0  0  0  0  0  0  0  0  0
   -6.4966    0.7496    0.0000 C   0  0  0  0  0  0  0  0  0  0  0  0
   -3.8966    0.7496    0.0000 C   0  0  0  0  0  0  0  0  0  0  0  0
    1.2995    0.7504    0.0000 C   0  0  0  0  0  0  0  0  0  0  0  0
   -6.4966   -0.7504    0.0000 C   0  0  0  0  0  0  0  0  0  0  0  0
    0.0004    1.5002    0.0000 C   0  0  0  0  0  0  0  0  0  0  0  0
   -7.7956   -1.5006    0.0000 N   0  0  0  0  0  0  0  0  0  0  0  0
    0.0001    3.0002    0.0000 O   0  0  0  0  0  0  0  0  0  0  0  0
   -9.0947   -0.7508    0.0000 O   0  0  0  0  0  0  0  0  0  0  0  0
   -7.7953   -3.0006    0.0000 O   0  0  0  0  0  0  0  0  0  0  0  0
   -1.2986    0.7500    0.0000 O   0  0  0  0  0  0  0  0  0  0  0  0
  4  3  2  0
  5  3  1  0
  6  4  1  0
  7  5  2  0
 11  1  1  0
 11  8  2  0
 12  2  1  0
 12  9  1  0
 13  8  1  0
 13  9  2  0
 13 10  1  0
 14  6  2  0
 14  7  1  0
 15 11  1  0
 15 12  2  0
 16 14  1  0
 17 15  1  0
 18 16  2  0
 19 17  1  0
 20 17  2  0
 21 10  1  0
 21 16  1  0
M  CHG  2  17   1  19  -1
M  END
>  <NAME>  (698) 
3,5-DIMETHYL-4-NITROBENZYL BENZOATE

>  <SYNONYMS>  (698) 


>  <SPECTRUM TYPE>  (698) 
MS1

>  <INSTRUMENT TYPE>  (698) 
EI-B

>  <INSTRUMENT>  (698) 
JEOL JMS-DX-300

>  <ION MODE>  (698) 
P

>  <INCHIKEY>  (698) 
KCQCEOIBHFFCEK-UHFFFAOYSA-N

>  <FORMULA>  (698) 
C16H15NO4

>  <EXACT MASS>  (698) 
285.10010796

>  <MW>  (698) 
285

>  <ID>  (698) 
JP011132

>  <CONTRIBUTOR>  (698) 
University of Tokyo Team, {Faculty of Engineering, University of Tokyo

>  <COMMENT>  (698) 
SMILES=[O-1][N+1](=O)c(c(C)1)c(C)cc(COC(=O)c(c2)cccc2)c1
InChI=InChI=1S/C16H15NO4/c1-11-8-13(9-12(2)15(11)17(19)20)10-21-16(18)14-6-4-3-5-7-14/h3-9H,10H2,1-2H3
computed SMILES=O=C(OCC=1C=C(C(=C(C1)C)N(=O)=O)C)C=2C=CC=CC2
accession=JP011132
date=2016.01.19 (Created 2008.10.21, modified 2011.05.06)
author=SAWADA M, THE INST. OF SCIENTIFIC AND INDUSTRIALRESEARCH OSAKA UNIV.
license=CC BY-NC-SA
exact mass=285.10011
ionization energy=70 eV
ion type=[M]+*
computed spectral entropy=2.550090694782
computed normalized entropy=0.7010392559261921
SPLASH=splash10-0a4i-5900000000-f7c8c3731cba6e201434
submitter=submitter = University of Tokyo Team (Faculty of Engineering, University of Tokyo)
MoNA Rating=3.75

>  <NUM PEAKS>  (698) 
38

>  <MASS SPECTRAL PEAKS>  (698) 
27 1.8
30 1.9
32 1.8
39 4.7
41 1.2
50 2.7
51 11.1
52 1.9
53 1.8
63 1.8
65 3.7
76 1.7
77 36.2
78 5.8
79 2.8
89 1.2
91 11.9
92 1.3
102 1
103 2.8
104 1.9
105 99.99
106 12.4
107 1.2
115 4.7
116 1.5
117 7.7
118 2.1
119 1
133 1.3
134 6.2
135 1.7
146 2.8
148 1
163 2.2
164 1.8
285 11.6
286 2

$$$$

     RDKit          2D

 22 24  0  0  0  0  0  0  0  0999 V2000
   -5.1970    3.3210    0.0000 C   0  0  0  0  0  0  0  0  0  0  0  0
    9.0946    5.5706    0.0000 C   0  0  0  0  0  0  0  0  0  0  0  0
   -3.8975    2.5702    0.0000 C   0  0  0  0  0  0  0  0  0  0  0  0
   -5.1975    4.8219    0.0000 C   0  0  0  0  0  0  0  0  0  0  0  0
    9.0951    7.0715    0.0000 C   0  0  0  0  0  0  0  0  0  0  0  0
    7.7951    4.8198    0.0000 C   0  0  0  0  0  0  0  0  0  0  0  0
   -2.5984    3.3202    0.0000 C   0  0  0  0  0  0  0  0  0  0  0  0
   -3.8984    5.5719    0.0000 C   0  0  0  0  0  0  0  0  0  0  0  0
    7.7960    7.8215    0.0000 C   0  0  0  0  0  0  0  0  0  0  0  0
    6.4960    5.5698    0.0000 C   0  0  0  0  0  0  0  0  0  0  0  0
    1.3001    5.5706    0.0000 C   0  0  0  0  0  0  0  0  0  0  0  0
    0.0005    7.8208    0.0000 C   0  0  0  0  0  0  0  0  0  0  0  0
    0.0000    4.8208    0.0000 C   0  0  0  0  0  0  0  0  0  0  0  0
   -1.2996    7.0710    0.0000 C   0  0  0  0  0  0  0  0  0  0  0  0
    2.5994    7.8206    0.0000 C   0  0  0  0  0  0  0  0  0  0  0  0
    1.3004    7.0706    0.0000 C   0  0  0  0  0  0  0  0  0  0  0  0
   -2.5989    4.8210    0.0000 C   0  0  0  0  0  0  0  0  0  0  0  0
   -1.2999    5.5710    0.0000 C   0  0  0  0  0  0  0  0  0  0  0  0
    6.4965    7.0706    0.0000 C   0  0  0  0  0  0  0  0  0  0  0  0
    5.1975    7.8206    0.0000 C   0  0  0  0  0  0  0  0  0  0  0  0
    5.1975    9.3206    0.0000 O   0  0  0  0  0  0  0  0  0  0  0  0
    3.8984    7.0706    0.0000 O   0  0  0  0  0  0  0  0  0  0  0  0
  3  1  2  0
  4  1  1  0
  5  2  2  0
  6  2  1  0
  7  3  1  0
  8  4  2  0
  9  5  1  0
 10  6  2  0
 13 11  2  0
 14 12  1  0
 16 11  1  0
 16 12  2  0
 16 15  1  0
 17  7  2  0
 17  8  1  0
 18 13  1  0
 18 14  2  0
 18 17  1  0
 19  9  2  0
 19 10  1  0
 20 19  1  0
 21 20  2  0
 22 15  1  0
 22 20  1  0
M  END
>  <NAME>  (699) 
4-BIPHENYLYLMETHYL BENZOATE

>  <SYNONYMS>  (699) 


>  <SPECTRUM TYPE>  (699) 
MS1

>  <INSTRUMENT TYPE>  (699) 
EI-B

>  <INSTRUMENT>  (699) 
JEOL JMS-DX-300

>  <ION MODE>  (699) 
P

>  <INCHIKEY>  (699) 
OANDQJPNJDEYHN-UHFFFAOYSA-N

>  <FORMULA>  (699) 
C20H16O2

>  <EXACT MASS>  (699) 
288.115029752

>  <MW>  (699) 
288

>  <ID>  (699) 
JP011131

>  <CONTRIBUTOR>  (699) 
University of Tokyo Team, {Faculty of Engineering, University of Tokyo

>  <COMMENT>  (699) 
SMILES=O=C(OCc(c3)ccc(c3)c(c2)cccc2)c(c1)cccc1
InChI=InChI=1S/C20H16O2/c21-20(19-9-5-2-6-10-19)22-15-16-11-13-18(14-12-16)17-7-3-1-4-8-17/h1-14H,15H2
computed SMILES=O=C(OCC=1C=CC(=CC1)C=2C=CC=CC2)C=3C=CC=CC3
accession=JP011131
date=2016.01.19 (Created 2008.10.21, modified 2011.05.06)
author=SAWADA M, THE INST. OF SCIENTIFIC AND INDUSTRIALRESEARCH OSAKA UNIV.
license=CC BY-NC-SA
exact mass=288.11503
ionization energy=70 eV
ion type=[M]+*
computed spectral entropy=3.3121660010626077
computed normalized entropy=0.7994347806177527
SPLASH=splash10-066r-5910000000-7e0d21d6a5ad8f8a7c2d
submitter=submitter = University of Tokyo Team (Faculty of Engineering, University of Tokyo)
MoNA Rating=3.75

>  <NUM PEAKS>  (699) 
63

>  <MASS SPECTRAL PEAKS>  (699) 
27 3.6
29 10.7
34 1.6
39 6.7
40 25.6
41 4.9
42 1.6
43 5.1
44 15.1
45 1.6
50 6.2
51 20
52 2.2
55 4
57 3.8
60 1.6
63 3.8
65 2.7
69 3.3
71 1.6
73 1.3
74 2.2
75 2
76 4
77 49.3
78 6.4
81 1.6
83 1.3
89 2.4
91 1.5
102 2.7
105 99.99
106 10
115 6.9
122 3.3
126 1.8
127 3.3
128 4
129 1.8
139 4.2
141 2.4
144 1.1
149 2
150 1.3
151 5.6
152 24
153 10.4
154 3.8
155 7.1
163 2.2
164 2.7
165 45.8
166 16.4
167 60
168 9.8
178 1.8
179 1.6
181 4.4
182 6.7
183 4.2
288 52.7
289 11.3
290 1.6

$$$$

     RDKit          2D

 22 24  0  0  0  0  0  0  0  0999 V2000
    9.0913    7.0769    0.0000 C   0  0  0  0  0  0  0  0  0  0  0  0
   -5.1958    3.3114    0.0000 C   0  0  0  0  0  0  0  0  0  0  0  0
    7.7918    7.8278    0.0000 C   0  0  0  0  0  0  0  0  0  0  0  0
    9.0918    5.5761    0.0000 C   0  0  0  0  0  0  0  0  0  0  0  0
   -3.8949    2.5629    0.0000 C   0  0  0  0  0  0  0  0  0  0  0  0
   -5.1990    4.8122    0.0000 C   0  0  0  0  0  0  0  0  0  0  0  0
    3.8996    2.5837    0.0000 C   0  0  0  0  0  0  0  0  0  0  0  0
    2.6004    3.3335    0.0000 C   0  0  0  0  0  0  0  0  0  0  0  0
    6.4928    7.0778    0.0000 C   0  0  0  0  0  0  0  0  0  0  0  0
    7.7928    4.8261    0.0000 C   0  0  0  0  0  0  0  0  0  0  0  0
   -2.5973    3.3153    0.0000 C   0  0  0  0  0  0  0  0  0  0  0  0
   -3.9014    5.5646    0.0000 C   0  0  0  0  0  0  0  0  0  0  0  0
    5.1940    3.3261    0.0000 C   0  0  0  0  0  0  0  0  0  0  0  0
    3.8950    5.5767    0.0000 C   0  0  0  0  0  0  0  0  0  0  0  0
    1.2952    5.5733    0.0000 C   0  0  0  0  0  0  0  0  0  0  0  0
    2.5957    4.8257    0.0000 C   0  0  0  0  0  0  0  0  0  0  0  0
    6.4932    5.5769    0.0000 C   0  0  0  0  0  0  0  0  0  0  0  0
   -2.6005    4.8161    0.0000 C   0  0  0  0  0  0  0  0  0  0  0  0
    5.1942    4.8269    0.0000 C   0  0  0  0  0  0  0  0  0  0  0  0
   -1.3028    5.5685    0.0000 C   0  0  0  0  0  0  0  0  0  0  0  0
   -1.3056    7.0685    0.0000 O   0  0  0  0  0  0  0  0  0  0  0  0
   -0.0024    4.8209    0.0000 O   0  0  0  0  0  0  0  0  0  0  0  0
  3  1  2  0
  4  1  1  0
  5  2  2  0
  6  2  1  0
  8  7  2  0
  9  3  1  0
 10  4  2  0
 11  5  1  0
 12  6  2  0
 13  7  1  0
 16  8  1  0
 16 14  2  0
 16 15  1  0
 17  9  2  0
 17 10  1  0
 18 11  2  0
 18 12  1  0
 19 13  2  0
 19 14  1  0
 19 17  1  0
 20 18  1  0
 21 20  2  0
 22 15  1  0
 22 20  1  0
M  END
>  <NAME>  (700) 
3-BIPHENYLYLMETHYL BENZOATE

>  <SYNONYMS>  (700) 


>  <SPECTRUM TYPE>  (700) 
MS1

>  <INSTRUMENT TYPE>  (700) 
EI-B

>  <INSTRUMENT>  (700) 
JEOL JMS-DX-300

>  <ION MODE>  (700) 
P

>  <INCHIKEY>  (700) 
FDPBBCMRELYSTJ-UHFFFAOYSA-N

>  <FORMULA>  (700) 
C20H16O2

>  <EXACT MASS>  (700) 
288.115029752

>  <MW>  (700) 
288

>  <ID>  (700) 
JP011130

>  <CONTRIBUTOR>  (700) 
University of Tokyo Team, {Faculty of Engineering, University of Tokyo

>  <COMMENT>  (700) 
SMILES=O=C(OCc(c3)cc(cc3)c(c2)cccc2)c(c1)cccc1
InChI=InChI=1S/C20H16O2/c21-20(18-11-5-2-6-12-18)22-15-16-8-7-13-19(14-16)17-9-3-1-4-10-17/h1-14H,15H2
computed SMILES=O=C(OCC1=CC=CC(=C1)C=2C=CC=CC2)C=3C=CC=CC3
accession=JP011130
date=2016.01.19 (Created 2008.10.21, modified 2011.05.06)
author=SAWADA M, THE INST. OF SCIENTIFIC AND INDUSTRIALRESEARCH OSAKA UNIV.
license=CC BY-NC-SA
exact mass=288.11503
ionization energy=70 eV
ion type=[M]+*
computed spectral entropy=3.0492567086572566
computed normalized entropy=0.7919843663403754
SPLASH=splash10-0a4i-4910000000-acc85d5e4cf2694b0686
submitter=submitter = University of Tokyo Team (Faculty of Engineering, University of Tokyo)
MoNA Rating=3.75

>  <NUM PEAKS>  (700) 
47

>  <MASS SPECTRAL PEAKS>  (700) 
27 3.6
29 6.2
39 3.8
40 11.3
41 3.8
43 3.6
44 7.1
50 4
51 14.2
55 2.2
57 2.3
63 2.8
69 2.2
74 1.6
75 1.6
76 2.8
77 37.3
78 4
89 1.8
105 99.99
106 8
115 4.7
122 1.6
126 1.6
127 2.4
128 2.7
139 2.7
141 1.8
149 1.6
151 3.8
152 18.4
153 8.4
154 1.8
155 6.9
163 1.6
164 1.6
165 26
166 6.4
167 17.6
168 3.6
178 1.6
179 1.6
181 2.2
182 7.8
183 2.7
288 30.7
289 7.1

$$$$

     RDKit          2D

 23 26  0  0  0  0  0  0  0  0999 V2000
  -10.6354   -3.6640    0.0000 C   0  0  0  0  0  0  0  0  0  0  0  0
   -9.1679   -3.9788    0.0000 C   0  0  0  0  0  0  0  0  0  0  0  0
  -11.0973   -2.2360    0.0000 C   0  0  0  0  0  0  0  0  0  0  0  0
    3.6900    0.1600    0.0000 C   0  0  0  0  0  0  0  0  0  0  0  0
    3.2200   -1.2700    0.0000 C   0  0  0  0  0  0  0  0  0  0  0  0
   -8.1625   -2.8657    0.0000 C   0  0  0  0  0  0  0  0  0  0  0  0
  -10.0918   -1.1229    0.0000 C   0  0  0  0  0  0  0  0  0  0  0  0
    2.6800    1.2700    0.0000 C   0  0  0  0  0  0  0  0  0  0  0  0
    1.7500   -1.5800    0.0000 C   0  0  0  0  0  0  0  0  0  0  0  0
   -3.2200   -1.2700    0.0000 C   0  0  0  0  0  0  0  0  0  0  0  0
   -1.7500   -1.5800    0.0000 C   0  0  0  0  0  0  0  0  0  0  0  0
   -2.6800    1.2700    0.0000 C   0  0  0  0  0  0  0  0  0  0  0  0
   -0.0000    1.8400    0.0000 C   0  0  0  0  0  0  0  0  0  0  0  0
   -5.1467    0.4742    0.0000 C   0  0  0  0  0  0  0  0  0  0  0  0
   -3.6800    0.1600    0.0000 C   0  0  0  0  0  0  0  0  0  0  0  0
   -8.6244   -1.4378    0.0000 C   0  0  0  0  0  0  0  0  0  0  0  0
    1.2100    0.9600    0.0000 C   0  0  0  0  0  0  0  0  0  0  0  0
   -1.2100    0.9600    0.0000 C   0  0  0  0  0  0  0  0  0  0  0  0
    0.7500   -0.4700    0.0000 C   0  0  0  0  0  0  0  0  0  0  0  0
   -0.7500   -0.4700    0.0000 C   0  0  0  0  0  0  0  0  0  0  0  0
   -7.6189   -0.3247    0.0000 C   0  0  0  0  0  0  0  0  0  0  0  0
   -8.0802    1.1027    0.0000 O   0  0  0  0  0  0  0  0  0  0  0  0
   -6.1522   -0.6389    0.0000 O   0  0  0  0  0  0  0  0  0  0  0  0
  2  1  2  0
  3  1  1  0
  5  4  2  0
  6  2  1  0
  7  3  2  0
  8  4  1  0
  9  5  1  0
 11 10  1  0
 15 10  2  0
 15 12  1  0
 15 14  1  0
 16  6  2  0
 16  7  1  0
 17  8  2  0
 17 13  1  0
 18 12  2  0
 18 13  1  0
 19  9  2  0
 19 17  1  0
 20 11  2  0
 20 18  1  0
 20 19  1  0
 21 16  1  0
 22 21  2  0
 23 14  1  0
 23 21  1  0
M  END
>  <NAME>  (701) 
2-FLUORENYLMETHYL BENZOATE

>  <SYNONYMS>  (701) 


>  <SPECTRUM TYPE>  (701) 
MS1

>  <INSTRUMENT TYPE>  (701) 
EI-B

>  <INSTRUMENT>  (701) 
JEOL JMS-DX-300

>  <ION MODE>  (701) 
P

>  <INCHIKEY>  (701) 
LQPJXAWZOHNCKS-UHFFFAOYSA-N

>  <FORMULA>  (701) 
C21H16O2

>  <EXACT MASS>  (701) 
300.115029752

>  <MW>  (701) 
300

>  <ID>  (701) 
JP011129

>  <CONTRIBUTOR>  (701) 
University of Tokyo Team, {Faculty of Engineering, University of Tokyo

>  <COMMENT>  (701) 
SMILES=O=C(OCc(c4)cc(C2)c(c4)c(c3)c(ccc3)2)c(c1)cccc1
InChI=InChI=1S/C21H16O2/c22-21(16-6-2-1-3-7-16)23-14-15-10-11-20-18(12-15)13-17-8-4-5-9-19(17)20/h1-12H,13-14H2
computed SMILES=O=C(OCC1=CC=C2C=3C=CC=CC3CC2=C1)C=4C=CC=CC4
accession=JP011129
date=2016.01.19 (Created 2008.10.21, modified 2011.05.06)
author=SAWADA M, THE INST. OF SCIENTIFIC AND INDUSTRIALRESEARCH OSAKA UNIV.
license=CC BY-NC-SA
exact mass=300.11503
ionization energy=70 eV
ion type=[M]+*
computed spectral entropy=3.1110624492625525
computed normalized entropy=0.7728672395068117
SPLASH=splash10-004i-3901000000-2c91236c03c94768682c
submitter=submitter = University of Tokyo Team (Faculty of Engineering, University of Tokyo)
MoNA Rating=3.75

>  <NUM PEAKS>  (701) 
56

>  <MASS SPECTRAL PEAKS>  (701) 
27 2.9
29 5.8
39 4.2
40 8.9
41 3.6
43 3.8
44 19.3
45 1.6
50 6.9
51 21.8
52 2.2
55 2.4
57 2.7
63 3.3
65 1.6
69 2.2
71 1.3
74 2.7
75 2.9
76 4.9
77 50.4
78 6.2
87 1.5
88 1.6
89 3.3
105 77.6
106 8.4
113 1.5
115 4.4
122 4.4
126 1.3
127 1.4
128 2.2
139 5.3
141 2.2
149 1.8
150 4.2
151 6.4
152 16.9
153 2.4
163 7.1
164 6.4
165 37.8
166 12.9
167 13.6
168 1.6
176 11.3
177 11.3
178 98.9
179 99.99
180 17.1
181 1.3
194 6
195 3.3
300 76.2
301 2.2

$$$$

     RDKit          2D

 20 22  0  0  0  0  0  0  0  0999 V2000
    6.3762    7.2300    0.0000 C   0  0  0  0  0  0  0  0  0  0  0  0
    5.0766    7.9808    0.0000 C   0  0  0  0  0  0  0  0  0  0  0  0
    6.3766    5.7292    0.0000 C   0  0  0  0  0  0  0  0  0  0  0  0
   -2.7200   -1.0200    0.0000 C   0  0  0  0  0  0  0  0  0  0  0  0
   -2.7200    0.4800    0.0000 C   0  0  0  0  0  0  0  0  0  0  0  0
    2.4800   -1.0200    0.0000 C   0  0  0  0  0  0  0  0  0  0  0  0
   -1.4200   -1.7700    0.0000 C   0  0  0  0  0  0  0  0  0  0  0  0
    3.7776    7.2308    0.0000 C   0  0  0  0  0  0  0  0  0  0  0  0
    5.0776    4.9792    0.0000 C   0  0  0  0  0  0  0  0  0  0  0  0
    1.1800   -1.7700    0.0000 C   0  0  0  0  0  0  0  0  0  0  0  0
    2.4800    0.4800    0.0000 C   0  0  0  0  0  0  0  0  0  0  0  0
   -1.4200    1.2300    0.0000 C   0  0  0  0  0  0  0  0  0  0  0  0
    1.1800    2.7300    0.0000 C   0  0  0  0  0  0  0  0  0  0  0  0
   -0.1200   -1.0200    0.0000 C   0  0  0  0  0  0  0  0  0  0  0  0
    3.7781    5.7300    0.0000 C   0  0  0  0  0  0  0  0  0  0  0  0
    1.1800    1.2300    0.0000 C   0  0  0  0  0  0  0  0  0  0  0  0
   -0.1200    0.4800    0.0000 C   0  0  0  0  0  0  0  0  0  0  0  0
    2.4790    4.9800    0.0000 C   0  0  0  0  0  0  0  0  0  0  0  0
    1.1800    5.7300    0.0000 O   0  0  0  0  0  0  0  0  0  0  0  0
    2.4790    3.4800    0.0000 O   0  0  0  0  0  0  0  0  0  0  0  0
  2  1  2  0
  3  1  1  0
  5  4  2  0
  7  4  1  0
  8  2  1  0
  9  3  2  0
 10  6  2  0
 11  6  1  0
 12  5  1  0
 14  7  2  0
 14 10  1  0
 15  8  2  0
 15  9  1  0
 16 11  2  0
 16 13  1  0
 17 12  2  0
 17 14  1  0
 17 16  1  0
 18 15  1  0
 19 18  2  0
 20 13  1  0
 20 18  1  0
M  END
>  <NAME>  (702) 
1-NAPHTHYLMETHYL BENZOATE

>  <SYNONYMS>  (702) 


>  <SPECTRUM TYPE>  (702) 
MS1

>  <INSTRUMENT TYPE>  (702) 
EI-B

>  <INSTRUMENT>  (702) 
JEOL JMS-DX-300

>  <ION MODE>  (702) 
P

>  <INCHIKEY>  (702) 
GTIYNZXGIAGLFB-UHFFFAOYSA-N

>  <FORMULA>  (702) 
C18H14O2

>  <EXACT MASS>  (702) 
262.099379688

>  <MW>  (702) 
262

>  <ID>  (702) 
JP011128

>  <CONTRIBUTOR>  (702) 
University of Tokyo Team, {Faculty of Engineering, University of Tokyo

>  <COMMENT>  (702) 
SMILES=O=C(OCc(c2)c(c3)c(ccc3)cc2)c(c1)cccc1
InChI=InChI=1S/C18H14O2/c19-18(15-8-2-1-3-9-15)20-13-16-11-6-10-14-7-4-5-12-17(14)16/h1-12H,13H2
computed SMILES=O=C(OCC1=CC=CC=2C=CC=CC21)C=3C=CC=CC3
accession=JP011128
date=2016.01.19 (Created 2008.10.21, modified 2011.05.06)
author=SAWADA M, THE INST. OF SCIENTIFIC AND INDUSTRIALRESEARCH OSAKA UNIV.
license=CC BY-NC-SA
exact mass=262.09938
ionization energy=70 eV
ion type=[M]+*
computed spectral entropy=2.8804642533913167
computed normalized entropy=0.7658364789931316
SPLASH=splash10-0a6u-2910000000-ee96218db4dd3b39d8c9
submitter=submitter = University of Tokyo Team (Faculty of Engineering, University of Tokyo)
MoNA Rating=3.75

>  <NUM PEAKS>  (702) 
43

>  <MASS SPECTRAL PEAKS>  (702) 
27 1.7
29 2.4
39 3.7
40 4.8
44 3.2
50 6
51 18.3
52 1.7
62 1
63 4.2
65 1.8
74 2.2
75 3.2
76 3.3
77 38.2
78 4
87 1.2
89 3
91 1.1
101 1.7
102 2
105 99.99
106 8.4
113 1.7
114 1.3
115 31.5
116 3
122 1.1
126 3.1
127 12.3
128 11.5
129 8.4
139 17.2
140 25.4
141 69.4
142 9.2
155 2
156 3.7
157 4.4
217 1.3
262 49
263 9.4
264 1

$$$$

     RDKit          2D

 20 22  0  0  0  0  0  0  0  0999 V2000
   10.0345   -0.8888    0.0000 C   0  0  0  0  0  0  0  0  0  0  0  0
   10.0347    0.6121    0.0000 C   0  0  0  0  0  0  0  0  0  0  0  0
    8.7351   -1.6398    0.0000 C   0  0  0  0  0  0  0  0  0  0  0  0
   -2.9500   -0.8900    0.0000 C   0  0  0  0  0  0  0  0  0  0  0  0
   -2.9500    0.6100    0.0000 C   0  0  0  0  0  0  0  0  0  0  0  0
   -1.6500   -1.6400    0.0000 C   0  0  0  0  0  0  0  0  0  0  0  0
    8.7356    1.3619    0.0000 C   0  0  0  0  0  0  0  0  0  0  0  0
    7.4359   -0.8900    0.0000 C   0  0  0  0  0  0  0  0  0  0  0  0
   -1.6500    1.3600    0.0000 C   0  0  0  0  0  0  0  0  0  0  0  0
    2.2400   -0.8900    0.0000 C   0  0  0  0  0  0  0  0  0  0  0  0
    0.9400   -1.6400    0.0000 C   0  0  0  0  0  0  0  0  0  0  0  0
    0.9400    1.3600    0.0000 C   0  0  0  0  0  0  0  0  0  0  0  0
    3.5389    1.3602    0.0000 C   0  0  0  0  0  0  0  0  0  0  0  0
    2.2400    0.6100    0.0000 C   0  0  0  0  0  0  0  0  0  0  0  0
   -0.3500   -0.8900    0.0000 C   0  0  0  0  0  0  0  0  0  0  0  0
    7.4362    0.6108    0.0000 C   0  0  0  0  0  0  0  0  0  0  0  0
   -0.3500    0.6100    0.0000 C   0  0  0  0  0  0  0  0  0  0  0  0
    6.1370    1.3606    0.0000 C   0  0  0  0  0  0  0  0  0  0  0  0
    6.1368    2.8606    0.0000 O   0  0  0  0  0  0  0  0  0  0  0  0
    4.8381    0.6104    0.0000 O   0  0  0  0  0  0  0  0  0  0  0  0
  2  1  2  0
  3  1  1  0
  5  4  2  0
  6  4  1  0
  7  2  1  0
  8  3  2  0
  9  5  1  0
 11 10  2  0
 14 10  1  0
 14 12  2  0
 14 13  1  0
 15  6  2  0
 15 11  1  0
 16  7  2  0
 16  8  1  0
 17  9  2  0
 17 12  1  0
 17 15  1  0
 18 16  1  0
 19 18  2  0
 20 13  1  0
 20 18  1  0
M  END
>  <NAME>  (703) 
2-NAPHTHYLMETHYL BENZOATE

>  <SYNONYMS>  (703) 


>  <SPECTRUM TYPE>  (703) 
MS1

>  <INSTRUMENT TYPE>  (703) 
EI-B

>  <INSTRUMENT>  (703) 
JEOL JMS-DX-300

>  <ION MODE>  (703) 
P

>  <INCHIKEY>  (703) 
PLGZVZHAMUXIRR-UHFFFAOYSA-N

>  <FORMULA>  (703) 
C18H14O2

>  <EXACT MASS>  (703) 
262.099379688

>  <MW>  (703) 
262

>  <ID>  (703) 
JP011127

>  <CONTRIBUTOR>  (703) 
University of Tokyo Team, {Faculty of Engineering, University of Tokyo

>  <COMMENT>  (703) 
SMILES=O=C(OCc(c2)cc(c3)c(ccc3)c2)c(c1)cccc1
InChI=InChI=1S/C18H14O2/c19-18(16-7-2-1-3-8-16)20-13-14-10-11-15-6-4-5-9-17(15)12-14/h1-12H,13H2
computed SMILES=O=C(OCC=1C=CC=2C=CC=CC2C1)C=3C=CC=CC3
accession=JP011127
date=2016.01.19 (Created 2008.10.21, modified 2011.05.06)
author=SAWADA M, THE INST. OF SCIENTIFIC AND INDUSTRIALRESEARCH OSAKA UNIV.
license=CC BY-NC-SA
exact mass=262.09938
ionization energy=70 eV
ion type=[M]+*
computed spectral entropy=2.8621985755557673
computed normalized entropy=0.7758991886719875
SPLASH=splash10-0a4l-3910000000-86ac1d13d4b520d823b3
submitter=submitter = University of Tokyo Team (Faculty of Engineering, University of Tokyo)
MoNA Rating=3.75

>  <NUM PEAKS>  (703) 
40

>  <MASS SPECTRAL PEAKS>  (703) 
27 1.4
29 3.7
39 3.1
40 5.6
44 4.8
50 5.5
51 16.4
52 1.5
62 1
63 3.4
65 1.6
74 1.8
75 2.8
76 2.7
77 33.4
78 4.2
89 2.5
91 1.2
101 1.2
102 1.5
105 99.99
106 8.4
113 1.3
114 1
115 24.6
116 2.5
122 1.7
126 2.8
127 13.3
128 7.6
129 7.5
139 12.3
140 12.9
141 42.9
142 6.2
155 3
156 3
157 3
262 29.9
263 5.9

$$$$

     RDKit          2D

 19 20  0  0  0  0  0  0  0  0999 V2000
   -4.8717   -0.2422    0.0000 C   0  0  0  0  0  0  0  0  0  0  0  0
   -3.5724    0.5074    0.0000 C   0  0  0  0  0  0  0  0  0  0  0  0
    2.9237    2.7578    0.0000 C   0  0  0  0  0  0  0  0  0  0  0  0
    2.9242    4.2586    0.0000 C   0  0  0  0  0  0  0  0  0  0  0  0
    1.6242    2.0070    0.0000 C   0  0  0  0  0  0  0  0  0  0  0  0
   -7.4705    4.2582    0.0000 C   0  0  0  0  0  0  0  0  0  0  0  0
   -7.4707    2.7582    0.0000 C   0  0  0  0  0  0  0  0  0  0  0  0
    1.6252    5.0086    0.0000 C   0  0  0  0  0  0  0  0  0  0  0  0
    0.3252    2.7570    0.0000 C   0  0  0  0  0  0  0  0  0  0  0  0
   -6.1704    5.0080    0.0000 C   0  0  0  0  0  0  0  0  0  0  0  0
   -6.1709    2.0080    0.0000 C   0  0  0  0  0  0  0  0  0  0  0  0
   -3.5715    5.0078    0.0000 C   0  0  0  0  0  0  0  0  0  0  0  0
    0.3257    4.2578    0.0000 C   0  0  0  0  0  0  0  0  0  0  0  0
   -4.8705    4.2578    0.0000 C   0  0  0  0  0  0  0  0  0  0  0  0
   -4.8707    2.7578    0.0000 C   0  0  0  0  0  0  0  0  0  0  0  0
   -0.9734    5.0078    0.0000 C   0  0  0  0  0  0  0  0  0  0  0  0
   -0.9734    6.5078    0.0000 O   0  0  0  0  0  0  0  0  0  0  0  0
   -3.5719    2.0074    0.0000 O   0  0  0  0  0  0  0  0  0  0  0  0
   -2.2724    4.2578    0.0000 O   0  0  0  0  0  0  0  0  0  0  0  0
  2  1  1  0
  4  3  2  0
  5  3  1  0
  7  6  2  0
  8  4  1  0
  9  5  2  0
 10  6  1  0
 11  7  1  0
 13  8  2  0
 13  9  1  0
 14 10  2  0
 14 12  1  0
 15 11  2  0
 15 14  1  0
 16 13  1  0
 17 16  2  0
 18  2  1  0
 18 15  1  0
 19 12  1  0
 19 16  1  0
M  END
>  <NAME>  (704) 
2-ETHOXYBENZYL BENZOATE

>  <SYNONYMS>  (704) 


>  <SPECTRUM TYPE>  (704) 
MS1

>  <INSTRUMENT TYPE>  (704) 
EI-B

>  <INSTRUMENT>  (704) 
JEOL JMS-DX-300

>  <ION MODE>  (704) 
P

>  <INCHIKEY>  (704) 
KSHGBOHKBAUECJ-UHFFFAOYSA-N

>  <FORMULA>  (704) 
C16H16O3

>  <EXACT MASS>  (704) 
256.109944372

>  <MW>  (704) 
256

>  <ID>  (704) 
JP011126

>  <CONTRIBUTOR>  (704) 
University of Tokyo Team, {Faculty of Engineering, University of Tokyo

>  <COMMENT>  (704) 
SMILES=CCOc(c2)c(ccc2)COC(=O)c(c1)cccc1
InChI=InChI=1S/C16H16O3/c1-2-18-15-11-7-6-10-14(15)12-19-16(17)13-8-4-3-5-9-13/h3-11H,2,12H2,1H3
computed SMILES=O=C(OCC=1C=CC=CC1OCC)C=2C=CC=CC2
accession=JP011126
date=2016.01.19 (Created 2008.10.21, modified 2011.05.06)
author=SAWADA M, THE INST. OF SCIENTIFIC AND INDUSTRIALRESEARCH OSAKA UNIV.
license=CC BY-NC-SA
exact mass=256.10994
ionization energy=70 eV
ion type=[M]+*
computed spectral entropy=3.189271753565688
computed normalized entropy=0.8032839456160605
SPLASH=splash10-056r-9500000000-ab664e4ca3f985dc9a12
submitter=submitter = University of Tokyo Team (Faculty of Engineering, University of Tokyo)
MoNA Rating=3.75

>  <NUM PEAKS>  (704) 
53

>  <MASS SPECTRAL PEAKS>  (704) 
26 2
27 11.1
29 25.5
38 1
39 7
40 1.9
41 2
43 3.8
44 7.4
45 2.7
50 7.6
51 30.8
52 7.8
53 4.1
55 2.2
57 1.7
63 3.8
64 1.9
65 9.3
66 2.8
67 1.2
74 1.8
75 2
76 5.8
77 99.99
78 56.5
79 16.8
80 1
89 3.9
90 2.8
91 25.5
92 3
93 1.9
94 2
95 6.2
104 1.5
105 57.8
106 13.9
107 26
108 3
117 1.2
119 3.2
121 5.2
122 6.5
123 12
133 2.8
134 3.1
135 13.4
136 1.6
151 59.2
152 6.5
256 22
257 3.7

$$$$

     RDKit          2D

 17 18  0  0  0  0  0  0  0  0999 V2000
   -7.1501    3.6846    0.0000 C   0  0  0  0  0  0  0  0  0  0  0  0
   -7.1506    2.1837    0.0000 C   0  0  0  0  0  0  0  0  0  0  0  0
   -5.8506    4.4354    0.0000 C   0  0  0  0  0  0  0  0  0  0  0  0
    3.2390    2.1937    0.0000 C   0  0  0  0  0  0  0  0  0  0  0  0
    3.2472    3.6960    0.0000 C   0  0  0  0  0  0  0  0  0  0  0  0
   -5.8516    1.4337    0.0000 C   0  0  0  0  0  0  0  0  0  0  0  0
   -4.5516    3.6854    0.0000 C   0  0  0  0  0  0  0  0  0  0  0  0
    1.9469    1.4319    0.0000 C   0  0  0  0  0  0  0  0  0  0  0  0
    1.9358    4.4436    0.0000 C   0  0  0  0  0  0  0  0  0  0  0  0
   -0.6549    1.4346    0.0000 C   0  0  0  0  0  0  0  0  0  0  0  0
   -4.5521    2.1846    0.0000 C   0  0  0  0  0  0  0  0  0  0  0  0
    0.6441    2.1846    0.0000 C   0  0  0  0  0  0  0  0  0  0  0  0
    0.6436    3.6818    0.0000 C   0  0  0  0  0  0  0  0  0  0  0  0
   -3.2530    1.4346    0.0000 C   0  0  0  0  0  0  0  0  0  0  0  0
   -0.6589    4.4257    0.0000 Cl  0  0  0  0  0  0  0  0  0  0  0  0
   -3.2530   -0.0654    0.0000 O   0  0  0  0  0  0  0  0  0  0  0  0
   -1.9540    2.1846    0.0000 O   0  0  0  0  0  0  0  0  0  0  0  0
  2  1  2  0
  3  1  1  0
  5  4  2  0
  6  2  1  0
  7  3  2  0
  8  4  1  0
  9  5  1  0
 11  6  2  0
 11  7  1  0
 12  8  2  0
 12 10  1  0
 13  9  2  0
 13 12  1  0
 14 11  1  0
 15 13  1  0
 16 14  2  0
 17 10  1  0
 17 14  1  0
M  END
>  <NAME>  (705) 
2-CHLOROBENZYL BENZOATE

>  <SYNONYMS>  (705) 


>  <SPECTRUM TYPE>  (705) 
MS1

>  <INSTRUMENT TYPE>  (705) 
EI-B

>  <INSTRUMENT>  (705) 
JEOL JMS-DX-300

>  <ION MODE>  (705) 
P

>  <INCHIKEY>  (705) 
GTNDJMMELYTFKN-UHFFFAOYSA-N

>  <FORMULA>  (705) 
C14H11ClO2

>  <EXACT MASS>  (705) 
246.044757272

>  <MW>  (705) 
246

>  <ID>  (705) 
JP011125

>  <CONTRIBUTOR>  (705) 
University of Tokyo Team, {Faculty of Engineering, University of Tokyo

>  <COMMENT>  (705) 
SMILES=O=C(OCc(c2)c(Cl)ccc2)c(c1)cccc1
InChI=InChI=1S/C14H11ClO2/c15-13-9-5-4-8-12(13)10-17-14(16)11-6-2-1-3-7-11/h1-9H,10H2
computed SMILES=O=C(OCC=1C=CC=CC1Cl)C=2C=CC=CC2
accession=JP011125
date=2016.01.19 (Created 2008.10.21, modified 2011.05.06)
author=SAWADA M, THE INST. OF SCIENTIFIC AND INDUSTRIALRESEARCH OSAKA UNIV.
license=CC BY-NC-SA
exact mass=246.04476
ionization energy=70 eV
ion type=[M]+*
computed spectral entropy=2.9268780205310185
computed normalized entropy=0.7481750532831262
SPLASH=splash10-06vi-9720000000-3ae566990eb18f8021f6
submitter=submitter = University of Tokyo Team (Faculty of Engineering, University of Tokyo)
MoNA Rating=3.75

>  <NUM PEAKS>  (705) 
50

>  <MASS SPECTRAL PEAKS>  (705) 
27 2.9
29 2.3
36 1.8
38 1.8
39 6.8
40 1
41 1
43 1.1
44 4.8
45 1.7
50 12.3
51 37.5
52 3.1
57 1
62 2.4
63 9.8
64 2.2
65 2.2
73 1.9
74 3.2
75 7.2
76 5.9
77 74.9
78 8.8
89 22.8
90 5.8
91 2.8
99 5
101 1.5
105 99.99
106 9.3
111 4.3
112 1.1
113 3.8
124 1.4
125 38.1
126 3.4
127 11.9
139 3.2
141 5.8
143 1.5
165 1.5
166 1.1
167 2.5
193 1.7
201 2.2
211 62.6
212 9.9
213 1
246 2.2

$$$$

     RDKit          2D

 24 27  0  0  0  0  0  0  0  0999 V2000
  -11.2245   -0.0512    0.0000 C   0  0  0  0  0  0  0  0  0  0  0  0
  -11.2247   -1.5521    0.0000 C   0  0  0  0  0  0  0  0  0  0  0  0
   -9.9251    0.6998    0.0000 C   0  0  0  0  0  0  0  0  0  0  0  0
    3.0600    2.2000    0.0000 C   0  0  0  0  0  0  0  0  0  0  0  0
    1.7600    2.9500    0.0000 C   0  0  0  0  0  0  0  0  0  0  0  0
    3.0600    0.7000    0.0000 C   0  0  0  0  0  0  0  0  0  0  0  0
   -9.9256   -2.3019    0.0000 C   0  0  0  0  0  0  0  0  0  0  0  0
   -8.6259   -0.0500    0.0000 C   0  0  0  0  0  0  0  0  0  0  0  0
    0.4600    2.2000    0.0000 C   0  0  0  0  0  0  0  0  0  0  0  0
   -3.4300   -0.0500    0.0000 C   0  0  0  0  0  0  0  0  0  0  0  0
    1.7600   -1.5500    0.0000 C   0  0  0  0  0  0  0  0  0  0  0  0
    0.4600   -2.3000    0.0000 C   0  0  0  0  0  0  0  0  0  0  0  0
   -2.1300    0.7000    0.0000 C   0  0  0  0  0  0  0  0  0  0  0  0
   -2.1300   -2.3000    0.0000 C   0  0  0  0  0  0  0  0  0  0  0  0
   -4.7289   -2.3002    0.0000 C   0  0  0  0  0  0  0  0  0  0  0  0
   -3.4300   -1.5500    0.0000 C   0  0  0  0  0  0  0  0  0  0  0  0
    1.7600   -0.0500    0.0000 C   0  0  0  0  0  0  0  0  0  0  0  0
   -8.6262   -1.5508    0.0000 C   0  0  0  0  0  0  0  0  0  0  0  0
   -0.8300   -1.5500    0.0000 C   0  0  0  0  0  0  0  0  0  0  0  0
    0.4600    0.7000    0.0000 C   0  0  0  0  0  0  0  0  0  0  0  0
   -0.8300   -0.0500    0.0000 C   0  0  0  0  0  0  0  0  0  0  0  0
   -7.3270   -2.3006    0.0000 C   0  0  0  0  0  0  0  0  0  0  0  0
   -7.3268   -3.8006    0.0000 O   0  0  0  0  0  0  0  0  0  0  0  0
   -6.0281   -1.5504    0.0000 O   0  0  0  0  0  0  0  0  0  0  0  0
  2  1  2  0
  3  1  1  0
  5  4  2  0
  6  4  1  0
  7  2  1  0
  8  3  2  0
  9  5  1  0
 12 11  2  0
 13 10  1  0
 16 10  2  0
 16 14  1  0
 16 15  1  0
 17  6  2  0
 17 11  1  0
 18  7  2  0
 18  8  1  0
 19 12  1  0
 19 14  2  0
 20  9  2  0
 20 17  1  0
 21 13  2  0
 21 19  1  0
 21 20  1  0
 22 18  1  0
 23 22  2  0
 24 15  1  0
 24 22  1  0
M  END
>  <NAME>  (706) 
2-PHENANTHRYLMETHYL BENZOATE

>  <SYNONYMS>  (706) 


>  <SPECTRUM TYPE>  (706) 
MS1

>  <INSTRUMENT TYPE>  (706) 
EI-B

>  <INSTRUMENT>  (706) 
JEOL JMS-DX-300

>  <ION MODE>  (706) 
P

>  <INCHIKEY>  (706) 
TZUZYSURWJLIHM-UHFFFAOYSA-N

>  <FORMULA>  (706) 
C22H16O2

>  <EXACT MASS>  (706) 
312.115029752

>  <MW>  (706) 
312

>  <ID>  (706) 
JP011124

>  <CONTRIBUTOR>  (706) 
University of Tokyo Team, {Faculty of Engineering, University of Tokyo

>  <COMMENT>  (706) 
SMILES=O=C(OCc(c4)cc(c2)c(c4)c(c3)c(ccc3)c2)c(c1)cccc1
InChI=InChI=1S/C22H16O2/c23-22(18-7-2-1-3-8-18)24-15-16-10-13-21-19(14-16)12-11-17-6-4-5-9-20(17)21/h1-14H,15H2
computed SMILES=O=C(OCC=1C=CC2=C(C=CC=3C=CC=CC32)C1)C=4C=CC=CC4
accession=JP011124
date=2016.01.19 (Created 2008.10.21, modified 2011.05.06)
author=SAWADA M, THE INST. OF SCIENTIFIC AND INDUSTRIALRESEARCH OSAKA UNIV.
license=CC BY-NC-SA
exact mass=312.11503
ionization energy=70 eV
ion type=[M]+*
computed spectral entropy=2.99256508583455
computed normalized entropy=0.8006499748388599
SPLASH=splash10-0a4l-3901000000-990199b33eebe4cc6ba1
submitter=submitter = University of Tokyo Team (Faculty of Engineering, University of Tokyo)
MoNA Rating=3.75

>  <NUM PEAKS>  (706) 
42

>  <MASS SPECTRAL PEAKS>  (706) 
27 1.8
29 7.3
39 2
40 15.2
41 4.2
43 4.4
44 8.6
50 2.2
51 8.2
55 3.3
57 3.1
69 2.9
71 1.8
77 24.7
78 2.6
105 99.99
106 8.4
122 1.8
139 1.3
149 1.5
150 1.8
151 3.8
152 2.6
163 2.2
164 1.3
165 6.6
176 7.7
177 7.7
178 7.8
179 12.8
180 1.5
187 2.2
188 2.2
189 34.9
190 17.7
191 40.4
192 9.3
205 2.2
206 8.4
207 4.2
312 40.9
313 9.9

$$$$

     RDKit          2D

 24 27  0  0  0  0  0  0  0  0999 V2000
  -11.2245   -1.5488    0.0000 C   0  0  0  0  0  0  0  0  0  0  0  0
   -9.9251   -2.2998    0.0000 C   0  0  0  0  0  0  0  0  0  0  0  0
  -11.2247   -0.0479    0.0000 C   0  0  0  0  0  0  0  0  0  0  0  0
    3.0600    2.2000    0.0000 C   0  0  0  0  0  0  0  0  0  0  0  0
    1.7600    2.9500    0.0000 C   0  0  0  0  0  0  0  0  0  0  0  0
    3.0600    0.7000    0.0000 C   0  0  0  0  0  0  0  0  0  0  0  0
   -8.6259   -1.5500    0.0000 C   0  0  0  0  0  0  0  0  0  0  0  0
   -9.9256    0.7019    0.0000 C   0  0  0  0  0  0  0  0  0  0  0  0
    0.4600    2.2000    0.0000 C   0  0  0  0  0  0  0  0  0  0  0  0
   -3.4300   -1.5500    0.0000 C   0  0  0  0  0  0  0  0  0  0  0  0
   -2.1300   -2.3000    0.0000 C   0  0  0  0  0  0  0  0  0  0  0  0
    1.7600   -1.5500    0.0000 C   0  0  0  0  0  0  0  0  0  0  0  0
    0.4600   -2.3000    0.0000 C   0  0  0  0  0  0  0  0  0  0  0  0
   -2.1300    0.7000    0.0000 C   0  0  0  0  0  0  0  0  0  0  0  0
   -4.7289    0.7002    0.0000 C   0  0  0  0  0  0  0  0  0  0  0  0
   -3.4300   -0.0500    0.0000 C   0  0  0  0  0  0  0  0  0  0  0  0
    1.7600   -0.0500    0.0000 C   0  0  0  0  0  0  0  0  0  0  0  0
   -0.8300   -1.5500    0.0000 C   0  0  0  0  0  0  0  0  0  0  0  0
   -8.6262   -0.0492    0.0000 C   0  0  0  0  0  0  0  0  0  0  0  0
    0.4600    0.7000    0.0000 C   0  0  0  0  0  0  0  0  0  0  0  0
   -0.8300   -0.0500    0.0000 C   0  0  0  0  0  0  0  0  0  0  0  0
   -7.3270    0.7006    0.0000 C   0  0  0  0  0  0  0  0  0  0  0  0
   -7.3268    2.2006    0.0000 O   0  0  0  0  0  0  0  0  0  0  0  0
   -6.0281   -0.0496    0.0000 O   0  0  0  0  0  0  0  0  0  0  0  0
  2  1  2  0
  3  1  1  0
  5  4  2  0
  6  4  1  0
  7  2  1  0
  8  3  2  0
  9  5  1  0
 11 10  1  0
 13 12  2  0
 16 10  2  0
 16 14  1  0
 16 15  1  0
 17  6  2  0
 17 12  1  0
 18 11  2  0
 18 13  1  0
 19  7  2  0
 19  8  1  0
 20  9  2  0
 20 17  1  0
 21 14  2  0
 21 18  1  0
 21 20  1  0
 22 19  1  0
 23 22  2  0
 24 15  1  0
 24 22  1  0
M  END
>  <NAME>  (707) 
3-PHENANTHRYLMETHYL BENZOATE

>  <SYNONYMS>  (707) 


>  <SPECTRUM TYPE>  (707) 
MS1

>  <INSTRUMENT TYPE>  (707) 
EI-B

>  <INSTRUMENT>  (707) 
JEOL JMS-DX-300

>  <ION MODE>  (707) 
P

>  <INCHIKEY>  (707) 
XAFQMORPGNCYES-UHFFFAOYSA-N

>  <FORMULA>  (707) 
C22H16O2

>  <EXACT MASS>  (707) 
312.115029752

>  <MW>  (707) 
312

>  <ID>  (707) 
JP011123

>  <CONTRIBUTOR>  (707) 
University of Tokyo Team, {Faculty of Engineering, University of Tokyo

>  <COMMENT>  (707) 
SMILES=O=C(OCc(c4)cc(c(c4)2)c(c3)c(ccc3)cc2)c(c1)cccc1
InChI=InChI=1S/C22H16O2/c23-22(19-7-2-1-3-8-19)24-15-16-10-11-18-13-12-17-6-4-5-9-20(17)21(18)14-16/h1-14H,15H2
computed SMILES=O=C(OCC=1C=CC=2C=CC=3C=CC=CC3C2C1)C=4C=CC=CC4
accession=JP011123
date=2016.01.19 (Created 2008.10.21, modified 2011.05.06)
author=SAWADA M, THE INST. OF SCIENTIFIC AND INDUSTRIALRESEARCH OSAKA UNIV.
license=CC BY-NC-SA
exact mass=312.11503
ionization energy=70 eV
ion type=[M]+*
computed spectral entropy=2.9212546207551413
computed normalized entropy=0.7973810468949767
SPLASH=splash10-0btc-2901000000-0012264e52b2513ee153
submitter=submitter = University of Tokyo Team (Faculty of Engineering, University of Tokyo)
MoNA Rating=3.75

>  <NUM PEAKS>  (707) 
39

>  <MASS SPECTRAL PEAKS>  (707) 
27 1.5
29 6.2
39 1.5
40 13
41 3.3
43 3.7
44 7.9
50 2.6
51 8.6
55 2.6
57 2.6
69 2.6
77 24.4
78 2.6
105 99.99
106 9
122 2.2
149 1.8
150 2
151 3.7
152 2.9
163 2.6
165 5.9
176 7.5
177 7.7
178 8.6
179 12.1
180 1.8
187 2.4
188 2.4
189 40
190 21.8
191 47.7
192 11
205 2.2
206 9
207 3.5
312 50.1
313 12.1

$$$$

     RDKit          2D

 24 27  0  0  0  0  0  0  0  0999 V2000
    5.6461   -8.3087    0.0000 C   0  0  0  0  0  0  0  0  0  0  0  0
    5.6491   -6.8079    0.0000 C   0  0  0  0  0  0  0  0  0  0  0  0
    4.3453   -9.0573    0.0000 C   0  0  0  0  0  0  0  0  0  0  0  0
    3.0600    2.2000    0.0000 C   0  0  0  0  0  0  0  0  0  0  0  0
    1.7600    2.9500    0.0000 C   0  0  0  0  0  0  0  0  0  0  0  0
   -3.4300   -1.5500    0.0000 C   0  0  0  0  0  0  0  0  0  0  0  0
   -3.4300   -0.0500    0.0000 C   0  0  0  0  0  0  0  0  0  0  0  0
    4.3513   -6.0557    0.0000 C   0  0  0  0  0  0  0  0  0  0  0  0
    3.0475   -8.3052    0.0000 C   0  0  0  0  0  0  0  0  0  0  0  0
    3.0600    0.7000    0.0000 C   0  0  0  0  0  0  0  0  0  0  0  0
    0.4600    2.2000    0.0000 C   0  0  0  0  0  0  0  0  0  0  0  0
   -2.1300   -2.3000    0.0000 C   0  0  0  0  0  0  0  0  0  0  0  0
   -2.1300    0.7000    0.0000 C   0  0  0  0  0  0  0  0  0  0  0  0
    1.7600   -1.5500    0.0000 C   0  0  0  0  0  0  0  0  0  0  0  0
    0.4575   -3.8000    0.0000 C   0  0  0  0  0  0  0  0  0  0  0  0
    3.0505   -6.8043    0.0000 C   0  0  0  0  0  0  0  0  0  0  0  0
    1.7600   -0.0500    0.0000 C   0  0  0  0  0  0  0  0  0  0  0  0
    0.4600   -2.3000    0.0000 C   0  0  0  0  0  0  0  0  0  0  0  0
    0.4600    0.7000    0.0000 C   0  0  0  0  0  0  0  0  0  0  0  0
   -0.8300   -1.5500    0.0000 C   0  0  0  0  0  0  0  0  0  0  0  0
   -0.8300   -0.0500    0.0000 C   0  0  0  0  0  0  0  0  0  0  0  0
    1.7528   -6.0522    0.0000 C   0  0  0  0  0  0  0  0  0  0  0  0
    0.4525   -6.8000    0.0000 O   0  0  0  0  0  0  0  0  0  0  0  0
    1.7553   -4.5522    0.0000 O   0  0  0  0  0  0  0  0  0  0  0  0
  2  1  2  0
  3  1  1  0
  5  4  2  0
  7  6  2  0
  8  2  1  0
  9  3  2  0
 10  4  1  0
 11  5  1  0
 12  6  1  0
 13  7  1  0
 16  8  2  0
 16  9  1  0
 17 10  2  0
 17 14  1  0
 18 14  2  0
 18 15  1  0
 19 11  2  0
 19 17  1  0
 20 12  2  0
 20 18  1  0
 21 13  2  0
 21 19  1  0
 21 20  1  0
 22 16  1  0
 23 22  2  0
 24 15  1  0
 24 22  1  0
M  END
>  <NAME>  (708) 
9-PHENANTHRYLMETHYL BENZOATE

>  <SYNONYMS>  (708) 


>  <SPECTRUM TYPE>  (708) 
MS1

>  <INSTRUMENT TYPE>  (708) 
EI-B

>  <INSTRUMENT>  (708) 
JEOL JMS-DX-300

>  <ION MODE>  (708) 
P

>  <INCHIKEY>  (708) 
FWBGAUWDNWOMIK-UHFFFAOYSA-N

>  <FORMULA>  (708) 
C22H16O2

>  <EXACT MASS>  (708) 
312.115029752

>  <MW>  (708) 
312

>  <ID>  (708) 
JP011122

>  <CONTRIBUTOR>  (708) 
University of Tokyo Team, {Faculty of Engineering, University of Tokyo

>  <COMMENT>  (708) 
SMILES=c(c4)ccc(c4)C(=O)OCc(c1)c(c3)c(ccc3)c(c2)c(ccc2)1
InChI=InChI=1S/C22H16O2/c23-22(16-8-2-1-3-9-16)24-15-18-14-17-10-4-5-11-19(17)21-13-7-6-12-20(18)21/h1-14H,15H2
computed SMILES=O=C(OCC1=CC=2C=CC=CC2C=3C=CC=CC31)C=4C=CC=CC4
accession=JP011122
date=2016.01.19 (Created 2008.10.21, modified 2011.05.06)
author=SAWADA M, THE INST. OF SCIENTIFIC AND INDUSTRIALRESEARCH OSAKA UNIV.
license=CC BY-NC-SA
exact mass=312.11503
ionization energy=70 eV
ion type=[M]+*
computed spectral entropy=2.8616979958659288
computed normalized entropy=0.7757634890114089
SPLASH=splash10-0a4l-2901000000-6ae6b1319df50e0a5eba
submitter=submitter = University of Tokyo Team (Faculty of Engineering, University of Tokyo)
MoNA Rating=3.75

>  <NUM PEAKS>  (708) 
40

>  <MASS SPECTRAL PEAKS>  (708) 
27 1.5
29 3.8
39 1.6
40 6.5
41 2.5
43 2.5
44 8.8
50 2.5
51 8.1
55 1.8
57 1.8
76 1.6
77 24
78 2.2
105 99.99
106 8.5
122 2.2
139 1.3
149 1.3
150 1.6
151 2.7
152 2.2
163 2.9
164 1.6
165 14.2
166 1.8
176 5.8
177 4.9
178 8.5
179 8.3
187 2.2
188 2
189 29.7
190 16.4
191 46.7
192 10.8
206 2.7
207 4
312 37.1
313 9

$$$$

     RDKit          2D

 24 27  0  0  0  0  0  0  0  0999 V2000
   -7.7962    7.5000    0.0000 C   0  0  0  0  0  0  0  0  0  0  0  0
   -7.7966    5.9992    0.0000 C   0  0  0  0  0  0  0  0  0  0  0  0
   -6.4966    8.2508    0.0000 C   0  0  0  0  0  0  0  0  0  0  0  0
    3.9000   -0.7500    0.0000 C   0  0  0  0  0  0  0  0  0  0  0  0
    3.9000    0.7500    0.0000 C   0  0  0  0  0  0  0  0  0  0  0  0
   -3.9000   -0.7500    0.0000 C   0  0  0  0  0  0  0  0  0  0  0  0
   -6.4976    5.2492    0.0000 C   0  0  0  0  0  0  0  0  0  0  0  0
   -5.1976    7.5008    0.0000 C   0  0  0  0  0  0  0  0  0  0  0  0
    2.6000   -1.5000    0.0000 C   0  0  0  0  0  0  0  0  0  0  0  0
    2.6000    1.5000    0.0000 C   0  0  0  0  0  0  0  0  0  0  0  0
   -2.6000   -1.5000    0.0000 C   0  0  0  0  0  0  0  0  0  0  0  0
   -3.9000    0.7500    0.0000 C   0  0  0  0  0  0  0  0  0  0  0  0
   -0.0000   -1.5000    0.0000 C   0  0  0  0  0  0  0  0  0  0  0  0
   -0.0000    1.5000    0.0000 C   0  0  0  0  0  0  0  0  0  0  0  0
   -2.6000    3.0000    0.0000 C   0  0  0  0  0  0  0  0  0  0  0  0
   -5.1981    6.0000    0.0000 C   0  0  0  0  0  0  0  0  0  0  0  0
    1.3000   -0.7500    0.0000 C   0  0  0  0  0  0  0  0  0  0  0  0
    1.3000    0.7500    0.0000 C   0  0  0  0  0  0  0  0  0  0  0  0
   -1.3000   -0.7500    0.0000 C   0  0  0  0  0  0  0  0  0  0  0  0
   -2.6000    1.5000    0.0000 C   0  0  0  0  0  0  0  0  0  0  0  0
   -1.3000    0.7500    0.0000 C   0  0  0  0  0  0  0  0  0  0  0  0
   -3.8990    5.2500    0.0000 C   0  0  0  0  0  0  0  0  0  0  0  0
   -2.6000    6.0000    0.0000 O   0  0  0  0  0  0  0  0  0  0  0  0
   -3.8990    3.7500    0.0000 O   0  0  0  0  0  0  0  0  0  0  0  0
  2  1  2  0
  3  1  1  0
  5  4  2  0
  7  2  1  0
  8  3  2  0
  9  4  1  0
 10  5  1  0
 11  6  2  0
 12  6  1  0
 16  7  2  0
 16  8  1  0
 17  9  2  0
 17 13  1  0
 18 10  2  0
 18 14  1  0
 18 17  1  0
 19 11  1  0
 19 13  2  0
 20 12  2  0
 20 15  1  0
 21 14  2  0
 21 19  1  0
 21 20  1  0
 22 16  1  0
 23 22  2  0
 24 15  1  0
 24 22  1  0
M  END
>  <NAME>  (709) 
1-ANTHRYLMETHYL BENZOATE

>  <SYNONYMS>  (709) 


>  <SPECTRUM TYPE>  (709) 
MS1

>  <INSTRUMENT TYPE>  (709) 
EI-B

>  <INSTRUMENT>  (709) 
JEOL JMS-DX-300

>  <ION MODE>  (709) 
P

>  <INCHIKEY>  (709) 
YAIFFFPHLGMLMV-UHFFFAOYSA-N

>  <FORMULA>  (709) 
C22H16O2

>  <EXACT MASS>  (709) 
312.115029752

>  <MW>  (709) 
312

>  <ID>  (709) 
JP011121

>  <CONTRIBUTOR>  (709) 
University of Tokyo Team, {Faculty of Engineering, University of Tokyo

>  <COMMENT>  (709) 
SMILES=c(c4)ccc(c4)C(=O)OCc(c3)c(c1)c(cc3)cc(c2)c(ccc2)1
InChI=InChI=1S/C22H16O2/c23-22(16-7-2-1-3-8-16)24-15-20-12-6-11-19-13-17-9-4-5-10-18(17)14-21(19)20/h1-14H,15H2
computed SMILES=O=C(OCC1=CC=CC2=CC=3C=CC=CC3C=C21)C=4C=CC=CC4
accession=JP011121
date=2016.01.19 (Created 2008.10.21, modified 2011.05.06)
author=SAWADA M, THE INST. OF SCIENTIFIC AND INDUSTRIALRESEARCH OSAKA UNIV.
license=CC BY-NC-SA
exact mass=312.11503
ionization energy=70 eV
ion type=[M]+*
computed spectral entropy=2.933097860977211
computed normalized entropy=0.7497649826975397
SPLASH=splash10-06r6-2903000000-3c192aad622caac01e6b
submitter=submitter = University of Tokyo Team (Faculty of Engineering, University of Tokyo)
MoNA Rating=3.75

>  <NUM PEAKS>  (709) 
50

>  <MASS SPECTRAL PEAKS>  (709) 
27 1.3
29 2
39 2
40 2
41 1.6
43 1.8
44 14.4
50 3.1
51 9.6
55 1.3
57 1.5
63 1.5
74 1.1
75 1.5
76 1.5
77 26.4
78 4.9
82 3.3
94 1.6
95 1.3
105 80
106 6.7
122 1.8
139 1.8
150 2.2
151 3.6
152 3.6
156 1.8
163 3.6
164 1.8
165 11.1
166 1.6
176 7.8
177 6
178 14.7
179 10.4
180 1.1
187 2.7
188 2.7
189 36.2
190 26.4
191 81.6
192 16.4
193 1.6
206 3.8
207 8
208 1.3
312 99.99
313 24.4
314 3.6

$$$$

     RDKit          2D

 24 27  0  0  0  0  0  0  0  0999 V2000
  -11.6945   -0.7488    0.0000 C   0  0  0  0  0  0  0  0  0  0  0  0
  -10.3951   -1.4998    0.0000 C   0  0  0  0  0  0  0  0  0  0  0  0
  -11.6947    0.7521    0.0000 C   0  0  0  0  0  0  0  0  0  0  0  0
    3.9000   -0.7500    0.0000 C   0  0  0  0  0  0  0  0  0  0  0  0
    3.9000    0.7500    0.0000 C   0  0  0  0  0  0  0  0  0  0  0  0
   -9.0959   -0.7500    0.0000 C   0  0  0  0  0  0  0  0  0  0  0  0
  -10.3956    1.5019    0.0000 C   0  0  0  0  0  0  0  0  0  0  0  0
    2.6000   -1.5000    0.0000 C   0  0  0  0  0  0  0  0  0  0  0  0
    2.6000    1.5000    0.0000 C   0  0  0  0  0  0  0  0  0  0  0  0
   -3.9000   -0.7500    0.0000 C   0  0  0  0  0  0  0  0  0  0  0  0
   -2.6000   -1.5000    0.0000 C   0  0  0  0  0  0  0  0  0  0  0  0
   -2.6000    1.5000    0.0000 C   0  0  0  0  0  0  0  0  0  0  0  0
   -0.0000   -1.5000    0.0000 C   0  0  0  0  0  0  0  0  0  0  0  0
   -0.0000    1.5000    0.0000 C   0  0  0  0  0  0  0  0  0  0  0  0
   -5.1989    1.5002    0.0000 C   0  0  0  0  0  0  0  0  0  0  0  0
   -3.9000    0.7500    0.0000 C   0  0  0  0  0  0  0  0  0  0  0  0
   -9.0962    0.7508    0.0000 C   0  0  0  0  0  0  0  0  0  0  0  0
    1.3000   -0.7500    0.0000 C   0  0  0  0  0  0  0  0  0  0  0  0
    1.3000    0.7500    0.0000 C   0  0  0  0  0  0  0  0  0  0  0  0
   -1.3000   -0.7500    0.0000 C   0  0  0  0  0  0  0  0  0  0  0  0
   -1.3000    0.7500    0.0000 C   0  0  0  0  0  0  0  0  0  0  0  0
   -7.7970    1.5006    0.0000 C   0  0  0  0  0  0  0  0  0  0  0  0
   -7.7968    3.0006    0.0000 O   0  0  0  0  0  0  0  0  0  0  0  0
   -6.4981    0.7504    0.0000 O   0  0  0  0  0  0  0  0  0  0  0  0
  2  1  2  0
  3  1  1  0
  5  4  2  0
  6  2  1  0
  7  3  2  0
  8  4  1  0
  9  5  1  0
 11 10  2  0
 16 10  1  0
 16 12  2  0
 16 15  1  0
 17  6  2  0
 17  7  1  0
 18  8  2  0
 18 13  1  0
 19  9  2  0
 19 14  1  0
 19 18  1  0
 20 11  1  0
 20 13  2  0
 21 12  1  0
 21 14  2  0
 21 20  1  0
 22 17  1  0
 23 22  2  0
 24 15  1  0
 24 22  1  0
M  END
>  <NAME>  (710) 
2-ANTHRYLMETHYL BENZOATE

>  <SYNONYMS>  (710) 


>  <SPECTRUM TYPE>  (710) 
MS1

>  <INSTRUMENT TYPE>  (710) 
EI-B

>  <INSTRUMENT>  (710) 
JEOL JMS-DX-300

>  <ION MODE>  (710) 
P

>  <INCHIKEY>  (710) 
UODPUBSZQFTKCR-UHFFFAOYSA-N

>  <FORMULA>  (710) 
C22H16O2

>  <EXACT MASS>  (710) 
312.115029752

>  <MW>  (710) 
312

>  <ID>  (710) 
JP011120

>  <CONTRIBUTOR>  (710) 
University of Tokyo Team, {Faculty of Engineering, University of Tokyo

>  <COMMENT>  (710) 
SMILES=O=C(OCc(c4)cc(c2)c(c4)cc(c3)c(ccc3)2)c(c1)cccc1
InChI=InChI=1S/C22H16O2/c23-22(17-6-2-1-3-7-17)24-15-16-10-11-20-13-18-8-4-5-9-19(18)14-21(20)12-16/h1-14H,15H2
computed SMILES=O=C(OCC=1C=CC2=CC=3C=CC=CC3C=C2C1)C=4C=CC=CC4
accession=JP011120
date=2016.01.19 (Created 2008.10.21, modified 2011.05.06)
author=SAWADA M, THE INST. OF SCIENTIFIC AND INDUSTRIALRESEARCH OSAKA UNIV.
license=CC BY-NC-SA
exact mass=312.11503
ionization energy=70 eV
ion type=[M]+*
computed spectral entropy=2.907937392304454
computed normalized entropy=0.7595220056313091
SPLASH=splash10-06r6-3902000000-0849693fdb4e8789a86a
submitter=submitter = University of Tokyo Team (Faculty of Engineering, University of Tokyo)
MoNA Rating=3.75

>  <NUM PEAKS>  (710) 
46

>  <MASS SPECTRAL PEAKS>  (710) 
27 1.5
29 4.9
39 2
40 6.6
41 2.6
43 3.1
44 51.4
45 1.5
50 2.6
51 7.5
55 2.2
57 2.2
69 2
73 1.5
74 1.8
75 1.8
76 1.5
77 23.2
78 3.8
82 1.8
83 1.1
105 99.99
106 8.6
122 3.3
139 1.3
150 1.5
151 2.4
152 2.2
163 2.4
164 1.5
165 8.8
176 6
177 7.1
178 8.4
179 8.2
187 1.8
188 1.8
189 30.2
190 20.5
191 57.2
192 12.1
206 4.4
207 3.5
312 69.8
313 17.2
314 2.2

$$$$

     RDKit          2D

 16 17  0  0  0  0  0  0  0  0999 V2000
    3.2481    2.1950    0.0000 C   0  0  0  0  0  0  0  0  0  0  0  0
   -7.1442    2.1950    0.0000 C   0  0  0  0  0  0  0  0  0  0  0  0
    3.2486    3.6958    0.0000 C   0  0  0  0  0  0  0  0  0  0  0  0
    1.9486    1.4442    0.0000 C   0  0  0  0  0  0  0  0  0  0  0  0
   -5.8447    1.4442    0.0000 C   0  0  0  0  0  0  0  0  0  0  0  0
   -7.1447    3.6958    0.0000 C   0  0  0  0  0  0  0  0  0  0  0  0
    1.9495    4.4458    0.0000 C   0  0  0  0  0  0  0  0  0  0  0  0
    0.6495    2.1942    0.0000 C   0  0  0  0  0  0  0  0  0  0  0  0
   -4.5457    2.1942    0.0000 C   0  0  0  0  0  0  0  0  0  0  0  0
   -5.8457    4.4458    0.0000 C   0  0  0  0  0  0  0  0  0  0  0  0
   -0.6490    4.4450    0.0000 C   0  0  0  0  0  0  0  0  0  0  0  0
    0.6500    3.6950    0.0000 C   0  0  0  0  0  0  0  0  0  0  0  0
   -4.5462    3.6950    0.0000 C   0  0  0  0  0  0  0  0  0  0  0  0
   -3.2471    4.4450    0.0000 C   0  0  0  0  0  0  0  0  0  0  0  0
   -3.2471    5.9450    0.0000 O   0  0  0  0  0  0  0  0  0  0  0  0
   -1.9481    3.6950    0.0000 O   0  0  0  0  0  0  0  0  0  0  0  0
  3  1  2  0
  4  1  1  0
  5  2  2  0
  6  2  1  0
  7  3  1  0
  8  4  2  0
  9  5  1  0
 10  6  2  0
 12  7  2  0
 12  8  1  0
 12 11  1  0
 13  9  2  0
 13 10  1  0
 14 13  1  0
 15 14  2  0
 16 11  1  0
 16 14  1  0
M  END
>  <NAME>  (711) 
BENZYL BENZOATE

>  <SYNONYMS>  (711) 


>  <SPECTRUM TYPE>  (711) 
MS1

>  <INSTRUMENT TYPE>  (711) 
EI-B

>  <INSTRUMENT>  (711) 
JEOL JMS-DX-300

>  <ION MODE>  (711) 
P

>  <INCHIKEY>  (711) 
SESFRYSPDFLNCH-UHFFFAOYSA-N

>  <FORMULA>  (711) 
C14H12O2

>  <EXACT MASS>  (711) 
212.083729624

>  <MW>  (711) 
212

>  <ID>  (711) 
JP011119

>  <CONTRIBUTOR>  (711) 
University of Tokyo Team, {Faculty of Engineering, University of Tokyo

>  <COMMENT>  (711) 
SMILES=O=C(OCc(c2)cccc2)c(c1)cccc1
InChI=InChI=1S/C14H12O2/c15-14(13-9-5-2-6-10-13)16-11-12-7-3-1-4-8-12/h1-10H,11H2
computed SMILES=O=C(OCC=1C=CC=CC1)C=2C=CC=CC2
accession=JP011119
date=2016.01.19 (Created 2008.10.21, modified 2011.05.06)
author=SAWADA M, THE INST. OF SCIENTIFIC AND INDUSTRIALRESEARCH OSAKA UNIV.
license=CC BY-NC-SA
exact mass=212.08373
ionization energy=70 eV
ion type=[M]+*
computed spectral entropy=2.5870562682107816
computed normalized entropy=0.7533680570596815
SPLASH=splash10-0a4i-9720000000-f05c57dce7b414894a2e
submitter=submitter = University of Tokyo Team (Faculty of Engineering, University of Tokyo)
MoNA Rating=3.75

>  <NUM PEAKS>  (711) 
31

>  <MASS SPECTRAL PEAKS>  (711) 
27 1.8
29 1.3
38 1.2
39 6
40 2.1
41 1.4
50 6.2
51 17.1
52 2.3
63 2.8
65 10
74 1.7
75 1.3
76 2
77 36.5
78 4.2
79 7.5
89 4.4
90 6.2
91 43.1
92 3.2
105 99.99
106 9.7
107 7.2
108 2.2
122 8.7
165 1
167 5
194 4.8
212 35.8
213 5.3

$$$$

     RDKit          2D

 18 19  0  0  0  0  0  0  0  0999 V2000
   -3.8981   -0.7504    0.0000 C   0  0  0  0  0  0  0  0  0  0  0  0
   -2.5989   -1.5002    0.0000 C   0  0  0  0  0  0  0  0  0  0  0  0
    9.0945   -0.7488    0.0000 C   0  0  0  0  0  0  0  0  0  0  0  0
    9.0947    0.7521    0.0000 C   0  0  0  0  0  0  0  0  0  0  0  0
    7.7951   -1.4998    0.0000 C   0  0  0  0  0  0  0  0  0  0  0  0
    7.7956    1.5019    0.0000 C   0  0  0  0  0  0  0  0  0  0  0  0
    6.4959   -0.7500    0.0000 C   0  0  0  0  0  0  0  0  0  0  0  0
   -1.3000    0.7500    0.0000 C   0  0  0  0  0  0  0  0  0  0  0  0
   -0.0000   -1.5000    0.0000 C   0  0  0  0  0  0  0  0  0  0  0  0
    0.0000    1.5000    0.0000 C   0  0  0  0  0  0  0  0  0  0  0  0
    1.3000   -0.7500    0.0000 C   0  0  0  0  0  0  0  0  0  0  0  0
    2.5989    1.5002    0.0000 C   0  0  0  0  0  0  0  0  0  0  0  0
   -1.3000   -0.7500    0.0000 C   0  0  0  0  0  0  0  0  0  0  0  0
    1.3000    0.7500    0.0000 C   0  0  0  0  0  0  0  0  0  0  0  0
    6.4962    0.7508    0.0000 C   0  0  0  0  0  0  0  0  0  0  0  0
    5.1970    1.5006    0.0000 C   0  0  0  0  0  0  0  0  0  0  0  0
    5.1968    3.0006    0.0000 O   0  0  0  0  0  0  0  0  0  0  0  0
    3.8981    0.7504    0.0000 O   0  0  0  0  0  0  0  0  0  0  0  0
  2  1  1  0
  4  3  2  0
  5  3  1  0
  6  4  1  0
  7  5  2  0
 10  8  2  0
 11  9  1  0
 13  2  1  0
 13  8  1  0
 13  9  2  0
 14 10  1  0
 14 11  2  0
 14 12  1  0
 15  6  2  0
 15  7  1  0
 16 15  1  0
 17 16  2  0
 18 12  1  0
 18 16  1  0
M  END
>  <NAME>  (712) 
4-ETHYLBENZYL BENZOATE

>  <SYNONYMS>  (712) 


>  <SPECTRUM TYPE>  (712) 
MS1

>  <INSTRUMENT TYPE>  (712) 
EI-B

>  <INSTRUMENT>  (712) 
JEOL JMS-DX-300

>  <ION MODE>  (712) 
P

>  <INCHIKEY>  (712) 
FUFNEZBKELYSFQ-UHFFFAOYSA-N

>  <FORMULA>  (712) 
C16H16O2

>  <EXACT MASS>  (712) 
240.115029752

>  <MW>  (712) 
240

>  <ID>  (712) 
JP011118

>  <CONTRIBUTOR>  (712) 
University of Tokyo Team, {Faculty of Engineering, University of Tokyo

>  <COMMENT>  (712) 
SMILES=CCc(c2)ccc(c2)COC(=O)c(c1)cccc1
InChI=InChI=1S/C16H16O2/c1-2-13-8-10-14(11-9-13)12-18-16(17)15-6-4-3-5-7-15/h3-11H,2,12H2,1H3
computed SMILES=O=C(OCC1=CC=C(C=C1)CC)C=2C=CC=CC2
accession=JP011118
date=2016.01.19 (Created 2008.10.21, modified 2011.05.06)
author=SAWADA M, THE INST. OF SCIENTIFIC AND INDUSTRIALRESEARCH OSAKA UNIV.
license=CC BY-NC-SA
exact mass=240.11503
ionization energy=70 eV
ion type=[M]+*
computed spectral entropy=3.0587121145610636
computed normalized entropy=0.7989027432461905
SPLASH=splash10-0a4i-5910000000-b4a37fa46003e9ce6e60
submitter=submitter = University of Tokyo Team (Faculty of Engineering, University of Tokyo)
MoNA Rating=3.75

>  <NUM PEAKS>  (712) 
46

>  <MASS SPECTRAL PEAKS>  (712) 
27 3
29 2.8
38 1.2
39 4.3
40 2.1
41 3.2
44 1.8
50 6.2
51 14.9
52 2.3
53 1.7
57 1
63 2.7
65 3.9
74 2.2
75 1.8
76 2.3
77 36.1
78 6.6
79 11.6
89 2.2
90 1.7
91 15.3
92 1.6
93 1.1
103 5.4
104 6.2
105 99.99
106 8.8
107 9
115 2.7
117 13.5
118 3.7
119 32.2
120 3.8
122 14.8
133 9.7
134 8
135 7.6
136 3.3
150 2.1
195 1.3
211 2.7
222 2
240 28.9
241 5.1

$$$$

     RDKit          2D

 19 20  0  0  0  0  0  0  0  0999 V2000
   -9.0947   -0.7508    0.0000 C   0  0  0  0  0  0  0  0  0  0  0  0
   -7.7953   -3.0006    0.0000 C   0  0  0  0  0  0  0  0  0  0  0  0
    3.8978   -0.7492    0.0000 C   0  0  0  0  0  0  0  0  0  0  0  0
    3.8981    0.7517    0.0000 C   0  0  0  0  0  0  0  0  0  0  0  0
    2.5984   -1.5002    0.0000 C   0  0  0  0  0  0  0  0  0  0  0  0
    2.5989    1.5015    0.0000 C   0  0  0  0  0  0  0  0  0  0  0  0
    1.2993   -0.7504    0.0000 C   0  0  0  0  0  0  0  0  0  0  0  0
   -3.8966   -0.7504    0.0000 C   0  0  0  0  0  0  0  0  0  0  0  0
   -5.1966    1.4996    0.0000 C   0  0  0  0  0  0  0  0  0  0  0  0
   -5.1966   -1.5004    0.0000 C   0  0  0  0  0  0  0  0  0  0  0  0
   -6.4966    0.7496    0.0000 C   0  0  0  0  0  0  0  0  0  0  0  0
   -2.5977    1.4998    0.0000 C   0  0  0  0  0  0  0  0  0  0  0  0
   -7.7956   -1.5006    0.0000 C   0  0  0  0  0  0  0  0  0  0  0  0
   -3.8966    0.7496    0.0000 C   0  0  0  0  0  0  0  0  0  0  0  0
   -6.4966   -0.7504    0.0000 C   0  0  0  0  0  0  0  0  0  0  0  0
    1.2995    0.7504    0.0000 C   0  0  0  0  0  0  0  0  0  0  0  0
    0.0004    1.5002    0.0000 C   0  0  0  0  0  0  0  0  0  0  0  0
    0.0001    3.0002    0.0000 O   0  0  0  0  0  0  0  0  0  0  0  0
   -1.2986    0.7500    0.0000 O   0  0  0  0  0  0  0  0  0  0  0  0
  4  3  2  0
  5  3  1  0
  6  4  1  0
  7  5  2  0
 10  8  2  0
 11  9  1  0
 13  1  1  0
 13  2  1  0
 14  8  1  0
 14  9  2  0
 14 12  1  0
 15 10  1  0
 15 11  2  0
 15 13  1  0
 16  6  2  0
 16  7  1  0
 17 16  1  0
 18 17  2  0
 19 12  1  0
 19 17  1  0
M  END
>  <NAME>  (713) 
4-ISOPROPYLBENZYL BENZOATE

>  <SYNONYMS>  (713) 


>  <SPECTRUM TYPE>  (713) 
MS1

>  <INSTRUMENT TYPE>  (713) 
EI-B

>  <INSTRUMENT>  (713) 
JEOL JMS-DX-300

>  <ION MODE>  (713) 
P

>  <INCHIKEY>  (713) 
OQURVZTUQABOQM-UHFFFAOYSA-N

>  <FORMULA>  (713) 
C17H18O2

>  <EXACT MASS>  (713) 
254.130679816

>  <MW>  (713) 
254

>  <ID>  (713) 
JP011117

>  <CONTRIBUTOR>  (713) 
University of Tokyo Team, {Faculty of Engineering, University of Tokyo

>  <COMMENT>  (713) 
SMILES=CC(C)c(c2)ccc(c2)COC(=O)c(c1)cccc1
InChI=InChI=1S/C17H18O2/c1-13(2)15-10-8-14(9-11-15)12-19-17(18)16-6-4-3-5-7-16/h3-11,13H,12H2,1-2H3
computed SMILES=O=C(OCC1=CC=C(C=C1)C(C)C)C=2C=CC=CC2
accession=JP011117
date=2016.01.19 (Created 2008.10.21, modified 2011.05.06)
author=SAWADA M, THE INST. OF SCIENTIFIC AND INDUSTRIALRESEARCH OSAKA UNIV.
license=CC BY-NC-SA
exact mass=254.13068
ionization energy=70 eV
ion type=[M]+*
computed spectral entropy=3.3353561238596163
computed normalized entropy=0.8146251672696148
SPLASH=splash10-0a4i-5900000000-7740c61eefea87045780
submitter=submitter = University of Tokyo Team (Faculty of Engineering, University of Tokyo)
MoNA Rating=3.75

>  <NUM PEAKS>  (713) 
60

>  <MASS SPECTRAL PEAKS>  (713) 
27 4
29 4.8
38 1.2
39 5.9
40 6.8
41 5.8
43 4.8
44 4.5
45 1.8
50 6.1
51 14.4
52 2.3
53 1.6
55 1.8
57 1.8
63 2.2
65 3.7
73 1
74 2.4
75 3
76 2.7
77 36.9
78 5.8
79 9.2
88 2.3
89 1.7
91 14
92 1.6
93 1.2
101 1.2
102 1.1
103 4.6
104 2.3
105 99.99
106 8.6
107 5.8
115 5
116 1.3
117 13.5
118 4.8
119 9.9
120 1.3
121 3.4
122 14.9
123 1.1
131 2.2
132 3
133 27.2
134 3.2
135 9.2
136 1.6
147 2
148 8.3
149 5.7
150 4.9
194 1
211 2.5
239 3.5
254 17.6
255 3.1

$$$$

     RDKit          2D

 18 19  0  0  0  0  0  0  0  0999 V2000
   -3.9180   -0.7714    0.0000 C   0  0  0  0  0  0  0  0  0  0  0  0
    9.0868   -0.7883    0.0000 C   0  0  0  0  0  0  0  0  0  0  0  0
    9.0946    0.7125    0.0000 C   0  0  0  0  0  0  0  0  0  0  0  0
    7.7836   -1.5328    0.0000 C   0  0  0  0  0  0  0  0  0  0  0  0
    7.7993    1.4689    0.0000 C   0  0  0  0  0  0  0  0  0  0  0  0
    6.4882   -0.7764    0.0000 C   0  0  0  0  0  0  0  0  0  0  0  0
    1.3000   -0.7500    0.0000 C   0  0  0  0  0  0  0  0  0  0  0  0
    0.0300    1.5000    0.0000 C   0  0  0  0  0  0  0  0  0  0  0  0
    0.0300   -1.5000    0.0000 C   0  0  0  0  0  0  0  0  0  0  0  0
   -1.3200    0.7500    0.0000 C   0  0  0  0  0  0  0  0  0  0  0  0
    2.6027    1.4936    0.0000 C   0  0  0  0  0  0  0  0  0  0  0  0
    1.3000    0.7500    0.0000 C   0  0  0  0  0  0  0  0  0  0  0  0
    6.4961    0.7244    0.0000 C   0  0  0  0  0  0  0  0  0  0  0  0
   -1.3200   -0.7500    0.0000 C   0  0  0  0  0  0  0  0  0  0  0  0
    5.2008    1.4808    0.0000 C   0  0  0  0  0  0  0  0  0  0  0  0
    5.2081    2.9808    0.0000 O   0  0  0  0  0  0  0  0  0  0  0  0
   -2.6128   -1.5107    0.0000 O   0  0  0  0  0  0  0  0  0  0  0  0
    3.8980    0.7372    0.0000 O   0  0  0  0  0  0  0  0  0  0  0  0
  3  2  2  0
  4  2  1  0
  5  3  1  0
  6  4  2  0
  9  7  2  0
 10  8  1  0
 12  7  1  0
 12  8  2  0
 12 11  1  0
 13  5  2  0
 13  6  1  0
 14  9  1  0
 14 10  2  0
 15 13  1  0
 16 15  2  0
 17  1  1  0
 17 14  1  0
 18 11  1  0
 18 15  1  0
M  END
>  <NAME>  (714) 
4-METHOXYBENZYL BENZOATE

>  <SYNONYMS>  (714) 


>  <SPECTRUM TYPE>  (714) 
MS1

>  <INSTRUMENT TYPE>  (714) 
EI-B

>  <INSTRUMENT>  (714) 
JEOL JMS-DX-300

>  <ION MODE>  (714) 
P

>  <INCHIKEY>  (714) 
CSEIPVUFFJWROQ-UHFFFAOYSA-N

>  <FORMULA>  (714) 
C15H14O3

>  <EXACT MASS>  (714) 
242.09429430799997

>  <MW>  (714) 
242

>  <ID>  (714) 
JP011116

>  <CONTRIBUTOR>  (714) 
University of Tokyo Team, {Faculty of Engineering, University of Tokyo

>  <COMMENT>  (714) 
SMILES=COc(c2)ccc(c2)COC(=O)c(c1)cccc1
InChI=InChI=1S/C15H14O3/c1-17-14-9-7-12(8-10-14)11-18-15(16)13-5-3-2-4-6-13/h2-10H,11H2,1H3
computed SMILES=O=C(OCC1=CC=C(OC)C=C1)C=2C=CC=CC2
accession=JP011116
date=2016.01.19 (Created 2008.10.21, modified 2011.05.06)
author=SAWADA M, THE INST. OF SCIENTIFIC AND INDUSTRIALRESEARCH OSAKA UNIV.
license=CC BY-NC-SA
exact mass=242.09429
ionization energy=70 eV
ion type=[M]+*
computed spectral entropy=3.222857978702668
computed normalized entropy=0.807939550793272
SPLASH=splash10-00dl-7910000000-6aa8840715537cb1698b
submitter=submitter = University of Tokyo Team (Faculty of Engineering, University of Tokyo)
MoNA Rating=3.75

>  <NUM PEAKS>  (714) 
54

>  <MASS SPECTRAL PEAKS>  (714) 
27 3
34 1
38 1.4
39 5.8
40 18.6
41 3.6
43 2.8
44 9.2
45 3.9
50 6.2
51 17.6
52 4.5
53 1.9
55 2.5
57 2.8
63 3.2
64 2.2
65 5.8
66 1.7
69 1.1
71 2.2
73 2
74 1.8
75 5.6
76 3
77 46.1
78 15.4
79 2.9
85 1
88 7.9
89 5.4
90 3.6
91 25.3
92 6.9
93 1.9
94 2.5
101 3.6
105 52.5
106 5.8
107 4.8
109 5.7
119 4
120 24
121 99.99
122 16.9
123 1.4
135 7
136 6.1
137 26.6
138 2.7
149 2.2
197 1.3
242 46.6
243 7.8

$$$$

     RDKit          2D

 23 25  0  0  0  0  0  0  0  0999 V2000
  -11.0943    5.9049    0.0000 C   0  0  0  0  0  0  0  0  0  0  0  0
    4.5287    4.4843    0.0000 C   0  0  0  0  0  0  0  0  0  0  0  0
  -11.0948    4.4041    0.0000 C   0  0  0  0  0  0  0  0  0  0  0  0
   -9.7948    6.6558    0.0000 C   0  0  0  0  0  0  0  0  0  0  0  0
    3.2395    3.7175    0.0000 C   0  0  0  0  0  0  0  0  0  0  0  0
    4.5087    5.9850    0.0000 C   0  0  0  0  0  0  0  0  0  0  0  0
   -9.7958    3.6541    0.0000 C   0  0  0  0  0  0  0  0  0  0  0  0
   -8.4958    5.9058    0.0000 C   0  0  0  0  0  0  0  0  0  0  0  0
    1.9303    4.4513    0.0000 C   0  0  0  0  0  0  0  0  0  0  0  0
    3.1995    6.7189    0.0000 C   0  0  0  0  0  0  0  0  0  0  0  0
   -3.3075    5.9049    0.0000 C   0  0  0  0  0  0  0  0  0  0  0  0
   -2.0264    3.6612    0.0000 C   0  0  0  0  0  0  0  0  0  0  0  0
   -2.0412    6.6611    0.0000 C   0  0  0  0  0  0  0  0  0  0  0  0
   -0.6802    4.4178    0.0000 C   0  0  0  0  0  0  0  0  0  0  0  0
   -4.5992    3.6549    0.0000 C   0  0  0  0  0  0  0  0  0  0  0  0
   -3.3001    4.4049    0.0000 C   0  0  0  0  0  0  0  0  0  0  0  0
   -8.4963    4.4049    0.0000 C   0  0  0  0  0  0  0  0  0  0  0  0
    1.9103    5.9520    0.0000 C   0  0  0  0  0  0  0  0  0  0  0  0
   -0.6875    5.9178    0.0000 C   0  0  0  0  0  0  0  0  0  0  0  0
   -7.1972    3.6549    0.0000 C   0  0  0  0  0  0  0  0  0  0  0  0
   -7.1972    2.1549    0.0000 O   0  0  0  0  0  0  0  0  0  0  0  0
   -5.8982    4.4049    0.0000 O   0  0  0  0  0  0  0  0  0  0  0  0
    0.6015    6.6848    0.0000 O   0  0  0  0  0  0  0  0  0  0  0  0
  3  1  2  0
  4  1  1  0
  5  2  2  0
  6  2  1  0
  7  3  1  0
  8  4  2  0
  9  5  1  0
 10  6  2  0
 13 11  2  0
 14 12  1  0
 16 11  1  0
 16 12  2  0
 16 15  1  0
 17  7  2  0
 17  8  1  0
 18  9  2  0
 18 10  1  0
 19 13  1  0
 19 14  2  0
 20 17  1  0
 21 20  2  0
 22 15  1  0
 22 20  1  0
 23 18  1  0
 23 19  1  0
M  END
>  <NAME>  (715) 
4-PHENOXYBENZYL BENZOATE

>  <SYNONYMS>  (715) 


>  <SPECTRUM TYPE>  (715) 
MS1

>  <INSTRUMENT TYPE>  (715) 
EI-B

>  <INSTRUMENT>  (715) 
JEOL JMS-DX-300

>  <ION MODE>  (715) 
P

>  <INCHIKEY>  (715) 
HFCGLKMZOCCWJM-UHFFFAOYSA-N

>  <FORMULA>  (715) 
C20H16O3

>  <EXACT MASS>  (715) 
304.109944372

>  <MW>  (715) 
304

>  <ID>  (715) 
JP011115

>  <CONTRIBUTOR>  (715) 
University of Tokyo Team, {Faculty of Engineering, University of Tokyo

>  <COMMENT>  (715) 
SMILES=O=C(OCc(c3)ccc(c3)Oc(c2)cccc2)c(c1)cccc1
InChI=InChI=1S/C20H16O3/c21-20(17-7-3-1-4-8-17)22-15-16-11-13-19(14-12-16)23-18-9-5-2-6-10-18/h1-14H,15H2
computed SMILES=O=C(OCC1=CC=C(OC=2C=CC=CC2)C=C1)C=3C=CC=CC3
accession=JP011115
date=2016.01.19 (Created 2008.10.21, modified 2011.05.06)
author=SAWADA M, THE INST. OF SCIENTIFIC AND INDUSTRIALRESEARCH OSAKA UNIV.
license=CC BY-NC-SA
exact mass=304.10994
ionization energy=70 eV
ion type=[M]+*
computed spectral entropy=3.0973245039747934
computed normalized entropy=0.7729141453445462
SPLASH=splash10-0ke9-9803000000-ebb4f83a7d85836b7bee
submitter=submitter = University of Tokyo Team (Faculty of Engineering, University of Tokyo)
MoNA Rating=3.75

>  <NUM PEAKS>  (715) 
55

>  <MASS SPECTRAL PEAKS>  (715) 
27 3.1
29 3.1
38 1.3
39 8.4
41 1.8
43 1.5
44 3.5
45 2.4
50 8.8
51 38.5
52 4.4
55 1.8
63 4.4
64 2
65 10.3
66 1.5
69 1.5
74 1.8
75 2
76 4.8
77 99.99
78 15.4
79 1.3
89 32.1
90 5.9
91 2.6
92 1.1
93 3.1
94 2.2
105 79.3
106 10.1
107 7.9
115 9.2
122 4
127 1.5
128 2.2
129 2.2
139 1.5
141 8.4
152 3.3
153 5.5
154 2.2
155 5.5
171 2
181 4
182 11.6
183 62.9
184 11
197 8.8
198 8.4
199 4.4
200 1.3
304 73.4
305 16.7
306 2

$$$$

     RDKit          2D

 17 18  0  0  0  0  0  0  0  0999 V2000
    2.9237    2.7578    0.0000 C   0  0  0  0  0  0  0  0  0  0  0  0
    2.9242    4.2586    0.0000 C   0  0  0  0  0  0  0  0  0  0  0  0
    1.6242    2.0070    0.0000 C   0  0  0  0  0  0  0  0  0  0  0  0
   -7.4705    4.2582    0.0000 C   0  0  0  0  0  0  0  0  0  0  0  0
   -6.1704    5.0080    0.0000 C   0  0  0  0  0  0  0  0  0  0  0  0
    1.6252    5.0086    0.0000 C   0  0  0  0  0  0  0  0  0  0  0  0
    0.3252    2.7570    0.0000 C   0  0  0  0  0  0  0  0  0  0  0  0
   -7.4707    2.7582    0.0000 C   0  0  0  0  0  0  0  0  0  0  0  0
   -4.8707    2.7578    0.0000 C   0  0  0  0  0  0  0  0  0  0  0  0
   -3.5715    5.0078    0.0000 C   0  0  0  0  0  0  0  0  0  0  0  0
   -4.8705    4.2578    0.0000 C   0  0  0  0  0  0  0  0  0  0  0  0
    0.3257    4.2578    0.0000 C   0  0  0  0  0  0  0  0  0  0  0  0
   -6.1709    2.0080    0.0000 C   0  0  0  0  0  0  0  0  0  0  0  0
   -0.9734    5.0078    0.0000 C   0  0  0  0  0  0  0  0  0  0  0  0
   -6.1711    0.5080    0.0000 Br  0  0  0  0  0  0  0  0  0  0  0  0
   -0.9734    6.5078    0.0000 O   0  0  0  0  0  0  0  0  0  0  0  0
   -2.2724    4.2578    0.0000 O   0  0  0  0  0  0  0  0  0  0  0  0
  2  1  2  0
  3  1  1  0
  5  4  2  0
  6  2  1  0
  7  3  2  0
  8  4  1  0
 11  5  1  0
 11  9  2  0
 11 10  1  0
 12  6  2  0
 12  7  1  0
 13  8  2  0
 13  9  1  0
 14 12  1  0
 15 13  1  0
 16 14  2  0
 17 10  1  0
 17 14  1  0
M  END
>  <NAME>  (716) 
3-BROMOBENZYL BENZOATE

>  <SYNONYMS>  (716) 


>  <SPECTRUM TYPE>  (716) 
MS1

>  <INSTRUMENT TYPE>  (716) 
EI-B

>  <INSTRUMENT>  (716) 
JEOL JMS-DX-300

>  <ION MODE>  (716) 
P

>  <INCHIKEY>  (716) 
WXYMOFXETVOVOQ-UHFFFAOYSA-N

>  <FORMULA>  (716) 
C14H11BrO2

>  <EXACT MASS>  (716) 
289.994241692

>  <MW>  (716) 
290

>  <ID>  (716) 
JP011114

>  <CONTRIBUTOR>  (716) 
University of Tokyo Team, {Faculty of Engineering, University of Tokyo

>  <COMMENT>  (716) 
SMILES=O=C(OCc(c2)cc(Br)cc2)c(c1)cccc1
InChI=InChI=1S/C14H11BrO2/c15-13-8-4-5-11(9-13)10-17-14(16)12-6-2-1-3-7-12/h1-9H,10H2
computed SMILES=O=C(OCC=1C=CC=C(Br)C1)C=2C=CC=CC2
accession=JP011114
date=2016.01.19 (Created 2008.10.21, modified 2011.05.06)
author=SAWADA M, THE INST. OF SCIENTIFIC AND INDUSTRIALRESEARCH OSAKA UNIV.
license=CC BY-NC-SA
exact mass=289.99424
ionization energy=70 eV
ion type=[M]+*
computed spectral entropy=2.8466460901205775
computed normalized entropy=0.7240011017854224
SPLASH=splash10-0kk9-9500000000-52cb4a658b7fcc830873
submitter=submitter = University of Tokyo Team (Faculty of Engineering, University of Tokyo)
MoNA Rating=3.75

>  <NUM PEAKS>  (716) 
51

>  <MASS SPECTRAL PEAKS>  (716) 
26 1.8
27 4.6
29 2.7
37 2.2
38 5.3
39 10.8
40 1.4
43 1.1
44 2.3
45 10.8
49 2.5
50 30.2
51 53.3
52 7.9
53 2.4
55 1.2
61 1.4
62 1.8
63 3.8
64 1
65 5
66 3.2
73 2.3
74 10.9
75 8
76 11
77 83.3
78 11.9
79 4.2
89 3.7
90 2.9
91 1.3
94 3.7
104 1.4
105 99.99
106 8
107 3.3
122 67.9
123 5.6
155 1.3
157 1.5
169 1.3
171 1.2
183 1.7
184 1
185 1.9
186 1.8
200 1.6
202 1.6
290 1.7
292 1.6

$$$$

     RDKit          2D

 13 14  0  0  0  0  0  0  0  0999 V2000
    6.1370    1.3606    0.0000 C   0  0  0  0  0  0  0  0  0  0  0  0
   -2.9500   -0.8900    0.0000 C   0  0  0  0  0  0  0  0  0  0  0  0
   -2.9500    0.6100    0.0000 C   0  0  0  0  0  0  0  0  0  0  0  0
   -1.6500   -1.6400    0.0000 C   0  0  0  0  0  0  0  0  0  0  0  0
   -1.6500    1.3600    0.0000 C   0  0  0  0  0  0  0  0  0  0  0  0
    2.2400   -0.8900    0.0000 C   0  0  0  0  0  0  0  0  0  0  0  0
    0.9400   -1.6400    0.0000 C   0  0  0  0  0  0  0  0  0  0  0  0
    0.9400    1.3600    0.0000 C   0  0  0  0  0  0  0  0  0  0  0  0
    3.5389    1.3602    0.0000 C   0  0  0  0  0  0  0  0  0  0  0  0
    2.2400    0.6100    0.0000 C   0  0  0  0  0  0  0  0  0  0  0  0
   -0.3500   -0.8900    0.0000 C   0  0  0  0  0  0  0  0  0  0  0  0
   -0.3500    0.6100    0.0000 C   0  0  0  0  0  0  0  0  0  0  0  0
    4.8381    0.6104    0.0000 N   0  0  0  0  0  0  0  0  0  0  0  0
  3  2  2  0
  4  2  1  0
  5  3  1  0
  7  6  2  0
 10  6  1  0
 10  8  2  0
 10  9  1  0
 11  4  2  0
 11  7  1  0
 12  5  2  0
 12  8  1  0
 12 11  1  0
 13  1  1  0
  9 13  2  0
M  END
>  <NAME>  (717) 
N-(2-NAPHTHYLMETHYLENE)-METHYLAMINE

>  <SYNONYMS>  (717) 


>  <SPECTRUM TYPE>  (717) 
MS1

>  <INSTRUMENT TYPE>  (717) 
EI-B

>  <INSTRUMENT>  (717) 
JEOL JMS-DX-300

>  <ION MODE>  (717) 
P

>  <INCHIKEY>  (717) 
AGGXQDCVTKTEKZ-UKTHLTGXSA-N

>  <FORMULA>  (717) 
C12H11N

>  <EXACT MASS>  (717) 
169.089149352

>  <MW>  (717) 
169

>  <ID>  (717) 
JP011113

>  <CONTRIBUTOR>  (717) 
University of Tokyo Team, {Faculty of Engineering, University of Tokyo

>  <COMMENT>  (717) 
SMILES=CN=Cc(c1)cc(c2)c(ccc2)c1
InChI=InChI=1S/C12H11N/c1-13-9-10-6-7-11-4-2-3-5-12(11)8-10/h2-9H,1H3/b13-9+
computed SMILES=N(=CC=1C=CC=2C=CC=CC2C1)C
accession=JP011113
date=2016.01.19 (Created 2008.10.21, modified 2011.05.06)
author=SAWADA M, THE INST. OF SCIENTIFIC AND INDUSTRIALRESEARCH OSAKA UNIV.
license=CC BY-NC-SA
exact mass=169.08915
ionization energy=70 eV
ion type=[M]+*
computed spectral entropy=2.4575756747340556
computed normalized entropy=0.6912334973202379
SPLASH=splash10-014i-1900000000-365bed40776114d07e39
submitter=submitter = University of Tokyo Team (Faculty of Engineering, University of Tokyo)
MoNA Rating=3.75

>  <NUM PEAKS>  (717) 
35

>  <MASS SPECTRAL PEAKS>  (717) 
39 1.7
41 6.7
42 17.3
50 1.6
51 2.6
62 1.2
63 2.7
74 1.6
75 2.3
76 1.6
77 3.2
84 1
85 1.6
87 1.2
89 1.2
101 2.1
102 2.1
113 1
115 4.3
126 6.8
127 14.5
128 12.6
129 3.3
139 5.6
140 2.3
141 12.3
142 4.8
152 1.2
153 15.6
154 3
167 5.7
168 97.4
169 99.99
170 16.5
171 1.3

$$$$

     RDKit          2D

 11 11  0  0  0  0  0  0  0  0999 V2000
   -1.3000   -0.7500    0.0000 C   0  0  0  0  0  0  0  0  0  0  0  0
    0.0000    1.5000    0.0000 C   0  0  0  0  0  0  0  0  0  0  0  0
    0.0000   -1.5000    0.0000 C   0  0  0  0  0  0  0  0  0  0  0  0
    1.3000    0.7500    0.0000 C   0  0  0  0  0  0  0  0  0  0  0  0
   -2.5989    1.5002    0.0000 C   0  0  0  0  0  0  0  0  0  0  0  0
   -1.3000    0.7500    0.0000 C   0  0  0  0  0  0  0  0  0  0  0  0
    1.3000   -0.7500    0.0000 C   0  0  0  0  0  0  0  0  0  0  0  0
    2.5989   -1.5002    0.0000 N   0  0  0  0  0  0  0  0  0  0  0  0
   -3.8981    0.7504    0.0000 O   0  0  0  0  0  0  0  0  0  0  0  0
    3.8981   -0.7504    0.0000 O   0  0  0  0  0  0  0  0  0  0  0  0
    2.5987   -3.0002    0.0000 O   0  0  0  0  0  0  0  0  0  0  0  0
  3  1  2  0
  4  2  1  0
  6  1  1  0
  6  2  2  0
  6  5  1  0
  7  3  1  0
  7  4  2  0
  8  7  1  0
  9  5  1  0
 10  8  1  0
 11  8  2  0
M  CHG  2   8   1  10  -1
M  END
>  <NAME>  (718) 
4-NITROBENZYL ALCOHOL

>  <SYNONYMS>  (718) 


>  <SPECTRUM TYPE>  (718) 
MS1

>  <INSTRUMENT TYPE>  (718) 
EI-B

>  <INSTRUMENT>  (718) 
HITACHI M-80

>  <ION MODE>  (718) 
P

>  <INCHIKEY>  (718) 
JKTYGPATCNUWKN-UHFFFAOYSA-N

>  <FORMULA>  (718) 
C7H7NO3

>  <EXACT MASS>  (718) 
153.04259308399998

>  <MW>  (718) 
153

>  <ID>  (718) 
JP011112

>  <CONTRIBUTOR>  (718) 
University of Tokyo Team, {Faculty of Engineering, University of Tokyo

>  <COMMENT>  (718) 
SMILES=OCc(c1)ccc(c1)[N+1]([O-1])=O
cas=619-73-8
InChI=InChI=1S/C7H7NO3/c9-5-6-1-3-7(4-2-6)8(10)11/h1-4,9H,5H2
computed SMILES=O=N(=O)C1=CC=C(C=C1)CO
accession=JP011112
date=2016.01.19 (Created 2008.10.21, modified 2011.05.06)
author=YAMAMOTO M, DEP. CHEMISTRY, FAC. SCIENCE, NARA WOMEN'S UNIV.
license=CC BY-NC-SA
exact mass=153.04259
ionization energy=70 eV
ion type=[M]+*
computed spectral entropy=3.3026852147692867
computed normalized entropy=0.8318494676665867
SPLASH=splash10-0kdi-9300000000-f9a647fc48175bbc8400
submitter=submitter = University of Tokyo Team (Faculty of Engineering, University of Tokyo)
MoNA Rating=3.75

>  <NUM PEAKS>  (718) 
53

>  <MASS SPECTRAL PEAKS>  (718) 
26 1.36
27 6.74
29 7
30 11.16
31 8.99
37 2
38 3.26
39 15.48
40 1.68
41 5.43
46 4.2
49 1.05
50 17.72
51 33.15
52 9.26
53 9.31
55 2.32
61 1.93
62 5.57
63 15.27
64 4.02
65 4.4
66 4.23
67 4.33
73 1.34
74 8
75 6.6
76 8.41
77 99.99
78 34.91
79 27.27
80 1.87
86 1.25
89 41.94
90 5.45
91 2.88
92 2.6
94 6.05
95 2.05
104 1.52
105 11.39
106 20.75
107 64.53
108 18.39
109 1.24
122 1.25
124 6.55
125 1.32
136 16.51
137 4.85
152 4.88
153 33.44
154 4.17

$$$$

     RDKit          2D

  8  8  0  0  0  0  0  0  0  0999 V2000
    1.3000   -0.7500    0.0000 C   0  0  0  0  0  0  0  0  0  0  0  0
   -1.3000    0.7500    0.0000 C   0  0  0  0  0  0  0  0  0  0  0  0
    1.3000    0.7500    0.0000 C   0  0  0  0  0  0  0  0  0  0  0  0
   -1.3000   -0.7500    0.0000 C   0  0  0  0  0  0  0  0  0  0  0  0
   -0.0000   -1.5000    0.0000 N   0  0  0  0  0  0  0  0  0  0  0  0
    0.0000    1.5000    0.0000 N   0  0  0  0  0  0  0  0  0  0  0  0
    2.5989    1.5002    0.0000 O   0  0  0  0  0  0  0  0  0  0  0  0
   -2.5989   -1.5002    0.0000 O   0  0  0  0  0  0  0  0  0  0  0  0
  3  1  1  0
  4  2  1  0
  5  1  1  0
  5  4  2  0
  6  2  1  0
  6  3  2  0
  7  3  1  0
  8  4  1  0
M  END
>  <NAME>  (719) 
GLYCINE ANHYDRIDE

>  <SYNONYMS>  (719) 
2,5-PIPERAZINEDIONE

>  <SPECTRUM TYPE>  (719) 
MS1

>  <INSTRUMENT TYPE>  (719) 
EI-B

>  <INSTRUMENT>  (719) 
HITACHI M-80

>  <ION MODE>  (719) 
P

>  <INCHIKEY>  (719) 
BXRNXXXXHLBUKK-UHFFFAOYSA-N

>  <FORMULA>  (719) 
C4H6N2O2

>  <EXACT MASS>  (719) 
114.042927432

>  <MW>  (719) 
114

>  <ID>  (719) 
JP011111

>  <CONTRIBUTOR>  (719) 
University of Tokyo Team, {Faculty of Engineering, University of Tokyo

>  <COMMENT>  (719) 
SMILES=O=C(C1)NCC(=O)N1
cas=106-57-0
InChI=InChI=1S/C4H6N2O2/c7-3-1-5-4(8)2-6-3/h1-2H2,(H,5,8)(H,6,7)
computed SMILES=OC1=NCC(O)=NC1
accession=JP011111
date=2016.01.19 (Created 2008.10.21, modified 2011.05.06)
author=YAMAMOTO M, DEP. CHEMISTRY, FAC. SCIENCE, NARA WOMEN'S UNIV.
license=CC BY-NC-SA
exact mass=114.04293
ionization energy=70 eV
ion type=[M]+*
computed spectral entropy=2.3639230196437415
computed normalized entropy=0.7343939773571521
SPLASH=splash10-01u3-9200000000-8826cd1586bbe0ecaf7b
submitter=submitter = University of Tokyo Team (Faculty of Engineering, University of Tokyo)
MoNA Rating=3.75

>  <NUM PEAKS>  (719) 
25

>  <MASS SPECTRAL PEAKS>  (719) 
14 3.72
15 2.9
26 1.11
27 10.67
28 91.29
29 46.44
30 99.99
31 2.07
40 2.22
41 3.08
42 38.46
43 40.21
44 3.01
54 1.73
55 2.05
56 7.07
57 2.28
58 3.96
59 2.27
71 43.73
72 2.4
85 1.92
86 8.12
114 87.9
115 6.97

$$$$

     RDKit          2D

 16 17  0  0  0  0  0  0  0  0999 V2000
    4.1973   -0.9121    0.0000 C   0  0  0  0  0  0  0  0  0  0  0  0
    2.9023    1.3309    0.0000 C   0  0  0  0  0  0  0  0  0  0  0  0
    0.3002    1.2919    0.0000 C   0  0  0  0  0  0  0  0  0  0  0  0
   -0.9948   -0.9511    0.0000 C   0  0  0  0  0  0  0  0  0  0  0  0
    5.4964   -0.1621    0.0000 C   0  0  0  0  0  0  0  0  0  0  0  0
    4.2014    2.0809    0.0000 C   0  0  0  0  0  0  0  0  0  0  0  0
   -0.9988    2.0419    0.0000 C   0  0  0  0  0  0  0  0  0  0  0  0
   -2.2938   -0.2011    0.0000 C   0  0  0  0  0  0  0  0  0  0  0  0
    2.9078   -0.1786    0.0000 C   0  0  0  0  0  0  0  0  0  0  0  0
    0.3098   -0.1916    0.0000 C   0  0  0  0  0  0  0  0  0  0  0  0
    5.5145    1.3264    0.0000 C   0  0  0  0  0  0  0  0  0  0  0  0
   -2.2970    1.3134    0.0000 C   0  0  0  0  0  0  0  0  0  0  0  0
    1.6126   -0.9351    0.0000 C   0  0  0  0  0  0  0  0  0  0  0  0
    6.8174    2.0698    0.0000 Cl  0  0  0  0  0  0  0  0  0  0  0  0
   -3.5922    2.0699    0.0000 Cl  0  0  0  0  0  0  0  0  0  0  0  0
    1.6201   -2.4351    0.0000 O   0  0  0  0  0  0  0  0  0  0  0  0
  5  1  2  0
  6  2  1  0
  7  3  2  0
  8  4  1  0
  9  1  1  0
  9  2  2  0
 10  3  1  0
 10  4  2  0
 11  5  1  0
 11  6  2  0
 12  7  1  0
 12  8  2  0
 13  9  1  0
 13 10  1  0
 14 11  1  0
 15 12  1  0
 16 13  2  0
M  END
>  <NAME>  (720) 
4,4'-DICHLOROBENZOPHENONE

>  <SYNONYMS>  (720) 


>  <SPECTRUM TYPE>  (720) 
MS1

>  <INSTRUMENT TYPE>  (720) 
EI-B

>  <INSTRUMENT>  (720) 
HITACHI M-80

>  <ION MODE>  (720) 
P

>  <INCHIKEY>  (720) 
OKISUZLXOYGIFP-UHFFFAOYSA-N

>  <FORMULA>  (720) 
C13H8Cl2O

>  <EXACT MASS>  (720) 
249.995220236

>  <MW>  (720) 
250

>  <ID>  (720) 
JP011110

>  <CONTRIBUTOR>  (720) 
University of Tokyo Team, {Faculty of Engineering, University of Tokyo

>  <COMMENT>  (720) 
cas=90-98-2
SMILES=Clc(c2)ccc(c2)C(=O)c(c1)ccc(Cl)c1
InChI=InChI=1S/C13H8Cl2O/c14-11-5-1-9(2-6-11)13(16)10-3-7-12(15)8-4-10/h1-8H
computed SMILES=O=C(C1=CC=C(Cl)C=C1)C2=CC=C(Cl)C=C2
accession=JP011110
date=2016.01.19 (Created 2008.10.21, modified 2011.05.06)
author=YAMAMOTO M, DEP. CHEMISTRY, FAC. SCIENCE, NARA WOMEN'S UNIV.
license=CC BY-NC-SA
exact mass=249.99522
ionization energy=70 eV
ion type=[M]+*
computed spectral entropy=2.640550112966851
computed normalized entropy=0.7426980614271185
SPLASH=splash10-0gw0-3920000000-326f472a1b8765742345
submitter=submitter = University of Tokyo Team (Faculty of Engineering, University of Tokyo)
MoNA Rating=3.75

>  <NUM PEAKS>  (720) 
35

>  <MASS SPECTRAL PEAKS>  (720) 
27 1.13
50 11.81
51 5.26
61 1.15
63 1.14
73 1.63
74 8.76
75 32.64
76 8.85
77 1.29
84 1.17
85 4.33
87 1.62
93 1.15
104 1.46
110 1.5
111 44.46
112 5.26
113 14.09
114 1
139 99.99
140 7.87
141 32.59
142 2.49
150 1.46
151 1.5
152 2.85
215 6.71
216 1.24
217 2.25
250 24.12
251 3.52
252 15.51
253 2.26
254 2.7

$$$$

     RDKit          2D

 10  9  0  0  0  0  0  0  0  0999 V2000
    2.2733    2.8125    0.0000 C   0  0  0  0  0  0  0  0  0  0  0  0
    0.9743    5.0625    0.0000 C   0  0  0  0  0  0  0  0  0  0  0  0
   -5.5209    2.8125    0.0000 C   0  0  0  0  0  0  0  0  0  0  0  0
   -4.2219    5.0625    0.0000 C   0  0  0  0  0  0  0  0  0  0  0  0
    0.9743    3.5625    0.0000 C   0  0  0  0  0  0  0  0  0  0  0  0
   -4.2219    3.5625    0.0000 C   0  0  0  0  0  0  0  0  0  0  0  0
   -1.6238    3.5625    0.0000 C   0  0  0  0  0  0  0  0  0  0  0  0
   -0.3248    2.8125    0.0000 N   0  0  0  0  0  0  0  0  0  0  0  0
   -2.9228    2.8125    0.0000 N   0  0  0  0  0  0  0  0  0  0  0  0
   -1.6238    5.0625    0.0000 S   0  0  0  0  0  0  0  0  0  0  0  0
  5  1  1  0
  5  2  1  0
  6  3  1  0
  6  4  1  0
  8  5  1  0
  8  7  2  3
  9  6  1  0
  9  7  1  0
 10  7  1  0
M  END
>  <NAME>  (721) 
N,N'-DIISOPROPYLTHIOUREA

>  <SYNONYMS>  (721) 


>  <SPECTRUM TYPE>  (721) 
MS1

>  <INSTRUMENT TYPE>  (721) 
EI-B

>  <INSTRUMENT>  (721) 
HITACHI M-80

>  <ION MODE>  (721) 
P

>  <INCHIKEY>  (721) 
KREOCUNMMFZOOS-UHFFFAOYSA-N

>  <FORMULA>  (721) 
C7H16N2S

>  <EXACT MASS>  (721) 
160.103419512

>  <MW>  (721) 
160

>  <ID>  (721) 
JP011109

>  <CONTRIBUTOR>  (721) 
University of Tokyo Team, {Faculty of Engineering, University of Tokyo

>  <COMMENT>  (721) 
SMILES=CC(C)NC(=S)NC(C)C
cas=2986-17-6
InChI=InChI=1S/C7H16N2S/c1-5(2)8-7(10)9-6(3)4/h5-6H,1-4H3,(H2,8,9,10)
computed SMILES=SC(=NC(C)C)NC(C)C
accession=JP011109
date=2016.01.19 (Created 2008.10.21, modified 2011.05.06)
author=YAMAMOTO M, DEP. CHEMISTRY, FAC. SCIENCE, NARA WOMEN'S UNIV.
license=CC BY-NC-SA
exact mass=160.10342
ionization energy=70 eV
ion type=[M]+*
computed spectral entropy=2.4452967153470873
computed normalized entropy=0.7055634889466628
SPLASH=splash10-0btc-9200000000-bc2741c2cd26287b89d9
submitter=submitter = University of Tokyo Team (Faculty of Engineering, University of Tokyo)
MoNA Rating=3.75

>  <NUM PEAKS>  (721) 
32

>  <MASS SPECTRAL PEAKS>  (721) 
14 1.38
17 2.32
26 5.21
27 4.17
29 1.68
32 1.26
39 3.61
40 1.08
41 14.49
42 8.98
43 26.65
44 12.61
57 1.52
58 99.99
59 4.6
60 12.91
61 1.04
62 1.4
64 3.3
69 1.57
70 3.91
75 2.21
85 6.24
90 1.39
102 1.1
103 1.1
117 3.88
128 1.09
159 2.9
160 49.22
161 5.29
162 2.44

$$$$

     RDKit          2D

 11 11  0  0  0  0  0  0  0  0999 V2000
    2.5989   -0.7496    0.0000 C   0  0  0  0  0  0  0  0  0  0  0  0
    0.0008   -2.2500    0.0000 C   0  0  0  0  0  0  0  0  0  0  0  0
   -1.2992   -3.0000    0.0000 C   0  0  0  0  0  0  0  0  0  0  0  0
   -1.2992    0.0000    0.0000 C   0  0  0  0  0  0  0  0  0  0  0  0
    1.2998    0.0002    0.0000 C   0  0  0  0  0  0  0  0  0  0  0  0
    0.0008   -0.7500    0.0000 C   0  0  0  0  0  0  0  0  0  0  0  0
   -2.5992   -2.2500    0.0000 C   0  0  0  0  0  0  0  0  0  0  0  0
   -2.5992   -0.7500    0.0000 C   0  0  0  0  0  0  0  0  0  0  0  0
   -3.8981   -3.0002    0.0000 Cl  0  0  0  0  0  0  0  0  0  0  0  0
   -3.8981    0.0002    0.0000 Cl  0  0  0  0  0  0  0  0  0  0  0  0
    1.2995    1.5002    0.0000 O   0  0  0  0  0  0  0  0  0  0  0  0
  3  2  2  0
  5  1  1  0
  6  2  1  0
  6  4  2  0
  6  5  1  0
  7  3  1  0
  8  4  1  0
  8  7  2  0
  9  7  1  0
 10  8  1  0
 11  5  2  0
M  END
>  <NAME>  (722) 
3',4'-DICHLOROACETOPHENONE

>  <SYNONYMS>  (722) 


>  <SPECTRUM TYPE>  (722) 
MS1

>  <INSTRUMENT TYPE>  (722) 
EI-B

>  <INSTRUMENT>  (722) 
HITACHI M-80

>  <ION MODE>  (722) 
P

>  <INCHIKEY>  (722) 
WBPAOUHWPONFEQ-UHFFFAOYSA-N

>  <FORMULA>  (722) 
C8H6Cl2O

>  <EXACT MASS>  (722) 
187.979570172

>  <MW>  (722) 
188

>  <ID>  (722) 
JP011108

>  <CONTRIBUTOR>  (722) 
University of Tokyo Team, {Faculty of Engineering, University of Tokyo

>  <COMMENT>  (722) 
SMILES=CC(=O)c(c1)cc(Cl)c(Cl)c1
cas=2642-63-9
InChI=InChI=1S/C8H6Cl2O/c1-5(11)6-2-3-7(9)8(10)4-6/h2-4H,1H3
computed SMILES=O=C(C1=CC=C(Cl)C(Cl)=C1)C
accession=JP011108
date=2016.01.19 (Created 2008.10.21, modified 2011.05.06)
author=YAMAMOTO M, DEP. CHEMISTRY, FAC. SCIENCE, NARA WOMEN'S UNIV.
license=CC BY-NC-SA
exact mass=187.97957
ionization energy=70 eV
ion type=[M]+*
computed spectral entropy=2.6794005555297846
computed normalized entropy=0.747700961414244
SPLASH=splash10-00fu-1900000000-5c0bfb3015cd866ea815
submitter=submitter = University of Tokyo Team (Faculty of Engineering, University of Tokyo)
MoNA Rating=3.75

>  <NUM PEAKS>  (722) 
36

>  <MASS SPECTRAL PEAKS>  (722) 
15 2.19
37 1.21
42 1.09
43 28.72
49 1.01
50 3.53
51 1.12
61 1.35
62 1.47
63 1.83
73 2.93
74 9.9
75 10.27
84 2.98
85 2.08
86 1.36
87 1.1
89 1.25
109 11.26
110 4.77
111 4.94
112 1.58
145 28.9
146 2.94
147 18.01
148 1.75
149 2.97
173 99.99
174 7.81
175 64.7
176 10.49
188 42.25
189 4.1
190 27.86
191 2.51
192 4.44

$$$$

     RDKit          2D

 11 11  0  0  0  0  0  0  0  0999 V2000
   -1.3000    0.7500    0.0000 C   0  0  0  0  0  0  0  0  0  0  0  0
    0.0000    1.5000    0.0000 C   0  0  0  0  0  0  0  0  0  0  0  0
   -0.0000   -1.5000    0.0000 C   0  0  0  0  0  0  0  0  0  0  0  0
   -1.3000   -0.7500    0.0000 C   0  0  0  0  0  0  0  0  0  0  0  0
    1.3000   -0.7500    0.0000 C   0  0  0  0  0  0  0  0  0  0  0  0
    1.3000    0.7500    0.0000 C   0  0  0  0  0  0  0  0  0  0  0  0
    2.5989   -1.5002    0.0000 Cl  0  0  0  0  0  0  0  0  0  0  0  0
   -2.5989   -1.5002    0.0000 N   0  0  0  0  0  0  0  0  0  0  0  0
    2.5989    1.5002    0.0000 N   0  0  0  0  0  0  0  0  0  0  0  0
    2.5987    3.0002    0.0000 O   0  0  0  0  0  0  0  0  0  0  0  0
    3.8981    0.7504    0.0000 O   0  0  0  0  0  0  0  0  0  0  0  0
  2  1  2  0
  4  1  1  0
  4  3  2  0
  5  3  1  0
  6  2  1  0
  6  5  2  0
  7  5  1  0
  8  4  1  0
  9  6  1  0
 10  9  1  0
 11  9  2  0
M  CHG  2   9   1  10  -1
M  END
>  <NAME>  (723) 
3-CHLORO-4-NITROANILINE

>  <SYNONYMS>  (723) 


>  <SPECTRUM TYPE>  (723) 
MS1

>  <INSTRUMENT TYPE>  (723) 
EI-B

>  <INSTRUMENT>  (723) 
HITACHI M-80

>  <ION MODE>  (723) 
P

>  <INCHIKEY>  (723) 
LDSIOPGMLLPSSR-UHFFFAOYSA-N

>  <FORMULA>  (723) 
C6H5ClN2O2

>  <EXACT MASS>  (723) 
172.00395508

>  <MW>  (723) 
172

>  <ID>  (723) 
JP011107

>  <CONTRIBUTOR>  (723) 
University of Tokyo Team, {Faculty of Engineering, University of Tokyo

>  <COMMENT>  (723) 
SMILES=Nc(c1)cc(Cl)c(c1)[N+1]([O-1])=O
cas=825-41-2
InChI=InChI=1S/C6H5ClN2O2/c7-5-3-4(8)1-2-6(5)9(10)11/h1-3H,8H2
computed SMILES=O=N(=O)C1=CC=C(N)C=C1Cl
accession=JP011107
date=2016.01.19 (Created 2008.10.21, modified 2011.05.06)
author=YAMAMOTO M, DEP. CHEMISTRY, FAC. SCIENCE, NARA WOMEN'S UNIV.
license=CC BY-NC-SA
exact mass=172.00396
ionization energy=70 eV
ion type=[M]+*
computed spectral entropy=3.1241622816755688
computed normalized entropy=0.7906782026589854
SPLASH=splash10-006x-4900000000-cd2a3dd041365be8da8f
submitter=submitter = University of Tokyo Team (Faculty of Engineering, University of Tokyo)
MoNA Rating=3.75

>  <NUM PEAKS>  (723) 
52

>  <MASS SPECTRAL PEAKS>  (723) 
18 2.6
27 1
28 1.49
30 12.05
37 2.26
38 3.56
39 5.03
40 1.55
41 8.5
46 2.16
50 1.89
51 3.85
52 6.76
53 1.75
61 3.65
62 6.53
63 21.14
64 6.67
65 4.74
66 1.28
72 1.05
73 5.18
74 1.71
75 2.46
76 1.3
78 4.33
79 1.58
87 2.57
88 1.31
89 2.71
90 20.56
91 9.75
99 29.04
100 2.55
101 9.47
114 21.5
115 1.69
116 7.43
125 1.42
126 21.33
127 2.01
128 7.17
142 99.99
143 7.75
144 32.74
145 2.59
156 3.73
158 1.33
172 73.75
173 5.74
174 23.82
175 1.93

$$$$

     RDKit          2D

 11 11  0  0  0  0  0  0  0  0999 V2000
   -1.3000    0.7500    0.0000 C   0  0  0  0  0  0  0  0  0  0  0  0
    0.0000    1.5000    0.0000 C   0  0  0  0  0  0  0  0  0  0  0  0
   -0.0000   -1.5000    0.0000 C   0  0  0  0  0  0  0  0  0  0  0  0
   -1.3000   -0.7500    0.0000 C   0  0  0  0  0  0  0  0  0  0  0  0
    1.3000    0.7500    0.0000 C   0  0  0  0  0  0  0  0  0  0  0  0
    1.3000   -0.7500    0.0000 C   0  0  0  0  0  0  0  0  0  0  0  0
    2.5989    1.5002    0.0000 C   0  0  0  0  0  0  0  0  0  0  0  0
   -2.5989   -1.5002    0.0000 F   0  0  0  0  0  0  0  0  0  0  0  0
    2.5989   -1.5002    0.0000 F   0  0  0  0  0  0  0  0  0  0  0  0
    3.8981    0.7504    0.0000 O   0  0  0  0  0  0  0  0  0  0  0  0
    2.5987    3.0002    0.0000 O   0  0  0  0  0  0  0  0  0  0  0  0
  2  1  2  0
  4  1  1  0
  4  3  2  0
  5  2  1  0
  6  3  1  0
  6  5  2  0
  7  5  1  0
  8  4  1  0
  9  6  1  0
 10  7  2  0
 11  7  1  0
M  END
>  <NAME>  (724) 
2,4-DIFLUOROBENZOIC ACID

>  <SYNONYMS>  (724) 


>  <SPECTRUM TYPE>  (724) 
MS1

>  <INSTRUMENT TYPE>  (724) 
EI-B

>  <INSTRUMENT>  (724) 
HITACHI M-80

>  <ION MODE>  (724) 
P

>  <INCHIKEY>  (724) 
NJYBIFYEWYWYAN-UHFFFAOYSA-N

>  <FORMULA>  (724) 
C7H4F2O2

>  <EXACT MASS>  (724) 
158.017935808

>  <MW>  (724) 
158

>  <ID>  (724) 
JP011106

>  <CONTRIBUTOR>  (724) 
University of Tokyo Team, {Faculty of Engineering, University of Tokyo

>  <COMMENT>  (724) 
SMILES=OC(=O)c(c1)c(F)cc(F)c1
cas=1583-58-0
InChI=InChI=1S/C7H4F2O2/c8-4-1-2-5(7(10)11)6(9)3-4/h1-3H,(H,10,11)
computed SMILES=O=C(O)C1=CC=C(F)C=C1F
exact mass=158.01794
accession=JP011106
date=2016.01.19 (Created 2008.10.21, modified 2011.05.06)
author=YAMAMOTO M, DEP. CHEMISTRY, FAC. SCIENCE, NARA WOMEN'S UNIV.
license=CC BY-NC-SA
ionization energy=70 eV
ion type=[M]+*
computed spectral entropy=2.3829152878433493
computed normalized entropy=0.675743524012686
SPLASH=splash10-06r6-3900000000-f25584dfe844346e5278
submitter=submitter = University of Tokyo Team (Faculty of Engineering, University of Tokyo)
MoNA Rating=3.75

>  <NUM PEAKS>  (724) 
34

>  <MASS SPECTRAL PEAKS>  (724) 
31 3.41
37 1.99
38 1.32
45 5
50 4.4
51 1.1
56 1.38
57 3.12
61 3.18
62 5.24
63 24.25
64 1.6
68 4.26
69 2.01
73 1.06
74 3.9
75 2.88
81 3.21
82 2.23
87 1.19
88 1.62
92 1.7
93 4
94 5.55
101 1.26
110 1.48
112 2.68
113 32.8
114 5
130 1.31
141 99.99
142 7.62
158 80.95
159 6.44

$$$$

     RDKit          2D

 12 12  0  0  0  0  0  0  0  0999 V2000
   -0.3250    3.1883    0.0000 C   0  0  0  0  0  0  0  0  0  0  0  0
    2.2739   -1.3131    0.0000 C   0  0  0  0  0  0  0  0  0  0  0  0
   -1.6243    0.9383    0.0000 C   0  0  0  0  0  0  0  0  0  0  0  0
   -0.3243   -1.3133    0.0000 C   0  0  0  0  0  0  0  0  0  0  0  0
   -0.3252    1.6883    0.0000 C   0  0  0  0  0  0  0  0  0  0  0  0
    0.9748   -0.5633    0.0000 C   0  0  0  0  0  0  0  0  0  0  0  0
    0.9743    0.9375    0.0000 C   0  0  0  0  0  0  0  0  0  0  0  0
   -1.6238   -0.5625    0.0000 N   0  0  0  0  0  0  0  0  0  0  0  0
    2.2733    1.6875    0.0000 N   0  0  0  0  0  0  0  0  0  0  0  0
   -2.9228   -1.3125    0.0000 O   0  0  0  0  0  0  0  0  0  0  0  0
    2.2733    3.1875    0.0000 O   0  0  0  0  0  0  0  0  0  0  0  0
    3.5724    0.9375    0.0000 O   0  0  0  0  0  0  0  0  0  0  0  0
  5  1  1  0
  5  3  2  0
  6  2  1  0
  6  4  1  0
  7  5  1  0
  7  6  2  0
  8  3  1  0
  8  4  2  0
  9  7  1  0
 10  8  1  0
 11  9  1  0
 12  9  2  0
M  CHG  4   8   1   9   1  10  -1  11  -1
M  END
>  <NAME>  (725) 
3,5-DIMETHYL-4-NITROPYRIDINE N-OXIDE

>  <SYNONYMS>  (725) 


>  <SPECTRUM TYPE>  (725) 
MS1

>  <INSTRUMENT TYPE>  (725) 
EI-B

>  <INSTRUMENT>  (725) 
HITACHI M-80

>  <ION MODE>  (725) 
P

>  <INCHIKEY>  (725) 
VLKVMXPKEDVNBO-UHFFFAOYSA-N

>  <FORMULA>  (725) 
C7H8N2O3

>  <EXACT MASS>  (725) 
168.05349211599997

>  <MW>  (725) 
168

>  <ID>  (725) 
JP011105

>  <CONTRIBUTOR>  (725) 
University of Tokyo Team, {Faculty of Engineering, University of Tokyo

>  <COMMENT>  (725) 
SMILES=[O-1][n+1](c1)cc(C)c([N+1]([O-1])=O)c(C)1
InChI=InChI=1S/C7H8N2O3/c1-5-3-8(10)4-6(2)7(5)9(11)12/h3-4H,1-2H3
computed SMILES=O=N(=O)C1=C(C=N(=O)C=C1C)C
accession=JP011105
date=2016.01.19 (Created 2008.10.21, modified 2011.05.06)
author=YAMAMOTO M, DEP. CHEMISTRY, FAC. SCIENCE, NARA WOMEN'S UNIV.
license=CC BY-NC-SA
exact mass=168.05349
ionization energy=70 eV
ion type=[M]+*
computed spectral entropy=2.80110219685361
computed normalized entropy=0.7402118994637344
SPLASH=splash10-014i-6900000000-b428a53b1b804a007bef
submitter=submitter = University of Tokyo Team (Faculty of Engineering, University of Tokyo)
MoNA Rating=3.75

>  <NUM PEAKS>  (725) 
44

>  <MASS SPECTRAL PEAKS>  (725) 
27 2.47
29 1.05
30 3.9
38 1.22
39 8.04
40 1.63
41 9.54
42 2.09
52 4.28
53 4.62
54 2.9
55 6.21
63 2.51
64 1.05
65 8.28
66 3.56
67 14.56
68 2.95
69 1.57
77 5.2
78 1.87
79 2.06
80 1.64
82 6.52
83 12.87
84 1.71
91 3.94
92 1.41
93 1.71
95 1.07
96 1.27
105 1.03
106 1.47
107 2
108 2.05
123 1.45
135 1.05
138 19.23
139 1.74
151 4.29
152 2.5
168 99.99
169 30.06
170 2.68

$$$$

     RDKit          2D

 11 11  0  0  0  0  0  0  0  0999 V2000
   -1.3000    0.7500    0.0000 C   0  0  0  0  0  0  0  0  0  0  0  0
    1.3000    0.7500    0.0000 C   0  0  0  0  0  0  0  0  0  0  0  0
   -0.0000   -1.5000    0.0000 C   0  0  0  0  0  0  0  0  0  0  0  0
    0.0000    1.5000    0.0000 C   0  0  0  0  0  0  0  0  0  0  0  0
   -1.3000   -0.7500    0.0000 C   0  0  0  0  0  0  0  0  0  0  0  0
    1.3000   -0.7500    0.0000 C   0  0  0  0  0  0  0  0  0  0  0  0
    0.0000    3.0000    0.0000 C   0  0  0  0  0  0  0  0  0  0  0  0
   -2.5989   -1.5002    0.0000 Cl  0  0  0  0  0  0  0  0  0  0  0  0
    2.5989   -1.5002    0.0000 Cl  0  0  0  0  0  0  0  0  0  0  0  0
    1.2990    3.7500    0.0000 O   0  0  0  0  0  0  0  0  0  0  0  0
   -1.2990    3.7500    0.0000 O   0  0  0  0  0  0  0  0  0  0  0  0
  4  1  2  0
  4  2  1  0
  5  1  1  0
  5  3  2  0
  6  2  2  0
  6  3  1  0
  7  4  1  0
  8  5  1  0
  9  6  1  0
 10  7  2  0
 11  7  1  0
M  END
>  <NAME>  (726) 
3,5-DICHLOROBENZOIC ACID

>  <SYNONYMS>  (726) 


>  <SPECTRUM TYPE>  (726) 
MS1

>  <INSTRUMENT TYPE>  (726) 
EI-B

>  <INSTRUMENT>  (726) 
HITACHI M-80

>  <ION MODE>  (726) 
P

>  <INCHIKEY>  (726) 
CXKCZFDUOYMOOP-UHFFFAOYSA-N

>  <FORMULA>  (726) 
C7H4Cl2O2

>  <EXACT MASS>  (726) 
189.958834728

>  <MW>  (726) 
190

>  <ID>  (726) 
JP011104

>  <CONTRIBUTOR>  (726) 
University of Tokyo Team, {Faculty of Engineering, University of Tokyo

>  <COMMENT>  (726) 
SMILES=OC(=O)c(c1)cc(Cl)cc(Cl)1
cas=51-36-5
InChI=InChI=1S/C7H4Cl2O2/c8-5-1-4(7(10)11)2-6(9)3-5/h1-3H,(H,10,11)
computed SMILES=O=C(O)C=1C=C(Cl)C=C(Cl)C1
accession=JP011104
date=2016.01.19 (Created 2008.10.21, modified 2011.05.06)
author=YAMAMOTO M, DEP. CHEMISTRY, FAC. SCIENCE, NARA WOMEN'S UNIV.
license=CC BY-NC-SA
exact mass=189.95883
ionization energy=70 eV
ion type=[M]+*
computed spectral entropy=3.2502192188576964
computed normalized entropy=0.7875244456868311
SPLASH=splash10-006x-3900000000-b4d591f9711f3bcf67a7
submitter=submitter = University of Tokyo Team (Faculty of Engineering, University of Tokyo)
MoNA Rating=3.75

>  <NUM PEAKS>  (726) 
62

>  <MASS SPECTRAL PEAKS>  (726) 
17 1.18
18 2.48
28 8.39
32 1.86
35 1.07
36 1.33
37 4.1
38 3.02
39 1.46
45 11.12
47 1
49 2.85
50 11.48
51 2.85
53 1.66
54 1.23
55 1.31
60 1.36
61 2.59
62 2.57
63 8.39
64 1.07
72 1.57
73 10.62
74 32.09
75 34.17
76 2.47
77 1.16
84 6.7
85 5.41
86 2.42
87 2.08
97 1.4
98 1.15
99 10.49
101 3.49
108 2.1
109 25.17
110 10.55
111 16.14
112 3.53
113 2.75
144 1.97
145 37.3
146 4.87
147 24.21
148 2.58
149 4
155 2.33
162 1.63
164 1.03
172 1.03
173 69.47
174 6.03
175 44.02
176 3.66
177 7.3
190 99.99
191 8.15
192 65.07
193 5.17
194 10.38

$$$$

     RDKit          2D

 16 17  0  0  0  0  0  0  0  0999 V2000
    6.4970    3.7506    0.0000 C   0  0  0  0  0  0  0  0  0  0  0  0
    7.7970    1.5006    0.0000 C   0  0  0  0  0  0  0  0  0  0  0  0
    0.0000   -1.5000    0.0000 C   0  0  0  0  0  0  0  0  0  0  0  0
   -1.3000    0.7500    0.0000 C   0  0  0  0  0  0  0  0  0  0  0  0
    5.1970    3.0006    0.0000 C   0  0  0  0  0  0  0  0  0  0  0  0
    6.4970    0.7506    0.0000 C   0  0  0  0  0  0  0  0  0  0  0  0
    1.3000   -0.7500    0.0000 C   0  0  0  0  0  0  0  0  0  0  0  0
    0.0000    1.5000    0.0000 C   0  0  0  0  0  0  0  0  0  0  0  0
    7.7970    3.0006    0.0000 C   0  0  0  0  0  0  0  0  0  0  0  0
   -1.3000   -0.7500    0.0000 C   0  0  0  0  0  0  0  0  0  0  0  0
    5.1970    1.5006    0.0000 C   0  0  0  0  0  0  0  0  0  0  0  0
    1.3000    0.7500    0.0000 C   0  0  0  0  0  0  0  0  0  0  0  0
    9.0959    3.7508    0.0000 N   0  0  0  0  0  0  0  0  0  0  0  0
   -2.5989   -1.5002    0.0000 N   0  0  0  0  0  0  0  0  0  0  0  0
    3.8981    0.7504    0.0000 S   0  0  0  0  0  0  0  0  0  0  0  0
    2.5989    1.5002    0.0000 S   0  0  0  0  0  0  0  0  0  0  0  0
  5  1  2  0
  6  2  1  0
  7  3  2  0
  8  4  1  0
  9  1  1  0
  9  2  2  0
 10  3  1  0
 10  4  2  0
 11  5  1  0
 11  6  2  0
 12  7  1  0
 12  8  2  0
 13  9  1  0
 14 10  1  0
 15 11  1  0
 16 12  1  0
 16 15  1  0
M  END
>  <NAME>  (727) 
4-AMINOPHENYL DISULFIDE

>  <SYNONYMS>  (727) 
4,4'-DITHIODIANILINE

>  <SPECTRUM TYPE>  (727) 
MS1

>  <INSTRUMENT TYPE>  (727) 
EI-B

>  <INSTRUMENT>  (727) 
HITACHI M-80

>  <ION MODE>  (727) 
P

>  <INCHIKEY>  (727) 
MERLDGDYUMSLAY-UHFFFAOYSA-N

>  <FORMULA>  (727) 
C12H12N2S2

>  <EXACT MASS>  (727) 
248.044190384

>  <MW>  (727) 
248

>  <ID>  (727) 
JP011103

>  <CONTRIBUTOR>  (727) 
University of Tokyo Team, {Faculty of Engineering, University of Tokyo

>  <COMMENT>  (727) 
SMILES=Nc(c2)ccc(c2)SSc(c1)ccc(N)c1
cas=722-27-0
InChI=InChI=1S/C12H12N2S2/c13-9-1-5-11(6-2-9)15-16-12-7-3-10(14)4-8-12/h1-8H,13-14H2
computed SMILES=S(SC1=CC=C(N)C=C1)C2=CC=C(N)C=C2
accession=JP011103
date=2016.01.19 (Created 2008.10.21, modified 2011.05.06)
author=YAMAMOTO M, DEP. CHEMISTRY, FAC. SCIENCE, NARA WOMEN'S UNIV.
license=CC BY-NC-SA
exact mass=248.04419
ionization energy=70 eV
ion type=[M]+*
computed spectral entropy=2.11205848400298
computed normalized entropy=0.6645760571562577
SPLASH=splash10-00di-3930000000-fac3f5e4dede9965f49c
submitter=submitter = University of Tokyo Team (Faculty of Engineering, University of Tokyo)
MoNA Rating=3.75

>  <NUM PEAKS>  (727) 
24

>  <MASS SPECTRAL PEAKS>  (727) 
28 2.97
39 1.76
45 1.8
52 1.46
53 3.87
54 1.69
63 1.62
65 2.05
69 1.67
70 1.37
80 27.14
81 2.92
91 1.54
93 2.35
96 1.58
97 5.67
123 3.04
124 99.99
125 30.99
126 6.38
127 1.58
248 42.41
249 6.6
250 4.15

$$$$

     RDKit          2D

  8  8  0  0  0  0  0  0  0  0999 V2000
   -1.3000    0.7500    0.0000 C   0  0  0  0  0  0  0  0  0  0  0  0
   -1.3000   -0.7500    0.0000 C   0  0  0  0  0  0  0  0  0  0  0  0
    1.3000   -0.7500    0.0000 C   0  0  0  0  0  0  0  0  0  0  0  0
    0.0000    1.5000    0.0000 C   0  0  0  0  0  0  0  0  0  0  0  0
    1.3000    0.7500    0.0000 C   0  0  0  0  0  0  0  0  0  0  0  0
    0.0000    3.0000    0.0000 N   0  0  0  0  0  0  0  0  0  0  0  0
    2.5989    1.5002    0.0000 N   0  0  0  0  0  0  0  0  0  0  0  0
   -0.0000   -1.5000    0.0000 N   0  0  0  0  0  0  0  0  0  0  0  0
  2  1  2  0
  4  1  1  0
  5  3  2  0
  5  4  1  0
  6  4  2  0
  7  5  1  0
  8  2  1  0
  8  3  1  0
M  END
>  <NAME>  (728) 
3,4-DIAMINOPYRIDINE

>  <SYNONYMS>  (728) 


>  <SPECTRUM TYPE>  (728) 
MS1

>  <INSTRUMENT TYPE>  (728) 
EI-B

>  <INSTRUMENT>  (728) 
HITACHI M-80

>  <ION MODE>  (728) 
P

>  <INCHIKEY>  (728) 
OYTKINVCDFNREN-UHFFFAOYSA-N

>  <FORMULA>  (728) 
C5H7N3

>  <EXACT MASS>  (728) 
109.06399722399999

>  <MW>  (728) 
109

>  <ID>  (728) 
JP011102

>  <CONTRIBUTOR>  (728) 
University of Tokyo Team, {Faculty of Engineering, University of Tokyo

>  <COMMENT>  (728) 
SMILES=Nc(c1)c(N)cnc1
cas=54-96-6
InChI=InChI=1S/C5H7N3/c6-4-1-2-8-3-5(4)7/h1-3H,7H2,(H2,6,8)
computed SMILES=N=C1C=CNC=C1N
accession=JP011102
date=2016.01.19 (Created 2008.10.21, modified 2011.05.06)
author=YAMAMOTO M, DEP. CHEMISTRY, FAC. SCIENCE, NARA WOMEN'S UNIV.
license=CC BY-NC-SA
exact mass=109.064
ionization energy=70 eV
ion type=[M]+*
computed spectral entropy=2.6918352912006203
computed normalized entropy=0.7698639982553419
SPLASH=splash10-0a4i-9500000000-a63c0bd9a1bb53b616fd
submitter=submitter = University of Tokyo Team (Faculty of Engineering, University of Tokyo)
MoNA Rating=3.75

>  <NUM PEAKS>  (728) 
33

>  <MASS SPECTRAL PEAKS>  (728) 
18 2.05
26 2.71
27 3.79
28 22.55
29 3.05
30 1.92
37 1.19
38 4.79
39 4.18
40 5.81
41 10.31
42 5.02
43 1.65
51 1.94
52 12.06
53 7.56
54 21.19
55 13.46
56 4.72
64 2.65
65 6.85
66 3.05
67 2.27
68 1.45
69 3.55
80 1.05
81 15.24
82 14.17
92 1.39
93 1.25
108 4.8
109 99.99
110 6.99

$$$$

     RDKit          2D

 16 17  0  0  0  0  0  0  0  0999 V2000
    2.6000   -0.7500    0.0000 C   0  0  0  0  0  0  0  0  0  0  0  0
   -2.6000    0.7500    0.0000 C   0  0  0  0  0  0  0  0  0  0  0  0
    1.3000   -1.5000    0.0000 C   0  0  0  0  0  0  0  0  0  0  0  0
   -1.3000    1.5000    0.0000 C   0  0  0  0  0  0  0  0  0  0  0  0
    2.6000    0.7500    0.0000 C   0  0  0  0  0  0  0  0  0  0  0  0
   -2.6000   -0.7500    0.0000 C   0  0  0  0  0  0  0  0  0  0  0  0
    0.0000   -0.7500    0.0000 C   0  0  0  0  0  0  0  0  0  0  0  0
    0.0000    0.7500    0.0000 C   0  0  0  0  0  0  0  0  0  0  0  0
    1.3000    1.5000    0.0000 C   0  0  0  0  0  0  0  0  0  0  0  0
   -1.3000   -1.5000    0.0000 C   0  0  0  0  0  0  0  0  0  0  0  0
    1.3000    3.0000    0.0000 N   0  0  0  0  0  0  0  0  0  0  0  0
   -1.3000   -3.0000    0.0000 N   0  0  0  0  0  0  0  0  0  0  0  0
    2.5990    3.7500    0.0000 O   0  0  0  0  0  0  0  0  0  0  0  0
    0.0010    3.7500    0.0000 O   0  0  0  0  0  0  0  0  0  0  0  0
   -2.5990   -3.7500    0.0000 O   0  0  0  0  0  0  0  0  0  0  0  0
   -0.0010   -3.7500    0.0000 O   0  0  0  0  0  0  0  0  0  0  0  0
  3  1  2  0
  4  2  2  0
  5  1  1  0
  6  2  1  0
  7  3  1  0
  8  4  1  0
  8  7  2  0
  9  5  2  0
  9  8  1  0
 10  6  2  0
 10  7  1  0
 11  9  1  0
 12 10  1  0
 13 11  1  0
 14 11  2  0
 15 12  1  0
 16 12  2  0
M  CHG  4  11   1  12   1  13  -1  15  -1
M  END
>  <NAME>  (729) 
1,5-DINITRONAPHTHALENE

>  <SYNONYMS>  (729) 


>  <SPECTRUM TYPE>  (729) 
MS1

>  <INSTRUMENT TYPE>  (729) 
EI-B

>  <INSTRUMENT>  (729) 
HITACHI M-80

>  <ION MODE>  (729) 
P

>  <INCHIKEY>  (729) 
ZUTCJXFCHHDFJS-UHFFFAOYSA-N

>  <FORMULA>  (729) 
C10H6N2O4

>  <EXACT MASS>  (729) 
218.032756672

>  <MW>  (729) 
218

>  <ID>  (729) 
JP011101

>  <CONTRIBUTOR>  (729) 
University of Tokyo Team, {Faculty of Engineering, University of Tokyo

>  <COMMENT>  (729) 
SMILES=[O-1][N+1](=O)c(c2)c(c1)c(cc2)c(cc1)[N+1]([O-1])=O
cas=605-71-0
InChI=InChI=1S/C10H6N2O4/c13-11(14)9-5-1-3-7-8(9)4-2-6-10(7)12(15)16/h1-6H
computed SMILES=O=N(=O)C=1C=CC=C2C1C=CC=C2N(=O)=O
accession=JP011101
date=2016.01.19 (Created 2008.10.21, modified 2011.05.06)
author=YAMAMOTO M, DEP. CHEMISTRY, FAC. SCIENCE, NARA WOMEN'S UNIV.
license=CC BY-NC-SA
exact mass=218.03276
ionization energy=70 eV
ion type=[M]+*
computed spectral entropy=3.7558220822060906
computed normalized entropy=0.8522943876076862
SPLASH=splash10-02di-6910000000-3a146f55260c313530fd
submitter=submitter = University of Tokyo Team (Faculty of Engineering, University of Tokyo)
MoNA Rating=3.75

>  <NUM PEAKS>  (729) 
82

>  <MASS SPECTRAL PEAKS>  (729) 
17 1.27
18 6.8
27 2.24
28 15.59
30 28.8
32 4.03
37 1.12
38 1.77
39 7.64
41 1.01
46 6.1
50 12.27
51 10.44
52 3.77
53 1
55 1.34
61 2.52
62 10.72
63 24.76
64 5.24
65 1.98
73 1.16
74 26.28
75 32.57
76 28.87
77 11.39
78 1.88
85 1.63
86 7.83
87 15.15
88 19.14
89 26.89
90 10.16
91 5.54
92 1.43
98 8.9
99 12.77
100 12.38
101 11.53
102 32.26
103 4.3
104 14.68
105 7.05
106 1.19
111 1.55
112 1.19
113 27.16
114 99.99
115 15.36
116 17.97
117 4.02
118 4.8
119 21.79
120 4.63
122 1.8
125 8.89
126 79.41
127 14.88
128 4.73
129 4.54
130 16.13
131 1.99
132 9.88
133 1.59
141 6.19
142 10.47
143 2.31
144 2.94
145 1.6
146 2.2
149 2.01
156 2.59
157 1.32
158 14.42
159 2.86
160 1.89
172 5.19
173 2.51
188 2.42
202 1.06
218 71.72
219 8.54

$$$$

     RDKit          2D

 12 12  0  0  0  0  0  0  0  0999 V2000
    0.7500    1.3100    0.0000 C   0  0  0  0  0  0  0  0  0  0  0  0
   -0.7600    1.2900    0.0000 C   0  0  0  0  0  0  0  0  0  0  0  0
    0.7500   -1.2900    0.0000 C   0  0  0  0  0  0  0  0  0  0  0  0
   -0.7300   -1.3000    0.0000 C   0  0  0  0  0  0  0  0  0  0  0  0
    1.4900    0.0200    0.0000 C   0  0  0  0  0  0  0  0  0  0  0  0
   -1.5000   -0.0100    0.0000 C   0  0  0  0  0  0  0  0  0  0  0  0
    2.9900    0.0250    0.0000 N   0  0  0  0  0  0  0  0  0  0  0  0
   -2.9999   -0.0255    0.0000 N   0  0  0  0  0  0  0  0  0  0  0  0
    3.7357    1.3265    0.0000 O   0  0  0  0  0  0  0  0  0  0  0  0
    3.7443   -1.2716    0.0000 O   0  0  0  0  0  0  0  0  0  0  0  0
   -3.7633    1.2657    0.0000 O   0  0  0  0  0  0  0  0  0  0  0  0
   -3.7365   -1.3322    0.0000 O   0  0  0  0  0  0  0  0  0  0  0  0
  2  1  2  0
  4  3  1  0
  5  1  1  0
  5  3  2  0
  6  2  1  0
  6  4  2  0
  7  5  1  0
  8  6  1  0
  9  7  1  0
 10  7  2  0
 11  8  1  0
 12  8  2  0
M  CHG  4   7   1   8   1   9  -1  11  -1
M  END
>  <NAME>  (730) 
1,4-DINITROBENZENE

>  <SYNONYMS>  (730) 


>  <SPECTRUM TYPE>  (730) 
MS1

>  <INSTRUMENT TYPE>  (730) 
EI-B

>  <INSTRUMENT>  (730) 
HITACHI M-80

>  <ION MODE>  (730) 
P

>  <INCHIKEY>  (730) 
FYFDQJRXFWGIBS-UHFFFAOYSA-N

>  <FORMULA>  (730) 
C6H4N2O4

>  <EXACT MASS>  (730) 
168.017106608

>  <MW>  (730) 
168

>  <ID>  (730) 
JP011100

>  <CONTRIBUTOR>  (730) 
University of Tokyo Team, {Faculty of Engineering, University of Tokyo

>  <COMMENT>  (730) 
SMILES=[O-1][N+1](=O)c(c1)ccc(c1)[N+1]([O-1])=O
cas=100-25-4
InChI=InChI=1S/C6H4N2O4/c9-7(10)5-1-2-6(4-3-5)8(11)12/h1-4H
computed SMILES=O=N(=O)C1=CC=C(C=C1)N(=O)=O
accession=JP011100
date=2016.01.19 (Created 2008.10.21, modified 2011.05.06)
author=YAMAMOTO M, DEP. CHEMISTRY, FAC. SCIENCE, NARA WOMEN'S UNIV.
license=CC BY-NC-SA
exact mass=168.01711
ionization energy=70 eV
ion type=[M]+*
computed spectral entropy=2.655933472826608
computed normalized entropy=0.7734255588831785
SPLASH=splash10-00pi-9200000000-cc46688f3d179b59528b
submitter=submitter = University of Tokyo Team (Faculty of Engineering, University of Tokyo)
MoNA Rating=3.75

>  <NUM PEAKS>  (730) 
31

>  <MASS SPECTRAL PEAKS>  (730) 
18 2.17
26 1.68
28 3.49
30 99.99
37 4.98
38 8.68
39 5.34
46 7.85
49 2.08
50 60.95
51 7.1
52 2.77
53 3.26
54 1.23
61 3.39
62 6.59
63 19.06
64 20.58
65 1.42
73 4.28
74 28.86
75 74.2
76 60.61
77 5.04
92 21
93 1.6
122 23.01
123 1.67
152 1.86
168 78.87
169 6.08

$$$$

     RDKit          2D

 14 16  0  0  0  0  0  0  0  0999 V2000
    3.9000   -0.7500    0.0000 C   0  0  0  0  0  0  0  0  0  0  0  0
    3.9000    0.7500    0.0000 C   0  0  0  0  0  0  0  0  0  0  0  0
   -3.9000   -0.7500    0.0000 C   0  0  0  0  0  0  0  0  0  0  0  0
   -3.9000    0.7500    0.0000 C   0  0  0  0  0  0  0  0  0  0  0  0
    2.6000   -1.5000    0.0000 C   0  0  0  0  0  0  0  0  0  0  0  0
    2.6000    1.5000    0.0000 C   0  0  0  0  0  0  0  0  0  0  0  0
   -2.6000   -1.5000    0.0000 C   0  0  0  0  0  0  0  0  0  0  0  0
   -2.6000    1.5000    0.0000 C   0  0  0  0  0  0  0  0  0  0  0  0
   -0.0000   -1.5000    0.0000 C   0  0  0  0  0  0  0  0  0  0  0  0
   -0.0000    1.5000    0.0000 C   0  0  0  0  0  0  0  0  0  0  0  0
    1.3000   -0.7500    0.0000 C   0  0  0  0  0  0  0  0  0  0  0  0
    1.3000    0.7500    0.0000 C   0  0  0  0  0  0  0  0  0  0  0  0
   -1.3000   -0.7500    0.0000 C   0  0  0  0  0  0  0  0  0  0  0  0
   -1.3000    0.7500    0.0000 C   0  0  0  0  0  0  0  0  0  0  0  0
  2  1  2  0
  4  3  2  0
  5  1  1  0
  6  2  1  0
  7  3  1  0
  8  4  1  0
 11  5  2  0
 11  9  1  0
 12  6  2  0
 12 10  1  0
 12 11  1  0
 13  7  2  0
 13  9  1  0
 14  8  2  0
 14 10  1  0
 14 13  1  0
M  END
>  <NAME>  (731) 
9,10-DIHYDROANTHRACENE

>  <SYNONYMS>  (731) 


>  <SPECTRUM TYPE>  (731) 
MS1

>  <INSTRUMENT TYPE>  (731) 
EI-B

>  <INSTRUMENT>  (731) 
HITACHI M-80

>  <ION MODE>  (731) 
P

>  <INCHIKEY>  (731) 
WPDAVTSOEQEGMS-UHFFFAOYSA-N

>  <FORMULA>  (731) 
C14H12

>  <EXACT MASS>  (731) 
180.093900384

>  <MW>  (731) 
180

>  <ID>  (731) 
JP011098

>  <CONTRIBUTOR>  (731) 
University of Tokyo Team, {Faculty of Engineering, University of Tokyo

>  <COMMENT>  (731) 
SMILES=c(c3)cc(C1)c(c3)Cc(c2)c(ccc2)1
cas=613-31-0
InChI=InChI=1S/C14H12/c1-2-6-12-10-14-8-4-3-7-13(14)9-11(12)5-1/h1-8H,9-10H2
computed SMILES=C=1C=CC2=C(C1)CC=3C=CC=CC3C2
accession=JP011098
date=2016.01.19 (Created 2008.10.21, modified 2011.05.06)
author=YAMAMOTO M, DEP. CHEMISTRY, FAC. SCIENCE, NARA WOMEN'S UNIV.
license=CC BY-NC-SA
exact mass=180.0939
ionization energy=70 eV
ion type=[M]+*
computed spectral entropy=2.5408297120825476
computed normalized entropy=0.7036520279747743
SPLASH=splash10-0059-1900000000-e39849b0a6157bad92a4
submitter=submitter = University of Tokyo Team (Faculty of Engineering, University of Tokyo)
MoNA Rating=3.75

>  <NUM PEAKS>  (731) 
37

>  <MASS SPECTRAL PEAKS>  (731) 
27 1.82
39 2.78
50 2.37
51 3.79
62 1.73
63 5.46
74 2.3
75 3.41
76 7.83
77 2.01
83 2.28
86 1.07
87 2.09
88 5.01
89 13.22
90 3.47
102 1.2
115 1.91
126 1.93
127 1.25
128 1.4
139 2.31
150 3.27
151 6.03
152 9.44
153 1.91
163 1.01
165 18.62
166 2.82
175 1.33
176 10.5
177 7.22
178 47.86
179 86.03
180 99.99
181 14.43
182 1.15

$$$$

     RDKit          2D

 13 13  0  0  0  0  0  0  0  0999 V2000
    3.9321   -0.3929    0.0000 C   0  0  0  0  0  0  0  0  0  0  0  0
    3.9326    1.1076    0.0000 C   0  0  0  0  0  0  0  0  0  0  0  0
   -1.2645   -0.3937    0.0000 C   0  0  0  0  0  0  0  0  0  0  0  0
    0.0345   -1.1437    0.0000 C   0  0  0  0  0  0  0  0  0  0  0  0
   -2.5631    1.8571    0.0000 C   0  0  0  0  0  0  0  0  0  0  0  0
   -3.8621    1.1071    0.0000 C   0  0  0  0  0  0  0  0  0  0  0  0
    0.0355    1.8580    0.0000 C   0  0  0  0  0  0  0  0  0  0  0  0
   -1.2641    1.1071    0.0000 C   0  0  0  0  0  0  0  0  0  0  0  0
    1.3340   -0.3929    0.0000 C   0  0  0  0  0  0  0  0  0  0  0  0
    1.3345    1.1080    0.0000 C   0  0  0  0  0  0  0  0  0  0  0  0
   -5.1612    0.3571    0.0000 N   0  0  0  0  0  0  0  0  0  0  0  0
    2.6330   -1.1429    0.0000 O   0  0  0  0  0  0  0  0  0  0  0  0
    2.6336    1.8578    0.0000 O   0  0  0  0  0  0  0  0  0  0  0  0
  4  3  2  0
  6  5  1  0
  8  3  1  0
  8  5  1  0
  8  7  2  0
  9  4  1  0
 10  7  1  0
 10  9  2  0
 11  6  3  0
 12  1  1  0
 12  9  1  0
 13  2  1  0
 13 10  1  0
M  END
>  <NAME>  (732) 
(3,4-DIMETHOXYPHENYL)ACETONITRILE

>  <SYNONYMS>  (732) 
HOMOVERATRONITRILE

>  <SPECTRUM TYPE>  (732) 
MS1

>  <INSTRUMENT TYPE>  (732) 
EI-B

>  <INSTRUMENT>  (732) 
HITACHI M-80

>  <ION MODE>  (732) 
P

>  <INCHIKEY>  (732) 
ASLSUMISAQDOOB-UHFFFAOYSA-N

>  <FORMULA>  (732) 
C10H11NO2

>  <EXACT MASS>  (732) 
177.078978592

>  <MW>  (732) 
177

>  <ID>  (732) 
JP011097

>  <CONTRIBUTOR>  (732) 
University of Tokyo Team, {Faculty of Engineering, University of Tokyo

>  <COMMENT>  (732) 
SMILES=N#CCc(c1)cc(OC)c(OC)c1
cas=93-17-4
InChI=InChI=1S/C10H11NO2/c1-12-9-4-3-8(5-6-11)7-10(9)13-2/h3-4,7H,5H2,1-2H3
computed SMILES=N#CCC1=CC=C(OC)C(OC)=C1
accession=JP011097
date=2016.01.19 (Created 2008.10.21, modified 2011.05.06)
author=YAMAMOTO M, DEP. CHEMISTRY, FAC. SCIENCE, NARA WOMEN'S UNIV.
license=CC BY-NC-SA
exact mass=177.07898
ionization energy=70 eV
ion type=[M]+*
computed spectral entropy=2.973107856776215
computed normalized entropy=0.7680065820397554
SPLASH=splash10-004i-4900000000-bb83e5e2e813f65acdd4
submitter=submitter = University of Tokyo Team (Faculty of Engineering, University of Tokyo)
MoNA Rating=3.75

>  <NUM PEAKS>  (732) 
48

>  <MASS SPECTRAL PEAKS>  (732) 
15 5.65
29 1.37
31 1.14
38 1.58
39 3.78
50 2.55
51 6.05
52 1.3
53 1.67
62 1.71
63 6.59
64 6.51
65 7.58
66 1.44
75 1.53
76 3.64
77 8.43
78 2.73
79 6.48
89 3.04
90 2.89
91 7.46
92 1.41
94 14.32
95 1.01
102 1.26
103 2.58
104 2.18
105 4.9
106 4.84
107 22.97
108 2.16
116 6.86
119 4.26
130 1.58
131 1.24
132 1.06
134 10
135 1.71
146 4.98
151 1.54
160 1.06
161 1.64
162 30.61
163 3.31
176 1.38
177 99.99
178 11.66

$$$$

     RDKit          2D

  9  9  0  0  0  0  0  0  0  0999 V2000
    2.2733   -0.6175    0.0000 C   0  0  0  0  0  0  0  0  0  0  0  0
    2.2738    0.8833    0.0000 C   0  0  0  0  0  0  0  0  0  0  0  0
    0.9738   -1.3683    0.0000 C   0  0  0  0  0  0  0  0  0  0  0  0
    0.9748    1.6333    0.0000 C   0  0  0  0  0  0  0  0  0  0  0  0
   -0.3252   -0.6183    0.0000 C   0  0  0  0  0  0  0  0  0  0  0  0
   -0.3248    0.8825    0.0000 C   0  0  0  0  0  0  0  0  0  0  0  0
   -1.6238    1.6325    0.0000 C   0  0  0  0  0  0  0  0  0  0  0  0
   -2.9228    0.8825    0.0000 N   0  0  0  0  0  0  0  0  0  0  0  0
   -1.6238    3.1325    0.0000 O   0  0  0  0  0  0  0  0  0  0  0  0
  2  1  2  0
  3  1  1  0
  4  2  1  0
  5  3  2  0
  6  4  2  0
  6  5  1  0
  7  6  1  0
  8  7  2  0
  9  7  1  0
M  END
>  <NAME>  (733) 
BENZAMIDE

>  <SYNONYMS>  (733) 


>  <SPECTRUM TYPE>  (733) 
MS1

>  <INSTRUMENT TYPE>  (733) 
EI-B

>  <INSTRUMENT>  (733) 
HITACHI M-80

>  <ION MODE>  (733) 
P

>  <INCHIKEY>  (733) 
KXDAEFPNCMNJSK-UHFFFAOYSA-N

>  <FORMULA>  (733) 
C7H7NO

>  <EXACT MASS>  (733) 
121.052763844

>  <MW>  (733) 
121

>  <ID>  (733) 
JP011096

>  <CONTRIBUTOR>  (733) 
University of Tokyo Team, {Faculty of Engineering, University of Tokyo

>  <COMMENT>  (733) 
SMILES=NC(=O)c(c1)cccc1
cas=55-21-0
InChI=InChI=1S/C7H7NO/c8-7(9)6-4-2-1-3-5-6/h1-5H,(H2,8,9)
computed SMILES=N=C(O)C=1C=CC=CC1
accession=JP011096
date=2016.01.19 (Created 2008.10.21, modified 2011.05.06)
author=YAMAMOTO M, DEP. CHEMISTRY, FAC. SCIENCE, NARA WOMEN'S UNIV.
license=CC BY-NC-SA
exact mass=121.05276
ionization energy=70 eV
ion type=[M]+*
computed spectral entropy=2.1599868292066726
computed normalized entropy=0.6796570934640804
SPLASH=splash10-0adi-7900000000-c79bab8ceedf3b276ae1
submitter=submitter = University of Tokyo Team (Faculty of Engineering, University of Tokyo)
MoNA Rating=3.75

>  <NUM PEAKS>  (733) 
24

>  <MASS SPECTRAL PEAKS>  (733) 
16 1.2
27 2.32
28 1.18
37 1.62
38 2.6
39 3.53
44 8.91
49 1.38
50 13.43
51 29.62
52 4.66
63 1.17
65 1.42
73 1.27
74 5.67
75 3.21
76 4.99
77 71.31
78 9.87
104 1.34
105 99.99
106 7.83
121 91.29
122 8.97

$$$$

     RDKit          2D

 18 19  0  0  0  0  0  0  0  0999 V2000
   10.3943   -1.5002    0.0000 C   0  0  0  0  0  0  0  0  0  0  0  0
   -2.5989   -1.5006    0.0000 C   0  0  0  0  0  0  0  0  0  0  0  0
    9.0954    0.7500    0.0000 C   0  0  0  0  0  0  0  0  0  0  0  0
    7.7954   -1.5000    0.0000 C   0  0  0  0  0  0  0  0  0  0  0  0
   -0.0007   -1.5008    0.0000 C   0  0  0  0  0  0  0  0  0  0  0  0
   -1.2993    0.7500    0.0000 C   0  0  0  0  0  0  0  0  0  0  0  0
    7.7954    1.5000    0.0000 C   0  0  0  0  0  0  0  0  0  0  0  0
    6.4954   -0.7500    0.0000 C   0  0  0  0  0  0  0  0  0  0  0  0
    1.2988   -0.7500    0.0000 C   0  0  0  0  0  0  0  0  0  0  0  0
    0.0002    1.5008    0.0000 C   0  0  0  0  0  0  0  0  0  0  0  0
    9.0954   -0.7500    0.0000 C   0  0  0  0  0  0  0  0  0  0  0  0
   -1.2998   -0.7508    0.0000 C   0  0  0  0  0  0  0  0  0  0  0  0
    6.4954    0.7500    0.0000 C   0  0  0  0  0  0  0  0  0  0  0  0
    1.2993    0.7508    0.0000 C   0  0  0  0  0  0  0  0  0  0  0  0
    3.8974    0.7504    0.0000 C   0  0  0  0  0  0  0  0  0  0  0  0
    5.1965    1.5002    0.0000 N   0  0  0  0  0  0  0  0  0  0  0  0
    2.5984    1.5006    0.0000 N   0  0  0  0  0  0  0  0  0  0  0  0
    3.8971   -0.7496    0.0000 S   0  0  0  0  0  0  0  0  0  0  0  0
  7  3  2  0
  8  4  1  0
  9  5  2  0
 10  6  1  0
 11  1  1  0
 11  3  1  0
 11  4  2  0
 12  2  1  0
 12  5  1  0
 12  6  2  0
 13  7  1  0
 13  8  2  0
 14  9  1  0
 14 10  2  0
 16 13  1  0
 16 15  1  0
 17 14  1  0
 17 15  1  0
 18 15  2  0
M  END
>  <NAME>  (734) 
4,4'-DITOLYLTHIOUREA

>  <SYNONYMS>  (734) 


>  <SPECTRUM TYPE>  (734) 
MS1

>  <INSTRUMENT TYPE>  (734) 
EI-B

>  <INSTRUMENT>  (734) 
HITACHI M-80

>  <ION MODE>  (734) 
P

>  <INCHIKEY>  (734) 
ULNVBRUIKLYGDF-UHFFFAOYSA-N

>  <FORMULA>  (734) 
C15H16N2S

>  <EXACT MASS>  (734) 
256.103419512

>  <MW>  (734) 
256

>  <ID>  (734) 
JP011095

>  <CONTRIBUTOR>  (734) 
University of Tokyo Team, {Faculty of Engineering, University of Tokyo

>  <COMMENT>  (734) 
cas=621-01-2
SMILES=Cc(c2)ccc(c2)NC(=S)Nc(c1)ccc(C)c1
InChI=InChI=1S/C15H16N2S/c1-11-3-7-13(8-4-11)16-15(18)17-14-9-5-12(2)6-10-14/h3-10H,1-2H3,(H2,16,17,18)
computed SMILES=S=C(NC1=CC=C(C=C1)C)NC2=CC=C(C=C2)C
accession=JP011095
date=2016.01.19 (Created 2008.10.21, modified 2011.05.06)
author=YAMAMOTO M, DEP. CHEMISTRY, FAC. SCIENCE, NARA WOMEN'S UNIV.
license=CC BY-NC-SA
exact mass=256.10342
ionization energy=70 eV
ion type=[M]+*
computed spectral entropy=3.1075127223967978
computed normalized entropy=0.7864644511253926
SPLASH=splash10-0bt9-8930000000-298e9968fa5e0e783c65
submitter=submitter = University of Tokyo Team (Faculty of Engineering, University of Tokyo)
MoNA Rating=3.75

>  <NUM PEAKS>  (734) 
52

>  <MASS SPECTRAL PEAKS>  (734) 
28 2.5
32 18.38
34 1.05
39 3.82
41 1.27
44 1.02
51 2.99
52 1.75
53 1.33
63 2.74
64 99.99
65 8.55
66 9.16
77 6.46
78 2.27
79 4.06
80 1
89 2.7
90 1.6
91 16.93
92 2.09
96 22.62
98 3.21
104 1.49
105 1.04
106 29.13
107 59.57
108 4.87
123 2.36
124 5.03
127 1.21
128 39.57
129 1.27
130 7.34
132 3.04
133 3.01
148 3.02
149 7.06
150 5.27
160 26.89
161 1.08
162 5.88
192 14.03
194 3.69
222 2.68
223 3.32
224 1.64
255 2.57
256 44.57
257 4.94
258 15.8
260 2.54

$$$$

     RDKit          2D

 17 18  0  0  0  0  0  0  0  0999 V2000
    3.2481    2.1950    0.0000 C   0  0  0  0  0  0  0  0  0  0  0  0
   -7.1442    2.1950    0.0000 C   0  0  0  0  0  0  0  0  0  0  0  0
    3.2486    3.6958    0.0000 C   0  0  0  0  0  0  0  0  0  0  0  0
    1.9486    1.4442    0.0000 C   0  0  0  0  0  0  0  0  0  0  0  0
   -5.8447    1.4442    0.0000 C   0  0  0  0  0  0  0  0  0  0  0  0
   -7.1447    3.6958    0.0000 C   0  0  0  0  0  0  0  0  0  0  0  0
    1.9495    4.4458    0.0000 C   0  0  0  0  0  0  0  0  0  0  0  0
    0.6495    2.1942    0.0000 C   0  0  0  0  0  0  0  0  0  0  0  0
   -4.5457    2.1942    0.0000 C   0  0  0  0  0  0  0  0  0  0  0  0
   -5.8457    4.4458    0.0000 C   0  0  0  0  0  0  0  0  0  0  0  0
   -1.9481    3.6950    0.0000 C   0  0  0  0  0  0  0  0  0  0  0  0
    0.6500    3.6950    0.0000 C   0  0  0  0  0  0  0  0  0  0  0  0
   -4.5462    3.6950    0.0000 C   0  0  0  0  0  0  0  0  0  0  0  0
   -0.6490    4.4450    0.0000 C   0  0  0  0  0  0  0  0  0  0  0  0
   -3.2471    4.4450    0.0000 C   0  0  0  0  0  0  0  0  0  0  0  0
   -0.6490    5.9450    0.0000 O   0  0  0  0  0  0  0  0  0  0  0  0
   -3.2471    5.9450    0.0000 O   0  0  0  0  0  0  0  0  0  0  0  0
  3  1  2  0
  4  1  1  0
  5  2  2  0
  6  2  1  0
  7  3  1  0
  8  4  2  0
  9  5  1  0
 10  6  2  0
 12  7  2  0
 12  8  1  0
 13  9  2  0
 13 10  1  0
 14 11  1  0
 14 12  1  0
 15 11  1  0
 15 13  1  0
 16 14  2  0
 17 15  2  0
M  END
>  <NAME>  (735) 
1,3-DIPHENYL-1,3-PROPANEDIONE

>  <SYNONYMS>  (735) 
DIBENZOYLMETHANE

>  <SPECTRUM TYPE>  (735) 
MS1

>  <INSTRUMENT TYPE>  (735) 
EI-B

>  <INSTRUMENT>  (735) 
HITACHI M-80

>  <ION MODE>  (735) 
P

>  <INCHIKEY>  (735) 
NZZIMKJIVMHWJC-UHFFFAOYSA-N

>  <FORMULA>  (735) 
C15H12O2

>  <EXACT MASS>  (735) 
224.083729624

>  <MW>  (735) 
224

>  <ID>  (735) 
JP011094

>  <CONTRIBUTOR>  (735) 
University of Tokyo Team, {Faculty of Engineering, University of Tokyo

>  <COMMENT>  (735) 
SMILES=O=C(CC(=O)c(c2)cccc2)c(c1)cccc1
cas=120-46-7
InChI=InChI=1S/C15H12O2/c16-14(12-7-3-1-4-8-12)11-15(17)13-9-5-2-6-10-13/h1-10H,11H2
computed SMILES=O=C(C=1C=CC=CC1)CC(=O)C=2C=CC=CC2
accession=JP011094
date=2016.01.19 (Created 2008.10.21, modified 2011.05.06)
author=YAMAMOTO M, DEP. CHEMISTRY, FAC. SCIENCE, NARA WOMEN'S UNIV.
license=CC BY-NC-SA
exact mass=224.08373
ionization energy=70 eV
ion type=[M]+*
computed spectral entropy=2.7399815296035714
computed normalized entropy=0.7378290983417561
SPLASH=splash10-00di-9580000000-1f78aae39096171fa750
submitter=submitter = University of Tokyo Team (Faculty of Engineering, University of Tokyo)
MoNA Rating=3.75

>  <NUM PEAKS>  (735) 
41

>  <MASS SPECTRAL PEAKS>  (735) 
27 1.75
39 5.83
41 1.04
50 8.35
51 25.95
52 2.54
62 1.51
63 4.92
64 1.44
65 8.15
69 55.77
70 1.8
74 3.01
75 3.64
76 5.47
77 62.72
78 11.04
79 1.5
89 6.44
90 4.38
91 7.75
98 1.68
102 4.08
103 3.02
105 60.65
106 4.8
118 3.6
146 1.33
147 52.93
148 5.16
152 1.24
165 2.05
167 1.47
178 1.86
195 1.27
196 1.9
207 1.09
223 82.93
224 99.99
225 16.52
226 1.66

$$$$

     RDKit          2D

 10 10  0  0  0  0  0  0  0  0999 V2000
    0.0000   -2.1700    0.0000 C   0  0  0  0  0  0  0  0  0  0  0  0
    1.3000   -1.4200    0.0000 C   0  0  0  0  0  0  0  0  0  0  0  0
   -1.3000   -1.4200    0.0000 C   0  0  0  0  0  0  0  0  0  0  0  0
    0.0000    2.3300    0.0000 C   0  0  0  0  0  0  0  0  0  0  0  0
    0.0000    0.8300    0.0000 C   0  0  0  0  0  0  0  0  0  0  0  0
    1.3000    0.0800    0.0000 C   0  0  0  0  0  0  0  0  0  0  0  0
   -1.3000    0.0800    0.0000 C   0  0  0  0  0  0  0  0  0  0  0  0
    2.5989    0.8302    0.0000 Cl  0  0  0  0  0  0  0  0  0  0  0  0
   -2.5989    0.8302    0.0000 Cl  0  0  0  0  0  0  0  0  0  0  0  0
   -1.2990    3.0800    0.0000 O   0  0  0  0  0  0  0  0  0  0  0  0
  2  1  2  0
  3  1  1  0
  5  4  1  0
  6  2  1  0
  6  5  2  0
  7  3  2  0
  7  5  1  0
  8  6  1  0
  9  7  1  0
 10  4  2  0
M  END
>  <NAME>  (736) 
2,6-DICHLOROBENZALDEHYDE

>  <SYNONYMS>  (736) 


>  <SPECTRUM TYPE>  (736) 
MS1

>  <INSTRUMENT TYPE>  (736) 
EI-B

>  <INSTRUMENT>  (736) 
HITACHI M-80

>  <ION MODE>  (736) 
P

>  <INCHIKEY>  (736) 
DMIYKWPEFRFTPY-UHFFFAOYSA-N

>  <FORMULA>  (736) 
C7H4Cl2O

>  <EXACT MASS>  (736) 
173.963920108

>  <MW>  (736) 
174

>  <ID>  (736) 
JP011093

>  <CONTRIBUTOR>  (736) 
University of Tokyo Team, {Faculty of Engineering, University of Tokyo

>  <COMMENT>  (736) 
computed SMILES=O=CC=1C(Cl)=CC=CC1Cl
SMILES=O=Cc(c(Cl)1)c(Cl)ccc1
cas=83-38-5
InChI=InChI=1S/C7H4Cl2O/c8-6-2-1-3-7(9)5(6)4-10/h1-4H
accession=JP011093
date=2016.01.19 (Created 2008.10.21, modified 2011.05.06)
author=YAMAMOTO M, DEP. CHEMISTRY, FAC. SCIENCE, NARA WOMEN'S UNIV.
license=CC BY-NC-SA
exact mass=173.96392
ionization energy=70 eV
ion type=[M]+*
computed spectral entropy=2.967607017866997
computed normalized entropy=0.79397253394214
SPLASH=splash10-00fr-2900000000-de14046156dd8a716c38
submitter=submitter = University of Tokyo Team (Faculty of Engineering, University of Tokyo)
MoNA Rating=3.75

>  <NUM PEAKS>  (736) 
42

>  <MASS SPECTRAL PEAKS>  (736) 
28 1.04
29 7.95
35 1.15
36 1.71
37 5.47
38 2.89
49 4.06
50 11.23
51 3.96
60 1.31
61 3.36
62 2.15
63 1.4
72 1.48
73 6.98
74 21.7
75 36.17
76 3.14
84 8.86
85 4.94
86 3.46
87 1.76
108 1.44
109 11.87
110 17.84
111 17.39
112 6.56
113 4.7
138 5.6
140 1.93
145 16.16
146 11.55
147 11.15
148 7.51
149 2.14
150 1.17
173 99.99
174 71.19
175 69.84
176 46.19
177 13.81
178 7.53

$$$$

     RDKit          2D

  9  9  0  0  0  0  0  0  0  0999 V2000
   -1.3000    0.7500    0.0000 C   0  0  0  0  0  0  0  0  0  0  0  0
    0.0000    1.5000    0.0000 C   0  0  0  0  0  0  0  0  0  0  0  0
   -0.0000   -1.5000    0.0000 C   0  0  0  0  0  0  0  0  0  0  0  0
   -1.3000   -0.7500    0.0000 C   0  0  0  0  0  0  0  0  0  0  0  0
    1.3000    0.7500    0.0000 C   0  0  0  0  0  0  0  0  0  0  0  0
    1.3000   -0.7500    0.0000 C   0  0  0  0  0  0  0  0  0  0  0  0
    2.5989    1.5002    0.0000 Cl  0  0  0  0  0  0  0  0  0  0  0  0
    2.5989   -1.5002    0.0000 Cl  0  0  0  0  0  0  0  0  0  0  0  0
   -2.5989   -1.5002    0.0000 O   0  0  0  0  0  0  0  0  0  0  0  0
  2  1  2  0
  4  1  1  0
  4  3  2  0
  5  2  1  0
  6  3  1  0
  6  5  2  0
  7  5  1  0
  8  6  1  0
  9  4  1  0
M  END
>  <NAME>  (737) 
3,4-DICHLOROPHENOL

>  <SYNONYMS>  (737) 


>  <SPECTRUM TYPE>  (737) 
MS1

>  <INSTRUMENT TYPE>  (737) 
EI-B

>  <INSTRUMENT>  (737) 
HITACHI M-80

>  <ION MODE>  (737) 
P

>  <INCHIKEY>  (737) 
WDNBURPWRNALGP-UHFFFAOYSA-N

>  <FORMULA>  (737) 
C6H4Cl2O

>  <EXACT MASS>  (737) 
161.963920108

>  <MW>  (737) 
162

>  <ID>  (737) 
JP011092

>  <CONTRIBUTOR>  (737) 
University of Tokyo Team, {Faculty of Engineering, University of Tokyo

>  <COMMENT>  (737) 
SMILES=Oc(c1)cc(Cl)c(Cl)c1
cas=95-77-2
InChI=InChI=1S/C6H4Cl2O/c7-5-2-1-4(9)3-6(5)8/h1-3,9H
computed SMILES=ClC1=CC=C(O)C=C1Cl
accession=JP011092
date=2016.01.19 (Created 2008.10.21, modified 2011.05.06)
author=YAMAMOTO M, DEP. CHEMISTRY, FAC. SCIENCE, NARA WOMEN'S UNIV.
license=CC BY-NC-SA
exact mass=161.96392
ionization energy=70 eV
ion type=[M]+*
computed spectral entropy=2.6597651185750073
computed normalized entropy=0.7311895861114315
SPLASH=splash10-03di-4900000000-2b1f5001662fc482f6fc
submitter=submitter = University of Tokyo Team (Faculty of Engineering, University of Tokyo)
MoNA Rating=3.75

>  <NUM PEAKS>  (737) 
38

>  <MASS SPECTRAL PEAKS>  (737) 
29 2.64
35 1.51
36 1.2
37 3.96
38 2.98
39 2.42
49 2.93
50 2.42
53 2.6
60 1.56
61 5.33
62 8.23
63 22.89
64 2.55
72 3.13
73 9.8
74 2.68
75 3.2
81 1.35
97 2.51
98 6.69
99 30.38
100 3.94
101 9.95
107 1.27
109 1.13
126 3.96
127 2.63
128 1.59
133 4.34
134 2.72
135 2.82
136 1.67
162 99.99
163 7.21
164 65.87
165 4.45
166 10.36

$$$$

     RDKit          2D

 10 10  0  0  0  0  0  0  0  0999 V2000
    2.5992   -0.7500    0.0000 C   0  0  0  0  0  0  0  0  0  0  0  0
    1.2992   -1.5000    0.0000 C   0  0  0  0  0  0  0  0  0  0  0  0
    1.2992    1.5000    0.0000 C   0  0  0  0  0  0  0  0  0  0  0  0
   -1.2998    1.5002    0.0000 C   0  0  0  0  0  0  0  0  0  0  0  0
   -0.0008    0.7500    0.0000 C   0  0  0  0  0  0  0  0  0  0  0  0
    2.5992    0.7500    0.0000 C   0  0  0  0  0  0  0  0  0  0  0  0
   -0.0008   -0.7500    0.0000 C   0  0  0  0  0  0  0  0  0  0  0  0
    3.8981    1.5002    0.0000 Cl  0  0  0  0  0  0  0  0  0  0  0  0
   -1.2998   -1.5002    0.0000 Cl  0  0  0  0  0  0  0  0  0  0  0  0
   -2.5989    0.7504    0.0000 O   0  0  0  0  0  0  0  0  0  0  0  0
  2  1  2  0
  5  3  1  0
  5  4  1  0
  6  1  1  0
  6  3  2  0
  7  2  1  0
  7  5  2  0
  8  6  1  0
  9  7  1  0
 10  4  1  0
M  END
>  <NAME>  (738) 
2,5-DICHLOROBENZYL ALCOHOL

>  <SYNONYMS>  (738) 


>  <SPECTRUM TYPE>  (738) 
MS1

>  <INSTRUMENT TYPE>  (738) 
EI-B

>  <INSTRUMENT>  (738) 
HITACHI M-80

>  <ION MODE>  (738) 
P

>  <INCHIKEY>  (738) 
LCEIGNVIDJNUGF-UHFFFAOYSA-N

>  <FORMULA>  (738) 
C7H6Cl2O

>  <EXACT MASS>  (738) 
175.979570172

>  <MW>  (738) 
176

>  <ID>  (738) 
JP011091

>  <CONTRIBUTOR>  (738) 
University of Tokyo Team, {Faculty of Engineering, University of Tokyo

>  <COMMENT>  (738) 
SMILES=OCc(c1)c(Cl)ccc(Cl)1
cas=34145-05-6
InChI=InChI=1S/C7H6Cl2O/c8-6-1-2-7(9)5(3-6)4-10/h1-3,10H,4H2
computed SMILES=ClC1=CC=C(Cl)C(=C1)CO
accession=JP011091
date=2016.01.19 (Created 2008.10.21, modified 2011.05.06)
author=YAMAMOTO M, DEP. CHEMISTRY, FAC. SCIENCE, NARA WOMEN'S UNIV.
license=CC BY-NC-SA
exact mass=175.97957
ionization energy=70 eV
ion type=[M]+*
computed spectral entropy=3.4012187381085397
computed normalized entropy=0.8178202344079681
SPLASH=splash10-004l-4900000000-4b093ab030e939ae4cb3
submitter=submitter = University of Tokyo Team (Faculty of Engineering, University of Tokyo)
MoNA Rating=3.75

>  <NUM PEAKS>  (738) 
64

>  <MASS SPECTRAL PEAKS>  (738) 
27 1.82
28 1.5
29 9.49
30 1.08
31 7.86
36 1.3
37 3.79
38 4.42
39 3.49
49 2.27
50 11.45
51 14.36
52 4.6
60 1.49
61 3.87
62 4.9
63 6.12
72 1.17
73 6.39
74 13.79
75 23.93
76 4.1
77 71.63
78 7.42
84 3.55
85 4.57
86 2.67
87 2.77
88 1.12
89 3.51
97 1.48
99 1.06
105 1.88
109 5.48
110 3.43
111 34.17
112 7.65
113 35.14
114 3.94
115 7.92
123 7.2
124 1.4
125 2.4
139 21.58
140 8.24
141 99.99
142 9.7
143 29.33
144 2.47
145 3.36
146 3.35
147 13
148 2.86
149 7.38
151 1.13
159 6.76
161 4.31
173 1.79
175 5.77
176 66.14
177 7.81
178 41.45
179 3.8
180 6.79

$$$$

     RDKit          2D

 33 36  0  0  1  0  0  0  0  0999 V2000
    9.5655    7.2342    0.0000 C   0  0  0  0  0  0  0  0  0  0  0  0
   10.0746    4.6865    0.0000 C   0  0  0  0  0  0  0  0  0  0  0  0
    8.1228    2.9718    0.0000 C   0  0  0  0  0  0  0  0  0  0  0  0
    3.2009    4.6377    0.0000 C   0  0  0  0  0  0  0  0  0  0  0  0
   -8.0957   -2.8471    0.0000 C   0  0  0  0  0  0  0  0  0  0  0  0
   -1.6125    0.9400    0.0000 C   0  0  0  0  0  0  0  0  0  0  0  0
    2.4507    3.1203    0.0000 C   0  0  0  0  0  0  0  0  0  0  0  0
    8.0946    6.9403    0.0000 C   0  0  0  0  0  0  0  0  0  0  0  0
    5.6618    3.8047    0.0000 C   0  0  0  0  0  0  0  0  0  0  0  0
    6.1427    5.2256    0.0000 C   0  0  0  0  0  0  0  0  0  0  0  0
   -0.3200   -2.8400    0.0000 C   0  0  0  0  0  0  0  0  0  0  0  0
    1.0100   -2.0900    0.0000 C   0  0  0  0  0  0  0  0  0  0  0  0
    4.5500    0.8800    0.0000 C   0  0  0  0  0  0  0  0  0  0  0  0
    3.7100   -0.3100    0.0000 C   0  0  0  0  0  0  0  0  0  0  0  0
   -4.2000   -0.5600    0.0000 C   0  0  0  0  0  0  0  0  0  0  0  0
   -0.3200    1.6300    0.0000 C   0  0  0  0  0  0  0  0  0  0  0  0
   -2.8900    0.1600    0.0000 C   0  0  0  0  0  0  0  0  0  0  0  0
    1.0100    2.3900    0.0000 C   0  0  0  0  0  0  0  0  0  0  0  0
   -2.8900   -2.8400    0.0000 C   0  0  0  0  0  0  0  0  0  0  0  0
    8.6037    4.3926    0.0000 C   0  0  0  0  0  0  0  0  0  0  0  0
    4.1909    3.5108    0.0000 C   0  0  0  0  0  0  0  0  0  0  0  0
   -6.7981   -2.0947    0.0000 C   0  0  0  0  0  0  0  0  0  0  0  0
    7.6137    5.5195    0.0000 C   0  0  0  0  0  0  0  0  0  0  0  0
   -1.6200   -2.0900    0.0000 C   0  0  0  0  0  0  0  0  0  0  0  0
   -4.2000   -2.0900    0.0000 C   0  0  0  0  0  0  0  0  0  0  0  0
    1.0100   -0.5600    0.0000 C   0  0  0  0  0  0  0  0  0  0  0  0
    3.7100    2.0900    0.0000 C   0  0  0  0  0  0  0  0  0  0  0  0
    2.2800    0.1600    0.0000 C   0  0  0  0  0  0  0  0  0  0  0  0
   -0.3200    0.1600    0.0000 C   0  0  0  0  0  0  0  0  0  0  0  0
   -1.6200   -0.5600    0.0000 C   0  0  0  0  0  0  0  0  0  0  0  0
    2.2800    1.6300    0.0000 C   0  0  0  0  0  0  0  0  0  0  0  0
   -6.8008   -0.5947    0.0000 O   0  0  0  0  0  0  0  0  0  0  0  0
   -5.4977   -2.8424    0.0000 O   0  0  0  0  0  0  0  0  0  0  0  0
  8  1  1  0
 10  9  1  0
 12 11  1  0
 14 13  1  0
 17 15  1  0
 18 16  1  0
 20  2  1  0
 20  3  1  0
 21  4  1  6
 21  9  1  0
 22  5  1  0
 23  8  1  1
 23 10  1  0
 23 20  1  0
 24 11  1  1
 24 19  1  0
 25 15  1  0
 25 19  1  0
 26 12  1  6
 27 13  1  1
 27 21  1  0
 28 14  1  1
 28 26  1  0
 29 16  1  1
 29 26  1  0
 30  6  1  1
 30 17  1  0
 30 24  1  0
 30 29  1  0
 31  7  1  1
 31 18  1  0
 31 27  1  0
 31 28  1  0
 32 22  2  0
 33 22  1  0
 25 33  1  1
M  END
>  <NAME>  (739) 
BETA-SITOSTANYL ACETATE

>  <SYNONYMS>  (739) 


>  <SPECTRUM TYPE>  (739) 
MS1

>  <INSTRUMENT TYPE>  (739) 
EI-B

>  <INSTRUMENT>  (739) 
HITACHI M-80

>  <ION MODE>  (739) 
P

>  <INCHIKEY>  (739) 
UOLJGJFAVGOXAH-FATFFRGYSA-N

>  <FORMULA>  (739) 
C31H54O2

>  <EXACT MASS>  (739) 
458.412380968

>  <MW>  (739) 
458

>  <ID>  (739) 
JP011090

>  <CONTRIBUTOR>  (739) 
University of Tokyo Team, {Faculty of Engineering, University of Tokyo

>  <COMMENT>  (739) 
SMILES=C(C4)(C([H])(C(C(C)3C4)(CCC3(C(CCC([H])(C(C)C)CC)([H])C)[H])[H])2)([H])C(C([H])1CC2)(C)CCC(OC(C)=O)([H])C1
InChI=InChI=1S/C31H54O2/c1-8-23(20(2)3)10-9-21(4)27-13-14-28-26-12-11-24-19-25(33-22(5)32)15-17-30(24,6)29(26)16-18-31(27,28)7/h20-21,23-29H,8-19H2,1-7H3/t21-,23-,24+,25+,26+,27-,28+,29+,30+,31-/m1/s1
computed SMILES=O=C(OC1CCC2(C)C(CCC3C4CCC(C(C)CCC(CC)C(C)C)C4(C)CCC32)C1)C
accession=JP011090
date=2016.01.19 (Created 2008.10.21, modified 2011.05.06)
author=YAMAMOTO M, DEP. CHEMISTRY, FAC. SCIENCE, NARA WOMEN'S UNIV.
license=CC BY-NC-SA
exact mass=458.41238
ionization energy=70 eV
ion type=[M]+*
computed spectral entropy=4.24136238290606
computed normalized entropy=0.8784355395421787
SPLASH=splash10-0aou-9530000000-b5c33d893655b5e09c7b
submitter=submitter = University of Tokyo Team (Faculty of Engineering, University of Tokyo)
MoNA Rating=3.75

>  <NUM PEAKS>  (739) 
125

>  <MASS SPECTRAL PEAKS>  (739) 
40 2.93
41 43.7
42 9.51
43 99.99
44 5.71
45 2.9
47 3.03
48 1.48
53 5.4
54 3.69
55 62.8
56 8.09
57 56.81
58 2.6
61 6.84
65 1.6
66 1.29
67 30.8
68 10.48
69 41.01
70 5.19
71 17.69
73 5
75 8.38
77 7.09
78 2.39
79 28.14
80 6.2
81 53.91
82 9.2
83 17.53
84 4.44
85 17.6
86 1.21
91 18.72
92 5.84
93 37.51
94 13.33
95 41.7
96 5
97 12.41
98 6.83
99 2.54
104 2
105 20.53
106 14.21
107 47.63
108 21
109 22.91
110 3.74
111 8.29
117 5.09
118 2.43
119 16.83
120 10.1
121 23.42
122 10.64
123 16.22
124 2.3
125 2.54
129 2.09
131 5.43
132 2.81
133 14.4
134 6.71
135 16.7
136 5.83
137 4.91
138 1.5
145 12.94
146 4.29
147 36.08
149 13.21
150 2
151 2.09
159 6.1
160 4.84
161 11.09
162 5.8
163 5.31
173 5.3
174 3.23
175 4.6
176 3.41
177 2.1
187 4.13
188 3.68
189 3.52
191 1.81
197 1.19
199 1.3
201 15.82
202 4.92
203 3.88
215 79.61
216 41.11
217 23.7
218 4.09
229 2.58
230 23.33
231 7
236 1.29
244 1.6
248 1.41
256 1.71
257 6.2
258 1.41
261 2.69
275 19.63
276 22.3
277 4.09
285 2.4
290 8.71
291 2.52
344 3
356 1.71
383 16.03
384 4.71
398 25.32
399 8.19
400 1.3
443 2.34
458 25.81
459 9.21
460 1.33

$$$$

     RDKit          2D

 44 49  0  0  1  0  0  0  0  0999 V2000
    7.2094   -4.8715    0.0000 C   0  0  0  0  0  0  0  0  0  0  0  0
    3.7903   -0.4593    0.0000 C   0  0  0  0  0  0  0  0  0  0  0  0
    1.5504    0.1966    0.0000 C   0  0  0  0  0  0  0  0  0  0  0  0
   -2.4180    2.5865    0.0000 C   0  0  0  0  0  0  0  0  0  0  0  0
   -4.4670    7.6355    0.0000 C   0  0  0  0  0  0  0  0  0  0  0  0
   -2.4180    7.0865    0.0000 C   0  0  0  0  0  0  0  0  0  0  0  0
   -2.9670    5.0375    0.0000 C   0  0  0  0  0  0  0  0  0  0  0  0
   -8.1632    3.1355    0.0000 C   0  0  0  0  0  0  0  0  0  0  0  0
  -10.2122    2.5865    0.0000 C   0  0  0  0  0  0  0  0  0  0  0  0
   -9.6632    0.5375    0.0000 C   0  0  0  0  0  0  0  0  0  0  0  0
   -6.1142    5.5865    0.0000 C   0  0  0  0  0  0  0  0  0  0  0  0
   -7.6142    7.0865    0.0000 C   0  0  0  0  0  0  0  0  0  0  0  0
   -9.1142    5.5865    0.0000 C   0  0  0  0  0  0  0  0  0  0  0  0
   -3.7170   -1.1635    0.0000 C   0  0  0  0  0  0  0  0  0  0  0  0
   -5.0161   -0.4135    0.0000 C   0  0  0  0  0  0  0  0  0  0  0  0
    5.6823   -2.7696    0.0000 C   0  0  0  0  0  0  0  0  0  0  0  0
   -1.1190    1.8365    0.0000 C   0  0  0  0  0  0  0  0  0  0  0  0
    0.1801    1.0865    0.0000 C   0  0  0  0  0  0  0  0  0  0  0  0
    4.3120   -2.1595    0.0000 C   0  0  0  0  0  0  0  0  0  0  0  0
   -0.8071   -2.6307    0.0000 C   0  0  0  0  0  0  0  0  0  0  0  0
   -3.7170    3.3365    0.0000 C   0  0  0  0  0  0  0  0  0  0  0  0
    4.6256   -5.1431    0.0000 C   0  0  0  0  0  0  0  0  0  0  0  0
    5.8391   -4.2614    0.0000 C   0  0  0  0  0  0  0  0  0  0  0  0
    2.7866   -1.5740    0.0000 C   0  0  0  0  0  0  0  0  0  0  0  0
   -2.4180   -0.4135    0.0000 C   0  0  0  0  0  0  0  0  0  0  0  0
   -2.4180    1.0865    0.0000 C   0  0  0  0  0  0  0  0  0  0  0  0
   -5.0161    1.0865    0.0000 C   0  0  0  0  0  0  0  0  0  0  0  0
   -1.1190   -1.1635    0.0000 C   0  0  0  0  0  0  0  0  0  0  0  0
    0.6847   -2.7875    0.0000 C   0  0  0  0  0  0  0  0  0  0  0  0
   -5.0161    4.0865    0.0000 C   0  0  0  0  0  0  0  0  0  0  0  0
    1.2948   -1.4172    0.0000 C   0  0  0  0  0  0  0  0  0  0  0  0
   -6.3151    1.8365    0.0000 C   0  0  0  0  0  0  0  0  0  0  0  0
   -6.3151    3.3365    0.0000 C   0  0  0  0  0  0  0  0  0  0  0  0
    0.1801   -0.4135    0.0000 C   0  0  0  0  0  0  0  0  0  0  0  0
   -3.7170    1.8365    0.0000 C   0  0  0  0  0  0  0  0  0  0  0  0
    3.0984   -3.0412    0.0000 C   0  0  0  0  0  0  0  0  0  0  0  0
    3.2552   -4.5330    0.0000 O   0  0  0  0  0  0  0  0  0  0  0  0
    1.7994   -3.7912    0.0000 O   0  0  0  0  0  0  0  0  0  0  0  0
   -5.0161    5.5865    0.0000 O   0  0  0  0  0  0  0  0  0  0  0  0
   -7.6142    1.0865    0.0000 O   0  0  0  0  0  0  0  0  0  0  0  0
   -7.6142    4.0865    0.0000 O   0  0  0  0  0  0  0  0  0  0  0  0
   -3.7170    6.3365    0.0000 Si  0  0  0  0  0  4  0  0  0  0  0  0
   -8.9132    1.8365    0.0000 Si  0  0  0  0  0  4  0  0  0  0  0  0
   -7.6142    5.5865    0.0000 Si  0  0  0  0  0  4  0  0  0  0  0  0
 15 14  1  0
 18 17  1  0
 19 16  1  0
 23  1  1  1
 23 16  1  0
 23 22  1  0
 24  2  1  6
 25 14  1  6
 26 17  1  1
 26 25  1  0
 27 15  1  6
 28 20  1  1
 28 25  1  0
 29 20  1  1
 30 21  1  0
 31 24  1  0
 31 29  1  1
 32 27  1  0
 33 30  1  0
 33 32  1  0
 34  3  1  1
 34 18  1  0
 34 28  1  0
 34 31  1  0
 35  4  1  1
 35 21  1  0
 35 26  1  0
 35 27  1  0
 36 19  1  1
 36 24  1  0
 37 22  1  0
 36 37  1  0
 29 38  1  0
 36 38  1  0
 30 39  1  1
 32 40  1  1
 33 41  1  6
 42  5  1  0
 42  6  1  0
 42  7  1  0
 42 39  1  0
 43  8  1  0
 43  9  1  0
 43 10  1  0
 43 40  1  0
 44 11  1  0
 44 12  1  0
 44 13  1  0
 44 41  1  0
M  END
>  <NAME>  (740) 
ISODIOTIGENIN-TRI-TRIMETHYLSILYL ETHER

>  <SYNONYMS>  (740) 


>  <SPECTRUM TYPE>  (740) 
MS1

>  <INSTRUMENT TYPE>  (740) 
EI-B

>  <INSTRUMENT>  (740) 
HITACHI M-80

>  <ION MODE>  (740) 
P

>  <INCHIKEY>  (740) 
KHMJYEMFAXORTC-QJGHFXDPSA-N

>  <FORMULA>  (740) 
C36H68O5Si3

>  <EXACT MASS>  (740) 
664.437454866

>  <MW>  (740) 
664

>  <ID>  (740) 
JP011089

>  <CONTRIBUTOR>  (740) 
University of Tokyo Team, {Faculty of Engineering, University of Tokyo

>  <COMMENT>  (740) 
SMILES=O(C15[H])C(C6)(OCC(C6)C)C(C(C(C2([H])C5)(C)CCC(C3(C)4)(C(CCC3(C(C(C(O[Si](C)(C)C)C4)O[Si](C)(C)C)O[Si](C)(C)C)[H])2[H])[H])1[H])C
InChI=InChI=1S/C36H68O5Si3/c1-23-16-19-36(37-22-23)24(2)31-29(38-36)20-28-25-14-15-27-32(40-43(8,9)10)33(41-44(11,12)13)30(39-42(5,6)7)21-35(27,4)26(25)17-18-34(28,31)3/h23-33H,14-22H2,1-13H3/t23-,24+,25-,26+,27-,28+,29+,30+,31+,32-,33-,34+,35-,36-/m1/s1
computed SMILES=O1CC(C)CCC12OC3CC4C5CCC6C(O[Si](C)(C)C)C(O[Si](C)(C)C)C(O[Si](C)(C)C)CC6(C)C5CCC4(C)C3C2C
accession=JP011089
date=2016.01.19 (Created 2008.10.21, modified 2011.05.06)
author=YAMAMOTO M, DEP. CHEMISTRY, FAC. SCIENCE, NARA WOMEN'S UNIV.
license=CC BY-NC-SA
exact mass=664.43745
ionization energy=70 eV
ion type=[M]+*
computed spectral entropy=4.550307520351282
computed normalized entropy=0.8734657098319376
SPLASH=splash10-05as-4941200000-fb61b1d58bff9ce5dd5b
submitter=submitter = University of Tokyo Team (Faculty of Engineering, University of Tokyo)
MoNA Rating=3.75

>  <NUM PEAKS>  (740) 
183

>  <MASS SPECTRAL PEAKS>  (740) 
40 9.48
41 6.91
42 7.32
44 13.79
45 1.9
51 1.93
53 2.08
55 18.31
68 2.8
69 28.29
70 4.93
71 3.47
72 2.12
73 99.99
74 11.54
75 13.46
79 6.2
81 13.21
82 2.8
83 3.72
85 4.27
87 2.43
89 2.3
91 4.89
93 12.81
95 11.73
96 2.58
97 6.52
99 4.09
101 4.7
103 9.82
105 12.94
106 2.7
107 11.31
108 3.52
109 8.61
111 3.09
113 1.92
115 8.78
116 2.4
117 6.07
119 7
120 2.41
121 9.4
122 3.39
123 3.33
125 4.49
126 5.53
127 2.2
129 14.81
130 3.7
131 11.82
132 2.09
133 13.92
134 2.59
135 3.81
139 92.54
140 14.09
141 3.1
142 4.31
143 16.09
144 2.83
145 8.18
146 2.47
147 80.1
148 12.17
149 10.61
151 2.43
155 3.29
157 6.3
158 2
159 7.82
160 14.21
161 8.03
162 2.11
163 2.64
165 2.4
167 4.06
168 2.62
169 6.8
170 2.49
171 3.6
172 2.42
173 4.91
174 2
175 2.5
177 4.53
179 2.23
180 2.57
181 5.6
182 2.27
183 2.21
184 1.69
185 3.03
187 10.5
188 2.17
189 2
191 20.41
192 4.91
193 5.16
194 2.28
195 5.87
197 3.23
199 3.5
201 4.81
202 2.47
203 2.63
204 8.03
205 6.41
207 19.09
208 4.71
209 4.68
211 2.7
213 5.18
215 11.78
217 17.22
218 9.07
220 5.79
225 4
227 2.53
228 2.1
229 4.42
230 96.93
231 27.78
232 12.21
233 2.69
239 2.08
241 3.4
243 4.9
244 2.82
251 5.63
252 2.49
253 2
257 3.49
265 6
266 2.19
267 4.13
269 6.9
270 2.01
280 2.19
281 10.51
282 2.22
305 5.3
319 2.31
325 2.09
341 3.5
342 2.09
343 2.5
344 20.1
345 6.91
346 2.03
355 3.41
357 4.59
370 7.1
371 3.91
386 4.53
388 2.42
395 8.7
396 2.78
415 3.8
429 3.39
445 2.84
458 66.82
459 25.2
460 11.27
461 5.2
471 7.06
472 2.63
484 12.7
485 9.74
486 4.61
533 3.9
550 2.21
559 2.83
560 2.21
561 3.3
574 9.09
575 4.63
637 4.7
638 2.81
664 11.8
665 6.63
666 2.51

$$$$

     RDKit          2D

 33 36  0  0  1  0  0  0  0  0999 V2000
    9.5655    7.2342    0.0000 C   0  0  0  0  0  0  0  0  0  0  0  0
   10.0746    4.6865    0.0000 C   0  0  0  0  0  0  0  0  0  0  0  0
    8.1228    2.9718    0.0000 C   0  0  0  0  0  0  0  0  0  0  0  0
    3.2009    4.6377    0.0000 C   0  0  0  0  0  0  0  0  0  0  0  0
   -8.0957   -2.8471    0.0000 C   0  0  0  0  0  0  0  0  0  0  0  0
   -1.6125    0.9400    0.0000 C   0  0  0  0  0  0  0  0  0  0  0  0
    2.4507    3.1203    0.0000 C   0  0  0  0  0  0  0  0  0  0  0  0
    8.0946    6.9403    0.0000 C   0  0  0  0  0  0  0  0  0  0  0  0
    5.6618    3.8047    0.0000 C   0  0  0  0  0  0  0  0  0  0  0  0
    6.1427    5.2256    0.0000 C   0  0  0  0  0  0  0  0  0  0  0  0
   -0.3200   -2.8400    0.0000 C   0  0  0  0  0  0  0  0  0  0  0  0
    1.0100   -2.0900    0.0000 C   0  0  0  0  0  0  0  0  0  0  0  0
    4.5500    0.8800    0.0000 C   0  0  0  0  0  0  0  0  0  0  0  0
    3.7100   -0.3100    0.0000 C   0  0  0  0  0  0  0  0  0  0  0  0
   -4.2000   -0.5600    0.0000 C   0  0  0  0  0  0  0  0  0  0  0  0
   -0.3200    1.6300    0.0000 C   0  0  0  0  0  0  0  0  0  0  0  0
   -2.8900    0.1600    0.0000 C   0  0  0  0  0  0  0  0  0  0  0  0
    1.0100    2.3900    0.0000 C   0  0  0  0  0  0  0  0  0  0  0  0
   -2.8900   -2.8400    0.0000 C   0  0  0  0  0  0  0  0  0  0  0  0
    8.6037    4.3926    0.0000 C   0  0  0  0  0  0  0  0  0  0  0  0
    4.1909    3.5108    0.0000 C   0  0  0  0  0  0  0  0  0  0  0  0
   -6.7981   -2.0947    0.0000 C   0  0  0  0  0  0  0  0  0  0  0  0
    7.6137    5.5195    0.0000 C   0  0  0  0  0  0  0  0  0  0  0  0
   -1.6200   -2.0900    0.0000 C   0  0  0  0  0  0  0  0  0  0  0  0
   -4.2000   -2.0900    0.0000 C   0  0  0  0  0  0  0  0  0  0  0  0
    1.0100   -0.5600    0.0000 C   0  0  0  0  0  0  0  0  0  0  0  0
    3.7100    2.0900    0.0000 C   0  0  0  0  0  0  0  0  0  0  0  0
    2.2800    0.1600    0.0000 C   0  0  0  0  0  0  0  0  0  0  0  0
   -0.3200    0.1600    0.0000 C   0  0  0  0  0  0  0  0  0  0  0  0
   -1.6200   -0.5600    0.0000 C   0  0  0  0  0  0  0  0  0  0  0  0
    2.2800    1.6300    0.0000 C   0  0  0  0  0  0  0  0  0  0  0  0
   -6.8008   -0.5947    0.0000 O   0  0  0  0  0  0  0  0  0  0  0  0
   -5.4977   -2.8424    0.0000 O   0  0  0  0  0  0  0  0  0  0  0  0
  8  1  1  0
  9 10  2  0
 12 11  1  0
 14 13  1  0
 17 15  1  0
 18 16  1  0
 20  2  1  0
 20  3  1  0
 21  4  1  6
 21  9  1  0
 22  5  1  0
 23  8  1  1
 23 10  1  0
 23 20  1  0
 24 11  1  1
 24 19  1  0
 25 15  1  0
 25 19  1  0
 26 12  2  0
 27 13  1  1
 27 21  1  0
 28 14  1  1
 28 26  1  0
 29 16  1  1
 29 26  1  0
 30  6  1  1
 30 17  1  0
 30 24  1  0
 30 29  1  0
 31  7  1  1
 31 18  1  0
 31 27  1  0
 31 28  1  0
 32 22  2  0
 33 22  1  0
 25 33  1  1
M  END
>  <NAME>  (741) 
ALPHA-SPINASTEROL ACETATE

>  <SYNONYMS>  (741) 


>  <SPECTRUM TYPE>  (741) 
MS1

>  <INSTRUMENT TYPE>  (741) 
EI-B

>  <INSTRUMENT>  (741) 
HITACHI M-80

>  <ION MODE>  (741) 
P

>  <INCHIKEY>  (741) 
VQLULFBGTFJDEB-LSEHKVPYSA-N

>  <FORMULA>  (741) 
C31H50O2

>  <EXACT MASS>  (741) 
454.38108084

>  <MW>  (741) 
454

>  <ID>  (741) 
JP011088

>  <CONTRIBUTOR>  (741) 
University of Tokyo Team, {Faculty of Engineering, University of Tokyo

>  <COMMENT>  (741) 
SMILES=[H]C(C(C)C)(CC)C=CC([H])(C)C(C1)([H])C(C)(C4)C(C(=C2[H])C([H])(C4)C(C)(C3)C([H])(CC(OC(C)=O)(C3)[H])C2)([H])C1
InChI=InChI=1S/C31H50O2/c1-8-23(20(2)3)10-9-21(4)27-13-14-28-26-12-11-24-19-25(33-22(5)32)15-17-30(24,6)29(26)16-18-31(27,28)7/h9-10,12,20-21,23-25,27-29H,8,11,13-19H2,1-7H3/b10-9+/t21-,23-,24+,25+,27-,28+,29+,30+,31-/m1/s1
computed SMILES=O=C(OC1CCC2(C)C3C(=CCC2C1)C4CCC(C(C=CC(CC)C(C)C)C)C4(C)CC3)C
accession=JP011088
date=2016.01.19 (Created 2008.10.21, modified 2011.05.06)
author=YAMAMOTO M, DEP. CHEMISTRY, FAC. SCIENCE, NARA WOMEN'S UNIV.
license=CC BY-NC-SA
exact mass=454.38108
ionization energy=70 eV
ion type=[M]+*
computed spectral entropy=4.444813841702977
computed normalized entropy=0.8736569391171939
SPLASH=splash10-0a59-9621000000-9b7089e39707fe881c00
submitter=submitter = University of Tokyo Team (Faculty of Engineering, University of Tokyo)
MoNA Rating=3.75

>  <NUM PEAKS>  (741) 
162

>  <MASS SPECTRAL PEAKS>  (741) 
15 1.76
27 4.4
31 1.74
41 34.97
42 2.25
43 46.47
52 2.75
53 4.97
54 1.79
55 85.63
56 5.69
57 19.63
65 3.36
67 29.69
68 4.75
69 49.34
70 4.67
71 10.42
77 8.31
78 2.43
79 29.15
80 4.84
81 99.99
82 9.94
83 59.22
85 11.68
91 28.75
92 5.64
93 34.72
94 11.96
95 41.94
96 8.53
97 17.54
98 2.42
103 2.68
104 1.91
105 39.64
106 6.5
107 38.31
108 6.52
109 24.05
110 4.48
111 4.5
116 1.34
117 12.08
118 3.86
119 20.47
120 7.39
121 18.28
122 6.05
123 14.35
125 1.88
128 2.58
129 6.15
130 3.63
131 14.31
132 4.77
133 20.26
134 5.83
134.5 2.68
135 14.52
136 2.68
137 8.58
138 3.15
139 4.94
141 2.43
142 2.08
143 7.42
144 4.16
145 17.27
146 6.42
147 22.63
148 4.87
149 9.14
150 9.14
151 4.6
155 2.58
156 1.74
157 6.18
158 3.02
159 14.42
160 4.95
161 14.1
162 2.8
163 4.28
164 3.1
165 1.71
166 2.08
169 1.73
170 1.31
171 5.02
172 2.25
173 7.69
174 3.09
175 6.85
176 1.94
177 1.26
178 3.49
179 1.47
184 2.53
185 4.52
187 6.95
188 2.42
189 2.75
197 2.38
198 2.01
199 6.57
200 2.57
201 7.63
203 2.05
211 4.06
213 14.33
214 4
215 4.7
227 4.78
228 7.39
229 13.71
230 2.31
240 2.78
241 6.03
242 1.88
243 1.74
253 10.08
254 3.89
255 32.75
256 6.94
262 2.01
264 2.15
266 1.74
267 1.88
273 5.1
274 2.8
283 2.75
287 2.01
288 9.07
289 2.25
299 2.82
300 2.52
301 1.78
311 1.73
312 3.31
313 42.62
314 12.85
315 11.89
316 2.62
327 3.64
329 2.48
339 1.74
341 4.68
342 6.9
343 2.28
351 5
379 2.31
384 1.74
392 1.74
394 2.67
411 4.95
412 2.16
422 1.74
454 10
455 3.36
456 2.68

$$$$

     RDKit          2D

 19 19  0  0  0  0  0  0  0  0999 V2000
   -3.8983    0.7496    0.0000 C   0  0  0  0  0  0  0  0  0  0  0  0
    2.5987    3.0002    0.0000 C   0  0  0  0  0  0  0  0  0  0  0  0
   -7.7951   -1.5010    0.0000 C   0  0  0  0  0  0  0  0  0  0  0  0
    6.4962    0.7508    0.0000 C   0  0  0  0  0  0  0  0  0  0  0  0
   -1.3000    0.7500    0.0000 C   0  0  0  0  0  0  0  0  0  0  0  0
   -0.0000   -1.5000    0.0000 C   0  0  0  0  0  0  0  0  0  0  0  0
    0.0000    1.5000    0.0000 C   0  0  0  0  0  0  0  0  0  0  0  0
    1.3000   -0.7500    0.0000 C   0  0  0  0  0  0  0  0  0  0  0  0
   -2.5989   -1.5002    0.0000 C   0  0  0  0  0  0  0  0  0  0  0  0
   -3.8981   -0.7504    0.0000 C   0  0  0  0  0  0  0  0  0  0  0  0
    2.5989    1.5002    0.0000 C   0  0  0  0  0  0  0  0  0  0  0  0
   -1.3000   -0.7500    0.0000 C   0  0  0  0  0  0  0  0  0  0  0  0
    1.3000    0.7500    0.0000 C   0  0  0  0  0  0  0  0  0  0  0  0
   -5.1970   -1.5006    0.0000 C   0  0  0  0  0  0  0  0  0  0  0  0
    3.8981    0.7504    0.0000 C   0  0  0  0  0  0  0  0  0  0  0  0
   -5.1968   -3.0006    0.0000 O   0  0  0  0  0  0  0  0  0  0  0  0
    3.8983   -0.7496    0.0000 O   0  0  0  0  0  0  0  0  0  0  0  0
   -6.4962   -0.7508    0.0000 O   0  0  0  0  0  0  0  0  0  0  0  0
    5.1970    1.5006    0.0000 O   0  0  0  0  0  0  0  0  0  0  0  0
  7  5  2  0
  8  6  1  0
 10  1  1  0
 10  9  1  0
 11  2  1  0
 12  5  1  0
 12  6  2  0
 12  9  1  0
 13  7  1  0
 13  8  2  0
 13 11  1  0
 14 10  1  0
 15 11  1  0
 16 14  2  0
 17 15  2  0
 18  3  1  0
 18 14  1  0
 19  4  1  0
 19 15  1  0
M  END
>  <NAME>  (742) 
2-(4-(2-CARBOXYLPROPYL)PHENYL)PROPIONIC ACID DIMETHYL ESTER

>  <SYNONYMS>  (742) 


>  <SPECTRUM TYPE>  (742) 
MS1

>  <INSTRUMENT TYPE>  (742) 
EI-B

>  <INSTRUMENT>  (742) 
HITACHI M-80

>  <ION MODE>  (742) 
P

>  <INCHIKEY>  (742) 
HWGFJGIDJHBXPQ-UHFFFAOYSA-N

>  <FORMULA>  (742) 
C15H20O4

>  <EXACT MASS>  (742) 
264.13615912

>  <MW>  (742) 
264

>  <ID>  (742) 
JP011086

>  <CONTRIBUTOR>  (742) 
University of Tokyo Team, {Faculty of Engineering, University of Tokyo

>  <COMMENT>  (742) 
SMILES=COC(=O)C(C)Cc(c1)ccc(c1)C(C)C(=O)OC
InChI=InChI=1S/C15H20O4/c1-10(14(16)18-3)9-12-5-7-13(8-6-12)11(2)15(17)19-4/h5-8,10-11H,9H2,1-4H3
computed SMILES=O=C(OC)C(C1=CC=C(C=C1)CC(C(=O)OC)C)C
accession=JP011086
date=2016.01.19 (Created 2008.10.21, modified 2011.05.06)
author=YAMAMOTO M, DEP. CHEMISTRY, FAC. SCIENCE, NARA WOMEN'S UNIV.
license=CC BY-NC-SA
exact mass=264.13616
ionization energy=70 eV
ion type=[M]+*
computed spectral entropy=3.1918675281493116
computed normalized entropy=0.800170542396247
SPLASH=splash10-0ar1-2940000000-048bcd4f9dc69018e6eb
submitter=submitter = University of Tokyo Team (Faculty of Engineering, University of Tokyo)
MoNA Rating=3.75

>  <NUM PEAKS>  (742) 
54

>  <MASS SPECTRAL PEAKS>  (742) 
15 10.91
27 2.78
29 2.5
39 6.03
41 9.19
43 1.72
51 3.52
53 2.41
55 1.9
59 11.29
63 2.83
64 1.4
65 4.87
72 1.84
73 2.69
77 8.48
78 3.72
79 3.3
89 2.82
90 1.49
91 26.72
92 2.63
101 1.49
102 2.68
103 6.81
104 2.67
105 11.7
115 15.03
116 7.82
117 49.03
118 26.19
119 4.21
121 19.83
122 1.93
127 2
128 5.81
129 5.09
130 3.12
131 13.62
132 1.79
133 1.09
143 2.19
144 1.31
145 83.9
146 13.03
147 1.42
177 63.39
178 7.91
204 26.38
205 99.99
206 14.51
207 2.09
264 26.43
265 4.31

$$$$

     RDKit          2D

 41 46  0  0  1  0  0  0  0  0999 V2000
    7.2964   -4.7208    0.0000 C   0  0  0  0  0  0  0  0  0  0  0  0
    3.8773   -0.3085    0.0000 C   0  0  0  0  0  0  0  0  0  0  0  0
   -3.6300    7.9872    0.0000 C   0  0  0  0  0  0  0  0  0  0  0  0
  -10.1252    1.2372    0.0000 C   0  0  0  0  0  0  0  0  0  0  0  0
   -8.8262    6.4872    0.0000 C   0  0  0  0  0  0  0  0  0  0  0  0
    1.6374    0.3473    0.0000 C   0  0  0  0  0  0  0  0  0  0  0  0
   -2.3310    2.7372    0.0000 C   0  0  0  0  0  0  0  0  0  0  0  0
   -3.6300   -1.0128    0.0000 C   0  0  0  0  0  0  0  0  0  0  0  0
   -4.9291   -0.2628    0.0000 C   0  0  0  0  0  0  0  0  0  0  0  0
    5.7693   -2.6189    0.0000 C   0  0  0  0  0  0  0  0  0  0  0  0
   -1.0319    1.9872    0.0000 C   0  0  0  0  0  0  0  0  0  0  0  0
    0.2671    1.2372    0.0000 C   0  0  0  0  0  0  0  0  0  0  0  0
    4.3990   -2.0088    0.0000 C   0  0  0  0  0  0  0  0  0  0  0  0
   -0.7201   -2.4800    0.0000 C   0  0  0  0  0  0  0  0  0  0  0  0
   -3.6300    3.4872    0.0000 C   0  0  0  0  0  0  0  0  0  0  0  0
    4.7126   -4.9924    0.0000 C   0  0  0  0  0  0  0  0  0  0  0  0
    5.9261   -4.1107    0.0000 C   0  0  0  0  0  0  0  0  0  0  0  0
    2.8736   -1.4233    0.0000 C   0  0  0  0  0  0  0  0  0  0  0  0
   -3.6300    6.4872    0.0000 C   0  0  0  0  0  0  0  0  0  0  0  0
   -8.8262    1.9872    0.0000 C   0  0  0  0  0  0  0  0  0  0  0  0
   -7.5271    5.7372    0.0000 C   0  0  0  0  0  0  0  0  0  0  0  0
   -2.3310   -0.2628    0.0000 C   0  0  0  0  0  0  0  0  0  0  0  0
   -2.3310    1.2372    0.0000 C   0  0  0  0  0  0  0  0  0  0  0  0
   -4.9291    1.2372    0.0000 C   0  0  0  0  0  0  0  0  0  0  0  0
   -1.0319   -1.0128    0.0000 C   0  0  0  0  0  0  0  0  0  0  0  0
    0.7717   -2.6368    0.0000 C   0  0  0  0  0  0  0  0  0  0  0  0
   -4.9291    4.2372    0.0000 C   0  0  0  0  0  0  0  0  0  0  0  0
    1.3818   -1.2665    0.0000 C   0  0  0  0  0  0  0  0  0  0  0  0
   -6.2281    1.9872    0.0000 C   0  0  0  0  0  0  0  0  0  0  0  0
   -6.2281    3.4872    0.0000 C   0  0  0  0  0  0  0  0  0  0  0  0
    0.2671   -0.2628    0.0000 C   0  0  0  0  0  0  0  0  0  0  0  0
   -3.6300    1.9872    0.0000 C   0  0  0  0  0  0  0  0  0  0  0  0
    3.1855   -2.8905    0.0000 C   0  0  0  0  0  0  0  0  0  0  0  0
   -2.3310    5.7372    0.0000 O   0  0  0  0  0  0  0  0  0  0  0  0
   -8.8262    3.4872    0.0000 O   0  0  0  0  0  0  0  0  0  0  0  0
   -6.2281    6.4872    0.0000 O   0  0  0  0  0  0  0  0  0  0  0  0
    3.3423   -4.3823    0.0000 O   0  0  0  0  0  0  0  0  0  0  0  0
   -4.9291    5.7372    0.0000 O   0  0  0  0  0  0  0  0  0  0  0  0
   -7.5271    1.2372    0.0000 O   0  0  0  0  0  0  0  0  0  0  0  0
   -7.5271    4.2372    0.0000 O   0  0  0  0  0  0  0  0  0  0  0  0
    1.8864   -3.6405    0.0000 O   0  0  0  0  0  0  0  0  0  0  0  0
  9  8  1  0
 12 11  1  0
 13 10  1  0
 17  1  1  1
 17 10  1  0
 17 16  1  0
 18  2  1  6
 19  3  1  0
 20  4  1  0
 21  5  1  0
 22  8  1  6
 23 11  1  1
 23 22  1  0
 24  9  1  6
 25 14  1  1
 25 22  1  0
 26 14  1  1
 27 15  1  0
 28 18  1  0
 28 26  1  1
 29 24  1  0
 30 27  1  0
 30 29  1  0
 31  6  1  1
 31 12  1  0
 31 25  1  0
 31 28  1  0
 32  7  1  1
 32 15  1  0
 32 23  1  0
 32 24  1  0
 33 13  1  1
 33 18  1  0
 34 19  2  0
 35 20  2  0
 36 21  2  0
 37 16  1  0
 33 37  1  0
 38 19  1  0
 27 38  1  1
 39 20  1  0
 29 39  1  1
 40 21  1  0
 30 40  1  6
 26 41  1  0
 33 41  1  0
M  END
>  <NAME>  (743) 
ISODIOTIGENIN TRIACETATE

>  <SYNONYMS>  (743) 


>  <SPECTRUM TYPE>  (743) 
MS1

>  <INSTRUMENT TYPE>  (743) 
EI-B

>  <INSTRUMENT>  (743) 
HITACHI M-80

>  <ION MODE>  (743) 
P

>  <INCHIKEY>  (743) 
NDAJYCUWBPMDDU-DSEUKREJSA-N

>  <FORMULA>  (743) 
C33H50O8

>  <EXACT MASS>  (743) 
574.35056856

>  <MW>  (743) 
574

>  <ID>  (743) 
JP011082

>  <CONTRIBUTOR>  (743) 
University of Tokyo Team, {Faculty of Engineering, University of Tokyo

>  <COMMENT>  (743) 
SMILES=[H]C(C1)(O5)C(C(C)C5(C6)OCC(C6)C)([H])C(C4)(C1(C([H])(C3)C(C4)([H])C(C)(C2)C(C3)([H])C(OC(C)=O)C(C2OC(C)=O)OC(C)=O)[H])C
InChI=InChI=1S/C33H50O8/c1-17-10-13-33(37-16-17)18(2)28-26(41-33)14-25-22-8-9-24-29(39-20(4)35)30(40-21(5)36)27(38-19(3)34)15-32(24,7)23(22)11-12-31(25,28)6/h17-18,22-30H,8-16H2,1-7H3/t17-,18+,22-,23+,24-,25+,26+,27+,28+,29-,30-,31+,32-,33-/m1/s1
computed SMILES=O=C(OC1CC2(C)C(CCC3C2CCC4(C)C3CC5OC6(OCC(C)CC6)C(C)C54)C(OC(=O)C)C1OC(=O)C)C
accession=JP011082
date=2016.01.19 (Created 2008.10.21, modified 2011.05.06)
author=YAMAMOTO M, DEP. CHEMISTRY, FAC. SCIENCE, NARA WOMEN'S UNIV.
license=CC BY-NC-SA
exact mass=574.35057
ionization energy=70 eV
ion type=[M]+*
computed spectral entropy=3.7670722977141393
computed normalized entropy=0.8094336896502856
SPLASH=splash10-000l-4910210000-490fd0cf80d5b7a0ff1a
submitter=submitter = University of Tokyo Team (Faculty of Engineering, University of Tokyo)
MoNA Rating=3.75

>  <NUM PEAKS>  (743) 
105

>  <MASS SPECTRAL PEAKS>  (743) 
18 1.34
28 9.32
29 1.34
41 4.26
42 2.15
43 43
44 1.29
55 5.39
56 1.24
57 1.94
67 2.96
68 11.2
70 1.62
71 1.46
79 2.85
81 4.9
83 2.1
85 1.29
91 2.75
93 5.12
94 1.12
95 5.39
96 1.12
99 1.01
103 1.13
105 4.58
106 1.18
107 5.19
108 2.05
109 4.85
110 1.08
111 1.13
115 6.2
117 1.12
119 3.18
120 1.24
121 5.39
122 2.59
123 1.94
125 2.86
126 3.35
131 2.37
133 2.81
135 1.94
138 3.88
139 99.99
140 17.1
141 2.37
143 1.94
145 2.69
147 3.02
149 1.56
155 1.19
157 2.21
159 2.49
161 2.27
163 1.24
167 2.11
168 3.39
169 1.62
170 1.02
171 1.35
172 1.46
173 1.73
175 1.4
185 1.08
189 1.02
197 1.08
199 1.29
201 1.35
211 1.19
212 1.02
213 1.3
227 1.02
229 1.56
251 2.54
265 1.73
269 3.18
280 5.29
281 1.99
283 1.08
297 1.13
298 2.16
311 1.08
325 1.51
329 1.02
340 6.49
341 2.8
342 1.67
343 1.62
400 11.83
401 3.58
431 14.8
432 4.06
445 6.05
446 1.68
460 4.26
461 1.51
475 1.13
502 6.7
503 2.21
505 1.24
515 1.62
574 9.27
575 3.24

$$$$

     RDKit          2D

 14 14  0  0  0  0  0  0  0  0999 V2000
    3.2823   -3.0174    0.0000 C   0  0  0  0  0  0  0  0  0  0  0  0
    4.5818    0.7330    0.0000 C   0  0  0  0  0  0  0  0  0  0  0  0
   -4.5119    1.4826    0.0000 C   0  0  0  0  0  0  0  0  0  0  0  0
   -0.6153   -0.7683    0.0000 C   0  0  0  0  0  0  0  0  0  0  0  0
    0.6838   -1.5183    0.0000 C   0  0  0  0  0  0  0  0  0  0  0  0
    0.6847    1.4834    0.0000 C   0  0  0  0  0  0  0  0  0  0  0  0
   -0.6148    0.7326    0.0000 C   0  0  0  0  0  0  0  0  0  0  0  0
    1.9833   -0.7674    0.0000 C   0  0  0  0  0  0  0  0  0  0  0  0
    1.9838    0.7334    0.0000 C   0  0  0  0  0  0  0  0  0  0  0  0
   -1.9138    1.4826    0.0000 C   0  0  0  0  0  0  0  0  0  0  0  0
   -1.9138    2.9826    0.0000 O   0  0  0  0  0  0  0  0  0  0  0  0
    3.2823   -1.5174    0.0000 O   0  0  0  0  0  0  0  0  0  0  0  0
    3.2829    1.4832    0.0000 O   0  0  0  0  0  0  0  0  0  0  0  0
   -3.2129    0.7326    0.0000 O   0  0  0  0  0  0  0  0  0  0  0  0
  5  4  2  0
  7  4  1  0
  7  6  2  0
  8  5  1  0
  9  6  1  0
  9  8  2  0
 10  7  1  0
 11 10  2  0
 12  1  1  0
 12  8  1  0
 13  2  1  0
 13  9  1  0
 14  3  1  0
 14 10  1  0
M  END
>  <NAME>  (744) 
METHYL 3,4-DIMETHOXYBENZOATE

>  <SYNONYMS>  (744) 
METHYL VERTRATE

>  <SPECTRUM TYPE>  (744) 
MS1

>  <INSTRUMENT TYPE>  (744) 
EI-B

>  <INSTRUMENT>  (744) 
HITACHI M-80

>  <ION MODE>  (744) 
P

>  <INCHIKEY>  (744) 
BIGQPYZPEWAPBG-UHFFFAOYSA-N

>  <FORMULA>  (744) 
C10H12O4

>  <EXACT MASS>  (744) 
196.073558864

>  <MW>  (744) 
196

>  <ID>  (744) 
JP011080

>  <CONTRIBUTOR>  (744) 
University of Tokyo Team, {Faculty of Engineering, University of Tokyo

>  <COMMENT>  (744) 
SMILES=COC(=O)c(c1)cc(OC)c(OC)c1
cas=2150-38-1
InChI=InChI=1S/C10H12O4/c1-12-8-5-4-7(10(11)14-3)6-9(8)13-2/h4-6H,1-3H3
computed SMILES=O=C(OC)C1=CC=C(OC)C(OC)=C1
accession=JP011080
date=2016.01.19 (Created 2008.10.21, modified 2011.05.06)
author=YAMAMOTO M, DEP. CHEMISTRY, FAC. SCIENCE, NARA WOMEN'S UNIV.
license=CC BY-NC-SA
exact mass=196.07356
ionization energy=70 eV
ion type=[M]+*
computed spectral entropy=2.8678201647165027
computed normalized entropy=0.7293864053501825
SPLASH=splash10-00kb-2900000000-de6ba98d0e6b9f366bb2
submitter=submitter = University of Tokyo Team (Faculty of Engineering, University of Tokyo)
MoNA Rating=3.75

>  <NUM PEAKS>  (744) 
51

>  <MASS SPECTRAL PEAKS>  (744) 
15 6
18 1.71
29 1.47
31 1.03
39 1.53
50 3.24
51 8.02
52 1.59
53 2.2
59 5.91
62 1.83
63 3.62
64 1.34
65 2.43
66 2.1
75 1.09
76 2.73
77 7.81
78 1.42
79 13.29
80 1.72
91 2.41
93 3.63
94 5.65
95 2.65
104 1.25
105 1.15
107 5.18
108 1.04
109 1.63
110 1.41
119 4.03
120 2.38
121 6.53
122 6.09
123 2.79
125 9.22
135 2.07
136 2.45
137 5.73
138 1.63
149 3.14
151 2.7
153 3.77
165 76.81
166 7.86
181 8.86
182 1.03
196 99.99
197 11.25
198 1.35

$$$$

     RDKit          2D

 17 19  0  0  0  0  0  0  0  0999 V2000
    3.9000   -0.7500    0.0000 C   0  0  0  0  0  0  0  0  0  0  0  0
    3.9000    0.7500    0.0000 C   0  0  0  0  0  0  0  0  0  0  0  0
   -3.9000   -0.7500    0.0000 C   0  0  0  0  0  0  0  0  0  0  0  0
    2.6000   -1.5000    0.0000 C   0  0  0  0  0  0  0  0  0  0  0  0
    2.6000    1.5000    0.0000 C   0  0  0  0  0  0  0  0  0  0  0  0
   -2.6000   -1.5000    0.0000 C   0  0  0  0  0  0  0  0  0  0  0  0
   -3.9000    0.7500    0.0000 C   0  0  0  0  0  0  0  0  0  0  0  0
    1.3000   -0.7500    0.0000 C   0  0  0  0  0  0  0  0  0  0  0  0
    1.3000    0.7500    0.0000 C   0  0  0  0  0  0  0  0  0  0  0  0
   -1.3000   -0.7500    0.0000 C   0  0  0  0  0  0  0  0  0  0  0  0
   -2.6000    1.5000    0.0000 C   0  0  0  0  0  0  0  0  0  0  0  0
   -1.3000    0.7500    0.0000 C   0  0  0  0  0  0  0  0  0  0  0  0
   -0.0000   -1.5000    0.0000 C   0  0  0  0  0  0  0  0  0  0  0  0
   -0.0000    1.5000    0.0000 C   0  0  0  0  0  0  0  0  0  0  0  0
   -2.6000    3.0000    0.0000 Cl  0  0  0  0  0  0  0  0  0  0  0  0
   -0.0000   -3.0000    0.0000 O   0  0  0  0  0  0  0  0  0  0  0  0
    0.0000    3.0000    0.0000 O   0  0  0  0  0  0  0  0  0  0  0  0
  2  1  2  0
  4  1  1  0
  5  2  1  0
  6  3  1  0
  7  3  2  0
  8  4  2  0
  9  5  2  0
  9  8  1  0
 10  6  2  0
 11  7  1  0
 12 10  1  0
 12 11  2  0
 13  8  1  0
 13 10  1  0
 14  9  1  0
 14 12  1  0
 15 11  1  0
 16 13  2  0
 17 14  2  0
M  END
>  <NAME>  (745) 
1-CHLOROANTHRAQUINONE

>  <SYNONYMS>  (745) 


>  <SPECTRUM TYPE>  (745) 
MS1

>  <INSTRUMENT TYPE>  (745) 
EI-B

>  <INSTRUMENT>  (745) 
HITACHI M-80

>  <ION MODE>  (745) 
P

>  <INCHIKEY>  (745) 
BOCJQSFSGAZAPQ-UHFFFAOYSA-N

>  <FORMULA>  (745) 
C14H7ClO2

>  <EXACT MASS>  (745) 
242.013457144

>  <MW>  (745) 
242

>  <ID>  (745) 
JP011079

>  <CONTRIBUTOR>  (745) 
University of Tokyo Team, {Faculty of Engineering, University of Tokyo

>  <COMMENT>  (745) 
SMILES=Clc(c3)c(c(=O)1)c(cc3)c(=O)c(c2)c(ccc2)1
cas=82-44-0
InChI=InChI=1S/C14H7ClO2/c15-11-7-3-6-10-12(11)14(17)9-5-2-1-4-8(9)13(10)16/h1-7H
computed SMILES=O=C1C=2C=CC=CC2C(=O)C=3C(Cl)=CC=CC13
accession=JP011079
date=2016.01.19 (Created 2008.10.21, modified 2011.05.06)
author=YAMAMOTO M, DEP. CHEMISTRY, FAC. SCIENCE, NARA WOMEN'S UNIV.
license=CC BY-NC-SA
exact mass=242.01346
ionization energy=70 eV
ion type=[M]+*
computed spectral entropy=3.2827985466529155
computed normalized entropy=0.7864144686161302
SPLASH=splash10-0006-3690000000-477a06b886a46f13ed97
submitter=submitter = University of Tokyo Team (Faculty of Engineering, University of Tokyo)
MoNA Rating=3.75

>  <NUM PEAKS>  (745) 
65

>  <MASS SPECTRAL PEAKS>  (745) 
27 1.01
37 1.07
38 1.6
39 2.14
49 1.28
50 10.14
51 2.41
53 1.11
61 1.31
62 2.05
63 2.03
73 3.61
74 16.38
75 21.57
76 10.56
77 3.6
84 2.43
85 1.34
86 2.77
87 2.35
93 3.22
94 1.03
98 3.52
99 3.58
100 1.27
101 1.7
104 1.16
107 1.61
108 1.02
109 1.42
110 5.88
111 3.52
112 1.7
122 1.84
123 1.96
124 1.12
125 4.02
149 5.51
150 44.51
151 40.04
152 5.7
160 1.44
179 6.41
180 1.68
185 4.51
186 44.98
187 7.54
188 15.04
189 2.19
207 12.21
208 2.64
213 2.4
214 59.35
215 9.36
216 19.51
217 2.75
220 1.58
222 1.05
241 16.53
242 99.99
243 21.01
244 33.17
245 5.16
248 1.77
250 1.11

$$$$

     RDKit          2D

  7  6  0  0  0  0  0  0  0  0999 V2000
    0.6495    3.3750    0.0000 C   0  0  0  0  0  0  0  0  0  0  0  0
   -1.9486    0.3750    0.0000 C   0  0  0  0  0  0  0  0  0  0  0  0
   -0.6495    2.6250    0.0000 C   0  0  0  0  0  0  0  0  0  0  0  0
   -0.6495    1.1250    0.0000 C   0  0  0  0  0  0  0  0  0  0  0  0
   -1.9486    3.3750    0.0000 N   0  0  0  0  0  0  0  0  0  0  0  0
    0.6495    0.3750    0.0000 O   0  0  0  0  0  0  0  0  0  0  0  0
   -3.2476    2.6250    0.0000 O   0  0  0  0  0  0  0  0  0  0  0  0
  3  1  1  0
  4  2  1  0
  4  3  1  0
  3  5  2  0
  6  4  2  0
  7  5  1  0
M  END
>  <NAME>  (746) 
2,3-BUTANEDIONE MONOXIME

>  <SYNONYMS>  (746) 


>  <SPECTRUM TYPE>  (746) 
MS1

>  <INSTRUMENT TYPE>  (746) 
EI-B

>  <INSTRUMENT>  (746) 
HITACHI M-80

>  <ION MODE>  (746) 
P

>  <INCHIKEY>  (746) 
FSEUPUDHEBLWJY-HYXAFXHYSA-N

>  <FORMULA>  (746) 
C4H7NO2

>  <EXACT MASS>  (746) 
101.047678464

>  <MW>  (746) 
101

>  <ID>  (746) 
JP011078

>  <CONTRIBUTOR>  (746) 
University of Tokyo Team, {Faculty of Engineering, University of Tokyo

>  <COMMENT>  (746) 
SMILES=ON=C(C)C(C)=O
cas=57-71-6
InChI=InChI=1S/C4H7NO2/c1-3(5-7)4(2)6/h7H,1-2H3/b5-3-
computed SMILES=O=C(C(=NO)C)C
accession=JP011078
date=2016.01.19 (Created 2008.10.21, modified 2011.05.06)
author=YAMAMOTO M, DEP. CHEMISTRY, FAC. SCIENCE, NARA WOMEN'S UNIV.
license=CC BY-NC-SA
exact mass=101.04768
ionization energy=70 eV
ion type=[M]+*
computed spectral entropy=1.7432947159356753
computed normalized entropy=0.6153065456905759
SPLASH=splash10-0006-9000000000-f725656a4f18fa50ddf9
submitter=submitter = University of Tokyo Team (Faculty of Engineering, University of Tokyo)
MoNA Rating=3.75

>  <NUM PEAKS>  (746) 
17

>  <MASS SPECTRAL PEAKS>  (746) 
14 2.11
15 13.34
26 1.65
27 2.89
28 3.71
29 1.27
30 1.62
31 2.78
38 1.04
39 1.91
40 4.28
41 4.59
42 15.14
43 99.99
44 2.44
58 5.66
101 13.92

$$$$

     RDKit          2D

  9  9  0  0  0  0  0  0  0  0999 V2000
   -1.3000    0.7500    0.0000 C   0  0  0  0  0  0  0  0  0  0  0  0
    0.0000    1.5000    0.0000 C   0  0  0  0  0  0  0  0  0  0  0  0
   -0.0000   -1.5000    0.0000 C   0  0  0  0  0  0  0  0  0  0  0  0
   -1.3000   -0.7500    0.0000 C   0  0  0  0  0  0  0  0  0  0  0  0
    1.3000   -0.7500    0.0000 C   0  0  0  0  0  0  0  0  0  0  0  0
    1.3000    0.7500    0.0000 C   0  0  0  0  0  0  0  0  0  0  0  0
    2.5989   -1.5002    0.0000 Cl  0  0  0  0  0  0  0  0  0  0  0  0
   -2.5989   -1.5002    0.0000 O   0  0  0  0  0  0  0  0  0  0  0  0
    2.5989    1.5002    0.0000 O   0  0  0  0  0  0  0  0  0  0  0  0
  2  1  2  0
  4  1  1  0
  4  3  2  0
  5  3  1  0
  6  2  1  0
  6  5  2  0
  7  5  1  0
  8  4  1  0
  9  6  1  0
M  END
>  <NAME>  (747) 
CHLOROHYDROQUINONE

>  <SYNONYMS>  (747) 


>  <SPECTRUM TYPE>  (747) 
MS1

>  <INSTRUMENT TYPE>  (747) 
EI-B

>  <INSTRUMENT>  (747) 
HITACHI M-80

>  <ION MODE>  (747) 
P

>  <INCHIKEY>  (747) 
AJPXTSMULZANCB-UHFFFAOYSA-N

>  <FORMULA>  (747) 
C6H5ClO2

>  <EXACT MASS>  (747) 
143.99780708

>  <MW>  (747) 
144

>  <ID>  (747) 
JP011077

>  <CONTRIBUTOR>  (747) 
University of Tokyo Team, {Faculty of Engineering, University of Tokyo

>  <COMMENT>  (747) 
SMILES=Oc(c1)cc(Cl)c(O)c1
cas=615-67-8
InChI=InChI=1S/C6H5ClO2/c7-5-3-4(8)1-2-6(5)9/h1-3,8-9H
computed SMILES=ClC1=CC(O)=CC=C1O
accession=JP011077
date=2016.01.19 (Created 2008.10.21, modified 2011.05.06)
author=YAMAMOTO M, DEP. CHEMISTRY, FAC. SCIENCE, NARA WOMEN'S UNIV.
license=CC BY-NC-SA
exact mass=143.99781
ionization energy=70 eV
ion type=[M]+*
computed spectral entropy=2.7195015023409805
computed normalized entropy=0.7323141852352586
SPLASH=splash10-0f6x-9800000000-69fa8db44eeaa8c39603
submitter=submitter = University of Tokyo Team (Faculty of Engineering, University of Tokyo)
MoNA Rating=3.75

>  <NUM PEAKS>  (747) 
41

>  <MASS SPECTRAL PEAKS>  (747) 
25 1.01
26 3.77
27 4.04
28 1
29 3.54
37 1.56
38 1.43
39 1.97
49 1.36
50 4.82
51 13.79
52 40.8
53 14.81
54 4.05
55 4.34
60 1.89
61 2.99
62 3.14
63 3.82
69 1.88
72 2.19
73 1.56
79 4.94
80 25.75
81 10.63
82 1.47
86 1.25
87 1.78
89 1.47
107 1.45
108 3.1
109 1.26
110 5.97
114 1.16
115 3.46
117 1.11
143 2.59
144 99.99
145 7.67
146 32.98
147 2.18

$$$$

     RDKit          2D

 12 12  0  0  0  0  0  0  0  0999 V2000
   -1.3000   -0.7500    0.0000 C   0  0  0  0  0  0  0  0  0  0  0  0
   -1.3000    0.7500    0.0000 C   0  0  0  0  0  0  0  0  0  0  0  0
   -0.0000   -1.5000    0.0000 C   0  0  0  0  0  0  0  0  0  0  0  0
    0.0000    1.5000    0.0000 C   0  0  0  0  0  0  0  0  0  0  0  0
    1.3000   -0.7500    0.0000 C   0  0  0  0  0  0  0  0  0  0  0  0
    1.3000    0.7500    0.0000 C   0  0  0  0  0  0  0  0  0  0  0  0
   -2.5989   -1.5002    0.0000 Cl  0  0  0  0  0  0  0  0  0  0  0  0
   -2.5989    1.5002    0.0000 Cl  0  0  0  0  0  0  0  0  0  0  0  0
   -0.0000   -3.0000    0.0000 Cl  0  0  0  0  0  0  0  0  0  0  0  0
    0.0000    3.0000    0.0000 Cl  0  0  0  0  0  0  0  0  0  0  0  0
    2.5989   -1.5002    0.0000 O   0  0  0  0  0  0  0  0  0  0  0  0
    2.5989    1.5002    0.0000 O   0  0  0  0  0  0  0  0  0  0  0  0
  2  1  1  0
  3  1  2  0
  4  2  2  0
  5  3  1  0
  6  4  1  0
  6  5  1  0
  7  1  1  0
  8  2  1  0
  9  3  1  0
 10  4  1  0
 11  5  2  0
 12  6  2  0
M  END
>  <NAME>  (748) 
TETRACHLORO-1,2-BENZOQUINONE

>  <SYNONYMS>  (748) 
ORTHO-CHLORANIL

>  <SPECTRUM TYPE>  (748) 
MS1

>  <INSTRUMENT TYPE>  (748) 
EI-B

>  <INSTRUMENT>  (748) 
HITACHI M-80

>  <ION MODE>  (748) 
P

>  <INCHIKEY>  (748) 
VRGCYEIGVVTZCC-UHFFFAOYSA-N

>  <FORMULA>  (748) 
C6Cl4O2

>  <EXACT MASS>  (748) 
243.86523996

>  <MW>  (748) 
244

>  <ID>  (748) 
JP011076

>  <CONTRIBUTOR>  (748) 
University of Tokyo Team, {Faculty of Engineering, University of Tokyo

>  <COMMENT>  (748) 
SMILES=O=c(c(=O)1)c(Cl)c(Cl)c(Cl)c(Cl)1
cas=2435-53-2
InChI=InChI=1S/C6Cl4O2/c7-1-2(8)4(10)6(12)5(11)3(1)9
computed SMILES=O=C1C(=O)C(Cl)=C(Cl)C(Cl)=C1Cl
accession=JP011076
date=2016.01.19 (Created 2008.10.21, modified 2011.05.06)
author=YAMAMOTO M, DEP. CHEMISTRY, FAC. SCIENCE, NARA WOMEN'S UNIV.
license=CC BY-NC-SA
exact mass=243.86524
ionization energy=70 eV
ion type=[M]+*
computed spectral entropy=3.5417784032883346
computed normalized entropy=0.8203330988182808
SPLASH=splash10-000m-5490000000-5561c32427fd0bdfbbea
submitter=submitter = University of Tokyo Team (Faculty of Engineering, University of Tokyo)
MoNA Rating=3.75

>  <NUM PEAKS>  (748) 
75

>  <MASS SPECTRAL PEAKS>  (748) 
24 1.75
35 6.48
36 3.27
37 1.99
47 12.53
48 3.14
49 4.05
52 4.5
59 8.02
60 2.17
61 2.9
63 4.34
65 1.43
71 4.68
73 1.45
83 8.59
85 2.71
87 99.99
88 3.33
89 32.04
90 1.04
95 3.62
96 16.19
97 1.22
98 2.56
106 1.79
108 1.12
111 3.88
113 1.26
118 19.93
120 13.36
122 9.62
124 4.77
130 1.39
153 12.69
155 12.29
157 4.75
159 1.13
165 1.72
167 1.6
181 19.52
182 1.13
183 18.8
184 1.08
185 6.15
188 23.7
189 1.07
190 30.73
191 1.4
192 15.02
194 3.13
209 42.53
210 2.87
211 40.74
212 3.01
213 13.29
214 1.24
215 1.54
216 24.98
217 1.4
218 31.3
219 1.7
220 15.16
222 3.27
235 1.72
237 2.76
238 1.11
239 1.82
244 60.34
245 4.23
246 78.9
247 5.41
248 38.46
249 2.71
250 8.46

$$$$

     RDKit          2D

  9  9  0  0  0  0  0  0  0  0999 V2000
   -0.6468   -0.3740    0.0000 C   0  0  0  0  0  0  0  0  0  0  0  0
    0.6482    1.8690    0.0000 C   0  0  0  0  0  0  0  0  0  0  0  0
    0.6522   -1.1240    0.0000 C   0  0  0  0  0  0  0  0  0  0  0  0
    1.9472    1.1190    0.0000 C   0  0  0  0  0  0  0  0  0  0  0  0
   -1.9591    1.8530    0.0000 C   0  0  0  0  0  0  0  0  0  0  0  0
   -0.6564    1.1095    0.0000 C   0  0  0  0  0  0  0  0  0  0  0  0
    1.9504   -0.3955    0.0000 C   0  0  0  0  0  0  0  0  0  0  0  0
    3.2456   -1.1521    0.0000 Cl  0  0  0  0  0  0  0  0  0  0  0  0
   -3.2619    2.5964    0.0000 N   0  0  0  0  0  0  0  0  0  0  0  0
  3  1  2  0
  4  2  1  0
  6  1  1  0
  6  2  2  0
  6  5  1  0
  7  3  1  0
  7  4  2  0
  8  7  1  0
  9  5  3  0
M  END
>  <NAME>  (749) 
4-CHLOROBENZONITRILE

>  <SYNONYMS>  (749) 


>  <SPECTRUM TYPE>  (749) 
MS1

>  <INSTRUMENT TYPE>  (749) 
EI-B

>  <INSTRUMENT>  (749) 
HITACHI M-80

>  <ION MODE>  (749) 
P

>  <INCHIKEY>  (749) 
GJNGXPDXRVXSEH-UHFFFAOYSA-N

>  <FORMULA>  (749) 
C7H4ClN

>  <EXACT MASS>  (749) 
137.003226808

>  <MW>  (749) 
137

>  <ID>  (749) 
JP011075

>  <CONTRIBUTOR>  (749) 
University of Tokyo Team, {Faculty of Engineering, University of Tokyo

>  <COMMENT>  (749) 
SMILES=N#Cc(c1)ccc(Cl)c1
cas=623-03-0
InChI=InChI=1S/C7H4ClN/c8-7-3-1-6(5-9)2-4-7/h1-4H
computed SMILES=N#CC1=CC=C(Cl)C=C1
accession=JP011075
date=2016.01.19 (Created 2008.10.21, modified 2011.05.06)
author=YAMAMOTO M, DEP. CHEMISTRY, FAC. SCIENCE, NARA WOMEN'S UNIV.
license=CC BY-NC-SA
exact mass=137.00323
ionization energy=70 eV
ion type=[M]+*
computed spectral entropy=2.6920983548378272
computed normalized entropy=0.7348309145232708
SPLASH=splash10-000i-5900000000-11bee0359d06b983c5e2
submitter=submitter = University of Tokyo Team (Faculty of Engineering, University of Tokyo)
MoNA Rating=3.75

>  <NUM PEAKS>  (749) 
39

>  <MASS SPECTRAL PEAKS>  (749) 
18 3.01
26 1.69
27 1.89
28 3.12
35 1.03
36 1.21
37 5.03
38 3.94
39 1.93
49 3.73
50 16.93
51 12.5
52 2.63
60 1.83
61 2.25
62 2.74
63 2.49
64 1.73
68 1.55
72 1.21
73 4.63
74 7.72
75 19.45
76 10.81
77 1.02
84 1.24
85 1.33
86 1.53
99 2.77
100 3.3
101 3.61
102 34.08
103 2.97
110 2.39
111 1.09
137 99.99
138 8.03
139 32.08
140 2.67

$$$$

     RDKit          2D

 16 17  0  0  0  0  0  0  0  0999 V2000
   -2.5989   -1.5002    0.0000 C   0  0  0  0  0  0  0  0  0  0  0  0
    7.7963   -1.5010    0.0000 C   0  0  0  0  0  0  0  0  0  0  0  0
   -1.3000    0.7500    0.0000 C   0  0  0  0  0  0  0  0  0  0  0  0
    0.0000   -1.5000    0.0000 C   0  0  0  0  0  0  0  0  0  0  0  0
    5.1981   -1.5012    0.0000 C   0  0  0  0  0  0  0  0  0  0  0  0
    6.4966    0.7496    0.0000 C   0  0  0  0  0  0  0  0  0  0  0  0
    0.0000    1.5000    0.0000 C   0  0  0  0  0  0  0  0  0  0  0  0
    1.3000   -0.7500    0.0000 C   0  0  0  0  0  0  0  0  0  0  0  0
    3.8986   -0.7504    0.0000 C   0  0  0  0  0  0  0  0  0  0  0  0
    5.1971    1.5004    0.0000 C   0  0  0  0  0  0  0  0  0  0  0  0
   -1.3000   -0.7500    0.0000 C   0  0  0  0  0  0  0  0  0  0  0  0
    6.4971   -0.7512    0.0000 C   0  0  0  0  0  0  0  0  0  0  0  0
    1.3000    0.7500    0.0000 C   0  0  0  0  0  0  0  0  0  0  0  0
    3.8981    0.7504    0.0000 C   0  0  0  0  0  0  0  0  0  0  0  0
    2.5989    1.5002    0.0000 C   0  0  0  0  0  0  0  0  0  0  0  0
    2.5987    3.0002    0.0000 O   0  0  0  0  0  0  0  0  0  0  0  0
  7  3  2  0
  8  4  1  0
  9  5  2  0
 10  6  1  0
 11  1  1  0
 11  3  1  0
 11  4  2  0
 12  2  1  0
 12  5  1  0
 12  6  2  0
 13  7  1  0
 13  8  2  0
 14  9  1  0
 14 10  2  0
 15 13  1  0
 15 14  1  0
 16 15  2  0
M  END
>  <NAME>  (750) 
4,4'-DIMETHYLBENZOPHENONE

>  <SYNONYMS>  (750) 


>  <SPECTRUM TYPE>  (750) 
MS1

>  <INSTRUMENT TYPE>  (750) 
EI-B

>  <INSTRUMENT>  (750) 
HITACHI M-80

>  <ION MODE>  (750) 
P

>  <INCHIKEY>  (750) 
ZWPWLKXZYNXATK-UHFFFAOYSA-N

>  <FORMULA>  (750) 
C15H14O

>  <EXACT MASS>  (750) 
210.104465068

>  <MW>  (750) 
210

>  <ID>  (750) 
JP011074

>  <CONTRIBUTOR>  (750) 
University of Tokyo Team, {Faculty of Engineering, University of Tokyo

>  <COMMENT>  (750) 
SMILES=Cc(c2)ccc(c2)C(=O)c(c1)ccc(C)c1
InChI=InChI=1S/C15H14O/c1-11-3-7-13(8-4-11)15(16)14-9-5-12(2)6-10-14/h3-10H,1-2H3
computed SMILES=O=C(C1=CC=C(C=C1)C)C2=CC=C(C=C2)C
accession=JP011074
date=2016.01.19 (Created 2008.10.21, modified 2011.05.06)
author=YAMAMOTO M, DEP. CHEMISTRY, FAC. SCIENCE, NARA WOMEN'S UNIV.
license=CC BY-NC-SA
exact mass=210.10447
ionization energy=70 eV
ion type=[M]+*
computed spectral entropy=2.2689503855589384
computed normalized entropy=0.6964036697748636
SPLASH=splash10-014i-4930000000-73b3a1d43392ea031cda
submitter=submitter = University of Tokyo Team (Faculty of Engineering, University of Tokyo)
MoNA Rating=3.75

>  <NUM PEAKS>  (750) 
26

>  <MASS SPECTRAL PEAKS>  (750) 
18 1.09
28 1.65
39 4.71
41 1.48
51 2.18
62 1.05
63 4.22
64 1.3
65 14.79
89 5.11
90 4.49
91 36.07
92 2.96
119 99.99
120 8.83
152 1.04
165 4.02
166 1.42
167 1.02
181 1.75
182 1.4
195 28.28
196 4.46
209 3.66
210 44.5
211 7.45

$$$$

     RDKit          2D

  9  8  0  0  0  0  0  0  0  0999 V2000
   -0.3248    5.4375    0.0000 C   0  0  0  0  0  0  0  0  0  0  0  0
   -1.6238    3.1875    0.0000 C   0  0  0  0  0  0  0  0  0  0  0  0
   -0.3248    3.9375    0.0000 C   0  0  0  0  0  0  0  0  0  0  0  0
   -1.6238    1.6875    0.0000 C   0  0  0  0  0  0  0  0  0  0  0  0
    0.9743    3.1875    0.0000 C   0  0  0  0  0  0  0  0  0  0  0  0
   -2.9228    0.9375    0.0000 O   0  0  0  0  0  0  0  0  0  0  0  0
   -0.3248    0.9375    0.0000 O   0  0  0  0  0  0  0  0  0  0  0  0
    0.9743    1.6875    0.0000 O   0  0  0  0  0  0  0  0  0  0  0  0
    2.2733    3.9375    0.0000 O   0  0  0  0  0  0  0  0  0  0  0  0
  3  1  1  0
  2  3  2  0
  4  2  1  0
  5  3  1  0
  6  4  2  0
  7  4  1  0
  8  5  2  0
  9  5  1  0
M  END
>  <NAME>  (751) 
CITRACONIC ACID

>  <SYNONYMS>  (751) 


>  <SPECTRUM TYPE>  (751) 
MS1

>  <INSTRUMENT TYPE>  (751) 
EI-B

>  <INSTRUMENT>  (751) 
HITACHI M-80

>  <ION MODE>  (751) 
P

>  <INCHIKEY>  (751) 
HNEGQIOMVPPMNR-IHWYPQMZSA-N

>  <FORMULA>  (751) 
C5H6O4

>  <EXACT MASS>  (751) 
130.026608672

>  <MW>  (751) 
130

>  <ID>  (751) 
JP011072

>  <CONTRIBUTOR>  (751) 
University of Tokyo Team, {Faculty of Engineering, University of Tokyo

>  <COMMENT>  (751) 
SMILES=OC(=O)C=C(C)C(O)=O
cas=498-23-7
InChI=InChI=1S/C5H6O4/c1-3(5(8)9)2-4(6)7/h2H,1H3,(H,6,7)(H,8,9)/b3-2-
computed SMILES=O=C(O)C=C(C(=O)O)C
accession=JP011072
date=2016.01.19 (Created 2008.10.21, modified 2011.05.06)
author=YAMAMOTO M, DEP. CHEMISTRY, FAC. SCIENCE, NARA WOMEN'S UNIV.
license=CC BY-NC-SA
exact mass=130.02661
ionization energy=70 eV
ion type=[M]+*
computed spectral entropy=2.791258700267129
computed normalized entropy=0.773005304411124
SPLASH=splash10-000i-9300000000-e6df22429c37d2a7f548
submitter=submitter = University of Tokyo Team (Faculty of Engineering, University of Tokyo)
MoNA Rating=3.75

>  <NUM PEAKS>  (751) 
37

>  <MASS SPECTRAL PEAKS>  (751) 
15 1.49
18 1.11
26 1.8
27 4.1
28 1.23
29 6.38
31 1.86
37 9.13
38 17.95
39 89.81
40 31.44
41 33.79
42 6.82
43 12.37
44 2.08
45 25.71
46 1.38
53 7.32
55 3.45
56 2.08
57 2.79
58 2.13
66 2.35
67 7.46
68 55.32
69 13.96
71 9.21
83 1.37
84 14.16
85 16.97
86 99.99
87 5.49
96 1.11
112 2.8
113 91.47
131 73.58
132 4.1

$$$$

     RDKit          2D

 13 15  0  0  0  0  0  0  0  0999 V2000
   -3.2200   -1.2700    0.0000 C   0  0  0  0  0  0  0  0  0  0  0  0
    3.2200   -1.2700    0.0000 C   0  0  0  0  0  0  0  0  0  0  0  0
   -3.6800    0.1600    0.0000 C   0  0  0  0  0  0  0  0  0  0  0  0
    3.6800    0.1600    0.0000 C   0  0  0  0  0  0  0  0  0  0  0  0
   -1.7500   -1.5800    0.0000 C   0  0  0  0  0  0  0  0  0  0  0  0
    1.7500   -1.5800    0.0000 C   0  0  0  0  0  0  0  0  0  0  0  0
   -2.6800    1.2700    0.0000 C   0  0  0  0  0  0  0  0  0  0  0  0
    2.6800    1.2700    0.0000 C   0  0  0  0  0  0  0  0  0  0  0  0
   -0.7500   -0.4700    0.0000 C   0  0  0  0  0  0  0  0  0  0  0  0
    0.7500   -0.4700    0.0000 C   0  0  0  0  0  0  0  0  0  0  0  0
   -1.2100    0.9600    0.0000 C   0  0  0  0  0  0  0  0  0  0  0  0
    1.2100    0.9600    0.0000 C   0  0  0  0  0  0  0  0  0  0  0  0
   -0.0000    1.8400    0.0000 N   0  0  0  0  0  0  0  0  0  0  0  0
  3  1  2  0
  4  2  2  0
  5  1  1  0
  6  2  1  0
  7  3  1  0
  8  4  1  0
  9  5  2  0
 10  6  2  0
 10  9  1  0
 11  7  2  0
 11  9  1  0
 12  8  2  0
 12 10  1  0
 13 11  1  0
 13 12  1  0
M  END
>  <NAME>  (752) 
CARBAZOLE

>  <SYNONYMS>  (752) 


>  <SPECTRUM TYPE>  (752) 
MS1

>  <INSTRUMENT TYPE>  (752) 
EI-B

>  <INSTRUMENT>  (752) 
HITACHI M-80

>  <ION MODE>  (752) 
P

>  <INCHIKEY>  (752) 
UJOBWOGCFQCDNV-UHFFFAOYSA-N

>  <FORMULA>  (752) 
C12H9N

>  <EXACT MASS>  (752) 
167.073499288

>  <MW>  (752) 
167

>  <ID>  (752) 
JP011071

>  <CONTRIBUTOR>  (752) 
University of Tokyo Team, {Faculty of Engineering, University of Tokyo

>  <COMMENT>  (752) 
SMILES=C1=CC=C2C(=C1)C3=CC=CC=C3N2
cas=86-74-8
InChI=InChI=1S/C12H9N/c1-3-7-11-9(5-1)10-6-2-4-8-12(10)13-11/h1-8,13H
computed SMILES=C=1C=CC2=C(C1)NC=3C=CC=CC32
accession=JP011071
date=2016.01.19 (Created 2008.10.21, modified 2011.05.06)
author=YAMAMOTO M, DEP. CHEMISTRY, FAC. SCIENCE, NARA WOMEN'S UNIV.
license=CC BY-NC-SA
exact mass=167.0735
ionization energy=70 eV
ion type=[M]+*
computed spectral entropy=2.1592440473040053
computed normalized entropy=0.6287862821631388
SPLASH=splash10-014i-2900000000-b78b8a115b67c322c356
submitter=submitter = University of Tokyo Team (Faculty of Engineering, University of Tokyo)
MoNA Rating=3.75

>  <NUM PEAKS>  (752) 
31

>  <MASS SPECTRAL PEAKS>  (752) 
17 1.13
18 3.6
39 1.97
50 1.47
51 1.6
62 1.82
63 3.16
69 1.77
70 1.44
74 1.91
75 1.74
76 1.12
77 1.14
83 1.32
84 7.39
86 1.22
87 1.63
88 1.51
89 1.75
113 2.36
114 1.54
115 1.78
138 1.42
139 11.22
140 7.89
141 1.24
164 1.91
165 1.52
166 15.32
167 99.99
168 13.5

$$$$

     RDKit          2D

 10 10  0  0  0  0  0  0  0  0999 V2000
   -3.9008    0.7413    0.0000 C   0  0  0  0  0  0  0  0  0  0  0  0
    0.0072   -1.5063    0.0000 C   0  0  0  0  0  0  0  0  0  0  0  0
    1.3207    0.7186    0.0000 C   0  0  0  0  0  0  0  0  0  0  0  0
   -1.2773   -0.7814    0.0000 C   0  0  0  0  0  0  0  0  0  0  0  0
   -0.0038    1.5127    0.0000 C   0  0  0  0  0  0  0  0  0  0  0  0
    2.6016   -1.5127    0.0000 C   0  0  0  0  0  0  0  0  0  0  0  0
    1.3062   -0.7563    0.0000 C   0  0  0  0  0  0  0  0  0  0  0  0
   -1.3028    0.7627    0.0000 C   0  0  0  0  0  0  0  0  0  0  0  0
    3.9043   -0.7691    0.0000 N   0  0  0  0  0  0  0  0  0  0  0  0
   -2.6080    1.5020    0.0000 O   0  0  0  0  0  0  0  0  0  0  0  0
  4  2  2  0
  5  3  1  0
  7  2  1  0
  7  3  2  0
  7  6  1  0
  8  4  1  0
  8  5  2  0
  9  6  1  0
 10  1  1  0
 10  8  1  0
M  END
>  <NAME>  (753) 
4-METHOXYBENZYLAMINE

>  <SYNONYMS>  (753) 


>  <SPECTRUM TYPE>  (753) 
MS1

>  <INSTRUMENT TYPE>  (753) 
EI-B

>  <INSTRUMENT>  (753) 
HITACHI M-80

>  <ION MODE>  (753) 
P

>  <INCHIKEY>  (753) 
IDPURXSQCKYKIJ-UHFFFAOYSA-N

>  <FORMULA>  (753) 
C8H11NO

>  <EXACT MASS>  (753) 
137.084063972

>  <MW>  (753) 
137

>  <ID>  (753) 
JP011069

>  <CONTRIBUTOR>  (753) 
University of Tokyo Team, {Faculty of Engineering, University of Tokyo

>  <COMMENT>  (753) 
SMILES=NCc(c1)ccc(OC)c1
cas=2393-23-9
InChI=InChI=1S/C8H11NO/c1-10-8-4-2-7(6-9)3-5-8/h2-5H,6,9H2,1H3
computed SMILES=O(C1=CC=C(C=C1)CN)C
accession=JP011069
date=2016.01.19 (Created 2008.10.21, modified 2011.05.06)
author=YAMAMOTO M, DEP. CHEMISTRY, FAC. SCIENCE, NARA WOMEN'S UNIV.
license=CC BY-NC-SA
exact mass=137.08406
ionization energy=70 eV
ion type=[M]+*
computed spectral entropy=3.0395879107834882
computed normalized entropy=0.8081430972260274
SPLASH=splash10-000i-4900000000-e341129c12366841e06f
submitter=submitter = University of Tokyo Team (Faculty of Engineering, University of Tokyo)
MoNA Rating=3.75

>  <NUM PEAKS>  (753) 
43

>  <MASS SPECTRAL PEAKS>  (753) 
15 6.3
26 1.01
27 1.43
29 2.39
30 22.41
37 1.05
38 3.33
39 9.9
41 2.4
50 6.76
51 10.22
52 4.67
53 2.05
54 1.57
62 3.05
63 9.01
64 6.31
65 10.27
66 8.65
67 4.92
74 2.15
75 1.54
76 2.45
77 19.74
78 13.1
79 5.35
89 4.95
90 1.5
104 5.18
105 5.16
106 40.98
107 4.73
108 7.94
109 19.11
110 1.64
119 4.12
120 10.29
121 40.02
122 10.9
134 3.04
136 99.99
137 62.87
138 5.63

$$$$

     RDKit          2D

 12 12  0  0  0  0  0  0  0  0999 V2000
   -3.8981   -0.7504    0.0000 C   0  0  0  0  0  0  0  0  0  0  0  0
    3.8981    0.7504    0.0000 C   0  0  0  0  0  0  0  0  0  0  0  0
   -1.3000    0.7500    0.0000 C   0  0  0  0  0  0  0  0  0  0  0  0
    0.0000   -1.5000    0.0000 C   0  0  0  0  0  0  0  0  0  0  0  0
    0.0000    1.5000    0.0000 C   0  0  0  0  0  0  0  0  0  0  0  0
    1.3000   -0.7500    0.0000 C   0  0  0  0  0  0  0  0  0  0  0  0
   -2.5989   -1.5002    0.0000 C   0  0  0  0  0  0  0  0  0  0  0  0
    2.5989    1.5002    0.0000 C   0  0  0  0  0  0  0  0  0  0  0  0
   -1.3000   -0.7500    0.0000 C   0  0  0  0  0  0  0  0  0  0  0  0
    1.3000    0.7500    0.0000 C   0  0  0  0  0  0  0  0  0  0  0  0
   -2.5987   -3.0002    0.0000 O   0  0  0  0  0  0  0  0  0  0  0  0
    2.5987    3.0002    0.0000 O   0  0  0  0  0  0  0  0  0  0  0  0
  5  3  2  0
  6  4  1  0
  7  1  1  0
  8  2  1  0
  9  3  1  0
  9  4  2  0
  9  7  1  0
 10  5  1  0
 10  6  2  0
 10  8  1  0
 11  7  2  0
 12  8  2  0
M  END
>  <NAME>  (754) 
1,4-DIACETYLBENZENE

>  <SYNONYMS>  (754) 


>  <SPECTRUM TYPE>  (754) 
MS1

>  <INSTRUMENT TYPE>  (754) 
EI-B

>  <INSTRUMENT>  (754) 
HITACHI M-80

>  <ION MODE>  (754) 
P

>  <INCHIKEY>  (754) 
SKBBQSLSGRSQAJ-UHFFFAOYSA-N

>  <FORMULA>  (754) 
C10H10O2

>  <EXACT MASS>  (754) 
162.06807956

>  <MW>  (754) 
162

>  <ID>  (754) 
JP011068

>  <CONTRIBUTOR>  (754) 
University of Tokyo Team, {Faculty of Engineering, University of Tokyo

>  <COMMENT>  (754) 
SMILES=CC(=O)c(c1)ccc(C(C)=O)c1
cas=1009-61-6
InChI=InChI=1S/C10H10O2/c1-7(11)9-3-5-10(6-4-9)8(2)12/h3-6H,1-2H3
computed SMILES=O=C(C1=CC=C(C=C1)C(=O)C)C
accession=JP011068
license=CC BY-NC-SA
date=2016.01.19 (Created 2008.10.21, modified 2011.05.06)
author=YAMAMOTO M, DEP. CHEMISTRY, FAC. SCIENCE, NARA WOMEN'S UNIV.
exact mass=162.06808
ionization energy=70 eV
ion type=[M]+*
computed spectral entropy=2.357148497797019
computed normalized entropy=0.7234741114296219
SPLASH=splash10-0002-4900000000-6894aa06f3fff0b35d51
submitter=submitter = University of Tokyo Team (Faculty of Engineering, University of Tokyo)
MoNA Rating=3.75

>  <NUM PEAKS>  (754) 
26

>  <MASS SPECTRAL PEAKS>  (754) 
15 2.33
39 1.38
42 1.31
43 26.09
50 5.43
51 3.32
62 1.64
63 2.64
65 2.02
74 3.14
75 3.3
76 9.08
77 6.85
89 2.95
90 2.51
91 19.2
92 1.43
104 6.7
105 1.94
119 14.72
120 1.83
147 99.99
148 9.93
149 1.43
162 32.31
163 4.69

$$$$

     RDKit          2D

  9  9  0  0  0  0  0  0  0  0999 V2000
   -3.2575    1.8770    0.0000 C   0  0  0  0  0  0  0  0  0  0  0  0
   -1.9548    2.6206    0.0000 C   0  0  0  0  0  0  0  0  0  0  0  0
    0.6396    2.6142    0.0000 C   0  0  0  0  0  0  0  0  0  0  0  0
   -0.6740    0.3893    0.0000 C   0  0  0  0  0  0  0  0  0  0  0  0
    1.9241    1.8893    0.0000 C   0  0  0  0  0  0  0  0  0  0  0  0
    0.6506   -0.4048    0.0000 C   0  0  0  0  0  0  0  0  0  0  0  0
   -0.6594    1.8642    0.0000 C   0  0  0  0  0  0  0  0  0  0  0  0
    1.9496    0.3452    0.0000 C   0  0  0  0  0  0  0  0  0  0  0  0
    3.2548   -0.3941    0.0000 O   0  0  0  0  0  0  0  0  0  0  0  0
  2  1  1  0
  5  3  2  0
  6  4  1  0
  7  2  1  0
  7  3  1  0
  7  4  2  0
  8  5  1  0
  8  6  2  0
  9  8  1  0
M  END
>  <NAME>  (755) 
4-ETHYLPHENOL

>  <SYNONYMS>  (755) 


>  <SPECTRUM TYPE>  (755) 
MS1

>  <INSTRUMENT TYPE>  (755) 
EI-B

>  <INSTRUMENT>  (755) 
HITACHI M-80

>  <ION MODE>  (755) 
P

>  <INCHIKEY>  (755) 
HXDOZKJGKXYMEW-UHFFFAOYSA-N

>  <FORMULA>  (755) 
C8H10O

>  <EXACT MASS>  (755) 
122.07316494

>  <MW>  (755) 
122

>  <ID>  (755) 
JP011067

>  <CONTRIBUTOR>  (755) 
University of Tokyo Team, {Faculty of Engineering, University of Tokyo

>  <COMMENT>  (755) 
SMILES=CCc(c1)ccc(O)c1
cas=123-07-9
InChI=InChI=1S/C8H10O/c1-2-7-3-5-8(9)6-4-7/h3-6,9H,2H2,1H3
computed SMILES=OC1=CC=C(C=C1)CC
accession=JP011067
date=2016.01.19 (Created 2008.10.21, modified 2011.05.06)
author=YAMAMOTO M, DEP. CHEMISTRY, FAC. SCIENCE, NARA WOMEN'S UNIV.
license=CC BY-NC-SA
exact mass=122.07316
ionization energy=70 eV
ion type=[M]+*
computed spectral entropy=1.987252962245614
computed normalized entropy=0.6337925779450772
SPLASH=splash10-0a4i-3900000000-8b361994c5f7ad64360e
submitter=submitter = University of Tokyo Team (Faculty of Engineering, University of Tokyo)
MoNA Rating=3.75

>  <NUM PEAKS>  (755) 
23

>  <MASS SPECTRAL PEAKS>  (755) 
27 3.38
39 5.16
50 2.01
51 3.17
52 1.83
53 2.99
55 1.38
62 1.37
63 3.65
65 3.52
66 1.2
77 13.13
78 3.27
79 1.81
91 4.43
93 1
94 1.54
103 1.63
107 99.99
108 7.78
121 3.33
122 33.18
123 3.27

$$$$

     RDKit          2D

 14 16  0  0  0  0  0  0  0  0999 V2000
    1.7600    2.9500    0.0000 C   0  0  0  0  0  0  0  0  0  0  0  0
   -3.4300   -0.0500    0.0000 C   0  0  0  0  0  0  0  0  0  0  0  0
    3.0600    2.2000    0.0000 C   0  0  0  0  0  0  0  0  0  0  0  0
   -3.4300   -1.5500    0.0000 C   0  0  0  0  0  0  0  0  0  0  0  0
    0.4600    2.2000    0.0000 C   0  0  0  0  0  0  0  0  0  0  0  0
   -2.1300    0.7000    0.0000 C   0  0  0  0  0  0  0  0  0  0  0  0
    3.0600    0.7000    0.0000 C   0  0  0  0  0  0  0  0  0  0  0  0
   -2.1300   -2.3000    0.0000 C   0  0  0  0  0  0  0  0  0  0  0  0
    0.4600    0.7000    0.0000 C   0  0  0  0  0  0  0  0  0  0  0  0
   -0.8300   -0.0500    0.0000 C   0  0  0  0  0  0  0  0  0  0  0  0
    1.7600   -0.0500    0.0000 C   0  0  0  0  0  0  0  0  0  0  0  0
   -0.8300   -1.5500    0.0000 C   0  0  0  0  0  0  0  0  0  0  0  0
    1.7600   -1.5500    0.0000 N   0  0  0  0  0  0  0  0  0  0  0  0
    0.4600   -2.3000    0.0000 N   0  0  0  0  0  0  0  0  0  0  0  0
  3  1  2  0
  4  2  2  0
  5  1  1  0
  6  2  1  0
  7  3  1  0
  8  4  1  0
  9  5  2  0
 10  6  2  0
 10  9  1  0
 11  7  2  0
 11  9  1  0
 12  8  2  0
 12 10  1  0
 13 11  1  0
 14 12  1  0
 14 13  2  0
M  END
>  <NAME>  (756) 
BENZO(C)CINNOLINE

>  <SYNONYMS>  (756) 


>  <SPECTRUM TYPE>  (756) 
MS1

>  <INSTRUMENT TYPE>  (756) 
EI-B

>  <INSTRUMENT>  (756) 
HITACHI M-80

>  <ION MODE>  (756) 
P

>  <INCHIKEY>  (756) 
SWJXWSAKHXBQSY-UHFFFAOYSA-N

>  <FORMULA>  (756) 
C12H8N2

>  <EXACT MASS>  (756) 
180.068748256

>  <MW>  (756) 
180

>  <ID>  (756) 
JP011065

>  <CONTRIBUTOR>  (756) 
University of Tokyo Team, {Faculty of Engineering, University of Tokyo

>  <COMMENT>  (756) 
SMILES=c(c3)cc(n1)c(c3)c(c2)c(ccc2)n1
cas=230-17-1
InChI=InChI=1S/C12H8N2/c1-3-7-11-9(5-1)10-6-2-4-8-12(10)14-13-11/h1-8H
computed SMILES=N1=NC2=CC=CC=C2C3=CC=CC=C13
accession=JP011065
date=2016.01.19 (Created 2008.10.21, modified 2011.05.06)
author=YAMAMOTO M, DEP. CHEMISTRY, FAC. SCIENCE, NARA WOMEN'S UNIV.
license=CC BY-NC-SA
exact mass=180.06875
ionization energy=70 eV
ion type=[M]+*
computed spectral entropy=2.591831335433242
computed normalized entropy=0.7289951055727205
SPLASH=splash10-0ue9-2900000000-d416d08b10179a8ca33e
submitter=submitter = University of Tokyo Team (Faculty of Engineering, University of Tokyo)
MoNA Rating=3.75

>  <NUM PEAKS>  (756) 
35

>  <MASS SPECTRAL PEAKS>  (756) 
27 1.15
38 1.95
39 4.97
50 5.59
51 4.63
52 1.44
61 1.89
62 4.69
63 12.47
64 1.04
74 8.74
75 9.58
76 13.28
77 1.76
85 1.03
86 3.69
87 6.13
88 1.15
98 4.25
99 3.8
100 2.61
101 1.4
102 3.98
111 1.39
113 1.51
125 2.85
126 15.5
127 1.69
149 1.34
150 18.21
151 34.54
152 99.99
153 13.12
180 90.88
181 12.84

$$$$

     RDKit          2D

  9 10  0  0  0  0  0  0  0  0999 V2000
   -2.3100   -0.7500    0.0000 C   0  0  0  0  0  0  0  0  0  0  0  0
   -2.3100    0.7500    0.0000 C   0  0  0  0  0  0  0  0  0  0  0  0
   -1.0100   -1.5000    0.0000 C   0  0  0  0  0  0  0  0  0  0  0  0
   -1.0100    1.5000    0.0000 C   0  0  0  0  0  0  0  0  0  0  0  0
    0.2900   -0.7500    0.0000 C   0  0  0  0  0  0  0  0  0  0  0  0
    0.2900    0.7500    0.0000 C   0  0  0  0  0  0  0  0  0  0  0  0
    1.7200   -1.2100    0.0000 N   0  0  0  0  0  0  0  0  0  0  0  0
    1.7200    1.2100    0.0000 N   0  0  0  0  0  0  0  0  0  0  0  0
    2.6000    0.0000    0.0000 N   0  0  0  0  0  0  0  0  0  0  0  0
  2  1  2  0
  3  1  1  0
  4  2  1  0
  5  3  2  0
  6  4  2  0
  6  5  1  0
  7  5  1  0
  8  6  1  0
  9  7  2  0
  9  8  1  0
M  END
>  <NAME>  (757) 
BENZOTRIAZOLE

>  <SYNONYMS>  (757) 
1,2,3-BENZOTRIAZOLE

>  <SPECTRUM TYPE>  (757) 
MS1

>  <INSTRUMENT TYPE>  (757) 
EI-B

>  <INSTRUMENT>  (757) 
HITACHI M-80

>  <ION MODE>  (757) 
P

>  <INCHIKEY>  (757) 
QRUDEWIWKLJBPS-UHFFFAOYSA-N

>  <FORMULA>  (757) 
C6H5N3

>  <EXACT MASS>  (757) 
119.04834715999999

>  <MW>  (757) 
119

>  <ID>  (757) 
JP011064

>  <CONTRIBUTOR>  (757) 
University of Tokyo Team, {Faculty of Engineering, University of Tokyo

>  <COMMENT>  (757) 
SMILES=C1=CC2=NNN=C2C=C1
cas=95-14-7
InChI=InChI=1S/C6H5N3/c1-2-4-6-5(3-1)7-9-8-6/h1-4H,(H,7,8,9)
computed SMILES=N1=NC=2C=CC=CC2N1
accession=JP011064
date=2016.01.19 (Created 2008.10.21, modified 2011.05.06)
author=YAMAMOTO M, DEP. CHEMISTRY, FAC. SCIENCE, NARA WOMEN'S UNIV.
license=CC BY-NC-SA
exact mass=119.04835
ionization energy=70 eV
ion type=[M]+*
computed spectral entropy=2.6071453424054645
computed normalized entropy=0.7592181295842513
SPLASH=splash10-03xu-9200000000-14c60454b23abfdc1f33
submitter=submitter = University of Tokyo Team (Faculty of Engineering, University of Tokyo)
MoNA Rating=3.75

>  <NUM PEAKS>  (757) 
31

>  <MASS SPECTRAL PEAKS>  (757) 
26 3.1
27 3.14
28 3.23
29 3.39
37 9.29
38 20.98
39 14.82
40 3.67
41 8.28
44 1.45
46 1.25
49 1.9
50 4.65
51 5.62
52 21.71
53 1.4
60 1.18
61 8.25
62 12.59
63 48
64 62.29
65 19.19
75 1.04
76 2.06
87 1.38
88 1.47
90 5.09
91 77.86
92 5.81
119 99.99
120 11.21

$$$$

     RDKit          2D

 22 24  0  0  1  0  0  0  0  0999 V2000
    4.4724    4.5780    0.0000 C   0  0  0  0  0  0  0  0  0  0  0  0
    5.7681    2.3261    0.0000 C   0  0  0  0  0  0  0  0  0  0  0  0
   -0.7200    1.5800    0.0000 C   0  0  0  0  0  0  0  0  0  0  0  0
   -2.9841   -3.3192    0.0000 C   0  0  0  0  0  0  0  0  0  0  0  0
   -3.3200    0.0800    0.0000 C   0  0  0  0  0  0  0  0  0  0  0  0
    1.8800    3.0800    0.0000 C   0  0  0  0  0  0  0  0  0  0  0  0
    1.8800   -1.4200    0.0000 C   0  0  0  0  0  0  0  0  0  0  0  0
    0.5800    2.3300    0.0000 C   0  0  0  0  0  0  0  0  0  0  0  0
    0.5800   -2.1700    0.0000 C   0  0  0  0  0  0  0  0  0  0  0  0
   -2.0200    0.8300    0.0000 C   0  0  0  0  0  0  0  0  0  0  0  0
   -3.3200   -1.4200    0.0000 C   0  0  0  0  0  0  0  0  0  0  0  0
    3.1700    0.8300    0.0000 C   0  0  0  0  0  0  0  0  0  0  0  0
    4.4702    3.0780    0.0000 C   0  0  0  0  0  0  0  0  0  0  0  0
    3.1700    2.3300    0.0000 C   0  0  0  0  0  0  0  0  0  0  0  0
    1.8800    0.0800    0.0000 C   0  0  0  0  0  0  0  0  0  0  0  0
    0.5800    0.8300    0.0000 C   0  0  0  0  0  0  0  0  0  0  0  0
   -0.7200   -1.4200    0.0000 C   0  0  0  0  0  0  0  0  0  0  0  0
   -1.0559   -3.3192    0.0000 C   0  0  0  0  0  0  0  0  0  0  0  0
   -0.7200    0.0800    0.0000 C   0  0  0  0  0  0  0  0  0  0  0  0
   -2.0200   -2.1700    0.0000 C   0  0  0  0  0  0  0  0  0  0  0  0
    0.4213   -3.0589    0.0000 O   0  0  0  0  0  0  0  0  0  0  0  0
   -1.5691   -4.7287    0.0000 O   0  0  0  0  0  0  0  0  0  0  0  0
  8  6  1  0
  9  7  1  0
 10  5  1  0
 11  5  1  0
 13  1  1  0
 13  2  1  0
 14  6  1  0
 14 12  2  0
 14 13  1  0
 15  7  2  0
 15 12  1  0
 16  8  1  1
 16 15  1  0
 17  9  1  1
 19  3  1  1
 19 10  1  0
 19 16  1  0
 19 17  1  0
 20  4  1  1
 20 11  1  0
 20 17  1  0
 20 18  1  0
 21 18  2  0
 22 18  1  0
M  END
>  <NAME>  (758) 
ABIETIC ACID

>  <SYNONYMS>  (758) 


>  <SPECTRUM TYPE>  (758) 
MS1

>  <INSTRUMENT TYPE>  (758) 
EI-B

>  <INSTRUMENT>  (758) 
HITACHI M-80

>  <ION MODE>  (758) 
P

>  <INCHIKEY>  (758) 
RSWGJHLUYNHPMX-ONCXSQPRSA-N

>  <FORMULA>  (758) 
C20H30O2

>  <EXACT MASS>  (758) 
302.2245802

>  <MW>  (758) 
302

>  <ID>  (758) 
JP011063

>  <CONTRIBUTOR>  (758) 
University of Tokyo Team, {Faculty of Engineering, University of Tokyo

>  <COMMENT>  (758) 
SMILES=CC(C)C(C3)=CC(=C2)C([H])(C3)C(C)(C1)C([H])(C2)C(C)(C(O)=O)CC1
cas=514-10-3
InChI=InChI=1S/C20H30O2/c1-13(2)14-6-8-16-15(12-14)7-9-17-19(16,3)10-5-11-20(17,4)18(21)22/h7,12-13,16-17H,5-6,8-11H2,1-4H3,(H,21,22)/t16-,17+,19+,20+/m0/s1
computed SMILES=O=C(O)C1(C)CCCC2(C)C3C(C=C(CC3)C(C)C)=CCC12
accession=JP011063
date=2016.01.19 (Created 2008.10.21, modified 2011.05.06)
author=YAMAMOTO M, DEP. CHEMISTRY, FAC. SCIENCE, NARA WOMEN'S UNIV.
license=CC BY-NC-SA
exact mass=302.22458
ionization energy=70 eV
ion type=[M]+*
computed spectral entropy=4.977882369845604
computed normalized entropy=0.9028650952110531
SPLASH=splash10-0006-7941000000-fe7ac54ea33edec7d742
submitter=submitter = University of Tokyo Team (Faculty of Engineering, University of Tokyo)
MoNA Rating=3.75

>  <NUM PEAKS>  (758) 
248

>  <MASS SPECTRAL PEAKS>  (758) 
14 3.08
15 12.39
16 3
17 18.91
19 1.35
26 3.35
27 13.25
28 9.49
29 21.91
31 2.54
32 1.43
38 1.75
39 13.76
40 2.43
41 43.96
42 10.68
43 99.99
44 10.61
45 17.71
46 2.49
51 2.29
52 1.16
53 9.51
54 1.7
55 20.21
56 3.25
57 3.93
58 10.22
59 6.87
60 8.83
61 1.03
63 1.22
65 6.13
66 2.07
67 12.94
68 3.14
69 8.95
70 1.52
71 4.8
73 3.39
74 2.31
76 1.07
77 15.43
78 4.95
79 20.44
80 4.8
81 19.31
82 4.38
83 4.35
84 1.97
85 2.58
86 1.12
87 4.38
88 1.12
89 1.55
91 32.45
92 8.59
93 19.19
94 4.2
95 11.44
96 2.35
97 3.63
98 1.15
99 1.78
100 1.35
101 1.53
102 1.47
103 4.82
104 3.49
105 29.16
106 6.61
107 17.62
108 7.35
109 21.19
110 7.64
111 4.97
112 2.14
113 1.98
114 1.43
115 14.06
116 5.17
117 15.1
118 3.83
119 15.91
120 5.37
121 27.27
122 6.18
123 11.74
124 2.3
125 2.72
126 1.9
127 4.65
128 12.88
129 14.61
130 4.24
131 20.1
132 4.34
133 16.13
134 8.79
135 13.01
136 19.22
137 5.23
138 2.01
139 9.25
140 2.04
141 14.35
142 7.28
143 14.54
144 4.1
145 13.1
146 7.41
147 11.63
148 13.44
149 9.51
150 3.31
151 4.07
152 5.67
153 7.2
154 4.55
155 10.55
156 4
157 12.17
158 3.49
159 10.8
161 5.32
162 4.04
163 3.44
164 1.62
165 6.92
166 5.28
167 10.31
168 3.31
169 6.12
170 2.28
171 7.11
172 2.65
173 6.46
174 2.07
175 3.3
176 1.34
177 1.61
178 3.03
179 3.22
180 1.87
181 4.09
182 1.75
183 5.57
184 2.1
185 7.94
186 2.91
187 7.1
188 2.41
189 2.98
190 1.23
191 1.73
192 1.07
193 2.24
194 1.11
195 7.41
196 2.15
197 11.95
198 2.9
199 6.51
200 2.82
201 5.51
202 2.41
203 3.06
204 2.07
205 1.96
206 1.3
207 1.87
208 1.19
209 3.12
210 1.65
211 6.16
212 2.51
213 11.57
214 3.47
215 2.65
216 1.75
217 1.93
219 1.46
220 1.23
221 1.36
223 2.13
224 1.06
225 3.24
226 1.26
227 4.03
228 1.89
229 2.29
230 1.12
231 1.86
232 1.45
233 1.42
234 1.08
235 3.28
236 1.59
237 10.14
238 2.74
239 26.22
240 5.79
241 11.75
242 2.87
243 2.13
244 1.17
245 2.61
246 1.59
251 2.02
252 1.25
253 7.36
254 3.23
255 5
256 5.43
257 8.35
258 2.15
259 16.07
260 3.93
261 1.49
266 1
267 1.27
268 1.8
269 2.92
270 2.04
271 2
272 1.82
273 4.41
274 2.44
275 3.3
276 2.08
283 4.54
284 2.15
285 38.34
286 8.73
287 18.77
288 4.47
289 1.51
290 1.14
291 1.68
292 1.25
296 1.55
298 8
299 4.06
300 17.73
301 7.4
302 61.9
303 14.31
304 2.46

$$$$

     RDKit          2D

 18 21  0  0  0  0  0  0  0  0999 V2000
   -4.8300   -1.3800    0.0000 C   0  0  0  0  0  0  0  0  0  0  0  0
   -4.8300    0.1200    0.0000 C   0  0  0  0  0  0  0  0  0  0  0  0
    4.2600    2.3800    0.0000 C   0  0  0  0  0  0  0  0  0  0  0  0
    2.9600    3.1200    0.0000 C   0  0  0  0  0  0  0  0  0  0  0  0
    4.2600    0.8800    0.0000 C   0  0  0  0  0  0  0  0  0  0  0  0
   -3.5400   -2.1200    0.0000 C   0  0  0  0  0  0  0  0  0  0  0  0
   -3.5400    0.8800    0.0000 C   0  0  0  0  0  0  0  0  0  0  0  0
    1.6600    2.3800    0.0000 C   0  0  0  0  0  0  0  0  0  0  0  0
    2.9600   -1.3800    0.0000 C   0  0  0  0  0  0  0  0  0  0  0  0
    1.6600   -2.1200    0.0000 C   0  0  0  0  0  0  0  0  0  0  0  0
   -0.9400   -2.1200    0.0000 C   0  0  0  0  0  0  0  0  0  0  0  0
   -0.9400    0.8800    0.0000 C   0  0  0  0  0  0  0  0  0  0  0  0
    2.9600    0.1200    0.0000 C   0  0  0  0  0  0  0  0  0  0  0  0
   -2.2400   -1.3800    0.0000 C   0  0  0  0  0  0  0  0  0  0  0  0
   -2.2400    0.1200    0.0000 C   0  0  0  0  0  0  0  0  0  0  0  0
    0.3600   -1.3800    0.0000 C   0  0  0  0  0  0  0  0  0  0  0  0
    1.6600    0.8800    0.0000 C   0  0  0  0  0  0  0  0  0  0  0  0
    0.3600    0.1200    0.0000 C   0  0  0  0  0  0  0  0  0  0  0  0
  2  1  2  0
  4  3  2  0
  5  3  1  0
  6  1  1  0
  7  2  1  0
  8  4  1  0
 10  9  2  0
 13  5  2  0
 13  9  1  0
 14  6  2  0
 14 11  1  0
 15  7  2  0
 15 12  1  0
 15 14  1  0
 16 10  1  0
 16 11  2  0
 17  8  2  0
 17 13  1  0
 18 12  2  0
 18 16  1  0
 18 17  1  0
M  END
>  <NAME>  (759) 
1,2-BENZANTHRACENE

>  <SYNONYMS>  (759) 
TETRAPHENE

>  <SPECTRUM TYPE>  (759) 
MS1

>  <INSTRUMENT TYPE>  (759) 
EI-B

>  <INSTRUMENT>  (759) 
HITACHI M-80

>  <ION MODE>  (759) 
P

>  <INCHIKEY>  (759) 
DXBHBZVCASKNBY-UHFFFAOYSA-N

>  <FORMULA>  (759) 
C18H12

>  <EXACT MASS>  (759) 
228.093900384

>  <MW>  (759) 
228

>  <ID>  (759) 
JP011062

>  <CONTRIBUTOR>  (759) 
University of Tokyo Team, {Faculty of Engineering, University of Tokyo

>  <COMMENT>  (759) 
SMILES=c(c4)cc(c3)c(c4)cc(c13)c(c2)c(ccc2)cc1
cas=56-55-3
InChI=InChI=1S/C18H12/c1-2-7-15-12-18-16(11-14(15)6-1)10-9-13-5-3-4-8-17(13)18/h1-12H
computed SMILES=C=1C=CC=2C=C3C(C=CC=4C=CC=CC43)=CC2C1
accession=JP011062
date=2016.01.19 (Created 2008.10.21, modified 2011.05.06)
author=YAMAMOTO M, DEP. CHEMISTRY, FAC. SCIENCE, NARA WOMEN'S UNIV.
license=CC BY-NC-SA
exact mass=228.0939
ionization energy=70 eV
ion type=[M]+*
computed spectral entropy=1.772602811455415
computed normalized entropy=0.6132784845454109
SPLASH=splash10-004i-0190000000-6b696edb9e86ed9a2dc9
submitter=submitter = University of Tokyo Team (Faculty of Engineering, University of Tokyo)
MoNA Rating=3.75

>  <NUM PEAKS>  (759) 
18

>  <MASS SPECTRAL PEAKS>  (759) 
87 1.04
88 1.09
100 2.27
101 3.16
112 2.27
113 5.4
114 7.43
115 1.38
200 2.6
201 1.23
202 2.39
224 4.15
225 3.06
226 18.79
227 5.54
228 99.99
229 19.7
230 2.05

$$$$

     RDKit          2D

 10 10  0  0  0  0  0  0  0  0999 V2000
    2.5989   -0.7496    0.0000 C   0  0  0  0  0  0  0  0  0  0  0  0
    0.0008   -2.2500    0.0000 C   0  0  0  0  0  0  0  0  0  0  0  0
   -1.2992    0.0000    0.0000 C   0  0  0  0  0  0  0  0  0  0  0  0
   -1.2992   -3.0000    0.0000 C   0  0  0  0  0  0  0  0  0  0  0  0
   -2.5992   -0.7500    0.0000 C   0  0  0  0  0  0  0  0  0  0  0  0
    1.2998    0.0002    0.0000 C   0  0  0  0  0  0  0  0  0  0  0  0
    0.0008   -0.7500    0.0000 C   0  0  0  0  0  0  0  0  0  0  0  0
   -2.5992   -2.2500    0.0000 C   0  0  0  0  0  0  0  0  0  0  0  0
   -3.8981   -3.0002    0.0000 Br  0  0  0  0  0  0  0  0  0  0  0  0
    1.2995    1.5002    0.0000 O   0  0  0  0  0  0  0  0  0  0  0  0
  4  2  2  0
  5  3  1  0
  6  1  1  0
  7  2  1  0
  7  3  2  0
  7  6  1  0
  8  4  1  0
  8  5  2  0
  9  8  1  0
 10  6  2  0
M  END
>  <NAME>  (760) 
4'-BROMOACETOPHENONE

>  <SYNONYMS>  (760) 


>  <SPECTRUM TYPE>  (760) 
MS1

>  <INSTRUMENT TYPE>  (760) 
EI-B

>  <INSTRUMENT>  (760) 
HITACHI M-80

>  <ION MODE>  (760) 
P

>  <INCHIKEY>  (760) 
WYECURVXVYPVAT-UHFFFAOYSA-N

>  <FORMULA>  (760) 
C8H7BrO

>  <EXACT MASS>  (760) 
197.968026944

>  <MW>  (760) 
198

>  <ID>  (760) 
JP011061

>  <CONTRIBUTOR>  (760) 
University of Tokyo Team, {Faculty of Engineering, University of Tokyo

>  <COMMENT>  (760) 
SMILES=CC(=O)c(c1)ccc(Br)c1
cas=99-90-1
InChI=InChI=1S/C8H7BrO/c1-6(10)7-2-4-8(9)5-3-7/h2-5H,1H3
computed SMILES=O=C(C1=CC=C(Br)C=C1)C
accession=JP011061
date=2016.01.19 (Created 2008.10.21, modified 2011.05.06)
author=YAMAMOTO M, DEP. CHEMISTRY, FAC. SCIENCE, NARA WOMEN'S UNIV.
license=CC BY-NC-SA
exact mass=197.96803
ionization energy=70 eV
ion type=[M]+*
computed spectral entropy=3.186937932807373
computed normalized entropy=0.8232426897563654
SPLASH=splash10-0006-9300000000-574dfeb62900fd4b2d6d
submitter=submitter = University of Tokyo Team (Faculty of Engineering, University of Tokyo)
MoNA Rating=3.75

>  <NUM PEAKS>  (760) 
48

>  <MASS SPECTRAL PEAKS>  (760) 
13 8.34
14 38.6
25 3.4
26 4.12
28 5.34
37 4.57
38 9.25
39 4.76
41 3.13
42 20.91
43 99.99
44 1.78
49 3.25
50 34.8
51 9.3
52 9.3
53 1.33
61 3.41
63 8.86
64 1.36
65 1.09
73 3.75
74 18.72
75 26.06
76 27.59
77 5.61
79 6.73
80 1.51
81 6.91
82 1.57
86 1.37
87 1
89 5.7
90 2.92
91 2.94
104 7.55
155 20.64
156 1.62
157 19.93
158 1.27
183 49.53
184 4.01
185 48.75
186 4.02
198 11.9
199 2.02
200 12.36
201 1.85

$$$$

     RDKit          2D

 20 23  0  0  0  0  0  0  0  0999 V2000
   -2.9500   -0.8900    0.0000 C   0  0  0  0  0  0  0  0  0  0  0  0
    8.7289    2.8602    0.0000 C   0  0  0  0  0  0  0  0  0  0  0  0
   -2.9500    0.6100    0.0000 C   0  0  0  0  0  0  0  0  0  0  0  0
    8.7289    1.3602    0.0000 C   0  0  0  0  0  0  0  0  0  0  0  0
   -1.6500   -1.6400    0.0000 C   0  0  0  0  0  0  0  0  0  0  0  0
    7.4289    3.6102    0.0000 C   0  0  0  0  0  0  0  0  0  0  0  0
   -1.6500    1.3600    0.0000 C   0  0  0  0  0  0  0  0  0  0  0  0
    7.4289    0.6102    0.0000 C   0  0  0  0  0  0  0  0  0  0  0  0
    0.9400   -1.6400    0.0000 C   0  0  0  0  0  0  0  0  0  0  0  0
    4.8389    3.6102    0.0000 C   0  0  0  0  0  0  0  0  0  0  0  0
    2.2400   -0.8900    0.0000 C   0  0  0  0  0  0  0  0  0  0  0  0
    3.5389    2.8602    0.0000 C   0  0  0  0  0  0  0  0  0  0  0  0
    0.9400    1.3600    0.0000 C   0  0  0  0  0  0  0  0  0  0  0  0
    4.8389    0.6102    0.0000 C   0  0  0  0  0  0  0  0  0  0  0  0
   -0.3500   -0.8900    0.0000 C   0  0  0  0  0  0  0  0  0  0  0  0
    6.1289    2.8602    0.0000 C   0  0  0  0  0  0  0  0  0  0  0  0
   -0.3500    0.6100    0.0000 C   0  0  0  0  0  0  0  0  0  0  0  0
    6.1289    1.3602    0.0000 C   0  0  0  0  0  0  0  0  0  0  0  0
    2.2400    0.6100    0.0000 C   0  0  0  0  0  0  0  0  0  0  0  0
    3.5389    1.3602    0.0000 C   0  0  0  0  0  0  0  0  0  0  0  0
  3  1  2  0
  4  2  2  0
  5  1  1  0
  6  2  1  0
  7  3  1  0
  8  4  1  0
 11  9  2  0
 12 10  2  0
 15  5  2  0
 15  9  1  0
 16  6  2  0
 16 10  1  0
 17  7  2  0
 17 13  1  0
 17 15  1  0
 18  8  2  0
 18 14  1  0
 18 16  1  0
 19 11  1  0
 19 13  2  0
 20 12  1  0
 20 14  2  0
 20 19  1  0
M  END
>  <NAME>  (761) 
2,2'-BINAPHTHYL

>  <SYNONYMS>  (761) 
2,2'-BINAPHTHALENE

>  <SPECTRUM TYPE>  (761) 
MS1

>  <INSTRUMENT TYPE>  (761) 
EI-B

>  <INSTRUMENT>  (761) 
HITACHI M-80

>  <ION MODE>  (761) 
P

>  <INCHIKEY>  (761) 
MSBVBOUOMVTWKE-UHFFFAOYSA-N

>  <FORMULA>  (761) 
C20H14

>  <EXACT MASS>  (761) 
254.109550448

>  <MW>  (761) 
254

>  <ID>  (761) 
JP011060

>  <CONTRIBUTOR>  (761) 
University of Tokyo Team, {Faculty of Engineering, University of Tokyo

>  <COMMENT>  (761) 
SMILES=c(c4)cc(c3)c(c4)cc(c3)c(c1)cc(c2)c(ccc2)c1
cas=612-78-2
InChI=InChI=1S/C20H14/c1-3-7-17-13-19(11-9-15(17)5-1)20-12-10-16-6-2-4-8-18(16)14-20/h1-14H
computed SMILES=C=1C=CC=2C=C(C=CC2C1)C=3C=CC=4C=CC=CC4C3
accession=JP011060
date=2016.01.19 (Created 2008.10.21, modified 2011.05.06)
author=YAMAMOTO M, DEP. CHEMISTRY, FAC. SCIENCE, NARA WOMEN'S UNIV.
license=CC BY-NC-SA
exact mass=254.10955
ionization energy=70 eV
ion type=[M]+*
computed spectral entropy=1.5237582563821783
computed normalized entropy=0.5773873266346674
SPLASH=splash10-0udi-0090000000-e70022443d21148df66a
submitter=submitter = University of Tokyo Team (Faculty of Engineering, University of Tokyo)
MoNA Rating=3.75

>  <NUM PEAKS>  (761) 
14

>  <MASS SPECTRAL PEAKS>  (761) 
17 1.07
27 1
113 1.47
125 1.12
126 3.85
127 4.48
226 1.12
250 3.7
251 1.73
252 19.32
253 10.55
254 99.99
255 21.84
256 2.29

$$$$

     RDKit          2D

 10 10  0  0  0  0  0  0  0  0999 V2000
    0.0000    1.5000    0.0000 C   0  0  0  0  0  0  0  0  0  0  0  0
   -1.3000    0.7500    0.0000 C   0  0  0  0  0  0  0  0  0  0  0  0
    1.3000   -0.7500    0.0000 C   0  0  0  0  0  0  0  0  0  0  0  0
    1.3000    0.7500    0.0000 C   0  0  0  0  0  0  0  0  0  0  0  0
   -1.3000   -0.7500    0.0000 C   0  0  0  0  0  0  0  0  0  0  0  0
   -2.5989   -1.5002    0.0000 Cl  0  0  0  0  0  0  0  0  0  0  0  0
   -0.0000   -1.5000    0.0000 N   0  0  0  0  0  0  0  0  0  0  0  0
    2.5989    1.5002    0.0000 N   0  0  0  0  0  0  0  0  0  0  0  0
    3.8981    0.7504    0.0000 O   0  0  0  0  0  0  0  0  0  0  0  0
    2.5987    3.0002    0.0000 O   0  0  0  0  0  0  0  0  0  0  0  0
  2  1  2  0
  4  1  1  0
  4  3  2  0
  5  2  1  0
  6  5  1  0
  7  3  1  0
  7  5  2  0
  8  4  1  0
  9  8  1  0
 10  8  2  0
M  CHG  2   8   1   9  -1
M  END
>  <NAME>  (762) 
2-CHLORO-5-NITROPYRIDINE

>  <SYNONYMS>  (762) 


>  <SPECTRUM TYPE>  (762) 
MS1

>  <INSTRUMENT TYPE>  (762) 
EI-B

>  <INSTRUMENT>  (762) 
HITACHI M-80

>  <ION MODE>  (762) 
P

>  <INCHIKEY>  (762) 
BAZVFQBTJPBRTJ-UHFFFAOYSA-N

>  <FORMULA>  (762) 
C5H3ClN2O2

>  <EXACT MASS>  (762) 
157.988305016

>  <MW>  (762) 
158

>  <ID>  (762) 
JP011059

>  <CONTRIBUTOR>  (762) 
University of Tokyo Team, {Faculty of Engineering, University of Tokyo

>  <COMMENT>  (762) 
SMILES=[O-1][N+1](=O)c(c1)cnc(Cl)c1
cas=4548-45-2
InChI=InChI=1S/C5H3ClN2O2/c6-5-2-1-4(3-7-5)8(9)10/h1-3H
computed SMILES=O=N(=O)C1=CN=C(Cl)C=C1
accession=JP011059
date=2016.01.19 (Created 2008.10.21, modified 2011.05.06)
author=YAMAMOTO M, DEP. CHEMISTRY, FAC. SCIENCE, NARA WOMEN'S UNIV.
license=CC BY-NC-SA
exact mass=157.98831
ionization energy=70 eV
ion type=[M]+*
computed spectral entropy=3.1791999889210403
computed normalized entropy=0.8126741546534175
SPLASH=splash10-0imi-9500000000-94ecb4b90c55d3ba6b1c
submitter=submitter = University of Tokyo Team (Faculty of Engineering, University of Tokyo)
MoNA Rating=3.75

>  <NUM PEAKS>  (762) 
50

>  <MASS SPECTRAL PEAKS>  (762) 
15 1.51
24 1.27
25 4.65
26 1.5
27 6.08
29 53.7
35 3.36
36 2.82
37 11.62
38 11.72
39 4.53
46 24.72
47 5.15
48 2.35
49 14.93
50 71.17
51 27.44
52 8.14
60 4.35
61 4.52
62 8.48
63 5.38
64 6.89
65 1.07
72 1.6
73 10.57
74 3.05
75 16.5
76 66.52
77 11.19
84 4.32
85 62.13
86 6.39
87 19.46
88 1.35
100 26.51
101 1.55
102 9.01
111 1.03
112 99.99
113 6.39
114 31.68
115 1.9
128 1.96
141 1.29
142 2.45
158 78.08
159 7.42
160 26.27
161 2.38

$$$$

     RDKit          2D

  9  9  0  0  0  0  0  0  0  0999 V2000
   -1.3000    0.7500    0.0000 C   0  0  0  0  0  0  0  0  0  0  0  0
   -0.0000   -1.5000    0.0000 C   0  0  0  0  0  0  0  0  0  0  0  0
    0.0000    1.5000    0.0000 C   0  0  0  0  0  0  0  0  0  0  0  0
    1.3000   -0.7500    0.0000 C   0  0  0  0  0  0  0  0  0  0  0  0
   -2.5989   -1.5002    0.0000 C   0  0  0  0  0  0  0  0  0  0  0  0
   -1.3000   -0.7500    0.0000 C   0  0  0  0  0  0  0  0  0  0  0  0
    1.3000    0.7500    0.0000 C   0  0  0  0  0  0  0  0  0  0  0  0
    2.5989    1.5002    0.0000 Br  0  0  0  0  0  0  0  0  0  0  0  0
   -3.8978   -2.2504    0.0000 N   0  0  0  0  0  0  0  0  0  0  0  0
  3  1  2  0
  4  2  1  0
  6  1  1  0
  6  2  2  0
  6  5  1  0
  7  3  1  0
  7  4  2  0
  8  7  1  0
  9  5  3  0
M  END
>  <NAME>  (763) 
4-BROMOBENZONITRILE

>  <SYNONYMS>  (763) 


>  <SPECTRUM TYPE>  (763) 
MS1

>  <INSTRUMENT TYPE>  (763) 
EI-B

>  <INSTRUMENT>  (763) 
HITACHI M-80

>  <ION MODE>  (763) 
P

>  <INCHIKEY>  (763) 
HQSCPPCMBMFJJN-UHFFFAOYSA-N

>  <FORMULA>  (763) 
C7H4BrN

>  <EXACT MASS>  (763) 
180.952711228

>  <MW>  (763) 
181

>  <ID>  (763) 
JP011058

>  <CONTRIBUTOR>  (763) 
University of Tokyo Team, {Faculty of Engineering, University of Tokyo

>  <COMMENT>  (763) 
SMILES=N#Cc(c1)ccc(Br)c1
cas=623-00-7
InChI=InChI=1S/C7H4BrN/c8-7-3-1-6(5-9)2-4-7/h1-4H
computed SMILES=N#CC1=CC=C(Br)C=C1
accession=JP011058
date=2016.01.19 (Created 2008.10.21, modified 2011.05.06)
author=YAMAMOTO M, DEP. CHEMISTRY, FAC. SCIENCE, NARA WOMEN'S UNIV.
license=CC BY-NC-SA
exact mass=180.95271
ionization energy=70 eV
ion type=[M]+*
computed spectral entropy=3.388951029615572
computed normalized entropy=0.8211390067393082
SPLASH=splash10-0ue9-9300000000-19ac731cb7f5d7982d47
submitter=submitter = University of Tokyo Team (Faculty of Engineering, University of Tokyo)
MoNA Rating=3.75

>  <NUM PEAKS>  (763) 
62

>  <MASS SPECTRAL PEAKS>  (763) 
12 2.3
14 2.47
24 1.57
25 6.67
26 23.55
27 16.99
28 11.01
36 8.27
37 49.19
38 41.86
39 14.64
40 4.51
41 1.77
48 4.59
49 27.41
50 95.4
51 65.57
52 14.59
60 4.14
61 14.91
62 16.24
63 16.4
64 12.44
65 1.61
72 2.56
73 14.77
74 40.89
75 76.94
76 41.86
77 2.91
79 39.04
80 8.13
81 40.41
82 8.23
83 1.21
84 1.15
85 2.08
86 2.81
87 2.2
88 1.65
90 1.75
91 2.18
93 2.68
98 1.68
99 13.39
100 10.25
101 5.86
102 99.99
103 8.44
104 3.24
105 1.23
106 4.05
107 1
116 2.18
117 3.55
118 2.48
119 3.2
130 1.17
181 81.42
182 8.44
183 78.88
184 7.9

$$$$

     RDKit          2D

  6  6  0  0  0  0  0  0  0  0999 V2000
   -1.1900    1.1700    0.0000 C   0  0  0  0  0  0  0  0  0  0  0  0
   -1.6500   -0.2500    0.0000 C   0  0  0  0  0  0  0  0  0  0  0  0
    0.7700   -0.2500    0.0000 C   0  0  0  0  0  0  0  0  0  0  0  0
    2.1960   -0.7153    0.0000 N   0  0  0  0  0  0  0  0  0  0  0  0
    0.3100    1.1800    0.0000 N   0  0  0  0  0  0  0  0  0  0  0  0
   -0.4400   -1.1300    0.0000 S   0  0  0  0  0  0  0  0  0  0  0  0
  2  1  2  0
  4  3  2  0
  5  1  1  0
  5  3  1  0
  6  2  1  0
  6  3  1  0
M  END
>  <NAME>  (764) 
2-AMINOTHIAZOLE

>  <SYNONYMS>  (764) 


>  <SPECTRUM TYPE>  (764) 
MS1

>  <INSTRUMENT TYPE>  (764) 
EI-B

>  <INSTRUMENT>  (764) 
HITACHI M-80

>  <ION MODE>  (764) 
P

>  <INCHIKEY>  (764) 
RAIPHJJURHTUIC-UHFFFAOYSA-N

>  <FORMULA>  (764) 
C3H4N2S

>  <EXACT MASS>  (764) 
100.009519128

>  <MW>  (764) 
100

>  <ID>  (764) 
JP011057

>  <CONTRIBUTOR>  (764) 
University of Tokyo Team, {Faculty of Engineering, University of Tokyo

>  <COMMENT>  (764) 
SMILES=Nc(n1)scc1
cas=96-50-4
InChI=InChI=1S/C3H4N2S/c4-3-5-1-2-6-3/h1-2H,(H2,4,5)
computed SMILES=N=C1SC=CN1
accession=JP011057
date=2016.01.19 (Created 2008.10.21, modified 2011.05.06)
author=YAMAMOTO M, DEP. CHEMISTRY, FAC. SCIENCE, NARA WOMEN'S UNIV.
license=CC BY-NC-SA
exact mass=100.00952
ionization energy=70 eV
ion type=[M]+*
computed spectral entropy=2.505495747549682
computed normalized entropy=0.7366510867785195
SPLASH=splash10-0zfr-9400000000-e3242ff5e4e20606e66d
submitter=submitter = University of Tokyo Team (Faculty of Engineering, University of Tokyo)
MoNA Rating=3.75

>  <NUM PEAKS>  (764) 
30

>  <MASS SPECTRAL PEAKS>  (764) 
18 2.17
26 3.16
27 4.37
28 27.07
29 1.56
32 4.06
38 1.69
39 2.48
40 4.63
41 3.21
42 6.07
43 7.82
44 3.38
45 19.5
46 6.82
47 2.33
53 1.95
55 5.93
57 13.63
58 74.13
59 4.75
60 10.5
70 2.05
71 1.29
72 1.2
73 17.31
74 1.77
100 99.99
101 6.7
102 4.83

$$$$

     RDKit          2D

 14 15  0  0  0  0  0  0  0  0999 V2000
    2.5986    1.0700    0.0000 C   0  0  0  0  0  0  0  0  0  0  0  0
   -5.1957    1.0700    0.0000 C   0  0  0  0  0  0  0  0  0  0  0  0
    2.5990    2.5708    0.0000 C   0  0  0  0  0  0  0  0  0  0  0  0
    1.2990    0.3192    0.0000 C   0  0  0  0  0  0  0  0  0  0  0  0
   -3.8962    0.3192    0.0000 C   0  0  0  0  0  0  0  0  0  0  0  0
   -5.1962    2.5708    0.0000 C   0  0  0  0  0  0  0  0  0  0  0  0
    1.3000    3.3208    0.0000 C   0  0  0  0  0  0  0  0  0  0  0  0
    0.0000    1.0692    0.0000 C   0  0  0  0  0  0  0  0  0  0  0  0
   -2.5971    1.0692    0.0000 C   0  0  0  0  0  0  0  0  0  0  0  0
   -3.8971    3.3208    0.0000 C   0  0  0  0  0  0  0  0  0  0  0  0
    0.0005    2.5700    0.0000 C   0  0  0  0  0  0  0  0  0  0  0  0
   -2.5976    2.5700    0.0000 C   0  0  0  0  0  0  0  0  0  0  0  0
   -1.2986    3.3200    0.0000 C   0  0  0  0  0  0  0  0  0  0  0  0
   -1.2986    4.8200    0.0000 O   0  0  0  0  0  0  0  0  0  0  0  0
  3  1  2  0
  4  1  1  0
  5  2  2  0
  6  2  1  0
  7  3  1  0
  8  4  2  0
  9  5  1  0
 10  6  2  0
 11  7  2  0
 11  8  1  0
 12  9  2  0
 12 10  1  0
 13 11  1  0
 13 12  1  0
 14 13  1  0
M  END
>  <NAME>  (765) 
BENZHYDROL

>  <SYNONYMS>  (765) 


>  <SPECTRUM TYPE>  (765) 
MS1

>  <INSTRUMENT TYPE>  (765) 
EI-B

>  <INSTRUMENT>  (765) 
HITACHI M-80

>  <ION MODE>  (765) 
P

>  <INCHIKEY>  (765) 
QILSFLSDHQAZET-UHFFFAOYSA-N

>  <FORMULA>  (765) 
C13H12O

>  <EXACT MASS>  (765) 
184.088815004

>  <MW>  (765) 
184

>  <ID>  (765) 
JP011056

>  <CONTRIBUTOR>  (765) 
University of Tokyo Team, {Faculty of Engineering, University of Tokyo

>  <COMMENT>  (765) 
SMILES=c(c2)ccc(c2)C(O)c(c1)cccc1
cas=91-01-0
InChI=InChI=1S/C13H12O/c14-13(11-7-3-1-4-8-11)12-9-5-2-6-10-12/h1-10,13-14H
computed SMILES=OC(C=1C=CC=CC1)C=2C=CC=CC2
accession=JP011056
date=2016.01.19 (Created 2008.10.21, modified 2011.05.06)
author=YAMAMOTO M, DEP. CHEMISTRY, FAC. SCIENCE, NARA WOMEN'S UNIV.
license=CC BY-NC-SA
exact mass=184.08882
ionization energy=70 eV
ion type=[M]+*
computed spectral entropy=2.7676466637250976
computed normalized entropy=0.7608470403717602
SPLASH=splash10-057i-8900000000-1e9a474626dc4828f2e1
submitter=submitter = University of Tokyo Team (Faculty of Engineering, University of Tokyo)
MoNA Rating=3.75

>  <NUM PEAKS>  (765) 
38

>  <MASS SPECTRAL PEAKS>  (765) 
18 1.05
26 1.04
27 5.55
29 3.42
38 2.03
39 8.33
50 11.27
51 29.18
52 5.97
53 2.59
62 1.96
63 1.05
74 3.8
75 2.99
76 3.42
77 55.18
78 40.54
79 35.69
80 2.34
87 1.04
89 1.53
105 99.99
106 11.24
107 14.64
108 1.08
115 2.4
128 1.35
139 1.37
152 3.09
153 1.51
155 2.8
165 8.67
166 3.8
167 5.57
168 1.42
183 16.1
184 50.54
185 7.03

$$$$

     RDKit          2D

  5  4  0  0  0  0  0  0  0  0999 V2000
   -1.2990    0.7500    0.0000 C   0  0  0  0  0  0  0  0  0  0  0  0
    0.7500    0.2010    0.0000 C   0  0  0  0  0  0  0  0  0  0  0  0
    1.2990    2.2500    0.0000 C   0  0  0  0  0  0  0  0  0  0  0  0
    0.0000    1.5000    0.0000 C   0  0  0  0  0  0  0  0  0  0  0  0
   -0.7500    2.7990    0.0000 N   0  0  0  0  0  0  0  0  0  0  0  0
  4  1  1  0
  4  2  1  0
  4  3  1  0
  5  4  1  0
M  END
>  <NAME>  (766) 
TERT-BUTYLAMINE

>  <SYNONYMS>  (766) 


>  <SPECTRUM TYPE>  (766) 
MS1

>  <INSTRUMENT TYPE>  (766) 
EI-B

>  <INSTRUMENT>  (766) 
HITACHI M-80

>  <ION MODE>  (766) 
P

>  <INCHIKEY>  (766) 
YBRBMKDOPFTVDT-UHFFFAOYSA-N

>  <FORMULA>  (766) 
C4H11N

>  <EXACT MASS>  (766) 
73.08914935199999

>  <MW>  (766) 
73

>  <ID>  (766) 
JP011054

>  <CONTRIBUTOR>  (766) 
University of Tokyo Team, {Faculty of Engineering, University of Tokyo

>  <COMMENT>  (766) 
SMILES=CC(C)(C)N
cas=75-64-9
InChI=InChI=1S/C4H11N/c1-4(2,3)5/h5H2,1-3H3
computed SMILES=NC(C)(C)C
accession=JP011054
date=2016.01.19 (Created 2008.10.21, modified 2011.05.06)
author=YAMAMOTO M, DEP. CHEMISTRY, FAC. SCIENCE, NARA WOMEN'S UNIV.
license=CC BY-NC-SA
exact mass=73.08915
ionization energy=70 eV
ion type=[M]+*
computed spectral entropy=1.6966435893865497
computed normalized entropy=0.598840744889872
SPLASH=splash10-0a4i-9000000000-95c6e9f87d3e0e977232
submitter=submitter = University of Tokyo Team (Faculty of Engineering, University of Tokyo)
MoNA Rating=3.75

>  <NUM PEAKS>  (766) 
17

>  <MASS SPECTRAL PEAKS>  (766) 
15 3.89
18 6.11
27 2.03
28 3.61
29 2.62
30 9.77
39 3.39
41 14.26
42 10.88
43 2.43
55 1.01
56 1.95
57 5.35
58 99.99
59 4.32
73 0.22
74 0.22

$$$$

     RDKit          2D

 10 10  0  0  0  0  0  0  0  0999 V2000
   -2.5981   -0.4300    0.0000 C   0  0  0  0  0  0  0  0  0  0  0  0
   -1.2986   -1.1808    0.0000 C   0  0  0  0  0  0  0  0  0  0  0  0
   -2.5986    1.0708    0.0000 C   0  0  0  0  0  0  0  0  0  0  0  0
    0.0005   -0.4308    0.0000 C   0  0  0  0  0  0  0  0  0  0  0  0
   -1.2995    1.8208    0.0000 C   0  0  0  0  0  0  0  0  0  0  0  0
    0.0000    1.0700    0.0000 C   0  0  0  0  0  0  0  0  0  0  0  0
    1.2990    1.8200    0.0000 C   0  0  0  0  0  0  0  0  0  0  0  0
    2.0490    0.5210    0.0000 Cl  0  0  0  0  0  0  0  0  0  0  0  0
    2.5981    2.5700    0.0000 Cl  0  0  0  0  0  0  0  0  0  0  0  0
    0.5490    3.1190    0.0000 Cl  0  0  0  0  0  0  0  0  0  0  0  0
  2  1  2  0
  3  1  1  0
  4  2  1  0
  5  3  2  0
  6  4  2  0
  6  5  1  0
  7  6  1  0
  8  7  1  0
  9  7  1  0
 10  7  1  0
M  END
>  <NAME>  (767) 
ALPHA,ALPHA,ALPHA-TRICHLOROTOLUENE

>  <SYNONYMS>  (767) 
BENZOTRICHLORIDE

>  <SPECTRUM TYPE>  (767) 
MS1

>  <INSTRUMENT TYPE>  (767) 
EI-B

>  <INSTRUMENT>  (767) 
HITACHI M-80

>  <ION MODE>  (767) 
P

>  <INCHIKEY>  (767) 
XEMRAKSQROQPBR-UHFFFAOYSA-N

>  <FORMULA>  (767) 
C7H5Cl3

>  <EXACT MASS>  (767) 
193.9456832

>  <MW>  (767) 
194

>  <ID>  (767) 
JP011053

>  <CONTRIBUTOR>  (767) 
University of Tokyo Team, {Faculty of Engineering, University of Tokyo

>  <COMMENT>  (767) 
SMILES=c(c1)ccc(c1)C(Cl)(Cl)Cl
cas=98-07-7
InChI=InChI=1S/C7H5Cl3/c8-7(9,10)6-4-2-1-3-5-6/h1-5H
computed SMILES=ClC(Cl)(Cl)C=1C=CC=CC1
accession=JP011053
date=2016.01.19 (Created 2008.10.21, modified 2011.05.06)
author=YAMAMOTO M, DEP. CHEMISTRY, FAC. SCIENCE, NARA WOMEN'S UNIV.
license=CC BY-NC-SA
exact mass=193.94568
ionization energy=70 eV
ion type=[M]+*
computed spectral entropy=3.0322569782989253
computed normalized entropy=0.7566770313666892
SPLASH=splash10-0bt9-5900000000-2577ce9240d2f069ac70
submitter=submitter = University of Tokyo Team (Faculty of Engineering, University of Tokyo)
MoNA Rating=3.75

>  <NUM PEAKS>  (767) 
55

>  <MASS SPECTRAL PEAKS>  (767) 
26 1.97
27 2.11
28 1.88
31 1
32 1.06
35 3.25
36 1.77
37 3.14
38 3.47
39 8.32
44 1.16
49 1.93
50 7.11
51 8.41
61 4.01
62 9.01
63 16.09
64 1.03
72 1.74
73 4.79
74 2.29
75 2.53
76 1.02
77 6.8
79 2.1
80 1.26
84 1.74
85 1.88
86 2.27
87 3.32
88 1.71
89 31.15
90 2.33
97 3.76
99 3.26
105 9.32
106 1.01
107 1.02
123 9.49
124 7.23
125 4.13
126 2.49
133 2.27
135 1.36
159 99.99
160 7.96
161 65.59
162 5
163 10.7
176 1.63
177 1.16
178 5.75
194 3.74
196 3.53
198 1.14

$$$$

     RDKit          2D

 10 10  0  0  0  0  0  0  0  0999 V2000
   -0.9743    3.5075    0.0000 C   0  0  0  0  0  0  0  0  0  0  0  0
    2.9228   -0.2425    0.0000 C   0  0  0  0  0  0  0  0  0  0  0  0
    2.9233    1.2583    0.0000 C   0  0  0  0  0  0  0  0  0  0  0  0
    1.6233   -0.9933    0.0000 C   0  0  0  0  0  0  0  0  0  0  0  0
    1.6243    2.0083    0.0000 C   0  0  0  0  0  0  0  0  0  0  0  0
    0.3243   -0.2433    0.0000 C   0  0  0  0  0  0  0  0  0  0  0  0
   -2.2733    1.2575    0.0000 C   0  0  0  0  0  0  0  0  0  0  0  0
   -0.9743    2.0075    0.0000 C   0  0  0  0  0  0  0  0  0  0  0  0
    0.3248    1.2575    0.0000 C   0  0  0  0  0  0  0  0  0  0  0  0
   -3.5724    2.0075    0.0000 Br  0  0  0  0  0  0  0  0  0  0  0  0
  3  2  2  0
  4  2  1  0
  5  3  1  0
  6  4  2  0
  8  1  1  0
  8  7  1  0
  9  5  2  0
  9  6  1  0
  9  8  1  0
 10  7  1  0
M  END
>  <NAME>  (768) 
BETA-BROMOISOPROPYLBENZENE

>  <SYNONYMS>  (768) 


>  <SPECTRUM TYPE>  (768) 
MS1

>  <INSTRUMENT TYPE>  (768) 
EI-B

>  <INSTRUMENT>  (768) 
HITACHI M-80

>  <ION MODE>  (768) 
P

>  <INCHIKEY>  (768) 
XJWVCWQKZQENDS-UHFFFAOYSA-N

>  <FORMULA>  (768) 
C9H11Br

>  <EXACT MASS>  (768) 
198.004412452

>  <MW>  (768) 
198

>  <ID>  (768) 
JP011052

>  <CONTRIBUTOR>  (768) 
University of Tokyo Team, {Faculty of Engineering, University of Tokyo

>  <COMMENT>  (768) 
SMILES=BrCC(C)c(c1)cccc1
cas=1459-00-3
InChI=InChI=1S/C9H11Br/c1-8(7-10)9-5-3-2-4-6-9/h2-6,8H,7H2,1H3
computed SMILES=BrCC(C=1C=CC=CC1)C
accession=JP011052
date=2016.01.19 (Created 2008.10.21, modified 2011.05.06)
author=YAMAMOTO M, DEP. CHEMISTRY, FAC. SCIENCE, NARA WOMEN'S UNIV.
license=CC BY-NC-SA
exact mass=198.00441
ionization energy=70 eV
ion type=[M]+*
computed spectral entropy=2.710400887738934
computed normalized entropy=0.7623447383667655
SPLASH=splash10-0a4i-5900000000-2f4b9c6f5326346a6080
submitter=submitter = University of Tokyo Team (Faculty of Engineering, University of Tokyo)
MoNA Rating=3.75

>  <NUM PEAKS>  (768) 
35

>  <MASS SPECTRAL PEAKS>  (768) 
15 1.13
27 3.4
28 1.24
39 6.49
41 5.27
50 3.36
51 7.58
52 1.78
63 3.14
65 3.46
74 1.12
75 1.19
76 1.42
77 11.54
78 7.97
79 7.83
89 1.73
91 28.14
92 2.47
93 2.01
95 1.93
102 2.21
103 12.14
104 15.48
105 99.99
106 9.03
115 4.14
116 1.08
117 6.33
118 4.51
119 8.95
198 11.03
199 1.15
200 10.59
201 1.09

$$$$

     RDKit          2D

  4  3  0  0  0  0  0  0  0  0999 V2000
   -2.5981    2.2500    0.0000 C   0  0  0  0  0  0  0  0  0  0  0  0
   -1.2990    1.5000    0.0000 C   0  0  0  0  0  0  0  0  0  0  0  0
    0.0000    2.2500    0.0000 C   0  0  0  0  0  0  0  0  0  0  0  0
    1.2990    1.5000    0.0000 O   0  0  0  0  0  0  0  0  0  0  0  0
  2  1  2  0
  3  2  1  0
  4  3  2  0
M  END
>  <NAME>  (769) 
ACROLEIN

>  <SYNONYMS>  (769) 


>  <SPECTRUM TYPE>  (769) 
MS1

>  <INSTRUMENT TYPE>  (769) 
EI-B

>  <INSTRUMENT>  (769) 
HITACHI M-80

>  <ION MODE>  (769) 
P

>  <INCHIKEY>  (769) 
HGINCPLSRVDWNT-UHFFFAOYSA-N

>  <FORMULA>  (769) 
C3H4O

>  <EXACT MASS>  (769) 
56.026214748

>  <MW>  (769) 
56

>  <ID>  (769) 
JP011051

>  <CONTRIBUTOR>  (769) 
University of Tokyo Team, {Faculty of Engineering, University of Tokyo

>  <COMMENT>  (769) 
SMILES=C=CC=O
cas=107-02-8
InChI=InChI=1S/C3H4O/c1-2-3-4/h2-3H,1H2
computed SMILES=O=CC=C
ionization energy=70 eV
accession=JP011051
date=2016.01.19 (Created 2008.10.21, modified 2011.05.06)
author=YAMAMOTO M, DEP. CHEMISTRY, FAC. SCIENCE, NARA WOMEN'S UNIV.
license=CC BY-NC-SA
exact mass=56.02621
ion type=[M]+*
computed spectral entropy=2.0838347429554833
computed normalized entropy=0.7355022336482883
SPLASH=splash10-004i-9000000000-a667e77a9d666459b411
submitter=submitter = University of Tokyo Team (Faculty of Engineering, University of Tokyo)
MoNA Rating=3.75

>  <NUM PEAKS>  (769) 
17

>  <MASS SPECTRAL PEAKS>  (769) 
13 1.25
14 1.34
24 1.24
25 7.4
26 62.29
27 99.99
28 36.07
29 42.18
30 1.07
36 1.03
37 4.33
38 4.85
39 6.19
53 3.2
55 31.55
56 38.69
57 4.29

$$$$

     RDKit          2D

 16 15  0  0  0  0  0  0  0  0999 V2000
    2.5111    3.6998    0.0000 C   0  0  0  0  0  0  0  0  0  0  0  0
    1.2120    5.9498    0.0000 C   0  0  0  0  0  0  0  0  0  0  0  0
   -1.3861    1.4498    0.0000 C   0  0  0  0  0  0  0  0  0  0  0  0
   -3.9841    1.4498    0.0000 C   0  0  0  0  0  0  0  0  0  0  0  0
   -0.0870    6.6998    0.0000 C   0  0  0  0  0  0  0  0  0  0  0  0
   -6.0332    4.9988    0.0000 C   0  0  0  0  0  0  0  0  0  0  0  0
   -6.5822    2.9498    0.0000 C   0  0  0  0  0  0  0  0  0  0  0  0
   -4.5332    2.4007    0.0000 C   0  0  0  0  0  0  0  0  0  0  0  0
   -0.0870    3.6998    0.0000 C   0  0  0  0  0  0  0  0  0  0  0  0
   -3.9841    4.4498    0.0000 C   0  0  0  0  0  0  0  0  0  0  0  0
    1.2120    4.4498    0.0000 C   0  0  0  0  0  0  0  0  0  0  0  0
   -2.6851    2.1998    0.0000 C   0  0  0  0  0  0  0  0  0  0  0  0
   -2.6851    3.6998    0.0000 C   0  0  0  0  0  0  0  0  0  0  0  0
   -1.3861    4.4498    0.0000 C   0  0  0  0  0  0  0  0  0  0  0  0
   -1.3861    5.9498    0.0000 O   0  0  0  0  0  0  0  0  0  0  0  0
   -5.2832    3.6998    0.0000 Si  0  0  0  0  0  4  0  0  0  0  0  0
 11  1  1  0
 11  2  1  0
 11  9  1  0
 12  3  2  0
 12  4  1  0
 13 10  1  0
 13 12  1  0
 14  9  1  0
 14 13  1  0
 15  5  1  0
 15 14  1  0
 16  6  1  0
 16  7  1  0
 16  8  1  0
 16 10  1  0
M  END
>  <NAME>  (770) 
4-METHOXY-2,6-DIMETHYL-3-TRIMETHYLSILYLMETHYL-1-HEPTENE

>  <SYNONYMS>  (770) 


>  <SPECTRUM TYPE>  (770) 
MS1

>  <INSTRUMENT TYPE>  (770) 
EI-B

>  <INSTRUMENT>  (770) 
JEOL JMS-DX-300

>  <ION MODE>  (770) 
P

>  <INCHIKEY>  (770) 
DJNCIINENXRGIP-UHFFFAOYSA-N

>  <FORMULA>  (770) 
C14H30OSi

>  <EXACT MASS>  (770) 
242.20659210999997

>  <MW>  (770) 
242

>  <ID>  (770) 
JP010952

>  <CONTRIBUTOR>  (770) 
University of Tokyo Team, {Faculty of Engineering, University of Tokyo

>  <COMMENT>  (770) 
SMILES=CC(C)CC(OC)C(C(C)=C)C[Si](C)(C)C
InChI=InChI=1S/C14H30OSi/c1-11(2)9-14(15-5)13(12(3)4)10-16(6,7)8/h11,13-14H,3,9-10H2,1-2,4-8H3
computed SMILES=O(C)C(CC(C)C)C(C(=C)C)C[Si](C)(C)C
accession=JP010952
date=2016.01.19 (Created 2008.10.21, modified 2011.05.06)
author=HISAHIRO HAGIWARA, INSTITUTE FOR CHEMICAL REACTION SCIENCE TOHOKU UNIV.
license=CC BY-NC-SA
exact mass=242.20659
ionization energy=70 eV
ion type=[M]+*
computed spectral entropy=2.6536414654398923
computed normalized entropy=0.6854827372597603
SPLASH=splash10-106r-9300000000-b7048e54bd6798d6c71b
submitter=submitter = University of Tokyo Team (Faculty of Engineering, University of Tokyo)
MoNA Rating=3.75

>  <NUM PEAKS>  (770) 
48

>  <MASS SPECTRAL PEAKS>  (770) 
52 6.03
53 0.73
55 5.8
56 0.7
57 2.24
58 6.23
59 52.37
60 2.92
61 1.03
65 0.91
67 3.71
68 2.22
69 64.21
70 5.51
71 15.07
72 2.75
73 68.16
74 7.11
75 5
77 1.52
79 2.53
80 0.65
81 8.46
82 1.98
83 2.14
85 4.73
89 20.1
90 1.83
91 1.16
95 2.54
96 0.64
97 1.12
99 0.78
101 99.99
102 8.82
103 1.2
109 1.25
111 4.31
112 0.51
123 0.66
126 0.93
137 1.16
141 1.71
142 3.27
155 0.7
195 0.54
211 1.3
242 0.63

$$$$

     RDKit          2D

 19 18  0  0  0  0  0  0  0  0999 V2000
    3.4853    6.5123    0.0000 C   0  0  0  0  0  0  0  0  0  0  0  0
   -5.6079    4.2623    0.0000 C   0  0  0  0  0  0  0  0  0  0  0  0
   -8.2060    4.2623    0.0000 C   0  0  0  0  0  0  0  0  0  0  0  0
   -6.9070    9.5123    0.0000 C   0  0  0  0  0  0  0  0  0  0  0  0
  -10.2550    7.8113    0.0000 C   0  0  0  0  0  0  0  0  0  0  0  0
  -10.8041    5.7623    0.0000 C   0  0  0  0  0  0  0  0  0  0  0  0
   -8.7550    5.2132    0.0000 C   0  0  0  0  0  0  0  0  0  0  0  0
    2.1863    7.2623    0.0000 C   0  0  0  0  0  0  0  0  0  0  0  0
    0.8873    6.5123    0.0000 C   0  0  0  0  0  0  0  0  0  0  0  0
   -0.4118    7.2623    0.0000 C   0  0  0  0  0  0  0  0  0  0  0  0
   -1.7108    6.5123    0.0000 C   0  0  0  0  0  0  0  0  0  0  0  0
   -3.0099    7.2623    0.0000 C   0  0  0  0  0  0  0  0  0  0  0  0
   -4.3089    6.5123    0.0000 C   0  0  0  0  0  0  0  0  0  0  0  0
   -8.2060    7.2623    0.0000 C   0  0  0  0  0  0  0  0  0  0  0  0
   -6.9070    5.0123    0.0000 C   0  0  0  0  0  0  0  0  0  0  0  0
   -6.9070    6.5123    0.0000 C   0  0  0  0  0  0  0  0  0  0  0  0
   -5.6079    7.2623    0.0000 C   0  0  0  0  0  0  0  0  0  0  0  0
   -5.6079    8.7623    0.0000 O   0  0  0  0  0  0  0  0  0  0  0  0
   -9.5050    6.5123    0.0000 Si  0  0  0  0  0  4  0  0  0  0  0  0
  8  1  1  0
  9  8  1  0
 10  9  1  0
 11 10  1  0
 12 11  1  0
 13 12  1  0
 15  2  2  0
 15  3  1  0
 16 14  1  0
 16 15  1  0
 17 13  1  0
 17 16  1  0
 18  4  1  0
 18 17  1  0
 19  5  1  0
 19  6  1  0
 19  7  1  0
 19 14  1  0
M  END
>  <NAME>  (771) 
4-METHOXY-2-METHYL-3-TRIMETHYLSILYLMETHYL-1-UNDECENE

>  <SYNONYMS>  (771) 


>  <SPECTRUM TYPE>  (771) 
MS1

>  <INSTRUMENT TYPE>  (771) 
EI-B

>  <INSTRUMENT>  (771) 
JEOL JMS-DX-300

>  <ION MODE>  (771) 
P

>  <INCHIKEY>  (771) 
PPIZSCBITAXNHZ-UHFFFAOYSA-N

>  <FORMULA>  (771) 
C17H36OSi

>  <EXACT MASS>  (771) 
284.25354230199997

>  <MW>  (771) 
284

>  <ID>  (771) 
JP010951

>  <CONTRIBUTOR>  (771) 
University of Tokyo Team, {Faculty of Engineering, University of Tokyo

>  <COMMENT>  (771) 
SMILES=CCCCCCCC(OC)C(C(C)=C)C[Si](C)(C)C
InChI=InChI=1S/C17H36OSi/c1-8-9-10-11-12-13-17(18-4)16(15(2)3)14-19(5,6)7/h16-17H,2,8-14H2,1,3-7H3
computed SMILES=O(C)C(CCCCCCC)C(C(=C)C)C[Si](C)(C)C
accession=JP010951
date=2016.01.19 (Created 2008.10.21, modified 2011.05.06)
author=HISAHIRO HAGIWARA, INSTITUTE FOR CHEMICAL REACTION SCIENCE TOHOKU UNIV.
license=CC BY-NC-SA
exact mass=284.25354
ionization energy=70 eV
ion type=[M]+*
computed spectral entropy=2.9044213620708703
computed normalized entropy=0.7281105484922804
SPLASH=splash10-06dl-9200000000-c1cdcb1ea9fdd07e9cf9
submitter=submitter = University of Tokyo Team (Faculty of Engineering, University of Tokyo)
MoNA Rating=3.75

>  <NUM PEAKS>  (771) 
54

>  <MASS SPECTRAL PEAKS>  (771) 
52 5.86
53 1.73
55 42.85
56 3.36
57 11.25
58 11.6
59 19.87
60 1.57
61 0.94
65 0.88
66 0.72
67 6.67
68 3.89
69 99.99
70 7.99
71 14.69
72 3.6
73 70.9
74 7.53
75 5.23
77 1.38
79 2.98
80 0.59
81 9.7
82 2.09
83 5.89
84 0.72
85 2.25
89 24.19
90 2.28
91 1.52
93 0.52
95 2.39
96 0.66
97 1.22
99 0.78
101 0.94
103 0.58
105 0.79
109 1.62
110 1.39
111 32.17
112 3.34
126 0.89
141 1.95
142 5.47
143 62.63
144 7.81
145 0.57
179 1.15
180 0.6
237 0.59
253 2.44
254 0.57

$$$$

     RDKit          2D

 18 18  0  0  0  0  0  0  0  0999 V2000
    1.9902    4.2400    0.0000 C   0  0  0  0  0  0  0  0  0  0  0  0
   -0.4512    5.1286    0.0000 C   0  0  0  0  0  0  0  0  0  0  0  0
    3.9186    3.1981    0.0000 C   0  0  0  0  0  0  0  0  0  0  0  0
   -1.8481    1.2710    0.0000 C   0  0  0  0  0  0  0  0  0  0  0  0
   -3.8971    1.8200    0.0000 C   0  0  0  0  0  0  0  0  0  0  0  0
   -3.3481    3.8690    0.0000 C   0  0  0  0  0  0  0  0  0  0  0  0
    0.0000   -1.9300    0.0000 C   0  0  0  0  0  0  0  0  0  0  0  0
    1.3000   -1.1800    0.0000 C   0  0  0  0  0  0  0  0  0  0  0  0
   -1.3000   -1.1800    0.0000 C   0  0  0  0  0  0  0  0  0  0  0  0
    1.3000    0.3200    0.0000 C   0  0  0  0  0  0  0  0  0  0  0  0
   -1.3000    0.3200    0.0000 C   0  0  0  0  0  0  0  0  0  0  0  0
    1.4772    2.3095    0.0000 C   0  0  0  0  0  0  0  0  0  0  0  0
   -1.2990    3.3200    0.0000 C   0  0  0  0  0  0  0  0  0  0  0  0
    0.5130    3.9795    0.0000 C   0  0  0  0  0  0  0  0  0  0  0  0
    0.0000    1.0700    0.0000 C   0  0  0  0  0  0  0  0  0  0  0  0
    0.0000    2.5700    0.0000 C   0  0  0  0  0  0  0  0  0  0  0  0
    2.4414    3.4586    0.0000 O   0  0  0  0  0  0  0  0  0  0  0  0
   -2.5981    2.5700    0.0000 Si  0  0  0  0  0  4  0  0  0  0  0  0
  8  7  2  0
  9  7  1  0
 10  8  1  0
 11  9  2  0
 14  1  2  0
 14  2  1  0
 15 10  2  0
 15 11  1  0
 16 12  1  0
 16 13  1  0
 16 14  1  0
 16 15  1  0
 17  3  1  0
 17 12  1  0
 18  4  1  0
 18  5  1  0
 18  6  1  0
 18 13  1  0
M  END
>  <NAME>  (772) 
4-METHOXY-2-METHYL-3-TRIMETHYLSILYLMETHYL-3-PHENYL-1-BUTENE

>  <SYNONYMS>  (772) 


>  <SPECTRUM TYPE>  (772) 
MS1

>  <INSTRUMENT TYPE>  (772) 
EI-B

>  <INSTRUMENT>  (772) 
JEOL JMS-DX-300

>  <ION MODE>  (772) 
P

>  <INCHIKEY>  (772) 
HREYNLWFBUBNSR-UHFFFAOYSA-N

>  <FORMULA>  (772) 
C16H26OSi

>  <EXACT MASS>  (772) 
262.175291982

>  <MW>  (772) 
262

>  <ID>  (772) 
JP010950

>  <CONTRIBUTOR>  (772) 
University of Tokyo Team, {Faculty of Engineering, University of Tokyo

>  <COMMENT>  (772) 
SMILES=COCC(C(C)=C)(C[Si](C)(C)C)c(c1)cccc1
InChI=InChI=1S/C16H26OSi/c1-14(2)16(12-17-3,13-18(4,5)6)15-10-8-7-9-11-15/h7-11H,1,12-13H2,2-6H3
computed SMILES=O(C)CC(C=1C=CC=CC1)(C(=C)C)C[Si](C)(C)C
accession=JP010950
date=2016.01.19 (Created 2008.10.21, modified 2011.05.06)
author=HISAHIRO HAGIWARA, INSTITUTE FOR CHEMICAL REACTION SCIENCE TOHOKU UNIV.
license=CC BY-NC-SA
exact mass=262.17529
ionization energy=70 eV
ion type=[M]+*
computed spectral entropy=2.5465614123216507
computed normalized entropy=0.6509576781087835
SPLASH=splash10-00di-9700000000-9b8aded51f70bd06d80c
submitter=submitter = University of Tokyo Team (Faculty of Engineering, University of Tokyo)
MoNA Rating=3.75

>  <NUM PEAKS>  (772) 
50

>  <MASS SPECTRAL PEAKS>  (772) 
52 2.43
55 1.69
57 1.53
58 3.74
59 14.82
60 1.26
61 0.75
63 1.03
65 2.33
67 1.26
68 0.66
71 1.25
72 1.71
73 64.13
74 6.92
75 4.18
76 0.56
77 18.98
78 3.25
79 0.86
81 0.57
83 1.34
85 1.02
89 17.51
90 2.11
91 13.06
92 1.22
93 1.28
95 0.54
103 0.66
105 5.18
106 0.74
109 0.87
111 2.9
115 2.25
116 0.57
117 0.81
121 99.99
122 12.52
123 0.97
126 0.5
127 0.53
128 1.57
129 1.47
141 2.53
142 0.83
143 0.54
157 0.63
179 1.13
215 0.98

$$$$

     RDKit          2D

 16 15  0  0  0  0  0  0  0  0999 V2000
   -8.2697    4.9755    0.0000 C   0  0  0  0  0  0  0  0  0  0  0  0
   -3.0736    1.9755    0.0000 C   0  0  0  0  0  0  0  0  0  0  0  0
   -0.4755    1.9755    0.0000 C   0  0  0  0  0  0  0  0  0  0  0  0
   -4.3726    7.2255    0.0000 C   0  0  0  0  0  0  0  0  0  0  0  0
    0.0736    2.9264    0.0000 C   0  0  0  0  0  0  0  0  0  0  0  0
    2.1226    3.4755    0.0000 C   0  0  0  0  0  0  0  0  0  0  0  0
    1.5736    5.5245    0.0000 C   0  0  0  0  0  0  0  0  0  0  0  0
   -6.9707    4.2255    0.0000 C   0  0  0  0  0  0  0  0  0  0  0  0
   -5.6716    4.9755    0.0000 C   0  0  0  0  0  0  0  0  0  0  0  0
   -4.3726    4.2255    0.0000 C   0  0  0  0  0  0  0  0  0  0  0  0
   -0.4755    4.9755    0.0000 C   0  0  0  0  0  0  0  0  0  0  0  0
   -1.7745    2.7255    0.0000 C   0  0  0  0  0  0  0  0  0  0  0  0
   -1.7745    4.2255    0.0000 C   0  0  0  0  0  0  0  0  0  0  0  0
   -3.0736    4.9755    0.0000 C   0  0  0  0  0  0  0  0  0  0  0  0
   -3.0736    6.4755    0.0000 O   0  0  0  0  0  0  0  0  0  0  0  0
    0.8236    4.2255    0.0000 Si  0  0  0  0  0  4  0  0  0  0  0  0
  8  1  1  0
  9  8  1  0
 10  9  1  0
 12  2  2  0
 12  3  1  0
 13 11  1  0
 13 12  1  0
 14 10  1  0
 14 13  1  0
 15  4  1  0
 15 14  1  0
 16  5  1  0
 16  6  1  0
 16  7  1  0
 16 11  1  0
M  END
>  <NAME>  (773) 
4-METHOXY-2-METHYL-3-TRIMETHYLSILYLMETHYL-1-OCTENE

>  <SYNONYMS>  (773) 


>  <SPECTRUM TYPE>  (773) 
MS1

>  <INSTRUMENT TYPE>  (773) 
EI-B

>  <INSTRUMENT>  (773) 
JEOL JMS-DX-300

>  <ION MODE>  (773) 
P

>  <INCHIKEY>  (773) 
YKJNQDLGBOSJKB-UHFFFAOYSA-N

>  <FORMULA>  (773) 
C14H30OSi

>  <EXACT MASS>  (773) 
242.20659211

>  <MW>  (773) 
242

>  <ID>  (773) 
JP010949

>  <CONTRIBUTOR>  (773) 
University of Tokyo Team, {Faculty of Engineering, University of Tokyo

>  <COMMENT>  (773) 
SMILES=CCCCC(OC)C(C(C)=C)C[Si](C)(C)C
InChI=InChI=1S/C14H30OSi/c1-8-9-10-14(15-4)13(12(2)3)11-16(5,6)7/h13-14H,2,8-11H2,1,3-7H3
computed SMILES=O(C)C(CCCC)C(C(=C)C)C[Si](C)(C)C
accession=JP010949
date=2016.01.19 (Created 2008.10.21, modified 2011.05.06)
author=HISAHIRO HAGIWARA, INSTITUTE FOR CHEMICAL REACTION SCIENCE TOHOKU UNIV.
license=CC BY-NC-SA
exact mass=242.20659
ionization energy=70 eV
ion type=[M]+*
computed spectral entropy=2.6692579940303043
computed normalized entropy=0.6755488104865927
SPLASH=splash10-0v4i-9400000000-ce922d89fffe94475ce5
submitter=submitter = University of Tokyo Team (Faculty of Engineering, University of Tokyo)
MoNA Rating=3.75

>  <NUM PEAKS>  (773) 
52

>  <MASS SPECTRAL PEAKS>  (773) 
52 5
54 0.72
55 5.54
56 0.74
57 2.37
58 5.5
59 22.06
60 1.68
61 0.98
65 0.88
66 0.48
67 4.04
68 3.34
69 71.72
70 5.99
71 7.82
72 2.54
73 66.05
74 7.02
75 5.05
77 1.24
79 2.43
80 0.51
81 8.19
82 1.37
83 1.87
85 1.71
89 21.89
90 2.09
91 1.28
95 1.97
96 0.83
97 1.07
99 7.1
100 0.71
101 99.99
102 9.04
103 1.05
105 0.42
109 1.43
111 3.73
112 0.5
125 0.5
126 0.75
137 0.86
138 1.32
141 1.57
142 4.59
143 0.57
195 0.61
211 1.13
242 0.47

$$$$

     RDKit          2D

 28 27  0  0  0  0  0  0  0  0999 V2000
  -15.1767    6.0368    0.0000 C   0  0  0  0  0  0  0  0  0  0  0  0
  -13.8776    3.7868    0.0000 C   0  0  0  0  0  0  0  0  0  0  0  0
    0.4118   12.0368    0.0000 C   0  0  0  0  0  0  0  0  0  0  0  0
    1.7108    9.7868    0.0000 C   0  0  0  0  0  0  0  0  0  0  0  0
  -10.7305    4.3358    0.0000 C   0  0  0  0  0  0  0  0  0  0  0  0
  -11.2796    2.2868    0.0000 C   0  0  0  0  0  0  0  0  0  0  0  0
   -9.2305    1.7377    0.0000 C   0  0  0  0  0  0  0  0  0  0  0  0
   -0.3382    7.3358    0.0000 C   0  0  0  0  0  0  0  0  0  0  0  0
    1.7108    6.7868    0.0000 C   0  0  0  0  0  0  0  0  0  0  0  0
    1.1618    4.7377    0.0000 C   0  0  0  0  0  0  0  0  0  0  0  0
   -6.0834    5.2868    0.0000 C   0  0  0  0  0  0  0  0  0  0  0  0
   -4.7844    6.0368    0.0000 C   0  0  0  0  0  0  0  0  0  0  0  0
  -11.2796    5.2868    0.0000 C   0  0  0  0  0  0  0  0  0  0  0  0
   -0.8873    8.2868    0.0000 C   0  0  0  0  0  0  0  0  0  0  0  0
  -12.5786    6.0368    0.0000 C   0  0  0  0  0  0  0  0  0  0  0  0
   -0.8873    9.7868    0.0000 C   0  0  0  0  0  0  0  0  0  0  0  0
   -7.3825    6.0368    0.0000 C   0  0  0  0  0  0  0  0  0  0  0  0
   -3.4853    5.2868    0.0000 C   0  0  0  0  0  0  0  0  0  0  0  0
   -9.9805    6.0368    0.0000 C   0  0  0  0  0  0  0  0  0  0  0  0
   -2.1863    7.5368    0.0000 C   0  0  0  0  0  0  0  0  0  0  0  0
   -8.6815    3.7868    0.0000 C   0  0  0  0  0  0  0  0  0  0  0  0
   -0.8873    5.2868    0.0000 C   0  0  0  0  0  0  0  0  0  0  0  0
  -13.8776    5.2868    0.0000 C   0  0  0  0  0  0  0  0  0  0  0  0
    0.4118   10.5368    0.0000 C   0  0  0  0  0  0  0  0  0  0  0  0
   -8.6815    5.2868    0.0000 C   0  0  0  0  0  0  0  0  0  0  0  0
   -2.1863    6.0368    0.0000 C   0  0  0  0  0  0  0  0  0  0  0  0
   -9.9805    3.0368    0.0000 Si  0  0  0  0  0  4  0  0  0  0  0  0
    0.4118    6.0368    0.0000 Si  0  0  0  0  0  4  0  0  0  0  0  0
 12 11  1  0
 15 13  1  0
 16 14  1  0
 17 11  1  0
 18 12  1  0
 19 13  1  0
 20 14  1  0
 23  1  1  0
 23  2  1  0
 23 15  2  0
 24  3  1  0
 24  4  1  0
 24 16  2  0
 17 25  2  0
 25 19  1  0
 25 21  1  0
 18 26  2  0
 26 20  1  0
 26 22  1  0
 27  5  1  0
 27  6  1  0
 27  7  1  0
 27 21  1  0
 28  8  1  0
 28  9  1  0
 28 10  1  0
 28 22  1  0
M  END
>  <NAME>  (774) 
(2E,6E,10E,15E)-6,10-BIS(TRIMETHYLSILYLMETHYL)-2,6,10,14-HEXADECATETRAENE

>  <SYNONYMS>  (774) 


>  <SPECTRUM TYPE>  (774) 
MS1

>  <INSTRUMENT TYPE>  (774) 
EI-B

>  <INSTRUMENT>  (774) 
JEOL JMS-DX-300

>  <ION MODE>  (774) 
P

>  <INCHIKEY>  (774) 
BWUTUMBXRSCEQW-WTHRLWDASA-N

>  <FORMULA>  (774) 
C26H50Si2

>  <EXACT MASS>  (774) 
418.34510465999995

>  <MW>  (774) 
418

>  <ID>  (774) 
JP010948

>  <CONTRIBUTOR>  (774) 
University of Tokyo Team, {Faculty of Engineering, University of Tokyo

>  <COMMENT>  (774) 
SMILES=CC(C)=CCCC(C[Si](C)(C)C)=C([H])CCC([H])=C(CCC=C(C)C)C[Si](C)(C)C
InChI=InChI=1S/C26H50Si2/c1-23(2)15-13-19-25(21-27(5,6)7)17-11-12-18-26(22-28(8,9)10)20-14-16-24(3)4/h15-18H,11-14,19-22H2,1-10H3/b25-17-,26-18+
computed SMILES=C(=C(C)C)CCC(=CCCC=C(CCC=C(C)C)C[Si](C)(C)C)C[Si](C)(C)C
accession=JP010948
date=2016.01.19 (Created 2008.10.21, modified 2011.05.06)
author=HISAHIRO HAGIWARA, INSTITUTE FOR CHEMICAL REACTION SCIENCE TOHOKU UNIV.
license=CC BY-NC-SA
exact mass=418.3451
ionization energy=70 eV
ion type=[M]+*
computed spectral entropy=1.9766839587914538
computed normalized entropy=0.6219793824496166
SPLASH=splash10-00di-9120000000-39c72b12b63d186488b2
submitter=submitter = University of Tokyo Team (Faculty of Engineering, University of Tokyo)
MoNA Rating=3.75

>  <NUM PEAKS>  (774) 
24

>  <MASS SPECTRAL PEAKS>  (774) 
41 2.84
45 2.78
59 2.92
69 5.87
73 99.99
74 9.81
75 4.33
93 1.46
97 1
109 1.5
125 1.06
135 11.19
136 1.36
153 1.91
179 4.21
180 1
181 1.19
209 20.61
210 4.19
211 1.18
222 3.74
349 1.94
418 3.14
419 1.24

$$$$

     RDKit          2D

 12 11  0  0  0  0  0  0  0  0999 V2000
    1.1519   -1.2990    0.0000 C   0  0  0  0  0  0  0  0  0  0  0  0
   -0.3481    1.2990    0.0000 C   0  0  0  0  0  0  0  0  0  0  0  0
   -0.8971   -0.7500    0.0000 C   0  0  0  0  0  0  0  0  0  0  0  0
    4.8481    4.2990    0.0000 C   0  0  0  0  0  0  0  0  0  0  0  0
    6.8971    3.7500    0.0000 C   0  0  0  0  0  0  0  0  0  0  0  0
    6.3481    1.7010    0.0000 C   0  0  0  0  0  0  0  0  0  0  0  0
    1.7010    2.2500    0.0000 C   0  0  0  0  0  0  0  0  0  0  0  0
    3.0000    3.0000    0.0000 C   0  0  0  0  0  0  0  0  0  0  0  0
    1.7010    0.7500    0.0000 C   0  0  0  0  0  0  0  0  0  0  0  0
    4.2990    2.2500    0.0000 C   0  0  0  0  0  0  0  0  0  0  0  0
    0.4019   -0.0000    0.0000 Si  0  0  0  0  0  4  0  0  0  0  0  0
    5.5981    3.0000    0.0000 Si  0  0  0  0  0  4  0  0  0  0  0  0
  7  8  2  0
  9  7  1  0
 10  8  1  0
 11  1  1  0
 11  2  1  0
 11  3  1  0
 11  9  1  0
 12  4  1  0
 12  5  1  0
 12  6  1  0
 12 10  1  0
M  END
>  <NAME>  (775) 
(Z)-1,4-BISTRIMETHYLSILYL-2-BUTENE

>  <SYNONYMS>  (775) 


>  <SPECTRUM TYPE>  (775) 
MS1

>  <INSTRUMENT TYPE>  (775) 
EI-B

>  <INSTRUMENT>  (775) 
JEOL JMS-DX-300

>  <ION MODE>  (775) 
P

>  <INCHIKEY>  (775) 
DHTZZPHEAHKIBY-FPLPWBNLSA-N

>  <FORMULA>  (775) 
C10H24Si2

>  <EXACT MASS>  (775) 
200.14165382800002

>  <MW>  (775) 
200

>  <ID>  (775) 
JP010947

>  <CONTRIBUTOR>  (775) 
University of Tokyo Team, {Faculty of Engineering, University of Tokyo

>  <COMMENT>  (775) 
SMILES=[H]C(C[Si](C)(C)C)=C([H])C[Si](C)(C)C
InChI=InChI=1S/C10H24Si2/c1-11(2,3)9-7-8-10-12(4,5)6/h7-8H,9-10H2,1-6H3/b8-7-
computed SMILES=C(=CC[Si](C)(C)C)C[Si](C)(C)C
accession=JP010947
date=2016.01.19 (Created 2008.10.21, modified 2011.05.06)
author=HISAHIRO HAGIWARA, INSTITUTE FOR CHEMICAL REACTION SCIENCE TOHOKU UNIV.
license=CC BY-NC-SA
exact mass=200.14165
ionization energy=70 eV
ion type=[M]+*
computed spectral entropy=2.0020439771795906
computed normalized entropy=0.6476921645008258
SPLASH=splash10-00di-9200000000-630eb77eac7979faee3f
submitter=submitter = University of Tokyo Team (Faculty of Engineering, University of Tokyo)
MoNA Rating=3.75

>  <NUM PEAKS>  (775) 
22

>  <MASS SPECTRAL PEAKS>  (775) 
43 2.48
44 1.48
45 12.22
46 1.01
58 1.33
59 3.07
71 1.24
72 1.4
73 99.99
74 10.02
75 3.92
85 1.02
95 1.4
97 28.72
98 3.33
99 1.23
112 34.83
113 4.65
114 1.54
200 11.11
201 2.62
202 1.08

$$$$

     RDKit          2D

 18 17  0  0  0  0  0  0  0  0999 V2000
    3.8971    6.7500    0.0000 C   0  0  0  0  0  0  0  0  0  0  0  0
    2.5981    4.5000    0.0000 C   0  0  0  0  0  0  0  0  0  0  0  0
   -4.4462   10.2990    0.0000 C   0  0  0  0  0  0  0  0  0  0  0  0
   -6.4952    9.7500    0.0000 C   0  0  0  0  0  0  0  0  0  0  0  0
   -5.9462    7.7010    0.0000 C   0  0  0  0  0  0  0  0  0  0  0  0
   -3.1471    2.4510    0.0000 C   0  0  0  0  0  0  0  0  0  0  0  0
   -5.1962    3.0000    0.0000 C   0  0  0  0  0  0  0  0  0  0  0  0
   -4.6471    5.0490    0.0000 C   0  0  0  0  0  0  0  0  0  0  0  0
    0.0000    6.0000    0.0000 C   0  0  0  0  0  0  0  0  0  0  0  0
    1.2990    6.7500    0.0000 C   0  0  0  0  0  0  0  0  0  0  0  0
   -1.2990    6.7500    0.0000 C   0  0  0  0  0  0  0  0  0  0  0  0
   -3.8971    6.7500    0.0000 C   0  0  0  0  0  0  0  0  0  0  0  0
   -3.8971    8.2500    0.0000 C   0  0  0  0  0  0  0  0  0  0  0  0
   -2.5981    4.5000    0.0000 C   0  0  0  0  0  0  0  0  0  0  0  0
    2.5981    6.0000    0.0000 C   0  0  0  0  0  0  0  0  0  0  0  0
   -2.5981    6.0000    0.0000 C   0  0  0  0  0  0  0  0  0  0  0  0
   -5.1962    9.0000    0.0000 Si  0  0  0  0  0  4  0  0  0  0  0  0
   -3.8971    3.7500    0.0000 Si  0  0  0  0  0  4  0  0  0  0  0  0
 10  9  1  0
 11  9  1  0
 13 12  1  0
 15  1  1  0
 15  2  1  0
 15 10  2  0
 16 11  1  0
 12 16  2  0
 16 14  1  0
 17  3  1  0
 17  4  1  0
 17  5  1  0
 17 13  1  0
 18  6  1  0
 18  7  1  0
 18  8  1  0
 18 14  1  0
M  END
>  <NAME>  (776) 
(2Z,6E)-7-METHYL-1-TRIMETHYLSILYL-3-TRIMETHYLSILYLMETHYL-2,6-OCTADIENE

>  <SYNONYMS>  (776) 


>  <SPECTRUM TYPE>  (776) 
MS1

>  <INSTRUMENT TYPE>  (776) 
EI-B

>  <INSTRUMENT>  (776) 
JEOL JMS-DX-300

>  <ION MODE>  (776) 
P

>  <INCHIKEY>  (776) 
OCLVQVMSRGFTAZ-FOWTUZBSSA-N

>  <FORMULA>  (776) 
C16H34Si2

>  <EXACT MASS>  (776) 
282.219904148

>  <MW>  (776) 
282

>  <ID>  (776) 
JP010946

>  <CONTRIBUTOR>  (776) 
University of Tokyo Team, {Faculty of Engineering, University of Tokyo

>  <COMMENT>  (776) 
SMILES=CC(C)=CCCC(C[Si](C)(C)C)=C([H])C[Si](C)(C)C
InChI=InChI=1S/C16H34Si2/c1-15(2)10-9-11-16(14-18(6,7)8)12-13-17(3,4)5/h10,12H,9,11,13-14H2,1-8H3/b16-12+
computed SMILES=C(=C(C)C)CCC(=CC[Si](C)(C)C)C[Si](C)(C)C
accession=JP010946
date=2016.01.19 (Created 2008.10.21, modified 2011.05.06)
author=HISAHIRO HAGIWARA, INSTITUTE FOR CHEMICAL REACTION SCIENCE TOHOKU UNIV.
license=CC BY-NC-SA
exact mass=282.2199
ionization energy=70 eV
ion type=[M]+*
computed spectral entropy=2.40600066324308
computed normalized entropy=0.7220447172123223
SPLASH=splash10-00di-9440000000-f771f6f70c8cdcd06d43
submitter=submitter = University of Tokyo Team (Faculty of Engineering, University of Tokyo)
MoNA Rating=3.75

>  <NUM PEAKS>  (776) 
28

>  <MASS SPECTRAL PEAKS>  (776) 
41 4.43
43 1.48
45 10.06
59 9.27
69 2.7
72 1.71
73 99.99
74 11.33
75 4.37
85 1.71
97 5.6
109 1.21
125 48.51
126 8.01
127 2.52
137 1.1
151 1.41
179 3.96
193 2.73
195 1.71
213 36.46
214 9.1
215 3.63
239 2.4
267 1.35
282 17.41
283 5.15
284 1.94

$$$$

     RDKit          2D

 10  9  0  0  0  0  0  0  0  0999 V2000
   -6.4952    4.5000    0.0000 C   0  0  0  0  0  0  0  0  0  0  0  0
    2.5981    3.7500    0.0000 C   0  0  0  0  0  0  0  0  0  0  0  0
   -2.5981    3.7500    0.0000 C   0  0  0  0  0  0  0  0  0  0  0  0
   -1.2990    4.5000    0.0000 C   0  0  0  0  0  0  0  0  0  0  0  0
   -3.8971    4.5000    0.0000 C   0  0  0  0  0  0  0  0  0  0  0  0
    0.0000    3.7500    0.0000 C   0  0  0  0  0  0  0  0  0  0  0  0
   -3.8971    6.0000    0.0000 O   0  0  0  0  0  0  0  0  0  0  0  0
   -0.0000    2.2500    0.0000 O   0  0  0  0  0  0  0  0  0  0  0  0
   -5.1962    3.7500    0.0000 O   0  0  0  0  0  0  0  0  0  0  0  0
    1.2990    4.5000    0.0000 O   0  0  0  0  0  0  0  0  0  0  0  0
  3  4  2  0
  5  3  1  0
  6  4  1  0
  7  5  2  0
  8  6  2  0
  9  1  1  0
  9  5  1  0
 10  2  1  0
 10  6  1  0
M  END
>  <NAME>  (777) 
DIMETHYL FUMARATE

>  <SYNONYMS>  (777) 


>  <SPECTRUM TYPE>  (777) 
MS1

>  <INSTRUMENT TYPE>  (777) 
EI-B

>  <INSTRUMENT>  (777) 
JEOL JMS-DX-300

>  <ION MODE>  (777) 
P

>  <INCHIKEY>  (777) 
LDCRTTXIJACKKU-ONEGZZNKSA-N

>  <FORMULA>  (777) 
C6H8O4

>  <EXACT MASS>  (777) 
144.042258736

>  <MW>  (777) 
144

>  <ID>  (777) 
JP010945

>  <CONTRIBUTOR>  (777) 
University of Tokyo Team, {Faculty of Engineering, University of Tokyo

>  <COMMENT>  (777) 
SMILES=COC(=O)C=CC(=O)OC
InChI=InChI=1S/C6H8O4/c1-9-5(7)3-4-6(8)10-2/h3-4H,1-2H3/b4-3+
computed SMILES=O=C(OC)C=CC(=O)OC
accession=JP010945
date=2016.01.19 (Created 2008.10.21, modified 2011.05.06)
author=HISAHIRO HAGIWARA, INSTITUTE FOR CHEMICAL REACTION SCIENCE TOHOKU UNIV.
license=CC BY-NC-SA
exact mass=144.04226
ionization energy=70 eV
ion type=[M]+*
computed spectral entropy=2.1057093669130578
computed normalized entropy=0.7151479048511904
SPLASH=splash10-03di-9800000000-d3ec2acefa5532f1d130
submitter=submitter = University of Tokyo Team (Faculty of Engineering, University of Tokyo)
MoNA Rating=3.75

>  <NUM PEAKS>  (777) 
19

>  <MASS SPECTRAL PEAKS>  (777) 
30 1.83
31 2.35
39 4.72
41 3.88
42 1.59
53 14.52
54 10.85
55 3.48
59 27.83
81 4.43
82 6.36
85 49.56
86 2.9
99 2.34
100 2.01
113 99.99
114 25.04
115 2.17
144 5.17

$$$$

     RDKit          2D

 30 33  0  0  1  0  0  0  0  0999 V2000
    9.5655    7.2342    0.0000 C   0  0  0  0  0  0  0  0  0  0  0  0
   10.0746    4.6865    0.0000 C   0  0  0  0  0  0  0  0  0  0  0  0
    8.1228    2.9718    0.0000 C   0  0  0  0  0  0  0  0  0  0  0  0
    3.2009    4.6377    0.0000 C   0  0  0  0  0  0  0  0  0  0  0  0
   -1.6125    0.9400    0.0000 C   0  0  0  0  0  0  0  0  0  0  0  0
    2.4507    3.1203    0.0000 C   0  0  0  0  0  0  0  0  0  0  0  0
    8.0946    6.9403    0.0000 C   0  0  0  0  0  0  0  0  0  0  0  0
    5.6618    3.8047    0.0000 C   0  0  0  0  0  0  0  0  0  0  0  0
    6.1427    5.2256    0.0000 C   0  0  0  0  0  0  0  0  0  0  0  0
   -0.3200   -2.8400    0.0000 C   0  0  0  0  0  0  0  0  0  0  0  0
    1.0100   -2.0900    0.0000 C   0  0  0  0  0  0  0  0  0  0  0  0
    4.5500    0.8800    0.0000 C   0  0  0  0  0  0  0  0  0  0  0  0
    3.7100   -0.3100    0.0000 C   0  0  0  0  0  0  0  0  0  0  0  0
   -4.2000   -0.5600    0.0000 C   0  0  0  0  0  0  0  0  0  0  0  0
   -0.3200    1.6300    0.0000 C   0  0  0  0  0  0  0  0  0  0  0  0
   -2.8900    0.1600    0.0000 C   0  0  0  0  0  0  0  0  0  0  0  0
    1.0100    2.3900    0.0000 C   0  0  0  0  0  0  0  0  0  0  0  0
   -2.8900   -2.8400    0.0000 C   0  0  0  0  0  0  0  0  0  0  0  0
    8.6037    4.3926    0.0000 C   0  0  0  0  0  0  0  0  0  0  0  0
    4.1909    3.5108    0.0000 C   0  0  0  0  0  0  0  0  0  0  0  0
    7.6137    5.5195    0.0000 C   0  0  0  0  0  0  0  0  0  0  0  0
   -1.6200   -2.0900    0.0000 C   0  0  0  0  0  0  0  0  0  0  0  0
   -4.2000   -2.0900    0.0000 C   0  0  0  0  0  0  0  0  0  0  0  0
    1.0100   -0.5600    0.0000 C   0  0  0  0  0  0  0  0  0  0  0  0
    3.7100    2.0900    0.0000 C   0  0  0  0  0  0  0  0  0  0  0  0
    2.2800    0.1600    0.0000 C   0  0  0  0  0  0  0  0  0  0  0  0
   -0.3200    0.1600    0.0000 C   0  0  0  0  0  0  0  0  0  0  0  0
   -1.6200   -0.5600    0.0000 C   0  0  0  0  0  0  0  0  0  0  0  0
    2.2800    1.6300    0.0000 C   0  0  0  0  0  0  0  0  0  0  0  0
   -5.4977   -2.8424    0.0000 O   0  0  0  0  0  0  0  0  0  0  0  0
  7  1  1  0
  9  8  1  0
 11 10  1  0
 13 12  1  0
 16 14  1  0
 17 15  1  0
 19  2  1  0
 19  3  1  0
 20  4  1  6
 20  8  1  0
 21  7  1  1
 21  9  1  0
 21 19  1  0
 22 10  2  0
 22 18  1  0
 23 14  1  0
 23 18  1  0
 24 11  1  6
 25 12  1  1
 25 20  1  0
 26 13  1  1
 26 24  1  0
 27 15  1  1
 27 24  1  0
 28  5  1  1
 28 16  1  0
 28 22  1  0
 28 27  1  0
 29  6  1  1
 29 17  1  0
 29 25  1  0
 29 26  1  0
 23 30  1  1
M  END
>  <NAME>  (778) 
BETA-SITOSTEROL

>  <SYNONYMS>  (778) 
STIGMAST-5-EN-3BETA-OL

>  <SPECTRUM TYPE>  (778) 
MS1

>  <INSTRUMENT TYPE>  (778) 
EI-B

>  <INSTRUMENT>  (778) 
JEOL JMS-DX-300

>  <ION MODE>  (778) 
P

>  <INCHIKEY>  (778) 
KZJWDPNRJALLNS-VJSFXXLFSA-N

>  <FORMULA>  (778) 
C29H50O

>  <EXACT MASS>  (778) 
414.38616621999995

>  <MW>  (778) 
414

>  <ID>  (778) 
JP010944

>  <CONTRIBUTOR>  (778) 
University of Tokyo Team, {Faculty of Engineering, University of Tokyo

>  <COMMENT>  (778) 
SMILES=CC(C4([H])C(CCC([H])(CC)C(C)C)([H])C)(C([H])3CC4)CCC(C([H])23)([H])C(C)(C1=CC2)CCC(C1)O
cas=83-46-5
InChI=InChI=1S/C29H50O/c1-7-21(19(2)3)9-8-20(4)25-12-13-26-24-11-10-22-18-23(30)14-16-28(22,5)27(24)15-17-29(25,26)6/h10,19-21,23-27,30H,7-9,11-18H2,1-6H3/t20-,21-,23+,24+,25-,26+,27+,28+,29-/m1/s1
computed SMILES=OC1CC2=CCC3C(CCC4(C)C(CCC34)C(C)CCC(CC)C(C)C)C2(C)CC1
accession=JP010944
date=2016.01.19 (Created 2008.10.21, modified 2011.05.06)
author=HISAHIRO HAGIWARA, INSTITUTE FOR CHEMICAL REACTION SCIENCE TOHOKU UNIV.
license=CC BY-NC-SA
exact mass=414.38617
ionization energy=70 eV
ion type=[M]+*
computed spectral entropy=3.8358191558131822
computed normalized entropy=0.9446799637010522
SPLASH=splash10-0a4l-9601000000-edade780f6cfb8ddc7d1
submitter=submitter = University of Tokyo Team (Faculty of Engineering, University of Tokyo)
MoNA Rating=3.75

>  <NUM PEAKS>  (778) 
58

>  <MASS SPECTRAL PEAKS>  (778) 
41 50.64
42 7.48
43 99.99
53 8.05
55 62.84
57 55.46
67 29.1
69 36.07
71 28.4
77 9.42
79 29.29
81 43.16
83 17.77
85 22.37
91 27.33
92 7.6
93 30.63
94 10.84
95 39.88
97 13.75
105 31.71
106 9.9
107 39.86
108 11.42
109 20.68
111 10.34
117 10.04
119 13.19
120 18.76
121 21.01
123 11.21
125 8.53
131 15.55
133 21.37
134 9.17
135 17.65
143 10.62
145 27.92
146 7.84
147 17.06
149 11.05
157 7.74
158 9.58
159 20.59
160 13.19
161 20.49
163 17.51
173 10.6
178 12.16
199 7.4
213 19.88
231 13.81
255 16.54
273 16.6
302 9.51
303 29.58
304 7.86
329 23.08

$$$$

     RDKit          2D

 20 19  0  0  0  0  0  0  0  0999 V2000
    5.8457   10.1250    0.0000 C   0  0  0  0  0  0  0  0  0  0  0  0
    4.5466   10.8750    0.0000 C   0  0  0  0  0  0  0  0  0  0  0  0
    3.2476   10.1250    0.0000 C   0  0  0  0  0  0  0  0  0  0  0  0
    1.9486   10.8750    0.0000 C   0  0  0  0  0  0  0  0  0  0  0  0
    0.6495   10.1250    0.0000 C   0  0  0  0  0  0  0  0  0  0  0  0
   -0.6495   10.8750    0.0000 C   0  0  0  0  0  0  0  0  0  0  0  0
   -1.9486   10.1250    0.0000 C   0  0  0  0  0  0  0  0  0  0  0  0
   -3.2476   10.8750    0.0000 C   0  0  0  0  0  0  0  0  0  0  0  0
   -4.5466   10.1250    0.0000 C   0  0  0  0  0  0  0  0  0  0  0  0
   -5.8457   10.8750    0.0000 C   0  0  0  0  0  0  0  0  0  0  0  0
   -7.1447   10.1250    0.0000 C   0  0  0  0  0  0  0  0  0  0  0  0
   -8.4437   10.8750    0.0000 C   0  0  0  0  0  0  0  0  0  0  0  0
   -9.7428   10.1250    0.0000 C   0  0  0  0  0  0  0  0  0  0  0  0
  -11.0418   10.8750    0.0000 C   0  0  0  0  0  0  0  0  0  0  0  0
  -12.3409   10.1250    0.0000 C   0  0  0  0  0  0  0  0  0  0  0  0
  -13.6399   10.8750    0.0000 C   0  0  0  0  0  0  0  0  0  0  0  0
  -14.9389   10.1250    0.0000 C   0  0  0  0  0  0  0  0  0  0  0  0
  -16.2380   10.8750    0.0000 C   0  0  0  0  0  0  0  0  0  0  0  0
  -16.2380   12.3750    0.0000 O   0  0  0  0  0  0  0  0  0  0  0  0
  -17.5370   10.1250    0.0000 O   0  0  0  0  0  0  0  0  0  0  0  0
  2  1  1  0
  3  2  1  0
  4  3  1  0
  5  4  1  0
  6  5  1  0
  7  6  1  0
  8  7  1  0
  9  8  1  0
 10  9  1  0
 11 10  1  0
 12 11  1  0
 13 12  1  0
 14 13  1  0
 15 14  1  0
 16 15  1  0
 17 16  1  0
 18 17  1  0
 19 18  2  0
 20 18  1  0
M  END
>  <NAME>  (779) 
STEARIC ACID

>  <SYNONYMS>  (779) 
OCTADECANOIC ACID

>  <SPECTRUM TYPE>  (779) 
MS1

>  <INSTRUMENT TYPE>  (779) 
EI-B

>  <INSTRUMENT>  (779) 
JEOL JMS-DX-300

>  <ION MODE>  (779) 
P

>  <INCHIKEY>  (779) 
QIQXTHQIDYTFRH-UHFFFAOYSA-N

>  <FORMULA>  (779) 
C18H36O2

>  <EXACT MASS>  (779) 
284.271530392

>  <MW>  (779) 
284

>  <ID>  (779) 
JP010943

>  <CONTRIBUTOR>  (779) 
University of Tokyo Team, {Faculty of Engineering, University of Tokyo

>  <COMMENT>  (779) 
SMILES=CCCCCCCCCCCCCCCCCC(O)=O
cas=57-11-4
InChI=InChI=1S/C18H36O2/c1-2-3-4-5-6-7-8-9-10-11-12-13-14-15-16-17-18(19)20/h2-17H2,1H3,(H,19,20)
computed SMILES=O=C(O)CCCCCCCCCCCCCCCCC
accession=JP010943
date=2016.01.19 (Created 2008.10.21, modified 2011.05.06)
author=HISAHIRO HAGIWARA, INSTITUTE FOR CHEMICAL REACTION SCIENCE TOHOKU UNIV.
license=CC BY-NC-SA
exact mass=284.27153
ionization energy=70 eV
ion type=[M]+*
computed spectral entropy=3.4125927847885245
computed normalized entropy=0.8913325724153504
SPLASH=splash10-06yo-9110000000-6f345827577cdc861aca
submitter=submitter = University of Tokyo Team (Faculty of Engineering, University of Tokyo)
MoNA Rating=3.75

>  <NUM PEAKS>  (779) 
46

>  <MASS SPECTRAL PEAKS>  (779) 
39 7.04
41 52.54
42 13.53
43 87.17
45 5.48
54 5.41
55 58.73
56 16.8
57 78.46
60 74.28
61 27.24
67 8.04
68 7.41
69 39.01
70 13.52
71 47.61
73 91.43
74 9.74
81 6.55
82 7.58
83 30.24
84 13.94
85 33.12
87 21.28
96 6.85
97 25.5
98 16.14
99 11.52
101 9.64
111 13.3
112 5.85
113 7.72
115 14.76
116 9.31
125 7.31
127 5.45
129 48.4
130 6.55
143 8.44
171 9.4
185 24.04
199 7.96
227 6.24
241 22.69
284 99.99
285 25

$$$$

     RDKit          2D

  7  6  0  0  0  0  0  0  0  0999 V2000
   -0.6495    4.8750    0.0000 C   0  0  0  0  0  0  0  0  0  0  0  0
   -1.9486    2.6250    0.0000 C   0  0  0  0  0  0  0  0  0  0  0  0
   -1.9486    1.1250    0.0000 C   0  0  0  0  0  0  0  0  0  0  0  0
    0.6495    2.6250    0.0000 C   0  0  0  0  0  0  0  0  0  0  0  0
   -0.6495    3.3750    0.0000 C   0  0  0  0  0  0  0  0  0  0  0  0
   -3.2476    0.3750    0.0000 Br  0  0  0  0  0  0  0  0  0  0  0  0
    1.9486    3.3750    0.0000 O   0  0  0  0  0  0  0  0  0  0  0  0
  3  2  1  0
  5  1  1  0
  5  2  1  0
  5  4  1  0
  6  3  1  0
  7  4  2  0
M  END
>  <NAME>  (780) 
4-BROMO-2-METHYLBUTENAL

>  <SYNONYMS>  (780) 


>  <SPECTRUM TYPE>  (780) 
MS1

>  <INSTRUMENT TYPE>  (780) 
EI-B

>  <INSTRUMENT>  (780) 
JEOL JMS-D-300

>  <ION MODE>  (780) 
P

>  <INCHIKEY>  (780) 
HUEISMLONAXRSB-UHFFFAOYSA-N

>  <FORMULA>  (780) 
C5H9BrO

>  <EXACT MASS>  (780) 
163.983677008

>  <MW>  (780) 
164

>  <ID>  (780) 
JP010942

>  <CONTRIBUTOR>  (780) 
University of Tokyo Team, {Faculty of Engineering, University of Tokyo

>  <COMMENT>  (780) 
SMILES=O=CC(C)CCBr
InChI=InChI=1S/C5H9BrO/c1-5(4-7)2-3-6/h4-5H,2-3H2,1H3
computed SMILES=O=CC(C)CCBr
accession=JP010942
date=2016.01.19 (Created 2008.10.21, modified 2011.05.06)
author=KURARAY CO., LTD.
license=CC BY-NC-SA
exact mass=163.98368
ionization energy=70 eV
ion type=[M]+*
computed spectral entropy=2.8054680115317834
computed normalized entropy=0.7171399574182061
SPLASH=splash10-0a4i-9000000000-545124a2bd31e26dea7c
submitter=submitter = University of Tokyo Team (Faculty of Engineering, University of Tokyo)
MoNA Rating=3.75

>  <NUM PEAKS>  (780) 
50

>  <MASS SPECTRAL PEAKS>  (780) 
26 2.1
27 14.3
28 14.3
29 19.5
30 0.6
31 0.5
32 2.3
37 0.9
38 1.4
39 15.6
40 2
41 26.6
42 2
43 7.1
44 0.7
50 2.3
51 2.4
52 0.9
53 8.1
54 3
55 59.7
56 21.4
57 16.2
58 99.99
59 3.9
67 0.6
69 3.6
71 0.8
80 1.3
82 1.3
83 12.3
84 24.7
85 12.5
86 0.4
93 1.4
95 1.3
107 6
109 5.6
110 0.1
111 0.3
119 0.2
121 0.1
122 0.3
124 0.3
135 1.3
136 0.1
137 1.2
164 0.4
165 0.2
166 0.4

$$$$

     RDKit          2D

 10  9  0  0  0  0  0  0  0  0999 V2000
   -3.5724    5.4375    0.0000 C   0  0  0  0  0  0  0  0  0  0  0  0
    2.9228    3.1875    0.0000 C   0  0  0  0  0  0  0  0  0  0  0  0
   -2.2733    3.1875    0.0000 C   0  0  0  0  0  0  0  0  0  0  0  0
   -0.9743    3.9375    0.0000 C   0  0  0  0  0  0  0  0  0  0  0  0
   -4.8714    3.1875    0.0000 C   0  0  0  0  0  0  0  0  0  0  0  0
   -3.5724    3.9375    0.0000 C   0  0  0  0  0  0  0  0  0  0  0  0
    1.6238    3.9375    0.0000 C   0  0  0  0  0  0  0  0  0  0  0  0
   -6.1704    3.9375    0.0000 Cl  0  0  0  0  0  0  0  0  0  0  0  0
    1.6238    5.4375    0.0000 O   0  0  0  0  0  0  0  0  0  0  0  0
    0.3248    3.1875    0.0000 O   0  0  0  0  0  0  0  0  0  0  0  0
  4  3  1  0
  6  1  1  0
  3  6  2  0
  6  5  1  0
  7  2  1  0
  8  5  1  0
  9  7  2  0
 10  4  1  0
 10  7  1  0
M  END
>  <NAME>  (781) 
4-CHLORO-3-METHYL-2-BUTENYL ACETATE

>  <SYNONYMS>  (781) 


>  <SPECTRUM TYPE>  (781) 
MS1

>  <INSTRUMENT TYPE>  (781) 
EI-B

>  <INSTRUMENT>  (781) 
JEOL JMS-D-300

>  <ION MODE>  (781) 
P

>  <INCHIKEY>  (781) 
URVYVINLDPIJEH-ZZXKWVIFSA-N

>  <FORMULA>  (781) 
C7H11ClO2

>  <EXACT MASS>  (781) 
162.044757272

>  <MW>  (781) 
162

>  <ID>  (781) 
JP010941

>  <CONTRIBUTOR>  (781) 
University of Tokyo Team, {Faculty of Engineering, University of Tokyo

>  <COMMENT>  (781) 
SMILES=ClCC(C)=CCOC(C)=O
InChI=InChI=1S/C7H11ClO2/c1-6(5-8)3-4-10-7(2)9/h3H,4-5H2,1-2H3/b6-3+
computed SMILES=O=C(OCC=C(C)CCl)C
accession=JP010941
date=2016.01.19 (Created 2008.10.21, modified 2011.05.06)
author=KURARAY CO., LTD.
license=CC BY-NC-SA
exact mass=162.04476
ionization energy=70 eV
ion type=[M]+*
computed spectral entropy=2.155297469388988
computed normalized entropy=0.6062127904535137
SPLASH=splash10-0f6x-9300000000-ab8a86f5449a87560d04
submitter=submitter = University of Tokyo Team (Faculty of Engineering, University of Tokyo)
MoNA Rating=3.75

>  <NUM PEAKS>  (781) 
35

>  <MASS SPECTRAL PEAKS>  (781) 
26 0.3
27 2.9
29 1
36 0.4
38 0.4
39 4.9
40 1.9
41 4.5
42 1.3
43 99.99
44 2.2
45 1.9
49 0.4
51 1
53 3.6
54 0.7
55 1.2
59 0.8
61 1
65 1
66 1
67 18.4
68 1.2
69 1.1
73 11
83 0.4
84 0.6
85 1
97 2.8
100 1.2
102 39.3
103 2.6
104 13.3
105 1.1
127 3.2

$$$$

     RDKit          2D

 10  9  0  0  0  0  0  0  0  0999 V2000
    2.2733    2.8125    0.0000 C   0  0  0  0  0  0  0  0  0  0  0  0
    0.9743    5.0625    0.0000 C   0  0  0  0  0  0  0  0  0  0  0  0
   -5.5209    2.8125    0.0000 C   0  0  0  0  0  0  0  0  0  0  0  0
   -1.6238    3.5625    0.0000 C   0  0  0  0  0  0  0  0  0  0  0  0
    0.9743    3.5625    0.0000 C   0  0  0  0  0  0  0  0  0  0  0  0
   -4.2219    3.5625    0.0000 C   0  0  0  0  0  0  0  0  0  0  0  0
   -0.3248    2.8125    0.0000 C   0  0  0  0  0  0  0  0  0  0  0  0
   -0.3248    1.3125    0.0000 Cl  0  0  0  0  0  0  0  0  0  0  0  0
   -4.2219    5.0625    0.0000 O   0  0  0  0  0  0  0  0  0  0  0  0
   -2.9228    2.8125    0.0000 O   0  0  0  0  0  0  0  0  0  0  0  0
  5  1  2  0
  5  2  1  0
  6  3  1  0
  7  4  1  0
  7  5  1  0
  8  7  1  0
  9  6  2  0
 10  4  1  0
 10  6  1  0
M  END
>  <NAME>  (782) 
2-CHLORO-3-METHYL-3-BUTENYL ACETATE

>  <SYNONYMS>  (782) 


>  <SPECTRUM TYPE>  (782) 
MS1

>  <INSTRUMENT TYPE>  (782) 
EI-B

>  <INSTRUMENT>  (782) 
JEOL JMS-D-300

>  <ION MODE>  (782) 
P

>  <INCHIKEY>  (782) 
XBHOPQWQWYJXRY-UHFFFAOYSA-N

>  <FORMULA>  (782) 
C7H11ClO2

>  <EXACT MASS>  (782) 
162.044757272

>  <MW>  (782) 
162

>  <ID>  (782) 
JP010940

>  <CONTRIBUTOR>  (782) 
University of Tokyo Team, {Faculty of Engineering, University of Tokyo

>  <COMMENT>  (782) 
SMILES=CC(=O)OCC(Cl)C(C)=C
InChI=InChI=1S/C7H11ClO2/c1-5(2)7(8)4-10-6(3)9/h7H,1,4H2,2-3H3
computed SMILES=O=C(OCC(Cl)C(=C)C)C
accession=JP010940
date=2016.01.19 (Created 2008.10.21, modified 2011.05.06)
author=KURARAY CO., LTD.
license=CC BY-NC-SA
exact mass=162.04476
ionization energy=70 eV
ion type=[M]+*
computed spectral entropy=3.1029820743816243
computed normalized entropy=0.7518490518809996
SPLASH=splash10-0uxu-9400000000-8a79c58e56f27bb1769b
submitter=submitter = University of Tokyo Team (Faculty of Engineering, University of Tokyo)
MoNA Rating=3.75

>  <NUM PEAKS>  (782) 
62

>  <MASS SPECTRAL PEAKS>  (782) 
27 7.1
28 5.5
29 3.6
31 0.6
32 1.4
36 1.3
37 0.4
38 1.5
39 12.3
40 3.7
41 22.7
42 3.7
43 68.8
44 2.6
45 1
49 1.2
50 1.7
51 5.4
52 1.6
53 9.1
54 1.2
55 6.5
56 3.2
57 1.4
59 1.3
61 7.8
62 0.7
63 3.1
64 1.2
65 8.4
66 12.7
67 99.99
68 7.1
69 2.5
71 0.7
73 1.5
74 0.7
75 7.8
76 0.7
77 2.8
83 6.7
84 3.9
85 49
86 3.6
87 3.5
89 1.7
90 1.6
101 1
102 80.5
103 20.1
104 26.6
105 8.4
107 0.7
117 0.6
119 3.2
120 4.9
121 1.7
122 1.6
127 36.3
128 4.5
162 3.6
163 1.2

$$$$

     RDKit          2D

 12 12  0  0  0  0  0  0  0  0999 V2000
   -3.8981   -0.7504    0.0000 C   0  0  0  0  0  0  0  0  0  0  0  0
    3.3491    0.2013    0.0000 C   0  0  0  0  0  0  0  0  0  0  0  0
    3.8978    2.2504    0.0000 C   0  0  0  0  0  0  0  0  0  0  0  0
    1.8487    2.7991    0.0000 C   0  0  0  0  0  0  0  0  0  0  0  0
   -2.5989   -1.5002    0.0000 C   0  0  0  0  0  0  0  0  0  0  0  0
   -1.3000    0.7500    0.0000 C   0  0  0  0  0  0  0  0  0  0  0  0
   -0.0000   -1.5000    0.0000 C   0  0  0  0  0  0  0  0  0  0  0  0
    0.0000    1.5000    0.0000 C   0  0  0  0  0  0  0  0  0  0  0  0
    1.3000   -0.7500    0.0000 C   0  0  0  0  0  0  0  0  0  0  0  0
   -1.3000   -0.7500    0.0000 C   0  0  0  0  0  0  0  0  0  0  0  0
    1.3000    0.7500    0.0000 C   0  0  0  0  0  0  0  0  0  0  0  0
    2.5989    1.5002    0.0000 C   0  0  0  0  0  0  0  0  0  0  0  0
  5  1  2  0
  8  6  2  0
  9  7  1  0
 10  5  1  0
 10  6  1  0
 10  7  2  0
 11  8  1  0
 11  9  2  0
 12  2  1  0
 12  3  1  0
 12  4  1  0
 12 11  1  0
M  END
>  <NAME>  (783) 
4-TERT-BUTYLSTYLENE

>  <SYNONYMS>  (783) 


>  <SPECTRUM TYPE>  (783) 
MS1

>  <INSTRUMENT TYPE>  (783) 
EI-B

>  <INSTRUMENT>  (783) 
JEOL JMS-D-300

>  <ION MODE>  (783) 
P

>  <INCHIKEY>  (783) 
QEDJMOONZLUIMC-UHFFFAOYSA-N

>  <FORMULA>  (783) 
C12H16

>  <EXACT MASS>  (783) 
160.125200512

>  <MW>  (783) 
160

>  <ID>  (783) 
JP010939

>  <CONTRIBUTOR>  (783) 
University of Tokyo Team, {Faculty of Engineering, University of Tokyo

>  <COMMENT>  (783) 
SMILES=C=Cc(c1)ccc(c1)C(C)(C)C
InChI=InChI=1S/C12H16/c1-5-10-6-8-11(9-7-10)12(2,3)4/h5-9H,1H2,2-4H3
computed SMILES=C=CC1=CC=C(C=C1)C(C)(C)C
accession=JP010939
date=2016.01.19 (Created 2008.10.21, modified 2011.05.06)
author=KURARAY CO., LTD.
license=CC BY-NC-SA
exact mass=160.1252
ionization energy=70 eV
ion type=[M]+*
computed spectral entropy=1.9732934072502835
computed normalized entropy=0.7693303579308093
SPLASH=splash10-0002-1900000000-9dfb58f4828557e5d0ae
submitter=submitter = University of Tokyo Team (Faculty of Engineering, University of Tokyo)
MoNA Rating=3.75

>  <NUM PEAKS>  (783) 
13

>  <MASS SPECTRAL PEAKS>  (783) 
41 8.4
77 5.9
91 11.1
105 12.4
115 6.5
117 22.9
128 7.2
129 3.9
130 4.1
145 99.99
146 12.7
160 32.5
161 5.5

$$$$

     RDKit          2D

 12 13  0  0  0  0  0  0  0  0999 V2000
    3.2476   -0.0550    0.0000 C   0  0  0  0  0  0  0  0  0  0  0  0
   -3.2476    3.6950    0.0000 C   0  0  0  0  0  0  0  0  0  0  0  0
    3.2481    1.4458    0.0000 C   0  0  0  0  0  0  0  0  0  0  0  0
    1.9481   -0.8058    0.0000 C   0  0  0  0  0  0  0  0  0  0  0  0
   -3.2481    2.1942    0.0000 C   0  0  0  0  0  0  0  0  0  0  0  0
   -1.9481    4.4458    0.0000 C   0  0  0  0  0  0  0  0  0  0  0  0
    1.9490    2.1958    0.0000 C   0  0  0  0  0  0  0  0  0  0  0  0
    0.6490   -0.0558    0.0000 C   0  0  0  0  0  0  0  0  0  0  0  0
   -1.9490    1.4442    0.0000 C   0  0  0  0  0  0  0  0  0  0  0  0
   -0.6490    3.6958    0.0000 C   0  0  0  0  0  0  0  0  0  0  0  0
    0.6495    1.4450    0.0000 C   0  0  0  0  0  0  0  0  0  0  0  0
   -0.6495    2.1950    0.0000 C   0  0  0  0  0  0  0  0  0  0  0  0
  3  1  2  0
  4  1  1  0
  5  2  1  0
  6  2  1  0
  7  3  1  0
  8  4  2  0
  9  5  1  0
 10  6  1  0
 11  7  2  0
 11  8  1  0
 12  9  1  0
 12 10  1  0
 12 11  1  0
M  END
>  <NAME>  (784) 
CYCLOHEXYLBENZENE

>  <SYNONYMS>  (784) 


>  <SPECTRUM TYPE>  (784) 
MS1

>  <INSTRUMENT TYPE>  (784) 
EI-B

>  <INSTRUMENT>  (784) 
JEOL JMS-D-300

>  <ION MODE>  (784) 
P

>  <INCHIKEY>  (784) 
IGARGHRYKHJQSM-UHFFFAOYSA-N

>  <FORMULA>  (784) 
C12H16

>  <EXACT MASS>  (784) 
160.125200512

>  <MW>  (784) 
160

>  <ID>  (784) 
JP010938

>  <CONTRIBUTOR>  (784) 
University of Tokyo Team, {Faculty of Engineering, University of Tokyo

>  <COMMENT>  (784) 
SMILES=C(C2)CCC(C2)c(c1)cccc1
InChI=InChI=1S/C12H16/c1-3-7-11(8-4-1)12-9-5-2-6-10-12/h1,3-4,7-8,12H,2,5-6,9-10H2
computed SMILES=C=1C=CC(=CC1)C2CCCCC2
accession=JP010938
date=2016.01.19 (Created 2008.10.21, modified 2011.05.06)
author=KURARAY CO., LTD.
license=CC BY-NC-SA
exact mass=160.1252
ionization energy=70 eV
ion type=[M]+*
computed spectral entropy=2.4062318427544587
computed normalized entropy=0.8172123313744658
SPLASH=splash10-0i03-3900000000-7ee94bc25e5f347e612d
submitter=submitter = University of Tokyo Team (Faculty of Engineering, University of Tokyo)
MoNA Rating=3.75

>  <NUM PEAKS>  (784) 
19

>  <MASS SPECTRAL PEAKS>  (784) 
41 10.4
57 8.5
65 5.6
67 7.9
69 5.9
77 7.2
78 7.8
82 4.5
91 51.8
92 20.9
103 7.3
104 99.99
105 15
115 12.4
117 80.4
118 15.3
131 10
160 74.2
161 10.4

$$$$

     RDKit          2D

 11 10  0  0  0  0  0  0  0  0999 V2000
    0.6495    3.3750    0.0000 C   0  0  0  0  0  0  0  0  0  0  0  0
   -3.2476    5.6250    0.0000 C   0  0  0  0  0  0  0  0  0  0  0  0
   -4.5466    4.8750    0.0000 C   0  0  0  0  0  0  0  0  0  0  0  0
   -1.9486    4.8750    0.0000 C   0  0  0  0  0  0  0  0  0  0  0  0
   -5.8457    5.6250    0.0000 C   0  0  0  0  0  0  0  0  0  0  0  0
   -0.6495    5.6250    0.0000 C   0  0  0  0  0  0  0  0  0  0  0  0
   -7.1447    4.8750    0.0000 C   0  0  0  0  0  0  0  0  0  0  0  0
    1.9486    5.6250    0.0000 C   0  0  0  0  0  0  0  0  0  0  0  0
    0.6495    4.8750    0.0000 C   0  0  0  0  0  0  0  0  0  0  0  0
   -8.4437    5.6250    0.0000 O   0  0  0  0  0  0  0  0  0  0  0  0
    3.2476    4.8750    0.0000 O   0  0  0  0  0  0  0  0  0  0  0  0
  3  2  1  0
  4  2  1  0
  5  3  1  0
  6  4  1  0
  7  5  1  0
  9  1  1  0
  9  6  1  0
  9  8  1  0
 10  7  1  0
 11  8  1  0
M  END
>  <NAME>  (785) 
2-METHYL-1,8-OCTANEDIOL

>  <SYNONYMS>  (785) 


>  <SPECTRUM TYPE>  (785) 
MS1

>  <INSTRUMENT TYPE>  (785) 
EI-B

>  <INSTRUMENT>  (785) 
JEOL JMS-D-300

>  <ION MODE>  (785) 
P

>  <INCHIKEY>  (785) 
SDQROPCSKIYYAV-UHFFFAOYSA-N

>  <FORMULA>  (785) 
C9H20O2

>  <EXACT MASS>  (785) 
160.14632988

>  <MW>  (785) 
160

>  <ID>  (785) 
JP010937

>  <CONTRIBUTOR>  (785) 
University of Tokyo Team, {Faculty of Engineering, University of Tokyo

>  <COMMENT>  (785) 
SMILES=OCCCCCCC(C)CO
InChI=InChI=1S/C9H20O2/c1-9(8-11)6-4-2-3-5-7-10/h9-11H,2-8H2,1H3
computed SMILES=OCCCCCCC(C)CO
accession=JP010937
date=2016.01.19 (Created 2008.10.21, modified 2011.05.06)
author=KURARAY CO., LTD.
license=CC BY-NC-SA
exact mass=160.14633
ionization energy=70 eV
ion type=[M]+*
computed spectral entropy=3.013935089337534
computed normalized entropy=0.914467314940695
SPLASH=splash10-067l-9000000000-961e6d2963b17608493c
submitter=submitter = University of Tokyo Team (Faculty of Engineering, University of Tokyo)
MoNA Rating=3.75

>  <NUM PEAKS>  (785) 
27

>  <MASS SPECTRAL PEAKS>  (785) 
27 9.4
29 17.5
31 25.9
39 8.4
41 51.3
42 18.2
43 26
44 0.5
45 6.8
54 13.6
55 82.5
56 36.7
57 24
67 23.7
68 29.2
69 99.99
70 42.9
71 13.3
81 22.1
82 34.1
83 35.7
84 18.8
85 9.4
95 13
96 11.7
97 11.5
112 24.1

$$$$

     RDKit          2D

 11 10  0  0  0  0  0  0  0  0999 V2000
   -3.2476    6.3750    0.0000 C   0  0  0  0  0  0  0  0  0  0  0  0
   -1.9486    5.6250    0.0000 C   0  0  0  0  0  0  0  0  0  0  0  0
   -4.5466    5.6250    0.0000 C   0  0  0  0  0  0  0  0  0  0  0  0
   -0.6495    6.3750    0.0000 C   0  0  0  0  0  0  0  0  0  0  0  0
   -5.8457    6.3750    0.0000 C   0  0  0  0  0  0  0  0  0  0  0  0
    0.6495    5.6250    0.0000 C   0  0  0  0  0  0  0  0  0  0  0  0
   -7.1447    5.6250    0.0000 C   0  0  0  0  0  0  0  0  0  0  0  0
    1.9486    6.3750    0.0000 C   0  0  0  0  0  0  0  0  0  0  0  0
   -8.4437    6.3750    0.0000 C   0  0  0  0  0  0  0  0  0  0  0  0
    3.2476    5.6250    0.0000 O   0  0  0  0  0  0  0  0  0  0  0  0
   -9.7428    5.6250    0.0000 O   0  0  0  0  0  0  0  0  0  0  0  0
  2  1  1  0
  3  1  1  0
  4  2  1  0
  5  3  1  0
  6  4  1  0
  7  5  1  0
  8  6  1  0
  9  7  1  0
 10  8  1  0
 11  9  1  0
M  END
>  <NAME>  (786) 
1,9-NONANDIOL

>  <SYNONYMS>  (786) 


>  <SPECTRUM TYPE>  (786) 
MS1

>  <INSTRUMENT TYPE>  (786) 
EI-B

>  <INSTRUMENT>  (786) 
JEOL JMS-D-300

>  <ION MODE>  (786) 
P

>  <INCHIKEY>  (786) 
ALVZNPYWJMLXKV-UHFFFAOYSA-N

>  <FORMULA>  (786) 
C9H20O2

>  <EXACT MASS>  (786) 
160.14632988

>  <MW>  (786) 
160

>  <ID>  (786) 
JP010936

>  <CONTRIBUTOR>  (786) 
University of Tokyo Team, {Faculty of Engineering, University of Tokyo

>  <COMMENT>  (786) 
SMILES=OCCCCCCCCCO
InChI=InChI=1S/C9H20O2/c10-8-6-4-2-1-3-5-7-9-11/h10-11H,1-9H2
computed SMILES=OCCCCCCCCCO
accession=JP010936
date=2016.01.19 (Created 2008.10.21, modified 2011.05.06)
author=KURARAY CO., LTD.
license=CC BY-NC-SA
exact mass=160.14633
ionization energy=70 eV
ion type=[M]+*
computed spectral entropy=3.2552578171829722
computed normalized entropy=0.8654838128927116
SPLASH=splash10-0159-9000000000-e729c569a5dcccd61bcb
submitter=submitter = University of Tokyo Team (Faculty of Engineering, University of Tokyo)
MoNA Rating=3.75

>  <NUM PEAKS>  (786) 
43

>  <MASS SPECTRAL PEAKS>  (786) 
27 13.9
29 23.1
31 44.9
39 15
40 3.6
41 76.8
42 31.9
43 40.3
44 12
45 8.7
53 8.4
54 65.7
55 91.7
56 41.6
57 41.1
58 4.5
66 7.8
67 95.4
68 99.99
69 66.9
70 28.6
71 19.8
72 4.9
73 7.8
79 3.6
80 1.3
81 81.8
82 89
83 41.6
84 20.8
85 17.5
86 3.9
94 1.4
95 56.5
96 56.4
97 8.1
98 2.6
99 9.7
109 4.7
110 1.3
111 0.5
112 10.7
113 1.4

$$$$

     RDKit          2D

 10  9  0  0  0  0  0  0  0  0999 V2000
    2.5981    4.5000    0.0000 C   0  0  0  0  0  0  0  0  0  0  0  0
   -3.8971    6.7500    0.0000 C   0  0  0  0  0  0  0  0  0  0  0  0
    1.2990    5.2500    0.0000 C   0  0  0  0  0  0  0  0  0  0  0  0
   -5.1962    4.5000    0.0000 C   0  0  0  0  0  0  0  0  0  0  0  0
   -2.5981    4.5000    0.0000 C   0  0  0  0  0  0  0  0  0  0  0  0
   -6.4952    5.2500    0.0000 C   0  0  0  0  0  0  0  0  0  0  0  0
   -1.2990    5.2500    0.0000 C   0  0  0  0  0  0  0  0  0  0  0  0
   -3.8971    5.2500    0.0000 C   0  0  0  0  0  0  0  0  0  0  0  0
   -7.7942    4.5000    0.0000 Cl  0  0  0  0  0  0  0  0  0  0  0  0
    0.0000    4.5000    0.0000 O   0  0  0  0  0  0  0  0  0  0  0  0
  3  1  1  0
  4  6  2  0
  7  5  1  0
  8  2  1  0
  8  4  1  0
  5  8  2  0
  9  6  1  0
 10  3  1  0
 10  7  1  0
M  END
>  <NAME>  (787) 
1-CHLORO-5-ETHOXY-3-METHYL-1,3-PENTADIENE

>  <SYNONYMS>  (787) 


>  <SPECTRUM TYPE>  (787) 
MS1

>  <INSTRUMENT TYPE>  (787) 
EI-B

>  <INSTRUMENT>  (787) 
JEOL JMS-D-300

>  <ION MODE>  (787) 
P

>  <INCHIKEY>  (787) 
DFOBSVPZOINBQL-HLQBBKRNSA-N

>  <FORMULA>  (787) 
C8H13ClO

>  <EXACT MASS>  (787) 
160.065492716

>  <MW>  (787) 
160

>  <ID>  (787) 
JP010935

>  <CONTRIBUTOR>  (787) 
University of Tokyo Team, {Faculty of Engineering, University of Tokyo

>  <COMMENT>  (787) 
SMILES=CCOCC=C(C)C=CCl
InChI=InChI=1S/C8H13ClO/c1-3-10-7-5-8(2)4-6-9/h4-6H,3,7H2,1-2H3/b6-4+,8-5+
computed SMILES=ClC=CC(=CCOCC)C
accession=JP010935
date=2016.01.19 (Created 2008.10.21, modified 2011.05.06)
author=KURARAY CO., LTD.
license=CC BY-NC-SA
exact mass=160.06549
ionization energy=70 eV
ion type=[M]+*
computed spectral entropy=2.392256081513569
computed normalized entropy=0.7527424673142353
SPLASH=splash10-00l2-9200000000-255d68167ede7f6572ac
submitter=submitter = University of Tokyo Team (Faculty of Engineering, University of Tokyo)
MoNA Rating=3.75

>  <NUM PEAKS>  (787) 
24

>  <MASS SPECTRAL PEAKS>  (787) 
27 9.3
28 0.9
29 4.5
39 5.5
41 2.9
43 12.7
45 99.99
51 5.5
53 8.7
55 0.8
65 5.9
73 7.7
75 3
77 9.6
79 12.7
80 4
81 69.4
82 3
89 5
91 3.4
115 4.4
116 45.3
117 4.9
118 15.6

$$$$

     RDKit          2D

 11 10  0  0  0  0  0  0  0  0999 V2000
   -7.4695    3.9375    0.0000 C   0  0  0  0  0  0  0  0  0  0  0  0
   -6.1704    6.1875    0.0000 C   0  0  0  0  0  0  0  0  0  0  0  0
    1.6238    3.1875    0.0000 C   0  0  0  0  0  0  0  0  0  0  0  0
   -6.1704    3.1875    0.0000 C   0  0  0  0  0  0  0  0  0  0  0  0
   -4.8714    5.4375    0.0000 C   0  0  0  0  0  0  0  0  0  0  0  0
   -3.5724    3.1875    0.0000 C   0  0  0  0  0  0  0  0  0  0  0  0
   -2.2733    3.9375    0.0000 C   0  0  0  0  0  0  0  0  0  0  0  0
    0.3248    3.9375    0.0000 C   0  0  0  0  0  0  0  0  0  0  0  0
   -4.8714    3.9375    0.0000 N   0  0  0  0  0  0  0  0  0  0  0  0
    0.3248    5.4375    0.0000 O   0  0  0  0  0  0  0  0  0  0  0  0
   -0.9743    3.1875    0.0000 O   0  0  0  0  0  0  0  0  0  0  0  0
  4  1  1  0
  5  2  1  0
  7  6  1  0
  8  3  1  0
  9  4  1  0
  9  5  1  0
  9  6  1  0
 10  8  2  0
 11  7  1  0
 11  8  1  0
M  END
>  <NAME>  (788) 
2-DIETHYLAMINOETHYL ACETATE

>  <SYNONYMS>  (788) 


>  <SPECTRUM TYPE>  (788) 
MS1

>  <INSTRUMENT TYPE>  (788) 
EI-B

>  <INSTRUMENT>  (788) 
JEOL JMS-D-300

>  <ION MODE>  (788) 
P

>  <INCHIKEY>  (788) 
IDIFJUBLWASPDU-UHFFFAOYSA-N

>  <FORMULA>  (788) 
C8H17NO2

>  <EXACT MASS>  (788) 
159.125928784

>  <MW>  (788) 
159

>  <ID>  (788) 
JP010934

>  <CONTRIBUTOR>  (788) 
University of Tokyo Team, {Faculty of Engineering, University of Tokyo

>  <COMMENT>  (788) 
SMILES=CCN(CC)CCOC(C)=O
InChI=InChI=1S/C8H17NO2/c1-4-9(5-2)6-7-11-8(3)10/h4-7H2,1-3H3
computed SMILES=O=C(OCCN(CC)CC)C
accession=JP010934
date=2016.01.19 (Created 2008.10.21, modified 2011.05.06)
author=KURARAY CO., LTD.
license=CC BY-NC-SA
exact mass=159.12593
ionization energy=70 eV
ion type=[M]+*
computed spectral entropy=2.263060991729761
computed normalized entropy=0.7433221590647862
SPLASH=splash10-000i-9000000000-07fce86928ac913f7f53
submitter=submitter = University of Tokyo Team (Faculty of Engineering, University of Tokyo)
MoNA Rating=3.75

>  <NUM PEAKS>  (788) 
21

>  <MASS SPECTRAL PEAKS>  (788) 
27 3.3
29 5.8
30 9.3
42 9.2
43 18.4
44 5.3
56 9.6
57 1.8
58 21.5
70 2.8
71 2.6
72 3.5
84 5.4
86 99.99
87 36.3
88 1.9
99 6
100 6
116 1.9
144 2.9
159 5.2

$$$$

     RDKit          2D

 11 10  0  0  0  0  0  0  0  0999 V2000
   -3.2476    6.3750    0.0000 C   0  0  0  0  0  0  0  0  0  0  0  0
   -1.9486    5.6250    0.0000 C   0  0  0  0  0  0  0  0  0  0  0  0
   -4.5466    5.6250    0.0000 C   0  0  0  0  0  0  0  0  0  0  0  0
   -0.6495    6.3750    0.0000 C   0  0  0  0  0  0  0  0  0  0  0  0
   -5.8457    6.3750    0.0000 C   0  0  0  0  0  0  0  0  0  0  0  0
    0.6495    5.6250    0.0000 C   0  0  0  0  0  0  0  0  0  0  0  0
   -7.1447    5.6250    0.0000 C   0  0  0  0  0  0  0  0  0  0  0  0
    1.9486    6.3750    0.0000 C   0  0  0  0  0  0  0  0  0  0  0  0
   -8.4437    6.3750    0.0000 C   0  0  0  0  0  0  0  0  0  0  0  0
    3.2476    5.6250    0.0000 O   0  0  0  0  0  0  0  0  0  0  0  0
   -9.7428    5.6250    0.0000 O   0  0  0  0  0  0  0  0  0  0  0  0
  2  1  1  0
  3  1  1  0
  4  2  1  0
  5  3  1  0
  4  6  2  0
  7  5  1  0
  8  6  1  0
  9  7  1  0
 10  8  1  0
 11  9  2  0
M  END
>  <NAME>  (789) 
9-HYDROXY-7-NONANAL

>  <SYNONYMS>  (789) 


>  <SPECTRUM TYPE>  (789) 
MS1

>  <INSTRUMENT TYPE>  (789) 
EI-B

>  <INSTRUMENT>  (789) 
JEOL JMS-D-300

>  <ION MODE>  (789) 
P

>  <INCHIKEY>  (789) 
FWMKRIYREKTLSC-GQCTYLIASA-N

>  <FORMULA>  (789) 
C9H16O2

>  <EXACT MASS>  (789) 
156.115029752

>  <MW>  (789) 
156

>  <ID>  (789) 
JP010933

>  <CONTRIBUTOR>  (789) 
University of Tokyo Team, {Faculty of Engineering, University of Tokyo

>  <COMMENT>  (789) 
SMILES=OCC=CCCCCCC=O
InChI=InChI=1S/C9H16O2/c10-8-6-4-2-1-3-5-7-9-11/h4,6,9-10H,1-3,5,7-8H2/b6-4+
computed SMILES=O=CCCCCCC=CCO
accession=JP010933
date=2016.01.19 (Created 2008.10.21, modified 2011.05.06)
author=KURARAY CO., LTD.
license=CC BY-NC-SA
exact mass=156.11503
ionization energy=70 eV
ion type=[M]+*
computed spectral entropy=3.4482640648499694
computed normalized entropy=0.8860285934897889
SPLASH=splash10-0a6u-9000000000-c5edda4f4220a2ad764d
submitter=submitter = University of Tokyo Team (Faculty of Engineering, University of Tokyo)
MoNA Rating=3.75

>  <NUM PEAKS>  (789) 
49

>  <MASS SPECTRAL PEAKS>  (789) 
27 25.2
29 38.9
31 13.8
39 22.3
41 56
42 13.4
43 33.5
44 20.2
45 5.5
51 2.3
53 12
54 33.4
55 43.3
56 6.5
57 99.99
58 8.1
65 2.9
66 5.9
67 45.6
68 19.1
69 18.6
70 20.1
71 14.1
72 2.3
77 3.6
78 3
79 39.3
80 9.6
81 26.2
82 17.8
83 21.2
84 49.5
85 4.7
91 7.8
92 6.5
93 6.5
94 29
95 35.5
96 9.3
97 9.8
98 1.9
105 4.7
107 2
109 9.8
110 4.8
111 1.9
112 2
123 3.1
138 1.9

$$$$

     RDKit          2D

 11 10  0  0  0  0  0  0  0  0999 V2000
   -5.5209    2.8125    0.0000 C   0  0  0  0  0  0  0  0  0  0  0  0
   -0.3248    4.3125    0.0000 C   0  0  0  0  0  0  0  0  0  0  0  0
    0.9743    2.0625    0.0000 C   0  0  0  0  0  0  0  0  0  0  0  0
   -1.9587    3.9616    0.0000 C   0  0  0  0  0  0  0  0  0  0  0  0
   -4.2219    2.0625    0.0000 C   0  0  0  0  0  0  0  0  0  0  0  0
   -1.6238    0.5625    0.0000 C   0  0  0  0  0  0  0  0  0  0  0  0
   -0.3248    2.8125    0.0000 C   0  0  0  0  0  0  0  0  0  0  0  0
   -1.6238    2.0625    0.0000 C   0  0  0  0  0  0  0  0  0  0  0  0
   -2.9228    2.8125    0.0000 C   0  0  0  0  0  0  0  0  0  0  0  0
   -0.3248   -0.1875    0.0000 O   0  0  0  0  0  0  0  0  0  0  0  0
   -3.8870    3.9616    0.0000 O   0  0  0  0  0  0  0  0  0  0  0  0
  5  1  2  0
  7  2  2  0
  7  3  1  0
  8  6  1  0
  8  7  1  0
  9  4  1  0
  9  5  1  0
  9  8  1  0
 10  6  1  0
 11  9  1  0
M  END
>  <NAME>  (790) 
3-HYDROXY-4-HYDROXYMETHYL-3,5-DIMETHYL-1,5-HEXADIENE

>  <SYNONYMS>  (790) 


>  <SPECTRUM TYPE>  (790) 
MS1

>  <INSTRUMENT TYPE>  (790) 
EI-B

>  <INSTRUMENT>  (790) 
JEOL JMS-D-300

>  <ION MODE>  (790) 
P

>  <INCHIKEY>  (790) 
VELVMAHUONHCSK-UHFFFAOYSA-N

>  <FORMULA>  (790) 
C9H16O2

>  <EXACT MASS>  (790) 
156.115029752

>  <MW>  (790) 
156

>  <ID>  (790) 
JP010932

>  <CONTRIBUTOR>  (790) 
University of Tokyo Team, {Faculty of Engineering, University of Tokyo

>  <COMMENT>  (790) 
SMILES=OCC(C(C)=C)C(C)(O)C=C
InChI=InChI=1S/C9H16O2/c1-5-9(4,11)8(6-10)7(2)3/h5,8,10-11H,1-2,6H2,3-4H3
computed SMILES=OCC(C(=C)C)C(O)(C=C)C
accession=JP010932
date=2016.01.19 (Created 2008.10.21, modified 2011.05.06)
author=KURARAY CO., LTD.
license=CC BY-NC-SA
exact mass=156.11503
ionization energy=70 eV
ion type=[M]+*
computed spectral entropy=2.3524907899229306
computed normalized entropy=0.6254628090930847
SPLASH=splash10-01b9-9000000000-cd7787c5c0af6c275f31
submitter=submitter = University of Tokyo Team (Faculty of Engineering, University of Tokyo)
MoNA Rating=3.75

>  <NUM PEAKS>  (790) 
43

>  <MASS SPECTRAL PEAKS>  (790) 
27 5.1
28 1.6
29 3.1
31 1.7
39 5.9
40 2.2
41 11.1
42 1.9
43 24
53 9.1
55 9.2
67 22
68 99.99
69 13.4
70 1.7
71 85.9
72 4.5
77 1.9
79 1
83 1.8
85 2.6
91 2.5
93 2.4
95 5.8
102 0.1
103 0.3
105 1.2
106 0.3
107 1.5
108 0.8
109 0.8
110 0.1
111 0.5
119 0.3
120 0.4
121 0.3
123 2.1
124 0.3
125 0.5
127 0.1
129 0.1
133 0.1
137 0.6

$$$$

     RDKit          2D

 11 11  0  0  0  0  0  0  0  0999 V2000
    1.8127   -2.1596    0.0000 C   0  0  0  0  0  0  0  0  0  0  0  0
    2.7772   -0.4897    0.0000 C   0  0  0  0  0  0  0  0  0  0  0  0
   -2.7772   -0.4897    0.0000 C   0  0  0  0  0  0  0  0  0  0  0  0
   -1.8127   -2.1596    0.0000 C   0  0  0  0  0  0  0  0  0  0  0  0
    1.3000    0.7500    0.0000 C   0  0  0  0  0  0  0  0  0  0  0  0
   -1.3000    0.7500    0.0000 C   0  0  0  0  0  0  0  0  0  0  0  0
   -0.0000    1.5000    0.0000 C   0  0  0  0  0  0  0  0  0  0  0  0
    1.3000   -0.7500    0.0000 C   0  0  0  0  0  0  0  0  0  0  0  0
   -1.3000   -0.7500    0.0000 C   0  0  0  0  0  0  0  0  0  0  0  0
   -0.0000   -1.5000    0.0000 N   0  0  0  0  0  0  0  0  0  0  0  0
    0.0000    3.0000    0.0000 O   0  0  0  0  0  0  0  0  0  0  0  0
  7  5  1  0
  7  6  1  0
  8  1  1  0
  8  2  1  0
  8  5  1  0
  9  3  1  0
  9  4  1  0
  9  6  1  0
 10  8  1  0
 10  9  1  0
 11  7  2  0
M  END
>  <NAME>  (791) 
2,2,6,6-TETRAMETHYL-4-PIPERIDONE

>  <SYNONYMS>  (791) 


>  <SPECTRUM TYPE>  (791) 
MS1

>  <INSTRUMENT TYPE>  (791) 
EI-B

>  <INSTRUMENT>  (791) 
JEOL JMS-D-300

>  <ION MODE>  (791) 
P

>  <INCHIKEY>  (791) 
JWUXJYZVKZKLTJ-UHFFFAOYSA-N

>  <FORMULA>  (791) 
C9H17NO

>  <EXACT MASS>  (791) 
155.131014164

>  <MW>  (791) 
155

>  <ID>  (791) 
JP010931

>  <CONTRIBUTOR>  (791) 
University of Tokyo Team, {Faculty of Engineering, University of Tokyo

>  <COMMENT>  (791) 
SMILES=O=C(C1)CC(C)(C)NC(C)(C)1
InChI=InChI=1S/C9H17NO/c1-8(2)5-7(11)6-9(3,4)10-8/h10H,5-6H2,1-4H3
computed SMILES=O=C1CC(NC(C)(C)C1)(C)C
accession=JP010931
date=2016.01.19 (Created 2008.10.21, modified 2011.05.06)
author=KURARAY CO., LTD.
license=CC BY-NC-SA
exact mass=155.13101
ionization energy=70 eV
ion type=[M]+*
computed spectral entropy=2.575760495677266
computed normalized entropy=0.6982501129996833
SPLASH=splash10-0536-9300000000-7e39d8f6bb4027145493
submitter=submitter = University of Tokyo Team (Faculty of Engineering, University of Tokyo)
MoNA Rating=3.75

>  <NUM PEAKS>  (791) 
40

>  <MASS SPECTRAL PEAKS>  (791) 
27 3.2
29 4.5
30 1.5
39 5.8
40 1.2
41 12.3
42 46.1
43 15.3
51 0.4
53 1.5
54 1
55 18.8
56 12
57 6.7
58 62.6
59 2.1
62 0.9
67 0.4
68 0.5
70 2.5
71 0.2
81 0.4
82 1
83 84.2
84 30
85 1.2
86 0.9
95 0.3
96 1.2
97 0.9
98 19.4
99 2.5
112 7.1
122 0.6
123 0.5
124 1.1
140 99.99
141 9.4
155 8.4
156 0.6

$$$$

     RDKit          2D

 11 10  0  0  0  0  0  0  0  0999 V2000
   -6.8200    5.0625    0.0000 C   0  0  0  0  0  0  0  0  0  0  0  0
   -5.5209    2.8125    0.0000 C   0  0  0  0  0  0  0  0  0  0  0  0
    3.5724    5.0625    0.0000 C   0  0  0  0  0  0  0  0  0  0  0  0
    2.2733    2.8125    0.0000 C   0  0  0  0  0  0  0  0  0  0  0  0
   -4.2219    5.0625    0.0000 C   0  0  0  0  0  0  0  0  0  0  0  0
    0.9743    5.0625    0.0000 C   0  0  0  0  0  0  0  0  0  0  0  0
   -2.9228    4.3125    0.0000 C   0  0  0  0  0  0  0  0  0  0  0  0
   -0.3248    4.3125    0.0000 C   0  0  0  0  0  0  0  0  0  0  0  0
   -5.5209    4.3125    0.0000 C   0  0  0  0  0  0  0  0  0  0  0  0
    2.2733    4.3125    0.0000 C   0  0  0  0  0  0  0  0  0  0  0  0
   -1.6238    5.0625    0.0000 O   0  0  0  0  0  0  0  0  0  0  0  0
  7  5  1  0
  8  6  1  0
  9  1  1  0
  9  2  1  0
  9  5  2  0
 10  3  1  0
 10  4  1  0
 10  6  2  0
 11  7  1  0
 11  8  1  0
M  END
>  <NAME>  (792) 
BIS(3-METHYL-2-BUTENYL) ETHER

>  <SYNONYMS>  (792) 


>  <SPECTRUM TYPE>  (792) 
MS1

>  <INSTRUMENT TYPE>  (792) 
EI-B

>  <INSTRUMENT>  (792) 
JEOL JMS-D-300

>  <ION MODE>  (792) 
P

>  <INCHIKEY>  (792) 
UATRONWBYDQKSQ-UHFFFAOYSA-N

>  <FORMULA>  (792) 
C10H18O

>  <EXACT MASS>  (792) 
154.135765196

>  <MW>  (792) 
154

>  <ID>  (792) 
JP010930

>  <CONTRIBUTOR>  (792) 
University of Tokyo Team, {Faculty of Engineering, University of Tokyo

>  <COMMENT>  (792) 
SMILES=CC(C)=CCOCC=C(C)C
InChI=InChI=1S/C10H18O/c1-9(2)5-7-11-8-6-10(3)4/h5-6H,7-8H2,1-4H3
computed SMILES=O(CC=C(C)C)CC=C(C)C
accession=JP010930
date=2016.01.19 (Created 2008.10.21, modified 2011.05.06)
author=KURARAY CO., LTD.
license=CC BY-NC-SA
exact mass=154.13577
ionization energy=70 eV
ion type=[M]+*
computed spectral entropy=2.515867087502758
computed normalized entropy=0.8139218808752856
SPLASH=splash10-014u-9000000000-a9b9dbe695752cd395c4
submitter=submitter = University of Tokyo Team (Faculty of Engineering, University of Tokyo)
MoNA Rating=3.75

>  <NUM PEAKS>  (792) 
22

>  <MASS SPECTRAL PEAKS>  (792) 
27 9.1
29 16.3
39 11.2
40 1.5
41 88.1
42 10.8
43 6.3
53 8.3
55 23.1
56 2
57 17
67 11.6
68 9.2
69 99.99
70 32.8
71 12.7
83 4.5
85 38.6
86 3.1
110 3.3
139 30.5
140 2.5

$$$$

     RDKit          2D

 11 10  0  0  0  0  0  0  0  0999 V2000
    1.8149    3.2978    0.0000 C   0  0  0  0  0  0  0  0  0  0  0  0
   -5.9793    3.2978    0.0000 C   0  0  0  0  0  0  0  0  0  0  0  0
   -4.6803    5.5478    0.0000 C   0  0  0  0  0  0  0  0  0  0  0  0
   -1.7473    2.1488    0.0000 C   0  0  0  0  0  0  0  0  0  0  0  0
    0.5159    4.0478    0.0000 C   0  0  0  0  0  0  0  0  0  0  0  0
   -3.3812    3.2978    0.0000 C   0  0  0  0  0  0  0  0  0  0  0  0
   -2.0822    4.0478    0.0000 C   0  0  0  0  0  0  0  0  0  0  0  0
    0.1810    2.1488    0.0000 C   0  0  0  0  0  0  0  0  0  0  0  0
   -4.6803    4.0478    0.0000 C   0  0  0  0  0  0  0  0  0  0  0  0
   -0.7831    3.2978    0.0000 C   0  0  0  0  0  0  0  0  0  0  0  0
    1.6582    2.4093    0.0000 O   0  0  0  0  0  0  0  0  0  0  0  0
  5  1  1  0
  7  6  1  0
  9  2  1  0
  9  3  1  0
  9  6  2  0
 10  4  1  0
 10  5  1  0
 10  7  1  0
 10  8  1  0
 11  8  2  0
M  END
>  <NAME>  (793) 
2-ETHYL-2,5-DIMETHYL-4-HEXENAL

>  <SYNONYMS>  (793) 


>  <SPECTRUM TYPE>  (793) 
MS1

>  <INSTRUMENT TYPE>  (793) 
EI-B

>  <INSTRUMENT>  (793) 
JEOL JMS-D-300

>  <ION MODE>  (793) 
P

>  <INCHIKEY>  (793) 
LOQNRQKPDZGEBZ-UHFFFAOYSA-N

>  <FORMULA>  (793) 
C10H18O

>  <EXACT MASS>  (793) 
154.135765196

>  <MW>  (793) 
154

>  <ID>  (793) 
JP010929

>  <CONTRIBUTOR>  (793) 
University of Tokyo Team, {Faculty of Engineering, University of Tokyo

>  <COMMENT>  (793) 
SMILES=CC(C)=CCC(C)(CC)C=O
InChI=InChI=1S/C10H18O/c1-5-10(4,8-11)7-6-9(2)3/h6,8H,5,7H2,1-4H3
computed SMILES=O=CC(C)(CC=C(C)C)CC
ion type=[M]+*
accession=JP010929
date=2016.01.19 (Created 2008.10.21, modified 2011.05.06)
author=KURARAY CO., LTD.
license=CC BY-NC-SA
exact mass=154.13577
ionization energy=70 eV
computed spectral entropy=2.7295176702127897
computed normalized entropy=0.7948537684263222
SPLASH=splash10-01dl-9000000000-b5e3f6cbd7da272c394f
submitter=submitter = University of Tokyo Team (Faculty of Engineering, University of Tokyo)
MoNA Rating=3.75

>  <NUM PEAKS>  (793) 
31

>  <MASS SPECTRAL PEAKS>  (793) 
27 13.3
28 4.2
29 15.2
39 13.1
40 1.9
41 83.4
42 8.8
43 10.8
51 1
53 8.1
55 30.2
56 14.5
57 11.6
67 6.1
68 4.8
69 99.99
70 42.1
71 32.5
72 4.1
81 1.2
83 9.8
84 0.9
86 24.7
95 0.8
97 3.3
99 0.9
107 2
125 11.6
126 23.4
127 1.1
154 1.1

$$$$

     RDKit          2D

 11 10  0  0  0  0  0  0  0  0999 V2000
   -6.8200    5.0625    0.0000 C   0  0  0  0  0  0  0  0  0  0  0  0
   -5.5209    2.8125    0.0000 C   0  0  0  0  0  0  0  0  0  0  0  0
   -2.9228    2.8125    0.0000 C   0  0  0  0  0  0  0  0  0  0  0  0
   -0.3248    4.3125    0.0000 C   0  0  0  0  0  0  0  0  0  0  0  0
    0.9743    5.0625    0.0000 C   0  0  0  0  0  0  0  0  0  0  0  0
   -1.6238    5.0625    0.0000 C   0  0  0  0  0  0  0  0  0  0  0  0
    2.2733    4.3125    0.0000 C   0  0  0  0  0  0  0  0  0  0  0  0
   -4.2219    5.0625    0.0000 C   0  0  0  0  0  0  0  0  0  0  0  0
   -5.5209    4.3125    0.0000 C   0  0  0  0  0  0  0  0  0  0  0  0
   -2.9228    4.3125    0.0000 C   0  0  0  0  0  0  0  0  0  0  0  0
    3.5724    5.0625    0.0000 O   0  0  0  0  0  0  0  0  0  0  0  0
  4  5  2  0
  6  4  1  0
  7  5  1  0
  9  1  1  0
  9  2  1  0
  9  8  1  0
 10  3  1  0
 10  6  1  0
 10  8  1  0
 11  7  2  0
M  END
>  <NAME>  (794) 
5-METHYL-6-ISOPROPYL-2-HEXENAL

>  <SYNONYMS>  (794) 


>  <SPECTRUM TYPE>  (794) 
MS1

>  <INSTRUMENT TYPE>  (794) 
EI-B

>  <INSTRUMENT>  (794) 
JEOL JMS-D-300

>  <ION MODE>  (794) 
P

>  <INCHIKEY>  (794) 
LALGZGJSCVIMDQ-SNAWJCMRSA-N

>  <FORMULA>  (794) 
C10H18O

>  <EXACT MASS>  (794) 
154.135765196

>  <MW>  (794) 
154

>  <ID>  (794) 
JP010928

>  <CONTRIBUTOR>  (794) 
University of Tokyo Team, {Faculty of Engineering, University of Tokyo

>  <COMMENT>  (794) 
SMILES=O=CC=CCC(C)CC(C)C
InChI=InChI=1S/C10H18O/c1-9(2)8-10(3)6-4-5-7-11/h4-5,7,9-10H,6,8H2,1-3H3/b5-4+
computed SMILES=O=CC=CCC(C)CC(C)C
accession=JP010928
date=2016.01.19 (Created 2008.10.21, modified 2011.05.06)
author=KURARAY CO., LTD.
license=CC BY-NC-SA
exact mass=154.13577
ionization energy=70 eV
ion type=[M]+*
computed spectral entropy=3.3157986706747233
computed normalized entropy=0.8312388898949425
SPLASH=splash10-01oy-9300000000-2eeca73257c76be9bc4f
submitter=submitter = University of Tokyo Team (Faculty of Engineering, University of Tokyo)
MoNA Rating=3.75

>  <NUM PEAKS>  (794) 
54

>  <MASS SPECTRAL PEAKS>  (794) 
27 18.8
29 10.8
38 1.4
39 28.1
40 3.9
41 75.9
42 6.1
43 82.9
44 1.1
51 4.5
52 0.4
53 14
54 2.2
55 47.2
56 33.4
57 12.3
58 0.1
59 2.9
65 5.8
66 2.2
67 18.1
68 4.6
69 79.2
70 12
71 4.3
77 8.6
78 1
79 20.2
80 2
81 19.4
82 2.8
83 38.1
84 5.6
85 9.2
91 4.5
92 1
93 17
94 2.3
95 15.6
96 1.9
97 99.99
98 14.7
99 18.8
111 90.6
112 29.8
113 2
121 34.5
122 2.8
123 8.9
125 1
139 66.9
140 6.2
154 37.5
155 4.4

$$$$

     RDKit          2D

 11 10  0  0  0  0  0  0  0  0999 V2000
   -7.4695    3.9375    0.0000 C   0  0  0  0  0  0  0  0  0  0  0  0
    0.3248    5.4375    0.0000 C   0  0  0  0  0  0  0  0  0  0  0  0
    1.6238    3.1875    0.0000 C   0  0  0  0  0  0  0  0  0  0  0  0
   -0.9743    6.1875    0.0000 C   0  0  0  0  0  0  0  0  0  0  0  0
   -6.1704    3.1875    0.0000 C   0  0  0  0  0  0  0  0  0  0  0  0
   -4.8714    3.9375    0.0000 C   0  0  0  0  0  0  0  0  0  0  0  0
   -3.5724    3.1875    0.0000 C   0  0  0  0  0  0  0  0  0  0  0  0
   -0.9743    3.1875    0.0000 C   0  0  0  0  0  0  0  0  0  0  0  0
    0.3248    3.9375    0.0000 C   0  0  0  0  0  0  0  0  0  0  0  0
   -2.2733    3.9375    0.0000 C   0  0  0  0  0  0  0  0  0  0  0  0
   -2.2733    5.4375    0.0000 O   0  0  0  0  0  0  0  0  0  0  0  0
  5  1  1  0
  6  5  1  0
  7  6  1  0
  9  2  2  0
  9  3  1  0
  9  8  1  0
 10  7  1  0
  8 10  2  0
 11  4  1  0
 11 10  1  0
M  END
>  <NAME>  (795) 
4-METHOXY-2-METHYL-1,3-OCTADIENE

>  <SYNONYMS>  (795) 


>  <SPECTRUM TYPE>  (795) 
MS1

>  <INSTRUMENT TYPE>  (795) 
EI-B

>  <INSTRUMENT>  (795) 
JEOL JMS-D-300

>  <ION MODE>  (795) 
P

>  <INCHIKEY>  (795) 
LRUTXLRHMKGBCN-NTMALXAHSA-N

>  <FORMULA>  (795) 
C10H18O

>  <EXACT MASS>  (795) 
154.135765196

>  <MW>  (795) 
154

>  <ID>  (795) 
JP010927

>  <CONTRIBUTOR>  (795) 
University of Tokyo Team, {Faculty of Engineering, University of Tokyo

>  <COMMENT>  (795) 
SMILES=CCCCC(OC)=CC(C)=C
InChI=InChI=1S/C10H18O/c1-5-6-7-10(11-4)8-9(2)3/h8H,2,5-7H2,1,3-4H3/b10-8-
computed SMILES=O(C(=CC(=C)C)CCCC)C
accession=JP010927
date=2016.01.19 (Created 2008.10.21, modified 2011.05.06)
author=KURARAY CO., LTD.
license=CC BY-NC-SA
exact mass=154.13577
ionization energy=70 eV
ion type=[M]+*
computed spectral entropy=3.7720504930240115
computed normalized entropy=0.830245597918115
SPLASH=splash10-004i-9500000000-db784a277187d5eaf6da
submitter=submitter = University of Tokyo Team (Faculty of Engineering, University of Tokyo)
MoNA Rating=3.75

>  <NUM PEAKS>  (795) 
94

>  <MASS SPECTRAL PEAKS>  (795) 
26 0.8
27 16.6
28 93.4
29 16.3
30 0.4
31 2.9
32 26.8
38 1
39 18.1
40 4.2
41 36.6
42 4.3
43 17.6
44 1
45 26.3
50 1.7
51 3.7
52 2.2
53 14.8
54 3.3
55 30.2
56 2.5
57 11.7
58 3.3
59 10.4
63 0.6
65 5.4
66 2
67 20.9
68 3.9
69 13.3
70 1
71 5.7
72 5.2
73 2.3
74 1.3
75 2.1
77 30
78 3.8
79 25.5
80 3.8
81 16.5
82 5.2
83 15.7
84 1.3
85 12.3
86 1.2
87 0.8
91 19.9
92 2
93 41.4
94 4.4
95 14.2
96 3.9
97 28.1
98 5.5
99 4
101 3.9
102 1
103 1
105 2.6
106 0.4
107 13.1
108 1.3
109 4.4
110 5.8
111 32.3
112 10.4
113 1
119 2
120 0.8
121 2
122 2.1
123 5.2
124 1.4
125 99.99
126 9.7
127 0.7
129 7.8
133 32.3
134 2.1
135 10.5
136 0.8
137 1
139 66.6
140 7.2
141 1
153 2.8
154 34.9
155 5.5
162 0.4
163 1.2
177 0.8
178 0.7

$$$$

     RDKit          2D

 11 11  0  0  0  0  0  0  0  0999 V2000
    2.5987    3.0002    0.0000 C   0  0  0  0  0  0  0  0  0  0  0  0
    3.8981    0.7504    0.0000 C   0  0  0  0  0  0  0  0  0  0  0  0
   -1.3000    0.7500    0.0000 C   0  0  0  0  0  0  0  0  0  0  0  0
   -0.0000   -1.5000    0.0000 C   0  0  0  0  0  0  0  0  0  0  0  0
    0.0000    1.5000    0.0000 C   0  0  0  0  0  0  0  0  0  0  0  0
    1.3000   -0.7500    0.0000 C   0  0  0  0  0  0  0  0  0  0  0  0
   -2.5989   -1.5002    0.0000 C   0  0  0  0  0  0  0  0  0  0  0  0
    2.5989    1.5002    0.0000 C   0  0  0  0  0  0  0  0  0  0  0  0
   -1.3000   -0.7500    0.0000 C   0  0  0  0  0  0  0  0  0  0  0  0
    1.3000    0.7500    0.0000 C   0  0  0  0  0  0  0  0  0  0  0  0
   -3.8981   -0.7504    0.0000 O   0  0  0  0  0  0  0  0  0  0  0  0
  5  3  1  0
  6  4  1  0
  8  1  2  0
  8  2  1  0
  9  3  2  0
  9  4  1  0
  9  7  1  0
 10  5  1  0
 10  6  1  0
 10  8  1  0
 11  7  1  0
M  END
>  <NAME>  (796) 
4-(1-METHYLETHENYL)CYCLOHEXENE-1-METHANOL

>  <SYNONYMS>  (796) 


>  <SPECTRUM TYPE>  (796) 
MS1

>  <INSTRUMENT TYPE>  (796) 
EI-B

>  <INSTRUMENT>  (796) 
JEOL JMS-D-300

>  <ION MODE>  (796) 
P

>  <INCHIKEY>  (796) 
NDTYTMIUWGWIMO-UHFFFAOYSA-N

>  <FORMULA>  (796) 
C10H16O

>  <EXACT MASS>  (796) 
152.120115132

>  <MW>  (796) 
152

>  <ID>  (796) 
JP010926

>  <CONTRIBUTOR>  (796) 
University of Tokyo Team, {Faculty of Engineering, University of Tokyo

>  <COMMENT>  (796) 
SMILES=OCC(C1)=CCC(C(C)=C)C1
InChI=InChI=1S/C10H16O/c1-8(2)10-5-3-9(7-11)4-6-10/h3,10-11H,1,4-7H2,2H3
computed SMILES=OCC1=CCC(C(=C)C)CC1
accession=JP010926
date=2016.01.19 (Created 2008.10.21, modified 2011.05.06)
author=KURARAY CO., LTD.
license=CC BY-NC-SA
exact mass=152.12012
ionization energy=70 eV
ion type=[M]+*
computed spectral entropy=3.5147257013533078
computed normalized entropy=0.9128807684651435
SPLASH=splash10-014l-9300000000-f32f7e87d33288c8045d
submitter=submitter = University of Tokyo Team (Faculty of Engineering, University of Tokyo)
MoNA Rating=3.75

>  <NUM PEAKS>  (796) 
47

>  <MASS SPECTRAL PEAKS>  (796) 
27 15.3
28 15.2
29 12.2
30 6.3
31 4.7
39 23.5
40 9.2
41 39.2
42 6.7
43 11.6
51 7.5
53 27.8
55 43.8
56 13.4
57 6
65 10.5
66 7.2
67 65.1
68 99.99
69 15.7
77 26.5
78 8.8
79 68.3
80 11.3
81 17.6
83 19.1
84 30.7
91 46.4
92 35.3
93 61.2
94 31.4
95 16.3
96 5.6
105 30.2
106 52.5
107 9.8
108 6.5
109 9.1
117 4.9
119 64.1
120 7.8
121 28.1
123 7.8
124 6.1
134 43.1
135 6.9
152 19.6

$$$$

     RDKit          2D

 11 11  0  0  0  0  0  0  0  0999 V2000
    2.1818    1.5459    0.0000 C   0  0  0  0  0  0  0  0  0  0  0  0
   -0.5243   -1.3369    0.0000 C   0  0  0  0  0  0  0  0  0  0  0  0
    1.3102   -0.5211    0.0000 C   0  0  0  0  0  0  0  0  0  0  0  0
   -0.3097    2.4968    0.0000 C   0  0  0  0  0  0  0  0  0  0  0  0
   -1.6855    1.8939    0.0000 C   0  0  0  0  0  0  0  0  0  0  0  0
   -2.6319   -0.6055    0.0000 C   0  0  0  0  0  0  0  0  0  0  0  0
   -4.0597   -0.1455    0.0000 C   0  0  0  0  0  0  0  0  0  0  0  0
    0.6900    1.3884    0.0000 C   0  0  0  0  0  0  0  0  0  0  0  0
   -1.5197    0.4010    0.0000 C   0  0  0  0  0  0  0  0  0  0  0  0
   -0.0600    0.0894    0.0000 C   0  0  0  0  0  0  0  0  0  0  0  0
   -5.1719   -1.1520    0.0000 O   0  0  0  0  0  0  0  0  0  0  0  0
  5  4  1  0
  7  6  1  0
  8  1  1  0
  8  4  2  0
  9  5  1  0
  9  6  1  0
 10  2  1  0
 10  3  1  0
 10  8  1  0
 10  9  1  0
 11  7  2  0
M  END
>  <NAME>  (797) 
2,3,3-TRIMETHYLCYCLOPENTENE-4-ACETALDEHYDE

>  <SYNONYMS>  (797) 


>  <SPECTRUM TYPE>  (797) 
MS1

>  <INSTRUMENT TYPE>  (797) 
EI-B

>  <INSTRUMENT>  (797) 
JEOL JMS-D-300

>  <ION MODE>  (797) 
P

>  <INCHIKEY>  (797) 
OGCGGWYLHSJRFY-UHFFFAOYSA-N

>  <FORMULA>  (797) 
C10H16O

>  <EXACT MASS>  (797) 
152.120115132

>  <MW>  (797) 
152

>  <ID>  (797) 
JP010925

>  <CONTRIBUTOR>  (797) 
University of Tokyo Team, {Faculty of Engineering, University of Tokyo

>  <COMMENT>  (797) 
SMILES=O=CCC(C1)C(C)(C)C(C)=C1
InChI=InChI=1S/C10H16O/c1-8-4-5-9(6-7-11)10(8,2)3/h4,7,9H,5-6H2,1-3H3
computed SMILES=O=CCC1CC=C(C)C1(C)C
accession=JP010925
date=2016.01.19 (Created 2008.10.21, modified 2011.05.06)
author=KURARAY CO., LTD.
license=CC BY-NC-SA
exact mass=152.12012
ionization energy=70 eV
ion type=[M]+*
computed spectral entropy=3.0873975294087908
computed normalized entropy=0.785232565684649
SPLASH=splash10-0a4m-9400000000-ce66a68f177fa4f618cc
submitter=submitter = University of Tokyo Team (Faculty of Engineering, University of Tokyo)
MoNA Rating=3.75

>  <NUM PEAKS>  (797) 
51

>  <MASS SPECTRAL PEAKS>  (797) 
27 8.6
28 2.8
29 7.6
49 31.1
51 5.2
52 2.3
53 13.6
54 2.1
55 22.1
56 1.4
57 2.9
62 0.4
63 1.6
65 8.1
66 2
67 42.9
68 4.9
69 11.3
70 1.4
77 21.9
78 4.1
79 17.9
80 4.5
81 29.3
82 3.6
83 3.7
89 0.3
91 30.9
92 5.6
93 81.4
94 15
95 69.1
96 7.7
97 1
103 1
104 0.6
105 4.5
106 1.4
107 17.2
108 99.99
109 64.3
110 6.3
117 0.6
119 11.4
120 0.9
121 1.3
122 0.2
123 2.1
137 5.1
138 0.9
152 3.7

$$$$

     RDKit          2D

 11 12  0  0  0  0  0  0  0  0999 V2000
   -2.6602    1.4980    0.0000 C   0  0  0  0  0  0  0  0  0  0  0  0
   -2.8369   -0.4880    0.0000 C   0  0  0  0  0  0  0  0  0  0  0  0
   -1.8759   -2.1585    0.0000 C   0  0  0  0  0  0  0  0  0  0  0  0
    0.3900   -0.0000    0.0000 C   0  0  0  0  0  0  0  0  0  0  0  0
    1.2300   -0.7500    0.0000 C   0  0  0  0  0  0  0  0  0  0  0  0
   -1.3600    0.7500    0.0000 C   0  0  0  0  0  0  0  0  0  0  0  0
   -0.0700   -1.5000    0.0000 C   0  0  0  0  0  0  0  0  0  0  0  0
   -0.0700    1.5000    0.0000 C   0  0  0  0  0  0  0  0  0  0  0  0
    1.2300    0.7500    0.0000 C   0  0  0  0  0  0  0  0  0  0  0  0
   -1.3600   -0.7500    0.0000 C   0  0  0  0  0  0  0  0  0  0  0  0
    2.5289    1.5002    0.0000 O   0  0  0  0  0  0  0  0  0  0  0  0
  6  1  2  0
  7  4  1  0
  7  5  1  0
  8  4  1  0
  8  6  1  0
  9  5  1  0
  9  8  1  0
 10  2  1  0
 10  3  1  0
 10  6  1  0
 10  7  1  0
 11  9  1  0
M  END
>  <NAME>  (798) 
5,5-DIMETHYL-6-METHYLENEBICYCLO(2.2.1)HEPTAN-2-OL

>  <SYNONYMS>  (798) 


>  <SPECTRUM TYPE>  (798) 
MS1

>  <INSTRUMENT TYPE>  (798) 
EI-B

>  <INSTRUMENT>  (798) 
JEOL JMS-D-300

>  <ION MODE>  (798) 
P

>  <INCHIKEY>  (798) 
CFXJOMGPUADAJE-UHFFFAOYSA-N

>  <FORMULA>  (798) 
C10H16O

>  <EXACT MASS>  (798) 
152.120115132

>  <MW>  (798) 
152

>  <ID>  (798) 
JP010924

>  <CONTRIBUTOR>  (798) 
University of Tokyo Team, {Faculty of Engineering, University of Tokyo

>  <COMMENT>  (798) 
SMILES=OC(C1)C(C2)C(=C)C(C)(C)C12
InChI=InChI=1S/C10H16O/c1-6-8-4-7(5-9(8)11)10(6,2)3/h7-9,11H,1,4-5H2,2-3H3
computed SMILES=OC1CC2CC1C(=C)C2(C)C
accession=JP010924
date=2016.01.19 (Created 2008.10.21, modified 2011.05.06)
author=KURARAY CO., LTD.
license=CC BY-NC-SA
exact mass=152.12012
ionization energy=70 eV
ion type=[M]+*
computed spectral entropy=2.8579616529769973
computed normalized entropy=0.8038486256616277
SPLASH=splash10-0a4l-9800000000-0ac5c85882ed34b01c48
submitter=submitter = University of Tokyo Team (Faculty of Engineering, University of Tokyo)
MoNA Rating=3.75

>  <NUM PEAKS>  (798) 
35

>  <MASS SPECTRAL PEAKS>  (798) 
27 4.6
29 3.5
49 11.5
51 2.3
53 5.6
55 6.3
65 4
66 3.3
67 11.1
68 3
69 5
77 11.7
78 2.1
79 9.6
80 2.1
81 8.2
82 5.1
83 2.9
91 20.3
92 4.6
93 53.2
94 5.3
95 11.7
96 1.7
105 4.7
106 3.5
107 18.9
108 99.99
109 18.2
110 2
119 14.5
121 8.5
123 1.4
134 2.1
137 4

$$$$

     RDKit          2D

 11 12  0  0  0  0  0  0  0  0999 V2000
    1.9500   -0.9000    0.0000 C   0  0  0  0  0  0  0  0  0  0  0  0
    0.6300   -1.6600    0.0000 C   0  0  0  0  0  0  0  0  0  0  0  0
    0.6300    1.3800    0.0000 C   0  0  0  0  0  0  0  0  0  0  0  0
    3.2486    1.3708    0.0000 C   0  0  0  0  0  0  0  0  0  0  0  0
   -2.9400   -0.2300    0.0000 C   0  0  0  0  0  0  0  0  0  0  0  0
    1.9500    0.6200    0.0000 C   0  0  0  0  0  0  0  0  0  0  0  0
   -0.6600   -0.9000    0.0000 C   0  0  0  0  0  0  0  0  0  0  0  0
   -0.6600    0.6200    0.0000 C   0  0  0  0  0  0  0  0  0  0  0  0
    4.5481    0.6216    0.0000 O   0  0  0  0  0  0  0  0  0  0  0  0
   -2.0600   -1.3400    0.0000 O   0  0  0  0  0  0  0  0  0  0  0  0
   -2.0900    1.0600    0.0000 O   0  0  0  0  0  0  0  0  0  0  0  0
  2  1  2  0
  6  1  1  0
  6  3  2  0
  6  4  1  0
  7  2  1  0
  8  3  1  0
  8  7  2  0
  9  4  1  0
 10  5  1  0
 10  7  1  0
 11  5  1  0
 11  8  1  0
M  END
>  <NAME>  (799) 
1,3-BENZODIOXOLE-5-METHANOL

>  <SYNONYMS>  (799) 


>  <SPECTRUM TYPE>  (799) 
MS1

>  <INSTRUMENT TYPE>  (799) 
EI-B

>  <INSTRUMENT>  (799) 
JEOL JMS-D-300

>  <ION MODE>  (799) 
P

>  <INCHIKEY>  (799) 
BHUIUXNAPJIDOG-UHFFFAOYSA-N

>  <FORMULA>  (799) 
C8H8O3

>  <EXACT MASS>  (799) 
152.04734411599998

>  <MW>  (799) 
152

>  <ID>  (799) 
JP010923

>  <CONTRIBUTOR>  (799) 
University of Tokyo Team, {Faculty of Engineering, University of Tokyo

>  <COMMENT>  (799) 
SMILES=OCc(c1)cc(O2)c(OC2)c1
InChI=InChI=1S/C8H8O3/c9-4-6-1-2-7-8(3-6)11-5-10-7/h1-3,9H,4-5H2
computed SMILES=OCC1=CC=C2OCOC2=C1
accession=JP010923
date=2016.01.19 (Created 2008.10.21, modified 2011.05.06)
author=KURARAY CO., LTD.
license=CC BY-NC-SA
exact mass=152.04734
ionization energy=70 eV
ion type=[M]+*
computed spectral entropy=3.0548289179497354
computed normalized entropy=0.8338412760645084
SPLASH=splash10-0udi-6900000000-383ea5b0110656e05ef3
submitter=submitter = University of Tokyo Team (Faculty of Engineering, University of Tokyo)
MoNA Rating=3.75

>  <NUM PEAKS>  (799) 
39

>  <MASS SPECTRAL PEAKS>  (799) 
29 4
31 2.5
38 3.5
39 13.4
40 4.1
50 5
51 10.3
53 5.5
55 2.8
61 2.7
62 5.7
63 10.3
64 3.3
65 27.7
66 10.1
67 2.5
74 2.4
75 7.5
76 2.3
77 15.5
78 1.9
79 2
91 3.9
93 45.3
94 15.8
95 2.3
105 6.8
119 2.3
121 13.3
122 20.6
123 21.8
124 1.9
135 50.9
136 5.7
149 16.1
150 11.7
151 39.1
152 99.99
153 11.9

$$$$

     RDKit          2D

 11 12  0  0  0  0  0  0  0  0999 V2000
   -4.5973    4.6952    0.0000 C   0  0  0  0  0  0  0  0  0  0  0  0
   -3.2981    5.4450    0.0000 C   0  0  0  0  0  0  0  0  0  0  0  0
   -4.5970    3.1944    0.0000 C   0  0  0  0  0  0  0  0  0  0  0  0
   -1.9987    4.6939    0.0000 C   0  0  0  0  0  0  0  0  0  0  0  0
   -3.2976    2.4433    0.0000 C   0  0  0  0  0  0  0  0  0  0  0  0
    0.5996    3.1931    0.0000 C   0  0  0  0  0  0  0  0  0  0  0  0
    3.3995    2.4426    0.0000 C   0  0  0  0  0  0  0  0  0  0  0  0
   -1.9985    3.1931    0.0000 C   0  0  0  0  0  0  0  0  0  0  0  0
    1.8987    2.4431    0.0000 C   0  0  0  0  0  0  0  0  0  0  0  0
   -0.6994    2.4431    0.0000 O   0  0  0  0  0  0  0  0  0  0  0  0
    2.6495    1.1436    0.0000 O   0  0  0  0  0  0  0  0  0  0  0  0
  2  1  2  0
  3  1  1  0
  4  2  1  0
  5  3  2  0
  8  4  2  0
  8  5  1  0
  9  6  1  0
  9  7  1  0
 10  6  1  0
 10  8  1  0
 11  7  1  0
 11  9  1  0
M  END
>  <NAME>  (800) 
3-PHENOXY-1,2-EPOXYPROPANE

>  <SYNONYMS>  (800) 


>  <SPECTRUM TYPE>  (800) 
MS1

>  <INSTRUMENT TYPE>  (800) 
EI-B

>  <INSTRUMENT>  (800) 
JEOL JMS-D-300

>  <ION MODE>  (800) 
P

>  <INCHIKEY>  (800) 
FQYUMYWMJTYZTK-UHFFFAOYSA-N

>  <FORMULA>  (800) 
C9H10O2

>  <EXACT MASS>  (800) 
150.06807956

>  <MW>  (800) 
150

>  <ID>  (800) 
JP010922

>  <CONTRIBUTOR>  (800) 
University of Tokyo Team, {Faculty of Engineering, University of Tokyo

>  <COMMENT>  (800) 
SMILES=c(c2)ccc(c2)OCC(C1)O1
InChI=InChI=1S/C9H10O2/c1-2-4-8(5-3-1)10-6-9-7-11-9/h1-5,9H,6-7H2
computed SMILES=O(C=1C=CC=CC1)CC2OC2
accession=JP010922
date=2016.01.19 (Created 2008.10.21, modified 2011.05.06)
author=KURARAY CO., LTD.
license=CC BY-NC-SA
exact mass=150.06808
ionization energy=70 eV
ion type=[M]+*
computed spectral entropy=2.4867791946610067
computed normalized entropy=0.860366555917041
SPLASH=splash10-0k96-9300000000-7406f98f1d8ddcf30107
submitter=submitter = University of Tokyo Team (Faculty of Engineering, University of Tokyo)
MoNA Rating=3.75

>  <NUM PEAKS>  (800) 
18

>  <MASS SPECTRAL PEAKS>  (800) 
31 36
39 18.9
51 15.9
55 3.1
57 32
65 16.4
66 17.4
77 47.9
78 4.2
79 14.2
91 13.8
94 99.99
95 9.7
107 24.9
119 4.1
120 13.3
150 83.9
151 8.8

$$$$

     RDKit          2D

 11 12  0  0  0  0  0  0  0  0999 V2000
    1.9500   -0.9000    0.0000 C   0  0  0  0  0  0  0  0  0  0  0  0
    0.6300   -1.6600    0.0000 C   0  0  0  0  0  0  0  0  0  0  0  0
    0.6300    1.3800    0.0000 C   0  0  0  0  0  0  0  0  0  0  0  0
    3.2486    1.3708    0.0000 C   0  0  0  0  0  0  0  0  0  0  0  0
   -2.9400   -0.2300    0.0000 C   0  0  0  0  0  0  0  0  0  0  0  0
    1.9500    0.6200    0.0000 C   0  0  0  0  0  0  0  0  0  0  0  0
   -0.6600   -0.9000    0.0000 C   0  0  0  0  0  0  0  0  0  0  0  0
   -0.6600    0.6200    0.0000 C   0  0  0  0  0  0  0  0  0  0  0  0
    4.5481    0.6216    0.0000 O   0  0  0  0  0  0  0  0  0  0  0  0
   -2.0600   -1.3400    0.0000 O   0  0  0  0  0  0  0  0  0  0  0  0
   -2.0900    1.0600    0.0000 O   0  0  0  0  0  0  0  0  0  0  0  0
  2  1  2  0
  6  1  1  0
  6  3  2  0
  6  4  1  0
  7  2  1  0
  8  3  1  0
  8  7  2  0
  9  4  2  0
 10  5  1  0
 10  7  1  0
 11  5  1  0
 11  8  1  0
M  END
>  <NAME>  (801) 
1,3-BENZODIOXOLE-5-CARBOXALDEHYDE

>  <SYNONYMS>  (801) 
HELIOTROPIN

>  <SPECTRUM TYPE>  (801) 
MS1

>  <INSTRUMENT TYPE>  (801) 
EI-B

>  <INSTRUMENT>  (801) 
JEOL JMS-D-300

>  <ION MODE>  (801) 
P

>  <INCHIKEY>  (801) 
SATCULPHIDQDRE-UHFFFAOYSA-N

>  <FORMULA>  (801) 
C8H6O3

>  <EXACT MASS>  (801) 
150.03169405199998

>  <MW>  (801) 
150

>  <ID>  (801) 
JP010921

>  <CONTRIBUTOR>  (801) 
University of Tokyo Team, {Faculty of Engineering, University of Tokyo

>  <COMMENT>  (801) 
SMILES=O=Cc(c1)cc(O2)c(OC2)c1
InChI=InChI=1S/C8H6O3/c9-4-6-1-2-7-8(3-6)11-5-10-7/h1-4H,5H2
computed SMILES=O=CC1=CC=C2OCOC2=C1
accession=JP010921
date=2016.01.19 (Created 2008.10.21, modified 2011.05.06)
author=KURARAY CO., LTD.
license=CC BY-NC-SA
exact mass=150.03169
ionization energy=70 eV
ion type=[M]+*
computed spectral entropy=2.454567713345766
computed normalized entropy=0.7723493195447323
SPLASH=splash10-0gvk-5900000000-8a0279ec82445d96e75a
submitter=submitter = University of Tokyo Team (Faculty of Engineering, University of Tokyo)
MoNA Rating=3.75

>  <NUM PEAKS>  (801) 
24

>  <MASS SPECTRAL PEAKS>  (801) 
29 6.1
37 3.6
38 5.9
39 4.6
50 6.5
51 5.6
53 6.5
61 8.2
62 17.7
63 39.1
64 8.4
65 24.5
66 4.2
74 2.1
79 2.1
91 10.9
92 2.6
119 8.5
120 2.1
121 30.1
122 4.6
149 99.99
150 90.4
151 8.6

$$$$

     RDKit          2D

 10 11  0  0  0  0  0  0  0  0999 V2000
   -2.3100   -0.7500    0.0000 C   0  0  0  0  0  0  0  0  0  0  0  0
   -2.3100    0.7500    0.0000 C   0  0  0  0  0  0  0  0  0  0  0  0
   -1.0100   -1.5000    0.0000 C   0  0  0  0  0  0  0  0  0  0  0  0
   -1.0100    1.5000    0.0000 C   0  0  0  0  0  0  0  0  0  0  0  0
    0.2900   -0.7500    0.0000 C   0  0  0  0  0  0  0  0  0  0  0  0
    0.2900    0.7500    0.0000 C   0  0  0  0  0  0  0  0  0  0  0  0
    2.6000    0.0000    0.0000 C   0  0  0  0  0  0  0  0  0  0  0  0
    1.7200   -1.2100    0.0000 N   0  0  0  0  0  0  0  0  0  0  0  0
    1.7200    1.2100    0.0000 N   0  0  0  0  0  0  0  0  0  0  0  0
    4.1000   -0.0000    0.0000 S   0  0  0  0  0  0  0  0  0  0  0  0
  2  1  2  0
  3  1  1  0
  4  2  1  0
  5  3  2  0
  6  4  2  0
  6  5  1  0
  8  5  1  0
  8  7  2  0
  9  6  1  0
  9  7  1  0
 10  7  1  0
M  END
>  <NAME>  (802) 
2-MERCAPTOBENZIMIDAZOLE

>  <SYNONYMS>  (802) 


>  <SPECTRUM TYPE>  (802) 
MS1

>  <INSTRUMENT TYPE>  (802) 
EI-B

>  <INSTRUMENT>  (802) 
JEOL JMS-D-300

>  <ION MODE>  (802) 
P

>  <INCHIKEY>  (802) 
YHMYGUUIMTVXNW-UHFFFAOYSA-N

>  <FORMULA>  (802) 
C7H6N2S

>  <EXACT MASS>  (802) 
150.025169192

>  <MW>  (802) 
150

>  <ID>  (802) 
JP010920

>  <CONTRIBUTOR>  (802) 
University of Tokyo Team, {Faculty of Engineering, University of Tokyo

>  <COMMENT>  (802) 
SMILES=C1=CC=C2C(=C1)NC(=S)N2
InChI=InChI=1S/C7H6N2S/c10-7-8-5-3-1-2-4-6(5)9-7/h1-4H,(H2,8,9,10)
computed SMILES=SC1=NC=2C=CC=CC2N1
accession=JP010920
date=2016.01.19 (Created 2008.10.21, modified 2011.05.06)
author=KURARAY CO., LTD.
license=CC BY-NC-SA
exact mass=150.02517
ionization energy=70 eV
ion type=[M]+*
computed spectral entropy=2.274397113031848
computed normalized entropy=0.7470456071700213
SPLASH=splash10-0udi-3900000000-f30a83e28ad63dfdd14c
submitter=submitter = University of Tokyo Team (Faculty of Engineering, University of Tokyo)
MoNA Rating=3.75

>  <NUM PEAKS>  (802) 
21

>  <MASS SPECTRAL PEAKS>  (802) 
39 3.9
51 2.3
52 3.4
63 6.8
64 5.2
65 7.8
75 10.4
78 2.9
90 4.2
91 4.6
92 5.2
96 5.7
105 3.4
106 7.4
118 8.9
122 8.7
123 5.8
149 6.5
150 99.99
151 9.4
152 5.9

$$$$

     RDKit          2D

  9  8  0  0  0  0  0  0  0  0999 V2000
   -5.3298    4.4228    0.0000 C   0  0  0  0  0  0  0  0  0  0  0  0
   -0.1336    4.4228    0.0000 C   0  0  0  0  0  0  0  0  0  0  0  0
    1.1654    3.6728    0.0000 C   0  0  0  0  0  0  0  0  0  0  0  0
   -1.4327    3.6728    0.0000 C   0  0  0  0  0  0  0  0  0  0  0  0
    2.4644    2.9228    0.0000 N   0  0  0  0  0  0  0  0  0  0  0  0
   -1.7675    5.5719    0.0000 O   0  0  0  0  0  0  0  0  0  0  0  0
   -3.6959    5.5719    0.0000 O   0  0  0  0  0  0  0  0  0  0  0  0
   -4.0307    3.6728    0.0000 O   0  0  0  0  0  0  0  0  0  0  0  0
   -2.7317    4.4228    0.0000 S   0  0  0  0  0  0  0  0  0  0  0  0
  3  2  1  0
  4  2  1  0
  5  3  3  0
  8  1  1  0
  9  4  1  0
  9  6  2  0
  9  7  2  0
  9  8  1  0
M  END
>  <NAME>  (803) 
METHYL 2-CYANOETHANESULFONATE

>  <SYNONYMS>  (803) 


>  <SPECTRUM TYPE>  (803) 
MS1

>  <INSTRUMENT TYPE>  (803) 
EI-B

>  <INSTRUMENT>  (803) 
JEOL JMS-D-300

>  <ION MODE>  (803) 
P

>  <INCHIKEY>  (803) 
VYWNBUBFYLAECR-UHFFFAOYSA-N

>  <FORMULA>  (803) 
C4H7NO3S

>  <EXACT MASS>  (803) 
149.01466408399997

>  <MW>  (803) 
149

>  <ID>  (803) 
JP010919

>  <CONTRIBUTOR>  (803) 
University of Tokyo Team, {Faculty of Engineering, University of Tokyo

>  <COMMENT>  (803) 
SMILES=N#CCCS(=O)(=O)OC
InChI=InChI=1S/C4H7NO3S/c1-8-9(6,7)4-2-3-5/h2,4H2,1H3
computed SMILES=N#CCCS(=O)(=O)OC
accession=JP010919
ionization energy=70 eV
date=2016.01.19 (Created 2008.10.21, modified 2011.05.06)
author=KURARAY CO., LTD.
license=CC BY-NC-SA
exact mass=149.01466
ion type=[M]+*
computed spectral entropy=2.334561672902654
computed normalized entropy=0.6566337901456136
SPLASH=splash10-004i-9000000000-7cc7a4ce2c9b8cf3d977
submitter=submitter = University of Tokyo Team (Faculty of Engineering, University of Tokyo)
MoNA Rating=3.75

>  <NUM PEAKS>  (803) 
35

>  <MASS SPECTRAL PEAKS>  (803) 
26 2.7
27 4.3
28 9.6
29 2.8
31 1
32 0.9
39 0.4
41 0.5
42 6.3
43 19.9
44 0.9
45 0.2
48 1.4
51 1.1
52 3.5
53 7.5
54 27.2
55 1.1
63 0.9
64 1.1
65 3.8
68 0.4
70 8.4
78 0.3
79 99.99
80 4.5
81 5.6
94 1.7
96 1
97 2.5
106 3.4
123 0.4
134 14.7
135 0.4
136 0.4

$$$$

     RDKit          2D

 10  9  0  0  0  0  0  0  0  0999 V2000
   -0.8062    4.5241    0.0000 C   0  0  0  0  0  0  0  0  0  0  0  0
    2.1267    2.6250    0.0000 C   0  0  0  0  0  0  0  0  0  0  0  0
   -4.3685    3.3750    0.0000 C   0  0  0  0  0  0  0  0  0  0  0  0
   -4.2118    4.2636    0.0000 C   0  0  0  0  0  0  0  0  0  0  0  0
   -0.4713    2.6250    0.0000 C   0  0  0  0  0  0  0  0  0  0  0  0
   -1.7704    3.3750    0.0000 C   0  0  0  0  0  0  0  0  0  0  0  0
   -0.4713    1.1250    0.0000 O   0  0  0  0  0  0  0  0  0  0  0  0
    0.8277    3.3750    0.0000 O   0  0  0  0  0  0  0  0  0  0  0  0
   -3.0694    2.6250    0.0000 O   0  0  0  0  0  0  0  0  0  0  0  0
   -2.7346    4.5241    0.0000 O   0  0  0  0  0  0  0  0  0  0  0  0
  6  1  1  0
  6  5  1  0
  7  5  2  0
  8  2  1  0
  8  5  1  0
  9  3  1  0
  9  6  1  0
 10  4  1  0
 10  6  1  0
M  END
>  <NAME>  (804) 
METHYL 2,2-DIMETHOXYPROPIONATE

>  <SYNONYMS>  (804) 


>  <SPECTRUM TYPE>  (804) 
MS1

>  <INSTRUMENT TYPE>  (804) 
EI-B

>  <INSTRUMENT>  (804) 
JEOL JMS-D-300

>  <ION MODE>  (804) 
P

>  <INCHIKEY>  (804) 
KHQQDBIXHUJARJ-UHFFFAOYSA-N

>  <FORMULA>  (804) 
C6H12O4

>  <EXACT MASS>  (804) 
148.073558864

>  <MW>  (804) 
148

>  <ID>  (804) 
JP010918

>  <CONTRIBUTOR>  (804) 
University of Tokyo Team, {Faculty of Engineering, University of Tokyo

>  <COMMENT>  (804) 
SMILES=COC(=O)C(C)(OC)OC
InChI=InChI=1S/C6H12O4/c1-6(9-3,10-4)5(7)8-2/h1-4H3
computed SMILES=O=C(OC)C(OC)(OC)C
accession=JP010918
date=2016.01.19 (Created 2008.10.21, modified 2011.05.06)
author=KURARAY CO., LTD.
license=CC BY-NC-SA
exact mass=148.07356
ionization energy=70 eV
ion type=[M]+*
computed spectral entropy=2.0328249949860444
computed normalized entropy=0.6483268202692735
SPLASH=splash10-000l-9100000000-bc1e1cfadd1d90a5554f
submitter=submitter = University of Tokyo Team (Faculty of Engineering, University of Tokyo)
MoNA Rating=3.75

>  <NUM PEAKS>  (804) 
23

>  <MASS SPECTRAL PEAKS>  (804) 
27 1.1
28 1.4
29 2.4
31 1.4
42 1.7
43 73.2
44 1.6
45 0.4
47 11.7
55 0.4
57 18.9
58 2.3
59 3.6
75 10.6
85 15.5
86 0.5
87 2.4
89 99.99
90 4.9
91 0.3
117 44.6
118 2.5
133 2.8

$$$$

     RDKit          2D

  9  8  0  0  0  0  0  0  0  0999 V2000
    2.2733    2.0625    0.0000 C   0  0  0  0  0  0  0  0  0  0  0  0
    0.9743    4.3125    0.0000 C   0  0  0  0  0  0  0  0  0  0  0  0
   -4.2219    2.8125    0.0000 C   0  0  0  0  0  0  0  0  0  0  0  0
    0.9743    2.8125    0.0000 C   0  0  0  0  0  0  0  0  0  0  0  0
   -0.3248    2.0625    0.0000 C   0  0  0  0  0  0  0  0  0  0  0  0
   -1.6238    2.8125    0.0000 C   0  0  0  0  0  0  0  0  0  0  0  0
   -0.3248    0.5625    0.0000 Cl  0  0  0  0  0  0  0  0  0  0  0  0
   -1.6238    4.3125    0.0000 O   0  0  0  0  0  0  0  0  0  0  0  0
   -2.9228    2.0625    0.0000 O   0  0  0  0  0  0  0  0  0  0  0  0
  4  1  2  0
  4  2  1  0
  5  4  1  0
  6  5  1  0
  7  5  1  0
  8  6  2  0
  9  3  1  0
  9  6  1  0
M  END
>  <NAME>  (805) 
METHYL 2-CHLORO-3-METHYL-3-BUTENOATE

>  <SYNONYMS>  (805) 


>  <SPECTRUM TYPE>  (805) 
MS1

>  <INSTRUMENT TYPE>  (805) 
EI-B

>  <INSTRUMENT>  (805) 
JEOL JMS-D-300

>  <ION MODE>  (805) 
P

>  <INCHIKEY>  (805) 
FZUVHZZZCYKCFI-UHFFFAOYSA-N

>  <FORMULA>  (805) 
C6H9ClO2

>  <EXACT MASS>  (805) 
148.029107208

>  <MW>  (805) 
148

>  <ID>  (805) 
JP010917

>  <CONTRIBUTOR>  (805) 
University of Tokyo Team, {Faculty of Engineering, University of Tokyo

>  <COMMENT>  (805) 
SMILES=COC(=O)C(Cl)C(C)=C
InChI=InChI=1S/C6H9ClO2/c1-4(2)5(7)6(8)9-3/h5H,1H2,2-3H3
computed SMILES=O=C(OC)C(Cl)C(=C)C
accession=JP010917
date=2016.01.19 (Created 2008.10.21, modified 2011.05.06)
author=KURARAY CO., LTD.
license=CC BY-NC-SA
exact mass=148.02911
ionization energy=70 eV
ion type=[M]+*
computed spectral entropy=3.2083371163135532
computed normalized entropy=0.7714420078675935
SPLASH=splash10-0i00-7900000000-71574d9f6da44138fb70
submitter=submitter = University of Tokyo Team (Faculty of Engineering, University of Tokyo)
MoNA Rating=3.75

>  <NUM PEAKS>  (805) 
64

>  <MASS SPECTRAL PEAKS>  (805) 
26 0.8
27 7.7
29 2.6
30 0.4
31 0.7
36 0.6
37 0.7
38 1.4
39 11.7
40 0.5
41 6.4
42 2.6
43 5.3
44 0.2
45 1.3
49 1.7
50 4
51 7.9
52 3.3
53 54.7
54 5.3
55 5.2
56 0.6
57 0.9
58 2.7
59 23.9
60 0.6
61 1.4
62 0.5
63 2.6
65 0.5
66 0.4
67 5.5
69 3.9
71 1.2
72 0.5
73 12.4
74 1.1
75 1.2
76 1.5
81 7.3
82 5.1
83 4.6
85 4.1
87 2.9
88 10.3
89 36.8
90 5.4
91 11.9
97 2.8
105 1.7
108 1.1
112 0.7
113 99.99
114 11.7
115 2.7
116 43.8
117 53
118 20.1
119 18.3
133 3.5
135 1.1
148 44.8
150 15.7

$$$$

     RDKit          2D

  6  5  0  0  0  0  0  0  0  0999 V2000
    0.0000    0.0000    0.0000 C   0  0  0  0  0  0  0  0  0  0  0  0
    1.2990    2.2500    0.0000 C   0  0  0  0  0  0  0  0  0  0  0  0
   -1.2990    2.2500    0.0000 C   0  0  0  0  0  0  0  0  0  0  0  0
   -1.2990    3.7500    0.0000 C   0  0  0  0  0  0  0  0  0  0  0  0
    0.0000    1.5000    0.0000 C   0  0  0  0  0  0  0  0  0  0  0  0
   -2.5981    4.5000    0.0000 Br  0  0  0  0  0  0  0  0  0  0  0  0
  4  3  1  0
  5  1  2  0
  5  2  1  0
  5  3  1  0
  6  4  1  0
M  END
>  <NAME>  (806) 
4-BROMO-2-METHYL-1-BUTENE

>  <SYNONYMS>  (806) 


>  <SPECTRUM TYPE>  (806) 
MS1

>  <INSTRUMENT TYPE>  (806) 
EI-B

>  <INSTRUMENT>  (806) 
JEOL JMS-D-300

>  <ION MODE>  (806) 
P

>  <INCHIKEY>  (806) 
IZMWJUPSQXIVDN-UHFFFAOYSA-N

>  <FORMULA>  (806) 
C5H9Br

>  <EXACT MASS>  (806) 
147.988762388

>  <MW>  (806) 
148

>  <ID>  (806) 
JP010916

>  <CONTRIBUTOR>  (806) 
University of Tokyo Team, {Faculty of Engineering, University of Tokyo

>  <COMMENT>  (806) 
SMILES=CC(=C)CCBr
InChI=InChI=1S/C5H9Br/c1-5(2)3-4-6/h1,3-4H2,2H3
computed SMILES=BrCCC(=C)C
accession=JP010916
date=2016.01.19 (Created 2008.10.21, modified 2011.05.06)
author=KURARAY CO., LTD.
license=CC BY-NC-SA
exact mass=147.98876
ionization energy=70 eV
ion type=[M]+*
computed spectral entropy=2.348797164909992
computed normalized entropy=0.6717552081954818
SPLASH=splash10-014l-9000000000-b1b07a55f5c8f5e2b345
submitter=submitter = University of Tokyo Team (Faculty of Engineering, University of Tokyo)
MoNA Rating=3.75

>  <NUM PEAKS>  (806) 
33

>  <MASS SPECTRAL PEAKS>  (806) 
26 1.9
27 12.8
28 1.7
29 10.5
32 1.1
37 1.7
38 2.6
39 21.6
40 9.2
41 88.9
42 2.7
50 2
51 3.2
52 0.9
53 14.7
54 2.3
55 31.9
65 1.1
67 8.6
68 3
69 99.99
70 2.9
79 0.7
80 0.6
81 0.5
82 0.7
93 0.7
95 0.9
107 0.5
148 12.1
149 0.6
150 12
151 0.5

$$$$

     RDKit          2D

 16 16  0  0  0  0  0  0  0  0999 V2000
    5.5216    4.2579    0.0000 C   0  0  0  0  0  0  0  0  0  0  0  0
    4.2226    5.0079    0.0000 C   0  0  0  0  0  0  0  0  0  0  0  0
    2.9236    4.2579    0.0000 C   0  0  0  0  0  0  0  0  0  0  0  0
    1.6245    5.0079    0.0000 C   0  0  0  0  0  0  0  0  0  0  0  0
   -8.7678    6.5079    0.0000 C   0  0  0  0  0  0  0  0  0  0  0  0
   -8.7683    5.0071    0.0000 C   0  0  0  0  0  0  0  0  0  0  0  0
   -7.4683    7.2587    0.0000 C   0  0  0  0  0  0  0  0  0  0  0  0
    0.3255    4.2579    0.0000 C   0  0  0  0  0  0  0  0  0  0  0  0
   -7.4692    4.2571    0.0000 C   0  0  0  0  0  0  0  0  0  0  0  0
   -6.1692    6.5087    0.0000 C   0  0  0  0  0  0  0  0  0  0  0  0
   -0.9736    5.0079    0.0000 C   0  0  0  0  0  0  0  0  0  0  0  0
   -4.8707    4.2579    0.0000 C   0  0  0  0  0  0  0  0  0  0  0  0
   -6.1697    5.0079    0.0000 C   0  0  0  0  0  0  0  0  0  0  0  0
   -3.5716    5.0079    0.0000 C   0  0  0  0  0  0  0  0  0  0  0  0
   -3.5716    6.5079    0.0000 O   0  0  0  0  0  0  0  0  0  0  0  0
   -2.2726    4.2579    0.0000 O   0  0  0  0  0  0  0  0  0  0  0  0
  2  1  1  0
  3  2  1  0
  4  3  1  0
  6  5  2  0
  7  5  1  0
  4  8  2  0
  9  6  1  0
 10  7  2  0
 11  8  1  0
 13  9  2  0
 13 10  1  0
 13 12  1  0
 14 12  1  0
 15 14  2  0
 16 11  1  0
 16 14  1  0
M  END
>  <NAME>  (807) 
TRANS-2-HEXENYL PHENYLACETATE

>  <SYNONYMS>  (807) 


>  <SPECTRUM TYPE>  (807) 
MS1

>  <INSTRUMENT TYPE>  (807) 
EI-B

>  <INSTRUMENT>  (807) 
HITACHI M-80B

>  <ION MODE>  (807) 
P

>  <INCHIKEY>  (807) 
BYGAPGDXGHDYGP-XBXARRHUSA-N

>  <FORMULA>  (807) 
C14H18O2

>  <EXACT MASS>  (807) 
218.130679816

>  <MW>  (807) 
218

>  <ID>  (807) 
JP010914

>  <CONTRIBUTOR>  (807) 
University of Tokyo Team, {Faculty of Engineering, University of Tokyo

>  <COMMENT>  (807) 
SMILES=CCCC=CCOC(=O)Cc(c1)cccc1
InChI=InChI=1S/C14H18O2/c1-2-3-4-8-11-16-14(15)12-13-9-6-5-7-10-13/h4-10H,2-3,11-12H2,1H3/b8-4+
computed SMILES=O=C(OCC=CCCC)CC=1C=CC=CC1
accession=JP010914
date=2016.01.19 (Created 2008.10.21, modified 2011.05.06)
author=SODA AROMATIC CO., LTD.
license=CC BY-NC-SA
exact mass=218.13068
ionization energy=70 eV
ion type=[M]+*
computed spectral entropy=2.5291838474683352
computed normalized entropy=0.7297681988478072
SPLASH=splash10-0006-9000000000-791ebfdd24937a736821
submitter=submitter = University of Tokyo Team (Faculty of Engineering, University of Tokyo)
MoNA Rating=3.75

>  <NUM PEAKS>  (807) 
32

>  <MASS SPECTRAL PEAKS>  (807) 
27 9
29 4.5
39 14.4
41 38.4
42 3.1
43 1.8
50 1.4
51 2.9
52 1.4
53 3.4
54 6.1
55 49.8
56 2.5
57 1.3
63 2.5
65 13.8
66 1.2
67 10.3
77 1.2
79 1
81 1.7
82 6.7
83 31.9
84 1.8
89 3
90 2.1
91 99.99
92 12.1
99 1.3
118 3.5
119 1.1
218 4.9

$$$$

     RDKit          2D

 15 14  0  0  0  0  0  0  0  0999 V2000
    4.5466    7.1250    0.0000 C   0  0  0  0  0  0  0  0  0  0  0  0
  -12.3409    7.8750    0.0000 C   0  0  0  0  0  0  0  0  0  0  0  0
    3.2476    7.8750    0.0000 C   0  0  0  0  0  0  0  0  0  0  0  0
  -11.0418    7.1250    0.0000 C   0  0  0  0  0  0  0  0  0  0  0  0
    1.9486    7.1250    0.0000 C   0  0  0  0  0  0  0  0  0  0  0  0
    0.6495    7.8750    0.0000 C   0  0  0  0  0  0  0  0  0  0  0  0
   -0.6495    7.1250    0.0000 C   0  0  0  0  0  0  0  0  0  0  0  0
   -1.9486    7.8750    0.0000 C   0  0  0  0  0  0  0  0  0  0  0  0
   -3.2476    7.1250    0.0000 C   0  0  0  0  0  0  0  0  0  0  0  0
   -4.5466    7.8750    0.0000 C   0  0  0  0  0  0  0  0  0  0  0  0
   -5.8457    7.1250    0.0000 C   0  0  0  0  0  0  0  0  0  0  0  0
   -7.1447    7.8750    0.0000 C   0  0  0  0  0  0  0  0  0  0  0  0
   -8.4437    7.1250    0.0000 C   0  0  0  0  0  0  0  0  0  0  0  0
   -8.4437    5.6250    0.0000 O   0  0  0  0  0  0  0  0  0  0  0  0
   -9.7428    7.8750    0.0000 O   0  0  0  0  0  0  0  0  0  0  0  0
  3  1  1  0
  4  2  1  0
  5  3  1  0
  6  5  1  0
  7  6  1  0
  8  7  1  0
  9  8  1  0
 10  9  1  0
 11 10  1  0
 12 11  1  0
 13 12  1  0
 14 13  2  0
 15  4  1  0
 15 13  1  0
M  END
>  <NAME>  (808) 
ETHYL UNDECANOATE

>  <SYNONYMS>  (808) 


>  <SPECTRUM TYPE>  (808) 
MS1

>  <INSTRUMENT TYPE>  (808) 
EI-B

>  <INSTRUMENT>  (808) 
HITACHI M-80B

>  <ION MODE>  (808) 
P

>  <INCHIKEY>  (808) 
IAFQYUQIAOWKSB-UHFFFAOYSA-N

>  <FORMULA>  (808) 
C13H26O2

>  <EXACT MASS>  (808) 
214.193280072

>  <MW>  (808) 
214

>  <ID>  (808) 
JP010913

>  <CONTRIBUTOR>  (808) 
University of Tokyo Team, {Faculty of Engineering, University of Tokyo

>  <COMMENT>  (808) 
SMILES=CCCCCCCCCCC(=O)OCC
InChI=InChI=1S/C13H26O2/c1-3-5-6-7-8-9-10-11-12-13(14)15-4-2/h3-12H2,1-2H3
computed SMILES=O=C(OCC)CCCCCCCCCC
accession=JP010913
date=2016.01.19 (Created 2008.10.21, modified 2011.05.06)
author=SODA AROMATIC CO., LTD.
license=CC BY-NC-SA
exact mass=214.19328
ionization energy=70 eV
ion type=[M]+*
computed spectral entropy=3.1629529527728257
computed normalized entropy=0.8127181397117318
SPLASH=splash10-000l-9100000000-0c6e446855e040b6121c
submitter=submitter = University of Tokyo Team (Faculty of Engineering, University of Tokyo)
MoNA Rating=3.75

>  <NUM PEAKS>  (808) 
49

>  <MASS SPECTRAL PEAKS>  (808) 
16 1.2
26 1.1
27 12.2
29 28.3
30 1.1
31 1.6
39 5.7
41 32.4
42 8.9
43 31.4
45 7.6
53 1.9
54 1.8
55 23.3
56 5.3
57 14.2
59 1.3
60 17.9
61 14.9
67 2.5
68 1.6
69 10.2
70 13.2
71 4.7
73 19.6
74 2.2
81 1.8
82 1.2
83 5.7
84 3.8
85 3.7
87 2.6
88 99.99
89 8.6
95 2.1
97 3.1
98 3.2
101 43
102 3.4
111 1.1
115 4.9
129 2.2
143 3.7
157 5.5
169 10.6
170 1.3
171 4.4
185 1.4
214 3.2

$$$$

     RDKit          2D

 15 15  0  0  0  0  0  0  0  0999 V2000
   -7.7940    4.8196    0.0000 C   0  0  0  0  0  0  0  0  0  0  0  0
   -6.4949    2.5696    0.0000 C   0  0  0  0  0  0  0  0  0  0  0  0
    3.8974    2.5696    0.0000 C   0  0  0  0  0  0  0  0  0  0  0  0
    3.8978    4.0704    0.0000 C   0  0  0  0  0  0  0  0  0  0  0  0
    2.5978    1.8188    0.0000 C   0  0  0  0  0  0  0  0  0  0  0  0
   -3.8969    4.0696    0.0000 C   0  0  0  0  0  0  0  0  0  0  0  0
   -5.1959    4.8196    0.0000 C   0  0  0  0  0  0  0  0  0  0  0  0
    2.5988    4.8204    0.0000 C   0  0  0  0  0  0  0  0  0  0  0  0
    1.2988    2.5688    0.0000 C   0  0  0  0  0  0  0  0  0  0  0  0
   -2.5978    4.8196    0.0000 C   0  0  0  0  0  0  0  0  0  0  0  0
   -6.4949    4.0696    0.0000 C   0  0  0  0  0  0  0  0  0  0  0  0
    1.2993    4.0696    0.0000 C   0  0  0  0  0  0  0  0  0  0  0  0
    0.0002    4.8196    0.0000 C   0  0  0  0  0  0  0  0  0  0  0  0
    0.0002    6.3196    0.0000 O   0  0  0  0  0  0  0  0  0  0  0  0
   -1.2988    4.0696    0.0000 O   0  0  0  0  0  0  0  0  0  0  0  0
  4  3  2  0
  5  3  1  0
  7  6  1  0
  8  4  1  0
  9  5  2  0
 10  6  1  0
 11  1  1  0
 11  2  1  0
 11  7  1  0
 12  8  2  0
 12  9  1  0
 13 12  1  0
 14 13  2  0
 15 10  1  0
 15 13  1  0
M  END
>  <NAME>  (809) 
4-METHYLPENTYL BENZOATE

>  <SYNONYMS>  (809) 


>  <SPECTRUM TYPE>  (809) 
MS1

>  <INSTRUMENT TYPE>  (809) 
EI-B

>  <INSTRUMENT>  (809) 
HITACHI M-80B

>  <ION MODE>  (809) 
P

>  <INCHIKEY>  (809) 
UUNAMHRNRUJYDO-UHFFFAOYSA-N

>  <FORMULA>  (809) 
C13H18O2

>  <EXACT MASS>  (809) 
206.130679816

>  <MW>  (809) 
206

>  <ID>  (809) 
JP010912

>  <CONTRIBUTOR>  (809) 
University of Tokyo Team, {Faculty of Engineering, University of Tokyo

>  <COMMENT>  (809) 
SMILES=CC(C)CCCOC(=O)c(c1)cccc1
InChI=InChI=1S/C13H18O2/c1-11(2)7-6-10-15-13(14)12-8-4-3-5-9-12/h3-5,8-9,11H,6-7,10H2,1-2H3
computed SMILES=O=C(OCCCC(C)C)C=1C=CC=CC1
accession=JP010912
date=2016.01.19 (Created 2008.10.21, modified 2011.05.06)
author=SODA AROMATIC CO., LTD.
license=CC BY-NC-SA
exact mass=206.13068
ionization energy=70 eV
ion type=[M]+*
computed spectral entropy=2.6449554474727672
computed normalized entropy=0.7937554370976163
SPLASH=splash10-0ab9-9600000000-4d53cb4ee000f7a933ba
submitter=submitter = University of Tokyo Team (Faculty of Engineering, University of Tokyo)
MoNA Rating=3.75

>  <NUM PEAKS>  (809) 
28

>  <MASS SPECTRAL PEAKS>  (809) 
27 9.1
29 5.3
39 7.7
41 23.7
42 6.2
43 24.6
50 5.1
51 18.3
52 1.2
53 1.2
55 7.4
56 42.3
57 2.8
69 16
75 1.1
76 2.7
77 54.8
78 4.8
79 7.7
83 2.7
84 31.1
85 1.9
105 99.99
106 8.4
122 11.1
123 79.9
124 6.3
163 1.4

$$$$

     RDKit          2D

 16 16  0  0  0  0  0  0  0  0999 V2000
   -7.4692    4.2571    0.0000 C   0  0  0  0  0  0  0  0  0  0  0  0
   -1.9382    2.3580    0.0000 C   0  0  0  0  0  0  0  0  0  0  0  0
   -0.0099    2.3580    0.0000 C   0  0  0  0  0  0  0  0  0  0  0  0
   -6.1702    3.5071    0.0000 C   0  0  0  0  0  0  0  0  0  0  0  0
    4.2221    2.0071    0.0000 C   0  0  0  0  0  0  0  0  0  0  0  0
    4.2226    3.5079    0.0000 C   0  0  0  0  0  0  0  0  0  0  0  0
    2.9226    1.2563    0.0000 C   0  0  0  0  0  0  0  0  0  0  0  0
   -4.8712    4.2571    0.0000 C   0  0  0  0  0  0  0  0  0  0  0  0
    2.9236    4.2579    0.0000 C   0  0  0  0  0  0  0  0  0  0  0  0
    1.6236    2.0063    0.0000 C   0  0  0  0  0  0  0  0  0  0  0  0
    0.3250    4.2571    0.0000 C   0  0  0  0  0  0  0  0  0  0  0  0
    1.6240    3.5071    0.0000 C   0  0  0  0  0  0  0  0  0  0  0  0
   -3.5721    3.5071    0.0000 C   0  0  0  0  0  0  0  0  0  0  0  0
   -0.9740    3.5071    0.0000 C   0  0  0  0  0  0  0  0  0  0  0  0
   -3.5721    2.0071    0.0000 O   0  0  0  0  0  0  0  0  0  0  0  0
   -2.2731    4.2571    0.0000 O   0  0  0  0  0  0  0  0  0  0  0  0
  4  1  1  0
  6  5  2  0
  7  5  1  0
  4  8  2  0
  9  6  1  0
 10  7  2  0
 12  9  2  0
 12 10  1  0
 12 11  1  0
 13  8  1  0
 14  2  1  0
 14  3  1  0
 14 11  1  0
 15 13  2  0
 16 13  1  0
 16 14  1  0
M  END
>  <NAME>  (810) 
1,1-DIMETHYLPHENETYL CROTONATE

>  <SYNONYMS>  (810) 


>  <SPECTRUM TYPE>  (810) 
MS1

>  <INSTRUMENT TYPE>  (810) 
EI-B

>  <INSTRUMENT>  (810) 
HITACHI M-80B

>  <ION MODE>  (810) 
P

>  <INCHIKEY>  (810) 
OKLPIYCKVVLHCP-XBXARRHUSA-N

>  <FORMULA>  (810) 
C14H18O2

>  <EXACT MASS>  (810) 
218.130679816

>  <MW>  (810) 
218

>  <ID>  (810) 
JP010911

>  <CONTRIBUTOR>  (810) 
University of Tokyo Team, {Faculty of Engineering, University of Tokyo

>  <COMMENT>  (810) 
SMILES=[H]C(C)=C([H])C(=O)OC(C)(C)Cc(c1)cccc1
InChI=InChI=1S/C14H18O2/c1-4-8-13(15)16-14(2,3)11-12-9-6-5-7-10-12/h4-10H,11H2,1-3H3/b8-4+
computed SMILES=O=C(OC(C)(C)CC=1C=CC=CC1)C=CC
accession=JP010911
date=2016.01.19 (Created 2008.10.21, modified 2011.05.06)
author=SODA AROMATIC CO., LTD.
license=CC BY-NC-SA
exact mass=218.13068
ionization energy=70 eV
ion type=[M]+*
computed spectral entropy=2.9665541179120303
computed normalized entropy=0.7544978834314512
SPLASH=splash10-014i-9500000000-276e651c597005001d85
submitter=submitter = University of Tokyo Team (Faculty of Engineering, University of Tokyo)
MoNA Rating=3.75

>  <NUM PEAKS>  (810) 
51

>  <MASS SPECTRAL PEAKS>  (810) 
15 1.5
26 1.2
27 5.5
29 1.5
38 2.4
39 25.7
41 21.6
42 1.7
43 5.2
45 1.9
50 3.3
51 9.2
52 2
53 2.2
54 1.3
55 2.4
57 1
62 1.7
63 6.5
64 2.1
65 14.5
66 1.1
68 2.4
69 99.99
70 4.6
74 1.3
75 1.1
76 1.1
77 5.9
78 5.2
79 1.3
86 4.3
89 4.6
90 1.4
91 47.4
92 5.4
102 1.3
103 2.3
104 2.3
105 2.2
115 19.6
116 6.5
117 62.4
118 6.6
127 4.8
128 2
129 1.9
131 9.1
132 58.4
133 8.3
160 1.6

$$$$

     RDKit          2D

 16 15  0  0  0  0  0  0  0  0999 V2000
   -9.2440    6.6630    0.0000 C   0  0  0  0  0  0  0  0  0  0  0  0
   -7.9450    4.4130    0.0000 C   0  0  0  0  0  0  0  0  0  0  0  0
   -0.1507    4.4130    0.0000 C   0  0  0  0  0  0  0  0  0  0  0  0
    1.6974    4.6139    0.0000 C   0  0  0  0  0  0  0  0  0  0  0  0
    3.7464    5.1630    0.0000 C   0  0  0  0  0  0  0  0  0  0  0  0
    3.1974    7.2120    0.0000 C   0  0  0  0  0  0  0  0  0  0  0  0
   -6.6459    6.6630    0.0000 C   0  0  0  0  0  0  0  0  0  0  0  0
   -5.3469    5.9130    0.0000 C   0  0  0  0  0  0  0  0  0  0  0  0
   -1.4498    6.6630    0.0000 C   0  0  0  0  0  0  0  0  0  0  0  0
    1.1483    6.6630    0.0000 C   0  0  0  0  0  0  0  0  0  0  0  0
   -7.9450    5.9130    0.0000 C   0  0  0  0  0  0  0  0  0  0  0  0
   -0.1507    5.9130    0.0000 C   0  0  0  0  0  0  0  0  0  0  0  0
   -2.7488    5.9130    0.0000 C   0  0  0  0  0  0  0  0  0  0  0  0
    2.4474    5.9130    0.0000 C   0  0  0  0  0  0  0  0  0  0  0  0
   -2.7488    4.4130    0.0000 O   0  0  0  0  0  0  0  0  0  0  0  0
   -4.0478    6.6630    0.0000 O   0  0  0  0  0  0  0  0  0  0  0  0
  8  7  1  0
 11  1  1  0
 11  2  1  0
 11  7  1  0
 12  3  1  0
 12  9  1  0
 12 10  1  0
 13  9  1  0
 14  4  1  0
 14  5  1  0
 14  6  1  0
 14 10  1  0
 15 13  2  0
 16  8  1  0
 16 13  1  0
M  END
>  <NAME>  (811) 
ISOPENTYL 3,5,5-TRIMETHYLHEXANOATE

>  <SYNONYMS>  (811) 


>  <SPECTRUM TYPE>  (811) 
MS1

>  <INSTRUMENT TYPE>  (811) 
EI-B

>  <INSTRUMENT>  (811) 
HITACHI M-80B

>  <ION MODE>  (811) 
P

>  <INCHIKEY>  (811) 
IXHGVSKMQLKBKI-UHFFFAOYSA-N

>  <FORMULA>  (811) 
C14H28O2

>  <EXACT MASS>  (811) 
228.208930136

>  <MW>  (811) 
228

>  <ID>  (811) 
JP010910

>  <CONTRIBUTOR>  (811) 
University of Tokyo Team, {Faculty of Engineering, University of Tokyo

>  <COMMENT>  (811) 
SMILES=CC(C)CCOC(=O)CC(C)CC(C)(C)C
InChI=InChI=1S/C14H28O2/c1-11(2)7-8-16-13(15)9-12(3)10-14(4,5)6/h11-12H,7-10H2,1-6H3
computed SMILES=O=C(OCCC(C)C)CC(C)CC(C)(C)C
accession=JP010910
date=2016.01.19 (Created 2008.10.21, modified 2011.05.06)
author=SODA AROMATIC CO., LTD.
license=CC BY-NC-SA
exact mass=228.20893
ionization energy=70 eV
ion type=[M]+*
computed spectral entropy=2.8146155722406627
computed normalized entropy=0.7682730206585034
SPLASH=splash10-05fu-9100000000-26fa6477270de9b9e9c9
submitter=submitter = University of Tokyo Team (Faculty of Engineering, University of Tokyo)
MoNA Rating=3.75

>  <NUM PEAKS>  (811) 
39

>  <MASS SPECTRAL PEAKS>  (811) 
27 7.1
29 12.3
39 6.3
41 31.8
42 7.4
43 39.4
44 1.1
45 1
53 1.6
55 19.7
56 10.9
57 53.6
58 2.1
59 2
60 4.8
61 1.7
67 1.1
69 5.8
70 99.99
71 42.5
72 2
83 19.4
84 1.4
85 1.1
87 1.3
97 2.2
101 8.3
102 1.1
103 2
115 1.2
125 4.8
130 6.4
141 16.1
142 1.4
143 10.4
159 3
171 2.4
172 2.4
213 2.3

$$$$

     RDKit          2D

 16 16  0  0  0  0  0  0  0  0999 V2000
    9.0941    0.7116    0.0000 C   0  0  0  0  0  0  0  0  0  0  0  0
    7.8062    2.9680    0.0000 C   0  0  0  0  0  0  0  0  0  0  0  0
   -3.9180   -0.7714    0.0000 C   0  0  0  0  0  0  0  0  0  0  0  0
    1.3000   -0.7500    0.0000 C   0  0  0  0  0  0  0  0  0  0  0  0
    0.0300    1.5000    0.0000 C   0  0  0  0  0  0  0  0  0  0  0  0
    0.0300   -1.5000    0.0000 C   0  0  0  0  0  0  0  0  0  0  0  0
   -1.3200    0.7500    0.0000 C   0  0  0  0  0  0  0  0  0  0  0  0
    6.4961    0.7244    0.0000 C   0  0  0  0  0  0  0  0  0  0  0  0
    2.6027    1.4936    0.0000 C   0  0  0  0  0  0  0  0  0  0  0  0
    7.7988    1.4680    0.0000 C   0  0  0  0  0  0  0  0  0  0  0  0
    1.3000    0.7500    0.0000 C   0  0  0  0  0  0  0  0  0  0  0  0
   -1.3200   -0.7500    0.0000 C   0  0  0  0  0  0  0  0  0  0  0  0
    5.2008    1.4808    0.0000 C   0  0  0  0  0  0  0  0  0  0  0  0
    5.2081    2.9808    0.0000 O   0  0  0  0  0  0  0  0  0  0  0  0
   -2.6128   -1.5107    0.0000 O   0  0  0  0  0  0  0  0  0  0  0  0
    3.8980    0.7372    0.0000 O   0  0  0  0  0  0  0  0  0  0  0  0
  6  4  2  0
  7  5  1  0
 10  1  1  0
 10  2  1  0
 10  8  1  0
 11  4  1  0
 11  5  2  0
 11  9  1  0
 12  6  1  0
 12  7  2  0
 13  8  1  0
 14 13  2  0
 15  3  1  0
 15 12  1  0
 16  9  1  0
 16 13  1  0
M  END
>  <NAME>  (812) 
ANISYL ISOVALERATE

>  <SYNONYMS>  (812) 


>  <SPECTRUM TYPE>  (812) 
MS1

>  <INSTRUMENT TYPE>  (812) 
EI-B

>  <INSTRUMENT>  (812) 
HITACHI M-80B

>  <ION MODE>  (812) 
P

>  <INCHIKEY>  (812) 
LOGIKTHBNCEEST-UHFFFAOYSA-N

>  <FORMULA>  (812) 
C13H18O3

>  <EXACT MASS>  (812) 
222.125594436

>  <MW>  (812) 
222

>  <ID>  (812) 
JP010909

>  <CONTRIBUTOR>  (812) 
University of Tokyo Team, {Faculty of Engineering, University of Tokyo

>  <COMMENT>  (812) 
SMILES=COc(c1)ccc(COC(=O)CC(C)C)c1
InChI=InChI=1S/C13H18O3/c1-10(2)8-13(14)16-9-11-4-6-12(15-3)7-5-11/h4-7,10H,8-9H2,1-3H3
computed SMILES=O=C(OCC1=CC=C(OC)C=C1)CC(C)C
accession=JP010909
date=2016.01.19 (Created 2008.10.21, modified 2011.05.06)
author=SODA AROMATIC CO., LTD.
license=CC BY-NC-SA
exact mass=222.12559
ionization energy=70 eV
ion type=[M]+*
computed spectral entropy=2.514080594555704
computed normalized entropy=0.707126433495375
SPLASH=splash10-00di-4900000000-2f55157928b4d914fd00
submitter=submitter = University of Tokyo Team (Faculty of Engineering, University of Tokyo)
MoNA Rating=3.75

>  <NUM PEAKS>  (812) 
35

>  <MASS SPECTRAL PEAKS>  (812) 
27 2.4
29 2.9
39 5
41 8.6
42 1.5
43 3.5
51 2.5
52 2
53 1
57 7.5
63 1.4
64 1.1
65 1.7
77 8.6
78 8.8
85 2.2
89 2.4
90 2.1
91 6.7
92 2.3
94 1.1
105 1.6
106 1
107 1.2
109 2.7
119 1.2
120 14.3
121 99.99
122 9.1
135 1.7
137 1.9
138 12.3
139 1
222 13.7
223 1.8

$$$$

     RDKit          2D

 14 13  0  0  0  0  0  0  0  0999 V2000
  -10.3923    6.7500    0.0000 C   0  0  0  0  0  0  0  0  0  0  0  0
    3.8971    6.0000    0.0000 C   0  0  0  0  0  0  0  0  0  0  0  0
    1.2990    4.5000    0.0000 C   0  0  0  0  0  0  0  0  0  0  0  0
   -9.0933    6.0000    0.0000 C   0  0  0  0  0  0  0  0  0  0  0  0
    2.5981    6.7500    0.0000 C   0  0  0  0  0  0  0  0  0  0  0  0
   -7.7942    6.7500    0.0000 C   0  0  0  0  0  0  0  0  0  0  0  0
   -6.4952    6.0000    0.0000 C   0  0  0  0  0  0  0  0  0  0  0  0
   -5.1962    6.7500    0.0000 C   0  0  0  0  0  0  0  0  0  0  0  0
   -3.8971    6.0000    0.0000 C   0  0  0  0  0  0  0  0  0  0  0  0
   -2.5981    6.7500    0.0000 C   0  0  0  0  0  0  0  0  0  0  0  0
    1.2990    6.0000    0.0000 C   0  0  0  0  0  0  0  0  0  0  0  0
    0.0000    6.7500    0.0000 C   0  0  0  0  0  0  0  0  0  0  0  0
    0.0000    8.2500    0.0000 O   0  0  0  0  0  0  0  0  0  0  0  0
   -1.2990    6.0000    0.0000 O   0  0  0  0  0  0  0  0  0  0  0  0
  4  1  1  0
  5  2  1  0
  6  4  1  0
  7  6  1  0
  8  7  1  0
  9  8  1  0
 10  9  1  0
 11  3  1  0
 11  5  1  0
 12 11  1  0
 13 12  2  0
 14 10  1  0
 14 12  1  0
M  END
>  <NAME>  (813) 
HEPTYL 2-METHYLBUTYRATE

>  <SYNONYMS>  (813) 


>  <SPECTRUM TYPE>  (813) 
MS1

>  <INSTRUMENT TYPE>  (813) 
EI-B

>  <INSTRUMENT>  (813) 
HITACHI M-80B

>  <ION MODE>  (813) 
P

>  <INCHIKEY>  (813) 
CSFWIAGTSVOEOD-UHFFFAOYSA-N

>  <FORMULA>  (813) 
C12H24O2

>  <EXACT MASS>  (813) 
200.177630008

>  <MW>  (813) 
200

>  <ID>  (813) 
JP010908

>  <CONTRIBUTOR>  (813) 
University of Tokyo Team, {Faculty of Engineering, University of Tokyo

>  <COMMENT>  (813) 
SMILES=CCCCCCCOC(=O)C(C)CC
InChI=InChI=1S/C12H24O2/c1-4-6-7-8-9-10-14-12(13)11(3)5-2/h11H,4-10H2,1-3H3
computed SMILES=O=C(OCCCCCCC)C(C)CC
accession=JP010908
date=2016.01.19 (Created 2008.10.21, modified 2011.05.06)
author=SODA AROMATIC CO., LTD.
license=CC BY-NC-SA
exact mass=200.17763
ionization energy=70 eV
ion type=[M]+*
computed spectral entropy=2.72744422925171
computed normalized entropy=0.8019070707148479
SPLASH=splash10-0a4i-9100000000-c1f8ec216d0214ccdb0b
submitter=submitter = University of Tokyo Team (Faculty of Engineering, University of Tokyo)
MoNA Rating=3.75

>  <NUM PEAKS>  (813) 
30

>  <MASS SPECTRAL PEAKS>  (813) 
27 12.1
29 30.1
39 8.1
41 40.6
42 11
43 21.9
53 1.4
54 2
55 18.9
56 33.8
57 99.99
58 4.8
68 2.6
69 13.4
70 22.6
71 1.7
74 13.4
75 2.2
83 2.3
85 31.4
86 1.5
87 4.2
97 1.2
98 21.6
99 1.5
102 2.4
103 65.5
104 4.1
143 1.5
172 1.3

$$$$

     RDKit          2D

 16 17  0  0  0  0  0  0  0  0999 V2000
   -4.2222   -0.6170    0.0000 C   0  0  0  0  0  0  0  0  0  0  0  0
    2.2743    1.6324    0.0000 C   0  0  0  0  0  0  0  0  0  0  0  0
    2.2748    3.1332    0.0000 C   0  0  0  0  0  0  0  0  0  0  0  0
    0.9748    0.8816    0.0000 C   0  0  0  0  0  0  0  0  0  0  0  0
   -2.9224    6.1343    0.0000 C   0  0  0  0  0  0  0  0  0  0  0  0
   -4.2216    5.3845    0.0000 C   0  0  0  0  0  0  0  0  0  0  0  0
    0.9758    3.8832    0.0000 C   0  0  0  0  0  0  0  0  0  0  0  0
   -0.3242    1.6316    0.0000 C   0  0  0  0  0  0  0  0  0  0  0  0
   -1.6230    5.3832    0.0000 C   0  0  0  0  0  0  0  0  0  0  0  0
   -4.2213    3.8836    0.0000 C   0  0  0  0  0  0  0  0  0  0  0  0
   -4.2217    0.8830    0.0000 C   0  0  0  0  0  0  0  0  0  0  0  0
   -0.3237    3.1324    0.0000 C   0  0  0  0  0  0  0  0  0  0  0  0
   -1.6228    3.8824    0.0000 C   0  0  0  0  0  0  0  0  0  0  0  0
   -2.9219    3.1326    0.0000 C   0  0  0  0  0  0  0  0  0  0  0  0
   -5.5205    1.6334    0.0000 O   0  0  0  0  0  0  0  0  0  0  0  0
   -2.9224    1.6326    0.0000 O   0  0  0  0  0  0  0  0  0  0  0  0
  3  2  2  0
  4  2  1  0
  6  5  2  0
  7  3  1  0
  8  4  2  0
  9  5  1  0
 10  6  1  0
 11  1  1  0
 12  7  2  0
 12  8  1  0
 13  9  2  0
 13 12  1  0
 14 10  2  0
 14 13  1  0
 15 11  2  0
 16 11  1  0
 16 14  1  0
M  END
>  <NAME>  (814) 
2-PHENYLPHENYL ACETATE

>  <SYNONYMS>  (814) 


>  <SPECTRUM TYPE>  (814) 
MS1

>  <INSTRUMENT TYPE>  (814) 
EI-B

>  <INSTRUMENT>  (814) 
HITACHI M-80B

>  <ION MODE>  (814) 
P

>  <INCHIKEY>  (814) 
UZUGIHHGLRFGMJ-UHFFFAOYSA-N

>  <FORMULA>  (814) 
C14H12O2

>  <EXACT MASS>  (814) 
212.083729624

>  <MW>  (814) 
212

>  <ID>  (814) 
JP010907

>  <CONTRIBUTOR>  (814) 
University of Tokyo Team, {Faculty of Engineering, University of Tokyo

>  <COMMENT>  (814) 
SMILES=CC(=O)Oc(c2)c(ccc2)c(c1)cccc1
InChI=InChI=1S/C14H12O2/c1-11(15)16-14-10-6-5-9-13(14)12-7-3-2-4-8-12/h2-10H,1H3
computed SMILES=O=C(OC=1C=CC=CC1C=2C=CC=CC2)C
accession=JP010907
date=2016.01.19 (Created 2008.10.21, modified 2011.05.06)
author=SODA AROMATIC CO., LTD.
license=CC BY-NC-SA
exact mass=212.08373
ionization energy=70 eV
ion type=[M]+*
computed spectral entropy=2.173562225453338
computed normalized entropy=0.6752550715566471
SPLASH=splash10-00di-1900000000-0bc21af6402139c31139
submitter=submitter = University of Tokyo Team (Faculty of Engineering, University of Tokyo)
MoNA Rating=3.75

>  <NUM PEAKS>  (814) 
25

>  <MASS SPECTRAL PEAKS>  (814) 
15 1.6
39 2.3
43 15.4
51 1.6
62 1.1
63 2.8
65 1
75 1.3
76 1.2
87 1.1
89 1.8
102 1.4
113 1.1
115 16.1
116 1.7
139 7.4
140 1.5
141 15
142 5.3
152 1.7
168 3.9
169 33.4
170 99.99
171 13.9
212 6.4

$$$$

     RDKit          2D

 13 14  0  0  0  0  0  0  0  0999 V2000
   -3.5728   -0.6166    0.0000 C   0  0  0  0  0  0  0  0  0  0  0  0
   -2.2733   -1.3674    0.0000 C   0  0  0  0  0  0  0  0  0  0  0  0
   -3.5733    0.8843    0.0000 C   0  0  0  0  0  0  0  0  0  0  0  0
    2.9243    1.6330    0.0000 C   0  0  0  0  0  0  0  0  0  0  0  0
    2.9246    3.1330    0.0000 C   0  0  0  0  0  0  0  0  0  0  0  0
   -0.9742   -0.6174    0.0000 C   0  0  0  0  0  0  0  0  0  0  0  0
   -2.2742    1.6343    0.0000 C   0  0  0  0  0  0  0  0  0  0  0  0
    1.6242    0.8832    0.0000 C   0  0  0  0  0  0  0  0  0  0  0  0
    1.6247    3.8832    0.0000 C   0  0  0  0  0  0  0  0  0  0  0  0
   -0.9747    0.8834    0.0000 C   0  0  0  0  0  0  0  0  0  0  0  0
    0.3243    1.6334    0.0000 C   0  0  0  0  0  0  0  0  0  0  0  0
    0.3246    3.1334    0.0000 C   0  0  0  0  0  0  0  0  0  0  0  0
   -0.9742    3.8839    0.0000 O   0  0  0  0  0  0  0  0  0  0  0  0
  2  1  2  0
  3  1  1  0
  5  4  2  0
  6  2  1  0
  7  3  2  0
  8  4  1  0
  9  5  1  0
 10  6  2  0
 10  7  1  0
 11  8  2  0
 11 10  1  0
 12  9  2  0
 12 11  1  0
 13 12  1  0
M  END
>  <NAME>  (815) 
O-PHENYLPHENOL

>  <SYNONYMS>  (815) 


>  <SPECTRUM TYPE>  (815) 
MS1

>  <INSTRUMENT TYPE>  (815) 
EI-B

>  <INSTRUMENT>  (815) 
HITACHI M-80B

>  <ION MODE>  (815) 
P

>  <INCHIKEY>  (815) 
LLEMOWNGBBNAJR-UHFFFAOYSA-N

>  <FORMULA>  (815) 
C12H10O

>  <EXACT MASS>  (815) 
170.07316494

>  <MW>  (815) 
170

>  <ID>  (815) 
JP010906

>  <CONTRIBUTOR>  (815) 
University of Tokyo Team, {Faculty of Engineering, University of Tokyo

>  <COMMENT>  (815) 
SMILES=Oc(c2)c(ccc2)c(c1)cccc1
InChI=InChI=1S/C12H10O/c13-12-9-5-4-8-11(12)10-6-2-1-3-7-10/h1-9,13H
computed SMILES=OC=1C=CC=CC1C=2C=CC=CC2
accession=JP010906
date=2016.01.19 (Created 2008.10.21, modified 2011.05.06)
author=SODA AROMATIC CO., LTD.
license=CC BY-NC-SA
exact mass=170.07316
ionization energy=70 eV
ion type=[M]+*
computed spectral entropy=2.7854537368269146
computed normalized entropy=0.7317312066179471
SPLASH=splash10-00xr-2900000000-0395543c94def63fbf1c
submitter=submitter = University of Tokyo Team (Faculty of Engineering, University of Tokyo)
MoNA Rating=3.75

>  <NUM PEAKS>  (815) 
45

>  <MASS SPECTRAL PEAKS>  (815) 
27 2.7
38 1.4
39 9.5
50 4.7
51 7.8
52 1.6
53 1
57 2
62 3.9
63 10.1
64 2
65 3
69 1.4
70 2.2
71 1.8
74 3.6
75 4
76 3
77 4.8
78 1.1
84 1.3
85 2.1
86 1.5
87 2.4
88 1.4
89 5.5
91 1.3
102 3.6
113 1.8
114 1.7
115 29.8
116 3.8
126 1
139 9.2
140 2
141 33.1
142 10.6
144 1.1
151 1.1
152 1.2
155 1.4
168 5.1
169 56.3
170 99.99
171 12.6

$$$$

     RDKit          2D

 24 25  0  0  0  0  0  0  0  0999 V2000
  -12.9904    9.3200    0.0000 C   0  0  0  0  0  0  0  0  0  0  0  0
    6.4952    5.5700    0.0000 C   0  0  0  0  0  0  0  0  0  0  0  0
  -12.9909    7.8192    0.0000 C   0  0  0  0  0  0  0  0  0  0  0  0
  -11.6909   10.0708    0.0000 C   0  0  0  0  0  0  0  0  0  0  0  0
    6.4957    7.0708    0.0000 C   0  0  0  0  0  0  0  0  0  0  0  0
    5.1957    4.8192    0.0000 C   0  0  0  0  0  0  0  0  0  0  0  0
  -11.6918    7.0692    0.0000 C   0  0  0  0  0  0  0  0  0  0  0  0
  -10.3918    9.3208    0.0000 C   0  0  0  0  0  0  0  0  0  0  0  0
    5.1966    7.8208    0.0000 C   0  0  0  0  0  0  0  0  0  0  0  0
    3.8966    5.5692    0.0000 C   0  0  0  0  0  0  0  0  0  0  0  0
   -3.8971    7.0700    0.0000 C   0  0  0  0  0  0  0  0  0  0  0  0
   -2.5981    7.8200    0.0000 C   0  0  0  0  0  0  0  0  0  0  0  0
   -9.0933    7.0700    0.0000 C   0  0  0  0  0  0  0  0  0  0  0  0
    2.5981    7.8200    0.0000 C   0  0  0  0  0  0  0  0  0  0  0  0
   -7.7942    7.8200    0.0000 C   0  0  0  0  0  0  0  0  0  0  0  0
    1.2990    7.0700    0.0000 C   0  0  0  0  0  0  0  0  0  0  0  0
  -10.3923    7.8200    0.0000 C   0  0  0  0  0  0  0  0  0  0  0  0
    3.8971    7.0700    0.0000 C   0  0  0  0  0  0  0  0  0  0  0  0
   -5.1962    7.8200    0.0000 C   0  0  0  0  0  0  0  0  0  0  0  0
   -1.2990    7.0700    0.0000 C   0  0  0  0  0  0  0  0  0  0  0  0
   -5.1962    9.3200    0.0000 O   0  0  0  0  0  0  0  0  0  0  0  0
   -1.2990    5.5700    0.0000 O   0  0  0  0  0  0  0  0  0  0  0  0
   -6.4952    7.0700    0.0000 O   0  0  0  0  0  0  0  0  0  0  0  0
    0.0000    7.8200    0.0000 O   0  0  0  0  0  0  0  0  0  0  0  0
  3  1  2  0
  4  1  1  0
  5  2  2  0
  6  2  1  0
  7  3  1  0
  8  4  2  0
  9  5  1  0
 10  6  2  0
 12 11  1  0
 15 13  1  0
 16 14  1  0
 17  7  2  0
 17  8  1  0
 17 13  1  0
 18  9  2  0
 18 10  1  0
 18 14  1  0
 19 11  1  0
 20 12  1  0
 21 19  2  0
 22 20  2  0
 23 15  1  0
 23 19  1  0
 24 16  1  0
 24 20  1  0
M  END
>  <NAME>  (816) 
DIPHENETHYL SUCCINATE

>  <SYNONYMS>  (816) 


>  <SPECTRUM TYPE>  (816) 
MS1

>  <INSTRUMENT TYPE>  (816) 
EI-B

>  <INSTRUMENT>  (816) 
HITACHI M-80B

>  <ION MODE>  (816) 
P

>  <INCHIKEY>  (816) 
SIOVMRDTCNJTPS-UHFFFAOYSA-N

>  <FORMULA>  (816) 
C20H22O4

>  <EXACT MASS>  (816) 
326.151809184

>  <MW>  (816) 
326

>  <ID>  (816) 
JP010905

>  <CONTRIBUTOR>  (816) 
University of Tokyo Team, {Faculty of Engineering, University of Tokyo

>  <COMMENT>  (816) 
SMILES=O=C(OCCc(c2)cccc2)CCC(=O)OCCc(c1)cccc1
InChI=InChI=1S/C20H22O4/c21-19(23-15-13-17-7-3-1-4-8-17)11-12-20(22)24-16-14-18-9-5-2-6-10-18/h1-10H,11-16H2
computed SMILES=O=C(OCCC=1C=CC=CC1)CCC(=O)OCCC=2C=CC=CC2
accession=JP010905
date=2016.01.19 (Created 2008.10.21, modified 2011.05.06)
author=SODA AROMATIC CO., LTD.
license=CC BY-NC-SA
exact mass=326.15181
ionization energy=70 eV
ion type=[M]+*
computed spectral entropy=1.5555809191783816
computed normalized entropy=0.5744283907828742
SPLASH=splash10-0udi-2900000000-cb19a8d1074cc9209b8e
submitter=submitter = University of Tokyo Team (Faculty of Engineering, University of Tokyo)
MoNA Rating=3.75

>  <NUM PEAKS>  (816) 
15

>  <MASS SPECTRAL PEAKS>  (816) 
27 1.8
39 1.5
51 1.8
55 1.5
56 1.9
65 2.8
77 6.5
78 2.6
79 5.9
91 8.2
101 1
103 4.9
104 99.99
105 38.8
106 2.4

$$$$

     RDKit          2D

 14 13  0  0  0  0  0  0  0  0999 V2000
   -3.8971    4.5000    0.0000 C   0  0  0  0  0  0  0  0  0  0  0  0
    7.7942    6.7500    0.0000 C   0  0  0  0  0  0  0  0  0  0  0  0
    6.4952    4.5000    0.0000 C   0  0  0  0  0  0  0  0  0  0  0  0
   -2.5981    5.2500    0.0000 C   0  0  0  0  0  0  0  0  0  0  0  0
    6.4952    7.5000    0.0000 C   0  0  0  0  0  0  0  0  0  0  0  0
    5.1962    5.2500    0.0000 C   0  0  0  0  0  0  0  0  0  0  0  0
   -2.5981    6.7500    0.0000 C   0  0  0  0  0  0  0  0  0  0  0  0
   -1.2990    7.5000    0.0000 C   0  0  0  0  0  0  0  0  0  0  0  0
   -0.0000    6.7500    0.0000 C   0  0  0  0  0  0  0  0  0  0  0  0
    1.2990    7.5000    0.0000 C   0  0  0  0  0  0  0  0  0  0  0  0
    5.1962    6.7500    0.0000 C   0  0  0  0  0  0  0  0  0  0  0  0
    3.8971    7.5000    0.0000 C   0  0  0  0  0  0  0  0  0  0  0  0
    3.8971    9.0000    0.0000 O   0  0  0  0  0  0  0  0  0  0  0  0
    2.5981    6.7500    0.0000 O   0  0  0  0  0  0  0  0  0  0  0  0
  4  1  1  0
  5  2  1  0
  6  3  1  0
  7  4  1  0
  7  8  2  0
  9  8  1  0
 10  9  1  0
 11  5  1  0
 11  6  1  0
 12 11  1  0
 13 12  2  0
 14 10  1  0
 14 12  1  0
M  END
>  <NAME>  (817) 
CIS-3-HEXENYL 2-ETHYLBUTYRATE

>  <SYNONYMS>  (817) 


>  <SPECTRUM TYPE>  (817) 
MS1

>  <INSTRUMENT TYPE>  (817) 
EI-B

>  <INSTRUMENT>  (817) 
HITACHI M-80B

>  <ION MODE>  (817) 
P

>  <INCHIKEY>  (817) 
LFDWLVXNYKQQBT-FPLPWBNLSA-N

>  <FORMULA>  (817) 
C12H22O2

>  <EXACT MASS>  (817) 
198.161979944

>  <MW>  (817) 
198

>  <ID>  (817) 
JP010904

>  <CONTRIBUTOR>  (817) 
University of Tokyo Team, {Faculty of Engineering, University of Tokyo

>  <COMMENT>  (817) 
SMILES=CCC=CCCOC(=O)C(CC)CC
InChI=InChI=1S/C12H22O2/c1-4-7-8-9-10-14-12(13)11(5-2)6-3/h7-8,11H,4-6,9-10H2,1-3H3/b8-7-
computed SMILES=O=C(OCCC=CCC)C(CC)CC
accession=JP010904
date=2016.01.19 (Created 2008.10.21, modified 2011.05.06)
author=SODA AROMATIC CO., LTD.
license=CC BY-NC-SA
exact mass=198.16198
ionization energy=70 eV
ion type=[M]+*
computed spectral entropy=2.3878194349407478
computed normalized entropy=0.784300159970661
SPLASH=splash10-00sl-9000000000-827b7089dc1adc1ba117
submitter=submitter = University of Tokyo Team (Faculty of Engineering, University of Tokyo)
MoNA Rating=3.75

>  <NUM PEAKS>  (817) 
21

>  <MASS SPECTRAL PEAKS>  (817) 
27 11.3
29 12.7
39 10.4
41 27.2
42 4.1
43 41.5
53 4.6
54 5.1
55 21.7
56 1.3
67 58.4
68 2.9
69 1.8
70 1.9
71 54
72 2.4
81 4.1
82 99.99
83 9.5
99 17.5
117 2.2

$$$$

     RDKit          2D

 12 11  0  0  0  0  0  0  0  0999 V2000
    2.2733    5.0625    0.0000 C   0  0  0  0  0  0  0  0  0  0  0  0
   -8.1190    5.0625    0.0000 C   0  0  0  0  0  0  0  0  0  0  0  0
   -6.8200    2.8125    0.0000 C   0  0  0  0  0  0  0  0  0  0  0  0
    0.9743    5.8125    0.0000 C   0  0  0  0  0  0  0  0  0  0  0  0
   -6.8200    5.8125    0.0000 C   0  0  0  0  0  0  0  0  0  0  0  0
   -5.5209    3.5625    0.0000 C   0  0  0  0  0  0  0  0  0  0  0  0
   -0.3248    5.0625    0.0000 C   0  0  0  0  0  0  0  0  0  0  0  0
   -1.6238    5.8125    0.0000 C   0  0  0  0  0  0  0  0  0  0  0  0
   -5.5209    5.0625    0.0000 C   0  0  0  0  0  0  0  0  0  0  0  0
   -4.2219    5.8125    0.0000 C   0  0  0  0  0  0  0  0  0  0  0  0
   -4.2219    7.3125    0.0000 O   0  0  0  0  0  0  0  0  0  0  0  0
   -2.9228    5.0625    0.0000 O   0  0  0  0  0  0  0  0  0  0  0  0
  4  1  1  0
  5  2  1  0
  6  3  1  0
  7  4  1  0
  8  7  1  0
  9  5  1  0
  9  6  1  0
 10  9  1  0
 11 10  2  0
 12  8  1  0
 12 10  1  0
M  END
>  <NAME>  (818) 
BUTYL 2-ETHYLBUTYRATE

>  <SYNONYMS>  (818) 


>  <SPECTRUM TYPE>  (818) 
MS1

>  <INSTRUMENT TYPE>  (818) 
EI-B

>  <INSTRUMENT>  (818) 
HITACHI M-80B

>  <ION MODE>  (818) 
P

>  <INCHIKEY>  (818) 
YARHPYLJZOUSGU-UHFFFAOYSA-N

>  <FORMULA>  (818) 
C10H20O2

>  <EXACT MASS>  (818) 
172.14632988

>  <MW>  (818) 
172

>  <ID>  (818) 
JP010903

>  <CONTRIBUTOR>  (818) 
University of Tokyo Team, {Faculty of Engineering, University of Tokyo

>  <COMMENT>  (818) 
computed SMILES=O=C(OCCCC)C(CC)CC
SMILES=CCCCOC(=O)C(CC)CC
InChI=InChI=1S/C10H20O2/c1-4-7-8-12-10(11)9(5-2)6-3/h9H,4-8H2,1-3H3
accession=JP010903
date=2016.01.19 (Created 2008.10.21, modified 2011.05.06)
author=SODA AROMATIC CO., LTD.
license=CC BY-NC-SA
exact mass=172.14633
ionization energy=70 eV
ion type=[M]+*
computed spectral entropy=2.8665280781925953
computed normalized entropy=0.8128857098366629
SPLASH=splash10-05vo-9100000000-bc3d3697dbf2b8578b08
submitter=submitter = University of Tokyo Team (Faculty of Engineering, University of Tokyo)
MoNA Rating=3.75

>  <NUM PEAKS>  (818) 
34

>  <MASS SPECTRAL PEAKS>  (818) 
26 1.7
27 29.4
29 56.6
30 1.2
31 1.5
39 18
41 59.3
42 9.8
43 88.6
44 3.1
45 3.8
53 3.4
54 1.1
55 27.7
56 45.2
57 37.5
58 1.3
59 1
69 3.8
70 8.5
71 89.6
72 5.3
73 14.1
87 23.8
88 36
89 8.2
99 62.2
100 4.2
101 6.3
116 1.5
117 99.99
118 7
143 1.7
144 11.3

$$$$

     RDKit          2D

 15 14  0  0  0  0  0  0  0  0999 V2000
  -10.3923    6.7500    0.0000 C   0  0  0  0  0  0  0  0  0  0  0  0
    3.8971    6.0000    0.0000 C   0  0  0  0  0  0  0  0  0  0  0  0
    2.5981    3.7500    0.0000 C   0  0  0  0  0  0  0  0  0  0  0  0
   -9.0933    6.0000    0.0000 C   0  0  0  0  0  0  0  0  0  0  0  0
    2.5981    6.7500    0.0000 C   0  0  0  0  0  0  0  0  0  0  0  0
    1.2990    4.5000    0.0000 C   0  0  0  0  0  0  0  0  0  0  0  0
   -7.7942    6.7500    0.0000 C   0  0  0  0  0  0  0  0  0  0  0  0
   -6.4952    6.0000    0.0000 C   0  0  0  0  0  0  0  0  0  0  0  0
   -5.1962    6.7500    0.0000 C   0  0  0  0  0  0  0  0  0  0  0  0
   -3.8971    6.0000    0.0000 C   0  0  0  0  0  0  0  0  0  0  0  0
   -2.5981    6.7500    0.0000 C   0  0  0  0  0  0  0  0  0  0  0  0
    1.2990    6.0000    0.0000 C   0  0  0  0  0  0  0  0  0  0  0  0
    0.0000    6.7500    0.0000 C   0  0  0  0  0  0  0  0  0  0  0  0
    0.0000    8.2500    0.0000 O   0  0  0  0  0  0  0  0  0  0  0  0
   -1.2990    6.0000    0.0000 O   0  0  0  0  0  0  0  0  0  0  0  0
  4  1  1  0
  5  2  1  0
  6  3  1  0
  7  4  1  0
  8  7  1  0
  9  8  1  0
 10  9  1  0
 11 10  1  0
 12  5  1  0
 12  6  1  0
 13 12  1  0
 14 13  2  0
 15 11  1  0
 15 13  1  0
M  END
>  <NAME>  (819) 
HEPTYL 2-ETHYLBUTYRATE

>  <SYNONYMS>  (819) 


>  <SPECTRUM TYPE>  (819) 
MS1

>  <INSTRUMENT TYPE>  (819) 
EI-B

>  <INSTRUMENT>  (819) 
HITACHI M-80B

>  <ION MODE>  (819) 
P

>  <INCHIKEY>  (819) 
ZAQPYAQFZYEMDO-UHFFFAOYSA-N

>  <FORMULA>  (819) 
C13H26O2

>  <EXACT MASS>  (819) 
214.193280072

>  <MW>  (819) 
214

>  <ID>  (819) 
JP010902

>  <CONTRIBUTOR>  (819) 
University of Tokyo Team, {Faculty of Engineering, University of Tokyo

>  <COMMENT>  (819) 
SMILES=CCCCCCCOC(=O)C(CC)CC
InChI=InChI=1S/C13H26O2/c1-4-7-8-9-10-11-15-13(14)12(5-2)6-3/h12H,4-11H2,1-3H3
computed SMILES=O=C(OCCCCCCC)C(CC)CC
accession=JP010902
date=2016.01.19 (Created 2008.10.21, modified 2011.05.06)
author=SODA AROMATIC CO., LTD.
license=CC BY-NC-SA
exact mass=214.19328
ionization energy=70 eV
ion type=[M]+*
computed spectral entropy=2.9278055331952846
computed normalized entropy=0.8170196902759145
SPLASH=splash10-05mp-9100000000-c0f05f7d1ddd25a4e4b4
submitter=submitter = University of Tokyo Team (Faculty of Engineering, University of Tokyo)
MoNA Rating=3.75

>  <NUM PEAKS>  (819) 
36

>  <MASS SPECTRAL PEAKS>  (819) 
27 16.5
29 28.1
31 1
39 10.6
41 44.2
42 15.7
43 79.1
44 2.1
45 1.6
53 2.2
54 2.5
55 30.2
56 31.8
57 48.3
58 1.7
67 1.2
68 2.7
69 15.1
70 26.8
71 60.1
72 2.7
73 6
83 2.7
87 13.1
88 25.1
89 8.2
97 1.1
98 27.5
99 36.4
100 1.9
101 2
116 1.7
117 99.99
118 6.9
143 1.8
186 2.6

$$$$

     RDKit          2D

 14 13  0  0  0  0  0  0  0  0999 V2000
    2.9228    6.1875    0.0000 C   0  0  0  0  0  0  0  0  0  0  0  0
  -10.0675    6.1875    0.0000 C   0  0  0  0  0  0  0  0  0  0  0  0
   -8.7685    3.9375    0.0000 C   0  0  0  0  0  0  0  0  0  0  0  0
    1.6238    6.9375    0.0000 C   0  0  0  0  0  0  0  0  0  0  0  0
   -8.7685    6.9375    0.0000 C   0  0  0  0  0  0  0  0  0  0  0  0
   -7.4695    4.6875    0.0000 C   0  0  0  0  0  0  0  0  0  0  0  0
    0.3248    6.1875    0.0000 C   0  0  0  0  0  0  0  0  0  0  0  0
   -0.9743    6.9375    0.0000 C   0  0  0  0  0  0  0  0  0  0  0  0
   -2.2733    6.1875    0.0000 C   0  0  0  0  0  0  0  0  0  0  0  0
   -3.5724    6.9375    0.0000 C   0  0  0  0  0  0  0  0  0  0  0  0
   -7.4695    6.1875    0.0000 C   0  0  0  0  0  0  0  0  0  0  0  0
   -6.1704    6.9375    0.0000 C   0  0  0  0  0  0  0  0  0  0  0  0
   -6.1704    8.4375    0.0000 O   0  0  0  0  0  0  0  0  0  0  0  0
   -4.8714    6.1875    0.0000 O   0  0  0  0  0  0  0  0  0  0  0  0
  4  1  1  0
  5  2  1  0
  6  3  1  0
  7  4  1  0
  8  7  1  0
  8  9  2  0
 10  9  1  0
 11  5  1  0
 11  6  1  0
 12 11  1  0
 13 12  2  0
 14 10  1  0
 14 12  1  0
M  END
>  <NAME>  (820) 
TRANS-2-HEXENYL 2-ETHYLBUTYRATE

>  <SYNONYMS>  (820) 


>  <SPECTRUM TYPE>  (820) 
MS1

>  <INSTRUMENT TYPE>  (820) 
EI-B

>  <INSTRUMENT>  (820) 
HITACHI M-80B

>  <ION MODE>  (820) 
P

>  <INCHIKEY>  (820) 
GWLMOEWFTARWTG-CMDGGOBGSA-N

>  <FORMULA>  (820) 
C12H22O2

>  <EXACT MASS>  (820) 
198.161979944

>  <MW>  (820) 
198

>  <ID>  (820) 
JP010901

>  <CONTRIBUTOR>  (820) 
University of Tokyo Team, {Faculty of Engineering, University of Tokyo

>  <COMMENT>  (820) 
SMILES=CCCC=CCOC(=O)C(CC)CC
InChI=InChI=1S/C12H22O2/c1-4-7-8-9-10-14-12(13)11(5-2)6-3/h8-9,11H,4-7,10H2,1-3H3/b9-8+
computed SMILES=O=C(OCC=CCCC)C(CC)CC
accession=JP010901
date=2016.01.19 (Created 2008.10.21, modified 2011.05.06)
author=SODA AROMATIC CO., LTD.
license=CC BY-NC-SA
exact mass=198.16198
ionization energy=70 eV
ion type=[M]+*
computed spectral entropy=2.6263128966776415
computed normalized entropy=0.7799471829263634
SPLASH=splash10-0596-9000000000-c847e2996f9f2ff9ba29
submitter=submitter = University of Tokyo Team (Faculty of Engineering, University of Tokyo)
MoNA Rating=3.75

>  <NUM PEAKS>  (820) 
29

>  <MASS SPECTRAL PEAKS>  (820) 
27 16.2
29 18.4
39 14.1
41 43.3
42 5.5
43 62.7
44 1.6
53 5.3
54 9.8
55 53
56 4
57 6.6
67 16.2
68 1.1
69 2.2
70 1.9
71 99.99
72 6.2
81 1.9
82 14.4
83 30.8
84 2.1
87 1.3
88 1.5
99 35.4
100 2.3
117 1.6
169 1.7
198 2.4

$$$$

     RDKit          2D

  9  8  0  0  0  0  0  0  0  0999 V2000
    1.9486    2.6250    0.0000 C   0  0  0  0  0  0  0  0  0  0  0  0
    0.6495    0.3750    0.0000 C   0  0  0  0  0  0  0  0  0  0  0  0
   -4.5466    3.3750    0.0000 C   0  0  0  0  0  0  0  0  0  0  0  0
    0.6495    3.3750    0.0000 C   0  0  0  0  0  0  0  0  0  0  0  0
   -0.6495    1.1250    0.0000 C   0  0  0  0  0  0  0  0  0  0  0  0
   -0.6495    2.6250    0.0000 C   0  0  0  0  0  0  0  0  0  0  0  0
   -1.9486    3.3750    0.0000 C   0  0  0  0  0  0  0  0  0  0  0  0
   -1.9486    4.8750    0.0000 O   0  0  0  0  0  0  0  0  0  0  0  0
   -3.2476    2.6250    0.0000 O   0  0  0  0  0  0  0  0  0  0  0  0
  4  1  1  0
  5  2  1  0
  6  4  1  0
  6  5  1  0
  7  6  1  0
  8  7  2  0
  9  3  1  0
  9  7  1  0
M  END
>  <NAME>  (821) 
METHYL 2-ETHYLBUTYRATE

>  <SYNONYMS>  (821) 


>  <SPECTRUM TYPE>  (821) 
MS1

>  <INSTRUMENT TYPE>  (821) 
EI-B

>  <INSTRUMENT>  (821) 
HITACHI M-80B

>  <ION MODE>  (821) 
P

>  <INCHIKEY>  (821) 
UNEAEGWIVFZPFI-UHFFFAOYSA-N

>  <FORMULA>  (821) 
C7H14O2

>  <EXACT MASS>  (821) 
130.099379688

>  <MW>  (821) 
130

>  <ID>  (821) 
JP010900

>  <CONTRIBUTOR>  (821) 
University of Tokyo Team, {Faculty of Engineering, University of Tokyo

>  <COMMENT>  (821) 
SMILES=CCC(CC)C(=O)OC
InChI=InChI=1S/C7H14O2/c1-4-6(5-2)7(8)9-3/h6H,4-5H2,1-3H3
computed SMILES=O=C(OC)C(CC)CC
accession=JP010900
date=2016.01.19 (Created 2008.10.21, modified 2011.05.06)
author=SODA AROMATIC CO., LTD.
license=CC BY-NC-SA
exact mass=130.09938
ionization energy=70 eV
ion type=[M]+*
computed spectral entropy=2.6497045388248845
computed normalized entropy=0.7716116517161431
SPLASH=splash10-0udl-9400000000-f222a9f3db4bb91e9b87
submitter=submitter = University of Tokyo Team (Faculty of Engineering, University of Tokyo)
MoNA Rating=3.75

>  <NUM PEAKS>  (821) 
31

>  <MASS SPECTRAL PEAKS>  (821) 
15 5.4
16 1.5
26 2.1
27 10.5
38 1.2
39 10.4
41 14.9
42 5.8
43 53.5
45 1.6
53 2.3
54 1.1
55 17.6
56 2.4
59 13.4
69 9.2
70 6.4
71 31.6
72 2.4
73 2.3
74 2.3
87 63.7
88 5.2
99 16.5
100 2.4
101 29.8
102 99.99
103 4.9
104 1.3
115 6.3
116 1.2

$$$$

     RDKit          2D

 10  9  0  0  0  0  0  0  0  0999 V2000
   -6.4952    4.5000    0.0000 C   0  0  0  0  0  0  0  0  0  0  0  0
    2.5981    3.7500    0.0000 C   0  0  0  0  0  0  0  0  0  0  0  0
   -0.0000    2.2500    0.0000 C   0  0  0  0  0  0  0  0  0  0  0  0
   -5.1962    3.7500    0.0000 C   0  0  0  0  0  0  0  0  0  0  0  0
    1.2990    4.5000    0.0000 C   0  0  0  0  0  0  0  0  0  0  0  0
   -3.8971    4.5000    0.0000 C   0  0  0  0  0  0  0  0  0  0  0  0
   -0.0000    3.7500    0.0000 C   0  0  0  0  0  0  0  0  0  0  0  0
   -1.2990    4.5000    0.0000 C   0  0  0  0  0  0  0  0  0  0  0  0
   -1.2990    6.0000    0.0000 O   0  0  0  0  0  0  0  0  0  0  0  0
   -2.5981    3.7500    0.0000 O   0  0  0  0  0  0  0  0  0  0  0  0
  4  1  2  0
  5  2  1  0
  6  4  1  0
  7  3  1  0
  7  5  1  0
  8  7  1  0
  9  8  2  0
 10  6  1  0
 10  8  1  0
M  END
>  <NAME>  (822) 
ALLYL 2-METHYLBUTYRATE

>  <SYNONYMS>  (822) 


>  <SPECTRUM TYPE>  (822) 
MS1

>  <INSTRUMENT TYPE>  (822) 
EI-B

>  <INSTRUMENT>  (822) 
HITACHI M-80B

>  <ION MODE>  (822) 
P

>  <INCHIKEY>  (822) 
ZSPLJXGRHFJQKO-UHFFFAOYSA-N

>  <FORMULA>  (822) 
C8H14O2

>  <EXACT MASS>  (822) 
142.099379688

>  <MW>  (822) 
142

>  <ID>  (822) 
JP010899

>  <CONTRIBUTOR>  (822) 
University of Tokyo Team, {Faculty of Engineering, University of Tokyo

>  <COMMENT>  (822) 
SMILES=C=CCOC(=O)C(C)CC
InChI=InChI=1S/C8H14O2/c1-4-6-10-8(9)7(3)5-2/h4,7H,1,5-6H2,2-3H3
computed SMILES=O=C(OCC=C)C(C)CC
accession=JP010899
date=2016.01.19 (Created 2008.10.21, modified 2011.05.06)
author=SODA AROMATIC CO., LTD.
license=CC BY-NC-SA
exact mass=142.09938
ionization energy=70 eV
ion type=[M]+*
computed spectral entropy=2.0303578222291376
computed normalized entropy=0.7024555982054671
SPLASH=splash10-0a4u-9000000000-bfebaad07a4111b37762
submitter=submitter = University of Tokyo Team (Faculty of Engineering, University of Tokyo)
MoNA Rating=3.75

>  <NUM PEAKS>  (822) 
18

>  <MASS SPECTRAL PEAKS>  (822) 
26 1.5
27 10.7
29 25.4
38 1
39 17.5
41 53.3
42 2.2
43 1.4
45 1.3
55 6.1
56 5.5
57 99.99
58 6.3
69 4.2
73 1
85 33.6
86 1.7
114 4.8

$$$$

     RDKit          2D

 15 14  0  0  0  0  0  0  0  0999 V2000
    3.2476    5.6250    0.0000 C   0  0  0  0  0  0  0  0  0  0  0  0
   -1.9486    8.6250    0.0000 C   0  0  0  0  0  0  0  0  0  0  0  0
   -9.7428    5.6250    0.0000 C   0  0  0  0  0  0  0  0  0  0  0  0
   -8.4437    7.8750    0.0000 C   0  0  0  0  0  0  0  0  0  0  0  0
    1.9486    6.3750    0.0000 C   0  0  0  0  0  0  0  0  0  0  0  0
   -3.2476    7.8750    0.0000 C   0  0  0  0  0  0  0  0  0  0  0  0
    0.6495    5.6250    0.0000 C   0  0  0  0  0  0  0  0  0  0  0  0
   -0.6495    6.3750    0.0000 C   0  0  0  0  0  0  0  0  0  0  0  0
   -1.9486    5.6250    0.0000 C   0  0  0  0  0  0  0  0  0  0  0  0
   -7.1447    5.6250    0.0000 C   0  0  0  0  0  0  0  0  0  0  0  0
   -8.4437    6.3750    0.0000 C   0  0  0  0  0  0  0  0  0  0  0  0
   -3.2476    6.3750    0.0000 C   0  0  0  0  0  0  0  0  0  0  0  0
   -5.8457    6.3750    0.0000 C   0  0  0  0  0  0  0  0  0  0  0  0
   -5.8457    7.8750    0.0000 O   0  0  0  0  0  0  0  0  0  0  0  0
   -4.5466    5.6250    0.0000 O   0  0  0  0  0  0  0  0  0  0  0  0
  5  1  1  0
  6  2  1  0
  7  5  1  0
  8  7  1  0
  9  8  1  0
 11  3  1  0
 11  4  1  0
 11 10  1  0
 12  6  1  0
 12  9  1  0
 13 10  1  0
 14 13  2  0
 15 12  1  0
 15 13  1  0
M  END
>  <NAME>  (823) 
3-OCTYL ISOVALERATE

>  <SYNONYMS>  (823) 


>  <SPECTRUM TYPE>  (823) 
MS1

>  <INSTRUMENT TYPE>  (823) 
EI-B

>  <INSTRUMENT>  (823) 
HITACHI M-80B

>  <ION MODE>  (823) 
P

>  <INCHIKEY>  (823) 
NRBJSRMBRQHOPL-UHFFFAOYSA-N

>  <FORMULA>  (823) 
C13H26O2

>  <EXACT MASS>  (823) 
214.193280072

>  <MW>  (823) 
214

>  <ID>  (823) 
JP010898

>  <CONTRIBUTOR>  (823) 
University of Tokyo Team, {Faculty of Engineering, University of Tokyo

>  <COMMENT>  (823) 
SMILES=CCCCCC(CC)OC(=O)CC(C)C
InChI=InChI=1S/C13H26O2/c1-5-7-8-9-12(6-2)15-13(14)10-11(3)4/h11-12H,5-10H2,1-4H3
computed SMILES=O=C(OC(CC)CCCCC)CC(C)C
accession=JP010898
date=2016.01.19 (Created 2008.10.21, modified 2011.05.06)
author=SODA AROMATIC CO., LTD.
license=CC BY-NC-SA
exact mass=214.19328
ionization energy=70 eV
ion type=[M]+*
computed spectral entropy=2.8127021886262282
computed normalized entropy=0.7677507464894702
SPLASH=splash10-052r-9000000000-440323eeec59d69b9584
submitter=submitter = University of Tokyo Team (Faculty of Engineering, University of Tokyo)
MoNA Rating=3.75

>  <NUM PEAKS>  (823) 
39

>  <MASS SPECTRAL PEAKS>  (823) 
15 1.3
20 1.7
27 7.2
29 8.9
31 1.2
32 8
39 5.3
40 6.2
41 25
42 6.5
43 15.4
45 1.3
53 1.6
54 1.5
55 11.4
56 10.3
57 52.1
58 3.1
59 2.3
60 5.9
61 1.4
69 5.2
70 9.7
72 1.1
82 1.9
83 6.3
84 4.2
85 99.99
86 5
87 3.4
97 1.1
100 1.3
102 5.2
103 7.2
112 10
113 2.1
129 1.2
143 4.1
185 1.9

$$$$

     RDKit          2D

 15 14  0  0  0  0  0  0  0  0999 V2000
    3.2476    5.6250    0.0000 C   0  0  0  0  0  0  0  0  0  0  0  0
   -9.7428    5.6250    0.0000 C   0  0  0  0  0  0  0  0  0  0  0  0
   -1.9486    8.6250    0.0000 C   0  0  0  0  0  0  0  0  0  0  0  0
   -7.1447    4.1250    0.0000 C   0  0  0  0  0  0  0  0  0  0  0  0
    1.9486    6.3750    0.0000 C   0  0  0  0  0  0  0  0  0  0  0  0
   -8.4437    6.3750    0.0000 C   0  0  0  0  0  0  0  0  0  0  0  0
   -3.2476    7.8750    0.0000 C   0  0  0  0  0  0  0  0  0  0  0  0
    0.6495    5.6250    0.0000 C   0  0  0  0  0  0  0  0  0  0  0  0
   -0.6495    6.3750    0.0000 C   0  0  0  0  0  0  0  0  0  0  0  0
   -1.9486    5.6250    0.0000 C   0  0  0  0  0  0  0  0  0  0  0  0
   -7.1447    5.6250    0.0000 C   0  0  0  0  0  0  0  0  0  0  0  0
   -3.2476    6.3750    0.0000 C   0  0  0  0  0  0  0  0  0  0  0  0
   -5.8457    6.3750    0.0000 C   0  0  0  0  0  0  0  0  0  0  0  0
   -5.8457    7.8750    0.0000 O   0  0  0  0  0  0  0  0  0  0  0  0
   -4.5466    5.6250    0.0000 O   0  0  0  0  0  0  0  0  0  0  0  0
  5  1  1  0
  6  2  1  0
  7  3  1  0
  8  5  1  0
  9  8  1  0
 10  9  1  0
 11  4  1  0
 11  6  1  0
 12  7  1  0
 12 10  1  0
 13 11  1  0
 14 13  2  0
 15 12  1  0
 15 13  1  0
M  END
>  <NAME>  (824) 
3-OCTYL 2-METHYLBUTYRATE

>  <SYNONYMS>  (824) 


>  <SPECTRUM TYPE>  (824) 
MS1

>  <INSTRUMENT TYPE>  (824) 
EI-B

>  <INSTRUMENT>  (824) 
HITACHI M-80B

>  <ION MODE>  (824) 
P

>  <INCHIKEY>  (824) 
STGKDMMHQYQHRE-UHFFFAOYSA-N

>  <FORMULA>  (824) 
C13H26O2

>  <EXACT MASS>  (824) 
214.193280072

>  <MW>  (824) 
214

>  <ID>  (824) 
JP010897

>  <CONTRIBUTOR>  (824) 
University of Tokyo Team, {Faculty of Engineering, University of Tokyo

>  <COMMENT>  (824) 
SMILES=CCCCCC(CC)OC(=O)C(C)CC
InChI=InChI=1S/C13H26O2/c1-5-8-9-10-12(7-3)15-13(14)11(4)6-2/h11-12H,5-10H2,1-4H3
computed SMILES=O=C(OC(CC)CCCCC)C(C)CC
accession=JP010897
date=2016.01.19 (Created 2008.10.21, modified 2011.05.06)
author=SODA AROMATIC CO., LTD.
license=CC BY-NC-SA
exact mass=214.19328
ionization energy=70 eV
ion type=[M]+*
computed spectral entropy=2.692152350368967
computed normalized entropy=0.7699546770720678
SPLASH=splash10-0a4r-9000000000-9301ace41ac37ced6561
submitter=submitter = University of Tokyo Team (Faculty of Engineering, University of Tokyo)
MoNA Rating=3.75

>  <NUM PEAKS>  (824) 
33

>  <MASS SPECTRAL PEAKS>  (824) 
27 10.3
29 26.6
31 1.1
39 6.4
41 32.9
42 5.9
43 19.6
44 1.2
53 1.3
54 1.2
55 15.2
56 13.4
57 99.99
58 5.2
59 2.6
69 6.3
70 11.6
71 25.1
72 1.4
74 4.1
82 1.3
83 8.5
84 4.8
85 86.4
86 5.3
87 1.6
99 1.2
102 2.3
103 12.6
112 14.7
113 2.4
143 4.6
185 1.3

$$$$

     RDKit          2D

 13 12  0  0  0  0  0  0  0  0999 V2000
   -9.7428    5.6250    0.0000 C   0  0  0  0  0  0  0  0  0  0  0  0
    3.2476    5.6250    0.0000 C   0  0  0  0  0  0  0  0  0  0  0  0
    0.6495    7.1250    0.0000 C   0  0  0  0  0  0  0  0  0  0  0  0
   -8.4437    4.8750    0.0000 C   0  0  0  0  0  0  0  0  0  0  0  0
    1.9486    4.8750    0.0000 C   0  0  0  0  0  0  0  0  0  0  0  0
   -7.1447    5.6250    0.0000 C   0  0  0  0  0  0  0  0  0  0  0  0
   -5.8457    4.8750    0.0000 C   0  0  0  0  0  0  0  0  0  0  0  0
   -4.5466    5.6250    0.0000 C   0  0  0  0  0  0  0  0  0  0  0  0
   -3.2476    4.8750    0.0000 C   0  0  0  0  0  0  0  0  0  0  0  0
    0.6495    5.6250    0.0000 C   0  0  0  0  0  0  0  0  0  0  0  0
   -0.6495    4.8750    0.0000 C   0  0  0  0  0  0  0  0  0  0  0  0
   -0.6495    3.3750    0.0000 O   0  0  0  0  0  0  0  0  0  0  0  0
   -1.9486    5.6250    0.0000 O   0  0  0  0  0  0  0  0  0  0  0  0
  4  1  1  0
  5  2  1  0
  6  4  1  0
  7  6  1  0
  7  8  2  0
  9  8  1  0
 10  3  1  0
 10  5  1  0
 11 10  1  0
 12 11  2  0
 13  9  1  0
 13 11  1  0
M  END
>  <NAME>  (825) 
TRANS-2-HEXENYL 2-METHYLBUTYRATE

>  <SYNONYMS>  (825) 


>  <SPECTRUM TYPE>  (825) 
MS1

>  <INSTRUMENT TYPE>  (825) 
EI-B

>  <INSTRUMENT>  (825) 
HITACHI M-80B

>  <ION MODE>  (825) 
P

>  <INCHIKEY>  (825) 
SXJKRFLZGRFPBD-BQYQJAHWSA-N

>  <FORMULA>  (825) 
C11H20O2

>  <EXACT MASS>  (825) 
184.14632988

>  <MW>  (825) 
184

>  <ID>  (825) 
JP010896

>  <CONTRIBUTOR>  (825) 
University of Tokyo Team, {Faculty of Engineering, University of Tokyo

>  <COMMENT>  (825) 
SMILES=CCCC=CCOC(=O)C(C)CC
InChI=InChI=1S/C11H20O2/c1-4-6-7-8-9-13-11(12)10(3)5-2/h7-8,10H,4-6,9H2,1-3H3/b8-7+
computed SMILES=O=C(OCC=CCCC)C(C)CC
accession=JP010896
date=2016.01.19 (Created 2008.10.21, modified 2011.05.06)
author=SODA AROMATIC CO., LTD.
license=CC BY-NC-SA
exact mass=184.14633
ionization energy=70 eV
ion type=[M]+*
computed spectral entropy=2.442009561976219
computed normalized entropy=0.7900278300361278
SPLASH=splash10-0a4i-9000000000-1fc04ce24b13844e373a
submitter=submitter = University of Tokyo Team (Faculty of Engineering, University of Tokyo)
MoNA Rating=3.75

>  <NUM PEAKS>  (825) 
22

>  <MASS SPECTRAL PEAKS>  (825) 
27 14.6
29 26.9
39 14.9
41 48.5
42 4
43 2.9
53 4.9
54 9
55 46.8
56 5.7
57 99.99
58 4.3
67 16.7
69 1.1
81 2.1
82 12.5
83 25.5
84 2.2
85 40.1
86 1.6
103 1.4
184 2.1

$$$$

     RDKit          2D

 18 17  0  0  0  0  0  0  0  0999 V2000
  -15.5885    9.0000    0.0000 C   0  0  0  0  0  0  0  0  0  0  0  0
    5.1962    9.0000    0.0000 C   0  0  0  0  0  0  0  0  0  0  0  0
  -14.2894    8.2500    0.0000 C   0  0  0  0  0  0  0  0  0  0  0  0
    3.8971    8.2500    0.0000 C   0  0  0  0  0  0  0  0  0  0  0  0
  -12.9904    9.0000    0.0000 C   0  0  0  0  0  0  0  0  0  0  0  0
    2.5981    9.0000    0.0000 C   0  0  0  0  0  0  0  0  0  0  0  0
  -11.6913    8.2500    0.0000 C   0  0  0  0  0  0  0  0  0  0  0  0
    1.2990    8.2500    0.0000 C   0  0  0  0  0  0  0  0  0  0  0  0
  -10.3923    9.0000    0.0000 C   0  0  0  0  0  0  0  0  0  0  0  0
   -9.0933    8.2500    0.0000 C   0  0  0  0  0  0  0  0  0  0  0  0
   -7.7942    9.0000    0.0000 C   0  0  0  0  0  0  0  0  0  0  0  0
   -6.4952    8.2500    0.0000 C   0  0  0  0  0  0  0  0  0  0  0  0
    0.0000    9.0000    0.0000 C   0  0  0  0  0  0  0  0  0  0  0  0
   -5.1962    9.0000    0.0000 C   0  0  0  0  0  0  0  0  0  0  0  0
   -1.2990    8.2500    0.0000 C   0  0  0  0  0  0  0  0  0  0  0  0
   -3.8971    8.2500    0.0000 C   0  0  0  0  0  0  0  0  0  0  0  0
   -3.8971    6.7500    0.0000 O   0  0  0  0  0  0  0  0  0  0  0  0
   -2.5981    9.0000    0.0000 O   0  0  0  0  0  0  0  0  0  0  0  0
  3  1  1  0
  4  2  1  0
  5  3  1  0
  6  4  1  0
  7  5  1  0
  8  6  1  0
  9  7  1  0
 10  9  1  0
 11 10  1  0
 12 11  1  0
  8 13  2  0
 14 12  1  0
 15 13  1  0
 16 14  1  0
 17 16  2  0
 18 15  1  0
 18 16  1  0
M  END
>  <NAME>  (826) 
TRANS-2-HEXENYL DECANOATE

>  <SYNONYMS>  (826) 


>  <SPECTRUM TYPE>  (826) 
MS1

>  <INSTRUMENT TYPE>  (826) 
EI-B

>  <INSTRUMENT>  (826) 
HITACHI M-80B

>  <ION MODE>  (826) 
P

>  <INCHIKEY>  (826) 
IRAVWWBOSKWULT-MDWZMJQESA-N

>  <FORMULA>  (826) 
C16H30O2

>  <EXACT MASS>  (826) 
254.2245802

>  <MW>  (826) 
254

>  <ID>  (826) 
JP010895

>  <CONTRIBUTOR>  (826) 
University of Tokyo Team, {Faculty of Engineering, University of Tokyo

>  <COMMENT>  (826) 
SMILES=CCCCCCCCCC(=O)OCC=CCCC
InChI=InChI=1S/C16H30O2/c1-3-5-7-9-10-11-12-14-16(17)18-15-13-8-6-4-2/h8,13H,3-7,9-12,14-15H2,1-2H3/b13-8+
computed SMILES=O=C(OCC=CCCC)CCCCCCCCC
accession=JP010895
date=2016.01.19 (Created 2008.10.21, modified 2011.05.06)
author=SODA AROMATIC CO., LTD.
license=CC BY-NC-SA
exact mass=254.22458
ionization energy=70 eV
ion type=[M]+*
computed spectral entropy=3.3608804862384645
computed normalized entropy=0.7910754972664784
SPLASH=splash10-0a4l-9100000000-5e86fbc682ddd0e1332f
submitter=submitter = University of Tokyo Team (Faculty of Engineering, University of Tokyo)
MoNA Rating=3.75

>  <NUM PEAKS>  (826) 
70

>  <MASS SPECTRAL PEAKS>  (826) 
15 1.3
16 1.2
26 1.3
27 15.7
29 9.3
32 3.32
38 2.4
39 16.9
40 3.9
41 71.9
42 13
43 50.6
45 1.8
50 2.3
51 2
52 1.5
53 8.1
54 12.7
55 70.6
56 10
57 47.3
58 1.8
59 1.2
60 3.7
65 3.6
66 1.9
67 58.5
68 5.6
69 16.6
70 4.2
71 46.9
72 3.2
73 4.1
77 1.3
79 3.4
80 1.2
81 14.4
82 60.5
83 32.4
84 6.3
85 25.3
86 2.3
87 2.5
95 10.2
96 2.3
97 5
98 4
99 7.6
100 6.6
101 1.9
109 1.7
110 1.8
111 4
112 1.3
114 1.1
115 1.7
127 1.7
129 2.1
135 3
137 1.8
142 1.1
153 4.3
155 99.99
156 10.6
171 1.1
172 2.8
173 1.4
211 1.6
225 3.5
254 4.5

$$$$

     RDKit          2D

 19 18  0  0  0  0  0  0  0  0999 V2000
  -16.2380   10.1250    0.0000 C   0  0  0  0  0  0  0  0  0  0  0  0
    5.8457    9.3750    0.0000 C   0  0  0  0  0  0  0  0  0  0  0  0
  -14.9389    9.3750    0.0000 C   0  0  0  0  0  0  0  0  0  0  0  0
    4.5466   10.1250    0.0000 C   0  0  0  0  0  0  0  0  0  0  0  0
  -13.6399   10.1250    0.0000 C   0  0  0  0  0  0  0  0  0  0  0  0
    3.2476    9.3750    0.0000 C   0  0  0  0  0  0  0  0  0  0  0  0
  -12.3409    9.3750    0.0000 C   0  0  0  0  0  0  0  0  0  0  0  0
    1.9486   10.1250    0.0000 C   0  0  0  0  0  0  0  0  0  0  0  0
  -11.0418   10.1250    0.0000 C   0  0  0  0  0  0  0  0  0  0  0  0
   -9.7428    9.3750    0.0000 C   0  0  0  0  0  0  0  0  0  0  0  0
    0.6495    9.3750    0.0000 C   0  0  0  0  0  0  0  0  0  0  0  0
   -8.4437   10.1250    0.0000 C   0  0  0  0  0  0  0  0  0  0  0  0
   -0.6495   10.1250    0.0000 C   0  0  0  0  0  0  0  0  0  0  0  0
   -7.1447    9.3750    0.0000 C   0  0  0  0  0  0  0  0  0  0  0  0
   -1.9486    9.3750    0.0000 C   0  0  0  0  0  0  0  0  0  0  0  0
   -5.8457   10.1250    0.0000 C   0  0  0  0  0  0  0  0  0  0  0  0
   -3.2476   10.1250    0.0000 C   0  0  0  0  0  0  0  0  0  0  0  0
   -3.2476   11.6250    0.0000 O   0  0  0  0  0  0  0  0  0  0  0  0
   -4.5466    9.3750    0.0000 O   0  0  0  0  0  0  0  0  0  0  0  0
  3  1  1  0
  4  2  1  0
  5  3  1  0
  6  4  1  0
  7  5  1  0
  8  6  1  0
  9  7  1  0
 10  9  1  0
 11  8  1  0
 12 10  1  0
 13 11  1  0
 14 12  1  0
 15 13  1  0
 16 14  1  0
 17 15  1  0
 18 17  2  0
 19 16  1  0
 19 17  1  0
M  END
>  <NAME>  (827) 
NONYL OCTANOATE

>  <SYNONYMS>  (827) 


>  <SPECTRUM TYPE>  (827) 
MS1

>  <INSTRUMENT TYPE>  (827) 
EI-B

>  <INSTRUMENT>  (827) 
HITACHI M-80B

>  <ION MODE>  (827) 
P

>  <INCHIKEY>  (827) 
HSGQXSBXGSRINJ-UHFFFAOYSA-N

>  <FORMULA>  (827) 
C17H34O2

>  <EXACT MASS>  (827) 
270.255880328

>  <MW>  (827) 
270

>  <ID>  (827) 
JP010894

>  <CONTRIBUTOR>  (827) 
University of Tokyo Team, {Faculty of Engineering, University of Tokyo

>  <COMMENT>  (827) 
SMILES=CCCCCCCCCOC(=O)CCCCCCC
InChI=InChI=1S/C17H34O2/c1-3-5-7-9-10-12-14-16-19-17(18)15-13-11-8-6-4-2/h3-16H2,1-2H3
computed SMILES=O=C(OCCCCCCCCC)CCCCCCC
accession=JP010894
date=2016.01.19 (Created 2008.10.21, modified 2011.05.06)
author=SODA AROMATIC CO., LTD.
license=CC BY-NC-SA
exact mass=270.25588
ionization energy=70 eV
ion type=[M]+*
computed spectral entropy=3.329638042577529
computed normalized entropy=0.8235458375379139
SPLASH=splash10-0a6u-9200000000-51eca3edc1355a2cb56a
submitter=submitter = University of Tokyo Team (Faculty of Engineering, University of Tokyo)
MoNA Rating=3.75

>  <NUM PEAKS>  (827) 
57

>  <MASS SPECTRAL PEAKS>  (827) 
26 1
27 18.3
29 36.5
30 1.1
31 1
39 8.4
41 74.3
42 25.5
43 99.99
44 2.1
45 1.8
53 2.9
54 5.2
55 64.9
56 48.2
57 91
58 3.6
59 1.6
60 11.8
61 24.4
67 6.6
68 8.3
69 33.5
70 39.4
71 28.4
72 1.5
73 14.7
74 1.2
81 2.5
82 15.8
83 34.3
84 35.3
85 18.5
86 1
87 4.9
89 3.6
95 1
96 4.4
97 33.5
98 29.8
99 1.9
101 7.5
103 1.9
109 2.1
111 1.8
115 3.3
116 2.2
125 1.5
126 51
127 42.2
128 3.1
129 1.1
143 1.1
144 7.5
145 89.6
146 6.8
171 2.1

$$$$

     RDKit          2D

 14 13  0  0  0  0  0  0  0  0999 V2000
   -8.7685    6.1875    0.0000 C   0  0  0  0  0  0  0  0  0  0  0  0
   -7.4695    3.9375    0.0000 C   0  0  0  0  0  0  0  0  0  0  0  0
    4.2219    6.1875    0.0000 C   0  0  0  0  0  0  0  0  0  0  0  0
    2.9228    3.9375    0.0000 C   0  0  0  0  0  0  0  0  0  0  0  0
   -4.8714    5.4375    0.0000 C   0  0  0  0  0  0  0  0  0  0  0  0
   -6.1704    6.1875    0.0000 C   0  0  0  0  0  0  0  0  0  0  0  0
    1.6238    6.1875    0.0000 C   0  0  0  0  0  0  0  0  0  0  0  0
    0.3248    5.4375    0.0000 C   0  0  0  0  0  0  0  0  0  0  0  0
   -3.5724    6.1875    0.0000 C   0  0  0  0  0  0  0  0  0  0  0  0
   -7.4695    5.4375    0.0000 C   0  0  0  0  0  0  0  0  0  0  0  0
    2.9228    5.4375    0.0000 C   0  0  0  0  0  0  0  0  0  0  0  0
   -0.9743    6.1875    0.0000 C   0  0  0  0  0  0  0  0  0  0  0  0
   -0.9743    7.6875    0.0000 O   0  0  0  0  0  0  0  0  0  0  0  0
   -2.2733    5.4375    0.0000 O   0  0  0  0  0  0  0  0  0  0  0  0
  6  5  1  0
  8  7  1  0
  9  5  1  0
 10  1  1  0
 10  2  1  0
 10  6  1  0
 11  3  1  0
 11  4  1  0
 11  7  1  0
 12  8  1  0
 13 12  2  0
 14  9  1  0
 14 12  1  0
M  END
>  <NAME>  (828) 
4-METHYLPENTYL 4-METHYLPENTANOATE

>  <SYNONYMS>  (828) 


>  <SPECTRUM TYPE>  (828) 
MS1

>  <INSTRUMENT TYPE>  (828) 
EI-B

>  <INSTRUMENT>  (828) 
HITACHI M-80B

>  <ION MODE>  (828) 
P

>  <INCHIKEY>  (828) 
BQOKYGYERMXUDU-UHFFFAOYSA-N

>  <FORMULA>  (828) 
C12H24O2

>  <EXACT MASS>  (828) 
200.177630008

>  <MW>  (828) 
200

>  <ID>  (828) 
JP010893

>  <CONTRIBUTOR>  (828) 
University of Tokyo Team, {Faculty of Engineering, University of Tokyo

>  <COMMENT>  (828) 
SMILES=CC(C)CCCOC(=O)CCC(C)C
InChI=InChI=1S/C12H24O2/c1-10(2)6-5-9-14-12(13)8-7-11(3)4/h10-11H,5-9H2,1-4H3
computed SMILES=O=C(OCCCC(C)C)CCC(C)C
accession=JP010893
date=2016.01.19 (Created 2008.10.21, modified 2011.05.06)
author=SODA AROMATIC CO., LTD.
license=CC BY-NC-SA
exact mass=200.17763
ionization energy=70 eV
ion type=[M]+*
computed spectral entropy=2.9208533181593173
computed normalized entropy=0.7972715079723143
SPLASH=splash10-05mo-9100000000-e06c8ca810a82b2ecfeb
submitter=submitter = University of Tokyo Team (Faculty of Engineering, University of Tokyo)
MoNA Rating=3.75

>  <NUM PEAKS>  (828) 
39

>  <MASS SPECTRAL PEAKS>  (828) 
27 15.8
29 14.2
39 10.8
41 45.2
42 13
43 99.99
44 2.9
53 2.8
55 20.3
56 65.7
57 14.8
58 1.1
59 1.7
60 1.4
61 1.1
67 1.5
68 1.1
69 27.2
70 4
71 9.9
73 6.1
74 1.4
75 1
81 17.7
82 1.3
83 7.3
84 48.5
85 24.6
86 1.2
87 1.1
97 1.5
99 34.7
100 2.8
101 7.8
115 2
116 3.5
117 48.3
118 3.1
157 5

$$$$

     RDKit          2D

 17 16  0  0  0  0  0  0  0  0999 V2000
    4.5466    7.8750    0.0000 C   0  0  0  0  0  0  0  0  0  0  0  0
  -13.6399    7.8750    0.0000 C   0  0  0  0  0  0  0  0  0  0  0  0
  -12.3409   10.1250    0.0000 C   0  0  0  0  0  0  0  0  0  0  0  0
    3.2476    8.6250    0.0000 C   0  0  0  0  0  0  0  0  0  0  0  0
    1.9486    7.8750    0.0000 C   0  0  0  0  0  0  0  0  0  0  0  0
    0.6495    8.6250    0.0000 C   0  0  0  0  0  0  0  0  0  0  0  0
   -0.6495    7.8750    0.0000 C   0  0  0  0  0  0  0  0  0  0  0  0
   -1.9486    8.6250    0.0000 C   0  0  0  0  0  0  0  0  0  0  0  0
   -3.2476    7.8750    0.0000 C   0  0  0  0  0  0  0  0  0  0  0  0
   -4.5466    8.6250    0.0000 C   0  0  0  0  0  0  0  0  0  0  0  0
   -5.8457    7.8750    0.0000 C   0  0  0  0  0  0  0  0  0  0  0  0
   -7.1447    8.6250    0.0000 C   0  0  0  0  0  0  0  0  0  0  0  0
  -11.0418    7.8750    0.0000 C   0  0  0  0  0  0  0  0  0  0  0  0
  -12.3409    8.6250    0.0000 C   0  0  0  0  0  0  0  0  0  0  0  0
   -9.7428    8.6250    0.0000 C   0  0  0  0  0  0  0  0  0  0  0  0
   -9.7428   10.1250    0.0000 O   0  0  0  0  0  0  0  0  0  0  0  0
   -8.4437    7.8750    0.0000 O   0  0  0  0  0  0  0  0  0  0  0  0
  4  1  1  0
  5  4  1  0
  6  5  1  0
  7  6  1  0
  8  7  1  0
  9  8  1  0
 10  9  1  0
 11 10  1  0
 12 11  1  0
 14  2  1  0
 14  3  1  0
 14 13  1  0
 15 13  1  0
 16 15  2  0
 17 12  1  0
 17 15  1  0
M  END
>  <NAME>  (829) 
DECYL ISOVALERATE

>  <SYNONYMS>  (829) 


>  <SPECTRUM TYPE>  (829) 
MS1

>  <INSTRUMENT TYPE>  (829) 
EI-B

>  <INSTRUMENT>  (829) 
HITACHI M-80B

>  <ION MODE>  (829) 
P

>  <INCHIKEY>  (829) 
VKGHOXUAAAZEBE-UHFFFAOYSA-N

>  <FORMULA>  (829) 
C15H30O2

>  <EXACT MASS>  (829) 
242.2245802

>  <MW>  (829) 
242

>  <ID>  (829) 
JP010892

>  <CONTRIBUTOR>  (829) 
University of Tokyo Team, {Faculty of Engineering, University of Tokyo

>  <COMMENT>  (829) 
SMILES=CCCCCCCCCCOC(=O)CC(C)C
InChI=InChI=1S/C15H30O2/c1-4-5-6-7-8-9-10-11-12-17-15(16)13-14(2)3/h14H,4-13H2,1-3H3
computed SMILES=O=C(OCCCCCCCCCC)CC(C)C
accession=JP010892
date=2016.01.19 (Created 2008.10.21, modified 2011.05.06)
author=SODA AROMATIC CO., LTD.
license=CC BY-NC-SA
exact mass=242.22458
ionization energy=70 eV
ion type=[M]+*
computed spectral entropy=3.1414254375546804
computed normalized entropy=0.8114860036208607
SPLASH=splash10-0pbc-9200000000-6302b1c7fb49f5df5b2e
submitter=submitter = University of Tokyo Team (Faculty of Engineering, University of Tokyo)
MoNA Rating=3.75

>  <NUM PEAKS>  (829) 
48

>  <MASS SPECTRAL PEAKS>  (829) 
27 15.5
28 2.8
29 35.9
31 1.6
39 10.6
40 3.1
41 75
42 21.2
43 73.2
44 2.5
45 2
53 3.3
54 4.3
55 46.9
56 40.3
57 96.4
58 3.7
59 3.8
60 6.2
61 11.6
67 4.5
68 8
69 27.6
70 37.1
71 16.9
72 1.4
81 1.9
82 10.4
83 29.3
84 22
85 73.9
86 3.4
99 1.6
100 1.2
101 1.4
102 7.1
103 99.99
104 5.4
110 2.1
111 10.5
112 17.1
113 1.6
115 1.1
116 1
140 34.7
141 3.2
158 2.4
185 2

$$$$

     RDKit          2D

 15 14  0  0  0  0  0  0  0  0999 V2000
    4.5466    7.1250    0.0000 C   0  0  0  0  0  0  0  0  0  0  0  0
  -12.3409    7.8750    0.0000 C   0  0  0  0  0  0  0  0  0  0  0  0
    3.2476    7.8750    0.0000 C   0  0  0  0  0  0  0  0  0  0  0  0
  -11.0418    7.1250    0.0000 C   0  0  0  0  0  0  0  0  0  0  0  0
    1.9486    7.1250    0.0000 C   0  0  0  0  0  0  0  0  0  0  0  0
   -9.7428    7.8750    0.0000 C   0  0  0  0  0  0  0  0  0  0  0  0
    0.6495    7.8750    0.0000 C   0  0  0  0  0  0  0  0  0  0  0  0
   -8.4437    7.1250    0.0000 C   0  0  0  0  0  0  0  0  0  0  0  0
   -0.6495    7.1250    0.0000 C   0  0  0  0  0  0  0  0  0  0  0  0
   -7.1447    7.8750    0.0000 C   0  0  0  0  0  0  0  0  0  0  0  0
   -1.9486    7.8750    0.0000 C   0  0  0  0  0  0  0  0  0  0  0  0
   -5.8457    7.1250    0.0000 C   0  0  0  0  0  0  0  0  0  0  0  0
   -3.2476    7.1250    0.0000 C   0  0  0  0  0  0  0  0  0  0  0  0
   -3.2476    5.6250    0.0000 O   0  0  0  0  0  0  0  0  0  0  0  0
   -4.5466    7.8750    0.0000 O   0  0  0  0  0  0  0  0  0  0  0  0
  3  1  1  0
  4  2  1  0
  5  3  1  0
  6  4  1  0
  7  5  1  0
  8  6  1  0
  9  7  1  0
  8 10  2  0
 11  9  1  0
 12 10  1  0
 13 11  1  0
 14 13  2  0
 15 12  1  0
 15 13  1  0
M  END
>  <NAME>  (830) 
TRANS-2-HEXENYL HEPTANOATE

>  <SYNONYMS>  (830) 


>  <SPECTRUM TYPE>  (830) 
MS1

>  <INSTRUMENT TYPE>  (830) 
EI-B

>  <INSTRUMENT>  (830) 
HITACHI M-80B

>  <ION MODE>  (830) 
P

>  <INCHIKEY>  (830) 
QZZLOJKCWGHIFS-CSKARUKUSA-N

>  <FORMULA>  (830) 
C13H24O2

>  <EXACT MASS>  (830) 
212.177630008

>  <MW>  (830) 
212

>  <ID>  (830) 
JP010891

>  <CONTRIBUTOR>  (830) 
University of Tokyo Team, {Faculty of Engineering, University of Tokyo

>  <COMMENT>  (830) 
SMILES=CCCCCCC(=O)OCC=CCCC
InChI=InChI=1S/C13H24O2/c1-3-5-7-9-11-13(14)15-12-10-8-6-4-2/h8,10H,3-7,9,11-12H2,1-2H3/b10-8+
computed SMILES=O=C(OCC=CCCC)CCCCCC
accession=JP010891
date=2016.01.19 (Created 2008.10.21, modified 2011.05.06)
author=SODA AROMATIC CO., LTD.
license=CC BY-NC-SA
exact mass=212.17763
ionization energy=70 eV
ion type=[M]+*
computed spectral entropy=2.9865810773420476
computed normalized entropy=0.7714869542880237
SPLASH=splash10-01ox-9200000000-47bfa7c8aa95974b8393
submitter=submitter = University of Tokyo Team (Faculty of Engineering, University of Tokyo)
MoNA Rating=3.75

>  <NUM PEAKS>  (830) 
48

>  <MASS SPECTRAL PEAKS>  (830) 
26 1.3
27 19.7
29 20.7
38 1
39 20.1
41 58.8
42 10
43 77.3
44 2
45 1.5
50 1.3
51 1.9
52 1.4
53 6.8
54 13.4
55 51.3
56 6.1
57 18.2
58 1.1
60 3.3
65 2.4
66 1.2
67 42.8
68 3.3
69 6.8
70 2.8
71 1.8
73 1.7
77 1
79 1.8
81 4.6
82 37.6
83 27.4
84 3.1
85 30.3
86 1.8
87 1.7
95 3
99 3.7
100 4
111 2.6
113 99.99
114 6
130 1.2
131 1.7
155 1.6
183 2.1
212 2.5

$$$$

     RDKit          2D

 15 14  0  0  0  0  0  0  0  0999 V2000
    3.8971    6.0000    0.0000 C   0  0  0  0  0  0  0  0  0  0  0  0
  -10.3923    6.7500    0.0000 C   0  0  0  0  0  0  0  0  0  0  0  0
   -6.4952    9.0000    0.0000 C   0  0  0  0  0  0  0  0  0  0  0  0
    2.5981    6.7500    0.0000 C   0  0  0  0  0  0  0  0  0  0  0  0
   -9.0933    6.0000    0.0000 C   0  0  0  0  0  0  0  0  0  0  0  0
   -5.1962    8.2500    0.0000 C   0  0  0  0  0  0  0  0  0  0  0  0
    1.2990    6.0000    0.0000 C   0  0  0  0  0  0  0  0  0  0  0  0
   -7.7942    6.7500    0.0000 C   0  0  0  0  0  0  0  0  0  0  0  0
    0.0000    6.7500    0.0000 C   0  0  0  0  0  0  0  0  0  0  0  0
   -6.4952    6.0000    0.0000 C   0  0  0  0  0  0  0  0  0  0  0  0
   -1.2990    6.0000    0.0000 C   0  0  0  0  0  0  0  0  0  0  0  0
   -5.1962    6.7500    0.0000 C   0  0  0  0  0  0  0  0  0  0  0  0
   -2.5981    6.7500    0.0000 C   0  0  0  0  0  0  0  0  0  0  0  0
   -2.5981    8.2500    0.0000 O   0  0  0  0  0  0  0  0  0  0  0  0
   -3.8971    6.0000    0.0000 O   0  0  0  0  0  0  0  0  0  0  0  0
  4  1  1  0
  5  2  1  0
  6  3  1  0
  7  4  1  0
  8  5  1  0
  9  7  1  0
 10  8  1  0
 11  9  1  0
 12  6  1  0
 12 10  1  0
 13 11  1  0
 14 13  2  0
 15 12  1  0
 15 13  1  0
M  END
>  <NAME>  (831) 
3-HEPTYL HEXANOATE

>  <SYNONYMS>  (831) 


>  <SPECTRUM TYPE>  (831) 
MS1

>  <INSTRUMENT TYPE>  (831) 
EI-B

>  <INSTRUMENT>  (831) 
HITACHI M-80B

>  <ION MODE>  (831) 
P

>  <INCHIKEY>  (831) 
KDHWURFMXQEFPK-UHFFFAOYSA-N

>  <FORMULA>  (831) 
C13H26O2

>  <EXACT MASS>  (831) 
214.193280072

>  <MW>  (831) 
214

>  <ID>  (831) 
JP010890

>  <CONTRIBUTOR>  (831) 
University of Tokyo Team, {Faculty of Engineering, University of Tokyo

>  <COMMENT>  (831) 
SMILES=CCCCCC(=O)OC(CC)CCCC
InChI=InChI=1S/C13H26O2/c1-4-7-9-11-13(14)15-12(6-3)10-8-5-2/h12H,4-11H2,1-3H3
computed SMILES=O=C(OC(CC)CCCC)CCCCC
accession=JP010890
date=2016.01.19 (Created 2008.10.21, modified 2011.05.06)
author=SODA AROMATIC CO., LTD.
license=CC BY-NC-SA
exact mass=214.19328
ionization energy=70 eV
ion type=[M]+*
computed spectral entropy=2.808226943634585
computed normalized entropy=0.8031519721515427
SPLASH=splash10-052e-9000000000-02033563ae86ce8791cb
submitter=submitter = University of Tokyo Team (Faculty of Engineering, University of Tokyo)
MoNA Rating=3.75

>  <NUM PEAKS>  (831) 
33

>  <MASS SPECTRAL PEAKS>  (831) 
27 11.6
29 20.3
31 1.1
39 6.7
41 29.2
42 10
43 41.6
44 1.7
45 1
53 1.6
54 1.6
55 16.7
56 23.2
57 29.1
58 1.7
59 1.7
60 9
61 1.8
69 12.5
70 11.5
71 23.2
72 1.7
73 2.9
83 1.6
87 1.9
98 20.5
99 99.99
100 6.4
115 1.7
116 7.7
117 11.1
157 2.5
185 1.3

$$$$

     RDKit          2D

 13 12  0  0  0  0  0  0  0  0999 V2000
    2.9228    5.4375    0.0000 C   0  0  0  0  0  0  0  0  0  0  0  0
   -8.7685    6.1875    0.0000 C   0  0  0  0  0  0  0  0  0  0  0  0
   -7.4695    3.9375    0.0000 C   0  0  0  0  0  0  0  0  0  0  0  0
    0.3248    3.9375    0.0000 C   0  0  0  0  0  0  0  0  0  0  0  0
    1.6238    6.1875    0.0000 C   0  0  0  0  0  0  0  0  0  0  0  0
   -6.1704    6.1875    0.0000 C   0  0  0  0  0  0  0  0  0  0  0  0
   -4.8714    5.4375    0.0000 C   0  0  0  0  0  0  0  0  0  0  0  0
   -0.9743    6.1875    0.0000 C   0  0  0  0  0  0  0  0  0  0  0  0
   -7.4695    5.4375    0.0000 C   0  0  0  0  0  0  0  0  0  0  0  0
    0.3248    5.4375    0.0000 C   0  0  0  0  0  0  0  0  0  0  0  0
   -2.2733    5.4375    0.0000 C   0  0  0  0  0  0  0  0  0  0  0  0
   -2.2733    3.9375    0.0000 O   0  0  0  0  0  0  0  0  0  0  0  0
   -3.5724    6.1875    0.0000 O   0  0  0  0  0  0  0  0  0  0  0  0
  5  1  1  0
  7  6  1  0
  9  2  1  0
  9  3  1  0
  9  6  1  0
 10  4  1  0
 10  5  1  0
 10  8  1  0
 11  8  1  0
 12 11  2  0
 13  7  1  0
 13 11  1  0
M  END
>  <NAME>  (832) 
ISOPENTYL 3-METHYLPENTANOATE

>  <SYNONYMS>  (832) 


>  <SPECTRUM TYPE>  (832) 
MS1

>  <INSTRUMENT TYPE>  (832) 
EI-B

>  <INSTRUMENT>  (832) 
HITACHI M-80B

>  <ION MODE>  (832) 
P

>  <INCHIKEY>  (832) 
JLJJAUHWSQZOJP-UHFFFAOYSA-N

>  <FORMULA>  (832) 
C11H22O2

>  <EXACT MASS>  (832) 
186.161979944

>  <MW>  (832) 
186

>  <ID>  (832) 
JP010889

>  <CONTRIBUTOR>  (832) 
University of Tokyo Team, {Faculty of Engineering, University of Tokyo

>  <COMMENT>  (832) 
SMILES=CCC(C)CC(=O)OCCC(C)C
InChI=InChI=1S/C11H22O2/c1-5-10(4)8-11(12)13-7-6-9(2)3/h9-10H,5-8H2,1-4H3
computed SMILES=O=C(OCCC(C)C)CC(C)CC
accession=JP010889
date=2016.01.19 (Created 2008.10.21, modified 2011.05.06)
author=SODA AROMATIC CO., LTD.
license=CC BY-NC-SA
exact mass=186.16198
ionization energy=70 eV
ion type=[M]+*
computed spectral entropy=2.5364603210369405
computed normalized entropy=0.7611958729698665
SPLASH=splash10-00dl-9000000000-7e07b3ad8b98eb390408
submitter=submitter = University of Tokyo Team (Faculty of Engineering, University of Tokyo)
MoNA Rating=3.75

>  <NUM PEAKS>  (832) 
28

>  <MASS SPECTRAL PEAKS>  (832) 
27 10.6
29 15.9
39 8.7
41 26.8
42 11.8
43 55.9
44 1.8
45 1.5
53 1.9
55 24.9
56 4.6
57 6.6
60 4.8
61 3
69 6
70 99.99
71 52
72 2.8
73 1.7
87 4.6
99 36.6
100 2.6
101 1.3
115 1.6
116 1.1
117 10.3
130 1.2
143 1.4

$$$$

     RDKit          2D

 14 13  0  0  0  0  0  0  0  0999 V2000
    2.9228    5.4375    0.0000 C   0  0  0  0  0  0  0  0  0  0  0  0
   -0.9743    3.1875    0.0000 C   0  0  0  0  0  0  0  0  0  0  0  0
   -8.7685    6.1875    0.0000 C   0  0  0  0  0  0  0  0  0  0  0  0
   -7.4695    3.9375    0.0000 C   0  0  0  0  0  0  0  0  0  0  0  0
    1.6238    6.1875    0.0000 C   0  0  0  0  0  0  0  0  0  0  0  0
   -2.2733    3.9375    0.0000 C   0  0  0  0  0  0  0  0  0  0  0  0
    0.3248    5.4375    0.0000 C   0  0  0  0  0  0  0  0  0  0  0  0
   -0.9743    6.1875    0.0000 C   0  0  0  0  0  0  0  0  0  0  0  0
   -6.1704    6.1875    0.0000 C   0  0  0  0  0  0  0  0  0  0  0  0
   -7.4695    5.4375    0.0000 C   0  0  0  0  0  0  0  0  0  0  0  0
   -2.2733    5.4375    0.0000 C   0  0  0  0  0  0  0  0  0  0  0  0
   -4.8714    5.4375    0.0000 C   0  0  0  0  0  0  0  0  0  0  0  0
   -4.8714    3.9375    0.0000 O   0  0  0  0  0  0  0  0  0  0  0  0
   -3.5724    6.1875    0.0000 O   0  0  0  0  0  0  0  0  0  0  0  0
  5  1  1  0
  6  2  1  0
  7  5  1  0
  8  7  1  0
 10  3  1  0
 10  4  1  0
 10  9  1  0
 11  6  1  0
 11  8  1  0
 12  9  1  0
 13 12  2  0
 14 11  1  0
 14 12  1  0
M  END
>  <NAME>  (833) 
3-HEPTYL ISOVALERATE

>  <SYNONYMS>  (833) 


>  <SPECTRUM TYPE>  (833) 
MS1

>  <INSTRUMENT TYPE>  (833) 
EI-B

>  <INSTRUMENT>  (833) 
HITACHI M-80B

>  <ION MODE>  (833) 
P

>  <INCHIKEY>  (833) 
XYLAGPURFZASEK-UHFFFAOYSA-N

>  <FORMULA>  (833) 
C12H24O2

>  <EXACT MASS>  (833) 
200.177630008

>  <MW>  (833) 
200

>  <ID>  (833) 
JP010888

>  <CONTRIBUTOR>  (833) 
University of Tokyo Team, {Faculty of Engineering, University of Tokyo

>  <COMMENT>  (833) 
SMILES=CCCCC(CC)OC(=O)CC(C)C
InChI=InChI=1S/C12H24O2/c1-5-7-8-11(6-2)14-12(13)9-10(3)4/h10-11H,5-9H2,1-4H3
computed SMILES=O=C(OC(CC)CCCC)CC(C)C
accession=JP010888
date=2016.01.19 (Created 2008.10.21, modified 2011.05.06)
author=SODA AROMATIC CO., LTD.
license=CC BY-NC-SA
exact mass=200.17763
ionization energy=70 eV
ion type=[M]+*
computed spectral entropy=2.5875811607147527
computed normalized entropy=0.7684448564547851
SPLASH=splash10-052r-9000000000-6249779dddc6def952c3
submitter=submitter = University of Tokyo Team (Faculty of Engineering, University of Tokyo)
MoNA Rating=3.75

>  <NUM PEAKS>  (833) 
29

>  <MASS SPECTRAL PEAKS>  (833) 
27 8.1
29 16.1
39 6.7
41 26.5
42 6.5
43 14.6
44 1.1
53 1.1
54 1.1
55 10.4
56 15.1
57 62.9
58 3
59 2.5
60 6.9
61 1.2
69 8.7
70 7.2
83 1.2
85 99.99
86 5.8
87 4.5
98 14.9
99 1.7
102 7.3
103 9.3
115 1.3
143 4.5
171 1.8

$$$$

     RDKit          2D

 12 11  0  0  0  0  0  0  0  0999 V2000
    0.9510    3.3481    0.0000 C   0  0  0  0  0  0  0  0  0  0  0  0
    1.7010   -0.9510    0.0000 C   0  0  0  0  0  0  0  0  0  0  0  0
    0.2010    1.6471    0.0000 C   0  0  0  0  0  0  0  0  0  0  0  0
   -0.3481   -0.4019    0.0000 C   0  0  0  0  0  0  0  0  0  0  0  0
    4.8481    7.0981    0.0000 C   0  0  0  0  0  0  0  0  0  0  0  0
    3.5490    3.3481    0.0000 C   0  0  0  0  0  0  0  0  0  0  0  0
    2.2500    1.0981    0.0000 C   0  0  0  0  0  0  0  0  0  0  0  0
    2.2500    2.5981    0.0000 C   0  0  0  0  0  0  0  0  0  0  0  0
    3.5490    4.8481    0.0000 C   0  0  0  0  0  0  0  0  0  0  0  0
    0.9510    0.3481    0.0000 C   0  0  0  0  0  0  0  0  0  0  0  0
    2.2500    5.5981    0.0000 O   0  0  0  0  0  0  0  0  0  0  0  0
    4.8481    5.5981    0.0000 O   0  0  0  0  0  0  0  0  0  0  0  0
  8  1  1  0
  8  6  1  0
  8  7  1  0
  9  6  1  0
 10  2  1  0
 10  3  1  0
 10  4  1  0
 10  7  1  0
 11  9  2  0
 12  5  1  0
 12  9  1  0
M  END
>  <NAME>  (834) 
METHYL 3,5,5-TRIMETHYLHEXANOATE

>  <SYNONYMS>  (834) 


>  <SPECTRUM TYPE>  (834) 
MS1

>  <INSTRUMENT TYPE>  (834) 
EI-B

>  <INSTRUMENT>  (834) 
HITACHI M-80B

>  <ION MODE>  (834) 
P

>  <INCHIKEY>  (834) 
DCPCIGBOUDWJEZ-UHFFFAOYSA-N

>  <FORMULA>  (834) 
C10H20O2

>  <EXACT MASS>  (834) 
172.14632988

>  <MW>  (834) 
172

>  <ID>  (834) 
JP010887

>  <CONTRIBUTOR>  (834) 
University of Tokyo Team, {Faculty of Engineering, University of Tokyo

>  <COMMENT>  (834) 
SMILES=COC(=O)CC(C)CC(C)(C)C
InChI=InChI=1S/C10H20O2/c1-8(6-9(11)12-5)7-10(2,3)4/h8H,6-7H2,1-5H3
computed SMILES=O=C(OC)CC(C)CC(C)(C)C
accession=JP010887
date=2016.01.19 (Created 2008.10.21, modified 2011.05.06)
author=SODA AROMATIC CO., LTD.
license=CC BY-NC-SA
exact mass=172.14633
ionization energy=70 eV
ion type=[M]+*
computed spectral entropy=2.8950599637831473
computed normalized entropy=0.8142831345098581
SPLASH=splash10-0abc-9100000000-8a0d2c080c1632620530
submitter=submitter = University of Tokyo Team (Faculty of Engineering, University of Tokyo)
MoNA Rating=3.75

>  <NUM PEAKS>  (834) 
35

>  <MASS SPECTRAL PEAKS>  (834) 
15 6.6
27 7.6
29 16.1
31 1.5
39 11.7
41 40.5
42 6.6
43 17.4
45 1.1
53 2.8
55 20.6
56 16.1
57 79.1
58 3.2
59 14.9
67 1.7
69 7.8
71 3
73 10.1
74 99.99
75 4.6
81 1.1
83 52.4
84 3.1
97 8.2
98 1.6
99 2.7
101 2.5
115 10.8
116 26.2
117 15.7
118 1.1
125 10.6
141 10.1
157 8.8

$$$$

     RDKit          2D

 13 12  0  0  0  0  0  0  0  0999 V2000
    2.8358    5.3873    0.0000 C   0  0  0  0  0  0  0  0  0  0  0  0
   -8.3065    6.6863    0.0000 C   0  0  0  0  0  0  0  0  0  0  0  0
   -8.8555    4.6373    0.0000 C   0  0  0  0  0  0  0  0  0  0  0  0
   -6.8065    4.0882    0.0000 C   0  0  0  0  0  0  0  0  0  0  0  0
    1.5368    6.1373    0.0000 C   0  0  0  0  0  0  0  0  0  0  0  0
    0.2377    5.3873    0.0000 C   0  0  0  0  0  0  0  0  0  0  0  0
   -1.0613    6.1373    0.0000 C   0  0  0  0  0  0  0  0  0  0  0  0
   -2.3603    5.3873    0.0000 C   0  0  0  0  0  0  0  0  0  0  0  0
   -3.6594    6.1373    0.0000 C   0  0  0  0  0  0  0  0  0  0  0  0
   -6.2575    6.1373    0.0000 C   0  0  0  0  0  0  0  0  0  0  0  0
   -7.5565    5.3873    0.0000 C   0  0  0  0  0  0  0  0  0  0  0  0
   -6.2575    7.6373    0.0000 O   0  0  0  0  0  0  0  0  0  0  0  0
   -4.9584    5.3873    0.0000 O   0  0  0  0  0  0  0  0  0  0  0  0
  5  1  1  0
  6  5  1  0
  7  6  1  0
  8  7  1  0
  9  8  1  0
 11  2  1  0
 11  3  1  0
 11  4  1  0
 11 10  1  0
 12 10  2  0
 13  9  1  0
 13 10  1  0
M  END
>  <NAME>  (835) 
HEXYL PIVALATE

>  <SYNONYMS>  (835) 


>  <SPECTRUM TYPE>  (835) 
MS1

>  <INSTRUMENT TYPE>  (835) 
EI-B

>  <INSTRUMENT>  (835) 
HITACHI M-80B

>  <ION MODE>  (835) 
P

>  <INCHIKEY>  (835) 
RQSINLZXJXXKOH-UHFFFAOYSA-N

>  <FORMULA>  (835) 
C11H22O2

>  <EXACT MASS>  (835) 
186.161979944

>  <MW>  (835) 
186

>  <ID>  (835) 
JP010886

>  <CONTRIBUTOR>  (835) 
University of Tokyo Team, {Faculty of Engineering, University of Tokyo

>  <COMMENT>  (835) 
SMILES=CCCCCCOC(=O)C(C)(C)C
InChI=InChI=1S/C11H22O2/c1-5-6-7-8-9-13-10(12)11(2,3)4/h5-9H2,1-4H3
computed SMILES=O=C(OCCCCCC)C(C)(C)C
accession=JP010886
date=2016.01.19 (Created 2008.10.21, modified 2011.05.06)
author=SODA AROMATIC CO., LTD.
license=CC BY-NC-SA
exact mass=186.16198
ionization energy=70 eV
ion type=[M]+*
computed spectral entropy=2.385832056727897
computed normalized entropy=0.7836473882294429
SPLASH=splash10-0a4l-9100000000-1bf7cda0d10a9e22fa0d
submitter=submitter = University of Tokyo Team (Faculty of Engineering, University of Tokyo)
MoNA Rating=3.75

>  <NUM PEAKS>  (835) 
21

>  <MASS SPECTRAL PEAKS>  (835) 
27 7.5
29 16.6
39 7.5
41 32.9
42 9.1
43 32.1
55 8.5
56 20.9
57 99.99
58 4.7
59 3.5
69 4.5
70 1.5
71 1.2
83 1.3
84 15.5
85 19.7
86 1.1
87 2.4
103 41
104 2.1

$$$$

     RDKit          2D

 16 16  0  0  0  0  0  0  0  0999 V2000
    0.1000   -0.7200    0.0000 C   0  0  0  0  0  0  0  0  0  0  0  0
   -1.4000   -0.7200    0.0000 C   0  0  0  0  0  0  0  0  0  0  0  0
    0.8500    0.5800    0.0000 C   0  0  0  0  0  0  0  0  0  0  0  0
   -2.1500    0.5800    0.0000 C   0  0  0  0  0  0  0  0  0  0  0  0
    2.3500    0.5800    0.0000 C   0  0  0  0  0  0  0  0  0  0  0  0
   -3.6500    0.5800    0.0000 C   0  0  0  0  0  0  0  0  0  0  0  0
    3.1000    1.8700    0.0000 C   0  0  0  0  0  0  0  0  0  0  0  0
   -4.4000    1.8800    0.0000 C   0  0  0  0  0  0  0  0  0  0  0  0
    0.1000    4.4700    0.0000 C   0  0  0  0  0  0  0  0  0  0  0  0
   -1.4000    4.4700    0.0000 C   0  0  0  0  0  0  0  0  0  0  0  0
    2.3500    3.1700    0.0000 C   0  0  0  0  0  0  0  0  0  0  0  0
   -3.6500    3.1700    0.0000 C   0  0  0  0  0  0  0  0  0  0  0  0
    3.1002    4.4689    0.0000 O   0  0  0  0  0  0  0  0  0  0  0  0
   -4.3980    4.4702    0.0000 O   0  0  0  0  0  0  0  0  0  0  0  0
    0.8500    3.1700    0.0000 O   0  0  0  0  0  0  0  0  0  0  0  0
   -2.1500    3.1700    0.0000 O   0  0  0  0  0  0  0  0  0  0  0  0
  2  1  1  0
  3  1  1  0
  4  2  1  0
  5  3  1  0
  6  4  1  0
  7  5  1  0
  8  6  1  0
 10  9  1  0
 11  7  1  0
 12  8  1  0
 13 11  2  0
 14 12  2  0
 15  9  1  0
 15 11  1  0
 16 10  1  0
 16 12  1  0
M  END
>  <NAME>  (836) 
ETHYLENE SEBACATE

>  <SYNONYMS>  (836) 


>  <SPECTRUM TYPE>  (836) 
MS1

>  <INSTRUMENT TYPE>  (836) 
EI-B

>  <INSTRUMENT>  (836) 
HITACHI M-80B

>  <ION MODE>  (836) 
P

>  <INCHIKEY>  (836) 
XFQHIELVPOKJIM-UHFFFAOYSA-N

>  <FORMULA>  (836) 
C12H20O4

>  <EXACT MASS>  (836) 
228.13615912

>  <MW>  (836) 
228

>  <ID>  (836) 
JP010885

>  <CONTRIBUTOR>  (836) 
University of Tokyo Team, {Faculty of Engineering, University of Tokyo

>  <COMMENT>  (836) 
SMILES=O=C(C1)OCCOC(=O)CCCCCCC1
InChI=InChI=1S/C12H20O4/c13-11-7-5-3-1-2-4-6-8-12(14)16-10-9-15-11/h1-10H2
computed SMILES=O=C1OCCOC(=O)CCCCCCCC1
accession=JP010885
date=2016.01.19 (Created 2008.10.21, modified 2011.05.06)
author=SODA AROMATIC CO., LTD.
license=CC BY-NC-SA
exact mass=228.13616
ionization energy=70 eV
ion type=[M]+*
computed spectral entropy=3.795268948442321
computed normalized entropy=0.8434287728804686
SPLASH=splash10-052p-9300000000-c896368a6b987859316c
submitter=submitter = University of Tokyo Team (Faculty of Engineering, University of Tokyo)
MoNA Rating=3.75

>  <NUM PEAKS>  (836) 
90

>  <MASS SPECTRAL PEAKS>  (836) 
14 1.5
15 3.6
26 2.1
27 26.3
29 22.4
30 1.3
31 3.2
39 22.9
41 79.6
42 36.9
43 30.6
44 4.5
45 14
51 1.2
53 6.9
54 10.4
55 95.6
56 20.3
57 6.8
58 2.4
59 2.4
60 4.7
61 3.8
65 1.2
66 1.1
67 15
68 13.2
69 28.8
70 7.6
71 4.4
73 3.9
74 1.8
77 1.2
79 6.6
80 7.3
81 15.8
82 7.8
83 21.3
84 39.2
85 3.5
86 35.5
87 5.8
91 1.3
93 3.8
94 5.3
95 10.3
96 11.7
97 26.1
98 99.99
99 28.2
100 3.4
101 5.1
104 5.6
105 1.2
106 1.4
107 4.3
109 3.5
110 9.4
111 14.7
112 14.9
113 3.4
117 2.1
119 1.3
120 2.8
121 8.8
122 3.1
123 2.3
124 5.7
125 8
126 1.1
127 1.8
131 3.3
137 2.5
138 34.7
139 14.4
140 2.7
141 1.5
145 14
146 1.2
148 4.5
149 1.2
155 1.5
166 45.9
167 6.4
168 5.5
169 7.6
170 1.1
185 68.4
186 6.9
210 4.5

$$$$

     RDKit          2D

 14 14  0  0  0  0  0  0  0  0999 V2000
   -4.5454    4.1333    0.0000 C   0  0  0  0  0  0  0  0  0  0  0  0
   -3.2427    4.8769    0.0000 C   0  0  0  0  0  0  0  0  0  0  0  0
   -1.9474    4.1205    0.0000 C   0  0  0  0  0  0  0  0  0  0  0  0
    4.5477    4.8450    0.0000 C   0  0  0  0  0  0  0  0  0  0  0  0
    3.2342    2.6201    0.0000 C   0  0  0  0  0  0  0  0  0  0  0  0
    5.8323    4.1201    0.0000 C   0  0  0  0  0  0  0  0  0  0  0  0
    4.5587    1.8260    0.0000 C   0  0  0  0  0  0  0  0  0  0  0  0
   -0.6447    4.8641    0.0000 C   0  0  0  0  0  0  0  0  0  0  0  0
    3.2487    4.0950    0.0000 C   0  0  0  0  0  0  0  0  0  0  0  0
    5.8577    2.5760    0.0000 C   0  0  0  0  0  0  0  0  0  0  0  0
    1.9534    4.8513    0.0000 C   0  0  0  0  0  0  0  0  0  0  0  0
    7.1629    1.8367    0.0000 O   0  0  0  0  0  0  0  0  0  0  0  0
    1.9608    6.3513    0.0000 O   0  0  0  0  0  0  0  0  0  0  0  0
    0.6507    4.1078    0.0000 O   0  0  0  0  0  0  0  0  0  0  0  0
  2  1  1  0
  3  2  1  0
  6  4  2  0
  7  5  1  0
  8  3  1  0
  9  4  1  0
  9  5  2  0
 10  6  1  0
 10  7  2  0
 11  9  1  0
 12 10  1  0
 13 11  2  0
 14  8  1  0
 14 11  1  0
M  END
>  <NAME>  (837) 
BUTYL 4-HYDROXYBENZOATE

>  <SYNONYMS>  (837) 


>  <SPECTRUM TYPE>  (837) 
MS1

>  <INSTRUMENT TYPE>  (837) 
EI-B

>  <INSTRUMENT>  (837) 
HITACHI M-80B

>  <ION MODE>  (837) 
P

>  <INCHIKEY>  (837) 
QFOHBWFCKVYLES-UHFFFAOYSA-N

>  <FORMULA>  (837) 
C11H14O3

>  <EXACT MASS>  (837) 
194.09429430799997

>  <MW>  (837) 
194

>  <ID>  (837) 
JP010884

>  <CONTRIBUTOR>  (837) 
University of Tokyo Team, {Faculty of Engineering, University of Tokyo

>  <COMMENT>  (837) 
SMILES=CCCCOC(=O)c(c1)ccc(O)c1
InChI=InChI=1S/C11H14O3/c1-2-3-8-14-11(13)9-4-6-10(12)7-5-9/h4-7,12H,2-3,8H2,1H3
computed SMILES=O=C(OCCCC)C1=CC=C(O)C=C1
accession=JP010884
date=2016.01.19 (Created 2008.10.21, modified 2011.05.06)
author=SODA AROMATIC CO., LTD.
license=CC BY-NC-SA
exact mass=194.09429
ionization energy=70 eV
ion type=[M]+*
computed spectral entropy=2.105482771898993
computed normalized entropy=0.6541050001471255
SPLASH=splash10-0079-3900000000-3c58d2a06f7053d6232c
submitter=submitter = University of Tokyo Team (Faculty of Engineering, University of Tokyo)
MoNA Rating=3.75

>  <NUM PEAKS>  (837) 
25

>  <MASS SPECTRAL PEAKS>  (837) 
27 4.5
29 4
38 1.1
39 10.1
41 5.3
43 1.1
53 2
55 1.6
56 3.2
63 3.1
64 2.5
65 19.1
66 1.7
92 2.8
93 11.1
94 1.6
95 1.3
120 1.5
121 99.99
122 8.3
138 84
139 12.6
140 1.3
151 1
194 6.5

$$$$

     RDKit          2D

 23 22  0  0  1  0  0  0  0  0999 V2000
    0.0000    4.5000    0.0000 C   0  0  0  0  0  0  0  0  0  0  0  0
  -20.7846   13.5000    0.0000 C   0  0  0  0  0  0  0  0  0  0  0  0
   -1.2990    5.2500    0.0000 C   0  0  0  0  0  0  0  0  0  0  0  0
  -19.4856   14.2500    0.0000 C   0  0  0  0  0  0  0  0  0  0  0  0
   -1.2990    6.7500    0.0000 C   0  0  0  0  0  0  0  0  0  0  0  0
   -2.5981    7.5000    0.0000 C   0  0  0  0  0  0  0  0  0  0  0  0
   -9.0933   14.2500    0.0000 C   0  0  0  0  0  0  0  0  0  0  0  0
  -10.3923   13.5000    0.0000 C   0  0  0  0  0  0  0  0  0  0  0  0
   -7.7942   13.5000    0.0000 C   0  0  0  0  0  0  0  0  0  0  0  0
  -11.6913   14.2500    0.0000 C   0  0  0  0  0  0  0  0  0  0  0  0
   -6.4952   14.2500    0.0000 C   0  0  0  0  0  0  0  0  0  0  0  0
  -12.9904   13.5000    0.0000 C   0  0  0  0  0  0  0  0  0  0  0  0
   -2.5981    9.0000    0.0000 C   0  0  0  0  0  0  0  0  0  0  0  0
   -5.1962   13.5000    0.0000 C   0  0  0  0  0  0  0  0  0  0  0  0
  -14.2894   14.2500    0.0000 C   0  0  0  0  0  0  0  0  0  0  0  0
   -3.8971    9.7500    0.0000 C   0  0  0  0  0  0  0  0  0  0  0  0
   -5.1962   12.0000    0.0000 C   0  0  0  0  0  0  0  0  0  0  0  0
  -15.5885   13.5000    0.0000 C   0  0  0  0  0  0  0  0  0  0  0  0
   -3.8971   11.2500    0.0000 C   0  0  0  0  0  0  0  0  0  0  0  0
  -16.8875   14.2500    0.0000 C   0  0  0  0  0  0  0  0  0  0  0  0
   -2.5981   12.0000    0.0000 O   0  0  0  0  0  0  0  0  0  0  0  0
  -16.8875   15.7500    0.0000 O   0  0  0  0  0  0  0  0  0  0  0  0
  -18.1865   13.5000    0.0000 O   0  0  0  0  0  0  0  0  0  0  0  0
  3  1  1  0
  4  2  1  0
  5  3  1  0
  6  5  1  0
  8  7  1  0
  9  7  1  0
 10  8  1  0
 11  9  1  0
 12 10  1  0
 13  6  1  0
 11 14  2  0
 15 12  1  0
 16 13  1  0
 17 14  1  0
 18 15  1  0
 19 16  1  0
 19 17  1  0
 20 18  1  0
 19 21  1  6
 22 20  2  0
 23  4  1  0
 23 20  1  0
M  END
>  <NAME>  (838) 
ETHYL RICINOLEATE

>  <SYNONYMS>  (838) 


>  <SPECTRUM TYPE>  (838) 
MS1

>  <INSTRUMENT TYPE>  (838) 
EI-B

>  <INSTRUMENT>  (838) 
HITACHI M-80B

>  <ION MODE>  (838) 
P

>  <INCHIKEY>  (838) 
AZXVZUBIFYQWJK-KWRJMZDGSA-N

>  <FORMULA>  (838) 
C20H38O3

>  <EXACT MASS>  (838) 
326.28209507599996

>  <MW>  (838) 
326

>  <ID>  (838) 
JP010883

>  <CONTRIBUTOR>  (838) 
University of Tokyo Team, {Faculty of Engineering, University of Tokyo

>  <COMMENT>  (838) 
SMILES=CCCCCCC(O)CC=CCCCCCCCC(=O)OCC
InChI=InChI=1S/C20H38O3/c1-3-5-6-13-16-19(21)17-14-11-9-7-8-10-12-15-18-20(22)23-4-2/h11,14,19,21H,3-10,12-13,15-18H2,1-2H3/b14-11-/t19-/m1/s1
computed SMILES=O=C(OCC)CCCCCCCC=CCC(O)CCCCCC
accession=JP010883
date=2016.01.19 (Created 2008.10.21, modified 2011.05.06)
author=SODA AROMATIC CO., LTD.
license=CC BY-NC-SA
exact mass=326.2821
ionization energy=70 eV
ion type=[M]+*
computed spectral entropy=3.7602431768491384
computed normalized entropy=0.8398392465560715
SPLASH=splash10-0aov-9200000000-7ce562b708e994be2a83
submitter=submitter = University of Tokyo Team (Faculty of Engineering, University of Tokyo)
MoNA Rating=3.75

>  <NUM PEAKS>  (838) 
88

>  <MASS SPECTRAL PEAKS>  (838) 
27 9.7
29 29.1
31 3.1
39 5.4
41 38.4
42 5.4
43 35.6
44 3
45 5.3
53 4.1
54 17.3
55 99.99
56 7.6
57 12
58 1.1
59 1.6
60 5.3
61 4.1
65 1.2
66 1.2
67 21.7
68 13.7
69 34.9
70 7.8
71 5.2
73 6.8
77 1.3
79 4.9
80 3
81 19.9
82 19.3
83 21.4
84 32.4
85 4.6
87 2
88 35
89 2.9
91 1.4
93 3
94 3.7
95 11.7
96 29.5
97 31.9
98 24.6
99 2.3
101 20.5
102 1.9
107 1.6
108 1.7
109 5.1
110 6.5
111 5.7
112 1.6
113 2.3
114 1
115 5.9
116 1.1
119 2.4
121 1.9
122 4.9
123 11.7
124 27.8
125 6
127 1.5
128 2.1
129 2.5
130 1
133 1.2
139 1
141 1.5
142 2
143 1.4
147 1.5
148 3.8
149 1.3
150 1.1
151 1.7
155 2.8
157 1.1
165 1.5
166 30.2
167 3.7
169 1.5
183 1.1
195 2.2
212 6.9
213 1.3
263 1.1

$$$$

     RDKit          2D

 22 21  0  0  1  0  0  0  0  0999 V2000
    0.0000    3.7500    0.0000 C   0  0  0  0  0  0  0  0  0  0  0  0
  -19.4856   13.5000    0.0000 C   0  0  0  0  0  0  0  0  0  0  0  0
   -1.2990    4.5000    0.0000 C   0  0  0  0  0  0  0  0  0  0  0  0
   -1.2990    6.0000    0.0000 C   0  0  0  0  0  0  0  0  0  0  0  0
   -2.5981    6.7500    0.0000 C   0  0  0  0  0  0  0  0  0  0  0  0
   -9.0933   13.5000    0.0000 C   0  0  0  0  0  0  0  0  0  0  0  0
  -10.3923   12.7500    0.0000 C   0  0  0  0  0  0  0  0  0  0  0  0
   -7.7942   12.7500    0.0000 C   0  0  0  0  0  0  0  0  0  0  0  0
  -11.6913   13.5000    0.0000 C   0  0  0  0  0  0  0  0  0  0  0  0
   -6.4952   13.5000    0.0000 C   0  0  0  0  0  0  0  0  0  0  0  0
  -12.9904   12.7500    0.0000 C   0  0  0  0  0  0  0  0  0  0  0  0
   -2.5981    8.2500    0.0000 C   0  0  0  0  0  0  0  0  0  0  0  0
   -5.1962   12.7500    0.0000 C   0  0  0  0  0  0  0  0  0  0  0  0
  -14.2894   13.5000    0.0000 C   0  0  0  0  0  0  0  0  0  0  0  0
   -3.8971    9.0000    0.0000 C   0  0  0  0  0  0  0  0  0  0  0  0
   -5.1962   11.2500    0.0000 C   0  0  0  0  0  0  0  0  0  0  0  0
  -15.5885   12.7500    0.0000 C   0  0  0  0  0  0  0  0  0  0  0  0
   -3.8971   10.5000    0.0000 C   0  0  0  0  0  0  0  0  0  0  0  0
  -16.8875   13.5000    0.0000 C   0  0  0  0  0  0  0  0  0  0  0  0
   -2.5981   11.2500    0.0000 O   0  0  0  0  0  0  0  0  0  0  0  0
  -16.8875   15.0000    0.0000 O   0  0  0  0  0  0  0  0  0  0  0  0
  -18.1865   12.7500    0.0000 O   0  0  0  0  0  0  0  0  0  0  0  0
  3  1  1  0
  4  3  1  0
  5  4  1  0
  7  6  1  0
  8  6  1  0
  9  7  1  0
 10  8  1  0
 11  9  1  0
 12  5  1  0
 10 13  2  0
 14 11  1  0
 15 12  1  0
 16 13  1  0
 17 14  1  0
 18 15  1  0
 18 16  1  0
 19 17  1  0
 18 20  1  6
 21 19  2  0
 22  2  1  0
 22 19  1  0
M  END
>  <NAME>  (839) 
METHYL RICINOLEATE

>  <SYNONYMS>  (839) 


>  <SPECTRUM TYPE>  (839) 
MS1

>  <INSTRUMENT TYPE>  (839) 
EI-B

>  <INSTRUMENT>  (839) 
HITACHI M-80B

>  <ION MODE>  (839) 
P

>  <INCHIKEY>  (839) 
XKGDWZQXVZSXAO-ADYSOMBNSA-N

>  <FORMULA>  (839) 
C19H36O3

>  <EXACT MASS>  (839) 
312.26644501199996

>  <MW>  (839) 
312

>  <ID>  (839) 
JP010882

>  <CONTRIBUTOR>  (839) 
University of Tokyo Team, {Faculty of Engineering, University of Tokyo

>  <COMMENT>  (839) 
SMILES=CCCCCCC(O)CC=CCCCCCCCC(=O)OC
InChI=InChI=1S/C19H36O3/c1-3-4-5-12-15-18(20)16-13-10-8-6-7-9-11-14-17-19(21)22-2/h10,13,18,20H,3-9,11-12,14-17H2,1-2H3/b13-10-/t18-/m1/s1
computed SMILES=O=C(OC)CCCCCCCC=CCC(O)CCCCCC
accession=JP010882
date=2016.01.19 (Created 2008.10.21, modified 2011.05.06)
author=SODA AROMATIC CO., LTD.
license=CC BY-NC-SA
exact mass=312.26645
ionization energy=70 eV
ion type=[M]+*
computed spectral entropy=3.704135445882636
computed normalized entropy=0.8553136743436005
SPLASH=splash10-0aov-9200000000-8e63ce35708c1571309d
submitter=submitter = University of Tokyo Team (Faculty of Engineering, University of Tokyo)
MoNA Rating=3.75

>  <NUM PEAKS>  (839) 
76

>  <MASS SPECTRAL PEAKS>  (839) 
15 3.1
27 8.1
29 15.4
31 3.2
39 7.4
41 41.1
42 6.7
43 36.2
44 4
45 2.8
53 4.1
54 15.3
55 99.99
56 8.5
57 11.4
59 12.2
65 1.1
66 1.1
67 20.8
68 14.5
69 32.5
70 4.1
71 5.2
73 2.4
74 40.6
75 3
77 1.4
79 4.7
80 2.7
81 17.4
82 20.6
83 20.2
84 34.6
85 5.2
87 23.7
88 2.1
91 1.4
93 2.7
94 3.3
95 10.2
96 30.9
97 30.9
98 29.3
99 2.5
101 3.7
107 1.6
108 1.8
109 4.5
110 9.3
111 6.3
112 1.6
113 2.9
114 2.9
115 7.6
116 1.3
119 2.3
121 1.1
122 6.8
123 11.5
124 28.3
125 7.5
127 1.3
128 2.9
129 1.3
137 7.7
138 3.4
141 2.2
148 4.1
149 1.3
151 1
155 1.5
166 33.3
167 3.8
195 2.2
198 8.1
199 1.2

$$$$

     RDKit          2D

 19 20  0  0  0  0  0  0  0  0999 V2000
   -9.0939    4.8215    0.0000 C   0  0  0  0  0  0  0  0  0  0  0  0
   -9.0944    3.3207    0.0000 C   0  0  0  0  0  0  0  0  0  0  0  0
   -7.7944    5.5723    0.0000 C   0  0  0  0  0  0  0  0  0  0  0  0
    3.8984    3.3211    0.0000 C   0  0  0  0  0  0  0  0  0  0  0  0
    3.8986    4.8211    0.0000 C   0  0  0  0  0  0  0  0  0  0  0  0
   -3.8977    3.3215    0.0000 C   0  0  0  0  0  0  0  0  0  0  0  0
   -7.7953    2.5707    0.0000 C   0  0  0  0  0  0  0  0  0  0  0  0
   -6.4953    4.8223    0.0000 C   0  0  0  0  0  0  0  0  0  0  0  0
   -5.1968    2.5715    0.0000 C   0  0  0  0  0  0  0  0  0  0  0  0
    2.5983    2.5713    0.0000 C   0  0  0  0  0  0  0  0  0  0  0  0
    2.5988    5.5713    0.0000 C   0  0  0  0  0  0  0  0  0  0  0  0
   -2.5987    2.5715    0.0000 C   0  0  0  0  0  0  0  0  0  0  0  0
   -6.4958    3.3215    0.0000 C   0  0  0  0  0  0  0  0  0  0  0  0
    1.2984    3.3215    0.0000 C   0  0  0  0  0  0  0  0  0  0  0  0
    1.2986    4.8215    0.0000 C   0  0  0  0  0  0  0  0  0  0  0  0
   -0.0006    2.5715    0.0000 C   0  0  0  0  0  0  0  0  0  0  0  0
   -0.0002    5.5719    0.0000 O   0  0  0  0  0  0  0  0  0  0  0  0
   -0.0006    1.0715    0.0000 O   0  0  0  0  0  0  0  0  0  0  0  0
   -1.2997    3.3215    0.0000 O   0  0  0  0  0  0  0  0  0  0  0  0
  2  1  2  0
  3  1  1  0
  5  4  2  0
  7  2  1  0
  8  3  2  0
  9  6  1  0
 10  4  1  0
 11  5  1  0
 12  6  1  0
 13  7  2  0
 13  8  1  0
 13  9  1  0
 14 10  2  0
 15 11  2  0
 15 14  1  0
 16 14  1  0
 17 15  1  0
 18 16  2  0
 19 12  1  0
 19 16  1  0
M  END
>  <NAME>  (840) 
3-PHENYLPROPYL SALICYLATE

>  <SYNONYMS>  (840) 


>  <SPECTRUM TYPE>  (840) 
MS1

>  <INSTRUMENT TYPE>  (840) 
EI-B

>  <INSTRUMENT>  (840) 
HITACHI M-80B

>  <ION MODE>  (840) 
P

>  <INCHIKEY>  (840) 
GMHNYYKDPGWAJR-UHFFFAOYSA-N

>  <FORMULA>  (840) 
C16H16O3

>  <EXACT MASS>  (840) 
256.109944372

>  <MW>  (840) 
256

>  <ID>  (840) 
JP010881

>  <CONTRIBUTOR>  (840) 
University of Tokyo Team, {Faculty of Engineering, University of Tokyo

>  <COMMENT>  (840) 
SMILES=c(c2)ccc(c2)CCCOC(=O)c(c1)c(O)ccc1
InChI=InChI=1S/C16H16O3/c17-15-11-5-4-10-14(15)16(18)19-12-6-9-13-7-2-1-3-8-13/h1-5,7-8,10-11,17H,6,9,12H2
computed SMILES=O=C(OCCCC=1C=CC=CC1)C=2C=CC=CC2O
accession=JP010881
date=2016.01.19 (Created 2008.10.21, modified 2011.05.06)
author=SODA AROMATIC CO., LTD.
license=CC BY-NC-SA
exact mass=256.10994
ionization energy=70 eV
ion type=[M]+*
computed spectral entropy=2.477601825196985
computed normalized entropy=0.7214941925121264
SPLASH=splash10-014l-7900000000-ada06cf19c77914ebaab
submitter=submitter = University of Tokyo Team (Faculty of Engineering, University of Tokyo)
MoNA Rating=3.75

>  <NUM PEAKS>  (840) 
31

>  <MASS SPECTRAL PEAKS>  (840) 
27 1.3
38 1.1
39 12.2
41 7
50 1
51 3.7
53 1.8
63 4.8
64 4
65 20.6
66 1.2
77 5.2
78 3
79 2
89 1.3
91 70.2
92 15.4
93 5.5
103 2.2
104 1.1
105 1.2
115 2.9
116 1.5
117 29.1
118 99.99
119 11.3
120 17.1
121 17.8
122 1.2
138 1.3
256 2

$$$$

     RDKit          2D

 18 19  0  0  0  0  0  0  0  0999 V2000
   -2.5989   -1.5002    0.0000 C   0  0  0  0  0  0  0  0  0  0  0  0
    7.7962   -1.5008    0.0000 C   0  0  0  0  0  0  0  0  0  0  0  0
    9.0952   -0.7508    0.0000 C   0  0  0  0  0  0  0  0  0  0  0  0
    6.4966   -0.7500    0.0000 C   0  0  0  0  0  0  0  0  0  0  0  0
    9.0947    0.7500    0.0000 C   0  0  0  0  0  0  0  0  0  0  0  0
   -1.3000    0.7500    0.0000 C   0  0  0  0  0  0  0  0  0  0  0  0
    0.0000   -1.5000    0.0000 C   0  0  0  0  0  0  0  0  0  0  0  0
    0.0000    1.5000    0.0000 C   0  0  0  0  0  0  0  0  0  0  0  0
    1.3000   -0.7500    0.0000 C   0  0  0  0  0  0  0  0  0  0  0  0
    2.5989    1.5002    0.0000 C   0  0  0  0  0  0  0  0  0  0  0  0
   -1.3000   -0.7500    0.0000 C   0  0  0  0  0  0  0  0  0  0  0  0
    1.3000    0.7500    0.0000 C   0  0  0  0  0  0  0  0  0  0  0  0
    6.4962    0.7508    0.0000 C   0  0  0  0  0  0  0  0  0  0  0  0
    7.7952    1.5008    0.0000 C   0  0  0  0  0  0  0  0  0  0  0  0
    5.1970    1.5006    0.0000 C   0  0  0  0  0  0  0  0  0  0  0  0
    7.7954    3.0008    0.0000 O   0  0  0  0  0  0  0  0  0  0  0  0
    5.1968    3.0006    0.0000 O   0  0  0  0  0  0  0  0  0  0  0  0
    3.8981    0.7504    0.0000 O   0  0  0  0  0  0  0  0  0  0  0  0
  3  2  2  0
  4  2  1  0
  5  3  1  0
  8  6  2  0
  9  7  1  0
 11  1  1  0
 11  6  1  0
 11  7  2  0
 12  8  1  0
 12  9  2  0
 12 10  1  0
 13  4  2  0
 14  5  2  0
 14 13  1  0
 15 13  1  0
 16 14  1  0
 17 15  2  0
 18 10  1  0
 18 15  1  0
M  END
>  <NAME>  (841) 
4-METHYLBENZYL SALICYLATE

>  <SYNONYMS>  (841) 


>  <SPECTRUM TYPE>  (841) 
MS1

>  <INSTRUMENT TYPE>  (841) 
EI-B

>  <INSTRUMENT>  (841) 
HITACHI M-80B

>  <ION MODE>  (841) 
P

>  <INCHIKEY>  (841) 
CAKKYSSTIPDPQG-UHFFFAOYSA-N

>  <FORMULA>  (841) 
C15H14O3

>  <EXACT MASS>  (841) 
242.09429430799997

>  <MW>  (841) 
242

>  <ID>  (841) 
JP010880

>  <CONTRIBUTOR>  (841) 
University of Tokyo Team, {Faculty of Engineering, University of Tokyo

>  <COMMENT>  (841) 
SMILES=Cc(c2)ccc(c2)COC(=O)c(c1)c(O)ccc1
InChI=InChI=1S/C15H14O3/c1-11-6-8-12(9-7-11)10-18-15(17)13-4-2-3-5-14(13)16/h2-9,16H,10H2,1H3
computed SMILES=O=C(OCC1=CC=C(C=C1)C)C=2C=CC=CC2O
accession=JP010880
date=2016.01.19 (Created 2008.10.21, modified 2011.05.06)
author=SODA AROMATIC CO., LTD.
license=CC BY-NC-SA
exact mass=242.09429
ionization energy=70 eV
ion type=[M]+*
computed spectral entropy=1.7105139506765168
computed normalized entropy=0.580930344550987
SPLASH=splash10-0a4i-3900000000-711dce4c13237f213661
submitter=submitter = University of Tokyo Team (Faculty of Engineering, University of Tokyo)
MoNA Rating=3.75

>  <NUM PEAKS>  (841) 
19

>  <MASS SPECTRAL PEAKS>  (841) 
27 1.5
39 5.3
51 1.5
53 1.3
63 2.2
64 1.3
65 5.9
77 7.5
78 2.8
79 5.6
91 1.7
92 1.9
93 1.5
103 3.9
104 2.8
105 99.99
106 9.3
121 2.8
242 4.3

$$$$

     RDKit          2D

 26 25  0  0  0  0  0  0  0  0999 V2000
  -22.0836   13.5000    0.0000 C   0  0  0  0  0  0  0  0  0  0  0  0
    7.7942   12.7500    0.0000 C   0  0  0  0  0  0  0  0  0  0  0  0
  -20.7846   12.7500    0.0000 C   0  0  0  0  0  0  0  0  0  0  0  0
    6.4952   13.5000    0.0000 C   0  0  0  0  0  0  0  0  0  0  0  0
  -19.4856   13.5000    0.0000 C   0  0  0  0  0  0  0  0  0  0  0  0
    5.1962   12.7500    0.0000 C   0  0  0  0  0  0  0  0  0  0  0  0
  -18.1865   12.7500    0.0000 C   0  0  0  0  0  0  0  0  0  0  0  0
    3.8971   13.5000    0.0000 C   0  0  0  0  0  0  0  0  0  0  0  0
  -16.8875   13.5000    0.0000 C   0  0  0  0  0  0  0  0  0  0  0  0
    2.5981   12.7500    0.0000 C   0  0  0  0  0  0  0  0  0  0  0  0
  -15.5885   12.7500    0.0000 C   0  0  0  0  0  0  0  0  0  0  0  0
    1.2990   13.5000    0.0000 C   0  0  0  0  0  0  0  0  0  0  0  0
   -7.7942   12.7500    0.0000 C   0  0  0  0  0  0  0  0  0  0  0  0
   -6.4952   13.5000    0.0000 C   0  0  0  0  0  0  0  0  0  0  0  0
  -14.2894   13.5000    0.0000 C   0  0  0  0  0  0  0  0  0  0  0  0
    0.0000   12.7500    0.0000 C   0  0  0  0  0  0  0  0  0  0  0  0
   -9.0933   13.5000    0.0000 C   0  0  0  0  0  0  0  0  0  0  0  0
   -5.1962   12.7500    0.0000 C   0  0  0  0  0  0  0  0  0  0  0  0
  -12.9904   12.7500    0.0000 C   0  0  0  0  0  0  0  0  0  0  0  0
   -1.2990   13.5000    0.0000 C   0  0  0  0  0  0  0  0  0  0  0  0
  -10.3923   12.7500    0.0000 C   0  0  0  0  0  0  0  0  0  0  0  0
   -3.8971   13.5000    0.0000 C   0  0  0  0  0  0  0  0  0  0  0  0
  -10.3923   11.2500    0.0000 O   0  0  0  0  0  0  0  0  0  0  0  0
   -3.8971   15.0000    0.0000 O   0  0  0  0  0  0  0  0  0  0  0  0
  -11.6913   13.5000    0.0000 O   0  0  0  0  0  0  0  0  0  0  0  0
   -2.5981   12.7500    0.0000 O   0  0  0  0  0  0  0  0  0  0  0  0
  3  1  1  0
  4  2  1  0
  5  3  1  0
  6  4  1  0
  7  5  1  0
  8  6  1  0
  9  7  1  0
 10  8  1  0
 11  9  1  0
 12 10  1  0
 14 13  1  0
 15 11  1  0
 16 12  1  0
 17 13  1  0
 18 14  1  0
 19 15  1  0
 20 16  1  0
 21 17  1  0
 22 18  1  0
 23 21  2  0
 24 22  2  0
 25 19  1  0
 25 21  1  0
 26 20  1  0
 26 22  1  0
M  END
>  <NAME>  (842) 
DIOCTYL ADIPATE

>  <SYNONYMS>  (842) 


>  <SPECTRUM TYPE>  (842) 
MS1

>  <INSTRUMENT TYPE>  (842) 
EI-B

>  <INSTRUMENT>  (842) 
HITACHI M-80B

>  <ION MODE>  (842) 
P

>  <INCHIKEY>  (842) 
NEHDRDVHPTWWFG-UHFFFAOYSA-N

>  <FORMULA>  (842) 
C22H42O4

>  <EXACT MASS>  (842) 
370.308309824

>  <MW>  (842) 
370

>  <ID>  (842) 
JP010879

>  <CONTRIBUTOR>  (842) 
University of Tokyo Team, {Faculty of Engineering, University of Tokyo

>  <COMMENT>  (842) 
SMILES=CCCCCCCCOC(=O)CCCCC(=O)OCCCCCCCC
InChI=InChI=1S/C22H42O4/c1-3-5-7-9-11-15-19-25-21(23)17-13-14-18-22(24)26-20-16-12-10-8-6-4-2/h3-20H2,1-2H3
computed SMILES=O=C(OCCCCCCCC)CCCCC(=O)OCCCCCCCC
accession=JP010879
date=2016.01.19 (Created 2008.10.21, modified 2011.05.06)
author=SODA AROMATIC CO., LTD.
license=CC BY-NC-SA
exact mass=370.30831
ionization energy=70 eV
ion type=[M]+*
computed spectral entropy=3.0161155717936134
computed normalized entropy=0.8019024457669528
SPLASH=splash10-05dl-9500000000-e865ecdd92cd0e7f08ed
submitter=submitter = University of Tokyo Team (Faculty of Engineering, University of Tokyo)
MoNA Rating=3.75

>  <NUM PEAKS>  (842) 
43

>  <MASS SPECTRAL PEAKS>  (842) 
27 4.7
29 14.4
39 3
41 29.1
42 5.9
43 32.9
53 1.4
54 1.7
55 35.2
56 14.4
57 60.9
58 2.4
59 2.4
67 1.5
68 1.9
70 40.5
71 34.6
72 1.8
73 1.5
82 2.2
83 16
84 11.3
85 1.5
87 5.5
97 1.2
100 4.5
101 10.5
102 2.7
111 12.3
112 31.2
113 15.7
114 1.2
128 3.9
129 99.99
130 6.2
142 1.8
146 2.1
147 17.3
148 1.1
199 1.1
212 1.3
241 5.9
259 3.3

$$$$

     RDKit          2D

 18 19  0  0  0  0  0  0  0  0999 V2000
    3.8976    3.3200    0.0000 C   0  0  0  0  0  0  0  0  0  0  0  0
   -9.0928    3.3200    0.0000 C   0  0  0  0  0  0  0  0  0  0  0  0
    3.8981    4.8208    0.0000 C   0  0  0  0  0  0  0  0  0  0  0  0
    2.5981    2.5692    0.0000 C   0  0  0  0  0  0  0  0  0  0  0  0
   -7.7933    2.5692    0.0000 C   0  0  0  0  0  0  0  0  0  0  0  0
   -9.0933    4.8208    0.0000 C   0  0  0  0  0  0  0  0  0  0  0  0
   -1.2986    4.8200    0.0000 C   0  0  0  0  0  0  0  0  0  0  0  0
    2.5990    5.5708    0.0000 C   0  0  0  0  0  0  0  0  0  0  0  0
    1.2990    3.3192    0.0000 C   0  0  0  0  0  0  0  0  0  0  0  0
    0.0005    5.5700    0.0000 C   0  0  0  0  0  0  0  0  0  0  0  0
   -6.4942    3.3192    0.0000 C   0  0  0  0  0  0  0  0  0  0  0  0
   -7.7942    5.5708    0.0000 C   0  0  0  0  0  0  0  0  0  0  0  0
   -2.5976    5.5700    0.0000 C   0  0  0  0  0  0  0  0  0  0  0  0
    1.2995    4.8200    0.0000 C   0  0  0  0  0  0  0  0  0  0  0  0
   -6.4947    4.8200    0.0000 C   0  0  0  0  0  0  0  0  0  0  0  0
   -5.1957    5.5700    0.0000 C   0  0  0  0  0  0  0  0  0  0  0  0
   -5.1957    7.0700    0.0000 O   0  0  0  0  0  0  0  0  0  0  0  0
   -3.8966    4.8200    0.0000 O   0  0  0  0  0  0  0  0  0  0  0  0
  3  1  2  0
  4  1  1  0
  5  2  2  0
  6  2  1  0
  8  3  1  0
  9  4  2  0
 10  7  1  0
 11  5  1  0
 12  6  2  0
 13  7  1  0
 14  8  2  0
 14  9  1  0
 14 10  1  0
 15 11  2  0
 15 12  1  0
 16 15  1  0
 17 16  2  0
 18 13  1  0
 18 16  1  0
M  END
>  <NAME>  (843) 
3-PHENYLPROPYL BENZOATE

>  <SYNONYMS>  (843) 


>  <SPECTRUM TYPE>  (843) 
MS1

>  <INSTRUMENT TYPE>  (843) 
EI-B

>  <INSTRUMENT>  (843) 
HITACHI M-80B

>  <ION MODE>  (843) 
P

>  <INCHIKEY>  (843) 
ONPVMQLRVWKFFL-UHFFFAOYSA-N

>  <FORMULA>  (843) 
C16H16O2

>  <EXACT MASS>  (843) 
240.115029752

>  <MW>  (843) 
240

>  <ID>  (843) 
JP010878

>  <CONTRIBUTOR>  (843) 
University of Tokyo Team, {Faculty of Engineering, University of Tokyo

>  <COMMENT>  (843) 
SMILES=O=C(OCCCc(c2)cccc2)c(c1)cccc1
InChI=InChI=1S/C16H16O2/c17-16(15-11-5-2-6-12-15)18-13-7-10-14-8-3-1-4-9-14/h1-6,8-9,11-12H,7,10,13H2
computed SMILES=O=C(OCCCC=1C=CC=CC1)C=2C=CC=CC2
accession=JP010878
date=2016.01.19 (Created 2008.10.21, modified 2011.05.06)
author=SODA AROMATIC CO., LTD.
license=CC BY-NC-SA
exact mass=240.11503
ionization energy=70 eV
ion type=[M]+*
computed spectral entropy=2.087668436646066
computed normalized entropy=0.6857129416353207
SPLASH=splash10-014i-2900000000-c7340eb18e68a9232451
submitter=submitter = University of Tokyo Team (Faculty of Engineering, University of Tokyo)
MoNA Rating=3.75

>  <NUM PEAKS>  (843) 
21

>  <MASS SPECTRAL PEAKS>  (843) 
27 1.7
39 4
41 1.8
50 2.7
51 12.8
52 1.1
63 1.4
65 6.3
78 6.1
79 2.7
91 21.6
92 2.1
103 3.3
104 1.7
105 29.6
106 1.9
115 2.4
116 2
117 50.8
118 99.99
119 9.7

$$$$

     RDKit          2D

 16 15  0  0  0  0  0  0  0  0999 V2000
  -11.6913    6.7500    0.0000 C   0  0  0  0  0  0  0  0  0  0  0  0
    3.8971    6.7500    0.0000 C   0  0  0  0  0  0  0  0  0  0  0  0
   -6.4952    3.7500    0.0000 C   0  0  0  0  0  0  0  0  0  0  0  0
  -10.3923    6.0000    0.0000 C   0  0  0  0  0  0  0  0  0  0  0  0
    2.5981    6.0000    0.0000 C   0  0  0  0  0  0  0  0  0  0  0  0
   -5.1962    4.5000    0.0000 C   0  0  0  0  0  0  0  0  0  0  0  0
   -9.0933    6.7500    0.0000 C   0  0  0  0  0  0  0  0  0  0  0  0
    1.2990    6.7500    0.0000 C   0  0  0  0  0  0  0  0  0  0  0  0
   -7.7942    6.0000    0.0000 C   0  0  0  0  0  0  0  0  0  0  0  0
    0.0000    6.0000    0.0000 C   0  0  0  0  0  0  0  0  0  0  0  0
   -6.4952    6.7500    0.0000 C   0  0  0  0  0  0  0  0  0  0  0  0
   -1.2990    6.7500    0.0000 C   0  0  0  0  0  0  0  0  0  0  0  0
   -5.1962    6.0000    0.0000 C   0  0  0  0  0  0  0  0  0  0  0  0
   -2.5981    6.0000    0.0000 C   0  0  0  0  0  0  0  0  0  0  0  0
   -2.5981    4.5000    0.0000 O   0  0  0  0  0  0  0  0  0  0  0  0
   -3.8971    6.7500    0.0000 O   0  0  0  0  0  0  0  0  0  0  0  0
  4  1  1  0
  5  2  1  0
  6  3  1  0
  7  4  1  0
  8  5  1  0
  9  7  1  0
 10  8  1  0
 11  9  1  0
 12 10  1  0
 13  6  1  0
 13 11  1  0
 14 12  1  0
 15 14  2  0
 16 13  1  0
 16 14  1  0
M  END
>  <NAME>  (844) 
3-OCTYL HEXANOATE

>  <SYNONYMS>  (844) 


>  <SPECTRUM TYPE>  (844) 
MS1

>  <INSTRUMENT TYPE>  (844) 
EI-B

>  <INSTRUMENT>  (844) 
HITACHI M-80B

>  <ION MODE>  (844) 
P

>  <INCHIKEY>  (844) 
IMKAZTAYLVONBX-UHFFFAOYSA-N

>  <FORMULA>  (844) 
C14H28O2

>  <EXACT MASS>  (844) 
228.208930136

>  <MW>  (844) 
228

>  <ID>  (844) 
JP010877

>  <CONTRIBUTOR>  (844) 
University of Tokyo Team, {Faculty of Engineering, University of Tokyo

>  <COMMENT>  (844) 
SMILES=CCCCCC(CC)OC(=O)CCCCC
InChI=InChI=1S/C14H28O2/c1-4-7-9-11-13(6-3)16-14(15)12-10-8-5-2/h13H,4-12H2,1-3H3
computed SMILES=O=C(OC(CC)CCCCC)CCCCC
accession=JP010877
date=2016.01.19 (Created 2008.10.21, modified 2011.05.06)
author=SODA AROMATIC CO., LTD.
license=CC BY-NC-SA
exact mass=228.20893
ionization energy=70 eV
ion type=[M]+*
computed spectral entropy=2.8677982216741675
computed normalized entropy=0.7883794625746761
SPLASH=splash10-0005-9100000000-05da452bf484bf58bc30
submitter=submitter = University of Tokyo Team (Faculty of Engineering, University of Tokyo)
MoNA Rating=3.75

>  <NUM PEAKS>  (844) 
38

>  <MASS SPECTRAL PEAKS>  (844) 
27 8.9
29 16.8
39 4.7
41 23.3
42 8.8
43 42.4
44 1.2
53 1.3
54 1
55 16.6
56 13.9
57 16.1
58 1
59 1.5
60 7.6
61 1.5
67 1
68 1.2
69 8.3
70 14.3
71 29.4
72 2
73 3.4
82 1.5
83 8.5
84 5.1
87 1.7
97 1.2
99 99.99
100 6.1
112 15.3
113 1.5
114 1.5
116 7.1
117 10.2
129 1.2
157 3.8
199 1.3

$$$$

     RDKit          2D

 19 18  0  0  0  0  0  0  0  0999 V2000
    4.5466    7.1250    0.0000 C   0  0  0  0  0  0  0  0  0  0  0  0
  -12.3409    7.8750    0.0000 C   0  0  0  0  0  0  0  0  0  0  0  0
   -7.1447   12.3750    0.0000 C   0  0  0  0  0  0  0  0  0  0  0  0
    3.2476    7.8750    0.0000 C   0  0  0  0  0  0  0  0  0  0  0  0
  -11.0418    7.1250    0.0000 C   0  0  0  0  0  0  0  0  0  0  0  0
   -5.8457   11.6250    0.0000 C   0  0  0  0  0  0  0  0  0  0  0  0
    1.9486    7.1250    0.0000 C   0  0  0  0  0  0  0  0  0  0  0  0
   -9.7428    7.8750    0.0000 C   0  0  0  0  0  0  0  0  0  0  0  0
    0.6495    7.8750    0.0000 C   0  0  0  0  0  0  0  0  0  0  0  0
   -8.4437    7.1250    0.0000 C   0  0  0  0  0  0  0  0  0  0  0  0
   -0.6495    7.1250    0.0000 C   0  0  0  0  0  0  0  0  0  0  0  0
   -7.1447    7.8750    0.0000 C   0  0  0  0  0  0  0  0  0  0  0  0
   -1.9486    7.8750    0.0000 C   0  0  0  0  0  0  0  0  0  0  0  0
   -5.8457    7.1250    0.0000 C   0  0  0  0  0  0  0  0  0  0  0  0
   -3.2476    7.1250    0.0000 C   0  0  0  0  0  0  0  0  0  0  0  0
   -4.5466    7.8750    0.0000 C   0  0  0  0  0  0  0  0  0  0  0  0
   -4.5466    9.3750    0.0000 C   0  0  0  0  0  0  0  0  0  0  0  0
   -3.2476   10.1250    0.0000 O   0  0  0  0  0  0  0  0  0  0  0  0
   -5.8457   10.1250    0.0000 O   0  0  0  0  0  0  0  0  0  0  0  0
  4  1  1  0
  5  2  1  0
  6  3  1  0
  7  4  1  0
  8  5  1  0
  9  7  1  0
 10  8  1  0
 11  9  1  0
 12 10  1  0
 13 11  1  0
 14 12  1  0
 15 13  1  0
 16 14  1  0
 16 15  1  0
 17 16  1  0
 18 17  2  0
 19  6  1  0
 19 17  1  0
M  END
>  <NAME>  (845) 
ETHYL 2-HEXYLNONANOATE

>  <SYNONYMS>  (845) 


>  <SPECTRUM TYPE>  (845) 
MS1

>  <INSTRUMENT TYPE>  (845) 
EI-B

>  <INSTRUMENT>  (845) 
HITACHI M-80B

>  <ION MODE>  (845) 
P

>  <INCHIKEY>  (845) 
OOCDGNOKAHNFJG-UHFFFAOYSA-N

>  <FORMULA>  (845) 
C17H34O2

>  <EXACT MASS>  (845) 
270.255880328

>  <MW>  (845) 
270

>  <ID>  (845) 
JP010876

>  <CONTRIBUTOR>  (845) 
University of Tokyo Team, {Faculty of Engineering, University of Tokyo

>  <COMMENT>  (845) 
SMILES=CCCCCCCC(CCCCCC)C(=O)OCC
InChI=InChI=1S/C17H34O2/c1-4-7-9-11-13-15-16(17(18)19-6-3)14-12-10-8-5-2/h16H,4-15H2,1-3H3
computed SMILES=O=C(OCC)C(CCCCCC)CCCCCCC
accession=JP010876
date=2016.01.19 (Created 2008.10.21, modified 2011.05.06)
author=SODA AROMATIC CO., LTD.
license=CC BY-NC-SA
exact mass=270.25588
ionization energy=70 eV
ion type=[M]+*
computed spectral entropy=3.094051612885433
computed normalized entropy=0.7869249305294327
SPLASH=splash10-0596-9200000000-04bbb8a3a0b35614ccf2
submitter=submitter = University of Tokyo Team (Faculty of Engineering, University of Tokyo)
MoNA Rating=3.75

>  <NUM PEAKS>  (845) 
51

>  <MASS SPECTRAL PEAKS>  (845) 
27 12.7
29 29.6
31 2
39 8.6
41 56.6
42 15
43 63.1
44 1.6
45 1
53 2.8
54 2.9
56 24.4
57 99.99
58 4
59 1.5
60 9.1
61 5
67 4.3
68 3.4
69 18.2
70 98.9
71 66.1
72 3.8
73 7.5
74 3.1
81 4.2
83 28.2
84 17.8
85 2.1
86 1.4
87 5.1
96 1.2
97 4.1
98 7
99 2
101 1.9
111 2
112 69.8
113 13.1
115 3.5
123 1.4
129 3.6
139 1
141 64.6
142 7.1
143 1.3
157 1.8
158 10
159 19.4
160 1.7
184 1.1

$$$$

     RDKit          2D

  8  7  0  0  0  0  0  0  0  0999 V2000
    0.9007   -0.3615    0.0000 C   0  0  0  0  0  0  0  0  0  0  0  0
   -0.5993    2.2365    0.0000 C   0  0  0  0  0  0  0  0  0  0  0  0
   -1.1483    0.1875    0.0000 C   0  0  0  0  0  0  0  0  0  0  0  0
    2.7488    3.9375    0.0000 C   0  0  0  0  0  0  0  0  0  0  0  0
    1.4498    1.6875    0.0000 C   0  0  0  0  0  0  0  0  0  0  0  0
    0.1507    0.9375    0.0000 C   0  0  0  0  0  0  0  0  0  0  0  0
    2.7488    0.9375    0.0000 O   0  0  0  0  0  0  0  0  0  0  0  0
    1.4498    3.1875    0.0000 O   0  0  0  0  0  0  0  0  0  0  0  0
  6  1  1  0
  6  2  1  0
  6  3  1  0
  6  5  1  0
  7  5  2  0
  8  4  1  0
  8  5  1  0
M  END
>  <NAME>  (846) 
METHYL PIVALATE

>  <SYNONYMS>  (846) 


>  <SPECTRUM TYPE>  (846) 
MS1

>  <INSTRUMENT TYPE>  (846) 
EI-B

>  <INSTRUMENT>  (846) 
HITACHI M-80B

>  <ION MODE>  (846) 
P

>  <INCHIKEY>  (846) 
CNMFHDIDIMZHKY-UHFFFAOYSA-N

>  <FORMULA>  (846) 
C6H12O2

>  <EXACT MASS>  (846) 
116.083729624

>  <MW>  (846) 
116

>  <ID>  (846) 
JP010875

>  <CONTRIBUTOR>  (846) 
University of Tokyo Team, {Faculty of Engineering, University of Tokyo

>  <COMMENT>  (846) 
SMILES=COC(=O)C(C)(C)C
InChI=InChI=1S/C6H12O2/c1-6(2,3)5(7)8-4/h1-4H3
computed SMILES=O=C(OC)C(C)(C)C
accession=JP010875
date=2016.01.19 (Created 2008.10.21, modified 2011.05.06)
author=SODA AROMATIC CO., LTD.
license=CC BY-NC-SA
exact mass=116.08373
ionization energy=70 eV
ion type=[M]+*
computed spectral entropy=2.2413690773565875
computed normalized entropy=0.7481873788065635
SPLASH=splash10-0a4i-9000000000-030072575a6a9ee832fb
submitter=submitter = University of Tokyo Team (Faculty of Engineering, University of Tokyo)
MoNA Rating=3.75

>  <NUM PEAKS>  (846) 
20

>  <MASS SPECTRAL PEAKS>  (846) 
15 11
27 8.8
29 25.9
38 1.2
39 17.2
40 2.4
41 47.8
42 4.9
43 2
53 1
55 3.7
56 23.6
57 99.99
58 4.2
59 7.3
69 3
73 13.6
85 5.8
101 3
116 2.8

$$$$

     RDKit          2D

  9  8  0  0  0  0  0  0  0  0999 V2000
    1.5368    3.1373    0.0000 C   0  0  0  0  0  0  0  0  0  0  0  0
   -4.4094    4.4363    0.0000 C   0  0  0  0  0  0  0  0  0  0  0  0
   -4.9584    2.3873    0.0000 C   0  0  0  0  0  0  0  0  0  0  0  0
   -2.9094    1.8382    0.0000 C   0  0  0  0  0  0  0  0  0  0  0  0
    0.2377    3.8873    0.0000 C   0  0  0  0  0  0  0  0  0  0  0  0
   -2.3603    3.8873    0.0000 C   0  0  0  0  0  0  0  0  0  0  0  0
   -3.6594    3.1373    0.0000 C   0  0  0  0  0  0  0  0  0  0  0  0
   -2.3603    5.3873    0.0000 O   0  0  0  0  0  0  0  0  0  0  0  0
   -1.0613    3.1373    0.0000 O   0  0  0  0  0  0  0  0  0  0  0  0
  5  1  1  0
  7  2  1  0
  7  3  1  0
  7  4  1  0
  7  6  1  0
  8  6  2  0
  9  5  1  0
  9  6  1  0
M  END
>  <NAME>  (847) 
ETHYL PIVALATE

>  <SYNONYMS>  (847) 


>  <SPECTRUM TYPE>  (847) 
MS1

>  <INSTRUMENT TYPE>  (847) 
EI-B

>  <INSTRUMENT>  (847) 
HITACHI M-80B

>  <ION MODE>  (847) 
P

>  <INCHIKEY>  (847) 
HHEIMYAXCOIQCJ-UHFFFAOYSA-N

>  <FORMULA>  (847) 
C7H14O2

>  <EXACT MASS>  (847) 
130.099379688

>  <MW>  (847) 
130

>  <ID>  (847) 
JP010874

>  <CONTRIBUTOR>  (847) 
University of Tokyo Team, {Faculty of Engineering, University of Tokyo

>  <COMMENT>  (847) 
SMILES=CCOC(=O)C(C)(C)C
InChI=InChI=1S/C7H14O2/c1-5-9-6(8)7(2,3)4/h5H2,1-4H3
computed SMILES=O=C(OCC)C(C)(C)C
accession=JP010874
date=2016.01.19 (Created 2008.10.21, modified 2011.05.06)
author=SODA AROMATIC CO., LTD.
license=CC BY-NC-SA
exact mass=130.09938
ionization energy=70 eV
ion type=[M]+*
computed spectral entropy=2.0801316730856536
computed normalized entropy=0.7341952124606328
SPLASH=splash10-0a4i-9000000000-4a85592819143172b1ea
submitter=submitter = University of Tokyo Team (Faculty of Engineering, University of Tokyo)
MoNA Rating=3.75

>  <NUM PEAKS>  (847) 
17

>  <MASS SPECTRAL PEAKS>  (847) 
15 1.3
27 8.7
29 22.5
39 8.7
41 29.2
42 3.2
43 2.1
45 1.6
55 2
56 18.5
57 99.99
58 5
59 8
75 5.1
85 8.3
87 7.4
130 5.4

$$$$

     RDKit          2D

 18 18  0  0  0  0  0  0  0  0999 V2000
  -11.3663    6.5071    0.0000 C   0  0  0  0  0  0  0  0  0  0  0  0
  -10.0673    5.7571    0.0000 C   0  0  0  0  0  0  0  0  0  0  0  0
   -8.7683    6.5071    0.0000 C   0  0  0  0  0  0  0  0  0  0  0  0
   -7.4692    5.7571    0.0000 C   0  0  0  0  0  0  0  0  0  0  0  0
   -6.1702    6.5071    0.0000 C   0  0  0  0  0  0  0  0  0  0  0  0
    5.5212    4.2571    0.0000 C   0  0  0  0  0  0  0  0  0  0  0  0
    5.5216    5.7579    0.0000 C   0  0  0  0  0  0  0  0  0  0  0  0
    4.2216    3.5063    0.0000 C   0  0  0  0  0  0  0  0  0  0  0  0
   -4.8712    5.7571    0.0000 C   0  0  0  0  0  0  0  0  0  0  0  0
    4.2226    6.5079    0.0000 C   0  0  0  0  0  0  0  0  0  0  0  0
    2.9226    4.2563    0.0000 C   0  0  0  0  0  0  0  0  0  0  0  0
   -3.5721    6.5071    0.0000 C   0  0  0  0  0  0  0  0  0  0  0  0
    1.6240    6.5071    0.0000 C   0  0  0  0  0  0  0  0  0  0  0  0
    0.3250    5.7571    0.0000 C   0  0  0  0  0  0  0  0  0  0  0  0
    2.9231    5.7571    0.0000 C   0  0  0  0  0  0  0  0  0  0  0  0
   -2.2731    5.7571    0.0000 C   0  0  0  0  0  0  0  0  0  0  0  0
   -2.2731    4.2571    0.0000 O   0  0  0  0  0  0  0  0  0  0  0  0
   -0.9740    6.5071    0.0000 O   0  0  0  0  0  0  0  0  0  0  0  0
  2  1  1  0
  3  2  1  0
  4  3  1  0
  5  4  1  0
  7  6  2  0
  8  6  1  0
  9  5  1  0
 10  7  1  0
 11  8  2  0
 12  9  1  0
 14 13  1  0
 15 10  2  0
 15 11  1  0
 15 13  1  0
 16 12  1  0
 17 16  2  0
 18 14  1  0
 18 16  1  0
M  END
>  <NAME>  (848) 
PHENETHYL OCTANOATE

>  <SYNONYMS>  (848) 


>  <SPECTRUM TYPE>  (848) 
MS1

>  <INSTRUMENT TYPE>  (848) 
EI-B

>  <INSTRUMENT>  (848) 
HITACHI M-80B

>  <ION MODE>  (848) 
P

>  <INCHIKEY>  (848) 
ASETYIALRXDVDF-UHFFFAOYSA-N

>  <FORMULA>  (848) 
C16H24O2

>  <EXACT MASS>  (848) 
248.177630008

>  <MW>  (848) 
248

>  <ID>  (848) 
JP010873

>  <CONTRIBUTOR>  (848) 
University of Tokyo Team, {Faculty of Engineering, University of Tokyo

>  <COMMENT>  (848) 
SMILES=CCCCCCCC(=O)OCCc(c1)cccc1
InChI=InChI=1S/C16H24O2/c1-2-3-4-5-9-12-16(17)18-14-13-15-10-7-6-8-11-15/h6-8,10-11H,2-5,9,12-14H2,1H3
computed SMILES=O=C(OCCC=1C=CC=CC1)CCCCCCC
accession=JP010873
date=2016.01.19 (Created 2008.10.21, modified 2011.05.06)
author=SODA AROMATIC CO., LTD.
license=CC BY-NC-SA
exact mass=248.17763
ionization energy=70 eV
ion type=[M]+*
computed spectral entropy=1.8616518118617207
computed normalized entropy=0.644087324329786
SPLASH=splash10-0udi-4900000000-96f6348b4b447ff46b28
submitter=submitter = University of Tokyo Team (Faculty of Engineering, University of Tokyo)
MoNA Rating=3.75

>  <NUM PEAKS>  (848) 
18

>  <MASS SPECTRAL PEAKS>  (848) 
27 3
29 3.6
39 2.2
41 9.4
42 2.1
43 8
51 1.4
55 3.9
57 16.6
65 1.8
77 3.5
78 1.9
91 4.6
103 2.9
104 99.99
105 24.7
106 1.5
127 3.2

$$$$

     RDKit          2D

 15 15  0  0  0  0  0  0  0  0999 V2000
  -10.4068   -1.5750    0.0000 C   0  0  0  0  0  0  0  0  0  0  0  0
    2.6027    1.4936    0.0000 C   0  0  0  0  0  0  0  0  0  0  0  0
   -9.1140   -0.8143    0.0000 C   0  0  0  0  0  0  0  0  0  0  0  0
   -7.8088   -1.5536    0.0000 C   0  0  0  0  0  0  0  0  0  0  0  0
   -6.5160   -0.7929    0.0000 C   0  0  0  0  0  0  0  0  0  0  0  0
   -5.2108   -1.5321    0.0000 C   0  0  0  0  0  0  0  0  0  0  0  0
    1.3000   -0.7500    0.0000 C   0  0  0  0  0  0  0  0  0  0  0  0
    0.0300    1.5000    0.0000 C   0  0  0  0  0  0  0  0  0  0  0  0
    0.0300   -1.5000    0.0000 C   0  0  0  0  0  0  0  0  0  0  0  0
   -1.3200    0.7500    0.0000 C   0  0  0  0  0  0  0  0  0  0  0  0
    1.3000    0.7500    0.0000 C   0  0  0  0  0  0  0  0  0  0  0  0
   -1.3200   -0.7500    0.0000 C   0  0  0  0  0  0  0  0  0  0  0  0
   -3.9180   -0.7714    0.0000 C   0  0  0  0  0  0  0  0  0  0  0  0
   -3.9304    0.7285    0.0000 O   0  0  0  0  0  0  0  0  0  0  0  0
   -2.6128   -1.5107    0.0000 O   0  0  0  0  0  0  0  0  0  0  0  0
  3  1  1  0
  4  3  1  0
  5  4  1  0
  6  5  1  0
  9  7  2  0
 10  8  1  0
 11  2  1  0
 11  7  1  0
 11  8  2  0
 12  9  1  0
 12 10  2  0
 13  6  1  0
 14 13  2  0
 15 12  1  0
 15 13  1  0
M  END
>  <NAME>  (849) 
4-METHYLPHENYL HEXANOATE

>  <SYNONYMS>  (849) 


>  <SPECTRUM TYPE>  (849) 
MS1

>  <INSTRUMENT TYPE>  (849) 
EI-B

>  <INSTRUMENT>  (849) 
HITACHI M-80B

>  <ION MODE>  (849) 
P

>  <INCHIKEY>  (849) 
CUKVJQWRXQTFRF-UHFFFAOYSA-N

>  <FORMULA>  (849) 
C13H18O2

>  <EXACT MASS>  (849) 
206.130679816

>  <MW>  (849) 
206

>  <ID>  (849) 
JP010872

>  <CONTRIBUTOR>  (849) 
University of Tokyo Team, {Faculty of Engineering, University of Tokyo

>  <COMMENT>  (849) 
SMILES=CCCCCC(=O)Oc(c1)ccc(C)c1
InChI=InChI=1S/C13H18O2/c1-3-4-5-6-13(14)15-12-9-7-11(2)8-10-12/h7-10H,3-6H2,1-2H3
computed SMILES=O=C(OC1=CC=C(C=C1)C)CCCCC
accession=JP010872
date=2016.01.19 (Created 2008.10.21, modified 2011.05.06)
author=SODA AROMATIC CO., LTD.
license=CC BY-NC-SA
exact mass=206.13068
ionization energy=70 eV
ion type=[M]+*
computed spectral entropy=2.2661544279849553
computed normalized entropy=0.7227423404171133
SPLASH=splash10-0a4i-8900000000-11bfd53cea4319d35b7e
submitter=submitter = University of Tokyo Team (Faculty of Engineering, University of Tokyo)
MoNA Rating=3.75

>  <NUM PEAKS>  (849) 
23

>  <MASS SPECTRAL PEAKS>  (849) 
27 6.9
29 6.8
39 5.1
41 8.7
42 2.2
43 27.7
51 2.1
52 1.6
53 1.9
55 5.1
65 2.1
71 9.8
77 8.6
78 2.8
79 4.2
80 1.4
90 1
91 3.6
99 6.2
107 11.6
108 99.99
109 9.3
206 4.7

$$$$

     RDKit          2D

 19 18  0  0  0  0  0  0  0  0999 V2000
  -16.2380   10.1250    0.0000 C   0  0  0  0  0  0  0  0  0  0  0  0
    5.8457    9.3750    0.0000 C   0  0  0  0  0  0  0  0  0  0  0  0
  -14.9389    9.3750    0.0000 C   0  0  0  0  0  0  0  0  0  0  0  0
    4.5466   10.1250    0.0000 C   0  0  0  0  0  0  0  0  0  0  0  0
  -13.6399   10.1250    0.0000 C   0  0  0  0  0  0  0  0  0  0  0  0
    3.2476    9.3750    0.0000 C   0  0  0  0  0  0  0  0  0  0  0  0
  -12.3409    9.3750    0.0000 C   0  0  0  0  0  0  0  0  0  0  0  0
    1.9486   10.1250    0.0000 C   0  0  0  0  0  0  0  0  0  0  0  0
  -11.0418   10.1250    0.0000 C   0  0  0  0  0  0  0  0  0  0  0  0
   -9.7428    9.3750    0.0000 C   0  0  0  0  0  0  0  0  0  0  0  0
   -8.4437   10.1250    0.0000 C   0  0  0  0  0  0  0  0  0  0  0  0
   -7.1447    9.3750    0.0000 C   0  0  0  0  0  0  0  0  0  0  0  0
   -5.8457   10.1250    0.0000 C   0  0  0  0  0  0  0  0  0  0  0  0
    0.6495    9.3750    0.0000 C   0  0  0  0  0  0  0  0  0  0  0  0
   -4.5466    9.3750    0.0000 C   0  0  0  0  0  0  0  0  0  0  0  0
   -0.6495   10.1250    0.0000 C   0  0  0  0  0  0  0  0  0  0  0  0
   -3.2476   10.1250    0.0000 C   0  0  0  0  0  0  0  0  0  0  0  0
   -3.2476   11.6250    0.0000 O   0  0  0  0  0  0  0  0  0  0  0  0
   -1.9486    9.3750    0.0000 O   0  0  0  0  0  0  0  0  0  0  0  0
  3  1  2  0
  4  2  1  0
  5  3  1  0
  6  4  1  0
  7  5  1  0
  8  6  1  0
  9  7  1  0
 10  9  1  0
 11 10  1  0
 12 11  1  0
 13 12  1  0
 14  8  1  0
 15 13  1  0
 16 14  1  0
 17 15  1  0
 18 17  2  0
 19 16  1  0
 19 17  1  0
M  END
>  <NAME>  (850) 
HEXYL 10-UNDECENOATE

>  <SYNONYMS>  (850) 


>  <SPECTRUM TYPE>  (850) 
MS1

>  <INSTRUMENT TYPE>  (850) 
EI-B

>  <INSTRUMENT>  (850) 
HITACHI M-80B

>  <ION MODE>  (850) 
P

>  <INCHIKEY>  (850) 
LIZMMPXSSWQZSY-UHFFFAOYSA-N

>  <FORMULA>  (850) 
C17H32O2

>  <EXACT MASS>  (850) 
268.240230264

>  <MW>  (850) 
268

>  <ID>  (850) 
JP010871

>  <CONTRIBUTOR>  (850) 
University of Tokyo Team, {Faculty of Engineering, University of Tokyo

>  <COMMENT>  (850) 
SMILES=C=CCCCCCCCCC(=O)OCCCCCC
InChI=InChI=1S/C17H32O2/c1-3-5-7-9-10-11-12-13-15-17(18)19-16-14-8-6-4-2/h3H,1,4-16H2,2H3
computed SMILES=O=C(OCCCCCC)CCCCCCCCC=C
accession=JP010871
date=2016.01.19 (Created 2008.10.21, modified 2011.05.06)
author=SODA AROMATIC CO., LTD.
license=CC BY-NC-SA
exact mass=268.24023
ionization energy=70 eV
ion type=[M]+*
computed spectral entropy=3.519065676817808
computed normalized entropy=0.8311235612512149
SPLASH=splash10-052f-9100000000-79b03a5cb55725c803bf
submitter=submitter = University of Tokyo Team (Faculty of Engineering, University of Tokyo)
MoNA Rating=3.75

>  <NUM PEAKS>  (850) 
69

>  <MASS SPECTRAL PEAKS>  (850) 
27 13.5
29 22.7
39 14.5
41 66.8
42 22.6
43 99.99
44 2.2
45 1.6
53 5
54 9.6
55 71.4
56 36.3
57 16.5
59 1.3
60 8.6
61 14.5
67 15.7
68 10.7
69 33
70 7.1
71 3.4
73 11.1
74 1.2
79 2.3
80 1.6
81 12.5
82 15
83 24.9
84 43.2
85 17.9
86 1.2
87 3.3
93 1.7
94 1.8
95 5.3
96 15.6
97 13.8
98 14.2
99 2.6
100 3
101 4.6
102 1.2
107 2
109 2.1
110 4.1
111 3.8
112 1.8
113 1.3
114 3.8
115 1.8
119 1.1
121 1.3
122 5.4
123 6.9
124 14.6
125 6
127 1.7
129 1.4
137 2.8
138 2.2
141 1.3
147 1.7
148 3
149 9.3
157 1.1
165 1.8
166 10.7
167 7.3
185 2.1

$$$$

     RDKit          2D

 15 15  0  0  0  0  0  0  0  0999 V2000
   -4.2233    3.5628    0.0000 C   0  0  0  0  0  0  0  0  0  0  0  0
   -1.6250    2.0632    0.0000 C   0  0  0  0  0  0  0  0  0  0  0  0
   -2.9244    4.3130    0.0000 C   0  0  0  0  0  0  0  0  0  0  0  0
    4.8709    1.3123    0.0000 C   0  0  0  0  0  0  0  0  0  0  0  0
    6.1700    2.0623    0.0000 C   0  0  0  0  0  0  0  0  0  0  0  0
    3.5714    2.0632    0.0000 C   0  0  0  0  0  0  0  0  0  0  0  0
    6.1695    3.5632    0.0000 C   0  0  0  0  0  0  0  0  0  0  0  0
   -0.3263    4.3134    0.0000 C   0  0  0  0  0  0  0  0  0  0  0  0
   -1.6252    3.5632    0.0000 C   0  0  0  0  0  0  0  0  0  0  0  0
    3.5709    3.5640    0.0000 C   0  0  0  0  0  0  0  0  0  0  0  0
    4.8700    4.3140    0.0000 C   0  0  0  0  0  0  0  0  0  0  0  0
    2.2718    4.3138    0.0000 C   0  0  0  0  0  0  0  0  0  0  0  0
    4.8702    5.8140    0.0000 O   0  0  0  0  0  0  0  0  0  0  0  0
    2.2715    5.8138    0.0000 O   0  0  0  0  0  0  0  0  0  0  0  0
    0.9729    3.5636    0.0000 O   0  0  0  0  0  0  0  0  0  0  0  0
  3  1  1  0
  5  4  2  0
  6  4  1  0
  7  5  1  0
  9  2  1  0
  9  3  1  0
  9  8  1  0
 10  6  2  0
 11  7  2  0
 11 10  1  0
 12 10  1  0
 13 11  1  0
 14 12  2  0
 15  8  1  0
 15 12  1  0
M  END
>  <NAME>  (851) 
2-METHYLBUTYL SALICYLATE

>  <SYNONYMS>  (851) 


>  <SPECTRUM TYPE>  (851) 
MS1

>  <INSTRUMENT TYPE>  (851) 
EI-B

>  <INSTRUMENT>  (851) 
HITACHI M-80B

>  <ION MODE>  (851) 
P

>  <INCHIKEY>  (851) 
LCMNCRZMVCRJNZ-UHFFFAOYSA-N

>  <FORMULA>  (851) 
C12H16O3

>  <EXACT MASS>  (851) 
208.109944372

>  <MW>  (851) 
208

>  <ID>  (851) 
JP010870

>  <CONTRIBUTOR>  (851) 
University of Tokyo Team, {Faculty of Engineering, University of Tokyo

>  <COMMENT>  (851) 
SMILES=CCC(C)COC(=O)c(c1)c(O)ccc1
InChI=InChI=1S/C12H16O3/c1-3-9(2)8-15-12(14)10-6-4-5-7-11(10)13/h4-7,9,13H,3,8H2,1-2H3
computed SMILES=O=C(OCC(C)CC)C=1C=CC=CC1O
accession=JP010870
date=2016.01.19 (Created 2008.10.21, modified 2011.05.06)
author=SODA AROMATIC CO., LTD.
license=CC BY-NC-SA
exact mass=208.10994
ionization energy=70 eV
ion type=[M]+*
computed spectral entropy=2.6628551697345397
computed normalized entropy=0.8272624713143671
SPLASH=splash10-00di-9700000000-570811aea3ab8c74ff00
submitter=submitter = University of Tokyo Team (Faculty of Engineering, University of Tokyo)
MoNA Rating=3.75

>  <NUM PEAKS>  (851) 
25

>  <MASS SPECTRAL PEAKS>  (851) 
27 10.6
29 15.5
38 1.6
39 20
41 15.4
42 4.1
43 36.1
53 3.2
55 12.5
57 1.8
63 4.3
64 6
65 21.5
66 1.6
70 16.1
71 7.8
92 19.6
93 8.9
120 99.99
121 37.3
122 2.5
138 38.9
139 4.2
208 9.5
209 1.1

$$$$

     RDKit          2D

 14 13  0  0  0  0  0  0  0  0999 V2000
    2.8358    5.3873    0.0000 C   0  0  0  0  0  0  0  0  0  0  0  0
   -4.9584    3.8873    0.0000 C   0  0  0  0  0  0  0  0  0  0  0  0
   -8.3065    6.6863    0.0000 C   0  0  0  0  0  0  0  0  0  0  0  0
   -8.8555    4.6373    0.0000 C   0  0  0  0  0  0  0  0  0  0  0  0
   -6.8065    4.0882    0.0000 C   0  0  0  0  0  0  0  0  0  0  0  0
    1.5368    6.1373    0.0000 C   0  0  0  0  0  0  0  0  0  0  0  0
    0.2377    5.3873    0.0000 C   0  0  0  0  0  0  0  0  0  0  0  0
   -3.6594    6.1373    0.0000 C   0  0  0  0  0  0  0  0  0  0  0  0
   -6.2575    6.1373    0.0000 C   0  0  0  0  0  0  0  0  0  0  0  0
   -4.9584    5.3873    0.0000 C   0  0  0  0  0  0  0  0  0  0  0  0
   -2.3603    5.3873    0.0000 C   0  0  0  0  0  0  0  0  0  0  0  0
   -7.5565    5.3873    0.0000 C   0  0  0  0  0  0  0  0  0  0  0  0
   -2.3603    3.8873    0.0000 O   0  0  0  0  0  0  0  0  0  0  0  0
   -1.0613    6.1373    0.0000 O   0  0  0  0  0  0  0  0  0  0  0  0
  6  1  1  0
  7  6  1  0
 10  2  1  0
 10  8  1  0
 10  9  1  0
 11  8  1  0
 12  3  1  0
 12  4  1  0
 12  5  1  0
 12  9  1  0
 13 11  2  0
 14  7  1  0
 14 11  1  0
M  END
>  <NAME>  (852) 
PROPYL 3,5,5-TRIMETHYLHEXANOATE

>  <SYNONYMS>  (852) 


>  <SPECTRUM TYPE>  (852) 
MS1

>  <INSTRUMENT TYPE>  (852) 
EI-B

>  <INSTRUMENT>  (852) 
HITACHI M-80B

>  <ION MODE>  (852) 
P

>  <INCHIKEY>  (852) 
TXDNNEFZLUFLRT-UHFFFAOYSA-N

>  <FORMULA>  (852) 
C12H24O2

>  <EXACT MASS>  (852) 
200.177630008

>  <MW>  (852) 
200

>  <ID>  (852) 
JP010869

>  <CONTRIBUTOR>  (852) 
University of Tokyo Team, {Faculty of Engineering, University of Tokyo

>  <COMMENT>  (852) 
SMILES=CCCOC(=O)CC(C)CC(C)(C)C
InChI=InChI=1S/C12H24O2/c1-6-7-14-11(13)8-10(2)9-12(3,4)5/h10H,6-9H2,1-5H3
computed SMILES=O=C(OCCC)CC(C)CC(C)(C)C
accession=JP010869
date=2016.01.19 (Created 2008.10.21, modified 2011.05.06)
author=SODA AROMATIC CO., LTD.
license=CC BY-NC-SA
exact mass=200.17763
ionization energy=70 eV
ion type=[M]+*
computed spectral entropy=3.0442712279693285
computed normalized entropy=0.8252563592378375
SPLASH=splash10-06r6-9200000000-fe22d1a78cbb44eddd8e
submitter=submitter = University of Tokyo Team (Faculty of Engineering, University of Tokyo)
MoNA Rating=3.75

>  <NUM PEAKS>  (852) 
40

>  <MASS SPECTRAL PEAKS>  (852) 
15 1.6
27 18.3
29 21.5
31 3.1
39 12.4
41 60
42 14.6
43 41.7
45 2.2
53 2.7
55 21
56 20.4
57 99.99
58 3.7
59 7.3
60 39.4
61 72.5
62 1.5
67 2
69 7.8
71 7
73 1.3
81 1
83 50
84 3.4
87 5
97 5.4
98 1.5
101 11.3
102 52.4
103 16.8
125 7.6
129 1.2
141 28.2
142 2.7
143 14.1
144 8.1
145 3
159 3.7
185 4.5

$$$$

     RDKit          2D

 10 10  0  0  0  0  0  0  0  0999 V2000
    3.5637    0.9495    0.0000 C   0  0  0  0  0  0  0  0  0  0  0  0
   -0.3238    1.6700    0.0000 C   0  0  0  0  0  0  0  0  0  0  0  0
    0.9712   -0.5730    0.0000 C   0  0  0  0  0  0  0  0  0  0  0  0
   -1.6229    0.9200    0.0000 C   0  0  0  0  0  0  0  0  0  0  0  0
   -0.3279   -1.3230    0.0000 C   0  0  0  0  0  0  0  0  0  0  0  0
    2.2610    1.6930    0.0000 C   0  0  0  0  0  0  0  0  0  0  0  0
    0.9657    0.9365    0.0000 C   0  0  0  0  0  0  0  0  0  0  0  0
   -1.6410   -0.5685    0.0000 C   0  0  0  0  0  0  0  0  0  0  0  0
   -2.9438   -1.3119    0.0000 Cl  0  0  0  0  0  0  0  0  0  0  0  0
    2.2534    3.1930    0.0000 O   0  0  0  0  0  0  0  0  0  0  0  0
  4  2  2  0
  5  3  1  0
  6  1  1  0
  7  2  1  0
  7  3  2  0
  7  6  1  0
  8  4  1  0
  8  5  2  0
  9  8  1  0
 10  6  2  0
M  END
>  <NAME>  (853) 
4-CHLOROACETOPHENONE

>  <SYNONYMS>  (853) 


>  <SPECTRUM TYPE>  (853) 
MS1

>  <INSTRUMENT TYPE>  (853) 
EI-B

>  <INSTRUMENT>  (853) 
HITACHI M-80B

>  <ION MODE>  (853) 
P

>  <INCHIKEY>  (853) 
BUZYGTVTZYSBCU-UHFFFAOYSA-N

>  <FORMULA>  (853) 
C8H7ClO

>  <EXACT MASS>  (853) 
154.018542524

>  <MW>  (853) 
154

>  <ID>  (853) 
JP010868

>  <CONTRIBUTOR>  (853) 
University of Tokyo Team, {Faculty of Engineering, University of Tokyo

>  <COMMENT>  (853) 
SMILES=CC(=O)c(c1)ccc(Cl)c1
InChI=InChI=1S/C8H7ClO/c1-6(10)7-2-4-8(9)5-3-7/h2-5H,1H3
computed SMILES=O=C(C1=CC=C(Cl)C=C1)C
license=CC BY-NC-SA
exact mass=154.01854
computed spectral entropy=2.7867931829788346
computed normalized entropy=0.777669444710531
accession=JP010868
date=2016.01.19 (Created 2008.10.21, modified 2011.05.06)
author=SODA AROMATIC CO., LTD.
ionization energy=70 eV
ion type=[M]+*
SPLASH=splash10-0gw3-5900000000-c2ec333c63739290965c
submitter=submitter = University of Tokyo Team (Faculty of Engineering, University of Tokyo)
MoNA Rating=3.75

>  <NUM PEAKS>  (853) 
36

>  <MASS SPECTRAL PEAKS>  (853) 
15 6.7
27 1.1
37 1.9
38 4.7
39 2.7
42 2.2
43 29.2
49 1.9
50 22.5
51 10.7
61 2.5
62 2.4
63 5.5
69 1.2
73 4.3
74 12
75 34.9
76 10
77 2.5
84 1.3
85 4.6
86 1.2
87 1.5
89 2.1
104 1.8
111 52.8
112 4.8
113 17.6
114 1.1
139 99.99
140 7.5
141 31.5
142 2
154 26.4
155 2
156 8.5

$$$$

     RDKit          2D

 14 14  0  0  0  0  0  0  0  0999 V2000
   -6.8197    3.1321    0.0000 C   0  0  0  0  0  0  0  0  0  0  0  0
    3.5726    1.6321    0.0000 C   0  0  0  0  0  0  0  0  0  0  0  0
    3.5731    3.1329    0.0000 C   0  0  0  0  0  0  0  0  0  0  0  0
    2.2731    0.8813    0.0000 C   0  0  0  0  0  0  0  0  0  0  0  0
    2.2740    3.8829    0.0000 C   0  0  0  0  0  0  0  0  0  0  0  0
    0.9740    1.6313    0.0000 C   0  0  0  0  0  0  0  0  0  0  0  0
   -0.3245    3.8821    0.0000 C   0  0  0  0  0  0  0  0  0  0  0  0
   -4.2216    3.1321    0.0000 C   0  0  0  0  0  0  0  0  0  0  0  0
   -5.5207    3.8821    0.0000 C   0  0  0  0  0  0  0  0  0  0  0  0
    0.9745    3.1321    0.0000 C   0  0  0  0  0  0  0  0  0  0  0  0
   -1.6236    3.1321    0.0000 C   0  0  0  0  0  0  0  0  0  0  0  0
   -5.5207    5.3821    0.0000 O   0  0  0  0  0  0  0  0  0  0  0  0
   -1.6236    1.6321    0.0000 O   0  0  0  0  0  0  0  0  0  0  0  0
   -2.9226    3.8821    0.0000 O   0  0  0  0  0  0  0  0  0  0  0  0
  3  2  2  0
  4  2  1  0
  5  3  1  0
  6  4  2  0
  9  1  1  0
  9  8  1  0
 10  5  2  0
 10  6  1  0
 10  7  1  0
 11  7  1  0
 12  9  1  0
 13 11  2  0
 14  8  1  0
 14 11  1  0
M  END
>  <NAME>  (854) 
2-HYDROXYPROPYL PHENYLACETATE

>  <SYNONYMS>  (854) 


>  <SPECTRUM TYPE>  (854) 
MS1

>  <INSTRUMENT TYPE>  (854) 
EI-B

>  <INSTRUMENT>  (854) 
HITACHI M-80B

>  <ION MODE>  (854) 
P

>  <INCHIKEY>  (854) 
DMVWKGDEFQXZJS-UHFFFAOYSA-N

>  <FORMULA>  (854) 
C11H14O3

>  <EXACT MASS>  (854) 
194.094294308

>  <MW>  (854) 
194

>  <ID>  (854) 
JP010867

>  <CONTRIBUTOR>  (854) 
University of Tokyo Team, {Faculty of Engineering, University of Tokyo

>  <COMMENT>  (854) 
SMILES=CC(O)COC(=O)Cc(c1)cccc1
InChI=InChI=1S/C11H14O3/c1-9(12)8-14-11(13)7-10-5-3-2-4-6-10/h2-6,9,12H,7-8H2,1H3
computed SMILES=O=C(OCC(O)C)CC=1C=CC=CC1
accession=JP010867
date=2016.01.19 (Created 2008.10.21, modified 2011.05.06)
author=SODA AROMATIC CO., LTD.
license=CC BY-NC-SA
exact mass=194.09429
ionization energy=70 eV
ion type=[M]+*
computed spectral entropy=2.436582458560787
computed normalized entropy=0.7478545924364878
SPLASH=splash10-0006-9100000000-cc4f0872bf530f7658de
submitter=submitter = University of Tokyo Team (Faculty of Engineering, University of Tokyo)
MoNA Rating=3.75

>  <NUM PEAKS>  (854) 
26

>  <MASS SPECTRAL PEAKS>  (854) 
15 1.2
27 2.4
29 3.4
31 20.7
39 7.6
41 9
43 4.5
50 1.1
51 2.6
58 13.4
59 11.2
62 1
63 3.7
64 1.1
65 14.2
89 4.6
90 3
91 99.99
92 21.3
104 4.4
105 4.1
118 6.3
119 7.6
136 1.4
137 6.7
150 2.9

$$$$

     RDKit          2D

 13 12  0  0  0  0  0  0  0  0999 V2000
    3.2476    4.8750    0.0000 C   0  0  0  0  0  0  0  0  0  0  0  0
   -8.4437    5.6250    0.0000 C   0  0  0  0  0  0  0  0  0  0  0  0
    1.9486    5.6250    0.0000 C   0  0  0  0  0  0  0  0  0  0  0  0
   -7.1447    4.8750    0.0000 C   0  0  0  0  0  0  0  0  0  0  0  0
   -1.9486    4.8750    0.0000 C   0  0  0  0  0  0  0  0  0  0  0  0
   -3.2476    5.6250    0.0000 C   0  0  0  0  0  0  0  0  0  0  0  0
   -0.6495    5.6250    0.0000 C   0  0  0  0  0  0  0  0  0  0  0  0
   -4.5466    4.8750    0.0000 C   0  0  0  0  0  0  0  0  0  0  0  0
   -3.2476    7.1250    0.0000 O   0  0  0  0  0  0  0  0  0  0  0  0
   -0.6495    7.1250    0.0000 O   0  0  0  0  0  0  0  0  0  0  0  0
   -4.5466    3.3750    0.0000 O   0  0  0  0  0  0  0  0  0  0  0  0
    0.6495    4.8750    0.0000 O   0  0  0  0  0  0  0  0  0  0  0  0
   -5.8457    5.6250    0.0000 O   0  0  0  0  0  0  0  0  0  0  0  0
  3  1  1  0
  4  2  1  0
  6  5  1  0
  7  5  1  0
  8  6  1  0
  9  6  1  0
 10  7  2  0
 11  8  2  0
 12  3  1  0
 12  7  1  0
 13  4  1  0
 13  8  1  0
M  END
>  <NAME>  (855) 
DIETHYL HYDROXYBUTANEDIOATE

>  <SYNONYMS>  (855) 


>  <SPECTRUM TYPE>  (855) 
MS1

>  <INSTRUMENT TYPE>  (855) 
EI-B

>  <INSTRUMENT>  (855) 
HITACHI M-80B

>  <ION MODE>  (855) 
P

>  <INCHIKEY>  (855) 
VKNUORWMCINMRB-UHFFFAOYSA-N

>  <FORMULA>  (855) 
C8H14O5

>  <EXACT MASS>  (855) 
190.08412354799998

>  <MW>  (855) 
190

>  <ID>  (855) 
JP010866

>  <CONTRIBUTOR>  (855) 
University of Tokyo Team, {Faculty of Engineering, University of Tokyo

>  <COMMENT>  (855) 
SMILES=CCOC(=O)CC(O)C(=O)OCC
InChI=InChI=1S/C8H14O5/c1-3-12-7(10)5-6(9)8(11)13-4-2/h6,9H,3-5H2,1-2H3
computed SMILES=O=C(OCC)CC(O)C(=O)OCC
accession=JP010866
date=2016.01.19 (Created 2008.10.21, modified 2011.05.06)
author=SODA AROMATIC CO., LTD.
license=CC BY-NC-SA
exact mass=190.08412
ionization energy=70 eV
ion type=[M]+*
computed spectral entropy=2.65825712984579
computed normalized entropy=0.7741022233204097
SPLASH=splash10-00vl-9200000000-0e2b63fa1358ecc4727d
submitter=submitter = University of Tokyo Team (Faculty of Engineering, University of Tokyo)
MoNA Rating=3.75

>  <NUM PEAKS>  (855) 
31

>  <MASS SPECTRAL PEAKS>  (855) 
15 4.9
19 4.7
26 3.2
27 26.3
29 61.1
30 1.8
31 5.4
42 8.2
43 47
44 19.6
45 14.9
47 10.9
55 3.9
60 5.2
61 1.4
69 1
71 99.99
72 7.1
73 2.3
75 17.9
87 1
88 5.7
89 37.8
90 2
100 1.3
116 3.8
117 86.5
118 8.4
127 3.8
144 2.2
145 8.7

$$$$

     RDKit          2D

 16 16  0  0  0  0  0  0  0  0999 V2000
    5.5216    4.2579    0.0000 C   0  0  0  0  0  0  0  0  0  0  0  0
    4.2226    5.0079    0.0000 C   0  0  0  0  0  0  0  0  0  0  0  0
    2.9236    4.2579    0.0000 C   0  0  0  0  0  0  0  0  0  0  0  0
    1.6245    5.0079    0.0000 C   0  0  0  0  0  0  0  0  0  0  0  0
   -8.7678    6.5079    0.0000 C   0  0  0  0  0  0  0  0  0  0  0  0
   -8.7683    5.0071    0.0000 C   0  0  0  0  0  0  0  0  0  0  0  0
   -7.4683    7.2587    0.0000 C   0  0  0  0  0  0  0  0  0  0  0  0
    0.3255    4.2579    0.0000 C   0  0  0  0  0  0  0  0  0  0  0  0
   -7.4692    4.2571    0.0000 C   0  0  0  0  0  0  0  0  0  0  0  0
   -6.1692    6.5087    0.0000 C   0  0  0  0  0  0  0  0  0  0  0  0
   -0.9736    5.0079    0.0000 C   0  0  0  0  0  0  0  0  0  0  0  0
   -4.8707    4.2579    0.0000 C   0  0  0  0  0  0  0  0  0  0  0  0
   -3.5716    5.0079    0.0000 C   0  0  0  0  0  0  0  0  0  0  0  0
   -6.1697    5.0079    0.0000 C   0  0  0  0  0  0  0  0  0  0  0  0
   -2.2726    4.2579    0.0000 C   0  0  0  0  0  0  0  0  0  0  0  0
   -2.2726    2.7579    0.0000 O   0  0  0  0  0  0  0  0  0  0  0  0
  2  1  1  0
  3  2  1  0
  4  3  1  0
  6  5  2  0
  7  5  1  0
  8  4  1  0
  9  6  1  0
 10  7  2  0
 11  8  1  0
 13 12  1  0
 14  9  2  0
 14 10  1  0
 14 12  1  0
 15 11  1  0
 15 13  1  0
 16 15  2  0
M  END
>  <NAME>  (856) 
1-PHENYL-3-HEXANONE

>  <SYNONYMS>  (856) 


>  <SPECTRUM TYPE>  (856) 
MS1

>  <INSTRUMENT TYPE>  (856) 
EI-B

>  <INSTRUMENT>  (856) 
HITACHI M-80B

>  <ION MODE>  (856) 
P

>  <INCHIKEY>  (856) 
QQSUQZXKESWTCP-UHFFFAOYSA-N

>  <FORMULA>  (856) 
C15H22O

>  <EXACT MASS>  (856) 
218.167065324

>  <MW>  (856) 
218

>  <ID>  (856) 
JP010865

>  <CONTRIBUTOR>  (856) 
University of Tokyo Team, {Faculty of Engineering, University of Tokyo

>  <COMMENT>  (856) 
SMILES=CCCCCCC(=O)CCc(c1)cccc1
InChI=InChI=1S/C15H22O/c1-2-3-4-8-11-15(16)13-12-14-9-6-5-7-10-14/h5-7,9-10H,2-4,8,11-13H2,1H3
computed SMILES=O=C(CCC=1C=CC=CC1)CCCCCC
accession=JP010865
date=2016.01.19 (Created 2008.10.21, modified 2011.05.06)
author=SODA AROMATIC CO., LTD.
license=CC BY-NC-SA
exact mass=218.16707
ionization energy=70 eV
ion type=[M]+*
computed spectral entropy=3.096370043013431
computed normalized entropy=0.8134080842035079
SPLASH=splash10-0006-9500000000-1ddc24e2e190690adc84
submitter=submitter = University of Tokyo Team (Faculty of Engineering, University of Tokyo)
MoNA Rating=3.75

>  <NUM PEAKS>  (856) 
45

>  <MASS SPECTRAL PEAKS>  (856) 
27 14.8
29 15.7
39 9.4
41 24.5
42 4.6
43 66.8
44 1.5
50 1.2
51 6.7
52 1.4
53 1.9
55 9.2
56 1.3
57 9.5
63 1.8
65 10.7
69 1.8
70 1.2
77 14.9
78 7.3
79 9.4
85 13.3
89 1.6
91 99.99
92 9
94 2.2
95 6.4
96 8.3
103 7.4
104 17.4
105 67.3
106 7
113 28.1
114 2
115 1.6
129 1
130 26.2
131 3.1
133 26.2
134 2.4
148 20.1
149 2.3
161 3.2
218 5.6
219 1

$$$$

     RDKit          2D

 22 21  0  0  0  0  0  0  0  0999 V2000
  -19.4856   11.2500    0.0000 C   0  0  0  0  0  0  0  0  0  0  0  0
  -18.1865   10.5000    0.0000 C   0  0  0  0  0  0  0  0  0  0  0  0
  -16.8875   11.2500    0.0000 C   0  0  0  0  0  0  0  0  0  0  0  0
  -15.5885   10.5000    0.0000 C   0  0  0  0  0  0  0  0  0  0  0  0
  -14.2894   11.2500    0.0000 C   0  0  0  0  0  0  0  0  0  0  0  0
  -12.9904   10.5000    0.0000 C   0  0  0  0  0  0  0  0  0  0  0  0
  -11.6913   11.2500    0.0000 C   0  0  0  0  0  0  0  0  0  0  0  0
  -10.3923   10.5000    0.0000 C   0  0  0  0  0  0  0  0  0  0  0  0
   -9.0933   11.2500    0.0000 C   0  0  0  0  0  0  0  0  0  0  0  0
   -7.7942   10.5000    0.0000 C   0  0  0  0  0  0  0  0  0  0  0  0
   -6.4952   11.2500    0.0000 C   0  0  0  0  0  0  0  0  0  0  0  0
   -5.1962   10.5000    0.0000 C   0  0  0  0  0  0  0  0  0  0  0  0
   -3.8971   11.2500    0.0000 C   0  0  0  0  0  0  0  0  0  0  0  0
   -2.5981   10.5000    0.0000 C   0  0  0  0  0  0  0  0  0  0  0  0
   -1.2990   11.2500    0.0000 C   0  0  0  0  0  0  0  0  0  0  0  0
    0.0000   10.5000    0.0000 C   0  0  0  0  0  0  0  0  0  0  0  0
    1.2990   11.2500    0.0000 C   0  0  0  0  0  0  0  0  0  0  0  0
    2.5981   10.5000    0.0000 C   0  0  0  0  0  0  0  0  0  0  0  0
    3.8971   11.2500    0.0000 C   0  0  0  0  0  0  0  0  0  0  0  0
    5.1962   10.5000    0.0000 C   0  0  0  0  0  0  0  0  0  0  0  0
    5.1962    9.0000    0.0000 O   0  0  0  0  0  0  0  0  0  0  0  0
    6.4952   11.2500    0.0000 O   0  0  0  0  0  0  0  0  0  0  0  0
  2  1  1  0
  3  2  1  0
  4  3  1  0
  5  4  1  0
  6  5  1  0
  7  6  1  0
  8  7  1  0
  9  8  1  0
 10  9  1  0
 11 10  1  0
 12 11  1  0
 13 12  1  0
 14 13  1  0
 15 14  1  0
 16 15  1  0
 17 16  1  0
 18 17  1  0
 19 18  1  0
 20 19  1  0
 21 20  2  0
 22 20  1  0
M  END
>  <NAME>  (857) 
EICOSANO1C ACID

>  <SYNONYMS>  (857) 


>  <SPECTRUM TYPE>  (857) 
MS1

>  <INSTRUMENT TYPE>  (857) 
EI-B

>  <INSTRUMENT>  (857) 
HITACHI M-80B

>  <ION MODE>  (857) 
P

>  <INCHIKEY>  (857) 
VKOBVWXKNCXXDE-UHFFFAOYSA-N

>  <FORMULA>  (857) 
C20H40O2

>  <EXACT MASS>  (857) 
312.30283052

>  <MW>  (857) 
312

>  <ID>  (857) 
JP010864

>  <CONTRIBUTOR>  (857) 
University of Tokyo Team, {Faculty of Engineering, University of Tokyo

>  <COMMENT>  (857) 
SMILES=CCCCCCCCCCCCCCCCCCCC(O)=O
InChI=InChI=1S/C20H40O2/c1-2-3-4-5-6-7-8-9-10-11-12-13-14-15-16-17-18-19-20(21)22/h2-19H2,1H3,(H,21,22)
computed SMILES=O=C(O)CCCCCCCCCCCCCCCCCCC
accession=JP010864
date=2016.01.19 (Created 2008.10.21, modified 2011.05.06)
author=SODA AROMATIC CO., LTD.
license=CC BY-NC-SA
exact mass=312.30283
ionization energy=70 eV
ion type=[M]+*
computed spectral entropy=3.346324726251209
computed normalized entropy=0.8076794377299176
SPLASH=splash10-0596-9100000000-53a544b7fbf2ee3b176a
submitter=submitter = University of Tokyo Team (Faculty of Engineering, University of Tokyo)
MoNA Rating=3.75

>  <NUM PEAKS>  (857) 
63

>  <MASS SPECTRAL PEAKS>  (857) 
27 9.3
39 7.1
41 67.7
42 12.5
43 99.99
45 6.6
53 4
54 5.5
55 66.5
56 12.4
57 81
58 1.2
59 2.2
60 79.8
61 21.5
67 7.8
68 6.3
69 28.6
70 8.6
71 29
72 2.9
73 87
74 6.7
79 1.9
81 6.2
82 5.8
83 22.3
84 9.8
85 19.5
87 14.3
88 2.1
95 4.3
96 4.3
97 17.3
98 10.7
99 6.3
101 6.6
102 2.4
109 1.7
110 1.8
112 3.4
113 3.9
115 9.1
116 5.1
125 4.6
126 1.2
127 2.1
129 24.5
130 2.7
139 1.8
141 1.2
143 2.8
157 3.3
171 5.1
185 6.6
199 1.3
213 5.7
227 4.1
241 1.8
255 1.2
269 9.4
270 1.7
283 1.5

$$$$

     RDKit          2D

 14 13  0  0  0  0  0  0  0  0999 V2000
    2.2733    5.0625    0.0000 C   0  0  0  0  0  0  0  0  0  0  0  0
   -4.2219    2.8125    0.0000 C   0  0  0  0  0  0  0  0  0  0  0  0
   -8.1190    5.0625    0.0000 C   0  0  0  0  0  0  0  0  0  0  0  0
   -6.8200    2.8125    0.0000 C   0  0  0  0  0  0  0  0  0  0  0  0
    0.9743    5.8125    0.0000 C   0  0  0  0  0  0  0  0  0  0  0  0
   -2.9228    3.5625    0.0000 C   0  0  0  0  0  0  0  0  0  0  0  0
   -6.8200    5.8125    0.0000 C   0  0  0  0  0  0  0  0  0  0  0  0
   -5.5209    3.5625    0.0000 C   0  0  0  0  0  0  0  0  0  0  0  0
   -0.3248    5.0625    0.0000 C   0  0  0  0  0  0  0  0  0  0  0  0
   -1.6238    5.8125    0.0000 C   0  0  0  0  0  0  0  0  0  0  0  0
   -2.9228    5.0625    0.0000 C   0  0  0  0  0  0  0  0  0  0  0  0
   -4.2219    5.8125    0.0000 C   0  0  0  0  0  0  0  0  0  0  0  0
   -5.5209    5.0625    0.0000 N   0  0  0  0  0  0  0  0  0  0  0  0
   -4.2219    7.3125    0.0000 O   0  0  0  0  0  0  0  0  0  0  0  0
  5  1  1  0
  6  2  1  0
  7  3  1  0
  8  4  1  0
  9  5  1  0
 10  9  1  0
 11  6  1  0
 11 10  1  0
 12 11  1  0
 13  7  1  0
 13  8  1  0
 13 12  1  0
 14 12  2  0
M  END
>  <NAME>  (858) 
N,N-DIETHYL-2-ETHYLHEXANAMIDE

>  <SYNONYMS>  (858) 


>  <SPECTRUM TYPE>  (858) 
MS1

>  <INSTRUMENT TYPE>  (858) 
EI-B

>  <INSTRUMENT>  (858) 
HITACHI M-80B

>  <ION MODE>  (858) 
P

>  <INCHIKEY>  (858) 
LYGCLXFQIQORSE-UHFFFAOYSA-N

>  <FORMULA>  (858) 
C12H25NO

>  <EXACT MASS>  (858) 
199.19361442

>  <MW>  (858) 
199

>  <ID>  (858) 
JP010863

>  <CONTRIBUTOR>  (858) 
University of Tokyo Team, {Faculty of Engineering, University of Tokyo

>  <COMMENT>  (858) 
SMILES=CCCCC(CC)C(=O)N(CC)CC
InChI=InChI=1S/C12H25NO/c1-5-9-10-11(6-2)12(14)13(7-3)8-4/h11H,5-10H2,1-4H3
computed SMILES=O=C(N(CC)CC)C(CC)CCCC
accession=JP010863
date=2016.01.19 (Created 2008.10.21, modified 2011.05.06)
author=SODA AROMATIC CO., LTD.
license=CC BY-NC-SA
exact mass=199.19361
ionization energy=70 eV
ion type=[M]+*
computed spectral entropy=3.3185338338826913
computed normalized entropy=0.8319245690493438
SPLASH=splash10-054o-9500000000-349a5b1b26e0197831cb
submitter=submitter = University of Tokyo Team (Faculty of Engineering, University of Tokyo)
MoNA Rating=3.75

>  <NUM PEAKS>  (858) 
54

>  <MASS SPECTRAL PEAKS>  (858) 
15 2
18 1.7
26 1.2
27 22
28 22.7
29 60
30 6
39 8.2
41 35.7
42 16.2
43 28.6
44 27
53 2.9
54 2.7
55 23.7
56 11.5
57 99.99
58 65
59 2.3
67 1.7
68 1.8
69 8.7
70 8.3
71 2
72 57.6
73 20.6
74 8.9
81 1.1
83 5.8
84 2
86 2.2
87 2.8
97 2.1
98 6
99 4.6
100 59.4
101 3.6
112 2.2
114 4.8
115 24.3
116 1.4
126 1.9
127 2
128 46.8
129 8.4
142 22.8
143 79.7
144 5.9
156 23.8
157 3
170 19.6
171 5
184 4.3
199 3.9

$$$$

     RDKit          2D

 15 15  0  0  0  0  0  0  0  0999 V2000
    4.8721    3.8829    0.0000 C   0  0  0  0  0  0  0  0  0  0  0  0
    3.5731    3.1329    0.0000 C   0  0  0  0  0  0  0  0  0  0  0  0
    2.2740    3.8829    0.0000 C   0  0  0  0  0  0  0  0  0  0  0  0
   -8.1183    5.3829    0.0000 C   0  0  0  0  0  0  0  0  0  0  0  0
   -8.1187    3.8821    0.0000 C   0  0  0  0  0  0  0  0  0  0  0  0
   -6.8187    6.1337    0.0000 C   0  0  0  0  0  0  0  0  0  0  0  0
   -6.8197    3.1321    0.0000 C   0  0  0  0  0  0  0  0  0  0  0  0
   -5.5197    5.3837    0.0000 C   0  0  0  0  0  0  0  0  0  0  0  0
    0.9750    3.1329    0.0000 C   0  0  0  0  0  0  0  0  0  0  0  0
   -4.2212    3.1329    0.0000 C   0  0  0  0  0  0  0  0  0  0  0  0
   -2.9221    3.8829    0.0000 C   0  0  0  0  0  0  0  0  0  0  0  0
   -5.5202    3.8829    0.0000 C   0  0  0  0  0  0  0  0  0  0  0  0
   -0.3240    3.8829    0.0000 C   0  0  0  0  0  0  0  0  0  0  0  0
   -0.3240    5.3829    0.0000 O   0  0  0  0  0  0  0  0  0  0  0  0
   -1.6231    3.1329    0.0000 O   0  0  0  0  0  0  0  0  0  0  0  0
  2  1  1  0
  3  2  1  0
  5  4  2  0
  6  4  1  0
  7  5  1  0
  8  6  2  0
  9  3  1  0
 11 10  1  0
 12  7  2  0
 12  8  1  0
 12 10  1  0
 13  9  1  0
 14 13  2  0
 15 11  1  0
 15 13  1  0
M  END
>  <NAME>  (859) 
PHENETHYL VALERATE

>  <SYNONYMS>  (859) 


>  <SPECTRUM TYPE>  (859) 
MS1

>  <INSTRUMENT TYPE>  (859) 
EI-B

>  <INSTRUMENT>  (859) 
HITACHI M-80B

>  <ION MODE>  (859) 
P

>  <INCHIKEY>  (859) 
PDGPIBIURNPBSE-UHFFFAOYSA-N

>  <FORMULA>  (859) 
C13H18O2

>  <EXACT MASS>  (859) 
206.130679816

>  <MW>  (859) 
206

>  <ID>  (859) 
JP010862

>  <CONTRIBUTOR>  (859) 
University of Tokyo Team, {Faculty of Engineering, University of Tokyo

>  <COMMENT>  (859) 
SMILES=CCCCC(=O)OCCc(c1)cccc1
InChI=InChI=1S/C13H18O2/c1-2-3-9-13(14)15-11-10-12-7-5-4-6-8-12/h4-8H,2-3,9-11H2,1H3
computed SMILES=O=C(OCCC=1C=CC=CC1)CCCC
license=CC BY-NC-SA
accession=JP010862
date=2016.01.19 (Created 2008.10.21, modified 2011.05.06)
author=SODA AROMATIC CO., LTD.
exact mass=206.13068
ionization energy=70 eV
ion type=[M]+*
computed spectral entropy=2.1585348938175204
computed normalized entropy=0.6884193511987953
SPLASH=splash10-0udi-7900000000-a77ae227e5011e89cd18
submitter=submitter = University of Tokyo Team (Faculty of Engineering, University of Tokyo)
MoNA Rating=3.75

>  <NUM PEAKS>  (859) 
23

>  <MASS SPECTRAL PEAKS>  (859) 
14 1.3
27 5.4
29 10.6
39 4.3
41 9.1
42 1.6
43 1.3
50 1
51 2.9
55 2.4
57 22.1
63 1.1
65 3.4
77 5.3
78 2.9
79 3.4
85 14.1
91 6
92 1.1
103 3.5
104 99.99
105 20.3
106 1.3

$$$$

     RDKit          2D

 12 12  0  0  0  0  0  0  0  0999 V2000
   -3.9015    3.0051    0.0000 C   0  0  0  0  0  0  0  0  0  0  0  0
   -2.5987    3.7487    0.0000 C   0  0  0  0  0  0  0  0  0  0  0  0
    2.5937    3.7296    0.0000 C   0  0  0  0  0  0  0  0  0  0  0  0
    1.2801    1.5047    0.0000 C   0  0  0  0  0  0  0  0  0  0  0  0
    3.8782    3.0047    0.0000 C   0  0  0  0  0  0  0  0  0  0  0  0
    2.6046    0.7106    0.0000 C   0  0  0  0  0  0  0  0  0  0  0  0
    1.2946    2.9796    0.0000 C   0  0  0  0  0  0  0  0  0  0  0  0
    3.9037    1.4606    0.0000 C   0  0  0  0  0  0  0  0  0  0  0  0
   -0.0007    3.7360    0.0000 C   0  0  0  0  0  0  0  0  0  0  0  0
    5.2088    0.7213    0.0000 O   0  0  0  0  0  0  0  0  0  0  0  0
    0.0067    5.2359    0.0000 O   0  0  0  0  0  0  0  0  0  0  0  0
   -1.3034    2.9924    0.0000 O   0  0  0  0  0  0  0  0  0  0  0  0
  2  1  1  0
  5  3  2  0
  6  4  1  0
  7  3  1  0
  7  4  2  0
  8  5  1  0
  8  6  2  0
  9  7  1  0
 10  8  1  0
 11  9  2  0
 12  2  1  0
 12  9  1  0
M  END
>  <NAME>  (860) 
ETHYL 4-HYDROXYBEZOATE

>  <SYNONYMS>  (860) 


>  <SPECTRUM TYPE>  (860) 
MS1

>  <INSTRUMENT TYPE>  (860) 
EI-B

>  <INSTRUMENT>  (860) 
HITACHI M-80B

>  <ION MODE>  (860) 
P

>  <INCHIKEY>  (860) 
NUVBSKCKDOMJSU-UHFFFAOYSA-N

>  <FORMULA>  (860) 
C9H10O3

>  <EXACT MASS>  (860) 
166.06299417999998

>  <MW>  (860) 
166

>  <ID>  (860) 
JP010861

>  <CONTRIBUTOR>  (860) 
University of Tokyo Team, {Faculty of Engineering, University of Tokyo

>  <COMMENT>  (860) 
SMILES=CCOC(=O)c(c1)ccc(O)c1
InChI=InChI=1S/C9H10O3/c1-2-12-9(11)7-3-5-8(10)6-4-7/h3-6,10H,2H2,1H3
computed SMILES=O=C(OCC)C1=CC=C(O)C=C1
accession=JP010861
date=2016.01.19 (Created 2008.10.21, modified 2011.05.06)
author=SODA AROMATIC CO., LTD.
license=CC BY-NC-SA
exact mass=166.06299
ionization energy=70 eV
ion type=[M]+*
computed spectral entropy=2.2923390924722336
computed normalized entropy=0.7121551800048376
SPLASH=splash10-00di-6900000000-6a0e4e400b0c9ced0ae9
submitter=submitter = University of Tokyo Team (Faculty of Engineering, University of Tokyo)
MoNA Rating=3.75

>  <NUM PEAKS>  (860) 
25

>  <MASS SPECTRAL PEAKS>  (860) 
15 1.4
26 1.8
27 7.9
29 6
38 3
39 17
50 1.9
51 1.5
53 3.1
62 1.8
63 7
64 3.4
65 21.6
66 1.8
75 1.1
81 1.2
92 2.6
93 15.3
94 1.4
121 99.99
122 10.4
138 18
139 1.1
166 18.5
167 1.4

$$$$

     RDKit          2D

  8  8  0  0  0  0  0  0  0  0999 V2000
   -2.6070    1.5036    0.0000 C   0  0  0  0  0  0  0  0  0  0  0  0
   -0.0127    1.4972    0.0000 C   0  0  0  0  0  0  0  0  0  0  0  0
   -1.3262   -0.7277    0.0000 C   0  0  0  0  0  0  0  0  0  0  0  0
    1.2718    0.7723    0.0000 C   0  0  0  0  0  0  0  0  0  0  0  0
   -0.0017   -1.5218    0.0000 C   0  0  0  0  0  0  0  0  0  0  0  0
   -1.3117    0.7472    0.0000 C   0  0  0  0  0  0  0  0  0  0  0  0
    1.2973   -0.7718    0.0000 C   0  0  0  0  0  0  0  0  0  0  0  0
    2.6025   -1.5111    0.0000 O   0  0  0  0  0  0  0  0  0  0  0  0
  4  2  1  0
  5  3  1  0
  6  1  1  0
  6  2  1  0
  6  3  1  0
  7  4  1  0
  7  5  1  0
  8  7  2  0
M  END
>  <NAME>  (861) 
4-METHYLCYCLOHEXANONE

>  <SYNONYMS>  (861) 


>  <SPECTRUM TYPE>  (861) 
MS1

>  <INSTRUMENT TYPE>  (861) 
EI-B

>  <INSTRUMENT>  (861) 
HITACHI M-80B

>  <ION MODE>  (861) 
P

>  <INCHIKEY>  (861) 
VGVHNLRUAMRIEW-UHFFFAOYSA-N

>  <FORMULA>  (861) 
C7H12O

>  <EXACT MASS>  (861) 
112.088815004

>  <MW>  (861) 
112

>  <ID>  (861) 
JP010860

>  <CONTRIBUTOR>  (861) 
University of Tokyo Team, {Faculty of Engineering, University of Tokyo

>  <COMMENT>  (861) 
SMILES=CC(C1)CCC(=O)C1
InChI=InChI=1S/C7H12O/c1-6-2-4-7(8)5-3-6/h6H,2-5H2,1H3
computed SMILES=O=C1CCC(C)CC1
ionization energy=70 eV
accession=JP010860
date=2016.01.19 (Created 2008.10.21, modified 2011.05.06)
author=SODA AROMATIC CO., LTD.
license=CC BY-NC-SA
exact mass=112.08882
ion type=[M]+*
computed spectral entropy=2.8401290607715066
computed normalized entropy=0.8350380004654548
SPLASH=splash10-0a4i-9000000000-66232bcf6ffeb21e358d
submitter=submitter = University of Tokyo Team (Faculty of Engineering, University of Tokyo)
MoNA Rating=3.75

>  <NUM PEAKS>  (861) 
30

>  <MASS SPECTRAL PEAKS>  (861) 
15 1.5
26 4.2
27 26.1
28 5.2
29 14.5
38 1.6
39 23.6
40 3.7
41 47.9
42 20
43 7.8
50 2.3
51 3.9
52 1.4
53 6.8
54 3.2
55 99.99
56 39.8
57 17.6
67 3.3
68 5.9
69 12.1
70 15.4
79 4.4
83 24.3
84 16.3
94 6.9
97 5.8
112 33.6
113 3.4

$$$$

     RDKit          2D

 10 10  0  0  0  0  0  0  0  0999 V2000
   -6.0284    0.0637    0.0000 C   0  0  0  0  0  0  0  0  0  0  0  0
   -4.6006   -0.3962    0.0000 C   0  0  0  0  0  0  0  0  0  0  0  0
   -3.4884    0.6102    0.0000 C   0  0  0  0  0  0  0  0  0  0  0  0
    0.2615    3.2525    0.0000 C   0  0  0  0  0  0  0  0  0  0  0  0
   -2.0607    0.1503    0.0000 C   0  0  0  0  0  0  0  0  0  0  0  0
   -1.1142    2.6496    0.0000 C   0  0  0  0  0  0  0  0  0  0  0  0
    1.2613    2.1441    0.0000 C   0  0  0  0  0  0  0  0  0  0  0  0
   -0.9485    1.1567    0.0000 C   0  0  0  0  0  0  0  0  0  0  0  0
    0.5113    0.8451    0.0000 C   0  0  0  0  0  0  0  0  0  0  0  0
    1.1208   -0.5255    0.0000 O   0  0  0  0  0  0  0  0  0  0  0  0
  2  1  1  0
  3  2  1  0
  5  3  1  0
  6  4  1  0
  7  4  1  0
  8  5  1  0
  8  6  1  0
  9  7  1  0
  9  8  1  0
 10  9  2  0
M  END
>  <NAME>  (862) 
2-BUTYLCYCLOPENANONE

>  <SYNONYMS>  (862) 


>  <SPECTRUM TYPE>  (862) 
MS1

>  <INSTRUMENT TYPE>  (862) 
EI-B

>  <INSTRUMENT>  (862) 
HITACHI M-80B

>  <ION MODE>  (862) 
P

>  <INCHIKEY>  (862) 
ZAQYRXDJFINJJE-UHFFFAOYSA-N

>  <FORMULA>  (862) 
C9H16O

>  <EXACT MASS>  (862) 
140.120115132

>  <MW>  (862) 
140

>  <ID>  (862) 
JP010859

>  <CONTRIBUTOR>  (862) 
University of Tokyo Team, {Faculty of Engineering, University of Tokyo

>  <COMMENT>  (862) 
SMILES=CCCCC(C1)C(=O)CC1
InChI=InChI=1S/C9H16O/c1-2-3-5-8-6-4-7-9(8)10/h8H,2-7H2,1H3
computed SMILES=O=C1CCCC1CCCC
accession=JP010859
date=2016.01.19 (Created 2008.10.21, modified 2011.05.06)
author=SODA AROMATIC CO., LTD.
license=CC BY-NC-SA
exact mass=140.12012
ionization energy=70 eV
ion type=[M]+*
computed spectral entropy=2.6055687542571495
computed normalized entropy=0.7819354263223632
SPLASH=splash10-001i-9000000000-b6d0f3b52bbfdb43b0e2
submitter=submitter = University of Tokyo Team (Faculty of Engineering, University of Tokyo)
MoNA Rating=3.75

>  <NUM PEAKS>  (862) 
28

>  <MASS SPECTRAL PEAKS>  (862) 
26 1.1
27 15.4
28 2.6
29 11.2
39 14.2
40 1.4
41 29
42 11.8
43 9.2
51 1.1
53 4.4
54 5.7
55 23.1
56 14.5
57 1.5
67 3.7
68 1.3
69 8.1
70 3.1
79 1.1
81 1.6
83 18.8
84 99.99
85 6.1
97 12
98 3.3
111 1.6
140 7.1

$$$$

     RDKit          2D

 12 12  0  0  0  0  0  0  0  0999 V2000
   -8.1700    0.7537    0.0000 C   0  0  0  0  0  0  0  0  0  0  0  0
   -6.7423    0.2937    0.0000 C   0  0  0  0  0  0  0  0  0  0  0  0
   -5.6300    1.3002    0.0000 C   0  0  0  0  0  0  0  0  0  0  0  0
   -4.2023    0.8402    0.0000 C   0  0  0  0  0  0  0  0  0  0  0  0
   -3.0901    1.8467    0.0000 C   0  0  0  0  0  0  0  0  0  0  0  0
    0.6599    4.4890    0.0000 C   0  0  0  0  0  0  0  0  0  0  0  0
   -1.6624    1.3867    0.0000 C   0  0  0  0  0  0  0  0  0  0  0  0
   -0.7159    3.8861    0.0000 C   0  0  0  0  0  0  0  0  0  0  0  0
    1.6596    3.3806    0.0000 C   0  0  0  0  0  0  0  0  0  0  0  0
   -0.5501    2.3932    0.0000 C   0  0  0  0  0  0  0  0  0  0  0  0
    0.9096    2.0816    0.0000 C   0  0  0  0  0  0  0  0  0  0  0  0
    1.5191    0.7110    0.0000 O   0  0  0  0  0  0  0  0  0  0  0  0
  2  1  1  0
  3  2  1  0
  4  3  1  0
  5  4  1  0
  7  5  1  0
  8  6  1  0
  9  6  1  0
 10  7  1  0
 10  8  1  0
 11  9  1  0
 11 10  1  0
 12 11  2  0
M  END
>  <NAME>  (863) 
2-HEXYLCYCLOPENTANONE

>  <SYNONYMS>  (863) 


>  <SPECTRUM TYPE>  (863) 
MS1

>  <INSTRUMENT TYPE>  (863) 
EI-B

>  <INSTRUMENT>  (863) 
HITACHI M-80B

>  <ION MODE>  (863) 
P

>  <INCHIKEY>  (863) 
JTHVYOIHZNYRCC-UHFFFAOYSA-N

>  <FORMULA>  (863) 
C11H20O

>  <EXACT MASS>  (863) 
168.15141526

>  <MW>  (863) 
168

>  <ID>  (863) 
JP010858

>  <CONTRIBUTOR>  (863) 
University of Tokyo Team, {Faculty of Engineering, University of Tokyo

>  <COMMENT>  (863) 
SMILES=CCCCCCC(C1)C(=O)CC1
InChI=InChI=1S/C11H20O/c1-2-3-4-5-7-10-8-6-9-11(10)12/h10H,2-9H2,1H3
computed SMILES=O=C1CCCC1CCCCCC
accession=JP010858
date=2016.01.19 (Created 2008.10.21, modified 2011.05.06)
author=SODA AROMATIC CO., LTD.
license=CC BY-NC-SA
exact mass=168.15142
ionization energy=70 eV
ion type=[M]+*
computed spectral entropy=2.3779096199114327
computed normalized entropy=0.758384310782975
SPLASH=splash10-001i-9000000000-34710dae7a298d97e762
submitter=submitter = University of Tokyo Team (Faculty of Engineering, University of Tokyo)
MoNA Rating=3.75

>  <NUM PEAKS>  (863) 
23

>  <MASS SPECTRAL PEAKS>  (863) 
27 10.1
29 10.5
39 9.4
41 26.1
42 6.5
43 9.9
53 3.5
54 4.2
55 17.1
56 6.7
57 1.7
67 3.6
68 1.3
69 5.8
70 3.4
79 1
82 1.1
83 13.4
84 99.99
85 5.3
97 14.3
98 1.4
168 4.3

$$$$

     RDKit          2D

 15 15  0  0  0  0  0  0  0  0999 V2000
    3.4324    3.5640    0.0000 C   0  0  0  0  0  0  0  0  0  0  0  0
    2.1352    2.8108    0.0000 C   0  0  0  0  0  0  0  0  0  0  0  0
    0.8343    3.5576    0.0000 C   0  0  0  0  0  0  0  0  0  0  0  0
   -0.4628    2.8043    0.0000 C   0  0  0  0  0  0  0  0  0  0  0  0
   -1.7637    3.5511    0.0000 C   0  0  0  0  0  0  0  0  0  0  0  0
   -3.0609    2.7979    0.0000 C   0  0  0  0  0  0  0  0  0  0  0  0
   -4.3618    3.5446    0.0000 C   0  0  0  0  0  0  0  0  0  0  0  0
   -5.6590    2.7914    0.0000 C   0  0  0  0  0  0  0  0  0  0  0  0
   -9.8763    0.9865    0.0000 C   0  0  0  0  0  0  0  0  0  0  0  0
   -6.9599    3.5382    0.0000 C   0  0  0  0  0  0  0  0  0  0  0  0
   -8.4053    1.2902    0.0000 C   0  0  0  0  0  0  0  0  0  0  0  0
  -10.6238    2.2785    0.0000 C   0  0  0  0  0  0  0  0  0  0  0  0
   -8.2570    2.7849    0.0000 C   0  0  0  0  0  0  0  0  0  0  0  0
   -9.6201    3.3933    0.0000 C   0  0  0  0  0  0  0  0  0  0  0  0
   -9.9313    4.8606    0.0000 O   0  0  0  0  0  0  0  0  0  0  0  0
  2  1  1  0
  3  2  1  0
  4  3  1  0
  5  4  1  0
  6  5  1  0
  7  6  1  0
  8  7  1  0
 10  8  1  0
 11  9  1  0
 12  9  1  0
 13 10  1  0
 13 11  1  0
 14 12  1  0
 14 13  1  0
 15 14  2  0
M  END
>  <NAME>  (864) 
2-NONYLCYCLOPENTANONE

>  <SYNONYMS>  (864) 


>  <SPECTRUM TYPE>  (864) 
MS1

>  <INSTRUMENT TYPE>  (864) 
EI-B

>  <INSTRUMENT>  (864) 
HITACHI M-80B

>  <ION MODE>  (864) 
P

>  <INCHIKEY>  (864) 
XEOVFHLZQOKWSG-UHFFFAOYSA-N

>  <FORMULA>  (864) 
C14H26O

>  <EXACT MASS>  (864) 
210.198365452

>  <MW>  (864) 
210

>  <ID>  (864) 
JP010857

>  <CONTRIBUTOR>  (864) 
University of Tokyo Team, {Faculty of Engineering, University of Tokyo

>  <COMMENT>  (864) 
SMILES=CCCCCCCCCC(C1)C(=O)CC1
InChI=InChI=1S/C14H26O/c1-2-3-4-5-6-7-8-10-13-11-9-12-14(13)15/h13H,2-12H2,1H3
computed SMILES=O=C1CCCC1CCCCCCCCC
accession=JP010857
date=2016.01.19 (Created 2008.10.21, modified 2011.05.06)
author=SODA AROMATIC CO., LTD.
license=CC BY-NC-SA
exact mass=210.19837
ionization energy=70 eV
ion type=[M]+*
computed spectral entropy=2.220127406725243
computed normalized entropy=0.7080629890644995
SPLASH=splash10-001i-9000000000-21053d779ed3d13ea6bb
submitter=submitter = University of Tokyo Team (Faculty of Engineering, University of Tokyo)
MoNA Rating=3.75

>  <NUM PEAKS>  (864) 
23

>  <MASS SPECTRAL PEAKS>  (864) 
27 5
29 8
39 4.6
41 20
42 3.5
43 9.7
53 1.8
54 3.1
55 13.5
56 3.6
57 3
67 3.4
68 1.1
69 5.2
70 1.5
79 1.1
81 1.2
83 9.5
84 99.99
85 5.9
97 14
98 1.6
210 3.4

$$$$

     RDKit          2D

 11 11  0  0  0  0  0  0  0  0999 V2000
   -3.5736    2.4379    0.0000 C   0  0  0  0  0  0  0  0  0  0  0  0
   -2.2747    3.1881    0.0000 C   0  0  0  0  0  0  0  0  0  0  0  0
   -0.9755    2.4383    0.0000 C   0  0  0  0  0  0  0  0  0  0  0  0
    2.9226    0.1870    0.0000 C   0  0  0  0  0  0  0  0  0  0  0  0
    4.2216    0.9370    0.0000 C   0  0  0  0  0  0  0  0  0  0  0  0
    0.3234    3.1885    0.0000 C   0  0  0  0  0  0  0  0  0  0  0  0
    1.6230    0.9379    0.0000 C   0  0  0  0  0  0  0  0  0  0  0  0
    4.2211    2.4379    0.0000 C   0  0  0  0  0  0  0  0  0  0  0  0
    1.6226    2.4387    0.0000 C   0  0  0  0  0  0  0  0  0  0  0  0
    2.9216    3.1887    0.0000 C   0  0  0  0  0  0  0  0  0  0  0  0
    2.9218    4.6887    0.0000 O   0  0  0  0  0  0  0  0  0  0  0  0
  2  1  1  0
  3  2  1  0
  5  4  1  0
  6  3  1  0
  7  4  1  0
  8  5  1  0
  9  6  1  0
  9  7  1  0
 10  8  1  0
 10  9  1  0
 11 10  2  0
M  END
>  <NAME>  (865) 
2-BUTYLCYCLOHEXANONE

>  <SYNONYMS>  (865) 


>  <SPECTRUM TYPE>  (865) 
MS1

>  <INSTRUMENT TYPE>  (865) 
EI-B

>  <INSTRUMENT>  (865) 
HITACHI M-80B

>  <ION MODE>  (865) 
P

>  <INCHIKEY>  (865) 
POYYYXPQBFPUKS-UHFFFAOYSA-N

>  <FORMULA>  (865) 
C10H18O

>  <EXACT MASS>  (865) 
154.135765196

>  <MW>  (865) 
154

>  <ID>  (865) 
JP010856

>  <CONTRIBUTOR>  (865) 
University of Tokyo Team, {Faculty of Engineering, University of Tokyo

>  <COMMENT>  (865) 
SMILES=CCCCC(C1)C(=O)CCC1
InChI=InChI=1S/C10H18O/c1-2-3-6-9-7-4-5-8-10(9)11/h9H,2-8H2,1H3
computed SMILES=O=C1CCCCC1CCCC
accession=JP010856
date=2016.01.19 (Created 2008.10.21, modified 2011.05.06)
author=SODA AROMATIC CO., LTD.
license=CC BY-NC-SA
exact mass=154.13577
ionization energy=70 eV
ion type=[M]+*
computed spectral entropy=2.5804727033163006
computed normalized entropy=0.8016689191239492
SPLASH=splash10-0002-9000000000-2f5e4556ecdc280fd25a
submitter=submitter = University of Tokyo Team (Faculty of Engineering, University of Tokyo)
MoNA Rating=3.75

>  <NUM PEAKS>  (865) 
25

>  <MASS SPECTRAL PEAKS>  (865) 
27 13.3
28 1.3
29 11.7
39 13.1
41 30.3
42 8.9
43 7.1
53 4.6
54 6
55 28.3
56 8.2
57 2.3
67 5
68 2.5
69 7.2
70 17.7
79 1.4
81 2.4
83 14.2
84 2.1
97 9.7
98 99.99
99 6.3
111 9
154 2.2

$$$$

     RDKit          2D

  8  8  0  0  0  0  0  0  0  0999 V2000
   -1.9467    1.4939    0.0000 C   0  0  0  0  0  0  0  0  0  0  0  0
   -0.6477    2.2439    0.0000 C   0  0  0  0  0  0  0  0  0  0  0  0
   -1.9512    0.0017    0.0000 C   0  0  0  0  0  0  0  0  0  0  0  0
    0.6473    0.0009    0.0000 C   0  0  0  0  0  0  0  0  0  0  0  0
    0.6468    1.5017    0.0000 C   0  0  0  0  0  0  0  0  0  0  0  0
   -0.6517   -0.7491    0.0000 C   0  0  0  0  0  0  0  0  0  0  0  0
    1.9446    2.2539    0.0000 O   0  0  0  0  0  0  0  0  0  0  0  0
   -0.6520   -2.2491    0.0000 O   0  0  0  0  0  0  0  0  0  0  0  0
  2  1  1  0
  3  1  1  0
  5  2  1  0
  5  4  1  0
  6  3  1  0
  6  4  1  0
  7  5  2  0
  8  6  2  0
M  END
>  <NAME>  (866) 
1,3-CYCLOHEXANEDIONE

>  <SYNONYMS>  (866) 


>  <SPECTRUM TYPE>  (866) 
MS1

>  <INSTRUMENT TYPE>  (866) 
EI-B

>  <INSTRUMENT>  (866) 
HITACHI M-80B

>  <ION MODE>  (866) 
P

>  <INCHIKEY>  (866) 
HJSLFCCWAKVHIW-UHFFFAOYSA-N

>  <FORMULA>  (866) 
C6H8O2

>  <EXACT MASS>  (866) 
112.052429496

>  <MW>  (866) 
112

>  <ID>  (866) 
JP010855

>  <CONTRIBUTOR>  (866) 
University of Tokyo Team, {Faculty of Engineering, University of Tokyo

>  <COMMENT>  (866) 
SMILES=O=C(C1)CC(=O)CC1
InChI=InChI=1S/C6H8O2/c7-5-2-1-3-6(8)4-5/h1-4H2
computed SMILES=O=C1CC(=O)CCC1
accession=JP010855
date=2016.01.19 (Created 2008.10.21, modified 2011.05.06)
author=SODA AROMATIC CO., LTD.
license=CC BY-NC-SA
exact mass=112.05243
ionization energy=70 eV
ion type=[M]+*
computed spectral entropy=2.4080918720937428
computed normalized entropy=0.7577253251969289
SPLASH=splash10-0006-9000000000-5c731a79afa8bc756e52
submitter=submitter = University of Tokyo Team (Faculty of Engineering, University of Tokyo)
MoNA Rating=3.75

>  <NUM PEAKS>  (866) 
24

>  <MASS SPECTRAL PEAKS>  (866) 
14 6.5
15 3
18 1.3
26 5.7
27 16.4
29 3
32 4.1
37 1.4
38 4.5
39 19.2
41 17
42 99.99
43 9.8
50 1.3
51 1.1
53 1.1
55 25.2
56 5.1
69 3.6
70 5.6
83 9.5
84 25.1
85 1.1
112 9.5

$$$$

     RDKit          2D

 10 10  0  0  0  0  0  0  0  0999 V2000
   -2.5989   -1.5002    0.0000 C   0  0  0  0  0  0  0  0  0  0  0  0
    3.8981    0.7504    0.0000 C   0  0  0  0  0  0  0  0  0  0  0  0
   -1.3000    0.7500    0.0000 C   0  0  0  0  0  0  0  0  0  0  0  0
   -0.0000   -1.5000    0.0000 C   0  0  0  0  0  0  0  0  0  0  0  0
    0.0000    1.5000    0.0000 C   0  0  0  0  0  0  0  0  0  0  0  0
    1.3000   -0.7500    0.0000 C   0  0  0  0  0  0  0  0  0  0  0  0
   -1.3000   -0.7500    0.0000 C   0  0  0  0  0  0  0  0  0  0  0  0
    2.5989    1.5002    0.0000 C   0  0  0  0  0  0  0  0  0  0  0  0
    1.3000    0.7500    0.0000 C   0  0  0  0  0  0  0  0  0  0  0  0
    2.5987    3.0002    0.0000 O   0  0  0  0  0  0  0  0  0  0  0  0
  5  3  2  0
  6  4  1  0
  7  1  1  0
  7  3  1  0
  7  4  2  0
  8  2  1  0
  9  5  1  0
  9  6  2  0
  9  8  1  0
 10  8  1  0
M  END
>  <NAME>  (867) 
1-PARA-TOLYLETHANOL

>  <SYNONYMS>  (867) 


>  <SPECTRUM TYPE>  (867) 
MS1

>  <INSTRUMENT TYPE>  (867) 
EI-B

>  <INSTRUMENT>  (867) 
HITACHI M-80B

>  <ION MODE>  (867) 
P

>  <INCHIKEY>  (867) 
JESIHYIJKKUWIS-UHFFFAOYSA-N

>  <FORMULA>  (867) 
C9H12O

>  <EXACT MASS>  (867) 
136.088815004

>  <MW>  (867) 
136

>  <ID>  (867) 
JP010854

>  <CONTRIBUTOR>  (867) 
University of Tokyo Team, {Faculty of Engineering, University of Tokyo

>  <COMMENT>  (867) 
SMILES=Cc(c1)ccc(c1)C(C)O
InChI=InChI=1S/C9H12O/c1-7-3-5-9(6-4-7)8(2)10/h3-6,8,10H,1-2H3
computed SMILES=OC(C1=CC=C(C=C1)C)C
accession=JP010854
date=2016.01.19 (Created 2008.10.21, modified 2011.05.06)
author=SODA AROMATIC CO., LTD.
license=CC BY-NC-SA
exact mass=136.08882
ionization energy=70 eV
ion type=[M]+*
computed spectral entropy=3.1164649625237186
computed normalized entropy=0.7887301276476536
SPLASH=splash10-014l-8900000000-e614cc10eda87347ce30
submitter=submitter = University of Tokyo Team (Faculty of Engineering, University of Tokyo)
MoNA Rating=3.75

>  <NUM PEAKS>  (867) 
52

>  <MASS SPECTRAL PEAKS>  (867) 
15 1.7
18 7.1
26 1.3
27 8.5
38 2.6
39 23.2
41 3.7
43 26.6
45 1.8
50 7.6
51 16.9
52 3.9
53 2.7
57 1.3
58 3.5
59 1.9
60 2.1
61 1.4
62 4.1
63 17.2
64 2.7
65 24.6
66 1.9
67 1.2
74 2.3
75 2.4
76 2.1
77 28.3
79 1.6
86 1.2
87 1.6
89 10.2
90 3.1
91 74.6
92 15.7
93 47.5
94 2.9
102 3.3
103 11.8
104 1.2
115 29.4
116 7.8
117 92.3
118 99.99
119 27
120 2.4
121 58.1
122 3.8
134 3.9
135 1.4
136 21.2
137 1.5

$$$$

     RDKit          2D

 11 11  0  0  0  0  0  0  0  0999 V2000
    3.2476    3.7504    0.0000 C   0  0  0  0  0  0  0  0  0  0  0  0
    3.2481    0.7504    0.0000 C   0  0  0  0  0  0  0  0  0  0  0  0
    1.9487    3.0002    0.0000 C   0  0  0  0  0  0  0  0  0  0  0  0
   -1.9500    0.7500    0.0000 C   0  0  0  0  0  0  0  0  0  0  0  0
   -1.9500   -0.7500    0.0000 C   0  0  0  0  0  0  0  0  0  0  0  0
   -0.6500    1.5000    0.0000 C   0  0  0  0  0  0  0  0  0  0  0  0
   -0.6500   -1.5000    0.0000 C   0  0  0  0  0  0  0  0  0  0  0  0
    1.9489    1.5002    0.0000 C   0  0  0  0  0  0  0  0  0  0  0  0
    0.6500    0.7500    0.0000 C   0  0  0  0  0  0  0  0  0  0  0  0
    0.6500   -0.7500    0.0000 C   0  0  0  0  0  0  0  0  0  0  0  0
    1.9489   -1.5002    0.0000 O   0  0  0  0  0  0  0  0  0  0  0  0
  3  1  1  0
  5  4  1  0
  6  4  1  0
  7  5  1  0
  8  2  1  0
  8  3  1  0
  9  6  1  0
  9  8  1  0
 10  7  1  0
 10  9  1  0
 11 10  2  0
M  END
>  <NAME>  (868) 
2-SEC-BUTYLCYCLOHEXANONE

>  <SYNONYMS>  (868) 


>  <SPECTRUM TYPE>  (868) 
MS1

>  <INSTRUMENT TYPE>  (868) 
EI-B

>  <INSTRUMENT>  (868) 
HITACHI M-80B

>  <ION MODE>  (868) 
P

>  <INCHIKEY>  (868) 
RQXTZKGDMNIWJF-UHFFFAOYSA-N

>  <FORMULA>  (868) 
C10H18O

>  <EXACT MASS>  (868) 
154.135765196

>  <MW>  (868) 
154

>  <ID>  (868) 
JP010853

>  <CONTRIBUTOR>  (868) 
University of Tokyo Team, {Faculty of Engineering, University of Tokyo

>  <COMMENT>  (868) 
SMILES=CCC(C)C(C1)C(=O)CCC1
InChI=InChI=1S/C10H18O/c1-3-8(2)9-6-4-5-7-10(9)11/h8-9H,3-7H2,1-2H3
computed SMILES=O=C1CCCCC1C(C)CC
accession=JP010853
date=2016.01.19 (Created 2008.10.21, modified 2011.05.06)
author=SODA AROMATIC CO., LTD.
license=CC BY-NC-SA
exact mass=154.13577
ionization energy=70 eV
ion type=[M]+*
computed spectral entropy=2.5980279662685817
computed normalized entropy=0.788275655590403
SPLASH=splash10-0002-9000000000-8b1cb6eba8248c0a5993
submitter=submitter = University of Tokyo Team (Faculty of Engineering, University of Tokyo)
MoNA Rating=3.75

>  <NUM PEAKS>  (868) 
27

>  <MASS SPECTRAL PEAKS>  (868) 
27 11
29 14.5
39 11.9
41 27.4
42 5.7
43 4.8
53 5.1
54 2.1
55 38.6
56 6.1
57 5.9
67 4.5
68 2
69 9
70 19.5
71 1.3
77 1
79 2.2
81 5
83 16.2
84 1.4
95 1.6
97 13.7
98 99.99
99 6.5
107 1
125 11.3

$$$$

     RDKit          2D

 11 11  0  0  0  0  0  0  0  0999 V2000
   -0.9740    4.2571    0.0000 C   0  0  0  0  0  0  0  0  0  0  0  0
    2.9231    0.5071    0.0000 C   0  0  0  0  0  0  0  0  0  0  0  0
    2.9236    2.0079    0.0000 C   0  0  0  0  0  0  0  0  0  0  0  0
    1.6236   -0.2437    0.0000 C   0  0  0  0  0  0  0  0  0  0  0  0
    1.6245    2.7579    0.0000 C   0  0  0  0  0  0  0  0  0  0  0  0
    0.3245    0.5063    0.0000 C   0  0  0  0  0  0  0  0  0  0  0  0
   -2.2731    2.0071    0.0000 C   0  0  0  0  0  0  0  0  0  0  0  0
   -3.5721    2.7571    0.0000 C   0  0  0  0  0  0  0  0  0  0  0  0
   -0.9740    2.7571    0.0000 C   0  0  0  0  0  0  0  0  0  0  0  0
    0.3250    2.0071    0.0000 C   0  0  0  0  0  0  0  0  0  0  0  0
   -4.8712    2.0071    0.0000 O   0  0  0  0  0  0  0  0  0  0  0  0
  3  2  2  0
  4  2  1  0
  5  3  1  0
  6  4  2  0
  8  7  1  0
  9  1  1  0
  9  7  1  0
 10  5  2  0
 10  6  1  0
 10  9  1  0
 11  8  2  0
M  END
>  <NAME>  (869) 
3-PHENYLBUTANAL

>  <SYNONYMS>  (869) 


>  <SPECTRUM TYPE>  (869) 
MS1

>  <INSTRUMENT TYPE>  (869) 
EI-B

>  <INSTRUMENT>  (869) 
HITACHI M-80B

>  <ION MODE>  (869) 
P

>  <INCHIKEY>  (869) 
MYHGOWDLVRDUFA-UHFFFAOYSA-N

>  <FORMULA>  (869) 
C10H12O

>  <EXACT MASS>  (869) 
148.088815004

>  <MW>  (869) 
148

>  <ID>  (869) 
JP010852

>  <CONTRIBUTOR>  (869) 
University of Tokyo Team, {Faculty of Engineering, University of Tokyo

>  <COMMENT>  (869) 
SMILES=O=CCC(C)c(c1)cccc1
InChI=InChI=1S/C10H12O/c1-9(7-8-11)10-5-3-2-4-6-10/h2-6,8-9H,7H2,1H3
computed SMILES=O=CCC(C=1C=CC=CC1)C
accession=JP010852
date=2016.01.19 (Created 2008.10.21, modified 2011.05.06)
author=SODA AROMATIC CO., LTD.
license=CC BY-NC-SA
exact mass=148.08882
ionization energy=70 eV
ion type=[M]+*
computed spectral entropy=3.0319494990596167
computed normalized entropy=0.8061122529505527
SPLASH=splash10-0a4i-6900000000-78b2f9f0d4322cb35b73
submitter=submitter = University of Tokyo Team (Faculty of Engineering, University of Tokyo)
MoNA Rating=3.75

>  <NUM PEAKS>  (869) 
43

>  <MASS SPECTRAL PEAKS>  (869) 
15 1.5
27 8.6
29 9
38 1.1
39 15
41 12.4
42 3.1
50 5.5
51 21.3
52 4.1
53 2.5
55 3.9
62 1.5
63 5.1
64 1.1
65 5.2
74 2.3
75 2.2
76 2.6
78 24.8
79 24
80 1.3
89 2.3
91 46.4
92 3.4
102 2.8
103 18.1
104 11.1
105 99.99
106 29.7
107 2.7
115 8.3
116 1.3
117 1.7
119 3.1
129 1.7
130 11.2
131 1.7
133 28.6
134 2.6
147 4.5
148 40.1
149 4

$$$$

     RDKit          2D

  9  9  0  0  0  0  0  0  0  0999 V2000
    2.6052   -0.7613    0.0000 C   0  0  0  0  0  0  0  0  0  0  0  0
   -2.6041   -0.8953    0.0000 C   0  0  0  0  0  0  0  0  0  0  0  0
   -0.0300    2.1400    0.0000 C   0  0  0  0  0  0  0  0  0  0  0  0
    1.2600    1.4400    0.0000 C   0  0  0  0  0  0  0  0  0  0  0  0
   -1.3200    1.4000    0.0000 C   0  0  0  0  0  0  0  0  0  0  0  0
    1.2900   -0.0400    0.0000 C   0  0  0  0  0  0  0  0  0  0  0  0
   -1.3200   -0.1200    0.0000 C   0  0  0  0  0  0  0  0  0  0  0  0
    0.0100   -0.8200    0.0000 C   0  0  0  0  0  0  0  0  0  0  0  0
    0.0571   -2.3193    0.0000 O   0  0  0  0  0  0  0  0  0  0  0  0
  4  3  1  0
  5  3  1  0
  6  1  1  0
  6  4  1  0
  7  2  1  0
  7  5  1  0
  8  6  1  0
  8  7  1  0
  9  8  2  0
M  END
>  <NAME>  (870) 
2,6-DIMETHYLCYCLOHEXANONE

>  <SYNONYMS>  (870) 


>  <SPECTRUM TYPE>  (870) 
MS1

>  <INSTRUMENT TYPE>  (870) 
EI-B

>  <INSTRUMENT>  (870) 
HITACHI M-80B

>  <ION MODE>  (870) 
P

>  <INCHIKEY>  (870) 
AILVYPLQKCQNJC-UHFFFAOYSA-N

>  <FORMULA>  (870) 
C8H14O

>  <EXACT MASS>  (870) 
126.104465068

>  <MW>  (870) 
126

>  <ID>  (870) 
JP010851

>  <CONTRIBUTOR>  (870) 
University of Tokyo Team, {Faculty of Engineering, University of Tokyo

>  <COMMENT>  (870) 
SMILES=CC(C1)C(=O)C(C)CC1
InChI=InChI=1S/C8H14O/c1-6-4-3-5-7(2)8(6)9/h6-7H,3-5H2,1-2H3
computed SMILES=O=C1C(C)CCCC1C
accession=JP010851
date=2016.01.19 (Created 2008.10.21, modified 2011.05.06)
author=SODA AROMATIC CO., LTD.
license=CC BY-NC-SA
exact mass=126.10447
ionization energy=70 eV
ion type=[M]+*
computed spectral entropy=2.9334366390319007
computed normalized entropy=0.7848303725622398
SPLASH=splash10-066u-9000000000-cc1f341e0e8997c9b0b3
submitter=submitter = University of Tokyo Team (Faculty of Engineering, University of Tokyo)
MoNA Rating=3.75

>  <NUM PEAKS>  (870) 
42

>  <MASS SPECTRAL PEAKS>  (870) 
15 1.8
26 3.3
27 36.2
28 1
31 21.6
38 1.7
39 42.2
40 0.8
41 99.99
42 31.7
43 12.3
50 1.5
51 3.1
52 1.5
53 11
54 7.1
55 60.1
56 97.5
57 11.8
58 19.6
65 1.8
67 7.5
68 85.6
69 95.7
70 18.1
71 2.3
77 1.2
79 1.5
81 1.1
82 2.8
83 11.2
84 10.5
85 1.3
93 2.5
95 1.2
97 9.5
98 50.3
99 2.9
108 1.5
111 5.2
126 50.9
127 5.6

$$$$

     RDKit          2D

 10 10  0  0  0  0  0  0  0  0999 V2000
   -3.8981   -0.7504    0.0000 C   0  0  0  0  0  0  0  0  0  0  0  0
   -2.5989   -1.5002    0.0000 C   0  0  0  0  0  0  0  0  0  0  0  0
   -1.3000    0.7500    0.0000 C   0  0  0  0  0  0  0  0  0  0  0  0
    0.0000   -1.5000    0.0000 C   0  0  0  0  0  0  0  0  0  0  0  0
    0.0000    1.5000    0.0000 C   0  0  0  0  0  0  0  0  0  0  0  0
    1.3000   -0.7500    0.0000 C   0  0  0  0  0  0  0  0  0  0  0  0
    2.5989    1.5002    0.0000 C   0  0  0  0  0  0  0  0  0  0  0  0
   -1.3000   -0.7500    0.0000 C   0  0  0  0  0  0  0  0  0  0  0  0
    1.3000    0.7500    0.0000 C   0  0  0  0  0  0  0  0  0  0  0  0
    3.8981    0.7504    0.0000 O   0  0  0  0  0  0  0  0  0  0  0  0
  2  1  1  0
  5  3  2  0
  6  4  1  0
  8  2  1  0
  8  3  1  0
  8  4  2  0
  9  5  1  0
  9  6  2  0
  9  7  1  0
 10  7  2  0
M  END
>  <NAME>  (871) 
4-ETHYLBENZALDEHYDE

>  <SYNONYMS>  (871) 


>  <SPECTRUM TYPE>  (871) 
MS1

>  <INSTRUMENT TYPE>  (871) 
EI-B

>  <INSTRUMENT>  (871) 
HITACHI M-80B

>  <ION MODE>  (871) 
P

>  <INCHIKEY>  (871) 
QNGNSVIICDLXHT-UHFFFAOYSA-N

>  <FORMULA>  (871) 
C9H10O

>  <EXACT MASS>  (871) 
134.07316494

>  <MW>  (871) 
134

>  <ID>  (871) 
JP010850

>  <CONTRIBUTOR>  (871) 
University of Tokyo Team, {Faculty of Engineering, University of Tokyo

>  <COMMENT>  (871) 
SMILES=CCc(c1)ccc(C=O)c1
InChI=InChI=1S/C9H10O/c1-2-8-3-5-9(7-10)6-4-8/h3-7H,2H2,1H3
computed SMILES=O=CC1=CC=C(C=C1)CC
accession=JP010850
date=2016.01.19 (Created 2008.10.21, modified 2011.05.06)
author=SODA AROMATIC CO., LTD.
license=CC BY-NC-SA
exact mass=134.07316
ionization energy=70 eV
ion type=[M]+*
computed spectral entropy=2.842931075779735
computed normalized entropy=0.7815432957314684
SPLASH=splash10-001i-8900000000-e4325102edf543b7262f
submitter=submitter = University of Tokyo Team (Faculty of Engineering, University of Tokyo)
MoNA Rating=3.75

>  <NUM PEAKS>  (871) 
38

>  <MASS SPECTRAL PEAKS>  (871) 
15 1.1
26 1.1
27 10.9
29 8.3
38 2.7
39 15.2
41 1.8
50 12.8
51 24.1
52 4.1
53 3.6
61 1.2
62 3.9
63 14.3
64 2.6
65 15.5
66 1.5
74 4.3
75 3.6
77 36
78 10.7
79 23.9
80 1.4
87 1
89 10.9
91 72.3
92 4
102 2.9
103 14.7
104 3.5
105 55.3
106 4.8
118 1
119 17.4
120 1.2
133 99.99
134 96.5
135 8.8

$$$$

     RDKit          2D

  9  9  0  0  0  0  0  0  0  0999 V2000
  -10.4600    6.3600    0.0000 C   0  0  0  0  0  0  0  0  0  0  0  0
  -11.3400    5.1500    0.0000 C   0  0  0  0  0  0  0  0  0  0  0  0
   -9.0300    5.9000    0.0000 C   0  0  0  0  0  0  0  0  0  0  0  0
  -10.4600    3.9300    0.0000 C   0  0  0  0  0  0  0  0  0  0  0  0
   -7.6000    6.3600    0.0000 C   0  0  0  0  0  0  0  0  0  0  0  0
   -9.0300    4.4000    0.0000 C   0  0  0  0  0  0  0  0  0  0  0  0
   -6.7200    5.1500    0.0000 C   0  0  0  0  0  0  0  0  0  0  0  0
   -7.6000    3.9300    0.0000 C   0  0  0  0  0  0  0  0  0  0  0  0
   -7.1364    2.5034    0.0000 O   0  0  0  0  0  0  0  0  0  0  0  0
  2  1  1  0
  3  1  1  0
  4  2  1  0
  5  3  1  0
  6  4  1  0
  7  5  1  0
  8  6  1  0
  8  7  1  0
  9  8  2  0
M  END
>  <NAME>  (872) 
CYCLOOCTANONE

>  <SYNONYMS>  (872) 


>  <SPECTRUM TYPE>  (872) 
MS1

>  <INSTRUMENT TYPE>  (872) 
EI-B

>  <INSTRUMENT>  (872) 
HITACHI M-80B

>  <ION MODE>  (872) 
P

>  <INCHIKEY>  (872) 
IIRFCWANHMSDCG-UHFFFAOYSA-N

>  <FORMULA>  (872) 
C8H14O

>  <EXACT MASS>  (872) 
126.104465068

>  <MW>  (872) 
126

>  <ID>  (872) 
JP010849

>  <CONTRIBUTOR>  (872) 
University of Tokyo Team, {Faculty of Engineering, University of Tokyo

>  <COMMENT>  (872) 
SMILES=O=C(C1)CCCCCC1
InChI=InChI=1S/C8H14O/c9-8-6-4-2-1-3-5-7-8/h1-7H2
computed SMILES=O=C1CCCCCCC1
accession=JP010849
date=2016.01.19 (Created 2008.10.21, modified 2011.05.06)
author=SODA AROMATIC CO., LTD.
license=CC BY-NC-SA
exact mass=126.10447
ionization energy=70 eV
ion type=[M]+*
computed spectral entropy=3.0891862811821924
computed normalized entropy=0.7979917014068207
SPLASH=splash10-0537-9000000000-46440683af775da5a37c
submitter=submitter = University of Tokyo Team (Faculty of Engineering, University of Tokyo)
MoNA Rating=3.75

>  <NUM PEAKS>  (872) 
48

>  <MASS SPECTRAL PEAKS>  (872) 
14 1.9
15 2.8
26 4.1
27 35.7
29 17.3
30 1.1
37 1.1
38 2.4
39 44.2
40 1.5
41 84.6
42 72.6
43 14.1
50 1.5
51 3.6
52 1.9
53 7.4
54 8.1
55 99.99
56 31.8
57 6.8
58 4.5
59 1.2
63 1.2
65 1.8
66 1.4
67 15.9
68 11
69 26.3
70 23.7
71 5.1
72 1.5
77 1
79 3.6
80 2.9
81 2.2
82 34.1
83 37.7
84 40.5
85 3
93 5
97 16.2
98 91
99 5.5
108 1.3
111 6.4
126 13.1
127 1.7

$$$$

     RDKit          2D

 20 20  0  0  0  0  0  0  0  0999 V2000
   -2.6011    1.4998    0.0000 C   0  0  0  0  0  0  0  0  0  0  0  0
   -1.3000   -2.2500    0.0000 C   0  0  0  0  0  0  0  0  0  0  0  0
    0.0000    6.0000    0.0000 C   0  0  0  0  0  0  0  0  0  0  0  0
    4.0772    1.2397    0.0000 C   0  0  0  0  0  0  0  0  0  0  0  0
    3.1127    2.9096    0.0000 C   0  0  0  0  0  0  0  0  0  0  0  0
   -5.2000    0.0000    0.0000 C   0  0  0  0  0  0  0  0  0  0  0  0
   -2.6000    4.5000    0.0000 C   0  0  0  0  0  0  0  0  0  0  0  0
    1.3000   -0.7500    0.0000 C   0  0  0  0  0  0  0  0  0  0  0  0
   -5.2000    1.5000    0.0000 C   0  0  0  0  0  0  0  0  0  0  0  0
   -3.9000    3.7500    0.0000 C   0  0  0  0  0  0  0  0  0  0  0  0
   -2.6000    0.0000    0.0000 C   0  0  0  0  0  0  0  0  0  0  0  0
   -1.3000    3.7500    0.0000 C   0  0  0  0  0  0  0  0  0  0  0  0
    0.0000    0.0000    0.0000 C   0  0  0  0  0  0  0  0  0  0  0  0
    1.3000    3.7500    0.0000 C   0  0  0  0  0  0  0  0  0  0  0  0
    2.6000   -0.0000    0.0000 C   0  0  0  0  0  0  0  0  0  0  0  0
    1.3000    2.2500    0.0000 C   0  0  0  0  0  0  0  0  0  0  0  0
   -3.9000    2.2500    0.0000 C   0  0  0  0  0  0  0  0  0  0  0  0
   -1.3000   -0.7500    0.0000 C   0  0  0  0  0  0  0  0  0  0  0  0
    0.0000    4.5000    0.0000 C   0  0  0  0  0  0  0  0  0  0  0  0
    2.6000    1.5000    0.0000 C   0  0  0  0  0  0  0  0  0  0  0  0
  9  6  1  0
 10  7  1  0
 11  6  1  0
 12  7  1  0
 13  8  1  0
  8 15  2  0
 16 14  1  0
 17  1  1  0
 17  9  1  0
 10 17  2  0
 18  2  1  0
 11 18  2  0
 18 13  1  0
 19  3  1  0
 19 12  1  0
 14 19  2  0
 20  4  1  0
 20  5  1  0
 20 15  1  0
 20 16  1  0
M  END
>  <NAME>  (873) 
FLEXIBILENE

>  <SYNONYMS>  (873) 


>  <SPECTRUM TYPE>  (873) 
MS1

>  <INSTRUMENT TYPE>  (873) 
EI-B

>  <INSTRUMENT>  (873) 
HITACHI RMU-6L

>  <ION MODE>  (873) 
P

>  <INCHIKEY>  (873) 
SPMBDLTUBLYRCT-PWOPFSNCSA-N

>  <FORMULA>  (873) 
C20H32

>  <EXACT MASS>  (873) 
272.250401024

>  <MW>  (873) 
272

>  <ID>  (873) 
JP010843

>  <CONTRIBUTOR>  (873) 
University of Tokyo Team, {Faculty of Engineering, University of Tokyo

>  <COMMENT>  (873) 
SMILES=CC(C1)=CCCC(C)=CCC(C)(C)C=CCC(C)=CC1
InChI=InChI=1S/C20H32/c1-17-9-6-11-18(2)13-8-15-20(4,5)16-14-19(3)12-7-10-17/h8,10-11,14-15H,6-7,9,12-13,16H2,1-5H3/b15-8-,17-10+,18-11+,19-14-
computed SMILES=C1=CC(C)(C)CC=C(C)CCC=C(C)CCC=C(C)C1
accession=JP010843
date=2016.01.19 (Created 2008.10.21, modified 2011.05.06)
author=HAMAMATSU UNIV. SCHOOL OF MEDICINE
license=CC BY-NC-SA
exact mass=272.2504
ionization energy=70 eV
ion type=[M]+*
computed spectral entropy=3.2969352852157026
computed normalized entropy=0.7660049775783694
SPLASH=splash10-000f-8900000000-512fa945eb79e6105f69
submitter=submitter = University of Tokyo Team (Faculty of Engineering, University of Tokyo)
MoNA Rating=3.75

>  <NUM PEAKS>  (873) 
74

>  <MASS SPECTRAL PEAKS>  (873) 
65 4.5
66 26.5
68 20
69 1.25
70 1
77 18
78 3.5
79 2.4
80 26
81 21
82 5.5
83 0.2
91 22.5
92 15
93 99.99
94 1.45
95 14
96 2.5
97 1
103 0.15
105 18.5
106 5
107 30.5
108 0.7
109 23.5
110 2
115 1.5
117 0.15
119 13.5
120 4.5
121 35
122 1.1
123 6
124 1
131 2
132 0.1
133 9
134 9.5
135 88
136 1.7
137 2.5
145 2.5
146 1.5
147 1.05
148 5
149 3
159 4
160 0.1
161 10
162 3
163 4
164 0.1
173 1
175 3
176 2
177 0.1
187 3.5
188 1.5
189 6
190 0.2
191 1
201 1
202 4
203 0.3
204 1
215 1.5
216 1.5
229 0.25
230 1
257 2
258 1
272 2.45
273 4.5
274 1

$$$$

     RDKit          2D

 23 24  0  0  1  0  0  0  0  0999 V2000
   -4.3980    4.4702    0.0000 C   0  0  0  0  0  0  0  0  0  0  0  0
    0.0998    1.8711    0.0000 C   0  0  0  0  0  0  0  0  0  0  0  0
   -2.1502   -2.0189    0.0000 C   0  0  0  0  0  0  0  0  0  0  0  0
    3.0278   -2.0065    0.0000 C   0  0  0  0  0  0  0  0  0  0  0  0
   -1.4000    4.4700    0.0000 C   0  0  0  0  0  0  0  0  0  0  0  0
   -3.6500    0.5800    0.0000 C   0  0  0  0  0  0  0  0  0  0  0  0
   -2.1500    3.1700    0.0000 C   0  0  0  0  0  0  0  0  0  0  0  0
   -4.4000    1.8800    0.0000 C   0  0  0  0  0  0  0  0  0  0  0  0
    0.1000    4.4700    0.0000 C   0  0  0  0  0  0  0  0  0  0  0  0
   -2.1500    0.5800    0.0000 C   0  0  0  0  0  0  0  0  0  0  0  0
    2.3500    3.1700    0.0000 C   0  0  0  0  0  0  0  0  0  0  0  0
    0.8500    0.5800    0.0000 C   0  0  0  0  0  0  0  0  0  0  0  0
   -3.6500    3.1700    0.0000 C   0  0  0  0  0  0  0  0  0  0  0  0
    0.8500    3.1700    0.0000 C   0  0  0  0  0  0  0  0  0  0  0  0
   -1.4000   -0.7200    0.0000 C   0  0  0  0  0  0  0  0  0  0  0  0
    3.3468   -0.5408    0.0000 C   0  0  0  0  0  0  0  0  0  0  0  0
    2.3500    0.5800    0.0000 C   0  0  0  0  0  0  0  0  0  0  0  0
    0.1000   -0.7200    0.0000 C   0  0  0  0  0  0  0  0  0  0  0  0
    3.1000    1.8700    0.0000 C   0  0  0  0  0  0  0  0  0  0  0  0
    4.7205    0.0648    0.0000 C   0  0  0  0  0  0  0  0  0  0  0  0
    0.8502   -2.0189    0.0000 O   0  0  0  0  0  0  0  0  0  0  0  0
    6.0173   -0.6891    0.0000 O   0  0  0  0  0  0  0  0  0  0  0  0
    4.5672    1.5583    0.0000 O   0  0  0  0  0  0  0  0  0  0  0  0
  7  5  1  0
  8  6  1  0
  9  5  1  0
 10  6  1  0
 13  1  1  0
  7 13  2  0
 13  8  1  0
 14  2  1  0
 14  9  1  0
 11 14  2  0
 15  3  1  0
 10 15  2  0
 16  4  2  0
 17 12  1  6
 17 16  1  0
 18 12  1  0
 18 15  1  0
 19 11  1  6
 19 17  1  0
 20 16  1  0
 21 18  2  0
 22 20  2  0
 19 23  1  0
 23 20  1  0
M  END
>  <NAME>  (874) 
(1S,2S,3E,7E,11E)-13-OXOCEMBRA-3,7,11,15-TETRAEN-17,2-OLIDE

>  <SYNONYMS>  (874) 


>  <SPECTRUM TYPE>  (874) 
MS1

>  <INSTRUMENT TYPE>  (874) 
EI-B

>  <INSTRUMENT>  (874) 
HITACHI RMU-6L

>  <ION MODE>  (874) 
P

>  <INCHIKEY>  (874) 
ROQQHOAGXJBFJT-FYGDRCKBSA-N

>  <FORMULA>  (874) 
C20H26O3

>  <EXACT MASS>  (874) 
314.18819469199997

>  <MW>  (874) 
314

>  <ID>  (874) 
JP010842

>  <CONTRIBUTOR>  (874) 
University of Tokyo Team, {Faculty of Engineering, University of Tokyo

>  <COMMENT>  (874) 
SMILES=CC(C2)=C([H])CCC(C)=C([H])C([H])(O1)C([H])(CC(=O)C(C)=C([H])C2)C(=C)C(=O)1
InChI=InChI=1S/C20H26O3/c1-13-7-5-9-14(2)11-19-17(16(4)20(22)23-19)12-18(21)15(3)10-6-8-13/h7,10-11,17,19H,4-6,8-9,12H2,1-3H3/b13-7+,14-11+,15-10+/t17-,19-/m0/s1
computed SMILES=O=C1OC2C=C(C)CCC=C(C)CCC=C(C(=O)CC2C1=C)C
accession=JP010842
date=2016.01.19 (Created 2008.10.21, modified 2011.05.06)
author=HAMAMATSU UNIV. SCHOOL OF MEDICINE
license=CC BY-NC-SA
exact mass=314.18819
ionization energy=70 eV
ion type=[M]+*
computed spectral entropy=4.6343011936363565
computed normalized entropy=0.8417842165161282
SPLASH=splash10-06rx-9810000000-73c7249d6d55e1fe27bf
submitter=submitter = University of Tokyo Team (Faculty of Engineering, University of Tokyo)
MoNA Rating=3.75

>  <NUM PEAKS>  (874) 
246

>  <MASS SPECTRAL PEAKS>  (874) 
40 10.4
41 86.4
42 9.7
43 7.95
44 66.2
45 22.7
46 11.7
47 0.13
50 2.6
51 9.1
52 6.5
53 7.05
54 48.1
55 79.5
56 10.7
57 3.25
58 3.6
59 4.9
60 21.8
61 0.84
62 1.3
63 2.9
64 1.6
65 1.76
66 5.5
67 46.1
68 16.8
69 3.51
70 9.7
71 16.9
72 3.9
73 1.88
74 4.5
75 1.9
76 1.3
77 2.99
78 8.4
79 51.3
80 12.3
81 4.94
82 63.6
83 37.7
84 11.4
85 0.94
86 2.6
87 5.6
88 1.6
89 0.19
90 1.3
91 42.2
92 9.7
93 4.87
94 14.9
95 33.8
96 12.3
97 2.53
98 8.4
99 5.8
100 2.3
101 0.45
102 1.9
103 5.5
104 3.2
105 3.73
106 12
107 34.7
108 15.3
109 4.12
110 10.1
111 9.7
112 3.9
113 0.36
114 1.9
115 7.8
116 4.2
117 0.84
118 5.2
119 24
120 11.7
121 4.22
122 21.8
123 13
124 6.4
125 0.52
126 2.6
127 4.6
128 3.2
129 1.1
130 3.2
131 11
132 4.5
133 2.08
134 44.2
135 36
136 13.6
137 1.23
138 11
139 4.5
140 1.9
141 0.32
142 2.6
143 6.2
144 3.6
145 1.23
146 9.1
147 27.3
148 12.3
149 2.66
150 10.7
151 13.6
152 5.2
153 0.32
154 1.3
155 2.6
156 2.3
157 0.84
158 4.2
159 11.4
160 8.8
161 1.3
162 99.99
163 46.1
164 29.2
165 0.84
166 3.2
167 5.8
168 1.9
169 0.39
170 3.9
171 8.1
172 3.2
173 0.84
174 5.2
175 10.1
176 5.8
177 0.78
178 5.5
179 3.2
180 2.3
181 0.26
182 1.9
183 3.2
184 1.9
185 0.78
186 4.2
187 9.1
188 5.8
189 0.78
190 4.5
191 4.5
192 4.5
193 0.36
194 1.9
195 2.3
196 2.6
197 0.32
198 2.6
199 6.8
200 4.5
201 0.58
202 3.9
203 7.8
204 4.5
205 0.68
206 5.8
207 3.6
208 3.6
209 0.26
210 1.3
211 2.9
212 3.2
213 0.58
214 3.2
215 6.8
216 4.5
217 0.78
218 5.8
219 2.9
220 2.6
221 0.19
222 1.9
223 1.9
224 1.3
225 0.32
226 1.9
227 3.9
228 3.9
229 0.42
230 3.2
231 5.8
232 2.6
233 0.29
234 1.3
235 1.6
236 1.6
237 0.13
238 1
239 2.3
240 1.9
241 0.39
242 2.6
243 3.6
245 2.6
246 0.65
247 2.3
248 1
249 1
250 0.1
251 1.9
252 1.3
253 3.9
254 0.26
255 1.9
256 7.8
257 3.6
258 0.19
259 1.9
260 1.3
261 1
266 0.1
267 1.9
268 3.6
269 3.2
270 0.26
271 5.5
272 2.3
273 1.3
278 0.13
279 1.3
280 1
281 1
282 0.39
283 1.6
284 1.3
285 2.9
286 1
287 2.6
288 1
296 5.8
297 0.23
298 1
299 3.9
300 1.3
314 1.27
315 3.9
316 1.3

$$$$

     RDKit          2D

 23 24  0  0  1  0  0  0  0  0999 V2000
    4.6002    2.6987    0.0000 C   0  0  0  0  0  0  0  0  0  0  0  0
    2.3504    3.9981    0.0000 C   0  0  0  0  0  0  0  0  0  0  0  0
   -2.1502    3.9989    0.0000 C   0  0  0  0  0  0  0  0  0  0  0  0
   -3.1346   -2.3316    0.0000 C   0  0  0  0  0  0  0  0  0  0  0  0
   -0.6500   -3.1563    0.0000 C   0  0  0  0  0  0  0  0  0  0  0  0
    0.6608   -2.5546    0.0000 C   0  0  0  0  0  0  0  0  0  0  0  0
    0.1000    2.7000    0.0000 C   0  0  0  0  0  0  0  0  0  0  0  0
   -2.1500    1.4000    0.0000 C   0  0  0  0  0  0  0  0  0  0  0  0
    0.8500    1.4000    0.0000 C   0  0  0  0  0  0  0  0  0  0  0  0
    3.1000    0.1000    0.0000 C   0  0  0  0  0  0  0  0  0  0  0  0
    2.3500   -1.2000    0.0000 C   0  0  0  0  0  0  0  0  0  0  0  0
   -4.4000    0.1000    0.0000 C   0  0  0  0  0  0  0  0  0  0  0  0
   -1.9608   -2.5546    0.0000 C   0  0  0  0  0  0  0  0  0  0  0  0
    3.1002    2.6989    0.0000 C   0  0  0  0  0  0  0  0  0  0  0  0
   -1.4000    2.7000    0.0000 C   0  0  0  0  0  0  0  0  0  0  0  0
    2.3500    1.4000    0.0000 C   0  0  0  0  0  0  0  0  0  0  0  0
    0.8500   -1.2000    0.0000 C   0  0  0  0  0  0  0  0  0  0  0  0
   -3.6500   -1.2000    0.0000 C   0  0  0  0  0  0  0  0  0  0  0  0
    0.1000    0.1000    0.0000 C   0  0  0  0  0  0  0  0  0  0  0  0
   -2.1500   -1.2000    0.0000 C   0  0  0  0  0  0  0  0  0  0  0  0
   -4.4002   -2.4989    0.0000 O   0  0  0  0  0  0  0  0  0  0  0  0
   -0.6502   -1.1989    0.0000 O   0  0  0  0  0  0  0  0  0  0  0  0
   -1.4000    0.1000    0.0000 O   0  0  0  0  0  0  0  0  0  0  0  0
  6  5  1  0
  9  7  1  0
 11 10  1  0
 12  8  1  0
 13  5  1  0
 14  1  1  0
 14  2  1  0
 15  3  1  0
  7 15  2  0
 15  8  1  0
  9 16  2  3
 16 10  1  0
 16 14  1  0
 17  6  2  0
 17 11  1  0
 18 12  1  0
 19 17  1  0
 20  4  1  6
 20 13  1  0
 20 18  1  0
 18 21  1  6
 22 19  2  0
 23 19  1  0
 23 20  1  0
M  END
>  <NAME>  (875) 
7ALPHA-HYDROXYSARCOPHYTOLIDE

>  <SYNONYMS>  (875) 
(1Z,5S,6R,9E,11E)-5,9-DIMETHYL-6-HYDROXY-12-ISOPROPYLCYCLOTETRADECA-1,9,11-TRIENE-1,5-CARBOLACTONE

>  <SPECTRUM TYPE>  (875) 
MS1

>  <INSTRUMENT TYPE>  (875) 
EI-B

>  <INSTRUMENT>  (875) 
HITACHI RMU-6L

>  <ION MODE>  (875) 
P

>  <INCHIKEY>  (875) 
UPVZGDDJVFXWOG-MKSSYNOGSA-N

>  <FORMULA>  (875) 
C20H30O3

>  <EXACT MASS>  (875) 
318.21949481999997

>  <MW>  (875) 
318

>  <ID>  (875) 
JP010841

>  <CONTRIBUTOR>  (875) 
University of Tokyo Team, {Faculty of Engineering, University of Tokyo

>  <COMMENT>  (875) 
SMILES=CC(C)C(C2)=C([H])C([H])=C(C)CCC([H])(O)C(C)(C1)OC(=O)C(C2)=C([H])C1
InChI=InChI=1S/C20H30O3/c1-14(2)16-9-7-15(3)8-12-18(21)20(4)13-5-6-17(11-10-16)19(22)23-20/h6-7,9,14,18,21H,5,8,10-13H2,1-4H3/b15-7+,16-9+/t18-,20+/m1/s1
computed SMILES=O=C1OC2(C)CCC=C1CCC(=CC=C(C)CCC2O)C(C)C
computed InChI=InChI=1S/C20H30O3/c1-14(2)16-9-7-15(3)8-12-18(21)20(4)13-5-6-17(11-10-16)19(22)23-20/h6-7,9,14,18,21H,5,8,10-13H2,1-4H3/b15-7-,16-9?/t18-,20+/m1/s1
accession=JP010841
date=2016.01.19 (Created 2008.10.21, modified 2011.05.06)
author=HAMAMATSU UNIV. SCHOOL OF MEDICINE
license=CC BY-NC-SA
exact mass=318.21949
ionization energy=70 eV
ion type=[M]+*
computed spectral entropy=4.436388313380506
computed normalized entropy=0.8357506754138362
SPLASH=splash10-0006-9610000000-64cd9c37ae1130731449
submitter=submitter = University of Tokyo Team (Faculty of Engineering, University of Tokyo)
MoNA Rating=3.75

>  <NUM PEAKS>  (875) 
202

>  <MASS SPECTRAL PEAKS>  (875) 
41 56
42 6.9
43 99.99
44 0.61
45 11.2
46 1
47 7.6
48 0.28
49 2.8
50 1.9
51 3.3
52 0.22
53 24.2
54 3.3
55 39.4
56 0.52
57 24
58 5.3
59 4.1
60 0.22
63 1.8
65 7.8
66 4.7
67 2.57
68 5.7
69 22.1
70 4.7
71 1.51
72 3
73 3
74 1.4
75 0.18
77 20.9
78 5.5
79 23.7
80 0.71
81 27.4
82 7
83 23.1
84 0.38
85 19.1
86 1.6
87 4.2
89 0.11
91 22.3
92 6.2
93 44.7
94 0.94
95 20.6
96 5.5
97 11.6
98 0.41
99 5.6
100 1.2
101 1.9
103 0.32
104 1.9
105 17
106 5.8
107 2.4
108 8.6
109 16.7
110 5.9
111 1.06
112 2.8
113 3
115 4.1
116 0.17
117 6.7
118 1.8
119 16.6
120 0.47
121 38.3
122 8.5
123 14.2
124 0.38
125 6.3
126 3.2
127 3.5
128 0.32
129 3.5
130 2.1
131 6.7
132 0.28
133 14.6
134 6.8
135 27.4
136 1.76
137 10.4
138 4.6
139 5.5
140 0.17
141 4.6
142 1.9
143 3.3
144 0.19
145 8.8
146 2.5
147 12.1
148 0.71
149 21.9
150 5.3
151 11.1
152 1.61
153 4.9
154 1.7
155 2.5
156 0.12
157 4.1
158 1.5
159 5.1
160 0.29
161 7.7
162 3.8
163 5.3
164 0.34
165 7.1
166 3.4
167 3.6
168 0.13
169 2.2
171 3.6
172 1.5
173 0.62
174 2.9
175 5.5
176 2.2
177 0.42
178 2.7
179 2.8
180 1.7
181 0.18
182 1.6
183 2.1
185 3.1
186 0.13
187 3.7
188 2.2
189 5.4
190 0.27
191 3.6
192 2.3
193 2
194 0.1
195 1.6
197 1.8
199 2.5
200 0.11
201 3.4
202 1.7
203 3.2
204 0.16
205 2.9
206 1.4
207 1.6
211 0.16
213 2.2
214 1.3
215 2.1
216 0.14
217 4.1
218 1.7
219 2.4
220 0.14
221 1.7
227 1.3
229 3.1
230 0.14
231 4.5
232 2.3
233 1.3
239 0.16
241 1.2
243 1.5
245 1.7
247 0.12
253 0.8
254 0.9
255 3.6
256 0.18
257 4.2
258 1.2
259 0.9
265 0.14
269 0.9
270 0.8
271 1.2
272 0.34
273 3.3
274 1.2
275 3
276 0.09
285 1.9
289 1.6
291 1.2
293 0.11
300 2.2
301 0.8
303 1
318 1.06
319 3
320 0.8

$$$$

     RDKit          2D

 26 27  0  0  0  0  0  0  0  0999 V2000
    4.6002    2.6987    0.0000 C   0  0  0  0  0  0  0  0  0  0  0  0
    2.3504    3.9981    0.0000 C   0  0  0  0  0  0  0  0  0  0  0  0
   -3.1346   -2.3316    0.0000 C   0  0  0  0  0  0  0  0  0  0  0  0
   -2.1506    6.5970    0.0000 C   0  0  0  0  0  0  0  0  0  0  0  0
   -0.6500   -3.1563    0.0000 C   0  0  0  0  0  0  0  0  0  0  0  0
    0.6608   -2.5546    0.0000 C   0  0  0  0  0  0  0  0  0  0  0  0
    3.1000    0.1000    0.0000 C   0  0  0  0  0  0  0  0  0  0  0  0
    0.8500    1.4000    0.0000 C   0  0  0  0  0  0  0  0  0  0  0  0
    2.3500   -1.2000    0.0000 C   0  0  0  0  0  0  0  0  0  0  0  0
    0.1000    2.7000    0.0000 C   0  0  0  0  0  0  0  0  0  0  0  0
   -2.1500    1.4000    0.0000 C   0  0  0  0  0  0  0  0  0  0  0  0
   -4.4000    0.1000    0.0000 C   0  0  0  0  0  0  0  0  0  0  0  0
   -1.9608   -2.5546    0.0000 C   0  0  0  0  0  0  0  0  0  0  0  0
    3.1002    2.6989    0.0000 C   0  0  0  0  0  0  0  0  0  0  0  0
    2.3500    1.4000    0.0000 C   0  0  0  0  0  0  0  0  0  0  0  0
    0.8500   -1.2000    0.0000 C   0  0  0  0  0  0  0  0  0  0  0  0
   -1.4000    2.7000    0.0000 C   0  0  0  0  0  0  0  0  0  0  0  0
   -3.6500   -1.2000    0.0000 C   0  0  0  0  0  0  0  0  0  0  0  0
   -2.1502    3.9989    0.0000 C   0  0  0  0  0  0  0  0  0  0  0  0
    0.1000    0.1000    0.0000 C   0  0  0  0  0  0  0  0  0  0  0  0
   -2.1500   -1.2000    0.0000 C   0  0  0  0  0  0  0  0  0  0  0  0
   -4.4002   -2.4989    0.0000 O   0  0  0  0  0  0  0  0  0  0  0  0
   -3.6502    3.9987    0.0000 O   0  0  0  0  0  0  0  0  0  0  0  0
   -0.6502   -1.1989    0.0000 O   0  0  0  0  0  0  0  0  0  0  0  0
   -1.4004    5.2981    0.0000 O   0  0  0  0  0  0  0  0  0  0  0  0
   -1.4000    0.1000    0.0000 O   0  0  0  0  0  0  0  0  0  0  0  0
  6  5  1  0
  9  7  1  0
 10  8  1  0
 12 11  1  0
 13  5  1  0
 14  1  1  0
 14  2  1  0
 15  7  1  0
  8 15  2  0
 15 14  1  0
 16  6  2  0
 16  9  1  0
 10 17  2  0
 17 11  1  0
 18 12  1  0
 19 17  1  0
 20 16  1  0
 21  3  1  0
 21 13  1  0
 21 18  1  0
 22 18  2  0
 23 19  2  0
 24 20  2  0
 25  4  1  0
 25 19  1  0
 26 20  1  0
 26 21  1  0
M  END
>  <NAME>  (876) 
KETOEMBLIDE

>  <SYNONYMS>  (876) 


>  <SPECTRUM TYPE>  (876) 
MS1

>  <INSTRUMENT TYPE>  (876) 
EI-B

>  <INSTRUMENT>  (876) 
HITACHI RMU-6L

>  <ION MODE>  (876) 
P

>  <INCHIKEY>  (876) 
SSRWHVBVQPAITB-DLGMIZISSA-N

>  <FORMULA>  (876) 
C21H28O5

>  <EXACT MASS>  (876) 
360.19367399600003

>  <MW>  (876) 
360

>  <ID>  (876) 
JP010840

>  <CONTRIBUTOR>  (876) 
University of Tokyo Team, {Faculty of Engineering, University of Tokyo

>  <COMMENT>  (876) 
SMILES=COC(=O)C(=C2)CCC(=O)C(C)(C1)OC(=O)C(CCC(C(C)C)=C2)=CC1
InChI=InChI=1S/C21H28O5/c1-14(2)15-7-9-16-6-5-13-21(3,26-20(16)24)18(22)12-11-17(10-8-15)19(23)25-4/h6,8,10,14H,5,7,9,11-13H2,1-4H3/b15-8-,17-10+
computed SMILES=O=C(OC)C1=CC=C(CCC2=CCCC(OC2=O)(C(=O)CC1)C)C(C)C
accession=JP010840
date=2016.01.19 (Created 2008.10.21, modified 2011.05.06)
author=HAMAMATSU UNIV. SCHOOL OF MEDICINE
license=CC BY-NC-SA
exact mass=360.19367
ionization energy=70 eV
ion type=[M]+*
computed spectral entropy=3.8969039661667733
computed normalized entropy=0.7668950719647537
SPLASH=splash10-001u-9210000000-32f91c6148b0e34effc4
submitter=submitter = University of Tokyo Team (Faculty of Engineering, University of Tokyo)
MoNA Rating=3.75

>  <NUM PEAKS>  (876) 
161

>  <MASS SPECTRAL PEAKS>  (876) 
41 25.3
42 3.4
43 38.9
44 0.13
45 2.4
47 36.5
48 17.3
49 1.62
50 5
51 2.4
52 1.6
53 0.78
54 1.5
55 9.8
57 2.5
58 0.17
59 5.6
65 4.9
66 2.4
67 0.88
68 1.9
69 10.5
70 1.7
71 0.28
72 1.2
77 10.7
78 2.9
79 1.01
80 1.6
81 5.5
82 4.3
83 99.99
84 11.5
85 66.6
86 6.5
87 0.89
91 15.1
92 2.9
93 5.7
94 0.16
95 5.8
96 1.2
97 1.9
103 0.22
104 1.3
105 7.2
106 2.3
107 0.43
108 1.7
109 3
110 2.7
111 0.22
115 2.8
116 1.2
117 3.3
118 0.26
119 6.6
120 2.4
121 4.2
122 0.16
123 2
124 1.3
125 1.2
127 0.13
128 2
129 2.9
130 1.1
131 0.31
132 1.2
133 3.3
134 2.4
135 0.31
136 1.3
137 3.4
138 1.5
141 0.2
143 2.3
145 2.9
146 1.2
147 0.38
148 3.3
149 4
150 1.2
151 0.23
152 5.8
153 1.2
155 1.5
157 0.19
159 2.6
160 1.6
161 2.8
162 0.15
163 1.6
165 1.8
166 1.3
169 0.13
171 2.5
172 1.3
173 2.3
175 0.16
177 1.3
179 1.7
185 1.7
186 0.12
187 2.8
188 1.4
189 3.5
190 0.17
191 1.2
192 1.6
197 1.5
199 0.29
200 1.5
201 2.5
202 1.5
203 0.14
207 1.1
211 1.3
213 1.6
214 0.13
215 3
216 1.3
217 1.5
219 0.11
227 1.3
228 1
229 2.4
230 0.2
231 2
239 1.7
241 1.5
242 0.22
243 3
244 1.6
249 1.2
255 0.11
257 2.1
258 1.2
267 1.8
268 0.07
275 1.7
282 1.3
283 1.3
284 0.13
285 1.8
289 3.2
290 0.7
300 0.14
301 0.9
313 0.9
314 0.6
315 0.04
317 3.5
318 0.7
319 0.2
328 1.21
329 3.9
330 0.9
332 0.3
360 0.31
361 0.5

$$$$

     RDKit          2D

 24 24  0  0  1  0  0  0  0  0999 V2000
   -5.9002   -0.7187    0.0000 C   0  0  0  0  0  0  0  0  0  0  0  0
   -3.6504   -2.0181    0.0000 C   0  0  0  0  0  0  0  0  0  0  0  0
    0.8502   -2.0189    0.0000 C   0  0  0  0  0  0  0  0  0  0  0  0
    3.1002    4.4689    0.0000 C   0  0  0  0  0  0  0  0  0  0  0  0
   -1.3998    1.8711    0.0000 C   0  0  0  0  0  0  0  0  0  0  0  0
    0.8506    8.3670    0.0000 C   0  0  0  0  0  0  0  0  0  0  0  0
    2.3500    0.5800    0.0000 C   0  0  0  0  0  0  0  0  0  0  0  0
    0.8500    0.5800    0.0000 C   0  0  0  0  0  0  0  0  0  0  0  0
    3.1000    1.8700    0.0000 C   0  0  0  0  0  0  0  0  0  0  0  0
   -1.4000   -0.7200    0.0000 C   0  0  0  0  0  0  0  0  0  0  0  0
   -3.6500    3.1700    0.0000 C   0  0  0  0  0  0  0  0  0  0  0  0
   -2.1500    0.5800    0.0000 C   0  0  0  0  0  0  0  0  0  0  0  0
   -4.4000    1.8800    0.0000 C   0  0  0  0  0  0  0  0  0  0  0  0
    0.8500    3.1700    0.0000 C   0  0  0  0  0  0  0  0  0  0  0  0
   -1.4000    4.4700    0.0000 C   0  0  0  0  0  0  0  0  0  0  0  0
   -4.4002   -0.7189    0.0000 C   0  0  0  0  0  0  0  0  0  0  0  0
    0.1000   -0.7200    0.0000 C   0  0  0  0  0  0  0  0  0  0  0  0
    2.3500    3.1700    0.0000 C   0  0  0  0  0  0  0  0  0  0  0  0
   -2.1500    3.1700    0.0000 C   0  0  0  0  0  0  0  0  0  0  0  0
    0.1004    7.0681    0.0000 C   0  0  0  0  0  0  0  0  0  0  0  0
   -3.6500    0.5800    0.0000 C   0  0  0  0  0  0  0  0  0  0  0  0
    0.1000    4.4700    0.0000 C   0  0  0  0  0  0  0  0  0  0  0  0
   -1.3996    7.0683    0.0000 O   0  0  0  0  0  0  0  0  0  0  0  0
    0.8502    5.7689    0.0000 O   0  0  0  0  0  0  0  0  0  0  0  0
  8  7  1  0
  9  7  1  0
 10 12  2  3
 13 11  1  0
 16  1  1  0
 16  2  1  0
 17  3  1  0
  8 17  2  0
 17 10  1  0
 18  4  1  0
  9 18  2  0
 18 14  1  0
 19  5  1  0
 19 11  1  0
 15 19  2  0
 20  6  1  0
 21 12  1  0
 21 13  1  0
 21 16  1  6
 22 14  1  0
 22 15  1  0
 23 20  2  0
 24 20  1  0
 22 24  1  6
M  END
>  <NAME>  (877) 
(1S,2E,4E,7E,10R,11E)-10-ACETOXYCEMBRA-2,4,7,11-TETRAENE

>  <SYNONYMS>  (877) 


>  <SPECTRUM TYPE>  (877) 
MS1

>  <INSTRUMENT TYPE>  (877) 
EI-B

>  <INSTRUMENT>  (877) 
HITACHI RMU-6L

>  <ION MODE>  (877) 
P

>  <INCHIKEY>  (877) 
AVHLQLZONYQCES-VWRYFPDESA-N

>  <FORMULA>  (877) 
C22H34O2

>  <EXACT MASS>  (877) 
330.255880328

>  <MW>  (877) 
330

>  <ID>  (877) 
JP010839

>  <CONTRIBUTOR>  (877) 
University of Tokyo Team, {Faculty of Engineering, University of Tokyo

>  <COMMENT>  (877) 
SMILES=CC(=O)OC([H])(C1)C([H])=C(C)CCC([H])(C(C)C)C([H])=C([H])C(C)=C([H])CC([H])=C(C)1
InChI=InChI=1S/C22H34O2/c1-16(2)21-12-10-17(3)8-7-9-18(4)14-22(24-20(6)23)15-19(5)11-13-21/h8-10,12,15-16,21-22H,7,11,13-14H2,1-6H3/b12-10+,17-8+,18-9+,19-15+/t21-,22+/m0/s1
computed SMILES=O=C(OC1C=C(C)CCC(C=CC(=CCC=C(C)C1)C)C(C)C)C
computed InChI=InChI=1S/C22H34O2/c1-16(2)21-12-10-17(3)8-7-9-18(4)14-22(24-20(6)23)15-19(5)11-13-21/h8-10,12,15-16,21-22H,7,11,13-14H2,1-6H3/b12-10?,17-8+,18-9-,19-15+/t21-,22+/m0/s1
accession=JP010839
date=2016.01.19 (Created 2008.10.21, modified 2011.05.06)
author=HAMAMATSU UNIV. SCHOOL OF MEDICINE
license=CC BY-NC-SA
exact mass=330.25588
ionization energy=70 eV
ion type=[M]+*
computed spectral entropy=4.137579671318403
computed normalized entropy=0.8785546528962583
SPLASH=splash10-0006-9810000000-c887e5184111ec9dcfd0
submitter=submitter = University of Tokyo Team (Faculty of Engineering, University of Tokyo)
MoNA Rating=3.75

>  <NUM PEAKS>  (877) 
111

>  <MASS SPECTRAL PEAKS>  (877) 
41 53.3
42 4.1
43 99.99
44 0.3
45 6.8
53 16.1
55 46.3
56 0.51
57 9.9
60 5.8
65 8.2
66 0.3
67 19.6
68 4.4
69 35.8
70 0.45
71 10.9
77 23.6
78 5.9
79 3.45
80 17.2
81 55.2
82 10.2
83 1.8
84 16.4
85 4.5
91 38.8
92 1.14
93 57.7
94 13.1
95 28.3
96 0.6
97 20.6
98 4.8
103 4.1
105 4.33
106 15.3
107 47.8
108 14.9
109 2.75
110 6.7
111 6.3
115 5.2
117 1.01
119 42.1
120 21.5
121 32.3
122 1.13
123 21.8
124 5.1
126 5
129 0.65
131 16.3
132 16.3
133 36.5
134 1.75
135 25.9
136 13.9
137 13.3
143 0.79
145 29.1
146 12.7
147 24.4
148 0.92
149 13.2
150 5
151 5.1
157 1.34
158 5.4
159 23.8
160 8.5
161 2.38
162 8.1
163 7.8
164 12.1
165 0.59
171 11.8
173 7.1
175 10.5
177 0.68
179 5
185 9.7
186 4.8
187 0.94
188 6.1
189 17.4
190 14.3
191 0.81
199 5.5
201 7.4
202 6
203 0.66
205 3.7
206 3
215 7.5
217 0.33
227 31.1
228 8.2
229 2.6
243 0.47
244 1.7
245 3
255 11.6
256 0.27
270 26.9
271 8.7
272 1.6
287 0.33
288 2.6
330 12.1
331 3.1

$$$$

     RDKit          2D

 21 21  0  0  1  0  0  0  0  0999 V2000
   -5.9002   -0.7187    0.0000 C   0  0  0  0  0  0  0  0  0  0  0  0
   -3.6504   -2.0181    0.0000 C   0  0  0  0  0  0  0  0  0  0  0  0
    0.8502   -2.0189    0.0000 C   0  0  0  0  0  0  0  0  0  0  0  0
    3.1002    4.4689    0.0000 C   0  0  0  0  0  0  0  0  0  0  0  0
   -1.3998    1.8711    0.0000 C   0  0  0  0  0  0  0  0  0  0  0  0
    2.3500    0.5800    0.0000 C   0  0  0  0  0  0  0  0  0  0  0  0
    0.8500    0.5800    0.0000 C   0  0  0  0  0  0  0  0  0  0  0  0
    3.1000    1.8700    0.0000 C   0  0  0  0  0  0  0  0  0  0  0  0
   -1.4000   -0.7200    0.0000 C   0  0  0  0  0  0  0  0  0  0  0  0
   -3.6500    3.1700    0.0000 C   0  0  0  0  0  0  0  0  0  0  0  0
   -2.1500    0.5800    0.0000 C   0  0  0  0  0  0  0  0  0  0  0  0
   -4.4000    1.8800    0.0000 C   0  0  0  0  0  0  0  0  0  0  0  0
    0.8500    3.1700    0.0000 C   0  0  0  0  0  0  0  0  0  0  0  0
   -1.4000    4.4700    0.0000 C   0  0  0  0  0  0  0  0  0  0  0  0
   -4.4002   -0.7189    0.0000 C   0  0  0  0  0  0  0  0  0  0  0  0
    0.1000   -0.7200    0.0000 C   0  0  0  0  0  0  0  0  0  0  0  0
    2.3500    3.1700    0.0000 C   0  0  0  0  0  0  0  0  0  0  0  0
   -2.1500    3.1700    0.0000 C   0  0  0  0  0  0  0  0  0  0  0  0
   -3.6500    0.5800    0.0000 C   0  0  0  0  0  0  0  0  0  0  0  0
    0.1000    4.4700    0.0000 C   0  0  0  0  0  0  0  0  0  0  0  0
    0.8502    5.7689    0.0000 O   0  0  0  0  0  0  0  0  0  0  0  0
  7  6  1  0
  8  6  1  0
  9 11  2  3
 12 10  1  0
 15  1  1  0
 15  2  1  0
 16  3  1  0
  7 16  2  0
 16  9  1  0
 17  4  1  0
  8 17  2  0
 17 13  1  0
 18  5  1  0
 18 10  1  0
 14 18  2  0
 19 11  1  0
 19 12  1  0
 19 15  1  6
 20 13  1  0
 20 14  1  0
 21 20  2  0
M  END
>  <NAME>  (878) 
(1S,2E,4E,7E,11E)-10-OXOCEMBRA-2,4,7,11-TETRAENE

>  <SYNONYMS>  (878) 


>  <SPECTRUM TYPE>  (878) 
MS1

>  <INSTRUMENT TYPE>  (878) 
EI-B

>  <INSTRUMENT>  (878) 
HITACHI RMU-6L

>  <ION MODE>  (878) 
P

>  <INCHIKEY>  (878) 
MZTPSSNCTBEIEA-PHZHXBCNSA-N

>  <FORMULA>  (878) 
C20H30O

>  <EXACT MASS>  (878) 
286.22966557999996

>  <MW>  (878) 
286

>  <ID>  (878) 
JP010838

>  <CONTRIBUTOR>  (878) 
University of Tokyo Team, {Faculty of Engineering, University of Tokyo

>  <COMMENT>  (878) 
SMILES=[H]C(C1)=C(C)CC(=O)C([H])=C(C)CCC([H])(C(C)C)C([H])=C([H])C(C)=C([H])1
InChI=InChI=1S/C20H30O/c1-15(2)19-11-9-16(3)7-6-8-17(4)13-20(21)14-18(5)10-12-19/h7-9,11,14-15,19H,6,10,12-13H2,1-5H3/b11-9+,16-7+,17-8+,18-14+/t19-/m0/s1
computed SMILES=O=C1C=C(C)CCC(C=CC(=CCC=C(C)C1)C)C(C)C
computed InChI=InChI=1S/C20H30O/c1-15(2)19-11-9-16(3)7-6-8-17(4)13-20(21)14-18(5)10-12-19/h7-9,11,14-15,19H,6,10,12-13H2,1-5H3/b11-9?,16-7+,17-8-,18-14+/t19-/m0/s1
accession=JP010838
date=2016.01.19 (Created 2008.10.21, modified 2011.05.06)
author=HAMAMATSU UNIV. SCHOOL OF MEDICINE
license=CC BY-NC-SA
exact mass=286.22967
ionization energy=70 eV
ion type=[M]+*
computed spectral entropy=4.092799513847437
computed normalized entropy=0.8609912401588128
SPLASH=splash10-0536-9500000000-53687885f39ce19ab86e
submitter=submitter = University of Tokyo Team (Faculty of Engineering, University of Tokyo)
MoNA Rating=3.75

>  <NUM PEAKS>  (878) 
116

>  <MASS SPECTRAL PEAKS>  (878) 
40 7.4
41 99.99
42 8.6
43 4.88
47 22
48 11.8
49 29.4
50 0.4
51 11.5
52 3.3
53 37.9
54 1.31
55 63.6
56 4.3
57 9.9
65 1.59
66 5.2
67 45.7
68 13
69 4.66
70 5.5
71 7.4
77 37
78 0.99
79 42.3
80 16.2
81 66.5
82 3.02
83 76.7
84 18
85 46.3
86 1.13
87 7.8
88 12.2
91 50.4
92 1.32
93 48.7
94 8.5
95 50.4
96 2.55
97 10.1
103 5
104 3.4
105 4.63
106 13
107 51.8
108 14.7
109 2.29
110 4.9
111 5.5
115 6.2
116 0.35
117 10.1
118 3.4
119 32.9
120 1.99
121 29.8
122 14.9
123 40.4
124 0.57
128 3.6
129 5.3
131 12.1
132 0.56
133 23.3
134 11.5
135 26.4
136 1.26
137 12.2
143 4.6
145 16.2
146 0.52
147 23.6
148 20.1
149 15.5
150 1.19
151 5.6
157 4.7
159 14.4
160 0.46
161 17.4
162 10
163 13
164 0.46
173 6.6
175 12.4
176 4.1
177 0.59
178 3.2
183 2.6
187 7.2
188 0.29
189 8.3
190 4.9
191 7
201 0.53
202 2.9
203 6.3
204 3.1
205 0.49
206 2.4
215 4.9
216 2.3
217 0.81
218 4.6
219 1
225 4.1
231 0.27
233 1.7
243 13.5
244 3
271 0.4
272 1
286 15.2
287 4.5
288 1

$$$$

     RDKit          2D

 21 21  0  0  1  0  0  0  0  0999 V2000
    2.3461   -2.0181    0.0000 C   0  0  0  0  0  0  0  0  0  0  0  0
    4.5980   -0.7224    0.0000 C   0  0  0  0  0  0  0  0  0  0  0  0
   -4.3980    4.4702    0.0000 C   0  0  0  0  0  0  0  0  0  0  0  0
   -2.1502   -2.0189    0.0000 C   0  0  0  0  0  0  0  0  0  0  0  0
    0.0998    1.8711    0.0000 C   0  0  0  0  0  0  0  0  0  0  0  0
   -3.6500    0.5800    0.0000 C   0  0  0  0  0  0  0  0  0  0  0  0
   -1.4000    4.4700    0.0000 C   0  0  0  0  0  0  0  0  0  0  0  0
   -4.4000    1.8800    0.0000 C   0  0  0  0  0  0  0  0  0  0  0  0
   -2.1500    3.1700    0.0000 C   0  0  0  0  0  0  0  0  0  0  0  0
   -2.1500    0.5800    0.0000 C   0  0  0  0  0  0  0  0  0  0  0  0
    0.1000    4.4700    0.0000 C   0  0  0  0  0  0  0  0  0  0  0  0
    0.1000   -0.7200    0.0000 C   0  0  0  0  0  0  0  0  0  0  0  0
    0.8500    0.5800    0.0000 C   0  0  0  0  0  0  0  0  0  0  0  0
    2.3500    3.1700    0.0000 C   0  0  0  0  0  0  0  0  0  0  0  0
    3.0980   -0.7202    0.0000 C   0  0  0  0  0  0  0  0  0  0  0  0
   -3.6500    3.1700    0.0000 C   0  0  0  0  0  0  0  0  0  0  0  0
   -1.4000   -0.7200    0.0000 C   0  0  0  0  0  0  0  0  0  0  0  0
    0.8500    3.1700    0.0000 C   0  0  0  0  0  0  0  0  0  0  0  0
    2.3500    0.5800    0.0000 C   0  0  0  0  0  0  0  0  0  0  0  0
    3.1000    1.8700    0.0000 C   0  0  0  0  0  0  0  0  0  0  0  0
    4.6000    1.8675    0.0000 O   0  0  0  0  0  0  0  0  0  0  0  0
  8  6  1  0
  9  7  1  0
 10  6  1  0
 11  7  1  0
 13 12  1  0
 15  1  2  0
 15  2  1  0
 16  3  1  0
  8 16  2  0
 16  9  1  0
 17  4  1  0
 17 10  1  0
 12 17  2  0
 18  5  1  0
 11 18  2  0
 18 14  1  0
 19 13  1  0
 19 15  1  1
 20 14  1  0
 20 19  1  0
 21 20  2  0
M  END
>  <NAME>  (879) 
13-OXONEOCEMBRENE

>  <SYNONYMS>  (879) 


>  <SPECTRUM TYPE>  (879) 
MS1

>  <INSTRUMENT TYPE>  (879) 
EI-B

>  <INSTRUMENT>  (879) 
HITACHI RMU-6L

>  <ION MODE>  (879) 
P

>  <INCHIKEY>  (879) 
FHFFESCITRPPTG-ZSAANFQCSA-N

>  <FORMULA>  (879) 
C20H30O

>  <EXACT MASS>  (879) 
286.22966558

>  <MW>  (879) 
286

>  <ID>  (879) 
JP010836

>  <CONTRIBUTOR>  (879) 
University of Tokyo Team, {Faculty of Engineering, University of Tokyo

>  <COMMENT>  (879) 
SMILES=[H]C(C1)=C(C)CCC([H])=C(C)CC(=O)C([H])(C(C)=C)CC([H])=C(C)C1
InChI=InChI=1S/C20H30O/c1-15(2)19-13-12-17(4)10-6-8-16(3)9-7-11-18(5)14-20(19)21/h8,11-12,19H,1,6-7,9-10,13-14H2,2-5H3/b16-8+,17-12+,18-11+/t19-/m1/s1
computed SMILES=O=C1CC(=CCCC(=CCCC(=CCC1C(=C)C)C)C)C
computed InChI=InChI=1S/C20H30O/c1-15(2)19-13-12-17(4)10-6-8-16(3)9-7-11-18(5)14-20(19)21/h8,11-12,19H,1,6-7,9-10,13-14H2,2-5H3/b16-8-,17-12-,18-11+/t19-/m1/s1
accession=JP010836
date=2016.01.19 (Created 2008.10.21, modified 2011.05.06)
author=HAMAMATSU UNIV. SCHOOL OF MEDICINE
license=CC BY-NC-SA
exact mass=286.22967
ionization energy=70 eV
ion type=[M]+*
computed spectral entropy=3.5853918289027114
computed normalized entropy=0.8254034149100247
SPLASH=splash10-0awc-9400000000-7cc26d5a35334f881eb5
submitter=submitter = University of Tokyo Team (Faculty of Engineering, University of Tokyo)
MoNA Rating=3.75

>  <NUM PEAKS>  (879) 
77

>  <MASS SPECTRAL PEAKS>  (879) 
41 81.4
42 6.8
43 25.4
51 0.34
53 44.1
54 16.9
55 47.5
56 0.51
57 11.9
65 11.9
66 5.1
67 6.1
68 79.7
69 25.4
70 1.7
71 0.68
77 25.4
78 5.1
79 47.5
80 2.81
81 49.1
82 84.7
83 18.6
84 0.34
85 1.5
91 37.3
92 10.2
93 8.64
94 33.9
95 32.2
96 6.8
97 0.51
105 20.3
106 6.8
107 99.99
108 3.73
109 25.4
110 5.1
111 1.7
119 1.53
120 13.6
121 50.8
122 39.8
123 2.88
124 0.8
131 0.8
133 10.2
134 1.53
135 22
136 8.5
137 5.1
138 0.08
145 3.4
146 0.8
147 15.3
148 0.76
149 11.9
150 8.5
151 5.1
161 0.68
162 5.1
163 3.4
164 1.7
173 0.25
175 10.2
176 4.2
177 3.4
189 0.68
190 1.7
203 5.1
227 4.2
228 0.17
243 1.7
258 7
271 1.7
286 2.2
287 5.1

$$$$

     RDKit          2D

 13 12  0  0  0  0  0  0  0  0999 V2000
   -6.8200    5.0625    0.0000 C   0  0  0  0  0  0  0  0  0  0  0  0
   -5.5209    2.8125    0.0000 C   0  0  0  0  0  0  0  0  0  0  0  0
    3.5724    5.0625    0.0000 C   0  0  0  0  0  0  0  0  0  0  0  0
    2.2733    2.8125    0.0000 C   0  0  0  0  0  0  0  0  0  0  0  0
   -1.6238    5.0625    0.0000 C   0  0  0  0  0  0  0  0  0  0  0  0
   -5.5209    4.3125    0.0000 C   0  0  0  0  0  0  0  0  0  0  0  0
    2.2733    4.3125    0.0000 C   0  0  0  0  0  0  0  0  0  0  0  0
   -2.9228    4.3125    0.0000 C   0  0  0  0  0  0  0  0  0  0  0  0
   -0.3248    4.3125    0.0000 C   0  0  0  0  0  0  0  0  0  0  0  0
   -2.9228    2.8125    0.0000 O   0  0  0  0  0  0  0  0  0  0  0  0
   -0.3248    2.8125    0.0000 O   0  0  0  0  0  0  0  0  0  0  0  0
   -4.2219    5.0625    0.0000 O   0  0  0  0  0  0  0  0  0  0  0  0
    0.9743    5.0625    0.0000 O   0  0  0  0  0  0  0  0  0  0  0  0
  6  1  1  0
  6  2  1  0
  7  3  1  0
  7  4  1  0
  8  5  1  0
  9  5  1  0
 10  8  2  0
 11  9  2  0
 12  6  1  0
 12  8  1  0
 13  7  1  0
 13  9  1  0
M  END
>  <NAME>  (880) 
DIISOPROPYL MALONATE

>  <SYNONYMS>  (880) 


>  <SPECTRUM TYPE>  (880) 
MS1

>  <INSTRUMENT TYPE>  (880) 
EI-B

>  <INSTRUMENT>  (880) 
HITACHI RMU-6M

>  <ION MODE>  (880) 
P

>  <INCHIKEY>  (880) 
QRVSDVDFJFKYKA-UHFFFAOYSA-N

>  <FORMULA>  (880) 
C9H16O4

>  <EXACT MASS>  (880) 
188.104858992

>  <MW>  (880) 
188

>  <ID>  (880) 
JP010834

>  <CONTRIBUTOR>  (880) 
University of Tokyo Team, {Faculty of Engineering, University of Tokyo

>  <COMMENT>  (880) 
SMILES=CC(C)OC(=O)CC(=O)OC(C)C
InChI=InChI=1S/C9H16O4/c1-6(2)12-8(10)5-9(11)13-7(3)4/h6-7H,5H2,1-4H3
computed SMILES=O=C(OC(C)C)CC(=O)OC(C)C
accession=JP010834
date=2016.01.19 (Created 2008.10.21, modified 2011.05.06)
license=CC BY-NC-SA
author=HAMAMATSU UNIV. SCHOOL OF MEDICINE
exact mass=188.10486
ionization energy=70 eV
ion type=[M]+*
computed spectral entropy=2.3781792844399403
computed normalized entropy=0.7062579008537818
SPLASH=splash10-052f-9300000000-a9a97bb2b4a68d7c233b
submitter=submitter = University of Tokyo Team (Faculty of Engineering, University of Tokyo)
MoNA Rating=3.75

>  <NUM PEAKS>  (880) 
29

>  <MASS SPECTRAL PEAKS>  (880) 
15 2.5
27 12.6
28 1.7
29 0.17
31 1.7
39 5.9
40 1.3
41 1.76
42 11.8
43 99.99
44 3.4
45 1.18
57 1.7
59 25.6
60 14.3
61 0.17
69 2.1
87 37
88 1.7
102 0.97
105 32.4
106 1.3
111 14.7
118 0.21
129 29.4
130 2.1
131 3.8
147 0.46
172 2.1

$$$$

     RDKit          2D

 20 21  0  0  1  0  0  0  0  0999 V2000
   10.0231    1.2915    0.0000 C   0  0  0  0  0  0  0  0  0  0  0  0
    8.7242    0.5412    0.0000 C   0  0  0  0  0  0  0  0  0  0  0  0
    4.8263    5.7906    0.0000 C   0  0  0  0  0  0  0  0  0  0  0  0
    3.5264    5.0404    0.0000 C   0  0  0  0  0  0  0  0  0  0  0  0
    6.1264    5.0408    0.0000 C   0  0  0  0  0  0  0  0  0  0  0  0
   -0.3700   -1.7100    0.0000 C   0  0  0  0  0  0  0  0  0  0  0  0
   -1.6700   -0.9600    0.0000 C   0  0  0  0  0  0  0  0  0  0  0  0
    3.5266    3.5404    0.0000 C   0  0  0  0  0  0  0  0  0  0  0  0
    6.1266    3.5408    0.0000 C   0  0  0  0  0  0  0  0  0  0  0  0
    0.9300   -0.9600    0.0000 C   0  0  0  0  0  0  0  0  0  0  0  0
   -1.6700    0.5400    0.0000 C   0  0  0  0  0  0  0  0  0  0  0  0
    3.5281    0.5404    0.0000 C   0  0  0  0  0  0  0  0  0  0  0  0
    4.8268    2.7906    0.0000 C   0  0  0  0  0  0  0  0  0  0  0  0
    4.8270    1.2906    0.0000 C   0  0  0  0  0  0  0  0  0  0  0  0
    7.4251    1.2910    0.0000 C   0  0  0  0  0  0  0  0  0  0  0  0
    0.9300    0.5400    0.0000 C   0  0  0  0  0  0  0  0  0  0  0  0
    6.1262    0.5408    0.0000 N   0  0  0  0  0  0  0  0  0  0  0  0
    7.4248    2.7910    0.0000 O   0  0  0  0  0  0  0  0  0  0  0  0
   -0.3700    1.2900    0.0000 O   0  0  0  0  0  0  0  0  0  0  0  0
    2.2289    1.2902    0.0000 O   0  0  0  0  0  0  0  0  0  0  0  0
  2  1  1  0
  4  3  2  0
  5  3  1  0
  7  6  1  0
  8  4  1  0
  9  5  2  0
 10  6  1  0
 11  7  1  0
 13  8  2  0
 13  9  1  0
 14 12  1  1
 14 13  1  0
 15  2  1  0
 16 10  1  0
 14 17  1  0
 17 15  2  3
 18 15  1  0
 19 11  1  0
 19 16  1  0
 20 12  1  0
 20 16  1  0
M  END
>  <NAME>  (881) 
(1R)-2-(2-TETRAHYDROPYRANYLOXY)-1-PROPIONYLAMINOETHYLBENZENE

>  <SYNONYMS>  (881) 


>  <SPECTRUM TYPE>  (881) 
MS1

>  <INSTRUMENT TYPE>  (881) 
EI-B

>  <INSTRUMENT>  (881) 
SHIMADZU LKB-9000B

>  <ION MODE>  (881) 
P

>  <INCHIKEY>  (881) 
FVMZMHCLDKHCNA-LBAUFKAWSA-N

>  <FORMULA>  (881) 
C16H23NO3

>  <EXACT MASS>  (881) 
277.167793596

>  <MW>  (881) 
277

>  <ID>  (881) 
JP010833

>  <CONTRIBUTOR>  (881) 
University of Tokyo Team, {Faculty of Engineering, University of Tokyo

>  <COMMENT>  (881) 
SMILES=CCC(=O)NC([H])(COC(C2)OCCC2)c(c1)cccc1
InChI=InChI=1S/C16H23NO3/c1-2-15(18)17-14(13-8-4-3-5-9-13)12-20-16-10-6-7-11-19-16/h3-5,8-9,14,16H,2,6-7,10-12H2,1H3,(H,17,18)/t14-,16?/m0/s1
computed SMILES=OC(=NC(C=1C=CC=CC1)COC2OCCCC2)CC
accession=JP010833
date=2016.01.19 (Created 2008.10.21, modified 2011.05.06)
author=HAMAMATSU UNIV. SCHOOL OF MEDICINE
license=CC BY-NC-SA
exact mass=277.16779
ionization energy=70 eV
ion type=[M]+*
computed spectral entropy=2.788562676080321
computed normalized entropy=0.8460863778919384
SPLASH=splash10-06rf-5900000000-bf46a00a577b9ec52968
submitter=submitter = University of Tokyo Team (Faculty of Engineering, University of Tokyo)
MoNA Rating=3.75

>  <NUM PEAKS>  (881) 
27

>  <MASS SPECTRAL PEAKS>  (881) 
29 18.7
41 14.1
43 8.7
55 7.8
57 28.9
67 9.1
74 9.1
77 7.2
78 7.2
79 5.2
85 88.2
86 5.2
91 8.4
103 5.7
104 12.3
106 72.9
107 8.7
119 8
120 25.1
162 13.5
163 78.3
164 9.3
175 7.6
176 18
194 99.99
195 13.8
278 17.5

$$$$

     RDKit          2D

 14 14  0  0  0  0  0  0  0  0999 V2000
   -3.8981   -0.7504    0.0000 C   0  0  0  0  0  0  0  0  0  0  0  0
    3.8981    0.7504    0.0000 C   0  0  0  0  0  0  0  0  0  0  0  0
   -1.3000    0.7500    0.0000 C   0  0  0  0  0  0  0  0  0  0  0  0
   -0.0000   -1.5000    0.0000 C   0  0  0  0  0  0  0  0  0  0  0  0
    0.0000    3.0000    0.0000 C   0  0  0  0  0  0  0  0  0  0  0  0
    2.5989   -1.5002    0.0000 C   0  0  0  0  0  0  0  0  0  0  0  0
    0.0000    1.5000    0.0000 C   0  0  0  0  0  0  0  0  0  0  0  0
    1.3000   -0.7500    0.0000 C   0  0  0  0  0  0  0  0  0  0  0  0
   -1.3000   -0.7500    0.0000 C   0  0  0  0  0  0  0  0  0  0  0  0
    1.3000    0.7500    0.0000 C   0  0  0  0  0  0  0  0  0  0  0  0
   -1.2990    3.7500    0.0000 Br  0  0  0  0  0  0  0  0  0  0  0  0
    2.5987   -3.0002    0.0000 Br  0  0  0  0  0  0  0  0  0  0  0  0
   -2.5989   -1.5002    0.0000 O   0  0  0  0  0  0  0  0  0  0  0  0
    2.5989    1.5002    0.0000 O   0  0  0  0  0  0  0  0  0  0  0  0
  7  3  2  0
  7  5  1  0
  8  4  1  0
  8  6  1  0
  9  3  1  0
  9  4  2  0
 10  7  1  0
 10  8  2  0
 11  5  1  0
 12  6  1  0
 13  1  1  0
 13  9  1  0
 14  2  1  0
 14 10  1  0
M  END
>  <NAME>  (882) 
1,3-DI(BROMOMETYL)-2,5-DIMETHOXYBENZENE

>  <SYNONYMS>  (882) 


>  <SPECTRUM TYPE>  (882) 
MS1

>  <INSTRUMENT TYPE>  (882) 
EI-B

>  <INSTRUMENT>  (882) 
SHIMADZU LKB-9000B

>  <ION MODE>  (882) 
P

>  <INCHIKEY>  (882) 
NMKXDEJEXSASNP-UHFFFAOYSA-N

>  <FORMULA>  (882) 
C10H12Br2O2

>  <EXACT MASS>  (882) 
321.920403824

>  <MW>  (882) 
322

>  <ID>  (882) 
JP010832

>  <CONTRIBUTOR>  (882) 
University of Tokyo Team, {Faculty of Engineering, University of Tokyo

>  <COMMENT>  (882) 
SMILES=COc(c1)cc(CBr)c(OC)c(CBr)1
InChI=InChI=1S/C10H12Br2O2/c1-13-9-3-7(5-11)10(14-2)8(4-9)6-12/h3-4H,5-6H2,1-2H3
computed SMILES=BrCC1=CC(OC)=CC(=C1OC)CBr
accession=JP010832
date=2016.01.19 (Created 2008.10.21, modified 2011.05.06)
author=HAMAMATSU UNIV. SCHOOL OF MEDICINE
license=CC BY-NC-SA
exact mass=321.9204
ionization energy=70 eV
ion type=[M]+*
computed spectral entropy=3.619171112774203
computed normalized entropy=0.8190318307450467
SPLASH=splash10-000m-4951000000-33758c070fd29b08a1b1
submitter=submitter = University of Tokyo Team (Faculty of Engineering, University of Tokyo)
MoNA Rating=3.75

>  <NUM PEAKS>  (882) 
83

>  <MASS SPECTRAL PEAKS>  (882) 
38 2.3
39 7.5
50 4.1
51 8.3
52 4.6
53 4.7
55 1.2
61 1.5
62 4.8
63 11.2
64 3.6
65 11
66 3.9
67 7.3
74 3.2
75 3.3
76 3.8
77 23.3
78 19.2
79 7.7
80 1
81 2.6
82 1.5
86 1.8
87 1.6
88 1.3
89 10.8
90 7.5
91 2.7
92 4.4
93 4.8
94 1.4
95 2
96 1
98 1.2
102 1.9
103 7.3
104 8.2
105 9.3
106 3.3
107 2
117 1
118 1.9
119 5.3
120 4.1
121 33.2
122 7.9
133 3.7
134 21.2
135 99.99
136 27.8
137 2.8
148 1.4
149 34.9
150 21.3
151 2.1
163 1.4
164 2.4
165 13.7
166 1.6
183 3.2
184 1.4
185 3.2
199 1.5
201 1.3
213 11.9
214 1.9
215 12.4
216 1.4
227 1.6
228 1.3
229 1.8
230 1.3
243 72.7
244 11.8
245 70.3
246 10.4
247 1
309 1.2
322 12.2
324 22
326 11.8
327 1.3

$$$$

     RDKit          2D

 13 13  0  0  0  0  0  0  0  0999 V2000
   -5.8454    3.6946    0.0000 C   0  0  0  0  0  0  0  0  0  0  0  0
    3.2478    1.4446    0.0000 C   0  0  0  0  0  0  0  0  0  0  0  0
    1.9483    0.6938    0.0000 C   0  0  0  0  0  0  0  0  0  0  0  0
    3.2483    2.9454    0.0000 C   0  0  0  0  0  0  0  0  0  0  0  0
    0.6493    1.4438    0.0000 C   0  0  0  0  0  0  0  0  0  0  0  0
    1.9493    3.6954    0.0000 C   0  0  0  0  0  0  0  0  0  0  0  0
   -3.2474    3.6946    0.0000 C   0  0  0  0  0  0  0  0  0  0  0  0
   -4.5464    2.9446    0.0000 C   0  0  0  0  0  0  0  0  0  0  0  0
    0.6498    2.9446    0.0000 C   0  0  0  0  0  0  0  0  0  0  0  0
   -1.9483    2.9446    0.0000 C   0  0  0  0  0  0  0  0  0  0  0  0
   -0.6493    3.6946    0.0000 N   0  0  0  0  0  0  0  0  0  0  0  0
   -4.5464    1.4446    0.0000 O   0  0  0  0  0  0  0  0  0  0  0  0
   -1.9483    1.4446    0.0000 O   0  0  0  0  0  0  0  0  0  0  0  0
  3  2  2  0
  4  2  1  0
  5  3  1  0
  6  4  2  0
  8  1  1  0
  8  7  1  0
  9  5  2  0
  9  6  1  0
 10  7  1  0
 11  9  1  0
 11 10  2  3
 12  8  2  0
 13 10  1  0
M  END
>  <NAME>  (883) 
ACETOACETANILIDE

>  <SYNONYMS>  (883) 
N-PHENYLACETOACETAMIDE

>  <SPECTRUM TYPE>  (883) 
MS1

>  <INSTRUMENT TYPE>  (883) 
EI-B

>  <INSTRUMENT>  (883) 
HITACHI M-80A

>  <ION MODE>  (883) 
P

>  <INCHIKEY>  (883) 
DYRDKSSFIWVSNM-UHFFFAOYSA-N

>  <FORMULA>  (883) 
C10H11NO2

>  <EXACT MASS>  (883) 
177.078978592

>  <MW>  (883) 
177

>  <ID>  (883) 
JP010831

>  <CONTRIBUTOR>  (883) 
University of Tokyo Team, {Faculty of Engineering, University of Tokyo

>  <COMMENT>  (883) 
SMILES=CC(=O)CC(=O)Nc(c1)cccc1
InChI=InChI=1S/C10H11NO2/c1-8(12)7-10(13)11-9-5-3-2-4-6-9/h2-6H,7H2,1H3,(H,11,13)
computed SMILES=O=C(C)CC(O)=NC=1C=CC=CC1
accession=JP010831
date=2016.01.19 (Created 2008.10.21, modified 2011.05.06)
author=HAMAMATSU UNIV. SCHOOL OF MEDICINE
license=CC BY-NC-SA
exact mass=177.07898
ionization energy=70 eV
ion type=[M]+*
computed spectral entropy=2.6981203143360832
computed normalized entropy=0.7529248095723798
SPLASH=splash10-0006-9000000000-410c72c2eb11b5c733be
submitter=submitter = University of Tokyo Team (Faculty of Engineering, University of Tokyo)
MoNA Rating=3.75

>  <NUM PEAKS>  (883) 
36

>  <MASS SPECTRAL PEAKS>  (883) 
15 4.34
26 2.1
27 4.09
29 1.4
37 1.31
38 3.05
39 11.54
40 2.21
41 2.28
42 6.76
43 33.23
50 2.4
51 4.59
52 2.63
54 1.25
58 7.23
62 1.27
63 3.83
64 3.94
65 14.37
66 11.78
67 1.66
69 3.63
77 5.99
78 1.25
84 2.57
85 2.96
91 3.5
92 6.86
94 99.99
95 7.83
106 1.89
119 6.44
120 1.2
177 14.55
178 2.03

$$$$

     RDKit          2D

 10 11  0  0  0  0  0  0  0  0999 V2000
   -2.6000    0.7500    0.0000 C   0  0  0  0  0  0  0  0  0  0  0  0
   -2.6000   -0.7500    0.0000 C   0  0  0  0  0  0  0  0  0  0  0  0
    2.6000    0.7500    0.0000 C   0  0  0  0  0  0  0  0  0  0  0  0
   -1.3000    1.5000    0.0000 C   0  0  0  0  0  0  0  0  0  0  0  0
    1.3000    1.5000    0.0000 C   0  0  0  0  0  0  0  0  0  0  0  0
   -1.3000   -1.5000    0.0000 C   0  0  0  0  0  0  0  0  0  0  0  0
    2.6000   -0.7500    0.0000 C   0  0  0  0  0  0  0  0  0  0  0  0
   -0.0000    0.7500    0.0000 C   0  0  0  0  0  0  0  0  0  0  0  0
   -0.0000   -0.7500    0.0000 C   0  0  0  0  0  0  0  0  0  0  0  0
    1.3000   -1.5000    0.0000 N   0  0  0  0  0  0  0  0  0  0  0  0
  2  1  2  0
  4  1  1  0
  5  3  2  0
  6  2  1  0
  7  3  1  0
  8  4  2  0
  8  5  1  0
  9  6  2  0
  9  8  1  0
 10  7  2  0
 10  9  1  0
M  END
>  <NAME>  (884) 
QUINOLINE

>  <SYNONYMS>  (884) 


>  <SPECTRUM TYPE>  (884) 
MS1

>  <INSTRUMENT TYPE>  (884) 
EI-B

>  <INSTRUMENT>  (884) 
JEOL JMS-AX-505-H

>  <ION MODE>  (884) 
P

>  <INCHIKEY>  (884) 
SMWDFEZZVXVKRB-UHFFFAOYSA-N

>  <FORMULA>  (884) 
C9H7N

>  <EXACT MASS>  (884) 
129.057849224

>  <MW>  (884) 
129

>  <ID>  (884) 
JP010830

>  <CONTRIBUTOR>  (884) 
University of Tokyo Team, {Faculty of Engineering, University of Tokyo

>  <COMMENT>  (884) 
SMILES=c(c2)cc(c1)c(c2)ncc1
InChI=InChI=1S/C9H7N/c1-2-6-9-8(4-1)5-3-7-10-9/h1-7H
computed SMILES=N=1C=CC=C2C=CC=CC12
accession=JP010830
date=2016.01.19 (Created 2008.10.21, modified 2011.05.06)
author=HAMAMATSU UNIV. SCHOOL OF MEDICINE
license=CC BY-NC-SA
exact mass=129.05785
ionization energy=70 eV
ion type=[M]+*
computed spectral entropy=2.1926795477676473
computed normalized entropy=0.6811942016612053
SPLASH=splash10-004i-2900000000-5f026eea98547624a47f
submitter=submitter = University of Tokyo Team (Faculty of Engineering, University of Tokyo)
MoNA Rating=3.75

>  <NUM PEAKS>  (884) 
25

>  <MASS SPECTRAL PEAKS>  (884) 
51 10
52 2.09
55 1.41
62 1.17
63 2.96
64 1.42
65 2.07
71 1.48
73 1.34
74 4.37
75 6.4
76 8.58
77 3.12
78 2.54
85 1.48
91 1.15
100 1.14
101 6
102 22.9
103 6.86
105 3.55
127 1.58
128 17.98
129 99.99
130 10.53

$$$$

     RDKit          2D

 10 11  0  0  0  0  0  0  0  0999 V2000
   -2.6000    0.7500    0.0000 C   0  0  0  0  0  0  0  0  0  0  0  0
   -2.6000   -0.7500    0.0000 C   0  0  0  0  0  0  0  0  0  0  0  0
    2.6000    0.7500    0.0000 C   0  0  0  0  0  0  0  0  0  0  0  0
   -1.3000    1.5000    0.0000 C   0  0  0  0  0  0  0  0  0  0  0  0
    1.3000    1.5000    0.0000 C   0  0  0  0  0  0  0  0  0  0  0  0
   -1.3000   -1.5000    0.0000 C   0  0  0  0  0  0  0  0  0  0  0  0
    2.6000   -0.7500    0.0000 C   0  0  0  0  0  0  0  0  0  0  0  0
   -0.0000    0.7500    0.0000 C   0  0  0  0  0  0  0  0  0  0  0  0
   -0.0000   -0.7500    0.0000 C   0  0  0  0  0  0  0  0  0  0  0  0
    1.3000   -1.5000    0.0000 N   0  0  0  0  0  0  0  0  0  0  0  0
  2  1  2  0
  4  1  1  0
  5  3  2  0
  6  2  1  0
  7  3  1  0
  8  4  2  0
  8  5  1  0
  9  6  2  0
  9  8  1  0
 10  7  2  0
 10  9  1  0
M  END
>  <NAME>  (885) 
QUINOLINE

>  <SYNONYMS>  (885) 


>  <SPECTRUM TYPE>  (885) 
MS1

>  <INSTRUMENT TYPE>  (885) 
EI-B

>  <INSTRUMENT>  (885) 
JEOL JMS-AX-505-H

>  <ION MODE>  (885) 
P

>  <INCHIKEY>  (885) 
SMWDFEZZVXVKRB-UHFFFAOYSA-N

>  <FORMULA>  (885) 
C9H7N

>  <EXACT MASS>  (885) 
129.057849224

>  <MW>  (885) 
129

>  <ID>  (885) 
JP010829

>  <CONTRIBUTOR>  (885) 
University of Tokyo Team, {Faculty of Engineering, University of Tokyo

>  <COMMENT>  (885) 
SMILES=c(c2)cc(c1)c(c2)ncc1
InChI=InChI=1S/C9H7N/c1-2-6-9-8(4-1)5-3-7-10-9/h1-7H
computed SMILES=N=1C=CC=C2C=CC=CC12
accession=JP010829
date=2016.01.19 (Created 2008.10.21, modified 2011.05.06)
author=HAMAMATSU UNIV. SCHOOL OF MEDICINE
license=CC BY-NC-SA
exact mass=129.05785
ionization energy=70 eV
ion type=[M]+*
computed spectral entropy=2.1926795477676473
computed normalized entropy=0.6811942016612053
SPLASH=splash10-004i-2900000000-5f026eea98547624a47f
submitter=submitter = University of Tokyo Team (Faculty of Engineering, University of Tokyo)
MoNA Rating=3.75

>  <NUM PEAKS>  (885) 
25

>  <MASS SPECTRAL PEAKS>  (885) 
51 10
52 2.09
55 1.41
62 1.17
63 2.96
64 1.42
65 2.07
71 1.48
73 1.34
74 4.37
75 6.4
76 8.58
77 3.12
78 2.54
85 1.48
91 1.15
100 1.14
101 6
102 22.9
103 6.86
105 3.55
127 1.58
128 17.98
129 99.99
130 10.53

$$$$

     RDKit          2D

 11 12  0  0  0  0  0  0  0  0999 V2000
   -2.6000   -0.7500    0.0000 C   0  0  0  0  0  0  0  0  0  0  0  0
    2.6000    0.7500    0.0000 C   0  0  0  0  0  0  0  0  0  0  0  0
    1.3000    1.5000    0.0000 C   0  0  0  0  0  0  0  0  0  0  0  0
   -2.6000    0.7500    0.0000 C   0  0  0  0  0  0  0  0  0  0  0  0
   -1.3000   -1.5000    0.0000 C   0  0  0  0  0  0  0  0  0  0  0  0
    2.6000   -0.7500    0.0000 C   0  0  0  0  0  0  0  0  0  0  0  0
   -0.0000    0.7500    0.0000 C   0  0  0  0  0  0  0  0  0  0  0  0
   -1.3000    1.5000    0.0000 C   0  0  0  0  0  0  0  0  0  0  0  0
   -0.0000   -0.7500    0.0000 C   0  0  0  0  0  0  0  0  0  0  0  0
   -1.3000    3.0000    0.0000 N   0  0  0  0  0  0  0  0  0  0  0  0
    1.3000   -1.5000    0.0000 N   0  0  0  0  0  0  0  0  0  0  0  0
  3  2  2  0
  4  1  2  0
  5  1  1  0
  6  2  1  0
  7  3  1  0
  8  4  1  0
  8  7  2  0
  9  5  2  0
  9  7  1  0
 10  8  1  0
 11  6  2  0
 11  9  1  0
M  END
>  <NAME>  (886) 
5-AMINOQUINOLINE

>  <SYNONYMS>  (886) 


>  <SPECTRUM TYPE>  (886) 
MS1

>  <INSTRUMENT TYPE>  (886) 
EI-B

>  <INSTRUMENT>  (886) 
JEOL JMS-AX-505-H

>  <ION MODE>  (886) 
P

>  <INCHIKEY>  (886) 
XMIAFAKRAAMSGX-UHFFFAOYSA-N

>  <FORMULA>  (886) 
C9H8N2

>  <EXACT MASS>  (886) 
144.068748256

>  <MW>  (886) 
144

>  <ID>  (886) 
JP010828

>  <CONTRIBUTOR>  (886) 
University of Tokyo Team, {Faculty of Engineering, University of Tokyo

>  <COMMENT>  (886) 
SMILES=Nc(c1)c(c2)c(ncc2)cc1
InChI=InChI=1S/C9H8N2/c10-8-4-1-5-9-7(8)3-2-6-11-9/h1-6H,10H2
computed SMILES=N=1C=CC=C2C1C=CC=C2N
accession=JP010828
date=2016.01.19 (Created 2008.10.21, modified 2011.05.06)
author=HAMAMATSU UNIV. SCHOOL OF MEDICINE
license=CC BY-NC-SA
exact mass=144.06875
ionization energy=70 eV
ion type=[M]+*
computed spectral entropy=2.5117207640516446
computed normalized entropy=0.7064626924317023
SPLASH=splash10-0006-3900000000-bcb18a2e0047e208d2bd
submitter=submitter = University of Tokyo Team (Faculty of Engineering, University of Tokyo)
MoNA Rating=3.75

>  <NUM PEAKS>  (886) 
35

>  <MASS SPECTRAL PEAKS>  (886) 
51 4.05
55 1.7
60 1.23
62 3.38
63 4.78
67 1.17
70 1.96
71 2.59
72 2.37
73 3.33
74 1.96
75 1.33
76 1.32
84 1.45
85 3.37
87 1.72
88 1.27
89 10.61
90 7.98
91 8.73
97 1.03
98 1.03
106 5.2
114 2
115 2.67
116 13.6
117 22.81
118 3.31
127 1.54
142 2.31
143 9.6
144 99.99
145 10.97
149 1.35
153 1.18

$$$$

     RDKit          2D

 13 14  0  0  1  0  0  0  0  0999 V2000
    0.9309    3.5428    0.0000 C   0  0  0  0  0  0  0  0  0  0  0  0
    4.8275    1.2919    0.0000 C   0  0  0  0  0  0  0  0  0  0  0  0
    4.8225    2.7840    0.0000 C   0  0  0  0  0  0  0  0  0  0  0  0
   -1.6700    0.5400    0.0000 C   0  0  0  0  0  0  0  0  0  0  0  0
   -0.3700    1.2900    0.0000 C   0  0  0  0  0  0  0  0  0  0  0  0
    3.5282    0.5406    0.0000 C   0  0  0  0  0  0  0  0  0  0  0  0
   -1.6700   -0.9600    0.0000 C   0  0  0  0  0  0  0  0  0  0  0  0
    3.5232    3.5336    0.0000 C   0  0  0  0  0  0  0  0  0  0  0  0
    0.9300   -0.9600    0.0000 C   0  0  0  0  0  0  0  0  0  0  0  0
    0.9300    0.5400    0.0000 C   0  0  0  0  0  0  0  0  0  0  0  0
    2.2289    1.2902    0.0000 C   0  0  0  0  0  0  0  0  0  0  0  0
   -0.3700   -1.7100    0.0000 N   0  0  0  0  0  0  0  0  0  0  0  0
    2.2289    2.7910    0.0000 N   0  0  0  0  0  0  0  0  0  0  0  0
  3  2  1  0
  5  4  2  0
  6  2  1  0
  7  4  1  0
  8  3  1  0
 10  5  1  0
 10  9  2  0
 11  6  1  0
 11 10  1  1
 12  7  2  0
 12  9  1  0
 13  1  1  0
 13  8  1  0
 13 11  1  0
M  END
>  <NAME>  (887) 
METHYLANABASINE

>  <SYNONYMS>  (887) 
3-(1-METHYL-2-PIPERIDYL)PYRIDINE

>  <SPECTRUM TYPE>  (887) 
MS1

>  <INSTRUMENT TYPE>  (887) 
EI-B

>  <INSTRUMENT>  (887) 
JEOL JMS-AX-505-H

>  <ION MODE>  (887) 
P

>  <INCHIKEY>  (887) 
WHAIHNKQZOMXJJ-NSHDSACASA-N

>  <FORMULA>  (887) 
C11H16N2

>  <EXACT MASS>  (887) 
176.131348512

>  <MW>  (887) 
176

>  <ID>  (887) 
JP010827

>  <CONTRIBUTOR>  (887) 
University of Tokyo Team, {Faculty of Engineering, University of Tokyo

>  <COMMENT>  (887) 
SMILES=CN(C2)C([H])(CCC2)c(c1)cncc1
InChI=InChI=1S/C11H16N2/c1-13-8-3-2-6-11(13)10-5-4-7-12-9-10/h4-5,7,9,11H,2-3,6,8H2,1H3/t11-/m0/s1
computed SMILES=N=1C=CC=C(C1)C2N(C)CCCC2
accession=JP010827
date=2016.01.19 (Created 2008.10.21, modified 2011.05.06)
author=HAMAMATSU UNIV. SCHOOL OF MEDICINE
license=CC BY-NC-SA
exact mass=176.13135
ionization energy=70 eV
ion type=[M]+*
computed spectral entropy=2.439876811933406
computed normalized entropy=0.686255401647311
SPLASH=splash10-0002-9500000000-04ae7dcf9b67bfd07386
submitter=submitter = University of Tokyo Team (Faculty of Engineering, University of Tokyo)
MoNA Rating=3.75

>  <NUM PEAKS>  (887) 
35

>  <MASS SPECTRAL PEAKS>  (887) 
51 1.06
52 1.97
58 1.21
65 1.93
70 3.34
73 1
77 1.91
78 4.03
79 1.99
81 1.32
83 1.12
90 2.03
91 1.16
92 5.4
93 1.68
95 1.24
97 1.03
98 99.99
99 3.83
104 5.08
105 3.66
106 2.64
118 4.37
119 12.06
120 5.61
132 2.97
133 5.74
134 1.69
147 5.7
161 2.94
175 8.42
176 21.03
177 1.92
191 1.22
354 2.06

$$$$

     RDKit          2D

 12 13  0  0  1  0  0  0  0  0999 V2000
    1.2781    3.7914    0.0000 C   0  0  0  0  0  0  0  0  0  0  0  0
   -1.6700    0.5400    0.0000 C   0  0  0  0  0  0  0  0  0  0  0  0
    4.6097    1.7978    0.0000 C   0  0  0  0  0  0  0  0  0  0  0  0
   -0.3700    1.2900    0.0000 C   0  0  0  0  0  0  0  0  0  0  0  0
    3.6062    0.6829    0.0000 C   0  0  0  0  0  0  0  0  0  0  0  0
   -1.6700   -0.9600    0.0000 C   0  0  0  0  0  0  0  0  0  0  0  0
    3.8546    3.0963    0.0000 C   0  0  0  0  0  0  0  0  0  0  0  0
    0.9300   -0.9600    0.0000 C   0  0  0  0  0  0  0  0  0  0  0  0
    0.9300    0.5400    0.0000 C   0  0  0  0  0  0  0  0  0  0  0  0
    2.2289    1.2902    0.0000 C   0  0  0  0  0  0  0  0  0  0  0  0
   -0.3700   -1.7100    0.0000 N   0  0  0  0  0  0  0  0  0  0  0  0
    2.3910    2.7857    0.0000 N   0  0  0  0  0  0  0  0  0  0  0  0
  4  2  2  0
  5  3  1  0
  6  2  1  0
  7  3  1  0
  9  4  1  0
  9  8  2  0
 10  5  1  0
 10  9  1  1
 11  6  2  0
 11  8  1  0
 12  1  1  0
 12  7  1  0
 12 10  1  0
M  END
>  <NAME>  (888) 
NICOTINE

>  <SYNONYMS>  (888) 
3-(1-METHYL-2-PYRROLIDINYL)PYRIDINE

>  <SPECTRUM TYPE>  (888) 
MS1

>  <INSTRUMENT TYPE>  (888) 
EI-B

>  <INSTRUMENT>  (888) 
JEOL JMS-AX-505-H

>  <ION MODE>  (888) 
P

>  <INCHIKEY>  (888) 
SNICXCGAKADSCV-JTQLQIEISA-N

>  <FORMULA>  (888) 
C10H14N2

>  <EXACT MASS>  (888) 
162.115698448

>  <MW>  (888) 
162

>  <ID>  (888) 
JP010826

>  <CONTRIBUTOR>  (888) 
University of Tokyo Team, {Faculty of Engineering, University of Tokyo

>  <COMMENT>  (888) 
SMILES=CN(C2)C([H])(CC2)c(c1)cncc1
InChI=InChI=1S/C10H14N2/c1-12-7-3-5-10(12)9-4-2-6-11-8-9/h2,4,6,8,10H,3,5,7H2,1H3/t10-/m0/s1
computed SMILES=N=1C=CC=C(C1)C2N(C)CCC2
accession=JP010826
date=2016.01.19 (Created 2008.10.21, modified 2011.05.06)
author=HAMAMATSU UNIV. SCHOOL OF MEDICINE
license=CC BY-NC-SA
exact mass=162.1157
ionization energy=70 eV
ion type=[M]+*
computed spectral entropy=2.6716433328279403
computed normalized entropy=0.7018335195220151
SPLASH=splash10-001i-9800000000-fe889308f7088d47c31d
submitter=submitter = University of Tokyo Team (Faculty of Engineering, University of Tokyo)
MoNA Rating=3.75

>  <NUM PEAKS>  (888) 
45

>  <MASS SPECTRAL PEAKS>  (888) 
51 2.82
52 1.11
54 2.13
55 1.96
63 2.22
64 1.19
65 5.31
66 1.18
67 2.97
69 1.29
73 1.86
77 1.74
78 3.55
79 1.02
81 1.34
82 3.24
83 1.14
84 99.99
85 6
92 3.78
93 1.13
104 3.06
105 1.27
117 3.85
118 4.51
119 6.32
120 2.76
130 4.8
132 1.84
133 26.27
134 4.04
144 1.01
145 1.49
146 1.64
147 1.49
159 2.16
160 1.23
161 26.04
162 33.56
163 4.21
171 1.14
207 3.49
281 1.18
355 1.01
401 1.3

$$$$

     RDKit          2D

  9  9  0  0  0  0  0  0  0  0999 V2000
    3.5724   -0.9375    0.0000 C   0  0  0  0  0  0  0  0  0  0  0  0
   -1.6243   -0.9383    0.0000 C   0  0  0  0  0  0  0  0  0  0  0  0
   -0.3243    1.3133    0.0000 C   0  0  0  0  0  0  0  0  0  0  0  0
   -0.3252   -1.6883    0.0000 C   0  0  0  0  0  0  0  0  0  0  0  0
    0.9748    0.5633    0.0000 C   0  0  0  0  0  0  0  0  0  0  0  0
   -1.6238    0.5625    0.0000 C   0  0  0  0  0  0  0  0  0  0  0  0
    0.9743   -0.9375    0.0000 C   0  0  0  0  0  0  0  0  0  0  0  0
   -2.9228    1.3125    0.0000 O   0  0  0  0  0  0  0  0  0  0  0  0
    2.2733   -1.6875    0.0000 O   0  0  0  0  0  0  0  0  0  0  0  0
  4  2  2  0
  5  3  1  0
  6  2  1  0
  6  3  2  0
  7  4  1  0
  7  5  2  0
  8  6  1  0
  9  1  1  0
  9  7  1  0
M  END
>  <NAME>  (889) 
4-METHOXYPHENOL

>  <SYNONYMS>  (889) 


>  <SPECTRUM TYPE>  (889) 
MS1

>  <INSTRUMENT TYPE>  (889) 
EI-B

>  <INSTRUMENT>  (889) 
JEOL JMS-D-3000

>  <ION MODE>  (889) 
P

>  <INCHIKEY>  (889) 
NWVVVBRKAWDGAB-UHFFFAOYSA-N

>  <FORMULA>  (889) 
C7H8O2

>  <EXACT MASS>  (889) 
124.052429496

>  <MW>  (889) 
124

>  <ID>  (889) 
JP010825

>  <CONTRIBUTOR>  (889) 
University of Tokyo Team, {Faculty of Engineering, University of Tokyo

>  <COMMENT>  (889) 
SMILES=COc(c1)ccc(O)c1
InChI=InChI=1S/C7H8O2/c1-9-7-4-2-6(8)3-5-7/h2-5,8H,1H3
computed SMILES=OC1=CC=C(OC)C=C1
accession=JP010825
date=2016.01.19 (Created 2008.10.21, modified 2011.05.06)
author=FUJISE Y, HAMAMATSU UNIV. SCHOOL OF MEDICINE
license=CC BY-NC-SA
exact mass=124.05243
ionization energy=70 eV
ion type=[M]+*
computed spectral entropy=1.9876679928769436
computed normalized entropy=0.6254355964320862
SPLASH=splash10-0ab9-3900000000-b406ffca43dc64f80356
submitter=submitter = University of Tokyo Team (Faculty of Engineering, University of Tokyo)
MoNA Rating=3.75

>  <NUM PEAKS>  (889) 
24

>  <MASS SPECTRAL PEAKS>  (889) 
42 2.12
50 2.59
51 3.48
52 4.22
53 12.6
54 4.42
55 3.04
61 1.21
62 2.78
63 3.65
64 1.53
65 4.65
66 1.03
80 1.4
81 32.62
82 2.32
93 1.86
95 1.75
108 1.72
109 99.99
110 6.68
123 2.42
124 99.95
125 7.98

$$$$

     RDKit          2D

 10 10  0  0  0  0  0  0  0  0999 V2000
    1.6056    2.0565    0.0000 C   0  0  0  0  0  0  0  0  0  0  0  0
    0.2920   -0.1684    0.0000 C   0  0  0  0  0  0  0  0  0  0  0  0
    2.8901    1.3316    0.0000 C   0  0  0  0  0  0  0  0  0  0  0  0
    1.6165   -0.9625    0.0000 C   0  0  0  0  0  0  0  0  0  0  0  0
    0.3065    1.3065    0.0000 C   0  0  0  0  0  0  0  0  0  0  0  0
    2.9156   -0.2125    0.0000 C   0  0  0  0  0  0  0  0  0  0  0  0
   -0.9888    2.0629    0.0000 C   0  0  0  0  0  0  0  0  0  0  0  0
    4.2207   -0.9518    0.0000 O   0  0  0  0  0  0  0  0  0  0  0  0
   -2.2915    1.3193    0.0000 O   0  0  0  0  0  0  0  0  0  0  0  0
   -0.9814    3.5628    0.0000 O   0  0  0  0  0  0  0  0  0  0  0  0
  3  1  2  0
  4  2  1  0
  5  1  1  0
  5  2  2  0
  6  3  1  0
  6  4  2  0
  7  5  1  0
  8  6  1  0
  9  7  1  0
 10  7  2  0
M  END
>  <NAME>  (890) 
4-HYDROXYBENZOIC ACID

>  <SYNONYMS>  (890) 


>  <SPECTRUM TYPE>  (890) 
MS1

>  <INSTRUMENT TYPE>  (890) 
EI-B

>  <INSTRUMENT>  (890) 
JEOL JMS-D-3000

>  <ION MODE>  (890) 
P

>  <INCHIKEY>  (890) 
FJKROLUGYXJWQN-UHFFFAOYSA-N

>  <FORMULA>  (890) 
C7H6O3

>  <EXACT MASS>  (890) 
138.03169405199998

>  <MW>  (890) 
138

>  <ID>  (890) 
JP010824

>  <CONTRIBUTOR>  (890) 
University of Tokyo Team, {Faculty of Engineering, University of Tokyo

>  <COMMENT>  (890) 
SMILES=Oc(c1)ccc(c1)C(O)=O
InChI=InChI=1S/C7H6O3/c8-6-3-1-5(2-4-6)7(9)10/h1-4,8H,(H,9,10)
computed SMILES=O=C(O)C1=CC=C(O)C=C1
accession=JP010824
date=2016.01.19 (Created 2008.10.21, modified 2011.05.06)
author=FUJISE Y, HAMAMATSU UNIV. SCHOOL OF MEDICINE
license=CC BY-NC-SA
exact mass=138.03169
ionization energy=70 eV
ion type=[M]+*
computed spectral entropy=2.659760568093428
computed normalized entropy=0.7311883351495629
SPLASH=splash10-00dr-7900000000-290af590b1fc44a86969
submitter=submitter = University of Tokyo Team (Faculty of Engineering, University of Tokyo)
MoNA Rating=3.75

>  <NUM PEAKS>  (890) 
38

>  <MASS SPECTRAL PEAKS>  (890) 
27 1.15
41 4.72
42 1.11
43 5.32
44 33.11
45 4.67
46 2.77
50 3.65
51 3.42
53 4.16
55 6.99
56 1.2
57 3.75
60 5.18
61 3.19
62 3.93
63 10.05
64 2.73
65 18.71
66 2.03
69 2.5
71 1.85
73 4.21
74 1.99
77 5.28
78 5.28
81 2.4
83 1.29
85 1.01
92 1.85
93 23.85
94 2.31
105 8.52
121 99.99
122 13.94
123 1.01
138 86.15
139 6.34

$$$$

     RDKit          2D

 12 12  0  0  0  0  0  0  0  0999 V2000
   -1.2138    2.8682    0.0000 C   0  0  0  0  0  0  0  0  0  0  0  0
   -3.2629    2.3192    0.0000 C   0  0  0  0  0  0  0  0  0  0  0  0
   -2.7138    0.2701    0.0000 C   0  0  0  0  0  0  0  0  0  0  0  0
   -0.6653   -0.6817    0.0000 C   0  0  0  0  0  0  0  0  0  0  0  0
    0.6338   -1.4317    0.0000 C   0  0  0  0  0  0  0  0  0  0  0  0
    0.6347    1.5700    0.0000 C   0  0  0  0  0  0  0  0  0  0  0  0
   -0.6648    0.8192    0.0000 C   0  0  0  0  0  0  0  0  0  0  0  0
    1.9333   -0.6808    0.0000 C   0  0  0  0  0  0  0  0  0  0  0  0
    1.9338    0.8200    0.0000 C   0  0  0  0  0  0  0  0  0  0  0  0
   -1.9638    1.5692    0.0000 C   0  0  0  0  0  0  0  0  0  0  0  0
    3.2323   -1.4308    0.0000 O   0  0  0  0  0  0  0  0  0  0  0  0
    3.2329    1.5698    0.0000 O   0  0  0  0  0  0  0  0  0  0  0  0
  5  4  2  0
  7  4  1  0
  7  6  2  0
  8  5  1  0
  9  6  1  0
  9  8  2  0
 10  1  1  0
 10  2  1  0
 10  3  1  0
 10  7  1  0
 11  8  1  0
 12  9  1  0
M  END
>  <NAME>  (891) 
4-TERT-BUTYLPYROCATECHOL

>  <SYNONYMS>  (891) 


>  <SPECTRUM TYPE>  (891) 
MS1

>  <INSTRUMENT TYPE>  (891) 
EI-B

>  <INSTRUMENT>  (891) 
JEOL JMS-D-3000

>  <ION MODE>  (891) 
P

>  <INCHIKEY>  (891) 
XESZUVZBAMCAEJ-UHFFFAOYSA-N

>  <FORMULA>  (891) 
C10H14O2

>  <EXACT MASS>  (891) 
166.099379688

>  <MW>  (891) 
166

>  <ID>  (891) 
JP010823

>  <CONTRIBUTOR>  (891) 
University of Tokyo Team, {Faculty of Engineering, University of Tokyo

>  <COMMENT>  (891) 
SMILES=Oc(c1)c(O)cc(c1)C(C)(C)C
InChI=InChI=1S/C10H14O2/c1-10(2,3)7-4-5-8(11)9(12)6-7/h4-6,11-12H,1-3H3
computed SMILES=OC1=CC=C(C=C1O)C(C)(C)C
accession=JP010823
date=2016.01.19 (Created 2008.10.21, modified 2011.05.06)
author=FUJISE Y, HAMAMATSU UNIV. SCHOOL OF MEDICINE
license=CC BY-NC-SA
exact mass=166.09938
ionization energy=70 eV
ion type=[M]+*
computed spectral entropy=2.459209363592546
computed normalized entropy=0.6916929991271596
SPLASH=splash10-0udi-2900000000-a3ac4989ca5b94fafdcb
submitter=submitter = University of Tokyo Team (Faculty of Engineering, University of Tokyo)
MoNA Rating=3.75

>  <NUM PEAKS>  (891) 
35

>  <MASS SPECTRAL PEAKS>  (891) 
42 7.97
43 1.5
44 9.27
50 1.04
51 3.88
52 1.58
53 1.96
55 2.38
63 1.93
64 1.12
65 2.92
67 1.02
75 1.65
76 2.23
77 5.35
78 1.31
79 2.66
89 1.78
91 1.75
93 4.46
103 1.39
105 6.12
107 1.89
110 2.33
111 6.04
123 13.38
124 1.31
133 2.46
135 1.79
136 1.47
150 2.25
151 99.99
152 10.32
166 33.34
167 3.74

$$$$

     RDKit          2D

 12 12  0  0  0  0  0  0  0  0999 V2000
    2.2420    3.2180    0.0000 C   0  0  0  0  0  0  0  0  0  0  0  0
    3.5249    2.4903    0.0000 C   0  0  0  0  0  0  0  0  0  0  0  0
    0.9649    2.4656    0.0000 C   0  0  0  0  0  0  0  0  0  0  0  0
    3.5611    0.9907    0.0000 C   0  0  0  0  0  0  0  0  0  0  0  0
    0.9708    0.9855    0.0000 C   0  0  0  0  0  0  0  0  0  0  0  0
    2.2537    0.2578    0.0000 C   0  0  0  0  0  0  0  0  0  0  0  0
   -0.3239    0.2280    0.0000 C   0  0  0  0  0  0  0  0  0  0  0  0
    2.2499   -1.2422    0.0000 N   0  0  0  0  0  0  0  0  0  0  0  0
   -0.3152   -1.2720    0.0000 O   0  0  0  0  0  0  0  0  0  0  0  0
   -1.6273    0.9705    0.0000 O   0  0  0  0  0  0  0  0  0  0  0  0
    3.5470   -1.9955    0.0000 O   0  0  0  0  0  0  0  0  0  0  0  0
    0.9490   -1.9889    0.0000 O   0  0  0  0  0  0  0  0  0  0  0  0
  2  1  2  0
  3  1  1  0
  4  2  1  0
  5  3  2  0
  6  4  2  0
  6  5  1  0
  7  5  1  0
  8  6  1  0
  9  7  2  0
 10  7  1  0
 11  8  1  0
 12  8  2  0
M  CHG  2   8   1  11  -1
M  END
>  <NAME>  (892) 
2-NITROBENZOIC ACID

>  <SYNONYMS>  (892) 


>  <SPECTRUM TYPE>  (892) 
MS1

>  <INSTRUMENT TYPE>  (892) 
EI-B

>  <INSTRUMENT>  (892) 
JEOL JMS-D-3000

>  <ION MODE>  (892) 
P

>  <INCHIKEY>  (892) 
SLAMLWHELXOEJZ-UHFFFAOYSA-N

>  <FORMULA>  (892) 
C7H5NO4

>  <EXACT MASS>  (892) 
167.02185764

>  <MW>  (892) 
167

>  <ID>  (892) 
JP010822

>  <CONTRIBUTOR>  (892) 
University of Tokyo Team, {Faculty of Engineering, University of Tokyo

>  <COMMENT>  (892) 
SMILES=OC(=O)c(c1)c(ccc1)[N+1]([O-1])=O
InChI=InChI=1S/C7H5NO4/c9-7(10)5-3-1-2-4-6(5)8(11)12/h1-4H,(H,9,10)
computed SMILES=O=C(O)C=1C=CC=CC1N(=O)=O
accession=JP010822
date=2016.01.19 (Created 2008.10.21, modified 2011.05.06)
author=FUJISE Y, HAMAMATSU UNIV. SCHOOL OF MEDICINE
license=CC BY-NC-SA
exact mass=167.02186
ionization energy=70 eV
ion type=[M]+*
computed spectral entropy=1.9968541489182379
computed normalized entropy=0.6283260937400845
SPLASH=splash10-0006-9200000000-0ecb8ef88b11c6577bdc
submitter=submitter = University of Tokyo Team (Faculty of Engineering, University of Tokyo)
MoNA Rating=3.75

>  <NUM PEAKS>  (892) 
24

>  <MASS SPECTRAL PEAKS>  (892) 
42 2.18
43 1.81
44 99.99
45 1.47
50 4.62
51 12.27
52 1.39
63 1.22
74 1.47
75 1.04
76 1.41
77 28.47
78 2.47
86 1.18
91 1.7
98 1.09
105 6.71
122 6.5
123 15.02
124 1.36
135 1.9
146 1.44
147 1.55
163 7.99

$$$$

     RDKit          2D

 10 10  0  0  0  0  0  0  0  0999 V2000
    1.3000   -0.7500    0.0000 C   0  0  0  0  0  0  0  0  0  0  0  0
   -1.3000   -0.7500    0.0000 C   0  0  0  0  0  0  0  0  0  0  0  0
   -0.0000   -1.5000    0.0000 C   0  0  0  0  0  0  0  0  0  0  0  0
    1.3000    0.7500    0.0000 C   0  0  0  0  0  0  0  0  0  0  0  0
   -1.3000    0.7500    0.0000 C   0  0  0  0  0  0  0  0  0  0  0  0
   -0.0000    1.5000    0.0000 C   0  0  0  0  0  0  0  0  0  0  0  0
   -0.0000   -3.0000    0.0000 Br  0  0  0  0  0  0  0  0  0  0  0  0
    2.5989    1.5002    0.0000 Br  0  0  0  0  0  0  0  0  0  0  0  0
   -2.5989    1.5002    0.0000 Br  0  0  0  0  0  0  0  0  0  0  0  0
    0.0000    3.0000    0.0000 O   0  0  0  0  0  0  0  0  0  0  0  0
  3  1  2  0
  3  2  1  0
  4  1  1  0
  5  2  2  0
  6  4  2  0
  6  5  1  0
  7  3  1  0
  8  4  1  0
  9  5  1  0
 10  6  1  0
M  END
>  <NAME>  (893) 
2,4,6-TRIBROMOPHENOL

>  <SYNONYMS>  (893) 


>  <SPECTRUM TYPE>  (893) 
MS1

>  <INSTRUMENT TYPE>  (893) 
EI-B

>  <INSTRUMENT>  (893) 
JEOL JMS-D-3000

>  <ION MODE>  (893) 
P

>  <INCHIKEY>  (893) 
BSWWXRFVMJHFBN-UHFFFAOYSA-N

>  <FORMULA>  (893) 
C6H3Br3O

>  <EXACT MASS>  (893) 
327.773401016

>  <MW>  (893) 
327

>  <ID>  (893) 
JP010821

>  <CONTRIBUTOR>  (893) 
University of Tokyo Team, {Faculty of Engineering, University of Tokyo

>  <COMMENT>  (893) 
SMILES=Oc(c(Br)1)c(Br)cc(Br)c1
InChI=InChI=1S/C6H3Br3O/c7-3-1-4(8)6(10)5(9)2-3/h1-2,10H
computed SMILES=BrC=1C=C(Br)C(O)=C(Br)C1
accession=JP010821
date=2016.01.19 (Created 2008.10.21, modified 2011.05.06)
author=FUJISE Y, HAMAMATSU UNIV. SCHOOL OF MEDICINE
license=CC BY-NC-SA
exact mass=327.7734
ionization energy=70 eV
ion type=[M]+*
computed spectral entropy=3.3763944008760536
computed normalized entropy=0.7974278391934806
SPLASH=splash10-0059-3329000000-8507237252f6c68a3e56
submitter=submitter = University of Tokyo Team (Faculty of Engineering, University of Tokyo)
MoNA Rating=3.75

>  <NUM PEAKS>  (893) 
69

>  <MASS SPECTRAL PEAKS>  (893) 
41 1.63
43 1.22
45 1.79
46 2.69
53 7.83
57 2.28
60 3.91
61 17.3
62 30.69
63 13.71
70 5.14
71 5.95
73 2.53
74 3.75
79 3.26
80 2.28
81 3.02
82 2.36
85 2.12
90 5.46
91 6.12
110 5.46
111 8.48
112 5.3
116 1.55
117 2.2
118 1.3
119 1.79
124 1.3
125 3.51
126 1.63
141 19.02
142 3.83
143 17.38
144 2.28
164 2.28
165 6.04
166 6.2
167 2.44
169 2.2
170 6.12
171 2.69
172 5.95
219 6.77
220 4.57
221 10.85
222 7.51
223 6.69
224 4.08
233 1.3
235 2.61
247 5.87
248 1.3
249 9.71
250 3.18
251 5.38
252 1.3
300 1.55
302 1.55
313 1.63
315 1.79
327 35.34
328 3.02
329 99.99
330 7.51
331 97.3
332 7.26
333 33.38
334 2.36

$$$$

     RDKit          2D

 13 14  0  0  0  0  0  0  0  0999 V2000
    3.8992    0.3353    0.0000 C   0  0  0  0  0  0  0  0  0  0  0  0
    3.8996    1.8362    0.0000 C   0  0  0  0  0  0  0  0  0  0  0  0
    2.5996   -0.4155    0.0000 C   0  0  0  0  0  0  0  0  0  0  0  0
    2.6006    2.5862    0.0000 C   0  0  0  0  0  0  0  0  0  0  0  0
    1.3006    0.3345    0.0000 C   0  0  0  0  0  0  0  0  0  0  0  0
   -1.2933    1.8289    0.0000 C   0  0  0  0  0  0  0  0  0  0  0  0
    0.0093    4.0602    0.0000 C   0  0  0  0  0  0  0  0  0  0  0  0
   -2.5814    2.5475    0.0000 C   0  0  0  0  0  0  0  0  0  0  0  0
   -1.3191    4.8478    0.0000 C   0  0  0  0  0  0  0  0  0  0  0  0
    1.3011    1.8353    0.0000 C   0  0  0  0  0  0  0  0  0  0  0  0
    0.0020    2.5853    0.0000 C   0  0  0  0  0  0  0  0  0  0  0  0
   -2.6144    4.0915    0.0000 C   0  0  0  0  0  0  0  0  0  0  0  0
   -3.9232    4.8243    0.0000 O   0  0  0  0  0  0  0  0  0  0  0  0
  2  1  2  0
  3  1  1  0
  4  2  1  0
  5  3  2  0
  8  6  2  0
  9  7  1  0
 10  4  2  0
 10  5  1  0
 11  6  1  0
 11  7  2  0
 11 10  1  0
 12  8  1  0
 12  9  2  0
 13 12  1  0
M  END
>  <NAME>  (894) 
4-PHENYLPHENOL

>  <SYNONYMS>  (894) 


>  <SPECTRUM TYPE>  (894) 
MS1

>  <INSTRUMENT TYPE>  (894) 
EI-B

>  <INSTRUMENT>  (894) 
JEOL JMS-D-3000

>  <ION MODE>  (894) 
P

>  <INCHIKEY>  (894) 
YXVFYQXJAXKLAK-UHFFFAOYSA-N

>  <FORMULA>  (894) 
C12H10O

>  <EXACT MASS>  (894) 
170.07316494

>  <MW>  (894) 
170

>  <ID>  (894) 
JP010820

>  <CONTRIBUTOR>  (894) 
University of Tokyo Team, {Faculty of Engineering, University of Tokyo

>  <COMMENT>  (894) 
SMILES=Oc(c2)ccc(c2)c(c1)cccc1
InChI=InChI=1S/C12H10O/c13-12-8-6-11(7-9-12)10-4-2-1-3-5-10/h1-9,13H
computed SMILES=OC=1C=CC(=CC1)C=2C=CC=CC2
accession=JP010820
date=2016.01.19 (Created 2008.10.21, modified 2011.05.06)
author=FUJISE Y, HAMAMATSU UNIV. SCHOOL OF MEDICINE
license=CC BY-NC-SA
exact mass=170.07316
ionization energy=70 eV
ion type=[M]+*
computed spectral entropy=2.380251463476436
computed normalized entropy=0.6694847936995784
SPLASH=splash10-00di-2900000000-9ec8cd015770dba15957
submitter=submitter = University of Tokyo Team (Faculty of Engineering, University of Tokyo)
MoNA Rating=3.75

>  <NUM PEAKS>  (894) 
35

>  <MASS SPECTRAL PEAKS>  (894) 
44 1.63
50 1.53
51 2.94
55 3.53
57 2.09
58 1.21
62 1.46
63 3.83
65 1.54
70 1.97
71 1.08
72 3.46
74 1.01
75 1.54
76 3.26
77 2.12
84 4.5
85 10.36
86 1.4
89 1.98
102 1.24
115 10.24
116 1.44
139 4.23
140 1.19
141 13.7
142 2.08
151 1.48
152 1.88
153 1.36
168 2
169 7.78
170 99.99
171 13.29
172 1.08

$$$$

     RDKit          2D

 11 11  0  0  0  0  0  0  0  0999 V2000
    2.5989    1.5002    0.0000 C   0  0  0  0  0  0  0  0  0  0  0  0
    0.0000    1.5000    0.0000 C   0  0  0  0  0  0  0  0  0  0  0  0
    1.3000   -0.7500    0.0000 C   0  0  0  0  0  0  0  0  0  0  0  0
   -1.3000    0.7500    0.0000 C   0  0  0  0  0  0  0  0  0  0  0  0
   -0.0000   -1.5000    0.0000 C   0  0  0  0  0  0  0  0  0  0  0  0
    1.3000    0.7500    0.0000 C   0  0  0  0  0  0  0  0  0  0  0  0
   -1.3000   -0.7500    0.0000 C   0  0  0  0  0  0  0  0  0  0  0  0
   -3.3491   -0.2013    0.0000 N   0  0  0  0  0  0  0  0  0  0  0  0
   -3.8978   -2.2504    0.0000 O   0  0  0  0  0  0  0  0  0  0  0  0
   -1.8487   -2.7991    0.0000 O   0  0  0  0  0  0  0  0  0  0  0  0
   -2.5989   -1.5002    0.0000 S   0  0  0  0  0  0  0  0  0  0  0  0
  4  2  2  0
  5  3  1  0
  6  1  1  0
  6  2  1  0
  6  3  2  0
  7  4  1  0
  7  5  2  0
 11  7  1  0
 11  8  1  0
 11  9  2  0
 11 10  2  0
M  END
>  <NAME>  (895) 
PATA-TOLUENESULFONAMIDE

>  <SYNONYMS>  (895) 


>  <SPECTRUM TYPE>  (895) 
MS1

>  <INSTRUMENT TYPE>  (895) 
EI-B

>  <INSTRUMENT>  (895) 
JEOL JMS-D-3000

>  <ION MODE>  (895) 
P

>  <INCHIKEY>  (895) 
LMYRWZFENFIFIT-UHFFFAOYSA-N

>  <FORMULA>  (895) 
C7H9NO2S

>  <EXACT MASS>  (895) 
171.035399528

>  <MW>  (895) 
171

>  <ID>  (895) 
JP010819

>  <CONTRIBUTOR>  (895) 
University of Tokyo Team, {Faculty of Engineering, University of Tokyo

>  <COMMENT>  (895) 
SMILES=Cc(c1)ccc(c1)S(N)(=O)=O
InChI=InChI=1S/C7H9NO2S/c1-6-2-4-7(5-3-6)11(8,9)10/h2-5H,1H3,(H2,8,9,10)
computed SMILES=O=S(=O)(N)C1=CC=C(C=C1)C
accession=JP010819
date=2016.01.19 (Created 2008.10.21, modified 2011.05.06)
author=FUJISE Y, HAMAMATSU UNIV. SCHOOL OF MEDICINE
license=CC BY-NC-SA
exact mass=171.0354
ionization energy=70 eV
ion type=[M]+*
computed spectral entropy=2.4039059816956483
computed normalized entropy=0.7214160998687483
SPLASH=splash10-052f-9600000000-fdb31afc4222913bb280
submitter=submitter = University of Tokyo Team (Faculty of Engineering, University of Tokyo)
MoNA Rating=3.75

>  <NUM PEAKS>  (895) 
28

>  <MASS SPECTRAL PEAKS>  (895) 
41 2.81
44 4.66
50 2.91
51 4.31
52 1.41
53 1.03
62 2.12
63 6.56
64 3.09
65 21.56
66 1.28
77 3.31
78 1.24
79 1.9
89 5.69
90 3.2
91 99.99
92 8.31
106 3.71
107 15.03
108 12.86
109 1.07
155 39.15
156 3.43
157 2.05
171 45.54
172 4.28
173 2.4

$$$$

     RDKit          2D

 12 12  0  0  0  0  0  0  0  0999 V2000
    4.8670    0.9406    0.0000 C   0  0  0  0  0  0  0  0  0  0  0  0
   -1.6328    3.1878    0.0000 C   0  0  0  0  0  0  0  0  0  0  0  0
   -0.3300   -2.0600    0.0000 C   0  0  0  0  0  0  0  0  0  0  0  0
   -1.6200   -1.3100    0.0000 C   0  0  0  0  0  0  0  0  0  0  0  0
    0.9700   -1.3100    0.0000 C   0  0  0  0  0  0  0  0  0  0  0  0
   -1.6200    0.1900    0.0000 C   0  0  0  0  0  0  0  0  0  0  0  0
    3.5681    0.1904    0.0000 C   0  0  0  0  0  0  0  0  0  0  0  0
    0.9700    0.1900    0.0000 C   0  0  0  0  0  0  0  0  0  0  0  0
   -0.3300    0.9400    0.0000 C   0  0  0  0  0  0  0  0  0  0  0  0
    2.2689    0.9402    0.0000 N   0  0  0  0  0  0  0  0  0  0  0  0
    3.5683   -1.3096    0.0000 O   0  0  0  0  0  0  0  0  0  0  0  0
   -0.3325    2.4400    0.0000 O   0  0  0  0  0  0  0  0  0  0  0  0
  4  3  2  0
  5  3  1  0
  6  4  1  0
  7  1  1  0
  8  5  2  0
  9  6  2  0
  9  8  1  0
 10  7  2  3
 10  8  1  0
 11  7  1  0
 12  2  1  0
 12  9  1  0
M  END
>  <NAME>  (896) 
N-ACETYL-ORTHO-ANISIDINE

>  <SYNONYMS>  (896) 


>  <SPECTRUM TYPE>  (896) 
MS1

>  <INSTRUMENT TYPE>  (896) 
EI-B

>  <INSTRUMENT>  (896) 
JEOL JMS-D-3000

>  <ION MODE>  (896) 
P

>  <INCHIKEY>  (896) 
FGOFNVXHDGQVBG-UHFFFAOYSA-N

>  <FORMULA>  (896) 
C9H11NO2

>  <EXACT MASS>  (896) 
165.078978592

>  <MW>  (896) 
165

>  <ID>  (896) 
JP010818

>  <CONTRIBUTOR>  (896) 
University of Tokyo Team, {Faculty of Engineering, University of Tokyo

>  <COMMENT>  (896) 
SMILES=COc(c1)c(ccc1)NC(C)=O
InChI=InChI=1S/C9H11NO2/c1-7(11)10-8-5-3-4-6-9(8)12-2/h3-6H,1-2H3,(H,10,11)
computed SMILES=OC(=NC=1C=CC=CC1OC)C
accession=JP010818
date=2016.01.19 (Created 2008.10.21, modified 2011.05.06)
author=FUJISE Y, HAMAMATSU UNIV. SCHOOL OF MEDICINE
license=CC BY-NC-SA
exact mass=165.07898
ionization energy=70 eV
ion type=[M]+*
computed spectral entropy=2.473122097373733
computed normalized entropy=0.6956061838676036
SPLASH=splash10-0avi-4900000000-1590231552aa3f983e0c
submitter=submitter = University of Tokyo Team (Faculty of Engineering, University of Tokyo)
MoNA Rating=3.75

>  <NUM PEAKS>  (896) 
35

>  <MASS SPECTRAL PEAKS>  (896) 
42 2.62
43 33.72
50 2.62
51 6.78
52 11.69
53 5.65
57 1.03
62 1.06
63 3.57
64 2.74
65 10.78
66 1.58
77 3.63
78 3.57
79 2.53
80 22.84
81 1.67
91 1.4
92 6.1
93 2.56
94 1.95
95 1.95
105 1.19
106 1.06
108 99.99
109 7.26
120 1.34
122 1.28
123 89.18
124 7.45
133 1.86
134 1.25
149 1.89
165 63.5
166 6.5

$$$$

     RDKit          2D

 10 10  0  0  0  0  0  0  0  0999 V2000
    2.2395    2.4655    0.0000 C   0  0  0  0  0  0  0  0  0  0  0  0
    0.9362    3.2129    0.0000 C   0  0  0  0  0  0  0  0  0  0  0  0
    2.2656    0.9657    0.0000 C   0  0  0  0  0  0  0  0  0  0  0  0
   -0.3605    2.4401    0.0000 C   0  0  0  0  0  0  0  0  0  0  0  0
    0.9688    0.2030    0.0000 C   0  0  0  0  0  0  0  0  0  0  0  0
   -0.3343    0.9403    0.0000 C   0  0  0  0  0  0  0  0  0  0  0  0
    0.9813   -1.2970    0.0000 C   0  0  0  0  0  0  0  0  0  0  0  0
   -1.6234    0.1735    0.0000 Cl  0  0  0  0  0  0  0  0  0  0  0  0
   -0.3114   -2.0578    0.0000 O   0  0  0  0  0  0  0  0  0  0  0  0
    2.2865   -2.0361    0.0000 O   0  0  0  0  0  0  0  0  0  0  0  0
  2  1  2  0
  3  1  1  0
  4  2  1  0
  5  3  2  0
  6  4  2  0
  6  5  1  0
  7  5  1  0
  8  6  1  0
  9  7  2  0
 10  7  1  0
M  END
>  <NAME>  (897) 
2-CHLOROBENZOIC ACID

>  <SYNONYMS>  (897) 


>  <SPECTRUM TYPE>  (897) 
MS1

>  <INSTRUMENT TYPE>  (897) 
EI-B

>  <INSTRUMENT>  (897) 
JEOL JMS-D-3000

>  <ION MODE>  (897) 
P

>  <INCHIKEY>  (897) 
IKCLCGXPQILATA-UHFFFAOYSA-N

>  <FORMULA>  (897) 
C7H5ClO2

>  <EXACT MASS>  (897) 
155.99780708

>  <MW>  (897) 
156

>  <ID>  (897) 
JP010817

>  <CONTRIBUTOR>  (897) 
University of Tokyo Team, {Faculty of Engineering, University of Tokyo

>  <COMMENT>  (897) 
SMILES=OC(=O)c(c1)c(Cl)ccc1
InChI=InChI=1S/C7H5ClO2/c8-6-4-2-1-3-5(6)7(9)10/h1-4H,(H,9,10)
computed SMILES=O=C(O)C=1C=CC=CC1Cl
accession=JP010817
date=2016.01.19 (Created 2008.10.21, modified 2011.05.06)
author=FUJISE Y, HAMAMATSU UNIV. SCHOOL OF MEDICINE
license=CC BY-NC-SA
exact mass=155.99781
ionization energy=70 eV
ion type=[M]+*
computed spectral entropy=2.7253563488790427
computed normalized entropy=0.7492211123554638
SPLASH=splash10-052r-3900000000-12f9ddf1961e6ff14876
submitter=submitter = University of Tokyo Team (Faculty of Engineering, University of Tokyo)
MoNA Rating=3.75

>  <NUM PEAKS>  (897) 
38

>  <MASS SPECTRAL PEAKS>  (897) 
44 1.85
45 2.74
46 1.12
49 2.65
50 16.81
51 9.2
53 1.12
55 1.91
61 1.85
62 1.21
63 2.74
64 2.8
65 3.53
70 3.99
73 2.62
74 8.37
75 21.26
76 14.16
77 8.28
78 2.19
84 1.64
85 3.04
87 1.06
110 1.21
111 34.97
112 3.44
113 11.51
114 1.09
121 1.24
128 2.58
139 99.99
140 7.67
141 31.96
142 2.77
156 73.06
157 5.66
158 23.94
159 2.1

$$$$

     RDKit          2D

 11 11  0  0  0  0  0  0  0  0999 V2000
   -2.6024   -0.0089    0.0000 C   0  0  0  0  0  0  0  0  0  0  0  0
    5.1937   -0.0065    0.0000 C   0  0  0  0  0  0  0  0  0  0  0  0
    0.0015   -2.9989    0.0000 C   0  0  0  0  0  0  0  0  0  0  0  0
   -1.2976   -2.2489    0.0000 C   0  0  0  0  0  0  0  0  0  0  0  0
    1.2960   -2.2567    0.0000 C   0  0  0  0  0  0  0  0  0  0  0  0
   -0.0026   -0.0059    0.0000 C   0  0  0  0  0  0  0  0  0  0  0  0
   -1.3021   -0.7567    0.0000 C   0  0  0  0  0  0  0  0  0  0  0  0
    3.8946   -0.7563    0.0000 C   0  0  0  0  0  0  0  0  0  0  0  0
    1.2965   -0.7559    0.0000 C   0  0  0  0  0  0  0  0  0  0  0  0
    2.5956   -0.0061    0.0000 N   0  0  0  0  0  0  0  0  0  0  0  0
    3.8943   -2.2563    0.0000 O   0  0  0  0  0  0  0  0  0  0  0  0
  4  3  2  0
  5  3  1  0
  7  1  1  0
  7  4  1  0
  7  6  2  0
  8  2  1  0
  9  5  2  0
  9  6  1  0
 10  8  2  3
 10  9  1  0
 11  8  1  0
M  END
>  <NAME>  (898) 
N-ACETYL-META-TOLUIDINE

>  <SYNONYMS>  (898) 


>  <SPECTRUM TYPE>  (898) 
MS1

>  <INSTRUMENT TYPE>  (898) 
EI-B

>  <INSTRUMENT>  (898) 
JEOL JMS-D-3000

>  <ION MODE>  (898) 
P

>  <INCHIKEY>  (898) 
ALMHSXDYCFOZQD-UHFFFAOYSA-N

>  <FORMULA>  (898) 
C9H11NO

>  <EXACT MASS>  (898) 
149.084063972

>  <MW>  (898) 
149

>  <ID>  (898) 
JP010816

>  <CONTRIBUTOR>  (898) 
University of Tokyo Team, {Faculty of Engineering, University of Tokyo

>  <COMMENT>  (898) 
computed SMILES=OC(=NC1=CC=CC(=C1)C)C
SMILES=CC(=O)Nc(c1)cc(C)cc1
InChI=InChI=1S/C9H11NO/c1-7-4-3-5-9(6-7)10-8(2)11/h3-6H,1-2H3,(H,10,11)
accession=JP010816
date=2016.01.19 (Created 2008.10.21, modified 2011.05.06)
author=FUJISE Y, HAMAMATSU UNIV. SCHOOL OF MEDICINE
license=CC BY-NC-SA
exact mass=149.08406
ionization energy=70 eV
ion type=[M]+*
computed spectral entropy=2.033124579608014
computed normalized entropy=0.6677975351458755
SPLASH=splash10-0a4i-2900000000-cee4cfdfa2d602953d16
submitter=submitter = University of Tokyo Team (Faculty of Engineering, University of Tokyo)
MoNA Rating=3.75

>  <NUM PEAKS>  (898) 
21

>  <MASS SPECTRAL PEAKS>  (898) 
42 1.24
43 19.81
50 1.41
51 3.25
52 2.33
53 1.77
63 1.82
65 3.2
77 8.75
78 3.06
79 5.42
80 1.64
89 1
90 1.25
91 3.67
104 1.42
106 36.83
107 99.99
108 8.68
149 35.84
150 3.74

$$$$

     RDKit          2D

  8  8  0  0  0  0  0  0  0  0999 V2000
   -1.3000    0.7500    0.0000 C   0  0  0  0  0  0  0  0  0  0  0  0
   -0.0000   -1.5000    0.0000 C   0  0  0  0  0  0  0  0  0  0  0  0
    0.0000    1.5000    0.0000 C   0  0  0  0  0  0  0  0  0  0  0  0
    1.3000   -0.7500    0.0000 C   0  0  0  0  0  0  0  0  0  0  0  0
   -1.3000   -0.7500    0.0000 C   0  0  0  0  0  0  0  0  0  0  0  0
    1.3000    0.7500    0.0000 C   0  0  0  0  0  0  0  0  0  0  0  0
   -2.5989   -1.5002    0.0000 Cl  0  0  0  0  0  0  0  0  0  0  0  0
    2.5989    1.5002    0.0000 N   0  0  0  0  0  0  0  0  0  0  0  0
  3  1  2  0
  4  2  1  0
  5  1  1  0
  5  2  2  0
  6  3  1  0
  6  4  2  0
  7  5  1  0
  8  6  1  0
M  END
>  <NAME>  (899) 
4-CHLOROANILINE

>  <SYNONYMS>  (899) 


>  <SPECTRUM TYPE>  (899) 
MS1

>  <INSTRUMENT TYPE>  (899) 
EI-B

>  <INSTRUMENT>  (899) 
JEOL JMS-D-3000

>  <ION MODE>  (899) 
P

>  <INCHIKEY>  (899) 
QSNSCYSYFYORTR-UHFFFAOYSA-N

>  <FORMULA>  (899) 
C6H6ClN

>  <EXACT MASS>  (899) 
127.01887687199999

>  <MW>  (899) 
127

>  <ID>  (899) 
JP010815

>  <CONTRIBUTOR>  (899) 
University of Tokyo Team, {Faculty of Engineering, University of Tokyo

>  <COMMENT>  (899) 
SMILES=Nc(c1)ccc(Cl)c1
InChI=InChI=1S/C6H6ClN/c7-5-1-3-6(8)4-2-5/h1-4H,8H2
computed SMILES=ClC1=CC=C(N)C=C1
accession=JP010815
date=2016.01.19 (Created 2008.10.21, modified 2011.05.06)
author=FUJISE Y, HAMAMATSU UNIV. SCHOOL OF MEDICINE
license=CC BY-NC-SA
exact mass=127.01888
ionization energy=70 eV
ion type=[M]+*
computed spectral entropy=2.611743508414563
computed normalized entropy=0.7345957310633734
SPLASH=splash10-004i-7900000000-01a4e06910b90b1459ba
submitter=submitter = University of Tokyo Team (Faculty of Engineering, University of Tokyo)
MoNA Rating=3.75

>  <NUM PEAKS>  (899) 
35

>  <MASS SPECTRAL PEAKS>  (899) 
42 4.77
43 1.15
46 9.19
47 1.73
50 2.31
51 1.89
52 2.78
55 1.15
57 1.57
61 3.36
62 4.46
63 10.45
64 6.03
65 23.1
66 2.83
67 1.68
71 1.78
73 3.67
74 1.36
75 2.25
78 5.98
83 1.31
90 1.41
91 4.98
92 16.64
93 1.26
99 6.77
100 8.5
101 2.46
102 2.67
126 1.83
127 99.99
128 7.72
129 33.14
130 2.15

$$$$

     RDKit          2D

 13 14  0  0  0  0  0  0  0  0999 V2000
    4.8381    0.6104    0.0000 C   0  0  0  0  0  0  0  0  0  0  0  0
   -2.9500   -0.8900    0.0000 C   0  0  0  0  0  0  0  0  0  0  0  0
   -2.9500    0.6100    0.0000 C   0  0  0  0  0  0  0  0  0  0  0  0
   -1.6500   -1.6400    0.0000 C   0  0  0  0  0  0  0  0  0  0  0  0
   -1.6500    1.3600    0.0000 C   0  0  0  0  0  0  0  0  0  0  0  0
    0.9400   -1.6400    0.0000 C   0  0  0  0  0  0  0  0  0  0  0  0
    2.2400   -0.8900    0.0000 C   0  0  0  0  0  0  0  0  0  0  0  0
    0.9400    1.3600    0.0000 C   0  0  0  0  0  0  0  0  0  0  0  0
    3.5389    1.3602    0.0000 C   0  0  0  0  0  0  0  0  0  0  0  0
   -0.3500   -0.8900    0.0000 C   0  0  0  0  0  0  0  0  0  0  0  0
    2.2400    0.6100    0.0000 C   0  0  0  0  0  0  0  0  0  0  0  0
   -0.3500    0.6100    0.0000 C   0  0  0  0  0  0  0  0  0  0  0  0
    3.5387    2.8602    0.0000 O   0  0  0  0  0  0  0  0  0  0  0  0
  3  2  2  0
  4  2  1  0
  5  3  1  0
  7  6  2  0
  9  1  1  0
 10  4  2  0
 10  6  1  0
 11  7  1  0
 11  8  2  0
 11  9  1  0
 12  5  2  0
 12  8  1  0
 12 10  1  0
 13  9  2  0
M  END
>  <NAME>  (900) 
2'-ACETONAPHTHONE

>  <SYNONYMS>  (900) 


>  <SPECTRUM TYPE>  (900) 
MS1

>  <INSTRUMENT TYPE>  (900) 
EI-B

>  <INSTRUMENT>  (900) 
JEOL JMS-D-3000

>  <ION MODE>  (900) 
P

>  <INCHIKEY>  (900) 
XSAYZAUNJMRRIR-UHFFFAOYSA-N

>  <FORMULA>  (900) 
C12H10O

>  <EXACT MASS>  (900) 
170.07316494

>  <MW>  (900) 
170

>  <ID>  (900) 
JP010814

>  <CONTRIBUTOR>  (900) 
University of Tokyo Team, {Faculty of Engineering, University of Tokyo

>  <COMMENT>  (900) 
SMILES=CC(=O)c(c1)cc(c2)c(ccc2)c1
InChI=InChI=1S/C12H10O/c1-9(13)11-7-6-10-4-2-3-5-12(10)8-11/h2-8H,1H3
computed SMILES=O=C(C=1C=CC=2C=CC=CC2C1)C
accession=JP010814
date=2016.01.19 (Created 2008.10.21, modified 2011.05.06)
author=FUJISE Y, HAMAMATSU UNIV. SCHOOL OF MEDICINE
license=CC BY-NC-SA
exact mass=170.07316
ionization energy=70 eV
ion type=[M]+*
computed spectral entropy=2.3251309985700828
computed normalized entropy=0.6977755991476735
SPLASH=splash10-0adi-2900000000-c2013c45db067d46a2ed
submitter=submitter = University of Tokyo Team (Faculty of Engineering, University of Tokyo)
MoNA Rating=3.75

>  <NUM PEAKS>  (900) 
28

>  <MASS SPECTRAL PEAKS>  (900) 
43 8.42
50 3.4
51 5.23
57 1.37
62 1.97
63 11.29
64 1.68
71 1.3
74 3.83
75 5.98
76 3.36
77 9.84
78 5.27
87 1.68
98 1.14
99 1.03
101 5.57
102 1.11
115 1.87
126 11.6
127 84.22
128 11.26
139 1.36
141 1.2
155 99.99
156 12.28
170 56.17
171 7.75

$$$$

     RDKit          2D

 14 16  0  0  0  0  0  0  0  0999 V2000
    3.0600    2.2000    0.0000 C   0  0  0  0  0  0  0  0  0  0  0  0
   -3.4300   -1.5500    0.0000 C   0  0  0  0  0  0  0  0  0  0  0  0
    1.7600    2.9500    0.0000 C   0  0  0  0  0  0  0  0  0  0  0  0
   -3.4300   -0.0500    0.0000 C   0  0  0  0  0  0  0  0  0  0  0  0
    3.0600    0.7000    0.0000 C   0  0  0  0  0  0  0  0  0  0  0  0
   -2.1300   -2.3000    0.0000 C   0  0  0  0  0  0  0  0  0  0  0  0
    0.4600    2.2000    0.0000 C   0  0  0  0  0  0  0  0  0  0  0  0
   -2.1300    0.7000    0.0000 C   0  0  0  0  0  0  0  0  0  0  0  0
    1.7600   -1.5500    0.0000 C   0  0  0  0  0  0  0  0  0  0  0  0
    0.4600   -2.3000    0.0000 C   0  0  0  0  0  0  0  0  0  0  0  0
    1.7600   -0.0500    0.0000 C   0  0  0  0  0  0  0  0  0  0  0  0
   -0.8300   -1.5500    0.0000 C   0  0  0  0  0  0  0  0  0  0  0  0
    0.4600    0.7000    0.0000 C   0  0  0  0  0  0  0  0  0  0  0  0
   -0.8300   -0.0500    0.0000 C   0  0  0  0  0  0  0  0  0  0  0  0
  3  1  2  0
  4  2  2  0
  5  1  1  0
  6  2  1  0
  7  3  1  0
  8  4  1  0
 10  9  2  0
 11  5  2  0
 11  9  1  0
 12  6  2  0
 12 10  1  0
 13  7  2  0
 13 11  1  0
 14  8  2  0
 14 12  1  0
 14 13  1  0
M  END
>  <NAME>  (901) 
PHENANTHRENE

>  <SYNONYMS>  (901) 


>  <SPECTRUM TYPE>  (901) 
MS1

>  <INSTRUMENT TYPE>  (901) 
EI-B

>  <INSTRUMENT>  (901) 
JEOL JMS-D-3000

>  <ION MODE>  (901) 
P

>  <INCHIKEY>  (901) 
YNPNZTXNASCQKK-UHFFFAOYSA-N

>  <FORMULA>  (901) 
C14H10

>  <EXACT MASS>  (901) 
178.07825032

>  <MW>  (901) 
178

>  <ID>  (901) 
JP010813

>  <CONTRIBUTOR>  (901) 
University of Tokyo Team, {Faculty of Engineering, University of Tokyo

>  <COMMENT>  (901) 
SMILES=c(c3)cc(c1)c(c3)c(c2)c(ccc2)c1
InChI=InChI=1S/C14H10/c1-3-7-13-11(5-1)9-10-12-6-2-4-8-14(12)13/h1-10H
computed SMILES=C=1C=CC2=C(C1)C=CC=3C=CC=CC32
accession=JP010813
date=2016.01.19 (Created 2008.10.21, modified 2011.05.06)
author=FUJISE Y, HAMAMATSU UNIV. SCHOOL OF MEDICINE
license=CC BY-NC-SA
exact mass=178.07825
ionization energy=70 eV
ion type=[M]+*
computed spectral entropy=2.146678968898407
computed normalized entropy=0.6944838193878932
SPLASH=splash10-004i-3900000000-2f361f4cb19325d97e63
submitter=submitter = University of Tokyo Team (Faculty of Engineering, University of Tokyo)
MoNA Rating=3.75

>  <NUM PEAKS>  (901) 
22

>  <MASS SPECTRAL PEAKS>  (901) 
51 1.15
62 1.12
63 3.67
74 1.57
75 4.75
76 16.54
87 2.17
88 12.31
89 16.44
126 1.12
139 1.05
150 3.73
151 6.6
152 6.45
174 1.62
175 2.22
176 15.32
177 9.08
178 99.99
179 15.92
180 1.34
184 1.24

$$$$

     RDKit          2D

  9  9  0  0  0  0  0  0  0  0999 V2000
    3.5281    0.5402    0.0000 C   0  0  0  0  0  0  0  0  0  0  0  0
    2.2281   -0.2098    0.0000 C   0  0  0  0  0  0  0  0  0  0  0  0
    3.5281    2.0402    0.0000 C   0  0  0  0  0  0  0  0  0  0  0  0
    0.9281    2.0402    0.0000 C   0  0  0  0  0  0  0  0  0  0  0  0
    0.9281    0.5402    0.0000 C   0  0  0  0  0  0  0  0  0  0  0  0
   -0.3708   -0.2100    0.0000 C   0  0  0  0  0  0  0  0  0  0  0  0
   -1.6700    0.5398    0.0000 N   0  0  0  0  0  0  0  0  0  0  0  0
    2.2281    2.7902    0.0000 N   0  0  0  0  0  0  0  0  0  0  0  0
   -0.3706   -1.7100    0.0000 O   0  0  0  0  0  0  0  0  0  0  0  0
  2  1  2  0
  3  1  1  0
  5  2  1  0
  5  4  2  0
  6  5  1  0
  7  6  2  0
  8  3  2  0
  8  4  1  0
  9  6  1  0
M  END
>  <NAME>  (902) 
NICOTINAMIDE

>  <SYNONYMS>  (902) 


>  <SPECTRUM TYPE>  (902) 
MS1

>  <INSTRUMENT TYPE>  (902) 
EI-B

>  <INSTRUMENT>  (902) 
JEOL JMS-D-3000

>  <ION MODE>  (902) 
P

>  <INCHIKEY>  (902) 
DFPAKSUCGFBDDF-UHFFFAOYSA-N

>  <FORMULA>  (902) 
C6H6N2O

>  <EXACT MASS>  (902) 
122.048012812

>  <MW>  (902) 
122

>  <ID>  (902) 
JP010812

>  <CONTRIBUTOR>  (902) 
University of Tokyo Team, {Faculty of Engineering, University of Tokyo

>  <COMMENT>  (902) 
SMILES=NC(=O)c(c1)cncc1
InChI=InChI=1S/C6H6N2O/c7-6(9)5-2-1-3-8-4-5/h1-4H,(H2,7,9)
computed SMILES=N=C(O)C=1C=NC=CC1
accession=JP010812
date=2016.01.19 (Created 2008.10.21, modified 2011.05.06)
author=FUJISE Y, HAMAMATSU UNIV. SCHOOL OF MEDICINE
license=CC BY-NC-SA
exact mass=122.04801
ionization energy=70 eV
ion type=[M]+*
computed spectral entropy=2.235790494748603
computed normalized entropy=0.7735304251574835
SPLASH=splash10-0kor-9800000000-c4a5ff5285417499eff8
submitter=submitter = University of Tokyo Team (Faculty of Engineering, University of Tokyo)
MoNA Rating=3.75

>  <NUM PEAKS>  (902) 
18

>  <MASS SPECTRAL PEAKS>  (902) 
44 11.88
49 2.97
50 17.02
51 39.81
52 16.8
53 3.77
75 2.15
76 3.61
77 10.48
78 79.94
79 9.07
94 3.16
104 7.86
105 7.93
106 66.13
107 4.6
122 99.99
123 7.6

$$$$

     RDKit          2D

 10 10  0  0  0  0  0  0  0  0999 V2000
    0.0005   -3.7506    0.0000 C   0  0  0  0  0  0  0  0  0  0  0  0
   -1.2990   -2.9998    0.0000 C   0  0  0  0  0  0  0  0  0  0  0  0
    1.2995   -3.0006    0.0000 C   0  0  0  0  0  0  0  0  0  0  0  0
   -0.0005   -0.7490    0.0000 C   0  0  0  0  0  0  0  0  0  0  0  0
   -1.2995   -1.4990    0.0000 C   0  0  0  0  0  0  0  0  0  0  0  0
    1.2990   -1.4998    0.0000 C   0  0  0  0  0  0  0  0  0  0  0  0
   -2.5987   -0.7492    0.0000 N   0  0  0  0  0  0  0  0  0  0  0  0
    2.5981   -0.7498    0.0000 N   0  0  0  0  0  0  0  0  0  0  0  0
    3.8971   -1.4998    0.0000 O   0  0  0  0  0  0  0  0  0  0  0  0
    2.5981    0.7502    0.0000 O   0  0  0  0  0  0  0  0  0  0  0  0
  2  1  2  0
  3  1  1  0
  5  2  1  0
  5  4  2  0
  6  3  2  0
  6  4  1  0
  7  5  1  0
  8  6  1  0
  9  8  1  0
 10  8  2  0
M  CHG  2   8   1   9  -1
M  END
>  <NAME>  (903) 
3-NITROANILINE

>  <SYNONYMS>  (903) 


>  <SPECTRUM TYPE>  (903) 
MS1

>  <INSTRUMENT TYPE>  (903) 
EI-B

>  <INSTRUMENT>  (903) 
JEOL JMS-D-3000

>  <ION MODE>  (903) 
P

>  <INCHIKEY>  (903) 
XJCVRTZCHMZPBD-UHFFFAOYSA-N

>  <FORMULA>  (903) 
C6H6N2O2

>  <EXACT MASS>  (903) 
138.042927432

>  <MW>  (903) 
138

>  <ID>  (903) 
JP010811

>  <CONTRIBUTOR>  (903) 
University of Tokyo Team, {Faculty of Engineering, University of Tokyo

>  <COMMENT>  (903) 
InChI=InChI=1S/C6H6N2O2/c7-5-2-1-3-6(4-5)8(9)10/h1-4H,7H2
SMILES=Nc(c1)cc(cc1)[N+1]([O-1])=O
computed SMILES=O=N(=O)C=1C=CC=C(N)C1
accession=JP010811
date=2016.01.19 (Created 2008.10.21, modified 2011.05.06)
author=FUJISE Y, HAMAMATSU UNIV. SCHOOL OF MEDICINE
license=CC BY-NC-SA
exact mass=138.04293
ionization energy=70 eV
ion type=[M]+*
computed spectral entropy=2.239569949282928
computed normalized entropy=0.6720985889203943
SPLASH=splash10-014u-9300000000-ac1a367b8b61543933d6
submitter=submitter = University of Tokyo Team (Faculty of Engineering, University of Tokyo)
MoNA Rating=3.75

>  <NUM PEAKS>  (903) 
28

>  <MASS SPECTRAL PEAKS>  (903) 
42 6.75
43 2.22
44 1.62
50 2.63
51 3.03
52 8.71
53 4.15
54 2.22
61 1.93
62 3.86
63 9.88
64 8.5
65 91.16
66 11.42
74 1.21
75 1.04
78 1.41
79 1.35
80 10.28
81 1.02
90 1.45
91 4.91
92 99.99
93 7.92
108 7.91
122 2.03
138 88.47
139 7.04

$$$$

     RDKit          2D

 14 15  0  0  0  0  0  0  0  0999 V2000
   -2.7200   -1.0200    0.0000 C   0  0  0  0  0  0  0  0  0  0  0  0
   -2.7200    0.4800    0.0000 C   0  0  0  0  0  0  0  0  0  0  0  0
    2.4800   -1.0200    0.0000 C   0  0  0  0  0  0  0  0  0  0  0  0
   -1.4200   -1.7700    0.0000 C   0  0  0  0  0  0  0  0  0  0  0  0
    1.1800   -1.7700    0.0000 C   0  0  0  0  0  0  0  0  0  0  0  0
    2.4800    0.4800    0.0000 C   0  0  0  0  0  0  0  0  0  0  0  0
   -1.4200    1.2300    0.0000 C   0  0  0  0  0  0  0  0  0  0  0  0
    1.1800    2.7300    0.0000 C   0  0  0  0  0  0  0  0  0  0  0  0
   -0.1200   -1.0200    0.0000 C   0  0  0  0  0  0  0  0  0  0  0  0
    1.1800    1.2300    0.0000 C   0  0  0  0  0  0  0  0  0  0  0  0
   -0.1200    0.4800    0.0000 C   0  0  0  0  0  0  0  0  0  0  0  0
    2.4790    3.4800    0.0000 C   0  0  0  0  0  0  0  0  0  0  0  0
    3.7781    2.7300    0.0000 O   0  0  0  0  0  0  0  0  0  0  0  0
    2.4790    4.9800    0.0000 O   0  0  0  0  0  0  0  0  0  0  0  0
  2  1  2  0
  4  1  1  0
  5  3  2  0
  6  3  1  0
  7  2  1  0
  9  4  2  0
  9  5  1  0
 10  6  2  0
 10  8  1  0
 11  7  2  0
 11  9  1  0
 11 10  1  0
 12  8  1  0
 13 12  2  0
 14 12  1  0
M  END
>  <NAME>  (904) 
1-NAPHTHALENEACETIC ACID

>  <SYNONYMS>  (904) 


>  <SPECTRUM TYPE>  (904) 
MS1

>  <INSTRUMENT TYPE>  (904) 
EI-B

>  <INSTRUMENT>  (904) 
JEOL JMS-D-3000

>  <ION MODE>  (904) 
P

>  <INCHIKEY>  (904) 
PRPINYUDVPFIRX-UHFFFAOYSA-N

>  <FORMULA>  (904) 
C12H10O2

>  <EXACT MASS>  (904) 
186.06807956

>  <MW>  (904) 
186

>  <ID>  (904) 
JP010810

>  <CONTRIBUTOR>  (904) 
University of Tokyo Team, {Faculty of Engineering, University of Tokyo

>  <COMMENT>  (904) 
SMILES=OC(=O)Cc(c1)c(c2)c(ccc2)cc1
InChI=InChI=1S/C12H10O2/c13-12(14)8-10-6-3-5-9-4-1-2-7-11(9)10/h1-7H,8H2,(H,13,14)
computed SMILES=O=C(O)CC1=CC=CC=2C=CC=CC21
accession=JP010810
date=2016.01.19 (Created 2008.10.21, modified 2011.05.06)
author=FUJISE Y, HAMAMATSU UNIV. SCHOOL OF MEDICINE
license=CC BY-NC-SA
exact mass=186.06808
ionization energy=70 eV
ion type=[M]+*
computed spectral entropy=2.2360617007586963
computed normalized entropy=0.6451910253612625
SPLASH=splash10-0006-1900000000-782f3a027c45e64394b3
submitter=submitter = University of Tokyo Team (Faculty of Engineering, University of Tokyo)
MoNA Rating=3.75

>  <NUM PEAKS>  (904) 
32

>  <MASS SPECTRAL PEAKS>  (904) 
44 7.8
45 1.06
50 1.52
51 2.07
57 3.77
62 1.33
63 3.77
64 1.12
65 1.42
70 1.88
71 2.25
74 1.38
75 1.58
77 1.41
87 1.4
89 2.22
91 1.14
113 1.35
114 1.13
115 17.29
116 1.8
127 1.66
128 2.13
129 1.02
139 8.3
140 3.29
141 99.99
142 14.56
143 1.14
156 1.13
186 39.58
187 5.43

$$$$

     RDKit          2D

 14 15  0  0  0  0  0  0  0  0999 V2000
   -2.9500   -0.8900    0.0000 C   0  0  0  0  0  0  0  0  0  0  0  0
   -2.9500    0.6100    0.0000 C   0  0  0  0  0  0  0  0  0  0  0  0
   -1.6500   -1.6400    0.0000 C   0  0  0  0  0  0  0  0  0  0  0  0
   -1.6500    1.3600    0.0000 C   0  0  0  0  0  0  0  0  0  0  0  0
    2.2400   -0.8900    0.0000 C   0  0  0  0  0  0  0  0  0  0  0  0
    0.9400   -1.6400    0.0000 C   0  0  0  0  0  0  0  0  0  0  0  0
    0.9400    1.3600    0.0000 C   0  0  0  0  0  0  0  0  0  0  0  0
    3.5389    1.3602    0.0000 C   0  0  0  0  0  0  0  0  0  0  0  0
    2.2400    0.6100    0.0000 C   0  0  0  0  0  0  0  0  0  0  0  0
   -0.3500   -0.8900    0.0000 C   0  0  0  0  0  0  0  0  0  0  0  0
   -0.3500    0.6100    0.0000 C   0  0  0  0  0  0  0  0  0  0  0  0
    4.8381    0.6104    0.0000 C   0  0  0  0  0  0  0  0  0  0  0  0
    4.8383   -0.8896    0.0000 O   0  0  0  0  0  0  0  0  0  0  0  0
    6.1370    1.3606    0.0000 O   0  0  0  0  0  0  0  0  0  0  0  0
  2  1  2  0
  3  1  1  0
  4  2  1  0
  6  5  2  0
  9  5  1  0
  9  7  2  0
  9  8  1  0
 10  3  2  0
 10  6  1  0
 11  4  2  0
 11  7  1  0
 11 10  1  0
 12  8  1  0
 13 12  2  0
 14 12  1  0
M  END
>  <NAME>  (905) 
2-NATHTHALENEACETIC ACID

>  <SYNONYMS>  (905) 


>  <SPECTRUM TYPE>  (905) 
MS1

>  <INSTRUMENT TYPE>  (905) 
EI-B

>  <INSTRUMENT>  (905) 
JEOL JMS-D-3000

>  <ION MODE>  (905) 
P

>  <INCHIKEY>  (905) 
VIBOGIYPPWLDTI-UHFFFAOYSA-N

>  <FORMULA>  (905) 
C12H10O2

>  <EXACT MASS>  (905) 
186.06807956

>  <MW>  (905) 
186

>  <ID>  (905) 
JP010809

>  <CONTRIBUTOR>  (905) 
University of Tokyo Team, {Faculty of Engineering, University of Tokyo

>  <COMMENT>  (905) 
SMILES=OC(=O)Cc(c1)cc(c2)c(ccc2)c1
InChI=InChI=1S/C12H10O2/c13-12(14)8-9-5-6-10-3-1-2-4-11(10)7-9/h1-7H,8H2,(H,13,14)
computed SMILES=O=C(O)CC=1C=CC=2C=CC=CC2C1
accession=JP010809
date=2016.01.19 (Created 2008.10.21, modified 2011.05.06)
author=FUJISE Y, HAMAMATSU UNIV. SCHOOL OF MEDICINE
license=CC BY-NC-SA
exact mass=186.06808
ionization energy=70 eV
ion type=[M]+*
computed spectral entropy=1.5737171823968863
computed normalized entropy=0.5554531167581783
SPLASH=splash10-0006-0900000000-f70a7bef841d7a245559
submitter=submitter = University of Tokyo Team (Faculty of Engineering, University of Tokyo)
MoNA Rating=3.75

>  <NUM PEAKS>  (905) 
17

>  <MASS SPECTRAL PEAKS>  (905) 
51 1.22
62 1.68
63 4.09
65 1.73
78 1.22
89 2.57
109 1.2
114 1.09
115 17.51
116 4.29
124 2.19
127 1.24
143 1.09
144 99.99
145 11.29
186 12.23
187 1.62

$$$$

     RDKit          2D

  7  6  0  0  0  0  0  0  0  0999 V2000
    1.6238    1.6875    0.0000 C   0  0  0  0  0  0  0  0  0  0  0  0
    0.3248    2.4375    0.0000 C   0  0  0  0  0  0  0  0  0  0  0  0
   -2.2733    2.4375    0.0000 C   0  0  0  0  0  0  0  0  0  0  0  0
   -3.5724    1.6875    0.0000 N   0  0  0  0  0  0  0  0  0  0  0  0
   -0.9743    1.6875    0.0000 N   0  0  0  0  0  0  0  0  0  0  0  0
    0.3248    3.9375    0.0000 O   0  0  0  0  0  0  0  0  0  0  0  0
   -2.2733    3.9375    0.0000 S   0  0  0  0  0  0  0  0  0  0  0  0
  2  1  1  0
  4  3  2  0
  5  2  2  3
  5  3  1  0
  6  2  1  0
  7  3  1  0
M  END
>  <NAME>  (906) 
1-ACETYLTHIOUREA

>  <SYNONYMS>  (906) 


>  <SPECTRUM TYPE>  (906) 
MS1

>  <INSTRUMENT TYPE>  (906) 
EI-B

>  <INSTRUMENT>  (906) 
JEOL JMS-D-3000

>  <ION MODE>  (906) 
P

>  <INCHIKEY>  (906) 
IPCRBOOJBPETMF-UHFFFAOYSA-N

>  <FORMULA>  (906) 
C3H6N2OS

>  <EXACT MASS>  (906) 
118.020083812

>  <MW>  (906) 
118

>  <ID>  (906) 
JP010808

>  <CONTRIBUTOR>  (906) 
University of Tokyo Team, {Faculty of Engineering, University of Tokyo

>  <COMMENT>  (906) 
SMILES=CC(=O)NC(N)=S
InChI=InChI=1S/C3H6N2OS/c1-2(6)5-3(4)7/h1H3,(H3,4,5,6,7)
computed SMILES=N=C(S)N=C(O)C
accession=JP010808
computed normalized entropy=0.6499099431616533
date=2016.01.19 (Created 2008.10.21, modified 2011.05.06)
author=FUJISE Y, HAMAMATSU UNIV. SCHOOL OF MEDICINE
license=CC BY-NC-SA
exact mass=118.02008
ionization energy=70 eV
ion type=[M]+*
computed spectral entropy=1.9136201695930177
SPLASH=splash10-00kf-9400000000-c684d4a569af16b008ee
submitter=submitter = University of Tokyo Team (Faculty of Engineering, University of Tokyo)
MoNA Rating=3.75

>  <NUM PEAKS>  (906) 
19

>  <MASS SPECTRAL PEAKS>  (906) 
41 2.4
42 10.11
43 99.99
44 7.2
47 1.77
48 2.47
58 1.33
59 7.15
60 14.66
63 1.19
64 1.51
75 3.03
76 53.72
77 1.95
78 3.44
90 2.64
118 90.97
119 4.68
120 4.49

$$$$

     RDKit          2D

  8  8  0  0  0  0  0  0  0  0999 V2000
   -0.0000   -1.8800    0.0000 C   0  0  0  0  0  0  0  0  0  0  0  0
    1.3000   -1.1200    0.0000 C   0  0  0  0  0  0  0  0  0  0  0  0
   -1.3000   -1.1200    0.0000 C   0  0  0  0  0  0  0  0  0  0  0  0
   -0.0000    1.1200    0.0000 C   0  0  0  0  0  0  0  0  0  0  0  0
    1.3000    0.3800    0.0000 C   0  0  0  0  0  0  0  0  0  0  0  0
   -1.3000    0.3800    0.0000 C   0  0  0  0  0  0  0  0  0  0  0  0
    2.5967    1.1340    0.0000 N   0  0  0  0  0  0  0  0  0  0  0  0
   -2.5967    1.1340    0.0000 O   0  0  0  0  0  0  0  0  0  0  0  0
  2  1  2  0
  3  1  1  0
  5  2  1  0
  5  4  2  0
  6  3  2  0
  6  4  1  0
  7  5  1  0
  8  6  1  0
M  END
>  <NAME>  (907) 
3-AMINOPHENOL

>  <SYNONYMS>  (907) 


>  <SPECTRUM TYPE>  (907) 
MS1

>  <INSTRUMENT TYPE>  (907) 
EI-B

>  <INSTRUMENT>  (907) 
JEOL JMS-D-3000

>  <ION MODE>  (907) 
P

>  <INCHIKEY>  (907) 
CWLKGDAVCFYWJK-UHFFFAOYSA-N

>  <FORMULA>  (907) 
C6H7NO

>  <EXACT MASS>  (907) 
109.052763844

>  <MW>  (907) 
109

>  <ID>  (907) 
JP010807

>  <CONTRIBUTOR>  (907) 
University of Tokyo Team, {Faculty of Engineering, University of Tokyo

>  <COMMENT>  (907) 
SMILES=Nc(c1)cc(O)cc1
InChI=InChI=1S/C6H7NO/c7-5-2-1-3-6(8)4-5/h1-4,8H,7H2
computed SMILES=OC1=CC=CC(N)=C1
accession=JP010807
date=2016.01.19 (Created 2008.10.21, modified 2011.05.06)
author=FUJISE Y, HAMAMATSU UNIV. SCHOOL OF MEDICINE
license=CC BY-NC-SA
exact mass=109.05276
ionization energy=70 eV
ion type=[M]+*
computed spectral entropy=2.074819399659937
computed normalized entropy=0.661720053291535
SPLASH=splash10-0a4i-6900000000-157213396155bbbe6084
submitter=submitter = University of Tokyo Team (Faculty of Engineering, University of Tokyo)
MoNA Rating=3.75

>  <NUM PEAKS>  (907) 
23

>  <MASS SPECTRAL PEAKS>  (907) 
41 3.7
42 1.93
44 3.55
50 1.59
51 2.38
52 3.68
53 6.55
54 7.07
55 1.92
62 1.23
63 3
64 3.39
65 2.63
66 1.5
68 3.84
69 1.4
80 20.93
81 9.48
82 4.35
91 2.04
108 4.82
109 99.99
110 7.34

$$$$

     RDKit          2D

  7  7  0  0  0  0  0  0  0  0999 V2000
   -0.0000    1.5000    0.0000 C   0  0  0  0  0  0  0  0  0  0  0  0
   -1.3000    0.7500    0.0000 C   0  0  0  0  0  0  0  0  0  0  0  0
    1.3000    0.7500    0.0000 C   0  0  0  0  0  0  0  0  0  0  0  0
   -1.3000   -0.7500    0.0000 C   0  0  0  0  0  0  0  0  0  0  0  0
    1.3000   -0.7500    0.0000 C   0  0  0  0  0  0  0  0  0  0  0  0
    2.5989   -1.5002    0.0000 N   0  0  0  0  0  0  0  0  0  0  0  0
   -0.0000   -1.5000    0.0000 N   0  0  0  0  0  0  0  0  0  0  0  0
  2  1  2  0
  3  1  1  0
  4  2  1  0
  5  3  2  0
  6  5  1  0
  7  4  2  0
  7  5  1  0
M  END
>  <NAME>  (908) 
2-AMINOPYRIDINE

>  <SYNONYMS>  (908) 


>  <SPECTRUM TYPE>  (908) 
MS1

>  <INSTRUMENT TYPE>  (908) 
EI-B

>  <INSTRUMENT>  (908) 
JEOL JMS-D-3000

>  <ION MODE>  (908) 
P

>  <INCHIKEY>  (908) 
ICSNLGPSRYBMBD-UHFFFAOYSA-N

>  <FORMULA>  (908) 
C5H6N2

>  <EXACT MASS>  (908) 
94.053098192

>  <MW>  (908) 
94

>  <ID>  (908) 
JP010806

>  <CONTRIBUTOR>  (908) 
University of Tokyo Team, {Faculty of Engineering, University of Tokyo

>  <COMMENT>  (908) 
SMILES=Nc(c1)nccc1
InChI=InChI=1S/C5H6N2/c6-5-3-1-2-4-7-5/h1-4H,(H2,6,7)
computed SMILES=N=1C=CC=CC1N
accession=JP010806
date=2016.01.19 (Created 2008.10.21, modified 2011.05.06)
author=FUJISE Y, HAMAMATSU UNIV. SCHOOL OF MEDICINE
license=CC BY-NC-SA
exact mass=94.0531
ionization energy=70 eV
ion type=[M]+*
computed spectral entropy=2.006813987221148
computed normalized entropy=0.6400311558624462
SPLASH=splash10-00kf-9000000000-89dd08c73f6505375d7a
submitter=submitter = University of Tokyo Team (Faculty of Engineering, University of Tokyo)
MoNA Rating=3.75

>  <NUM PEAKS>  (908) 
23

>  <MASS SPECTRAL PEAKS>  (908) 
41 14.35
42 1.78
43 1.88
44 1.09
47 5.13
50 3.41
51 5.6
52 3.57
53 1.02
54 1.35
57 1.02
62 1.32
63 3.44
64 1.52
65 2.12
66 10.77
67 49.02
68 3.28
78 3.84
92 1.12
93 4.97
94 99.99
95 6.52

$$$$

     RDKit          2D

 13 13  0  0  0  0  0  0  0  0999 V2000
   -5.8454    3.6946    0.0000 C   0  0  0  0  0  0  0  0  0  0  0  0
    3.2478    1.4446    0.0000 C   0  0  0  0  0  0  0  0  0  0  0  0
    1.9483    0.6938    0.0000 C   0  0  0  0  0  0  0  0  0  0  0  0
    3.2483    2.9454    0.0000 C   0  0  0  0  0  0  0  0  0  0  0  0
    0.6493    1.4438    0.0000 C   0  0  0  0  0  0  0  0  0  0  0  0
    1.9493    3.6954    0.0000 C   0  0  0  0  0  0  0  0  0  0  0  0
   -3.2474    3.6946    0.0000 C   0  0  0  0  0  0  0  0  0  0  0  0
   -4.5464    2.9446    0.0000 C   0  0  0  0  0  0  0  0  0  0  0  0
    0.6498    2.9446    0.0000 C   0  0  0  0  0  0  0  0  0  0  0  0
   -1.9483    2.9446    0.0000 C   0  0  0  0  0  0  0  0  0  0  0  0
   -0.6493    3.6946    0.0000 N   0  0  0  0  0  0  0  0  0  0  0  0
   -4.5464    1.4446    0.0000 O   0  0  0  0  0  0  0  0  0  0  0  0
   -1.9483    1.4446    0.0000 O   0  0  0  0  0  0  0  0  0  0  0  0
  3  2  2  0
  4  2  1  0
  5  3  1  0
  6  4  2  0
  8  1  1  0
  8  7  1  0
  9  5  2  0
  9  6  1  0
 10  7  1  0
 11  9  1  0
 11 10  2  3
 12  8  2  0
 13 10  1  0
M  END
>  <NAME>  (909) 
ACETOACETAILIDE

>  <SYNONYMS>  (909) 


>  <SPECTRUM TYPE>  (909) 
MS1

>  <INSTRUMENT TYPE>  (909) 
EI-B

>  <INSTRUMENT>  (909) 
JEOL JMS-D-3000

>  <ION MODE>  (909) 
P

>  <INCHIKEY>  (909) 
DYRDKSSFIWVSNM-UHFFFAOYSA-N

>  <FORMULA>  (909) 
C10H11NO2

>  <EXACT MASS>  (909) 
177.078978592

>  <MW>  (909) 
177

>  <ID>  (909) 
JP010805

>  <CONTRIBUTOR>  (909) 
University of Tokyo Team, {Faculty of Engineering, University of Tokyo

>  <COMMENT>  (909) 
SMILES=CC(=O)CC(=O)Nc(c1)cccc1
InChI=InChI=1S/C10H11NO2/c1-8(12)7-10(13)11-9-5-3-2-4-6-9/h2-6H,7H2,1H3,(H,11,13)
computed SMILES=O=C(C)CC(O)=NC=1C=CC=CC1
accession=JP010805
date=2016.01.19 (Created 2008.10.21, modified 2011.05.06)
author=FUJISE Y, HAMAMATSU UNIV. SCHOOL OF MEDICINE
license=CC BY-NC-SA
exact mass=177.07898
ionization energy=70 eV
ion type=[M]+*
computed spectral entropy=2.0927332206870273
computed normalized entropy=0.6674332901191087
SPLASH=splash10-0006-9200000000-c738b03d587728704826
submitter=submitter = University of Tokyo Team (Faculty of Engineering, University of Tokyo)
MoNA Rating=3.75

>  <NUM PEAKS>  (909) 
23

>  <MASS SPECTRAL PEAKS>  (909) 
42 1.4
43 26.43
44 1.56
51 2.95
52 1.02
58 7.52
63 1.6
64 1.88
65 7.09
66 6.5
69 1.63
77 4.36
84 1.34
85 2.55
91 2.27
92 3.97
93 99.99
94 7.46
119 8.6
120 1.28
134 1.25
177 29.06
178 3.31

$$$$

     RDKit          2D

 11 11  0  0  0  0  0  0  0  0999 V2000
   -4.8712    2.0071    0.0000 C   0  0  0  0  0  0  0  0  0  0  0  0
    2.9231    0.5071    0.0000 C   0  0  0  0  0  0  0  0  0  0  0  0
    1.6236   -0.2437    0.0000 C   0  0  0  0  0  0  0  0  0  0  0  0
    2.9236    2.0079    0.0000 C   0  0  0  0  0  0  0  0  0  0  0  0
    0.3245    0.5063    0.0000 C   0  0  0  0  0  0  0  0  0  0  0  0
    1.6245    2.7579    0.0000 C   0  0  0  0  0  0  0  0  0  0  0  0
   -3.5721    2.7571    0.0000 C   0  0  0  0  0  0  0  0  0  0  0  0
    0.3250    2.0071    0.0000 C   0  0  0  0  0  0  0  0  0  0  0  0
   -2.2731    2.0071    0.0000 N   0  0  0  0  0  0  0  0  0  0  0  0
   -0.9740    2.7571    0.0000 N   0  0  0  0  0  0  0  0  0  0  0  0
   -3.5721    4.2571    0.0000 O   0  0  0  0  0  0  0  0  0  0  0  0
  3  2  2  0
  4  2  1  0
  5  3  1  0
  6  4  2  0
  7  1  1  0
  8  5  2  0
  8  6  1  0
  9  7  2  3
 10  8  1  0
 10  9  1  0
 11  7  1  0
M  END
>  <NAME>  (910) 
BETA-ACETYLPHENYLHYDRAZINE

>  <SYNONYMS>  (910) 


>  <SPECTRUM TYPE>  (910) 
MS1

>  <INSTRUMENT TYPE>  (910) 
EI-B

>  <INSTRUMENT>  (910) 
JEOL JMS-D-3000

>  <ION MODE>  (910) 
P

>  <INCHIKEY>  (910) 
UICBCXONCUFSOI-UHFFFAOYSA-N

>  <FORMULA>  (910) 
C8H10N2O

>  <EXACT MASS>  (910) 
150.07931294

>  <MW>  (910) 
150

>  <ID>  (910) 
JP010804

>  <CONTRIBUTOR>  (910) 
University of Tokyo Team, {Faculty of Engineering, University of Tokyo

>  <COMMENT>  (910) 
SMILES=CC(=O)NNc(c1)cccc1
InChI=InChI=1S/C8H10N2O/c1-7(11)9-10-8-5-3-2-4-6-8/h2-6,10H,1H3,(H,9,11)
computed SMILES=OC(=NNC=1C=CC=CC1)C
accession=JP010804
date=2016.01.19 (Created 2008.10.21, modified 2011.05.06)
author=FUJISE Y, HAMAMATSU UNIV. SCHOOL OF MEDICINE
license=CC BY-NC-SA
exact mass=150.07931
ionization energy=70 eV
ion type=[M]+*
computed spectral entropy=2.654595376649186
computed normalized entropy=0.7659543170917101
SPLASH=splash10-0a4i-7900000000-be62587c5ccb35a1d16d
submitter=submitter = University of Tokyo Team (Faculty of Engineering, University of Tokyo)
MoNA Rating=3.75

>  <NUM PEAKS>  (910) 
32

>  <MASS SPECTRAL PEAKS>  (910) 
41 3.28
42 2.18
43 33.4
50 3.74
51 11.92
52 3.4
53 1.95
55 1.61
57 1.22
59 4.27
62 1.13
63 3.4
64 3
65 9.5
66 2.06
72 1.57
77 32.81
78 9.71
79 4.35
80 3.93
81 1.13
91 9.48
92 19.14
93 7.53
94 1.3
105 9.23
106 1.13
107 38.55
108 99.99
109 7.48
150 51.19
151 4.85

$$$$

     RDKit          2D

 15 16  0  0  0  0  0  0  0  0999 V2000
   -2.6580   -1.6509    0.0000 C   0  0  0  0  0  0  0  0  0  0  0  0
    0.5235   -0.9751    0.0000 C   0  0  0  0  0  0  0  0  0  0  0  0
    3.4741    3.7742    0.0000 C   0  0  0  0  0  0  0  0  0  0  0  0
    3.4746    2.2734    0.0000 C   0  0  0  0  0  0  0  0  0  0  0  0
    2.1746    4.5250    0.0000 C   0  0  0  0  0  0  0  0  0  0  0  0
    2.1756    1.5234    0.0000 C   0  0  0  0  0  0  0  0  0  0  0  0
    0.8756    3.7750    0.0000 C   0  0  0  0  0  0  0  0  0  0  0  0
   -2.0485   -0.2803    0.0000 C   0  0  0  0  0  0  0  0  0  0  0  0
    0.8760    2.2742    0.0000 C   0  0  0  0  0  0  0  0  0  0  0  0
   -2.7985    1.0187    0.0000 C   0  0  0  0  0  0  0  0  0  0  0  0
   -1.7988    2.1271    0.0000 C   0  0  0  0  0  0  0  0  0  0  0  0
   -4.2902    1.1762    0.0000 N   0  0  0  0  0  0  0  0  0  0  0  0
   -0.5888    0.0313    0.0000 N   0  0  0  0  0  0  0  0  0  0  0  0
   -0.4230    1.5242    0.0000 N   0  0  0  0  0  0  0  0  0  0  0  0
   -2.1143    3.5935    0.0000 O   0  0  0  0  0  0  0  0  0  0  0  0
  4  3  2  0
  5  3  1  0
  6  4  1  0
  7  5  2  0
  8  1  1  0
  9  6  2  0
  9  7  1  0
 10  8  2  0
 11 10  1  0
 12 10  1  0
 13  2  1  0
 13  8  1  0
 14  9  1  0
 14 11  1  0
 14 13  1  0
 15 11  2  0
M  END
>  <NAME>  (911) 
4-AMINO-1,5-DIMETHYL-2-PHENYL-4-PYRAZOLIN--3-ONE

>  <SYNONYMS>  (911) 


>  <SPECTRUM TYPE>  (911) 
MS1

>  <INSTRUMENT TYPE>  (911) 
EI-B

>  <INSTRUMENT>  (911) 
JEOL JMS-D-3000

>  <ION MODE>  (911) 
P

>  <INCHIKEY>  (911) 
RLFWWDJHLFCNIJ-UHFFFAOYSA-N

>  <FORMULA>  (911) 
C11H13N3O

>  <EXACT MASS>  (911) 
203.105862036

>  <MW>  (911) 
203

>  <ID>  (911) 
JP010803

>  <CONTRIBUTOR>  (911) 
University of Tokyo Team, {Faculty of Engineering, University of Tokyo

>  <COMMENT>  (911) 
SMILES=CC(=C(N)1)N(C)N(c(c2)cccc2)C(=O)1
InChI=InChI=1S/C11H13N3O/c1-8-10(12)11(15)14(13(8)2)9-6-4-3-5-7-9/h3-7H,12H2,1-2H3
computed SMILES=O=C1C(N)=C(N(N1C=2C=CC=CC2)C)C
accession=JP010803
date=2016.01.19 (Created 2008.10.21, modified 2011.05.06)
author=FUJISE Y, HAMAMATSU UNIV. SCHOOL OF MEDICINE
license=CC BY-NC-SA
exact mass=203.10586
ionization energy=70 eV
ion type=[M]+*
computed spectral entropy=2.460467254622271
computed normalized entropy=0.7036928167231874
SPLASH=splash10-0a4i-9010000000-32efbc2432ef27d8cd92
submitter=submitter = University of Tokyo Team (Faculty of Engineering, University of Tokyo)
MoNA Rating=3.75

>  <NUM PEAKS>  (911) 
33

>  <MASS SPECTRAL PEAKS>  (911) 
41 1.99
42 27.71
43 1.36
50 1.39
51 5.71
52 1.73
53 1.11
54 4.52
55 3.49
56 99.99
57 66.11
58 2.49
63 1.69
64 2.82
65 2.36
66 1.02
67 1.55
77 11.76
78 1.34
82 1.1
83 22.46
84 56.33
85 2.97
91 3.36
92 1.41
93 5.06
109 1.44
119 5.3
120 1.57
201 1.44
202 5.74
203 55.58
204 7.58

$$$$

     RDKit          2D

  8  8  0  0  0  0  0  0  0  0999 V2000
   -1.3000    0.7500    0.0000 C   0  0  0  0  0  0  0  0  0  0  0  0
   -0.0000   -1.5000    0.0000 C   0  0  0  0  0  0  0  0  0  0  0  0
    0.0000    1.5000    0.0000 C   0  0  0  0  0  0  0  0  0  0  0  0
    1.3000   -0.7500    0.0000 C   0  0  0  0  0  0  0  0  0  0  0  0
   -1.3000   -0.7500    0.0000 C   0  0  0  0  0  0  0  0  0  0  0  0
    1.3000    0.7500    0.0000 C   0  0  0  0  0  0  0  0  0  0  0  0
   -2.5989   -1.5002    0.0000 N   0  0  0  0  0  0  0  0  0  0  0  0
    2.5989    1.5002    0.0000 O   0  0  0  0  0  0  0  0  0  0  0  0
  3  1  2  0
  4  2  1  0
  5  1  1  0
  5  2  2  0
  6  3  1  0
  6  4  2  0
  7  5  1  0
  8  6  1  0
M  END
>  <NAME>  (912) 
4-AMINOPHENOL

>  <SYNONYMS>  (912) 


>  <SPECTRUM TYPE>  (912) 
MS1

>  <INSTRUMENT TYPE>  (912) 
EI-B

>  <INSTRUMENT>  (912) 
JEOL JMS-D-3000

>  <ION MODE>  (912) 
P

>  <INCHIKEY>  (912) 
PLIKAWJENQZMHA-UHFFFAOYSA-N

>  <FORMULA>  (912) 
C6H7NO

>  <EXACT MASS>  (912) 
109.052763844

>  <MW>  (912) 
109

>  <ID>  (912) 
JP010802

>  <CONTRIBUTOR>  (912) 
University of Tokyo Team, {Faculty of Engineering, University of Tokyo

>  <COMMENT>  (912) 
SMILES=Nc(c1)ccc(O)c1
InChI=InChI=1S/C6H7NO/c7-5-1-3-6(8)4-2-5/h1-4,8H,7H2
computed SMILES=OC1=CC=C(N)C=C1
accession=JP010802
date=2016.01.19 (Created 2008.10.21, modified 2011.05.06)
author=FUJISE Y, HAMAMATSU UNIV. SCHOOL OF MEDICINE
license=CC BY-NC-SA
exact mass=109.05276
ionization energy=70 eV
ion type=[M]+*
computed spectral entropy=2.120081128177782
computed normalized entropy=0.685879006894384
SPLASH=splash10-0a4i-6900000000-9c5bfea7a6ff3c845001
submitter=submitter = University of Tokyo Team (Faculty of Engineering, University of Tokyo)
MoNA Rating=3.75

>  <NUM PEAKS>  (912) 
22

>  <MASS SPECTRAL PEAKS>  (912) 
41 2.2
50 1.42
51 2.76
52 8.56
53 10.13
54 8.16
55 3.18
61 1.14
62 1.44
63 3.29
64 2.16
65 2
68 1.28
78 2.5
79 1.4
80 24.14
81 8.4
82 2.98
107 7.98
108 13.8
109 99.99
110 7.41

$$$$

     RDKit          2D

 17 18  0  0  0  0  0  0  0  0999 V2000
    2.6101    2.9936    0.0000 C   0  0  0  0  0  0  0  0  0  0  0  0
    3.1088    0.0816    0.0000 C   0  0  0  0  0  0  0  0  0  0  0  0
    1.3000   -0.7500    0.0000 C   0  0  0  0  0  0  0  0  0  0  0  0
    0.0300    1.5000    0.0000 C   0  0  0  0  0  0  0  0  0  0  0  0
    4.5942    3.1563    0.0000 C   0  0  0  0  0  0  0  0  0  0  0  0
    5.0181    0.6077    0.0000 C   0  0  0  0  0  0  0  0  0  0  0  0
    0.0300   -1.5000    0.0000 C   0  0  0  0  0  0  0  0  0  0  0  0
   -1.3200    0.7500    0.0000 C   0  0  0  0  0  0  0  0  0  0  0  0
    6.0441    3.4267    0.0000 C   0  0  0  0  0  0  0  0  0  0  0  0
    6.5432    0.8507    0.0000 C   0  0  0  0  0  0  0  0  0  0  0  0
    1.3000    0.7500    0.0000 C   0  0  0  0  0  0  0  0  0  0  0  0
    4.0812    1.7468    0.0000 C   0  0  0  0  0  0  0  0  0  0  0  0
   -1.3200   -0.7500    0.0000 C   0  0  0  0  0  0  0  0  0  0  0  0
    7.0562    2.2602    0.0000 C   0  0  0  0  0  0  0  0  0  0  0  0
    2.6027    1.4936    0.0000 C   0  0  0  0  0  0  0  0  0  0  0  0
   -2.6128   -1.5107    0.0000 O   0  0  0  0  0  0  0  0  0  0  0  0
    8.5312    2.5329    0.0000 O   0  0  0  0  0  0  0  0  0  0  0  0
  7  3  2  0
  8  4  1  0
  9  5  2  0
 10  6  1  0
 11  3  1  0
 11  4  2  0
 12  5  1  0
 12  6  2  0
 13  7  1  0
 13  8  2  0
 14  9  1  0
 14 10  2  0
 15  1  1  0
 15  2  1  0
 15 11  1  0
 15 12  1  0
 16 13  1  0
 17 14  1  0
M  END
>  <NAME>  (913) 
4,4'-ISOPROPYLIDENEDIPHENOL

>  <SYNONYMS>  (913) 


>  <SPECTRUM TYPE>  (913) 
MS1

>  <INSTRUMENT TYPE>  (913) 
EI-B

>  <INSTRUMENT>  (913) 
JEOL JMS-D-3000

>  <ION MODE>  (913) 
P

>  <INCHIKEY>  (913) 
IISBACLAFKSPIT-UHFFFAOYSA-N

>  <FORMULA>  (913) 
C15H16O2

>  <EXACT MASS>  (913) 
228.115029752

>  <MW>  (913) 
228

>  <ID>  (913) 
JP010801

>  <CONTRIBUTOR>  (913) 
University of Tokyo Team, {Faculty of Engineering, University of Tokyo

>  <COMMENT>  (913) 
SMILES=Oc(c2)ccc(c2)C(C)(C)c(c1)ccc(O)c1
InChI=InChI=1S/C15H16O2/c1-15(2,11-3-7-13(16)8-4-11)12-5-9-14(17)10-6-12/h3-10,16-17H,1-2H3
computed SMILES=OC1=CC=C(C=C1)C(C2=CC=C(O)C=C2)(C)C
accession=JP010801
date=2016.01.19 (Created 2008.10.21, modified 2011.05.06)
author=FUJISE Y, HAMAMATSU UNIV. SCHOOL OF MEDICINE
license=CC BY-NC-SA
exact mass=228.11503
ionization energy=70 eV
ion type=[M]+*
computed spectral entropy=2.361905941838745
computed normalized entropy=0.6697857253537156
SPLASH=splash10-03di-2290000000-5a53b16778a578ff5d0d
submitter=submitter = University of Tokyo Team (Faculty of Engineering, University of Tokyo)
MoNA Rating=3.75

>  <NUM PEAKS>  (913) 
34

>  <MASS SPECTRAL PEAKS>  (913) 
41 2.69
51 1.49
55 1.72
63 1.58
65 3.99
76 1.38
77 2.73
82 1.07
84 1.02
90 2.01
91 6.74
94 1.13
95 1.32
97 1.29
99 7.58
100 1.04
106 3.78
107 3.86
114 2.38
115 1.51
119 17.06
120 2.58
135 4.77
152 1.15
165 1.67
169 1.52
197 1.84
198 1.38
212 1.96
213 99.99
214 15.85
215 1.61
228 28.87
229 4.91

$$$$

     RDKit          2D

  9  9  0  0  0  0  0  0  0  0999 V2000
   -2.5633    1.1076    0.0000 C   0  0  0  0  0  0  0  0  0  0  0  0
    2.6328   -1.8924    0.0000 C   0  0  0  0  0  0  0  0  0  0  0  0
   -1.2648   -1.1433    0.0000 C   0  0  0  0  0  0  0  0  0  0  0  0
    0.0342   -1.8933    0.0000 C   0  0  0  0  0  0  0  0  0  0  0  0
    0.0352    1.1084    0.0000 C   0  0  0  0  0  0  0  0  0  0  0  0
   -1.2643    0.3576    0.0000 C   0  0  0  0  0  0  0  0  0  0  0  0
    1.3338   -1.1424    0.0000 C   0  0  0  0  0  0  0  0  0  0  0  0
    1.3342    0.3584    0.0000 C   0  0  0  0  0  0  0  0  0  0  0  0
    2.6334    1.1082    0.0000 O   0  0  0  0  0  0  0  0  0  0  0  0
  4  3  2  0
  6  1  1  0
  6  3  1  0
  6  5  2  0
  7  2  1  0
  7  4  1  0
  8  5  1  0
  8  7  2  0
  9  8  1  0
M  END
>  <NAME>  (914) 
2,5-DIMETHYLPHENOL

>  <SYNONYMS>  (914) 


>  <SPECTRUM TYPE>  (914) 
MS1

>  <INSTRUMENT TYPE>  (914) 
EI-B

>  <INSTRUMENT>  (914) 
JEOL JMS-D-3000

>  <ION MODE>  (914) 
P

>  <INCHIKEY>  (914) 
NKTOLZVEWDHZMU-UHFFFAOYSA-N

>  <FORMULA>  (914) 
C8H10O

>  <EXACT MASS>  (914) 
122.07316494

>  <MW>  (914) 
122

>  <ID>  (914) 
JP010800

>  <CONTRIBUTOR>  (914) 
University of Tokyo Team, {Faculty of Engineering, University of Tokyo

>  <COMMENT>  (914) 
SMILES=Cc(c1)cc(O)c(C)c1
InChI=InChI=1S/C8H10O/c1-6-3-4-7(2)8(9)5-6/h3-5,9H,1-2H3
computed SMILES=OC1=CC(=CC=C1C)C
accession=JP010800
date=2016.01.19 (Created 2008.10.21, modified 2011.05.06)
author=FUJISE Y, HAMAMATSU UNIV. SCHOOL OF MEDICINE
license=CC BY-NC-SA
exact mass=122.07316
ionization energy=70 eV
ion type=[M]+*
computed spectral entropy=2.4843387573619564
computed normalized entropy=0.7105200585695267
SPLASH=splash10-00di-3900000000-2d64127f5ece7e1ccc6f
submitter=submitter = University of Tokyo Team (Faculty of Engineering, University of Tokyo)
MoNA Rating=3.75

>  <NUM PEAKS>  (914) 
33

>  <MASS SPECTRAL PEAKS>  (914) 
41 2.77
43 1.97
44 4.81
45 1.19
46 1.22
50 3
51 7.95
52 2.79
53 4.41
55 1.56
59 1.25
60 3.77
61 3
62 1.16
63 2.37
65 4.35
66 1.13
77 16.97
78 5.88
79 9.1
80 1.08
91 9.85
92 1.53
93 2.71
94 1.56
103 5.3
104 6.1
105 3.26
107 68.14
108 5.41
121 40.51
122 99.99
123 8.5

$$$$

     RDKit          2D

 11 11  0  0  0  0  0  0  0  0999 V2000
    2.8443    1.6288    0.0000 C   0  0  0  0  0  0  0  0  0  0  0  0
   -2.3064   -1.3657    0.0000 C   0  0  0  0  0  0  0  0  0  0  0  0
    0.2692   -2.8359    0.0000 C   0  0  0  0  0  0  0  0  0  0  0  0
    0.2500    1.6224    0.0000 C   0  0  0  0  0  0  0  0  0  0  0  0
    1.5490    0.8724    0.0000 C   0  0  0  0  0  0  0  0  0  0  0  0
   -1.0250   -0.5859    0.0000 C   0  0  0  0  0  0  0  0  0  0  0  0
    0.2740   -1.3359    0.0000 C   0  0  0  0  0  0  0  0  0  0  0  0
   -1.0952    0.9326    0.0000 C   0  0  0  0  0  0  0  0  0  0  0  0
    1.5635   -0.6024    0.0000 C   0  0  0  0  0  0  0  0  0  0  0  0
   -2.3929    1.6849    0.0000 O   0  0  0  0  0  0  0  0  0  0  0  0
    2.8638   -1.3502    0.0000 O   0  0  0  0  0  0  0  0  0  0  0  0
  5  1  1  0
  5  4  2  0
  6  2  1  0
  7  3  1  0
  7  6  1  0
  8  4  1  0
  8  6  2  0
  9  5  1  0
  9  7  2  0
 10  8  1  0
 11  9  1  0
M  END
>  <NAME>  (915) 
TRIMETHYLHYDROQUINONE

>  <SYNONYMS>  (915) 


>  <SPECTRUM TYPE>  (915) 
MS1

>  <INSTRUMENT TYPE>  (915) 
EI-B

>  <INSTRUMENT>  (915) 
JEOL JMS-D-300

>  <ION MODE>  (915) 
P

>  <INCHIKEY>  (915) 
AUFZRCJENRSRLY-UHFFFAOYSA-N

>  <FORMULA>  (915) 
C9H12O2

>  <EXACT MASS>  (915) 
152.083729624

>  <MW>  (915) 
152

>  <ID>  (915) 
JP010799

>  <CONTRIBUTOR>  (915) 
University of Tokyo Team, {Faculty of Engineering, University of Tokyo

>  <COMMENT>  (915) 
SMILES=Cc(c1)c(O)c(C)c(C)c(O)1
InChI=InChI=1S/C9H12O2/c1-5-4-8(10)6(2)7(3)9(5)11/h4,10-11H,1-3H3
computed SMILES=OC=1C=C(C(O)=C(C1C)C)C
accession=JP010799
date=2016.01.19 (Created 2008.10.21, modified 2011.05.06)
author=FUJISE Y, HAMAMATSU UNIV. SCHOOL OF MEDICINE
license=CC BY-NC-SA
exact mass=152.08373
ionization energy=70 eV
ion type=[M]+*
computed spectral entropy=3.1210436280153995
computed normalized entropy=0.8019495734503933
SPLASH=splash10-0udi-4900000000-53197de66212fda82cde
submitter=submitter = University of Tokyo Team (Faculty of Engineering, University of Tokyo)
MoNA Rating=3.75

>  <NUM PEAKS>  (915) 
49

>  <MASS SPECTRAL PEAKS>  (915) 
41 5.11
43 6.08
50 2.91
51 6.68
52 3.69
53 9.17
54 10.75
55 3.77
62 1.15
63 1.89
65 3.2
66 2.35
67 5.31
68 17.33
69 5.94
75 1.25
76 5.1
77 8.18
78 2.27
79 16.38
80 1.88
81 2.69
82 3.38
83 1.43
91 6.42
93 3.89
94 3.93
95 1.98
96 8.37
103 1.01
105 1.85
107 19.27
108 3.52
109 8.56
110 2.06
119 2.28
121 6.97
122 11.59
123 5.32
124 1.19
133 2.74
134 1.62
135 6.9
137 50.64
138 4.75
150 56.87
151 29.63
152 99.99
153 10.34

$$$$

     RDKit          2D

 17 19  0  0  0  0  0  0  0  0999 V2000
    5.0771    4.9800    0.0000 C   0  0  0  0  0  0  0  0  0  0  0  0
    5.0776    3.4792    0.0000 C   0  0  0  0  0  0  0  0  0  0  0  0
    3.7776    5.7308    0.0000 C   0  0  0  0  0  0  0  0  0  0  0  0
   -2.7200   -1.0200    0.0000 C   0  0  0  0  0  0  0  0  0  0  0  0
   -2.7200    0.4800    0.0000 C   0  0  0  0  0  0  0  0  0  0  0  0
    2.4800   -1.0200    0.0000 C   0  0  0  0  0  0  0  0  0  0  0  0
   -1.4200   -1.7700    0.0000 C   0  0  0  0  0  0  0  0  0  0  0  0
    1.1800   -1.7700    0.0000 C   0  0  0  0  0  0  0  0  0  0  0  0
    3.7786    2.7292    0.0000 C   0  0  0  0  0  0  0  0  0  0  0  0
    2.4786    4.9808    0.0000 C   0  0  0  0  0  0  0  0  0  0  0  0
   -1.4200    1.2300    0.0000 C   0  0  0  0  0  0  0  0  0  0  0  0
    2.4800    0.4800    0.0000 C   0  0  0  0  0  0  0  0  0  0  0  0
   -0.1200   -1.0200    0.0000 C   0  0  0  0  0  0  0  0  0  0  0  0
    2.4790    3.4800    0.0000 C   0  0  0  0  0  0  0  0  0  0  0  0
   -0.1200    0.4800    0.0000 C   0  0  0  0  0  0  0  0  0  0  0  0
    1.1800    1.2300    0.0000 C   0  0  0  0  0  0  0  0  0  0  0  0
    1.1800    2.7300    0.0000 N   0  0  0  0  0  0  0  0  0  0  0  0
  2  1  2  0
  3  1  1  0
  5  4  2  0
  7  4  1  0
  8  6  2  0
  9  2  1  0
 10  3  2  0
 11  5  1  0
 12  6  1  0
 13  7  2  0
 13  8  1  0
 14  9  2  0
 14 10  1  0
 15 11  2  0
 15 13  1  0
 16 12  2  0
 16 15  1  0
 17 14  1  0
 17 16  1  0
M  END
>  <NAME>  (916) 
N-PHENYL-1-NAPHTHYLAMINE

>  <SYNONYMS>  (916) 


>  <SPECTRUM TYPE>  (916) 
MS1

>  <INSTRUMENT TYPE>  (916) 
EI-B

>  <INSTRUMENT>  (916) 
JEOL JMS-D-300

>  <ION MODE>  (916) 
P

>  <INCHIKEY>  (916) 
XQVWYOYUZDUNRW-UHFFFAOYSA-N

>  <FORMULA>  (916) 
C16H13N

>  <EXACT MASS>  (916) 
219.104799416

>  <MW>  (916) 
219

>  <ID>  (916) 
JP010798

>  <CONTRIBUTOR>  (916) 
University of Tokyo Team, {Faculty of Engineering, University of Tokyo

>  <COMMENT>  (916) 
SMILES=c(c3)ccc(c3)Nc(c1)c(c2)c(ccc2)cc1
InChI=InChI=1S/C16H13N/c1-2-9-14(10-3-1)17-16-12-6-8-13-7-4-5-11-15(13)16/h1-12,17H
computed SMILES=C=1C=CC(=CC1)NC2=CC=CC=3C=CC=CC32
accession=JP010798
date=2016.01.19 (Created 2008.10.21, modified 2011.05.06)
author=FUJISE Y, HAMAMATSU UNIV. SCHOOL OF MEDICINE
license=CC BY-NC-SA
exact mass=219.1048
ionization energy=70 eV
ion type=[M]+*
computed spectral entropy=2.609734352567045
computed normalized entropy=0.7027558118410535
SPLASH=splash10-014i-1290000000-300b902435855ba1e24f
submitter=submitter = University of Tokyo Team (Faculty of Engineering, University of Tokyo)
MoNA Rating=3.75

>  <NUM PEAKS>  (916) 
41

>  <MASS SPECTRAL PEAKS>  (916) 
51 3.43
63 2.09
65 1.28
75 1.82
77 3.8
82 1.66
88 1.04
89 1.73
94 2.16
95 4.51
96 4.72
97 1.97
101 1.54
102 3.75
108 6.39
109 31.71
110 8.64
114 1.02
115 8.75
116 3.05
126 2.06
127 3.36
128 1.31
140 1.57
153 2.13
163 1.04
165 1.37
188 1.09
189 4.03
190 2.41
191 1.69
203 1.04
204 3.12
214 3.06
215 3.7
216 16.68
217 72.66
218 49.51
219 99.99
220 17.4
221 1.59

$$$$

     RDKit          2D

 10 10  0  0  0  0  0  0  0  0999 V2000
    2.9118   -0.1743    0.0000 C   0  0  0  0  0  0  0  0  0  0  0  0
    2.9163    1.3179    0.0000 C   0  0  0  0  0  0  0  0  0  0  0  0
    1.6128   -0.9243    0.0000 C   0  0  0  0  0  0  0  0  0  0  0  0
    1.6168    2.0687    0.0000 C   0  0  0  0  0  0  0  0  0  0  0  0
    0.3183   -0.1821    0.0000 C   0  0  0  0  0  0  0  0  0  0  0  0
    0.3178    1.3187    0.0000 C   0  0  0  0  0  0  0  0  0  0  0  0
   -0.9795   -0.9343    0.0000 C   0  0  0  0  0  0  0  0  0  0  0  0
   -2.2798   -0.1865    0.0000 O   0  0  0  0  0  0  0  0  0  0  0  0
   -0.9770   -2.4343    0.0000 O   0  0  0  0  0  0  0  0  0  0  0  0
   -0.9814    2.0685    0.0000 S   0  0  0  0  0  0  0  0  0  0  0  0
  2  1  2  0
  3  1  1  0
  4  2  1  0
  5  3  2  0
  6  4  2  0
  6  5  1  0
  7  5  1  0
  8  7  2  0
  9  7  1  0
 10  6  1  0
M  END
>  <NAME>  (917) 
2-MERCAPTOBENZOIC ACID

>  <SYNONYMS>  (917) 


>  <SPECTRUM TYPE>  (917) 
MS1

>  <INSTRUMENT TYPE>  (917) 
EI-B

>  <INSTRUMENT>  (917) 
JEOL JMS-D-300

>  <ION MODE>  (917) 
P

>  <INCHIKEY>  (917) 
NBOMNTLFRHMDEZ-UHFFFAOYSA-N

>  <FORMULA>  (917) 
C7H6O2S

>  <EXACT MASS>  (917) 
154.008850432

>  <MW>  (917) 
154

>  <ID>  (917) 
JP010797

>  <CONTRIBUTOR>  (917) 
University of Tokyo Team, {Faculty of Engineering, University of Tokyo

>  <COMMENT>  (917) 
SMILES=OC(=O)c(c1)c(S)ccc1
InChI=InChI=1S/C7H6O2S/c8-7(9)5-3-1-2-4-6(5)10/h1-4,10H,(H,8,9)
computed SMILES=O=C(O)C=1C=CC=CC1S
accession=JP010797
date=2016.01.19 (Created 2008.10.21, modified 2011.05.06)
author=FUJISE Y, HAMAMATSU UNIV. SCHOOL OF MEDICINE
license=CC BY-NC-SA
exact mass=154.00885
ionization energy=70 eV
ion type=[M]+*
computed spectral entropy=2.7875025329732344
computed normalized entropy=0.7608722882875683
SPLASH=splash10-0f79-3900000000-c33ea8ac6d06dc88ef5c
submitter=submitter = University of Tokyo Team (Faculty of Engineering, University of Tokyo)
MoNA Rating=3.75

>  <NUM PEAKS>  (917) 
39

>  <MASS SPECTRAL PEAKS>  (917) 
44 2.32
45 4.39
50 5.4
51 2.41
53 1.5
54 7.17
58 3.44
61 1.25
62 1.78
63 4.11
64 1.58
65 4.71
68 5.08
69 12.37
70 3.71
71 1.35
74 2.68
75 2.29
76 6
77 2.46
81 1.78
82 4.49
92 3.04
95 1.66
96 9.13
97 2.1
104 5.2
105 1.48
108 36.64
109 6.95
110 2.2
136 99.99
137 9.32
138 5.23
152 30.83
153 5.27
154 25.45
155 2.15
156 1.32

$$$$

     RDKit          2D

  4  3  0  0  0  0  0  0  0  0999 V2000
    0.9743    0.5625    0.0000 C   0  0  0  0  0  0  0  0  0  0  0  0
   -0.3248    1.3125    0.0000 C   0  0  0  0  0  0  0  0  0  0  0  0
   -1.6238    0.5625    0.0000 N   0  0  0  0  0  0  0  0  0  0  0  0
   -0.3248    2.8125    0.0000 S   0  0  0  0  0  0  0  0  0  0  0  0
  2  1  1  0
  3  2  2  0
  4  2  1  0
M  END
>  <NAME>  (918) 
THIOACETAMIDE

>  <SYNONYMS>  (918) 
ETHANETHIOAMIDE

>  <SPECTRUM TYPE>  (918) 
MS1

>  <INSTRUMENT TYPE>  (918) 
EI-B

>  <INSTRUMENT>  (918) 
JEOL JMS-D-300

>  <ION MODE>  (918) 
P

>  <INCHIKEY>  (918) 
YUKQRDCYNOVPGJ-UHFFFAOYSA-N

>  <FORMULA>  (918) 
C2H5NS

>  <EXACT MASS>  (918) 
75.01427016

>  <MW>  (918) 
75

>  <ID>  (918) 
JP010796

>  <CONTRIBUTOR>  (918) 
University of Tokyo Team, {Faculty of Engineering, University of Tokyo

>  <COMMENT>  (918) 
SMILES=CC(N)=S
InChI=InChI=1S/C2H5NS/c1-2(3)4/h1H3,(H2,3,4)
computed SMILES=N=C(S)C
accession=JP010796
date=2016.01.19 (Created 2008.10.21, modified 2011.05.06)
author=FUJISE Y, HAMAMATSU UNIV. SCHOOL OF MEDICINE
license=CC BY-NC-SA
exact mass=75.01427
ionization energy=70 eV
ion type=[M]+*
computed spectral entropy=1.9927264923258978
computed normalized entropy=0.6894360515674143
SPLASH=splash10-004l-9000000000-609a2df4de711d8cf906
submitter=submitter = University of Tokyo Team (Faculty of Engineering, University of Tokyo)
MoNA Rating=3.75

>  <NUM PEAKS>  (918) 
18

>  <MASS SPECTRAL PEAKS>  (918) 
41 36.17
42 24.3
43 1.51
45 4
46 1.39
47 1.34
48 1.07
57 2.14
58 6.92
59 14.74
60 34.43
61 1.43
62 1.54
64 13.74
66 1.18
75 99.99
76 3.5
77 4.54

$$$$

     RDKit          2D

 11 11  0  0  0  0  0  0  0  0999 V2000
   -0.3325    2.4400    0.0000 C   0  0  0  0  0  0  0  0  0  0  0  0
   -1.6200   -1.3100    0.0000 C   0  0  0  0  0  0  0  0  0  0  0  0
   -0.3300   -2.0600    0.0000 C   0  0  0  0  0  0  0  0  0  0  0  0
   -1.6200    0.1900    0.0000 C   0  0  0  0  0  0  0  0  0  0  0  0
    0.9700   -1.3100    0.0000 C   0  0  0  0  0  0  0  0  0  0  0  0
   -0.3300    0.9400    0.0000 C   0  0  0  0  0  0  0  0  0  0  0  0
    0.9700    0.1900    0.0000 C   0  0  0  0  0  0  0  0  0  0  0  0
    3.0191   -0.3587    0.0000 N   0  0  0  0  0  0  0  0  0  0  0  0
    3.5678    1.6904    0.0000 O   0  0  0  0  0  0  0  0  0  0  0  0
    1.5187    2.2391    0.0000 O   0  0  0  0  0  0  0  0  0  0  0  0
    2.2689    0.9402    0.0000 S   0  0  0  0  0  0  0  0  0  0  0  0
  3  2  2  0
  4  2  1  0
  5  3  1  0
  6  1  1  0
  6  4  2  0
  7  5  2  0
  7  6  1  0
 11  7  1  0
 11  8  1  0
 11  9  2  0
 11 10  2  0
M  END
>  <NAME>  (919) 
ORTHO-TOLUENESULFONAMIDE

>  <SYNONYMS>  (919) 


>  <SPECTRUM TYPE>  (919) 
MS1

>  <INSTRUMENT TYPE>  (919) 
EI-B

>  <INSTRUMENT>  (919) 
JEOL JMS-D-300

>  <ION MODE>  (919) 
P

>  <INCHIKEY>  (919) 
YCMLQMDWSXFTIF-UHFFFAOYSA-N

>  <FORMULA>  (919) 
C7H9NO2S

>  <EXACT MASS>  (919) 
171.035399528

>  <MW>  (919) 
171

>  <ID>  (919) 
JP010795

>  <CONTRIBUTOR>  (919) 
University of Tokyo Team, {Faculty of Engineering, University of Tokyo

>  <COMMENT>  (919) 
SMILES=Cc(c1)c(ccc1)S(N)(=O)=O
InChI=InChI=1S/C7H9NO2S/c1-6-4-2-3-5-7(6)11(8,9)10/h2-5H,1H3,(H2,8,9,10)
computed SMILES=O=S(=O)(N)C=1C=CC=CC1C
accession=JP010795
date=2016.01.19 (Created 2008.10.21, modified 2011.05.06)
author=FUJISE Y, HAMAMATSU UNIV. SCHOOL OF MEDICINE
license=CC BY-NC-SA
exact mass=171.0354
ionization energy=70 eV
ion type=[M]+*
computed spectral entropy=2.6615134354412664
computed normalized entropy=0.7370739240904752
SPLASH=splash10-0006-9400000000-d46a6ace1b3589e48012
submitter=submitter = University of Tokyo Team (Faculty of Engineering, University of Tokyo)
MoNA Rating=3.75

>  <NUM PEAKS>  (919) 
37

>  <MASS SPECTRAL PEAKS>  (919) 
41 2.81
48 1.2
50 4.31
51 7.36
52 1.98
53 1.18
62 3.17
63 10.66
64 3.46
65 26.32
66 1.75
69 1.04
74 1.26
75 1.4
76 3.59
77 6.84
78 4.11
79 2.72
89 19.78
90 99.99
91 75.17
92 6.09
103 1.68
106 61.59
107 15.46
108 3.39
109 1.85
119 1.87
136 2.02
137 15.21
138 1.59
154 10.96
155 2.65
167 1.97
171 31.65
172 2.84
173 1.64

$$$$

     RDKit          2D

 10 10  0  0  0  0  0  0  0  0999 V2000
    0.0008   -2.2500    0.0000 C   0  0  0  0  0  0  0  0  0  0  0  0
   -1.2992    0.0000    0.0000 C   0  0  0  0  0  0  0  0  0  0  0  0
   -1.2992   -3.0000    0.0000 C   0  0  0  0  0  0  0  0  0  0  0  0
   -2.5992   -0.7500    0.0000 C   0  0  0  0  0  0  0  0  0  0  0  0
    0.0008   -0.7500    0.0000 C   0  0  0  0  0  0  0  0  0  0  0  0
   -2.5992   -2.2500    0.0000 C   0  0  0  0  0  0  0  0  0  0  0  0
    1.2998    0.0002    0.0000 N   0  0  0  0  0  0  0  0  0  0  0  0
   -3.8981   -3.0002    0.0000 O   0  0  0  0  0  0  0  0  0  0  0  0
    2.5989   -0.7496    0.0000 O   0  0  0  0  0  0  0  0  0  0  0  0
    1.2995    1.5002    0.0000 O   0  0  0  0  0  0  0  0  0  0  0  0
  3  1  2  0
  4  2  1  0
  5  1  1  0
  5  2  2  0
  6  3  1  0
  6  4  2  0
  7  5  1  0
  8  6  1  0
  9  7  1  0
 10  7  2  0
M  CHG  2   7   1   9  -1
M  END
>  <NAME>  (920) 
4-NITROPHENOL

>  <SYNONYMS>  (920) 


>  <SPECTRUM TYPE>  (920) 
MS1

>  <INSTRUMENT TYPE>  (920) 
EI-B

>  <INSTRUMENT>  (920) 
JEOL JMS-D-300

>  <ION MODE>  (920) 
P

>  <INCHIKEY>  (920) 
BTJIUGUIPKRLHP-UHFFFAOYSA-N

>  <FORMULA>  (920) 
C6H5NO3

>  <EXACT MASS>  (920) 
139.02694302

>  <MW>  (920) 
139

>  <ID>  (920) 
JP010794

>  <CONTRIBUTOR>  (920) 
University of Tokyo Team, {Faculty of Engineering, University of Tokyo

>  <COMMENT>  (920) 
SMILES=Oc(c1)ccc(c1)[N+1]([O-1])=O
InChI=InChI=1S/C6H5NO3/c8-6-3-1-5(2-4-6)7(9)10/h1-4,8H
computed SMILES=O=N(=O)C1=CC=C(O)C=C1
accession=JP010794
date=2016.01.19 (Created 2008.10.21, modified 2011.05.06)
author=FUJISE Y, HAMAMATSU UNIV. SCHOOL OF MEDICINE
license=CC BY-NC-SA
exact mass=139.02694
ionization energy=70 eV
ion type=[M]+*
computed spectral entropy=2.564252611946927
computed normalized entropy=0.7398869053684807
SPLASH=splash10-00kr-9800000000-922ed2e0967364251838
submitter=submitter = University of Tokyo Team (Faculty of Engineering, University of Tokyo)
MoNA Rating=3.75

>  <NUM PEAKS>  (920) 
32

>  <MASS SPECTRAL PEAKS>  (920) 
40 4.66
43 1.31
50 4.3
51 5.1
52 6.82
53 10.96
54 2.19
55 1.47
57 1.83
61 2.55
62 5.34
63 11.36
64 6.3
65 53.53
66 4.38
74 2.59
75 1.99
79 1.75
80 1.39
81 10.25
92 1.59
93 19.9
94 1.47
105 1.75
107 9.25
108 1.79
109 15.47
110 1.83
123 4.82
135 3.51
139 99.99
140 7.06

$$$$

     RDKit          2D

 11 11  0  0  0  0  0  0  0  0999 V2000
   -3.5376   -0.2051    0.0000 C   0  0  0  0  0  0  0  0  0  0  0  0
   -2.2386   -2.4551    0.0000 C   0  0  0  0  0  0  0  0  0  0  0  0
    2.9576    2.0449    0.0000 C   0  0  0  0  0  0  0  0  0  0  0  0
    0.3590    2.0458    0.0000 C   0  0  0  0  0  0  0  0  0  0  0  0
   -0.9400    1.2958    0.0000 C   0  0  0  0  0  0  0  0  0  0  0  0
    1.6590   -0.2059    0.0000 C   0  0  0  0  0  0  0  0  0  0  0  0
   -2.2386   -0.9551    0.0000 C   0  0  0  0  0  0  0  0  0  0  0  0
    1.6585    1.2949    0.0000 C   0  0  0  0  0  0  0  0  0  0  0  0
   -0.9395   -0.2051    0.0000 C   0  0  0  0  0  0  0  0  0  0  0  0
    0.3600   -0.9559    0.0000 C   0  0  0  0  0  0  0  0  0  0  0  0
    0.3597   -2.4559    0.0000 O   0  0  0  0  0  0  0  0  0  0  0  0
  5  4  2  0
  7  1  1  0
  7  2  1  0
  8  3  1  0
  8  4  1  0
  8  6  2  0
  9  5  1  0
  9  7  1  0
 10  6  1  0
 10  9  2  0
 11 10  1  0
M  END
>  <NAME>  (921) 
THYMOL

>  <SYNONYMS>  (921) 
5-METHYL-2-(1-METHYLETHYL)PHENOL

>  <SPECTRUM TYPE>  (921) 
MS1

>  <INSTRUMENT TYPE>  (921) 
EI-B

>  <INSTRUMENT>  (921) 
JEOL JMS-D-300

>  <ION MODE>  (921) 
P

>  <INCHIKEY>  (921) 
MGSRCZKZVOBKFT-UHFFFAOYSA-N

>  <FORMULA>  (921) 
C10H14O

>  <EXACT MASS>  (921) 
150.104465068

>  <MW>  (921) 
150

>  <ID>  (921) 
JP010793

>  <CONTRIBUTOR>  (921) 
University of Tokyo Team, {Faculty of Engineering, University of Tokyo

>  <COMMENT>  (921) 
SMILES=CC(C)c(c1)c(O)cc(C)c1
InChI=InChI=1S/C10H14O/c1-7(2)9-5-4-8(3)6-10(9)11/h4-7,11H,1-3H3
computed SMILES=OC1=CC(=CC=C1C(C)C)C
accession=JP010793
date=2016.01.19 (Created 2008.10.21, modified 2011.05.06)
author=FUJISE Y, HAMAMATSU UNIV. SCHOOL OF MEDICINE
license=CC BY-NC-SA
exact mass=150.10447
ionization energy=70 eV
ion type=[M]+*
computed spectral entropy=2.2643777885842584
computed normalized entropy=0.6533613212579255
SPLASH=splash10-000i-2900000000-0bfe5d4a8168912cbcc8
submitter=submitter = University of Tokyo Team (Faculty of Engineering, University of Tokyo)
MoNA Rating=3.75

>  <NUM PEAKS>  (921) 
32

>  <MASS SPECTRAL PEAKS>  (921) 
42 2.63
51 3.31
52 1.16
53 1.89
63 1.55
65 2.95
66 1.68
67 1.7
68 2.63
74 1.05
77 4.4
78 1.61
79 2.45
91 10.65
92 1.19
102 1.21
103 1.19
105 2.9
107 2.95
115 7.07
116 2.54
117 8.02
121 1.7
133 1.57
134 2
135 99.99
136 9.65
145 1.27
146 1.37
148 1.07
150 30.55
151 3.31

$$$$

     RDKit          2D

  8  8  0  0  0  0  0  0  0  0999 V2000
    0.6513   -2.2440    0.0000 C   0  0  0  0  0  0  0  0  0  0  0  0
    1.9458   -1.5018    0.0000 C   0  0  0  0  0  0  0  0  0  0  0  0
   -0.6478   -1.4940    0.0000 C   0  0  0  0  0  0  0  0  0  0  0  0
    1.9463   -0.0009    0.0000 C   0  0  0  0  0  0  0  0  0  0  0  0
   -0.6523   -0.0018    0.0000 C   0  0  0  0  0  0  0  0  0  0  0  0
    0.6472    0.7491    0.0000 C   0  0  0  0  0  0  0  0  0  0  0  0
   -1.9526    0.7460    0.0000 N   0  0  0  0  0  0  0  0  0  0  0  0
    0.6470    2.2491    0.0000 N   0  0  0  0  0  0  0  0  0  0  0  0
  2  1  2  0
  3  1  1  0
  4  2  1  0
  5  3  2  0
  6  4  2  0
  6  5  1  0
  7  5  1  0
  8  6  1  0
M  END
>  <NAME>  (922) 
ORTHO-PHENYLENEDIAMINE

>  <SYNONYMS>  (922) 


>  <SPECTRUM TYPE>  (922) 
MS1

>  <INSTRUMENT TYPE>  (922) 
EI-B

>  <INSTRUMENT>  (922) 
JEOL JMS-D-300

>  <ION MODE>  (922) 
P

>  <INCHIKEY>  (922) 
GEYOCULIXLDCMW-UHFFFAOYSA-N

>  <FORMULA>  (922) 
C6H8N2

>  <EXACT MASS>  (922) 
108.06874825599999

>  <MW>  (922) 
108

>  <ID>  (922) 
JP010792

>  <CONTRIBUTOR>  (922) 
University of Tokyo Team, {Faculty of Engineering, University of Tokyo

>  <COMMENT>  (922) 
SMILES=Nc(c1)c(N)ccc1
InChI=InChI=1S/C6H8N2/c7-5-3-1-2-4-6(5)8/h1-4H,7-8H2
computed SMILES=NC=1C=CC=CC1N
accession=JP010792
date=2016.01.19 (Created 2008.10.21, modified 2011.05.06)
author=FUJISE Y, HAMAMATSU UNIV. SCHOOL OF MEDICINE
license=CC BY-NC-SA
exact mass=108.06875
ionization energy=70 eV
ion type=[M]+*
computed spectral entropy=2.418701038782297
computed normalized entropy=0.7338655209942421
SPLASH=splash10-0a4i-7900000000-b90823665900ff559f6d
submitter=submitter = University of Tokyo Team (Faculty of Engineering, University of Tokyo)
MoNA Rating=3.75

>  <NUM PEAKS>  (922) 
27

>  <MASS SPECTRAL PEAKS>  (922) 
40 2.08
42 2.62
50 3.34
51 4.88
52 8.74
53 9.93
54 10.77
63 2.47
64 4.28
65 2.5
66 1.16
67 1.93
75 1.16
76 2.22
77 10.13
78 3.19
79 3.27
80 30.72
81 9.71
90 1.36
91 2.92
104 4.58
105 3.54
106 3.56
107 19.22
108 99.99
109 7.33

$$$$

     RDKit          2D

 13 15  0  0  0  0  0  0  0  0999 V2000
   -3.4600    0.2100    0.0000 C   0  0  0  0  0  0  0  0  0  0  0  0
    2.6700    2.2000    0.0000 C   0  0  0  0  0  0  0  0  0  0  0  0
   -3.4600   -1.2900    0.0000 C   0  0  0  0  0  0  0  0  0  0  0  0
    3.5500    0.9900    0.0000 C   0  0  0  0  0  0  0  0  0  0  0  0
   -2.1600    0.9600    0.0000 C   0  0  0  0  0  0  0  0  0  0  0  0
    1.1800    2.0400    0.0000 C   0  0  0  0  0  0  0  0  0  0  0  0
   -2.1600   -2.0400    0.0000 C   0  0  0  0  0  0  0  0  0  0  0  0
    2.9400   -0.3800    0.0000 C   0  0  0  0  0  0  0  0  0  0  0  0
   -0.8600    0.2100    0.0000 C   0  0  0  0  0  0  0  0  0  0  0  0
    0.5700    0.6700    0.0000 C   0  0  0  0  0  0  0  0  0  0  0  0
   -0.8600   -1.2900    0.0000 C   0  0  0  0  0  0  0  0  0  0  0  0
    1.4500   -0.5400    0.0000 C   0  0  0  0  0  0  0  0  0  0  0  0
    0.5700   -1.7500    0.0000 O   0  0  0  0  0  0  0  0  0  0  0  0
  3  1  2  0
  4  2  2  0
  5  1  1  0
  6  2  1  0
  7  3  1  0
  8  4  1  0
  9  5  2  0
 10  6  2  0
 10  9  1  0
 11  7  2  0
 11  9  1  0
 12  8  2  0
 12 10  1  0
 13 11  1  0
 13 12  1  0
M  END
>  <NAME>  (923) 
DIBENZOFURAN

>  <SYNONYMS>  (923) 


>  <SPECTRUM TYPE>  (923) 
MS1

>  <INSTRUMENT TYPE>  (923) 
EI-B

>  <INSTRUMENT>  (923) 
JEOL JMS-D-300

>  <ION MODE>  (923) 
P

>  <INCHIKEY>  (923) 
TXCDCPKCNAJMEE-UHFFFAOYSA-N

>  <FORMULA>  (923) 
C12H8O

>  <EXACT MASS>  (923) 
168.057514876

>  <MW>  (923) 
168

>  <ID>  (923) 
JP010791

>  <CONTRIBUTOR>  (923) 
University of Tokyo Team, {Faculty of Engineering, University of Tokyo

>  <COMMENT>  (923) 
SMILES=c(c3)cc(o1)c(c3)c(c2)c(ccc2)1
InChI=InChI=1S/C12H8O/c1-3-7-11-9(5-1)10-6-2-4-8-12(10)13-11/h1-8H
computed SMILES=O1C=2C=CC=CC2C=3C=CC=CC13
accession=JP010791
date=2016.01.19 (Created 2008.10.21, modified 2011.05.06)
exact mass=168.05751
author=FUJISE Y, HAMAMATSU UNIV. SCHOOL OF MEDICINE
license=CC BY-NC-SA
ionization energy=70 eV
ion type=[M]+*
computed spectral entropy=1.713663223975207
computed normalized entropy=0.5928867867234294
SPLASH=splash10-014i-2900000000-47fc32972159b3a0a9a2
submitter=submitter = University of Tokyo Team (Faculty of Engineering, University of Tokyo)
MoNA Rating=3.75

>  <NUM PEAKS>  (923) 
18

>  <MASS SPECTRAL PEAKS>  (923) 
50 1.23
51 1.62
62 1.65
63 3.54
69 5.44
70 2.9
74 1.48
75 1.46
84 12.87
87 1.67
88 1.28
89 1.75
113 2.17
114 2.29
139 21.01
140 3.05
168 99.99
169 13.51

$$$$

     RDKit          2D

 10 10  0  0  0  0  0  0  0  0999 V2000
    4.2219   -2.0625    0.0000 C   0  0  0  0  0  0  0  0  0  0  0  0
    2.9228   -1.3125    0.0000 C   0  0  0  0  0  0  0  0  0  0  0  0
   -2.2738   -1.3133    0.0000 C   0  0  0  0  0  0  0  0  0  0  0  0
   -0.9738    0.9383    0.0000 C   0  0  0  0  0  0  0  0  0  0  0  0
   -0.9748   -2.0633    0.0000 C   0  0  0  0  0  0  0  0  0  0  0  0
    0.3252    0.1883    0.0000 C   0  0  0  0  0  0  0  0  0  0  0  0
   -2.2733    0.1875    0.0000 C   0  0  0  0  0  0  0  0  0  0  0  0
    0.3248   -1.3125    0.0000 C   0  0  0  0  0  0  0  0  0  0  0  0
   -3.5724    0.9375    0.0000 O   0  0  0  0  0  0  0  0  0  0  0  0
    1.6238   -2.0625    0.0000 O   0  0  0  0  0  0  0  0  0  0  0  0
  2  1  1  0
  5  3  2  0
  6  4  1  0
  7  3  1  0
  7  4  2  0
  8  5  1  0
  8  6  2  0
  9  7  1  0
 10  2  1  0
 10  8  1  0
M  END
>  <NAME>  (924) 
4-ETHOXYPHENOL

>  <SYNONYMS>  (924) 


>  <SPECTRUM TYPE>  (924) 
MS1

>  <INSTRUMENT TYPE>  (924) 
EI-B

>  <INSTRUMENT>  (924) 
JEOL JMS-D-300

>  <ION MODE>  (924) 
P

>  <INCHIKEY>  (924) 
LKVFCSWBKOVHAH-UHFFFAOYSA-N

>  <FORMULA>  (924) 
C8H10O2

>  <EXACT MASS>  (924) 
138.06807956

>  <MW>  (924) 
138

>  <ID>  (924) 
JP010790

>  <CONTRIBUTOR>  (924) 
University of Tokyo Team, {Faculty of Engineering, University of Tokyo

>  <COMMENT>  (924) 
SMILES=CCOc(c1)ccc(O)c1
InChI=InChI=1S/C8H10O2/c1-2-10-8-5-3-7(9)4-6-8/h3-6,9H,2H2,1H3
computed SMILES=OC1=CC=C(OCC)C=C1
accession=JP010790
date=2016.01.19 (Created 2008.10.21, modified 2011.05.06)
author=FUJISE Y, HAMAMATSU UNIV. SCHOOL OF MEDICINE
license=CC BY-NC-SA
exact mass=138.06808
ionization energy=70 eV
ion type=[M]+*
computed spectral entropy=1.9413088708460202
computed normalized entropy=0.6593136704757242
SPLASH=splash10-03di-2900000000-7423a2f75c2261875b5e
submitter=submitter = University of Tokyo Team (Faculty of Engineering, University of Tokyo)
MoNA Rating=3.75

>  <NUM PEAKS>  (924) 
19

>  <MASS SPECTRAL PEAKS>  (924) 
43 1.03
44 2.22
50 1.21
51 1.91
52 1.98
53 6.52
54 4.36
55 5.45
63 2.13
64 1.57
65 3.68
81 12.86
82 6.63
108 1.27
109 15.08
110 99.99
111 7.01
138 45.52
139 4.22

$$$$

     RDKit          2D

  9  9  0  0  0  0  0  0  0  0999 V2000
    2.5989    0.0004    0.0000 C   0  0  0  0  0  0  0  0  0  0  0  0
    0.0000    1.5002    0.0000 C   0  0  0  0  0  0  0  0  0  0  0  0
    1.3000   -2.2498    0.0000 C   0  0  0  0  0  0  0  0  0  0  0  0
   -0.0000   -2.9998    0.0000 C   0  0  0  0  0  0  0  0  0  0  0  0
   -1.3000   -0.7498    0.0000 C   0  0  0  0  0  0  0  0  0  0  0  0
    1.3000   -0.7498    0.0000 C   0  0  0  0  0  0  0  0  0  0  0  0
    0.0000    0.0002    0.0000 C   0  0  0  0  0  0  0  0  0  0  0  0
   -1.3000   -2.2498    0.0000 C   0  0  0  0  0  0  0  0  0  0  0  0
   -2.5989   -3.0000    0.0000 N   0  0  0  0  0  0  0  0  0  0  0  0
  4  3  2  0
  6  1  1  0
  6  3  1  0
  7  2  1  0
  7  5  1  0
  7  6  2  0
  8  4  1  0
  8  5  2  0
  9  8  1  0
M  END
>  <NAME>  (925) 
3,4-XYLIDINE

>  <SYNONYMS>  (925) 


>  <SPECTRUM TYPE>  (925) 
MS1

>  <INSTRUMENT TYPE>  (925) 
EI-B

>  <INSTRUMENT>  (925) 
JEOL JMS-D-300

>  <ION MODE>  (925) 
P

>  <INCHIKEY>  (925) 
DOLQYFPDPKPQSS-UHFFFAOYSA-N

>  <FORMULA>  (925) 
C8H11N

>  <EXACT MASS>  (925) 
121.08914935199999

>  <MW>  (925) 
121

>  <ID>  (925) 
JP010789

>  <CONTRIBUTOR>  (925) 
University of Tokyo Team, {Faculty of Engineering, University of Tokyo

>  <COMMENT>  (925) 
SMILES=Nc(c1)cc(C)c(C)c1
InChI=InChI=1S/C8H11N/c1-6-3-4-8(9)5-7(6)2/h3-5H,9H2,1-2H3
computed SMILES=NC1=CC=C(C(=C1)C)C
accession=JP010789
date=2016.01.19 (Created 2008.10.21, modified 2011.05.06)
author=FUJISE Y, HAMAMATSU UNIV. SCHOOL OF MEDICINE
license=CC BY-NC-SA
exact mass=121.08915
ionization energy=70 eV
ion type=[M]+*
computed spectral entropy=2.4484854133707756
computed normalized entropy=0.6943378013333702
SPLASH=splash10-00di-3900000000-cdf20b1f3701fa29813f
submitter=submitter = University of Tokyo Team (Faculty of Engineering, University of Tokyo)
MoNA Rating=3.75

>  <NUM PEAKS>  (925) 
34

>  <MASS SPECTRAL PEAKS>  (925) 
42 3.68
43 2.51
47 1.7
50 2.17
51 5.35
52 4.13
53 6.56
54 2.08
58 4.91
59 4.47
60 3.52
63 2.27
65 4.78
66 2.04
67 1.11
77 14.27
78 4.15
79 3.84
80 2.62
91 8.92
92 2.11
93 5.08
94 1.74
103 3.32
104 2.98
105 1.89
106 59.05
107 4.8
117 1.41
118 4.23
119 3.86
120 88.67
121 99.99
122 9.14

$$$$

     RDKit          2D

 10 10  0  0  0  0  0  0  0  0999 V2000
    2.2730   -0.9380    0.0000 C   0  0  0  0  0  0  0  0  0  0  0  0
    3.5721   -0.1880    0.0000 C   0  0  0  0  0  0  0  0  0  0  0  0
    0.9735   -0.1871    0.0000 C   0  0  0  0  0  0  0  0  0  0  0  0
    3.5716    1.3129    0.0000 C   0  0  0  0  0  0  0  0  0  0  0  0
   -0.3261    2.0635    0.0000 C   0  0  0  0  0  0  0  0  0  0  0  0
    0.9730    1.3137    0.0000 C   0  0  0  0  0  0  0  0  0  0  0  0
    2.2721    2.0637    0.0000 C   0  0  0  0  0  0  0  0  0  0  0  0
   -1.6250    1.3133    0.0000 N   0  0  0  0  0  0  0  0  0  0  0  0
    2.2723    3.5637    0.0000 O   0  0  0  0  0  0  0  0  0  0  0  0
   -2.9242    2.0631    0.0000 O   0  0  0  0  0  0  0  0  0  0  0  0
  2  1  2  0
  3  1  1  0
  4  2  1  0
  6  3  2  0
  6  5  1  0
  7  4  2  0
  7  6  1  0
  5  8  2  0
  9  7  1  0
 10  8  1  0
M  END
>  <NAME>  (926) 
SALICYLALDEHYDE OXIME

>  <SYNONYMS>  (926) 


>  <SPECTRUM TYPE>  (926) 
MS1

>  <INSTRUMENT TYPE>  (926) 
EI-B

>  <INSTRUMENT>  (926) 
JEOL JMS-D-300

>  <ION MODE>  (926) 
P

>  <INCHIKEY>  (926) 
ORIHZIZPTZTNCU-VMPITWQZSA-N

>  <FORMULA>  (926) 
C7H7NO2

>  <EXACT MASS>  (926) 
137.047678464

>  <MW>  (926) 
137

>  <ID>  (926) 
JP010788

>  <CONTRIBUTOR>  (926) 
University of Tokyo Team, {Faculty of Engineering, University of Tokyo

>  <COMMENT>  (926) 
SMILES=ON=Cc(c1)c(O)ccc1
InChI=InChI=1S/C7H7NO2/c9-7-4-2-1-3-6(7)5-8-10/h1-5,9-10H/b8-5+
computed SMILES=ON=CC=1C=CC=CC1O
accession=JP010788
date=2016.01.19 (Created 2008.10.21, modified 2011.05.06)
author=FUJISE Y, HAMAMATSU UNIV. SCHOOL OF MEDICINE
license=CC BY-NC-SA
exact mass=137.04768
ionization energy=70 eV
ion type=[M]+*
computed spectral entropy=2.82043473117555
computed normalized entropy=0.7753588801282715
SPLASH=splash10-00ku-9700000000-5a3ed0bd70199d0e7771
submitter=submitter = University of Tokyo Team (Faculty of Engineering, University of Tokyo)
MoNA Rating=3.75

>  <NUM PEAKS>  (926) 
38

>  <MASS SPECTRAL PEAKS>  (926) 
42 5.13
46 3.02
50 5.99
51 10.61
52 8.17
53 5.86
54 1.46
55 1.35
60 1.46
61 2.42
62 4.55
63 16.44
64 29.46
65 23.91
66 4.53
68 1.71
69 4.01
74 1.65
75 2.84
76 2.74
77 7.32
78 2.93
80 1.7
81 1.59
90 2.64
91 67.17
92 13.63
93 4.51
94 2.43
102 9.96
103 1.05
105 2.81
118 1.09
119 46.94
120 22.91
121 9.87
137 99.99
138 8.46

$$$$

     RDKit          2D

  9  9  0  0  0  0  0  0  0  0999 V2000
   -1.3000    0.7500    0.0000 C   0  0  0  0  0  0  0  0  0  0  0  0
    0.0000    1.5000    0.0000 C   0  0  0  0  0  0  0  0  0  0  0  0
   -0.0000   -1.5000    0.0000 C   0  0  0  0  0  0  0  0  0  0  0  0
   -1.3000   -0.7500    0.0000 C   0  0  0  0  0  0  0  0  0  0  0  0
    1.3000   -0.7500    0.0000 C   0  0  0  0  0  0  0  0  0  0  0  0
    1.3000    0.7500    0.0000 C   0  0  0  0  0  0  0  0  0  0  0  0
   -2.5989   -1.5002    0.0000 Cl  0  0  0  0  0  0  0  0  0  0  0  0
    2.5989   -1.5002    0.0000 Cl  0  0  0  0  0  0  0  0  0  0  0  0
    2.5989    1.5002    0.0000 N   0  0  0  0  0  0  0  0  0  0  0  0
  2  1  2  0
  4  1  1  0
  4  3  2  0
  5  3  1  0
  6  2  1  0
  6  5  2  0
  7  4  1  0
  8  5  1  0
  9  6  1  0
M  END
>  <NAME>  (927) 
2,4-DICHLOROANILINE

>  <SYNONYMS>  (927) 


>  <SPECTRUM TYPE>  (927) 
MS1

>  <INSTRUMENT TYPE>  (927) 
EI-B

>  <INSTRUMENT>  (927) 
JEOL JMS-D-300

>  <ION MODE>  (927) 
P

>  <INCHIKEY>  (927) 
KQCMTOWTPBNWDB-UHFFFAOYSA-N

>  <FORMULA>  (927) 
C6H5Cl2N

>  <EXACT MASS>  (927) 
160.97990452

>  <MW>  (927) 
161

>  <ID>  (927) 
JP010787

>  <CONTRIBUTOR>  (927) 
University of Tokyo Team, {Faculty of Engineering, University of Tokyo

>  <COMMENT>  (927) 
SMILES=Nc(c1)c(Cl)cc(Cl)c1
InChI=InChI=1S/C6H5Cl2N/c7-4-1-2-6(9)5(8)3-4/h1-3H,9H2
computed SMILES=ClC1=CC=C(N)C(Cl)=C1
accession=JP010787
date=2016.01.19 (Created 2008.10.21, modified 2011.05.06)
author=FUJISE Y, HAMAMATSU UNIV. SCHOOL OF MEDICINE
license=CC BY-NC-SA
exact mass=160.9799
ionization energy=70 eV
ion type=[M]+*
computed spectral entropy=2.7142424401606204
computed normalized entropy=0.7357904951688311
SPLASH=splash10-03di-4900000000-8687f2415b8e8f7ba643
submitter=submitter = University of Tokyo Team (Faculty of Engineering, University of Tokyo)
MoNA Rating=3.75

>  <NUM PEAKS>  (927) 
40

>  <MASS SPECTRAL PEAKS>  (927) 
42 1.93
45 4.51
46 1.49
49 1.11
50 1.43
52 4.41
61 2.91
62 7.14
63 11.69
64 2.79
65 2.45
72 1.16
73 4.7
74 1.55
75 1.91
80 8.25
81 5.41
89 2.38
90 14.86
91 3.27
97 1.44
98 4.44
99 10.7
100 2.31
101 3.89
124 1.07
125 6.64
126 8.07
127 2.61
128 2.58
133 3.73
134 2.09
135 2.65
136 1.33
160 1.54
161 99.99
162 7.99
163 63.93
164 4.53
165 10.58

$$$$

     RDKit          2D

  5  4  0  0  0  0  0  0  0  0999 V2000
   -0.0000   -0.0000    0.0000 C   0  0  0  0  0  0  0  0  0  0  0  0
    0.0000    1.5000    0.0000 C   0  0  0  0  0  0  0  0  0  0  0  0
   -1.2990    2.2500    0.0000 C   0  0  0  0  0  0  0  0  0  0  0  0
   -1.2990    3.7500    0.0000 N   0  0  0  0  0  0  0  0  0  0  0  0
   -2.5981    1.5000    0.0000 O   0  0  0  0  0  0  0  0  0  0  0  0
  2  1  1  0
  3  2  1  0
  4  3  2  0
  5  3  1  0
M  END
>  <NAME>  (928) 
PROPIONAMIDE

>  <SYNONYMS>  (928) 


>  <SPECTRUM TYPE>  (928) 
MS1

>  <INSTRUMENT TYPE>  (928) 
EI-B

>  <INSTRUMENT>  (928) 
JEOL JMS-D-300

>  <ION MODE>  (928) 
P

>  <INCHIKEY>  (928) 
QLNJFJADRCOGBJ-UHFFFAOYSA-N

>  <FORMULA>  (928) 
C3H7NO

>  <EXACT MASS>  (928) 
73.052763844

>  <MW>  (928) 
73

>  <ID>  (928) 
JP010786

>  <CONTRIBUTOR>  (928) 
University of Tokyo Team, {Faculty of Engineering, University of Tokyo

>  <COMMENT>  (928) 
SMILES=CCC(N)=O
InChI=InChI=1S/C3H7NO/c1-2-3(4)5/h2H2,1H3,(H2,4,5)
computed SMILES=N=C(O)CC
accession=JP010786
date=2016.01.19 (Created 2008.10.21, modified 2011.05.06)
author=FUJISE Y, HAMAMATSU UNIV. SCHOOL OF MEDICINE
license=CC BY-NC-SA
exact mass=73.05276
ionization energy=70 eV
ion type=[M]+*
computed spectral entropy=1.4507063287616944
computed normalized entropy=0.6049915295377782
SPLASH=splash10-0006-9000000000-267e4a1338b305b8087d
submitter=submitter = University of Tokyo Team (Faculty of Engineering, University of Tokyo)
MoNA Rating=3.75

>  <NUM PEAKS>  (928) 
11

>  <MASS SPECTRAL PEAKS>  (928) 
43 2.06
44 99.99
45 4.79
54 1.47
55 5.32
56 2.68
57 17.07
72 8.32
73 46.79
74 1.93
191 1.19

$$$$

     RDKit          2D

 11 11  0  0  0  0  0  0  0  0999 V2000
   -0.9401    1.7059    0.0000 C   0  0  0  0  0  0  0  0  0  0  0  0
    0.3589    2.4559    0.0000 C   0  0  0  0  0  0  0  0  0  0  0  0
    0.3599   -0.5458    0.0000 C   0  0  0  0  0  0  0  0  0  0  0  0
   -0.9396    0.2051    0.0000 C   0  0  0  0  0  0  0  0  0  0  0  0
    1.6589    0.2042    0.0000 C   0  0  0  0  0  0  0  0  0  0  0  0
    1.6585    1.7051    0.0000 C   0  0  0  0  0  0  0  0  0  0  0  0
    2.9581   -0.5456    0.0000 C   0  0  0  0  0  0  0  0  0  0  0  0
   -2.2386   -0.5449    0.0000 O   0  0  0  0  0  0  0  0  0  0  0  0
    2.9575    2.4551    0.0000 O   0  0  0  0  0  0  0  0  0  0  0  0
    4.2570    0.2046    0.0000 O   0  0  0  0  0  0  0  0  0  0  0  0
    2.9583   -2.0456    0.0000 O   0  0  0  0  0  0  0  0  0  0  0  0
  2  1  2  0
  4  1  1  0
  4  3  2  0
  5  3  1  0
  6  2  1  0
  6  5  2  0
  7  5  1  0
  8  4  1  0
  9  6  1  0
 10  7  2  0
 11  7  1  0
M  END
>  <NAME>  (929) 
2,5-DIHYDROXYBENZOIC ACID

>  <SYNONYMS>  (929) 


>  <SPECTRUM TYPE>  (929) 
MS1

>  <INSTRUMENT TYPE>  (929) 
EI-B

>  <INSTRUMENT>  (929) 
JEOL JMS-D-300

>  <ION MODE>  (929) 
P

>  <INCHIKEY>  (929) 
WXTMDXOMEHJXQO-UHFFFAOYSA-N

>  <FORMULA>  (929) 
C7H6O4

>  <EXACT MASS>  (929) 
154.026608672

>  <MW>  (929) 
154

>  <ID>  (929) 
JP010785

>  <CONTRIBUTOR>  (929) 
University of Tokyo Team, {Faculty of Engineering, University of Tokyo

>  <COMMENT>  (929) 
SMILES=Oc(c1)cc(C(O)=O)c(O)c1
InChI=InChI=1S/C7H6O4/c8-4-1-2-6(9)5(3-4)7(10)11/h1-3,8-9H,(H,10,11)
computed SMILES=O=C(O)C1=CC(O)=CC=C1O
accession=JP010785
date=2016.01.19 (Created 2008.10.21, modified 2011.05.06)
author=FUJISE Y, HAMAMATSU UNIV. SCHOOL OF MEDICINE
license=CC BY-NC-SA
exact mass=154.02661
ionization energy=70 eV
ion type=[M]+*
computed spectral entropy=2.5324809676302174
computed normalized entropy=0.7683878391409713
SPLASH=splash10-0f79-7900000000-20ee71dd59e0987ea16e
submitter=submitter = University of Tokyo Team (Faculty of Engineering, University of Tokyo)
MoNA Rating=3.75

>  <NUM PEAKS>  (929) 
27

>  <MASS SPECTRAL PEAKS>  (929) 
42 1.24
45 2.65
50 4.55
51 9.42
52 30.23
53 18.76
54 10.36
55 4.77
61 1.52
62 2.32
63 3.04
68 1.22
69 3.27
79 5.12
80 32.68
81 5.81
82 11.68
107 3.28
108 28.87
109 3.43
110 1.73
135 3.5
136 99.99
137 9.63
138 1.05
154 32.4
155 2.64

$$$$

     RDKit          2D

 15 15  0  0  0  0  0  0  0  0999 V2000
    3.1108   -1.3066    0.0000 C   0  0  0  0  0  0  0  0  0  0  0  0
    3.6601    0.7423    0.0000 C   0  0  0  0  0  0  0  0  0  0  0  0
    1.6112    1.2917    0.0000 C   0  0  0  0  0  0  0  0  0  0  0  0
   -2.0858    1.2909    0.0000 C   0  0  0  0  0  0  0  0  0  0  0  0
   -4.1348    0.7419    0.0000 C   0  0  0  0  0  0  0  0  0  0  0  0
   -3.5858   -1.3071    0.0000 C   0  0  0  0  0  0  0  0  0  0  0  0
    1.0613   -2.2581    0.0000 C   0  0  0  0  0  0  0  0  0  0  0  0
   -0.2382   -3.0089    0.0000 C   0  0  0  0  0  0  0  0  0  0  0  0
   -0.2372   -0.0073    0.0000 C   0  0  0  0  0  0  0  0  0  0  0  0
    1.0618   -0.7573    0.0000 C   0  0  0  0  0  0  0  0  0  0  0  0
   -1.5367   -0.7581    0.0000 C   0  0  0  0  0  0  0  0  0  0  0  0
   -1.5372   -2.2589    0.0000 C   0  0  0  0  0  0  0  0  0  0  0  0
    2.3610   -0.0075    0.0000 C   0  0  0  0  0  0  0  0  0  0  0  0
   -2.8358   -0.0081    0.0000 C   0  0  0  0  0  0  0  0  0  0  0  0
   -2.8364   -3.0087    0.0000 O   0  0  0  0  0  0  0  0  0  0  0  0
  8  7  2  0
 10  7  1  0
 10  9  2  0
 11  9  1  0
 12  8  1  0
 12 11  2  0
 13  1  1  0
 13  2  1  0
 13  3  1  0
 13 10  1  0
 14  4  1  0
 14  5  1  0
 14  6  1  0
 14 11  1  0
 15 12  1  0
M  END
>  <NAME>  (930) 
2,4-DI-TERT-BUTYLPHENOL

>  <SYNONYMS>  (930) 


>  <SPECTRUM TYPE>  (930) 
MS1

>  <INSTRUMENT TYPE>  (930) 
EI-B

>  <INSTRUMENT>  (930) 
JEOL JMS-D-300

>  <ION MODE>  (930) 
P

>  <INCHIKEY>  (930) 
ICKWICRCANNIBI-UHFFFAOYSA-N

>  <FORMULA>  (930) 
C14H22O

>  <EXACT MASS>  (930) 
206.167065324

>  <MW>  (930) 
206

>  <ID>  (930) 
JP010784

>  <CONTRIBUTOR>  (930) 
University of Tokyo Team, {Faculty of Engineering, University of Tokyo

>  <COMMENT>  (930) 
SMILES=Oc(c1)c(cc(c1)C(C)(C)C)C(C)(C)C
InChI=InChI=1S/C14H22O/c1-13(2,3)10-7-8-12(15)11(9-10)14(4,5)6/h7-9,15H,1-6H3
computed SMILES=OC1=CC=C(C=C1C(C)(C)C)C(C)(C)C
accession=JP010784
date=2016.01.19 (Created 2008.10.21, modified 2011.05.06)
author=FUJISE Y, HAMAMATSU UNIV. SCHOOL OF MEDICINE
license=CC BY-NC-SA
exact mass=206.16707
ionization energy=70 eV
ion type=[M]+*
computed spectral entropy=2.61917844761176
computed normalized entropy=0.7007517290451938
SPLASH=splash10-0006-6910000000-1628f01584925f62f46b
submitter=submitter = University of Tokyo Team (Faculty of Engineering, University of Tokyo)
MoNA Rating=3.75

>  <NUM PEAKS>  (930) 
42

>  <MASS SPECTRAL PEAKS>  (930) 
42 16.22
43 1.35
51 2.45
52 1.13
53 1.84
55 2.99
57 43.11
58 2.11
60 4.11
64 1.36
65 2.13
66 2.53
67 1.13
72 1.13
73 4.62
74 11.23
77 3.49
79 1.69
87 1.11
88 4.72
91 4.65
105 2.26
107 3.6
115 3.11
116 1.16
117 1.64
119 1.21
121 1.22
128 1.74
129 1.11
133 1.5
135 1.95
147 1.83
149 0.99
161 1.74
163 4.8
175 3.72
191 99.99
192 15.09
193 1.14
206 15.76
207 2.42

$$$$

     RDKit          2D

  9  9  0  0  0  0  0  0  0  0999 V2000
   -0.0000   -1.5002    0.0000 C   0  0  0  0  0  0  0  0  0  0  0  0
   -2.5989    3.0000    0.0000 C   0  0  0  0  0  0  0  0  0  0  0  0
   -1.3000    0.7498    0.0000 C   0  0  0  0  0  0  0  0  0  0  0  0
    1.3000    0.7498    0.0000 C   0  0  0  0  0  0  0  0  0  0  0  0
   -0.0000    2.9998    0.0000 C   0  0  0  0  0  0  0  0  0  0  0  0
   -0.0000   -0.0002    0.0000 C   0  0  0  0  0  0  0  0  0  0  0  0
   -1.3000    2.2498    0.0000 C   0  0  0  0  0  0  0  0  0  0  0  0
    1.3000    2.2498    0.0000 C   0  0  0  0  0  0  0  0  0  0  0  0
    2.5989    3.0000    0.0000 O   0  0  0  0  0  0  0  0  0  0  0  0
  6  1  1  0
  6  3  2  0
  6  4  1  0
  7  2  1  0
  7  3  1  0
  7  5  2  0
  8  4  2  0
  8  5  1  0
  9  8  1  0
M  END
>  <NAME>  (931) 
3,5-DIMETHYLPHENOL

>  <SYNONYMS>  (931) 


>  <SPECTRUM TYPE>  (931) 
MS1

>  <INSTRUMENT TYPE>  (931) 
EI-B

>  <INSTRUMENT>  (931) 
JEOL JMS-D-300

>  <ION MODE>  (931) 
P

>  <INCHIKEY>  (931) 
TUAMRELNJMMDMT-UHFFFAOYSA-N

>  <FORMULA>  (931) 
C8H10O

>  <EXACT MASS>  (931) 
122.07316494

>  <MW>  (931) 
122

>  <ID>  (931) 
JP010783

>  <CONTRIBUTOR>  (931) 
University of Tokyo Team, {Faculty of Engineering, University of Tokyo

>  <COMMENT>  (931) 
SMILES=Cc(c1)cc(O)cc(C)1
InChI=InChI=1S/C8H10O/c1-6-3-7(2)5-8(9)4-6/h3-5,9H,1-2H3
computed SMILES=OC=1C=C(C=C(C1)C)C
accession=JP010783
date=2016.01.19 (Created 2008.10.21, modified 2011.05.06)
author=FUJISE Y, HAMAMATSU UNIV. SCHOOL OF MEDICINE
license=CC BY-NC-SA
exact mass=122.07316
ionization energy=70 eV
ion type=[M]+*
computed spectral entropy=2.550841077720063
computed normalized entropy=0.7233636662824535
SPLASH=splash10-05fr-4900000000-0a386de737f1bed610ab
submitter=submitter = University of Tokyo Team (Faculty of Engineering, University of Tokyo)
MoNA Rating=3.75

>  <NUM PEAKS>  (931) 
34

>  <MASS SPECTRAL PEAKS>  (931) 
42 4.68
43 3.12
45 1.29
46 1.1
50 4.46
51 10.58
52 4.32
53 8
55 2.79
60 3.66
61 2.27
62 1.68
63 4.02
65 6.24
66 1.8
67 1.81
74 1.16
77 23.47
78 6.14
79 13.62
80 1.29
81 1.03
91 12.3
92 1.54
93 4.25
94 1.72
103 2.77
104 2.36
105 3.6
107 81.31
108 6.53
121 36.2
122 99.99
123 9.07

$$$$

     RDKit          2D

 12 13  0  0  0  0  0  0  0  0999 V2000
    4.8268    2.7906    0.0000 C   0  0  0  0  0  0  0  0  0  0  0  0
    4.8275    1.2898    0.0000 C   0  0  0  0  0  0  0  0  0  0  0  0
    3.5271    3.5412    0.0000 C   0  0  0  0  0  0  0  0  0  0  0  0
    3.5286    0.5396    0.0000 C   0  0  0  0  0  0  0  0  0  0  0  0
    2.2282    2.7910    0.0000 C   0  0  0  0  0  0  0  0  0  0  0  0
    0.9300   -0.9600    0.0000 C   0  0  0  0  0  0  0  0  0  0  0  0
   -0.3700    1.2900    0.0000 C   0  0  0  0  0  0  0  0  0  0  0  0
   -0.3700   -1.7100    0.0000 C   0  0  0  0  0  0  0  0  0  0  0  0
   -1.6700    0.5400    0.0000 C   0  0  0  0  0  0  0  0  0  0  0  0
    2.2289    1.2902    0.0000 C   0  0  0  0  0  0  0  0  0  0  0  0
    0.9300    0.5400    0.0000 N   0  0  0  0  0  0  0  0  0  0  0  0
   -1.6700   -0.9600    0.0000 O   0  0  0  0  0  0  0  0  0  0  0  0
  2  1  2  0
  3  1  1  0
  4  2  1  0
  5  3  2  0
  8  6  1  0
  9  7  1  0
 10  4  2  0
 10  5  1  0
 11  6  1  0
 11  7  1  0
 11 10  1  0
 12  8  1  0
 12  9  1  0
M  END
>  <NAME>  (932) 
N-PHENYLMORPHOLINE

>  <SYNONYMS>  (932) 


>  <SPECTRUM TYPE>  (932) 
MS1

>  <INSTRUMENT TYPE>  (932) 
EI-B

>  <INSTRUMENT>  (932) 
JEOL JMS-D-300

>  <ION MODE>  (932) 
P

>  <INCHIKEY>  (932) 
FHQRDEDZJIFJAL-UHFFFAOYSA-N

>  <FORMULA>  (932) 
C10H13NO

>  <EXACT MASS>  (932) 
163.099714036

>  <MW>  (932) 
163

>  <ID>  (932) 
JP010782

>  <CONTRIBUTOR>  (932) 
University of Tokyo Team, {Faculty of Engineering, University of Tokyo

>  <COMMENT>  (932) 
SMILES=O(C2)CCN(C2)c(c1)cccc1
InChI=InChI=1S/C10H13NO/c1-2-4-10(5-3-1)11-6-8-12-9-7-11/h1-5H,6-9H2
computed SMILES=O1CCN(C=2C=CC=CC2)CC1
accession=JP010782
date=2016.01.19 (Created 2008.10.21, modified 2011.05.06)
author=FUJISE Y, HAMAMATSU UNIV. SCHOOL OF MEDICINE
license=CC BY-NC-SA
exact mass=163.09971
ionization energy=70 eV
ion type=[M]+*
computed spectral entropy=2.161805567987799
computed normalized entropy=0.6802293741359051
SPLASH=splash10-0bt9-2900000000-92054ab7453b9f90aba1
submitter=submitter = University of Tokyo Team (Faculty of Engineering, University of Tokyo)
MoNA Rating=3.75

>  <NUM PEAKS>  (932) 
24

>  <MASS SPECTRAL PEAKS>  (932) 
42 1.19
43 2.48
50 3.28
51 13.63
52 2.57
57 1.69
63 1.67
64 1
65 2.59
76 1.41
77 28.51
78 4.4
79 1.18
91 4.81
104 30.6
105 99.99
106 9.94
117 1.23
118 1.1
132 4.75
133 1.13
162 4.78
163 59.99
164 6.97

$$$$

     RDKit          2D

 10 11  0  0  0  0  0  0  0  0999 V2000
   -2.3100    0.7500    0.0000 C   0  0  0  0  0  0  0  0  0  0  0  0
   -2.3100   -0.7500    0.0000 C   0  0  0  0  0  0  0  0  0  0  0  0
   -1.0100    1.5000    0.0000 C   0  0  0  0  0  0  0  0  0  0  0  0
   -1.0100   -1.5000    0.0000 C   0  0  0  0  0  0  0  0  0  0  0  0
    1.7200    1.2100    0.0000 C   0  0  0  0  0  0  0  0  0  0  0  0
    0.2900    0.7500    0.0000 C   0  0  0  0  0  0  0  0  0  0  0  0
    0.2900   -0.7500    0.0000 C   0  0  0  0  0  0  0  0  0  0  0  0
    1.7200   -1.2100    0.0000 C   0  0  0  0  0  0  0  0  0  0  0  0
    2.1853   -2.6360    0.0000 O   0  0  0  0  0  0  0  0  0  0  0  0
    2.6000    0.0000    0.0000 O   0  0  0  0  0  0  0  0  0  0  0  0
  2  1  2  0
  3  1  1  0
  4  2  1  0
  6  3  2  0
  6  5  1  0
  7  4  2  0
  7  6  1  0
  8  7  1  0
  9  8  2  0
 10  5  1  0
 10  8  1  0
M  END
>  <NAME>  (933) 
PHTHALIDE

>  <SYNONYMS>  (933) 


>  <SPECTRUM TYPE>  (933) 
MS1

>  <INSTRUMENT TYPE>  (933) 
EI-B

>  <INSTRUMENT>  (933) 
JEOL JMS-D-300

>  <ION MODE>  (933) 
P

>  <INCHIKEY>  (933) 
WNZQDUSMALZDQF-UHFFFAOYSA-N

>  <FORMULA>  (933) 
C8H6O2

>  <EXACT MASS>  (933) 
134.036779432

>  <MW>  (933) 
134

>  <ID>  (933) 
JP010781

>  <CONTRIBUTOR>  (933) 
University of Tokyo Team, {Faculty of Engineering, University of Tokyo

>  <COMMENT>  (933) 
SMILES=O=C(O1)c(c2)c(ccc2)C1
InChI=InChI=1S/C8H6O2/c9-8-7-4-2-1-3-6(7)5-10-8/h1-4H,5H2
computed SMILES=O=C1OCC=2C=CC=CC12
accession=JP010781
date=2016.01.19 (Created 2008.10.21, modified 2011.05.06)
license=CC BY-NC-SA
author=FUJISE Y, HAMAMATSU UNIV. SCHOOL OF MEDICINE
exact mass=134.03678
ionization energy=70 eV
ion type=[M]+*
computed spectral entropy=2.145456266927877
computed normalized entropy=0.7046938594849598
SPLASH=splash10-0a59-5900000000-cb40a9fce63b687c154c
submitter=submitter = University of Tokyo Team (Faculty of Engineering, University of Tokyo)
MoNA Rating=3.75

>  <NUM PEAKS>  (933) 
21

>  <MASS SPECTRAL PEAKS>  (933) 
44 1.23
49 1.11
50 9.63
51 12.1
52 2.98
61 1.08
62 1.89
63 3.17
66 3.22
74 3.5
75 2.99
76 9.66
77 40.66
78 3.7
89 1.6
104 2.85
105 99.99
106 8.03
133 15.05
134 44.25
135 4.03

$$$$

     RDKit          2D

 22 24  0  0  0  0  0  0  0  0999 V2000
   12.6347   -0.8879    0.0000 C   0  0  0  0  0  0  0  0  0  0  0  0
   11.3360   -3.1381    0.0000 C   0  0  0  0  0  0  0  0  0  0  0  0
   -2.9500   -0.8900    0.0000 C   0  0  0  0  0  0  0  0  0  0  0  0
   -2.9500    0.6100    0.0000 C   0  0  0  0  0  0  0  0  0  0  0  0
    4.8381    0.6104    0.0000 C   0  0  0  0  0  0  0  0  0  0  0  0
    6.1370    1.3606    0.0000 C   0  0  0  0  0  0  0  0  0  0  0  0
    3.5389    1.3602    0.0000 C   0  0  0  0  0  0  0  0  0  0  0  0
   -1.6500   -1.6400    0.0000 C   0  0  0  0  0  0  0  0  0  0  0  0
   -1.6500    1.3600    0.0000 C   0  0  0  0  0  0  0  0  0  0  0  0
    2.2400   -0.8900    0.0000 C   0  0  0  0  0  0  0  0  0  0  0  0
    7.4366   -0.8892    0.0000 C   0  0  0  0  0  0  0  0  0  0  0  0
    8.7359    1.3612    0.0000 C   0  0  0  0  0  0  0  0  0  0  0  0
    0.9400   -1.6400    0.0000 C   0  0  0  0  0  0  0  0  0  0  0  0
    8.7369   -1.6388    0.0000 C   0  0  0  0  0  0  0  0  0  0  0  0
   10.0362    0.6117    0.0000 C   0  0  0  0  0  0  0  0  0  0  0  0
    0.9400    1.3600    0.0000 C   0  0  0  0  0  0  0  0  0  0  0  0
    7.4362    0.6108    0.0000 C   0  0  0  0  0  0  0  0  0  0  0  0
    2.2400    0.6100    0.0000 C   0  0  0  0  0  0  0  0  0  0  0  0
   -0.3500   -0.8900    0.0000 C   0  0  0  0  0  0  0  0  0  0  0  0
   -0.3500    0.6100    0.0000 C   0  0  0  0  0  0  0  0  0  0  0  0
   10.0366   -0.8883    0.0000 C   0  0  0  0  0  0  0  0  0  0  0  0
   11.3358   -1.6381    0.0000 N   0  0  0  0  0  0  0  0  0  0  0  0
  4  3  2  0
  6  5  1  0
  7  5  1  0
  8  3  1  0
  9  4  1  0
 13 10  2  0
 14 11  2  0
 15 12  1  0
 17  6  1  0
 17 11  1  0
 17 12  2  0
 18  7  1  0
 18 10  1  0
 18 16  2  0
 19  8  2  0
 19 13  1  0
 20  9  2  0
 20 16  1  0
 20 19  1  0
 21 14  1  0
 21 15  2  0
 22  1  1  0
 22  2  1  0
 22 21  1  0
M  END
>  <NAME>  (934) 
2-(3-(4'-N,N-DIMETHYLAMINOPHENYL)PROPYL)NAPHTHALENE

>  <SYNONYMS>  (934) 


>  <SPECTRUM TYPE>  (934) 
MS1

>  <INSTRUMENT TYPE>  (934) 
EI-B

>  <INSTRUMENT>  (934) 
HITACHI RMU-6M

>  <ION MODE>  (934) 
P

>  <INCHIKEY>  (934) 
CYZHCTJNNRPWQW-UHFFFAOYSA-N

>  <FORMULA>  (934) 
C21H23N

>  <EXACT MASS>  (934) 
289.18304973600004

>  <MW>  (934) 
289

>  <ID>  (934) 
JP010765

>  <CONTRIBUTOR>  (934) 
University of Tokyo Team, {Faculty of Engineering, University of Tokyo

>  <COMMENT>  (934) 
SMILES=CN(C)c(c1)ccc(CCCc(c2)cc(c3)c(ccc3)c2)c1
InChI=InChI=1S/C21H23N/c1-22(2)21-14-11-17(12-15-21)6-5-7-18-10-13-19-8-3-4-9-20(19)16-18/h3-4,8-16H,5-7H2,1-2H3
computed SMILES=C=1C=CC=2C=C(C=CC2C1)CCCC3=CC=C(C=C3)N(C)C
accession=JP010765
date=2016.01.19 (Created 2008.10.21, modified 2011.05.06)
author=YAMAMOTO M, DEP. CHEMISTRY, FAC. SCIENCE, NARA WOMEN'S UNIV.
license=CC BY-NC-SA
exact mass=289.18305
ionization energy=70 eV
ion type=[M]+*
computed spectral entropy=2.7152448637211113
computed normalized entropy=0.6715830900594517
SPLASH=splash10-001r-1920000000-5fe085436e3e4c0a6cde
submitter=submitter = University of Tokyo Team (Faculty of Engineering, University of Tokyo)
MoNA Rating=3.75

>  <NUM PEAKS>  (934) 
57

>  <MASS SPECTRAL PEAKS>  (934) 
39 1.8
41 2.2
42 3.5
43 0.18
51 2
55 1.8
57 1.6
63 0.18
65 3.5
70 1
71 1.4
76 0.12
77 5.3
78 2.2
79 1.6
89 0.22
90 2.7
91 9
92 1.8
102 0.12
103 2.2
104 2.4
105 1.4
115 0.71
116 1.4
117 1.6
118 13.3
119 0.51
120 2.9
121 2
127 2.2
128 0.24
129 1.2
130 1.4
131 1.8
132 0.25
133 3.5
134 99.99
135 14.5
139 0.18
141 6.7
142 3.1
142.5 2.4
146 0.59
147 36.5
148 6.7
149 3.1
152 0.18
153 2
154 2.4
155 1.4
165 0.1
167 1.2
288 2.2
289 49
290 1.14
291 1.4

$$$$

     RDKit          2D

 20 22  0  0  0  0  0  0  0  0999 V2000
    3.8989    1.5002    0.0000 C   0  0  0  0  0  0  0  0  0  0  0  0
    2.5976    8.2517    0.0000 C   0  0  0  0  0  0  0  0  0  0  0  0
   -0.0005    8.2517    0.0000 C   0  0  0  0  0  0  0  0  0  0  0  0
   -2.6000   -0.7500    0.0000 C   0  0  0  0  0  0  0  0  0  0  0  0
   -2.6000    0.7500    0.0000 C   0  0  0  0  0  0  0  0  0  0  0  0
   -1.3000   -1.5000    0.0000 C   0  0  0  0  0  0  0  0  0  0  0  0
   -1.3000    1.5000    0.0000 C   0  0  0  0  0  0  0  0  0  0  0  0
    2.6000   -0.7500    0.0000 C   0  0  0  0  0  0  0  0  0  0  0  0
    1.3000   -1.5000    0.0000 C   0  0  0  0  0  0  0  0  0  0  0  0
    2.5989    3.7502    0.0000 C   0  0  0  0  0  0  0  0  0  0  0  0
    0.0004    3.7506    0.0000 C   0  0  0  0  0  0  0  0  0  0  0  0
    2.5982    5.2510    0.0000 C   0  0  0  0  0  0  0  0  0  0  0  0
   -0.0004    5.2515    0.0000 C   0  0  0  0  0  0  0  0  0  0  0  0
    2.6000    0.7500    0.0000 C   0  0  0  0  0  0  0  0  0  0  0  0
    0.0000   -0.7500    0.0000 C   0  0  0  0  0  0  0  0  0  0  0  0
    1.3000    3.0000    0.0000 C   0  0  0  0  0  0  0  0  0  0  0  0
    1.2986    6.0017    0.0000 C   0  0  0  0  0  0  0  0  0  0  0  0
    0.0000    0.7500    0.0000 C   0  0  0  0  0  0  0  0  0  0  0  0
    1.3000    1.5000    0.0000 C   0  0  0  0  0  0  0  0  0  0  0  0
    1.2986    7.5017    0.0000 N   0  0  0  0  0  0  0  0  0  0  0  0
  5  4  2  0
  6  4  1  0
  7  5  1  0
  9  8  2  0
 12 10  2  0
 13 11  1  0
 14  1  1  0
 14  8  1  0
 15  6  2  0
 15  9  1  0
 16 10  1  0
 16 11  2  0
 17 12  1  0
 17 13  2  0
 18  7  2  0
 18 15  1  0
 19 14  2  0
 19 16  1  0
 19 18  1  0
 20  2  1  0
 20  3  1  0
 20 17  1  0
M  END
>  <NAME>  (935) 
2-METHYL-1-(4'-N,N-DIMETHYLAMINOPHENYL)NAPHTHALENE

>  <SYNONYMS>  (935) 


>  <SPECTRUM TYPE>  (935) 
MS1

>  <INSTRUMENT TYPE>  (935) 
EI-B

>  <INSTRUMENT>  (935) 
HITACHI RMU-6M

>  <ION MODE>  (935) 
P

>  <INCHIKEY>  (935) 
CRFQMFFPQGYKHR-UHFFFAOYSA-N

>  <FORMULA>  (935) 
C19H19N

>  <EXACT MASS>  (935) 
261.151749608

>  <MW>  (935) 
261

>  <ID>  (935) 
JP010764

>  <CONTRIBUTOR>  (935) 
University of Tokyo Team, {Faculty of Engineering, University of Tokyo

>  <COMMENT>  (935) 
SMILES=CN(C)c(c3)ccc(c3)c(c(C)1)c(c2)c(ccc2)cc1
InChI=InChI=1S/C19H19N/c1-14-8-9-15-6-4-5-7-18(15)19(14)16-10-12-17(13-11-16)20(2)3/h4-13H,1-3H3
computed SMILES=C=1C=CC2=C(C1)C=CC(=C2C3=CC=C(C=C3)N(C)C)C
accession=JP010764
date=2016.01.19 (Created 2008.10.21, modified 2011.05.06)
author=YAMAMOTO M, DEP. CHEMISTRY, FAC. SCIENCE, NARA WOMEN'S UNIV.
license=CC BY-NC-SA
exact mass=261.15175
ionization energy=70 eV
ion type=[M]+*
computed spectral entropy=2.6215755908217484
computed normalized entropy=0.6771995521376776
SPLASH=splash10-03di-0290000000-875f1082c236b34224cd
submitter=submitter = University of Tokyo Team (Faculty of Engineering, University of Tokyo)
MoNA Rating=3.75

>  <NUM PEAKS>  (935) 
48

>  <MASS SPECTRAL PEAKS>  (935) 
56 1.3
57 1.4
94.5 2
95 0.12
101 3.3
106.5 1.4
107 2
107.5 0.35
108 2.4
114.5 1.3
115 1.8
115.5 0.12
121.5 2
122 2.6
122.5 4.5
123 0.29
128.5 2.6
129 1.8
129.5 6
130 0.76
130.5 9.1
131 2
165 1.4
178 0.13
188 3
189 1.2
190 1.3
200 0.1
201 1.3
202 10.8
203 4.3
204 0.16
213 1.8
214 1.3
215 9.3
216 0.64
217 7.5
218 2.1
230 1.6
231 0.14
245 3
246 5.4
247 4.2
259 0.3
260 29.3
261 99.99
262 23.5
263 2.4

$$$$

     RDKit          2D

 13 14  0  0  0  0  0  0  0  0999 V2000
    0.4487    2.2416    0.0000 C   0  0  0  0  0  0  0  0  0  0  0  0
   -2.3100   -0.7500    0.0000 C   0  0  0  0  0  0  0  0  0  0  0  0
   -2.3100    0.7500    0.0000 C   0  0  0  0  0  0  0  0  0  0  0  0
    2.6000    0.0000    0.0000 C   0  0  0  0  0  0  0  0  0  0  0  0
    1.7200    1.2100    0.0000 C   0  0  0  0  0  0  0  0  0  0  0  0
   -1.0100   -1.5000    0.0000 C   0  0  0  0  0  0  0  0  0  0  0  0
    1.7200   -1.2100    0.0000 C   0  0  0  0  0  0  0  0  0  0  0  0
   -1.0100    1.5000    0.0000 C   0  0  0  0  0  0  0  0  0  0  0  0
    0.2900   -0.7500    0.0000 C   0  0  0  0  0  0  0  0  0  0  0  0
    0.2900    0.7500    0.0000 C   0  0  0  0  0  0  0  0  0  0  0  0
   -1.0100   -3.0000    0.0000 O   0  0  0  0  0  0  0  0  0  0  0  0
    2.1853   -2.6360    0.0000 O   0  0  0  0  0  0  0  0  0  0  0  0
   -1.0100    3.0000    0.0000 O   0  0  0  0  0  0  0  0  0  0  0  0
  3  2  1  0
  5  4  1  0
  6  2  1  0
  7  4  1  0
  8  3  1  0
  9  6  1  0
  9  7  1  0
 10  1  1  0
 10  5  1  0
 10  8  1  0
 10  9  1  0
 11  6  1  0
 12  7  2  0
 13  8  2  0
M  END
>  <NAME>  (936) 
5-HYDROXY-1-METHYLBICYCLO(4.3.0)NONANE-2,7-DIONE

>  <SYNONYMS>  (936) 


>  <SPECTRUM TYPE>  (936) 
MS1

>  <INSTRUMENT TYPE>  (936) 
EI-B

>  <INSTRUMENT>  (936) 
HITACHI RMU-6M

>  <ION MODE>  (936) 
P

>  <INCHIKEY>  (936) 
GKIBMSXDKANYOB-UHFFFAOYSA-N

>  <FORMULA>  (936) 
C10H14O3

>  <EXACT MASS>  (936) 
182.09429430799997

>  <MW>  (936) 
182

>  <ID>  (936) 
JP010763

>  <CONTRIBUTOR>  (936) 
University of Tokyo Team, {Faculty of Engineering, University of Tokyo

>  <COMMENT>  (936) 
SMILES=OC(C1)C(C(=O)2)C(C)(CC2)C(=O)C1
InChI=InChI=1S/C10H14O3/c1-10-5-4-7(12)9(10)6(11)2-3-8(10)13/h6,9,11H,2-5H2,1H3
computed SMILES=O=C1CCC2(C(=O)CCC(O)C12)C
accession=JP010763
date=2016.01.19 (Created 2008.10.21, modified 2011.05.06)
author=YAMAMOTO M, DEP. CHEMISTRY, FAC. SCIENCE, NARA WOMEN'S UNIV.
license=CC BY-NC-SA
exact mass=182.09429
ionization energy=70 eV
ion type=[M]+*
computed spectral entropy=3.4894535051084974
computed normalized entropy=0.8107343707738319
SPLASH=splash10-057m-9500000000-aefebd9cffc6a6d3de5d
submitter=submitter = University of Tokyo Team (Faculty of Engineering, University of Tokyo)
MoNA Rating=3.75

>  <NUM PEAKS>  (936) 
74

>  <MASS SPECTRAL PEAKS>  (936) 
26 4
27 34.9
28 25.1
29 1.74
31 4.3
38 1.7
39 25.3
40 0.58
41 47.3
42 9.8
43 52.2
44 0.2
45 2.1
50 1.8
51 5.6
52 0.34
53 14.5
54 5.1
55 28.4
56 1.7
57 7.8
58 2.6
59 1
63 0.15
65 3.9
66 2.4
67 8.9
68 0.28
69 44.3
70 11
71 17.1
72 0.1
77 6.2
78 1.5
79 20.1
80 0.47
81 12.3
82 4.3
83 14.6
84 2.9
85 5.1
91 2.9
93 6.3
94 1.02
95 37.8
96 7.9
97 50.6
98 1.08
99 3.5
104 1.2
107 4.8
108 0.3
109 39.6
110 8.2
111 10.9
112 1.16
113 21.9
114 1.5
121 5.4
122 2.16
123 19.3
124 6.7
125 99.99
126 1.63
136 4.6
137 2.3
139 3.7
140 0.5
154 1.7
164 3.9
165 1.8
167 0.36
182 84.2
183 10.8

$$$$

     RDKit          2D

 15 14  0  0  0  0  0  0  0  0999 V2000
    4.5466    7.1250    0.0000 C   0  0  0  0  0  0  0  0  0  0  0  0
  -12.3409    7.8750    0.0000 C   0  0  0  0  0  0  0  0  0  0  0  0
    3.2476    7.8750    0.0000 C   0  0  0  0  0  0  0  0  0  0  0  0
    1.9486    7.1250    0.0000 C   0  0  0  0  0  0  0  0  0  0  0  0
    0.6495    7.8750    0.0000 C   0  0  0  0  0  0  0  0  0  0  0  0
   -0.6495    7.1250    0.0000 C   0  0  0  0  0  0  0  0  0  0  0  0
   -1.9486    7.8750    0.0000 C   0  0  0  0  0  0  0  0  0  0  0  0
   -3.2476    7.1250    0.0000 C   0  0  0  0  0  0  0  0  0  0  0  0
   -4.5466    7.8750    0.0000 C   0  0  0  0  0  0  0  0  0  0  0  0
   -5.8457    7.1250    0.0000 C   0  0  0  0  0  0  0  0  0  0  0  0
   -7.1447    7.8750    0.0000 C   0  0  0  0  0  0  0  0  0  0  0  0
   -8.4437    7.1250    0.0000 C   0  0  0  0  0  0  0  0  0  0  0  0
   -9.7428    7.8750    0.0000 C   0  0  0  0  0  0  0  0  0  0  0  0
   -9.7428    9.3750    0.0000 O   0  0  0  0  0  0  0  0  0  0  0  0
  -11.0418    7.1250    0.0000 O   0  0  0  0  0  0  0  0  0  0  0  0
  3  1  1  0
  4  3  1  0
  5  4  1  0
  6  5  1  0
  7  6  1  0
  8  7  1  0
  9  8  1  0
 10  9  1  0
 11 10  1  0
 12 11  1  0
 13 12  1  0
 14 13  2  0
 15  2  1  0
 15 13  1  0
M  END
>  <NAME>  (937) 
METHYL LAURATE

>  <SYNONYMS>  (937) 


>  <SPECTRUM TYPE>  (937) 
MS1

>  <INSTRUMENT TYPE>  (937) 
EI-B

>  <INSTRUMENT>  (937) 
HITACHI RMU-6M

>  <ION MODE>  (937) 
P

>  <INCHIKEY>  (937) 
UQDUPQYQJKYHQI-UHFFFAOYSA-N

>  <FORMULA>  (937) 
C13H26O2

>  <EXACT MASS>  (937) 
214.193280072

>  <MW>  (937) 
214

>  <ID>  (937) 
JP010762

>  <CONTRIBUTOR>  (937) 
University of Tokyo Team, {Faculty of Engineering, University of Tokyo

>  <COMMENT>  (937) 
SMILES=CCCCCCCCCCCC(=O)OC
InChI=InChI=1S/C13H26O2/c1-3-4-5-6-7-8-9-10-11-12-13(14)15-2/h3-12H2,1-2H3
computed SMILES=O=C(OC)CCCCCCCCCCC
accession=JP010762
date=2016.01.19 (Created 2008.10.21, modified 2011.05.06)
author=YAMAMOTO M, DEP. CHEMISTRY, FAC. SCIENCE, NARA WOMEN'S UNIV.
license=CC BY-NC-SA
exact mass=214.19328
ionization energy=70 eV
ion type=[M]+*
computed spectral entropy=2.8545561364953675
computed normalized entropy=0.7373825664056397
SPLASH=splash10-00di-9100000000-a72fa480b862482b6e87
submitter=submitter = University of Tokyo Team (Faculty of Engineering, University of Tokyo)
MoNA Rating=3.75

>  <NUM PEAKS>  (937) 
48

>  <MASS SPECTRAL PEAKS>  (937) 
27 5.7
28 1.8
29 13.9
39 0.39
41 22.5
42 4.7
43 21.2
45 0.16
53 1.4
54 1.6
55 17.6
56 0.37
57 10.4
59 5.9
67 2
68 0.1
69 8.2
70 1.8
71 3.5
73 0.2
74 99.99
75 14.5
76 1
81 0.14
83 4.5
84 2.7
85 2.2
87 5.02
89 6.1
95 1.4
97 3.5
98 0.25
101 4.7
111 1.2
115 3.1
116 0.1
129 4.9
140 1.4
143 8.6
144 0.1
157 1.8
171 6.1
172 1.2
183 0.67
184 1
185 1.4
214 12.5
215 2.2

$$$$

     RDKit          2D

 16 15  0  0  0  0  0  0  0  0999 V2000
    4.5466    7.8750    0.0000 C   0  0  0  0  0  0  0  0  0  0  0  0
  -13.6399    7.8750    0.0000 C   0  0  0  0  0  0  0  0  0  0  0  0
    3.2476    8.6250    0.0000 C   0  0  0  0  0  0  0  0  0  0  0  0
  -12.3409    8.6250    0.0000 C   0  0  0  0  0  0  0  0  0  0  0  0
    1.9486    7.8750    0.0000 C   0  0  0  0  0  0  0  0  0  0  0  0
    0.6495    8.6250    0.0000 C   0  0  0  0  0  0  0  0  0  0  0  0
   -0.6495    7.8750    0.0000 C   0  0  0  0  0  0  0  0  0  0  0  0
   -1.9486    8.6250    0.0000 C   0  0  0  0  0  0  0  0  0  0  0  0
   -3.2476    7.8750    0.0000 C   0  0  0  0  0  0  0  0  0  0  0  0
   -4.5466    8.6250    0.0000 C   0  0  0  0  0  0  0  0  0  0  0  0
   -5.8457    7.8750    0.0000 C   0  0  0  0  0  0  0  0  0  0  0  0
   -7.1447    8.6250    0.0000 C   0  0  0  0  0  0  0  0  0  0  0  0
   -8.4437    7.8750    0.0000 C   0  0  0  0  0  0  0  0  0  0  0  0
   -9.7428    8.6250    0.0000 C   0  0  0  0  0  0  0  0  0  0  0  0
   -9.7428   10.1250    0.0000 O   0  0  0  0  0  0  0  0  0  0  0  0
  -11.0418    7.8750    0.0000 O   0  0  0  0  0  0  0  0  0  0  0  0
  3  1  1  0
  4  2  1  0
  5  3  1  0
  6  5  1  0
  7  6  1  0
  8  7  1  0
  9  8  1  0
 10  9  1  0
 11 10  1  0
 12 11  1  0
 13 12  1  0
 14 13  1  0
 15 14  2  0
 16  4  1  0
 16 14  1  0
M  END
>  <NAME>  (938) 
ETHYL LAURATE

>  <SYNONYMS>  (938) 


>  <SPECTRUM TYPE>  (938) 
MS1

>  <INSTRUMENT TYPE>  (938) 
EI-B

>  <INSTRUMENT>  (938) 
HITACHI RMU-6M

>  <ION MODE>  (938) 
P

>  <INCHIKEY>  (938) 
MMXKVMNBHPAILY-UHFFFAOYSA-N

>  <FORMULA>  (938) 
C14H28O2

>  <EXACT MASS>  (938) 
228.208930136

>  <MW>  (938) 
228

>  <ID>  (938) 
JP010761

>  <CONTRIBUTOR>  (938) 
University of Tokyo Team, {Faculty of Engineering, University of Tokyo

>  <COMMENT>  (938) 
SMILES=CCCCCCCCCCCC(=O)OCC
InChI=InChI=1S/C14H28O2/c1-3-5-6-7-8-9-10-11-12-13-14(15)16-4-2/h3-13H2,1-2H3
computed SMILES=O=C(OCC)CCCCCCCCCCC
accession=JP010761
date=2016.01.19 (Created 2008.10.21, modified 2011.05.06)
author=YAMAMOTO M, DEP. CHEMISTRY, FAC. SCIENCE, NARA WOMEN'S UNIV.
license=CC BY-NC-SA
exact mass=228.20893
ionization energy=70 eV
ion type=[M]+*
computed spectral entropy=3.065805347044045
computed normalized entropy=0.758290000286364
SPLASH=splash10-000i-9200000000-9c0b8381b214359f116b
submitter=submitter = University of Tokyo Team (Faculty of Engineering, University of Tokyo)
MoNA Rating=3.75

>  <NUM PEAKS>  (938) 
57

>  <MASS SPECTRAL PEAKS>  (938) 
27 7.3
28 2.6
29 22.7
39 0.33
40 1.1
41 24.9
42 7
43 2.67
44 1.1
45 7.3
53 1.8
54 0.18
55 17.6
56 4.4
57 14.7
59 0.11
60 12.1
61 14.7
67 2.2
68 0.15
69 8.8
70 13.2
71 5.1
73 1.47
74 2.2
81 1.8
82 1.1
83 0.59
84 3.7
85 3.3
87 2.2
88 99.99
89 12.8
90 1.1
95 2.2
97 0.44
98 2.9
101 38.8
102 3.7
109 0.15
111 1.5
115 4.8
125 1.1
129 0.33
130 1.1
143 4.8
144 1.1
157 0.84
158 1.1
171 1.5
183 9.9
184 0.15
185 5.9
186 1.5
199 2.2
228 1.5
229 2.6

$$$$

     RDKit          2D

 18 17  0  0  0  0  0  0  0  0999 V2000
  -15.5885    9.0000    0.0000 C   0  0  0  0  0  0  0  0  0  0  0  0
    5.1962    9.0000    0.0000 C   0  0  0  0  0  0  0  0  0  0  0  0
  -14.2894    8.2500    0.0000 C   0  0  0  0  0  0  0  0  0  0  0  0
    3.8971    8.2500    0.0000 C   0  0  0  0  0  0  0  0  0  0  0  0
  -12.9904    9.0000    0.0000 C   0  0  0  0  0  0  0  0  0  0  0  0
    2.5981    9.0000    0.0000 C   0  0  0  0  0  0  0  0  0  0  0  0
  -11.6913    8.2500    0.0000 C   0  0  0  0  0  0  0  0  0  0  0  0
  -10.3923    9.0000    0.0000 C   0  0  0  0  0  0  0  0  0  0  0  0
   -9.0933    8.2500    0.0000 C   0  0  0  0  0  0  0  0  0  0  0  0
   -7.7942    9.0000    0.0000 C   0  0  0  0  0  0  0  0  0  0  0  0
   -6.4952    8.2500    0.0000 C   0  0  0  0  0  0  0  0  0  0  0  0
   -5.1962    9.0000    0.0000 C   0  0  0  0  0  0  0  0  0  0  0  0
   -3.8971    8.2500    0.0000 C   0  0  0  0  0  0  0  0  0  0  0  0
   -2.5981    9.0000    0.0000 C   0  0  0  0  0  0  0  0  0  0  0  0
    1.2990    8.2500    0.0000 C   0  0  0  0  0  0  0  0  0  0  0  0
   -1.2990    8.2500    0.0000 C   0  0  0  0  0  0  0  0  0  0  0  0
   -1.2990    6.7500    0.0000 O   0  0  0  0  0  0  0  0  0  0  0  0
    0.0000    9.0000    0.0000 O   0  0  0  0  0  0  0  0  0  0  0  0
  3  1  1  0
  4  2  1  0
  5  3  1  0
  6  4  1  0
  7  5  1  0
  8  7  1  0
  9  8  1  0
 10  9  1  0
 11 10  1  0
 12 11  1  0
 13 12  1  0
 14 13  1  0
 15  6  1  0
 16 14  1  0
 17 16  2  0
 18 15  1  0
 18 16  1  0
M  END
>  <NAME>  (939) 
BUTYL LAURATE

>  <SYNONYMS>  (939) 


>  <SPECTRUM TYPE>  (939) 
MS1

>  <INSTRUMENT TYPE>  (939) 
EI-B

>  <INSTRUMENT>  (939) 
HITACHI RMU-6M

>  <ION MODE>  (939) 
P

>  <INCHIKEY>  (939) 
NDKYEUQMPZIGFN-UHFFFAOYSA-N

>  <FORMULA>  (939) 
C16H32O2

>  <EXACT MASS>  (939) 
256.240230264

>  <MW>  (939) 
256

>  <ID>  (939) 
JP010760

>  <CONTRIBUTOR>  (939) 
University of Tokyo Team, {Faculty of Engineering, University of Tokyo

>  <COMMENT>  (939) 
SMILES=CCCCCCCCCCCC(=O)OCCCC
InChI=InChI=1S/C16H32O2/c1-3-5-7-8-9-10-11-12-13-14-16(17)18-15-6-4-2/h3-15H2,1-2H3
computed SMILES=O=C(OCCCC)CCCCCCCCCCC
accession=JP010760
date=2016.01.19 (Created 2008.10.21, modified 2011.05.06)
author=YAMAMOTO M, DEP. CHEMISTRY, FAC. SCIENCE, NARA WOMEN'S UNIV.
license=CC BY-NC-SA
exact mass=256.24023
ionization energy=70 eV
ion type=[M]+*
computed spectral entropy=3.0276831503051325
computed normalized entropy=0.7488609344117353
SPLASH=splash10-0a4i-9110000000-fddb478401344cb3bb38
submitter=submitter = University of Tokyo Team (Faculty of Engineering, University of Tokyo)
MoNA Rating=3.75

>  <NUM PEAKS>  (939) 
57

>  <MASS SPECTRAL PEAKS>  (939) 
27 7.6
28 2.2
29 24.9
39 0.44
40 1.3
41 33.3
42 6.2
43 3.02
44 1.3
53 1.3
54 2.2
55 1.91
56 99.99
57 41.8
58 1.8
60 2.09
61 12.9
67 2.7
68 1.8
69 0.8
70 4.4
71 10.2
73 19.1
74 0.22
81 2.2
83 6.2
84 3.6
85 0.58
87 4
89 1.3
95 3.1
96 0.13
97 4.4
98 4
99 1.3
101 0.62
103 1.3
109 1.8
111 1.8
112 0.13
115 3.1
116 12
117 4
129 0.93
130 1.3
139 1.3
143 1.8
157 0.4
171 2.2
183 18.2
184 2.7
185 0.18
200 5.8
201 31.6
202 4
213 0.13
256 5.8

$$$$

     RDKit          2D

 18 17  0  0  0  0  0  0  0  0999 V2000
    4.8714    8.8125    0.0000 C   0  0  0  0  0  0  0  0  0  0  0  0
  -14.6142    9.5625    0.0000 C   0  0  0  0  0  0  0  0  0  0  0  0
  -13.3151    7.3125    0.0000 C   0  0  0  0  0  0  0  0  0  0  0  0
    3.5724    9.5625    0.0000 C   0  0  0  0  0  0  0  0  0  0  0  0
    2.2733    8.8125    0.0000 C   0  0  0  0  0  0  0  0  0  0  0  0
    0.9743    9.5625    0.0000 C   0  0  0  0  0  0  0  0  0  0  0  0
   -0.3248    8.8125    0.0000 C   0  0  0  0  0  0  0  0  0  0  0  0
   -1.6238    9.5625    0.0000 C   0  0  0  0  0  0  0  0  0  0  0  0
   -2.9228    8.8125    0.0000 C   0  0  0  0  0  0  0  0  0  0  0  0
   -4.2219    9.5625    0.0000 C   0  0  0  0  0  0  0  0  0  0  0  0
   -5.5209    8.8125    0.0000 C   0  0  0  0  0  0  0  0  0  0  0  0
   -6.8200    9.5625    0.0000 C   0  0  0  0  0  0  0  0  0  0  0  0
   -8.1190    8.8125    0.0000 C   0  0  0  0  0  0  0  0  0  0  0  0
  -12.0161    9.5625    0.0000 C   0  0  0  0  0  0  0  0  0  0  0  0
  -13.3151    8.8125    0.0000 C   0  0  0  0  0  0  0  0  0  0  0  0
   -9.4180    9.5625    0.0000 C   0  0  0  0  0  0  0  0  0  0  0  0
   -9.4180   11.0625    0.0000 O   0  0  0  0  0  0  0  0  0  0  0  0
  -10.7171    8.8125    0.0000 O   0  0  0  0  0  0  0  0  0  0  0  0
  4  1  1  0
  5  4  1  0
  6  5  1  0
  7  6  1  0
  8  7  1  0
  9  8  1  0
 10  9  1  0
 11 10  1  0
 12 11  1  0
 13 12  1  0
 15  2  1  0
 15  3  1  0
 15 14  1  0
 16 13  1  0
 17 16  2  0
 18 14  1  0
 18 16  1  0
M  END
>  <NAME>  (940) 
ISOBUTYL LAURATE

>  <SYNONYMS>  (940) 


>  <SPECTRUM TYPE>  (940) 
MS1

>  <INSTRUMENT TYPE>  (940) 
EI-B

>  <INSTRUMENT>  (940) 
HITACHI RMU-6M

>  <ION MODE>  (940) 
P

>  <INCHIKEY>  (940) 
SZFOMJOELAAHAF-UHFFFAOYSA-N

>  <FORMULA>  (940) 
C16H32O2

>  <EXACT MASS>  (940) 
256.240230264

>  <MW>  (940) 
256

>  <ID>  (940) 
JP010759

>  <CONTRIBUTOR>  (940) 
University of Tokyo Team, {Faculty of Engineering, University of Tokyo

>  <COMMENT>  (940) 
SMILES=CCCCCCCCCCCC(=O)OCC(C)C
InChI=InChI=1S/C16H32O2/c1-4-5-6-7-8-9-10-11-12-13-16(17)18-14-15(2)3/h15H,4-14H2,1-3H3
computed SMILES=O=C(OCC(C)C)CCCCCCCCCCC
accession=JP010759
date=2016.01.19 (Created 2008.10.21, modified 2011.05.06)
author=YAMAMOTO M, DEP. CHEMISTRY, FAC. SCIENCE, NARA WOMEN'S UNIV.
license=CC BY-NC-SA
exact mass=256.24023
ionization energy=70 eV
ion type=[M]+*
computed spectral entropy=3.0386130623712937
computed normalized entropy=0.7548689644596872
SPLASH=splash10-0a4l-9110000000-b7596fdd8c457d218a04
submitter=submitter = University of Tokyo Team (Faculty of Engineering, University of Tokyo)
MoNA Rating=3.75

>  <NUM PEAKS>  (940) 
56

>  <MASS SPECTRAL PEAKS>  (940) 
27 7.2
28 2.5
29 23.8
31 0.1
39 4.4
40 1.1
41 37.9
42 0.7
43 32.4
44 1.3
45 1.1
53 0.11
54 1.9
55 18.1
56 99.99
57 8.04
58 3.4
60 19.2
61 7.2
67 0.25
68 1.7
69 7.6
70 5.1
71 1.03
72 1
73 11.2
74 1.9
81 0.23
82 1.1
83 6.1
84 3.6
85 0.72
86 1.1
87 3.4
95 3.2
96 0.1
97 4.6
98 4.4
99 1.7
101 0.29
109 1.7
111 1.7
112 1
115 0.3
116 8.4
117 2.7
125 1
129 0.61
143 1.7
157 4.2
183 29.9
184 0.42
200 13.7
201 24.2
202 3.2
256 2.7

$$$$

     RDKit          2D

 19 18  0  0  0  0  0  0  0  0999 V2000
  -16.2380   10.1250    0.0000 C   0  0  0  0  0  0  0  0  0  0  0  0
    5.8457    9.3750    0.0000 C   0  0  0  0  0  0  0  0  0  0  0  0
  -14.9389    9.3750    0.0000 C   0  0  0  0  0  0  0  0  0  0  0  0
    4.5466   10.1250    0.0000 C   0  0  0  0  0  0  0  0  0  0  0  0
  -13.6399   10.1250    0.0000 C   0  0  0  0  0  0  0  0  0  0  0  0
    3.2476    9.3750    0.0000 C   0  0  0  0  0  0  0  0  0  0  0  0
  -12.3409    9.3750    0.0000 C   0  0  0  0  0  0  0  0  0  0  0  0
  -11.0418   10.1250    0.0000 C   0  0  0  0  0  0  0  0  0  0  0  0
   -9.7428    9.3750    0.0000 C   0  0  0  0  0  0  0  0  0  0  0  0
   -8.4437   10.1250    0.0000 C   0  0  0  0  0  0  0  0  0  0  0  0
   -7.1447    9.3750    0.0000 C   0  0  0  0  0  0  0  0  0  0  0  0
   -5.8457   10.1250    0.0000 C   0  0  0  0  0  0  0  0  0  0  0  0
   -4.5466    9.3750    0.0000 C   0  0  0  0  0  0  0  0  0  0  0  0
    1.9486   10.1250    0.0000 C   0  0  0  0  0  0  0  0  0  0  0  0
   -3.2476   10.1250    0.0000 C   0  0  0  0  0  0  0  0  0  0  0  0
    0.6495    9.3750    0.0000 C   0  0  0  0  0  0  0  0  0  0  0  0
   -1.9486    9.3750    0.0000 C   0  0  0  0  0  0  0  0  0  0  0  0
   -1.9486    7.8750    0.0000 O   0  0  0  0  0  0  0  0  0  0  0  0
   -0.6495   10.1250    0.0000 O   0  0  0  0  0  0  0  0  0  0  0  0
  3  1  1  0
  4  2  1  0
  5  3  1  0
  6  4  1  0
  7  5  1  0
  8  7  1  0
  9  8  1  0
 10  9  1  0
 11 10  1  0
 12 11  1  0
 13 12  1  0
 14  6  1  0
 15 13  1  0
 16 14  1  0
 17 15  1  0
 18 17  2  0
 19 16  1  0
 19 17  1  0
M  END
>  <NAME>  (941) 
PENTYL LAURATE

>  <SYNONYMS>  (941) 


>  <SPECTRUM TYPE>  (941) 
MS1

>  <INSTRUMENT TYPE>  (941) 
EI-B

>  <INSTRUMENT>  (941) 
HITACHI RMU-6M

>  <ION MODE>  (941) 
P

>  <INCHIKEY>  (941) 
PQWBDPUBNMEITD-UHFFFAOYSA-N

>  <FORMULA>  (941) 
C17H34O2

>  <EXACT MASS>  (941) 
270.255880328

>  <MW>  (941) 
270

>  <ID>  (941) 
JP010758

>  <CONTRIBUTOR>  (941) 
University of Tokyo Team, {Faculty of Engineering, University of Tokyo

>  <COMMENT>  (941) 
SMILES=CCCCCCCCCCCC(=O)OCCCCC
InChI=InChI=1S/C17H34O2/c1-3-5-7-8-9-10-11-12-13-15-17(18)19-16-14-6-4-2/h3-16H2,1-2H3
computed SMILES=O=C(OCCCCC)CCCCCCCCCCC
accession=JP010758
date=2016.01.19 (Created 2008.10.21, modified 2011.05.06)
author=YAMAMOTO M, DEP. CHEMISTRY, FAC. SCIENCE, NARA WOMEN'S UNIV.
license=CC BY-NC-SA
exact mass=270.25588
ionization energy=70 eV
ion type=[M]+*
computed spectral entropy=3.109381177617397
computed normalized entropy=0.7594331962940267
SPLASH=splash10-00dl-9110000000-f4d172de1bd8c7dcffa2
submitter=submitter = University of Tokyo Team (Faculty of Engineering, University of Tokyo)
MoNA Rating=3.75

>  <NUM PEAKS>  (941) 
60

>  <MASS SPECTRAL PEAKS>  (941) 
27 6.9
28 2.4
29 18.6
39 0.37
41 29.2
42 16.6
43 66.5
44 0.22
45 1.1
53 1.7
54 2.2
55 2.42
56 5.2
57 24
58 1.3
59 0.11
60 16.2
61 17.7
67 2.6
68 0.19
69 11
70 99.99
71 26.6
72 0.17
73 17.3
74 1.7
81 1.9
82 0.11
83 6
84 4.1
85 6.9
87 0.37
89 1.1
95 2.8
96 1.1
97 0.48
98 4.1
99 1.5
101 3.2
102 0.3
103 1.3
109 1.7
111 2.2
112 0.11
115 6.3
129 5
130 9.3
131 0.3
138 1.1
143 4.3
157 3.9
171 0.19
183 17.7
184 2.6
199 1.7
200 0.78
201 41.7
202 5.8
270 5.8
271 1.5

$$$$

     RDKit          2D

 19 18  0  0  0  0  0  0  0  0999 V2000
  -15.5885    9.0000    0.0000 C   0  0  0  0  0  0  0  0  0  0  0  0
    5.1962    9.0000    0.0000 C   0  0  0  0  0  0  0  0  0  0  0  0
    3.8971    6.7500    0.0000 C   0  0  0  0  0  0  0  0  0  0  0  0
  -14.2894    8.2500    0.0000 C   0  0  0  0  0  0  0  0  0  0  0  0
  -12.9904    9.0000    0.0000 C   0  0  0  0  0  0  0  0  0  0  0  0
  -11.6913    8.2500    0.0000 C   0  0  0  0  0  0  0  0  0  0  0  0
  -10.3923    9.0000    0.0000 C   0  0  0  0  0  0  0  0  0  0  0  0
   -9.0933    8.2500    0.0000 C   0  0  0  0  0  0  0  0  0  0  0  0
   -7.7942    9.0000    0.0000 C   0  0  0  0  0  0  0  0  0  0  0  0
   -6.4952    8.2500    0.0000 C   0  0  0  0  0  0  0  0  0  0  0  0
   -5.1962    9.0000    0.0000 C   0  0  0  0  0  0  0  0  0  0  0  0
   -3.8971    8.2500    0.0000 C   0  0  0  0  0  0  0  0  0  0  0  0
   -2.5981    9.0000    0.0000 C   0  0  0  0  0  0  0  0  0  0  0  0
    2.5981    9.0000    0.0000 C   0  0  0  0  0  0  0  0  0  0  0  0
    1.2990    8.2500    0.0000 C   0  0  0  0  0  0  0  0  0  0  0  0
    3.8971    8.2500    0.0000 C   0  0  0  0  0  0  0  0  0  0  0  0
   -1.2990    8.2500    0.0000 C   0  0  0  0  0  0  0  0  0  0  0  0
   -1.2990    6.7500    0.0000 O   0  0  0  0  0  0  0  0  0  0  0  0
    0.0000    9.0000    0.0000 O   0  0  0  0  0  0  0  0  0  0  0  0
  4  1  1  0
  5  4  1  0
  6  5  1  0
  7  6  1  0
  8  7  1  0
  9  8  1  0
 10  9  1  0
 11 10  1  0
 12 11  1  0
 13 12  1  0
 15 14  1  0
 16  2  1  0
 16  3  1  0
 16 14  1  0
 17 13  1  0
 18 17  2  0
 19 15  1  0
 19 17  1  0
M  END
>  <NAME>  (942) 
ISOPENTYL LAURATE

>  <SYNONYMS>  (942) 


>  <SPECTRUM TYPE>  (942) 
MS1

>  <INSTRUMENT TYPE>  (942) 
EI-B

>  <INSTRUMENT>  (942) 
HITACHI RMU-6M

>  <ION MODE>  (942) 
P

>  <INCHIKEY>  (942) 
FVKRIDSRWFEQME-UHFFFAOYSA-N

>  <FORMULA>  (942) 
C17H34O2

>  <EXACT MASS>  (942) 
270.255880328

>  <MW>  (942) 
270

>  <ID>  (942) 
JP010757

>  <CONTRIBUTOR>  (942) 
University of Tokyo Team, {Faculty of Engineering, University of Tokyo

>  <COMMENT>  (942) 
SMILES=CCCCCCCCCCCC(=O)OCCC(C)C
InChI=InChI=1S/C17H34O2/c1-4-5-6-7-8-9-10-11-12-13-17(18)19-15-14-16(2)3/h16H,4-15H2,1-3H3
computed SMILES=O=C(OCCC(C)C)CCCCCCCCCCC
ion type=[M]+*
accession=JP010757
date=2016.01.19 (Created 2008.10.21, modified 2011.05.06)
author=YAMAMOTO M, DEP. CHEMISTRY, FAC. SCIENCE, NARA WOMEN'S UNIV.
license=CC BY-NC-SA
exact mass=270.25588
ionization energy=70 eV
computed spectral entropy=2.2922479418704955
computed normalized entropy=0.634810316192404
SPLASH=splash10-00di-9000000000-14f4e120c1f43ffbf557
submitter=submitter = University of Tokyo Team (Faculty of Engineering, University of Tokyo)
MoNA Rating=3.75

>  <NUM PEAKS>  (942) 
37

>  <MASS SPECTRAL PEAKS>  (942) 
27 3.7
28 1.4
29 8.4
39 0.21
41 13.3
42 5.8
43 36.6
44 0.14
54 1.2
55 14.9
56 2.6
57 1
60 2.8
61 1.6
67 1.2
69 0.47
70 99.99
71 35
72 1.6
73 0.35
83 2.1
84 1.6
85 2.8
87 0.12
95 1.4
97 1.6
98 1.4
101 0.12
115 1.9
129 1.4
130 1.4
143 0.14
157 1.2
183 7
200 2.8
201 0.44
270 1.9

$$$$

     RDKit          2D

 21 21  0  0  0  0  0  0  0  0999 V2000
  -14.6139    7.6321    0.0000 C   0  0  0  0  0  0  0  0  0  0  0  0
  -13.3149    8.3821    0.0000 C   0  0  0  0  0  0  0  0  0  0  0  0
  -12.0159    7.6321    0.0000 C   0  0  0  0  0  0  0  0  0  0  0  0
  -10.7168    8.3821    0.0000 C   0  0  0  0  0  0  0  0  0  0  0  0
   -9.4178    7.6321    0.0000 C   0  0  0  0  0  0  0  0  0  0  0  0
   -8.1187    8.3821    0.0000 C   0  0  0  0  0  0  0  0  0  0  0  0
   -6.8197    7.6321    0.0000 C   0  0  0  0  0  0  0  0  0  0  0  0
   -5.5207    8.3821    0.0000 C   0  0  0  0  0  0  0  0  0  0  0  0
   -4.2216    7.6321    0.0000 C   0  0  0  0  0  0  0  0  0  0  0  0
    6.1707    6.1321    0.0000 C   0  0  0  0  0  0  0  0  0  0  0  0
    6.1712    7.6329    0.0000 C   0  0  0  0  0  0  0  0  0  0  0  0
    4.8712    5.3813    0.0000 C   0  0  0  0  0  0  0  0  0  0  0  0
   -2.9226    8.3821    0.0000 C   0  0  0  0  0  0  0  0  0  0  0  0
    4.8721    8.3829    0.0000 C   0  0  0  0  0  0  0  0  0  0  0  0
    3.5721    6.1313    0.0000 C   0  0  0  0  0  0  0  0  0  0  0  0
   -1.6236    7.6321    0.0000 C   0  0  0  0  0  0  0  0  0  0  0  0
    2.2736    8.3821    0.0000 C   0  0  0  0  0  0  0  0  0  0  0  0
    3.5726    7.6321    0.0000 C   0  0  0  0  0  0  0  0  0  0  0  0
   -0.3245    8.3821    0.0000 C   0  0  0  0  0  0  0  0  0  0  0  0
   -0.3245    9.8821    0.0000 O   0  0  0  0  0  0  0  0  0  0  0  0
    0.9745    7.6321    0.0000 O   0  0  0  0  0  0  0  0  0  0  0  0
  2  1  1  0
  3  2  1  0
  4  3  1  0
  5  4  1  0
  6  5  1  0
  7  6  1  0
  8  7  1  0
  9  8  1  0
 11 10  2  0
 12 10  1  0
 13  9  1  0
 14 11  1  0
 15 12  2  0
 16 13  1  0
 18 14  2  0
 18 15  1  0
 18 17  1  0
 19 16  1  0
 20 19  2  0
 21 17  1  0
 21 19  1  0
M  END
>  <NAME>  (943) 
BENZYL LAURATE

>  <SYNONYMS>  (943) 


>  <SPECTRUM TYPE>  (943) 
MS1

>  <INSTRUMENT TYPE>  (943) 
EI-B

>  <INSTRUMENT>  (943) 
HITACHI RMU-6M

>  <ION MODE>  (943) 
P

>  <INCHIKEY>  (943) 
QNRYOQRUGRVBRL-UHFFFAOYSA-N

>  <FORMULA>  (943) 
C19H30O2

>  <EXACT MASS>  (943) 
290.2245802

>  <MW>  (943) 
290

>  <ID>  (943) 
JP010756

>  <CONTRIBUTOR>  (943) 
University of Tokyo Team, {Faculty of Engineering, University of Tokyo

>  <COMMENT>  (943) 
SMILES=CCCCCCCCCCCC(=O)OCc(c1)cccc1
InChI=InChI=1S/C19H30O2/c1-2-3-4-5-6-7-8-9-13-16-19(20)21-17-18-14-11-10-12-15-18/h10-12,14-15H,2-9,13,16-17H2,1H3
computed SMILES=O=C(OCC=1C=CC=CC1)CCCCCCCCCCC
accession=JP010756
date=2016.01.19 (Created 2008.10.21, modified 2011.05.06)
author=YAMAMOTO M, DEP. CHEMISTRY, FAC. SCIENCE, NARA WOMEN'S UNIV.
license=CC BY-NC-SA
exact mass=290.22458
ionization energy=70 eV
ion type=[M]+*
computed spectral entropy=3.075513702103094
computed normalized entropy=0.7542576234829557
SPLASH=splash10-052f-9300000000-f8e0800257ea849fcdd2
submitter=submitter = University of Tokyo Team (Faculty of Engineering, University of Tokyo)
MoNA Rating=3.75

>  <NUM PEAKS>  (943) 
59

>  <MASS SPECTRAL PEAKS>  (943) 
27 7
29 15
39 7
41 2.15
42 6.1
43 37.9
50 2.7
51 0.46
52 1.3
54 1.8
55 15.4
56 0.32
57 22.9
60 2.7
65 8.4
67 0.27
69 11.2
70 1.4
71 11.2
73 0.6
74 6
77 8.4
78 1.3
79 1.21
81 3.7
83 10.7
84 2.7
85 0.7
87 4.1
88 3.7
89 3.7
90 0.75
91 99.99
92 38.8
93 2.3
95 0.32
97 8.4
98 3.2
101 2.7
105 0.32
106 1.3
107 11.2
108 85.5
109 0.75
111 3.2
115 2.3
125 2.3
129 0.32
139 1.8
150 1.3
157 1.3
163 0.61
180 1.8
181 10.7
183 8.4
199 1.31
200 2.7
290 8.9
291 3.3

$$$$

     RDKit          2D

  5  4  0  0  0  0  0  0  0  0999 V2000
   -0.0000   -0.0000    0.0000 C   0  0  0  0  0  0  0  0  0  0  0  0
   -1.2990    3.7500    0.0000 C   0  0  0  0  0  0  0  0  0  0  0  0
   -2.5981    1.5000    0.0000 C   0  0  0  0  0  0  0  0  0  0  0  0
    0.0000    1.5000    0.0000 C   0  0  0  0  0  0  0  0  0  0  0  0
   -1.2990    2.2500    0.0000 C   0  0  0  0  0  0  0  0  0  0  0  0
  4  1  1  0
  5  2  1  0
  5  3  1  0
  5  4  1  0
M  END
>  <NAME>  (944) 
ISOPENTANE

>  <SYNONYMS>  (944) 


>  <SPECTRUM TYPE>  (944) 
MS1

>  <INSTRUMENT TYPE>  (944) 
EI-B

>  <INSTRUMENT>  (944) 
HITACHI RMU-6M

>  <ION MODE>  (944) 
P

>  <INCHIKEY>  (944) 
QWTDNUCVQCZILF-UHFFFAOYSA-N

>  <FORMULA>  (944) 
C5H12

>  <EXACT MASS>  (944) 
72.093900384

>  <MW>  (944) 
72

>  <ID>  (944) 
JP010755

>  <CONTRIBUTOR>  (944) 
University of Tokyo Team, {Faculty of Engineering, University of Tokyo

>  <COMMENT>  (944) 
SMILES=CCC(C)C
InChI=InChI=1S/C5H12/c1-4-5(2)3/h5H,4H2,1-3H3
computed SMILES=CCC(C)C
accession=JP010755
date=2016.01.19 (Created 2008.10.21, modified 2011.05.06)
author=YAMAMOTO M, DEP. CHEMISTRY, FAC. SCIENCE, NARA WOMEN'S UNIV.
license=CC BY-NC-SA
exact mass=72.0939
ionization energy=70 eV
ion type=[M]+*
computed spectral entropy=2.135683459942085
computed normalized entropy=0.6909266023252884
SPLASH=splash10-0006-9000000000-959204d9c92e9a8c6294
submitter=submitter = University of Tokyo Team (Faculty of Engineering, University of Tokyo)
MoNA Rating=3.75

>  <NUM PEAKS>  (944) 
22

>  <MASS SPECTRAL PEAKS>  (944) 
15 1.8
26 2.4
27 26.5
28 0.41
29 36.5
30 1.2
38 1.8
39 1.71
40 2.4
41 70.6
42 88.2
43 99.99
44 3.5
50 1.2
51 1.2
53 0.24
55 5.3
56 20
57 58.2
58 0.29
71 2.4
72 8.8

$$$$

     RDKit          2D

  7  7  0  0  0  0  0  0  0  0999 V2000
   -0.0000   -1.9300    0.0000 C   0  0  0  0  0  0  0  0  0  0  0  0
    0.0000    2.5700    0.0000 C   0  0  0  0  0  0  0  0  0  0  0  0
   -1.3000    1.8200    0.0000 C   0  0  0  0  0  0  0  0  0  0  0  0
    1.3000    1.8200    0.0000 C   0  0  0  0  0  0  0  0  0  0  0  0
   -1.3000    0.3200    0.0000 C   0  0  0  0  0  0  0  0  0  0  0  0
    1.3000    0.3200    0.0000 C   0  0  0  0  0  0  0  0  0  0  0  0
   -0.0000   -0.4300    0.0000 C   0  0  0  0  0  0  0  0  0  0  0  0
  3  2  1  0
  4  2  1  0
  5  3  1  0
  6  4  1  0
  7  1  1  0
  7  5  1  0
  7  6  1  0
M  END
>  <NAME>  (945) 
METHYLCYCLOHEXANE

>  <SYNONYMS>  (945) 


>  <SPECTRUM TYPE>  (945) 
MS1

>  <INSTRUMENT TYPE>  (945) 
EI-B

>  <INSTRUMENT>  (945) 
HITACHI RMU-6M

>  <ION MODE>  (945) 
P

>  <INCHIKEY>  (945) 
UAEPNZWRGJTJPN-UHFFFAOYSA-N

>  <FORMULA>  (945) 
C7H14

>  <EXACT MASS>  (945) 
98.109550448

>  <MW>  (945) 
98

>  <ID>  (945) 
JP010754

>  <CONTRIBUTOR>  (945) 
University of Tokyo Team, {Faculty of Engineering, University of Tokyo

>  <COMMENT>  (945) 
SMILES=CC(C1)CCCC1
InChI=InChI=1S/C7H14/c1-7-5-3-2-4-6-7/h7H,2-6H2,1H3
computed SMILES=CC1CCCCC1
accession=JP010754
date=2016.01.19 (Created 2008.10.21, modified 2011.05.06)
author=YAMAMOTO M, DEP. CHEMISTRY, FAC. SCIENCE, NARA WOMEN'S UNIV.
license=CC BY-NC-SA
exact mass=98.10955
ionization energy=70 eV
ion type=[M]+*
computed spectral entropy=2.5902906504891643
computed normalized entropy=0.7345507166403846
SPLASH=splash10-0a5c-9000000000-0697900a2fd1ebf8a9aa
submitter=submitter = University of Tokyo Team (Faculty of Engineering, University of Tokyo)
MoNA Rating=3.75

>  <NUM PEAKS>  (945) 
34

>  <MASS SPECTRAL PEAKS>  (945) 
15 1
26 1.6
27 17.1
28 0.47
29 14.5
38 1.6
39 21.8
40 0.41
41 49.7
42 32.1
43 7.8
50 0.1
51 2.1
52 1
53 5.7
54 0.47
55 88.6
56 30.1
57 5.2
65 0.1
67 4.7
68 9.3
69 22.3
70 2.38
71 1.6
77 1
79 1
81 0.1
82 14.5
83 99.99
84 6.7
97 0.26
98 48.2
99 3.6

$$$$

     RDKit          2D

 11 12  0  0  0  0  0  0  0  0999 V2000
    1.1800    2.7300    0.0000 C   0  0  0  0  0  0  0  0  0  0  0  0
   -2.7200   -1.0200    0.0000 C   0  0  0  0  0  0  0  0  0  0  0  0
   -2.7200    0.4800    0.0000 C   0  0  0  0  0  0  0  0  0  0  0  0
    2.4800   -1.0200    0.0000 C   0  0  0  0  0  0  0  0  0  0  0  0
    2.4800    0.4800    0.0000 C   0  0  0  0  0  0  0  0  0  0  0  0
   -1.4200   -1.7700    0.0000 C   0  0  0  0  0  0  0  0  0  0  0  0
    1.1800   -1.7700    0.0000 C   0  0  0  0  0  0  0  0  0  0  0  0
   -1.4200    1.2300    0.0000 C   0  0  0  0  0  0  0  0  0  0  0  0
    1.1800    1.2300    0.0000 C   0  0  0  0  0  0  0  0  0  0  0  0
   -0.1200   -1.0200    0.0000 C   0  0  0  0  0  0  0  0  0  0  0  0
   -0.1200    0.4800    0.0000 C   0  0  0  0  0  0  0  0  0  0  0  0
  3  2  2  0
  5  4  1  0
  6  2  1  0
  7  4  2  0
  8  3  1  0
  9  1  1  0
  9  5  2  0
 10  6  2  0
 10  7  1  0
 11  8  2  0
 11  9  1  0
 11 10  1  0
M  END
>  <NAME>  (946) 
ALPHA-METHYLNAPHTHALENE

>  <SYNONYMS>  (946) 


>  <SPECTRUM TYPE>  (946) 
MS1

>  <INSTRUMENT TYPE>  (946) 
EI-B

>  <INSTRUMENT>  (946) 
HITACHI RMU-6M

>  <ION MODE>  (946) 
P

>  <INCHIKEY>  (946) 
QPUYECUOLPXSFR-UHFFFAOYSA-N

>  <FORMULA>  (946) 
C11H10

>  <EXACT MASS>  (946) 
142.07825032

>  <MW>  (946) 
142

>  <ID>  (946) 
JP010753

>  <CONTRIBUTOR>  (946) 
University of Tokyo Team, {Faculty of Engineering, University of Tokyo

>  <COMMENT>  (946) 
SMILES=Cc(c1)c(c2)c(ccc2)cc1
InChI=InChI=1S/C11H10/c1-9-5-4-7-10-6-2-3-8-11(9)10/h2-8H,1H3
computed SMILES=C=1C=CC2=C(C1)C=CC=C2C
accession=JP010753
date=2016.01.19 (Created 2008.10.21, modified 2011.05.06)
author=YAMAMOTO M, DEP. CHEMISTRY, FAC. SCIENCE, NARA WOMEN'S UNIV.
license=CC BY-NC-SA
exact mass=142.07825
ionization energy=70 eV
ion type=[M]+*
computed spectral entropy=2.416360202621653
computed normalized entropy=0.6595658640477379
SPLASH=splash10-0006-3900000000-5b7a1e8903022a3f5a57
submitter=submitter = University of Tokyo Team (Faculty of Engineering, University of Tokyo)
MoNA Rating=3.75

>  <NUM PEAKS>  (946) 
39

>  <MASS SPECTRAL PEAKS>  (946) 
27 1.3
38 1.3
39 4.4
50 0.25
51 4.1
52 1
57.5 7
58 0.13
62 3.2
63 7
64 1.3
65 0.22
69 2.2
69.5 3.8
70 4.8
70.5 0.54
71 9.5
72 1.3
74 2.5
75 0.25
76 1.6
77 2.2
86 1.6
87 0.22
88 1.3
89 4.1
91 1.9
102 0.13
113 1.6
114 1.3
115 24.8
116 0.25
126 1.3
139 9.5
140 3.8
141 7.11
142 99.99
143 12.4
144 1

$$$$

     RDKit          2D

 13 13  0  0  0  0  0  0  0  0999 V2000
   -5.5207    3.1321    0.0000 C   0  0  0  0  0  0  0  0  0  0  0  0
   -4.2216    2.3821    0.0000 C   0  0  0  0  0  0  0  0  0  0  0  0
    3.5726    0.8821    0.0000 C   0  0  0  0  0  0  0  0  0  0  0  0
    3.5731    2.3829    0.0000 C   0  0  0  0  0  0  0  0  0  0  0  0
    2.2731    0.1313    0.0000 C   0  0  0  0  0  0  0  0  0  0  0  0
    2.2740    3.1329    0.0000 C   0  0  0  0  0  0  0  0  0  0  0  0
    0.9740    0.8813    0.0000 C   0  0  0  0  0  0  0  0  0  0  0  0
    0.9745    2.3821    0.0000 C   0  0  0  0  0  0  0  0  0  0  0  0
   -0.3245    3.1321    0.0000 C   0  0  0  0  0  0  0  0  0  0  0  0
   -1.6236    2.3821    0.0000 C   0  0  0  0  0  0  0  0  0  0  0  0
   -0.3245    4.6321    0.0000 O   0  0  0  0  0  0  0  0  0  0  0  0
   -1.6236    0.8821    0.0000 O   0  0  0  0  0  0  0  0  0  0  0  0
   -2.9226    3.1321    0.0000 O   0  0  0  0  0  0  0  0  0  0  0  0
  2  1  1  0
  4  3  2  0
  5  3  1  0
  6  4  1  0
  7  5  2  0
  8  6  2  0
  8  7  1  0
  9  8  1  0
 10  9  1  0
 11  9  1  0
 12 10  2  0
 13  2  1  0
 13 10  1  0
M  END
>  <NAME>  (947) 
ETHYL MANDELATE

>  <SYNONYMS>  (947) 


>  <SPECTRUM TYPE>  (947) 
MS1

>  <INSTRUMENT TYPE>  (947) 
EI-B

>  <INSTRUMENT>  (947) 
HITACHI RMU-6M

>  <ION MODE>  (947) 
P

>  <INCHIKEY>  (947) 
SAXHIDRUJXPDOD-UHFFFAOYSA-N

>  <FORMULA>  (947) 
C10H12O3

>  <EXACT MASS>  (947) 
180.07864424399997

>  <MW>  (947) 
180

>  <ID>  (947) 
JP010752

>  <CONTRIBUTOR>  (947) 
University of Tokyo Team, {Faculty of Engineering, University of Tokyo

>  <COMMENT>  (947) 
SMILES=CCOC(=O)C(O)c(c1)cccc1
InChI=InChI=1S/C10H12O3/c1-2-13-10(12)9(11)8-6-4-3-5-7-8/h3-7,9,11H,2H2,1H3
computed SMILES=O=C(OCC)C(O)C=1C=CC=CC1
accession=JP010752
date=2016.01.19 (Created 2008.10.21, modified 2011.05.06)
author=YAMAMOTO M, DEP. CHEMISTRY, FAC. SCIENCE, NARA WOMEN'S UNIV.
license=CC BY-NC-SA
exact mass=180.07864
ionization energy=70 eV
ion type=[M]+*
computed spectral entropy=1.989275996670734
computed normalized entropy=0.610563859436389
SPLASH=splash10-0a6r-8900000000-68d023b77541f70740df
submitter=submitter = University of Tokyo Team (Faculty of Engineering, University of Tokyo)
MoNA Rating=3.75

>  <NUM PEAKS>  (947) 
26

>  <MASS SPECTRAL PEAKS>  (947) 
27 6.4
28 1.1
29 10.4
31 0.25
38 1.1
39 3.2
45 1.4
50 0.25
51 8.6
52 2.5
53 2.1
56 0.14
57 1.1
63 1.4
77 23.9
78 0.43
79 43.9
80 2.9
89 1.1
90 0.11
105 7.5
106 1.8
107 99.99
108 0.86
180 8.2
181 1.1

$$$$

     RDKit          2D

 10 10  0  0  0  0  0  0  0  0999 V2000
   -2.5989    1.5002    0.0000 C   0  0  0  0  0  0  0  0  0  0  0  0
    3.8981   -0.7504    0.0000 C   0  0  0  0  0  0  0  0  0  0  0  0
    2.5987   -3.0002    0.0000 C   0  0  0  0  0  0  0  0  0  0  0  0
   -1.3000   -0.7500    0.0000 C   0  0  0  0  0  0  0  0  0  0  0  0
    0.0000    1.5000    0.0000 C   0  0  0  0  0  0  0  0  0  0  0  0
    0.0000   -1.5000    0.0000 C   0  0  0  0  0  0  0  0  0  0  0  0
    1.3000    0.7500    0.0000 C   0  0  0  0  0  0  0  0  0  0  0  0
   -1.3000    0.7500    0.0000 C   0  0  0  0  0  0  0  0  0  0  0  0
    1.3000   -0.7500    0.0000 C   0  0  0  0  0  0  0  0  0  0  0  0
    2.5989   -1.5002    0.0000 N   0  0  0  0  0  0  0  0  0  0  0  0
  6  4  2  0
  7  5  1  0
  8  1  1  0
  8  4  1  0
  8  5  2  0
  9  6  1  0
  9  7  2  0
 10  2  1  0
 10  3  1  0
 10  9  1  0
M  END
>  <NAME>  (948) 
N,N-DIMETHYL-PARA-TOLUIDINE

>  <SYNONYMS>  (948) 


>  <SPECTRUM TYPE>  (948) 
MS1

>  <INSTRUMENT TYPE>  (948) 
EI-B

>  <INSTRUMENT>  (948) 
HITACHI RMU-6M

>  <ION MODE>  (948) 
P

>  <INCHIKEY>  (948) 
GYVGXEWAOAAJEU-UHFFFAOYSA-N

>  <FORMULA>  (948) 
C9H13N

>  <EXACT MASS>  (948) 
135.104799416

>  <MW>  (948) 
135

>  <ID>  (948) 
JP010751

>  <CONTRIBUTOR>  (948) 
University of Tokyo Team, {Faculty of Engineering, University of Tokyo

>  <COMMENT>  (948) 
SMILES=Cc(c1)ccc(c1)N(C)C
InChI=InChI=1S/C9H13N/c1-8-4-6-9(7-5-8)10(2)3/h4-7H,1-3H3
computed SMILES=C=1C=C(C=CC1N(C)C)C
accession=JP010751
date=2016.01.19 (Created 2008.10.21, modified 2011.05.06)
author=YAMAMOTO M, DEP. CHEMISTRY, FAC. SCIENCE, NARA WOMEN'S UNIV.
license=CC BY-NC-SA
exact mass=135.1048
ionization energy=70 eV
ion type=[M]+*
computed spectral entropy=2.616644738718464
computed normalized entropy=0.6873855367399129
SPLASH=splash10-001i-5900000000-93a9f72d75f5fa56dff2
submitter=submitter = University of Tokyo Team (Faculty of Engineering, University of Tokyo)
MoNA Rating=3.75

>  <NUM PEAKS>  (948) 
45

>  <MASS SPECTRAL PEAKS>  (948) 
15 2.4
27 2
28 1.3
38 0.1
39 6.7
40 1
41 2.4
42 0.61
44 2.4
50 2.2
51 5.1
52 0.24
53 1.3
55 1
58.5 1.7
62 0.13
63 4.4
64 1.3
65 10.1
66 0.17
66.5 6.7
67 2
67.5 4.7
76 0.1
77 5.7
78 2.7
79 1.7
89 0.34
90 2
91 19.2
92 3.7
93 0.2
104 1
105 1.7
106 1
117 0.13
118 12.1
119 13.5
120 6.1
121 0.1
132 1.7
133 2.7
134 99.99
135 7.54
136 7.7

$$$$

     RDKit          2D

 16 17  0  0  0  0  0  0  0  0999 V2000
  -13.1165   -0.6149    0.0000 C   0  0  0  0  0  0  0  0  0  0  0  0
  -12.2348    0.5986    0.0000 C   0  0  0  0  0  0  0  0  0  0  0  0
  -11.3532    1.8122    0.0000 C   0  0  0  0  0  0  0  0  0  0  0  0
  -10.4715    3.0257    0.0000 C   0  0  0  0  0  0  0  0  0  0  0  0
   -9.5898    4.2392    0.0000 C   0  0  0  0  0  0  0  0  0  0  0  0
   -4.1963    1.8379    0.0000 C   0  0  0  0  0  0  0  0  0  0  0  0
   -2.7697    2.3014    0.0000 C   0  0  0  0  0  0  0  0  0  0  0  0
   -8.7081    5.4527    0.0000 C   0  0  0  0  0  0  0  0  0  0  0  0
   -6.2127    6.4107    0.0000 C   0  0  0  0  0  0  0  0  0  0  0  0
   -5.3110    2.8415    0.0000 C   0  0  0  0  0  0  0  0  0  0  0  0
   -4.8423    5.8006    0.0000 C   0  0  0  0  0  0  0  0  0  0  0  0
   -2.4578    3.7686    0.0000 C   0  0  0  0  0  0  0  0  0  0  0  0
   -7.2163    5.2959    0.0000 C   0  0  0  0  0  0  0  0  0  0  0  0
   -4.9991    4.3088    0.0000 C   0  0  0  0  0  0  0  0  0  0  0  0
   -3.5725    4.7723    0.0000 O   0  0  0  0  0  0  0  0  0  0  0  0
   -6.4663    3.9969    0.0000 O   0  0  0  0  0  0  0  0  0  0  0  0
  2  1  1  0
  3  2  3  0
  4  3  1  0
  5  4  3  0
  7  6  1  0
  8  5  1  0
 10  6  1  0
 11  9  2  0
 12  7  1  0
  8 13  2  0
 13  9  1  0
 14 10  1  0
 14 11  1  0
 15 12  1  0
 15 14  1  0
 16 13  1  0
 16 14  1  0
M  END
>  <NAME>  (949) 
(2Z)-2-(2,4-HEXADIYNYIDENE)-1,6-DIOXASPIRO(4,5)DEC-3-ENE

>  <SYNONYMS>  (949) 


>  <SPECTRUM TYPE>  (949) 
MS1

>  <INSTRUMENT TYPE>  (949) 
EI-B

>  <INSTRUMENT>  (949) 
HITACHI RMU-6L

>  <ION MODE>  (949) 
P

>  <INCHIKEY>  (949) 
RNEORCMLRJNFGE-JYRVWZFOSA-N

>  <FORMULA>  (949) 
C14H14O2

>  <EXACT MASS>  (949) 
214.099379688

>  <MW>  (949) 
214

>  <ID>  (949) 
JP010712

>  <CONTRIBUTOR>  (949) 
University of Tokyo Team, {Faculty of Engineering, University of Tokyo

>  <COMMENT>  (949) 
SMILES=CC#CC#CC([H])=C(O1)C([H])=C([H])C(C2)(OCCC2)1
InChI=InChI=1S/C14H14O2/c1-2-3-4-5-8-13-9-11-14(16-13)10-6-7-12-15-14/h8-9,11H,6-7,10,12H2,1H3/b13-8-
computed SMILES=C(C#CC)#CC=C1OC2(OCCCC2)C=C1
accession=JP010712
date=2016.01.19 (Created 2008.10.21, modified 2011.05.06)
author=EGUCHI S, FAC. OF SCIENCE, HIROSHIMA UNIV.
license=CC BY-NC-SA
exact mass=214.09938
ionization energy=70 eV
ion type=[M]+*
computed spectral entropy=4.201007911989912
computed normalized entropy=0.8644382874160977
SPLASH=splash10-06vi-9820000000-6ad47b6595f8b86cbf80
submitter=submitter = University of Tokyo Team (Faculty of Engineering, University of Tokyo)
MoNA Rating=3.75

>  <NUM PEAKS>  (949) 
129

>  <MASS SPECTRAL PEAKS>  (949) 
41 48
42 12
43 19
50 6.1
51 38
52 22.5
53 25.5
54 2.8
55 56
56 6
57 6
61 0.4
62 11.5
63 21
64 6.5
65 1.15
66 6
67 12
68 7
69 0.8
70 2
71 5
73 3
74 2.3
75 30
76 65
77 38.5
78 1.2
79 14
80 7
81 18
82 1.8
83 6
84 2
85 3
86 0.6
87 11
88 7.5
89 10.5
90 0.3
91 18
92 4.5
93 5
94 0.5
95 7
96 4
97 3.5
98 0.35
99 3.5
100 3
101 7
102 3.8
103 13
104 7.5
105 6
106 0.2
107 6
108 2
109 2
110 0.45
111 2
113 5
114 4
115 5.15
116 12
117 8
118 3
119 0.4
120 2
121 3
122 4
124 0.3
126 7
127 19.5
128 29
129 2.8
130 24
131 11
132 6
133 0.4
134 2
135 2
137 3
138 0.45
139 5.5
140 3
141 14
142 0.95
143 16
144 10
145 13
146 0.3
147 5
148 3
149 9
150 0.4
151 2.5
152 6
153 7
154 0.3
155 8
156 56
157 29
158 4
159 14
160 4
161 2.5
165 0.3
167 3
168 2
169 21
170 0.8
171 21
172 6
173 5
181 0.4
182 2
183 4
184 5
185 2.7
186 18
187 4
197 5
198 0.3
199 8
200 6.5
213 14
214 99.99
215 16

$$$$

     RDKit          2D

 18 19  0  0  0  0  0  0  0  0999 V2000
  -12.2911    5.4579    0.0000 C   0  0  0  0  0  0  0  0  0  0  0  0
  -10.7993    5.3011    0.0000 C   0  0  0  0  0  0  0  0  0  0  0  0
   -9.3075    5.1443    0.0000 C   0  0  0  0  0  0  0  0  0  0  0  0
   -7.8158    4.9876    0.0000 C   0  0  0  0  0  0  0  0  0  0  0  0
   -6.3240    4.8308    0.0000 C   0  0  0  0  0  0  0  0  0  0  0  0
   -5.7068   -1.0409    0.0000 C   0  0  0  0  0  0  0  0  0  0  0  0
   -4.5921   -2.0445    0.0000 C   0  0  0  0  0  0  0  0  0  0  0  0
   -4.8322    4.6740    0.0000 C   0  0  0  0  0  0  0  0  0  0  0  0
   -5.3950    0.4264    0.0000 C   0  0  0  0  0  0  0  0  0  0  0  0
   -3.1655   -1.5810    0.0000 C   0  0  0  0  0  0  0  0  0  0  0  0
   -4.2221    3.3037    0.0000 C   0  0  0  0  0  0  0  0  0  0  0  0
   -2.7549    2.9918    0.0000 C   0  0  0  0  0  0  0  0  0  0  0  0
   -2.5981    1.5000    0.0000 C   0  0  0  0  0  0  0  0  0  0  0  0
   -3.9684    0.8899    0.0000 C   0  0  0  0  0  0  0  0  0  0  0  0
   -1.6402    3.9955    0.0000 O   0  0  0  0  0  0  0  0  0  0  0  0
   -1.2990    0.7500    0.0000 O   0  0  0  0  0  0  0  0  0  0  0  0
   -2.8537   -0.1138    0.0000 O   0  0  0  0  0  0  0  0  0  0  0  0
   -4.9721    2.0046    0.0000 O   0  0  0  0  0  0  0  0  0  0  0  0
  2  1  1  0
  3  2  3  0
  4  3  1  0
  5  4  3  0
  7  6  1  0
  8  5  1  0
  9  6  1  0
 10  7  1  0
  8 11  2  0
 12 11  1  0
 13 12  1  0
 14  9  1  0
 14 13  1  0
 15 12  1  0
 16 13  1  0
 17 10  1  0
 17 14  1  0
 18 11  1  0
 18 14  1  0
M  END
>  <NAME>  (950) 
(2Z)-2-(2,4-HEXADIYNYLIDENE)-3,4-DIHYDROXY-1,6-DIOXASPIRO(4,5)DECANE

>  <SYNONYMS>  (950) 


>  <SPECTRUM TYPE>  (950) 
MS1

>  <INSTRUMENT TYPE>  (950) 
EI-B

>  <INSTRUMENT>  (950) 
HITACHI RMU-6L

>  <ION MODE>  (950) 
P

>  <INCHIKEY>  (950) 
YCXFYWBMQJMDBX-FLIBITNWSA-N

>  <FORMULA>  (950) 
C14H16O4

>  <EXACT MASS>  (950) 
248.104858992

>  <MW>  (950) 
248

>  <ID>  (950) 
JP010711

>  <CONTRIBUTOR>  (950) 
University of Tokyo Team, {Faculty of Engineering, University of Tokyo

>  <COMMENT>  (950) 
SMILES=CC#CC#CC([H])=C(O1)C(O)C(O)C(C2)(OCCC2)1
InChI=InChI=1S/C14H16O4/c1-2-3-4-5-8-11-12(15)13(16)14(18-11)9-6-7-10-17-14/h8,12-13,15-16H,6-7,9-10H2,1H3/b11-8-
computed SMILES=OC1C(OC2(OCCCC2)C1O)=CC#CC#CC
accession=JP010711
date=2016.01.19 (Created 2008.10.21, modified 2011.05.06)
author=EGUCHI S, FAC. OF SCIENCE, HIROSHIMA UNIV.
license=CC BY-NC-SA
exact mass=248.10486
ionization energy=70 eV
ion type=[M]+*
computed spectral entropy=3.952247815762239
computed normalized entropy=0.8457934060444471
SPLASH=splash10-0lxx-9400000000-f96c5862138c3408e052
submitter=submitter = University of Tokyo Team (Faculty of Engineering, University of Tokyo)
MoNA Rating=3.75

>  <NUM PEAKS>  (950) 
107

>  <MASS SPECTRAL PEAKS>  (950) 
41 65
42 16.5
43 43
44 0.75
45 13
50 32
51 32
52 1.15
53 13.5
54 4
55 37
56 0.7
57 24
58 33
59 7
60 0.7
61 2
62 4.5
63 12
64 0.6
65 9.5
66 4.5
67 30
68 1
69 10.5
70 7.5
71 29
72 0.55
73 30.5
74 7.5
75 10.5
76 3
77 28
78 9.5
79 18.5
80 0.8
81 8
82 3
83 13.5
84 0.45
85 30
86 4.5
87 9
88 0.45
89 10
90 15.5
91 10.5
92 0.2
93 3
94 2
95 14
96 0.45
97 7
98 4
99 3
101 0.6
102 3.5
103 4.5
104 11
105 0.5
106 4.5
107 13
108 5
109 0.25
111 3
112 2
113 99.99
114 5.9
115 9.5
116 2.5
117 4
118 0.9
119 5
121 9
122 2.5
125 0.5
126 18
127 5
128 3
129 0.3
131 5
132 3
133 4.5
134 0.2
135 10
136 50
137 5
141 0.35
143 7
144 2.5
145 5
146 0.4
147 2
148 2
149 2
159 0.3
160 2
161 3
173 4.5
174 0.3
175 2
202 2
203 2
230 0.2
231 4
248 21
249 4

$$$$

     RDKit          2D

 24 25  0  0  0  0  0  0  0  0999 V2000
    2.4054    4.3611    0.0000 C   0  0  0  0  0  0  0  0  0  0  0  0
   -5.1265    6.4441    0.0000 C   0  0  0  0  0  0  0  0  0  0  0  0
  -10.9449    4.0431    0.0000 C   0  0  0  0  0  0  0  0  0  0  0  0
    1.5237    3.1476    0.0000 C   0  0  0  0  0  0  0  0  0  0  0  0
    0.0319    3.3044    0.0000 C   0  0  0  0  0  0  0  0  0  0  0  0
   -0.8497    2.0908    0.0000 C   0  0  0  0  0  0  0  0  0  0  0  0
   -2.3415    2.2476    0.0000 C   0  0  0  0  0  0  0  0  0  0  0  0
   -8.3880   -1.5637    0.0000 C   0  0  0  0  0  0  0  0  0  0  0  0
   -9.6871   -0.8137    0.0000 C   0  0  0  0  0  0  0  0  0  0  0  0
   -3.2232    1.0341    0.0000 C   0  0  0  0  0  0  0  0  0  0  0  0
   -7.0890   -0.8137    0.0000 C   0  0  0  0  0  0  0  0  0  0  0  0
   -9.6871    0.6863    0.0000 C   0  0  0  0  0  0  0  0  0  0  0  0
   -5.7366    5.0738    0.0000 C   0  0  0  0  0  0  0  0  0  0  0  0
   -9.8302    3.0394    0.0000 C   0  0  0  0  0  0  0  0  0  0  0  0
   -4.7150    1.1909    0.0000 C   0  0  0  0  0  0  0  0  0  0  0  0
   -5.4650    2.4899    0.0000 C   0  0  0  0  0  0  0  0  0  0  0  0
   -6.9322    2.1781    0.0000 C   0  0  0  0  0  0  0  0  0  0  0  0
   -7.0890    0.6863    0.0000 C   0  0  0  0  0  0  0  0  0  0  0  0
   -7.2283    4.9170    0.0000 O   0  0  0  0  0  0  0  0  0  0  0  0
  -10.1421    1.5722    0.0000 O   0  0  0  0  0  0  0  0  0  0  0  0
   -8.3880    1.4363    0.0000 O   0  0  0  0  0  0  0  0  0  0  0  0
   -4.8549    3.8602    0.0000 O   0  0  0  0  0  0  0  0  0  0  0  0
   -8.4036    3.5029    0.0000 O   0  0  0  0  0  0  0  0  0  0  0  0
   -5.7187    0.0762    0.0000 O   0  0  0  0  0  0  0  0  0  0  0  0
  4  1  1  0
  5  4  1  0
  6  5  1  0
  7  6  1  0
  9  8  1  0
 10  7  1  0
 11  8  1  0
 12  9  1  0
 13  2  1  0
 14  3  1  0
 15 10  1  0
 16 15  1  0
 17 16  1  0
 18 11  1  0
 18 17  1  0
 19 13  2  0
 20 14  2  0
 21 12  1  0
 21 18  1  0
 22 13  1  0
 22 16  1  0
 23 14  1  0
 23 17  1  0
 24 15  1  0
 24 18  1  0
M  END
>  <NAME>  (951) 
2-HEXYL-3,4-DIACETOXY-1,6-DIOXASPIRO(4,5)DECANE

>  <SYNONYMS>  (951) 


>  <SPECTRUM TYPE>  (951) 
MS1

>  <INSTRUMENT TYPE>  (951) 
EI-B

>  <INSTRUMENT>  (951) 
HITACHI RMU-6L

>  <ION MODE>  (951) 
P

>  <INCHIKEY>  (951) 
CCGIUVLTJQXRSI-UHFFFAOYSA-N

>  <FORMULA>  (951) 
C18H30O6

>  <EXACT MASS>  (951) 
342.20423868

>  <MW>  (951) 
342

>  <ID>  (951) 
JP010710

>  <CONTRIBUTOR>  (951) 
University of Tokyo Team, {Faculty of Engineering, University of Tokyo

>  <COMMENT>  (951) 
SMILES=CCCCCCC(O1)C(OC(C)=O)C(OC(C)=O)C(C2)(OCCC2)1
InChI=InChI=1S/C18H30O6/c1-4-5-6-7-10-15-16(22-13(2)19)17(23-14(3)20)18(24-15)11-8-9-12-21-18/h15-17H,4-12H2,1-3H3
computed SMILES=O=C(OC1C(OC2(OCCCC2)C1OC(=O)C)CCCCCC)C
accession=JP010710
date=2016.01.19 (Created 2008.10.21, modified 2011.05.06)
author=EGUCHI S, FAC. OF SCIENCE, HIROSHIMA UNIV.
license=CC BY-NC-SA
exact mass=342.20424
ionization energy=70 eV
ion type=[M]+*
computed spectral entropy=3.4999256064951307
computed normalized entropy=0.7964423943268981
SPLASH=splash10-0006-9600000000-cf02aa2ca1a5d7d14cd6
submitter=submitter = University of Tokyo Team (Faculty of Engineering, University of Tokyo)
MoNA Rating=3.75

>  <NUM PEAKS>  (951) 
81

>  <MASS SPECTRAL PEAKS>  (951) 
41 22
42 6
43 99.99
44 0.5
45 2.5
53 2
54 2.5
55 2.7
56 5
57 12
58 2
59 0.4
60 1
61 3
66 1
67 0.65
68 3
69 8
70 6
71 1.5
72 1.5
73 3
79 3
80 0.15
81 7
82 3.5
83 16
84 0.35
85 8
86 2
87 2
91 0.15
93 2
94 1.5
95 3.5
96 0.8
97 1.5
98 8
99 3.5
101 3.8
107 1
109 2.5
110 1.5
111 0.5
112 5
113 4.5
114 3.5
115 0.25
121 2
122 4
123 2
124 0.15
125 14
126 8
127 28
128 0.4
130 5
137 4.5
139 14.5
140 2.2
143 14
155 8.5
157 4.5
158 0.2
165 2
168 7
169 29
182 0.95
197 3.5
199 3
200 8
212 0.15
223 2
228 2
240 1.5
242 0.15
257 1.5
282 5
283 1
342 0.55
343 1.5

$$$$

     RDKit          2D

 21 22  0  0  0  0  0  0  0  0999 V2000
  -12.2911    5.4579    0.0000 C   0  0  0  0  0  0  0  0  0  0  0  0
    0.9012    4.5356    0.0000 C   0  0  0  0  0  0  0  0  0  0  0  0
  -10.7993    5.3011    0.0000 C   0  0  0  0  0  0  0  0  0  0  0  0
   -9.3075    5.1443    0.0000 C   0  0  0  0  0  0  0  0  0  0  0  0
   -7.8158    4.9876    0.0000 C   0  0  0  0  0  0  0  0  0  0  0  0
   -6.3240    4.8308    0.0000 C   0  0  0  0  0  0  0  0  0  0  0  0
   -5.7068   -1.0409    0.0000 C   0  0  0  0  0  0  0  0  0  0  0  0
   -4.5921   -2.0445    0.0000 C   0  0  0  0  0  0  0  0  0  0  0  0
   -4.8322    4.6740    0.0000 C   0  0  0  0  0  0  0  0  0  0  0  0
   -5.3950    0.4264    0.0000 C   0  0  0  0  0  0  0  0  0  0  0  0
   -3.1655   -1.5810    0.0000 C   0  0  0  0  0  0  0  0  0  0  0  0
   -0.2136    3.5320    0.0000 C   0  0  0  0  0  0  0  0  0  0  0  0
   -4.2221    3.3037    0.0000 C   0  0  0  0  0  0  0  0  0  0  0  0
   -2.7549    2.9918    0.0000 C   0  0  0  0  0  0  0  0  0  0  0  0
   -2.5981    1.5000    0.0000 C   0  0  0  0  0  0  0  0  0  0  0  0
   -3.9684    0.8899    0.0000 C   0  0  0  0  0  0  0  0  0  0  0  0
    0.0983    2.0647    0.0000 O   0  0  0  0  0  0  0  0  0  0  0  0
   -1.2990    0.7500    0.0000 O   0  0  0  0  0  0  0  0  0  0  0  0
   -2.8537   -0.1138    0.0000 O   0  0  0  0  0  0  0  0  0  0  0  0
   -1.6402    3.9955    0.0000 O   0  0  0  0  0  0  0  0  0  0  0  0
   -4.9721    2.0046    0.0000 O   0  0  0  0  0  0  0  0  0  0  0  0
  3  1  1  0
  4  3  3  0
  5  4  1  0
  6  5  3  0
  8  7  1  0
  9  6  1  0
 10  7  1  0
 11  8  1  0
 12  2  1  0
  9 13  2  0
 14 13  1  0
 15 14  1  0
 16 10  1  0
 16 15  1  0
 17 12  2  0
 18 15  1  0
 19 11  1  0
 19 16  1  0
 20 12  1  0
 20 14  1  0
 21 13  1  0
 21 16  1  0
M  END
>  <NAME>  (952) 
(2Z)-2-(2,4-HEXADIYNYLIDENE)-3-ACETOXY-4-HYDROXY-1,6-DIOXASPIRO(4,5)DECANE

>  <SYNONYMS>  (952) 


>  <SPECTRUM TYPE>  (952) 
MS1

>  <INSTRUMENT TYPE>  (952) 
EI-B

>  <INSTRUMENT>  (952) 
HITACHI RMU-6L

>  <ION MODE>  (952) 
P

>  <INCHIKEY>  (952) 
GSEJYTXIPBKHKH-LCYFTJDESA-N

>  <FORMULA>  (952) 
C16H18O5

>  <EXACT MASS>  (952) 
290.115423676

>  <MW>  (952) 
290

>  <ID>  (952) 
JP010709

>  <CONTRIBUTOR>  (952) 
University of Tokyo Team, {Faculty of Engineering, University of Tokyo

>  <COMMENT>  (952) 
computed SMILES=O=C(OC1C(OC2(OCCCC2)C1O)=CC#CC#CC)C
SMILES=CC#CC#CC([H])=C(O1)C(OC(C)=O)C(O)C(C2)(OCCC2)1
InChI=InChI=1S/C16H18O5/c1-3-4-5-6-9-13-14(20-12(2)17)15(18)16(21-13)10-7-8-11-19-16/h9,14-15,18H,7-8,10-11H2,1-2H3/b13-9-
accession=JP010709
date=2016.01.19 (Created 2008.10.21, modified 2011.05.06)
author=EGUCHI S, FAC. OF SCIENCE, HIROSHIMA UNIV.
license=CC BY-NC-SA
exact mass=290.11542
ionization energy=70 eV
ion type=[M]+*
computed spectral entropy=4.406247810291359
computed normalized entropy=0.8782144814726018
SPLASH=splash10-0006-9620000000-e932e61cc1630e80b6b0
submitter=submitter = University of Tokyo Team (Faculty of Engineering, University of Tokyo)
MoNA Rating=3.75

>  <NUM PEAKS>  (952) 
151

>  <MASS SPECTRAL PEAKS>  (952) 
41 33
42 8
43 99.99
44 0.7
45 11
46 5
47 18
48 1.6
49 21
50 13
51 12
52 0.5
53 7
54 5
55 28
56 0.9
57 21
58 9
59 6
60 1.3
61 5
62 6
63 11
64 0.6
65 7
66 7
67 17
68 0.6
69 11
70 5
71 26
72 0.5
73 16
74 6
75 10
76 2.4
77 18
78 9
79 9
80 0.5
81 9
82 7
83 55
84 1.6
85 31
86 12
87 7
88 0.4
89 7
90 9
91 9
92 0.6
93 5
94 4
95 10
96 0.4
97 9
98 6
99 4
100 0.4
101 17
102 6
103 6
104 1
105 7
106 5
107 6
108 0.5
109 5
110 3
111 6
112 0.3
113 64
114 14
115 7
116 0.4
117 13
118 8
119 11
121 0.5
125 9
126 31
127 16
128 0.7
129 6
130 4
131 7
132 0.5
133 5
134 3
135 3
136 6
137 7
141 5
143 9
144 0.6
145 9
146 7
147 5
148 0.5
149 10
153 5
155 4
156 0.4
157 5
158 4
159 7
160 0.7
161 7
162 3
163 3
164 0.3
165 3
166 3
167 3
168 0.7
169 5
171 5
172 7
173 0.9
174 7
175 4
177 3.3
178 4.2
179 7
183 4
184 5
185 0.9
186 5
187 9
188 4
201 0.9
202 9
203 4
211 3
212 0.6
213 5
214 3
215 3
220 0.4
229 5
230 28
231 9
232 0.3
247 3
248 5
272 3
273 0.2
290 57
291 14
292 3

$$$$

     RDKit          2D

 24 25  0  0  0  0  0  0  0  0999 V2000
  -12.2911    5.4579    0.0000 C   0  0  0  0  0  0  0  0  0  0  0  0
    3.4425    5.0758    0.0000 C   0  0  0  0  0  0  0  0  0  0  0  0
    2.6396    2.6049    0.0000 C   0  0  0  0  0  0  0  0  0  0  0  0
  -10.7993    5.3011    0.0000 C   0  0  0  0  0  0  0  0  0  0  0  0
   -9.3075    5.1443    0.0000 C   0  0  0  0  0  0  0  0  0  0  0  0
   -7.8158    4.9876    0.0000 C   0  0  0  0  0  0  0  0  0  0  0  0
   -6.3240    4.8308    0.0000 C   0  0  0  0  0  0  0  0  0  0  0  0
   -5.7068   -1.0409    0.0000 C   0  0  0  0  0  0  0  0  0  0  0  0
   -4.5921   -2.0445    0.0000 C   0  0  0  0  0  0  0  0  0  0  0  0
   -4.8322    4.6740    0.0000 C   0  0  0  0  0  0  0  0  0  0  0  0
   -5.3950    0.4264    0.0000 C   0  0  0  0  0  0  0  0  0  0  0  0
   -3.1655   -1.5810    0.0000 C   0  0  0  0  0  0  0  0  0  0  0  0
    0.9012    4.5356    0.0000 C   0  0  0  0  0  0  0  0  0  0  0  0
    2.3277    4.0721    0.0000 C   0  0  0  0  0  0  0  0  0  0  0  0
   -4.2221    3.3037    0.0000 C   0  0  0  0  0  0  0  0  0  0  0  0
   -0.2136    3.5320    0.0000 C   0  0  0  0  0  0  0  0  0  0  0  0
   -2.7549    2.9918    0.0000 C   0  0  0  0  0  0  0  0  0  0  0  0
   -2.5981    1.5000    0.0000 C   0  0  0  0  0  0  0  0  0  0  0  0
   -3.9684    0.8899    0.0000 C   0  0  0  0  0  0  0  0  0  0  0  0
    0.0983    2.0647    0.0000 O   0  0  0  0  0  0  0  0  0  0  0  0
   -1.2990    0.7500    0.0000 O   0  0  0  0  0  0  0  0  0  0  0  0
   -2.8537   -0.1138    0.0000 O   0  0  0  0  0  0  0  0  0  0  0  0
   -1.6402    3.9955    0.0000 O   0  0  0  0  0  0  0  0  0  0  0  0
   -4.9721    2.0046    0.0000 O   0  0  0  0  0  0  0  0  0  0  0  0
  4  1  1  0
  5  4  3  0
  6  5  1  0
  7  6  3  0
  9  8  1  0
 10  7  1  0
 11  8  1  0
 12  9  1  0
 14  2  1  0
 14  3  1  0
 14 13  1  0
 10 15  2  0
 16 13  1  0
 17 15  1  0
 18 17  1  0
 19 11  1  0
 19 18  1  0
 20 16  2  0
 21 18  1  0
 22 12  1  0
 22 19  1  0
 23 16  1  0
 23 17  1  0
 24 15  1  0
 24 19  1  0
M  END
>  <NAME>  (953) 
(2Z)-2-(2,4-HEXADIYNYLIDENE)-3-ISOVALERYLOXY-4-HYDROXY-1,6-DIOXASPIRO(4,5)DECANE

>  <SYNONYMS>  (953) 


>  <SPECTRUM TYPE>  (953) 
MS1

>  <INSTRUMENT TYPE>  (953) 
EI-B

>  <INSTRUMENT>  (953) 
HITACHI RMU-6L

>  <ION MODE>  (953) 
P

>  <INCHIKEY>  (953) 
LEOZNWWIPMVKHH-GDNBJRDFSA-N

>  <FORMULA>  (953) 
C19H24O5

>  <EXACT MASS>  (953) 
332.162373868

>  <MW>  (953) 
332

>  <ID>  (953) 
JP010708

>  <CONTRIBUTOR>  (953) 
University of Tokyo Team, {Faculty of Engineering, University of Tokyo

>  <COMMENT>  (953) 
SMILES=CC#CC#CC([H])=C(O1)C(OC(=O)CC(C)C)C(O)C(C2)(OCCC2)1
InChI=InChI=1S/C19H24O5/c1-4-5-6-7-10-15-17(23-16(20)13-14(2)3)18(21)19(24-15)11-8-9-12-22-19/h10,14,17-18,21H,8-9,11-13H2,1-3H3/b15-10-
computed SMILES=O=C(OC1C(OC2(OCCCC2)C1O)=CC#CC#CC)CC(C)C
ion type=[M]+*
accession=JP010708
date=2016.01.19 (Created 2008.10.21, modified 2011.05.06)
author=EGUCHI S, FAC. OF SCIENCE, HIROSHIMA UNIV.
license=CC BY-NC-SA
exact mass=332.16237
ionization energy=70 eV
computed spectral entropy=3.84291341276971
computed normalized entropy=0.8041042292187591
SPLASH=splash10-0a4i-9410000000-21c9743e6efc2a570521
submitter=submitter = University of Tokyo Team (Faculty of Engineering, University of Tokyo)
MoNA Rating=3.75

>  <NUM PEAKS>  (953) 
119

>  <MASS SPECTRAL PEAKS>  (953) 
41 30
42 6
43 30.5
44 0.2
45 4
50 5
51 6
52 0.2
53 4
54 2
55 26.5
56 0.4
57 99.99
58 8
59 4
60 0.3
62 1.5
63 4
64 1.5
65 0.4
67 10
68 2
69 9
70 0.15
71 15
73 8.5
74 2
75 0.35
76 11
77 11.5
78 3
79 0.4
80 1.5
81 3
83 8.5
85 9.35
86 6
87 2
89 2
90 0.3
91 4.5
93 2
97 3.5
98 0.15
101 12
102 3
103 3.5
104 0.45
105 3
111 3.5
113 35.5
114 0.8
115 3.5
117 2.5
118 4
119 0.45
121 2
125 3.5
126 21
127 0.7
128 2.5
129 2
130 1.5
131 0.35
132 2
133 2
135 2
136 3.45
137 4.5
141 2
143 3
144 0.15
145 2.5
146 3
147 2
148 0.2
149 1.5
153 1.5
155 1.5
157 0.2
158 2
159 3.5
160 2.5
161 0.4
162 1
163 2
164 2.5
169 0.15
171 1.5
172 2.5
173 4
174 0.4
177 2
183 1.5
184 2
185 0.45
186 2
187 4.5
188 2
191 0.15
197 1.5
199 1
201 4
202 0.5
203 1.5
210 1
211 1.5
212 0.2
213 1.5
220 16.5
221 3.5
230 1.5
231 6.5
248 1.5
249 1.5
314 0.1
315 1
332 3.5
333 3.5

$$$$

     RDKit          2D

 24 25  0  0  0  0  0  0  0  0999 V2000
  -12.7068    5.6979    0.0000 C   0  0  0  0  0  0  0  0  0  0  0  0
    0.4855    4.7756    0.0000 C   0  0  0  0  0  0  0  0  0  0  0  0
    0.0000   -1.5000    0.0000 C   0  0  0  0  0  0  0  0  0  0  0  0
  -11.2150    5.5411    0.0000 C   0  0  0  0  0  0  0  0  0  0  0  0
   -9.7232    5.3843    0.0000 C   0  0  0  0  0  0  0  0  0  0  0  0
   -8.2315    5.2276    0.0000 C   0  0  0  0  0  0  0  0  0  0  0  0
   -6.7397    5.0708    0.0000 C   0  0  0  0  0  0  0  0  0  0  0  0
   -6.1225   -0.8009    0.0000 C   0  0  0  0  0  0  0  0  0  0  0  0
   -5.0078   -1.8045    0.0000 C   0  0  0  0  0  0  0  0  0  0  0  0
   -5.2479    4.9140    0.0000 C   0  0  0  0  0  0  0  0  0  0  0  0
   -5.8107    0.6664    0.0000 C   0  0  0  0  0  0  0  0  0  0  0  0
   -3.5812   -1.3410    0.0000 C   0  0  0  0  0  0  0  0  0  0  0  0
   -0.6293    3.7720    0.0000 C   0  0  0  0  0  0  0  0  0  0  0  0
   -1.2990   -0.7500    0.0000 C   0  0  0  0  0  0  0  0  0  0  0  0
   -4.6378    3.5437    0.0000 C   0  0  0  0  0  0  0  0  0  0  0  0
   -3.1706    3.2318    0.0000 C   0  0  0  0  0  0  0  0  0  0  0  0
   -3.0138    1.7400    0.0000 C   0  0  0  0  0  0  0  0  0  0  0  0
   -4.3841    1.1299    0.0000 C   0  0  0  0  0  0  0  0  0  0  0  0
   -0.3174    2.3047    0.0000 O   0  0  0  0  0  0  0  0  0  0  0  0
   -2.5981   -1.5000    0.0000 O   0  0  0  0  0  0  0  0  0  0  0  0
   -3.2694    0.1262    0.0000 O   0  0  0  0  0  0  0  0  0  0  0  0
   -2.0558    4.2355    0.0000 O   0  0  0  0  0  0  0  0  0  0  0  0
   -1.2990    0.7500    0.0000 O   0  0  0  0  0  0  0  0  0  0  0  0
   -5.3878    2.2446    0.0000 O   0  0  0  0  0  0  0  0  0  0  0  0
  4  1  1  0
  5  4  3  0
  6  5  1  0
  7  6  3  0
  9  8  1  0
 10  7  1  0
 11  8  1  0
 12  9  1  0
 13  2  1  0
 14  3  1  0
 10 15  2  0
 16 15  1  0
 17 16  1  0
 18 11  1  0
 18 17  1  0
 19 13  2  0
 20 14  2  0
 21 12  1  0
 21 18  1  0
 22 13  1  0
 22 16  1  0
 23 14  1  0
 23 17  1  0
 24 15  1  0
 24 18  1  0
M  END
>  <NAME>  (954) 
(2Z)-2-(2,4-HEXADIYNYLIDENE)-3,4-DIACETOXY-1,6-DIOXASPIRO(4,5)DECANE

>  <SYNONYMS>  (954) 


>  <SPECTRUM TYPE>  (954) 
MS1

>  <INSTRUMENT TYPE>  (954) 
EI-B

>  <INSTRUMENT>  (954) 
HITACHI RMU-6L

>  <ION MODE>  (954) 
P

>  <INCHIKEY>  (954) 
ZUVKMJVHYBUAHI-GDNBJRDFSA-N

>  <FORMULA>  (954) 
C18H20O6

>  <EXACT MASS>  (954) 
332.12598835999995

>  <MW>  (954) 
332

>  <ID>  (954) 
JP010707

>  <CONTRIBUTOR>  (954) 
University of Tokyo Team, {Faculty of Engineering, University of Tokyo

>  <COMMENT>  (954) 
SMILES=CC#CC#CC([H])=C(O1)C(OC(C)=O)C(OC(C)=O)C(C2)(OCCC2)1
InChI=InChI=1S/C18H20O6/c1-4-5-6-7-10-15-16(22-13(2)19)17(23-14(3)20)18(24-15)11-8-9-12-21-18/h10,16-17H,8-9,11-12H2,1-3H3/b15-10-
computed SMILES=O=C(OC1C(OC2(OCCCC2)C1OC(=O)C)=CC#CC#CC)C
accession=JP010707
date=2016.01.19 (Created 2008.10.21, modified 2011.05.06)
author=EGUCHI S, FAC. OF SCIENCE, HIROSHIMA UNIV.
license=CC BY-NC-SA
exact mass=332.12599
ionization energy=70 eV
ion type=[M]+*
computed spectral entropy=4.1171834397227425
computed normalized entropy=0.847189787825468
SPLASH=splash10-0059-3930000000-61cc052e917f4ceb1d0b
submitter=submitter = University of Tokyo Team (Faculty of Engineering, University of Tokyo)
MoNA Rating=3.75

>  <NUM PEAKS>  (954) 
129

>  <MASS SPECTRAL PEAKS>  (954) 
40 3
41 15.5
42 3
43 9.1
44 3.5
45 5.5
50 5
51 0.65
52 2.5
53 3.5
55 12.5
56 0.4
57 10
58 3.5
59 4.5
63 0.3
64 2
65 4
66 2
67 0.55
69 6
70 2
71 24
72 0.25
73 4.5
74 2.5
75 4.5
76 1
77 7
78 3.5
79 4
81 0.35
83 6.5
84 2
85 9
87 0.4
89 3.5
90 3
91 4
95 0.45
97 5.5
101 10
102 3.5
103 0.35
104 8
105 4.5
106 4
107 0.35
109 3.5
111 3.5
113 19
114 0.8
115 4
116 2
117 3
118 0.3
119 4.5
121 2
125 10
126 99.99
127 32.5
128 7
129 3.5
130 0.25
131 5
132 4
133 2
135 0.8
136 9.5
137 3
141 4
142 0.3
143 9
144 4
145 6
146 0.7
147 3.5
148 2.5
149 7
150 0.35
153 3.5
155 3.5
156 5.5
157 0.35
158 3.5
159 7
160 6
161 0.75
162 2
163 4
166 4
168 3.3
169 12
170 4
171 3.5
172 0.4
173 8
174 10
175 4
177 0.35
178 6
183 4
184 12
185 1.1
186 4
187 12.5
188 4
189 0.25
197 3.5
199 4
200 2
201 1
202 17
203 4.5
211 3
212 1.9
213 7
214 3.5
215 5
216 0.2
229 10
230 72
231 13
232 0.2
272 22
273 7
332 43
333 0.8
334 3

$$$$

     RDKit          2D

 15 16  0  0  0  0  0  0  0  0999 V2000
   -6.4908    2.6631    0.0000 C   0  0  0  0  0  0  0  0  0  0  0  0
   -5.0236    2.3512    0.0000 C   0  0  0  0  0  0  0  0  0  0  0  0
   -3.5564    2.0393    0.0000 C   0  0  0  0  0  0  0  0  0  0  0  0
   -2.0892    1.7275    0.0000 C   0  0  0  0  0  0  0  0  0  0  0  0
   -0.6219    1.4156    0.0000 C   0  0  0  0  0  0  0  0  0  0  0  0
    6.0527    4.6455    0.0000 C   0  0  0  0  0  0  0  0  0  0  0  0
    0.8453    1.1037    0.0000 C   0  0  0  0  0  0  0  0  0  0  0  0
    1.5371    3.6857    0.0000 C   0  0  0  0  0  0  0  0  0  0  0  0
    4.5610    4.8023    0.0000 C   0  0  0  0  0  0  0  0  0  0  0  0
    2.8361    4.4357    0.0000 C   0  0  0  0  0  0  0  0  0  0  0  0
    6.3646    3.1783    0.0000 C   0  0  0  0  0  0  0  0  0  0  0  0
    1.8490    2.2185    0.0000 C   0  0  0  0  0  0  0  0  0  0  0  0
    3.9509    3.4320    0.0000 C   0  0  0  0  0  0  0  0  0  0  0  0
    5.0656    2.4283    0.0000 O   0  0  0  0  0  0  0  0  0  0  0  0
    3.3408    2.0617    0.0000 O   0  0  0  0  0  0  0  0  0  0  0  0
  2  1  1  0
  3  2  3  0
  4  3  1  0
  5  4  3  0
  7  5  1  0
  9  6  1  0
 10  8  2  0
 11  6  1  0
  7 12  2  0
 12  8  1  0
 13  9  1  0
 13 10  1  0
 14 11  1  0
 14 13  1  0
 15 12  1  0
 15 13  1  0
M  END
>  <NAME>  (955) 
(2E)-2-(2,4-HEXADIYNYLIDENE)-1,6-DIOXASPIRO(4,4)NON-3-ENE

>  <SYNONYMS>  (955) 


>  <SPECTRUM TYPE>  (955) 
MS1

>  <INSTRUMENT TYPE>  (955) 
EI-B

>  <INSTRUMENT>  (955) 
HITACHI RMU-6L

>  <ION MODE>  (955) 
P

>  <INCHIKEY>  (955) 
WTRXKCNFPMTAJV-KPKJPENVSA-N

>  <FORMULA>  (955) 
C13H12O2

>  <EXACT MASS>  (955) 
200.083729624

>  <MW>  (955) 
200

>  <ID>  (955) 
JP010706

>  <CONTRIBUTOR>  (955) 
University of Tokyo Team, {Faculty of Engineering, University of Tokyo

>  <COMMENT>  (955) 
SMILES=CC#CC#CC([H])=C(O1)C([H])=C([H])C(C2)(OCC2)1
InChI=InChI=1S/C13H12O2/c1-2-3-4-5-7-12-8-10-13(15-12)9-6-11-14-13/h7-8,10H,6,9,11H2,1H3/b12-7+
computed SMILES=C(C#CC)#CC=C1OC2(OCCC2)C=C1
accession=JP010706
date=2016.01.19 (Created 2008.10.21, modified 2011.05.06)
author=EGUCHI S, FAC. OF SCIENCE, HIROSHIMA UNIV.
license=CC BY-NC-SA
exact mass=200.08373
ionization energy=70 eV
ion type=[M]+*
computed spectral entropy=3.917896661235318
computed normalized entropy=0.8772900286214662
SPLASH=splash10-0udi-8930000000-54da540e8a73fc9bf120
submitter=submitter = University of Tokyo Team (Faculty of Engineering, University of Tokyo)
MoNA Rating=3.75

>  <NUM PEAKS>  (955) 
87

>  <MASS SPECTRAL PEAKS>  (955) 
41 16
42 13
43 6
47 0.8
50 25
51 16
52 7
53 0.9
54 13
55 14
62 6
63 1.1
64 4
65 8
66 6
67 1.15
68 5.5
69 6.5
74 12
75 1.4
76 25
77 16
78 10.5
79 1.5
82 9
83 23
85 32
86 0.4
87 7
88 6
89 6
91 1.1
92 3
93 3
94 3
95 0.6
96 5.5
100 3
101 3
102 1.9
103 7
104 5.5
105 6
106 0.6
107 11.5
108 7
109 3
113 0.3
114 4
115 32
116 14
117 0.6
118 3
119 2
127 12
128 2
129 22
130 15.5
131 7
132 0.4
133 3
139 4
141 13
142 0.4
143 10
144 13
145 4.5
152 0.45
153 5.5
155 6
156 6
157 1.95
158 17
159 8
169 16.5
170 2.6
171 18
172 14
173 3
183 0.3
184 4.5
185 16.5
186 3
199 1.9
200 99.99
201 15
202 3

$$$$

     RDKit          2D

 15 16  0  0  0  0  0  0  0  0999 V2000
   -5.6807    3.1224    0.0000 C   0  0  0  0  0  0  0  0  0  0  0  0
   -4.2135    2.8105    0.0000 C   0  0  0  0  0  0  0  0  0  0  0  0
   -2.7463    2.4987    0.0000 C   0  0  0  0  0  0  0  0  0  0  0  0
   -1.2791    2.1868    0.0000 C   0  0  0  0  0  0  0  0  0  0  0  0
    0.1882    1.8749    0.0000 C   0  0  0  0  0  0  0  0  0  0  0  0
    4.6334    7.1122    0.0000 C   0  0  0  0  0  0  0  0  0  0  0  0
    1.6554    1.5631    0.0000 C   0  0  0  0  0  0  0  0  0  0  0  0
    4.1509    2.5210    0.0000 C   0  0  0  0  0  0  0  0  0  0  0  0
    4.9453    5.6450    0.0000 C   0  0  0  0  0  0  0  0  0  0  0  0
    4.7610    3.8913    0.0000 C   0  0  0  0  0  0  0  0  0  0  0  0
    3.1416    7.2690    0.0000 C   0  0  0  0  0  0  0  0  0  0  0  0
    2.6591    2.6778    0.0000 C   0  0  0  0  0  0  0  0  0  0  0  0
    3.6462    4.8950    0.0000 C   0  0  0  0  0  0  0  0  0  0  0  0
    2.5315    5.8987    0.0000 O   0  0  0  0  0  0  0  0  0  0  0  0
    2.3472    4.1450    0.0000 O   0  0  0  0  0  0  0  0  0  0  0  0
  2  1  1  0
  3  2  3  0
  4  3  1  0
  5  4  3  0
  7  5  1  0
  9  6  1  0
 10  8  2  0
 11  6  1  0
  7 12  2  0
 12  8  1  0
 13  9  1  0
 13 10  1  0
 14 11  1  0
 14 13  1  0
 15 12  1  0
 15 13  1  0
M  END
>  <NAME>  (956) 
(2Z)-2-(2,4-HEXADIYNYLIDENE)-1,6-DIOXASPIRO(4,4)NON-3-ENE

>  <SYNONYMS>  (956) 


>  <SPECTRUM TYPE>  (956) 
MS1

>  <INSTRUMENT TYPE>  (956) 
EI-B

>  <INSTRUMENT>  (956) 
HITACHI RMU-6L

>  <ION MODE>  (956) 
P

>  <INCHIKEY>  (956) 
WTRXKCNFPMTAJV-GHXNOFRVSA-N

>  <FORMULA>  (956) 
C13H12O2

>  <EXACT MASS>  (956) 
200.083729624

>  <MW>  (956) 
200

>  <ID>  (956) 
JP010705

>  <CONTRIBUTOR>  (956) 
University of Tokyo Team, {Faculty of Engineering, University of Tokyo

>  <COMMENT>  (956) 
SMILES=CC#CC#CC([H])=C(O1)C([H])=C([H])C(C2)(OCC2)1
InChI=InChI=1S/C13H12O2/c1-2-3-4-5-7-12-8-10-13(15-12)9-6-11-14-13/h7-8,10H,6,9,11H2,1H3/b12-7-
computed SMILES=C(C#CC)#CC=C1OC2(OCCC2)C=C1
accession=JP010705
date=2016.01.19 (Created 2008.10.21, modified 2011.05.06)
author=EGUCHI S, FAC. OF SCIENCE, HIROSHIMA UNIV.
license=CC BY-NC-SA
exact mass=200.08373
ionization energy=70 eV
ion type=[M]+*
computed spectral entropy=3.800298758232095
computed normalized entropy=0.8697434748160272
SPLASH=splash10-0udi-6930000000-856eaa2c118ac8ca43aa
submitter=submitter = University of Tokyo Team (Faculty of Engineering, University of Tokyo)
MoNA Rating=3.75

>  <NUM PEAKS>  (956) 
79

>  <MASS SPECTRAL PEAKS>  (956) 
41 12
42 12
43 5
50 2.25
51 12.5
52 5
53 8
54 1.15
55 12.5
62 6
63 10
64 0.4
65 7
66 4
67 8
68 0.4
69 5.5
74 11
75 12
76 2.5
77 11
78 4
79 5
82 0.95
83 6
85 4
86 3
87 0.5
88 4
89 4
91 6
95 0.5
96 5.5
100 4
101 4
102 1.75
103 6
104 4.5
105 2.5
113 0.2
114 3
115 26.5
116 11.5
117 0.65
119 5.5
124 3.5
127 9
128 1.9
129 10.5
130 12
131 6.5
132 0.25
133 2
139 3
141 12
142 0.35
143 9
144 11
145 4
152 0.3
153 4
155 5
156 6
157 2.1
158 15
159 7.5
169 14
170 2.7
171 18.5
172 13.5
173 3.5
183 0.4
184 4
185 15
186 3.5
199 2.2
200 99.99
201 16.5
202 2

$$$$

     RDKit          2D

 16 17  0  0  0  0  0  0  0  0999 V2000
  -13.1165   -0.6149    0.0000 C   0  0  0  0  0  0  0  0  0  0  0  0
  -12.2348    0.5986    0.0000 C   0  0  0  0  0  0  0  0  0  0  0  0
  -11.3532    1.8122    0.0000 C   0  0  0  0  0  0  0  0  0  0  0  0
  -10.4715    3.0257    0.0000 C   0  0  0  0  0  0  0  0  0  0  0  0
   -9.5898    4.2392    0.0000 C   0  0  0  0  0  0  0  0  0  0  0  0
   -4.1963    1.8379    0.0000 C   0  0  0  0  0  0  0  0  0  0  0  0
   -2.7697    2.3014    0.0000 C   0  0  0  0  0  0  0  0  0  0  0  0
   -8.7081    5.4527    0.0000 C   0  0  0  0  0  0  0  0  0  0  0  0
   -6.2127    6.4107    0.0000 C   0  0  0  0  0  0  0  0  0  0  0  0
   -5.3110    2.8415    0.0000 C   0  0  0  0  0  0  0  0  0  0  0  0
   -4.8423    5.8006    0.0000 C   0  0  0  0  0  0  0  0  0  0  0  0
   -2.4578    3.7686    0.0000 C   0  0  0  0  0  0  0  0  0  0  0  0
   -7.2163    5.2959    0.0000 C   0  0  0  0  0  0  0  0  0  0  0  0
   -4.9991    4.3088    0.0000 C   0  0  0  0  0  0  0  0  0  0  0  0
   -3.5725    4.7723    0.0000 O   0  0  0  0  0  0  0  0  0  0  0  0
   -6.4663    3.9969    0.0000 O   0  0  0  0  0  0  0  0  0  0  0  0
  2  1  1  0
  3  2  3  0
  4  3  1  0
  5  4  3  0
  7  6  1  0
  8  5  1  0
 10  6  1  0
 11  9  2  0
 12  7  1  0
  8 13  2  0
 13  9  1  0
 14 10  1  0
 14 11  1  0
 15 12  1  0
 15 14  1  0
 16 13  1  0
 16 14  1  0
M  END
>  <NAME>  (957) 
(2Z)-2-(2,4-HEXADIYNYLIDENE)-1,6-DIOXASPIRO(4,5)DEC-3-ENE

>  <SYNONYMS>  (957) 


>  <SPECTRUM TYPE>  (957) 
MS1

>  <INSTRUMENT TYPE>  (957) 
EI-B

>  <INSTRUMENT>  (957) 
HITACHI RMU-6L

>  <ION MODE>  (957) 
P

>  <INCHIKEY>  (957) 
RNEORCMLRJNFGE-JYRVWZFOSA-N

>  <FORMULA>  (957) 
C14H14O2

>  <EXACT MASS>  (957) 
214.099379688

>  <MW>  (957) 
214

>  <ID>  (957) 
JP010704

>  <CONTRIBUTOR>  (957) 
University of Tokyo Team, {Faculty of Engineering, University of Tokyo

>  <COMMENT>  (957) 
SMILES=CC#CC#CC([H])=C(O1)C([H])=C([H])C(C2)(OCCC2)1
InChI=InChI=1S/C14H14O2/c1-2-3-4-5-8-13-9-11-14(16-13)10-6-7-12-15-14/h8-9,11H,6-7,10,12H2,1H3/b13-8-
computed SMILES=C(C#CC)#CC=C1OC2(OCCCC2)C=C1
accession=JP010704
date=2016.01.19 (Created 2008.10.21, modified 2011.05.06)
author=EGUCHI S, FAC. OF SCIENCE, HIROSHIMA UNIV.
license=CC BY-NC-SA
exact mass=214.09938
ionization energy=70 eV
ion type=[M]+*
computed spectral entropy=4.193333485858292
computed normalized entropy=0.8642430606916269
SPLASH=splash10-06vi-9820000000-d82b7fe84bd534374fee
submitter=submitter = University of Tokyo Team (Faculty of Engineering, University of Tokyo)
MoNA Rating=3.75

>  <NUM PEAKS>  (957) 
128

>  <MASS SPECTRAL PEAKS>  (957) 
41 48
42 12
43 19
50 6.1
51 38
52 23
53 25
54 2.8
55 56
56 6
57 6
61 0.4
62 11.5
63 21.5
64 6
65 1.15
66 6
67 12
68 7
69 1.85
70 2.5
71 5
73 3
74 2.3
75 30
76 65
77 38
78 1.2
79 14
80 7
81 18
82 1.8
83 6
84 2
85 3
86 0.6
87 11
88 7.5
89 10.5
90 0.3
91 18
92 4
93 5
94 0.5
95 7
96 4
97 3.5
98 0.35
99 3.5
100 3
101 7
102 3.8
103 13
104 7.5
105 6
106 0.2
107 7
108 2
109 2
110 0.45
111 2
113 5
114 4
115 5.1
116 12
117 7.5
118 3
119 0.4
120 2
121 2
122 4
124 0.3
126 7
127 19.5
128 29
129 2.8
130 24
131 11
132 6
133 0.4
134 2
135 2
137 3
138 0.45
139 5.5
140 3
141 14
142 0.95
143 16.5
144 10
145 13
146 0.3
147 5
148 3
149 9
150 0.4
151 2.5
152 6
153 7.5
154 0.25
155 8
156 56
157 29
158 4
159 14
160 4
161 2.5
165 0.3
167 3
168 2.5
169 21
170 0.8
171 21
172 6
173 5
181 0.4
182 2.5
183 4
184 5
185 2.65
186 18
187 4
197 5
198 0.3
199 8
213 14
214 99.99
215 16

$$$$

     RDKit          2D

 21 21  0  0  1  0  0  0  0  0999 V2000
   -2.6089    1.7702    0.0000 C   0  0  0  0  0  0  0  0  0  0  0  0
   -5.2091   -1.2094    0.0000 C   0  0  0  0  0  0  0  0  0  0  0  0
    1.2766   -4.9843    0.0000 C   0  0  0  0  0  0  0  0  0  0  0  0
    5.2067   -1.2223    0.0000 C   0  0  0  0  0  0  0  0  0  0  0  0
    2.6013    3.2745    0.0000 C   0  0  0  0  0  0  0  0  0  0  0  0
   -1.3100    1.0200    0.0000 C   0  0  0  0  0  0  0  0  0  0  0  0
   -3.9081   -0.4629    0.0000 C   0  0  0  0  0  0  0  0  0  0  0  0
    1.2816   -3.4843    0.0000 C   0  0  0  0  0  0  0  0  0  0  0  0
    3.9081   -0.4716    0.0000 C   0  0  0  0  0  0  0  0  0  0  0  0
   -1.3100   -0.4700    0.0000 C   0  0  0  0  0  0  0  0  0  0  0  0
   -0.0100   -1.2300    0.0000 C   0  0  0  0  0  0  0  0  0  0  0  0
    1.3100   -0.4700    0.0000 C   0  0  0  0  0  0  0  0  0  0  0  0
    1.3100    1.0200    0.0000 C   0  0  0  0  0  0  0  0  0  0  0  0
   -3.9040    1.0371    0.0000 O   0  0  0  0  0  0  0  0  0  0  0  0
    2.5831   -2.7386    0.0000 O   0  0  0  0  0  0  0  0  0  0  0  0
    3.9090    1.0284    0.0000 O   0  0  0  0  0  0  0  0  0  0  0  0
    2.6064    1.7745    0.0000 O   0  0  0  0  0  0  0  0  0  0  0  0
   -0.0100    1.7700    0.0000 O   0  0  0  0  0  0  0  0  0  0  0  0
   -2.6111   -1.2165    0.0000 O   0  0  0  0  0  0  0  0  0  0  0  0
   -0.0150   -2.7300    0.0000 O   0  0  0  0  0  0  0  0  0  0  0  0
    2.6086   -1.2208    0.0000 O   0  0  0  0  0  0  0  0  0  0  0  0
  6  1  1  6
  7  2  1  0
  8  3  1  0
  9  4  1  0
 10  6  1  0
 11 10  1  0
 12 11  1  0
 13 12  1  0
 14  7  2  0
 15  8  2  0
 16  9  2  0
 17  5  1  0
 17 13  1  0
 18  6  1  0
 18 13  1  0
 19  7  1  0
 19 10  1  0
 20  8  1  0
 11 20  1  1
 21  9  1  0
 12 21  1  6
M  END
>  <NAME>  (958) 
METHYL TRIACETYL-ALPHA-L-RHAMNOPYRANOSIDE

>  <SYNONYMS>  (958) 


>  <SPECTRUM TYPE>  (958) 
MS1

>  <INSTRUMENT TYPE>  (958) 
EI-B

>  <INSTRUMENT>  (958) 
HITACHI RMU-6L

>  <ION MODE>  (958) 
P

>  <INCHIKEY>  (958) 
RTVWBDNQHISFHI-WBLBWYBMSA-N

>  <FORMULA>  (958) 
C13H20O8

>  <EXACT MASS>  (958) 
304.1158176

>  <MW>  (958) 
304

>  <ID>  (958) 
JP010703

>  <CONTRIBUTOR>  (958) 
University of Tokyo Team, {Faculty of Engineering, University of Tokyo

>  <COMMENT>  (958) 
SMILES=CC(=O)OC([H])(C([H])(C)1)C([H])(OC(C)=O)C([H])(OC(C)=O)C([H])(OC)O1
InChI=InChI=1S/C13H20O8/c1-6-10(19-7(2)14)11(20-8(3)15)12(21-9(4)16)13(17-5)18-6/h6,10-13H,1-5H3/t6-,10?,11-,12+,13?/m0/s1
computed SMILES=O=C(OC1C(OC)OC(C)C(OC(=O)C)C1OC(=O)C)C
accession=JP010703
date=2016.01.19 (Created 2008.10.21, modified 2011.05.06)
author=EGUCHI S, FAC. OF SCIENCE, HIROSHIMA UNIV.
license=CC BY-NC-SA
exact mass=304.11582
ionization energy=70 eV
ion type=[M]+*
computed spectral entropy=3.586826756102555
computed normalized entropy=0.7971063264636477
SPLASH=splash10-0ktf-6900000000-5ddff878a628c25be041
submitter=submitter = University of Tokyo Team (Faculty of Engineering, University of Tokyo)
MoNA Rating=3.75

>  <NUM PEAKS>  (958) 
90

>  <MASS SPECTRAL PEAKS>  (958) 
41 6
42 5
43 99.99
44 1.2
45 13
47 6
48 3
49 0.2
50 1
53 2.3
54 1.5
55 0.6
56 2
57 7
58 8
59 0.4
60 5
61 8
69 5
70 0.3
71 31
72 4
73 10
74 4.6
75 3
81 2
82 13
83 3.5
84 9
85 19
86 2
87 3.4
88 3
89 1.5
95 1
96 1.3
97 3
98 5
99 26
100 2.8
101 10
102 43
103 28
104 0.2
110 2
111 18
112 2.5
113 2.8
114 4
115 61
116 21
117 0.5
118 1
120 1
125 3.5
126 0.8
127 4.3
128 1.8
129 12
130 0.12
131 1
140 16
141 3
142 2.5
143 7
144 26
145 12
146 0.13
153 15
156 1.8
157 84
158 1.2
159 2.5
171 4
172 0.8
184 3.7
185 19
186 2.3
187 2.5
188 0.1
200 3
201 2.5
202 0.8
212 0.1
213 1.5
217 2.5
244 2.7
245 0.08
273 10
274 1.5

$$$$

     RDKit          2D

 21 21  0  0  1  0  0  0  0  0999 V2000
   -2.6089    1.7702    0.0000 C   0  0  0  0  0  0  0  0  0  0  0  0
   -5.2091   -1.2094    0.0000 C   0  0  0  0  0  0  0  0  0  0  0  0
    1.2766   -4.9843    0.0000 C   0  0  0  0  0  0  0  0  0  0  0  0
    5.2067   -1.2223    0.0000 C   0  0  0  0  0  0  0  0  0  0  0  0
    2.6013    3.2745    0.0000 C   0  0  0  0  0  0  0  0  0  0  0  0
   -1.3100    1.0200    0.0000 C   0  0  0  0  0  0  0  0  0  0  0  0
   -3.9081   -0.4629    0.0000 C   0  0  0  0  0  0  0  0  0  0  0  0
    1.2816   -3.4843    0.0000 C   0  0  0  0  0  0  0  0  0  0  0  0
    3.9081   -0.4716    0.0000 C   0  0  0  0  0  0  0  0  0  0  0  0
   -1.3100   -0.4700    0.0000 C   0  0  0  0  0  0  0  0  0  0  0  0
   -0.0100   -1.2300    0.0000 C   0  0  0  0  0  0  0  0  0  0  0  0
    1.3100   -0.4700    0.0000 C   0  0  0  0  0  0  0  0  0  0  0  0
    1.3100    1.0200    0.0000 C   0  0  0  0  0  0  0  0  0  0  0  0
   -3.9040    1.0371    0.0000 O   0  0  0  0  0  0  0  0  0  0  0  0
    2.5831   -2.7386    0.0000 O   0  0  0  0  0  0  0  0  0  0  0  0
    3.9090    1.0284    0.0000 O   0  0  0  0  0  0  0  0  0  0  0  0
    2.6064    1.7745    0.0000 O   0  0  0  0  0  0  0  0  0  0  0  0
   -0.0100    1.7700    0.0000 O   0  0  0  0  0  0  0  0  0  0  0  0
   -2.6111   -1.2165    0.0000 O   0  0  0  0  0  0  0  0  0  0  0  0
   -0.0150   -2.7300    0.0000 O   0  0  0  0  0  0  0  0  0  0  0  0
    2.6086   -1.2208    0.0000 O   0  0  0  0  0  0  0  0  0  0  0  0
  6  1  1  6
  7  2  1  0
  8  3  1  0
  9  4  1  0
 10  6  1  0
 11 10  1  0
 12 11  1  0
 13 12  1  0
 14  7  2  0
 15  8  2  0
 16  9  2  0
 17  5  1  0
 17 13  1  0
 18  6  1  0
 18 13  1  0
 19  7  1  0
 19 10  1  0
 20  8  1  0
 11 20  1  1
 21  9  1  0
 12 21  1  6
M  END
>  <NAME>  (959) 
METHYL TRIACETYL-BETA-L-RHAMNOPYRANOSIDE

>  <SYNONYMS>  (959) 


>  <SPECTRUM TYPE>  (959) 
MS1

>  <INSTRUMENT TYPE>  (959) 
EI-B

>  <INSTRUMENT>  (959) 
HITACHI RMU-6L

>  <ION MODE>  (959) 
P

>  <INCHIKEY>  (959) 
RTVWBDNQHISFHI-WBLBWYBMSA-N

>  <FORMULA>  (959) 
C13H20O8

>  <EXACT MASS>  (959) 
304.1158176

>  <MW>  (959) 
304

>  <ID>  (959) 
JP010702

>  <CONTRIBUTOR>  (959) 
University of Tokyo Team, {Faculty of Engineering, University of Tokyo

>  <COMMENT>  (959) 
SMILES=CC(=O)OC([H])(C([H])(C)1)C([H])(OC(C)=O)C([H])(OC(C)=O)C([H])(OC)O1
InChI=InChI=1S/C13H20O8/c1-6-10(19-7(2)14)11(20-8(3)15)12(21-9(4)16)13(17-5)18-6/h6,10-13H,1-5H3/t6-,10?,11-,12+,13?/m0/s1
computed SMILES=O=C(OC1C(OC)OC(C)C(OC(=O)C)C1OC(=O)C)C
accession=JP010702
date=2016.01.19 (Created 2008.10.21, modified 2011.05.06)
author=EGUCHI S, FAC. OF SCIENCE, HIROSHIMA UNIV.
license=CC BY-NC-SA
exact mass=304.11582
ionization energy=70 eV
ion type=[M]+*
computed spectral entropy=3.581264683520679
computed normalized entropy=0.8019118594404904
SPLASH=splash10-0006-9800000000-a00697c07e26f71ab2ad
submitter=submitter = University of Tokyo Team (Faculty of Engineering, University of Tokyo)
MoNA Rating=3.75

>  <NUM PEAKS>  (959) 
87

>  <MASS SPECTRAL PEAKS>  (959) 
41 7
42 4
43 99.99
44 0.96
45 10
53 2.3
54 2
55 0.6
56 2.3
57 7.4
58 6.2
59 0.28
60 5
61 6.2
67 1.7
68 0.6
69 6
70 2.3
71 30
72 0.4
73 7
74 18
75 11
81 0.23
82 12
83 29
84 7
85 0.8
86 2.3
87 19
88 2.3
89 0.1
95 1
96 9
97 3
98 0.4
99 14
100 28
101 12
102 3
103 22
104 1.4
111 6
112 0.14
113 30
114 4
115 39
116 1.1
117 3
123 2.5
124 5
125 0.25
126 5
127 3
128 3
129 0.5
130 1
131 1
139 0.8
140 0.8
141 3
142 24
143 6.2
144 2.5
145 10
146 1.1
149 1.4
153 0.34
156 1.4
157 44
158 8
159 0.2
170 2.3
171 1.7
184 22
185 1.1
186 1.7
187 1.7
200 2
201 0.17
217 9
218 1.4
244 2
245 0.06
256 0.8
273 1.4
303 0.6

$$$$

     RDKit          2D

 21 21  0  0  1  0  0  0  0  0999 V2000
   -2.6089    1.7702    0.0000 C   0  0  0  0  0  0  0  0  0  0  0  0
   -5.2091   -1.2094    0.0000 C   0  0  0  0  0  0  0  0  0  0  0  0
    1.2766   -4.9843    0.0000 C   0  0  0  0  0  0  0  0  0  0  0  0
    5.2067   -1.2223    0.0000 C   0  0  0  0  0  0  0  0  0  0  0  0
    2.6013    3.2745    0.0000 C   0  0  0  0  0  0  0  0  0  0  0  0
   -1.3100    1.0200    0.0000 C   0  0  0  0  0  0  0  0  0  0  0  0
   -3.9081   -0.4629    0.0000 C   0  0  0  0  0  0  0  0  0  0  0  0
    1.2816   -3.4843    0.0000 C   0  0  0  0  0  0  0  0  0  0  0  0
    3.9081   -0.4716    0.0000 C   0  0  0  0  0  0  0  0  0  0  0  0
   -1.3100   -0.4700    0.0000 C   0  0  0  0  0  0  0  0  0  0  0  0
   -0.0100   -1.2300    0.0000 C   0  0  0  0  0  0  0  0  0  0  0  0
    1.3100   -0.4700    0.0000 C   0  0  0  0  0  0  0  0  0  0  0  0
    1.3100    1.0200    0.0000 C   0  0  0  0  0  0  0  0  0  0  0  0
   -3.9040    1.0371    0.0000 O   0  0  0  0  0  0  0  0  0  0  0  0
    2.5831   -2.7386    0.0000 O   0  0  0  0  0  0  0  0  0  0  0  0
    3.9090    1.0284    0.0000 O   0  0  0  0  0  0  0  0  0  0  0  0
    2.6064    1.7745    0.0000 O   0  0  0  0  0  0  0  0  0  0  0  0
   -0.0100    1.7700    0.0000 O   0  0  0  0  0  0  0  0  0  0  0  0
   -2.6111   -1.2165    0.0000 O   0  0  0  0  0  0  0  0  0  0  0  0
   -0.0150   -2.7300    0.0000 O   0  0  0  0  0  0  0  0  0  0  0  0
    2.6086   -1.2208    0.0000 O   0  0  0  0  0  0  0  0  0  0  0  0
  6  1  1  6
  7  2  1  0
  8  3  1  0
  9  4  1  0
 10  6  1  0
 11 10  1  0
 12 11  1  0
 13 12  1  0
 14  7  2  0
 15  8  2  0
 16  9  2  0
 17  5  1  0
 17 13  1  0
 18  6  1  0
 18 13  1  0
 19  7  1  0
 19 10  1  0
 20  8  1  0
 11 20  1  6
 21  9  1  0
 12 21  1  6
M  END
>  <NAME>  (960) 
METHYL TRIACETYL-6-DEOXY-BETA-L-IDOPYRANOSIDE

>  <SYNONYMS>  (960) 


>  <SPECTRUM TYPE>  (960) 
MS1

>  <INSTRUMENT TYPE>  (960) 
EI-B

>  <INSTRUMENT>  (960) 
HITACHI RMU-6L

>  <ION MODE>  (960) 
P

>  <INCHIKEY>  (960) 
RTVWBDNQHISFHI-ZEDCYTHJSA-N

>  <FORMULA>  (960) 
C13H20O8

>  <EXACT MASS>  (960) 
304.1158176

>  <MW>  (960) 
304

>  <ID>  (960) 
JP010701

>  <CONTRIBUTOR>  (960) 
University of Tokyo Team, {Faculty of Engineering, University of Tokyo

>  <COMMENT>  (960) 
SMILES=CC(=O)OC([H])(C([H])(C)1)C([H])(OC(C)=O)C([H])(OC(C)=O)C([H])(OC)O1
InChI=InChI=1S/C13H20O8/c1-6-10(19-7(2)14)11(20-8(3)15)12(21-9(4)16)13(17-5)18-6/h6,10-13H,1-5H3/t6-,10?,11+,12+,13?/m0/s1
computed SMILES=O=C(OC1C(OC)OC(C)C(OC(=O)C)C1OC(=O)C)C
accession=JP010701
date=2016.01.19 (Created 2008.10.21, modified 2011.05.06)
author=EGUCHI S, FAC. OF SCIENCE, HIROSHIMA UNIV.
license=CC BY-NC-SA
exact mass=304.11582
ionization energy=70 eV
ion type=[M]+*
computed spectral entropy=3.3372667324986827
computed normalized entropy=0.7434923343317816
SPLASH=splash10-0006-9700000000-85de9593efd3e38e4d59
submitter=submitter = University of Tokyo Team (Faculty of Engineering, University of Tokyo)
MoNA Rating=3.75

>  <NUM PEAKS>  (960) 
89

>  <MASS SPECTRAL PEAKS>  (960) 
40 1
41 3.3
42 1.9
43 99.99
44 3.8
45 3.8
46 1.4
53 0.11
54 1.1
55 3.3
56 1.4
57 0.36
58 3
59 1.4
60 2.2
61 0.3
67 1.4
69 2.2
70 1.4
71 1.23
72 1.9
73 2.7
74 8.7
75 0.14
81 1.6
82 4.4
83 11.5
84 0.25
85 2.7
86 1.4
87 8.2
88 0.16
89 1.4
95 1.4
96 2.7
97 0.16
98 1.4
99 6
100 11.5
101 0.46
102 10.9
103 8.2
104 1.4
105 0.08
109 1.1
110 1.1
111 6
112 0.14
113 9.8
114 2.2
115 14.2
116 0.41
117 1.9
125 1.9
126 1.6
127 0.27
128 1.1
129 3
130 0.8
131 0.08
140 4.9
141 1.9
142 9.6
143 0.33
144 8.7
145 3.8
146 0.8
149 0.16
153 3.3
154 1.1
155 0.8
156 0.08
157 25.1
158 3.3
159 1.4
184 1.17
185 3.3
186 1.4
187 1.1
200 0.14
201 1.1
213 1.6
214 0.8
244 0.08
261 1.4
262 0.5
273 0.8
274 0.03
303 0.3

$$$$

     RDKit          2D

 21 21  0  0  1  0  0  0  0  0999 V2000
   -2.6089    1.7702    0.0000 C   0  0  0  0  0  0  0  0  0  0  0  0
   -5.2091   -1.2094    0.0000 C   0  0  0  0  0  0  0  0  0  0  0  0
    1.2766   -4.9843    0.0000 C   0  0  0  0  0  0  0  0  0  0  0  0
    5.2067   -1.2223    0.0000 C   0  0  0  0  0  0  0  0  0  0  0  0
    2.6013    3.2745    0.0000 C   0  0  0  0  0  0  0  0  0  0  0  0
   -1.3100    1.0200    0.0000 C   0  0  0  0  0  0  0  0  0  0  0  0
   -3.9081   -0.4629    0.0000 C   0  0  0  0  0  0  0  0  0  0  0  0
    1.2816   -3.4843    0.0000 C   0  0  0  0  0  0  0  0  0  0  0  0
    3.9081   -0.4716    0.0000 C   0  0  0  0  0  0  0  0  0  0  0  0
   -1.3100   -0.4700    0.0000 C   0  0  0  0  0  0  0  0  0  0  0  0
   -0.0100   -1.2300    0.0000 C   0  0  0  0  0  0  0  0  0  0  0  0
    1.3100   -0.4700    0.0000 C   0  0  0  0  0  0  0  0  0  0  0  0
    1.3100    1.0200    0.0000 C   0  0  0  0  0  0  0  0  0  0  0  0
   -3.9040    1.0371    0.0000 O   0  0  0  0  0  0  0  0  0  0  0  0
    2.5831   -2.7386    0.0000 O   0  0  0  0  0  0  0  0  0  0  0  0
    3.9090    1.0284    0.0000 O   0  0  0  0  0  0  0  0  0  0  0  0
    2.6064    1.7745    0.0000 O   0  0  0  0  0  0  0  0  0  0  0  0
   -0.0100    1.7700    0.0000 O   0  0  0  0  0  0  0  0  0  0  0  0
   -2.6111   -1.2165    0.0000 O   0  0  0  0  0  0  0  0  0  0  0  0
   -0.0150   -2.7300    0.0000 O   0  0  0  0  0  0  0  0  0  0  0  0
    2.6086   -1.2208    0.0000 O   0  0  0  0  0  0  0  0  0  0  0  0
  6  1  1  6
  7  2  1  0
  8  3  1  0
  9  4  1  0
 10  6  1  0
 11 10  1  0
 12 11  1  0
 13 12  1  0
 14  7  2  0
 15  8  2  0
 16  9  2  0
 17  5  1  0
 17 13  1  0
 18  6  1  0
 18 13  1  0
 19  7  1  0
 19 10  1  0
 20  8  1  0
 11 20  1  6
 21  9  1  0
 12 21  1  6
M  END
>  <NAME>  (961) 
METHYL TRIACETYL-6-DEOXY-ALPHA-L-IDOPYRANOSIDE

>  <SYNONYMS>  (961) 


>  <SPECTRUM TYPE>  (961) 
MS1

>  <INSTRUMENT TYPE>  (961) 
EI-B

>  <INSTRUMENT>  (961) 
HITACHI RMU-6L

>  <ION MODE>  (961) 
P

>  <INCHIKEY>  (961) 
RTVWBDNQHISFHI-ZEDCYTHJSA-N

>  <FORMULA>  (961) 
C13H20O8

>  <EXACT MASS>  (961) 
304.1158176

>  <MW>  (961) 
304

>  <ID>  (961) 
JP010700

>  <CONTRIBUTOR>  (961) 
University of Tokyo Team, {Faculty of Engineering, University of Tokyo

>  <COMMENT>  (961) 
SMILES=CC(=O)OC([H])(C([H])(C)1)C([H])(OC(C)=O)C([H])(OC(C)=O)C([H])(OC)O1
InChI=InChI=1S/C13H20O8/c1-6-10(19-7(2)14)11(20-8(3)15)12(21-9(4)16)13(17-5)18-6/h6,10-13H,1-5H3/t6-,10?,11+,12+,13?/m0/s1
computed SMILES=O=C(OC1C(OC)OC(C)C(OC(=O)C)C1OC(=O)C)C
accession=JP010700
date=2016.01.19 (Created 2008.10.21, modified 2011.05.06)
author=EGUCHI S, FAC. OF SCIENCE, HIROSHIMA UNIV.
license=CC BY-NC-SA
exact mass=304.11582
ionization energy=70 eV
ion type=[M]+*
computed spectral entropy=3.7396301753638523
computed normalized entropy=0.7987025553020959
SPLASH=splash10-05mo-7910000000-dad11c5e9bfbd47ed702
submitter=submitter = University of Tokyo Team (Faculty of Engineering, University of Tokyo)
MoNA Rating=3.75

>  <NUM PEAKS>  (961) 
108

>  <MASS SPECTRAL PEAKS>  (961) 
40 2.3
41 4.6
42 3.5
43 99.99
44 8.1
45 9.3
46 1.2
47 0.23
53 1.7
54 2.3
55 4.1
56 0.23
57 6.4
58 4.7
59 2.9
60 0.41
61 5.8
67 0.6
68 2.3
69 0.47
70 2.9
71 20.9
72 4.1
73 0.58
74 18.6
75 2.3
76 1.2
81 0.23
82 9.9
83 19.8
84 8.1
85 0.93
86 2.3
87 20.9
88 2.9
89 0.23
90 1.2
96 7.6
97 2.3
98 0.47
99 12.2
100 21.5
101 8.1
102 1.45
103 18
104 2.3
105 1.2
110 0.23
111 12.8
112 2.3
113 23.8
114 0.47
115 66.9
116 9.3
117 3.5
118 0.23
125 3.5
126 11
127 4.1
128 0.29
129 7.6
130 2.3
131 2.3
132 0.06
133 1.2
140 8.7
141 3.5
142 1.98
143 6.4
144 12.8
145 7
146 0.17
149 1.7
153 7.6
154 1.7
155 0.06
156 2.3
157 50
158 9.3
159 0.35
160 1.7
169 1.2
170 1.7
171 0.41
172 1.7
173 1.2
174 1.2
175 0.23
184 20.3
185 7
186 2.3
187 0.17
188 1.7
200 3.5
201 2.3
202 0.12
212 1.7
213 4.1
214 1.7
215 0.17
217 22.7
218 3.5
219 2.3
244 0.17
245 0.6
273 3.4
274 0.6
303 0.6

$$$$

     RDKit          2D

 21 21  0  0  1  0  0  0  0  0999 V2000
   -2.6089    1.7702    0.0000 C   0  0  0  0  0  0  0  0  0  0  0  0
   -5.2091   -1.2094    0.0000 C   0  0  0  0  0  0  0  0  0  0  0  0
    1.2766   -4.9843    0.0000 C   0  0  0  0  0  0  0  0  0  0  0  0
    5.2067   -1.2223    0.0000 C   0  0  0  0  0  0  0  0  0  0  0  0
    2.6013    3.2745    0.0000 C   0  0  0  0  0  0  0  0  0  0  0  0
   -1.3100    1.0200    0.0000 C   0  0  0  0  0  0  0  0  0  0  0  0
   -3.9081   -0.4629    0.0000 C   0  0  0  0  0  0  0  0  0  0  0  0
    1.2816   -3.4843    0.0000 C   0  0  0  0  0  0  0  0  0  0  0  0
    3.9081   -0.4716    0.0000 C   0  0  0  0  0  0  0  0  0  0  0  0
   -1.3100   -0.4700    0.0000 C   0  0  0  0  0  0  0  0  0  0  0  0
   -0.0100   -1.2300    0.0000 C   0  0  0  0  0  0  0  0  0  0  0  0
    1.3100   -0.4700    0.0000 C   0  0  0  0  0  0  0  0  0  0  0  0
    1.3100    1.0200    0.0000 C   0  0  0  0  0  0  0  0  0  0  0  0
   -3.9040    1.0371    0.0000 O   0  0  0  0  0  0  0  0  0  0  0  0
    2.5831   -2.7386    0.0000 O   0  0  0  0  0  0  0  0  0  0  0  0
    3.9090    1.0284    0.0000 O   0  0  0  0  0  0  0  0  0  0  0  0
    2.6064    1.7745    0.0000 O   0  0  0  0  0  0  0  0  0  0  0  0
   -0.0100    1.7700    0.0000 O   0  0  0  0  0  0  0  0  0  0  0  0
   -2.6111   -1.2165    0.0000 O   0  0  0  0  0  0  0  0  0  0  0  0
   -0.0150   -2.7300    0.0000 O   0  0  0  0  0  0  0  0  0  0  0  0
    2.6086   -1.2208    0.0000 O   0  0  0  0  0  0  0  0  0  0  0  0
  6  1  1  1
  7  2  1  0
  8  3  1  0
  9  4  1  0
 10  6  1  0
 11 10  1  0
 12 11  1  0
 13 12  1  0
 14  7  2  0
 15  8  2  0
 16  9  2  0
 17  5  1  0
 17 13  1  0
 18  6  1  0
 18 13  1  0
 19  7  1  0
 19 10  1  0
 20  8  1  0
 11 20  1  6
 21  9  1  0
 12 21  1  6
M  END
>  <NAME>  (962) 
METHYL TRIACETYL-BETA-D-FUCOPYRANOSIDE

>  <SYNONYMS>  (962) 


>  <SPECTRUM TYPE>  (962) 
MS1

>  <INSTRUMENT TYPE>  (962) 
EI-B

>  <INSTRUMENT>  (962) 
HITACHI RMU-6L

>  <ION MODE>  (962) 
P

>  <INCHIKEY>  (962) 
RTVWBDNQHISFHI-JEWVQHRJSA-N

>  <FORMULA>  (962) 
C13H20O8

>  <EXACT MASS>  (962) 
304.1158176

>  <MW>  (962) 
304

>  <ID>  (962) 
JP010699

>  <CONTRIBUTOR>  (962) 
University of Tokyo Team, {Faculty of Engineering, University of Tokyo

>  <COMMENT>  (962) 
SMILES=CC(=O)OC([H])(C([H])(C)1)C([H])(OC(C)=O)C([H])(OC(C)=O)C([H])(OC)O1
InChI=InChI=1S/C13H20O8/c1-6-10(19-7(2)14)11(20-8(3)15)12(21-9(4)16)13(17-5)18-6/h6,10-13H,1-5H3/t6-,10?,11-,12-,13?/m1/s1
computed SMILES=O=C(OC1C(OC)OC(C)C(OC(=O)C)C1OC(=O)C)C
accession=JP010699
date=2016.01.19 (Created 2008.10.21, modified 2011.05.06)
author=EGUCHI S, FAC. OF SCIENCE, HIROSHIMA UNIV.
license=CC BY-NC-SA
computed spectral entropy=3.610946252213475
exact mass=304.11582
ionization energy=70 eV
ion type=[M]+*
computed normalized entropy=0.8044639740841736
SPLASH=splash10-0f6x-7900000000-4b4cace5c75bf1e11171
submitter=submitter = University of Tokyo Team (Faculty of Engineering, University of Tokyo)
MoNA Rating=3.75

>  <NUM PEAKS>  (962) 
89

>  <MASS SPECTRAL PEAKS>  (962) 
40 3
41 7
42 5
43 99.99
44 15
45 5.5
53 3
54 0.25
55 8.5
56 2.5
57 13.5
58 0.99
59 2.5
60 6
61 7.5
67 0.15
68 1.2
69 5.5
70 2.5
71 3.85
72 6
73 6.5
74 16
75 0.3
77 1
80 1
81 2
82 1.4
83 38
84 6
85 8
86 0.2
87 19
88 3
93 2.5
95 0.15
96 12
97 3
98 2.5
99 1.5
100 41
101 24
102 18
103 2.9
104 2.5
110 2
111 6
112 0.2
113 45
114 6
115 36.5
116 0.75
117 3.5
121 1.5
125 5
126 0.25
127 3
128 1.5
129 4.5
130 0.1
131 1.5
140 11.5
141 3.5
142 3
143 10
144 43
145 1.95
146 2.5
149 4
153 2.5
156 0.15
157 47
158 9.5
159 2.5
184 3.5
185 17
186 2
187 2.5
188 0.15
200 3.5
201 2.5
202 1
217 0.6
218 1.5
244 6.5
245 1.5
262 0.1
273 1.5
303 0.8

$$$$

     RDKit          2D

 12 12  0  0  1  0  0  0  0  0999 V2000
    3.7413   -1.6389    0.0000 C   0  0  0  0  0  0  0  0  0  0  0  0
   -2.7772   -0.4897    0.0000 C   0  0  0  0  0  0  0  0  0  0  0  0
   -1.8127   -2.1596    0.0000 C   0  0  0  0  0  0  0  0  0  0  0  0
    1.8127   -2.1596    0.0000 C   0  0  0  0  0  0  0  0  0  0  0  0
    2.7772   -0.4897    0.0000 C   0  0  0  0  0  0  0  0  0  0  0  0
    0.0000    1.5000    0.0000 C   0  0  0  0  0  0  0  0  0  0  0  0
    1.3000    0.7500    0.0000 C   0  0  0  0  0  0  0  0  0  0  0  0
   -1.3000    0.7500    0.0000 C   0  0  0  0  0  0  0  0  0  0  0  0
   -1.3000   -0.7500    0.0000 C   0  0  0  0  0  0  0  0  0  0  0  0
    1.3000   -0.7500    0.0000 C   0  0  0  0  0  0  0  0  0  0  0  0
   -2.5989    1.5002    0.0000 O   0  0  0  0  0  0  0  0  0  0  0  0
   -0.0000   -1.5000    0.0000 O   0  0  0  0  0  0  0  0  0  0  0  0
  5  1  2  0
  7  6  1  0
  8  6  1  0
  9  2  1  0
  9  3  1  0
  9  8  1  0
 10  4  1  1
 10  5  1  0
 10  7  1  0
 11  8  2  0
 12  9  1  0
 12 10  1  0
M  END
>  <NAME>  (963) 
(-)-2,6,6-TRIMETHYL-2(R)-VINYLTETRAHYDROPYRAN-5-ONE

>  <SYNONYMS>  (963) 


>  <SPECTRUM TYPE>  (963) 
MS1

>  <INSTRUMENT TYPE>  (963) 
EI-B

>  <INSTRUMENT>  (963) 
HITACHI RMU-6L

>  <ION MODE>  (963) 
P

>  <INCHIKEY>  (963) 
ATQPZCOAQSYTPR-JTQLQIEISA-N

>  <FORMULA>  (963) 
C10H16O2

>  <EXACT MASS>  (963) 
168.115029752

>  <MW>  (963) 
168

>  <ID>  (963) 
JP010698

>  <CONTRIBUTOR>  (963) 
University of Tokyo Team, {Faculty of Engineering, University of Tokyo

>  <COMMENT>  (963) 
SMILES=C=CC(C)(C1)OC(C)(C)C(=O)C1
InChI=InChI=1S/C10H16O2/c1-5-10(4)7-6-8(11)9(2,3)12-10/h5H,1,6-7H2,2-4H3/t10-/m0/s1
computed SMILES=O=C1CCC(OC1(C)C)(C=C)C
accession=JP010698
date=2016.01.19 (Created 2008.10.21, modified 2011.05.06)
author=EGUCHI S, FAC. OF SCIENCE, HIROSHIMA UNIV.
license=CC BY-NC-SA
exact mass=168.11503
ionization energy=70 eV
ion type=[M]+*
computed spectral entropy=2.8556042772128216
computed normalized entropy=0.7299559008856835
SPLASH=splash10-014i-9200000000-cdfb8c54f2a6bffa2c8f
submitter=submitter = University of Tokyo Team (Faculty of Engineering, University of Tokyo)
MoNA Rating=3.75

>  <NUM PEAKS>  (963) 
50

>  <MASS SPECTRAL PEAKS>  (963) 
41 26.5
42 9.5
43 34
44 0.15
51 3
52 4
53 14
54 0.8
55 13
56 3
57 2
58 0.15
59 14
65 43
66 4.5
67 8.9
68 99.99
69 11
70 10.5
71 0.3
77 2
79 4
80 2
81 1
82 28
83 4
84 1.5
92 0.25
93 2.5
94 1.5
95 9
96 0.15
97 3.5
107 2
108 1.5
109 0.2
110 76
111 9
112 1
123 0.2
124 1
125 2
126 1
135 0.15
141 4
142 1
153 4
154 0.15
168 4
169 1

$$$$

     RDKit          2D

 15 15  0  0  1  0  0  0  0  0999 V2000
    3.9397    2.8860    0.0000 C   0  0  0  0  0  0  0  0  0  0  0  0
   -4.5470   -1.0348    0.0000 C   0  0  0  0  0  0  0  0  0  0  0  0
   -0.3148   -2.1846    0.0000 C   0  0  0  0  0  0  0  0  0  0  0  0
    1.6137   -2.1843    0.0000 C   0  0  0  0  0  0  0  0  0  0  0  0
    3.4264    0.9554    0.0000 C   0  0  0  0  0  0  0  0  0  0  0  0
    2.4624    2.6257    0.0000 C   0  0  0  0  0  0  0  0  0  0  0  0
   -0.6493    1.2154    0.0000 C   0  0  0  0  0  0  0  0  0  0  0  0
    0.6502    1.9662    0.0000 C   0  0  0  0  0  0  0  0  0  0  0  0
   -3.2478   -0.2850    0.0000 C   0  0  0  0  0  0  0  0  0  0  0  0
   -0.6498   -0.2855    0.0000 C   0  0  0  0  0  0  0  0  0  0  0  0
    0.6493   -1.0355    0.0000 C   0  0  0  0  0  0  0  0  0  0  0  0
    1.9493    1.2162    0.0000 C   0  0  0  0  0  0  0  0  0  0  0  0
   -3.2476    1.2150    0.0000 O   0  0  0  0  0  0  0  0  0  0  0  0
   -1.9489   -1.0353    0.0000 O   0  0  0  0  0  0  0  0  0  0  0  0
    1.9488   -0.2846    0.0000 O   0  0  0  0  0  0  0  0  0  0  0  0
  6  1  2  0
  8  7  1  0
  9  2  1  0
 10  7  1  0
 11  3  1  0
 11  4  1  0
 11 10  1  0
 12  5  1  1
 12  6  1  0
 12  8  1  0
 13  9  2  0
 14  9  1  0
 10 14  1  6
 15 11  1  0
 15 12  1  0
M  END
>  <NAME>  (964) 
(-)-2,6,6-TRIMETHYL-2(R)-VINYL-5(R)-ACETOXYTETRAHYDROPYRAN

>  <SYNONYMS>  (964) 


>  <SPECTRUM TYPE>  (964) 
MS1

>  <INSTRUMENT TYPE>  (964) 
EI-B

>  <INSTRUMENT>  (964) 
HITACHI RMU-6L

>  <ION MODE>  (964) 
P

>  <INCHIKEY>  (964) 
IRWLDXUJBJPFNV-PWSUYJOCSA-N

>  <FORMULA>  (964) 
C12H20O3

>  <EXACT MASS>  (964) 
212.14124449999997

>  <MW>  (964) 
212

>  <ID>  (964) 
JP010697

>  <CONTRIBUTOR>  (964) 
University of Tokyo Team, {Faculty of Engineering, University of Tokyo

>  <COMMENT>  (964) 
SMILES=C=CC(C)(C1)OC(C)(C)C([H])(OC(C)=O)C1
InChI=InChI=1S/C12H20O3/c1-6-12(5)8-7-10(14-9(2)13)11(3,4)15-12/h6,10H,1,7-8H2,2-5H3/t10-,12+/m1/s1
computed SMILES=O=C(OC1CCC(OC1(C)C)(C=C)C)C
accession=JP010697
date=2016.01.19 (Created 2008.10.21, modified 2011.05.06)
author=EGUCHI S, FAC. OF SCIENCE, HIROSHIMA UNIV.
license=CC BY-NC-SA
exact mass=212.14124
ionization energy=70 eV
ion type=[M]+*
computed spectral entropy=3.134266631086431
computed normalized entropy=0.7564964303770598
SPLASH=splash10-0006-9200000000-e7e749a1f8bdb6b67e2d
submitter=submitter = University of Tokyo Team (Faculty of Engineering, University of Tokyo)
MoNA Rating=3.75

>  <NUM PEAKS>  (964) 
63

>  <MASS SPECTRAL PEAKS>  (964) 
41 14
42 2.5
43 99.99
44 0.45
45 2.5
53 5
54 2
55 1.35
56 1.5
57 2.5
59 20
60 0.2
65 2
67 8.5
68 31
69 0.55
70 2.5
71 6.5
72 11
75 0.2
77 3.5
78 1.5
79 11
80 0.2
81 8
82 4.5
83 5
84 0.25
85 3.5
86 2
91 2
93 1.4
94 51
95 8
96 2.5
97 0.4
98 2
99 2.5
100 2.5
101 1
102 2
107 2.5
108 2
109 0.2
111 4.5
112 2
113 2
114 0.3
119 3
121 2
125 5.5
126 0.3
136 14
137 11.5
138 2.5
143 0.45
154 9
155 7
156 2.5
170 0.1
197 6.5
198 2
212 0.3

$$$$

     RDKit          2D

 12 12  0  0  1  0  0  0  0  0999 V2000
    3.7413   -1.6389    0.0000 C   0  0  0  0  0  0  0  0  0  0  0  0
   -2.7772   -0.4897    0.0000 C   0  0  0  0  0  0  0  0  0  0  0  0
   -1.8127   -2.1596    0.0000 C   0  0  0  0  0  0  0  0  0  0  0  0
    1.8127   -2.1596    0.0000 C   0  0  0  0  0  0  0  0  0  0  0  0
    2.7772   -0.4897    0.0000 C   0  0  0  0  0  0  0  0  0  0  0  0
    0.0000    1.5000    0.0000 C   0  0  0  0  0  0  0  0  0  0  0  0
    1.3000    0.7500    0.0000 C   0  0  0  0  0  0  0  0  0  0  0  0
   -1.3000    0.7500    0.0000 C   0  0  0  0  0  0  0  0  0  0  0  0
   -1.3000   -0.7500    0.0000 C   0  0  0  0  0  0  0  0  0  0  0  0
    1.3000   -0.7500    0.0000 C   0  0  0  0  0  0  0  0  0  0  0  0
   -2.5989    1.5002    0.0000 O   0  0  0  0  0  0  0  0  0  0  0  0
   -0.0000   -1.5000    0.0000 O   0  0  0  0  0  0  0  0  0  0  0  0
  5  1  2  0
  7  6  1  0
  8  6  1  0
  9  2  1  0
  9  3  1  0
  9  8  1  0
 10  4  1  1
 10  5  1  0
 10  7  1  0
  8 11  1  6
 12  9  1  0
 12 10  1  0
M  END
>  <NAME>  (965) 
(-)-2,6,6-TRIMETHYL-2(R)-VINYL-5(R)-HYDROXYTETRAHYDROPYRAN

>  <SYNONYMS>  (965) 


>  <SPECTRUM TYPE>  (965) 
MS1

>  <INSTRUMENT TYPE>  (965) 
EI-B

>  <INSTRUMENT>  (965) 
HITACHI RMU-6L

>  <ION MODE>  (965) 
P

>  <INCHIKEY>  (965) 
BCTBAGTXFYWYMW-SCZZXKLOSA-N

>  <FORMULA>  (965) 
C10H18O2

>  <EXACT MASS>  (965) 
170.130679816

>  <MW>  (965) 
170

>  <ID>  (965) 
JP010696

>  <CONTRIBUTOR>  (965) 
University of Tokyo Team, {Faculty of Engineering, University of Tokyo

>  <COMMENT>  (965) 
SMILES=C=CC(C)(C1)OC(C)(C)C([H])(O)C1
InChI=InChI=1S/C10H18O2/c1-5-10(4)7-6-8(11)9(2,3)12-10/h5,8,11H,1,6-7H2,2-4H3/t8-,10+/m1/s1
computed SMILES=OC1CCC(OC1(C)C)(C=C)C
accession=JP010696
date=2016.01.19 (Created 2008.10.21, modified 2011.05.06)
author=EGUCHI S, FAC. OF SCIENCE, HIROSHIMA UNIV.
license=CC BY-NC-SA
exact mass=170.13068
ionization energy=70 eV
ion type=[M]+*
computed spectral entropy=2.9304472350075517
computed normalized entropy=0.7380936462139766
SPLASH=splash10-05mo-9000000000-3a05e06520c8a15bdc8e
submitter=submitter = University of Tokyo Team (Faculty of Engineering, University of Tokyo)
MoNA Rating=3.75

>  <NUM PEAKS>  (965) 
53

>  <MASS SPECTRAL PEAKS>  (965) 
41 27.5
42 5.5
43 46.5
44 0.5
45 4.5
51 4.5
52 3
53 1.6
54 4.5
55 13.5
56 6
57 0.95
58 2.5
59 79.5
60 5
65 0.35
66 4.5
67 32
68 99.99
69 1.35
70 8
71 10
72 6.5
77 0.45
78 2
79 17.5
80 3
81 1.15
82 2
83 9.5
84 6
85 0.5
92 2
93 4.5
94 71.5
95 0.95
96 2
97 6
99 3
102 0.45
107 2
108 1.5
109 4
111 0.3
112 8.5
119 1.5
125 3.5
135 0.3
137 5
143 3.5
153 4.5
155 0.35
170 1.5

$$$$

     RDKit          2D

 11 12  0  0  1  0  0  0  0  0999 V2000
   -2.6602    1.4980    0.0000 C   0  0  0  0  0  0  0  0  0  0  0  0
   -2.8369   -0.4880    0.0000 C   0  0  0  0  0  0  0  0  0  0  0  0
   -1.8759   -2.1585    0.0000 C   0  0  0  0  0  0  0  0  0  0  0  0
    0.3900   -0.0000    0.0000 C   0  0  0  0  0  0  0  0  0  0  0  0
    1.2300   -0.7500    0.0000 C   0  0  0  0  0  0  0  0  0  0  0  0
   -1.3600    0.7500    0.0000 C   0  0  0  0  0  0  0  0  0  0  0  0
   -0.0700   -1.5000    0.0000 C   0  0  0  0  0  0  0  0  0  0  0  0
   -0.0700    1.5000    0.0000 C   0  0  0  0  0  0  0  0  0  0  0  0
    1.2300    0.7500    0.0000 C   0  0  0  0  0  0  0  0  0  0  0  0
   -1.3600   -0.7500    0.0000 C   0  0  0  0  0  0  0  0  0  0  0  0
    2.5289    1.5002    0.0000 Cl  0  0  0  0  0  0  0  0  0  0  0  0
  6  1  2  0
  7  4  1  0
  7  5  1  1
  8  4  1  0
  8  6  1  1
  9  5  1  0
  9  8  1  0
 10  2  1  0
 10  3  1  0
 10  6  1  0
 10  7  1  0
  9 11  1  6
M  END
>  <NAME>  (966) 
EXO-6-CHLOROCAMPHENE

>  <SYNONYMS>  (966) 


>  <SPECTRUM TYPE>  (966) 
MS1

>  <INSTRUMENT TYPE>  (966) 
EI-B

>  <INSTRUMENT>  (966) 
HITACHI RMU-6L

>  <ION MODE>  (966) 
P

>  <INCHIKEY>  (966) 
RYBMATYKJPKXJO-XHNCKOQMSA-N

>  <FORMULA>  (966) 
C10H15Cl

>  <EXACT MASS>  (966) 
170.08622816

>  <MW>  (966) 
170

>  <ID>  (966) 
JP010695

>  <CONTRIBUTOR>  (966) 
University of Tokyo Team, {Faculty of Engineering, University of Tokyo

>  <COMMENT>  (966) 
SMILES=ClC(C1)C(C2)C(=C)C(C)(C)C12
InChI=InChI=1S/C10H15Cl/c1-6-8-4-7(5-9(8)11)10(6,2)3/h7-9H,1,4-5H2,2-3H3/t7-,8-,9+/m0/s1
computed SMILES=ClC1CC2CC1C(=C)C2(C)C
license=CC BY-NC-SA
accession=JP010695
date=2016.01.19 (Created 2008.10.21, modified 2011.05.06)
author=EGUCHI S, FAC. OF SCIENCE, HIROSHIMA UNIV.
exact mass=170.08623
ionization energy=70 eV
ion type=[M]+*
computed spectral entropy=3.5387807766353645
computed normalized entropy=0.8357798210302617
SPLASH=splash10-002f-9400000000-1ab99dda158f85697b87
submitter=submitter = University of Tokyo Team (Faculty of Engineering, University of Tokyo)
MoNA Rating=3.75

>  <NUM PEAKS>  (966) 
69

>  <MASS SPECTRAL PEAKS>  (966) 
41 45
42 5
43 11
44 0.4
50 5
51 19
52 8
53 1.9
54 3
55 12
56 3
57 0.3
61 1.5
62 3
63 8
64 0.3
65 20
66 12
67 27
68 0.95
69 12
70 2
75 5
76 0.25
77 47
78 10
79 39
80 0.9
81 6
82 4
89 3
91 5
92 16.5
93 99.99
94 15
95 0.9
100 3
101 2
102 5.5
103 0.5
104 4
105 17
106 6
107 4.9
108 17
109 3
113 4
114 0.2
115 4.5
116 2.5
117 5
119 2.7
121 30
122 4
125 3
126 0.3
127 12
128 5
129 6
133 0.45
134 10
135 37
136 7
155 2.4
156 4
157 9
170 9
171 0.4
172 8

$$$$

     RDKit          2D

 15 16  0  0  1  0  0  0  0  0999 V2000
    2.6990   -3.6400    0.0000 C   0  0  0  0  0  0  0  0  0  0  0  0
    0.1010   -3.6400    0.0000 C   0  0  0  0  0  0  0  0  0  0  0  0
   -3.7989   -1.3902    0.0000 C   0  0  0  0  0  0  0  0  0  0  0  0
    1.4000    3.1100    0.0000 C   0  0  0  0  0  0  0  0  0  0  0  0
   -2.5000    0.8600    0.0000 C   0  0  0  0  0  0  0  0  0  0  0  0
    2.7000    0.8600    0.0000 C   0  0  0  0  0  0  0  0  0  0  0  0
   -1.2000    1.6100    0.0000 C   0  0  0  0  0  0  0  0  0  0  0  0
    2.7000   -0.6400    0.0000 C   0  0  0  0  0  0  0  0  0  0  0  0
   -1.2000   -1.3900    0.0000 C   0  0  0  0  0  0  0  0  0  0  0  0
    1.4000   -2.8900    0.0000 C   0  0  0  0  0  0  0  0  0  0  0  0
   -2.5000   -0.6400    0.0000 C   0  0  0  0  0  0  0  0  0  0  0  0
    1.4000    1.6100    0.0000 C   0  0  0  0  0  0  0  0  0  0  0  0
    1.4000   -1.3900    0.0000 C   0  0  0  0  0  0  0  0  0  0  0  0
    0.1000    0.8600    0.0000 C   0  0  0  0  0  0  0  0  0  0  0  0
    0.1000   -0.6400    0.0000 C   0  0  0  0  0  0  0  0  0  0  0  0
  7  5  1  0
  8  6  1  0
 10  1  1  0
 10  2  1  0
 11  3  1  0
 11  5  1  0
 11  9  2  0
 12  4  1  0
 12  6  2  0
 13  8  1  0
 13 10  1  6
 14  7  1  1
 14 12  1  0
 15  9  1  1
 15 13  1  0
 15 14  1  0
M  END
>  <NAME>  (967) 
(+)-ALPHA-MUUROLENE

>  <SYNONYMS>  (967) 


>  <SPECTRUM TYPE>  (967) 
MS1

>  <INSTRUMENT TYPE>  (967) 
EI-B

>  <INSTRUMENT>  (967) 
HITACHI RMU-6L

>  <ION MODE>  (967) 
P

>  <INCHIKEY>  (967) 
QMAYBMKBYCGXDH-QLFBSQMISA-N

>  <FORMULA>  (967) 
C15H24

>  <EXACT MASS>  (967) 
204.187800768

>  <MW>  (967) 
204

>  <ID>  (967) 
JP010693

>  <CONTRIBUTOR>  (967) 
University of Tokyo Team, {Faculty of Engineering, University of Tokyo

>  <COMMENT>  (967) 
SMILES=CC(C2)=C([H])C([H])(C([H])(C(C)C)1)C([H])(C2)C(C)=C([H])C1
InChI=InChI=1S/C15H24/c1-10(2)13-8-6-12(4)14-7-5-11(3)9-15(13)14/h6,9-10,13-15H,5,7-8H2,1-4H3/t13-,14+,15-/m1/s1
computed SMILES=C1=C(C)C2CCC(=CC2C(C1)C(C)C)C
accession=JP010693
date=2016.01.19 (Created 2008.10.21, modified 2011.05.06)
author=EGUCHI S, FAC. OF SCIENCE, HIROSHIMA UNIV.
license=CC BY-NC-SA
exact mass=204.1878
ionization energy=70 eV
ion type=[M]+*
computed spectral entropy=3.621793719287932
computed normalized entropy=0.8218798421379776
SPLASH=splash10-052f-6900000000-e29d06058de77b5a076d
submitter=submitter = University of Tokyo Team (Faculty of Engineering, University of Tokyo)
MoNA Rating=3.75

>  <NUM PEAKS>  (967) 
82

>  <MASS SPECTRAL PEAKS>  (967) 
41 40.3
42 3.2
43 20.9
44 0.16
51 4.8
52 1.6
53 12.9
54 0.16
55 19.4
56 3.2
57 8.1
63 0.24
64 1.6
65 8.1
66 1.6
67 0.89
68 1.6
69 11.3
70 1.6
73 0.16
77 19.4
78 4.8
79 19.4
80 0.48
81 29
82 3.2
83 1.6
89 0.16
91 27.4
92 11.3
93 37.1
94 3.55
95 9.7
103 4
104 2.4
105 99.99
106 17.7
107 11.3
108 9.7
109 0.32
110 1.6
115 6.5
116 2.4
117 0.81
118 3.2
119 29
120 6.5
121 1.13
122 4.8
123 9.7
127 1.6
128 0.48
129 4.8
130 3.2
131 5.6
132 0.16
133 14.5
134 8.1
135 4.8
136 0.32
141 2.4
142 1.6
143 2.4
144 0.16
145 8.1
146 2.4
147 22.6
148 0.97
149 6.5
150 1.6
159 2.4
160 0.48
161 56.5
162 19.4
163 2.4
175 0.48
176 2.4
189 12.9
190 4
204 3.55
205 6.5
206 1.6

$$$$

     RDKit          2D

 16 17  0  0  1  0  0  0  0  0999 V2000
   -3.8987   -3.0002    0.0000 C   0  0  0  0  0  0  0  0  0  0  0  0
   -5.1981   -0.7504    0.0000 C   0  0  0  0  0  0  0  0  0  0  0  0
    1.3000   -3.0000    0.0000 C   0  0  0  0  0  0  0  0  0  0  0  0
    0.0000    2.2500    0.0000 C   0  0  0  0  0  0  0  0  0  0  0  0
   -2.6000    0.7500    0.0000 C   0  0  0  0  0  0  0  0  0  0  0  0
    2.6000    0.7500    0.0000 C   0  0  0  0  0  0  0  0  0  0  0  0
   -1.3000    1.5000    0.0000 C   0  0  0  0  0  0  0  0  0  0  0  0
    1.3000    1.5000    0.0000 C   0  0  0  0  0  0  0  0  0  0  0  0
   -1.3000   -1.5000    0.0000 C   0  0  0  0  0  0  0  0  0  0  0  0
   -3.8989   -1.5002    0.0000 C   0  0  0  0  0  0  0  0  0  0  0  0
    1.3000   -1.5000    0.0000 C   0  0  0  0  0  0  0  0  0  0  0  0
   -2.6000   -0.7500    0.0000 C   0  0  0  0  0  0  0  0  0  0  0  0
    0.0000   -0.7500    0.0000 C   0  0  0  0  0  0  0  0  0  0  0  0
    2.6000   -0.7500    0.0000 C   0  0  0  0  0  0  0  0  0  0  0  0
    0.0000    0.7500    0.0000 C   0  0  0  0  0  0  0  0  0  0  0  0
    3.8989   -1.5002    0.0000 O   0  0  0  0  0  0  0  0  0  0  0  0
  7  5  1  0
  8  6  1  0
 10  1  2  0
 10  2  1  0
 11  3  1  0
 12  5  1  0
 12  9  1  0
 12 10  1  6
 13  9  1  0
 13 11  2  0
 14  6  1  0
 14 11  1  0
 15  4  1  0
 15  7  1  0
 15  8  1  0
 15 13  1  0
 16 14  2  0
M  END
>  <NAME>  (968) 
(+)-ALPHA-CYPERONE

>  <SYNONYMS>  (968) 


>  <SPECTRUM TYPE>  (968) 
MS1

>  <INSTRUMENT TYPE>  (968) 
EI-B

>  <INSTRUMENT>  (968) 
HITACHI RMU-6L

>  <ION MODE>  (968) 
P

>  <INCHIKEY>  (968) 
KUFXJZXMWHNCEH-KEKZHRQWSA-N

>  <FORMULA>  (968) 
C15H22O

>  <EXACT MASS>  (968) 
218.167065324

>  <MW>  (968) 
218

>  <ID>  (968) 
JP010692

>  <CONTRIBUTOR>  (968) 
University of Tokyo Team, {Faculty of Engineering, University of Tokyo

>  <COMMENT>  (968) 
InChI=InChI=1S/C15H22O/c1-10(2)12-5-7-15(4)8-6-14(16)11(3)13(15)9-12/h12H,1,5-9H2,2-4H3/t12-,15?/m1/s1
SMILES=CC(=C)C([H])(C1)CC(=C(C)2)C(C)(CCC(=O)2)C1
computed SMILES=O=C1C(=C2CC(C(=C)C)CCC2(C)CC1)C
accession=JP010692
date=2016.01.19 (Created 2008.10.21, modified 2011.05.06)
author=EGUCHI S, FAC. OF SCIENCE, HIROSHIMA UNIV.
license=CC BY-NC-SA
exact mass=218.16707
ionization energy=70 eV
ion type=[M]+*
computed spectral entropy=3.938326668148
computed normalized entropy=0.8608908161967478
SPLASH=splash10-0006-9700000000-a4f6ddf93d1ac3db8abd
submitter=submitter = University of Tokyo Team (Faculty of Engineering, University of Tokyo)
MoNA Rating=3.75

>  <NUM PEAKS>  (968) 
97

>  <MASS SPECTRAL PEAKS>  (968) 
41 99.99
42 7.5
43 49
45 0.2
51 10
52 7
53 39
54 0.8
55 52
56 5
57 8
58 0.2
59 4
63 3
64 2
65 4
66 7
67 40
68 9
69 3.1
70 4
71 10
77 36
78 0.9
79 43
80 13
81 32
82 1.4
83 8
84 2.5
85 3
91 4.7
92 10
93 47
94 13
95 2.9
96 8
97 8
103 5
104 0.2
105 33.5
106 11
107 32
108 2.2
109 32
110 12
111 10
112 0.5
115 5
116 2
117 8
118 0.4
119 34
120 14.5
121 30
122 1.7
123 10.5
124 11
125 3
127 0.3
128 3
131 6.5
132 7
133 2.3
134 14
135 16
136 32.5
137 1.8
138 5
143 3
145 6
146 0.4
147 28
148 11
149 7
150 0.8
151 2
157 5
159 5
160 0.3
161 26.5
162 14
163 5
175 1.9
176 9
177 4
179 1.5
185 0.4
189 4
190 5
200 1.5
201 0.1
203 12
204 5
218 29
219 1.45
220 3

$$$$

     RDKit          2D

 15 17  0  0  1  0  0  0  0  0999 V2000
   -1.2048    0.5599    0.0000 C   0  0  0  0  0  0  0  0  0  0  0  0
    0.5698    2.6589    0.0000 C   0  0  0  0  0  0  0  0  0  0  0  0
   -1.2515    3.0711    0.0000 C   0  0  0  0  0  0  0  0  0  0  0  0
   -0.2698   -3.1132    0.0000 C   0  0  0  0  0  0  0  0  0  0  0  0
   -2.7100    0.0400    0.0000 C   0  0  0  0  0  0  0  0  0  0  0  0
    2.8800    0.0400    0.0000 C   0  0  0  0  0  0  0  0  0  0  0  0
    2.0000   -1.1800    0.0000 C   0  0  0  0  0  0  0  0  0  0  0  0
   -2.0600    1.3900    0.0000 C   0  0  0  0  0  0  0  0  0  0  0  0
   -2.0600   -1.3100    0.0000 C   0  0  0  0  0  0  0  0  0  0  0  0
   -0.0200   -0.3600    0.0000 C   0  0  0  0  0  0  0  0  0  0  0  0
    2.0000    1.2500    0.0000 C   0  0  0  0  0  0  0  0  0  0  0  0
    0.5800   -0.7100    0.0000 C   0  0  0  0  0  0  0  0  0  0  0  0
    0.5800    0.7900    0.0000 C   0  0  0  0  0  0  0  0  0  0  0  0
   -0.6000    1.7200    0.0000 C   0  0  0  0  0  0  0  0  0  0  0  0
   -0.6000   -1.6500    0.0000 C   0  0  0  0  0  0  0  0  0  0  0  0
  7  6  1  0
  8  5  1  0
  9  5  1  0
 10  1  2  0
 11  6  1  0
 11 10  1  0
 12  7  1  0
 13 11  1  0
 13 12  1  0
 14  2  1  0
 14  3  1  0
 14  8  1  0
 13 14  1  1
 15  4  1  1
 15  9  1  0
 15 10  1  0
 15 12  1  0
M  END
>  <NAME>  (969) 
LONGIFOLENE

>  <SYNONYMS>  (969) 


>  <SPECTRUM TYPE>  (969) 
MS1

>  <INSTRUMENT TYPE>  (969) 
EI-B

>  <INSTRUMENT>  (969) 
HITACHI RMU-6L

>  <ION MODE>  (969) 
P

>  <INCHIKEY>  (969) 
PDSNLYSELAIEBU-NSOJWWLLSA-N

>  <FORMULA>  (969) 
C15H24

>  <EXACT MASS>  (969) 
204.187800768

>  <MW>  (969) 
204

>  <ID>  (969) 
JP010690

>  <CONTRIBUTOR>  (969) 
University of Tokyo Team, {Faculty of Engineering, University of Tokyo

>  <COMMENT>  (969) 
SMILES=CC(C)(C2)C(C31)C(CC3)C(C)(CC2)C(=C)1
InChI=InChI=1S/C15H24/c1-10-11-6-7-12-13(11)14(2,3)8-5-9-15(10,12)4/h11-13H,1,5-9H2,2-4H3/t11?,12?,13-,15+/m0/s1
computed SMILES=C=C1C2CCC3C2C(C)(C)CCCC13C
accession=JP010690
date=2016.01.19 (Created 2008.10.21, modified 2011.05.06)
author=EGUCHI S, FAC. OF SCIENCE, HIROSHIMA UNIV.
license=CC BY-NC-SA
exact mass=204.1878
ionization energy=70 eV
ion type=[M]+*
computed spectral entropy=3.781727255898618
computed normalized entropy=0.8581729499210465
SPLASH=splash10-052f-9800000000-2f8ccf21ddc4f6f3e965
submitter=submitter = University of Tokyo Team (Faculty of Engineering, University of Tokyo)
MoNA Rating=3.75

>  <NUM PEAKS>  (969) 
82

>  <MASS SPECTRAL PEAKS>  (969) 
41 99.99
42 7.5
43 26.5
44 0.75
51 12.9
52 6.8
53 34.7
54 0.61
55 65.3
56 8.2
57 10.2
63 0.54
64 4.1
65 23.8
66 9.5
67 4.76
68 6.8
69 40.1
70 4.8
71 0.34
77 43.5
78 12.9
79 68.7
80 1.7
81 41.5
82 20.4
83 12.9
91 8.57
92 31.9
93 73.5
94 79.6
95 5.99
96 12.2
97 4.8
103 9.5
104 0.54
105 74.8
106 34
107 71.4
108 4.63
109 51
110 10.2
111 6.1
115 0.88
116 5.4
117 12.9
118 4.8
119 5.65
120 33.3
121 36.7
122 23.8
123 1.02
124 1.4
128 3.4
129 4.1
130 0.27
131 7.5
132 3.4
133 53.7
134 2.65
135 42.8
136 16.3
137 11.6
138 0.41
145 6.1
146 2.7
147 24.7
148 1.77
149 8.8
150 4.1
161 87.8
162 1.97
163 11
164 2
175 17.7
176 1.1
177 2.7
189 53.1
190 8.2
191 0.14
204 50.3
205 8.8

$$$$

     RDKit          2D

 15 16  0  0  1  0  0  0  0  0999 V2000
    2.6990   -3.6400    0.0000 C   0  0  0  0  0  0  0  0  0  0  0  0
    0.1010   -3.6400    0.0000 C   0  0  0  0  0  0  0  0  0  0  0  0
   -3.7989   -1.3902    0.0000 C   0  0  0  0  0  0  0  0  0  0  0  0
    1.4000    3.1100    0.0000 C   0  0  0  0  0  0  0  0  0  0  0  0
   -2.5000    0.8600    0.0000 C   0  0  0  0  0  0  0  0  0  0  0  0
    2.7000    0.8600    0.0000 C   0  0  0  0  0  0  0  0  0  0  0  0
   -1.2000    1.6100    0.0000 C   0  0  0  0  0  0  0  0  0  0  0  0
    2.7000   -0.6400    0.0000 C   0  0  0  0  0  0  0  0  0  0  0  0
   -1.2000   -1.3900    0.0000 C   0  0  0  0  0  0  0  0  0  0  0  0
    1.4000   -2.8900    0.0000 C   0  0  0  0  0  0  0  0  0  0  0  0
   -2.5000   -0.6400    0.0000 C   0  0  0  0  0  0  0  0  0  0  0  0
    1.4000    1.6100    0.0000 C   0  0  0  0  0  0  0  0  0  0  0  0
    1.4000   -1.3900    0.0000 C   0  0  0  0  0  0  0  0  0  0  0  0
    0.1000    0.8600    0.0000 C   0  0  0  0  0  0  0  0  0  0  0  0
    0.1000   -0.6400    0.0000 C   0  0  0  0  0  0  0  0  0  0  0  0
  7  5  2  0
  8  6  1  0
 10  1  1  0
 10  2  1  0
 11  3  1  0
 11  5  1  0
 11  9  2  0
 12  4  1  1
 12  6  1  0
 13  8  1  0
 13 10  1  1
 14  7  1  0
 14 12  1  0
 15  9  1  0
 15 13  1  0
 15 14  2  0
M  END
>  <NAME>  (970) 
CALAMENENE

>  <SYNONYMS>  (970) 


>  <SPECTRUM TYPE>  (970) 
MS1

>  <INSTRUMENT TYPE>  (970) 
EI-B

>  <INSTRUMENT>  (970) 
HITACHI RMU-6L

>  <ION MODE>  (970) 
P

>  <INCHIKEY>  (970) 
PGTJIOWQJWHTJJ-STQMWFEESA-N

>  <FORMULA>  (970) 
C15H22

>  <EXACT MASS>  (970) 
202.172150704

>  <MW>  (970) 
202

>  <ID>  (970) 
JP010688

>  <CONTRIBUTOR>  (970) 
University of Tokyo Team, {Faculty of Engineering, University of Tokyo

>  <COMMENT>  (970) 
SMILES=Cc(c2)cc(c(c2)1)C([H])(C(C)C)CCC([H])(C)1
InChI=InChI=1S/C15H22/c1-10(2)13-8-6-12(4)14-7-5-11(3)9-15(13)14/h5,7,9-10,12-13H,6,8H2,1-4H3/t12-,13-/m0/s1
computed SMILES=C=1C=C2C(=CC1C)C(CCC2C)C(C)C
accession=JP010688
date=2016.01.19 (Created 2008.10.21, modified 2011.05.06)
author=EGUCHI S, FAC. OF SCIENCE, HIROSHIMA UNIV.
license=CC BY-NC-SA
exact mass=202.17215
ionization energy=70 eV
ion type=[M]+*
computed spectral entropy=3.3378249090855134
computed normalized entropy=0.8087512054805662
SPLASH=splash10-053r-2900000000-04f69771dc2275c05168
submitter=submitter = University of Tokyo Team (Faculty of Engineering, University of Tokyo)
MoNA Rating=3.75

>  <NUM PEAKS>  (970) 
62

>  <MASS SPECTRAL PEAKS>  (970) 
41 23
42 2
43 11
44 1
51 4
53 7
55 12
56 0.3
57 4
63 3
65 8
68 0.7
69 8
71 2
77 11
78 0.4
79 7
81 5
82 1
83 0.7
91 22
92 6
93 7
95 0.5
103 4
104 4
105 30
106 0.5
107 4
109 3
115 22
116 0.8
117 19
118 6
119 33
120 1.1
121 3
127 7
128 24
129 2.3
130 9
131 51
132 99.99
133 1.8
141 10
142 7
143 14
144 1.4
145 36
146 10
147 3
149 0.3
157 4
158 5
159 98
160 2.9
161 7
187 7
188 1
202 5.7
203 10
204 3

$$$$

     RDKit          2D

 15 15  0  0  1  0  0  0  0  0999 V2000
    3.2899    2.4204    0.0000 C   0  0  0  0  0  0  0  0  0  0  0  0
   -2.5987   -3.0002    0.0000 C   0  0  0  0  0  0  0  0  0  0  0  0
   -3.8981   -0.7504    0.0000 C   0  0  0  0  0  0  0  0  0  0  0  0
    2.5987   -3.0002    0.0000 C   0  0  0  0  0  0  0  0  0  0  0  0
    3.8981   -0.7504    0.0000 C   0  0  0  0  0  0  0  0  0  0  0  0
    2.7772    0.4897    0.0000 C   0  0  0  0  0  0  0  0  0  0  0  0
    1.8127    2.1596    0.0000 C   0  0  0  0  0  0  0  0  0  0  0  0
   -1.3000    0.7500    0.0000 C   0  0  0  0  0  0  0  0  0  0  0  0
    0.0000    1.5000    0.0000 C   0  0  0  0  0  0  0  0  0  0  0  0
   -0.0000   -1.5000    0.0000 C   0  0  0  0  0  0  0  0  0  0  0  0
   -2.5989   -1.5002    0.0000 C   0  0  0  0  0  0  0  0  0  0  0  0
    2.5989   -1.5002    0.0000 C   0  0  0  0  0  0  0  0  0  0  0  0
   -1.3000   -0.7500    0.0000 C   0  0  0  0  0  0  0  0  0  0  0  0
    1.3000   -0.7500    0.0000 C   0  0  0  0  0  0  0  0  0  0  0  0
    1.3000    0.7500    0.0000 C   0  0  0  0  0  0  0  0  0  0  0  0
  7  1  2  0
  9  8  1  0
 11  2  2  0
 11  3  1  0
 12  4  2  0
 12  5  1  0
 13  8  1  0
 13 10  1  0
 13 11  1  6
 14 10  1  0
 14 12  1  6
 15  6  1  6
 15  7  1  0
 15  9  1  0
 15 14  1  0
M  END
>  <NAME>  (971) 
BETA-ELEMENE

>  <SYNONYMS>  (971) 


>  <SPECTRUM TYPE>  (971) 
MS1

>  <INSTRUMENT TYPE>  (971) 
EI-B

>  <INSTRUMENT>  (971) 
HITACHI RMU-6L

>  <ION MODE>  (971) 
P

>  <INCHIKEY>  (971) 
OPFTUNCRGUEPRZ-QLFBSQMISA-N

>  <FORMULA>  (971) 
C15H24

>  <EXACT MASS>  (971) 
204.187800768

>  <MW>  (971) 
204

>  <ID>  (971) 
JP010686

>  <CONTRIBUTOR>  (971) 
University of Tokyo Team, {Faculty of Engineering, University of Tokyo

>  <COMMENT>  (971) 
SMILES=C=CC(C)(C1)C([H])(C(C)=C)CC([H])(C(C)=C)C1
InChI=InChI=1S/C15H24/c1-7-15(6)9-8-13(11(2)3)10-14(15)12(4)5/h7,13-14H,1-2,4,8-10H2,3,5-6H3/t13-,14+,15-/m1/s1
computed SMILES=C=CC1(C)CCC(C(=C)C)CC1C(=C)C
accession=JP010686
date=2016.01.19 (Created 2008.10.21, modified 2011.05.06)
author=EGUCHI S, FAC. OF SCIENCE, HIROSHIMA UNIV.
license=CC BY-NC-SA
exact mass=204.1878
ionization energy=70 eV
ion type=[M]+*
computed spectral entropy=3.454017002720101
computed normalized entropy=0.8506502846484452
SPLASH=splash10-0a5c-9300000000-5b0ee4d8b7869c2f1150
submitter=submitter = University of Tokyo Team (Faculty of Engineering, University of Tokyo)
MoNA Rating=3.75

>  <NUM PEAKS>  (971) 
58

>  <MASS SPECTRAL PEAKS>  (971) 
41 74
42 11
43 25
44 0.2
51 7
52 5
53 56.5
54 0.55
55 71.5
56 4.5
57 7.5
63 0.2
65 15
66 7.5
67 63.5
68 7.8
69 28
70 2.5
77 28
78 0.7
79 51.5
80 17.5
81 99.99
82 1.1
83 4.5
91 33
92 14.5
93 8.3
94 29
95 18.5
96 4
97 0.25
106 13
107 51.5
108 33
109 1.35
110 2.5
119 23.5
120 11.5
121 3.4
122 10.5
123 11
133 21
134 1.25
135 16.5
136 5.5
147 30.5
148 1.5
149 6
161 21
162 7
163 0.5
175 5
176 3
189 17.5
190 0.3
204 6.5
205 2

$$$$

     RDKit          2D

 16 18  0  0  1  0  0  0  0  0999 V2000
    3.5700   -0.1915    0.0000 C   0  0  0  0  0  0  0  0  0  0  0  0
   -0.8206    4.4634    0.0000 C   0  0  0  0  0  0  0  0  0  0  0  0
   -4.1824    2.3978    0.0000 C   0  0  0  0  0  0  0  0  0  0  0  0
   -3.9838    0.3509    0.0000 C   0  0  0  0  0  0  0  0  0  0  0  0
    1.2418   -1.2073    0.0000 C   0  0  0  0  0  0  0  0  0  0  0  0
    1.7898    3.8881    0.0000 C   0  0  0  0  0  0  0  0  0  0  0  0
   -0.2540   -1.3194    0.0000 C   0  0  0  0  0  0  0  0  0  0  0  0
    2.5973    2.6240    0.0000 C   0  0  0  0  0  0  0  0  0  0  0  0
   -1.0507    1.2634    0.0000 C   0  0  0  0  0  0  0  0  0  0  0  0
    2.0867    0.0321    0.0000 C   0  0  0  0  0  0  0  0  0  0  0  0
    0.3380    3.5107    0.0000 C   0  0  0  0  0  0  0  0  0  0  0  0
   -1.2743   -0.2198    0.0000 C   0  0  0  0  0  0  0  0  0  0  0  0
    1.6446    1.4654    0.0000 C   0  0  0  0  0  0  0  0  0  0  0  0
   -2.9961    1.4798    0.0000 C   0  0  0  0  0  0  0  0  0  0  0  0
    0.2483    2.0134    0.0000 C   0  0  0  0  0  0  0  0  0  0  0  0
   -1.9629    2.9953    0.0000 O   0  0  0  0  0  0  0  0  0  0  0  0
  7  5  1  0
  8  6  1  0
 10  1  1  1
 10  5  1  0
 11  2  1  6
 11  6  1  0
 12  7  1  1
 12  9  1  0
 13  8  1  6
 13 10  1  0
 14  3  1  0
 14  4  1  0
 14 12  1  0
 15  9  1  0
 15 11  1  0
 15 13  1  0
 16 14  1  0
 15 16  1  1
M  END
>  <NAME>  (972) 
LIGULOXIDE

>  <SYNONYMS>  (972) 


>  <SPECTRUM TYPE>  (972) 
MS1

>  <INSTRUMENT TYPE>  (972) 
EI-B

>  <INSTRUMENT>  (972) 
HITACHI RMU-6L

>  <ION MODE>  (972) 
P

>  <INCHIKEY>  (972) 
GXMJXGUEPXEOGR-BGPZULBFSA-N

>  <FORMULA>  (972) 
C15H26O

>  <EXACT MASS>  (972) 
222.198365452

>  <MW>  (972) 
222

>  <ID>  (972) 
JP010685

>  <CONTRIBUTOR>  (972) 
University of Tokyo Team, {Faculty of Engineering, University of Tokyo

>  <COMMENT>  (972) 
SMILES=CC(C2)C([H])(C3)C(C(C)C3)(C1)OC(C)(C)C(C2)1
InChI=InChI=1S/C15H26O/c1-10-5-7-12-9-15(16-14(12,3)4)11(2)6-8-13(10)15/h10-13H,5-9H2,1-4H3/t10-,11+,12+,13+,15-/m0/s1
computed SMILES=O1C(C)(C)C2CCC(C)C3CCC(C)C13C2
accession=JP010685
ionization energy=70 eV
ion type=[M]+*
computed spectral entropy=3.681453886711529
date=2016.01.19 (Created 2008.10.21, modified 2011.05.06)
author=EGUCHI S, FAC. OF SCIENCE, HIROSHIMA UNIV.
license=CC BY-NC-SA
exact mass=222.19837
computed normalized entropy=0.8724842194731526
SPLASH=splash10-0a4i-9830000000-c450c7e8908125813282
submitter=submitter = University of Tokyo Team (Faculty of Engineering, University of Tokyo)
MoNA Rating=3.75

>  <NUM PEAKS>  (972) 
68

>  <MASS SPECTRAL PEAKS>  (972) 
41 35
42 9
43 26
53 1.2
54 4
55 39
56 6
57 0.7
59 4
65 4.5
67 21
68 1
69 27
70 5
71 9
77 0.8
79 15
80 7
81 40
82 1.3
83 12
84 4
91 11
92 0.4
93 18
94 11.5
95 32
96 0.8
97 9.5
98 4
105 10
106 0.4
107 23
108 18
109 30
110 1.2
111 7
119 12
120 4
121 1.3
122 12
123 13
124 12
125 1.3
126 12.5
133 9
135 11
136 0.5
137 32
138 6
139 4
147 0.6
149 28
150 6
151 9
161 0.9
163 8
164 20
165 6
173 0.4
179 5
189 37
190 7
204 0.5
207 99.99
208 16
221 3
222 14

$$$$

     RDKit          2D

 16 17  0  0  1  0  0  0  0  0999 V2000
   -0.3225   -3.0000    0.0000 C   0  0  0  0  0  0  0  0  0  0  0  0
    2.8753    2.6360    0.0000 C   0  0  0  0  0  0  0  0  0  0  0  0
   -3.1100    2.2500    0.0000 C   0  0  0  0  0  0  0  0  0  0  0  0
   -4.6100    0.7500    0.0000 C   0  0  0  0  0  0  0  0  0  0  0  0
    0.9800    0.7500    0.0000 C   0  0  0  0  0  0  0  0  0  0  0  0
    0.9800   -0.7500    0.0000 C   0  0  0  0  0  0  0  0  0  0  0  0
   -0.3200    1.5000    0.0000 C   0  0  0  0  0  0  0  0  0  0  0  0
    2.4100   -1.2100    0.0000 C   0  0  0  0  0  0  0  0  0  0  0  0
   -3.1100   -0.7500    0.0000 C   0  0  0  0  0  0  0  0  0  0  0  0
   -0.3200   -1.5000    0.0000 C   0  0  0  0  0  0  0  0  0  0  0  0
    2.4100    1.2100    0.0000 C   0  0  0  0  0  0  0  0  0  0  0  0
   -1.6100   -0.7500    0.0000 C   0  0  0  0  0  0  0  0  0  0  0  0
   -1.6100    0.7500    0.0000 C   0  0  0  0  0  0  0  0  0  0  0  0
    3.2900    0.0000    0.0000 C   0  0  0  0  0  0  0  0  0  0  0  0
   -3.1100    0.7500    0.0000 C   0  0  0  0  0  0  0  0  0  0  0  0
    4.7900   -0.0000    0.0000 O   0  0  0  0  0  0  0  0  0  0  0  0
  7  5  1  0
  8  6  1  0
 10  1  2  0
 10  6  1  0
 11  2  2  0
 11  5  1  0
 12  9  1  1
 12 10  1  0
 13  7  1  1
 13 12  1  0
 14  8  1  0
 14 11  1  0
 15  3  1  0
 15  4  1  0
 15  9  1  0
 15 13  1  0
 14 16  1  1
M  END
>  <NAME>  (973) 
CARYOPHYLLA-3(12),7(13)-DIEN-6-OL

>  <SYNONYMS>  (973) 


>  <SPECTRUM TYPE>  (973) 
MS1

>  <INSTRUMENT TYPE>  (973) 
EI-B

>  <INSTRUMENT>  (973) 
HITACHI RMU-6L

>  <ION MODE>  (973) 
P

>  <INCHIKEY>  (973) 
CIIYOYPOMGIECX-RDBSUJKOSA-N

>  <FORMULA>  (973) 
C15H24O

>  <EXACT MASS>  (973) 
220.182715388

>  <MW>  (973) 
220

>  <ID>  (973) 
JP010684

>  <CONTRIBUTOR>  (973) 
University of Tokyo Team, {Faculty of Engineering, University of Tokyo

>  <COMMENT>  (973) 
SMILES=C=C(C2)C([H])(O)CCC(=C)C([H])(C1)C([H])(C2)C(C)(C)1
InChI=InChI=1S/C15H24O/c1-10-6-8-14(16)11(2)5-7-13-12(10)9-15(13,3)4/h12-14,16H,1-2,5-9H2,3-4H3/t12-,13+,14+/m1/s1
computed SMILES=OC1C(=C)CCC2C(C(=C)CC1)CC2(C)C
accession=JP010684
date=2016.01.19 (Created 2008.10.21, modified 2011.05.06)
author=EGUCHI S, FAC. OF SCIENCE, HIROSHIMA UNIV.
license=CC BY-NC-SA
exact mass=220.18272
ionization energy=70 eV
ion type=[M]+*
computed spectral entropy=3.8749524828156785
computed normalized entropy=0.8632805519612445
SPLASH=splash10-00ko-9600000000-2670d9c064fa7b2dd6b0
submitter=submitter = University of Tokyo Team (Faculty of Engineering, University of Tokyo)
MoNA Rating=3.75

>  <NUM PEAKS>  (973) 
89

>  <MASS SPECTRAL PEAKS>  (973) 
41 73
42 13
43 27
44 0.3
45 5
50 3
51 11
52 0.8
53 40
54 8
55 46
56 1.05
57 8
58 10
59 4
63 0.45
65 19.5
66 9
67 44.5
68 1
69 63
70 9
71 11
77 3.5
78 13
79 58
80 14
81 3.75
82 19
83 11.5
84 4
85 0.4
91 53
92 17
93 43.5
94 1.45
95 28
96 10
97 6
103 0.4
104 6.5
105 34
106 12
107 3
108 12
109 27
110 8
111 0.45
115 4
116 4
117 21.5
118 3.1
119 26
120 15
121 19.5
122 1
123 13
124 5.5
125 3.5
131 2.25
132 8
133 20.5
134 10.5
135 1.95
136 99.99
137 17.5
138 4.5
145 1
146 13
147 12
148 4
149 1
150 5
151 5
159 15
160 0.5
161 8
162 4
163 6
164 1
165 5
174 4
175 4
176 0.3
177 6
187 8
202 6
203 0.5
220 3

$$$$

     RDKit          2D

 15 16  0  0  1  0  0  0  0  0999 V2000
   -0.3702    3.9989    0.0000 C   0  0  0  0  0  0  0  0  0  0  0  0
    0.7585   -1.3488    0.0000 C   0  0  0  0  0  0  0  0  0  0  0  0
   -4.6790    0.6491    0.0000 C   0  0  0  0  0  0  0  0  0  0  0  0
   -5.2283   -1.3998    0.0000 C   0  0  0  0  0  0  0  0  0  0  0  0
    2.6300    1.4000    0.0000 C   0  0  0  0  0  0  0  0  0  0  0  0
    1.8800    2.7000    0.0000 C   0  0  0  0  0  0  0  0  0  0  0  0
    1.8800    0.1000    0.0000 C   0  0  0  0  0  0  0  0  0  0  0  0
   -0.3700    1.4000    0.0000 C   0  0  0  0  0  0  0  0  0  0  0  0
   -1.8800    1.4000    0.0000 C   0  0  0  0  0  0  0  0  0  0  0  0
   -3.1796   -1.9492    0.0000 C   0  0  0  0  0  0  0  0  0  0  0  0
    0.3800    2.7000    0.0000 C   0  0  0  0  0  0  0  0  0  0  0  0
    0.3700    0.1000    0.0000 C   0  0  0  0  0  0  0  0  0  0  0  0
   -1.8800   -1.2000    0.0000 C   0  0  0  0  0  0  0  0  0  0  0  0
   -2.6300    0.1000    0.0000 C   0  0  0  0  0  0  0  0  0  0  0  0
   -3.9291   -0.6500    0.0000 C   0  0  0  0  0  0  0  0  0  0  0  0
  6  5  1  0
  7  5  1  0
  9  8  1  0
 11  1  1  0
  6 11  2  0
 11  8  1  0
 12  2  2  0
 12  7  1  0
 13 10  1  1
 13 12  1  0
 14  9  1  6
 14 13  1  0
 15  3  1  0
 15  4  1  0
 15 10  1  0
 15 14  1  0
M  END
>  <NAME>  (974) 
BETA-CARYOPHYLLENE

>  <SYNONYMS>  (974) 


>  <SPECTRUM TYPE>  (974) 
MS1

>  <INSTRUMENT TYPE>  (974) 
EI-B

>  <INSTRUMENT>  (974) 
HITACHI RMU-6L

>  <ION MODE>  (974) 
P

>  <INCHIKEY>  (974) 
NPNUFJAVOOONJE-FLFDDASRSA-N

>  <FORMULA>  (974) 
C15H24

>  <EXACT MASS>  (974) 
204.187800768

>  <MW>  (974) 
204

>  <ID>  (974) 
JP010683

>  <CONTRIBUTOR>  (974) 
University of Tokyo Team, {Faculty of Engineering, University of Tokyo

>  <COMMENT>  (974) 
SMILES=[H]C(C2)=C(C)CCC([H])(C(C)(C)1)C([H])(C(=C)C2)C1
InChI=InChI=1S/C15H24/c1-11-6-5-7-12(2)13-10-15(3,4)14(13)9-8-11/h6,13-14H,2,5,7-10H2,1,3-4H3/b11-6-/t13-,14-/m1/s1
computed SMILES=C=C1CCC=C(C)CCC2C1CC2(C)C
accession=JP010683
date=2016.01.19 (Created 2008.10.21, modified 2011.05.06)
author=EGUCHI S, FAC. OF SCIENCE, HIROSHIMA UNIV.
license=CC BY-NC-SA
exact mass=204.1878
ionization energy=70 eV
ion type=[M]+*
computed spectral entropy=3.735222018548675
computed normalized entropy=0.8678358569544731
SPLASH=splash10-0006-9400000000-cc1cb468f4f5a1307735
submitter=submitter = University of Tokyo Team (Faculty of Engineering, University of Tokyo)
MoNA Rating=3.75

>  <NUM PEAKS>  (974) 
74

>  <MASS SPECTRAL PEAKS>  (974) 
41 99.99
42 10
43 30
44 0.8
45 4.5
50 4
51 11.5
52 0.9
53 34
54 7.5
55 48
56 0.95
57 11
63 6
65 16
66 0.8
67 35
68 18.5
69 63
70 0.75
77 32.5
78 13
79 49
80 1.7
81 41
82 16
83 9
91 4.4
92 20.5
93 69.5
94 52
95 2.45
96 8
97 5.5
103 5
104 0.5
105 35.5
106 22
107 34
108 1.4
109 19
110 8
111 6
115 0.5
117 8
118 5
119 24
120 2.9
121 24
122 11
123 12.5
131 0.7
132 5
133 40
134 14
135 1.3
136 9
137 6
138 6
147 1.7
148 16.5
149 9
150 4
161 2.7
162 9
163 6
164 4
175 0.7
176 6
177 5
189 11
190 0.3
204 14
205 5

$$$$

     RDKit          2D

 16 17  0  0  1  0  0  0  0  0999 V2000
    2.5990   -3.7500    0.0000 C   0  0  0  0  0  0  0  0  0  0  0  0
    0.0010   -3.7500    0.0000 C   0  0  0  0  0  0  0  0  0  0  0  0
   -3.8989   -1.5002    0.0000 C   0  0  0  0  0  0  0  0  0  0  0  0
    2.2641    2.6492    0.0000 C   0  0  0  0  0  0  0  0  0  0  0  0
   -2.6000    0.7500    0.0000 C   0  0  0  0  0  0  0  0  0  0  0  0
   -1.3000    1.5000    0.0000 C   0  0  0  0  0  0  0  0  0  0  0  0
    2.6000   -0.7500    0.0000 C   0  0  0  0  0  0  0  0  0  0  0  0
    2.6000    0.7500    0.0000 C   0  0  0  0  0  0  0  0  0  0  0  0
   -1.3000   -1.5000    0.0000 C   0  0  0  0  0  0  0  0  0  0  0  0
    1.3000   -3.0000    0.0000 C   0  0  0  0  0  0  0  0  0  0  0  0
   -2.6000   -0.7500    0.0000 C   0  0  0  0  0  0  0  0  0  0  0  0
    1.3000   -1.5000    0.0000 C   0  0  0  0  0  0  0  0  0  0  0  0
    0.0000   -0.7500    0.0000 C   0  0  0  0  0  0  0  0  0  0  0  0
    0.0000    0.7500    0.0000 C   0  0  0  0  0  0  0  0  0  0  0  0
    1.3000    1.5000    0.0000 C   0  0  0  0  0  0  0  0  0  0  0  0
    0.3359    2.6492    0.0000 O   0  0  0  0  0  0  0  0  0  0  0  0
  6  5  1  0
  8  7  1  0
 10  1  1  0
 10  2  1  0
 11  3  1  0
 11  5  1  0
 11  9  2  0
 12  7  1  0
 12 10  1  1
 13  9  1  6
 13 12  1  0
 14  6  1  6
 14 13  1  0
 15  4  1  6
 15  8  1  0
 15 14  1  0
 15 16  1  0
M  END
>  <NAME>  (975) 
T-MUUROLOL

>  <SYNONYMS>  (975) 


>  <SPECTRUM TYPE>  (975) 
MS1

>  <INSTRUMENT TYPE>  (975) 
EI-B

>  <INSTRUMENT>  (975) 
HITACHI RMU-6L

>  <ION MODE>  (975) 
P

>  <INCHIKEY>  (975) 
LHYHMMRYTDARSZ-AJNGGQMLSA-N

>  <FORMULA>  (975) 
C15H26O

>  <EXACT MASS>  (975) 
222.198365452

>  <MW>  (975) 
222

>  <ID>  (975) 
JP010682

>  <CONTRIBUTOR>  (975) 
University of Tokyo Team, {Faculty of Engineering, University of Tokyo

>  <COMMENT>  (975) 
SMILES=CC(C2)=CC([H])(C([H])(C(C)C)1)C([H])(C2)C(C)(O)CC1
InChI=InChI=1S/C15H26O/c1-10(2)12-7-8-15(4,16)14-6-5-11(3)9-13(12)14/h9-10,12-14,16H,5-8H2,1-4H3/t12-,13-,14-,15-/m0/s1
computed SMILES=OC1(C)CCC(C(C)C)C2C=C(C)CCC21
accession=JP010682
date=2016.01.19 (Created 2008.10.21, modified 2011.05.06)
author=EGUCHI S, FAC. OF SCIENCE, HIROSHIMA UNIV.
license=CC BY-NC-SA
exact mass=222.19837
ionization energy=70 eV
ion type=[M]+*
computed spectral entropy=3.631985614504204
computed normalized entropy=0.8637933716615613
SPLASH=splash10-0nmm-9720000000-d61b008e19718e3ffe74
submitter=submitter = University of Tokyo Team (Faculty of Engineering, University of Tokyo)
MoNA Rating=3.75

>  <NUM PEAKS>  (975) 
67

>  <MASS SPECTRAL PEAKS>  (975) 
41 30
42 3
43 80
44 0.3
53 20
54 1.5
55 23
56 0.3
57 6.5
58 21
59 5
65 0.5
67 15
68 4
69 28
70 0.5
71 38
77 16
78 4
79 3.1
80 11
82 35
83 12
91 2.1
92 13
93 29
94 37
95 99.99
96 16
97 5
105 37
106 0.8
107 14
108 19
109 37
110 0.7
111 4
119 25
120 8
121 7.7
122 15
123 12
127 12
133 0.9
134 10
135 11
136 5
137 1.3
138 5
145 5
147 8
148 0.8
149 11
150 6
151 11
152 1.3
161 72
162 14
164 52
165 0.9
179 14
189 14
204 82
205 1.8
207 8
222 31.5
223 7

$$$$

     RDKit          2D

 17 18  0  0  1  0  0  0  0  0999 V2000
    2.6202   -1.1987    0.0000 C   0  0  0  0  0  0  0  0  0  0  0  0
    0.3704   -2.4981    0.0000 C   0  0  0  0  0  0  0  0  0  0  0  0
    2.6302    3.9989    0.0000 C   0  0  0  0  0  0  0  0  0  0  0  0
   -3.9291    0.8498    0.0000 C   0  0  0  0  0  0  0  0  0  0  0  0
   -0.3700    1.4000    0.0000 C   0  0  0  0  0  0  0  0  0  0  0  0
    0.3800    2.7000    0.0000 C   0  0  0  0  0  0  0  0  0  0  0  0
   -1.8800    1.4000    0.0000 C   0  0  0  0  0  0  0  0  0  0  0  0
    2.6300    1.4000    0.0000 C   0  0  0  0  0  0  0  0  0  0  0  0
   -0.3800   -1.2000    0.0000 C   0  0  0  0  0  0  0  0  0  0  0  0
    1.1202   -1.1989    0.0000 C   0  0  0  0  0  0  0  0  0  0  0  0
    1.8800    2.7000    0.0000 C   0  0  0  0  0  0  0  0  0  0  0  0
    0.3700    0.1000    0.0000 C   0  0  0  0  0  0  0  0  0  0  0  0
    1.8800    0.1000    0.0000 C   0  0  0  0  0  0  0  0  0  0  0  0
   -1.8800   -1.2000    0.0000 C   0  0  0  0  0  0  0  0  0  0  0  0
   -2.6300    0.1000    0.0000 C   0  0  0  0  0  0  0  0  0  0  0  0
    1.1298    1.3989    0.0000 O   0  0  0  0  0  0  0  0  0  0  0  0
   -3.3802   -1.1992    0.0000 O   0  0  0  0  0  0  0  0  0  0  0  0
  6  5  1  0
  7  5  1  0
 10  1  1  0
 10  2  1  0
 11  3  1  0
  6 11  2  0
 11  8  1  0
 12  9  1  0
 12 10  2  0
 13  8  1  0
 13 12  1  0
 14  9  1  1
 15  4  1  1
 15  7  1  0
 15 14  1  0
 16 13  2  0
 14 17  1  0
 17 15  1  0
M  END
>  <NAME>  (976) 
4,5-EPOXYGERMACRONE

>  <SYNONYMS>  (976) 


>  <SPECTRUM TYPE>  (976) 
MS1

>  <INSTRUMENT TYPE>  (976) 
EI-B

>  <INSTRUMENT>  (976) 
HITACHI RMU-6L

>  <ION MODE>  (976) 
P

>  <INCHIKEY>  (976) 
DWGVRYKQVZGSIB-JDBPXVJJSA-N

>  <FORMULA>  (976) 
C15H22O2

>  <EXACT MASS>  (976) 
234.161979944

>  <MW>  (976) 
234

>  <ID>  (976) 
JP010681

>  <CONTRIBUTOR>  (976) 
University of Tokyo Team, {Faculty of Engineering, University of Tokyo

>  <COMMENT>  (976) 
SMILES=CC(=C2)CC(=O)C(=C(C)C)CC([H])(O1)C(C)(CC2)1
InChI=InChI=1S/C15H22O2/c1-10(2)12-9-14-15(4,17-14)7-5-6-11(3)8-13(12)16/h6,14H,5,7-9H2,1-4H3/b11-6-/t14-,15-/m1/s1
computed SMILES=O=C1C(=C(C)C)CC2OC2(C)CCC=C(C)C1
accession=JP010681
date=2016.01.19 (Created 2008.10.21, modified 2011.05.06)
author=EGUCHI S, FAC. OF SCIENCE, HIROSHIMA UNIV.
license=CC BY-NC-SA
exact mass=234.16198
ionization energy=70 eV
ion type=[M]+*
computed spectral entropy=3.6365178198024974
computed normalized entropy=0.8163974602656431
SPLASH=splash10-014l-9400000000-62c77a0b99ae96a6f09f
submitter=submitter = University of Tokyo Team (Faculty of Engineering, University of Tokyo)
MoNA Rating=3.75

>  <NUM PEAKS>  (976) 
86

>  <MASS SPECTRAL PEAKS>  (976) 
41 67.5
42 9
43 48
44 0.6
45 3.5
50 3.5
51 8
52 0.5
53 28
54 5
55 16
56 0.35
57 4
58 2
59 3
63 0.4
65 8
66 6.5
67 44
68 99.99
69 22.5
70 4.5
71 5
77 0.95
78 3.5
79 3
80 5.5
81 1.35
82 7
83 4.5
84 3.5
85 0.3
91 10
92 4
93 9.5
94 0.25
95 8.5
96 12.5
97 10
98 0.3
103 3
105 8.5
106 3.5
107 1.4
108 5
109 9.5
110 3
111 0.35
115 3
117 3
119 5
120 0.3
121 25
122 6
123 9
124 0.45
125 8
131 3
133 5.5
134 0.35
135 4
136 3.5
137 4.5
138 0.3
139 8
145 3
147 3.5
148 0.3
149 6.5
150 3
151 8
152 0.5
153 8
161 4
163 4
164 0.6
165 6.5
166 3.5
167 38.5
168 0.6
176 4
178 5
191 3
216 0.3
219 3
234 3.5

$$$$

     RDKit          2D

 16 16  0  0  0  0  0  0  0  0999 V2000
    4.1302   -1.1987    0.0000 C   0  0  0  0  0  0  0  0  0  0  0  0
    1.8804   -2.4981    0.0000 C   0  0  0  0  0  0  0  0  0  0  0  0
   -0.3702    3.9989    0.0000 C   0  0  0  0  0  0  0  0  0  0  0  0
   -2.6302   -2.4989    0.0000 C   0  0  0  0  0  0  0  0  0  0  0  0
   -1.8800    1.4000    0.0000 C   0  0  0  0  0  0  0  0  0  0  0  0
   -0.3700    1.4000    0.0000 C   0  0  0  0  0  0  0  0  0  0  0  0
   -2.6300    0.1000    0.0000 C   0  0  0  0  0  0  0  0  0  0  0  0
    1.8800    2.7000    0.0000 C   0  0  0  0  0  0  0  0  0  0  0  0
    2.6300    1.4000    0.0000 C   0  0  0  0  0  0  0  0  0  0  0  0
   -0.3800   -1.2000    0.0000 C   0  0  0  0  0  0  0  0  0  0  0  0
    2.6302   -1.1989    0.0000 C   0  0  0  0  0  0  0  0  0  0  0  0
    0.3800    2.7000    0.0000 C   0  0  0  0  0  0  0  0  0  0  0  0
   -1.8800   -1.2000    0.0000 C   0  0  0  0  0  0  0  0  0  0  0  0
    1.8800    0.1000    0.0000 C   0  0  0  0  0  0  0  0  0  0  0  0
    0.3700    0.1000    0.0000 C   0  0  0  0  0  0  0  0  0  0  0  0
    1.1202   -1.1989    0.0000 O   0  0  0  0  0  0  0  0  0  0  0  0
  6  5  1  0
  7  5  1  0
  9  8  1  0
 11  1  1  0
 11  2  1  0
 12  3  1  0
 12  6  1  0
  8 12  2  0
 13  4  1  0
  7 13  2  0
 13 10  1  0
 14  9  1  0
 14 11  2  0
 15 10  1  0
 15 14  1  0
 16 15  2  0
M  END
>  <NAME>  (977) 
GERMACRONE

>  <SYNONYMS>  (977) 


>  <SPECTRUM TYPE>  (977) 
MS1

>  <INSTRUMENT TYPE>  (977) 
EI-B

>  <INSTRUMENT>  (977) 
HITACHI RMU-6L

>  <ION MODE>  (977) 
P

>  <INCHIKEY>  (977) 
CAULGCQHVOVVRN-SVGXSMIJSA-N

>  <FORMULA>  (977) 
C15H22O

>  <EXACT MASS>  (977) 
218.167065324

>  <MW>  (977) 
218

>  <ID>  (977) 
JP010680

>  <CONTRIBUTOR>  (977) 
University of Tokyo Team, {Faculty of Engineering, University of Tokyo

>  <COMMENT>  (977) 
SMILES=CC(C1)=CCC(=C(C)C)C(=O)CC(C)=CC1
InChI=InChI=1S/C15H22O/c1-11(2)14-9-8-12(3)6-5-7-13(4)10-15(14)16/h7-8H,5-6,9-10H2,1-4H3/b12-8-,13-7-
computed SMILES=O=C1C(=C(C)C)CC=C(C)CCC=C(C)C1
accession=JP010680
date=2016.01.19 (Created 2008.10.21, modified 2011.05.06)
author=EGUCHI S, FAC. OF SCIENCE, HIROSHIMA UNIV.
license=CC BY-NC-SA
exact mass=218.16707
ionization energy=70 eV
ion type=[M]+*
computed spectral entropy=3.9346611146795976
computed normalized entropy=0.8544008051323235
SPLASH=splash10-00kf-9400000000-448d355b877379056c92
submitter=submitter = University of Tokyo Team (Faculty of Engineering, University of Tokyo)
MoNA Rating=3.75

>  <NUM PEAKS>  (977) 
100

>  <MASS SPECTRAL PEAKS>  (977) 
41 99.99
42 11
43 36.5
44 0.25
45 3
51 16
52 9.5
53 5
54 10
55 32
56 7.5
57 1.6
63 6
64 3
65 24
66 0.9
67 57
68 23.5
69 21
70 0.5
71 8
76 4.5
77 31
78 0.9
79 31
80 8
81 18
82 1.4
83 8
84 3
85 4.5
91 4.1
92 8.5
93 29
94 6
95 1.5
96 8
97 6
98 2.5
99 0.3
103 6
104 5
105 23
107 7.1
108 16
109 12
110 4.5
111 0.4
115 6
116 2.5
117 8
118 0.2
119 15
120 5
121 23
122 1.4
123 8
124 2
125 4
127 0.2
128 4.5
129 3
130 2
131 0.6
132 5
133 9.5
134 4
135 3.9
136 18
137 6
143 3.5
144 0.2
145 5
146 3
147 9
148 0.55
149 15
150 10
151 4
157 0.35
158 2
159 3
160 2
161 0.65
162 4
163 2
175 8
176 0.4
177 2
185 3
187 2
189 0.2
190 3
191 2
200 3
201 0.15
203 6.5
204 1.5
218 11
219 3.5

$$$$

     RDKit          2D

 15 15  0  0  1  0  0  0  0  0999 V2000
    4.8800    2.6990    0.0000 C   0  0  0  0  0  0  0  0  0  0  0  0
    4.8800    0.1010    0.0000 C   0  0  0  0  0  0  0  0  0  0  0  0
   -1.1202    2.6989    0.0000 C   0  0  0  0  0  0  0  0  0  0  0  0
    0.3702   -2.4989    0.0000 C   0  0  0  0  0  0  0  0  0  0  0  0
   -2.6300    0.1000    0.0000 C   0  0  0  0  0  0  0  0  0  0  0  0
   -1.8800    1.4000    0.0000 C   0  0  0  0  0  0  0  0  0  0  0  0
   -1.8800   -1.2000    0.0000 C   0  0  0  0  0  0  0  0  0  0  0  0
    0.3800    2.7000    0.0000 C   0  0  0  0  0  0  0  0  0  0  0  0
    0.3700    0.1000    0.0000 C   0  0  0  0  0  0  0  0  0  0  0  0
    1.8800    2.7000    0.0000 C   0  0  0  0  0  0  0  0  0  0  0  0
    1.8800    0.1000    0.0000 C   0  0  0  0  0  0  0  0  0  0  0  0
    4.1300    1.4000    0.0000 C   0  0  0  0  0  0  0  0  0  0  0  0
   -0.3700    1.4000    0.0000 C   0  0  0  0  0  0  0  0  0  0  0  0
   -0.3800   -1.2000    0.0000 C   0  0  0  0  0  0  0  0  0  0  0  0
    2.6300    1.4000    0.0000 C   0  0  0  0  0  0  0  0  0  0  0  0
  6  5  1  0
  7  5  1  0
  8 10  2  0
 11  9  1  0
 12  1  1  0
 12  2  1  0
 13  3  2  0
 13  6  1  0
 13  8  1  0
 14  4  1  0
  7 14  2  0
 14  9  1  0
 15 10  1  0
 15 11  1  0
 15 12  1  6
M  END
>  <NAME>  (978) 
GERMACRENE-D

>  <SYNONYMS>  (978) 


>  <SPECTRUM TYPE>  (978) 
MS1

>  <INSTRUMENT TYPE>  (978) 
EI-B

>  <INSTRUMENT>  (978) 
HITACHI RMU-6L

>  <ION MODE>  (978) 
P

>  <INCHIKEY>  (978) 
GAIBLDCXCZKKJE-ACWLMNNXSA-N

>  <FORMULA>  (978) 
C15H24

>  <EXACT MASS>  (978) 
204.187800768

>  <MW>  (978) 
204

>  <ID>  (978) 
JP010679

>  <CONTRIBUTOR>  (978) 
University of Tokyo Team, {Faculty of Engineering, University of Tokyo

>  <COMMENT>  (978) 
SMILES=CC(=C1)CCC(C=CC(=C)CC1)C(C)C
InChI=InChI=1S/C15H24/c1-12(2)15-10-8-13(3)6-5-7-14(4)9-11-15/h7-8,10,12,15H,3,5-6,9,11H2,1-2,4H3/b10-8-,14-7-/t15-/m0/s1
computed SMILES=C=C1C=CC(CCC(=CCC1)C)C(C)C
accession=JP010679
date=2016.01.19 (Created 2008.10.21, modified 2011.05.06)
author=EGUCHI S, FAC. OF SCIENCE, HIROSHIMA UNIV.
license=CC BY-NC-SA
exact mass=204.1878
ionization energy=70 eV
ion type=[M]+*
computed spectral entropy=3.647201007391525
computed normalized entropy=0.8737093066793269
SPLASH=splash10-01po-7900000000-43e575b47c041c6e0df9
submitter=submitter = University of Tokyo Team (Faculty of Engineering, University of Tokyo)
MoNA Rating=3.75

>  <NUM PEAKS>  (978) 
65

>  <MASS SPECTRAL PEAKS>  (978) 
41 39
42 4
43 20
51 0.4
53 11.5
55 21.5
56 4.5
57 2.8
65 8
67 12.5
69 15.5
70 0.5
71 11.5
77 25
78 8
79 3.45
80 9
81 37
82 5
83 0.7
85 9.5
91 55
92 18
93 5.55
94 18
95 17
96 5
97 0.5
99 4
103 5
104 4
105 9.6
106 18
107 25
108 8
109 0.9
115 9
116 4
117 10.5
118 0.4
119 46
120 19
121 20
122 0.7
123 10
128 6
129 6
131 0.7
133 25.5
134 11.5
135 10
136 0.8
141 4
145 7
147 12.5
148 0.9
149 5
157 6
159 8
160 0.5
161 99.99
162 15.5
189 11
204 3.7
205 7

$$$$

     RDKit          2D

 15 15  0  0  0  0  0  0  0  0999 V2000
    4.1302   -1.1987    0.0000 C   0  0  0  0  0  0  0  0  0  0  0  0
    1.8804   -2.4981    0.0000 C   0  0  0  0  0  0  0  0  0  0  0  0
   -0.3702    3.9989    0.0000 C   0  0  0  0  0  0  0  0  0  0  0  0
   -2.6302   -2.4989    0.0000 C   0  0  0  0  0  0  0  0  0  0  0  0
   -1.8800    1.4000    0.0000 C   0  0  0  0  0  0  0  0  0  0  0  0
   -0.3700    1.4000    0.0000 C   0  0  0  0  0  0  0  0  0  0  0  0
   -2.6300    0.1000    0.0000 C   0  0  0  0  0  0  0  0  0  0  0  0
    1.8800    2.7000    0.0000 C   0  0  0  0  0  0  0  0  0  0  0  0
   -0.3800   -1.2000    0.0000 C   0  0  0  0  0  0  0  0  0  0  0  0
    2.6300    1.4000    0.0000 C   0  0  0  0  0  0  0  0  0  0  0  0
    0.3700    0.1000    0.0000 C   0  0  0  0  0  0  0  0  0  0  0  0
    2.6302   -1.1989    0.0000 C   0  0  0  0  0  0  0  0  0  0  0  0
    0.3800    2.7000    0.0000 C   0  0  0  0  0  0  0  0  0  0  0  0
   -1.8800   -1.2000    0.0000 C   0  0  0  0  0  0  0  0  0  0  0  0
    1.8800    0.1000    0.0000 C   0  0  0  0  0  0  0  0  0  0  0  0
  6  5  1  0
  7  5  1  0
 10  8  1  0
 11  9  1  0
 12  1  1  0
 12  2  1  0
 13  3  1  0
  6 13  2  0
 13  8  1  0
 14  4  1  0
 14  7  1  0
  9 14  2  0
 15 10  1  0
 15 11  1  0
 15 12  2  0
M  END
>  <NAME>  (979) 
GERMACRENE-B

>  <SYNONYMS>  (979) 


>  <SPECTRUM TYPE>  (979) 
MS1

>  <INSTRUMENT TYPE>  (979) 
EI-B

>  <INSTRUMENT>  (979) 
HITACHI RMU-6L

>  <ION MODE>  (979) 
P

>  <INCHIKEY>  (979) 
GXEGJTGWYVZSNR-JEKCHIPQSA-N

>  <FORMULA>  (979) 
C15H24

>  <EXACT MASS>  (979) 
204.187800768

>  <MW>  (979) 
204

>  <ID>  (979) 
JP010678

>  <CONTRIBUTOR>  (979) 
University of Tokyo Team, {Faculty of Engineering, University of Tokyo

>  <COMMENT>  (979) 
SMILES=CC(=C1)CCC(CC=C(C)CC1)=C(C)C
InChI=InChI=1S/C15H24/c1-12(2)15-10-8-13(3)6-5-7-14(4)9-11-15/h6,9H,5,7-8,10-11H2,1-4H3/b13-6+,14-9-
computed SMILES=C1=C(C)CCC=C(C)CCC(=C(C)C)C1
accession=JP010678
date=2016.01.19 (Created 2008.10.21, modified 2011.05.06)
author=EGUCHI S, FAC. OF SCIENCE, HIROSHIMA UNIV.
license=CC BY-NC-SA
exact mass=204.1878
ionization energy=70 eV
ion type=[M]+*
computed spectral entropy=3.5393507914248383
computed normalized entropy=0.8716661660394892
SPLASH=splash10-0006-9500000000-e387782d579e0e7098eb
submitter=submitter = University of Tokyo Team (Faculty of Engineering, University of Tokyo)
MoNA Rating=3.75

>  <NUM PEAKS>  (979) 
58

>  <MASS SPECTRAL PEAKS>  (979) 
41 99.99
42 17.3
43 28.2
51 1.64
52 13.2
53 71.4
54 7.7
55 4.73
56 8.6
57 9.6
63 9.1
65 2.82
66 12.7
67 68.3
68 24.6
69 1.96
77 51
78 14.6
79 54.6
80 1.73
81 43.7
82 9.6
83 10
85 0.77
91 61
92 16.4
93 82.8
94 1.55
95 15.9
103 10
105 57.3
106 1.73
107 46.9
108 20.9
109 13.7
115 1.09
117 11.8
119 35.5
120 95.6
121 6.96
122 28.7
123 10
128 7.3
129 0.73
131 8.6
133 28.7
134 11.8
135 1.09
136 9.6
140 8.6
147 20.9
148 1.23
149 9.1
161 30
162 10
189 1.64
204 27.3
205 7.7

$$$$

     RDKit          2D

 16 17  0  0  1  0  0  0  0  0999 V2000
    3.8987   -3.0002    0.0000 C   0  0  0  0  0  0  0  0  0  0  0  0
    5.1981   -0.7504    0.0000 C   0  0  0  0  0  0  0  0  0  0  0  0
    0.0000    2.2500    0.0000 C   0  0  0  0  0  0  0  0  0  0  0  0
   -2.2641   -2.6492    0.0000 C   0  0  0  0  0  0  0  0  0  0  0  0
   -2.6000    0.7500    0.0000 C   0  0  0  0  0  0  0  0  0  0  0  0
    2.6000    0.7500    0.0000 C   0  0  0  0  0  0  0  0  0  0  0  0
   -1.3000    1.5000    0.0000 C   0  0  0  0  0  0  0  0  0  0  0  0
   -2.6000   -0.7500    0.0000 C   0  0  0  0  0  0  0  0  0  0  0  0
    1.3000    1.5000    0.0000 C   0  0  0  0  0  0  0  0  0  0  0  0
    1.3000   -1.5000    0.0000 C   0  0  0  0  0  0  0  0  0  0  0  0
    3.8989   -1.5002    0.0000 C   0  0  0  0  0  0  0  0  0  0  0  0
    2.6000   -0.7500    0.0000 C   0  0  0  0  0  0  0  0  0  0  0  0
    0.0000   -0.7500    0.0000 C   0  0  0  0  0  0  0  0  0  0  0  0
    0.0000    0.7500    0.0000 C   0  0  0  0  0  0  0  0  0  0  0  0
   -1.3000   -1.5000    0.0000 C   0  0  0  0  0  0  0  0  0  0  0  0
   -0.3359   -2.6492    0.0000 O   0  0  0  0  0  0  0  0  0  0  0  0
  7  5  1  0
  8  5  1  0
  9  6  1  0
 11  1  2  0
 11  2  1  0
 12  6  1  0
 12 10  1  0
 12 11  1  1
 13 10  1  1
 14  3  1  1
 14  7  1  0
 14  9  1  0
 14 13  1  0
 15  4  1  1
 15  8  1  0
 15 13  1  0
 15 16  1  0
M  END
>  <NAME>  (980) 
SELIN-11-EN-4ALPHA-OL

>  <SYNONYMS>  (980) 


>  <SPECTRUM TYPE>  (980) 
MS1

>  <INSTRUMENT TYPE>  (980) 
EI-B

>  <INSTRUMENT>  (980) 
HITACHI RMU-6L

>  <ION MODE>  (980) 
P

>  <INCHIKEY>  (980) 
DPQYOKVMVCQHMY-KBUPBQIOSA-N

>  <FORMULA>  (980) 
C15H26O

>  <EXACT MASS>  (980) 
222.198365452

>  <MW>  (980) 
222

>  <ID>  (980) 
JP010677

>  <CONTRIBUTOR>  (980) 
University of Tokyo Team, {Faculty of Engineering, University of Tokyo

>  <COMMENT>  (980) 
SMILES=CC(=C)C([H])(C1)CC([H])(C(C)(O)2)C(C)(CCC2)C1
InChI=InChI=1S/C15H26O/c1-11(2)12-6-9-14(3)7-5-8-15(4,16)13(14)10-12/h12-13,16H,1,5-10H2,2-4H3/t12-,13-,14-,15-/m1/s1
computed SMILES=OC1(C)CCCC2(C)CCC(C(=C)C)CC12
computed normalized entropy=0.8711974677264127
accession=JP010677
date=2016.01.19 (Created 2008.10.21, modified 2011.05.06)
author=EGUCHI S, FAC. OF SCIENCE, HIROSHIMA UNIV.
license=CC BY-NC-SA
exact mass=222.19837
ionization energy=70 eV
ion type=[M]+*
computed spectral entropy=3.9764485862284102
SPLASH=splash10-0l7r-9720000000-b3242e1d8c98c39523ab
submitter=submitter = University of Tokyo Team (Faculty of Engineering, University of Tokyo)
MoNA Rating=3.75

>  <NUM PEAKS>  (980) 
96

>  <MASS SPECTRAL PEAKS>  (980) 
41 20
42 8
43 36
44 0.6
45 8
51 6
52 4
53 3.7
54 7
55 13
56 6
57 0.9
58 18
59 35
65 15
66 0.7
67 61
68 28
69 41
70 0.6
71 83
72 6
77 26
78 0.8
79 16
80 13
81 99.99
82 2.9
83 17
84 7
85 17
86 0.25
91 35
92 10
93 20
94 2.1
95 23
96 29
97 13
98 0.45
99 3
103 4
104 3
105 3.2
106 11
107 42
108 26
109 2.1
110 10
111 8
113 5
115 0.3
117 5
118 7
119 18
120 0.8
121 38
122 25
123 36
124 0.6
125 10
126 4
131 5
133 2.44
134 20
135 78
136 20
137 4.5
138 7
139 3
142 21.5
145 4
146 0.3
148 16
149 24
150 0.5
151 5
152 3
161 41
162 1.9
163 6
164 23
165 6
175 0.95
176 4
179 13
180 3
189 4
190 7
204 82.5
205 37
206 0.6
207 12
208 3
222 29.9
223 7

$$$$

     RDKit          2D

 15 14  0  0  0  0  0  0  0  0999 V2000
    3.5724    6.5625    0.0000 C   0  0  0  0  0  0  0  0  0  0  0  0
  -10.7171    7.3125    0.0000 C   0  0  0  0  0  0  0  0  0  0  0  0
   -9.4180    5.0625    0.0000 C   0  0  0  0  0  0  0  0  0  0  0  0
    0.9743    5.0625    0.0000 C   0  0  0  0  0  0  0  0  0  0  0  0
   -4.2219    5.0625    0.0000 C   0  0  0  0  0  0  0  0  0  0  0  0
    2.2733    7.3125    0.0000 C   0  0  0  0  0  0  0  0  0  0  0  0
   -6.8200    6.5625    0.0000 C   0  0  0  0  0  0  0  0  0  0  0  0
   -1.6238    6.5625    0.0000 C   0  0  0  0  0  0  0  0  0  0  0  0
   -8.1190    7.3125    0.0000 C   0  0  0  0  0  0  0  0  0  0  0  0
   -0.3248    7.3125    0.0000 C   0  0  0  0  0  0  0  0  0  0  0  0
   -5.5209    7.3125    0.0000 C   0  0  0  0  0  0  0  0  0  0  0  0
   -2.9228    7.3125    0.0000 C   0  0  0  0  0  0  0  0  0  0  0  0
   -9.4180    6.5625    0.0000 C   0  0  0  0  0  0  0  0  0  0  0  0
    0.9743    6.5625    0.0000 C   0  0  0  0  0  0  0  0  0  0  0  0
   -4.2219    6.5625    0.0000 C   0  0  0  0  0  0  0  0  0  0  0  0
  6  1  2  0
  9  7  1  0
 10  8  1  0
 11  7  1  0
 12  8  1  0
 13  2  1  0
 13  3  1  0
 13  9  2  0
 14  4  2  0
 14  6  1  0
 14 10  1  0
 15  5  1  0
 15 11  1  0
 12 15  2  0
M  END
>  <NAME>  (981) 
BETA-FARNESENE

>  <SYNONYMS>  (981) 


>  <SPECTRUM TYPE>  (981) 
MS1

>  <INSTRUMENT TYPE>  (981) 
EI-B

>  <INSTRUMENT>  (981) 
HITACHI RMU-6L

>  <ION MODE>  (981) 
P

>  <INCHIKEY>  (981) 
JSNRRGGBADWTMC-NTCAYCPXSA-N

>  <FORMULA>  (981) 
C15H24

>  <EXACT MASS>  (981) 
204.187800768

>  <MW>  (981) 
204

>  <ID>  (981) 
JP010676

>  <CONTRIBUTOR>  (981) 
University of Tokyo Team, {Faculty of Engineering, University of Tokyo

>  <COMMENT>  (981) 
SMILES=C=CC(=C)CCC([H])=C(C)CCC=C(C)C
InChI=InChI=1S/C15H24/c1-6-14(4)10-8-12-15(5)11-7-9-13(2)3/h6,9,12H,1,4,7-8,10-11H2,2-3,5H3/b15-12+
computed SMILES=C=CC(=C)CCC=C(C)CCC=C(C)C
accession=JP010676
date=2016.01.19 (Created 2008.10.21, modified 2011.05.06)
author=EGUCHI S, FAC. OF SCIENCE, HIROSHIMA UNIV.
license=CC BY-NC-SA
exact mass=204.1878
ionization energy=70 eV
ion type=[M]+*
computed spectral entropy=3.4685996798420073
computed normalized entropy=0.8655630863498536
SPLASH=splash10-00kf-9300000000-b9d4d3c4eb1b8ad6bb3d
submitter=submitter = University of Tokyo Team (Faculty of Engineering, University of Tokyo)
MoNA Rating=3.75

>  <NUM PEAKS>  (981) 
55

>  <MASS SPECTRAL PEAKS>  (981) 
41 99.99
42 13
43 28.5
51 1.1
52 9
53 28
54 8
55 4.1
56 9
57 16
65 6.5
66 0.8
67 29
68 16.5
69 98
70 1.4
71 11
77 20.5
78 8.5
79 3.4
80 16.5
81 37
82 16
83 0.9
91 26.5
92 16
93 67
94 1.6
95 16
96 7
105 23
106 1.1
107 21
108 10
109 16.5
110 0.6
119 18
120 20.5
121 17
122 0.8
123 8
131 6
133 26
134 1
135 10
136 6
147 11
148 0.8
161 23
162 8
175 6
189 0.9
190 3
204 17
205 4

$$$$

     RDKit          2D

 15 16  0  0  1  0  0  0  0  0999 V2000
    3.6987   -2.8302    0.0000 C   0  0  0  0  0  0  0  0  0  0  0  0
    4.9981   -0.5804    0.0000 C   0  0  0  0  0  0  0  0  0  0  0  0
   -1.5000   -2.8300    0.0000 C   0  0  0  0  0  0  0  0  0  0  0  0
   -0.2000    2.4200    0.0000 C   0  0  0  0  0  0  0  0  0  0  0  0
   -2.8000    0.9200    0.0000 C   0  0  0  0  0  0  0  0  0  0  0  0
   -2.8000   -0.5800    0.0000 C   0  0  0  0  0  0  0  0  0  0  0  0
    2.4000    0.9200    0.0000 C   0  0  0  0  0  0  0  0  0  0  0  0
   -1.5000    1.6700    0.0000 C   0  0  0  0  0  0  0  0  0  0  0  0
    1.1000    1.6700    0.0000 C   0  0  0  0  0  0  0  0  0  0  0  0
    1.1000   -1.3300    0.0000 C   0  0  0  0  0  0  0  0  0  0  0  0
    3.6989   -1.3302    0.0000 C   0  0  0  0  0  0  0  0  0  0  0  0
   -1.5000   -1.3300    0.0000 C   0  0  0  0  0  0  0  0  0  0  0  0
    2.4000   -0.5800    0.0000 C   0  0  0  0  0  0  0  0  0  0  0  0
   -0.2000   -0.5800    0.0000 C   0  0  0  0  0  0  0  0  0  0  0  0
   -0.2000    0.9200    0.0000 C   0  0  0  0  0  0  0  0  0  0  0  0
  6  5  1  0
  8  5  1  0
  9  7  1  0
 11  1  2  0
 11  2  1  0
 12  3  2  0
 12  6  1  0
 13  7  1  0
 13 10  1  0
 13 11  1  1
 14 10  1  1
 14 12  1  0
 15  4  1  1
 15  8  1  0
 15  9  1  0
 15 14  1  0
M  END
>  <NAME>  (982) 
BETA-SELINENE

>  <SYNONYMS>  (982) 


>  <SPECTRUM TYPE>  (982) 
MS1

>  <INSTRUMENT TYPE>  (982) 
EI-B

>  <INSTRUMENT>  (982) 
HITACHI RMU-6L

>  <ION MODE>  (982) 
P

>  <INCHIKEY>  (982) 
YOVSPTNQHMDJAG-QLFBSQMISA-N

>  <FORMULA>  (982) 
C15H24

>  <EXACT MASS>  (982) 
204.187800768

>  <MW>  (982) 
204

>  <ID>  (982) 
JP010675

>  <CONTRIBUTOR>  (982) 
University of Tokyo Team, {Faculty of Engineering, University of Tokyo

>  <COMMENT>  (982) 
SMILES=CC(=C)C([H])(C1)CC([H])(C(=C)2)C(C)(CCC2)C1
InChI=InChI=1S/C15H24/c1-11(2)13-7-9-15(4)8-5-6-12(3)14(15)10-13/h13-14H,1,3,5-10H2,2,4H3/t13-,14+,15-/m1/s1
computed SMILES=C=C(C)C1CCC2(C)CCCC(=C)C2C1
accession=JP010675
date=2016.01.19 (Created 2008.10.21, modified 2011.05.06)
author=EGUCHI S, FAC. OF SCIENCE, HIROSHIMA UNIV.
license=CC BY-NC-SA
exact mass=204.1878
ionization energy=70 eV
ion type=[M]+*
computed spectral entropy=3.7953089234256328
computed normalized entropy=0.8817963579171167
SPLASH=splash10-052f-9700000000-0433b7021e9426df6c0a
submitter=submitter = University of Tokyo Team (Faculty of Engineering, University of Tokyo)
MoNA Rating=3.75

>  <NUM PEAKS>  (982) 
74

>  <MASS SPECTRAL PEAKS>  (982) 
41 99.99
42 9.5
43 23.5
44 0.55
51 11.5
52 7.5
53 40.5
54 0.8
55 59
56 8
57 10
63 0.55
64 4
65 21
66 9.5
67 4.8
68 19
69 27.5
70 5.5
77 3.95
78 12
79 52.5
80 21
81 6.4
82 20
83 9.5
91 61
92 1.65
93 76
94 24
95 38
96 0.8
97 8.5
103 7.5
104 5.5
105 6.45
106 19
107 65
108 31
109 2.8
110 7
115 8.5
116 5.5
117 1.1
118 7
119 36
120 16
121 4.1
122 22
123 18
124 6
128 0.6
129 6
130 4.5
131 9.5
132 0.6
133 43
134 17
135 18
145 0.85
146 8
147 30
148 16
149 1.2
150 6
161 41
162 17
163 0.7
175 18.5
176 8
189 46
190 0.9
204 48
205 9.5

$$$$

     RDKit          2D

 15 16  0  0  1  0  0  0  0  0999 V2000
    3.6987   -2.8302    0.0000 C   0  0  0  0  0  0  0  0  0  0  0  0
    4.9981   -0.5804    0.0000 C   0  0  0  0  0  0  0  0  0  0  0  0
   -1.5000   -2.8300    0.0000 C   0  0  0  0  0  0  0  0  0  0  0  0
   -0.2000    2.4200    0.0000 C   0  0  0  0  0  0  0  0  0  0  0  0
   -2.8000    0.9200    0.0000 C   0  0  0  0  0  0  0  0  0  0  0  0
   -2.8000   -0.5800    0.0000 C   0  0  0  0  0  0  0  0  0  0  0  0
    2.4000    0.9200    0.0000 C   0  0  0  0  0  0  0  0  0  0  0  0
   -1.5000    1.6700    0.0000 C   0  0  0  0  0  0  0  0  0  0  0  0
    1.1000    1.6700    0.0000 C   0  0  0  0  0  0  0  0  0  0  0  0
    1.1000   -1.3300    0.0000 C   0  0  0  0  0  0  0  0  0  0  0  0
    3.6989   -1.3302    0.0000 C   0  0  0  0  0  0  0  0  0  0  0  0
   -1.5000   -1.3300    0.0000 C   0  0  0  0  0  0  0  0  0  0  0  0
    2.4000   -0.5800    0.0000 C   0  0  0  0  0  0  0  0  0  0  0  0
   -0.2000   -0.5800    0.0000 C   0  0  0  0  0  0  0  0  0  0  0  0
   -0.2000    0.9200    0.0000 C   0  0  0  0  0  0  0  0  0  0  0  0
  6  5  1  0
  8  5  1  0
  9  7  1  0
 11  1  2  0
 11  2  1  0
 12  3  1  0
 12  6  2  0
 13  7  1  0
 13 10  1  0
 13 11  1  1
 14 10  1  1
 14 12  1  0
 15  4  1  1
 15  8  1  0
 15  9  1  0
 15 14  1  0
M  END
>  <NAME>  (983) 
ALPHA-SELINENE

>  <SYNONYMS>  (983) 


>  <SPECTRUM TYPE>  (983) 
MS1

>  <INSTRUMENT TYPE>  (983) 
EI-B

>  <INSTRUMENT>  (983) 
HITACHI RMU-6L

>  <ION MODE>  (983) 
P

>  <INCHIKEY>  (983) 
OZQAPQSEYFAMCY-QLFBSQMISA-N

>  <FORMULA>  (983) 
C15H24

>  <EXACT MASS>  (983) 
204.187800768

>  <MW>  (983) 
204

>  <ID>  (983) 
JP010674

>  <CONTRIBUTOR>  (983) 
University of Tokyo Team, {Faculty of Engineering, University of Tokyo

>  <COMMENT>  (983) 
SMILES=CC(=C)C([H])(C1)CC([H])(C(C)=2)C(C)(CCC([H])2)C1
InChI=InChI=1S/C15H24/c1-11(2)13-7-9-15(4)8-5-6-12(3)14(15)10-13/h6,13-14H,1,5,7-10H2,2-4H3/t13-,14+,15-/m1/s1
computed SMILES=C=C(C)C1CCC2(C)CCC=C(C)C2C1
accession=JP010674
date=2016.01.19 (Created 2008.10.21, modified 2011.05.06)
author=EGUCHI S, FAC. OF SCIENCE, HIROSHIMA UNIV.
license=CC BY-NC-SA
exact mass=204.1878
ionization energy=70 eV
ion type=[M]+*
computed spectral entropy=3.6282271382188434
computed normalized entropy=0.8628994950751903
SPLASH=splash10-0a5c-9710000000-e1b9585bb66b7f1d718b
submitter=submitter = University of Tokyo Team (Faculty of Engineering, University of Tokyo)
MoNA Rating=3.75

>  <NUM PEAKS>  (983) 
67

>  <MASS SPECTRAL PEAKS>  (983) 
41 85
42 6
43 23
51 0.6
52 4
53 38
54 4
55 5.7
56 4
57 8
65 27
66 0.6
67 53
68 11
69 34
70 0.4
77 40
78 9
79 70
80 1.5
81 87
82 13
83 8
91 7.7
92 19
93 99.99
94 28
95 5.3
96 8
97 8
103 6.5
104 0.4
105 85.5
106 24
107 79
108 3.6
109 47
110 8
115 6.5
117 0.9
118 4
119 45.5
120 23
121 3.2
122 26
123 23
124 4
131 1.3
132 4
133 57
134 18
135 1.7
136 8
137 4
145 9
146 0.4
147 32.5
148 13
149 13
161 6.1
162 21.5
175 21
176 6
189 5.5
190 9
204 68
205 15.5

$$$$

     RDKit          2D

 22 23  0  0  1  0  0  0  0  0999 V2000
    3.8081    7.4000    0.0000 C   0  0  0  0  0  0  0  0  0  0  0  0
    3.8089    1.4002    0.0000 C   0  0  0  0  0  0  0  0  0  0  0  0
   -2.3541   -2.7492    0.0000 C   0  0  0  0  0  0  0  0  0  0  0  0
   -0.4259   -2.7492    0.0000 C   0  0  0  0  0  0  0  0  0  0  0  0
    1.9960    6.5595    0.0000 C   0  0  0  0  0  0  0  0  0  0  0  0
   -0.0900    2.1500    0.0000 C   0  0  0  0  0  0  0  0  0  0  0  0
    0.0676    6.0386    0.0000 C   0  0  0  0  0  0  0  0  0  0  0  0
    3.8081    5.9000    0.0000 C   0  0  0  0  0  0  0  0  0  0  0  0
   -2.6900    0.6500    0.0000 C   0  0  0  0  0  0  0  0  0  0  0  0
    2.5100   -0.8500    0.0000 C   0  0  0  0  0  0  0  0  0  0  0  0
    1.2100   -1.6000    0.0000 C   0  0  0  0  0  0  0  0  0  0  0  0
    1.2100    2.9000    0.0000 C   0  0  0  0  0  0  0  0  0  0  0  0
   -2.6900   -0.8500    0.0000 C   0  0  0  0  0  0  0  0  0  0  0  0
   -1.3900    1.4000    0.0000 C   0  0  0  0  0  0  0  0  0  0  0  0
    2.5090    3.6500    0.0000 C   0  0  0  0  0  0  0  0  0  0  0  0
    2.5100    0.6500    0.0000 C   0  0  0  0  0  0  0  0  0  0  0  0
    1.2100    1.4000    0.0000 C   0  0  0  0  0  0  0  0  0  0  0  0
   -0.0900   -0.8500    0.0000 C   0  0  0  0  0  0  0  0  0  0  0  0
   -1.3900   -1.6000    0.0000 C   0  0  0  0  0  0  0  0  0  0  0  0
    2.5090    5.1500    0.0000 C   0  0  0  0  0  0  0  0  0  0  0  0
   -0.0900    0.6500    0.0000 C   0  0  0  0  0  0  0  0  0  0  0  0
    1.0318    4.8895    0.0000 O   0  0  0  0  0  0  0  0  0  0  0  0
  8  1  2  0
 11 10  1  0
 13  9  1  0
 14  9  1  0
 15 12  1  0
 16  2  1  0
 16 10  2  0
 17 12  1  6
 17 16  1  0
 18 11  1  1
 19  3  1  0
 19  4  1  0
 19 13  1  0
 19 18  1  0
 20  5  1  1
 20  8  1  0
 20 15  1  0
 21  6  1  1
 21 14  1  0
 21 17  1  0
 21 18  1  0
 22  7  1  0
 20 22  1  0
M  END
>  <NAME>  (984) 
(13R)-13-METHOXYLABDA-7,14-DIENE

>  <SYNONYMS>  (984) 


>  <SPECTRUM TYPE>  (984) 
MS1

>  <INSTRUMENT TYPE>  (984) 
EI-B

>  <INSTRUMENT>  (984) 
HITACHI RMU-6L

>  <ION MODE>  (984) 
P

>  <INCHIKEY>  (984) 
ZWCHJTGMHXJGEA-KOUHRCEDSA-N

>  <FORMULA>  (984) 
C21H36O

>  <EXACT MASS>  (984) 
304.27661577199996

>  <MW>  (984) 
304

>  <ID>  (984) 
JP010673

>  <CONTRIBUTOR>  (984) 
University of Tokyo Team, {Faculty of Engineering, University of Tokyo

>  <COMMENT>  (984) 
SMILES=C=CC(C)(OC)CCC([H])(C(C)=2)C(C)(C1)C([H])(CC([H])2)C(C)(C)CC1
InChI=InChI=1S/C21H36O/c1-8-20(5,22-7)15-12-17-16(2)10-11-18-19(3,4)13-9-14-21(17,18)6/h8,10,17-18H,1,9,11-15H2,2-7H3/t17-,18+,20-,21-/m1/s1
computed SMILES=O(C)C(C=C)(C)CCC1C(=CCC2C(C)(C)CCCC12C)C
accession=JP010673
date=2016.01.19 (Created 2008.10.21, modified 2011.05.06)
author=EGUCHI S, FAC. OF SCIENCE, HIROSHIMA UNIV.
license=CC BY-NC-SA
exact mass=304.27662
ionization energy=70 eV
ion type=[M]+*
computed spectral entropy=3.7371269222697845
computed normalized entropy=0.8206473322023216
SPLASH=splash10-0udi-7940000000-fdb467e7a5122a4abffa
submitter=submitter = University of Tokyo Team (Faculty of Engineering, University of Tokyo)
MoNA Rating=3.75

>  <NUM PEAKS>  (984) 
95

>  <MASS SPECTRAL PEAKS>  (984) 
40 1
41 26.9
42 2.2
43 1.36
45 2.7
53 7
54 1.3
55 3.75
56 2.7
57 3.2
59 1.8
65 0.23
66 1.1
67 13.6
68 3.8
69 2.06
70 1.6
71 1.7
72 1.3
77 0.49
78 1.6
79 12
80 22.5
81 2.44
82 3.7
83 4.9
84 1.1
85 5.13
86 3.7
87 1.8
91 12
92 0.39
93 21.3
94 5.7
95 20.3
96 0.31
97 3.7
98 3
99 3.2
103 0.1
105 12.7
106 5.6
107 15.8
108 1.52
109 28.2
110 2.7
111 2.3
115 0.1
117 2.2
119 16.4
120 8.4
121 1.44
122 11.3
123 6.9
124 3.6
125 0.1
131 2.2
132 1.1
133 13.1
134 0.7
135 13.4
136 5.1
137 4.4
145 0.21
147 6.5
148 11.5
149 5.3
151 0.1
159 1.4
161 16
162 3.9
163 0.42
164 1.1
173 1.3
175 3.4
176 0.2
177 2.7
187 20.3
188 1
189 1.34
190 3.5
191 9.8
192 3.3
201 0.13
203 1.6
204 99.99
205 18.8
206 0.14
220 1
257 6.5
258 1.4
272 0.34
273 1.2
275 1.5
304 1.1

$$$$

     RDKit          2D

 27 29  0  0  1  0  0  0  0  0999 V2000
   -7.0350    0.1854    0.0000 C   0  0  0  0  0  0  0  0  0  0  0  0
   -4.4937    0.7256    0.0000 C   0  0  0  0  0  0  0  0  0  0  0  0
   -4.3610   -6.1470    0.0000 C   0  0  0  0  0  0  0  0  0  0  0  0
    6.1919   -1.8813    0.0000 C   0  0  0  0  0  0  0  0  0  0  0  0
   -0.7702    1.2051    0.0000 C   0  0  0  0  0  0  0  0  0  0  0  0
    1.3681   -5.4024    0.0000 C   0  0  0  0  0  0  0  0  0  0  0  0
   -6.0994   -4.2162    0.0000 C   0  0  0  0  0  0  0  0  0  0  0  0
   -6.4113   -2.7490    0.0000 C   0  0  0  0  0  0  0  0  0  0  0  0
    1.9318   -0.9026    0.0000 C   0  0  0  0  0  0  0  0  0  0  0  0
    0.5699    0.0161    0.0000 C   0  0  0  0  0  0  0  0  0  0  0  0
   -0.1911   -4.3004    0.0000 C   0  0  0  0  0  0  0  0  0  0  0  0
   -5.6084   -0.2781    0.0000 C   0  0  0  0  0  0  0  0  0  0  0  0
   -4.6728   -4.6798    0.0000 C   0  0  0  0  0  0  0  0  0  0  0  0
    4.7147   -1.6209    0.0000 C   0  0  0  0  0  0  0  0  0  0  0  0
   -5.2966   -1.7453    0.0000 C   0  0  0  0  0  0  0  0  0  0  0  0
   -2.0663   -3.8328    0.0000 C   0  0  0  0  0  0  0  0  0  0  0  0
    2.2733   -2.5095    0.0000 C   0  0  0  0  0  0  0  0  0  0  0  0
   -3.5581   -3.6761    0.0000 C   0  0  0  0  0  0  0  0  0  0  0  0
   -3.8700   -2.2088    0.0000 C   0  0  0  0  0  0  0  0  0  0  0  0
   -2.5710   -1.4588    0.0000 C   0  0  0  0  0  0  0  0  0  0  0  0
   -1.0480   -0.2690    0.0000 C   0  0  0  0  0  0  0  0  0  0  0  0
    1.4028   -3.9028    0.0000 C   0  0  0  0  0  0  0  0  0  0  0  0
    4.2016   -0.2113    0.0000 O   0  0  0  0  0  0  0  0  0  0  0  0
   -2.3292    0.5111    0.0000 O   0  0  0  0  0  0  0  0  0  0  0  0
    2.8399   -4.3328    0.0000 O   0  0  0  0  0  0  0  0  0  0  0  0
    3.7505   -2.7700    0.0000 O   0  0  0  0  0  0  0  0  0  0  0  0
   -1.4562   -2.4625    0.0000 O   0  0  0  0  0  0  0  0  0  0  0  0
  8  7  1  0
 10  9  1  0
 12  1  1  0
 12  2  1  0
 13  3  1  0
 13  7  2  0
 14  4  1  0
 15  8  1  0
 15 12  1  6
 16 11  1  6
 17  9  1  0
 18 13  1  6
 18 16  1  0
 19 15  1  1
 19 18  1  0
 20 19  1  0
 21  5  1  1
 21 10  1  0
 21 20  1  0
 22  6  1  6
 22 11  1  0
 22 17  1  0
 23 14  2  0
 21 24  1  0
 22 25  1  0
 26 14  1  0
 17 26  1  6
 16 27  1  0
 20 27  1  6
M  END
>  <NAME>  (985) 
(1R(*),2R(*),3R(*),6S(*),7R(*),9R(*),10S(*),11Z,14R(*))-6-ACETOXYEUNICELLA-11-ENE-3,7-DIOL

>  <SYNONYMS>  (985) 


>  <SPECTRUM TYPE>  (985) 
MS1

>  <INSTRUMENT TYPE>  (985) 
EI-B

>  <INSTRUMENT>  (985) 
HITACHI RMU-6L

>  <ION MODE>  (985) 
P

>  <INCHIKEY>  (985) 
QTCWWOOKJDGITI-ZHPQPJTISA-N

>  <FORMULA>  (985) 
C22H36O5

>  <EXACT MASS>  (985) 
380.25627425199997

>  <MW>  (985) 
380

>  <ID>  (985) 
JP010671

>  <CONTRIBUTOR>  (985) 
University of Tokyo Team, {Faculty of Engineering, University of Tokyo

>  <COMMENT>  (985) 
SMILES=CC(=O)OC([H])(C2)C(C)(O)CC([H])(O1)C([H])(C(C)=3)C([H])(C([H])(C(C)C)CC([H])3)C([H])(C(C)(O)C2)1
InChI=InChI=1S/C22H36O5/c1-12(2)15-8-7-13(3)18-16-11-22(6,25)17(26-14(4)23)9-10-21(5,24)20(27-16)19(15)18/h7,12,15-20,24-25H,8-11H2,1-6H3/t15-,16-,17+,18+,19-,20-,21-,22+/m1/s1
computed SMILES=O=C(OC1CCC(O)(C)C2OC(CC1(O)C)C3C(=CCC(C(C)C)C23)C)C
accession=JP010671
date=2016.01.19 (Created 2008.10.21, modified 2011.05.06)
author=EGUCHI S, FAC. OF SCIENCE, HIROSHIMA UNIV.
license=CC BY-NC-SA
exact mass=380.25627
ionization energy=70 eV
ion type=[M]+*
computed spectral entropy=4.404284324111135
computed normalized entropy=0.8536997703400643
SPLASH=splash10-0006-7910000000-6cb7eda0d980866cd14d
submitter=submitter = University of Tokyo Team (Faculty of Engineering, University of Tokyo)
MoNA Rating=3.75

>  <NUM PEAKS>  (985) 
174

>  <MASS SPECTRAL PEAKS>  (985) 
41 35
42 4.1
43 99.99
44 0.82
45 12.3
53 8.2
54 1.6
55 3.36
56 4.1
57 15.6
58 13.9
59 0.41
60 3.3
61 2.4
65 4.1
66 0.16
67 11.5
68 3.3
69 22.1
70 0.33
71 40.1
72 3.3
73 1.6
74 0.16
77 12.3
78 3.3
79 20.5
80 0.74
81 24.5
82 4.9
83 19.7
84 0.49
85 20.5
86 3.3
87 3.3
91 2.21
92 27.9
93 80.3
94 22.1
95 3.69
96 5.7
97 11.5
98 4.1
99 1.64
100 3.3
101 9
105 36.9
106 1.48
107 38.5
108 14.8
109 18.9
110 0.74
111 9
112 2.5
113 5.7
114 0.16
115 3.3
116 1.6
117 4.1
118 0.16
119 16.4
120 4.9
121 19.7
122 1.07
123 13.1
124 4.9
125 8.2
126 0.49
127 37.7
128 30.3
129 5.7
130 0.25
131 11.5
132 3.3
133 13.9
134 0.82
135 16.4
136 24.6
137 13.1
138 0.41
139 4.9
140 3.3
141 4.9
142 0.16
143 4.1
144 3.3
145 9.8
146 2.46
147 21.3
148 11.5
149 18
150 3
151 5.7
152 1.6
153 4.1
154 0.16
155 5.7
156 1.5
157 8.2
158 0.25
159 5.5
160 3.3
161 8.2
162 0.49
163 8.2
164 4.1
165 5.7
166 0.5
167 7.5
168 1.5
169 1.5
171 0.41
172 1.6
173 3.3
174 1.6
175 0.49
176 6.5
177 27
178 14.8
179 0.98
180 1.6
183 4.9
184 1.6
185 0.24
186 2.4
187 9
188 2.5
189 0.57
190 3.3
191 3.3
192 3.3
193 0.33
194 5.7
195 11.5
196 1.6
197 0.16
198 1.6
201 4.1
202 1.6
203 0.33
204 26
205 5.7
206 1.6
213 0.25
214 1.6
215 2.5
218 6.6
219 0.33
220 1.6
221 3.3
222 2.4
223 0.16
225 4.1
226 1
241 3.3
242 0.16
259 4.9
260 1.6
264 17.2
265 0.49
266 1.6
282 12.3
283 3.3
284 0.16
302 9.8
303 4.1
304 3.3
305 0.16
320 1.9
321 1.2
362 1.9
363 0.08
380 1.2
381 0.4

$$$$

     RDKit          2D

 24 26  0  0  1  0  0  0  0  0999 V2000
   -5.9271    2.1044    0.0000 C   0  0  0  0  0  0  0  0  0  0  0  0
   -3.3858    2.6446    0.0000 C   0  0  0  0  0  0  0  0  0  0  0  0
   -3.2531   -4.2280    0.0000 C   0  0  0  0  0  0  0  0  0  0  0  0
    0.3377    3.1240    0.0000 C   0  0  0  0  0  0  0  0  0  0  0  0
    2.4760   -3.4834    0.0000 C   0  0  0  0  0  0  0  0  0  0  0  0
   -4.9915   -2.2973    0.0000 C   0  0  0  0  0  0  0  0  0  0  0  0
   -5.3034   -0.8300    0.0000 C   0  0  0  0  0  0  0  0  0  0  0  0
    3.0397    1.0163    0.0000 C   0  0  0  0  0  0  0  0  0  0  0  0
    1.6778    1.9350    0.0000 C   0  0  0  0  0  0  0  0  0  0  0  0
    0.9168   -2.3814    0.0000 C   0  0  0  0  0  0  0  0  0  0  0  0
   -4.5005    1.6409    0.0000 C   0  0  0  0  0  0  0  0  0  0  0  0
   -3.5649   -2.7608    0.0000 C   0  0  0  0  0  0  0  0  0  0  0  0
   -4.1887    0.1737    0.0000 C   0  0  0  0  0  0  0  0  0  0  0  0
   -0.9584   -1.9139    0.0000 C   0  0  0  0  0  0  0  0  0  0  0  0
    3.3812   -0.5906    0.0000 C   0  0  0  0  0  0  0  0  0  0  0  0
   -2.4502   -1.7571    0.0000 C   0  0  0  0  0  0  0  0  0  0  0  0
   -2.7621   -0.2899    0.0000 C   0  0  0  0  0  0  0  0  0  0  0  0
   -1.4630    0.4601    0.0000 C   0  0  0  0  0  0  0  0  0  0  0  0
    0.0599    1.6500    0.0000 C   0  0  0  0  0  0  0  0  0  0  0  0
    2.5108   -1.9838    0.0000 C   0  0  0  0  0  0  0  0  0  0  0  0
    4.8584   -0.8510    0.0000 O   0  0  0  0  0  0  0  0  0  0  0  0
   -1.2213    2.4301    0.0000 O   0  0  0  0  0  0  0  0  0  0  0  0
    3.9478   -2.4139    0.0000 O   0  0  0  0  0  0  0  0  0  0  0  0
   -0.3483   -0.5436    0.0000 O   0  0  0  0  0  0  0  0  0  0  0  0
  7  6  1  0
  9  8  1  0
 11  1  1  0
 11  2  1  0
 12  3  1  0
 12  6  2  0
 13  7  1  0
 13 11  1  6
 14 10  1  6
 15  8  1  0
 16 12  1  6
 16 14  1  0
 17 13  1  1
 17 16  1  0
 18 17  1  0
 19  4  1  1
 19  9  1  0
 19 18  1  0
 20  5  1  6
 20 10  1  0
 20 15  1  0
 15 21  1  6
 19 22  1  0
 20 23  1  0
 14 24  1  0
 18 24  1  6
M  END
>  <NAME>  (986) 
(1R(*),2R(*),3R(*),6S(*),7R(*),9R(*),10S(*),11Z,14R(*))-EUNICELLA-11-ENE-3,6,7-TRIOL

>  <SYNONYMS>  (986) 


>  <SPECTRUM TYPE>  (986) 
MS1

>  <INSTRUMENT TYPE>  (986) 
EI-B

>  <INSTRUMENT>  (986) 
HITACHI RMU-6L

>  <ION MODE>  (986) 
P

>  <INCHIKEY>  (986) 
DTXAQQMHPCOLBL-IIYNAOSSSA-N

>  <FORMULA>  (986) 
C20H34O4

>  <EXACT MASS>  (986) 
338.245709568

>  <MW>  (986) 
338

>  <ID>  (986) 
JP010670

>  <CONTRIBUTOR>  (986) 
University of Tokyo Team, {Faculty of Engineering, University of Tokyo

>  <COMMENT>  (986) 
SMILES=CC(C)C([H])(C3)C([H])(C([H])21)C([H])(C(C)=C([H])3)C([H])(CC(C)(O)C([H])(O)CCC(C)(O)2)O1
InChI=InChI=1S/C20H34O4/c1-11(2)13-7-6-12(3)16-14-10-20(5,23)15(21)8-9-19(4,22)18(24-14)17(13)16/h6,11,13-18,21-23H,7-10H2,1-5H3/t13-,14-,15+,16+,17-,18-,19-,20+/m1/s1
computed SMILES=OC1CCC(O)(C)C2OC(CC1(O)C)C3C(=CCC(C(C)C)C23)C
accession=JP010670
date=2016.01.19 (Created 2008.10.21, modified 2011.05.06)
author=EGUCHI S, FAC. OF SCIENCE, HIROSHIMA UNIV.
license=CC BY-NC-SA
exact mass=338.24571
ionization energy=70 eV
ion type=[M]+*
computed spectral entropy=4.341441752063339
computed normalized entropy=0.8472818641025941
SPLASH=splash10-0006-9810000000-ef69ee60cb543aafe142
submitter=submitter = University of Tokyo Team (Faculty of Engineering, University of Tokyo)
MoNA Rating=3.75

>  <NUM PEAKS>  (986) 
168

>  <MASS SPECTRAL PEAKS>  (986) 
41 27
42 2.3
43 99.99
44 0.46
45 9.7
47 4.6
48 1.5
49 0.21
53 6.2
54 1.3
55 25
56 0.28
57 13
58 9.7
59 4.6
60 0.18
61 1.3
65 3.1
66 1.3
67 0.87
68 2.4
69 17
70 2.7
71 2.5
72 2.8
73 2.6
74 2
77 1
78 2.3
79 14
80 4.9
81 1.9
82 4
83 15
84 17
85 3.7
86 3
87 3.6
88 0.8
91 1.83
92 18
93 58
94 13
95 2.4
96 4.7
97 8.5
98 3.9
99 1.3
100 2
101 22
102 1.8
103 0.18
104 1.4
105 25
106 7
107 2.8
108 12
109 13.5
110 3.5
111 0.59
112 1.5
113 2.8
115 2.5
116 0.13
117 3.5
118 1.5
119 10
120 0.38
121 12
122 14
123 9
124 0.28
125 6.7
126 4.6
127 27.7
128 2.9
129 5.4
130 1.5
131 6.4
132 0.21
133 8.2
134 4.6
135 11
136 1.65
137 10
138 2.9
139 2.7
140 0.15
141 7.1
142 1.7
143 2.8
144 0.14
145 5.1
146 3.8
147 11.4
148 0.46
149 15.6
150 13.2
151 4.2
152 0.13
153 7.6
154 1.4
155 3.5
156 0.9
157 3.3
159 4
160 2.1
161 0.47
162 2.6
163 5
164 2.5
165 0.31
166 4.4
167 5.3
168 0.12
171 3.6
173 2.6
174 1.1
175 0.33
176 2.9
177 6.2
178 9.4
179 1.44
180 2.3
183 3.1
184 1.4
185 0.21
187 1.1
188 1.4
189 3.1
190 0.16
191 2.1
192 2.9
193 3.1
194 0.18
195 9.8
196 1.8
201 2.1
203 0.16
204 2.1
205 2.2
206 1.4
217 0.14
218 3.1
219 3.5
221 2.6
222 0.13
223 3.2
232 4.2
233 1.5
234 0.26
235 7.3
236 2.1
237 7.4
238 0.16
241 1
244 0.8
259 1.8
260 0.06
262 2.6
263 1
277 2.1
278 0.06
302 3.6
303 1.2
320 5.7
321 0.22
323 0.6

$$$$

     RDKit          2D

 24 26  0  0  1  0  0  0  0  0999 V2000
   -4.0556    0.1406    0.0000 C   0  0  0  0  0  0  0  0  0  0  0  0
    0.6709   -0.0242    0.0000 C   0  0  0  0  0  0  0  0  0  0  0  0
   -4.0556    5.3284    0.0000 C   0  0  0  0  0  0  0  0  0  0  0  0
    0.2916    2.6372    0.0000 C   0  0  0  0  0  0  0  0  0  0  0  0
   -1.0554    0.1395    0.0000 C   0  0  0  0  0  0  0  0  0  0  0  0
   -2.5554    0.1395    0.0000 C   0  0  0  0  0  0  0  0  0  0  0  0
   -4.8054    1.4395    0.0000 C   0  0  0  0  0  0  0  0  0  0  0  0
   -5.5554    2.7395    0.0000 C   0  0  0  0  0  0  0  0  0  0  0  0
   -1.0554    5.3295    0.0000 C   0  0  0  0  0  0  0  0  0  0  0  0
   -0.3054    1.4395    0.0000 C   0  0  0  0  0  0  0  0  0  0  0  0
   -2.5554    5.3295    0.0000 C   0  0  0  0  0  0  0  0  0  0  0  0
    1.1946    4.0295    0.0000 C   0  0  0  0  0  0  0  0  0  0  0  0
   -3.3054    1.4395    0.0000 C   0  0  0  0  0  0  0  0  0  0  0  0
   -0.4945    2.6749    0.0000 C   0  0  0  0  0  0  0  0  0  0  0  0
   -0.3054    4.0295    0.0000 C   0  0  0  0  0  0  0  0  0  0  0  0
   -4.8054    4.0295    0.0000 C   0  0  0  0  0  0  0  0  0  0  0  0
    1.9446    2.7295    0.0000 C   0  0  0  0  0  0  0  0  0  0  0  0
   -1.8054    2.0732    0.0000 C   0  0  0  0  0  0  0  0  0  0  0  0
   -3.3054    4.0295    0.0000 C   0  0  0  0  0  0  0  0  0  0  0  0
    1.1946    1.4395    0.0000 C   0  0  0  0  0  0  0  0  0  0  0  0
   -5.5534    5.3297    0.0000 O   0  0  0  0  0  0  0  0  0  0  0  0
   -1.8054    0.5732    0.0000 O   0  0  0  0  0  0  0  0  0  0  0  0
    2.6927    1.4316    0.0000 O   0  0  0  0  0  0  0  0  0  0  0  0
   -3.1162    2.6749    0.0000 O   0  0  0  0  0  0  0  0  0  0  0  0
  6  5  1  0
  8  7  1  0
 10  5  1  0
 11  9  1  0
 13  1  1  0
  6 13  2  3
 13  7  1  0
 14  2  2  0
 15  9  1  0
 15 12  1  6
 15 14  1  0
 16  8  1  0
 17 12  1  6
 18 14  1  0
 19  3  1  6
 19 11  1  0
 19 16  1  0
 20  4  1  6
 20 10  1  0
 20 17  1  0
 21 16  2  0
 22 18  2  0
 17 23  1  0
 23 20  1  0
 24 18  1  0
 24 19  1  0
M  END
>  <NAME>  (987) 
11-DEHYDROSINULARIOLIDE

>  <SYNONYMS>  (987) 


>  <SPECTRUM TYPE>  (987) 
MS1

>  <INSTRUMENT TYPE>  (987) 
EI-B

>  <INSTRUMENT>  (987) 
HITACHI RMU-6L

>  <ION MODE>  (987) 
P

>  <INCHIKEY>  (987) 
BCEKDLJRXSZZRB-RWQKAGTCSA-N

>  <FORMULA>  (987) 
C20H28O4

>  <EXACT MASS>  (987) 
332.198759376

>  <MW>  (987) 
332

>  <ID>  (987) 
JP010668

>  <CONTRIBUTOR>  (987) 
University of Tokyo Team, {Faculty of Engineering, University of Tokyo

>  <COMMENT>  (987) 
SMILES=CC(C2)=C([H])CCC(C)(O1)C([H])(CC([H])(C3)C(=C)C(=O)OC(C)(C3)C(=O)C2)1
InChI=InChI=1S/C20H28O4/c1-13-6-5-10-20(4)17(23-20)12-15-9-11-19(3,16(21)8-7-13)24-18(22)14(15)2/h6,15,17H,2,5,7-12H2,1,3-4H3/b13-6+/t15-,17+,19-,20+/m1/s1
computed SMILES=O=C1OC2(C(=O)CCC(=CCCC3(OC3CC(C1=C)CC2)C)C)C
computed InChI=InChI=1S/C20H28O4/c1-13-6-5-10-20(4)17(23-20)12-15-9-11-19(3,16(21)8-7-13)24-18(22)14(15)2/h6,15,17H,2,5,7-12H2,1,3-4H3/t15-,17+,19-,20+/m1/s1
accession=JP010668
date=2016.01.19 (Created 2008.10.21, modified 2011.05.06)
author=EGUCHI S, FAC. OF SCIENCE, HIROSHIMA UNIV.
license=CC BY-NC-SA
exact mass=332.19876
ionization energy=70 eV
ion type=[M]+*
computed spectral entropy=4.017529724539903
computed normalized entropy=0.8202656453933364
SPLASH=splash10-0006-9510000000-2ac984f5ce237924b642
submitter=submitter = University of Tokyo Team (Faculty of Engineering, University of Tokyo)
MoNA Rating=3.75

>  <NUM PEAKS>  (987) 
134

>  <MASS SPECTRAL PEAKS>  (987) 
41 41.7
42 4.2
43 99.99
44 0.46
45 2.9
51 1.7
52 1.7
53 1.58
54 4.6
55 22.1
56 2.5
57 0.46
58 3.3
65 5
66 3.3
67 4
68 17.1
69 18.8
70 2.1
71 0.54
77 7.5
78 2.1
79 17.9
80 0.42
81 29.2
82 11.3
83 5
84 0.21
85 2.9
91 7.1
92 2.1
93 1.29
94 7.1
95 13.8
96 7.1
97 0.54
98 2.1
99 1.7
105 6.7
106 0.38
107 13.8
108 7.5
109 11.7
110 1.33
111 4.2
117 1.7
119 9.2
120 0.33
121 7.5
122 5
123 7.5
124 0.29
125 2.5
131 2.5
133 5
134 0.33
135 13.8
136 4.2
137 7.1
138 0.38
139 2.9
140 1.7
145 5
146 0.21
147 9.6
148 5.4
149 7.5
150 0.38
151 4.6
152 2.1
159 4.2
160 0.21
161 5
162 3.3
163 7.1
164 0.33
165 4.2
166 2.1
167 2.1
171 0.1
173 2.5
174 1.7
175 3.3
176 0.25
177 5.4
178 2.1
179 2.1
180 0.21
185 1.7
187 3.8
188 1.7
189 0.25
190 2.1
191 2.9
192 2.1
193 0.21
200 1.3
201 2.1
203 3.3
204 0.17
205 3.8
206 2.5
207 1.3
208 0.13
213 1.3
215 1.7
217 1.3
218 0.13
219 2.5
220 2.1
221 3.8
228 0.13
229 1.3
231 1.7
232 2.1
233 0.17
234 1
235 1
243 1.7
249 0.13
261 1.7
271 1.3
274 1.7
275 0.1
276 4.6
277 1.7
286 1.7
289 0.13
304 1.3
314 1.3
315 1
317 0.1
332 2.1
333 0.8

$$$$

     RDKit          2D

 24 26  0  0  1  0  0  0  0  0999 V2000
   -4.0556    0.1406    0.0000 C   0  0  0  0  0  0  0  0  0  0  0  0
    0.6709   -0.0242    0.0000 C   0  0  0  0  0  0  0  0  0  0  0  0
   -4.0556    5.3284    0.0000 C   0  0  0  0  0  0  0  0  0  0  0  0
    0.2916    2.6372    0.0000 C   0  0  0  0  0  0  0  0  0  0  0  0
   -1.0554    0.1395    0.0000 C   0  0  0  0  0  0  0  0  0  0  0  0
   -2.5554    0.1395    0.0000 C   0  0  0  0  0  0  0  0  0  0  0  0
   -4.8054    1.4395    0.0000 C   0  0  0  0  0  0  0  0  0  0  0  0
   -5.5554    2.7395    0.0000 C   0  0  0  0  0  0  0  0  0  0  0  0
   -1.0554    5.3295    0.0000 C   0  0  0  0  0  0  0  0  0  0  0  0
   -0.3054    1.4395    0.0000 C   0  0  0  0  0  0  0  0  0  0  0  0
   -2.5554    5.3295    0.0000 C   0  0  0  0  0  0  0  0  0  0  0  0
    1.1946    4.0295    0.0000 C   0  0  0  0  0  0  0  0  0  0  0  0
   -3.3054    1.4395    0.0000 C   0  0  0  0  0  0  0  0  0  0  0  0
   -0.4945    2.6749    0.0000 C   0  0  0  0  0  0  0  0  0  0  0  0
   -0.3054    4.0295    0.0000 C   0  0  0  0  0  0  0  0  0  0  0  0
   -4.8054    4.0295    0.0000 C   0  0  0  0  0  0  0  0  0  0  0  0
    1.9446    2.7295    0.0000 C   0  0  0  0  0  0  0  0  0  0  0  0
   -1.8054    2.0732    0.0000 C   0  0  0  0  0  0  0  0  0  0  0  0
   -3.3054    4.0295    0.0000 C   0  0  0  0  0  0  0  0  0  0  0  0
    1.1946    1.4395    0.0000 C   0  0  0  0  0  0  0  0  0  0  0  0
   -5.5534    5.3297    0.0000 O   0  0  0  0  0  0  0  0  0  0  0  0
   -1.8054    0.5732    0.0000 O   0  0  0  0  0  0  0  0  0  0  0  0
    2.6927    1.4316    0.0000 O   0  0  0  0  0  0  0  0  0  0  0  0
   -3.1162    2.6749    0.0000 O   0  0  0  0  0  0  0  0  0  0  0  0
  6  5  1  0
  8  7  1  0
 10  5  1  0
 11  9  1  0
 13  1  1  0
  6 13  2  3
 13  7  1  0
 14  2  2  0
 15  9  1  0
 15 12  1  6
 15 14  1  0
 16  8  1  0
 17 12  1  1
 18 14  1  0
 19  3  1  6
 19 11  1  0
 19 16  1  0
 20  4  1  6
 20 10  1  0
 20 17  1  0
 16 21  1  6
 22 18  2  0
 17 23  1  0
 23 20  1  0
 24 18  1  0
 24 19  1  0
M  END
>  <NAME>  (988) 
11-EPI-SINULARIOLIDE

>  <SYNONYMS>  (988) 


>  <SPECTRUM TYPE>  (988) 
MS1

>  <INSTRUMENT TYPE>  (988) 
EI-B

>  <INSTRUMENT>  (988) 
HITACHI RMU-6L

>  <ION MODE>  (988) 
P

>  <INCHIKEY>  (988) 
FONRUOAYELOHDC-PVYSAULZSA-N

>  <FORMULA>  (988) 
C20H30O4

>  <EXACT MASS>  (988) 
334.21440944

>  <MW>  (988) 
334

>  <ID>  (988) 
JP010667

>  <CONTRIBUTOR>  (988) 
University of Tokyo Team, {Faculty of Engineering, University of Tokyo

>  <COMMENT>  (988) 
SMILES=CC(C2)=C([H])CCC(C)(O1)C([H])(CC([H])(C3)C(=C)C(=O)OC(C)(C3)C([H])(O)C2)1
InChI=InChI=1S/C20H30O4/c1-13-6-5-10-20(4)17(23-20)12-15-9-11-19(3,16(21)8-7-13)24-18(22)14(15)2/h6,15-17,21H,2,5,7-12H2,1,3-4H3/b13-6-/t15-,16+,17-,19-,20+/m1/s1
computed SMILES=O=C1OC2(C)CCC(C1=C)CC3OC3(C)CCC=C(C)CCC2O
computed InChI=InChI=1S/C20H30O4/c1-13-6-5-10-20(4)17(23-20)12-15-9-11-19(3,16(21)8-7-13)24-18(22)14(15)2/h6,15-17,21H,2,5,7-12H2,1,3-4H3/t15-,16+,17-,19-,20+/m1/s1
accession=JP010667
date=2016.01.19 (Created 2008.10.21, modified 2011.05.06)
author=EGUCHI S, FAC. OF SCIENCE, HIROSHIMA UNIV.
license=CC BY-NC-SA
exact mass=334.21441
ionization energy=70 eV
ion type=[M]+*
computed spectral entropy=4.062541684184456
computed normalized entropy=0.8372869630253732
SPLASH=splash10-052f-9600000000-99397dbedc8a110cbb2d
submitter=submitter = University of Tokyo Team (Faculty of Engineering, University of Tokyo)
MoNA Rating=3.75

>  <NUM PEAKS>  (988) 
128

>  <MASS SPECTRAL PEAKS>  (988) 
41 44
42 4
43 99.99
44 1.05
45 6
51 2
52 2
53 2.1
54 5
55 37.5
56 4
57 0.9
58 5
59 2
60 1
65 0.6
66 4
67 28
68 16
69 2.1
70 3
71 14
72 3
73 0.2
77 12
78 2
79 22
80 0.8
81 39
83 12
84 11
85 0.7
87 1.5
91 16
92 4
93 3.5
94 12.5
95 26
96 7
97 1
98 3
99 3
105 14
106 0.6
107 21
108 15
109 20
110 0.7
111 12
112 2
113 2
117 0.3
118 2
119 15
120 6
121 1.7
122 8
123 12
124 7
125 0.55
127 2
129 2
131 5
132 0.2
133 11
134 7
135 15
136 0.7
137 11
139 8
141 2
143 0.2
145 6.5
146 3
147 11
148 0.5
149 9
151 9
152 5
153 0.3
154 1
155 2
157 2
159 0.5
160 2
161 9
162 3
163 0.8
165 24
166 5
167 3
171 0.2
173 3
174 4
177 6
178 0.3
179 3
181 2
185 2
187 0.3
189 3
190 1.5
191 4
192 0.25
193 4
195 1
200 1
201 0.2
203 3
205 6
207 2
208 0.1
209 2
217 3
218 2
219 0.4
237 2
255 1.1
259 1
270 0.1
273 1.4
283 1
288 1
298 0.14
301 1
316 2.4
334 14.6
335 3.6

$$$$

     RDKit          2D

 24 26  0  0  1  0  0  0  0  0999 V2000
   -4.0556    0.1406    0.0000 C   0  0  0  0  0  0  0  0  0  0  0  0
    0.6709   -0.0242    0.0000 C   0  0  0  0  0  0  0  0  0  0  0  0
   -4.0556    5.3284    0.0000 C   0  0  0  0  0  0  0  0  0  0  0  0
    0.2916    2.6372    0.0000 C   0  0  0  0  0  0  0  0  0  0  0  0
   -1.0554    0.1395    0.0000 C   0  0  0  0  0  0  0  0  0  0  0  0
   -2.5554    0.1395    0.0000 C   0  0  0  0  0  0  0  0  0  0  0  0
   -4.8054    1.4395    0.0000 C   0  0  0  0  0  0  0  0  0  0  0  0
   -5.5554    2.7395    0.0000 C   0  0  0  0  0  0  0  0  0  0  0  0
   -1.0554    5.3295    0.0000 C   0  0  0  0  0  0  0  0  0  0  0  0
   -0.3054    1.4395    0.0000 C   0  0  0  0  0  0  0  0  0  0  0  0
   -2.5554    5.3295    0.0000 C   0  0  0  0  0  0  0  0  0  0  0  0
    1.1946    4.0295    0.0000 C   0  0  0  0  0  0  0  0  0  0  0  0
   -3.3054    1.4395    0.0000 C   0  0  0  0  0  0  0  0  0  0  0  0
   -0.4945    2.6749    0.0000 C   0  0  0  0  0  0  0  0  0  0  0  0
   -0.3054    4.0295    0.0000 C   0  0  0  0  0  0  0  0  0  0  0  0
   -4.8054    4.0295    0.0000 C   0  0  0  0  0  0  0  0  0  0  0  0
    1.9446    2.7295    0.0000 C   0  0  0  0  0  0  0  0  0  0  0  0
   -1.8054    2.0732    0.0000 C   0  0  0  0  0  0  0  0  0  0  0  0
   -3.3054    4.0295    0.0000 C   0  0  0  0  0  0  0  0  0  0  0  0
    1.1946    1.4395    0.0000 C   0  0  0  0  0  0  0  0  0  0  0  0
   -5.5534    5.3297    0.0000 O   0  0  0  0  0  0  0  0  0  0  0  0
   -1.8054    0.5732    0.0000 O   0  0  0  0  0  0  0  0  0  0  0  0
    2.6927    1.4316    0.0000 O   0  0  0  0  0  0  0  0  0  0  0  0
   -3.1162    2.6749    0.0000 O   0  0  0  0  0  0  0  0  0  0  0  0
  6  5  1  0
  8  7  1  0
 10  5  1  0
 11  9  1  0
 13  1  1  0
  6 13  2  3
 13  7  1  0
 14  2  2  0
 15  9  1  0
 15 12  1  6
 15 14  1  0
 16  8  1  0
 17 12  1  6
 18 14  1  0
 19  3  1  6
 19 11  1  0
 19 16  1  0
 20  4  1  6
 20 10  1  0
 20 17  1  0
 16 21  1  6
 22 18  2  0
 17 23  1  0
 23 20  1  0
 24 18  1  0
 24 19  1  0
M  END
>  <NAME>  (989) 
SINULARIOLIDE

>  <SYNONYMS>  (989) 


>  <SPECTRUM TYPE>  (989) 
MS1

>  <INSTRUMENT TYPE>  (989) 
EI-B

>  <INSTRUMENT>  (989) 
HITACHI RMU-6L

>  <ION MODE>  (989) 
P

>  <INCHIKEY>  (989) 
FONRUOAYELOHDC-ZOOQSLMQSA-N

>  <FORMULA>  (989) 
C20H30O4

>  <EXACT MASS>  (989) 
334.21440944

>  <MW>  (989) 
334

>  <ID>  (989) 
JP010666

>  <CONTRIBUTOR>  (989) 
University of Tokyo Team, {Faculty of Engineering, University of Tokyo

>  <COMMENT>  (989) 
SMILES=CC(C2)=C([H])CCC(C)(O1)C([H])(CC([H])(C3)C(=C)C(=O)OC(C)(C3)C([H])(O)C2)1
InChI=InChI=1S/C20H30O4/c1-13-6-5-10-20(4)17(23-20)12-15-9-11-19(3,16(21)8-7-13)24-18(22)14(15)2/h6,15-17,21H,2,5,7-12H2,1,3-4H3/b13-6+/t15-,16+,17+,19-,20+/m1/s1
computed SMILES=O=C1OC2(C)CCC(C1=C)CC3OC3(C)CCC=C(C)CCC2O
computed InChI=InChI=1S/C20H30O4/c1-13-6-5-10-20(4)17(23-20)12-15-9-11-19(3,16(21)8-7-13)24-18(22)14(15)2/h6,15-17,21H,2,5,7-12H2,1,3-4H3/t15-,16+,17+,19-,20+/m1/s1
accession=JP010666
license=CC BY-NC-SA
date=2016.01.19 (Created 2008.10.21, modified 2011.05.06)
author=EGUCHI S, FAC. OF SCIENCE, HIROSHIMA UNIV.
exact mass=334.21441
ionization energy=70 eV
ion type=[M]+*
computed spectral entropy=4.165575080622458
computed normalized entropy=0.822814199723146
SPLASH=splash10-0006-9500000000-15f153bfd6ca24fc2de6
submitter=submitter = University of Tokyo Team (Faculty of Engineering, University of Tokyo)
MoNA Rating=3.75

>  <NUM PEAKS>  (989) 
158

>  <MASS SPECTRAL PEAKS>  (989) 
41 59
42 5
43 99.99
44 1.4
45 7
51 2
52 1
53 2.9
54 4.5
55 45
56 4
57 1
58 5
59 1.5
65 8
66 0.5
67 39
68 24
69 27
70 0.2
71 15
72 4
73 3
74 0.1
77 16.5
78 3
79 30
80 0.95
81 52
82 9
83 13
84 1.2
85 7
87 1.5
91 18
92 0.5
93 47
94 17
95 32
96 0.8
97 12
98 3
99 2
103 0.1
105 17
106 7
107 26.5
108 2
109 27
110 9
111 15.5
112 0.3
113 2
117 4
118 2
119 1.9
120 8
121 19
122 10
123 1.6
125 7
129 2
131 6
132 0.4
133 15
134 9
135 17
136 0.7
137 13
138 7
139 9
140 0.2
143 2
145 8
146 3
147 1.7
148 6
149 11
150 6
151 1.4
152 7
153 3
154 1
155 0.2
157 2
158 1
159 6
160 0.3
161 10
162 4
163 10
164 0.7
165 15
166 3
167 5
168 0.2
169 1
171 2
172 3
174 0.2
175 5
176 3
177 7
178 0.4
179 2
180 2
185 3
186 0.1
187 4
188 1
189 4
190 0.2
191 4
192 3
193 7
194 0.2
197 1.5
199 2
201 2
202 0.1
203 3
204 2
205 6
207 0.2
209 2
211 1
213 2
215 0.1
217 3
218 1
219 2
220 0.1
221 3
222 1
227 1.5
229 0.1
231 2
232 1
233 2
235 0.2
237 1
239 1
243 1
245 0.2
247 1
251 1.3
255 1
259 0.12
270 1.2
273 1.4
283 1
288 0.12
298 2
301 0.8
316 3.6
317 0.1
334 2.2
335 0.5

$$$$

     RDKit          2D

 24 26  0  0  1  0  0  0  0  0999 V2000
   -1.3000   -2.2500    0.0000 C   0  0  0  0  0  0  0  0  0  0  0  0
   -0.0023    4.5007    0.0000 C   0  0  0  0  0  0  0  0  0  0  0  0
   -5.7127    2.9096    0.0000 C   0  0  0  0  0  0  0  0  0  0  0  0
    3.4944    2.7042    0.0000 C   0  0  0  0  0  0  0  0  0  0  0  0
   -3.9000   -0.7500    0.0000 C   0  0  0  0  0  0  0  0  0  0  0  0
   -2.6000   -0.0000    0.0000 C   0  0  0  0  0  0  0  0  0  0  0  0
    0.0000    0.0000    0.0000 C   0  0  0  0  0  0  0  0  0  0  0  0
    1.3000   -0.7500    0.0000 C   0  0  0  0  0  0  0  0  0  0  0  0
    0.0000    1.5000    0.0000 C   0  0  0  0  0  0  0  0  0  0  0  0
   -5.2000   -0.0000    0.0000 C   0  0  0  0  0  0  0  0  0  0  0  0
    1.3000    2.2500    0.0000 C   0  0  0  0  0  0  0  0  0  0  0  0
   -2.6000    1.5000    0.0000 C   0  0  0  0  0  0  0  0  0  0  0  0
   -1.3000   -0.7500    0.0000 C   0  0  0  0  0  0  0  0  0  0  0  0
   -1.3011    3.7502    0.0000 C   0  0  0  0  0  0  0  0  0  0  0  0
   -1.3000    2.2500    0.0000 C   0  0  0  0  0  0  0  0  0  0  0  0
    2.6000   -0.0000    0.0000 C   0  0  0  0  0  0  0  0  0  0  0  0
   -3.9000    2.2500    0.0000 C   0  0  0  0  0  0  0  0  0  0  0  0
   -2.6000    4.5000    0.0000 C   0  0  0  0  0  0  0  0  0  0  0  0
   -5.2000    1.5000    0.0000 C   0  0  0  0  0  0  0  0  0  0  0  0
    2.6000    1.5000    0.0000 C   0  0  0  0  0  0  0  0  0  0  0  0
   -2.6000    6.0000    0.0000 O   0  0  0  0  0  0  0  0  0  0  0  0
   -6.6772    1.2397    0.0000 O   0  0  0  0  0  0  0  0  0  0  0  0
   -3.8989    3.7502    0.0000 O   0  0  0  0  0  0  0  0  0  0  0  0
    3.8990    0.7500    0.0000 O   0  0  0  0  0  0  0  0  0  0  0  0
  6  5  1  0
  8  7  1  0
 10  5  1  0
 11  9  1  0
 13  1  1  0
  6 13  2  0
 13  7  1  0
 14  2  1  1
 15  9  1  6
 15 12  1  0
 15 14  1  0
 16  8  1  1
 17 12  1  0
 18 14  1  0
 19  3  1  1
 19 10  1  0
 19 17  1  0
 20  4  1  1
 20 11  1  0
 20 16  1  0
 21 18  2  0
 19 22  1  0
 17 23  1  6
 23 18  1  0
 16 24  1  0
 24 20  1  0
M  END
>  <NAME>  (990) 
DIHYDROFLEXIBILIDE

>  <SYNONYMS>  (990) 


>  <SPECTRUM TYPE>  (990) 
MS1

>  <INSTRUMENT TYPE>  (990) 
EI-B

>  <INSTRUMENT>  (990) 
HITACHI RMU-6L

>  <ION MODE>  (990) 
P

>  <INCHIKEY>  (990) 
WDEIQHZSEQJHHX-DLJWBEQKSA-N

>  <FORMULA>  (990) 
C20H32O4

>  <EXACT MASS>  (990) 
336.230059504

>  <MW>  (990) 
336

>  <ID>  (990) 
JP010665

>  <CONTRIBUTOR>  (990) 
University of Tokyo Team, {Faculty of Engineering, University of Tokyo

>  <COMMENT>  (990) 
SMILES=CC(=C2)CCC([H])(O1)C(C)(CCC([H])(C(C)3)CC([H])(OC(=O)3)C(C)(O)CC2)1
InChI=InChI=1S/C20H32O4/c1-13-6-5-10-19(3,22)17-12-15(14(2)18(21)23-17)9-11-20(4)16(24-20)8-7-13/h6,14-17,22H,5,7-12H2,1-4H3/b13-6+/t14-,15+,16-,17+,19-,20-/m0/s1
computed SMILES=O=C1OC2CC(CCC3(OC3CCC(=CCCC2(O)C)C)C)C1C
accession=JP010665
date=2016.01.19 (Created 2008.10.21, modified 2011.05.06)
author=EGUCHI S, FAC. OF SCIENCE, HIROSHIMA UNIV.
license=CC BY-NC-SA
exact mass=336.23006
ionization energy=70 eV
ion type=[M]+*
computed spectral entropy=4.161917438208341
computed normalized entropy=0.8284268347821422
SPLASH=splash10-0006-9510000000-eb79b5114a3d08fc889b
submitter=submitter = University of Tokyo Team (Faculty of Engineering, University of Tokyo)
MoNA Rating=3.75

>  <NUM PEAKS>  (990) 
152

>  <MASS SPECTRAL PEAKS>  (990) 
41 45.5
42 5.5
43 99.99
44 0.55
45 9.1
53 12.7
54 5.5
55 4.36
56 4.5
57 8.2
58 6.4
59 0.27
65 3.6
66 1.8
67 20.9
68 1
69 19.1
70 3.6
71 14.5
72 0.27
77 6.4
78 1.8
79 12.7
80 0.45
81 30
82 10
83 7.3
84 0.36
85 5.5
91 6.4
92 3.6
93 2.36
94 14.5
95 27.3
96 7.3
97 1.27
98 4.5
99 2.7
105 5.5
106 0.27
107 16.4
108 10.9
109 20
110 0.73
111 10.9
112 2.7
113 9.1
119 0.91
120 5.5
121 12.7
122 5.5
123 1.27
124 9.1
125 8.2
126 3.6
131 0.27
132 1.4
133 7.3
134 3.6
135 0.91
136 4.5
137 7.3
138 5.5
139 0.73
140 1.8
141 1
145 3.6
146 0.18
147 5.5
148 1.8
149 5
150 0.36
151 8.2
152 3.6
153 3.2
159 0.36
160 1.8
161 5.5
162 1.8
163 0.36
164 4.5
165 7.3
166 3.6
167 0.55
168 1.8
169 2.7
173 2.7
174 0.1
175 2.7
176 1
177 5.5
178 0.36
179 4.5
180 1.8
187 1.8
188 0.1
189 1.8
190 1
191 2.7
192 0.18
193 2.7
194 1.8
195 4.5
196 0.18
197 1.8
201 1.8
203 1.6
204 0.11
205 2.5
206 1.4
207 2.7
208 0.14
209 3.6
210 2.1
211 1.6
215 0.11
217 1.6
219 2.3
220 1.1
221 0.18
223 1.8
227 1.4
229 1.4
231 0.14
233 1.6
234 1.1
235 2.3
236 0.11
237 1.8
244 1.1
245 2.3
247 0.18
257 1.4
260 1.4
261 1.8
262 0.11
263 1.1
272 1
275 1.8
276 0.1
279 1
285 1.1
290 1.6
293 0.1
300 1.4
303 1.6
308 1
318 0.36
319 1.4
321 1
336 1.6
337 0.7

$$$$

     RDKit          2D

 24 26  0  0  1  0  0  0  0  0999 V2000
   -1.3000   -2.2500    0.0000 C   0  0  0  0  0  0  0  0  0  0  0  0
   -0.0023    4.5007    0.0000 C   0  0  0  0  0  0  0  0  0  0  0  0
   -5.7127    2.9096    0.0000 C   0  0  0  0  0  0  0  0  0  0  0  0
    3.4944    2.7042    0.0000 C   0  0  0  0  0  0  0  0  0  0  0  0
   -3.9000   -0.7500    0.0000 C   0  0  0  0  0  0  0  0  0  0  0  0
   -2.6000   -0.0000    0.0000 C   0  0  0  0  0  0  0  0  0  0  0  0
    0.0000    0.0000    0.0000 C   0  0  0  0  0  0  0  0  0  0  0  0
    1.3000   -0.7500    0.0000 C   0  0  0  0  0  0  0  0  0  0  0  0
    0.0000    1.5000    0.0000 C   0  0  0  0  0  0  0  0  0  0  0  0
   -5.2000   -0.0000    0.0000 C   0  0  0  0  0  0  0  0  0  0  0  0
    1.3000    2.2500    0.0000 C   0  0  0  0  0  0  0  0  0  0  0  0
   -2.6000    1.5000    0.0000 C   0  0  0  0  0  0  0  0  0  0  0  0
   -1.3000   -0.7500    0.0000 C   0  0  0  0  0  0  0  0  0  0  0  0
   -1.3011    3.7502    0.0000 C   0  0  0  0  0  0  0  0  0  0  0  0
   -1.3000    2.2500    0.0000 C   0  0  0  0  0  0  0  0  0  0  0  0
    2.6000   -0.0000    0.0000 C   0  0  0  0  0  0  0  0  0  0  0  0
   -3.9000    2.2500    0.0000 C   0  0  0  0  0  0  0  0  0  0  0  0
   -2.6000    4.5000    0.0000 C   0  0  0  0  0  0  0  0  0  0  0  0
   -5.2000    1.5000    0.0000 C   0  0  0  0  0  0  0  0  0  0  0  0
    2.6000    1.5000    0.0000 C   0  0  0  0  0  0  0  0  0  0  0  0
   -2.6000    6.0000    0.0000 O   0  0  0  0  0  0  0  0  0  0  0  0
   -6.6772    1.2397    0.0000 O   0  0  0  0  0  0  0  0  0  0  0  0
   -3.8989    3.7502    0.0000 O   0  0  0  0  0  0  0  0  0  0  0  0
    3.8990    0.7500    0.0000 O   0  0  0  0  0  0  0  0  0  0  0  0
  6  5  1  0
  8  7  1  0
 10  5  1  0
 11  9  1  0
 13  1  1  0
  6 13  2  0
 13  7  1  0
 14  2  2  0
 15  9  1  6
 15 12  1  0
 15 14  1  0
 16  8  1  1
 17 12  1  0
 18 14  1  0
 19  3  1  1
 19 10  1  0
 19 17  1  0
 20  4  1  1
 20 11  1  0
 20 16  1  0
 21 18  2  0
 19 22  1  0
 17 23  1  6
 23 18  1  0
 16 24  1  0
 24 20  1  0
M  END
>  <NAME>  (991) 
FLEXIBILIDE

>  <SYNONYMS>  (991) 


>  <SPECTRUM TYPE>  (991) 
MS1

>  <INSTRUMENT TYPE>  (991) 
EI-B

>  <INSTRUMENT>  (991) 
HITACHI RMU-6L

>  <ION MODE>  (991) 
P

>  <INCHIKEY>  (991) 
YKKJETNBRNDYKN-JZZWRREUSA-N

>  <FORMULA>  (991) 
C20H30O4

>  <EXACT MASS>  (991) 
334.21440944

>  <MW>  (991) 
334

>  <ID>  (991) 
JP010663

>  <CONTRIBUTOR>  (991) 
University of Tokyo Team, {Faculty of Engineering, University of Tokyo

>  <COMMENT>  (991) 
SMILES=CC(=C2)CCC([H])(O1)C(C)(CCC([H])(C(=C)3)CC([H])(OC(=O)3)C(C)(O)CC2)1
InChI=InChI=1S/C20H30O4/c1-13-6-5-10-19(3,22)17-12-15(14(2)18(21)23-17)9-11-20(4)16(24-20)8-7-13/h6,15-17,22H,2,5,7-12H2,1,3-4H3/b13-6+/t15-,16+,17-,19+,20+/m1/s1
computed SMILES=O=C1OC2CC(C1=C)CCC3(OC3CCC(=CCCC2(O)C)C)C
accession=JP010663
date=2016.01.19 (Created 2008.10.21, modified 2011.05.06)
author=EGUCHI S, FAC. OF SCIENCE, HIROSHIMA UNIV.
license=CC BY-NC-SA
exact mass=334.21441
ionization energy=70 eV
ion type=[M]+*
computed spectral entropy=4.081077936330559
computed normalized entropy=0.8223263552211649
SPLASH=splash10-052f-9500000000-9078b8432f9898718620
submitter=submitter = University of Tokyo Team (Faculty of Engineering, University of Tokyo)
MoNA Rating=3.75

>  <NUM PEAKS>  (991) 
143

>  <MASS SPECTRAL PEAKS>  (991) 
41 57.5
42 5.8
43 99.99
44 0.75
45 10.6
51 2.2
52 2.2
53 3.76
54 6.6
55 55.7
56 3.1
57 0.88
58 9.7
59 2.7
65 8.4
66 0.44
67 39.8
68 15
69 27
70 0.31
71 23.9
72 3.1
73 1.3
74 0.1
77 15
78 3.1
79 31.8
80 0.75
81 46.9
82 16.8
83 11.9
84 0.44
85 4.9
91 17.3
92 5.3
93 3.98
94 16.8
95 37.2
96 8
97 1.77
98 2.7
99 2.2
105 13.3
106 0.53
107 23.9
108 14.6
109 23
110 0.71
111 12.8
112 4
113 2.7
117 0.27
118 1.8
119 12.8
120 5.3
121 1.9
122 9.7
123 18.6
124 9.7
125 1.02
126 1.8
127 1.3
131 4.4
132 0.18
133 11.9
134 6.2
135 12.4
136 0.58
137 10.2
138 8.4
139 6.6
140 0.22
141 1.3
143 1.3
145 5.3
146 0.27
147 10.6
148 5.8
149 12.8
150 0.53
151 10.2
152 4
153 2.2
157 0.18
159 3.5
160 1.8
161 7.1
162 0.49
163 8
164 6.2
165 12.4
166 0.62
167 6.6
168 1.3
169 1.3
171 0.13
173 2.7
174 1.3
175 4.9
176 0.22
177 5.3
178 2.6
179 2.6
180 0.18
181 1.8
185 1.3
187 2.2
189 0.31
190 2.6
191 4
192 3.1
193 0.62
194 1.3
195 2.6
201 1.4
203 0.29
204 1.5
205 3.9
206 1.4
207 0.19
208 1.4
209 2.8
215 1.2
217 0.2
218 1.2
219 1.3
221 1.8
227 0.11
231 1.7
233 1.7
235 2
245 0.15
255 1
259 1.2
273 1.9
288 0.1
291 1
298 0.7
299 1
301 0.1
316 1.4
319 0.8
334 0.8

$$$$

     RDKit          2D

 28 29  0  0  1  0  0  0  0  0999 V2000
    1.6002    4.4689    0.0000 C   0  0  0  0  0  0  0  0  0  0  0  0
   -4.4002   -0.7189    0.0000 C   0  0  0  0  0  0  0  0  0  0  0  0
   -2.1504    5.7681    0.0000 C   0  0  0  0  0  0  0  0  0  0  0  0
    5.3461   -2.0226    0.0000 C   0  0  0  0  0  0  0  0  0  0  0  0
    1.6002   -0.7189    0.0000 C   0  0  0  0  0  0  0  0  0  0  0  0
    2.3500    3.1700    0.0000 C   0  0  0  0  0  0  0  0  0  0  0  0
   -4.4000    1.8800    0.0000 C   0  0  0  0  0  0  0  0  0  0  0  0
   -3.6500    3.1700    0.0000 C   0  0  0  0  0  0  0  0  0  0  0  0
    3.1000    1.8700    0.0000 C   0  0  0  0  0  0  0  0  0  0  0  0
   -1.4000   -0.7200    0.0000 C   0  0  0  0  0  0  0  0  0  0  0  0
    0.1000   -0.7200    0.0000 C   0  0  0  0  0  0  0  0  0  0  0  0
    0.1000    4.4700    0.0000 C   0  0  0  0  0  0  0  0  0  0  0  0
   -4.4002    4.4687    0.0000 C   0  0  0  0  0  0  0  0  0  0  0  0
    0.8500    3.1700    0.0000 C   0  0  0  0  0  0  0  0  0  0  0  0
   -3.6500    0.5800    0.0000 C   0  0  0  0  0  0  0  0  0  0  0  0
   -2.9002    4.4689    0.0000 C   0  0  0  0  0  0  0  0  0  0  0  0
    4.5980   -0.7224    0.0000 C   0  0  0  0  0  0  0  0  0  0  0  0
   -2.1500    3.1700    0.0000 C   0  0  0  0  0  0  0  0  0  0  0  0
   -1.4000    4.4700    0.0000 C   0  0  0  0  0  0  0  0  0  0  0  0
   -2.1500    0.5800    0.0000 C   0  0  0  0  0  0  0  0  0  0  0  0
    2.3500    0.5800    0.0000 C   0  0  0  0  0  0  0  0  0  0  0  0
    0.8500    0.5800    0.0000 C   0  0  0  0  0  0  0  0  0  0  0  0
   -5.1504    5.7676    0.0000 O   0  0  0  0  0  0  0  0  0  0  0  0
    5.3500    0.5755    0.0000 O   0  0  0  0  0  0  0  0  0  0  0  0
   -0.6498    3.1711    0.0000 O   0  0  0  0  0  0  0  0  0  0  0  0
    3.0980   -0.7202    0.0000 O   0  0  0  0  0  0  0  0  0  0  0  0
   -1.3998    1.8783    0.0000 O   0  0  0  0  0  0  0  0  0  0  0  0
    0.0998    1.8783    0.0000 O   0  0  0  0  0  0  0  0  0  0  0  0
  8  7  1  0
  9  6  1  0
 11 10  1  0
 14  1  1  0
 14  6  1  0
 12 14  2  3
 15  2  1  0
  7 15  2  0
 16  3  2  0
 16 13  1  0
 17  4  1  0
 18  8  1  0
 18 16  1  6
 19 12  1  0
 19 18  1  0
 20 10  1  0
 20 15  1  0
 21  9  1  0
 22  5  1  6
 22 11  1  0
 22 21  1  0
 23 13  1  0
 24 17  2  0
 19 25  1  1
 26 17  1  0
 21 26  1  6
 27 20  1  0
 28 22  1  0
 28 27  1  0
M  END
>  <NAME>  (992) 
(1S,2S,3E,7S,8R,11S,12Z)-7-ACETOXY-2,17-DIHYDROXY-8,11-EPIDIOXYCEMBRA-3,12,15-TRIENE

>  <SYNONYMS>  (992) 


>  <SPECTRUM TYPE>  (992) 
MS1

>  <INSTRUMENT TYPE>  (992) 
EI-B

>  <INSTRUMENT>  (992) 
HITACHI RMU-6L

>  <ION MODE>  (992) 
P

>  <INCHIKEY>  (992) 
PAOCQIUKPAMWJR-GPLAYYROSA-N

>  <FORMULA>  (992) 
C22H34O6

>  <EXACT MASS>  (992) 
394.235538808

>  <MW>  (992) 
394

>  <ID>  (992) 
JP010662

>  <CONTRIBUTOR>  (992) 
University of Tokyo Team, {Faculty of Engineering, University of Tokyo

>  <COMMENT>  (992) 
SMILES=OCC(=C)C([H])(C1)C([H])(O)C([H])=C(C)CCC([H])(OC(C)=O)C(C)(C2)OOC([H])(C2)C(C)=C([H])1
InChI=InChI=1S/C22H34O6/c1-14-6-9-21(26-17(4)24)22(5)11-10-20(27-28-22)15(2)7-8-18(16(3)13-23)19(25)12-14/h7,12,18-21,23,25H,3,6,8-11,13H2,1-2,4-5H3/b14-12+,15-7-/t18-,19-,20?,21-,22+/m0/s1
computed SMILES=O=C(OC1CCC(=CC(O)C(C(=C)CO)CC=C(C)C2OOC1(C)CC2)C)C
computed InChI=InChI=1S/C22H34O6/c1-14-6-9-21(26-17(4)24)22(5)11-10-20(27-28-22)15(2)7-8-18(16(3)13-23)19(25)12-14/h7,12,18-21,23,25H,3,6,8-11,13H2,1-2,4-5H3/b14-12?,15-7-/t18-,19-,20?,21-,22+/m0/s1
accession=JP010662
date=2016.01.19 (Created 2008.10.21, modified 2011.05.06)
author=EGUCHI S, FAC. OF SCIENCE, HIROSHIMA UNIV.
license=CC BY-NC-SA
exact mass=394.23554
ionization energy=70 eV
ion type=[M]+*
computed spectral entropy=3.8639778022198956
computed normalized entropy=0.8029571431331542
SPLASH=splash10-0006-9400000000-2a0ef2b7141814349ed0
submitter=submitter = University of Tokyo Team (Faculty of Engineering, University of Tokyo)
MoNA Rating=3.75

>  <NUM PEAKS>  (992) 
123

>  <MASS SPECTRAL PEAKS>  (992) 
40 2.4
41 23.2
42 3.2
43 99.99
44 4
45 3.6
47 2
50 0.12
51 2.4
52 1.6
53 9.6
54 0.32
55 20.8
56 4
57 6.4
58 0.16
59 1.2
60 1.6
61 1.2
65 0.4
66 2.4
67 9.6
68 3.2
69 0.88
70 1.6
71 9.6
72 1.2
77 0.88
78 3.2
79 15.5
80 4.8
81 2.48
82 7.2
83 12.8
84 16
85 0.56
86 1.6
87 1.6
91 14
92 0.36
93 13.6
94 3.2
95 16.8
96 0.44
97 11.2
98 2
99 20.8
100 0.24
101 2.8
103 1.6
105 8.4
106 0.4
107 12.4
108 5.6
109 10.4
110 0.32
111 4.8
112 1.2
113 2.4
115 0.16
117 2.8
118 2
119 4.8
120 0.28
121 6.4
122 2.8
123 4
124 0.24
125 2.8
126 1.6
127 5.6
128 0.2
130 1.2
131 4
132 2.4
133 0.48
134 2.8
135 6.8
136 5.6
137 0.32
138 1.6
139 2
141 1.2
142 0.12
143 1.6
144 1.2
145 3.2
146 0.16
147 4.4
148 2.8
149 5.2
150 0.2
151 2
152 1.6
153 8.8
154 0.2
155 2
157 1.2
159 1.6
161 0.16
162 1.6
163 1.6
164 1.2
165 0.16
167 1.2
169 3.2
175 1.6
189 0.16
190 1.2
191 1.2
193 1.2
207 0.17
208 0.8
209 0.5
213 1.1
214 0.03
215 0.5
225 0.5
253 0.6
316 0.05
358 0.2
376 0.5
394 0.3

$$$$

     RDKit          2D

 27 29  0  0  1  0  0  0  0  0999 V2000
    3.0980   -0.7202    0.0000 C   0  0  0  0  0  0  0  0  0  0  0  0
   -5.9000    1.8825    0.0000 C   0  0  0  0  0  0  0  0  0  0  0  0
   -3.2901   -2.6101    0.0000 C   0  0  0  0  0  0  0  0  0  0  0  0
    0.8506    8.3670    0.0000 C   0  0  0  0  0  0  0  0  0  0  0  0
   -0.8729    5.8743    0.0000 C   0  0  0  0  0  0  0  0  0  0  0  0
    3.1000    1.8700    0.0000 C   0  0  0  0  0  0  0  0  0  0  0  0
   -3.6500    0.5800    0.0000 C   0  0  0  0  0  0  0  0  0  0  0  0
   -2.1500    0.5800    0.0000 C   0  0  0  0  0  0  0  0  0  0  0  0
    0.8500    3.1700    0.0000 C   0  0  0  0  0  0  0  0  0  0  0  0
   -3.9656    4.7662    0.0000 C   0  0  0  0  0  0  0  0  0  0  0  0
   -2.6253    5.5406    0.0000 C   0  0  0  0  0  0  0  0  0  0  0  0
    0.8500    0.5800    0.0000 C   0  0  0  0  0  0  0  0  0  0  0  0
    2.3500    0.5800    0.0000 C   0  0  0  0  0  0  0  0  0  0  0  0
   -4.4000    1.8800    0.0000 C   0  0  0  0  0  0  0  0  0  0  0  0
   -1.8635   -2.1466    0.0000 C   0  0  0  0  0  0  0  0  0  0  0  0
    0.1004    7.0681    0.0000 C   0  0  0  0  0  0  0  0  0  0  0  0
   -1.4000   -0.7200    0.0000 C   0  0  0  0  0  0  0  0  0  0  0  0
   -3.6500    3.1700    0.0000 C   0  0  0  0  0  0  0  0  0  0  0  0
    0.1000   -0.7200    0.0000 C   0  0  0  0  0  0  0  0  0  0  0  0
    0.1000    4.4700    0.0000 C   0  0  0  0  0  0  0  0  0  0  0  0
   -0.6500   -3.0283    0.0000 C   0  0  0  0  0  0  0  0  0  0  0  0
   -1.4000    4.4700    0.0000 C   0  0  0  0  0  0  0  0  0  0  0  0
   -1.3996    7.0683    0.0000 O   0  0  0  0  0  0  0  0  0  0  0  0
   -0.6500   -4.5283    0.0000 O   0  0  0  0  0  0  0  0  0  0  0  0
    0.8502    5.7689    0.0000 O   0  0  0  0  0  0  0  0  0  0  0  0
    0.5635   -2.1466    0.0000 O   0  0  0  0  0  0  0  0  0  0  0  0
   -2.1500    3.1700    0.0000 O   0  0  0  0  0  0  0  0  0  0  0  0
  8  7  1  0
  9  6  1  0
 11 10  1  0
 13  1  1  0
 13  6  1  0
 12 13  2  0
 14  2  1  0
  7 14  2  0
 15  3  2  0
 16  4  1  0
 17  8  1  6
 17 15  1  0
 18 10  2  0
 18 14  1  0
 19 12  1  6
 19 17  1  0
 20  9  1  0
 21 15  1  0
 22  5  1  0
 22 11  1  0
 22 20  1  0
 23 16  2  0
 24 21  2  0
 25 16  1  0
 20 25  1  1
 19 26  1  0
 26 21  1  0
 27 18  1  0
 27 22  1  0
M  END
>  <NAME>  (993) 
(1S,2S,3E,7S,8R,10E,12Z)-7-ACETOXY-8,11-EPOXYCEMBRA-3,10,12,15-TETRAEN-17,2-OLIDE

>  <SYNONYMS>  (993) 


>  <SPECTRUM TYPE>  (993) 
MS1

>  <INSTRUMENT TYPE>  (993) 
EI-B

>  <INSTRUMENT>  (993) 
HITACHI RMU-6L

>  <ION MODE>  (993) 
P

>  <INCHIKEY>  (993) 
XVOSSVQHIXQCPL-AHLZJXBASA-N

>  <FORMULA>  (993) 
C22H28O5

>  <EXACT MASS>  (993) 
372.193673996

>  <MW>  (993) 
372

>  <ID>  (993) 
JP010661

>  <CONTRIBUTOR>  (993) 
University of Tokyo Team, {Faculty of Engineering, University of Tokyo

>  <COMMENT>  (993) 
SMILES=CC(=O)OC([H])(C2)C(C)(C1)OC(C(C)=C([H])CC([H])(C(=C)3)C([H])(OC(=O)3)C([H])=C(C)C2)=C([H])1
InChI=InChI=1S/C22H28O5/c1-13-6-9-20(25-16(4)23)22(5)11-10-18(27-22)14(2)7-8-17-15(3)21(24)26-19(17)12-13/h7,10,12,17,19-20H,3,6,8-9,11H2,1-2,4-5H3/b13-12+,14-7-/t17-,19-,20-,22?/m0/s1
computed SMILES=O=C1OC2C=C(C)CCC(OC(=O)C)C3(OC(=CC3)C(=CCC2C1=C)C)C
accession=JP010661
date=2016.01.19 (Created 2008.10.21, modified 2011.05.06)
author=EGUCHI S, FAC. OF SCIENCE, HIROSHIMA UNIV.
license=CC BY-NC-SA
exact mass=372.19367
ionization energy=70 eV
ion type=[M]+*
computed spectral entropy=4.4173842716219
computed normalized entropy=0.844445144455446
SPLASH=splash10-0006-9821000000-39135b76e29dd9e03493
submitter=submitter = University of Tokyo Team (Faculty of Engineering, University of Tokyo)
MoNA Rating=3.75

>  <NUM PEAKS>  (993) 
187

>  <MASS SPECTRAL PEAKS>  (993) 
40 3
41 32
42 3.3
43 99.99
44 4.7
45 2.7
47 2
51 0.4
52 2.3
53 16
54 4.7
55 2.23
56 3.3
57 6.7
59 1.7
61 0.17
63 2
65 8.7
66 3.3
67 1.1
68 2.7
69 8.7
70 2
71 0.47
77 20.7
78 5.3
79 16.7
80 0.53
81 13.3
82 6
83 6
84 0.43
85 3.3
86 2
91 30.7
92 0.93
93 16.7
94 5.7
95 10.7
96 0.43
97 4.7
99 3
103 3.3
104 0.27
105 15
106 4.7
107 10
108 0.5
109 12
110 3.3
111 3.3
115 0.63
116 3.3
117 8
118 3
119 1.1
120 6
121 15
122 13.3
123 0.57
125 2
127 2.7
128 4
129 0.5
130 2.7
131 7.3
132 3.7
133 0.73
134 4.3
135 55.7
136 15.3
137 0.57
138 1.7
141 3
142 2.7
143 0.53
144 3
145 6.7
146 3.3
147 0.77
148 14
149 7
150 2
151 0.2
155 2.7
156 2
157 4.3
158 0.27
159 6.3
160 3.3
161 6.7
162 0.3
163 3.3
164 2.7
165 3
166 0.2
167 2
169 3
170 2
171 0.53
172 2.7
173 6
174 2.7
175 0.5
176 3
177 6.3
178 2.7
181 0.2
183 4
184 2
185 4
186 0.33
187 3.7
188 2
189 2
190 0.23
191 2.7
192 1.7
193 1.7
195 0.2
197 2.3
199 3.3
200 3
201 0.43
202 2.7
203 3.3
204 2
205 0.2
207 1.7
209 2.3
211 2.7
213 0.27
214 2
215 3.7
216 2.3
217 0.27
218 2
219 2.3
220 1.7
223 0.2
225 2.3
227 2.7
228 2.8
229 0.33
230 2.3
231 3
232 2.3
233 0.23
239 2
241 2.3
242 1.7
243 0.33
244 2
245 4.7
246 2.3
247 0.17
251 2.7
253 2.7
254 2
255 0.27
256 1.7
257 2
262 1.7
266 0.17
267 1.7
269 7.3
270 2.7
271 0.5
272 1.7
273 2
279 2
283 0.2
284 3.3
287 2
288 1
297 0.5
298 1.3
311 1.3
312 20
313 0.56
314 1.3
315 1
329 3
330 0.37
331 1.3
372 13.3
373 3.3

$$$$

     RDKit          2D

 28 29  0  0  1  0  0  0  0  0999 V2000
    0.0160    1.3985    0.0000 C   0  0  0  0  0  0  0  0  0  0  0  0
   -2.2340   -2.4915    0.0000 C   0  0  0  0  0  0  0  0  0  0  0  0
    2.9439   -2.4791    0.0000 C   0  0  0  0  0  0  0  0  0  0  0  0
   -2.9845    6.5944    0.0000 C   0  0  0  0  0  0  0  0  0  0  0  0
   -3.3880    4.6469    0.0000 C   0  0  0  0  0  0  0  0  0  0  0  0
    0.0162    3.9974    0.0000 C   0  0  0  0  0  0  0  0  0  0  0  0
    0.0162   -1.1926    0.0000 C   0  0  0  0  0  0  0  0  0  0  0  0
    0.7662    0.1074    0.0000 C   0  0  0  0  0  0  0  0  0  0  0  0
   -1.4838    3.9974    0.0000 C   0  0  0  0  0  0  0  0  0  0  0  0
   -3.7338    0.1074    0.0000 C   0  0  0  0  0  0  0  0  0  0  0  0
   -4.4838    1.4074    0.0000 C   0  0  0  0  0  0  0  0  0  0  0  0
    2.2662    2.6974    0.0000 C   0  0  0  0  0  0  0  0  0  0  0  0
    0.7662    2.6974    0.0000 C   0  0  0  0  0  0  0  0  0  0  0  0
   -1.4838   -1.1926    0.0000 C   0  0  0  0  0  0  0  0  0  0  0  0
    3.2630   -1.0134    0.0000 C   0  0  0  0  0  0  0  0  0  0  0  0
   -2.2342    5.2955    0.0000 C   0  0  0  0  0  0  0  0  0  0  0  0
    2.2662    0.1074    0.0000 C   0  0  0  0  0  0  0  0  0  0  0  0
   -2.2338    0.1074    0.0000 C   0  0  0  0  0  0  0  0  0  0  0  0
    3.0162    1.3974    0.0000 C   0  0  0  0  0  0  0  0  0  0  0  0
   -2.2338    2.6974    0.0000 C   0  0  0  0  0  0  0  0  0  0  0  0
    4.6367   -0.4078    0.0000 C   0  0  0  0  0  0  0  0  0  0  0  0
   -3.7338    2.6974    0.0000 C   0  0  0  0  0  0  0  0  0  0  0  0
   -0.7342    5.2957    0.0000 O   0  0  0  0  0  0  0  0  0  0  0  0
   -1.4836    1.4063    0.0000 O   0  0  0  0  0  0  0  0  0  0  0  0
    5.9334   -1.1617    0.0000 O   0  0  0  0  0  0  0  0  0  0  0  0
   -5.1423    3.2133    0.0000 O   0  0  0  0  0  0  0  0  0  0  0  0
   -2.9840    3.9963    0.0000 O   0  0  0  0  0  0  0  0  0  0  0  0
    4.4833    1.0856    0.0000 O   0  0  0  0  0  0  0  0  0  0  0  0
  8  7  1  0
  9  6  1  0
 11 10  1  0
 13  1  1  0
 13  6  1  0
 12 13  2  0
 14  2  1  0
  7 14  2  0
 15  3  2  0
 16  4  1  0
 17  8  1  6
 17 15  1  0
 18 10  1  0
 18 14  1  0
 19 12  1  6
 19 17  1  0
 20  9  1  0
 21 15  1  0
 22  5  1  6
 22 11  1  0
 22 20  1  0
 23 16  2  0
 18 24  1  6
 25 21  2  0
 22 26  1  0
 27 16  1  0
 20 27  1  6
 19 28  1  0
 28 21  1  0
M  END
>  <NAME>  (994) 
(1S,2S,3E,7S,8R,11S,12Z)-7-ACETOXY-8,11-DIHYDROXYCEMBRA-3,12,15-TRIEN-17,2-OLIDE

>  <SYNONYMS>  (994) 


>  <SPECTRUM TYPE>  (994) 
MS1

>  <INSTRUMENT TYPE>  (994) 
EI-B

>  <INSTRUMENT>  (994) 
HITACHI RMU-6L

>  <ION MODE>  (994) 
P

>  <INCHIKEY>  (994) 
XRJDKHSLEVYNJE-SNTVFBAHSA-N

>  <FORMULA>  (994) 
C22H32O6

>  <EXACT MASS>  (994) 
392.21988874399995

>  <MW>  (994) 
392

>  <ID>  (994) 
JP010659

>  <CONTRIBUTOR>  (994) 
University of Tokyo Team, {Faculty of Engineering, University of Tokyo

>  <COMMENT>  (994) 
SMILES=CC(=O)OC([H])(C1)C(C)(O)CCC([H])(O)C(C)=C([H])CC([H])(C(=C)2)C([H])(OC(=O)2)C([H])=C(C)C1
InChI=InChI=1S/C22H32O6/c1-13-6-9-20(27-16(4)23)22(5,26)11-10-18(24)14(2)7-8-17-15(3)21(25)28-19(17)12-13/h7,12,17-20,24,26H,3,6,8-11H2,1-2,4-5H3/b13-12+,14-7-/t17-,18-,19-,20-,22+/m0/s1
computed SMILES=O=C1OC2C=C(C)CCC(OC(=O)C)C(O)(C)CCC(O)C(=CCC2C1=C)C
accession=JP010659
date=2016.01.19 (Created 2008.10.21, modified 2011.05.06)
author=EGUCHI S, FAC. OF SCIENCE, HIROSHIMA UNIV.
license=CC BY-NC-SA
exact mass=392.21989
ionization energy=70 eV
ion type=[M]+*
computed spectral entropy=4.5134426594571435
computed normalized entropy=0.8433412371724497
SPLASH=splash10-0006-9620000000-66762f541a6d54ace060
submitter=submitter = University of Tokyo Team (Faculty of Engineering, University of Tokyo)
MoNA Rating=3.75

>  <NUM PEAKS>  (994) 
211

>  <MASS SPECTRAL PEAKS>  (994) 
40 1.6
41 18.5
42 2
43 99.99
44 4
45 4
47 4
48 0.16
49 1.5
51 1.5
53 8.9
54 0.2
55 25
56 2.8
57 6.5
58 0.16
59 1.2
61 1.6
65 4
66 0.2
67 8.1
68 2.4
69 7.7
70 0.16
71 8.9
72 1.6
73 1.5
77 0.97
78 2.8
79 13.3
80 4.4
81 1.53
82 4
83 10.9
84 5.6
85 0.73
86 1.5
87 1.6
91 14.5
92 0.36
93 11.7
94 6.5
95 15.3
96 0.4
97 5.6
98 2
99 12.1
100 0.12
103 2.4
104 1.6
105 12.1
106 0.4
107 8.1
108 4
109 7.3
110 0.24
111 4.4
112 1.6
113 2.8
115 0.16
116 1.2
117 4.8
118 3.2
119 0.89
120 4
121 7.3
122 5.6
123 0.52
124 2
125 2.4
127 1.6
128 0.16
129 2.4
130 1.6
131 6.5
132 0.28
133 7.3
134 3.2
135 4.8
136 0.24
137 4
138 3.2
139 2.4
141 0.16
143 2.4
144 1.6
145 5.6
146 0.44
147 6.5
148 3.2
149 4.8
150 0.65
151 4
152 2
153 2
154 0.16
155 2.4
156 1.2
157 2.8
158 0.24
159 4.4
160 2.4
161 4
162 0.24
163 4.8
164 6.5
165 2.4
166 0.12
167 2
168 1.2
169 1.6
171 0.28
172 1.6
173 2.8
174 1.6
175 0.36
176 4
177 3.2
178 2.4
179 0.12
181 1.2
183 1.6
184 1.2
185 0.32
186 1.6
187 2.4
188 1.6
189 0.28
190 2.4
191 2
192 1.6
193 0.16
194 2.8
195 1.6
197 1.6
198 0.12
199 2.4
200 1.6
201 2.9
202 0.22
203 4.6
204 1.9
205 2.7
206 0.16
207 1.1
209 1.1
211 1.6
212 0.22
213 2.4
214 1.3
215 2.9
216 0.28
217 3.1
218 1.9
219 2.4
220 0.12
221 1.5
225 1.6
227 1.6
228 0.16
229 2.4
230 2.9
231 4.3
232 0.16
233 1.9
234 1.2
235 1.2
236 0.12
241 1.6
242 1.1
243 1.7
244 0.13
245 1.3
246 1.3
247 1.3
248 0.13
249 2.3
253 1.6
254 1
255 0.11
256 1.6
257 1.7
259 1.3
261 0.11
268 1.3
269 1.3
270 1.3
271 0.19
272 1.1
273 1
281 1.6
285 0.13
286 1.7
288 1.1
289 1.2
296 0.32
297 1.6
298 0.8
299 1.6
314 0.65
315 1.9
316 0.8
317 0.6
332 0.39
333 1.3
334 0.6
356 1.6
357 0.08
374 3.2
375 1.3
392 1

$$$$

     RDKit          2D

 26 27  0  0  1  0  0  0  0  0999 V2000
   -4.3980    4.4702    0.0000 C   0  0  0  0  0  0  0  0  0  0  0  0
    0.0998    1.8711    0.0000 C   0  0  0  0  0  0  0  0  0  0  0  0
   -2.1502   -2.0189    0.0000 C   0  0  0  0  0  0  0  0  0  0  0  0
    3.0278   -2.0065    0.0000 C   0  0  0  0  0  0  0  0  0  0  0  0
    0.8506   -4.6170    0.0000 C   0  0  0  0  0  0  0  0  0  0  0  0
   -1.4000    4.4700    0.0000 C   0  0  0  0  0  0  0  0  0  0  0  0
   -3.6500    0.5800    0.0000 C   0  0  0  0  0  0  0  0  0  0  0  0
   -2.1500    3.1700    0.0000 C   0  0  0  0  0  0  0  0  0  0  0  0
   -4.4000    1.8800    0.0000 C   0  0  0  0  0  0  0  0  0  0  0  0
    0.1000    4.4700    0.0000 C   0  0  0  0  0  0  0  0  0  0  0  0
   -2.1500    0.5800    0.0000 C   0  0  0  0  0  0  0  0  0  0  0  0
    2.3500    3.1700    0.0000 C   0  0  0  0  0  0  0  0  0  0  0  0
    0.8500    0.5800    0.0000 C   0  0  0  0  0  0  0  0  0  0  0  0
   -3.6500    3.1700    0.0000 C   0  0  0  0  0  0  0  0  0  0  0  0
    0.8500    3.1700    0.0000 C   0  0  0  0  0  0  0  0  0  0  0  0
   -1.4000   -0.7200    0.0000 C   0  0  0  0  0  0  0  0  0  0  0  0
    3.3468   -0.5408    0.0000 C   0  0  0  0  0  0  0  0  0  0  0  0
    0.1004   -3.3181    0.0000 C   0  0  0  0  0  0  0  0  0  0  0  0
    2.3500    0.5800    0.0000 C   0  0  0  0  0  0  0  0  0  0  0  0
    0.1000   -0.7200    0.0000 C   0  0  0  0  0  0  0  0  0  0  0  0
    3.1000    1.8700    0.0000 C   0  0  0  0  0  0  0  0  0  0  0  0
    4.7205    0.0648    0.0000 C   0  0  0  0  0  0  0  0  0  0  0  0
   -1.3996   -3.3183    0.0000 O   0  0  0  0  0  0  0  0  0  0  0  0
    6.0173   -0.6891    0.0000 O   0  0  0  0  0  0  0  0  0  0  0  0
    0.8502   -2.0189    0.0000 O   0  0  0  0  0  0  0  0  0  0  0  0
    4.5672    1.5583    0.0000 O   0  0  0  0  0  0  0  0  0  0  0  0
  8  6  1  0
  9  7  1  0
 10  6  1  0
 11  7  1  0
 14  1  1  0
  8 14  2  0
 14  9  1  0
 15  2  1  0
 15 10  1  0
 12 15  2  0
 16  3  1  0
 11 16  2  0
 17  4  2  0
 18  5  1  0
 19 13  1  6
 19 17  1  0
 20 13  1  0
 20 16  1  0
 21 12  1  6
 21 19  1  0
 22 17  1  0
 23 18  2  0
 24 22  2  0
 25 18  1  0
 20 25  1  6
 21 26  1  0
 26 22  1  0
M  END
>  <NAME>  (995) 
(1S,2S,3E,7E,11E,13S)-13-ACETOXYCEMBRA-3,7,11,15-TETRAEN-17,2-OLIDE

>  <SYNONYMS>  (995) 


>  <SPECTRUM TYPE>  (995) 
MS1

>  <INSTRUMENT TYPE>  (995) 
EI-B

>  <INSTRUMENT>  (995) 
HITACHI RMU-6L

>  <ION MODE>  (995) 
P

>  <INCHIKEY>  (995) 
XCKMFLVWQFOPHR-BDSHZVJHSA-N

>  <FORMULA>  (995) 
C22H30O4

>  <EXACT MASS>  (995) 
358.21440944

>  <MW>  (995) 
358

>  <ID>  (995) 
JP010658

>  <CONTRIBUTOR>  (995) 
University of Tokyo Team, {Faculty of Engineering, University of Tokyo

>  <COMMENT>  (995) 
SMILES=CC(C2)=C([H])CCC(C)=C([H])C([H])(O1)C([H])(CC([H])(OC(C)=O)C(C)=C([H])C2)C(=C)C(=O)1
InChI=InChI=1S/C22H30O4/c1-14-8-6-10-15(2)12-21-19(17(4)22(24)26-21)13-20(25-18(5)23)16(3)11-7-9-14/h8,11-12,19-21H,4,6-7,9-10,13H2,1-3,5H3/b14-8+,15-12+,16-11+/t19-,20-,21-/m0/s1
computed SMILES=O=C1OC2C=C(C)CCC=C(C)CCC=C(C)C(OC(=O)C)CC2C1=C
accession=JP010658
date=2016.01.19 (Created 2008.10.21, modified 2011.05.06)
author=EGUCHI S, FAC. OF SCIENCE, HIROSHIMA UNIV.
license=CC BY-NC-SA
exact mass=358.21441
ionization energy=70 eV
ion type=[M]+*
computed spectral entropy=4.503986423515434
computed normalized entropy=0.8549938680042749
SPLASH=splash10-052f-8920000000-0a932812fee13e16c1bb
submitter=submitter = University of Tokyo Team (Faculty of Engineering, University of Tokyo)
MoNA Rating=3.75

>  <NUM PEAKS>  (995) 
194

>  <MASS SPECTRAL PEAKS>  (995) 
40 3.5
41 25
42 2.6
43 99.99
44 3
45 3
51 2.6
52 0.22
53 32.8
54 5.2
56 53.4
57 0.43
59 1.3
60 2.2
65 8.2
66 0.35
67 12.5
68 9.5
69 12.5
70 0.17
71 5.2
72 1.7
77 18.5
78 0.52
79 31
80 11.2
81 51.7
82 1.47
83 11.2
84 18.1
85 3.5
91 3.28
92 9.5
93 34.4
94 16.4
95 1.98
96 5.2
97 11.2
98 2.6
99 0.17
102 1.9
103 5.2
104 4.3
105 3.23
106 11.2
107 27.6
108 17.2
109 1.81
110 3.9
111 4.3
112 1.7
113 0.22
115 3.9
116 2.2
117 9.5
118 0.6
119 39.7
120 13.8
121 25
122 1.03
123 9.5
124 3.5
125 2.2
126 0.22
127 1.7
128 2.6
129 4.3
130 0.26
131 11.2
132 11.2
133 26.7
134 1.81
135 17.2
136 8.6
137 7.8
138 0.35
139 2.2
141 5.6
142 2.2
143 0.56
144 3.5
145 13.8
146 12.1
147 4.14
148 11.2
149 10.3
150 5.2
151 0.86
152 3
153 1.7
155 2.6
156 0.22
157 6.9
158 3.9
159 11.6
160 0.6
161 10.3
162 11.2
163 7.8
164 0.73
165 6.9
166 2.6
167 2.6
169 0.35
170 2.2
171 6.9
172 3
173 0.78
174 4.3
175 7.8
176 5.2
177 0.6
178 3.5
179 4.7
180 2.6
181 0.26
183 3
184 2.2
185 6
186 0.35
187 9.5
188 5.2
189 6.2
190 0.43
191 3.9
192 3.9
193 3.5
194 0.13
195 1.7
197 3.9
198 1.7
199 0.6
200 4.7
201 6.5
202 5.2
203 0.52
204 3.9
205 4.3
206 1.7
207 0.22
209 1.7
211 2.6
212 1.7
213 0.39
214 2.6
215 6
216 3.5
217 0.56
218 2.6
219 3.5
220 1.3
223 0.13
225 1.7
227 3
228 2.2
229 0.3
230 5.2
231 3.5
232 1.3
233 0.22
235 1.3
237 1.7
241 3.5
242 0.26
243 3
244 1.3
245 1.3
248 1.38
249 3
253 2.6
255 3.5
256 0.22
265 1.7
269 4.3
270 6
271 0.17
272 0.9
273 1.3
283 8.2
284 0.22
290 2.2
291 0.4
298 1.3
299 3.27
300 10.3
301 2.2
302 1.3
315 0.09
316 5.6
317 1.3
330 0.9
358 0.6
359 1.7
360 0.9

$$$$

     RDKit          2D

 27 29  0  0  0  0  0  0  0  0999 V2000
   -5.9000    1.8825    0.0000 C   0  0  0  0  0  0  0  0  0  0  0  0
    0.8502    5.7689    0.0000 C   0  0  0  0  0  0  0  0  0  0  0  0
    5.6818    1.1781    0.0000 C   0  0  0  0  0  0  0  0  0  0  0  0
    3.8504   -2.0176    0.0000 C   0  0  0  0  0  0  0  0  0  0  0  0
    1.3992   -1.4698    0.0000 C   0  0  0  0  0  0  0  0  0  0  0  0
   -2.1500    3.1700    0.0000 C   0  0  0  0  0  0  0  0  0  0  0  0
   -3.6500    3.1700    0.0000 C   0  0  0  0  0  0  0  0  0  0  0  0
   -1.4000    4.4700    0.0000 C   0  0  0  0  0  0  0  0  0  0  0  0
   -3.6500    0.5800    0.0000 C   0  0  0  0  0  0  0  0  0  0  0  0
   -2.1500    0.5800    0.0000 C   0  0  0  0  0  0  0  0  0  0  0  0
    0.8500    3.1700    0.0000 C   0  0  0  0  0  0  0  0  0  0  0  0
    2.3500    0.5800    0.0000 C   0  0  0  0  0  0  0  0  0  0  0  0
   -4.4000    1.8800    0.0000 C   0  0  0  0  0  0  0  0  0  0  0  0
    0.1000    4.4700    0.0000 C   0  0  0  0  0  0  0  0  0  0  0  0
    4.5672    2.1819    0.0000 C   0  0  0  0  0  0  0  0  0  0  0  0
    3.1002   -0.7187    0.0000 C   0  0  0  0  0  0  0  0  0  0  0  0
    3.1000    1.8700    0.0000 C   0  0  0  0  0  0  0  0  0  0  0  0
    2.3500    3.1700    0.0000 C   0  0  0  0  0  0  0  0  0  0  0  0
   -1.4000   -0.7200    0.0000 C   0  0  0  0  0  0  0  0  0  0  0  0
    0.8500    0.5800    0.0000 C   0  0  0  0  0  0  0  0  0  0  0  0
    4.7244    3.6735    0.0000 C   0  0  0  0  0  0  0  0  0  0  0  0
    0.1000   -0.7200    0.0000 C   0  0  0  0  0  0  0  0  0  0  0  0
    3.8500    0.5805    0.0000 O   0  0  0  0  0  0  0  0  0  0  0  0
    6.0237    4.4231    0.0000 O   0  0  0  0  0  0  0  0  0  0  0  0
    1.6002   -0.7189    0.0000 O   0  0  0  0  0  0  0  0  0  0  0  0
    3.3544    4.2841    0.0000 O   0  0  0  0  0  0  0  0  0  0  0  0
   -0.6500   -2.0190    0.0000 O   0  0  0  0  0  0  0  0  0  0  0  0
  7  6  1  0
  8  6  1  0
 10  9  1  0
 13  1  1  0
  7 13  2  0
 13  9  1  0
 14  2  1  0
 14  8  1  0
 11 14  2  3
 15  3  2  0
 16  4  1  0
 17 12  1  0
 17 15  1  0
 18 11  1  0
 18 17  1  0
 19 10  1  0
 20 12  1  0
 21 15  1  0
 22  5  1  0
 22 19  1  0
 22 20  1  0
 23 16  2  0
 24 21  2  0
 25 16  1  0
 25 20  1  0
 26 18  1  0
 26 21  1  0
 27 19  1  0
 27 22  1  0
M  END
>  <NAME>  (996) 
(10E,14E)-5-ACETOXY-6,7-EPOXY-6,10,14-TRIMETHYL-3-METHYLENE-3A,6,7,8,9,12,13,15A-OCTAHYDROCYCLOTETRADECA(B)FURAN-2(3H),5(4H)-DIONE

>  <SYNONYMS>  (996) 


>  <SPECTRUM TYPE>  (996) 
MS1

>  <INSTRUMENT TYPE>  (996) 
EI-B

>  <INSTRUMENT>  (996) 
HITACHI RMU-6L

>  <ION MODE>  (996) 
P

>  <INCHIKEY>  (996) 
VAIRPKPEPRJXML-NHBSDZJZSA-N

>  <FORMULA>  (996) 
C22H30O5

>  <EXACT MASS>  (996) 
374.20932406

>  <MW>  (996) 
374

>  <ID>  (996) 
JP010655

>  <CONTRIBUTOR>  (996) 
University of Tokyo Team, {Faculty of Engineering, University of Tokyo

>  <COMMENT>  (996) 
SMILES=CC(=O)OC(C2)C(C)(O1)C(CCC(C)=C([H])CCC(C)=C([H])C(O3)C(C(=C)C(=O)3)2)1
InChI=InChI=1S/C22H30O5/c1-13-7-6-8-14(2)11-18-17(15(3)21(24)26-18)12-20(25-16(4)23)22(5)19(27-22)10-9-13/h7,11,17-20H,3,6,8-10,12H2,1-2,4-5H3/b13-7-,14-11-
computed SMILES=O=C1OC2C=C(C)CCC=C(C)CCC3OC3(C)C(OC(=O)C)CC2C1=C
computed InChI=InChI=1S/C22H30O5/c1-13-7-6-8-14(2)11-18-17(15(3)21(24)26-18)12-20(25-16(4)23)22(5)19(27-22)10-9-13/h7,11,17-20H,3,6,8-10,12H2,1-2,4-5H3/b13-7-,14-11?
accession=JP010655
date=2016.01.19 (Created 2008.10.21, modified 2011.05.06)
author=EGUCHI S, FAC. OF SCIENCE, HIROSHIMA UNIV.
license=CC BY-NC-SA
exact mass=374.20932
ionization energy=70 eV
ion type=[M]+*
computed spectral entropy=4.652226686392807
computed normalized entropy=0.8596694317800194
SPLASH=splash10-0006-9820000000-1c3fe8be223558e4f976
submitter=submitter = University of Tokyo Team (Faculty of Engineering, University of Tokyo)
MoNA Rating=3.75

>  <NUM PEAKS>  (996) 
224

>  <MASS SPECTRAL PEAKS>  (996) 
41 35
42 4.5
43 99.99
44 0.7
45 9
46 1
51 4
52 0.55
53 26
54 5
55 42
56 0.4
57 11
58 1.5
59 1
60 0.7
62 1.5
64 2
65 9
66 0.35
67 24.5
68 12
69 16.5
70 0.3
71 12.5
72 1
73 3
74 0.2
75 1
76 2
77 23
78 0.5
79 28
80 7
81 68
82 1.2
83 13
84 9
85 6
86 0.2
87 3
89 2
90 1
91 3.1
92 8
93 37
94 11
95 2.4
96 6
97 10
98 4
99 0.3
103 4
104 2
105 24
106 0.8
107 19.5
108 10.1
109 18
110 0.75
111 15
112 3
113 4
114 0.2
115 11
116 3.5
117 11
118 0.51
119 19
120 7.5
121 17.5
122 0.8
123 10
124 4
125 5
126 0.3
127 4
128 7.5
129 9.5
130 0.5
131 15
132 6
133 18
134 0.8
135 11.5
136 6.5
137 8
138 0.45
139 3.5
140 2
141 10
142 0.5
143 9
144 4
145 12
146 0.6
147 11.5
148 5.5
149 11
150 0.7
151 10
152 5
153 4
155 0.6
156 3.5
157 9
158 5
159 1.5
160 5
161 9
162 6
163 0.7
164 5.5
165 6
166 3
167 0.7
168 4
169 7.5
170 5.5
171 0.8
172 3
173 7
174 4
175 0.8
176 4
177 5.1
178 4.5
179 0.4
181 5
183 5
185 6
186 0.5
187 13.5
188 5
189 6.5
190 0.4
191 5
195 5
197 4.5
198 0.3
199 4
200 2.9
201 4.6
202 0.39
203 9.4
204 4.6
205 4.7
206 0.25
207 2.1
208 3
209 3.6
210 0.21
211 3.5
212 2.1
213 3.8
214 0.2
215 7.1
216 3.1
217 3.1
218 0.21
219 3.6
220 1.8
221 3.1
222 0.14
223 1.8
224 1.4
225 2.8
226 0.18
227 2.5
228 2.5
229 4.6
230 0.29
231 4.4
232 2.1
233 4.4
234 0.14
235 2.1
236 1.1
237 1.1
238 0.1
239 1.4
240 1.5
241 2.4
242 0.18
243 2.4
244 1.4
245 1.4
246 0.38
247 9.9
248 2.4
249 1.4
250 0.14
251 1.8
252 1.4
253 2.1
254 0.11
255 1.1
256 1.4
257 2.1
258 0.14
259 1.3
260 1
262 7.9
263 0.24
264 1.1
267 1.1
268 2.1
269 0.18
270 1.4
271 2.5
272 1.4
281 0.21
285 1.1
286 1.4
296 28
297 0.13
299 1.8
314 3.5
315 4.2
316 0.14
331 0.8
332 1.4
374 3.6
375 1.1

$$$$

     RDKit          2D

 24 26  0  0  0  0  0  0  0  0999 V2000
   -5.9000    1.8825    0.0000 C   0  0  0  0  0  0  0  0  0  0  0  0
    0.8502    5.7689    0.0000 C   0  0  0  0  0  0  0  0  0  0  0  0
    5.6818    1.1781    0.0000 C   0  0  0  0  0  0  0  0  0  0  0  0
    1.3992   -1.4698    0.0000 C   0  0  0  0  0  0  0  0  0  0  0  0
   -2.1500    3.1700    0.0000 C   0  0  0  0  0  0  0  0  0  0  0  0
   -3.6500    3.1700    0.0000 C   0  0  0  0  0  0  0  0  0  0  0  0
   -1.4000    4.4700    0.0000 C   0  0  0  0  0  0  0  0  0  0  0  0
   -3.6500    0.5800    0.0000 C   0  0  0  0  0  0  0  0  0  0  0  0
   -2.1500    0.5800    0.0000 C   0  0  0  0  0  0  0  0  0  0  0  0
    0.8500    3.1700    0.0000 C   0  0  0  0  0  0  0  0  0  0  0  0
    2.3500    0.5800    0.0000 C   0  0  0  0  0  0  0  0  0  0  0  0
   -4.4000    1.8800    0.0000 C   0  0  0  0  0  0  0  0  0  0  0  0
    0.1000    4.4700    0.0000 C   0  0  0  0  0  0  0  0  0  0  0  0
    4.5672    2.1819    0.0000 C   0  0  0  0  0  0  0  0  0  0  0  0
    3.1000    1.8700    0.0000 C   0  0  0  0  0  0  0  0  0  0  0  0
    2.3500    3.1700    0.0000 C   0  0  0  0  0  0  0  0  0  0  0  0
    0.8500    0.5800    0.0000 C   0  0  0  0  0  0  0  0  0  0  0  0
   -1.4000   -0.7200    0.0000 C   0  0  0  0  0  0  0  0  0  0  0  0
    4.7244    3.6735    0.0000 C   0  0  0  0  0  0  0  0  0  0  0  0
    0.1000   -0.7200    0.0000 C   0  0  0  0  0  0  0  0  0  0  0  0
    0.0998    1.8789    0.0000 O   0  0  0  0  0  0  0  0  0  0  0  0
    6.0237    4.4231    0.0000 O   0  0  0  0  0  0  0  0  0  0  0  0
    3.3544    4.2841    0.0000 O   0  0  0  0  0  0  0  0  0  0  0  0
   -0.6500   -2.0190    0.0000 O   0  0  0  0  0  0  0  0  0  0  0  0
  6  5  1  0
  7  5  1  0
  9  8  1  0
 12  1  1  0
  6 12  2  0
 12  8  1  0
 13  2  1  0
 13  7  1  0
 10 13  2  3
 14  3  2  0
 15 11  1  0
 15 14  1  0
 16 10  1  0
 16 15  1  0
 17 11  1  0
 18  9  1  0
 19 14  1  0
 20  4  1  0
 20 17  1  0
 20 18  1  0
 21 17  2  0
 22 19  2  0
 23 16  1  0
 23 19  1  0
 24 18  1  0
 24 20  1  0
M  END
>  <NAME>  (997) 
(10E,14E)-6,7-EPOXY-6,10,14-TRIMETHYL-3-METHYLENE-3A,6,7,8,9,12,13,15A-OCTAHYDROCYCLOTETRADECA(B)FURAN-2(3H),5(4H)-DIONE

>  <SYNONYMS>  (997) 


>  <SPECTRUM TYPE>  (997) 
MS1

>  <INSTRUMENT TYPE>  (997) 
EI-B

>  <INSTRUMENT>  (997) 
HITACHI

>  <ION MODE>  (997) 
P

>  <INCHIKEY>  (997) 
JIXLTZWMNACINB-HVZNDUSUSA-N

>  <FORMULA>  (997) 
C20H26O4

>  <EXACT MASS>  (997) 
330.183109312

>  <MW>  (997) 
330

>  <ID>  (997) 
JP010654

>  <CONTRIBUTOR>  (997) 
University of Tokyo Team, {Faculty of Engineering, University of Tokyo

>  <COMMENT>  (997) 
SMILES=[H]C(C2)=C(C)CCC(O1)C(C)(C(=O)CC(C(=C)3)C(OC(=O)3)C([H])=C(C)C2)1
InChI=InChI=1S/C20H26O4/c1-12-6-5-7-13(2)10-16-15(14(3)19(22)23-16)11-17(21)20(4)18(24-20)9-8-12/h6,10,15-16,18H,3,5,7-9,11H2,1-2,4H3/b12-6-,13-10-
computed SMILES=O=C1OC2C=C(C)CCC=C(C)CCC3OC3(C(=O)CC2C1=C)C
computed InChI=InChI=1S/C20H26O4/c1-12-6-5-7-13(2)10-16-15(14(3)19(22)23-16)11-17(21)20(4)18(24-20)9-8-12/h6,10,15-16,18H,3,5,7-9,11H2,1-2,4H3/b12-6-,13-10?
accession=JP010654
date=2016.01.19 (Created 2008.10.21, modified 2011.05.06)
author=EGUCHI S, FAC. OF SCIENCE, HIROSHIMA UNIV.
license=CC BY-NC-SA
exact mass=330.18311
ionization energy=70 eV
ion type=[M]+*
computed spectral entropy=4.27907806822459
computed normalized entropy=0.8484468330598403
SPLASH=splash10-0006-9610000000-3f80c2baba93f73d50cb
submitter=submitter = University of Tokyo Team (Faculty of Engineering, University of Tokyo)
MoNA Rating=3.75

>  <NUM PEAKS>  (997) 
155

>  <MASS SPECTRAL PEAKS>  (997) 
40 6
41 51
42 5
43 99.99
44 4
51 5.5
52 6.5
53 7.61
54 9
55 53.5
56 4
57 0.6
65 6
66 5
67 39
68 4.1
69 19.5
70 3
71 12.5
72 0.3
77 20
78 6
79 31.5
80 1.25
81 56
82 18
83 21
84 1.3
85 17
91 23
92 8.3
93 3.9
94 14
95 42
96 11.5
97 0.95
98 4
99 5
103 4
105 2.65
106 7
107 22
108 18
109 2.6
110 12
111 14
112 4
113 0.6
117 5
118 4
119 17
120 0.9
121 19
122 9
123 15
124 0.5
125 4
131 6
132 4
133 1.6
134 12
135 15
136 23.5
137 3.1
138 21
139 4
145 7
146 0.5
147 14
148 9
149 14
150 1.5
151 13
152 5
153 4.5
159 0.7
160 5
161 8
162 12
163 1
164 13
165 38
166 6
173 0.4
175 9
176 7
177 8
178 1.5
179 5.5
187 3
189 4
190 0.3
191 7
192 4
193 4
200 0.11
201 3.5
202 3
203 5
204 0.31
205 4.1
206 2
207 1.9
208 0.1
209 1.3
211 1
213 2.6
214 0.19
215 3.1
216 3.3
217 3.9
218 0.34
219 5.1
220 3
221 2.3
222 0.11
223 1.3
227 1.7
228 2.1
229 0.26
230 2
231 3
232 2.3
233 0.16
234 1.2
236 1.4
241 2.3
242 0.14
243 1.3
244 1.6
245 2.3
246 0.14
247 2
248 1.1
249 1.7
251 0.1
255 1
256 1.2
257 1
258 0.1
259 7.2
260 2.8
262 2.1
269 0.29
270 1.3
284 1.6
285 1.1
287 0.22
294 0.8
297 1.1
312 2.9
313 0.16
315 1
330 4
331 1.6

$$$$

     RDKit          2D

 24 25  0  0  0  0  0  0  0  0999 V2000
   -2.1502    5.7689    0.0000 C   0  0  0  0  0  0  0  0  0  0  0  0
   -4.4002   -0.7189    0.0000 C   0  0  0  0  0  0  0  0  0  0  0  0
    1.9901   -2.6101    0.0000 C   0  0  0  0  0  0  0  0  0  0  0  0
    4.9402    3.7040    0.0000 C   0  0  0  0  0  0  0  0  0  0  0  0
   -3.6500    3.1700    0.0000 C   0  0  0  0  0  0  0  0  0  0  0  0
   -2.1500    3.1700    0.0000 C   0  0  0  0  0  0  0  0  0  0  0  0
   -4.4000    1.8800    0.0000 C   0  0  0  0  0  0  0  0  0  0  0  0
    0.1000    4.4700    0.0000 C   0  0  0  0  0  0  0  0  0  0  0  0
    0.8500    3.1700    0.0000 C   0  0  0  0  0  0  0  0  0  0  0  0
   -2.1500    0.5800    0.0000 C   0  0  0  0  0  0  0  0  0  0  0  0
    0.8500    0.5800    0.0000 C   0  0  0  0  0  0  0  0  0  0  0  0
   -1.4000    4.4700    0.0000 C   0  0  0  0  0  0  0  0  0  0  0  0
   -3.6500    0.5800    0.0000 C   0  0  0  0  0  0  0  0  0  0  0  0
    0.5635   -2.1466    0.0000 C   0  0  0  0  0  0  0  0  0  0  0  0
    4.5495    2.2558    0.0000 C   0  0  0  0  0  0  0  0  0  0  0  0
    3.1000    1.8700    0.0000 C   0  0  0  0  0  0  0  0  0  0  0  0
    0.1000   -0.7200    0.0000 C   0  0  0  0  0  0  0  0  0  0  0  0
    2.3500    0.5800    0.0000 C   0  0  0  0  0  0  0  0  0  0  0  0
   -1.4000   -0.7200    0.0000 C   0  0  0  0  0  0  0  0  0  0  0  0
   -0.6500   -3.0283    0.0000 C   0  0  0  0  0  0  0  0  0  0  0  0
    5.6084    1.1934    0.0000 O   0  0  0  0  0  0  0  0  0  0  0  0
    3.0980   -0.7202    0.0000 O   0  0  0  0  0  0  0  0  0  0  0  0
   -0.6500   -4.5283    0.0000 O   0  0  0  0  0  0  0  0  0  0  0  0
   -1.8635   -2.1466    0.0000 O   0  0  0  0  0  0  0  0  0  0  0  0
  6  5  1  0
  7  5  1  0
  9  8  1  0
 12  1  1  0
  6 12  2  0
 12  8  1  0
 13  2  1  0
 13  7  1  0
 10 13  2  0
 14  3  2  0
 15  4  1  0
 16  9  1  0
 16 15  1  0
 17 11  1  0
 17 14  1  0
 18 11  1  0
 18 16  1  0
 19 10  1  0
 19 17  1  0
 20 14  1  0
 21 15  2  0
 22 18  1  0
 23 20  2  0
 24 19  1  0
 24 20  1  0
M  END
>  <NAME>  (998) 
(9E,13E)-6-ACETYL-5-HYDROXY-9,13-DIMETHYL-3-METHYLENE-3,3A,4,5,6,7,8,11,12,14A-DECAHYDRO-2H-CYCLOTRIDECA(B)FURAN-2-ONE

>  <SYNONYMS>  (998) 


>  <SPECTRUM TYPE>  (998) 
MS1

>  <INSTRUMENT TYPE>  (998) 
EI-B

>  <INSTRUMENT>  (998) 
HITACHI RMU-6L

>  <ION MODE>  (998) 
P

>  <INCHIKEY>  (998) 
ZKOWAHHRXXUZGA-WAAHFECUSA-N

>  <FORMULA>  (998) 
C20H28O4

>  <EXACT MASS>  (998) 
332.198759376

>  <MW>  (998) 
332

>  <ID>  (998) 
JP010653

>  <CONTRIBUTOR>  (998) 
University of Tokyo Team, {Faculty of Engineering, University of Tokyo

>  <COMMENT>  (998) 
SMILES=[H]C(C1)=C(C)CCC(C(C)=O)C(O)CC(C(=C)2)C(OC(=O)2)C([H])=C(C)C1
InChI=InChI=1S/C20H28O4/c1-12-6-5-7-13(2)10-19-17(14(3)20(23)24-19)11-18(22)16(9-8-12)15(4)21/h6,10,16-19,22H,3,5,7-9,11H2,1-2,4H3/b12-6+,13-10+
computed SMILES=O=C1OC2C=C(C)CCC=C(C)CCC(C(=O)C)C(O)CC2C1=C
accession=JP010653
date=2016.01.19 (Created 2008.10.21, modified 2011.05.06)
author=EGUCHI S, FAC. OF SCIENCE, HIROSHIMA UNIV.
license=CC BY-NC-SA
exact mass=332.19876
ionization energy=70 eV
ion type=[M]+*
computed spectral entropy=4.447672110359326
computed normalized entropy=0.8340346233850249
SPLASH=splash10-0006-9810000000-cb63209e784be9ab94e5
submitter=submitter = University of Tokyo Team (Faculty of Engineering, University of Tokyo)
MoNA Rating=3.75

>  <NUM PEAKS>  (998) 
207

>  <MASS SPECTRAL PEAKS>  (998) 
40 2.3
41 16.9
42 1.9
43 99.99
44 3.1
45 5.4
47 1.5
51 0.23
52 1.5
53 22.3
54 4.6
55 2.77
56 2.7
57 8.1
58 1.1
59 0.15
60 1.2
65 5.6
66 3.1
67 1.54
68 8.5
69 10.8
70 3.1
71 1.23
72 1.5
73 1.2
77 10.8
78 0.51
79 20.8
80 6.9
81 43.8
82 1
83 7.7
84 6.5
85 8.5
87 0.31
88 10.4
91 18.5
92 4.6
93 2.15
94 9.2
95 28.5
96 3.1
97 1
98 2.3
99 1.9
100 2.3
101 0.15
103 2.3
104 1.5
105 18.5
106 0.54
107 15.4
108 6.2
109 12.3
110 0.31
111 5.8
112 1.5
113 2.3
115 0.23
116 1.2
117 4.6
118 2.7
119 1.39
120 6.2
121 19.2
122 7.7
123 1.23
124 3.8
125 3.5
126 1.2
127 0.12
128 1.5
129 2.3
130 1.9
131 0.81
132 2.3
133 10
134 5.8
135 0.77
136 5.4
137 19.2
138 15.4
139 0.62
140 33.4
141 3.8
142 1.5
143 0.38
144 1.5
145 7.7
146 3.8
147 1.08
148 4.6
149 9.2
150 6.2
151 0.73
152 2.3
153 1.9
154 1.5
155 0.23
156 1.2
157 3.1
158 2.3
159 0.62
160 3.1
161 7.3
162 3.5
163 0.46
164 5
165 11.9
166 3.8
167 0.31
169 1.9
170 1.2
171 3.1
172 0.15
173 5.4
174 3.1
175 6.2
176 0.5
177 3.8
178 2.3
179 2.3
180 0.12
181 1.5
183 2.3
184 1.5
185 0.31
186 1.9
187 4.6
188 1.9
189 0.31
190 1.9
191 3.1
192 4.6
193 0.23
194 1.5
195 1.5
197 1.5
199 0.23
200 1.2
201 3.1
202 1.5
203 0.35
204 2.3
205 2.3
206 1.2
207 0.15
211 1.5
213 1.2
215 3.1
216 0.15
217 1.9
218 1.2
219 2.3
220 0.12
221 1.9
223 1.2
225 2.7
226 0.12
227 1.5
228 1.2
229 1.5
230 0.15
231 1.9
232 1.9
233 2.3
234 0.12
235 1.2
243 2.3
244 1.5
245 0.15
251 1.2
252 0.8
253 3.1
254 0.15
255 0.8
256 1.2
257 1.2
258 0.08
259 0.8
261 1.9
262 1.2
263 0.08
268 1.2
269 1.5
270 1.5
271 0.62
272 2.3
273 1.2
274 0.8
275 0.08
285 0.8
286 1.5
287 0.8
288 0.08
289 2.3
290 1.2
296 1.9
297 0.12
298 0.5
299 0.5
314 4.6
315 0.15
316 0.8
332 4.5
333 1

$$$$

     RDKit          2D

 23 24  0  0  0  0  0  0  0  0999 V2000
   -2.1502    5.7689    0.0000 C   0  0  0  0  0  0  0  0  0  0  0  0
   -4.4002   -0.7189    0.0000 C   0  0  0  0  0  0  0  0  0  0  0  0
    1.9901   -2.6101    0.0000 C   0  0  0  0  0  0  0  0  0  0  0  0
    4.9402    3.7040    0.0000 C   0  0  0  0  0  0  0  0  0  0  0  0
   -3.6500    3.1700    0.0000 C   0  0  0  0  0  0  0  0  0  0  0  0
   -2.1500    3.1700    0.0000 C   0  0  0  0  0  0  0  0  0  0  0  0
   -4.4000    1.8800    0.0000 C   0  0  0  0  0  0  0  0  0  0  0  0
    0.1000    4.4700    0.0000 C   0  0  0  0  0  0  0  0  0  0  0  0
    0.8500    3.1700    0.0000 C   0  0  0  0  0  0  0  0  0  0  0  0
    2.3500    0.5800    0.0000 C   0  0  0  0  0  0  0  0  0  0  0  0
    0.8500    0.5800    0.0000 C   0  0  0  0  0  0  0  0  0  0  0  0
   -2.1500    0.5800    0.0000 C   0  0  0  0  0  0  0  0  0  0  0  0
   -1.4000    4.4700    0.0000 C   0  0  0  0  0  0  0  0  0  0  0  0
   -3.6500    0.5800    0.0000 C   0  0  0  0  0  0  0  0  0  0  0  0
    0.5635   -2.1466    0.0000 C   0  0  0  0  0  0  0  0  0  0  0  0
    4.5495    2.2558    0.0000 C   0  0  0  0  0  0  0  0  0  0  0  0
    3.1000    1.8700    0.0000 C   0  0  0  0  0  0  0  0  0  0  0  0
    0.1000   -0.7200    0.0000 C   0  0  0  0  0  0  0  0  0  0  0  0
   -1.4000   -0.7200    0.0000 C   0  0  0  0  0  0  0  0  0  0  0  0
   -0.6500   -3.0283    0.0000 C   0  0  0  0  0  0  0  0  0  0  0  0
    5.6084    1.1934    0.0000 O   0  0  0  0  0  0  0  0  0  0  0  0
   -0.6500   -4.5283    0.0000 O   0  0  0  0  0  0  0  0  0  0  0  0
   -1.8635   -2.1466    0.0000 O   0  0  0  0  0  0  0  0  0  0  0  0
  6  5  1  0
  7  5  1  0
  9  8  1  0
 11 10  1  0
 13  1  1  0
  6 13  2  0
 13  8  1  0
 14  2  1  0
 14  7  1  0
 12 14  2  0
 15  3  2  0
 16  4  1  0
 17  9  1  0
 10 17  2  0
 17 16  1  0
 18 11  1  0
 18 15  1  0
 19 12  1  0
 19 18  1  0
 20 15  1  0
 21 16  2  0
 22 20  2  0
 23 19  1  0
 23 20  1  0
M  END
>  <NAME>  (999) 
(5E,9E,13E)-6-ACETYL-9,13-DIMETHYL-3-METHYLENE-3,3A,4,7,8,11,14A-OCTAHYDRO-2H-CYCLOTRIDECA(B)FURAN-2-ONE

>  <SYNONYMS>  (999) 


>  <SPECTRUM TYPE>  (999) 
MS1

>  <INSTRUMENT TYPE>  (999) 
EI-B

>  <INSTRUMENT>  (999) 
HITACHI RMU-6L

>  <ION MODE>  (999) 
P

>  <INCHIKEY>  (999) 
JDQTWBYKDQDUAX-UXXKIGRPSA-N

>  <FORMULA>  (999) 
C20H26O3

>  <EXACT MASS>  (999) 
314.188194692

>  <MW>  (999) 
314

>  <ID>  (999) 
JP010652

>  <CONTRIBUTOR>  (999) 
University of Tokyo Team, {Faculty of Engineering, University of Tokyo

>  <COMMENT>  (999) 
SMILES=[H]C(C1)=C(C)CCC(C(C)=O)=C([H])CC(C(=C)2)C(OC(=O)2)C([H])=C(C)C1
InChI=InChI=1S/C20H26O3/c1-13-6-5-7-14(2)12-19-18(15(3)20(22)23-19)11-10-17(9-8-13)16(4)21/h6,10,12,18-19H,3,5,7-9,11H2,1-2,4H3/b13-6+,14-12+,17-10+
computed SMILES=O=C1OC2C=C(C)CCC=C(C)CCC(=CCC2C1=C)C(=O)C
license=CC BY-NC-SA
accession=JP010652
date=2016.01.19 (Created 2008.10.21, modified 2011.05.06)
author=EGUCHI S, FAC. OF SCIENCE, HIROSHIMA UNIV.
exact mass=314.18819
ionization energy=70 eV
ion type=[M]+*
computed spectral entropy=4.090034252264939
computed normalized entropy=0.8130572956425252
SPLASH=splash10-0006-9620000000-61dc0f5a58b7c01bf756
submitter=submitter = University of Tokyo Team (Faculty of Engineering, University of Tokyo)
MoNA Rating=3.75

>  <NUM PEAKS>  (999) 
153

>  <MASS SPECTRAL PEAKS>  (999) 
40 3
41 18
42 2
43 99.99
44 3.5
45 2
46 1.5
50 0.25
51 3
52 1.5
53 9
54 0.1
55 15
56 1
57 1.5
65 0.55
66 1
67 11
68 9
69 0.45
70 1
71 2
77 11.5
78 0.2
79 12
80 3
81 11
82 0.2
83 2.5
84 2
85 1
91 1.5
92 2.5
93 8
94 3
95 0.7
96 1.5
97 2
103 2
104 0.15
105 12.5
106 2.5
107 11
108 0.65
109 5.5
110 1
111 1
115 0.25
116 1
117 3.5
118 1
119 0.8
120 3
121 9.5
122 3.5
123 0.25
128 2
129 2.5
130 1.5
131 0.45
132 2.5
133 8.5
134 5.5
135 0.55
136 3.5
137 4
138 1.5
141 0.15
142 1.5
143 3.5
144 1.5
145 0.45
146 2
147 7.5
148 2
149 0.45
150 2
151 2.5
152 2
153 0.1
155 1
156 1
157 3
158 0.15
159 5.5
160 2
161 3
162 0.6
163 11.5
164 2
165 1
168 0.25
170 1
171 3.5
172 2
173 0.55
174 2
175 4
176 2
177 0.25
183 2.5
184 1
185 5
186 0.15
187 3
188 1
189 2.5
190 0.1
191 1
197 3
198 1
199 0.25
200 1.4
201 3
202 1
203 0.5
204 0.8
205 1.4
206 1.4
207 0.1
211 1
213 1.8
215 3.4
216 0.16
217 2.2
218 1.2
221 1.2
225 0.36
226 1.2
227 2.2
228 2
229 0.38
230 2
231 4.2
232 1.2
233 0.12
243 0.8
247 1.4
248 1.2
253 0.44
254 2
255 1
268 1.8
269 0.2
270 1.6
271 13
272 3.2
281 0.14
296 3.4
297 1
299 1.8
314 0.52
315 1

$$$$

     RDKit          2D

 26 27  0  0  1  0  0  0  0  0999 V2000
    4.6002    2.6987    0.0000 C   0  0  0  0  0  0  0  0  0  0  0  0
    2.3504    3.9981    0.0000 C   0  0  0  0  0  0  0  0  0  0  0  0
   -2.1502    3.9989    0.0000 C   0  0  0  0  0  0  0  0  0  0  0  0
   -6.6504   -3.7976    0.0000 C   0  0  0  0  0  0  0  0  0  0  0  0
   -3.1346   -2.3316    0.0000 C   0  0  0  0  0  0  0  0  0  0  0  0
   -0.6500   -3.1563    0.0000 C   0  0  0  0  0  0  0  0  0  0  0  0
    0.6608   -2.5546    0.0000 C   0  0  0  0  0  0  0  0  0  0  0  0
    0.1000    2.7000    0.0000 C   0  0  0  0  0  0  0  0  0  0  0  0
   -2.1500    1.4000    0.0000 C   0  0  0  0  0  0  0  0  0  0  0  0
    0.8500    1.4000    0.0000 C   0  0  0  0  0  0  0  0  0  0  0  0
    3.1000    0.1000    0.0000 C   0  0  0  0  0  0  0  0  0  0  0  0
    2.3500   -1.2000    0.0000 C   0  0  0  0  0  0  0  0  0  0  0  0
   -4.4000    0.1000    0.0000 C   0  0  0  0  0  0  0  0  0  0  0  0
   -1.9608   -2.5546    0.0000 C   0  0  0  0  0  0  0  0  0  0  0  0
    3.1002    2.6989    0.0000 C   0  0  0  0  0  0  0  0  0  0  0  0
   -1.4000    2.7000    0.0000 C   0  0  0  0  0  0  0  0  0  0  0  0
   -5.9002   -2.4987    0.0000 C   0  0  0  0  0  0  0  0  0  0  0  0
    2.3500    1.4000    0.0000 C   0  0  0  0  0  0  0  0  0  0  0  0
    0.8500   -1.2000    0.0000 C   0  0  0  0  0  0  0  0  0  0  0  0
   -3.6500   -1.2000    0.0000 C   0  0  0  0  0  0  0  0  0  0  0  0
    0.1000    0.1000    0.0000 C   0  0  0  0  0  0  0  0  0  0  0  0
   -2.1500   -1.2000    0.0000 C   0  0  0  0  0  0  0  0  0  0  0  0
   -6.6500   -1.1995    0.0000 O   0  0  0  0  0  0  0  0  0  0  0  0
   -0.6502   -1.1989    0.0000 O   0  0  0  0  0  0  0  0  0  0  0  0
   -4.4002   -2.4989    0.0000 O   0  0  0  0  0  0  0  0  0  0  0  0
   -1.4000    0.1000    0.0000 O   0  0  0  0  0  0  0  0  0  0  0  0
  7  6  1  0
 10  8  1  0
 12 11  1  0
 13  9  1  0
 14  6  1  0
 15  1  1  0
 15  2  1  0
 16  3  1  0
  8 16  2  0
 16  9  1  0
 17  4  1  0
 10 18  2  3
 18 11  1  0
 18 15  1  0
 19  7  2  0
 19 12  1  0
 20 13  1  0
 21 19  1  0
 22  5  1  0
 22 14  1  0
 22 20  1  0
 23 17  2  0
 24 21  2  0
 25 17  1  0
 20 25  1  6
 26 21  1  0
 26 22  1  0
M  END
>  <NAME>  (1000) 
7ALPHA-ACETOXYSARCOPHYTOLIDE

>  <SYNONYMS>  (1000) 
(1Z,5S,6R,9E,11E)-5,9-DIMETHYL-6-ACETOXY-12-ISOPROPYLCYCLOTETRADECA-1,9,11-TRIENE-1,5-CARBOLACTONE

>  <SPECTRUM TYPE>  (1000) 
MS1

>  <INSTRUMENT TYPE>  (1000) 
EI-B

>  <INSTRUMENT>  (1000) 
HITACHI RMU-6L

>  <ION MODE>  (1000) 
P

>  <INCHIKEY>  (1000) 
PSJHYYPVPGHZAJ-FPJKZIJLSA-N

>  <FORMULA>  (1000) 
C22H32O4

>  <EXACT MASS>  (1000) 
360.230059504

>  <MW>  (1000) 
360

>  <ID>  (1000) 
JP010651

>  <CONTRIBUTOR>  (1000) 
University of Tokyo Team, {Faculty of Engineering, University of Tokyo

>  <COMMENT>  (1000) 
SMILES=CC(=O)OC([H])(C2)C(C)(C1)OC(=O)C(CCC(C(C)C)=C([H])C([H])=C(C)C2)=C([H])C1
InChI=InChI=1S/C22H32O4/c1-15(2)18-10-8-16(3)9-13-20(25-17(4)23)22(5)14-6-7-19(12-11-18)21(24)26-22/h7-8,10,15,20H,6,9,11-14H2,1-5H3/b16-8+,18-10+/t20-,22?/m1/s1
computed SMILES=O=C1OC2(C)CCC=C1CCC(=CC=C(C)CCC2OC(=O)C)C(C)C
computed InChI=InChI=1S/C22H32O4/c1-15(2)18-10-8-16(3)9-13-20(25-17(4)23)22(5)14-6-7-19(12-11-18)21(24)26-22/h7-8,10,15,20H,6,9,11-14H2,1-5H3/b16-8-,18-10?/t20-,22?/m1/s1
accession=JP010651
date=2016.01.19 (Created 2008.10.21, modified 2011.05.06)
author=EGUCHI S, FAC. OF SCIENCE, HIROSHIMA UNIV.
license=CC BY-NC-SA
exact mass=360.23006
ionization energy=70 eV
ion type=[M]+*
computed spectral entropy=4.277863363589088
computed normalized entropy=0.8291950978390165
SPLASH=splash10-0006-7910000000-8f678fc5f26455ecb4c1
submitter=submitter = University of Tokyo Team (Faculty of Engineering, University of Tokyo)
MoNA Rating=3.75

>  <NUM PEAKS>  (1000) 
174

>  <MASS SPECTRAL PEAKS>  (1000) 
41 35.3
42 2.5
43 99.99
44 0.29
45 2
51 1.6
52 1.2
53 1.43
54 1.8
55 24.8
56 2
57 0.78
58 1.9
59 1.1
60 1.4
61 0.1
65 6.1
66 2.8
67 15.1
68 0.39
69 20.6
70 2.3
71 5.3
72 0.12
73 1.3
77 14.7
78 3.4
79 1.98
80 5.3
81 20.9
82 3.3
83 0.59
84 1.6
85 2.5
91 23.6
92 0.63
93 39.2
94 7.3
95 19.6
96 0.29
97 4.1
98 1.7
99 1.9
103 0.22
104 1.5
105 21
106 6
107 2.98
108 7.1
109 10.1
110 2.9
111 0.37
112 1.1
113 1.3
115 2.9
116 0.16
117 6.4
118 2.9
119 19.7
120 0.7
121 27.6
122 6.8
123 8.2
124 0.24
125 2.4
127 1.3
128 2.3
129 0.37
130 1.9
131 9.9
132 2.9
133 1.78
134 10.1
135 20.6
136 10.2
137 0.58
138 2
139 2
141 2
142 0.14
143 5
144 2
145 10.4
146 0.65
147 19.2
148 12.5
149 15.7
150 0.41
151 5.2
152 51.2
153 8.7
154 0.23
155 2.3
156 1.3
157 2.9
158 0.18
159 11
160 3.7
161 6.6
162 0.29
163 4
164 8.1
165 4.2
166 0.29
167 1.6
169 2.1
171 4.2
172 0.17
173 6.2
174 2.6
175 4.7
176 0.2
177 3.5
178 2.5
179 1.6
183 0.21
185 3.9
186 1.8
187 7.3
188 0.25
189 5.2
190 2.4
191 2.9
192 0.23
193 1.5
197 1.8
199 3.5
200 0.13
201 3.7
202 2.2
203 3.1
204 0.17
205 2.1
206 1.3
207 1.1
211 0.32
212 1.1
213 2.9
214 1.5
215 0.26
216 1.9
217 4.1
218 2.1
219 0.16
225 1.1
227 1.4
229 2.5
230 0.13
231 4.7
232 2.5
239 2.9
240 0.1
241 1.1
242 2
243 1.8
244 0.13
245 1.3
255 10.4
256 3.1
257 0.78
258 2.1
271 1.4
272 3.5
273 0.17
274 1.1
275 2.3
285 3.5
286 0.1
300 4.2
301 1.7
317 1.4
318 0.12
360 13.4
367 3.6

$$$$

     RDKit          2D

 23 24  0  0  0  0  0  0  0  0999 V2000
    4.6002    2.6987    0.0000 C   0  0  0  0  0  0  0  0  0  0  0  0
    2.3504    3.9981    0.0000 C   0  0  0  0  0  0  0  0  0  0  0  0
   -2.1502    3.9989    0.0000 C   0  0  0  0  0  0  0  0  0  0  0  0
   -3.1346   -2.3316    0.0000 C   0  0  0  0  0  0  0  0  0  0  0  0
   -0.6500   -3.1563    0.0000 C   0  0  0  0  0  0  0  0  0  0  0  0
    0.6608   -2.5546    0.0000 C   0  0  0  0  0  0  0  0  0  0  0  0
    0.1000    2.7000    0.0000 C   0  0  0  0  0  0  0  0  0  0  0  0
   -2.1500    1.4000    0.0000 C   0  0  0  0  0  0  0  0  0  0  0  0
    0.8500    1.4000    0.0000 C   0  0  0  0  0  0  0  0  0  0  0  0
    3.1000    0.1000    0.0000 C   0  0  0  0  0  0  0  0  0  0  0  0
    2.3500   -1.2000    0.0000 C   0  0  0  0  0  0  0  0  0  0  0  0
   -4.4000    0.1000    0.0000 C   0  0  0  0  0  0  0  0  0  0  0  0
   -1.9608   -2.5546    0.0000 C   0  0  0  0  0  0  0  0  0  0  0  0
    3.1002    2.6989    0.0000 C   0  0  0  0  0  0  0  0  0  0  0  0
   -1.4000    2.7000    0.0000 C   0  0  0  0  0  0  0  0  0  0  0  0
    2.3500    1.4000    0.0000 C   0  0  0  0  0  0  0  0  0  0  0  0
    0.8500   -1.2000    0.0000 C   0  0  0  0  0  0  0  0  0  0  0  0
   -3.6500   -1.2000    0.0000 C   0  0  0  0  0  0  0  0  0  0  0  0
    0.1000    0.1000    0.0000 C   0  0  0  0  0  0  0  0  0  0  0  0
   -2.1500   -1.2000    0.0000 C   0  0  0  0  0  0  0  0  0  0  0  0
   -4.4002   -2.4989    0.0000 O   0  0  0  0  0  0  0  0  0  0  0  0
   -0.6502   -1.1989    0.0000 O   0  0  0  0  0  0  0  0  0  0  0  0
   -1.4000    0.1000    0.0000 O   0  0  0  0  0  0  0  0  0  0  0  0
  6  5  1  0
  9  7  1  0
 11 10  1  0
 12  8  1  0
 13  5  1  0
 14  1  1  0
 14  2  1  0
 15  3  1  0
  7 15  2  0
 15  8  1  0
  9 16  2  3
 16 10  1  0
 16 14  1  0
 17  6  2  0
 17 11  1  0
 18 12  1  0
 19 17  1  0
 20  4  1  0
 20 13  1  0
 20 18  1  0
 21 18  2  0
 22 19  2  0
 23 19  1  0
 23 20  1  0
M  END
>  <NAME>  (1001) 
SARCOPHYTOLIDE

>  <SYNONYMS>  (1001) 
(1Z,5S,9E,11E)-5,9-DIMETHYL-12-ISOPROPYL-6-OXOCYCLOTETRADECA-1,9,11-TRIENE-1,5-CARBOLACTONE

>  <SPECTRUM TYPE>  (1001) 
MS1

>  <INSTRUMENT TYPE>  (1001) 
EI-B

>  <INSTRUMENT>  (1001) 
HITACHI RMU-6L

>  <ION MODE>  (1001) 
P

>  <INCHIKEY>  (1001) 
PSZUHEPXMXTNIL-CZCKSJKESA-N

>  <FORMULA>  (1001) 
C20H28O3

>  <EXACT MASS>  (1001) 
316.20384475599997

>  <MW>  (1001) 
316

>  <ID>  (1001) 
JP010650

>  <CONTRIBUTOR>  (1001) 
University of Tokyo Team, {Faculty of Engineering, University of Tokyo

>  <COMMENT>  (1001) 
SMILES=CC(C)C(C2)=C([H])C([H])=C(C)CCC(=O)C(C)(C1)OC(=O)C(C2)=C([H])C1
InChI=InChI=1S/C20H28O3/c1-14(2)16-9-7-15(3)8-12-18(21)20(4)13-5-6-17(11-10-16)19(22)23-20/h6-7,9,14H,5,8,10-13H2,1-4H3/b15-7-,16-9+
computed SMILES=O=C1OC2(C(=O)CCC(=CC=C(CCC1=CCC2)C(C)C)C)C
computed InChI=InChI=1S/C20H28O3/c1-14(2)16-9-7-15(3)8-12-18(21)20(4)13-5-6-17(11-10-16)19(22)23-20/h6-7,9,14H,5,8,10-13H2,1-4H3/b15-7-,16-9?
accession=JP010650
date=2016.01.19 (Created 2008.10.21, modified 2011.05.06)
author=EGUCHI S, FAC. OF SCIENCE, HIROSHIMA UNIV.
license=CC BY-NC-SA
exact mass=316.20384
ionization energy=70 eV
ion type=[M]+*
computed spectral entropy=4.142462373977501
computed normalized entropy=0.8152199818071685
SPLASH=splash10-053u-9500000000-df0166861c14d165db17
submitter=submitter = University of Tokyo Team (Faculty of Engineering, University of Tokyo)
MoNA Rating=3.75

>  <NUM PEAKS>  (1001) 
161

>  <MASS SPECTRAL PEAKS>  (1001) 
40 4.1
41 54.6
42 5.2
43 7.24
45 1.9
47 18.7
48 12.8
49 0.8
50 4.5
51 5
52 2.9
53 1.88
54 4.7
55 49.1
56 3.8
57 0.57
58 2
59 1.7
63 1.1
65 0.89
66 3.9
67 14.5
68 2.8
69 1.74
70 2.1
71 6.7
74 1.1
77 1.59
78 3.9
79 17.1
80 4.8
81 1.87
82 4.7
83 99.99
84 7.3
85 4.1
87 8.7
91 24.4
92 4.9
93 1.94
94 5.1
95 12
96 2.6
97 0.36
98 1.8
99 3.4
103 1.8
104 0.13
105 14.4
106 3.1
107 17.9
108 0.38
109 8.3
110 2.6
111 23.4
112 1.26
113 1.5
115 2.3
116 1.4
117 0.33
118 1.5
119 9.9
120 4.3
121 1.61
122 6.3
123 6
124 3.7
125 0.5
126 2.5
127 1.4
128 1.6
129 0.25
131 4.8
132 1.8
133 10.5
134 1.57
135 9.1
136 8.3
137 4.7
138 0.13
139 2.4
141 1.5
143 3.5
144 0.14
145 5.1
146 2.4
147 6.7
148 0.25
149 6
150 2.2
151 2.6
152 0.7
153 4.4
154 1.2
157 2.3
158 0.11
159 4.6
160 1.7
161 4.8
162 0.21
163 2.8
164 1.4
165 1.8
167 0.19
171 4.2
173 3.9
174 1.6
175 0.45
176 2.8
177 2.1
178 1.2
179 0.14
182 8.3
183 2
185 2.3
186 0.21
187 6.4
188 2.5
189 4.1
190 0.12
191 2.3
199 2.1
201 2.2
202 0.14
203 2.7
204 1.6
205 1.1
207 0.17
213 1.1
214 1.1
215 1.4
217 0.37
218 1.4
219 1.1
227 3.4
228 0.08
229 1
231 2.3
232 3.9
233 0.11
245 1.9
255 1.8
256 0.6
257 0.06
258 0.3
259 0.7
260 0.4
270 0.25
271 1.4
272 0.9
273 1.5
274 0.05
283 0.5
288 1
289 0.3
298 0.1
299 0.3
301 0.7
316 13
317 0.29
318 0.4

$$$$

     RDKit          2D

 22 22  0  0  1  0  0  0  0  0999 V2000
    0.1004    7.0681    0.0000 C   0  0  0  0  0  0  0  0  0  0  0  0
    2.3502    5.7687    0.0000 C   0  0  0  0  0  0  0  0  0  0  0  0
   -4.3980    4.4702    0.0000 C   0  0  0  0  0  0  0  0  0  0  0  0
   -2.1502   -2.0189    0.0000 C   0  0  0  0  0  0  0  0  0  0  0  0
    4.6000    1.8675    0.0000 C   0  0  0  0  0  0  0  0  0  0  0  0
    3.1002   -0.7187    0.0000 C   0  0  0  0  0  0  0  0  0  0  0  0
   -3.6500    0.5800    0.0000 C   0  0  0  0  0  0  0  0  0  0  0  0
   -4.4000    1.8800    0.0000 C   0  0  0  0  0  0  0  0  0  0  0  0
   -2.1500    0.5800    0.0000 C   0  0  0  0  0  0  0  0  0  0  0  0
   -2.1500    3.1700    0.0000 C   0  0  0  0  0  0  0  0  0  0  0  0
    2.3500    3.1700    0.0000 C   0  0  0  0  0  0  0  0  0  0  0  0
   -1.4000    4.4700    0.0000 C   0  0  0  0  0  0  0  0  0  0  0  0
    0.8500    3.1700    0.0000 C   0  0  0  0  0  0  0  0  0  0  0  0
    0.1000   -0.7200    0.0000 C   0  0  0  0  0  0  0  0  0  0  0  0
    2.3500    0.5800    0.0000 C   0  0  0  0  0  0  0  0  0  0  0  0
    0.8502    5.7689    0.0000 C   0  0  0  0  0  0  0  0  0  0  0  0
   -3.6500    3.1700    0.0000 C   0  0  0  0  0  0  0  0  0  0  0  0
   -1.4000   -0.7200    0.0000 C   0  0  0  0  0  0  0  0  0  0  0  0
    3.1000    1.8700    0.0000 C   0  0  0  0  0  0  0  0  0  0  0  0
    0.1000    4.4700    0.0000 C   0  0  0  0  0  0  0  0  0  0  0  0
    0.8500    0.5800    0.0000 C   0  0  0  0  0  0  0  0  0  0  0  0
    1.6002   -0.7189    0.0000 O   0  0  0  0  0  0  0  0  0  0  0  0
  8  7  1  0
  9  7  1  0
 10 12  2  0
 13 11  1  0
 16  1  1  0
 16  2  1  0
 17  3  1  0
  8 17  2  0
 17 10  1  0
 18  4  1  0
  9 18  2  0
 18 14  1  0
 19  5  1  0
 19 11  1  0
 15 19  2  3
 20 12  1  0
 20 13  1  0
 20 16  1  6
 21 14  1  0
 21 15  1  0
 22  6  1  0
 21 22  1  1
M  END
>  <NAME>  (1002) 
(1S,2E,7E,10R,11E)-10-METHOXYCEMBRA-2,4,7,11-TETRAENE

>  <SYNONYMS>  (1002) 


>  <SPECTRUM TYPE>  (1002) 
MS1

>  <INSTRUMENT TYPE>  (1002) 
EI-B

>  <INSTRUMENT>  (1002) 
HITACHI RMU-6L

>  <ION MODE>  (1002) 
P

>  <INCHIKEY>  (1002) 
SBUSWOSYOAFPAG-LVRFIZCKSA-N

>  <FORMULA>  (1002) 
C21H34O

>  <EXACT MASS>  (1002) 
302.26096570799996

>  <MW>  (1002) 
302

>  <ID>  (1002) 
JP010648

>  <CONTRIBUTOR>  (1002) 
University of Tokyo Team, {Faculty of Engineering, University of Tokyo

>  <COMMENT>  (1002) 
SMILES=COC([H])(C1)C([H])=C(C)CCC([H])(C(C)C)C([H])=C([H])C(C)=C([H])CC([H])=C(C)1
InChI=InChI=1S/C21H34O/c1-16(2)20-12-10-17(3)8-7-9-18(4)14-21(22-6)15-19(5)11-13-20/h8-10,12,15-16,20-21H,7,11,13-14H2,1-6H3/b12-10+,17-8-,18-9+,19-15+/t20-,21+/m0/s1
computed SMILES=O(C)C1C=C(C)CCC(C=CC(=CCC=C(C)C1)C)C(C)C
computed InChI=InChI=1S/C21H34O/c1-16(2)20-12-10-17(3)8-7-9-18(4)14-21(22-6)15-19(5)11-13-20/h8-10,12,15-16,20-21H,7,11,13-14H2,1-6H3/b12-10+,17-8-,18-9+,19-15?/t20-,21+/m0/s1
accession=JP010648
date=2016.01.19 (Created 2008.10.21, modified 2011.05.06)
author=EGUCHI S, FAC. OF SCIENCE, HIROSHIMA UNIV.
license=CC BY-NC-SA
exact mass=302.26097
ionization energy=70 eV
ion type=[M]+*
computed spectral entropy=4.173325296697655
computed normalized entropy=0.8717143591922951
SPLASH=splash10-06r6-8910000000-200ff46d3c2fe15f0a79
submitter=submitter = University of Tokyo Team (Faculty of Engineering, University of Tokyo)
MoNA Rating=3.75

>  <NUM PEAKS>  (1002) 
120

>  <MASS SPECTRAL PEAKS>  (1002) 
41 58.2
42 3.2
43 25.3
45 1.38
51 2.4
53 19.1
54 2.3
55 4.67
56 3.2
57 5.3
59 5.2
65 0.91
66 3.1
67 20.9
68 4.5
69 2.76
71 8.1
73 7
77 25
78 0.59
79 32.8
80 11.5
81 43.7
82 0.48
83 26.5
84 2.6
85 45.9
86 0.55
91 36.5
92 9
93 37.2
94 0.75
95 15.4
96 3.8
97 12.8
98 5.77
99 13.3
103 4
105 36.6
106 1.18
107 34.2
108 9.3
109 13.2
110 0.65
111 99.99
112 11.3
115 4.6
117 0.8
118 3.8
119 30.4
120 20.8
121 1.79
122 8.2
123 24.2
124 7
125 0.34
129 4.6
131 14.2
132 10.3
133 2.88
134 10.4
135 13.9
136 6.7
137 1.42
143 4
145 16.1
146 9.4
147 1.4
148 3.9
149 9.3
150 3.7
151 0.59
157 6.7
159 16.1
160 4.3
161 1.23
162 3.4
163 7.9
164 5.7
165 0.49
166 3.6
171 6.2
173 4.7
175 0.66
177 4.9
178 7.1
179 5.7
180 0.21
185 5.4
186 3.7
187 8.2
188 0.36
189 14.3
190 9.7
191 8.8
193 1.11
199 3.6
201 12.4
202 7.1
203 0.45
215 8
217 2.8
219 6.7
227 2
228 4.8
229 2.2
231 2.5
233 0.71
234 7.1
244 1.2
255 7.5
256 0.19
259 7.5
260 1.8
270 17.2
271 0.59
287 4.1
288 1.1
302 19.6
303 5.1

$$$$

     RDKit          2D

 21 21  0  0  1  0  0  0  0  0999 V2000
   -5.9002   -0.7187    0.0000 C   0  0  0  0  0  0  0  0  0  0  0  0
   -3.6504   -2.0181    0.0000 C   0  0  0  0  0  0  0  0  0  0  0  0
    0.8502   -2.0189    0.0000 C   0  0  0  0  0  0  0  0  0  0  0  0
    3.1002    4.4689    0.0000 C   0  0  0  0  0  0  0  0  0  0  0  0
   -1.3998    1.8711    0.0000 C   0  0  0  0  0  0  0  0  0  0  0  0
    2.3500    0.5800    0.0000 C   0  0  0  0  0  0  0  0  0  0  0  0
    0.8500    0.5800    0.0000 C   0  0  0  0  0  0  0  0  0  0  0  0
    3.1000    1.8700    0.0000 C   0  0  0  0  0  0  0  0  0  0  0  0
   -1.4000   -0.7200    0.0000 C   0  0  0  0  0  0  0  0  0  0  0  0
   -3.6500    3.1700    0.0000 C   0  0  0  0  0  0  0  0  0  0  0  0
   -2.1500    0.5800    0.0000 C   0  0  0  0  0  0  0  0  0  0  0  0
   -4.4000    1.8800    0.0000 C   0  0  0  0  0  0  0  0  0  0  0  0
    0.8500    3.1700    0.0000 C   0  0  0  0  0  0  0  0  0  0  0  0
   -1.4000    4.4700    0.0000 C   0  0  0  0  0  0  0  0  0  0  0  0
   -4.4002   -0.7189    0.0000 C   0  0  0  0  0  0  0  0  0  0  0  0
    0.1000   -0.7200    0.0000 C   0  0  0  0  0  0  0  0  0  0  0  0
    2.3500    3.1700    0.0000 C   0  0  0  0  0  0  0  0  0  0  0  0
   -2.1500    3.1700    0.0000 C   0  0  0  0  0  0  0  0  0  0  0  0
   -3.6500    0.5800    0.0000 C   0  0  0  0  0  0  0  0  0  0  0  0
    0.1000    4.4700    0.0000 C   0  0  0  0  0  0  0  0  0  0  0  0
    0.8502    5.7689    0.0000 O   0  0  0  0  0  0  0  0  0  0  0  0
  7  6  1  0
  8  6  1  0
  9 11  2  3
 12 10  1  0
 15  1  1  0
 15  2  1  0
 16  3  1  0
  7 16  2  0
 16  9  1  0
 17  4  1  0
  8 17  2  0
 17 13  1  0
 18  5  1  0
 18 10  1  0
 14 18  2  0
 19 11  1  0
 19 12  1  0
 19 15  1  6
 20 13  1  0
 20 14  1  0
 20 21  1  6
M  END
>  <NAME>  (1003) 
(1S,2E,4E,7E,10R,11E)-10HYDROXYCEMBRA-2,4,7,11-TETRAENE

>  <SYNONYMS>  (1003) 
10-HYDROXYCEMBRENE

>  <SPECTRUM TYPE>  (1003) 
MS1

>  <INSTRUMENT TYPE>  (1003) 
EI-B

>  <INSTRUMENT>  (1003) 
HITACHI RMU-6L

>  <ION MODE>  (1003) 
P

>  <INCHIKEY>  (1003) 
UISPGBUXWMMCCP-HLWKUWEHSA-N

>  <FORMULA>  (1003) 
C20H32O

>  <EXACT MASS>  (1003) 
288.24531564399996

>  <MW>  (1003) 
288

>  <ID>  (1003) 
JP010647

>  <CONTRIBUTOR>  (1003) 
University of Tokyo Team, {Faculty of Engineering, University of Tokyo

>  <COMMENT>  (1003) 
SMILES=[H]C(C1)=C(C)CC([H])(O)C([H])=C(C)CCC([H])(C(C)C)C([H])=C([H])C(C)=C([H])1
InChI=InChI=1S/C20H32O/c1-15(2)19-11-9-16(3)7-6-8-17(4)13-20(21)14-18(5)10-12-19/h7-9,11,14-15,19-21H,6,10,12-13H2,1-5H3/b11-9+,16-7+,17-8+,18-14+/t19-,20+/m0/s1
computed SMILES=OC1C=C(C)CCC(C=CC(=CCC=C(C)C1)C)C(C)C
computed InChI=InChI=1S/C20H32O/c1-15(2)19-11-9-16(3)7-6-8-17(4)13-20(21)14-18(5)10-12-19/h7-9,11,14-15,19-21H,6,10,12-13H2,1-5H3/b11-9?,16-7+,17-8-,18-14+/t19-,20+/m0/s1
accession=JP010647
date=2016.01.19 (Created 2008.10.21, modified 2011.05.06)
author=EGUCHI S, FAC. OF SCIENCE, HIROSHIMA UNIV.
license=CC BY-NC-SA
exact mass=288.24532
ionization energy=70 eV
ion type=[M]+*
computed spectral entropy=4.040364380173819
computed normalized entropy=0.8439417960908971
SPLASH=splash10-052f-9400000000-c63e41eb491441509d82
submitter=submitter = University of Tokyo Team (Faculty of Engineering, University of Tokyo)
MoNA Rating=3.75

>  <NUM PEAKS>  (1003) 
120

>  <MASS SPECTRAL PEAKS>  (1003) 
40 4.5
41 94.3
42 13.4
43 99.99
44 10.9
45 17.8
46 6.8
51 0.53
53 30.2
54 7.2
55 98.3
56 1.93
57 40.8
58 7.5
59 5.4
60 0.85
65 9.4
66 4.9
67 29.8
68 1.66
69 59.2
70 14.5
71 22.6
72 0.35
73 6.4
77 29.1
78 7.2
79 3.42
80 12.2
81 48.9
82 20.9
83 3.38
84 17.5
85 10.5
87 3.8
91 3
92 9
93 52.6
94 10.2
95 2.36
96 12.4
97 39.4
98 11.3
99 0.53
103 4.5
105 30.2
106 8
107 2.89
108 10.6
109 22.8
110 6.1
111 1.39
112 4.1
113 3.6
115 6.2
117 0.79
119 24.3
120 7.5
121 23.4
122 1.38
123 20.8
124 5.4
125 8
126 0.45
127 3.5
128 3.9
129 3.6
131 0.75
133 14.6
134 5.6
135 30.9
136 1.56
137 7.3
138 3.8
139 4.5
141 0.31
145 9
147 11.3
148 4.5
149 0.95
150 3.5
151 4.5
152 3.8
153 0.33
157 3.1
159 5.9
161 25.3
162 0.48
163 3.8
164 7.9
165 5.2
171 0.32
175 7.3
176 2.5
177 6.7
179 0.57
187 3
188 3.4
189 11.9
190 1.41
191 8.6
192 2.5
203 4.8
204 0.72
205 3.8
206 2
217 5.7
218 0.19
219 2.3
227 5
228 1
245 0.74
246 1.8
270 2
271 1
273 0.31
274 1.1
288 19.6
289 4.4
290 0.8

$$$$

     RDKit          2D

 28 28  0  0  1  0  0  0  0  0999 V2000
   -3.9000   -0.8100    0.0000 C   0  0  0  0  0  0  0  0  0  0  0  0
    1.3000   -0.8100    0.0000 C   0  0  0  0  0  0  0  0  0  0  0  0
   -2.6000    0.0000    0.0000 C   0  0  0  0  0  0  0  0  0  0  0  0
    0.0010    5.9400    0.0000 C   0  0  0  0  0  0  0  0  0  0  0  0
    3.8981    9.6900    0.0000 C   0  0  0  0  0  0  0  0  0  0  0  0
   -1.2990    6.6900    0.0000 C   0  0  0  0  0  0  0  0  0  0  0  0
   -1.3000    0.6900    0.0000 C   0  0  0  0  0  0  0  0  0  0  0  0
   -5.2000    2.9400    0.0000 C   0  0  0  0  0  0  0  0  0  0  0  0
   -2.6000    1.4400    0.0000 C   0  0  0  0  0  0  0  0  0  0  0  0
   -5.2000    1.4400    0.0000 C   0  0  0  0  0  0  0  0  0  0  0  0
    0.0000    1.4400    0.0000 C   0  0  0  0  0  0  0  0  0  0  0  0
   -3.9000    3.6900    0.0000 C   0  0  0  0  0  0  0  0  0  0  0  0
    2.6000    1.4400    0.0000 C   0  0  0  0  0  0  0  0  0  0  0  0
    2.6000    2.9400    0.0000 C   0  0  0  0  0  0  0  0  0  0  0  0
   -1.3000    3.6900    0.0000 C   0  0  0  0  0  0  0  0  0  0  0  0
    2.5990    5.9400    0.0000 C   0  0  0  0  0  0  0  0  0  0  0  0
   -3.9000    0.6900    0.0000 C   0  0  0  0  0  0  0  0  0  0  0  0
    1.3000    0.6900    0.0000 C   0  0  0  0  0  0  0  0  0  0  0  0
   -2.6000    2.9400    0.0000 C   0  0  0  0  0  0  0  0  0  0  0  0
    1.3000    5.1900    0.0000 C   0  0  0  0  0  0  0  0  0  0  0  0
    3.8981    8.1900    0.0000 C   0  0  0  0  0  0  0  0  0  0  0  0
   -1.2990    5.1900    0.0000 C   0  0  0  0  0  0  0  0  0  0  0  0
    1.3000    3.6900    0.0000 C   0  0  0  0  0  0  0  0  0  0  0  0
    0.0000    2.9400    0.0000 C   0  0  0  0  0  0  0  0  0  0  0  0
    5.1971    7.4400    0.0000 O   0  0  0  0  0  0  0  0  0  0  0  0
   -2.5981    4.4400    0.0000 O   0  0  0  0  0  0  0  0  0  0  0  0
    2.5990    7.4400    0.0000 O   0  0  0  0  0  0  0  0  0  0  0  0
   -0.0000    4.4400    0.0000 O   0  0  0  0  0  0  0  0  0  0  0  0
  9  7  1  0
 10  8  1  0
 11  7  1  0
 12  8  1  0
 14 13  1  0
 17  1  1  0
 17  9  1  0
 10 17  2  0
 18  2  1  0
 11 18  2  0
 18 13  1  0
 19  3  1  0
 19 12  1  0
 15 19  2  0
 20  4  2  0
 20 16  1  0
 21  5  1  0
 22  6  1  0
 23 14  1  0
 23 20  1  6
 24 15  1  0
 24 23  1  0
 25 21  2  0
 26 22  2  0
 27 16  1  0
 27 21  1  0
 28 22  1  0
 24 28  1  1
M  END
>  <NAME>  (1004) 
(1S,2S,3E,7E,11E)-2,17-DIACETOXYCEMBRA-3,7,11,15-TETRAENE

>  <SYNONYMS>  (1004) 


>  <SPECTRUM TYPE>  (1004) 
MS1

>  <INSTRUMENT TYPE>  (1004) 
EI-B

>  <INSTRUMENT>  (1004) 
HITACHI RMU-6L

>  <ION MODE>  (1004) 
P

>  <INCHIKEY>  (1004) 
YBPOQSGQBJVMKO-QWTXQITRSA-N

>  <FORMULA>  (1004) 
C24H36O4

>  <EXACT MASS>  (1004) 
388.261359632

>  <MW>  (1004) 
388

>  <ID>  (1004) 
JP010646

>  <CONTRIBUTOR>  (1004) 
University of Tokyo Team, {Faculty of Engineering, University of Tokyo

>  <COMMENT>  (1004) 
SMILES=CC(=O)OCC(=C)C([H])(C1)C([H])(OC(C)=O)C([H])=C(C)CCC([H])=C(C)CCC([H])=C(C)C1
InChI=InChI=1S/C24H36O4/c1-17-9-7-11-18(2)13-14-23(20(4)16-27-21(5)25)24(28-22(6)26)15-19(3)12-8-10-17/h10-11,15,23-24H,4,7-9,12-14,16H2,1-3,5-6H3/b17-10+,18-11+,19-15+/t23-,24-/m0/s1
computed SMILES=O=C(OCC(=C)C1CCC(=CCCC(=CCCC(=CC1OC(=O)C)C)C)C)C
computed InChI=InChI=1S/C24H36O4/c1-17-9-7-11-18(2)13-14-23(20(4)16-27-21(5)25)24(28-22(6)26)15-19(3)12-8-10-17/h10-11,15,23-24H,4,7-9,12-14,16H2,1-3,5-6H3/b17-10-,18-11+,19-15+/t23-,24-/m0/s1
accession=JP010646
date=2016.01.19 (Created 2008.10.21, modified 2011.05.06)
author=EGUCHI S, FAC. OF SCIENCE, HIROSHIMA UNIV.
license=CC BY-NC-SA
exact mass=388.26136
ionization energy=70 eV
ion type=[M]+*
computed spectral entropy=4.0156215889179725
computed normalized entropy=0.8276167646312312
SPLASH=splash10-0006-9610000000-3e81f5677e08974f7948
submitter=submitter = University of Tokyo Team (Faculty of Engineering, University of Tokyo)
MoNA Rating=3.75

>  <NUM PEAKS>  (1004) 
128

>  <MASS SPECTRAL PEAKS>  (1004) 
41 26.8
42 3.1
43 99.99
44 0.24
45 5.5
53 12.5
54 1.6
55 2.36
56 3.2
57 3.2
60 2.4
65 0.47
66 2.4
67 17.3
68 16.9
69 0.87
70 1.6
71 2.4
77 9.4
78 0.31
79 18.9
80 4.7
81 28.3
82 0.47
83 5.5
84 18.9
85 3.9
91 1.97
92 7.9
93 19.7
94 6.3
95 1.1
96 3.9
97 3.1
103 2.4
104 0.16
105 16.5
106 7.1
107 14.2
108 0.63
109 9.4
110 2.4
111 1.6
115 0.24
116 1.6
117 7.9
118 3.1
119 2.36
120 7.9
121 11
122 3.9
123 0.31
126 2.4
127 1.6
128 1.6
129 0.39
130 1.6
131 7.9
132 10.2
133 1.73
134 12.6
135 14.2
136 3.9
137 0.24
143 3.9
144 3.1
145 9.4
146 0.39
147 6.3
148 3.1
149 3.9
150 0.16
157 7.1
158 3.9
159 7.9
160 0.31
161 3.9
162 1.6
163 1.6
171 0.31
172 1.6
173 3.9
174 2.4
175 0.31
176 1.6
177 3.1
183 1.6
184 0.12
185 5.5
186 2.4
187 6.3
188 0.16
189 2.4
199 2.4
200 0.8
201 0.24
202 2.4
203 1.6
204 3.1
205 0.16
211 1.6
212 1.6
213 3.1
214 0.1
215 1
217 2.4
225 2.4
226 0.16
227 1
239 1.6
240 1.2
241 0.1
253 4.7
254 1.6
255 2.4
268 0.94
269 3.9
270 0.8
285 1.6
286 0.24
287 1
313 1.2
314 1
328 0.39
329 1.6
330 1
388 2.4
389 1

$$$$

     RDKit          2D

 28 28  0  0  1  0  0  0  0  0999 V2000
   -3.9000   -0.8100    0.0000 C   0  0  0  0  0  0  0  0  0  0  0  0
    1.3000   -0.8100    0.0000 C   0  0  0  0  0  0  0  0  0  0  0  0
   -2.6000    0.0000    0.0000 C   0  0  0  0  0  0  0  0  0  0  0  0
    0.0010    5.9400    0.0000 C   0  0  0  0  0  0  0  0  0  0  0  0
    3.8981    9.6900    0.0000 C   0  0  0  0  0  0  0  0  0  0  0  0
   -1.2990    6.6900    0.0000 C   0  0  0  0  0  0  0  0  0  0  0  0
   -1.3000    0.6900    0.0000 C   0  0  0  0  0  0  0  0  0  0  0  0
   -5.2000    2.9400    0.0000 C   0  0  0  0  0  0  0  0  0  0  0  0
   -2.6000    1.4400    0.0000 C   0  0  0  0  0  0  0  0  0  0  0  0
   -5.2000    1.4400    0.0000 C   0  0  0  0  0  0  0  0  0  0  0  0
    0.0000    1.4400    0.0000 C   0  0  0  0  0  0  0  0  0  0  0  0
   -3.9000    3.6900    0.0000 C   0  0  0  0  0  0  0  0  0  0  0  0
    2.6000    1.4400    0.0000 C   0  0  0  0  0  0  0  0  0  0  0  0
    2.6000    2.9400    0.0000 C   0  0  0  0  0  0  0  0  0  0  0  0
   -1.3000    3.6900    0.0000 C   0  0  0  0  0  0  0  0  0  0  0  0
    2.5990    5.9400    0.0000 C   0  0  0  0  0  0  0  0  0  0  0  0
   -3.9000    0.6900    0.0000 C   0  0  0  0  0  0  0  0  0  0  0  0
    1.3000    0.6900    0.0000 C   0  0  0  0  0  0  0  0  0  0  0  0
   -2.6000    2.9400    0.0000 C   0  0  0  0  0  0  0  0  0  0  0  0
    1.3000    5.1900    0.0000 C   0  0  0  0  0  0  0  0  0  0  0  0
    3.8981    8.1900    0.0000 C   0  0  0  0  0  0  0  0  0  0  0  0
   -1.2990    5.1900    0.0000 C   0  0  0  0  0  0  0  0  0  0  0  0
    1.3000    3.6900    0.0000 C   0  0  0  0  0  0  0  0  0  0  0  0
    0.0000    2.9400    0.0000 C   0  0  0  0  0  0  0  0  0  0  0  0
    5.1971    7.4400    0.0000 O   0  0  0  0  0  0  0  0  0  0  0  0
   -2.5981    4.4400    0.0000 O   0  0  0  0  0  0  0  0  0  0  0  0
    2.5990    7.4400    0.0000 O   0  0  0  0  0  0  0  0  0  0  0  0
   -0.0000    4.4400    0.0000 O   0  0  0  0  0  0  0  0  0  0  0  0
  9  7  1  0
 10  8  1  0
 11  7  1  0
 12  8  1  0
 14 13  1  0
 17  1  1  0
 17  9  1  0
 10 17  2  0
 18  2  1  0
 11 18  2  0
 18 13  1  0
 19  3  1  0
 19 12  1  0
 15 19  2  0
 20  4  2  0
 20 16  1  0
 21  5  1  0
 22  6  1  0
 23 14  1  0
 23 20  1  6
 24 15  1  0
 24 23  1  0
 25 21  2  0
 26 22  2  0
 27 16  1  0
 27 21  1  0
 28 22  1  0
 24 28  1  6
M  END
>  <NAME>  (1005) 
(1S,2R,3E,7E,11E)-2,17-DIACETOXYCEMBRA-3,7,11,15-TETRAENE

>  <SYNONYMS>  (1005) 


>  <SPECTRUM TYPE>  (1005) 
MS1

>  <INSTRUMENT TYPE>  (1005) 
EI-B

>  <INSTRUMENT>  (1005) 
HITACHI RMU-6L

>  <ION MODE>  (1005) 
P

>  <INCHIKEY>  (1005) 
YBPOQSGQBJVMKO-JKQBEOCRSA-N

>  <FORMULA>  (1005) 
C24H36O4

>  <EXACT MASS>  (1005) 
388.261359632

>  <MW>  (1005) 
388

>  <ID>  (1005) 
JP010645

>  <CONTRIBUTOR>  (1005) 
University of Tokyo Team, {Faculty of Engineering, University of Tokyo

>  <COMMENT>  (1005) 
SMILES=CC(=O)OCC(=C)C([H])(C1)C([H])(OC(C)=O)C([H])=C(C)CCC([H])=C(C)CCC([H])=C(C)C1
InChI=InChI=1S/C24H36O4/c1-17-9-7-11-18(2)13-14-23(20(4)16-27-21(5)25)24(28-22(6)26)15-19(3)12-8-10-17/h10-11,15,23-24H,4,7-9,12-14,16H2,1-3,5-6H3/b17-10+,18-11+,19-15+/t23-,24+/m0/s1
computed SMILES=O=C(OCC(=C)C1CCC(=CCCC(=CCCC(=CC1OC(=O)C)C)C)C)C
computed InChI=InChI=1S/C24H36O4/c1-17-9-7-11-18(2)13-14-23(20(4)16-27-21(5)25)24(28-22(6)26)15-19(3)12-8-10-17/h10-11,15,23-24H,4,7-9,12-14,16H2,1-3,5-6H3/b17-10-,18-11+,19-15+/t23-,24+/m0/s1
accession=JP010645
date=2016.01.19 (Created 2008.10.21, modified 2011.05.06)
author=EGUCHI S, FAC. OF SCIENCE, HIROSHIMA UNIV.
license=CC BY-NC-SA
exact mass=388.26136
ionization energy=70 eV
ion type=[M]+*
computed spectral entropy=4.113727333571219
computed normalized entropy=0.8492090128126358
SPLASH=splash10-000x-9810000000-a17f9d1fbea8a9a47334
submitter=submitter = University of Tokyo Team (Faculty of Engineering, University of Tokyo)
MoNA Rating=3.75

>  <NUM PEAKS>  (1005) 
127

>  <MASS SPECTRAL PEAKS>  (1005) 
41 26
42 3.3
43 99.99
44 0.33
45 1.6
53 11.5
54 3.3
55 2.95
56 4.9
57 8.2
65 4.9
66 0.33
67 22.9
68 27.8
69 13.1
70 0.16
71 4.9
77 11.5
78 4.9
79 2.62
80 9.8
81 39.3
82 8.2
83 1.15
84 37.7
85 6.6
91 24.6
92 0.98
93 32.8
94 9.8
95 14.8
96 0.82
97 6.6
105 19.7
106 11.5
107 2.62
108 13.1
109 16.4
110 6.6
111 0.33
117 8.2
118 4.9
119 39.3
120 0.98
121 19.7
122 8.2
123 6.6
124 0.16
125 1.6
126 4.9
127 3.3
128 0.16
129 1.6
131 8.2
132 14.8
133 2.62
134 29.5
135 31.1
136 8.2
137 0.49
138 1.6
143 3.3
144 1.6
145 1.48
146 6.6
147 11.5
148 4.9
149 0.82
150 3.3
156 3.3
157 8.2
158 0.49
159 16.4
160 6.6
161 8.2
162 0.49
163 3.3
171 3.3
172 1.6
173 0.66
174 4.9
175 6.6
176 3.3
177 0.82
178 1.6
179 1.6
185 6.6
186 0.33
187 11.5
188 3.3
189 4.9
197 0.33
198 1.6
199 3.3
200 3.3
201 0.49
202 8.2
203 3.3
204 1.6
205 0.16
211 3.3
212 2.5
213 3.3
214 0.16
215 1.6
225 2.5
226 1.6
227 0.16
239 1.6
240 1.6
253 6.6
254 0.16
255 3.3
269 14.8
270 4.9
271 0.16
285 1.6
286 4.9
287 1.6
313 0.16
314 1
315 1
328 8.2
329 0.25
346 1
388 4.9
389 1.6

$$$$

     RDKit          2D

 22 22  0  0  1  0  0  0  0  0999 V2000
   -2.1502   -2.0189    0.0000 C   0  0  0  0  0  0  0  0  0  0  0  0
    4.6000    1.8675    0.0000 C   0  0  0  0  0  0  0  0  0  0  0  0
   -4.3980    4.4702    0.0000 C   0  0  0  0  0  0  0  0  0  0  0  0
    2.3502    5.7687    0.0000 C   0  0  0  0  0  0  0  0  0  0  0  0
    0.8500    0.5800    0.0000 C   0  0  0  0  0  0  0  0  0  0  0  0
   -3.6500    0.5800    0.0000 C   0  0  0  0  0  0  0  0  0  0  0  0
    0.1000   -0.7200    0.0000 C   0  0  0  0  0  0  0  0  0  0  0  0
   -2.1500    0.5800    0.0000 C   0  0  0  0  0  0  0  0  0  0  0  0
    2.3500    0.5800    0.0000 C   0  0  0  0  0  0  0  0  0  0  0  0
   -4.4000    1.8800    0.0000 C   0  0  0  0  0  0  0  0  0  0  0  0
    2.3500    3.1700    0.0000 C   0  0  0  0  0  0  0  0  0  0  0  0
    0.8500    3.1700    0.0000 C   0  0  0  0  0  0  0  0  0  0  0  0
   -2.1500    3.1700    0.0000 C   0  0  0  0  0  0  0  0  0  0  0  0
    0.1004    7.0681    0.0000 C   0  0  0  0  0  0  0  0  0  0  0  0
   -1.4000   -0.7200    0.0000 C   0  0  0  0  0  0  0  0  0  0  0  0
    3.1000    1.8700    0.0000 C   0  0  0  0  0  0  0  0  0  0  0  0
   -3.6500    3.1700    0.0000 C   0  0  0  0  0  0  0  0  0  0  0  0
    0.8502    5.7689    0.0000 C   0  0  0  0  0  0  0  0  0  0  0  0
    0.1000    4.4700    0.0000 C   0  0  0  0  0  0  0  0  0  0  0  0
   -1.4000    4.4700    0.0000 C   0  0  0  0  0  0  0  0  0  0  0  0
    0.8506    8.3670    0.0000 O   0  0  0  0  0  0  0  0  0  0  0  0
   -2.1502    5.7689    0.0000 O   0  0  0  0  0  0  0  0  0  0  0  0
  7  5  1  0
  8  6  1  0
  9  5  1  0
 10  6  1  0
 12 11  1  0
 15  1  1  0
 15  7  1  0
  8 15  2  0
 16  2  1  0
  9 16  2  0
 16 11  1  0
 17  3  1  0
 17 10  1  0
 13 17  2  0
 18  4  2  0
 18 14  1  0
 19 12  1  0
 19 18  1  6
 20 13  1  0
 20 19  1  0
 21 14  1  0
 20 22  1  6
M  END
>  <NAME>  (1006) 
(1S,2S,3E,7E)-2,17-DIHYDROXYCEMBRA-3,7,11,15-TETRAENE

>  <SYNONYMS>  (1006) 


>  <SPECTRUM TYPE>  (1006) 
MS1

>  <INSTRUMENT TYPE>  (1006) 
EI-B

>  <INSTRUMENT>  (1006) 
HITACHI RMU-6L

>  <ION MODE>  (1006) 
P

>  <INCHIKEY>  (1006) 
VUIHPHBVTNHHIN-WUTWRXGKSA-N

>  <FORMULA>  (1006) 
C20H32O2

>  <EXACT MASS>  (1006) 
304.240230264

>  <MW>  (1006) 
304

>  <ID>  (1006) 
JP010644

>  <CONTRIBUTOR>  (1006) 
University of Tokyo Team, {Faculty of Engineering, University of Tokyo

>  <COMMENT>  (1006) 
SMILES=OCC(=C)C([H])(C1)C([H])(O)C([H])=C(C)CCC([H])=C(C)CCC([H])=C(C)C1
InChI=InChI=1S/C20H32O2/c1-15-7-5-9-16(2)11-12-19(18(4)14-21)20(22)13-17(3)10-6-8-15/h8-9,13,19-22H,4-7,10-12,14H2,1-3H3/b15-8+,16-9-,17-13+/t19-,20-/m0/s1
computed SMILES=OCC(=C)C1CCC(=CCCC(=CCCC(=CC1O)C)C)C
accession=JP010644
date=2016.01.19 (Created 2008.10.21, modified 2011.05.06)
author=EGUCHI S, FAC. OF SCIENCE, HIROSHIMA UNIV.
license=CC BY-NC-SA
exact mass=304.24023
ionization energy=70 eV
ion type=[M]+*
computed spectral entropy=3.9977950494862893
computed normalized entropy=0.8174866343213377
SPLASH=splash10-00l6-9400000000-abf09f1483920574c7f3
submitter=submitter = University of Tokyo Team (Faculty of Engineering, University of Tokyo)
MoNA Rating=3.75

>  <NUM PEAKS>  (1006) 
133

>  <MASS SPECTRAL PEAKS>  (1006) 
40 10.4
41 82
42 10.4
43 3.9
44 14.9
45 8.9
51 5.9
52 0.45
53 40.3
54 7.5
55 70.1
56 2.09
57 11.9
58 2.9
59 2.9
65 1.19
66 8.9
67 52.2
68 71.6
69 3.88
70 5.9
71 13.4
72 2.9
77 2.09
78 7.5
79 41.8
80 14.9
81 7.61
82 17.9
83 38.8
84 99.99
85 1.19
91 26.9
92 11.9
93 62.7
94 1.79
95 40.3
96 10.5
97 13.4
98 0.29
99 1.5
103 2.9
104 1.5
105 2.08
106 11.9
107 40.3
108 16.4
109 2.69
110 7.5
111 5.9
113 0.7
114 0.07
115 2.9
116 2.2
117 5.9
118 0.29
119 25.3
120 10.4
121 28.4
122 1.79
123 16.4
124 5.9
125 5.9
126 0.2
131 7.5
132 5.9
133 16.4
134 2.84
135 62.7
136 14.9
137 13.4
138 0.59
139 4.5
140 1.5
145 7.5
146 0.59
147 13.4
148 5.9
149 10.5
150 0.67
151 5.2
152 4.5
153 2.9
159 0.75
160 2.9
161 6.7
162 4.5
163 0.45
164 2.9
165 2.2
173 5.9
174 0.29
175 7.5
176 3.7
177 4.5
178 0.22
179 1.5
185 2.9
186 1.5
187 0.45
188 2.9
189 5.9
190 2.9
191 0.29
192 1.5
193 1.5
201 2.2
202 0.75
203 6.7
204 1.5
205 1.5
213 0.07
215 0.7
217 0.7
218 0.7
221 0.29
222 0.7
223 0.7
243 4.5
244 0.22
253 0.7
255 0.7
256 0.7
257 0.07
271 5.9
272 0.7
273 5.9
274 0.15
286 12.7
287 3.7
288 0.7
304 0.37
305 0.7

$$$$

     RDKit          2D

 22 22  0  0  1  0  0  0  0  0999 V2000
    0.8502   -2.0189    0.0000 C   0  0  0  0  0  0  0  0  0  0  0  0
    3.1002    4.4689    0.0000 C   0  0  0  0  0  0  0  0  0  0  0  0
   -5.9000    1.8825    0.0000 C   0  0  0  0  0  0  0  0  0  0  0  0
   -3.6502    5.7687    0.0000 C   0  0  0  0  0  0  0  0  0  0  0  0
    2.3500    0.5800    0.0000 C   0  0  0  0  0  0  0  0  0  0  0  0
   -2.1500    0.5800    0.0000 C   0  0  0  0  0  0  0  0  0  0  0  0
    0.8500    0.5800    0.0000 C   0  0  0  0  0  0  0  0  0  0  0  0
   -1.4000   -0.7200    0.0000 C   0  0  0  0  0  0  0  0  0  0  0  0
    3.1000    1.8700    0.0000 C   0  0  0  0  0  0  0  0  0  0  0  0
   -3.6500    0.5800    0.0000 C   0  0  0  0  0  0  0  0  0  0  0  0
    0.8500    3.1700    0.0000 C   0  0  0  0  0  0  0  0  0  0  0  0
    0.1000    4.4700    0.0000 C   0  0  0  0  0  0  0  0  0  0  0  0
   -3.6500    3.1700    0.0000 C   0  0  0  0  0  0  0  0  0  0  0  0
   -1.4004    7.0681    0.0000 C   0  0  0  0  0  0  0  0  0  0  0  0
    0.1000   -0.7200    0.0000 C   0  0  0  0  0  0  0  0  0  0  0  0
    2.3500    3.1700    0.0000 C   0  0  0  0  0  0  0  0  0  0  0  0
   -4.4000    1.8800    0.0000 C   0  0  0  0  0  0  0  0  0  0  0  0
   -2.1502    5.7689    0.0000 C   0  0  0  0  0  0  0  0  0  0  0  0
   -1.4000    4.4700    0.0000 C   0  0  0  0  0  0  0  0  0  0  0  0
   -2.1500    3.1700    0.0000 C   0  0  0  0  0  0  0  0  0  0  0  0
   -2.1506    8.3670    0.0000 O   0  0  0  0  0  0  0  0  0  0  0  0
   -1.3998    1.8711    0.0000 O   0  0  0  0  0  0  0  0  0  0  0  0
  7  5  1  0
  8  6  1  0
  9  5  1  0
 10  6  1  0
 12 11  1  0
 15  1  1  0
 15  7  1  0
  8 15  2  0
 16  2  1  0
  9 16  2  0
 16 11  1  0
 17  3  1  0
 17 10  1  0
 13 17  2  0
 18  4  2  0
 18 14  1  0
 19 12  1  0
 19 18  1  6
 20 13  1  0
 20 19  1  0
 21 14  1  0
 20 22  1  6
M  END
>  <NAME>  (1007) 
(1S,2R,3E,7E,11E)-2,17-DIHYDROXYCEMBRA-3,7,11,15-TETRAENE

>  <SYNONYMS>  (1007) 


>  <SPECTRUM TYPE>  (1007) 
MS1

>  <INSTRUMENT TYPE>  (1007) 
EI-B

>  <INSTRUMENT>  (1007) 
HITACHI RMU-6L

>  <ION MODE>  (1007) 
P

>  <INCHIKEY>  (1007) 
VUIHPHBVTNHHIN-IDCFYYSISA-N

>  <FORMULA>  (1007) 
C20H32O2

>  <EXACT MASS>  (1007) 
304.240230264

>  <MW>  (1007) 
304

>  <ID>  (1007) 
JP010643

>  <CONTRIBUTOR>  (1007) 
University of Tokyo Team, {Faculty of Engineering, University of Tokyo

>  <COMMENT>  (1007) 
SMILES=OCC(=C)C([H])(C1)C([H])(O)C([H])=C(C)CCC([H])=C(C)CCC([H])=C(C)C1
InChI=InChI=1S/C20H32O2/c1-15-7-5-9-16(2)11-12-19(18(4)14-21)20(22)13-17(3)10-6-8-15/h8-9,13,19-22H,4-7,10-12,14H2,1-3H3/b15-8+,16-9+,17-13+/t19-,20+/m0/s1
computed SMILES=OCC(=C)C1CCC(=CCCC(=CCCC(=CC1O)C)C)C
computed InChI=InChI=1S/C20H32O2/c1-15-7-5-9-16(2)11-12-19(18(4)14-21)20(22)13-17(3)10-6-8-15/h8-9,13,19-22H,4-7,10-12,14H2,1-3H3/b15-8-,16-9-,17-13-/t19-,20+/m0/s1
accession=JP010643
date=2016.01.19 (Created 2008.10.21, modified 2011.05.06)
author=EGUCHI S, FAC. OF SCIENCE, HIROSHIMA UNIV.
license=CC BY-NC-SA
exact mass=304.24023
ionization energy=70 eV
ion type=[M]+*
computed spectral entropy=4.247093402983584
computed normalized entropy=0.8023519414838608
SPLASH=splash10-0006-9810000000-403afd883cdd4cd33dcc
submitter=submitter = University of Tokyo Team (Faculty of Engineering, University of Tokyo)
MoNA Rating=3.75

>  <NUM PEAKS>  (1007) 
199

>  <MASS SPECTRAL PEAKS>  (1007) 
40 9.1
41 99.99
42 6.4
43 2.7
44 1.5
45 2
46 1
47 0.38
48 1.8
49 0.9
51 4.1
52 0.29
53 43.9
54 5.8
55 92.9
56 1.23
57 10.2
58 1.2
59 2
60 0.06
63 1.2
65 12.9
66 7.3
67 6.32
68 56.1
69 49.1
70 5.3
71 0.91
77 33
78 7.3
79 56
80 1.5
81 19.4
83 28.4
84 73.7
85 1.14
87 1.8
89 1.5
91 56
92 1.9
93 93
94 21
95 44
96 1.1
97 15.5
98 2.6
99 1.8
103 0.38
104 2.6
105 45.6
106 17.5
107 5.6
108 23.7
109 40.4
110 7.6
111 0.73
112 1.8
113 0.6
115 5.3
116 0.29
117 13.5
118 4.1
119 59.6
120 1.46
121 56.1
122 19
123 17.8
124 0.56
125 4.7
126 4.1
127 6.7
128 0.35
129 7.3
130 2.9
131 16.7
132 1.08
133 29.2
134 33
135 80.7
136 1.69
137 17.5
138 5.8
139 5.3
140 0.12
141 2.9
142 2.9
143 5.6
144 0.35
145 19
146 6.7
147 23.3
148 1.17
149 18.7
150 18.2
151 9.4
152 0.35
153 2.3
154 0.9
155 2.3
156 0.2
157 9.4
158 3.5
159 13.7
160 0.58
161 11.7
162 7.3
163 11.4
164 0.53
165 3.2
166 1.2
167 1.2
168 0.09
169 2.3
170 1.5
171 4.7
172 0.23
173 9.1
174 3.2
175 19
176 0.79
177 7.3
178 2
179 1.2
180 0.09
181 1.2
182 1.8
183 2.6
184 0.15
185 5.3
186 2.6
187 10.2
188 0.35
189 10.2
190 3.2
191 2.9
192 0.15
193 1.2
195 0.6
196 0.6
197 0.29
198 0.9
199 2.9
200 2
201 0.41
202 9.1
203 10.2
204 2.9
205 0.35
206 1.8
207 1.2
211 1.8
212 0.12
213 2.9
214 0.9
215 4.1
216 0.2
217 2.9
218 2.3
219 1.5
220 0.12
221 2
222 1.5
223 1.2
225 0.15
226 0.6
227 1.2
228 1.2
229 0.29
230 1.5
231 1.8
232 0.9
240 0.09
241 0.9
242 0.6
243 2.6
244 0.15
245 0.6
253 2.9
254 1.2
255 0.53
256 1.8
257 2
258 1.5
260 0.03
262 2
263 0.6
268 6.4
269 0.18
270 0.9
271 5.8
272 1.5
273 0.5
274 1.2
286 40.4
287 8.9
288 0.61
289 1.5
304 2
305 0.6

$$$$

     RDKit          2D

 28 30  0  0  1  0  0  0  0  0999 V2000
    3.2860    5.6205    0.0000 C   0  0  0  0  0  0  0  0  0  0  0  0
    1.1727   -3.6381    0.0000 C   0  0  0  0  0  0  0  0  0  0  0  0
    9.9388   -2.1009    0.0000 C   0  0  0  0  0  0  0  0  0  0  0  0
    5.9211    2.8515    0.0000 C   0  0  0  0  0  0  0  0  0  0  0  0
    4.7484   -2.2867    0.0000 C   0  0  0  0  0  0  0  0  0  0  0  0
    4.7484    3.7867    0.0000 C   0  0  0  0  0  0  0  0  0  0  0  0
    3.2860   -2.6205    0.0000 C   0  0  0  0  0  0  0  0  0  0  0  0
    6.5719    1.5000    0.0000 C   0  0  0  0  0  0  0  0  0  0  0  0
    5.9211   -1.3515    0.0000 C   0  0  0  0  0  0  0  0  0  0  0  0
    1.8236    3.7867    0.0000 C   0  0  0  0  0  0  0  0  0  0  0  0
    0.6508    2.8515    0.0000 C   0  0  0  0  0  0  0  0  0  0  0  0
   -0.5449    3.1771    0.0000 C   0  0  0  0  0  0  0  0  0  0  0  0
   -1.4266    4.3906    0.0000 C   0  0  0  0  0  0  0  0  0  0  0  0
    0.6508   -1.3515    0.0000 C   0  0  0  0  0  0  0  0  0  0  0  0
    3.2860    4.1205    0.0000 C   0  0  0  0  0  0  0  0  0  0  0  0
    1.8236   -2.2867    0.0000 C   0  0  0  0  0  0  0  0  0  0  0  0
    6.5719    0.0000    0.0000 C   0  0  0  0  0  0  0  0  0  0  0  0
    0.0000    1.5000    0.0000 C   0  0  0  0  0  0  0  0  0  0  0  0
    0.0000    0.0000    0.0000 C   0  0  0  0  0  0  0  0  0  0  0  0
    8.0343   -0.3338    0.0000 C   0  0  0  0  0  0  0  0  0  0  0  0
   -2.3083    0.7500    0.0000 C   0  0  0  0  0  0  0  0  0  0  0  0
   -1.4266    1.9635    0.0000 C   0  0  0  0  0  0  0  0  0  0  0  0
   -2.8532    3.9271    0.0000 N   0  0  0  0  0  0  0  0  0  0  0  0
   -2.8532    2.4271    0.0000 N   0  0  0  0  0  0  0  0  0  0  0  0
    9.0546    0.7658    0.0000 O   0  0  0  0  0  0  0  0  0  0  0  0
   -3.8083    0.7500    0.0000 O   0  0  0  0  0  0  0  0  0  0  0  0
    8.4765   -1.7671    0.0000 O   0  0  0  0  0  0  0  0  0  0  0  0
   -1.4266   -0.4635    0.0000 O   0  0  0  0  0  0  0  0  0  0  0  0
  6  4  1  0
  7  5  1  0
  8  4  1  0
  9  5  1  0
 11 10  1  0
 13 12  1  0
 15  1  1  0
  6 15  2  3
 15 10  1  0
 16  2  1  0
 16  7  1  0
 14 16  2  3
 17  8  1  0
  9 17  2  0
 18 11  1  6
 19 14  1  6
 19 18  1  0
 20 17  1  0
 22 12  1  0
 22 18  1  0
 22 21  1  0
 23 13  1  0
 24 22  1  0
 24 23  2  0
 25 20  2  0
 26 21  2  0
 27  3  1  0
 27 20  1  0
 19 28  1  0
 28 21  1  0
M  END
>  <NAME>  (1008) 
LOBOHEDLEOLIDE PRYAZOLINE METHYL ESTER

>  <SYNONYMS>  (1008) 


>  <SPECTRUM TYPE>  (1008) 
MS1

>  <INSTRUMENT TYPE>  (1008) 
EI-B

>  <INSTRUMENT>  (1008) 
HITACHI RMU-6L

>  <ION MODE>  (1008) 
P

>  <INCHIKEY>  (1008) 
JLXRCOCRQNIQSO-AZZZFUBASA-N

>  <FORMULA>  (1008) 
C22H30N2O4

>  <EXACT MASS>  (1008) 
386.22055744

>  <MW>  (1008) 
386

>  <ID>  (1008) 
JP010640

>  <CONTRIBUTOR>  (1008) 
University of Tokyo Team, {Faculty of Engineering, University of Tokyo

>  <COMMENT>  (1008) 
SMILES=COC(=O)C(C3)=CCCC(C)=CC([H])(O1)C([H])(CCC(C)=CC3)C(C2)(N=NC2)C(=O)1
InChI=InChI=1S/C22H30N2O4/c1-15-6-4-8-17(20(25)27-3)9-5-7-16(2)14-19-18(11-10-15)22(21(26)28-19)12-13-23-24-22/h6,9,14,18-19H,4-5,7-8,10-13H2,1-3H3/b15-6+,16-14+,17-9+/t18-,19+,22?/m1/s1
computed SMILES=O=C(OC)C1=CCCC(=CC2OC(=O)C3(N=NCC3)C2CCC(=CCC1)C)C
computed InChI=InChI=1S/C22H30N2O4/c1-15-6-4-8-17(20(25)27-3)9-5-7-16(2)14-19-18(11-10-15)22(21(26)28-19)12-13-23-24-22/h6,9,14,18-19H,4-5,7-8,10-13H2,1-3H3/b15-6?,16-14?,17-9+/t18-,19+,22?/m1/s1
accession=JP010640
date=2016.01.19 (Created 2008.10.21, modified 2011.05.06)
author=EGUCHI S, FAC. OF SCIENCE, HIROSHIMA UNIV.
license=CC BY-NC-SA
exact mass=386.22056
ionization energy=70 eV
ion type=[M]+*
computed spectral entropy=4.5793006118075
computed normalized entropy=0.8790311515291775
SPLASH=splash10-052f-9820000000-36ddde12cc74885c8636
submitter=submitter = University of Tokyo Team (Faculty of Engineering, University of Tokyo)
MoNA Rating=3.75

>  <NUM PEAKS>  (1008) 
183

>  <MASS SPECTRAL PEAKS>  (1008) 
40 10.3
41 99.99
42 7.5
43 1.96
45 6.5
51 6.5
52 4.7
53 6.45
54 9.3
55 62.6
56 4.7
57 0.65
59 18.7
65 25.2
66 13.1
67 6.26
68 13.6
69 14
71 6.5
77 3.36
78 10.3
79 51.4
80 14
81 7.66
82 15
83 12.1
84 6.5
85 0.47
91 60.7
92 12.1
93 32.7
94 1.21
95 28
96 7.5
97 5.6
103 0.65
104 5.6
105 42.1
106 9.3
107 2.99
108 7.5
109 13.1
110 4.7
111 0.75
112 5.6
113 3.7
115 6.5
116 0.47
117 15
118 9.3
119 32.7
120 1.21
121 16.8
122 7.5
123 6.5
124 0.47
125 3.7
128 4.7
129 8.4
130 0.37
131 16.8
132 9.3
133 14
134 1.21
135 13.1
136 7.5
137 9.3
138 0.37
139 3.3
143 7.5
144 3.7
145 1.68
146 8.4
147 25.2
148 6.5
149 1.12
150 5.6
151 6.5
152 3.7
153 0.33
157 7.5
158 4.2
159 12.1
160 0.65
161 12.1
162 8.4
163 14.9
164 0.65
165 12.1
166 4.2
169 3.7
171 0.65
172 3.7
173 11.2
174 5.6
175 0.84
176 5.6
177 11.2
178 9.3
179 0.75
180 3.7
181 2.8
183 3.7
185 0.84
186 5.4
187 9.3
188 4.7
189 0.56
190 4.7
191 8.4
192 6.5
193 0.37
197 4.7
198 3.7
199 8.4
200 0.47
201 7.5
202 4.7
203 7.5
204 0.47
205 5.6
206 3.7
207 3.3
211 0.47
212 3.7
213 8.4
214 4.7
215 0.65
216 3.7
217 6.5
218 4.7
219 0.37
225 3.7
226 2.8
227 4.7
229 0.37
230 3.7
231 6.5
241 3.7
243 0.56
244 3.3
245 3.7
246 5.6
247 0.28
253 5.6
254 2.3
255 3.7
257 0.38
265 3.7
269 3.5
270 3.3
279 0.28
280 5.6
281 6.5
282 2.8
283 0.42
284 2.8
285 1.9
291 1.9
293 0.28
297 3.7
298 10.2
299 5.6
300 0.19
308 5.6
309 3.7
310 1.4
311 0.42
312 3.7
313 1.9
326 15.9
327 0.84
328 2.8
329 1
341 4.5
342 0.28
343 2
344 1
358 10.2
359 0.37
360 1
386 2.8
387 1

$$$$

     RDKit          2D

 24 25  0  0  1  0  0  0  0  0999 V2000
   -2.1502    5.7689    0.0000 C   0  0  0  0  0  0  0  0  0  0  0  0
   -2.1502   -2.0189    0.0000 C   0  0  0  0  0  0  0  0  0  0  0  0
   -6.9818    2.5719    0.0000 C   0  0  0  0  0  0  0  0  0  0  0  0
    0.8500    3.1700    0.0000 C   0  0  0  0  0  0  0  0  0  0  0  0
    0.8500    0.5800    0.0000 C   0  0  0  0  0  0  0  0  0  0  0  0
    0.1000    4.4700    0.0000 C   0  0  0  0  0  0  0  0  0  0  0  0
    0.1000   -0.7200    0.0000 C   0  0  0  0  0  0  0  0  0  0  0  0
    2.3500    3.1700    0.0000 C   0  0  0  0  0  0  0  0  0  0  0  0
    2.3500    0.5800    0.0000 C   0  0  0  0  0  0  0  0  0  0  0  0
   -2.1500    3.1700    0.0000 C   0  0  0  0  0  0  0  0  0  0  0  0
   -3.6500    3.1700    0.0000 C   0  0  0  0  0  0  0  0  0  0  0  0
   -2.1500    0.5800    0.0000 C   0  0  0  0  0  0  0  0  0  0  0  0
   -1.4000    4.4700    0.0000 C   0  0  0  0  0  0  0  0  0  0  0  0
   -1.4000   -0.7200    0.0000 C   0  0  0  0  0  0  0  0  0  0  0  0
   -5.8672    1.5681    0.0000 C   0  0  0  0  0  0  0  0  0  0  0  0
    3.1000    1.8700    0.0000 C   0  0  0  0  0  0  0  0  0  0  0  0
   -4.4000    1.8800    0.0000 C   0  0  0  0  0  0  0  0  0  0  0  0
   -3.6500    0.5800    0.0000 C   0  0  0  0  0  0  0  0  0  0  0  0
    4.6000    1.8675    0.0000 C   0  0  0  0  0  0  0  0  0  0  0  0
   -6.0244    0.0765    0.0000 C   0  0  0  0  0  0  0  0  0  0  0  0
    5.3478    0.5672    0.0000 O   0  0  0  0  0  0  0  0  0  0  0  0
    5.3522    3.1653    0.0000 O   0  0  0  0  0  0  0  0  0  0  0  0
   -7.3237   -0.6731    0.0000 O   0  0  0  0  0  0  0  0  0  0  0  0
   -4.6544   -0.5341    0.0000 O   0  0  0  0  0  0  0  0  0  0  0  0
  6  4  1  0
  7  5  1  0
  8  4  1  0
  9  5  1  0
 11 10  1  0
 13  1  1  0
  6 13  2  0
 13 10  1  0
 14  2  1  0
 14  7  1  0
 12 14  2  0
 15  3  2  0
 16  8  1  0
  9 16  2  0
 17 11  1  6
 17 15  1  0
 18 12  1  6
 18 17  1  0
 19 16  1  0
 20 15  1  0
 21 19  2  0
 22 19  1  0
 23 20  2  0
 18 24  1  0
 24 20  1  0
M  END
>  <NAME>  (1009) 
(7Z)-LOBOHEDLEOLIDE

>  <SYNONYMS>  (1009) 


>  <SPECTRUM TYPE>  (1009) 
MS1

>  <INSTRUMENT TYPE>  (1009) 
EI-B

>  <INSTRUMENT>  (1009) 
HITACHI RMU-6L

>  <ION MODE>  (1009) 
P

>  <INCHIKEY>  (1009) 
SORYERHBQFTRIK-JAQFIYPLSA-N

>  <FORMULA>  (1009) 
C20H26O4

>  <EXACT MASS>  (1009) 
330.183109312

>  <MW>  (1009) 
330

>  <ID>  (1009) 
JP010639

>  <CONTRIBUTOR>  (1009) 
University of Tokyo Team, {Faculty of Engineering, University of Tokyo

>  <COMMENT>  (1009) 
SMILES=OC(=O)C(C2)=C([H])CCC(C)=C([H])C([H])(O1)C([H])(CCC(C)=C([H])C2)C(=C)C(=O)1
InChI=InChI=1S/C20H26O4/c1-13-6-4-8-16(19(21)22)9-5-7-14(2)12-18-17(11-10-13)15(3)20(23)24-18/h6,9,12,17-18H,3-5,7-8,10-11H2,1-2H3,(H,21,22)/b13-6-,14-12+,16-9+/t17-,18-/m0/s1
computed SMILES=O=C(O)C1=CCCC(=CC2OC(=O)C(=C)C2CCC(=CCC1)C)C
accession=JP010639
date=2016.01.19 (Created 2008.10.21, modified 2011.05.06)
author=EGUCHI S, FAC. OF SCIENCE, HIROSHIMA UNIV.
license=CC BY-NC-SA
exact mass=330.18311
ionization energy=70 eV
ion type=[M]+*
computed spectral entropy=4.404895836162966
computed normalized entropy=0.8538183021286118
SPLASH=splash10-0k96-9510000000-a3be6b8c82eaba12dbad
submitter=submitter = University of Tokyo Team (Faculty of Engineering, University of Tokyo)
MoNA Rating=3.75

>  <NUM PEAKS>  (1009) 
174

>  <MASS SPECTRAL PEAKS>  (1009) 
40 8.5
41 65.5
42 7.5
43 3
44 3.5
45 6
51 8.5
52 0.5
53 99.99
54 10
55 67
56 0.65
57 18
58 2
59 4
60 0.7
61 1
65 18.5
66 9.5
67 3.1
68 17
69 27
70 6
71 1
72 3.5
73 8
74 1.5
77 2.65
78 8.5
79 39
80 12.5
81 8.15
82 18
83 18
84 10.5
85 0.6
91 49
92 12
93 30
94 0.3
95 20
96 3
97 8
98 0.45
99 3
103 7
104 2
105 0.4
106 10
107 24
108 9
109 1.1
110 6
111 4.5
112 5
113 0.25
114 1.5
115 6.1
116 2
117 1.2
118 7.5
119 29
120 9
121 2.45
122 7
123 11.5
124 6
125 0.2
126 1.5
127 2
128 4
129 0.55
130 3
131 14
132 5
133 2
134 8.5
135 15
136 8
137 0.7
138 3.5
139 2.5
140 1.5
141 0.3
142 2.5
143 5
144 3.5
145 1.4
146 5
147 16
148 8
149 1.8
150 6
151 10
152 6
153 0.3
155 3
157 5.5
158 2.5
159 0.99
160 5.5
161 9.9
162 6.5
163 1.05
164 11.5
165 9.5
166 3.5
171 0.7
172 3
173 7
174 3
175 0.65
176 7
177 9
178 5.5
179 0.45
187 6.5
188 4.5
189 7
190 0.4
191 3.5
192 2
193 1.5
197 0.3
198 2
199 7
200 3.5
201 0.55
202 3
203 6
204 3
205 0.2
211 2.5
213 4.5
214 2.5
215 0.35
216 2
217 7.5
218 3
219 0.25
227 3
228 2
229 4
230 0.25
231 3.5
232 5.5
233 2.5
239 0.35
240 1.5
241 2
242 1
243 0.2
256 3.5
257 2
258 2
259 0.2
267 2.5
268 1.5
269 5
270 0.15
284 11.5
285 5
286 1.5
295 0.35
296 2
297 3
298 1
312 1.15
313 3
314 1
315 2
316 0.1
330 4.5
331 1.5

$$$$

     RDKit          2D

 23 23  0  0  1  0  0  0  0  0999 V2000
   -4.3980    4.4702    0.0000 C   0  0  0  0  0  0  0  0  0  0  0  0
    4.6000    1.8675    0.0000 C   0  0  0  0  0  0  0  0  0  0  0  0
    2.3502    5.7687    0.0000 C   0  0  0  0  0  0  0  0  0  0  0  0
   -3.6500    0.5800    0.0000 C   0  0  0  0  0  0  0  0  0  0  0  0
    0.8500    0.5800    0.0000 C   0  0  0  0  0  0  0  0  0  0  0  0
   -4.4000    1.8800    0.0000 C   0  0  0  0  0  0  0  0  0  0  0  0
    2.3500    0.5800    0.0000 C   0  0  0  0  0  0  0  0  0  0  0  0
   -2.1500    0.5800    0.0000 C   0  0  0  0  0  0  0  0  0  0  0  0
    0.1000   -0.7200    0.0000 C   0  0  0  0  0  0  0  0  0  0  0  0
   -2.1500    3.1700    0.0000 C   0  0  0  0  0  0  0  0  0  0  0  0
   -1.4000    4.4700    0.0000 C   0  0  0  0  0  0  0  0  0  0  0  0
    2.3500    3.1700    0.0000 C   0  0  0  0  0  0  0  0  0  0  0  0
    0.1004    7.0681    0.0000 C   0  0  0  0  0  0  0  0  0  0  0  0
   -2.1502   -2.0189    0.0000 C   0  0  0  0  0  0  0  0  0  0  0  0
   -3.6500    3.1700    0.0000 C   0  0  0  0  0  0  0  0  0  0  0  0
    3.1000    1.8700    0.0000 C   0  0  0  0  0  0  0  0  0  0  0  0
    0.8502    5.7689    0.0000 C   0  0  0  0  0  0  0  0  0  0  0  0
   -1.4000   -0.7200    0.0000 C   0  0  0  0  0  0  0  0  0  0  0  0
    0.1000    4.4700    0.0000 C   0  0  0  0  0  0  0  0  0  0  0  0
    0.8500    3.1700    0.0000 C   0  0  0  0  0  0  0  0  0  0  0  0
    0.8506    8.3670    0.0000 O   0  0  0  0  0  0  0  0  0  0  0  0
   -1.4004   -3.3181    0.0000 O   0  0  0  0  0  0  0  0  0  0  0  0
    0.0998    1.8711    0.0000 O   0  0  0  0  0  0  0  0  0  0  0  0
  6  4  1  0
  7  5  1  0
  8  4  1  0
  9  5  1  0
 11 10  1  0
 15  1  1  0
  6 15  2  0
 15 10  1  0
 16  2  1  0
 16  7  1  0
 12 16  2  0
 17  3  1  0
 13 17  2  0
 18  8  1  0
  9 18  2  0
 18 14  1  0
 19 11  1  0
 19 17  1  1
 20 12  1  0
 20 19  1  0
 21 13  1  0
 22 14  1  0
 20 23  1  1
M  END
>  <NAME>  (1010) 
(1S,2R,3E,7E,11E)-2,16,19-TRIHYDROXYCEMBRA-3,7,11,15-TETRAENE

>  <SYNONYMS>  (1010) 


>  <SPECTRUM TYPE>  (1010) 
MS1

>  <INSTRUMENT TYPE>  (1010) 
EI-B

>  <INSTRUMENT>  (1010) 
HITACHI RMU-6L

>  <ION MODE>  (1010) 
P

>  <INCHIKEY>  (1010) 
NOLQVIDYFVOCMG-BAOFUKJUSA-N

>  <FORMULA>  (1010) 
C20H32O3

>  <EXACT MASS>  (1010) 
320.23514488399996

>  <MW>  (1010) 
320

>  <ID>  (1010) 
JP010638

>  <CONTRIBUTOR>  (1010) 
University of Tokyo Team, {Faculty of Engineering, University of Tokyo

>  <COMMENT>  (1010) 
SMILES=OCC(C1)=C([H])CCC(C)=C([H])C([H])(O)C([H])(CCC(C)=C([H])C1)C(C)=CO
InChI=InChI=1S/C20H32O3/c1-15-6-4-8-18(14-22)9-5-7-16(2)12-20(23)19(11-10-15)17(3)13-21/h6,9,12-13,19-23H,4-5,7-8,10-11,14H2,1-3H3/b15-6+,16-12+,17-13+,18-9+/t19-,20+/m0/s1
computed SMILES=OC=C(C)C1CCC(=CCCC(=CCCC(=CC1O)C)CO)C
computed InChI=InChI=1S/C20H32O3/c1-15-6-4-8-18(14-22)9-5-7-16(2)12-20(23)19(11-10-15)17(3)13-21/h6,9,12-13,19-23H,4-5,7-8,10-11,14H2,1-3H3/b15-6-,16-12-,17-13+,18-9+/t19-,20+/m0/s1
license=CC BY-NC-SA
accession=JP010638
date=2016.01.19 (Created 2008.10.21, modified 2011.05.06)
author=EGUCHI S, FAC. OF SCIENCE, HIROSHIMA UNIV.
exact mass=320.23514
ionization energy=70 eV
ion type=[M]+*
computed spectral entropy=4.430399540028234
computed normalized entropy=0.8346224781009531
SPLASH=splash10-053u-9610000000-72a77984e941c764c873
submitter=submitter = University of Tokyo Team (Faculty of Engineering, University of Tokyo)
MoNA Rating=3.75

>  <NUM PEAKS>  (1010) 
202

>  <MASS SPECTRAL PEAKS>  (1010) 
41 89
42 9.9
43 30.9
44 0.43
45 3.7
47 28.4
48 9.9
49 1.48
50 4.9
51 3.7
52 3.7
53 4.81
54 7.4
55 99.99
56 24.7
57 1.73
65 13.6
66 11.1
67 69.1
68 4.07
69 35.8
70 6.2
71 12.3
77 3.33
78 8.6
79 66.7
80 16
81 7.16
82 17.3
83 82.7
84 80
85 5.67
86 32
87 11
88 3.7
91 4.07
92 16
93 84
94 19
95 3.5
96 11
97 20
98 7.4
99 0.49
103 6.2
104 3.7
105 43
106 1.73
107 40.7
108 19.8
109 26
110 0.99
111 7.4
112 3.7
113 2.5
115 0.62
116 3.7
117 13.6
118 6.2
119 4.07
120 14.8
121 34.8
122 15.4
123 1.48
124 7.4
125 6.2
126 2.5
127 0.25
128 3.1
129 6.2
130 3.7
131 1.73
132 11.1
133 37
134 26
135 4.69
136 17.3
137 12.3
138 4.9
139 0.37
141 2.5
142 2.5
143 7.4
144 0.49
145 21
146 8.6
147 16
148 0.99
149 16
150 13.6
151 6.2
152 0.43
153 3.7
154 2.5
155 2.5
156 0.25
157 8.6
158 4.9
159 11.1
160 0.62
161 12.3
162 8.6
163 8.6
164 0.25
165 3.1
166 2.1
167 3.7
168 0.19
169 2.5
170 1.2
171 6.2
172 0.49
173 11
174 6.2
175 14.8
176 0.49
177 3.7
178 2.5
179 1.9
181 0.19
182 1.2
183 3.1
184 2.5
185 0.86
186 3.7
187 8.6
188 4.9
189 0.74
190 5
191 5
192 5
193 0.25
197 2.5
198 2.5
199 4.9
200 0.62
201 10
202 4.5
203 6.8
204 0.31
205 3.1
211 1.9
212 1.2
213 0.31
214 2
215 2.5
216 2.5
217 0.25
218 7.4
219 6.2
220 5
221 0.37
227 3.1
228 2.5
229 2.5
230 0.25
231 1.9
232 1.9
233 2.5
234 0.31
235 1.9
236 2.5
237 1.9
238 0.12
239 1.2
240 1.2
241 3.7
242 0.2
243 2
244 1.2
245 1.2
246 0.12
247 1.2
251 2.5
252 1.2
253 0.25
254 1.9
255 3.7
256 3.7
257 0.25
258 1.2
259 2.5
269 3.7
271 0.37
272 1.9
273 3.7
274 1.9
275 0.49
276 3.7
284 6.2
285 3.7
286 0.12
287 3.7
288 1.2
289 2.5
302 0.99
303 3.7
304 3.7
305 1.2
320 0.49
321 1.9
322 1.2

$$$$

     RDKit          2D

 24 25  0  0  1  0  0  0  0  0999 V2000
   -2.1502    5.7689    0.0000 C   0  0  0  0  0  0  0  0  0  0  0  0
   -2.1502   -2.0189    0.0000 C   0  0  0  0  0  0  0  0  0  0  0  0
   -6.9818    2.5719    0.0000 C   0  0  0  0  0  0  0  0  0  0  0  0
    0.8500    3.1700    0.0000 C   0  0  0  0  0  0  0  0  0  0  0  0
    0.8500    0.5800    0.0000 C   0  0  0  0  0  0  0  0  0  0  0  0
    0.1000    4.4700    0.0000 C   0  0  0  0  0  0  0  0  0  0  0  0
    0.1000   -0.7200    0.0000 C   0  0  0  0  0  0  0  0  0  0  0  0
    2.3500    3.1700    0.0000 C   0  0  0  0  0  0  0  0  0  0  0  0
    2.3500    0.5800    0.0000 C   0  0  0  0  0  0  0  0  0  0  0  0
   -2.1500    3.1700    0.0000 C   0  0  0  0  0  0  0  0  0  0  0  0
   -3.6500    3.1700    0.0000 C   0  0  0  0  0  0  0  0  0  0  0  0
   -2.1500    0.5800    0.0000 C   0  0  0  0  0  0  0  0  0  0  0  0
   -1.4000    4.4700    0.0000 C   0  0  0  0  0  0  0  0  0  0  0  0
   -1.4000   -0.7200    0.0000 C   0  0  0  0  0  0  0  0  0  0  0  0
   -5.8672    1.5681    0.0000 C   0  0  0  0  0  0  0  0  0  0  0  0
    3.1000    1.8700    0.0000 C   0  0  0  0  0  0  0  0  0  0  0  0
   -4.4000    1.8800    0.0000 C   0  0  0  0  0  0  0  0  0  0  0  0
   -3.6500    0.5800    0.0000 C   0  0  0  0  0  0  0  0  0  0  0  0
    4.6000    1.8675    0.0000 C   0  0  0  0  0  0  0  0  0  0  0  0
   -6.0244    0.0765    0.0000 C   0  0  0  0  0  0  0  0  0  0  0  0
    5.3478    0.5672    0.0000 O   0  0  0  0  0  0  0  0  0  0  0  0
    5.3522    3.1653    0.0000 O   0  0  0  0  0  0  0  0  0  0  0  0
   -7.3237   -0.6731    0.0000 O   0  0  0  0  0  0  0  0  0  0  0  0
   -4.6544   -0.5341    0.0000 O   0  0  0  0  0  0  0  0  0  0  0  0
  6  4  1  0
  7  5  1  0
  8  4  1  0
  9  5  1  0
 11 10  1  0
 13  1  1  0
  6 13  2  0
 13 10  1  0
 14  2  1  0
 14  7  1  0
 12 14  2  0
 15  3  2  0
 16  8  1  0
  9 16  2  0
 17 11  1  6
 17 15  1  0
 18 12  1  6
 18 17  1  0
 19 16  1  0
 20 15  1  0
 21 19  2  0
 22 19  1  0
 23 20  2  0
 18 24  1  0
 24 20  1  0
M  END
>  <NAME>  (1011) 
LOBOHEDLEOLIDE

>  <SYNONYMS>  (1011) 


>  <SPECTRUM TYPE>  (1011) 
MS1

>  <INSTRUMENT TYPE>  (1011) 
EI-B

>  <INSTRUMENT>  (1011) 
HITACHI RMU-6L

>  <ION MODE>  (1011) 
P

>  <INCHIKEY>  (1011) 
SORYERHBQFTRIK-AQJYKDKHSA-N

>  <FORMULA>  (1011) 
C20H26O4

>  <EXACT MASS>  (1011) 
330.183109312

>  <MW>  (1011) 
330

>  <ID>  (1011) 
JP010637

>  <CONTRIBUTOR>  (1011) 
University of Tokyo Team, {Faculty of Engineering, University of Tokyo

>  <COMMENT>  (1011) 
SMILES=OC(=O)C(C2)=CCCC(C)=CC([H])(O1)C([H])(CCC(C)=CC2)C(=C)C(=O)1
InChI=InChI=1S/C20H26O4/c1-13-6-4-8-16(19(21)22)9-5-7-14(2)12-18-17(11-10-13)15(3)20(23)24-18/h6,9,12,17-18H,3-5,7-8,10-11H2,1-2H3,(H,21,22)/b13-6+,14-12+,16-9+/t17-,18-/m0/s1
computed SMILES=O=C(O)C1=CCCC(=CC2OC(=O)C(=C)C2CCC(=CCC1)C)C
computed InChI=InChI=1S/C20H26O4/c1-13-6-4-8-16(19(21)22)9-5-7-14(2)12-18-17(11-10-13)15(3)20(23)24-18/h6,9,12,17-18H,3-5,7-8,10-11H2,1-2H3,(H,21,22)/b13-6-,14-12+,16-9+/t17-,18-/m0/s1
license=CC BY-NC-SA
accession=JP010637
date=2016.01.19 (Created 2008.10.21, modified 2011.05.06)
author=EGUCHI S, FAC. OF SCIENCE, HIROSHIMA UNIV.
exact mass=330.18311
ionization energy=70 eV
ion type=[M]+*
computed spectral entropy=4.82592358374732
computed normalized entropy=0.8925042125014937
SPLASH=splash10-0006-9720000000-36b48a0f1282284dc92c
submitter=submitter = University of Tokyo Team (Faculty of Engineering, University of Tokyo)
MoNA Rating=3.75

>  <NUM PEAKS>  (1011) 
223

>  <MASS SPECTRAL PEAKS>  (1011) 
41 99.99
42 16
43 57
44 0.9
45 29.5
46 6.8
50 4.5
51 1.14
52 6.8
53 95.5
54 15.9
55 7.95
56 15.9
57 36.4
58 4.5
59 0.68
60 20.5
61 6.8
63 4.5
65 2.05
66 11.4
67 36.4
68 18.2
69 3.64
70 11.4
71 22.7
72 4.5
73 2.5
74 6.8
75 6.8
76 4.5
77 3.4
78 9.1
79 45
80 15.9
81 9.5
82 25
83 31.8
84 15.9
85 1.36
86 4.5
87 6.8
91 50
92 1.14
93 31.8
94 15.9
95 25
96 1.14
97 16
98 11.4
99 6.8
101 0.68
102 4.5
103 6.8
104 3.8
105 4.32
106 11.4
107 31.8
108 11.2
109 1.82
110 6.8
111 11.5
112 4
113 0.45
114 4
115 11.5
116 6.8
117 1.36
118 11.5
119 29.5
120 16
121 2.3
122 11
123 11.5
124 9
125 0.68
126 4.5
127 7
128 6.5
129 1.82
130 4.5
131 20.5
132 6.8
133 2.05
134 13.6
135 13.6
136 11
137 1.16
139 4.5
140 4.5
141 6.8
142 0.6
143 11.4
144 5.7
145 15.9
146 0.7
147 20.5
148 7
149 22.7
150 1.14
151 13.6
152 7
153 6.8
154 0.45
155 6.8
156 4.5
157 11.4
158 0.68
159 14
160 7
161 11.4
162 0.7
163 18.2
164 16
165 9.1
166 0.45
167 7
168 4.5
169 9.1
170 0.45
171 9.1
172 4.5
173 11.4
174 0.7
175 11.5
176 9
177 11.4
178 0.91
179 6.8
181 4.5
182 3
183 0.7
184 3
185 13.6
186 9.1
187 0.9
188 7
189 9
190 7
191 0.7
192 7
193 9.1
194 4.5
195 0.45
196 4.5
197 6.8
198 4.5
199 0.91
200 6.9
201 8
202 5
203 0.9
204 5
205 7
206 4
207 0.5
208 3.5
209 5
210 4
211 0.7
212 4
213 10
214 5
215 0.7
216 6.8
217 9.1
218 6
219 0.7
220 3
221 3
222 3
223 0.3
224 2.5
225 3
226 2.5
227 0.7
228 7
229 7
230 4.5
231 0.7
232 4.5
233 4
236 2
237 0.2
238 4.5
239 7
240 4.5
241 0.7
242 5
243 4.5
244 3
246 0.2
247 2
248 2
249 2
251 0.5
252 4
253 4.5
254 4
255 0.4
256 11.4
257 4.5
262 9.1
265 0.23
266 6.8
267 4.5
268 2.3
270 0.45
284 15.9
285 6.8
286 2.3
294 0.64
295 2.3
296 2.3
297 4.5
298 0.23
312 25
313 6.8
314 2.3
315 0.23
330 6.8
331 2
332 1.5

$$$$

     RDKit          2D

 21 21  0  0  1  0  0  0  0  0999 V2000
    2.3461   -2.0181    0.0000 C   0  0  0  0  0  0  0  0  0  0  0  0
    4.5980   -0.7224    0.0000 C   0  0  0  0  0  0  0  0  0  0  0  0
   -4.3980    4.4702    0.0000 C   0  0  0  0  0  0  0  0  0  0  0  0
   -2.1502   -2.0189    0.0000 C   0  0  0  0  0  0  0  0  0  0  0  0
    0.0998    1.8711    0.0000 C   0  0  0  0  0  0  0  0  0  0  0  0
   -3.6500    0.5800    0.0000 C   0  0  0  0  0  0  0  0  0  0  0  0
   -1.4000    4.4700    0.0000 C   0  0  0  0  0  0  0  0  0  0  0  0
   -4.4000    1.8800    0.0000 C   0  0  0  0  0  0  0  0  0  0  0  0
   -2.1500    3.1700    0.0000 C   0  0  0  0  0  0  0  0  0  0  0  0
   -2.1500    0.5800    0.0000 C   0  0  0  0  0  0  0  0  0  0  0  0
    0.1000    4.4700    0.0000 C   0  0  0  0  0  0  0  0  0  0  0  0
    0.1000   -0.7200    0.0000 C   0  0  0  0  0  0  0  0  0  0  0  0
    0.8500    0.5800    0.0000 C   0  0  0  0  0  0  0  0  0  0  0  0
    2.3500    3.1700    0.0000 C   0  0  0  0  0  0  0  0  0  0  0  0
    3.0980   -0.7202    0.0000 C   0  0  0  0  0  0  0  0  0  0  0  0
   -3.6500    3.1700    0.0000 C   0  0  0  0  0  0  0  0  0  0  0  0
   -1.4000   -0.7200    0.0000 C   0  0  0  0  0  0  0  0  0  0  0  0
    0.8500    3.1700    0.0000 C   0  0  0  0  0  0  0  0  0  0  0  0
    2.3500    0.5800    0.0000 C   0  0  0  0  0  0  0  0  0  0  0  0
    3.1000    1.8700    0.0000 C   0  0  0  0  0  0  0  0  0  0  0  0
    4.6000    1.8675    0.0000 O   0  0  0  0  0  0  0  0  0  0  0  0
  8  6  1  0
  9  7  1  0
 10  6  1  0
 11  7  1  0
 13 12  1  0
 15  1  2  0
 15  2  1  0
 16  3  1  0
  8 16  2  0
 16  9  1  0
 17  4  1  0
 17 10  1  0
 12 17  2  0
 18  5  1  0
 11 18  2  0
 18 14  1  0
 19 13  1  0
 19 15  1  1
 20 14  1  0
 20 19  1  0
 21 20  1  0
M  END
>  <NAME>  (1012) 
13-HYDROXYNEOCEMBRENE

>  <SYNONYMS>  (1012) 


>  <SPECTRUM TYPE>  (1012) 
MS1

>  <INSTRUMENT TYPE>  (1012) 
EI-B

>  <INSTRUMENT>  (1012) 
HITACHI RMU-6L

>  <ION MODE>  (1012) 
P

>  <INCHIKEY>  (1012) 
HTWXQGABXITTNW-QZNKQHNXSA-N

>  <FORMULA>  (1012) 
C20H32O

>  <EXACT MASS>  (1012) 
288.245315644

>  <MW>  (1012) 
288

>  <ID>  (1012) 
JP010636

>  <CONTRIBUTOR>  (1012) 
University of Tokyo Team, {Faculty of Engineering, University of Tokyo

>  <COMMENT>  (1012) 
SMILES=[H]C(C1)=C(C)CCC([H])=C(C)CC(O)C([H])(C(C)=C)CC([H])=C(C)C1
InChI=InChI=1S/C20H32O/c1-15(2)19-13-12-17(4)10-6-8-16(3)9-7-11-18(5)14-20(19)21/h8,11-12,19-21H,1,6-7,9-10,13-14H2,2-5H3/b16-8+,17-12+,18-11+/t19-,20?/m1/s1
computed SMILES=OC1CC(=CCCC(=CCCC(=CCC1C(=C)C)C)C)C
computed InChI=InChI=1S/C20H32O/c1-15(2)19-13-12-17(4)10-6-8-16(3)9-7-11-18(5)14-20(19)21/h8,11-12,19-21H,1,6-7,9-10,13-14H2,2-5H3/b16-8-,17-12-,18-11+/t19-,20?/m1/s1
accession=JP010636
date=2016.01.19 (Created 2008.10.21, modified 2011.05.06)
author=EGUCHI S, FAC. OF SCIENCE, HIROSHIMA UNIV.
ion type=[M]+*
license=CC BY-NC-SA
exact mass=288.24532
ionization energy=70 eV
computed spectral entropy=4.00003822319336
computed normalized entropy=0.8142314728452664
SPLASH=splash10-066u-9510000000-3d8c7876403ae3a1faac
submitter=submitter = University of Tokyo Team (Faculty of Engineering, University of Tokyo)
MoNA Rating=3.75

>  <NUM PEAKS>  (1012) 
136

>  <MASS SPECTRAL PEAKS>  (1012) 
41 99.99
42 10.5
43 27.6
44 0.39
45 1.3
51 3.9
52 2.6
53 3.42
54 7.9
55 46.1
56 13.2
57 1.32
58 1.3
59 1.3
65 10.5
66 0.66
67 46.1
68 69.7
69 81.6
70 0.39
71 9.2
75 2.6
77 18.4
78 0.39
79 35.5
80 17.1
81 92.1
82 1.58
83 22.4
84 42.1
85 7.9
91 2.63
92 13.2
93 63.2
94 22.4
95 4.21
96 10.5
97 13.2
105 21.1
106 0.79
107 48.7
108 21.1
109 47.4
110 0.92
111 5.3
119 15.8
120 10.5
121 5.13
122 17.1
123 51.3
124 7.9
125 0.53
129 1.3
131 5.3
132 3.9
133 1.45
134 14.5
135 15.8
136 22.4
137 1.32
138 9.2
139 5.3
143 1.3
144 0.19
145 1.3
146 5.3
147 13.2
148 1.05
149 14.5
150 7.9
151 7.9
152 0.39
153 1.2
159 7.9
160 2.6
161 1.05
162 8
163 6.6
164 5.4
165 0.4
166 1
171 2.6
173 4
174 0.15
175 11.9
176 9.2
177 9
178 0.4
179 1.3
185 1.3
186 1.3
187 0.4
188 2
189 7
190 4
191 0.8
192 4
193 1.3
199 1.3
201 0.46
202 2.6
203 3.3
204 2.5
205 0.4
206 2
207 5.3
209 1.4
213 0.2
214 1.5
215 2.7
217 5.3
218 0.2
219 5.3
220 4
221 1.3
228 0.33
229 2
230 1.3
231 1.3
232 0.19
233 1.3
245 5.3
246 1.4
255 0.4
256 1.5
259 1.5
260 3.3
261 0.07
262 1.3
270 4
271 1.3
273 0.79
274 1.4
288 17.1
289 5.3
290 1.3

$$$$

     RDKit          2D

 20 20  0  0  1  0  0  0  0  0999 V2000
   -3.6502    5.7687    0.0000 C   0  0  0  0  0  0  0  0  0  0  0  0
   -1.4004    7.0681    0.0000 C   0  0  0  0  0  0  0  0  0  0  0  0
    0.8502   -2.0189    0.0000 C   0  0  0  0  0  0  0  0  0  0  0  0
    3.1002    4.4689    0.0000 C   0  0  0  0  0  0  0  0  0  0  0  0
   -5.9000    1.8825    0.0000 C   0  0  0  0  0  0  0  0  0  0  0  0
    2.3500    0.5800    0.0000 C   0  0  0  0  0  0  0  0  0  0  0  0
   -2.1500    0.5800    0.0000 C   0  0  0  0  0  0  0  0  0  0  0  0
    0.8500    0.5800    0.0000 C   0  0  0  0  0  0  0  0  0  0  0  0
   -1.4000   -0.7200    0.0000 C   0  0  0  0  0  0  0  0  0  0  0  0
    3.1000    1.8700    0.0000 C   0  0  0  0  0  0  0  0  0  0  0  0
   -3.6500    0.5800    0.0000 C   0  0  0  0  0  0  0  0  0  0  0  0
    0.8500    3.1700    0.0000 C   0  0  0  0  0  0  0  0  0  0  0  0
   -3.6500    3.1700    0.0000 C   0  0  0  0  0  0  0  0  0  0  0  0
    0.1000    4.4700    0.0000 C   0  0  0  0  0  0  0  0  0  0  0  0
   -2.1500    3.1700    0.0000 C   0  0  0  0  0  0  0  0  0  0  0  0
   -2.1502    5.7689    0.0000 C   0  0  0  0  0  0  0  0  0  0  0  0
    0.1000   -0.7200    0.0000 C   0  0  0  0  0  0  0  0  0  0  0  0
    2.3500    3.1700    0.0000 C   0  0  0  0  0  0  0  0  0  0  0  0
   -4.4000    1.8800    0.0000 C   0  0  0  0  0  0  0  0  0  0  0  0
   -1.4000    4.4700    0.0000 C   0  0  0  0  0  0  0  0  0  0  0  0
  8  6  1  0
  9  7  1  0
 10  6  1  0
 11  7  1  0
 12 14  2  0
 15 13  1  0
 16  1  2  0
 16  2  1  0
 17  3  1  0
  8 17  2  0
 17  9  1  0
 18  4  1  0
 10 18  2  0
 18 12  1  0
 19  5  1  0
 11 19  2  3
 19 13  1  0
 20 14  1  0
 20 15  1  0
 20 16  1  6
M  END
>  <NAME>  (1013) 
(1R,2E,4Z,7E,11E)-CEMBRA-2,4,7,11,15-PENTAENE

>  <SYNONYMS>  (1013) 
CEMBRENENE

>  <SPECTRUM TYPE>  (1013) 
MS1

>  <INSTRUMENT TYPE>  (1013) 
EI-B

>  <INSTRUMENT>  (1013) 
HITACHI RMU-6L

>  <ION MODE>  (1013) 
P

>  <INCHIKEY>  (1013) 
RLAFZRBJBUMWGN-JJDAXJIHSA-N

>  <FORMULA>  (1013) 
C20H30

>  <EXACT MASS>  (1013) 
270.23475096

>  <MW>  (1013) 
270

>  <ID>  (1013) 
JP010635

>  <CONTRIBUTOR>  (1013) 
University of Tokyo Team, {Faculty of Engineering, University of Tokyo

>  <COMMENT>  (1013) 
SMILES=[H]C(C1)=C(C)CCC([H])(C(C)=C)C([H])=C([H])C(C)=C([H])CC([H])=C(C)C1
InChI=InChI=1S/C20H30/c1-16(2)20-14-12-18(4)10-6-8-17(3)9-7-11-19(5)13-15-20/h8,10-12,14,20H,1,6-7,9,13,15H2,2-5H3/b14-12+,17-8+,18-10-,19-11+/t20-/m1/s1
computed SMILES=C=C(C)C1C=CC(=CCC=C(C)CCC=C(C)CC1)C
computed InChI=InChI=1S/C20H30/c1-16(2)20-14-12-18(4)10-6-8-17(3)9-7-11-19(5)13-15-20/h8,10-12,14,20H,1,6-7,9,13,15H2,2-5H3/b14-12+,17-8+,18-10-,19-11?/t20-/m1/s1
accession=JP010635
date=2016.01.19 (Created 2008.10.21, modified 2011.05.06)
author=EGUCHI S, FAC. OF SCIENCE, HIROSHIMA UNIV.
license=CC BY-NC-SA
exact mass=270.23475
ionization energy=70 eV
ion type=[M]+*
computed spectral entropy=4.035543270586824
computed normalized entropy=0.8602097674046916
SPLASH=splash10-0536-7900000000-7edad3cecc6336de55c5
submitter=submitter = University of Tokyo Team (Faculty of Engineering, University of Tokyo)
MoNA Rating=3.75

>  <NUM PEAKS>  (1013) 
109

>  <MASS SPECTRAL PEAKS>  (1013) 
40 8
41 99.99
42 7
43 2.45
51 9.5
52 6.5
53 39.5
54 0.75
55 72
56 6
57 9
60 0.65
63 5.5
65 19.5
66 8
67 4.35
68 16.5
69 27.5
70 5.5
71 0.65
73 6.5
77 47
78 15
79 5.7
80 24
81 60.5
82 10.5
83 1
91 70
92 21.5
93 81.5
94 2.1
95 30
96 5.5
97 5
103 0.95
104 7.5
105 73.5
106 25.5
107 5.95
108 19.5
109 21
110 5.5
111 0.5
115 11.5
116 8.5
117 19.5
118 0.95
119 74.5
120 41
121 42.5
122 1.1
123 9.5
128 7
129 11.5
130 0.8
131 31
132 18.5
133 85.5
134 4.3
135 17
136 4.5
141 4.5
142 0.45
143 11.5
144 7.5
145 34.5
146 2.3
147 29
148 12.5
149 8
157 1.25
158 9.5
159 59.5
160 17
161 1.4
162 6.5
163 4.5
171 11.5
172 0.55
173 16.5
174 8.5
175 7
176 0.45
185 16.5
186 7
187 23
188 0.8
189 6
190 2
199 11.5
200 0.45
201 7.5
202 7
203 2
213 0.6
214 4.5
215 5.5
216 2
227 0.95
228 4.5
229 2
241 4.5
242 0.2
255 15
256 5.5
270 31.5
271 0.95
272 1.5

$$$$

     RDKit          2D

 20 20  0  0  1  0  0  0  0  0999 V2000
   -1.4004    7.0681    0.0000 C   0  0  0  0  0  0  0  0  0  0  0  0
   -3.6502    5.7687    0.0000 C   0  0  0  0  0  0  0  0  0  0  0  0
    0.8502   -2.0189    0.0000 C   0  0  0  0  0  0  0  0  0  0  0  0
    3.1002    4.4689    0.0000 C   0  0  0  0  0  0  0  0  0  0  0  0
   -5.9000    1.8825    0.0000 C   0  0  0  0  0  0  0  0  0  0  0  0
    2.3500    0.5800    0.0000 C   0  0  0  0  0  0  0  0  0  0  0  0
   -2.1500    0.5800    0.0000 C   0  0  0  0  0  0  0  0  0  0  0  0
    0.8500    0.5800    0.0000 C   0  0  0  0  0  0  0  0  0  0  0  0
   -1.4000   -0.7200    0.0000 C   0  0  0  0  0  0  0  0  0  0  0  0
    3.1000    1.8700    0.0000 C   0  0  0  0  0  0  0  0  0  0  0  0
   -3.6500    0.5800    0.0000 C   0  0  0  0  0  0  0  0  0  0  0  0
    0.8500    3.1700    0.0000 C   0  0  0  0  0  0  0  0  0  0  0  0
   -3.6500    3.1700    0.0000 C   0  0  0  0  0  0  0  0  0  0  0  0
    0.1000    4.4700    0.0000 C   0  0  0  0  0  0  0  0  0  0  0  0
   -2.1500    3.1700    0.0000 C   0  0  0  0  0  0  0  0  0  0  0  0
   -2.1502    5.7689    0.0000 C   0  0  0  0  0  0  0  0  0  0  0  0
    0.1000   -0.7200    0.0000 C   0  0  0  0  0  0  0  0  0  0  0  0
    2.3500    3.1700    0.0000 C   0  0  0  0  0  0  0  0  0  0  0  0
   -4.4000    1.8800    0.0000 C   0  0  0  0  0  0  0  0  0  0  0  0
   -1.4000    4.4700    0.0000 C   0  0  0  0  0  0  0  0  0  0  0  0
  8  6  1  0
  9  7  1  0
 10  6  1  0
 11  7  1  0
 12 14  2  0
 15 13  1  0
 16  1  1  0
 16  2  1  0
 17  3  1  0
  8 17  2  0
 17  9  1  0
 18  4  1  0
 10 18  2  0
 18 12  1  0
 19  5  1  0
 11 19  2  3
 19 13  1  0
 20 14  1  0
 20 15  1  0
 20 16  1  6
M  END
>  <NAME>  (1014) 
(1R,2E,4Z,7E,11E)-CEMBRA-2,4,7,11-TETRAENE

>  <SYNONYMS>  (1014) 


>  <SPECTRUM TYPE>  (1014) 
MS1

>  <INSTRUMENT TYPE>  (1014) 
EI-B

>  <INSTRUMENT>  (1014) 
HITACHI RMU-6L

>  <ION MODE>  (1014) 
P

>  <INCHIKEY>  (1014) 
DMHADBQKVWXPPM-JJDAXJIHSA-N

>  <FORMULA>  (1014) 
C20H32

>  <EXACT MASS>  (1014) 
272.250401024

>  <MW>  (1014) 
272

>  <ID>  (1014) 
JP010634

>  <CONTRIBUTOR>  (1014) 
University of Tokyo Team, {Faculty of Engineering, University of Tokyo

>  <COMMENT>  (1014) 
SMILES=[H]C(C1)=C(C)CCC([H])(C(C)C)C([H])=C([H])C(C)=C([H])CC([H])=C(C)C1
InChI=InChI=1S/C20H32/c1-16(2)20-14-12-18(4)10-6-8-17(3)9-7-11-19(5)13-15-20/h8,10-12,14,16,20H,6-7,9,13,15H2,1-5H3/b14-12+,17-8+,18-10-,19-11+/t20-/m1/s1
computed SMILES=C1=CC(CCC(=CCCC(=CCC=C1C)C)C)C(C)C
computed InChI=InChI=1S/C20H32/c1-16(2)20-14-12-18(4)10-6-8-17(3)9-7-11-19(5)13-15-20/h8,10-12,14,16,20H,6-7,9,13,15H2,1-5H3/b14-12+,17-8+,18-10-,19-11?/t20-/m1/s1
accession=JP010634
date=2016.01.19 (Created 2008.10.21, modified 2011.05.06)
author=EGUCHI S, FAC. OF SCIENCE, HIROSHIMA UNIV.
license=CC BY-NC-SA
exact mass=272.2504
ionization energy=70 eV
ion type=[M]+*
computed spectral entropy=4.364035751307963
computed normalized entropy=0.8546968967089554
SPLASH=splash10-052f-8910000000-7059b2c790944066d725
submitter=submitter = University of Tokyo Team (Faculty of Engineering, University of Tokyo)
MoNA Rating=3.75

>  <NUM PEAKS>  (1014) 
165

>  <MASS SPECTRAL PEAKS>  (1014) 
40 7.6
41 91.9
42 7.6
43 4.3
44 3.5
50 2.3
51 8.1
52 0.58
53 29.1
54 4.7
55 63.4
56 0.58
57 11.6
58 1.7
62 1.2
63 0.29
64 2.3
65 12.8
66 5.8
67 4.77
68 36
69 48.3
70 4.7
71 0.52
76 2.3
77 34.9
78 9.9
79 4.94
80 20.9
81 99.99
82 14.9
83 1.51
84 2.9
85 5.8
89 2.3
90 0.17
91 53.5
92 18
93 95.9
94 2.21
95 43
96 7.6
97 8.7
102 0.17
103 5.8
104 4.1
105 58.7
106 2.03
107 65.7
108 25
109 38.4
110 0.58
111 6.4
115 9.3
116 6.4
117 1.05
118 7
119 50
120 25.6
121 5.23
122 18.6
123 23.3
124 5.2
125 0.23
126 1.7
127 2.9
128 5.8
129 0.75
130 7
131 18.5
132 8.1
133 4.48
134 25.6
135 32
136 24.4
137 0.99
138 2.3
139 3.5
140 1.2
141 0.7
142 5.8
143 7
144 5.8
145 2.09
146 7.6
147 28.5
148 18.6
149 2.15
150 11.6
151 7
152 4.7
153 0.47
154 3.5
155 4.7
156 3.5
157 0.81
158 7
159 30.2
160 10.5
161 2.91
162 12.8
163 9.3
164 7
165 0.58
166 4.7
167 5.2
168 5.2
169 0.52
170 2.9
171 6.4
172 4.7
173 1.63
174 7
175 11.6
176 7
178 0.93
179 5.8
180 3.5
181 4.7
182 0.41
183 4.7
184 4.7
185 9.3
186 0.81
187 15.1
188 8.1
189 18.6
190 0.87
191 8.1
192 5.8
193 5.2
194 0.47
195 4.7
196 4.7
197 12.8
198 0.52
199 4.7
200 6.4
201 10.5
202 0.93
203 8.1
204 7.5
205 5.2
206 0.47
213 1.7
214 2.3
215 7.5
216 0.7
217 6.4
218 1.7
219 1.2
228 0.35
229 30.2
230 9.3
231 4.7
242 0.17
243 5.8
244 4.7
245 4.7
257 1.28
258 5.8
259 3.5
272 39.5
273 1.16
274 1.7

$$$$

     RDKit          2D

 20 20  0  0  1  0  0  0  0  0999 V2000
    4.5980   -0.7224    0.0000 C   0  0  0  0  0  0  0  0  0  0  0  0
    2.3461   -2.0181    0.0000 C   0  0  0  0  0  0  0  0  0  0  0  0
   -4.3980    4.4702    0.0000 C   0  0  0  0  0  0  0  0  0  0  0  0
   -2.1502   -2.0189    0.0000 C   0  0  0  0  0  0  0  0  0  0  0  0
    0.0998    1.8711    0.0000 C   0  0  0  0  0  0  0  0  0  0  0  0
   -3.6500    0.5800    0.0000 C   0  0  0  0  0  0  0  0  0  0  0  0
   -1.4000    4.4700    0.0000 C   0  0  0  0  0  0  0  0  0  0  0  0
   -4.4000    1.8800    0.0000 C   0  0  0  0  0  0  0  0  0  0  0  0
   -2.1500    3.1700    0.0000 C   0  0  0  0  0  0  0  0  0  0  0  0
   -2.1500    0.5800    0.0000 C   0  0  0  0  0  0  0  0  0  0  0  0
    0.1000    4.4700    0.0000 C   0  0  0  0  0  0  0  0  0  0  0  0
    0.1000   -0.7200    0.0000 C   0  0  0  0  0  0  0  0  0  0  0  0
    2.3500    3.1700    0.0000 C   0  0  0  0  0  0  0  0  0  0  0  0
    0.8500    0.5800    0.0000 C   0  0  0  0  0  0  0  0  0  0  0  0
    3.1000    1.8700    0.0000 C   0  0  0  0  0  0  0  0  0  0  0  0
    3.0980   -0.7202    0.0000 C   0  0  0  0  0  0  0  0  0  0  0  0
   -3.6500    3.1700    0.0000 C   0  0  0  0  0  0  0  0  0  0  0  0
   -1.4000   -0.7200    0.0000 C   0  0  0  0  0  0  0  0  0  0  0  0
    0.8500    3.1700    0.0000 C   0  0  0  0  0  0  0  0  0  0  0  0
    2.3500    0.5800    0.0000 C   0  0  0  0  0  0  0  0  0  0  0  0
  8  6  1  0
  9  7  1  0
 10  6  1  0
 11  7  1  0
 14 12  1  0
 15 13  1  0
 16  1  1  0
 16  2  1  0
 17  3  1  0
  8 17  2  0
 17  9  1  0
 18  4  1  0
 18 10  1  0
 12 18  2  0
 19  5  1  0
 11 19  2  0
 19 13  1  0
 20 14  1  0
 20 15  1  0
 20 16  1  6
M  END
>  <NAME>  (1015) 
(1S,3E,7E,11E)-CEMBRA-3,7,11-TRIENE

>  <SYNONYMS>  (1015) 


>  <SPECTRUM TYPE>  (1015) 
MS1

>  <INSTRUMENT TYPE>  (1015) 
EI-B

>  <INSTRUMENT>  (1015) 
HITACHI RMU-6L

>  <ION MODE>  (1015) 
P

>  <INCHIKEY>  (1015) 
OKMQTAYLLFRHKE-UYSOGGTPSA-N

>  <FORMULA>  (1015) 
C20H34

>  <EXACT MASS>  (1015) 
274.266051088

>  <MW>  (1015) 
274

>  <ID>  (1015) 
JP010633

>  <CONTRIBUTOR>  (1015) 
University of Tokyo Team, {Faculty of Engineering, University of Tokyo

>  <COMMENT>  (1015) 
SMILES=CC(C1)=C([H])CCC(C)=C([H])CC([H])(CCC(C)=C([H])C1)C(C)C
InChI=InChI=1S/C20H34/c1-16(2)20-14-12-18(4)10-6-8-17(3)9-7-11-19(5)13-15-20/h8,11-12,16,20H,6-7,9-10,13-15H2,1-5H3/b17-8+,18-12+,19-11+/t20-/m1/s1
computed SMILES=C1=C(C)CCC=C(C)CCC(CC=C(C)CC1)C(C)C
computed InChI=InChI=1S/C20H34/c1-16(2)20-14-12-18(4)10-6-8-17(3)9-7-11-19(5)13-15-20/h8,11-12,16,20H,6-7,9-10,13-15H2,1-5H3/b17-8-,18-12-,19-11+/t20-/m1/s1
accession=JP010633
date=2016.01.19 (Created 2008.10.21, modified 2011.05.06)
author=EGUCHI S, FAC. OF SCIENCE, HIROSHIMA UNIV.
license=CC BY-NC-SA
exact mass=274.26605
ionization energy=70 eV
ion type=[M]+*
computed spectral entropy=3.7903777286532905
computed normalized entropy=0.8266967533109578
SPLASH=splash10-0apl-9400000000-92fffa826cf87cdec1e1
submitter=submitter = University of Tokyo Team (Faculty of Engineering, University of Tokyo)
MoNA Rating=3.75

>  <NUM PEAKS>  (1015) 
98

>  <MASS SPECTRAL PEAKS>  (1015) 
41 91
42 10.9
43 41.8
44 0.18
51 2.7
52 1.8
53 32.7
54 0.55
55 78.2
56 7.3
57 23.6
58 0.18
65 7.3
66 5.5
67 69
68 6.7
69 94.5
70 9.1
71 12.7
77 1.64
78 3.6
79 34.5
80 12.7
81 99.99
82 28.2
83 27.3
84 3.6
85 0.55
91 16.4
92 7.3
93 52.7
94 2.36
95 76.4
96 20
97 10.9
98 0.18
105 14.5
106 5.5
107 60
108 4.55
109 47.3
110 9.1
111 5.5
119 1.09
120 5.5
121 43.6
122 29.1
123 7.45
124 10.9
125 3.6
133 7.3
134 0.55
135 29.1
136 30.9
137 20
138 0.55
147 9.1
148 3.6
149 20
150 1.82
151 7.3
152 1.8
161 9.1
162 0.36
163 25.5
164 9.1
165 5.5
166 0.2
175 8.2
176 3.6
177 10.9
178 0.73
179 3.6
180 1.8
189 7.3
190 0.36
191 10.9
192 3.6
193 0.9
203 0.55
204 3.6
205 2.7
206 1.8
217 0.27
218 1.8
219 1.8
231 16.3
232 0.55
233 0.9
245 1.8
246 0.9
247 0.09
259 12.7
260 3.6
261 0.9
274 2.36
275 6.3
276 0.9

$$$$

     RDKit          2D

 20 20  0  0  1  0  0  0  0  0999 V2000
    2.3461   -2.0181    0.0000 C   0  0  0  0  0  0  0  0  0  0  0  0
    4.5980   -0.7224    0.0000 C   0  0  0  0  0  0  0  0  0  0  0  0
   -4.3980    4.4702    0.0000 C   0  0  0  0  0  0  0  0  0  0  0  0
   -2.1502   -2.0189    0.0000 C   0  0  0  0  0  0  0  0  0  0  0  0
    0.0998    1.8711    0.0000 C   0  0  0  0  0  0  0  0  0  0  0  0
   -3.6500    0.5800    0.0000 C   0  0  0  0  0  0  0  0  0  0  0  0
   -1.4000    4.4700    0.0000 C   0  0  0  0  0  0  0  0  0  0  0  0
   -4.4000    1.8800    0.0000 C   0  0  0  0  0  0  0  0  0  0  0  0
   -2.1500    3.1700    0.0000 C   0  0  0  0  0  0  0  0  0  0  0  0
   -2.1500    0.5800    0.0000 C   0  0  0  0  0  0  0  0  0  0  0  0
    0.1000    4.4700    0.0000 C   0  0  0  0  0  0  0  0  0  0  0  0
    0.1000   -0.7200    0.0000 C   0  0  0  0  0  0  0  0  0  0  0  0
    2.3500    3.1700    0.0000 C   0  0  0  0  0  0  0  0  0  0  0  0
    0.8500    0.5800    0.0000 C   0  0  0  0  0  0  0  0  0  0  0  0
    3.1000    1.8700    0.0000 C   0  0  0  0  0  0  0  0  0  0  0  0
    3.0980   -0.7202    0.0000 C   0  0  0  0  0  0  0  0  0  0  0  0
   -3.6500    3.1700    0.0000 C   0  0  0  0  0  0  0  0  0  0  0  0
   -1.4000   -0.7200    0.0000 C   0  0  0  0  0  0  0  0  0  0  0  0
    0.8500    3.1700    0.0000 C   0  0  0  0  0  0  0  0  0  0  0  0
    2.3500    0.5800    0.0000 C   0  0  0  0  0  0  0  0  0  0  0  0
  8  6  1  0
  9  7  1  0
 10  6  1  0
 11  7  1  0
 14 12  1  0
 15 13  1  0
 16  1  2  0
 16  2  1  0
 17  3  1  0
  8 17  2  0
 17  9  1  0
 18  4  1  0
 18 10  1  0
 12 18  2  0
 19  5  1  0
 11 19  2  0
 19 13  1  0
 20 14  1  0
 20 15  1  0
 20 16  1  1
M  END
>  <NAME>  (1016) 
(3E,7E,11E)-CEMBRA-3,7,11,15-TETRAENE

>  <SYNONYMS>  (1016) 
CEMBRENE-A

>  <SPECTRUM TYPE>  (1016) 
MS1

>  <INSTRUMENT TYPE>  (1016) 
EI-B

>  <INSTRUMENT>  (1016) 
HITACHI RMU-6L

>  <ION MODE>  (1016) 
P

>  <INCHIKEY>  (1016) 
VWSPQDDPRITBAM-KPGNMOGWSA-N

>  <FORMULA>  (1016) 
C20H32

>  <EXACT MASS>  (1016) 
272.250401024

>  <MW>  (1016) 
272

>  <ID>  (1016) 
JP010632

>  <CONTRIBUTOR>  (1016) 
University of Tokyo Team, {Faculty of Engineering, University of Tokyo

>  <COMMENT>  (1016) 
SMILES=CC(C1)=C([H])CCC(C)=C([H])CC([H])(CCC(C)=C([H])C1)C(C)=C
InChI=InChI=1S/C20H32/c1-16(2)20-14-12-18(4)10-6-8-17(3)9-7-11-19(5)13-15-20/h8,11-12,20H,1,6-7,9-10,13-15H2,2-5H3/b17-8+,18-12+,19-11+/t20-/m0/s1
computed SMILES=C=C(C)C1CC=C(C)CCC=C(C)CCC=C(C)CC1
computed InChI=InChI=1S/C20H32/c1-16(2)20-14-12-18(4)10-6-8-17(3)9-7-11-19(5)13-15-20/h8,11-12,20H,1,6-7,9-10,13-15H2,2-5H3/b17-8-,18-12-,19-11+/t20-/m0/s1
accession=JP010632
date=2016.01.19 (Created 2008.10.21, modified 2011.05.06)
author=EGUCHI S, FAC. OF SCIENCE, HIROSHIMA UNIV.
license=CC BY-NC-SA
exact mass=272.2504
ionization energy=70 eV
ion type=[M]+*
computed spectral entropy=4.0254722655544795
computed normalized entropy=0.8423034624145331
SPLASH=splash10-05nf-9710000000-4ced383c59d14b049fd3
submitter=submitter = University of Tokyo Team (Faculty of Engineering, University of Tokyo)
MoNA Rating=3.75

>  <NUM PEAKS>  (1016) 
119

>  <MASS SPECTRAL PEAKS>  (1016) 
41 79
42 9
43 20
44 0.4
45 2
51 6
52 4
53 3.9
54 6
55 60
56 6
57 0.7
63 4
64 2
65 13
66 0.8
67 57
68 64
69 43
70 0.6
71 4
77 29
78 8
79 5.1
80 23
81 99
82 14
83 1.1
84 4
85 3
91 35
92 1.5
93 99.99
94 32
95 42
96 0.9
97 7.5
103 4.5
104 3.8
105 3.4
106 15
107 76
108 38
109 5.4
110 7.6
111 4.5
115 5
116 0.3
117 5
118 4
119 34
120 2.27
121 57
122 26
123 23
124 0.45
131 7.6
132 6.9
133 30
134 2.27
135 34
136 15
137 6.9
141 0.4
142 1.5
143 4
145 11
146 0.76
147 25
148 19
149 17
150 0.45
155 4.5
156 1.5
159 13
160 0.69
161 24
162 11
163 9
164 0.3
165 4
169 6
170 4.5
171 0.15
173 10
174 5
175 15
176 0.8
177 6
178 2
183 5
184 0.3
185 1.5
187 10
188 5
189 1.7
190 7
191 5
192 1.5
201 0.9
202 5
203 6.9
204 5
205 0.15
215 7.6
216 6.8
217 4.5
218 0.2
229 8
230 4.5
231 2.3
232 0.15
243 5
244 4
257 17
258 0.5
272 24
273 7.5
274 2.3

$$$$

     RDKit          2D

 21 21  0  0  1  0  0  0  0  0999 V2000
   -1.4004    7.0681    0.0000 C   0  0  0  0  0  0  0  0  0  0  0  0
   -3.6502    5.7687    0.0000 C   0  0  0  0  0  0  0  0  0  0  0  0
    0.8502   -2.0189    0.0000 C   0  0  0  0  0  0  0  0  0  0  0  0
    3.1002    4.4689    0.0000 C   0  0  0  0  0  0  0  0  0  0  0  0
   -5.9000    1.8825    0.0000 C   0  0  0  0  0  0  0  0  0  0  0  0
    2.3500    0.5800    0.0000 C   0  0  0  0  0  0  0  0  0  0  0  0
   -2.1500    0.5800    0.0000 C   0  0  0  0  0  0  0  0  0  0  0  0
    0.8500    0.5800    0.0000 C   0  0  0  0  0  0  0  0  0  0  0  0
   -1.4000   -0.7200    0.0000 C   0  0  0  0  0  0  0  0  0  0  0  0
    3.1000    1.8700    0.0000 C   0  0  0  0  0  0  0  0  0  0  0  0
   -3.6500    0.5800    0.0000 C   0  0  0  0  0  0  0  0  0  0  0  0
    0.8500    3.1700    0.0000 C   0  0  0  0  0  0  0  0  0  0  0  0
    0.1000    4.4700    0.0000 C   0  0  0  0  0  0  0  0  0  0  0  0
   -3.6500    3.1700    0.0000 C   0  0  0  0  0  0  0  0  0  0  0  0
   -2.1502    5.7689    0.0000 C   0  0  0  0  0  0  0  0  0  0  0  0
    0.1000   -0.7200    0.0000 C   0  0  0  0  0  0  0  0  0  0  0  0
    2.3500    3.1700    0.0000 C   0  0  0  0  0  0  0  0  0  0  0  0
   -4.4000    1.8800    0.0000 C   0  0  0  0  0  0  0  0  0  0  0  0
   -1.4000    4.4700    0.0000 C   0  0  0  0  0  0  0  0  0  0  0  0
   -2.1500    3.1700    0.0000 C   0  0  0  0  0  0  0  0  0  0  0  0
   -1.3998    1.8711    0.0000 O   0  0  0  0  0  0  0  0  0  0  0  0
  8  6  1  0
  9  7  1  0
 10  6  1  0
 11  7  1  0
 13 12  1  0
 15  1  1  0
 15  2  1  0
 16  3  1  0
 16  8  1  0
  9 16  2  0
 17  4  1  0
 10 17  2  0
 17 12  1  0
 18  5  1  0
 18 11  1  0
 14 18  2  0
 19 13  1  0
 19 15  1  6
 20 14  1  0
 20 19  1  0
 20 21  1  6
M  END
>  <NAME>  (1017) 
(1S,2R,3E,7E,11E)-2-HYDROXYCEMBRA-3,7,11-TRIENE

>  <SYNONYMS>  (1017) 
MUKULOL

>  <SPECTRUM TYPE>  (1017) 
MS1

>  <INSTRUMENT TYPE>  (1017) 
EI-B

>  <INSTRUMENT>  (1017) 
HITACHI RMU-6L

>  <ION MODE>  (1017) 
P

>  <INCHIKEY>  (1017) 
HVZNIISBCURSMR-ALFIBICVSA-N

>  <FORMULA>  (1017) 
C20H34O

>  <EXACT MASS>  (1017) 
290.260965708

>  <MW>  (1017) 
290

>  <ID>  (1017) 
JP010631

>  <CONTRIBUTOR>  (1017) 
University of Tokyo Team, {Faculty of Engineering, University of Tokyo

>  <COMMENT>  (1017) 
SMILES=CC(C1)=C([H])CCC(C)=C([H])C([H])(O)C([H])(CCC(C)=C([H])C1)C(C)C
InChI=InChI=1S/C20H34O/c1-15(2)19-13-12-17(4)10-6-8-16(3)9-7-11-18(5)14-20(19)21/h9-10,14-15,19-21H,6-8,11-13H2,1-5H3/b16-9+,17-10+,18-14+/t19-,20+/m0/s1
computed SMILES=OC1C=C(C)CCC=C(C)CCC=C(C)CCC1C(C)C
computed InChI=InChI=1S/C20H34O/c1-15(2)19-13-12-17(4)10-6-8-16(3)9-7-11-18(5)14-20(19)21/h9-10,14-15,19-21H,6-8,11-13H2,1-5H3/b16-9-,17-10-,18-14-/t19-,20+/m0/s1
accession=JP010631
date=2016.01.19 (Created 2008.10.21, modified 2011.05.06)
author=EGUCHI S, FAC. OF SCIENCE, HIROSHIMA UNIV.
license=CC BY-NC-SA
exact mass=290.26097
ionization energy=70 eV
ion type=[M]+*
computed spectral entropy=3.8940548684321494
computed normalized entropy=0.8177053005094669
SPLASH=splash10-00lr-9400000000-d9ba94f93c3f9d5f5851
submitter=submitter = University of Tokyo Team (Faculty of Engineering, University of Tokyo)
MoNA Rating=3.75

>  <NUM PEAKS>  (1017) 
117

>  <MASS SPECTRAL PEAKS>  (1017) 
41 68.3
42 9.8
43 36.6
44 0.12
45 1.2
53 26
54 4.9
55 5.61
56 14.6
57 28
58 2.4
59 0.24
65 6.1
66 4.9
67 42.7
68 5.98
69 73.2
70 9.8
71 15.9
72 0.12
77 12.2
78 3.7
79 23.2
80 1.09
81 93.9
82 24.4
83 36.6
84 99.99
85 13.4
91 14.6
92 7.3
93 3.54
94 17.1
95 47.6
96 15.9
97 1.59
98 3
99 2.4
105 10.9
106 0.49
107 25.6
108 12.2
109 31.7
110 0.73
111 6.1
119 8.5
120 4.9
121 2.56
122 19.5
123 48.8
124 8.5
125 0.37
126 1.2
127 1.2
131 3.7
132 0.12
133 7.3
134 6.1
135 17.1
136 2.8
137 19.5
138 6.1
139 3.7
140 0.5
141 1.2
145 2.4
146 3.7
147 0.73
148 8.5
149 17.1
150 6.1
151 0.61
152 1.8
153 2.4
159 4.9
160 0.24
161 9.8
162 4.9
163 8.5
164 0.55
165 2.4
166 2.4
167 1.2
173 0.24
175 2.4
176 2.4
177 6.1
178 0.18
179 2.4
187 3.7
188 1.2
189 0.61
190 2.4
191 4.9
192 2.4
193 0.12
215 1.2
216 1.2
217 3.7
218 0.06
219 0.6
220 1.2
229 9.8
230 0.24
231 1.2
247 4.9
248 1.2
257 0.49
258 0.6
272 12.2
273 3.7
274 0.06
275 3.7
276 1.2
290 11
291 0.35
292 1.2

$$$$

     RDKit          2D

 21 21  0  0  1  0  0  0  0  0999 V2000
    4.6002    4.4687    0.0000 C   0  0  0  0  0  0  0  0  0  0  0  0
    2.3504    5.7681    0.0000 C   0  0  0  0  0  0  0  0  0  0  0  0
   -4.4002   -0.7189    0.0000 C   0  0  0  0  0  0  0  0  0  0  0  0
    0.0998    1.8789    0.0000 C   0  0  0  0  0  0  0  0  0  0  0  0
   -1.1397    5.9472    0.0000 C   0  0  0  0  0  0  0  0  0  0  0  0
   -1.4000   -0.7200    0.0000 C   0  0  0  0  0  0  0  0  0  0  0  0
   -3.6500    3.1700    0.0000 C   0  0  0  0  0  0  0  0  0  0  0  0
   -2.1500    0.5800    0.0000 C   0  0  0  0  0  0  0  0  0  0  0  0
    0.1000   -0.7200    0.0000 C   0  0  0  0  0  0  0  0  0  0  0  0
   -4.4000    1.8800    0.0000 C   0  0  0  0  0  0  0  0  0  0  0  0
    2.3500    0.5800    0.0000 C   0  0  0  0  0  0  0  0  0  0  0  0
    3.1000    1.8700    0.0000 C   0  0  0  0  0  0  0  0  0  0  0  0
    0.8500    3.1700    0.0000 C   0  0  0  0  0  0  0  0  0  0  0  0
   -2.1500    3.1700    0.0000 C   0  0  0  0  0  0  0  0  0  0  0  0
    0.1000    4.4700    0.0000 C   0  0  0  0  0  0  0  0  0  0  0  0
    3.1002    4.4689    0.0000 C   0  0  0  0  0  0  0  0  0  0  0  0
   -3.6500    0.5800    0.0000 C   0  0  0  0  0  0  0  0  0  0  0  0
    0.8500    0.5800    0.0000 C   0  0  0  0  0  0  0  0  0  0  0  0
    2.3500    3.1700    0.0000 C   0  0  0  0  0  0  0  0  0  0  0  0
   -1.4000    4.4700    0.0000 C   0  0  0  0  0  0  0  0  0  0  0  0
   -2.8096    4.9827    0.0000 O   0  0  0  0  0  0  0  0  0  0  0  0
  8  6  1  0
  9  6  1  0
 10  7  1  0
 12 11  1  0
 14  7  1  0
 13 15  2  3
 16  1  1  0
 16  2  1  0
 17  3  1  0
 17  8  1  0
 10 17  2  0
 18  4  1  0
  9 18  2  0
 18 11  1  0
 19 12  1  0
 19 13  1  0
 19 16  1  6
 20  5  1  6
 20 14  1  0
 20 15  1  0
 20 21  1  0
M  END
>  <NAME>  (1018) 
(1R,2E,4R,7E,11E)-4-HYDROXYCEMBRA-2,7,11-TRIENE

>  <SYNONYMS>  (1018) 
THUMBERGOL

>  <SPECTRUM TYPE>  (1018) 
MS1

>  <INSTRUMENT TYPE>  (1018) 
EI-B

>  <INSTRUMENT>  (1018) 
HITACHI RMU-6L

>  <ION MODE>  (1018) 
P

>  <INCHIKEY>  (1018) 
YAPXSYXFLHDPCK-NANKYBSHSA-N

>  <FORMULA>  (1018) 
C20H34O

>  <EXACT MASS>  (1018) 
290.260965708

>  <MW>  (1018) 
290

>  <ID>  (1018) 
JP010630

>  <CONTRIBUTOR>  (1018) 
University of Tokyo Team, {Faculty of Engineering, University of Tokyo

>  <COMMENT>  (1018) 
SMILES=CC(C1)=C([H])CCC(C)(O)C([H])=C([H])C([H])(CCC(C)=C([H])C1)C(C)C
InChI=InChI=1S/C20H34O/c1-16(2)19-12-11-18(4)9-6-8-17(3)10-7-14-20(5,21)15-13-19/h9-10,13,15-16,19,21H,6-8,11-12,14H2,1-5H3/b15-13+,17-10+,18-9+/t19-,20-/m1/s1
computed SMILES=OC1(C=CC(CCC(=CCCC(=CCC1)C)C)C(C)C)C
computed InChI=InChI=1S/C20H34O/c1-16(2)19-12-11-18(4)9-6-8-17(3)10-7-14-20(5,21)15-13-19/h9-10,13,15-16,19,21H,6-8,11-12,14H2,1-5H3/b15-13?,17-10-,18-9+/t19-,20-/m1/s1
accession=JP010630
date=2016.01.19 (Created 2008.10.21, modified 2011.05.06)
author=EGUCHI S, FAC. OF SCIENCE, HIROSHIMA UNIV.
license=CC BY-NC-SA
exact mass=290.26097
ionization energy=70 eV
ion type=[M]+*
computed spectral entropy=4.18341746613697
computed normalized entropy=0.8708158076708122
SPLASH=splash10-05nf-8910000000-e35700664c11c3200a43
submitter=submitter = University of Tokyo Team (Faculty of Engineering, University of Tokyo)
MoNA Rating=3.75

>  <NUM PEAKS>  (1018) 
122

>  <MASS SPECTRAL PEAKS>  (1018) 
41 79.2
42 5.6
43 86.1
45 0.42
47 4.2
53 22.2
54 5.6
55 6.39
56 5.6
57 19.4
58 2.8
59 0.42
65 9.7
66 2.8
67 51.4
68 1.94
69 58.3
70 8.3
71 36.1
72 0.28
77 18.1
78 5.6
79 41.7
80 1.67
81 99.99
82 20.8
83 19.4
84 0.83
85 11.1
91 23.6
92 8.3
93 5.83
94 19.4
95 55.6
96 13.9
97 3.33
98 6.9
99 2.8
105 34.7
106 0.97
107 55.6
108 27.8
109 61.1
110 1.11
111 12.5
119 31.9
120 13.9
121 6.11
122 18.1
123 37.5
124 11.1
125 1.25
126 9.7
127 2.8
131 8.3
132 0.45
133 33.3
134 23.6
135 43
136 3.19
137 27.8
138 8.3
139 19.4
140 0.47
145 11.1
146 6.9
147 41.7
148 2.08
149 33.3
150 13.9
151 12.5
152 0.56
153 2.8
159 13.9
160 6.9
161 2.78
162 12.5
163 19.4
164 13.9
165 0.97
166 2.8
173 13.9
174 2.8
175 0.97
176 5.6
177 12.5
178 2.8
179 0.42
187 14
188 6.9
189 29.2
190 1.25
191 11.1
192 1.4
201 9.7
202 0.68
203 6.9
204 5.6
205 8.3
206 0.28
207 9.6
208 2.1
215 6.9
216 0.14
217 5.5
218 1.4
219 5.6
229 2.78
230 9.7
231 1.4
232 6.9
233 0.13
247 12.5
248 2
257 11.1
258 0.15
272 26.4
273 8.3
275 4.2
276 0.14
289 9.7
290 1.5

$$$$

     RDKit          2D

 24 24  0  0  0  0  0  0  0  0999 V2000
    0.0010    5.9400    0.0000 C   0  0  0  0  0  0  0  0  0  0  0  0
    2.5990    5.9400    0.0000 C   0  0  0  0  0  0  0  0  0  0  0  0
   -3.9000   -0.8100    0.0000 C   0  0  0  0  0  0  0  0  0  0  0  0
    1.3000   -0.8100    0.0000 C   0  0  0  0  0  0  0  0  0  0  0  0
   -2.6000    0.0000    0.0000 C   0  0  0  0  0  0  0  0  0  0  0  0
   -1.2990    6.6900    0.0000 C   0  0  0  0  0  0  0  0  0  0  0  0
   -1.3000    0.6900    0.0000 C   0  0  0  0  0  0  0  0  0  0  0  0
   -5.2000    2.9400    0.0000 C   0  0  0  0  0  0  0  0  0  0  0  0
   -2.6000    1.4400    0.0000 C   0  0  0  0  0  0  0  0  0  0  0  0
   -5.2000    1.4400    0.0000 C   0  0  0  0  0  0  0  0  0  0  0  0
    0.0000    1.4400    0.0000 C   0  0  0  0  0  0  0  0  0  0  0  0
   -3.9000    3.6900    0.0000 C   0  0  0  0  0  0  0  0  0  0  0  0
    2.6000    1.4400    0.0000 C   0  0  0  0  0  0  0  0  0  0  0  0
    2.6000    2.9400    0.0000 C   0  0  0  0  0  0  0  0  0  0  0  0
   -1.3000    3.6900    0.0000 C   0  0  0  0  0  0  0  0  0  0  0  0
    1.3000    5.1900    0.0000 C   0  0  0  0  0  0  0  0  0  0  0  0
   -3.9000    0.6900    0.0000 C   0  0  0  0  0  0  0  0  0  0  0  0
    1.3000    0.6900    0.0000 C   0  0  0  0  0  0  0  0  0  0  0  0
   -2.6000    2.9400    0.0000 C   0  0  0  0  0  0  0  0  0  0  0  0
   -1.2990    5.1900    0.0000 C   0  0  0  0  0  0  0  0  0  0  0  0
    1.3000    3.6900    0.0000 C   0  0  0  0  0  0  0  0  0  0  0  0
    0.0000    2.9400    0.0000 C   0  0  0  0  0  0  0  0  0  0  0  0
   -2.5981    4.4400    0.0000 O   0  0  0  0  0  0  0  0  0  0  0  0
   -0.0000    4.4400    0.0000 O   0  0  0  0  0  0  0  0  0  0  0  0
  9  7  1  0
 10  8  1  0
 11  7  1  0
 12  8  1  0
 14 13  1  0
 16  1  2  0
 16  2  1  0
 17  3  1  0
 17  9  1  0
 10 17  2  0
 18  4  1  0
 11 18  2  0
 18 13  1  0
 19  5  1  0
 19 12  1  0
 15 19  2  0
 20  6  1  0
 21 14  1  0
 21 16  1  0
 22 15  1  0
 22 21  1  0
 23 20  2  0
 24 20  1  0
 24 22  1  0
M  END
>  <NAME>  (1019) 
(3E,7E,11E)-2-ACETOXYCEMBRA-3,7,11,15-TETRAENE

>  <SYNONYMS>  (1019) 


>  <SPECTRUM TYPE>  (1019) 
MS1

>  <INSTRUMENT TYPE>  (1019) 
EI-B

>  <INSTRUMENT>  (1019) 
HITACHI RMU-6L

>  <ION MODE>  (1019) 
P

>  <INCHIKEY>  (1019) 
UQRKPAHSYAVOHS-BBCCYVLPSA-N

>  <FORMULA>  (1019) 
C22H34O2

>  <EXACT MASS>  (1019) 
330.255880328

>  <MW>  (1019) 
330

>  <ID>  (1019) 
JP010629

>  <CONTRIBUTOR>  (1019) 
University of Tokyo Team, {Faculty of Engineering, University of Tokyo

>  <COMMENT>  (1019) 
SMILES=CC(=O)OC(C([H])=1)C(CCC(C)=C([H])CCC(C)=C([H])CCC(C)1)C(C)=C
InChI=InChI=1S/C22H34O2/c1-16(2)21-14-13-18(4)11-7-9-17(3)10-8-12-19(5)15-22(21)24-20(6)23/h10-11,15,21-22H,1,7-9,12-14H2,2-6H3/b17-10+,18-11+,19-15+
computed SMILES=O=C(OC1C=C(C)CCC=C(C)CCC=C(C)CCC1C(=C)C)C
computed InChI=InChI=1S/C22H34O2/c1-16(2)21-14-13-18(4)11-7-9-17(3)10-8-12-19(5)15-22(21)24-20(6)23/h10-11,15,21-22H,1,7-9,12-14H2,2-6H3/b17-10-,18-11+,19-15+
accession=JP010629
date=2016.01.19 (Created 2008.10.21, modified 2011.05.06)
author=EGUCHI S, FAC. OF SCIENCE, HIROSHIMA UNIV.
license=CC BY-NC-SA
exact mass=330.25588
ionization energy=70 eV
ion type=[M]+*
computed spectral entropy=4.255671709715964
computed normalized entropy=0.8516091525786654
SPLASH=splash10-05nf-9710000000-017c4f42d552588535f4
submitter=submitter = University of Tokyo Team (Faculty of Engineering, University of Tokyo)
MoNA Rating=3.75

>  <NUM PEAKS>  (1019) 
148

>  <MASS SPECTRAL PEAKS>  (1019) 
41 44.2
42 8.4
43 99.99
44 0.45
45 5.7
50 1
51 3.3
52 0.24
53 34.4
54 4.9
55 57.8
56 0.92
57 16.9
58 1.2
59 1.6
60 0.47
65 10.6
66 6.5
67 36.8
68 5.96
69 44
70 10.2
71 14.9
72 0.14
77 23.5
78 6.1
79 33.2
80 1.91
81 78.2
82 17.9
83 22.2
84 8.01
85 10.2
91 34.8
92 15
93 6.5
94 25.5
95 39.5
96 7.5
97 1.06
98 10.2
99 3.1
103 3.1
104 0.33
105 30.2
106 12.2
107 41.8
108 2.32
109 34.9
110 6.1
111 16.2
112 0.45
113 4.9
115 2.9
116 1.6
117 0.57
118 3.3
119 35.8
120 19.9
121 6.67
122 16.5
123 26.2
124 4.9
125 0.29
126 10.2
127 2
128 2
129 0.22
130 1.4
131 8.9
132 17.5
133 4.6
134 39.3
135 34.7
136 18.5
137 1.79
138 4.1
139 2.6
143 2.6
144 0.2
145 16.2
146 10.2
147 18.3
148 1.26
149 30.7
150 6.1
151 5.5
152 0.22
153 1.4
157 4.5
158 3.3
159 2.49
160 11.8
161 18.1
162 8.6
163 1.02
164 2.6
165 2.9
166 0.8
167 1.04
168 1.2
171 3.3
172 2
173 1.18
174 6.7
175 10.2
176 5.9
177 0.57
178 2.2
179 2
185 6.1
186 0.31
187 11
188 6.1
189 11.6
190 0.32
191 3.3
192 1.2
199 5.7
200 0.37
201 7.3
202 9.6
203 3.3
204 0.18
205 1.6
213 4.1
214 3.1
215 0.59
216 1.4
217 1
219 1.2
220 0.08
227 3.7
228 2.2
229 1.2
241 0.2
242 1.4
255 12.4
256 2.9
257 0.12
270 23.4
271 8.1
272 1.4
273 0.08
288 2.6
289 0.8
330 2.9
331 0.8

$$$$

     RDKit          2D

 21 21  0  0  1  0  0  0  0  0999 V2000
   -3.6502    5.7687    0.0000 C   0  0  0  0  0  0  0  0  0  0  0  0
   -1.4004    7.0681    0.0000 C   0  0  0  0  0  0  0  0  0  0  0  0
    0.8502   -2.0189    0.0000 C   0  0  0  0  0  0  0  0  0  0  0  0
    3.1002    4.4689    0.0000 C   0  0  0  0  0  0  0  0  0  0  0  0
   -5.9000    1.8825    0.0000 C   0  0  0  0  0  0  0  0  0  0  0  0
    2.3500    0.5800    0.0000 C   0  0  0  0  0  0  0  0  0  0  0  0
   -2.1500    0.5800    0.0000 C   0  0  0  0  0  0  0  0  0  0  0  0
    0.8500    0.5800    0.0000 C   0  0  0  0  0  0  0  0  0  0  0  0
   -1.4000   -0.7200    0.0000 C   0  0  0  0  0  0  0  0  0  0  0  0
    3.1000    1.8700    0.0000 C   0  0  0  0  0  0  0  0  0  0  0  0
   -3.6500    0.5800    0.0000 C   0  0  0  0  0  0  0  0  0  0  0  0
    0.8500    3.1700    0.0000 C   0  0  0  0  0  0  0  0  0  0  0  0
    0.1000    4.4700    0.0000 C   0  0  0  0  0  0  0  0  0  0  0  0
   -3.6500    3.1700    0.0000 C   0  0  0  0  0  0  0  0  0  0  0  0
   -2.1502    5.7689    0.0000 C   0  0  0  0  0  0  0  0  0  0  0  0
    0.1000   -0.7200    0.0000 C   0  0  0  0  0  0  0  0  0  0  0  0
    2.3500    3.1700    0.0000 C   0  0  0  0  0  0  0  0  0  0  0  0
   -4.4000    1.8800    0.0000 C   0  0  0  0  0  0  0  0  0  0  0  0
   -1.4000    4.4700    0.0000 C   0  0  0  0  0  0  0  0  0  0  0  0
   -2.1500    3.1700    0.0000 C   0  0  0  0  0  0  0  0  0  0  0  0
   -1.3998    1.8711    0.0000 O   0  0  0  0  0  0  0  0  0  0  0  0
  8  6  1  0
  9  7  1  0
 10  6  1  0
 11  7  1  0
 13 12  1  0
 15  1  2  0
 15  2  1  0
 16  3  1  0
 16  8  1  0
  9 16  2  0
 17  4  1  0
 10 17  2  0
 17 12  1  0
 18  5  1  0
 18 11  1  0
 14 18  2  0
 19 13  1  0
 19 15  1  1
 20 14  1  0
 20 19  1  0
 20 21  1  6
M  END
>  <NAME>  (1020) 
(3E,7E,11E)-2-HYDROXYCEMBRA-3,7,11,15-TETRAENE

>  <SYNONYMS>  (1020) 
MAYOL

>  <SPECTRUM TYPE>  (1020) 
MS1

>  <INSTRUMENT TYPE>  (1020) 
EI-B

>  <INSTRUMENT>  (1020) 
HITACHI RMU-6L

>  <ION MODE>  (1020) 
P

>  <INCHIKEY>  (1020) 
AZUVBPVDRHGGEP-CHHSKAHISA-N

>  <FORMULA>  (1020) 
C20H32O

>  <EXACT MASS>  (1020) 
288.24531564399996

>  <MW>  (1020) 
288

>  <ID>  (1020) 
JP010628

>  <CONTRIBUTOR>  (1020) 
University of Tokyo Team, {Faculty of Engineering, University of Tokyo

>  <COMMENT>  (1020) 
SMILES=CC(C1)=C([H])CCC(C)=C([H])C([H])(O)C([H])(CCC(C)=C([H])C1)C(C)=C
InChI=InChI=1S/C20H32O/c1-15(2)19-13-12-17(4)10-6-8-16(3)9-7-11-18(5)14-20(19)21/h9-10,14,19-21H,1,6-8,11-13H2,2-5H3/b16-9+,17-10+,18-14+/t19-,20-/m1/s1
computed SMILES=OC1C=C(C)CCC=C(C)CCC=C(C)CCC1C(=C)C
computed InChI=InChI=1S/C20H32O/c1-15(2)19-13-12-17(4)10-6-8-16(3)9-7-11-18(5)14-20(19)21/h9-10,14,19-21H,1,6-8,11-13H2,2-5H3/b16-9-,17-10-,18-14-/t19-,20-/m1/s1
accession=JP010628
date=2016.01.19 (Created 2008.10.21, modified 2011.05.06)
author=EGUCHI S, FAC. OF SCIENCE, HIROSHIMA UNIV.
license=CC BY-NC-SA
exact mass=288.24532
ionization energy=70 eV
ion type=[M]+*
computed spectral entropy=4.0694984192638035
computed normalized entropy=0.819993113314668
SPLASH=splash10-0159-9410000000-1e03be2bafac804e0444
submitter=submitter = University of Tokyo Team (Faculty of Engineering, University of Tokyo)
MoNA Rating=3.75

>  <NUM PEAKS>  (1020) 
143

>  <MASS SPECTRAL PEAKS>  (1020) 
41 38.8
42 4.7
43 12.9
44 0.12
53 18
54 47
55 35.3
56 0.94
57 17.6
59 2.4
65 8.2
66 0.59
67 35.3
68 85.9
69 99.99
70 0.82
71 12.9
72 1.2
77 14.1
78 0.47
79 24.7
80 12.9
81 82.4
82 1.41
83 21.2
84 94.1
85 11.8
86 0.12
91 14.1
92 9.4
93 51.8
94 2
95 36.5
96 8.2
97 11.8
98 0.06
99 1.2
105 15.3
106 7.1
107 3.18
108 12.9
109 30.6
110 7.1
111 0.47
113 2.4
115 2.4
116 1.2
117 0.24
118 1.2
119 16.5
120 7.1
121 4.24
122 12.9
123 38.8
124 11.8
125 0.35
126 2.4
127 1.2
131 5.9
132 0.24
133 11.8
134 14.1
135 23.5
136 5.65
137 31.8
138 8.2
139 2.4
145 0.76
146 3.5
147 14.1
148 11.8
149 1.65
150 9.4
151 7.1
152 3.6
153 0.12
157 2.4
158 1.2
159 9.4
160 0.35
161 14.1
162 5.9
163 7.1
164 0.47
165 3.5
166 2.4
167 1.2
173 0.35
174 2.4
175 10.6
176 3.5
177 0.82
178 3.5
179 1.2
185 3.5
186 0.12
187 4.7
188 2.4
189 8.2
190 0.24
191 9.4
192 3.6
193 1.2
199 0.36
201 7.1
202 4.7
203 3.5
204 1.53
205 8.2
206 4.7
207 2.4
208 0.12
213 2.4
214 1.2
215 2.4
216 0.06
217 5.9
218 2.4
219 2.4
220 0.12
227 3.5
228 1.2
229 0.6
230 0.12
231 3.6
232 2.4
245 7.1
246 0.18
253 2.4
254 1.2
255 2.9
257 0.12
259 1.2
260 2.4
261 1.2
270 0.59
271 2.4
272 1.2
273 3.5
274 0.12
288 22.4
289 7.1
290 1.2

$$$$

     RDKit          2D

  7  6  0  0  0  0  0  0  0  0999 V2000
   -4.2219    2.8125    0.0000 C   0  0  0  0  0  0  0  0  0  0  0  0
   -1.0748    0.7635    0.0000 C   0  0  0  0  0  0  0  0  0  0  0  0
    0.9743    1.3125    0.0000 C   0  0  0  0  0  0  0  0  0  0  0  0
    0.4252    3.3615    0.0000 C   0  0  0  0  0  0  0  0  0  0  0  0
   -2.9228    2.0625    0.0000 C   0  0  0  0  0  0  0  0  0  0  0  0
   -1.6238    2.8125    0.0000 C   0  0  0  0  0  0  0  0  0  0  0  0
   -0.3248    2.0625    0.0000 Si  0  0  0  0  0  4  0  0  0  0  0  0
  5  1  1  0
  6  5  1  0
  7  2  1  0
  7  3  1  0
  7  4  1  0
  7  6  1  0
M  END
>  <NAME>  (1021) 
TRIMETHYLPROPYLSILANE

>  <SYNONYMS>  (1021) 


>  <SPECTRUM TYPE>  (1021) 
MS1

>  <INSTRUMENT TYPE>  (1021) 
EI-B

>  <INSTRUMENT>  (1021) 
HITACHI RMU-6M

>  <ION MODE>  (1021) 
P

>  <INCHIKEY>  (1021) 
WNWMJFBAIXMNOF-UHFFFAOYSA-N

>  <FORMULA>  (1021) 
C6H16Si

>  <EXACT MASS>  (1021) 
116.102127042

>  <MW>  (1021) 
116

>  <ID>  (1021) 
JP010614

>  <CONTRIBUTOR>  (1021) 
University of Tokyo Team, {Faculty of Engineering, University of Tokyo

>  <COMMENT>  (1021) 
SMILES=CCC[Si](C)(C)C
InChI=InChI=1S/C6H16Si/c1-5-6-7(2,3)4/h5-6H2,1-4H3
computed SMILES=CCC[Si](C)(C)C
accession=JP010614
date=2016.01.19 (Created 2008.10.21, modified 2011.05.06)
author=YAMAMOTO M, DEP. CHEMISTRY, FAC. SCIENCE, NARA WOMEN'S UNIV.
license=CC BY-NC-SA
exact mass=116.10213
ionization energy=70 eV
ion type=[M]+*
computed spectral entropy=2.218115551590935
computed normalized entropy=0.6189769301307412
SPLASH=splash10-00di-9000000000-692992efbbcd0d4aa936
submitter=submitter = University of Tokyo Team (Faculty of Engineering, University of Tokyo)
MoNA Rating=3.75

>  <NUM PEAKS>  (1021) 
36

>  <MASS SPECTRAL PEAKS>  (1021) 
15 1.2
27 2.7
28 2
29 0.46
30 1.2
31 4.2
32 1.2
39 0.2
41 1.4
42 2.8
43 15.5
44 0.44
45 12.2
46 1.3
47 1
53 0.21
54 1
55 3.2
56 1.2
58 0.42
59 46
60 4
61 2.1
67 0.14
69 1
71 1.3
72 2.9
73 99.99
74 9.1
75 4.2
85 1.6
101 1.63
102 2.4
103 1.2
116 5.9
117 1.4

$$$$

     RDKit          2D

  7  6  0  0  0  0  0  0  0  0999 V2000
    0.3248    3.9375    0.0000 C   0  0  0  0  0  0  0  0  0  0  0  0
    1.6238    3.1875    0.0000 H   0  0  0  0  0  0  0  0  0  0  0  0
   -4.8714    3.9375    0.0000 C   0  0  0  0  0  0  0  0  0  0  0  0
   -3.5724    1.6875    0.0000 C   0  0  0  0  0  0  0  0  0  0  0  0
   -0.9743    3.1875    0.0000 C   0  0  0  0  0  0  0  0  0  0  0  0
   -2.2733    3.9375    0.0000 C   0  0  0  0  0  0  0  0  0  0  0  0
   -3.5724    3.1875    0.0000 Si  0  0  0  0  0  4  0  0  0  0  0  0
  1  2  1  0
  5  1  1  0
  6  5  1  0
  7  3  1  0
  7  4  1  0
  7  6  1  0
M  ISO  1   2   2
M  END
>  <NAME>  (1022) 
DIMETHYLPROPYLSILANE (2-D)

>  <SYNONYMS>  (1022) 


>  <SPECTRUM TYPE>  (1022) 
MS1

>  <INSTRUMENT TYPE>  (1022) 
EI-B

>  <INSTRUMENT>  (1022) 
HITACHI RMU-6M

>  <ION MODE>  (1022) 
P

>  <INCHIKEY>  (1022) 
AOJUJJFLGKIMAZ-MICDWDOJSA-N

>  <FORMULA>  (1022) 
C5H14Si

>  <EXACT MASS>  (1022) 
103.092753724

>  <MW>  (1022) 
103

>  <ID>  (1022) 
JP010613

>  <CONTRIBUTOR>  (1022) 
University of Tokyo Team, {Faculty of Engineering, University of Tokyo

>  <COMMENT>  (1022) 
SMILES=[2H]CCC[SiH](C)C
InChI=InChI=1S/C5H14Si/c1-4-5-6(2)3/h6H,4-5H2,1-3H3/i1D
computed SMILES=[H]CCC[SiH](C)C
accession=JP010613
date=2016.01.19 (Created 2008.10.21, modified 2011.05.06)
author=YAMAMOTO M, DEP. CHEMISTRY, FAC. SCIENCE, NARA WOMEN'S UNIV.
license=CC BY-NC-SA
exact mass=102.08648
ionization energy=70 eV
ion type=[M]+*
computed spectral entropy=2.2613101857608284
computed normalized entropy=0.6585086230977567
SPLASH=splash10-08fr-9000000000-ac63f48394fdcda11d35
submitter=submitter = University of Tokyo Team (Faculty of Engineering, University of Tokyo)
MoNA Rating=3.75

>  <NUM PEAKS>  (1022) 
31

>  <MASS SPECTRAL PEAKS>  (1022) 
27 3
28 2.3
29 3.5
31 0.47
32 2.9
39 2.2
41 2.4
42 0.2
43 12.1
44 6.5
45 7.4
46 1.36
47 1.2
53 1.3
55 1.6
57 0.12
58 37.5
59 41.6
60 99.99
61 0.91
62 3.6
72 1.9
73 2.9
85 0.13
86 2.2
88 14.7
89 1.6
100 0.48
101 6.9
102 1.1
103 5.4

$$$$

     RDKit          2D

  6  5  0  0  0  0  0  0  0  0999 V2000
    1.2990    2.2500    0.0000 C   0  0  0  0  0  0  0  0  0  0  0  0
   -3.8971    2.2500    0.0000 C   0  0  0  0  0  0  0  0  0  0  0  0
   -2.5981    4.5000    0.0000 C   0  0  0  0  0  0  0  0  0  0  0  0
    0.0000    3.0000    0.0000 C   0  0  0  0  0  0  0  0  0  0  0  0
   -1.2990    2.2500    0.0000 C   0  0  0  0  0  0  0  0  0  0  0  0
   -2.5981    3.0000    0.0000 Si  0  0  0  0  0  4  0  0  0  0  0  0
  4  1  1  0
  5  4  1  0
  6  2  1  0
  6  3  1  0
  6  5  1  0
M  END
>  <NAME>  (1023) 
DIMETHYLPROPYLSILANE

>  <SYNONYMS>  (1023) 


>  <SPECTRUM TYPE>  (1023) 
MS1

>  <INSTRUMENT TYPE>  (1023) 
EI-B

>  <INSTRUMENT>  (1023) 
HITACHI RMU-6M

>  <ION MODE>  (1023) 
P

>  <INCHIKEY>  (1023) 
AOJUJJFLGKIMAZ-UHFFFAOYSA-N

>  <FORMULA>  (1023) 
C5H14Si

>  <EXACT MASS>  (1023) 
102.08647697800001

>  <MW>  (1023) 
102

>  <ID>  (1023) 
JP010612

>  <CONTRIBUTOR>  (1023) 
University of Tokyo Team, {Faculty of Engineering, University of Tokyo

>  <COMMENT>  (1023) 
SMILES=CCC[SiH](C)C
InChI=InChI=1S/C5H14Si/c1-4-5-6(2)3/h6H,4-5H2,1-3H3
computed SMILES=CCC[SiH](C)C
accession=JP010612
date=2016.01.19 (Created 2008.10.21, modified 2011.05.06)
author=YAMAMOTO M, DEP. CHEMISTRY, FAC. SCIENCE, NARA WOMEN'S UNIV.
license=CC BY-NC-SA
exact mass=102.08648
ionization energy=70 eV
ion type=[M]+*
computed spectral entropy=2.1046722406586724
computed normalized entropy=0.6250333641363274
SPLASH=splash10-0a4i-9000000000-5b6f027520e66121b197
submitter=submitter = University of Tokyo Team (Faculty of Engineering, University of Tokyo)
MoNA Rating=3.75

>  <NUM PEAKS>  (1023) 
29

>  <MASS SPECTRAL PEAKS>  (1023) 
15 1
27 3.5
28 2
29 0.44
31 6.6
39 2.6
41 2
42 0.34
43 18
44 3.3
45 15.7
46 0.1
53 1.9
55 2.3
57 2
58 3.2
59 99.99
60 8.4
61 3.3
71 0.14
72 1.2
73 2.9
85 1.2
86 0.18
87 9.9
88 1.2
100 3.4
101 0.74
102 4.6

$$$$

     RDKit          2D

  9  8  0  0  0  0  0  0  0  0999 V2000
    1.9931    3.2978    0.0000 C   0  0  0  0  0  0  0  0  0  0  0  0
   -5.8011    3.2978    0.0000 C   0  0  0  0  0  0  0  0  0  0  0  0
    0.6941    4.0478    0.0000 C   0  0  0  0  0  0  0  0  0  0  0  0
   -0.6050    3.2978    0.0000 C   0  0  0  0  0  0  0  0  0  0  0  0
   -1.9040    4.0478    0.0000 C   0  0  0  0  0  0  0  0  0  0  0  0
   -0.9398    5.1969    0.0000 H   0  0  0  0  0  0  0  0  0  0  0  0
   -2.8682    5.1969    0.0000 H   0  0  0  0  0  0  0  0  0  0  0  0
   -3.2031    3.2978    0.0000 C   0  0  0  0  0  0  0  0  0  0  0  0
   -4.5021    4.0478    0.0000 Si  0  0  0  0  0  4  0  0  0  0  0  0
  5  6  1  0
  5  7  1  0
  3  1  1  0
  4  3  1  0
  5  4  1  0
  8  5  1  0
  9  2  1  0
  9  8  1  0
M  ISO  2   6   2   7   2
M  END
>  <NAME>  (1024) 
METHYLPENTYLSILANE (2,2-D2)

>  <SYNONYMS>  (1024) 


>  <SPECTRUM TYPE>  (1024) 
MS1

>  <INSTRUMENT TYPE>  (1024) 
EI-B

>  <INSTRUMENT>  (1024) 
HITACHI RMU-6M

>  <ION MODE>  (1024) 
P

>  <INCHIKEY>  (1024) 
SCTSYHSKWVXLNV-BFWBPSQCSA-N

>  <FORMULA>  (1024) 
C6H16Si

>  <EXACT MASS>  (1024) 
118.114680534

>  <MW>  (1024) 
118

>  <ID>  (1024) 
JP010611

>  <CONTRIBUTOR>  (1024) 
University of Tokyo Team, {Faculty of Engineering, University of Tokyo

>  <COMMENT>  (1024) 
SMILES=CCCC([2H])([2H])C[SiH2]C
InChI=InChI=1S/C6H16Si/c1-3-4-5-6-7-2/h3-7H2,1-2H3/i5D2
computed SMILES=[H]C([H])(CCC)C[SiH2]C
accession=JP010611
date=2016.01.19 (Created 2008.10.21, modified 2011.05.06)
author=YAMAMOTO M, DEP. CHEMISTRY, FAC. SCIENCE, NARA WOMEN'S UNIV.
license=CC BY-NC-SA
exact mass=116.10213
ionization energy=70 eV
ion type=[M]+*
computed spectral entropy=2.796478385737102
computed normalized entropy=0.7435069391997595
SPLASH=splash10-004j-9000000000-80ce5be81271c1f660b5
submitter=submitter = University of Tokyo Team (Faculty of Engineering, University of Tokyo)
MoNA Rating=3.75

>  <NUM PEAKS>  (1024) 
43

>  <MASS SPECTRAL PEAKS>  (1024) 
15 1
27 8.1
28 2.8
29 0.49
31 1.2
32 1.7
39 4.7
41 0.91
42 8.1
43 7.9
44 8.5
45 3.02
46 41.7
47 32.1
48 3.5
55 0.47
56 1.5
57 1.2
58 5.2
59 1.23
60 12.2
61 6.2
69 1.4
70 0.52
71 4.8
72 5.4
73 7.3
74 0.68
75 99.99
76 8.7
77 3.9
85 0.16
86 10.7
87 15.2
88 3.7
89 0.33
90 5.6
100 1
103 2.5
115 1.07
116 4.6
117 1.2
118 3.7

$$$$

     RDKit          2D

 10  9  0  0  0  0  0  0  0  0999 V2000
    5.4976    2.4240    0.0000 C   0  0  0  0  0  0  0  0  0  0  0  0
    6.2476    3.7231    0.0000 H   0  0  0  0  0  0  0  0  0  0  0  0
    4.7476    1.1250    0.0000 H   0  0  0  0  0  0  0  0  0  0  0  0
    6.7966    1.6740    0.0000 H   0  0  0  0  0  0  0  0  0  0  0  0
   -2.2966    2.4240    0.0000 C   0  0  0  0  0  0  0  0  0  0  0  0
    4.1986    3.1740    0.0000 C   0  0  0  0  0  0  0  0  0  0  0  0
    2.8995    2.4240    0.0000 C   0  0  0  0  0  0  0  0  0  0  0  0
    1.6005    3.1740    0.0000 C   0  0  0  0  0  0  0  0  0  0  0  0
    0.3014    2.4240    0.0000 C   0  0  0  0  0  0  0  0  0  0  0  0
   -0.9976    3.1740    0.0000 Si  0  0  0  0  0  4  0  0  0  0  0  0
  1  2  1  0
  1  3  1  0
  1  4  1  0
  6  1  1  0
  7  6  1  0
  8  7  1  0
  9  8  1  0
 10  5  1  0
 10  9  1  0
M  ISO  3   2   2   3   2   4   2
M  END
>  <NAME>  (1025) 
METHYLPENTYLSILANE (1,1-1-D3)

>  <SYNONYMS>  (1025) 


>  <SPECTRUM TYPE>  (1025) 
MS1

>  <INSTRUMENT TYPE>  (1025) 
EI-B

>  <INSTRUMENT>  (1025) 
HITACHI RMU-6M

>  <ION MODE>  (1025) 
P

>  <INCHIKEY>  (1025) 
SCTSYHSKWVXLNV-FIBGUPNXSA-N

>  <FORMULA>  (1025) 
C6H16Si

>  <EXACT MASS>  (1025) 
119.12095728

>  <MW>  (1025) 
119

>  <ID>  (1025) 
JP010610

>  <CONTRIBUTOR>  (1025) 
University of Tokyo Team, {Faculty of Engineering, University of Tokyo

>  <COMMENT>  (1025) 
SMILES=[2H]C([2H])([2H])CCCC[Si]([H])([H])C
InChI=InChI=1S/C6H16Si/c1-3-4-5-6-7-2/h3-7H2,1-2H3/i1D3
computed SMILES=[H]C([H])([H])CCCC[SiH2]C
accession=JP010610
date=2016.01.19 (Created 2008.10.21, modified 2011.05.06)
author=YAMAMOTO M, DEP. CHEMISTRY, FAC. SCIENCE, NARA WOMEN'S UNIV.
license=CC BY-NC-SA
exact mass=116.10213
ionization energy=70 eV
ion type=[M]+*
computed spectral entropy=2.7615115636466547
computed normalized entropy=0.7254416621036646
SPLASH=splash10-004j-9000000000-690e457746cc5bdfd7f7
submitter=submitter = University of Tokyo Team (Faculty of Engineering, University of Tokyo)
MoNA Rating=3.75

>  <NUM PEAKS>  (1025) 
45

>  <MASS SPECTRAL PEAKS>  (1025) 
27 7.3
28 1.2
29 5.1
31 0.18
32 1.2
39 4.7
41 9.3
42 0.69
43 7.5
44 3.8
45 8.5
46 1.2
47 9.1
48 77
49 5.2
50 0.3
55 5.3
57 1.8
58 1.2
59 0.64
60 1.6
61 8.4
62 20.7
63 0.2
69 2.6
70 11
71 2.1
72 0.36
73 3.1
74 2.7
75 8.5
76 99.99
77 9
78 4
88 3.7
89 2.79
90 7.9
91 6.2
92 1
101 0.21
102 1.2
117 12.8
118 6.4
119 0.45
120 1

$$$$

     RDKit          2D

  7  6  0  0  0  0  0  0  0  0999 V2000
    1.9486    3.3750    0.0000 C   0  0  0  0  0  0  0  0  0  0  0  0
   -5.8457    3.3750    0.0000 C   0  0  0  0  0  0  0  0  0  0  0  0
    0.6495    4.1250    0.0000 C   0  0  0  0  0  0  0  0  0  0  0  0
   -0.6495    3.3750    0.0000 C   0  0  0  0  0  0  0  0  0  0  0  0
   -1.9486    4.1250    0.0000 C   0  0  0  0  0  0  0  0  0  0  0  0
   -3.2476    3.3750    0.0000 C   0  0  0  0  0  0  0  0  0  0  0  0
   -4.5466    4.1250    0.0000 Si  0  0  0  0  0  4  0  0  0  0  0  0
  3  1  1  0
  4  3  1  0
  5  4  1  0
  6  5  1  0
  7  2  1  0
  7  6  1  0
M  END
>  <NAME>  (1026) 
METHYLPENTYLSILANE

>  <SYNONYMS>  (1026) 


>  <SPECTRUM TYPE>  (1026) 
MS1

>  <INSTRUMENT TYPE>  (1026) 
EI-B

>  <INSTRUMENT>  (1026) 
HITACHI RMU-6M

>  <ION MODE>  (1026) 
P

>  <INCHIKEY>  (1026) 
SCTSYHSKWVXLNV-UHFFFAOYSA-N

>  <FORMULA>  (1026) 
C6H16Si

>  <EXACT MASS>  (1026) 
116.102127042

>  <MW>  (1026) 
116

>  <ID>  (1026) 
JP010609

>  <CONTRIBUTOR>  (1026) 
University of Tokyo Team, {Faculty of Engineering, University of Tokyo

>  <COMMENT>  (1026) 
SMILES=CCCCC[SiH2]C
InChI=InChI=1S/C6H16Si/c1-3-4-5-6-7-2/h3-7H2,1-2H3
computed SMILES=CCCCC[SiH2]C
accession=JP010609
date=2016.01.19 (Created 2008.10.21, modified 2011.05.06)
author=YAMAMOTO M, DEP. CHEMISTRY, FAC. SCIENCE, NARA WOMEN'S UNIV.
license=CC BY-NC-SA
exact mass=116.10213
ionization energy=70 eV
ion type=[M]+*
computed spectral entropy=2.549788731384105
computed normalized entropy=0.7171699330939605
SPLASH=splash10-00dj-9000000000-5036d272e76fbcc78cff
submitter=submitter = University of Tokyo Team (Faculty of Engineering, University of Tokyo)
MoNA Rating=3.75

>  <NUM PEAKS>  (1026) 
35

>  <MASS SPECTRAL PEAKS>  (1026) 
27 7
28 2.9
29 4.9
31 0.3
39 4.6
41 9.1
42 6.7
43 1.59
44 8.4
45 78
46 4.8
47 0.24
53 1.3
55 5.3
57 2.2
58 0.76
59 26.9
60 2.5
61 1.2
69 0.24
70 9.4
71 3.5
72 9.8
73 99.99
74 8.5
75 3.6
85 3
86 2.54
87 7.1
88 5.5
99 1.3
101 0.25
114 11.6
115 5.5
116 4.1

$$$$

     RDKit          2D

 10  9  0  0  0  0  0  0  0  0999 V2000
    2.2733    4.3125    0.0000 C   0  0  0  0  0  0  0  0  0  0  0  0
   -6.8200    5.0625    0.0000 C   0  0  0  0  0  0  0  0  0  0  0  0
    0.9743    5.0625    0.0000 C   0  0  0  0  0  0  0  0  0  0  0  0
   -4.2219    5.0625    0.0000 C   0  0  0  0  0  0  0  0  0  0  0  0
   -2.9228    4.3125    0.0000 C   0  0  0  0  0  0  0  0  0  0  0  0
   -5.5209    4.3125    0.0000 C   0  0  0  0  0  0  0  0  0  0  0  0
   -1.6238    5.0625    0.0000 C   0  0  0  0  0  0  0  0  0  0  0  0
   -5.5209    2.8125    0.0000 O   0  0  0  0  0  0  0  0  0  0  0  0
   -1.6238    6.5625    0.0000 O   0  0  0  0  0  0  0  0  0  0  0  0
   -0.3248    4.3125    0.0000 O   0  0  0  0  0  0  0  0  0  0  0  0
  3  1  1  0
  5  4  1  0
  6  2  1  0
  6  4  1  0
  7  5  1  0
  8  6  2  0
  9  7  2  0
 10  3  1  0
 10  7  1  0
M  END
>  <NAME>  (1027) 
ETHYL LEVULINATE

>  <SYNONYMS>  (1027) 
BETA-ACETYLPROPIONIC ACID ETHYL ESTER

>  <SPECTRUM TYPE>  (1027) 
MS1

>  <INSTRUMENT TYPE>  (1027) 
EI-B

>  <INSTRUMENT>  (1027) 
HITACHI RMU-6M

>  <ION MODE>  (1027) 
P

>  <INCHIKEY>  (1027) 
GMEONFUTDYJSNV-UHFFFAOYSA-N

>  <FORMULA>  (1027) 
C7H12O3

>  <EXACT MASS>  (1027) 
144.07864424399997

>  <MW>  (1027) 
144

>  <ID>  (1027) 
JP010608

>  <CONTRIBUTOR>  (1027) 
University of Tokyo Team, {Faculty of Engineering, University of Tokyo

>  <COMMENT>  (1027) 
SMILES=CCOC(=O)CCC(C)=O
InChI=InChI=1S/C7H12O3/c1-3-10-7(9)5-4-6(2)8/h3-5H2,1-2H3
computed SMILES=O=C(OCC)CCC(=O)C
accession=JP010608
date=2016.01.19 (Created 2008.10.21, modified 2011.05.06)
author=YAMAMOTO M, DEP. CHEMISTRY, FAC. SCIENCE, NARA WOMEN'S UNIV.
license=CC BY-NC-SA
exact mass=144.07864
ionization energy=70 eV
ion type=[M]+*
computed spectral entropy=2.6453239294700994
computed normalized entropy=0.7381916978537824
SPLASH=splash10-002g-9100000000-58314b79e586dde6ec61
submitter=submitter = University of Tokyo Team (Faculty of Engineering, University of Tokyo)
MoNA Rating=3.75

>  <NUM PEAKS>  (1027) 
36

>  <MASS SPECTRAL PEAKS>  (1027) 
15 6.1
26 2.7
27 14.6
28 0.92
29 21.1
30 1.7
31 1.7
39 0.17
41 1.4
42 5.4
43 99.99
44 0.24
45 9.2
55 9.5
56 7.5
57 0.75
58 1.7
61 1.4
71 8.8
72 0.14
73 12.2
74 19.4
75 5.8
81 0.1
89 1
98 8.2
99 55.3
100 0.37
101 15.6
102 13.6
103 1
116 0.1
129 14.9
130 1.4
144 8.5
145 1

$$$$

     RDKit          2D

  9  8  0  0  0  0  0  0  0  0999 V2000
    2.2733    2.8125    0.0000 C   0  0  0  0  0  0  0  0  0  0  0  0
   -5.5209    2.8125    0.0000 C   0  0  0  0  0  0  0  0  0  0  0  0
   -0.3248    2.8125    0.0000 C   0  0  0  0  0  0  0  0  0  0  0  0
   -1.6238    3.5625    0.0000 C   0  0  0  0  0  0  0  0  0  0  0  0
    0.9743    3.5625    0.0000 C   0  0  0  0  0  0  0  0  0  0  0  0
   -2.9228    2.8125    0.0000 C   0  0  0  0  0  0  0  0  0  0  0  0
    0.9743    5.0625    0.0000 O   0  0  0  0  0  0  0  0  0  0  0  0
   -2.9228    1.3125    0.0000 O   0  0  0  0  0  0  0  0  0  0  0  0
   -4.2219    3.5625    0.0000 O   0  0  0  0  0  0  0  0  0  0  0  0
  4  3  1  0
  5  1  1  0
  5  3  1  0
  6  4  1  0
  7  5  2  0
  8  6  2  0
  9  2  1  0
  9  6  1  0
M  END
>  <NAME>  (1028) 
METHYL LEVULINATE

>  <SYNONYMS>  (1028) 
BETA-ACETYLPROPIONIC ACID METHYL ESTER

>  <SPECTRUM TYPE>  (1028) 
MS1

>  <INSTRUMENT TYPE>  (1028) 
EI-B

>  <INSTRUMENT>  (1028) 
HITACHI RMU-6M

>  <ION MODE>  (1028) 
P

>  <INCHIKEY>  (1028) 
UAGJVSRUFNSIHR-UHFFFAOYSA-N

>  <FORMULA>  (1028) 
C6H10O3

>  <EXACT MASS>  (1028) 
130.06299417999998

>  <MW>  (1028) 
130

>  <ID>  (1028) 
JP010607

>  <CONTRIBUTOR>  (1028) 
University of Tokyo Team, {Faculty of Engineering, University of Tokyo

>  <COMMENT>  (1028) 
SMILES=COC(=O)CCC(C)=O
InChI=InChI=1S/C6H10O3/c1-5(7)3-4-6(8)9-2/h3-4H2,1-2H3
computed SMILES=O=C(OC)CCC(=O)C
accession=JP010607
date=2016.01.19 (Created 2008.10.21, modified 2011.05.06)
author=YAMAMOTO M, DEP. CHEMISTRY, FAC. SCIENCE, NARA WOMEN'S UNIV.
license=CC BY-NC-SA
exact mass=130.06299
ionization energy=70 eV
ion type=[M]+*
computed spectral entropy=2.3115026171789714
computed normalized entropy=0.7013401182022991
SPLASH=splash10-0006-9100000000-820d538b4336c074ba52
submitter=submitter = University of Tokyo Team (Faculty of Engineering, University of Tokyo)
MoNA Rating=3.75

>  <NUM PEAKS>  (1028) 
27

>  <MASS SPECTRAL PEAKS>  (1028) 
15 13
26 2.1
27 8.8
28 0.71
29 2.7
31 1.5
39 2.1
41 0.24
42 5.9
43 99.99
44 2.7
45 0.24
55 17.1
56 4.4
57 12.4
59 1.18
71 6.5
75 1.2
87 6.2
88 1.18
89 1.2
98 6.2
99 28.9
100 0.21
115 19.8
116 1.2
130 8

$$$$

     RDKit          2D

  8  7  0  0  0  0  0  0  0  0999 V2000
    0.0000    0.0000    0.0000 C   0  0  0  0  0  0  0  0  0  0  0  0
   -1.2990    2.2500    0.0000 C   0  0  0  0  0  0  0  0  0  0  0  0
   -1.2990    3.7500    0.0000 C   0  0  0  0  0  0  0  0  0  0  0  0
    0.0000    1.5000    0.0000 C   0  0  0  0  0  0  0  0  0  0  0  0
   -2.5981    4.5000    0.0000 C   0  0  0  0  0  0  0  0  0  0  0  0
    1.2990    2.2500    0.0000 O   0  0  0  0  0  0  0  0  0  0  0  0
   -3.8971    3.7500    0.0000 O   0  0  0  0  0  0  0  0  0  0  0  0
   -2.5981    6.0000    0.0000 O   0  0  0  0  0  0  0  0  0  0  0  0
  3  2  1  0
  4  1  1  0
  4  2  1  0
  5  3  1  0
  6  4  2  0
  7  5  2  0
  8  5  1  0
M  END
>  <NAME>  (1029) 
LEVULINIC ACID

>  <SYNONYMS>  (1029) 
BETA-ACETYLPROPIONIC ACID

>  <SPECTRUM TYPE>  (1029) 
MS1

>  <INSTRUMENT TYPE>  (1029) 
EI-B

>  <INSTRUMENT>  (1029) 
HITACHI RMU-6M

>  <ION MODE>  (1029) 
P

>  <INCHIKEY>  (1029) 
JOOXCMJARBKPKM-UHFFFAOYSA-N

>  <FORMULA>  (1029) 
C5H8O3

>  <EXACT MASS>  (1029) 
116.04734411599999

>  <MW>  (1029) 
116

>  <ID>  (1029) 
JP010606

>  <CONTRIBUTOR>  (1029) 
University of Tokyo Team, {Faculty of Engineering, University of Tokyo

>  <COMMENT>  (1029) 
SMILES=CC(=O)CCC(O)=O
InChI=InChI=1S/C5H8O3/c1-4(6)2-3-5(7)8/h2-3H2,1H3,(H,7,8)
computed SMILES=O=C(O)CCC(=O)C
accession=JP010606
date=2016.01.19 (Created 2008.10.21, modified 2011.05.06)
author=YAMAMOTO M, DEP. CHEMISTRY, FAC. SCIENCE, NARA WOMEN'S UNIV.
license=CC BY-NC-SA
exact mass=116.04734
ionization energy=70 eV
ion type=[M]+*
computed spectral entropy=1.9309232725886807
computed normalized entropy=0.6158274069775265
SPLASH=splash10-0006-9000000000-0b0447e3daa65b1cd932
submitter=submitter = University of Tokyo Team (Faculty of Engineering, University of Tokyo)
MoNA Rating=3.75

>  <NUM PEAKS>  (1029) 
23

>  <MASS SPECTRAL PEAKS>  (1029) 
14 1.1
15 4.9
26 2.3
27 0.91
28 5.7
29 8.3
31 1.1
39 0.15
41 1.1
42 4.9
43 99.99
44 0.27
45 7.6
55 8
56 29.9
57 0.19
61 1.9
71 2.3
73 6.8
74 0.19
99 2.3
101 3.4
116 6.4

$$$$

     RDKit          2D

 11 10  0  0  0  0  0  0  0  0999 V2000
    2.5981    4.5000    0.0000 C   0  0  0  0  0  0  0  0  0  0  0  0
   -7.7942    4.5000    0.0000 C   0  0  0  0  0  0  0  0  0  0  0  0
    1.2990    5.2500    0.0000 C   0  0  0  0  0  0  0  0  0  0  0  0
   -6.4952    5.2500    0.0000 C   0  0  0  0  0  0  0  0  0  0  0  0
   -2.5981    4.5000    0.0000 C   0  0  0  0  0  0  0  0  0  0  0  0
   -1.2990    5.2500    0.0000 C   0  0  0  0  0  0  0  0  0  0  0  0
   -3.8971    5.2500    0.0000 C   0  0  0  0  0  0  0  0  0  0  0  0
   -1.2990    6.7500    0.0000 O   0  0  0  0  0  0  0  0  0  0  0  0
   -3.8971    6.7500    0.0000 O   0  0  0  0  0  0  0  0  0  0  0  0
    0.0000    4.5000    0.0000 O   0  0  0  0  0  0  0  0  0  0  0  0
   -5.1962    4.5000    0.0000 O   0  0  0  0  0  0  0  0  0  0  0  0
  3  1  1  0
  4  2  1  0
  6  5  1  0
  7  5  1  0
  8  6  2  0
  9  7  2  0
 10  3  1  0
 10  6  1  0
 11  4  1  0
 11  7  1  0
M  END
>  <NAME>  (1030) 
DIETHYL MALONATE

>  <SYNONYMS>  (1030) 


>  <SPECTRUM TYPE>  (1030) 
MS1

>  <INSTRUMENT TYPE>  (1030) 
EI-B

>  <INSTRUMENT>  (1030) 
HITACHI RMU-6M

>  <ION MODE>  (1030) 
P

>  <INCHIKEY>  (1030) 
IYXGSMUGOJNHAZ-UHFFFAOYSA-N

>  <FORMULA>  (1030) 
C7H12O4

>  <EXACT MASS>  (1030) 
160.073558864

>  <MW>  (1030) 
160

>  <ID>  (1030) 
JP010605

>  <CONTRIBUTOR>  (1030) 
University of Tokyo Team, {Faculty of Engineering, University of Tokyo

>  <COMMENT>  (1030) 
SMILES=CCOC(=O)CC(=O)OCC
InChI=InChI=1S/C7H12O4/c1-3-10-6(8)5-7(9)11-4-2/h3-5H2,1-2H3
computed SMILES=O=C(OCC)CC(=O)OCC
accession=JP010605
date=2016.01.19 (Created 2008.10.21, modified 2011.05.06)
author=YAMAMOTO M, DEP. CHEMISTRY, FAC. SCIENCE, NARA WOMEN'S UNIV.
license=CC BY-NC-SA
exact mass=160.07356
ionization energy=70 eV
ion type=[M]+*
computed spectral entropy=2.370092456074032
computed normalized entropy=0.6778456543877699
SPLASH=splash10-00ou-9300000000-ca6a39f537696bdd1204
submitter=submitter = University of Tokyo Team (Faculty of Engineering, University of Tokyo)
MoNA Rating=3.75

>  <NUM PEAKS>  (1030) 
33

>  <MASS SPECTRAL PEAKS>  (1030) 
14 1.2
15 3.9
26 2.3
27 2.13
28 4.3
29 99.99
30 2.7
31 0.85
41 2.7
42 25.6
43 55.8
44 0.19
45 14.7
47 1.2
55 1.2
59 0.16
60 17.1
61 7.4
69 3.1
70 0.39
73 2.7
86 1.9
87 4.3
88 2.21
89 1.6
105 3.5
115 61.6
116 0.39
132 1.9
135 36.8
136 1.9
160 0.62
161 1.2

$$$$

     RDKit          2D

  9  8  0  0  0  0  0  0  0  0999 V2000
    1.9486    3.3750    0.0000 C   0  0  0  0  0  0  0  0  0  0  0  0
   -5.8457    3.3750    0.0000 C   0  0  0  0  0  0  0  0  0  0  0  0
   -1.9486    4.1250    0.0000 C   0  0  0  0  0  0  0  0  0  0  0  0
   -0.6495    3.3750    0.0000 C   0  0  0  0  0  0  0  0  0  0  0  0
   -3.2476    3.3750    0.0000 C   0  0  0  0  0  0  0  0  0  0  0  0
   -0.6495    1.8750    0.0000 O   0  0  0  0  0  0  0  0  0  0  0  0
   -3.2476    1.8750    0.0000 O   0  0  0  0  0  0  0  0  0  0  0  0
    0.6495    4.1250    0.0000 O   0  0  0  0  0  0  0  0  0  0  0  0
   -4.5466    4.1250    0.0000 O   0  0  0  0  0  0  0  0  0  0  0  0
  4  3  1  0
  5  3  1  0
  6  4  2  0
  7  5  2  0
  8  1  1  0
  8  4  1  0
  9  2  1  0
  9  5  1  0
M  END
>  <NAME>  (1031) 
DIMETHYL MALONATE

>  <SYNONYMS>  (1031) 


>  <SPECTRUM TYPE>  (1031) 
MS1

>  <INSTRUMENT TYPE>  (1031) 
EI-B

>  <INSTRUMENT>  (1031) 
HITACHI RMU-6M

>  <ION MODE>  (1031) 
P

>  <INCHIKEY>  (1031) 
BEPAFCGSDWSTEL-UHFFFAOYSA-N

>  <FORMULA>  (1031) 
C5H8O4

>  <EXACT MASS>  (1031) 
132.042258736

>  <MW>  (1031) 
132

>  <ID>  (1031) 
JP010604

>  <CONTRIBUTOR>  (1031) 
University of Tokyo Team, {Faculty of Engineering, University of Tokyo

>  <COMMENT>  (1031) 
SMILES=COC(=O)CC(=O)OC
InChI=InChI=1S/C5H8O4/c1-8-4(6)3-5(7)9-2/h3H2,1-2H3
computed SMILES=O=C(OC)CC(=O)OC
accession=JP010604
date=2016.01.19 (Created 2008.10.21, modified 2011.05.06)
author=YAMAMOTO M, DEP. CHEMISTRY, FAC. SCIENCE, NARA WOMEN'S UNIV.
license=CC BY-NC-SA
exact mass=132.04226
ionization energy=70 eV
ion type=[M]+*
computed spectral entropy=2.3371169036276003
computed normalized entropy=0.7173258607760108
SPLASH=splash10-0pb9-9300000000-1b07396aa97f9d4ecb73
submitter=submitter = University of Tokyo Team (Faculty of Engineering, University of Tokyo)
MoNA Rating=3.75

>  <NUM PEAKS>  (1031) 
26

>  <MASS SPECTRAL PEAKS>  (1031) 
14 3.5
15 38.9
27 5.1
28 0.25
29 18.7
30 2
31 4.5
41 0.35
42 32.3
43 20.2
44 1
45 0.96
57 32.8
58 6.6
59 99.99
60 0.3
69 9.1
70 1
74 53.5
75 0.2
100 5.1
101 98.5
102 5.1
104 0.3
132 7.6
133 1.5

$$$$

     RDKit          2D

 16 15  0  0  0  0  0  0  0  0999 V2000
   -7.4695    2.0625    0.0000 C   0  0  0  0  0  0  0  0  0  0  0  0
    5.5209    9.5625    0.0000 C   0  0  0  0  0  0  0  0  0  0  0  0
   -6.1704    2.8125    0.0000 C   0  0  0  0  0  0  0  0  0  0  0  0
    4.2219    8.8125    0.0000 C   0  0  0  0  0  0  0  0  0  0  0  0
   -6.1704    4.3125    0.0000 C   0  0  0  0  0  0  0  0  0  0  0  0
    2.9228    9.5625    0.0000 C   0  0  0  0  0  0  0  0  0  0  0  0
   -3.5724    8.8125    0.0000 C   0  0  0  0  0  0  0  0  0  0  0  0
   -2.2733    9.5625    0.0000 C   0  0  0  0  0  0  0  0  0  0  0  0
   -4.8714    5.0625    0.0000 C   0  0  0  0  0  0  0  0  0  0  0  0
    1.6238    8.8125    0.0000 C   0  0  0  0  0  0  0  0  0  0  0  0
   -3.5724    7.3125    0.0000 C   0  0  0  0  0  0  0  0  0  0  0  0
   -0.9743    8.8125    0.0000 C   0  0  0  0  0  0  0  0  0  0  0  0
   -2.2733    6.5625    0.0000 O   0  0  0  0  0  0  0  0  0  0  0  0
   -0.9743    7.3125    0.0000 O   0  0  0  0  0  0  0  0  0  0  0  0
   -4.8714    6.5625    0.0000 O   0  0  0  0  0  0  0  0  0  0  0  0
    0.3248    9.5625    0.0000 O   0  0  0  0  0  0  0  0  0  0  0  0
  3  1  1  0
  4  2  1  0
  5  3  1  0
  6  4  1  0
  7  8  2  0
  9  5  1  0
 10  6  1  0
 11  7  1  0
 12  8  1  0
 13 11  2  0
 14 12  2  0
 15  9  1  0
 15 11  1  0
 16 10  1  0
 16 12  1  0
M  END
>  <NAME>  (1032) 
DIBUTYL MALEATE

>  <SYNONYMS>  (1032) 


>  <SPECTRUM TYPE>  (1032) 
MS1

>  <INSTRUMENT TYPE>  (1032) 
EI-B

>  <INSTRUMENT>  (1032) 
HITACHI RMU-6M

>  <ION MODE>  (1032) 
P

>  <INCHIKEY>  (1032) 
JBSLOWBPDRZSMB-FPLPWBNLSA-N

>  <FORMULA>  (1032) 
C12H20O4

>  <EXACT MASS>  (1032) 
228.13615912

>  <MW>  (1032) 
228

>  <ID>  (1032) 
JP010603

>  <CONTRIBUTOR>  (1032) 
University of Tokyo Team, {Faculty of Engineering, University of Tokyo

>  <COMMENT>  (1032) 
SMILES=CCCCOC(=O)C=CC(=O)OCCCC
InChI=InChI=1S/C12H20O4/c1-3-5-9-15-11(13)7-8-12(14)16-10-6-4-2/h7-8H,3-6,9-10H2,1-2H3/b8-7-
computed SMILES=O=C(OCCCC)C=CC(=O)OCCCC
accession=JP010603
date=2016.01.19 (Created 2008.10.21, modified 2011.05.06)
author=YAMAMOTO M, DEP. CHEMISTRY, FAC. SCIENCE, NARA WOMEN'S UNIV.
license=CC BY-NC-SA
exact mass=228.13616
ionization energy=70 eV
ion type=[M]+*
computed spectral entropy=2.491721646408277
computed normalized entropy=0.6801364047035064
SPLASH=splash10-052b-9200000000-d3dc4858aa2ffc1fadd1
submitter=submitter = University of Tokyo Team (Faculty of Engineering, University of Tokyo)
MoNA Rating=3.75

>  <NUM PEAKS>  (1032) 
39

>  <MASS SPECTRAL PEAKS>  (1032) 
26 5
27 15.1
28 5.4
29 3.84
30 1.1
31 1.4
39 5
40 0.11
41 32.6
42 1.8
43 2.9
45 0.18
53 1.4
54 7.9
55 6.8
56 2.01
57 80.3
58 2.9
71 2.2
72 0.18
75 4.7
82 6.5
99 99.99
100 1.94
101 1.8
117 39.1
118 2.2
126 0.14
127 1.8
143 1.1
153 1.1
154 0.5
155 12.5
156 3.2
157 1.4
171 0.18
172 1.1
173 13.6
174 1.4

$$$$

     RDKit          2D

 14 13  0  0  0  0  0  0  0  0999 V2000
    0.3248    6.1875    0.0000 C   0  0  0  0  0  0  0  0  0  0  0  0
  -10.0675    0.1875    0.0000 C   0  0  0  0  0  0  0  0  0  0  0  0
   -0.9743    6.9375    0.0000 C   0  0  0  0  0  0  0  0  0  0  0  0
  -10.0675    1.6875    0.0000 C   0  0  0  0  0  0  0  0  0  0  0  0
   -6.1704    6.9375    0.0000 C   0  0  0  0  0  0  0  0  0  0  0  0
   -7.4695    6.1875    0.0000 C   0  0  0  0  0  0  0  0  0  0  0  0
   -2.2733    6.1875    0.0000 C   0  0  0  0  0  0  0  0  0  0  0  0
   -8.7685    2.4375    0.0000 C   0  0  0  0  0  0  0  0  0  0  0  0
   -4.8714    6.1875    0.0000 C   0  0  0  0  0  0  0  0  0  0  0  0
   -7.4695    4.6875    0.0000 C   0  0  0  0  0  0  0  0  0  0  0  0
   -4.8714    4.6875    0.0000 O   0  0  0  0  0  0  0  0  0  0  0  0
   -6.1704    3.9375    0.0000 O   0  0  0  0  0  0  0  0  0  0  0  0
   -3.5724    6.9375    0.0000 O   0  0  0  0  0  0  0  0  0  0  0  0
   -8.7685    3.9375    0.0000 O   0  0  0  0  0  0  0  0  0  0  0  0
  3  1  2  0
  4  2  2  0
  5  6  2  0
  7  3  1  0
  8  4  1  0
  9  5  1  0
 10  6  1  0
 11  9  2  0
 12 10  2  0
 13  7  1  0
 13  9  1  0
 14  8  1  0
 14 10  1  0
M  END
>  <NAME>  (1033) 
DIALLYL MALEATE

>  <SYNONYMS>  (1033) 


>  <SPECTRUM TYPE>  (1033) 
MS1

>  <INSTRUMENT TYPE>  (1033) 
EI-B

>  <INSTRUMENT>  (1033) 
HITACHI RMU-6M

>  <ION MODE>  (1033) 
P

>  <INCHIKEY>  (1033) 
ZPOLOEWJWXZUSP-WAYWQWQTSA-N

>  <FORMULA>  (1033) 
C10H12O4

>  <EXACT MASS>  (1033) 
196.073558864

>  <MW>  (1033) 
196

>  <ID>  (1033) 
JP010602

>  <CONTRIBUTOR>  (1033) 
University of Tokyo Team, {Faculty of Engineering, University of Tokyo

>  <COMMENT>  (1033) 
SMILES=C=CCOC(=O)C=CC(=O)OCC=C
InChI=InChI=1S/C10H12O4/c1-3-7-13-9(11)5-6-10(12)14-8-4-2/h3-6H,1-2,7-8H2/b6-5-
computed SMILES=O=C(OCC=C)C=CC(=O)OCC=C
accession=JP010602
date=2016.01.19 (Created 2008.10.21, modified 2011.05.06)
author=YAMAMOTO M, DEP. CHEMISTRY, FAC. SCIENCE, NARA WOMEN'S UNIV.
license=CC BY-NC-SA
exact mass=196.07356
ionization energy=70 eV
ion type=[M]+*
computed spectral entropy=2.1496114284559344
computed normalized entropy=0.6320160776454042
SPLASH=splash10-0007-9000000000-531654f4fa36b964bf32
submitter=submitter = University of Tokyo Team (Faculty of Engineering, University of Tokyo)
MoNA Rating=3.75

>  <NUM PEAKS>  (1033) 
30

>  <MASS SPECTRAL PEAKS>  (1033) 
26 6.5
27 8
28 2.2
29 0.28
31 1.9
39 16.7
40 2.2
41 99.99
42 6.2
43 3.1
45 1.5
53 0.15
54 6.8
55 4.3
56 1.2
57 0.77
58 1.2
67 2.2
69 1.5
71 0.19
80 2.5
81 1.2
82 3.7
83 0.15
98 1.5
99 52
100 3.4
122 0.12
139 5.9
140 7.1

$$$$

     RDKit          2D

 12 11  0  0  0  0  0  0  0  0999 V2000
   -5.1962    1.5000    0.0000 C   0  0  0  0  0  0  0  0  0  0  0  0
    3.8971    6.7500    0.0000 C   0  0  0  0  0  0  0  0  0  0  0  0
   -3.8971    2.2500    0.0000 C   0  0  0  0  0  0  0  0  0  0  0  0
    2.5981    6.0000    0.0000 C   0  0  0  0  0  0  0  0  0  0  0  0
   -2.5981    6.0000    0.0000 C   0  0  0  0  0  0  0  0  0  0  0  0
   -1.2990    6.7500    0.0000 C   0  0  0  0  0  0  0  0  0  0  0  0
   -2.5981    4.5000    0.0000 C   0  0  0  0  0  0  0  0  0  0  0  0
    0.0000    6.0000    0.0000 C   0  0  0  0  0  0  0  0  0  0  0  0
   -1.2990    3.7500    0.0000 O   0  0  0  0  0  0  0  0  0  0  0  0
    0.0000    4.5000    0.0000 O   0  0  0  0  0  0  0  0  0  0  0  0
   -3.8971    3.7500    0.0000 O   0  0  0  0  0  0  0  0  0  0  0  0
    1.2990    6.7500    0.0000 O   0  0  0  0  0  0  0  0  0  0  0  0
  3  1  1  0
  4  2  1  0
  5  6  2  0
  7  5  1  0
  8  6  1  0
  9  7  2  0
 10  8  2  0
 11  3  1  0
 11  7  1  0
 12  4  1  0
 12  8  1  0
M  END
>  <NAME>  (1034) 
DIETHYL MALEATE

>  <SYNONYMS>  (1034) 


>  <SPECTRUM TYPE>  (1034) 
MS1

>  <INSTRUMENT TYPE>  (1034) 
EI-B

>  <INSTRUMENT>  (1034) 
HITACHI RMU-6M

>  <ION MODE>  (1034) 
P

>  <INCHIKEY>  (1034) 
IEPRKVQEAMIZSS-WAYWQWQTSA-N

>  <FORMULA>  (1034) 
C8H12O4

>  <EXACT MASS>  (1034) 
172.073558864

>  <MW>  (1034) 
172

>  <ID>  (1034) 
JP010601

>  <CONTRIBUTOR>  (1034) 
University of Tokyo Team, {Faculty of Engineering, University of Tokyo

>  <COMMENT>  (1034) 
SMILES=CCOC(=O)C=CC(=O)OCC
InChI=InChI=1S/C8H12O4/c1-3-11-7(9)5-6-8(10)12-4-2/h5-6H,3-4H2,1-2H3/b6-5-
computed SMILES=O=C(OCC)C=CC(=O)OCC
accession=JP010601
date=2016.01.19 (Created 2008.10.21, modified 2011.05.06)
author=YAMAMOTO M, DEP. CHEMISTRY, FAC. SCIENCE, NARA WOMEN'S UNIV.
license=CC BY-NC-SA
exact mass=172.07356
ionization energy=70 eV
ion type=[M]+*
computed spectral entropy=2.3135085849449806
computed normalized entropy=0.694287693891675
SPLASH=splash10-004j-9300000000-83beca9d9c20ad1ddc25
submitter=submitter = University of Tokyo Team (Faculty of Engineering, University of Tokyo)
MoNA Rating=3.75

>  <NUM PEAKS>  (1034) 
28

>  <MASS SPECTRAL PEAKS>  (1034) 
15 2.5
26 10.3
27 23.7
28 0.39
29 32.6
30 1.1
31 1.9
43 0.39
44 1.1
45 5.6
47 1.4
53 0.19
54 9.7
55 7
56 1.4
71 0.5
72 2.8
81 1.1
82 7
99 99.99
100 12
101 1.4
125 1.4
126 2.2
127 37.3
128 10.6
143 5
145 1.7

$$$$

     RDKit          2D

 10  9  0  0  0  0  0  0  0  0999 V2000
    0.3248    3.9375    0.0000 C   0  0  0  0  0  0  0  0  0  0  0  0
   -6.1704    0.1875    0.0000 C   0  0  0  0  0  0  0  0  0  0  0  0
   -3.5724    4.6875    0.0000 C   0  0  0  0  0  0  0  0  0  0  0  0
   -4.8714    3.9375    0.0000 C   0  0  0  0  0  0  0  0  0  0  0  0
   -2.2733    3.9375    0.0000 C   0  0  0  0  0  0  0  0  0  0  0  0
   -4.8714    2.4375    0.0000 C   0  0  0  0  0  0  0  0  0  0  0  0
   -2.2733    2.4375    0.0000 O   0  0  0  0  0  0  0  0  0  0  0  0
   -3.5724    1.6875    0.0000 O   0  0  0  0  0  0  0  0  0  0  0  0
   -0.9743    4.6875    0.0000 O   0  0  0  0  0  0  0  0  0  0  0  0
   -6.1704    1.6875    0.0000 O   0  0  0  0  0  0  0  0  0  0  0  0
  3  4  2  0
  5  3  1  0
  6  4  1  0
  7  5  2  0
  8  6  2  0
  9  1  1  0
  9  5  1  0
 10  2  1  0
 10  6  1  0
M  END
>  <NAME>  (1035) 
DIMETHYL MALEATE

>  <SYNONYMS>  (1035) 


>  <SPECTRUM TYPE>  (1035) 
MS1

>  <INSTRUMENT TYPE>  (1035) 
EI-B

>  <INSTRUMENT>  (1035) 
HITACHI RMU-6M

>  <ION MODE>  (1035) 
P

>  <INCHIKEY>  (1035) 
LDCRTTXIJACKKU-ARJAWSKDSA-N

>  <FORMULA>  (1035) 
C6H8O4

>  <EXACT MASS>  (1035) 
144.042258736

>  <MW>  (1035) 
144

>  <ID>  (1035) 
JP010600

>  <CONTRIBUTOR>  (1035) 
University of Tokyo Team, {Faculty of Engineering, University of Tokyo

>  <COMMENT>  (1035) 
SMILES=COC(=O)C=CC(=O)OC
InChI=InChI=1S/C6H8O4/c1-9-5(7)3-4-6(8)10-2/h3-4H,1-2H3/b4-3-
computed SMILES=O=C(OC)C=CC(=O)OC
accession=JP010600
date=2016.01.19 (Created 2008.10.21, modified 2011.05.06)
author=YAMAMOTO M, DEP. CHEMISTRY, FAC. SCIENCE, NARA WOMEN'S UNIV.
license=CC BY-NC-SA
exact mass=144.04226
ionization energy=70 eV
ion type=[M]+*
computed spectral entropy=1.7184671591773404
computed normalized entropy=0.5836314392441008
SPLASH=splash10-03di-5900000000-155805a1d757b9c0e41b
submitter=submitter = University of Tokyo Team (Faculty of Engineering, University of Tokyo)
MoNA Rating=3.75

>  <NUM PEAKS>  (1035) 
19

>  <MASS SPECTRAL PEAKS>  (1035) 
15 17.8
25 1.2
26 9.5
27 0.28
28 1.8
29 4.3
30 1.2
31 0.15
39 1.8
41 1.8
53 4.3
54 0.65
55 3.1
59 21.8
82 2.5
85 0.77
113 99.99
114 8
144 2.2

$$$$

     RDKit          2D

 10  9  0  0  0  0  0  0  0  0999 V2000
   -7.4695    3.9375    0.0000 C   0  0  0  0  0  0  0  0  0  0  0  0
    1.6238    3.1875    0.0000 C   0  0  0  0  0  0  0  0  0  0  0  0
   -6.1704    3.1875    0.0000 C   0  0  0  0  0  0  0  0  0  0  0  0
   -4.8714    3.9375    0.0000 C   0  0  0  0  0  0  0  0  0  0  0  0
   -3.5724    3.1875    0.0000 C   0  0  0  0  0  0  0  0  0  0  0  0
    0.3248    3.9375    0.0000 C   0  0  0  0  0  0  0  0  0  0  0  0
   -0.9743    3.1875    0.0000 C   0  0  0  0  0  0  0  0  0  0  0  0
    0.3248    5.4375    0.0000 O   0  0  0  0  0  0  0  0  0  0  0  0
   -0.9743    1.6875    0.0000 O   0  0  0  0  0  0  0  0  0  0  0  0
   -2.2733    3.9375    0.0000 O   0  0  0  0  0  0  0  0  0  0  0  0
  3  1  1  0
  4  3  1  0
  5  4  1  0
  6  2  1  0
  7  6  1  0
  8  6  1  0
  9  7  2  0
 10  5  1  0
 10  7  1  0
M  END
>  <NAME>  (1036) 
BUTYL LACTATE

>  <SYNONYMS>  (1036) 


>  <SPECTRUM TYPE>  (1036) 
MS1

>  <INSTRUMENT TYPE>  (1036) 
EI-B

>  <INSTRUMENT>  (1036) 
HITACHI RMU-6M

>  <ION MODE>  (1036) 
P

>  <INCHIKEY>  (1036) 
MRABAEUHTLLEML-UHFFFAOYSA-N

>  <FORMULA>  (1036) 
C7H14O3

>  <EXACT MASS>  (1036) 
146.094294308

>  <MW>  (1036) 
146

>  <ID>  (1036) 
JP010599

>  <CONTRIBUTOR>  (1036) 
University of Tokyo Team, {Faculty of Engineering, University of Tokyo

>  <COMMENT>  (1036) 
SMILES=CCCCOC(=O)C(C)O
InChI=InChI=1S/C7H14O3/c1-3-4-5-10-7(9)6(2)8/h6,8H,3-5H2,1-2H3
computed SMILES=O=C(OCCCC)C(O)C
accession=JP010599
date=2016.01.19 (Created 2008.10.21, modified 2011.05.06)
author=YAMAMOTO M, DEP. CHEMISTRY, FAC. SCIENCE, NARA WOMEN'S UNIV.
license=CC BY-NC-SA
exact mass=146.09429
ionization energy=70 eV
ion type=[M]+*
computed spectral entropy=1.8526570357253256
computed normalized entropy=0.6184321116010222
SPLASH=splash10-0002-9000000000-746a83cab5dda7b0742d
submitter=submitter = University of Tokyo Team (Faculty of Engineering, University of Tokyo)
MoNA Rating=3.75

>  <NUM PEAKS>  (1036) 
20

>  <MASS SPECTRAL PEAKS>  (1036) 
15 1.3
27 8.9
28 3.1
29 1.94
31 1.8
39 3.1
41 15
42 0.13
43 4.5
44 2.1
45 99.99
46 0.26
55 2.9
56 12.1
57 25.5
58 0.1
75 3.4
85 8.4
91 1.6
102 1

$$$$

     RDKit          2D

  9  8  0  0  0  0  0  0  0  0999 V2000
    1.9486    3.3750    0.0000 C   0  0  0  0  0  0  0  0  0  0  0  0
   -5.8457    3.3750    0.0000 C   0  0  0  0  0  0  0  0  0  0  0  0
    0.6495    4.1250    0.0000 C   0  0  0  0  0  0  0  0  0  0  0  0
   -0.6495    3.3750    0.0000 C   0  0  0  0  0  0  0  0  0  0  0  0
   -4.5466    4.1250    0.0000 C   0  0  0  0  0  0  0  0  0  0  0  0
   -3.2476    3.3750    0.0000 C   0  0  0  0  0  0  0  0  0  0  0  0
   -4.5466    5.6250    0.0000 O   0  0  0  0  0  0  0  0  0  0  0  0
   -3.2476    1.8750    0.0000 O   0  0  0  0  0  0  0  0  0  0  0  0
   -1.9486    4.1250    0.0000 O   0  0  0  0  0  0  0  0  0  0  0  0
  3  1  1  0
  4  3  1  0
  5  2  1  0
  6  5  1  0
  7  5  1  0
  8  6  2  0
  9  4  1  0
  9  6  1  0
M  END
>  <NAME>  (1037) 
PROPYL LACTATE

>  <SYNONYMS>  (1037) 


>  <SPECTRUM TYPE>  (1037) 
MS1

>  <INSTRUMENT TYPE>  (1037) 
EI-B

>  <INSTRUMENT>  (1037) 
HITACHI RMU-6M

>  <ION MODE>  (1037) 
P

>  <INCHIKEY>  (1037) 
ILVGAIQLOCKNQA-UHFFFAOYSA-N

>  <FORMULA>  (1037) 
C6H12O3

>  <EXACT MASS>  (1037) 
132.07864424399997

>  <MW>  (1037) 
132

>  <ID>  (1037) 
JP010598

>  <CONTRIBUTOR>  (1037) 
University of Tokyo Team, {Faculty of Engineering, University of Tokyo

>  <COMMENT>  (1037) 
SMILES=CCCOC(=O)C(C)O
InChI=InChI=1S/C6H12O3/c1-3-4-9-6(8)5(2)7/h5,7H,3-4H2,1-2H3
computed SMILES=O=C(OCCC)C(O)C
accession=JP010598
date=2016.01.19 (Created 2008.10.21, modified 2011.05.06)
author=YAMAMOTO M, DEP. CHEMISTRY, FAC. SCIENCE, NARA WOMEN'S UNIV.
license=CC BY-NC-SA
exact mass=132.07864
ionization energy=70 eV
ion type=[M]+*
computed spectral entropy=1.509590620618333
computed normalized entropy=0.5222825114085426
SPLASH=splash10-0002-9000000000-bd5a5d7c84430e160127
submitter=submitter = University of Tokyo Team (Faculty of Engineering, University of Tokyo)
MoNA Rating=3.75

>  <NUM PEAKS>  (1037) 
18

>  <MASS SPECTRAL PEAKS>  (1037) 
15 1.9
26 1.2
27 11.1
28 0.23
29 3.5
31 6.2
39 2.1
41 0.93
42 2.5
43 27.3
44 1.4
45 99.99
46 2.3
56 1.6
59 2.8
75 0.46
89 1.2
132 0.5

$$$$

     RDKit          2D

  8  7  0  0  0  0  0  0  0  0999 V2000
    1.6238    3.1875    0.0000 C   0  0  0  0  0  0  0  0  0  0  0  0
   -4.8714    3.9375    0.0000 C   0  0  0  0  0  0  0  0  0  0  0  0
    0.3248    3.9375    0.0000 C   0  0  0  0  0  0  0  0  0  0  0  0
   -3.5724    3.1875    0.0000 C   0  0  0  0  0  0  0  0  0  0  0  0
   -2.2733    3.9375    0.0000 C   0  0  0  0  0  0  0  0  0  0  0  0
   -3.5724    1.6875    0.0000 O   0  0  0  0  0  0  0  0  0  0  0  0
   -2.2733    5.4375    0.0000 O   0  0  0  0  0  0  0  0  0  0  0  0
   -0.9743    3.1875    0.0000 O   0  0  0  0  0  0  0  0  0  0  0  0
  3  1  1  0
  4  2  1  0
  5  4  1  0
  6  4  1  0
  7  5  2  0
  8  3  1  0
  8  5  1  0
M  END
>  <NAME>  (1038) 
ETHYL LACTATE

>  <SYNONYMS>  (1038) 


>  <SPECTRUM TYPE>  (1038) 
MS1

>  <INSTRUMENT TYPE>  (1038) 
EI-B

>  <INSTRUMENT>  (1038) 
HITACHI RMU-6M

>  <ION MODE>  (1038) 
P

>  <INCHIKEY>  (1038) 
LZCLXQDLBQLTDK-UHFFFAOYSA-N

>  <FORMULA>  (1038) 
C5H10O3

>  <EXACT MASS>  (1038) 
118.06299417999999

>  <MW>  (1038) 
118

>  <ID>  (1038) 
JP010597

>  <CONTRIBUTOR>  (1038) 
University of Tokyo Team, {Faculty of Engineering, University of Tokyo

>  <COMMENT>  (1038) 
SMILES=CCOC(=O)C(C)O
InChI=InChI=1S/C5H10O3/c1-3-8-5(7)4(2)6/h4,6H,3H2,1-2H3
computed SMILES=O=C(OCC)C(O)C
accession=JP010597
date=2016.01.19 (Created 2008.10.21, modified 2011.05.06)
author=YAMAMOTO M, DEP. CHEMISTRY, FAC. SCIENCE, NARA WOMEN'S UNIV.
license=CC BY-NC-SA
exact mass=118.06299
ionization energy=70 eV
ion type=[M]+*
computed spectral entropy=1.1171075594717697
computed normalized entropy=0.4355281152908772
SPLASH=splash10-0002-9000000000-c67249e8726ec52e2a65
submitter=submitter = University of Tokyo Team (Faculty of Engineering, University of Tokyo)
MoNA Rating=3.75

>  <NUM PEAKS>  (1038) 
13

>  <MASS SPECTRAL PEAKS>  (1038) 
15 1.7
26 1.2
27 8.7
28 0.23
29 14.2
31 1.7
43 6.4
44 0.14
45 99.99
46 2.6
47 1.2
75 0.43
103 0.9

$$$$

     RDKit          2D

  7  6  0  0  0  0  0  0  0  0999 V2000
    1.6238    1.6875    0.0000 C   0  0  0  0  0  0  0  0  0  0  0  0
   -3.5724    1.6875    0.0000 C   0  0  0  0  0  0  0  0  0  0  0  0
    0.3248    2.4375    0.0000 C   0  0  0  0  0  0  0  0  0  0  0  0
   -0.9743    1.6875    0.0000 C   0  0  0  0  0  0  0  0  0  0  0  0
    0.3248    3.9375    0.0000 O   0  0  0  0  0  0  0  0  0  0  0  0
   -0.9743    0.1875    0.0000 O   0  0  0  0  0  0  0  0  0  0  0  0
   -2.2733    2.4375    0.0000 O   0  0  0  0  0  0  0  0  0  0  0  0
  3  1  1  0
  4  3  1  0
  5  3  1  0
  6  4  2  0
  7  2  1  0
  7  4  1  0
M  END
>  <NAME>  (1039) 
METHYL LACTATE

>  <SYNONYMS>  (1039) 


>  <SPECTRUM TYPE>  (1039) 
MS1

>  <INSTRUMENT TYPE>  (1039) 
EI-B

>  <INSTRUMENT>  (1039) 
HITACHI RMU-6M

>  <ION MODE>  (1039) 
P

>  <INCHIKEY>  (1039) 
LPEKGGXMPWTOCB-UHFFFAOYSA-N

>  <FORMULA>  (1039) 
C4H8O3

>  <EXACT MASS>  (1039) 
104.04734411599999

>  <MW>  (1039) 
104

>  <ID>  (1039) 
JP010596

>  <CONTRIBUTOR>  (1039) 
University of Tokyo Team, {Faculty of Engineering, University of Tokyo

>  <COMMENT>  (1039) 
SMILES=COC(=O)C(C)O
InChI=InChI=1S/C4H8O3/c1-3(5)4(6)7-2/h3,5H,1-2H3
computed SMILES=O=C(OC)C(O)C
accession=JP010596
date=2016.01.19 (Created 2008.10.21, modified 2011.05.06)
author=YAMAMOTO M, DEP. CHEMISTRY, FAC. SCIENCE, NARA WOMEN'S UNIV.
license=CC BY-NC-SA
exact mass=104.04734
ionization energy=70 eV
ion type=[M]+*
computed spectral entropy=1.4118391406284414
computed normalized entropy=0.4983172705967701
SPLASH=splash10-0002-9000000000-4535fd4d0690feab67ad
submitter=submitter = University of Tokyo Team (Faculty of Engineering, University of Tokyo)
MoNA Rating=3.75

>  <NUM PEAKS>  (1039) 
17

>  <MASS SPECTRAL PEAKS>  (1039) 
15 7.2
26 1.2
27 7
28 0.1
29 7.8
30 1.4
31 2
33 1.72
42 1.2
43 9
44 2
45 99.99
46 2.2
59 2.5
61 3.3
89 0.12
104 0.4

$$$$

     RDKit          2D

 14 14  0  0  0  0  0  0  0  0999 V2000
    0.0000    3.0000    0.0000 C   0  0  0  0  0  0  0  0  0  0  0  0
    2.5989    1.5002    0.0000 C   0  0  0  0  0  0  0  0  0  0  0  0
    2.5989   -1.5002    0.0000 C   0  0  0  0  0  0  0  0  0  0  0  0
   -0.0000   -3.0000    0.0000 C   0  0  0  0  0  0  0  0  0  0  0  0
   -5.1970   -1.5006    0.0000 C   0  0  0  0  0  0  0  0  0  0  0  0
   -1.3000    0.7500    0.0000 C   0  0  0  0  0  0  0  0  0  0  0  0
    0.0000    1.5000    0.0000 C   0  0  0  0  0  0  0  0  0  0  0  0
    1.3000    0.7500    0.0000 C   0  0  0  0  0  0  0  0  0  0  0  0
    1.3000   -0.7500    0.0000 C   0  0  0  0  0  0  0  0  0  0  0  0
   -0.0000   -1.5000    0.0000 C   0  0  0  0  0  0  0  0  0  0  0  0
   -3.8981   -0.7504    0.0000 C   0  0  0  0  0  0  0  0  0  0  0  0
   -1.3000   -0.7500    0.0000 C   0  0  0  0  0  0  0  0  0  0  0  0
   -2.5989   -1.5002    0.0000 N   0  0  0  0  0  0  0  0  0  0  0  0
   -3.8983    0.7496    0.0000 O   0  0  0  0  0  0  0  0  0  0  0  0
  7  1  1  0
  7  6  2  0
  8  2  1  0
  8  7  1  0
  9  3  1  0
  9  8  2  0
 10  4  1  0
 10  9  1  0
 11  5  1  0
 12  6  1  0
 12 10  2  0
 13 11  2  3
 13 12  1  0
 14 11  1  0
M  END
>  <NAME>  (1040) 
2,3,4,5-TETRAMETHYLACETANILIDE

>  <SYNONYMS>  (1040) 


>  <SPECTRUM TYPE>  (1040) 
MS1

>  <INSTRUMENT TYPE>  (1040) 
EI-B

>  <INSTRUMENT>  (1040) 
HITACHI M-80

>  <ION MODE>  (1040) 
P

>  <INCHIKEY>  (1040) 
XVFQGGMVGUEXOX-UHFFFAOYSA-N

>  <FORMULA>  (1040) 
C12H17NO

>  <EXACT MASS>  (1040) 
191.131014164

>  <MW>  (1040) 
191

>  <ID>  (1040) 
JP010595

>  <CONTRIBUTOR>  (1040) 
University of Tokyo Team, {Faculty of Engineering, University of Tokyo

>  <COMMENT>  (1040) 
SMILES=CC(=O)Nc(c1)c(C)c(C)c(C)c(C)1
InChI=InChI=1S/C12H17NO/c1-7-6-12(13-11(5)14)10(4)9(3)8(7)2/h6H,1-5H3,(H,13,14)
computed SMILES=OC(=NC=1C=C(C(=C(C1C)C)C)C)C
accession=JP010595
date=2016.01.19 (Created 2008.10.21, modified 2011.05.06)
author=NARA WOMEN'S UNIVERSITY
license=CC BY-NC-SA
exact mass=191.13101
ionization energy=70 eV
ion type=[M]+*
computed spectral entropy=2.0262635530455473
computed normalized entropy=0.6462341862254397
SPLASH=splash10-0005-0900000000-80c4d9b941a455996923
submitter=submitter = University of Tokyo Team (Faculty of Engineering, University of Tokyo)
MoNA Rating=3.75

>  <NUM PEAKS>  (1040) 
23

>  <MASS SPECTRAL PEAKS>  (1040) 
43 4.77
79 1.02
91 3.14
105 2.8
117 1.57
119 1.23
120 1.16
121 1.01
132 3
133 2.66
134 45.21
135 6.41
146 1.02
147 1.56
148 29.94
149 94
150 12.91
160 1.09
175 1.02
176 3.34
191 99.99
192 17.32
193 1.7

$$$$

     RDKit          2D

 14 14  0  0  0  0  0  0  0  0999 V2000
    0.0000    3.0000    0.0000 C   0  0  0  0  0  0  0  0  0  0  0  0
   -2.5989   -1.5002    0.0000 C   0  0  0  0  0  0  0  0  0  0  0  0
    2.5989    1.5002    0.0000 C   0  0  0  0  0  0  0  0  0  0  0  0
   -0.0000   -3.0000    0.0000 C   0  0  0  0  0  0  0  0  0  0  0  0
    5.1970   -1.5006    0.0000 C   0  0  0  0  0  0  0  0  0  0  0  0
   -1.3000    0.7500    0.0000 C   0  0  0  0  0  0  0  0  0  0  0  0
    0.0000    1.5000    0.0000 C   0  0  0  0  0  0  0  0  0  0  0  0
   -1.3000   -0.7500    0.0000 C   0  0  0  0  0  0  0  0  0  0  0  0
    1.3000    0.7500    0.0000 C   0  0  0  0  0  0  0  0  0  0  0  0
   -0.0000   -1.5000    0.0000 C   0  0  0  0  0  0  0  0  0  0  0  0
    3.8981   -0.7504    0.0000 C   0  0  0  0  0  0  0  0  0  0  0  0
    1.3000   -0.7500    0.0000 C   0  0  0  0  0  0  0  0  0  0  0  0
    2.5989   -1.5002    0.0000 N   0  0  0  0  0  0  0  0  0  0  0  0
    3.8983    0.7496    0.0000 O   0  0  0  0  0  0  0  0  0  0  0  0
  7  1  1  0
  7  6  2  0
  8  2  1  0
  8  6  1  0
  9  3  1  0
  9  7  1  0
 10  4  1  0
 10  8  2  0
 11  5  1  0
 12  9  2  0
 12 10  1  0
 13 11  2  3
 13 12  1  0
 14 11  1  0
M  END
>  <NAME>  (1041) 
2,3,5,6-TETRAMETHYLACETANILIDE

>  <SYNONYMS>  (1041) 


>  <SPECTRUM TYPE>  (1041) 
MS1

>  <INSTRUMENT TYPE>  (1041) 
EI-B

>  <INSTRUMENT>  (1041) 
HITACHI M-80

>  <ION MODE>  (1041) 
P

>  <INCHIKEY>  (1041) 
KXMBEFKNGACUMW-UHFFFAOYSA-N

>  <FORMULA>  (1041) 
C12H17NO

>  <EXACT MASS>  (1041) 
191.131014164

>  <MW>  (1041) 
191

>  <ID>  (1041) 
JP010594

>  <CONTRIBUTOR>  (1041) 
University of Tokyo Team, {Faculty of Engineering, University of Tokyo

>  <COMMENT>  (1041) 
SMILES=CC(=O)Nc(c(C)1)c(C)c(C)cc(C)1
InChI=InChI=1S/C12H17NO/c1-7-6-8(2)10(4)12(9(7)3)13-11(5)14/h6H,1-5H3,(H,13,14)
computed SMILES=OC(=NC=1C(=C(C=C(C1C)C)C)C)C
accession=JP010594
date=2016.01.19 (Created 2008.10.21, modified 2011.05.06)
author=NARA WOMEN'S UNIVERSITY
license=CC BY-NC-SA
exact mass=191.13101
ionization energy=70 eV
ion type=[M]+*
computed spectral entropy=2.962676844755649
computed normalized entropy=0.7694969521271767
SPLASH=splash10-0005-1900000000-0b5e55aa9d6561598abe
submitter=submitter = University of Tokyo Team (Faculty of Engineering, University of Tokyo)
MoNA Rating=3.75

>  <NUM PEAKS>  (1041) 
47

>  <MASS SPECTRAL PEAKS>  (1041) 
15 4.51
27 2.9
39 5.63
42 3.99
43 23.73
51 3.2
53 3.39
63 1.92
65 4.18
77 7.52
79 4.84
91 13.31
92 1.82
93 3.2
103 3.03
104 1.91
105 10.21
106 3.91
107 2.34
115 5.52
116 3.6
117 7.02
118 3.11
119 3.6
120 2.41
121 2.3
130 3.1
131 4.09
132 11.82
133 7.21
134 48.83
135 6.72
146 3.49
147 4.11
148 71.03
149 99.99
150 14.83
160 1.5
161 1.32
174 3.22
175 1.61
176 16.82
177 2.09
189 2.31
190 1.11
191 76.72
192 11.5

$$$$

     RDKit          2D

 10 10  0  0  0  0  0  0  0  0999 V2000
   -0.7914   -1.9439    0.0000 C   0  0  0  0  0  0  0  0  0  0  0  0
    1.3273   -1.8381    0.0000 C   0  0  0  0  0  0  0  0  0  0  0  0
    1.2215    0.2806    0.0000 C   0  0  0  0  0  0  0  0  0  0  0  0
   -2.3569   -0.1368    0.0000 C   0  0  0  0  0  0  0  0  0  0  0  0
   -0.8972    0.1748    0.0000 C   0  0  0  0  0  0  0  0  0  0  0  0
   -3.1069    1.1622    0.0000 C   0  0  0  0  0  0  0  0  0  0  0  0
    0.2151   -0.8317    0.0000 C   0  0  0  0  0  0  0  0  0  0  0  0
   -4.5986    1.3197    0.0000 N   0  0  0  0  0  0  0  0  0  0  0  0
   -2.1072    2.2706    0.0000 N   0  0  0  0  0  0  0  0  0  0  0  0
   -0.7314    1.6677    0.0000 O   0  0  0  0  0  0  0  0  0  0  0  0
  5  4  2  0
  6  4  1  0
  7  1  1  0
  7  2  1  0
  7  3  1  0
  7  5  1  0
  8  6  2  0
  9  6  1  0
 10  5  1  0
 10  9  1  0
M  END
>  <NAME>  (1042) 
3-AMINO-5-TERT-BUTYLISOXAZOLE

>  <SYNONYMS>  (1042) 


>  <SPECTRUM TYPE>  (1042) 
MS1

>  <INSTRUMENT TYPE>  (1042) 
EI-B

>  <INSTRUMENT>  (1042) 
HITACHI M-80

>  <ION MODE>  (1042) 
P

>  <INCHIKEY>  (1042) 
GGXGVZJHUKEJHO-UHFFFAOYSA-N

>  <FORMULA>  (1042) 
C7H12N2O

>  <EXACT MASS>  (1042) 
140.094963004

>  <MW>  (1042) 
140

>  <ID>  (1042) 
JP010593

>  <CONTRIBUTOR>  (1042) 
University of Tokyo Team, {Faculty of Engineering, University of Tokyo

>  <COMMENT>  (1042) 
SMILES=Nc(n1)cc(o1)C(C)(C)C
InChI=InChI=1S/C7H12N2O/c1-7(2,3)5-4-6(8)9-10-5/h4H,1-3H3,(H2,8,9)
computed SMILES=N=C1C=C(ON1)C(C)(C)C
accession=JP010593
date=2016.01.19 (Created 2008.10.21, modified 2011.05.06)
author=NARA WOMEN'S UNIVERSITY
license=CC BY-NC-SA
exact mass=140.09496
ionization energy=70 eV
ion type=[M]+*
computed spectral entropy=3.0288283734938535
computed normalized entropy=0.8103520864117812
SPLASH=splash10-004l-9600000000-d92d35448fe8cbbe6744
submitter=submitter = University of Tokyo Team (Faculty of Engineering, University of Tokyo)
MoNA Rating=3.75

>  <NUM PEAKS>  (1042) 
42

>  <MASS SPECTRAL PEAKS>  (1042) 
18 8.19
27 7
28 18.11
29 2.73
30 2.71
32 2.2
39 11.29
40 2.51
41 18.58
42 6.63
43 11.57
44 3.4
51 2.23
52 1.68
53 6.8
54 3.29
55 14.03
56 4.19
57 11.11
58 3.09
65 1.7
66 1.69
67 4.9
68 4.49
69 3.81
70 3.9
77 1.71
80 6.77
81 5.1
82 4.09
83 16.4
84 2.91
94 4.63
95 3.32
96 2.71
97 8.89
98 2.82
108 2.78
125 99.99
126 7.2
140 46.53
141 4.7

$$$$

     RDKit          2D

 11 11  0  0  0  0  0  0  0  0999 V2000
    2.7008   -2.8520    0.0000 C   0  0  0  0  0  0  0  0  0  0  0  0
    1.5886   -1.8455    0.0000 C   0  0  0  0  0  0  0  0  0  0  0  0
    0.1608   -2.3055    0.0000 C   0  0  0  0  0  0  0  0  0  0  0  0
   -0.9514   -1.2990    0.0000 C   0  0  0  0  0  0  0  0  0  0  0  0
   -2.3791   -1.7590    0.0000 C   0  0  0  0  0  0  0  0  0  0  0  0
   -4.9511   -1.0642    0.0000 C   0  0  0  0  0  0  0  0  0  0  0  0
   -3.4913   -0.7525    0.0000 C   0  0  0  0  0  0  0  0  0  0  0  0
   -5.7011    0.2349    0.0000 C   0  0  0  0  0  0  0  0  0  0  0  0
   -7.1928    0.3923    0.0000 N   0  0  0  0  0  0  0  0  0  0  0  0
   -4.7013    1.3432    0.0000 N   0  0  0  0  0  0  0  0  0  0  0  0
   -3.3256    0.7404    0.0000 O   0  0  0  0  0  0  0  0  0  0  0  0
  2  1  1  0
  3  2  1  0
  4  3  1  0
  5  4  1  0
  7  5  1  0
  7  6  2  0
  8  6  1  0
  9  8  2  0
 10  8  1  0
 11  7  1  0
 11 10  1  0
M  END
>  <NAME>  (1043) 
3-AMINO-5-PENTYLISOXAZOLE

>  <SYNONYMS>  (1043) 


>  <SPECTRUM TYPE>  (1043) 
MS1

>  <INSTRUMENT TYPE>  (1043) 
EI-B

>  <INSTRUMENT>  (1043) 
HITACHI M-80

>  <ION MODE>  (1043) 
P

>  <INCHIKEY>  (1043) 
OUYAUCZSSFLZIX-UHFFFAOYSA-N

>  <FORMULA>  (1043) 
C8H14N2O

>  <EXACT MASS>  (1043) 
154.110613068

>  <MW>  (1043) 
154

>  <ID>  (1043) 
JP010592

>  <CONTRIBUTOR>  (1043) 
University of Tokyo Team, {Faculty of Engineering, University of Tokyo

>  <COMMENT>  (1043) 
SMILES=CCCCCc(o1)cc(N)n1
InChI=InChI=1S/C8H14N2O/c1-2-3-4-5-7-6-8(9)10-11-7/h6H,2-5H2,1H3,(H2,9,10)
computed SMILES=N=C1C=C(ON1)CCCCC
accession=JP010592
date=2016.01.19 (Created 2008.10.21, modified 2011.05.06)
author=NARA WOMEN'S UNIVERSITY
license=CC BY-NC-SA
exact mass=154.11061
ionization energy=70 eV
ion type=[M]+*
computed spectral entropy=3.3543919627868215
computed normalized entropy=0.8333164951791353
SPLASH=splash10-002e-9200000000-eebb1ff8ee52e403e2b7
submitter=submitter = University of Tokyo Team (Faculty of Engineering, University of Tokyo)
MoNA Rating=3.75

>  <NUM PEAKS>  (1043) 
56

>  <MASS SPECTRAL PEAKS>  (1043) 
15 1.23
18 2.63
26 3.46
27 33.89
28 30.77
29 34.31
30 6.75
38 2.55
39 23.12
40 5.51
41 42.37
42 19.09
43 27.56
44 8.14
50 1.15
51 2.54
52 3.13
53 7.16
54 12.83
55 30.52
56 11.52
57 5.67
58 7.32
65 2.14
66 6.42
67 13
68 6.01
69 6.58
70 4.52
71 1.97
74 1.23
79 1.98
80 6.09
81 3.21
82 1.32
83 6.42
84 5.76
85 5.1
94 1.73
95 2.88
96 1.49
97 13.82
98 99.99
99 6.01
109 1.4
110 1.07
111 45
112 12.82
113 1.15
120 2.63
122 1.48
125 2.96
137 7.24
153 1.23
154 41.13
155 7.16

$$$$

     RDKit          2D

 11 11  0  0  0  0  0  0  0  0999 V2000
    6.3801    4.3545    0.0000 C   0  0  0  0  0  0  0  0  0  0  0  0
    5.4979    3.1414    0.0000 C   0  0  0  0  0  0  0  0  0  0  0  0
    4.0061    3.2988    0.0000 C   0  0  0  0  0  0  0  0  0  0  0  0
    3.1239    2.0857    0.0000 C   0  0  0  0  0  0  0  0  0  0  0  0
    1.6322    2.2431    0.0000 C   0  0  0  0  0  0  0  0  0  0  0  0
   -0.7500    1.0300    0.0000 C   0  0  0  0  0  0  0  0  0  0  0  0
    0.7500    1.0300    0.0000 C   0  0  0  0  0  0  0  0  0  0  0  0
   -1.2100   -0.3900    0.0000 C   0  0  0  0  0  0  0  0  0  0  0  0
   -2.6377   -0.8500    0.0000 N   0  0  0  0  0  0  0  0  0  0  0  0
    1.2100   -0.3900    0.0000 N   0  0  0  0  0  0  0  0  0  0  0  0
    0.0000   -1.2800    0.0000 O   0  0  0  0  0  0  0  0  0  0  0  0
  2  1  1  0
  3  2  1  0
  4  3  1  0
  5  4  1  0
  7  5  1  0
  7  6  1  0
  8  6  2  0
  9  8  1  0
 10  7  2  0
 11  8  1  0
 11 10  1  0
M  END
>  <NAME>  (1044) 
5-AMINO-3-PENTYLISOXAZOLE

>  <SYNONYMS>  (1044) 


>  <SPECTRUM TYPE>  (1044) 
MS1

>  <INSTRUMENT TYPE>  (1044) 
EI-B

>  <INSTRUMENT>  (1044) 
HITACHI M-80

>  <ION MODE>  (1044) 
P

>  <INCHIKEY>  (1044) 
SWUFZCKNJXQAAH-UHFFFAOYSA-N

>  <FORMULA>  (1044) 
C8H14N2O

>  <EXACT MASS>  (1044) 
154.110613068

>  <MW>  (1044) 
154

>  <ID>  (1044) 
JP010591

>  <CONTRIBUTOR>  (1044) 
University of Tokyo Team, {Faculty of Engineering, University of Tokyo

>  <COMMENT>  (1044) 
SMILES=CCCCCc(n1)cc(N)o1
InChI=InChI=1S/C8H14N2O/c1-2-3-4-5-7-6-8(9)11-10-7/h6H,2-5,9H2,1H3
computed SMILES=N=1OC(N)=CC1CCCCC
accession=JP010591
date=2016.01.19 (Created 2008.10.21, modified 2011.05.06)
author=NARA WOMEN'S UNIVERSITY
license=CC BY-NC-SA
exact mass=154.11061
ionization energy=70 eV
ion type=[M]+*
computed spectral entropy=3.6111879878084094
computed normalized entropy=0.8716076657621938
SPLASH=splash10-002f-9100000000-53cbaf208d79ea7c004a
submitter=submitter = University of Tokyo Team (Faculty of Engineering, University of Tokyo)
MoNA Rating=3.75

>  <NUM PEAKS>  (1044) 
63

>  <MASS SPECTRAL PEAKS>  (1044) 
15 5.19
16 1.5
17 3.11
18 12.03
26 10.62
27 69.58
28 45.72
29 65.31
30 12.49
38 5.01
39 51.03
40 14.04
41 93.42
42 66.61
43 65.82
44 38
50 2.13
51 5.4
52 11.23
53 25
54 53.69
55 50.53
56 27.47
57 10.61
58 3.92
59 4.1
65 3.01
66 7.22
67 17.3
68 25.53
69 6.59
70 8
71 7.03
79 2.71
80 14.48
81 12.91
82 16.49
83 22.4
84 12.43
85 5.81
86 2.2
93 1.62
94 9.1
95 5.31
96 7.19
97 33.4
98 99.99
99 6.43
100 2.92
108 52.21
109 20.63
110 15.71
111 27.6
112 8.49
122 10.63
125 23.5
126 3.71
136 2.52
137 3.49
138 2.9
139 3.01
154 7.31
155 2.99

$$$$

     RDKit          2D

 10 10  0  0  0  0  0  0  0  0999 V2000
    2.5992   -0.7500    0.0000 C   0  0  0  0  0  0  0  0  0  0  0  0
    1.2992   -1.5000    0.0000 C   0  0  0  0  0  0  0  0  0  0  0  0
    1.2992    1.5000    0.0000 C   0  0  0  0  0  0  0  0  0  0  0  0
   -1.2998    1.5002    0.0000 C   0  0  0  0  0  0  0  0  0  0  0  0
   -0.0008    0.7500    0.0000 C   0  0  0  0  0  0  0  0  0  0  0  0
    2.5992    0.7500    0.0000 C   0  0  0  0  0  0  0  0  0  0  0  0
   -0.0008   -0.7500    0.0000 C   0  0  0  0  0  0  0  0  0  0  0  0
    3.8981    1.5002    0.0000 Cl  0  0  0  0  0  0  0  0  0  0  0  0
   -2.5989    0.7504    0.0000 O   0  0  0  0  0  0  0  0  0  0  0  0
   -1.2998   -1.5002    0.0000 O   0  0  0  0  0  0  0  0  0  0  0  0
  2  1  2  0
  5  3  1  0
  5  4  1  0
  6  1  1  0
  6  3  2  0
  7  2  1  0
  7  5  2  0
  8  6  1  0
  9  4  1  0
 10  7  1  0
M  END
>  <NAME>  (1045) 
4-CHLORO-2-HYDROXYMETHYLPHENOL

>  <SYNONYMS>  (1045) 


>  <SPECTRUM TYPE>  (1045) 
MS1

>  <INSTRUMENT TYPE>  (1045) 
EI-B

>  <INSTRUMENT>  (1045) 
HITACHI M-80

>  <ION MODE>  (1045) 
P

>  <INCHIKEY>  (1045) 
AFPSETMCMFRVPG-UHFFFAOYSA-N

>  <FORMULA>  (1045) 
C7H7ClO2

>  <EXACT MASS>  (1045) 
158.013457144

>  <MW>  (1045) 
158

>  <ID>  (1045) 
JP010590

>  <CONTRIBUTOR>  (1045) 
University of Tokyo Team, {Faculty of Engineering, University of Tokyo

>  <COMMENT>  (1045) 
SMILES=OCc(c1)c(O)ccc(Cl)1
InChI=InChI=1S/C7H7ClO2/c8-6-1-2-7(10)5(3-6)4-9/h1-3,9-10H,4H2
computed SMILES=ClC1=CC=C(O)C(=C1)CO
accession=JP010590
date=2016.01.19 (Created 2008.10.21, modified 2011.05.06)
author=NARA WOMEN'S UNIVERSITY
license=CC BY-NC-SA
exact mass=158.01346
ionization energy=70 eV
ion type=[M]+*
computed spectral entropy=2.9411435979289684
computed normalized entropy=0.814514112223396
SPLASH=splash10-0a4i-3900000000-b76af3aef6b7b013be17
submitter=submitter = University of Tokyo Team (Faculty of Engineering, University of Tokyo)
MoNA Rating=3.75

>  <NUM PEAKS>  (1045) 
37

>  <MASS SPECTRAL PEAKS>  (1045) 
32 2.49
37 4.61
38 6.4
46 1.98
49 2.73
50 5.41
51 3.09
53 6.8
61 5.72
62 9.61
63 19.62
64 9.18
65 19.64
66 3.4
73 11.81
74 4.43
75 8.51
99 17.01
100 4.44
101 5.31
102 1.42
110 20.62
111 1.7
126 1.49
127 11.21
128 7.72
129 4.4
130 2.61
138 15.92
139 1.3
140 5.31
154 1.72
155 61.7
156 99.99
157 37.9
158 36.91
159 5.2

$$$$

     RDKit          2D

 13 14  0  0  0  0  0  0  0  0999 V2000
    3.6529    2.9461    0.0000 C   0  0  0  0  0  0  0  0  0  0  0  0
   -2.3100    0.7500    0.0000 C   0  0  0  0  0  0  0  0  0  0  0  0
   -2.3100   -0.7500    0.0000 C   0  0  0  0  0  0  0  0  0  0  0  0
   -1.0100    1.5000    0.0000 C   0  0  0  0  0  0  0  0  0  0  0  0
   -1.0100   -1.5000    0.0000 C   0  0  0  0  0  0  0  0  0  0  0  0
    4.1000   -0.0000    0.0000 C   0  0  0  0  0  0  0  0  0  0  0  0
    0.2900    0.7500    0.0000 C   0  0  0  0  0  0  0  0  0  0  0  0
    0.2900   -0.7500    0.0000 C   0  0  0  0  0  0  0  0  0  0  0  0
    2.6000   -0.0000    0.0000 C   0  0  0  0  0  0  0  0  0  0  0  0
    1.7200    1.2100    0.0000 C   0  0  0  0  0  0  0  0  0  0  0  0
    1.7200   -1.2100    0.0000 N   0  0  0  0  0  0  0  0  0  0  0  0
    4.8500   -1.2990    0.0000 O   0  0  0  0  0  0  0  0  0  0  0  0
    2.1853    2.6360    0.0000 S   0  0  0  0  0  0  0  0  0  0  0  0
  3  2  2  0
  4  2  1  0
  5  3  1  0
  7  4  2  0
  8  5  2  0
  8  7  1  0
  9  6  1  0
 10  7  1  0
 10  9  2  0
 11  8  1  0
 11  9  1  0
 12  6  1  0
 13  1  1  0
 13 10  1  0
M  END
>  <NAME>  (1046) 
2-HYDROXYMETHYL-3-(METHYLTHIO)INDOLE

>  <SYNONYMS>  (1046) 


>  <SPECTRUM TYPE>  (1046) 
MS1

>  <INSTRUMENT TYPE>  (1046) 
EI-B

>  <INSTRUMENT>  (1046) 
HITACHI M-80

>  <ION MODE>  (1046) 
P

>  <INCHIKEY>  (1046) 
JRAOFUGUXXJWOW-UHFFFAOYSA-N

>  <FORMULA>  (1046) 
C10H11NOS

>  <EXACT MASS>  (1046) 
193.056134972

>  <MW>  (1046) 
193

>  <ID>  (1046) 
JP010589

>  <CONTRIBUTOR>  (1046) 
University of Tokyo Team, {Faculty of Engineering, University of Tokyo

>  <COMMENT>  (1046) 
SMILES=CSC1=C(NC2=CC=CC=C21)CO
InChI=InChI=1S/C10H11NOS/c1-13-10-7-4-2-3-5-8(7)11-9(10)6-12/h2-5,11-12H,6H2,1H3
computed SMILES=OCC=1NC=2C=CC=CC2C1SC
accession=JP010589
date=2016.01.19 (Created 2008.10.21, modified 2011.05.06)
author=NARA WOMEN'S UNIVERSITY
license=CC BY-NC-SA
exact mass=193.05613
ionization energy=70 eV
ion type=[M]+*
computed spectral entropy=3.4327159220751127
computed normalized entropy=0.8135346969183561
SPLASH=splash10-00mo-2900000000-f503ab4f83083f0521af
submitter=submitter = University of Tokyo Team (Faculty of Engineering, University of Tokyo)
MoNA Rating=3.75

>  <NUM PEAKS>  (1046) 
68

>  <MASS SPECTRAL PEAKS>  (1046) 
15 5.72
28 8.1
31 5.79
32 1.61
39 6.08
41 2.63
43 1.42
45 9.92
46 1.71
47 1.9
50 3.32
51 5.34
52 2.09
63 5.71
64 1.52
65 2.1
74 2.11
75 3.42
76 3.8
77 9.01
78 2.22
88 1.5
89 10.92
90 8.01
91 4.73
93 2.27
94 2.25
101 1.73
102 3.09
103 1.58
104 2.6
115 1.49
116 10.11
117 68.89
118 11.62
119 1.72
120 6.81
121 6.13
128 2.68
129 1.71
130 4.79
131 4.6
132 5.21
133 3.08
134 3.71
142 2.11
143 1.49
144 3.4
145 1.51
146 4.19
148 7.88
149 5.71
150 5.83
158 1.48
160 20.09
161 4.2
162 3.23
174 3.3
175 24.63
176 10.02
177 4.68
178 39.31
179 4.3
180 1.81
192 2.42
193 99.99
194 12.32
195 5

$$$$

     RDKit          2D

  9  9  0  0  0  0  0  0  0  0999 V2000
   -1.2100   -0.3900    0.0000 C   0  0  0  0  0  0  0  0  0  0  0  0
   -0.7500    1.0300    0.0000 C   0  0  0  0  0  0  0  0  0  0  0  0
    0.7500    1.0300    0.0000 C   0  0  0  0  0  0  0  0  0  0  0  0
    1.6322    2.2431    0.0000 Cl  0  0  0  0  0  0  0  0  0  0  0  0
    1.2100   -0.3900    0.0000 N   0  0  0  0  0  0  0  0  0  0  0  0
   -1.6322    2.2431    0.0000 N   0  0  0  0  0  0  0  0  0  0  0  0
   -3.1239    2.0857    0.0000 O   0  0  0  0  0  0  0  0  0  0  0  0
   -1.0227    3.6137    0.0000 O   0  0  0  0  0  0  0  0  0  0  0  0
    0.0000   -1.2800    0.0000 O   0  0  0  0  0  0  0  0  0  0  0  0
  2  1  2  0
  3  2  1  0
  4  3  1  0
  5  3  2  0
  6  2  1  0
  7  6  1  0
  8  6  2  0
  9  1  1  0
  9  5  1  0
M  CHG  2   6   1   7  -1
M  END
>  <NAME>  (1047) 
3-CHLORO-4-NITROISOXAZOLE

>  <SYNONYMS>  (1047) 


>  <SPECTRUM TYPE>  (1047) 
MS1

>  <INSTRUMENT TYPE>  (1047) 
EI-B

>  <INSTRUMENT>  (1047) 
HITACHI M-80

>  <ION MODE>  (1047) 
P

>  <INCHIKEY>  (1047) 
NQLCWYZQXQDQGZ-UHFFFAOYSA-N

>  <FORMULA>  (1047) 
C3HClN2O3

>  <EXACT MASS>  (1047) 
147.96756957199997

>  <MW>  (1047) 
148

>  <ID>  (1047) 
JP010588

>  <CONTRIBUTOR>  (1047) 
University of Tokyo Team, {Faculty of Engineering, University of Tokyo

>  <COMMENT>  (1047) 
SMILES=[O-1][N+1](=O)c(c1)c(Cl)no1
InChI=InChI=1S/C3HClN2O3/c4-3-2(6(7)8)1-9-5-3/h1H
computed SMILES=O=N(=O)C1=CON=C1Cl
accession=JP010588
date=2016.01.19 (Created 2008.10.21, modified 2011.05.06)
author=NARA WOMEN'S UNIVERSITY
license=CC BY-NC-SA
exact mass=147.96757
ionization energy=70 eV
ion type=[M]+*
computed spectral entropy=2.8155319163878745
computed normalized entropy=0.7440250591967797
SPLASH=splash10-0032-9200000000-ca7f3e9006e7d30aa5c4
submitter=submitter = University of Tokyo Team (Faculty of Engineering, University of Tokyo)
MoNA Rating=3.75

>  <NUM PEAKS>  (1047) 
44

>  <MASS SPECTRAL PEAKS>  (1047) 
12 2.4
16 1.31
24 1.19
25 1.21
27 2.23
28 10.72
29 88.3
30 99.99
32 1.41
35 4.87
36 2.2
37 5.29
38 13.61
39 11.1
41 2.73
43 5.58
45 1.22
46 12.77
47 25
49 8.48
51 1.68
54 2.08
61 2.47
62 6
63 4.39
64 1.6
66 1.19
67 3.68
68 2.21
69 6.21
70 1.38
72 10.91
73 5.79
74 23.16
76 6.53
87 2.08
101 2.32
102 4.91
103 2.48
104 1.29
148 71.43
149 3.67
150 21.43
151 1.11

$$$$

     RDKit          2D

 14 14  0  0  0  0  0  0  0  0999 V2000
   -1.3000   -0.7500    0.0000 C   0  0  0  0  0  0  0  0  0  0  0  0
    0.0000    1.5000    0.0000 C   0  0  0  0  0  0  0  0  0  0  0  0
    0.0000   -1.5000    0.0000 C   0  0  0  0  0  0  0  0  0  0  0  0
    1.3000    0.7500    0.0000 C   0  0  0  0  0  0  0  0  0  0  0  0
   -3.8981    0.7504    0.0000 C   0  0  0  0  0  0  0  0  0  0  0  0
   -5.1970    1.5006    0.0000 C   0  0  0  0  0  0  0  0  0  0  0  0
   -1.3000    0.7500    0.0000 C   0  0  0  0  0  0  0  0  0  0  0  0
    1.3000   -0.7500    0.0000 C   0  0  0  0  0  0  0  0  0  0  0  0
   -2.5989    1.5002    0.0000 C   0  0  0  0  0  0  0  0  0  0  0  0
   -6.4959    2.2508    0.0000 N   0  0  0  0  0  0  0  0  0  0  0  0
    2.5989   -1.5002    0.0000 N   0  0  0  0  0  0  0  0  0  0  0  0
   -2.5987    3.0002    0.0000 O   0  0  0  0  0  0  0  0  0  0  0  0
    3.8981   -0.7504    0.0000 O   0  0  0  0  0  0  0  0  0  0  0  0
    2.5987   -3.0002    0.0000 O   0  0  0  0  0  0  0  0  0  0  0  0
  3  1  2  0
  4  2  1  0
  6  5  1  0
  7  1  1  0
  7  2  2  0
  8  3  1  0
  8  4  2  0
  9  5  1  0
  9  7  1  0
 10  6  3  0
 11  8  1  0
 12  9  1  0
 13 11  1  0
 14 11  2  0
M  CHG  2  11   1  13  -1
M  END
>  <NAME>  (1048) 
BETA-HYDROXY-4-NITROBENZENEPROPANENITRILE

>  <SYNONYMS>  (1048) 


>  <SPECTRUM TYPE>  (1048) 
MS1

>  <INSTRUMENT TYPE>  (1048) 
EI-B

>  <INSTRUMENT>  (1048) 
HITACHI M-80

>  <ION MODE>  (1048) 
P

>  <INCHIKEY>  (1048) 
HJMGPNYFZRPELU-UHFFFAOYSA-N

>  <FORMULA>  (1048) 
C9H8N2O3

>  <EXACT MASS>  (1048) 
192.053492116

>  <MW>  (1048) 
192

>  <ID>  (1048) 
JP010587

>  <CONTRIBUTOR>  (1048) 
University of Tokyo Team, {Faculty of Engineering, University of Tokyo

>  <COMMENT>  (1048) 
SMILES=N#CCC(O)c(c1)ccc(c1)[N+1]([O-1])=O
cas=71312-64-6
InChI=InChI=1S/C9H8N2O3/c10-6-5-9(12)7-1-3-8(4-2-7)11(13)14/h1-4,9,12H,5H2
computed SMILES=N#CCC(O)C1=CC=C(C=C1)N(=O)=O
accession=JP010587
date=2016.01.19 (Created 2008.10.21, modified 2011.05.06)
author=NARA WOMEN'S UNIVERSITY
license=CC BY-NC-SA
exact mass=192.05349
ionization energy=70 eV
ion type=[M]+*
computed spectral entropy=2.8964581225523034
computed normalized entropy=0.7700888103419083
SPLASH=splash10-0udi-8900000000-6ba05615cd8c9851a2f7
submitter=submitter = University of Tokyo Team (Faculty of Engineering, University of Tokyo)
MoNA Rating=3.75

>  <NUM PEAKS>  (1048) 
43

>  <MASS SPECTRAL PEAKS>  (1048) 
27 1.99
28 2.95
29 2.82
30 6.17
38 1.99
39 5.83
40 4.33
41 4.57
42 2.54
46 2.09
50 8.67
51 15.33
52 4.57
62 1.62
63 3.71
64 1.13
65 3.65
66 6.68
68 1
74 3.37
75 4.12
76 5.78
77 20
78 14.66
79 1.15
89 1.28
91 2.95
92 1.11
94 13.58
101 1.99
102 1.09
104 2.2
105 11.42
106 13.32
107 1.69
122 5.91
128 1.86
136 1.71
150 2.52
151 1.24
152 99.99
153 7.66
193 0.96

$$$$

     RDKit          2D

 13 13  0  0  0  0  0  0  0  0999 V2000
    6.4961   -0.7711    0.0000 C   0  0  0  0  0  0  0  0  0  0  0  0
    2.5881    1.4764    0.0000 C   0  0  0  0  0  0  0  0  0  0  0  0
    1.2746   -0.7484    0.0000 C   0  0  0  0  0  0  0  0  0  0  0  0
    3.8727    0.7516    0.0000 C   0  0  0  0  0  0  0  0  0  0  0  0
    2.5991   -1.5426    0.0000 C   0  0  0  0  0  0  0  0  0  0  0  0
   -1.3089    0.7392    0.0000 C   0  0  0  0  0  0  0  0  0  0  0  0
   -2.6043    1.4956    0.0000 C   0  0  0  0  0  0  0  0  0  0  0  0
    1.2891    0.7264    0.0000 C   0  0  0  0  0  0  0  0  0  0  0  0
    3.8981   -0.7926    0.0000 C   0  0  0  0  0  0  0  0  0  0  0  0
   -0.0062    1.4828    0.0000 C   0  0  0  0  0  0  0  0  0  0  0  0
   -3.8996    2.2520    0.0000 N   0  0  0  0  0  0  0  0  0  0  0  0
    0.0012    2.9828    0.0000 O   0  0  0  0  0  0  0  0  0  0  0  0
    5.2033   -1.5318    0.0000 O   0  0  0  0  0  0  0  0  0  0  0  0
  4  2  2  0
  5  3  1  0
  7  6  1  0
  8  2  1  0
  8  3  2  0
  9  4  1  0
  9  5  2  0
 10  6  1  0
 10  8  1  0
 11  7  3  0
 12 10  1  0
 13  1  1  0
 13  9  1  0
M  END
>  <NAME>  (1049) 
BETA-HYDROXY-4-METHOXYBENZENEPROPANENITRILE

>  <SYNONYMS>  (1049) 


>  <SPECTRUM TYPE>  (1049) 
MS1

>  <INSTRUMENT TYPE>  (1049) 
EI-B

>  <INSTRUMENT>  (1049) 
HITACHI M-80

>  <ION MODE>  (1049) 
P

>  <INCHIKEY>  (1049) 
HQMWYPRJRGJPJV-UHFFFAOYSA-N

>  <FORMULA>  (1049) 
C10H11NO2

>  <EXACT MASS>  (1049) 
177.078978592

>  <MW>  (1049) 
177

>  <ID>  (1049) 
JP010586

>  <CONTRIBUTOR>  (1049) 
University of Tokyo Team, {Faculty of Engineering, University of Tokyo

>  <COMMENT>  (1049) 
SMILES=N#CCC(O)c(c1)ccc(OC)c1
cas=51241-27-1
InChI=InChI=1S/C10H11NO2/c1-13-9-4-2-8(3-5-9)10(12)6-7-11/h2-5,10,12H,6H2,1H3
computed SMILES=N#CCC(O)C1=CC=C(OC)C=C1
accession=JP010586
date=2016.01.19 (Created 2008.10.21, modified 2011.05.06)
author=NARA WOMEN'S UNIVERSITY
license=CC BY-NC-SA
exact mass=177.07898
ionization energy=70 eV
ion type=[M]+*
computed spectral entropy=2.7020799072497024
computed normalized entropy=0.7324934145615063
SPLASH=splash10-000i-7900000000-31f318f8e79b16d99037
submitter=submitter = University of Tokyo Team (Faculty of Engineering, University of Tokyo)
MoNA Rating=3.75

>  <NUM PEAKS>  (1049) 
40

>  <MASS SPECTRAL PEAKS>  (1049) 
15 4.11
18 2.24
27 1.5
28 5.48
29 2.55
32 1.31
38 1.99
39 7.48
40 3.93
41 4.05
43 1.12
50 2.93
51 5.11
52 1.31
53 1.43
62 1.43
63 4.74
64 3.3
65 6.42
66 7.17
68 1.06
76 1.12
77 20.75
78 3.3
79 2.87
89 1.06
91 1.44
92 3.86
93 1.11
94 17.07
95 1.12
107 1.68
109 20
110 1.25
122 1.24
135 5.48
136 1.37
137 99.99
138 7.35
177 8.91

$$$$

     RDKit          2D

 12 12  0  0  0  0  0  0  0  0999 V2000
   -2.5989   -1.5002    0.0000 C   0  0  0  0  0  0  0  0  0  0  0  0
   -1.3000    0.7500    0.0000 C   0  0  0  0  0  0  0  0  0  0  0  0
   -0.0000   -1.5000    0.0000 C   0  0  0  0  0  0  0  0  0  0  0  0
    0.0000    1.5000    0.0000 C   0  0  0  0  0  0  0  0  0  0  0  0
    1.3000   -0.7500    0.0000 C   0  0  0  0  0  0  0  0  0  0  0  0
    3.8981    0.7504    0.0000 C   0  0  0  0  0  0  0  0  0  0  0  0
    5.1970    1.5006    0.0000 C   0  0  0  0  0  0  0  0  0  0  0  0
   -1.3000   -0.7500    0.0000 C   0  0  0  0  0  0  0  0  0  0  0  0
    1.3000    0.7500    0.0000 C   0  0  0  0  0  0  0  0  0  0  0  0
    2.5989    1.5002    0.0000 C   0  0  0  0  0  0  0  0  0  0  0  0
    6.4959    2.2508    0.0000 N   0  0  0  0  0  0  0  0  0  0  0  0
    2.5987    3.0002    0.0000 O   0  0  0  0  0  0  0  0  0  0  0  0
  4  2  2  0
  5  3  1  0
  7  6  1  0
  8  1  1  0
  8  2  1  0
  8  3  2  0
  9  4  1  0
  9  5  2  0
 10  6  1  0
 10  9  1  0
 11  7  3  0
 12 10  1  0
M  END
>  <NAME>  (1050) 
BETA-HYDROXY-4-METHYLBENZENEPROPANENITRILE

>  <SYNONYMS>  (1050) 


>  <SPECTRUM TYPE>  (1050) 
MS1

>  <INSTRUMENT TYPE>  (1050) 
EI-B

>  <INSTRUMENT>  (1050) 
HITACHI M-80

>  <ION MODE>  (1050) 
P

>  <INCHIKEY>  (1050) 
HTMRHSQTWGSYKW-UHFFFAOYSA-N

>  <FORMULA>  (1050) 
C10H11NO

>  <EXACT MASS>  (1050) 
161.084063972

>  <MW>  (1050) 
161

>  <ID>  (1050) 
JP010585

>  <CONTRIBUTOR>  (1050) 
University of Tokyo Team, {Faculty of Engineering, University of Tokyo

>  <COMMENT>  (1050) 
SMILES=N#CCC(O)c(c1)ccc(C)c1
InChI=InChI=1S/C10H11NO/c1-8-2-4-9(5-3-8)10(12)6-7-11/h2-5,10,12H,6H2,1H3
computed SMILES=N#CCC(O)C1=CC=C(C=C1)C
accession=JP010585
date=2016.01.19 (Created 2008.10.21, modified 2011.05.06)
author=NARA WOMEN'S UNIVERSITY
license=CC BY-NC-SA
exact mass=161.08406
ionization energy=70 eV
ion type=[M]+*
computed spectral entropy=2.4371720847989717
computed normalized entropy=0.7394698778746444
SPLASH=splash10-00dl-9700000000-8359e13b66ca2714cae0
submitter=submitter = University of Tokyo Team (Faculty of Engineering, University of Tokyo)
MoNA Rating=3.75

>  <NUM PEAKS>  (1050) 
27

>  <MASS SPECTRAL PEAKS>  (1050) 
28 3.7
38 1.64
39 11.01
40 4.93
41 6.74
50 3.2
51 7.07
53 1.65
63 6.33
64 1.56
65 12.82
66 1.15
77 28.18
78 4.52
89 3.62
90 1.64
91 11.74
92 3.7
93 41
94 3.04
105 1.48
115 1.31
119 6.16
120 3.11
121 99.99
122 7.31
161 5.26

$$$$

     RDKit          2D

 45 51  0  0  1  0  0  0  0  0999 V2000
    3.2636   -5.1063    0.0000 C   0  0  0  0  0  0  0  0  0  0  0  0
   -5.3995   -0.3726    0.0000 C   0  0  0  0  0  0  0  0  0  0  0  0
   -3.1797   -5.5795    0.0000 C   0  0  0  0  0  0  0  0  0  0  0  0
   -3.5148    2.5114    0.0000 C   0  0  0  0  0  0  0  0  0  0  0  0
    1.0129   -5.4134    0.0000 C   0  0  0  0  0  0  0  0  0  0  0  0
    6.3837    3.1938    0.0000 C   0  0  0  0  0  0  0  0  0  0  0  0
   10.7580    0.8466    0.0000 C   0  0  0  0  0  0  0  0  0  0  0  0
   10.1283   -0.5158    0.0000 C   0  0  0  0  0  0  0  0  0  0  0  0
    9.8938    2.0736    0.0000 C   0  0  0  0  0  0  0  0  0  0  0  0
    8.6345   -0.6511    0.0000 C   0  0  0  0  0  0  0  0  0  0  0  0
    8.3999    1.9383    0.0000 C   0  0  0  0  0  0  0  0  0  0  0  0
   -3.5158   -0.4886    0.0000 C   0  0  0  0  0  0  0  0  0  0  0  0
    0.1242    1.9414    0.0000 C   0  0  0  0  0  0  0  0  0  0  0  0
   -2.6058   -4.1886    0.0000 C   0  0  0  0  0  0  0  0  0  0  0  0
   -1.2266   -3.8662    0.0000 C   0  0  0  0  0  0  0  0  0  0  0  0
    2.4674   -3.8350    0.0000 C   0  0  0  0  0  0  0  0  0  0  0  0
    7.7702    0.5759    0.0000 C   0  0  0  0  0  0  0  0  0  0  0  0
    0.2542    0.4414    0.0000 C   0  0  0  0  0  0  0  0  0  0  0  0
   -3.5158   -1.9886    0.0000 C   0  0  0  0  0  0  0  0  0  0  0  0
   -2.2158    0.2614    0.0000 C   0  0  0  0  0  0  0  0  0  0  0  0
    1.7142    0.1114    0.0000 C   0  0  0  0  0  0  0  0  0  0  0  0
    1.7142   -2.5986    0.0000 C   0  0  0  0  0  0  0  0  0  0  0  0
    0.2542   -2.9286    0.0000 C   0  0  0  0  0  0  0  0  0  0  0  0
   -0.9158   -1.9886    0.0000 C   0  0  0  0  0  0  0  0  0  0  0  0
   -0.9158    1.0114    0.0000 C   0  0  0  0  0  0  0  0  0  0  0  0
    3.8742   -1.2386    0.0000 C   0  0  0  0  0  0  0  0  0  0  0  0
    2.4842    1.4014    0.0000 C   0  0  0  0  0  0  0  0  0  0  0  0
    3.8742    2.5214    0.0000 C   0  0  0  0  0  0  0  0  0  0  0  0
    6.2763    0.4406    0.0000 C   0  0  0  0  0  0  0  0  0  0  0  0
   -2.2158   -2.7386    0.0000 C   0  0  0  0  0  0  0  0  0  0  0  0
    1.5042    2.5214    0.0000 C   0  0  0  0  0  0  0  0  0  0  0  0
   -0.9158   -0.4886    0.0000 C   0  0  0  0  0  0  0  0  0  0  0  0
    2.3742   -1.2386    0.0000 C   0  0  0  0  0  0  0  0  0  0  0  0
   -2.6058   -1.2886    0.0000 N   0  0  0  0  0  0  0  0  0  0  0  0
    0.9684   -3.8888    0.0000 O   0  0  0  0  0  0  0  0  0  0  0  0
   -4.8147   -2.7388    0.0000 O   0  0  0  0  0  0  0  0  0  0  0  0
    4.9349   -2.2992    0.0000 O   0  0  0  0  0  0  0  0  0  0  0  0
    5.6466   -0.9208    0.0000 O   0  0  0  0  0  0  0  0  0  0  0  0
    1.8418    3.9829    0.0000 O   0  0  0  0  0  0  0  0  0  0  0  0
   -1.7086   -5.2867    0.0000 O   0  0  0  0  0  0  0  0  0  0  0  0
   -2.2158    1.7614    0.0000 O   0  0  0  0  0  0  0  0  0  0  0  0
   -0.0838   -4.3900    0.0000 O   0  0  0  0  0  0  0  0  0  0  0  0
    4.9349    3.5821    0.0000 O   0  0  0  0  0  0  0  0  0  0  0  0
    5.4122    1.6667    0.0000 O   0  0  0  0  0  0  0  0  0  0  0  0
    3.1703   -2.5099    0.0000 O   0  0  0  0  0  0  0  0  0  0  0  0
  8  7  2  0
  9  7  1  0
 10  8  1  0
 11  9  2  0
 16  1  1  0
 17 10  2  0
 17 11  1  0
 18 13  1  6
 19 12  1  0
 20 12  1  0
 21 18  1  6
 22 23  1  1
 24 23  1  6
 25 22  1  0
 27 21  1  0
 28 26  1  0
 29 17  1  0
 30 14  1  0
 30 15  1  1
 30 19  1  0
 30 24  1  0
 31 13  1  0
 31 27  1  0
 31 28  1  0
 32 18  1  0
 32 20  1  1
 32 24  1  0
 32 25  1  0
 33 21  1  0
 33 22  1  0
 33 26  1  0
 34  2  1  0
 34 14  1  0
 25 34  1  6
 35 16  2  0
 19 36  1  6
 26 37  1  6
 38 29  2  0
 31 39  1  1
 40  3  1  0
 40 15  1  0
 41  4  1  0
 20 41  1  6
 42  5  1  0
 23 42  1  6
 43  6  1  0
 28 43  1  1
 27 44  1  6
 44 29  1  0
 45 16  1  0
 33 45  1  1
M  END
>  <NAME>  (1051) 
MESACONITINE

>  <SYNONYMS>  (1051) 


>  <SPECTRUM TYPE>  (1051) 
MS1

>  <INSTRUMENT TYPE>  (1051) 
EI-B

>  <INSTRUMENT>  (1051) 
HITACHI M-80

>  <ION MODE>  (1051) 
P

>  <INCHIKEY>  (1051) 
XUHJBXVYNBQQBD-GQPWXMLZSA-N

>  <FORMULA>  (1051) 
C33H45NO11

>  <EXACT MASS>  (1051) 
631.29926126

>  <MW>  (1051) 
631

>  <ID>  (1051) 
JP010584

>  <CONTRIBUTOR>  (1051) 
University of Tokyo Team, {Faculty of Engineering, University of Tokyo

>  <COMMENT>  (1051) 
SMILES=COCC(C2)(C([H])71)C(CC(OC)C(C([H])63)(C(C([H])(C7OC)C(C64[H])(OC(C)=O)C(O)C(C(O)(C(OC(=O)c(c5)cccc5)4)C3)OC)N(C)2)1)O
InChI=InChI=1S/C33H45NO11/c1-16(35)45-33-21-18(13-31(39,28(43-6)26(33)37)27(21)44-29(38)17-10-8-7-9-11-17)32-20(41-4)12-19(36)30(15-40-3)14-34(2)25(32)22(33)23(42-5)24(30)32/h7-11,18-28,36-37,39H,12-15H2,1-6H3/t18-,19-,20+,21-,22+,23+,24-,25-,26+,27-,28+,30+,31-,32+,33-/m1/s1
computed SMILES=O=C(OC1C2C3CC1(O)C(OC)C(O)C2(OC(=O)C)C4C(OC)C5C6(COC)CN(C)C4C35C(OC)CC6O)C=7C=CC=CC7
accession=JP010584
date=2016.01.19 (Created 2008.10.21, modified 2011.05.06)
author=NARA WOMEN'S UNIVERSITY
license=CC BY-NC-SA
exact mass=631.29926
ionization energy=70 eV
ion type=[M]+*
computed spectral entropy=2.9651500628514285
computed normalized entropy=0.7399310029369109
SPLASH=splash10-0f6x-9100032000-3e106a067ca792a7a418
submitter=submitter = University of Tokyo Team (Faculty of Engineering, University of Tokyo)
MoNA Rating=3.75

>  <NUM PEAKS>  (1051) 
55

>  <MASS SPECTRAL PEAKS>  (1051) 
14 6.8
16 4.56
17 1.21
31 14.9
32 1.12
41 3.27
42 13
43 99.99
44 5.34
45 75
46 3.01
60 63.98
61 5.51
71 1.03
77 5.25
87 1.29
105 25.4
106 2.24
111 1.29
122 1.89
134 1.03
141 1.46
164 1.38
252 2.15
494 1.29
508 1.28
510 1.45
512 1.72
522 1.98
524 9.3
525 3.19
526 1.74
540 37.72
541 13.69
542 4.99
543 1.29
554 1.28
556 5.25
557 1.81
570 1.12
571 8.78
572 6.72
573 2.07
582 1.3
584 5.51
585 2.08
586 1.13
599 1.04
600 61.05
601 23.68
602 5.86
603 1.13
616 1.21
631 3.36
632 1.72

$$$$

     RDKit          2D

 11 11  0  0  0  0  0  0  0  0999 V2000
    0.0000    3.0000    0.0000 C   0  0  0  0  0  0  0  0  0  0  0  0
    2.5989    1.5002    0.0000 C   0  0  0  0  0  0  0  0  0  0  0  0
    2.5989   -1.5002    0.0000 C   0  0  0  0  0  0  0  0  0  0  0  0
   -0.0000   -3.0000    0.0000 C   0  0  0  0  0  0  0  0  0  0  0  0
   -1.3000    0.7500    0.0000 C   0  0  0  0  0  0  0  0  0  0  0  0
    0.0000    1.5000    0.0000 C   0  0  0  0  0  0  0  0  0  0  0  0
    1.3000    0.7500    0.0000 C   0  0  0  0  0  0  0  0  0  0  0  0
    1.3000   -0.7500    0.0000 C   0  0  0  0  0  0  0  0  0  0  0  0
   -0.0000   -1.5000    0.0000 C   0  0  0  0  0  0  0  0  0  0  0  0
   -1.3000   -0.7500    0.0000 C   0  0  0  0  0  0  0  0  0  0  0  0
   -2.5989   -1.5002    0.0000 N   0  0  0  0  0  0  0  0  0  0  0  0
  6  1  1  0
  6  5  2  0
  7  2  1  0
  7  6  1  0
  8  3  1  0
  8  7  2  0
  9  4  1  0
  9  8  1  0
 10  5  1  0
 10  9  2  0
 11 10  1  0
M  END
>  <NAME>  (1052) 
2,3,4,5-TETRAMETHYLANILINE

>  <SYNONYMS>  (1052) 
1-AMINOPREHNITENE

>  <SPECTRUM TYPE>  (1052) 
MS1

>  <INSTRUMENT TYPE>  (1052) 
EI-B

>  <INSTRUMENT>  (1052) 
HITACHI M-80

>  <ION MODE>  (1052) 
P

>  <INCHIKEY>  (1052) 
JUNBHJRQUYYYBX-UHFFFAOYSA-N

>  <FORMULA>  (1052) 
C10H15N

>  <EXACT MASS>  (1052) 
149.12044948

>  <MW>  (1052) 
149

>  <ID>  (1052) 
JP010583

>  <CONTRIBUTOR>  (1052) 
University of Tokyo Team, {Faculty of Engineering, University of Tokyo

>  <COMMENT>  (1052) 
SMILES=Cc(c1)c(C)c(C)c(C)c(N)1
cas=2217-45-0
InChI=InChI=1S/C10H15N/c1-6-5-10(11)9(4)8(3)7(6)2/h5H,11H2,1-4H3
computed SMILES=NC=1C=C(C(=C(C1C)C)C)C
accession=JP010583
date=2016.01.19 (Created 2008.10.21, modified 2011.05.06)
author=NARA WOMEN'S UNIVERSITY
license=CC BY-NC-SA
exact mass=149.12045
ionization energy=70 eV
ion type=[M]+*
computed spectral entropy=1.5283267026738327
computed normalized entropy=0.5791184168388808
SPLASH=splash10-0002-0900000000-b4f6a3ba374710ce2321
submitter=submitter = University of Tokyo Team (Faculty of Engineering, University of Tokyo)
MoNA Rating=3.75

>  <NUM PEAKS>  (1052) 
14

>  <MASS SPECTRAL PEAKS>  (1052) 
91 1.01
106 1.49
108 1.03
118 1.09
120 1.34
130 1
132 2.08
133 1.17
134 35.72
135 4
148 19.63
149 99.99
150 24.09
151 1.93

$$$$

     RDKit          2D

 11 11  0  0  0  0  0  0  0  0999 V2000
    0.0000    3.0000    0.0000 C   0  0  0  0  0  0  0  0  0  0  0  0
   -2.5989   -1.5002    0.0000 C   0  0  0  0  0  0  0  0  0  0  0  0
    2.5989    1.5002    0.0000 C   0  0  0  0  0  0  0  0  0  0  0  0
   -0.0000   -3.0000    0.0000 C   0  0  0  0  0  0  0  0  0  0  0  0
   -1.3000    0.7500    0.0000 C   0  0  0  0  0  0  0  0  0  0  0  0
    0.0000    1.5000    0.0000 C   0  0  0  0  0  0  0  0  0  0  0  0
   -1.3000   -0.7500    0.0000 C   0  0  0  0  0  0  0  0  0  0  0  0
    1.3000    0.7500    0.0000 C   0  0  0  0  0  0  0  0  0  0  0  0
   -0.0000   -1.5000    0.0000 C   0  0  0  0  0  0  0  0  0  0  0  0
    1.3000   -0.7500    0.0000 C   0  0  0  0  0  0  0  0  0  0  0  0
    2.5989   -1.5002    0.0000 N   0  0  0  0  0  0  0  0  0  0  0  0
  6  1  1  0
  6  5  2  0
  7  2  1  0
  7  5  1  0
  8  3  1  0
  8  6  1  0
  9  4  1  0
  9  7  2  0
 10  8  2  0
 10  9  1  0
 11 10  1  0
M  END
>  <NAME>  (1053) 
AMINODURENE

>  <SYNONYMS>  (1053) 
2,3,5,6-TETRAMETHYLANILINE

>  <SPECTRUM TYPE>  (1053) 
MS1

>  <INSTRUMENT TYPE>  (1053) 
EI-B

>  <INSTRUMENT>  (1053) 
HITACHI M-80

>  <ION MODE>  (1053) 
P

>  <INCHIKEY>  (1053) 
ZCZPJZYQBNOPLT-UHFFFAOYSA-N

>  <FORMULA>  (1053) 
C10H15N

>  <EXACT MASS>  (1053) 
149.12044948

>  <MW>  (1053) 
149

>  <ID>  (1053) 
JP010582

>  <CONTRIBUTOR>  (1053) 
University of Tokyo Team, {Faculty of Engineering, University of Tokyo

>  <COMMENT>  (1053) 
SMILES=Cc(c1)c(C)c(N)c(C)c(C)1
cas=2217-46-1
InChI=InChI=1S/C10H15N/c1-6-5-7(2)9(4)10(11)8(6)3/h5H,11H2,1-4H3
computed SMILES=NC=1C(=C(C=C(C1C)C)C)C
accession=JP010582
date=2016.01.19 (Created 2008.10.21, modified 2011.05.06)
author=NARA WOMEN'S UNIVERSITY
license=CC BY-NC-SA
exact mass=149.12045
ionization energy=70 eV
ion type=[M]+*
computed spectral entropy=2.615298871064498
computed normalized entropy=0.7042542393382184
SPLASH=splash10-000t-1900000000-ed348e8145edfbd8070d
submitter=submitter = University of Tokyo Team (Faculty of Engineering, University of Tokyo)
MoNA Rating=3.75

>  <NUM PEAKS>  (1053) 
41

>  <MASS SPECTRAL PEAKS>  (1053) 
28 1.96
29 1.06
39 3.67
41 2.77
42 1.71
51 2.04
53 2.12
63 1.22
65 2.77
74.5 1.14
77 4.41
78 1.63
79 2.53
80 1.06
91 7.91
92 1.39
93 2.94
94 1.47
104 1.22
105 4.57
106 3.43
107 2.86
108 1.55
115 4.57
116 2.37
117 9.55
118 3.75
119 3.02
120 6.28
121 2.04
130 1.88
131 3.26
132 4.81
133 3.67
134 71.5
135 12.16
146 1.47
147 2.2
148 24.15
149 99.99
150 14.6

$$$$

     RDKit          2D

 12 13  0  0  0  0  0  0  0  0999 V2000
   -3.6089    1.5002    0.0000 C   0  0  0  0  0  0  0  0  0  0  0  0
   -3.6089   -1.5002    0.0000 C   0  0  0  0  0  0  0  0  0  0  0  0
    4.1000   -0.0000    0.0000 C   0  0  0  0  0  0  0  0  0  0  0  0
   -1.0100    1.5000    0.0000 C   0  0  0  0  0  0  0  0  0  0  0  0
   -1.0100   -1.5000    0.0000 C   0  0  0  0  0  0  0  0  0  0  0  0
   -2.3100    0.7500    0.0000 C   0  0  0  0  0  0  0  0  0  0  0  0
   -2.3100   -0.7500    0.0000 C   0  0  0  0  0  0  0  0  0  0  0  0
    2.6000    0.0000    0.0000 C   0  0  0  0  0  0  0  0  0  0  0  0
    0.2900    0.7500    0.0000 C   0  0  0  0  0  0  0  0  0  0  0  0
    0.2900   -0.7500    0.0000 C   0  0  0  0  0  0  0  0  0  0  0  0
    1.7200    1.2100    0.0000 N   0  0  0  0  0  0  0  0  0  0  0  0
    1.7200   -1.2100    0.0000 O   0  0  0  0  0  0  0  0  0  0  0  0
  6  1  1  0
  6  4  2  0
  7  2  1  0
  7  5  2  0
  7  6  1  0
  8  3  1  0
  9  4  1  0
 10  5  1  0
 10  9  2  0
 11  8  2  0
 11  9  1  0
 12  8  1  0
 12 10  1  0
M  END
>  <NAME>  (1054) 
2,5,6-TRIMETHYLBENZOXAZOLE

>  <SYNONYMS>  (1054) 


>  <SPECTRUM TYPE>  (1054) 
MS1

>  <INSTRUMENT TYPE>  (1054) 
EI-B

>  <INSTRUMENT>  (1054) 
HITACHI M-80

>  <ION MODE>  (1054) 
P

>  <INCHIKEY>  (1054) 
PDVDINPEWGXOHX-UHFFFAOYSA-N

>  <FORMULA>  (1054) 
C10H11NO

>  <EXACT MASS>  (1054) 
161.084063972

>  <MW>  (1054) 
161

>  <ID>  (1054) 
JP010581

>  <CONTRIBUTOR>  (1054) 
University of Tokyo Team, {Faculty of Engineering, University of Tokyo

>  <COMMENT>  (1054) 
SMILES=Cc(n1)oc(c2)c1cc(C)c(C)2
InChI=InChI=1S/C10H11NO/c1-6-4-9-10(5-7(6)2)12-8(3)11-9/h4-5H,1-3H3
computed SMILES=N=1C=2C=C(C(=CC2OC1C)C)C
accession=JP010581
date=2016.01.19 (Created 2008.10.21, modified 2011.05.06)
author=NARA WOMEN'S UNIVERSITY
license=CC BY-NC-SA
exact mass=161.08406
ionization energy=70 eV
ion type=[M]+*
computed spectral entropy=2.813252818937254
computed normalized entropy=0.7679010456693973
SPLASH=splash10-03di-6900000000-3d50db2b6305fd414cf3
submitter=submitter = University of Tokyo Team (Faculty of Engineering, University of Tokyo)
MoNA Rating=3.75

>  <NUM PEAKS>  (1054) 
39

>  <MASS SPECTRAL PEAKS>  (1054) 
15 1.66
27 3.91
38 2.47
39 12.05
40 2.67
41 4.02
42 4.06
43 2.51
50 4.54
51 10.42
52 4.6
53 3.2
62 2.03
63 6.68
64 3.36
65 14.96
66 3.31
74 1.01
75 1.38
76 1.53
77 5.18
78 1.26
81 1.93
89 4.73
90 2.68
91 36.76
92 24.95
93 2.11
105 1.6
118 4.05
119 4.62
120 6.34
132 3.97
146 46.75
147 4.82
159 1.65
160 44.25
161 99.99
162 12.39

$$$$

     RDKit          2D

 15 15  0  0  0  0  0  0  0  0999 V2000
    3.8981    0.7504    0.0000 C   0  0  0  0  0  0  0  0  0  0  0  0
    1.2990   -3.7500    0.0000 C   0  0  0  0  0  0  0  0  0  0  0  0
   -1.3000    0.7500    0.0000 C   0  0  0  0  0  0  0  0  0  0  0  0
   -2.5989   -1.5002    0.0000 C   0  0  0  0  0  0  0  0  0  0  0  0
    0.0000    1.5000    0.0000 C   0  0  0  0  0  0  0  0  0  0  0  0
   -3.8981   -0.7504    0.0000 C   0  0  0  0  0  0  0  0  0  0  0  0
    1.3000   -0.7500    0.0000 C   0  0  0  0  0  0  0  0  0  0  0  0
   -1.3000   -0.7500    0.0000 C   0  0  0  0  0  0  0  0  0  0  0  0
    1.3000    0.7500    0.0000 C   0  0  0  0  0  0  0  0  0  0  0  0
    0.0000   -1.5000    0.0000 C   0  0  0  0  0  0  0  0  0  0  0  0
   -5.1970   -1.5006    0.0000 C   0  0  0  0  0  0  0  0  0  0  0  0
   -5.1968   -3.0006    0.0000 O   0  0  0  0  0  0  0  0  0  0  0  0
   -6.4962   -0.7508    0.0000 O   0  0  0  0  0  0  0  0  0  0  0  0
    2.5989    1.5002    0.0000 O   0  0  0  0  0  0  0  0  0  0  0  0
   -0.0000   -3.0000    0.0000 O   0  0  0  0  0  0  0  0  0  0  0  0
  5  3  2  0
  4  6  2  0
  8  3  1  0
  8  4  1  0
  9  5  1  0
  9  7  2  0
 10  7  1  0
 10  8  2  0
 11  6  1  0
 12 11  2  0
 13 11  1  0
 14  1  1  0
 14  9  1  0
 15  2  1  0
 15 10  1  0
M  END
>  <NAME>  (1055) 
2,4-DIMETHOXYCINNAMIC ACID

>  <SYNONYMS>  (1055) 


>  <SPECTRUM TYPE>  (1055) 
MS1

>  <INSTRUMENT TYPE>  (1055) 
EI-B

>  <INSTRUMENT>  (1055) 
HITACHI M-80

>  <ION MODE>  (1055) 
P

>  <INCHIKEY>  (1055) 
YIKHDPHTFYWYJV-GQCTYLIASA-N

>  <FORMULA>  (1055) 
C11H12O4

>  <EXACT MASS>  (1055) 
208.073558864

>  <MW>  (1055) 
208

>  <ID>  (1055) 
JP010580

>  <CONTRIBUTOR>  (1055) 
University of Tokyo Team, {Faculty of Engineering, University of Tokyo

>  <COMMENT>  (1055) 
SMILES=COc(c1)cc(OC)c(C=CC(O)=O)c1
cas=16909-09-4
InChI=InChI=1S/C11H12O4/c1-14-9-5-3-8(4-6-11(12)13)10(7-9)15-2/h3-7H,1-2H3,(H,12,13)/b6-4+
computed SMILES=O=C(O)C=CC1=CC=C(OC)C=C1OC
accession=JP010580
date=2016.01.19 (Created 2008.10.21, modified 2011.05.06)
author=NARA WOMEN'S UNIVERSITY
license=CC BY-NC-SA
exact mass=208.07356
ionization energy=70 eV
ion type=[M]+*
computed spectral entropy=3.6850038634000444
computed normalized entropy=0.8409359802246591
SPLASH=splash10-0a4i-6930000000-8fc9aa7a765e1a95bd58
submitter=submitter = University of Tokyo Team (Faculty of Engineering, University of Tokyo)
MoNA Rating=3.75

>  <NUM PEAKS>  (1055) 
80

>  <MASS SPECTRAL PEAKS>  (1055) 
15 15.26
27 2.05
28 1.17
29 3.59
31 1.74
38 2.47
39 6.63
41 1.52
43 1.15
45 10.58
50 5.22
51 12.18
52 2.84
53 3.5
55 2.47
59 1.13
61 1.55
62 7.29
63 14.75
64 3.91
65 6.22
66 3.89
69 4.82
74 3.14
75 2.92
76 4.49
77 18.67
78 7.56
79 4.9
85 1.22
86 1.35
87 2.15
88 2.52
89 10.67
90 5.79
91 9.91
92 3.7
94 2.72
95 1.7
102 1.47
103 4.73
104 2.42
105 9.76
106 2.4
107 2.33
108 1.81
109 1.83
116 1.28
117 1.81
118 3.8
119 5.29
120 2.79
121 43.17
122 4.39
124 4.24
131 2.1
132 1.81
133 19.74
134 5.02
135 4.6
137 3.55
147 4.47
148 16.18
149 33.75
150 5.93
151 1.96
161 8.57
162 5.42
163 2.76
165 1.72
176 3.61
177 28.79
178 3.3
191 10.56
192 1.57
193 1.59
207 1.54
208 99.99
209 12.6
210 1.61

$$$$

     RDKit          2D

 12 12  0  0  0  0  0  0  0  0999 V2000
    3.8981   -0.7504    0.0000 C   0  0  0  0  0  0  0  0  0  0  0  0
    2.5987   -3.0002    0.0000 C   0  0  0  0  0  0  0  0  0  0  0  0
   -1.3000   -0.7500    0.0000 C   0  0  0  0  0  0  0  0  0  0  0  0
    0.0000    1.5000    0.0000 C   0  0  0  0  0  0  0  0  0  0  0  0
    0.0000   -1.5000    0.0000 C   0  0  0  0  0  0  0  0  0  0  0  0
    1.3000    0.7500    0.0000 C   0  0  0  0  0  0  0  0  0  0  0  0
   -1.3000    0.7500    0.0000 C   0  0  0  0  0  0  0  0  0  0  0  0
    1.3000   -0.7500    0.0000 C   0  0  0  0  0  0  0  0  0  0  0  0
   -2.5989    1.5002    0.0000 C   0  0  0  0  0  0  0  0  0  0  0  0
    2.5989   -1.5002    0.0000 N   0  0  0  0  0  0  0  0  0  0  0  0
   -3.8981    0.7504    0.0000 O   0  0  0  0  0  0  0  0  0  0  0  0
   -2.5987    3.0002    0.0000 O   0  0  0  0  0  0  0  0  0  0  0  0
  5  3  2  0
  6  4  1  0
  7  3  1  0
  7  4  2  0
  8  5  1  0
  8  6  2  0
  9  7  1  0
 10  1  1  0
 10  2  1  0
 10  8  1  0
 11  9  1  0
 12  9  2  0
M  END
>  <NAME>  (1056) 
4-DIMETHYLAMINOBENZOIC ACID

>  <SYNONYMS>  (1056) 


>  <SPECTRUM TYPE>  (1056) 
MS1

>  <INSTRUMENT TYPE>  (1056) 
EI-B

>  <INSTRUMENT>  (1056) 
HITACHI M-80

>  <ION MODE>  (1056) 
P

>  <INCHIKEY>  (1056) 
YDIYEOMDOWUDTJ-UHFFFAOYSA-N

>  <FORMULA>  (1056) 
C9H11NO2

>  <EXACT MASS>  (1056) 
165.078978592

>  <MW>  (1056) 
165

>  <ID>  (1056) 
JP010579

>  <CONTRIBUTOR>  (1056) 
University of Tokyo Team, {Faculty of Engineering, University of Tokyo

>  <COMMENT>  (1056) 
SMILES=CN(C)c(c1)ccc(c1)C(O)=O
cas=619-84-1
InChI=InChI=1S/C9H11NO2/c1-10(2)8-5-3-7(4-6-8)9(11)12/h3-6H,1-2H3,(H,11,12)
computed SMILES=O=C(O)C1=CC=C(C=C1)N(C)C
accession=JP010579
date=2016.01.19 (Created 2008.10.21, modified 2011.05.06)
author=NARA WOMEN'S UNIVERSITY
license=CC BY-NC-SA
exact mass=165.07898
ionization energy=70 eV
ion type=[M]+*
computed spectral entropy=2.623588377599082
computed normalized entropy=0.6933025644601594
SPLASH=splash10-02t9-3900000000-2c3d138038a38784bb91
submitter=submitter = University of Tokyo Team (Faculty of Engineering, University of Tokyo)
MoNA Rating=3.75

>  <NUM PEAKS>  (1056) 
44

>  <MASS SPECTRAL PEAKS>  (1056) 
15 3.08
27 1.09
28 1.3
38 1.09
39 3.38
42 7.97
43 1.1
44 1.99
45 4.46
50 4.8
51 5.25
52 1.6
53 1.06
62 1.14
63 4.45
64 1.57
65 6.32
66 1.28
69 2.43
74 3.32
75 2.95
76 3.47
77 9.49
78 4.23
79 2.97
90 2
91 3.05
92 1.85
93 1.15
103 1.37
104 5.78
105 4.54
118 4.52
119 2.91
120 3.29
121 2.22
132 3.89
148 15.21
149 6.49
150 1.64
162 1.07
164 99.99
165 90.6
166 10.34

$$$$

     RDKit          2D

 12 12  0  0  0  0  0  0  0  0999 V2000
    4.5420   -0.3754    0.0000 C   0  0  0  0  0  0  0  0  0  0  0  0
    3.2433    1.8748    0.0000 C   0  0  0  0  0  0  0  0  0  0  0  0
    0.6489   -2.6180    0.0000 C   0  0  0  0  0  0  0  0  0  0  0  0
   -0.6501   -1.8680    0.0000 C   0  0  0  0  0  0  0  0  0  0  0  0
    1.9435   -1.8758    0.0000 C   0  0  0  0  0  0  0  0  0  0  0  0
    0.6449    0.3750    0.0000 C   0  0  0  0  0  0  0  0  0  0  0  0
   -0.6546   -0.3758    0.0000 C   0  0  0  0  0  0  0  0  0  0  0  0
    1.9439   -0.3750    0.0000 C   0  0  0  0  0  0  0  0  0  0  0  0
   -1.9549    0.3720    0.0000 C   0  0  0  0  0  0  0  0  0  0  0  0
    3.2431    0.3748    0.0000 N   0  0  0  0  0  0  0  0  0  0  0  0
   -1.9574    1.8720    0.0000 O   0  0  0  0  0  0  0  0  0  0  0  0
   -3.2527   -0.3801    0.0000 O   0  0  0  0  0  0  0  0  0  0  0  0
  4  3  2  0
  5  3  1  0
  7  4  1  0
  7  6  2  0
  8  5  2  0
  8  6  1  0
  9  7  1  0
 10  1  1  0
 10  2  1  0
 10  8  1  0
 11  9  2  0
 12  9  1  0
M  END
>  <NAME>  (1057) 
3-DIMETHYLAMINOBENZOIC ACID

>  <SYNONYMS>  (1057) 


>  <SPECTRUM TYPE>  (1057) 
MS1

>  <INSTRUMENT TYPE>  (1057) 
EI-B

>  <INSTRUMENT>  (1057) 
HITACHI M-80

>  <ION MODE>  (1057) 
P

>  <INCHIKEY>  (1057) 
NEGFNJRAUMCZMY-UHFFFAOYSA-N

>  <FORMULA>  (1057) 
C9H11NO2

>  <EXACT MASS>  (1057) 
165.078978592

>  <MW>  (1057) 
165

>  <ID>  (1057) 
JP010578

>  <CONTRIBUTOR>  (1057) 
University of Tokyo Team, {Faculty of Engineering, University of Tokyo

>  <COMMENT>  (1057) 
SMILES=CN(C)c(c1)cc(cc1)C(O)=O
cas=99-64-9
InChI=InChI=1S/C9H11NO2/c1-10(2)8-5-3-4-7(6-8)9(11)12/h3-6H,1-2H3,(H,11,12)
computed SMILES=O=C(O)C1=CC=CC(=C1)N(C)C
accession=JP010578
date=2016.01.19 (Created 2008.10.21, modified 2011.05.06)
author=NARA WOMEN'S UNIVERSITY
license=CC BY-NC-SA
exact mass=165.07898
ionization energy=70 eV
ion type=[M]+*
computed spectral entropy=2.5030579299473175
computed normalized entropy=0.6740297172066764
SPLASH=splash10-03xr-2900000000-f28cfaa2edae6f7136b1
submitter=submitter = University of Tokyo Team (Faculty of Engineering, University of Tokyo)
MoNA Rating=3.75

>  <NUM PEAKS>  (1057) 
41

>  <MASS SPECTRAL PEAKS>  (1057) 
15 2.11
27 1.03
38 1.05
39 3.57
42 5.88
44 1.7
45 3.6
50 3.81
51 4.26
52 1.52
63 4.22
64 1.5
65 5.79
66 1.18
73 2.84
74 2.81
75 2.54
76 2.99
77 8.14
78 3.7
79 2.44
83 2.09
90 1.38
91 2.84
92 1.5
93 1.09
103 1.14
104 5.34
105 3.57
117 1.12
118 5.05
119 1.99
120 3.31
121 2.5
132 1.07
148 6.88
149 4.95
150 1.73
164 99.99
165 79.16
166 9.16

$$$$

     RDKit          2D

  7  7  0  0  0  0  0  0  0  0999 V2000
    1.7179    0.7016    0.0000 C   0  0  0  0  0  0  0  0  0  0  0  0
   -3.0958   -1.4497    0.0000 C   0  0  0  0  0  0  0  0  0  0  0  0
   -0.8541    0.0068    0.0000 C   0  0  0  0  0  0  0  0  0  0  0  0
    0.6057   -0.3049    0.0000 C   0  0  0  0  0  0  0  0  0  0  0  0
   -1.6041   -1.2923    0.0000 C   0  0  0  0  0  0  0  0  0  0  0  0
    0.7714   -1.7978    0.0000 N   0  0  0  0  0  0  0  0  0  0  0  0
   -0.6043   -2.4006    0.0000 N   0  0  0  0  0  0  0  0  0  0  0  0
  4  1  1  0
  4  3  2  0
  5  2  1  0
  5  3  1  0
  6  4  1  0
  7  5  2  0
  7  6  1  0
M  END
>  <NAME>  (1058) 
3,5-DIMETHYLPYRAZOLE

>  <SYNONYMS>  (1058) 


>  <SPECTRUM TYPE>  (1058) 
MS1

>  <INSTRUMENT TYPE>  (1058) 
EI-B

>  <INSTRUMENT>  (1058) 
HITACHI M-80

>  <ION MODE>  (1058) 
P

>  <INCHIKEY>  (1058) 
SDXAWLJRERMRKF-UHFFFAOYSA-N

>  <FORMULA>  (1058) 
C5H8N2

>  <EXACT MASS>  (1058) 
96.06874825599999

>  <MW>  (1058) 
96

>  <ID>  (1058) 
JP010577

>  <CONTRIBUTOR>  (1058) 
University of Tokyo Team, {Faculty of Engineering, University of Tokyo

>  <COMMENT>  (1058) 
SMILES=CC1=CC(=NN1)C
cas=67-51-6
InChI=InChI=1S/C5H8N2/c1-4-3-5(2)7-6-4/h3H,1-2H3,(H,6,7)
computed SMILES=N=1NC(=CC1C)C
accession=JP010577
date=2016.01.19 (Created 2008.10.21, modified 2011.05.06)
author=NARA WOMEN'S UNIVERSITY
license=CC BY-NC-SA
exact mass=96.06875
ionization energy=70 eV
ion type=[M]+*
computed spectral entropy=2.5816564209974855
computed normalized entropy=0.7321022348611093
SPLASH=splash10-0002-9000000000-4482e63f4e32822406e2
submitter=submitter = University of Tokyo Team (Faculty of Engineering, University of Tokyo)
MoNA Rating=3.75

>  <NUM PEAKS>  (1058) 
34

>  <MASS SPECTRAL PEAKS>  (1058) 
15 2.03
26 2.56
27 5.65
28 6.19
29 3.92
30 1.22
37 1.41
38 3.28
39 16.9
40 4.68
41 11.63
42 11.17
43 1.8
50 1.44
51 3.06
52 3.41
53 2.32
54 14.58
55 4.76
56 2.57
61 1.05
62 2.18
63 3.78
65 5.19
66 2.53
67 3.64
68 4.29
69 1.69
81 17.12
94 1.05
95 66.62
96 99.99
97 29.32
98 1.55

$$$$

     RDKit          2D

 11 11  0  0  0  0  0  0  0  0999 V2000
   -2.5989    1.5002    0.0000 C   0  0  0  0  0  0  0  0  0  0  0  0
    2.5989    1.5002    0.0000 C   0  0  0  0  0  0  0  0  0  0  0  0
   -0.0000    1.5000    0.0000 C   0  0  0  0  0  0  0  0  0  0  0  0
   -1.3000   -0.7500    0.0000 C   0  0  0  0  0  0  0  0  0  0  0  0
   -1.3000    0.7500    0.0000 C   0  0  0  0  0  0  0  0  0  0  0  0
    1.3000    0.7500    0.0000 C   0  0  0  0  0  0  0  0  0  0  0  0
    1.3000   -0.7500    0.0000 C   0  0  0  0  0  0  0  0  0  0  0  0
   -0.0000   -1.5000    0.0000 N   0  0  0  0  0  0  0  0  0  0  0  0
    2.5989   -1.5002    0.0000 N   0  0  0  0  0  0  0  0  0  0  0  0
    2.5987   -3.0002    0.0000 O   0  0  0  0  0  0  0  0  0  0  0  0
    3.8981   -0.7504    0.0000 O   0  0  0  0  0  0  0  0  0  0  0  0
  5  1  1  0
  5  3  2  0
  5  4  1  0
  6  2  1  0
  6  3  1  0
  7  6  2  0
  8  4  2  0
  8  7  1  0
  9  7  1  0
 10  9  1  0
 11  9  2  0
M  CHG  2   9   1  10  -1
M  END
>  <NAME>  (1059) 
3,5-DIMETHYL-2-NITROPYRIDINE

>  <SYNONYMS>  (1059) 


>  <SPECTRUM TYPE>  (1059) 
MS1

>  <INSTRUMENT TYPE>  (1059) 
EI-B

>  <INSTRUMENT>  (1059) 
HITACHI M-80

>  <ION MODE>  (1059) 
P

>  <INCHIKEY>  (1059) 
AVLLRPYTPHITGW-UHFFFAOYSA-N

>  <FORMULA>  (1059) 
C7H8N2O2

>  <EXACT MASS>  (1059) 
152.058577496

>  <MW>  (1059) 
152

>  <ID>  (1059) 
JP010576

>  <CONTRIBUTOR>  (1059) 
University of Tokyo Team, {Faculty of Engineering, University of Tokyo

>  <COMMENT>  (1059) 
SMILES=Cc(c1)cc(C)c(n1)[N+1]([O-1])=O
InChI=InChI=1S/C7H8N2O2/c1-5-3-6(2)7(8-4-5)9(10)11/h3-4H,1-2H3
computed SMILES=O=N(=O)C1=NC=C(C=C1C)C
accession=JP010576
date=2016.01.19 (Created 2008.10.21, modified 2011.05.06)
author=NARA WOMEN'S UNIVERSITY
license=CC BY-NC-SA
exact mass=152.05858
ionization energy=70 eV
ion type=[M]+*
computed spectral entropy=2.630665105037026
computed normalized entropy=0.7523693453514774
SPLASH=splash10-0a6r-9600000000-64945e95cb40e39e95b8
submitter=submitter = University of Tokyo Team (Faculty of Engineering, University of Tokyo)
MoNA Rating=3.75

>  <NUM PEAKS>  (1059) 
33

>  <MASS SPECTRAL PEAKS>  (1059) 
27 6.93
28 3.81
30 6.49
37 1.5
38 3.61
39 16.19
40 2.1
41 3.68
46 4.67
50 3.43
51 8.91
52 6
53 8.77
54 1.53
62 1
63 3.41
64 2.9
65 3.42
66 4
67 1.01
76 1.18
77 33.63
78 7.69
79 38.61
80 4.1
94 3.39
104 2.4
105 1.09
106 99.99
107 8.88
122 5.21
152 5.6
153 2.63

$$$$

     RDKit          2D

 13 13  0  0  0  0  0  0  0  0999 V2000
   -4.2229   -4.0848    0.0000 C   0  0  0  0  0  0  0  0  0  0  0  0
    0.9369    3.4549    0.0000 C   0  0  0  0  0  0  0  0  0  0  0  0
   -2.9255   -3.3321    0.0000 C   0  0  0  0  0  0  0  0  0  0  0  0
   -2.9072    2.6904    0.0000 C   0  0  0  0  0  0  0  0  0  0  0  0
   -1.6427    3.4356    0.0000 C   0  0  0  0  0  0  0  0  0  0  0  0
   -2.9373    1.2035    0.0000 C   0  0  0  0  0  0  0  0  0  0  0  0
   -0.3587    2.6991    0.0000 C   0  0  0  0  0  0  0  0  0  0  0  0
   -1.6344    0.4206    0.0000 C   0  0  0  0  0  0  0  0  0  0  0  0
   -0.3493    1.2002    0.0000 C   0  0  0  0  0  0  0  0  0  0  0  0
   -1.6312   -1.0793    0.0000 C   0  0  0  0  0  0  0  0  0  0  0  0
    0.9600    0.4683    0.0000 O   0  0  0  0  0  0  0  0  0  0  0  0
   -0.3306   -1.8266    0.0000 O   0  0  0  0  0  0  0  0  0  0  0  0
   -2.9287   -1.8321    0.0000 O   0  0  0  0  0  0  0  0  0  0  0  0
  3  1  1  0
  5  4  2  0
  6  4  1  0
  7  2  1  0
  7  5  1  0
  8  6  2  0
  9  7  2  0
  9  8  1  0
 10  8  1  0
 11  9  1  0
 12 10  2  0
 13  3  1  0
 13 10  1  0
M  END
>  <NAME>  (1060) 
ETHYL 2-HYDROXY-3-METHYLBEZOATE

>  <SYNONYMS>  (1060) 


>  <SPECTRUM TYPE>  (1060) 
MS1

>  <INSTRUMENT TYPE>  (1060) 
EI-B

>  <INSTRUMENT>  (1060) 
HITACHI M-80

>  <ION MODE>  (1060) 
P

>  <INCHIKEY>  (1060) 
NSRLIMVWJNHWJW-UHFFFAOYSA-N

>  <FORMULA>  (1060) 
C10H12O3

>  <EXACT MASS>  (1060) 
180.07864424399997

>  <MW>  (1060) 
180

>  <ID>  (1060) 
JP010575

>  <CONTRIBUTOR>  (1060) 
University of Tokyo Team, {Faculty of Engineering, University of Tokyo

>  <COMMENT>  (1060) 
SMILES=CCOC(=O)c(c1)c(O)c(C)cc1
InChI=InChI=1S/C10H12O3/c1-3-13-10(12)8-6-4-5-7(2)9(8)11/h4-6,11H,3H2,1-2H3
computed SMILES=O=C(OCC)C1=CC=CC(=C1O)C
accession=JP010575
date=2016.01.19 (Created 2008.10.21, modified 2011.05.06)
author=NARA WOMEN'S UNIVERSITY
license=CC BY-NC-SA
exact mass=180.07864
ionization energy=70 eV
ion type=[M]+*
computed spectral entropy=2.915171843460558
computed normalized entropy=0.795720701612945
SPLASH=splash10-0560-7900000000-57aad0fad918826219d3
submitter=submitter = University of Tokyo Team (Faculty of Engineering, University of Tokyo)
MoNA Rating=3.75

>  <NUM PEAKS>  (1060) 
39

>  <MASS SPECTRAL PEAKS>  (1060) 
15 2.54
17 3.3
18 15.54
26 3.2
27 20.35
28 22.8
29 15.17
31 1.6
32 4.99
38 2.17
39 12.06
41 2.45
43 2.49
45 1.32
50 5.84
51 18.18
52 9.8
53 9.61
55 2.17
62 1.22
63 4.33
65 1.51
66 1.04
67 1.22
74 1.13
75 1.13
76 1.98
77 33.63
78 22.8
79 6.88
105 19.22
106 78
107 7.82
133 4.71
134 99.99
135 28.17
136 2.26
180 36.74
181 3.77

$$$$

     RDKit          2D

 10 10  0  0  0  0  0  0  0  0999 V2000
   -3.8981   -0.7504    0.0000 C   0  0  0  0  0  0  0  0  0  0  0  0
   -1.3000    0.7500    0.0000 C   0  0  0  0  0  0  0  0  0  0  0  0
    0.0000    1.5000    0.0000 C   0  0  0  0  0  0  0  0  0  0  0  0
   -0.0000   -1.5000    0.0000 C   0  0  0  0  0  0  0  0  0  0  0  0
   -1.3000   -0.7500    0.0000 C   0  0  0  0  0  0  0  0  0  0  0  0
    1.3000    0.7500    0.0000 C   0  0  0  0  0  0  0  0  0  0  0  0
    1.3000   -0.7500    0.0000 C   0  0  0  0  0  0  0  0  0  0  0  0
    2.5989    1.5002    0.0000 N   0  0  0  0  0  0  0  0  0  0  0  0
    2.5989   -1.5002    0.0000 N   0  0  0  0  0  0  0  0  0  0  0  0
   -2.5989   -1.5002    0.0000 O   0  0  0  0  0  0  0  0  0  0  0  0
  3  2  2  0
  5  2  1  0
  5  4  2  0
  6  3  1  0
  7  4  1  0
  7  6  2  0
  8  6  1  0
  9  7  1  0
 10  1  1  0
 10  5  1  0
M  END
>  <NAME>  (1061) 
4-METHOXY-1,2-PHENYLENEDIAMINE

>  <SYNONYMS>  (1061) 
3,4-DIAMINOANISOLE

>  <SPECTRUM TYPE>  (1061) 
MS1

>  <INSTRUMENT TYPE>  (1061) 
EI-B

>  <INSTRUMENT>  (1061) 
HITACHI M-80

>  <ION MODE>  (1061) 
P

>  <INCHIKEY>  (1061) 
AGAHETWGCFCMDK-UHFFFAOYSA-N

>  <FORMULA>  (1061) 
C7H10N2O

>  <EXACT MASS>  (1061) 
138.07931294

>  <MW>  (1061) 
138

>  <ID>  (1061) 
JP010574

>  <CONTRIBUTOR>  (1061) 
University of Tokyo Team, {Faculty of Engineering, University of Tokyo

>  <COMMENT>  (1061) 
SMILES=COc(c1)cc(N)c(N)c1
InChI=InChI=1S/C7H10N2O/c1-10-5-2-3-6(8)7(9)4-5/h2-4H,8-9H2,1H3
computed SMILES=O(C1=CC=C(N)C(N)=C1)C
accession=JP010574
date=2016.01.19 (Created 2008.10.21, modified 2011.05.06)
author=NARA WOMEN'S UNIVERSITY
license=CC BY-NC-SA
exact mass=138.07931
ionization energy=70 eV
ion type=[M]+*
computed spectral entropy=2.5997502254674267
computed normalized entropy=0.7199693508301511
SPLASH=splash10-007a-7900000000-7ab3b715df656b509f7d
submitter=submitter = University of Tokyo Team (Faculty of Engineering, University of Tokyo)
MoNA Rating=3.75

>  <NUM PEAKS>  (1061) 
37

>  <MASS SPECTRAL PEAKS>  (1061) 
14 1.12
15 7.7
18 2.03
27 1.89
28 15.12
29 2.01
32 1.3
38 1.44
39 3.68
40 2.61
41 8.18
42 3
43 1.22
50 1.69
52 9.1
53 6.09
54 4.59
66 1.62
67 6.14
68 6.49
69 1.9
76 1.11
78 8.4
79 2.02
80 3.7
81 1.02
94 3.5
95 50.82
96 6.5
106 1.23
107 1.22
110 7.18
123 65.52
124 5.3
137 2.41
138 99.99
139 9.58

$$$$

     RDKit          2D

 16 17  0  0  0  0  0  0  0  0999 V2000
    3.2481    2.1950    0.0000 C   0  0  0  0  0  0  0  0  0  0  0  0
   -7.1442    2.1950    0.0000 C   0  0  0  0  0  0  0  0  0  0  0  0
    1.9486    1.4442    0.0000 C   0  0  0  0  0  0  0  0  0  0  0  0
    3.2486    3.6958    0.0000 C   0  0  0  0  0  0  0  0  0  0  0  0
   -7.1447    3.6958    0.0000 C   0  0  0  0  0  0  0  0  0  0  0  0
   -5.8447    1.4442    0.0000 C   0  0  0  0  0  0  0  0  0  0  0  0
    0.6495    2.1942    0.0000 C   0  0  0  0  0  0  0  0  0  0  0  0
    1.9495    4.4458    0.0000 C   0  0  0  0  0  0  0  0  0  0  0  0
   -5.8457    4.4458    0.0000 C   0  0  0  0  0  0  0  0  0  0  0  0
   -4.5457    2.1942    0.0000 C   0  0  0  0  0  0  0  0  0  0  0  0
    0.6500    3.6950    0.0000 C   0  0  0  0  0  0  0  0  0  0  0  0
   -4.5462    3.6950    0.0000 C   0  0  0  0  0  0  0  0  0  0  0  0
   -1.9481    3.6950    0.0000 C   0  0  0  0  0  0  0  0  0  0  0  0
   -0.6490    4.4450    0.0000 N   0  0  0  0  0  0  0  0  0  0  0  0
   -3.2471    4.4450    0.0000 N   0  0  0  0  0  0  0  0  0  0  0  0
   -1.9481    2.1950    0.0000 O   0  0  0  0  0  0  0  0  0  0  0  0
  3  1  2  0
  4  1  1  0
  5  2  2  0
  6  2  1  0
  7  3  1  0
  8  4  2  0
  9  5  1  0
 10  6  2  0
 11  7  2  0
 11  8  1  0
 12  9  2  0
 12 10  1  0
 14 11  1  0
 14 13  2  3
 15 12  1  0
 15 13  1  0
 16 13  1  0
M  END
>  <NAME>  (1062) 
1,3-DIPHENYLUREA

>  <SYNONYMS>  (1062) 
CARBANILIDE

>  <SPECTRUM TYPE>  (1062) 
MS1

>  <INSTRUMENT TYPE>  (1062) 
EI-B

>  <INSTRUMENT>  (1062) 
HITACHI M-80

>  <ION MODE>  (1062) 
P

>  <INCHIKEY>  (1062) 
GWEHVDNNLFDJLR-UHFFFAOYSA-N

>  <FORMULA>  (1062) 
C13H12N2O

>  <EXACT MASS>  (1062) 
212.094963004

>  <MW>  (1062) 
212

>  <ID>  (1062) 
JP010573

>  <CONTRIBUTOR>  (1062) 
University of Tokyo Team, {Faculty of Engineering, University of Tokyo

>  <COMMENT>  (1062) 
SMILES=O=C(Nc(c2)cccc2)Nc(c1)cccc1
cas=102-07-8
InChI=InChI=1S/C13H12N2O/c16-13(14-11-7-3-1-4-8-11)15-12-9-5-2-6-10-12/h1-10H,(H2,14,15,16)
computed SMILES=OC(=NC=1C=CC=CC1)NC=2C=CC=CC2
accession=JP010573
date=2016.01.19 (Created 2008.10.21, modified 2011.05.06)
author=NARA WOMEN'S UNIVERSITY
license=CC BY-NC-SA
exact mass=212.09496
ionization energy=70 eV
ion type=[M]+*
computed spectral entropy=2.388119025594546
computed normalized entropy=0.716678408633743
SPLASH=splash10-0006-9000000000-a0fa514c3fc79d9ab070
submitter=submitter = University of Tokyo Team (Faculty of Engineering, University of Tokyo)
MoNA Rating=3.75

>  <NUM PEAKS>  (1062) 
28

>  <MASS SPECTRAL PEAKS>  (1062) 
18 1.32
27 1.23
28 2.64
38 2.89
39 10.25
40 2.01
41 1.7
50 2.2
51 7.32
52 2.26
54 1.01
62 1.04
63 4.18
64 5.25
65 16
66 10.66
67 1.26
77 12.13
78 1.26
83 1.16
91 5.88
92 10.21
93 99.99
94 6.85
119 7.13
120 1.89
212 17.16
213 2.64

$$$$

     RDKit          2D

 16 17  0  0  0  0  0  0  0  0999 V2000
    3.2481    2.1950    0.0000 C   0  0  0  0  0  0  0  0  0  0  0  0
   -7.1442    2.1950    0.0000 C   0  0  0  0  0  0  0  0  0  0  0  0
    1.9486    1.4442    0.0000 C   0  0  0  0  0  0  0  0  0  0  0  0
    3.2486    3.6958    0.0000 C   0  0  0  0  0  0  0  0  0  0  0  0
   -7.1447    3.6958    0.0000 C   0  0  0  0  0  0  0  0  0  0  0  0
   -5.8447    1.4442    0.0000 C   0  0  0  0  0  0  0  0  0  0  0  0
    0.6495    2.1942    0.0000 C   0  0  0  0  0  0  0  0  0  0  0  0
    1.9495    4.4458    0.0000 C   0  0  0  0  0  0  0  0  0  0  0  0
   -5.8457    4.4458    0.0000 C   0  0  0  0  0  0  0  0  0  0  0  0
   -4.5457    2.1942    0.0000 C   0  0  0  0  0  0  0  0  0  0  0  0
    0.6500    3.6950    0.0000 C   0  0  0  0  0  0  0  0  0  0  0  0
   -4.5462    3.6950    0.0000 C   0  0  0  0  0  0  0  0  0  0  0  0
   -1.9481    3.6950    0.0000 C   0  0  0  0  0  0  0  0  0  0  0  0
   -0.6490    4.4450    0.0000 N   0  0  0  0  0  0  0  0  0  0  0  0
   -3.2471    4.4450    0.0000 N   0  0  0  0  0  0  0  0  0  0  0  0
   -1.9481    2.1950    0.0000 O   0  0  0  0  0  0  0  0  0  0  0  0
  3  1  1  0
  4  1  1  0
  5  2  1  0
  6  2  1  0
  7  3  1  0
  8  4  1  0
  9  5  1  0
 10  6  1  0
 11  7  1  0
 11  8  1  0
 12  9  1  0
 12 10  1  0
 14 11  1  0
 14 13  2  3
 15 12  1  0
 15 13  1  0
 16 13  1  0
M  END
>  <NAME>  (1063) 
1,3-DICYCLOHEXYLUREA

>  <SYNONYMS>  (1063) 


>  <SPECTRUM TYPE>  (1063) 
MS1

>  <INSTRUMENT TYPE>  (1063) 
EI-B

>  <INSTRUMENT>  (1063) 
HITACHI M-80

>  <ION MODE>  (1063) 
P

>  <INCHIKEY>  (1063) 
ADFXKUOMJKEIND-UHFFFAOYSA-N

>  <FORMULA>  (1063) 
C13H24N2O

>  <EXACT MASS>  (1063) 
224.18886338800002

>  <MW>  (1063) 
224

>  <ID>  (1063) 
JP010572

>  <CONTRIBUTOR>  (1063) 
University of Tokyo Team, {Faculty of Engineering, University of Tokyo

>  <COMMENT>  (1063) 
SMILES=O=C(NC(C2)CCCC2)NC(C1)CCCC1
cas=2387-23-7
InChI=InChI=1S/C13H24N2O/c16-13(14-11-7-3-1-4-8-11)15-12-9-5-2-6-10-12/h11-12H,1-10H2,(H2,14,15,16)
computed SMILES=OC(=NC1CCCCC1)NC2CCCCC2
accession=JP010572
date=2016.01.19 (Created 2008.10.21, modified 2011.05.06)
author=NARA WOMEN'S UNIVERSITY
license=CC BY-NC-SA
exact mass=224.18886
ionization energy=70 eV
ion type=[M]+*
computed spectral entropy=2.923988105185773
computed normalized entropy=0.815954416706813
SPLASH=splash10-0a4i-9000000000-9d4c20d440ea04067a28
submitter=submitter = University of Tokyo Team (Faculty of Engineering, University of Tokyo)
MoNA Rating=3.75

>  <NUM PEAKS>  (1063) 
36

>  <MASS SPECTRAL PEAKS>  (1063) 
18 2.93
27 6.18
28 14.13
29 6.77
30 7.61
39 7.02
40 1.17
41 23.49
42 5.18
43 19.06
44 3.68
53 3.34
54 4.76
55 22.9
56 99.99
57 6.35
61 22.82
67 4.43
68 1.25
69 2.42
70 11.12
71 1.09
79 1.34
81 3.68
82 3.84
83 6.94
84 1
85 1.76
98 16.72
99 28
100 5.93
142 2.34
143 17.3
144 1.42
224 19.56
225 3.43

$$$$

     RDKit          2D

 14 14  0  0  0  0  0  0  0  0999 V2000
    0.0000    3.0000    0.0000 C   0  0  0  0  0  0  0  0  0  0  0  0
   -0.0000   -3.0000    0.0000 C   0  0  0  0  0  0  0  0  0  0  0  0
    3.8976    3.7504    0.0000 C   0  0  0  0  0  0  0  0  0  0  0  0
   -1.3000    0.7500    0.0000 C   0  0  0  0  0  0  0  0  0  0  0  0
    0.0000    1.5000    0.0000 C   0  0  0  0  0  0  0  0  0  0  0  0
   -0.0000   -1.5000    0.0000 C   0  0  0  0  0  0  0  0  0  0  0  0
   -1.3000   -0.7500    0.0000 C   0  0  0  0  0  0  0  0  0  0  0  0
    1.3000    0.7500    0.0000 C   0  0  0  0  0  0  0  0  0  0  0  0
    1.3000   -0.7500    0.0000 C   0  0  0  0  0  0  0  0  0  0  0  0
    2.5989    1.5002    0.0000 C   0  0  0  0  0  0  0  0  0  0  0  0
   -2.5989   -1.5002    0.0000 O   0  0  0  0  0  0  0  0  0  0  0  0
    2.5989   -1.5002    0.0000 O   0  0  0  0  0  0  0  0  0  0  0  0
    3.8981    0.7504    0.0000 O   0  0  0  0  0  0  0  0  0  0  0  0
    2.5987    3.0002    0.0000 O   0  0  0  0  0  0  0  0  0  0  0  0
  5  1  1  0
  5  4  2  0
  6  2  1  0
  7  4  1  0
  7  6  2  0
  8  5  1  0
  9  6  1  0
  9  8  2  0
 10  8  1  0
 11  7  1  0
 12  9  1  0
 13 10  2  0
 14  3  1  0
 14 10  1  0
M  END
>  <NAME>  (1064) 
METHYL 2,4-DIHYDROXY-3,6-DIMETHYLBENZOATE

>  <SYNONYMS>  (1064) 


>  <SPECTRUM TYPE>  (1064) 
MS1

>  <INSTRUMENT TYPE>  (1064) 
EI-B

>  <INSTRUMENT>  (1064) 
HITACHI M-80

>  <ION MODE>  (1064) 
P

>  <INCHIKEY>  (1064) 
UUQHKWMIDYRWHH-UHFFFAOYSA-N

>  <FORMULA>  (1064) 
C10H12O4

>  <EXACT MASS>  (1064) 
196.073558864

>  <MW>  (1064) 
196

>  <ID>  (1064) 
JP010571

>  <CONTRIBUTOR>  (1064) 
University of Tokyo Team, {Faculty of Engineering, University of Tokyo

>  <COMMENT>  (1064) 
SMILES=COC(=O)c(c(C)1)c(O)c(C)c(O)c1
cas=4707-47-5
InChI=InChI=1S/C10H12O4/c1-5-4-7(11)6(2)9(12)8(5)10(13)14-3/h4,11-12H,1-3H3
computed SMILES=O=C(OC)C1=C(O)C(=C(O)C=C1C)C
accession=JP010571
date=2016.01.19 (Created 2008.10.21, modified 2011.05.06)
author=NARA WOMEN'S UNIVERSITY
license=CC BY-NC-SA
exact mass=196.07356
ionization energy=70 eV
ion type=[M]+*
computed spectral entropy=3.037576837538599
computed normalized entropy=0.768764736848262
SPLASH=splash10-01p9-4900000000-95a3696628094361840d
submitter=submitter = University of Tokyo Team (Faculty of Engineering, University of Tokyo)
MoNA Rating=3.75

>  <NUM PEAKS>  (1064) 
52

>  <MASS SPECTRAL PEAKS>  (1064) 
15 5.71
18 1.69
27 5.9
28 1.58
29 3.27
31 2.15
38 1.37
39 9.85
40 1.48
41 4.12
43 4.73
50 2.52
51 6.29
52 4.18
53 10.39
54 1.17
55 7.18
62 1.16
63 3.94
64 1.27
65 5.56
66 2.75
67 6.93
68 1.07
69 2.57
77 13.77
78 4.3
79 14.4
80 5.37
81 2.82
83 5.93
89 1.57
90 2.66
91 3.64
93 1.4
94 1.01
106 1.09
107 16.65
108 10.2
109 5.15
121 2.21
135 14.06
136 99.99
137 9.79
162 1.1
163 8.07
164 94.26
165 26.51
166 2.86
167 1.03
196 43.99
197 5.41

$$$$

     RDKit          2D

 17 17  0  0  0  0  0  0  0  0999 V2000
   -3.3491   -0.2013    0.0000 C   0  0  0  0  0  0  0  0  0  0  0  0
   -3.8978   -2.2504    0.0000 C   0  0  0  0  0  0  0  0  0  0  0  0
   -1.8487   -2.7991    0.0000 C   0  0  0  0  0  0  0  0  0  0  0  0
    1.8487   -2.7991    0.0000 C   0  0  0  0  0  0  0  0  0  0  0  0
    3.8978   -2.2504    0.0000 C   0  0  0  0  0  0  0  0  0  0  0  0
    3.3491   -0.2013    0.0000 C   0  0  0  0  0  0  0  0  0  0  0  0
   -1.3000    0.7500    0.0000 C   0  0  0  0  0  0  0  0  0  0  0  0
    1.3000    0.7500    0.0000 C   0  0  0  0  0  0  0  0  0  0  0  0
    0.0000    3.0000    0.0000 C   0  0  0  0  0  0  0  0  0  0  0  0
    0.0000    1.5000    0.0000 C   0  0  0  0  0  0  0  0  0  0  0  0
   -1.3000   -0.7500    0.0000 C   0  0  0  0  0  0  0  0  0  0  0  0
    1.3000   -0.7500    0.0000 C   0  0  0  0  0  0  0  0  0  0  0  0
    0.0000   -1.5000    0.0000 C   0  0  0  0  0  0  0  0  0  0  0  0
   -2.5989   -1.5002    0.0000 C   0  0  0  0  0  0  0  0  0  0  0  0
    2.5989   -1.5002    0.0000 C   0  0  0  0  0  0  0  0  0  0  0  0
    0.0000    4.5000    0.0000 N   0  0  0  0  0  0  0  0  0  0  0  0
   -0.0000   -3.0000    0.0000 O   0  0  0  0  0  0  0  0  0  0  0  0
 10  7  2  0
 10  8  1  0
 10  9  1  0
 11  7  1  0
 12  8  2  0
 13 11  2  0
 13 12  1  0
 14  1  1  0
 14  2  1  0
 14  3  1  0
 14 11  1  0
 15  4  1  0
 15  5  1  0
 15  6  1  0
 15 12  1  0
 16  9  3  0
 17 13  1  0
M  END
>  <NAME>  (1065) 
3,5-DI-TERT-BUTYL-4-HYDROXYBENZONITRILE

>  <SYNONYMS>  (1065) 


>  <SPECTRUM TYPE>  (1065) 
MS1

>  <INSTRUMENT TYPE>  (1065) 
EI-B

>  <INSTRUMENT>  (1065) 
HITACHI M-80

>  <ION MODE>  (1065) 
P

>  <INCHIKEY>  (1065) 
AKXIIOLURNATOC-UHFFFAOYSA-N

>  <FORMULA>  (1065) 
C15H21NO

>  <EXACT MASS>  (1065) 
231.162314292

>  <MW>  (1065) 
231

>  <ID>  (1065) 
JP010570

>  <CONTRIBUTOR>  (1065) 
University of Tokyo Team, {Faculty of Engineering, University of Tokyo

>  <COMMENT>  (1065) 
SMILES=N#Cc(c1)cc(C(C)(C)C)c(O)c1C(C)(C)C
InChI=InChI=1S/C15H21NO/c1-14(2,3)11-7-10(9-16)8-12(13(11)17)15(4,5)6/h7-8,17H,1-6H3
computed SMILES=N#CC=1C=C(C(O)=C(C1)C(C)(C)C)C(C)(C)C
accession=JP010570
date=2016.01.19 (Created 2008.10.21, modified 2011.05.06)
author=NARA WOMEN'S UNIVERSITY
license=CC BY-NC-SA
exact mass=231.16231
ionization energy=70 eV
ion type=[M]+*
computed spectral entropy=2.9949822922089386
computed normalized entropy=0.750813304151599
SPLASH=splash10-014i-4590000000-ededd1da082ab842d9ef
submitter=submitter = University of Tokyo Team (Faculty of Engineering, University of Tokyo)
MoNA Rating=3.75

>  <NUM PEAKS>  (1065) 
54

>  <MASS SPECTRAL PEAKS>  (1065) 
15 2.23
18 2.19
27 3.71
28 2.85
29 7.32
39 5.8
41 13.54
43 1.71
51 2.04
53 1.66
55 3.28
57 11.64
63 1.52
65 1.52
77 3.09
85.5 1.56
86.5 2.52
89 1.66
91 1.95
100.5 1.38
102 1.09
103 1.71
104 1.09
115 3.61
116 4.37
117 1.43
127 1.81
128 2.19
129 1.38
130 2.47
132 1.47
140 2.76
141 1.47
142 1.71
144 3.09
146 1.62
153 1.38
154 1.09
156 5.56
157 1.09
158 2.71
160 4.32
172 7.41
173 1.24
174 1.24
186 1.14
188 20.57
189 2.95
200 3.81
216 99.99
217 15.73
218 1.33
231 22
232 4.13

$$$$

     RDKit          2D

 17 17  0  0  0  0  0  0  0  0999 V2000
   -3.3491   -0.2013    0.0000 C   0  0  0  0  0  0  0  0  0  0  0  0
   -3.8978   -2.2504    0.0000 C   0  0  0  0  0  0  0  0  0  0  0  0
   -1.8487   -2.7991    0.0000 C   0  0  0  0  0  0  0  0  0  0  0  0
    1.8487   -2.7991    0.0000 C   0  0  0  0  0  0  0  0  0  0  0  0
    3.8978   -2.2504    0.0000 C   0  0  0  0  0  0  0  0  0  0  0  0
    3.3491   -0.2013    0.0000 C   0  0  0  0  0  0  0  0  0  0  0  0
   -1.3000    0.7500    0.0000 C   0  0  0  0  0  0  0  0  0  0  0  0
    1.3000    0.7500    0.0000 C   0  0  0  0  0  0  0  0  0  0  0  0
    0.0000    3.0000    0.0000 C   0  0  0  0  0  0  0  0  0  0  0  0
    0.0000    1.5000    0.0000 C   0  0  0  0  0  0  0  0  0  0  0  0
   -1.3000   -0.7500    0.0000 C   0  0  0  0  0  0  0  0  0  0  0  0
    1.3000   -0.7500    0.0000 C   0  0  0  0  0  0  0  0  0  0  0  0
    0.0000   -1.5000    0.0000 C   0  0  0  0  0  0  0  0  0  0  0  0
   -2.5989   -1.5002    0.0000 C   0  0  0  0  0  0  0  0  0  0  0  0
    2.5989   -1.5002    0.0000 C   0  0  0  0  0  0  0  0  0  0  0  0
   -1.2990    3.7500    0.0000 O   0  0  0  0  0  0  0  0  0  0  0  0
   -0.0000   -3.0000    0.0000 O   0  0  0  0  0  0  0  0  0  0  0  0
 10  7  2  0
 10  8  1  0
 10  9  1  0
 11  7  1  0
 12  8  2  0
 13 11  2  0
 13 12  1  0
 14  1  1  0
 14  2  1  0
 14  3  1  0
 14 11  1  0
 15  4  1  0
 15  5  1  0
 15  6  1  0
 15 12  1  0
 16  9  2  0
 17 13  1  0
M  END
>  <NAME>  (1066) 
3,5-DI-TERT-BUTYL-4-HYDROXYBENZALDEHYDE

>  <SYNONYMS>  (1066) 


>  <SPECTRUM TYPE>  (1066) 
MS1

>  <INSTRUMENT TYPE>  (1066) 
EI-B

>  <INSTRUMENT>  (1066) 
HITACHI M-80

>  <ION MODE>  (1066) 
P

>  <INCHIKEY>  (1066) 
DOZRDZLFLOODMB-UHFFFAOYSA-N

>  <FORMULA>  (1066) 
C15H22O2

>  <EXACT MASS>  (1066) 
234.161979944

>  <MW>  (1066) 
234

>  <ID>  (1066) 
JP010569

>  <CONTRIBUTOR>  (1066) 
University of Tokyo Team, {Faculty of Engineering, University of Tokyo

>  <COMMENT>  (1066) 
SMILES=O=Cc(c1)cc(C(C)(C)C)c(O)c1C(C)(C)C
cas=1620-98-0
InChI=InChI=1S/C15H22O2/c1-14(2,3)11-7-10(9-16)8-12(13(11)17)15(4,5)6/h7-9,17H,1-6H3
computed SMILES=O=CC=1C=C(C(O)=C(C1)C(C)(C)C)C(C)(C)C
accession=JP010569
date=2016.01.19 (Created 2008.10.21, modified 2011.05.06)
author=NARA WOMEN'S UNIVERSITY
license=CC BY-NC-SA
exact mass=234.16198
ionization energy=70 eV
ion type=[M]+*
computed spectral entropy=2.9859249428237096
computed normalized entropy=0.7556924238264184
SPLASH=splash10-014i-5390000000-70d0b568a8a86316d7ec
submitter=submitter = University of Tokyo Team (Faculty of Engineering, University of Tokyo)
MoNA Rating=3.75

>  <NUM PEAKS>  (1066) 
52

>  <MASS SPECTRAL PEAKS>  (1066) 
15 1.95
27 3.89
28 1.01
29 9.37
39 5.72
41 13.03
43 1.79
51 2.76
53 2.57
55 4.9
57 18.67
63 1.75
65 2.53
74 1.01
77 4.82
78 1.75
79 2.33
87 1.44
88 3.31
89 1.01
91 8.83
102 2.1
103 1.79
105 2.88
107 1.87
115 6.07
116 2.41
117 2.88
119 2.14
127 1.13
128 1.38
129 2.37
131 3.7
133 1.24
141 1.63
142 1.13
145 1.28
147 1.95
159 5.02
161 1.52
163 1.05
175 4.75
189 1.09
191 13.73
192 1.79
203 3.85
205 1.01
219 99.99
220 15.48
221 1.52
234 31
235 6.26

$$$$

     RDKit          2D

 13 13  0  0  0  0  0  0  0  0999 V2000
    5.1970    3.0000    0.0000 C   0  0  0  0  0  0  0  0  0  0  0  0
   -5.1970    3.0000    0.0000 C   0  0  0  0  0  0  0  0  0  0  0  0
    3.8981    2.2498    0.0000 C   0  0  0  0  0  0  0  0  0  0  0  0
   -3.8981    2.2498    0.0000 C   0  0  0  0  0  0  0  0  0  0  0  0
    1.3000    2.2494    0.0000 C   0  0  0  0  0  0  0  0  0  0  0  0
   -1.3000    2.2494    0.0000 C   0  0  0  0  0  0  0  0  0  0  0  0
   -0.0000   -0.0006    0.0000 C   0  0  0  0  0  0  0  0  0  0  0  0
    2.5989    2.9996    0.0000 N   0  0  0  0  0  0  0  0  0  0  0  0
   -2.5989    2.9996    0.0000 N   0  0  0  0  0  0  0  0  0  0  0  0
   -0.0000    2.9994    0.0000 N   0  0  0  0  0  0  0  0  0  0  0  0
    1.3000    0.7494    0.0000 N   0  0  0  0  0  0  0  0  0  0  0  0
   -1.3000    0.7494    0.0000 N   0  0  0  0  0  0  0  0  0  0  0  0
   -0.0000   -1.5006    0.0000 O   0  0  0  0  0  0  0  0  0  0  0  0
  3  1  1  0
  4  2  1  0
  8  3  1  0
  8  5  2  3
  9  4  1  0
  9  6  2  3
 10  5  1  0
 10  6  1  0
 11  5  1  0
 11  7  2  0
 12  6  1  0
 12  7  1  0
 13  7  1  0
M  END
>  <NAME>  (1067) 
4,6-BIS(ETHYLAMINO)-1,3,5-TRIAZIN-2(1H)-ONE

>  <SYNONYMS>  (1067) 


>  <SPECTRUM TYPE>  (1067) 
MS1

>  <INSTRUMENT TYPE>  (1067) 
EI-B

>  <INSTRUMENT>  (1067) 
HITACHI M-80

>  <ION MODE>  (1067) 
P

>  <INCHIKEY>  (1067) 
YQIXRXMOJFQVBV-UHFFFAOYSA-N

>  <FORMULA>  (1067) 
C7H13N5O

>  <EXACT MASS>  (1067) 
183.11201003600002

>  <MW>  (1067) 
183

>  <ID>  (1067) 
JP010568

>  <CONTRIBUTOR>  (1067) 
University of Tokyo Team, {Faculty of Engineering, University of Tokyo

>  <COMMENT>  (1067) 
SMILES=CCNC(N1)=NC(NCC)=NC(=O)1
cas=2599-11-3
InChI=InChI=1S/C7H13N5O/c1-3-8-5-10-6(9-4-2)12-7(13)11-5/h3-4H2,1-2H3,(H3,8,9,10,11,12,13)
computed SMILES=OC1=NC(=NCC)NC(=NCC)N1
accession=JP010568
date=2016.01.19 (Created 2008.10.21, modified 2011.05.06)
author=NARA WOMEN'S UNIVERSITY
license=CC BY-NC-SA
exact mass=183.11201
ionization energy=70 eV
ion type=[M]+*
computed spectral entropy=2.9083944681009837
computed normalized entropy=0.8054446371978606
SPLASH=splash10-053u-4900000000-294eae92d1aa0b55ca45
submitter=submitter = University of Tokyo Team (Faculty of Engineering, University of Tokyo)
MoNA Rating=3.75

>  <NUM PEAKS>  (1067) 
37

>  <MASS SPECTRAL PEAKS>  (1067) 
15 2.12
18 1.6
27 6.79
28 11.72
29 8.19
30 6.91
44 39.7
45 1.19
50 7.5
56 1.33
58 1.32
59 1.4
67 1.12
69 19.5
70 7.4
71 9.28
83 1
84 4.41
85 5.71
86 6.48
95 1
111 7.69
113 4.31
114 5.82
125 3.6
126 4.38
139 6.71
140 32.4
141 3.88
154 8.41
155 56.12
156 11.6
168 26.68
182 9.8
183 99.99
184 31.5
185 2.69

$$$$

     RDKit          2D

 23 23  0  0  0  0  0  0  0  0999 V2000
    6.4952   -2.2500    0.0000 C   0  0  0  0  0  0  0  0  0  0  0  0
    2.5981   -4.5000    0.0000 C   0  0  0  0  0  0  0  0  0  0  0  0
    5.1962   -1.5000    0.0000 C   0  0  0  0  0  0  0  0  0  0  0  0
    1.2990   -3.7500    0.0000 C   0  0  0  0  0  0  0  0  0  0  0  0
    3.8971   -2.2500    0.0000 C   0  0  0  0  0  0  0  0  0  0  0  0
    2.5981   -1.5000    0.0000 C   0  0  0  0  0  0  0  0  0  0  0  0
   -2.5986   -1.5008    0.0000 C   0  0  0  0  0  0  0  0  0  0  0  0
   -1.2986    0.7508    0.0000 C   0  0  0  0  0  0  0  0  0  0  0  0
   -2.5981    0.0000    0.0000 C   0  0  0  0  0  0  0  0  0  0  0  0
   -1.2995   -2.2508    0.0000 C   0  0  0  0  0  0  0  0  0  0  0  0
    0.0005    0.0008    0.0000 C   0  0  0  0  0  0  0  0  0  0  0  0
   -0.0000   -1.5000    0.0000 C   0  0  0  0  0  0  0  0  0  0  0  0
   -3.8971    0.7500    0.0000 C   0  0  0  0  0  0  0  0  0  0  0  0
   -3.1471    2.0490    0.0000 F   0  0  0  0  0  0  0  0  0  0  0  0
   -5.1962    1.5000    0.0000 F   0  0  0  0  0  0  0  0  0  0  0  0
   -4.6471   -0.5490    0.0000 F   0  0  0  0  0  0  0  0  0  0  0  0
    1.2990   -2.2500    0.0000 N   0  0  0  0  0  0  0  0  0  0  0  0
   -1.2993   -3.7508    0.0000 N   0  0  0  0  0  0  0  0  0  0  0  0
    1.2996    0.7506    0.0000 N   0  0  0  0  0  0  0  0  0  0  0  0
   -2.5982   -4.5010    0.0000 O   0  0  0  0  0  0  0  0  0  0  0  0
   -0.0001   -4.5006    0.0000 O   0  0  0  0  0  0  0  0  0  0  0  0
    1.2999    2.2506    0.0000 O   0  0  0  0  0  0  0  0  0  0  0  0
    2.5986    0.0004    0.0000 O   0  0  0  0  0  0  0  0  0  0  0  0
  3  1  1  0
  4  2  1  0
  5  3  1  0
  6  5  1  0
  9  7  2  0
  9  8  1  0
 10  7  1  0
 11  8  2  0
 12 10  2  0
 12 11  1  0
 13  9  1  0
 14 13  1  0
 15 13  1  0
 16 13  1  0
 17  4  1  0
 17  6  1  0
 17 12  1  0
 18 10  1  0
 19 11  1  0
 20 18  1  0
 21 18  2  0
 22 19  1  0
 23 19  2  0
M  CHG  4  18   1  19   1  20  -1  22  -1
M  END
>  <NAME>  (1068) 
N-BUTYL-N-ETHYL-2,6-DINITRO-4-TRIFLUOROMETHYLANILINE

>  <SYNONYMS>  (1068) 


>  <SPECTRUM TYPE>  (1068) 
MS1

>  <INSTRUMENT TYPE>  (1068) 
EI-B

>  <INSTRUMENT>  (1068) 
HITACHI M-80

>  <ION MODE>  (1068) 
P

>  <INCHIKEY>  (1068) 
SMDHCQAYESWHAE-UHFFFAOYSA-N

>  <FORMULA>  (1068) 
C13H16F3N3O4

>  <EXACT MASS>  (1068) 
335.109290652

>  <MW>  (1068) 
335

>  <ID>  (1068) 
JP010567

>  <CONTRIBUTOR>  (1068) 
University of Tokyo Team, {Faculty of Engineering, University of Tokyo

>  <COMMENT>  (1068) 
SMILES=CCCCN(CC)c(c([N+1]([O-1])=O)1)c([N+1]([O-1])=O)cc(c1)C(F)(F)F
InChI=InChI=1S/C13H16F3N3O4/c1-3-5-6-17(4-2)12-10(18(20)21)7-9(13(14,15)16)8-11(12)19(22)23/h7-8H,3-6H2,1-2H3
computed SMILES=O=N(=O)C=1C=C(C=C(C1N(CC)CCCC)N(=O)=O)C(F)(F)F
accession=JP010567
date=2016.01.19 (Created 2008.10.21, modified 2011.05.06)
author=NARA WOMEN'S UNIVERSITY
license=CC BY-NC-SA
exact mass=335.10929
ionization energy=70 eV
ion type=[M]+*
computed spectral entropy=3.1557493156721965
computed normalized entropy=0.7707581195754308
SPLASH=splash10-002f-7390000000-6fad44e9669f8687c290
submitter=submitter = University of Tokyo Team (Faculty of Engineering, University of Tokyo)
MoNA Rating=3.75

>  <NUM PEAKS>  (1068) 
60

>  <MASS SPECTRAL PEAKS>  (1068) 
18 6.31
27 13.84
28 13.2
29 37
30 5.18
32 2.51
39 3.97
41 14.82
42 3.16
43 9.47
55 3
56 2.19
57 7.04
75 1.78
105 6.8
125 1.05
126 2.02
127 1.54
131 1.21
133 1.3
140 1.7
143 1.62
144 1.3
145 5.91
146 1.46
147 1.54
153 2.75
158 1.7
159 4.21
160 5.83
161 1.13
166 1.13
171 1.05
172 3.32
173 1.94
174 2.43
185 1.05
186 1.94
187 2.83
188 2.1
189 1.13
198 1.05
199 1.21
200 1.54
201 2.1
202 2.43
206 2.67
218 1.38
248 1.94
264 16.11
265 1.38
276 9.8
277 1.05
292 99.99
293 10.04
294 1.05
316 2.67
318 5.75
320 1.13
335 6.4

$$$$

     RDKit          2D

 21 22  0  0  0  0  0  0  0  0999 V2000
    7.2886    6.3282    0.0000 C   0  0  0  0  0  0  0  0  0  0  0  0
    5.0602    8.0737    0.0000 C   0  0  0  0  0  0  0  0  0  0  0  0
    5.8210    6.0182    0.0000 C   0  0  0  0  0  0  0  0  0  0  0  0
    5.1107    6.5746    0.0000 C   0  0  0  0  0  0  0  0  0  0  0  0
   -2.5400    0.6600    0.0000 C   0  0  0  0  0  0  0  0  0  0  0  0
   -1.2400    1.4100    0.0000 C   0  0  0  0  0  0  0  0  0  0  0  0
   -1.2400   -1.5900    0.0000 C   0  0  0  0  0  0  0  0  0  0  0  0
    1.9553    2.5460    0.0000 C   0  0  0  0  0  0  0  0  0  0  0  0
   -2.5400   -0.8400    0.0000 C   0  0  0  0  0  0  0  0  0  0  0  0
    0.0600    0.6600    0.0000 C   0  0  0  0  0  0  0  0  0  0  0  0
    0.0600   -0.8400    0.0000 C   0  0  0  0  0  0  0  0  0  0  0  0
    2.3700   -0.0900    0.0000 C   0  0  0  0  0  0  0  0  0  0  0  0
   -3.8389   -1.5902    0.0000 Cl  0  0  0  0  0  0  0  0  0  0  0  0
    1.4900    1.1200    0.0000 N   0  0  0  0  0  0  0  0  0  0  0  0
    3.8700   -0.0900    0.0000 O   0  0  0  0  0  0  0  0  0  0  0  0
    5.3558    4.5922    0.0000 O   0  0  0  0  0  0  0  0  0  0  0  0
    3.8377    5.7812    0.0000 O   0  0  0  0  0  0  0  0  0  0  0  0
    1.4900   -1.3000    0.0000 O   0  0  0  0  0  0  0  0  0  0  0  0
    3.8882    4.2821    0.0000 P   0  0  0  0  0  0  0  0  0  0  0  0
    2.4030    4.4927    0.0000 S   0  0  0  0  0  0  0  0  0  0  0  0
    3.4229    2.8561    0.0000 S   0  0  0  0  0  0  0  0  0  0  0  0
  3  1  1  0
  4  2  1  0
  6  5  2  0
  9  5  1  0
  9  7  2  0
 10  6  1  0
 11  7  1  0
 11 10  2  0
 13  9  1  0
 14  8  1  0
 14 10  1  0
 14 12  1  0
 15 12  2  0
 16  3  1  0
 17  4  1  0
 18 11  1  0
 18 12  1  0
 19 16  1  0
 19 17  1  0
 20 19  2  0
 21  8  1  0
 21 19  1  0
M  END
>  <NAME>  (1069) 
O,O-DIETHYL S-(6-CHLOROBENZOXZAOLON-3-YL)METHYL PHOSPHORODITHIOATE

>  <SYNONYMS>  (1069) 
PHOSALONE

>  <SPECTRUM TYPE>  (1069) 
MS1

>  <INSTRUMENT TYPE>  (1069) 
EI-B

>  <INSTRUMENT>  (1069) 
HITACHI M-80

>  <ION MODE>  (1069) 
P

>  <INCHIKEY>  (1069) 
IOUNQDKNJZEDEP-UHFFFAOYSA-N

>  <FORMULA>  (1069) 
C12H15ClNO4PS2

>  <EXACT MASS>  (1069) 
366.98686427

>  <MW>  (1069) 
367

>  <ID>  (1069) 
JP010566

>  <CONTRIBUTOR>  (1069) 
University of Tokyo Team, {Faculty of Engineering, University of Tokyo

>  <COMMENT>  (1069) 
SMILES=CCOP(=S)(OCC)SCN(C(=O)1)c(c2)c(cc(Cl)c2)O1
InChI=InChI=1S/C12H15ClNO4PS2/c1-3-16-19(20,17-4-2)21-8-14-10-6-5-9(13)7-11(10)18-12(14)15/h5-7H,3-4,8H2,1-2H3
computed SMILES=O=C1OC2=CC(Cl)=CC=C2N1CSP(=S)(OCC)OCC
accession=JP010566
date=2016.01.19 (Created 2008.10.21, modified 2011.05.06)
author=NARA WOMEN'S UNIVERSITY
license=CC BY-NC-SA
exact mass=366.98686
ionization energy=70 eV
ion type=[M]+*
computed spectral entropy=3.423495376998897
computed normalized entropy=0.8201192547917308
SPLASH=splash10-001i-3901000000-80a2a63054e8b0fc3477
submitter=submitter = University of Tokyo Team (Faculty of Engineering, University of Tokyo)
MoNA Rating=3.75

>  <NUM PEAKS>  (1069) 
65

>  <MASS SPECTRAL PEAKS>  (1069) 
39 1.72
41 1.67
45 5.02
46 4.31
47 4.56
50 3.29
51 4.21
61 1.52
62 1.72
63 6.84
64 2.53
65 20.58
74 1.01
75 9.88
76 7.91
77 2.43
78 2.48
80 1.82
85 1.06
90 1.57
91 1.62
93 8.92
95 1.17
97 29.3
99 5.07
101 1.32
102 9.38
103 2.69
108 1.72
109 1.32
111 20.28
112 3.29
113 8.36
114 1.16
121 49.88
122 2.08
125 16.52
126 1.98
127 2.74
129 14.7
131 1.47
138 14.85
139 1.28
140 6.79
141 1.93
142 1.21
143 1.67
153 16.22
154 28.08
155 2.74
156 1.62
157 3.7
169 6.03
170 4.21
171 3.9
172 1.37
182 99.99
183 10.75
184 33.15
185 5.58
199 5.93
367 26.51
368 4.46
369 11.02
370 1.77

$$$$

     RDKit          2D

 21 22  0  0  0  0  0  0  0  0999 V2000
    4.2227   -4.6876    0.0000 C   0  0  0  0  0  0  0  0  0  0  0  0
    1.6233   -0.1870    0.0000 C   0  0  0  0  0  0  0  0  0  0  0  0
    4.2219   -3.1872    0.0000 C   0  0  0  0  0  0  0  0  0  0  0  0
   -2.2729   -5.4382    0.0000 C   0  0  0  0  0  0  0  0  0  0  0  0
    0.3257   -5.4386    0.0000 C   0  0  0  0  0  0  0  0  0  0  0  0
   -0.9747   -3.1872    0.0000 C   0  0  0  0  0  0  0  0  0  0  0  0
   -3.5725   -3.1876    0.0000 C   0  0  0  0  0  0  0  0  0  0  0  0
   -0.9740   -4.6880    0.0000 C   0  0  0  0  0  0  0  0  0  0  0  0
   -3.5721   -4.6884    0.0000 C   0  0  0  0  0  0  0  0  0  0  0  0
    1.6246   -4.6884    0.0000 C   0  0  0  0  0  0  0  0  0  0  0  0
    0.3242   -2.4370    0.0000 C   0  0  0  0  0  0  0  0  0  0  0  0
    1.6239   -3.1876    0.0000 C   0  0  0  0  0  0  0  0  0  0  0  0
   -4.8711   -5.4384    0.0000 C   0  0  0  0  0  0  0  0  0  0  0  0
   -6.1711   -3.1868    0.0000 C   0  0  0  0  0  0  0  0  0  0  0  0
   -4.8713   -6.9384    0.0000 N   0  0  0  0  0  0  0  0  0  0  0  0
   -7.4703   -2.4370    0.0000 N   0  0  0  0  0  0  0  0  0  0  0  0
   -4.8721   -2.4368    0.0000 N   0  0  0  0  0  0  0  0  0  0  0  0
   -6.1706   -4.6876    0.0000 N   0  0  0  0  0  0  0  0  0  0  0  0
    2.9239   -5.4380    0.0000 O   0  0  0  0  0  0  0  0  0  0  0  0
    0.3242   -0.9370    0.0000 O   0  0  0  0  0  0  0  0  0  0  0  0
    2.9228   -2.4374    0.0000 O   0  0  0  0  0  0  0  0  0  0  0  0
  8  4  1  0
  8  5  2  0
  8  6  1  0
  9  4  1  0
  9  7  2  0
 10  5  1  0
 11  6  2  0
 12 10  2  0
 12 11  1  0
 13  9  1  0
 15 13  2  0
 16 14  2  0
 17  7  1  0
 17 14  1  0
 18 13  1  0
 18 14  1  0
 19  1  1  0
 19 10  1  0
 20  2  1  0
 20 11  1  0
 21  3  1  0
 21 12  1  0
M  END
>  <NAME>  (1070) 
2,4-DIAMINO-5-(3,4,5-TRIMETHOXYBENZYL)PYR-IMIDINE

>  <SYNONYMS>  (1070) 


>  <SPECTRUM TYPE>  (1070) 
MS1

>  <INSTRUMENT TYPE>  (1070) 
EI-B

>  <INSTRUMENT>  (1070) 
HITACHI M-80

>  <ION MODE>  (1070) 
P

>  <INCHIKEY>  (1070) 
IEDVJHCEMCRBQM-UHFFFAOYSA-N

>  <FORMULA>  (1070) 
C14H18N4O3

>  <EXACT MASS>  (1070) 
290.13789043599996

>  <MW>  (1070) 
290

>  <ID>  (1070) 
JP010564

>  <CONTRIBUTOR>  (1070) 
University of Tokyo Team, {Faculty of Engineering, University of Tokyo

>  <COMMENT>  (1070) 
SMILES=COc(c1)c(OC)c(OC)cc(Cc(c2)c(N)nc(N)n2)1
InChI=InChI=1S/C14H18N4O3/c1-19-10-5-8(6-11(20-2)12(10)21-3)4-9-7-17-14(16)18-13(9)15/h5-7H,4H2,1-3H3,(H4,15,16,17,18)
computed SMILES=N=C1NC=C(C(=N)N1)CC2=CC(OC)=C(OC)C(OC)=C2
accession=JP010564
date=2016.01.19 (Created 2008.10.21, modified 2011.05.06)
author=NARA WOMEN'S UNIVERSITY
license=CC BY-NC-SA
exact mass=290.13789
ionization energy=70 eV
ion type=[M]+*
computed spectral entropy=3.8321378786604354
computed normalized entropy=0.8184601611463477
SPLASH=splash10-0006-5390000000-e68103f64cbb997e5776
submitter=submitter = University of Tokyo Team (Faculty of Engineering, University of Tokyo)
MoNA Rating=3.75

>  <NUM PEAKS>  (1070) 
108

>  <MASS SPECTRAL PEAKS>  (1070) 
15 10.91
27 1.73
28 19.2
29 1.78
32 3.17
39 5.43
41 1.5
42 2.08
43 21.09
50 1.88
51 3.69
52 3.7
53 5.22
54 3.89
55 1.4
63 3.18
64 1.47
65 2.9
66 4.11
67 1.58
68 1.8
69 3.79
75 1.6
76 1.99
77 3.97
78 2.3
79 2.49
80 1.98
81 13
89 1.7
90 1.92
91 2.09
92 2.4
93 1.69
94 1.38
95 3
96 1.28
102 2.1
103 1.51
104 1.5
105 2.29
106 1.72
107 1.3
109 1.59
116 1.3
117 1.57
118 1.91
119 3.33
120 1.61
121 1.4
122 2.19
123 18
124 1.98
129 1.63
130 1.8
131 1.72
132 1.1
133 1.21
134 1.11
137 1.2
144 1.33
145 3.48
146 2.1
147 3.6
148 1.92
159 1.6
160 1.68
161 2.8
171 1.5
172 2.61
173 2.7
174 1.29
175 1.29
183 1.1
184 1.83
185 2
187 1.72
188 1.3
189 6.61
190 1.27
200 7.2
201 3.69
212 1.3
214 1.41
215 4.4
216 2.73
217 3.2
227 1.39
228 2.68
229 1.6
231 2.22
232 1.71
233 1.1
242 1.43
243 13.5
244 3.21
245 1.28
247 1
257 2.19
258 1.8
259 25.91
260 4.63
275 22.41
276 3.49
289 4.1
290 99.99
291 17.32
292 1.69

$$$$

     RDKit          2D

  6  6  0  0  0  0  0  0  0  0999 V2000
   -0.7500    1.0300    0.0000 C   0  0  0  0  0  0  0  0  0  0  0  0
   -1.2100   -0.3900    0.0000 C   0  0  0  0  0  0  0  0  0  0  0  0
    1.2100   -0.3900    0.0000 C   0  0  0  0  0  0  0  0  0  0  0  0
    0.7500    1.0300    0.0000 N   0  0  0  0  0  0  0  0  0  0  0  0
    2.6377   -0.8500    0.0000 O   0  0  0  0  0  0  0  0  0  0  0  0
    0.0000   -1.2800    0.0000 S   0  0  0  0  0  0  0  0  0  0  0  0
  2  1  2  0
  4  1  1  0
  4  3  2  0
  5  3  1  0
  6  2  1  0
  6  3  1  0
M  END
>  <NAME>  (1071) 
2-THIAZOLONE

>  <SYNONYMS>  (1071) 


>  <SPECTRUM TYPE>  (1071) 
MS1

>  <INSTRUMENT TYPE>  (1071) 
EI-B

>  <INSTRUMENT>  (1071) 
HITACHI M-80

>  <ION MODE>  (1071) 
P

>  <INCHIKEY>  (1071) 
CZWWCTHQXBMHDA-UHFFFAOYSA-N

>  <FORMULA>  (1071) 
C3H3NOS

>  <EXACT MASS>  (1071) 
100.993534716

>  <MW>  (1071) 
101

>  <ID>  (1071) 
JP010563

>  <CONTRIBUTOR>  (1071) 
University of Tokyo Team, {Faculty of Engineering, University of Tokyo

>  <COMMENT>  (1071) 
SMILES=O=C(N1)SC=C1
InChI=InChI=1S/C3H3NOS/c5-3-4-1-2-6-3/h1-2H,(H,4,5)
computed SMILES=OC1=NC=CS1
accession=JP010563
date=2016.01.19 (Created 2008.10.21, modified 2011.05.06)
author=NARA WOMEN'S UNIVERSITY
license=CC BY-NC-SA
exact mass=100.99353
ionization energy=70 eV
ion type=[M]+*
computed spectral entropy=2.63317952292359
computed normalized entropy=0.7467130784111211
SPLASH=splash10-0f92-9200000000-07f6ace203045ac88eec
submitter=submitter = University of Tokyo Team (Faculty of Engineering, University of Tokyo)
MoNA Rating=3.75

>  <NUM PEAKS>  (1071) 
34

>  <MASS SPECTRAL PEAKS>  (1071) 
12 2.09
13 1.9
14 4.61
18 3.48
25 2.22
26 6.59
27 7.53
28 88.9
29 4.01
32 12.52
33 1.8
38 5.01
39 5.7
40 15.31
41 4.09
43 4.72
44 11.2
45 52.01
46 80.5
47 3.68
48 3.3
56 3.01
57 13.02
58 17.69
59 1.98
60 3.2
70 3.21
71 1.2
73 44.4
74 1.49
75 1.6
101 99.99
102 5.18
103 4.48

$$$$

     RDKit          2D

  9  8  0  0  0  0  0  0  0  0999 V2000
    1.6238    3.1875    0.0000 C   0  0  0  0  0  0  0  0  0  0  0  0
   -2.2733    3.9375    0.0000 C   0  0  0  0  0  0  0  0  0  0  0  0
   -3.5724    3.1875    0.0000 C   0  0  0  0  0  0  0  0  0  0  0  0
   -0.9743    3.1875    0.0000 C   0  0  0  0  0  0  0  0  0  0  0  0
   -4.8714    3.9375    0.0000 Br  0  0  0  0  0  0  0  0  0  0  0  0
   -3.5724    1.6875    0.0000 Br  0  0  0  0  0  0  0  0  0  0  0  0
   -2.2733    5.4375    0.0000 O   0  0  0  0  0  0  0  0  0  0  0  0
   -0.9743    1.6875    0.0000 O   0  0  0  0  0  0  0  0  0  0  0  0
    0.3248    3.9375    0.0000 O   0  0  0  0  0  0  0  0  0  0  0  0
  3  2  1  0
  4  2  1  0
  5  3  1  0
  6  3  1  0
  7  2  2  0
  8  4  2  0
  9  1  1  0
  9  4  1  0
M  END
>  <NAME>  (1072) 
METHYL DIBROMOPYRUVATE

>  <SYNONYMS>  (1072) 


>  <SPECTRUM TYPE>  (1072) 
MS1

>  <INSTRUMENT TYPE>  (1072) 
EI-B

>  <INSTRUMENT>  (1072) 
HITACHI M-80

>  <ION MODE>  (1072) 
P

>  <INCHIKEY>  (1072) 
BBEUKZFDZWGLQL-UHFFFAOYSA-N

>  <FORMULA>  (1072) 
C4H4Br2O3

>  <EXACT MASS>  (1072) 
257.852718188

>  <MW>  (1072) 
258

>  <ID>  (1072) 
JP010562

>  <CONTRIBUTOR>  (1072) 
University of Tokyo Team, {Faculty of Engineering, University of Tokyo

>  <COMMENT>  (1072) 
SMILES=COC(=O)C(=O)C(Br)Br
InChI=InChI=1S/C4H4Br2O3/c1-9-4(8)2(7)3(5)6/h3H,1H3
computed SMILES=O=C(OC)C(=O)C(Br)Br
accession=JP010562
date=2016.01.19 (Created 2008.10.21, modified 2011.05.06)
author=NARA WOMEN'S UNIVERSITY
license=CC BY-NC-SA
exact mass=257.85272
ionization energy=70 eV
ion type=[M]+*
computed spectral entropy=3.3661061591959567
computed normalized entropy=0.8124539464657163
SPLASH=splash10-06di-9300000000-aa08584b93435fdf9c7e
submitter=submitter = University of Tokyo Team (Faculty of Engineering, University of Tokyo)
MoNA Rating=3.75

>  <NUM PEAKS>  (1072) 
63

>  <MASS SPECTRAL PEAKS>  (1072) 
12 1.83
13 7.22
14 6.54
15 70
16 3.35
17 19.58
18 76
25 2.93
26 2.72
27 10.63
28 43.02
29 22.87
30 6.39
31 2.83
32 9.05
36 2.31
39 1.94
40 1.62
41 19.1
42 16.23
43 9.05
44 3.93
45 10.78
49 1.94
53 4.92
55 1.73
57 2.2
59 99.99
60 2.3
76 1.05
77 2.51
79 9.11
80 4.08
81 8.37
82 3.51
91 4.92
92 15.02
93 8.37
94 15.49
95 3.87
105 1.36
107 3.87
109 2.46
120 47
121 5.44
122 47.42
123 5.97
135 3.45
137 4.24
171 13.97
173 28.73
175 13.24
180 1.2
182 1.05
199 3.3
200 2.36
201 6.28
202 1.1
203 2.88
230 1.57
232 3.4
234 1.47
260 0.99

$$$$

     RDKit          2D

 15 16  0  0  0  0  0  0  0  0999 V2000
    3.7781    5.7300    0.0000 C   0  0  0  0  0  0  0  0  0  0  0  0
   -2.7200   -1.0200    0.0000 C   0  0  0  0  0  0  0  0  0  0  0  0
   -2.7200    0.4800    0.0000 C   0  0  0  0  0  0  0  0  0  0  0  0
    2.4800   -1.0200    0.0000 C   0  0  0  0  0  0  0  0  0  0  0  0
   -1.4200   -1.7700    0.0000 C   0  0  0  0  0  0  0  0  0  0  0  0
    1.1800   -1.7700    0.0000 C   0  0  0  0  0  0  0  0  0  0  0  0
   -1.4200    1.2300    0.0000 C   0  0  0  0  0  0  0  0  0  0  0  0
    2.4800    0.4800    0.0000 C   0  0  0  0  0  0  0  0  0  0  0  0
   -0.1200   -1.0200    0.0000 C   0  0  0  0  0  0  0  0  0  0  0  0
   -0.1200    0.4800    0.0000 C   0  0  0  0  0  0  0  0  0  0  0  0
    1.1800    1.2300    0.0000 C   0  0  0  0  0  0  0  0  0  0  0  0
    2.4790    3.4800    0.0000 C   0  0  0  0  0  0  0  0  0  0  0  0
    2.4790    4.9800    0.0000 N   0  0  0  0  0  0  0  0  0  0  0  0
    3.7781    2.7300    0.0000 O   0  0  0  0  0  0  0  0  0  0  0  0
    1.1800    2.7300    0.0000 O   0  0  0  0  0  0  0  0  0  0  0  0
  3  2  2  0
  5  2  1  0
  6  4  2  0
  7  3  1  0
  8  4  1  0
  9  5  2  0
  9  6  1  0
 10  7  2  0
 10  9  1  0
 11  8  2  0
 11 10  1  0
 13  1  1  0
 13 12  2  3
 14 12  1  0
 15 11  1  0
 15 12  1  0
M  END
>  <NAME>  (1073) 
1-NAPHTHYL METHYLCARBAMATE

>  <SYNONYMS>  (1073) 


>  <SPECTRUM TYPE>  (1073) 
MS1

>  <INSTRUMENT TYPE>  (1073) 
EI-B

>  <INSTRUMENT>  (1073) 
HITACHI M-80

>  <ION MODE>  (1073) 
P

>  <INCHIKEY>  (1073) 
CVXBEEMKQHEXEN-UHFFFAOYSA-N

>  <FORMULA>  (1073) 
C12H11NO2

>  <EXACT MASS>  (1073) 
201.078978592

>  <MW>  (1073) 
201

>  <ID>  (1073) 
JP010560

>  <CONTRIBUTOR>  (1073) 
University of Tokyo Team, {Faculty of Engineering, University of Tokyo

>  <COMMENT>  (1073) 
SMILES=CNC(=O)Oc(c1)c(c2)c(ccc2)cc1
InChI=InChI=1S/C12H11NO2/c1-13-12(14)15-11-8-4-6-9-5-2-3-7-10(9)11/h2-8H,1H3,(H,13,14)
computed SMILES=OC(=NC)OC1=CC=CC=2C=CC=CC12
accession=JP010560
date=2016.01.19 (Created 2008.10.21, modified 2011.05.06)
author=NARA WOMEN'S UNIVERSITY
license=CC BY-NC-SA
exact mass=201.07898
ionization energy=70 eV
ion type=[M]+*
computed spectral entropy=2.309450930425822
computed normalized entropy=0.6858473526025478
SPLASH=splash10-00kf-3900000000-f8d105dabb5ffb01e936
submitter=submitter = University of Tokyo Team (Faculty of Engineering, University of Tokyo)
MoNA Rating=3.75

>  <NUM PEAKS>  (1073) 
29

>  <MASS SPECTRAL PEAKS>  (1073) 
15 5.75
27 2.37
28 10.93
29 1.37
32 1.08
39 4.31
50 1.94
51 2.44
58 8.84
62 2.73
63 6.83
64 1.01
65 2.95
74 1.65
75 1.87
77 1.22
87 1.51
88 1.65
89 6.47
113 1.65
114 2.44
115 46
116 25.81
117 2.3
127 2.59
143 1.87
144 99.99
145 11
201 3.38

$$$$

     RDKit          2D

 13 13  0  0  0  0  0  0  0  0999 V2000
   -3.0977    0.5778    0.0000 C   0  0  0  0  0  0  0  0  0  0  0  0
   -4.0655   -1.3099    0.0000 C   0  0  0  0  0  0  0  0  0  0  0  0
   -2.1778   -2.2777    0.0000 C   0  0  0  0  0  0  0  0  0  0  0  0
   -0.7500    1.0300    0.0000 C   0  0  0  0  0  0  0  0  0  0  0  0
   -1.2100   -0.3900    0.0000 C   0  0  0  0  0  0  0  0  0  0  0  0
    0.7500    1.0300    0.0000 C   0  0  0  0  0  0  0  0  0  0  0  0
    3.1239    2.0857    0.0000 C   0  0  0  0  0  0  0  0  0  0  0  0
   -2.6377   -0.8500    0.0000 C   0  0  0  0  0  0  0  0  0  0  0  0
    4.0061    3.2988    0.0000 N   0  0  0  0  0  0  0  0  0  0  0  0
    1.6322    2.2431    0.0000 N   0  0  0  0  0  0  0  0  0  0  0  0
    1.2100   -0.3900    0.0000 N   0  0  0  0  0  0  0  0  0  0  0  0
    3.7334    0.7151    0.0000 O   0  0  0  0  0  0  0  0  0  0  0  0
   -0.0000   -1.2800    0.0000 O   0  0  0  0  0  0  0  0  0  0  0  0
  5  4  2  0
  6  4  1  0
  8  1  1  0
  8  2  1  0
  8  3  1  0
  8  5  1  0
  9  7  2  0
 10  6  2  3
 10  7  1  0
 11  6  1  0
 12  7  1  0
 13  5  1  0
 13 11  1  0
M  END
>  <NAME>  (1074) 
3-(5-TERT-BUTYL-3-ISOXAZOLYL)UREA

>  <SYNONYMS>  (1074) 


>  <SPECTRUM TYPE>  (1074) 
MS1

>  <INSTRUMENT TYPE>  (1074) 
EI-B

>  <INSTRUMENT>  (1074) 
HITACHI M-80

>  <ION MODE>  (1074) 
P

>  <INCHIKEY>  (1074) 
PMXLTKAKSSLLDX-UHFFFAOYSA-N

>  <FORMULA>  (1074) 
C8H13N3O2

>  <EXACT MASS>  (1074) 
183.100776656

>  <MW>  (1074) 
183

>  <ID>  (1074) 
JP010559

>  <CONTRIBUTOR>  (1074) 
University of Tokyo Team, {Faculty of Engineering, University of Tokyo

>  <COMMENT>  (1074) 
SMILES=NC(=O)Nc(n1)cc(o1)C(C)(C)C
InChI=InChI=1S/C8H13N3O2/c1-8(2,3)5-4-6(11-13-5)10-7(9)12/h4H,1-3H3,(H3,9,10,11,12)
computed SMILES=N=C(O)N=C1C=C(ON1)C(C)(C)C
accession=JP010559
date=2016.01.19 (Created 2008.10.21, modified 2011.05.06)
author=NARA WOMEN'S UNIVERSITY
license=CC BY-NC-SA
exact mass=183.10078
ionization energy=70 eV
ion type=[M]+*
computed spectral entropy=3.2600250214822766
computed normalized entropy=0.8135148416148377
SPLASH=splash10-002f-9500000000-66cb4064eb4deba5a046
submitter=submitter = University of Tokyo Team (Faculty of Engineering, University of Tokyo)
MoNA Rating=3.75

>  <NUM PEAKS>  (1074) 
55

>  <MASS SPECTRAL PEAKS>  (1074) 
15 3.2
16 1.42
17 1.21
18 4.09
27 11.03
28 22.39
29 16.48
30 2.4
32 2.47
38 1.4
39 20.57
40 4.49
41 33.82
42 6.58
43 17.51
44 30.53
50 1.09
51 3.02
52 2.48
53 7.69
54 3.58
55 16.72
56 3.58
57 19.8
58 3.51
65 2.83
66 2.72
67 11.79
68 10.31
69 3.03
70 3.78
77 1.19
78 1.58
79 1.11
80 4.59
81 4.82
82 4.37
83 13.69
84 1.91
85 3.49
94 5.98
95 1.89
96 1.58
97 4.28
98 3.59
103 4.9
109 1.82
125 65.9
126 11.21
140 99.99
141 8.51
151 1.69
168 3.22
183 6.83
184 1.11

$$$$

     RDKit          2D

 13 14  0  0  0  0  0  0  0  0999 V2000
   -5.1968   -3.0006    0.0000 C   0  0  0  0  0  0  0  0  0  0  0  0
   -3.8971   -3.7512    0.0000 C   0  0  0  0  0  0  0  0  0  0  0  0
   -5.1975   -1.4998    0.0000 C   0  0  0  0  0  0  0  0  0  0  0  0
   -2.5982   -3.0010    0.0000 C   0  0  0  0  0  0  0  0  0  0  0  0
   -3.8986   -0.7496    0.0000 C   0  0  0  0  0  0  0  0  0  0  0  0
    1.3000   -0.7500    0.0000 C   0  0  0  0  0  0  0  0  0  0  0  0
    1.3000    0.7500    0.0000 C   0  0  0  0  0  0  0  0  0  0  0  0
   -2.5989   -1.5002    0.0000 C   0  0  0  0  0  0  0  0  0  0  0  0
   -1.3000   -0.7500    0.0000 C   0  0  0  0  0  0  0  0  0  0  0  0
   -1.3000    0.7500    0.0000 C   0  0  0  0  0  0  0  0  0  0  0  0
   -0.0000   -1.5000    0.0000 N   0  0  0  0  0  0  0  0  0  0  0  0
    0.0000    1.5000    0.0000 N   0  0  0  0  0  0  0  0  0  0  0  0
   -2.5989    1.5002    0.0000 O   0  0  0  0  0  0  0  0  0  0  0  0
  2  1  2  0
  3  1  1  0
  4  2  1  0
  5  3  2  0
  7  6  2  0
  8  4  2  0
  8  5  1  0
  9  8  1  0
 10  9  1  0
 11  6  1  0
 11  9  2  0
 12  7  1  0
 12 10  1  0
 13 10  2  0
M  END
>  <NAME>  (1075) 
2-HYDROXY-3-PHENYLPYRADINE

>  <SYNONYMS>  (1075) 


>  <SPECTRUM TYPE>  (1075) 
MS1

>  <INSTRUMENT TYPE>  (1075) 
EI-B

>  <INSTRUMENT>  (1075) 
HITACHI M-80

>  <ION MODE>  (1075) 
P

>  <INCHIKEY>  (1075) 
SYPKOIOSVWYKHO-UHFFFAOYSA-N

>  <FORMULA>  (1075) 
C10H8N2O

>  <EXACT MASS>  (1075) 
172.063662876

>  <MW>  (1075) 
172

>  <ID>  (1075) 
JP010558

>  <CONTRIBUTOR>  (1075) 
University of Tokyo Team, {Faculty of Engineering, University of Tokyo

>  <COMMENT>  (1075) 
SMILES=Oc(n2)c(ncc2)c(c1)cccc1
InChI=InChI=1S/C10H8N2O/c13-10-9(11-6-7-12-10)8-4-2-1-3-5-8/h1-7H,(H,12,13)
computed SMILES=O=C1NC=CN=C1C=2C=CC=CC2
accession=JP010558
date=2016.01.19 (Created 2008.10.21, modified 2011.05.06)
author=NARA WOMEN'S UNIVERSITY
license=CC BY-NC-SA
exact mass=172.06366
ionization energy=70 eV
ion type=[M]+*
computed spectral entropy=2.776738916014255
computed normalized entropy=0.752732354243119
SPLASH=splash10-00dl-3900000000-df4b11b7477e3b5a3896
submitter=submitter = University of Tokyo Team (Faculty of Engineering, University of Tokyo)
MoNA Rating=3.75

>  <NUM PEAKS>  (1075) 
40

>  <MASS SPECTRAL PEAKS>  (1075) 
26 1.35
27 1.76
28 8.45
38 1.19
39 4.87
40 7.2
41 4.35
42 1.14
50 3.47
51 6.53
52 2.22
61 1.14
62 3.27
63 7.05
64 1.76
68 1.14
72 1.66
74 1.14
75 1.97
76 6.22
77 11.61
78 1.92
87 1.04
88 1.87
89 17
90 15.76
91 1.92
103 10.78
104 14.41
105 1.3
116 6.22
117 53
118 6.01
143 7.46
144 70
145 8.4
171 4.72
172 99.99
173 14.1
174 0.98

$$$$

     RDKit          2D

 12 12  0  0  0  0  0  0  0  0999 V2000
   -2.5989    1.5002    0.0000 C   0  0  0  0  0  0  0  0  0  0  0  0
   -2.5989   -1.5002    0.0000 C   0  0  0  0  0  0  0  0  0  0  0  0
    2.5989    1.5002    0.0000 C   0  0  0  0  0  0  0  0  0  0  0  0
    2.5989   -1.5002    0.0000 C   0  0  0  0  0  0  0  0  0  0  0  0
   -1.3000    0.7500    0.0000 C   0  0  0  0  0  0  0  0  0  0  0  0
   -1.3000   -0.7500    0.0000 C   0  0  0  0  0  0  0  0  0  0  0  0
    1.3000    0.7500    0.0000 C   0  0  0  0  0  0  0  0  0  0  0  0
    1.3000   -0.7500    0.0000 C   0  0  0  0  0  0  0  0  0  0  0  0
    0.0000    1.5000    0.0000 C   0  0  0  0  0  0  0  0  0  0  0  0
   -0.0000   -1.5000    0.0000 C   0  0  0  0  0  0  0  0  0  0  0  0
    0.0000    3.0000    0.0000 O   0  0  0  0  0  0  0  0  0  0  0  0
   -0.0000   -3.0000    0.0000 O   0  0  0  0  0  0  0  0  0  0  0  0
  5  1  1  0
  6  2  1  0
  6  5  2  0
  7  3  1  0
  8  4  1  0
  8  7  2  0
  9  5  1  0
  9  7  1  0
 10  6  1  0
 10  8  1  0
 11  9  2  0
 12 10  2  0
M  END
>  <NAME>  (1076) 
DUROQUINONE

>  <SYNONYMS>  (1076) 
TETRAMETHYL-1,4-BENZOQUINONE

>  <SPECTRUM TYPE>  (1076) 
MS1

>  <INSTRUMENT TYPE>  (1076) 
EI-B

>  <INSTRUMENT>  (1076) 
HITACHI M-80

>  <ION MODE>  (1076) 
P

>  <INCHIKEY>  (1076) 
WAMKWBHYPYBEJY-UHFFFAOYSA-N

>  <FORMULA>  (1076) 
C10H12O2

>  <EXACT MASS>  (1076) 
164.083729624

>  <MW>  (1076) 
164

>  <ID>  (1076) 
JP010556

>  <CONTRIBUTOR>  (1076) 
University of Tokyo Team, {Faculty of Engineering, University of Tokyo

>  <COMMENT>  (1076) 
cas=527-17-3
SMILES=Cc(c(C)1)c(=O)c(C)c(C)c(=O)1
InChI=InChI=1S/C10H12O2/c1-5-6(2)10(12)8(4)7(3)9(5)11/h1-4H3
computed SMILES=O=C1C(=C(C(=O)C(=C1C)C)C)C
accession=JP010556
date=2016.01.19 (Created 2008.10.21, modified 2011.05.06)
author=NARA WOMEN'S UNIVERSITY
license=CC BY-NC-SA
exact mass=164.08373
ionization energy=70 eV
ion type=[M]+*
computed spectral entropy=3.2696610775252477
computed normalized entropy=0.8235316567944655
SPLASH=splash10-0h2r-9600000000-31ed0fd06f2ea5d82f03
submitter=submitter = University of Tokyo Team (Faculty of Engineering, University of Tokyo)
MoNA Rating=3.75

>  <NUM PEAKS>  (1076) 
53

>  <MASS SPECTRAL PEAKS>  (1076) 
15 2.4
17 1.7
18 7.5
26 4.3
27 40.4
28 16.2
29 5.2
32 2.1
38 3.5
39 42.8
40 3.1
41 6.9
43 5.5
50 11.2
51 21.7
52 15.3
53 42.6
54 53.6
55 9.1
62 1.4
63 3.9
64 1.1
65 6.8
66 3
67 10
77 14.5
78 3.3
79 6.5
80 1.7
81 1.8
82 15.4
83 3.8
91 20.2
92 3.1
93 52
94 4.7
103 1.5
105 2.6
107 9.6
108 17.8
109 2.2
110 4.5
117 1.5
119 1.9
121 99.99
122 9.1
135 22.8
136 62.6
137 6.3
149 2.6
164 85.2
165 10.2
166 1.9

$$$$

     RDKit          2D

 16 17  0  0  0  0  0  0  0  0999 V2000
    3.2481    2.1950    0.0000 C   0  0  0  0  0  0  0  0  0  0  0  0
   -7.1442    2.1950    0.0000 C   0  0  0  0  0  0  0  0  0  0  0  0
    1.9486    1.4442    0.0000 C   0  0  0  0  0  0  0  0  0  0  0  0
    3.2486    3.6958    0.0000 C   0  0  0  0  0  0  0  0  0  0  0  0
   -7.1447    3.6958    0.0000 C   0  0  0  0  0  0  0  0  0  0  0  0
   -5.8447    1.4442    0.0000 C   0  0  0  0  0  0  0  0  0  0  0  0
    0.6495    2.1942    0.0000 C   0  0  0  0  0  0  0  0  0  0  0  0
    1.9495    4.4458    0.0000 C   0  0  0  0  0  0  0  0  0  0  0  0
   -5.8457    4.4458    0.0000 C   0  0  0  0  0  0  0  0  0  0  0  0
   -4.5457    2.1942    0.0000 C   0  0  0  0  0  0  0  0  0  0  0  0
    0.6500    3.6950    0.0000 C   0  0  0  0  0  0  0  0  0  0  0  0
   -4.5462    3.6950    0.0000 C   0  0  0  0  0  0  0  0  0  0  0  0
   -1.9481    3.6950    0.0000 C   0  0  0  0  0  0  0  0  0  0  0  0
   -0.6490    4.4450    0.0000 N   0  0  0  0  0  0  0  0  0  0  0  0
   -3.2471    4.4450    0.0000 N   0  0  0  0  0  0  0  0  0  0  0  0
   -1.9481    2.1950    0.0000 O   0  0  0  0  0  0  0  0  0  0  0  0
  3  1  2  0
  4  1  1  0
  5  2  2  0
  6  2  1  0
  7  3  1  0
  8  4  2  0
  9  5  1  0
 10  6  2  0
 11  7  2  0
 11  8  1  0
 12  9  2  0
 12 10  1  0
 14 11  1  0
 14 13  2  3
 15 12  1  0
 15 13  1  0
 16 13  1  0
M  END
>  <NAME>  (1077) 
1,3-DIPHENYLUREA

>  <SYNONYMS>  (1077) 
CARBANILIDE

>  <SPECTRUM TYPE>  (1077) 
MS1

>  <INSTRUMENT TYPE>  (1077) 
EI-B

>  <INSTRUMENT>  (1077) 
HITACHI M-80

>  <ION MODE>  (1077) 
P

>  <INCHIKEY>  (1077) 
GWEHVDNNLFDJLR-UHFFFAOYSA-N

>  <FORMULA>  (1077) 
C13H12N2O

>  <EXACT MASS>  (1077) 
212.094963004

>  <MW>  (1077) 
212

>  <ID>  (1077) 
JP010555

>  <CONTRIBUTOR>  (1077) 
University of Tokyo Team, {Faculty of Engineering, University of Tokyo

>  <COMMENT>  (1077) 
SMILES=O=C(Nc(c2)cccc2)Nc(c1)cccc1
cas=102-07-8
InChI=InChI=1S/C13H12N2O/c16-13(14-11-7-3-1-4-8-11)15-12-9-5-2-6-10-12/h1-10H,(H2,14,15,16)
computed SMILES=OC(=NC=1C=CC=CC1)NC=2C=CC=CC2
accession=JP010555
date=2016.01.19 (Created 2008.10.21, modified 2011.05.06)
author=NARA WOMEN'S UNIVERSITY
license=CC BY-NC-SA
exact mass=212.09496
ionization energy=70 eV
ion type=[M]+*
computed spectral entropy=2.4047488616792703
computed normalized entropy=0.7141483799149687
SPLASH=splash10-0006-9000000000-8c505da083f3fc7e2911
submitter=submitter = University of Tokyo Team (Faculty of Engineering, University of Tokyo)
MoNA Rating=3.75

>  <NUM PEAKS>  (1077) 
29

>  <MASS SPECTRAL PEAKS>  (1077) 
18 1.32
27 1.23
28 2.64
37 0.97
38 2.89
39 10.25
40 2.01
41 1.7
50 2.2
51 7.32
52 2.26
54 1.01
62 1.04
63 4.18
64 5.25
65 16
66 10.66
67 1.26
77 12.13
78 1.26
83 1.16
91 5.88
92 10.21
93 99.99
94 6.85
119 7.13
120 1.89
212 17.16
213 2.64

$$$$

     RDKit          2D

  7  7  0  0  0  0  0  0  0  0999 V2000
   -0.0000   -1.9300    0.0000 C   0  0  0  0  0  0  0  0  0  0  0  0
    0.0000    2.5700    0.0000 C   0  0  0  0  0  0  0  0  0  0  0  0
   -1.3000    1.8200    0.0000 C   0  0  0  0  0  0  0  0  0  0  0  0
    1.3000    1.8200    0.0000 C   0  0  0  0  0  0  0  0  0  0  0  0
   -1.3000    0.3200    0.0000 C   0  0  0  0  0  0  0  0  0  0  0  0
    1.3000    0.3200    0.0000 C   0  0  0  0  0  0  0  0  0  0  0  0
   -0.0000   -0.4300    0.0000 C   0  0  0  0  0  0  0  0  0  0  0  0
  3  2  1  0
  4  2  1  0
  5  3  1  0
  6  4  1  0
  7  1  2  0
  7  5  1  0
  7  6  1  0
M  END
>  <NAME>  (1078) 
METHYLENECYCLOHEXANE

>  <SYNONYMS>  (1078) 


>  <SPECTRUM TYPE>  (1078) 
MS1

>  <INSTRUMENT TYPE>  (1078) 
EI-B

>  <INSTRUMENT>  (1078) 
HITACHI M-80

>  <ION MODE>  (1078) 
P

>  <INCHIKEY>  (1078) 
YULMNMJFAZWLLN-UHFFFAOYSA-N

>  <FORMULA>  (1078) 
C7H12

>  <EXACT MASS>  (1078) 
96.093900384

>  <MW>  (1078) 
96

>  <ID>  (1078) 
JP010554

>  <CONTRIBUTOR>  (1078) 
University of Tokyo Team, {Faculty of Engineering, University of Tokyo

>  <COMMENT>  (1078) 
SMILES=C=C(C1)CCCC1
cas=1192-37-6
InChI=InChI=1S/C7H12/c1-7-5-3-2-4-6-7/h1-6H2
computed SMILES=C=C1CCCCC1
accession=JP010554
date=2016.01.19 (Created 2008.10.21, modified 2011.05.06)
author=NARA WOMEN'S UNIVERSITY
license=CC BY-NC-SA
exact mass=96.0939
ionization energy=70 eV
ion type=[M]+*
computed spectral entropy=2.9585198775907546
computed normalized entropy=0.8255906912732477
SPLASH=splash10-0159-9000000000-eb9a896d633009d80487
submitter=submitter = University of Tokyo Team (Faculty of Engineering, University of Tokyo)
MoNA Rating=3.75

>  <NUM PEAKS>  (1078) 
36

>  <MASS SPECTRAL PEAKS>  (1078) 
15 3.2
18 1.5
26 4
27 28.6
28 9.7
29 11.2
38 5.2
39 52
40 12.7
41 32.5
42 6.5
50 5.1
51 9.9
52 5
53 25.9
54 37.4
55 35.6
56 3
62 1.7
63 3.5
65 7.6
66 7.4
67 74.4
68 52.4
69 3.8
77 6.5
78 2
79 12.1
80 2.2
81 99.99
82 7.5
83 1.5
91 3.1
95 7.4
96 44.9
97 3.7

$$$$

     RDKit          2D

 12 12  0  0  0  0  0  0  0  0999 V2000
   -3.2527   -0.3801    0.0000 C   0  0  0  0  0  0  0  0  0  0  0  0
    0.6489   -2.6180    0.0000 C   0  0  0  0  0  0  0  0  0  0  0  0
   -0.6501   -1.8680    0.0000 C   0  0  0  0  0  0  0  0  0  0  0  0
    1.9435   -1.8758    0.0000 C   0  0  0  0  0  0  0  0  0  0  0  0
    0.6449    0.3750    0.0000 C   0  0  0  0  0  0  0  0  0  0  0  0
   -1.9549    0.3720    0.0000 C   0  0  0  0  0  0  0  0  0  0  0  0
   -0.6546   -0.3758    0.0000 C   0  0  0  0  0  0  0  0  0  0  0  0
    1.9439   -0.3750    0.0000 C   0  0  0  0  0  0  0  0  0  0  0  0
    3.2431    0.3748    0.0000 N   0  0  0  0  0  0  0  0  0  0  0  0
   -1.9574    1.8720    0.0000 O   0  0  0  0  0  0  0  0  0  0  0  0
    4.5420   -0.3754    0.0000 O   0  0  0  0  0  0  0  0  0  0  0  0
    3.2433    1.8748    0.0000 O   0  0  0  0  0  0  0  0  0  0  0  0
  3  2  2  0
  4  2  1  0
  6  1  1  0
  7  3  1  0
  7  5  2  0
  7  6  1  0
  8  4  2  0
  8  5  1  0
  9  8  1  0
 10  6  2  0
 11  9  1  0
 12  9  2  0
M  CHG  2   9   1  11  -1
M  END
>  <NAME>  (1079) 
3'-NITROACETOPHENONE

>  <SYNONYMS>  (1079) 


>  <SPECTRUM TYPE>  (1079) 
MS1

>  <INSTRUMENT TYPE>  (1079) 
EI-B

>  <INSTRUMENT>  (1079) 
HITACHI M-80

>  <ION MODE>  (1079) 
P

>  <INCHIKEY>  (1079) 
ARKIFHPFTHVKDT-UHFFFAOYSA-N

>  <FORMULA>  (1079) 
C8H7NO3

>  <EXACT MASS>  (1079) 
165.04259308399998

>  <MW>  (1079) 
165

>  <ID>  (1079) 
JP010553

>  <CONTRIBUTOR>  (1079) 
University of Tokyo Team, {Faculty of Engineering, University of Tokyo

>  <COMMENT>  (1079) 
SMILES=CC(=O)c(c1)cc(cc1)[N+1]([O-1])=O
cas=121-89-1
InChI=InChI=1S/C8H7NO3/c1-6(10)7-3-2-4-8(5-7)9(11)12/h2-5H,1H3
computed SMILES=O=C(C1=CC=CC(=C1)N(=O)=O)C
accession=JP010553
date=2016.01.19 (Created 2008.10.21, modified 2011.05.06)
author=NARA WOMEN'S UNIVERSITY
license=CC BY-NC-SA
exact mass=165.04259
ionization energy=70 eV
ion type=[M]+*
computed spectral entropy=2.598674765996327
computed normalized entropy=0.7498190395572377
SPLASH=splash10-0udi-7900000000-3c92945b62ca79c2b5e9
submitter=submitter = University of Tokyo Team (Faculty of Engineering, University of Tokyo)
MoNA Rating=3.75

>  <NUM PEAKS>  (1079) 
32

>  <MASS SPECTRAL PEAKS>  (1079) 
15 2.58
30 3.43
37 1.07
38 1.98
39 2.95
42 1.62
43 30.66
46 1.43
50 14.42
51 5.86
61 1.14
62 2.32
63 4.83
64 2.37
65 3.72
73 1.13
74 7.32
75 9.32
76 23.27
77 7.08
89 2.37
90 1.14
91 6.78
92 5.19
104 30.51
105 2.51
119 1.39
122 2.2
150 99.99
151 8.16
165 23.19
166 2.41

$$$$

     RDKit          2D

 19 18  0  0  0  0  0  0  0  0999 V2000
  -16.2380   10.1250    0.0000 C   0  0  0  0  0  0  0  0  0  0  0  0
    5.8457    9.3750    0.0000 C   0  0  0  0  0  0  0  0  0  0  0  0
  -14.9389    9.3750    0.0000 C   0  0  0  0  0  0  0  0  0  0  0  0
    4.5466   10.1250    0.0000 C   0  0  0  0  0  0  0  0  0  0  0  0
  -13.6399   10.1250    0.0000 C   0  0  0  0  0  0  0  0  0  0  0  0
  -12.3409    9.3750    0.0000 C   0  0  0  0  0  0  0  0  0  0  0  0
  -11.0418   10.1250    0.0000 C   0  0  0  0  0  0  0  0  0  0  0  0
   -9.7428    9.3750    0.0000 C   0  0  0  0  0  0  0  0  0  0  0  0
   -8.4437   10.1250    0.0000 C   0  0  0  0  0  0  0  0  0  0  0  0
   -7.1447    9.3750    0.0000 C   0  0  0  0  0  0  0  0  0  0  0  0
   -5.8457   10.1250    0.0000 C   0  0  0  0  0  0  0  0  0  0  0  0
   -4.5466    9.3750    0.0000 C   0  0  0  0  0  0  0  0  0  0  0  0
   -3.2476   10.1250    0.0000 C   0  0  0  0  0  0  0  0  0  0  0  0
   -1.9486    9.3750    0.0000 C   0  0  0  0  0  0  0  0  0  0  0  0
   -0.6495   10.1250    0.0000 C   0  0  0  0  0  0  0  0  0  0  0  0
    0.6495    9.3750    0.0000 C   0  0  0  0  0  0  0  0  0  0  0  0
    1.9486   10.1250    0.0000 C   0  0  0  0  0  0  0  0  0  0  0  0
    3.2476    9.3750    0.0000 C   0  0  0  0  0  0  0  0  0  0  0  0
    3.2476    7.8750    0.0000 O   0  0  0  0  0  0  0  0  0  0  0  0
  3  1  1  0
  4  2  1  0
  5  3  1  0
  6  5  1  0
  7  6  1  0
  8  7  1  0
  9  8  1  0
 10  9  1  0
 11 10  1  0
 12 11  1  0
 13 12  1  0
 14 13  1  0
 15 14  1  0
 16 15  1  0
 17 16  1  0
 18  4  1  0
 18 17  1  0
 19 18  2  0
M  END
>  <NAME>  (1080) 
3-OCTADECANONE

>  <SYNONYMS>  (1080) 


>  <SPECTRUM TYPE>  (1080) 
MS1

>  <INSTRUMENT TYPE>  (1080) 
EI-B

>  <INSTRUMENT>  (1080) 
HITACHI M-80

>  <ION MODE>  (1080) 
P

>  <INCHIKEY>  (1080) 
LMCGARAPKXJPNG-UHFFFAOYSA-N

>  <FORMULA>  (1080) 
C18H36O

>  <EXACT MASS>  (1080) 
268.276615772

>  <MW>  (1080) 
268

>  <ID>  (1080) 
JP010552

>  <CONTRIBUTOR>  (1080) 
University of Tokyo Team, {Faculty of Engineering, University of Tokyo

>  <COMMENT>  (1080) 
SMILES=CCCCCCCCCCCCCCCC(=O)CC
cas=18261-92-2
InChI=InChI=1S/C18H36O/c1-3-5-6-7-8-9-10-11-12-13-14-15-16-17-18(19)4-2/h3-17H2,1-2H3
computed SMILES=O=C(CC)CCCCCCCCCCCCCCC
accession=JP010552
date=2016.01.19 (Created 2008.10.21, modified 2011.05.06)
author=NARA WOMEN'S UNIVERSITY
license=CC BY-NC-SA
exact mass=268.27662
ionization energy=70 eV
ion type=[M]+*
computed spectral entropy=3.1334644164342897
computed normalized entropy=0.7892277154076706
SPLASH=splash10-05fu-9000000000-3ebafbf15bd2cfe4f9ed
submitter=submitter = University of Tokyo Team (Faculty of Engineering, University of Tokyo)
MoNA Rating=3.75

>  <NUM PEAKS>  (1080) 
53

>  <MASS SPECTRAL PEAKS>  (1080) 
18 3.03
27 10.12
28 4.9
29 41.36
39 5.6
40 1.19
41 37.84
42 8.95
43 49.48
44 1.57
53 2.81
54 2.82
55 28.91
56 7.99
57 84.3
58 3.95
59 1.03
67 5.31
68 2.42
69 12.97
70 4.11
71 20.79
72 99.99
73 52.93
74 2.83
81 5.63
82 2.86
83 9.97
84 3.06
85 32.94
86 2.65
95 7.36
96 4.47
97 5.98
98 2.7
99 6.53
109 4.91
110 2.52
111 2.52
113 1.71
114 3.58
123 2.42
125 1.25
127 1.48
128 1.51
137 1.24
141 1.69
194 2.86
196 1.27
239 44.78
240 8.01
268 4.57
269 2.34

$$$$

     RDKit          2D

 14 14  0  0  0  0  0  0  0  0999 V2000
   -4.2308    0.5551    0.0000 C   0  0  0  0  0  0  0  0  0  0  0  0
    6.1633    0.5619    0.0000 C   0  0  0  0  0  0  0  0  0  0  0  0
    0.9711   -2.4305    0.0000 C   0  0  0  0  0  0  0  0  0  0  0  0
   -0.3279   -1.6805    0.0000 C   0  0  0  0  0  0  0  0  0  0  0  0
    2.2656   -1.6883    0.0000 C   0  0  0  0  0  0  0  0  0  0  0  0
    0.9671    0.5625    0.0000 C   0  0  0  0  0  0  0  0  0  0  0  0
   -0.3325   -0.1883    0.0000 C   0  0  0  0  0  0  0  0  0  0  0  0
    2.2661   -0.1875    0.0000 C   0  0  0  0  0  0  0  0  0  0  0  0
   -1.6327    0.5595    0.0000 C   0  0  0  0  0  0  0  0  0  0  0  0
    3.5653    0.5623    0.0000 C   0  0  0  0  0  0  0  0  0  0  0  0
   -1.6353    2.0595    0.0000 O   0  0  0  0  0  0  0  0  0  0  0  0
    3.5655    2.0623    0.0000 O   0  0  0  0  0  0  0  0  0  0  0  0
   -2.9305   -0.1927    0.0000 O   0  0  0  0  0  0  0  0  0  0  0  0
    4.8642   -0.1879    0.0000 O   0  0  0  0  0  0  0  0  0  0  0  0
  4  3  2  0
  5  3  1  0
  7  4  1  0
  7  6  2  0
  8  5  2  0
  8  6  1  0
  9  7  1  0
 10  8  1  0
 11  9  2  0
 12 10  2  0
 13  1  1  0
 13  9  1  0
 14  2  1  0
 14 10  1  0
M  END
>  <NAME>  (1081) 
DIMETHYL ISOPHTHALATE

>  <SYNONYMS>  (1081) 


>  <SPECTRUM TYPE>  (1081) 
MS1

>  <INSTRUMENT TYPE>  (1081) 
EI-B

>  <INSTRUMENT>  (1081) 
HITACHI M-80

>  <ION MODE>  (1081) 
P

>  <INCHIKEY>  (1081) 
VNGOYPQMJFJDLV-UHFFFAOYSA-N

>  <FORMULA>  (1081) 
C10H10O4

>  <EXACT MASS>  (1081) 
194.0579088

>  <MW>  (1081) 
194

>  <ID>  (1081) 
JP010551

>  <CONTRIBUTOR>  (1081) 
University of Tokyo Team, {Faculty of Engineering, University of Tokyo

>  <COMMENT>  (1081) 
SMILES=COC(=O)c(c1)cc(cc1)C(=O)OC
cas=1459-93-4
InChI=InChI=1S/C10H10O4/c1-13-9(11)7-4-3-5-8(6-7)10(12)14-2/h3-6H,1-2H3
computed SMILES=O=C(OC)C1=CC=CC(=C1)C(=O)OC
accession=JP010551
date=2016.01.19 (Created 2008.10.21, modified 2011.05.06)
author=NARA WOMEN'S UNIVERSITY
license=CC BY-NC-SA
exact mass=194.05791
ionization energy=70 eV
ion type=[M]+*
computed spectral entropy=2.612172605148985
computed normalized entropy=0.753713692678889
SPLASH=splash10-03di-3900000000-53f81661bbecf50d929f
submitter=submitter = University of Tokyo Team (Faculty of Engineering, University of Tokyo)
MoNA Rating=3.75

>  <NUM PEAKS>  (1081) 
32

>  <MASS SPECTRAL PEAKS>  (1081) 
15 7.17
29 4.11
30 1.19
38 1.36
39 1.37
50 11.41
51 2.1
52 1.98
59 2.16
63 1.66
64 1.34
66 3.14
74 6.03
75 9.73
76 17.08
77 7.8
92 3.67
103 8.48
104 6.54
105 1.63
107 2.03
119 5.95
120 7.69
135 24.4
136 2.39
149 2
163 99.99
164 10.2
165 1.18
193 2.34
194 28.09
195 3.29

$$$$

     RDKit          2D

 13 13  0  0  0  0  0  0  0  0999 V2000
    2.5987    3.0002    0.0000 C   0  0  0  0  0  0  0  0  0  0  0  0
   -3.8981   -0.7504    0.0000 C   0  0  0  0  0  0  0  0  0  0  0  0
    2.5987   -3.0002    0.0000 C   0  0  0  0  0  0  0  0  0  0  0  0
   -1.3000    0.7500    0.0000 C   0  0  0  0  0  0  0  0  0  0  0  0
    0.0000    1.5000    0.0000 C   0  0  0  0  0  0  0  0  0  0  0  0
   -0.0000   -1.5000    0.0000 C   0  0  0  0  0  0  0  0  0  0  0  0
    2.5989    1.5002    0.0000 C   0  0  0  0  0  0  0  0  0  0  0  0
   -1.3000   -0.7500    0.0000 C   0  0  0  0  0  0  0  0  0  0  0  0
    1.3000    0.7500    0.0000 C   0  0  0  0  0  0  0  0  0  0  0  0
    1.3000   -0.7500    0.0000 C   0  0  0  0  0  0  0  0  0  0  0  0
    3.8981    0.7504    0.0000 O   0  0  0  0  0  0  0  0  0  0  0  0
   -2.5989   -1.5002    0.0000 O   0  0  0  0  0  0  0  0  0  0  0  0
    2.5989   -1.5002    0.0000 O   0  0  0  0  0  0  0  0  0  0  0  0
  5  4  2  0
  7  1  1  0
  8  4  1  0
  8  6  2  0
  9  5  1  0
  9  7  1  0
 10  6  1  0
 10  9  2  0
 11  7  2  0
 12  2  1  0
 12  8  1  0
 13  3  1  0
 13 10  1  0
M  END
>  <NAME>  (1082) 
2',4'-DIMETHOXYACETOPHENONE

>  <SYNONYMS>  (1082) 


>  <SPECTRUM TYPE>  (1082) 
MS1

>  <INSTRUMENT TYPE>  (1082) 
EI-B

>  <INSTRUMENT>  (1082) 
HITACHI M-80

>  <ION MODE>  (1082) 
P

>  <INCHIKEY>  (1082) 
VQTDPCRSXHFMOL-UHFFFAOYSA-N

>  <FORMULA>  (1082) 
C10H12O3

>  <EXACT MASS>  (1082) 
180.07864424399997

>  <MW>  (1082) 
180

>  <ID>  (1082) 
JP010550

>  <CONTRIBUTOR>  (1082) 
University of Tokyo Team, {Faculty of Engineering, University of Tokyo

>  <COMMENT>  (1082) 
SMILES=COc(c1)cc(OC)c(C(C)=O)c1
cas=829-20-9
InChI=InChI=1S/C10H12O3/c1-7(11)9-5-4-8(12-2)6-10(9)13-3/h4-6H,1-3H3
computed SMILES=O=C(C1=CC=C(OC)C=C1OC)C
accession=JP010550
date=2016.01.19 (Created 2008.10.21, modified 2011.05.06)
author=NARA WOMEN'S UNIVERSITY
license=CC BY-NC-SA
exact mass=180.07864
ionization energy=70 eV
ion type=[M]+*
computed spectral entropy=2.5952341723593686
computed normalized entropy=0.708391020279703
SPLASH=splash10-014i-3900000000-ce29bbe2c8331d6b78fd
submitter=submitter = University of Tokyo Team (Faculty of Engineering, University of Tokyo)
MoNA Rating=3.75

>  <NUM PEAKS>  (1082) 
39

>  <MASS SPECTRAL PEAKS>  (1082) 
15 4.48
39 2.21
43 8.89
50 1.9
51 4.98
52 1.19
53 1.69
62 2.26
63 6.37
64 3.08
65 2.61
66 1.4
69 1.27
74 1.09
75 1.07
76 1.14
77 6.9
78 1.97
79 5.43
91 1.53
92 4.47
94 1.64
105 1.01
106 1.23
107 7.49
109 1.73
121 1.21
122 10.81
135 4.36
137 1.92
150 4.41
151 1.03
163 2.93
165 99.99
166 10.03
167 1.07
179 1.94
180 28.18
181 4

$$$$

     RDKit          2D

 12 13  0  0  0  0  0  0  0  0999 V2000
    4.1000   -0.0000    0.0000 C   0  0  0  0  0  0  0  0  0  0  0  0
   -4.9081    0.7504    0.0000 C   0  0  0  0  0  0  0  0  0  0  0  0
   -2.3100   -0.7500    0.0000 C   0  0  0  0  0  0  0  0  0  0  0  0
   -1.0100   -1.5000    0.0000 C   0  0  0  0  0  0  0  0  0  0  0  0
    1.7200    1.2100    0.0000 C   0  0  0  0  0  0  0  0  0  0  0  0
   -1.0100    1.5000    0.0000 C   0  0  0  0  0  0  0  0  0  0  0  0
    2.6000   -0.0000    0.0000 C   0  0  0  0  0  0  0  0  0  0  0  0
    0.2900    0.7500    0.0000 C   0  0  0  0  0  0  0  0  0  0  0  0
   -2.3100    0.7500    0.0000 C   0  0  0  0  0  0  0  0  0  0  0  0
    0.2900   -0.7500    0.0000 C   0  0  0  0  0  0  0  0  0  0  0  0
    1.7200   -1.2100    0.0000 N   0  0  0  0  0  0  0  0  0  0  0  0
   -3.6089    1.5002    0.0000 O   0  0  0  0  0  0  0  0  0  0  0  0
  4  3  2  0
  7  1  1  0
  7  5  2  0
  8  5  1  0
  8  6  1  0
  9  3  1  0
  9  6  2  0
 10  4  1  0
 10  8  2  0
 11  7  1  0
 11 10  1  0
 12  2  1  0
 12  9  1  0
M  END
>  <NAME>  (1083) 
5-METHOXY-2-METHYLINDOLE

>  <SYNONYMS>  (1083) 


>  <SPECTRUM TYPE>  (1083) 
MS1

>  <INSTRUMENT TYPE>  (1083) 
EI-B

>  <INSTRUMENT>  (1083) 
HITACHI M-80

>  <ION MODE>  (1083) 
P

>  <INCHIKEY>  (1083) 
VSWGLJOQFUMFOQ-UHFFFAOYSA-N

>  <FORMULA>  (1083) 
C10H11NO

>  <EXACT MASS>  (1083) 
161.084063972

>  <MW>  (1083) 
161

>  <ID>  (1083) 
JP010549

>  <CONTRIBUTOR>  (1083) 
University of Tokyo Team, {Faculty of Engineering, University of Tokyo

>  <COMMENT>  (1083) 
SMILES=CC1=CC2=C(N1)C=CC(=C2)OC
cas=1076-74-0
InChI=InChI=1S/C10H11NO/c1-7-5-8-6-9(12-2)3-4-10(8)11-7/h3-6,11H,1-2H3
computed SMILES=O(C=1C=CC=2NC(=CC2C1)C)C
accession=JP010549
date=2016.01.19 (Created 2008.10.21, modified 2011.05.06)
author=NARA WOMEN'S UNIVERSITY
license=CC BY-NC-SA
exact mass=161.08406
ionization energy=70 eV
ion type=[M]+*
computed spectral entropy=2.4063917403373707
computed normalized entropy=0.6824009410096554
SPLASH=splash10-03xs-1900000000-03650975a10ce75a7f7f
submitter=submitter = University of Tokyo Team (Faculty of Engineering, University of Tokyo)
MoNA Rating=3.75

>  <NUM PEAKS>  (1083) 
34

>  <MASS SPECTRAL PEAKS>  (1083) 
40 1.58
51 1.08
52 1.6
53 1.66
62 1.47
63 2.78
64 1.38
65 2.38
74 1
75 1.25
76 2.39
77 2.88
78 1.25
81 2.49
89 4.39
90 4.12
91 6.57
102 1.92
103 2.87
116 3.48
117 21.85
118 53.71
119 5.02
128 1.51
129 1
130 5.59
131 1.51
132 2.72
145 2.57
146 63.39
147 6.73
160 8.57
161 99.99
162 11.29

$$$$

     RDKit          2D

 11 12  0  0  0  0  0  0  0  0999 V2000
    2.1853    2.6360    0.0000 C   0  0  0  0  0  0  0  0  0  0  0  0
    4.1000   -0.0000    0.0000 C   0  0  0  0  0  0  0  0  0  0  0  0
   -2.3100    0.7500    0.0000 C   0  0  0  0  0  0  0  0  0  0  0  0
   -2.3100   -0.7500    0.0000 C   0  0  0  0  0  0  0  0  0  0  0  0
   -1.0100    1.5000    0.0000 C   0  0  0  0  0  0  0  0  0  0  0  0
   -1.0100   -1.5000    0.0000 C   0  0  0  0  0  0  0  0  0  0  0  0
    1.7200    1.2100    0.0000 C   0  0  0  0  0  0  0  0  0  0  0  0
    2.6000   -0.0000    0.0000 C   0  0  0  0  0  0  0  0  0  0  0  0
    0.2900    0.7500    0.0000 C   0  0  0  0  0  0  0  0  0  0  0  0
    0.2900   -0.7500    0.0000 C   0  0  0  0  0  0  0  0  0  0  0  0
    1.7200   -1.2100    0.0000 N   0  0  0  0  0  0  0  0  0  0  0  0
  4  3  2  0
  5  3  1  0
  6  4  1  0
  7  1  1  0
  8  2  1  0
  8  7  2  0
  9  5  2  0
  9  7  1  0
 10  6  2  0
 10  9  1  0
 11  8  1  0
 11 10  1  0
M  END
>  <NAME>  (1084) 
2,3-DIMETHYLINDOLE

>  <SYNONYMS>  (1084) 


>  <SPECTRUM TYPE>  (1084) 
MS1

>  <INSTRUMENT TYPE>  (1084) 
EI-B

>  <INSTRUMENT>  (1084) 
HITACHI M-80

>  <ION MODE>  (1084) 
P

>  <INCHIKEY>  (1084) 
PYFVEIDRTLBMHG-UHFFFAOYSA-N

>  <FORMULA>  (1084) 
C10H11N

>  <EXACT MASS>  (1084) 
145.089149352

>  <MW>  (1084) 
145

>  <ID>  (1084) 
JP010548

>  <CONTRIBUTOR>  (1084) 
University of Tokyo Team, {Faculty of Engineering, University of Tokyo

>  <COMMENT>  (1084) 
SMILES=CC1=C(NC2=CC=CC=C12)C
cas=91-55-4
InChI=InChI=1S/C10H11N/c1-7-8(2)11-10-6-4-3-5-9(7)10/h3-6,11H,1-2H3
computed SMILES=C=1C=CC2=C(C1)NC(=C2C)C
accession=JP010548
date=2016.01.19 (Created 2008.10.21, modified 2011.05.06)
author=NARA WOMEN'S UNIVERSITY
license=CC BY-NC-SA
exact mass=145.08915
ionization energy=70 eV
ion type=[M]+*
computed spectral entropy=2.444346101722999
computed normalized entropy=0.6769320601733199
SPLASH=splash10-0007-1900000000-022d59f2d66769ee97b5
submitter=submitter = University of Tokyo Team (Faculty of Engineering, University of Tokyo)
MoNA Rating=3.75

>  <NUM PEAKS>  (1084) 
37

>  <MASS SPECTRAL PEAKS>  (1084) 
40 1.74
51 1.75
52 3.18
53 1.48
59 1.83
62 1.16
63 2.79
64 1.2
65 3.69
71 1.21
72 4.78
73 2.74
74 1.87
75 2.69
76 2.74
77 9.39
78 1.77
89 2.11
90 1.23
91 2.22
101 1.69
102 5.34
103 5.44
104 1.63
115 7.65
116 2.62
117 3.59
127 1.09
128 4.38
129 1.76
130 43.6
131 4.85
142 2.94
143 12.77
144 99.99
145 82.78
146 8.47

$$$$

     RDKit          2D

 11 12  0  0  0  0  0  0  0  0999 V2000
   -2.5200    0.5000    0.0000 C   0  0  0  0  0  0  0  0  0  0  0  0
   -2.5300   -1.0000    0.0000 C   0  0  0  0  0  0  0  0  0  0  0  0
   -1.2200    1.2400    0.0000 C   0  0  0  0  0  0  0  0  0  0  0  0
   -1.2300   -1.7600    0.0000 C   0  0  0  0  0  0  0  0  0  0  0  0
    2.3800   -0.2700    0.0000 C   0  0  0  0  0  0  0  0  0  0  0  0
    1.9684    2.3650    0.0000 C   0  0  0  0  0  0  0  0  0  0  0  0
    1.5000    0.9400    0.0000 C   0  0  0  0  0  0  0  0  0  0  0  0
    0.0800    0.4900    0.0000 C   0  0  0  0  0  0  0  0  0  0  0  0
    0.0700   -1.0100    0.0000 C   0  0  0  0  0  0  0  0  0  0  0  0
    1.5000   -1.4800    0.0000 N   0  0  0  0  0  0  0  0  0  0  0  0
    3.4366    2.6719    0.0000 O   0  0  0  0  0  0  0  0  0  0  0  0
  2  1  2  0
  3  1  1  0
  4  2  1  0
  7  5  2  0
  7  6  1  0
  8  3  2  0
  8  7  1  0
  9  4  2  0
  9  8  1  0
 10  5  1  0
 10  9  1  0
 11  6  2  0
M  END
>  <NAME>  (1085) 
INDOLE-3-CARBALDEHYDE

>  <SYNONYMS>  (1085) 


>  <SPECTRUM TYPE>  (1085) 
MS1

>  <INSTRUMENT TYPE>  (1085) 
EI-B

>  <INSTRUMENT>  (1085) 
HITACHI M-80

>  <ION MODE>  (1085) 
P

>  <INCHIKEY>  (1085) 
OLNJUISKUQQNIM-UHFFFAOYSA-N

>  <FORMULA>  (1085) 
C9H7NO

>  <EXACT MASS>  (1085) 
145.052763844

>  <MW>  (1085) 
145

>  <ID>  (1085) 
JP010547

>  <CONTRIBUTOR>  (1085) 
University of Tokyo Team, {Faculty of Engineering, University of Tokyo

>  <COMMENT>  (1085) 
SMILES=C1=CC=C2C(=C1)C(=CN2)C=O
cas=487-89-8
InChI=InChI=1S/C9H7NO/c11-6-7-5-10-9-4-2-1-3-8(7)9/h1-6,10H
computed SMILES=O=CC1=CNC=2C=CC=CC12
accession=JP010547
date=2016.01.19 (Created 2008.10.21, modified 2011.05.06)
author=NARA WOMEN'S UNIVERSITY
license=CC BY-NC-SA
exact mass=145.05276
ionization energy=70 eV
ion type=[M]+*
computed spectral entropy=2.1825358948371147
computed normalized entropy=0.6481568608855734
SPLASH=splash10-0007-2900000000-c43b940db5ef735c79d6
submitter=submitter = University of Tokyo Team (Faculty of Engineering, University of Tokyo)
MoNA Rating=3.75

>  <NUM PEAKS>  (1085) 
29

>  <MASS SPECTRAL PEAKS>  (1085) 
28 1.14
29 3.49
39 1.44
40 1.96
51 1.73
52 1.56
53 1.26
61 2.19
62 5.89
63 8.68
64 1.95
65 1.06
74 1.89
75 1.34
76 1.1
85 1.12
86 2.22
87 3.57
88 3.94
89 23.46
90 5.38
114 1.72
115 3.37
116 25.88
117 4.89
143 1.52
144 99.99
145 83.21
146 8.72

$$$$

     RDKit          2D

 15 15  0  0  0  0  0  0  0  0999 V2000
   -2.5989    1.5002    0.0000 C   0  0  0  0  0  0  0  0  0  0  0  0
    0.0000    3.0000    0.0000 C   0  0  0  0  0  0  0  0  0  0  0  0
    2.5989   -1.5002    0.0000 C   0  0  0  0  0  0  0  0  0  0  0  0
   -5.1970   -1.5006    0.0000 C   0  0  0  0  0  0  0  0  0  0  0  0
   -1.3000    0.7500    0.0000 C   0  0  0  0  0  0  0  0  0  0  0  0
    0.0000    1.5000    0.0000 C   0  0  0  0  0  0  0  0  0  0  0  0
    1.3000   -0.7500    0.0000 C   0  0  0  0  0  0  0  0  0  0  0  0
   -1.3000   -0.7500    0.0000 C   0  0  0  0  0  0  0  0  0  0  0  0
    1.3000    0.7500    0.0000 C   0  0  0  0  0  0  0  0  0  0  0  0
   -0.0000   -1.5000    0.0000 C   0  0  0  0  0  0  0  0  0  0  0  0
   -2.5989   -1.5002    0.0000 C   0  0  0  0  0  0  0  0  0  0  0  0
    2.5989    1.5002    0.0000 O   0  0  0  0  0  0  0  0  0  0  0  0
   -0.0000   -3.0000    0.0000 O   0  0  0  0  0  0  0  0  0  0  0  0
   -2.5987   -3.0002    0.0000 O   0  0  0  0  0  0  0  0  0  0  0  0
   -3.8981   -0.7504    0.0000 O   0  0  0  0  0  0  0  0  0  0  0  0
  5  1  1  0
  6  2  1  0
  6  5  2  0
  7  3  1  0
  8  5  1  0
  9  6  1  0
  9  7  2  0
 10  7  1  0
 10  8  2  0
 11  8  1  0
 12  9  1  0
 13 10  1  0
 14 11  2  0
 15  4  1  0
 15 11  1  0
M  END
>  <NAME>  (1086) 
METHYL 2,4-DIHYDROXY-3,5,6-TRIMETHYLBENZOATE

>  <SYNONYMS>  (1086) 


>  <SPECTRUM TYPE>  (1086) 
MS1

>  <INSTRUMENT TYPE>  (1086) 
EI-B

>  <INSTRUMENT>  (1086) 
HITACHI M-80

>  <ION MODE>  (1086) 
P

>  <INCHIKEY>  (1086) 
DMSHNIHYQFQGGG-UHFFFAOYSA-N

>  <FORMULA>  (1086) 
C11H14O4

>  <EXACT MASS>  (1086) 
210.089208928

>  <MW>  (1086) 
210

>  <ID>  (1086) 
JP010546

>  <CONTRIBUTOR>  (1086) 
University of Tokyo Team, {Faculty of Engineering, University of Tokyo

>  <COMMENT>  (1086) 
SMILES=COC(=O)c(c(C)1)c(O)c(C)c(O)c(C)1
cas=34874-78-7
InChI=InChI=1S/C11H14O4/c1-5-6(2)9(12)7(3)10(13)8(5)11(14)15-4/h12-13H,1-4H3
computed SMILES=O=C(OC)C=1C(O)=C(C(O)=C(C1C)C)C
accession=JP010546
date=2016.01.19 (Created 2008.10.21, modified 2011.05.06)
author=NARA WOMEN'S UNIVERSITY
license=CC BY-NC-SA
exact mass=210.08921
ionization energy=70 eV
ion type=[M]+*
computed spectral entropy=3.2455022044453625
computed normalized entropy=0.8027358520693819
SPLASH=splash10-0fb9-5910000000-c73bcc67a2822c291493
submitter=submitter = University of Tokyo Team (Faculty of Engineering, University of Tokyo)
MoNA Rating=3.75

>  <NUM PEAKS>  (1086) 
57

>  <MASS SPECTRAL PEAKS>  (1086) 
15 8.05
18 3.37
27 6.46
28 2
29 3.12
31 3.42
33 3.2
39 10.32
40 1.87
41 6.05
43 6.91
50 1.23
51 5.19
52 2.5
53 8.04
54 1.3
55 7.18
59 1.09
63 3.54
64 1.42
65 7.97
66 4.01
67 10.24
69 1.73
77 17.55
78 4.95
79 11.01
80 1.52
81 1.61
83 8.47
89 1.59
91 11.86
92 2.5
93 7.54
94 3.55
95 2.05
103 2.11
104 1.68
105 3.7
107 15.51
108 2.41
120 1.09
121 9.74
122 6.29
123 2.87
135 2.63
149 17.74
150 99.99
151 10.86
152 1.11
176 1.09
177 6.94
178 79.1
179 23.61
180 2.65
210 36.12
211 4.5

$$$$

     RDKit          2D

 13 13  0  0  0  0  0  0  0  0999 V2000
   -3.8981   -0.7504    0.0000 C   0  0  0  0  0  0  0  0  0  0  0  0
    2.5987   -3.0002    0.0000 C   0  0  0  0  0  0  0  0  0  0  0  0
   -1.3000    0.7500    0.0000 C   0  0  0  0  0  0  0  0  0  0  0  0
    0.0000    1.5000    0.0000 C   0  0  0  0  0  0  0  0  0  0  0  0
   -0.0000   -1.5000    0.0000 C   0  0  0  0  0  0  0  0  0  0  0  0
   -1.3000   -0.7500    0.0000 C   0  0  0  0  0  0  0  0  0  0  0  0
    1.3000    0.7500    0.0000 C   0  0  0  0  0  0  0  0  0  0  0  0
    1.3000   -0.7500    0.0000 C   0  0  0  0  0  0  0  0  0  0  0  0
    2.5989    1.5002    0.0000 N   0  0  0  0  0  0  0  0  0  0  0  0
    2.5987    3.0002    0.0000 O   0  0  0  0  0  0  0  0  0  0  0  0
    3.8981    0.7504    0.0000 O   0  0  0  0  0  0  0  0  0  0  0  0
   -2.5989   -1.5002    0.0000 O   0  0  0  0  0  0  0  0  0  0  0  0
    2.5989   -1.5002    0.0000 O   0  0  0  0  0  0  0  0  0  0  0  0
  4  3  2  0
  6  3  1  0
  6  5  2  0
  7  4  1  0
  8  5  1  0
  8  7  2  0
  9  7  1  0
 10  9  1  0
 11  9  2  0
 12  1  1  0
 12  6  1  0
 13  2  1  0
 13  8  1  0
M  CHG  2   9   1  10  -1
M  END
>  <NAME>  (1087) 
1,3-DIMETHOXY-4-NITROBENZENE

>  <SYNONYMS>  (1087) 


>  <SPECTRUM TYPE>  (1087) 
MS1

>  <INSTRUMENT TYPE>  (1087) 
EI-B

>  <INSTRUMENT>  (1087) 
HITACHI M-80

>  <ION MODE>  (1087) 
P

>  <INCHIKEY>  (1087) 
XXWIYOBCHKCWNT-UHFFFAOYSA-N

>  <FORMULA>  (1087) 
C8H9NO4

>  <EXACT MASS>  (1087) 
183.053157768

>  <MW>  (1087) 
183

>  <ID>  (1087) 
JP010545

>  <CONTRIBUTOR>  (1087) 
University of Tokyo Team, {Faculty of Engineering, University of Tokyo

>  <COMMENT>  (1087) 
SMILES=COc(c1)cc(OC)c(c1)[N+1]([O-1])=O
InChI=InChI=1S/C8H9NO4/c1-12-6-3-4-7(9(10)11)8(5-6)13-2/h3-5H,1-2H3
computed SMILES=O=N(=O)C1=CC=C(OC)C=C1OC
accession=JP010545
date=2016.01.19 (Created 2008.10.21, modified 2011.05.06)
author=NARA WOMEN'S UNIVERSITY
license=CC BY-NC-SA
exact mass=183.05316
ionization energy=70 eV
ion type=[M]+*
computed spectral entropy=3.5638283173818013
computed normalized entropy=0.8388448413708725
SPLASH=splash10-005i-9800000000-c70b202591e0cac3344e
submitter=submitter = University of Tokyo Team (Faculty of Engineering, University of Tokyo)
MoNA Rating=3.75

>  <NUM PEAKS>  (1087) 
70

>  <MASS SPECTRAL PEAKS>  (1087) 
15 8.5
26 1.31
27 1.75
28 2.42
29 3.83
30 11.99
31 1.36
38 2.01
39 5.1
40 10.3
41 1
42 3.68
44 1.18
47 1.94
51 9.49
52 25.07
53 12.12
54 8.33
55 1.94
59 6.96
61 3.53
62 11.7
63 30.46
64 14.79
65 11.41
66 5.36
67 2.41
68 3.33
69 14.22
74 4.5
75 4.23
76 5.04
77 42.73
78 8.29
79 34.13
80 8.68
81 1.71
82 4.2
91 2.46
92 36.37
93 12.67
94 10.33
95 11.67
96 2.26
97 1.06
106 3.18
107 30.63
108 12.14
109 7.77
110 16.95
111 2.47
122 19.4
123 5.19
124 2.61
125 41.79
126 3.85
135 5.32
136 89.3
137 7.78
138 1.83
139 1.02
140 1.08
153 29.48
154 4.03
166 1.38
167 2.5
183 99.99
184 10.18
185 1.34
187 1.35

$$$$

     RDKit          2D

 13 13  0  0  0  0  0  0  0  0999 V2000
    2.5987    3.0002    0.0000 C   0  0  0  0  0  0  0  0  0  0  0  0
    3.8981   -0.7504    0.0000 C   0  0  0  0  0  0  0  0  0  0  0  0
   -1.3000    0.7500    0.0000 C   0  0  0  0  0  0  0  0  0  0  0  0
    0.0000    1.5000    0.0000 C   0  0  0  0  0  0  0  0  0  0  0  0
    0.0000   -1.5000    0.0000 C   0  0  0  0  0  0  0  0  0  0  0  0
   -1.3000   -0.7500    0.0000 C   0  0  0  0  0  0  0  0  0  0  0  0
    1.3000    0.7500    0.0000 C   0  0  0  0  0  0  0  0  0  0  0  0
    1.3000   -0.7500    0.0000 C   0  0  0  0  0  0  0  0  0  0  0  0
   -2.5989   -1.5002    0.0000 N   0  0  0  0  0  0  0  0  0  0  0  0
   -3.8981   -0.7504    0.0000 O   0  0  0  0  0  0  0  0  0  0  0  0
   -2.5987   -3.0002    0.0000 O   0  0  0  0  0  0  0  0  0  0  0  0
    2.5989    1.5002    0.0000 O   0  0  0  0  0  0  0  0  0  0  0  0
    2.5989   -1.5002    0.0000 O   0  0  0  0  0  0  0  0  0  0  0  0
  4  3  2  0
  6  3  1  0
  6  5  2  0
  7  4  1  0
  8  5  1  0
  8  7  2  0
  9  6  1  0
 10  9  1  0
 11  9  2  0
 12  1  1  0
 12  7  1  0
 13  2  1  0
 13  8  1  0
M  CHG  2   9   1  10  -1
M  END
>  <NAME>  (1088) 
1,2-DIMETHOXY-4-NITROBENZENE

>  <SYNONYMS>  (1088) 
4-NITROVERATROLE

>  <SPECTRUM TYPE>  (1088) 
MS1

>  <INSTRUMENT TYPE>  (1088) 
EI-B

>  <INSTRUMENT>  (1088) 
HITACHI M-80

>  <ION MODE>  (1088) 
P

>  <INCHIKEY>  (1088) 
YFWBUVZWCBFSQN-UHFFFAOYSA-N

>  <FORMULA>  (1088) 
C8H9NO4

>  <EXACT MASS>  (1088) 
183.05315776799998

>  <MW>  (1088) 
183

>  <ID>  (1088) 
JP010544

>  <CONTRIBUTOR>  (1088) 
University of Tokyo Team, {Faculty of Engineering, University of Tokyo

>  <COMMENT>  (1088) 
SMILES=COc(c1)c(OC)cc(c1)[N+1]([O-1])=O
cas=709-09-1
InChI=InChI=1S/C8H9NO4/c1-12-7-4-3-6(9(10)11)5-8(7)13-2/h3-5H,1-2H3
computed SMILES=O=N(=O)C1=CC=C(OC)C(OC)=C1
accession=JP010544
date=2016.01.19 (Created 2008.10.21, modified 2011.05.06)
author=NARA WOMEN'S UNIVERSITY
license=CC BY-NC-SA
exact mass=183.05316
ionization energy=70 eV
ion type=[M]+*
computed spectral entropy=3.3047936281307853
computed normalized entropy=0.8246865122943525
SPLASH=splash10-003r-9700000000-2b4079f38b606f07409d
submitter=submitter = University of Tokyo Team (Faculty of Engineering, University of Tokyo)
MoNA Rating=3.75

>  <NUM PEAKS>  (1088) 
55

>  <MASS SPECTRAL PEAKS>  (1088) 
15 5.96
18 1.1
28 1.26
29 1.89
30 14.82
38 1.01
39 2
40 4.48
42 1.79
44 1.14
47 2.04
51 9.41
52 23.68
53 5.03
54 5.22
56 1.67
61 1.91
62 5.73
63 11.09
64 4.36
65 4.16
66 8.17
67 1.21
69 3.92
74 2.84
75 3.21
76 4.96
77 20.24
78 4.09
79 39.55
80 4.08
82 2.08
91 1.99
92 12.41
93 3.39
94 11.17
95 5.28
107 14.72
108 6.78
109 3.05
110 7.08
121 2.3
122 7.13
123 2.37
125 12.78
126 1.03
137 14.74
138 1.9
153 16.75
154 1.53
167 2.75
168 5.02
183 99.99
184 9.64
185 1.22

$$$$

     RDKit          2D

  9  9  0  0  0  0  0  0  0  0999 V2000
   -2.5989    3.0000    0.0000 C   0  0  0  0  0  0  0  0  0  0  0  0
   -1.3000    0.7498    0.0000 C   0  0  0  0  0  0  0  0  0  0  0  0
   -0.0000    2.9998    0.0000 C   0  0  0  0  0  0  0  0  0  0  0  0
    1.3000    0.7498    0.0000 C   0  0  0  0  0  0  0  0  0  0  0  0
   -1.3000    2.2498    0.0000 C   0  0  0  0  0  0  0  0  0  0  0  0
   -0.0000   -0.0002    0.0000 C   0  0  0  0  0  0  0  0  0  0  0  0
    1.3000    2.2498    0.0000 C   0  0  0  0  0  0  0  0  0  0  0  0
   -0.0000   -1.5002    0.0000 O   0  0  0  0  0  0  0  0  0  0  0  0
    2.5989    3.0000    0.0000 O   0  0  0  0  0  0  0  0  0  0  0  0
  5  1  1  0
  5  2  2  0
  5  3  1  0
  6  2  1  0
  6  4  2  0
  7  3  2  0
  7  4  1  0
  8  6  1  0
  9  7  1  0
M  END
>  <NAME>  (1089) 
3,5-DIHYDROXYTOLUENE

>  <SYNONYMS>  (1089) 


>  <SPECTRUM TYPE>  (1089) 
MS1

>  <INSTRUMENT TYPE>  (1089) 
EI-B

>  <INSTRUMENT>  (1089) 
HITACHI M-80

>  <ION MODE>  (1089) 
P

>  <INCHIKEY>  (1089) 
OIPPWFOQEKKFEE-UHFFFAOYSA-N

>  <FORMULA>  (1089) 
C7H8O2

>  <EXACT MASS>  (1089) 
124.052429496

>  <MW>  (1089) 
124

>  <ID>  (1089) 
JP010543

>  <CONTRIBUTOR>  (1089) 
University of Tokyo Team, {Faculty of Engineering, University of Tokyo

>  <COMMENT>  (1089) 
SMILES=Cc(c1)cc(O)cc(O)1
cas=504-15-4
InChI=InChI=1S/C7H8O2/c1-5-2-6(8)4-7(9)3-5/h2-4,8-9H,1H3
computed SMILES=OC=1C=C(O)C=C(C1)C
accession=JP010543
date=2016.01.19 (Created 2008.10.21, modified 2011.05.06)
author=NARA WOMEN'S UNIVERSITY
license=CC BY-NC-SA
exact mass=124.05243
ionization energy=70 eV
ion type=[M]+*
computed spectral entropy=2.63159341606982
computed normalized entropy=0.7183155820101882
SPLASH=splash10-00di-6900000000-b7340c393f257aa2fce5
submitter=submitter = University of Tokyo Team (Faculty of Engineering, University of Tokyo)
MoNA Rating=3.75

>  <NUM PEAKS>  (1089) 
39

>  <MASS SPECTRAL PEAKS>  (1089) 
27 2
28 1.97
29 1.63
38 1.06
39 4.84
40 1.45
41 5.63
42 1.29
43 9.58
50 1.5
51 4.82
52 2.14
53 4.16
54 1.02
55 6.07
61 1.19
62 1.97
63 1.6
65 3.22
66 3.36
67 7.79
69 7.08
77 6.78
78 5.76
79 1.76
81 4.21
82 1.12
83 1.22
84 1.22
85 1.92
94 1.54
95 14.16
96 2.71
105 2.42
106 3.32
107 7.14
123 50.01
124 99.99
125 8.29

$$$$

     RDKit          2D

 14 15  0  0  0  0  0  0  0  0999 V2000
    3.8971    1.0700    0.0000 C   0  0  0  0  0  0  0  0  0  0  0  0
   -5.1962    4.8200    0.0000 C   0  0  0  0  0  0  0  0  0  0  0  0
    3.8976    2.5708    0.0000 C   0  0  0  0  0  0  0  0  0  0  0  0
    2.5976    0.3192    0.0000 C   0  0  0  0  0  0  0  0  0  0  0  0
   -5.1966    3.3192    0.0000 C   0  0  0  0  0  0  0  0  0  0  0  0
   -3.8966    5.5708    0.0000 C   0  0  0  0  0  0  0  0  0  0  0  0
    2.5986    3.3208    0.0000 C   0  0  0  0  0  0  0  0  0  0  0  0
    1.2986    1.0692    0.0000 C   0  0  0  0  0  0  0  0  0  0  0  0
   -3.8976    2.5692    0.0000 C   0  0  0  0  0  0  0  0  0  0  0  0
   -2.5976    4.8208    0.0000 C   0  0  0  0  0  0  0  0  0  0  0  0
    0.0000    3.3200    0.0000 C   0  0  0  0  0  0  0  0  0  0  0  0
   -1.2990    2.5700    0.0000 C   0  0  0  0  0  0  0  0  0  0  0  0
    1.2990    2.5700    0.0000 C   0  0  0  0  0  0  0  0  0  0  0  0
   -2.5981    3.3200    0.0000 C   0  0  0  0  0  0  0  0  0  0  0  0
  3  1  2  0
  4  1  1  0
  5  2  2  0
  6  2  1  0
  7  3  1  0
  8  4  2  0
  9  5  1  0
 10  6  2  0
 12 11  1  0
 13  7  2  0
 13  8  1  0
 13 11  1  0
 14  9  2  0
 14 10  1  0
 14 12  1  0
M  END
>  <NAME>  (1090) 
BIBENZYL

>  <SYNONYMS>  (1090) 
1,2-DIPHENYLETHANE

>  <SPECTRUM TYPE>  (1090) 
MS1

>  <INSTRUMENT TYPE>  (1090) 
EI-B

>  <INSTRUMENT>  (1090) 
HITACHI M-80

>  <ION MODE>  (1090) 
P

>  <INCHIKEY>  (1090) 
QWUWMCYKGHVNAV-UHFFFAOYSA-N

>  <FORMULA>  (1090) 
C14H14

>  <EXACT MASS>  (1090) 
182.109550448

>  <MW>  (1090) 
182

>  <ID>  (1090) 
JP010542

>  <CONTRIBUTOR>  (1090) 
University of Tokyo Team, {Faculty of Engineering, University of Tokyo

>  <COMMENT>  (1090) 
SMILES=c(c2)ccc(c2)CCc(c1)cccc1
cas=103-29-7
InChI=InChI=1S/C14H14/c1-3-7-13(8-4-1)11-12-14-9-5-2-6-10-14/h1-10H,11-12H2
computed SMILES=C=1C=CC(=CC1)CCC=2C=CC=CC2
accession=JP010542
date=2016.01.19 (Created 2008.10.21, modified 2011.05.06)
author=NARA WOMEN'S UNIVERSITY
license=CC BY-NC-SA
exact mass=182.10955
ionization energy=70 eV
ion type=[M]+*
computed spectral entropy=2.695854905590453
computed normalized entropy=0.7465843784901541
SPLASH=splash10-0006-9200000000-5d440d73172c74b69ca1
submitter=submitter = University of Tokyo Team (Faculty of Engineering, University of Tokyo)
MoNA Rating=3.75

>  <NUM PEAKS>  (1090) 
37

>  <MASS SPECTRAL PEAKS>  (1090) 
27 4.07
28 5
32 1.82
38 1.37
39 19.59
40 1.66
41 5.95
50 5.2
51 14.67
52 3.64
53 1.22
62 2.36
63 9.36
64 1.81
65 40.95
66 2.4
74 1.66
75 2.42
76 2.61
77 9.99
78 3.92
79 1.08
89 5.55
90 2.06
91 99.99
92 19.67
102 1.92
103 4.16
104 6.66
115 1.91
152 1.72
165 3.28
166 1.24
178 2.37
179 1.79
182 46.48
183 7.56

$$$$

     RDKit          2D

  7  7  0  0  0  0  0  0  0  0999 V2000
    0.0000    2.5700    0.0000 C   0  0  0  0  0  0  0  0  0  0  0  0
    1.3000    1.8200    0.0000 C   0  0  0  0  0  0  0  0  0  0  0  0
   -1.3000    1.8200    0.0000 C   0  0  0  0  0  0  0  0  0  0  0  0
    1.3000    0.3200    0.0000 C   0  0  0  0  0  0  0  0  0  0  0  0
   -1.3000    0.3200    0.0000 C   0  0  0  0  0  0  0  0  0  0  0  0
   -0.0000   -0.4300    0.0000 C   0  0  0  0  0  0  0  0  0  0  0  0
   -0.0000   -1.9300    0.0000 N   0  0  0  0  0  0  0  0  0  0  0  0
  2  1  2  0
  3  1  1  0
  4  2  1  0
  5  3  2  0
  6  4  2  0
  6  5  1  0
  7  6  1  0
M  END
>  <NAME>  (1091) 
ANILINE

>  <SYNONYMS>  (1091) 


>  <SPECTRUM TYPE>  (1091) 
MS1

>  <INSTRUMENT TYPE>  (1091) 
EI-B

>  <INSTRUMENT>  (1091) 
HITACHI M-80

>  <ION MODE>  (1091) 
P

>  <INCHIKEY>  (1091) 
PAYRUJLWNCNPSJ-UHFFFAOYSA-N

>  <FORMULA>  (1091) 
C6H7N

>  <EXACT MASS>  (1091) 
93.057849224

>  <MW>  (1091) 
93

>  <ID>  (1091) 
JP010541

>  <CONTRIBUTOR>  (1091) 
University of Tokyo Team, {Faculty of Engineering, University of Tokyo

>  <COMMENT>  (1091) 
SMILES=Nc(c1)cccc1
cas=62-53-3
InChI=InChI=1S/C6H7N/c7-6-4-2-1-3-5-6/h1-5H,7H2
computed SMILES=NC=1C=CC=CC1
accession=JP010541
date=2016.01.19 (Created 2008.10.21, modified 2011.05.06)
author=NARA WOMEN'S UNIVERSITY
license=CC BY-NC-SA
exact mass=93.05785
ionization energy=70 eV
ion type=[M]+*
computed spectral entropy=2.358726852397601
computed normalized entropy=0.7156685686501155
SPLASH=splash10-0006-9000000000-b4213ef5f8ee4a3df612
submitter=submitter = University of Tokyo Team (Faculty of Engineering, University of Tokyo)
MoNA Rating=3.75

>  <NUM PEAKS>  (1091) 
27

>  <MASS SPECTRAL PEAKS>  (1091) 
26 1.1
27 1.78
37 2.13
38 5.5
39 12.98
40 5.25
41 7.29
42 1.47
46 1.41
47 6.02
50 3.65
51 3.52
52 4.54
53 1.09
54 3.57
61 1.9
62 2.4
63 4.82
64 2.47
65 17.88
66 32.71
67 4.62
76 1.16
78 2.03
92 11.66
93 99.99
94 7.72

$$$$

     RDKit          2D

 12 12  0  0  0  0  0  0  0  0999 V2000
    3.9324   -2.6081    0.0000 C   0  0  0  0  0  0  0  0  0  0  0  0
    2.6333   -3.3581    0.0000 C   0  0  0  0  0  0  0  0  0  0  0  0
    2.6324   -0.3565    0.0000 C   0  0  0  0  0  0  0  0  0  0  0  0
    3.9319   -1.1073    0.0000 C   0  0  0  0  0  0  0  0  0  0  0  0
    1.3333   -1.1065    0.0000 C   0  0  0  0  0  0  0  0  0  0  0  0
    1.3338   -2.6073    0.0000 C   0  0  0  0  0  0  0  0  0  0  0  0
    0.0342   -0.3567    0.0000 C   0  0  0  0  0  0  0  0  0  0  0  0
   -1.2652    1.8931    0.0000 N   0  0  0  0  0  0  0  0  0  0  0  0
    0.0339    1.1433    0.0000 N   0  0  0  0  0  0  0  0  0  0  0  0
    5.2309   -0.3573    0.0000 O   0  0  0  0  0  0  0  0  0  0  0  0
    0.0348   -3.3573    0.0000 O   0  0  0  0  0  0  0  0  0  0  0  0
   -1.2648   -1.1069    0.0000 O   0  0  0  0  0  0  0  0  0  0  0  0
  2  1  2  0
  4  1  1  0
  4  3  2  0
  5  3  1  0
  6  2  1  0
  6  5  2  0
  7  5  1  0
  9  7  2  3
  9  8  1  0
 10  4  1  0
 11  6  1  0
 12  7  1  0
M  END
>  <NAME>  (1092) 
2,5-DIHYDROXYBENZOIC ACID HYDRAZIDE

>  <SYNONYMS>  (1092) 
2,5-DIHYDROXYBENZOYLHYDRAZIDE

>  <SPECTRUM TYPE>  (1092) 
MS1

>  <INSTRUMENT TYPE>  (1092) 
EI-B

>  <INSTRUMENT>  (1092) 
HITACHI M-80

>  <ION MODE>  (1092) 
P

>  <INCHIKEY>  (1092) 
BLXGSJAZCDGAEF-UHFFFAOYSA-N

>  <FORMULA>  (1092) 
C7H8N2O3

>  <EXACT MASS>  (1092) 
168.05349211599997

>  <MW>  (1092) 
168

>  <ID>  (1092) 
JP010540

>  <CONTRIBUTOR>  (1092) 
University of Tokyo Team, {Faculty of Engineering, University of Tokyo

>  <COMMENT>  (1092) 
SMILES=NNC(=O)c(c1)c(O)ccc(O)1
InChI=InChI=1S/C7H8N2O3/c8-9-7(12)5-3-4(10)1-2-6(5)11/h1-3,10-11H,8H2,(H,9,12)
computed SMILES=OC1=CC=C(O)C(=C1)C(O)=NN
accession=JP010540
date=2016.01.19 (Created 2008.10.21, modified 2011.05.06)
author=NARA WOMEN'S UNIVERSITY
license=CC BY-NC-SA
exact mass=168.05349
ionization energy=70 eV
ion type=[M]+*
computed spectral entropy=3.1884906535725053
computed normalized entropy=0.7993239923631089
SPLASH=splash10-0f79-9500000000-4b29aa019629000246f5
submitter=submitter = University of Tokyo Team (Faculty of Engineering, University of Tokyo)
MoNA Rating=3.75

>  <NUM PEAKS>  (1092) 
54

>  <MASS SPECTRAL PEAKS>  (1092) 
14 1.28
15 1.32
25 1.17
26 5.88
27 17.4
28 3.73
29 9.09
30 2.02
31 8.2
32 8.05
37 1.61
38 2.26
39 8.51
40 1.61
41 2.8
42 2.13
43 2.65
44 1.58
50 6.83
51 15.54
52 27.96
53 50
54 10.09
55 10.74
56 1.32
61 2.52
62 4.62
63 9.14
64 1.65
65 1.07
66 1.72
67 1.91
68 2.04
69 19.49
70 1.14
77 1.08
79 5.49
80 7.42
81 50.9
82 5.79
87 1.2
92 1.21
96 1
107 2.77
108 11.11
109 27.68
110 2.57
135 1.82
136 8.7
137 99.99
138 13.51
139 1.38
168 34.48
169 3.79

$$$$

     RDKit          2D

 10 11  0  0  0  0  0  0  0  0999 V2000
    4.1000   -0.0000    0.0000 C   0  0  0  0  0  0  0  0  0  0  0  0
   -2.3100    0.7500    0.0000 C   0  0  0  0  0  0  0  0  0  0  0  0
   -2.3100   -0.7500    0.0000 C   0  0  0  0  0  0  0  0  0  0  0  0
   -1.0100    1.5000    0.0000 C   0  0  0  0  0  0  0  0  0  0  0  0
   -1.0100   -1.5000    0.0000 C   0  0  0  0  0  0  0  0  0  0  0  0
    2.6000    0.0000    0.0000 C   0  0  0  0  0  0  0  0  0  0  0  0
    0.2900    0.7500    0.0000 C   0  0  0  0  0  0  0  0  0  0  0  0
    0.2900   -0.7500    0.0000 C   0  0  0  0  0  0  0  0  0  0  0  0
    1.7200    1.2100    0.0000 N   0  0  0  0  0  0  0  0  0  0  0  0
    1.7200   -1.2100    0.0000 O   0  0  0  0  0  0  0  0  0  0  0  0
  3  2  2  0
  4  2  1  0
  5  3  1  0
  6  1  1  0
  7  4  2  0
  8  5  2  0
  8  7  1  0
  9  6  2  0
  9  7  1  0
 10  6  1  0
 10  8  1  0
M  END
>  <NAME>  (1093) 
2-METHYLBENZOXAZOLE

>  <SYNONYMS>  (1093) 


>  <SPECTRUM TYPE>  (1093) 
MS1

>  <INSTRUMENT TYPE>  (1093) 
EI-B

>  <INSTRUMENT>  (1093) 
HITACHI M-80

>  <ION MODE>  (1093) 
P

>  <INCHIKEY>  (1093) 
DQSHFKPKFISSNM-UHFFFAOYSA-N

>  <FORMULA>  (1093) 
C8H7NO

>  <EXACT MASS>  (1093) 
133.052763844

>  <MW>  (1093) 
133

>  <ID>  (1093) 
JP010539

>  <CONTRIBUTOR>  (1093) 
University of Tokyo Team, {Faculty of Engineering, University of Tokyo

>  <COMMENT>  (1093) 
SMILES=Cc(n1)oc(c2)c(ccc2)1
cas=95-21-6
InChI=InChI=1S/C8H7NO/c1-6-9-7-4-2-3-5-8(7)10-6/h2-5H,1H3
computed SMILES=N=1C=2C=CC=CC2OC1C
accession=JP010539
date=2016.01.19 (Created 2008.10.21, modified 2011.05.06)
author=NARA WOMEN'S UNIVERSITY
license=CC BY-NC-SA
exact mass=133.05276
ionization energy=70 eV
ion type=[M]+*
computed spectral entropy=2.6444993959789946
computed normalized entropy=0.7499231509423853
SPLASH=splash10-001i-8900000000-b666d088b79a32fd2d96
submitter=submitter = University of Tokyo Team (Faculty of Engineering, University of Tokyo)
MoNA Rating=3.75

>  <NUM PEAKS>  (1093) 
34

>  <MASS SPECTRAL PEAKS>  (1093) 
15 2.1
26 2.99
27 3.51
38 2.67
39 7.91
40 4.89
42 1.4
43 1.78
44 1.75
51 3.27
52 5.38
53 3.89
54 1.84
61 1.82
62 5.26
63 24.4
64 21.44
65 5.73
66 1.2
75 1
76 1.82
77 3.03
78 14.39
79 3.01
90 1.2
91 1.92
92 8.37
93 3.12
104 14.37
105 15.03
106 1.4
132 3.11
133 99.99
134 9.62

$$$$

     RDKit          2D

  8  8  0  0  0  0  0  0  0  0999 V2000
    2.6377   -0.8500    0.0000 C   0  0  0  0  0  0  0  0  0  0  0  0
   -2.6377   -0.8500    0.0000 C   0  0  0  0  0  0  0  0  0  0  0  0
   -0.0000   -2.7800    0.0000 C   0  0  0  0  0  0  0  0  0  0  0  0
    0.7500    1.0300    0.0000 C   0  0  0  0  0  0  0  0  0  0  0  0
   -0.7500    1.0300    0.0000 C   0  0  0  0  0  0  0  0  0  0  0  0
    1.2100   -0.3900    0.0000 C   0  0  0  0  0  0  0  0  0  0  0  0
   -1.2100   -0.3900    0.0000 C   0  0  0  0  0  0  0  0  0  0  0  0
    0.0000   -1.2800    0.0000 N   0  0  0  0  0  0  0  0  0  0  0  0
  5  4  1  0
  6  1  1  0
  6  4  2  0
  7  2  1  0
  7  5  2  0
  8  3  1  0
  8  6  1  0
  8  7  1  0
M  END
>  <NAME>  (1094) 
1,2,5-TRIMEHYLPYRROLE

>  <SYNONYMS>  (1094) 


>  <SPECTRUM TYPE>  (1094) 
MS1

>  <INSTRUMENT TYPE>  (1094) 
EI-B

>  <INSTRUMENT>  (1094) 
HITACHI M-80

>  <ION MODE>  (1094) 
P

>  <INCHIKEY>  (1094) 
YRABRACUKBOTKB-UHFFFAOYSA-N

>  <FORMULA>  (1094) 
C7H11N

>  <EXACT MASS>  (1094) 
109.08914935199999

>  <MW>  (1094) 
109

>  <ID>  (1094) 
JP010538

>  <CONTRIBUTOR>  (1094) 
University of Tokyo Team, {Faculty of Engineering, University of Tokyo

>  <COMMENT>  (1094) 
SMILES=[H]c(c([H])1)c(C)n(C)c(C)1
cas=930-87-0
InChI=InChI=1S/C7H11N/c1-6-4-5-7(2)8(6)3/h4-5H,1-3H3
computed SMILES=C=1C=C(N(C1C)C)C
accession=JP010538
date=2016.01.19 (Created 2008.10.21, modified 2011.05.06)
author=NARA WOMEN'S UNIVERSITY
license=CC BY-NC-SA
exact mass=109.08915
ionization energy=70 eV
ion type=[M]+*
computed spectral entropy=2.2162192984946745
computed normalized entropy=0.665091020592295
SPLASH=splash10-0a4i-4900000000-7284da94153af861ab23
submitter=submitter = University of Tokyo Team (Faculty of Engineering, University of Tokyo)
MoNA Rating=3.75

>  <NUM PEAKS>  (1094) 
28

>  <MASS SPECTRAL PEAKS>  (1094) 
15 3.69
27 3.99
28 2.39
40 4.66
41 1.1
42 4.36
43 4.53
51 2.24
52 4.11
53 3.15
54 3.89
55 1.91
56 4.52
65 3.12
66 2.08
67 3.61
77 1.85
78 1.13
79 2.01
92 3.03
93 3.4
94 19.15
95 1.44
106 3.46
107 5.67
108 99.99
109 65.93
110 5.1

$$$$

     RDKit          2D

 12 12  0  0  0  0  0  0  0  0999 V2000
    3.2323    1.7708    0.0000 C   0  0  0  0  0  0  0  0  0  0  0  0
   -2.7138    0.0699    0.0000 C   0  0  0  0  0  0  0  0  0  0  0  0
   -3.2629   -1.9792    0.0000 C   0  0  0  0  0  0  0  0  0  0  0  0
   -1.2138   -2.5282    0.0000 C   0  0  0  0  0  0  0  0  0  0  0  0
    0.6338    1.7717    0.0000 C   0  0  0  0  0  0  0  0  0  0  0  0
   -0.6653    1.0217    0.0000 C   0  0  0  0  0  0  0  0  0  0  0  0
    1.9338   -0.4800    0.0000 C   0  0  0  0  0  0  0  0  0  0  0  0
    1.9333    1.0208    0.0000 C   0  0  0  0  0  0  0  0  0  0  0  0
   -0.6648   -0.4792    0.0000 C   0  0  0  0  0  0  0  0  0  0  0  0
    0.6347   -1.2300    0.0000 C   0  0  0  0  0  0  0  0  0  0  0  0
   -1.9638   -1.2292    0.0000 C   0  0  0  0  0  0  0  0  0  0  0  0
    0.6345   -2.7300    0.0000 O   0  0  0  0  0  0  0  0  0  0  0  0
  6  5  2  0
  8  1  1  0
  8  5  1  0
  8  7  2  0
  9  6  1  0
 10  7  1  0
 10  9  2  0
 11  2  1  0
 11  3  1  0
 11  4  1  0
 11  9  1  0
 12 10  1  0
M  END
>  <NAME>  (1095) 
2-TERT-BUTYL-5-METHYLPHENOL

>  <SYNONYMS>  (1095) 
6-TERT-BUTYL-META-CRESOL

>  <SPECTRUM TYPE>  (1095) 
MS1

>  <INSTRUMENT TYPE>  (1095) 
EI-B

>  <INSTRUMENT>  (1095) 
HITACHI M-80

>  <ION MODE>  (1095) 
P

>  <INCHIKEY>  (1095) 
XOUQAVYLRNOXDO-UHFFFAOYSA-N

>  <FORMULA>  (1095) 
C11H16O

>  <EXACT MASS>  (1095) 
164.120115132

>  <MW>  (1095) 
164

>  <ID>  (1095) 
JP010537

>  <CONTRIBUTOR>  (1095) 
University of Tokyo Team, {Faculty of Engineering, University of Tokyo

>  <COMMENT>  (1095) 
SMILES=Cc(c1)cc(O)c(c1)C(C)(C)C
cas=88-60-8
InChI=InChI=1S/C11H16O/c1-8-5-6-9(10(12)7-8)11(2,3)4/h5-7,12H,1-4H3
computed SMILES=OC1=CC(=CC=C1C(C)(C)C)C
accession=JP010537
date=2016.01.19 (Created 2008.10.21, modified 2011.05.06)
author=NARA WOMEN'S UNIVERSITY
license=CC BY-NC-SA
exact mass=164.12012
ionization energy=70 eV
ion type=[M]+*
computed spectral entropy=2.5317171851516993
computed normalized entropy=0.6910535237823338
SPLASH=splash10-006t-1900000000-793bafb5afada9eca2b6
submitter=submitter = University of Tokyo Team (Faculty of Engineering, University of Tokyo)
MoNA Rating=3.75

>  <NUM PEAKS>  (1095) 
39

>  <MASS SPECTRAL PEAKS>  (1095) 
15 1.14
27 3.09
28 1.73
40 4.5
42 5.32
44 1.11
52 2.34
54 2.42
56 1.17
63 1.56
65 2.5
77 7.77
78 2.19
79 2.57
91 11.05
92 1.25
93 1.52
103 1.96
105 5.71
107 3.19
108 1.32
109 4.39
115 5.34
116 4.96
117 1
119 1.21
121 61.28
122 6.35
128 1.53
129 2.08
131 1.53
133 2.23
135 1.22
147 1.44
148 1.84
149 99.99
150 11
164 37.51
165 4.72

$$$$

     RDKit          2D

 13 14  0  0  0  0  0  0  0  0999 V2000
    2.6000    0.7500    0.0000 C   0  0  0  0  0  0  0  0  0  0  0  0
    1.3000    1.5000    0.0000 C   0  0  0  0  0  0  0  0  0  0  0  0
   -2.6000   -0.7500    0.0000 C   0  0  0  0  0  0  0  0  0  0  0  0
   -1.3000   -1.5000    0.0000 C   0  0  0  0  0  0  0  0  0  0  0  0
    2.6000   -0.7500    0.0000 C   0  0  0  0  0  0  0  0  0  0  0  0
   -1.3000    1.5000    0.0000 C   0  0  0  0  0  0  0  0  0  0  0  0
   -0.0000    0.7500    0.0000 C   0  0  0  0  0  0  0  0  0  0  0  0
   -2.6000    0.7500    0.0000 C   0  0  0  0  0  0  0  0  0  0  0  0
   -0.0000   -0.7500    0.0000 C   0  0  0  0  0  0  0  0  0  0  0  0
    1.3000   -1.5000    0.0000 N   0  0  0  0  0  0  0  0  0  0  0  0
   -3.8989    1.5002    0.0000 N   0  0  0  0  0  0  0  0  0  0  0  0
   -5.1981    0.7504    0.0000 O   0  0  0  0  0  0  0  0  0  0  0  0
   -3.8987    3.0002    0.0000 O   0  0  0  0  0  0  0  0  0  0  0  0
  2  1  2  0
  4  3  1  0
  5  1  1  0
  7  2  1  0
  7  6  2  0
  8  3  2  0
  8  6  1  0
  9  4  2  0
  9  7  1  0
 10  5  2  0
 10  9  1  0
 11  8  1  0
 12 11  1  0
 13 11  2  0
M  CHG  2  11   1  12  -1
M  END
>  <NAME>  (1096) 
6-NITROQUINOLINE

>  <SYNONYMS>  (1096) 


>  <SPECTRUM TYPE>  (1096) 
MS1

>  <INSTRUMENT TYPE>  (1096) 
EI-B

>  <INSTRUMENT>  (1096) 
HITACHI M-80

>  <ION MODE>  (1096) 
P

>  <INCHIKEY>  (1096) 
SMHPLBXIVNQFBA-UHFFFAOYSA-N

>  <FORMULA>  (1096) 
C9H6N2O2

>  <EXACT MASS>  (1096) 
174.042927432

>  <MW>  (1096) 
174

>  <ID>  (1096) 
JP010536

>  <CONTRIBUTOR>  (1096) 
University of Tokyo Team, {Faculty of Engineering, University of Tokyo

>  <COMMENT>  (1096) 
SMILES=[O-1][N+1](=O)c(c1)cc(c2)c(ncc2)c1
cas=613-50-3
InChI=InChI=1S/C9H6N2O2/c12-11(13)8-3-4-9-7(6-8)2-1-5-10-9/h1-6H
computed SMILES=O=N(=O)C1=CC=C2N=CC=CC2=C1
accession=JP010536
date=2016.01.19 (Created 2008.10.21, modified 2011.05.06)
author=NARA WOMEN'S UNIVERSITY
license=CC BY-NC-SA
exact mass=174.04293
ionization energy=70 eV
ion type=[M]+*
computed spectral entropy=2.5734090788482993
computed normalized entropy=0.7425289032466154
SPLASH=splash10-00fr-2900000000-44843083b8ef7bcd4db1
submitter=submitter = University of Tokyo Team (Faculty of Engineering, University of Tokyo)
MoNA Rating=3.75

>  <NUM PEAKS>  (1096) 
32

>  <MASS SPECTRAL PEAKS>  (1096) 
30 3.43
40 1.02
47 2.09
51 4.06
52 5.54
53 1.33
61 1.42
62 3.03
63 4.92
64 1.19
74 7.86
75 11.59
76 4.36
77 8.39
78 1.49
87 1.47
88 1.28
89 5.87
90 1.2
98 2.58
99 2.68
100 4.45
101 22.29
102 11.84
116 34.89
117 3.52
127 6.43
128 60.77
129 6.78
144 4.41
174 99.99
175 11.32

$$$$

     RDKit          2D

 21 22  0  0  0  0  0  0  0  0999 V2000
    5.1970    1.5006    0.0000 C   0  0  0  0  0  0  0  0  0  0  0  0
  -11.6940   -3.7512    0.0000 C   0  0  0  0  0  0  0  0  0  0  0  0
    3.8981    0.7504    0.0000 C   0  0  0  0  0  0  0  0  0  0  0  0
  -10.3951   -3.0010    0.0000 C   0  0  0  0  0  0  0  0  0  0  0  0
   -1.3000    0.7500    0.0000 C   0  0  0  0  0  0  0  0  0  0  0  0
   -0.0000   -1.5000    0.0000 C   0  0  0  0  0  0  0  0  0  0  0  0
   -5.1970   -3.0006    0.0000 C   0  0  0  0  0  0  0  0  0  0  0  0
   -6.4970   -0.7506    0.0000 C   0  0  0  0  0  0  0  0  0  0  0  0
    0.0000    1.5000    0.0000 C   0  0  0  0  0  0  0  0  0  0  0  0
    1.3000   -0.7500    0.0000 C   0  0  0  0  0  0  0  0  0  0  0  0
   -6.4970   -3.7506    0.0000 C   0  0  0  0  0  0  0  0  0  0  0  0
   -7.7970   -1.5006    0.0000 C   0  0  0  0  0  0  0  0  0  0  0  0
   -1.3000   -0.7500    0.0000 C   0  0  0  0  0  0  0  0  0  0  0  0
   -5.1970   -1.5006    0.0000 C   0  0  0  0  0  0  0  0  0  0  0  0
    1.3000    0.7500    0.0000 C   0  0  0  0  0  0  0  0  0  0  0  0
   -7.7970   -3.0006    0.0000 C   0  0  0  0  0  0  0  0  0  0  0  0
   -2.5989   -1.5002    0.0000 N   0  0  0  0  0  0  0  0  0  0  0  0
   -3.8981   -0.7504    0.0000 N   0  0  0  0  0  0  0  0  0  0  0  0
   -3.8983    0.7496    0.0000 O   0  0  0  0  0  0  0  0  0  0  0  0
    2.5989    1.5002    0.0000 O   0  0  0  0  0  0  0  0  0  0  0  0
   -9.0959   -3.7508    0.0000 O   0  0  0  0  0  0  0  0  0  0  0  0
  3  1  1  0
  4  2  1  0
  9  5  2  0
 10  6  1  0
 11  7  2  0
 12  8  1  0
 13  5  1  0
 13  6  2  0
 14  7  1  0
 14  8  2  0
 15  9  1  0
 15 10  2  0
 16 11  1  0
 16 12  2  0
 17 13  1  0
 18 14  1  0
 17 18  2  0
 19 18  1  0
 20  3  1  0
 20 15  1  0
 21  4  1  0
 21 16  1  0
M  CHG  2  18   1  19  -1
M  END
>  <NAME>  (1097) 
4,4'-AZOXYPHENETOL

>  <SYNONYMS>  (1097) 


>  <SPECTRUM TYPE>  (1097) 
MS1

>  <INSTRUMENT TYPE>  (1097) 
EI-B

>  <INSTRUMENT>  (1097) 
HITACHI M-80

>  <ION MODE>  (1097) 
P

>  <INCHIKEY>  (1097) 
QUICZVHSJNKDBL-ISLYRVAYSA-N

>  <FORMULA>  (1097) 
C16H18N2O3

>  <EXACT MASS>  (1097) 
286.13174243599997

>  <MW>  (1097) 
286

>  <ID>  (1097) 
JP010534

>  <CONTRIBUTOR>  (1097) 
University of Tokyo Team, {Faculty of Engineering, University of Tokyo

>  <COMMENT>  (1097) 
SMILES=CCOc(c2)ccc(c2)N=[N+1]([O-1])c(c1)ccc(OCC)c1
InChI=InChI=1S/C16H18N2O3/c1-3-20-15-9-5-13(6-10-15)17-18(19)14-7-11-16(12-8-14)21-4-2/h5-12H,3-4H2,1-2H3/b18-17+
computed SMILES=O=N(=NC1=CC=C(OCC)C=C1)C2=CC=C(OCC)C=C2
computed InChI=InChI=1S/C16H18N2O3/c1-3-20-15-9-5-13(6-10-15)17-18(19)14-7-11-16(12-8-14)21-4-2/h5-12H,3-4H2,1-2H3/b18-17-
accession=JP010534
date=2016.01.19 (Created 2008.10.21, modified 2011.05.06)
author=NARA WOMEN'S UNIVERSITY
license=CC BY-NC-SA
exact mass=286.13174
ionization energy=70 eV
ion type=[M]+*
computed spectral entropy=3.6274637841149135
computed normalized entropy=0.8101833599797342
SPLASH=splash10-059i-8940000000-1db400ec0fc14ce1303e
submitter=submitter = University of Tokyo Team (Faculty of Engineering, University of Tokyo)
MoNA Rating=3.75

>  <NUM PEAKS>  (1097) 
88

>  <MASS SPECTRAL PEAKS>  (1097) 
26 2.85
27 16.11
28 4.21
29 45.59
30 1.22
38 1.58
39 11.61
41 3.49
43 4.24
50 3.58
51 4.44
52 19.13
53 7.17
54 1.48
55 4.76
57 3.58
62 1.36
63 8.56
64 10.06
65 36.54
66 3.72
67 2.03
68 1
69 2.7
71 2.21
75 1.34
76 5.78
77 17.94
78 6.9
79 25.41
80 10.38
81 9.06
82 1.42
83 2.12
85 1.5
90 1.51
91 10.15
92 8.03
93 23.64
94 7.19
95 2.88
97 2.06
103 1.61
106 5.14
107 91.35
108 14.87
109 8.35
110 1.72
111 1.31
115 1.27
117 1.04
119 1.31
120 2.01
121 72.94
122 9.19
123 21.56
124 4.49
127 1.71
128 1.48
131 1.5
135 54.17
136 12.62
137 4.96
138 1.2
145 1.7
148 1.21
149 9.32
150 1.63
151 15.13
152 2.25
157 1.29
165 1.11
173 3.1
185 1.01
201 6.19
202 1.31
213 1.91
215 1.99
229 12.53
230 2.43
256 1.22
257 7.66
258 2.66
270 6.39
285 2.4
286 99.99
287 22.1
288 2.97

$$$$

     RDKit          2D

 18 20  0  0  0  0  0  0  0  0999 V2000
    3.9000    0.7500    0.0000 C   0  0  0  0  0  0  0  0  0  0  0  0
   -3.9000   -0.7500    0.0000 C   0  0  0  0  0  0  0  0  0  0  0  0
    2.6000    1.5000    0.0000 C   0  0  0  0  0  0  0  0  0  0  0  0
   -2.6000   -1.5000    0.0000 C   0  0  0  0  0  0  0  0  0  0  0  0
    2.6000   -1.5000    0.0000 C   0  0  0  0  0  0  0  0  0  0  0  0
   -2.6000    1.5000    0.0000 C   0  0  0  0  0  0  0  0  0  0  0  0
    3.9000   -0.7500    0.0000 C   0  0  0  0  0  0  0  0  0  0  0  0
   -3.9000    0.7500    0.0000 C   0  0  0  0  0  0  0  0  0  0  0  0
    1.3000    0.7500    0.0000 C   0  0  0  0  0  0  0  0  0  0  0  0
   -1.3000   -0.7500    0.0000 C   0  0  0  0  0  0  0  0  0  0  0  0
    1.3000   -0.7500    0.0000 C   0  0  0  0  0  0  0  0  0  0  0  0
   -1.3000    0.7500    0.0000 C   0  0  0  0  0  0  0  0  0  0  0  0
   -0.0000    1.5000    0.0000 C   0  0  0  0  0  0  0  0  0  0  0  0
   -0.0000   -1.5000    0.0000 C   0  0  0  0  0  0  0  0  0  0  0  0
    5.1989   -1.5002    0.0000 O   0  0  0  0  0  0  0  0  0  0  0  0
   -5.1989    1.5002    0.0000 O   0  0  0  0  0  0  0  0  0  0  0  0
    0.0000    3.0000    0.0000 O   0  0  0  0  0  0  0  0  0  0  0  0
   -0.0000   -3.0000    0.0000 O   0  0  0  0  0  0  0  0  0  0  0  0
  3  1  2  0
  4  2  1  0
  7  1  1  0
  7  5  2  0
  8  2  2  0
  8  6  1  0
  9  3  1  0
 10  4  2  0
 11  5  1  0
 11  9  2  0
 12  6  2  0
 12 10  1  0
 13  9  1  0
 13 12  1  0
 14 10  1  0
 14 11  1  0
 15  7  1  0
 16  8  1  0
 17 13  2  0
 18 14  2  0
M  END
>  <NAME>  (1098) 
ANTHRAFLAVIC ACID

>  <SYNONYMS>  (1098) 
2,6-DIHYDROXYANTHRAQUINONE

>  <SPECTRUM TYPE>  (1098) 
MS1

>  <INSTRUMENT TYPE>  (1098) 
EI-B

>  <INSTRUMENT>  (1098) 
HITACHI M-80

>  <ION MODE>  (1098) 
P

>  <INCHIKEY>  (1098) 
APAJFZPFBHMFQR-UHFFFAOYSA-N

>  <FORMULA>  (1098) 
C14H8O4

>  <EXACT MASS>  (1098) 
240.042258736

>  <MW>  (1098) 
240

>  <ID>  (1098) 
JP010533

>  <CONTRIBUTOR>  (1098) 
University of Tokyo Team, {Faculty of Engineering, University of Tokyo

>  <COMMENT>  (1098) 
SMILES=Oc(c3)cc(c(=O)1)c(c3)c(=O)c(c2)c(ccc(O)2)1
cas=84-60-6
InChI=InChI=1S/C14H8O4/c15-7-1-3-9-11(5-7)14(18)10-4-2-8(16)6-12(10)13(9)17/h1-6,15-16H
computed SMILES=O=C1C2=CC=C(O)C=C2C(=O)C3=CC=C(O)C=C13
accession=JP010533
date=2016.01.19 (Created 2008.10.21, modified 2011.05.06)
author=NARA WOMEN'S UNIVERSITY
license=CC BY-NC-SA
exact mass=240.04226
ionization energy=70 eV
ion type=[M]+*
computed spectral entropy=3.9272461417476525
computed normalized entropy=0.858468690197441
SPLASH=splash10-03di-9410000000-c197fe59d166513e1247
submitter=submitter = University of Tokyo Team (Faculty of Engineering, University of Tokyo)
MoNA Rating=3.75

>  <NUM PEAKS>  (1098) 
97

>  <MASS SPECTRAL PEAKS>  (1098) 
14 2.99
15 1.45
16 2.95
26 3.68
27 14.75
28 1.49
29 31.44
32 1.03
37 5.11
38 14.45
39 20.89
40 1.62
41 1.97
42 6.06
43 3.55
45 2.92
49 1.33
50 14.84
51 12.18
52 3.33
53 22.01
54 2.5
55 5
61 9.75
62 44.54
63 99.99
64 30.06
65 9.14
66 8.15
67 1.95
69 1.99
73 2.61
74 21.45
75 18.43
76 7.65
77 13.25
78 2.62
79 2.2
85 1.95
86 5.54
87 11.01
88 2.86
89 5.82
90 4.6
91 8.59
92 43.34
93 6.2
98 5.53
99 4.7
100 3.16
101 10.5
102 9.3
103 1.88
104 1.1
105 1.96
106 1.27
110 1.77
111 3.25
113 3.55
114 1.5
115 1.24
118 1.29
119 3.28
120 8.98
121 2.76
122 1.14
125 2.09
126 15.83
127 23.64
128 30.57
129 3.42
130 2.53
137 2.33
138 2.26
139 11.33
140 1.98
142 1.23
145 2.34
154 1.99
155 36.78
156 6.62
167 1.9
168 2.38
183 6.81
184 29.87
185 3.13
195 2.46
196 2.96
211 5.82
212 23.36
213 3.56
223 6.23
224 3.97
239 4.9
240 43.72
241 8.24
242 1.23

$$$$

     RDKit          2D

 21 22  0  0  0  0  0  0  0  0999 V2000
   -1.3000   -0.7500    0.0000 C   0  0  0  0  0  0  0  0  0  0  0  0
    0.0000    1.5000    0.0000 C   0  0  0  0  0  0  0  0  0  0  0  0
    7.7970   -1.5006    0.0000 C   0  0  0  0  0  0  0  0  0  0  0  0
    6.4970   -3.7506    0.0000 C   0  0  0  0  0  0  0  0  0  0  0  0
    0.0000   -1.5000    0.0000 C   0  0  0  0  0  0  0  0  0  0  0  0
    1.3000    0.7500    0.0000 C   0  0  0  0  0  0  0  0  0  0  0  0
    6.4970   -0.7506    0.0000 C   0  0  0  0  0  0  0  0  0  0  0  0
    5.1970   -3.0006    0.0000 C   0  0  0  0  0  0  0  0  0  0  0  0
   -1.3000    0.7500    0.0000 C   0  0  0  0  0  0  0  0  0  0  0  0
    7.7970   -3.0006    0.0000 C   0  0  0  0  0  0  0  0  0  0  0  0
    1.3000   -0.7500    0.0000 C   0  0  0  0  0  0  0  0  0  0  0  0
    5.1970   -1.5006    0.0000 C   0  0  0  0  0  0  0  0  0  0  0  0
   -2.5989    1.5002    0.0000 C   0  0  0  0  0  0  0  0  0  0  0  0
    9.0959   -3.7508    0.0000 C   0  0  0  0  0  0  0  0  0  0  0  0
    2.5989   -1.5002    0.0000 N   0  0  0  0  0  0  0  0  0  0  0  0
    3.8981   -0.7504    0.0000 N   0  0  0  0  0  0  0  0  0  0  0  0
   -3.8981    0.7504    0.0000 O   0  0  0  0  0  0  0  0  0  0  0  0
   -2.5987    3.0002    0.0000 O   0  0  0  0  0  0  0  0  0  0  0  0
   10.3951   -3.0010    0.0000 O   0  0  0  0  0  0  0  0  0  0  0  0
    9.0957   -5.2508    0.0000 O   0  0  0  0  0  0  0  0  0  0  0  0
    3.8983    0.7496    0.0000 O   0  0  0  0  0  0  0  0  0  0  0  0
  5  1  2  0
  6  2  1  0
  7  3  2  0
  8  4  1  0
  9  1  1  0
  9  2  2  0
 10  3  1  0
 10  4  2  0
 11  5  1  0
 11  6  2  0
 12  7  1  0
 12  8  2  0
 13  9  1  0
 14 10  1  0
 15 11  1  0
 16 12  1  0
 15 16  2  0
 17 13  1  0
 18 13  2  0
 19 14  1  0
 20 14  2  0
 21 16  1  0
M  CHG  2  16   1  21  -1
M  END
>  <NAME>  (1099) 
4,4'-AZOXYDIBENZOIC ACID

>  <SYNONYMS>  (1099) 


>  <SPECTRUM TYPE>  (1099) 
MS1

>  <INSTRUMENT TYPE>  (1099) 
EI-B

>  <INSTRUMENT>  (1099) 
HITACHI M-80

>  <ION MODE>  (1099) 
P

>  <INCHIKEY>  (1099) 
ZYVHVGJGLOEEKD-FOCLMDBBSA-N

>  <FORMULA>  (1099) 
C14H10N2O5

>  <EXACT MASS>  (1099) 
286.05897142

>  <MW>  (1099) 
286

>  <ID>  (1099) 
JP010532

>  <CONTRIBUTOR>  (1099) 
University of Tokyo Team, {Faculty of Engineering, University of Tokyo

>  <COMMENT>  (1099) 
SMILES=OC(=O)c(c2)ccc(c2)N=[N+1]([O-1])c(c1)ccc(C(O)=O)c1
InChI=InChI=1S/C14H10N2O5/c17-13(18)9-1-5-11(6-2-9)15-16(21)12-7-3-10(4-8-12)14(19)20/h1-8H,(H,17,18)(H,19,20)/b16-15+
computed SMILES=O=C(O)C1=CC=C(N=N(=O)C2=CC=C(C=C2)C(=O)O)C=C1
computed InChI=InChI=1S/C14H10N2O5/c17-13(18)9-1-5-11(6-2-9)15-16(21)12-7-3-10(4-8-12)14(19)20/h1-8H,(H,17,18)(H,19,20)/b16-15-
accession=JP010532
date=2016.01.19 (Created 2008.10.21, modified 2011.05.06)
author=NARA WOMEN'S UNIVERSITY
license=CC BY-NC-SA
exact mass=286.05897
ionization energy=70 eV
ion type=[M]+*
computed spectral entropy=3.6572599297895647
computed normalized entropy=0.8276514711430638
SPLASH=splash10-01b9-9410000000-e8209857cadd86e61626
submitter=submitter = University of Tokyo Team (Faculty of Engineering, University of Tokyo)
MoNA Rating=3.75

>  <NUM PEAKS>  (1099) 
83

>  <MASS SPECTRAL PEAKS>  (1099) 
17 3.13
18 9.81
27 3.27
28 9.33
29 1.1
30 2.01
32 2.76
36 2.25
37 1.88
38 4.69
39 21.92
40 1.65
41 2.4
43 1.16
44 1.67
45 10.99
50 17.86
51 19.88
52 7.71
53 6.14
54 1.51
55 1.44
62 5.17
63 16.74
64 15.81
65 99.99
66 6.42
67 1.18
74 7.53
75 15.84
76 20.97
77 5.12
78 3.92
79 6.73
80 2.29
81 13.06
88 1.17
89 5.79
90 5.65
91 3.89
92 7.58
93 10.23
94 1.17
103 5.61
104 8.69
105 2.44
106 2.26
107 5.12
108 2.69
109 8.97
115 2.12
117 5.19
118 1.39
119 2.55
120 2.99
121 85.7
122 7.44
123 1.41
128 1.21
135 4.98
136 1.3
137 5.64
138 1
139 2.19
140 1.14
141 3.64
149 20.27
150 2.19
151 3.36
152 2.05
165 1.6
166 1.24
167 3.83
168 1.71
169 3.17
213 2.4
258 10.58
259 1.52
270 8.21
271 1.4
285 1.71
286 22.12
287 3.75

$$$$

     RDKit          2D

 16 17  0  0  0  0  0  0  0  0999 V2000
    3.8971    1.0700    0.0000 C   0  0  0  0  0  0  0  0  0  0  0  0
   -5.1962    4.8200    0.0000 C   0  0  0  0  0  0  0  0  0  0  0  0
    3.8976    2.5708    0.0000 C   0  0  0  0  0  0  0  0  0  0  0  0
    2.5976    0.3192    0.0000 C   0  0  0  0  0  0  0  0  0  0  0  0
   -5.1966    3.3192    0.0000 C   0  0  0  0  0  0  0  0  0  0  0  0
   -3.8966    5.5708    0.0000 C   0  0  0  0  0  0  0  0  0  0  0  0
    2.5986    3.3208    0.0000 C   0  0  0  0  0  0  0  0  0  0  0  0
    1.2986    1.0692    0.0000 C   0  0  0  0  0  0  0  0  0  0  0  0
   -3.8976    2.5692    0.0000 C   0  0  0  0  0  0  0  0  0  0  0  0
   -2.5976    4.8208    0.0000 C   0  0  0  0  0  0  0  0  0  0  0  0
    1.2990    2.5700    0.0000 C   0  0  0  0  0  0  0  0  0  0  0  0
   -2.5981    3.3200    0.0000 C   0  0  0  0  0  0  0  0  0  0  0  0
    0.0000    3.3200    0.0000 C   0  0  0  0  0  0  0  0  0  0  0  0
   -1.2990    2.5700    0.0000 C   0  0  0  0  0  0  0  0  0  0  0  0
    0.0000    4.8200    0.0000 O   0  0  0  0  0  0  0  0  0  0  0  0
   -1.2990    1.0700    0.0000 O   0  0  0  0  0  0  0  0  0  0  0  0
  3  1  2  0
  4  1  1  0
  5  2  2  0
  6  2  1  0
  7  3  1  0
  8  4  2  0
  9  5  1  0
 10  6  2  0
 11  7  2  0
 11  8  1  0
 12  9  2  0
 12 10  1  0
 13 11  1  0
 14 12  1  0
 14 13  1  0
 15 13  2  0
 16 14  2  0
M  END
>  <NAME>  (1100) 
BENZIL

>  <SYNONYMS>  (1100) 


>  <SPECTRUM TYPE>  (1100) 
MS1

>  <INSTRUMENT TYPE>  (1100) 
EI-B

>  <INSTRUMENT>  (1100) 
HITACHI M-80

>  <ION MODE>  (1100) 
P

>  <INCHIKEY>  (1100) 
WURBFLDFSFBTLW-UHFFFAOYSA-N

>  <FORMULA>  (1100) 
C14H10O2

>  <EXACT MASS>  (1100) 
210.06807956

>  <MW>  (1100) 
210

>  <ID>  (1100) 
JP010530

>  <CONTRIBUTOR>  (1100) 
University of Tokyo Team, {Faculty of Engineering, University of Tokyo

>  <COMMENT>  (1100) 
SMILES=c(c2)ccc(c2)C(=O)C(=O)c(c1)cccc1
cas=134-81-6
InChI=InChI=1S/C14H10O2/c15-13(11-7-3-1-4-8-11)14(16)12-9-5-2-6-10-12/h1-10H
computed SMILES=O=C(C=1C=CC=CC1)C(=O)C=2C=CC=CC2
accession=JP010530
date=2016.01.19 (Created 2008.10.21, modified 2011.05.06)
author=NARA WOMEN'S UNIVERSITY
license=CC BY-NC-SA
exact mass=210.06808
ionization energy=70 eV
ion type=[M]+*
computed spectral entropy=1.3872634391637146
computed normalized entropy=0.6313707999960331
SPLASH=splash10-0a4i-6900000000-7dc0962c0e403c531b19
submitter=submitter = University of Tokyo Team (Faculty of Engineering, University of Tokyo)
MoNA Rating=3.75

>  <NUM PEAKS>  (1100) 
9

>  <MASS SPECTRAL PEAKS>  (1100) 
50 6.51
51 20.65
74 1.1
76 1.51
77 41.58
78 3.69
105 99.99
106 7.79
210 3.73

$$$$

     RDKit          2D

 14 16  0  0  0  0  0  0  0  0999 V2000
    3.9000    0.7500    0.0000 C   0  0  0  0  0  0  0  0  0  0  0  0
   -3.9000    0.7500    0.0000 C   0  0  0  0  0  0  0  0  0  0  0  0
    3.9000   -0.7500    0.0000 C   0  0  0  0  0  0  0  0  0  0  0  0
   -3.9000   -0.7500    0.0000 C   0  0  0  0  0  0  0  0  0  0  0  0
    2.6000    1.5000    0.0000 C   0  0  0  0  0  0  0  0  0  0  0  0
   -2.6000    1.5000    0.0000 C   0  0  0  0  0  0  0  0  0  0  0  0
    2.6000   -1.5000    0.0000 C   0  0  0  0  0  0  0  0  0  0  0  0
   -2.6000   -1.5000    0.0000 C   0  0  0  0  0  0  0  0  0  0  0  0
    0.0000    1.5000    0.0000 C   0  0  0  0  0  0  0  0  0  0  0  0
    1.3000    0.7500    0.0000 C   0  0  0  0  0  0  0  0  0  0  0  0
   -1.3000    0.7500    0.0000 C   0  0  0  0  0  0  0  0  0  0  0  0
    1.3000   -0.7500    0.0000 C   0  0  0  0  0  0  0  0  0  0  0  0
   -1.3000   -0.7500    0.0000 C   0  0  0  0  0  0  0  0  0  0  0  0
    0.0000   -1.5000    0.0000 N   0  0  0  0  0  0  0  0  0  0  0  0
  3  1  2  0
  4  2  1  0
  5  1  1  0
  6  2  2  0
  7  3  1  0
  8  4  2  0
 10  5  2  0
 10  9  1  0
 11  6  1  0
 11  9  2  0
 12  7  2  0
 12 10  1  0
 13  8  1  0
 13 11  1  0
 14 12  1  0
 14 13  2  0
M  END
>  <NAME>  (1101) 
ACRIDINE

>  <SYNONYMS>  (1101) 


>  <SPECTRUM TYPE>  (1101) 
MS1

>  <INSTRUMENT TYPE>  (1101) 
EI-B

>  <INSTRUMENT>  (1101) 
HITACHI M-80

>  <ION MODE>  (1101) 
P

>  <INCHIKEY>  (1101) 
DZBUGLKDJFMEHC-UHFFFAOYSA-N

>  <FORMULA>  (1101) 
C13H9N

>  <EXACT MASS>  (1101) 
179.073499288

>  <MW>  (1101) 
179

>  <ID>  (1101) 
JP010529

>  <CONTRIBUTOR>  (1101) 
University of Tokyo Team, {Faculty of Engineering, University of Tokyo

>  <COMMENT>  (1101) 
SMILES=c(c3)cc(c1)c(c3)nc(c2)c(ccc2)1
cas=260-94-6
InChI=InChI=1S/C13H9N/c1-3-7-12-10(5-1)9-11-6-2-4-8-13(11)14-12/h1-9H
computed SMILES=N=1C=2C=CC=CC2C=C3C=CC=CC13
accession=JP010529
date=2016.01.19 (Created 2008.10.21, modified 2011.05.06)
author=NARA WOMEN'S UNIVERSITY
license=CC BY-NC-SA
exact mass=179.0735
ionization energy=70 eV
ion type=[M]+*
computed spectral entropy=2.3039617471950553
computed normalized entropy=0.6709290425386095
SPLASH=splash10-004i-1900000000-cd23960a93953ee0f1e2
submitter=submitter = University of Tokyo Team (Faculty of Engineering, University of Tokyo)
MoNA Rating=3.75

>  <NUM PEAKS>  (1101) 
31

>  <MASS SPECTRAL PEAKS>  (1101) 
39 1.57
50 2.11
51 2.36
62 1.38
63 3.48
74 2.27
75 3.45
76 3.75
77 1.28
87 1.39
89 5.54
90 5.54
99 1.13
101 1.16
102 1.15
113 1.13
125 1.48
126 3.13
127 2.11
128 1.16
140 1.29
150 3.68
151 8.31
152 8.59
153 4.59
176 1.25
177 7.33
178 19.07
179 99.99
180 15.21
181 1.2

$$$$

     RDKit          2D

  9  9  0  0  0  0  0  0  0  0999 V2000
   -1.3000   -0.7500    0.0000 C   0  0  0  0  0  0  0  0  0  0  0  0
    0.0000    1.5000    0.0000 C   0  0  0  0  0  0  0  0  0  0  0  0
    0.0000   -1.5000    0.0000 C   0  0  0  0  0  0  0  0  0  0  0  0
    1.3000    0.7500    0.0000 C   0  0  0  0  0  0  0  0  0  0  0  0
   -2.5989    1.5002    0.0000 C   0  0  0  0  0  0  0  0  0  0  0  0
   -1.3000    0.7500    0.0000 C   0  0  0  0  0  0  0  0  0  0  0  0
    1.3000   -0.7500    0.0000 C   0  0  0  0  0  0  0  0  0  0  0  0
   -3.8978    2.2504    0.0000 N   0  0  0  0  0  0  0  0  0  0  0  0
    2.5989   -1.5002    0.0000 N   0  0  0  0  0  0  0  0  0  0  0  0
  3  1  2  0
  4  2  1  0
  6  1  1  0
  6  2  2  0
  6  5  1  0
  7  3  1  0
  7  4  2  0
  8  5  3  0
  9  7  1  0
M  END
>  <NAME>  (1102) 
4-AMINOBENZONITRILE

>  <SYNONYMS>  (1102) 
4-CYANOANILINE

>  <SPECTRUM TYPE>  (1102) 
MS1

>  <INSTRUMENT TYPE>  (1102) 
EI-B

>  <INSTRUMENT>  (1102) 
HITACHI M-80

>  <ION MODE>  (1102) 
P

>  <INCHIKEY>  (1102) 
YBAZINRZQSAIAY-UHFFFAOYSA-N

>  <FORMULA>  (1102) 
C7H6N2

>  <EXACT MASS>  (1102) 
118.053098192

>  <MW>  (1102) 
118

>  <ID>  (1102) 
JP010528

>  <CONTRIBUTOR>  (1102) 
University of Tokyo Team, {Faculty of Engineering, University of Tokyo

>  <COMMENT>  (1102) 
SMILES=N#Cc(c1)ccc(N)c1
cas=873-74-5
InChI=InChI=1S/C7H6N2/c8-5-6-1-3-7(9)4-2-6/h1-4H,9H2
computed SMILES=N#CC1=CC=C(N)C=C1
accession=JP010528
date=2016.01.19 (Created 2008.10.21, modified 2011.05.06)
author=NARA WOMEN'S UNIVERSITY
license=CC BY-NC-SA
exact mass=118.0531
ionization energy=70 eV
ion type=[M]+*
computed spectral entropy=2.183183762542094
computed normalized entropy=0.6624064998668615
SPLASH=splash10-014i-7900000000-a9299d8a6fc6d1efdef7
submitter=submitter = University of Tokyo Team (Faculty of Engineering, University of Tokyo)
MoNA Rating=3.75

>  <NUM PEAKS>  (1102) 
27

>  <MASS SPECTRAL PEAKS>  (1102) 
28 2.46
37 1.64
38 2.8
39 5.67
40 1.67
41 2.9
50 1.67
51 2.33
52 4.36
61 1.08
62 2.61
63 8.44
64 10.09
65 4.8
66 1.51
67 1.06
75 1.7
76 1.61
77 1.22
78 1.11
89 1.08
90 8.67
91 25.39
92 2.54
117 5.08
118 99.99
119 9.12

$$$$

     RDKit          2D

 11 11  0  0  0  0  0  0  0  0999 V2000
    3.8981    0.7504    0.0000 C   0  0  0  0  0  0  0  0  0  0  0  0
   -1.3000    0.7500    0.0000 C   0  0  0  0  0  0  0  0  0  0  0  0
   -0.0000   -1.5000    0.0000 C   0  0  0  0  0  0  0  0  0  0  0  0
    0.0000    1.5000    0.0000 C   0  0  0  0  0  0  0  0  0  0  0  0
    1.3000   -0.7500    0.0000 C   0  0  0  0  0  0  0  0  0  0  0  0
   -2.5989   -1.5002    0.0000 C   0  0  0  0  0  0  0  0  0  0  0  0
    2.5989    1.5002    0.0000 C   0  0  0  0  0  0  0  0  0  0  0  0
   -1.3000   -0.7500    0.0000 C   0  0  0  0  0  0  0  0  0  0  0  0
    1.3000    0.7500    0.0000 C   0  0  0  0  0  0  0  0  0  0  0  0
   -3.8978   -2.2504    0.0000 N   0  0  0  0  0  0  0  0  0  0  0  0
    2.5987    3.0002    0.0000 O   0  0  0  0  0  0  0  0  0  0  0  0
  4  2  2  0
  5  3  1  0
  7  1  1  0
  8  2  1  0
  8  3  2  0
  8  6  1  0
  9  4  1  0
  9  5  2  0
  9  7  1  0
 10  6  3  0
 11  7  2  0
M  END
>  <NAME>  (1103) 
4-ACETYLBENZONITRILE

>  <SYNONYMS>  (1103) 
4'-CYANOACETOPHENONE

>  <SPECTRUM TYPE>  (1103) 
MS1

>  <INSTRUMENT TYPE>  (1103) 
EI-B

>  <INSTRUMENT>  (1103) 
HITACHI M-80

>  <ION MODE>  (1103) 
P

>  <INCHIKEY>  (1103) 
NLPHXWGWBKZSJC-UHFFFAOYSA-N

>  <FORMULA>  (1103) 
C9H7NO

>  <EXACT MASS>  (1103) 
145.052763844

>  <MW>  (1103) 
145

>  <ID>  (1103) 
JP010527

>  <CONTRIBUTOR>  (1103) 
University of Tokyo Team, {Faculty of Engineering, University of Tokyo

>  <COMMENT>  (1103) 
SMILES=N#Cc(c1)ccc(c1)C(C)=O
cas=1443-80-7
InChI=InChI=1S/C9H7NO/c1-7(11)9-4-2-8(6-10)3-5-9/h2-5H,1H3
computed SMILES=N#CC1=CC=C(C=C1)C(=O)C
accession=JP010527
date=2016.01.19 (Created 2008.10.21, modified 2011.05.06)
author=NARA WOMEN'S UNIVERSITY
license=CC BY-NC-SA
exact mass=145.05276
ionization energy=70 eV
ion type=[M]+*
computed spectral entropy=2.166267324919958
computed normalized entropy=0.6908854476320639
SPLASH=splash10-0f89-3900000000-3bdc0839d463be457290
submitter=submitter = University of Tokyo Team (Faculty of Engineering, University of Tokyo)
MoNA Rating=3.75

>  <NUM PEAKS>  (1103) 
23

>  <MASS SPECTRAL PEAKS>  (1103) 
15 1.7
38 1.21
39 1.76
42 1.51
43 16.21
50 6.88
51 8.51
52 1.45
62 1.64
63 2.48
64 1.24
74 3.09
75 12.74
76 9.35
89 1.51
99 1
101 1.28
102 50.06
103 5.71
130 99.99
131 9.23
145 25.6
146 3.03

$$$$

     RDKit          2D

 14 15  0  0  0  0  0  0  0  0999 V2000
   -0.0000    1.5000    0.0000 C   0  0  0  0  0  0  0  0  0  0  0  0
    6.4970   -3.7506    0.0000 C   0  0  0  0  0  0  0  0  0  0  0  0
   -1.3000    0.7500    0.0000 C   0  0  0  0  0  0  0  0  0  0  0  0
    7.7970   -3.0006    0.0000 C   0  0  0  0  0  0  0  0  0  0  0  0
    1.3000    0.7500    0.0000 C   0  0  0  0  0  0  0  0  0  0  0  0
    5.1970   -3.0006    0.0000 C   0  0  0  0  0  0  0  0  0  0  0  0
   -1.3000   -0.7500    0.0000 C   0  0  0  0  0  0  0  0  0  0  0  0
    7.7970   -1.5006    0.0000 C   0  0  0  0  0  0  0  0  0  0  0  0
    1.3000   -0.7500    0.0000 C   0  0  0  0  0  0  0  0  0  0  0  0
    5.1970   -1.5006    0.0000 C   0  0  0  0  0  0  0  0  0  0  0  0
   -0.0000   -1.5000    0.0000 N   0  0  0  0  0  0  0  0  0  0  0  0
    6.4970   -0.7506    0.0000 N   0  0  0  0  0  0  0  0  0  0  0  0
    2.5989   -1.5002    0.0000 S   0  0  0  0  0  0  0  0  0  0  0  0
    3.8981   -0.7504    0.0000 S   0  0  0  0  0  0  0  0  0  0  0  0
  3  1  2  0
  4  2  2  0
  5  1  1  0
  6  2  1  0
  7  3  1  0
  8  4  1  0
  9  5  2  0
 10  6  2  0
 11  7  2  0
 11  9  1  0
 12  8  2  0
 12 10  1  0
 13  9  1  0
 14 10  1  0
 14 13  1  0
M  END
>  <NAME>  (1104) 
ALDRITHIOL-2

>  <SYNONYMS>  (1104) 
2,2'-DIPYRIDYL DISULFIDE

>  <SPECTRUM TYPE>  (1104) 
MS1

>  <INSTRUMENT TYPE>  (1104) 
EI-B

>  <INSTRUMENT>  (1104) 
HITACHI M-80

>  <ION MODE>  (1104) 
P

>  <INCHIKEY>  (1104) 
HAXFWIACAGNFHA-UHFFFAOYSA-N

>  <FORMULA>  (1104) 
C10H8N2S2

>  <EXACT MASS>  (1104) 
220.012890256

>  <MW>  (1104) 
220

>  <ID>  (1104) 
JP010526

>  <CONTRIBUTOR>  (1104) 
University of Tokyo Team, {Faculty of Engineering, University of Tokyo

>  <COMMENT>  (1104) 
SMILES=c(c2)cnc(c2)SSc(c1)nccc1
cas=2127-03-9
InChI=InChI=1S/C10H8N2S2/c1-3-7-11-9(5-1)13-14-10-6-2-4-8-12-10/h1-8H
computed SMILES=N=1C=CC=CC1SSC2=NC=CC=C2
accession=JP010526
date=2016.01.19 (Created 2008.10.21, modified 2011.05.06)
author=NARA WOMEN'S UNIVERSITY
license=CC BY-NC-SA
exact mass=220.01289
ionization energy=70 eV
ion type=[M]+*
computed spectral entropy=2.640119105230603
computed normalized entropy=0.7425768334267107
SPLASH=splash10-00di-4490000000-14ea70bc59e09439fdb0
submitter=submitter = University of Tokyo Team (Faculty of Engineering, University of Tokyo)
MoNA Rating=3.75

>  <NUM PEAKS>  (1104) 
35

>  <MASS SPECTRAL PEAKS>  (1104) 
27 1.69
28 1.1
38 1.39
39 13.01
45 1.65
50 2.45
51 11.87
52 4.23
57 2.97
67 1.89
69 1.75
78 26.07
79 2.5
81 1.01
82 2.74
83 6.96
84 2.13
110 5.17
111 2.2
128 1.19
129 3.71
130 4.05
142 3.12
155 9.6
156 28.6
157 3.56
160 1.94
161 1.81
187 15.28
188 7.03
189 2.15
220 99.99
221 64.75
222 16.42
223 6.13

$$$$

     RDKit          2D

 16 18  0  0  0  0  0  0  0  0999 V2000
    3.9000   -0.7500    0.0000 C   0  0  0  0  0  0  0  0  0  0  0  0
    3.9000    0.7500    0.0000 C   0  0  0  0  0  0  0  0  0  0  0  0
   -3.9000   -0.7500    0.0000 C   0  0  0  0  0  0  0  0  0  0  0  0
   -3.9000    0.7500    0.0000 C   0  0  0  0  0  0  0  0  0  0  0  0
    2.6000   -1.5000    0.0000 C   0  0  0  0  0  0  0  0  0  0  0  0
    2.6000    1.5000    0.0000 C   0  0  0  0  0  0  0  0  0  0  0  0
   -2.6000   -1.5000    0.0000 C   0  0  0  0  0  0  0  0  0  0  0  0
   -2.6000    1.5000    0.0000 C   0  0  0  0  0  0  0  0  0  0  0  0
    1.3000   -0.7500    0.0000 C   0  0  0  0  0  0  0  0  0  0  0  0
    1.3000    0.7500    0.0000 C   0  0  0  0  0  0  0  0  0  0  0  0
   -1.3000   -0.7500    0.0000 C   0  0  0  0  0  0  0  0  0  0  0  0
   -1.3000    0.7500    0.0000 C   0  0  0  0  0  0  0  0  0  0  0  0
   -0.0000   -1.5000    0.0000 C   0  0  0  0  0  0  0  0  0  0  0  0
   -0.0000    1.5000    0.0000 C   0  0  0  0  0  0  0  0  0  0  0  0
   -0.0000   -3.0000    0.0000 O   0  0  0  0  0  0  0  0  0  0  0  0
    0.0000    3.0000    0.0000 O   0  0  0  0  0  0  0  0  0  0  0  0
  2  1  2  0
  4  3  2  0
  5  1  1  0
  6  2  1  0
  7  3  1  0
  8  4  1  0
  9  5  2  0
 10  6  2  0
 10  9  1  0
 11  7  2  0
 12  8  2  0
 12 11  1  0
 13  9  1  0
 13 11  1  0
 14 10  1  0
 14 12  1  0
 15 13  2  0
 16 14  2  0
M  END
>  <NAME>  (1105) 
ANTHRAQUINONE

>  <SYNONYMS>  (1105) 


>  <SPECTRUM TYPE>  (1105) 
MS1

>  <INSTRUMENT TYPE>  (1105) 
EI-B

>  <INSTRUMENT>  (1105) 
HITACHI M-80

>  <ION MODE>  (1105) 
P

>  <INCHIKEY>  (1105) 
RZVHIXYEVGDQDX-UHFFFAOYSA-N

>  <FORMULA>  (1105) 
C14H8O2

>  <EXACT MASS>  (1105) 
208.052429496

>  <MW>  (1105) 
208

>  <ID>  (1105) 
JP010524

>  <CONTRIBUTOR>  (1105) 
University of Tokyo Team, {Faculty of Engineering, University of Tokyo

>  <COMMENT>  (1105) 
SMILES=O=c(c21)c(c3)c(ccc3)c(=O)c(cccc2)1
cas=84-65-1
InChI=InChI=1S/C14H8O2/c15-13-9-5-1-2-6-10(9)14(16)12-8-4-3-7-11(12)13/h1-8H
computed SMILES=O=C1C=2C=CC=CC2C(=O)C=3C=CC=CC13
accession=JP010524
date=2016.01.19 (Created 2008.10.21, modified 2011.05.06)
author=NARA WOMEN'S UNIVERSITY
license=CC BY-NC-SA
exact mass=208.05243
ionization energy=70 eV
ion type=[M]+*
computed spectral entropy=3.050076810673995
computed normalized entropy=0.7682248250469741
SPLASH=splash10-0zgi-5930000000-2793068dd8a1a8873de2
submitter=submitter = University of Tokyo Team (Faculty of Engineering, University of Tokyo)
MoNA Rating=3.75

>  <NUM PEAKS>  (1105) 
53

>  <MASS SPECTRAL PEAKS>  (1105) 
18 1.47
27 2.38
28 1.91
38 2.11
39 5.59
49 1.03
50 26.67
51 7.45
52 1.13
53 1.74
61 1.15
62 3.81
63 10.6
73 1.9
74 18.8
75 20.93
76 44.08
77 9.51
78 1.3
85 1.03
86 3.65
87 5.5
88 1.49
89 1.74
90 4.74
98 4.55
99 4.52
100 2.18
101 2.31
102 4.19
104 2.93
110 1.36
111 1.72
113 2.14
122 1.31
125 4.48
126 14.05
127 1.95
149 2.33
150 21.87
151 42.44
152 87.54
153 11.88
176 2
178 12.21
179 5.89
180 99.99
181 14.37
182 1.17
207 13.72
208 94.16
209 14.76
210 1.51

$$$$

     RDKit          2D

 10 10  0  0  0  0  0  0  0  0999 V2000
   -3.8969    2.5696    0.0000 C   0  0  0  0  0  0  0  0  0  0  0  0
    2.5983    0.3196    0.0000 C   0  0  0  0  0  0  0  0  0  0  0  0
    1.2988   -0.4312    0.0000 C   0  0  0  0  0  0  0  0  0  0  0  0
    2.5988    1.8204    0.0000 C   0  0  0  0  0  0  0  0  0  0  0  0
   -0.0002    0.3188    0.0000 C   0  0  0  0  0  0  0  0  0  0  0  0
    1.2998    2.5704    0.0000 C   0  0  0  0  0  0  0  0  0  0  0  0
   -2.5978    1.8196    0.0000 C   0  0  0  0  0  0  0  0  0  0  0  0
    0.0002    1.8196    0.0000 C   0  0  0  0  0  0  0  0  0  0  0  0
   -1.2988    2.5696    0.0000 N   0  0  0  0  0  0  0  0  0  0  0  0
   -2.5978    0.3196    0.0000 O   0  0  0  0  0  0  0  0  0  0  0  0
  3  2  2  0
  4  2  1  0
  5  3  1  0
  6  4  2  0
  7  1  1  0
  8  5  2  0
  8  6  1  0
  9  7  2  3
  9  8  1  0
 10  7  1  0
M  END
>  <NAME>  (1106) 
ACETANILIDE

>  <SYNONYMS>  (1106) 


>  <SPECTRUM TYPE>  (1106) 
MS1

>  <INSTRUMENT TYPE>  (1106) 
EI-B

>  <INSTRUMENT>  (1106) 
HITACHI M-80

>  <ION MODE>  (1106) 
P

>  <INCHIKEY>  (1106) 
FZERHIULMFGESH-UHFFFAOYSA-N

>  <FORMULA>  (1106) 
C8H9NO

>  <EXACT MASS>  (1106) 
135.068413908

>  <MW>  (1106) 
135

>  <ID>  (1106) 
JP010523

>  <CONTRIBUTOR>  (1106) 
University of Tokyo Team, {Faculty of Engineering, University of Tokyo

>  <COMMENT>  (1106) 
SMILES=CC(=O)Nc(c1)cccc1
cas=103-84-4
InChI=InChI=1S/C8H9NO/c1-7(10)9-8-5-3-2-4-6-8/h2-6H,1H3,(H,9,10)
computed SMILES=OC(=NC=1C=CC=CC1)C
accession=JP010523
date=2016.01.19 (Created 2008.10.21, modified 2011.05.06)
author=NARA WOMEN'S UNIVERSITY
license=CC BY-NC-SA
exact mass=135.06841
ionization energy=70 eV
ion type=[M]+*
computed spectral entropy=2.924511260979156
computed normalized entropy=0.7982699742663654
SPLASH=splash10-000f-9000000000-62d570000b48b0837073
submitter=submitter = University of Tokyo Team (Faculty of Engineering, University of Tokyo)
MoNA Rating=3.75

>  <NUM PEAKS>  (1106) 
39

>  <MASS SPECTRAL PEAKS>  (1106) 
14 2.82
15 14.11
26 1.79
27 3.91
28 1.87
29 1.31
37 4.28
38 11.22
39 43.47
40 8.39
41 5.6
42 7.08
43 63.72
44 2.21
47 1.11
50 7.88
51 15.01
52 8.75
53 1.87
54 3.14
61 1.65
62 5.44
63 10.86
64 9.93
65 36.99
66 33.37
67 4.27
74 1.87
75 1.52
76 1.24
77 9.29
78 2.64
91 4.35
92 9.77
93 99.99
94 12.14
106 2.12
135 43.35
136 4.72

$$$$

     RDKit          2D

  4  3  0  0  0  0  0  0  0  0999 V2000
   -1.2990    1.5000    0.0000 C   0  0  0  0  0  0  0  0  0  0  0  0
    0.0000    2.2500    0.0000 C   0  0  0  0  0  0  0  0  0  0  0  0
   -2.5981    2.2500    0.0000 Br  0  0  0  0  0  0  0  0  0  0  0  0
    1.2990    1.5000    0.0000 Cl  0  0  0  0  0  0  0  0  0  0  0  0
  2  1  1  0
  3  1  1  0
  4  2  1  0
M  END
>  <NAME>  (1107) 
1-BROMO-2-CHLOROETHANE

>  <SYNONYMS>  (1107) 


>  <SPECTRUM TYPE>  (1107) 
MS1

>  <INSTRUMENT TYPE>  (1107) 
EI-B

>  <INSTRUMENT>  (1107) 
HITACHI M-80

>  <ION MODE>  (1107) 
P

>  <INCHIKEY>  (1107) 
IBYHHJPAARCAIE-UHFFFAOYSA-N

>  <FORMULA>  (1107) 
C2H4BrCl

>  <EXACT MASS>  (1107) 
141.918489908

>  <MW>  (1107) 
142

>  <ID>  (1107) 
JP010522

>  <CONTRIBUTOR>  (1107) 
University of Tokyo Team, {Faculty of Engineering, University of Tokyo

>  <COMMENT>  (1107) 
SMILES=ClCCBr
cas=107-04-0
InChI=InChI=1S/C2H4BrCl/c3-1-2-4/h1-2H2
computed SMILES=ClCCBr
accession=JP010522
date=2016.01.19 (Created 2008.10.21, modified 2011.05.06)
author=NARA WOMEN'S UNIVERSITY
license=CC BY-NC-SA
exact mass=141.91849
ionization energy=70 eV
ion type=[M]+*
computed spectral entropy=2.34469591502179
computed normalized entropy=0.7114113987881797
SPLASH=splash10-03fr-9100000000-68adaa21826a45e4f9fc
submitter=submitter = University of Tokyo Team (Faculty of Engineering, University of Tokyo)
MoNA Rating=3.75

>  <NUM PEAKS>  (1107) 
27

>  <MASS SPECTRAL PEAKS>  (1107) 
25 1.1
26 10.79
27 48.79
28 11.2
31 1.17
35 1.08
49 3.16
51 1.02
61 4.08
62 5.77
63 99.99
64 3.75
65 29.81
79 2.98
80 1.3
81 3.58
82 1.39
93 5.13
95 4.67
105 1.52
106 1.52
107 6.47
108 1.2
109 4.76
142 11.04
144 14.51
146 3.44

$$$$

     RDKit          2D

 15 15  0  0  0  0  0  0  0  0999 V2000
    4.5301    1.8139    0.0000 C   0  0  0  0  0  0  0  0  0  0  0  0
    5.4979    3.7016    0.0000 C   0  0  0  0  0  0  0  0  0  0  0  0
    3.6101    4.6694    0.0000 C   0  0  0  0  0  0  0  0  0  0  0  0
   -4.0655   -0.7497    0.0000 C   0  0  0  0  0  0  0  0  0  0  0  0
   -1.9643   -2.2777    0.0000 C   0  0  0  0  0  0  0  0  0  0  0  0
    2.1824    1.3617    0.0000 C   0  0  0  0  0  0  0  0  0  0  0  0
    2.6424    2.7817    0.0000 C   0  0  0  0  0  0  0  0  0  0  0  0
    0.6824    1.3617    0.0000 C   0  0  0  0  0  0  0  0  0  0  0  0
   -1.6915    0.3060    0.0000 C   0  0  0  0  0  0  0  0  0  0  0  0
    4.0701    3.2417    0.0000 C   0  0  0  0  0  0  0  0  0  0  0  0
   -0.1998    0.1486    0.0000 N   0  0  0  0  0  0  0  0  0  0  0  0
    0.2224    2.7817    0.0000 N   0  0  0  0  0  0  0  0  0  0  0  0
   -2.5738   -0.9071    0.0000 N   0  0  0  0  0  0  0  0  0  0  0  0
   -2.3010    1.6766    0.0000 O   0  0  0  0  0  0  0  0  0  0  0  0
    1.4324    3.6717    0.0000 O   0  0  0  0  0  0  0  0  0  0  0  0
  7  6  2  0
  8  6  1  0
 10  1  1  0
 10  2  1  0
 10  3  1  0
 10  7  1  0
 11  8  2  3
 11  9  1  0
 12  8  1  0
 13  4  1  0
 13  5  1  0
 13  9  1  0
 14  9  2  0
 15  7  1  0
 15 12  1  0
M  END
>  <NAME>  (1108) 
3-(5-TERT-BUTYL-3-ISOXAZOLYL)-1,1-DIMETHYLUREA

>  <SYNONYMS>  (1108) 


>  <SPECTRUM TYPE>  (1108) 
MS1

>  <INSTRUMENT TYPE>  (1108) 
EI-B

>  <INSTRUMENT>  (1108) 
HITACHI M-80

>  <ION MODE>  (1108) 
P

>  <INCHIKEY>  (1108) 
JLLJHQLUZAKJFH-UHFFFAOYSA-N

>  <FORMULA>  (1108) 
C10H17N3O2

>  <EXACT MASS>  (1108) 
211.132076784

>  <MW>  (1108) 
211

>  <ID>  (1108) 
JP010521

>  <CONTRIBUTOR>  (1108) 
University of Tokyo Team, {Faculty of Engineering, University of Tokyo

>  <COMMENT>  (1108) 
SMILES=CN(C)C(=O)Nc(n1)cc(o1)C(C)(C)C
InChI=InChI=1S/C10H17N3O2/c1-10(2,3)7-6-8(12-15-7)11-9(14)13(4)5/h6H,1-5H3,(H,11,12,14)
computed SMILES=O=C(N=C1C=C(ON1)C(C)(C)C)N(C)C
accession=JP010521
date=2016.01.19 (Created 2008.10.21, modified 2011.05.06)
author=NARA WOMEN'S UNIVERSITY
license=CC BY-NC-SA
exact mass=211.13208
ionization energy=70 eV
ion type=[M]+*
computed spectral entropy=2.8696255363342886
computed normalized entropy=0.7727399616297205
SPLASH=splash10-00di-9210000000-715ff602c73576be5748
submitter=submitter = University of Tokyo Team (Faculty of Engineering, University of Tokyo)
MoNA Rating=3.75

>  <NUM PEAKS>  (1108) 
41

>  <MASS SPECTRAL PEAKS>  (1108) 
15 4.68
18 2.38
27 2.96
28 3.53
29 4.46
30 4.17
39 5.54
40 1.39
41 9.44
42 8.83
43 4.37
44 21.87
45 12.45
53 1.53
55 1.35
56 2.42
57 5.7
67 4.19
68 3.89
69 1.23
71 1
72 99.99
73 4.06
87 5.38
94 2.63
97 2.87
111 5.75
123 1.44
125 1.66
126 1.88
127 1.26
139 1.7
140 10.67
141 1.22
151 2.91
154 16.29
155 1.23
167 12.52
168 1.37
211 21.35
212 5.94

$$$$

     RDKit          2D

 16 16  0  0  0  0  0  0  0  0999 V2000
   -2.5989    1.5002    0.0000 C   0  0  0  0  0  0  0  0  0  0  0  0
    0.0000    3.0000    0.0000 C   0  0  0  0  0  0  0  0  0  0  0  0
    2.5989   -1.5002    0.0000 C   0  0  0  0  0  0  0  0  0  0  0  0
    1.2990   -3.7500    0.0000 C   0  0  0  0  0  0  0  0  0  0  0  0
   -5.1970   -1.5006    0.0000 C   0  0  0  0  0  0  0  0  0  0  0  0
   -1.3000    0.7500    0.0000 C   0  0  0  0  0  0  0  0  0  0  0  0
    0.0000    1.5000    0.0000 C   0  0  0  0  0  0  0  0  0  0  0  0
    1.3000   -0.7500    0.0000 C   0  0  0  0  0  0  0  0  0  0  0  0
   -1.3000   -0.7500    0.0000 C   0  0  0  0  0  0  0  0  0  0  0  0
    1.3000    0.7500    0.0000 C   0  0  0  0  0  0  0  0  0  0  0  0
   -0.0000   -1.5000    0.0000 C   0  0  0  0  0  0  0  0  0  0  0  0
   -2.5989   -1.5002    0.0000 C   0  0  0  0  0  0  0  0  0  0  0  0
    2.5989    1.5002    0.0000 O   0  0  0  0  0  0  0  0  0  0  0  0
   -2.5987   -3.0002    0.0000 O   0  0  0  0  0  0  0  0  0  0  0  0
   -0.0000   -3.0000    0.0000 O   0  0  0  0  0  0  0  0  0  0  0  0
   -3.8981   -0.7504    0.0000 O   0  0  0  0  0  0  0  0  0  0  0  0
  6  1  1  0
  7  2  1  0
  7  6  2  0
  8  3  1  0
  9  6  1  0
 10  7  1  0
 10  8  2  0
 11  8  1  0
 11  9  2  0
 12  9  1  0
 13 10  1  0
 14 12  2  0
 15  4  1  0
 15 11  1  0
 16  5  1  0
 16 12  1  0
M  END
>  <NAME>  (1109) 
METHYL 4-HYDROXY-2-METHOXY-3,5,6-TRIMETHYLBENZOATE

>  <SYNONYMS>  (1109) 


>  <SPECTRUM TYPE>  (1109) 
MS1

>  <INSTRUMENT TYPE>  (1109) 
EI-B

>  <INSTRUMENT>  (1109) 
HITACHI M-80

>  <ION MODE>  (1109) 
P

>  <INCHIKEY>  (1109) 
UCGSEFPFVKCJLI-UHFFFAOYSA-N

>  <FORMULA>  (1109) 
C12H16O4

>  <EXACT MASS>  (1109) 
224.104858992

>  <MW>  (1109) 
224

>  <ID>  (1109) 
JP010520

>  <CONTRIBUTOR>  (1109) 
University of Tokyo Team, {Faculty of Engineering, University of Tokyo

>  <COMMENT>  (1109) 
SMILES=COC(=O)c(c(C)1)c(OC)c(C)c(O)c(C)1
cas=34874-83-4
InChI=InChI=1S/C12H16O4/c1-6-7(2)10(13)8(3)11(15-4)9(6)12(14)16-5/h13H,1-5H3
computed SMILES=O=C(OC)C=1C(OC)=C(C(O)=C(C1C)C)C
accession=JP010520
date=2016.01.19 (Created 2008.10.21, modified 2011.05.06)
author=NARA WOMEN'S UNIVERSITY
license=CC BY-NC-SA
exact mass=224.10486
ionization energy=70 eV
ion type=[M]+*
computed spectral entropy=3.7067553310085466
computed normalized entropy=0.8365851036712268
SPLASH=splash10-0006-6910000000-b89ee6cbefbb54519e5e
submitter=submitter = University of Tokyo Team (Faculty of Engineering, University of Tokyo)
MoNA Rating=3.75

>  <NUM PEAKS>  (1109) 
84

>  <MASS SPECTRAL PEAKS>  (1109) 
14 1.75
15 15.68
17 1.18
27 5.41
28 20.86
29 4.91
30 1.02
31 2.96
32 5.11
33 1.38
39 8.25
40 1.53
41 4.3
43 5.46
45 2.83
50 1.56
51 5.12
52 2.61
53 6.25
54 1.1
55 4.43
59 2.42
63 3.77
64 1.45
65 7.24
66 2.93
67 8.02
77 13.52
78 4.25
79 8.18
80 1.12
81 1.6
83 4.65
89 1.79
91 18.05
92 3.3
93 5.47
94 1.85
95 1
98 2.11
103 2.47
104 1.22
105 4.51
106 1.12
107 7.64
108 1.12
109 1.1
115 1.07
119 2.41
120 2.05
121 8.55
122 3.44
123 1.2
133 1.93
134 12.06
135 7.93
136 3.09
137 2.35
146 3.66
147 2.26
148 1.99
149 12.37
150 13.36
151 2.65
162 1.05
163 11.54
164 3.63
165 4.78
166 1.96
175 1.79
176 1.42
177 12.58
178 5.67
179 2.15
191 4.08
192 21.47
193 99.99
194 12.39
195 2.13
207 2.98
209 1.73
223 1.96
224 47.9
225 6.55

$$$$

     RDKit          2D

 14 16  0  0  0  0  0  0  0  0999 V2000
    3.9000    0.7500    0.0000 C   0  0  0  0  0  0  0  0  0  0  0  0
   -3.9000    0.7500    0.0000 C   0  0  0  0  0  0  0  0  0  0  0  0
    3.9000   -0.7500    0.0000 C   0  0  0  0  0  0  0  0  0  0  0  0
   -3.9000   -0.7500    0.0000 C   0  0  0  0  0  0  0  0  0  0  0  0
    2.6000    1.5000    0.0000 C   0  0  0  0  0  0  0  0  0  0  0  0
   -2.6000    1.5000    0.0000 C   0  0  0  0  0  0  0  0  0  0  0  0
    2.6000   -1.5000    0.0000 C   0  0  0  0  0  0  0  0  0  0  0  0
   -2.6000   -1.5000    0.0000 C   0  0  0  0  0  0  0  0  0  0  0  0
    0.0000    1.5000    0.0000 C   0  0  0  0  0  0  0  0  0  0  0  0
    1.3000    0.7500    0.0000 C   0  0  0  0  0  0  0  0  0  0  0  0
   -1.3000    0.7500    0.0000 C   0  0  0  0  0  0  0  0  0  0  0  0
    1.3000   -0.7500    0.0000 C   0  0  0  0  0  0  0  0  0  0  0  0
   -1.3000   -0.7500    0.0000 C   0  0  0  0  0  0  0  0  0  0  0  0
    0.0000   -1.5000    0.0000 O   0  0  0  0  0  0  0  0  0  0  0  0
  3  1  2  0
  4  2  2  0
  5  1  1  0
  6  2  1  0
  7  3  1  0
  8  4  1  0
 10  5  2  0
 10  9  1  0
 11  6  2  0
 11  9  1  0
 12  7  2  0
 12 10  1  0
 13  8  2  0
 13 11  1  0
 14 12  1  0
 14 13  1  0
M  END
>  <NAME>  (1110) 
XANTHENE

>  <SYNONYMS>  (1110) 


>  <SPECTRUM TYPE>  (1110) 
MS1

>  <INSTRUMENT TYPE>  (1110) 
EI-B

>  <INSTRUMENT>  (1110) 
HITACHI M-80

>  <ION MODE>  (1110) 
P

>  <INCHIKEY>  (1110) 
GJCOSYZMQJWQCA-UHFFFAOYSA-N

>  <FORMULA>  (1110) 
C13H10O

>  <EXACT MASS>  (1110) 
182.07316494

>  <MW>  (1110) 
182

>  <ID>  (1110) 
JP010519

>  <CONTRIBUTOR>  (1110) 
University of Tokyo Team, {Faculty of Engineering, University of Tokyo

>  <COMMENT>  (1110) 
SMILES=c(c3)cc(C1)c(c3)Oc(c2)c(ccc2)1
cas=92-83-1
InChI=InChI=1S/C13H10O/c1-3-7-12-10(5-1)9-11-6-2-4-8-13(11)14-12/h1-8H,9H2
computed SMILES=O1C=2C=CC=CC2CC=3C=CC=CC13
accession=JP010519
date=2016.01.19 (Created 2008.10.21, modified 2011.05.06)
author=NARA WOMEN'S UNIVERSITY
license=CC BY-NC-SA
exact mass=182.07316
ionization energy=70 eV
ion type=[M]+*
computed spectral entropy=1.4345353114561883
computed normalized entropy=0.5173992449544869
SPLASH=splash10-001i-0900000000-657d8c5027c1e05a2b14
submitter=submitter = University of Tokyo Team (Faculty of Engineering, University of Tokyo)
MoNA Rating=3.75

>  <NUM PEAKS>  (1110) 
16

>  <MASS SPECTRAL PEAKS>  (1110) 
28 1.59
39 0.9
63 1.47
76 1.84
77 1.01
91 1.25
126 1.03
127 1.53
151 2.52
152 10.02
153 2.8
180 1.04
181 99.99
182 61.3
183 8.25
184 1.27

$$$$

     RDKit          2D

  6  5  0  0  0  0  0  0  0  0999 V2000
    1.2990    2.2500    0.0000 C   0  0  0  0  0  0  0  0  0  0  0  0
   -3.8971    2.2500    0.0000 C   0  0  0  0  0  0  0  0  0  0  0  0
    0.0000    3.0000    0.0000 C   0  0  0  0  0  0  0  0  0  0  0  0
   -1.2990    2.2500    0.0000 C   0  0  0  0  0  0  0  0  0  0  0  0
   -2.5981    3.0000    0.0000 C   0  0  0  0  0  0  0  0  0  0  0  0
   -2.5981    4.5000    0.0000 Br  0  0  0  0  0  0  0  0  0  0  0  0
  3  1  1  0
  4  3  1  0
  5  2  1  0
  5  4  1  0
  6  5  1  0
M  END
>  <NAME>  (1111) 
2-BROMOPENTANE

>  <SYNONYMS>  (1111) 


>  <SPECTRUM TYPE>  (1111) 
MS1

>  <INSTRUMENT TYPE>  (1111) 
EI-B

>  <INSTRUMENT>  (1111) 
HITACHI M-80

>  <ION MODE>  (1111) 
P

>  <INCHIKEY>  (1111) 
LGAJYTCRJPCZRJ-UHFFFAOYSA-N

>  <FORMULA>  (1111) 
C5H11Br

>  <EXACT MASS>  (1111) 
150.004412452

>  <MW>  (1111) 
150

>  <ID>  (1111) 
JP010517

>  <CONTRIBUTOR>  (1111) 
University of Tokyo Team, {Faculty of Engineering, University of Tokyo

>  <COMMENT>  (1111) 
SMILES=CCCC(C)Br
cas=107-81-3
InChI=InChI=1S/C5H11Br/c1-3-4-5(2)6/h5H,3-4H2,1-2H3
computed SMILES=BrC(C)CCC
accession=JP010517
date=2016.01.19 (Created 2008.10.21, modified 2011.05.06)
author=NARA WOMEN'S UNIVERSITY
license=CC BY-NC-SA
exact mass=150.00441
ionization energy=70 eV
ion type=[M]+*
computed spectral entropy=1.925746190699794
computed normalized entropy=0.6797039110167284
SPLASH=splash10-006x-9000000000-b5773a9504f086e95ab4
submitter=submitter = University of Tokyo Team (Faculty of Engineering, University of Tokyo)
MoNA Rating=3.75

>  <NUM PEAKS>  (1111) 
17

>  <MASS SPECTRAL PEAKS>  (1111) 
26 1.33
27 9.12
28 4.28
29 13.15
39 9.82
40 2.09
41 20.33
42 10.78
43 96.97
44 2.3
53 2.06
55 20.98
56 1.17
69 1.47
70 4.24
71 99.99
72 4.99

$$$$

     RDKit          2D

 10 11  0  0  0  0  0  0  0  0999 V2000
   -2.3100   -0.7500    0.0000 C   0  0  0  0  0  0  0  0  0  0  0  0
   -2.3100    0.7500    0.0000 C   0  0  0  0  0  0  0  0  0  0  0  0
   -1.0100   -1.5000    0.0000 C   0  0  0  0  0  0  0  0  0  0  0  0
   -1.0100    1.5000    0.0000 C   0  0  0  0  0  0  0  0  0  0  0  0
    0.2900   -0.7500    0.0000 C   0  0  0  0  0  0  0  0  0  0  0  0
    0.2900    0.7500    0.0000 C   0  0  0  0  0  0  0  0  0  0  0  0
    1.7200   -1.2100    0.0000 N   0  0  0  0  0  0  0  0  0  0  0  0
    1.7200    1.2100    0.0000 N   0  0  0  0  0  0  0  0  0  0  0  0
    2.1853    2.6360    0.0000 O   0  0  0  0  0  0  0  0  0  0  0  0
    2.6000    0.0000    0.0000 O   0  0  0  0  0  0  0  0  0  0  0  0
  2  1  1  0
  3  1  2  0
  4  2  2  0
  5  3  1  0
  6  4  1  0
  6  5  1  0
  7  5  2  0
  8  6  2  0
  9  8  1  0
 10  7  1  0
 10  8  1  0
M  CHG  2   8   1   9  -1
M  END
>  <NAME>  (1112) 
BENZOFUROXAN

>  <SYNONYMS>  (1112) 
BENZOFURAN 1-OXIDE

>  <SPECTRUM TYPE>  (1112) 
MS1

>  <INSTRUMENT TYPE>  (1112) 
EI-B

>  <INSTRUMENT>  (1112) 
HITACHI M-80

>  <ION MODE>  (1112) 
P

>  <INCHIKEY>  (1112) 
OKEAMBAZBICIFP-UHFFFAOYSA-N

>  <FORMULA>  (1112) 
C6H4N2O2

>  <EXACT MASS>  (1112) 
136.027277368

>  <MW>  (1112) 
136

>  <ID>  (1112) 
JP010516

>  <CONTRIBUTOR>  (1112) 
University of Tokyo Team, {Faculty of Engineering, University of Tokyo

>  <COMMENT>  (1112) 
SMILES=[O-1][n+1](o1)c(c2)c(ccc2)n1
cas=480-96-6
InChI=InChI=1S/C6H4N2O2/c9-8-6-4-2-1-3-5(6)7-10-8/h1-4H
computed SMILES=O=N=1ON=C2C=CC=CC21
accession=JP010516
date=2016.01.19 (Created 2008.10.21, modified 2011.05.06)
author=NARA WOMEN'S UNIVERSITY
license=CC BY-NC-SA
exact mass=136.02728
ionization energy=70 eV
ion type=[M]+*
computed spectral entropy=2.10611350744224
computed normalized entropy=0.6813602657427162
SPLASH=splash10-000i-5900000000-202be0166d74a0b16576
submitter=submitter = University of Tokyo Team (Faculty of Engineering, University of Tokyo)
MoNA Rating=3.75

>  <NUM PEAKS>  (1112) 
22

>  <MASS SPECTRAL PEAKS>  (1112) 
27 2.2
28 1.08
30 15.09
37 2.15
38 2.31
39 4.8
50 13.35
51 12.65
52 3.9
62 1.31
63 3.24
64 2.15
74 4.26
75 3.7
76 11.47
77 1.24
78 4.61
90 1.06
120 1.4
136 99.99
137 35.07
138 3.26

$$$$

     RDKit          2D

 19 20  0  0  0  0  0  0  0  0999 V2000
    3.8981    0.7504    0.0000 C   0  0  0  0  0  0  0  0  0  0  0  0
  -10.3951   -3.0010    0.0000 C   0  0  0  0  0  0  0  0  0  0  0  0
   -1.3000    0.7500    0.0000 C   0  0  0  0  0  0  0  0  0  0  0  0
    0.0000   -1.5000    0.0000 C   0  0  0  0  0  0  0  0  0  0  0  0
   -5.1970   -3.0006    0.0000 C   0  0  0  0  0  0  0  0  0  0  0  0
   -6.4970   -0.7506    0.0000 C   0  0  0  0  0  0  0  0  0  0  0  0
    0.0000    1.5000    0.0000 C   0  0  0  0  0  0  0  0  0  0  0  0
    1.3000   -0.7500    0.0000 C   0  0  0  0  0  0  0  0  0  0  0  0
   -6.4970   -3.7506    0.0000 C   0  0  0  0  0  0  0  0  0  0  0  0
   -7.7970   -1.5006    0.0000 C   0  0  0  0  0  0  0  0  0  0  0  0
   -1.3000   -0.7500    0.0000 C   0  0  0  0  0  0  0  0  0  0  0  0
   -5.1970   -1.5006    0.0000 C   0  0  0  0  0  0  0  0  0  0  0  0
    1.3000    0.7500    0.0000 C   0  0  0  0  0  0  0  0  0  0  0  0
   -7.7970   -3.0006    0.0000 C   0  0  0  0  0  0  0  0  0  0  0  0
   -2.5989   -1.5002    0.0000 N   0  0  0  0  0  0  0  0  0  0  0  0
   -3.8981   -0.7504    0.0000 N   0  0  0  0  0  0  0  0  0  0  0  0
   -3.8983    0.7496    0.0000 O   0  0  0  0  0  0  0  0  0  0  0  0
    2.5989    1.5002    0.0000 O   0  0  0  0  0  0  0  0  0  0  0  0
   -9.0959   -3.7508    0.0000 O   0  0  0  0  0  0  0  0  0  0  0  0
  7  3  2  0
  8  4  1  0
  9  5  2  0
 10  6  1  0
 11  3  1  0
 11  4  2  0
 12  5  1  0
 12  6  2  0
 13  7  1  0
 13  8  2  0
 14  9  1  0
 14 10  2  0
 15 11  1  0
 16 12  1  0
 15 16  2  0
 17 16  1  0
 18  1  1  0
 18 13  1  0
 19  2  1  0
 19 14  1  0
M  CHG  2  16   1  17  -1
M  END
>  <NAME>  (1113) 
4,4'-AZOXYANISOL

>  <SYNONYMS>  (1113) 
4,4'-AZOXYDIANISOL

>  <SPECTRUM TYPE>  (1113) 
MS1

>  <INSTRUMENT TYPE>  (1113) 
EI-B

>  <INSTRUMENT>  (1113) 
HITACHI M-80

>  <ION MODE>  (1113) 
P

>  <INCHIKEY>  (1113) 
KAEZRSFWWCTVNP-FOCLMDBBSA-N

>  <FORMULA>  (1113) 
C14H14N2O3

>  <EXACT MASS>  (1113) 
258.10044230799997

>  <MW>  (1113) 
258

>  <ID>  (1113) 
JP010515

>  <CONTRIBUTOR>  (1113) 
University of Tokyo Team, {Faculty of Engineering, University of Tokyo

>  <COMMENT>  (1113) 
SMILES=COc(c2)ccc(c2)N=[N+1]([O-1])c(c1)ccc(OC)c1
cas=1562-94-3
InChI=InChI=1S/C14H14N2O3/c1-18-13-7-3-11(4-8-13)15-16(17)12-5-9-14(19-2)10-6-12/h3-10H,1-2H3/b16-15+
computed SMILES=O=N(=NC1=CC=C(OC)C=C1)C2=CC=C(OC)C=C2
computed InChI=InChI=1S/C14H14N2O3/c1-18-13-7-3-11(4-8-13)15-16(17)12-5-9-14(19-2)10-6-12/h3-10H,1-2H3/b16-15-
accession=JP010515
date=2016.01.19 (Created 2008.10.21, modified 2011.05.06)
author=NARA WOMEN'S UNIVERSITY
license=CC BY-NC-SA
exact mass=258.10044
ion type=[M]+*
ionization energy=70 eV
computed spectral entropy=3.2117559897307926
computed normalized entropy=0.7812830302874473
SPLASH=splash10-0a4i-8950000000-dd6997a5434a2ba2c27d
submitter=submitter = University of Tokyo Team (Faculty of Engineering, University of Tokyo)
MoNA Rating=3.75

>  <NUM PEAKS>  (1113) 
61

>  <MASS SPECTRAL PEAKS>  (1113) 
15 2.03
18 1.47
27 1.49
28 1.78
38 2.14
39 3.56
41 2.37
50 3.69
51 8.04
52 8.26
53 2.6
55 2.15
62 1.71
63 11.35
64 20.5
65 4.41
66 5.57
67 1.69
75 1.25
76 3.63
77 34.32
78 22.8
79 4.86
80 17.92
81 1.39
90 1.04
91 9.5
92 30.53
93 6.74
94 1.64
95 8.11
106 28.2
107 63.37
108 7.02
120 4.22
121 78.29
122 17.05
123 4.45
128 1.08
129 1.19
134 1.21
135 9.41
136 1.6
137 12.51
138 1.16
149 1.07
151 1.07
187 2.9
198 1.69
199 2.19
201 1.71
215 5.75
227 1.15
229 1.07
230 1.49
242 4.38
243 1.69
257 2.59
258 99.99
259 17.82
260 2.09

$$$$

     RDKit          2D

 15 16  0  0  0  0  0  0  0  0999 V2000
    3.8971    1.0700    0.0000 C   0  0  0  0  0  0  0  0  0  0  0  0
   -5.1962    4.8200    0.0000 C   0  0  0  0  0  0  0  0  0  0  0  0
    2.5976    0.3192    0.0000 C   0  0  0  0  0  0  0  0  0  0  0  0
    3.8976    2.5708    0.0000 C   0  0  0  0  0  0  0  0  0  0  0  0
   -3.8966    5.5708    0.0000 C   0  0  0  0  0  0  0  0  0  0  0  0
   -5.1966    3.3192    0.0000 C   0  0  0  0  0  0  0  0  0  0  0  0
    1.2986    1.0692    0.0000 C   0  0  0  0  0  0  0  0  0  0  0  0
    2.5986    3.3208    0.0000 C   0  0  0  0  0  0  0  0  0  0  0  0
   -2.5976    4.8208    0.0000 C   0  0  0  0  0  0  0  0  0  0  0  0
   -3.8976    2.5692    0.0000 C   0  0  0  0  0  0  0  0  0  0  0  0
    1.2990    2.5700    0.0000 C   0  0  0  0  0  0  0  0  0  0  0  0
   -2.5981    3.3200    0.0000 C   0  0  0  0  0  0  0  0  0  0  0  0
    0.0000    3.3200    0.0000 N   0  0  0  0  0  0  0  0  0  0  0  0
   -1.2990    2.5700    0.0000 N   0  0  0  0  0  0  0  0  0  0  0  0
   -1.2990    1.0700    0.0000 O   0  0  0  0  0  0  0  0  0  0  0  0
  3  1  2  0
  4  1  1  0
  5  2  2  0
  6  2  1  0
  7  3  1  0
  8  4  2  0
  9  5  1  0
 10  6  2  0
 11  7  2  0
 11  8  1  0
 12  9  2  0
 12 10  1  0
 13 11  1  0
 14 12  1  0
 13 14  2  0
 15 14  1  0
M  CHG  2  14   1  15  -1
M  END
>  <NAME>  (1114) 
AZOXYBENZENE

>  <SYNONYMS>  (1114) 


>  <SPECTRUM TYPE>  (1114) 
MS1

>  <INSTRUMENT TYPE>  (1114) 
EI-B

>  <INSTRUMENT>  (1114) 
HITACHI M-80

>  <ION MODE>  (1114) 
P

>  <INCHIKEY>  (1114) 
GAUZCKBSTZFWCT-BUHFOSPRSA-N

>  <FORMULA>  (1114) 
C12H10N2O

>  <EXACT MASS>  (1114) 
198.07931294

>  <MW>  (1114) 
198

>  <ID>  (1114) 
JP010514

>  <CONTRIBUTOR>  (1114) 
University of Tokyo Team, {Faculty of Engineering, University of Tokyo

>  <COMMENT>  (1114) 
SMILES=[O-1][N+1](=Nc(c2)cccc2)c(c1)cccc1
InChI=InChI=1S/C12H10N2O/c15-14(12-9-5-2-6-10-12)13-11-7-3-1-4-8-11/h1-10H/b14-13+
computed SMILES=O=N(=NC=1C=CC=CC1)C=2C=CC=CC2
computed InChI=InChI=1S/C12H10N2O/c15-14(12-9-5-2-6-10-12)13-11-7-3-1-4-8-11/h1-10H/b14-13-
accession=JP010514
date=2016.01.19 (Created 2008.10.21, modified 2011.05.06)
author=NARA WOMEN'S UNIVERSITY
license=CC BY-NC-SA
exact mass=198.07931
ionization energy=70 eV
ion type=[M]+*
computed spectral entropy=3.0638056788024777
computed normalized entropy=0.7872423298398111
SPLASH=splash10-004j-9700000000-67e9277e6d81e6efd3dc
submitter=submitter = University of Tokyo Team (Faculty of Engineering, University of Tokyo)
MoNA Rating=3.75

>  <NUM PEAKS>  (1114) 
49

>  <MASS SPECTRAL PEAKS>  (1114) 
27 2.07
38 2.8
39 7.85
41 2.04
50 6.43
51 26.94
52 3.76
62 1.1
63 7.84
64 16.66
65 25.33
66 2.09
74 1.85
75 1.76
76 2.49
77 99.99
78 8.71
81 1.15
90 1.21
91 29.52
92 4.5
93 9.53
94 1.34
104 1.34
105 30.55
106 2.4
107 2.74
115 6.07
116 1
121 2.06
139 1.15
141 14.18
142 7.28
143 1.13
152 2.02
153 2.77
154 1.04
166 1.04
167 2.25
168 6.88
169 18.24
170 12.85
171 1.63
182 13.25
183 2.46
197 4.85
198 70.09
199 26.81
200 3.16

$$$$

     RDKit          2D

 14 15  0  0  0  0  0  0  0  0999 V2000
    3.8971    1.0700    0.0000 C   0  0  0  0  0  0  0  0  0  0  0  0
   -5.1962    4.8200    0.0000 C   0  0  0  0  0  0  0  0  0  0  0  0
    2.5976    0.3192    0.0000 C   0  0  0  0  0  0  0  0  0  0  0  0
    3.8976    2.5708    0.0000 C   0  0  0  0  0  0  0  0  0  0  0  0
   -3.8966    5.5708    0.0000 C   0  0  0  0  0  0  0  0  0  0  0  0
   -5.1966    3.3192    0.0000 C   0  0  0  0  0  0  0  0  0  0  0  0
    1.2986    1.0692    0.0000 C   0  0  0  0  0  0  0  0  0  0  0  0
    2.5986    3.3208    0.0000 C   0  0  0  0  0  0  0  0  0  0  0  0
   -2.5976    4.8208    0.0000 C   0  0  0  0  0  0  0  0  0  0  0  0
   -3.8976    2.5692    0.0000 C   0  0  0  0  0  0  0  0  0  0  0  0
    1.2990    2.5700    0.0000 C   0  0  0  0  0  0  0  0  0  0  0  0
   -2.5981    3.3200    0.0000 C   0  0  0  0  0  0  0  0  0  0  0  0
    0.0000    3.3200    0.0000 N   0  0  0  0  0  0  0  0  0  0  0  0
   -1.2990    2.5700    0.0000 N   0  0  0  0  0  0  0  0  0  0  0  0
  3  1  2  0
  4  1  1  0
  5  2  2  0
  6  2  1  0
  7  3  1  0
  8  4  2  0
  9  5  1  0
 10  6  2  0
 11  7  2  0
 11  8  1  0
 12  9  2  0
 12 10  1  0
 13 11  1  0
 14 12  1  0
 13 14  2  0
M  END
>  <NAME>  (1115) 
AZOBENZENE

>  <SYNONYMS>  (1115) 


>  <SPECTRUM TYPE>  (1115) 
MS1

>  <INSTRUMENT TYPE>  (1115) 
EI-B

>  <INSTRUMENT>  (1115) 
HITACHI M-80

>  <ION MODE>  (1115) 
P

>  <INCHIKEY>  (1115) 
DMLAVOWQYNRWNQ-BUHFOSPRSA-N

>  <FORMULA>  (1115) 
C12H10N2

>  <EXACT MASS>  (1115) 
182.08439832

>  <MW>  (1115) 
182

>  <ID>  (1115) 
JP010513

>  <CONTRIBUTOR>  (1115) 
University of Tokyo Team, {Faculty of Engineering, University of Tokyo

>  <COMMENT>  (1115) 
cas=103-33-3
SMILES=c(c2)ccc(c2)N=Nc(c1)cccc1
InChI=InChI=1S/C12H10N2/c1-3-7-11(8-4-1)13-14-12-9-5-2-6-10-12/h1-10H/b14-13+
computed SMILES=N(=NC=1C=CC=CC1)C=2C=CC=CC2
accession=JP010513
date=2016.01.19 (Created 2008.10.21, modified 2011.05.06)
author=NARA WOMEN'S UNIVERSITY
license=CC BY-NC-SA
exact mass=182.0844
ionization energy=70 eV
ion type=[M]+*
computed spectral entropy=2.1842162508278826
computed normalized entropy=0.6703964186875426
SPLASH=splash10-003r-5900000000-b43ffb3f0c623166afc2
submitter=submitter = University of Tokyo Team (Faculty of Engineering, University of Tokyo)
MoNA Rating=3.75

>  <NUM PEAKS>  (1115) 
26

>  <MASS SPECTRAL PEAKS>  (1115) 
38 1.08
39 2.04
50 4.44
51 20.38
52 1.35
63 2.08
64 1.74
74 1.19
75 1.13
76 1.63
77 78.22
78 6.13
105 28.23
106 2.03
115 1.47
128 1.6
152 5.57
153 6.32
154 1.63
156 1.42
166 5.79
167 7
168 1.28
182 99.99
183 30.61
184 4.37

$$$$

     RDKit          2D

 12 11  0  0  1  0  0  0  0  0999 V2000
   -5.1962    3.7500    0.0000 C   0  0  0  0  0  0  0  0  0  0  0  0
    1.2990    4.5000    0.0000 C   0  0  0  0  0  0  0  0  0  0  0  0
   -3.8971    4.5000    0.0000 C   0  0  0  0  0  0  0  0  0  0  0  0
    0.0000    3.7500    0.0000 C   0  0  0  0  0  0  0  0  0  0  0  0
   -2.5981    3.7500    0.0000 C   0  0  0  0  0  0  0  0  0  0  0  0
   -1.2990    4.5000    0.0000 C   0  0  0  0  0  0  0  0  0  0  0  0
   -6.4952    4.5000    0.0000 O   0  0  0  0  0  0  0  0  0  0  0  0
    2.5981    3.7500    0.0000 O   0  0  0  0  0  0  0  0  0  0  0  0
   -3.8971    6.0000    0.0000 O   0  0  0  0  0  0  0  0  0  0  0  0
   -0.0000    2.2500    0.0000 O   0  0  0  0  0  0  0  0  0  0  0  0
   -2.5981    2.2500    0.0000 O   0  0  0  0  0  0  0  0  0  0  0  0
   -1.2990    6.0000    0.0000 O   0  0  0  0  0  0  0  0  0  0  0  0
  3  1  1  0
  4  2  1  0
  5  3  1  0
  6  4  1  0
  6  5  1  0
  7  1  1  0
  8  2  1  0
  3  9  1  1
  4 10  1  1
  5 11  1  6
  6 12  1  6
M  END
>  <NAME>  (1116) 
MANNITOL

>  <SYNONYMS>  (1116) 


>  <SPECTRUM TYPE>  (1116) 
MS1

>  <INSTRUMENT TYPE>  (1116) 
EI-B

>  <INSTRUMENT>  (1116) 
HITACHI M-80

>  <ION MODE>  (1116) 
P

>  <INCHIKEY>  (1116) 
FBPFZTCFMRRESA-KVTDHHQDSA-N

>  <FORMULA>  (1116) 
C6H14O6

>  <EXACT MASS>  (1116) 
182.07903816799998

>  <MW>  (1116) 
182

>  <ID>  (1116) 
JP010511

>  <CONTRIBUTOR>  (1116) 
University of Tokyo Team, {Faculty of Engineering, University of Tokyo

>  <COMMENT>  (1116) 
SMILES=OCC(O)C(O)C(O)C(O)CO
cas=69-65-8
InChI=InChI=1S/C6H14O6/c7-1-3(9)5(11)6(12)4(10)2-8/h3-12H,1-2H2/t3-,4-,5-,6-/m1/s1
computed SMILES=OCC(O)C(O)C(O)C(O)CO
accession=JP010511
date=2016.01.19 (Created 2008.10.21, modified 2011.05.06)
author=NARA WOMEN'S UNIVERSITY
license=CC BY-NC-SA
exact mass=182.07904
ionization energy=70 eV
ion type=[M]+*
computed spectral entropy=2.864281360583638
computed normalized entropy=0.7818297157929895
SPLASH=splash10-0229-9100000000-5655e9df8e0fdcaa72a0
submitter=submitter = University of Tokyo Team (Faculty of Engineering, University of Tokyo)
MoNA Rating=3.75

>  <NUM PEAKS>  (1116) 
39

>  <MASS SPECTRAL PEAKS>  (1116) 
26 2.56
27 7.57
28 8.28
32 2.07
40 3.9
42 4.2
43 28.07
44 22.88
45 26.18
46 1.24
47 1.68
55 7.27
56 22.6
57 22.29
58 1.55
59 1.54
60 19.17
61 76.29
62 2.59
69 4.71
71 7.89
72 1.93
73 99.99
74 42.16
75 3.44
85 11.92
86 2.11
87 1.58
89 1.45
91 7.24
97 1.18
103 60.76
104 5.71
115 2.61
116 1.16
133 18.65
134 1.09
146 2.32
183 2.24

$$$$

     RDKit          2D

 11 11  0  0  0  0  0  0  0  0999 V2000
    3.2476    3.7504    0.0000 C   0  0  0  0  0  0  0  0  0  0  0  0
    3.2481    0.7504    0.0000 C   0  0  0  0  0  0  0  0  0  0  0  0
    1.9487    3.0002    0.0000 C   0  0  0  0  0  0  0  0  0  0  0  0
   -1.9500    0.7500    0.0000 C   0  0  0  0  0  0  0  0  0  0  0  0
   -1.9500   -0.7500    0.0000 C   0  0  0  0  0  0  0  0  0  0  0  0
   -0.6500    1.5000    0.0000 C   0  0  0  0  0  0  0  0  0  0  0  0
   -0.6500   -1.5000    0.0000 C   0  0  0  0  0  0  0  0  0  0  0  0
    1.9489    1.5002    0.0000 C   0  0  0  0  0  0  0  0  0  0  0  0
    0.6500    0.7500    0.0000 C   0  0  0  0  0  0  0  0  0  0  0  0
    0.6500   -0.7500    0.0000 C   0  0  0  0  0  0  0  0  0  0  0  0
    1.9489   -1.5002    0.0000 O   0  0  0  0  0  0  0  0  0  0  0  0
  3  1  2  0
  5  4  2  0
  6  4  1  0
  7  5  1  0
  8  2  1  0
  8  3  1  0
  9  6  2  0
  9  8  1  0
 10  7  2  0
 10  9  1  0
 11 10  1  0
M  END
>  <NAME>  (1117) 
2-(1-METHYL-2-PROPENYL)PHENOL

>  <SYNONYMS>  (1117) 


>  <SPECTRUM TYPE>  (1117) 
MS1

>  <INSTRUMENT TYPE>  (1117) 
EI-B

>  <INSTRUMENT>  (1117) 
SHIMADZU LKB-9000B

>  <ION MODE>  (1117) 
P

>  <INCHIKEY>  (1117) 
KXVJXEPOPKSHOJ-UHFFFAOYSA-N

>  <FORMULA>  (1117) 
C10H12O

>  <EXACT MASS>  (1117) 
148.088815004

>  <MW>  (1117) 
148

>  <ID>  (1117) 
JP010510

>  <CONTRIBUTOR>  (1117) 
University of Tokyo Team, {Faculty of Engineering, University of Tokyo

>  <COMMENT>  (1117) 
SMILES=C=CC(C)c(c1)c(O)ccc1
InChI=InChI=1S/C10H12O/c1-3-8(2)9-6-4-5-7-10(9)11/h3-8,11H,1H2,2H3
computed SMILES=OC=1C=CC=CC1C(C=C)C
accession=JP010510
date=2016.01.19 (Created 2008.10.21, modified 2011.05.06)
author=TSUNODA T, FACULTY OF PHARMACEUTICAL SCIENCES, TOKUSHIMA BUNRI UNIV.
license=CC BY-NC-SA
exact mass=148.08882
ionization energy=70 eV
ion type=[M]+*
computed spectral entropy=3.04869874798708
computed normalized entropy=0.8796685129770705
SPLASH=splash10-053r-4900000000-4a842b011958896ab12c
submitter=submitter = University of Tokyo Team (Faculty of Engineering, University of Tokyo)
MoNA Rating=3.75

>  <NUM PEAKS>  (1117) 
32

>  <MASS SPECTRAL PEAKS>  (1117) 
27 5.8
39 15.6
50 7.5
51 12
53 8.8
55 17.7
63 14
64 5
65 11.2
77 34.9
78 10.7
79 14.9
89 7.8
91 26
92 6.4
94 5
102 5.5
103 18.7
105 69.1
106 6.2
107 10.9
115 13
119 6.4
120 9.5
121 18.3
131 16.3
132 6.4
133 99.99
134 10.5
147 10.2
148 57.3
149 9.4

$$$$

     RDKit          2D

 14 14  0  0  1  0  0  0  0  0999 V2000
   -5.5207    3.1321    0.0000 C   0  0  0  0  0  0  0  0  0  0  0  0
   -4.2216    2.3821    0.0000 C   0  0  0  0  0  0  0  0  0  0  0  0
    3.5726    0.8821    0.0000 C   0  0  0  0  0  0  0  0  0  0  0  0
    3.5731    2.3829    0.0000 C   0  0  0  0  0  0  0  0  0  0  0  0
    2.2731    0.1313    0.0000 C   0  0  0  0  0  0  0  0  0  0  0  0
    2.2740    3.1329    0.0000 C   0  0  0  0  0  0  0  0  0  0  0  0
    0.9740    0.8813    0.0000 C   0  0  0  0  0  0  0  0  0  0  0  0
   -0.3245    4.6321    0.0000 C   0  0  0  0  0  0  0  0  0  0  0  0
    0.9745    2.3821    0.0000 C   0  0  0  0  0  0  0  0  0  0  0  0
   -0.3245    3.1321    0.0000 C   0  0  0  0  0  0  0  0  0  0  0  0
   -2.9226    3.1321    0.0000 C   0  0  0  0  0  0  0  0  0  0  0  0
   -1.6236    2.3821    0.0000 N   0  0  0  0  0  0  0  0  0  0  0  0
   -1.6236    5.3821    0.0000 O   0  0  0  0  0  0  0  0  0  0  0  0
   -2.9226    4.6321    0.0000 O   0  0  0  0  0  0  0  0  0  0  0  0
  2  1  1  0
  4  3  2  0
  5  3  1  0
  6  4  1  0
  7  5  2  0
  9  6  2  0
  9  7  1  0
 10  8  1  1
 10  9  1  0
 11  2  1  0
 10 12  1  0
 12 11  2  3
 13  8  1  0
 14 11  1  0
M  END
>  <NAME>  (1118) 
(1R)-N-(2-HYDROXY-1-PHENYLETHYL)PROPANAMIDE

>  <SYNONYMS>  (1118) 


>  <SPECTRUM TYPE>  (1118) 
MS1

>  <INSTRUMENT TYPE>  (1118) 
EI-B

>  <INSTRUMENT>  (1118) 
SHIMADZU LKB-9000B

>  <ION MODE>  (1118) 
P

>  <INCHIKEY>  (1118) 
BJDIBEQXCYQUMH-JTQLQIEISA-N

>  <FORMULA>  (1118) 
C11H15NO2

>  <EXACT MASS>  (1118) 
193.11027872

>  <MW>  (1118) 
193

>  <ID>  (1118) 
JP010508

>  <CONTRIBUTOR>  (1118) 
University of Tokyo Team, {Faculty of Engineering, University of Tokyo

>  <COMMENT>  (1118) 
SMILES=CCC(=O)NC([H])(CO)c(c1)cccc1
InChI=InChI=1S/C11H15NO2/c1-2-11(14)12-10(8-13)9-6-4-3-5-7-9/h3-7,10,13H,2,8H2,1H3,(H,12,14)/t10-/m0/s1
computed SMILES=OC(=NC(C=1C=CC=CC1)CO)CC
accession=JP010508
date=2016.01.19 (Created 2008.10.21, modified 2011.05.06)
author=TSUNODA T, FACULTY OF PHARMACEUTICAL SCIENCES, TOKUSHIMA BUNRI UNIV.
license=CC BY-NC-SA
exact mass=193.11028
ionization energy=70 eV
ion type=[M]+*
computed spectral entropy=2.158873856087875
computed normalized entropy=0.7786491515207028
SPLASH=splash10-0a4i-3900000000-5a549968dfbba6be1e46
submitter=submitter = University of Tokyo Team (Faculty of Engineering, University of Tokyo)
MoNA Rating=3.75

>  <NUM PEAKS>  (1118) 
16

>  <MASS SPECTRAL PEAKS>  (1118) 
28 13.6
29 13.5
57 14.9
77 11.3
79 8.9
91 7.8
103 5.2
104 11
106 99.99
107 8.9
119 7.2
162 30.4
163 13.3
175 5.9
194 0.42
195 0.06

$$$$

     RDKit          2D

 13 12  0  0  0  0  0  0  0  0999 V2000
    2.5981    4.5000    0.0000 C   0  0  0  0  0  0  0  0  0  0  0  0
   -7.7942    4.5000    0.0000 C   0  0  0  0  0  0  0  0  0  0  0  0
    1.2990    5.2500    0.0000 C   0  0  0  0  0  0  0  0  0  0  0  0
   -6.4952    5.2500    0.0000 C   0  0  0  0  0  0  0  0  0  0  0  0
    0.0000    4.5000    0.0000 C   0  0  0  0  0  0  0  0  0  0  0  0
   -5.1962    4.5000    0.0000 C   0  0  0  0  0  0  0  0  0  0  0  0
   -1.2990    5.2500    0.0000 C   0  0  0  0  0  0  0  0  0  0  0  0
   -3.8971    5.2500    0.0000 C   0  0  0  0  0  0  0  0  0  0  0  0
   -1.2990    2.2500    0.0000 C   0  0  0  0  0  0  0  0  0  0  0  0
   -2.5981    3.0000    0.0000 C   0  0  0  0  0  0  0  0  0  0  0  0
   -2.5981    4.5000    0.0000 N   0  0  0  0  0  0  0  0  0  0  0  0
   -1.2990    0.7500    0.0000 O   0  0  0  0  0  0  0  0  0  0  0  0
   -3.8971    2.2500    0.0000 O   0  0  0  0  0  0  0  0  0  0  0  0
  3  1  1  0
  4  2  1  0
  3  5  2  0
  6  4  1  0
  7  5  1  0
  8  6  1  0
 10  9  1  0
 11  7  1  0
 11  8  1  0
 11 10  1  0
 12  9  1  0
 13 10  2  0
M  END
>  <NAME>  (1119) 
N-2(E)-BUTENYL-N-BUTYLHYDROXYACETAMIDE

>  <SYNONYMS>  (1119) 


>  <SPECTRUM TYPE>  (1119) 
MS1

>  <INSTRUMENT TYPE>  (1119) 
EI-B

>  <INSTRUMENT>  (1119) 
SHIMADZU LKB-9000B

>  <ION MODE>  (1119) 
P

>  <INCHIKEY>  (1119) 
YFPSYPMBCRPWDE-HWKANZROSA-N

>  <FORMULA>  (1119) 
C10H19NO2

>  <EXACT MASS>  (1119) 
185.141578848

>  <MW>  (1119) 
185

>  <ID>  (1119) 
JP010507

>  <CONTRIBUTOR>  (1119) 
University of Tokyo Team, {Faculty of Engineering, University of Tokyo

>  <COMMENT>  (1119) 
SMILES=CCCCN(CC=CC)C(=O)CO
InChI=InChI=1S/C10H19NO2/c1-3-5-7-11(8-6-4-2)10(13)9-12/h3,5,12H,4,6-9H2,1-2H3/b5-3+
computed SMILES=O=C(N(CC=CC)CCCC)CO
ionization energy=70 eV
accession=JP010507
date=2016.01.19 (Created 2008.10.21, modified 2011.05.06)
author=TSUNODA T, FACULTY OF PHARMACEUTICAL SCIENCES, TOKUSHIMA BUNRI UNIV.
license=CC BY-NC-SA
exact mass=185.14158
ion type=[M]+*
computed spectral entropy=2.8442058222896254
computed normalized entropy=0.8535507990594731
SPLASH=splash10-000i-6900000000-1d3a2bd8a6181b521289
submitter=submitter = University of Tokyo Team (Faculty of Engineering, University of Tokyo)
MoNA Rating=3.75

>  <NUM PEAKS>  (1119) 
28

>  <MASS SPECTRAL PEAKS>  (1119) 
29 6.3
30 5.1
31 8.2
39 7
41 9
42 5.3
53 5.5
55 74
56 8.2
57 5.3
70 19.9
82 6.9
83 20.6
84 14.2
85 14.5
86 7.2
88 9.2
112 5.8
126 12.7
128 11.8
142 9.3
154 36.7
156 14.9
184 8.4
185 39.6
186 99.99
187 61.2
188 6.9

$$$$

     RDKit          2D

 23 24  0  0  0  0  0  0  0  0999 V2000
   -2.2834    5.5949    0.0000 C   0  0  0  0  0  0  0  0  0  0  0  0
   -4.2118    5.5949    0.0000 C   0  0  0  0  0  0  0  0  0  0  0  0
    4.5466    5.9458    0.0000 C   0  0  0  0  0  0  0  0  0  0  0  0
  -11.0418    5.9458    0.0000 C   0  0  0  0  0  0  0  0  0  0  0  0
    3.2471    6.6967    0.0000 C   0  0  0  0  0  0  0  0  0  0  0  0
    4.5471    4.4450    0.0000 C   0  0  0  0  0  0  0  0  0  0  0  0
  -11.0423    4.4450    0.0000 C   0  0  0  0  0  0  0  0  0  0  0  0
   -9.7423    6.6967    0.0000 C   0  0  0  0  0  0  0  0  0  0  0  0
    1.9481    5.9467    0.0000 C   0  0  0  0  0  0  0  0  0  0  0  0
    3.2481    3.6950    0.0000 C   0  0  0  0  0  0  0  0  0  0  0  0
   -9.7433    3.6950    0.0000 C   0  0  0  0  0  0  0  0  0  0  0  0
   -8.4433    5.9467    0.0000 C   0  0  0  0  0  0  0  0  0  0  0  0
    0.6495    3.6958    0.0000 C   0  0  0  0  0  0  0  0  0  0  0  0
   -4.5466    3.6958    0.0000 C   0  0  0  0  0  0  0  0  0  0  0  0
    1.9486    4.4458    0.0000 C   0  0  0  0  0  0  0  0  0  0  0  0
   -8.4437    4.4458    0.0000 C   0  0  0  0  0  0  0  0  0  0  0  0
   -7.1447    3.6958    0.0000 C   0  0  0  0  0  0  0  0  0  0  0  0
   -1.9486    3.6958    0.0000 C   0  0  0  0  0  0  0  0  0  0  0  0
   -3.2476    4.4458    0.0000 C   0  0  0  0  0  0  0  0  0  0  0  0
   -0.6495    4.4458    0.0000 N   0  0  0  0  0  0  0  0  0  0  0  0
   -7.1447    2.1958    0.0000 O   0  0  0  0  0  0  0  0  0  0  0  0
   -1.9486    2.1958    0.0000 O   0  0  0  0  0  0  0  0  0  0  0  0
   -5.8457    4.4458    0.0000 O   0  0  0  0  0  0  0  0  0  0  0  0
  5  3  2  0
  6  3  1  0
  7  4  1  0
  8  4  1  0
  9  5  1  0
 10  6  2  0
 11  7  1  0
 12  8  1  0
 15  9  2  0
 15 10  1  0
 15 13  1  0
 16 11  1  0
 16 12  1  0
 17 16  1  0
 19  1  1  0
 19  2  1  0
 19 14  1  0
 19 18  1  0
 20 13  1  0
 20 18  2  3
 21 17  2  0
 22 18  1  0
 23 14  1  0
 23 17  1  0
M  END
>  <NAME>  (1120) 
N-BENZYL-3-CYCLOHEXAENCARBONYLOXY-2,2-DIMETHYLPROPANAMIDE

>  <SYNONYMS>  (1120) 


>  <SPECTRUM TYPE>  (1120) 
MS1

>  <INSTRUMENT TYPE>  (1120) 
EI-B

>  <INSTRUMENT>  (1120) 
SHIMADZU LKB-9000B

>  <ION MODE>  (1120) 
P

>  <INCHIKEY>  (1120) 
AVZVCRIZNLQGRH-UHFFFAOYSA-N

>  <FORMULA>  (1120) 
C19H27NO3

>  <EXACT MASS>  (1120) 
317.199093724

>  <MW>  (1120) 
317

>  <ID>  (1120) 
JP010505

>  <CONTRIBUTOR>  (1120) 
University of Tokyo Team, {Faculty of Engineering, University of Tokyo

>  <COMMENT>  (1120) 
SMILES=c(c2)ccc(c2)CNC(=O)C(C)(C)COC(=O)C(C1)CCCC1
InChI=InChI=1S/C19H27NO3/c1-19(2,14-23-17(21)16-11-7-4-8-12-16)18(22)20-13-15-9-5-3-6-10-15/h3,5-6,9-10,16H,4,7-8,11-14H2,1-2H3,(H,20,22)
computed SMILES=O=C(OCC(C(O)=NCC=1C=CC=CC1)(C)C)C2CCCCC2
accession=JP010505
date=2016.01.19 (Created 2008.10.21, modified 2011.05.06)
author=TSUNODA T, FACULTY OF PHARMACEUTICAL SCIENCES, TOKUSHIMA BUNRI UNIV.
license=CC BY-NC-SA
exact mass=317.19909
ionization energy=70 eV
ion type=[M]+*
computed spectral entropy=2.367772609450054
computed normalized entropy=0.8539934504015784
SPLASH=splash10-0a4i-9520000000-3c94c5703d819c242b08
submitter=submitter = University of Tokyo Team (Faculty of Engineering, University of Tokyo)
MoNA Rating=3.75

>  <NUM PEAKS>  (1120) 
16

>  <MASS SPECTRAL PEAKS>  (1120) 
28 19.8
29 5.2
32 7.8
41 18.2
55 26.7
56 18.1
65 5.8
73 9.7
83 35.9
91 52.4
106 99.99
107 10.9
129 10.9
206 49.7
207 12
317 2.7

$$$$

     RDKit          2D

 19 19  0  0  1  0  0  0  0  0999 V2000
   -4.2212    1.6329    0.0000 C   0  0  0  0  0  0  0  0  0  0  0  0
    4.8721    3.8829    0.0000 C   0  0  0  0  0  0  0  0  0  0  0  0
    0.6401    5.0320    0.0000 C   0  0  0  0  0  0  0  0  0  0  0  0
   -1.2882    5.0320    0.0000 C   0  0  0  0  0  0  0  0  0  0  0  0
   -8.1183    5.3829    0.0000 C   0  0  0  0  0  0  0  0  0  0  0  0
   -8.1187    3.8821    0.0000 C   0  0  0  0  0  0  0  0  0  0  0  0
   -6.8187    6.1337    0.0000 C   0  0  0  0  0  0  0  0  0  0  0  0
   -6.8197    3.1321    0.0000 C   0  0  0  0  0  0  0  0  0  0  0  0
   -5.5197    5.3837    0.0000 C   0  0  0  0  0  0  0  0  0  0  0  0
    0.9750    3.1329    0.0000 C   0  0  0  0  0  0  0  0  0  0  0  0
   -4.2212    3.1329    0.0000 C   0  0  0  0  0  0  0  0  0  0  0  0
    3.5731    3.1329    0.0000 C   0  0  0  0  0  0  0  0  0  0  0  0
   -5.5202    3.8829    0.0000 C   0  0  0  0  0  0  0  0  0  0  0  0
   -1.6231    3.1329    0.0000 C   0  0  0  0  0  0  0  0  0  0  0  0
   -0.3240    3.8829    0.0000 C   0  0  0  0  0  0  0  0  0  0  0  0
   -2.9221    3.8829    0.0000 N   0  0  0  0  0  0  0  0  0  0  0  0
    3.5731    1.6329    0.0000 O   0  0  0  0  0  0  0  0  0  0  0  0
   -1.6231    1.6329    0.0000 O   0  0  0  0  0  0  0  0  0  0  0  0
    2.2740    3.8829    0.0000 O   0  0  0  0  0  0  0  0  0  0  0  0
  6  5  2  0
  7  5  1  0
  8  6  1  0
  9  7  2  0
 11  1  1  1
 12  2  1  0
 13  8  2  0
 13  9  1  0
 13 11  1  0
 15  3  1  0
 15  4  1  0
 15 10  1  0
 15 14  1  0
 16 11  1  0
 16 14  2  3
 17 12  2  0
 18 14  1  0
 19 10  1  0
 19 12  1  0
M  END
>  <NAME>  (1121) 
(1'S)-N-(1'-PHENYLETHYL)-3-ACETOXY-2,2-DIMETHYLPROPANAMIDE

>  <SYNONYMS>  (1121) 


>  <SPECTRUM TYPE>  (1121) 
MS1

>  <INSTRUMENT TYPE>  (1121) 
EI-B

>  <INSTRUMENT>  (1121) 
SHIMADZU LKB-9000B

>  <ION MODE>  (1121) 
P

>  <INCHIKEY>  (1121) 
IIBGRZRPCJEHAI-NSHDSACASA-N

>  <FORMULA>  (1121) 
C15H21NO3

>  <EXACT MASS>  (1121) 
263.152143532

>  <MW>  (1121) 
263

>  <ID>  (1121) 
JP010504

>  <CONTRIBUTOR>  (1121) 
University of Tokyo Team, {Faculty of Engineering, University of Tokyo

>  <COMMENT>  (1121) 
SMILES=CC(=O)OCC(C)(C)C(=O)NC([H])(C)c(c1)cccc1
InChI=InChI=1S/C15H21NO3/c1-11(13-8-6-5-7-9-13)16-14(18)15(3,4)10-19-12(2)17/h5-9,11H,10H2,1-4H3,(H,16,18)/t11-/m0/s1
computed SMILES=O=C(OCC(C(O)=NC(C=1C=CC=CC1)C)(C)C)C
accession=JP010504
date=2016.01.19 (Created 2008.10.21, modified 2011.05.06)
author=TSUNODA T, FACULTY OF PHARMACEUTICAL SCIENCES, TOKUSHIMA BUNRI UNIV.
license=CC BY-NC-SA
exact mass=263.15214
ionization energy=70 eV
ion type=[M]+*
computed spectral entropy=2.5183157219215
computed normalized entropy=0.8552786251438724
SPLASH=splash10-0a4i-3900000000-7bef18cc0bd8d01ff440
submitter=submitter = University of Tokyo Team (Faculty of Engineering, University of Tokyo)
MoNA Rating=3.75

>  <NUM PEAKS>  (1121) 
19

>  <MASS SPECTRAL PEAKS>  (1121) 
43 38.5
55 7
56 23.1
77 15
78 5.3
79 10.6
103 8.3
104 21
105 99.99
106 16.7
115 16.1
119 6
120 62.9
121 6.9
132 12.7
143 11.8
147 9.2
264 18.1
265 4.2

$$$$

     RDKit          2D

 16 16  0  0  1  0  0  0  0  0999 V2000
   -0.3691    5.4592    0.0000 C   0  0  0  0  0  0  0  0  0  0  0  0
   -5.2304    2.0602    0.0000 C   0  0  0  0  0  0  0  0  0  0  0  0
   -3.3020    2.0602    0.0000 C   0  0  0  0  0  0  0  0  0  0  0  0
    3.5281    1.7092    0.0000 C   0  0  0  0  0  0  0  0  0  0  0  0
    3.5285    3.2101    0.0000 C   0  0  0  0  0  0  0  0  0  0  0  0
    2.2285    0.9584    0.0000 C   0  0  0  0  0  0  0  0  0  0  0  0
    2.2295    3.9601    0.0000 C   0  0  0  0  0  0  0  0  0  0  0  0
    0.9295    1.7084    0.0000 C   0  0  0  0  0  0  0  0  0  0  0  0
   -5.5652    3.9592    0.0000 C   0  0  0  0  0  0  0  0  0  0  0  0
   -0.3691    3.9592    0.0000 C   0  0  0  0  0  0  0  0  0  0  0  0
    0.9300    3.2092    0.0000 C   0  0  0  0  0  0  0  0  0  0  0  0
   -2.9671    3.9592    0.0000 C   0  0  0  0  0  0  0  0  0  0  0  0
   -4.2662    3.2092    0.0000 C   0  0  0  0  0  0  0  0  0  0  0  0
   -1.6681    3.2092    0.0000 N   0  0  0  0  0  0  0  0  0  0  0  0
   -6.8643    3.2092    0.0000 O   0  0  0  0  0  0  0  0  0  0  0  0
   -2.9671    5.4592    0.0000 O   0  0  0  0  0  0  0  0  0  0  0  0
  5  4  2  0
  6  4  1  0
  7  5  1  0
  8  6  2  0
 10  1  1  1
 11  7  2  0
 11  8  1  0
 11 10  1  0
 13  2  1  0
 13  3  1  0
 13  9  1  0
 13 12  1  0
 14 10  1  0
 14 12  2  3
 15  9  1  0
 16 12  1  0
M  END
>  <NAME>  (1122) 
(1'S)-N-(1'-PHENYLETHYL)-3-HYDROXY-2,2-DIMETHYLPROPANAMIDE

>  <SYNONYMS>  (1122) 


>  <SPECTRUM TYPE>  (1122) 
MS1

>  <INSTRUMENT TYPE>  (1122) 
EI-B

>  <INSTRUMENT>  (1122) 
SHIMADZU LKB-9000B

>  <ION MODE>  (1122) 
P

>  <INCHIKEY>  (1122) 
AAQLUNZDLHDEQI-JTQLQIEISA-N

>  <FORMULA>  (1122) 
C13H19NO2

>  <EXACT MASS>  (1122) 
221.141578848

>  <MW>  (1122) 
221

>  <ID>  (1122) 
JP010503

>  <CONTRIBUTOR>  (1122) 
University of Tokyo Team, {Faculty of Engineering, University of Tokyo

>  <COMMENT>  (1122) 
SMILES=OCC(C)(C)C(=O)NC([H])(C)c(c1)cccc1
InChI=InChI=1S/C13H19NO2/c1-10(11-7-5-4-6-8-11)14-12(16)13(2,3)9-15/h4-8,10,15H,9H2,1-3H3,(H,14,16)/t10-/m0/s1
computed SMILES=OC(=NC(C=1C=CC=CC1)C)C(C)(C)CO
accession=JP010503
date=2016.01.19 (Created 2008.10.21, modified 2011.05.06)
author=TSUNODA T, FACULTY OF PHARMACEUTICAL SCIENCES, TOKUSHIMA BUNRI UNIV.
license=CC BY-NC-SA
exact mass=221.14158
ionization energy=70 eV
ion type=[M]+*
computed spectral entropy=2.707907919122744
computed normalized entropy=0.8760500575398734
SPLASH=splash10-0a4i-5920000000-e3ce9509f6d3b7035098
submitter=submitter = University of Tokyo Team (Faculty of Engineering, University of Tokyo)
MoNA Rating=3.75

>  <NUM PEAKS>  (1122) 
22

>  <MASS SPECTRAL PEAKS>  (1122) 
41 6.7
42 6.5
51 5.9
55 11.9
56 27.3
73 20.5
77 23
78 8.3
79 15.4
87 8.3
91 8.3
103 10
104 22.4
105 99.99
106 54.3
120 16.6
132 29.1
147 15.5
192 6.6
207 5.9
222 53.5
223 9

$$$$

     RDKit          2D

 23 22  0  0  0  0  0  0  0  0999 V2000
    0.3248   10.6875    0.0000 C   0  0  0  0  0  0  0  0  0  0  0  0
    4.2219    5.4375    0.0000 C   0  0  0  0  0  0  0  0  0  0  0  0
    1.6238    3.9375    0.0000 C   0  0  0  0  0  0  0  0  0  0  0  0
    0.3248    7.6875    0.0000 C   0  0  0  0  0  0  0  0  0  0  0  0
  -10.0675    6.1875    0.0000 C   0  0  0  0  0  0  0  0  0  0  0  0
   -3.9072    7.3366    0.0000 C   0  0  0  0  0  0  0  0  0  0  0  0
   -5.8356    7.3366    0.0000 C   0  0  0  0  0  0  0  0  0  0  0  0
   -0.9743    9.9375    0.0000 C   0  0  0  0  0  0  0  0  0  0  0  0
    2.9228    6.1875    0.0000 C   0  0  0  0  0  0  0  0  0  0  0  0
   -0.9743    8.4375    0.0000 C   0  0  0  0  0  0  0  0  0  0  0  0
   -2.2733    7.6875    0.0000 C   0  0  0  0  0  0  0  0  0  0  0  0
   -6.1704    5.4375    0.0000 C   0  0  0  0  0  0  0  0  0  0  0  0
    1.6238    5.4375    0.0000 C   0  0  0  0  0  0  0  0  0  0  0  0
    0.3248    6.1875    0.0000 C   0  0  0  0  0  0  0  0  0  0  0  0
   -8.7685    5.4375    0.0000 C   0  0  0  0  0  0  0  0  0  0  0  0
   -0.9743    5.4375    0.0000 C   0  0  0  0  0  0  0  0  0  0  0  0
   -3.5724    5.4375    0.0000 C   0  0  0  0  0  0  0  0  0  0  0  0
   -4.8714    6.1875    0.0000 C   0  0  0  0  0  0  0  0  0  0  0  0
   -2.2733    6.1875    0.0000 N   0  0  0  0  0  0  0  0  0  0  0  0
   -8.7685    3.9375    0.0000 O   0  0  0  0  0  0  0  0  0  0  0  0
   -0.9743    3.9375    0.0000 O   0  0  0  0  0  0  0  0  0  0  0  0
   -3.5724    3.9375    0.0000 O   0  0  0  0  0  0  0  0  0  0  0  0
   -7.4695    6.1875    0.0000 O   0  0  0  0  0  0  0  0  0  0  0  0
  8  1  1  0
  9  2  2  0
 10  8  1  0
 11 10  1  0
 13  3  1  0
 13  9  1  0
 14  4  1  0
 14 13  1  0
 15  5  1  0
 16 14  1  0
 18  6  1  0
 18  7  1  0
 18 12  1  0
 18 17  1  0
 19 11  1  0
 19 16  1  0
 19 17  1  0
 20 15  2  0
 21 16  2  0
 22 17  2  0
 23 12  1  0
 23 15  1  0
M  END
>  <NAME>  (1123) 
N-3-ACETOXY-2,2-DIMETHYLPROPIONYL-N-BUTYL-2,3-DIMETHYLPENT-4-ENAMIDE

>  <SYNONYMS>  (1123) 


>  <SPECTRUM TYPE>  (1123) 
MS1

>  <INSTRUMENT TYPE>  (1123) 
EI-B

>  <INSTRUMENT>  (1123) 
SHIMADZU LKB-9000B

>  <ION MODE>  (1123) 
P

>  <INCHIKEY>  (1123) 
QYDLGJPYMBVRDX-UHFFFAOYSA-N

>  <FORMULA>  (1123) 
C18H31NO4

>  <EXACT MASS>  (1123) 
325.225308472

>  <MW>  (1123) 
325

>  <ID>  (1123) 
JP010502

>  <CONTRIBUTOR>  (1123) 
University of Tokyo Team, {Faculty of Engineering, University of Tokyo

>  <COMMENT>  (1123) 
SMILES=CCCCN(C(=O)C(C)C(C)C=C)C(=O)C(C)(C)COC(C)=O
InChI=InChI=1S/C18H31NO4/c1-8-10-11-19(16(21)14(4)13(3)9-2)17(22)18(6,7)12-23-15(5)20/h9,13-14H,2,8,10-12H2,1,3-7H3
computed SMILES=O=C(OCC(C(=O)N(C(=O)C(C)C(C=C)C)CCCC)(C)C)C
accession=JP010502
date=2016.01.19 (Created 2008.10.21, modified 2011.05.06)
author=TSUNODA T, FACULTY OF PHARMACEUTICAL SCIENCES, TOKUSHIMA BUNRI UNIV.
license=CC BY-NC-SA
exact mass=325.22531
ionization energy=70 eV
ion type=[M]+*
computed spectral entropy=3.24631519957953
computed normalized entropy=0.9059015050100844
SPLASH=splash10-0536-9300000000-260f6d34276540dcda8f
submitter=submitter = University of Tokyo Team (Faculty of Engineering, University of Tokyo)
MoNA Rating=3.75

>  <NUM PEAKS>  (1123) 
36

>  <MASS SPECTRAL PEAKS>  (1123) 
27 11.1
29 21.5
30 8.2
39 15.4
41 42.8
42 7.5
43 99.99
44 12.5
53 6.9
55 73.8
56 18.4
57 45.2
67 9
69 19.3
70 33.8
72 9.5
73 13.4
74 6.8
82 6.2
83 44.5
84 19.2
86 8.3
87 16.2
88 6.9
100 18.3
111 12.8
112 5.8
115 27.8
128 22.3
129 17.4
142 5.8
143 19.2
168 35
183 7.2
184 27.8
326 1

$$$$

     RDKit          2D

 14 14  0  0  0  0  0  0  0  0999 V2000
   -1.6236    5.3821    0.0000 C   0  0  0  0  0  0  0  0  0  0  0  0
   -5.5207    3.1321    0.0000 C   0  0  0  0  0  0  0  0  0  0  0  0
   -0.3245    4.6321    0.0000 C   0  0  0  0  0  0  0  0  0  0  0  0
   -4.2216    2.3821    0.0000 C   0  0  0  0  0  0  0  0  0  0  0  0
    3.5726    0.8821    0.0000 C   0  0  0  0  0  0  0  0  0  0  0  0
    3.5731    2.3829    0.0000 C   0  0  0  0  0  0  0  0  0  0  0  0
    2.2731    0.1313    0.0000 C   0  0  0  0  0  0  0  0  0  0  0  0
    2.2740    3.1329    0.0000 C   0  0  0  0  0  0  0  0  0  0  0  0
    0.9740    0.8813    0.0000 C   0  0  0  0  0  0  0  0  0  0  0  0
    0.9745    2.3821    0.0000 C   0  0  0  0  0  0  0  0  0  0  0  0
   -0.3245    3.1321    0.0000 C   0  0  0  0  0  0  0  0  0  0  0  0
   -2.9226    3.1321    0.0000 C   0  0  0  0  0  0  0  0  0  0  0  0
   -1.6236    2.3821    0.0000 N   0  0  0  0  0  0  0  0  0  0  0  0
   -2.9226    4.6321    0.0000 O   0  0  0  0  0  0  0  0  0  0  0  0
  3  1  1  0
  4  2  1  0
  6  5  2  0
  7  5  1  0
  8  6  1  0
  9  7  2  0
 10  8  2  0
 10  9  1  0
 11  3  1  0
 11 10  1  0
 12  4  1  0
 13 11  1  0
 13 12  2  3
 14 12  1  0
M  END
>  <NAME>  (1124) 
N-1-PHENYLPROPYLPROPANAMIDE

>  <SYNONYMS>  (1124) 


>  <SPECTRUM TYPE>  (1124) 
MS1

>  <INSTRUMENT TYPE>  (1124) 
EI-B

>  <INSTRUMENT>  (1124) 
SHIMADZU LKB-9000B

>  <ION MODE>  (1124) 
P

>  <INCHIKEY>  (1124) 
WOJZOOBUQTUMCT-UHFFFAOYSA-N

>  <FORMULA>  (1124) 
C12H17NO

>  <EXACT MASS>  (1124) 
191.131014164

>  <MW>  (1124) 
191

>  <ID>  (1124) 
JP010501

>  <CONTRIBUTOR>  (1124) 
University of Tokyo Team, {Faculty of Engineering, University of Tokyo

>  <COMMENT>  (1124) 
SMILES=CCC(=O)NC(CC)c(c1)cccc1
InChI=InChI=1S/C12H17NO/c1-3-11(13-12(14)4-2)10-8-6-5-7-9-10/h5-9,11H,3-4H2,1-2H3,(H,13,14)
computed SMILES=OC(=NC(C=1C=CC=CC1)CC)CC
accession=JP010501
date=2016.01.19 (Created 2008.10.21, modified 2011.05.06)
author=TSUNODA T, FACULTY OF PHARMACEUTICAL SCIENCES, TOKUSHIMA BUNRI UNIV.
license=CC BY-NC-SA
exact mass=191.13101
ionization energy=70 eV
ion type=[M]+*
computed spectral entropy=2.3083459878002106
computed normalized entropy=0.8147448523927355
SPLASH=splash10-0a4i-5900000000-976cb00b08d1d5f87734
submitter=submitter = University of Tokyo Team (Faculty of Engineering, University of Tokyo)
MoNA Rating=3.75

>  <NUM PEAKS>  (1124) 
17

>  <MASS SPECTRAL PEAKS>  (1124) 
32 15.5
41 6.5
43 12.6
51 7.1
57 20.6
77 10.2
79 6.2
91 16.7
104 7.8
106 99.99
107 8.9
117 5.1
118 8.3
120 5.7
134 5
162 21.5
191 6

$$$$

     RDKit          2D

 18 18  0  0  0  0  0  0  0  0999 V2000
   -6.8200    3.1325    0.0000 C   0  0  0  0  0  0  0  0  0  0  0  0
    0.9743    6.1325    0.0000 C   0  0  0  0  0  0  0  0  0  0  0  0
   -2.9228   -0.6175    0.0000 C   0  0  0  0  0  0  0  0  0  0  0  0
   -5.5209    3.8825    0.0000 C   0  0  0  0  0  0  0  0  0  0  0  0
   -0.3248    5.3825    0.0000 C   0  0  0  0  0  0  0  0  0  0  0  0
   -2.9228    0.8825    0.0000 C   0  0  0  0  0  0  0  0  0  0  0  0
   -4.2219    3.1325    0.0000 C   0  0  0  0  0  0  0  0  0  0  0  0
    3.5724    1.6325    0.0000 C   0  0  0  0  0  0  0  0  0  0  0  0
    3.5728    3.1333    0.0000 C   0  0  0  0  0  0  0  0  0  0  0  0
    2.2728    0.8817    0.0000 C   0  0  0  0  0  0  0  0  0  0  0  0
    2.2738    3.8833    0.0000 C   0  0  0  0  0  0  0  0  0  0  0  0
    0.9738    1.6317    0.0000 C   0  0  0  0  0  0  0  0  0  0  0  0
   -2.9228    3.8825    0.0000 C   0  0  0  0  0  0  0  0  0  0  0  0
    0.9743    3.1325    0.0000 C   0  0  0  0  0  0  0  0  0  0  0  0
   -0.3248    3.8825    0.0000 C   0  0  0  0  0  0  0  0  0  0  0  0
   -1.6238    1.6325    0.0000 C   0  0  0  0  0  0  0  0  0  0  0  0
   -1.6238    3.1325    0.0000 N   0  0  0  0  0  0  0  0  0  0  0  0
   -0.3248    0.8825    0.0000 O   0  0  0  0  0  0  0  0  0  0  0  0
  4  1  1  0
  5  2  1  0
  6  3  1  0
  4  7  2  0
  9  8  2  0
 10  8  1  0
 11  9  1  0
 12 10  2  0
 13  7  1  0
 14 11  2  0
 14 12  1  0
 15  5  1  0
 15 14  1  0
 16  6  1  0
 17 13  1  0
 17 15  1  0
 17 16  1  0
 18 16  2  0
M  END
>  <NAME>  (1125) 
N-2-BUTENYL-N-1-PHENYLPROPYLPROPANAMIDE

>  <SYNONYMS>  (1125) 


>  <SPECTRUM TYPE>  (1125) 
MS1

>  <INSTRUMENT TYPE>  (1125) 
EI-B

>  <INSTRUMENT>  (1125) 
SHIMADZU LKB-9000B

>  <ION MODE>  (1125) 
P

>  <INCHIKEY>  (1125) 
KIROBTRQJHPXKH-QPJJXVBHSA-N

>  <FORMULA>  (1125) 
C16H23NO

>  <EXACT MASS>  (1125) 
245.17796435600002

>  <MW>  (1125) 
245

>  <ID>  (1125) 
JP010500

>  <CONTRIBUTOR>  (1125) 
University of Tokyo Team, {Faculty of Engineering, University of Tokyo

>  <COMMENT>  (1125) 
SMILES=CC=CCN(C(=O)CC)C(CC)c(c1)cccc1
InChI=InChI=1S/C16H23NO/c1-4-7-13-17(16(18)6-3)15(5-2)14-11-9-8-10-12-14/h4,7-12,15H,5-6,13H2,1-3H3/b7-4+
computed SMILES=O=C(N(CC=CC)C(C=1C=CC=CC1)CC)CC
accession=JP010500
date=2016.01.19 (Created 2008.10.21, modified 2011.05.06)
author=TSUNODA T, FACULTY OF PHARMACEUTICAL SCIENCES, TOKUSHIMA BUNRI UNIV.
license=CC BY-NC-SA
exact mass=245.17796
ionization energy=70 eV
ion type=[M]+*
computed spectral entropy=3.155607183744427
computed normalized entropy=0.8805889512346096
SPLASH=splash10-054o-9700000000-7c8d7d17ab73e5a8baf3
submitter=submitter = University of Tokyo Team (Faculty of Engineering, University of Tokyo)
MoNA Rating=3.75

>  <NUM PEAKS>  (1125) 
36

>  <MASS SPECTRAL PEAKS>  (1125) 
27 28.5
29 76
39 22.9
41 22.1
51 11.9
53 8.2
55 59
56 11.7
57 52.5
58 5.4
65 8.1
70 50.3
71 5
77 19.7
78 7.8
79 7.5
91 99.99
92 8.1
103 6.2
104 15.3
105 5
106 46.6
115 8.3
117 13.8
118 17.5
119 18.7
126 24.4
134 67.9
135 7.3
160 72.5
161 9
162 9.9
190 92.1
191 12.4
216 5.6
245 7.2

$$$$

     RDKit          2D

 11 11  0  0  0  0  0  0  0  0999 V2000
   -3.8969    2.5696    0.0000 C   0  0  0  0  0  0  0  0  0  0  0  0
   -2.5978    0.3196    0.0000 C   0  0  0  0  0  0  0  0  0  0  0  0
    2.5983    0.3196    0.0000 C   0  0  0  0  0  0  0  0  0  0  0  0
    2.5988    1.8204    0.0000 C   0  0  0  0  0  0  0  0  0  0  0  0
    1.2988   -0.4312    0.0000 C   0  0  0  0  0  0  0  0  0  0  0  0
    1.2998    2.5704    0.0000 C   0  0  0  0  0  0  0  0  0  0  0  0
   -0.0002    0.3188    0.0000 C   0  0  0  0  0  0  0  0  0  0  0  0
   -2.5978    1.8196    0.0000 C   0  0  0  0  0  0  0  0  0  0  0  0
    0.0002    1.8196    0.0000 C   0  0  0  0  0  0  0  0  0  0  0  0
   -1.2988    2.5696    0.0000 C   0  0  0  0  0  0  0  0  0  0  0  0
   -1.2988    4.0696    0.0000 O   0  0  0  0  0  0  0  0  0  0  0  0
  4  3  2  0
  5  3  1  0
  6  4  1  0
  7  5  2  0
  8  1  1  0
  8  2  1  0
  9  6  2  0
  9  7  1  0
 10  8  1  0
 10  9  1  0
 11 10  1  0
M  END
>  <NAME>  (1126) 
2-METHYL-1-PHENYLPROPANOL

>  <SYNONYMS>  (1126) 


>  <SPECTRUM TYPE>  (1126) 
MS1

>  <INSTRUMENT TYPE>  (1126) 
EI-B

>  <INSTRUMENT>  (1126) 
SHIMADZU LKB-9000B

>  <ION MODE>  (1126) 
P

>  <INCHIKEY>  (1126) 
GMDYDZMQHRTHJA-UHFFFAOYSA-N

>  <FORMULA>  (1126) 
C10H14O

>  <EXACT MASS>  (1126) 
150.104465068

>  <MW>  (1126) 
150

>  <ID>  (1126) 
JP010499

>  <CONTRIBUTOR>  (1126) 
University of Tokyo Team, {Faculty of Engineering, University of Tokyo

>  <COMMENT>  (1126) 
SMILES=CC(C)C(O)c(c1)cccc1
InChI=InChI=1S/C10H14O/c1-8(2)10(11)9-6-4-3-5-7-9/h3-8,10-11H,1-2H3
computed SMILES=OC(C=1C=CC=CC1)C(C)C
accession=JP010499
date=2016.01.19 (Created 2008.10.21, modified 2011.05.06)
author=TSUNODA T, FACULTY OF PHARMACEUTICAL SCIENCES, TOKUSHIMA BUNRI UNIV.
license=CC BY-NC-SA
exact mass=150.10447
ionization energy=70 eV
ion type=[M]+*
computed spectral entropy=2.2392657879400777
computed normalized entropy=0.7747327940852798
SPLASH=splash10-0a6r-9600000000-09b77d2ea78082f2be62
submitter=submitter = University of Tokyo Team (Faculty of Engineering, University of Tokyo)
MoNA Rating=3.75

>  <NUM PEAKS>  (1126) 
18

>  <MASS SPECTRAL PEAKS>  (1126) 
29 5
32 11.2
39 9.1
41 6
43 9.7
50 5.1
51 12.6
52 3.6
53 3.3
77 30.8
78 7.3
79 56.4
80 3.7
91 5.3
105 10.4
107 99.99
108 11.1
150 3.9

$$$$

     RDKit          2D

 15 15  0  0  0  0  0  0  0  0999 V2000
   -5.1962    2.5700    0.0000 C   0  0  0  0  0  0  0  0  0  0  0  0
   -1.2990    4.8200    0.0000 C   0  0  0  0  0  0  0  0  0  0  0  0
    1.2990    4.8200    0.0000 C   0  0  0  0  0  0  0  0  0  0  0  0
   -3.8971    1.8200    0.0000 C   0  0  0  0  0  0  0  0  0  0  0  0
    3.8971    0.3200    0.0000 C   0  0  0  0  0  0  0  0  0  0  0  0
    3.8976    1.8208    0.0000 C   0  0  0  0  0  0  0  0  0  0  0  0
    2.5976   -0.4308    0.0000 C   0  0  0  0  0  0  0  0  0  0  0  0
    2.5986    2.5708    0.0000 C   0  0  0  0  0  0  0  0  0  0  0  0
    1.2986    0.3192    0.0000 C   0  0  0  0  0  0  0  0  0  0  0  0
    0.0000    4.0700    0.0000 C   0  0  0  0  0  0  0  0  0  0  0  0
    1.2990    1.8200    0.0000 C   0  0  0  0  0  0  0  0  0  0  0  0
   -2.5981    2.5700    0.0000 C   0  0  0  0  0  0  0  0  0  0  0  0
    0.0000    2.5700    0.0000 C   0  0  0  0  0  0  0  0  0  0  0  0
   -1.2990    1.8200    0.0000 N   0  0  0  0  0  0  0  0  0  0  0  0
   -2.5981    4.0700    0.0000 O   0  0  0  0  0  0  0  0  0  0  0  0
  4  1  1  0
  6  5  2  0
  7  5  1  0
  8  6  1  0
  9  7  2  0
 10  2  1  0
 10  3  1  0
 11  8  2  0
 11  9  1  0
 12  4  1  0
 13 10  1  0
 13 11  1  0
 14 12  2  3
 14 13  1  0
 15 12  1  0
M  END
>  <NAME>  (1127) 
N-(2-METHYL-1-PHENYLPROPYL)PROPANAMIDE

>  <SYNONYMS>  (1127) 


>  <SPECTRUM TYPE>  (1127) 
MS1

>  <INSTRUMENT TYPE>  (1127) 
EI-B

>  <INSTRUMENT>  (1127) 
SHIMADZU LKB-9000B

>  <ION MODE>  (1127) 
P

>  <INCHIKEY>  (1127) 
YKBKVAVBYPIHRS-UHFFFAOYSA-N

>  <FORMULA>  (1127) 
C13H19NO

>  <EXACT MASS>  (1127) 
205.146664228

>  <MW>  (1127) 
205

>  <ID>  (1127) 
JP010498

>  <CONTRIBUTOR>  (1127) 
University of Tokyo Team, {Faculty of Engineering, University of Tokyo

>  <COMMENT>  (1127) 
SMILES=CCC(=O)NC(C(C)C)c(c1)cccc1
InChI=InChI=1S/C13H19NO/c1-4-12(15)14-13(10(2)3)11-8-6-5-7-9-11/h5-10,13H,4H2,1-3H3,(H,14,15)
computed SMILES=OC(=NC(C=1C=CC=CC1)C(C)C)CC
accession=JP010498
date=2016.01.19 (Created 2008.10.21, modified 2011.05.06)
author=TSUNODA T, FACULTY OF PHARMACEUTICAL SCIENCES, TOKUSHIMA BUNRI UNIV.
license=CC BY-NC-SA
exact mass=205.14666
ionization energy=70 eV
ion type=[M]+*
computed spectral entropy=2.8560674476030212
computed normalized entropy=0.8168343403796758
SPLASH=splash10-0a6r-7900000000-05479e756d54397b5374
submitter=submitter = University of Tokyo Team (Faculty of Engineering, University of Tokyo)
MoNA Rating=3.75

>  <NUM PEAKS>  (1127) 
33

>  <MASS SPECTRAL PEAKS>  (1127) 
18 2.2
27 16.4
28 13.2
29 31.2
39 7.7
41 7.5
42 2
43 6.8
50 3.2
51 8.7
52 2.6
55 4.9
57 24.6
63 2.2
65 2.5
72 2
77 13.5
78 5.5
79 9.9
91 15.8
104 14.2
105 5.8
106 99.99
107 14.3
115 3.8
117 4.4
132 4.6
133 2.8
134 7
148 2.4
162 50.3
163 6.6
205 2

$$$$

     RDKit          2D

 19 19  0  0  0  0  0  0  0  0999 V2000
   -6.8200    3.1325    0.0000 C   0  0  0  0  0  0  0  0  0  0  0  0
   -2.9228   -0.6175    0.0000 C   0  0  0  0  0  0  0  0  0  0  0  0
    0.9743    6.1325    0.0000 C   0  0  0  0  0  0  0  0  0  0  0  0
   -1.6238    6.1325    0.0000 C   0  0  0  0  0  0  0  0  0  0  0  0
   -5.5209    3.8825    0.0000 C   0  0  0  0  0  0  0  0  0  0  0  0
   -2.9228    0.8825    0.0000 C   0  0  0  0  0  0  0  0  0  0  0  0
   -4.2219    3.1325    0.0000 C   0  0  0  0  0  0  0  0  0  0  0  0
    3.5724    1.6325    0.0000 C   0  0  0  0  0  0  0  0  0  0  0  0
    3.5728    3.1333    0.0000 C   0  0  0  0  0  0  0  0  0  0  0  0
    2.2728    0.8817    0.0000 C   0  0  0  0  0  0  0  0  0  0  0  0
    2.2738    3.8833    0.0000 C   0  0  0  0  0  0  0  0  0  0  0  0
    0.9738    1.6317    0.0000 C   0  0  0  0  0  0  0  0  0  0  0  0
   -2.9228    3.8825    0.0000 C   0  0  0  0  0  0  0  0  0  0  0  0
   -0.3248    5.3825    0.0000 C   0  0  0  0  0  0  0  0  0  0  0  0
    0.9743    3.1325    0.0000 C   0  0  0  0  0  0  0  0  0  0  0  0
   -1.6238    1.6325    0.0000 C   0  0  0  0  0  0  0  0  0  0  0  0
   -0.3248    3.8825    0.0000 C   0  0  0  0  0  0  0  0  0  0  0  0
   -1.6238    3.1325    0.0000 N   0  0  0  0  0  0  0  0  0  0  0  0
   -0.3248    0.8825    0.0000 O   0  0  0  0  0  0  0  0  0  0  0  0
  5  1  1  0
  6  2  1  0
  5  7  2  0
  9  8  2  0
 10  8  1  0
 11  9  1  0
 12 10  2  0
 13  7  1  0
 14  3  1  0
 14  4  1  0
 15 11  2  0
 15 12  1  0
 16  6  1  0
 17 14  1  0
 17 15  1  0
 18 13  1  0
 18 16  1  0
 18 17  1  0
 19 16  2  0
M  END
>  <NAME>  (1128) 
N-2-BUTENYL-N-(2-METHYL-1-PHENYLPROPYL)PROPANAMIDE

>  <SYNONYMS>  (1128) 


>  <SPECTRUM TYPE>  (1128) 
MS1

>  <INSTRUMENT TYPE>  (1128) 
EI-B

>  <INSTRUMENT>  (1128) 
SHIMADZU LKB-9000B

>  <ION MODE>  (1128) 
P

>  <INCHIKEY>  (1128) 
ROGCCZKTCDZFOA-FNORWQNLSA-N

>  <FORMULA>  (1128) 
C17H25NO

>  <EXACT MASS>  (1128) 
259.19361442

>  <MW>  (1128) 
259

>  <ID>  (1128) 
JP010497

>  <CONTRIBUTOR>  (1128) 
University of Tokyo Team, {Faculty of Engineering, University of Tokyo

>  <COMMENT>  (1128) 
SMILES=CC=CCN(C(=O)CC)C(C(C)C)c(c1)cccc1
InChI=InChI=1S/C17H25NO/c1-5-7-13-18(16(19)6-2)17(14(3)4)15-11-9-8-10-12-15/h5,7-12,14,17H,6,13H2,1-4H3/b7-5+
computed SMILES=O=C(N(CC=CC)C(C=1C=CC=CC1)C(C)C)CC
accession=JP010497
date=2016.01.19 (Created 2008.10.21, modified 2011.05.06)
author=TSUNODA T, FACULTY OF PHARMACEUTICAL SCIENCES, TOKUSHIMA BUNRI UNIV.
license=CC BY-NC-SA
exact mass=259.19361
ionization energy=70 eV
ion type=[M]+*
computed spectral entropy=3.085255494562746
computed normalized entropy=0.89021656037622
SPLASH=splash10-0bt9-8930000000-2534c50b354ef620f633
submitter=submitter = University of Tokyo Team (Faculty of Engineering, University of Tokyo)
MoNA Rating=3.75

>  <NUM PEAKS>  (1128) 
32

>  <MASS SPECTRAL PEAKS>  (1128) 
27 19.4
29 16.5
39 13.4
41 11.2
43 13.6
51 5.8
53 6.7
55 55.1
56 6
57 37.2
70 14.8
77 11.6
79 5.9
91 47.1
104 10
105 7.7
106 65.3
107 5.7
115 7.6
117 12.6
126 8.1
132 11.9
133 8.8
148 16.5
160 99.99
161 16.8
162 23.1
204 32.8
216 47.4
217 7.3
259 7.1
260 8.8

$$$$

     RDKit          2D

 14 15  0  0  0  0  0  0  0  0999 V2000
    5.5858    4.6822    0.0000 C   0  0  0  0  0  0  0  0  0  0  0  0
    4.1182    4.3721    0.0000 C   0  0  0  0  0  0  0  0  0  0  0  0
   -2.3100   -0.7500    0.0000 C   0  0  0  0  0  0  0  0  0  0  0  0
   -2.3100    0.7500    0.0000 C   0  0  0  0  0  0  0  0  0  0  0  0
   -1.0100   -1.5000    0.0000 C   0  0  0  0  0  0  0  0  0  0  0  0
   -1.0100    1.5000    0.0000 C   0  0  0  0  0  0  0  0  0  0  0  0
    1.7200   -1.2100    0.0000 C   0  0  0  0  0  0  0  0  0  0  0  0
    2.6000    0.0000    0.0000 C   0  0  0  0  0  0  0  0  0  0  0  0
    0.2900   -0.7500    0.0000 C   0  0  0  0  0  0  0  0  0  0  0  0
    0.2900    0.7500    0.0000 C   0  0  0  0  0  0  0  0  0  0  0  0
    1.7200    1.2100    0.0000 C   0  0  0  0  0  0  0  0  0  0  0  0
    3.6529    2.9461    0.0000 C   0  0  0  0  0  0  0  0  0  0  0  0
    2.1853    2.6360    0.0000 N   0  0  0  0  0  0  0  0  0  0  0  0
    4.6552    1.8301    0.0000 O   0  0  0  0  0  0  0  0  0  0  0  0
  2  1  1  0
  4  3  2  0
  5  3  1  0
  6  4  1  0
  8  7  1  0
  9  5  2  0
  9  7  1  0
 10  6  2  0
 10  9  1  0
 11  8  1  0
 11 10  1  0
 12  2  1  0
 13 11  1  0
 13 12  2  3
 14 12  1  0
M  END
>  <NAME>  (1129) 
1-PROPIONYLAMINOINDAN

>  <SYNONYMS>  (1129) 


>  <SPECTRUM TYPE>  (1129) 
MS1

>  <INSTRUMENT TYPE>  (1129) 
EI-B

>  <INSTRUMENT>  (1129) 
JEOL JMS-AX-500

>  <ION MODE>  (1129) 
P

>  <INCHIKEY>  (1129) 
RZBLQFKQMMGHSQ-UHFFFAOYSA-N

>  <FORMULA>  (1129) 
C12H15NO

>  <EXACT MASS>  (1129) 
189.1153641

>  <MW>  (1129) 
189

>  <ID>  (1129) 
JP010496

>  <CONTRIBUTOR>  (1129) 
University of Tokyo Team, {Faculty of Engineering, University of Tokyo

>  <COMMENT>  (1129) 
SMILES=CCC(=O)NC(C1)c(c2)c(ccc2)C1
InChI=InChI=1S/C12H15NO/c1-2-12(14)13-11-8-7-9-5-3-4-6-10(9)11/h3-6,11H,2,7-8H2,1H3,(H,13,14)
computed SMILES=OC(=NC1C=2C=CC=CC2CC1)CC
accession=JP010496
date=2016.01.19 (Created 2008.10.21, modified 2011.05.06)
author=TSUNODA T, FACULTY OF PHARMACEUTICAL SCIENCES, TOKUSHIMA BUNRI UNIV.
license=CC BY-NC-SA
exact mass=189.11536
ionization energy=70 eV
ion type=[M]+*
computed spectral entropy=3.2873647592214392
computed normalized entropy=0.7614067885710677
SPLASH=splash10-00xu-9300000000-5efea26daa5116b61d4c
submitter=submitter = University of Tokyo Team (Faculty of Engineering, University of Tokyo)
MoNA Rating=3.75

>  <NUM PEAKS>  (1129) 
75

>  <MASS SPECTRAL PEAKS>  (1129) 
14 2.25
15 18.92
28 8.74
29 58.7
30 2.07
31 2.82
39 2.8
41 3.22
42 22.15
43 96.37
45 64
46 1.33
50 1.05
51 2.07
54 1.03
55 4.83
56 2.86
57 10.43
58 5.06
60 4.34
61 75.32
62 2.21
63 2.12
65 2.64
67 1.36
69 3.76
70 65.17
71 5.32
73 28.31
74 71.24
75 3.38
76 1.22
77 5.36
78 1.49
79 2
81 1.38
82 1.56
83 2.85
84 1.18
85 1.67
87 2.2
88 27.68
89 5.3
90 1.7
91 9.54
93 1.29
94 1.17
95 2.38
96 1.34
97 2.27
98 1.08
103 2.9
104 2.36
105 3.39
107 1.1
108 1.06
109 1.09
111 1.68
115 23.41
116 99.99
117 36.26
118 4.31
119 1.85
121 1.13
129 1.02
130 6.18
131 4.26
132 47.66
133 8.17
135 1.47
138 1.03
149 6.93
170 1.05
189 11.73
190 1.95

$$$$

     RDKit          2D

 18 19  0  0  0  0  0  0  0  0999 V2000
    6.0510    6.1082    0.0000 C   0  0  0  0  0  0  0  0  0  0  0  0
    0.6459    6.2939    0.0000 C   0  0  0  0  0  0  0  0  0  0  0  0
    5.5858    4.6822    0.0000 C   0  0  0  0  0  0  0  0  0  0  0  0
    1.6482    5.1780    0.0000 C   0  0  0  0  0  0  0  0  0  0  0  0
    4.1182    4.3721    0.0000 C   0  0  0  0  0  0  0  0  0  0  0  0
   -2.3100   -0.7500    0.0000 C   0  0  0  0  0  0  0  0  0  0  0  0
   -2.3100    0.7500    0.0000 C   0  0  0  0  0  0  0  0  0  0  0  0
   -1.0100   -1.5000    0.0000 C   0  0  0  0  0  0  0  0  0  0  0  0
   -1.0100    1.5000    0.0000 C   0  0  0  0  0  0  0  0  0  0  0  0
    1.7200   -1.2100    0.0000 C   0  0  0  0  0  0  0  0  0  0  0  0
    2.6000    0.0000    0.0000 C   0  0  0  0  0  0  0  0  0  0  0  0
    3.6529    2.9461    0.0000 C   0  0  0  0  0  0  0  0  0  0  0  0
    0.2900   -0.7500    0.0000 C   0  0  0  0  0  0  0  0  0  0  0  0
    0.2900    0.7500    0.0000 C   0  0  0  0  0  0  0  0  0  0  0  0
    1.7200    1.2100    0.0000 C   0  0  0  0  0  0  0  0  0  0  0  0
    1.1830    3.7520    0.0000 C   0  0  0  0  0  0  0  0  0  0  0  0
    2.1853    2.6360    0.0000 N   0  0  0  0  0  0  0  0  0  0  0  0
   -0.2847    3.4419    0.0000 O   0  0  0  0  0  0  0  0  0  0  0  0
  3  1  1  0
  4  2  1  0
  3  5  2  0
  7  6  2  0
  8  6  1  0
  9  7  1  0
 11 10  1  0
 12  5  1  0
 13  8  2  0
 13 10  1  0
 14  9  2  0
 14 13  1  0
 15 11  1  0
 15 14  1  0
 16  4  1  0
 17 12  1  0
 17 15  1  0
 17 16  1  0
 18 16  2  0
M  END
>  <NAME>  (1130) 
1-(N-2-BUTENYLPROPANOYLAMINO)INDANE

>  <SYNONYMS>  (1130) 


>  <SPECTRUM TYPE>  (1130) 
MS1

>  <INSTRUMENT TYPE>  (1130) 
EI-B

>  <INSTRUMENT>  (1130) 
JEOL JMS-AX-500

>  <ION MODE>  (1130) 
P

>  <INCHIKEY>  (1130) 
CVWJSMCYKDJAJB-HWKANZROSA-N

>  <FORMULA>  (1130) 
C16H21NO

>  <EXACT MASS>  (1130) 
243.162314292

>  <MW>  (1130) 
243

>  <ID>  (1130) 
JP010495

>  <CONTRIBUTOR>  (1130) 
University of Tokyo Team, {Faculty of Engineering, University of Tokyo

>  <COMMENT>  (1130) 
SMILES=CC=CCN(C(=O)CC)C(C1)c(c2)c(ccc2)C1
InChI=InChI=1S/C16H21NO/c1-3-5-12-17(16(18)4-2)15-11-10-13-8-6-7-9-14(13)15/h3,5-9,15H,4,10-12H2,1-2H3/b5-3+
computed SMILES=O=C(N(CC=CC)C1C=2C=CC=CC2CC1)CC
accession=JP010495
date=2016.01.19 (Created 2008.10.21, modified 2011.05.06)
author=TSUNODA T, FACULTY OF PHARMACEUTICAL SCIENCES, TOKUSHIMA BUNRI UNIV.
license=CC BY-NC-SA
exact mass=243.16231
ionization energy=70 eV
ion type=[M]+*
computed spectral entropy=3.322491763531609
computed normalized entropy=0.7768882749013907
SPLASH=splash10-00l6-9500000000-fa019fa3fb16a195bad8
submitter=submitter = University of Tokyo Team (Faculty of Engineering, University of Tokyo)
MoNA Rating=3.75

>  <NUM PEAKS>  (1130) 
72

>  <MASS SPECTRAL PEAKS>  (1130) 
14 1.65
15 4.9
29 20.63
30 1.36
31 1.14
39 2.67
40 1.82
41 4.18
42 5.6
43 99.99
44 4.54
45 15.57
51 1.02
53 1.14
55 7.18
56 3.47
57 9.39
58 1.42
60 1.31
61 18.13
65 1.58
67 1.35
69 3.51
70 25.37
71 4.97
72 1.02
73 6.78
74 2.06
77 2.61
79 1.36
81 1.79
82 1.49
83 2.5
84 1.13
85 1.98
86 1.39
88 6.68
89 1.95
91 5.77
95 1.7
96 1.09
97 1.99
98 1.33
103 2.27
104 1.41
105 2.04
111 1.24
115 14.52
116 11.06
117 26.93
118 3.6
119 1.79
125 1.06
126 3.75
127 1.11
128 2.83
129 1.25
130 3.71
131 2.98
132 55.4
133 7.97
135 1.41
138 1.05
145 1.08
146 2.57
147 1.02
149 2.64
186 1.37
188 29.32
189 4.48
202 1.2
243 1.09

$$$$

     RDKit          2D

 11 11  0  0  0  0  0  0  0  0999 V2000
    1.9487    3.0002    0.0000 C   0  0  0  0  0  0  0  0  0  0  0  0
    1.9487   -3.0002    0.0000 C   0  0  0  0  0  0  0  0  0  0  0  0
   -1.9500    0.7500    0.0000 C   0  0  0  0  0  0  0  0  0  0  0  0
   -1.9500   -0.7500    0.0000 C   0  0  0  0  0  0  0  0  0  0  0  0
   -0.6500    1.5000    0.0000 C   0  0  0  0  0  0  0  0  0  0  0  0
   -0.6500   -1.5000    0.0000 C   0  0  0  0  0  0  0  0  0  0  0  0
    1.9489    1.5002    0.0000 C   0  0  0  0  0  0  0  0  0  0  0  0
    0.6500    0.7500    0.0000 C   0  0  0  0  0  0  0  0  0  0  0  0
    0.6500   -0.7500    0.0000 C   0  0  0  0  0  0  0  0  0  0  0  0
    3.2481    0.7504    0.0000 O   0  0  0  0  0  0  0  0  0  0  0  0
    1.9489   -1.5002    0.0000 O   0  0  0  0  0  0  0  0  0  0  0  0
  4  3  2  0
  5  3  1  0
  6  4  1  0
  7  1  1  0
  8  5  2  0
  8  7  1  0
  9  6  2  0
  9  8  1  0
 10  7  1  0
 11  2  1  0
 11  9  1  0
M  END
>  <NAME>  (1131) 
1-(2-METHOXYPHENYL)ETHANOL

>  <SYNONYMS>  (1131) 


>  <SPECTRUM TYPE>  (1131) 
MS1

>  <INSTRUMENT TYPE>  (1131) 
EI-B

>  <INSTRUMENT>  (1131) 
JEOL JMS-AX-500

>  <ION MODE>  (1131) 
P

>  <INCHIKEY>  (1131) 
DHHGVIOVURMJEA-UHFFFAOYSA-N

>  <FORMULA>  (1131) 
C9H12O2

>  <EXACT MASS>  (1131) 
152.083729624

>  <MW>  (1131) 
152

>  <ID>  (1131) 
JP010494

>  <CONTRIBUTOR>  (1131) 
University of Tokyo Team, {Faculty of Engineering, University of Tokyo

>  <COMMENT>  (1131) 
SMILES=COc(c1)c(ccc1)C(C)O
InChI=InChI=1S/C9H12O2/c1-7(10)8-5-3-4-6-9(8)11-2/h3-7,10H,1-2H3
computed SMILES=OC(C=1C=CC=CC1OC)C
accession=JP010494
date=2016.01.19 (Created 2008.10.21, modified 2011.05.06)
author=TSUNODA T, FACULTY OF PHARMACEUTICAL SCIENCES, TOKUSHIMA BUNRI UNIV.
license=CC BY-NC-SA
exact mass=152.08373
ionization energy=70 eV
ion type=[M]+*
computed spectral entropy=3.810338054521841
computed normalized entropy=0.8386728656462064
SPLASH=splash10-0a4u-6900000000-7b8aef4bb1d8aaf25bd9
submitter=submitter = University of Tokyo Team (Faculty of Engineering, University of Tokyo)
MoNA Rating=3.75

>  <NUM PEAKS>  (1131) 
94

>  <MASS SPECTRAL PEAKS>  (1131) 
14 2.25
15 1.71
31 1.31
40 3.01
41 8.31
42 2.11
43 33.91
44 3.66
45 5.7
50 3.59
51 9
52 2.05
53 2.6
55 8.68
56 5.45
57 13.75
58 1.17
61 4.11
62 1.47
63 5.12
64 2.59
65 11.4
66 2.43
67 2.89
68 1.67
69 6.62
70 7.46
71 8.4
73 2.39
74 1.62
75 2.03
76 4.02
77 27.63
78 5.91
79 12.19
80 1.44
81 4.99
82 2.87
83 5.29
84 2.36
85 4.38
86 1.02
88 1.53
89 2.81
90 1.63
91 17.47
92 4.95
93 4.28
94 14.57
95 4.89
96 2.42
97 4.76
98 1.86
99 1.66
102 1.11
103 4.35
104 3.28
105 12.66
106 1.78
107 69.46
108 10.08
109 32.75
110 3.93
111 2.82
112 1.42
113 1.31
115 3.49
116 1.87
117 4.71
118 2.44
119 9.86
120 2.74
121 15.19
122 5.75
123 2.32
125 1.69
126 1.21
128 1.26
131 1.56
132 9.02
133 4.13
134 4.91
135 13.31
136 2.56
137 99.99
138 10.82
139 1.63
141 1.32
147 1.26
149 13.41
150 2.66
151 2.47
152 30.1
153 3.82

$$$$

     RDKit          2D

  9  9  0  0  0  0  0  0  0  0999 V2000
    2.3002    1.6680    0.0000 C   0  0  0  0  0  0  0  0  0  0  0  0
    2.3002   -1.3280    0.0000 C   0  0  0  0  0  0  0  0  0  0  0  0
   -0.2900    1.6700    0.0000 C   0  0  0  0  0  0  0  0  0  0  0  0
   -1.5800    0.9200    0.0000 C   0  0  0  0  0  0  0  0  0  0  0  0
   -0.2900   -1.3300    0.0000 C   0  0  0  0  0  0  0  0  0  0  0  0
    1.0000    0.9200    0.0000 C   0  0  0  0  0  0  0  0  0  0  0  0
    1.0000   -0.5800    0.0000 C   0  0  0  0  0  0  0  0  0  0  0  0
   -1.5800   -0.5800    0.0000 C   0  0  0  0  0  0  0  0  0  0  0  0
   -2.8802   -1.3280    0.0000 O   0  0  0  0  0  0  0  0  0  0  0  0
  4  3  2  0
  6  1  1  0
  6  3  1  0
  7  2  1  0
  7  5  1  0
  7  6  2  0
  8  4  1  0
  8  5  2  0
  9  8  1  0
M  END
>  <NAME>  (1132) 
3,4-DIMETHYLPHENOL

>  <SYNONYMS>  (1132) 


>  <SPECTRUM TYPE>  (1132) 
MS1

>  <INSTRUMENT TYPE>  (1132) 
EI-B

>  <INSTRUMENT>  (1132) 
HITACHI M-80A

>  <ION MODE>  (1132) 
P

>  <INCHIKEY>  (1132) 
YCOXTKKNXUZSKD-UHFFFAOYSA-N

>  <FORMULA>  (1132) 
C8H10O

>  <EXACT MASS>  (1132) 
122.07316494

>  <MW>  (1132) 
122

>  <ID>  (1132) 
JP010493

>  <CONTRIBUTOR>  (1132) 
University of Tokyo Team, {Faculty of Engineering, University of Tokyo

>  <COMMENT>  (1132) 
SMILES=Oc(c1)cc(C)c(C)c1
InChI=InChI=1S/C8H10O/c1-6-3-4-8(9)5-7(6)2/h3-5,9H,1-2H3
computed SMILES=OC1=CC=C(C(=C1)C)C
accession=JP010493
date=2016.01.19 (Created 2008.10.21, modified 2011.05.06)
author=TAJIMA S, GUNMA COLLEGE OF TECHNOLOGY
license=CC BY-NC-SA
exact mass=122.07316
ionization energy=70 eV
ion type=[M]+*
computed spectral entropy=2.916064215710612
computed normalized entropy=0.7616446445949924
SPLASH=splash10-05fr-7900000000-7e46063c7d13680bf6ac
submitter=submitter = University of Tokyo Team (Faculty of Engineering, University of Tokyo)
MoNA Rating=3.75

>  <NUM PEAKS>  (1132) 
46

>  <MASS SPECTRAL PEAKS>  (1132) 
15 2.11
26 2.13
27 10.62
29 2.57
37 1.3
38 4.1
39 18.94
40 2.91
41 5.56
42 1.06
43 2.38
50 7.28
51 14.29
52 6.05
53 10.52
54 1.09
55 3.92
60 1.66
61 2.02
62 2.85
63 6.67
64 1.6
65 8.55
66 3.05
67 2.41
74 1.8
75 1.57
77 26.58
78 6.67
79 10.15
81 1.61
89 1.34
91 15.98
92 2.27
93 2.96
94 3.11
95 1.15
103 2.25
104 1.37
105 4.96
107 99.99
108 8.05
120 1.84
121 40.29
122 79.3
123 7.81

$$$$

     RDKit          2D

  9  9  0  0  0  0  0  0  0  0999 V2000
    2.9928    0.9831    0.0000 C   0  0  0  0  0  0  0  0  0  0  0  0
    0.3944    2.4833    0.0000 C   0  0  0  0  0  0  0  0  0  0  0  0
    0.3937   -2.0183    0.0000 C   0  0  0  0  0  0  0  0  0  0  0  0
    1.6932   -1.2675    0.0000 C   0  0  0  0  0  0  0  0  0  0  0  0
   -0.9054   -1.2683    0.0000 C   0  0  0  0  0  0  0  0  0  0  0  0
    1.6937    0.2333    0.0000 C   0  0  0  0  0  0  0  0  0  0  0  0
    0.3946    0.9833    0.0000 C   0  0  0  0  0  0  0  0  0  0  0  0
   -0.9049    0.2325    0.0000 C   0  0  0  0  0  0  0  0  0  0  0  0
   -2.2039    0.9825    0.0000 O   0  0  0  0  0  0  0  0  0  0  0  0
  4  3  2  0
  5  3  1  0
  6  1  1  0
  6  4  1  0
  7  2  1  0
  7  6  2  0
  8  5  2  0
  8  7  1  0
  9  8  1  0
M  END
>  <NAME>  (1133) 
2,3-DIMETHYLPHENOL

>  <SYNONYMS>  (1133) 


>  <SPECTRUM TYPE>  (1133) 
MS1

>  <INSTRUMENT TYPE>  (1133) 
EI-B

>  <INSTRUMENT>  (1133) 
HITACHI M-80A

>  <ION MODE>  (1133) 
P

>  <INCHIKEY>  (1133) 
QWBBPBRQALCEIZ-UHFFFAOYSA-N

>  <FORMULA>  (1133) 
C8H10O

>  <EXACT MASS>  (1133) 
122.07316494

>  <MW>  (1133) 
122

>  <ID>  (1133) 
JP010492

>  <CONTRIBUTOR>  (1133) 
University of Tokyo Team, {Faculty of Engineering, University of Tokyo

>  <COMMENT>  (1133) 
SMILES=Cc(c1)c(C)c(O)cc1
InChI=InChI=1S/C8H10O/c1-6-4-3-5-8(9)7(6)2/h3-5,9H,1-2H3
computed SMILES=OC1=CC=CC(=C1C)C
accession=JP010492
date=2016.01.19 (Created 2008.10.21, modified 2011.05.06)
author=TAJIMA S, GUNMA COLLEGE OF TECHNOLOGY
license=CC BY-NC-SA
exact mass=122.07316
ionization energy=70 eV
ion type=[M]+*
computed spectral entropy=2.9847905046864405
computed normalized entropy=0.7710244175583211
SPLASH=splash10-05i0-8900000000-51d723e665d09753d245
submitter=submitter = University of Tokyo Team (Faculty of Engineering, University of Tokyo)
MoNA Rating=3.75

>  <NUM PEAKS>  (1133) 
48

>  <MASS SPECTRAL PEAKS>  (1133) 
15 2.24
26 2.34
27 11.29
29 2.81
37 1.41
38 4.51
39 21.61
40 3.27
41 6.16
43 3.61
50 6.99
51 15.24
52 6.05
53 10.53
54 1.1
55 3.78
60 2.41
61 2.49
62 3.28
63 8.28
64 2.04
65 9.91
66 3.37
67 2.48
74 2.05
75 1.79
76 1.29
77 32.95
78 12.28
79 21.14
80 2.09
81 1.28
89 1.75
91 20.42
92 2.96
93 5
94 5.21
95 1.16
102 1.42
103 7.63
104 5.55
105 3.57
107 99.99
108 8
120 1.23
121 30.98
122 98.84
123 1.54

$$$$

     RDKit          2D

  9  9  0  0  0  0  0  0  0  0999 V2000
   -0.0000   -1.5002    0.0000 C   0  0  0  0  0  0  0  0  0  0  0  0
   -2.5989    3.0000    0.0000 C   0  0  0  0  0  0  0  0  0  0  0  0
   -1.3000    0.7498    0.0000 C   0  0  0  0  0  0  0  0  0  0  0  0
    1.3000    0.7498    0.0000 C   0  0  0  0  0  0  0  0  0  0  0  0
   -0.0000    2.9998    0.0000 C   0  0  0  0  0  0  0  0  0  0  0  0
   -0.0000   -0.0002    0.0000 C   0  0  0  0  0  0  0  0  0  0  0  0
   -1.3000    2.2498    0.0000 C   0  0  0  0  0  0  0  0  0  0  0  0
    1.3000    2.2498    0.0000 C   0  0  0  0  0  0  0  0  0  0  0  0
    2.5989    3.0000    0.0000 O   0  0  0  0  0  0  0  0  0  0  0  0
  6  1  1  0
  6  3  2  0
  6  4  1  0
  7  2  1  0
  7  3  1  0
  7  5  2  0
  8  4  2  0
  8  5  1  0
  9  8  1  0
M  END
>  <NAME>  (1134) 
3,5-DIMETHYLPHENOL

>  <SYNONYMS>  (1134) 


>  <SPECTRUM TYPE>  (1134) 
MS1

>  <INSTRUMENT TYPE>  (1134) 
EI-B

>  <INSTRUMENT>  (1134) 
HITACHI M-80A

>  <ION MODE>  (1134) 
P

>  <INCHIKEY>  (1134) 
TUAMRELNJMMDMT-UHFFFAOYSA-N

>  <FORMULA>  (1134) 
C8H10O

>  <EXACT MASS>  (1134) 
122.07316494

>  <MW>  (1134) 
122

>  <ID>  (1134) 
JP010491

>  <CONTRIBUTOR>  (1134) 
University of Tokyo Team, {Faculty of Engineering, University of Tokyo

>  <COMMENT>  (1134) 
SMILES=Cc(c1)cc(O)cc(C)1
InChI=InChI=1S/C8H10O/c1-6-3-7(2)5-8(9)4-6/h3-5,9H,1-2H3
computed SMILES=OC=1C=C(C=C(C1)C)C
accession=JP010491
date=2016.01.19 (Created 2008.10.21, modified 2011.05.06)
author=TAJIMA S, GUNMA COLLEGE OF TECHNOLOGY
license=CC BY-NC-SA
exact mass=122.07316
ionization energy=70 eV
ion type=[M]+*
computed spectral entropy=2.931582793398674
computed normalized entropy=0.7656979303642715
SPLASH=splash10-05fr-8900000000-49692938cb85cf2baa3a
submitter=submitter = University of Tokyo Team (Faculty of Engineering, University of Tokyo)
MoNA Rating=3.75

>  <NUM PEAKS>  (1134) 
46

>  <MASS SPECTRAL PEAKS>  (1134) 
15 2.25
26 1.8
27 11.37
29 2.7
37 1.29
38 4.47
39 19.93
40 2.78
41 6.02
42 1.21
43 3.28
50 6.82
51 13.34
52 5.63
53 11.12
54 1.28
55 4.08
60 1.93
61 1.86
62 2.5
63 6.08
64 1.41
65 7.64
66 2.95
67 2.89
74 1.72
75 1.45
77 27.84
78 7.63
79 17.09
80 1.47
81 1.38
89 1.15
91 14.98
92 1.91
93 4.39
94 2.64
95 1.06
103 2.47
104 1.83
105 2.92
107 77.59
108 6.08
121 31.49
122 99.99
123 9.4

$$$$

     RDKit          2D

  9  9  0  0  0  0  0  0  0  0999 V2000
   -2.5633    1.1076    0.0000 C   0  0  0  0  0  0  0  0  0  0  0  0
    2.6328   -1.8924    0.0000 C   0  0  0  0  0  0  0  0  0  0  0  0
   -1.2648   -1.1433    0.0000 C   0  0  0  0  0  0  0  0  0  0  0  0
    0.0342   -1.8933    0.0000 C   0  0  0  0  0  0  0  0  0  0  0  0
    0.0352    1.1084    0.0000 C   0  0  0  0  0  0  0  0  0  0  0  0
   -1.2643    0.3576    0.0000 C   0  0  0  0  0  0  0  0  0  0  0  0
    1.3338   -1.1424    0.0000 C   0  0  0  0  0  0  0  0  0  0  0  0
    1.3342    0.3584    0.0000 C   0  0  0  0  0  0  0  0  0  0  0  0
    2.6334    1.1082    0.0000 O   0  0  0  0  0  0  0  0  0  0  0  0
  4  3  2  0
  6  1  1  0
  6  3  1  0
  6  5  2  0
  7  2  1  0
  7  4  1  0
  8  5  1  0
  8  7  2  0
  9  8  1  0
M  END
>  <NAME>  (1135) 
2,5-DIMETHYLPHENOL

>  <SYNONYMS>  (1135) 


>  <SPECTRUM TYPE>  (1135) 
MS1

>  <INSTRUMENT TYPE>  (1135) 
EI-B

>  <INSTRUMENT>  (1135) 
HITACHI M-80A

>  <ION MODE>  (1135) 
P

>  <INCHIKEY>  (1135) 
NKTOLZVEWDHZMU-UHFFFAOYSA-N

>  <FORMULA>  (1135) 
C8H10O

>  <EXACT MASS>  (1135) 
122.07316494

>  <MW>  (1135) 
122

>  <ID>  (1135) 
JP010490

>  <CONTRIBUTOR>  (1135) 
University of Tokyo Team, {Faculty of Engineering, University of Tokyo

>  <COMMENT>  (1135) 
SMILES=Cc(c1)cc(O)c(C)c1
InChI=InChI=1S/C8H10O/c1-6-3-4-7(2)8(9)5-6/h3-5,9H,1-2H3
computed SMILES=OC1=CC(=CC=C1C)C
accession=JP010490
date=2016.01.19 (Created 2008.10.21, modified 2011.05.06)
author=TAJIMA S, GUNMA COLLEGE OF TECHNOLOGY
license=CC BY-NC-SA
exact mass=122.07316
ionization energy=70 eV
ion type=[M]+*
computed spectral entropy=2.928253487415154
computed normalized entropy=0.7692443171109278
SPLASH=splash10-05fr-7900000000-836015716b2996224a2b
submitter=submitter = University of Tokyo Team (Faculty of Engineering, University of Tokyo)
MoNA Rating=3.75

>  <NUM PEAKS>  (1135) 
45

>  <MASS SPECTRAL PEAKS>  (1135) 
15 1.88
26 1.8
27 9.93
29 2
37 1.13
38 3.49
39 16.88
40 2.43
41 5.25
43 3.09
50 6.75
51 13.54
52 5.41
53 9.75
54 1.02
55 2.74
60 1.72
61 2.1
62 2.34
63 5.91
64 1.41
65 8.05
66 2.57
67 2.01
74 1.72
75 1.5
76 1.13
77 27.71
78 9.71
79 16.42
80 1.48
89 1.44
91 17.97
92 2.69
93 4.05
94 3.54
102 1.1
103 5.62
104 6.49
105 3.84
107 78.67
108 6.34
121 35.48
122 99.99
123 9.39

$$$$

     RDKit          2D

  9  9  0  0  0  0  0  0  0  0999 V2000
    2.6052   -0.7613    0.0000 C   0  0  0  0  0  0  0  0  0  0  0  0
   -2.6041   -0.8953    0.0000 C   0  0  0  0  0  0  0  0  0  0  0  0
   -0.0300    2.1400    0.0000 C   0  0  0  0  0  0  0  0  0  0  0  0
    1.2600    1.4400    0.0000 C   0  0  0  0  0  0  0  0  0  0  0  0
   -1.3200    1.4000    0.0000 C   0  0  0  0  0  0  0  0  0  0  0  0
    1.2900   -0.0400    0.0000 C   0  0  0  0  0  0  0  0  0  0  0  0
   -1.3200   -0.1200    0.0000 C   0  0  0  0  0  0  0  0  0  0  0  0
    0.0100   -0.8200    0.0000 C   0  0  0  0  0  0  0  0  0  0  0  0
    0.0571   -2.3193    0.0000 O   0  0  0  0  0  0  0  0  0  0  0  0
  4  3  2  0
  5  3  1  0
  6  1  1  0
  6  4  1  0
  7  2  1  0
  7  5  2  0
  8  6  2  0
  8  7  1  0
  9  8  1  0
M  END
>  <NAME>  (1136) 
2,6-DIMETHYLPHENOL

>  <SYNONYMS>  (1136) 


>  <SPECTRUM TYPE>  (1136) 
MS1

>  <INSTRUMENT TYPE>  (1136) 
EI-B

>  <INSTRUMENT>  (1136) 
HITACHI M-80A

>  <ION MODE>  (1136) 
P

>  <INCHIKEY>  (1136) 
NXXYKOUNUYWIHA-UHFFFAOYSA-N

>  <FORMULA>  (1136) 
C8H10O

>  <EXACT MASS>  (1136) 
122.07316494

>  <MW>  (1136) 
122

>  <ID>  (1136) 
JP010489

>  <CONTRIBUTOR>  (1136) 
University of Tokyo Team, {Faculty of Engineering, University of Tokyo

>  <COMMENT>  (1136) 
SMILES=Cc(c1)c(O)c(C)cc1
InChI=InChI=1S/C8H10O/c1-6-4-3-5-7(2)8(6)9/h3-5,9H,1-2H3
computed SMILES=OC=1C(=CC=CC1C)C
accession=JP010489
date=2016.01.19 (Created 2008.10.21, modified 2011.05.06)
author=TAJIMA S, GUNMA COLLEGE OF TECHNOLOGY
license=CC BY-NC-SA
exact mass=122.07316
ionization energy=70 eV
ion type=[M]+*
computed spectral entropy=3.050271773009786
computed normalized entropy=0.7966982167112641
SPLASH=splash10-05i0-8900000000-8a1b0af5939a912cc32f
submitter=submitter = University of Tokyo Team (Faculty of Engineering, University of Tokyo)
MoNA Rating=3.75

>  <NUM PEAKS>  (1136) 
46

>  <MASS SPECTRAL PEAKS>  (1136) 
15 2.42
26 2.35
27 12.18
29 2.36
37 1.32
38 4.23
39 20.81
40 3.08
41 6.15
43 5.09
45 1.29
50 7.13
51 15.13
52 6.2
53 11.52
54 1.31
55 2.74
60 2.31
61 2.36
62 3.51
63 8.56
64 1.98
65 10.98
66 3.02
67 1.73
74 1.66
75 1.58
76 1.28
77 32.4
78 15.31
79 20.6
80 1.94
89 1.99
91 22.47
92 3.28
93 4.55
94 3.91
102 1.83
103 10.01
104 8.76
105 4.67
107 79.14
108 6.35
121 33.14
122 99.99
123 9.32

$$$$

     RDKit          2D

  9  9  0  0  0  0  0  0  0  0999 V2000
   -2.5989    1.8302    0.0000 C   0  0  0  0  0  0  0  0  0  0  0  0
   -0.0000   -2.6700    0.0000 C   0  0  0  0  0  0  0  0  0  0  0  0
    0.0000    1.8300    0.0000 C   0  0  0  0  0  0  0  0  0  0  0  0
    1.3000    1.0800    0.0000 C   0  0  0  0  0  0  0  0  0  0  0  0
   -1.3000   -0.4200    0.0000 C   0  0  0  0  0  0  0  0  0  0  0  0
   -1.3000    1.0800    0.0000 C   0  0  0  0  0  0  0  0  0  0  0  0
    0.0000   -1.1700    0.0000 C   0  0  0  0  0  0  0  0  0  0  0  0
    1.3000   -0.4200    0.0000 C   0  0  0  0  0  0  0  0  0  0  0  0
    2.5989   -1.1702    0.0000 O   0  0  0  0  0  0  0  0  0  0  0  0
  4  3  2  0
  6  1  1  0
  6  3  1  0
  6  5  2  0
  7  2  1  0
  7  5  1  0
  8  4  1  0
  8  7  2  0
  9  8  1  0
M  END
>  <NAME>  (1137) 
2,4-DIMETHYLPHENOL

>  <SYNONYMS>  (1137) 


>  <SPECTRUM TYPE>  (1137) 
MS1

>  <INSTRUMENT TYPE>  (1137) 
EI-B

>  <INSTRUMENT>  (1137) 
HITACHI M-80A

>  <ION MODE>  (1137) 
P

>  <INCHIKEY>  (1137) 
KUFFULVDNCHOFZ-UHFFFAOYSA-N

>  <FORMULA>  (1137) 
C8H10O

>  <EXACT MASS>  (1137) 
122.07316494

>  <MW>  (1137) 
122

>  <ID>  (1137) 
JP010488

>  <CONTRIBUTOR>  (1137) 
University of Tokyo Team, {Faculty of Engineering, University of Tokyo

>  <COMMENT>  (1137) 
SMILES=Cc(c1)cc(C)c(O)c1
InChI=InChI=1S/C8H10O/c1-6-3-4-8(9)7(2)5-6/h3-5,9H,1-2H3
computed SMILES=OC1=CC=C(C=C1C)C
accession=JP010488
date=2016.01.19 (Created 2008.10.21, modified 2011.05.06)
author=TAJIMA S, GUNMA COLLEGE OF TECHNOLOGY
license=CC BY-NC-SA
exact mass=122.07316
ionization energy=70 eV
ion type=[M]+*
computed spectral entropy=3.4372901566341802
computed normalized entropy=0.8465308213183417
SPLASH=splash10-0kor-9300000000-3a05618233448adccb69
submitter=submitter = University of Tokyo Team (Faculty of Engineering, University of Tokyo)
MoNA Rating=3.75

>  <NUM PEAKS>  (1137) 
58

>  <MASS SPECTRAL PEAKS>  (1137) 
15 13.48
26 11.55
27 38.44
29 11.57
31 1.66
37 4.9
38 16.1
39 63.81
40 10.77
41 17.26
42 3.33
43 6.71
49 2.31
50 25.02
51 43.83
52 19.6
53 28.93
54 3.85
55 9.22
60 2.22
61 5.58
62 12.17
63 27.74
64 6.74
65 25.66
66 10.14
67 4.98
68 1.45
73 1.37
74 6.57
75 5.02
76 3.99
77 56.09
78 20.21
79 27.54
80 2.78
81 3.05
82 1.24
86 1.74
87 1.72
89 4.39
90 2
91 38.57
92 6.75
93 6.25
94 10.81
95 3.33
102 3.06
103 6.63
104 4.61
105 4.8
107 99.99
108 8.65
119 1.04
120 1.51
121 45.09
122 91.49
123 8.47

$$$$

     RDKit          2D

  9  8  0  0  0  0  0  0  0  0999 V2000
    2.0490    4.0981    0.0000 C   0  0  0  0  0  0  0  0  0  0  0  0
    2.0490    1.0981    0.0000 C   0  0  0  0  0  0  0  0  0  0  0  0
    3.5490    2.5981    0.0000 C   0  0  0  0  0  0  0  0  0  0  0  0
   -1.5000    2.0490    0.0000 C   0  0  0  0  0  0  0  0  0  0  0  0
   -0.9510    0.0000    0.0000 C   0  0  0  0  0  0  0  0  0  0  0  0
    0.5490    2.5981    0.0000 C   0  0  0  0  0  0  0  0  0  0  0  0
    2.0490    2.5981    0.0000 C   0  0  0  0  0  0  0  0  0  0  0  0
   -0.2010    1.2990    0.0000 C   0  0  0  0  0  0  0  0  0  0  0  0
    1.0981    0.5490    0.0000 N   0  0  0  0  0  0  0  0  0  0  0  0
  7  1  1  0
  7  2  1  0
  7  3  1  0
  7  6  1  0
  8  4  1  0
  8  5  1  0
  8  6  1  0
  9  8  1  0
M  END
>  <NAME>  (1138) 
1,1,3,3-TETRAMETHYLBUTYLAMINE

>  <SYNONYMS>  (1138) 


>  <SPECTRUM TYPE>  (1138) 
MS1

>  <INSTRUMENT TYPE>  (1138) 
EI-B

>  <INSTRUMENT>  (1138) 
HITACHI M-80A

>  <ION MODE>  (1138) 
P

>  <INCHIKEY>  (1138) 
QIJIUJYANDSEKG-UHFFFAOYSA-N

>  <FORMULA>  (1138) 
C8H19N

>  <EXACT MASS>  (1138) 
129.151749608

>  <MW>  (1138) 
129

>  <ID>  (1138) 
JP010487

>  <CONTRIBUTOR>  (1138) 
University of Tokyo Team, {Faculty of Engineering, University of Tokyo

>  <COMMENT>  (1138) 
SMILES=CC(C)(C)CC(C)(C)N
InChI=InChI=1S/C8H19N/c1-7(2,3)6-8(4,5)9/h6,9H2,1-5H3
computed SMILES=NC(C)(C)CC(C)(C)C
accession=JP010487
date=2016.01.19 (Created 2008.10.21, modified 2011.05.06)
author=TAJIMA S, GUNMA COLLEGE OF TECHNOLOGY
license=CC BY-NC-SA
exact mass=129.15175
ionization energy=70 eV
ion type=[M]+*
computed spectral entropy=1.736032578687433
computed normalized entropy=0.6127433298764624
SPLASH=splash10-0a4i-9000000000-93b97baf6fec7b9896dc
submitter=submitter = University of Tokyo Team (Faculty of Engineering, University of Tokyo)
MoNA Rating=3.75

>  <NUM PEAKS>  (1138) 
17

>  <MASS SPECTRAL PEAKS>  (1138) 
15 1.81
18 3.47
27 3.38
28 1.04
29 4.67
30 2.94
39 4.31
41 10.13
42 8.59
43 4.34
55 2.8
56 3.04
57 9.1
58 99.99
59 3.79
72 1.86
114 3.23

$$$$

     RDKit          2D

 10 10  0  0  0  0  0  0  0  0999 V2000
    3.8971   -0.7500    0.0000 C   0  0  0  0  0  0  0  0  0  0  0  0
   -3.8971    0.7500    0.0000 C   0  0  0  0  0  0  0  0  0  0  0  0
    1.2995    0.7508    0.0000 C   0  0  0  0  0  0  0  0  0  0  0  0
   -0.0005   -1.5008    0.0000 C   0  0  0  0  0  0  0  0  0  0  0  0
    0.0005    1.5008    0.0000 C   0  0  0  0  0  0  0  0  0  0  0  0
   -1.2995   -0.7508    0.0000 C   0  0  0  0  0  0  0  0  0  0  0  0
    1.2990   -0.7500    0.0000 C   0  0  0  0  0  0  0  0  0  0  0  0
   -1.2990    0.7500    0.0000 C   0  0  0  0  0  0  0  0  0  0  0  0
    2.5981   -1.5000    0.0000 O   0  0  0  0  0  0  0  0  0  0  0  0
   -2.5981    1.5000    0.0000 O   0  0  0  0  0  0  0  0  0  0  0  0
  5  3  2  0
  6  4  1  0
  7  3  1  0
  7  4  2  0
  8  5  1  0
  8  6  2  0
  9  1  1  0
  9  7  1  0
 10  2  1  0
 10  8  1  0
M  END
>  <NAME>  (1139) 
1,4-DIMETHOXYBENZENE

>  <SYNONYMS>  (1139) 
PARA-DIMETHOXYBENZENE

>  <SPECTRUM TYPE>  (1139) 
MS1

>  <INSTRUMENT TYPE>  (1139) 
EI-B

>  <INSTRUMENT>  (1139) 
HITACHI M-80A

>  <ION MODE>  (1139) 
P

>  <INCHIKEY>  (1139) 
OHBQPCCCRFSCAX-UHFFFAOYSA-N

>  <FORMULA>  (1139) 
C8H10O2

>  <EXACT MASS>  (1139) 
138.06807956

>  <MW>  (1139) 
138

>  <ID>  (1139) 
JP010486

>  <CONTRIBUTOR>  (1139) 
University of Tokyo Team, {Faculty of Engineering, University of Tokyo

>  <COMMENT>  (1139) 
SMILES=COc(c1)ccc(OC)c1
InChI=InChI=1S/C8H10O2/c1-9-7-3-5-8(10-2)6-4-7/h3-6H,1-2H3
computed SMILES=O(C1=CC=C(OC)C=C1)C
accession=JP010486
date=2016.01.19 (Created 2008.10.21, modified 2011.05.06)
author=TAJIMA S, GUNMA COLLEGE OF TECHNOLOGY
license=CC BY-NC-SA
exact mass=138.06808
ionization energy=70 eV
ion type=[M]+*
computed spectral entropy=2.913275732622984
computed normalized entropy=0.883925949937826
SPLASH=splash10-00dr-9400000000-1cbab0524dd620c92335
submitter=submitter = University of Tokyo Team (Faculty of Engineering, University of Tokyo)
MoNA Rating=3.75

>  <NUM PEAKS>  (1139) 
27

>  <MASS SPECTRAL PEAKS>  (1139) 
15 37.78
26 13.46
27 6.18
29 11.85
38 13.2
39 18.64
41 38.35
50 11.57
51 15.61
52 22.91
53 16.21
54 16.61
62 7.24
63 25.98
64 19.56
65 12.51
66 3.69
67 4.09
77 8.96
79 6.15
80 10.48
92 7.84
95 47.14
123 99.99
124 9.93
138 73.58
139 7.47

$$$$

     RDKit          2D

 10 10  0  0  0  0  0  0  0  0999 V2000
   -3.5794    0.1813    0.0000 C   0  0  0  0  0  0  0  0  0  0  0  0
    4.2153    0.1861    0.0000 C   0  0  0  0  0  0  0  0  0  0  0  0
    0.3223   -2.0565    0.0000 C   0  0  0  0  0  0  0  0  0  0  0  0
   -0.9768   -1.3065    0.0000 C   0  0  0  0  0  0  0  0  0  0  0  0
    1.6168   -1.3143    0.0000 C   0  0  0  0  0  0  0  0  0  0  0  0
    0.3182    0.9365    0.0000 C   0  0  0  0  0  0  0  0  0  0  0  0
   -0.9813    0.1857    0.0000 C   0  0  0  0  0  0  0  0  0  0  0  0
    1.6173    0.1865    0.0000 C   0  0  0  0  0  0  0  0  0  0  0  0
   -2.2816    0.9335    0.0000 O   0  0  0  0  0  0  0  0  0  0  0  0
    2.9164    0.9363    0.0000 O   0  0  0  0  0  0  0  0  0  0  0  0
  4  3  2  0
  5  3  1  0
  7  4  1  0
  7  6  2  0
  8  5  2  0
  8  6  1  0
  9  1  1  0
  9  7  1  0
 10  2  1  0
 10  8  1  0
M  END
>  <NAME>  (1140) 
1,3-DIMETHOXYBENZENE

>  <SYNONYMS>  (1140) 
META-DIMETHOXYBENZENE

>  <SPECTRUM TYPE>  (1140) 
MS1

>  <INSTRUMENT TYPE>  (1140) 
EI-B

>  <INSTRUMENT>  (1140) 
HITACHI M-80A

>  <ION MODE>  (1140) 
P

>  <INCHIKEY>  (1140) 
DPZNOMCNRMUKPS-UHFFFAOYSA-N

>  <FORMULA>  (1140) 
C8H10O2

>  <EXACT MASS>  (1140) 
138.06807956

>  <MW>  (1140) 
138

>  <ID>  (1140) 
JP010485

>  <CONTRIBUTOR>  (1140) 
University of Tokyo Team, {Faculty of Engineering, University of Tokyo

>  <COMMENT>  (1140) 
SMILES=COc(c1)cc(OC)cc1
InChI=InChI=1S/C8H10O2/c1-9-7-4-3-5-8(6-7)10-2/h3-6H,1-2H3
computed SMILES=O(C1=CC=CC(OC)=C1)C
accession=JP010485
date=2016.01.19 (Created 2008.10.21, modified 2011.05.06)
author=TAJIMA S, GUNMA COLLEGE OF TECHNOLOGY
license=CC BY-NC-SA
exact mass=138.06808
ionization energy=70 eV
ion type=[M]+*
computed spectral entropy=3.396022800157927
computed normalized entropy=0.8594819864407566
SPLASH=splash10-00kr-9200000000-f5988efb5ee8f220bd52
submitter=submitter = University of Tokyo Team (Faculty of Engineering, University of Tokyo)
MoNA Rating=3.75

>  <NUM PEAKS>  (1140) 
52

>  <MASS SPECTRAL PEAKS>  (1140) 
15 31.27
26 5.22
27 4.9
29 12.31
30 2.34
31 1.38
37 5.53
38 19.54
39 30.75
40 2.22
41 34.76
42 2.18
43 1.72
49 1.88
50 18.92
51 24.7
52 42.21
53 10.27
54 2.87
55 2.76
61 4.88
62 13.12
63 39.97
64 27.3
65 43.12
66 6.13
67 8.21
69 7.19
73 1.22
74 5.53
75 3.08
76 3.26
77 17.54
78 39.8
79 19.12
80 18.27
81 1.97
92 15.86
93 11.38
94 5.64
95 62.65
96 4.32
105 1.34
107 7.63
108 18.63
109 33.04
110 2.66
122 1.34
123 1.3
137 2.85
138 99.99
139 9.14

$$$$

     RDKit          2D

 10 10  0  0  0  0  0  0  0  0999 V2000
   -3.8969    2.5696    0.0000 C   0  0  0  0  0  0  0  0  0  0  0  0
   -2.5978    0.3196    0.0000 C   0  0  0  0  0  0  0  0  0  0  0  0
    2.5983    0.3196    0.0000 C   0  0  0  0  0  0  0  0  0  0  0  0
    2.5988    1.8204    0.0000 C   0  0  0  0  0  0  0  0  0  0  0  0
    1.2988   -0.4312    0.0000 C   0  0  0  0  0  0  0  0  0  0  0  0
    1.2998    2.5704    0.0000 C   0  0  0  0  0  0  0  0  0  0  0  0
   -0.0002    0.3188    0.0000 C   0  0  0  0  0  0  0  0  0  0  0  0
   -1.2988    2.5696    0.0000 C   0  0  0  0  0  0  0  0  0  0  0  0
    0.0002    1.8196    0.0000 C   0  0  0  0  0  0  0  0  0  0  0  0
   -2.5978    1.8196    0.0000 N   0  0  0  0  0  0  0  0  0  0  0  0
  4  3  2  0
  5  3  1  0
  6  4  1  0
  7  5  2  0
  9  6  2  0
  9  7  1  0
  9  8  1  0
 10  1  1  0
 10  2  1  0
 10  8  1  0
M  END
>  <NAME>  (1141) 
N,N-DIMETHYLBENZYLAMINE

>  <SYNONYMS>  (1141) 


>  <SPECTRUM TYPE>  (1141) 
MS1

>  <INSTRUMENT TYPE>  (1141) 
EI-B

>  <INSTRUMENT>  (1141) 
HITACHI M-80A

>  <ION MODE>  (1141) 
P

>  <INCHIKEY>  (1141) 
XXBDWLFCJWSEKW-UHFFFAOYSA-N

>  <FORMULA>  (1141) 
C9H13N

>  <EXACT MASS>  (1141) 
135.104799416

>  <MW>  (1141) 
135

>  <ID>  (1141) 
JP010484

>  <CONTRIBUTOR>  (1141) 
University of Tokyo Team, {Faculty of Engineering, University of Tokyo

>  <COMMENT>  (1141) 
SMILES=CN(C)Cc(c1)cccc1
InChI=InChI=1S/C9H13N/c1-10(2)8-9-6-4-3-5-7-9/h3-7H,8H2,1-2H3
computed SMILES=C=1C=CC(=CC1)CN(C)C
accession=JP010484
date=2016.01.19 (Created 2008.10.21, modified 2011.05.06)
author=TAJIMA S, GUNMA COLLEGE OF TECHNOLOGY
license=CC BY-NC-SA
exact mass=135.1048
ionization energy=70 eV
ion type=[M]+*
computed spectral entropy=2.6205846440752243
computed normalized entropy=0.7431414416597323
SPLASH=splash10-0a4l-9200000000-e842688dfbc478ea001b
submitter=submitter = University of Tokyo Team (Faculty of Engineering, University of Tokyo)
MoNA Rating=3.75

>  <NUM PEAKS>  (1141) 
34

>  <MASS SPECTRAL PEAKS>  (1141) 
15 4.47
27 1.85
29 1.33
30 2.78
38 1.52
39 8.38
40 1.38
41 3.78
42 22.65
43 8.09
44 9.58
50 2.89
51 6.81
52 1.76
57 3.66
58 99.99
59 3.84
62 1.65
63 5.49
64 1.61
65 14.16
66 1.16
67 1.01
77 4.01
78 1.58
89 3.73
90 1.66
91 49.12
92 8.65
118 3.21
132 1.58
134 29.27
135 49.2
136 5.31

$$$$

     RDKit          2D

  7  6  0  0  0  0  0  0  0  0999 V2000
   -2.3078    1.1781    0.0000 C   0  0  0  0  0  0  0  0  0  0  0  0
   -0.3794    1.1781    0.0000 C   0  0  0  0  0  0  0  0  0  0  0  0
    1.2545    2.3272    0.0000 C   0  0  0  0  0  0  0  0  0  0  0  0
   -3.9417    2.3272    0.0000 C   0  0  0  0  0  0  0  0  0  0  0  0
   -1.3436    2.3272    0.0000 C   0  0  0  0  0  0  0  0  0  0  0  0
   -0.0445    3.0772    0.0000 O   0  0  0  0  0  0  0  0  0  0  0  0
   -2.6426    3.0772    0.0000 O   0  0  0  0  0  0  0  0  0  0  0  0
  5  1  1  0
  5  2  1  0
  6  3  1  0
  6  5  1  0
  7  4  1  0
  7  5  1  0
M  END
>  <NAME>  (1142) 
2,2-DIMETHOXYPROPANE

>  <SYNONYMS>  (1142) 


>  <SPECTRUM TYPE>  (1142) 
MS1

>  <INSTRUMENT TYPE>  (1142) 
EI-B

>  <INSTRUMENT>  (1142) 
HITACHI M-80A

>  <ION MODE>  (1142) 
P

>  <INCHIKEY>  (1142) 
HEWZVZIVELJPQZ-UHFFFAOYSA-N

>  <FORMULA>  (1142) 
C5H12O2

>  <EXACT MASS>  (1142) 
104.083729624

>  <MW>  (1142) 
104

>  <ID>  (1142) 
JP010483

>  <CONTRIBUTOR>  (1142) 
University of Tokyo Team, {Faculty of Engineering, University of Tokyo

>  <COMMENT>  (1142) 
SMILES=COC(C)(C)OC
InChI=InChI=1S/C5H12O2/c1-5(2,6-3)7-4/h1-4H3
computed SMILES=O(C)C(OC)(C)C
accession=JP010483
date=2016.01.19 (Created 2008.10.21, modified 2011.05.06)
author=TAJIMA S, GUNMA COLLEGE OF TECHNOLOGY
license=CC BY-NC-SA
exact mass=104.08373
ionization energy=70 eV
ion type=[M]+*
computed spectral entropy=2.530212363268185
computed normalized entropy=0.7676995149142984
SPLASH=splash10-006x-9000000000-723818614325331ad4b1
submitter=submitter = University of Tokyo Team (Faculty of Engineering, University of Tokyo)
MoNA Rating=3.75

>  <NUM PEAKS>  (1142) 
27

>  <MASS SPECTRAL PEAKS>  (1142) 
14 4.37
15 15.78
16 1.08
26 2.98
27 14.36
29 23.59
30 2.81
31 8.33
33 1.49
37 1.47
38 3.21
39 17.08
40 4.25
41 20.85
42 23.81
43 76.06
44 2.02
45 11.13
47 3.96
55 3.35
57 3.36
58 1.62
72 7.96
73 99.99
74 4.57
89 28.09
90 1.31

$$$$

     RDKit          2D

  5  4  0  0  0  0  0  0  0  0999 V2000
   -3.8971    2.2500    0.0000 C   0  0  0  0  0  0  0  0  0  0  0  0
    1.2990    2.2500    0.0000 C   0  0  0  0  0  0  0  0  0  0  0  0
   -1.2990    2.2500    0.0000 C   0  0  0  0  0  0  0  0  0  0  0  0
   -2.5981    1.5000    0.0000 O   0  0  0  0  0  0  0  0  0  0  0  0
    0.0000    1.5000    0.0000 O   0  0  0  0  0  0  0  0  0  0  0  0
  4  1  1  0
  4  3  1  0
  5  2  1  0
  5  3  1  0
M  END
>  <NAME>  (1143) 
DIMETHOXYMETHANE

>  <SYNONYMS>  (1143) 


>  <SPECTRUM TYPE>  (1143) 
MS1

>  <INSTRUMENT TYPE>  (1143) 
EI-B

>  <INSTRUMENT>  (1143) 
HITACHI M-80A

>  <ION MODE>  (1143) 
P

>  <INCHIKEY>  (1143) 
NKDDWNXOKDWJAK-UHFFFAOYSA-N

>  <FORMULA>  (1143) 
C3H8O2

>  <EXACT MASS>  (1143) 
76.052429496

>  <MW>  (1143) 
76

>  <ID>  (1143) 
JP010482

>  <CONTRIBUTOR>  (1143) 
University of Tokyo Team, {Faculty of Engineering, University of Tokyo

>  <COMMENT>  (1143) 
SMILES=COCOC
InChI=InChI=1S/C3H8O2/c1-4-3-5-2/h3H2,1-2H3
computed SMILES=O(C)COC
accession=JP010482
date=2016.01.19 (Created 2008.10.21, modified 2011.05.06)
author=TAJIMA S, GUNMA COLLEGE OF TECHNOLOGY
license=CC BY-NC-SA
exact mass=76.05243
ionization energy=70 eV
ion type=[M]+*
computed spectral entropy=1.756650706512452
computed normalized entropy=0.7069282488588939
SPLASH=splash10-002b-9000000000-adc9b9442351cf5e904f
submitter=submitter = University of Tokyo Team (Faculty of Engineering, University of Tokyo)
MoNA Rating=3.75

>  <NUM PEAKS>  (1143) 
12

>  <MASS SPECTRAL PEAKS>  (1143) 
14 4.7
15 25.4
29 48.68
30 4.24
31 14.21
43 2.98
44 2.64
45 99.99
46 2.34
47 4.38
75 37.54
76 1.3

$$$$

     RDKit          2D

  5  4  0  0  0  0  0  0  0  0999 V2000
   -0.0000   -0.0000    0.0000 C   0  0  0  0  0  0  0  0  0  0  0  0
   -1.2990    3.7500    0.0000 C   0  0  0  0  0  0  0  0  0  0  0  0
   -2.5981    1.5000    0.0000 C   0  0  0  0  0  0  0  0  0  0  0  0
    0.0000    1.5000    0.0000 C   0  0  0  0  0  0  0  0  0  0  0  0
   -1.2990    2.2500    0.0000 N   0  0  0  0  0  0  0  0  0  0  0  0
  4  1  1  0
  5  2  1  0
  5  3  1  0
  5  4  1  0
M  END
>  <NAME>  (1144) 
N,N-DIMETHYLETHYLAMINE

>  <SYNONYMS>  (1144) 


>  <SPECTRUM TYPE>  (1144) 
MS1

>  <INSTRUMENT TYPE>  (1144) 
EI-B

>  <INSTRUMENT>  (1144) 
HITACHI M-80A

>  <ION MODE>  (1144) 
P

>  <INCHIKEY>  (1144) 
DAZXVJBJRMWXJP-UHFFFAOYSA-N

>  <FORMULA>  (1144) 
C4H11N

>  <EXACT MASS>  (1144) 
73.08914935199999

>  <MW>  (1144) 
73

>  <ID>  (1144) 
JP010481

>  <CONTRIBUTOR>  (1144) 
University of Tokyo Team, {Faculty of Engineering, University of Tokyo

>  <COMMENT>  (1144) 
SMILES=CCN(C)C
InChI=InChI=1S/C4H11N/c1-4-5(2)3/h4H2,1-3H3
computed SMILES=N(C)(C)CC
accession=JP010481
date=2016.01.19 (Created 2008.10.21, modified 2011.05.06)
author=TAJIMA S, GUNMA COLLEGE OF TECHNOLOGY
license=CC BY-NC-SA
exact mass=73.08915
ionization energy=70 eV
ion type=[M]+*
computed spectral entropy=2.482472282463127
computed normalized entropy=0.7811297149083647
SPLASH=splash10-0a4l-9000000000-7063f3d2343b2213443e
submitter=submitter = University of Tokyo Team (Faculty of Engineering, University of Tokyo)
MoNA Rating=3.75

>  <NUM PEAKS>  (1144) 
24

>  <MASS SPECTRAL PEAKS>  (1144) 
14 3
15 14.09
18 1.82
26 3.98
27 12.44
28 10.41
29 8.66
30 12.31
39 1.6
40 3.14
41 6.15
42 36.8
43 11.83
44 19.83
54 2.01
55 1.29
56 8.86
57 5.25
58 99.99
59 3.81
70 1.21
72 14.04
73 18.3
74 1.3

$$$$

     RDKit          2D

 10 10  0  0  0  0  0  0  0  0999 V2000
   -1.6328    3.1878    0.0000 C   0  0  0  0  0  0  0  0  0  0  0  0
    3.5681    0.1904    0.0000 C   0  0  0  0  0  0  0  0  0  0  0  0
   -1.6200   -1.3100    0.0000 C   0  0  0  0  0  0  0  0  0  0  0  0
   -0.3300   -2.0600    0.0000 C   0  0  0  0  0  0  0  0  0  0  0  0
   -1.6200    0.1900    0.0000 C   0  0  0  0  0  0  0  0  0  0  0  0
    0.9700   -1.3100    0.0000 C   0  0  0  0  0  0  0  0  0  0  0  0
   -0.3300    0.9400    0.0000 C   0  0  0  0  0  0  0  0  0  0  0  0
    0.9700    0.1900    0.0000 C   0  0  0  0  0  0  0  0  0  0  0  0
   -0.3325    2.4400    0.0000 O   0  0  0  0  0  0  0  0  0  0  0  0
    2.2689    0.9402    0.0000 O   0  0  0  0  0  0  0  0  0  0  0  0
  4  3  2  0
  5  3  1  0
  6  4  1  0
  7  5  2  0
  8  6  2  0
  8  7  1  0
  9  1  1  0
  9  7  1  0
 10  2  1  0
 10  8  1  0
M  END
>  <NAME>  (1145) 
ORTHO-DIMETHOXYBENZENE

>  <SYNONYMS>  (1145) 
1,2-DIMETHOXYBENENE

>  <SPECTRUM TYPE>  (1145) 
MS1

>  <INSTRUMENT TYPE>  (1145) 
EI-B

>  <INSTRUMENT>  (1145) 
HITACHI M-80A

>  <ION MODE>  (1145) 
P

>  <INCHIKEY>  (1145) 
ABDKAPXRBAPSQN-UHFFFAOYSA-N

>  <FORMULA>  (1145) 
C8H10O2

>  <EXACT MASS>  (1145) 
138.06807956

>  <MW>  (1145) 
138

>  <ID>  (1145) 
JP010480

>  <CONTRIBUTOR>  (1145) 
University of Tokyo Team, {Faculty of Engineering, University of Tokyo

>  <COMMENT>  (1145) 
SMILES=COc(c1)c(OC)ccc1
InChI=InChI=1S/C8H10O2/c1-9-7-5-3-4-6-8(7)10-2/h3-6H,1-2H3
computed SMILES=O(C=1C=CC=CC1OC)C
accession=JP010480
date=2016.01.19 (Created 2008.10.21, modified 2011.05.06)
author=TAJIMA S, GUNMA COLLEGE OF TECHNOLOGY
license=CC BY-NC-SA
exact mass=138.06808
ionization energy=70 eV
ion type=[M]+*
computed spectral entropy=3.247253766509957
computed normalized entropy=0.8343791639316982
SPLASH=splash10-0f96-9100000000-82821a5bc5bbc4df87be
submitter=submitter = University of Tokyo Team (Faculty of Engineering, University of Tokyo)
MoNA Rating=3.75

>  <NUM PEAKS>  (1145) 
49

>  <MASS SPECTRAL PEAKS>  (1145) 
26 7.49
27 7.22
29 9.95
30 1.55
31 2.71
37 4.4
38 12.54
39 36.48
40 2.95
41 28.24
49 2.36
50 28.01
51 56.78
52 50.5
53 11.67
54 2.76
55 3.52
61 3.16
62 9.23
63 28.75
64 12.17
65 57.16
66 4.96
67 10.04
73 1.05
74 5.26
75 3.57
76 4.01
77 68.19
78 12.37
79 30.8
80 12.77
81 1.35
89 6.43
90 4.1
91 97.2
92 99.99
93 10.36
95 55.9
96 3.78
105 8.87
106 1.28
107 11.93
108 1.47
121 2.42
123 18.99
124 1.69
138 47.19
139 4.62

$$$$

     RDKit          2D

 15 16  0  0  0  0  0  0  0  0999 V2000
    3.2481    2.1950    0.0000 C   0  0  0  0  0  0  0  0  0  0  0  0
   -7.1442    2.1950    0.0000 C   0  0  0  0  0  0  0  0  0  0  0  0
    3.2486    3.6958    0.0000 C   0  0  0  0  0  0  0  0  0  0  0  0
    1.9486    1.4442    0.0000 C   0  0  0  0  0  0  0  0  0  0  0  0
   -5.8447    1.4442    0.0000 C   0  0  0  0  0  0  0  0  0  0  0  0
   -7.1447    3.6958    0.0000 C   0  0  0  0  0  0  0  0  0  0  0  0
    1.9495    4.4458    0.0000 C   0  0  0  0  0  0  0  0  0  0  0  0
    0.6495    2.1942    0.0000 C   0  0  0  0  0  0  0  0  0  0  0  0
   -4.5457    2.1942    0.0000 C   0  0  0  0  0  0  0  0  0  0  0  0
   -5.8457    4.4458    0.0000 C   0  0  0  0  0  0  0  0  0  0  0  0
   -0.6490    4.4450    0.0000 C   0  0  0  0  0  0  0  0  0  0  0  0
   -3.2471    4.4450    0.0000 C   0  0  0  0  0  0  0  0  0  0  0  0
    0.6500    3.6950    0.0000 C   0  0  0  0  0  0  0  0  0  0  0  0
   -4.5462    3.6950    0.0000 C   0  0  0  0  0  0  0  0  0  0  0  0
   -1.9481    3.6950    0.0000 O   0  0  0  0  0  0  0  0  0  0  0  0
  3  1  2  0
  4  1  1  0
  5  2  2  0
  6  2  1  0
  7  3  1  0
  8  4  2  0
  9  5  1  0
 10  6  2  0
 13  7  2  0
 13  8  1  0
 13 11  1  0
 14  9  2  0
 14 10  1  0
 14 12  1  0
 15 11  1  0
 15 12  1  0
M  END
>  <NAME>  (1146) 
DIBENZYL ETHER

>  <SYNONYMS>  (1146) 


>  <SPECTRUM TYPE>  (1146) 
MS1

>  <INSTRUMENT TYPE>  (1146) 
EI-B

>  <INSTRUMENT>  (1146) 
HITACHI M-80A

>  <ION MODE>  (1146) 
P

>  <INCHIKEY>  (1146) 
MHDVGSVTJDSBDK-UHFFFAOYSA-N

>  <FORMULA>  (1146) 
C14H14O

>  <EXACT MASS>  (1146) 
198.104465068

>  <MW>  (1146) 
198

>  <ID>  (1146) 
JP010479

>  <CONTRIBUTOR>  (1146) 
University of Tokyo Team, {Faculty of Engineering, University of Tokyo

>  <COMMENT>  (1146) 
SMILES=c(c2)ccc(c2)COCc(c1)cccc1
InChI=InChI=1S/C14H14O/c1-3-7-13(8-4-1)11-15-12-14-9-5-2-6-10-14/h1-10H,11-12H2
computed SMILES=O(CC=1C=CC=CC1)CC=2C=CC=CC2
accession=JP010479
date=2016.01.19 (Created 2008.10.21, modified 2011.05.06)
author=TAJIMA S, GUNMA COLLEGE OF TECHNOLOGY
license=CC BY-NC-SA
exact mass=198.10447
ion type=[M]+*
ionization energy=70 eV
computed spectral entropy=2.8894726721308466
computed normalized entropy=0.8580988478646537
SPLASH=splash10-0f96-9000000000-7849b51aa36a013236eb
submitter=submitter = University of Tokyo Team (Faculty of Engineering, University of Tokyo)
MoNA Rating=3.75

>  <NUM PEAKS>  (1146) 
29

>  <MASS SPECTRAL PEAKS>  (1146) 
26 6.34
27 11.06
29 17.8
30 4.37
31 7.85
39 38.17
40 8.79
41 7.98
43 1.63
46 1.18
49 3.25
50 34.78
51 63.65
52 17.11
53 5.1
63 22.46
64 6.41
65 46.7
66 3.81
75 8.29
77 71.62
78 19.66
79 34.65
89 10.12
91 99.99
92 56.81
93 5.45
105 22.61
107 12.32

$$$$

     RDKit          2D

 11 10  0  0  0  0  0  0  0  0999 V2000
    2.2841    2.8734    0.0000 C   0  0  0  0  0  0  0  0  0  0  0  0
   -5.5102    2.8734    0.0000 C   0  0  0  0  0  0  0  0  0  0  0  0
   -3.0284    7.3311    0.0000 C   0  0  0  0  0  0  0  0  0  0  0  0
   -0.6489    4.7725    0.0000 C   0  0  0  0  0  0  0  0  0  0  0  0
    0.9850    3.6234    0.0000 C   0  0  0  0  0  0  0  0  0  0  0  0
   -4.2111    3.6234    0.0000 C   0  0  0  0  0  0  0  0  0  0  0  0
   -2.0642    6.1820    0.0000 C   0  0  0  0  0  0  0  0  0  0  0  0
   -1.6131    3.6234    0.0000 C   0  0  0  0  0  0  0  0  0  0  0  0
   -0.3140    2.8734    0.0000 O   0  0  0  0  0  0  0  0  0  0  0  0
   -2.9121    2.8734    0.0000 O   0  0  0  0  0  0  0  0  0  0  0  0
   -2.5772    4.7725    0.0000 O   0  0  0  0  0  0  0  0  0  0  0  0
  5  1  1  0
  6  2  1  0
  7  3  1  0
  8  4  1  0
  9  5  1  0
  9  8  1  0
 10  6  1  0
 10  8  1  0
 11  7  1  0
 11  8  1  0
M  END
>  <NAME>  (1147) 
1,1,1-TRIETHOXYETHANE

>  <SYNONYMS>  (1147) 


>  <SPECTRUM TYPE>  (1147) 
MS1

>  <INSTRUMENT TYPE>  (1147) 
EI-B

>  <INSTRUMENT>  (1147) 
HITACHI M-80A

>  <ION MODE>  (1147) 
P

>  <INCHIKEY>  (1147) 
NDQXKKFRNOPRDW-UHFFFAOYSA-N

>  <FORMULA>  (1147) 
C8H18O3

>  <EXACT MASS>  (1147) 
162.125594436

>  <MW>  (1147) 
162

>  <ID>  (1147) 
JP010478

>  <CONTRIBUTOR>  (1147) 
University of Tokyo Team, {Faculty of Engineering, University of Tokyo

>  <COMMENT>  (1147) 
SMILES=CCOC(C)(OCC)OCC
InChI=InChI=1S/C8H18O3/c1-5-9-8(4,10-6-2)11-7-3/h5-7H2,1-4H3
computed SMILES=O(CC)C(OCC)(OCC)C
accession=JP010478
date=2016.01.19 (Created 2008.10.21, modified 2011.05.06)
author=TAJIMA S, GUNMA COLLEGE OF TECHNOLOGY
license=CC BY-NC-SA
exact mass=162.12559
ionization energy=70 eV
ion type=[M]+*
computed spectral entropy=2.577248232865841
computed normalized entropy=0.7436366489390785
SPLASH=splash10-01r6-9100000000-1bbab8b7e4264ed57c95
submitter=submitter = University of Tokyo Team (Faculty of Engineering, University of Tokyo)
MoNA Rating=3.75

>  <NUM PEAKS>  (1147) 
32

>  <MASS SPECTRAL PEAKS>  (1147) 
19 1.47
26 7.62
27 35.14
28 5.71
29 56.7
30 4.98
31 19.48
39 1.09
41 2.4
42 23.63
43 99.99
44 3.6
45 16.81
46 2.25
47 2.61
59 1.15
60 15.66
61 96.49
62 2.36
63 6.26
70 1.25
73 1.57
75 1.31
87 1.07
89 27.6
90 1.35
91 3.22
116 3.93
117 55.86
118 3.91
119 1.37
147 4.97

$$$$

     RDKit          2D

 10  9  0  0  0  0  0  0  0  0999 V2000
   -7.4695    3.9375    0.0000 C   0  0  0  0  0  0  0  0  0  0  0  0
    1.6238    3.1875    0.0000 C   0  0  0  0  0  0  0  0  0  0  0  0
   -6.1704    3.1875    0.0000 C   0  0  0  0  0  0  0  0  0  0  0  0
   -4.8714    3.9375    0.0000 C   0  0  0  0  0  0  0  0  0  0  0  0
   -0.9743    3.1875    0.0000 C   0  0  0  0  0  0  0  0  0  0  0  0
    0.3248    3.9375    0.0000 C   0  0  0  0  0  0  0  0  0  0  0  0
   -2.2733    3.9375    0.0000 C   0  0  0  0  0  0  0  0  0  0  0  0
    0.3248    5.4375    0.0000 O   0  0  0  0  0  0  0  0  0  0  0  0
   -2.2733    5.4375    0.0000 O   0  0  0  0  0  0  0  0  0  0  0  0
   -3.5724    3.1875    0.0000 O   0  0  0  0  0  0  0  0  0  0  0  0
  3  1  1  0
  4  3  1  0
  6  2  1  0
  6  5  1  0
  7  5  1  0
  8  6  2  0
  9  7  2  0
 10  4  1  0
 10  7  1  0
M  END
>  <NAME>  (1148) 
PROPYL ACETOACETATE

>  <SYNONYMS>  (1148) 
ACETOACETIC ACID PROPYL ESTER

>  <SPECTRUM TYPE>  (1148) 
MS1

>  <INSTRUMENT TYPE>  (1148) 
EI-B

>  <INSTRUMENT>  (1148) 
HITACHI M-80A

>  <ION MODE>  (1148) 
P

>  <INCHIKEY>  (1148) 
DHGFMVMDBNLMKT-UHFFFAOYSA-N

>  <FORMULA>  (1148) 
C7H12O3

>  <EXACT MASS>  (1148) 
144.07864424399997

>  <MW>  (1148) 
144

>  <ID>  (1148) 
JP010477

>  <CONTRIBUTOR>  (1148) 
University of Tokyo Team, {Faculty of Engineering, University of Tokyo

>  <COMMENT>  (1148) 
SMILES=CCCOC(=O)CC(C)=O
InChI=InChI=1S/C7H12O3/c1-3-4-10-7(9)5-6(2)8/h3-5H2,1-2H3
computed SMILES=O=C(OCCC)CC(=O)C
accession=JP010477
date=2016.01.19 (Created 2008.10.21, modified 2011.05.06)
author=TAJIMA S, GUNMA COLLEGE OF TECHNOLOGY
license=CC BY-NC-SA
exact mass=144.07864
ionization energy=70 eV
ion type=[M]+*
computed spectral entropy=2.4848193968900776
computed normalized entropy=0.7456983475361266
SPLASH=splash10-0006-9000000000-8f8352e2b9b063221027
submitter=submitter = University of Tokyo Team (Faculty of Engineering, University of Tokyo)
MoNA Rating=3.75

>  <NUM PEAKS>  (1148) 
28

>  <MASS SPECTRAL PEAKS>  (1148) 
26 6.36
27 29.48
28 4.31
29 14.87
30 1.49
31 12.88
37 1.47
38 2.48
39 12.3
40 2.25
41 24.32
43 99.99
44 2.98
45 1.14
55 1.39
57 1.2
58 3.05
59 1.68
60 8.45
61 5.85
69 6.84
73 1.2
84 5.83
85 14.81
87 2.05
102 4.92
103 6.61
144 1.05

$$$$

     RDKit          2D

 11 11  0  0  0  0  0  0  0  0999 V2000
    3.5726    0.8821    0.0000 C   0  0  0  0  0  0  0  0  0  0  0  0
    3.5731    2.3829    0.0000 C   0  0  0  0  0  0  0  0  0  0  0  0
    2.2731    0.1313    0.0000 C   0  0  0  0  0  0  0  0  0  0  0  0
    2.2740    3.1329    0.0000 C   0  0  0  0  0  0  0  0  0  0  0  0
    0.9740    0.8813    0.0000 C   0  0  0  0  0  0  0  0  0  0  0  0
   -2.9226    3.1321    0.0000 C   0  0  0  0  0  0  0  0  0  0  0  0
   -4.2216    2.3821    0.0000 C   0  0  0  0  0  0  0  0  0  0  0  0
   -0.3245    3.1321    0.0000 C   0  0  0  0  0  0  0  0  0  0  0  0
    0.9745    2.3821    0.0000 C   0  0  0  0  0  0  0  0  0  0  0  0
   -1.6236    2.3821    0.0000 N   0  0  0  0  0  0  0  0  0  0  0  0
   -5.5207    3.1321    0.0000 O   0  0  0  0  0  0  0  0  0  0  0  0
  2  1  2  0
  3  1  1  0
  4  2  1  0
  5  3  2  0
  7  6  1  0
  9  4  2  0
  9  5  1  0
  9  8  1  0
 10  6  1  0
 10  8  1  0
 11  7  1  0
M  END
>  <NAME>  (1149) 
N-BENZYLETHANOLAMINE

>  <SYNONYMS>  (1149) 


>  <SPECTRUM TYPE>  (1149) 
MS1

>  <INSTRUMENT TYPE>  (1149) 
EI-B

>  <INSTRUMENT>  (1149) 
HITACHI M-80A

>  <ION MODE>  (1149) 
P

>  <INCHIKEY>  (1149) 
XNIOWJUQPMKCIJ-UHFFFAOYSA-N

>  <FORMULA>  (1149) 
C9H13NO

>  <EXACT MASS>  (1149) 
151.099714036

>  <MW>  (1149) 
151

>  <ID>  (1149) 
JP010476

>  <CONTRIBUTOR>  (1149) 
University of Tokyo Team, {Faculty of Engineering, University of Tokyo

>  <COMMENT>  (1149) 
SMILES=OCCNCc(c1)cccc1
InChI=InChI=1S/C9H13NO/c11-7-6-10-8-9-4-2-1-3-5-9/h1-5,10-11H,6-8H2
computed SMILES=OCCNCC=1C=CC=CC1
accession=JP010476
date=2016.01.19 (Created 2008.10.21, modified 2011.05.06)
author=TAJIMA S, GUNMA COLLEGE OF TECHNOLOGY
license=CC BY-NC-SA
exact mass=151.09971
ionization energy=70 eV
ion type=[M]+*
computed spectral entropy=2.9344892429040828
computed normalized entropy=0.8467146156559457
SPLASH=splash10-002f-9000000000-87fa8cd6f4c06539c036
submitter=submitter = University of Tokyo Team (Faculty of Engineering, University of Tokyo)
MoNA Rating=3.75

>  <NUM PEAKS>  (1149) 
32

>  <MASS SPECTRAL PEAKS>  (1149) 
25 8.41
26 23.16
27 42.73
29 52.67
30 30.14
31 44.64
33 21.72
36 1.11
37 7.06
38 12.04
39 20.44
40 31.14
41 12.32
42 27.95
43 99.99
45 14.89
51 14.28
53 2.51
54 2.58
55 7.02
58 14.43
62 2.4
63 6.29
65 14.1
66 1.78
70 1.13
75 2.32
79 2.53
89 4.58
91 36.52
105 1.55
118 1.82

$$$$

     RDKit          2D

  8  8  0  0  0  0  0  0  0  0999 V2000
   -2.5981   -0.4300    0.0000 C   0  0  0  0  0  0  0  0  0  0  0  0
   -1.2986   -1.1808    0.0000 C   0  0  0  0  0  0  0  0  0  0  0  0
   -2.5986    1.0708    0.0000 C   0  0  0  0  0  0  0  0  0  0  0  0
    0.0005   -0.4308    0.0000 C   0  0  0  0  0  0  0  0  0  0  0  0
   -1.2995    1.8208    0.0000 C   0  0  0  0  0  0  0  0  0  0  0  0
    1.2990    1.8200    0.0000 C   0  0  0  0  0  0  0  0  0  0  0  0
    0.0000    1.0700    0.0000 C   0  0  0  0  0  0  0  0  0  0  0  0
    2.5981    2.5700    0.0000 N   0  0  0  0  0  0  0  0  0  0  0  0
  2  1  2  0
  3  1  1  0
  4  2  1  0
  5  3  2  0
  7  4  2  0
  7  5  1  0
  7  6  1  0
  8  6  3  0
M  END
>  <NAME>  (1150) 
BENZONITRILE

>  <SYNONYMS>  (1150) 
CYANOBENZENE

>  <SPECTRUM TYPE>  (1150) 
MS1

>  <INSTRUMENT TYPE>  (1150) 
EI-B

>  <INSTRUMENT>  (1150) 
HITACHI M-80A

>  <ION MODE>  (1150) 
P

>  <INCHIKEY>  (1150) 
JFDZBHWFFUWGJE-UHFFFAOYSA-N

>  <FORMULA>  (1150) 
C7H5N

>  <EXACT MASS>  (1150) 
103.04219916

>  <MW>  (1150) 
103

>  <ID>  (1150) 
JP010475

>  <CONTRIBUTOR>  (1150) 
University of Tokyo Team, {Faculty of Engineering, University of Tokyo

>  <COMMENT>  (1150) 
SMILES=N#Cc(c1)cccc1
InChI=InChI=1S/C7H5N/c8-6-7-4-2-1-3-5-7/h1-5H
computed SMILES=N#CC=1C=CC=CC1
accession=JP010475
date=2016.01.19 (Created 2008.10.21, modified 2011.05.06)
author=TAJIMA S, GUNMA COLLEGE OF TECHNOLOGY
license=CC BY-NC-SA
exact mass=103.0422
ionization energy=70 eV
ion type=[M]+*
computed spectral entropy=2.810683365967966
computed normalized entropy=0.8038545081221359
SPLASH=splash10-0udi-9300000000-1a24ace18d57f2a6713b
submitter=submitter = University of Tokyo Team (Faculty of Engineering, University of Tokyo)
MoNA Rating=3.75

>  <NUM PEAKS>  (1150) 
33

>  <MASS SPECTRAL PEAKS>  (1150) 
25 1.93
26 13.16
27 9.02
28 2.79
36 2.14
37 15.32
38 14.38
39 17.13
40 2.01
42 1.32
43 13.32
48 1.53
49 8.85
50 41.97
51 27.23
52 12.61
53 1.43
58 2.01
60 1.17
61 4.31
62 4.78
63 8.97
64 4.59
73 3.52
74 10.41
75 18.8
76 44.07
77 8.39
88 1.44
99 1.26
102 1.77
103 99.99
104 8.73

$$$$

     RDKit          2D

  8  7  0  0  0  0  0  0  0  0999 V2000
   -1.2990    3.7500    0.0000 C   0  0  0  0  0  0  0  0  0  0  0  0
    0.0000    4.5000    0.0000 C   0  0  0  0  0  0  0  0  0  0  0  0
   -1.2990    2.2500    0.0000 C   0  0  0  0  0  0  0  0  0  0  0  0
    1.2990    3.7500    0.0000 C   0  0  0  0  0  0  0  0  0  0  0  0
   -2.5981    1.5000    0.0000 O   0  0  0  0  0  0  0  0  0  0  0  0
   -0.0000    1.5000    0.0000 O   0  0  0  0  0  0  0  0  0  0  0  0
    1.2990    2.2500    0.0000 O   0  0  0  0  0  0  0  0  0  0  0  0
    2.5981    4.5000    0.0000 O   0  0  0  0  0  0  0  0  0  0  0  0
  1  2  2  0
  3  1  1  0
  4  2  1  0
  5  3  2  0
  6  3  1  0
  7  4  2  0
  8  4  1  0
M  END
>  <NAME>  (1151) 
MALEIC ACID

>  <SYNONYMS>  (1151) 
CIS-BUTENEDIOIC ACID

>  <SPECTRUM TYPE>  (1151) 
MS1

>  <INSTRUMENT TYPE>  (1151) 
EI-B

>  <INSTRUMENT>  (1151) 
HITACHI M-80A

>  <ION MODE>  (1151) 
P

>  <INCHIKEY>  (1151) 
VZCYOOQTPOCHFL-UPHRSURJSA-N

>  <FORMULA>  (1151) 
C4H4O4

>  <EXACT MASS>  (1151) 
116.010958608

>  <MW>  (1151) 
116

>  <ID>  (1151) 
JP010474

>  <CONTRIBUTOR>  (1151) 
University of Tokyo Team, {Faculty of Engineering, University of Tokyo

>  <COMMENT>  (1151) 
SMILES=OC(=O)C=CC(O)=O
InChI=InChI=1S/C4H4O4/c5-3(6)1-2-4(7)8/h1-2H,(H,5,6)(H,7,8)/b2-1-
computed SMILES=O=C(O)C=CC(=O)O
accession=JP010474
date=2016.01.19 (Created 2008.10.21, modified 2011.05.06)
author=TAJIMA S, GUNMA COLLEGE OF TECHNOLOGY
license=CC BY-NC-SA
exact mass=116.01096
ionization energy=70 eV
ion type=[M]+*
computed spectral entropy=2.7517518530494853
computed normalized entropy=0.7870001150220208
SPLASH=splash10-004i-9000000000-617284552377852c7c46
submitter=submitter = University of Tokyo Team (Faculty of Engineering, University of Tokyo)
MoNA Rating=3.75

>  <NUM PEAKS>  (1151) 
33

>  <MASS SPECTRAL PEAKS>  (1151) 
24 3.37
25 18.76
26 99.99
27 65.15
28 17.2
29 20.49
36 1.75
37 3.34
40 1.78
41 5.83
42 8.53
43 11.11
44 22.48
45 87.06
46 17.51
52 3.63
53 31.07
54 38.87
55 36.05
56 1.34
69 2.67
70 2.33
71 15.62
72 92.9
73 3.36
81 1.28
82 1.32
88 1.12
98 6.09
99 17.89
100 1.04
116 1.42
117 1.78

$$$$

     RDKit          2D

  8  7  0  0  0  0  0  0  0  0999 V2000
   -2.5981    3.7500    0.0000 C   0  0  0  0  0  0  0  0  0  0  0  0
   -1.2990    4.5000    0.0000 C   0  0  0  0  0  0  0  0  0  0  0  0
   -3.8971    4.5000    0.0000 C   0  0  0  0  0  0  0  0  0  0  0  0
    0.0000    3.7500    0.0000 C   0  0  0  0  0  0  0  0  0  0  0  0
   -5.1962    3.7500    0.0000 C   0  0  0  0  0  0  0  0  0  0  0  0
    1.2990    4.5000    0.0000 C   0  0  0  0  0  0  0  0  0  0  0  0
   -6.4952    4.5000    0.0000 O   0  0  0  0  0  0  0  0  0  0  0  0
    2.5981    3.7500    0.0000 O   0  0  0  0  0  0  0  0  0  0  0  0
  2  1  1  0
  3  1  1  0
  4  2  1  0
  5  3  1  0
  6  4  1  0
  7  5  1  0
  8  6  1  0
M  END
>  <NAME>  (1152) 
1,6-HEXANEDIOL

>  <SYNONYMS>  (1152) 


>  <SPECTRUM TYPE>  (1152) 
MS1

>  <INSTRUMENT TYPE>  (1152) 
EI-B

>  <INSTRUMENT>  (1152) 
HITACHI M-80A

>  <ION MODE>  (1152) 
P

>  <INCHIKEY>  (1152) 
XXMIOPMDWAUFGU-UHFFFAOYSA-N

>  <FORMULA>  (1152) 
C6H14O2

>  <EXACT MASS>  (1152) 
118.099379688

>  <MW>  (1152) 
118

>  <ID>  (1152) 
JP010473

>  <CONTRIBUTOR>  (1152) 
University of Tokyo Team, {Faculty of Engineering, University of Tokyo

>  <COMMENT>  (1152) 
SMILES=OCCCCCCO
InChI=InChI=1S/C6H14O2/c7-5-3-1-2-4-6-8/h7-8H,1-6H2
computed SMILES=OCCCCCCO
accession=JP010473
date=2016.01.19 (Created 2008.10.21, modified 2011.05.06)
author=TAJIMA S, GUNMA COLLEGE OF TECHNOLOGY
license=CC BY-NC-SA
exact mass=118.09938
ionization energy=70 eV
ion type=[M]+*
computed spectral entropy=3.0638115856211616
computed normalized entropy=0.8362931708431635
SPLASH=splash10-000x-9000000000-2e6663efe3969a9014d8
submitter=submitter = University of Tokyo Team (Faculty of Engineering, University of Tokyo)
MoNA Rating=3.75

>  <NUM PEAKS>  (1152) 
39

>  <MASS SPECTRAL PEAKS>  (1152) 
15 4.05
19 3.2
26 2.73
27 29.9
28 3.88
29 38.99
30 2.74
31 99.99
38 1.35
39 22.08
40 4.62
41 78.42
42 72.02
43 31.8
44 18.91
45 11
49 5.86
51 1.34
53 6.01
54 31.1
55 45.65
56 13.5
57 39.19
58 4.2
59 1.47
62 1
67 53.08
68 8.32
69 17.68
70 26.27
71 10.79
72 7.04
81 7.83
82 19.28
83 15.82
84 1.15
88 2.15
101 1.77
119 1.32

$$$$

     RDKit          2D

 18 20  0  0  0  0  0  0  0  0999 V2000
    2.2728    1.6334    0.0000 C   0  0  0  0  0  0  0  0  0  0  0  0
   -2.9319   -1.3652    0.0000 C   0  0  0  0  0  0  0  0  0  0  0  0
    2.2733    3.1343    0.0000 C   0  0  0  0  0  0  0  0  0  0  0  0
    0.9733    0.8826    0.0000 C   0  0  0  0  0  0  0  0  0  0  0  0
   -1.6308   -0.6172    0.0000 C   0  0  0  0  0  0  0  0  0  0  0  0
   -4.2308   -0.6133    0.0000 C   0  0  0  0  0  0  0  0  0  0  0  0
   -2.9241    6.1278    0.0000 C   0  0  0  0  0  0  0  0  0  0  0  0
   -4.2199    5.3878    0.0000 C   0  0  0  0  0  0  0  0  0  0  0  0
    0.9742    3.8843    0.0000 C   0  0  0  0  0  0  0  0  0  0  0  0
   -0.3258    1.6326    0.0000 C   0  0  0  0  0  0  0  0  0  0  0  0
   -1.6285    0.8828    0.0000 C   0  0  0  0  0  0  0  0  0  0  0  0
   -4.2285    0.8867    0.0000 C   0  0  0  0  0  0  0  0  0  0  0  0
   -1.6264    5.3756    0.0000 C   0  0  0  0  0  0  0  0  0  0  0  0
   -4.2229    3.8869    0.0000 C   0  0  0  0  0  0  0  0  0  0  0  0
   -0.3253    3.1334    0.0000 C   0  0  0  0  0  0  0  0  0  0  0  0
   -2.9274    1.6348    0.0000 C   0  0  0  0  0  0  0  0  0  0  0  0
   -1.6243    3.8834    0.0000 C   0  0  0  0  0  0  0  0  0  0  0  0
   -2.9251    3.1348    0.0000 C   0  0  0  0  0  0  0  0  0  0  0  0
  3  1  2  0
  4  1  1  0
  5  2  2  0
  6  2  1  0
  8  7  2  0
  9  3  1  0
 10  4  2  0
 11  5  1  0
 12  6  2  0
 13  7  1  0
 14  8  1  0
 15  9  2  0
 15 10  1  0
 16 11  2  0
 16 12  1  0
 17 13  2  0
 17 15  1  0
 18 14  2  0
 18 16  1  0
 18 17  1  0
M  END
>  <NAME>  (1153) 
1,2-DIPHENYLBENZENE

>  <SYNONYMS>  (1153) 


>  <SPECTRUM TYPE>  (1153) 
MS1

>  <INSTRUMENT TYPE>  (1153) 
EI-B

>  <INSTRUMENT>  (1153) 
HITACHI M-80A

>  <ION MODE>  (1153) 
P

>  <INCHIKEY>  (1153) 
OIAQMFOKAXHPNH-UHFFFAOYSA-N

>  <FORMULA>  (1153) 
C18H14

>  <EXACT MASS>  (1153) 
230.109550448

>  <MW>  (1153) 
230

>  <ID>  (1153) 
JP010472

>  <CONTRIBUTOR>  (1153) 
University of Tokyo Team, {Faculty of Engineering, University of Tokyo

>  <COMMENT>  (1153) 
SMILES=c(c3)ccc(c3)c(c2)c(ccc2)c(c1)cccc1
InChI=InChI=1S/C18H14/c1-3-9-15(10-4-1)17-13-7-8-14-18(17)16-11-5-2-6-12-16/h1-14H
computed SMILES=C=1C=CC(=CC1)C=2C=CC=CC2C=3C=CC=CC3
accession=JP010472
date=2016.01.19 (Created 2008.10.21, modified 2011.05.06)
author=TAJIMA S, GUNMA COLLEGE OF TECHNOLOGY
license=CC BY-NC-SA
exact mass=230.10955
ionization energy=70 eV
ion type=[M]+*
computed spectral entropy=3.1047028112930213
computed normalized entropy=0.7783191847977212
SPLASH=splash10-003r-1190000000-f4753780c81afbdc349d
submitter=submitter = University of Tokyo Team (Faculty of Engineering, University of Tokyo)
MoNA Rating=3.75

>  <NUM PEAKS>  (1153) 
54

>  <MASS SPECTRAL PEAKS>  (1153) 
39 9.01
51 1.97
62 2.32
63 8.66
75 3.11
76 2.75
77 3.16
86 2.35
87 4.18
88 3.54
89 2.93
95 2.41
98 1.65
99 1.96
100 3.8
101 9.44
102 2.83
108 3.03
112 1.08
113 4.8
114 5.12
115 3.36
150 1.34
151 2.09
152 3.11
163 2.38
164 1.1
165 5.51
174 1.07
175 1.19
176 3.42
177 1.03
178 2.27
187 2.03
188 1.27
189 4.22
200 4.86
201 4.22
202 15.28
203 5.68
204 1.22
213 2.59
214 1.01
215 26.94
216 5.05
224 1.96
225 2.47
226 14.26
227 10.59
228 28.35
229 51.95
230 99.99
231 18.97
232 1.8

$$$$

     RDKit          2D

 11 11  0  0  0  0  0  0  0  0999 V2000
    3.0904    1.9652    0.0000 C   0  0  0  0  0  0  0  0  0  0  0  0
    3.0859    0.4731    0.0000 C   0  0  0  0  0  0  0  0  0  0  0  0
    1.7909    2.7161    0.0000 C   0  0  0  0  0  0  0  0  0  0  0  0
    1.7868   -0.2769    0.0000 C   0  0  0  0  0  0  0  0  0  0  0  0
    0.4918    1.9661    0.0000 C   0  0  0  0  0  0  0  0  0  0  0  0
    0.4923    0.4652    0.0000 C   0  0  0  0  0  0  0  0  0  0  0  0
   -0.8073    2.7159    0.0000 N   0  0  0  0  0  0  0  0  0  0  0  0
   -1.5577    1.0108    0.0000 O   0  0  0  0  0  0  0  0  0  0  0  0
   -2.1033   -1.0391    0.0000 O   0  0  0  0  0  0  0  0  0  0  0  0
   -0.0533   -1.5847    0.0000 O   0  0  0  0  0  0  0  0  0  0  0  0
   -0.8055   -0.2869    0.0000 S   0  0  0  0  0  0  0  0  0  0  0  0
  2  1  2  0
  3  1  1  0
  4  2  1  0
  5  3  2  0
  6  4  2  0
  6  5  1  0
  7  5  1  0
 11  6  1  0
 11  8  1  0
 11  9  2  0
 11 10  2  0
M  END
>  <NAME>  (1154) 
2-ANILINESULFONIC ACID

>  <SYNONYMS>  (1154) 


>  <SPECTRUM TYPE>  (1154) 
MS1

>  <INSTRUMENT TYPE>  (1154) 
EI-B

>  <INSTRUMENT>  (1154) 
HITACHI M-80A

>  <ION MODE>  (1154) 
P

>  <INCHIKEY>  (1154) 
ZMCHBSMFKQYNKA-UHFFFAOYSA-N

>  <FORMULA>  (1154) 
C6H7NO3S

>  <EXACT MASS>  (1154) 
173.01466408399997

>  <MW>  (1154) 
173

>  <ID>  (1154) 
JP010471

>  <CONTRIBUTOR>  (1154) 
University of Tokyo Team, {Faculty of Engineering, University of Tokyo

>  <COMMENT>  (1154) 
SMILES=Nc(c1)c(ccc1)S(O)(=O)=O
InChI=InChI=1S/C6H7NO3S/c7-5-3-1-2-4-6(5)11(8,9)10/h1-4H,7H2,(H,8,9,10)
computed SMILES=O=S(=O)(O)C=1C=CC=CC1N
accession=JP010471
date=2016.01.19 (Created 2008.10.21, modified 2011.05.06)
author=TAJIMA S, GUNMA COLLEGE OF TECHNOLOGY
license=CC BY-NC-SA
exact mass=173.01466
ionization energy=70 eV
ion type=[M]+*
computed spectral entropy=3.3809779746927937
computed normalized entropy=0.8192071445368877
SPLASH=splash10-00kf-9100000000-b4789c287093bcb14173
submitter=submitter = University of Tokyo Team (Faculty of Engineering, University of Tokyo)
MoNA Rating=3.75

>  <NUM PEAKS>  (1154) 
62

>  <MASS SPECTRAL PEAKS>  (1154) 
26 4.91
27 8.78
30 2.1
37 8.36
38 22.77
39 52.52
40 9.9
41 19.03
42 4.99
44 2.2
45 3.42
46 1.89
47 2.64
48 39.32
49 3.11
50 11.48
51 11.65
52 33.42
53 14.4
54 8.7
55 1.16
61 5.37
62 12.3
63 31.95
64 69.58
65 99.99
66 31.62
67 4.16
69 2.87
70 1.26
73 1.16
74 3.82
75 3.11
76 3.23
77 1.56
78 4.38
79 4.25
80 37.37
81 10.76
82 1.98
88 1.05
89 1.48
90 3.7
91 94.78
92 35.51
93 58.09
94 4.92
95 1.43
96 1.13
106 4.89
108 22.15
109 4.67
122 1.25
138 7.31
139 1.22
140 1.64
155 32.35
156 5.21
157 2.18
173 69.76
174 6.3
175 3.91

$$$$

     RDKit          2D

 15 15  0  0  0  0  0  0  0  0999 V2000
    1.3000   -0.0002    0.0000 C   0  0  0  0  0  0  0  0  0  0  0  0
   -1.3000   -0.0002    0.0000 C   0  0  0  0  0  0  0  0  0  0  0  0
    0.0000    2.2498    0.0000 C   0  0  0  0  0  0  0  0  0  0  0  0
    0.0000   -0.7502    0.0000 C   0  0  0  0  0  0  0  0  0  0  0  0
    1.3000    1.4998    0.0000 C   0  0  0  0  0  0  0  0  0  0  0  0
   -1.3000    1.4998    0.0000 C   0  0  0  0  0  0  0  0  0  0  0  0
   -0.0000   -2.2502    0.0000 C   0  0  0  0  0  0  0  0  0  0  0  0
    1.2990   -3.0002    0.0000 Cl  0  0  0  0  0  0  0  0  0  0  0  0
    2.5989    2.2500    0.0000 N   0  0  0  0  0  0  0  0  0  0  0  0
   -2.5989    2.2500    0.0000 N   0  0  0  0  0  0  0  0  0  0  0  0
   -1.2990   -3.0002    0.0000 O   0  0  0  0  0  0  0  0  0  0  0  0
    2.5987    3.7500    0.0000 O   0  0  0  0  0  0  0  0  0  0  0  0
    3.8981    1.5002    0.0000 O   0  0  0  0  0  0  0  0  0  0  0  0
   -3.8981    1.5002    0.0000 O   0  0  0  0  0  0  0  0  0  0  0  0
   -2.5987    3.7500    0.0000 O   0  0  0  0  0  0  0  0  0  0  0  0
  4  1  2  0
  4  2  1  0
  5  1  1  0
  5  3  2  0
  6  2  2  0
  6  3  1  0
  7  4  1  0
  8  7  1  0
  9  5  1  0
 10  6  1  0
 11  7  2  0
 12  9  1  0
 13  9  2  0
 14 10  1  0
 15 10  2  0
M  CHG  4   9   1  10   1  12  -1  14  -1
M  END
>  <NAME>  (1155) 
3,5-DINITROBENZOYL CHLORIDE

>  <SYNONYMS>  (1155) 


>  <SPECTRUM TYPE>  (1155) 
MS1

>  <INSTRUMENT TYPE>  (1155) 
EI-B

>  <INSTRUMENT>  (1155) 
HITACHI M-80A

>  <ION MODE>  (1155) 
P

>  <INCHIKEY>  (1155) 
NNOHXABAQAGKRZ-UHFFFAOYSA-N

>  <FORMULA>  (1155) 
C7H3ClN2O5

>  <EXACT MASS>  (1155) 
229.97304887599998

>  <MW>  (1155) 
230

>  <ID>  (1155) 
JP010470

>  <CONTRIBUTOR>  (1155) 
University of Tokyo Team, {Faculty of Engineering, University of Tokyo

>  <COMMENT>  (1155) 
SMILES=[O-1][N+1](=O)c(c1)cc(cc([N+1]([O-1])=O)1)C(=O)Cl
InChI=InChI=1S/C7H3ClN2O5/c8-7(11)4-1-5(9(12)13)3-6(2-4)10(14)15/h1-3H
computed SMILES=O=C(Cl)C=1C=C(C=C(C1)N(=O)=O)N(=O)=O
accession=JP010470
date=2016.01.19 (Created 2008.10.21, modified 2011.05.06)
author=TAJIMA S, GUNMA COLLEGE OF TECHNOLOGY
license=CC BY-NC-SA
exact mass=229.97305
ionization energy=70 eV
ion type=[M]+*
computed spectral entropy=2.465748553187668
computed normalized entropy=0.7114646419525971
SPLASH=splash10-002b-9700000000-0ce894eb3a3a064eb971
submitter=submitter = University of Tokyo Team (Faculty of Engineering, University of Tokyo)
MoNA Rating=3.75

>  <NUM PEAKS>  (1155) 
32

>  <MASS SPECTRAL PEAKS>  (1155) 
30 22.58
37 3.71
38 4.13
46 6.88
49 1.46
50 3.4
53 2.29
61 3.53
62 5.63
63 12.02
73 6.17
74 38.82
75 84.32
76 6.12
87 1.08
91 3.25
101 2.09
103 12.29
104 1.11
110 1.99
119 2.82
120 2.7
137 3.78
138 1.1
139 1.27
148 1.49
149 22.44
150 1.86
179 1.46
195 99.99
196 8.68
197 1.4

$$$$

     RDKit          2D

  9  8  0  0  0  0  0  0  0  0999 V2000
    0.9926    2.4721    0.0000 C   0  0  0  0  0  0  0  0  0  0  0  0
   -4.2035    2.4721    0.0000 C   0  0  0  0  0  0  0  0  0  0  0  0
   -4.0469    1.5836    0.0000 C   0  0  0  0  0  0  0  0  0  0  0  0
    0.8359    1.5836    0.0000 C   0  0  0  0  0  0  0  0  0  0  0  0
   -1.6055    2.4721    0.0000 C   0  0  0  0  0  0  0  0  0  0  0  0
   -0.3064    3.2221    0.0000 O   0  0  0  0  0  0  0  0  0  0  0  0
   -2.9045    3.2221    0.0000 O   0  0  0  0  0  0  0  0  0  0  0  0
   -2.5697    1.3231    0.0000 O   0  0  0  0  0  0  0  0  0  0  0  0
   -0.6413    1.3231    0.0000 O   0  0  0  0  0  0  0  0  0  0  0  0
  6  1  1  0
  6  5  1  0
  7  2  1  0
  7  5  1  0
  8  3  1  0
  8  5  1  0
  9  4  1  0
  9  5  1  0
M  END
>  <NAME>  (1156) 
TETRAMETHOXYMETHANE

>  <SYNONYMS>  (1156) 


>  <SPECTRUM TYPE>  (1156) 
MS1

>  <INSTRUMENT TYPE>  (1156) 
EI-B

>  <INSTRUMENT>  (1156) 
HITACHI M-80A

>  <ION MODE>  (1156) 
P

>  <INCHIKEY>  (1156) 
AHJWSRRHTXRLAQ-UHFFFAOYSA-N

>  <FORMULA>  (1156) 
C5H12O4

>  <EXACT MASS>  (1156) 
136.073558864

>  <MW>  (1156) 
136

>  <ID>  (1156) 
JP010469

>  <CONTRIBUTOR>  (1156) 
University of Tokyo Team, {Faculty of Engineering, University of Tokyo

>  <COMMENT>  (1156) 
SMILES=COC(OC)(OC)OC
InChI=InChI=1S/C5H12O4/c1-6-5(7-2,8-3)9-4/h1-4H3
computed SMILES=O(C)C(OC)(OC)OC
accession=JP010469
date=2016.01.19 (Created 2008.10.21, modified 2011.05.06)
author=TAJIMA S, GUNMA COLLEGE OF TECHNOLOGY
license=CC BY-NC-SA
exact mass=136.07356
ionization energy=70 eV
ion type=[M]+*
computed spectral entropy=2.0519189551040995
computed normalized entropy=0.757710826139391
SPLASH=splash10-0aor-9300000000-ca1acf85fe99054415c7
submitter=submitter = University of Tokyo Team (Faculty of Engineering, University of Tokyo)
MoNA Rating=3.75

>  <NUM PEAKS>  (1156) 
15

>  <MASS SPECTRAL PEAKS>  (1156) 
14 16.31
15 84.63
16 4.77
29 41.44
30 8.1
31 8.05
45 65.63
46 2.43
47 1.06
59 54.94
60 1.62
61 11.67
74 1.84
105 99.99
106 4.93

$$$$

     RDKit          2D

 15 17  0  0  0  0  0  0  0  0999 V2000
    3.9000   -0.9500    0.0000 C   0  0  0  0  0  0  0  0  0  0  0  0
   -3.9000   -0.9500    0.0000 C   0  0  0  0  0  0  0  0  0  0  0  0
    3.9000    0.5500    0.0000 C   0  0  0  0  0  0  0  0  0  0  0  0
   -3.9000    0.5500    0.0000 C   0  0  0  0  0  0  0  0  0  0  0  0
    2.6000   -1.7000    0.0000 C   0  0  0  0  0  0  0  0  0  0  0  0
   -2.6000   -1.7000    0.0000 C   0  0  0  0  0  0  0  0  0  0  0  0
    2.6000    1.3000    0.0000 C   0  0  0  0  0  0  0  0  0  0  0  0
   -2.6000    1.3000    0.0000 C   0  0  0  0  0  0  0  0  0  0  0  0
    0.0000   -1.7000    0.0000 C   0  0  0  0  0  0  0  0  0  0  0  0
    1.3000   -0.9500    0.0000 C   0  0  0  0  0  0  0  0  0  0  0  0
   -1.3000   -0.9500    0.0000 C   0  0  0  0  0  0  0  0  0  0  0  0
    1.3000    0.5500    0.0000 C   0  0  0  0  0  0  0  0  0  0  0  0
   -1.3000    0.5500    0.0000 C   0  0  0  0  0  0  0  0  0  0  0  0
    0.0000    1.3000    0.0000 C   0  0  0  0  0  0  0  0  0  0  0  0
    0.0000    2.8000    0.0000 O   0  0  0  0  0  0  0  0  0  0  0  0
  3  1  2  0
  4  2  2  0
  5  1  1  0
  6  2  1  0
  7  3  1  0
  8  4  1  0
 10  5  2  0
 10  9  1  0
 11  6  2  0
 11  9  1  0
 12  7  2  0
 12 10  1  0
 13  8  2  0
 13 11  1  0
 14 12  1  0
 14 13  1  0
 15 14  2  0
M  END
>  <NAME>  (1157) 
9(10H)-ANTHRACENONE

>  <SYNONYMS>  (1157) 
ANTHRONE

>  <SPECTRUM TYPE>  (1157) 
MS1

>  <INSTRUMENT TYPE>  (1157) 
EI-B

>  <INSTRUMENT>  (1157) 
HITACHI M-80A

>  <ION MODE>  (1157) 
P

>  <INCHIKEY>  (1157) 
RJGDLRCDCYRQOQ-UHFFFAOYSA-N

>  <FORMULA>  (1157) 
C14H10O

>  <EXACT MASS>  (1157) 
194.07316494

>  <MW>  (1157) 
194

>  <ID>  (1157) 
JP010468

>  <CONTRIBUTOR>  (1157) 
University of Tokyo Team, {Faculty of Engineering, University of Tokyo

>  <COMMENT>  (1157) 
SMILES=O=C(c21)c(c3)c(ccc3)Cc(cccc2)1
InChI=InChI=1S/C14H10O/c15-14-12-7-3-1-5-10(12)9-11-6-2-4-8-13(11)14/h1-8H,9H2
computed SMILES=O=C1C=2C=CC=CC2CC=3C=CC=CC13
accession=JP010468
date=2016.01.19 (Created 2008.10.21, modified 2011.05.06)
author=TAJIMA S, GUNMA COLLEGE OF TECHNOLOGY
license=CC BY-NC-SA
exact mass=194.07316
ionization energy=70 eV
ion type=[M]+*
computed spectral entropy=2.9760299701405426
computed normalized entropy=0.7607393836925648
SPLASH=splash10-00kf-4900000000-3c2f3289701d97cd8233
submitter=submitter = University of Tokyo Team (Faculty of Engineering, University of Tokyo)
MoNA Rating=3.75

>  <NUM PEAKS>  (1157) 
50

>  <MASS SPECTRAL PEAKS>  (1157) 
27 4.07
29 1.41
38 3.1
39 10.32
40 1.93
50 9.23
51 7.95
52 1.37
61 1.41
62 6.31
63 14.11
64 2.49
65 1.67
69 4.96
74 7.17
75 5.93
76 3.76
77 2.48
81 1.64
82 8.06
83 10.76
85 1.01
86 4.12
87 5.79
88 2.24
89 6.43
90 1.47
97 2.1
98 2.24
99 1.58
110 1.27
111 1.68
113 3.02
114 1.26
115 6
126 2.06
137 1.73
138 1.53
139 11.19
140 1.54
162 2.18
163 15.11
164 12.52
165 89.52
166 15.06
167 1.26
193 12.02
194 99.99
195 15.64
196 1.47

$$$$

     RDKit          2D

  8  8  0  0  0  0  0  0  0  0999 V2000
    1.9458   -1.5018    0.0000 C   0  0  0  0  0  0  0  0  0  0  0  0
    0.6513   -2.2440    0.0000 C   0  0  0  0  0  0  0  0  0  0  0  0
    1.9463   -0.0009    0.0000 C   0  0  0  0  0  0  0  0  0  0  0  0
   -0.6478   -1.4940    0.0000 C   0  0  0  0  0  0  0  0  0  0  0  0
    0.6472    0.7491    0.0000 C   0  0  0  0  0  0  0  0  0  0  0  0
   -0.6523   -0.0018    0.0000 C   0  0  0  0  0  0  0  0  0  0  0  0
    0.6470    2.2491    0.0000 N   0  0  0  0  0  0  0  0  0  0  0  0
   -1.9526    0.7460    0.0000 O   0  0  0  0  0  0  0  0  0  0  0  0
  2  1  2  0
  3  1  1  0
  4  2  1  0
  5  3  2  0
  6  4  2  0
  6  5  1  0
  7  5  1  0
  8  6  1  0
M  END
>  <NAME>  (1158) 
ORTHO-AMINOPHENOL

>  <SYNONYMS>  (1158) 
ORTHO-HYDROXYANILINE

>  <SPECTRUM TYPE>  (1158) 
MS1

>  <INSTRUMENT TYPE>  (1158) 
EI-B

>  <INSTRUMENT>  (1158) 
HITACHI M-80A

>  <ION MODE>  (1158) 
P

>  <INCHIKEY>  (1158) 
CDAWCLOXVUBKRW-UHFFFAOYSA-N

>  <FORMULA>  (1158) 
C6H7NO

>  <EXACT MASS>  (1158) 
109.052763844

>  <MW>  (1158) 
109

>  <ID>  (1158) 
JP010467

>  <CONTRIBUTOR>  (1158) 
University of Tokyo Team, {Faculty of Engineering, University of Tokyo

>  <COMMENT>  (1158) 
SMILES=Nc(c1)c(O)ccc1
InChI=InChI=1S/C6H7NO/c7-5-3-1-2-4-6(5)8/h1-4,8H,7H2
computed SMILES=OC=1C=CC=CC1N
accession=JP010467
date=2016.01.19 (Created 2008.10.21, modified 2011.05.06)
author=TAJIMA S, GUNMA COLLEGE OF TECHNOLOGY
license=CC BY-NC-SA
exact mass=109.05276
ionization energy=70 eV
ion type=[M]+*
computed spectral entropy=2.6616779653444707
computed normalized entropy=0.7547946237386461
SPLASH=splash10-0a59-9500000000-64a0083db1618cc2d030
submitter=submitter = University of Tokyo Team (Faculty of Engineering, University of Tokyo)
MoNA Rating=3.75

>  <NUM PEAKS>  (1158) 
34

>  <MASS SPECTRAL PEAKS>  (1158) 
26 3.52
27 8.37
28 9.88
29 3.73
30 1.25
37 2.38
38 5.21
39 9.63
40 3
41 4.83
42 2.69
49 1.37
50 5.5
51 7.13
52 12.47
53 16.25
54 7.98
55 2.66
61 1.01
62 1.86
63 7.97
64 7.65
65 3.17
66 1.33
76 1
78 1.69
79 1.55
80 51.86
81 6.1
91 1.91
92 1.63
108 7.23
109 99.99
110 12.37

$$$$

     RDKit          2D

 11 12  0  0  0  0  0  0  0  0999 V2000
   -2.7000    0.7500    0.0000 C   0  0  0  0  0  0  0  0  0  0  0  0
   -2.7000   -0.7500    0.0000 C   0  0  0  0  0  0  0  0  0  0  0  0
   -1.4000    1.5000    0.0000 C   0  0  0  0  0  0  0  0  0  0  0  0
   -1.4000   -1.5000    0.0000 C   0  0  0  0  0  0  0  0  0  0  0  0
   -0.1000    0.7500    0.0000 C   0  0  0  0  0  0  0  0  0  0  0  0
   -0.1000   -0.7500    0.0000 C   0  0  0  0  0  0  0  0  0  0  0  0
    1.3200    1.2100    0.0000 C   0  0  0  0  0  0  0  0  0  0  0  0
    1.3200   -1.2100    0.0000 C   0  0  0  0  0  0  0  0  0  0  0  0
    1.7838    2.6365    0.0000 O   0  0  0  0  0  0  0  0  0  0  0  0
    1.7838   -2.6365    0.0000 O   0  0  0  0  0  0  0  0  0  0  0  0
    2.2000    0.0000    0.0000 O   0  0  0  0  0  0  0  0  0  0  0  0
  2  1  2  0
  3  1  1  0
  4  2  1  0
  5  3  2  0
  6  4  2  0
  6  5  1  0
  7  5  1  0
  8  6  1  0
  9  7  2  0
 10  8  2  0
 11  7  1  0
 11  8  1  0
M  END
>  <NAME>  (1159) 
PHTHALIC ANHYDRIDE

>  <SYNONYMS>  (1159) 


>  <SPECTRUM TYPE>  (1159) 
MS1

>  <INSTRUMENT TYPE>  (1159) 
EI-B

>  <INSTRUMENT>  (1159) 
HITACHI M-80A

>  <ION MODE>  (1159) 
P

>  <INCHIKEY>  (1159) 
LGRFSURHDFAFJT-UHFFFAOYSA-N

>  <FORMULA>  (1159) 
C8H4O3

>  <EXACT MASS>  (1159) 
148.01604398799998

>  <MW>  (1159) 
148

>  <ID>  (1159) 
JP010466

>  <CONTRIBUTOR>  (1159) 
University of Tokyo Team, {Faculty of Engineering, University of Tokyo

>  <COMMENT>  (1159) 
SMILES=O=c(o1)c(c2)c(ccc2)c(=O)1
InChI=InChI=1S/C8H4O3/c9-7-5-3-1-2-4-6(5)8(10)11-7/h1-4H
computed SMILES=O=C1OC(=O)C=2C=CC=CC12
accession=JP010466
date=2016.01.19 (Created 2008.10.21, modified 2011.05.06)
author=TAJIMA S, GUNMA COLLEGE OF TECHNOLOGY
license=CC BY-NC-SA
exact mass=148.01604
ionization energy=70 eV
ion type=[M]+*
computed spectral entropy=2.50069348804686
computed normalized entropy=0.7282186388990305
SPLASH=splash10-0ufr-9400000000-0d538ca402ab68b3c933
submitter=submitter = University of Tokyo Team (Faculty of Engineering, University of Tokyo)
MoNA Rating=3.75

>  <NUM PEAKS>  (1159) 
31

>  <MASS SPECTRAL PEAKS>  (1159) 
25 1.05
26 3.75
27 2.23
29 1.5
36 1.59
37 14.8
38 17.05
39 4.18
44 1.85
45 1.75
48 1.06
49 8.31
50 59.23
51 4.8
52 4.37
53 3.37
60 1.03
61 3.52
62 2.02
63 1.77
65 1.83
73 6.8
74 25.11
75 14.58
76 89.78
77 11.06
104 99.99
105 10.95
122 2.98
148 15.38
149 2.54

$$$$

     RDKit          2D

 12 12  0  0  0  0  0  0  0  0999 V2000
    0.6489   -2.6180    0.0000 C   0  0  0  0  0  0  0  0  0  0  0  0
   -0.6501   -1.8680    0.0000 C   0  0  0  0  0  0  0  0  0  0  0  0
    1.9435   -1.8758    0.0000 C   0  0  0  0  0  0  0  0  0  0  0  0
    0.6449    0.3750    0.0000 C   0  0  0  0  0  0  0  0  0  0  0  0
   -0.6546   -0.3758    0.0000 C   0  0  0  0  0  0  0  0  0  0  0  0
    1.9439   -0.3750    0.0000 C   0  0  0  0  0  0  0  0  0  0  0  0
   -1.9549    0.3720    0.0000 C   0  0  0  0  0  0  0  0  0  0  0  0
    3.2431    0.3748    0.0000 C   0  0  0  0  0  0  0  0  0  0  0  0
   -1.9574    1.8720    0.0000 O   0  0  0  0  0  0  0  0  0  0  0  0
   -3.2527   -0.3801    0.0000 O   0  0  0  0  0  0  0  0  0  0  0  0
    3.2433    1.8748    0.0000 O   0  0  0  0  0  0  0  0  0  0  0  0
    4.5420   -0.3754    0.0000 O   0  0  0  0  0  0  0  0  0  0  0  0
  2  1  2  0
  3  1  1  0
  5  2  1  0
  5  4  2  0
  6  3  2  0
  6  4  1  0
  7  5  1  0
  8  6  1  0
  9  7  2  0
 10  7  1  0
 11  8  2  0
 12  8  1  0
M  END
>  <NAME>  (1160) 
ISOPHTHALIC ACID

>  <SYNONYMS>  (1160) 
1,3-BENZENEDICABOXYLIC ACID

>  <SPECTRUM TYPE>  (1160) 
MS1

>  <INSTRUMENT TYPE>  (1160) 
EI-B

>  <INSTRUMENT>  (1160) 
HITACHI M-80A

>  <ION MODE>  (1160) 
P

>  <INCHIKEY>  (1160) 
QQVIHTHCMHWDBS-UHFFFAOYSA-N

>  <FORMULA>  (1160) 
C8H6O4

>  <EXACT MASS>  (1160) 
166.026608672

>  <MW>  (1160) 
166

>  <ID>  (1160) 
JP010465

>  <CONTRIBUTOR>  (1160) 
University of Tokyo Team, {Faculty of Engineering, University of Tokyo

>  <COMMENT>  (1160) 
SMILES=OC(=O)c(c1)cc(cc1)C(O)=O
InChI=InChI=1S/C8H6O4/c9-7(10)5-2-1-3-6(4-5)8(11)12/h1-4H,(H,9,10)(H,11,12)
computed SMILES=O=C(O)C1=CC=CC(=C1)C(=O)O
accession=JP010465
date=2016.01.19 (Created 2008.10.21, modified 2011.05.06)
author=TAJIMA S, GUNMA COLLEGE OF TECHNOLOGY
license=CC BY-NC-SA
exact mass=166.02661
ionization energy=70 eV
ion type=[M]+*
computed spectral entropy=2.8837616799706196
computed normalized entropy=0.781744623493883
SPLASH=splash10-014j-9800000000-17177e329f5b005af1b8
submitter=submitter = University of Tokyo Team (Faculty of Engineering, University of Tokyo)
MoNA Rating=3.75

>  <NUM PEAKS>  (1160) 
40

>  <MASS SPECTRAL PEAKS>  (1160) 
26 1.22
27 3.64
29 2.12
37 4.42
38 7.31
39 20.24
40 1.17
45 20.08
49 2.82
50 29.29
51 19.27
52 3.83
53 5.53
61 1.38
62 1.96
63 4
64 2.27
65 52.13
66 5.52
73 3.49
74 18.27
75 16.65
76 20.94
77 12.54
78 1.43
79 1.53
92 2.59
93 5.24
103 2.94
104 3.1
105 3.62
121 28.85
122 2.87
138 1.28
149 99.99
150 9.16
151 1.01
166 85.52
167 10.64
168 1.29

$$$$

     RDKit          2D

 12 12  0  0  0  0  0  0  0  0999 V2000
   -1.6200   -1.3100    0.0000 C   0  0  0  0  0  0  0  0  0  0  0  0
   -0.3300   -2.0600    0.0000 C   0  0  0  0  0  0  0  0  0  0  0  0
   -1.6200    0.1900    0.0000 C   0  0  0  0  0  0  0  0  0  0  0  0
    0.9700   -1.3100    0.0000 C   0  0  0  0  0  0  0  0  0  0  0  0
   -0.3300    0.9400    0.0000 C   0  0  0  0  0  0  0  0  0  0  0  0
    0.9700    0.1900    0.0000 C   0  0  0  0  0  0  0  0  0  0  0  0
   -0.3325    2.4400    0.0000 C   0  0  0  0  0  0  0  0  0  0  0  0
    2.2689    0.9402    0.0000 C   0  0  0  0  0  0  0  0  0  0  0  0
    0.9653    3.1922    0.0000 O   0  0  0  0  0  0  0  0  0  0  0  0
   -1.6328    3.1878    0.0000 O   0  0  0  0  0  0  0  0  0  0  0  0
    2.2687    2.4402    0.0000 O   0  0  0  0  0  0  0  0  0  0  0  0
    3.5681    0.1904    0.0000 O   0  0  0  0  0  0  0  0  0  0  0  0
  2  1  2  0
  3  1  1  0
  4  2  1  0
  5  3  2  0
  6  4  2  0
  6  5  1  0
  7  5  1  0
  8  6  1  0
  9  7  2  0
 10  7  1  0
 11  8  2  0
 12  8  1  0
M  END
>  <NAME>  (1161) 
PHTHALIC ACID

>  <SYNONYMS>  (1161) 
1,2-BENZENEDICABOXYLIC ACID

>  <SPECTRUM TYPE>  (1161) 
MS1

>  <INSTRUMENT TYPE>  (1161) 
EI-B

>  <INSTRUMENT>  (1161) 
HITACHI M-80A

>  <ION MODE>  (1161) 
P

>  <INCHIKEY>  (1161) 
XNGIFLGASWRNHJ-UHFFFAOYSA-N

>  <FORMULA>  (1161) 
C8H6O4

>  <EXACT MASS>  (1161) 
166.026608672

>  <MW>  (1161) 
166

>  <ID>  (1161) 
JP010464

>  <CONTRIBUTOR>  (1161) 
University of Tokyo Team, {Faculty of Engineering, University of Tokyo

>  <COMMENT>  (1161) 
SMILES=OC(=O)c(c1)c(ccc1)C(O)=O
cas=88-99-3
InChI=InChI=1S/C8H6O4/c9-7(10)5-3-1-2-4-6(5)8(11)12/h1-4H,(H,9,10)(H,11,12)
computed SMILES=O=C(O)C=1C=CC=CC1C(=O)O
accession=JP010464
date=2016.01.19 (Created 2008.10.21, modified 2011.05.06)
author=TAJIMA S, GUNMA COLLEGE OF TECHNOLOGY
license=CC BY-NC-SA
exact mass=166.02661
ionization energy=70 eV
ion type=[M]+*
computed spectral entropy=3.163844355436875
computed normalized entropy=0.8360691882560172
SPLASH=splash10-0zor-9500000000-e5ec33e3312a4a87ea39
submitter=submitter = University of Tokyo Team (Faculty of Engineering, University of Tokyo)
MoNA Rating=3.75

>  <NUM PEAKS>  (1161) 
44

>  <MASS SPECTRAL PEAKS>  (1161) 
17 1.78
18 5.07
26 3.18
27 6.47
28 1.47
29 3.78
37 10.87
38 14.65
39 35.64
44 1.39
45 26.45
47 1.71
49 6.76
50 58.78
51 29.39
52 7.46
53 8.82
55 1.04
61 2.92
62 3.08
63 6.64
64 5.52
65 42.32
66 6.25
73 5.73
74 26.39
75 17.37
76 51.68
77 42.05
78 6.32
92 6.23
93 11.85
94 4.95
104 34.57
105 99.99
106 7.85
121 5.51
122 89.47
123 7.32
148 4.52
149 19.79
150 1.86
166 7.66
167 3.82

$$$$

     RDKit          2D

 18 19  0  0  0  0  0  0  0  0999 V2000
   -2.6000   -0.7500    0.0000 C   0  0  0  0  0  0  0  0  0  0  0  0
   -3.8989   -1.5002    0.0000 H   0  0  0  0  0  0  0  0  0  0  0  0
   -2.6000    0.7500    0.0000 C   0  0  0  0  0  0  0  0  0  0  0  0
   -3.8989    1.5002    0.0000 H   0  0  0  0  0  0  0  0  0  0  0  0
    2.6000   -0.7500    0.0000 C   0  0  0  0  0  0  0  0  0  0  0  0
    3.8989   -1.5002    0.0000 H   0  0  0  0  0  0  0  0  0  0  0  0
    2.6000    0.7500    0.0000 C   0  0  0  0  0  0  0  0  0  0  0  0
    3.8989    1.5002    0.0000 H   0  0  0  0  0  0  0  0  0  0  0  0
   -1.3000   -1.5000    0.0000 C   0  0  0  0  0  0  0  0  0  0  0  0
   -1.3000   -3.0000    0.0000 H   0  0  0  0  0  0  0  0  0  0  0  0
   -1.3000    1.5000    0.0000 C   0  0  0  0  0  0  0  0  0  0  0  0
   -1.3000    3.0000    0.0000 H   0  0  0  0  0  0  0  0  0  0  0  0
    1.3000   -1.5000    0.0000 C   0  0  0  0  0  0  0  0  0  0  0  0
    1.3000   -3.0000    0.0000 H   0  0  0  0  0  0  0  0  0  0  0  0
    1.3000    1.5000    0.0000 C   0  0  0  0  0  0  0  0  0  0  0  0
    1.3000    3.0000    0.0000 H   0  0  0  0  0  0  0  0  0  0  0  0
    0.0000   -0.7500    0.0000 C   0  0  0  0  0  0  0  0  0  0  0  0
    0.0000    0.7500    0.0000 C   0  0  0  0  0  0  0  0  0  0  0  0
  1  2  1  0
  3  4  1  0
  5  6  1  0
  7  8  1  0
  9 10  1  0
 11 12  1  0
 13 14  1  0
 15 16  1  0
  3  1  2  0
  7  5  1  0
  9  1  1  0
 11  3  1  0
 13  5  2  0
 15  7  2  0
 17  9  2  0
 17 13  1  0
 18 11  2  0
 18 15  1  0
 18 17  1  0
M  ISO  8   2   2   4   2   6   2   8   2  10   2  12   2  14   2  16   2
M  END
>  <NAME>  (1162) 
NAPHTHALENE (1,2,3,4,5,6,7,8-D8)

>  <SYNONYMS>  (1162) 


>  <SPECTRUM TYPE>  (1162) 
MS1

>  <INSTRUMENT TYPE>  (1162) 
EI-B

>  <INSTRUMENT>  (1162) 
HITACHI M-80A

>  <ION MODE>  (1162) 
P

>  <INCHIKEY>  (1162) 
UFWIBTONFRDIAS-PGRXLJNUSA-N

>  <FORMULA>  (1162) 
C10H8

>  <EXACT MASS>  (1162) 
136.112814224

>  <MW>  (1162) 
136

>  <ID>  (1162) 
JP010463

>  <CONTRIBUTOR>  (1162) 
University of Tokyo Team, {Faculty of Engineering, University of Tokyo

>  <COMMENT>  (1162) 
SMILES=[2H]c(c([2H])1)c([2H])c(c([2H])2)c(c([2H])c([2H])c([2H])2)c([2H])1
InChI=InChI=1S/C10H8/c1-2-6-10-8-4-3-7-9(10)5-1/h1-8H/i1D,2D,3D,4D,5D,6D,7D,8D
computed SMILES=[H]C=1C=2C(C([H])=C([H])C1[H])=C([H])C([H])=C([H])C2[H]
accession=JP010463
date=2016.01.19 (Created 2008.10.21, modified 2011.05.06)
author=TAJIMA S, GUNMA COLLEGE OF TECHNOLOGY
license=CC BY-NC-SA
exact mass=128.0626
ionization energy=70 eV
ion type=[M]+*
computed spectral entropy=1.075631891087733
computed normalized entropy=0.4671409948585619
SPLASH=splash10-000i-0900000000-7a87251d344c519a4335
submitter=submitter = University of Tokyo Team (Faculty of Engineering, University of Tokyo)
MoNA Rating=3.75

>  <NUM PEAKS>  (1162) 
10

>  <MASS SPECTRAL PEAKS>  (1162) 
42 1.53
54 1.18
66 1.48
108 3.96
132 1.88
134 3.53
135 10.78
136 99.99
137 10.94
138 1.45

$$$$

     RDKit          2D

  7  7  0  0  0  0  0  0  0  0999 V2000
   -1.6700   -0.9600    0.0000 C   0  0  0  0  0  0  0  0  0  0  0  0
   -1.6700    0.5400    0.0000 C   0  0  0  0  0  0  0  0  0  0  0  0
   -0.3700   -1.7100    0.0000 C   0  0  0  0  0  0  0  0  0  0  0  0
   -0.3700    1.2900    0.0000 C   0  0  0  0  0  0  0  0  0  0  0  0
    0.9300   -0.9600    0.0000 C   0  0  0  0  0  0  0  0  0  0  0  0
    0.9300    0.5400    0.0000 C   0  0  0  0  0  0  0  0  0  0  0  0
    2.2289    1.2902    0.0000 O   0  0  0  0  0  0  0  0  0  0  0  0
  2  1  1  0
  3  1  1  0
  4  2  2  0
  5  3  1  0
  6  4  1  0
  6  5  1  0
  7  6  1  0
M  END
>  <NAME>  (1163) 
2-CYCLOHEXEN-1-OL

>  <SYNONYMS>  (1163) 


>  <SPECTRUM TYPE>  (1163) 
MS1

>  <INSTRUMENT TYPE>  (1163) 
EI-B

>  <INSTRUMENT>  (1163) 
HITACHI M-80A

>  <ION MODE>  (1163) 
P

>  <INCHIKEY>  (1163) 
PQANGXXSEABURG-UHFFFAOYSA-N

>  <FORMULA>  (1163) 
C6H10O

>  <EXACT MASS>  (1163) 
98.07316494

>  <MW>  (1163) 
98

>  <ID>  (1163) 
JP010462

>  <CONTRIBUTOR>  (1163) 
University of Tokyo Team, {Faculty of Engineering, University of Tokyo

>  <COMMENT>  (1163) 
SMILES=OC(C1)C=CCC1
InChI=InChI=1S/C6H10O/c7-6-4-2-1-3-5-6/h2,4,6-7H,1,3,5H2
computed SMILES=OC1C=CCCC1
accession=JP010462
date=2016.01.19 (Created 2008.10.21, modified 2011.05.06)
author=TAJIMA S, GUNMA COLLEGE OF TECHNOLOGY
license=CC BY-NC-SA
exact mass=98.07316
ionization energy=70 eV
ion type=[M]+*
computed spectral entropy=3.195017593536277
computed normalized entropy=0.8393225304639637
SPLASH=splash10-00ea-9000000000-2e700514c37ba2d1aab9
submitter=submitter = University of Tokyo Team (Faculty of Engineering, University of Tokyo)
MoNA Rating=3.75

>  <NUM PEAKS>  (1163) 
45

>  <MASS SPECTRAL PEAKS>  (1163) 
15 3.63
18 2.2
26 4.27
27 18.66
28 1.7
29 13.11
31 4.15
37 1.64
38 3.92
39 26.06
40 5.05
41 23.59
42 16.66
43 15.07
44 4.09
50 4.33
51 6.57
52 3.96
53 6.77
54 8.43
55 24.96
56 4.78
57 11.83
58 1.16
63 1.36
65 2.81
66 1.49
67 7.07
68 3.17
69 21.69
70 99.99
71 5.44
77 8.77
78 3.01
79 25.42
80 26.39
81 26.76
82 3.52
83 42.62
84 2.4
86 1.18
96 1.02
97 35.12
98 53.81
99 4.82

$$$$

     RDKit          2D

 10 10  0  0  0  0  0  0  0  0999 V2000
   -3.5724    2.0075    0.0000 C   0  0  0  0  0  0  0  0  0  0  0  0
    2.9228   -0.2425    0.0000 C   0  0  0  0  0  0  0  0  0  0  0  0
    2.9233    1.2583    0.0000 C   0  0  0  0  0  0  0  0  0  0  0  0
    1.6233   -0.9933    0.0000 C   0  0  0  0  0  0  0  0  0  0  0  0
    1.6243    2.0083    0.0000 C   0  0  0  0  0  0  0  0  0  0  0  0
    0.3243   -0.2433    0.0000 C   0  0  0  0  0  0  0  0  0  0  0  0
    0.3248    1.2575    0.0000 C   0  0  0  0  0  0  0  0  0  0  0  0
   -0.9743    2.0075    0.0000 C   0  0  0  0  0  0  0  0  0  0  0  0
   -0.9743    3.5075    0.0000 O   0  0  0  0  0  0  0  0  0  0  0  0
   -2.2733    1.2575    0.0000 O   0  0  0  0  0  0  0  0  0  0  0  0
  3  2  2  0
  4  2  1  0
  5  3  1  0
  6  4  1  0
  7  5  1  0
  7  6  1  0
  8  7  1  0
  9  8  2  0
 10  1  1  0
 10  8  1  0
M  END
>  <NAME>  (1164) 
3-CYCLOHEXENE-1-CARBOXYLIC ACID METHYL ESTER

>  <SYNONYMS>  (1164) 


>  <SPECTRUM TYPE>  (1164) 
MS1

>  <INSTRUMENT TYPE>  (1164) 
EI-B

>  <INSTRUMENT>  (1164) 
HITACHI M-80A

>  <ION MODE>  (1164) 
P

>  <INCHIKEY>  (1164) 
IPUNVLFESXFVFH-UHFFFAOYSA-N

>  <FORMULA>  (1164) 
C8H12O2

>  <EXACT MASS>  (1164) 
140.083729624

>  <MW>  (1164) 
140

>  <ID>  (1164) 
JP010461

>  <CONTRIBUTOR>  (1164) 
University of Tokyo Team, {Faculty of Engineering, University of Tokyo

>  <COMMENT>  (1164) 
SMILES=COC(=O)C(C1)CC=CC1
InChI=InChI=1S/C8H12O2/c1-10-8(9)7-5-3-2-4-6-7/h2-3,7H,4-6H2,1H3
computed SMILES=O=C(OC)C1CC=CCC1
accession=JP010461
date=2016.01.19 (Created 2008.10.21, modified 2011.05.06)
author=TAJIMA S, GUNMA COLLEGE OF TECHNOLOGY
license=CC BY-NC-SA
exact mass=140.08373
ionization energy=70 eV
ion type=[M]+*
computed spectral entropy=2.8577741410679263
computed normalized entropy=0.7551878783909947
SPLASH=splash10-001i-9200000000-658c24ea66d321ca4c90
submitter=submitter = University of Tokyo Team (Faculty of Engineering, University of Tokyo)
MoNA Rating=3.75

>  <NUM PEAKS>  (1164) 
44

>  <MASS SPECTRAL PEAKS>  (1164) 
15 10.53
27 11.92
29 5.26
30 1
31 1.75
38 1.37
39 14.35
40 1.82
41 12.73
42 1.01
43 2.72
45 1.07
50 2.44
51 5.06
52 3.21
53 12.71
54 11.58
55 6.67
59 5.69
61 1.07
65 2.78
66 3.72
67 3.99
68 1.31
69 1.16
74 1.58
77 8.36
78 2.74
79 34.53
80 99.99
81 84.93
82 5.8
83 1.43
97 2.29
98 1.32
107 1.41
108 47.93
109 17.61
110 1.38
111 3.74
112 1.07
125 1.99
140 27.21
141 9.32

$$$$

     RDKit          2D

 11 11  0  0  0  0  0  0  0  0999 V2000
    3.8980    2.2543    0.0000 C   0  0  0  0  0  0  0  0  0  0  0  0
   -1.3199    2.2329    0.0000 C   0  0  0  0  0  0  0  0  0  0  0  0
   -0.0499   -0.0171    0.0000 C   0  0  0  0  0  0  0  0  0  0  0  0
   -0.0499    2.9829    0.0000 C   0  0  0  0  0  0  0  0  0  0  0  0
    1.3001    0.7329    0.0000 C   0  0  0  0  0  0  0  0  0  0  0  0
   -1.3199    0.7329    0.0000 C   0  0  0  0  0  0  0  0  0  0  0  0
    1.3001    2.2329    0.0000 C   0  0  0  0  0  0  0  0  0  0  0  0
   -2.6227   -0.0107    0.0000 C   0  0  0  0  0  0  0  0  0  0  0  0
   -2.6300   -1.5107    0.0000 F   0  0  0  0  0  0  0  0  0  0  0  0
   -3.9180    0.7457    0.0000 O   0  0  0  0  0  0  0  0  0  0  0  0
    2.5929    2.9936    0.0000 O   0  0  0  0  0  0  0  0  0  0  0  0
  4  2  2  0
  5  3  1  0
  6  2  1  0
  6  3  2  0
  7  4  1  0
  7  5  2  0
  8  6  1  0
  9  8  1  0
 10  8  2  0
 11  1  1  0
 11  7  1  0
M  END
>  <NAME>  (1165) 
PARA-ANISOYL FLUORIDE

>  <SYNONYMS>  (1165) 
4-METHOXYBENZOYL FLUORIDE

>  <SPECTRUM TYPE>  (1165) 
MS1

>  <INSTRUMENT TYPE>  (1165) 
EI-B

>  <INSTRUMENT>  (1165) 
HITACHI M-80A

>  <ION MODE>  (1165) 
P

>  <INCHIKEY>  (1165) 
YVFLMEGQPCRTTO-UHFFFAOYSA-N

>  <FORMULA>  (1165) 
C8H7FO2

>  <EXACT MASS>  (1165) 
154.043007684

>  <MW>  (1165) 
154

>  <ID>  (1165) 
JP010460

>  <CONTRIBUTOR>  (1165) 
University of Tokyo Team, {Faculty of Engineering, University of Tokyo

>  <COMMENT>  (1165) 
SMILES=COc(c1)ccc(c1)C(=O)F
InChI=InChI=1S/C8H7FO2/c1-11-7-4-2-6(3-5-7)8(9)10/h2-5H,1H3
computed SMILES=O=C(F)C1=CC=C(OC)C=C1
accession=JP010460
date=2016.01.19 (Created 2008.10.21, modified 2011.05.06)
author=TAJIMA S, GUNMA COLLEGE OF TECHNOLOGY
license=CC BY-NC-SA
exact mass=154.04301
ionization energy=70 eV
ion type=[M]+*
computed spectral entropy=3.4263806278666435
computed normalized entropy=0.8238703900035367
SPLASH=splash10-0w59-9600000000-ec140d284f8dd3de0450
submitter=submitter = University of Tokyo Team (Faculty of Engineering, University of Tokyo)
MoNA Rating=3.75

>  <NUM PEAKS>  (1165) 
64

>  <MASS SPECTRAL PEAKS>  (1165) 
27 1.39
29 6.8
31 2.86
37 4.85
38 10.55
39 6.04
40 3.88
41 1.14
47 2.89
49 2.21
50 16.75
51 7.78
52 1.52
53 4.8
56 2.19
57 23.38
58 1.14
61 5.9
62 14.61
63 31.28
64 13.44
65 2.3
66 2.08
68 2.2
69 4.47
70 1.89
73 4.53
74 12.89
75 22.02
76 7.17
77 16.69
78 3.37
79 3.57
81 4.44
82 4.82
83 66.96
84 4.6
92 12.78
94 1.99
95 12.46
96 21.18
97 7.37
98 1.43
104 2.1
105 6.07
106 3.48
107 7.17
111 48.3
112 3.85
119 1.19
120 1.19
123 9.73
124 2.17
125 1.26
126 53.09
127 4.42
135 27.38
136 2.6
139 1.09
152 1.24
153 3.2
154 99.99
155 10
156 1.23

$$$$

     RDKit          2D

  9  9  0  0  0  0  0  0  0  0999 V2000
   -2.5989   -0.7504    0.0000 C   0  0  0  0  0  0  0  0  0  0  0  0
    2.5992   -0.7500    0.0000 C   0  0  0  0  0  0  0  0  0  0  0  0
    1.2992    1.5000    0.0000 C   0  0  0  0  0  0  0  0  0  0  0  0
    1.2992   -1.5000    0.0000 C   0  0  0  0  0  0  0  0  0  0  0  0
   -0.0008    0.7500    0.0000 C   0  0  0  0  0  0  0  0  0  0  0  0
    2.5992    0.7500    0.0000 C   0  0  0  0  0  0  0  0  0  0  0  0
   -0.0008   -0.7500    0.0000 C   0  0  0  0  0  0  0  0  0  0  0  0
    3.8981    1.5002    0.0000 F   0  0  0  0  0  0  0  0  0  0  0  0
   -1.2998   -1.5002    0.0000 O   0  0  0  0  0  0  0  0  0  0  0  0
  4  2  2  0
  5  3  1  0
  6  2  1  0
  6  3  2  0
  7  4  1  0
  7  5  2  0
  8  6  1  0
  9  1  1  0
  9  7  1  0
M  END
>  <NAME>  (1166) 
PARA-FLUOROANISOLE

>  <SYNONYMS>  (1166) 


>  <SPECTRUM TYPE>  (1166) 
MS1

>  <INSTRUMENT TYPE>  (1166) 
EI-B

>  <INSTRUMENT>  (1166) 
HITACHI M-80A

>  <ION MODE>  (1166) 
P

>  <INCHIKEY>  (1166) 
VIPWUFMFHBIKQI-UHFFFAOYSA-N

>  <FORMULA>  (1166) 
C7H7FO

>  <EXACT MASS>  (1166) 
126.048093064

>  <MW>  (1166) 
126

>  <ID>  (1166) 
JP010459

>  <CONTRIBUTOR>  (1166) 
University of Tokyo Team, {Faculty of Engineering, University of Tokyo

>  <COMMENT>  (1166) 
SMILES=COc(c1)ccc(F)c1
InChI=InChI=1S/C7H7FO/c1-9-7-4-2-6(8)3-5-7/h2-5H,1H3
computed SMILES=FC1=CC=C(OC)C=C1
accession=JP010459
date=2016.01.19 (Created 2008.10.21, modified 2011.05.06)
author=TAJIMA S, GUNMA COLLEGE OF TECHNOLOGY
license=CC BY-NC-SA
exact mass=126.04809
ionization energy=70 eV
ion type=[M]+*
computed spectral entropy=2.6360414043181577
computed normalized entropy=0.7145913649681273
SPLASH=splash10-0059-9600000000-8ab968303968b5f29e86
submitter=submitter = University of Tokyo Team (Faculty of Engineering, University of Tokyo)
MoNA Rating=3.75

>  <NUM PEAKS>  (1166) 
40

>  <MASS SPECTRAL PEAKS>  (1166) 
15 4.95
26 1.09
29 3.17
31 4.45
37 2.11
38 3
39 3.91
43 1.98
49 1.07
50 6.39
51 3.63
53 1.11
56 3.38
57 21.84
58 1.28
61 2.58
62 3.56
63 6.85
64 1.35
68 2.09
69 3.34
70 1.51
73 1.15
74 3.69
75 10.81
76 1.05
77 1.35
81 5.08
82 4.06
83 75.89
84 4.4
94 1.42
95 9.56
96 10.13
97 3.96
110 1.41
111 54.3
112 3.96
126 99.99
127 7.79

$$$$

     RDKit          2D

  9  9  0  0  0  0  0  0  0  0999 V2000
    3.8971   -1.4998    0.0000 C   0  0  0  0  0  0  0  0  0  0  0  0
    0.0005   -3.7506    0.0000 C   0  0  0  0  0  0  0  0  0  0  0  0
   -1.2990   -2.9998    0.0000 C   0  0  0  0  0  0  0  0  0  0  0  0
    1.2995   -3.0006    0.0000 C   0  0  0  0  0  0  0  0  0  0  0  0
   -0.0005   -0.7490    0.0000 C   0  0  0  0  0  0  0  0  0  0  0  0
   -1.2995   -1.4990    0.0000 C   0  0  0  0  0  0  0  0  0  0  0  0
    1.2990   -1.4998    0.0000 C   0  0  0  0  0  0  0  0  0  0  0  0
   -2.5987   -0.7492    0.0000 F   0  0  0  0  0  0  0  0  0  0  0  0
    2.5981   -0.7498    0.0000 O   0  0  0  0  0  0  0  0  0  0  0  0
  3  2  2  0
  4  2  1  0
  6  3  1  0
  6  5  2  0
  7  4  2  0
  7  5  1  0
  8  6  1  0
  9  1  1  0
  9  7  1  0
M  END
>  <NAME>  (1167) 
META-FLUOROANISOLE

>  <SYNONYMS>  (1167) 


>  <SPECTRUM TYPE>  (1167) 
MS1

>  <INSTRUMENT TYPE>  (1167) 
EI-B

>  <INSTRUMENT>  (1167) 
HITACHI M-80A

>  <ION MODE>  (1167) 
P

>  <INCHIKEY>  (1167) 
MFJNOXOAIFNSBX-UHFFFAOYSA-N

>  <FORMULA>  (1167) 
C7H7FO

>  <EXACT MASS>  (1167) 
126.048093064

>  <MW>  (1167) 
126

>  <ID>  (1167) 
JP010458

>  <CONTRIBUTOR>  (1167) 
University of Tokyo Team, {Faculty of Engineering, University of Tokyo

>  <COMMENT>  (1167) 
SMILES=COc(c1)cc(F)cc1
InChI=InChI=1S/C7H7FO/c1-9-7-4-2-3-6(8)5-7/h2-5H,1H3
computed SMILES=FC1=CC=CC(OC)=C1
accession=JP010458
date=2016.01.19 (Created 2008.10.21, modified 2011.05.06)
author=TAJIMA S, GUNMA COLLEGE OF TECHNOLOGY
license=CC BY-NC-SA
exact mass=126.04809
ionization energy=70 eV
ion type=[M]+*
computed spectral entropy=2.436152211232567
computed normalized entropy=0.6908403704688527
SPLASH=splash10-004j-9600000000-19f6ca9742420c9f94a3
submitter=submitter = University of Tokyo Team (Faculty of Engineering, University of Tokyo)
MoNA Rating=3.75

>  <NUM PEAKS>  (1167) 
34

>  <MASS SPECTRAL PEAKS>  (1167) 
15 3.72
26 1.41
29 2.81
31 1.91
37 1.27
38 2.07
39 3.06
50 3.54
51 2.1
56 1.06
57 11.32
61 1.16
62 1.67
63 4.15
64 1.22
68 1.1
69 1.66
70 2.33
74 1.76
75 5.93
77 1.8
81 2.54
82 1.86
83 33.28
84 2.69
95 7.35
96 42.35
97 11.9
98 1.28
111 3.32
112 3.3
125 1.89
126 99.99
127 8.9

$$$$

     RDKit          2D

  9  9  0  0  0  0  0  0  0  0999 V2000
    3.8981   -0.7504    0.0000 C   0  0  0  0  0  0  0  0  0  0  0  0
   -1.3000    0.7500    0.0000 C   0  0  0  0  0  0  0  0  0  0  0  0
    0.0000    1.5000    0.0000 C   0  0  0  0  0  0  0  0  0  0  0  0
   -1.3000   -0.7500    0.0000 C   0  0  0  0  0  0  0  0  0  0  0  0
    1.3000    0.7500    0.0000 C   0  0  0  0  0  0  0  0  0  0  0  0
    0.0000   -1.5000    0.0000 C   0  0  0  0  0  0  0  0  0  0  0  0
    1.3000   -0.7500    0.0000 C   0  0  0  0  0  0  0  0  0  0  0  0
   -0.0000   -3.0000    0.0000 F   0  0  0  0  0  0  0  0  0  0  0  0
    2.5989   -1.5002    0.0000 O   0  0  0  0  0  0  0  0  0  0  0  0
  3  2  2  0
  4  2  1  0
  5  3  1  0
  6  4  2  0
  7  5  2  0
  7  6  1  0
  8  6  1  0
  9  1  1  0
  9  7  1  0
M  END
>  <NAME>  (1168) 
ORTHO-FLUOROANISOLE

>  <SYNONYMS>  (1168) 


>  <SPECTRUM TYPE>  (1168) 
MS1

>  <INSTRUMENT TYPE>  (1168) 
EI-B

>  <INSTRUMENT>  (1168) 
HITACHI M-80A

>  <ION MODE>  (1168) 
P

>  <INCHIKEY>  (1168) 
JIXDOBAQOWOUPA-UHFFFAOYSA-N

>  <FORMULA>  (1168) 
C7H7FO

>  <EXACT MASS>  (1168) 
126.048093064

>  <MW>  (1168) 
126

>  <ID>  (1168) 
JP010457

>  <CONTRIBUTOR>  (1168) 
University of Tokyo Team, {Faculty of Engineering, University of Tokyo

>  <COMMENT>  (1168) 
SMILES=COc(c1)c(F)ccc1
InChI=InChI=1S/C7H7FO/c1-9-7-5-3-2-4-6(7)8/h2-5H,1H3
computed SMILES=FC=1C=CC=CC1OC
accession=JP010457
date=2016.01.19 (Created 2008.10.21, modified 2011.05.06)
author=TAJIMA S, GUNMA COLLEGE OF TECHNOLOGY
license=CC BY-NC-SA
exact mass=126.04809
ionization energy=70 eV
ion type=[M]+*
computed spectral entropy=2.684665416315382
computed normalized entropy=0.7182725308793856
SPLASH=splash10-0059-9600000000-350136586061a3e0d298
submitter=submitter = University of Tokyo Team (Faculty of Engineering, University of Tokyo)
MoNA Rating=3.75

>  <NUM PEAKS>  (1168) 
42

>  <MASS SPECTRAL PEAKS>  (1168) 
15 5.33
26 1.02
27 1.03
29 3.2
31 3.64
37 2.26
38 3.41
39 5.28
43 2.7
49 1.05
50 5.88
51 4.18
53 1.21
56 2.85
57 21.92
58 1.49
61 2.1
62 2.8
63 6.33
64 2.06
68 2.33
69 3.23
70 1.42
74 3.21
75 9.82
76 1.22
77 2.35
78 1.06
81 5.02
82 3.41
83 72.52
84 4.19
92 1.39
94 1.28
95 7.13
96 8.26
97 6.41
111 45.81
112 3.32
125 1.33
126 99.99
127 7.93

$$$$

     RDKit          2D

 11 11  0  0  0  0  0  0  0  0999 V2000
    3.8980    2.2543    0.0000 C   0  0  0  0  0  0  0  0  0  0  0  0
   -1.3199    2.2329    0.0000 C   0  0  0  0  0  0  0  0  0  0  0  0
   -0.0499   -0.0171    0.0000 C   0  0  0  0  0  0  0  0  0  0  0  0
   -0.0499    2.9829    0.0000 C   0  0  0  0  0  0  0  0  0  0  0  0
    1.3001    0.7329    0.0000 C   0  0  0  0  0  0  0  0  0  0  0  0
   -1.3199    0.7329    0.0000 C   0  0  0  0  0  0  0  0  0  0  0  0
    1.3001    2.2329    0.0000 C   0  0  0  0  0  0  0  0  0  0  0  0
   -2.6227   -0.0107    0.0000 C   0  0  0  0  0  0  0  0  0  0  0  0
   -2.6300   -1.5107    0.0000 Cl  0  0  0  0  0  0  0  0  0  0  0  0
   -3.9180    0.7457    0.0000 O   0  0  0  0  0  0  0  0  0  0  0  0
    2.5929    2.9936    0.0000 O   0  0  0  0  0  0  0  0  0  0  0  0
  4  2  2  0
  5  3  1  0
  6  2  1  0
  6  3  2  0
  7  4  1  0
  7  5  2  0
  8  6  1  0
  9  8  1  0
 10  8  2  0
 11  1  1  0
 11  7  1  0
M  END
>  <NAME>  (1169) 
PARA-METHOXYBENZOYL CHLORIDE

>  <SYNONYMS>  (1169) 
PARA-ANISOYL CHLORIDE

>  <SPECTRUM TYPE>  (1169) 
MS1

>  <INSTRUMENT TYPE>  (1169) 
EI-B

>  <INSTRUMENT>  (1169) 
HITACHI M-80A

>  <ION MODE>  (1169) 
P

>  <INCHIKEY>  (1169) 
MXMOTZIXVICDSD-UHFFFAOYSA-N

>  <FORMULA>  (1169) 
C8H7ClO2

>  <EXACT MASS>  (1169) 
170.013457144

>  <MW>  (1169) 
170

>  <ID>  (1169) 
JP010456

>  <CONTRIBUTOR>  (1169) 
University of Tokyo Team, {Faculty of Engineering, University of Tokyo

>  <COMMENT>  (1169) 
SMILES=COc(c1)ccc(c1)C(=O)Cl
InChI=InChI=1S/C8H7ClO2/c1-11-7-4-2-6(3-5-7)8(9)10/h2-5H,1H3
computed SMILES=O=C(Cl)C1=CC=C(OC)C=C1
accession=JP010456
date=2016.01.19 (Created 2008.10.21, modified 2011.05.06)
author=TAJIMA S, GUNMA COLLEGE OF TECHNOLOGY
license=CC BY-NC-SA
exact mass=170.01346
ionization energy=70 eV
ion type=[M]+*
computed spectral entropy=2.882874334149192
computed normalized entropy=0.7763076311341557
SPLASH=splash10-000i-9700000000-96a35c922da44dbb3578
submitter=submitter = University of Tokyo Team (Faculty of Engineering, University of Tokyo)
MoNA Rating=3.75

>  <NUM PEAKS>  (1169) 
41

>  <MASS SPECTRAL PEAKS>  (1169) 
35 3.12
36 15.73
37 2.82
38 8.31
39 2.22
40 2.31
44 2.23
45 1.54
50 8.95
51 4.56
52 1.56
53 3.04
61 3.31
62 5.36
63 15.77
64 14.99
65 2.51
73 2.05
74 5.26
75 4.88
76 4.58
77 26.81
78 3.24
79 2.73
83 1.25
91 2.74
92 24.1
93 2.11
99 1.49
105 1.63
107 10.89
111 1.18
120 2.46
121 1.51
122 3.97
127 1.16
135 99.99
136 9.4
154 2.21
170 9.14
172 3.11

$$$$

     RDKit          2D

 14 16  0  0  0  0  0  0  0  0999 V2000
    3.9000   -0.7500    0.0000 C   0  0  0  0  0  0  0  0  0  0  0  0
    3.9000    0.7500    0.0000 C   0  0  0  0  0  0  0  0  0  0  0  0
   -3.9000   -0.7500    0.0000 C   0  0  0  0  0  0  0  0  0  0  0  0
   -3.9000    0.7500    0.0000 C   0  0  0  0  0  0  0  0  0  0  0  0
    2.6000   -1.5000    0.0000 C   0  0  0  0  0  0  0  0  0  0  0  0
    2.6000    1.5000    0.0000 C   0  0  0  0  0  0  0  0  0  0  0  0
   -2.6000   -1.5000    0.0000 C   0  0  0  0  0  0  0  0  0  0  0  0
   -2.6000    1.5000    0.0000 C   0  0  0  0  0  0  0  0  0  0  0  0
   -0.0000   -1.5000    0.0000 C   0  0  0  0  0  0  0  0  0  0  0  0
   -0.0000    1.5000    0.0000 C   0  0  0  0  0  0  0  0  0  0  0  0
    1.3000   -0.7500    0.0000 C   0  0  0  0  0  0  0  0  0  0  0  0
    1.3000    0.7500    0.0000 C   0  0  0  0  0  0  0  0  0  0  0  0
   -1.3000   -0.7500    0.0000 C   0  0  0  0  0  0  0  0  0  0  0  0
   -1.3000    0.7500    0.0000 C   0  0  0  0  0  0  0  0  0  0  0  0
  2  1  2  0
  4  3  1  0
  5  1  1  0
  6  2  1  0
  7  3  2  0
  8  4  2  0
 11  5  2  0
 11  9  1  0
 12  6  2  0
 12 10  1  0
 12 11  1  0
 13  7  1  0
 13  9  2  0
 14  8  1  0
 14 10  2  0
 14 13  1  0
M  END
>  <NAME>  (1170) 
ANTHRACENE

>  <SYNONYMS>  (1170) 


>  <SPECTRUM TYPE>  (1170) 
MS1

>  <INSTRUMENT TYPE>  (1170) 
EI-B

>  <INSTRUMENT>  (1170) 
HITACHI M-80A

>  <ION MODE>  (1170) 
P

>  <INCHIKEY>  (1170) 
MWPLVEDNUUSJAV-UHFFFAOYSA-N

>  <FORMULA>  (1170) 
C14H10

>  <EXACT MASS>  (1170) 
178.07825032

>  <MW>  (1170) 
178

>  <ID>  (1170) 
JP010455

>  <CONTRIBUTOR>  (1170) 
University of Tokyo Team, {Faculty of Engineering, University of Tokyo

>  <COMMENT>  (1170) 
SMILES=c(c3)cc(c1)c(c3)cc(c2)c(ccc2)1
cas=120-12-7
InChI=InChI=1S/C14H10/c1-2-6-12-10-14-8-4-3-7-13(14)9-11(12)5-1/h1-10H
computed SMILES=C=1C=CC=2C=C3C=CC=CC3=CC2C1
accession=JP010455
date=2016.01.19 (Created 2008.10.21, modified 2011.05.06)
author=TAJIMA S, GUNMA COLLEGE OF TECHNOLOGY
license=CC BY-NC-SA
exact mass=178.07825
ionization energy=70 eV
ion type=[M]+*
computed spectral entropy=0.8616825832226689
computed normalized entropy=0.3742239910457446
SPLASH=splash10-004i-0900000000-2aa9bcc4f0117fe9bd96
submitter=submitter = University of Tokyo Team (Faculty of Engineering, University of Tokyo)
MoNA Rating=3.75

>  <NUM PEAKS>  (1170) 
10

>  <MASS SPECTRAL PEAKS>  (1170) 
63 1
150 1.09
151 1.04
152 1.3
167 1.01
176 2.28
177 2.8
178 99.99
179 16.37
180 1.34

$$$$

     RDKit          2D

 14 16  0  0  0  0  0  0  0  0999 V2000
    3.0600    2.2000    0.0000 C   0  0  0  0  0  0  0  0  0  0  0  0
   -3.4300   -1.5500    0.0000 C   0  0  0  0  0  0  0  0  0  0  0  0
    1.7600    2.9500    0.0000 C   0  0  0  0  0  0  0  0  0  0  0  0
   -3.4300   -0.0500    0.0000 C   0  0  0  0  0  0  0  0  0  0  0  0
    3.0600    0.7000    0.0000 C   0  0  0  0  0  0  0  0  0  0  0  0
   -2.1300   -2.3000    0.0000 C   0  0  0  0  0  0  0  0  0  0  0  0
    0.4600    2.2000    0.0000 C   0  0  0  0  0  0  0  0  0  0  0  0
   -2.1300    0.7000    0.0000 C   0  0  0  0  0  0  0  0  0  0  0  0
    1.7600   -1.5500    0.0000 C   0  0  0  0  0  0  0  0  0  0  0  0
    0.4600   -2.3000    0.0000 C   0  0  0  0  0  0  0  0  0  0  0  0
    1.7600   -0.0500    0.0000 C   0  0  0  0  0  0  0  0  0  0  0  0
   -0.8300   -1.5500    0.0000 C   0  0  0  0  0  0  0  0  0  0  0  0
    0.4600    0.7000    0.0000 C   0  0  0  0  0  0  0  0  0  0  0  0
   -0.8300   -0.0500    0.0000 C   0  0  0  0  0  0  0  0  0  0  0  0
  3  1  2  0
  4  2  2  0
  5  1  1  0
  6  2  1  0
  7  3  1  0
  8  4  1  0
 10  9  2  0
 11  5  2  0
 11  9  1  0
 12  6  2  0
 12 10  1  0
 13  7  2  0
 13 11  1  0
 14  8  2  0
 14 12  1  0
 14 13  1  0
M  END
>  <NAME>  (1171) 
PHENANTHRENE

>  <SYNONYMS>  (1171) 


>  <SPECTRUM TYPE>  (1171) 
MS1

>  <INSTRUMENT TYPE>  (1171) 
EI-B

>  <INSTRUMENT>  (1171) 
HITACHI M-80A

>  <ION MODE>  (1171) 
P

>  <INCHIKEY>  (1171) 
YNPNZTXNASCQKK-UHFFFAOYSA-N

>  <FORMULA>  (1171) 
C14H10

>  <EXACT MASS>  (1171) 
178.07825032

>  <MW>  (1171) 
178

>  <ID>  (1171) 
JP010454

>  <CONTRIBUTOR>  (1171) 
University of Tokyo Team, {Faculty of Engineering, University of Tokyo

>  <COMMENT>  (1171) 
SMILES=c(c3)cc(c1)c(c3)c(c2)c(ccc2)c1
InChI=InChI=1S/C14H10/c1-3-7-13-11(5-1)9-10-12-6-2-4-8-14(12)13/h1-10H
computed SMILES=C=1C=CC2=C(C1)C=CC=3C=CC=CC32
accession=JP010454
date=2016.01.19 (Created 2008.10.21, modified 2011.05.06)
author=TAJIMA S, GUNMA COLLEGE OF TECHNOLOGY
license=CC BY-NC-SA
exact mass=178.07825
ionization energy=70 eV
ion type=[M]+*
computed spectral entropy=0.904854895459285
computed normalized entropy=0.4351432234677373
SPLASH=splash10-004i-0900000000-1b01e1751a082d6de106
submitter=submitter = University of Tokyo Team (Faculty of Engineering, University of Tokyo)
MoNA Rating=3.75

>  <NUM PEAKS>  (1171) 
8

>  <MASS SPECTRAL PEAKS>  (1171) 
150 1.14
152 1.75
167 1
176 4.91
177 5.15
178 99.99
179 16.19
180 1.58

$$$$

     RDKit          2D

 11 11  0  0  0  0  0  0  0  0999 V2000
   -1.3000    0.7500    0.0000 C   0  0  0  0  0  0  0  0  0  0  0  0
   -0.0000   -1.5000    0.0000 C   0  0  0  0  0  0  0  0  0  0  0  0
    0.0000    1.5000    0.0000 C   0  0  0  0  0  0  0  0  0  0  0  0
    1.3000   -0.7500    0.0000 C   0  0  0  0  0  0  0  0  0  0  0  0
   -2.5989   -1.5002    0.0000 C   0  0  0  0  0  0  0  0  0  0  0  0
   -1.3000   -0.7500    0.0000 C   0  0  0  0  0  0  0  0  0  0  0  0
    1.3000    0.7500    0.0000 C   0  0  0  0  0  0  0  0  0  0  0  0
    2.5989    1.5002    0.0000 C   0  0  0  0  0  0  0  0  0  0  0  0
   -3.8981   -0.7504    0.0000 O   0  0  0  0  0  0  0  0  0  0  0  0
    3.8981    0.7504    0.0000 O   0  0  0  0  0  0  0  0  0  0  0  0
    2.5987    3.0002    0.0000 O   0  0  0  0  0  0  0  0  0  0  0  0
  3  1  2  0
  4  2  1  0
  6  1  1  0
  6  2  2  0
  6  5  1  0
  7  3  1  0
  7  4  2  0
  8  7  1  0
  9  5  2  0
 10  8  1  0
 11  8  2  0
M  END
>  <NAME>  (1172) 
4-CARBOXLYBENZALDEHYDE

>  <SYNONYMS>  (1172) 
4-FORMYLBENZOIC ACID

>  <SPECTRUM TYPE>  (1172) 
MS1

>  <INSTRUMENT TYPE>  (1172) 
EI-B

>  <INSTRUMENT>  (1172) 
HITACHI M-80A

>  <ION MODE>  (1172) 
P

>  <INCHIKEY>  (1172) 
GOUHYARYYWKXHS-UHFFFAOYSA-N

>  <FORMULA>  (1172) 
C8H6O3

>  <EXACT MASS>  (1172) 
150.03169405199998

>  <MW>  (1172) 
150

>  <ID>  (1172) 
JP010453

>  <CONTRIBUTOR>  (1172) 
University of Tokyo Team, {Faculty of Engineering, University of Tokyo

>  <COMMENT>  (1172) 
SMILES=O=Cc(c1)ccc(c1)C(O)=O
InChI=InChI=1S/C8H6O3/c9-5-6-1-3-7(4-2-6)8(10)11/h1-5H,(H,10,11)
computed SMILES=O=CC1=CC=C(C=C1)C(=O)O
accession=JP010453
date=2016.01.19 (Created 2008.10.21, modified 2011.05.06)
author=TAJIMA S, GUNMA COLLEGE OF TECHNOLOGY
license=CC BY-NC-SA
exact mass=150.03169
ionization energy=70 eV
ion type=[M]+*
computed spectral entropy=2.9048624624579533
computed normalized entropy=0.7985687032294111
SPLASH=splash10-0udj-8900000000-c4eae0e2814158e68450
submitter=submitter = University of Tokyo Team (Faculty of Engineering, University of Tokyo)
MoNA Rating=3.75

>  <NUM PEAKS>  (1172) 
38

>  <MASS SPECTRAL PEAKS>  (1172) 
26 1.08
27 3.11
29 10.98
37 3.87
38 5.53
39 10.66
40 1.17
45 7.35
49 2.88
50 27.52
51 33.12
52 4.87
53 4.11
61 2.01
62 2.42
63 2.81
65 34.2
66 4.13
73 3.33
74 15.3
75 13.22
76 14.45
77 27.38
78 2.99
79 1.22
93 3.74
103 3.46
104 5.11
105 19.06
106 1.66
121 27.97
122 4.19
133 9.74
134 1.35
149 99.99
150 81.75
151 10.28
152 1.34

$$$$

     RDKit          2D

 12 12  0  0  0  0  0  0  0  0999 V2000
   -1.3000    0.7500    0.0000 C   0  0  0  0  0  0  0  0  0  0  0  0
    0.0000    1.5000    0.0000 C   0  0  0  0  0  0  0  0  0  0  0  0
    0.0000   -1.5000    0.0000 C   0  0  0  0  0  0  0  0  0  0  0  0
    1.3000   -0.7500    0.0000 C   0  0  0  0  0  0  0  0  0  0  0  0
   -1.3000   -0.7500    0.0000 C   0  0  0  0  0  0  0  0  0  0  0  0
    1.3000    0.7500    0.0000 C   0  0  0  0  0  0  0  0  0  0  0  0
   -2.5989   -1.5002    0.0000 C   0  0  0  0  0  0  0  0  0  0  0  0
    2.5989    1.5002    0.0000 C   0  0  0  0  0  0  0  0  0  0  0  0
   -3.8981   -0.7504    0.0000 O   0  0  0  0  0  0  0  0  0  0  0  0
   -2.5987   -3.0002    0.0000 O   0  0  0  0  0  0  0  0  0  0  0  0
    3.8981    0.7504    0.0000 O   0  0  0  0  0  0  0  0  0  0  0  0
    2.5987    3.0002    0.0000 O   0  0  0  0  0  0  0  0  0  0  0  0
  2  1  2  0
  4  3  1  0
  5  1  1  0
  5  3  2  0
  6  2  1  0
  6  4  2  0
  7  5  1  0
  8  6  1  0
  9  7  1  0
 10  7  2  0
 11  8  1  0
 12  8  2  0
M  END
>  <NAME>  (1173) 
TEREPHTHALIC ACID

>  <SYNONYMS>  (1173) 
1,4-BENZENEDICARBOXYLIC ACID

>  <SPECTRUM TYPE>  (1173) 
MS1

>  <INSTRUMENT TYPE>  (1173) 
EI-B

>  <INSTRUMENT>  (1173) 
HITACHI M-80A

>  <ION MODE>  (1173) 
P

>  <INCHIKEY>  (1173) 
KKEYFWRCBNTPAC-UHFFFAOYSA-N

>  <FORMULA>  (1173) 
C8H6O4

>  <EXACT MASS>  (1173) 
166.026608672

>  <MW>  (1173) 
166

>  <ID>  (1173) 
JP010452

>  <CONTRIBUTOR>  (1173) 
University of Tokyo Team, {Faculty of Engineering, University of Tokyo

>  <COMMENT>  (1173) 
SMILES=OC(=O)c(c1)ccc(c1)C(O)=O
InChI=InChI=1S/C8H6O4/c9-7(10)5-1-2-6(4-3-5)8(11)12/h1-4H,(H,9,10)(H,11,12)
computed SMILES=O=C(O)C1=CC=C(C=C1)C(=O)O
accession=JP010452
date=2016.01.19 (Created 2008.10.21, modified 2011.05.06)
author=TAJIMA S, GUNMA COLLEGE OF TECHNOLOGY
license=CC BY-NC-SA
exact mass=166.02661
ionization energy=70 eV
ion type=[M]+*
computed spectral entropy=2.6731694996469693
computed normalized entropy=0.7348745520430618
SPLASH=splash10-014j-6900000000-1a7e017001fe0602a248
submitter=submitter = University of Tokyo Team (Faculty of Engineering, University of Tokyo)
MoNA Rating=3.75

>  <NUM PEAKS>  (1173) 
38

>  <MASS SPECTRAL PEAKS>  (1173) 
27 1.61
28 3.73
29 1.11
37 2.07
38 3.4
39 12.2
45 10.82
49 1.1
50 12.33
51 9.92
52 1.81
53 3.84
62 1.03
63 3.21
64 1.19
65 44.32
66 3.57
73 1.36
74 9.04
75 8.28
76 11.27
77 5.85
78 1.47
79 2.42
93 2.38
103 2.09
104 3.21
105 3.07
121 13.74
122 1.93
138 1.68
149 99.99
150 9.76
151 1.22
155 1.11
166 74.74
167 15.7
168 1.69

$$$$

     RDKit          2D

 15 16  0  0  0  0  0  0  0  0999 V2000
   -4.2225    0.5081    0.0000 C   0  0  0  0  0  0  0  0  0  0  0  0
   -2.9230   -0.2427    0.0000 C   0  0  0  0  0  0  0  0  0  0  0  0
   -4.2230    2.0090    0.0000 C   0  0  0  0  0  0  0  0  0  0  0  0
   -1.6239    0.5073    0.0000 C   0  0  0  0  0  0  0  0  0  0  0  0
   -2.9239    2.7590    0.0000 C   0  0  0  0  0  0  0  0  0  0  0  0
   -0.3251    4.2581    0.0000 C   0  0  0  0  0  0  0  0  0  0  0  0
    0.9745    2.0079    0.0000 C   0  0  0  0  0  0  0  0  0  0  0  0
    0.9750    5.0079    0.0000 C   0  0  0  0  0  0  0  0  0  0  0  0
    2.2746    2.7577    0.0000 C   0  0  0  0  0  0  0  0  0  0  0  0
   -1.6244    2.0081    0.0000 C   0  0  0  0  0  0  0  0  0  0  0  0
   -0.3254    2.7581    0.0000 C   0  0  0  0  0  0  0  0  0  0  0  0
    2.2749    4.2577    0.0000 C   0  0  0  0  0  0  0  0  0  0  0  0
    3.5739    5.0077    0.0000 C   0  0  0  0  0  0  0  0  0  0  0  0
    4.8730    4.2577    0.0000 O   0  0  0  0  0  0  0  0  0  0  0  0
    3.5739    6.5077    0.0000 O   0  0  0  0  0  0  0  0  0  0  0  0
  2  1  2  0
  3  1  1  0
  4  2  1  0
  5  3  2  0
  8  6  2  0
  9  7  1  0
 10  4  2  0
 10  5  1  0
 11  6  1  0
 11  7  2  0
 11 10  1  0
 12  8  1  0
 12  9  2  0
 13 12  1  0
 14 13  1  0
 15 13  2  0
M  END
>  <NAME>  (1174) 
4-PHENYLBENZOIC ACID

>  <SYNONYMS>  (1174) 
4-CARBOXYLICBIPHENYL

>  <SPECTRUM TYPE>  (1174) 
MS1

>  <INSTRUMENT TYPE>  (1174) 
EI-B

>  <INSTRUMENT>  (1174) 
HITACHI M-80A

>  <ION MODE>  (1174) 
P

>  <INCHIKEY>  (1174) 
NNJMFJSKMRYHSR-UHFFFAOYSA-N

>  <FORMULA>  (1174) 
C13H10O2

>  <EXACT MASS>  (1174) 
198.06807956

>  <MW>  (1174) 
198

>  <ID>  (1174) 
JP010451

>  <CONTRIBUTOR>  (1174) 
University of Tokyo Team, {Faculty of Engineering, University of Tokyo

>  <COMMENT>  (1174) 
SMILES=OC(=O)c(c2)ccc(c2)c(c1)cccc1
InChI=InChI=1S/C13H10O2/c14-13(15)12-8-6-11(7-9-12)10-4-2-1-3-5-10/h1-9H,(H,14,15)
computed SMILES=O=C(O)C=1C=CC(=CC1)C=2C=CC=CC2
accession=JP010451
date=2016.01.19 (Created 2008.10.21, modified 2011.05.06)
author=TAJIMA S, GUNMA COLLEGE OF TECHNOLOGY
license=CC BY-NC-SA
exact mass=198.06808
ionization energy=70 eV
ion type=[M]+*
computed spectral entropy=2.642220591136612
computed normalized entropy=0.7431679108316972
SPLASH=splash10-0002-2900000000-8f42f55a8a1368ff9e38
submitter=submitter = University of Tokyo Team (Faculty of Engineering, University of Tokyo)
MoNA Rating=3.75

>  <NUM PEAKS>  (1174) 
35

>  <MASS SPECTRAL PEAKS>  (1174) 
27 2.09
38 1.39
39 4.15
45 6.3
50 5.64
51 7.81
52 1.5
62 2.32
63 5.53
74 3.79
75 4.74
76 9.91
77 4.37
85 3.81
86 1.17
87 1.75
90 1.95
98 1.04
99 1.54
101 1.33
102 2.68
115 2.03
126 3.02
127 3.65
150 2.81
151 8.5
152 30.63
153 16.67
154 2.36
170 2.17
181 37.19
182 5.37
198 99.99
199 14.86
200 1.43

$$$$

     RDKit          2D

  7  7  0  0  0  0  0  0  0  0999 V2000
    0.0000    2.5700    0.0000 C   0  0  0  0  0  0  0  0  0  0  0  0
    1.3000    1.8200    0.0000 C   0  0  0  0  0  0  0  0  0  0  0  0
   -1.3000    1.8200    0.0000 C   0  0  0  0  0  0  0  0  0  0  0  0
    1.3000    0.3200    0.0000 C   0  0  0  0  0  0  0  0  0  0  0  0
   -1.3000    0.3200    0.0000 C   0  0  0  0  0  0  0  0  0  0  0  0
   -0.0000   -0.4300    0.0000 C   0  0  0  0  0  0  0  0  0  0  0  0
   -0.0000   -1.9300    0.0000 Cl  0  0  0  0  0  0  0  0  0  0  0  0
  2  1  2  0
  3  1  1  0
  4  2  1  0
  5  3  2  0
  6  4  2  0
  6  5  1  0
  7  6  1  0
M  END
>  <NAME>  (1175) 
CHLOROBENZENE

>  <SYNONYMS>  (1175) 


>  <SPECTRUM TYPE>  (1175) 
MS1

>  <INSTRUMENT TYPE>  (1175) 
EI-B

>  <INSTRUMENT>  (1175) 
HITACHI M-80A

>  <ION MODE>  (1175) 
P

>  <INCHIKEY>  (1175) 
MVPPADPHJFYWMZ-UHFFFAOYSA-N

>  <FORMULA>  (1175) 
C6H5Cl

>  <EXACT MASS>  (1175) 
112.00797784

>  <MW>  (1175) 
112

>  <ID>  (1175) 
JP010450

>  <CONTRIBUTOR>  (1175) 
University of Tokyo Team, {Faculty of Engineering, University of Tokyo

>  <COMMENT>  (1175) 
SMILES=Clc(c1)cccc1
InChI=InChI=1S/C6H5Cl/c7-6-4-2-1-3-5-6/h1-5H
computed SMILES=ClC=1C=CC=CC1
accession=JP010450
date=2016.01.19 (Created 2008.10.21, modified 2011.05.06)
author=TAJIMA S, GUNMA COLLEGE OF TECHNOLOGY
license=CC BY-NC-SA
exact mass=112.00798
ionization energy=70 eV
ion type=[M]+*
computed spectral entropy=2.515798844511634
computed normalized entropy=0.7326174195482551
SPLASH=splash10-03di-9500000000-12a9a9ae9833f5dbfa91
submitter=submitter = University of Tokyo Team (Faculty of Engineering, University of Tokyo)
MoNA Rating=3.75

>  <NUM PEAKS>  (1175) 
31

>  <MASS SPECTRAL PEAKS>  (1175) 
26 3.19
27 3.08
35 1.67
36 1.43
37 7.3
38 11.66
39 4.92
49 5.45
50 28.58
51 31.65
52 2.45
56 3.47
57 1.11
60 1.58
61 2.16
62 1.92
63 1.92
72 1.05
73 5.19
74 10.75
75 9.3
76 6.5
77 63.88
78 4.38
84 1.23
85 1.5
86 1.37
112 99.99
113 6.89
114 32.11
115 2.16

$$$$

     RDKit          2D

 14 15  0  0  0  0  0  0  0  0999 V2000
    3.8971    1.0700    0.0000 C   0  0  0  0  0  0  0  0  0  0  0  0
   -5.1962    4.8200    0.0000 C   0  0  0  0  0  0  0  0  0  0  0  0
    2.5976    0.3192    0.0000 C   0  0  0  0  0  0  0  0  0  0  0  0
    3.8976    2.5708    0.0000 C   0  0  0  0  0  0  0  0  0  0  0  0
   -3.8966    5.5708    0.0000 C   0  0  0  0  0  0  0  0  0  0  0  0
   -5.1966    3.3192    0.0000 C   0  0  0  0  0  0  0  0  0  0  0  0
    1.2986    1.0692    0.0000 C   0  0  0  0  0  0  0  0  0  0  0  0
    2.5986    3.3208    0.0000 C   0  0  0  0  0  0  0  0  0  0  0  0
   -2.5976    4.8208    0.0000 C   0  0  0  0  0  0  0  0  0  0  0  0
   -3.8976    2.5692    0.0000 C   0  0  0  0  0  0  0  0  0  0  0  0
    1.2990    2.5700    0.0000 C   0  0  0  0  0  0  0  0  0  0  0  0
   -2.5981    3.3200    0.0000 C   0  0  0  0  0  0  0  0  0  0  0  0
    0.0000    3.3200    0.0000 N   0  0  0  0  0  0  0  0  0  0  0  0
   -1.2990    2.5700    0.0000 N   0  0  0  0  0  0  0  0  0  0  0  0
  3  1  2  0
  4  1  1  0
  5  2  2  0
  6  2  1  0
  7  3  1  0
  8  4  2  0
  9  5  1  0
 10  6  2  0
 11  7  2  0
 11  8  1  0
 12  9  2  0
 12 10  1  0
 13 11  1  0
 14 12  1  0
 13 14  2  0
M  END
>  <NAME>  (1176) 
AZOBENZENE

>  <SYNONYMS>  (1176) 


>  <SPECTRUM TYPE>  (1176) 
MS1

>  <INSTRUMENT TYPE>  (1176) 
EI-B

>  <INSTRUMENT>  (1176) 
HITACHI M-80A

>  <ION MODE>  (1176) 
P

>  <INCHIKEY>  (1176) 
DMLAVOWQYNRWNQ-BUHFOSPRSA-N

>  <FORMULA>  (1176) 
C12H10N2

>  <EXACT MASS>  (1176) 
182.08439832

>  <MW>  (1176) 
182

>  <ID>  (1176) 
JP010449

>  <CONTRIBUTOR>  (1176) 
University of Tokyo Team, {Faculty of Engineering, University of Tokyo

>  <COMMENT>  (1176) 
SMILES=c(c2)ccc(c2)N=Nc(c1)cccc1
InChI=InChI=1S/C12H10N2/c1-3-7-11(8-4-1)13-14-12-9-5-2-6-10-12/h1-10H/b14-13+
computed SMILES=N(=NC=1C=CC=CC1)C=2C=CC=CC2
accession=JP010449
date=2016.01.19 (Created 2008.10.21, modified 2011.05.06)
author=TAJIMA S, GUNMA COLLEGE OF TECHNOLOGY
license=CC BY-NC-SA
exact mass=182.0844
ionization energy=70 eV
ion type=[M]+*
computed spectral entropy=2.323158131117205
computed normalized entropy=0.7048765535333245
SPLASH=splash10-0a7i-5900000000-605663f6917c44d1fd54
submitter=submitter = University of Tokyo Team (Faculty of Engineering, University of Tokyo)
MoNA Rating=3.75

>  <NUM PEAKS>  (1176) 
27

>  <MASS SPECTRAL PEAKS>  (1176) 
51 2.17
77 77.34
78 6.07
89 1.47
91 3.37
92 3.78
93 36.36
94 7.08
102 2.87
103 2.99
104 1.4
105 99.99
106 6.5
115 4.85
127 1.85
128 4.45
139 1.59
151 3.7
152 16.4
153 13.62
154 4.87
167 1.31
168 1.19
169 1.94
182 66.01
183 10
184 1.11

$$$$

     RDKit          2D

  8  8  0  0  0  0  0  0  0  0999 V2000
    0.7500    1.0300    0.0000 C   0  0  0  0  0  0  0  0  0  0  0  0
   -0.7500    1.0300    0.0000 C   0  0  0  0  0  0  0  0  0  0  0  0
    1.2100   -0.3900    0.0000 C   0  0  0  0  0  0  0  0  0  0  0  0
   -1.2100   -0.3900    0.0000 C   0  0  0  0  0  0  0  0  0  0  0  0
   -0.0000   -2.7800    0.0000 Br  0  0  0  0  0  0  0  0  0  0  0  0
    0.0000   -1.2800    0.0000 N   0  0  0  0  0  0  0  0  0  0  0  0
    2.6377   -0.8500    0.0000 O   0  0  0  0  0  0  0  0  0  0  0  0
   -2.6377   -0.8500    0.0000 O   0  0  0  0  0  0  0  0  0  0  0  0
  2  1  1  0
  3  1  1  0
  4  2  1  0
  6  3  1  0
  6  4  1  0
  6  5  1  0
  7  3  2  0
  8  4  2  0
M  END
>  <NAME>  (1177) 
N-BROMOSUCCINIMIDE

>  <SYNONYMS>  (1177) 


>  <SPECTRUM TYPE>  (1177) 
MS1

>  <INSTRUMENT TYPE>  (1177) 
EI-B

>  <INSTRUMENT>  (1177) 
HITACHI M-80A

>  <ION MODE>  (1177) 
P

>  <INCHIKEY>  (1177) 
PCLIMKBDDGJMGD-UHFFFAOYSA-N

>  <FORMULA>  (1177) 
C4H4BrNO2

>  <EXACT MASS>  (1177) 
176.942540468

>  <MW>  (1177) 
177

>  <ID>  (1177) 
JP010448

>  <CONTRIBUTOR>  (1177) 
University of Tokyo Team, {Faculty of Engineering, University of Tokyo

>  <COMMENT>  (1177) 
SMILES=O=C(C1)N(Br)C(=O)C1
InChI=InChI=1S/C4H4BrNO2/c5-6-3(7)1-2-4(6)8/h1-2H2
computed SMILES=O=C1N(Br)C(=O)CC1
accession=JP010448
date=2016.01.19 (Created 2008.10.21, modified 2011.05.06)
author=TAJIMA S, GUNMA COLLEGE OF TECHNOLOGY
license=CC BY-NC-SA
exact mass=176.94254
ionization energy=70 eV
ion type=[M]+*
computed spectral entropy=2.9566512527402815
computed normalized entropy=0.7557857529564029
SPLASH=splash10-056r-9600000000-6d3b9078ad41c0069cf9
submitter=submitter = University of Tokyo Team (Faculty of Engineering, University of Tokyo)
MoNA Rating=3.75

>  <NUM PEAKS>  (1177) 
50

>  <MASS SPECTRAL PEAKS>  (1177) 
25 1.44
26 13.79
27 25.83
28 76.67
29 4.13
30 1.12
38 1
39 1.31
40 1.63
41 1.9
42 16.17
43 4.02
44 2.05
45 1.12
52 1.15
53 2.06
54 3.91
55 92.1
56 99.99
57 3.97
70 36.44
71 1.54
72 1.62
73 1.08
74 1.96
79 4.82
80 7.82
81 4.62
82 1.27
98 20.31
99 14.28
100 39.94
101 5.94
107 1.07
109 1.01
112 2.61
119 16.75
126 2.84
149 1.58
150 1.1
151 1.69
152 1.02
154 5.11
160 2.69
162 1.4
177 67
178 55.13
179 70.68
180 55.84
181 2.8

$$$$

     RDKit          2D

 13 13  0  0  0  0  0  0  0  0999 V2000
    4.5465    0.7504    0.0000 C   0  0  0  0  0  0  0  0  0  0  0  0
   -0.6506   -0.7508    0.0000 C   0  0  0  0  0  0  0  0  0  0  0  0
    0.6484   -1.5008    0.0000 C   0  0  0  0  0  0  0  0  0  0  0  0
   -0.6501    0.7500    0.0000 C   0  0  0  0  0  0  0  0  0  0  0  0
    1.9480   -0.7500    0.0000 C   0  0  0  0  0  0  0  0  0  0  0  0
    0.6492    3.0008    0.0000 C   0  0  0  0  0  0  0  0  0  0  0  0
   -0.6500    3.7506    0.0000 C   0  0  0  0  0  0  0  0  0  0  0  0
    0.6494    1.5008    0.0000 C   0  0  0  0  0  0  0  0  0  0  0  0
    1.9484    0.7508    0.0000 C   0  0  0  0  0  0  0  0  0  0  0  0
   -1.9489    3.0004    0.0000 C   0  0  0  0  0  0  0  0  0  0  0  0
   -1.9487    1.5004    0.0000 O   0  0  0  0  0  0  0  0  0  0  0  0
   -3.2481    3.7502    0.0000 O   0  0  0  0  0  0  0  0  0  0  0  0
    3.2476    1.5006    0.0000 O   0  0  0  0  0  0  0  0  0  0  0  0
  3  2  2  0
  4  2  1  0
  5  3  1  0
  6  7  2  0
  8  4  2  0
  8  6  1  0
  9  5  2  0
  9  8  1  0
 10  7  1  0
 11 10  2  0
 12 10  1  0
 13  1  1  0
 13  9  1  0
M  END
>  <NAME>  (1178) 
CIS-ORTHO-METHOXYCINNAMIC ACID

>  <SYNONYMS>  (1178) 


>  <SPECTRUM TYPE>  (1178) 
MS1

>  <INSTRUMENT TYPE>  (1178) 
EI-B

>  <INSTRUMENT>  (1178) 
HITACHI M-80A

>  <ION MODE>  (1178) 
P

>  <INCHIKEY>  (1178) 
FEGVSPGUHMGGBO-SREVYHEPSA-N

>  <FORMULA>  (1178) 
C10H10O3

>  <EXACT MASS>  (1178) 
178.06299417999998

>  <MW>  (1178) 
178

>  <ID>  (1178) 
JP010447

>  <CONTRIBUTOR>  (1178) 
University of Tokyo Team, {Faculty of Engineering, University of Tokyo

>  <COMMENT>  (1178) 
SMILES=COc(c1)c(ccc1)C=CC(O)=O
InChI=InChI=1S/C10H10O3/c1-13-9-5-3-2-4-8(9)6-7-10(11)12/h2-7H,1H3,(H,11,12)/b7-6-
computed SMILES=O=C(O)C=CC=1C=CC=CC1OC
accession=JP010447
date=2016.01.19 (Created 2008.10.21, modified 2011.05.06)
license=CC BY-NC-SA
author=TAJIMA S, GUNMA COLLEGE OF TECHNOLOGY
exact mass=178.06299
ionization energy=70 eV
ion type=[M]+*
computed spectral entropy=3.418857492393795
computed normalized entropy=0.82838530889186
SPLASH=splash10-004i-7900000000-fc18bd92c2e522313389
submitter=submitter = University of Tokyo Team (Faculty of Engineering, University of Tokyo)
MoNA Rating=3.75

>  <NUM PEAKS>  (1178) 
62

>  <MASS SPECTRAL PEAKS>  (1178) 
15 8.77
26 1.38
27 24.09
29 3.24
37 1.17
38 3.18
39 11.01
40 1.02
41 1.75
43 11.19
44 1.06
45 7.13
50 4.86
51 15.11
52 31.08
53 9.7
55 1.89
61 1.53
62 4.92
63 14.51
64 4.25
65 8.74
66 1.13
74 2.9
75 3.84
76 2.11
77 14.43
78 6.34
79 6.69
85 1.37
89 12.54
90 8.63
91 40.14
92 3.98
94 4.79
101 1.41
102 2.85
103 11.41
104 2.8
105 8.89
106 1.3
107 2.7
115 1.34
118 26.05
119 16.86
120 2.82
121 1.52
131 14.62
132 7.05
133 3.52
135 1.17
146 6.65
147 62.29
148 6.32
160 1.03
161 13.83
162 1.88
163 1.69
177 1.69
178 99.99
179 14.72
180 1.6

$$$$

     RDKit          2D

 13 13  0  0  0  0  0  0  0  0999 V2000
    1.9487   -3.0002    0.0000 C   0  0  0  0  0  0  0  0  0  0  0  0
   -1.9500    0.7500    0.0000 C   0  0  0  0  0  0  0  0  0  0  0  0
   -1.9500   -0.7500    0.0000 C   0  0  0  0  0  0  0  0  0  0  0  0
   -0.6500    1.5000    0.0000 C   0  0  0  0  0  0  0  0  0  0  0  0
   -0.6500   -1.5000    0.0000 C   0  0  0  0  0  0  0  0  0  0  0  0
    1.9489    1.5002    0.0000 C   0  0  0  0  0  0  0  0  0  0  0  0
    1.9487    3.0002    0.0000 C   0  0  0  0  0  0  0  0  0  0  0  0
    0.6500    0.7500    0.0000 C   0  0  0  0  0  0  0  0  0  0  0  0
    0.6500   -0.7500    0.0000 C   0  0  0  0  0  0  0  0  0  0  0  0
    3.2476    3.7504    0.0000 C   0  0  0  0  0  0  0  0  0  0  0  0
    4.5468    3.0006    0.0000 O   0  0  0  0  0  0  0  0  0  0  0  0
    3.2474    5.2504    0.0000 O   0  0  0  0  0  0  0  0  0  0  0  0
    1.9489   -1.5002    0.0000 O   0  0  0  0  0  0  0  0  0  0  0  0
  3  2  2  0
  4  2  1  0
  5  3  1  0
  6  7  2  0
  8  4  2  0
  8  6  1  0
  9  5  2  0
  9  8  1  0
 10  7  1  0
 11 10  2  0
 12 10  1  0
 13  1  1  0
 13  9  1  0
M  END
>  <NAME>  (1179) 
TRANS-ORTHO-METHOXYCINNAMIC ACID

>  <SYNONYMS>  (1179) 


>  <SPECTRUM TYPE>  (1179) 
MS1

>  <INSTRUMENT TYPE>  (1179) 
EI-B

>  <INSTRUMENT>  (1179) 
HITACHI M-80A

>  <ION MODE>  (1179) 
P

>  <INCHIKEY>  (1179) 
FEGVSPGUHMGGBO-VOTSOKGWSA-N

>  <FORMULA>  (1179) 
C10H10O3

>  <EXACT MASS>  (1179) 
178.06299417999998

>  <MW>  (1179) 
178

>  <ID>  (1179) 
JP010446

>  <CONTRIBUTOR>  (1179) 
University of Tokyo Team, {Faculty of Engineering, University of Tokyo

>  <COMMENT>  (1179) 
SMILES=COc(c1)c(ccc1)C=CC(O)=O
InChI=InChI=1S/C10H10O3/c1-13-9-5-3-2-4-8(9)6-7-10(11)12/h2-7H,1H3,(H,11,12)/b7-6+
computed SMILES=O=C(O)C=CC=1C=CC=CC1OC
accession=JP010446
date=2016.01.19 (Created 2008.10.21, modified 2011.05.06)
author=TAJIMA S, GUNMA COLLEGE OF TECHNOLOGY
license=CC BY-NC-SA
exact mass=178.06299
ionization energy=70 eV
ion type=[M]+*
computed spectral entropy=3.582215431404103
computed normalized entropy=0.8376186804660527
SPLASH=splash10-00ov-9800000000-2cd10a7f3c7aa9c2686c
submitter=submitter = University of Tokyo Team (Faculty of Engineering, University of Tokyo)
MoNA Rating=3.75

>  <NUM PEAKS>  (1179) 
72

>  <MASS SPECTRAL PEAKS>  (1179) 
15 25.14
26 3.32
27 7.86
28 1.26
29 7.39
30 1.06
31 1.78
37 2.55
38 7.68
39 21.86
40 2.3
41 2.44
43 3.54
44 1.78
45 20.31
49 1.16
50 11.75
51 21.75
52 4.8
53 6.13
55 3.86
61 2.94
62 9.66
63 26.66
64 7.95
65 15.08
66 2.06
74 6.4
75 8.02
76 4.73
77 27.83
78 10.75
79 11.81
80 1.02
85 2.31
86 1.57
87 1.99
88 1.41
89 24.28
90 16.06
91 65.73
92 6.72
94 7.52
101 2.75
102 5.88
103 17.43
104 4.51
105 15.02
106 2.21
107 4.26
115 2.15
117 1.02
118 41.92
119 23.94
120 2.4
131 22.92
132 10.07
133 4.93
134 1.22
135 1.79
146 8.91
147 79.77
148 8.01
149 1.05
160 1.04
161 8.24
162 1.34
163 2.26
177 2.45
178 99.99
179 11.62
180 1.24

$$$$

     RDKit          2D

 13 13  0  0  0  0  0  0  0  0999 V2000
    3.8981   -0.7504    0.0000 C   0  0  0  0  0  0  0  0  0  0  0  0
    2.5987   -3.0002    0.0000 C   0  0  0  0  0  0  0  0  0  0  0  0
   -3.8981    0.7504    0.0000 C   0  0  0  0  0  0  0  0  0  0  0  0
   -2.5989    1.5002    0.0000 C   0  0  0  0  0  0  0  0  0  0  0  0
   -1.3000   -0.7500    0.0000 C   0  0  0  0  0  0  0  0  0  0  0  0
    0.0000    1.5000    0.0000 C   0  0  0  0  0  0  0  0  0  0  0  0
    0.0000   -1.5000    0.0000 C   0  0  0  0  0  0  0  0  0  0  0  0
    1.3000    0.7500    0.0000 C   0  0  0  0  0  0  0  0  0  0  0  0
   -5.1970    1.5006    0.0000 C   0  0  0  0  0  0  0  0  0  0  0  0
   -1.3000    0.7500    0.0000 C   0  0  0  0  0  0  0  0  0  0  0  0
    1.3000   -0.7500    0.0000 C   0  0  0  0  0  0  0  0  0  0  0  0
    2.5989   -1.5002    0.0000 N   0  0  0  0  0  0  0  0  0  0  0  0
   -6.4962    0.7508    0.0000 O   0  0  0  0  0  0  0  0  0  0  0  0
  3  4  2  0
  7  5  2  0
  8  6  1  0
  9  3  1  0
 10  4  1  0
 10  5  1  0
 10  6  2  0
 11  7  1  0
 11  8  2  0
 12  1  1  0
 12  2  1  0
 12 11  1  0
 13  9  2  0
M  END
>  <NAME>  (1180) 
(PARA-DIMETHYLAMINO)CINNAMALDEHYDE

>  <SYNONYMS>  (1180) 


>  <SPECTRUM TYPE>  (1180) 
MS1

>  <INSTRUMENT TYPE>  (1180) 
EI-B

>  <INSTRUMENT>  (1180) 
HITACHI M-80A

>  <ION MODE>  (1180) 
P

>  <INCHIKEY>  (1180) 
RUKJCCIJLIMGEP-ONEGZZNKSA-N

>  <FORMULA>  (1180) 
C11H13NO

>  <EXACT MASS>  (1180) 
175.099714036

>  <MW>  (1180) 
175

>  <ID>  (1180) 
JP010445

>  <CONTRIBUTOR>  (1180) 
University of Tokyo Team, {Faculty of Engineering, University of Tokyo

>  <COMMENT>  (1180) 
computed SMILES=O=CC=CC1=CC=C(C=C1)N(C)C
SMILES=O=CC([H])=C([H])c(c1)ccc(N(C)C)c1
InChI=InChI=1S/C11H13NO/c1-12(2)11-7-5-10(6-8-11)4-3-9-13/h3-9H,1-2H3/b4-3+
accession=JP010445
date=2016.01.19 (Created 2008.10.21, modified 2011.05.06)
author=TAJIMA S, GUNMA COLLEGE OF TECHNOLOGY
license=CC BY-NC-SA
exact mass=175.09971
ionization energy=70 eV
ion type=[M]+*
computed spectral entropy=3.032585983625353
computed normalized entropy=0.760240188535557
SPLASH=splash10-00b9-2900000000-f859df078ddde6541a64
submitter=submitter = University of Tokyo Team (Faculty of Engineering, University of Tokyo)
MoNA Rating=3.75

>  <NUM PEAKS>  (1180) 
54

>  <MASS SPECTRAL PEAKS>  (1180) 
15 5.51
27 2.24
28 1.43
29 6.14
39 3.2
41 1.03
42 5.07
44 1.45
50 2.71
51 4.83
52 1.38
62 1.15
63 3.32
64 1.15
65 1.63
72 2.21
73 2.68
74 1.73
75 2.07
76 1.87
77 6.86
78 1.86
79 1.08
86 1.04
89 1.58
91 2.09
101 1.46
102 3.69
103 5.29
104 2.51
105 1.77
116 1.02
117 1.13
118 1.32
119 1.47
120 10.02
121 28.31
122 2.61
128 1.06
129 1.17
130 4.74
131 8.91
132 4.25
134 6.48
144 3.28
145 2.37
146 17.83
147 11.18
148 1.58
158 1.56
174 20.62
175 99.99
176 14.45
177 1.2

$$$$

     RDKit          2D

 14 14  0  0  0  0  0  0  0  0999 V2000
   -0.9400    1.7058    0.0000 C   0  0  0  0  0  0  0  0  0  0  0  0
    0.3590    2.4558    0.0000 C   0  0  0  0  0  0  0  0  0  0  0  0
    0.3600   -0.5458    0.0000 C   0  0  0  0  0  0  0  0  0  0  0  0
   -0.9395    0.2050    0.0000 C   0  0  0  0  0  0  0  0  0  0  0  0
    1.6586    1.7050    0.0000 C   0  0  0  0  0  0  0  0  0  0  0  0
    1.6590    0.2042    0.0000 C   0  0  0  0  0  0  0  0  0  0  0  0
    2.9576    3.9550    0.0000 N   0  0  0  0  0  0  0  0  0  0  0  0
    2.9576    2.4550    0.0000 N   0  0  0  0  0  0  0  0  0  0  0  0
   -2.2386   -0.5450    0.0000 N   0  0  0  0  0  0  0  0  0  0  0  0
    2.9582   -0.5456    0.0000 N   0  0  0  0  0  0  0  0  0  0  0  0
   -3.5376    0.2050    0.0000 O   0  0  0  0  0  0  0  0  0  0  0  0
   -2.2386   -2.0450    0.0000 O   0  0  0  0  0  0  0  0  0  0  0  0
    4.2571    0.2046    0.0000 O   0  0  0  0  0  0  0  0  0  0  0  0
    2.9584   -2.0456    0.0000 O   0  0  0  0  0  0  0  0  0  0  0  0
  2  1  2  0
  4  1  1  0
  4  3  2  0
  5  2  1  0
  6  3  1  0
  6  5  2  0
  8  5  1  0
  8  7  1  0
  9  4  1  0
 10  6  1  0
 11  9  1  0
 12  9  2  0
 13 10  1  0
 14 10  2  0
M  CHG  4   9   1  10   1  11  -1  13  -1
M  END
>  <NAME>  (1181) 
2,4-DINITROPHENYLHYDRAZINE

>  <SYNONYMS>  (1181) 


>  <SPECTRUM TYPE>  (1181) 
MS1

>  <INSTRUMENT TYPE>  (1181) 
EI-B

>  <INSTRUMENT>  (1181) 
HITACHI M-80A

>  <ION MODE>  (1181) 
P

>  <INCHIKEY>  (1181) 
HORQAOAYAYGIBM-UHFFFAOYSA-N

>  <FORMULA>  (1181) 
C6H6N4O4

>  <EXACT MASS>  (1181) 
198.038904672

>  <MW>  (1181) 
198

>  <ID>  (1181) 
JP010444

>  <CONTRIBUTOR>  (1181) 
University of Tokyo Team, {Faculty of Engineering, University of Tokyo

>  <COMMENT>  (1181) 
SMILES=NNc(c1)c([N+1]([O-1])=O)cc(c1)[N+1]([O-1])=O
InChI=InChI=1S/C6H6N4O4/c7-8-5-2-1-4(9(11)12)3-6(5)10(13)14/h1-3,8H,7H2
computed SMILES=O=N(=O)C1=CC=C(NN)C(=C1)N(=O)=O
accession=JP010444
date=2016.01.19 (Created 2008.10.21, modified 2011.05.06)
author=TAJIMA S, GUNMA COLLEGE OF TECHNOLOGY
license=CC BY-NC-SA
exact mass=198.0389
ionization energy=70 eV
ion type=[M]+*
computed spectral entropy=3.429159177148161
computed normalized entropy=0.8214760527558558
SPLASH=splash10-0fb9-9100000000-7e4892ecdd7649e90ab2
submitter=submitter = University of Tokyo Team (Faculty of Engineering, University of Tokyo)
MoNA Rating=3.75

>  <NUM PEAKS>  (1181) 
65

>  <MASS SPECTRAL PEAKS>  (1181) 
17 3.02
26 3.33
27 9.05
28 16.75
29 18.21
30 71.75
31 5.56
37 6.35
38 11.85
39 24.11
40 4.92
41 3.29
42 1.99
43 2.18
44 1.97
46 9.66
48 1.04
49 1.94
50 31.61
51 90.45
52 45.87
53 11.78
54 3.91
55 2.27
61 7.14
62 16.38
63 30.84
64 13.41
65 5.91
66 7.91
67 3.25
68 4.86
73 2.7
74 17.99
75 39.72
76 40.42
77 25.59
78 88.46
79 99.99
80 9.03
87 1.74
88 3.64
89 2.73
90 4.27
91 3.76
92 12.85
93 3.17
94 1.71
95 1.6
104 2.01
105 6.67
106 9.25
107 3.27
122 19.55
123 1.6
135 2.32
136 1.26
137 1.15
152 1.61
180 4.97
181 1.62
182 3.23
198 39.27
199 10.76
200 1.1

$$$$

     RDKit          2D

  6  5  0  0  0  0  0  0  0  0999 V2000
    1.2990    2.2500    0.0000 C   0  0  0  0  0  0  0  0  0  0  0  0
   -2.5981    3.0000    0.0000 C   0  0  0  0  0  0  0  0  0  0  0  0
   -1.2990    2.2500    0.0000 C   0  0  0  0  0  0  0  0  0  0  0  0
   -3.8971    2.2500    0.0000 I   0  0  0  0  0  0  0  0  0  0  0  0
   -1.2990    0.7500    0.0000 O   0  0  0  0  0  0  0  0  0  0  0  0
    0.0000    3.0000    0.0000 O   0  0  0  0  0  0  0  0  0  0  0  0
  3  2  1  0
  4  2  1  0
  5  3  2  0
  6  1  1  0
  6  3  1  0
M  END
>  <NAME>  (1182) 
IODOACETIC ACID METHYL ESTER

>  <SYNONYMS>  (1182) 


>  <SPECTRUM TYPE>  (1182) 
MS1

>  <INSTRUMENT TYPE>  (1182) 
EI-B

>  <INSTRUMENT>  (1182) 
JEOL JMS-DX-303

>  <ION MODE>  (1182) 
P

>  <INCHIKEY>  (1182) 
YDGMIJCIBXSCQR-UHFFFAOYSA-N

>  <FORMULA>  (1182) 
C3H5IO2

>  <EXACT MASS>  (1182) 
199.9334274

>  <MW>  (1182) 
200

>  <ID>  (1182) 
JP010443

>  <CONTRIBUTOR>  (1182) 
University of Tokyo Team, {Faculty of Engineering, University of Tokyo

>  <COMMENT>  (1182) 
SMILES=COC(=O)CI
InChI=InChI=1S/C3H5IO2/c1-6-3(5)2-4/h2H2,1H3
computed SMILES=O=C(OC)CI
accession=JP010443
date=2016.01.19 (Created 2008.10.21, modified 2011.05.06)
author=UOEH
license=CC BY-NC-SA
exact mass=199.93342
ionization energy=70 eV
ion type=[M]+*
computed spectral entropy=1.8620934738209838
computed normalized entropy=0.6876140896734811
SPLASH=splash10-0uk9-7690000000-11c4a47c80e5297e59da
submitter=submitter = University of Tokyo Team (Faculty of Engineering, University of Tokyo)
MoNA Rating=3.75

>  <NUM PEAKS>  (1182) 
15

>  <MASS SPECTRAL PEAKS>  (1182) 
41 1.06
42 10.9
45 1.79
59 5.75
73 59.41
74 3.43
127 8.35
128 1.44
139 1.05
140 3.09
141 31.7
168 3.91
169 29.85
200 99.99
201 3.82

$$$$

     RDKit          2D

  8  7  0  0  0  0  0  0  0  0999 V2000
   -4.2219    2.8125    0.0000 C   0  0  0  0  0  0  0  0  0  0  0  0
   -1.6238    2.8125    0.0000 C   0  0  0  0  0  0  0  0  0  0  0  0
   -0.3248    2.0625    0.0000 C   0  0  0  0  0  0  0  0  0  0  0  0
   -1.0748    0.7635    0.0000 Cl  0  0  0  0  0  0  0  0  0  0  0  0
    0.9743    1.3125    0.0000 Cl  0  0  0  0  0  0  0  0  0  0  0  0
    0.4252    3.3615    0.0000 Cl  0  0  0  0  0  0  0  0  0  0  0  0
   -1.6238    4.3125    0.0000 O   0  0  0  0  0  0  0  0  0  0  0  0
   -2.9228    2.0625    0.0000 O   0  0  0  0  0  0  0  0  0  0  0  0
  3  2  1  0
  4  3  1  0
  5  3  1  0
  6  3  1  0
  7  2  2  0
  8  1  1  0
  8  2  1  0
M  END
>  <NAME>  (1183) 
TRICHLOROACETIC ACID METHYL ESTER

>  <SYNONYMS>  (1183) 


>  <SPECTRUM TYPE>  (1183) 
MS1

>  <INSTRUMENT TYPE>  (1183) 
EI-B

>  <INSTRUMENT>  (1183) 
JEOL JMS-DX-303

>  <ION MODE>  (1183) 
P

>  <INCHIKEY>  (1183) 
VHFUHRXYRYWELT-UHFFFAOYSA-N

>  <FORMULA>  (1183) 
C3H3Cl3O2

>  <EXACT MASS>  (1183) 
175.919862376

>  <MW>  (1183) 
176

>  <ID>  (1183) 
JP010442

>  <CONTRIBUTOR>  (1183) 
University of Tokyo Team, {Faculty of Engineering, University of Tokyo

>  <COMMENT>  (1183) 
SMILES=COC(=O)C(Cl)(Cl)Cl
InChI=InChI=1S/C3H3Cl3O2/c1-8-2(7)3(4,5)6/h1H3
computed SMILES=O=C(OC)C(Cl)(Cl)Cl
accession=JP010442
date=2016.01.19 (Created 2008.10.21, modified 2011.05.06)
author=UOEH
license=CC BY-NC-SA
exact mass=175.91986
ionization energy=70 eV
ion type=[M]+*
computed spectral entropy=2.058839053707166
computed normalized entropy=0.6872573600392734
SPLASH=splash10-0aor-9600000000-2f0ebcd417ccb1fe7efe
submitter=submitter = University of Tokyo Team (Faculty of Engineering, University of Tokyo)
MoNA Rating=3.75

>  <NUM PEAKS>  (1183) 
20

>  <MASS SPECTRAL PEAKS>  (1183) 
47 5.71
49 2.64
59 99.99
60 3.53
61 1.27
63 3.85
65 1.28
82 11.16
84 7.17
86 1.33
110 1.83
112 1.42
113 4.46
115 2.72
117 31.9
119 29.64
121 10
123 1.03
141 6.73
143 5.95

$$$$

     RDKit          2D

  7  6  0  0  0  0  0  0  0  0999 V2000
   -3.8971    2.2500    0.0000 C   0  0  0  0  0  0  0  0  0  0  0  0
    0.0000    1.5000    0.0000 C   0  0  0  0  0  0  0  0  0  0  0  0
   -1.2990    2.2500    0.0000 C   0  0  0  0  0  0  0  0  0  0  0  0
    1.2990    2.2500    0.0000 Cl  0  0  0  0  0  0  0  0  0  0  0  0
   -0.0000    0.0000    0.0000 Cl  0  0  0  0  0  0  0  0  0  0  0  0
   -1.2990    3.7500    0.0000 O   0  0  0  0  0  0  0  0  0  0  0  0
   -2.5981    1.5000    0.0000 O   0  0  0  0  0  0  0  0  0  0  0  0
  3  2  1  0
  4  2  1  0
  5  2  1  0
  6  3  2  0
  7  1  1  0
  7  3  1  0
M  END
>  <NAME>  (1184) 
DICHLOROACETIC ACID METHYL ESTER

>  <SYNONYMS>  (1184) 


>  <SPECTRUM TYPE>  (1184) 
MS1

>  <INSTRUMENT TYPE>  (1184) 
EI-B

>  <INSTRUMENT>  (1184) 
JEOL JMS-DX-303

>  <ION MODE>  (1184) 
P

>  <INCHIKEY>  (1184) 
HKMLRUAPIDAGIE-UHFFFAOYSA-N

>  <FORMULA>  (1184) 
C3H4Cl2O2

>  <EXACT MASS>  (1184) 
141.958834728

>  <MW>  (1184) 
142

>  <ID>  (1184) 
JP010441

>  <CONTRIBUTOR>  (1184) 
University of Tokyo Team, {Faculty of Engineering, University of Tokyo

>  <COMMENT>  (1184) 
SMILES=COC(=O)C(Cl)Cl
InChI=InChI=1S/C3H4Cl2O2/c1-7-3(6)2(4)5/h2H,1H3
computed SMILES=O=C(OC)C(Cl)Cl
accession=JP010441
date=2016.01.19 (Created 2008.10.21, modified 2011.05.06)
author=UOEH
license=CC BY-NC-SA
exact mass=141.95883
ionization energy=70 eV
ion type=[M]+*
computed spectral entropy=1.8696196779170653
computed normalized entropy=0.6240943806700856
SPLASH=splash10-0a4i-9000000000-c085f021834768233f00
submitter=submitter = University of Tokyo Team (Faculty of Engineering, University of Tokyo)
MoNA Rating=3.75

>  <NUM PEAKS>  (1184) 
20

>  <MASS SPECTRAL PEAKS>  (1184) 
40 1.11
44 1.23
47 2.7
48 6.77
49 1.77
50 2.38
59 99.99
60 3.25
63 8.77
65 3.85
76 4.3
78 1.56
83 49.35
84 1.22
85 32.02
87 5.69
98 1.4
100 1.17
111 1.65
113 2.09

$$$$

     RDKit          2D

  8  7  0  0  0  0  0  0  0  0999 V2000
    0.0000    0.0000    0.0000 C   0  0  0  0  0  0  0  0  0  0  0  0
   -2.5981    6.0000    0.0000 C   0  0  0  0  0  0  0  0  0  0  0  0
   -1.2990    2.2500    0.0000 C   0  0  0  0  0  0  0  0  0  0  0  0
   -1.2990    3.7500    0.0000 C   0  0  0  0  0  0  0  0  0  0  0  0
    0.0000    1.5000    0.0000 C   0  0  0  0  0  0  0  0  0  0  0  0
   -2.5981    4.5000    0.0000 C   0  0  0  0  0  0  0  0  0  0  0  0
    1.2990    2.2500    0.0000 O   0  0  0  0  0  0  0  0  0  0  0  0
   -3.8971    3.7500    0.0000 O   0  0  0  0  0  0  0  0  0  0  0  0
  4  3  1  0
  5  1  1  0
  5  3  1  0
  6  2  1  0
  6  4  1  0
  7  5  2  0
  8  6  2  0
M  END
>  <NAME>  (1185) 
2,5-HEXADIONE

>  <SYNONYMS>  (1185) 


>  <SPECTRUM TYPE>  (1185) 
MS1

>  <INSTRUMENT TYPE>  (1185) 
EI-B

>  <INSTRUMENT>  (1185) 
JEOL JMS-DX-303

>  <ION MODE>  (1185) 
P

>  <INCHIKEY>  (1185) 
OJVAMHKKJGICOG-UHFFFAOYSA-N

>  <FORMULA>  (1185) 
C6H10O2

>  <EXACT MASS>  (1185) 
114.06807956

>  <MW>  (1185) 
114

>  <ID>  (1185) 
JP010439

>  <CONTRIBUTOR>  (1185) 
University of Tokyo Team, {Faculty of Engineering, University of Tokyo

>  <COMMENT>  (1185) 
SMILES=CC(=O)CCC(C)=O
InChI=InChI=1S/C6H10O2/c1-5(7)3-4-6(2)8/h3-4H2,1-2H3
computed SMILES=O=C(C)CCC(=O)C
accession=JP010439
date=2016.01.19 (Created 2008.10.21, modified 2011.05.06)
author=UOEH
license=CC BY-NC-SA
exact mass=114.06808
ionization energy=70 eV
ion type=[M]+*
computed spectral entropy=1.652301193182656
computed normalized entropy=0.6260952252308747
SPLASH=splash10-0006-9000000000-61efac74c40d64ce7b37
submitter=submitter = University of Tokyo Team (Faculty of Engineering, University of Tokyo)
MoNA Rating=3.75

>  <NUM PEAKS>  (1185) 
14

>  <MASS SPECTRAL PEAKS>  (1185) 
39 1.72
41 1.44
42 3.49
43 99.99
44 2.66
53 1.29
55 1.54
57 8.07
71 18.56
72 3.99
99 42.15
100 2.52
114 16.35
115 1.21

$$$$

     RDKit          2D

  6  5  0  0  0  0  0  0  0  0999 V2000
    1.3493    2.0625    0.0000 C   0  0  0  0  0  0  0  0  0  0  0  0
    0.0502    1.3125    0.0000 C   0  0  0  0  0  0  0  0  0  0  0  0
    0.8002    0.0135    0.0000 Cl  0  0  0  0  0  0  0  0  0  0  0  0
   -0.6998    2.6115    0.0000 Cl  0  0  0  0  0  0  0  0  0  0  0  0
   -1.2488    0.5625    0.0000 Cl  0  0  0  0  0  0  0  0  0  0  0  0
    1.3493    3.5625    0.0000 O   0  0  0  0  0  0  0  0  0  0  0  0
  2  1  1  0
  3  2  1  0
  4  2  1  0
  5  2  1  0
  6  1  2  0
M  END
>  <NAME>  (1186) 
TRICHLOROACETALDEHYDE

>  <SYNONYMS>  (1186) 
CHLORAL

>  <SPECTRUM TYPE>  (1186) 
MS1

>  <INSTRUMENT TYPE>  (1186) 
EI-B

>  <INSTRUMENT>  (1186) 
JEOL JMS-DX-303

>  <ION MODE>  (1186) 
P

>  <INCHIKEY>  (1186) 
HFFLGKNGCAIQMO-UHFFFAOYSA-N

>  <FORMULA>  (1186) 
C2HCl3O

>  <EXACT MASS>  (1186) 
145.909297692

>  <MW>  (1186) 
146

>  <ID>  (1186) 
JP010438

>  <CONTRIBUTOR>  (1186) 
University of Tokyo Team, {Faculty of Engineering, University of Tokyo

>  <COMMENT>  (1186) 
SMILES=O=CC(Cl)(Cl)Cl
InChI=InChI=1S/C2HCl3O/c3-2(4,5)1-6/h1H
computed SMILES=O=CC(Cl)(Cl)Cl
accession=JP010438
date=2016.01.19 (Created 2008.10.21, modified 2011.05.06)
author=UOEH
license=CC BY-NC-SA
exact mass=145.9093
ionization energy=70 eV
ion type=[M]+*
computed spectral entropy=2.9840540893389793
computed normalized entropy=0.8534384773609437
SPLASH=splash10-01q9-9500000000-eedc44e9ee3b1422c7a1
submitter=submitter = University of Tokyo Team (Faculty of Engineering, University of Tokyo)
MoNA Rating=3.75

>  <NUM PEAKS>  (1186) 
33

>  <MASS SPECTRAL PEAKS>  (1186) 
35 3.07
37 1.27
40 9.25
44 6.74
47 24.91
48 10.96
49 12.28
50 2.75
60 1.79
61 34.59
62 1.51
82 99.99
83 32.93
84 66.29
85 19.68
86 11.7
87 3.39
107 3.51
110 14.86
111 42.98
112 12.76
113 28.17
114 3.92
115 5.46
117 13.19
118 18.02
119 14.28
120 17.09
121 4.29
122 5.32
146 10.5
148 10.7
150 3.29

$$$$

     RDKit          2D

 21 22  0  0  0  0  0  0  0  0999 V2000
   -5.7606    0.7205    0.0000 C   0  0  0  0  0  0  0  0  0  0  0  0
   -4.4615   -1.5295    0.0000 C   0  0  0  0  0  0  0  0  0  0  0  0
    6.2862    0.7536    0.0000 C   0  0  0  0  0  0  0  0  0  0  0  0
    4.1851    2.2826    0.0000 C   0  0  0  0  0  0  0  0  0  0  0  0
    3.9122   -0.3030    0.0000 C   0  0  0  0  0  0  0  0  0  0  0  0
   -0.3987    2.2134    0.0000 C   0  0  0  0  0  0  0  0  0  0  0  0
   -4.4615   -0.0295    0.0000 C   0  0  0  0  0  0  0  0  0  0  0  0
    5.6768    2.1252    0.0000 C   0  0  0  0  0  0  0  0  0  0  0  0
    5.4039   -0.4604    0.0000 C   0  0  0  0  0  0  0  0  0  0  0  0
    3.3028    1.0685    0.0000 C   0  0  0  0  0  0  0  0  0  0  0  0
    1.0611    2.5250    0.0000 C   0  0  0  0  0  0  0  0  0  0  0  0
   -1.8635   -0.0295    0.0000 C   0  0  0  0  0  0  0  0  0  0  0  0
    0.8113    0.1176    0.0000 C   0  0  0  0  0  0  0  0  0  0  0  0
    6.5593    3.3382    0.0000 Cl  0  0  0  0  0  0  0  0  0  0  0  0
    6.0136   -1.8309    0.0000 Cl  0  0  0  0  0  0  0  0  0  0  0  0
   -3.1625    0.7205    0.0000 N   0  0  0  0  0  0  0  0  0  0  0  0
   -0.5644    0.7205    0.0000 N   0  0  0  0  0  0  0  0  0  0  0  0
    1.8111    1.2260    0.0000 N   0  0  0  0  0  0  0  0  0  0  0  0
    1.6706    3.8956    0.0000 O   0  0  0  0  0  0  0  0  0  0  0  0
   -1.8635   -1.5295    0.0000 O   0  0  0  0  0  0  0  0  0  0  0  0
    1.1269   -1.3488    0.0000 O   0  0  0  0  0  0  0  0  0  0  0  0
  7  1  1  0
  7  2  1  0
  8  3  2  0
  8  4  1  0
  9  3  1  0
  9  5  2  0
 10  4  2  0
 10  5  1  0
 11  6  1  0
 14  8  1  0
 15  9  1  0
 16  7  1  0
 16 12  2  3
 17  6  1  0
 17 12  1  0
 17 13  1  0
 18 10  1  0
 18 11  1  0
 18 13  1  0
 19 11  2  0
 20 12  1  0
 21 13  2  0
M  END
>  <NAME>  (1187) 
3-(3,5-DICHLOROPHENYL)-N-ISOPROPYL-2,4-DIOXOIMIDAZOLIDINE-1-CARBOXAMIDE

>  <SYNONYMS>  (1187) 


>  <SPECTRUM TYPE>  (1187) 
MS1

>  <INSTRUMENT TYPE>  (1187) 
EI-B

>  <INSTRUMENT>  (1187) 
JEOL JMS-DX-303

>  <ION MODE>  (1187) 
P

>  <INCHIKEY>  (1187) 
ONUFESLQCSAYKA-UHFFFAOYSA-N

>  <FORMULA>  (1187) 
C13H13Cl2N3O3

>  <EXACT MASS>  (1187) 
329.033396636

>  <MW>  (1187) 
329

>  <ID>  (1187) 
JP010437

>  <CONTRIBUTOR>  (1187) 
University of Tokyo Team, {Faculty of Engineering, University of Tokyo

>  <COMMENT>  (1187) 
SMILES=CC(C)NC(=O)N(C2)C(=O)N(C(=O)2)c(c1)cc(Cl)cc(Cl)1
InChI=InChI=1S/C13H13Cl2N3O3/c1-7(2)16-12(20)17-6-11(19)18(13(17)21)10-4-8(14)3-9(15)5-10/h3-5,7H,6H2,1-2H3,(H,16,20)
computed SMILES=O=C1N(C(=O)CN1C(O)=NC(C)C)C=2C=C(Cl)C=C(Cl)C2
accession=JP010437
date=2016.01.19 (Created 2008.10.21, modified 2011.05.06)
author=UOEH
license=CC BY-NC-SA
exact mass=329.0334
ionization energy=70 eV
ion type=[M]+*
computed spectral entropy=3.288126805897908
computed normalized entropy=0.799860787399553
SPLASH=splash10-03xr-3449000000-5aaa9c29bcdf12721b52
submitter=submitter = University of Tokyo Team (Faculty of Engineering, University of Tokyo)
MoNA Rating=3.75

>  <NUM PEAKS>  (1187) 
61

>  <MASS SPECTRAL PEAKS>  (1187) 
39 1.47
41 5.1
42 4.39
43 13.85
56 14.51
58 15.07
62 1.05
70 14.02
84 3.22
99 1.68
109 1.07
124 4.77
126 1.63
145 2.51
147 1.98
149 2.53
153 1.18
157 3.21
158 2.66
159 3.14
160 1.22
161 2.61
162 1.28
163 1.24
166 1.1
172 1.01
174 1.81
181 1.48
187 21.97
188 12.95
189 16.53
190 5.43
191 3.49
192 1.42
195 1.32
216 11.19
217 1.18
218 7.61
219 1.24
243 1.17
244 12.32
245 21.15
246 11.24
247 12.2
248 3.13
249 2.46
271 8.32
272 1.34
273 6.5
275 2.11
287 1.11
314 99.99
315 15.01
316 65.23
317 10.32
318 10.54
319 1.57
329 7.07
330 1.8
331 3.52
333 1.19

$$$$

     RDKit          2D

 19 21  0  0  0  0  0  0  0  0999 V2000
   -0.0690    2.7743    0.0000 C   0  0  0  0  0  0  0  0  0  0  0  0
   -0.0690   -0.5957    0.0000 C   0  0  0  0  0  0  0  0  0  0  0  0
   -1.2390    1.8443    0.0000 C   0  0  0  0  0  0  0  0  0  0  0  0
   -1.2390    0.3443    0.0000 C   0  0  0  0  0  0  0  0  0  0  0  0
   -3.8390    1.8443    0.0000 C   0  0  0  0  0  0  0  0  0  0  0  0
   -3.8390    0.3443    0.0000 C   0  0  0  0  0  0  0  0  0  0  0  0
   -2.5390    2.5843    0.0000 C   0  0  0  0  0  0  0  0  0  0  0  0
   -2.5390   -0.4157    0.0000 C   0  0  0  0  0  0  0  0  0  0  0  0
   -1.9290    1.0243    0.0000 C   0  0  0  0  0  0  0  0  0  0  0  0
   -5.1357    2.5983    0.0000 Cl  0  0  0  0  0  0  0  0  0  0  0  0
   -5.1401   -0.4021    0.0000 Cl  0  0  0  0  0  0  0  0  0  0  0  0
   -2.5390    4.0843    0.0000 Cl  0  0  0  0  0  0  0  0  0  0  0  0
   -2.5390   -1.9157    0.0000 Cl  0  0  0  0  0  0  0  0  0  0  0  0
   -0.8365   -1.7052    0.0000 Cl  0  0  0  0  0  0  0  0  0  0  0  0
   -0.0314    1.5895    0.0000 Cl  0  0  0  0  0  0  0  0  0  0  0  0
    3.5410    1.0965    0.0000 O   0  0  0  0  0  0  0  0  0  0  0  0
    1.3910    2.4443    0.0000 O   0  0  0  0  0  0  0  0  0  0  0  0
    1.3910   -0.2657    0.0000 O   0  0  0  0  0  0  0  0  0  0  0  0
    2.0410    1.0943    0.0000 S   0  0  0  0  0  0  0  0  0  0  0  0
  3  1  1  0
  4  2  1  0
  4  3  1  0
  6  5  2  0
  7  3  1  0
  7  5  1  0
  8  4  1  0
  8  6  1  0
  9  7  1  0
  9  8  1  0
 10  5  1  0
 11  6  1  0
 12  7  1  0
 13  8  1  0
 14  9  1  0
 15  9  1  0
 17  1  1  0
 18  2  1  0
 19 16  2  0
 19 17  1  0
 19 18  1  0
M  END
>  <NAME>  (1188) 
6,7,8,9,10,10-HEXACHLORO-1,5,5A,6,9,9A-HEXAHYDRO-6,9-METHANO-2,4,3-BENZODIOXATHIEPIN3-OXIDE

>  <SYNONYMS>  (1188) 
ENDOSULFAN

>  <SPECTRUM TYPE>  (1188) 
MS1

>  <INSTRUMENT TYPE>  (1188) 
EI-B

>  <INSTRUMENT>  (1188) 
JEOL JMS-DX-303

>  <ION MODE>  (1188) 
P

>  <INCHIKEY>  (1188) 
RDYMFSUJUZBWLH-UHFFFAOYSA-N

>  <FORMULA>  (1188) 
C9H6Cl6O3S

>  <EXACT MASS>  (1188) 
403.81688113199993

>  <MW>  (1188) 
404

>  <ID>  (1188) 
JP010436

>  <CONTRIBUTOR>  (1188) 
University of Tokyo Team, {Faculty of Engineering, University of Tokyo

>  <COMMENT>  (1188) 
SMILES=[O-1][S+1](O3)OCC(C(C3)1)C(Cl)(C(Cl)=2)C(Cl)(Cl)C(Cl)(C(Cl)2)1
InChI=InChI=1S/C9H6Cl6O3S/c10-5-6(11)8(13)4-2-18-19(16)17-1-3(4)7(5,12)9(8,14)15/h3-4H,1-2H2
computed SMILES=O=S1OCC2C(CO1)C3(Cl)C(Cl)=C(Cl)C2(Cl)C3(Cl)Cl
accession=JP010436
date=2016.01.19 (Created 2008.10.21, modified 2011.05.06)
author=UOEH
license=CC BY-NC-SA
exact mass=403.81688
ionization energy=70 eV
ion type=[M]+*
computed spectral entropy=5.058969012943784
computed normalized entropy=0.8949984425628467
SPLASH=splash10-00kn-1591000000-c20a5584287e084876cd
submitter=submitter = University of Tokyo Team (Faculty of Engineering, University of Tokyo)
MoNA Rating=3.75

>  <NUM PEAKS>  (1188) 
285

>  <MASS SPECTRAL PEAKS>  (1188) 
36 4.41
37 1.29
38 1.67
39 13.02
41 12.1
42 2.16
43 5.41
44 2.33
47 1.04
48 5.3
49 5.3
50 5.44
51 3.99
52 1.35
53 5.31
54 1.48
55 1.04
60 1.88
61 4.53
62 3.62
63 10.24
64 2.36
65 7.26
67 1.37
68 2.15
69 19.71
70 2.04
72 2.38
73 9.98
74 7.05
75 23.18
76 1.67
77 6.01
78 15.26
79 5.04
81 1.27
83 7.4
84 7.86
85 19.07
86 8.35
87 5.78
89 22.41
90 1.48
91 8.34
95 1.12
96 3.71
97 8.73
98 3.98
99 11.92
100 2.69
101 3.03
102 29.4
103 22.89
104 13.74
105 1.59
106 2.12
107 11.19
108 8.46
109 17.62
110 2.98
111 5.85
112 1.98
113 1.76
114 1.27
117 9
118 2.17
119 16.42
120 24.21
121 26.26
122 6.33
123 6.81
124 2.2
125 3.26
126 1.44
129 1.21
130 3.66
131 5.02
132 3.58
133 13.59
134 6.34
135 13.94
136 9.97
137 11.52
138 7.14
139 6.21
140 1.38
141 13.29
142 1.56
143 18.06
144 5.4
145 15.54
146 5.84
147 7.17
148 4.59
149 2.79
150 4.91
151 1.27
152 1.65
153 1.67
154 1.08
155 3.31
156 1.5
157 15.2
158 4.69
159 42.24
160 43.06
161 31.24
162 32.65
163 5.99
164 6.08
165 8.42
167 11.08
168 3.83
169 17.13
170 50.9
171 20.1
172 32.98
173 7.89
174 6.98
175 1.57
177 1.89
178 2.15
179 5.24
180 8.75
181 11.3
182 8.98
183 12.82
184 4
185 4.99
186 2.63
187 2.7
188 1.06
189 1.62
190 1.51
191 15.43
192 7.28
193 45.81
194 15.88
195 99.99
196 18.29
197 83.68
198 7.89
199 24.59
200 3.01
201 11.27
202 1.57
203 10.02
204 38.25
205 45.71
206 47.91
207 67.4
208 21.38
209 41.84
210 7.41
211 11.5
212 1.91
213 3.49
214 6.75
215 6.04
216 14.67
217 8.53
218 9.61
219 4.83
220 4.48
221 6.55
222 4.23
223 9.04
224 2.06
225 8.18
226 5.14
227 27.01
228 16.58
229 49.84
230 18.09
231 39.09
232 10.9
233 20.66
234 7.68
235 47.34
236 9.78
237 69.89
238 10.63
239 70.49
240 34.88
241 86.61
242 43.35
243 69.08
244 26.58
245 28.51
246 8.48
247 7.56
248 6.24
249 1.94
250 10.23
251 5.96
252 9.99
253 6.52
254 8.44
255 4.77
256 5.74
257 6.42
258 5.97
259 5.3
260 9.59
261 36.38
262 7.47
263 53.28
264 6.86
265 62.62
266 7.61
267 54.07
268 6.32
269 48.2
270 26.07
271 41.77
272 46.18
273 18.55
274 39.71
275 41.34
276 21.86
277 72.55
278 10.94
279 50.82
280 6.8
281 21.99
283 4.06
285 1.59
286 4.17
287 2.54
288 3.85
289 2.76
290 1.98
291 2.98
293 14.72
294 1.58
295 20.81
296 3.29
297 14.87
298 3.53
299 6.71
300 1.84
301 2.92
303 1.58
305 21.17
306 2.97
307 33.97
308 4.67
309 22.67
310 3.19
311 11.33
312 1.63
313 3.86
314 1.2
315 1.49
321 14.84
322 1.68
323 21.2
324 2.81
325 13.72
326 1.58
327 4.8
329 2.26
337 35.2
338 4.02
339 53.61
340 4.87
341 37.23
342 5.18
343 12.98
344 1.26
345 2.39
355 1.93
357 4.05
358 1.64
359 3.01
362 1.78
368 2.03
369 1.93
370 3.36
371 1.56
373 1.87
404 2.11
406 3.72
408 2.55
410 1.13

$$$$

     RDKit          2D

 20 21  0  0  0  0  0  0  0  0999 V2000
    6.5095    4.1724    0.0000 C   0  0  0  0  0  0  0  0  0  0  0  0
    5.3504   -0.2591    0.0000 C   0  0  0  0  0  0  0  0  0  0  0  0
    5.6311    2.9565    0.0000 C   0  0  0  0  0  0  0  0  0  0  0  0
    3.8960   -0.6259    0.0000 C   0  0  0  0  0  0  0  0  0  0  0  0
   -5.3495   -1.9814    0.0000 C   0  0  0  0  0  0  0  0  0  0  0  0
   -4.2343   -2.9858    0.0000 C   0  0  0  0  0  0  0  0  0  0  0  0
   -5.0382   -0.5132    0.0000 C   0  0  0  0  0  0  0  0  0  0  0  0
   -2.8078   -2.5220    0.0000 C   0  0  0  0  0  0  0  0  0  0  0  0
   -3.6117   -0.0494    0.0000 C   0  0  0  0  0  0  0  0  0  0  0  0
   -0.6100    0.8300    0.0000 C   0  0  0  0  0  0  0  0  0  0  0  0
   -2.4965   -1.0538    0.0000 C   0  0  0  0  0  0  0  0  0  0  0  0
   -1.0700   -0.5900    0.0000 C   0  0  0  0  0  0  0  0  0  0  0  0
    0.8900    0.8300    0.0000 C   0  0  0  0  0  0  0  0  0  0  0  0
    1.3600   -0.5900    0.0000 N   0  0  0  0  0  0  0  0  0  0  0  0
    4.1389    3.1092    0.0000 O   0  0  0  0  0  0  0  0  0  0  0  0
    2.8511    0.4502    0.0000 O   0  0  0  0  0  0  0  0  0  0  0  0
    0.1400   -1.4700    0.0000 O   0  0  0  0  0  0  0  0  0  0  0  0
    1.7684    2.0459    0.0000 O   0  0  0  0  0  0  0  0  0  0  0  0
    3.2606    1.8932    0.0000 P   0  0  0  0  0  0  0  0  0  0  0  0
    4.6105    1.2394    0.0000 S   0  0  0  0  0  0  0  0  0  0  0  0
  3  1  1  0
  4  2  1  0
  6  5  2  0
  7  5  1  0
  8  6  1  0
  9  7  2  0
 11  8  2  0
 11  9  1  0
 12 10  2  0
 12 11  1  0
 13 10  1  0
 14 13  2  0
 15  3  1  0
 16  4  1  0
 17 12  1  0
 17 14  1  0
 18 13  1  0
 19 15  1  0
 19 16  1  0
 19 18  1  0
 20 19  2  0
M  END
>  <NAME>  (1189) 
PHOSPHOROTHIOIC ACID O,O-DIETHYL O-(5-PHENYL-3-ISOXAZOLYL) ESTER

>  <SYNONYMS>  (1189) 


>  <SPECTRUM TYPE>  (1189) 
MS1

>  <INSTRUMENT TYPE>  (1189) 
EI-B

>  <INSTRUMENT>  (1189) 
JEOL JMS-DX-303

>  <ION MODE>  (1189) 
P

>  <INCHIKEY>  (1189) 
SDMSCIWHRZJSRN-UHFFFAOYSA-N

>  <FORMULA>  (1189) 
C13H16NO4PS

>  <EXACT MASS>  (1189) 
313.053765622

>  <MW>  (1189) 
313

>  <ID>  (1189) 
JP010435

>  <CONTRIBUTOR>  (1189) 
University of Tokyo Team, {Faculty of Engineering, University of Tokyo

>  <COMMENT>  (1189) 
SMILES=CCOP(=S)(OCC)Oc(n2)cc(o2)c(c1)cccc1
InChI=InChI=1S/C13H16NO4PS/c1-3-15-19(20,16-4-2)18-13-10-12(17-14-13)11-8-6-5-7-9-11/h5-10H,3-4H2,1-2H3
computed SMILES=S=P(OC1=NOC(=C1)C=2C=CC=CC2)(OCC)OCC
accession=JP010435
date=2016.01.19 (Created 2008.10.21, modified 2011.05.06)
author=UOEH
license=CC BY-NC-SA
exact mass=313.05377
ionization energy=70 eV
ion type=[M]+*
computed spectral entropy=3.5301270973026515
computed normalized entropy=0.7884434974575518
SPLASH=splash10-0a6r-2901000000-ea7345f297a256740dfa
submitter=submitter = University of Tokyo Team (Faculty of Engineering, University of Tokyo)
MoNA Rating=3.75

>  <NUM PEAKS>  (1189) 
88

>  <MASS SPECTRAL PEAKS>  (1189) 
36 1.39
39 1.69
45 4.02
47 1.11
50 3.03
51 9.74
61 1.73
63 2.01
65 5.1
69 1.08
74 1.63
75 1.87
76 3.37
77 34
78 4.89
81 4.21
89 3.46
90 1.44
91 3.23
93 3.65
97 13.29
99 2.97
102 6
103 2.32
104 1.61
105 99.99
106 7.94
109 9.48
111 1.19
113 6.76
114 1.69
115 1.86
116 6.41
117 1.44
121 2.75
125 4.98
127 3.41
128 1.75
129 4.09
130 17.48
131 3.28
132 1.66
136 4.04
137 1.76
141 7.91
142 1.27
143 1.16
144 1.04
145 5.59
146 2.37
147 2.2
148 1.61
149 3.91
150 1.29
153 2.39
158 1.13
159 18.06
160 3
161 9.59
162 7.17
163 1.01
164 3.14
169 4.09
170 1.81
171 1.3
172 3.65
174 3.1
177 76.85
178 10.11
179 4.69
180 1.24
186 1.24
188 2.47
192 1.91
205 1.09
208 10.36
209 1.35
224 1
236 1.35
240 2.65
257 1.57
284 1.12
285 6.88
286 1.17
312 1.64
313 55.06
314 9.04
315 3.52

$$$$

     RDKit          2D

 18 18  0  0  0  0  0  0  0  0999 V2000
   -2.5981    7.2800    0.0000 C   0  0  0  0  0  0  0  0  0  0  0  0
   -3.8971    5.0300    0.0000 C   0  0  0  0  0  0  0  0  0  0  0  0
    5.1962    2.7800    0.0000 C   0  0  0  0  0  0  0  0  0  0  0  0
    3.8971    5.0300    0.0000 C   0  0  0  0  0  0  0  0  0  0  0  0
   -0.7500   -1.0300    0.0000 C   0  0  0  0  0  0  0  0  0  0  0  0
    0.7500   -1.0300    0.0000 C   0  0  0  0  0  0  0  0  0  0  0  0
   -2.5981    5.7800    0.0000 C   0  0  0  0  0  0  0  0  0  0  0  0
    3.8971    3.5300    0.0000 C   0  0  0  0  0  0  0  0  0  0  0  0
    0.0000    2.7800    0.0000 C   0  0  0  0  0  0  0  0  0  0  0  0
   -1.2990    3.5300    0.0000 C   0  0  0  0  0  0  0  0  0  0  0  0
    1.2990    3.5300    0.0000 C   0  0  0  0  0  0  0  0  0  0  0  0
   -0.0000    1.2800    0.0000 C   0  0  0  0  0  0  0  0  0  0  0  0
   -2.5981    2.7800    0.0000 O   0  0  0  0  0  0  0  0  0  0  0  0
    1.2990    5.0300    0.0000 O   0  0  0  0  0  0  0  0  0  0  0  0
   -1.2990    5.0300    0.0000 O   0  0  0  0  0  0  0  0  0  0  0  0
    2.5981    2.7800    0.0000 O   0  0  0  0  0  0  0  0  0  0  0  0
   -1.2100    0.3900    0.0000 S   0  0  0  0  0  0  0  0  0  0  0  0
    1.2100    0.3900    0.0000 S   0  0  0  0  0  0  0  0  0  0  0  0
  6  5  1  0
  7  1  1  0
  7  2  1  0
  8  3  1  0
  8  4  1  0
 10  9  1  0
 11  9  1  0
 12  9  2  3
 13 10  2  0
 14 11  2  0
 15  7  1  0
 15 10  1  0
 16  8  1  0
 16 11  1  0
 17  5  1  0
 17 12  1  0
 18  6  1  0
 18 12  1  0
M  END
>  <NAME>  (1190) 
DIISOPROPYL 1,3-DITHIOLAN-2-YLIDENEMALONATE

>  <SYNONYMS>  (1190) 


>  <SPECTRUM TYPE>  (1190) 
MS1

>  <INSTRUMENT TYPE>  (1190) 
EI-B

>  <INSTRUMENT>  (1190) 
JEOL JMS-DX-303

>  <ION MODE>  (1190) 
P

>  <INCHIKEY>  (1190) 
UFHLMYOGRXOCSL-UHFFFAOYSA-N

>  <FORMULA>  (1190) 
C12H18O4S2

>  <EXACT MASS>  (1190) 
290.064651056

>  <MW>  (1190) 
290

>  <ID>  (1190) 
JP010434

>  <CONTRIBUTOR>  (1190) 
University of Tokyo Team, {Faculty of Engineering, University of Tokyo

>  <COMMENT>  (1190) 
SMILES=CC(C)OC(=O)C(C(=O)OC(C)C)=C(S1)SCC1
InChI=InChI=1S/C12H18O4S2/c1-7(2)15-10(13)9(11(14)16-8(3)4)12-17-5-6-18-12/h7-8H,5-6H2,1-4H3
computed SMILES=O=C(OC(C)C)C(C(=O)OC(C)C)=C1SCCS1
accession=JP010434
date=2016.01.19 (Created 2008.10.21, modified 2011.05.06)
author=UOEH
license=CC BY-NC-SA
exact mass=290.06465
ionization energy=70 eV
ion type=[M]+*
computed spectral entropy=3.353488268222933
computed normalized entropy=0.7920179297761691
SPLASH=splash10-0j4u-2940000000-f1f31a9094505265794f
submitter=submitter = University of Tokyo Team (Faculty of Engineering, University of Tokyo)
MoNA Rating=3.75

>  <NUM PEAKS>  (1190) 
69

>  <MASS SPECTRAL PEAKS>  (1190) 
39 3.63
41 16.57
42 2.39
43 35.06
44 1.51
45 5.31
58 1.62
59 4.59
60 8.32
61 8.64
71 1
72 2.19
74 1.41
76 1.91
84 2.05
85 8.06
86 3.57
87 1.32
88 3.67
89 8.39
90 1.05
93 2.1
102 2.3
103 1.54
105 3.52
116 10.62
117 1.88
118 99.99
119 6.21
120 9.93
128 1.83
129 5.04
133 3.05
134 13.44
136 1.53
144 8.75
145 24.25
146 6.09
147 3.81
159 2.5
160 17.96
161 5.01
162 97.31
163 8.9
164 9.08
172 1.07
173 5.31
176 5.96
178 27.35
179 1.72
180 2.25
187 2.42
189 86.3
190 8
191 8.78
192 1.01
204 62.37
205 8.33
206 13.43
220 1.57
231 49.23
232 6.41
233 4.56
248 1.81
271 1.1
290 75.75
291 11.74
292 9.2
293 1.63

$$$$

     RDKit          2D

 19 19  0  0  0  0  0  0  0  0999 V2000
   -2.4644   -1.6985    0.0000 C   0  0  0  0  0  0  0  0  0  0  0  0
   -5.0625    2.8015    0.0000 C   0  0  0  0  0  0  0  0  0  0  0  0
   -4.9058    1.9129    0.0000 C   0  0  0  0  0  0  0  0  0  0  0  0
   -1.1654   -0.9485    0.0000 C   0  0  0  0  0  0  0  0  0  0  0  0
    4.0307    5.0515    0.0000 C   0  0  0  0  0  0  0  0  0  0  0  0
    2.7312    5.8023    0.0000 C   0  0  0  0  0  0  0  0  0  0  0  0
    4.0312    3.5506    0.0000 C   0  0  0  0  0  0  0  0  0  0  0  0
    1.4322    5.0523    0.0000 C   0  0  0  0  0  0  0  0  0  0  0  0
    2.7322    2.8006    0.0000 C   0  0  0  0  0  0  0  0  0  0  0  0
    1.4327    3.5515    0.0000 C   0  0  0  0  0  0  0  0  0  0  0  0
    0.1336    2.8015    0.0000 C   0  0  0  0  0  0  0  0  0  0  0  0
    0.1336    1.3015    0.0000 C   0  0  0  0  0  0  0  0  0  0  0  0
    1.4327    0.5515    0.0000 O   0  0  0  0  0  0  0  0  0  0  0  0
   -3.7635    3.5515    0.0000 O   0  0  0  0  0  0  0  0  0  0  0  0
   -3.4286    1.6524    0.0000 O   0  0  0  0  0  0  0  0  0  0  0  0
   -1.1654    0.5515    0.0000 O   0  0  0  0  0  0  0  0  0  0  0  0
   -2.4644    2.8015    0.0000 P   0  0  0  0  0  0  0  0  0  0  0  0
   -1.5003    1.6524    0.0000 S   0  0  0  0  0  0  0  0  0  0  0  0
   -1.1654    3.5515    0.0000 S   0  0  0  0  0  0  0  0  0  0  0  0
  4  1  1  0
  6  5  2  0
  7  5  1  0
  8  6  1  0
  9  7  2  0
 10  8  2  0
 10  9  1  0
 11 10  1  0
 12 11  1  0
 13 12  2  0
 14  2  1  0
 15  3  1  0
 16  4  1  0
 16 12  1  0
 17 14  1  0
 17 15  1  0
 18 17  2  0
 19 11  1  0
 19 17  1  0
M  END
>  <NAME>  (1191) 
PHOSPHORODITHIOIC ACID O,O-DIMETHYL S-(ALPHA-(ETHOXYCARBONYL)BENZYL) ESTER

>  <SYNONYMS>  (1191) 


>  <SPECTRUM TYPE>  (1191) 
MS1

>  <INSTRUMENT TYPE>  (1191) 
EI-B

>  <INSTRUMENT>  (1191) 
JEOL JMS-DX-303

>  <ION MODE>  (1191) 
P

>  <INCHIKEY>  (1191) 
XAMUDJHXFNRLCY-UHFFFAOYSA-N

>  <FORMULA>  (1191) 
C12H17O4PS2

>  <EXACT MASS>  (1191) 
320.030587654

>  <MW>  (1191) 
320

>  <ID>  (1191) 
JP010433

>  <CONTRIBUTOR>  (1191) 
University of Tokyo Team, {Faculty of Engineering, University of Tokyo

>  <COMMENT>  (1191) 
SMILES=CCOC(=O)C(c(c1)cccc1)SP(=S)(OC)OC
InChI=InChI=1S/C12H17O4PS2/c1-4-16-12(13)11(10-8-6-5-7-9-10)19-17(18,14-2)15-3/h5-9,11H,4H2,1-3H3
computed SMILES=O=C(OCC)C(SP(=S)(OC)OC)C=1C=CC=CC1
accession=JP010433
date=2016.01.19 (Created 2008.10.21, modified 2011.05.06)
author=UOEH
license=CC BY-NC-SA
exact mass=320.03059
ionization energy=70 eV
ion type=[M]+*
computed spectral entropy=3.1186234803295934
computed normalized entropy=0.7971894531300896
SPLASH=splash10-00di-5980000000-a41c1b6686eaa93e88cb
submitter=submitter = University of Tokyo Team (Faculty of Engineering, University of Tokyo)
MoNA Rating=3.75

>  <NUM PEAKS>  (1191) 
50

>  <MASS SPECTRAL PEAKS>  (1191) 
39 1.19
45 1.29
47 3.42
51 1.55
62 1.86
63 6.02
64 1.12
65 1.13
77 6.56
78 2.15
79 12.92
89 5.9
90 8.99
91 19.53
92 1.84
93 34.14
105 1.16
107 19.58
108 1.71
118 9.96
119 1.34
121 38.67
122 5.33
123 3.11
125 42.11
126 2.24
127 2.96
135 20.9
136 2.77
137 1.22
143 2.21
157 13.99
159 1.34
163 13.74
164 3.44
178 1.02
231 1.14
246 24.95
247 15.66
248 3.93
249 1.57
258 1.49
261 1.01
274 99.99
275 14.79
276 12.08
277 1.4
320 10.55
321 1.61
322 1.24

$$$$

     RDKit          2D

 20 20  0  0  0  0  0  0  0  0999 V2000
   -5.6118   -1.2600    0.0000 C   0  0  0  0  0  0  0  0  0  0  0  0
   -4.3128    0.9900    0.0000 C   0  0  0  0  0  0  0  0  0  0  0  0
    4.3128    1.4700    0.0000 C   0  0  0  0  0  0  0  0  0  0  0  0
    4.3134   -1.5306    0.0000 C   0  0  0  0  0  0  0  0  0  0  0  0
   -4.3128   -2.0100    0.0000 C   0  0  0  0  0  0  0  0  0  0  0  0
   -3.0138    0.2400    0.0000 C   0  0  0  0  0  0  0  0  0  0  0  0
    1.7142    1.4708    0.0000 C   0  0  0  0  0  0  0  0  0  0  0  0
    3.0138    0.7200    0.0000 C   0  0  0  0  0  0  0  0  0  0  0  0
    3.0142   -0.7808    0.0000 C   0  0  0  0  0  0  0  0  0  0  0  0
   -3.0138   -1.2600    0.0000 C   0  0  0  0  0  0  0  0  0  0  0  0
    0.4152    0.7208    0.0000 C   0  0  0  0  0  0  0  0  0  0  0  0
    0.4157   -0.7800    0.0000 C   0  0  0  0  0  0  0  0  0  0  0  0
    1.7152   -1.5308    0.0000 C   0  0  0  0  0  0  0  0  0  0  0  0
   -1.7147   -2.0100    0.0000 N   0  0  0  0  0  0  0  0  0  0  0  0
   -0.8839    1.4706    0.0000 N   0  0  0  0  0  0  0  0  0  0  0  0
    1.7150   -3.0308    0.0000 N   0  0  0  0  0  0  0  0  0  0  0  0
   -0.8842    2.9706    0.0000 O   0  0  0  0  0  0  0  0  0  0  0  0
   -2.1829    0.7204    0.0000 O   0  0  0  0  0  0  0  0  0  0  0  0
    3.0139   -3.7810    0.0000 O   0  0  0  0  0  0  0  0  0  0  0  0
    0.4158   -3.7806    0.0000 O   0  0  0  0  0  0  0  0  0  0  0  0
  5  1  1  0
  6  2  1  0
  8  3  1  0
  8  7  2  0
  9  4  1  0
  9  8  1  0
 10  5  1  0
 10  6  1  0
 11  7  1  0
 12 11  2  0
 13  9  2  0
 13 12  1  0
 14 10  1  0
 14 12  1  0
 15 11  1  0
 16 13  1  0
 17 15  1  0
 18 15  2  0
 19 16  1  0
 20 16  2  0
M  CHG  4  15   1  16   1  17  -1  19  -1
M  END
>  <NAME>  (1192) 
N-(1-ETHYLPROPYL)-3,4-DIMETHYL-2,6-DINITROANILINE

>  <SYNONYMS>  (1192) 


>  <SPECTRUM TYPE>  (1192) 
MS1

>  <INSTRUMENT TYPE>  (1192) 
EI-B

>  <INSTRUMENT>  (1192) 
JEOL JMS-DX-303

>  <ION MODE>  (1192) 
P

>  <INCHIKEY>  (1192) 
CHIFOSRWCNZCFN-UHFFFAOYSA-N

>  <FORMULA>  (1192) 
C13H19N3O4

>  <EXACT MASS>  (1192) 
281.137556088

>  <MW>  (1192) 
281

>  <ID>  (1192) 
JP010432

>  <CONTRIBUTOR>  (1192) 
University of Tokyo Team, {Faculty of Engineering, University of Tokyo

>  <COMMENT>  (1192) 
SMILES=CCC(CC)Nc(c([N+1]([O-1])=O)1)c([N+1]([O-1])=O)c(C)c(C)c1
InChI=InChI=1S/C13H19N3O4/c1-5-10(6-2)14-12-11(15(17)18)7-8(3)9(4)13(12)16(19)20/h7,10,14H,5-6H2,1-4H3
computed SMILES=O=N(=O)C=1C=C(C(=C(C1NC(CC)CC)N(=O)=O)C)C
accession=JP010432
date=2016.01.19 (Created 2008.10.21, modified 2011.05.06)
author=UOEH
license=CC BY-NC-SA
exact mass=281.13756
ionization energy=70 eV
ion type=[M]+*
computed spectral entropy=3.498282423536308
computed normalized entropy=0.7938518946284326
SPLASH=splash10-0udi-2790000000-9af68c7a73a4585c8e62
submitter=submitter = University of Tokyo Team (Faculty of Engineering, University of Tokyo)
MoNA Rating=3.75

>  <NUM PEAKS>  (1192) 
82

>  <MASS SPECTRAL PEAKS>  (1192) 
39 1.65
41 2.74
43 3.71
44 1.1
53 1.83
55 1.54
57 6.02
65 2.25
66 1.58
77 3.14
78 1.56
79 2.05
90 1.26
91 3.65
92 1.96
93 1.36
103 1.55
104 2.31
105 1.83
106 2.45
107 1.35
116 1.45
117 1.69
118 4.2
119 4.06
120 3.19
121 1.25
130 1.86
131 2.33
132 2.34
133 2.63
134 2.32
135 1.37
143 1.22
144 2.96
145 3.02
146 3.2
147 3.29
148 1.98
149 1.03
150 1.22
158 2.11
159 2.67
160 2.41
161 6.03
162 8.96
163 2.14
164 2.23
171 1.29
172 1.51
173 2.18
174 3.74
175 1.8
176 1.66
177 1.13
178 1.17
180 1.3
186 1.02
187 1.37
188 3.45
189 1.48
190 1.91
191 6.35
192 8.33
193 1.98
194 4.14
202 2.72
203 1.06
204 1.31
208 5.68
211 1.32
216 1.94
217 3.4
218 1.55
220 5.45
222 1.14
236 3.81
252 99.99
253 14.73
254 1.83
281 12.75
282 2.27

$$$$

     RDKit          2D

 18 18  0  0  0  0  0  0  0  0999 V2000
    7.7951   -1.5010    0.0000 C   0  0  0  0  0  0  0  0  0  0  0  0
    7.3040    1.2867    0.0000 C   0  0  0  0  0  0  0  0  0  0  0  0
    6.4962   -0.7508    0.0000 C   0  0  0  0  0  0  0  0  0  0  0  0
    6.3396    0.1378    0.0000 C   0  0  0  0  0  0  0  0  0  0  0  0
   -0.0000    1.5000    0.0000 C   0  0  0  0  0  0  0  0  0  0  0  0
   -1.3000    0.7500    0.0000 C   0  0  0  0  0  0  0  0  0  0  0  0
    1.3000    0.7500    0.0000 C   0  0  0  0  0  0  0  0  0  0  0  0
   -1.3000   -0.7500    0.0000 C   0  0  0  0  0  0  0  0  0  0  0  0
    1.3000   -0.7500    0.0000 C   0  0  0  0  0  0  0  0  0  0  0  0
   -2.5989    1.5002    0.0000 Cl  0  0  0  0  0  0  0  0  0  0  0  0
    2.5989    1.5002    0.0000 Cl  0  0  0  0  0  0  0  0  0  0  0  0
   -2.5989   -1.5002    0.0000 Cl  0  0  0  0  0  0  0  0  0  0  0  0
   -0.0000   -1.5000    0.0000 N   0  0  0  0  0  0  0  0  0  0  0  0
    5.1970   -1.5006    0.0000 O   0  0  0  0  0  0  0  0  0  0  0  0
    4.8624    0.3985    0.0000 O   0  0  0  0  0  0  0  0  0  0  0  0
    2.5989   -1.5002    0.0000 O   0  0  0  0  0  0  0  0  0  0  0  0
    3.8981   -0.7504    0.0000 P   0  0  0  0  0  0  0  0  0  0  0  0
    2.9341    0.3988    0.0000 S   0  0  0  0  0  0  0  0  0  0  0  0
  3  1  1  0
  4  2  1  0
  6  5  2  0
  7  5  1  0
  8  6  1  0
  9  7  2  0
 10  6  1  0
 11  7  1  0
 12  8  1  0
 13  8  2  0
 13  9  1  0
 14  3  1  0
 15  4  1  0
 16  9  1  0
 17 14  1  0
 17 15  1  0
 17 16  1  0
 18 17  2  0
M  END
>  <NAME>  (1193) 
PHOSPHOROTHIOIC ACID O,O-DIETHYL O-(3,5,6-TRICHLORO-2-PYRIDINYL) ESTER

>  <SYNONYMS>  (1193) 
CHLOROPYRIFOS

>  <SPECTRUM TYPE>  (1193) 
MS1

>  <INSTRUMENT TYPE>  (1193) 
EI-B

>  <INSTRUMENT>  (1193) 
JEOL JMS-DX-303

>  <ION MODE>  (1193) 
P

>  <INCHIKEY>  (1193) 
SBPBAQFWLVIOKP-UHFFFAOYSA-N

>  <FORMULA>  (1193) 
C9H11Cl3NO3PS

>  <EXACT MASS>  (1193) 
348.926283882

>  <MW>  (1193) 
349

>  <ID>  (1193) 
JP010431

>  <CONTRIBUTOR>  (1193) 
University of Tokyo Team, {Faculty of Engineering, University of Tokyo

>  <COMMENT>  (1193) 
SMILES=CCOP(=S)(OCC)Oc(n1)c(Cl)cc(Cl)c(Cl)1
InChI=InChI=1S/C9H11Cl3NO3PS/c1-3-14-17(18,15-4-2)16-9-7(11)5-6(10)8(12)13-9/h5H,3-4H2,1-2H3
computed SMILES=S=P(OC1=NC(Cl)=C(Cl)C=C1Cl)(OCC)OCC
accession=JP010431
date=2016.01.19 (Created 2008.10.21, modified 2011.05.06)
author=UOEH
license=CC BY-NC-SA
exact mass=348.92628
ionization energy=70 eV
ion type=[M]+*
computed spectral entropy=4.077161600777238
computed normalized entropy=0.8274714194357856
SPLASH=splash10-0002-2793000000-24fe8c73aae05cb109a6
submitter=submitter = University of Tokyo Team (Faculty of Engineering, University of Tokyo)
MoNA Rating=3.75

>  <NUM PEAKS>  (1193) 
138

>  <MASS SPECTRAL PEAKS>  (1193) 
43 2.19
44 1.11
45 3.05
47 5.29
60 1.15
63 4.19
65 14.19
72 1.99
75 1.08
79 1.76
80 2.43
81 4.77
91 1.73
93 8.03
96 2.03
97 75.85
98 10.34
99 3.84
100 3.96
107 8.18
108 1.86
109 13.29
110 2.83
111 1.37
114 3.4
115 1.26
121 5.66
125 28.25
126 1.04
127 1.68
130 1.19
133 4.83
134 4.87
135 3.47
136 3.49
137 1.65
141 1.14
142 3.88
144 4.32
145 1.63
146 2.51
153 5.54
161 5.34
162 3.69
163 3.86
164 2.57
165 1.26
166 1.34
168 7.08
169 10.62
170 6.43
171 10.48
172 3.58
173 3.04
178 2.07
180 7.94
181 1.51
182 7.51
184 2.29
190 1.12
194 1.76
196 1.54
197 99.99
198 12.19
199 96.16
200 10.79
201 32.69
202 5.73
203 3.91
207 5.12
208 28.39
209 9.4
210 28.59
211 4.34
212 12.06
213 20.57
214 5.74
215 19.51
216 2.26
217 6.94
219 1.07
224 1.96
225 1.42
226 1.69
228 1.87
230 1.25
240 1.29
241 1.74
242 1.73
243 2.15
244 11.16
245 2.09
246 9.37
248 3.12
257 4.97
258 41.03
259 5.69
260 31
261 2.99
262 7.28
263 1.07
264 1.34
270 1.27
272 1.6
274 1.49
276 8.58
277 1.65
278 10.86
279 1.51
280 3.58
285 1.64
286 35.97
287 4.49
288 29.7
289 3.01
290 9.11
291 1.1
292 5.29
294 4.71
296 2.53
298 1.28
300 1.51
304 4.61
306 4.42
308 2.32
313 1.47
314 77.14
315 9.62
316 58.45
317 6.73
318 14.9
319 1.51
320 1.71
349 7.87
350 1.15
351 7.28
352 1.07
353 3.39

$$$$

     RDKit          2D

 14 13  0  0  0  0  0  0  0  0999 V2000
    3.7897    3.9360    0.0000 C   0  0  0  0  0  0  0  0  0  0  0  0
    3.2982    6.7237    0.0000 C   0  0  0  0  0  0  0  0  0  0  0  0
   -7.9016    4.6860    0.0000 C   0  0  0  0  0  0  0  0  0  0  0  0
    2.4907    4.6860    0.0000 C   0  0  0  0  0  0  0  0  0  0  0  0
    2.3340    5.5746    0.0000 C   0  0  0  0  0  0  0  0  0  0  0  0
   -6.6026    3.9360    0.0000 C   0  0  0  0  0  0  0  0  0  0  0  0
   -4.0045    3.9360    0.0000 C   0  0  0  0  0  0  0  0  0  0  0  0
   -2.7055    4.6860    0.0000 C   0  0  0  0  0  0  0  0  0  0  0  0
    1.1916    3.9360    0.0000 O   0  0  0  0  0  0  0  0  0  0  0  0
    0.8568    5.8351    0.0000 O   0  0  0  0  0  0  0  0  0  0  0  0
   -0.1074    4.6860    0.0000 P   0  0  0  0  0  0  0  0  0  0  0  0
   -1.0716    5.8351    0.0000 S   0  0  0  0  0  0  0  0  0  0  0  0
   -5.3036    4.6860    0.0000 S   0  0  0  0  0  0  0  0  0  0  0  0
   -1.4065    3.9360    0.0000 S   0  0  0  0  0  0  0  0  0  0  0  0
  4  1  1  0
  5  2  1  0
  6  3  1  0
  8  7  1  0
  9  4  1  0
 10  5  1  0
 11  9  1  0
 11 10  1  0
 12 11  2  0
 13  6  1  0
 13  7  1  0
 14  8  1  0
 14 11  1  0
M  END
>  <NAME>  (1194) 
PHOSPHORODITHIOIC ACID O,O-DIETHYL S-(2-(ETHYLTHIO)ETHYL) ESTER

>  <SYNONYMS>  (1194) 
DISULFOTON

>  <SPECTRUM TYPE>  (1194) 
MS1

>  <INSTRUMENT TYPE>  (1194) 
EI-B

>  <INSTRUMENT>  (1194) 
JEOL JMS-DX-303

>  <ION MODE>  (1194) 
P

>  <INCHIKEY>  (1194) 
DOFZAZXDOSGAJZ-UHFFFAOYSA-N

>  <FORMULA>  (1194) 
C8H19O2PS3

>  <EXACT MASS>  (1194) 
274.028479478

>  <MW>  (1194) 
274

>  <ID>  (1194) 
JP010430

>  <CONTRIBUTOR>  (1194) 
University of Tokyo Team, {Faculty of Engineering, University of Tokyo

>  <COMMENT>  (1194) 
SMILES=CCSCCSP(=S)(OCC)OCC
InChI=InChI=1S/C8H19O2PS3/c1-4-9-11(12,10-5-2)14-8-7-13-6-3/h4-8H2,1-3H3
computed SMILES=S=P(OCC)(OCC)SCCSCC
accession=JP010430
date=2016.01.19 (Created 2008.10.21, modified 2011.05.06)
author=UOEH
license=CC BY-NC-SA
exact mass=274.02848
ionization energy=70 eV
ion type=[M]+*
computed spectral entropy=2.997062224280697
computed normalized entropy=0.7741944207587951
SPLASH=splash10-000i-9300000000-b8f166d101cbcb075e78
submitter=submitter = University of Tokyo Team (Faculty of Engineering, University of Tokyo)
MoNA Rating=3.75

>  <NUM PEAKS>  (1194) 
48

>  <MASS SPECTRAL PEAKS>  (1194) 
45 2.8
46 1.14
47 4.55
55 1.09
59 5.26
60 20.85
61 20
62 1.74
63 1.23
64 1.16
65 10.6
73 1.18
75 4.83
88 99.99
89 39.52
90 6.19
91 2.06
93 8.91
97 19.87
99 1.11
109 4.27
112 1.39
114 3.24
121 3.48
124 1.04
125 13.31
129 6.14
130 1.55
131 1.79
142 16.15
144 1.5
153 14.75
155 1.08
157 3.31
158 5.09
159 2.05
161 1.06
185 1.36
186 15.44
187 4.3
188 1.65
189 2.84
212 1.13
213 1.52
245 1.54
274 12.83
275 1.7
276 1.81

$$$$

     RDKit          2D

 19 19  0  0  0  0  0  0  0  0999 V2000
   -3.8981    1.5008    0.0000 C   0  0  0  0  0  0  0  0  0  0  0  0
   -3.4070   -1.2869    0.0000 C   0  0  0  0  0  0  0  0  0  0  0  0
    7.7951    0.7502    0.0000 C   0  0  0  0  0  0  0  0  0  0  0  0
    6.4957    3.0000    0.0000 C   0  0  0  0  0  0  0  0  0  0  0  0
    3.8970   -3.0002    0.0000 C   0  0  0  0  0  0  0  0  0  0  0  0
   -2.5992    0.7506    0.0000 C   0  0  0  0  0  0  0  0  0  0  0  0
   -2.4426   -0.1380    0.0000 C   0  0  0  0  0  0  0  0  0  0  0  0
    2.5970   -0.7502    0.0000 C   0  0  0  0  0  0  0  0  0  0  0  0
    6.4959    1.5000    0.0000 C   0  0  0  0  0  0  0  0  0  0  0  0
    3.8970   -1.5002    0.0000 C   0  0  0  0  0  0  0  0  0  0  0  0
    2.5970    0.7498    0.0000 C   0  0  0  0  0  0  0  0  0  0  0  0
    5.1970    0.7498    0.0000 C   0  0  0  0  0  0  0  0  0  0  0  0
    5.1970   -0.7502    0.0000 N   0  0  0  0  0  0  0  0  0  0  0  0
    3.8970    1.4998    0.0000 N   0  0  0  0  0  0  0  0  0  0  0  0
   -1.3000    1.5004    0.0000 O   0  0  0  0  0  0  0  0  0  0  0  0
   -0.9654   -0.3987    0.0000 O   0  0  0  0  0  0  0  0  0  0  0  0
    1.2981    1.5000    0.0000 O   0  0  0  0  0  0  0  0  0  0  0  0
   -0.0011    0.7502    0.0000 P   0  0  0  0  0  0  0  0  0  0  0  0
    0.9629   -0.3990    0.0000 S   0  0  0  0  0  0  0  0  0  0  0  0
  6  1  1  0
  7  2  1  0
  9  3  1  0
  9  4  1  0
 10  5  1  0
 10  8  2  0
 11  8  1  0
 12  9  1  0
 13 10  1  0
 13 12  2  0
 14 11  2  0
 14 12  1  0
 15  6  1  0
 16  7  1  0
 17 11  1  0
 18 15  1  0
 18 16  1  0
 18 17  1  0
 19 18  2  0
M  END
>  <NAME>  (1195) 
PHOSPHOROTHIOIC ACID O,O-DIETHYL O-(6-METHYL-2-(1-METHYLETHYL)-4-PYRIMIDINYL) ESTER

>  <SYNONYMS>  (1195) 
DIAZINON

>  <SPECTRUM TYPE>  (1195) 
MS1

>  <INSTRUMENT TYPE>  (1195) 
EI-B

>  <INSTRUMENT>  (1195) 
JEOL JMS-DX-303

>  <ION MODE>  (1195) 
P

>  <INCHIKEY>  (1195) 
FHIVAFMUCKRCQO-UHFFFAOYSA-N

>  <FORMULA>  (1195) 
C12H21N2O3PS

>  <EXACT MASS>  (1195) 
304.101050162

>  <MW>  (1195) 
304

>  <ID>  (1195) 
JP010429

>  <CONTRIBUTOR>  (1195) 
University of Tokyo Team, {Faculty of Engineering, University of Tokyo

>  <COMMENT>  (1195) 
SMILES=CCOP(=S)(OCC)Oc(c1)nc(C(C)C)nc(C)1
InChI=InChI=1S/C12H21N2O3PS/c1-6-15-18(19,16-7-2)17-11-8-10(5)13-12(14-11)9(3)4/h8-9H,6-7H2,1-5H3
computed SMILES=S=P(OC=1N=C(N=C(C1)C)C(C)C)(OCC)OCC
accession=JP010429
date=2016.01.19 (Created 2008.10.21, modified 2011.05.06)
author=UOEH
license=CC BY-NC-SA
exact mass=304.10105
ionization energy=70 eV
ion type=[M]+*
computed spectral entropy=3.811382528856439
computed normalized entropy=0.8276312003524064
SPLASH=splash10-0ufr-3931000000-a70584cb463b92093849
submitter=submitter = University of Tokyo Team (Faculty of Engineering, University of Tokyo)
MoNA Rating=3.75

>  <NUM PEAKS>  (1195) 
100

>  <MASS SPECTRAL PEAKS>  (1195) 
39 6.7
41 11.23
42 9.91
43 13.67
45 1.87
47 2.12
52 2.98
53 1.3
54 8.58
55 2.72
65 10.74
66 19.17
67 6.21
68 8.33
69 1.77
70 2.75
80 1.1
81 2.36
82 2.1
83 2.53
84 14.88
93 34.58
94 3.35
96 1.06
97 22.36
98 2.27
99 1.82
100 1.57
108 1.29
109 4.16
110 3.86
111 1.2
114 1.54
115 1.15
119 4.71
121 3.55
124 21.21
125 7.6
126 1.76
133 3.3
134 8.44
135 25.89
136 3.69
137 89.55
138 7.86
140 1.58
147 2.77
149 1.53
150 1.16
151 23.29
152 84.47
153 41.09
154 3.86
155 1.02
161 1.45
162 15.44
163 17.85
164 5.64
165 2.27
167 8.53
168 4.24
179 99.99
180 14.16
181 1.57
183 3.16
195 4.95
196 1.03
197 1.51
199 49.78
200 5.08
215 12.46
216 16.17
217 2.3
220 1.54
227 26.48
228 3.37
231 10.28
232 2.97
233 5.66
243 3.72
247 4.76
248 26.56
249 2.97
250 1.71
259 5.23
260 12.93
261 5.26
262 1.25
272 1.12
273 2.95
276 28.22
277 3.9
278 1.77
288 1.38
289 11
290 2.11
303 1.8
304 68.48
305 10.85
306 4.18

$$$$

     RDKit          2D

 16 16  0  0  0  0  0  0  0  0999 V2000
   -5.8456    1.8746    0.0000 C   0  0  0  0  0  0  0  0  0  0  0  0
   -2.2833    4.5237    0.0000 C   0  0  0  0  0  0  0  0  0  0  0  0
   -4.2117    4.5237    0.0000 C   0  0  0  0  0  0  0  0  0  0  0  0
   -4.5465    2.6246    0.0000 C   0  0  0  0  0  0  0  0  0  0  0  0
    0.6492    1.1238    0.0000 C   0  0  0  0  0  0  0  0  0  0  0  0
    1.9492    3.3754    0.0000 C   0  0  0  0  0  0  0  0  0  0  0  0
    3.2477    1.1246    0.0000 C   0  0  0  0  0  0  0  0  0  0  0  0
    0.6496    2.6246    0.0000 C   0  0  0  0  0  0  0  0  0  0  0  0
    1.9482    0.3738    0.0000 C   0  0  0  0  0  0  0  0  0  0  0  0
    3.2482    2.6254    0.0000 C   0  0  0  0  0  0  0  0  0  0  0  0
   -0.6494    3.3746    0.0000 C   0  0  0  0  0  0  0  0  0  0  0  0
   -3.2475    3.3746    0.0000 C   0  0  0  0  0  0  0  0  0  0  0  0
    1.9484   -1.1262    0.0000 Cl  0  0  0  0  0  0  0  0  0  0  0  0
    4.5474    3.3752    0.0000 Cl  0  0  0  0  0  0  0  0  0  0  0  0
   -1.9484    2.6246    0.0000 N   0  0  0  0  0  0  0  0  0  0  0  0
   -0.6494    4.8746    0.0000 O   0  0  0  0  0  0  0  0  0  0  0  0
  4  1  3  0
  8  5  2  0
  8  6  1  0
  9  5  1  0
  9  7  2  0
 10  6  2  0
 10  7  1  0
 11  8  1  0
 12  2  1  0
 12  3  1  0
 12  4  1  0
 13  9  1  0
 14 10  1  0
 15 11  2  3
 15 12  1  0
 16 11  1  0
M  END
>  <NAME>  (1196) 
3,5-DICHLORO-N-(1,1-DIMETHYL-2-PROPYNYL)BENZAMIDE

>  <SYNONYMS>  (1196) 


>  <SPECTRUM TYPE>  (1196) 
MS1

>  <INSTRUMENT TYPE>  (1196) 
EI-B

>  <INSTRUMENT>  (1196) 
JEOL JMS-DX-303

>  <ION MODE>  (1196) 
P

>  <INCHIKEY>  (1196) 
PHNUZKMIPFFYSO-UHFFFAOYSA-N

>  <FORMULA>  (1196) 
C12H11Cl2NO

>  <EXACT MASS>  (1196) 
255.021769332

>  <MW>  (1196) 
255

>  <ID>  (1196) 
JP010428

>  <CONTRIBUTOR>  (1196) 
University of Tokyo Team, {Faculty of Engineering, University of Tokyo

>  <COMMENT>  (1196) 
SMILES=C#CC(C)(C)NC(=O)c(c1)cc(Cl)cc(Cl)1
cas=23950-58-5
InChI=InChI=1S/C12H11Cl2NO/c1-4-12(2,3)15-11(16)8-5-9(13)7-10(14)6-8/h1,5-7H,2-3H3,(H,15,16)
computed SMILES=ClC=1C=C(Cl)C=C(C1)C(O)=NC(C#C)(C)C
accession=JP010428
date=2016.01.19 (Created 2008.10.21, modified 2011.05.06)
author=UOEH
license=CC BY-NC-SA
exact mass=255.02177
ionization energy=70 eV
ion type=[M]+*
computed spectral entropy=3.136467877649966
computed normalized entropy=0.7692063949866912
SPLASH=splash10-05i0-1940000000-d07e0a1b0c1d454fe3ff
submitter=submitter = University of Tokyo Team (Faculty of Engineering, University of Tokyo)
MoNA Rating=3.75

>  <NUM PEAKS>  (1196) 
59

>  <MASS SPECTRAL PEAKS>  (1196) 
39 3.04
41 4.8
42 2.1
44 1.55
50 1.48
51 1.59
52 1.73
57 1.13
65 2.43
66 4.17
67 3.87
69 1.26
74 4.19
75 4.32
82 2.47
83 1.85
84 8.55
85 1.69
102 2.14
109 9.31
110 4.35
111 3.81
112 1.72
120 1.06
121 1.3
138 1.28
145 25.42
146 2.75
147 17.02
148 1.46
149 2.48
171 1.74
172 2.8
173 99.99
174 9.36
175 65.83
176 5.53
177 11.57
179 1.9
189 1.52
190 1.43
191 1.26
192 1.93
202 1.28
212 1.51
214 1.02
226 2.58
228 2.05
240 13.02
241 1.72
242 8.47
243 1.08
244 1.41
254 23.82
255 36.45
256 20.73
257 25.65
258 5.6
259 3.89

$$$$

     RDKit          2D

 13 13  0  0  0  0  0  0  0  0999 V2000
    5.1970    3.0000    0.0000 C   0  0  0  0  0  0  0  0  0  0  0  0
   -5.1970    3.0000    0.0000 C   0  0  0  0  0  0  0  0  0  0  0  0
    3.8981    2.2498    0.0000 C   0  0  0  0  0  0  0  0  0  0  0  0
   -3.8981    2.2498    0.0000 C   0  0  0  0  0  0  0  0  0  0  0  0
   -0.0000   -0.0006    0.0000 C   0  0  0  0  0  0  0  0  0  0  0  0
    1.3000    2.2494    0.0000 C   0  0  0  0  0  0  0  0  0  0  0  0
   -1.3000    2.2494    0.0000 C   0  0  0  0  0  0  0  0  0  0  0  0
   -0.0000   -1.5006    0.0000 Cl  0  0  0  0  0  0  0  0  0  0  0  0
    2.5989    2.9996    0.0000 N   0  0  0  0  0  0  0  0  0  0  0  0
   -2.5989    2.9996    0.0000 N   0  0  0  0  0  0  0  0  0  0  0  0
    1.3000    0.7494    0.0000 N   0  0  0  0  0  0  0  0  0  0  0  0
   -1.3000    0.7494    0.0000 N   0  0  0  0  0  0  0  0  0  0  0  0
   -0.0000    2.9994    0.0000 N   0  0  0  0  0  0  0  0  0  0  0  0
  3  1  1  0
  4  2  1  0
  8  5  1  0
  9  3  1  0
  9  6  2  3
 10  4  1  0
 10  7  2  3
 11  5  2  0
 11  6  1  0
 12  5  1  0
 12  7  1  0
 13  6  1  0
 13  7  1  0
M  END
>  <NAME>  (1197) 
2-CHLORO-4,6-BIS(ETHYLAMINO)-1,3,5-TRIAZINE

>  <SYNONYMS>  (1197) 
SIMAZINE

>  <SPECTRUM TYPE>  (1197) 
MS1

>  <INSTRUMENT TYPE>  (1197) 
EI-B

>  <INSTRUMENT>  (1197) 
JEOL JMS-DX-303

>  <ION MODE>  (1197) 
P

>  <INCHIKEY>  (1197) 
ODCWYMIRDDJXKW-UHFFFAOYSA-N

>  <FORMULA>  (1197) 
C7H12ClN5

>  <EXACT MASS>  (1197) 
201.078123064

>  <MW>  (1197) 
201

>  <ID>  (1197) 
JP010427

>  <CONTRIBUTOR>  (1197) 
University of Tokyo Team, {Faculty of Engineering, University of Tokyo

>  <COMMENT>  (1197) 
SMILES=CCNc(n1)nc(Cl)nc(NCC)1
InChI=InChI=1S/C7H12ClN5/c1-3-9-6-11-5(8)12-7(13-6)10-4-2/h3-4H2,1-2H3,(H2,9,10,11,12,13)
computed SMILES=ClC1=NC(=NCC)NC(=NCC)N1
accession=JP010427
date=2016.01.19 (Created 2008.10.21, modified 2011.05.06)
author=UOEH
license=CC BY-NC-SA
exact mass=201.07812
ionization energy=70 eV
ion type=[M]+*
computed spectral entropy=3.665977024795492
computed normalized entropy=0.8296241820370813
SPLASH=splash10-0udr-6940000000-1564d55a36848813fb2f
submitter=submitter = University of Tokyo Team (Faculty of Engineering, University of Tokyo)
MoNA Rating=3.75

>  <NUM PEAKS>  (1197) 
83

>  <MASS SPECTRAL PEAKS>  (1197) 
40 1.87
41 1.62
42 6.21
43 19.57
44 29.66
45 1.49
53 2.18
54 1.48
55 9.73
62 4.28
64 1.39
67 1.57
68 22.96
69 9.03
70 2.71
71 18.12
72 1.04
78 1.06
79 1.95
80 1.78
81 1.97
83 1.7
85 18.89
86 1.71
87 5.92
89 1.54
90 1.26
91 10.03
92 1.1
93 11.83
94 3.99
95 3.02
96 19.54
97 1.82
104 7.5
105 2.29
106 2.73
109 1.11
110 4.11
116 1.21
117 3.94
119 1.49
121 1.05
122 4.79
123 10.33
129 4.18
130 3.57
131 2.57
132 10.16
133 1.12
134 3.13
136 1.27
137 1.37
138 16.98
139 1.45
143 4.7
144 1.45
145 12.59
146 1.51
147 3.72
157 2.26
158 25.43
159 4.02
160 7.79
161 2.04
166 3.75
170 1.43
172 13.5
173 42.63
174 7.11
175 15.27
176 1.39
184 1.4
186 61.77
187 6.05
188 20.73
189 1.49
198 1.97
200 14.78
201 99.99
202 14.25
203 35.97
204 3.57

$$$$

     RDKit          2D

 14 13  0  0  0  0  0  0  0  0999 V2000
   -2.7709    3.2993    0.0000 C   0  0  0  0  0  0  0  0  0  0  0  0
    2.4253    4.7993    0.0000 C   0  0  0  0  0  0  0  0  0  0  0  0
   -7.9670    4.7993    0.0000 C   0  0  0  0  0  0  0  0  0  0  0  0
   -4.9178    2.2407    0.0000 C   0  0  0  0  0  0  0  0  0  0  0  0
   -1.4718    5.5493    0.0000 C   0  0  0  0  0  0  0  0  0  0  0  0
   -2.7709    4.7993    0.0000 C   0  0  0  0  0  0  0  0  0  0  0  0
   -0.1728    4.7993    0.0000 C   0  0  0  0  0  0  0  0  0  0  0  0
    1.1262    5.5493    0.0000 N   0  0  0  0  0  0  0  0  0  0  0  0
   -0.1728    3.2993    0.0000 O   0  0  0  0  0  0  0  0  0  0  0  0
   -6.3331    3.6502    0.0000 O   0  0  0  0  0  0  0  0  0  0  0  0
   -6.6680    5.5493    0.0000 O   0  0  0  0  0  0  0  0  0  0  0  0
   -4.4048    3.6502    0.0000 O   0  0  0  0  0  0  0  0  0  0  0  0
   -4.0699    5.5493    0.0000 O   0  0  0  0  0  0  0  0  0  0  0  0
   -5.3690    4.7993    0.0000 P   0  0  0  0  0  0  0  0  0  0  0  0
  6  1  1  0
  5  6  2  0
  7  5  1  0
  8  2  1  0
  8  7  2  3
  9  7  1  0
 11  3  1  0
 12  4  1  0
 13  6  1  0
 14 10  2  0
 14 11  1  0
 14 12  1  0
 14 13  1  0
M  END
>  <NAME>  (1198) 
(E)-1-METHYL-2-(METHYLCARBAMOYL)VINYL DIMETHYL PHOSPHATE

>  <SYNONYMS>  (1198) 


>  <SPECTRUM TYPE>  (1198) 
MS1

>  <INSTRUMENT TYPE>  (1198) 
EI-B

>  <INSTRUMENT>  (1198) 
JEOL JMS-DX-303

>  <ION MODE>  (1198) 
P

>  <INCHIKEY>  (1198) 
KRTSDMXIXPKRQR-AATRIKPKSA-N

>  <FORMULA>  (1198) 
C7H14NO5P

>  <EXACT MASS>  (1198) 
223.060959178

>  <MW>  (1198) 
223

>  <ID>  (1198) 
JP010426

>  <CONTRIBUTOR>  (1198) 
University of Tokyo Team, {Faculty of Engineering, University of Tokyo

>  <COMMENT>  (1198) 
SMILES=CNC(=O)C([H])=C(C)OP(=O)(OC)OC
InChI=InChI=1S/C7H14NO5P/c1-6(5-7(9)8-2)13-14(10,11-3)12-4/h5H,1-4H3,(H,8,9)/b6-5+
computed SMILES=O=P(OC(=CC(O)=NC)C)(OC)OC
author=UOEH
accession=JP010426
date=2016.01.19 (Created 2008.10.21, modified 2011.05.06)
license=CC BY-NC-SA
exact mass=223.06096
ionization energy=70 eV
ion type=[M]+*
computed spectral entropy=2.2706975573079053
computed normalized entropy=0.6889593294891322
SPLASH=splash10-004i-4900000000-e97ee38f28a0c37d737a
submitter=submitter = University of Tokyo Team (Faculty of Engineering, University of Tokyo)
MoNA Rating=3.75

>  <NUM PEAKS>  (1198) 
27

>  <MASS SPECTRAL PEAKS>  (1198) 
39 2.64
43 2.82
44 2.18
50 1.19
58 8.29
66 1.91
67 19.76
68 1.77
69 2.19
79 2.58
82 1.92
93 1.04
95 2.05
96 2.86
97 18.44
98 1.96
109 10.46
113 1.14
127 99.99
128 2.99
129 1.02
164 3.97
165 1.08
166 1.2
192 19.51
193 11.82
223 8.64

$$$$

     RDKit          2D

 16 17  0  0  0  0  0  0  0  0999 V2000
    5.1981   -0.7504    0.0000 C   0  0  0  0  0  0  0  0  0  0  0  0
    3.8987   -3.0002    0.0000 C   0  0  0  0  0  0  0  0  0  0  0  0
   -2.6000   -0.7500    0.0000 C   0  0  0  0  0  0  0  0  0  0  0  0
   -2.6000    0.7500    0.0000 C   0  0  0  0  0  0  0  0  0  0  0  0
   -1.3000   -1.5000    0.0000 C   0  0  0  0  0  0  0  0  0  0  0  0
   -1.3000    1.5000    0.0000 C   0  0  0  0  0  0  0  0  0  0  0  0
    3.8989   -1.5002    0.0000 C   0  0  0  0  0  0  0  0  0  0  0  0
    0.0000   -0.7500    0.0000 C   0  0  0  0  0  0  0  0  0  0  0  0
    0.0000    0.7500    0.0000 C   0  0  0  0  0  0  0  0  0  0  0  0
    1.3000   -1.5000    0.0000 C   0  0  0  0  0  0  0  0  0  0  0  0
    1.3000    1.5000    0.0000 N   0  0  0  0  0  0  0  0  0  0  0  0
    2.6000   -0.7500    0.0000 N   0  0  0  0  0  0  0  0  0  0  0  0
    1.3000   -3.0000    0.0000 O   0  0  0  0  0  0  0  0  0  0  0  0
    4.0772    0.4897    0.0000 O   0  0  0  0  0  0  0  0  0  0  0  0
    3.1127    2.1596    0.0000 O   0  0  0  0  0  0  0  0  0  0  0  0
    2.6000    0.7500    0.0000 S   0  0  0  0  0  0  0  0  0  0  0  0
  4  3  2  0
  5  3  1  0
  6  4  1  0
  7  1  1  0
  7  2  1  0
  8  5  2  0
  9  6  2  0
  9  8  1  0
 10  8  1  0
 11  9  1  0
 12  7  1  0
 12 10  1  0
 13 10  2  0
 16 11  1  0
 16 12  1  0
 16 14  2  0
 16 15  2  0
M  END
>  <NAME>  (1199) 
3-(1-METHYLETHYL)-1H-2,1,3-BENZOTHIADIAZIN-4(3H)-ONE

>  <SYNONYMS>  (1199) 
BENTAZON

>  <SPECTRUM TYPE>  (1199) 
MS1

>  <INSTRUMENT TYPE>  (1199) 
EI-B

>  <INSTRUMENT>  (1199) 
JEOL JMS-DX-303

>  <ION MODE>  (1199) 
P

>  <INCHIKEY>  (1199) 
ZOMSMJKLGFBRBS-UHFFFAOYSA-N

>  <FORMULA>  (1199) 
C10H12N2O3S

>  <EXACT MASS>  (1199) 
240.056863244

>  <MW>  (1199) 
240

>  <ID>  (1199) 
JP010425

>  <CONTRIBUTOR>  (1199) 
University of Tokyo Team, {Faculty of Engineering, University of Tokyo

>  <COMMENT>  (1199) 
SMILES=CC(C)N1C(=O)C2=CC=CC=C2NS1(=O)=O
InChI=InChI=1S/C10H12N2O3S/c1-7(2)12-10(13)8-5-3-4-6-9(8)11-16(12,14)15/h3-7,11H,1-2H3
computed SMILES=O=C1C=2C=CC=CC2NS(=O)(=O)N1C(C)C
accession=JP010425
date=2016.01.19 (Created 2008.10.21, modified 2011.05.06)
author=UOEH
license=CC BY-NC-SA
exact mass=240.05686
ionization energy=70 eV
ion type=[M]+*
computed spectral entropy=2.835042793221383
computed normalized entropy=0.7447581183884887
SPLASH=splash10-00kb-2910000000-678111d259a160fc4775
submitter=submitter = University of Tokyo Team (Faculty of Engineering, University of Tokyo)
MoNA Rating=3.75

>  <NUM PEAKS>  (1199) 
45

>  <MASS SPECTRAL PEAKS>  (1199) 
36 2.7
39 3.81
41 3.21
42 2.03
43 1.7
51 1.93
52 2.42
62 1.03
63 5.78
64 7.41
65 4.2
76 1.49
77 1.86
78 1.59
79 1.73
90 6.19
91 5.96
92 20.36
93 1.83
105 2.78
106 2.06
118 9.44
119 79.3
120 19.78
121 1.25
133 1.38
134 1.52
138 1.34
154 1.73
161 34.27
162 3.8
181 1.71
182 24.14
183 2.94
184 1.66
198 99.99
199 14.95
200 6.38
201 1.05
225 26.33
226 3.11
227 1.67
240 18.56
241 2.14
242 1.03

$$$$

     RDKit          2D

 12 12  0  0  0  0  0  0  0  0999 V2000
   -5.2732   -1.9109    0.0000 C   0  0  0  0  0  0  0  0  0  0  0  0
   -4.1610   -0.9044    0.0000 C   0  0  0  0  0  0  0  0  0  0  0  0
    0.5887    0.6295    0.0000 C   0  0  0  0  0  0  0  0  0  0  0  0
   -1.6211   -0.3579    0.0000 C   0  0  0  0  0  0  0  0  0  0  0  0
    2.0804    0.7869    0.0000 C   0  0  0  0  0  0  0  0  0  0  0  0
    2.2379   -0.7048    0.0000 Cl  0  0  0  0  0  0  0  0  0  0  0  0
    3.5721    0.9444    0.0000 Cl  0  0  0  0  0  0  0  0  0  0  0  0
    1.9230    2.2787    0.0000 Cl  0  0  0  0  0  0  0  0  0  0  0  0
   -0.1613   -0.6695    0.0000 N   0  0  0  0  0  0  0  0  0  0  0  0
   -0.4111    1.7379    0.0000 N   0  0  0  0  0  0  0  0  0  0  0  0
   -2.7333   -1.3644    0.0000 O   0  0  0  0  0  0  0  0  0  0  0  0
   -1.7868    1.1350    0.0000 S   0  0  0  0  0  0  0  0  0  0  0  0
  2  1  1  0
  5  3  1  0
  6  5  1  0
  7  5  1  0
  8  5  1  0
  9  3  1  0
  9  4  2  0
 10  3  2  0
 11  2  1  0
 11  4  1  0
 12  4  1  0
 12 10  1  0
M  END
>  <NAME>  (1200) 
5-ETHOXY-3-TRICHLOROMETHYL-1,2,4-THIADIAZOLE

>  <SYNONYMS>  (1200) 
ECHLOMEZOL

>  <SPECTRUM TYPE>  (1200) 
MS1

>  <INSTRUMENT TYPE>  (1200) 
EI-B

>  <INSTRUMENT>  (1200) 
JEOL JMS-DX-303

>  <ION MODE>  (1200) 
P

>  <INCHIKEY>  (1200) 
KQTVWCSONPJJPE-UHFFFAOYSA-N

>  <FORMULA>  (1200) 
C5H5Cl3N2OS

>  <EXACT MASS>  (1200) 
245.91881682

>  <MW>  (1200) 
246

>  <ID>  (1200) 
JP010423

>  <CONTRIBUTOR>  (1200) 
University of Tokyo Team, {Faculty of Engineering, University of Tokyo

>  <COMMENT>  (1200) 
SMILES=CCOc(s1)nc(n1)C(Cl)(Cl)Cl
InChI=InChI=1S/C5H5Cl3N2OS/c1-2-11-4-9-3(10-12-4)5(6,7)8/h2H2,1H3
computed SMILES=ClC(Cl)(Cl)C1=NSC(=N1)OCC
accession=JP010423
date=2016.01.19 (Created 2008.10.21, modified 2011.05.06)
author=UOEH
license=CC BY-NC-SA
exact mass=245.91882
ionization energy=70 eV
ion type=[M]+*
computed spectral entropy=3.3574520274501225
computed normalized entropy=0.7850629284622717
SPLASH=splash10-03e9-1960000000-1b26dd358c07ae51106e
submitter=submitter = University of Tokyo Team (Faculty of Engineering, University of Tokyo)
MoNA Rating=3.75

>  <NUM PEAKS>  (1200) 
72

>  <MASS SPECTRAL PEAKS>  (1200) 
36 1.83
38 2.1
44 1.26
46 4.98
47 2.96
59 1.21
61 3.76
63 1.19
70 1.86
72 1.07
73 2.79
74 1.28
75 3.65
79 4.35
81 1.27
82 2.55
84 1.56
100 1.3
101 5.41
103 2.93
105 1.84
106 1.65
108 10.54
110 7
112 1.19
114 7.55
116 4.13
117 3.87
118 1.54
119 4.25
121 1.42
124 2.74
126 1.57
129 1.34
138 1.27
140 23.41
141 3.21
142 15.51
143 2.73
144 5.33
146 2.34
148 1.22
149 3.07
151 1.24
174 1.03
175 21.6
176 1.73
177 22.46
178 1.11
179 6.86
181 1.41
182 12.88
183 75.9
184 15.22
185 55.14
186 6.77
187 11.55
211 99.99
212 7.07
213 68.65
214 5.48
215 12.6
216 1.2
217 1.33
218 11.22
220 12
222 4.59
233 1.01
246 14.66
247 1.06
248 14.25
250 4.41

$$$$

     RDKit          2D

 11 10  0  0  0  0  0  0  0  0999 V2000
    1.8149    3.2978    0.0000 C   0  0  0  0  0  0  0  0  0  0  0  0
    1.6582    2.4093    0.0000 C   0  0  0  0  0  0  0  0  0  0  0  0
   -3.3812    3.2978    0.0000 C   0  0  0  0  0  0  0  0  0  0  0  0
   -4.6803    4.0478    0.0000 C   0  0  0  0  0  0  0  0  0  0  0  0
   -5.9793    3.2978    0.0000 Cl  0  0  0  0  0  0  0  0  0  0  0  0
   -4.6803    5.5478    0.0000 Cl  0  0  0  0  0  0  0  0  0  0  0  0
   -1.7473    2.1488    0.0000 O   0  0  0  0  0  0  0  0  0  0  0  0
    0.5159    4.0478    0.0000 O   0  0  0  0  0  0  0  0  0  0  0  0
    0.1810    2.1488    0.0000 O   0  0  0  0  0  0  0  0  0  0  0  0
   -2.0822    4.0478    0.0000 O   0  0  0  0  0  0  0  0  0  0  0  0
   -0.7831    3.2978    0.0000 P   0  0  0  0  0  0  0  0  0  0  0  0
  4  3  2  0
  5  4  1  0
  6  4  1  0
  8  1  1  0
  9  2  1  0
 10  3  1  0
 11  7  2  0
 11  8  1  0
 11  9  1  0
 11 10  1  0
M  END
>  <NAME>  (1201) 
PHOSPHORIC ACID 2,2-DICHLOROETHENYL DIMETHYL ESTER

>  <SYNONYMS>  (1201) 
DICHLORVOS

>  <SPECTRUM TYPE>  (1201) 
MS1

>  <INSTRUMENT TYPE>  (1201) 
EI-B

>  <INSTRUMENT>  (1201) 
JEOL JMS-DX-303

>  <ION MODE>  (1201) 
P

>  <INCHIKEY>  (1201) 
OEBRKCOSUFCWJD-UHFFFAOYSA-N

>  <FORMULA>  (1201) 
C4H7Cl2O4P

>  <EXACT MASS>  (1201) 
219.945900694

>  <MW>  (1201) 
220

>  <ID>  (1201) 
JP010422

>  <CONTRIBUTOR>  (1201) 
University of Tokyo Team, {Faculty of Engineering, University of Tokyo

>  <COMMENT>  (1201) 
SMILES=COP(=O)(OC)OC=C(Cl)Cl
InChI=InChI=1S/C4H7Cl2O4P/c1-8-11(7,9-2)10-3-4(5)6/h3H,1-2H3
computed SMILES=O=P(OC=C(Cl)Cl)(OC)OC
accession=JP010422
date=2016.01.19 (Created 2008.10.21, modified 2011.05.06)
author=UOEH
license=CC BY-NC-SA
exact mass=219.9459
ionization energy=70 eV
ion type=[M]+*
computed spectral entropy=2.1193347245205647
computed normalized entropy=0.658408351184949
SPLASH=splash10-0a4i-1900000000-09877a8cb478a3cc6839
submitter=submitter = University of Tokyo Team (Faculty of Engineering, University of Tokyo)
MoNA Rating=3.75

>  <NUM PEAKS>  (1201) 
25

>  <MASS SPECTRAL PEAKS>  (1201) 
38 2.22
47 3.33
48 1.09
55 1.44
68 1.18
76 2.41
79 14.18
80 1.09
83 1.26
93 1.88
109 99.99
110 4.52
111 1.75
113 3.28
128 1.3
145 10.37
147 4.52
174 1.48
185 39.38
186 4.18
187 9.85
194 1.15
220 12.15
222 5.2
224 1.03

$$$$

     RDKit          2D

 21 21  0  0  0  0  0  0  0  0999 V2000
   -2.5989    1.5002    0.0000 C   0  0  0  0  0  0  0  0  0  0  0  0
    2.5989    1.5002    0.0000 C   0  0  0  0  0  0  0  0  0  0  0  0
   -1.2990    3.7500    0.0000 C   0  0  0  0  0  0  0  0  0  0  0  0
   -1.5000   -3.0000    0.0000 C   0  0  0  0  0  0  0  0  0  0  0  0
   -0.0000   -4.5000    0.0000 C   0  0  0  0  0  0  0  0  0  0  0  0
    1.5000   -3.0000    0.0000 C   0  0  0  0  0  0  0  0  0  0  0  0
   -1.3000    0.7500    0.0000 C   0  0  0  0  0  0  0  0  0  0  0  0
    1.3000    0.7500    0.0000 C   0  0  0  0  0  0  0  0  0  0  0  0
    0.0000    3.0000    0.0000 C   0  0  0  0  0  0  0  0  0  0  0  0
    0.0000    1.5000    0.0000 C   0  0  0  0  0  0  0  0  0  0  0  0
   -0.0000   -1.5000    0.0000 C   0  0  0  0  0  0  0  0  0  0  0  0
   -1.3000   -0.7500    0.0000 C   0  0  0  0  0  0  0  0  0  0  0  0
    1.3000   -0.7500    0.0000 C   0  0  0  0  0  0  0  0  0  0  0  0
   -0.0000   -3.0000    0.0000 C   0  0  0  0  0  0  0  0  0  0  0  0
   -2.5989   -1.5002    0.0000 N   0  0  0  0  0  0  0  0  0  0  0  0
    2.5989   -1.5002    0.0000 N   0  0  0  0  0  0  0  0  0  0  0  0
    1.2990    3.7500    0.0000 O   0  0  0  0  0  0  0  0  0  0  0  0
   -3.8981   -0.7504    0.0000 O   0  0  0  0  0  0  0  0  0  0  0  0
   -2.5987   -3.0002    0.0000 O   0  0  0  0  0  0  0  0  0  0  0  0
    3.8981   -0.7504    0.0000 O   0  0  0  0  0  0  0  0  0  0  0  0
    2.5987   -3.0002    0.0000 O   0  0  0  0  0  0  0  0  0  0  0  0
  7  1  1  0
  8  2  1  0
  9  3  1  0
 10  7  2  0
 10  8  1  0
 10  9  1  0
 12  7  1  0
 12 11  2  0
 13  8  2  0
 13 11  1  0
 14  4  1  0
 14  5  1  0
 14  6  1  0
 14 11  1  0
 15 12  1  0
 16 13  1  0
 17  9  2  0
 18 15  1  0
 19 15  2  0
 20 16  1  0
 21 16  2  0
M  CHG  4  15   1  16   1  18  -1  20  -1
M  END
>  <NAME>  (1202) 
4'-TERT-BUTYL-2',6'-DIMETHYL-3',5'-DINITROACETOPHENONE

>  <SYNONYMS>  (1202) 


>  <SPECTRUM TYPE>  (1202) 
MS1

>  <INSTRUMENT TYPE>  (1202) 
EI-B

>  <INSTRUMENT>  (1202) 
JEOL JMS-DX-303

>  <ION MODE>  (1202) 
P

>  <INCHIKEY>  (1202) 
WXCMHFPAUCOJIG-UHFFFAOYSA-N

>  <FORMULA>  (1202) 
C14H18N2O5

>  <EXACT MASS>  (1202) 
294.121571676

>  <MW>  (1202) 
294

>  <ID>  (1202) 
JP010421

>  <CONTRIBUTOR>  (1202) 
University of Tokyo Team, {Faculty of Engineering, University of Tokyo

>  <COMMENT>  (1202) 
SMILES=CC(=O)c(c(C)1)c(C)c([N+1]([O-1])=O)c(C(C)(C)C)c([N+1]([O-1])=O)1
InChI=InChI=1S/C14H18N2O5/c1-7-10(9(3)17)8(2)13(16(20)21)11(14(4,5)6)12(7)15(18)19/h1-6H3
computed SMILES=O=C(C=1C(=C(C(=C(C1C)N(=O)=O)C(C)(C)C)N(=O)=O)C)C
accession=JP010421
date=2016.01.19 (Created 2008.10.21, modified 2011.05.06)
author=UOEH
license=CC BY-NC-SA
exact mass=294.12157
ionization energy=70 eV
ion type=[M]+*
computed spectral entropy=2.8708872080999934
computed normalized entropy=0.7164084131261097
SPLASH=splash10-004i-1390000000-d4f2203212989523e372
submitter=submitter = University of Tokyo Team (Faculty of Engineering, University of Tokyo)
MoNA Rating=3.75

>  <NUM PEAKS>  (1202) 
55

>  <MASS SPECTRAL PEAKS>  (1202) 
40 8.25
43 5.26
44 5.76
55 1.17
115 1.5
116 1.57
118 1.44
119 1.89
128 3.36
129 2.52
130 2.28
133 2.17
141 1.34
142 1.06
143 3.02
144 1.38
145 2.29
146 2.23
147 2.68
148 1.28
157 1.72
158 1.22
159 2.65
160 4.3
161 2.04
162 2.16
172 1.54
175 2.57
176 2.07
177 1.28
186 2.25
187 2.77
188 1.78
189 2.91
190 2.75
191 2.43
192 1.27
198 1.19
201 1.62
202 2.57
203 1.2
204 1.22
214 1.39
215 1.75
217 1.29
230 1.14
247 3.17
248 1.56
277 4.46
279 99.99
280 14.55
281 2.51
294 33.67
295 6.32
296 1.7

$$$$

     RDKit          2D

 16 16  0  0  0  0  0  0  0  0999 V2000
   -3.7245    0.4511    0.0000 C   0  0  0  0  0  0  0  0  0  0  0  0
    5.3687   -1.7989    0.0000 C   0  0  0  0  0  0  0  0  0  0  0  0
    5.2121   -0.9103    0.0000 C   0  0  0  0  0  0  0  0  0  0  0  0
   -2.4260   -1.7998    0.0000 C   0  0  0  0  0  0  0  0  0  0  0  0
   -1.1260    0.4519    0.0000 C   0  0  0  0  0  0  0  0  0  0  0  0
   -2.4255   -0.2989    0.0000 C   0  0  0  0  0  0  0  0  0  0  0  0
   -1.1269   -2.5498    0.0000 C   0  0  0  0  0  0  0  0  0  0  0  0
    0.1731   -0.2981    0.0000 C   0  0  0  0  0  0  0  0  0  0  0  0
    0.1726   -1.7989    0.0000 C   0  0  0  0  0  0  0  0  0  0  0  0
   -1.1267   -4.0498    0.0000 Cl  0  0  0  0  0  0  0  0  0  0  0  0
    1.4722    0.4517    0.0000 Cl  0  0  0  0  0  0  0  0  0  0  0  0
    4.0697   -2.5489    0.0000 O   0  0  0  0  0  0  0  0  0  0  0  0
    3.7348   -0.6499    0.0000 O   0  0  0  0  0  0  0  0  0  0  0  0
    1.4716   -2.5489    0.0000 O   0  0  0  0  0  0  0  0  0  0  0  0
    2.7707   -1.7989    0.0000 P   0  0  0  0  0  0  0  0  0  0  0  0
    1.8065   -0.6499    0.0000 S   0  0  0  0  0  0  0  0  0  0  0  0
  6  1  1  0
  6  4  2  0
  6  5  1  0
  7  4  1  0
  8  5  2  0
  9  7  2  0
  9  8  1  0
 10  7  1  0
 11  8  1  0
 12  2  1  0
 13  3  1  0
 14  9  1  0
 15 12  1  0
 15 13  1  0
 15 14  1  0
 16 15  2  0
M  END
>  <NAME>  (1203) 
PHOSPHOROTHIOIC ACID O-(2,6-DICHLORO-PARA-TOLYL) O,O-DIMETHYL ESTER

>  <SYNONYMS>  (1203) 


>  <SPECTRUM TYPE>  (1203) 
MS1

>  <INSTRUMENT TYPE>  (1203) 
EI-B

>  <INSTRUMENT>  (1203) 
JEOL JMS-DX-303

>  <ION MODE>  (1203) 
P

>  <INCHIKEY>  (1203) 
OBZIQQJJIKNWNO-UHFFFAOYSA-N

>  <FORMULA>  (1203) 
C9H11Cl2O3PS

>  <EXACT MASS>  (1203) 
299.95435720200004

>  <MW>  (1203) 
300

>  <ID>  (1203) 
JP010420

>  <CONTRIBUTOR>  (1203) 
University of Tokyo Team, {Faculty of Engineering, University of Tokyo

>  <COMMENT>  (1203) 
SMILES=Cc(c1)cc(Cl)c(c(Cl)1)OP(=S)(OC)OC
InChI=InChI=1S/C9H11Cl2O3PS/c1-6-4-7(10)9(8(11)5-6)14-15(16,12-2)13-3/h4-5H,1-3H3
computed SMILES=S=P(OC1=C(Cl)C=C(C=C1Cl)C)(OC)OC
accession=JP010420
author=UOEH
date=2016.01.19 (Created 2008.10.21, modified 2011.05.06)
license=CC BY-NC-SA
exact mass=299.95436
ionization energy=70 eV
ion type=[M]+*
computed spectral entropy=2.3101962944291934
computed normalized entropy=0.6932936701138207
SPLASH=splash10-014i-1290000000-427d0f0a69ae45c67115
submitter=submitter = University of Tokyo Team (Faculty of Engineering, University of Tokyo)
MoNA Rating=3.75

>  <NUM PEAKS>  (1203) 
28

>  <MASS SPECTRAL PEAKS>  (1203) 
47 2.96
51 1.49
62 1.54
63 3.25
75 2.07
77 1.63
79 5.15
93 11.7
109 4.96
111 4.15
112 1.94
113 1.41
125 19.27
127 1.08
141 1.39
175 3.22
176 1.32
177 2.07
187 1.47
249 3.81
250 10.08
251 2.46
252 3.83
265 99.99
266 11.84
267 40.53
268 4.91
269 3.18

$$$$

     RDKit          2D

 14 14  0  0  0  0  0  0  0  0999 V2000
    2.5989   -1.5002    0.0000 C   0  0  0  0  0  0  0  0  0  0  0  0
   -2.5989   -1.5002    0.0000 C   0  0  0  0  0  0  0  0  0  0  0  0
    1.3000   -0.7500    0.0000 C   0  0  0  0  0  0  0  0  0  0  0  0
   -1.3000   -0.7500    0.0000 C   0  0  0  0  0  0  0  0  0  0  0  0
   -0.0000   -1.5000    0.0000 C   0  0  0  0  0  0  0  0  0  0  0  0
    1.3000    0.7500    0.0000 C   0  0  0  0  0  0  0  0  0  0  0  0
   -1.3000    0.7500    0.0000 C   0  0  0  0  0  0  0  0  0  0  0  0
    0.0000    1.5000    0.0000 C   0  0  0  0  0  0  0  0  0  0  0  0
   -0.0000   -3.0000    0.0000 Cl  0  0  0  0  0  0  0  0  0  0  0  0
    2.5989    1.5002    0.0000 Cl  0  0  0  0  0  0  0  0  0  0  0  0
   -2.5989    1.5002    0.0000 Cl  0  0  0  0  0  0  0  0  0  0  0  0
    0.0000    3.0000    0.0000 Cl  0  0  0  0  0  0  0  0  0  0  0  0
    3.8978   -2.2504    0.0000 N   0  0  0  0  0  0  0  0  0  0  0  0
   -3.8978   -2.2504    0.0000 N   0  0  0  0  0  0  0  0  0  0  0  0
  3  1  1  0
  4  2  1  0
  5  3  2  0
  5  4  1  0
  6  3  1  0
  7  4  2  0
  8  6  2  0
  8  7  1  0
  9  5  1  0
 10  6  1  0
 11  7  1  0
 12  8  1  0
 13  1  3  0
 14  2  3  0
M  END
>  <NAME>  (1204) 
1,3,4,5-TETRACHLORO-2,6-DICYANOBENZENE

>  <SYNONYMS>  (1204) 
TPN

>  <SPECTRUM TYPE>  (1204) 
MS1

>  <INSTRUMENT TYPE>  (1204) 
EI-B

>  <INSTRUMENT>  (1204) 
JEOL JMS-DX-303

>  <ION MODE>  (1204) 
P

>  <INCHIKEY>  (1204) 
CRQQGFGUEAVUIL-UHFFFAOYSA-N

>  <FORMULA>  (1204) 
C8Cl4N2

>  <EXACT MASS>  (1204) 
263.88155872

>  <MW>  (1204) 
264

>  <ID>  (1204) 
JP010418

>  <CONTRIBUTOR>  (1204) 
University of Tokyo Team, {Faculty of Engineering, University of Tokyo

>  <COMMENT>  (1204) 
SMILES=N#Cc(c(Cl)1)c(Cl)c(Cl)c(Cl)c(C#N)1
InChI=InChI=1S/C8Cl4N2/c9-5-3(1-13)6(10)8(12)7(11)4(5)2-14
computed SMILES=N#CC1=C(Cl)C(Cl)=C(Cl)C(C#N)=C1Cl
accession=JP010418
date=2016.01.19 (Created 2008.10.21, modified 2011.05.06)
author=UOEH
license=CC BY-NC-SA
exact mass=263.88156
ionization energy=70 eV
ion type=[M]+*
computed spectral entropy=2.7105668459949794
computed normalized entropy=0.704016345968417
SPLASH=splash10-014i-0290000000-e11ada8b10c53d73e910
submitter=submitter = University of Tokyo Team (Faculty of Engineering, University of Tokyo)
MoNA Rating=3.75

>  <NUM PEAKS>  (1204) 
47

>  <MASS SPECTRAL PEAKS>  (1204) 
47 1.38
62 1.99
71 1.03
74 1.96
85 1.14
86 1.7
94 1.89
96 1.12
97 1.41
98 4.08
101 1.57
102 1.79
106 1.09
109 9.57
111 3.42
118 1.42
120 1.25
124 9.63
125 1.05
132 4.48
133 7.33
134 3.32
135 1.86
144 1.71
146 1.14
159 3.12
161 1.03
168 6.32
170 4.27
179 1.21
181 1.05
194 5.93
196 3.98
203 2.28
205 1.99
229 11.01
230 1.54
231 11.52
232 1.6
233 3.2
264 77.32
266 99.99
267 10.35
268 48.96
269 4.37
270 11.39
272 1.36

$$$$

     RDKit          2D

 14 14  0  0  0  0  0  0  0  0999 V2000
    5.1970    3.0000    0.0000 C   0  0  0  0  0  0  0  0  0  0  0  0
   -5.1970    3.0000    0.0000 C   0  0  0  0  0  0  0  0  0  0  0  0
   -3.8983    0.7498    0.0000 C   0  0  0  0  0  0  0  0  0  0  0  0
    3.8981    2.2498    0.0000 C   0  0  0  0  0  0  0  0  0  0  0  0
   -3.8981    2.2498    0.0000 C   0  0  0  0  0  0  0  0  0  0  0  0
   -0.0000   -0.0006    0.0000 C   0  0  0  0  0  0  0  0  0  0  0  0
    1.3000    2.2494    0.0000 C   0  0  0  0  0  0  0  0  0  0  0  0
   -1.3000    2.2494    0.0000 C   0  0  0  0  0  0  0  0  0  0  0  0
   -0.0000   -1.5006    0.0000 Cl  0  0  0  0  0  0  0  0  0  0  0  0
    2.5989    2.9996    0.0000 N   0  0  0  0  0  0  0  0  0  0  0  0
   -2.5989    2.9996    0.0000 N   0  0  0  0  0  0  0  0  0  0  0  0
    1.3000    0.7494    0.0000 N   0  0  0  0  0  0  0  0  0  0  0  0
   -1.3000    0.7494    0.0000 N   0  0  0  0  0  0  0  0  0  0  0  0
   -0.0000    2.9994    0.0000 N   0  0  0  0  0  0  0  0  0  0  0  0
  4  1  1  0
  5  2  1  0
  5  3  1  0
  9  6  1  0
 10  4  1  0
 10  7  2  3
 11  5  1  0
 11  8  2  3
 12  6  2  0
 12  7  1  0
 13  6  1  0
 13  8  1  0
 14  7  1  0
 14  8  1  0
M  END
>  <NAME>  (1205) 
6-CHLORO-N-ETHYL-N'-(1-METHYLETHYL)-1,3,5-TRIAZINE-2,4-DIAMINE

>  <SYNONYMS>  (1205) 
ATRAZINE

>  <SPECTRUM TYPE>  (1205) 
MS1

>  <INSTRUMENT TYPE>  (1205) 
EI-B

>  <INSTRUMENT>  (1205) 
JEOL JMS-DX-303

>  <ION MODE>  (1205) 
P

>  <INCHIKEY>  (1205) 
MXWJVTOOROXGIU-UHFFFAOYSA-N

>  <FORMULA>  (1205) 
C8H14ClN5

>  <EXACT MASS>  (1205) 
215.093773128

>  <MW>  (1205) 
215

>  <ID>  (1205) 
JP010417

>  <CONTRIBUTOR>  (1205) 
University of Tokyo Team, {Faculty of Engineering, University of Tokyo

>  <COMMENT>  (1205) 
SMILES=CCNc(n1)nc(NC(C)C)nc(Cl)1
InChI=InChI=1S/C8H14ClN5/c1-4-10-7-12-6(9)13-8(14-7)11-5(2)3/h5H,4H2,1-3H3,(H2,10,11,12,13,14)
computed SMILES=ClC1=NC(=NCC)NC(=NC(C)C)N1
accession=JP010417
date=2016.01.19 (Created 2008.10.21, modified 2011.05.06)
author=UOEH
license=CC BY-NC-SA
exact mass=215.09377
ionization energy=70 eV
ion type=[M]+*
computed spectral entropy=3.5352471047529854
computed normalized entropy=0.8213739867305686
SPLASH=splash10-0uxr-6690000000-583f3e9640ef44c789ce
submitter=submitter = University of Tokyo Team (Faculty of Engineering, University of Tokyo)
MoNA Rating=3.75

>  <NUM PEAKS>  (1205) 
74

>  <MASS SPECTRAL PEAKS>  (1205) 
39 1.55
41 5.41
42 7.02
43 18.39
53 1.64
55 3.56
57 1.49
58 37.89
59 1.27
62 3.42
64 1.18
67 1.24
68 17.19
69 12.04
70 1.32
71 12.42
79 1.66
81 1.04
83 2.5
87 2.58
90 1.04
91 3.1
92 20.6
93 7.88
94 5.69
95 2.06
96 7.62
97 1.74
99 1.23
100 3.21
101 1.39
104 7.72
105 5.3
106 2.42
107 2.2
110 3.65
121 1.09
122 10.48
123 3.07
129 1.88
130 4.36
131 2.18
132 12.24
133 1.28
134 3.75
136 2.05
137 1.83
138 9.5
145 6.96
147 2.53
152 1.68
157 1.85
158 11.09
159 2.17
160 3.6
164 1.63
172 14.36
173 29.49
174 6.7
175 9.53
180 1.82
184 1.18
186 2.37
187 3.89
198 2.13
200 99.99
201 10.19
202 31.05
203 3.09
214 6.21
215 62.68
216 8.32
217 19.41
218 2.89

$$$$

     RDKit          2D

 23 23  0  0  0  0  0  0  0  0999 V2000
    6.4952   -2.2500    0.0000 C   0  0  0  0  0  0  0  0  0  0  0  0
    2.5981   -4.5000    0.0000 C   0  0  0  0  0  0  0  0  0  0  0  0
    5.1962   -1.5000    0.0000 C   0  0  0  0  0  0  0  0  0  0  0  0
    1.2990   -3.7500    0.0000 C   0  0  0  0  0  0  0  0  0  0  0  0
    3.8971   -2.2500    0.0000 C   0  0  0  0  0  0  0  0  0  0  0  0
    2.5981   -1.5000    0.0000 C   0  0  0  0  0  0  0  0  0  0  0  0
   -2.5986   -1.5008    0.0000 C   0  0  0  0  0  0  0  0  0  0  0  0
   -1.2986    0.7508    0.0000 C   0  0  0  0  0  0  0  0  0  0  0  0
   -2.5981    0.0000    0.0000 C   0  0  0  0  0  0  0  0  0  0  0  0
   -1.2995   -2.2508    0.0000 C   0  0  0  0  0  0  0  0  0  0  0  0
    0.0005    0.0008    0.0000 C   0  0  0  0  0  0  0  0  0  0  0  0
   -0.0000   -1.5000    0.0000 C   0  0  0  0  0  0  0  0  0  0  0  0
   -3.8971    0.7500    0.0000 C   0  0  0  0  0  0  0  0  0  0  0  0
   -3.1471    2.0490    0.0000 F   0  0  0  0  0  0  0  0  0  0  0  0
   -5.1962    1.5000    0.0000 F   0  0  0  0  0  0  0  0  0  0  0  0
   -4.6471   -0.5490    0.0000 F   0  0  0  0  0  0  0  0  0  0  0  0
    1.2990   -2.2500    0.0000 N   0  0  0  0  0  0  0  0  0  0  0  0
   -1.2993   -3.7508    0.0000 N   0  0  0  0  0  0  0  0  0  0  0  0
    1.2996    0.7506    0.0000 N   0  0  0  0  0  0  0  0  0  0  0  0
   -2.5982   -4.5010    0.0000 O   0  0  0  0  0  0  0  0  0  0  0  0
   -0.0001   -4.5006    0.0000 O   0  0  0  0  0  0  0  0  0  0  0  0
    1.2999    2.2506    0.0000 O   0  0  0  0  0  0  0  0  0  0  0  0
    2.5986    0.0004    0.0000 O   0  0  0  0  0  0  0  0  0  0  0  0
  3  1  1  0
  4  2  1  0
  5  3  1  0
  6  5  1  0
  9  7  2  0
  9  8  1  0
 10  7  1  0
 11  8  2  0
 12 10  2  0
 12 11  1  0
 13  9  1  0
 14 13  1  0
 15 13  1  0
 16 13  1  0
 17  4  1  0
 17  6  1  0
 17 12  1  0
 18 10  1  0
 19 11  1  0
 20 18  1  0
 21 18  2  0
 22 19  1  0
 23 19  2  0
M  CHG  4  18   1  19   1  20  -1  22  -1
M  END
>  <NAME>  (1206) 
N-BUTYL-N-ETHYL-2,6-DINITRO-4-(TRIFLUOROMETHYL)BENZENAMINE

>  <SYNONYMS>  (1206) 
BENFLURALIN

>  <SPECTRUM TYPE>  (1206) 
MS1

>  <INSTRUMENT TYPE>  (1206) 
EI-B

>  <INSTRUMENT>  (1206) 
JEOL JMS-DX-303

>  <ION MODE>  (1206) 
P

>  <INCHIKEY>  (1206) 
SMDHCQAYESWHAE-UHFFFAOYSA-N

>  <FORMULA>  (1206) 
C13H16F3N3O4

>  <EXACT MASS>  (1206) 
335.109290652

>  <MW>  (1206) 
335

>  <ID>  (1206) 
JP010416

>  <CONTRIBUTOR>  (1206) 
University of Tokyo Team, {Faculty of Engineering, University of Tokyo

>  <COMMENT>  (1206) 
SMILES=CCCCN(CC)c(c([N+1]([O-1])=O)1)c([N+1]([O-1])=O)cc(c1)C(F)(F)F
InChI=InChI=1S/C13H16F3N3O4/c1-3-5-6-17(4-2)12-10(18(20)21)7-9(13(14,15)16)8-11(12)19(22)23/h7-8H,3-6H2,1-2H3
computed SMILES=O=N(=O)C=1C=C(C=C(C1N(CC)CCCC)N(=O)=O)C(F)(F)F
accession=JP010416
date=2016.01.19 (Created 2008.10.21, modified 2011.05.06)
author=UOEH
license=CC BY-NC-SA
exact mass=335.10929
ionization energy=70 eV
ion type=[M]+*
computed spectral entropy=3.200163205104361
computed normalized entropy=0.7507397452809811
SPLASH=splash10-0006-0291000000-590f003a75b7fddffc7b
submitter=submitter = University of Tokyo Team (Faculty of Engineering, University of Tokyo)
MoNA Rating=3.75

>  <NUM PEAKS>  (1206) 
71

>  <MASS SPECTRAL PEAKS>  (1206) 
36 1.53
41 3.44
43 2.44
55 1.17
57 3.03
105 2.67
126 1.23
133 1.16
140 1.65
143 1.42
144 1.01
145 4.13
146 1.4
147 1.21
152 1.04
153 2.08
158 1.41
159 3.13
160 4.41
161 1.03
166 1.19
171 1.18
172 2.52
173 1.52
174 1.93
185 1.31
186 3.34
187 3.05
188 2.16
189 1.53
198 1.42
199 1.7
200 2.7
201 2.76
202 3.14
206 4.07
213 1.54
214 1.8
215 2.26
218 2.55
227 1.01
228 2.52
229 1.78
230 1.37
232 3.45
234 1.19
240 1.39
241 1.08
242 2.01
243 1.03
246 1.19
248 2.97
260 2.36
262 1.82
264 22.13
265 2.39
271 2.53
273 1.2
276 12.13
277 1.53
278 1.42
288 1.09
292 99.99
293 12.74
294 1.95
316 3.93
318 7.96
319 1.43
320 1.64
335 7.43
336 1.71

$$$$

     RDKit          2D

 23 23  0  0  0  0  0  0  0  0999 V2000
   -3.2476   -5.6250    0.0000 C   0  0  0  0  0  0  0  0  0  0  0  0
   -5.8457   -1.1250    0.0000 C   0  0  0  0  0  0  0  0  0  0  0  0
   -3.2476   -4.1250    0.0000 C   0  0  0  0  0  0  0  0  0  0  0  0
   -4.5466   -1.8750    0.0000 C   0  0  0  0  0  0  0  0  0  0  0  0
   -1.9486   -3.3750    0.0000 C   0  0  0  0  0  0  0  0  0  0  0  0
   -3.2476   -1.1250    0.0000 C   0  0  0  0  0  0  0  0  0  0  0  0
    0.6490    1.1258    0.0000 C   0  0  0  0  0  0  0  0  0  0  0  0
    1.9490   -1.1258    0.0000 C   0  0  0  0  0  0  0  0  0  0  0  0
    1.9486    0.3750    0.0000 C   0  0  0  0  0  0  0  0  0  0  0  0
   -0.6500    0.3758    0.0000 C   0  0  0  0  0  0  0  0  0  0  0  0
    0.6500   -1.8758    0.0000 C   0  0  0  0  0  0  0  0  0  0  0  0
   -0.6495   -1.1250    0.0000 C   0  0  0  0  0  0  0  0  0  0  0  0
    3.2476    1.1250    0.0000 C   0  0  0  0  0  0  0  0  0  0  0  0
    3.9976   -0.1740    0.0000 F   0  0  0  0  0  0  0  0  0  0  0  0
    4.5466    1.8750    0.0000 F   0  0  0  0  0  0  0  0  0  0  0  0
    2.4976    2.4240    0.0000 F   0  0  0  0  0  0  0  0  0  0  0  0
   -1.9486   -1.8750    0.0000 N   0  0  0  0  0  0  0  0  0  0  0  0
   -1.9492    1.1256    0.0000 N   0  0  0  0  0  0  0  0  0  0  0  0
    0.6498   -3.3758    0.0000 N   0  0  0  0  0  0  0  0  0  0  0  0
   -1.9494    2.6256    0.0000 O   0  0  0  0  0  0  0  0  0  0  0  0
   -3.2481    0.3754    0.0000 O   0  0  0  0  0  0  0  0  0  0  0  0
    1.9487   -4.1260    0.0000 O   0  0  0  0  0  0  0  0  0  0  0  0
   -0.6494   -4.1256    0.0000 O   0  0  0  0  0  0  0  0  0  0  0  0
  3  1  1  0
  4  2  1  0
  5  3  1  0
  6  4  1  0
  9  7  2  0
  9  8  1  0
 10  7  1  0
 11  8  2  0
 12 10  2  0
 12 11  1  0
 13  9  1  0
 14 13  1  0
 15 13  1  0
 16 13  1  0
 17  5  1  0
 17  6  1  0
 17 12  1  0
 18 10  1  0
 19 11  1  0
 20 18  1  0
 21 18  2  0
 22 19  1  0
 23 19  2  0
M  CHG  4  18   1  19   1  20  -1  22  -1
M  END
>  <NAME>  (1207) 
2,6-DINITRO-N,N-DIPROPYL-4-(TRIFLUOROMETHYL)BENZENAMINE

>  <SYNONYMS>  (1207) 
TRIFLURALIN

>  <SPECTRUM TYPE>  (1207) 
MS1

>  <INSTRUMENT TYPE>  (1207) 
EI-B

>  <INSTRUMENT>  (1207) 
JEOL JMS-DX-303

>  <ION MODE>  (1207) 
P

>  <INCHIKEY>  (1207) 
ZSDSQXJSNMTJDA-UHFFFAOYSA-N

>  <FORMULA>  (1207) 
C13H16F3N3O4

>  <EXACT MASS>  (1207) 
335.109290652

>  <MW>  (1207) 
335

>  <ID>  (1207) 
JP010415

>  <CONTRIBUTOR>  (1207) 
University of Tokyo Team, {Faculty of Engineering, University of Tokyo

>  <COMMENT>  (1207) 
SMILES=CCCN(CCC)c(c([N+1]([O-1])=O)1)c([N+1]([O-1])=O)cc(c1)C(F)(F)F
InChI=InChI=1S/C13H16F3N3O4/c1-3-5-17(6-4-2)12-10(18(20)21)7-9(13(14,15)16)8-11(12)19(22)23/h7-8H,3-6H2,1-2H3
computed SMILES=O=N(=O)C=1C=C(C=C(C1N(CCC)CCC)N(=O)=O)C(F)(F)F
accession=JP010415
author=UOEH
license=CC BY-NC-SA
exact mass=335.10929
date=2016.01.19 (Created 2008.10.21, modified 2011.05.06)
ionization energy=70 eV
ion type=[M]+*
computed spectral entropy=3.8606151274319886
computed normalized entropy=0.8022583596827337
SPLASH=splash10-0btc-4495000000-1a82dafa24cf4fa1ee6a
submitter=submitter = University of Tokyo Team (Faculty of Engineering, University of Tokyo)
MoNA Rating=3.75

>  <NUM PEAKS>  (1207) 
123

>  <MASS SPECTRAL PEAKS>  (1207) 
36 1.92
38 1.14
39 3.62
40 1.84
41 21.62
42 2.67
43 53.63
44 3.39
51 1.3
56 2.28
57 6.82
58 2.98
65 1.13
70 3.55
72 1.41
75 2.35
76 1.4
78 1.16
91 1.1
99 1.06
102 1.06
105 3.45
106 1.16
117 1.31
118 1.01
125 2.6
126 3.27
127 1.43
130 1.64
131 1.83
132 1.5
133 1.93
138 1.1
139 1.35
140 2.33
141 1.55
143 2.05
144 2.32
145 6.88
146 1.85
147 1.63
148 1.24
151 1.3
153 4.78
158 2.95
159 6.35
160 6.47
161 3.52
162 1.24
166 1.4
167 1.14
171 2.19
172 5.37
173 3.03
174 3.27
176 1.09
185 2.44
186 5.84
187 5.46
188 3
189 2.61
190 2.44
198 3.21
199 2
200 2.98
201 4.1
202 5.88
206 6.34
211 1.43
212 2.35
213 5.01
214 5.05
215 2.52
217 1.84
218 2.53
219 1.14
225 1.06
226 1.1
227 3.48
228 4.01
229 3.74
230 1.39
231 1.47
232 5.97
233 1.11
234 1.67
240 1.99
241 1.03
242 7.72
243 2.88
244 2.95
245 1.01
248 11.42
249 1.59
252 1.35
253 1.07
254 2.83
258 1.28
259 1.38
260 2.74
264 68.77
265 6.32
266 1.39
268 1.34
269 1.77
270 1.05
271 5.94
272 1.85
274 4
275 1.22
276 1.19
290 12.24
291 2.15
301 2.04
302 1.03
303 1.14
306 99.99
307 12.2
308 1.36
316 6.75
318 4.16
335 10.72
336 2.18

$$$$

     RDKit          2D

 15 15  0  0  0  0  0  0  0  0999 V2000
   -1.6353    4.6878    0.0000 C   0  0  0  0  0  0  0  0  0  0  0  0
   -2.9306    2.4356    0.0000 C   0  0  0  0  0  0  0  0  0  0  0  0
    6.1662    0.1908    0.0000 C   0  0  0  0  0  0  0  0  0  0  0  0
   -1.6200   -1.3100    0.0000 C   0  0  0  0  0  0  0  0  0  0  0  0
   -0.3300   -2.0600    0.0000 C   0  0  0  0  0  0  0  0  0  0  0  0
   -1.6200    0.1900    0.0000 C   0  0  0  0  0  0  0  0  0  0  0  0
    0.9700   -1.3100    0.0000 C   0  0  0  0  0  0  0  0  0  0  0  0
   -1.6328    3.1878    0.0000 C   0  0  0  0  0  0  0  0  0  0  0  0
   -0.3300    0.9400    0.0000 C   0  0  0  0  0  0  0  0  0  0  0  0
    0.9700    0.1900    0.0000 C   0  0  0  0  0  0  0  0  0  0  0  0
    3.5681    0.1904    0.0000 C   0  0  0  0  0  0  0  0  0  0  0  0
    4.8670    0.9406    0.0000 N   0  0  0  0  0  0  0  0  0  0  0  0
    3.5683   -1.3096    0.0000 O   0  0  0  0  0  0  0  0  0  0  0  0
   -0.3325    2.4400    0.0000 O   0  0  0  0  0  0  0  0  0  0  0  0
    2.2689    0.9402    0.0000 O   0  0  0  0  0  0  0  0  0  0  0  0
  5  4  2  0
  6  4  1  0
  7  5  1  0
  8  1  1  0
  8  2  1  0
  9  6  2  0
 10  7  2  0
 10  9  1  0
 12  3  1  0
 12 11  2  3
 13 11  1  0
 14  8  1  0
 14  9  1  0
 15 10  1  0
 15 11  1  0
M  END
>  <NAME>  (1208) 
2-(1-METHYLETHOXY)PHENOL METHYLCARBAMATE

>  <SYNONYMS>  (1208) 
PROPOXUR

>  <SPECTRUM TYPE>  (1208) 
MS1

>  <INSTRUMENT TYPE>  (1208) 
EI-B

>  <INSTRUMENT>  (1208) 
JEOL JMS-DX-303

>  <ION MODE>  (1208) 
P

>  <INCHIKEY>  (1208) 
ISRUGXGCCGIOQO-UHFFFAOYSA-N

>  <FORMULA>  (1208) 
C11H15NO3

>  <EXACT MASS>  (1208) 
209.10519333999997

>  <MW>  (1208) 
209

>  <ID>  (1208) 
JP010414

>  <CONTRIBUTOR>  (1208) 
University of Tokyo Team, {Faculty of Engineering, University of Tokyo

>  <COMMENT>  (1208) 
SMILES=CNC(=O)Oc(c1)c(ccc1)OC(C)C
InChI=InChI=1S/C11H15NO3/c1-8(2)14-9-6-4-5-7-10(9)15-11(13)12-3/h4-8H,1-3H3,(H,12,13)
computed SMILES=OC(=NC)OC=1C=CC=CC1OC(C)C
accession=JP010414
date=2016.01.19 (Created 2008.10.21, modified 2011.05.06)
author=UOEH
license=CC BY-NC-SA
exact mass=209.10519
ionization energy=70 eV
ion type=[M]+*
computed spectral entropy=1.720624169520946
computed normalized entropy=0.5651540445888659
SPLASH=splash10-03di-2900000000-3850ae269b8607d7091b
submitter=submitter = University of Tokyo Team (Faculty of Engineering, University of Tokyo)
MoNA Rating=3.75

>  <NUM PEAKS>  (1208) 
21

>  <MASS SPECTRAL PEAKS>  (1208) 
39 1.55
41 2.45
43 3.61
44 1.43
52 1.83
53 1.43
56 1.63
57 4.22
58 3.25
63 1.5
64 2.53
81 3.9
82 1.01
92 1.44
109 3.54
110 99.99
111 6.84
137 1.55
152 22
153 2.11
209 1.69

$$$$

     RDKit          2D

 12 12  0  0  0  0  0  0  0  0999 V2000
   -3.8981   -0.7504    0.0000 C   0  0  0  0  0  0  0  0  0  0  0  0
    3.8981    0.7504    0.0000 C   0  0  0  0  0  0  0  0  0  0  0  0
   -1.3000    0.7500    0.0000 C   0  0  0  0  0  0  0  0  0  0  0  0
    1.3000   -0.7500    0.0000 C   0  0  0  0  0  0  0  0  0  0  0  0
    0.0000   -1.5000    0.0000 C   0  0  0  0  0  0  0  0  0  0  0  0
    0.0000    1.5000    0.0000 C   0  0  0  0  0  0  0  0  0  0  0  0
   -1.3000   -0.7500    0.0000 C   0  0  0  0  0  0  0  0  0  0  0  0
    1.3000    0.7500    0.0000 C   0  0  0  0  0  0  0  0  0  0  0  0
   -0.0000   -3.0000    0.0000 Cl  0  0  0  0  0  0  0  0  0  0  0  0
    0.0000    3.0000    0.0000 Cl  0  0  0  0  0  0  0  0  0  0  0  0
   -2.5989   -1.5002    0.0000 O   0  0  0  0  0  0  0  0  0  0  0  0
    2.5989    1.5002    0.0000 O   0  0  0  0  0  0  0  0  0  0  0  0
  5  4  1  0
  6  3  2  0
  7  3  1  0
  7  5  2  0
  8  4  2  0
  8  6  1  0
  9  5  1  0
 10  6  1  0
 11  1  1  0
 11  7  1  0
 12  2  1  0
 12  8  1  0
M  END
>  <NAME>  (1209) 
1,4-DICHLORO-2,5-DIMETHOXYBENZENE

>  <SYNONYMS>  (1209) 


>  <SPECTRUM TYPE>  (1209) 
MS1

>  <INSTRUMENT TYPE>  (1209) 
EI-B

>  <INSTRUMENT>  (1209) 
JEOL JMS-DX-303

>  <ION MODE>  (1209) 
P

>  <INCHIKEY>  (1209) 
PFIADAMVCJPXSF-UHFFFAOYSA-N

>  <FORMULA>  (1209) 
C8H8Cl2O2

>  <EXACT MASS>  (1209) 
205.990134856

>  <MW>  (1209) 
206

>  <ID>  (1209) 
JP010413

>  <CONTRIBUTOR>  (1209) 
University of Tokyo Team, {Faculty of Engineering, University of Tokyo

>  <COMMENT>  (1209) 
SMILES=COc(c1)c(Cl)cc(OC)c(Cl)1
InChI=InChI=1S/C8H8Cl2O2/c1-11-7-3-6(10)8(12-2)4-5(7)9/h3-4H,1-2H3
computed SMILES=ClC=1C=C(OC)C(Cl)=CC1OC
accession=JP010413
date=2016.01.19 (Created 2008.10.21, modified 2011.05.06)
author=UOEH
license=CC BY-NC-SA
exact mass=205.99013
ionization energy=70 eV
ion type=[M]+*
computed spectral entropy=2.876796836461073
computed normalized entropy=0.7391905627959441
SPLASH=splash10-052f-1940000000-72f4358b88641eca0381
submitter=submitter = University of Tokyo Team (Faculty of Engineering, University of Tokyo)
MoNA Rating=3.75

>  <NUM PEAKS>  (1209) 
49

>  <MASS SPECTRAL PEAKS>  (1209) 
50 1.98
53 10.94
60 1.72
61 2.09
62 3.6
63 3.16
73 1.39
74 1.76
75 2.21
77 1.83
85 4.48
87 2.81
88 1.85
97 7.77
98 1.8
99 4.18
100 1.41
103 1.41
109 1.28
111 2.35
113 13.47
114 1.21
115 4.45
120 2.32
122 1.46
126 2.17
132 1.75
133 1.21
134 1.2
141 29.61
142 2.5
143 9.24
144 1.18
148 3.79
150 2.23
160 1.41
163 10.05
165 6.4
167 1.14
191 99.99
192 8.07
193 65.59
194 5.51
195 11.04
206 71.12
207 6.59
208 48.49
209 4.3
210 9

$$$$

     RDKit          2D

 10 11  0  0  0  0  0  0  0  0999 V2000
   -2.6000   -0.7500    0.0000 C   0  0  0  0  0  0  0  0  0  0  0  0
   -2.6000    0.7500    0.0000 C   0  0  0  0  0  0  0  0  0  0  0  0
    2.6000   -0.7500    0.0000 C   0  0  0  0  0  0  0  0  0  0  0  0
    2.6000    0.7500    0.0000 C   0  0  0  0  0  0  0  0  0  0  0  0
   -1.3000   -1.5000    0.0000 C   0  0  0  0  0  0  0  0  0  0  0  0
   -1.3000    1.5000    0.0000 C   0  0  0  0  0  0  0  0  0  0  0  0
    1.3000   -1.5000    0.0000 C   0  0  0  0  0  0  0  0  0  0  0  0
    1.3000    1.5000    0.0000 C   0  0  0  0  0  0  0  0  0  0  0  0
    0.0000   -0.7500    0.0000 C   0  0  0  0  0  0  0  0  0  0  0  0
    0.0000    0.7500    0.0000 C   0  0  0  0  0  0  0  0  0  0  0  0
  2  1  2  0
  4  3  1  0
  5  1  1  0
  6  2  1  0
  7  3  2  0
  8  4  2  0
  9  5  2  0
  9  7  1  0
 10  6  2  0
 10  8  1  0
 10  9  1  0
M  END
>  <NAME>  (1210) 
NAPHTHALENE

>  <SYNONYMS>  (1210) 


>  <SPECTRUM TYPE>  (1210) 
MS1

>  <INSTRUMENT TYPE>  (1210) 
EI-B

>  <INSTRUMENT>  (1210) 
JEOL JMS-DX-300

>  <ION MODE>  (1210) 
P

>  <INCHIKEY>  (1210) 
UFWIBTONFRDIAS-UHFFFAOYSA-N

>  <FORMULA>  (1210) 
C10H8

>  <EXACT MASS>  (1210) 
128.062600256

>  <MW>  (1210) 
128

>  <ID>  (1210) 
JP010372

>  <CONTRIBUTOR>  (1210) 
University of Tokyo Team, {Faculty of Engineering, University of Tokyo

>  <COMMENT>  (1210) 
SMILES=c(c2)cc(c1)c(c2)ccc1
cas=91-20-3
InChI=InChI=1S/C10H8/c1-2-6-10-8-4-3-7-9(10)5-1/h1-8H
computed SMILES=C=1C=CC=2C=CC=CC2C1
accession=JP010372
date=2016.01.19 (Created 2008.10.21, modified 2011.05.06)
author=HISAHIRO HAGIWARA, CHEMICAL RESEARCH INSTITUTE OF NON-AQUEOUSSOLUTIONS TOHOKU UNIV.
license=CC BY-NC-SA
exact mass=128.0626
ionization energy=70 eV
ion type=[M]+*
computed spectral entropy=2.365678917138918
computed normalized entropy=0.8184687352677573
SPLASH=splash10-004i-7900000000-43781a61560faeff786d
submitter=submitter = University of Tokyo Team (Faculty of Engineering, University of Tokyo)
MoNA Rating=3.75

>  <NUM PEAKS>  (1210) 
18

>  <MASS SPECTRAL PEAKS>  (1210) 
40 24.29
41 6.45
43 6.88
44 8.67
51 13.66
55 9.91
57 5.3
63 8.17
64 13.51
75 5.03
77 6.82
78 7.38
83 5.55
102 7.64
126 8.1
127 15.02
128 99.99
129 13.47

$$$$

     RDKit          2D

 14 16  0  0  0  0  0  0  0  0999 V2000
    3.9000   -0.7500    0.0000 C   0  0  0  0  0  0  0  0  0  0  0  0
    3.9000    0.7500    0.0000 C   0  0  0  0  0  0  0  0  0  0  0  0
   -3.9000   -0.7500    0.0000 C   0  0  0  0  0  0  0  0  0  0  0  0
   -3.9000    0.7500    0.0000 C   0  0  0  0  0  0  0  0  0  0  0  0
    2.6000   -1.5000    0.0000 C   0  0  0  0  0  0  0  0  0  0  0  0
    2.6000    1.5000    0.0000 C   0  0  0  0  0  0  0  0  0  0  0  0
   -2.6000   -1.5000    0.0000 C   0  0  0  0  0  0  0  0  0  0  0  0
   -2.6000    1.5000    0.0000 C   0  0  0  0  0  0  0  0  0  0  0  0
   -0.0000   -1.5000    0.0000 C   0  0  0  0  0  0  0  0  0  0  0  0
   -0.0000    1.5000    0.0000 C   0  0  0  0  0  0  0  0  0  0  0  0
    1.3000   -0.7500    0.0000 C   0  0  0  0  0  0  0  0  0  0  0  0
    1.3000    0.7500    0.0000 C   0  0  0  0  0  0  0  0  0  0  0  0
   -1.3000   -0.7500    0.0000 C   0  0  0  0  0  0  0  0  0  0  0  0
   -1.3000    0.7500    0.0000 C   0  0  0  0  0  0  0  0  0  0  0  0
  2  1  2  0
  4  3  1  0
  5  1  1  0
  6  2  1  0
  7  3  2  0
  8  4  2  0
 11  5  2  0
 11  9  1  0
 12  6  2  0
 12 10  1  0
 12 11  1  0
 13  7  1  0
 13  9  2  0
 14  8  1  0
 14 10  2  0
 14 13  1  0
M  END
>  <NAME>  (1211) 
ANTHRACENE

>  <SYNONYMS>  (1211) 


>  <SPECTRUM TYPE>  (1211) 
MS1

>  <INSTRUMENT TYPE>  (1211) 
EI-B

>  <INSTRUMENT>  (1211) 
JEOL JMS-DX-300

>  <ION MODE>  (1211) 
P

>  <INCHIKEY>  (1211) 
MWPLVEDNUUSJAV-UHFFFAOYSA-N

>  <FORMULA>  (1211) 
C14H10

>  <EXACT MASS>  (1211) 
178.07825032

>  <MW>  (1211) 
178

>  <ID>  (1211) 
JP010371

>  <CONTRIBUTOR>  (1211) 
University of Tokyo Team, {Faculty of Engineering, University of Tokyo

>  <COMMENT>  (1211) 
SMILES=c(c3)cc(c1)c(c3)cc(c2)c(ccc2)1
cas=120-12-7
InChI=InChI=1S/C14H10/c1-2-6-12-10-14-8-4-3-7-13(14)9-11(12)5-1/h1-10H
computed SMILES=C=1C=CC=2C=C3C=CC=CC3=CC2C1
accession=JP010371
date=2016.01.19 (Created 2008.10.21, modified 2011.05.06)
author=HISAHIRO HAGIWARA, CHEMICAL RESEARCH INSTITUTE OF NON-AQUEOUSSOLUTIONS TOHOKU UNIV.
license=CC BY-NC-SA
exact mass=178.07825
ionization energy=70 eV
ion type=[M]+*
computed spectral entropy=2.1262676467998944
computed normalized entropy=0.6983911895193112
SPLASH=splash10-004i-3900000000-e7b66d113908d54685ff
submitter=submitter = University of Tokyo Team (Faculty of Engineering, University of Tokyo)
MoNA Rating=3.75

>  <NUM PEAKS>  (1211) 
21

>  <MASS SPECTRAL PEAKS>  (1211) 
51 1.3
62 1.17
63 4.18
74 0.16
75 5.34
76 16.23
77 1.26
87 0.23
88 11.25
89 19.59
126 1.36
150 4.69
151 7.15
152 6.47
174 1.83
175 2.69
176 17.99
177 10.35
178 99.99
179 17.21
180 1.35

$$$$

     RDKit          2D

 21 22  0  0  0  0  0  0  0  0999 V2000
  -11.0418    5.9458    0.0000 C   0  0  0  0  0  0  0  0  0  0  0  0
    4.5466    5.9458    0.0000 C   0  0  0  0  0  0  0  0  0  0  0  0
  -11.0423    4.4450    0.0000 C   0  0  0  0  0  0  0  0  0  0  0  0
   -9.7423    6.6967    0.0000 C   0  0  0  0  0  0  0  0  0  0  0  0
    3.2471    6.6967    0.0000 C   0  0  0  0  0  0  0  0  0  0  0  0
    4.5471    4.4450    0.0000 C   0  0  0  0  0  0  0  0  0  0  0  0
   -9.7433    3.6950    0.0000 C   0  0  0  0  0  0  0  0  0  0  0  0
   -8.4433    5.9467    0.0000 C   0  0  0  0  0  0  0  0  0  0  0  0
    1.9481    5.9467    0.0000 C   0  0  0  0  0  0  0  0  0  0  0  0
    3.2481    3.6950    0.0000 C   0  0  0  0  0  0  0  0  0  0  0  0
   -7.1447    3.6958    0.0000 C   0  0  0  0  0  0  0  0  0  0  0  0
    0.6495    3.6958    0.0000 C   0  0  0  0  0  0  0  0  0  0  0  0
   -5.8457    4.4458    0.0000 C   0  0  0  0  0  0  0  0  0  0  0  0
   -0.6495    4.4458    0.0000 C   0  0  0  0  0  0  0  0  0  0  0  0
   -3.2476    4.4458    0.0000 C   0  0  0  0  0  0  0  0  0  0  0  0
   -8.4437    4.4458    0.0000 C   0  0  0  0  0  0  0  0  0  0  0  0
    1.9486    4.4458    0.0000 C   0  0  0  0  0  0  0  0  0  0  0  0
   -4.5466    3.6958    0.0000 C   0  0  0  0  0  0  0  0  0  0  0  0
   -1.9486    3.6958    0.0000 C   0  0  0  0  0  0  0  0  0  0  0  0
   -4.5466    2.1958    0.0000 O   0  0  0  0  0  0  0  0  0  0  0  0
   -1.9486    2.1958    0.0000 O   0  0  0  0  0  0  0  0  0  0  0  0
  3  1  2  0
  4  1  1  0
  5  2  2  0
  6  2  1  0
  7  3  1  0
  8  4  2  0
  9  5  1  0
 10  6  2  0
 11 13  2  0
 14 12  1  0
 16  7  2  0
 16  8  1  0
 16 11  1  0
 17  9  2  0
 17 10  1  0
 17 12  1  0
 18 13  1  0
 18 15  1  0
 19 14  1  0
 19 15  1  0
 20 18  2  0
 21 19  1  0
M  END
>  <NAME>  (1212) 
YASHABUSHIKETOL

>  <SYNONYMS>  (1212) 
5-HYDROXY-3-OXO-1,7-DIPHENYL-1-HEPTENE

>  <SPECTRUM TYPE>  (1212) 
MS1

>  <INSTRUMENT TYPE>  (1212) 
EI-B

>  <INSTRUMENT>  (1212) 
JEOL JMS-D-300

>  <ION MODE>  (1212) 
P

>  <INCHIKEY>  (1212) 
OUAINJWTDRNZIJ-ACCUITESSA-N

>  <FORMULA>  (1212) 
C19H20O2

>  <EXACT MASS>  (1212) 
280.14632988

>  <MW>  (1212) 
280

>  <ID>  (1212) 
JP010370

>  <CONTRIBUTOR>  (1212) 
University of Tokyo Team, {Faculty of Engineering, University of Tokyo

>  <COMMENT>  (1212) 
SMILES=OC(CCc(c2)cccc2)CC(=O)C=Cc(c1)cccc1
InChI=InChI=1S/C19H20O2/c20-18(13-11-16-7-3-1-4-8-16)15-19(21)14-12-17-9-5-2-6-10-17/h1-11,13,19,21H,12,14-15H2/b13-11+
computed SMILES=O=C(C=CC=1C=CC=CC1)CC(O)CCC=2C=CC=CC2
accession=JP010370
date=2016.01.19 (Created 2008.10.21, modified 2011.05.06)
author=HISAHIRO HAGIWARA, CHEMICAL RESEARCH INSTITUTE OF NON-AQUEOUSSOLUTIONS TOHOKU UNIV.
license=CC BY-NC-SA
exact mass=280.14633
ionization energy=70 eV
ion type=[M]+*
computed spectral entropy=3.286952187182286
computed normalized entropy=0.8240073534546595
SPLASH=splash10-001m-2900000000-0c66bb6c24063783837c
submitter=submitter = University of Tokyo Team (Faculty of Engineering, University of Tokyo)
MoNA Rating=3.75

>  <NUM PEAKS>  (1212) 
54

>  <MASS SPECTRAL PEAKS>  (1212) 
32 3.03
43 4.69
44 1.17
55 2.24
56 1.63
65 3.03
77 12.1
78 13.86
79 6.09
91 50.35
92 43.3
93 3.38
102 2.09
103 33.94
104 16.04
105 23.06
106 2.99
107 1.99
115 4.97
116 8.14
117 13.82
118 2.42
127 5.9
128 3.92
129 5.5
130 10.78
131 99.99
132 15.25
133 13.48
134 31.54
135 3.31
143 2.55
144 1.83
145 32.41
146 41.93
147 8.92
148 3.73
149 1.18
157 3.65
158 5.44
159 1
170 1.2
171 8.63
172 1.17
175 21.85
176 4.54
189 3.23
193 1.14
234 1.06
261 1.79
262 8.68
263 1.93
280 7.39
281 1.78

$$$$

     RDKit          2D

 27 31  0  0  1  0  0  0  0  0999 V2000
    3.5700    6.8310    0.0000 C   0  0  0  0  0  0  0  0  0  0  0  0
   -1.6264    5.5188    0.0000 C   0  0  0  0  0  0  0  0  0  0  0  0
    4.5100   -0.1600    0.0000 C   0  0  0  0  0  0  0  0  0  0  0  0
    3.8000   -1.6500    0.0000 C   0  0  0  0  0  0  0  0  0  0  0  0
    3.4500    2.4000    0.0000 C   0  0  0  0  0  0  0  0  0  0  0  0
   -1.7100   -2.0300    0.0000 C   0  0  0  0  0  0  0  0  0  0  0  0
   -1.7100    0.9700    0.0000 C   0  0  0  0  0  0  0  0  0  0  0  0
    0.8400   -2.0700    0.0000 C   0  0  0  0  0  0  0  0  0  0  0  0
   -5.3000   -0.4800    0.0000 C   0  0  0  0  0  0  0  0  0  0  0  0
    3.5375    5.3313    0.0000 C   0  0  0  0  0  0  0  0  0  0  0  0
   -0.3480    4.7341    0.0000 C   0  0  0  0  0  0  0  0  0  0  0  0
    3.4500    0.9100    0.0000 C   0  0  0  0  0  0  0  0  0  0  0  0
   -0.4200   -1.2700    0.0000 C   0  0  0  0  0  0  0  0  0  0  0  0
   -0.4200    0.1300    0.0000 C   0  0  0  0  0  0  0  0  0  0  0  0
   -2.9800   -1.2200    0.0000 C   0  0  0  0  0  0  0  0  0  0  0  0
   -2.9700    0.1700    0.0000 C   0  0  0  0  0  0  0  0  0  0  0  0
    2.1900    3.1100    0.0000 C   0  0  0  0  0  0  0  0  0  0  0  0
    0.8900    0.9500    0.0000 C   0  0  0  0  0  0  0  0  0  0  0  0
    2.1400    0.0900    0.0000 C   0  0  0  0  0  0  0  0  0  0  0  0
    0.8900    2.4500    0.0000 C   0  0  0  0  0  0  0  0  0  0  0  0
    2.1100   -1.2700    0.0000 N   0  0  0  0  0  0  0  0  0  0  0  0
    4.8200    4.5533    0.0000 O   0  0  0  0  0  0  0  0  0  0  0  0
    0.9707    5.4489    0.0000 O   0  0  0  0  0  0  0  0  0  0  0  0
   -4.3800   -1.6800    0.0000 O   0  0  0  0  0  0  0  0  0  0  0  0
   -4.3700    0.6500    0.0000 O   0  0  0  0  0  0  0  0  0  0  0  0
    2.2225    4.6096    0.0000 O   0  0  0  0  0  0  0  0  0  0  0  0
   -0.3884    3.2347    0.0000 O   0  0  0  0  0  0  0  0  0  0  0  0
  4  3  1  0
 10  1  1  0
 11  2  1  0
 12  3  1  0
 12  5  2  0
 13  6  2  0
 13  8  1  0
 14  7  2  0
 14 13  1  0
 15  6  1  0
 16  7  1  0
 16 15  2  0
 17  5  1  0
 18 14  1  6
 19 12  1  1
 19 18  1  0
 20 17  1  0
 20 18  1  0
 21  4  1  0
 21  8  1  0
 19 21  1  0
 22 10  2  0
 23 11  2  0
 24  9  1  0
 24 15  1  0
 25  9  1  0
 25 16  1  0
 26 10  1  0
 17 26  1  1
 27 11  1  0
 20 27  1  6
M  END
>  <NAME>  (1213) 
LYCORINE DIACETATE

>  <SYNONYMS>  (1213) 


>  <SPECTRUM TYPE>  (1213) 
MS1

>  <INSTRUMENT TYPE>  (1213) 
EI-B

>  <INSTRUMENT>  (1213) 
JEOL JMS-DX-300

>  <ION MODE>  (1213) 
P

>  <INCHIKEY>  (1213) 
LMZHAKUXAHOCST-VNTMZGSJSA-N

>  <FORMULA>  (1213) 
C20H21NO6

>  <EXACT MASS>  (1213) 
371.13688739199995

>  <MW>  (1213) 
371

>  <ID>  (1213) 
JP010369

>  <CONTRIBUTOR>  (1213) 
University of Tokyo Team, {Faculty of Engineering, University of Tokyo

>  <COMMENT>  (1213) 
SMILES=CC(=O)OC(C=5)C(OC(C)=O)C([H])(c21)C([H])(C45)N(CC4)Cc(cc(O3)c(OC3)c2)1
InChI=InChI=1S/C20H21NO6/c1-10(22)26-17-5-12-3-4-21-8-13-6-15-16(25-9-24-15)7-14(13)18(19(12)21)20(17)27-11(2)23/h5-7,17-20H,3-4,8-9H2,1-2H3/t17-,18-,19+,20+/m0/s1
computed SMILES=O=C(OC1C=C2CCN3CC4=CC=5OCOC5C=C4C(C1OC(=O)C)C23)C
accession=JP010369
date=2016.01.19 (Created 2008.10.21, modified 2011.05.06)
author=HISAHIRO HAGIWARA, CHEMICAL RESEARCH INSTITUTE OF NON-AQUEOUSSOLUTIONS TOHOKU UNIV.
license=CC BY-NC-SA
exact mass=371.13689
ionization energy=70 eV
ion type=[M]+*
computed spectral entropy=3.104444448449606
computed normalized entropy=0.8415684185579573
SPLASH=splash10-0udi-1192000000-b29bd9463a42dc4ba223
submitter=submitter = University of Tokyo Team (Faculty of Engineering, University of Tokyo)
MoNA Rating=3.75

>  <NUM PEAKS>  (1213) 
40

>  <MASS SPECTRAL PEAKS>  (1213) 
43 42.35
77 3.43
89 3.82
91 3.08
96 7.14
115 3.07
147 5.11
154 3.45
166 3.06
167 3.89
191 3.52
192 6.61
193 4.82
194 10.75
210 3.41
211 4.38
212 3.54
222 16.25
223 3.77
224 3.61
226 29.18
227 16.93
228 3.2
238 5.98
240 3.74
250 48.66
251 15.76
252 99.99
253 22.55
254 4.02
266 5.34
268 15.94
269 6.92
270 3.38
310 6.59
311 27.55
312 12.45
370 3.56
371 20.25
372 9.59

$$$$

     RDKit          2D

 21 25  0  0  1  0  0  0  0  0999 V2000
    4.5100   -0.1600    0.0000 C   0  0  0  0  0  0  0  0  0  0  0  0
    3.8000   -1.6500    0.0000 C   0  0  0  0  0  0  0  0  0  0  0  0
    3.4500    2.4000    0.0000 C   0  0  0  0  0  0  0  0  0  0  0  0
   -1.7100   -2.0300    0.0000 C   0  0  0  0  0  0  0  0  0  0  0  0
   -1.7100    0.9700    0.0000 C   0  0  0  0  0  0  0  0  0  0  0  0
    0.8400   -2.0700    0.0000 C   0  0  0  0  0  0  0  0  0  0  0  0
   -5.3000   -0.4800    0.0000 C   0  0  0  0  0  0  0  0  0  0  0  0
    3.4500    0.9100    0.0000 C   0  0  0  0  0  0  0  0  0  0  0  0
   -0.4200   -1.2700    0.0000 C   0  0  0  0  0  0  0  0  0  0  0  0
   -0.4200    0.1300    0.0000 C   0  0  0  0  0  0  0  0  0  0  0  0
    2.1900    3.1100    0.0000 C   0  0  0  0  0  0  0  0  0  0  0  0
   -2.9800   -1.2200    0.0000 C   0  0  0  0  0  0  0  0  0  0  0  0
   -2.9700    0.1700    0.0000 C   0  0  0  0  0  0  0  0  0  0  0  0
    0.8900    0.9500    0.0000 C   0  0  0  0  0  0  0  0  0  0  0  0
    2.1400    0.0900    0.0000 C   0  0  0  0  0  0  0  0  0  0  0  0
    0.8900    2.4500    0.0000 C   0  0  0  0  0  0  0  0  0  0  0  0
    2.1100   -1.2700    0.0000 N   0  0  0  0  0  0  0  0  0  0  0  0
    2.2225    4.6096    0.0000 O   0  0  0  0  0  0  0  0  0  0  0  0
   -0.3884    3.2347    0.0000 O   0  0  0  0  0  0  0  0  0  0  0  0
   -4.3800   -1.6800    0.0000 O   0  0  0  0  0  0  0  0  0  0  0  0
   -4.3700    0.6500    0.0000 O   0  0  0  0  0  0  0  0  0  0  0  0
  2  1  1  0
  8  1  1  0
  8  3  2  0
  9  4  2  0
  9  6  1  0
 10  5  2  0
 10  9  1  0
 11  3  1  0
 12  4  1  0
 13  5  1  0
 13 12  2  0
 14 10  1  6
 15  8  1  1
 15 14  1  0
 16 11  1  0
 16 14  1  0
 17  2  1  0
 17  6  1  0
 15 17  1  0
 11 18  1  1
 16 19  1  6
 20  7  1  0
 20 12  1  0
 21  7  1  0
 21 13  1  0
M  END
>  <NAME>  (1214) 
LYCORINE

>  <SYNONYMS>  (1214) 
3,12-DIDEHYDRO-9,10-(METHYLENEBIS(OXY))GALANTHAN-1,2-DIOL

>  <SPECTRUM TYPE>  (1214) 
MS1

>  <INSTRUMENT TYPE>  (1214) 
EI-B

>  <INSTRUMENT>  (1214) 
JEOL JMS-DX-300

>  <ION MODE>  (1214) 
P

>  <INCHIKEY>  (1214) 
XGVJWXAYKUHDOO-DANNLKNASA-N

>  <FORMULA>  (1214) 
C16H17NO4

>  <EXACT MASS>  (1214) 
287.115758024

>  <MW>  (1214) 
287

>  <ID>  (1214) 
JP010368

>  <CONTRIBUTOR>  (1214) 
University of Tokyo Team, {Faculty of Engineering, University of Tokyo

>  <COMMENT>  (1214) 
SMILES=[H]C(C([H])(O)1)=C(C5)C([H])(N(C5)2)C([H])(c(c3)c(cc(O4)c(OC4)3)C2)C([H])(O)1
InChI=InChI=1S/C16H17NO4/c18-11-3-8-1-2-17-6-9-4-12-13(21-7-20-12)5-10(9)14(15(8)17)16(11)19/h3-5,11,14-16,18-19H,1-2,6-7H2/t11-,14-,15+,16+/m0/s1
computed SMILES=OC1C=C2CCN3CC4=CC=5OCOC5C=C4C(C1O)C23
accession=JP010368
date=2016.01.19 (Created 2008.10.21, modified 2011.05.06)
author=HISAHIRO HAGIWARA, CHEMICAL RESEARCH INSTITUTE OF NON-AQUEOUSSOLUTIONS TOHOKU UNIV.
license=CC BY-NC-SA
exact mass=287.11576
ionization energy=70 eV
ion type=[M]+*
computed spectral entropy=2.500909325561475
computed normalized entropy=0.8090828137427616
SPLASH=splash10-004i-0090000000-274d3c11040a07d7fbe3
submitter=submitter = University of Tokyo Team (Faculty of Engineering, University of Tokyo)
MoNA Rating=3.75

>  <NUM PEAKS>  (1214) 
22

>  <MASS SPECTRAL PEAKS>  (1214) 
65 5.58
82 5.81
89 5.2
91 0.63
96 6.84
111 13.18
119 8.25
135 5.14
147 13.09
226 99.99
227 92.11
228 16.05
240 5.65
250 14.73
252 6.74
256 7.05
268 28.23
269 8.58
270 9.28
286 29.07
287 46.51
288 8.58

$$$$

     RDKit          2D

 17 17  0  0  0  0  0  0  0  0999 V2000
   -0.7363    0.6443    0.0000 C   0  0  0  0  0  0  0  0  0  0  0  0
   -3.3344    0.6443    0.0000 C   0  0  0  0  0  0  0  0  0  0  0  0
   -5.3834    4.1934    0.0000 C   0  0  0  0  0  0  0  0  0  0  0  0
   -5.9324    2.1443    0.0000 C   0  0  0  0  0  0  0  0  0  0  0  0
   -3.8834    1.5953    0.0000 C   0  0  0  0  0  0  0  0  0  0  0  0
    3.1608    1.3943    0.0000 C   0  0  0  0  0  0  0  0  0  0  0  0
    3.1613    2.8952    0.0000 C   0  0  0  0  0  0  0  0  0  0  0  0
    1.8613    0.6435    0.0000 C   0  0  0  0  0  0  0  0  0  0  0  0
    1.8623    3.6452    0.0000 C   0  0  0  0  0  0  0  0  0  0  0  0
    0.5623    1.3935    0.0000 C   0  0  0  0  0  0  0  0  0  0  0  0
   -3.3344    3.6443    0.0000 C   0  0  0  0  0  0  0  0  0  0  0  0
   -2.0353    1.3943    0.0000 C   0  0  0  0  0  0  0  0  0  0  0  0
    0.5627    2.8943    0.0000 C   0  0  0  0  0  0  0  0  0  0  0  0
   -2.0353    2.8943    0.0000 C   0  0  0  0  0  0  0  0  0  0  0  0
   -0.7363    3.6443    0.0000 C   0  0  0  0  0  0  0  0  0  0  0  0
   -0.7363    5.1443    0.0000 O   0  0  0  0  0  0  0  0  0  0  0  0
   -4.6334    2.8943    0.0000 Si  0  0  0  0  0  4  0  0  0  0  0  0
  7  6  2  0
  8  6  1  0
  9  7  1  0
 10  8  2  0
 12  1  2  0
 12  2  1  0
 13  9  2  0
 13 10  1  0
 14 11  1  0
 14 12  1  0
 15 13  1  0
 15 14  1  0
 16 15  1  0
 17  3  1  0
 17  4  1  0
 17  5  1  0
 17 11  1  0
M  END
>  <NAME>  (1215) 
3-HYDROXY-2-ISOPROPENYL-3-PHENYLPROPYLTRIMETHYLSILANE

>  <SYNONYMS>  (1215) 


>  <SPECTRUM TYPE>  (1215) 
MS1

>  <INSTRUMENT TYPE>  (1215) 
EI-B

>  <INSTRUMENT>  (1215) 
JEOL JMS-DX-300

>  <ION MODE>  (1215) 
P

>  <INCHIKEY>  (1215) 
BHBGGKYGAFELRK-UHFFFAOYSA-N

>  <FORMULA>  (1215) 
C15H24OSi

>  <EXACT MASS>  (1215) 
248.15964191799998

>  <MW>  (1215) 
248

>  <ID>  (1215) 
JP010367

>  <CONTRIBUTOR>  (1215) 
University of Tokyo Team, {Faculty of Engineering, University of Tokyo

>  <COMMENT>  (1215) 
SMILES=CC(=C)C(C[Si](C)(C)C)C(O)c(c1)cccc1
InChI=InChI=1S/C15H24OSi/c1-12(2)14(11-17(3,4)5)15(16)13-9-7-6-8-10-13/h6-10,14-16H,1,11H2,2-5H3
computed SMILES=OC(C=1C=CC=CC1)C(C(=C)C)C[Si](C)(C)C
accession=JP010367
date=2016.01.19 (Created 2008.10.21, modified 2011.05.06)
author=HISAHIRO HAGIWARA, CHEMICAL RESEARCH INSTITUTE OF NON-AQUEOUSSOLUTIONS TOHOKU UNIV.
license=CC BY-NC-SA
exact mass=248.15964
ionization energy=70 eV
ion type=[M]+*
computed spectral entropy=2.135233064745726
computed normalized entropy=0.6341091405545746
SPLASH=splash10-00di-9300000000-66d23b27defa94334934
submitter=submitter = University of Tokyo Team (Faculty of Engineering, University of Tokyo)
MoNA Rating=3.75

>  <NUM PEAKS>  (1215) 
29

>  <MASS SPECTRAL PEAKS>  (1215) 
39 1.09
43 2.75
44 1.5
45 8.37
47 1.27
51 1.19
58 1.02
59 0.38
72 1.31
73 99.99
74 11.24
75 1.76
76 1.3
77 4.93
79 6.3
85 1.11
91 1.17
99 1.14
105 1.44
107 15.32
108 1.29
111 1.81
127 2.01
129 1.24
141 6.72
142 16.39
143 3.19
179 5.13
180 1.06

$$$$

     RDKit          2D

 15 14  0  0  0  0  0  0  0  0999 V2000
   -5.6890    6.5136    0.0000 C   0  0  0  0  0  0  0  0  0  0  0  0
    3.2476    4.8750    0.0000 C   0  0  0  0  0  0  0  0  0  0  0  0
   -8.4437    5.6250    0.0000 C   0  0  0  0  0  0  0  0  0  0  0  0
   -0.6495    7.1250    0.0000 C   0  0  0  0  0  0  0  0  0  0  0  0
   -4.5466    3.3750    0.0000 C   0  0  0  0  0  0  0  0  0  0  0  0
   -2.2834    6.7741    0.0000 C   0  0  0  0  0  0  0  0  0  0  0  0
   -4.2118    6.7741    0.0000 C   0  0  0  0  0  0  0  0  0  0  0  0
    1.9486    5.6250    0.0000 C   0  0  0  0  0  0  0  0  0  0  0  0
   -7.1447    4.8750    0.0000 C   0  0  0  0  0  0  0  0  0  0  0  0
   -1.9486    4.8750    0.0000 C   0  0  0  0  0  0  0  0  0  0  0  0
   -0.6495    5.6250    0.0000 C   0  0  0  0  0  0  0  0  0  0  0  0
   -4.5466    4.8750    0.0000 C   0  0  0  0  0  0  0  0  0  0  0  0
   -3.2476    5.6250    0.0000 C   0  0  0  0  0  0  0  0  0  0  0  0
    0.6495    4.8750    0.0000 O   0  0  0  0  0  0  0  0  0  0  0  0
   -5.8457    5.6250    0.0000 O   0  0  0  0  0  0  0  0  0  0  0  0
  7  1  2  0
  8  2  1  0
  9  3  1  0
 11  4  1  0
 11 10  1  0
 12  5  1  0
 13  6  1  0
 13  7  1  0
 13 10  1  0
 13 12  1  0
 14  8  1  0
 14 11  1  0
 15  9  1  0
 15 12  1  0
M  END
>  <NAME>  (1216) 
2,5-DIETHOXY-3-METHYL-3-VINYLHEXANE

>  <SYNONYMS>  (1216) 


>  <SPECTRUM TYPE>  (1216) 
MS1

>  <INSTRUMENT TYPE>  (1216) 
EI-B

>  <INSTRUMENT>  (1216) 
JEOL JMS-DX-300

>  <ION MODE>  (1216) 
P

>  <INCHIKEY>  (1216) 
HSXIKBZFYMJFEI-UHFFFAOYSA-N

>  <FORMULA>  (1216) 
C13H26O2

>  <EXACT MASS>  (1216) 
214.193280072

>  <MW>  (1216) 
214

>  <ID>  (1216) 
JP010366

>  <CONTRIBUTOR>  (1216) 
University of Tokyo Team, {Faculty of Engineering, University of Tokyo

>  <COMMENT>  (1216) 
SMILES=CCOC(C)CC(C)(C=C)C(C)OCC
InChI=InChI=1S/C13H26O2/c1-7-13(6,12(5)15-9-3)10-11(4)14-8-2/h7,11-12H,1,8-10H2,2-6H3
computed SMILES=O(CC)C(C)CC(C=C)(C)C(OCC)C
accession=JP010366
date=2016.01.19 (Created 2008.10.21, modified 2011.05.06)
author=HISAHIRO HAGIWARA, CHEMICAL RESEARCH INSTITUTE OF NON-AQUEOUSSOLUTIONS TOHOKU UNIV.
license=CC BY-NC-SA
exact mass=214.19328
ionization energy=70 eV
ion type=[M]+*
computed spectral entropy=1.642981449861597
computed normalized entropy=0.5396516148161994
SPLASH=splash10-00dj-9000000000-46179292909c0769dd4e
submitter=submitter = University of Tokyo Team (Faculty of Engineering, University of Tokyo)
MoNA Rating=3.75

>  <NUM PEAKS>  (1216) 
21

>  <MASS SPECTRAL PEAKS>  (1216) 
41 2.32
43 5.55
45 54.51
46 1.56
55 1.94
58 1.1
59 2.28
67 1.65
69 1.31
70 1.21
73 99.99
74 6.32
75 4.08
81 5.08
82 1.33
86 1.03
95 1.04
96 2.56
103 3.56
139 0.17
214 0.69

$$$$

     RDKit          2D

 15 15  0  0  0  0  0  0  0  0999 V2000
    0.9240    4.7195    0.0000 C   0  0  0  0  0  0  0  0  0  0  0  0
   -1.6740    4.7195    0.0000 C   0  0  0  0  0  0  0  0  0  0  0  0
   -2.2231    3.7686    0.0000 C   0  0  0  0  0  0  0  0  0  0  0  0
   -4.2721    3.2195    0.0000 C   0  0  0  0  0  0  0  0  0  0  0  0
   -3.7231    1.1705    0.0000 C   0  0  0  0  0  0  0  0  0  0  0  0
    3.5221    0.2195    0.0000 C   0  0  0  0  0  0  0  0  0  0  0  0
    3.5226    1.7204    0.0000 C   0  0  0  0  0  0  0  0  0  0  0  0
    2.2226   -0.5313    0.0000 C   0  0  0  0  0  0  0  0  0  0  0  0
    2.2236    2.4704    0.0000 C   0  0  0  0  0  0  0  0  0  0  0  0
    0.9236    0.2187    0.0000 C   0  0  0  0  0  0  0  0  0  0  0  0
   -1.6740    1.7195    0.0000 C   0  0  0  0  0  0  0  0  0  0  0  0
   -0.3750    3.9695    0.0000 C   0  0  0  0  0  0  0  0  0  0  0  0
    0.9240    1.7195    0.0000 C   0  0  0  0  0  0  0  0  0  0  0  0
   -0.3750    2.4695    0.0000 C   0  0  0  0  0  0  0  0  0  0  0  0
   -2.9731    2.4695    0.0000 Si  0  0  0  0  0  4  0  0  0  0  0  0
  7  6  1  0
  8  6  1  0
  9  7  1  0
 10  8  1  0
 12  1  2  0
 12  2  1  0
 13  9  2  0
 13 10  1  0
 14 11  1  0
 14 12  1  0
 14 13  1  0
 15  3  1  0
 15  4  1  0
 15  5  1  0
 15 11  1  0
M  END
>  <NAME>  (1217) 
2-(1-CYCLOHEXENYL)-3-METHYL-3-BUTENYLTRIMETHYLSILANE

>  <SYNONYMS>  (1217) 


>  <SPECTRUM TYPE>  (1217) 
MS1

>  <INSTRUMENT TYPE>  (1217) 
EI-B

>  <INSTRUMENT>  (1217) 
JEOL JMS-DX-300

>  <ION MODE>  (1217) 
P

>  <INCHIKEY>  (1217) 
CNSGVONQPNRERJ-UHFFFAOYSA-N

>  <FORMULA>  (1217) 
C14H26Si

>  <EXACT MASS>  (1217) 
222.180377362

>  <MW>  (1217) 
222

>  <ID>  (1217) 
JP010365

>  <CONTRIBUTOR>  (1217) 
University of Tokyo Team, {Faculty of Engineering, University of Tokyo

>  <COMMENT>  (1217) 
SMILES=CC(=C)C(C[Si](C)(C)C)C(C1)=CCCC1
InChI=InChI=1S/C14H26Si/c1-12(2)14(11-15(3,4)5)13-9-7-6-8-10-13/h9,14H,1,6-8,10-11H2,2-5H3
computed SMILES=C=C(C)C(C1=CCCCC1)C[Si](C)(C)C
accession=JP010365
date=2016.01.19 (Created 2008.10.21, modified 2011.05.06)
author=HISAHIRO HAGIWARA, CHEMICAL RESEARCH INSTITUTE OF NON-AQUEOUSSOLUTIONS TOHOKU UNIV.
license=CC BY-NC-SA
exact mass=222.18038
ionization energy=70 eV
ion type=[M]+*
computed spectral entropy=3.164190849751055
computed normalized entropy=0.7792723211562192
SPLASH=splash10-00di-9620000000-3d7e6a5e5c6b564095c4
submitter=submitter = University of Tokyo Team (Faculty of Engineering, University of Tokyo)
MoNA Rating=3.75

>  <NUM PEAKS>  (1217) 
58

>  <MASS SPECTRAL PEAKS>  (1217) 
31 1.1
41 3.05
43 1.46
45 6.38
53 1.38
55 1.95
59 11.5
60 0.18
67 2.73
69 1.7
72 1.14
73 99.99
74 9.36
75 4.53
77 2.18
79 4.62
80 1.1
81 3.56
82 1.82
83 1.42
85 2.48
91 4
92 1.38
93 4.75
94 1.63
99 3.28
105 6.46
106 7.78
107 5.72
108 1.57
109 2.1
111 0.11
113 1.04
119 4.28
120 1.76
122 1.46
123 1.89
125 2.12
131 1.93
133 13.48
134 2.29
135 16.06
136 2.56
137 1.72
139 7.27
140 1.55
147 2.97
148 27.39
149 6.29
151 1.59
165 2.67
179 2.42
181 2.82
207 11.97
208 2.84
222 23.01
223 5.38
224 1.65

$$$$

     RDKit          2D

 11 11  0  0  0  0  0  0  0  0999 V2000
   -4.8712    2.0071    0.0000 C   0  0  0  0  0  0  0  0  0  0  0  0
   -2.2731    0.5071    0.0000 C   0  0  0  0  0  0  0  0  0  0  0  0
   -3.5721    2.7571    0.0000 C   0  0  0  0  0  0  0  0  0  0  0  0
    2.9231    0.5071    0.0000 C   0  0  0  0  0  0  0  0  0  0  0  0
    2.9236    2.0079    0.0000 C   0  0  0  0  0  0  0  0  0  0  0  0
    1.6236   -0.2437    0.0000 C   0  0  0  0  0  0  0  0  0  0  0  0
    1.6245    2.7579    0.0000 C   0  0  0  0  0  0  0  0  0  0  0  0
    0.3245    0.5063    0.0000 C   0  0  0  0  0  0  0  0  0  0  0  0
   -0.9740    2.7571    0.0000 C   0  0  0  0  0  0  0  0  0  0  0  0
   -2.2731    2.0071    0.0000 C   0  0  0  0  0  0  0  0  0  0  0  0
    0.3250    2.0071    0.0000 C   0  0  0  0  0  0  0  0  0  0  0  0
  3  1  2  0
  5  4  1  0
  6  4  1  0
  7  5  1  0
  8  6  1  0
 10  2  1  0
 10  3  1  0
 10  9  1  0
 11  7  2  0
 11  8  1  0
 11  9  1  0
M  END
>  <NAME>  (1218) 
4-CYCLOHEXENYL-3-METHYLBUTENE

>  <SYNONYMS>  (1218) 


>  <SPECTRUM TYPE>  (1218) 
MS1

>  <INSTRUMENT TYPE>  (1218) 
EI-B

>  <INSTRUMENT>  (1218) 
JEOL JMS-DX-300

>  <ION MODE>  (1218) 
P

>  <INCHIKEY>  (1218) 
QCKZPSCCDVQVIX-UHFFFAOYSA-N

>  <FORMULA>  (1218) 
C11H18

>  <EXACT MASS>  (1218) 
150.140850576

>  <MW>  (1218) 
150

>  <ID>  (1218) 
JP010364

>  <CONTRIBUTOR>  (1218) 
University of Tokyo Team, {Faculty of Engineering, University of Tokyo

>  <COMMENT>  (1218) 
SMILES=C=CC(C)CC(C1)=CCCC1
InChI=InChI=1S/C11H18/c1-3-10(2)9-11-7-5-4-6-8-11/h3,7,10H,1,4-6,8-9H2,2H3
computed SMILES=C=CC(C)CC1=CCCCC1
accession=JP010364
date=2016.01.19 (Created 2008.10.21, modified 2011.05.06)
author=HISAHIRO HAGIWARA, CHEMICAL RESEARCH INSTITUTE OF NON-AQUEOUSSOLUTIONS TOHOKU UNIV.
license=CC BY-NC-SA
exact mass=150.14085
ionization energy=70 eV
ion type=[M]+*
computed spectral entropy=2.9944677966004263
computed normalized entropy=0.8356221490740984
SPLASH=splash10-0005-9200000000-828cc3341ece47c37618
submitter=submitter = University of Tokyo Team (Faculty of Engineering, University of Tokyo)
MoNA Rating=3.75

>  <NUM PEAKS>  (1218) 
36

>  <MASS SPECTRAL PEAKS>  (1218) 
39 10.74
40 1.58
41 19.27
51 2.92
52 1.77
53 11.73
54 3.17
55 27.81
56 1.39
65 4.48
66 2.43
67 39.23
68 8.8
69 1.9
77 8.76
78 0.25
79 23.43
80 7.34
81 13.66
82 3.09
91 7.12
92 1.55
93 19.18
94 22.39
95 99.99
96 11.32
105 1.14
107 8.79
108 13.53
109 3.92
121 17.67
122 3.92
135 28.28
136 3.48
150 22.74
151 3.09

$$$$

     RDKit          2D

 15 15  0  0  0  0  0  0  0  0999 V2000
   -1.6740    1.1705    0.0000 C   0  0  0  0  0  0  0  0  0  0  0  0
    1.6740    4.3714    0.0000 C   0  0  0  0  0  0  0  0  0  0  0  0
    2.2231    6.4205    0.0000 C   0  0  0  0  0  0  0  0  0  0  0  0
    0.1740    6.9695    0.0000 C   0  0  0  0  0  0  0  0  0  0  0  0
   -6.8702    1.1705    0.0000 C   0  0  0  0  0  0  0  0  0  0  0  0
   -6.8707    2.6713    0.0000 C   0  0  0  0  0  0  0  0  0  0  0  0
   -5.5707    0.4196    0.0000 C   0  0  0  0  0  0  0  0  0  0  0  0
   -5.5716    3.4213    0.0000 C   0  0  0  0  0  0  0  0  0  0  0  0
   -4.2716    1.1696    0.0000 C   0  0  0  0  0  0  0  0  0  0  0  0
   -0.3750    3.4205    0.0000 C   0  0  0  0  0  0  0  0  0  0  0  0
   -0.3750    4.9205    0.0000 C   0  0  0  0  0  0  0  0  0  0  0  0
   -2.9731    3.4205    0.0000 C   0  0  0  0  0  0  0  0  0  0  0  0
   -1.6740    2.6705    0.0000 C   0  0  0  0  0  0  0  0  0  0  0  0
   -4.2721    2.6705    0.0000 C   0  0  0  0  0  0  0  0  0  0  0  0
    0.9240    5.6705    0.0000 Si  0  0  0  0  0  4  0  0  0  0  0  0
  6  5  1  0
  7  5  1  0
  8  6  1  0
  9  7  1  0
 11 10  1  0
 13  1  1  0
 10 13  2  0
 13 12  1  0
 14  8  2  0
 14  9  1  0
 14 12  1  0
 15  2  1  0
 15  3  1  0
 15  4  1  0
 15 11  1  0
M  END
>  <NAME>  (1219) 
(Z)-4-(1-CYCLOHEXENYL)-3-METHYL-2-BUTENYLTRIMETHYLSILANE

>  <SYNONYMS>  (1219) 


>  <SPECTRUM TYPE>  (1219) 
MS1

>  <INSTRUMENT TYPE>  (1219) 
EI-B

>  <INSTRUMENT>  (1219) 
JEOL JMS-DX-300

>  <ION MODE>  (1219) 
P

>  <INCHIKEY>  (1219) 
HJNBOBDRSLDSEF-RAXLEYEMSA-N

>  <FORMULA>  (1219) 
C14H26Si

>  <EXACT MASS>  (1219) 
222.180377362

>  <MW>  (1219) 
222

>  <ID>  (1219) 
JP010363

>  <CONTRIBUTOR>  (1219) 
University of Tokyo Team, {Faculty of Engineering, University of Tokyo

>  <COMMENT>  (1219) 
SMILES=[H]C(C1)=C(CCC1)CC(C)=C([H])C[Si](C)(C)C
InChI=InChI=1S/C14H26Si/c1-13(10-11-15(2,3)4)12-14-8-6-5-7-9-14/h8,10H,5-7,9,11-12H2,1-4H3/b13-10-
computed SMILES=C(=C(C)CC1=CCCCC1)C[Si](C)(C)C
accession=JP010363
date=2016.01.19 (Created 2008.10.21, modified 2011.05.06)
author=HISAHIRO HAGIWARA, CHEMICAL RESEARCH INSTITUTE OF NON-AQUEOUSSOLUTIONS TOHOKU UNIV.
license=CC BY-NC-SA
exact mass=222.18038
ionization energy=70 eV
ion type=[M]+*
computed spectral entropy=2.3786153851403427
computed normalized entropy=0.6745241640881999
SPLASH=splash10-00di-9100000000-4988ea11c8311ad58c3f
submitter=submitter = University of Tokyo Team (Faculty of Engineering, University of Tokyo)
MoNA Rating=3.75

>  <NUM PEAKS>  (1219) 
34

>  <MASS SPECTRAL PEAKS>  (1219) 
39 1.52
41 4.09
43 1.69
44 1.14
45 9.59
53 2.2
55 2.05
59 7.11
67 1.92
72 1.54
73 99.99
74 11.24
75 4.86
77 1.74
79 2.72
80 1.59
81 1.64
85 1.15
91 3.34
92 1.17
93 1.26
105 5.11
106 6.15
107 1.43
119 2.09
120 1.05
133 4.04
135 1.02
139 3.23
148 9.72
149 1.6
207 1.49
222 8.9
223 1.96

$$$$

     RDKit          2D

  9  8  0  0  0  0  0  0  0  0999 V2000
    0.0000    0.0000    0.0000 C   0  0  0  0  0  0  0  0  0  0  0  0
    1.2990    2.2500    0.0000 C   0  0  0  0  0  0  0  0  0  0  0  0
   -1.8481    5.7990    0.0000 C   0  0  0  0  0  0  0  0  0  0  0  0
   -3.8971    5.2500    0.0000 C   0  0  0  0  0  0  0  0  0  0  0  0
   -3.3481    3.2010    0.0000 C   0  0  0  0  0  0  0  0  0  0  0  0
   -1.2990    2.2500    0.0000 C   0  0  0  0  0  0  0  0  0  0  0  0
   -1.2990    3.7500    0.0000 C   0  0  0  0  0  0  0  0  0  0  0  0
    0.0000    1.5000    0.0000 C   0  0  0  0  0  0  0  0  0  0  0  0
   -2.5981    4.5000    0.0000 Si  0  0  0  0  0  4  0  0  0  0  0  0
  7  6  1  0
  8  1  2  0
  8  2  1  0
  8  6  1  0
  9  3  1  0
  9  4  1  0
  9  5  1  0
  9  7  1  0
M  END
>  <NAME>  (1220) 
3-METHYL-3-BUTENYLTRIMETHYLSILANE

>  <SYNONYMS>  (1220) 


>  <SPECTRUM TYPE>  (1220) 
MS1

>  <INSTRUMENT TYPE>  (1220) 
EI-B

>  <INSTRUMENT>  (1220) 
JEOL JMS-DX-300

>  <ION MODE>  (1220) 
P

>  <INCHIKEY>  (1220) 
IBBBOJLWSCGXAH-UHFFFAOYSA-N

>  <FORMULA>  (1220) 
C8H18Si

>  <EXACT MASS>  (1220) 
142.117777106

>  <MW>  (1220) 
142

>  <ID>  (1220) 
JP010362

>  <CONTRIBUTOR>  (1220) 
University of Tokyo Team, {Faculty of Engineering, University of Tokyo

>  <COMMENT>  (1220) 
SMILES=CC(=C)CC[Si](C)(C)C
InChI=InChI=1S/C8H18Si/c1-8(2)6-7-9(3,4)5/h1,6-7H2,2-5H3
computed SMILES=C=C(C)CC[Si](C)(C)C
accession=JP010362
date=2016.01.19 (Created 2008.10.21, modified 2011.05.06)
author=HISAHIRO HAGIWARA, CHEMICAL RESEARCH INSTITUTE OF NON-AQUEOUSSOLUTIONS TOHOKU UNIV.
license=CC BY-NC-SA
exact mass=142.11778
ionization energy=70 eV
ion type=[M]+*
computed spectral entropy=2.3579848389957174
computed normalized entropy=0.6932807992000091
SPLASH=splash10-00di-9100000000-0ecb3cf7699341e44970
submitter=submitter = University of Tokyo Team (Faculty of Engineering, University of Tokyo)
MoNA Rating=3.75

>  <NUM PEAKS>  (1220) 
30

>  <MASS SPECTRAL PEAKS>  (1220) 
31 2.26
39 1.71
41 1.69
43 6.83
44 1.83
45 9.72
55 1.56
57 1.49
58 1.99
59 27.14
60 2.38
61 0.11
68 1.83
71 1.43
72 2.51
73 99.99
74 11.4
75 4.99
83 1.18
85 15.09
86 1.73
99 22.92
100 2.87
101 1.04
111 1.74
127 21.12
128 3.1
129 0.01
142 8.32
143 1.26

$$$$

     RDKit          2D

 17 16  0  0  0  0  0  0  0  0999 V2000
   -8.2697    4.9755    0.0000 C   0  0  0  0  0  0  0  0  0  0  0  0
   -0.4755    0.4755    0.0000 C   0  0  0  0  0  0  0  0  0  0  0  0
   -3.0736    6.4755    0.0000 C   0  0  0  0  0  0  0  0  0  0  0  0
    0.0736    2.9264    0.0000 C   0  0  0  0  0  0  0  0  0  0  0  0
    2.1226    3.4755    0.0000 C   0  0  0  0  0  0  0  0  0  0  0  0
    1.5736    5.5245    0.0000 C   0  0  0  0  0  0  0  0  0  0  0  0
   -6.9707    4.2255    0.0000 C   0  0  0  0  0  0  0  0  0  0  0  0
   -0.4755    1.9755    0.0000 C   0  0  0  0  0  0  0  0  0  0  0  0
   -4.3726    4.2255    0.0000 C   0  0  0  0  0  0  0  0  0  0  0  0
   -0.4755    4.9755    0.0000 C   0  0  0  0  0  0  0  0  0  0  0  0
   -3.0736    4.9755    0.0000 C   0  0  0  0  0  0  0  0  0  0  0  0
   -5.6716    4.9755    0.0000 C   0  0  0  0  0  0  0  0  0  0  0  0
   -1.7745    4.2255    0.0000 C   0  0  0  0  0  0  0  0  0  0  0  0
   -1.7745    2.7255    0.0000 C   0  0  0  0  0  0  0  0  0  0  0  0
   -5.6716    6.4755    0.0000 O   0  0  0  0  0  0  0  0  0  0  0  0
   -3.0736    1.9755    0.0000 O   0  0  0  0  0  0  0  0  0  0  0  0
    0.8236    4.2255    0.0000 Si  0  0  0  0  0  4  0  0  0  0  0  0
  7  1  1  0
  8  2  1  0
 11  3  2  0
 11  9  1  0
 12  7  1  0
 12  9  1  0
 13 10  1  0
 13 11  1  0
 14  8  1  0
 14 13  1  0
 15 12  2  0
 16 14  2  0
 17  4  1  0
 17  5  1  0
 17  6  1  0
 17 10  1  0
M  END
>  <NAME>  (1221) 
3-METHYLENE-5-OXO-2-PROPIONYLHEPTYLTRIMEHYLSILANE

>  <SYNONYMS>  (1221) 


>  <SPECTRUM TYPE>  (1221) 
MS1

>  <INSTRUMENT TYPE>  (1221) 
EI-B

>  <INSTRUMENT>  (1221) 
JEOL JMS-DX-300

>  <ION MODE>  (1221) 
P

>  <INCHIKEY>  (1221) 
USAZPJUUKKCIBZ-UHFFFAOYSA-N

>  <FORMULA>  (1221) 
C14H26O2Si

>  <EXACT MASS>  (1221) 
254.170206602

>  <MW>  (1221) 
254

>  <ID>  (1221) 
JP010361

>  <CONTRIBUTOR>  (1221) 
University of Tokyo Team, {Faculty of Engineering, University of Tokyo

>  <COMMENT>  (1221) 
SMILES=CCC(=O)CC(=C)C(C(=O)CC)C[Si](C)(C)C
InChI=InChI=1S/C14H26O2Si/c1-7-12(15)9-11(3)13(14(16)8-2)10-17(4,5)6/h13H,3,7-10H2,1-2,4-6H3
computed SMILES=O=C(CC(=C)C(C(=O)CC)C[Si](C)(C)C)CC
accession=JP010361
date=2016.01.19 (Created 2008.10.21, modified 2011.05.06)
author=HISAHIRO HAGIWARA, CHEMICAL RESEARCH INSTITUTE OF NON-AQUEOUSSOLUTIONS TOHOKU UNIV.
license=CC BY-NC-SA
exact mass=254.17021
ionization energy=70 eV
ion type=[M]+*
computed spectral entropy=2.587291251349852
computed normalized entropy=0.6878898148903086
SPLASH=splash10-05fr-9200000000-01b19d2a4f9f86771f29
submitter=submitter = University of Tokyo Team (Faculty of Engineering, University of Tokyo)
MoNA Rating=3.75

>  <NUM PEAKS>  (1221) 
43

>  <MASS SPECTRAL PEAKS>  (1221) 
31 1.06
39 1.22
41 1.56
43 3.51
44 1.74
45 12.51
47 1.6
55 0.14
57 50.96
58 2.87
59 4.96
61 2.15
72 1.09
73 99.99
74 10.93
75 22.12
76 1.65
77 1.8
79 3.6
85 1.16
91 2.27
93 2.12
103 1.27
105 1.28
107 14.01
108 1.8
129 1.17
131 1.65
135 5
147 1.02
164 2.49
167 1.28
169 2.46
181 2.04
182 1.17
183 6.08
184 1.17
197 13.53
198 2.51
225 0.83
226 1.58
239 3.44
254 0.57

$$$$

     RDKit          2D

 17 17  0  0  0  0  0  0  0  0999 V2000
   -1.2990    3.3200    0.0000 C   0  0  0  0  0  0  0  0  0  0  0  0
   -3.1471    9.1190    0.0000 C   0  0  0  0  0  0  0  0  0  0  0  0
   -5.1962    8.5700    0.0000 C   0  0  0  0  0  0  0  0  0  0  0  0
   -4.6471    6.5210    0.0000 C   0  0  0  0  0  0  0  0  0  0  0  0
    5.1962    7.0700    0.0000 C   0  0  0  0  0  0  0  0  0  0  0  0
    5.1966    5.5692    0.0000 C   0  0  0  0  0  0  0  0  0  0  0  0
    3.8966    7.8208    0.0000 C   0  0  0  0  0  0  0  0  0  0  0  0
    3.8976    4.8192    0.0000 C   0  0  0  0  0  0  0  0  0  0  0  0
    2.5976    7.0708    0.0000 C   0  0  0  0  0  0  0  0  0  0  0  0
   -2.5981    5.5700    0.0000 C   0  0  0  0  0  0  0  0  0  0  0  0
   -2.5981    7.0700    0.0000 C   0  0  0  0  0  0  0  0  0  0  0  0
    0.0000    5.5700    0.0000 C   0  0  0  0  0  0  0  0  0  0  0  0
   -1.2990    4.8200    0.0000 C   0  0  0  0  0  0  0  0  0  0  0  0
    2.5981    5.5700    0.0000 C   0  0  0  0  0  0  0  0  0  0  0  0
    1.2990    4.8200    0.0000 C   0  0  0  0  0  0  0  0  0  0  0  0
    1.2990    3.3200    0.0000 O   0  0  0  0  0  0  0  0  0  0  0  0
   -3.8971    7.8200    0.0000 Si  0  0  0  0  0  4  0  0  0  0  0  0
  6  5  2  0
  7  5  1  0
  8  6  1  0
  9  7  2  0
 11 10  1  0
 13  1  1  0
 10 13  2  0
 13 12  1  0
 14  8  2  0
 14  9  1  0
 15 12  1  0
 15 14  1  0
 16 15  2  0
 17  2  1  0
 17  3  1  0
 17  4  1  0
 17 11  1  0
M  END
>  <NAME>  (1222) 
(Z)-3-METHYL-5-OXO-5-PHENYL-2-PENTENYLTRIMETHYLSILANE

>  <SYNONYMS>  (1222) 


>  <SPECTRUM TYPE>  (1222) 
MS1

>  <INSTRUMENT TYPE>  (1222) 
EI-B

>  <INSTRUMENT>  (1222) 
JEOL JMS-DX-300

>  <ION MODE>  (1222) 
P

>  <INCHIKEY>  (1222) 
OISQXWPBMRUWCV-RAXLEYEMSA-N

>  <FORMULA>  (1222) 
C15H22OSi

>  <EXACT MASS>  (1222) 
246.14399185399998

>  <MW>  (1222) 
246

>  <ID>  (1222) 
JP010360

>  <CONTRIBUTOR>  (1222) 
University of Tokyo Team, {Faculty of Engineering, University of Tokyo

>  <COMMENT>  (1222) 
SMILES=CC(CC(=O)c(c1)cccc1)=C([H])C[Si](C)(C)C
InChI=InChI=1S/C15H22OSi/c1-13(10-11-17(2,3)4)12-15(16)14-8-6-5-7-9-14/h5-10H,11-12H2,1-4H3/b13-10-
computed SMILES=O=C(C=1C=CC=CC1)CC(=CC[Si](C)(C)C)C
accession=JP010360
date=2016.01.19 (Created 2008.10.21, modified 2011.05.06)
author=HISAHIRO HAGIWARA, CHEMICAL RESEARCH INSTITUTE OF NON-AQUEOUSSOLUTIONS TOHOKU UNIV.
license=CC BY-NC-SA
exact mass=246.14399
ionization energy=70 eV
ion type=[M]+*
computed spectral entropy=2.6153703098311696
computed normalized entropy=0.7416627686177517
SPLASH=splash10-00di-9410000000-ad8d7978c04b98009692
submitter=submitter = University of Tokyo Team (Faculty of Engineering, University of Tokyo)
MoNA Rating=3.75

>  <NUM PEAKS>  (1222) 
34

>  <MASS SPECTRAL PEAKS>  (1222) 
39 1.71
41 1.66
43 2.31
44 1.34
45 10.92
51 3.4
59 4.74
73 99.99
74 9.28
75 19.78
76 2.01
77 12.86
78 1.64
83 1.79
91 2.45
104 2.09
105 32.66
106 3.03
115 3.08
127 1.34
128 1.84
129 4.54
135 2.81
141 9.63
142 4.12
156 4.74
157 6.06
163 1.74
177 2.28
178 2.18
231 16.61
232 0.35
245 5.16
246 5.63

$$$$

     RDKit          2D

 18 17  0  0  0  0  0  0  0  0999 V2000
    3.4853    6.5123    0.0000 C   0  0  0  0  0  0  0  0  0  0  0  0
   -5.6079    4.2623    0.0000 C   0  0  0  0  0  0  0  0  0  0  0  0
   -8.2060    4.2623    0.0000 C   0  0  0  0  0  0  0  0  0  0  0  0
  -10.2550    7.8113    0.0000 C   0  0  0  0  0  0  0  0  0  0  0  0
  -10.8041    5.7623    0.0000 C   0  0  0  0  0  0  0  0  0  0  0  0
   -8.7550    5.2132    0.0000 C   0  0  0  0  0  0  0  0  0  0  0  0
    2.1863    7.2623    0.0000 C   0  0  0  0  0  0  0  0  0  0  0  0
    0.8873    6.5123    0.0000 C   0  0  0  0  0  0  0  0  0  0  0  0
   -0.4118    7.2623    0.0000 C   0  0  0  0  0  0  0  0  0  0  0  0
   -1.7108    6.5123    0.0000 C   0  0  0  0  0  0  0  0  0  0  0  0
   -3.0099    7.2623    0.0000 C   0  0  0  0  0  0  0  0  0  0  0  0
   -4.3089    6.5123    0.0000 C   0  0  0  0  0  0  0  0  0  0  0  0
   -8.2060    7.2623    0.0000 C   0  0  0  0  0  0  0  0  0  0  0  0
   -6.9070    5.0123    0.0000 C   0  0  0  0  0  0  0  0  0  0  0  0
   -6.9070    6.5123    0.0000 C   0  0  0  0  0  0  0  0  0  0  0  0
   -5.6079    7.2623    0.0000 C   0  0  0  0  0  0  0  0  0  0  0  0
   -5.6079    8.7623    0.0000 O   0  0  0  0  0  0  0  0  0  0  0  0
   -9.5050    6.5123    0.0000 Si  0  0  0  0  0  4  0  0  0  0  0  0
  7  1  1  0
  8  7  1  0
  9  8  1  0
 10  9  1  0
 11 10  1  0
 12 11  1  0
 14  2  2  0
 14  3  1  0
 15 13  1  0
 15 14  1  0
 16 12  1  0
 16 15  1  0
 17 16  1  0
 18  4  1  0
 18  5  1  0
 18  6  1  0
 18 13  1  0
M  END
>  <NAME>  (1223) 
3-HYDROXY-2-ISOPROPENYLDECYLTRIMETHYLSILANE

>  <SYNONYMS>  (1223) 


>  <SPECTRUM TYPE>  (1223) 
MS1

>  <INSTRUMENT TYPE>  (1223) 
EI-B

>  <INSTRUMENT>  (1223) 
JEOL JMS-DX-300

>  <ION MODE>  (1223) 
P

>  <INCHIKEY>  (1223) 
LHGICPWDLVAOSU-UHFFFAOYSA-N

>  <FORMULA>  (1223) 
C16H34OSi

>  <EXACT MASS>  (1223) 
270.237892238

>  <MW>  (1223) 
270

>  <ID>  (1223) 
JP010359

>  <CONTRIBUTOR>  (1223) 
University of Tokyo Team, {Faculty of Engineering, University of Tokyo

>  <COMMENT>  (1223) 
SMILES=CCCCCCCC(O)C(C(C)=C)C[Si](C)(C)C
InChI=InChI=1S/C16H34OSi/c1-7-8-9-10-11-12-16(17)15(14(2)3)13-18(4,5)6/h15-17H,2,7-13H2,1,3-6H3
computed SMILES=OC(CCCCCCC)C(C(=C)C)C[Si](C)(C)C
accession=JP010359
date=2016.01.19 (Created 2008.10.21, modified 2011.05.06)
author=HISAHIRO HAGIWARA, CHEMICAL RESEARCH INSTITUTE OF NON-AQUEOUSSOLUTIONS TOHOKU UNIV.
license=CC BY-NC-SA
exact mass=270.23789
ionization energy=70 eV
ion type=[M]+*
computed spectral entropy=2.2629777495991923
computed normalized entropy=0.6589942288205113
SPLASH=splash10-00di-9000000000-98888dd3de2e863450b1
submitter=submitter = University of Tokyo Team (Faculty of Engineering, University of Tokyo)
MoNA Rating=3.75

>  <NUM PEAKS>  (1223) 
31

>  <MASS SPECTRAL PEAKS>  (1223) 
41 4.43
43 3.26
44 1.38
45 4.32
55 4.69
57 2.41
59 3.22
67 1.67
68 5.7
69 7.77
72 1.29
73 99.99
74 10.76
75 17.42
76 1.24
81 3.74
82 1.53
83 1.24
85 1.34
95 1.87
99 1.87
103 1.27
109 1.14
110 1.15
111 2.49
127 3.07
141 3.75
142 2.27
143 3.59
144 1.05
201 3.1

$$$$

     RDKit          2D

 14 13  0  0  0  0  0  0  0  0999 V2000
   -3.3983    7.2120    0.0000 C   0  0  0  0  0  0  0  0  0  0  0  0
   -1.7644    6.8611    0.0000 C   0  0  0  0  0  0  0  0  0  0  0  0
    0.1639    6.8611    0.0000 C   0  0  0  0  0  0  0  0  0  0  0  0
    1.7978    5.7120    0.0000 C   0  0  0  0  0  0  0  0  0  0  0  0
   -6.7464    4.0111    0.0000 C   0  0  0  0  0  0  0  0  0  0  0  0
   -7.2954    1.9620    0.0000 C   0  0  0  0  0  0  0  0  0  0  0  0
   -5.2464    1.4130    0.0000 C   0  0  0  0  0  0  0  0  0  0  0  0
   -4.6974    4.9620    0.0000 C   0  0  0  0  0  0  0  0  0  0  0  0
   -4.6974    3.4620    0.0000 C   0  0  0  0  0  0  0  0  0  0  0  0
   -2.0993    4.9620    0.0000 C   0  0  0  0  0  0  0  0  0  0  0  0
   -3.3983    5.7120    0.0000 C   0  0  0  0  0  0  0  0  0  0  0  0
   -0.8002    5.7120    0.0000 C   0  0  0  0  0  0  0  0  0  0  0  0
    0.4988    4.9620    0.0000 O   0  0  0  0  0  0  0  0  0  0  0  0
   -5.9964    2.7120    0.0000 Si  0  0  0  0  0  4  0  0  0  0  0  0
  9  8  1  0
 11  1  1  0
  8 11  2  0
 11 10  1  0
 12  2  1  0
 12  3  1  0
 12 10  1  0
 13  4  1  0
 13 12  1  0
 14  5  1  0
 14  6  1  0
 14  7  1  0
 14  9  1  0
M  END
>  <NAME>  (1224) 
(Z)-5-METHOXY-3,5-DIMETHYL-2-HEXENYLTRIMETHYLSILANE

>  <SYNONYMS>  (1224) 


>  <SPECTRUM TYPE>  (1224) 
MS1

>  <INSTRUMENT TYPE>  (1224) 
EI-B

>  <INSTRUMENT>  (1224) 
JEOL JMS-DX-300

>  <ION MODE>  (1224) 
P

>  <INCHIKEY>  (1224) 
PQFNAFJLRXIJPE-FLIBITNWSA-N

>  <FORMULA>  (1224) 
C12H26OSi

>  <EXACT MASS>  (1224) 
214.17529198199998

>  <MW>  (1224) 
214

>  <ID>  (1224) 
JP010358

>  <CONTRIBUTOR>  (1224) 
University of Tokyo Team, {Faculty of Engineering, University of Tokyo

>  <COMMENT>  (1224) 
SMILES=COC(C)(C)CC(C)=C([H])C[Si](C)(C)C
InChI=InChI=1S/C12H26OSi/c1-11(8-9-14(5,6)7)10-12(2,3)13-4/h8H,9-10H2,1-7H3/b11-8-
computed SMILES=O(C)C(C)(C)CC(=CC[Si](C)(C)C)C
accession=JP010358
date=2016.01.19 (Created 2008.10.21, modified 2011.05.06)
author=HISAHIRO HAGIWARA, CHEMICAL RESEARCH INSTITUTE OF NON-AQUEOUSSOLUTIONS TOHOKU UNIV.
license=CC BY-NC-SA
exact mass=214.17529
ionization energy=70 eV
ion type=[M]+*
computed spectral entropy=1.39017522697123
computed normalized entropy=0.44336717953704646
SPLASH=splash10-00di-9000000000-930731fa226b0adc4b79
submitter=submitter = University of Tokyo Team (Faculty of Engineering, University of Tokyo)
MoNA Rating=3.75

>  <NUM PEAKS>  (1224) 
23

>  <MASS SPECTRAL PEAKS>  (1224) 
31 0.66
39 0.74
41 2.05
42 0.07
43 3.21
44 0.85
45 5.21
53 0.62
55 1.18
57 0.59
59 2.91
67 0.93
72 0.86
73 99.99
74 7.29
75 1.47
89 8.5
90 0.73
91 0.51
95 3.08
111 0.53
142 0.55
214 0.51

$$$$

     RDKit          2D

 14 13  0  0  0  0  0  0  0  0999 V2000
    2.1863    4.2623    0.0000 C   0  0  0  0  0  0  0  0  0  0  0  0
   -1.7108    2.0123    0.0000 C   0  0  0  0  0  0  0  0  0  0  0  0
   -4.3089    2.0123    0.0000 C   0  0  0  0  0  0  0  0  0  0  0  0
   -1.7108    6.5123    0.0000 C   0  0  0  0  0  0  0  0  0  0  0  0
   -6.3579    5.5613    0.0000 C   0  0  0  0  0  0  0  0  0  0  0  0
   -6.9070    3.5123    0.0000 C   0  0  0  0  0  0  0  0  0  0  0  0
   -4.8579    2.9632    0.0000 C   0  0  0  0  0  0  0  0  0  0  0  0
    0.8873    5.0123    0.0000 C   0  0  0  0  0  0  0  0  0  0  0  0
   -4.3089    5.0123    0.0000 C   0  0  0  0  0  0  0  0  0  0  0  0
   -3.0099    2.7623    0.0000 C   0  0  0  0  0  0  0  0  0  0  0  0
   -1.7108    5.0123    0.0000 C   0  0  0  0  0  0  0  0  0  0  0  0
   -3.0099    4.2623    0.0000 C   0  0  0  0  0  0  0  0  0  0  0  0
   -0.4118    4.2623    0.0000 O   0  0  0  0  0  0  0  0  0  0  0  0
   -5.6079    4.2623    0.0000 Si  0  0  0  0  0  4  0  0  0  0  0  0
  8  1  1  0
 10  2  2  0
 10  3  1  0
 11  4  1  0
 12  9  1  0
 12 10  1  0
 12 11  1  0
 13  8  1  0
 13 11  1  0
 14  5  1  0
 14  6  1  0
 14  7  1  0
 14  9  1  0
M  END
>  <NAME>  (1225) 
3-ETHOXY-2-ISOPROPENYLBUTYLTRIMETHYLSILANE

>  <SYNONYMS>  (1225) 


>  <SPECTRUM TYPE>  (1225) 
MS1

>  <INSTRUMENT TYPE>  (1225) 
EI-B

>  <INSTRUMENT>  (1225) 
Unknown

>  <ION MODE>  (1225) 
P

>  <INCHIKEY>  (1225) 
NDKXMSYUHKEGHT-UHFFFAOYSA-N

>  <FORMULA>  (1225) 
C12H26OSi

>  <EXACT MASS>  (1225) 
214.17529198199998

>  <MW>  (1225) 
214

>  <ID>  (1225) 
JP010357

>  <CONTRIBUTOR>  (1225) 
University of Tokyo Team, {Faculty of Engineering, University of Tokyo

>  <COMMENT>  (1225) 
SMILES=CCOC(C)C(C(C)=C)C[Si](C)(C)C
InChI=InChI=1S/C12H26OSi/c1-8-13-11(4)12(10(2)3)9-14(5,6)7/h11-12H,2,8-9H2,1,3-7H3
computed SMILES=O(CC)C(C)C(C(=C)C)C[Si](C)(C)C
accession=JP010357
date=2016.01.19 (Created 2008.10.21, modified 2011.05.06)
author=HISAHIRO HAGIWARA, CHEMICAL RESEARCH INSTITUTE OF NON-AQUEOUSSOLUTIONS TOHOKU UNIV.
license=CC BY-NC-SA
exact mass=214.17529
ionization energy=70 eV
ion type=[M]+*
computed spectral entropy=1.7726512012997242
computed normalized entropy=0.7133673216460497
SPLASH=splash10-0229-9720000000-18de60ea449ff0ae1d50
submitter=submitter = University of Tokyo Team (Faculty of Engineering, University of Tokyo)
MoNA Rating=3.75

>  <NUM PEAKS>  (1225) 
12

>  <MASS SPECTRAL PEAKS>  (1225) 
43 1.6
45 3.26
58 1.12
59 2.09
73 99.99
74 9.04
111 46.2
112 8.13
126 33
127 6.42
214 23.64
215 6.74

$$$$

     RDKit          2D

 16 18  0  0  0  0  0  0  0  0999 V2000
    1.1954   -0.9598    0.0000 C   0  0  0  0  0  0  0  0  0  0  0  0
   -6.4116    1.0081    0.0000 C   0  0  0  0  0  0  0  0  0  0  0  0
   -1.8503    0.2055    0.0000 C   0  0  0  0  0  0  0  0  0  0  0  0
    0.0189    0.0091    0.0000 C   0  0  0  0  0  0  0  0  0  0  0  0
    2.7491    1.4190    0.0000 C   0  0  0  0  0  0  0  0  0  0  0  0
   -1.2582    4.0242    0.0000 C   0  0  0  0  0  0  0  0  0  0  0  0
    1.1970    0.5402    0.0000 C   0  0  0  0  0  0  0  0  0  0  0  0
   -1.8683    2.6538    0.0000 C   0  0  0  0  0  0  0  0  0  0  0  0
    0.2336    3.8674    0.0000 C   0  0  0  0  0  0  0  0  0  0  0  0
    0.5455    2.4001    0.0000 C   0  0  0  0  0  0  0  0  0  0  0  0
    2.3637    3.1605    0.0000 C   0  0  0  0  0  0  0  0  0  0  0  0
   -3.4394    0.4543    0.0000 C   0  0  0  0  0  0  0  0  0  0  0  0
   -0.7536    1.6501    0.0000 C   0  0  0  0  0  0  0  0  0  0  0  0
    3.4773    4.1654    0.0000 O   0  0  0  0  0  0  0  0  0  0  0  0
   -3.8528   -0.9876    0.0000 O   0  0  0  0  0  0  0  0  0  0  0  0
   -5.0412    1.6182    0.0000 O   0  0  0  0  0  0  0  0  0  0  0  0
  4  3  1  0
  7  1  1  0
  7  5  1  0
  8  3  1  0
  8  6  1  0
  9  6  1  0
 10  4  1  0
 10  9  1  0
 11  5  1  0
 11  9  1  0
 13  7  1  0
 13  8  1  0
 13 10  1  0
 13 12  1  0
 14 11  2  0
 15 12  2  0
 16  2  1  0
 16 12  1  0
M  END
>  <NAME>  (1226) 
METHYL 2-METHYL-4-OXO-TRICYCLO(5,3,0,0(5,10))DECANE-1-CARBOXYLATE

>  <SYNONYMS>  (1226) 


>  <SPECTRUM TYPE>  (1226) 
MS1

>  <INSTRUMENT TYPE>  (1226) 
EI-B

>  <INSTRUMENT>  (1226) 
JEOL JMS-DX-300

>  <ION MODE>  (1226) 
P

>  <INCHIKEY>  (1226) 
JSOADSOCTCJGRD-UHFFFAOYSA-N

>  <FORMULA>  (1226) 
C13H18O3

>  <EXACT MASS>  (1226) 
222.12559443599997

>  <MW>  (1226) 
222

>  <ID>  (1226) 
JP010356

>  <CONTRIBUTOR>  (1226) 
University of Tokyo Team, {Faculty of Engineering, University of Tokyo

>  <COMMENT>  (1226) 
SMILES=COC(=O)C(C(C)2)(C31)C(CC3)C(C(=O)C2)C1
InChI=InChI=1S/C13H18O3/c1-7-5-11(14)9-6-8-3-4-10(9)13(7,8)12(15)16-2/h7-10H,3-6H2,1-2H3
computed SMILES=O=C(OC)C12C(C)CC(=O)C3CC2CCC31
accession=JP010356
date=2016.01.19 (Created 2008.10.21, modified 2011.05.06)
author=HISAHIRO HAGIWARA, CHEMICAL RESEARCH INSTITUTE OF NON-AQUEOUSSOLUTIONS TOHOKU UNIV.
license=CC BY-NC-SA
exact mass=222.12559
ionization energy=70 eV
ion type=[M]+*
computed spectral entropy=3.7087644157841853
computed normalized entropy=0.9254943984821253
SPLASH=splash10-0006-5900000000-7e6ad9fbdc684d9c5e28
submitter=submitter = University of Tokyo Team (Faculty of Engineering, University of Tokyo)
MoNA Rating=3.75

>  <NUM PEAKS>  (1226) 
55

>  <MASS SPECTRAL PEAKS>  (1226) 
39 26.4
41 36.89
43 10.38
51 10.27
52 6.32
53 17.99
55 22.06
59 17.59
65 16.41
66 7.65
67 17.16
69 9.61
77 28.74
78 11.55
79 37.8
80 8.82
81 17.65
91 44.14
92 20.62
93 36.66
94 7.04
105 36.92
106 9.93
107 11.57
108 6.29
109 10.95
119 25.34
120 4.14
121 49.93
122 7.47
133 19.34
134 12.79
135 20.14
137 6.49
145 7.31
147 15.39
148 63.09
149 17.26
151 6.36
152 0.74
161 5.55
162 21.48
163 35.63
164 5.01
165 15.46
166 6.67
179 15.41
180 61.44
181 8.76
190 14.82
191 22.09
194 99.99
195 15.51
222 27.83
223 6.58

$$$$

     RDKit          2D

 18 19  0  0  0  0  0  0  0  0999 V2000
   -9.1185    3.7354    0.0000 C   0  0  0  0  0  0  0  0  0  0  0  0
   -5.2214    4.4854    0.0000 C   0  0  0  0  0  0  0  0  0  0  0  0
   -6.5204    3.7354    0.0000 C   0  0  0  0  0  0  0  0  0  0  0  0
   -3.9223    3.7354    0.0000 C   0  0  0  0  0  0  0  0  0  0  0  0
   -0.0252    4.4854    0.0000 C   0  0  0  0  0  0  0  0  0  0  0  0
   -1.3243    2.2354    0.0000 C   0  0  0  0  0  0  0  0  0  0  0  0
    1.2738    3.7354    0.0000 C   0  0  0  0  0  0  0  0  0  0  0  0
   -0.0252    1.4854    0.0000 C   0  0  0  0  0  0  0  0  0  0  0  0
    2.8978    0.4318    0.0000 C   0  0  0  0  0  0  0  0  0  0  0  0
    3.6478    1.7308    0.0000 C   0  0  0  0  0  0  0  0  0  0  0  0
   -7.8195    4.4854    0.0000 C   0  0  0  0  0  0  0  0  0  0  0  0
   -1.3243    3.7354    0.0000 C   0  0  0  0  0  0  0  0  0  0  0  0
   -2.6233    4.4854    0.0000 C   0  0  0  0  0  0  0  0  0  0  0  0
    1.2738    2.2354    0.0000 C   0  0  0  0  0  0  0  0  0  0  0  0
   -7.8195    5.9854    0.0000 O   0  0  0  0  0  0  0  0  0  0  0  0
   -2.6233    5.9854    0.0000 O   0  0  0  0  0  0  0  0  0  0  0  0
    1.4306    0.7437    0.0000 O   0  0  0  0  0  0  0  0  0  0  0  0
    2.6441    2.8455    0.0000 O   0  0  0  0  0  0  0  0  0  0  0  0
  3  2  1  0
  4  2  1  0
  7  5  1  0
  8  6  1  0
 10  9  1  0
 11  1  1  0
 11  3  1  0
 12  5  2  0
 12  6  1  0
 13  4  1  0
 13 12  1  0
 14  7  1  0
 14  8  1  0
 15 11  2  0
 16 13  2  0
 17  9  1  0
 17 14  1  0
 18 10  1  0
 18 14  1  0
M  END
>  <NAME>  (1227) 
4,4-ETHYLENDIOXY-1-(5-OXOHEXANOYL)CYCLOHEXENE

>  <SYNONYMS>  (1227) 


>  <SPECTRUM TYPE>  (1227) 
MS1

>  <INSTRUMENT TYPE>  (1227) 
EI-B

>  <INSTRUMENT>  (1227) 
JEOL JMS-DX-300

>  <ION MODE>  (1227) 
P

>  <INCHIKEY>  (1227) 
WVSAPRNKVNYSSY-UHFFFAOYSA-N

>  <FORMULA>  (1227) 
C14H20O4

>  <EXACT MASS>  (1227) 
252.13615912

>  <MW>  (1227) 
252

>  <ID>  (1227) 
JP010355

>  <CONTRIBUTOR>  (1227) 
University of Tokyo Team, {Faculty of Engineering, University of Tokyo

>  <COMMENT>  (1227) 
SMILES=CC(=O)CCCC(=O)C(C1)=CCC(O2)(OCC2)C1
InChI=InChI=1S/C14H20O4/c1-11(15)3-2-4-13(16)12-5-7-14(8-6-12)17-9-10-18-14/h5H,2-4,6-10H2,1H3
computed SMILES=O=C(C1=CCC2(OCCO2)CC1)CCCC(=O)C
accession=JP010355
date=2016.01.19 (Created 2008.10.21, modified 2011.05.06)
author=HISAHIRO HAGIWARA, CHEMICAL RESEARCH INSTITUTE OF NON-AQUEOUSSOLUTIONS TOHOKU UNIV.
license=CC BY-NC-SA
exact mass=252.13616
ionization energy=70 eV
ion type=[M]+*
computed spectral entropy=2.868781764551528
computed normalized entropy=0.8005487940263231
SPLASH=splash10-000l-9100000000-0fa03aa92f9107c09b2e
submitter=submitter = University of Tokyo Team (Faculty of Engineering, University of Tokyo)
MoNA Rating=3.75

>  <NUM PEAKS>  (1227) 
36

>  <MASS SPECTRAL PEAKS>  (1227) 
39 6.98
41 9.7
42 19.66
43 32.07
45 3.71
51 2.5
53 16.81
55 15.74
65 4.46
66 2.23
67 6.86
71 3.83
73 2.5
77 6.42
78 2.22
79 3.83
81 10.28
85 6.28
86 99.99
91 3.66
93 2.15
95 5.21
99 2.59
107 2.57
109 3.62
113 4.13
115 2.31
121 5.49
122 5.9
123 7.44
137 3.25
139 2.33
165 2.46
167 7.68
180 3.92
252 5.79

$$$$

     RDKit          2D

 19 20  0  0  0  0  0  0  0  0999 V2000
    3.3319    4.4724    0.0000 C   0  0  0  0  0  0  0  0  0  0  0  0
    1.1766    3.2455    0.0000 C   0  0  0  0  0  0  0  0  0  0  0  0
   -0.9366    3.4306    0.0000 C   0  0  0  0  0  0  0  0  0  0  0  0
   -1.1217    1.3174    0.0000 C   0  0  0  0  0  0  0  0  0  0  0  0
   -2.2915   -1.8532    0.0000 C   0  0  0  0  0  0  0  0  0  0  0  0
   -2.2915   -0.3532    0.0000 C   0  0  0  0  0  0  0  0  0  0  0  0
   -0.9915   -2.6032    0.0000 C   0  0  0  0  0  0  0  0  0  0  0  0
   -0.9915    0.3968    0.0000 C   0  0  0  0  0  0  0  0  0  0  0  0
    2.9085   -1.8532    0.0000 C   0  0  0  0  0  0  0  0  0  0  0  0
    2.9085   -0.3532    0.0000 C   0  0  0  0  0  0  0  0  0  0  0  0
    0.3085   -1.8532    0.0000 C   0  0  0  0  0  0  0  0  0  0  0  0
    0.3085   -0.3532    0.0000 C   0  0  0  0  0  0  0  0  0  0  0  0
    1.6085   -2.6032    0.0000 C   0  0  0  0  0  0  0  0  0  0  0  0
    2.8811    1.9137    0.0000 C   0  0  0  0  0  0  0  0  0  0  0  0
    1.6085    0.3968    0.0000 C   0  0  0  0  0  0  0  0  0  0  0  0
    1.6085   -4.1032    0.0000 O   0  0  0  0  0  0  0  0  0  0  0  0
    4.3583    1.6534    0.0000 O   0  0  0  0  0  0  0  0  0  0  0  0
    2.3679    3.3232    0.0000 O   0  0  0  0  0  0  0  0  0  0  0  0
    0.0274    2.2814    0.0000 Si  0  0  0  0  0  4  0  0  0  0  0  0
  6  5  1  0
  7  5  1  0
  8  6  1  0
 10  9  1  0
 11  7  1  0
 12  8  1  0
 12 11  1  0
 13  9  1  0
 13 11  1  0
 15 10  1  0
 15 12  1  0
 15 14  1  0
 16 13  2  0
 17 14  2  0
 18  1  1  0
 18 14  1  0
 19  2  1  0
 19  3  1  0
 19  4  1  0
 19 15  1  0
M  END
>  <NAME>  (1228) 
METHYL 3,4,4A,5,6,7,8,8A-OCTAHYDRO-4-TRIMETHYLSILYLNAPHTHALEN-1(2H)-ONE-4-CARBOXYLATE

>  <SYNONYMS>  (1228) 


>  <SPECTRUM TYPE>  (1228) 
MS1

>  <INSTRUMENT TYPE>  (1228) 
EI-B

>  <INSTRUMENT>  (1228) 
JEOL JMS-DX-300

>  <ION MODE>  (1228) 
P

>  <INCHIKEY>  (1228) 
COQGSBQFSUFWIR-UHFFFAOYSA-N

>  <FORMULA>  (1228) 
C15H26O3Si

>  <EXACT MASS>  (1228) 
282.165121222

>  <MW>  (1228) 
282

>  <ID>  (1228) 
JP010354

>  <CONTRIBUTOR>  (1228) 
University of Tokyo Team, {Faculty of Engineering, University of Tokyo

>  <COMMENT>  (1228) 
SMILES=COC(=O)C(C1)([Si](C)(C)C)C(C2)C(CCC2)C(=O)C1
InChI=InChI=1S/C15H26O3Si/c1-18-14(17)15(19(2,3)4)10-9-13(16)11-7-5-6-8-12(11)15/h11-12H,5-10H2,1-4H3
computed SMILES=O=C(OC)C1(CCC(=O)C2CCCCC21)[Si](C)(C)C
accession=JP010354
date=2016.01.19 (Created 2008.10.21, modified 2011.05.06)
author=HISAHIRO HAGIWARA, CHEMICAL RESEARCH INSTITUTE OF NON-AQUEOUSSOLUTIONS TOHOKU UNIV.
license=CC BY-NC-SA
exact mass=282.16512
ionization energy=70 eV
ion type=[M]+*
computed spectral entropy=3.356753977089995
computed normalized entropy=0.8870469775095053
SPLASH=splash10-0079-8930000000-6d80489d2dfad59bbdb0
submitter=submitter = University of Tokyo Team (Faculty of Engineering, University of Tokyo)
MoNA Rating=3.75

>  <NUM PEAKS>  (1228) 
44

>  <MASS SPECTRAL PEAKS>  (1228) 
39 5.14
41 9.44
43 7.96
45 24.07
53 6
55 11.71
59 32.17
67 8.07
68 6.46
73 99.99
74 11.51
75 16.68
77 7.24
79 16.32
80 5.82
81 6.36
89 49.94
91 16.24
93 8.96
94 5.24
105 7.42
107 20.62
108 17.48
121 8.59
122 21.95
123 5.07
133 13.11
135 88.81
136 26.65
149 21.66
150 18.49
159 11.05
161 11.09
172 5.66
177 8.03
178 82.97
179 11.56
226 6.82
239 28.92
240 6.58
251 7.7
267 10.57
282 55.64
283 14.41

$$$$

     RDKit          2D

 17 16  0  0  0  0  0  0  0  0999 V2000
    4.5466    7.8750    0.0000 C   0  0  0  0  0  0  0  0  0  0  0  0
  -13.6399    7.8750    0.0000 C   0  0  0  0  0  0  0  0  0  0  0  0
    3.2476    8.6250    0.0000 C   0  0  0  0  0  0  0  0  0  0  0  0
  -12.3409    8.6250    0.0000 C   0  0  0  0  0  0  0  0  0  0  0  0
   -4.5466    8.6250    0.0000 C   0  0  0  0  0  0  0  0  0  0  0  0
   -3.2476    7.8750    0.0000 C   0  0  0  0  0  0  0  0  0  0  0  0
   -5.8457    7.8750    0.0000 C   0  0  0  0  0  0  0  0  0  0  0  0
   -1.9486    8.6250    0.0000 C   0  0  0  0  0  0  0  0  0  0  0  0
   -7.1447    8.6250    0.0000 C   0  0  0  0  0  0  0  0  0  0  0  0
   -0.6495    7.8750    0.0000 C   0  0  0  0  0  0  0  0  0  0  0  0
   -8.4437    7.8750    0.0000 C   0  0  0  0  0  0  0  0  0  0  0  0
    0.6495    8.6250    0.0000 C   0  0  0  0  0  0  0  0  0  0  0  0
   -9.7428    8.6250    0.0000 C   0  0  0  0  0  0  0  0  0  0  0  0
    0.6495   10.1250    0.0000 O   0  0  0  0  0  0  0  0  0  0  0  0
   -9.7428   10.1250    0.0000 O   0  0  0  0  0  0  0  0  0  0  0  0
    1.9486    7.8750    0.0000 O   0  0  0  0  0  0  0  0  0  0  0  0
  -11.0418    7.8750    0.0000 O   0  0  0  0  0  0  0  0  0  0  0  0
  3  1  1  0
  4  2  1  0
  6  5  1  0
  7  5  1  0
  8  6  1  0
  9  7  1  0
  8 10  2  0
  9 11  2  0
 12 10  1  0
 13 11  1  0
 14 12  2  0
 15 13  2  0
 16  3  1  0
 16 12  1  0
 17  4  1  0
 17 13  1  0
M  END
>  <NAME>  (1229) 
DIETHYL (E,E)-2,7-NONADIENOATE

>  <SYNONYMS>  (1229) 


>  <SPECTRUM TYPE>  (1229) 
MS1

>  <INSTRUMENT TYPE>  (1229) 
EI-B

>  <INSTRUMENT>  (1229) 
JEOL JMS-DX-300

>  <ION MODE>  (1229) 
P

>  <INCHIKEY>  (1229) 
DGDKCADOPSQFGL-GFULKKFKSA-N

>  <FORMULA>  (1229) 
C13H20O4

>  <EXACT MASS>  (1229) 
240.13615912

>  <MW>  (1229) 
240

>  <ID>  (1229) 
JP010353

>  <CONTRIBUTOR>  (1229) 
University of Tokyo Team, {Faculty of Engineering, University of Tokyo

>  <COMMENT>  (1229) 
SMILES=CCOC(=O)C=CCCCC=CC(=O)OCC
InChI=InChI=1S/C13H20O4/c1-3-16-12(14)10-8-6-5-7-9-11-13(15)17-4-2/h8-11H,3-7H2,1-2H3/b10-8+,11-9+
computed SMILES=O=C(OCC)C=CCCCC=CC(=O)OCC
accession=JP010353
date=2016.01.19 (Created 2008.10.21, modified 2011.05.06)
author=HISAHIRO HAGIWARA, CHEMICAL RESEARCH INSTITUTE OF NON-AQUEOUSSOLUTIONS TOHOKU UNIV.
license=CC BY-NC-SA
exact mass=240.13616
ionization energy=70 eV
ion type=[M]+*
computed spectral entropy=3.992212496526691
computed normalized entropy=0.9084671038421127
SPLASH=splash10-00pm-9400000000-6441e63dd92a6c87eb0d
submitter=submitter = University of Tokyo Team (Faculty of Engineering, University of Tokyo)
MoNA Rating=3.75

>  <NUM PEAKS>  (1229) 
81

>  <MASS SPECTRAL PEAKS>  (1229) 
26 6.28
27 43.31
29 99.99
30 3.45
31 3.83
39 35.39
40 11.16
41 28.97
42 9.06
43 21.89
45 10.13
51 3.85
52 3.33
53 41.33
54 13.13
55 40.48
57 15.41
60 9.19
61 11.26
65 9.43
66 13.77
67 27.87
68 47.44
69 8.09
70 8.47
71 9.76
73 9.53
75 21.25
77 9.85
78 6.26
79 30.41
80 12.47
81 88.63
82 16
83 4.17
84 5.52
85 13.35
86 22.12
88 20.45
91 1.26
92 25.33
93 73.38
94 22.85
95 9.75
97 17.17
98 34.96
99 32.09
101 4.35
107 18.1
108 4.84
111 8.18
112 0.74
114 10.67
115 4.15
119 3.65
120 19.48
121 37.7
122 10.05
123 4.26
126 1.29
127 14.28
137 8.14
138 25.3
139 20.88
140 11.03
148 26.03
149 24.51
150 4.68
152 7.37
153 4.08
165 4.16
166 58.54
167 34
168 6.52
194 20.5
195 87.55
196 13.31
197 8.18
240 14.08
241 22.46
242 3.56

$$$$

     RDKit          2D

 30 32  0  0  0  0  0  0  0  0999 V2000
   -4.9721   -0.7500    0.0000 C   0  0  0  0  0  0  0  0  0  0  0  0
   10.6164    3.7500    0.0000 C   0  0  0  0  0  0  0  0  0  0  0  0
   -3.6731   -1.5000    0.0000 C   0  0  0  0  0  0  0  0  0  0  0  0
    9.3173    3.0000    0.0000 C   0  0  0  0  0  0  0  0  0  0  0  0
    2.8221   -0.7500    0.0000 C   0  0  0  0  0  0  0  0  0  0  0  0
    4.1212   -1.5000    0.0000 C   0  0  0  0  0  0  0  0  0  0  0  0
    1.5231   -1.5000    0.0000 C   0  0  0  0  0  0  0  0  0  0  0  0
    5.4202   -0.7500    0.0000 C   0  0  0  0  0  0  0  0  0  0  0  0
    0.2241   -0.7500    0.0000 C   0  0  0  0  0  0  0  0  0  0  0  0
   10.6164   -3.7500    0.0000 C   0  0  0  0  0  0  0  0  0  0  0  0
   11.9154   -3.0000    0.0000 C   0  0  0  0  0  0  0  0  0  0  0  0
   14.2894   -0.9954    0.0000 C   0  0  0  0  0  0  0  0  0  0  0  0
   13.5394    0.3037    0.0000 C   0  0  0  0  0  0  0  0  0  0  0  0
    6.7193   -3.0000    0.0000 C   0  0  0  0  0  0  0  0  0  0  0  0
   10.6164   -0.7500    0.0000 C   0  0  0  0  0  0  0  0  0  0  0  0
    6.7193   -1.5000    0.0000 C   0  0  0  0  0  0  0  0  0  0  0  0
    9.3173   -3.0000    0.0000 C   0  0  0  0  0  0  0  0  0  0  0  0
    9.3173   -1.5000    0.0000 C   0  0  0  0  0  0  0  0  0  0  0  0
    8.0183   -3.7500    0.0000 C   0  0  0  0  0  0  0  0  0  0  0  0
   -1.0750   -1.5000    0.0000 C   0  0  0  0  0  0  0  0  0  0  0  0
    8.0183   -0.7500    0.0000 C   0  0  0  0  0  0  0  0  0  0  0  0
    8.0183    0.7500    0.0000 C   0  0  0  0  0  0  0  0  0  0  0  0
   11.9154   -1.5000    0.0000 C   0  0  0  0  0  0  0  0  0  0  0  0
    8.0183   -5.2500    0.0000 O   0  0  0  0  0  0  0  0  0  0  0  0
   -1.0750   -3.0000    0.0000 O   0  0  0  0  0  0  0  0  0  0  0  0
    6.7193    1.5000    0.0000 O   0  0  0  0  0  0  0  0  0  0  0  0
   -2.3740   -0.7500    0.0000 O   0  0  0  0  0  0  0  0  0  0  0  0
    9.3173    1.5000    0.0000 O   0  0  0  0  0  0  0  0  0  0  0  0
   13.2857   -2.1101    0.0000 O   0  0  0  0  0  0  0  0  0  0  0  0
   12.0722   -0.0082    0.0000 O   0  0  0  0  0  0  0  0  0  0  0  0
  3  1  1  0
  4  2  1  0
  6  5  1  0
  7  5  1  0
  8  6  1  0
  7  9  2  0
 11 10  1  0
 13 12  1  0
 16  8  1  0
 16 14  1  0
 17 10  1  0
 18 15  1  0
 18 17  1  0
 19 14  1  0
 19 17  1  0
 20  9  1  0
 21 16  1  0
 21 18  1  0
 22 21  1  0
 23 11  1  0
 23 15  1  0
 24 19  2  0
 25 20  2  0
 26 22  2  0
 27  3  1  0
 27 20  1  0
 28  4  1  0
 28 22  1  0
 29 12  1  0
 29 23  1  0
 30 13  1  0
 30 23  1  0
M  END
>  <NAME>  (1230) 
ETHYL 3-((E)-5-ETHOXYCARBONYL-4-PENTENYL)-6,6-ETHYLENDIOXY-3,4,4A,5,6,7,8,8A-OCTAHYDRONAPHTHALEN-1(2H)-ONE-4-CARBOXYLATE

>  <SYNONYMS>  (1230) 


>  <SPECTRUM TYPE>  (1230) 
MS1

>  <INSTRUMENT TYPE>  (1230) 
EI-B

>  <INSTRUMENT>  (1230) 
JEOL JMS-DX-300

>  <ION MODE>  (1230) 
P

>  <INCHIKEY>  (1230) 
OUIQUNJXRQNGLD-VQHVLOKHSA-N

>  <FORMULA>  (1230) 
C23H34O7

>  <EXACT MASS>  (1230) 
422.230453428

>  <MW>  (1230) 
422

>  <ID>  (1230) 
JP010352

>  <CONTRIBUTOR>  (1230) 
University of Tokyo Team, {Faculty of Engineering, University of Tokyo

>  <COMMENT>  (1230) 
SMILES=CCOC(=O)C=CCCCC(C1)C(C(=O)OCC)C(C2)C(CCC(O3)(OCC3)2)C(=O)1
InChI=InChI=1S/C23H34O7/c1-3-27-20(25)9-7-5-6-8-16-14-19(24)17-10-11-23(29-12-13-30-23)15-18(17)21(16)22(26)28-4-2/h7,9,16-18,21H,3-6,8,10-15H2,1-2H3/b9-7+
computed SMILES=O=C(OCC)C=CCCCC1CC(=O)C2CCC3(OCCO3)CC2C1C(=O)OCC
accession=JP010352
date=2016.01.19 (Created 2008.10.21, modified 2011.05.06)
author=HISAHIRO HAGIWARA, CHEMICAL RESEARCH INSTITUTE OF NON-AQUEOUSSOLUTIONS TOHOKU UNIV.
license=CC BY-NC-SA
exact mass=422.23045
ionization energy=70 eV
ion type=[M]+*
computed spectral entropy=3.142971444256488
computed normalized entropy=0.8118853646195408
SPLASH=splash10-0002-9100000000-604aee24da5b7e2b0511
submitter=submitter = University of Tokyo Team (Faculty of Engineering, University of Tokyo)
MoNA Rating=3.75

>  <NUM PEAKS>  (1230) 
48

>  <MASS SPECTRAL PEAKS>  (1230) 
39 2
40 2.42
41 5.91
42 6.33
43 23.36
44 10.23
45 4.54
53 2.65
55 12.52
57 4.5
61 3.42
67 4.27
69 2.33
70 2.95
71 2.43
73 4.73
77 2.94
79 3.94
81 5.28
86 30.84
87 18.61
88 2.34
91 3.09
93 3.37
95 3.65
99 99.99
100 9.66
107 2.44
112 4.21
113 2.24
121 2.62
123 2.04
125 4.69
139 3.88
140 9.98
141 3.19
163 2.03
167 4.72
181 2.04
182 2.93
209 3.25
283 2.52
291 5.56
331 4.24
337 8.69
338 2.1
377 6.39
422 4.86

$$$$

     RDKit          2D

 18 19  0  0  0  0  0  0  0  0999 V2000
    3.8976    3.3200    0.0000 C   0  0  0  0  0  0  0  0  0  0  0  0
   -9.0928    3.3200    0.0000 C   0  0  0  0  0  0  0  0  0  0  0  0
    2.5981    2.5692    0.0000 C   0  0  0  0  0  0  0  0  0  0  0  0
    3.8981    4.8208    0.0000 C   0  0  0  0  0  0  0  0  0  0  0  0
   -9.0933    4.8208    0.0000 C   0  0  0  0  0  0  0  0  0  0  0  0
   -7.7933    2.5692    0.0000 C   0  0  0  0  0  0  0  0  0  0  0  0
    1.2990    3.3192    0.0000 C   0  0  0  0  0  0  0  0  0  0  0  0
    2.5990    5.5708    0.0000 C   0  0  0  0  0  0  0  0  0  0  0  0
   -7.7942    5.5708    0.0000 C   0  0  0  0  0  0  0  0  0  0  0  0
   -6.4942    3.3192    0.0000 C   0  0  0  0  0  0  0  0  0  0  0  0
    1.2995    4.8200    0.0000 C   0  0  0  0  0  0  0  0  0  0  0  0
   -6.4947    4.8200    0.0000 C   0  0  0  0  0  0  0  0  0  0  0  0
   -2.5976    5.5700    0.0000 C   0  0  0  0  0  0  0  0  0  0  0  0
    0.0005    5.5700    0.0000 N   0  0  0  0  0  0  0  0  0  0  0  0
   -5.1957    5.5700    0.0000 N   0  0  0  0  0  0  0  0  0  0  0  0
   -1.2986    4.8200    0.0000 N   0  0  0  0  0  0  0  0  0  0  0  0
   -3.8966    4.8200    0.0000 N   0  0  0  0  0  0  0  0  0  0  0  0
   -2.5976    7.0700    0.0000 O   0  0  0  0  0  0  0  0  0  0  0  0
  3  1  2  0
  4  1  1  0
  5  2  2  0
  6  2  1  0
  7  3  1  0
  8  4  2  0
  9  5  1  0
 10  6  2  0
 11  7  2  0
 11  8  1  0
 12  9  2  0
 12 10  1  0
 14 11  1  0
 15 12  1  0
 16 13  2  3
 16 14  1  0
 17 13  1  0
 17 15  1  0
 18 13  1  0
M  END
>  <NAME>  (1231) 
DIPHENYLCARBAZIDE

>  <SYNONYMS>  (1231) 


>  <SPECTRUM TYPE>  (1231) 
MS1

>  <INSTRUMENT TYPE>  (1231) 
EI-B

>  <INSTRUMENT>  (1231) 
HITACHI M-80A

>  <ION MODE>  (1231) 
P

>  <INCHIKEY>  (1231) 
KSPIHGBHKVISFI-UHFFFAOYSA-N

>  <FORMULA>  (1231) 
C13H14N4O

>  <EXACT MASS>  (1231) 
242.116761068

>  <MW>  (1231) 
242

>  <ID>  (1231) 
JP010351

>  <CONTRIBUTOR>  (1231) 
University of Tokyo Team, {Faculty of Engineering, University of Tokyo

>  <COMMENT>  (1231) 
SMILES=O=C(NNc(c2)cccc2)NNc(c1)cccc1
InChI=InChI=1S/C13H14N4O/c18-13(16-14-11-7-3-1-4-8-11)17-15-12-9-5-2-6-10-12/h1-10,14-15H,(H2,16,17,18)
computed SMILES=OC(=NNC=1C=CC=CC1)NNC=2C=CC=CC2
accession=JP010351
date=2016.01.19 (Created 2008.10.21, modified 2011.05.06)
author=TAJIMA S, GUNMA COLLEGE OF TECHNOLOGY
license=CC BY-NC-SA
exact mass=242.11676
ionization energy=70 eV
ion type=[M]+*
computed spectral entropy=3.0990221266050413
computed normalized entropy=0.809431285324052
SPLASH=splash10-0pbc-9500000000-8f61f60f3768ad7fb183
submitter=submitter = University of Tokyo Team (Faculty of Engineering, University of Tokyo)
MoNA Rating=3.75

>  <NUM PEAKS>  (1231) 
46

>  <MASS SPECTRAL PEAKS>  (1231) 
26 1.3
27 4.05
28 2.58
29 9.89
30 1.81
31 1.97
37 1.93
38 4.93
39 17.23
40 2.27
41 1.76
42 1.06
43 4.24
44 21.33
50 8.35
51 23.58
52 8.02
53 3.69
62 1.62
63 5.65
64 6.35
65 25.28
66 3.93
74 1.96
75 1.35
76 1.91
77 49.77
78 15.81
79 7.59
80 5.31
81 1.27
91 12.82
92 32.86
93 65.53
94 7.94
105 4.32
106 3.39
107 30.09
108 99.99
109 7.87
134 3.11
150 2.13
151 61.18
152 11
242 10.7
243 2.75

$$$$

     RDKit          2D

 13 13  0  0  0  0  0  0  0  0999 V2000
    2.6334   -2.6082    0.0000 C   0  0  0  0  0  0  0  0  0  0  0  0
    1.3344   -3.3582    0.0000 C   0  0  0  0  0  0  0  0  0  0  0  0
    1.3334   -0.3565    0.0000 C   0  0  0  0  0  0  0  0  0  0  0  0
    2.6329   -1.1073    0.0000 C   0  0  0  0  0  0  0  0  0  0  0  0
    0.0348   -2.6073    0.0000 C   0  0  0  0  0  0  0  0  0  0  0  0
    0.0344   -1.1065    0.0000 C   0  0  0  0  0  0  0  0  0  0  0  0
   -1.2642   -3.3573    0.0000 N   0  0  0  0  0  0  0  0  0  0  0  0
    3.9320   -0.3573    0.0000 N   0  0  0  0  0  0  0  0  0  0  0  0
   -1.2648   -0.3567    0.0000 N   0  0  0  0  0  0  0  0  0  0  0  0
    5.2310   -1.1073    0.0000 O   0  0  0  0  0  0  0  0  0  0  0  0
    3.9320    1.1427    0.0000 O   0  0  0  0  0  0  0  0  0  0  0  0
   -2.5637   -1.1069    0.0000 O   0  0  0  0  0  0  0  0  0  0  0  0
   -1.2650    1.1433    0.0000 O   0  0  0  0  0  0  0  0  0  0  0  0
  2  1  2  0
  4  1  1  0
  4  3  2  0
  5  2  1  0
  6  3  1  0
  6  5  2  0
  7  5  1  0
  8  4  1  0
  9  6  1  0
 10  8  1  0
 11  8  2  0
 12  9  1  0
 13  9  2  0
M  CHG  4   8   1   9   1  10  -1  12  -1
M  END
>  <NAME>  (1232) 
2,4-DINITROANILINE

>  <SYNONYMS>  (1232) 


>  <SPECTRUM TYPE>  (1232) 
MS1

>  <INSTRUMENT TYPE>  (1232) 
EI-B

>  <INSTRUMENT>  (1232) 
HITACHI M-80A

>  <ION MODE>  (1232) 
P

>  <INCHIKEY>  (1232) 
LXQOQPGNCGEELI-UHFFFAOYSA-N

>  <FORMULA>  (1232) 
C6H5N3O4

>  <EXACT MASS>  (1232) 
183.02800564

>  <MW>  (1232) 
183

>  <ID>  (1232) 
JP010350

>  <CONTRIBUTOR>  (1232) 
University of Tokyo Team, {Faculty of Engineering, University of Tokyo

>  <COMMENT>  (1232) 
SMILES=[O-1][N+1](=O)c(c1)cc([N+1]([O-1])=O)c(N)c1
InChI=InChI=1S/C6H5N3O4/c7-5-2-1-4(8(10)11)3-6(5)9(12)13/h1-3H,7H2
computed SMILES=O=N(=O)C1=CC=C(N)C(=C1)N(=O)=O
accession=JP010350
date=2016.01.19 (Created 2008.10.21, modified 2011.05.06)
author=TAJIMA S, GUNMA COLLEGE OF TECHNOLOGY
license=CC BY-NC-SA
exact mass=183.02801
ionization energy=70 eV
ion type=[M]+*
computed spectral entropy=3.2147708895783564
computed normalized entropy=0.8176280409848367
SPLASH=splash10-001i-9500000000-d22dbee69568016b5f9b
submitter=submitter = University of Tokyo Team (Faculty of Engineering, University of Tokyo)
MoNA Rating=3.75

>  <NUM PEAKS>  (1232) 
51

>  <MASS SPECTRAL PEAKS>  (1232) 
14 1.3
26 1.39
27 1.57
28 5.87
29 1.13
30 21.14
37 3.22
38 6.58
39 11.22
40 4.56
41 11.01
42 1.53
44 2.13
46 4.85
50 3.82
51 7.7
52 40.38
53 6.95
54 2.5
61 3.71
62 9.75
63 22.77
64 22.73
65 8.84
66 5.47
67 2.92
74 1.38
75 1.61
76 2.74
77 2.12
78 5.84
79 14.42
80 3.34
88 1.14
89 3.22
90 6.7
91 50.35
92 7.95
93 2.78
95 2.79
106 2.3
107 18.76
108 1.62
137 6.36
153 24.51
154 2.08
167 7.94
168 1.06
183 99.99
184 19.22
185 2.02

$$$$

     RDKit          2D

 20 22  0  0  0  0  0  0  0  0999 V2000
    0.5340    5.5708    0.0000 C   0  0  0  0  0  0  0  0  0  0  0  0
    4.4312   -1.1792    0.0000 C   0  0  0  0  0  0  0  0  0  0  0  0
   -3.8976    1.8522    0.0000 C   0  0  0  0  0  0  0  0  0  0  0  0
   -0.7660    4.8208    0.0000 C   0  0  0  0  0  0  0  0  0  0  0  0
    1.8340    4.8208    0.0000 C   0  0  0  0  0  0  0  0  0  0  0  0
    4.4316    0.3217    0.0000 C   0  0  0  0  0  0  0  0  0  0  0  0
    3.1316   -1.9300    0.0000 C   0  0  0  0  0  0  0  0  0  0  0  0
   -3.3847    0.4418    0.0000 C   0  0  0  0  0  0  0  0  0  0  0  0
   -2.9332    3.0023    0.0000 C   0  0  0  0  0  0  0  0  0  0  0  0
   -0.7660    3.3208    0.0000 C   0  0  0  0  0  0  0  0  0  0  0  0
    1.8340    3.3208    0.0000 C   0  0  0  0  0  0  0  0  0  0  0  0
    3.1326    1.0717    0.0000 C   0  0  0  0  0  0  0  0  0  0  0  0
    1.8326   -1.1800    0.0000 C   0  0  0  0  0  0  0  0  0  0  0  0
   -1.9075    0.1813    0.0000 C   0  0  0  0  0  0  0  0  0  0  0  0
   -1.4560    2.7418    0.0000 C   0  0  0  0  0  0  0  0  0  0  0  0
    0.5340    2.5708    0.0000 C   0  0  0  0  0  0  0  0  0  0  0  0
    1.8331    0.3208    0.0000 C   0  0  0  0  0  0  0  0  0  0  0  0
   -0.9432    1.3313    0.0000 C   0  0  0  0  0  0  0  0  0  0  0  0
    0.5340    1.0708    0.0000 C   0  0  0  0  0  0  0  0  0  0  0  0
    0.0210   -0.3387    0.0000 O   0  0  0  0  0  0  0  0  0  0  0  0
  4  1  2  0
  5  1  1  0
  6  2  2  0
  7  2  1  0
  8  3  2  0
  9  3  1  0
 10  4  1  0
 11  5  2  0
 12  6  1  0
 13  7  2  0
 14  8  1  0
 15  9  2  0
 16 10  2  0
 16 11  1  0
 17 12  2  0
 17 13  1  0
 18 14  2  0
 18 15  1  0
 19 16  1  0
 19 17  1  0
 19 18  1  0
 20 19  1  0
M  END
>  <NAME>  (1233) 
TRIPHENYLMETHANOL

>  <SYNONYMS>  (1233) 


>  <SPECTRUM TYPE>  (1233) 
MS1

>  <INSTRUMENT TYPE>  (1233) 
EI-B

>  <INSTRUMENT>  (1233) 
HITACHI M-80A

>  <ION MODE>  (1233) 
P

>  <INCHIKEY>  (1233) 
LZTRCELOJRDYMQ-UHFFFAOYSA-N

>  <FORMULA>  (1233) 
C19H16O

>  <EXACT MASS>  (1233) 
260.12011513199997

>  <MW>  (1233) 
260

>  <ID>  (1233) 
JP010349

>  <CONTRIBUTOR>  (1233) 
University of Tokyo Team, {Faculty of Engineering, University of Tokyo

>  <COMMENT>  (1233) 
SMILES=c(c3)ccc(c3)C(O)(c(c2)cccc2)c(c1)cccc1
InChI=InChI=1S/C19H16O/c20-19(16-10-4-1-5-11-16,17-12-6-2-7-13-17)18-14-8-3-9-15-18/h1-15,20H
computed SMILES=OC(C=1C=CC=CC1)(C=2C=CC=CC2)C=3C=CC=CC3
accession=JP010349
date=2016.01.19 (Created 2008.10.21, modified 2011.05.06)
author=TAJIMA S, GUNMA COLLEGE OF TECHNOLOGY
license=CC BY-NC-SA
exact mass=260.12012
ionization energy=70 eV
ion type=[M]+*
computed spectral entropy=2.7234417798717376
computed normalized entropy=0.7486947828272448
SPLASH=splash10-053r-2920000000-be3235d6af59e4a8083a
submitter=submitter = University of Tokyo Team (Faculty of Engineering, University of Tokyo)
MoNA Rating=3.75

>  <NUM PEAKS>  (1233) 
38

>  <MASS SPECTRAL PEAKS>  (1233) 
27 1.94
39 3.05
50 4.39
51 16.86
52 2.15
63 1.73
74 1.29
75 1.41
76 2.84
77 52.92
78 8.74
79 1.41
91 2.2
105 99.99
106 8.51
115 1.49
152 3.55
153 2.92
154 41.48
155 23.15
156 2.69
165 7.86
166 2.02
167 1.44
181 5.16
182 24.18
183 91.84
184 12.95
185 1.07
239 1.35
241 1.81
242 2.28
243 17.55
244 5.66
259 1.59
260 51.6
261 10.83
262 1.19

$$$$

     RDKit          2D

 11 12  0  0  0  0  0  0  0  0999 V2000
   -2.9500   -0.8900    0.0000 C   0  0  0  0  0  0  0  0  0  0  0  0
   -2.9500    0.6100    0.0000 C   0  0  0  0  0  0  0  0  0  0  0  0
   -1.6500   -1.6400    0.0000 C   0  0  0  0  0  0  0  0  0  0  0  0
   -1.6500    1.3600    0.0000 C   0  0  0  0  0  0  0  0  0  0  0  0
    0.9400   -1.6400    0.0000 C   0  0  0  0  0  0  0  0  0  0  0  0
    2.2400   -0.8900    0.0000 C   0  0  0  0  0  0  0  0  0  0  0  0
    0.9400    1.3600    0.0000 C   0  0  0  0  0  0  0  0  0  0  0  0
   -0.3500   -0.8900    0.0000 C   0  0  0  0  0  0  0  0  0  0  0  0
   -0.3500    0.6100    0.0000 C   0  0  0  0  0  0  0  0  0  0  0  0
    2.2400    0.6100    0.0000 C   0  0  0  0  0  0  0  0  0  0  0  0
    3.5389    1.3602    0.0000 O   0  0  0  0  0  0  0  0  0  0  0  0
  2  1  2  0
  3  1  1  0
  4  2  1  0
  6  5  2  0
  8  3  2  0
  8  5  1  0
  9  4  2  0
  9  7  1  0
  9  8  1  0
 10  6  1  0
 10  7  2  0
 11 10  1  0
M  END
>  <NAME>  (1234) 
2-NAPHTHOL

>  <SYNONYMS>  (1234) 
2-HYDROXYNAPHTHALENE

>  <SPECTRUM TYPE>  (1234) 
MS1

>  <INSTRUMENT TYPE>  (1234) 
EI-B

>  <INSTRUMENT>  (1234) 
HITACHI M-80A

>  <ION MODE>  (1234) 
P

>  <INCHIKEY>  (1234) 
JWAZRIHNYRIHIV-UHFFFAOYSA-N

>  <FORMULA>  (1234) 
C10H8O

>  <EXACT MASS>  (1234) 
144.057514876

>  <MW>  (1234) 
144

>  <ID>  (1234) 
JP010348

>  <CONTRIBUTOR>  (1234) 
University of Tokyo Team, {Faculty of Engineering, University of Tokyo

>  <COMMENT>  (1234) 
SMILES=Oc(c1)cc(c2)c(ccc2)c1
cas=135-19-3
InChI=InChI=1S/C10H8O/c11-10-6-5-8-3-1-2-4-9(8)7-10/h1-7,11H
computed SMILES=OC=1C=CC=2C=CC=CC2C1
accession=JP010348
date=2016.01.19 (Created 2008.10.21, modified 2011.05.06)
author=TAJIMA S, GUNMA COLLEGE OF TECHNOLOGY
license=CC BY-NC-SA
exact mass=144.05751
ionization energy=70 eV
ion type=[M]+*
computed spectral entropy=2.060519354777668
computed normalized entropy=0.6324304178012303
SPLASH=splash10-0006-2900000000-59876f73d937e3fff0c1
submitter=submitter = University of Tokyo Team (Faculty of Engineering, University of Tokyo)
MoNA Rating=3.75

>  <NUM PEAKS>  (1234) 
26

>  <MASS SPECTRAL PEAKS>  (1234) 
26 1.03
27 1.64
28 3.15
29 2.03
38 1.64
39 4.35
50 2.93
51 3.23
58 1.23
62 2.65
63 5.47
65 2.02
72 2.01
74 1.55
75 1.36
77 2.29
87 1.45
88 1.07
89 4.4
105 5.35
113 1.09
114 1.8
115 33.41
116 9.89
144 99.99
145 11.26

$$$$

     RDKit          2D

 11 10  0  0  0  0  0  0  0  0999 V2000
    2.2841    2.8734    0.0000 C   0  0  0  0  0  0  0  0  0  0  0  0
   -5.5102    2.8734    0.0000 C   0  0  0  0  0  0  0  0  0  0  0  0
   -3.0284    7.3311    0.0000 C   0  0  0  0  0  0  0  0  0  0  0  0
   -0.6489    4.7725    0.0000 C   0  0  0  0  0  0  0  0  0  0  0  0
    0.9850    3.6234    0.0000 C   0  0  0  0  0  0  0  0  0  0  0  0
   -4.2111    3.6234    0.0000 C   0  0  0  0  0  0  0  0  0  0  0  0
   -2.0642    6.1820    0.0000 C   0  0  0  0  0  0  0  0  0  0  0  0
   -0.3140    2.8734    0.0000 O   0  0  0  0  0  0  0  0  0  0  0  0
   -2.9121    2.8734    0.0000 O   0  0  0  0  0  0  0  0  0  0  0  0
   -2.5772    4.7725    0.0000 O   0  0  0  0  0  0  0  0  0  0  0  0
   -1.6131    3.6234    0.0000 Si  0  0  0  0  0  4  0  0  0  0  0  0
  5  1  1  0
  6  2  1  0
  7  3  1  0
  8  5  1  0
  9  6  1  0
 10  7  1  0
 11  4  1  0
 11  8  1  0
 11  9  1  0
 11 10  1  0
M  END
>  <NAME>  (1235) 
TRIETHOXYMETHYLSILANE

>  <SYNONYMS>  (1235) 


>  <SPECTRUM TYPE>  (1235) 
MS1

>  <INSTRUMENT TYPE>  (1235) 
EI-B

>  <INSTRUMENT>  (1235) 
HITACHI M-80A

>  <ION MODE>  (1235) 
P

>  <INCHIKEY>  (1235) 
CPUDPFPXCZDNGI-UHFFFAOYSA-N

>  <FORMULA>  (1235) 
C7H18O3Si

>  <EXACT MASS>  (1235) 
178.102520966

>  <MW>  (1235) 
178

>  <ID>  (1235) 
JP010347

>  <CONTRIBUTOR>  (1235) 
University of Tokyo Team, {Faculty of Engineering, University of Tokyo

>  <COMMENT>  (1235) 
SMILES=CCO[Si](C)(OCC)OCC
InChI=InChI=1S/C7H18O3Si/c1-5-8-11(4,9-6-2)10-7-3/h5-7H2,1-4H3
computed SMILES=O(CC)[Si](OCC)(OCC)C
accession=JP010347
date=2016.01.19 (Created 2008.10.21, modified 2011.05.06)
author=TAJIMA S, GUNMA COLLEGE OF TECHNOLOGY
license=CC BY-NC-SA
exact mass=178.10252
ionization energy=70 eV
ion type=[M]+*
computed spectral entropy=3.1239421947544574
computed normalized entropy=0.8069697713841567
SPLASH=splash10-03di-6900000000-fef9cb2a196d57c1bd93
submitter=submitter = University of Tokyo Team (Faculty of Engineering, University of Tokyo)
MoNA Rating=3.75

>  <NUM PEAKS>  (1235) 
48

>  <MASS SPECTRAL PEAKS>  (1235) 
14 3
15 11.49
26 3
27 11.98
28 1.97
29 14.83
31 3.02
42 1.9
43 22.51
45 18.71
46 1.17
47 1.18
58 5.64
59 4.08
60 2.19
61 12.98
62 3.11
63 4.56
73 4.9
74 2.27
75 1.82
76 1.84
77 31.17
78 2.03
79 8.81
81 1.44
88 1.81
89 14.62
90 1.73
91 6.16
103 3.37
105 13.36
106 1.17
107 5.49
117 2.27
119 44.7
120 4.31
121 2.5
133 53.63
134 5.82
135 7.99
149 6.56
163 99.99
164 12.02
165 4.6
177 2.83
178 7.52
179 1.54

$$$$

     RDKit          2D

  9  8  0  0  0  0  0  0  0  0999 V2000
    0.9926    2.4721    0.0000 C   0  0  0  0  0  0  0  0  0  0  0  0
   -4.2035    2.4721    0.0000 C   0  0  0  0  0  0  0  0  0  0  0  0
   -4.0469    1.5836    0.0000 C   0  0  0  0  0  0  0  0  0  0  0  0
    0.8359    1.5836    0.0000 C   0  0  0  0  0  0  0  0  0  0  0  0
   -0.3064    3.2221    0.0000 O   0  0  0  0  0  0  0  0  0  0  0  0
   -2.9045    3.2221    0.0000 O   0  0  0  0  0  0  0  0  0  0  0  0
   -2.5697    1.3231    0.0000 O   0  0  0  0  0  0  0  0  0  0  0  0
   -0.6413    1.3231    0.0000 O   0  0  0  0  0  0  0  0  0  0  0  0
   -1.6055    2.4721    0.0000 Si  0  0  0  0  0  4  0  0  0  0  0  0
  5  1  1  0
  6  2  1  0
  7  3  1  0
  8  4  1  0
  9  5  1  0
  9  6  1  0
  9  7  1  0
  9  8  1  0
M  END
>  <NAME>  (1236) 
TETRAMETHOXYSILANE

>  <SYNONYMS>  (1236) 


>  <SPECTRUM TYPE>  (1236) 
MS1

>  <INSTRUMENT TYPE>  (1236) 
EI-B

>  <INSTRUMENT>  (1236) 
HITACHI M-80A

>  <ION MODE>  (1236) 
P

>  <INCHIKEY>  (1236) 
LFQCEHFDDXELDD-UHFFFAOYSA-N

>  <FORMULA>  (1236) 
C4H12O4Si

>  <EXACT MASS>  (1236) 
152.05048539400002

>  <MW>  (1236) 
152

>  <ID>  (1236) 
JP010346

>  <CONTRIBUTOR>  (1236) 
University of Tokyo Team, {Faculty of Engineering, University of Tokyo

>  <COMMENT>  (1236) 
SMILES=CO[Si](OC)(OC)OC
InChI=InChI=1S/C4H12O4Si/c1-5-9(6-2,7-3)8-4/h1-4H3
computed SMILES=O(C)[Si](OC)(OC)OC
accession=JP010346
date=2016.01.19 (Created 2008.10.21, modified 2011.05.06)
author=TAJIMA S, GUNMA COLLEGE OF TECHNOLOGY
license=CC BY-NC-SA
exact mass=152.05049
ionization energy=70 eV
ion type=[M]+*
computed spectral entropy=2.7811467350801906
computed normalized entropy=0.7886733973075296
SPLASH=splash10-0fkc-7900000000-d0c05066b8f1e0511f88
submitter=submitter = University of Tokyo Team (Faculty of Engineering, University of Tokyo)
MoNA Rating=3.75

>  <NUM PEAKS>  (1236) 
34

>  <MASS SPECTRAL PEAKS>  (1236) 
14 3.54
15 14.66
29 10.87
30 1.54
31 4.73
45 10.69
46 1.83
47 6.34
58 1.47
59 17.22
60 6.39
61 12.82
62 1.46
63 1.6
68 1.56
75 4.72
76 3.99
77 8.41
90 29.42
91 45.42
92 4.42
93 2.13
105 1.73
107 15.85
108 1.23
120 5.8
121 99.99
122 9.46
123 4.38
137 9.58
151 11.48
152 74.67
153 9.28
154 3.55

$$$$

     RDKit          2D

 13 12  0  0  0  0  0  0  0  0999 V2000
    3.0227    2.4827    0.0000 C   0  0  0  0  0  0  0  0  0  0  0  0
   -4.7716    2.4827    0.0000 C   0  0  0  0  0  0  0  0  0  0  0  0
    0.5409    6.9404    0.0000 C   0  0  0  0  0  0  0  0  0  0  0  0
   -4.2800    5.2704    0.0000 C   0  0  0  0  0  0  0  0  0  0  0  0
    1.7236    3.2327    0.0000 C   0  0  0  0  0  0  0  0  0  0  0  0
   -3.4725    3.2327    0.0000 C   0  0  0  0  0  0  0  0  0  0  0  0
   -0.4233    5.7913    0.0000 C   0  0  0  0  0  0  0  0  0  0  0  0
   -3.3158    4.1213    0.0000 C   0  0  0  0  0  0  0  0  0  0  0  0
    0.4246    2.4827    0.0000 O   0  0  0  0  0  0  0  0  0  0  0  0
   -2.1735    2.4827    0.0000 O   0  0  0  0  0  0  0  0  0  0  0  0
    0.0897    4.3818    0.0000 O   0  0  0  0  0  0  0  0  0  0  0  0
   -1.8386    4.3818    0.0000 O   0  0  0  0  0  0  0  0  0  0  0  0
   -0.8744    3.2327    0.0000 Si  0  0  0  0  0  4  0  0  0  0  0  0
  5  1  1  0
  6  2  1  0
  7  3  1  0
  8  4  1  0
  9  5  1  0
 10  6  1  0
 11  7  1  0
 12  8  1  0
 13  9  1  0
 13 10  1  0
 13 11  1  0
 13 12  1  0
M  END
>  <NAME>  (1237) 
TETRAETHOXYSILANE

>  <SYNONYMS>  (1237) 


>  <SPECTRUM TYPE>  (1237) 
MS1

>  <INSTRUMENT TYPE>  (1237) 
EI-B

>  <INSTRUMENT>  (1237) 
HITACHI M-80A

>  <ION MODE>  (1237) 
P

>  <INCHIKEY>  (1237) 
BOTDANWDWHJENH-UHFFFAOYSA-N

>  <FORMULA>  (1237) 
C8H20O4Si

>  <EXACT MASS>  (1237) 
208.11308565000002

>  <MW>  (1237) 
208

>  <ID>  (1237) 
JP010345

>  <CONTRIBUTOR>  (1237) 
University of Tokyo Team, {Faculty of Engineering, University of Tokyo

>  <COMMENT>  (1237) 
SMILES=CCO[Si](OCC)(OCC)OCC
InChI=InChI=1S/C8H20O4Si/c1-5-9-13(10-6-2,11-7-3)12-8-4/h5-8H2,1-4H3
computed SMILES=O(CC)[Si](OCC)(OCC)OCC
accession=JP010345
date=2016.01.19 (Created 2008.10.21, modified 2011.05.06)
author=TAJIMA S, GUNMA COLLEGE OF TECHNOLOGY
license=CC BY-NC-SA
exact mass=208.11309
ionization energy=70 eV
ion type=[M]+*
computed spectral entropy=3.3311235306797373
computed normalized entropy=0.8203842590642502
SPLASH=splash10-01r7-4900000000-39009b2853c85f871d6d
submitter=submitter = University of Tokyo Team (Faculty of Engineering, University of Tokyo)
MoNA Rating=3.75

>  <NUM PEAKS>  (1237) 
58

>  <MASS SPECTRAL PEAKS>  (1237) 
14 2.96
15 10.52
26 3.32
27 14.4
28 2.86
29 25.55
31 1.9
42 1.81
43 23.98
45 12.15
47 1.02
58 6.16
61 2.19
62 8.36
63 18.81
64 1.26
73 2.29
75 2.17
77 3.51
79 35.97
80 1.92
81 1.7
82 2.06
89 4.1
90 2.44
91 9.66
93 3.51
103 2.42
105 6.87
107 10.61
117 1.18
118 1.5
119 25.02
120 2.52
121 5.03
123 3.64
133 2.56
135 17.44
136 1.76
137 2.74
147 1.67
149 71.16
150 7.69
151 7.17
163 44.87
164 5.4
165 7.51
177 1.2
179 29.57
180 4.57
181 2.12
193 99.99
194 13.17
195 5
207 8.38
208 25.47
209 5.52
210 1.48

$$$$

     RDKit          2D

 17 18  0  0  0  0  0  0  0  0999 V2000
    3.8981    0.7504    0.0000 C   0  0  0  0  0  0  0  0  0  0  0  0
   -7.7948   -3.0010    0.0000 C   0  0  0  0  0  0  0  0  0  0  0  0
   -6.4952   -3.7517    0.0000 C   0  0  0  0  0  0  0  0  0  0  0  0
   -7.7956   -1.5002    0.0000 C   0  0  0  0  0  0  0  0  0  0  0  0
   -5.1963   -3.0015    0.0000 C   0  0  0  0  0  0  0  0  0  0  0  0
   -6.4966   -0.7500    0.0000 C   0  0  0  0  0  0  0  0  0  0  0  0
   -1.3000    0.7500    0.0000 C   0  0  0  0  0  0  0  0  0  0  0  0
    0.0000   -1.5000    0.0000 C   0  0  0  0  0  0  0  0  0  0  0  0
    0.0000    1.5000    0.0000 C   0  0  0  0  0  0  0  0  0  0  0  0
    1.3000   -0.7500    0.0000 C   0  0  0  0  0  0  0  0  0  0  0  0
   -5.1970   -1.5006    0.0000 C   0  0  0  0  0  0  0  0  0  0  0  0
   -1.3000   -0.7500    0.0000 C   0  0  0  0  0  0  0  0  0  0  0  0
    1.3000    0.7500    0.0000 C   0  0  0  0  0  0  0  0  0  0  0  0
   -3.8981   -0.7504    0.0000 C   0  0  0  0  0  0  0  0  0  0  0  0
   -2.5989   -1.5002    0.0000 N   0  0  0  0  0  0  0  0  0  0  0  0
   -3.8983    0.7496    0.0000 O   0  0  0  0  0  0  0  0  0  0  0  0
    2.5989    1.5002    0.0000 O   0  0  0  0  0  0  0  0  0  0  0  0
  3  2  2  0
  4  2  1  0
  5  3  1  0
  6  4  2  0
  9  7  2  0
 10  8  1  0
 11  5  2  0
 11  6  1  0
 12  7  1  0
 12  8  2  0
 13  9  1  0
 13 10  2  0
 14 11  1  0
 15 12  1  0
 15 14  1  0
 16 14  2  0
 17  1  1  0
 17 13  1  0
M  END
>  <NAME>  (1238) 
N-BENZOYL-PARA-ANISIDINE

>  <SYNONYMS>  (1238) 
4-METHOXY-N-BENZOYLANILINE

>  <SPECTRUM TYPE>  (1238) 
MS1

>  <INSTRUMENT TYPE>  (1238) 
EI-B

>  <INSTRUMENT>  (1238) 
HITACHI M-80A

>  <ION MODE>  (1238) 
P

>  <INCHIKEY>  (1238) 
KEEBHMMBUBEEOV-UHFFFAOYSA-N

>  <FORMULA>  (1238) 
C14H13NO2

>  <EXACT MASS>  (1238) 
227.094628656

>  <MW>  (1238) 
227

>  <ID>  (1238) 
JP010344

>  <CONTRIBUTOR>  (1238) 
University of Tokyo Team, {Faculty of Engineering, University of Tokyo

>  <COMMENT>  (1238) 
SMILES=COc(c2)ccc(c2)NC(=O)c(c1)cccc1
InChI=InChI=1S/C14H13NO2/c1-17-13-9-7-12(8-10-13)15-14(16)11-5-3-2-4-6-11/h2-10H,1H3,(H,15,16)
computed SMILES=O=C(NC1=CC=C(OC)C=C1)C=2C=CC=CC2
accession=JP010344
date=2016.01.19 (Created 2008.10.21, modified 2011.05.06)
author=TAJIMA S, GUNMA COLLEGE OF TECHNOLOGY
license=CC BY-NC-SA
exact mass=227.09463
ionization energy=70 eV
ion type=[M]+*
computed spectral entropy=2.050522524218391
computed normalized entropy=0.645213276325748
SPLASH=splash10-0a6r-6950000000-3c529ae2c5c42d7662c6
submitter=submitter = University of Tokyo Team (Faculty of Engineering, University of Tokyo)
MoNA Rating=3.75

>  <NUM PEAKS>  (1238) 
24

>  <MASS SPECTRAL PEAKS>  (1238) 
15 1.66
27 1.34
39 1.94
41 2.5
50 3.43
51 10.92
52 5.16
53 3.02
63 1.61
64 1.25
65 1.35
76 1.57
77 35.45
78 3.69
79 1.44
80 1.6
95 3.47
105 99.99
106 8.2
107 1.13
122 1.35
124 2.42
227 53.8
228 9.12

$$$$

     RDKit          2D

 11 12  0  0  0  0  0  0  0  0999 V2000
   -2.6000    0.7500    0.0000 C   0  0  0  0  0  0  0  0  0  0  0  0
    2.6000    0.7500    0.0000 C   0  0  0  0  0  0  0  0  0  0  0  0
   -1.3000    1.5000    0.0000 C   0  0  0  0  0  0  0  0  0  0  0  0
    1.3000    1.5000    0.0000 C   0  0  0  0  0  0  0  0  0  0  0  0
   -2.6000   -0.7500    0.0000 C   0  0  0  0  0  0  0  0  0  0  0  0
    2.6000   -0.7500    0.0000 C   0  0  0  0  0  0  0  0  0  0  0  0
   -0.0000    0.7500    0.0000 C   0  0  0  0  0  0  0  0  0  0  0  0
   -1.3000   -1.5000    0.0000 C   0  0  0  0  0  0  0  0  0  0  0  0
   -0.0000   -0.7500    0.0000 C   0  0  0  0  0  0  0  0  0  0  0  0
    1.3000   -1.5000    0.0000 N   0  0  0  0  0  0  0  0  0  0  0  0
   -1.3000   -3.0000    0.0000 O   0  0  0  0  0  0  0  0  0  0  0  0
  3  1  2  0
  4  2  1  0
  5  1  1  0
  6  2  2  0
  7  3  1  0
  7  4  2  0
  8  5  2  0
  9  7  1  0
  9  8  1  0
 10  6  1  0
 10  9  2  0
 11  8  1  0
M  END
>  <NAME>  (1239) 
8-HYDROXYQUINOLINE

>  <SYNONYMS>  (1239) 


>  <SPECTRUM TYPE>  (1239) 
MS1

>  <INSTRUMENT TYPE>  (1239) 
EI-B

>  <INSTRUMENT>  (1239) 
HITACHI M-80A

>  <ION MODE>  (1239) 
P

>  <INCHIKEY>  (1239) 
MCJGNVYPOGVAJF-UHFFFAOYSA-N

>  <FORMULA>  (1239) 
C9H7NO

>  <EXACT MASS>  (1239) 
145.052763844

>  <MW>  (1239) 
145

>  <ID>  (1239) 
JP010343

>  <CONTRIBUTOR>  (1239) 
University of Tokyo Team, {Faculty of Engineering, University of Tokyo

>  <COMMENT>  (1239) 
SMILES=Oc(c1)c(n2)c(ccc2)cc1
InChI=InChI=1S/C9H7NO/c11-8-5-1-3-7-4-2-6-10-9(7)8/h1-6,11H
computed SMILES=OC=1C=CC=C2C=CC=NC12
accession=JP010343
date=2016.01.19 (Created 2008.10.21, modified 2011.05.06)
author=TAJIMA S, GUNMA COLLEGE OF TECHNOLOGY
license=CC BY-NC-SA
exact mass=145.05276
ionization energy=70 eV
ion type=[M]+*
computed spectral entropy=2.815312817661698
computed normalized entropy=0.7631891615547335
SPLASH=splash10-00kb-8900000000-9f44d33e560065cf0670
submitter=submitter = University of Tokyo Team (Faculty of Engineering, University of Tokyo)
MoNA Rating=3.75

>  <NUM PEAKS>  (1239) 
40

>  <MASS SPECTRAL PEAKS>  (1239) 
26 4.24
27 3.93
28 5.58
29 2.51
37 4.42
38 8.12
39 15.63
40 2.09
41 1.58
49 1.61
50 7.21
51 7.39
52 4.26
53 2.47
57 1.08
58 8.34
61 3.78
62 9.12
63 20.33
64 7.46
65 2.45
66 1
72 1.19
74 2.53
75 2.67
77 1.67
78 2.31
86 1.53
87 2.39
88 2.77
89 22.97
90 21.53
91 3.23
115 1.2
116 9.01
117 69.41
118 6.49
144 1.44
145 99.99
146 12.1

$$$$

     RDKit          2D

 16 17  0  0  0  0  0  0  0  0999 V2000
    6.1804    0.9239    0.0000 C   0  0  0  0  0  0  0  0  0  0  0  0
   -4.2301    0.9471    0.0000 C   0  0  0  0  0  0  0  0  0  0  0  0
   -2.9343    0.1899    0.0000 C   0  0  0  0  0  0  0  0  0  0  0  0
   -4.2232    2.4479    0.0000 C   0  0  0  0  0  0  0  0  0  0  0  0
   -1.6316    0.9334    0.0000 C   0  0  0  0  0  0  0  0  0  0  0  0
   -2.9205    3.1915    0.0000 C   0  0  0  0  0  0  0  0  0  0  0  0
    2.2724    3.1715    0.0000 C   0  0  0  0  0  0  0  0  0  0  0  0
    0.9589    0.9466    0.0000 C   0  0  0  0  0  0  0  0  0  0  0  0
    3.5569    2.4466    0.0000 C   0  0  0  0  0  0  0  0  0  0  0  0
    2.2834    0.1525    0.0000 C   0  0  0  0  0  0  0  0  0  0  0  0
   -1.6247    2.4343    0.0000 C   0  0  0  0  0  0  0  0  0  0  0  0
    0.9734    2.4215    0.0000 C   0  0  0  0  0  0  0  0  0  0  0  0
    3.5824    0.9025    0.0000 C   0  0  0  0  0  0  0  0  0  0  0  0
   -0.3220    3.1779    0.0000 C   0  0  0  0  0  0  0  0  0  0  0  0
   -0.3146    4.6778    0.0000 O   0  0  0  0  0  0  0  0  0  0  0  0
    4.8876    0.1632    0.0000 O   0  0  0  0  0  0  0  0  0  0  0  0
  3  2  2  0
  4  2  1  0
  5  3  1  0
  6  4  2  0
  9  7  2  0
 10  8  1  0
 11  5  2  0
 11  6  1  0
 12  7  1  0
 12  8  2  0
 13  9  1  0
 13 10  2  0
 14 11  1  0
 14 12  1  0
 15 14  2  0
 16  1  1  0
 16 13  1  0
M  END
>  <NAME>  (1240) 
PARA-METHOXYBENZOPHENONE

>  <SYNONYMS>  (1240) 
4-METHOXYPHENYL PHENYL KETONE

>  <SPECTRUM TYPE>  (1240) 
MS1

>  <INSTRUMENT TYPE>  (1240) 
EI-B

>  <INSTRUMENT>  (1240) 
HITACHI M-80A

>  <ION MODE>  (1240) 
P

>  <INCHIKEY>  (1240) 
SWFHGTMLYIBPPA-UHFFFAOYSA-N

>  <FORMULA>  (1240) 
C14H12O2

>  <EXACT MASS>  (1240) 
212.083729624

>  <MW>  (1240) 
212

>  <ID>  (1240) 
JP010342

>  <CONTRIBUTOR>  (1240) 
University of Tokyo Team, {Faculty of Engineering, University of Tokyo

>  <COMMENT>  (1240) 
SMILES=COc(c2)ccc(c2)C(=O)c(c1)cccc1
InChI=InChI=1S/C14H12O2/c1-16-13-9-7-12(8-10-13)14(15)11-5-3-2-4-6-11/h2-10H,1H3
computed SMILES=O=C(C=1C=CC=CC1)C2=CC=C(OC)C=C2
accession=JP010342
date=2016.01.19 (Created 2008.10.21, modified 2011.05.06)
author=TAJIMA S, GUNMA COLLEGE OF TECHNOLOGY
license=CC BY-NC-SA
exact mass=212.08373
ionization energy=70 eV
ion type=[M]+*
computed spectral entropy=2.1990185216135596
computed normalized entropy=0.6672109728172059
SPLASH=splash10-01p9-2950000000-eedc3755f2ac91f131a9
submitter=submitter = University of Tokyo Team (Faculty of Engineering, University of Tokyo)
MoNA Rating=3.75

>  <NUM PEAKS>  (1240) 
27

>  <MASS SPECTRAL PEAKS>  (1240) 
15 2
39 1.75
50 2.02
51 5.27
63 5.55
64 2.91
76 1.28
77 13.25
78 1.06
92 7.67
105 21.43
106 1.73
107 1.19
115 1.74
121 1.96
135 99.99
136 8.95
139 1.63
141 2.18
152 1.03
169 2.02
181 1.06
184 1.28
211 1.04
212 56.47
213 29.3
214 4.15

$$$$

     RDKit          2D

 16 17  0  0  0  0  0  0  0  0999 V2000
    3.8971    1.0700    0.0000 C   0  0  0  0  0  0  0  0  0  0  0  0
   -5.1962    4.8200    0.0000 C   0  0  0  0  0  0  0  0  0  0  0  0
    3.8976    2.5708    0.0000 C   0  0  0  0  0  0  0  0  0  0  0  0
    2.5976    0.3192    0.0000 C   0  0  0  0  0  0  0  0  0  0  0  0
   -5.1966    3.3192    0.0000 C   0  0  0  0  0  0  0  0  0  0  0  0
   -3.8966    5.5708    0.0000 C   0  0  0  0  0  0  0  0  0  0  0  0
    2.5986    3.3208    0.0000 C   0  0  0  0  0  0  0  0  0  0  0  0
    1.2986    1.0692    0.0000 C   0  0  0  0  0  0  0  0  0  0  0  0
   -3.8976    2.5692    0.0000 C   0  0  0  0  0  0  0  0  0  0  0  0
   -2.5976    4.8208    0.0000 C   0  0  0  0  0  0  0  0  0  0  0  0
    1.2990    2.5700    0.0000 C   0  0  0  0  0  0  0  0  0  0  0  0
   -2.5981    3.3200    0.0000 C   0  0  0  0  0  0  0  0  0  0  0  0
    0.0000    3.3200    0.0000 C   0  0  0  0  0  0  0  0  0  0  0  0
   -1.2990    2.5700    0.0000 C   0  0  0  0  0  0  0  0  0  0  0  0
    0.0000    4.8200    0.0000 O   0  0  0  0  0  0  0  0  0  0  0  0
   -1.2990    1.0700    0.0000 O   0  0  0  0  0  0  0  0  0  0  0  0
  3  1  2  0
  4  1  1  0
  5  2  2  0
  6  2  1  0
  7  3  1  0
  8  4  2  0
  9  5  1  0
 10  6  2  0
 11  7  2  0
 11  8  1  0
 12  9  2  0
 12 10  1  0
 13 11  1  0
 14 12  1  0
 14 13  1  0
 15 13  2  0
 16 14  2  0
M  END
>  <NAME>  (1241) 
DIBENZOYL

>  <SYNONYMS>  (1241) 


>  <SPECTRUM TYPE>  (1241) 
MS1

>  <INSTRUMENT TYPE>  (1241) 
EI-B

>  <INSTRUMENT>  (1241) 
HITACHI M-80A

>  <ION MODE>  (1241) 
P

>  <INCHIKEY>  (1241) 
WURBFLDFSFBTLW-UHFFFAOYSA-N

>  <FORMULA>  (1241) 
C14H10O2

>  <EXACT MASS>  (1241) 
210.06807956

>  <MW>  (1241) 
210

>  <ID>  (1241) 
JP010341

>  <CONTRIBUTOR>  (1241) 
University of Tokyo Team, {Faculty of Engineering, University of Tokyo

>  <COMMENT>  (1241) 
SMILES=c(c2)ccc(c2)C(=O)C(=O)c(c1)cccc1
InChI=InChI=1S/C14H10O2/c15-13(11-7-3-1-4-8-11)14(16)12-9-5-2-6-10-12/h1-10H
computed SMILES=O=C(C=1C=CC=CC1)C(=O)C=2C=CC=CC2
accession=JP010341
date=2016.01.19 (Created 2008.10.21, modified 2011.05.06)
author=TAJIMA S, GUNMA COLLEGE OF TECHNOLOGY
license=CC BY-NC-SA
exact mass=210.06808
ionization energy=70 eV
ion type=[M]+*
computed spectral entropy=1.5797850301291605
computed normalized entropy=0.5833662276593574
SPLASH=splash10-0a4i-6900000000-034b4bb7e3dd50be8f80
submitter=submitter = University of Tokyo Team (Faculty of Engineering, University of Tokyo)
MoNA Rating=3.75

>  <NUM PEAKS>  (1241) 
15

>  <MASS SPECTRAL PEAKS>  (1241) 
27 1.52
28 3.14
39 1.35
50 6.27
51 19.38
52 1.04
74 1.71
75 1.23
76 1.69
77 38.23
78 3.23
105 99.99
106 7.75
210 2.53
211 1.11

$$$$

     RDKit          2D

 11 11  0  0  0  0  0  0  0  0999 V2000
   -3.2546   -0.3812    0.0000 C   0  0  0  0  0  0  0  0  0  0  0  0
    0.6471   -2.6191    0.0000 C   0  0  0  0  0  0  0  0  0  0  0  0
    1.9416   -1.8769    0.0000 C   0  0  0  0  0  0  0  0  0  0  0  0
   -0.6520   -1.8691    0.0000 C   0  0  0  0  0  0  0  0  0  0  0  0
    0.6430    0.3740    0.0000 C   0  0  0  0  0  0  0  0  0  0  0  0
    1.9421   -0.3760    0.0000 C   0  0  0  0  0  0  0  0  0  0  0  0
   -0.6565   -0.3769    0.0000 C   0  0  0  0  0  0  0  0  0  0  0  0
    3.2412    0.3737    0.0000 C   0  0  0  0  0  0  0  0  0  0  0  0
    3.2415    1.8737    0.0000 O   0  0  0  0  0  0  0  0  0  0  0  0
    4.5401   -0.3765    0.0000 O   0  0  0  0  0  0  0  0  0  0  0  0
   -1.9568    0.3709    0.0000 O   0  0  0  0  0  0  0  0  0  0  0  0
  3  2  2  0
  4  2  1  0
  6  3  1  0
  6  5  2  0
  7  4  2  0
  7  5  1  0
  8  6  1  0
  9  8  2  0
 10  8  1  0
 11  1  1  0
 11  7  1  0
M  END
>  <NAME>  (1242) 
META-METHOXYBENZOIC ACID

>  <SYNONYMS>  (1242) 
META-ANISIC ACID

>  <SPECTRUM TYPE>  (1242) 
MS1

>  <INSTRUMENT TYPE>  (1242) 
EI-B

>  <INSTRUMENT>  (1242) 
HITACHI M-80A

>  <ION MODE>  (1242) 
P

>  <INCHIKEY>  (1242) 
XHQZJYCNDZAGLW-UHFFFAOYSA-N

>  <FORMULA>  (1242) 
C8H8O3

>  <EXACT MASS>  (1242) 
152.04734411599998

>  <MW>  (1242) 
152

>  <ID>  (1242) 
JP010340

>  <CONTRIBUTOR>  (1242) 
University of Tokyo Team, {Faculty of Engineering, University of Tokyo

>  <COMMENT>  (1242) 
SMILES=COc(c1)cc(cc1)C(O)=O
InChI=InChI=1S/C8H8O3/c1-11-7-4-2-3-6(5-7)8(9)10/h2-5H,1H3,(H,9,10)
computed SMILES=O=C(O)C=1C=CC=C(OC)C1
accession=JP010340
date=2016.01.19 (Created 2008.10.21, modified 2011.05.06)
author=TAJIMA S, GUNMA COLLEGE OF TECHNOLOGY
license=CC BY-NC-SA
exact mass=152.04734
ionization energy=70 eV
ion type=[M]+*
computed spectral entropy=2.391114306194376
computed normalized entropy=0.6963084495688658
SPLASH=splash10-0udi-3900000000-7661c4fb763d3d32a93a
submitter=submitter = University of Tokyo Team (Faculty of Engineering, University of Tokyo)
MoNA Rating=3.75

>  <NUM PEAKS>  (1242) 
31

>  <MASS SPECTRAL PEAKS>  (1242) 
15 5.23
27 1.78
29 2.06
38 2.53
39 6.43
45 3.95
50 2.56
51 2.25
53 4.84
62 1.89
63 14.13
64 4.88
65 6.53
76 1
77 3.72
79 1.24
81 3.38
92 9.46
93 1.22
105 4.99
107 3.97
108 1.23
109 3.57
121 1.14
135 51.59
136 4.61
137 1.1
151 1.13
152 99.99
153 17.3
154 1.75

$$$$

     RDKit          2D

 10 10  0  0  0  0  0  0  0  0999 V2000
    3.2480   -0.3742    0.0000 C   0  0  0  0  0  0  0  0  0  0  0  0
    3.2475   -1.8751    0.0000 C   0  0  0  0  0  0  0  0  0  0  0  0
    1.9489    0.3758    0.0000 C   0  0  0  0  0  0  0  0  0  0  0  0
    1.9480   -2.6259    0.0000 C   0  0  0  0  0  0  0  0  0  0  0  0
    0.6494   -0.3751    0.0000 C   0  0  0  0  0  0  0  0  0  0  0  0
    0.6489   -1.8759    0.0000 C   0  0  0  0  0  0  0  0  0  0  0  0
   -0.6496    0.3749    0.0000 C   0  0  0  0  0  0  0  0  0  0  0  0
   -0.6502   -2.6257    0.0000 Br  0  0  0  0  0  0  0  0  0  0  0  0
   -1.9486   -0.3751    0.0000 O   0  0  0  0  0  0  0  0  0  0  0  0
   -0.6496    1.8749    0.0000 O   0  0  0  0  0  0  0  0  0  0  0  0
  2  1  2  0
  3  1  1  0
  4  2  1  0
  5  3  2  0
  6  4  2  0
  6  5  1  0
  7  5  1  0
  8  6  1  0
  9  7  2  0
 10  7  1  0
M  END
>  <NAME>  (1243) 
ORTHO-BROMOBENZOIC ACID

>  <SYNONYMS>  (1243) 
2-BROMOBENZOIC ACID

>  <SPECTRUM TYPE>  (1243) 
MS1

>  <INSTRUMENT TYPE>  (1243) 
EI-B

>  <INSTRUMENT>  (1243) 
HITACHI M-80A

>  <ION MODE>  (1243) 
P

>  <INCHIKEY>  (1243) 
XRXMNWGCKISMOH-UHFFFAOYSA-N

>  <FORMULA>  (1243) 
C7H5BrO2

>  <EXACT MASS>  (1243) 
199.9472915

>  <MW>  (1243) 
200

>  <ID>  (1243) 
JP010339

>  <CONTRIBUTOR>  (1243) 
University of Tokyo Team, {Faculty of Engineering, University of Tokyo

>  <COMMENT>  (1243) 
SMILES=OC(=O)c(c1)c(Br)ccc1
cas=88-65-3
InChI=InChI=1S/C7H5BrO2/c8-6-4-2-1-3-5(6)7(9)10/h1-4H,(H,9,10)
computed SMILES=O=C(O)C=1C=CC=CC1Br
accession=JP010339
date=2016.01.19 (Created 2008.10.21, modified 2011.05.06)
author=TAJIMA S, GUNMA COLLEGE OF TECHNOLOGY
license=CC BY-NC-SA
exact mass=199.94729
ionization energy=70 eV
ion type=[M]+*
computed spectral entropy=3.247164952555823
computed normalized entropy=0.8066785717207217
SPLASH=splash10-0udi-9430000000-7c515a6fcedea63a4731
submitter=submitter = University of Tokyo Team (Faculty of Engineering, University of Tokyo)
MoNA Rating=3.75

>  <NUM PEAKS>  (1243) 
56

>  <MASS SPECTRAL PEAKS>  (1243) 
25 1.45
26 4.93
27 5.16
29 3.67
36 2.09
37 16.23
38 21.72
39 25.83
44 3.09
45 27.71
48 1.24
49 11.3
50 77
51 29.21
52 2.49
53 6.06
60 1.49
61 3.88
62 3.53
63 7.02
64 5.79
65 31.83
66 2.95
73 9.13
74 36.87
75 47.75
76 52.6
77 26.94
78 3.08
79 5.64
80 2.13
81 5.49
82 2.07
92 5.14
93 3.63
104 2.27
121 2.37
128 1.03
129 1.42
130 1
131 1.53
139 1.53
155 26.36
156 3.7
157 25.56
158 2.41
172 2.17
174 2.03
183 78.68
184 6.39
185 76.47
186 5.91
200 99.99
201 8.63
202 97.26
203 8.29

$$$$

     RDKit          2D

 10 10  0  0  0  0  0  0  0  0999 V2000
    3.2480   -0.3742    0.0000 C   0  0  0  0  0  0  0  0  0  0  0  0
    3.2475   -1.8751    0.0000 C   0  0  0  0  0  0  0  0  0  0  0  0
    1.9489    0.3758    0.0000 C   0  0  0  0  0  0  0  0  0  0  0  0
    1.9480   -2.6259    0.0000 C   0  0  0  0  0  0  0  0  0  0  0  0
    0.6494   -0.3751    0.0000 C   0  0  0  0  0  0  0  0  0  0  0  0
    0.6489   -1.8759    0.0000 C   0  0  0  0  0  0  0  0  0  0  0  0
   -0.6496    0.3749    0.0000 C   0  0  0  0  0  0  0  0  0  0  0  0
   -0.6502   -2.6257    0.0000 I   0  0  0  0  0  0  0  0  0  0  0  0
   -1.9486   -0.3751    0.0000 O   0  0  0  0  0  0  0  0  0  0  0  0
   -0.6496    1.8749    0.0000 O   0  0  0  0  0  0  0  0  0  0  0  0
  2  1  2  0
  3  1  1  0
  4  2  1  0
  5  3  2  0
  6  4  2  0
  6  5  1  0
  7  5  1  0
  8  6  1  0
  9  7  2  0
 10  7  1  0
M  END
>  <NAME>  (1244) 
ORTHO-IODOBENZOIC ACID

>  <SYNONYMS>  (1244) 
2-IODOBENZOIC ACID

>  <SPECTRUM TYPE>  (1244) 
MS1

>  <INSTRUMENT TYPE>  (1244) 
EI-B

>  <INSTRUMENT>  (1244) 
HITACHI M-80A

>  <ION MODE>  (1244) 
P

>  <INCHIKEY>  (1244) 
CJNZAXGUTKBIHP-UHFFFAOYSA-N

>  <FORMULA>  (1244) 
C7H5IO2

>  <EXACT MASS>  (1244) 
247.9334274

>  <MW>  (1244) 
248

>  <ID>  (1244) 
JP010338

>  <CONTRIBUTOR>  (1244) 
University of Tokyo Team, {Faculty of Engineering, University of Tokyo

>  <COMMENT>  (1244) 
SMILES=OC(=O)c(c1)c(I)ccc1
cas=88-67-5
InChI=InChI=1S/C7H5IO2/c8-6-4-2-1-3-5(6)7(9)10/h1-4H,(H,9,10)
computed SMILES=O=C(O)C=1C=CC=CC1I
accession=JP010338
date=2016.01.19 (Created 2008.10.21, modified 2011.05.06)
author=TAJIMA S, GUNMA COLLEGE OF TECHNOLOGY
license=CC BY-NC-SA
exact mass=247.93342
ionization energy=70 eV
ion type=[M]+*
computed spectral entropy=2.5809997240293603
computed normalized entropy=0.7516043509592304
SPLASH=splash10-0002-7090000000-f67078fe9cfb77872338
submitter=submitter = University of Tokyo Team (Faculty of Engineering, University of Tokyo)
MoNA Rating=3.75

>  <NUM PEAKS>  (1244) 
31

>  <MASS SPECTRAL PEAKS>  (1244) 
27 1.36
28 2.4
37 2.37
38 2.58
39 12.99
45 4.32
49 2.06
50 18.62
51 8.69
53 2.41
63 2.59
64 1.76
65 32.14
66 2.13
73 1.68
74 7.47
75 7.2
76 15.86
77 4.86
78 1.1
92 2.81
93 4.42
104 1.99
121 5.85
127 5.93
138 1.66
203 5.36
231 49.44
232 3.84
248 99.99
249 10.31

$$$$

     RDKit          2D

 10 10  0  0  0  0  0  0  0  0999 V2000
   -1.3000    0.7500    0.0000 C   0  0  0  0  0  0  0  0  0  0  0  0
    0.0000    1.5000    0.0000 C   0  0  0  0  0  0  0  0  0  0  0  0
   -1.3000   -0.7500    0.0000 C   0  0  0  0  0  0  0  0  0  0  0  0
    1.3000   -0.7500    0.0000 C   0  0  0  0  0  0  0  0  0  0  0  0
    1.3000    0.7500    0.0000 C   0  0  0  0  0  0  0  0  0  0  0  0
    0.0000   -1.5000    0.0000 C   0  0  0  0  0  0  0  0  0  0  0  0
    2.5989    1.5002    0.0000 C   0  0  0  0  0  0  0  0  0  0  0  0
   -0.0000   -3.0000    0.0000 I   0  0  0  0  0  0  0  0  0  0  0  0
    3.8981    0.7504    0.0000 O   0  0  0  0  0  0  0  0  0  0  0  0
    2.5987    3.0002    0.0000 O   0  0  0  0  0  0  0  0  0  0  0  0
  2  1  2  0
  3  1  1  0
  5  2  1  0
  5  4  2  0
  6  3  2  0
  6  4  1  0
  7  5  1  0
  8  6  1  0
  9  7  2  0
 10  7  1  0
M  END
>  <NAME>  (1245) 
META-IODOBENZOIC ACID

>  <SYNONYMS>  (1245) 
3-IODOBENZOIC ACID

>  <SPECTRUM TYPE>  (1245) 
MS1

>  <INSTRUMENT TYPE>  (1245) 
EI-B

>  <INSTRUMENT>  (1245) 
HITACHI M-80A

>  <ION MODE>  (1245) 
P

>  <INCHIKEY>  (1245) 
KVBWBCRPWVKFQT-UHFFFAOYSA-N

>  <FORMULA>  (1245) 
C7H5IO2

>  <EXACT MASS>  (1245) 
247.9334274

>  <MW>  (1245) 
248

>  <ID>  (1245) 
JP010337

>  <CONTRIBUTOR>  (1245) 
University of Tokyo Team, {Faculty of Engineering, University of Tokyo

>  <COMMENT>  (1245) 
SMILES=OC(=O)c(c1)cc(I)cc1
InChI=InChI=1S/C7H5IO2/c8-6-3-1-2-5(4-6)7(9)10/h1-4H,(H,9,10)
computed SMILES=O=C(O)C=1C=CC=C(I)C1
accession=JP010337
date=2016.01.19 (Created 2008.10.21, modified 2011.05.06)
author=TAJIMA S, GUNMA COLLEGE OF TECHNOLOGY
license=CC BY-NC-SA
exact mass=247.93342
ionization energy=70 eV
ion type=[M]+*
computed spectral entropy=2.619097046646358
computed normalized entropy=0.7626985456514058
SPLASH=splash10-0002-9160000000-dd6a5dcb44a03db3959c
submitter=submitter = University of Tokyo Team (Faculty of Engineering, University of Tokyo)
MoNA Rating=3.75

>  <NUM PEAKS>  (1245) 
31

>  <MASS SPECTRAL PEAKS>  (1245) 
27 1.41
37 3.03
38 3.45
39 10.6
45 6.2
49 2.29
50 23.38
51 9.48
53 2.3
63 1.76
64 1.37
65 46.93
66 2.93
73 2.43
74 10.64
75 11.74
76 22.32
77 3.52
78 1.06
92 1.61
93 3.16
103 2.37
104 1.95
121 22.06
122 2.08
127 7.51
128 1.24
203 5
231 12.65
248 99.99
249 8.57

$$$$

     RDKit          2D

 10 10  0  0  0  0  0  0  0  0999 V2000
   -1.3000    0.7500    0.0000 C   0  0  0  0  0  0  0  0  0  0  0  0
    0.0000    1.5000    0.0000 C   0  0  0  0  0  0  0  0  0  0  0  0
   -1.3000   -0.7500    0.0000 C   0  0  0  0  0  0  0  0  0  0  0  0
    1.3000   -0.7500    0.0000 C   0  0  0  0  0  0  0  0  0  0  0  0
    1.3000    0.7500    0.0000 C   0  0  0  0  0  0  0  0  0  0  0  0
    0.0000   -1.5000    0.0000 C   0  0  0  0  0  0  0  0  0  0  0  0
    2.5989    1.5002    0.0000 C   0  0  0  0  0  0  0  0  0  0  0  0
   -0.0000   -3.0000    0.0000 Br  0  0  0  0  0  0  0  0  0  0  0  0
    3.8981    0.7504    0.0000 O   0  0  0  0  0  0  0  0  0  0  0  0
    2.5987    3.0002    0.0000 O   0  0  0  0  0  0  0  0  0  0  0  0
  2  1  2  0
  3  1  1  0
  5  2  1  0
  5  4  2  0
  6  3  2  0
  6  4  1  0
  7  5  1  0
  8  6  1  0
  9  7  2  0
 10  7  1  0
M  END
>  <NAME>  (1246) 
META-BROMOBENZOIC ACID

>  <SYNONYMS>  (1246) 


>  <SPECTRUM TYPE>  (1246) 
MS1

>  <INSTRUMENT TYPE>  (1246) 
EI-B

>  <INSTRUMENT>  (1246) 
HITACHI M-80A

>  <ION MODE>  (1246) 
P

>  <INCHIKEY>  (1246) 
VOIZNVUXCQLQHS-UHFFFAOYSA-N

>  <FORMULA>  (1246) 
C7H5BrO2

>  <EXACT MASS>  (1246) 
199.9472915

>  <MW>  (1246) 
200

>  <ID>  (1246) 
JP010336

>  <CONTRIBUTOR>  (1246) 
University of Tokyo Team, {Faculty of Engineering, University of Tokyo

>  <COMMENT>  (1246) 
SMILES=OC(=O)c(c1)cc(Br)cc1
InChI=InChI=1S/C7H5BrO2/c8-6-3-1-2-5(4-6)7(9)10/h1-4H,(H,9,10)
computed SMILES=O=C(O)C=1C=CC=C(Br)C1
accession=JP010336
date=2016.01.19 (Created 2008.10.21, modified 2011.05.06)
author=TAJIMA S, GUNMA COLLEGE OF TECHNOLOGY
license=CC BY-NC-SA
exact mass=199.94729
ionization energy=70 eV
ion type=[M]+*
computed spectral entropy=2.9723647394523502
computed normalized entropy=0.7598024692922387
SPLASH=splash10-0udi-8790000000-7bd36c2fa7f044095a6f
submitter=submitter = University of Tokyo Team (Faculty of Engineering, University of Tokyo)
MoNA Rating=3.75

>  <NUM PEAKS>  (1246) 
50

>  <MASS SPECTRAL PEAKS>  (1246) 
26 1.44
27 1.69
28 1.68
29 1.49
37 5.03
38 7.75
39 9.73
45 12.65
49 3.12
50 25.29
51 11.58
53 3.12
61 1.48
62 1.63
63 3.92
64 1.72
65 21.19
66 1.63
73 3.14
74 14.16
75 25.47
76 28.44
77 12.46
78 1.99
79 1.83
81 1.76
92 2.13
93 1.77
103 1.21
104 1.53
105 1.44
116 1.31
121 3.65
152 1.43
154 1.27
155 12.35
156 2.01
157 12.66
158 1.32
159 1.08
172 1.59
174 1.4
183 61.49
184 5.27
185 58.93
186 4.83
200 99.99
201 12.01
202 98.44
203 11.52

$$$$

     RDKit          2D

  6  5  0  0  0  0  0  0  0  0999 V2000
   -1.9486    3.3750    0.0000 C   0  0  0  0  0  0  0  0  0  0  0  0
   -0.6495    2.6250    0.0000 C   0  0  0  0  0  0  0  0  0  0  0  0
   -3.2476    2.6250    0.0000 C   0  0  0  0  0  0  0  0  0  0  0  0
    0.6495    3.3750    0.0000 C   0  0  0  0  0  0  0  0  0  0  0  0
   -4.5466    3.3750    0.0000 N   0  0  0  0  0  0  0  0  0  0  0  0
    1.9486    2.6250    0.0000 O   0  0  0  0  0  0  0  0  0  0  0  0
  2  1  1  0
  3  1  1  0
  4  2  1  0
  5  3  1  0
  6  4  1  0
M  END
>  <NAME>  (1247) 
4-AMINO-1-BUTANOL

>  <SYNONYMS>  (1247) 


>  <SPECTRUM TYPE>  (1247) 
MS1

>  <INSTRUMENT TYPE>  (1247) 
EI-B

>  <INSTRUMENT>  (1247) 
HITACHI M-80A

>  <ION MODE>  (1247) 
P

>  <INCHIKEY>  (1247) 
BLFRQYKZFKYQLO-UHFFFAOYSA-N

>  <FORMULA>  (1247) 
C4H11NO

>  <EXACT MASS>  (1247) 
89.08406397200001

>  <MW>  (1247) 
89

>  <ID>  (1247) 
JP010335

>  <CONTRIBUTOR>  (1247) 
University of Tokyo Team, {Faculty of Engineering, University of Tokyo

>  <COMMENT>  (1247) 
SMILES=NCCCCO
InChI=InChI=1S/C4H11NO/c5-3-1-2-4-6/h6H,1-5H2
computed SMILES=OCCCCN
accession=JP010335
date=2016.01.19 (Created 2008.10.21, modified 2011.05.06)
author=TAJIMA S, GUNMA COLLEGE OF TECHNOLOGY
license=CC BY-NC-SA
exact mass=89.08406
ionization energy=70 eV
ion type=[M]+*
computed spectral entropy=1.7896559656852788
computed normalized entropy=0.631670032699722
SPLASH=splash10-001i-9000000000-1124e12652002aa13c60
submitter=submitter = University of Tokyo Team (Faculty of Engineering, University of Tokyo)
MoNA Rating=3.75

>  <NUM PEAKS>  (1247) 
17

>  <MASS SPECTRAL PEAKS>  (1247) 
17 1.31
18 6.74
26 1.27
27 5.53
28 10.57
29 6.05
30 99.99
31 9.61
39 3.15
40 1.31
41 4.96
42 4.53
43 5.68
44 3.29
45 9.37
56 1.74
59 1

$$$$

     RDKit          2D

 10 10  0  0  0  0  0  0  0  0999 V2000
   -1.6200   -0.9400    0.0000 C   0  0  0  0  0  0  0  0  0  0  0  0
   -0.3300   -1.6900    0.0000 C   0  0  0  0  0  0  0  0  0  0  0  0
   -1.6200    0.5600    0.0000 C   0  0  0  0  0  0  0  0  0  0  0  0
    0.9700    0.5600    0.0000 C   0  0  0  0  0  0  0  0  0  0  0  0
    0.9700   -0.9400    0.0000 C   0  0  0  0  0  0  0  0  0  0  0  0
   -0.3300    1.3100    0.0000 C   0  0  0  0  0  0  0  0  0  0  0  0
    2.2689   -1.6902    0.0000 C   0  0  0  0  0  0  0  0  0  0  0  0
   -0.3325    2.8100    0.0000 O   0  0  0  0  0  0  0  0  0  0  0  0
    3.5681   -0.9404    0.0000 O   0  0  0  0  0  0  0  0  0  0  0  0
    2.2687   -3.1902    0.0000 O   0  0  0  0  0  0  0  0  0  0  0  0
  2  1  2  0
  3  1  1  0
  5  2  1  0
  5  4  2  0
  6  3  2  0
  6  4  1  0
  7  5  1  0
  8  6  1  0
  9  7  2  0
 10  7  1  0
M  END
>  <NAME>  (1248) 
META-HYDROXYBENZOIC ACID

>  <SYNONYMS>  (1248) 
3-HYDROXYBENZOIC ACID

>  <SPECTRUM TYPE>  (1248) 
MS1

>  <INSTRUMENT TYPE>  (1248) 
EI-B

>  <INSTRUMENT>  (1248) 
HITACHI M-80A

>  <ION MODE>  (1248) 
P

>  <INCHIKEY>  (1248) 
IJFXRHURBJZNAO-UHFFFAOYSA-N

>  <FORMULA>  (1248) 
C7H6O3

>  <EXACT MASS>  (1248) 
138.03169405199998

>  <MW>  (1248) 
138

>  <ID>  (1248) 
JP010334

>  <CONTRIBUTOR>  (1248) 
University of Tokyo Team, {Faculty of Engineering, University of Tokyo

>  <COMMENT>  (1248) 
SMILES=OC(=O)c(c1)cc(O)cc1
InChI=InChI=1S/C7H6O3/c8-6-3-1-2-5(4-6)7(9)10/h1-4,8H,(H,9,10)
computed SMILES=O=C(O)C=1C=CC=C(O)C1
accession=JP010334
date=2016.01.19 (Created 2008.10.21, modified 2011.05.06)
author=TAJIMA S, GUNMA COLLEGE OF TECHNOLOGY
license=CC BY-NC-SA
exact mass=138.03169
ionization energy=70 eV
ion type=[M]+*
computed spectral entropy=2.9605840217802957
computed normalized entropy=0.7732727396447164
SPLASH=splash10-000i-9500000000-d9aa814a2f50d1d836f5
submitter=submitter = University of Tokyo Team (Faculty of Engineering, University of Tokyo)
MoNA Rating=3.75

>  <NUM PEAKS>  (1248) 
46

>  <MASS SPECTRAL PEAKS>  (1248) 
25 1.04
26 3.48
27 5.85
29 8.11
31 1.86
37 8.12
38 16.65
39 44.51
40 4.13
41 1.15
42 1.59
43 1.26
45 16.52
46 2.25
49 2.1
50 7.31
51 4.52
52 1.35
53 14.22
54 1.64
55 6.52
60 1.42
61 6.18
62 10.96
63 22.79
64 10.09
65 41.27
66 7.95
67 1.13
69 1.19
73 1.1
74 3.57
75 2.04
77 1.09
81 5.1
82 1.3
92 6.97
93 39.6
94 3.29
95 1.04
110 3.08
120 1.95
121 80.52
122 6.3
138 99.99
139 9.03

$$$$

     RDKit          2D

 10 10  0  0  0  0  0  0  0  0999 V2000
   -1.3000   -0.7500    0.0000 C   0  0  0  0  0  0  0  0  0  0  0  0
    0.0000    1.5000    0.0000 C   0  0  0  0  0  0  0  0  0  0  0  0
    0.0000   -1.5000    0.0000 C   0  0  0  0  0  0  0  0  0  0  0  0
    1.3000    0.7500    0.0000 C   0  0  0  0  0  0  0  0  0  0  0  0
   -1.3000    0.7500    0.0000 C   0  0  0  0  0  0  0  0  0  0  0  0
    1.3000   -0.7500    0.0000 C   0  0  0  0  0  0  0  0  0  0  0  0
   -2.5989    1.5002    0.0000 C   0  0  0  0  0  0  0  0  0  0  0  0
    2.5989   -1.5002    0.0000 N   0  0  0  0  0  0  0  0  0  0  0  0
   -3.8981    0.7504    0.0000 O   0  0  0  0  0  0  0  0  0  0  0  0
   -2.5987    3.0002    0.0000 O   0  0  0  0  0  0  0  0  0  0  0  0
  3  1  2  0
  4  2  1  0
  5  1  1  0
  5  2  2  0
  6  3  1  0
  6  4  2  0
  7  5  1  0
  8  6  1  0
  9  7  1  0
 10  7  2  0
M  END
>  <NAME>  (1249) 
PARA-AMINOBENZOIC ACID

>  <SYNONYMS>  (1249) 
4-AMINOBENZOIC ACID

>  <SPECTRUM TYPE>  (1249) 
MS1

>  <INSTRUMENT TYPE>  (1249) 
EI-B

>  <INSTRUMENT>  (1249) 
HITACHI M-80A

>  <ION MODE>  (1249) 
P

>  <INCHIKEY>  (1249) 
ALYNCZNDIQEVRV-UHFFFAOYSA-N

>  <FORMULA>  (1249) 
C7H7NO2

>  <EXACT MASS>  (1249) 
137.047678464

>  <MW>  (1249) 
137

>  <ID>  (1249) 
JP010333

>  <CONTRIBUTOR>  (1249) 
University of Tokyo Team, {Faculty of Engineering, University of Tokyo

>  <COMMENT>  (1249) 
SMILES=Nc(c1)ccc(c1)C(O)=O
InChI=InChI=1S/C7H7NO2/c8-6-3-1-5(2-4-6)7(9)10/h1-4H,8H2,(H,9,10)
computed SMILES=O=C(O)C1=CC=C(N)C=C1
accession=JP010333
date=2016.01.19 (Created 2008.10.21, modified 2011.05.06)
author=TAJIMA S, GUNMA COLLEGE OF TECHNOLOGY
license=CC BY-NC-SA
exact mass=137.04768
ionization energy=70 eV
ion type=[M]+*
computed spectral entropy=2.8946128115664114
computed normalized entropy=0.7794685977739217
SPLASH=splash10-0079-9600000000-075c262f1e5d23ef097d
submitter=submitter = University of Tokyo Team (Faculty of Engineering, University of Tokyo)
MoNA Rating=3.75

>  <NUM PEAKS>  (1249) 
41

>  <MASS SPECTRAL PEAKS>  (1249) 
26 2.61
27 4.58
28 8.27
29 4.22
37 5.91
38 12.16
39 25.46
40 4.44
41 10.08
42 2.78
44 1.41
45 12.7
46 3.97
49 1.21
50 6.07
51 5.16
52 10.45
53 5.74
54 6.47
55 1.4
60 2.89
61 4.43
62 7.92
63 15.95
64 8.83
65 46.84
66 8.15
74 2.38
75 1.47
80 3.32
81 2.36
90 2.45
91 5.13
92 40.97
93 3.55
108 2.55
109 1.79
120 99.37
121 8.06
137 99.99
138 8.99

$$$$

     RDKit          2D

  3  2  0  0  0  0  0  0  0  0999 V2000
   -1.2990    0.0000    0.0000 C   0  0  0  0  0  0  0  0  0  0  0  0
   -0.0000    0.7500    0.0000 C   0  0  0  0  0  0  0  0  0  0  0  0
    0.0000    2.2500    0.0000 I   0  0  0  0  0  0  0  0  0  0  0  0
  2  1  1  0
  3  2  1  0
M  END
>  <NAME>  (1250) 
IODOETHANE

>  <SYNONYMS>  (1250) 
ETHYLIODIDE

>  <SPECTRUM TYPE>  (1250) 
MS1

>  <INSTRUMENT TYPE>  (1250) 
EI-B

>  <INSTRUMENT>  (1250) 
HITACHI M-80A

>  <ION MODE>  (1250) 
P

>  <INCHIKEY>  (1250) 
HVTICUPFWKNHNG-UHFFFAOYSA-N

>  <FORMULA>  (1250) 
C2H5I

>  <EXACT MASS>  (1250) 
155.94359816

>  <MW>  (1250) 
156

>  <ID>  (1250) 
JP010332

>  <CONTRIBUTOR>  (1250) 
University of Tokyo Team, {Faculty of Engineering, University of Tokyo

>  <COMMENT>  (1250) 
SMILES=CCI
cas=75-03-6
InChI=InChI=1S/C2H5I/c1-2-3/h2H2,1H3
computed SMILES=ICC
accession=JP010332
date=2016.01.19 (Created 2008.10.21, modified 2011.05.06)
author=TAJIMA S, GUNMA COLLEGE OF TECHNOLOGY
license=CC BY-NC-SA
exact mass=155.94359
ionization energy=70 eV
ion type=[M]+*
computed spectral entropy=1.7199485679942847
computed normalized entropy=0.7172742644373645
SPLASH=splash10-004i-9300000000-fbb61d7aa62ec90ef1cc
submitter=submitter = University of Tokyo Team (Faculty of Engineering, University of Tokyo)
MoNA Rating=3.75

>  <NUM PEAKS>  (1250) 
11

>  <MASS SPECTRAL PEAKS>  (1250) 
25 2.81
26 20.77
27 87.14
28 9.92
29 99.99
30 2.18
127 26.74
128 5.02
141 1.48
156 57.73
157 1.43

$$$$

     RDKit          2D

  3  2  0  0  0  0  0  0  0  0999 V2000
   -0.0000    0.7500    0.0000 C   0  0  0  0  0  0  0  0  0  0  0  0
   -1.2990    0.0000    0.0000 I   0  0  0  0  0  0  0  0  0  0  0  0
    0.0000    2.2500    0.0000 I   0  0  0  0  0  0  0  0  0  0  0  0
  2  1  1  0
  3  1  1  0
M  END
>  <NAME>  (1251) 
DI-IODOMETHANE

>  <SYNONYMS>  (1251) 


>  <SPECTRUM TYPE>  (1251) 
MS1

>  <INSTRUMENT TYPE>  (1251) 
EI-B

>  <INSTRUMENT>  (1251) 
HITACHI M-80A

>  <ION MODE>  (1251) 
P

>  <INCHIKEY>  (1251) 
NZZFYRREKKOMAT-UHFFFAOYSA-N

>  <FORMULA>  (1251) 
CH2I2

>  <EXACT MASS>  (1251) 
267.824596064

>  <MW>  (1251) 
268

>  <ID>  (1251) 
JP010331

>  <CONTRIBUTOR>  (1251) 
University of Tokyo Team, {Faculty of Engineering, University of Tokyo

>  <COMMENT>  (1251) 
SMILES=ICI
cas=75-11-6
InChI=InChI=1S/CH2I2/c2-1-3/h1H2
computed SMILES=ICI
accession=JP010331
date=2016.01.19 (Created 2008.10.21, modified 2011.05.06)
author=TAJIMA S, GUNMA COLLEGE OF TECHNOLOGY
license=CC BY-NC-SA
exact mass=267.82459
ionization energy=70 eV
ion type=[M]+*
computed spectral entropy=1.7463084858851838
computed normalized entropy=0.6448582397676433
SPLASH=splash10-016u-0950000000-1cbd89d091471c8636c3
submitter=submitter = University of Tokyo Team (Faculty of Engineering, University of Tokyo)
MoNA Rating=3.75

>  <NUM PEAKS>  (1251) 
15

>  <MASS SPECTRAL PEAKS>  (1251) 
12 2.14
13 4.77
14 9.03
127 69.27
128 2.58
134 1.38
139 8.91
140 8.98
141 89.56
142 1.08
254 14.97
266 1
267 1.64
268 99.99
269 1.14

$$$$

     RDKit          2D

  8  7  0  0  0  0  0  0  0  0999 V2000
   -2.4414    1.1009    0.0000 C   0  0  0  0  0  0  0  0  0  0  0  0
    1.1209    2.2500    0.0000 C   0  0  0  0  0  0  0  0  0  0  0  0
   -4.0753    2.2500    0.0000 C   0  0  0  0  0  0  0  0  0  0  0  0
    0.9642    1.3614    0.0000 C   0  0  0  0  0  0  0  0  0  0  0  0
   -1.4772    2.2500    0.0000 C   0  0  0  0  0  0  0  0  0  0  0  0
   -0.1782    3.0000    0.0000 O   0  0  0  0  0  0  0  0  0  0  0  0
   -2.7762    3.0000    0.0000 O   0  0  0  0  0  0  0  0  0  0  0  0
   -0.5130    1.1009    0.0000 O   0  0  0  0  0  0  0  0  0  0  0  0
  5  1  1  0
  6  2  1  0
  6  5  1  0
  7  3  1  0
  7  5  1  0
  8  4  1  0
  8  5  1  0
M  END
>  <NAME>  (1252) 
1,1,1-TRIMETHOXYETHANE

>  <SYNONYMS>  (1252) 


>  <SPECTRUM TYPE>  (1252) 
MS1

>  <INSTRUMENT TYPE>  (1252) 
EI-B

>  <INSTRUMENT>  (1252) 
HITACHI M-80

>  <ION MODE>  (1252) 
P

>  <INCHIKEY>  (1252) 
HDPNBNXLBDFELL-UHFFFAOYSA-N

>  <FORMULA>  (1252) 
C5H12O3

>  <EXACT MASS>  (1252) 
120.07864424399999

>  <MW>  (1252) 
120

>  <ID>  (1252) 
JP010330

>  <CONTRIBUTOR>  (1252) 
University of Tokyo Team, {Faculty of Engineering, University of Tokyo

>  <COMMENT>  (1252) 
SMILES=COC(C)(OC)OC
InChI=InChI=1S/C5H12O3/c1-5(6-2,7-3)8-4/h1-4H3
computed SMILES=O(C)C(OC)(OC)C
accession=JP010330
date=2016.01.19 (Created 2008.10.21, modified 2011.05.06)
author=TAJIMA S, GUNMA COLLEGE OF TECHNOLOGY
license=CC BY-NC-SA
exact mass=120.07864
ionization energy=70 eV
ion type=[M]+*
computed spectral entropy=2.345571332770004
computed normalized entropy=0.7704234016169486
SPLASH=splash10-000f-9000000000-b4d8d942c1e0fda9c212
submitter=submitter = University of Tokyo Team (Faculty of Engineering, University of Tokyo)
MoNA Rating=3.75

>  <NUM PEAKS>  (1252) 
21

>  <MASS SPECTRAL PEAKS>  (1252) 
14 4.46
15 24.48
26 1.39
27 6.52
28 4.71
29 15.82
30 2.08
31 11.47
32 6.43
42 14.87
43 99.99
44 2.51
45 6.39
47 7.15
57 6.1
58 3.36
59 2.77
88 16.92
89 44.19
90 2.04
105 7.24

$$$$

     RDKit          2D

 13 14  0  0  0  0  0  0  0  0999 V2000
    2.5986    1.0700    0.0000 C   0  0  0  0  0  0  0  0  0  0  0  0
   -5.1957    1.0700    0.0000 C   0  0  0  0  0  0  0  0  0  0  0  0
    1.2990    0.3192    0.0000 C   0  0  0  0  0  0  0  0  0  0  0  0
    2.5990    2.5708    0.0000 C   0  0  0  0  0  0  0  0  0  0  0  0
   -5.1962    2.5708    0.0000 C   0  0  0  0  0  0  0  0  0  0  0  0
   -3.8962    0.3192    0.0000 C   0  0  0  0  0  0  0  0  0  0  0  0
    0.0000    1.0692    0.0000 C   0  0  0  0  0  0  0  0  0  0  0  0
    1.3000    3.3208    0.0000 C   0  0  0  0  0  0  0  0  0  0  0  0
   -3.8971    3.3208    0.0000 C   0  0  0  0  0  0  0  0  0  0  0  0
   -2.5971    1.0692    0.0000 C   0  0  0  0  0  0  0  0  0  0  0  0
    0.0005    2.5700    0.0000 C   0  0  0  0  0  0  0  0  0  0  0  0
   -2.5976    2.5700    0.0000 C   0  0  0  0  0  0  0  0  0  0  0  0
   -1.2986    3.3200    0.0000 N   0  0  0  0  0  0  0  0  0  0  0  0
  3  1  2  0
  4  1  1  0
  5  2  2  0
  6  2  1  0
  7  3  1  0
  8  4  2  0
  9  5  1  0
 10  6  2  0
 11  7  2  0
 11  8  1  0
 12  9  2  0
 12 10  1  0
 13 11  1  0
 13 12  1  0
M  END
>  <NAME>  (1253) 
DIPHENYLAMINE

>  <SYNONYMS>  (1253) 


>  <SPECTRUM TYPE>  (1253) 
MS1

>  <INSTRUMENT TYPE>  (1253) 
EI-B

>  <INSTRUMENT>  (1253) 
HITACHI M-80A

>  <ION MODE>  (1253) 
P

>  <INCHIKEY>  (1253) 
DMBHHRLKUKUOEG-UHFFFAOYSA-N

>  <FORMULA>  (1253) 
C12H11N

>  <EXACT MASS>  (1253) 
169.089149352

>  <MW>  (1253) 
169

>  <ID>  (1253) 
JP010329

>  <CONTRIBUTOR>  (1253) 
University of Tokyo Team, {Faculty of Engineering, University of Tokyo

>  <COMMENT>  (1253) 
SMILES=c(c2)ccc(c2)Nc(c1)cccc1
InChI=InChI=1S/C12H11N/c1-3-7-11(8-4-1)13-12-9-5-2-6-10-12/h1-10,13H
computed SMILES=C=1C=CC(=CC1)NC=2C=CC=CC2
accession=JP010329
date=2016.01.19 (Created 2008.10.21, modified 2011.05.06)
author=TAJIMA S, GUNMA COLLEGE OF TECHNOLOGY
license=CC BY-NC-SA
exact mass=169.08915
ionization energy=70 eV
ion type=[M]+*
computed spectral entropy=3.1027092567349137
computed normalized entropy=0.7852487666462766
SPLASH=splash10-014i-8900000000-43ff93288efd91fa24fd
submitter=submitter = University of Tokyo Team (Faculty of Engineering, University of Tokyo)
MoNA Rating=3.75

>  <NUM PEAKS>  (1253) 
52

>  <MASS SPECTRAL PEAKS>  (1253) 
15 3.58
26 1.81
27 10.19
28 6.71
37 1.02
38 4.51
39 60.97
40 3.47
41 1.9
50 8.65
51 25
52 8.95
53 1.42
54 1.73
62 1.74
63 21.54
64 5.2
65 19.44
66 9.02
74 1.35
75 1.55
76 2.22
77 18.85
78 3.22
89 6.03
90 2.3
91 3.65
92 4.53
93 2.09
103 1.28
104 1.84
113 1.56
114 1.08
115 7.14
116 1.5
117 2.3
127 2.21
128 4.06
129 2.07
130 4.66
138 1.59
139 6.83
140 2
141 5.11
142 2.09
143 1.48
154 2.66
166 5.81
167 32.83
168 43.26
169 99.99
170 13.52

$$$$

     RDKit          2D

  9  9  0  0  0  0  0  0  0  0999 V2000
    2.2733   -0.6175    0.0000 C   0  0  0  0  0  0  0  0  0  0  0  0
    2.2738    0.8833    0.0000 C   0  0  0  0  0  0  0  0  0  0  0  0
    0.9738   -1.3683    0.0000 C   0  0  0  0  0  0  0  0  0  0  0  0
    0.9748    1.6333    0.0000 C   0  0  0  0  0  0  0  0  0  0  0  0
   -0.3252   -0.6183    0.0000 C   0  0  0  0  0  0  0  0  0  0  0  0
   -0.3248    0.8825    0.0000 C   0  0  0  0  0  0  0  0  0  0  0  0
   -1.6238    1.6325    0.0000 C   0  0  0  0  0  0  0  0  0  0  0  0
   -1.6238    3.1325    0.0000 O   0  0  0  0  0  0  0  0  0  0  0  0
   -2.9228    0.8825    0.0000 O   0  0  0  0  0  0  0  0  0  0  0  0
  2  1  1  0
  3  1  1  0
  4  2  1  0
  5  3  1  0
  6  4  1  0
  6  5  1  0
  7  6  1  0
  8  7  2  0
  9  7  1  0
M  END
>  <NAME>  (1254) 
CYCLOHEXANECARBOXYLIC ACID

>  <SYNONYMS>  (1254) 


>  <SPECTRUM TYPE>  (1254) 
MS1

>  <INSTRUMENT TYPE>  (1254) 
EI-B

>  <INSTRUMENT>  (1254) 
HITACHI M-80A

>  <ION MODE>  (1254) 
P

>  <INCHIKEY>  (1254) 
NZNMSOFKMUBTKW-UHFFFAOYSA-N

>  <FORMULA>  (1254) 
C7H12O2

>  <EXACT MASS>  (1254) 
128.083729624

>  <MW>  (1254) 
128

>  <ID>  (1254) 
JP010328

>  <CONTRIBUTOR>  (1254) 
University of Tokyo Team, {Faculty of Engineering, University of Tokyo

>  <COMMENT>  (1254) 
SMILES=OC(=O)C(C1)CCCC1
InChI=InChI=1S/C7H12O2/c8-7(9)6-4-2-1-3-5-6/h6H,1-5H2,(H,8,9)
computed SMILES=O=C(O)C1CCCCC1
accession=JP010328
date=2016.01.19 (Created 2008.10.21, modified 2011.05.06)
author=TAJIMA S, GUNMA COLLEGE OF TECHNOLOGY
license=CC BY-NC-SA
exact mass=128.08373
ionization energy=70 eV
ion type=[M]+*
computed spectral entropy=2.421853862523272
computed normalized entropy=0.734822128942134
SPLASH=splash10-03e9-9700000000-afedc669010cea1fff7a
submitter=submitter = University of Tokyo Team (Faculty of Engineering, University of Tokyo)
MoNA Rating=3.75

>  <NUM PEAKS>  (1254) 
27

>  <MASS SPECTRAL PEAKS>  (1254) 
27 3.89
29 2.45
39 18.32
40 1.02
41 8.71
42 1.05
43 1.41
45 1.83
53 4.13
54 5.55
55 10.32
56 3.49
67 3.45
68 8.39
69 4.32
73 3.59
81 11.83
82 4.23
83 63.22
84 4.19
110 8.26
111 99.99
112 7.63
127 1.82
128 6.81
129 13.84
130 1.19

$$$$

     RDKit          2D

 14 14  0  0  1  0  0  0  0  0999 V2000
   -1.6353    4.6878    0.0000 C   0  0  0  0  0  0  0  0  0  0  0  0
    4.8670    0.9406    0.0000 C   0  0  0  0  0  0  0  0  0  0  0  0
   -1.6200   -1.3100    0.0000 C   0  0  0  0  0  0  0  0  0  0  0  0
   -0.3300   -2.0600    0.0000 C   0  0  0  0  0  0  0  0  0  0  0  0
   -1.6200    0.1900    0.0000 C   0  0  0  0  0  0  0  0  0  0  0  0
    0.9700   -1.3100    0.0000 C   0  0  0  0  0  0  0  0  0  0  0  0
   -0.3300    0.9400    0.0000 C   0  0  0  0  0  0  0  0  0  0  0  0
    0.9700    0.1900    0.0000 C   0  0  0  0  0  0  0  0  0  0  0  0
   -0.3325    2.4400    0.0000 C   0  0  0  0  0  0  0  0  0  0  0  0
    2.2689    0.9402    0.0000 C   0  0  0  0  0  0  0  0  0  0  0  0
    0.9653    3.1922    0.0000 O   0  0  0  0  0  0  0  0  0  0  0  0
    2.2687    2.4402    0.0000 O   0  0  0  0  0  0  0  0  0  0  0  0
   -1.6328    3.1878    0.0000 O   0  0  0  0  0  0  0  0  0  0  0  0
    3.5681    0.1904    0.0000 O   0  0  0  0  0  0  0  0  0  0  0  0
  4  3  1  0
  5  3  1  0
  6  4  1  0
  7  5  1  0
  8  6  1  0
  8  7  1  0
  7  9  1  1
  8 10  1  6
 11  9  2  0
 12 10  2  0
 13  1  1  0
 13  9  1  0
 14  2  1  0
 14 10  1  0
M  END
>  <NAME>  (1255) 
TRANS-1,2-CYCLOHEXANEDICARBOXYLIC ACID DIMETHYL ESTER

>  <SYNONYMS>  (1255) 


>  <SPECTRUM TYPE>  (1255) 
MS1

>  <INSTRUMENT TYPE>  (1255) 
EI-B

>  <INSTRUMENT>  (1255) 
HITACHI M-80A

>  <ION MODE>  (1255) 
P

>  <INCHIKEY>  (1255) 
AIACXWOETVLBIA-HTQZYQBOSA-N

>  <FORMULA>  (1255) 
C10H16O4

>  <EXACT MASS>  (1255) 
200.104858992

>  <MW>  (1255) 
200

>  <ID>  (1255) 
JP010327

>  <CONTRIBUTOR>  (1255) 
University of Tokyo Team, {Faculty of Engineering, University of Tokyo

>  <COMMENT>  (1255) 
SMILES=COC(=O)C(C1)C(CCC1)C(=O)OC
InChI=InChI=1S/C10H16O4/c1-13-9(11)7-5-3-4-6-8(7)10(12)14-2/h7-8H,3-6H2,1-2H3/t7-,8-/m1/s1
computed SMILES=O=C(OC)C1CCCCC1C(=O)OC
accession=JP010327
date=2016.01.19 (Created 2008.10.21, modified 2011.05.06)
author=TAJIMA S, GUNMA COLLEGE OF TECHNOLOGY
license=CC BY-NC-SA
exact mass=200.10486
ionization energy=70 eV
ion type=[M]+*
computed spectral entropy=3.3616004496366
computed normalized entropy=0.8314513536794863
SPLASH=splash10-00lu-9300000000-c834a795dbe4a8159110
submitter=submitter = University of Tokyo Team (Faculty of Engineering, University of Tokyo)
MoNA Rating=3.75

>  <NUM PEAKS>  (1255) 
57

>  <MASS SPECTRAL PEAKS>  (1255) 
15 35.82
26 2.71
27 15.5
29 10.75
30 2.76
31 7.02
33 2.7
38 1.56
39 19.29
40 3.09
41 23.95
42 3.58
43 23.66
45 5.07
50 1.05
51 3.13
52 2.52
53 13.89
54 13.9
55 8.97
58 5.98
59 27.11
65 2.54
66 3.31
67 18.59
68 3.23
69 1.97
71 2.92
74 1.9
77 5.31
78 1.25
79 14.68
80 24.83
81 99.99
82 11.74
83 1.16
87 2.55
97 1.03
99 1.51
100 1.35
101 1.95
108 19.77
109 24.77
110 2.32
111 3
112 1.02
113 2.13
125 2.01
126 2.57
127 1.62
136 1.44
140 46.59
141 14.06
142 1.37
168 29.05
169 23.47
170 2.58

$$$$

     RDKit          2D

 11 11  0  0  0  0  0  0  0  0999 V2000
   -2.2733   -1.3675    0.0000 C   0  0  0  0  0  0  0  0  0  0  0  0
   -3.5724    0.8825    0.0000 C   0  0  0  0  0  0  0  0  0  0  0  0
    2.9228    3.1325    0.0000 C   0  0  0  0  0  0  0  0  0  0  0  0
    1.6233    3.8833    0.0000 C   0  0  0  0  0  0  0  0  0  0  0  0
    2.9233    1.6317    0.0000 C   0  0  0  0  0  0  0  0  0  0  0  0
    0.3243    3.1333    0.0000 C   0  0  0  0  0  0  0  0  0  0  0  0
    1.6243    0.8817    0.0000 C   0  0  0  0  0  0  0  0  0  0  0  0
    0.3248    1.6325    0.0000 C   0  0  0  0  0  0  0  0  0  0  0  0
   -0.9743    0.8825    0.0000 C   0  0  0  0  0  0  0  0  0  0  0  0
   -0.9743   -0.6175    0.0000 O   0  0  0  0  0  0  0  0  0  0  0  0
   -2.2733    1.6325    0.0000 O   0  0  0  0  0  0  0  0  0  0  0  0
  4  3  2  0
  5  3  1  0
  6  4  1  0
  7  5  2  0
  8  6  2  0
  8  7  1  0
  9  8  1  0
 10  1  1  0
 10  9  1  0
 11  2  1  0
 11  9  1  0
M  END
>  <NAME>  (1256) 
ALPHA,ALPHA-DIMETHOXYTOLUENE

>  <SYNONYMS>  (1256) 


>  <SPECTRUM TYPE>  (1256) 
MS1

>  <INSTRUMENT TYPE>  (1256) 
EI-B

>  <INSTRUMENT>  (1256) 
HITACHI M-80A

>  <ION MODE>  (1256) 
P

>  <INCHIKEY>  (1256) 
HEVMDQBCAHEHDY-UHFFFAOYSA-N

>  <FORMULA>  (1256) 
C9H12O2

>  <EXACT MASS>  (1256) 
152.083729624

>  <MW>  (1256) 
152

>  <ID>  (1256) 
JP010326

>  <CONTRIBUTOR>  (1256) 
University of Tokyo Team, {Faculty of Engineering, University of Tokyo

>  <COMMENT>  (1256) 
SMILES=COC(OC)c(c1)cccc1
InChI=InChI=1S/C9H12O2/c1-10-9(11-2)8-6-4-3-5-7-8/h3-7,9H,1-2H3
computed SMILES=O(C)C(OC)C=1C=CC=CC1
accession=JP010326
date=2016.01.19 (Created 2008.10.21, modified 2011.05.06)
author=TAJIMA S, GUNMA COLLEGE OF TECHNOLOGY
license=CC BY-NC-SA
exact mass=152.08373
ionization energy=70 eV
ion type=[M]+*
computed spectral entropy=2.427985161809144
computed normalized entropy=0.7138618813773738
SPLASH=splash10-00di-9800000000-d382827cc5fa8b6398b4
submitter=submitter = University of Tokyo Team (Faculty of Engineering, University of Tokyo)
MoNA Rating=3.75

>  <NUM PEAKS>  (1256) 
30

>  <MASS SPECTRAL PEAKS>  (1256) 
15 7.56
27 1.22
29 7.4
30 1.91
31 2.34
39 3.32
47 3.04
50 4.64
51 11.58
52 2.86
59 3.32
62 1.01
63 2.56
65 2.19
74 1.95
75 11.99
76 1.49
77 33.81
78 5.46
89 2.27
90 1.17
91 14.77
92 1.5
93 1.21
105 11.92
106 1.7
121 99.99
122 9.18
151 1.15
152 3.34

$$$$

     RDKit          2D

  9  9  0  0  0  0  0  0  0  0999 V2000
    2.2733   -0.6175    0.0000 C   0  0  0  0  0  0  0  0  0  0  0  0
    2.2738    0.8833    0.0000 C   0  0  0  0  0  0  0  0  0  0  0  0
    0.9738   -1.3683    0.0000 C   0  0  0  0  0  0  0  0  0  0  0  0
    0.9748    1.6333    0.0000 C   0  0  0  0  0  0  0  0  0  0  0  0
   -0.3252   -0.6183    0.0000 C   0  0  0  0  0  0  0  0  0  0  0  0
   -0.3248    0.8825    0.0000 C   0  0  0  0  0  0  0  0  0  0  0  0
   -1.6238    1.6325    0.0000 C   0  0  0  0  0  0  0  0  0  0  0  0
   -2.9228    0.8825    0.0000 Cl  0  0  0  0  0  0  0  0  0  0  0  0
   -1.6238    3.1325    0.0000 Cl  0  0  0  0  0  0  0  0  0  0  0  0
  2  1  2  0
  3  1  1  0
  4  2  1  0
  5  3  2  0
  6  4  2  0
  6  5  1  0
  7  6  1  0
  8  7  1  0
  9  7  1  0
M  END
>  <NAME>  (1257) 
ALPHA,ALPHA-DICHLOROTOLUENE

>  <SYNONYMS>  (1257) 


>  <SPECTRUM TYPE>  (1257) 
MS1

>  <INSTRUMENT TYPE>  (1257) 
EI-B

>  <INSTRUMENT>  (1257) 
HITACHI M-80A

>  <ION MODE>  (1257) 
P

>  <INCHIKEY>  (1257) 
CAHQGWAXKLQREW-UHFFFAOYSA-N

>  <FORMULA>  (1257) 
C7H6Cl2

>  <EXACT MASS>  (1257) 
159.984655552

>  <MW>  (1257) 
160

>  <ID>  (1257) 
JP010325

>  <CONTRIBUTOR>  (1257) 
University of Tokyo Team, {Faculty of Engineering, University of Tokyo

>  <COMMENT>  (1257) 
SMILES=c(c1)ccc(c1)C(Cl)Cl
InChI=InChI=1S/C7H6Cl2/c8-7(9)6-4-2-1-3-5-6/h1-5,7H
computed SMILES=ClC(Cl)C=1C=CC=CC1
accession=JP010325
date=2016.01.19 (Created 2008.10.21, modified 2011.05.06)
author=TAJIMA S, GUNMA COLLEGE OF TECHNOLOGY
license=CC BY-NC-SA
exact mass=159.98466
ion type=[M]+*
ionization energy=70 eV
computed spectral entropy=2.870786202275037
computed normalized entropy=0.7730525086652701
SPLASH=splash10-004i-8900000000-4e8eb144c326b40701da
submitter=submitter = University of Tokyo Team (Faculty of Engineering, University of Tokyo)
MoNA Rating=3.75

>  <NUM PEAKS>  (1257) 
41

>  <MASS SPECTRAL PEAKS>  (1257) 
26 3.27
27 2.93
35 2.76
37 3.37
38 6.04
39 12.14
40 1.18
43 1.3
44 2.04
45 2.53
49 1.81
50 9.09
51 8.3
52 1.38
61 4.25
62 11.24
63 19.98
64 3.65
65 3.65
73 4.26
74 1.58
75 2.33
77 1.07
85 1.3
86 2.17
87 1.8
89 22.86
90 6.29
91 11.28
97 1.49
99 6.18
101 1.84
125 99.99
126 10.1
127 31.61
128 3.35
159 1.01
160 10.84
161 1.47
162 7.16
164 1.14

$$$$

     RDKit          2D

  7  6  0  0  0  0  0  0  0  0999 V2000
    1.9486    3.3750    0.0000 C   0  0  0  0  0  0  0  0  0  0  0  0
    0.6495    4.1250    0.0000 C   0  0  0  0  0  0  0  0  0  0  0  0
   -3.2476    3.3750    0.0000 C   0  0  0  0  0  0  0  0  0  0  0  0
   -4.5466    4.1250    0.0000 C   0  0  0  0  0  0  0  0  0  0  0  0
   -1.9486    4.1250    0.0000 C   0  0  0  0  0  0  0  0  0  0  0  0
   -5.8457    3.3750    0.0000 N   0  0  0  0  0  0  0  0  0  0  0  0
   -0.6495    3.3750    0.0000 O   0  0  0  0  0  0  0  0  0  0  0  0
  2  1  1  0
  4  3  1  0
  5  3  1  0
  6  4  1  0
  7  2  1  0
  7  5  1  0
M  END
>  <NAME>  (1258) 
3-ETHOXYPROPYLAMINE

>  <SYNONYMS>  (1258) 


>  <SPECTRUM TYPE>  (1258) 
MS1

>  <INSTRUMENT TYPE>  (1258) 
EI-B

>  <INSTRUMENT>  (1258) 
HITACHI M-80A

>  <ION MODE>  (1258) 
P

>  <INCHIKEY>  (1258) 
SOYBEXQHNURCGE-UHFFFAOYSA-N

>  <FORMULA>  (1258) 
C5H13NO

>  <EXACT MASS>  (1258) 
103.099714036

>  <MW>  (1258) 
103

>  <ID>  (1258) 
JP010324

>  <CONTRIBUTOR>  (1258) 
University of Tokyo Team, {Faculty of Engineering, University of Tokyo

>  <COMMENT>  (1258) 
SMILES=NCCCOCC
InChI=InChI=1S/C5H13NO/c1-2-7-5-3-4-6/h2-6H2,1H3
computed SMILES=O(CC)CCCN
accession=JP010324
date=2016.01.19 (Created 2008.10.21, modified 2011.05.06)
author=TAJIMA S, GUNMA COLLEGE OF TECHNOLOGY
license=CC BY-NC-SA
exact mass=103.09971
ionization energy=70 eV
ion type=[M]+*
computed spectral entropy=2.3338612761719695
computed normalized entropy=0.7665771311960313
SPLASH=splash10-001i-9000000000-888e909d0362050378e3
submitter=submitter = University of Tokyo Team (Faculty of Engineering, University of Tokyo)
MoNA Rating=3.75

>  <NUM PEAKS>  (1258) 
21

>  <MASS SPECTRAL PEAKS>  (1258) 
15 3.34
18 4.11
26 2.6
27 12.84
28 6.17
29 11.74
30 99.99
31 10.78
39 2.01
41 4.34
42 5.06
43 4.32
44 5.58
45 6.05
47 1.22
56 18.85
57 14.06
58 6.42
59 4.11
74 12
86 8.91

$$$$

     RDKit          2D

 14 14  0  0  1  0  0  0  0  0999 V2000
   -1.6353    4.6878    0.0000 C   0  0  0  0  0  0  0  0  0  0  0  0
    4.8670    0.9406    0.0000 C   0  0  0  0  0  0  0  0  0  0  0  0
   -1.6200   -1.3100    0.0000 C   0  0  0  0  0  0  0  0  0  0  0  0
   -0.3300   -2.0600    0.0000 C   0  0  0  0  0  0  0  0  0  0  0  0
   -1.6200    0.1900    0.0000 C   0  0  0  0  0  0  0  0  0  0  0  0
    0.9700   -1.3100    0.0000 C   0  0  0  0  0  0  0  0  0  0  0  0
   -0.3300    0.9400    0.0000 C   0  0  0  0  0  0  0  0  0  0  0  0
    0.9700    0.1900    0.0000 C   0  0  0  0  0  0  0  0  0  0  0  0
   -0.3325    2.4400    0.0000 C   0  0  0  0  0  0  0  0  0  0  0  0
    2.2689    0.9402    0.0000 C   0  0  0  0  0  0  0  0  0  0  0  0
    0.9653    3.1922    0.0000 O   0  0  0  0  0  0  0  0  0  0  0  0
    2.2687    2.4402    0.0000 O   0  0  0  0  0  0  0  0  0  0  0  0
   -1.6328    3.1878    0.0000 O   0  0  0  0  0  0  0  0  0  0  0  0
    3.5681    0.1904    0.0000 O   0  0  0  0  0  0  0  0  0  0  0  0
  4  3  1  0
  5  3  1  0
  6  4  1  0
  7  5  1  0
  8  6  1  0
  8  7  1  0
  7  9  1  6
  8 10  1  6
 11  9  2  0
 12 10  2  0
 13  1  1  0
 13  9  1  0
 14  2  1  0
 14 10  1  0
M  END
>  <NAME>  (1259) 
CIS-CYCLOHEXANE-1,2-DICARBOXYLIC ACID DIMETHYL ESTER

>  <SYNONYMS>  (1259) 


>  <SPECTRUM TYPE>  (1259) 
MS1

>  <INSTRUMENT TYPE>  (1259) 
EI-B

>  <INSTRUMENT>  (1259) 
HITACHI M-80A

>  <ION MODE>  (1259) 
P

>  <INCHIKEY>  (1259) 
AIACXWOETVLBIA-OCAPTIKFSA-N

>  <FORMULA>  (1259) 
C10H16O4

>  <EXACT MASS>  (1259) 
200.104858992

>  <MW>  (1259) 
200

>  <ID>  (1259) 
JP010323

>  <CONTRIBUTOR>  (1259) 
University of Tokyo Team, {Faculty of Engineering, University of Tokyo

>  <COMMENT>  (1259) 
SMILES=COC(=O)C([H])(C1)C([H])(CCC1)C(=O)OC
InChI=InChI=1S/C10H16O4/c1-13-9(11)7-5-3-4-6-8(7)10(12)14-2/h7-8H,3-6H2,1-2H3/t7-,8+
computed SMILES=O=C(OC)C1CCCCC1C(=O)OC
accession=JP010323
date=2016.01.19 (Created 2008.10.21, modified 2011.05.06)
author=TAJIMA S, GUNMA COLLEGE OF TECHNOLOGY
license=CC BY-NC-SA
exact mass=200.10486
ionization energy=70 eV
ion type=[M]+*
computed spectral entropy=3.502532345740219
computed normalized entropy=0.8300808033704102
SPLASH=splash10-001l-9300000000-f924404da596d90971d6
submitter=submitter = University of Tokyo Team (Faculty of Engineering, University of Tokyo)
MoNA Rating=3.75

>  <NUM PEAKS>  (1259) 
68

>  <MASS SPECTRAL PEAKS>  (1259) 
15 42.13
26 3
27 20.16
29 12.6
30 3.58
31 8.35
33 2.5
38 1.37
39 26.65
40 4.06
41 31.33
42 3.08
43 11.81
45 5.72
50 1.85
51 5.51
52 3.52
53 20.15
54 17.79
55 13.2
56 1.26
57 1.08
58 2.08
59 33.59
60 1.01
61 1.15
65 3.8
66 6.49
67 24.76
68 4.99
69 4.03
71 3.39
74 3.46
77 8.51
78 1.81
79 20.64
80 42.5
81 99.99
82 11.79
83 1.44
85 1.95
87 4.83
94 1.17
95 1.2
97 1.68
98 1.53
99 2.02
100 4.14
101 3.19
107 1.47
108 33.06
109 16.86
110 1.66
111 6.33
112 2.1
113 5.45
114 2.11
125 3.52
126 3.95
127 1.5
136 1.83
139 1.09
140 56.92
141 8.34
142 1.01
168 19.82
169 19.38
170 2.09

$$$$

     RDKit          2D

  4  3  0  0  0  0  0  0  0  0999 V2000
   -2.5981    2.2500    0.0000 C   0  0  0  0  0  0  0  0  0  0  0  0
   -1.2990    1.5000    0.0000 C   0  0  0  0  0  0  0  0  0  0  0  0
    0.0000    2.2500    0.0000 C   0  0  0  0  0  0  0  0  0  0  0  0
    1.2990    1.5000    0.0000 N   0  0  0  0  0  0  0  0  0  0  0  0
  2  1  1  0
  3  2  1  0
  4  3  1  0
M  END
>  <NAME>  (1260) 
PROPYLAMINE

>  <SYNONYMS>  (1260) 


>  <SPECTRUM TYPE>  (1260) 
MS1

>  <INSTRUMENT TYPE>  (1260) 
EI-B

>  <INSTRUMENT>  (1260) 
HITACHI M-80A

>  <ION MODE>  (1260) 
P

>  <INCHIKEY>  (1260) 
WGYKZJWCGVVSQN-UHFFFAOYSA-N

>  <FORMULA>  (1260) 
C3H9N

>  <EXACT MASS>  (1260) 
59.073499287999994

>  <MW>  (1260) 
59

>  <ID>  (1260) 
JP010322

>  <CONTRIBUTOR>  (1260) 
University of Tokyo Team, {Faculty of Engineering, University of Tokyo

>  <COMMENT>  (1260) 
SMILES=CCCN
InChI=InChI=1S/C3H9N/c1-2-3-4/h2-4H2,1H3
computed SMILES=NCCC
accession=JP010322
date=2016.01.19 (Created 2008.10.21, modified 2011.05.06)
author=TAJIMA S, GUNMA COLLEGE OF TECHNOLOGY
license=CC BY-NC-SA
exact mass=59.0735
ionization energy=70 eV
ion type=[M]+*
computed spectral entropy=1.581151517854879
computed normalized entropy=0.5580771109849417
SPLASH=splash10-001i-9000000000-bb0aa95bee8cd8b30da7
submitter=submitter = University of Tokyo Team (Faculty of Engineering, University of Tokyo)
MoNA Rating=3.75

>  <NUM PEAKS>  (1260) 
17

>  <MASS SPECTRAL PEAKS>  (1260) 
15 2.27
18 2.96
26 2.22
27 6.01
28 5.95
29 2.49
30 99.99
31 1.61
39 2.79
41 5.75
42 3.64
43 2.75
44 1.35
56 1.3
58 2.73
59 11.8
60 1.27

$$$$

     RDKit          2D

  5  5  0  0  0  0  0  0  0  0999 V2000
   -1.0200   -0.7500    0.0000 C   0  0  0  0  0  0  0  0  0  0  0  0
   -1.0200    0.7500    0.0000 C   0  0  0  0  0  0  0  0  0  0  0  0
    1.7800   -0.0000    0.0000 C   0  0  0  0  0  0  0  0  0  0  0  0
    0.2800    0.0000    0.0000 C   0  0  0  0  0  0  0  0  0  0  0  0
    2.5300    1.2990    0.0000 O   0  0  0  0  0  0  0  0  0  0  0  0
  2  1  1  0
  4  1  1  0
  4  2  1  0
  4  3  1  0
  5  3  1  0
M  END
>  <NAME>  (1261) 
CYCLOPROPYLMETHANOL

>  <SYNONYMS>  (1261) 
HYDROXYMETHYLCYCROPROPANE

>  <SPECTRUM TYPE>  (1261) 
MS1

>  <INSTRUMENT TYPE>  (1261) 
EI-B

>  <INSTRUMENT>  (1261) 
HITACHI M-80A

>  <ION MODE>  (1261) 
P

>  <INCHIKEY>  (1261) 
GUDMZGLFZNLYEY-UHFFFAOYSA-N

>  <FORMULA>  (1261) 
C4H8O

>  <EXACT MASS>  (1261) 
72.057514876

>  <MW>  (1261) 
72

>  <ID>  (1261) 
JP010321

>  <CONTRIBUTOR>  (1261) 
University of Tokyo Team, {Faculty of Engineering, University of Tokyo

>  <COMMENT>  (1261) 
SMILES=OCC(C1)C1
InChI=InChI=1S/C4H8O/c5-3-4-1-2-4/h4-5H,1-3H2
computed SMILES=OCC1CC1
accession=JP010321
date=2016.01.19 (Created 2008.10.21, modified 2011.05.06)
author=TAJIMA S, GUNMA COLLEGE OF TECHNOLOGY
license=CC BY-NC-SA
exact mass=72.05751
ionization energy=70 eV
ion type=[M]+*
computed spectral entropy=2.4507155314148865
computed normalized entropy=0.7711371997580584
SPLASH=splash10-0006-9000000000-ae27f7d9eb69761a942b
submitter=submitter = University of Tokyo Team (Faculty of Engineering, University of Tokyo)
MoNA Rating=3.75

>  <NUM PEAKS>  (1261) 
24

>  <MASS SPECTRAL PEAKS>  (1261) 
14 1.58
15 4
26 5.77
27 21.21
29 12.77
31 24.39
37 2.62
38 5.08
39 26.95
40 3.77
41 14.13
42 12.23
43 29.43
44 99.99
45 3.26
50 1.93
51 1.95
53 4.23
54 3.07
55 17.26
56 1.53
57 4.94
67 1.67
71 1.86

$$$$

     RDKit          2D

  7  6  0  0  0  0  0  0  0  0999 V2000
    1.6238    1.6875    0.0000 C   0  0  0  0  0  0  0  0  0  0  0  0
    0.3248    3.9375    0.0000 C   0  0  0  0  0  0  0  0  0  0  0  0
   -3.5724    1.6875    0.0000 C   0  0  0  0  0  0  0  0  0  0  0  0
   -2.2733    3.9375    0.0000 C   0  0  0  0  0  0  0  0  0  0  0  0
   -0.9743    1.6875    0.0000 N   0  0  0  0  0  0  0  0  0  0  0  0
    0.3248    2.4375    0.0000 Si  0  0  0  0  0  4  0  0  0  0  0  0
   -2.2733    2.4375    0.0000 Si  0  0  0  0  0  4  0  0  0  0  0  0
  6  1  1  0
  6  2  1  0
  6  5  1  0
  7  3  1  0
  7  4  1  0
  7  5  1  0
M  END
>  <NAME>  (1262) 
1,1,3,3-TETRAMETHYLDISILAZANE

>  <SYNONYMS>  (1262) 


>  <SPECTRUM TYPE>  (1262) 
MS1

>  <INSTRUMENT TYPE>  (1262) 
EI-B

>  <INSTRUMENT>  (1262) 
HITACHI M-80A

>  <ION MODE>  (1262) 
P

>  <INCHIKEY>  (1262) 
NQCZAYQXPJEPDS-UHFFFAOYSA-N

>  <FORMULA>  (1262) 
C4H15NSi2

>  <EXACT MASS>  (1262) 
133.07430254

>  <MW>  (1262) 
133

>  <ID>  (1262) 
JP010320

>  <CONTRIBUTOR>  (1262) 
University of Tokyo Team, {Faculty of Engineering, University of Tokyo

>  <COMMENT>  (1262) 
SMILES=C[SiH](C)N[SiH](C)C
InChI=InChI=1S/C4H15NSi2/c1-6(2)5-7(3)4/h5-7H,1-4H3
computed SMILES=N([SiH](C)C)[SiH](C)C
accession=JP010320
date=2016.01.19 (Created 2008.10.21, modified 2011.05.06)
author=TAJIMA S, GUNMA COLLEGE OF TECHNOLOGY
license=CC BY-NC-SA
exact mass=133.0743
ionization energy=70 eV
ion type=[M]+*
computed spectral entropy=3.0575911843426273
computed normalized entropy=0.7986099683157767
SPLASH=splash10-014i-5900000000-bd788936de8598a3845b
submitter=submitter = University of Tokyo Team (Faculty of Engineering, University of Tokyo)
MoNA Rating=3.75

>  <NUM PEAKS>  (1262) 
46

>  <MASS SPECTRAL PEAKS>  (1262) 
15 25.11
26 1.97
27 5.92
29 4.3
31 2.8
42 2.29
43 16.43
44 3.18
45 7.56
46 1.08
51 1.17
52 1.23
56 1.79
57 1.78
58 5.65
59 15.3
60 2.65
61 1.75
70 6.58
71 1.64
72 4.43
73 14.58
74 4.41
75 2.53
85 1.35
86 6.42
87 1.52
88 1.7
89 1.06
100 7.09
101 1.21
102 12.76
103 2.53
104 1.49
116 27.87
117 5.32
118 99.99
119 22
120 8.74
121 1.68
130 6.93
131 3.1
132 30.46
133 19.66
134 5.13
135 1.67

$$$$

     RDKit          2D

 12 12  0  0  1  0  0  0  0  0999 V2000
   -1.6200   -1.3100    0.0000 C   0  0  0  0  0  0  0  0  0  0  0  0
   -0.3300   -2.0600    0.0000 C   0  0  0  0  0  0  0  0  0  0  0  0
   -1.6200    0.1900    0.0000 C   0  0  0  0  0  0  0  0  0  0  0  0
    0.9700   -1.3100    0.0000 C   0  0  0  0  0  0  0  0  0  0  0  0
   -0.3300    0.9400    0.0000 C   0  0  0  0  0  0  0  0  0  0  0  0
    0.9700    0.1900    0.0000 C   0  0  0  0  0  0  0  0  0  0  0  0
   -0.3325    2.4400    0.0000 C   0  0  0  0  0  0  0  0  0  0  0  0
    2.2689    0.9402    0.0000 C   0  0  0  0  0  0  0  0  0  0  0  0
    0.9653    3.1922    0.0000 O   0  0  0  0  0  0  0  0  0  0  0  0
   -1.6328    3.1878    0.0000 O   0  0  0  0  0  0  0  0  0  0  0  0
    2.2687    2.4402    0.0000 O   0  0  0  0  0  0  0  0  0  0  0  0
    3.5681    0.1904    0.0000 O   0  0  0  0  0  0  0  0  0  0  0  0
  2  1  1  0
  3  1  1  0
  4  2  1  0
  5  3  1  0
  6  4  1  0
  6  5  1  0
  5  7  1  1
  6  8  1  6
  9  7  2  0
 10  7  1  0
 11  8  2  0
 12  8  1  0
M  END
>  <NAME>  (1263) 
TRANS-1,2-CYCLOHEXANEDICARBOXYLIC ACID

>  <SYNONYMS>  (1263) 


>  <SPECTRUM TYPE>  (1263) 
MS1

>  <INSTRUMENT TYPE>  (1263) 
EI-B

>  <INSTRUMENT>  (1263) 
HITACHI M-80A

>  <ION MODE>  (1263) 
P

>  <INCHIKEY>  (1263) 
QSAWQNUELGIYBC-PHDIDXHHSA-N

>  <FORMULA>  (1263) 
C8H12O4

>  <EXACT MASS>  (1263) 
172.073558864

>  <MW>  (1263) 
172

>  <ID>  (1263) 
JP010319

>  <CONTRIBUTOR>  (1263) 
University of Tokyo Team, {Faculty of Engineering, University of Tokyo

>  <COMMENT>  (1263) 
SMILES=OC(=O)C(C1)C(CCC1)C(O)=O
InChI=InChI=1S/C8H12O4/c9-7(10)5-3-1-2-4-6(5)8(11)12/h5-6H,1-4H2,(H,9,10)(H,11,12)/t5-,6-/m1/s1
computed SMILES=O=C(O)C1CCCCC1C(=O)O
accession=JP010319
date=2016.01.19 (Created 2008.10.21, modified 2011.05.06)
author=TAJIMA S, GUNMA COLLEGE OF TECHNOLOGY
license=CC BY-NC-SA
exact mass=172.07356
ionization energy=70 eV
ion type=[M]+*
computed spectral entropy=3.6370351443978772
computed normalized entropy=0.8504370093858672
SPLASH=splash10-003r-9200000000-c7896441aad00aa1ad06
submitter=submitter = University of Tokyo Team (Faculty of Engineering, University of Tokyo)
MoNA Rating=3.75

>  <NUM PEAKS>  (1263) 
72

>  <MASS SPECTRAL PEAKS>  (1263) 
15 2.92
17 1.1
18 4.74
19 1.09
26 4.15
27 33.49
29 14.93
31 5.54
38 2.53
39 38.98
40 5.91
41 46.1
42 4.96
43 21.7
44 1.33
45 35.49
46 1.26
47 2.19
50 3.1
51 7.38
52 4.39
53 20.73
54 27.39
55 21.55
56 10.01
57 5.05
58 1.09
59 1.12
60 7.91
61 4.32
63 1.2
65 3.84
66 7.52
67 43.54
68 17.8
69 7.96
70 1.56
71 2.41
73 19.33
74 1.68
77 7.52
78 1.63
79 17.38
80 23.96
81 99.99
82 32
83 6.99
84 1.34
85 2.6
86 5.42
87 4.12
94 1.24
95 2.49
97 5.78
98 1.5
99 19.19
100 3.37
108 19.96
109 9.34
110 4.38
111 3.2
112 2.6
113 1.54
123 1.54
126 36.41
127 7.58
128 44.82
129 3.47
136 1.86
154 9.04
155 8.55
173 1.12

$$$$

     RDKit          2D

 12 12  0  0  1  0  0  0  0  0999 V2000
   -1.6200   -1.3100    0.0000 C   0  0  0  0  0  0  0  0  0  0  0  0
   -0.3300   -2.0600    0.0000 C   0  0  0  0  0  0  0  0  0  0  0  0
   -1.6200    0.1900    0.0000 C   0  0  0  0  0  0  0  0  0  0  0  0
    0.9700   -1.3100    0.0000 C   0  0  0  0  0  0  0  0  0  0  0  0
   -0.3300    0.9400    0.0000 C   0  0  0  0  0  0  0  0  0  0  0  0
    0.9700    0.1900    0.0000 C   0  0  0  0  0  0  0  0  0  0  0  0
   -0.3325    2.4400    0.0000 C   0  0  0  0  0  0  0  0  0  0  0  0
    2.2689    0.9402    0.0000 C   0  0  0  0  0  0  0  0  0  0  0  0
    0.9653    3.1922    0.0000 O   0  0  0  0  0  0  0  0  0  0  0  0
   -1.6328    3.1878    0.0000 O   0  0  0  0  0  0  0  0  0  0  0  0
    2.2687    2.4402    0.0000 O   0  0  0  0  0  0  0  0  0  0  0  0
    3.5681    0.1904    0.0000 O   0  0  0  0  0  0  0  0  0  0  0  0
  2  1  1  0
  3  1  1  0
  4  2  1  0
  5  3  1  0
  6  4  1  0
  6  5  1  0
  5  7  1  6
  6  8  1  6
  9  7  2  0
 10  7  1  0
 11  8  2  0
 12  8  1  0
M  END
>  <NAME>  (1264) 
CIS-1,2-CYCLOHEXANEDICARBOXYLIC ACID

>  <SYNONYMS>  (1264) 


>  <SPECTRUM TYPE>  (1264) 
MS1

>  <INSTRUMENT TYPE>  (1264) 
EI-B

>  <INSTRUMENT>  (1264) 
HITACHI M-80A

>  <ION MODE>  (1264) 
P

>  <INCHIKEY>  (1264) 
QSAWQNUELGIYBC-OLQVQODUSA-N

>  <FORMULA>  (1264) 
C8H12O4

>  <EXACT MASS>  (1264) 
172.073558864

>  <MW>  (1264) 
172

>  <ID>  (1264) 
JP010318

>  <CONTRIBUTOR>  (1264) 
University of Tokyo Team, {Faculty of Engineering, University of Tokyo

>  <COMMENT>  (1264) 
SMILES=OC(=O)C([H])(C1)C([H])(CCC1)C(O)=O
InChI=InChI=1S/C8H12O4/c9-7(10)5-3-1-2-4-6(5)8(11)12/h5-6H,1-4H2,(H,9,10)(H,11,12)/t5-,6+
computed SMILES=O=C(O)C1CCCCC1C(=O)O
accession=JP010318
date=2016.01.19 (Created 2008.10.21, modified 2011.05.06)
author=TAJIMA S, GUNMA COLLEGE OF TECHNOLOGY
license=CC BY-NC-SA
exact mass=172.07356
ionization energy=70 eV
ion type=[M]+*
computed spectral entropy=3.5551746473082937
computed normalized entropy=0.8312958150977292
SPLASH=splash10-003r-9200000000-41ffb65ffa188df1330f
submitter=submitter = University of Tokyo Team (Faculty of Engineering, University of Tokyo)
MoNA Rating=3.75

>  <NUM PEAKS>  (1264) 
72

>  <MASS SPECTRAL PEAKS>  (1264) 
15 4.09
17 1.15
18 5.11
19 1.36
26 5.37
27 39.97
29 14.77
31 3.22
38 3.53
39 44.89
40 6.98
41 50.23
42 5.36
43 18.35
44 1.16
45 38.46
46 1.73
47 1.88
50 3.76
51 8.89
52 5.24
53 22.29
54 37.66
55 19.87
56 3.9
57 4.39
58 1.05
60 3.13
61 1.15
63 1.44
65 3.88
66 11.5
67 54.77
68 14.19
69 5
70 2.35
71 2.4
72 1.03
73 12.32
77 7.77
78 1.85
79 17.94
80 36.03
81 99.99
82 35.09
83 3.93
84 1.9
85 2.26
86 6.07
87 4.7
94 2.49
95 3.67
97 9.71
98 2.42
99 11.17
100 3.84
107 1.01
108 38.46
109 6.66
110 1.26
111 4.33
112 4.5
113 1.11
117 1.09
125 2.06
126 68.47
127 6.98
128 5.76
136 1.9
154 12.33
155 9.19
173 1.75

$$$$

     RDKit          2D

  5  4  0  0  0  0  0  0  0  0999 V2000
   -3.8971    2.2500    0.0000 C   0  0  0  0  0  0  0  0  0  0  0  0
   -2.5981    1.5000    0.0000 C   0  0  0  0  0  0  0  0  0  0  0  0
   -1.2990    2.2500    0.0000 C   0  0  0  0  0  0  0  0  0  0  0  0
    0.0000    1.5000    0.0000 C   0  0  0  0  0  0  0  0  0  0  0  0
    1.2990    2.2500    0.0000 O   0  0  0  0  0  0  0  0  0  0  0  0
  2  1  2  0
  3  2  1  0
  4  3  1  0
  5  4  1  0
M  END
>  <NAME>  (1265) 
3-BUTEN-1-OL

>  <SYNONYMS>  (1265) 


>  <SPECTRUM TYPE>  (1265) 
MS1

>  <INSTRUMENT TYPE>  (1265) 
EI-B

>  <INSTRUMENT>  (1265) 
HITACHI M-80A

>  <ION MODE>  (1265) 
P

>  <INCHIKEY>  (1265) 
ZSPTYLOMNJNZNG-UHFFFAOYSA-N

>  <FORMULA>  (1265) 
C4H8O

>  <EXACT MASS>  (1265) 
72.057514876

>  <MW>  (1265) 
72

>  <ID>  (1265) 
JP010317

>  <CONTRIBUTOR>  (1265) 
University of Tokyo Team, {Faculty of Engineering, University of Tokyo

>  <COMMENT>  (1265) 
SMILES=C=CCCO
InChI=InChI=1S/C4H8O/c1-2-3-4-5/h2,5H,1,3-4H2
computed SMILES=OCCC=C
accession=JP010317
date=2016.01.19 (Created 2008.10.21, modified 2011.05.06)
author=TAJIMA S, GUNMA COLLEGE OF TECHNOLOGY
license=CC BY-NC-SA
exact mass=72.05751
ionization energy=70 eV
ion type=[M]+*
computed spectral entropy=2.700168580701917
computed normalized entropy=0.7863071176197787
SPLASH=splash10-0006-9000000000-b4f2297de4a5af519e4a
submitter=submitter = University of Tokyo Team (Faculty of Engineering, University of Tokyo)
MoNA Rating=3.75

>  <NUM PEAKS>  (1265) 
31

>  <MASS SPECTRAL PEAKS>  (1265) 
15 15.71
17 1.2
18 3.9
19 1.09
25 2.9
26 17.43
27 43.91
28 5.43
29 27.07
30 3.25
31 99.46
37 9.32
38 15.33
39 73.88
40 13.78
41 47.64
42 99.99
43 51.97
44 11.16
45 1.36
49 1.43
50 6.23
51 6.12
52 1.64
53 4.63
54 4.8
55 2.39
57 8.23
58 7.14
71 2.56
72 7.59

$$$$

     RDKit          2D

  5  4  0  0  0  0  0  0  0  0999 V2000
   -0.0000   -0.0000    0.0000 C   0  0  0  0  0  0  0  0  0  0  0  0
   -1.2990    3.7500    0.0000 C   0  0  0  0  0  0  0  0  0  0  0  0
    0.0000    1.5000    0.0000 C   0  0  0  0  0  0  0  0  0  0  0  0
   -1.2990    2.2500    0.0000 C   0  0  0  0  0  0  0  0  0  0  0  0
   -2.5981    1.5000    0.0000 O   0  0  0  0  0  0  0  0  0  0  0  0
  3  1  2  0
  4  2  1  0
  4  3  1  0
  5  4  1  0
M  END
>  <NAME>  (1266) 
1-BUTEN-3-OL

>  <SYNONYMS>  (1266) 


>  <SPECTRUM TYPE>  (1266) 
MS1

>  <INSTRUMENT TYPE>  (1266) 
EI-B

>  <INSTRUMENT>  (1266) 
HITACHI M-80A

>  <ION MODE>  (1266) 
P

>  <INCHIKEY>  (1266) 
MKUWVMRNQOOSAT-UHFFFAOYSA-N

>  <FORMULA>  (1266) 
C4H8O

>  <EXACT MASS>  (1266) 
72.057514876

>  <MW>  (1266) 
72

>  <ID>  (1266) 
JP010316

>  <CONTRIBUTOR>  (1266) 
University of Tokyo Team, {Faculty of Engineering, University of Tokyo

>  <COMMENT>  (1266) 
SMILES=C=CC(C)O
InChI=InChI=1S/C4H8O/c1-3-4(2)5/h3-5H,1H2,2H3
computed SMILES=OC(C=C)C
accession=JP010316
date=2016.01.19 (Created 2008.10.21, modified 2011.05.06)
author=TAJIMA S, GUNMA COLLEGE OF TECHNOLOGY
license=CC BY-NC-SA
exact mass=72.05751
ionization energy=70 eV
ion type=[M]+*
computed spectral entropy=2.600246650162291
computed normalized entropy=0.7502725894554553
SPLASH=splash10-054o-9000000000-3b3aa4347cce7dbda0b2
submitter=submitter = University of Tokyo Team (Faculty of Engineering, University of Tokyo)
MoNA Rating=3.75

>  <NUM PEAKS>  (1266) 
32

>  <MASS SPECTRAL PEAKS>  (1266) 
14 2.68
15 11.36
17 1.25
18 4.68
19 3.59
25 1.34
26 11.59
27 41.22
29 36.3
31 13.51
37 2.36
38 3.9
39 16.26
40 1.41
41 7.24
42 4.56
43 99.99
44 6.9
45 34.89
49 1.26
50 4.61
51 3.94
52 1.29
53 6.28
54 4.3
55 9.65
56 1.33
57 99.64
58 4.88
59 1.25
71 12.85
72 1.78

$$$$

     RDKit          2D

 10 10  0  0  0  0  0  0  0  0999 V2000
    1.6056    2.0565    0.0000 C   0  0  0  0  0  0  0  0  0  0  0  0
    0.2920   -0.1684    0.0000 C   0  0  0  0  0  0  0  0  0  0  0  0
    2.8901    1.3316    0.0000 C   0  0  0  0  0  0  0  0  0  0  0  0
    1.6165   -0.9625    0.0000 C   0  0  0  0  0  0  0  0  0  0  0  0
    0.3065    1.3065    0.0000 C   0  0  0  0  0  0  0  0  0  0  0  0
    2.9156   -0.2125    0.0000 C   0  0  0  0  0  0  0  0  0  0  0  0
   -0.9888    2.0629    0.0000 C   0  0  0  0  0  0  0  0  0  0  0  0
    4.2207   -0.9518    0.0000 O   0  0  0  0  0  0  0  0  0  0  0  0
   -2.2915    1.3193    0.0000 O   0  0  0  0  0  0  0  0  0  0  0  0
   -0.9814    3.5628    0.0000 O   0  0  0  0  0  0  0  0  0  0  0  0
  3  1  2  0
  4  2  1  0
  5  1  1  0
  5  2  2  0
  6  3  1  0
  6  4  2  0
  7  5  1  0
  8  6  1  0
  9  7  1  0
 10  7  2  0
M  END
>  <NAME>  (1267) 
PARA-HYDROXYBENZOIC ACID

>  <SYNONYMS>  (1267) 


>  <SPECTRUM TYPE>  (1267) 
MS1

>  <INSTRUMENT TYPE>  (1267) 
EI-B

>  <INSTRUMENT>  (1267) 
HITACHI M-80A

>  <ION MODE>  (1267) 
P

>  <INCHIKEY>  (1267) 
FJKROLUGYXJWQN-UHFFFAOYSA-N

>  <FORMULA>  (1267) 
C7H6O3

>  <EXACT MASS>  (1267) 
138.03169405199998

>  <MW>  (1267) 
138

>  <ID>  (1267) 
JP010315

>  <CONTRIBUTOR>  (1267) 
University of Tokyo Team, {Faculty of Engineering, University of Tokyo

>  <COMMENT>  (1267) 
SMILES=Oc(c1)ccc(c1)C(O)=O
InChI=InChI=1S/C7H6O3/c8-6-3-1-5(2-4-6)7(9)10/h1-4,8H,(H,9,10)
computed SMILES=O=C(O)C1=CC=C(O)C=C1
computed spectral entropy=2.267486046095905
accession=JP010315
date=2016.01.19 (Created 2008.10.21, modified 2011.05.06)
author=TAJIMA S, GUNMA COLLEGE OF TECHNOLOGY
license=CC BY-NC-SA
exact mass=138.03169
ionization energy=70 eV
ion type=[M]+*
computed normalized entropy=0.6879849149951607
SPLASH=splash10-00dr-4900000000-97bfa38b0d6bc152d470
submitter=submitter = University of Tokyo Team (Faculty of Engineering, University of Tokyo)
MoNA Rating=3.75

>  <NUM PEAKS>  (1267) 
27

>  <MASS SPECTRAL PEAKS>  (1267) 
27 1.72
29 2.5
37 1.62
38 3.45
39 13.63
45 4.38
50 1.64
51 1.09
53 3.05
55 1.71
61 1.18
62 2.74
63 8.5
64 2.54
65 17.02
66 1.9
81 1.68
92 1.58
93 7
95 1.24
105 1.52
110 1.57
121 99.99
122 10.34
138 38.57
139 24.66
140 2.05

$$$$

     RDKit          2D

 11 11  0  0  0  0  0  0  0  0999 V2000
    1.9487   -3.0002    0.0000 C   0  0  0  0  0  0  0  0  0  0  0  0
   -1.9500    0.7500    0.0000 C   0  0  0  0  0  0  0  0  0  0  0  0
   -1.9500   -0.7500    0.0000 C   0  0  0  0  0  0  0  0  0  0  0  0
   -0.6500    1.5000    0.0000 C   0  0  0  0  0  0  0  0  0  0  0  0
   -0.6500   -1.5000    0.0000 C   0  0  0  0  0  0  0  0  0  0  0  0
    0.6500    0.7500    0.0000 C   0  0  0  0  0  0  0  0  0  0  0  0
    0.6500   -0.7500    0.0000 C   0  0  0  0  0  0  0  0  0  0  0  0
    1.9489    1.5002    0.0000 C   0  0  0  0  0  0  0  0  0  0  0  0
    3.2481    0.7504    0.0000 O   0  0  0  0  0  0  0  0  0  0  0  0
    1.9487    3.0002    0.0000 O   0  0  0  0  0  0  0  0  0  0  0  0
    1.9489   -1.5002    0.0000 O   0  0  0  0  0  0  0  0  0  0  0  0
  3  2  2  0
  4  2  1  0
  5  3  1  0
  6  4  2  0
  7  5  2  0
  7  6  1  0
  8  6  1  0
  9  8  2  0
 10  8  1  0
 11  1  1  0
 11  7  1  0
M  END
>  <NAME>  (1268) 
ORTHO-METHOXYBENZOIC ACID

>  <SYNONYMS>  (1268) 


>  <SPECTRUM TYPE>  (1268) 
MS1

>  <INSTRUMENT TYPE>  (1268) 
EI-B

>  <INSTRUMENT>  (1268) 
HITACHI M-80A

>  <ION MODE>  (1268) 
P

>  <INCHIKEY>  (1268) 
ILUJQPXNXACGAN-UHFFFAOYSA-N

>  <FORMULA>  (1268) 
C8H8O3

>  <EXACT MASS>  (1268) 
152.04734411599998

>  <MW>  (1268) 
152

>  <ID>  (1268) 
JP010314

>  <CONTRIBUTOR>  (1268) 
University of Tokyo Team, {Faculty of Engineering, University of Tokyo

>  <COMMENT>  (1268) 
SMILES=COc(c1)c(ccc1)C(O)=O
InChI=InChI=1S/C8H8O3/c1-11-7-5-3-2-4-6(7)8(9)10/h2-5H,1H3,(H,9,10)
computed SMILES=O=C(O)C=1C=CC=CC1OC
accession=JP010314
date=2016.01.19 (Created 2008.10.21, modified 2011.05.06)
author=TAJIMA S, GUNMA COLLEGE OF TECHNOLOGY
license=CC BY-NC-SA
exact mass=152.04734
ionization energy=70 eV
ion type=[M]+*
computed spectral entropy=3.427393913646434
computed normalized entropy=0.8552804958361868
SPLASH=splash10-0pki-9600000000-fbe367b85c1ed8dc75aa
submitter=submitter = University of Tokyo Team (Faculty of Engineering, University of Tokyo)
MoNA Rating=3.75

>  <NUM PEAKS>  (1268) 
55

>  <MASS SPECTRAL PEAKS>  (1268) 
15 22.86
26 2.31
27 7.78
29 8.19
30 1.55
31 4.17
37 5.84
38 15.19
39 29.11
40 1.37
45 12.65
49 1.95
50 20.34
51 22.18
52 4.71
53 9.52
55 2.24
61 3.75
62 9.02
63 28.69
64 20.71
65 21.1
66 2.79
73 1.55
74 8.02
75 5.21
76 14.32
77 57.77
78 15.89
79 40.08
80 3.04
81 13.83
90 2.64
91 1.65
92 32.31
93 6.59
94 2.62
104 4.01
105 99.99
106 13.9
107 8.46
108 1.16
109 2.69
119 1.1
120 5.22
121 4.66
122 4
123 53.06
124 4.22
133 9.18
134 7.88
135 30.87
136 3.2
152 63.93
153 8.24

$$$$

     RDKit          2D

 12 13  0  0  0  0  0  0  0  0999 V2000
    4.8381    0.6104    0.0000 C   0  0  0  0  0  0  0  0  0  0  0  0
   -2.9500   -0.8900    0.0000 C   0  0  0  0  0  0  0  0  0  0  0  0
   -2.9500    0.6100    0.0000 C   0  0  0  0  0  0  0  0  0  0  0  0
   -1.6500   -1.6400    0.0000 C   0  0  0  0  0  0  0  0  0  0  0  0
   -1.6500    1.3600    0.0000 C   0  0  0  0  0  0  0  0  0  0  0  0
    0.9400   -1.6400    0.0000 C   0  0  0  0  0  0  0  0  0  0  0  0
    2.2400   -0.8900    0.0000 C   0  0  0  0  0  0  0  0  0  0  0  0
    0.9400    1.3600    0.0000 C   0  0  0  0  0  0  0  0  0  0  0  0
   -0.3500   -0.8900    0.0000 C   0  0  0  0  0  0  0  0  0  0  0  0
   -0.3500    0.6100    0.0000 C   0  0  0  0  0  0  0  0  0  0  0  0
    2.2400    0.6100    0.0000 C   0  0  0  0  0  0  0  0  0  0  0  0
    3.5389    1.3602    0.0000 O   0  0  0  0  0  0  0  0  0  0  0  0
  3  2  2  0
  4  2  1  0
  5  3  1  0
  7  6  2  0
  9  4  2  0
  9  6  1  0
 10  5  2  0
 10  8  1  0
 10  9  1  0
 11  7  1  0
 11  8  2  0
 12  1  1  0
 12 11  1  0
M  END
>  <NAME>  (1269) 
2-METHOXYNAPHTHALENE

>  <SYNONYMS>  (1269) 


>  <SPECTRUM TYPE>  (1269) 
MS1

>  <INSTRUMENT TYPE>  (1269) 
EI-B

>  <INSTRUMENT>  (1269) 
HITACHI M-80A

>  <ION MODE>  (1269) 
P

>  <INCHIKEY>  (1269) 
LUZDYPLAQQGJEA-UHFFFAOYSA-N

>  <FORMULA>  (1269) 
C11H10O

>  <EXACT MASS>  (1269) 
158.07316494

>  <MW>  (1269) 
158

>  <ID>  (1269) 
JP010313

>  <CONTRIBUTOR>  (1269) 
University of Tokyo Team, {Faculty of Engineering, University of Tokyo

>  <COMMENT>  (1269) 
SMILES=COc(c1)cc(c2)c(ccc2)c1
InChI=InChI=1S/C11H10O/c1-12-11-7-6-9-4-2-3-5-10(9)8-11/h2-8H,1H3
computed SMILES=O(C=1C=CC=2C=CC=CC2C1)C
accession=JP010313
date=2016.01.19 (Created 2008.10.21, modified 2011.05.06)
author=TAJIMA S, GUNMA COLLEGE OF TECHNOLOGY
license=CC BY-NC-SA
exact mass=158.07316
ionization energy=70 eV
ion type=[M]+*
computed spectral entropy=2.2891933799250355
computed normalized entropy=0.6798313826600233
SPLASH=splash10-0aor-2900000000-84b3e0628bd2f527ae1b
submitter=submitter = University of Tokyo Team (Faculty of Engineering, University of Tokyo)
MoNA Rating=3.75

>  <NUM PEAKS>  (1269) 
29

>  <MASS SPECTRAL PEAKS>  (1269) 
15 8.24
29 1.51
38 1.49
39 12.22
50 1.98
51 2.15
62 2.02
63 5.07
65 2.63
74 2.2
75 2.55
76 1.17
77 1.91
87 1.73
88 1.81
89 5.19
113 1.8
114 2.99
115 62.36
116 6.93
126 1.96
127 3.78
128 8.39
129 2.88
143 5.23
144 7.21
158 99.99
159 12.5
160 1.25

$$$$

     RDKit          2D

 16 15  0  0  0  0  0  0  0  0999 V2000
    4.5466    7.8750    0.0000 C   0  0  0  0  0  0  0  0  0  0  0  0
  -13.6399    7.8750    0.0000 C   0  0  0  0  0  0  0  0  0  0  0  0
    3.2476    8.6250    0.0000 C   0  0  0  0  0  0  0  0  0  0  0  0
    1.9486    7.8750    0.0000 C   0  0  0  0  0  0  0  0  0  0  0  0
    0.6495    8.6250    0.0000 C   0  0  0  0  0  0  0  0  0  0  0  0
   -0.6495    7.8750    0.0000 C   0  0  0  0  0  0  0  0  0  0  0  0
   -1.9486    8.6250    0.0000 C   0  0  0  0  0  0  0  0  0  0  0  0
   -3.2476    7.8750    0.0000 C   0  0  0  0  0  0  0  0  0  0  0  0
   -4.5466    8.6250    0.0000 C   0  0  0  0  0  0  0  0  0  0  0  0
   -5.8457    7.8750    0.0000 C   0  0  0  0  0  0  0  0  0  0  0  0
   -7.1447    8.6250    0.0000 C   0  0  0  0  0  0  0  0  0  0  0  0
   -8.4437    7.8750    0.0000 C   0  0  0  0  0  0  0  0  0  0  0  0
   -9.7428    8.6250    0.0000 C   0  0  0  0  0  0  0  0  0  0  0  0
  -12.3409    8.6250    0.0000 C   0  0  0  0  0  0  0  0  0  0  0  0
  -12.3409   10.1250    0.0000 O   0  0  0  0  0  0  0  0  0  0  0  0
  -11.0418    7.8750    0.0000 O   0  0  0  0  0  0  0  0  0  0  0  0
  3  1  1  0
  4  3  1  0
  5  4  1  0
  6  5  1  0
  7  6  1  0
  8  7  1  0
  9  8  1  0
 10  9  1  0
 11 10  1  0
 12 11  1  0
 13 12  1  0
 14  2  1  0
 15 14  2  0
 16 13  1  0
 16 14  1  0
M  END
>  <NAME>  (1270) 
DODECYL ACETATE

>  <SYNONYMS>  (1270) 


>  <SPECTRUM TYPE>  (1270) 
MS1

>  <INSTRUMENT TYPE>  (1270) 
EI-B

>  <INSTRUMENT>  (1270) 
HITACHI M-80A

>  <ION MODE>  (1270) 
P

>  <INCHIKEY>  (1270) 
VZWGRQBCURJOMT-UHFFFAOYSA-N

>  <FORMULA>  (1270) 
C14H28O2

>  <EXACT MASS>  (1270) 
228.208930136

>  <MW>  (1270) 
228

>  <ID>  (1270) 
JP010312

>  <CONTRIBUTOR>  (1270) 
University of Tokyo Team, {Faculty of Engineering, University of Tokyo

>  <COMMENT>  (1270) 
SMILES=CCCCCCCCCCCCOC(C)=O
InChI=InChI=1S/C14H28O2/c1-3-4-5-6-7-8-9-10-11-12-13-16-14(2)15/h3-13H2,1-2H3
computed SMILES=O=C(OCCCCCCCCCCCC)C
accession=JP010312
date=2016.01.19 (Created 2008.10.21, modified 2011.05.06)
author=TAJIMA S, GUNMA COLLEGE OF TECHNOLOGY
license=CC BY-NC-SA
exact mass=228.20893
ionization energy=70 eV
ion type=[M]+*
computed spectral entropy=2.6759843886649035
computed normalized entropy=0.7721258814046281
SPLASH=splash10-052f-9000000000-64ad0560576ca0778cb8
submitter=submitter = University of Tokyo Team (Faculty of Engineering, University of Tokyo)
MoNA Rating=3.75

>  <NUM PEAKS>  (1270) 
32

>  <MASS SPECTRAL PEAKS>  (1270) 
26 1.43
27 3.66
29 5.35
38 1.32
39 5.58
40 1.61
41 21.69
42 6.46
43 99.99
44 2.92
53 1.38
54 3.31
55 20.3
56 15.02
57 12.72
58 13.47
59 1.35
61 12.08
67 2.86
68 4.09
69 11.32
70 9.48
71 3.53
73 1.89
82 4.22
83 8.79
84 5.54
85 1.71
96 1.37
97 4.78
98 2.84
111 1.22

$$$$

     RDKit          2D

 10 10  0  0  0  0  0  0  0  0999 V2000
   -1.3000    0.7500    0.0000 C   0  0  0  0  0  0  0  0  0  0  0  0
    0.0000    1.5000    0.0000 C   0  0  0  0  0  0  0  0  0  0  0  0
   -1.3000   -0.7500    0.0000 C   0  0  0  0  0  0  0  0  0  0  0  0
    1.3000    0.7500    0.0000 C   0  0  0  0  0  0  0  0  0  0  0  0
    0.0000   -1.5000    0.0000 C   0  0  0  0  0  0  0  0  0  0  0  0
    1.3000   -0.7500    0.0000 C   0  0  0  0  0  0  0  0  0  0  0  0
    1.8487   -2.7991    0.0000 O   0  0  0  0  0  0  0  0  0  0  0  0
    3.8978   -2.2504    0.0000 O   0  0  0  0  0  0  0  0  0  0  0  0
    3.3491   -0.2013    0.0000 O   0  0  0  0  0  0  0  0  0  0  0  0
    2.5989   -1.5002    0.0000 P   0  0  0  0  0  0  0  0  0  0  0  0
  2  1  2  0
  3  1  1  0
  4  2  1  0
  5  3  2  0
  6  4  2  0
  6  5  1  0
 10  6  1  0
 10  7  1  0
 10  8  1  0
 10  9  2  0
M  END
>  <NAME>  (1271) 
PHENYLPHOSPHONIC ACID

>  <SYNONYMS>  (1271) 


>  <SPECTRUM TYPE>  (1271) 
MS1

>  <INSTRUMENT TYPE>  (1271) 
EI-B

>  <INSTRUMENT>  (1271) 
HITACHI M-80A

>  <ION MODE>  (1271) 
P

>  <INCHIKEY>  (1271) 
QLZHNIAADXEJJP-UHFFFAOYSA-N

>  <FORMULA>  (1271) 
C6H7O3P

>  <EXACT MASS>  (1271) 
158.013280714

>  <MW>  (1271) 
158

>  <ID>  (1271) 
JP010311

>  <CONTRIBUTOR>  (1271) 
University of Tokyo Team, {Faculty of Engineering, University of Tokyo

>  <COMMENT>  (1271) 
SMILES=c(c1)ccc(c1)P(O)(O)=O
InChI=InChI=1S/C6H7O3P/c7-10(8,9)6-4-2-1-3-5-6/h1-5H,(H2,7,8,9)
computed SMILES=O=P(O)(O)C=1C=CC=CC1
accession=JP010311
date=2016.01.19 (Created 2008.10.21, modified 2011.05.06)
author=TAJIMA S, GUNMA COLLEGE OF TECHNOLOGY
license=CC BY-NC-SA
exact mass=158.01328
ionization energy=70 eV
ion type=[M]+*
computed spectral entropy=2.2865674295806953
computed normalized entropy=0.7194866895411752
SPLASH=splash10-0006-9200000000-eaf81fa8360b13c0704d
submitter=submitter = University of Tokyo Team (Faculty of Engineering, University of Tokyo)
MoNA Rating=3.75

>  <NUM PEAKS>  (1271) 
24

>  <MASS SPECTRAL PEAKS>  (1271) 
38 1.29
39 3.94
47 4.91
50 8.71
51 16.12
52 1.57
63 1.95
64 1.63
65 5.87
66 9.86
74 4.52
75 2.87
76 3.69
77 16.77
78 5.94
81 8.06
93 1.49
94 99.99
95 6.94
139 1.78
140 1.66
141 1.97
158 41.43
159 4.88

$$$$

     RDKit          2D

  6  5  0  0  0  0  0  0  0  0999 V2000
   -0.0000   -0.0000    0.0000 C   0  0  0  0  0  0  0  0  0  0  0  0
   -0.0000    1.5000    0.0000 C   0  0  0  0  0  0  0  0  0  0  0  0
   -1.2990    2.2500    0.0000 C   0  0  0  0  0  0  0  0  0  0  0  0
    1.2990    2.2500    0.0000 N   0  0  0  0  0  0  0  0  0  0  0  0
   -2.5981    1.5000    0.0000 O   0  0  0  0  0  0  0  0  0  0  0  0
   -1.2990    3.7500    0.0000 O   0  0  0  0  0  0  0  0  0  0  0  0
  2  1  1  0
  3  2  1  0
  4  2  1  0
  5  3  2  0
  6  3  1  0
M  END
>  <NAME>  (1272) 
DL-ALANINE

>  <SYNONYMS>  (1272) 


>  <SPECTRUM TYPE>  (1272) 
MS1

>  <INSTRUMENT TYPE>  (1272) 
EI-B

>  <INSTRUMENT>  (1272) 
HITACHI M-80A

>  <ION MODE>  (1272) 
P

>  <INCHIKEY>  (1272) 
QNAYBMKLOCPYGJ-UHFFFAOYSA-N

>  <FORMULA>  (1272) 
C3H7NO2

>  <EXACT MASS>  (1272) 
89.047678464

>  <MW>  (1272) 
89

>  <ID>  (1272) 
JP010310

>  <CONTRIBUTOR>  (1272) 
University of Tokyo Team, {Faculty of Engineering, University of Tokyo

>  <COMMENT>  (1272) 
SMILES=CC(N)C(O)=O
InChI=InChI=1S/C3H7NO2/c1-2(4)3(5)6/h2H,4H2,1H3,(H,5,6)
computed SMILES=O=C(O)C(N)C
accession=JP010310
date=2016.01.19 (Created 2008.10.21, modified 2011.05.06)
author=TAJIMA S, GUNMA COLLEGE OF TECHNOLOGY
license=CC BY-NC-SA
exact mass=89.04768
ionization energy=70 eV
ion type=[M]+*
computed spectral entropy=1.7982268580926828
computed normalized entropy=0.6346951816619012
SPLASH=splash10-0006-9000000000-a06c1fe0735b0a443464
submitter=submitter = University of Tokyo Team (Faculty of Engineering, University of Tokyo)
MoNA Rating=3.75

>  <NUM PEAKS>  (1272) 
17

>  <MASS SPECTRAL PEAKS>  (1272) 
14 1
15 5.83
18 25.52
26 1.58
27 5.41
28 14.89
29 2.19
30 1.11
40 2.04
41 3.39
42 12.09
43 3.61
44 99.99
45 4.85
46 2.06
74 1.35
90 4.73

$$$$

     RDKit          2D

 14 16  0  0  0  0  0  0  0  0999 V2000
   -3.2100    1.5100    0.0000 C   0  0  0  0  0  0  0  0  0  0  0  0
    3.2100    1.5100    0.0000 C   0  0  0  0  0  0  0  0  0  0  0  0
   -3.6800    0.0700    0.0000 C   0  0  0  0  0  0  0  0  0  0  0  0
    3.6800    0.1000    0.0000 C   0  0  0  0  0  0  0  0  0  0  0  0
   -1.7500    1.8200    0.0000 C   0  0  0  0  0  0  0  0  0  0  0  0
    1.7400    1.8200    0.0000 C   0  0  0  0  0  0  0  0  0  0  0  0
   -2.6900   -1.0400    0.0000 C   0  0  0  0  0  0  0  0  0  0  0  0
    2.6900   -1.0200    0.0000 C   0  0  0  0  0  0  0  0  0  0  0  0
   -0.7600    0.7000    0.0000 C   0  0  0  0  0  0  0  0  0  0  0  0
    0.7400    0.7000    0.0000 C   0  0  0  0  0  0  0  0  0  0  0  0
   -1.2100   -0.7300    0.0000 C   0  0  0  0  0  0  0  0  0  0  0  0
    1.2200   -0.7200    0.0000 C   0  0  0  0  0  0  0  0  0  0  0  0
    0.0100   -1.6100    0.0000 C   0  0  0  0  0  0  0  0  0  0  0  0
    0.0170   -3.1100    0.0000 O   0  0  0  0  0  0  0  0  0  0  0  0
  3  1  2  0
  4  2  2  0
  5  1  1  0
  6  2  1  0
  7  3  1  0
  8  4  1  0
  9  5  2  0
 10  6  2  0
 10  9  1  0
 11  7  2  0
 11  9  1  0
 12  8  2  0
 12 10  1  0
 13 11  1  0
 13 12  1  0
 14 13  2  0
M  END
>  <NAME>  (1273) 
9-FLUORENONE

>  <SYNONYMS>  (1273) 


>  <SPECTRUM TYPE>  (1273) 
MS1

>  <INSTRUMENT TYPE>  (1273) 
EI-B

>  <INSTRUMENT>  (1273) 
HITACHI M-80A

>  <ION MODE>  (1273) 
P

>  <INCHIKEY>  (1273) 
YLQWCDOCJODRMT-UHFFFAOYSA-N

>  <FORMULA>  (1273) 
C13H8O

>  <EXACT MASS>  (1273) 
180.057514876

>  <MW>  (1273) 
180

>  <ID>  (1273) 
JP010309

>  <CONTRIBUTOR>  (1273) 
University of Tokyo Team, {Faculty of Engineering, University of Tokyo

>  <COMMENT>  (1273) 
SMILES=O=C(c21)c(c3)c(ccc3)c(cccc2)1
InChI=InChI=1S/C13H8O/c14-13-11-7-3-1-5-9(11)10-6-2-4-8-12(10)13/h1-8H
computed SMILES=O=C1C=2C=CC=CC2C=3C=CC=CC13
accession=JP010309
date=2016.01.19 (Created 2008.10.21, modified 2011.05.06)
author=TAJIMA S, GUNMA COLLEGE OF TECHNOLOGY
license=CC BY-NC-SA
exact mass=180.05751
ionization energy=70 eV
ion type=[M]+*
computed spectral entropy=2.322948787228419
computed normalized entropy=0.7048130358601821
SPLASH=splash10-001i-2900000000-9d93c2c3e73934a67ec9
submitter=submitter = University of Tokyo Team (Faculty of Engineering, University of Tokyo)
MoNA Rating=3.75

>  <NUM PEAKS>  (1273) 
27

>  <MASS SPECTRAL PEAKS>  (1273) 
27 1.69
38 1.29
39 4.53
50 4.76
51 3.57
62 2.39
63 7.75
74 4.9
75 6.12
76 12.19
77 1.4
86 1.75
87 2.67
90 1.52
98 2.09
99 1.95
100 1
102 1.62
125 1.53
126 5.4
150 8.47
151 14
152 32.87
153 4.31
180 99.99
181 14.92
182 1.27

$$$$

     RDKit          2D

 10 10  0  0  0  0  0  0  0  0999 V2000
    0.9737   -1.6804    0.0000 C   0  0  0  0  0  0  0  0  0  0  0  0
   -0.3254   -0.9304    0.0000 C   0  0  0  0  0  0  0  0  0  0  0  0
    2.2682   -0.9382    0.0000 C   0  0  0  0  0  0  0  0  0  0  0  0
    0.9696    1.3126    0.0000 C   0  0  0  0  0  0  0  0  0  0  0  0
   -0.3299    0.5618    0.0000 C   0  0  0  0  0  0  0  0  0  0  0  0
    2.2687    0.5626    0.0000 C   0  0  0  0  0  0  0  0  0  0  0  0
   -1.6302    1.3096    0.0000 C   0  0  0  0  0  0  0  0  0  0  0  0
    3.5678    1.3124    0.0000 N   0  0  0  0  0  0  0  0  0  0  0  0
   -1.6327    2.8096    0.0000 O   0  0  0  0  0  0  0  0  0  0  0  0
   -2.9280    0.5574    0.0000 O   0  0  0  0  0  0  0  0  0  0  0  0
  2  1  2  0
  3  1  1  0
  5  2  1  0
  5  4  2  0
  6  3  2  0
  6  4  1  0
  7  5  1  0
  8  6  1  0
  9  7  2  0
 10  7  1  0
M  END
>  <NAME>  (1274) 
META-AMINOBENZOIC ACID

>  <SYNONYMS>  (1274) 
3-AMINOBENZOIC ACID

>  <SPECTRUM TYPE>  (1274) 
MS1

>  <INSTRUMENT TYPE>  (1274) 
EI-B

>  <INSTRUMENT>  (1274) 
HITACHI M-80A

>  <ION MODE>  (1274) 
P

>  <INCHIKEY>  (1274) 
XFDUHJPVQKIXHO-UHFFFAOYSA-N

>  <FORMULA>  (1274) 
C7H7NO2

>  <EXACT MASS>  (1274) 
137.047678464

>  <MW>  (1274) 
137

>  <ID>  (1274) 
JP010308

>  <CONTRIBUTOR>  (1274) 
University of Tokyo Team, {Faculty of Engineering, University of Tokyo

>  <COMMENT>  (1274) 
SMILES=Nc(c1)cc(cc1)C(O)=O
InChI=InChI=1S/C7H7NO2/c8-6-3-1-2-5(4-6)7(9)10/h1-4H,8H2,(H,9,10)
computed SMILES=O=C(O)C=1C=CC=C(N)C1
accession=JP010308
date=2016.01.19 (Created 2008.10.21, modified 2011.05.06)
author=TAJIMA S, GUNMA COLLEGE OF TECHNOLOGY
license=CC BY-NC-SA
exact mass=137.04768
ionization energy=70 eV
ion type=[M]+*
computed spectral entropy=2.348024512855347
computed normalized entropy=0.6903523228363402
SPLASH=splash10-000i-4900000000-e768f284b0ad9fa688a5
submitter=submitter = University of Tokyo Team (Faculty of Engineering, University of Tokyo)
MoNA Rating=3.75

>  <NUM PEAKS>  (1274) 
30

>  <MASS SPECTRAL PEAKS>  (1274) 
27 1.09
28 2.77
37 1.16
38 3.07
39 9.44
40 1.1
41 2.14
45 4.61
50 1.29
51 1.12
52 2.67
53 1.54
54 1.63
62 1.5
63 6.24
64 2.48
65 14.83
66 2.96
80 3.92
81 1.12
91 3.15
92 13.28
93 2.93
94 2.7
109 3.76
120 39.24
121 3.22
137 99.99
138 22.14
139 1.81

$$$$

     RDKit          2D

 11 12  0  0  0  0  0  0  0  0999 V2000
   -2.3100   -0.7500    0.0000 C   0  0  0  0  0  0  0  0  0  0  0  0
   -2.3100    0.7500    0.0000 C   0  0  0  0  0  0  0  0  0  0  0  0
   -1.0100   -1.5000    0.0000 C   0  0  0  0  0  0  0  0  0  0  0  0
   -1.0100    1.5000    0.0000 C   0  0  0  0  0  0  0  0  0  0  0  0
    0.2900   -0.7500    0.0000 C   0  0  0  0  0  0  0  0  0  0  0  0
    0.2900    0.7500    0.0000 C   0  0  0  0  0  0  0  0  0  0  0  0
    1.7200   -1.2100    0.0000 C   0  0  0  0  0  0  0  0  0  0  0  0
    1.7200    1.2100    0.0000 C   0  0  0  0  0  0  0  0  0  0  0  0
    2.6000    0.0000    0.0000 N   0  0  0  0  0  0  0  0  0  0  0  0
    2.1853   -2.6360    0.0000 O   0  0  0  0  0  0  0  0  0  0  0  0
    2.1853    2.6360    0.0000 O   0  0  0  0  0  0  0  0  0  0  0  0
  2  1  2  0
  3  1  1  0
  4  2  1  0
  5  3  2  0
  6  4  2  0
  6  5  1  0
  7  5  1  0
  8  6  1  0
  9  7  2  0
  9  8  1  0
 10  7  1  0
 11  8  2  0
M  END
>  <NAME>  (1275) 
PHTHALIMIDE

>  <SYNONYMS>  (1275) 


>  <SPECTRUM TYPE>  (1275) 
MS1

>  <INSTRUMENT TYPE>  (1275) 
EI-B

>  <INSTRUMENT>  (1275) 
HITACHI M-80A

>  <ION MODE>  (1275) 
P

>  <INCHIKEY>  (1275) 
XKJCHHZQLQNZHY-UHFFFAOYSA-N

>  <FORMULA>  (1275) 
C8H5NO2

>  <EXACT MASS>  (1275) 
147.0320284

>  <MW>  (1275) 
147

>  <ID>  (1275) 
JP010307

>  <CONTRIBUTOR>  (1275) 
University of Tokyo Team, {Faculty of Engineering, University of Tokyo

>  <COMMENT>  (1275) 
SMILES=C1=CC=C2C(=C1)C(=O)NC2=O
InChI=InChI=1S/C8H5NO2/c10-7-5-3-1-2-4-6(5)8(11)9-7/h1-4H,(H,9,10,11)
computed SMILES=O=C1N=C(O)C=2C=CC=CC12
accession=JP010307
date=2016.01.19 (Created 2008.10.21, modified 2011.05.06)
author=TAJIMA S, GUNMA COLLEGE OF TECHNOLOGY
license=CC BY-NC-SA
exact mass=147.03203
ionization energy=70 eV
ion type=[M]+*
computed spectral entropy=2.760090752589807
computed normalized entropy=0.7482192863504066
SPLASH=splash10-0ufr-9500000000-5c5173e2a83219dfd6be
submitter=submitter = University of Tokyo Team (Faculty of Engineering, University of Tokyo)
MoNA Rating=3.75

>  <NUM PEAKS>  (1275) 
40

>  <MASS SPECTRAL PEAKS>  (1275) 
26 3.04
27 2.71
29 2.05
30 1.42
37 6
38 8.02
39 3.77
42 1.1
43 13.83
44 3.04
45 1.27
49 4.15
50 34.96
51 3.64
52 3.89
53 2.59
59 1.95
61 2.61
62 2.33
63 4.59
64 3.03
65 1.01
66 3.47
70 2.1
73 5.63
74 24.77
75 22.09
76 99.99
77 9.42
90 4.12
91 1.31
92 2.83
102 1.06
103 40.16
104 72.51
105 5.31
122 1.72
147 54.66
148 6.15
150 1.23

$$$$

     RDKit          2D

 11 11  0  0  0  0  0  0  0  0999 V2000
    0.9721    3.5563    0.0000 C   0  0  0  0  0  0  0  0  0  0  0  0
    2.2711    2.8063    0.0000 C   0  0  0  0  0  0  0  0  0  0  0  0
   -0.3224    2.8142    0.0000 C   0  0  0  0  0  0  0  0  0  0  0  0
    0.9761    0.5633    0.0000 C   0  0  0  0  0  0  0  0  0  0  0  0
    3.5760    0.5663    0.0000 C   0  0  0  0  0  0  0  0  0  0  0  0
    2.2757    1.3142    0.0000 C   0  0  0  0  0  0  0  0  0  0  0  0
   -0.3229    1.3133    0.0000 C   0  0  0  0  0  0  0  0  0  0  0  0
    4.8763   -0.1815    0.0000 N   0  0  0  0  0  0  0  0  0  0  0  0
   -1.6220    0.5635    0.0000 N   0  0  0  0  0  0  0  0  0  0  0  0
   -2.9210    1.3138    0.0000 O   0  0  0  0  0  0  0  0  0  0  0  0
   -1.6223   -0.9365    0.0000 O   0  0  0  0  0  0  0  0  0  0  0  0
  2  1  2  0
  3  1  1  0
  6  2  1  0
  6  4  2  0
  6  5  1  0
  7  3  2  0
  7  4  1  0
  8  5  3  0
  9  7  1  0
 10  9  1  0
 11  9  2  0
M  CHG  2   9   1  10  -1
M  END
>  <NAME>  (1276) 
META-CYANONITROBENZENE

>  <SYNONYMS>  (1276) 
3-NITROBENZONITRILE

>  <SPECTRUM TYPE>  (1276) 
MS1

>  <INSTRUMENT TYPE>  (1276) 
EI-B

>  <INSTRUMENT>  (1276) 
HITACHI M-80A

>  <ION MODE>  (1276) 
P

>  <INCHIKEY>  (1276) 
RUSAWEHOGCWOPG-UHFFFAOYSA-N

>  <FORMULA>  (1276) 
C7H4N2O2

>  <EXACT MASS>  (1276) 
148.027277368

>  <MW>  (1276) 
148

>  <ID>  (1276) 
JP010306

>  <CONTRIBUTOR>  (1276) 
University of Tokyo Team, {Faculty of Engineering, University of Tokyo

>  <COMMENT>  (1276) 
SMILES=N#Cc(c1)cc(cc1)[N+1]([O-1])=O
InChI=InChI=1S/C7H4N2O2/c8-5-6-2-1-3-7(4-6)9(10)11/h1-4H
computed SMILES=N#CC1=CC=CC(=C1)N(=O)=O
accession=JP010306
date=2016.01.19 (Created 2008.10.21, modified 2011.05.06)
author=TAJIMA S, GUNMA COLLEGE OF TECHNOLOGY
license=CC BY-NC-SA
exact mass=148.02728
ionization energy=70 eV
ion type=[M]+*
computed spectral entropy=2.818433011607886
computed normalized entropy=0.7748085922506052
SPLASH=splash10-0udi-9500000000-def0a453940f9db2e345
submitter=submitter = University of Tokyo Team (Faculty of Engineering, University of Tokyo)
MoNA Rating=3.75

>  <NUM PEAKS>  (1276) 
38

>  <MASS SPECTRAL PEAKS>  (1276) 
14 1.23
16 1.23
18 1.45
26 2.14
27 7.55
30 77.18
37 6.65
38 8.12
39 9.57
46 6.51
49 3.99
50 25.89
51 32.89
52 7.54
61 2.43
62 4.33
63 8.04
64 5.21
73 2.4
74 9.65
75 44.8
76 24.93
77 1.56
90 21.48
91 1.74
99 2.95
100 1.83
101 1.39
102 99.99
103 8.73
116 1.2
118 4.68
122 1.02
132 6.95
148 62.31
149 11.47
150 1.66
152 1.35

$$$$

     RDKit          2D

 15 15  0  0  0  0  0  0  0  0999 V2000
   -3.5795    3.5756    0.0000 C   0  0  0  0  0  0  0  0  0  0  0  0
   -2.2694    5.8192    0.0000 C   0  0  0  0  0  0  0  0  0  0  0  0
    5.5137    4.2873    0.0000 C   0  0  0  0  0  0  0  0  0  0  0  0
    4.2001    2.0624    0.0000 C   0  0  0  0  0  0  0  0  0  0  0  0
    6.7982    3.5624    0.0000 C   0  0  0  0  0  0  0  0  0  0  0  0
    5.5247    1.2683    0.0000 C   0  0  0  0  0  0  0  0  0  0  0  0
   -0.9814    3.5628    0.0000 C   0  0  0  0  0  0  0  0  0  0  0  0
    0.3213    4.3064    0.0000 C   0  0  0  0  0  0  0  0  0  0  0  0
   -2.2768    4.3192    0.0000 C   0  0  0  0  0  0  0  0  0  0  0  0
    4.2147    3.5373    0.0000 C   0  0  0  0  0  0  0  0  0  0  0  0
    6.8237    2.0183    0.0000 C   0  0  0  0  0  0  0  0  0  0  0  0
    2.9193    4.2936    0.0000 C   0  0  0  0  0  0  0  0  0  0  0  0
    8.1289    1.2790    0.0000 O   0  0  0  0  0  0  0  0  0  0  0  0
    2.9267    5.7936    0.0000 O   0  0  0  0  0  0  0  0  0  0  0  0
    1.6166    3.5501    0.0000 O   0  0  0  0  0  0  0  0  0  0  0  0
  5  3  2  0
  6  4  1  0
  8  7  1  0
  9  1  1  0
  9  2  1  0
  9  7  1  0
 10  3  1  0
 10  4  2  0
 11  5  1  0
 11  6  2  0
 12 10  1  0
 13 11  1  0
 14 12  2  0
 15  8  1  0
 15 12  1  0
M  END
>  <NAME>  (1277) 
ISOPENTYL PARA-HYDROXYBENZOATE

>  <SYNONYMS>  (1277) 
3-METHYLBUTYL 4-HYDROXYBENZOATE

>  <SPECTRUM TYPE>  (1277) 
MS1

>  <INSTRUMENT TYPE>  (1277) 
EI-B

>  <INSTRUMENT>  (1277) 
HITACHI M-80A

>  <ION MODE>  (1277) 
P

>  <INCHIKEY>  (1277) 
KSHVDKDQYBNSAN-UHFFFAOYSA-N

>  <FORMULA>  (1277) 
C12H16O3

>  <EXACT MASS>  (1277) 
208.10994437199997

>  <MW>  (1277) 
208

>  <ID>  (1277) 
JP010305

>  <CONTRIBUTOR>  (1277) 
University of Tokyo Team, {Faculty of Engineering, University of Tokyo

>  <COMMENT>  (1277) 
SMILES=CC(C)CCOC(=O)c(c1)ccc(O)c1
InChI=InChI=1S/C12H16O3/c1-9(2)7-8-15-12(14)10-3-5-11(13)6-4-10/h3-6,9,13H,7-8H2,1-2H3
computed SMILES=O=C(OCCC(C)C)C1=CC=C(O)C=C1
accession=JP010305
date=2016.01.19 (Created 2008.10.21, modified 2011.05.06)
author=TAJIMA S, GUNMA COLLEGE OF TECHNOLOGY
license=CC BY-NC-SA
exact mass=208.10994
ionization energy=70 eV
ion type=[M]+*
computed spectral entropy=2.37180590275931
computed normalized entropy=0.7043651709000089
SPLASH=splash10-00dr-4900000000-647b913ce57c2da1529a
submitter=submitter = University of Tokyo Team (Faculty of Engineering, University of Tokyo)
MoNA Rating=3.75

>  <NUM PEAKS>  (1277) 
29

>  <MASS SPECTRAL PEAKS>  (1277) 
27 3.55
29 3.17
39 6.95
41 7.19
42 1.88
43 6.66
53 1.19
55 6.09
63 2.55
64 1.89
65 12.59
66 1.13
69 1
70 17.9
71 1.53
92 3.62
93 15.67
94 1.73
95 3.09
120 1.53
121 99.99
122 8.86
123 1.07
138 61.24
139 37.18
140 3.24
151 1.49
152 1.31
208 1.66

$$$$

     RDKit          2D

 11 11  0  0  0  0  0  0  0  0999 V2000
   -1.9139    3.7324    0.0000 C   0  0  0  0  0  0  0  0  0  0  0  0
    1.9837    1.4833    0.0000 C   0  0  0  0  0  0  0  0  0  0  0  0
    0.6847    2.2333    0.0000 C   0  0  0  0  0  0  0  0  0  0  0  0
    0.6837   -0.7684    0.0000 C   0  0  0  0  0  0  0  0  0  0  0  0
    3.2823   -0.7676    0.0000 C   0  0  0  0  0  0  0  0  0  0  0  0
    1.9832   -0.0176    0.0000 C   0  0  0  0  0  0  0  0  0  0  0  0
   -0.6153   -0.0184    0.0000 C   0  0  0  0  0  0  0  0  0  0  0  0
   -0.6148    1.4824    0.0000 C   0  0  0  0  0  0  0  0  0  0  0  0
    4.5813   -0.0176    0.0000 O   0  0  0  0  0  0  0  0  0  0  0  0
   -1.9145   -0.7682    0.0000 O   0  0  0  0  0  0  0  0  0  0  0  0
   -1.9139    2.2324    0.0000 O   0  0  0  0  0  0  0  0  0  0  0  0
  3  2  2  0
  6  2  1  0
  6  4  2  0
  6  5  1  0
  7  4  1  0
  8  3  1  0
  8  7  2  0
  9  5  2  0
 10  7  1  0
 11  1  1  0
 11  8  1  0
M  END
>  <NAME>  (1278) 
ISOVANILLIN

>  <SYNONYMS>  (1278) 
3-HYDROXY-4-METHOXYBENZALDEHYDE

>  <SPECTRUM TYPE>  (1278) 
MS1

>  <INSTRUMENT TYPE>  (1278) 
EI-B

>  <INSTRUMENT>  (1278) 
HITACHI M-80A

>  <ION MODE>  (1278) 
P

>  <INCHIKEY>  (1278) 
JVTZFYYHCGSXJV-UHFFFAOYSA-N

>  <FORMULA>  (1278) 
C8H8O3

>  <EXACT MASS>  (1278) 
152.04734411599998

>  <MW>  (1278) 
152

>  <ID>  (1278) 
JP010304

>  <CONTRIBUTOR>  (1278) 
University of Tokyo Team, {Faculty of Engineering, University of Tokyo

>  <COMMENT>  (1278) 
SMILES=O=Cc(c1)cc(O)c(OC)c1
InChI=InChI=1S/C8H8O3/c1-11-8-3-2-6(5-9)4-7(8)10/h2-5,10H,1H3
computed SMILES=O=CC1=CC=C(OC)C(O)=C1
accession=JP010304
date=2016.01.19 (Created 2008.10.21, modified 2011.05.06)
author=TAJIMA S, GUNMA COLLEGE OF TECHNOLOGY
license=CC BY-NC-SA
exact mass=152.04734
ionization energy=70 eV
ion type=[M]+*
computed spectral entropy=3.1278861516018917
computed normalized entropy=0.8079885655093705
SPLASH=splash10-0udi-9700000000-26471c62326769b48035
submitter=submitter = University of Tokyo Team (Faculty of Engineering, University of Tokyo)
MoNA Rating=3.75

>  <NUM PEAKS>  (1278) 
48

>  <MASS SPECTRAL PEAKS>  (1278) 
14 2.34
15 17.14
18 1.53
26 3.35
27 12.95
29 26.23
30 1.17
31 2.48
37 2.93
38 6.84
39 13.46
41 4.53
49 2.13
50 12.28
51 22.81
52 22.48
53 15.16
54 1.77
55 6.43
61 2.64
62 6.22
63 10.58
64 2.29
65 11.23
66 1.62
67 4.99
74 1.47
75 1.16
77 6.36
79 9.14
80 6
81 39.84
82 2.21
91 1.4
93 2.48
95 3.15
108 8.05
109 21.06
110 1.72
119 1.91
123 13.87
124 2.45
136 1.75
137 4.77
151 81.58
152 99.99
153 18.25
154 1.79

$$$$

     RDKit          2D

 19 18  0  0  0  0  0  0  0  0999 V2000
    4.5466    7.8750    0.0000 C   0  0  0  0  0  0  0  0  0  0  0  0
  -13.6399    7.8750    0.0000 C   0  0  0  0  0  0  0  0  0  0  0  0
  -12.3409   10.1250    0.0000 C   0  0  0  0  0  0  0  0  0  0  0  0
   -7.1447   10.1250    0.0000 C   0  0  0  0  0  0  0  0  0  0  0  0
   -1.9486   10.1250    0.0000 C   0  0  0  0  0  0  0  0  0  0  0  0
    3.2476    8.6250    0.0000 C   0  0  0  0  0  0  0  0  0  0  0  0
   -9.7428    8.6250    0.0000 C   0  0  0  0  0  0  0  0  0  0  0  0
   -4.5466    8.6250    0.0000 C   0  0  0  0  0  0  0  0  0  0  0  0
  -11.0418    7.8750    0.0000 C   0  0  0  0  0  0  0  0  0  0  0  0
   -8.4437    7.8750    0.0000 C   0  0  0  0  0  0  0  0  0  0  0  0
   -5.8457    7.8750    0.0000 C   0  0  0  0  0  0  0  0  0  0  0  0
   -3.2476    7.8750    0.0000 C   0  0  0  0  0  0  0  0  0  0  0  0
   -0.6495    7.8750    0.0000 C   0  0  0  0  0  0  0  0  0  0  0  0
  -12.3409    8.6250    0.0000 C   0  0  0  0  0  0  0  0  0  0  0  0
   -7.1447    8.6250    0.0000 C   0  0  0  0  0  0  0  0  0  0  0  0
   -1.9486    8.6250    0.0000 C   0  0  0  0  0  0  0  0  0  0  0  0
    0.6495    8.6250    0.0000 C   0  0  0  0  0  0  0  0  0  0  0  0
    0.6495   10.1250    0.0000 O   0  0  0  0  0  0  0  0  0  0  0  0
    1.9486    7.8750    0.0000 O   0  0  0  0  0  0  0  0  0  0  0  0
  6  1  1  0
  9  7  1  0
 10  7  1  0
 11  8  1  0
 12  8  1  0
 14  2  1  0
 14  3  1  0
 14  9  2  0
 15  4  1  0
 15 10  1  0
 11 15  2  0
 16  5  1  0
 16 12  1  0
 16 13  1  0
 17 13  1  0
 18 17  2  0
 19  6  1  0
 19 17  1  0
M  END
>  <NAME>  (1279) 
3,7,11-TRIMETHYL-6,10-DODECADIENE-1-CARBOXYLIC ACID ETHYL ESTER

>  <SYNONYMS>  (1279) 


>  <SPECTRUM TYPE>  (1279) 
MS1

>  <INSTRUMENT TYPE>  (1279) 
EI-B

>  <INSTRUMENT>  (1279) 
JEOL JMS-D-300

>  <ION MODE>  (1279) 
P

>  <INCHIKEY>  (1279) 
AVNMXCJYOADGLH-RVDMUPIBSA-N

>  <FORMULA>  (1279) 
C17H30O2

>  <EXACT MASS>  (1279) 
266.2245802

>  <MW>  (1279) 
266

>  <ID>  (1279) 
JP010162

>  <CONTRIBUTOR>  (1279) 
University of Tokyo Team, {Faculty of Engineering, University of Tokyo

>  <COMMENT>  (1279) 
SMILES=CCOC(=O)CC(C)CCC=C(C)CCC=C(C)C
InChI=InChI=1S/C17H30O2/c1-6-19-17(18)13-16(5)12-8-11-15(4)10-7-9-14(2)3/h9,11,16H,6-8,10,12-13H2,1-5H3/b15-11+
computed SMILES=O=C(OCC)CC(C)CCC=C(C)CCC=C(C)C
accession=JP010162
date=2016.01.19 (Created 2008.10.21, modified 2011.05.06)
author=KURARAY CO., LTD.
license=CC BY-NC-SA
exact mass=266.22458
ionization energy=70 eV
ion type=[M]+*
computed spectral entropy=3.06485558177694
computed normalized entropy=0.8253119979160427
SPLASH=splash10-014i-9610000000-8ed9c7b3b13458fe2aae
submitter=submitter = University of Tokyo Team (Faculty of Engineering, University of Tokyo)
MoNA Rating=3.75

>  <NUM PEAKS>  (1279) 
41

>  <MASS SPECTRAL PEAKS>  (1279) 
29 8
41 34
53 8
67 1.1
68 6
69 99.99
70 8
71 0.4
79 6
81 15
82 11
87 0.9
88 3
93 8
94 10
95 1.5
96 5
107 6
108 8
109 9.7
110 19
111 2
113 5
115 0.2
121 6
122 9
123 24
124 0.6
129 6
135 7
137 5
141 0.4
151 9
152 9
153 8
163 0.5
177 12
178 5
223 25
224 0.6
266 8

$$$$

     RDKit          2D

 19 18  0  0  0  0  0  0  0  0999 V2000
    4.5466    7.8750    0.0000 C   0  0  0  0  0  0  0  0  0  0  0  0
  -13.6399    7.8750    0.0000 C   0  0  0  0  0  0  0  0  0  0  0  0
  -12.3409   10.1250    0.0000 C   0  0  0  0  0  0  0  0  0  0  0  0
   -7.1447   10.1250    0.0000 C   0  0  0  0  0  0  0  0  0  0  0  0
   -1.9486   10.1250    0.0000 C   0  0  0  0  0  0  0  0  0  0  0  0
    3.2476    8.6250    0.0000 C   0  0  0  0  0  0  0  0  0  0  0  0
   -9.7428    8.6250    0.0000 C   0  0  0  0  0  0  0  0  0  0  0  0
   -4.5466    8.6250    0.0000 C   0  0  0  0  0  0  0  0  0  0  0  0
  -11.0418    7.8750    0.0000 C   0  0  0  0  0  0  0  0  0  0  0  0
   -8.4437    7.8750    0.0000 C   0  0  0  0  0  0  0  0  0  0  0  0
   -5.8457    7.8750    0.0000 C   0  0  0  0  0  0  0  0  0  0  0  0
   -3.2476    7.8750    0.0000 C   0  0  0  0  0  0  0  0  0  0  0  0
   -0.6495    7.8750    0.0000 C   0  0  0  0  0  0  0  0  0  0  0  0
  -12.3409    8.6250    0.0000 C   0  0  0  0  0  0  0  0  0  0  0  0
   -7.1447    8.6250    0.0000 C   0  0  0  0  0  0  0  0  0  0  0  0
   -1.9486    8.6250    0.0000 C   0  0  0  0  0  0  0  0  0  0  0  0
    0.6495    8.6250    0.0000 C   0  0  0  0  0  0  0  0  0  0  0  0
    0.6495   10.1250    0.0000 O   0  0  0  0  0  0  0  0  0  0  0  0
    1.9486    7.8750    0.0000 O   0  0  0  0  0  0  0  0  0  0  0  0
  6  1  1  0
  9  7  1  0
 10  7  1  0
 11  8  1  0
 12  8  1  0
 14  2  1  0
 14  3  1  0
 14  9  2  0
 15  4  1  0
 15 10  1  0
 11 15  2  0
 16  5  1  0
 16 12  1  0
 16 13  1  0
 17 13  1  0
 18 17  2  0
 19  6  1  0
 19 17  1  0
M  END
>  <NAME>  (1280) 
3,7,11-TRIMETHYL-6,10-DODECADIENE-1-CARBOXYLIC ACID ETHYL ESTER

>  <SYNONYMS>  (1280) 


>  <SPECTRUM TYPE>  (1280) 
MS1

>  <INSTRUMENT TYPE>  (1280) 
EI-B

>  <INSTRUMENT>  (1280) 
JEOL JMS-D-300

>  <ION MODE>  (1280) 
P

>  <INCHIKEY>  (1280) 
AVNMXCJYOADGLH-RVDMUPIBSA-N

>  <FORMULA>  (1280) 
C17H30O2

>  <EXACT MASS>  (1280) 
266.2245802

>  <MW>  (1280) 
266

>  <ID>  (1280) 
JP010161

>  <CONTRIBUTOR>  (1280) 
University of Tokyo Team, {Faculty of Engineering, University of Tokyo

>  <COMMENT>  (1280) 
SMILES=CCOC(=O)CC(C)CCC=C(C)CCC=C(C)C
InChI=InChI=1S/C17H30O2/c1-6-19-17(18)13-16(5)12-8-11-15(4)10-7-9-14(2)3/h9,11,16H,6-8,10,12-13H2,1-5H3/b15-11+
computed SMILES=O=C(OCC)CC(C)CCC=C(C)CCC=C(C)C
accession=JP010161
date=2016.01.19 (Created 2008.10.21, modified 2011.05.06)
author=KURARAY CO., LTD.
license=CC BY-NC-SA
exact mass=266.22458
ionization energy=70 eV
ion type=[M]+*
computed spectral entropy=3.06485558177694
computed normalized entropy=0.8253119979160427
SPLASH=splash10-014i-9610000000-8ed9c7b3b13458fe2aae
submitter=submitter = University of Tokyo Team (Faculty of Engineering, University of Tokyo)
MoNA Rating=3.75

>  <NUM PEAKS>  (1280) 
41

>  <MASS SPECTRAL PEAKS>  (1280) 
29 8
41 34
53 8
67 1.1
68 6
69 99.99
70 8
71 0.4
79 6
81 15
82 11
87 0.9
88 3
93 8
94 10
95 1.5
96 5
107 6
108 8
109 9.7
110 19
111 2
113 5
115 0.2
121 6
122 9
123 24
124 0.6
129 6
135 7
137 5
141 0.4
151 9
152 9
153 8
163 0.5
177 12
178 5
223 25
224 0.6
266 8

$$$$

     RDKit          2D

 17 18  0  0  0  0  0  0  0  0999 V2000
   10.0248    0.5423    0.0000 C   0  0  0  0  0  0  0  0  0  0  0  0
    8.7248    1.2923    0.0000 C   0  0  0  0  0  0  0  0  0  0  0  0
   10.0248   -0.9577    0.0000 C   0  0  0  0  0  0  0  0  0  0  0  0
    7.4248    0.5423    0.0000 C   0  0  0  0  0  0  0  0  0  0  0  0
    8.7248   -1.7077    0.0000 C   0  0  0  0  0  0  0  0  0  0  0  0
   -0.3718    0.5406    0.0000 C   0  0  0  0  0  0  0  0  0  0  0  0
    0.9280    1.2910    0.0000 C   0  0  0  0  0  0  0  0  0  0  0  0
    0.9289   -1.7090    0.0000 C   0  0  0  0  0  0  0  0  0  0  0  0
    4.8268   -0.9581    0.0000 C   0  0  0  0  0  0  0  0  0  0  0  0
   -0.3713   -0.9594    0.0000 C   0  0  0  0  0  0  0  0  0  0  0  0
    7.4248   -0.9577    0.0000 C   0  0  0  0  0  0  0  0  0  0  0  0
    2.2282    0.5415    0.0000 C   0  0  0  0  0  0  0  0  0  0  0  0
    2.2287   -0.9585    0.0000 C   0  0  0  0  0  0  0  0  0  0  0  0
    3.5269    1.2921    0.0000 Cl  0  0  0  0  0  0  0  0  0  0  0  0
   -1.6700   -1.7100    0.0000 O   0  0  0  0  0  0  0  0  0  0  0  0
    3.5278   -1.7083    0.0000 O   0  0  0  0  0  0  0  0  0  0  0  0
    6.1259   -1.7079    0.0000 S   0  0  0  0  0  0  0  0  0  0  0  0
  2  1  2  0
  3  1  1  0
  4  2  1  0
  5  3  2  0
  7  6  2  0
 10  6  1  0
 10  8  2  0
 11  4  2  0
 11  5  1  0
 12  7  1  0
 13  8  1  0
 13 12  2  0
 14 12  1  0
 15 10  1  0
 16  9  1  0
 16 13  1  0
 17  9  1  0
 17 11  1  0
M  END
>  <NAME>  (1281) 
4-CHLORO-3-PHENYLTHIOMETHOXYPHENOL

>  <SYNONYMS>  (1281) 


>  <SPECTRUM TYPE>  (1281) 
MS1

>  <INSTRUMENT TYPE>  (1281) 
EI-B

>  <INSTRUMENT>  (1281) 
JEOL JMS-D-300

>  <ION MODE>  (1281) 
P

>  <INCHIKEY>  (1281) 
QKTJORZNGHGNDS-UHFFFAOYSA-N

>  <FORMULA>  (1281) 
C13H11ClO2S

>  <EXACT MASS>  (1281) 
266.016828272

>  <MW>  (1281) 
266

>  <ID>  (1281) 
JP010160

>  <CONTRIBUTOR>  (1281) 
University of Tokyo Team, {Faculty of Engineering, University of Tokyo

>  <COMMENT>  (1281) 
SMILES=Oc(c1)cc(OCSc(c2)cccc2)c(Cl)c1
InChI=InChI=1S/C13H11ClO2S/c14-12-7-6-10(15)8-13(12)16-9-17-11-4-2-1-3-5-11/h1-8,15H,9H2
computed SMILES=ClC1=CC=C(O)C=C1OCSC=2C=CC=CC2
accession=JP010160
date=2016.01.19 (Created 2008.10.21, modified 2011.05.06)
author=KURARAY CO., LTD.
license=CC BY-NC-SA
exact mass=266.01683
ionization energy=70 eV
ion type=[M]+*
computed spectral entropy=1.1281599281155945
computed normalized entropy=0.5134477102396635
SPLASH=splash10-00di-2900000000-54c22602eaa0bd797c35
submitter=submitter = University of Tokyo Team (Faculty of Engineering, University of Tokyo)
MoNA Rating=3.75

>  <NUM PEAKS>  (1281) 
9

>  <MASS SPECTRAL PEAKS>  (1281) 
45 19
51 4
77 6
79 0.3
123 99.99
124 8
125 4
231 0.6
266 3

$$$$

     RDKit          2D

 19 18  0  0  0  0  0  0  0  0999 V2000
    4.5466    7.8750    0.0000 C   0  0  0  0  0  0  0  0  0  0  0  0
  -13.6399    7.8750    0.0000 C   0  0  0  0  0  0  0  0  0  0  0  0
  -12.3409   10.1250    0.0000 C   0  0  0  0  0  0  0  0  0  0  0  0
   -7.1447   10.1250    0.0000 C   0  0  0  0  0  0  0  0  0  0  0  0
   -1.9486   10.1250    0.0000 C   0  0  0  0  0  0  0  0  0  0  0  0
    3.2476    8.6250    0.0000 C   0  0  0  0  0  0  0  0  0  0  0  0
   -9.7428    8.6250    0.0000 C   0  0  0  0  0  0  0  0  0  0  0  0
   -4.5466    8.6250    0.0000 C   0  0  0  0  0  0  0  0  0  0  0  0
  -11.0418    7.8750    0.0000 C   0  0  0  0  0  0  0  0  0  0  0  0
   -8.4437    7.8750    0.0000 C   0  0  0  0  0  0  0  0  0  0  0  0
   -5.8457    7.8750    0.0000 C   0  0  0  0  0  0  0  0  0  0  0  0
   -3.2476    7.8750    0.0000 C   0  0  0  0  0  0  0  0  0  0  0  0
   -0.6495    7.8750    0.0000 C   0  0  0  0  0  0  0  0  0  0  0  0
  -12.3409    8.6250    0.0000 C   0  0  0  0  0  0  0  0  0  0  0  0
   -7.1447    8.6250    0.0000 C   0  0  0  0  0  0  0  0  0  0  0  0
   -1.9486    8.6250    0.0000 C   0  0  0  0  0  0  0  0  0  0  0  0
    0.6495    8.6250    0.0000 C   0  0  0  0  0  0  0  0  0  0  0  0
    0.6495   10.1250    0.0000 O   0  0  0  0  0  0  0  0  0  0  0  0
    1.9486    7.8750    0.0000 O   0  0  0  0  0  0  0  0  0  0  0  0
  6  1  1  0
  9  7  1  0
 10  7  1  0
 11  8  1  0
 12  8  1  0
 14  2  1  0
 14  3  1  0
 14  9  2  0
 15  4  1  0
 15 10  1  0
 11 15  2  0
 16  5  1  0
 16 12  1  0
 13 16  2  0
 17 13  1  0
 18 17  2  0
 19  6  1  0
 19 17  1  0
M  END
>  <NAME>  (1282) 
3,7,11-TRIMETHYL-(2,6E,10E)-DODECATRIENE-1-CARBOXYLIC ACID ETHYL ESTER

>  <SYNONYMS>  (1282) 


>  <SPECTRUM TYPE>  (1282) 
MS1

>  <INSTRUMENT TYPE>  (1282) 
EI-B

>  <INSTRUMENT>  (1282) 
JEOL JMS-D-300

>  <ION MODE>  (1282) 
P

>  <INCHIKEY>  (1282) 
RAVLTUCAFRTDRY-NWFDBUFXSA-N

>  <FORMULA>  (1282) 
C17H28O2

>  <EXACT MASS>  (1282) 
264.208930136

>  <MW>  (1282) 
264

>  <ID>  (1282) 
JP010159

>  <CONTRIBUTOR>  (1282) 
University of Tokyo Team, {Faculty of Engineering, University of Tokyo

>  <COMMENT>  (1282) 
SMILES=CCOC(=O)C=C(C)CCC=C(C)CCC=C(C)C
InChI=InChI=1S/C17H28O2/c1-6-19-17(18)13-16(5)12-8-11-15(4)10-7-9-14(2)3/h9,11,13H,6-8,10,12H2,1-5H3/b15-11+,16-13+
computed SMILES=O=C(OCC)C=C(C)CCC=C(C)CCC=C(C)C
accession=JP010159
date=2016.01.19 (Created 2008.10.21, modified 2011.05.06)
author=KURARAY CO., LTD.
license=CC BY-NC-SA
exact mass=264.20893
ionization energy=70 eV
ion type=[M]+*
computed spectral entropy=2.850162217995916
computed normalized entropy=0.7577799984913455
SPLASH=splash10-014i-9500000000-cf136313dbaec08154d9
submitter=submitter = University of Tokyo Team (Faculty of Engineering, University of Tokyo)
MoNA Rating=3.75

>  <NUM PEAKS>  (1282) 
43

>  <MASS SPECTRAL PEAKS>  (1282) 
27 3
29 8
39 4
41 3.5
43 6
53 6
55 7
67 0.6
68 4
69 99.99
70 5
77 0.2
79 4
81 25
82 13
83 0.6
91 2
93 6
95 7
99 0.2
100 10
107 5
108 2
109 0.5
113 2
121 21
122 5
123 0.8
125 2
128 44
129 3
135 0.2
136 9
137 9
141 4
147 0.4
149 3
153 3
175 2
191 0.3
219 7
221 4
264 3

$$$$

     RDKit          2D

 19 18  0  0  0  0  0  0  0  0999 V2000
    4.5466    7.8750    0.0000 C   0  0  0  0  0  0  0  0  0  0  0  0
  -13.6399    7.8750    0.0000 C   0  0  0  0  0  0  0  0  0  0  0  0
  -12.3409   10.1250    0.0000 C   0  0  0  0  0  0  0  0  0  0  0  0
   -7.1447   10.1250    0.0000 C   0  0  0  0  0  0  0  0  0  0  0  0
   -1.9486   10.1250    0.0000 C   0  0  0  0  0  0  0  0  0  0  0  0
    3.2476    8.6250    0.0000 C   0  0  0  0  0  0  0  0  0  0  0  0
   -9.7428    8.6250    0.0000 C   0  0  0  0  0  0  0  0  0  0  0  0
   -4.5466    8.6250    0.0000 C   0  0  0  0  0  0  0  0  0  0  0  0
  -11.0418    7.8750    0.0000 C   0  0  0  0  0  0  0  0  0  0  0  0
   -8.4437    7.8750    0.0000 C   0  0  0  0  0  0  0  0  0  0  0  0
   -5.8457    7.8750    0.0000 C   0  0  0  0  0  0  0  0  0  0  0  0
   -3.2476    7.8750    0.0000 C   0  0  0  0  0  0  0  0  0  0  0  0
   -0.6495    7.8750    0.0000 C   0  0  0  0  0  0  0  0  0  0  0  0
  -12.3409    8.6250    0.0000 C   0  0  0  0  0  0  0  0  0  0  0  0
   -7.1447    8.6250    0.0000 C   0  0  0  0  0  0  0  0  0  0  0  0
   -1.9486    8.6250    0.0000 C   0  0  0  0  0  0  0  0  0  0  0  0
    0.6495    8.6250    0.0000 C   0  0  0  0  0  0  0  0  0  0  0  0
    0.6495   10.1250    0.0000 O   0  0  0  0  0  0  0  0  0  0  0  0
    1.9486    7.8750    0.0000 O   0  0  0  0  0  0  0  0  0  0  0  0
  6  1  1  0
  9  7  1  0
 10  7  1  0
 11  8  1  0
 12  8  1  0
 14  2  1  0
 14  3  1  0
 14  9  2  0
 15  4  1  0
 15 10  1  0
 11 15  2  0
 16  5  1  0
 16 12  1  0
 13 16  2  0
 17 13  1  0
 18 17  2  0
 19  6  1  0
 19 17  1  0
M  END
>  <NAME>  (1283) 
3,7,11-TRIMETHYL-(2,6E,10Z)-DODECATRIENE-1-CARBOXYLIC ACID ETHYL ESTER

>  <SYNONYMS>  (1283) 


>  <SPECTRUM TYPE>  (1283) 
MS1

>  <INSTRUMENT TYPE>  (1283) 
EI-B

>  <INSTRUMENT>  (1283) 
JEOL JMS-D-300

>  <ION MODE>  (1283) 
P

>  <INCHIKEY>  (1283) 
RAVLTUCAFRTDRY-NWFDBUFXSA-N

>  <FORMULA>  (1283) 
C17H28O2

>  <EXACT MASS>  (1283) 
264.208930136

>  <MW>  (1283) 
264

>  <ID>  (1283) 
JP010158

>  <CONTRIBUTOR>  (1283) 
University of Tokyo Team, {Faculty of Engineering, University of Tokyo

>  <COMMENT>  (1283) 
computed SMILES=O=C(OCC)C=C(C)CCC=C(C)CCC=C(C)C
SMILES=CCOC(=O)C=C(C)CCC=C(C)CCC=C(C)C
InChI=InChI=1S/C17H28O2/c1-6-19-17(18)13-16(5)12-8-11-15(4)10-7-9-14(2)3/h9,11,13H,6-8,10,12H2,1-5H3/b15-11+,16-13+
date=2016.01.19 (Created 2008.10.21, modified 2011.05.06)
author=KURARAY CO., LTD.
license=CC BY-NC-SA
exact mass=264.20893
ionization energy=70 eV
computed normalized entropy=0.7805454369244118
ion type=[M]+*
computed spectral entropy=3.053511706030263
accession=JP010158
SPLASH=splash10-017i-9500000000-b1e0c4e6fb81d818d74a
submitter=submitter = University of Tokyo Team (Faculty of Engineering, University of Tokyo)
MoNA Rating=3.75

>  <NUM PEAKS>  (1283) 
50

>  <MASS SPECTRAL PEAKS>  (1283) 
27 4
29 10
39 6
41 4.2
42 2
43 8
53 7
54 0.4
55 8
65 2
67 9
68 0.6
69 99.99
70 6
77 3
79 0.5
81 44
82 19
83 7
91 0.4
93 8
95 11
99 2
100 1.3
107 10
108 3
109 9
113 0.3
121 22
122 5
123 10
125 0.2
128 48
129 4
134 2
135 0.4
136 5
137 11
139 3
141 0.2
147 4
149 3
153 3
190 0.2
191 4
203 3
218 4
219 0.8
221 5
264 3

$$$$

     RDKit          2D

 19 18  0  0  0  0  0  0  0  0999 V2000
    5.1962    6.7500    0.0000 C   0  0  0  0  0  0  0  0  0  0  0  0
   -9.0933   13.5000    0.0000 C   0  0  0  0  0  0  0  0  0  0  0  0
  -10.3923   11.2500    0.0000 C   0  0  0  0  0  0  0  0  0  0  0  0
   -7.7942    6.7500    0.0000 C   0  0  0  0  0  0  0  0  0  0  0  0
   -1.2990    9.0000    0.0000 C   0  0  0  0  0  0  0  0  0  0  0  0
    3.8971    7.5000    0.0000 C   0  0  0  0  0  0  0  0  0  0  0  0
   -7.7942    9.7500    0.0000 C   0  0  0  0  0  0  0  0  0  0  0  0
   -3.8971    7.5000    0.0000 C   0  0  0  0  0  0  0  0  0  0  0  0
   -7.7942   11.2500    0.0000 C   0  0  0  0  0  0  0  0  0  0  0  0
   -6.4952    9.0000    0.0000 C   0  0  0  0  0  0  0  0  0  0  0  0
   -5.1962    6.7500    0.0000 C   0  0  0  0  0  0  0  0  0  0  0  0
   -2.5981    6.7500    0.0000 C   0  0  0  0  0  0  0  0  0  0  0  0
    0.0000    6.7500    0.0000 C   0  0  0  0  0  0  0  0  0  0  0  0
   -9.0933   12.0000    0.0000 C   0  0  0  0  0  0  0  0  0  0  0  0
   -6.4952    7.5000    0.0000 C   0  0  0  0  0  0  0  0  0  0  0  0
   -1.2990    7.5000    0.0000 C   0  0  0  0  0  0  0  0  0  0  0  0
    1.2990    7.5000    0.0000 C   0  0  0  0  0  0  0  0  0  0  0  0
    1.2990    9.0000    0.0000 O   0  0  0  0  0  0  0  0  0  0  0  0
    2.5981    6.7500    0.0000 O   0  0  0  0  0  0  0  0  0  0  0  0
  6  1  1  0
  9  7  1  0
 10  7  1  0
 11  8  1  0
 12  8  1  0
 14  2  1  0
 14  3  1  0
 14  9  2  0
 15  4  1  0
 15 10  1  0
 11 15  2  0
 16  5  1  0
 16 12  1  0
 13 16  2  0
 17 13  1  0
 18 17  2  0
 19  6  1  0
 19 17  1  0
M  END
>  <NAME>  (1284) 
3,7,11-TRIMETHYL-(2,6Z,10E)-DODECATRIENE-1-CARBOXYLIC ACID ETHYL ESTER

>  <SYNONYMS>  (1284) 


>  <SPECTRUM TYPE>  (1284) 
MS1

>  <INSTRUMENT TYPE>  (1284) 
EI-B

>  <INSTRUMENT>  (1284) 
JEOL JMS-D-300

>  <ION MODE>  (1284) 
P

>  <INCHIKEY>  (1284) 
RAVLTUCAFRTDRY-GYPBQELOSA-N

>  <FORMULA>  (1284) 
C17H28O2

>  <EXACT MASS>  (1284) 
264.208930136

>  <MW>  (1284) 
264

>  <ID>  (1284) 
JP010157

>  <CONTRIBUTOR>  (1284) 
University of Tokyo Team, {Faculty of Engineering, University of Tokyo

>  <COMMENT>  (1284) 
SMILES=CCOC(=O)C=C(C)CCC=C(C)CCC=C(C)C
InChI=InChI=1S/C17H28O2/c1-6-19-17(18)13-16(5)12-8-11-15(4)10-7-9-14(2)3/h9,11,13H,6-8,10,12H2,1-5H3/b15-11-,16-13+
computed SMILES=O=C(OCC)C=C(C)CCC=C(C)CCC=C(C)C
date=2016.01.19 (Created 2008.10.21, modified 2011.05.06)
author=KURARAY CO., LTD.
license=CC BY-NC-SA
exact mass=264.20893
ionization energy=70 eV
ion type=[M]+*
computed spectral entropy=3.5318769736460305
computed normalized entropy=0.8130836054205278
accession=JP010157
SPLASH=splash10-06dl-9700000000-99956d3a92dd3e396887
submitter=submitter = University of Tokyo Team (Faculty of Engineering, University of Tokyo)
MoNA Rating=3.75

>  <NUM PEAKS>  (1284) 
77

>  <MASS SPECTRAL PEAKS>  (1284) 
27 7
28 2
29 19
39 0.7
41 59
42 3
43 13
53 0.9
54 3
55 14
57 3
65 0.3
67 13
68 8
69 99.99
70 0.7
71 3
77 5
79 13
80 0.5
81 32
82 14
83 8
85 0.3
91 13
92 3
93 23
94 0.5
95 13
96 2
97 2
100 1
105 8
106 6
107 55
108 0.8
109 29
110 3
111 4
113 0.5
119 6
120 8
121 56
122 1
123 18
124 2
125 2
128 3.1
129 2
133 10
134 3
135 0.6
136 6
137 14
139 4
141 0.5
142 3
147 15
148 3
149 3.3
150 5
151 6
153 2
161 0.4
163 2
168 4
175 8
176 0.4
177 4
182 2
191 3
194 0.3
207 2
219 2
221 17
222 0.2
264 17

$$$$

     RDKit          2D

 19 18  0  0  0  0  0  0  0  0999 V2000
    5.1962    6.7500    0.0000 C   0  0  0  0  0  0  0  0  0  0  0  0
   -9.0933   13.5000    0.0000 C   0  0  0  0  0  0  0  0  0  0  0  0
  -10.3923   11.2500    0.0000 C   0  0  0  0  0  0  0  0  0  0  0  0
   -7.7942    6.7500    0.0000 C   0  0  0  0  0  0  0  0  0  0  0  0
   -1.2990    9.0000    0.0000 C   0  0  0  0  0  0  0  0  0  0  0  0
    3.8971    7.5000    0.0000 C   0  0  0  0  0  0  0  0  0  0  0  0
   -7.7942    9.7500    0.0000 C   0  0  0  0  0  0  0  0  0  0  0  0
   -3.8971    7.5000    0.0000 C   0  0  0  0  0  0  0  0  0  0  0  0
   -7.7942   11.2500    0.0000 C   0  0  0  0  0  0  0  0  0  0  0  0
   -6.4952    9.0000    0.0000 C   0  0  0  0  0  0  0  0  0  0  0  0
   -5.1962    6.7500    0.0000 C   0  0  0  0  0  0  0  0  0  0  0  0
   -2.5981    6.7500    0.0000 C   0  0  0  0  0  0  0  0  0  0  0  0
    0.0000    6.7500    0.0000 C   0  0  0  0  0  0  0  0  0  0  0  0
   -9.0933   12.0000    0.0000 C   0  0  0  0  0  0  0  0  0  0  0  0
   -6.4952    7.5000    0.0000 C   0  0  0  0  0  0  0  0  0  0  0  0
   -1.2990    7.5000    0.0000 C   0  0  0  0  0  0  0  0  0  0  0  0
    1.2990    7.5000    0.0000 C   0  0  0  0  0  0  0  0  0  0  0  0
    1.2990    9.0000    0.0000 O   0  0  0  0  0  0  0  0  0  0  0  0
    2.5981    6.7500    0.0000 O   0  0  0  0  0  0  0  0  0  0  0  0
  6  1  1  0
  9  7  1  0
 10  7  1  0
 11  8  1  0
 12  8  1  0
 14  2  1  0
 14  3  1  0
 14  9  2  0
 15  4  1  0
 15 10  1  0
 11 15  2  0
 16  5  1  0
 16 12  1  0
 13 16  2  0
 17 13  1  0
 18 17  2  0
 19  6  1  0
 19 17  1  0
M  END
>  <NAME>  (1285) 
3,7,11-TRIMETHYL-(2,6Z,10Z)-DODECATRIENE-1-CARBOXYLIC ACID ETHYL ESTER

>  <SYNONYMS>  (1285) 


>  <SPECTRUM TYPE>  (1285) 
MS1

>  <INSTRUMENT TYPE>  (1285) 
EI-B

>  <INSTRUMENT>  (1285) 
JEOL JMS-D-300

>  <ION MODE>  (1285) 
P

>  <INCHIKEY>  (1285) 
RAVLTUCAFRTDRY-GYPBQELOSA-N

>  <FORMULA>  (1285) 
C17H28O2

>  <EXACT MASS>  (1285) 
264.208930136

>  <MW>  (1285) 
264

>  <ID>  (1285) 
JP010156

>  <CONTRIBUTOR>  (1285) 
University of Tokyo Team, {Faculty of Engineering, University of Tokyo

>  <COMMENT>  (1285) 
SMILES=CCOC(=O)C=C(C)CCC=C(C)CCC=C(C)C
InChI=InChI=1S/C17H28O2/c1-6-19-17(18)13-16(5)12-8-11-15(4)10-7-9-14(2)3/h9,11,13H,6-8,10,12H2,1-5H3/b15-11-,16-13+
computed SMILES=O=C(OCC)C=C(C)CCC=C(C)CCC=C(C)C
accession=JP010156
date=2016.01.19 (Created 2008.10.21, modified 2011.05.06)
author=KURARAY CO., LTD.
license=CC BY-NC-SA
exact mass=264.20893
ionization energy=70 eV
ion type=[M]+*
computed spectral entropy=3.4508549012140595
computed normalized entropy=0.8017664292909342
SPLASH=splash10-015c-9600000000-7b737fe9f960516a01a8
submitter=submitter = University of Tokyo Team (Faculty of Engineering, University of Tokyo)
MoNA Rating=3.75

>  <NUM PEAKS>  (1285) 
74

>  <MASS SPECTRAL PEAKS>  (1285) 
27 6
28 2
29 8
39 0.8
41 50
42 3
43 10
53 1
54 4
55 11
57 3
65 0.2
67 13
68 8
69 99.99
70 0.6
71 2
77 5
79 6
80 0.3
81 48
82 21
83 9
85 0.4
91 7
93 13
94 2
95 1.5
96 2
97 2
99 2
100 1.7
101 2
105 5
107 8
108 0.3
109 35
110 4
111 6
113 0.7
119 2
120 2
121 38
122 0.7
123 13
124 2
125 2
128 4.8
129 4
135 5
136 7
137 1.9
138 2
139 6
141 6
142 0.6
147 13
148 4
149 32
150 0.6
151 8
153 3
161 2
163 0.2
175 6
176 3
190 3
191 0.5
195 2
218 2
219 3
221 1.6
222 2
264 13

$$$$

     RDKit          2D

 19 20  0  0  0  0  0  0  0  0999 V2000
   -3.7389    1.4102    0.0000 C   0  0  0  0  0  0  0  0  0  0  0  0
   -1.1400    2.9100    0.0000 C   0  0  0  0  0  0  0  0  0  0  0  0
   -1.1400   -3.0900    0.0000 C   0  0  0  0  0  0  0  0  0  0  0  0
    4.2372    0.3997    0.0000 C   0  0  0  0  0  0  0  0  0  0  0  0
   -5.0381   -0.8404    0.0000 C   0  0  0  0  0  0  0  0  0  0  0  0
    1.4600   -1.5900    0.0000 C   0  0  0  0  0  0  0  0  0  0  0  0
    2.7600   -0.8400    0.0000 C   0  0  0  0  0  0  0  0  0  0  0  0
    3.2727    2.0696    0.0000 C   0  0  0  0  0  0  0  0  0  0  0  0
    4.7499    2.3304    0.0000 C   0  0  0  0  0  0  0  0  0  0  0  0
   -2.4400    0.6600    0.0000 C   0  0  0  0  0  0  0  0  0  0  0  0
   -1.1400    1.4100    0.0000 C   0  0  0  0  0  0  0  0  0  0  0  0
   -1.1400   -1.5900    0.0000 C   0  0  0  0  0  0  0  0  0  0  0  0
    0.1600   -0.8400    0.0000 C   0  0  0  0  0  0  0  0  0  0  0  0
   -2.4400   -0.8400    0.0000 C   0  0  0  0  0  0  0  0  0  0  0  0
    0.1600    0.6600    0.0000 C   0  0  0  0  0  0  0  0  0  0  0  0
    2.7600    0.6600    0.0000 C   0  0  0  0  0  0  0  0  0  0  0  0
    5.2626    3.7401    0.0000 O   0  0  0  0  0  0  0  0  0  0  0  0
   -3.7389   -1.5902    0.0000 O   0  0  0  0  0  0  0  0  0  0  0  0
    1.4600    1.4100    0.0000 O   0  0  0  0  0  0  0  0  0  0  0  0
  7  6  1  0
  9  8  1  0
 10  1  1  0
 11  2  1  0
 11 10  1  0
 12  3  1  0
 13  6  1  0
 13 12  2  0
 14 10  2  0
 14 12  1  0
 15 11  2  0
 15 13  1  0
 16  4  1  0
 16  7  1  0
 16  8  1  0
 17  9  1  0
 18  5  1  0
 18 14  1  0
 19 15  1  0
 19 16  1  0
M  END
>  <NAME>  (1286) 
2-HYDROXYETHYL-6-METHOXY-2,5,7,8-TETRAMETHYL-3,4-DIHYDRO-2H-1-BENZOPYRAN

>  <SYNONYMS>  (1286) 


>  <SPECTRUM TYPE>  (1286) 
MS1

>  <INSTRUMENT TYPE>  (1286) 
EI-B

>  <INSTRUMENT>  (1286) 
JEOL JMS-D-300

>  <ION MODE>  (1286) 
P

>  <INCHIKEY>  (1286) 
VNYSURHHUVEARS-UHFFFAOYSA-N

>  <FORMULA>  (1286) 
C16H24O3

>  <EXACT MASS>  (1286) 
264.17254462799997

>  <MW>  (1286) 
264

>  <ID>  (1286) 
JP010155

>  <CONTRIBUTOR>  (1286) 
University of Tokyo Team, {Faculty of Engineering, University of Tokyo

>  <COMMENT>  (1286) 
SMILES=OCCC(C)(C2)Oc(c(C)1)c(C2)c(C)c(OC)c(C)1
InChI=InChI=1S/C16H24O3/c1-10-11(2)15-13(12(3)14(10)18-5)6-7-16(4,19-15)8-9-17/h17H,6-9H2,1-5H3
computed SMILES=OCCC1(OC=2C(=C(C(OC)=C(C2CC1)C)C)C)C
computed normalized entropy=0.732286297369472
accession=JP010155
date=2016.01.19 (Created 2008.10.21, modified 2011.05.06)
author=KURARAY CO., LTD.
license=CC BY-NC-SA
exact mass=264.17254
ionization energy=70 eV
ion type=[M]+*
computed spectral entropy=3.0898876741453694
SPLASH=splash10-004i-2940000000-0ec8899a5e5c940f88c0
submitter=submitter = University of Tokyo Team (Faculty of Engineering, University of Tokyo)
MoNA Rating=3.75

>  <NUM PEAKS>  (1286) 
68

>  <MASS SPECTRAL PEAKS>  (1286) 
27 3
28 8
29 3
31 0.2
39 5
41 8
43 7
53 0.8
55 6
57 2
65 4
67 0.4
69 2
77 6
79 5
81 0.2
85 6
91 11
93 7
94 0.2
103 2
105 6
107 7
115 0.2
117 2
119 4
121 4
133 0.2
135 15
136 4
139 2
145 0.2
147 3
149 4
150 8
151 0.4
152 4
159 3
161 2
163 0.3
165 4
173 2
175 4
176 0.2
177 4
178 91
179 99.99
180 1.2
187 2
189 4
190 2
191 0.6
202 2
203 6
204 2
216 0.3
217 6
219 11
231 23
232 0.4
234 3
245 1
246 8
247 0.1
249 1
263 1
264 72
265 12

$$$$

     RDKit          2D

 19 19  0  0  0  0  0  0  0  0999 V2000
    4.6756   -2.0594    0.0000 C   0  0  0  0  0  0  0  0  0  0  0  0
    7.2734    2.4415    0.0000 C   0  0  0  0  0  0  0  0  0  0  0  0
   -1.8200    0.1896    0.0000 C   0  0  0  0  0  0  0  0  0  0  0  0
    8.9082   -1.7079    0.0000 C   0  0  0  0  0  0  0  0  0  0  0  0
   10.8364   -1.7079    0.0000 C   0  0  0  0  0  0  0  0  0  0  0  0
   11.1723    1.6912    0.0000 C   0  0  0  0  0  0  0  0  0  0  0  0
    9.8723    2.4412    0.0000 C   0  0  0  0  0  0  0  0  0  0  0  0
    5.9742    0.1908    0.0000 C   0  0  0  0  0  0  0  0  0  0  0  0
    7.2734   -0.5590    0.0000 C   0  0  0  0  0  0  0  0  0  0  0  0
    3.3762    0.1904    0.0000 C   0  0  0  0  0  0  0  0  0  0  0  0
   11.1723    0.1912    0.0000 C   0  0  0  0  0  0  0  0  0  0  0  0
    2.0772   -0.5598    0.0000 C   0  0  0  0  0  0  0  0  0  0  0  0
    4.6753   -0.5594    0.0000 C   0  0  0  0  0  0  0  0  0  0  0  0
    8.5723    1.6912    0.0000 C   0  0  0  0  0  0  0  0  0  0  0  0
   -0.5208   -0.5602    0.0000 C   0  0  0  0  0  0  0  0  0  0  0  0
    8.5723    0.1912    0.0000 C   0  0  0  0  0  0  0  0  0  0  0  0
    9.8723   -0.5588    0.0000 C   0  0  0  0  0  0  0  0  0  0  0  0
   -0.5206   -2.0602    0.0000 O   0  0  0  0  0  0  0  0  0  0  0  0
    0.7781    0.1900    0.0000 O   0  0  0  0  0  0  0  0  0  0  0  0
  7  6  1  0
  8  9  2  0
 11  6  1  0
 12 10  1  0
 13  1  1  0
 13  8  1  0
 10 13  2  0
 14  2  1  0
 14  7  1  0
 15  3  1  0
 16  9  1  0
 16 14  2  0
 17  4  1  0
 17  5  1  0
 17 11  1  0
 17 16  1  0
 18 15  2  0
 19 12  1  0
 19 15  1  0
M  END
>  <NAME>  (1287) 
5-(2,2,6-TRIMETHYLCYCLOHEXENEYL)-3-METHYL--2,4-PENTADIENYL ACETATE

>  <SYNONYMS>  (1287) 


>  <SPECTRUM TYPE>  (1287) 
MS1

>  <INSTRUMENT TYPE>  (1287) 
EI-B

>  <INSTRUMENT>  (1287) 
JEOL JMS-D-300

>  <ION MODE>  (1287) 
P

>  <INCHIKEY>  (1287) 
HSKLNRJFWBXQNW-PEGOPYGQSA-N

>  <FORMULA>  (1287) 
C17H26O2

>  <EXACT MASS>  (1287) 
262.193280072

>  <MW>  (1287) 
262

>  <ID>  (1287) 
JP010153

>  <CONTRIBUTOR>  (1287) 
University of Tokyo Team, {Faculty of Engineering, University of Tokyo

>  <COMMENT>  (1287) 
SMILES=CC(=O)OCC=C(C)C=CC(=C(C)1)C(C)(C)CCC1
InChI=InChI=1S/C17H26O2/c1-13(10-12-19-15(3)18)8-9-16-14(2)7-6-11-17(16,4)5/h8-10H,6-7,11-12H2,1-5H3/b9-8+,13-10+
computed SMILES=O=C(OCC=C(C=CC1=C(C)CCCC1(C)C)C)C
accession=JP010153
date=2016.01.19 (Created 2008.10.21, modified 2011.05.06)
author=KURARAY CO., LTD.
license=CC BY-NC-SA
exact mass=262.19328
ionization energy=70 eV
ion type=[M]+*
computed spectral entropy=3.6297065484441515
computed normalized entropy=0.8307014229257349
SPLASH=splash10-001l-8900000000-2ace8053c8dcb0a613a2
submitter=submitter = University of Tokyo Team (Faculty of Engineering, University of Tokyo)
MoNA Rating=3.75

>  <NUM PEAKS>  (1287) 
79

>  <MASS SPECTRAL PEAKS>  (1287) 
27 4
28 44
29 6
32 0.9
39 6
41 33
43 58
44 0.2
45 6
53 8
55 27
57 0.3
59 2
65 5
67 8
69 2.7
71 2
73 4
77 15
78 3.1
79 13
80 3
81 19
82 0.2
83 8
85 3
91 25
92 0.4
93 15
94 3
95 17
96 0.2
97 3
103 3
105 3
106 0.4
107 16
108 2
109 7
115 0.5
116 2
117 13
118 4
119 5.6
120 11
121 10
122 5
123 0.5
128 3
129 4
130 5
131 3.3
132 25
133 99.99
134 16
135 0.5
137 2
143 3
144 3
145 2.9
146 31
147 10
157 2
158 0.2
159 23
160 4
161 4
172 0.2
173 4
174 2
175 4
187 4.2
188 6
189 2
202 11
203 0.9
247 1
262 8
263 2

$$$$

     RDKit          2D

 19 20  0  0  0  0  0  0  0  0999 V2000
  -10.3942   -0.7512    0.0000 C   0  0  0  0  0  0  0  0  0  0  0  0
    4.0772    0.4897    0.0000 C   0  0  0  0  0  0  0  0  0  0  0  0
    3.1127    2.1596    0.0000 C   0  0  0  0  0  0  0  0  0  0  0  0
   -9.0951   -1.5010    0.0000 C   0  0  0  0  0  0  0  0  0  0  0  0
   -7.7962   -0.7508    0.0000 C   0  0  0  0  0  0  0  0  0  0  0  0
   -6.4970   -1.5006    0.0000 C   0  0  0  0  0  0  0  0  0  0  0  0
   -5.1981   -0.7504    0.0000 C   0  0  0  0  0  0  0  0  0  0  0  0
   -3.8989   -1.5002    0.0000 C   0  0  0  0  0  0  0  0  0  0  0  0
    1.3000   -1.5000    0.0000 C   0  0  0  0  0  0  0  0  0  0  0  0
    2.6000   -0.7500    0.0000 C   0  0  0  0  0  0  0  0  0  0  0  0
   -1.3000   -1.5000    0.0000 C   0  0  0  0  0  0  0  0  0  0  0  0
   -1.3000    1.5000    0.0000 C   0  0  0  0  0  0  0  0  0  0  0  0
   -2.6000   -0.7500    0.0000 C   0  0  0  0  0  0  0  0  0  0  0  0
    0.0000   -0.7500    0.0000 C   0  0  0  0  0  0  0  0  0  0  0  0
   -2.6000    0.7500    0.0000 C   0  0  0  0  0  0  0  0  0  0  0  0
    0.0000    0.7500    0.0000 C   0  0  0  0  0  0  0  0  0  0  0  0
    2.6000    0.7500    0.0000 C   0  0  0  0  0  0  0  0  0  0  0  0
   -3.8989    1.5002    0.0000 O   0  0  0  0  0  0  0  0  0  0  0  0
    1.3000    1.5000    0.0000 O   0  0  0  0  0  0  0  0  0  0  0  0
  4  1  1  0
  5  4  1  0
  6  5  1  0
  7  6  1  0
  8  7  1  0
 10  9  1  0
 13  8  1  0
 13 11  1  0
 14  9  1  0
 14 11  2  0
 15 12  1  0
 15 13  2  0
 16 12  2  0
 16 14  1  0
 17  2  1  0
 17  3  1  0
 17 10  1  0
 18 15  1  0
 19 16  1  0
 19 17  1  0
M  END
>  <NAME>  (1288) 
2,2-DIMETHYL-6-HEXYL-7-HYDROXY3,4-DIHYDRO-2H-1-BENZOPYRAN

>  <SYNONYMS>  (1288) 


>  <SPECTRUM TYPE>  (1288) 
MS1

>  <INSTRUMENT TYPE>  (1288) 
EI-B

>  <INSTRUMENT>  (1288) 
JEOL JMS-D-300

>  <ION MODE>  (1288) 
P

>  <INCHIKEY>  (1288) 
BTRMVFVWPYRKRX-UHFFFAOYSA-N

>  <FORMULA>  (1288) 
C17H26O2

>  <EXACT MASS>  (1288) 
262.193280072

>  <MW>  (1288) 
262

>  <ID>  (1288) 
JP010152

>  <CONTRIBUTOR>  (1288) 
University of Tokyo Team, {Faculty of Engineering, University of Tokyo

>  <COMMENT>  (1288) 
SMILES=CCCCCCc(c1)c(O)cc(O2)c(CCC(C)(C)2)1
InChI=InChI=1S/C17H26O2/c1-4-5-6-7-8-13-11-14-9-10-17(2,3)19-16(14)12-15(13)18/h11-12,18H,4-10H2,1-3H3
computed SMILES=OC=1C=C2OC(C)(C)CCC2=CC1CCCCCC
accession=JP010152
date=2016.01.19 (Created 2008.10.21, modified 2011.05.06)
author=KURARAY CO., LTD.
license=CC BY-NC-SA
exact mass=262.19328
ionization energy=70 eV
ion type=[M]+*
computed spectral entropy=2.8578191788353218
computed normalized entropy=0.7038195515643356
SPLASH=splash10-000f-1930000000-1113e571b23f8f426c37
submitter=submitter = University of Tokyo Team (Faculty of Engineering, University of Tokyo)
MoNA Rating=3.75

>  <NUM PEAKS>  (1288) 
58

>  <MASS SPECTRAL PEAKS>  (1288) 
39 0.5
40 0.5
41 3
43 0.5
53 2
55 4
57 2
65 0.3
67 1
69 2
77 5
78 0.2
79 5
81 1
83 1
91 0.4
93 3
95 0.5
103 3
105 0.2
107 3
109 3
115 3
121 0.2
122 3
123 2
135 51
136 1
137 9
147 3
148 0.5
149 0.4
150 3
151 0.5
159 3
161 0.4
163 3
165 14
166 3
173 0.4
175 4
189 4
191 99.99
192 1.3
202 4
203 2
205 3
206 0.6
207 24
208 4
215 2
217 0.2
221 11
222 4
236 3
258 0.4
262 26
263 6

$$$$

     RDKit          2D

 16 16  0  0  0  0  0  0  0  0999 V2000
   -2.9238    0.9379    0.0000 C   0  0  0  0  0  0  0  0  0  0  0  0
    6.1704   -1.3125    0.0000 C   0  0  0  0  0  0  0  0  0  0  0  0
    0.9748   -4.3133    0.0000 C   0  0  0  0  0  0  0  0  0  0  0  0
    0.9738   -1.3117    0.0000 C   0  0  0  0  0  0  0  0  0  0  0  0
   -1.6246    0.1881    0.0000 C   0  0  0  0  0  0  0  0  0  0  0  0
    4.8714   -2.0625    0.0000 C   0  0  0  0  0  0  0  0  0  0  0  0
   -0.3248   -3.5625    0.0000 C   0  0  0  0  0  0  0  0  0  0  0  0
    2.2738   -3.5633    0.0000 C   0  0  0  0  0  0  0  0  0  0  0  0
   -0.3252   -2.0617    0.0000 C   0  0  0  0  0  0  0  0  0  0  0  0
    2.2733   -2.0625    0.0000 C   0  0  0  0  0  0  0  0  0  0  0  0
   -1.6238   -4.3125    0.0000 Cl  0  0  0  0  0  0  0  0  0  0  0  0
    3.5730   -4.3131    0.0000 Cl  0  0  0  0  0  0  0  0  0  0  0  0
   -1.6244   -1.3119    0.0000 N   0  0  0  0  0  0  0  0  0  0  0  0
   -0.3257    0.9383    0.0000 O   0  0  0  0  0  0  0  0  0  0  0  0
    4.8714   -3.5625    0.0000 O   0  0  0  0  0  0  0  0  0  0  0  0
    3.5724   -1.3125    0.0000 O   0  0  0  0  0  0  0  0  0  0  0  0
  5  1  1  0
  6  2  1  0
  7  3  2  0
  8  3  1  0
  9  4  2  0
  9  7  1  0
 10  4  1  0
 10  8  2  0
 11  7  1  0
 12  8  1  0
 13  5  2  3
 13  9  1  0
 14  5  1  0
 15  6  2  0
 16  6  1  0
 16 10  1  0
M  END
>  <NAME>  (1289) 
1-ACETOXY-3-ACETYLAMINO-4,6-DICHLOROBENZENE

>  <SYNONYMS>  (1289) 


>  <SPECTRUM TYPE>  (1289) 
MS1

>  <INSTRUMENT TYPE>  (1289) 
EI-B

>  <INSTRUMENT>  (1289) 
JEOL JMS-D-300

>  <ION MODE>  (1289) 
P

>  <INCHIKEY>  (1289) 
PJSPXYNFWNCCNO-UHFFFAOYSA-N

>  <FORMULA>  (1289) 
C10H9Cl2NO3

>  <EXACT MASS>  (1289) 
260.995948508

>  <MW>  (1289) 
261

>  <ID>  (1289) 
JP010151

>  <CONTRIBUTOR>  (1289) 
University of Tokyo Team, {Faculty of Engineering, University of Tokyo

>  <COMMENT>  (1289) 
SMILES=CC(=O)Nc(c1)c(Cl)cc(Cl)c(OC(C)=O)1
InChI=InChI=1S/C10H9Cl2NO3/c1-5(14)13-9-4-10(16-6(2)15)8(12)3-7(9)11/h3-4H,1-2H3,(H,13,14)
computed SMILES=O=C(OC1=CC(N=C(O)C)=C(Cl)C=C1Cl)C
accession=JP010151
date=2016.01.19 (Created 2008.10.21, modified 2011.05.06)
author=KURARAY CO., LTD.
license=CC BY-NC-SA
exact mass=260.99595
ionization energy=70 eV
ion type=[M]+*
computed spectral entropy=3.1793234478069863
computed normalized entropy=0.7297534846327494
SPLASH=splash10-005l-3920000000-e9c2b47cdbb9b4b30468
submitter=submitter = University of Tokyo Team (Faculty of Engineering, University of Tokyo)
MoNA Rating=3.75

>  <NUM PEAKS>  (1289) 
78

>  <MASS SPECTRAL PEAKS>  (1289) 
36 2
38 3
39 3
41 0.3
42 2
43 83
44 2
50 0.2
51 3
52 3
53 3
61 0.3
62 1
63 2
68 1
73 0.2
75 3
76 3
78 5
79 0.1
80 6
81 3
85 3
86 0.2
87 2
97 3
99 3
108 0.2
112 2
113 2
114 6
115 0.3
116 2
117 3
142 2
143 7.2
144 5
145 22
146 1
148 0.3
149 2
150 38
151 4
156 0.3
176 2
177 99.99
178 7
179 6.6
180 4
181 10
182 3
183 0.2
184 62
185 33
186 23
187 1
188 3
190 1
192 1
211 0.5
212 2
213 5
214 2
215 0.1
218 3
219 35
220 4
221 2.2
222 2
223 3
227 5
228 0.2
229 1
261 9
262 3
263 0.6
264 2
265 2

$$$$

     RDKit          2D

 12 12  0  0  0  0  0  0  0  0999 V2000
   -1.5356   -4.1628    0.0000 C   0  0  0  0  0  0  0  0  0  0  0  0
   -2.8351   -3.4120    0.0000 C   0  0  0  0  0  0  0  0  0  0  0  0
   -0.2365   -3.4128    0.0000 C   0  0  0  0  0  0  0  0  0  0  0  0
   -1.5365   -1.1612    0.0000 C   0  0  0  0  0  0  0  0  0  0  0  0
   -2.8356   -1.9112    0.0000 C   0  0  0  0  0  0  0  0  0  0  0  0
   -0.2370   -1.9120    0.0000 C   0  0  0  0  0  0  0  0  0  0  0  0
    2.3611   -1.9120    0.0000 C   0  0  0  0  0  0  0  0  0  0  0  0
   -4.1347   -1.1614    0.0000 Cl  0  0  0  0  0  0  0  0  0  0  0  0
    1.6111   -3.2110    0.0000 Cl  0  0  0  0  0  0  0  0  0  0  0  0
    3.6601   -2.6620    0.0000 Cl  0  0  0  0  0  0  0  0  0  0  0  0
    3.1111   -0.6129    0.0000 Cl  0  0  0  0  0  0  0  0  0  0  0  0
    1.0620   -1.1620    0.0000 S   0  0  0  0  0  0  0  0  0  0  0  0
  2  1  2  0
  3  1  1  0
  5  2  1  0
  5  4  2  0
  6  3  2  0
  6  4  1  0
  8  5  1  0
  9  7  1  0
 10  7  1  0
 11  7  1  0
 12  6  1  0
 12  7  1  0
M  END
>  <NAME>  (1290) 
3-CHLOROTHIOPHENYL TRICHLOROMETHYL ETHER

>  <SYNONYMS>  (1290) 
3-CHLORO-1-TRICHLOROMETHYLTIOBENZENE

>  <SPECTRUM TYPE>  (1290) 
MS1

>  <INSTRUMENT TYPE>  (1290) 
EI-B

>  <INSTRUMENT>  (1290) 
JEOL JMS-D-300

>  <ION MODE>  (1290) 
P

>  <INCHIKEY>  (1290) 
IDIYVHNEJVLEBV-UHFFFAOYSA-N

>  <FORMULA>  (1290) 
C7H4Cl4S

>  <EXACT MASS>  (1290) 
259.878781848

>  <MW>  (1290) 
260

>  <ID>  (1290) 
JP010150

>  <CONTRIBUTOR>  (1290) 
University of Tokyo Team, {Faculty of Engineering, University of Tokyo

>  <COMMENT>  (1290) 
SMILES=Clc(c1)cc(cc1)SC(Cl)(Cl)Cl
InChI=InChI=1S/C7H4Cl4S/c8-5-2-1-3-6(4-5)12-7(9,10)11/h1-4H
computed SMILES=ClC1=CC=CC(SC(Cl)(Cl)Cl)=C1
accession=JP010150
date=2016.01.19 (Created 2008.10.21, modified 2011.05.06)
author=KURARAY CO., LTD.
license=CC BY-NC-SA
exact mass=259.87878
ionization energy=70 eV
ion type=[M]+*
computed spectral entropy=2.984277459371181
computed normalized entropy=0.7516518997468934
SPLASH=splash10-004i-2490000000-34b85fa3e036afd9b7c9
submitter=submitter = University of Tokyo Team (Faculty of Engineering, University of Tokyo)
MoNA Rating=3.75

>  <NUM PEAKS>  (1290) 
53

>  <MASS SPECTRAL PEAKS>  (1290) 
37 1
38 1
39 1
45 0.2
50 10
51 4
61 2
62 0.2
63 8
69 10
73 6
74 0.7
75 22
76 4
79 17
81 0.8
82 5
84 1
85 2
93 0.05
95 0.5
99 7
101 2
107 0.2
108 38
109 3
111 18
113 0.6
117 32
119 30
121 10
143 1.8
144 1
145 7
146 0.5
155 1.3
157 4
189 7
190 4
191 0.6
192 3
193 2
225 97
226 0.7
227 99.99
228 7
229 35
230 0.2
231 4
260 34
262 45
264 2.3
266 5

$$$$

     RDKit          2D

 19 20  0  0  0  0  0  0  0  0999 V2000
   -3.7389    1.4102    0.0000 C   0  0  0  0  0  0  0  0  0  0  0  0
   -1.1400    2.9100    0.0000 C   0  0  0  0  0  0  0  0  0  0  0  0
   -1.1400   -3.0900    0.0000 C   0  0  0  0  0  0  0  0  0  0  0  0
    4.2372    0.3997    0.0000 C   0  0  0  0  0  0  0  0  0  0  0  0
    4.7499    2.3304    0.0000 C   0  0  0  0  0  0  0  0  0  0  0  0
    1.4600   -1.5900    0.0000 C   0  0  0  0  0  0  0  0  0  0  0  0
    3.2727    2.0696    0.0000 C   0  0  0  0  0  0  0  0  0  0  0  0
    2.7600   -0.8400    0.0000 C   0  0  0  0  0  0  0  0  0  0  0  0
    5.2626    3.7401    0.0000 C   0  0  0  0  0  0  0  0  0  0  0  0
   -2.4400    0.6600    0.0000 C   0  0  0  0  0  0  0  0  0  0  0  0
   -1.1400    1.4100    0.0000 C   0  0  0  0  0  0  0  0  0  0  0  0
   -1.1400   -1.5900    0.0000 C   0  0  0  0  0  0  0  0  0  0  0  0
    0.1600   -0.8400    0.0000 C   0  0  0  0  0  0  0  0  0  0  0  0
   -2.4400   -0.8400    0.0000 C   0  0  0  0  0  0  0  0  0  0  0  0
    0.1600    0.6600    0.0000 C   0  0  0  0  0  0  0  0  0  0  0  0
    2.7600    0.6600    0.0000 C   0  0  0  0  0  0  0  0  0  0  0  0
    5.7753    5.1497    0.0000 N   0  0  0  0  0  0  0  0  0  0  0  0
   -3.7389   -1.5902    0.0000 O   0  0  0  0  0  0  0  0  0  0  0  0
    1.4600    1.4100    0.0000 O   0  0  0  0  0  0  0  0  0  0  0  0
  7  5  1  0
  8  6  1  0
  9  5  1  0
 10  1  1  0
 11  2  1  0
 11 10  1  0
 12  3  1  0
 13  6  1  0
 13 12  2  0
 14 10  2  0
 14 12  1  0
 15 11  2  0
 15 13  1  0
 16  4  1  0
 16  7  1  0
 16  8  1  0
 17  9  3  0
 18 14  1  0
 19 15  1  0
 19 16  1  0
M  END
>  <NAME>  (1291) 
2-CYANOETHYL-6-HYDROXY-2,5,7,8-TETRAMETHYL-3,4-DIHYDRO-2H-1-BENZOPYRAN

>  <SYNONYMS>  (1291) 


>  <SPECTRUM TYPE>  (1291) 
MS1

>  <INSTRUMENT TYPE>  (1291) 
EI-B

>  <INSTRUMENT>  (1291) 
JEOL JMS-D-300

>  <ION MODE>  (1291) 
P

>  <INCHIKEY>  (1291) 
YBRKMFFHXSYDJP-UHFFFAOYSA-N

>  <FORMULA>  (1291) 
C16H21NO2

>  <EXACT MASS>  (1291) 
259.157228912

>  <MW>  (1291) 
259

>  <ID>  (1291) 
JP010149

>  <CONTRIBUTOR>  (1291) 
University of Tokyo Team, {Faculty of Engineering, University of Tokyo

>  <COMMENT>  (1291) 
SMILES=N#CCCC(C)(C2)Oc(c(C)1)c(C2)c(C)c(O)c(C)1
InChI=InChI=1S/C16H21NO2/c1-10-11(2)15-13(12(3)14(10)18)6-8-16(4,19-15)7-5-9-17/h18H,5-8H2,1-4H3
computed SMILES=N#CCCC1(OC=2C(=C(C(O)=C(C2CC1)C)C)C)C
accession=JP010149
date=2016.01.19 (Created 2008.10.21, modified 2011.05.06)
author=KURARAY CO., LTD.
license=CC BY-NC-SA
exact mass=259.15723
ionization energy=70 eV
ion type=[M]+*
computed spectral entropy=2.2818162756611997
computed normalized entropy=0.6470740185901926
SPLASH=splash10-014i-1920000000-7a8654d74f26172e4acf
submitter=submitter = University of Tokyo Team (Faculty of Engineering, University of Tokyo)
MoNA Rating=3.75

>  <NUM PEAKS>  (1291) 
34

>  <MASS SPECTRAL PEAKS>  (1291) 
27 2
28 1
29 1
39 0.3
41 4
43 6
51 1
53 0.6
54 1
55 10
65 2
67 0.3
77 4
79 2
91 6
93 0.1
105 2
107 2
121 9
122 0.2
135 3
136 8
137 2
163 0.1
164 48
165 99.99
166 11
177 0.4
189 2
203 2
205 2
258 0.1
259 40
260 7

$$$$

     RDKit          2D

 21 21  0  0  0  0  0  0  0  0999 V2000
    7.7948    3.0010    0.0000 C   0  0  0  0  0  0  0  0  0  0  0  0
   -2.5989   -1.5002    0.0000 C   0  0  0  0  0  0  0  0  0  0  0  0
   -3.3491   -0.2013    0.0000 H   0  0  0  0  0  0  0  0  0  0  0  0
   -3.8978   -2.2504    0.0000 H   0  0  0  0  0  0  0  0  0  0  0  0
   -1.8487   -2.7991    0.0000 H   0  0  0  0  0  0  0  0  0  0  0  0
   11.6923    0.7517    0.0000 C   0  0  0  0  0  0  0  0  0  0  0  0
    5.1970    1.5006    0.0000 C   0  0  0  0  0  0  0  0  0  0  0  0
    6.4962    0.7508    0.0000 C   0  0  0  0  0  0  0  0  0  0  0  0
    3.8981    0.7504    0.0000 C   0  0  0  0  0  0  0  0  0  0  0  0
   -1.3000    0.7500    0.0000 C   0  0  0  0  0  0  0  0  0  0  0  0
   -0.0000   -1.5000    0.0000 C   0  0  0  0  0  0  0  0  0  0  0  0
    0.0000    1.5000    0.0000 C   0  0  0  0  0  0  0  0  0  0  0  0
    1.3000   -0.7500    0.0000 C   0  0  0  0  0  0  0  0  0  0  0  0
    7.7951    1.5010    0.0000 C   0  0  0  0  0  0  0  0  0  0  0  0
    2.5989    1.5002    0.0000 C   0  0  0  0  0  0  0  0  0  0  0  0
    9.0942    0.7512    0.0000 C   0  0  0  0  0  0  0  0  0  0  0  0
   -1.3000   -0.7500    0.0000 N   0  0  0  0  0  0  0  0  0  0  0  0
    1.3000    0.7500    0.0000 N   0  0  0  0  0  0  0  0  0  0  0  0
    2.5987    3.0002    0.0000 O   0  0  0  0  0  0  0  0  0  0  0  0
    9.0945   -0.7488    0.0000 O   0  0  0  0  0  0  0  0  0  0  0  0
   10.3931    1.5015    0.0000 O   0  0  0  0  0  0  0  0  0  0  0  0
  2  3  1  0
  2  4  1  0
  2  5  1  0
  8  7  1  0
  9  7  1  0
 12 10  1  0
 13 11  1  0
 14  1  1  0
 14  8  1  0
 15  9  1  0
 16 14  1  0
 17  2  1  0
 17 10  1  0
 17 11  1  0
 18 12  1  0
 18 13  1  0
 18 15  1  0
 19 15  2  0
 20 16  2  0
 21  6  1  0
 21 16  1  0
M  ISO  3   3   2   4   2   5   2
M  END
>  <NAME>  (1292) 
1-TRIDEUTEROMETHYL-4-(5-METHOXYCARBONYLHEXANOYL)PIPERAZINE

>  <SYNONYMS>  (1292) 


>  <SPECTRUM TYPE>  (1292) 
MS1

>  <INSTRUMENT TYPE>  (1292) 
EI-B

>  <INSTRUMENT>  (1292) 
JEOL JMS-D-300

>  <ION MODE>  (1292) 
P

>  <INCHIKEY>  (1292) 
CMYWFMWDBNLMFJ-BMSJAHLVSA-N

>  <FORMULA>  (1292) 
C13H24N2O3

>  <EXACT MASS>  (1292) 
259.197522866

>  <MW>  (1292) 
259

>  <ID>  (1292) 
JP010148

>  <CONTRIBUTOR>  (1292) 
University of Tokyo Team, {Faculty of Engineering, University of Tokyo

>  <COMMENT>  (1292) 
SMILES=COC(=O)C(C)CCCC(=O)N(C1)CCN(C1)C([2H])([2H])[2H]
InChI=InChI=1S/C13H24N2O3/c1-11(13(17)18-3)5-4-6-12(16)15-9-7-14(2)8-10-15/h11H,4-10H2,1-3H3/i2D3
computed SMILES=[H]C([H])([H])N1CCN(C(=O)CCCC(C(=O)OC)C)CC1
accession=JP010148
date=2016.01.19 (Created 2008.10.21, modified 2011.05.06)
author=KURARAY CO., LTD.
license=CC BY-NC-SA
exact mass=256.17869
ionization energy=70 eV
ion type=[M]+*
computed spectral entropy=3.048612863751682
computed normalized entropy=0.8056184173294346
SPLASH=splash10-00di-9210000000-4980dcd4333508098456
submitter=submitter = University of Tokyo Team (Faculty of Engineering, University of Tokyo)
MoNA Rating=3.75

>  <NUM PEAKS>  (1292) 
44

>  <MASS SPECTRAL PEAKS>  (1292) 
28 7
41 7
42 5
43 0.4
44 4
45 8
46 9
47 0.6
55 7
56 12
57 8
58 0.5
59 4
60 6
61 32
69 0.8
70 5
72 22
73 99.99
74 1.1
85 43
86 6
87 4
97 0.5
99 4
100 4
101 8
102 4.5
103 6
104 13
112 6
126 1.1
129 5
130 4
149 3
157 0.8
158 4
172 8
199 4
200 1.1
201 4
228 17
259 12
260 3

$$$$

     RDKit          2D

 19 21  0  0  0  0  0  0  0  0999 V2000
    4.0247   -0.4635    0.0000 C   0  0  0  0  0  0  0  0  0  0  0  0
   -3.8971    3.7500    0.0000 C   0  0  0  0  0  0  0  0  0  0  0  0
    2.7256    2.7135    0.0000 C   0  0  0  0  0  0  0  0  0  0  0  0
    0.8165    3.3338    0.0000 C   0  0  0  0  0  0  0  0  0  0  0  0
    0.8165   -1.8338    0.0000 C   0  0  0  0  0  0  0  0  0  0  0  0
    2.7256   -1.2135    0.0000 C   0  0  0  0  0  0  0  0  0  0  0  0
   -1.2990   -0.7500    0.0000 C   0  0  0  0  0  0  0  0  0  0  0  0
   -1.2990    2.2500    0.0000 C   0  0  0  0  0  0  0  0  0  0  0  0
   -5.1962    1.5000    0.0000 C   0  0  0  0  0  0  0  0  0  0  0  0
   -3.8971   -0.7500    0.0000 C   0  0  0  0  0  0  0  0  0  0  0  0
    2.3083    0.7500    0.0000 C   0  0  0  0  0  0  0  0  0  0  0  0
   -3.8971    2.2500    0.0000 C   0  0  0  0  0  0  0  0  0  0  0  0
   -2.5981   -0.0000    0.0000 C   0  0  0  0  0  0  0  0  0  0  0  0
   -2.5981    1.5000    0.0000 C   0  0  0  0  0  0  0  0  0  0  0  0
    0.0000    1.5000    0.0000 C   0  0  0  0  0  0  0  0  0  0  0  0
    0.0000    0.0000    0.0000 C   0  0  0  0  0  0  0  0  0  0  0  0
    1.4266    1.9635    0.0000 C   0  0  0  0  0  0  0  0  0  0  0  0
    1.4266   -0.4635    0.0000 C   0  0  0  0  0  0  0  0  0  0  0  0
   -5.1962   -0.0000    0.0000 O   0  0  0  0  0  0  0  0  0  0  0  0
  6  1  1  0
 12  2  1  0
 12  9  1  0
 13  7  2  0
 13 10  1  0
 14  8  2  0
 14 12  1  0
 14 13  1  0
 15  8  1  0
 16  7  1  0
 16 15  2  0
 17  3  1  0
 17  4  1  0
 17 11  1  0
 17 15  1  0
 18  5  1  0
 18  6  1  0
 18 11  1  0
 18 16  1  0
 19  9  1  0
 19 10  1  0
M  END
>  <NAME>  (1293) 
8-ETHYL-4,6,6,8-TETRAMETHYL-3,4,6,7-TETRAHYDRO-1H-CYCLOPENTA(G)-2-BENZOPYRAN

>  <SYNONYMS>  (1293) 


>  <SPECTRUM TYPE>  (1293) 
MS1

>  <INSTRUMENT TYPE>  (1293) 
EI-B

>  <INSTRUMENT>  (1293) 
JEOL JMS-D-300

>  <ION MODE>  (1293) 
P

>  <INCHIKEY>  (1293) 
BYAUGQHXQRQQPB-UHFFFAOYSA-N

>  <FORMULA>  (1293) 
C18H26O

>  <EXACT MASS>  (1293) 
258.198365452

>  <MW>  (1293) 
258

>  <ID>  (1293) 
JP010147

>  <CONTRIBUTOR>  (1293) 
University of Tokyo Team, {Faculty of Engineering, University of Tokyo

>  <COMMENT>  (1293) 
computed SMILES=O1CC=2C=C3C(=CC2C(C)C1)C(C)(C)CC3(C)CC
SMILES=CCC(C)(C1)c(c2)c(cc(C(C)3)c(COC3)2)C(C)(C)1
InChI=InChI=1S/C18H26O/c1-6-18(5)11-17(3,4)15-8-14-12(2)9-19-10-13(14)7-16(15)18/h7-8,12H,6,9-11H2,1-5H3
accession=JP010147
date=2016.01.19 (Created 2008.10.21, modified 2011.05.06)
author=KURARAY CO., LTD.
license=CC BY-NC-SA
exact mass=258.19837
ionization energy=70 eV
ion type=[M]+*
computed spectral entropy=1.937935699761534
computed normalized entropy=0.5591700447215296
SPLASH=splash10-004i-0290000000-26c6167657f57147ada9
submitter=submitter = University of Tokyo Team (Faculty of Engineering, University of Tokyo)
MoNA Rating=3.75

>  <NUM PEAKS>  (1293) 
32

>  <MASS SPECTRAL PEAKS>  (1293) 
41 1
43 1
57 1
91 0.1
115 1
128 2
129 2
141 0.2
142 1.5
143 2
153 1
154 0.05
155 2
156 1.5
157 3
169 0.4
170 1
171 4
172 1
183 0.2
184 2
185 1
199 14
200 0.2
213 2
229 99.99
230 19
231 0.1
243 8
244 1
258 13
259 2

$$$$

     RDKit          2D

 19 20  0  0  0  0  0  0  0  0999 V2000
    1.9962    3.7934    0.0000 C   0  0  0  0  0  0  0  0  0  0  0  0
   -3.6087   -3.0002    0.0000 C   0  0  0  0  0  0  0  0  0  0  0  0
    1.1124   -2.5814    0.0000 C   0  0  0  0  0  0  0  0  0  0  0  0
    3.0195   -1.9591    0.0000 C   0  0  0  0  0  0  0  0  0  0  0  0
    3.0195    1.9591    0.0000 C   0  0  0  0  0  0  0  0  0  0  0  0
    1.1124    2.5814    0.0000 C   0  0  0  0  0  0  0  0  0  0  0  0
   -2.3100    0.7500    0.0000 C   0  0  0  0  0  0  0  0  0  0  0  0
   -1.0100    1.5000    0.0000 C   0  0  0  0  0  0  0  0  0  0  0  0
   -4.9081   -0.7504    0.0000 C   0  0  0  0  0  0  0  0  0  0  0  0
   -6.2070   -1.5006    0.0000 C   0  0  0  0  0  0  0  0  0  0  0  0
   -1.0100   -1.5000    0.0000 C   0  0  0  0  0  0  0  0  0  0  0  0
    2.6000    0.0000    0.0000 C   0  0  0  0  0  0  0  0  0  0  0  0
   -3.6089   -1.5002    0.0000 C   0  0  0  0  0  0  0  0  0  0  0  0
   -2.3100   -0.7500    0.0000 C   0  0  0  0  0  0  0  0  0  0  0  0
    0.2900    0.7500    0.0000 C   0  0  0  0  0  0  0  0  0  0  0  0
    0.2900   -0.7500    0.0000 C   0  0  0  0  0  0  0  0  0  0  0  0
    1.7200   -1.2100    0.0000 C   0  0  0  0  0  0  0  0  0  0  0  0
    1.7200    1.2100    0.0000 C   0  0  0  0  0  0  0  0  0  0  0  0
   -7.5062   -0.7508    0.0000 O   0  0  0  0  0  0  0  0  0  0  0  0
  6  1  1  0
  8  7  2  0
 10  9  1  0
 13  2  1  0
 13  9  1  0
 14  7  1  0
 14 11  2  0
 14 13  1  0
 15  8  1  0
 16 11  1  0
 16 15  2  0
 17  3  1  0
 17  4  1  0
 17 12  1  0
 17 16  1  0
 18  5  1  0
 18  6  1  0
 18 12  1  0
 18 15  1  0
 19 10  2  0
M  END
>  <NAME>  (1294) 
1-ETHYL-1,3,3-TRIMETHYL-5-(1-METHYL-3-PROPANAL)INDAN

>  <SYNONYMS>  (1294) 


>  <SPECTRUM TYPE>  (1294) 
MS1

>  <INSTRUMENT TYPE>  (1294) 
EI-B

>  <INSTRUMENT>  (1294) 
JEOL JMS-D-300

>  <ION MODE>  (1294) 
P

>  <INCHIKEY>  (1294) 
ODUMZLYKVWGWHS-UHFFFAOYSA-N

>  <FORMULA>  (1294) 
C18H26O

>  <EXACT MASS>  (1294) 
258.198365452

>  <MW>  (1294) 
258

>  <ID>  (1294) 
JP010146

>  <CONTRIBUTOR>  (1294) 
University of Tokyo Team, {Faculty of Engineering, University of Tokyo

>  <COMMENT>  (1294) 
SMILES=O=CCC(C)c(c2)cc(C(C)(C)1)c(c2)C(C)(CC)C1
InChI=InChI=1S/C18H26O/c1-6-18(5)12-17(3,4)16-11-14(7-8-15(16)18)13(2)9-10-19/h7-8,10-11,13H,6,9,12H2,1-5H3
computed SMILES=O=CCC(C1=CC=C2C(=C1)C(C)(C)CC2(C)CC)C
accession=JP010146
date=2016.01.19 (Created 2008.10.21, modified 2011.05.06)
author=KURARAY CO., LTD.
license=CC BY-NC-SA
exact mass=258.19837
ionization energy=70 eV
ion type=[M]+*
computed spectral entropy=1.8611014050703967
computed normalized entropy=0.6212509113381072
SPLASH=splash10-004i-0090000000-b9cb3511abe63076922d
submitter=submitter = University of Tokyo Team (Faculty of Engineering, University of Tokyo)
MoNA Rating=3.75

>  <NUM PEAKS>  (1294) 
20

>  <MASS SPECTRAL PEAKS>  (1294) 
41 2
43 8
57 2
71 1.3
128 2
129 2
171 2
173 0.3
185 2
199 5
200 2
214 0.3
215 15
216 2
229 99.99
230 1.9
243 34
244 7
258 15
259 2

$$$$

     RDKit          2D

 18 19  0  0  0  0  0  0  0  0999 V2000
    1.6245   -0.9365    0.0000 C   0  0  0  0  0  0  0  0  0  0  0  0
    6.8207    2.0635    0.0000 C   0  0  0  0  0  0  0  0  0  0  0  0
    4.2224    3.5644    0.0000 C   0  0  0  0  0  0  0  0  0  0  0  0
   -3.5725    3.5633    0.0000 C   0  0  0  0  0  0  0  0  0  0  0  0
   -3.5727    2.0625    0.0000 C   0  0  0  0  0  0  0  0  0  0  0  0
   -2.2731    4.3144    0.0000 C   0  0  0  0  0  0  0  0  0  0  0  0
   -2.2736    1.3127    0.0000 C   0  0  0  0  0  0  0  0  0  0  0  0
   -0.9739    3.5646    0.0000 C   0  0  0  0  0  0  0  0  0  0  0  0
    4.2231   -0.9373    0.0000 C   0  0  0  0  0  0  0  0  0  0  0  0
    0.3250    1.3140    0.0000 C   0  0  0  0  0  0  0  0  0  0  0  0
    2.9236   -0.1865    0.0000 C   0  0  0  0  0  0  0  0  0  0  0  0
    5.5216    1.3135    0.0000 C   0  0  0  0  0  0  0  0  0  0  0  0
    4.2221    2.0644    0.0000 C   0  0  0  0  0  0  0  0  0  0  0  0
   -0.9742    2.0637    0.0000 C   0  0  0  0  0  0  0  0  0  0  0  0
    5.5221   -0.1873    0.0000 C   0  0  0  0  0  0  0  0  0  0  0  0
    2.9231    1.3144    0.0000 C   0  0  0  0  0  0  0  0  0  0  0  0
    1.6239    2.0642    0.0000 O   0  0  0  0  0  0  0  0  0  0  0  0
    6.8213   -0.9371    0.0000 S   0  0  0  0  0  0  0  0  0  0  0  0
  5  4  2  0
  6  4  1  0
  7  5  1  0
  8  6  2  0
 11  1  1  0
 11  9  2  0
 12  2  1  0
 13  3  1  0
 13 12  1  0
 14  7  2  0
 14  8  1  0
 14 10  1  0
 15  9  1  0
 15 12  2  0
 16 11  1  0
 16 13  2  0
 17 10  1  0
 17 16  1  0
 18 15  1  0
M  END
>  <NAME>  (1295) 
4-BENZYLOXY-2,3,5-TRIMETHYLTHIOPHENOL

>  <SYNONYMS>  (1295) 


>  <SPECTRUM TYPE>  (1295) 
MS1

>  <INSTRUMENT TYPE>  (1295) 
EI-B

>  <INSTRUMENT>  (1295) 
JEOL JMS-D-300

>  <ION MODE>  (1295) 
P

>  <INCHIKEY>  (1295) 
ULHSFEMRDABVHU-UHFFFAOYSA-N

>  <FORMULA>  (1295) 
C16H18OS

>  <EXACT MASS>  (1295) 
258.107836196

>  <MW>  (1295) 
258

>  <ID>  (1295) 
JP010145

>  <CONTRIBUTOR>  (1295) 
University of Tokyo Team, {Faculty of Engineering, University of Tokyo

>  <COMMENT>  (1295) 
SMILES=c(c2)ccc(c2)COc(c(C)1)c(C)c(C)c(S)c1
InChI=InChI=1S/C16H18OS/c1-11-9-15(18)12(2)13(3)16(11)17-10-14-7-5-4-6-8-14/h4-9,18H,10H2,1-3H3
computed SMILES=SC=1C=C(C(OCC=2C=CC=CC2)=C(C1C)C)C
accession=JP010145
date=2016.01.19 (Created 2008.10.21, modified 2011.05.06)
author=KURARAY CO., LTD.
license=CC BY-NC-SA
exact mass=258.10784
ionization energy=70 eV
ion type=[M]+*
computed spectral entropy=1.9999691911296678
computed normalized entropy=0.6569073580634104
SPLASH=splash10-00kf-9400000000-c5ec10cf5f2f44b80bb7
submitter=submitter = University of Tokyo Team (Faculty of Engineering, University of Tokyo)
MoNA Rating=3.75

>  <NUM PEAKS>  (1295) 
21

>  <MASS SPECTRAL PEAKS>  (1295) 
28 46
32 19
39 3
41 0.2
45 2
55 2
65 9
77 0.3
79 2
91 99.99
92 10
105 0.6
106 3
123 4
139 2
166 1.1
167 69
168 10
169 4
258 2.2
259 4

$$$$

     RDKit          2D

 17 16  0  0  0  0  0  0  0  0999 V2000
    4.8714    7.3125    0.0000 C   0  0  0  0  0  0  0  0  0  0  0  0
    3.5724    9.5625    0.0000 C   0  0  0  0  0  0  0  0  0  0  0  0
   -5.5209    7.3125    0.0000 C   0  0  0  0  0  0  0  0  0  0  0  0
   -6.8200    8.0625    0.0000 C   0  0  0  0  0  0  0  0  0  0  0  0
   -4.2219    8.0625    0.0000 C   0  0  0  0  0  0  0  0  0  0  0  0
   -8.1190    7.3125    0.0000 C   0  0  0  0  0  0  0  0  0  0  0  0
   -2.9228    7.3125    0.0000 C   0  0  0  0  0  0  0  0  0  0  0  0
   -9.4180    8.0625    0.0000 C   0  0  0  0  0  0  0  0  0  0  0  0
   -1.6238    8.0625    0.0000 C   0  0  0  0  0  0  0  0  0  0  0  0
  -10.7171    7.3125    0.0000 C   0  0  0  0  0  0  0  0  0  0  0  0
   -0.3248    7.3125    0.0000 C   0  0  0  0  0  0  0  0  0  0  0  0
  -12.0161    8.0625    0.0000 C   0  0  0  0  0  0  0  0  0  0  0  0
    3.5724    8.0625    0.0000 C   0  0  0  0  0  0  0  0  0  0  0  0
    2.2733    7.3125    0.0000 C   0  0  0  0  0  0  0  0  0  0  0  0
    2.2733    5.8125    0.0000 O   0  0  0  0  0  0  0  0  0  0  0  0
    0.9743    8.0625    0.0000 O   0  0  0  0  0  0  0  0  0  0  0  0
  -13.3151    7.3125    0.0000 S   0  0  0  0  0  0  0  0  0  0  0  0
  4  3  1  0
  5  3  1  0
  6  4  1  0
  7  5  1  0
  8  6  1  0
  9  7  1  0
 10  8  1  0
 11  9  1  0
 12 10  1  0
 13  1  2  0
 13  2  1  0
 14 13  1  0
 15 14  2  0
 16 11  1  0
 16 14  1  0
 17 12  1  0
M  END
>  <NAME>  (1296) 
METHACRYLIC 10-MERCAPTO-1-DECANYL ESTER

>  <SYNONYMS>  (1296) 
10-MERCAPTO-1-DECANYL METHACRYLATE

>  <SPECTRUM TYPE>  (1296) 
MS1

>  <INSTRUMENT TYPE>  (1296) 
EI-B

>  <INSTRUMENT>  (1296) 
JEOL JMS-D-300

>  <ION MODE>  (1296) 
P

>  <INCHIKEY>  (1296) 
GPEZMHDRNRAYHT-UHFFFAOYSA-N

>  <FORMULA>  (1296) 
C14H26O2S

>  <EXACT MASS>  (1296) 
258.16535107199996

>  <MW>  (1296) 
258

>  <ID>  (1296) 
JP010144

>  <CONTRIBUTOR>  (1296) 
University of Tokyo Team, {Faculty of Engineering, University of Tokyo

>  <COMMENT>  (1296) 
SMILES=SCCCCCCCCCCOC(=O)C(C)=C
InChI=InChI=1S/C14H26O2S/c1-13(2)14(15)16-11-9-7-5-3-4-6-8-10-12-17/h17H,1,3-12H2,2H3
computed SMILES=O=C(OCCCCCCCCCCS)C(=C)C
accession=JP010144
date=2016.01.19 (Created 2008.10.21, modified 2011.05.06)
author=KURARAY CO., LTD.
license=CC BY-NC-SA
exact mass=258.16535
ionization energy=70 eV
ion type=[M]+*
computed spectral entropy=2.85915400751994
computed normalized entropy=0.8882461340791269
SPLASH=splash10-05mx-9000000000-9aaaa72b23d2d83a603b
submitter=submitter = University of Tokyo Team (Faculty of Engineering, University of Tokyo)
MoNA Rating=3.75

>  <NUM PEAKS>  (1296) 
25

>  <MASS SPECTRAL PEAKS>  (1296) 
28 10
29 40
32 3
41 99.99
42 34
43 40
44 6
45 3.4
55 84
57 32
67 42
68 3.6
69 76
71 32
73 27
74 2.8
75 30
81 40
82 32
83 3.6
87 95
95 29
101 32
230 2.8
258 26

$$$$

     RDKit          2D

 19 20  0  0  0  0  0  0  0  0999 V2000
    0.9330   -2.0208    0.0000 C   0  0  0  0  0  0  0  0  0  0  0  0
    0.2418   -1.4409    0.0000 C   0  0  0  0  0  0  0  0  0  0  0  0
   -2.7126    2.4201    0.0000 C   0  0  0  0  0  0  0  0  0  0  0  0
    6.1291    2.4792    0.0000 C   0  0  0  0  0  0  0  0  0  0  0  0
   -2.1998    1.0096    0.0000 C   0  0  0  0  0  0  0  0  0  0  0  0
   -1.7483    3.5701    0.0000 C   0  0  0  0  0  0  0  0  0  0  0  0
    4.8296    3.2300    0.0000 C   0  0  0  0  0  0  0  0  0  0  0  0
    6.1296    0.9783    0.0000 C   0  0  0  0  0  0  0  0  0  0  0  0
   -0.7226    0.7492    0.0000 C   0  0  0  0  0  0  0  0  0  0  0  0
   -0.2711    3.3097    0.0000 C   0  0  0  0  0  0  0  0  0  0  0  0
    3.5306    2.4800    0.0000 C   0  0  0  0  0  0  0  0  0  0  0  0
    4.8306    0.2283    0.0000 C   0  0  0  0  0  0  0  0  0  0  0  0
    0.2418    1.8992    0.0000 C   0  0  0  0  0  0  0  0  0  0  0  0
    3.5311    0.9792    0.0000 C   0  0  0  0  0  0  0  0  0  0  0  0
    1.7190    1.6387    0.0000 C   0  0  0  0  0  0  0  0  0  0  0  0
    2.2320    0.2292    0.0000 C   0  0  0  0  0  0  0  0  0  0  0  0
    2.6832    2.7878    0.0000 O   0  0  0  0  0  0  0  0  0  0  0  0
    2.2320   -1.2708    0.0000 O   0  0  0  0  0  0  0  0  0  0  0  0
    0.7548   -0.0313    0.0000 O   0  0  0  0  0  0  0  0  0  0  0  0
  5  3  2  0
  6  3  1  0
  7  4  2  0
  8  4  1  0
  9  5  1  0
 10  6  2  0
 11  7  1  0
 12  8  2  0
 13  9  2  0
 13 10  1  0
 14 11  2  0
 14 12  1  0
 15 13  1  0
 16 14  1  0
 16 15  1  0
 17 15  2  0
 18  1  1  0
 18 16  1  0
 19  2  1  0
 19 16  1  0
M  END
>  <NAME>  (1297) 
1,1-DIMETHOXY-1,2-DIPHENYL-2-OXOETHANE

>  <SYNONYMS>  (1297) 


>  <SPECTRUM TYPE>  (1297) 
MS1

>  <INSTRUMENT TYPE>  (1297) 
EI-B

>  <INSTRUMENT>  (1297) 
JEOL JMS-D-300

>  <ION MODE>  (1297) 
P

>  <INCHIKEY>  (1297) 
KWVGIHKZDCUPEU-UHFFFAOYSA-N

>  <FORMULA>  (1297) 
C16H16O3

>  <EXACT MASS>  (1297) 
256.109944372

>  <MW>  (1297) 
256

>  <ID>  (1297) 
JP010143

>  <CONTRIBUTOR>  (1297) 
University of Tokyo Team, {Faculty of Engineering, University of Tokyo

>  <COMMENT>  (1297) 
SMILES=COC(OC)(c(c2)cccc2)C(=O)c(c1)cccc1
InChI=InChI=1S/C16H16O3/c1-18-16(19-2,14-11-7-4-8-12-14)15(17)13-9-5-3-6-10-13/h3-12H,1-2H3
computed SMILES=O=C(C=1C=CC=CC1)C(OC)(OC)C=2C=CC=CC2
accession=JP010143
date=2016.01.19 (Created 2008.10.21, modified 2011.05.06)
author=KURARAY CO., LTD.
license=CC BY-NC-SA
exact mass=256.10994
ionization energy=70 eV
ion type=[M]+*
computed spectral entropy=1.5871802625938158
computed normalized entropy=0.6014193950175409
SPLASH=splash10-0udi-2900000000-e8feae2af79e2d50f4dd
submitter=submitter = University of Tokyo Team (Faculty of Engineering, University of Tokyo)
MoNA Rating=3.75

>  <NUM PEAKS>  (1297) 
14

>  <MASS SPECTRAL PEAKS>  (1297) 
41 2
43 2
51 5
55 0.2
57 2
59 5
77 21
91 0.9
92 2
105 32
106 2
151 99.99
152 10
225 4

$$$$

     RDKit          2D

 18 18  0  0  0  0  0  0  0  0999 V2000
    7.7948    3.0010    0.0000 C   0  0  0  0  0  0  0  0  0  0  0  0
   -2.5989   -1.5002    0.0000 C   0  0  0  0  0  0  0  0  0  0  0  0
   11.6923    0.7517    0.0000 C   0  0  0  0  0  0  0  0  0  0  0  0
    5.1970    1.5006    0.0000 C   0  0  0  0  0  0  0  0  0  0  0  0
    6.4962    0.7508    0.0000 C   0  0  0  0  0  0  0  0  0  0  0  0
    3.8981    0.7504    0.0000 C   0  0  0  0  0  0  0  0  0  0  0  0
   -1.3000    0.7500    0.0000 C   0  0  0  0  0  0  0  0  0  0  0  0
   -0.0000   -1.5000    0.0000 C   0  0  0  0  0  0  0  0  0  0  0  0
    0.0000    1.5000    0.0000 C   0  0  0  0  0  0  0  0  0  0  0  0
    1.3000   -0.7500    0.0000 C   0  0  0  0  0  0  0  0  0  0  0  0
    7.7951    1.5010    0.0000 C   0  0  0  0  0  0  0  0  0  0  0  0
    2.5989    1.5002    0.0000 C   0  0  0  0  0  0  0  0  0  0  0  0
    9.0942    0.7512    0.0000 C   0  0  0  0  0  0  0  0  0  0  0  0
   -1.3000   -0.7500    0.0000 N   0  0  0  0  0  0  0  0  0  0  0  0
    1.3000    0.7500    0.0000 N   0  0  0  0  0  0  0  0  0  0  0  0
    2.5987    3.0002    0.0000 O   0  0  0  0  0  0  0  0  0  0  0  0
    9.0945   -0.7488    0.0000 O   0  0  0  0  0  0  0  0  0  0  0  0
   10.3931    1.5015    0.0000 O   0  0  0  0  0  0  0  0  0  0  0  0
  5  4  1  0
  6  4  1  0
  9  7  1  0
 10  8  1  0
 11  1  1  0
 11  5  1  0
 12  6  1  0
 13 11  1  0
 14  2  1  0
 14  7  1  0
 14  8  1  0
 15  9  1  0
 15 10  1  0
 15 12  1  0
 16 12  2  0
 17 13  2  0
 18  3  1  0
 18 13  1  0
M  END
>  <NAME>  (1298) 
1-METHYL-4-(5-METHOXYCARBONYLHEXANOYL)PIPERAZINE

>  <SYNONYMS>  (1298) 


>  <SPECTRUM TYPE>  (1298) 
MS1

>  <INSTRUMENT TYPE>  (1298) 
EI-B

>  <INSTRUMENT>  (1298) 
JEOL JMS-D-300

>  <ION MODE>  (1298) 
P

>  <INCHIKEY>  (1298) 
CMYWFMWDBNLMFJ-UHFFFAOYSA-N

>  <FORMULA>  (1298) 
C13H24N2O3

>  <EXACT MASS>  (1298) 
256.17869262799996

>  <MW>  (1298) 
256

>  <ID>  (1298) 
JP010142

>  <CONTRIBUTOR>  (1298) 
University of Tokyo Team, {Faculty of Engineering, University of Tokyo

>  <COMMENT>  (1298) 
SMILES=COC(=O)C(C)CCCC(=O)N(C1)CCN(C)C1
InChI=InChI=1S/C13H24N2O3/c1-11(13(17)18-3)5-4-6-12(16)15-9-7-14(2)8-10-15/h11H,4-10H2,1-3H3
computed SMILES=O=C(OC)C(C)CCCC(=O)N1CCN(C)CC1
accession=JP010142
date=2016.01.19 (Created 2008.10.21, modified 2011.05.06)
author=KURARAY CO., LTD.
license=CC BY-NC-SA
exact mass=256.17869
ionization energy=70 eV
ion type=[M]+*
computed spectral entropy=2.3196834896560055
computed normalized entropy=0.7878184965180359
SPLASH=splash10-00di-9000000000-f5536a9ba7691705973e
submitter=submitter = University of Tokyo Team (Faculty of Engineering, University of Tokyo)
MoNA Rating=3.75

>  <NUM PEAKS>  (1298) 
19

>  <MASS SPECTRAL PEAKS>  (1298) 
41 7
42 11
43 15
44 0.9
55 8
56 16
57 11
58 3.3
69 8
70 99.99
71 13
83 3.8
99 38
101 9
126 8
157 0.5
199 6
225 9
256 8

$$$$

     RDKit          2D

 17 17  0  0  0  0  0  0  0  0999 V2000
   -1.6700   -2.4596    0.0000 C   0  0  0  0  0  0  0  0  0  0  0  0
    2.2265    1.2910    0.0000 C   0  0  0  0  0  0  0  0  0  0  0  0
    8.7242   -0.9583    0.0000 C   0  0  0  0  0  0  0  0  0  0  0  0
    7.4242   -0.2083    0.0000 C   0  0  0  0  0  0  0  0  0  0  0  0
    8.7242   -2.4583    0.0000 C   0  0  0  0  0  0  0  0  0  0  0  0
    6.1242   -0.9583    0.0000 C   0  0  0  0  0  0  0  0  0  0  0  0
    7.4242   -3.2083    0.0000 C   0  0  0  0  0  0  0  0  0  0  0  0
    2.2272   -3.2090    0.0000 C   0  0  0  0  0  0  0  0  0  0  0  0
    6.1242   -2.4583    0.0000 C   0  0  0  0  0  0  0  0  0  0  0  0
    3.5262   -2.4588    0.0000 C   0  0  0  0  0  0  0  0  0  0  0  0
    0.9281   -2.4592    0.0000 C   0  0  0  0  0  0  0  0  0  0  0  0
    3.5259   -0.9588    0.0000 C   0  0  0  0  0  0  0  0  0  0  0  0
    0.9278   -0.9592    0.0000 O   0  0  0  0  0  0  0  0  0  0  0  0
    4.8248   -0.2085    0.0000 O   0  0  0  0  0  0  0  0  0  0  0  0
   -0.3708   -3.2094    0.0000 O   0  0  0  0  0  0  0  0  0  0  0  0
    2.2268   -0.2090    0.0000 O   0  0  0  0  0  0  0  0  0  0  0  0
    4.8253   -3.2085    0.0000 S   0  0  0  0  0  0  0  0  0  0  0  0
  4  3  2  0
  5  3  1  0
  6  4  1  0
  7  5  2  0
  9  6  2  0
  9  7  1  0
 10  8  1  0
 11  8  1  0
 12 10  1  0
 13 11  2  0
 14 12  2  0
 15  1  1  0
 15 11  1  0
 16  2  1  0
 16 12  1  0
 17  9  1  0
 17 10  1  0
M  END
>  <NAME>  (1299) 
2-PHENYLTHIO-1,4-BUTANEDICARBOXYLIC ACID DIMETHYL ESTER

>  <SYNONYMS>  (1299) 


>  <SPECTRUM TYPE>  (1299) 
MS1

>  <INSTRUMENT TYPE>  (1299) 
EI-B

>  <INSTRUMENT>  (1299) 
JEOL JMS-D-300

>  <ION MODE>  (1299) 
P

>  <INCHIKEY>  (1299) 
DUXDHXOTAWOLFK-UHFFFAOYSA-N

>  <FORMULA>  (1299) 
C12H14O4S

>  <EXACT MASS>  (1299) 
254.061279928

>  <MW>  (1299) 
254

>  <ID>  (1299) 
JP010141

>  <CONTRIBUTOR>  (1299) 
University of Tokyo Team, {Faculty of Engineering, University of Tokyo

>  <COMMENT>  (1299) 
SMILES=COC(=O)CC(C(=O)OC)Sc(c1)cccc1
InChI=InChI=1S/C12H14O4S/c1-15-11(13)8-10(12(14)16-2)17-9-6-4-3-5-7-9/h3-7,10H,8H2,1-2H3
computed SMILES=O=C(OC)CC(SC=1C=CC=CC1)C(=O)OC
accession=JP010141
date=2016.01.19 (Created 2008.10.21, modified 2011.05.06)
author=KURARAY CO., LTD.
license=CC BY-NC-SA
exact mass=254.06128
ionization energy=70 eV
ion type=[M]+*
computed spectral entropy=3.204048172764146
computed normalized entropy=0.8108961129622398
SPLASH=splash10-000l-3910000000-e802b178854f40b800f6
submitter=submitter = University of Tokyo Team (Faculty of Engineering, University of Tokyo)
MoNA Rating=3.75

>  <NUM PEAKS>  (1299) 
52

>  <MASS SPECTRAL PEAKS>  (1299) 
26 2
27 8
29 3
39 0.8
41 4
43 4
44 2
45 0.5
50 2
51 8
55 21
57 0.5
58 2
59 29
65 21
66 0.6
69 6
71 4
77 8
78 0.3
82 2
83 2
85 5
91 1.9
92 4
105 8
108 4
109 6.3
110 18
111 4
113 11
114 0.2
121 10
123 2
134 10
135 99.99
136 18
137 23
138 2
143 0.2
149 12
153 35
154 3
163 1.4
194 69
195 30
196 6
222 6.5
223 15
224 4
254 24
255 3

$$$$

     RDKit          2D

 13 14  0  0  0  0  0  0  0  0999 V2000
    4.1600    1.2990    0.0000 C   0  0  0  0  0  0  0  0  0  0  0  0
    3.4100   -0.0000    0.0000 C   0  0  0  0  0  0  0  0  0  0  0  0
   -3.0000    0.7500    0.0000 C   0  0  0  0  0  0  0  0  0  0  0  0
   -3.0000   -0.7500    0.0000 C   0  0  0  0  0  0  0  0  0  0  0  0
   -1.7000    1.5000    0.0000 C   0  0  0  0  0  0  0  0  0  0  0  0
   -1.7000   -1.5000    0.0000 C   0  0  0  0  0  0  0  0  0  0  0  0
   -0.4000    0.7500    0.0000 C   0  0  0  0  0  0  0  0  0  0  0  0
   -0.4000   -0.7500    0.0000 C   0  0  0  0  0  0  0  0  0  0  0  0
    1.0300    1.2100    0.0000 C   0  0  0  0  0  0  0  0  0  0  0  0
    1.0300   -1.2100    0.0000 C   0  0  0  0  0  0  0  0  0  0  0  0
    1.9100    0.0000    0.0000 N   0  0  0  0  0  0  0  0  0  0  0  0
    1.4953    2.6360    0.0000 O   0  0  0  0  0  0  0  0  0  0  0  0
    1.4953   -2.6360    0.0000 O   0  0  0  0  0  0  0  0  0  0  0  0
  2  1  2  0
  4  3  2  0
  5  3  1  0
  6  4  1  0
  7  5  2  0
  8  6  2  0
  8  7  1  0
  9  7  1  0
 10  8  1  0
 11  2  1  0
 11  9  1  0
 11 10  1  0
 12  9  2  0
 13 10  2  0
M  END
>  <NAME>  (1300) 
N-ETHENYLPHTHALIMIDE

>  <SYNONYMS>  (1300) 


>  <SPECTRUM TYPE>  (1300) 
MS1

>  <INSTRUMENT TYPE>  (1300) 
EI-B

>  <INSTRUMENT>  (1300) 
JEOL JMS-D-300

>  <ION MODE>  (1300) 
P

>  <INCHIKEY>  (1300) 
IGDLZDCWMRPMGL-UHFFFAOYSA-N

>  <FORMULA>  (1300) 
C10H7NO2

>  <EXACT MASS>  (1300) 
173.047678464

>  <MW>  (1300) 
173

>  <ID>  (1300) 
JP010140

>  <CONTRIBUTOR>  (1300) 
University of Tokyo Team, {Faculty of Engineering, University of Tokyo

>  <COMMENT>  (1300) 
SMILES=C=Cn(c(=O)1)c(=O)c(c2)c(ccc2)1
InChI=InChI=1S/C10H7NO2/c1-2-11-9(12)7-5-3-4-6-8(7)10(11)13/h2-6H,1H2
computed SMILES=O=C1C=2C=CC=CC2C(=O)N1C=C
accession=JP010140
license=CC BY-NC-SA
date=2016.01.19 (Created 2008.10.21, modified 2011.05.06)
author=KURARAY CO., LTD.
exact mass=173.04768
ionization energy=70 eV
ion type=[M]+*
computed spectral entropy=2.6356533243268347
computed normalized entropy=0.7537959744097931
SPLASH=splash10-0fk9-5900000000-932be53b1a935c04ecd6
submitter=submitter = University of Tokyo Team (Faculty of Engineering, University of Tokyo)
MoNA Rating=3.75

>  <NUM PEAKS>  (1300) 
33

>  <MASS SPECTRAL PEAKS>  (1300) 
27 2
38 4
41 3
43 0.2
50 20
51 3
52 9
55 0.3
57 2
66 12
69 3
73 0.3
74 7
75 9
76 46
77 0.8
89 2
90 9
102 2
103 1.1
104 43
105 10
117 13
118 0.5
129 6
132 5
133 6
145 0.8
146 10
161 4
172 5
173 99.99
174 13

$$$$

     RDKit          2D

 18 17  0  0  0  0  0  0  0  0999 V2000
    1.6238    7.6875    0.0000 C   0  0  0  0  0  0  0  0  0  0  0  0
  -11.3666    1.6875    0.0000 C   0  0  0  0  0  0  0  0  0  0  0  0
  -12.6656    3.9375    0.0000 C   0  0  0  0  0  0  0  0  0  0  0  0
  -10.0675    8.4375    0.0000 C   0  0  0  0  0  0  0  0  0  0  0  0
   -4.5365    6.5384    0.0000 C   0  0  0  0  0  0  0  0  0  0  0  0
    0.3248    8.4375    0.0000 C   0  0  0  0  0  0  0  0  0  0  0  0
   -0.9743    7.6875    0.0000 C   0  0  0  0  0  0  0  0  0  0  0  0
  -10.0675    5.4375    0.0000 C   0  0  0  0  0  0  0  0  0  0  0  0
   -6.1704    7.6875    0.0000 C   0  0  0  0  0  0  0  0  0  0  0  0
  -10.0675    3.9375    0.0000 C   0  0  0  0  0  0  0  0  0  0  0  0
   -8.7685    6.1875    0.0000 C   0  0  0  0  0  0  0  0  0  0  0  0
   -7.4695    8.4375    0.0000 C   0  0  0  0  0  0  0  0  0  0  0  0
   -2.2733    8.4375    0.0000 C   0  0  0  0  0  0  0  0  0  0  0  0
   -4.8714    8.4375    0.0000 C   0  0  0  0  0  0  0  0  0  0  0  0
  -11.3666    3.1875    0.0000 C   0  0  0  0  0  0  0  0  0  0  0  0
   -8.7685    7.6875    0.0000 C   0  0  0  0  0  0  0  0  0  0  0  0
   -3.5724    7.6875    0.0000 C   0  0  0  0  0  0  0  0  0  0  0  0
   -2.6082    6.5384    0.0000 O   0  0  0  0  0  0  0  0  0  0  0  0
  6  1  1  0
  7  6  1  0
 10  8  1  0
 11  8  1  0
 12  9  1  0
 13  7  1  0
 14  9  1  0
 15  2  1  0
 15  3  1  0
 15 10  2  0
 16  4  1  0
 16 11  1  0
 12 16  2  0
 17  5  1  0
 17 13  1  0
 17 14  1  0
 18 17  1  0
M  END
>  <NAME>  (1301) 
5,9,13-TRIMETHYL-(8Z,12)-TETRADECADIENE-5-OL

>  <SYNONYMS>  (1301) 


>  <SPECTRUM TYPE>  (1301) 
MS1

>  <INSTRUMENT TYPE>  (1301) 
EI-B

>  <INSTRUMENT>  (1301) 
JEOL JMS-D-300

>  <ION MODE>  (1301) 
P

>  <INCHIKEY>  (1301) 
SKBMBPGXVLGRGO-VBKFSLOCSA-N

>  <FORMULA>  (1301) 
C17H32O

>  <EXACT MASS>  (1301) 
252.24531564400002

>  <MW>  (1301) 
252

>  <ID>  (1301) 
JP010139

>  <CONTRIBUTOR>  (1301) 
University of Tokyo Team, {Faculty of Engineering, University of Tokyo

>  <COMMENT>  (1301) 
SMILES=CCCCC(C)(O)CCC([H])=C(C)CCC=C(C)C
InChI=InChI=1S/C17H32O/c1-6-7-13-17(5,18)14-9-12-16(4)11-8-10-15(2)3/h10,12,18H,6-9,11,13-14H2,1-5H3/b16-12-
computed SMILES=OC(C)(CCC=C(C)CCC=C(C)C)CCCC
accession=JP010139
date=2016.01.19 (Created 2008.10.21, modified 2011.05.06)
author=KURARAY CO., LTD.
license=CC BY-NC-SA
exact mass=252.24532
ionization energy=70 eV
ion type=[M]+*
computed spectral entropy=3.262223981842737
computed normalized entropy=0.8034157783693989
SPLASH=splash10-067i-9400000000-276c6fb4e589fe9f1a5b
submitter=submitter = University of Tokyo Team (Faculty of Engineering, University of Tokyo)
MoNA Rating=3.75

>  <NUM PEAKS>  (1301) 
58

>  <MASS SPECTRAL PEAKS>  (1301) 
27 4
29 7
39 4
41 4.6
42 2
43 29
45 10
53 0.5
55 26
56 2
57 13
58 0.5
59 4
67 15
68 10
69 99.99
70 6
71 8
79 3
80 0.4
81 70
82 11
83 15
85 0.7
91 2
92 2
93 17
94 0.4
95 41
96 5
97 7
101 2.8
107 9
108 2
109 44
110 0.6
111 2
113 2
121 13
122 0.4
123 22
124 2
125 2
135 0.3
136 17
137 8
139 2
149 0.3
151 2
152 2
165 38
166 0.6
177 15
178 2
191 8
219 0.2
234 17
235 2

$$$$

     RDKit          2D

 18 17  0  0  0  0  0  0  0  0999 V2000
    4.2219    7.6875    0.0000 C   0  0  0  0  0  0  0  0  0  0  0  0
  -12.6656    8.4375    0.0000 C   0  0  0  0  0  0  0  0  0  0  0  0
  -11.3666    6.1875    0.0000 C   0  0  0  0  0  0  0  0  0  0  0  0
   -6.1704    6.1875    0.0000 C   0  0  0  0  0  0  0  0  0  0  0  0
   -1.9385    6.5384    0.0000 C   0  0  0  0  0  0  0  0  0  0  0  0
    2.9228    8.4375    0.0000 C   0  0  0  0  0  0  0  0  0  0  0  0
    1.6238    7.6875    0.0000 C   0  0  0  0  0  0  0  0  0  0  0  0
   -8.7685    7.6875    0.0000 C   0  0  0  0  0  0  0  0  0  0  0  0
   -3.5724    7.6875    0.0000 C   0  0  0  0  0  0  0  0  0  0  0  0
  -10.0675    8.4375    0.0000 C   0  0  0  0  0  0  0  0  0  0  0  0
   -7.4695    8.4375    0.0000 C   0  0  0  0  0  0  0  0  0  0  0  0
   -4.8714    8.4375    0.0000 C   0  0  0  0  0  0  0  0  0  0  0  0
    0.3248    8.4375    0.0000 C   0  0  0  0  0  0  0  0  0  0  0  0
   -2.2733    8.4375    0.0000 C   0  0  0  0  0  0  0  0  0  0  0  0
  -11.3666    7.6875    0.0000 C   0  0  0  0  0  0  0  0  0  0  0  0
   -6.1704    7.6875    0.0000 C   0  0  0  0  0  0  0  0  0  0  0  0
   -0.9743    7.6875    0.0000 C   0  0  0  0  0  0  0  0  0  0  0  0
   -0.0101    6.5384    0.0000 O   0  0  0  0  0  0  0  0  0  0  0  0
  6  1  1  0
  7  6  1  0
 10  8  1  0
 11  8  1  0
 12  9  1  0
 13  7  1  0
 14  9  1  0
 15  2  1  0
 15  3  1  0
 15 10  2  0
 16  4  1  0
 16 11  1  0
 12 16  2  0
 17  5  1  0
 17 13  1  0
 17 14  1  0
 18 17  1  0
M  END
>  <NAME>  (1302) 
5,9,13-TRIMETHYL-(8E,12)-TETRADECADIENE-5-OL

>  <SYNONYMS>  (1302) 


>  <SPECTRUM TYPE>  (1302) 
MS1

>  <INSTRUMENT TYPE>  (1302) 
EI-B

>  <INSTRUMENT>  (1302) 
JEOL JMS-D-300

>  <ION MODE>  (1302) 
P

>  <INCHIKEY>  (1302) 
SKBMBPGXVLGRGO-FOWTUZBSSA-N

>  <FORMULA>  (1302) 
C17H32O

>  <EXACT MASS>  (1302) 
252.24531564400002

>  <MW>  (1302) 
252

>  <ID>  (1302) 
JP010138

>  <CONTRIBUTOR>  (1302) 
University of Tokyo Team, {Faculty of Engineering, University of Tokyo

>  <COMMENT>  (1302) 
SMILES=CCCCC(C)(O)CCC([H])=C(C)CCC=C(C)C
InChI=InChI=1S/C17H32O/c1-6-7-13-17(5,18)14-9-12-16(4)11-8-10-15(2)3/h10,12,18H,6-9,11,13-14H2,1-5H3/b16-12+
computed SMILES=OC(C)(CCC=C(C)CCC=C(C)C)CCCC
accession=JP010138
date=2016.01.19 (Created 2008.10.21, modified 2011.05.06)
author=KURARAY CO., LTD.
license=CC BY-NC-SA
exact mass=252.24532
ionization energy=70 eV
ion type=[M]+*
computed spectral entropy=3.198519475338464
computed normalized entropy=0.8018381216874907
SPLASH=splash10-067i-9300000000-7839df9e5538e68fdb24
submitter=submitter = University of Tokyo Team (Faculty of Engineering, University of Tokyo)
MoNA Rating=3.75

>  <NUM PEAKS>  (1302) 
54

>  <MASS SPECTRAL PEAKS>  (1302) 
27 4
29 8
39 4
41 4.8
42 2
43 31
45 10
53 0.6
55 32
56 3
57 11
58 0.6
59 4
67 17
68 8
69 99.99
70 6
71 9
79 4
80 0.2
81 77
82 9
83 15
85 0.9
91 2
93 13
94 3
95 4.9
96 6
97 10
101 19
107 0.6
108 2
109 52
110 6
111 0.3
113 3
121 13
122 4
123 2.8
124 3
125 2
135 2
136 2.3
137 8
139 2
149 2
165 4.6
166 6
177 13
178 2
191 1
234 17
235 3

$$$$

     RDKit          2D

 18 18  0  0  0  0  0  0  0  0999 V2000
   -4.6628   -0.8547    0.0000 C   0  0  0  0  0  0  0  0  0  0  0  0
   -3.3634    1.3951    0.0000 C   0  0  0  0  0  0  0  0  0  0  0  0
    0.5339    2.1451    0.0000 C   0  0  0  0  0  0  0  0  0  0  0  0
    4.9801   -2.1540    0.0000 C   0  0  0  0  0  0  0  0  0  0  0  0
    7.0291   -1.6049    0.0000 C   0  0  0  0  0  0  0  0  0  0  0  0
    3.1325    2.1459    0.0000 C   0  0  0  0  0  0  0  0  0  0  0  0
    4.4315    1.3959    0.0000 C   0  0  0  0  0  0  0  0  0  0  0  0
   -2.0648   -0.8551    0.0000 C   0  0  0  0  0  0  0  0  0  0  0  0
    3.1315   -0.8558    0.0000 C   0  0  0  0  0  0  0  0  0  0  0  0
   -3.3637   -0.1049    0.0000 C   0  0  0  0  0  0  0  0  0  0  0  0
    1.8330    1.3951    0.0000 C   0  0  0  0  0  0  0  0  0  0  0  0
    4.4310   -0.1049    0.0000 C   0  0  0  0  0  0  0  0  0  0  0  0
    1.8325   -0.1058    0.0000 C   0  0  0  0  0  0  0  0  0  0  0  0
   -0.7656   -0.1054    0.0000 C   0  0  0  0  0  0  0  0  0  0  0  0
    5.7301   -0.8549    0.0000 C   0  0  0  0  0  0  0  0  0  0  0  0
   -0.7654    1.3946    0.0000 O   0  0  0  0  0  0  0  0  0  0  0  0
    6.4801    0.4441    0.0000 O   0  0  0  0  0  0  0  0  0  0  0  0
    0.5333   -0.8556    0.0000 O   0  0  0  0  0  0  0  0  0  0  0  0
  7  6  1  0
 10  1  1  0
 10  2  1  0
 10  8  2  0
 11  3  1  0
 11  6  2  0
 12  7  1  0
 12  9  1  0
 13  9  1  0
 13 11  1  0
 14  8  1  0
 15  4  1  0
 15  5  1  0
 15 12  1  0
 16 14  2  0
 17 15  1  0
 18 13  1  0
 18 14  1  0
M  END
>  <NAME>  (1303) 
DIMETHYLACRYLIC ACID SOBREOL ESTER

>  <SYNONYMS>  (1303) 


>  <SPECTRUM TYPE>  (1303) 
MS1

>  <INSTRUMENT TYPE>  (1303) 
EI-B

>  <INSTRUMENT>  (1303) 
JEOL JMS-D-300

>  <ION MODE>  (1303) 
P

>  <INCHIKEY>  (1303) 
PYDAVHFDKJZDEH-UHFFFAOYSA-N

>  <FORMULA>  (1303) 
C15H24O3

>  <EXACT MASS>  (1303) 
252.17254462799997

>  <MW>  (1303) 
252

>  <ID>  (1303) 
JP010137

>  <CONTRIBUTOR>  (1303) 
University of Tokyo Team, {Faculty of Engineering, University of Tokyo

>  <COMMENT>  (1303) 
SMILES=CC(C)=CC(=O)OC(C(C)=1)CC(CC1)C(C)(C)O
InChI=InChI=1S/C15H24O3/c1-10(2)8-14(16)18-13-9-12(15(4,5)17)7-6-11(13)3/h6,8,12-13,17H,7,9H2,1-5H3
computed SMILES=O=C(OC1C(=CCC(C1)C(O)(C)C)C)C=C(C)C
accession=JP010137
date=2016.01.19 (Created 2008.10.21, modified 2011.05.06)
author=KURARAY CO., LTD.
license=CC BY-NC-SA
exact mass=252.17254
ionization energy=70 eV
ion type=[M]+*
computed spectral entropy=3.1820250786036497
computed normalized entropy=0.7977031347980292
SPLASH=splash10-054n-9200000000-b8bf5f7e3bcdf235457e
submitter=submitter = University of Tokyo Team (Faculty of Engineering, University of Tokyo)
MoNA Rating=3.75

>  <NUM PEAKS>  (1303) 
54

>  <MASS SPECTRAL PEAKS>  (1303) 
27 9
29 17
31 13
39 1.3
40 2
41 22
44 0.4
45 8
48 91
53 8
54 4
55 6.2
56 4
57 4
59 99.99
60 0.2
65 3
67 6
69 9
71 0.3
77 13
78 3
79 53
80 0.6
81 8
82 6
83 57
84 0.4
85 3
91 14
92 6
93 7.2
94 49
95 25
96 4
97 0.4
105 2
107 9
108 8
109 4.3
110 6
111 2
119 4
120 0.4
123 2
134 11
135 23
136 0.2
137 15
152 49
153 6
170 0.9
191 6
234 2

$$$$

     RDKit          2D

 18 18  0  0  0  0  0  0  0  0999 V2000
   -5.5209    1.6125    0.0000 C   0  0  0  0  0  0  0  0  0  0  0  0
   -2.9228    0.1125    0.0000 C   0  0  0  0  0  0  0  0  0  0  0  0
    2.2732   -2.8881    0.0000 C   0  0  0  0  0  0  0  0  0  0  0  0
    4.8719    1.6129    0.0000 C   0  0  0  0  0  0  0  0  0  0  0  0
    4.8714    0.1125    0.0000 C   0  0  0  0  0  0  0  0  0  0  0  0
   -4.2219    2.3625    0.0000 C   0  0  0  0  0  0  0  0  0  0  0  0
   -0.3252    0.1117    0.0000 C   0  0  0  0  0  0  0  0  0  0  0  0
    0.9748    2.3633    0.0000 C   0  0  0  0  0  0  0  0  0  0  0  0
   -2.9228    1.6125    0.0000 C   0  0  0  0  0  0  0  0  0  0  0  0
   -0.3248    1.6125    0.0000 C   0  0  0  0  0  0  0  0  0  0  0  0
    0.9738   -0.6383    0.0000 C   0  0  0  0  0  0  0  0  0  0  0  0
    2.2738    1.6133    0.0000 C   0  0  0  0  0  0  0  0  0  0  0  0
   -1.6238    2.3625    0.0000 C   0  0  0  0  0  0  0  0  0  0  0  0
    2.2733    0.1125    0.0000 C   0  0  0  0  0  0  0  0  0  0  0  0
   -1.6238    3.8625    0.0000 O   0  0  0  0  0  0  0  0  0  0  0  0
    0.9740   -2.1383    0.0000 O   0  0  0  0  0  0  0  0  0  0  0  0
    3.5730    2.3631    0.0000 O   0  0  0  0  0  0  0  0  0  0  0  0
    3.5724   -0.6375    0.0000 O   0  0  0  0  0  0  0  0  0  0  0  0
  6  1  2  0
  9  2  1  0
  9  6  1  0
 10  7  2  0
 10  8  1  0
 11  7  1  0
 12  8  2  0
 13  9  1  0
 13 10  1  0
 14 11  2  0
 14 12  1  0
 15 13  1  0
 16  3  1  0
 16 11  1  0
 17  4  1  0
 17 12  1  0
 18  5  1  0
 18 14  1  0
M  END
>  <NAME>  (1304) 
5-(1-HYDROXY-2-METHYL-3-BUTENYL)-1,2,3-TRIMETHOXYBENZENE

>  <SYNONYMS>  (1304) 
2-METHYL-1-(3,4,5-TRIMETHOXYPHENYL)-3-BUTENE-1-OL

>  <SPECTRUM TYPE>  (1304) 
MS1

>  <INSTRUMENT TYPE>  (1304) 
EI-B

>  <INSTRUMENT>  (1304) 
JEOL JMS-D-300

>  <ION MODE>  (1304) 
P

>  <INCHIKEY>  (1304) 
LXSUFJZTCALJSS-UHFFFAOYSA-N

>  <FORMULA>  (1304) 
C14H20O4

>  <EXACT MASS>  (1304) 
252.13615912

>  <MW>  (1304) 
252

>  <ID>  (1304) 
JP010136

>  <CONTRIBUTOR>  (1304) 
University of Tokyo Team, {Faculty of Engineering, University of Tokyo

>  <COMMENT>  (1304) 
SMILES=C=CC(C)C(O)c(c1)cc(OC)c(OC)c(OC)1
InChI=InChI=1S/C14H20O4/c1-6-9(2)13(15)10-7-11(16-3)14(18-5)12(8-10)17-4/h6-9,13,15H,1H2,2-5H3
computed SMILES=OC(C1=CC(OC)=C(OC)C(OC)=C1)C(C=C)C
accession=JP010136
date=2016.01.19 (Created 2008.10.21, modified 2011.05.06)
author=KURARAY CO., LTD.
license=CC BY-NC-SA
exact mass=252.13616
ionization energy=70 eV
ion type=[M]+*
computed spectral entropy=2.043020401750302
computed normalized entropy=0.6198791034906819
SPLASH=splash10-0002-0900000000-a991f886c2a60bebaeca
submitter=submitter = University of Tokyo Team (Faculty of Engineering, University of Tokyo)
MoNA Rating=3.75

>  <NUM PEAKS>  (1304) 
27

>  <MASS SPECTRAL PEAKS>  (1304) 
27 2
29 3
39 4
53 0.2
55 6
65 2
77 3
93 0.2
95 3
109 2
111 2
123 0.3
125 2
138 29
139 7
154 2.3
155 2
169 53
170 5
181 0.2
196 2
197 99.99
198 10
203 0.27
219 0.8
234 2.1
252 3.3

$$$$

     RDKit          2D

 18 18  0  0  0  0  0  0  0  0999 V2000
   -1.9496   -3.3757    0.0000 C   0  0  0  0  0  0  0  0  0  0  0  0
    0.6488   -4.8759    0.0000 C   0  0  0  0  0  0  0  0  0  0  0  0
    0.6493    1.1258    0.0000 C   0  0  0  0  0  0  0  0  0  0  0  0
    3.2480    1.1256    0.0000 C   0  0  0  0  0  0  0  0  0  0  0  0
    4.5471    1.8754    0.0000 C   0  0  0  0  0  0  0  0  0  0  0  0
   -0.6505   -2.6259    0.0000 C   0  0  0  0  0  0  0  0  0  0  0  0
    0.6486   -3.3759    0.0000 C   0  0  0  0  0  0  0  0  0  0  0  0
    0.6495   -0.3742    0.0000 C   0  0  0  0  0  0  0  0  0  0  0  0
    3.2477   -0.3744    0.0000 C   0  0  0  0  0  0  0  0  0  0  0  0
    5.8461    1.1252    0.0000 C   0  0  0  0  0  0  0  0  0  0  0  0
    1.9486   -1.1242    0.0000 C   0  0  0  0  0  0  0  0  0  0  0  0
   -0.6500   -1.1251    0.0000 C   0  0  0  0  0  0  0  0  0  0  0  0
    1.9481   -2.6251    0.0000 C   0  0  0  0  0  0  0  0  0  0  0  0
    4.5467   -1.1246    0.0000 O   0  0  0  0  0  0  0  0  0  0  0  0
    5.8458   -0.3748    0.0000 O   0  0  0  0  0  0  0  0  0  0  0  0
    7.1452    1.8749    0.0000 O   0  0  0  0  0  0  0  0  0  0  0  0
   -1.9490   -0.3751    0.0000 O   0  0  0  0  0  0  0  0  0  0  0  0
    3.2471   -3.3751    0.0000 O   0  0  0  0  0  0  0  0  0  0  0  0
  4  5  2  0
  6  1  1  0
  7  2  1  0
  7  6  2  0
  8  3  1  0
  9  4  1  0
 10  5  1  0
 11  8  1  0
 11  9  1  0
 12  6  1  0
 12  8  2  0
 13  7  1  0
 13 11  2  0
 14  9  2  0
 15 10  2  0
 16 10  1  0
 17 12  1  0
 18 13  1  0
M  END
>  <NAME>  (1305) 
4-(2,5-DIHYDROXY-3,4,6-TRIMETHYLPHENYL)-3-OXO-2-BUTENIC ACID

>  <SYNONYMS>  (1305) 


>  <SPECTRUM TYPE>  (1305) 
MS1

>  <INSTRUMENT TYPE>  (1305) 
EI-B

>  <INSTRUMENT>  (1305) 
JEOL JMS-D-300

>  <ION MODE>  (1305) 
P

>  <INCHIKEY>  (1305) 
HAWOBRSXOITBKM-PLNGDYQASA-N

>  <FORMULA>  (1305) 
C13H14O5

>  <EXACT MASS>  (1305) 
250.08412354799998

>  <MW>  (1305) 
250

>  <ID>  (1305) 
JP010135

>  <CONTRIBUTOR>  (1305) 
University of Tokyo Team, {Faculty of Engineering, University of Tokyo

>  <COMMENT>  (1305) 
SMILES=OC(=O)C=CC(=O)c(c(C)1)c(O)c(C)c(C)c(O)1
InChI=InChI=1S/C13H14O5/c1-6-7(2)13(18)11(8(3)12(6)17)9(14)4-5-10(15)16/h4-5,17-18H,1-3H3,(H,15,16)/b5-4-
computed SMILES=O=C(O)C=CC(=O)C=1C(O)=C(C(=C(O)C1C)C)C
accession=JP010135
date=2016.01.19 (Created 2008.10.21, modified 2011.05.06)
author=KURARAY CO., LTD.
license=CC BY-NC-SA
exact mass=250.08412
ionization energy=70 eV
ion type=[M]+*
computed spectral entropy=2.2639130424162524
computed normalized entropy=0.7436020225586248
SPLASH=splash10-0zfr-1290000000-e48b59e4d1a146efea4a
submitter=submitter = University of Tokyo Team (Faculty of Engineering, University of Tokyo)
MoNA Rating=3.75

>  <NUM PEAKS>  (1305) 
21

>  <MASS SPECTRAL PEAKS>  (1305) 
38 2
49 6
53 4
55 0.8
67 8
77 8
91 9
134 0.6
161 8
162 6
175 5
176 0.6
189 7
190 18
191 27
203 2.3
204 42
205 92
206 13
250 99.99
251 14

$$$$

     RDKit          2D

 18 18  0  0  0  0  0  0  0  0999 V2000
    8.5885    4.3157    0.0000 C   0  0  0  0  0  0  0  0  0  0  0  0
    7.2895    6.5657    0.0000 C   0  0  0  0  0  0  0  0  0  0  0  0
    2.0933    6.5657    0.0000 C   0  0  0  0  0  0  0  0  0  0  0  0
   -4.2780    2.0212    0.0000 C   0  0  0  0  0  0  0  0  0  0  0  0
   -5.0280    3.3202    0.0000 C   0  0  0  0  0  0  0  0  0  0  0  0
   -2.7948    1.7921    0.0000 C   0  0  0  0  0  0  0  0  0  0  0  0
    4.6914    5.0657    0.0000 C   0  0  0  0  0  0  0  0  0  0  0  0
    5.9904    4.3157    0.0000 C   0  0  0  0  0  0  0  0  0  0  0  0
    3.3923    4.3157    0.0000 C   0  0  0  0  0  0  0  0  0  0  0  0
   -4.4848    4.7193    0.0000 C   0  0  0  0  0  0  0  0  0  0  0  0
    0.7943    4.3157    0.0000 C   0  0  0  0  0  0  0  0  0  0  0  0
   -1.6917    2.8216    0.0000 C   0  0  0  0  0  0  0  0  0  0  0  0
   -0.5048    5.0657    0.0000 C   0  0  0  0  0  0  0  0  0  0  0  0
    7.2895    5.0657    0.0000 C   0  0  0  0  0  0  0  0  0  0  0  0
    2.0933    5.0657    0.0000 C   0  0  0  0  0  0  0  0  0  0  0  0
   -3.0417    5.1599    0.0000 C   0  0  0  0  0  0  0  0  0  0  0  0
   -1.8038    4.3157    0.0000 N   0  0  0  0  0  0  0  0  0  0  0  0
   -2.8160    6.6428    0.0000 O   0  0  0  0  0  0  0  0  0  0  0  0
  5  4  1  0
  6  4  1  0
  8  7  1  0
  9  7  1  0
 10  5  1  0
 12  6  1  0
 13 11  1  0
 14  1  1  0
 14  2  1  0
 14  8  2  0
 15  3  1  0
 15  9  1  0
 11 15  2  0
 16 10  1  0
 17 12  1  0
 17 13  1  0
 17 16  1  0
 18 16  2  0
M  END
>  <NAME>  (1306) 
N-(3,7-DIMETHYL-2,6-OCTADIENYL)-CAPROLACTAM

>  <SYNONYMS>  (1306) 


>  <SPECTRUM TYPE>  (1306) 
MS1

>  <INSTRUMENT TYPE>  (1306) 
EI-B

>  <INSTRUMENT>  (1306) 
JEOL JMS-D-300

>  <ION MODE>  (1306) 
P

>  <INCHIKEY>  (1306) 
IZUPQLMOLYRSQK-RVDMUPIBSA-N

>  <FORMULA>  (1306) 
C16H27NO

>  <EXACT MASS>  (1306) 
249.209264484

>  <MW>  (1306) 
249

>  <ID>  (1306) 
JP010134

>  <CONTRIBUTOR>  (1306) 
University of Tokyo Team, {Faculty of Engineering, University of Tokyo

>  <COMMENT>  (1306) 
SMILES=CC(C)=CCCC(C)=CCN(C1)C(=O)CCCC1
InChI=InChI=1S/C16H27NO/c1-14(2)8-7-9-15(3)11-13-17-12-6-4-5-10-16(17)18/h8,11H,4-7,9-10,12-13H2,1-3H3/b15-11+
computed SMILES=O=C1N(CC=C(C)CCC=C(C)C)CCCCC1
accession=JP010134
date=2016.01.19 (Created 2008.10.21, modified 2011.05.06)
author=KURARAY CO., LTD.
license=CC BY-NC-SA
exact mass=249.20926
ionization energy=70 eV
ion type=[M]+*
computed spectral entropy=3.3078108371869974
computed normalized entropy=0.761500692582914
SPLASH=splash10-001i-9800000000-f1518ec26692b6276387
submitter=submitter = University of Tokyo Team (Faculty of Engineering, University of Tokyo)
MoNA Rating=3.75

>  <NUM PEAKS>  (1306) 
77

>  <MASS SPECTRAL PEAKS>  (1306) 
27 4
29 4
30 3
39 0.5
40 1
41 37
42 7
43 0.5
44 4
53 6
54 2
55 2.2
56 4
57 2
65 1
66 0.1
67 10
68 7
69 36
70 0.4
71 2
77 2
79 4
80 0.5
81 9
82 4
83 3
84 0.8
85 7
91 4
92 2
93 1
94 3
95 4
96 27
97 0.3
98 20
99 3
105 1
107 0.3
108 2
109 1
110 1
112 0.3
113 1
114 21
115 2
119 0.1
121 10
122 2
124 1
126 3.7
127 6
128 1
135 1
136 0.9
137 1
138 21
139 2
140 0.1
143 2
150 1
152 5
164 0.1
166 7
167 3
178 2
179 0.3
180 99.99
181 14
182 1
192 0.3
206 3
207 1
234 1
249 1.7
250 3

$$$$

     RDKit          2D

 18 18  0  0  0  0  0  0  0  0999 V2000
    2.3089    1.6703    0.0000 C   0  0  0  0  0  0  0  0  0  0  0  0
    3.6073   -3.5804    0.0000 C   0  0  0  0  0  0  0  0  0  0  0  0
    4.9064   -1.3304    0.0000 C   0  0  0  0  0  0  0  0  0  0  0  0
   -5.4859    1.6696    0.0000 C   0  0  0  0  0  0  0  0  0  0  0  0
   -1.5893   -0.5812    0.0000 C   0  0  0  0  0  0  0  0  0  0  0  0
   -0.2903   -1.3312    0.0000 C   0  0  0  0  0  0  0  0  0  0  0  0
   -0.2893    1.6705    0.0000 C   0  0  0  0  0  0  0  0  0  0  0  0
    1.0097    0.9205    0.0000 C   0  0  0  0  0  0  0  0  0  0  0  0
    2.3083   -2.8304    0.0000 C   0  0  0  0  0  0  0  0  0  0  0  0
    3.6073   -0.5804    0.0000 C   0  0  0  0  0  0  0  0  0  0  0  0
   -4.1869    0.9196    0.0000 C   0  0  0  0  0  0  0  0  0  0  0  0
   -1.5888    0.9196    0.0000 C   0  0  0  0  0  0  0  0  0  0  0  0
    1.0092   -0.5804    0.0000 C   0  0  0  0  0  0  0  0  0  0  0  0
    2.3083   -1.3304    0.0000 N   0  0  0  0  0  0  0  0  0  0  0  0
    1.0092   -3.5804    0.0000 O   0  0  0  0  0  0  0  0  0  0  0  0
    3.6073    0.9196    0.0000 O   0  0  0  0  0  0  0  0  0  0  0  0
   -4.1869   -0.5804    0.0000 O   0  0  0  0  0  0  0  0  0  0  0  0
   -2.8879    1.6696    0.0000 O   0  0  0  0  0  0  0  0  0  0  0  0
  6  5  2  0
  8  1  1  0
  8  7  1  0
  9  2  1  0
 10  3  1  0
 11  4  1  0
 12  5  1  0
 12  7  2  0
 13  6  1  0
 13  8  2  0
 14  9  1  0
 14 10  1  0
 14 13  1  0
 15  9  2  0
 16 10  2  0
 17 11  2  0
 18 11  1  0
 18 12  1  0
M  END
>  <NAME>  (1307) 
4-DIACETYLAMINO-3-METHYLPHENYL ACETATE

>  <SYNONYMS>  (1307) 


>  <SPECTRUM TYPE>  (1307) 
MS1

>  <INSTRUMENT TYPE>  (1307) 
EI-B

>  <INSTRUMENT>  (1307) 
JEOL JMS-D-300

>  <ION MODE>  (1307) 
P

>  <INCHIKEY>  (1307) 
CNTDZEFLPRSVDQ-UHFFFAOYSA-N

>  <FORMULA>  (1307) 
C13H15NO4

>  <EXACT MASS>  (1307) 
249.10010795999997

>  <MW>  (1307) 
249

>  <ID>  (1307) 
JP010133

>  <CONTRIBUTOR>  (1307) 
University of Tokyo Team, {Faculty of Engineering, University of Tokyo

>  <COMMENT>  (1307) 
SMILES=CC(=O)Oc(c1)cc(C)c(c1)N(C(C)=O)C(C)=O
InChI=InChI=1S/C13H15NO4/c1-8-7-12(18-11(4)17)5-6-13(8)14(9(2)15)10(3)16/h5-7H,1-4H3
computed SMILES=O=C(OC1=CC=C(C(=C1)C)N(C(=O)C)C(=O)C)C
accession=JP010133
date=2016.01.19 (Created 2008.10.21, modified 2011.05.06)
author=KURARAY CO., LTD.
license=CC BY-NC-SA
exact mass=249.10011
ionization energy=70 eV
ion type=[M]+*
computed spectral entropy=1.9388964179996195
computed normalized entropy=0.610089231178108
SPLASH=splash10-00xr-1920000000-61e052d959ccd2ae9df1
submitter=submitter = University of Tokyo Team (Faculty of Engineering, University of Tokyo)
MoNA Rating=3.75

>  <NUM PEAKS>  (1307) 
24

>  <MASS SPECTRAL PEAKS>  (1307) 
28 4
39 2
42 2
43 5.2
52 2
65 2
66 2
67 0.2
77 4
94 3
120 2
122 1.4
123 99.99
124 10
146 2
148 0.2
149 2
164 2
165 77
166 0.8
207 40
208 4
249 10
250 1

$$$$

     RDKit          2D

 18 18  0  0  0  0  0  0  0  0999 V2000
   -5.5446    3.1736    0.0000 C   0  0  0  0  0  0  0  0  0  0  0  0
   -4.2456    0.9236    0.0000 C   0  0  0  0  0  0  0  0  0  0  0  0
    0.6157    4.3226    0.0000 C   0  0  0  0  0  0  0  0  0  0  0  0
   -1.7638    6.8812    0.0000 C   0  0  0  0  0  0  0  0  0  0  0  0
   -3.7540    5.2112    0.0000 C   0  0  0  0  0  0  0  0  0  0  0  0
    3.5487    0.9236    0.0000 C   0  0  0  0  0  0  0  0  0  0  0  0
    3.5491    2.4244    0.0000 C   0  0  0  0  0  0  0  0  0  0  0  0
    2.2491    0.1727    0.0000 C   0  0  0  0  0  0  0  0  0  0  0  0
    2.2501    3.1744    0.0000 C   0  0  0  0  0  0  0  0  0  0  0  0
    0.9501    0.9227    0.0000 C   0  0  0  0  0  0  0  0  0  0  0  0
   -2.9465    3.1736    0.0000 C   0  0  0  0  0  0  0  0  0  0  0  0
   -1.6475    2.4236    0.0000 C   0  0  0  0  0  0  0  0  0  0  0  0
   -4.2456    2.4236    0.0000 C   0  0  0  0  0  0  0  0  0  0  0  0
    0.9506    2.4236    0.0000 C   0  0  0  0  0  0  0  0  0  0  0  0
   -1.3126    4.3226    0.0000 C   0  0  0  0  0  0  0  0  0  0  0  0
   -0.3485    3.1736    0.0000 C   0  0  0  0  0  0  0  0  0  0  0  0
   -0.7996    5.7322    0.0000 O   0  0  0  0  0  0  0  0  0  0  0  0
   -2.7899    4.0621    0.0000 O   0  0  0  0  0  0  0  0  0  0  0  0
  7  6  2  0
  8  6  1  0
  9  7  1  0
 10  8  2  0
 12 11  1  0
 13  1  1  0
 13  2  1  0
 13 11  2  0
 14  9  2  0
 14 10  1  0
 16  3  1  0
 16 12  1  0
 16 14  1  0
 16 15  1  0
 17  4  1  0
 17 15  1  0
 18  5  1  0
 18 15  1  0
M  END
>  <NAME>  (1308) 
2,5-DIMETHYL-2-PHENYL-1,1-DIMETHOXY-4-HEXENE

>  <SYNONYMS>  (1308) 


>  <SPECTRUM TYPE>  (1308) 
MS1

>  <INSTRUMENT TYPE>  (1308) 
EI-B

>  <INSTRUMENT>  (1308) 
JEOL JMS-D-300

>  <ION MODE>  (1308) 
P

>  <INCHIKEY>  (1308) 
HQFQZISESHHIGV-UHFFFAOYSA-N

>  <FORMULA>  (1308) 
C16H24O2

>  <EXACT MASS>  (1308) 
248.177630008

>  <MW>  (1308) 
248

>  <ID>  (1308) 
JP010132

>  <CONTRIBUTOR>  (1308) 
University of Tokyo Team, {Faculty of Engineering, University of Tokyo

>  <COMMENT>  (1308) 
SMILES=CC(C)=CCC(C)(C(OC)OC)c(c1)cccc1
InChI=InChI=1S/C16H24O2/c1-13(2)11-12-16(3,15(17-4)18-5)14-9-7-6-8-10-14/h6-11,15H,12H2,1-5H3
computed SMILES=O(C)C(OC)C(C=1C=CC=CC1)(C)CC=C(C)C
accession=JP010132
date=2016.01.19 (Created 2008.10.21, modified 2011.05.06)
author=KURARAY CO., LTD.
license=CC BY-NC-SA
exact mass=248.17763
ionization energy=70 eV
ion type=[M]+*
computed spectral entropy=1.6008649541790876
computed normalized entropy=0.4857233592753267
SPLASH=splash10-004i-9200000000-41294de83694cc48ccdf
submitter=submitter = University of Tokyo Team (Faculty of Engineering, University of Tokyo)
MoNA Rating=3.75

>  <NUM PEAKS>  (1308) 
27

>  <MASS SPECTRAL PEAKS>  (1308) 
41 4
47 2
69 9
75 99.99
76 3
77 2
91 2
105 0.6
107 2
117 2
119 4
121 0.3
147 4
148 2
179 10
180 0.14
184 1.1
185 0.7
197 0.8
198 0.05
201 1.6
202 0.6
209 0.2
216 0.2
217 0.9
218 0.4
259 0.4

$$$$

     RDKit          2D

 18 19  0  0  0  0  0  0  0  0999 V2000
   -3.6087   -3.0002    0.0000 C   0  0  0  0  0  0  0  0  0  0  0  0
    4.1000   -0.0000    0.0000 C   0  0  0  0  0  0  0  0  0  0  0  0
    3.0195    1.9591    0.0000 C   0  0  0  0  0  0  0  0  0  0  0  0
    1.1124    2.5814    0.0000 C   0  0  0  0  0  0  0  0  0  0  0  0
    1.1124   -2.5814    0.0000 C   0  0  0  0  0  0  0  0  0  0  0  0
    3.0195   -1.9591    0.0000 C   0  0  0  0  0  0  0  0  0  0  0  0
   -2.3100    0.7500    0.0000 C   0  0  0  0  0  0  0  0  0  0  0  0
   -1.0100    1.5000    0.0000 C   0  0  0  0  0  0  0  0  0  0  0  0
   -1.0100   -1.5000    0.0000 C   0  0  0  0  0  0  0  0  0  0  0  0
   -4.9081   -0.7504    0.0000 C   0  0  0  0  0  0  0  0  0  0  0  0
   -3.6089   -1.5002    0.0000 C   0  0  0  0  0  0  0  0  0  0  0  0
    2.6000    0.0000    0.0000 C   0  0  0  0  0  0  0  0  0  0  0  0
   -2.3100   -0.7500    0.0000 C   0  0  0  0  0  0  0  0  0  0  0  0
    0.2900    0.7500    0.0000 C   0  0  0  0  0  0  0  0  0  0  0  0
    0.2900   -0.7500    0.0000 C   0  0  0  0  0  0  0  0  0  0  0  0
    1.7200    1.2100    0.0000 C   0  0  0  0  0  0  0  0  0  0  0  0
    1.7200   -1.2100    0.0000 C   0  0  0  0  0  0  0  0  0  0  0  0
   -6.2070   -1.5006    0.0000 O   0  0  0  0  0  0  0  0  0  0  0  0
  8  7  2  0
 11  1  1  0
 11 10  1  0
 12  2  1  0
 13  7  1  0
 13  9  2  0
 13 11  1  0
 14  8  1  0
 15  9  1  0
 15 14  2  0
 16  3  1  0
 16  4  1  0
 16 12  1  0
 16 14  1  0
 17  5  1  0
 17  6  1  0
 17 12  1  0
 17 15  1  0
 18 10  1  0
M  END
>  <NAME>  (1309) 
1,1,2,3,3-PENTAMETHYL-5-(1-METHYL-2-HYDROXYETHYL)-INDAN

>  <SYNONYMS>  (1309) 


>  <SPECTRUM TYPE>  (1309) 
MS1

>  <INSTRUMENT TYPE>  (1309) 
EI-B

>  <INSTRUMENT>  (1309) 
JEOL JMS-D-300

>  <ION MODE>  (1309) 
P

>  <INCHIKEY>  (1309) 
FADUOCSCUWPALK-UHFFFAOYSA-N

>  <FORMULA>  (1309) 
C17H26O

>  <EXACT MASS>  (1309) 
246.198365452

>  <MW>  (1309) 
246

>  <ID>  (1309) 
JP010131

>  <CONTRIBUTOR>  (1309) 
University of Tokyo Team, {Faculty of Engineering, University of Tokyo

>  <COMMENT>  (1309) 
SMILES=OCC(C)c(c2)cc(c(c2)1)C(C)(C)C(C)C(C)(C)1
InChI=InChI=1S/C17H26O/c1-11(10-18)13-7-8-14-15(9-13)17(5,6)12(2)16(14,3)4/h7-9,11-12,18H,10H2,1-6H3
computed SMILES=OCC(C1=CC=C2C(=C1)C(C)(C)C(C)C2(C)C)C
accession=JP010131
date=2016.01.19 (Created 2008.10.21, modified 2011.05.06)
author=KURARAY CO., LTD.
license=CC BY-NC-SA
exact mass=246.19837
ionization energy=70 eV
ion type=[M]+*
computed spectral entropy=1.482694080730553
computed normalized entropy=0.6439258576118937
SPLASH=splash10-00di-1900000000-a595917902c419c687bf
submitter=submitter = University of Tokyo Team (Faculty of Engineering, University of Tokyo)
MoNA Rating=3.75

>  <NUM PEAKS>  (1309) 
10

>  <MASS SPECTRAL PEAKS>  (1309) 
43 10
57 6
71 13
129 0.4
131 15
143 3
159 4
173 99.99
174 15
229 4

$$$$

     RDKit          2D

 17 17  0  0  0  0  0  0  0  0999 V2000
    6.4964   -0.7492    0.0000 C   0  0  0  0  0  0  0  0  0  0  0  0
   -3.8971   -5.2500    0.0000 C   0  0  0  0  0  0  0  0  0  0  0  0
    5.1972    0.0006    0.0000 C   0  0  0  0  0  0  0  0  0  0  0  0
   -2.5981   -4.5000    0.0000 C   0  0  0  0  0  0  0  0  0  0  0  0
    3.8981    0.7504    0.0000 C   0  0  0  0  0  0  0  0  0  0  0  0
   -1.2990   -3.7500    0.0000 C   0  0  0  0  0  0  0  0  0  0  0  0
   -1.3000    0.7500    0.0000 C   0  0  0  0  0  0  0  0  0  0  0  0
    1.3000   -0.7500    0.0000 C   0  0  0  0  0  0  0  0  0  0  0  0
    0.0000    3.0000    0.0000 C   0  0  0  0  0  0  0  0  0  0  0  0
    0.0000    1.5000    0.0000 C   0  0  0  0  0  0  0  0  0  0  0  0
   -1.3000   -0.7500    0.0000 C   0  0  0  0  0  0  0  0  0  0  0  0
    1.3000    0.7500    0.0000 C   0  0  0  0  0  0  0  0  0  0  0  0
   -0.0000   -1.5000    0.0000 C   0  0  0  0  0  0  0  0  0  0  0  0
   -2.5989   -1.5002    0.0000 Cl  0  0  0  0  0  0  0  0  0  0  0  0
    0.0000    4.5000    0.0000 N   0  0  0  0  0  0  0  0  0  0  0  0
    2.5989    1.5002    0.0000 O   0  0  0  0  0  0  0  0  0  0  0  0
   -0.0000   -3.0000    0.0000 O   0  0  0  0  0  0  0  0  0  0  0  0
  3  1  1  0
  4  2  1  0
  5  3  3  0
  6  4  3  0
 10  7  2  0
 10  9  1  0
 11  7  1  0
 12  8  2  0
 12 10  1  0
 13  8  1  0
 13 11  2  0
 14 11  1  0
 15  9  3  0
 16  5  1  0
 16 12  1  0
 17  6  1  0
 17 13  1  0
M  END
>  <NAME>  (1310) 
1,3-DIPROPYNOXY-4-CHLORO-6-CYANOBENZENE

>  <SYNONYMS>  (1310) 
2,4-DIPROPYNOXY-5-CHLORO-BENZONITRIL

>  <SPECTRUM TYPE>  (1310) 
MS1

>  <INSTRUMENT TYPE>  (1310) 
EI-B

>  <INSTRUMENT>  (1310) 
JEOL JMS-D-300

>  <ION MODE>  (1310) 
P

>  <INCHIKEY>  (1310) 
YWRHZTAJZBSLDN-UHFFFAOYSA-N

>  <FORMULA>  (1310) 
C13H8ClNO2

>  <EXACT MASS>  (1310) 
245.024356176

>  <MW>  (1310) 
245

>  <ID>  (1310) 
JP010130

>  <CONTRIBUTOR>  (1310) 
University of Tokyo Team, {Faculty of Engineering, University of Tokyo

>  <COMMENT>  (1310) 
SMILES=CC#COc(c1)c(C#N)cc(Cl)c(OC#CC)1
InChI=InChI=1S/C13H8ClNO2/c1-3-5-16-12-8-13(17-6-4-2)11(14)7-10(12)9-15/h7-8H,1-2H3
computed SMILES=N#CC1=CC(Cl)=C(OC#CC)C=C1OC#CC
accession=JP010130
date=2016.01.19 (Created 2008.10.21, modified 2011.05.06)
author=KURARAY CO., LTD.
license=CC BY-NC-SA
exact mass=245.02436
ionization energy=70 eV
ion type=[M]+*
computed spectral entropy=2.0329953355465546
computed normalized entropy=0.6677550838044573
SPLASH=splash10-0a4i-0190000000-e4e85a62f006f07e05f8
submitter=submitter = University of Tokyo Team (Faculty of Engineering, University of Tokyo)
MoNA Rating=3.75

>  <NUM PEAKS>  (1310) 
21

>  <MASS SPECTRAL PEAKS>  (1310) 
39 6
63 4
87 2
88 0.4
114 6
115 2
123 8
125 0.2
143 2
150 6
152 2
206 99.99
207 13
208 32
209 4
210 0.4
216 2
244 3
245 31
246 0.5
247 10

$$$$

     RDKit          2D

 17 16  0  0  0  0  0  0  0  0999 V2000
    3.2476    5.6250    0.0000 C   0  0  0  0  0  0  0  0  0  0  0  0
    1.9486    7.8750    0.0000 C   0  0  0  0  0  0  0  0  0  0  0  0
   -9.7428    5.6250    0.0000 C   0  0  0  0  0  0  0  0  0  0  0  0
   -8.4437    7.8750    0.0000 C   0  0  0  0  0  0  0  0  0  0  0  0
   -3.2476    7.8750    0.0000 C   0  0  0  0  0  0  0  0  0  0  0  0
   -8.4437    3.3750    0.0000 C   0  0  0  0  0  0  0  0  0  0  0  0
   -0.6495    6.3750    0.0000 C   0  0  0  0  0  0  0  0  0  0  0  0
    0.6495    5.6250    0.0000 C   0  0  0  0  0  0  0  0  0  0  0  0
   -1.9486    5.6250    0.0000 C   0  0  0  0  0  0  0  0  0  0  0  0
   -4.5466    5.6250    0.0000 C   0  0  0  0  0  0  0  0  0  0  0  0
   -5.8457    6.3750    0.0000 C   0  0  0  0  0  0  0  0  0  0  0  0
    1.9486    6.3750    0.0000 C   0  0  0  0  0  0  0  0  0  0  0  0
   -8.4437    6.3750    0.0000 C   0  0  0  0  0  0  0  0  0  0  0  0
   -3.2476    6.3750    0.0000 C   0  0  0  0  0  0  0  0  0  0  0  0
   -7.1447    4.1250    0.0000 C   0  0  0  0  0  0  0  0  0  0  0  0
   -7.1447    5.6250    0.0000 C   0  0  0  0  0  0  0  0  0  0  0  0
   -5.8457    3.3750    0.0000 O   0  0  0  0  0  0  0  0  0  0  0  0
  8  7  1  0
  9  7  1  0
 11 10  1  0
 12  1  1  0
 12  2  1  0
 12  8  1  0
 13  3  1  0
 13  4  1  0
 14  5  1  0
 14  9  1  0
 14 10  1  0
 15  6  1  0
 16 11  1  0
 16 13  1  0
 16 15  1  0
 17 15  1  0
M  END
>  <NAME>  (1311) 
3-ISOPROPYL-6,10-DIMETHYLUNDECANE-2-OL

>  <SYNONYMS>  (1311) 


>  <SPECTRUM TYPE>  (1311) 
MS1

>  <INSTRUMENT TYPE>  (1311) 
EI-B

>  <INSTRUMENT>  (1311) 
JEOL JMS-D-300

>  <ION MODE>  (1311) 
P

>  <INCHIKEY>  (1311) 
BVNWBGCXCHDPNH-UHFFFAOYSA-N

>  <FORMULA>  (1311) 
C16H34O

>  <EXACT MASS>  (1311) 
242.26096570800001

>  <MW>  (1311) 
242

>  <ID>  (1311) 
JP010129

>  <CONTRIBUTOR>  (1311) 
University of Tokyo Team, {Faculty of Engineering, University of Tokyo

>  <COMMENT>  (1311) 
SMILES=CC(C)CCCC(C)CCC(C(C)C)C(C)O
InChI=InChI=1S/C16H34O/c1-12(2)8-7-9-14(5)10-11-16(13(3)4)15(6)17/h12-17H,7-11H2,1-6H3
computed SMILES=OC(C)C(CCC(C)CCCC(C)C)C(C)C
accession=JP010129
date=2016.01.19 (Created 2008.10.21, modified 2011.05.06)
author=KURARAY CO., LTD.
license=CC BY-NC-SA
exact mass=242.26097
ionization energy=70 eV
ion type=[M]+*
computed spectral entropy=2.8037880489911
computed normalized entropy=0.7707825810514952
SPLASH=splash10-0ab9-9100000000-db47b858f71ef2857b99
submitter=submitter = University of Tokyo Team (Faculty of Engineering, University of Tokyo)
MoNA Rating=3.75

>  <NUM PEAKS>  (1311) 
38

>  <MASS SPECTRAL PEAKS>  (1311) 
27 4
29 6
39 2
41 1.9
42 3
43 46
44 2
45 3.8
55 24
56 22
57 99.99
58 0.4
69 28
70 16
71 80
72 0.4
83 19
84 21
85 34
86 0.2
97 8
98 4
99 10
111 0.8
112 17
113 23
125 2
126 1.3
127 8
140 2
141 4
155 0.2
196 10
197 4
198 2
224 0.2
225 0.5
227 0.7

$$$$

     RDKit          2D

 17 17  0  0  0  0  0  0  0  0999 V2000
   -9.9364    4.9403    0.0000 C   0  0  0  0  0  0  0  0  0  0  0  0
   -8.6374    7.1903    0.0000 C   0  0  0  0  0  0  0  0  0  0  0  0
   -3.4412    7.1903    0.0000 C   0  0  0  0  0  0  0  0  0  0  0  0
    2.7191    6.8394    0.0000 C   0  0  0  0  0  0  0  0  0  0  0  0
   -6.0393    5.6903    0.0000 C   0  0  0  0  0  0  0  0  0  0  0  0
   -0.8431    5.6903    0.0000 C   0  0  0  0  0  0  0  0  0  0  0  0
   -7.3383    4.9403    0.0000 C   0  0  0  0  0  0  0  0  0  0  0  0
   -4.7402    4.9403    0.0000 C   0  0  0  0  0  0  0  0  0  0  0  0
   -2.1422    4.9403    0.0000 C   0  0  0  0  0  0  0  0  0  0  0  0
    0.4559    4.9403    0.0000 C   0  0  0  0  0  0  0  0  0  0  0  0
    4.5548    4.9399    0.0000 C   0  0  0  0  0  0  0  0  0  0  0  0
   -8.6374    5.6903    0.0000 C   0  0  0  0  0  0  0  0  0  0  0  0
   -3.4412    5.6903    0.0000 C   0  0  0  0  0  0  0  0  0  0  0  0
    3.0540    4.9403    0.0000 C   0  0  0  0  0  0  0  0  0  0  0  0
    1.7549    5.6903    0.0000 C   0  0  0  0  0  0  0  0  0  0  0  0
    0.7908    6.8394    0.0000 O   0  0  0  0  0  0  0  0  0  0  0  0
    3.8048    3.6408    0.0000 O   0  0  0  0  0  0  0  0  0  0  0  0
  7  5  1  0
  8  5  1  0
  9  6  1  0
 10  6  1  0
 12  1  1  0
 12  2  1  0
 12  7  1  0
 13  3  1  0
 13  8  1  0
 13  9  1  0
 14 11  1  0
 15  4  1  0
 15 10  1  0
 15 14  1  0
 16 15  1  0
 17 11  1  0
 17 14  1  0
M  END
>  <NAME>  (1312) 
1,2-EPOXY-3,7,11-TRIMETHYLDODECANE-3-OL

>  <SYNONYMS>  (1312) 


>  <SPECTRUM TYPE>  (1312) 
MS1

>  <INSTRUMENT TYPE>  (1312) 
EI-B

>  <INSTRUMENT>  (1312) 
JEOL JMS-D-300

>  <ION MODE>  (1312) 
P

>  <INCHIKEY>  (1312) 
NHBSCDIASIETLN-UHFFFAOYSA-N

>  <FORMULA>  (1312) 
C15H30O2

>  <EXACT MASS>  (1312) 
242.2245802

>  <MW>  (1312) 
242

>  <ID>  (1312) 
JP010128

>  <CONTRIBUTOR>  (1312) 
University of Tokyo Team, {Faculty of Engineering, University of Tokyo

>  <COMMENT>  (1312) 
SMILES=CC(C)CCCC(C)CCCC(C)(O)C(O1)C1
InChI=InChI=1S/C15H30O2/c1-12(2)7-5-8-13(3)9-6-10-15(4,16)14-11-17-14/h12-14,16H,5-11H2,1-4H3
computed SMILES=OC(C)(CCCC(C)CCCC(C)C)C1OC1
author=KURARAY CO., LTD.
accession=JP010128
date=2016.01.19 (Created 2008.10.21, modified 2011.05.06)
license=CC BY-NC-SA
exact mass=242.22458
ionization energy=70 eV
ion type=[M]+*
computed spectral entropy=2.7084440906009464
computed normalized entropy=0.744571804398077
SPLASH=splash10-000l-9000000000-60721d891ad5904ff7d7
submitter=submitter = University of Tokyo Team (Faculty of Engineering, University of Tokyo)
MoNA Rating=3.75

>  <NUM PEAKS>  (1312) 
38

>  <MASS SPECTRAL PEAKS>  (1312) 
27 4
29 8
31 2
39 0.2
41 13
42 4
43 83
44 0.2
45 2
55 22
56 7
57 2.1
58 6
59 4
67 3
68 0.4
69 34
70 7
71 17
72 0.2
81 6
82 3
83 24
84 0.3
85 7
86 2
87 99.99
88 0.6
89 2
95 6
97 14
99 0.3
109 4
111 12
125 9
139 0.2
199 11
200 2

$$$$

     RDKit          2D

 17 16  0  0  0  0  0  0  0  0999 V2000
    4.8714    7.3125    0.0000 C   0  0  0  0  0  0  0  0  0  0  0  0
    3.5724    9.5625    0.0000 C   0  0  0  0  0  0  0  0  0  0  0  0
   -6.8200    8.0625    0.0000 C   0  0  0  0  0  0  0  0  0  0  0  0
   -5.5209    7.3125    0.0000 C   0  0  0  0  0  0  0  0  0  0  0  0
   -8.1190    7.3125    0.0000 C   0  0  0  0  0  0  0  0  0  0  0  0
   -4.2219    8.0625    0.0000 C   0  0  0  0  0  0  0  0  0  0  0  0
   -9.4180    8.0625    0.0000 C   0  0  0  0  0  0  0  0  0  0  0  0
   -2.9228    7.3125    0.0000 C   0  0  0  0  0  0  0  0  0  0  0  0
  -10.7171    7.3125    0.0000 C   0  0  0  0  0  0  0  0  0  0  0  0
   -1.6238    8.0625    0.0000 C   0  0  0  0  0  0  0  0  0  0  0  0
  -12.0161    8.0625    0.0000 C   0  0  0  0  0  0  0  0  0  0  0  0
   -0.3248    7.3125    0.0000 C   0  0  0  0  0  0  0  0  0  0  0  0
    3.5724    8.0625    0.0000 C   0  0  0  0  0  0  0  0  0  0  0  0
    2.2733    7.3125    0.0000 C   0  0  0  0  0  0  0  0  0  0  0  0
  -13.3151    7.3125    0.0000 O   0  0  0  0  0  0  0  0  0  0  0  0
    2.2733    5.8125    0.0000 O   0  0  0  0  0  0  0  0  0  0  0  0
    0.9743    8.0625    0.0000 O   0  0  0  0  0  0  0  0  0  0  0  0
  4  3  1  0
  5  3  1  0
  6  4  1  0
  7  5  1  0
  8  6  1  0
  9  7  1  0
 10  8  1  0
 11  9  1  0
 12 10  1  0
 13  1  2  0
 13  2  1  0
 14 13  1  0
 15 11  1  0
 16 14  2  0
 17 12  1  0
 17 14  1  0
M  END
>  <NAME>  (1313) 
METHACRYLIC ACID 1,10-DECANDIOL MONOESTER

>  <SYNONYMS>  (1313) 


>  <SPECTRUM TYPE>  (1313) 
MS1

>  <INSTRUMENT TYPE>  (1313) 
EI-B

>  <INSTRUMENT>  (1313) 
JEOL JMS-D-300

>  <ION MODE>  (1313) 
P

>  <INCHIKEY>  (1313) 
ZUQABTLQDXJZFK-UHFFFAOYSA-N

>  <FORMULA>  (1313) 
C14H26O3

>  <EXACT MASS>  (1313) 
242.188194692

>  <MW>  (1313) 
242

>  <ID>  (1313) 
JP010127

>  <CONTRIBUTOR>  (1313) 
University of Tokyo Team, {Faculty of Engineering, University of Tokyo

>  <COMMENT>  (1313) 
SMILES=OCCCCCCCCCCOC(=O)C(C)=C
InChI=InChI=1S/C14H26O3/c1-13(2)14(16)17-12-10-8-6-4-3-5-7-9-11-15/h15H,1,3-12H2,2H3
computed SMILES=O=C(OCCCCCCCCCCO)C(=C)C
accession=JP010127
date=2016.01.19 (Created 2008.10.21, modified 2011.05.06)
author=KURARAY CO., LTD.
license=CC BY-NC-SA
exact mass=242.18819
ionization energy=70 eV
ion type=[M]+*
computed spectral entropy=3.1877792748336415
computed normalized entropy=0.7919256551348579
SPLASH=splash10-0159-9000000000-01b04e406fadd7b0df3c
submitter=submitter = University of Tokyo Team (Faculty of Engineering, University of Tokyo)
MoNA Rating=3.75

>  <NUM PEAKS>  (1313) 
56

>  <MASS SPECTRAL PEAKS>  (1313) 
27 3
28 2
29 6
31 0.6
39 8
41 53
42 7
43 1.5
53 2
54 21
55 34
56 1.3
57 15
66 4
67 42
68 4.8
69 99.99
70 21
71 11
74 0.2
79 2
80 2
81 44
82 5.2
83 35
84 7
85 6
86 0.5
87 66
88 10
89 2
94 0.2
95 35
96 31
97 21
98 0.6
99 6
109 17
110 18
111 0.5
112 4
113 5
114 2
123 0.3
124 2
125 2
126 3
127 0.4
137 4
138 6
139 3
155 0.2
212 2
224 0.6
242 0.4
243 0.5

$$$$

     RDKit          2D

 17 16  0  0  0  0  0  0  0  0999 V2000
  -10.7171    7.3125    0.0000 C   0  0  0  0  0  0  0  0  0  0  0  0
   -9.4180    5.0625    0.0000 C   0  0  0  0  0  0  0  0  0  0  0  0
    3.5724    5.0625    0.0000 C   0  0  0  0  0  0  0  0  0  0  0  0
    4.8714    7.3125    0.0000 C   0  0  0  0  0  0  0  0  0  0  0  0
   -4.2219    6.5625    0.0000 C   0  0  0  0  0  0  0  0  0  0  0  0
   -1.6238    6.5625    0.0000 C   0  0  0  0  0  0  0  0  0  0  0  0
   -5.5209    7.3125    0.0000 C   0  0  0  0  0  0  0  0  0  0  0  0
   -0.3248    7.3125    0.0000 C   0  0  0  0  0  0  0  0  0  0  0  0
   -9.4180    6.5625    0.0000 C   0  0  0  0  0  0  0  0  0  0  0  0
    3.5724    6.5625    0.0000 C   0  0  0  0  0  0  0  0  0  0  0  0
   -8.1190    7.3125    0.0000 C   0  0  0  0  0  0  0  0  0  0  0  0
    2.2733    7.3125    0.0000 C   0  0  0  0  0  0  0  0  0  0  0  0
   -8.1190    8.8125    0.0000 O   0  0  0  0  0  0  0  0  0  0  0  0
    2.2733    8.8125    0.0000 O   0  0  0  0  0  0  0  0  0  0  0  0
   -2.9228    7.3125    0.0000 O   0  0  0  0  0  0  0  0  0  0  0  0
   -6.8200    6.5625    0.0000 O   0  0  0  0  0  0  0  0  0  0  0  0
    0.9743    6.5625    0.0000 O   0  0  0  0  0  0  0  0  0  0  0  0
  7  5  1  0
  8  6  1  0
  9  1  2  0
  9  2  1  0
 10  3  2  0
 10  4  1  0
 11  9  1  0
 12 10  1  0
 13 11  2  0
 14 12  2  0
 15  5  1  0
 15  6  1  0
 16  7  1  0
 16 11  1  0
 17  8  1  0
 17 12  1  0
M  END
>  <NAME>  (1314) 
DIETHYLENEGLYCOL DIMETHACRYLATE

>  <SYNONYMS>  (1314) 


>  <SPECTRUM TYPE>  (1314) 
MS1

>  <INSTRUMENT TYPE>  (1314) 
EI-B

>  <INSTRUMENT>  (1314) 
JEOL JMS-D-300

>  <ION MODE>  (1314) 
P

>  <INCHIKEY>  (1314) 
XFCMNSHQOZQILR-UHFFFAOYSA-N

>  <FORMULA>  (1314) 
C12H18O5

>  <EXACT MASS>  (1314) 
242.115423676

>  <MW>  (1314) 
242

>  <ID>  (1314) 
JP010126

>  <CONTRIBUTOR>  (1314) 
University of Tokyo Team, {Faculty of Engineering, University of Tokyo

>  <COMMENT>  (1314) 
SMILES=CC(=C)C(=O)OCCOCCOC(=O)C(C)=C
InChI=InChI=1S/C12H18O5/c1-9(2)11(13)16-7-5-15-6-8-17-12(14)10(3)4/h1,3,5-8H2,2,4H3
computed SMILES=O=C(OCCOCCOC(=O)C(=C)C)C(=C)C
accession=JP010126
date=2016.01.19 (Created 2008.10.21, modified 2011.05.06)
author=KURARAY CO., LTD.
license=CC BY-NC-SA
exact mass=242.11542
ionization energy=70 eV
ion type=[M]+*
computed spectral entropy=2.0228237363825277
computed normalized entropy=0.6644141331719393
SPLASH=splash10-03xr-9500000000-722e5ce0528cb921be49
submitter=submitter = University of Tokyo Team (Faculty of Engineering, University of Tokyo)
MoNA Rating=3.75

>  <NUM PEAKS>  (1314) 
21

>  <MASS SPECTRAL PEAKS>  (1314) 
39 8
40 3
41 26
43 0.3
44 3
45 23
58 2
68 0.2
69 79
70 6
75 2
86 2.5
87 4
88 3
89 15
100 0.9
101 6
112 6
113 99.99
114 0.8
143 3

$$$$

     RDKit          2D

 17 16  0  0  0  0  0  0  0  0999 V2000
    3.2476    5.6250    0.0000 C   0  0  0  0  0  0  0  0  0  0  0  0
    1.9486    7.8750    0.0000 C   0  0  0  0  0  0  0  0  0  0  0  0
   -9.7428    5.6250    0.0000 C   0  0  0  0  0  0  0  0  0  0  0  0
   -8.4437    7.8750    0.0000 C   0  0  0  0  0  0  0  0  0  0  0  0
   -3.2476    7.8750    0.0000 C   0  0  0  0  0  0  0  0  0  0  0  0
   -8.4437    3.3750    0.0000 C   0  0  0  0  0  0  0  0  0  0  0  0
   -0.6495    6.3750    0.0000 C   0  0  0  0  0  0  0  0  0  0  0  0
    0.6495    5.6250    0.0000 C   0  0  0  0  0  0  0  0  0  0  0  0
   -1.9486    5.6250    0.0000 C   0  0  0  0  0  0  0  0  0  0  0  0
   -4.5466    5.6250    0.0000 C   0  0  0  0  0  0  0  0  0  0  0  0
   -5.8457    6.3750    0.0000 C   0  0  0  0  0  0  0  0  0  0  0  0
    1.9486    6.3750    0.0000 C   0  0  0  0  0  0  0  0  0  0  0  0
   -8.4437    6.3750    0.0000 C   0  0  0  0  0  0  0  0  0  0  0  0
   -3.2476    6.3750    0.0000 C   0  0  0  0  0  0  0  0  0  0  0  0
   -7.1447    4.1250    0.0000 C   0  0  0  0  0  0  0  0  0  0  0  0
   -7.1447    5.6250    0.0000 C   0  0  0  0  0  0  0  0  0  0  0  0
   -5.8457    3.3750    0.0000 O   0  0  0  0  0  0  0  0  0  0  0  0
  8  7  1  0
  9  7  1  0
 11 10  1  0
 12  1  1  0
 12  2  1  0
 12  8  1  0
 13  3  1  0
 13  4  1  0
 14  5  1  0
 14  9  1  0
 14 10  1  0
 15  6  1  0
 16 11  1  0
 16 13  1  0
 16 15  1  0
 17 15  2  0
M  END
>  <NAME>  (1315) 
3-ISOPROPYL-6,10-DIMETHYLUNDECANE-2-ONE

>  <SYNONYMS>  (1315) 


>  <SPECTRUM TYPE>  (1315) 
MS1

>  <INSTRUMENT TYPE>  (1315) 
EI-B

>  <INSTRUMENT>  (1315) 
JEOL JMS-D-300

>  <ION MODE>  (1315) 
P

>  <INCHIKEY>  (1315) 
XCMBADWJWNQIAY-UHFFFAOYSA-N

>  <FORMULA>  (1315) 
C16H32O

>  <EXACT MASS>  (1315) 
240.245315644

>  <MW>  (1315) 
240

>  <ID>  (1315) 
JP010125

>  <CONTRIBUTOR>  (1315) 
University of Tokyo Team, {Faculty of Engineering, University of Tokyo

>  <COMMENT>  (1315) 
SMILES=CC(C)CCCC(C)CCC(C(C)C)C(C)=O
InChI=InChI=1S/C16H32O/c1-12(2)8-7-9-14(5)10-11-16(13(3)4)15(6)17/h12-14,16H,7-11H2,1-6H3
computed SMILES=O=C(C)C(CCC(C)CCCC(C)C)C(C)C
accession=JP010125
date=2016.01.19 (Created 2008.10.21, modified 2011.05.06)
author=KURARAY CO., LTD.
license=CC BY-NC-SA
exact mass=240.24532
ionization energy=70 eV
ion type=[M]+*
computed spectral entropy=2.543144835062832
computed normalized entropy=0.6894084956413118
SPLASH=splash10-0udi-9500000000-24d8fe2f6d4fe4cef97d
submitter=submitter = University of Tokyo Team (Faculty of Engineering, University of Tokyo)
MoNA Rating=3.75

>  <NUM PEAKS>  (1315) 
40

>  <MASS SPECTRAL PEAKS>  (1315) 
27 2
29 4
39 2
41 1.4
42 2
43 44
55 14
56 0.6
57 35
58 6
67 2
68 0.2
69 13
70 4
71 31
72 0.2
81 3
82 3
83 6
84 0.2
85 6
86 4
95 4
97 0.2
99 9
100 99.99
101 7
109 0.3
111 2
113 6
123 2
126 0.2
127 2
180 2
195 0.3
196 0.15
197 0.8
198 1
225 0.7
240 1

$$$$

     RDKit          2D

 17 16  0  0  0  0  0  0  0  0999 V2000
    3.5724    6.5625    0.0000 C   0  0  0  0  0  0  0  0  0  0  0  0
  -10.7171    7.3125    0.0000 C   0  0  0  0  0  0  0  0  0  0  0  0
   -9.4180    5.0625    0.0000 C   0  0  0  0  0  0  0  0  0  0  0  0
    0.0101    5.4134    0.0000 C   0  0  0  0  0  0  0  0  0  0  0  0
   -5.1861    5.4134    0.0000 C   0  0  0  0  0  0  0  0  0  0  0  0
    2.2733    7.3125    0.0000 C   0  0  0  0  0  0  0  0  0  0  0  0
   -6.8200    6.5625    0.0000 C   0  0  0  0  0  0  0  0  0  0  0  0
   -1.6238    6.5625    0.0000 C   0  0  0  0  0  0  0  0  0  0  0  0
   -8.1190    7.3125    0.0000 C   0  0  0  0  0  0  0  0  0  0  0  0
   -5.5209    7.3125    0.0000 C   0  0  0  0  0  0  0  0  0  0  0  0
   -0.3248    7.3125    0.0000 C   0  0  0  0  0  0  0  0  0  0  0  0
   -2.9228    7.3125    0.0000 C   0  0  0  0  0  0  0  0  0  0  0  0
   -9.4180    6.5625    0.0000 C   0  0  0  0  0  0  0  0  0  0  0  0
    0.9743    6.5625    0.0000 C   0  0  0  0  0  0  0  0  0  0  0  0
   -4.2219    6.5625    0.0000 C   0  0  0  0  0  0  0  0  0  0  0  0
    1.9385    5.4134    0.0000 O   0  0  0  0  0  0  0  0  0  0  0  0
   -3.2577    5.4134    0.0000 O   0  0  0  0  0  0  0  0  0  0  0  0
  6  1  2  0
  9  7  1  0
 10  7  1  0
 11  8  1  0
 12  8  1  0
 13  2  1  0
 13  3  1  0
 13  9  2  0
 14  4  1  0
 14  6  1  0
 14 11  1  0
 15  5  1  0
 15 10  1  0
 15 12  1  0
 16 14  1  0
 17 15  1  0
M  END
>  <NAME>  (1316) 
3,7,11-TRIMETHYL-1,10-DODECADIENE-3,7-DIOL

>  <SYNONYMS>  (1316) 


>  <SPECTRUM TYPE>  (1316) 
MS1

>  <INSTRUMENT TYPE>  (1316) 
EI-B

>  <INSTRUMENT>  (1316) 
JEOL JMS-D-300

>  <ION MODE>  (1316) 
P

>  <INCHIKEY>  (1316) 
WNMPAKAQHSXIKK-UHFFFAOYSA-N

>  <FORMULA>  (1316) 
C15H28O2

>  <EXACT MASS>  (1316) 
240.208930136

>  <MW>  (1316) 
240

>  <ID>  (1316) 
JP010124

>  <CONTRIBUTOR>  (1316) 
University of Tokyo Team, {Faculty of Engineering, University of Tokyo

>  <COMMENT>  (1316) 
SMILES=CC(C)=CCCC(C)(O)CCCC(C)(O)C=C
InChI=InChI=1S/C15H28O2/c1-6-14(4,16)11-8-12-15(5,17)10-7-9-13(2)3/h6,9,16-17H,1,7-8,10-12H2,2-5H3
computed SMILES=OC(C=C)(C)CCCC(O)(C)CCC=C(C)C
accession=JP010124
date=2016.01.19 (Created 2008.10.21, modified 2011.05.06)
author=KURARAY CO., LTD.
license=CC BY-NC-SA
exact mass=240.20893
ionization energy=70 eV
ion type=[M]+*
computed spectral entropy=3.4492465521255506
computed normalized entropy=0.8146338662904363
SPLASH=splash10-05nf-9400000000-82da41a4eda6c82ad87d
submitter=submitter = University of Tokyo Team (Faculty of Engineering, University of Tokyo)
MoNA Rating=3.75

>  <NUM PEAKS>  (1316) 
69

>  <MASS SPECTRAL PEAKS>  (1316) 
27 7
29 9
39 6
41 4.9
42 4
43 90
44 4
45 0.3
53 8
55 27
56 5
57 0.85
58 9.4
59 7.5
67 22
68 2.5
69 99.99
70 11
71 60
72 0.5
79 11
80 15
81 96
82 3.9
83 24
84 5
85 8
91 0.4
92 4
93 37
94 9
95 2.3
96 9
97 8
105 9
106 0.3
107 25
108 21
109 59
110 0.8
111 9
119 8
120 2
121 3.8
122 19
123 11
124 4
125 0.9
126 8
127 6
133 8
134 0.4
135 23
136 8
137 4
139 2
140 3
143 3
147 5
148 0.6
149 4
152 2
161 12
162 0.3
177 2
179 3
189 11
204 0.9
207 2

$$$$

     RDKit          2D

 17 16  0  0  0  0  0  0  0  0999 V2000
    4.2219    6.1875    0.0000 C   0  0  0  0  0  0  0  0  0  0  0  0
    2.9228    8.4375    0.0000 C   0  0  0  0  0  0  0  0  0  0  0  0
  -10.0675    8.4375    0.0000 C   0  0  0  0  0  0  0  0  0  0  0  0
  -11.3666    6.1875    0.0000 C   0  0  0  0  0  0  0  0  0  0  0  0
    1.6238    6.1875    0.0000 C   0  0  0  0  0  0  0  0  0  0  0  0
   -8.7685    6.1875    0.0000 C   0  0  0  0  0  0  0  0  0  0  0  0
    0.3248    6.9375    0.0000 C   0  0  0  0  0  0  0  0  0  0  0  0
   -7.4695    6.9375    0.0000 C   0  0  0  0  0  0  0  0  0  0  0  0
   -3.5724    6.1875    0.0000 C   0  0  0  0  0  0  0  0  0  0  0  0
    2.9228    6.9375    0.0000 C   0  0  0  0  0  0  0  0  0  0  0  0
  -10.0675    6.9375    0.0000 C   0  0  0  0  0  0  0  0  0  0  0  0
   -2.2733    6.9375    0.0000 C   0  0  0  0  0  0  0  0  0  0  0  0
   -4.8714    6.9375    0.0000 C   0  0  0  0  0  0  0  0  0  0  0  0
   -2.2733    8.4375    0.0000 O   0  0  0  0  0  0  0  0  0  0  0  0
   -4.8714    8.4375    0.0000 O   0  0  0  0  0  0  0  0  0  0  0  0
   -0.9743    6.1875    0.0000 O   0  0  0  0  0  0  0  0  0  0  0  0
   -6.1704    6.1875    0.0000 O   0  0  0  0  0  0  0  0  0  0  0  0
  7  5  1  0
  8  6  1  0
 10  1  2  0
 10  2  1  0
 10  5  1  0
 11  3  2  0
 11  4  1  0
 11  6  1  0
 12  9  1  0
 13  9  1  0
 14 12  2  0
 15 13  2  0
 16  7  1  0
 16 12  1  0
 17  8  1  0
 17 13  1  0
M  END
>  <NAME>  (1317) 
BIS(3-METHYL-3-BUTENYL) MALONATE

>  <SYNONYMS>  (1317) 


>  <SPECTRUM TYPE>  (1317) 
MS1

>  <INSTRUMENT TYPE>  (1317) 
EI-B

>  <INSTRUMENT>  (1317) 
JEOL JMS-D-300

>  <ION MODE>  (1317) 
P

>  <INCHIKEY>  (1317) 
GGLFCLVHOQEERG-UHFFFAOYSA-N

>  <FORMULA>  (1317) 
C13H20O4

>  <EXACT MASS>  (1317) 
240.13615912

>  <MW>  (1317) 
240

>  <ID>  (1317) 
JP010123

>  <CONTRIBUTOR>  (1317) 
University of Tokyo Team, {Faculty of Engineering, University of Tokyo

>  <COMMENT>  (1317) 
SMILES=CC(=C)CCOC(=O)CC(=O)OCCC(C)=C
InChI=InChI=1S/C13H20O4/c1-10(2)5-7-16-12(14)9-13(15)17-8-6-11(3)4/h1,3,5-9H2,2,4H3
computed SMILES=O=C(OCCC(=C)C)CC(=O)OCCC(=C)C
accession=JP010123
date=2016.01.19 (Created 2008.10.21, modified 2011.05.06)
license=CC BY-NC-SA
author=KURARAY CO., LTD.
exact mass=240.13616
ionization energy=70 eV
ion type=[M]+*
computed spectral entropy=2.687219718659866
computed normalized entropy=0.6941565966448349
SPLASH=splash10-014i-9400000000-cfca6a49ad2d8233252a
submitter=submitter = University of Tokyo Team (Faculty of Engineering, University of Tokyo)
MoNA Rating=3.75

>  <NUM PEAKS>  (1317) 
48

>  <MASS SPECTRAL PEAKS>  (1317) 
27 3.9
29 2.4
38 0.8
40 0.28
41 32.7
42 2.4
43 2.8
44 0.31
51 0.8
53 8.7
54 0.8
55 0.28
56 1.2
59 0.8
65 1.2
66 0.08
67 12.6
68 15.7
69 99.99
70 0.87
79 0.8
81 9.8
82 1.2
83 0.08
85 5.9
93 0.8
95 3.1
107 0.08
109 4.7
110 1.6
111 3.9
117 0.24
125 1.2
126 24.4
127 7.1
128 0.28
135 1.2
136 11.8
137 1.6
152 0.08
153 3.5
154 5.5
155 0.8
170 0.08
171 3.1
172 25.2
173 2.8
240 2.4

$$$$

     RDKit          2D

 16 17  0  0  0  0  0  0  0  0999 V2000
    4.0772    0.4897    0.0000 C   0  0  0  0  0  0  0  0  0  0  0  0
   -2.6000    0.7500    0.0000 C   0  0  0  0  0  0  0  0  0  0  0  0
   -1.3000    1.5000    0.0000 C   0  0  0  0  0  0  0  0  0  0  0  0
    1.3000   -1.5000    0.0000 C   0  0  0  0  0  0  0  0  0  0  0  0
    2.6000   -0.7500    0.0000 C   0  0  0  0  0  0  0  0  0  0  0  0
   -1.3000   -1.5000    0.0000 C   0  0  0  0  0  0  0  0  0  0  0  0
    3.1127    2.1596    0.0000 C   0  0  0  0  0  0  0  0  0  0  0  0
    0.0000   -0.7500    0.0000 C   0  0  0  0  0  0  0  0  0  0  0  0
   -2.6000   -0.7500    0.0000 C   0  0  0  0  0  0  0  0  0  0  0  0
    0.0000    0.7500    0.0000 C   0  0  0  0  0  0  0  0  0  0  0  0
    4.5899    2.4204    0.0000 C   0  0  0  0  0  0  0  0  0  0  0  0
    2.6000    0.7500    0.0000 C   0  0  0  0  0  0  0  0  0  0  0  0
   -3.8989   -1.5002    0.0000 Cl  0  0  0  0  0  0  0  0  0  0  0  0
    5.5543    1.2716    0.0000 O   0  0  0  0  0  0  0  0  0  0  0  0
    5.1026    3.8301    0.0000 O   0  0  0  0  0  0  0  0  0  0  0  0
    1.3000    1.5000    0.0000 O   0  0  0  0  0  0  0  0  0  0  0  0
  3  2  2  0
  5  4  1  0
  8  4  1  0
  8  6  1  0
  9  2  1  0
  9  6  2  0
 10  3  1  0
 10  8  2  0
 11  7  1  0
 12  1  1  0
 12  5  1  0
 12  7  1  0
 13  9  1  0
 14 11  2  0
 15 11  1  0
 16 10  1  0
 16 12  1  0
M  END
>  <NAME>  (1318) 
2-CARBOXYMETHYL-6-CHLORO-2-METHYL-3,4-DIHYDRO-2H-1-BENZOPYRAN

>  <SYNONYMS>  (1318) 


>  <SPECTRUM TYPE>  (1318) 
MS1

>  <INSTRUMENT TYPE>  (1318) 
EI-B

>  <INSTRUMENT>  (1318) 
JEOL JMS-D-300

>  <ION MODE>  (1318) 
P

>  <INCHIKEY>  (1318) 
QFDFXSNSTAWKAN-UHFFFAOYSA-N

>  <FORMULA>  (1318) 
C12H13ClO3

>  <EXACT MASS>  (1318) 
240.055321956

>  <MW>  (1318) 
240

>  <ID>  (1318) 
JP010122

>  <CONTRIBUTOR>  (1318) 
University of Tokyo Team, {Faculty of Engineering, University of Tokyo

>  <COMMENT>  (1318) 
SMILES=OC(=O)CC(C)(C2)Oc(c1)c(C2)cc(Cl)c1
InChI=InChI=1S/C12H13ClO3/c1-12(7-11(14)15)5-4-8-6-9(13)2-3-10(8)16-12/h2-3,6H,4-5,7H2,1H3,(H,14,15)
computed SMILES=O=C(O)CC1(OC2=CC=C(Cl)C=C2CC1)C
accession=JP010122
date=2016.01.19 (Created 2008.10.21, modified 2011.05.06)
author=KURARAY CO., LTD.
license=CC BY-NC-SA
exact mass=240.05532
ionization energy=70 eV
ion type=[M]+*
computed spectral entropy=3.657798563471526
computed normalized entropy=0.8190492205140772
SPLASH=splash10-0006-2940000000-10435afad01b4956b0fd
submitter=submitter = University of Tokyo Team (Faculty of Engineering, University of Tokyo)
MoNA Rating=3.75

>  <NUM PEAKS>  (1318) 
87

>  <MASS SPECTRAL PEAKS>  (1318) 
27 5
28 2
29 4
39 0.9
41 8
43 11
45 4
50 0.3
51 11
52 2
53 4
55 0.6
63 6
65 4
71 2
72 0.2
73 3
75 6
76 2
77 2.8
78 5
79 2
82 11
89 0.5
91 6
99 6
100 2
101 0.3
102 3
103 2
105 2
111 0.2
112 11
113 4
114 4
115 0.8
116 2
117 2
125 8
127 0.5
128 6
129 2
130 2
131 0.5
140 8
141 99.99
142 11
143 3.2
144 8
145 11
146 0.9
152 4
153 6
154 4
155 0.3
158 2
159 32
160 5
165 2.3
166 3
167 8
168 2
177 0.6
178 2
179 19
180 13
181 2.8
182 6
183 8
187 9
193 0.6
194 12
195 4
196 4
204 0.3
205 2
207 17
208 2
209 0.7
222 43
223 6
224 15
225 0.2
240 65
241 9
242 22
243 2

$$$$

     RDKit          2D

 17 16  0  0  0  0  0  0  0  0999 V2000
    4.5466    7.8750    0.0000 C   0  0  0  0  0  0  0  0  0  0  0  0
  -13.6399    7.8750    0.0000 C   0  0  0  0  0  0  0  0  0  0  0  0
    3.2476    8.6250    0.0000 C   0  0  0  0  0  0  0  0  0  0  0  0
  -12.3409    8.6250    0.0000 C   0  0  0  0  0  0  0  0  0  0  0  0
    1.9486    7.8750    0.0000 C   0  0  0  0  0  0  0  0  0  0  0  0
  -11.0418    7.8750    0.0000 C   0  0  0  0  0  0  0  0  0  0  0  0
    0.6495    8.6250    0.0000 C   0  0  0  0  0  0  0  0  0  0  0  0
   -9.7428    8.6250    0.0000 C   0  0  0  0  0  0  0  0  0  0  0  0
   -0.6495    7.8750    0.0000 C   0  0  0  0  0  0  0  0  0  0  0  0
   -1.9486    8.6250    0.0000 C   0  0  0  0  0  0  0  0  0  0  0  0
   -8.4437    7.8750    0.0000 C   0  0  0  0  0  0  0  0  0  0  0  0
   -3.2476    7.8750    0.0000 C   0  0  0  0  0  0  0  0  0  0  0  0
   -7.1447    8.6250    0.0000 C   0  0  0  0  0  0  0  0  0  0  0  0
   -4.5466    8.6250    0.0000 C   0  0  0  0  0  0  0  0  0  0  0  0
   -5.8457    6.3750    0.0000 C   0  0  0  0  0  0  0  0  0  0  0  0
   -5.8457    7.8750    0.0000 C   0  0  0  0  0  0  0  0  0  0  0  0
   -7.1447    5.6250    0.0000 O   0  0  0  0  0  0  0  0  0  0  0  0
  3  1  1  0
  4  2  1  0
  5  3  1  0
  6  4  1  0
  7  5  1  0
  8  6  1  0
  9  7  1  0
 10  9  1  0
 11  8  1  0
 12 10  1  0
 13 11  1  0
 14 12  1  0
 16 13  1  0
 14 16  2  0
 16 15  1  0
 17 15  2  0
M  END
>  <NAME>  (1319) 
7-PENTADECENE-7-CARBALDEHYDE

>  <SYNONYMS>  (1319) 


>  <SPECTRUM TYPE>  (1319) 
MS1

>  <INSTRUMENT TYPE>  (1319) 
EI-B

>  <INSTRUMENT>  (1319) 
JEOL JMS-D-300

>  <ION MODE>  (1319) 
P

>  <INCHIKEY>  (1319) 
RSBRHLFCWKXUSQ-PEZBUJJGSA-N

>  <FORMULA>  (1319) 
C16H30O

>  <EXACT MASS>  (1319) 
238.22966558000002

>  <MW>  (1319) 
238

>  <ID>  (1319) 
JP010121

>  <CONTRIBUTOR>  (1319) 
University of Tokyo Team, {Faculty of Engineering, University of Tokyo

>  <COMMENT>  (1319) 
SMILES=CCCCCCCC=C(C=O)CCCCCC
InChI=InChI=1S/C16H30O/c1-3-5-7-9-10-12-14-16(15-17)13-11-8-6-4-2/h14-15H,3-13H2,1-2H3/b16-14-
computed SMILES=O=CC(=CCCCCCCC)CCCCCC
accession=JP010121
date=2016.01.19 (Created 2008.10.21, modified 2011.05.06)
author=KURARAY CO., LTD.
license=CC BY-NC-SA
exact mass=238.22967
ionization energy=70 eV
ion type=[M]+*
computed spectral entropy=3.7712496891715985
computed normalized entropy=0.8320279995769053
SPLASH=splash10-014v-9300000000-05d2c73155e6f049f5aa
submitter=submitter = University of Tokyo Team (Faculty of Engineering, University of Tokyo)
MoNA Rating=3.75

>  <NUM PEAKS>  (1319) 
93

>  <MASS SPECTRAL PEAKS>  (1319) 
27 29
28 11
29 6
30 0.2
31 3
32 4
39 22
40 0.3
41 87
42 18
43 99.99
44 0.4
45 4
53 19
54 16
55 9.6
56 23
57 62
58 6
59 0.3
65 5
66 6
67 67
68 2
69 81
70 29
71 83
72 0.6
73 2
77 9
78 2
79 4.2
80 8
81 67
82 25
83 9.2
84 44
85 21
86 3
87 0.2
89 2
91 4
93 44
94 1.1
95 83
96 26
97 72
98 3.6
99 11
105 2
107 24
108 0.6
109 24
110 19
111 25
112 0.9
113 10
121 19
122 4
123 2.5
124 4
125 19
126 15
127 0.3
135 15
136 6
137 5
138 0.2
139 96
140 12
141 3
149 1.5
150 6
151 3
152 7
153 5.3
154 10
155 2
163 3
165 0.3
166 3
167 73
168 9
177 0.7
181 8
191 2
195 13
196 0.4
207 3
209 4
238 71
239 1.5
240 2

$$$$

     RDKit          2D

 17 17  0  0  0  0  0  0  0  0999 V2000
   -9.9364    4.9403    0.0000 C   0  0  0  0  0  0  0  0  0  0  0  0
   -8.6374    7.1903    0.0000 C   0  0  0  0  0  0  0  0  0  0  0  0
   -3.4412    7.1903    0.0000 C   0  0  0  0  0  0  0  0  0  0  0  0
    2.7191    6.8394    0.0000 C   0  0  0  0  0  0  0  0  0  0  0  0
   -6.0393    5.6903    0.0000 C   0  0  0  0  0  0  0  0  0  0  0  0
   -0.8431    5.6903    0.0000 C   0  0  0  0  0  0  0  0  0  0  0  0
   -7.3383    4.9403    0.0000 C   0  0  0  0  0  0  0  0  0  0  0  0
   -4.7402    4.9403    0.0000 C   0  0  0  0  0  0  0  0  0  0  0  0
   -2.1422    4.9403    0.0000 C   0  0  0  0  0  0  0  0  0  0  0  0
    0.4559    4.9403    0.0000 C   0  0  0  0  0  0  0  0  0  0  0  0
    4.5548    4.9399    0.0000 C   0  0  0  0  0  0  0  0  0  0  0  0
   -8.6374    5.6903    0.0000 C   0  0  0  0  0  0  0  0  0  0  0  0
   -3.4412    5.6903    0.0000 C   0  0  0  0  0  0  0  0  0  0  0  0
    3.0540    4.9403    0.0000 C   0  0  0  0  0  0  0  0  0  0  0  0
    1.7549    5.6903    0.0000 C   0  0  0  0  0  0  0  0  0  0  0  0
    0.7908    6.8394    0.0000 O   0  0  0  0  0  0  0  0  0  0  0  0
    3.8048    3.6408    0.0000 O   0  0  0  0  0  0  0  0  0  0  0  0
  7  5  1  0
  8  5  1  0
  9  6  1  0
 10  6  1  0
 12  1  1  0
 12  2  1  0
 12  7  2  0
 13  3  1  0
 13  8  1  0
  9 13  2  0
 14 11  1  0
 15  4  1  0
 15 10  1  0
 15 14  1  0
 16 15  1  0
 17 11  1  0
 17 14  1  0
M  END
>  <NAME>  (1320) 
1,2-EPOXY-3,7,11-TRIMETHYL-(6E,10)-DODECADIENE-3-OL

>  <SYNONYMS>  (1320) 


>  <SPECTRUM TYPE>  (1320) 
MS1

>  <INSTRUMENT TYPE>  (1320) 
EI-B

>  <INSTRUMENT>  (1320) 
JEOL JMS-D-300

>  <ION MODE>  (1320) 
P

>  <INCHIKEY>  (1320) 
CLIDOAFOSTWHAW-UKTHLTGXSA-N

>  <FORMULA>  (1320) 
C15H26O2

>  <EXACT MASS>  (1320) 
238.193280072

>  <MW>  (1320) 
238

>  <ID>  (1320) 
JP010120

>  <CONTRIBUTOR>  (1320) 
University of Tokyo Team, {Faculty of Engineering, University of Tokyo

>  <COMMENT>  (1320) 
SMILES=CC(C)=CCCC(C)=C([H])CCC(C)(O)C(O1)C1
InChI=InChI=1S/C15H26O2/c1-12(2)7-5-8-13(3)9-6-10-15(4,16)14-11-17-14/h7,9,14,16H,5-6,8,10-11H2,1-4H3/b13-9+
computed SMILES=OC(C)(CCC=C(C)CCC=C(C)C)C1OC1
accession=JP010120
date=2016.01.19 (Created 2008.10.21, modified 2011.05.06)
author=KURARAY CO., LTD.
license=CC BY-NC-SA
exact mass=238.19328
ionization energy=70 eV
ion type=[M]+*
computed spectral entropy=3.0845340428211805
computed normalized entropy=0.7629223174489327
SPLASH=splash10-0159-9200000000-0979836d8ddae2a5e3da
submitter=submitter = University of Tokyo Team (Faculty of Engineering, University of Tokyo)
MoNA Rating=3.75

>  <NUM PEAKS>  (1320) 
57

>  <MASS SPECTRAL PEAKS>  (1320) 
27 3
29 4
39 4
41 4.7
42 2
43 54
53 6
55 1.9
57 4
59 8
67 18
68 1
69 99.99
70 7
71 13
77 0.2
79 8
81 45
82 21
83 0.8
84 2
87 5
91 5
93 1.9
94 4
95 15
96 3
97 0.3
105 6
107 15
108 2
109 1.7
110 2
113 2
119 2
121 1
122 3
123 14
125 2
133 0.2
135 5
136 8
137 6
139 0.2
147 2
149 2
150 4
151 0.2
159 2
177 9
195 6
202 0.07
205 1.3
209 1
220 1
221 0.05
238 0.5

$$$$

     RDKit          2D

 17 17  0  0  0  0  0  0  0  0999 V2000
    5.4789    6.2197    0.0000 C   0  0  0  0  0  0  0  0  0  0  0  0
    4.1798    8.4697    0.0000 C   0  0  0  0  0  0  0  0  0  0  0  0
   -1.0163    8.4697    0.0000 C   0  0  0  0  0  0  0  0  0  0  0  0
   -3.1014    1.0601    0.0000 C   0  0  0  0  0  0  0  0  0  0  0  0
    1.5817    6.9697    0.0000 C   0  0  0  0  0  0  0  0  0  0  0  0
   -2.3154    4.7197    0.0000 C   0  0  0  0  0  0  0  0  0  0  0  0
    2.8808    6.2197    0.0000 C   0  0  0  0  0  0  0  0  0  0  0  0
    0.2827    6.2197    0.0000 C   0  0  0  0  0  0  0  0  0  0  0  0
   -2.3154    6.2197    0.0000 C   0  0  0  0  0  0  0  0  0  0  0  0
   -3.6144    3.9697    0.0000 C   0  0  0  0  0  0  0  0  0  0  0  0
   -5.6643    0.4201    0.0000 C   0  0  0  0  0  0  0  0  0  0  0  0
    4.1798    6.9697    0.0000 C   0  0  0  0  0  0  0  0  0  0  0  0
   -1.0163    6.9697    0.0000 C   0  0  0  0  0  0  0  0  0  0  0  0
   -4.9135    1.7197    0.0000 C   0  0  0  0  0  0  0  0  0  0  0  0
   -3.6144    2.4697    0.0000 C   0  0  0  0  0  0  0  0  0  0  0  0
   -2.1372    2.7301    0.0000 O   0  0  0  0  0  0  0  0  0  0  0  0
   -6.4143    1.7192    0.0000 O   0  0  0  0  0  0  0  0  0  0  0  0
  7  5  1  0
  8  5  1  0
  9  6  1  0
 10  6  1  0
 12  1  1  0
 12  2  1  0
 12  7  2  0
 13  3  1  0
 13  8  1  0
  9 13  2  0
 14 11  1  0
 15  4  1  0
 15 10  1  0
 15 14  1  0
 16 15  1  0
 17 11  1  0
 17 14  1  0
M  END
>  <NAME>  (1321) 
1,2-EPOXY-3,7,11-TRIMETHYL-(6Z,10)-DODECADIENE-3-OL

>  <SYNONYMS>  (1321) 


>  <SPECTRUM TYPE>  (1321) 
MS1

>  <INSTRUMENT TYPE>  (1321) 
EI-B

>  <INSTRUMENT>  (1321) 
JEOL JMS-D-300

>  <ION MODE>  (1321) 
P

>  <INCHIKEY>  (1321) 
CLIDOAFOSTWHAW-LCYFTJDESA-N

>  <FORMULA>  (1321) 
C15H26O2

>  <EXACT MASS>  (1321) 
238.193280072

>  <MW>  (1321) 
238

>  <ID>  (1321) 
JP010119

>  <CONTRIBUTOR>  (1321) 
University of Tokyo Team, {Faculty of Engineering, University of Tokyo

>  <COMMENT>  (1321) 
SMILES=CC(C)=CCCC(C)=C([H])CCC(C)(O)C(O1)C1
InChI=InChI=1S/C15H26O2/c1-12(2)7-5-8-13(3)9-6-10-15(4,16)14-11-17-14/h7,9,14,16H,5-6,8,10-11H2,1-4H3/b13-9-
computed SMILES=OC(C)(CCC=C(C)CCC=C(C)C)C1OC1
accession=JP010119
date=2016.01.19 (Created 2008.10.21, modified 2011.05.06)
author=KURARAY CO., LTD.
license=CC BY-NC-SA
exact mass=238.19328
ionization energy=70 eV
ion type=[M]+*
computed spectral entropy=3.4904005232545283
computed normalized entropy=0.7988195857020752
SPLASH=splash10-067j-9100000000-8970c00ae3053ce09bd8
submitter=submitter = University of Tokyo Team (Faculty of Engineering, University of Tokyo)
MoNA Rating=3.75

>  <NUM PEAKS>  (1321) 
79

>  <MASS SPECTRAL PEAKS>  (1321) 
27 6
28 5
29 9
31 0.6
39 5
41 46
42 4
43 5.8
44 10
45 73
52 0.2
53 6
55 31
56 2
57 2
58 1.6
59 31
65 2
67 26
68 0.4
69 99.99
70 8
71 7
72 0.6
73 33
74 15
75 3
77 0.2
79 6
81 24
82 84
83 2.3
84 2
85 3
87 15
88 0.5
89 26
90 2
91 2
93 0.5
94 6
95 33
96 6
97 0.6
99 4
101 4
103 10
105 0.2
107 6
108 4
109 28
110 0.4
113 9
114 2
115 2
116 0.2
117 4
121 7
122 2
123 1.3
124 3
127 2
131 3
133 0.8
135 8
139 3
147 2
149 0.7
150 6
151 6
153 10
159 0.2
164 6
165 3
177 3
191 1.7
192 2
209 14
220 1.8

$$$$

     RDKit          2D

 15 14  0  0  0  0  0  0  0  0999 V2000
   -5.2537    5.2168    0.0000 C   0  0  0  0  0  0  0  0  0  0  0  0
   -3.9546    2.9668    0.0000 C   0  0  0  0  0  0  0  0  0  0  0  0
    0.0588    0.7591    0.0000 C   0  0  0  0  0  0  0  0  0  0  0  0
   -2.3826    1.6477    0.0000 C   0  0  0  0  0  0  0  0  0  0  0  0
    3.8396    4.4668    0.0000 C   0  0  0  0  0  0  0  0  0  0  0  0
   -0.0575    5.2168    0.0000 C   0  0  0  0  0  0  0  0  0  0  0  0
   -3.9546    4.4668    0.0000 C   0  0  0  0  0  0  0  0  0  0  0  0
   -0.9054    1.9082    0.0000 C   0  0  0  0  0  0  0  0  0  0  0  0
    1.2415    4.4668    0.0000 C   0  0  0  0  0  0  0  0  0  0  0  0
    1.2415    2.9668    0.0000 O   0  0  0  0  0  0  0  0  0  0  0  0
   -2.3207    3.3177    0.0000 O   0  0  0  0  0  0  0  0  0  0  0  0
    2.5406    5.2168    0.0000 O   0  0  0  0  0  0  0  0  0  0  0  0
   -2.6556    5.2168    0.0000 O   0  0  0  0  0  0  0  0  0  0  0  0
   -0.3924    3.3177    0.0000 O   0  0  0  0  0  0  0  0  0  0  0  0
   -1.3565    4.4668    0.0000 P   0  0  0  0  0  0  0  0  0  0  0  0
  7  1  1  0
  7  2  1  0
  8  3  1  0
  8  4  1  0
  9  6  1  0
 10  9  2  0
 12  5  1  0
 12  9  1  0
 13  7  1  0
 14  8  1  0
 15  6  1  0
 15 11  2  0
 15 13  1  0
 15 14  1  0
M  END
>  <NAME>  (1322) 
DIISOPROPYL METHOXYCARBONYLMETHYL PHOSHONATE

>  <SYNONYMS>  (1322) 


>  <SPECTRUM TYPE>  (1322) 
MS1

>  <INSTRUMENT TYPE>  (1322) 
EI-B

>  <INSTRUMENT>  (1322) 
JEOL JMS-D-300

>  <ION MODE>  (1322) 
P

>  <INCHIKEY>  (1322) 
GQQNLIOQXHGIII-UHFFFAOYSA-N

>  <FORMULA>  (1322) 
C9H19O5P

>  <EXACT MASS>  (1322) 
238.097010338

>  <MW>  (1322) 
238

>  <ID>  (1322) 
JP010118

>  <CONTRIBUTOR>  (1322) 
University of Tokyo Team, {Faculty of Engineering, University of Tokyo

>  <COMMENT>  (1322) 
SMILES=COC(=O)CP(=O)(OC(C)C)OC(C)C
InChI=InChI=1S/C9H19O5P/c1-7(2)13-15(11,14-8(3)4)6-9(10)12-5/h7-8H,6H2,1-5H3
computed SMILES=O=C(OC)CP(=O)(OC(C)C)OC(C)C
accession=JP010118
date=2016.01.19 (Created 2008.10.21, modified 2011.05.06)
author=KURARAY CO., LTD.
license=CC BY-NC-SA
exact mass=238.09701
ionization energy=70 eV
ion type=[M]+*
computed spectral entropy=2.1263204834817286
computed normalized entropy=0.6690637091093359
SPLASH=splash10-059i-2900000000-8ba82f2229e4dfd136b7
submitter=submitter = University of Tokyo Team (Faculty of Engineering, University of Tokyo)
MoNA Rating=3.75

>  <NUM PEAKS>  (1322) 
24

>  <MASS SPECTRAL PEAKS>  (1322) 
27 3
39 2
41 8
42 0.7
43 25
45 4
59 6
65 0.2
74 9
95 8
96 3
105 0.5
119 3
123 73
137 99.99
138 0.8
154 6
155 80
165 9
179 1.5
181 6
197 4
223 2
239 1

$$$$

     RDKit          2D

 17 18  0  0  0  0  0  0  0  0999 V2000
   -3.8989    1.5002    0.0000 C   0  0  0  0  0  0  0  0  0  0  0  0
   -1.3000    3.0000    0.0000 C   0  0  0  0  0  0  0  0  0  0  0  0
   -1.3000   -3.0000    0.0000 C   0  0  0  0  0  0  0  0  0  0  0  0
    3.8989   -1.5002    0.0000 C   0  0  0  0  0  0  0  0  0  0  0  0
    5.1981   -0.7504    0.0000 C   0  0  0  0  0  0  0  0  0  0  0  0
    1.3000   -1.5000    0.0000 C   0  0  0  0  0  0  0  0  0  0  0  0
    2.6000    0.7500    0.0000 C   0  0  0  0  0  0  0  0  0  0  0  0
   -2.6000    0.7500    0.0000 C   0  0  0  0  0  0  0  0  0  0  0  0
   -1.3000    1.5000    0.0000 C   0  0  0  0  0  0  0  0  0  0  0  0
   -1.3000   -1.5000    0.0000 C   0  0  0  0  0  0  0  0  0  0  0  0
    0.0000   -0.7500    0.0000 C   0  0  0  0  0  0  0  0  0  0  0  0
   -2.6000   -0.7500    0.0000 C   0  0  0  0  0  0  0  0  0  0  0  0
    0.0000    0.7500    0.0000 C   0  0  0  0  0  0  0  0  0  0  0  0
    2.6000   -0.7500    0.0000 N   0  0  0  0  0  0  0  0  0  0  0  0
    6.4970   -1.5006    0.0000 O   0  0  0  0  0  0  0  0  0  0  0  0
   -3.8989   -1.5002    0.0000 O   0  0  0  0  0  0  0  0  0  0  0  0
    1.3000    1.5000    0.0000 O   0  0  0  0  0  0  0  0  0  0  0  0
  5  4  1  0
  8  1  1  0
  9  2  1  0
  9  8  1  0
 10  3  1  0
 11  6  1  0
 11 10  2  0
 12  8  2  0
 12 10  1  0
 13  9  2  0
 13 11  1  0
 14  4  1  0
 14  6  1  0
 14  7  1  0
 15  5  1  0
 16 12  1  0
 17  7  1  0
 17 13  1  0
M  END
>  <NAME>  (1323) 
6-HYDROXY-5,7,8-TRIMETHYL-4H-1,3-BENZOXAZINE-3-ETHANOL

>  <SYNONYMS>  (1323) 


>  <SPECTRUM TYPE>  (1323) 
MS1

>  <INSTRUMENT TYPE>  (1323) 
EI-B

>  <INSTRUMENT>  (1323) 
JEOL JMS-D-300

>  <ION MODE>  (1323) 
P

>  <INCHIKEY>  (1323) 
FVVBBMBYRNGVBY-UHFFFAOYSA-N

>  <FORMULA>  (1323) 
C13H19NO3

>  <EXACT MASS>  (1323) 
237.13649346799997

>  <MW>  (1323) 
237

>  <ID>  (1323) 
JP010117

>  <CONTRIBUTOR>  (1323) 
University of Tokyo Team, {Faculty of Engineering, University of Tokyo

>  <COMMENT>  (1323) 
SMILES=OCCN(C2)Cc(c(C)1)c(O2)c(C)c(C)c(O)1
InChI=InChI=1S/C13H19NO3/c1-8-9(2)13-11(10(3)12(8)16)6-14(4-5-15)7-17-13/h15-16H,4-7H2,1-3H3
computed SMILES=OC=1C(=C(C=2OCN(CC2C1C)CCO)C)C
accession=JP010117
date=2016.01.19 (Created 2008.10.21, modified 2011.05.06)
author=KURARAY CO., LTD.
license=CC BY-NC-SA
exact mass=237.13649
ionization energy=70 eV
ion type=[M]+*
computed spectral entropy=2.7588165410540926
computed normalized entropy=0.7584195727371051
SPLASH=splash10-03dr-7930000000-b2b8e78b6731cc3db5f2
submitter=submitter = University of Tokyo Team (Faculty of Engineering, University of Tokyo)
MoNA Rating=3.75

>  <NUM PEAKS>  (1323) 
38

>  <MASS SPECTRAL PEAKS>  (1323) 
27 6
28 23
29 4
32 4
39 6
40 3
41 4
42 2.4
43 9
44 4
51 2
52 0.4
53 9
54 6
55 4
56 0.6
65 2
67 2
72 6
74 9
75 3
77 5
79 2
91 1
93 8
103 6
107 3
121 3
122 3
135 8
136 20
137 0.2
149 3
163 2
164 99.99
165 1.7
237 50
238 7

$$$$

     RDKit          2D

 16 17  0  0  0  0  0  0  0  0999 V2000
    4.1000   -0.0000    0.0000 C   0  0  0  0  0  0  0  0  0  0  0  0
    3.0195    1.9591    0.0000 C   0  0  0  0  0  0  0  0  0  0  0  0
    1.1124    2.5814    0.0000 C   0  0  0  0  0  0  0  0  0  0  0  0
    1.1124   -2.5814    0.0000 C   0  0  0  0  0  0  0  0  0  0  0  0
    3.0195   -1.9591    0.0000 C   0  0  0  0  0  0  0  0  0  0  0  0
   -2.3100    0.7500    0.0000 C   0  0  0  0  0  0  0  0  0  0  0  0
   -1.0100    1.5000    0.0000 C   0  0  0  0  0  0  0  0  0  0  0  0
   -1.0100   -1.5000    0.0000 C   0  0  0  0  0  0  0  0  0  0  0  0
   -3.6089   -1.5002    0.0000 C   0  0  0  0  0  0  0  0  0  0  0  0
    2.6000    0.0000    0.0000 C   0  0  0  0  0  0  0  0  0  0  0  0
   -2.3100   -0.7500    0.0000 C   0  0  0  0  0  0  0  0  0  0  0  0
    0.2900    0.7500    0.0000 C   0  0  0  0  0  0  0  0  0  0  0  0
    0.2900   -0.7500    0.0000 C   0  0  0  0  0  0  0  0  0  0  0  0
    1.7200    1.2100    0.0000 C   0  0  0  0  0  0  0  0  0  0  0  0
    1.7200   -1.2100    0.0000 C   0  0  0  0  0  0  0  0  0  0  0  0
   -4.9081   -0.7504    0.0000 Cl  0  0  0  0  0  0  0  0  0  0  0  0
  7  6  2  0
 10  1  1  0
 11  6  1  0
 11  8  2  0
 11  9  1  0
 12  7  1  0
 13  8  1  0
 13 12  2  0
 14  2  1  0
 14  3  1  0
 14 10  1  0
 14 12  1  0
 15  4  1  0
 15  5  1  0
 15 10  1  0
 15 13  1  0
 16  9  1  0
M  END
>  <NAME>  (1324) 
6-CHLOROMETHYL-1,1,2,3,3-PENTAMETHYLINDAN

>  <SYNONYMS>  (1324) 


>  <SPECTRUM TYPE>  (1324) 
MS1

>  <INSTRUMENT TYPE>  (1324) 
EI-B

>  <INSTRUMENT>  (1324) 
JEOL JMS-D-300

>  <ION MODE>  (1324) 
P

>  <INCHIKEY>  (1324) 
WTNAJFTWCDMYBG-UHFFFAOYSA-N

>  <FORMULA>  (1324) 
C15H21Cl

>  <EXACT MASS>  (1324) 
236.133178352

>  <MW>  (1324) 
236

>  <ID>  (1324) 
JP010116

>  <CONTRIBUTOR>  (1324) 
University of Tokyo Team, {Faculty of Engineering, University of Tokyo

>  <COMMENT>  (1324) 
SMILES=ClCc(c2)cc(c(c2)1)C(C)(C)C(C)C(C)(C)1
InChI=InChI=1S/C15H21Cl/c1-10-14(2,3)12-7-6-11(9-16)8-13(12)15(10,4)5/h6-8,10H,9H2,1-5H3
computed SMILES=ClCC1=CC=C2C(=C1)C(C)(C)C(C)C2(C)C
accession=JP010116
date=2016.01.19 (Created 2008.10.21, modified 2011.05.06)
author=KURARAY CO., LTD.
license=CC BY-NC-SA
exact mass=236.13318
ionization energy=70 eV
ion type=[M]+*
computed spectral entropy=2.3213668858228913
computed normalized entropy=0.6966459827823822
SPLASH=splash10-00di-0490000000-c78592de38fab0d74f4d
submitter=submitter = University of Tokyo Team (Faculty of Engineering, University of Tokyo)
MoNA Rating=3.75

>  <NUM PEAKS>  (1324) 
28

>  <MASS SPECTRAL PEAKS>  (1324) 
41 2
43 4
57 10
77 0.2
115 4
128 5
129 6
141 0.6
142 4
143 21
144 2
155 0.4
156 4
157 5
171 6
172 0.2
179 8
181 2
185 2
186 0.2
201 2
221 99.99
222 15
223 3.2
224 4
236 17
237 2
238 5

$$$$

     RDKit          2D

 17 16  0  0  0  0  0  0  0  0999 V2000
    4.8714    6.5625    0.0000 C   0  0  0  0  0  0  0  0  0  0  0  0
    3.5724    8.8125    0.0000 C   0  0  0  0  0  0  0  0  0  0  0  0
   -1.6238    8.8125    0.0000 C   0  0  0  0  0  0  0  0  0  0  0  0
   -6.8200    8.8125    0.0000 C   0  0  0  0  0  0  0  0  0  0  0  0
  -12.0161    7.3125    0.0000 C   0  0  0  0  0  0  0  0  0  0  0  0
    0.9743    7.3125    0.0000 C   0  0  0  0  0  0  0  0  0  0  0  0
   -4.2219    7.3125    0.0000 C   0  0  0  0  0  0  0  0  0  0  0  0
    2.2733    6.5625    0.0000 C   0  0  0  0  0  0  0  0  0  0  0  0
   -0.3248    6.5625    0.0000 C   0  0  0  0  0  0  0  0  0  0  0  0
   -2.9228    6.5625    0.0000 C   0  0  0  0  0  0  0  0  0  0  0  0
   -5.5209    6.5625    0.0000 C   0  0  0  0  0  0  0  0  0  0  0  0
   -8.1190    6.5625    0.0000 C   0  0  0  0  0  0  0  0  0  0  0  0
   -9.4180    7.3125    0.0000 C   0  0  0  0  0  0  0  0  0  0  0  0
    3.5724    7.3125    0.0000 C   0  0  0  0  0  0  0  0  0  0  0  0
   -1.6238    7.3125    0.0000 C   0  0  0  0  0  0  0  0  0  0  0  0
   -6.8200    7.3125    0.0000 C   0  0  0  0  0  0  0  0  0  0  0  0
  -10.7171    6.5625    0.0000 N   0  0  0  0  0  0  0  0  0  0  0  0
  8  6  1  0
  9  6  1  0
 10  7  1  0
 11  7  1  0
 13 12  1  0
 14  1  1  0
 14  2  1  0
 14  8  2  0
 15  3  1  0
 15  9  1  0
 10 15  2  0
 16  4  1  0
 16 11  1  0
 12 16  2  0
 17  5  1  0
 17 13  1  0
M  END
>  <NAME>  (1325) 
N-METHYL-3,7,11-TRIMETHYL-2,6,10-DODECATRIENE-1-AMINE

>  <SYNONYMS>  (1325) 


>  <SPECTRUM TYPE>  (1325) 
MS1

>  <INSTRUMENT TYPE>  (1325) 
EI-B

>  <INSTRUMENT>  (1325) 
JEOL JMS-D-300

>  <ION MODE>  (1325) 
P

>  <INCHIKEY>  (1325) 
ZPEMKPFPWVTBPX-NCZFFCEISA-N

>  <FORMULA>  (1325) 
C16H29N

>  <EXACT MASS>  (1325) 
235.22999992799998

>  <MW>  (1325) 
235

>  <ID>  (1325) 
JP010115

>  <CONTRIBUTOR>  (1325) 
University of Tokyo Team, {Faculty of Engineering, University of Tokyo

>  <COMMENT>  (1325) 
SMILES=CNCC=C(C)CCC=C(C)CCC=C(C)C
InChI=InChI=1S/C16H29N/c1-14(2)8-6-9-15(3)10-7-11-16(4)12-13-17-5/h8,10,12,17H,6-7,9,11,13H2,1-5H3/b15-10+,16-12+
computed SMILES=C(=C(C)C)CCC(=CCCC(=CCNC)C)C
accession=JP010115
date=2016.01.19 (Created 2008.10.21, modified 2011.05.06)
author=KURARAY CO., LTD.
license=CC BY-NC-SA
exact mass=235.23
ionization energy=70 eV
ion type=[M]+*
computed spectral entropy=3.45138116267319
computed normalized entropy=0.8096740224998458
SPLASH=splash10-014m-9100000000-bf21fca5268dc9711b6f
submitter=submitter = University of Tokyo Team (Faculty of Engineering, University of Tokyo)
MoNA Rating=3.75

>  <NUM PEAKS>  (1325) 
71

>  <MASS SPECTRAL PEAKS>  (1325) 
27 5
28 8.5
29 6
30 0.94
32 7.5
39 6
41 52
42 7.7
43 9
44 60
45 2
53 0.8
55 13
56 5
57 9
58 0.4
67 15
68 23
69 99.99
70 0.9
71 2
77 4
79 9
80 1.1
81 23
82 15
83 4
84 5
85 8
91 5
92 6
93 4.9
94 9
95 8
96 8
97 0.3
98 77
99 13
105 4
106 0.2
107 13
108 4
109 9
110 2.5
111 4
112 2
119 7
120 0.4
121 11
122 6
123 6
124 0.4
133 8
134 3
135 8
136 0.6
137 2
147 3
148 2
150 0.2
152 3
161 4
164 2
166 1.7
167 3
189 2
204 2
220 0.2
234 2
235 13
236 3

$$$$

     RDKit          2D

 17 17  0  0  0  0  0  0  0  0999 V2000
    1.4207    6.2684    0.0000 C   0  0  0  0  0  0  0  0  0  0  0  0
   -5.1908    2.5607    0.0000 C   0  0  0  0  0  0  0  0  0  0  0  0
   -3.8917    0.3107    0.0000 C   0  0  0  0  0  0  0  0  0  0  0  0
    0.4565    5.1193    0.0000 C   0  0  0  0  0  0  0  0  0  0  0  0
    3.9025    0.3107    0.0000 C   0  0  0  0  0  0  0  0  0  0  0  0
    3.9030    1.8115    0.0000 C   0  0  0  0  0  0  0  0  0  0  0  0
    2.6030   -0.4401    0.0000 C   0  0  0  0  0  0  0  0  0  0  0  0
    2.6039    2.5615    0.0000 C   0  0  0  0  0  0  0  0  0  0  0  0
    1.3039    0.3099    0.0000 C   0  0  0  0  0  0  0  0  0  0  0  0
   -2.5927    2.5607    0.0000 C   0  0  0  0  0  0  0  0  0  0  0  0
    0.9696    3.7098    0.0000 C   0  0  0  0  0  0  0  0  0  0  0  0
   -1.2937    1.8107    0.0000 C   0  0  0  0  0  0  0  0  0  0  0  0
   -0.9588    3.7098    0.0000 C   0  0  0  0  0  0  0  0  0  0  0  0
   -3.8917    1.8107    0.0000 C   0  0  0  0  0  0  0  0  0  0  0  0
    1.3044    1.8107    0.0000 C   0  0  0  0  0  0  0  0  0  0  0  0
    0.0054    2.5607    0.0000 C   0  0  0  0  0  0  0  0  0  0  0  0
   -0.4458    5.1193    0.0000 O   0  0  0  0  0  0  0  0  0  0  0  0
  4  1  1  0
  6  5  2  0
  7  5  1  0
  8  6  1  0
  9  7  2  0
 11  4  1  0
 12 10  1  0
 14  2  1  0
 14  3  1  0
 14 10  2  0
 15  8  2  0
 15  9  1  0
 16 11  1  0
 16 12  1  0
 16 13  1  0
 16 15  1  0
 17 13  1  0
M  END
>  <NAME>  (1326) 
5-METHYL-2-PHENYL-2-PROPYLE-4-HEXENE-1-OL

>  <SYNONYMS>  (1326) 


>  <SPECTRUM TYPE>  (1326) 
MS1

>  <INSTRUMENT TYPE>  (1326) 
EI-B

>  <INSTRUMENT>  (1326) 
JEOL JMS-D-300

>  <ION MODE>  (1326) 
P

>  <INCHIKEY>  (1326) 
BEDUQJQVSNUTQR-UHFFFAOYSA-N

>  <FORMULA>  (1326) 
C16H24O

>  <EXACT MASS>  (1326) 
232.182715388

>  <MW>  (1326) 
232

>  <ID>  (1326) 
JP010114

>  <CONTRIBUTOR>  (1326) 
University of Tokyo Team, {Faculty of Engineering, University of Tokyo

>  <COMMENT>  (1326) 
SMILES=CCCC(CO)(CC=C(C)C)c(c1)cccc1
InChI=InChI=1S/C16H24O/c1-4-11-16(13-17,12-10-14(2)3)15-8-6-5-7-9-15/h5-10,17H,4,11-13H2,1-3H3
computed SMILES=OCC(C=1C=CC=CC1)(CC=C(C)C)CCC
accession=JP010114
date=2016.01.19 (Created 2008.10.21, modified 2011.05.06)
author=KURARAY CO., LTD.
license=CC BY-NC-SA
exact mass=232.18272
ionization energy=70 eV
ion type=[M]+*
computed spectral entropy=2.8290973031697972
computed normalized entropy=0.75691476029097
SPLASH=splash10-03di-5900000000-671eb219034146b564e9
submitter=submitter = University of Tokyo Team (Faculty of Engineering, University of Tokyo)
MoNA Rating=3.75

>  <NUM PEAKS>  (1326) 
42

>  <MASS SPECTRAL PEAKS>  (1326) 
27 4.2
29 4.2
31 2.1
39 0.21
41 14.6
43 14.6
53 2.1
55 0.42
57 4.2
65 2.1
67 2.1
69 1.25
70 7.3
71 31.3
72 3.1
77 0.63
78 2.1
79 5.2
85 3.1
91 5.1
92 4.2
93 2.1
103 6.3
105 0.83
107 15.6
115 5.2
116 2.1
117 0.63
118 3.1
119 4.2
121 13.5
128 0.31
129 5.2
130 2.1
131 4.2
133 0.42
143 2.1
145 22.9
146 4.2
162 1.77
163 99.99
164 12.5

$$$$

     RDKit          2D

 17 18  0  0  0  0  0  0  0  0999 V2000
    4.7499    2.3304    0.0000 C   0  0  0  0  0  0  0  0  0  0  0  0
   -3.7389    1.4102    0.0000 C   0  0  0  0  0  0  0  0  0  0  0  0
   -1.1400    2.9100    0.0000 C   0  0  0  0  0  0  0  0  0  0  0  0
   -1.1400   -3.0900    0.0000 C   0  0  0  0  0  0  0  0  0  0  0  0
    4.2372    0.3997    0.0000 C   0  0  0  0  0  0  0  0  0  0  0  0
    3.2727    2.0696    0.0000 C   0  0  0  0  0  0  0  0  0  0  0  0
    1.4600   -1.5900    0.0000 C   0  0  0  0  0  0  0  0  0  0  0  0
    2.7600   -0.8400    0.0000 C   0  0  0  0  0  0  0  0  0  0  0  0
   -2.4400    0.6600    0.0000 C   0  0  0  0  0  0  0  0  0  0  0  0
   -1.1400    1.4100    0.0000 C   0  0  0  0  0  0  0  0  0  0  0  0
   -1.1400   -1.5900    0.0000 C   0  0  0  0  0  0  0  0  0  0  0  0
    0.1600   -0.8400    0.0000 C   0  0  0  0  0  0  0  0  0  0  0  0
   -2.4400   -0.8400    0.0000 C   0  0  0  0  0  0  0  0  0  0  0  0
    0.1600    0.6600    0.0000 C   0  0  0  0  0  0  0  0  0  0  0  0
    2.7600    0.6600    0.0000 C   0  0  0  0  0  0  0  0  0  0  0  0
   -3.7389   -1.5902    0.0000 O   0  0  0  0  0  0  0  0  0  0  0  0
    1.4600    1.4100    0.0000 O   0  0  0  0  0  0  0  0  0  0  0  0
  6  1  2  0
  8  7  1  0
  9  2  1  0
 10  3  1  0
 10  9  1  0
 11  4  1  0
 12  7  1  0
 12 11  2  0
 13  9  2  0
 13 11  1  0
 14 10  2  0
 14 12  1  0
 15  5  1  0
 15  6  1  0
 15  8  1  0
 16 13  1  0
 17 14  1  0
 17 15  1  0
M  END
>  <NAME>  (1327) 
2-ETHENYL-6-HYDROXY-2,5,7,8-TETRAMETHYL-3,4-DIHYDRO-2H-1-BENZOPYRAN

>  <SYNONYMS>  (1327) 


>  <SPECTRUM TYPE>  (1327) 
MS1

>  <INSTRUMENT TYPE>  (1327) 
EI-B

>  <INSTRUMENT>  (1327) 
JEOL JMS-D-300

>  <ION MODE>  (1327) 
P

>  <INCHIKEY>  (1327) 
PPNVGJUSMNMFCL-UHFFFAOYSA-N

>  <FORMULA>  (1327) 
C15H20O2

>  <EXACT MASS>  (1327) 
232.14632988

>  <MW>  (1327) 
232

>  <ID>  (1327) 
JP010113

>  <CONTRIBUTOR>  (1327) 
University of Tokyo Team, {Faculty of Engineering, University of Tokyo

>  <COMMENT>  (1327) 
SMILES=C=CC(C)(C2)Oc(c(C)1)c(C2)c(C)c(O)c(C)1
InChI=InChI=1S/C15H20O2/c1-6-15(5)8-7-12-11(4)13(16)9(2)10(3)14(12)17-15/h6,16H,1,7-8H2,2-5H3
computed SMILES=OC=1C(=C(C=2OC(C=C)(C)CCC2C1C)C)C
accession=JP010113
date=2016.01.19 (Created 2008.10.21, modified 2011.05.06)
author=KURARAY CO., LTD.
license=CC BY-NC-SA
exact mass=232.14633
ionization energy=70 eV
ion type=[M]+*
computed spectral entropy=3.5048208430771
computed normalized entropy=0.7953356332498235
SPLASH=splash10-0f79-2940000000-2bfe4b485655bb0e8283
submitter=submitter = University of Tokyo Team (Faculty of Engineering, University of Tokyo)
MoNA Rating=3.75

>  <NUM PEAKS>  (1327) 
82

>  <MASS SPECTRAL PEAKS>  (1327) 
27 3.8
29 1.9
39 5.7
41 1.43
43 19
51 3.8
52 1.9
53 1.05
54 1.9
55 5.7
57 1.9
63 0.19
65 5.7
67 4.8
69 7.6
77 1.14
78 2.9
79 8.6
81 2.9
83 0.19
91 17.1
92 1.9
93 5.7
94 1.14
95 3.8
96 1.9
102 1.9
103 0.29
105 7.6
106 1.9
107 3.8
115 0.76
116 3.8
117 5.7
119 5.7
121 1.05
122 2.9
128 3.8
129 3.8
130 0.19
131 7.6
132 1.9
133 6.7
134 0.19
135 5.7
136 83.8
137 16.2
138 1.33
139 3.8
140 1.9
141 1.9
143 0.19
145 5.7
146 5.7
147 9.5
148 0.38
149 3.8
157 3.8
159 9.5
160 0.57
161 25.7
162 7.6
163 1.9
164 4.38
165 11.4
171 5.7
173 4.8
174 0.95
175 30.5
176 14.3
177 5.7
187 0.29
188 3.8
189 60
190 15.2
199 0.29
202 1.9
203 17.1
204 99.99
205 2.48
217 11.4
232 51.4

$$$$

     RDKit          2D

 15 16  0  0  0  0  0  0  0  0999 V2000
   -1.6700   -0.9600    0.0000 C   0  0  0  0  0  0  0  0  0  0  0  0
    8.7252   -0.9608    0.0000 C   0  0  0  0  0  0  0  0  0  0  0  0
   -0.3700   -1.7100    0.0000 C   0  0  0  0  0  0  0  0  0  0  0  0
   -1.6700    0.5400    0.0000 C   0  0  0  0  0  0  0  0  0  0  0  0
    8.7247    0.5400    0.0000 C   0  0  0  0  0  0  0  0  0  0  0  0
    7.4262   -1.7108    0.0000 C   0  0  0  0  0  0  0  0  0  0  0  0
    0.9300   -0.9600    0.0000 C   0  0  0  0  0  0  0  0  0  0  0  0
   -0.3700    1.2900    0.0000 C   0  0  0  0  0  0  0  0  0  0  0  0
    7.4252    1.2908    0.0000 C   0  0  0  0  0  0  0  0  0  0  0  0
    6.1266   -0.9600    0.0000 C   0  0  0  0  0  0  0  0  0  0  0  0
    3.5281    0.5404    0.0000 C   0  0  0  0  0  0  0  0  0  0  0  0
    0.9300    0.5400    0.0000 C   0  0  0  0  0  0  0  0  0  0  0  0
    6.1262    0.5408    0.0000 C   0  0  0  0  0  0  0  0  0  0  0  0
    2.2289    1.2902    0.0000 S   0  0  0  0  0  0  0  0  0  0  0  0
    4.8270    1.2906    0.0000 S   0  0  0  0  0  0  0  0  0  0  0  0
  3  1  2  0
  4  1  1  0
  5  2  2  0
  6  2  1  0
  7  3  1  0
  8  4  2  0
  9  5  1  0
 10  6  2  0
 12  7  2  0
 12  8  1  0
 13  9  2  0
 13 10  1  0
 14 11  1  0
 14 12  1  0
 15 11  1  0
 15 13  1  0
M  END
>  <NAME>  (1328) 
1,2-BISPHENYLTHIOMETHANE

>  <SYNONYMS>  (1328) 


>  <SPECTRUM TYPE>  (1328) 
MS1

>  <INSTRUMENT TYPE>  (1328) 
EI-B

>  <INSTRUMENT>  (1328) 
JEOL JMS-D-300

>  <ION MODE>  (1328) 
P

>  <INCHIKEY>  (1328) 
ZHUPZVIALZHGGP-UHFFFAOYSA-N

>  <FORMULA>  (1328) 
C13H12S2

>  <EXACT MASS>  (1328) 
232.038042384

>  <MW>  (1328) 
232

>  <ID>  (1328) 
JP010112

>  <CONTRIBUTOR>  (1328) 
University of Tokyo Team, {Faculty of Engineering, University of Tokyo

>  <COMMENT>  (1328) 
SMILES=c(c2)ccc(c2)SCSc(c1)cccc1
InChI=InChI=1S/C13H12S2/c1-3-7-12(8-4-1)14-11-15-13-9-5-2-6-10-13/h1-10H,11H2
computed SMILES=S(C=1C=CC=CC1)CSC=2C=CC=CC2
accession=JP010112
date=2016.01.19 (Created 2008.10.21, modified 2011.05.06)
author=KURARAY CO., LTD.
license=CC BY-NC-SA
exact mass=232.03804
ionization energy=70 eV
ion type=[M]+*
computed spectral entropy=1.6491217215082656
computed normalized entropy=0.5947949323605612
SPLASH=splash10-00di-3920000000-9e80d01f37e9cc406646
submitter=submitter = University of Tokyo Team (Faculty of Engineering, University of Tokyo)
MoNA Rating=3.75

>  <NUM PEAKS>  (1328) 
16

>  <MASS SPECTRAL PEAKS>  (1328) 
45 21
51 5.2
65 3.1
69 0.11
77 8.3
78 1.1
79 4.2
91 0.11
109 4.2
121 1.1
123 99.99
124 0.9
125 4.2
232 25
233 4.2
234 2.1

$$$$

     RDKit          2D

 15 14  0  0  0  0  0  0  0  0999 V2000
   -8.7685    6.1875    0.0000 C   0  0  0  0  0  0  0  0  0  0  0  0
   -7.4695    3.9375    0.0000 C   0  0  0  0  0  0  0  0  0  0  0  0
   -2.2733    3.9375    0.0000 C   0  0  0  0  0  0  0  0  0  0  0  0
    4.2219    6.1875    0.0000 C   0  0  0  0  0  0  0  0  0  0  0  0
   -3.5724    6.1875    0.0000 C   0  0  0  0  0  0  0  0  0  0  0  0
   -4.8714    5.4375    0.0000 C   0  0  0  0  0  0  0  0  0  0  0  0
   -0.9743    6.1875    0.0000 C   0  0  0  0  0  0  0  0  0  0  0  0
    0.3248    5.4375    0.0000 C   0  0  0  0  0  0  0  0  0  0  0  0
   -7.4695    5.4375    0.0000 C   0  0  0  0  0  0  0  0  0  0  0  0
   -2.2733    5.4375    0.0000 C   0  0  0  0  0  0  0  0  0  0  0  0
    2.9228    5.4375    0.0000 C   0  0  0  0  0  0  0  0  0  0  0  0
   -6.1704    6.1875    0.0000 C   0  0  0  0  0  0  0  0  0  0  0  0
   -6.1704    7.6875    0.0000 Cl  0  0  0  0  0  0  0  0  0  0  0  0
    2.9228    3.9375    0.0000 O   0  0  0  0  0  0  0  0  0  0  0  0
    1.6238    6.1875    0.0000 O   0  0  0  0  0  0  0  0  0  0  0  0
  6  5  1  0
  8  7  1  0
  9  1  2  0
  9  2  1  0
 10  3  1  0
 10  5  1  0
  7 10  2  0
 11  4  1  0
 12  6  1  0
 12  9  1  0
 13 12  1  0
 14 11  2  0
 15  8  1  0
 15 11  1  0
M  END
>  <NAME>  (1329) 
6-CHLORO-3,7-DIMETHYL-2,7-OCTADIENYL ACETATE

>  <SYNONYMS>  (1329) 


>  <SPECTRUM TYPE>  (1329) 
MS1

>  <INSTRUMENT TYPE>  (1329) 
EI-B

>  <INSTRUMENT>  (1329) 
JEOL JMS-D-300

>  <ION MODE>  (1329) 
P

>  <INCHIKEY>  (1329) 
WPMFOBQJRQAIKY-JXMROGBWSA-N

>  <FORMULA>  (1329) 
C12H19ClO2

>  <EXACT MASS>  (1329) 
230.107357528

>  <MW>  (1329) 
230

>  <ID>  (1329) 
JP010110

>  <CONTRIBUTOR>  (1329) 
University of Tokyo Team, {Faculty of Engineering, University of Tokyo

>  <COMMENT>  (1329) 
SMILES=CC(=O)OCC=C(C)CCC(Cl)C(C)=C
InChI=InChI=1S/C12H19ClO2/c1-9(2)12(13)6-5-10(3)7-8-15-11(4)14/h7,12H,1,5-6,8H2,2-4H3/b10-7+
computed SMILES=O=C(OCC=C(C)CCC(Cl)C(=C)C)C
accession=JP010110
date=2016.01.19 (Created 2008.10.21, modified 2011.05.06)
author=KURARAY CO., LTD.
license=CC BY-NC-SA
exact mass=230.10736
ionization energy=70 eV
ion type=[M]+*
computed spectral entropy=2.636269912711746
computed normalized entropy=0.8528740554331519
SPLASH=splash10-00kf-9200000000-7edb017d2ca3db2c1915
submitter=submitter = University of Tokyo Team (Faculty of Engineering, University of Tokyo)
MoNA Rating=3.75

>  <NUM PEAKS>  (1329) 
22

>  <MASS SPECTRAL PEAKS>  (1329) 
41 26.5
43 99.99
53 13.3
55 1.52
67 31.8
68 53.6
69 15.7
79 1.7
80 13.3
81 32.2
84 29.4
85 0.98
91 11.9
93 29.4
95 9.5
105 0.95
107 20.8
119 21.8
121 8.1
134 1.33
135 49.6
195 7.6

$$$$

     RDKit          2D

 12 12  0  0  0  0  0  0  0  0999 V2000
   -0.1095   -3.2923    0.0000 C   0  0  0  0  0  0  0  0  0  0  0  0
    1.7250   -2.4765    0.0000 C   0  0  0  0  0  0  0  0  0  0  0  0
    0.1051    0.5414    0.0000 C   0  0  0  0  0  0  0  0  0  0  0  0
   -1.2707   -0.0615    0.0000 C   0  0  0  0  0  0  0  0  0  0  0  0
    2.5965   -0.4095    0.0000 C   0  0  0  0  0  0  0  0  0  0  0  0
    3.2060    0.9610    0.0000 C   0  0  0  0  0  0  0  0  0  0  0  0
   -2.2171   -2.5609    0.0000 C   0  0  0  0  0  0  0  0  0  0  0  0
    1.1048   -0.5670    0.0000 C   0  0  0  0  0  0  0  0  0  0  0  0
   -1.1049   -1.5544    0.0000 C   0  0  0  0  0  0  0  0  0  0  0  0
    0.3548   -1.8660    0.0000 C   0  0  0  0  0  0  0  0  0  0  0  0
   -3.6449   -2.1009    0.0000 Br  0  0  0  0  0  0  0  0  0  0  0  0
    4.6978    1.1185    0.0000 O   0  0  0  0  0  0  0  0  0  0  0  0
  4  3  1  0
  6  5  1  0
  8  3  1  0
  8  5  1  0
  9  4  2  0
  9  7  1  0
 10  1  1  0
 10  2  1  0
 10  8  1  0
 10  9  1  0
 11  7  1  0
 12  6  2  0
M  END
>  <NAME>  (1330) 
3-BROMOMETHYL-2,2-DIMETHYL-3-CYCLOPENTENYLETHANAL

>  <SYNONYMS>  (1330) 
1-BROMOMETHYL-2,2-DIMETHYL-3-FORMYLMETHYL-1-CYCLOPENTENE

>  <SPECTRUM TYPE>  (1330) 
MS1

>  <INSTRUMENT TYPE>  (1330) 
EI-B

>  <INSTRUMENT>  (1330) 
JEOL JMS-D-300

>  <ION MODE>  (1330) 
P

>  <INCHIKEY>  (1330) 
XCQDWMJNYQLKSC-UHFFFAOYSA-N

>  <FORMULA>  (1330) 
C10H15BrO

>  <EXACT MASS>  (1330) 
230.0306272

>  <MW>  (1330) 
230

>  <ID>  (1330) 
JP010109

>  <CONTRIBUTOR>  (1330) 
University of Tokyo Team, {Faculty of Engineering, University of Tokyo

>  <COMMENT>  (1330) 
SMILES=O=CCC(C1)C(C)(C)C(CBr)=C([H])1
InChI=InChI=1S/C10H15BrO/c1-10(2)8(5-6-12)3-4-9(10)7-11/h4,6,8H,3,5,7H2,1-2H3
computed SMILES=O=CCC1CC=C(CBr)C1(C)C
accession=JP010109
date=2016.01.19 (Created 2008.10.21, modified 2011.05.06)
author=KURARAY CO., LTD.
license=CC BY-NC-SA
exact mass=230.03063
ionization energy=70 eV
ion type=[M]+*
computed spectral entropy=2.53423324071954
computed normalized entropy=0.6657362578189711
SPLASH=splash10-0a4i-4900000000-d4f6a266eb61f765577e
submitter=submitter = University of Tokyo Team (Faculty of Engineering, University of Tokyo)
MoNA Rating=3.75

>  <NUM PEAKS>  (1330) 
45

>  <MASS SPECTRAL PEAKS>  (1330) 
39 6
40 0.9
41 9.5
43 0.3
51 2.6
52 1.3
53 6
55 0.43
65 3.4
66 0.9
67 5.4
68 0.09
69 2.6
77 5.2
78 1.1
79 1.14
80 1.1
81 4.3
91 15.5
92 0.6
93 8
94 1.7
95 2.1
105 0.52
106 9.9
107 99.99
108 11.2
109 1.72
110 1.7
117 0.7
118 1
121 0.11
123 2.3
133 1.1
135 1.7
150 0.86
151 8.6
152 0.9
171 0.7
173 0.26
175 1.7
186 5.2
187 0.9
188 0.52
189 0.7

$$$$

     RDKit          2D

 17 18  0  0  0  0  0  0  0  0999 V2000
    6.1714    0.9368    0.0000 C   0  0  0  0  0  0  0  0  0  0  0  0
   -4.2217    0.9372    0.0000 C   0  0  0  0  0  0  0  0  0  0  0  0
   -2.9220    0.1866    0.0000 C   0  0  0  0  0  0  0  0  0  0  0  0
   -4.2224    2.4381    0.0000 C   0  0  0  0  0  0  0  0  0  0  0  0
   -1.6231    0.9368    0.0000 C   0  0  0  0  0  0  0  0  0  0  0  0
   -2.9235    3.1883    0.0000 C   0  0  0  0  0  0  0  0  0  0  0  0
    2.2742    0.1864    0.0000 C   0  0  0  0  0  0  0  0  0  0  0  0
    0.9747    0.9372    0.0000 C   0  0  0  0  0  0  0  0  0  0  0  0
    3.5728    2.4372    0.0000 C   0  0  0  0  0  0  0  0  0  0  0  0
   -1.6238    2.4377    0.0000 C   0  0  0  0  0  0  0  0  0  0  0  0
    3.5733    0.9364    0.0000 C   0  0  0  0  0  0  0  0  0  0  0  0
    0.9742    2.4381    0.0000 C   0  0  0  0  0  0  0  0  0  0  0  0
    2.2733    3.1881    0.0000 C   0  0  0  0  0  0  0  0  0  0  0  0
   -0.3249    3.1879    0.0000 C   0  0  0  0  0  0  0  0  0  0  0  0
    2.2735    4.6881    0.0000 O   0  0  0  0  0  0  0  0  0  0  0  0
   -0.3251    4.6879    0.0000 O   0  0  0  0  0  0  0  0  0  0  0  0
    4.8724    0.1866    0.0000 O   0  0  0  0  0  0  0  0  0  0  0  0
  3  2  2  0
  4  2  1  0
  5  3  1  0
  6  4  2  0
  8  7  2  0
 10  5  2  0
 10  6  1  0
 11  7  1  0
 11  9  2  0
 12  8  1  0
 13  9  1  0
 13 12  2  0
 14 10  1  0
 14 12  1  0
 15 13  1  0
 16 14  2  0
 17  1  1  0
 17 11  1  0
M  END
>  <NAME>  (1331) 
2-HYDROXY-4-METHOXYPHENYL PHENYL KETONE

>  <SYNONYMS>  (1331) 
2-HYDROXY-4-METHOXY-BENZOPHENONE

>  <SPECTRUM TYPE>  (1331) 
MS1

>  <INSTRUMENT TYPE>  (1331) 
EI-B

>  <INSTRUMENT>  (1331) 
JEOL JMS-D-300

>  <ION MODE>  (1331) 
P

>  <INCHIKEY>  (1331) 
DXGLGDHPHMLXJC-UHFFFAOYSA-N

>  <FORMULA>  (1331) 
C14H12O3

>  <EXACT MASS>  (1331) 
228.078644244

>  <MW>  (1331) 
228

>  <ID>  (1331) 
JP010108

>  <CONTRIBUTOR>  (1331) 
University of Tokyo Team, {Faculty of Engineering, University of Tokyo

>  <COMMENT>  (1331) 
SMILES=COc(c2)cc(O)c(c2)C(=O)c(c1)cccc1
InChI=InChI=1S/C14H12O3/c1-17-11-7-8-12(13(15)9-11)14(16)10-5-3-2-4-6-10/h2-9,15H,1H3
computed SMILES=O=C(C=1C=CC=CC1)C2=CC=C(OC)C=C2O
accession=JP010108
date=2016.01.19 (Created 2008.10.21, modified 2011.05.06)
author=KURARAY CO., LTD.
license=CC BY-NC-SA
exact mass=228.07864
ionization energy=70 eV
ion type=[M]+*
computed spectral entropy=1.8114400821517427
computed normalized entropy=0.6267152580643289
SPLASH=splash10-004i-1190000000-c313f66363430324ce8e
submitter=submitter = University of Tokyo Team (Faculty of Engineering, University of Tokyo)
MoNA Rating=3.75

>  <NUM PEAKS>  (1331) 
18

>  <MASS SPECTRAL PEAKS>  (1331) 
51 5.7
52 1.9
77 15.6
79 0.15
95 4.2
100 1.3
105 10.5
108 0.67
122 1.5
128 2.9
150 2.5
151 8.57
152 8
184 1.1
211 1.9
227 99.99
228 80.6
229 12.4

$$$$

     RDKit          2D

 16 16  0  0  0  0  0  0  0  0999 V2000
    1.9110    4.2303    0.0000 C   0  0  0  0  0  0  0  0  0  0  0  0
   -2.1500    0.5800    0.0000 C   0  0  0  0  0  0  0  0  0  0  0  0
   -3.6500    0.5800    0.0000 C   0  0  0  0  0  0  0  0  0  0  0  0
   -1.4000   -0.7200    0.0000 C   0  0  0  0  0  0  0  0  0  0  0  0
    0.1000    4.4700    0.0000 C   0  0  0  0  0  0  0  0  0  0  0  0
    3.1000    1.8700    0.0000 C   0  0  0  0  0  0  0  0  0  0  0  0
   -1.4000    4.4700    0.0000 C   0  0  0  0  0  0  0  0  0  0  0  0
    2.3500    0.5800    0.0000 C   0  0  0  0  0  0  0  0  0  0  0  0
   -3.6500    3.1700    0.0000 C   0  0  0  0  0  0  0  0  0  0  0  0
    0.8500    3.1700    0.0000 C   0  0  0  0  0  0  0  0  0  0  0  0
   -4.4000    1.8800    0.0000 C   0  0  0  0  0  0  0  0  0  0  0  0
    0.1000   -0.7200    0.0000 C   0  0  0  0  0  0  0  0  0  0  0  0
   -5.9000    1.8825    0.0000 O   0  0  0  0  0  0  0  0  0  0  0  0
    0.8502   -2.0189    0.0000 O   0  0  0  0  0  0  0  0  0  0  0  0
   -2.1500    3.1700    0.0000 O   0  0  0  0  0  0  0  0  0  0  0  0
    0.8500    0.5800    0.0000 O   0  0  0  0  0  0  0  0  0  0  0  0
  3  2  1  0
  4  2  1  0
  7  5  1  0
  8  6  1  0
 10  1  1  0
 10  5  1  0
 10  6  1  0
 11  3  1  0
 11  9  1  0
 12  4  1  0
 13 11  2  0
 14 12  2  0
 15  7  1  0
 15  9  1  0
 16  8  1  0
 16 12  1  0
M  END
>  <NAME>  (1332) 
ADIPICACID 3-METHYL-1,5-PENTANDIOL DIESTER

>  <SYNONYMS>  (1332) 
4-METHYL-1,7-DIOXATRIDECANE-8,12-DIONE

>  <SPECTRUM TYPE>  (1332) 
MS1

>  <INSTRUMENT TYPE>  (1332) 
EI-B

>  <INSTRUMENT>  (1332) 
JEOL JMS-D-300

>  <ION MODE>  (1332) 
P

>  <INCHIKEY>  (1332) 
KGPVQKJWSBHFFC-UHFFFAOYSA-N

>  <FORMULA>  (1332) 
C12H20O4

>  <EXACT MASS>  (1332) 
228.13615912

>  <MW>  (1332) 
228

>  <ID>  (1332) 
JP010107

>  <CONTRIBUTOR>  (1332) 
University of Tokyo Team, {Faculty of Engineering, University of Tokyo

>  <COMMENT>  (1332) 
SMILES=CC(C1)CCOC(=O)CCCC(=O)COC1
InChI=InChI=1S/C12H20O4/c1-10-5-7-15-9-11(13)3-2-4-12(14)16-8-6-10/h10H,2-9H2,1H3
computed SMILES=O=C1OCCC(C)CCOCC(=O)CCC1
accession=JP010107
date=2016.01.19 (Created 2008.10.21, modified 2011.05.06)
author=KURARAY CO., LTD.
license=CC BY-NC-SA
exact mass=228.13616
ionization energy=70 eV
ion type=[M]+*
computed spectral entropy=2.4291665162206924
computed normalized entropy=0.8404339371170811
SPLASH=splash10-053r-9200000000-f513f9e2718d021d0202
submitter=submitter = University of Tokyo Team (Faculty of Engineering, University of Tokyo)
MoNA Rating=3.75

>  <NUM PEAKS>  (1332) 
18

>  <MASS SPECTRAL PEAKS>  (1332) 
29 13.4
41 28.7
42 16.3
43 1.76
55 76.6
56 16.3
67 62.8
68 0.77
69 8.6
82 99.99
83 44.1
84 1.36
99 13.4
100 23
101 27.2
111 2.49
115 11.1
129 45.6

$$$$

     RDKit          2D

 42 43  0  0  0  0  0  0  0  0999 V2000
  -10.3944   -3.0749    0.0000 C   0  0  0  0  0  0  0  0  0  0  0  0
  -11.7120   -0.8357    0.0000 C   0  0  0  0  0  0  0  0  0  0  0  0
   15.4340    6.4509    0.0000 C   0  0  0  0  0  0  0  0  0  0  0  0
   14.9618    9.0057    0.0000 C   0  0  0  0  0  0  0  0  0  0  0  0
   13.4285    0.7960    0.0000 C   0  0  0  0  0  0  0  0  0  0  0  0
   15.4049    2.4824    0.0000 C   0  0  0  0  0  0  0  0  0  0  0  0
    2.6101    2.9936    0.0000 C   0  0  0  0  0  0  0  0  0  0  0  0
    3.1088    0.0816    0.0000 C   0  0  0  0  0  0  0  0  0  0  0  0
    1.3000   -0.7500    0.0000 C   0  0  0  0  0  0  0  0  0  0  0  0
    0.0300    1.5000    0.0000 C   0  0  0  0  0  0  0  0  0  0  0  0
    4.5942    3.1563    0.0000 C   0  0  0  0  0  0  0  0  0  0  0  0
    5.0181    0.6077    0.0000 C   0  0  0  0  0  0  0  0  0  0  0  0
    0.0300   -1.5000    0.0000 C   0  0  0  0  0  0  0  0  0  0  0  0
   -1.3200    0.7500    0.0000 C   0  0  0  0  0  0  0  0  0  0  0  0
    6.0441    3.4267    0.0000 C   0  0  0  0  0  0  0  0  0  0  0  0
    6.5432    0.8507    0.0000 C   0  0  0  0  0  0  0  0  0  0  0  0
   -3.9180   -0.7714    0.0000 C   0  0  0  0  0  0  0  0  0  0  0  0
   -6.5160   -0.7929    0.0000 C   0  0  0  0  0  0  0  0  0  0  0  0
    9.0326    3.9466    0.0000 C   0  0  0  0  0  0  0  0  0  0  0  0
   11.0090    5.6330    0.0000 C   0  0  0  0  0  0  0  0  0  0  0  0
  -10.4068   -1.5750    0.0000 C   0  0  0  0  0  0  0  0  0  0  0  0
   14.4604    7.5920    0.0000 C   0  0  0  0  0  0  0  0  0  0  0  0
   13.9299    2.2098    0.0000 C   0  0  0  0  0  0  0  0  0  0  0  0
    1.3000    0.7500    0.0000 C   0  0  0  0  0  0  0  0  0  0  0  0
    4.0812    1.7468    0.0000 C   0  0  0  0  0  0  0  0  0  0  0  0
   -5.2108   -1.5321    0.0000 C   0  0  0  0  0  0  0  0  0  0  0  0
   -1.3200   -0.7500    0.0000 C   0  0  0  0  0  0  0  0  0  0  0  0
    7.0562    2.2602    0.0000 C   0  0  0  0  0  0  0  0  0  0  0  0
   10.5076    4.2193    0.0000 C   0  0  0  0  0  0  0  0  0  0  0  0
   -9.1140   -0.8143    0.0000 C   0  0  0  0  0  0  0  0  0  0  0  0
   12.9854    7.3194    0.0000 C   0  0  0  0  0  0  0  0  0  0  0  0
   12.9563    3.3508    0.0000 C   0  0  0  0  0  0  0  0  0  0  0  0
    2.6027    1.4936    0.0000 C   0  0  0  0  0  0  0  0  0  0  0  0
   -5.1984   -3.0321    0.0000 O   0  0  0  0  0  0  0  0  0  0  0  0
   -9.1263    0.6856    0.0000 O   0  0  0  0  0  0  0  0  0  0  0  0
   12.0118    8.4604    0.0000 O   0  0  0  0  0  0  0  0  0  0  0  0
   13.4576    4.7646    0.0000 O   0  0  0  0  0  0  0  0  0  0  0  0
   -2.6128   -1.5107    0.0000 O   0  0  0  0  0  0  0  0  0  0  0  0
    8.5312    2.5329    0.0000 O   0  0  0  0  0  0  0  0  0  0  0  0
   -7.8088   -1.5536    0.0000 O   0  0  0  0  0  0  0  0  0  0  0  0
   12.4840    5.9056    0.0000 O   0  0  0  0  0  0  0  0  0  0  0  0
   11.4813    3.0782    0.0000 O   0  0  0  0  0  0  0  0  0  0  0  0
 13  9  2  0
 14 10  1  0
 15 11  2  0
 16 12  1  0
 21  1  2  0
 21  2  1  0
 22  3  2  0
 22  4  1  0
 23  5  2  0
 23  6  1  0
 24  9  1  0
 24 10  2  0
 25 11  1  0
 25 12  2  0
 26 17  1  0
 26 18  1  0
 27 13  1  0
 27 14  2  0
 28 15  1  0
 28 16  2  0
 29 19  1  0
 29 20  1  0
 30 21  1  0
 31 22  1  0
 32 23  1  0
 33  7  1  0
 33  8  1  0
 33 24  1  0
 33 25  1  0
 34 26  1  0
 35 30  2  0
 36 31  2  0
 37 32  2  0
 38 17  1  0
 38 27  1  0
 39 19  1  0
 39 28  1  0
 40 18  1  0
 40 30  1  0
 41 20  1  0
 41 31  1  0
 42 29  1  0
 42 32  1  0
M  END
>  <NAME>  (1333) 
2-(4-(2,3-BIS-METHACRYLOYLOXYPROPYLOXY)-PHENYL)-2-(4'-(2-HYDROXY-3-METHACRYLOYLOXYPROPYLOXY)-PHENYL)-PROPANE

>  <SYNONYMS>  (1333) 


>  <SPECTRUM TYPE>  (1333) 
MS1

>  <INSTRUMENT TYPE>  (1333) 
EI-B

>  <INSTRUMENT>  (1333) 
JEOL JMS-D-300

>  <ION MODE>  (1333) 
P

>  <INCHIKEY>  (1333) 
QONAMQVPGGEUCA-UHFFFAOYSA-N

>  <FORMULA>  (1333) 
C33H40O9

>  <EXACT MASS>  (1333) 
580.2672328599999

>  <MW>  (1333) 
580

>  <ID>  (1333) 
JP010106

>  <CONTRIBUTOR>  (1333) 
University of Tokyo Team, {Faculty of Engineering, University of Tokyo

>  <COMMENT>  (1333) 
SMILES=CC(C)(c(c2)ccc(c2)OCC(COC(=O)C(C)=C)O)c(c1)ccc(c1)OCC(COC(C(C)=C)=O)OC(C(C)=C)=O
InChI=InChI=1S/C33H40O9/c1-21(2)30(35)40-18-26(34)17-38-27-13-9-24(10-14-27)33(7,8)25-11-15-28(16-12-25)39-19-29(42-32(37)23(5)6)20-41-31(36)22(3)4/h9-16,26,29,34H,1,3,5,17-20H2,2,4,6-8H3
computed SMILES=O=C(OCC(O)COC1=CC=C(C=C1)C(C2=CC=C(OCC(OC(=O)C(=C)C)COC(=O)C(=C)C)C=C2)(C)C)C(=C)C
accession=JP010106
date=2016.01.19 (Created 2008.10.21, modified 2011.05.06)
author=KURARAY CO., LTD.
license=CC BY-NC-SA
exact mass=580.26723
ionization energy=70 eV
ion type=[M]+*
computed spectral entropy=2.5578912372102223
computed normalized entropy=0.6643618639644165
SPLASH=splash10-0006-9122000000-4451f6b00c2fd14f5512
submitter=submitter = University of Tokyo Team (Faculty of Engineering, University of Tokyo)
MoNA Rating=3.75

>  <NUM PEAKS>  (1333) 
47

>  <MASS SPECTRAL PEAKS>  (1333) 
28 8.81
29 3.47
31 1.72
39 0.88
41 8.89
43 0.64
44 99.99
57 4.15
69 32.44
91 1.39
107 1.17
119 3.28
135 2.52
143 23.15
161 2.76
191 2.3
211 29.21
212 4.17
213 4.82
269 3.36
325 3.36
361 24.77
362 5.12
363 8.1
364 1.46
376 4.43
395 0.98
396 0.33
397 0.58
399 0.39
409 0.21
410 0.62
411 1.33
412 0.49
426 0.54
429 1.26
430 0.34
431 0.53
444 0.58
446 0.27
479 0.21
494 0.19
515 0.31
530 0.26
565 0.57
580 0.9
581 0.39

$$$$

     RDKit          2D

 38 38  0  0  0  0  0  0  0  0999 V2000
   16.8877    5.2525    0.0000 C   0  0  0  0  0  0  0  0  0  0  0  0
   15.5883    7.5023    0.0000 C   0  0  0  0  0  0  0  0  0  0  0  0
   10.3922    7.5015    0.0000 C   0  0  0  0  0  0  0  0  0  0  0  0
    3.8974    5.2504    0.0000 C   0  0  0  0  0  0  0  0  0  0  0  0
    9.0942    0.7512    0.0000 C   0  0  0  0  0  0  0  0  0  0  0  0
   -2.5989   -1.5002    0.0000 C   0  0  0  0  0  0  0  0  0  0  0  0
   -3.3491   -0.2013    0.0000 H   0  0  0  0  0  0  0  0  0  0  0  0
   -3.8978   -2.2504    0.0000 H   0  0  0  0  0  0  0  0  0  0  0  0
   -1.8487   -2.7991    0.0000 H   0  0  0  0  0  0  0  0  0  0  0  0
    2.3966    9.7502    0.0000 C   0  0  0  0  0  0  0  0  0  0  0  0
    3.8964   11.2504    0.0000 C   0  0  0  0  0  0  0  0  0  0  0  0
    5.3966    9.7507    0.0000 C   0  0  0  0  0  0  0  0  0  0  0  0
   12.9905    6.0019    0.0000 C   0  0  0  0  0  0  0  0  0  0  0  0
    5.1970    1.5006    0.0000 C   0  0  0  0  0  0  0  0  0  0  0  0
   14.2897    5.2521    0.0000 C   0  0  0  0  0  0  0  0  0  0  0  0
   11.6916    5.2517    0.0000 C   0  0  0  0  0  0  0  0  0  0  0  0
    6.4962    0.7508    0.0000 C   0  0  0  0  0  0  0  0  0  0  0  0
    3.8981    0.7504    0.0000 C   0  0  0  0  0  0  0  0  0  0  0  0
    9.0935    5.2512    0.0000 C   0  0  0  0  0  0  0  0  0  0  0  0
    6.4954    5.2508    0.0000 C   0  0  0  0  0  0  0  0  0  0  0  0
    9.0937    3.7512    0.0000 C   0  0  0  0  0  0  0  0  0  0  0  0
    6.4957    3.7508    0.0000 C   0  0  0  0  0  0  0  0  0  0  0  0
   -1.3000    0.7500    0.0000 C   0  0  0  0  0  0  0  0  0  0  0  0
   -0.0000   -1.5000    0.0000 C   0  0  0  0  0  0  0  0  0  0  0  0
   -0.0000    1.5000    0.0000 C   0  0  0  0  0  0  0  0  0  0  0  0
    1.3000   -0.7500    0.0000 C   0  0  0  0  0  0  0  0  0  0  0  0
    5.1960    7.5006    0.0000 C   0  0  0  0  0  0  0  0  0  0  0  0
   15.5886    6.0023    0.0000 C   0  0  0  0  0  0  0  0  0  0  0  0
   10.3924    6.0015    0.0000 C   0  0  0  0  0  0  0  0  0  0  0  0
    5.1963    6.0006    0.0000 C   0  0  0  0  0  0  0  0  0  0  0  0
    7.7951    1.5010    0.0000 C   0  0  0  0  0  0  0  0  0  0  0  0
    7.7948    3.0010    0.0000 C   0  0  0  0  0  0  0  0  0  0  0  0
    2.5989    1.5002    0.0000 C   0  0  0  0  0  0  0  0  0  0  0  0
   -1.3000   -0.7500    0.0000 N   0  0  0  0  0  0  0  0  0  0  0  0
    1.3000    0.7500    0.0000 N   0  0  0  0  0  0  0  0  0  0  0  0
    2.5987    3.0002    0.0000 O   0  0  0  0  0  0  0  0  0  0  0  0
    3.8969    8.2504    0.0000 O   0  0  0  0  0  0  0  0  0  0  0  0
    3.8966    9.7504    0.0000 Si  0  0  0  0  0  4  0  0  0  0  0  0
  6  7  1  0
  6  8  1  0
  6  9  1  0
 15 13  1  0
 16 13  1  0
 17 14  1  0
 18 14  1  0
 21 19  1  0
 22 20  1  0
 25 23  1  0
 26 24  1  0
 28  1  1  0
 28  2  1  0
 28 15  2  0
 29  3  1  0
 29 16  1  0
 19 29  2  0
 30  4  1  0
 30 20  1  0
 30 27  1  0
 31  5  1  0
 17 31  2  0
 32 21  1  0
 32 22  1  0
 32 31  1  0
 33 18  1  0
 34  6  1  0
 34 23  1  0
 34 24  1  0
 35 25  1  0
 35 26  1  0
 35 33  1  0
 36 33  2  0
 37 27  1  0
 38 10  1  0
 38 11  1  0
 38 12  1  0
 38 37  1  0
M  ISO  3   7   2   8   2   9   2
M  END
>  <NAME>  (1334) 
1-(1,1,1-TRIDEUTERIOMETHYL)-4-(5,9-DIMETHYL-6-(3,7-DIMETHYL-2,6-OCTADIENYL)-1-OXO-10-TRIMETHYLSYLYLOXY-4-DECAN-1-YL)-PIPERADINE (PIPERADINE-1,1,1-D3METHYL)

>  <SYNONYMS>  (1334) 


>  <SPECTRUM TYPE>  (1334) 
MS1

>  <INSTRUMENT TYPE>  (1334) 
EI-B

>  <INSTRUMENT>  (1334) 
JEOL JMS-D-300

>  <ION MODE>  (1334) 
P

>  <INCHIKEY>  (1334) 
QBLBWOSQGPWRPG-CBGKHWDGSA-N

>  <FORMULA>  (1334) 
C30H56N2O2Si

>  <EXACT MASS>  (1334) 
507.4299358

>  <MW>  (1334) 
507

>  <ID>  (1334) 
JP010104

>  <CONTRIBUTOR>  (1334) 
University of Tokyo Team, {Faculty of Engineering, University of Tokyo

>  <COMMENT>  (1334) 
SMILES=C(C)(CO[Si](C)(C)C)CCC(CC=C(C)CCC=C(C)C)C(=CCCC(=O)N(C1)CCN(C([2H])([2H])[2H])C1)C
InChI=InChI=1S/C30H56N2O2Si/c1-25(2)12-10-13-26(3)16-18-29(19-17-27(4)24-34-35(7,8)9)28(5)14-11-15-30(33)32-22-20-31(6)21-23-32/h12,14,16,27,29H,10-11,13,15,17-24H2,1-9H3/b26-16-,28-14-/i6D3
computed SMILES=[H]C([H])([H])N1CCN(C(=O)CCC=C(C)C(CC=C(C)CCC=C(C)C)CCC(C)CO[Si](C)(C)C)CC1
accession=JP010104
date=2016.01.19 (Created 2008.10.21, modified 2011.05.06)
author=KURARAY CO., LTD.
license=CC BY-NC-SA
exact mass=504.41111
ionization energy=70 eV
ion type=[M]+*
computed spectral entropy=3.161956451054342
computed normalized entropy=0.8823607480128485
SPLASH=splash10-0w29-9720120000-cd07a6b688a43cb3b0fe
submitter=submitter = University of Tokyo Team (Faculty of Engineering, University of Tokyo)
MoNA Rating=3.75

>  <NUM PEAKS>  (1334) 
36

>  <MASS SPECTRAL PEAKS>  (1334) 
28 17.57
29 3.89
32 28.37
40 1.99
41 41.82
44 7.16
60 46.06
61 62.23
69 70.75
73 91.33
75 37.66
81 35.95
96 1.07
100 27
101 95.43
102 61.6
103 25.97
104 99.99
133 26.89
147 8.08
191 11.59
207 4.84
212 88.68
213 30.96
221 3.94
281 2.95
282 0.91
355 3.22
370 10.64
438 56.11
439 24.13
492 2.65
503 8.24
505 28.92
507 74.77
508 35.82

$$$$

     RDKit          2D

 36 41  0  0  0  0  0  0  0  0999 V2000
    0.9204   -1.2422    0.0000 C   0  0  0  0  0  0  0  0  0  0  0  0
    2.1066    0.7332    0.0000 C   0  0  0  0  0  0  0  0  0  0  0  0
  -27.0006   -5.8530    0.0000 C   0  0  0  0  0  0  0  0  0  0  0  0
  -28.1868   -7.8285    0.0000 C   0  0  0  0  0  0  0  0  0  0  0  0
   -9.1816   -3.3561    0.0000 C   0  0  0  0  0  0  0  0  0  0  0  0
  -16.8986   -3.7391    0.0000 C   0  0  0  0  0  0  0  0  0  0  0  0
   -4.2251   -1.8478    0.0000 C   0  0  0  0  0  0  0  0  0  0  0  0
  -21.8551   -5.2475    0.0000 C   0  0  0  0  0  0  0  0  0  0  0  0
  -12.3018   -3.6799    0.0000 C   0  0  0  0  0  0  0  0  0  0  0  0
  -13.7783   -3.4153    0.0000 C   0  0  0  0  0  0  0  0  0  0  0  0
   -2.1167   -0.4566    0.0000 C   0  0  0  0  0  0  0  0  0  0  0  0
  -23.9635   -6.6386    0.0000 C   0  0  0  0  0  0  0  0  0  0  0  0
   -7.3533   -1.6132    0.0000 C   0  0  0  0  0  0  0  0  0  0  0  0
  -18.7269   -5.4821    0.0000 C   0  0  0  0  0  0  0  0  0  0  0  0
   -3.4079    0.3067    0.0000 C   0  0  0  0  0  0  0  0  0  0  0  0
  -22.6722   -7.4019    0.0000 C   0  0  0  0  0  0  0  0  0  0  0  0
   -8.7594   -1.0909    0.0000 C   0  0  0  0  0  0  0  0  0  0  0  0
  -17.3207   -6.0043    0.0000 C   0  0  0  0  0  0  0  0  0  0  0  0
   -0.8100    0.2800    0.0000 C   0  0  0  0  0  0  0  0  0  0  0  0
  -25.2702   -7.3752    0.0000 C   0  0  0  0  0  0  0  0  0  0  0  0
  -11.3344   -2.5336    0.0000 C   0  0  0  0  0  0  0  0  0  0  0  0
  -14.7457   -4.5616    0.0000 C   0  0  0  0  0  0  0  0  0  0  0  0
   -6.1979   -0.6565    0.0000 C   0  0  0  0  0  0  0  0  0  0  0  0
  -19.8822   -6.4387    0.0000 C   0  0  0  0  0  0  0  0  0  0  0  0
    0.6900    0.2400    0.0000 C   0  0  0  0  0  0  0  0  0  0  0  0
  -26.7702   -7.3352    0.0000 C   0  0  0  0  0  0  0  0  0  0  0  0
   -9.9148   -2.0476    0.0000 C   0  0  0  0  0  0  0  0  0  0  0  0
  -16.1654   -5.0477    0.0000 C   0  0  0  0  0  0  0  0  0  0  0  0
   -4.7146   -0.4299    0.0000 C   0  0  0  0  0  0  0  0  0  0  0  0
  -21.3656   -6.6653    0.0000 C   0  0  0  0  0  0  0  0  0  0  0  0
   -0.0700    1.5800    0.0000 O   0  0  0  0  0  0  0  0  0  0  0  0
  -26.0102   -8.6752    0.0000 O   0  0  0  0  0  0  0  0  0  0  0  0
  -11.0947   -1.0571    0.0000 O   0  0  0  0  0  0  0  0  0  0  0  0
  -14.9855   -6.0382    0.0000 O   0  0  0  0  0  0  0  0  0  0  0  0
   -5.7002    0.7541    0.0000 O   0  0  0  0  0  0  0  0  0  0  0  0
  -20.3800   -7.8493    0.0000 O   0  0  0  0  0  0  0  0  0  0  0  0
 10  9  1  0
 15 11  1  0
 16 12  1  0
 17 13  1  0
 18 14  1  0
 19 11  1  0
 20 12  1  0
 21  9  1  0
 22 10  1  0
 23 13  1  0
 24 14  1  0
 25  1  1  0
 25  2  1  0
 25 19  1  0
 26  3  1  0
 26  4  1  0
 26 20  1  0
 27  5  1  0
 27 17  1  0
 27 21  1  0
 28  6  1  0
 28 18  1  0
 28 22  1  0
 29  7  1  0
 29 15  1  0
 29 23  1  0
 30  8  1  0
 30 16  1  0
 30 24  1  0
 31 19  1  0
 31 25  1  0
 32 20  1  0
 32 26  1  0
 33 21  1  0
 33 27  1  0
 34 22  1  0
 34 28  1  0
 35 23  1  0
 35 29  1  0
 36 24  1  0
 36 30  1  0
M  END
>  <NAME>  (1335) 
SQUALENE HEXAEPOXIDE

>  <SYNONYMS>  (1335) 
2,6,10,15,19,23-HEXAMETHYL-2,6-10,14,18,22-TETRACOSAHEXAENE HEXAEPOXIDE

>  <SPECTRUM TYPE>  (1335) 
MS1

>  <INSTRUMENT TYPE>  (1335) 
EI-B

>  <INSTRUMENT>  (1335) 
JEOL JMS-D-300

>  <ION MODE>  (1335) 
P

>  <INCHIKEY>  (1335) 
PSNNHFRISFMCAD-UHFFFAOYSA-N

>  <FORMULA>  (1335) 
C30H50O6

>  <EXACT MASS>  (1335) 
506.36073932

>  <MW>  (1335) 
506

>  <ID>  (1335) 
JP010102

>  <CONTRIBUTOR>  (1335) 
University of Tokyo Team, {Faculty of Engineering, University of Tokyo

>  <COMMENT>  (1335) 
SMILES=CC(C)(O1)C1CCC(O2)(C)C2CCC(C(CCC(C(CCC(O5)C5(C)CCC(O6)C(C)(C)6)(C)4)O4)3)(C)O3
InChI=InChI=1S/C30H50O6/c1-25(2)19(31-25)11-15-29(7)23(35-29)13-17-27(5)21(33-27)9-10-22-28(6,34-22)18-14-24-30(8,36-24)16-12-20-26(3,4)32-20/h19-24H,9-18H2,1-8H3
computed SMILES=O1C(CCC2(OC2CCC3(OC3CCC4OC4(C)CCC5OC5(C)CCC6OC6(C)C)C)C)C1(C)C
accession=JP010102
date=2016.01.19 (Created 2008.10.21, modified 2011.05.06)
author=KURARAY CO., LTD.
license=CC BY-NC-SA
exact mass=506.36074
ionization energy=70 eV
ion type=[M]+*
computed spectral entropy=4.357538522283977
computed normalized entropy=0.8554676516319583
SPLASH=splash10-054o-3920000000-b50f8f18ad18f55c81fc
submitter=submitter = University of Tokyo Team (Faculty of Engineering, University of Tokyo)
MoNA Rating=3.75

>  <NUM PEAKS>  (1335) 
163

>  <MASS SPECTRAL PEAKS>  (1335) 
27 1.43
41 10.12
43 69.18
53 1.63
55 16.13
59 3.51
60 1.71
67 4.9
68 2.23
69 18.55
71 50.63
72 2.6
73 2.79
77 0.71
79 4.87
81 16.97
82 2.29
83 5.01
85 15.88
93 10.24
94 1.08
95 12.09
96 2.2
97 7.82
98 1.39
99 13.1
100 1.08
101 1.37
105 3.31
106 2.64
107 12.69
108 10.59
109 21.91
110 4
111 11.51
112 1.08
113 2.47
114 1.1
115 1.11
117 1.92
119 3.85
120 1.85
121 9.77
122 5.33
123 11.49
124 10.11
125 78.64
126 11.98
127 28.29
128 2.12
129 2.12
131 2.92
132 1.34
133 5.42
134 3.53
135 10.4
136 4.01
137 16.68
138 2.43
139 4.47
140 1.56
141 3.79
142 5.42
143 99.99
144 7.83
145 5.82
146 2.11
147 5.11
148 11.56
149 15.68
150 6.21
151 10.41
152 2.55
153 10.06
154 2.67
155 31.32
156 5.17
157 3.82
159 4.12
160 1.1
161 4.14
162 4.46
163 7.4
164 3.97
165 6.29
166 1.88
167 6.85
168 2.44
169 5.31
170 3.18
171 2.17
173 3.94
174 1.74
175 4.5
176 1.76
177 3.43
179 3.94
181 2.18
182 4.61
183 5.37
185 1.76
187 1.85
189 3.74
191 7.27
192 3.21
193 5.69
194 2.53
195 3.77
197 1.7
199 2.26
201 2.05
203 2.69
205 1.86
207 3.4
208 3.02
209 45.26
210 6.38
211 7.21
212 1.5
213 1.83
215 1.36
217 2.6
219 2.53
221 9.74
222 2.84
223 2.52
225 3.11
226 1.89
227 24.06
228 4.76
229 1.48
231 1.43
233 2.55
234 6.14
235 4.06
236 1.98
237 0.89
239 4.92
247 3.68
248 1.47
249 2.9
259 1.89
261 2.12
277 2.34
279 4.58
280 2.75
281 1.39
301 1.11
305 2.67
306 1.57
318 1.77
319 3.91
337 1.01
345 2.2
361 1.98
363 4.37
364 2.05
365 1.74
429 1.42
446 1.45
488 4.21
489 1.6
506 2.9

$$$$

     RDKit          2D

 34 36  0  0  0  0  0  0  0  0999 V2000
    5.6560   -8.3006    0.0000 C   0  0  0  0  0  0  0  0  0  0  0  0
   -9.7898    1.4674    0.0000 C   0  0  0  0  0  0  0  0  0  0  0  0
    7.5525    6.9505    0.0000 C   0  0  0  0  0  0  0  0  0  0  0  0
   -3.9427    1.3596    0.0000 C   0  0  0  0  0  0  0  0  0  0  0  0
    4.5372    1.9397    0.0000 C   0  0  0  0  0  0  0  0  0  0  0  0
    5.6563   -6.8006    0.0000 C   0  0  0  0  0  0  0  0  0  0  0  0
    4.3574   -6.0504    0.0000 C   0  0  0  0  0  0  0  0  0  0  0  0
    4.3576   -4.5504    0.0000 C   0  0  0  0  0  0  0  0  0  0  0  0
    3.0587   -3.8002    0.0000 C   0  0  0  0  0  0  0  0  0  0  0  0
    3.0589   -2.3002    0.0000 C   0  0  0  0  0  0  0  0  0  0  0  0
   -2.1300   -2.3000    0.0000 C   0  0  0  0  0  0  0  0  0  0  0  0
    0.4600    2.2000    0.0000 C   0  0  0  0  0  0  0  0  0  0  0  0
   -3.4300   -1.5500    0.0000 C   0  0  0  0  0  0  0  0  0  0  0  0
    1.7600    2.9500    0.0000 C   0  0  0  0  0  0  0  0  0  0  0  0
   -4.9072   -0.3103    0.0000 C   0  0  0  0  0  0  0  0  0  0  0  0
    3.5727    3.6096    0.0000 C   0  0  0  0  0  0  0  0  0  0  0  0
   -5.8713    0.8389    0.0000 C   0  0  0  0  0  0  0  0  0  0  0  0
    5.0499    3.8704    0.0000 C   0  0  0  0  0  0  0  0  0  0  0  0
    0.4600   -2.3000    0.0000 C   0  0  0  0  0  0  0  0  0  0  0  0
   -8.3126    1.7277    0.0000 C   0  0  0  0  0  0  0  0  0  0  0  0
    7.0398    5.5409    0.0000 C   0  0  0  0  0  0  0  0  0  0  0  0
    1.7600   -1.5500    0.0000 C   0  0  0  0  0  0  0  0  0  0  0  0
   -0.8300   -1.5500    0.0000 C   0  0  0  0  0  0  0  0  0  0  0  0
    0.4600    0.7000    0.0000 C   0  0  0  0  0  0  0  0  0  0  0  0
    1.7600   -0.0500    0.0000 C   0  0  0  0  0  0  0  0  0  0  0  0
   -0.8300   -0.0500    0.0000 C   0  0  0  0  0  0  0  0  0  0  0  0
   -3.4300   -0.0500    0.0000 C   0  0  0  0  0  0  0  0  0  0  0  0
    3.0600    2.2000    0.0000 C   0  0  0  0  0  0  0  0  0  0  0  0
   -7.7994    3.1372    0.0000 O   0  0  0  0  0  0  0  0  0  0  0  0
    8.0042    4.3920    0.0000 O   0  0  0  0  0  0  0  0  0  0  0  0
   -7.3485    0.5785    0.0000 O   0  0  0  0  0  0  0  0  0  0  0  0
    5.5626    5.2801    0.0000 O   0  0  0  0  0  0  0  0  0  0  0  0
    3.0600    0.7000    0.0000 O   0  0  0  0  0  0  0  0  0  0  0  0
   -2.1300    0.7000    0.0000 O   0  0  0  0  0  0  0  0  0  0  0  0
  6  1  1  0
  7  6  1  0
  8  7  1  0
  9  8  1  0
 10  9  1  0
 13 11  1  0
 14 12  1  0
 17 15  1  0
 18 16  1  0
 20  2  1  0
 21  3  1  0
 22 10  1  0
 22 19  1  0
 23 11  1  0
 23 19  2  0
 24 12  1  0
 25 22  2  0
 25 24  1  0
 26 23  1  0
 26 24  2  0
 27  4  1  0
 27 13  1  0
 27 15  1  0
 28  5  1  0
 28 14  1  0
 28 16  1  0
 29 20  2  0
 30 21  2  0
 31 17  1  0
 31 20  1  0
 32 18  1  0
 32 21  1  0
 33 25  1  0
 33 28  1  0
 34 26  1  0
 34 27  1  0
M  END
>  <NAME>  (1336) 
2,8-DIACETOXYETHYL-2,8-DIMETHYL-6-HEXYL-3,4,9,10-TETRAHYDRO-2H,8H-BENZO(1,2-B:3,4-B')DIPYRAN

>  <SYNONYMS>  (1336) 


>  <SPECTRUM TYPE>  (1336) 
MS1

>  <INSTRUMENT TYPE>  (1336) 
EI-B

>  <INSTRUMENT>  (1336) 
JEOL JMS-D-300

>  <ION MODE>  (1336) 
P

>  <INCHIKEY>  (1336) 
GILZWGRFJQKHAM-UHFFFAOYSA-N

>  <FORMULA>  (1336) 
C28H42O6

>  <EXACT MASS>  (1336) 
474.29813906399994

>  <MW>  (1336) 
474

>  <ID>  (1336) 
JP010099

>  <CONTRIBUTOR>  (1336) 
University of Tokyo Team, {Faculty of Engineering, University of Tokyo

>  <COMMENT>  (1336) 
SMILES=C(COC(C)=O)C(O1)(CCc(c3)c1c(c2c(CCCCCC)3)CCC(CCOC(C)=O)(O2)C)C
InChI=InChI=1S/C28H42O6/c1-6-7-8-9-10-22-19-23-11-13-27(4,15-17-31-20(2)29)34-26(23)24-12-14-28(5,33-25(22)24)16-18-32-21(3)30/h19H,6-18H2,1-5H3
computed SMILES=O=C(OCCC1(OC=2C(=CC(=C3OC(C)(CCOC(=O)C)CCC32)CCCCCC)CC1)C)C
accession=JP010099
date=2016.01.19 (Created 2008.10.21, modified 2011.05.06)
author=KURARAY CO., LTD.
license=CC BY-NC-SA
exact mass=474.29814
ionization energy=70 eV
ion type=[M]+*
computed spectral entropy=4.215158714253245
computed normalized entropy=0.8687412248018651
SPLASH=splash10-0103-6394600000-7cae41088b39c3793430
submitter=submitter = University of Tokyo Team (Faculty of Engineering, University of Tokyo)
MoNA Rating=3.75

>  <NUM PEAKS>  (1336) 
128

>  <MASS SPECTRAL PEAKS>  (1336) 
26 2.14
27 3.75
28 19.87
29 4.93
32 1.69
39 3.73
41 12.65
42 4.02
43 49.67
44 3.92
45 1.89
53 3.28
55 12.31
57 1.64
60 1.78
65 2.43
67 7.4
68 13.15
69 7.69
77 2.09
79 4.58
81 14.85
91 1.35
93 5.39
94 1.35
95 4.76
97 2.19
105 3.62
107 2.41
115 2
117 1.62
119 2.35
121 3.37
123 2.16
128 1.75
129 1.78
131 2.19
133 2.3
135 2.58
137 1.69
141 1.51
142 1.61
143 1.56
145 2.68
147 5.95
148 2.22
149 8.35
150 1.7
155 1.31
157 1.61
159 3.51
161 8.77
163 2.35
173 5.97
174 1.76
175 5.39
176 1.75
177 1.34
185 2.19
187 6.77
188 2.54
189 4.28
193 1.53
197 1.53
199 2.09
201 6.63
203 7.83
205 5.76
207 3.81
213 2.47
215 28.52
216 8.96
217 7.78
218 2.9
219 33.7
220 5.24
222 1.59
229 2.44
231 4.47
233 2
243 3.54
245 9.2
255 1.94
257 7.65
258 4.03
259 14.96
260 3.26
269 3.91
271 5.02
273 5.15
275 3.2
283 7.5
284 2.22
285 8.94
286 13.53
287 34.57
288 7.18
289 3.26
299 2.47
301 2.79
303 5.61
305 2.74
327 2.57
329 1.73
343 15.87
344 3.76
345 3.87
346 7.12
347 42.52
348 9.8
359 2.24
361 2.72
385 12.2
386 3.06
387 3.2
403 25.2
404 6.14
414 9.42
415 3.45
416 2.05
430 7.09
431 1.97
432 8.11
433 2.47
472 2.91
474 99.99
475 30.76
476 5.39

$$$$

     RDKit          2D

 34 35  0  0  0  0  0  0  0  0999 V2000
   15.2120   12.0923    0.0000 C   0  0  0  0  0  0  0  0  0  0  0  0
   15.6637    9.5338    0.0000 C   0  0  0  0  0  0  0  0  0  0  0  0
   11.6840    6.1929    0.0000 C   0  0  0  0  0  0  0  0  0  0  0  0
    7.7042    2.8520    0.0000 C   0  0  0  0  0  0  0  0  0  0  0  0
   -3.7389    1.4102    0.0000 C   0  0  0  0  0  0  0  0  0  0  0  0
   -1.1400    2.9100    0.0000 C   0  0  0  0  0  0  0  0  0  0  0  0
   -1.1400   -3.0900    0.0000 C   0  0  0  0  0  0  0  0  0  0  0  0
   -6.3370   -1.5906    0.0000 C   0  0  0  0  0  0  0  0  0  0  0  0
    4.2372    0.3997    0.0000 C   0  0  0  0  0  0  0  0  0  0  0  0
   12.7094    9.0122    0.0000 C   0  0  0  0  0  0  0  0  0  0  0  0
    8.7297    5.6713    0.0000 C   0  0  0  0  0  0  0  0  0  0  0  0
    4.7499    2.3304    0.0000 C   0  0  0  0  0  0  0  0  0  0  0  0
   13.2222   10.4218    0.0000 C   0  0  0  0  0  0  0  0  0  0  0  0
   11.2323    8.7514    0.0000 C   0  0  0  0  0  0  0  0  0  0  0  0
    9.2424    7.0810    0.0000 C   0  0  0  0  0  0  0  0  0  0  0  0
    7.2525    5.4105    0.0000 C   0  0  0  0  0  0  0  0  0  0  0  0
    5.2626    3.7401    0.0000 C   0  0  0  0  0  0  0  0  0  0  0  0
    1.4600   -1.5900    0.0000 C   0  0  0  0  0  0  0  0  0  0  0  0
    3.2727    2.0696    0.0000 C   0  0  0  0  0  0  0  0  0  0  0  0
    2.7600   -0.8400    0.0000 C   0  0  0  0  0  0  0  0  0  0  0  0
   14.6993   10.6826    0.0000 C   0  0  0  0  0  0  0  0  0  0  0  0
   10.7195    7.3417    0.0000 C   0  0  0  0  0  0  0  0  0  0  0  0
    6.7398    4.0009    0.0000 C   0  0  0  0  0  0  0  0  0  0  0  0
   -2.4400    0.6600    0.0000 C   0  0  0  0  0  0  0  0  0  0  0  0
   -1.1400    1.4100    0.0000 C   0  0  0  0  0  0  0  0  0  0  0  0
   -1.1400   -1.5900    0.0000 C   0  0  0  0  0  0  0  0  0  0  0  0
   -5.0381   -0.8404    0.0000 C   0  0  0  0  0  0  0  0  0  0  0  0
    0.1600   -0.8400    0.0000 C   0  0  0  0  0  0  0  0  0  0  0  0
   -2.4400   -0.8400    0.0000 C   0  0  0  0  0  0  0  0  0  0  0  0
    0.1600    0.6600    0.0000 C   0  0  0  0  0  0  0  0  0  0  0  0
    2.7600    0.6600    0.0000 C   0  0  0  0  0  0  0  0  0  0  0  0
   -5.0383    0.6596    0.0000 O   0  0  0  0  0  0  0  0  0  0  0  0
   -3.7389   -1.5902    0.0000 O   0  0  0  0  0  0  0  0  0  0  0  0
    1.4600    1.4100    0.0000 O   0  0  0  0  0  0  0  0  0  0  0  0
 13 10  1  0
 14 10  1  0
 15 11  1  0
 16 11  1  0
 17 12  1  0
 19 12  1  0
 20 18  1  0
 21  1  1  0
 21  2  1  0
 21 13  1  0
 22  3  1  0
 22 14  1  0
 22 15  1  0
 23  4  1  0
 23 16  1  0
 23 17  1  0
 24  5  1  0
 25  6  1  0
 25 24  1  0
 26  7  1  0
 27  8  1  0
 28 18  1  0
 28 26  2  0
 29 24  2  0
 29 26  1  0
 30 25  2  0
 30 28  1  0
 31  9  1  0
 31 19  1  0
 31 20  1  0
 32 27  2  0
 33 27  1  0
 33 29  1  0
 34 30  1  0
 34 31  1  0
M  END
>  <NAME>  (1337) 
6-ACETOXY-3,4-DIHYDRO-2,5,7,8-TETRAMETHYL-2-(4,8,12-TRIMETHYLTRIDECAN-1-YL)-2H-1-BENZOPYRANE

>  <SYNONYMS>  (1337) 


>  <SPECTRUM TYPE>  (1337) 
MS1

>  <INSTRUMENT TYPE>  (1337) 
EI-B

>  <INSTRUMENT>  (1337) 
JEOL JMS-D-300

>  <ION MODE>  (1337) 
P

>  <INCHIKEY>  (1337) 
ZAKOWWREFLAJOT-UHFFFAOYSA-N

>  <FORMULA>  (1337) 
C31H52O3

>  <EXACT MASS>  (1337) 
472.39164552399996

>  <MW>  (1337) 
472

>  <ID>  (1337) 
JP010098

>  <CONTRIBUTOR>  (1337) 
University of Tokyo Team, {Faculty of Engineering, University of Tokyo

>  <COMMENT>  (1337) 
SMILES=c(c21)(c(C)c(c(C)c1CCC(C)(O2)CCCC(C)CCCC(C)CCCC(C)C)OC(C)=O)C
InChI=InChI=1S/C31H52O3/c1-21(2)13-10-14-22(3)15-11-16-23(4)17-12-19-31(9)20-18-28-26(7)29(33-27(8)32)24(5)25(6)30(28)34-31/h21-23H,10-20H2,1-9H3
computed SMILES=O=C(OC=1C(=C(C=2OC(C)(CCC2C1C)CCCC(C)CCCC(C)CCCC(C)C)C)C)C
accession=JP010098
date=2016.01.19 (Created 2008.10.21, modified 2011.05.06)
author=KURARAY CO., LTD.
license=CC BY-NC-SA
exact mass=472.39165
ionization energy=70 eV
ion type=[M]+*
computed spectral entropy=3.321361879075216
computed normalized entropy=0.877694354771587
SPLASH=splash10-001i-7781900000-34720c5a64f531f3bbd6
submitter=submitter = University of Tokyo Team (Faculty of Engineering, University of Tokyo)
MoNA Rating=3.75

>  <NUM PEAKS>  (1337) 
44

>  <MASS SPECTRAL PEAKS>  (1337) 
29 2.31
40 2.6
41 9.79
43 22.29
44 16.18
55 9.43
56 7
57 9.43
67 6.53
69 8.34
71 8.25
81 5.51
83 4.82
85 6.12
91 6.15
95 6.09
97 6.41
121 6.36
135 6.33
136 6.39
149 6.11
164 28.19
165 65.43
166 8.89
177 6.22
189 6.22
203 15.98
204 7.78
205 10.45
207 20.65
208 6.12
245 46.15
246 10.15
247 7.49
279 5.24
281 7.29
283 7.05
323 14.69
325 14.59
430 99.99
431 34.53
432 5.95
472 12.66
473 7.19

$$$$

     RDKit          2D

 34 36  0  0  0  0  0  0  0  0999 V2000
   11.0723    8.8414    0.0000 C   0  0  0  0  0  0  0  0  0  0  0  0
   11.5240    6.2829    0.0000 C   0  0  0  0  0  0  0  0  0  0  0  0
   -3.8989    1.5002    0.0000 C   0  0  0  0  0  0  0  0  0  0  0  0
   -1.3000    3.0000    0.0000 C   0  0  0  0  0  0  0  0  0  0  0  0
   -1.3000   -3.0000    0.0000 C   0  0  0  0  0  0  0  0  0  0  0  0
    4.0772    0.4897    0.0000 C   0  0  0  0  0  0  0  0  0  0  0  0
   -7.7963   -3.7527    0.0000 C   0  0  0  0  0  0  0  0  0  0  0  0
   -6.4970   -3.0015    0.0000 C   0  0  0  0  0  0  0  0  0  0  0  0
    1.3000   -1.5000    0.0000 C   0  0  0  0  0  0  0  0  0  0  0  0
    2.6000   -0.7500    0.0000 C   0  0  0  0  0  0  0  0  0  0  0  0
    3.1127    2.1596    0.0000 C   0  0  0  0  0  0  0  0  0  0  0  0
   -9.0956   -3.0031    0.0000 C   0  0  0  0  0  0  0  0  0  0  0  0
    4.5899    2.4204    0.0000 C   0  0  0  0  0  0  0  0  0  0  0  0
    8.5697    5.7613    0.0000 C   0  0  0  0  0  0  0  0  0  0  0  0
   -7.7963   -0.7510    0.0000 C   0  0  0  0  0  0  0  0  0  0  0  0
    6.5798    4.0909    0.0000 C   0  0  0  0  0  0  0  0  0  0  0  0
   10.5595    7.4317    0.0000 C   0  0  0  0  0  0  0  0  0  0  0  0
   -2.6000    0.7500    0.0000 C   0  0  0  0  0  0  0  0  0  0  0  0
   -1.3000    1.5000    0.0000 C   0  0  0  0  0  0  0  0  0  0  0  0
   -1.3000   -1.5000    0.0000 C   0  0  0  0  0  0  0  0  0  0  0  0
    7.0925    5.5005    0.0000 C   0  0  0  0  0  0  0  0  0  0  0  0
   -6.4970   -1.5006    0.0000 C   0  0  0  0  0  0  0  0  0  0  0  0
    0.0000   -0.7500    0.0000 C   0  0  0  0  0  0  0  0  0  0  0  0
   -2.6000   -0.7500    0.0000 C   0  0  0  0  0  0  0  0  0  0  0  0
    0.0000    0.7500    0.0000 C   0  0  0  0  0  0  0  0  0  0  0  0
   -3.8989   -1.5002    0.0000 C   0  0  0  0  0  0  0  0  0  0  0  0
    2.6000    0.7500    0.0000 C   0  0  0  0  0  0  0  0  0  0  0  0
   -9.0956   -1.5023    0.0000 N   0  0  0  0  0  0  0  0  0  0  0  0
    9.0824    7.1710    0.0000 N   0  0  0  0  0  0  0  0  0  0  0  0
    6.1281    6.6494    0.0000 O   0  0  0  0  0  0  0  0  0  0  0  0
   -3.8987   -3.0002    0.0000 O   0  0  0  0  0  0  0  0  0  0  0  0
    5.1026    3.8301    0.0000 O   0  0  0  0  0  0  0  0  0  0  0  0
   -5.1981   -0.7504    0.0000 O   0  0  0  0  0  0  0  0  0  0  0  0
    1.3000    1.5000    0.0000 O   0  0  0  0  0  0  0  0  0  0  0  0
  8  7  2  0
 10  9  1  0
 12  7  1  0
 13 11  1  0
 17  1  1  0
 17  2  1  0
 18  3  1  0
 19  4  1  0
 19 18  1  0
 20  5  1  0
 21 14  1  0
 21 16  1  0
 22  8  1  0
 22 15  2  0
 23  9  1  0
 23 20  2  0
 24 18  2  0
 24 20  1  0
 25 19  2  0
 25 23  1  0
 26 24  1  0
 27  6  1  0
 27 10  1  0
 27 11  1  0
 28 12  2  0
 28 15  1  0
 29 14  1  0
 29 17  1  0
 30 21  1  0
 31 26  2  0
 32 13  1  0
 32 16  1  0
 33 22  1  0
 33 26  1  0
 34 25  1  0
 34 27  1  0
M  END
>  <NAME>  (1338) 
2-(3-(1-METHYLETHYLAMINO)-2-HYDROXYPROPYLOXYETHYL)-2,5,7,8-TETRAMETHYL-6-(3-PYRIDINECARBOXY)-3,4-DIHYDRO-2HBENZOPYRAN

>  <SYNONYMS>  (1338) 


>  <SPECTRUM TYPE>  (1338) 
MS1

>  <INSTRUMENT TYPE>  (1338) 
EI-B

>  <INSTRUMENT>  (1338) 
JEOL JMS-D-300

>  <ION MODE>  (1338) 
P

>  <INCHIKEY>  (1338) 
PSRVQJBDDHENFU-UHFFFAOYSA-N

>  <FORMULA>  (1338) 
C27H38N2O5

>  <EXACT MASS>  (1338) 
470.27807231599996

>  <MW>  (1338) 
470

>  <ID>  (1338) 
JP010097

>  <CONTRIBUTOR>  (1338) 
University of Tokyo Team, {Faculty of Engineering, University of Tokyo

>  <COMMENT>  (1338) 
SMILES=C(C1)C(Oc(c2C)c1c(c(C(=O)Oc(c3)cncc3)c2C)C)(C)CCOCC(O)CNC(C)C
InChI=InChI=1S/C27H38N2O5/c1-17(2)29-14-21(30)16-32-13-11-27(6)10-9-23-20(5)24(18(3)19(4)25(23)34-27)26(31)33-22-8-7-12-28-15-22/h7-8,12,15,17,21,29-30H,9-11,13-14,16H2,1-6H3
computed SMILES=O=C(OC=1C=NC=CC1)C=2C(=C(C=3OC(C)(CCOCC(O)CNC(C)C)CCC3C2C)C)C
accession=JP010097
date=2016.01.19 (Created 2008.10.21, modified 2011.05.06)
author=KURARAY CO., LTD.
license=CC BY-NC-SA
exact mass=470.27807
ionization energy=70 eV
ion type=[M]+*
computed spectral entropy=3.876688103078788
computed normalized entropy=0.8263484611242982
SPLASH=splash10-00di-4960300000-d6323853595c6e79b67b
submitter=submitter = University of Tokyo Team (Faculty of Engineering, University of Tokyo)
MoNA Rating=3.75

>  <NUM PEAKS>  (1338) 
109

>  <MASS SPECTRAL PEAKS>  (1338) 
27 1.82
28 4.88
29 1.42
30 13.95
39 1.16
41 9.09
42 2.04
43 12.38
44 2.16
51 3.49
53 1.68
55 4.07
56 6.61
57 2.49
58 7.74
67 1.59
69 6.42
70 2.6
72 40.48
73 1.64
74 1.42
77 1.59
78 21.14
79 10.9
80 1.78
81 4.39
84 1.68
91 2.42
93 3.35
98 9.44
100 7.54
105 2.16
106 96.32
108 16.12
114 2.45
116 3.22
119 1.64
121 5.85
122 2.39
123 2.39
124 5.58
130 1.82
135 5.54
136 5.41
137 2.56
138 1.59
144 13.23
145 1.76
149 2.49
151 1.51
152 1.53
161 2.14
162 4.5
163 2.78
164 42.98
165 34.17
166 4.01
173 1.37
174 1.81
175 3.3
176 2.91
177 17.4
178 3.3
179 8.1
180 1.92
184 2
187 1.76
188 2.09
189 8.81
190 4.17
191 2.31
197 1.98
203 16.47
204 8.59
205 8.6
207 9.14
214 2.04
215 2.08
216 1.49
217 5.27
219 1.97
221 30.5
222 4.5
231 27.76
232 60.78
233 15.31
234 1.76
237 2.45
239 22.29
240 3.51
250 3.3
251 2.99
270 4.59
289 1.98
292 2.17
307 13.53
308 3.59
310 1.53
337 6.86
338 2.3
354 2.91
355 1.67
364 1.43
398 2.44
452 2.25
455 2.25
470 99.99
471 31.95
472 6.02

$$$$

     RDKit          2D

 32 31  0  0  0  0  0  0  0  0999 V2000
    5.8457   10.1250    0.0000 C   0  0  0  0  0  0  0  0  0  0  0  0
    4.5466   12.3750    0.0000 C   0  0  0  0  0  0  0  0  0  0  0  0
   -0.6495   12.3750    0.0000 C   0  0  0  0  0  0  0  0  0  0  0  0
   -5.8457   12.3750    0.0000 C   0  0  0  0  0  0  0  0  0  0  0  0
  -17.5370   10.1250    0.0000 C   0  0  0  0  0  0  0  0  0  0  0  0
  -14.9389    8.6250    0.0000 C   0  0  0  0  0  0  0  0  0  0  0  0
  -12.4572   14.5827    0.0000 C   0  0  0  0  0  0  0  0  0  0  0  0
  -10.0776   12.0241    0.0000 C   0  0  0  0  0  0  0  0  0  0  0  0
    1.9486   10.8750    0.0000 C   0  0  0  0  0  0  0  0  0  0  0  0
   -3.2476   10.8750    0.0000 C   0  0  0  0  0  0  0  0  0  0  0  0
   -8.4437   10.8750    0.0000 C   0  0  0  0  0  0  0  0  0  0  0  0
    3.2476   10.1250    0.0000 C   0  0  0  0  0  0  0  0  0  0  0  0
    0.6495   10.1250    0.0000 C   0  0  0  0  0  0  0  0  0  0  0  0
   -1.9486   10.1250    0.0000 C   0  0  0  0  0  0  0  0  0  0  0  0
   -4.5466   10.1250    0.0000 C   0  0  0  0  0  0  0  0  0  0  0  0
   -7.1447   10.1250    0.0000 C   0  0  0  0  0  0  0  0  0  0  0  0
   -9.7428   10.1250    0.0000 C   0  0  0  0  0  0  0  0  0  0  0  0
  -13.6399   10.8750    0.0000 C   0  0  0  0  0  0  0  0  0  0  0  0
    4.5466   10.8750    0.0000 C   0  0  0  0  0  0  0  0  0  0  0  0
   -0.6495   10.8750    0.0000 C   0  0  0  0  0  0  0  0  0  0  0  0
   -5.8457   10.8750    0.0000 C   0  0  0  0  0  0  0  0  0  0  0  0
  -16.2380   10.8750    0.0000 C   0  0  0  0  0  0  0  0  0  0  0  0
  -13.6399    7.8750    0.0000 C   0  0  0  0  0  0  0  0  0  0  0  0
  -11.4930   13.4336    0.0000 C   0  0  0  0  0  0  0  0  0  0  0  0
  -12.3409   10.1250    0.0000 C   0  0  0  0  0  0  0  0  0  0  0  0
  -11.0418   10.8750    0.0000 C   0  0  0  0  0  0  0  0  0  0  0  0
  -16.2380   12.3750    0.0000 O   0  0  0  0  0  0  0  0  0  0  0  0
  -13.6399    6.3750    0.0000 O   0  0  0  0  0  0  0  0  0  0  0  0
  -10.0158   13.6941    0.0000 O   0  0  0  0  0  0  0  0  0  0  0  0
  -14.9389   10.1250    0.0000 O   0  0  0  0  0  0  0  0  0  0  0  0
  -12.3409    8.6250    0.0000 O   0  0  0  0  0  0  0  0  0  0  0  0
  -12.0060   12.0241    0.0000 O   0  0  0  0  0  0  0  0  0  0  0  0
 12  9  1  0
 13  9  1  0
 14 10  1  0
 15 10  1  0
 16 11  1  0
 17 11  1  0
 19  1  1  0
 19  2  1  0
 19 12  1  0
 20  3  1  0
 20 13  1  0
 20 14  1  0
 21  4  1  0
 21 15  1  0
 21 16  1  0
 22  5  1  0
 23  6  1  0
 24  7  1  0
 25 18  1  0
 26  8  1  0
 26 17  1  0
 26 25  1  0
 27 22  2  0
 28 23  2  0
 29 24  2  0
 30 18  1  0
 30 22  1  0
 31 23  1  0
 31 25  1  0
 32 24  1  0
 32 26  1  0
M  END
>  <NAME>  (1339) 
3,7,11,15-TETRAMETHYLHEXADECANE-1,2,3-TRIOL TRIACETATE

>  <SYNONYMS>  (1339) 


>  <SPECTRUM TYPE>  (1339) 
MS1

>  <INSTRUMENT TYPE>  (1339) 
EI-B

>  <INSTRUMENT>  (1339) 
JEOL JMS-D-300

>  <ION MODE>  (1339) 
P

>  <INCHIKEY>  (1339) 
CAXLGZQZIAMUFU-UHFFFAOYSA-N

>  <FORMULA>  (1339) 
C26H48O6

>  <EXACT MASS>  (1339) 
456.345089256

>  <MW>  (1339) 
456

>  <ID>  (1339) 
JP010096

>  <CONTRIBUTOR>  (1339) 
University of Tokyo Team, {Faculty of Engineering, University of Tokyo

>  <COMMENT>  (1339) 
SMILES=C(C(C)(CCCC(C)CCCC(C)CCCC(C)C)OC(C)=O)(COC(C)=O)OC(C)=O
InChI=InChI=1S/C26H48O6/c1-19(2)12-9-13-20(3)14-10-15-21(4)16-11-17-26(8,32-24(7)29)25(31-23(6)28)18-30-22(5)27/h19-21,25H,9-18H2,1-8H3
computed SMILES=O=C(OCC(OC(=O)C)C(OC(=O)C)(C)CCCC(C)CCCC(C)CCCC(C)C)C
accession=JP010096
date=2016.01.19 (Created 2008.10.21, modified 2011.05.06)
author=KURARAY CO., LTD.
license=CC BY-NC-SA
exact mass=456.34509
ionization energy=70 eV
ion type=[M]+*
computed spectral entropy=3.6101826550588716
computed normalized entropy=0.8387843996037856
SPLASH=splash10-052f-9200000000-203a1369a83e2071a85b
submitter=submitter = University of Tokyo Team (Faculty of Engineering, University of Tokyo)
MoNA Rating=3.75

>  <NUM PEAKS>  (1339) 
74

>  <MASS SPECTRAL PEAKS>  (1339) 
27 2.12
28 1.43
29 7.33
39 1.36
41 22.74
42 3.78
43 99.99
44 2.75
55 31.89
56 13.25
57 61.47
58 3.56
67 4.9
68 5.54
69 36.73
70 13.8
71 49.3
72 3.98
73 1.32
79 1.93
80 3.17
81 15.74
82 6.62
83 30.45
84 13.37
85 27.01
86 8.12
87 70.89
88 7.72
93 46.45
94 3.34
95 15.86
96 4.82
97 28.2
98 9.32
99 10.1
101 2.15
103 1.46
107 1.72
109 12.83
110 4.04
111 27.15
112 4.7
113 6.93
121 5.04
122 1.2
123 8.8
124 2.22
125 12.35
126 5.83
127 6.73
129 3.97
130 15.43
131 1.31
135 2.05
137 6
138 1.93
139 6.95
140 4.09
141 4.09
149 2.08
151 2.67
153 3.34
155 2.44
163 1.38
165 1.32
167 1.38
169 1.45
263 2.46
269 10.3
281 8.41
282 4.59
294 2.1
312 1.32

$$$$

     RDKit          2D

 32 31  0  0  0  0  0  0  0  0999 V2000
  -18.1865   11.2500    0.0000 C   0  0  0  0  0  0  0  0  0  0  0  0
  -19.4856   13.5000    0.0000 C   0  0  0  0  0  0  0  0  0  0  0  0
    7.7942   17.2500    0.0000 C   0  0  0  0  0  0  0  0  0  0  0  0
    6.4952   19.5000    0.0000 C   0  0  0  0  0  0  0  0  0  0  0  0
  -16.8875   18.0000    0.0000 C   0  0  0  0  0  0  0  0  0  0  0  0
    1.2990   19.5000    0.0000 C   0  0  0  0  0  0  0  0  0  0  0  0
  -11.3565   16.1009    0.0000 C   0  0  0  0  0  0  0  0  0  0  0  0
   -2.9329   19.1491    0.0000 C   0  0  0  0  0  0  0  0  0  0  0  0
   -7.7942   17.2500    0.0000 C   0  0  0  0  0  0  0  0  0  0  0  0
   -6.4952   18.0000    0.0000 C   0  0  0  0  0  0  0  0  0  0  0  0
  -16.8875   15.0000    0.0000 C   0  0  0  0  0  0  0  0  0  0  0  0
    3.8971   18.0000    0.0000 C   0  0  0  0  0  0  0  0  0  0  0  0
  -12.9904   17.2500    0.0000 C   0  0  0  0  0  0  0  0  0  0  0  0
   -1.2990   18.0000    0.0000 C   0  0  0  0  0  0  0  0  0  0  0  0
  -16.8875   13.5000    0.0000 C   0  0  0  0  0  0  0  0  0  0  0  0
    5.1962   17.2500    0.0000 C   0  0  0  0  0  0  0  0  0  0  0  0
  -15.5885   15.7500    0.0000 C   0  0  0  0  0  0  0  0  0  0  0  0
    2.5981   17.2500    0.0000 C   0  0  0  0  0  0  0  0  0  0  0  0
  -14.2894   18.0000    0.0000 C   0  0  0  0  0  0  0  0  0  0  0  0
    0.0000   17.2500    0.0000 C   0  0  0  0  0  0  0  0  0  0  0  0
   -9.0933   18.0000    0.0000 C   0  0  0  0  0  0  0  0  0  0  0  0
   -5.1962   17.2500    0.0000 C   0  0  0  0  0  0  0  0  0  0  0  0
  -11.6913   18.0000    0.0000 C   0  0  0  0  0  0  0  0  0  0  0  0
   -2.5981   17.2500    0.0000 C   0  0  0  0  0  0  0  0  0  0  0  0
  -18.1865   12.7500    0.0000 C   0  0  0  0  0  0  0  0  0  0  0  0
    6.4952   18.0000    0.0000 C   0  0  0  0  0  0  0  0  0  0  0  0
  -15.5885   17.2500    0.0000 C   0  0  0  0  0  0  0  0  0  0  0  0
    1.2990   18.0000    0.0000 C   0  0  0  0  0  0  0  0  0  0  0  0
  -10.3923   17.2500    0.0000 C   0  0  0  0  0  0  0  0  0  0  0  0
   -3.8971   18.0000    0.0000 C   0  0  0  0  0  0  0  0  0  0  0  0
   -9.4281   16.1009    0.0000 O   0  0  0  0  0  0  0  0  0  0  0  0
   -4.8613   19.1491    0.0000 O   0  0  0  0  0  0  0  0  0  0  0  0
 10  9  1  0
 15 11  1  0
 16 12  1  0
 17 11  1  0
 18 12  1  0
 19 13  1  0
 20 14  1  0
 21  9  1  0
 22 10  1  0
 23 13  1  0
 24 14  1  0
 25  1  1  0
 25  2  1  0
 25 15  2  0
 26  3  1  0
 26  4  1  0
 26 16  2  0
 27  5  1  0
 27 17  1  0
 19 27  2  0
 28  6  1  0
 28 18  1  0
 20 28  2  0
 29  7  1  0
 29 21  1  0
 29 23  1  0
 30  8  1  0
 30 22  1  0
 30 24  1  0
 31 29  1  0
 32 30  1  0
M  END
>  <NAME>  (1340) 
2,6,10,15,19,23-PENTAMETHYL-2,6,18,22-TETRACOSATETRAEN-10,15-DIOL

>  <SYNONYMS>  (1340) 


>  <SPECTRUM TYPE>  (1340) 
MS1

>  <INSTRUMENT TYPE>  (1340) 
EI-B

>  <INSTRUMENT>  (1340) 
JEOL JMS-D-300

>  <ION MODE>  (1340) 
P

>  <INCHIKEY>  (1340) 
UJLSKUQXMLFRSK-RIRMOVKSSA-N

>  <FORMULA>  (1340) 
C30H54O2

>  <EXACT MASS>  (1340) 
446.412380968

>  <MW>  (1340) 
446

>  <ID>  (1340) 
JP010095

>  <CONTRIBUTOR>  (1340) 
University of Tokyo Team, {Faculty of Engineering, University of Tokyo

>  <COMMENT>  (1340) 
SMILES=C(C)(O)(CCC=C(C)CCC=C(C)C)CCCCC(C)(O)CCC=C(C)CCC=C(C)C
InChI=InChI=1S/C30H54O2/c1-25(2)15-11-17-27(5)19-13-23-29(7,31)21-9-10-22-30(8,32)24-14-20-28(6)18-12-16-26(3)4/h15-16,19-20,31-32H,9-14,17-18,21-24H2,1-8H3/b27-19-,28-20+
computed SMILES=OC(C)(CCC=C(C)CCC=C(C)C)CCCCC(O)(C)CCC=C(C)CCC=C(C)C
accession=JP010095
date=2016.01.19 (Created 2008.10.21, modified 2011.05.06)
author=KURARAY CO., LTD.
license=CC BY-NC-SA
exact mass=446.41238
ionization energy=70 eV
ion type=[M]+*
computed spectral entropy=3.3354919426384253
computed normalized entropy=0.8361758040900905
SPLASH=splash10-0159-9400000000-9a0030372ba943705e1f
submitter=submitter = University of Tokyo Team (Faculty of Engineering, University of Tokyo)
MoNA Rating=3.75

>  <NUM PEAKS>  (1340) 
54

>  <MASS SPECTRAL PEAKS>  (1340) 
41 30.82
43 6.74
53 4.19
55 12.53
57 4.23
67 9.59
68 5.34
69 99.99
70 6.27
77 2.41
79 7.08
80 3.95
81 67.92
82 6.99
83 6.94
91 4.86
93 15.05
94 6.8
95 24.23
96 3.25
97 3.25
105 5.65
107 13.49
108 4.98
109 17.84
110 2.65
111 2.54
119 5.19
120 2.42
121 13.38
122 5.95
123 14.07
133 4.3
134 4.11
135 10.5
136 7.16
137 17.08
147 5.1
148 2.71
149 9.26
150 3.13
161 3.92
163 3.37
175 4.42
177 6.36
189 2.46
191 2.94
203 2.84
217 1.6
231 2.77
273 1.17
342 2.13
411 4.59
412 1.15

$$$$

     RDKit          2D

 34 34  0  0  0  0  0  0  0  0999 V2000
   -3.8978    0.1988    0.0000 C   0  0  0  0  0  0  0  0  0  0  0  0
   -2.5984   -2.0510    0.0000 C   0  0  0  0  0  0  0  0  0  0  0  0
    2.5977   -2.0502    0.0000 C   0  0  0  0  0  0  0  0  0  0  0  0
    9.0925    0.2009    0.0000 C   0  0  0  0  0  0  0  0  0  0  0  0
    3.8957    4.7000    0.0000 C   0  0  0  0  0  0  0  0  0  0  0  0
   15.5888    6.9515    0.0000 C   0  0  0  0  0  0  0  0  0  0  0  0
   16.3390    5.6526    0.0000 H   0  0  0  0  0  0  0  0  0  0  0  0
   16.8877    7.7017    0.0000 H   0  0  0  0  0  0  0  0  0  0  0  0
   14.8386    8.2504    0.0000 H   0  0  0  0  0  0  0  0  0  0  0  0
   -0.0006   -0.5506    0.0000 C   0  0  0  0  0  0  0  0  0  0  0  0
    7.7929    3.9507    0.0000 C   0  0  0  0  0  0  0  0  0  0  0  0
   -1.2998    0.1992    0.0000 C   0  0  0  0  0  0  0  0  0  0  0  0
    1.2983    0.1996    0.0000 C   0  0  0  0  0  0  0  0  0  0  0  0
    6.4937    4.7005    0.0000 C   0  0  0  0  0  0  0  0  0  0  0  0
    9.0918    4.7009    0.0000 C   0  0  0  0  0  0  0  0  0  0  0  0
    3.8964    0.2000    0.0000 C   0  0  0  0  0  0  0  0  0  0  0  0
    6.4945    0.2005    0.0000 C   0  0  0  0  0  0  0  0  0  0  0  0
    3.8962    1.7000    0.0000 C   0  0  0  0  0  0  0  0  0  0  0  0
    6.4942    1.7005    0.0000 C   0  0  0  0  0  0  0  0  0  0  0  0
   14.2899    4.7013    0.0000 C   0  0  0  0  0  0  0  0  0  0  0  0
   12.9899    6.9513    0.0000 C   0  0  0  0  0  0  0  0  0  0  0  0
   12.9899    3.9513    0.0000 C   0  0  0  0  0  0  0  0  0  0  0  0
   11.6899    6.2013    0.0000 C   0  0  0  0  0  0  0  0  0  0  0  0
    7.7939   -2.0493    0.0000 C   0  0  0  0  0  0  0  0  0  0  0  0
   -2.5987   -0.5510    0.0000 C   0  0  0  0  0  0  0  0  0  0  0  0
    2.5975   -0.5502    0.0000 C   0  0  0  0  0  0  0  0  0  0  0  0
    7.7936   -0.5493    0.0000 C   0  0  0  0  0  0  0  0  0  0  0  0
    5.1948    3.9502    0.0000 C   0  0  0  0  0  0  0  0  0  0  0  0
    5.1951    2.4502    0.0000 C   0  0  0  0  0  0  0  0  0  0  0  0
   10.3910    3.9511    0.0000 C   0  0  0  0  0  0  0  0  0  0  0  0
   14.2899    6.2013    0.0000 N   0  0  0  0  0  0  0  0  0  0  0  0
   11.6899    4.7013    0.0000 N   0  0  0  0  0  0  0  0  0  0  0  0
    9.0930   -2.7991    0.0000 O   0  0  0  0  0  0  0  0  0  0  0  0
   10.3912    2.4511    0.0000 O   0  0  0  0  0  0  0  0  0  0  0  0
  6  7  1  0
  6  8  1  0
  6  9  1  0
 12 10  1  0
 13 10  1  0
 14 11  1  0
 15 11  1  0
 18 16  1  0
 19 17  1  0
 22 20  1  0
 23 21  1  0
 25  1  1  0
 25  2  1  0
 25 12  2  0
 26  3  1  0
 26 13  1  0
 16 26  2  0
 27  4  1  0
 27 17  1  0
 27 24  1  0
 28  5  1  0
 14 28  2  0
 29 18  1  0
 29 19  1  0
 29 28  1  0
 30 15  1  0
 31  6  1  0
 31 20  1  0
 31 21  1  0
 32 22  1  0
 32 23  1  0
 32 30  1  0
 33 24  1  0
 34 30  2  0
M  ISO  3   7   2   8   2   9   2
M  END
>  <NAME>  (1341) 
1-TRIDEUTERIOMETHYL-4(6-(3,7-DIMETHYL-2,6-OCTADIENYL-10-HYDROXY-5,9-DIMETHYL-1-OXO-DECA-4-EN-1-YL)-PIPERADINE

>  <SYNONYMS>  (1341) 


>  <SPECTRUM TYPE>  (1341) 
MS1

>  <INSTRUMENT TYPE>  (1341) 
EI-B

>  <INSTRUMENT>  (1341) 
JEOL JMS-D-300

>  <ION MODE>  (1341) 
P

>  <INCHIKEY>  (1341) 
GTWPATCKPNRMQH-PUXXHZLSSA-N

>  <FORMULA>  (1341) 
C27H48N2O2

>  <EXACT MASS>  (1341) 
435.390409014

>  <MW>  (1341) 
435

>  <ID>  (1341) 
JP010094

>  <CONTRIBUTOR>  (1341) 
University of Tokyo Team, {Faculty of Engineering, University of Tokyo

>  <COMMENT>  (1341) 
SMILES=OCC(C)CCC(CC=C(C)CCC=C(C)C)C(C)=CCCC(=O)N(C1)CCN(C1)C([2H])([2H])[2H]
InChI=InChI=1S/C27H48N2O2/c1-22(2)9-7-10-23(3)13-15-26(16-14-24(4)21-30)25(5)11-8-12-27(31)29-19-17-28(6)18-20-29/h9,11,13,24,26,30H,7-8,10,12,14-21H2,1-6H3/b23-13-,25-11-/i6D3
computed SMILES=[H]C([H])([H])N1CCN(C(=O)CCC=C(C)C(CC=C(C)CCC=C(C)C)CCC(C)CO)CC1
accession=JP010094
date=2016.01.19 (Created 2008.10.21, modified 2011.05.06)
author=KURARAY CO., LTD.
license=CC BY-NC-SA
exact mass=432.37158
ionization energy=70 eV
ion type=[M]+*
computed spectral entropy=3.5261072543171292
computed normalized entropy=0.9262988940555856
SPLASH=splash10-0udi-9521100000-d2911f01d260b9dcf280
submitter=submitter = University of Tokyo Team (Faculty of Engineering, University of Tokyo)
MoNA Rating=3.75

>  <NUM PEAKS>  (1341) 
45

>  <MASS SPECTRAL PEAKS>  (1341) 
29 2.13
32 5.82
41 28.41
43 16.6
45 14.56
46 11.99
47 17.64
55 16.35
56 21.52
57 15.17
60 29.1
61 39.71
67 13.42
69 47.67
72 12.68
73 40.6
74 12.13
81 17.6
85 23.25
93 12.27
95 10.82
96 5.06
100 16.12
101 52.64
102 35.15
103 12.89
104 99.99
105 12.26
130 23.06
145 11.73
147 7.56
212 49.27
213 18.48
214 9.92
282 4.61
298 37.01
299 10.82
341 7.82
355 5.06
366 31.9
367 10.83
429 4.36
433 8.26
435 37.81
436 14.14

$$$$

     RDKit          2D

 31 31  0  0  0  0  0  0  0  0999 V2000
   -3.5738    8.0627    0.0000 C   0  0  0  0  0  0  0  0  0  0  0  0
   -2.2751   10.3129    0.0000 C   0  0  0  0  0  0  0  0  0  0  0  0
    2.9210   10.3137    0.0000 C   0  0  0  0  0  0  0  0  0  0  0  0
    6.8192    3.5643    0.0000 C   0  0  0  0  0  0  0  0  0  0  0  0
    8.1172   10.3145    0.0000 C   0  0  0  0  0  0  0  0  0  0  0  0
   15.9135    1.3137    0.0000 C   0  0  0  0  0  0  0  0  0  0  0  0
    0.3232    8.8133    0.0000 C   0  0  0  0  0  0  0  0  0  0  0  0
    9.4168    6.5647    0.0000 C   0  0  0  0  0  0  0  0  0  0  0  0
   -0.9758    8.0631    0.0000 C   0  0  0  0  0  0  0  0  0  0  0  0
    1.6223    8.0635    0.0000 C   0  0  0  0  0  0  0  0  0  0  0  0
    9.4166    8.0647    0.0000 C   0  0  0  0  0  0  0  0  0  0  0  0
   10.7160    5.8149    0.0000 C   0  0  0  0  0  0  0  0  0  0  0  0
    4.2204    8.0639    0.0000 C   0  0  0  0  0  0  0  0  0  0  0  0
    5.5198    5.8141    0.0000 C   0  0  0  0  0  0  0  0  0  0  0  0
    5.5193    8.8141    0.0000 C   0  0  0  0  0  0  0  0  0  0  0  0
    6.8187    6.5643    0.0000 C   0  0  0  0  0  0  0  0  0  0  0  0
   13.3154    1.3135    0.0000 C   0  0  0  0  0  0  0  0  0  0  0  0
   14.6139    3.5643    0.0000 C   0  0  0  0  0  0  0  0  0  0  0  0
   12.0158    2.0643    0.0000 C   0  0  0  0  0  0  0  0  0  0  0  0
   13.3144    4.3152    0.0000 C   0  0  0  0  0  0  0  0  0  0  0  0
    4.2211    3.5639    0.0000 C   0  0  0  0  0  0  0  0  0  0  0  0
   -2.2749    8.8129    0.0000 C   0  0  0  0  0  0  0  0  0  0  0  0
    2.9212    8.8137    0.0000 C   0  0  0  0  0  0  0  0  0  0  0  0
    5.5200    4.3141    0.0000 C   0  0  0  0  0  0  0  0  0  0  0  0
    8.1174    8.8145    0.0000 C   0  0  0  0  0  0  0  0  0  0  0  0
    6.8185    8.0643    0.0000 C   0  0  0  0  0  0  0  0  0  0  0  0
   10.7162    4.3149    0.0000 C   0  0  0  0  0  0  0  0  0  0  0  0
   14.6144    2.0635    0.0000 N   0  0  0  0  0  0  0  0  0  0  0  0
   12.0154    3.5652    0.0000 N   0  0  0  0  0  0  0  0  0  0  0  0
    4.2214    2.0639    0.0000 O   0  0  0  0  0  0  0  0  0  0  0  0
    9.4173    3.5647    0.0000 O   0  0  0  0  0  0  0  0  0  0  0  0
  9  7  1  0
 10  7  1  0
 11  8  1  0
 12  8  1  0
 15 13  1  0
 16 14  1  0
 19 17  1  0
 20 18  1  0
 22  1  1  0
 22  2  1  0
 22  9  2  0
 23  3  1  0
 23 10  1  0
 13 23  2  0
 24  4  1  0
 24 14  1  0
 24 21  1  0
 25  5  1  0
 11 25  2  0
 26 15  1  0
 26 16  1  0
 26 25  1  0
 27 12  1  0
 28  6  1  0
 28 17  1  0
 28 18  1  0
 29 19  1  0
 29 20  1  0
 29 27  1  0
 30 21  1  0
 31 27  2  0
M  END
>  <NAME>  (1342) 
1-METHYL-4-(6-(3,7-DIMETHYL-2,6-OCTADIENYL)-10-HYDROXY-5,9-DIMETHYL-1-OXO-DECA-4-EN-1-YL)-PIPERADINE

>  <SYNONYMS>  (1342) 
1-METHYL-4-(6-(4-HYDROXY-3-METHYLBUTYL)-5,9,13-TRIMETHYL-1-OXO-TETRADECA-4,8,12-TRIEN-1-YL)-PIPERADINE

>  <SPECTRUM TYPE>  (1342) 
MS1

>  <INSTRUMENT TYPE>  (1342) 
EI-B

>  <INSTRUMENT>  (1342) 
JEOL JMS-D-300

>  <ION MODE>  (1342) 
P

>  <INCHIKEY>  (1342) 
GTWPATCKPNRMQH-LDKJWMHBSA-N

>  <FORMULA>  (1342) 
C27H48N2O2

>  <EXACT MASS>  (1342) 
432.371578776

>  <MW>  (1342) 
432

>  <ID>  (1342) 
JP010092

>  <CONTRIBUTOR>  (1342) 
University of Tokyo Team, {Faculty of Engineering, University of Tokyo

>  <COMMENT>  (1342) 
SMILES=OCC(C)CCC(CC=C(C)CCC=C(C)C)C(C)=CCCC(=O)N(C1)CCN(C)C1
InChI=InChI=1S/C27H48N2O2/c1-22(2)9-7-10-23(3)13-15-26(16-14-24(4)21-30)25(5)11-8-12-27(31)29-19-17-28(6)18-20-29/h9,11,13,24,26,30H,7-8,10,12,14-21H2,1-6H3/b23-13+,25-11-
computed SMILES=O=C(N1CCN(C)CC1)CCC=C(C)C(CC=C(C)CCC=C(C)C)CCC(C)CO
accession=JP010092
date=2016.01.19 (Created 2008.10.21, modified 2011.05.06)
author=KURARAY CO., LTD.
license=CC BY-NC-SA
exact mass=432.37158
ionization energy=70 eV
ion type=[M]+*
computed spectral entropy=3.843860181275266
computed normalized entropy=0.8521347596222033
SPLASH=splash10-0pba-9320100000-e7650e6098a9b52a4909
submitter=submitter = University of Tokyo Team (Faculty of Engineering, University of Tokyo)
MoNA Rating=3.75

>  <NUM PEAKS>  (1342) 
91

>  <MASS SPECTRAL PEAKS>  (1342) 
27 4.68
29 3.44
30 3.13
31 3.22
39 3.96
41 29.37
42 9.98
43 19.39
44 19.39
53 3.38
55 16.11
56 26.12
57 43.58
58 53.37
59 3.93
67 11.02
68 4.97
69 49
70 66.31
71 11.33
72 7.48
77 4.89
79 6.1
80 4.65
81 20.18
82 3.24
83 21.7
84 3.83
85 8.08
91 3.74
93 8.14
94 3.14
95 7.26
96 1.54
97 11.99
98 66.82
99 48.12
100 11.6
101 99.99
102 5.7
105 2.2
107 3.96
109 5.14
110 2.44
111 4.9
112 3.43
119 4.4
121 3.06
122 2.36
123 4.12
127 16.45
128 2.47
135 3.24
136 2.88
140 4.12
141 3.33
142 10.28
143 2.4
149 5.14
152 4.38
153 2.89
155 9.89
166 8.19
167 2.75
169 2.12
209 63.63
210 18.43
211 6.29
222 3.28
223 4.23
224 4.1
252 2.31
263 1.93
277 11.76
278 3.14
295 19.55
296 5.74
297 2.29
341 1.7
345 2.81
351 2.48
353 41.4
364 10.48
365 1.96
402 1.62
428 1.54
430 5.83
431 2.14
432 51.86
433 16.12
434 3.58

$$$$

     RDKit          2D

 31 33  0  0  0  0  0  0  0  0999 V2000
    5.6560   -8.3006    0.0000 C   0  0  0  0  0  0  0  0  0  0  0  0
   -9.7898    1.4674    0.0000 C   0  0  0  0  0  0  0  0  0  0  0  0
    4.5372    1.9397    0.0000 C   0  0  0  0  0  0  0  0  0  0  0  0
   -3.9427    1.3596    0.0000 C   0  0  0  0  0  0  0  0  0  0  0  0
    5.6563   -6.8006    0.0000 C   0  0  0  0  0  0  0  0  0  0  0  0
    4.3574   -6.0504    0.0000 C   0  0  0  0  0  0  0  0  0  0  0  0
    4.3576   -4.5504    0.0000 C   0  0  0  0  0  0  0  0  0  0  0  0
    3.0587   -3.8002    0.0000 C   0  0  0  0  0  0  0  0  0  0  0  0
    3.0589   -2.3002    0.0000 C   0  0  0  0  0  0  0  0  0  0  0  0
   -2.1300   -2.3000    0.0000 C   0  0  0  0  0  0  0  0  0  0  0  0
    0.4600    2.2000    0.0000 C   0  0  0  0  0  0  0  0  0  0  0  0
   -3.4300   -1.5500    0.0000 C   0  0  0  0  0  0  0  0  0  0  0  0
    1.7600    2.9500    0.0000 C   0  0  0  0  0  0  0  0  0  0  0  0
    3.5727    3.6096    0.0000 C   0  0  0  0  0  0  0  0  0  0  0  0
   -4.9072   -0.3103    0.0000 C   0  0  0  0  0  0  0  0  0  0  0  0
    5.0499    3.8704    0.0000 C   0  0  0  0  0  0  0  0  0  0  0  0
   -5.8713    0.8389    0.0000 C   0  0  0  0  0  0  0  0  0  0  0  0
    0.4600   -2.3000    0.0000 C   0  0  0  0  0  0  0  0  0  0  0  0
   -8.3126    1.7277    0.0000 C   0  0  0  0  0  0  0  0  0  0  0  0
    1.7600   -1.5500    0.0000 C   0  0  0  0  0  0  0  0  0  0  0  0
   -0.8300   -1.5500    0.0000 C   0  0  0  0  0  0  0  0  0  0  0  0
    0.4600    0.7000    0.0000 C   0  0  0  0  0  0  0  0  0  0  0  0
    1.7600   -0.0500    0.0000 C   0  0  0  0  0  0  0  0  0  0  0  0
   -0.8300   -0.0500    0.0000 C   0  0  0  0  0  0  0  0  0  0  0  0
    3.0600    2.2000    0.0000 C   0  0  0  0  0  0  0  0  0  0  0  0
   -3.4300   -0.0500    0.0000 C   0  0  0  0  0  0  0  0  0  0  0  0
    5.5626    5.2801    0.0000 O   0  0  0  0  0  0  0  0  0  0  0  0
   -7.7994    3.1372    0.0000 O   0  0  0  0  0  0  0  0  0  0  0  0
   -7.3485    0.5785    0.0000 O   0  0  0  0  0  0  0  0  0  0  0  0
    3.0600    0.7000    0.0000 O   0  0  0  0  0  0  0  0  0  0  0  0
   -2.1300    0.7000    0.0000 O   0  0  0  0  0  0  0  0  0  0  0  0
  5  1  1  0
  6  5  1  0
  7  6  1  0
  8  7  1  0
  9  8  1  0
 12 10  1  0
 13 11  1  0
 16 14  1  0
 17 15  1  0
 19  2  1  0
 20  9  1  0
 20 18  1  0
 21 10  1  0
 21 18  2  0
 22 11  1  0
 23 20  2  0
 23 22  1  0
 24 21  1  0
 24 22  2  0
 25  3  1  0
 25 13  1  0
 25 14  1  0
 26  4  1  0
 26 12  1  0
 26 15  1  0
 27 16  1  0
 28 19  2  0
 29 17  1  0
 29 19  1  0
 30 23  1  0
 30 25  1  0
 31 24  1  0
 31 26  1  0
M  END
>  <NAME>  (1343) 
2-ACETOXYETHYL-2,8-DIMETHYL-6-HEXYL-8-(2-HYDROXYETHYL)-3,4,9,10-TETRAHYDRO-2H,8H-BENZO(1,2-B:3,4-B')DIPYRAN

>  <SYNONYMS>  (1343) 


>  <SPECTRUM TYPE>  (1343) 
MS1

>  <INSTRUMENT TYPE>  (1343) 
EI-B

>  <INSTRUMENT>  (1343) 
JEOL JMS-D-300

>  <ION MODE>  (1343) 
P

>  <INCHIKEY>  (1343) 
IYYCMEMGCSSERE-UHFFFAOYSA-N

>  <FORMULA>  (1343) 
C26H40O5

>  <EXACT MASS>  (1343) 
432.28757437999997

>  <MW>  (1343) 
432

>  <ID>  (1343) 
JP010090

>  <CONTRIBUTOR>  (1343) 
University of Tokyo Team, {Faculty of Engineering, University of Tokyo

>  <COMMENT>  (1343) 
SMILES=C(C3)C(Oc(c31)c(C2)c(OC(C2)(C)CCO)c(c1)CCCCCC)(C)CCOC(C)=O
InChI=InChI=1S/C26H40O5/c1-5-6-7-8-9-20-18-21-10-12-26(4,15-17-29-19(2)28)31-24(21)22-11-13-25(3,14-16-27)30-23(20)22/h18,27H,5-17H2,1-4H3
computed SMILES=O=C(OCCC1(OC=2C(=CC(=C3OC(C)(CCO)CCC32)CCCCCC)CC1)C)C
accession=JP010090
date=2016.01.19 (Created 2008.10.21, modified 2011.05.06)
author=KURARAY CO., LTD.
license=CC BY-NC-SA
exact mass=432.28757
ionization energy=70 eV
ion type=[M]+*
computed spectral entropy=4.547489975429093
computed normalized entropy=0.9028256436739163
SPLASH=splash10-0006-5497100000-9ab788bf4322360ed523
submitter=submitter = University of Tokyo Team (Faculty of Engineering, University of Tokyo)
MoNA Rating=3.75

>  <NUM PEAKS>  (1343) 
154

>  <MASS SPECTRAL PEAKS>  (1343) 
27 2.53
28 11.23
29 7.3
32 12.47
39 1.7
41 20.85
43 36.4
53 3.8
55 19.13
57 6.33
65 3.09
67 5.14
69 18.39
71 2.1
77 5.9
79 18.25
81 17.45
83 9.64
85 9.89
91 11.2
93 6.27
95 5.35
97 16.14
98 3.13
99 5.61
103 1.32
105 8.21
107 4.84
109 2.64
115 3.82
117 3.28
119 4.84
121 5.67
123 4.18
128 2.97
129 3.45
131 4.27
133 5.17
135 6.53
137 4.95
141 1.57
142 1.74
143 2.36
145 4.04
147 7.96
149 8.01
150 1.44
151 2.54
157 1.66
159 4.66
161 11.73
162 1.41
163 6
165 1.33
169 1.74
171 2.62
173 6.58
175 17.09
176 5.2
177 5.5
185 1.96
187 10.99
188 6.78
189 17.24
190 5.23
191 4.73
193 1.44
197 1.44
199 2.5
201 7.55
203 18.55
204 2.73
205 12.12
207 29.43
208 4.7
213 2.34
215 17.45
216 3.75
217 5.12
219 24.9
220 2.12
221 9.75
222 1.44
227 2.21
229 4.4
231 6.16
232 1.32
233 18.44
234 6.66
235 3.23
241 1.79
243 5.87
245 8.56
247 9.64
248 1.71
255 2.28
257 7.33
258 4.96
259 33.18
260 7.54
261 9.42
262 2.01
269 2.53
271 13.02
272 1.93
273 11.34
274 4.95
275 6.09
276 1.55
277 1.26
283 2.61
285 3.23
287 19.3
288 3.8
289 17.54
290 3.91
292 15.42
293 3.77
299 2.92
301 8.89
302 2.03
303 8.21
304 2.07
305 14.95
306 3.67
313 1.51
315 1.29
317 3.42
319 31.19
320 6.61
327 3.3
329 1.71
331 1.82
332 1.59
343 8.18
344 3.34
345 8.86
346 2.87
347 18.02
348 4.82
357 3.56
361 14.48
362 3.17
372 2.87
373 2.07
375 23.05
376 5.54
390 99.99
391 26.84
392 3.78
430 1.44
432 46.92
433 13.16
434 2.32

$$$$

     RDKit          2D

 27 29  0  0  0  0  0  0  0  0999 V2000
    8.1909    8.1850    0.0000 C   0  0  0  0  0  0  0  0  0  0  0  0
    6.8909    8.9350    0.0000 C   0  0  0  0  0  0  0  0  0  0  0  0
    8.1909    6.6850    0.0000 C   0  0  0  0  0  0  0  0  0  0  0  0
   -7.1774    3.1795    0.0000 C   0  0  0  0  0  0  0  0  0  0  0  0
   -6.4274    1.8805    0.0000 C   0  0  0  0  0  0  0  0  0  0  0  0
    5.5909    8.1850    0.0000 C   0  0  0  0  0  0  0  0  0  0  0  0
    6.8909    5.9350    0.0000 C   0  0  0  0  0  0  0  0  0  0  0  0
   -6.1690    4.2929    0.0000 C   0  0  0  0  0  0  0  0  0  0  0  0
   -4.9590    2.1971    0.0000 C   0  0  0  0  0  0  0  0  0  0  0  0
   -0.9052    8.9358    0.0000 C   0  0  0  0  0  0  0  0  0  0  0  0
   -0.9043    5.9342    0.0000 C   0  0  0  0  0  0  0  0  0  0  0  0
    2.9928    6.6846    0.0000 C   0  0  0  0  0  0  0  0  0  0  0  0
    5.5909    6.6850    0.0000 C   0  0  0  0  0  0  0  0  0  0  0  0
    0.3943    8.1850    0.0000 C   0  0  0  0  0  0  0  0  0  0  0  0
   -2.2043    8.1858    0.0000 C   0  0  0  0  0  0  0  0  0  0  0  0
    0.3948    6.6842    0.0000 C   0  0  0  0  0  0  0  0  0  0  0  0
   -2.2038    6.6850    0.0000 C   0  0  0  0  0  0  0  0  0  0  0  0
   -3.5028    4.4350    0.0000 C   0  0  0  0  0  0  0  0  0  0  0  0
    1.6933    8.9350    0.0000 Cl  0  0  0  0  0  0  0  0  0  0  0  0
   -3.5034    8.9356    0.0000 Cl  0  0  0  0  0  0  0  0  0  0  0  0
   -4.8019    3.6850    0.0000 N   0  0  0  0  0  0  0  0  0  0  0  0
   -2.2038    3.6850    0.0000 O   0  0  0  0  0  0  0  0  0  0  0  0
    3.3280    4.7856    0.0000 O   0  0  0  0  0  0  0  0  0  0  0  0
    5.2564    4.7859    0.0000 O   0  0  0  0  0  0  0  0  0  0  0  0
    1.6939    5.9344    0.0000 O   0  0  0  0  0  0  0  0  0  0  0  0
   -3.5028    5.9350    0.0000 O   0  0  0  0  0  0  0  0  0  0  0  0
    4.2920    5.9348    0.0000 S   0  0  0  0  0  0  0  0  0  0  0  0
  2  1  2  0
  3  1  1  0
  5  4  1  0
  6  2  1  0
  7  3  2  0
  8  4  1  0
  9  5  1  0
 13  6  2  0
 13  7  1  0
 14 10  2  0
 15 10  1  0
 16 11  2  0
 16 14  1  0
 17 11  1  0
 17 15  2  0
 19 14  1  0
 20 15  1  0
 21  8  1  0
 21  9  1  0
 21 18  1  0
 22 18  2  0
 25 12  1  0
 25 16  1  0
 26 17  1  0
 26 18  1  0
 27 12  1  0
 27 13  1  0
 27 23  2  0
 27 24  2  0
M  END
>  <NAME>  (1344) 
2,4-DICHLORO-1-(BENZENESULFONYLMETHOXY)-5-(1-PYRROLIDINCARBONYLOXY)-BENZENE

>  <SYNONYMS>  (1344) 
2,4-DICHLORO-5-(1-PYRROLIDINCARBOXY)-PHENOXYMETHYL PHENYL SULFONE

>  <SPECTRUM TYPE>  (1344) 
MS1

>  <INSTRUMENT TYPE>  (1344) 
EI-B

>  <INSTRUMENT>  (1344) 
JEOL JMS-D-300

>  <ION MODE>  (1344) 
P

>  <INCHIKEY>  (1344) 
GGJJHFOGACSQDE-UHFFFAOYSA-N

>  <FORMULA>  (1344) 
C18H17Cl2NO5S

>  <EXACT MASS>  (1344) 
429.02044900400006

>  <MW>  (1344) 
429

>  <ID>  (1344) 
JP010088

>  <CONTRIBUTOR>  (1344) 
University of Tokyo Team, {Faculty of Engineering, University of Tokyo

>  <COMMENT>  (1344) 
SMILES=O=C(N(C3)CCC3)Oc(c1)c(Cl)cc(Cl)c(OCS(=O)(=O)c(c2)cccc2)1
InChI=InChI=1S/C18H17Cl2NO5S/c19-14-10-15(20)17(26-18(22)21-8-4-5-9-21)11-16(14)25-12-27(23,24)13-6-2-1-3-7-13/h1-3,6-7,10-11H,4-5,8-9,12H2
computed SMILES=O=C(OC=1C=C(OCS(=O)(=O)C=2C=CC=CC2)C(Cl)=CC1Cl)N3CCCC3
accession=JP010088
date=2016.01.19 (Created 2008.10.21, modified 2011.05.06)
author=KURARAY CO., LTD.
license=CC BY-NC-SA
exact mass=429.02045
ionization energy=70 eV
ion type=[M]+*
computed spectral entropy=1.3702735728099587
computed normalized entropy=0.5514386518008084
SPLASH=splash10-0002-9000000000-a16ae61a5d95124d1974
submitter=submitter = University of Tokyo Team (Faculty of Engineering, University of Tokyo)
MoNA Rating=3.75

>  <NUM PEAKS>  (1344) 
12

>  <MASS SPECTRAL PEAKS>  (1344) 
30 2.24
55 20.52
56 6.63
70 1.25
77 2.12
97 2.28
98 99.99
99 8.49
125 5.75
394 1.54
429 3.07
431 2.28

$$$$

     RDKit          2D

 30 29  0  0  0  0  0  0  0  0999 V2000
  -20.1351   12.3750    0.0000 C   0  0  0  0  0  0  0  0  0  0  0  0
  -18.8361   10.1250    0.0000 C   0  0  0  0  0  0  0  0  0  0  0  0
    7.1447   11.6250    0.0000 C   0  0  0  0  0  0  0  0  0  0  0  0
    5.8457   13.8750    0.0000 C   0  0  0  0  0  0  0  0  0  0  0  0
  -13.6399   10.1250    0.0000 C   0  0  0  0  0  0  0  0  0  0  0  0
    0.6495   13.8750    0.0000 C   0  0  0  0  0  0  0  0  0  0  0  0
   -9.4079   10.4759    0.0000 C   0  0  0  0  0  0  0  0  0  0  0  0
   -3.5825   13.5241    0.0000 C   0  0  0  0  0  0  0  0  0  0  0  0
  -16.2380   11.6250    0.0000 C   0  0  0  0  0  0  0  0  0  0  0  0
    3.2476   12.3750    0.0000 C   0  0  0  0  0  0  0  0  0  0  0  0
  -11.0418   11.6250    0.0000 C   0  0  0  0  0  0  0  0  0  0  0  0
   -1.9486   12.3750    0.0000 C   0  0  0  0  0  0  0  0  0  0  0  0
  -17.5370   12.3750    0.0000 C   0  0  0  0  0  0  0  0  0  0  0  0
    4.5466   11.6250    0.0000 C   0  0  0  0  0  0  0  0  0  0  0  0
  -14.9389   12.3750    0.0000 C   0  0  0  0  0  0  0  0  0  0  0  0
    1.9486   11.6250    0.0000 C   0  0  0  0  0  0  0  0  0  0  0  0
  -12.3409   12.3750    0.0000 C   0  0  0  0  0  0  0  0  0  0  0  0
   -0.6495   11.6250    0.0000 C   0  0  0  0  0  0  0  0  0  0  0  0
   -9.7428   12.3750    0.0000 C   0  0  0  0  0  0  0  0  0  0  0  0
   -3.2476   11.6250    0.0000 C   0  0  0  0  0  0  0  0  0  0  0  0
   -7.1447   12.3750    0.0000 C   0  0  0  0  0  0  0  0  0  0  0  0
   -5.8457   11.6250    0.0000 C   0  0  0  0  0  0  0  0  0  0  0  0
  -18.8361   11.6250    0.0000 C   0  0  0  0  0  0  0  0  0  0  0  0
    5.8457   12.3750    0.0000 C   0  0  0  0  0  0  0  0  0  0  0  0
  -13.6399   11.6250    0.0000 C   0  0  0  0  0  0  0  0  0  0  0  0
    0.6495   12.3750    0.0000 C   0  0  0  0  0  0  0  0  0  0  0  0
   -8.4437   11.6250    0.0000 C   0  0  0  0  0  0  0  0  0  0  0  0
   -4.5466   12.3750    0.0000 C   0  0  0  0  0  0  0  0  0  0  0  0
   -7.4796   10.4759    0.0000 O   0  0  0  0  0  0  0  0  0  0  0  0
   -5.5108   13.5241    0.0000 O   0  0  0  0  0  0  0  0  0  0  0  0
 13  9  1  0
 14 10  1  0
 15  9  1  0
 16 10  1  0
 17 11  1  0
 18 12  1  0
 19 11  1  0
 20 12  1  0
 21 22  2  0
 23  1  1  0
 23  2  1  0
 23 13  1  0
 24  3  1  0
 24  4  1  0
 24 14  1  0
 25  5  1  0
 25 15  1  0
 25 17  1  0
 26  6  1  0
 26 16  1  0
 26 18  1  0
 27  7  1  0
 27 19  1  0
 27 21  1  0
 28  8  1  0
 28 20  1  0
 28 22  1  0
 29 27  1  0
 30 28  1  0
M  END
>  <NAME>  (1345) 
2,6,10,13,17,21-HEXAMETHYL-11-HENICOSEN-10,13-DIOL

>  <SYNONYMS>  (1345) 


>  <SPECTRUM TYPE>  (1345) 
MS1

>  <INSTRUMENT TYPE>  (1345) 
EI-B

>  <INSTRUMENT>  (1345) 
JEOL JMS-D-300

>  <ION MODE>  (1345) 
P

>  <INCHIKEY>  (1345) 
GMSBGIXDRWRUNO-QURGRASLSA-N

>  <FORMULA>  (1345) 
C28H56O2

>  <EXACT MASS>  (1345) 
424.42803103200004

>  <MW>  (1345) 
424

>  <ID>  (1345) 
JP010086

>  <CONTRIBUTOR>  (1345) 
University of Tokyo Team, {Faculty of Engineering, University of Tokyo

>  <COMMENT>  (1345) 
SMILES=C(C(C)CCCC(C)C)CCC(C)(O)C=CC(C)(O)CCCC(C)CCCC(C)C
InChI=InChI=1S/C28H56O2/c1-23(2)13-9-15-25(5)17-11-19-27(7,29)21-22-28(8,30)20-12-18-26(6)16-10-14-24(3)4/h21-26,29-30H,9-20H2,1-8H3/b22-21+
computed SMILES=OC(C=CC(O)(C)CCCC(C)CCCC(C)C)(C)CCCC(C)CCCC(C)C
accession=JP010086
date=2016.01.19 (Created 2008.10.21, modified 2011.05.06)
author=KURARAY CO., LTD.
license=CC BY-NC-SA
exact mass=424.42803
ionization energy=70 eV
ion type=[M]+*
computed spectral entropy=3.9089756061943675
computed normalized entropy=0.8544748782081943
SPLASH=splash10-066u-9320000000-6a9d026381a66db7528b
submitter=submitter = University of Tokyo Team (Faculty of Engineering, University of Tokyo)
MoNA Rating=3.75

>  <NUM PEAKS>  (1345) 
97

>  <MASS SPECTRAL PEAKS>  (1345) 
27 4.81
29 12.15
39 3.25
41 32.07
42 5.79
43 99.99
45 3.66
53 3.08
55 73.01
56 28.25
57 84.3
58 21.55
59 6.59
67 16.03
68 22.34
69 83.22
70 32.43
71 58.29
72 4.59
79 4.12
80 1.81
81 42.48
82 23.28
83 77.03
84 12.42
85 30.81
86 2.38
93 4.73
94 3
95 49.05
96 13.11
97 41.41
98 7.9
99 12.78
107 6.72
108 4.09
109 41.02
110 10.49
111 31.98
112 7.08
113 17.53
121 5.73
122 1.51
123 41.06
124 10.68
125 20.37
126 18.28
127 6.66
129 8.17
135 4.61
137 14.06
138 6.45
139 11.52
140 4.83
141 2.26
143 3.01
149 3.17
151 4.67
163 2.08
165 4.21
166 1.31
177 3.85
179 3.08
180 7.98
181 1.78
182 1.44
183 8.12
193 17.24
194 3.04
195 1.29
196 9.4
197 2.45
198 1.47
199 22.27
200 2.37
207 1.45
208 2.45
211 13.99
212 1.39
223 1.34
225 52.89
226 8.94
233 22.09
234 4.46
239 1.66
249 1.75
251 52.12
252 10.11
253 1.97
265 1.53
267 1.55
269 90.55
270 16.75
362 1.64
388 1.55
391 3.22
409 1.74

$$$$

     RDKit          2D

 29 28  0  0  0  0  0  0  0  0999 V2000
    5.8457   12.3750    0.0000 C   0  0  0  0  0  0  0  0  0  0  0  0
  -20.1351   12.3750    0.0000 C   0  0  0  0  0  0  0  0  0  0  0  0
  -18.8361   14.6250    0.0000 C   0  0  0  0  0  0  0  0  0  0  0  0
  -17.5370    7.8750    0.0000 C   0  0  0  0  0  0  0  0  0  0  0  0
  -14.9389    7.8750    0.0000 C   0  0  0  0  0  0  0  0  0  0  0  0
  -13.6399   14.6250    0.0000 C   0  0  0  0  0  0  0  0  0  0  0  0
    4.5466   13.1250    0.0000 C   0  0  0  0  0  0  0  0  0  0  0  0
    3.2476   12.3750    0.0000 C   0  0  0  0  0  0  0  0  0  0  0  0
    1.9486   13.1250    0.0000 C   0  0  0  0  0  0  0  0  0  0  0  0
    0.6495   12.3750    0.0000 C   0  0  0  0  0  0  0  0  0  0  0  0
   -0.6495   13.1250    0.0000 C   0  0  0  0  0  0  0  0  0  0  0  0
   -1.9486   12.3750    0.0000 C   0  0  0  0  0  0  0  0  0  0  0  0
   -3.2476   13.1250    0.0000 C   0  0  0  0  0  0  0  0  0  0  0  0
   -4.5466   12.3750    0.0000 C   0  0  0  0  0  0  0  0  0  0  0  0
   -5.8457   13.1250    0.0000 C   0  0  0  0  0  0  0  0  0  0  0  0
   -7.1447   12.3750    0.0000 C   0  0  0  0  0  0  0  0  0  0  0  0
   -8.4437   13.1250    0.0000 C   0  0  0  0  0  0  0  0  0  0  0  0
   -9.7428   12.3750    0.0000 C   0  0  0  0  0  0  0  0  0  0  0  0
  -17.5370   12.3750    0.0000 C   0  0  0  0  0  0  0  0  0  0  0  0
  -16.2380   10.1250    0.0000 C   0  0  0  0  0  0  0  0  0  0  0  0
  -16.2380   13.1250    0.0000 C   0  0  0  0  0  0  0  0  0  0  0  0
  -14.9389   10.8750    0.0000 C   0  0  0  0  0  0  0  0  0  0  0  0
  -18.8361   13.1250    0.0000 C   0  0  0  0  0  0  0  0  0  0  0  0
  -16.2380    8.6250    0.0000 C   0  0  0  0  0  0  0  0  0  0  0  0
  -13.6399   13.1250    0.0000 C   0  0  0  0  0  0  0  0  0  0  0  0
  -14.9389   12.3750    0.0000 C   0  0  0  0  0  0  0  0  0  0  0  0
  -11.0418   13.1250    0.0000 C   0  0  0  0  0  0  0  0  0  0  0  0
  -11.0418   14.6250    0.0000 O   0  0  0  0  0  0  0  0  0  0  0  0
  -12.3409   12.3750    0.0000 O   0  0  0  0  0  0  0  0  0  0  0  0
  7  1  1  0
  8  7  1  0
  9  8  1  0
 10  9  1  0
 11 10  1  0
 12 11  1  0
 13 12  1  0
 14 13  1  0
 15 14  1  0
 16 15  1  0
 17 16  1  0
 18 17  1  0
 21 19  1  0
 22 20  1  0
 23  2  1  0
 23  3  1  0
 23 19  1  0
 24  4  1  0
 24  5  1  0
 24 20  1  0
 25  6  1  0
 26 21  1  0
 26 22  1  0
 26 25  1  0
 27 18  1  0
 28 27  2  0
 29 25  1  0
 29 27  1  0
M  END
>  <NAME>  (1346) 
1,5-DIMETHYL-2-ISOPENTYLHEXYL TETRADECANOATE

>  <SYNONYMS>  (1346) 
1,5-DIMETHYL-2-(3-METHYLBUTYL)HEXYL TETRADECANOATE

>  <SPECTRUM TYPE>  (1346) 
MS1

>  <INSTRUMENT TYPE>  (1346) 
EI-B

>  <INSTRUMENT>  (1346) 
JEOL JMS-D-300

>  <ION MODE>  (1346) 
P

>  <INCHIKEY>  (1346) 
JHAGSLRTFDBCLA-UHFFFAOYSA-N

>  <FORMULA>  (1346) 
C27H54O2

>  <EXACT MASS>  (1346) 
410.412380968

>  <MW>  (1346) 
410

>  <ID>  (1346) 
JP010081

>  <CONTRIBUTOR>  (1346) 
University of Tokyo Team, {Faculty of Engineering, University of Tokyo

>  <COMMENT>  (1346) 
SMILES=CCCCCCCCCCCCCC(=O)OC(C)C(CCC(C)C)CCC(C)C
InChI=InChI=1S/C27H54O2/c1-7-8-9-10-11-12-13-14-15-16-17-18-27(28)29-25(6)26(21-19-23(2)3)22-20-24(4)5/h23-26H,7-22H2,1-6H3
computed SMILES=O=C(OC(C)C(CCC(C)C)CCC(C)C)CCCCCCCCCCCCC
accession=JP010081
author=KURARAY CO., LTD.
date=2016.01.19 (Created 2008.10.21, modified 2011.05.06)
license=CC BY-NC-SA
exact mass=410.41238
ionization energy=70 eV
ion type=[M]+*
computed spectral entropy=3.3084552434623187
computed normalized entropy=0.8183065274941024
SPLASH=splash10-08mi-9230000000-083ba974a5e5551ae737
submitter=submitter = University of Tokyo Team (Faculty of Engineering, University of Tokyo)
MoNA Rating=3.75

>  <NUM PEAKS>  (1346) 
57

>  <MASS SPECTRAL PEAKS>  (1346) 
26 3.26
29 7.72
32 1.47
39 1.62
41 17.92
42 3.81
43 36.55
44 1.32
45 3.41
53 1.26
54 1.83
55 19.29
56 14.28
57 59.34
58 2.56
60 1.66
67 2.94
68 2.94
69 22.59
70 28.47
71 40.98
72 2.58
73 1.39
81 3.73
82 2.05
83 10.02
84 4.01
85 23.38
86 1.58
95 5.09
96 1.94
97 6.88
98 6.24
99 8.61
109 3.13
110 2.71
111 6.41
112 7.8
113 8.72
123 1.6
125 2.2
126 31.31
127 10.44
128 2.24
129 1.83
182 22.29
183 8.21
211 99.99
212 18.1
213 1.62
228 3.73
229 3.92
296 9.25
297 2.24
366 2.75
367 0.85
395 0.36

$$$$

     RDKit          2D

 30 33  0  0  0  0  0  0  0  0999 V2000
   -3.7389    1.4102    0.0000 C   0  0  0  0  0  0  0  0  0  0  0  0
   -1.1400    2.9100    0.0000 C   0  0  0  0  0  0  0  0  0  0  0  0
   -1.1400   -3.0900    0.0000 C   0  0  0  0  0  0  0  0  0  0  0  0
    4.2372    0.3997    0.0000 C   0  0  0  0  0  0  0  0  0  0  0  0
   11.2342    8.7525    0.0000 C   0  0  0  0  0  0  0  0  0  0  0  0
   10.2696    9.9023    0.0000 C   0  0  0  0  0  0  0  0  0  0  0  0
   10.7216    7.3419    0.0000 C   0  0  0  0  0  0  0  0  0  0  0  0
    8.7924    9.6415    0.0000 C   0  0  0  0  0  0  0  0  0  0  0  0
    9.2445    7.0811    0.0000 C   0  0  0  0  0  0  0  0  0  0  0  0
    1.4600   -1.5900    0.0000 C   0  0  0  0  0  0  0  0  0  0  0  0
    2.7600   -0.8400    0.0000 C   0  0  0  0  0  0  0  0  0  0  0  0
    3.2727    2.0696    0.0000 C   0  0  0  0  0  0  0  0  0  0  0  0
    4.7499    2.3304    0.0000 C   0  0  0  0  0  0  0  0  0  0  0  0
    4.2984    4.8891    0.0000 C   0  0  0  0  0  0  0  0  0  0  0  0
    6.7405    4.0013    0.0000 C   0  0  0  0  0  0  0  0  0  0  0  0
    4.8121    6.2993    0.0000 C   0  0  0  0  0  0  0  0  0  0  0  0
    7.2542    5.4114    0.0000 C   0  0  0  0  0  0  0  0  0  0  0  0
    6.8027    7.9701    0.0000 C   0  0  0  0  0  0  0  0  0  0  0  0
   -2.4400    0.6600    0.0000 C   0  0  0  0  0  0  0  0  0  0  0  0
   -1.1400    1.4100    0.0000 C   0  0  0  0  0  0  0  0  0  0  0  0
   -1.1400   -1.5900    0.0000 C   0  0  0  0  0  0  0  0  0  0  0  0
    8.2799    8.2309    0.0000 C   0  0  0  0  0  0  0  0  0  0  0  0
    0.1600   -0.8400    0.0000 C   0  0  0  0  0  0  0  0  0  0  0  0
   -2.4400   -0.8400    0.0000 C   0  0  0  0  0  0  0  0  0  0  0  0
    0.1600    0.6600    0.0000 C   0  0  0  0  0  0  0  0  0  0  0  0
    2.7600    0.6600    0.0000 C   0  0  0  0  0  0  0  0  0  0  0  0
    5.2626    3.7401    0.0000 N   0  0  0  0  0  0  0  0  0  0  0  0
    6.2900    6.5605    0.0000 N   0  0  0  0  0  0  0  0  0  0  0  0
   -3.7389   -1.5902    0.0000 O   0  0  0  0  0  0  0  0  0  0  0  0
    1.4600    1.4100    0.0000 O   0  0  0  0  0  0  0  0  0  0  0  0
  6  5  2  0
  7  5  1  0
  8  6  1  0
  9  7  2  0
 11 10  1  0
 13 12  1  0
 16 14  1  0
 17 15  1  0
 19  1  1  0
 20  2  1  0
 20 19  1  0
 21  3  1  0
 22  8  2  0
 22  9  1  0
 22 18  1  0
 23 10  1  0
 23 21  2  0
 24 19  2  0
 24 21  1  0
 25 20  2  0
 25 23  1  0
 26  4  1  0
 26 11  1  0
 26 12  1  0
 27 13  1  0
 27 14  1  0
 27 15  1  0
 28 16  1  0
 28 17  1  0
 28 18  1  0
 29 24  1  0
 30 25  1  0
 30 26  1  0
M  END
>  <NAME>  (1347) 
3,4-DIHYDRO-2-(4-BENZYL-1-PIPERADYL)-ETHYL-6-HYDROXY-2,5,7,8-TETRAMETHYL-2H-1-BENZOPYRAN

>  <SYNONYMS>  (1347) 


>  <SPECTRUM TYPE>  (1347) 
MS1

>  <INSTRUMENT TYPE>  (1347) 
EI-B

>  <INSTRUMENT>  (1347) 
JEOL JMS-D-300

>  <ION MODE>  (1347) 
P

>  <INCHIKEY>  (1347) 
BXQIFMPEGGKVBU-UHFFFAOYSA-N

>  <FORMULA>  (1347) 
C26H36N2O2

>  <EXACT MASS>  (1347) 
408.277678392

>  <MW>  (1347) 
408

>  <ID>  (1347) 
JP010080

>  <CONTRIBUTOR>  (1347) 
University of Tokyo Team, {Faculty of Engineering, University of Tokyo

>  <COMMENT>  (1347) 
SMILES=C(C3)C(Oc(c4C)c3c(c(c4C)O)C)(C)CCN(C2)CCN(C2)Cc(c1)cccc1
InChI=InChI=1S/C26H36N2O2/c1-19-20(2)25-23(21(3)24(19)29)10-11-26(4,30-25)12-13-27-14-16-28(17-15-27)18-22-8-6-5-7-9-22/h5-9,29H,10-18H2,1-4H3
computed SMILES=OC=1C(=C(C=2OC(C)(CCC2C1C)CCN3CCN(CC=4C=CC=CC4)CC3)C)C
accession=JP010080
date=2016.01.19 (Created 2008.10.21, modified 2011.05.06)
author=KURARAY CO., LTD.
license=CC BY-NC-SA
exact mass=408.27768
ionization energy=70 eV
ion type=[M]+*
computed spectral entropy=2.491467101814046
computed normalized entropy=0.7740177743315281
SPLASH=splash10-000l-6920100000-947e673e34ad234d7d0b
submitter=submitter = University of Tokyo Team (Faculty of Engineering, University of Tokyo)
MoNA Rating=3.75

>  <NUM PEAKS>  (1347) 
25

>  <MASS SPECTRAL PEAKS>  (1347) 
42 6.72
43 4.95
44 4.74
56 3.94
58 3.27
70 13.51
91 36.56
92 2.77
97 6.28
98 4.95
99 3.03
146 5.64
161 4.79
165 5.73
175 2.48
189 99.99
190 14.89
203 6.98
205 9.74
220 3.39
245 3.66
262 4.56
277 3.08
408 19.03
409 5.17

$$$$

     RDKit          2D

 29 31  0  0  0  0  0  0  0  0999 V2000
   -3.7389    1.4102    0.0000 C   0  0  0  0  0  0  0  0  0  0  0  0
   -1.1400    2.9100    0.0000 C   0  0  0  0  0  0  0  0  0  0  0  0
   -1.1400   -3.0900    0.0000 C   0  0  0  0  0  0  0  0  0  0  0  0
    4.2372    0.3997    0.0000 C   0  0  0  0  0  0  0  0  0  0  0  0
   -5.0381   -0.8404    0.0000 C   0  0  0  0  0  0  0  0  0  0  0  0
    9.6516    4.5344    0.0000 C   0  0  0  0  0  0  0  0  0  0  0  0
    9.1615    3.1433    0.0000 C   0  0  0  0  0  0  0  0  0  0  0  0
    8.6858    5.6587    0.0000 C   0  0  0  0  0  0  0  0  0  0  0  0
    7.6918    2.8432    0.0000 C   0  0  0  0  0  0  0  0  0  0  0  0
    1.4600   -1.5900    0.0000 C   0  0  0  0  0  0  0  0  0  0  0  0
    2.7600   -0.8400    0.0000 C   0  0  0  0  0  0  0  0  0  0  0  0
    3.2727    2.0696    0.0000 C   0  0  0  0  0  0  0  0  0  0  0  0
   -2.4400    0.6600    0.0000 C   0  0  0  0  0  0  0  0  0  0  0  0
   -1.1400    1.4100    0.0000 C   0  0  0  0  0  0  0  0  0  0  0  0
   -1.1400   -1.5900    0.0000 C   0  0  0  0  0  0  0  0  0  0  0  0
    0.1600   -0.8400    0.0000 C   0  0  0  0  0  0  0  0  0  0  0  0
    7.2299    5.3920    0.0000 C   0  0  0  0  0  0  0  0  0  0  0  0
    6.7398    4.0009    0.0000 C   0  0  0  0  0  0  0  0  0  0  0  0
    4.7499    2.3304    0.0000 C   0  0  0  0  0  0  0  0  0  0  0  0
   -2.4400   -0.8400    0.0000 C   0  0  0  0  0  0  0  0  0  0  0  0
    0.1600    0.6600    0.0000 C   0  0  0  0  0  0  0  0  0  0  0  0
    6.2559    6.5328    0.0000 C   0  0  0  0  0  0  0  0  0  0  0  0
    2.7600    0.6600    0.0000 C   0  0  0  0  0  0  0  0  0  0  0  0
    5.2626    3.7401    0.0000 N   0  0  0  0  0  0  0  0  0  0  0  0
    5.7143    1.1816    0.0000 O   0  0  0  0  0  0  0  0  0  0  0  0
    4.7810    6.2598    0.0000 O   0  0  0  0  0  0  0  0  0  0  0  0
    6.7569    7.9467    0.0000 O   0  0  0  0  0  0  0  0  0  0  0  0
   -3.7389   -1.5902    0.0000 O   0  0  0  0  0  0  0  0  0  0  0  0
    1.4600    1.4100    0.0000 O   0  0  0  0  0  0  0  0  0  0  0  0
  7  6  2  0
  8  6  1  0
  9  7  1  0
 11 10  1  0
 13  1  1  0
 14  2  1  0
 14 13  1  0
 15  3  1  0
 16 10  1  0
 16 15  2  0
 17  8  2  0
 18  9  2  0
 18 17  1  0
 19 12  1  0
 20 13  2  0
 20 15  1  0
 21 14  2  0
 21 16  1  0
 22 17  1  0
 23  4  1  0
 23 11  1  0
 23 12  1  0
 24 18  1  0
 24 19  2  3
 25 19  1  0
 26 22  2  0
 27 22  1  0
 28  5  1  0
 28 20  1  0
 29 21  1  0
 29 23  1  0
M  END
>  <NAME>  (1348) 
2-(N-(2-CARBOXYPHENYL)ACETAMIDE-1-XY)-3,4-DIHYDRO-6-METHOXY-2,5,7,8-TETRAMETHYL-2H-1-BENZOPYRAN

>  <SYNONYMS>  (1348) 
N-(2-CARBOXYPHENYL)-1-(3,4-DIHYDRO-6-METHOXY-2,5,7,8-TETRAMETHYL-2H-1-BENZOPYRAN-2-YL)-ACETAMIDE

>  <SPECTRUM TYPE>  (1348) 
MS1

>  <INSTRUMENT TYPE>  (1348) 
EI-B

>  <INSTRUMENT>  (1348) 
JEOL JMS-D-300

>  <ION MODE>  (1348) 
P

>  <INCHIKEY>  (1348) 
MLTDEXJIUPNCJM-UHFFFAOYSA-N

>  <FORMULA>  (1348) 
C23H27NO5

>  <EXACT MASS>  (1348) 
397.188922964

>  <MW>  (1348) 
397

>  <ID>  (1348) 
JP010079

>  <CONTRIBUTOR>  (1348) 
University of Tokyo Team, {Faculty of Engineering, University of Tokyo

>  <COMMENT>  (1348) 
SMILES=COc(c(C)1)c(C)c(C2)c(OC(C)(CC(=O)Nc(c3)c(ccc3)C(O)=O)C2)c(C)1
InChI=InChI=1S/C23H27NO5/c1-13-14(2)21-16(15(3)20(13)28-5)10-11-23(4,29-21)12-19(25)24-18-9-7-6-8-17(18)22(26)27/h6-9H,10-12H2,1-5H3,(H,24,25)(H,26,27)
computed SMILES=O=C(O)C=1C=CC=CC1N=C(O)CC2(OC=3C(=C(C(OC)=C(C3CC2)C)C)C)C
accession=JP010079
date=2016.01.19 (Created 2008.10.21, modified 2011.05.06)
author=KURARAY CO., LTD.
license=CC BY-NC-SA
exact mass=397.18892
ionization energy=70 eV
ion type=[M]+*
computed spectral entropy=2.380271047254794
computed normalized entropy=0.6217012252538271
SPLASH=splash10-0002-0039000000-95eaa530d7ef873c4a0a
submitter=submitter = University of Tokyo Team (Faculty of Engineering, University of Tokyo)
MoNA Rating=3.75

>  <NUM PEAKS>  (1348) 
46

>  <MASS SPECTRAL PEAKS>  (1348) 
58 2.1
61 1.4
99 1.2
101 0.22
173 0.8
199 6.5
241 1.2
242 0.09
245 0.9
256 3.6
258 2
277 0.16
278 37.4
279 15.4
286 1.1
292 1.47
293 3.4
306 1.6
310 4.5
312 0.1
314 3.4
328 1.8
330 1.1
342 0.14
348 2
351 1.9
359 1.2
360 0.2
361 1.2
363 2.9
381 1.6
383 0.26
391 1.1
395 1.7
396 1.1
397 99.99
398 32
399 9.1
403 1.1
411 0.19
413 3.9
414 1.1
415 1
416 0.12
427 1.8
430 1.1

$$$$

     RDKit          2D

 28 28  0  0  0  0  0  0  0  0999 V2000
    9.0942    0.7512    0.0000 C   0  0  0  0  0  0  0  0  0  0  0  0
   10.3922    7.5015    0.0000 C   0  0  0  0  0  0  0  0  0  0  0  0
   16.1379    3.9533    0.0000 C   0  0  0  0  0  0  0  0  0  0  0  0
   18.1869    4.5027    0.0000 C   0  0  0  0  0  0  0  0  0  0  0  0
   17.6375    6.5517    0.0000 C   0  0  0  0  0  0  0  0  0  0  0  0
   -2.5989   -1.5002    0.0000 C   0  0  0  0  0  0  0  0  0  0  0  0
    9.0937    3.7512    0.0000 C   0  0  0  0  0  0  0  0  0  0  0  0
    5.1970    1.5006    0.0000 C   0  0  0  0  0  0  0  0  0  0  0  0
    7.7948    3.0010    0.0000 C   0  0  0  0  0  0  0  0  0  0  0  0
    9.0935    5.2512    0.0000 C   0  0  0  0  0  0  0  0  0  0  0  0
    6.4962    0.7508    0.0000 C   0  0  0  0  0  0  0  0  0  0  0  0
    3.8981    0.7504    0.0000 C   0  0  0  0  0  0  0  0  0  0  0  0
   11.6916    5.2517    0.0000 C   0  0  0  0  0  0  0  0  0  0  0  0
   12.9905    6.0019    0.0000 C   0  0  0  0  0  0  0  0  0  0  0  0
   -1.3000    0.7500    0.0000 C   0  0  0  0  0  0  0  0  0  0  0  0
   -0.0000   -1.5000    0.0000 C   0  0  0  0  0  0  0  0  0  0  0  0
   -0.0000    1.5000    0.0000 C   0  0  0  0  0  0  0  0  0  0  0  0
    1.3000   -0.7500    0.0000 C   0  0  0  0  0  0  0  0  0  0  0  0
    7.7951    1.5010    0.0000 C   0  0  0  0  0  0  0  0  0  0  0  0
   10.3924    6.0015    0.0000 C   0  0  0  0  0  0  0  0  0  0  0  0
    2.5989    1.5002    0.0000 C   0  0  0  0  0  0  0  0  0  0  0  0
   14.2897    5.2521    0.0000 C   0  0  0  0  0  0  0  0  0  0  0  0
   16.8877    5.2525    0.0000 C   0  0  0  0  0  0  0  0  0  0  0  0
   -1.3000   -0.7500    0.0000 N   0  0  0  0  0  0  0  0  0  0  0  0
    1.3000    0.7500    0.0000 N   0  0  0  0  0  0  0  0  0  0  0  0
    2.5987    3.0002    0.0000 O   0  0  0  0  0  0  0  0  0  0  0  0
   14.2899    3.7521    0.0000 O   0  0  0  0  0  0  0  0  0  0  0  0
   15.5886    6.0023    0.0000 O   0  0  0  0  0  0  0  0  0  0  0  0
  9  7  1  0
 10  7  1  0
 11  8  1  0
 12  8  1  0
 14 13  1  0
 17 15  1  0
 18 16  1  0
 19  1  1  0
 19  9  1  0
 11 19  2  0
 20  2  1  0
 10 20  2  0
 20 13  1  0
 21 12  1  0
 22 14  1  0
 23  3  1  0
 23  4  1  0
 23  5  1  0
 24  6  1  0
 24 15  1  0
 24 16  1  0
 25 17  1  0
 25 18  1  0
 25 21  1  0
 26 21  2  0
 27 22  2  0
 28 22  1  0
 28 23  1  0
M  END
>  <NAME>  (1349) 
1-METHYL-4-(11-(1,1-DIMETHYLETHOXYCARBONYL)-5,9-DIMETHYL-UNDECA-4,8-DIENOYL)-PIPERADINE

>  <SYNONYMS>  (1349) 


>  <SPECTRUM TYPE>  (1349) 
MS1

>  <INSTRUMENT TYPE>  (1349) 
EI-B

>  <INSTRUMENT>  (1349) 
JEOL JMS-D-300

>  <ION MODE>  (1349) 
P

>  <INCHIKEY>  (1349) 
SWODQJWXQSPCDE-GDHXLXJCSA-N

>  <FORMULA>  (1349) 
C23H40N2O3

>  <EXACT MASS>  (1349) 
392.30389313999996

>  <MW>  (1349) 
392

>  <ID>  (1349) 
JP010078

>  <CONTRIBUTOR>  (1349) 
University of Tokyo Team, {Faculty of Engineering, University of Tokyo

>  <COMMENT>  (1349) 
SMILES=CC(CCC=C(C)CCC(=O)OC(C)(C)C)=CCCC(=O)N(C1)CCN(C)C1
InChI=InChI=1S/C23H40N2O3/c1-19(11-8-12-21(26)25-17-15-24(6)16-18-25)9-7-10-20(2)13-14-22(27)28-23(3,4)5/h10-11H,7-9,12-18H2,1-6H3/b19-11-,20-10-
computed SMILES=O=C(OC(C)(C)C)CCC(=CCCC(=CCCC(=O)N1CCN(C)CC1)C)C
accession=JP010078
date=2016.01.19 (Created 2008.10.21, modified 2011.05.06)
author=KURARAY CO., LTD.
license=CC BY-NC-SA
exact mass=392.30389
ionization energy=70 eV
ion type=[M]+*
computed spectral entropy=3.212280067596688
computed normalized entropy=0.7845651529272626
SPLASH=splash10-056r-9100000000-8f637d883903689156f9
submitter=submitter = University of Tokyo Team (Faculty of Engineering, University of Tokyo)
MoNA Rating=3.75

>  <NUM PEAKS>  (1349) 
60

>  <MASS SPECTRAL PEAKS>  (1349) 
27 2.3
28 99.99
29 4.1
32 3.01
39 8
40 2.4
41 29.8
42 0.44
43 7.4
44 7.1
53 2.1
55 1.05
56 26.8
57 22.1
58 19.2
59 0.1
67 2.8
69 4.5
70 26.5
71 0.51
72 1
73 1.9
77 1.2
79 0.15
81 7.8
82 1.3
83 11.8
84 0.19
85 4.7
93 1.3
95 1.8
97 0.55
98 25.8
99 19.6
100 4.5
101 3.5
102 2
105 3.4
109 1.7
111 0.22
127 12.1
135 1.6
142 3.2
149 0.13
152 2.3
155 4
166 9.1
209 5.5
210 12.1
219 1.1
220 1.2
277 2
278 3.7
319 9.3
320 2
335 1.48
337 2.9
389 1.1
391 5
392 1.3

$$$$

     RDKit          2D

 29 32  0  0  0  0  0  0  0  0999 V2000
   -8.7626    4.4258    0.0000 C   0  0  0  0  0  0  0  0  0  0  0  0
    4.1000   -0.0000    0.0000 C   0  0  0  0  0  0  0  0  0  0  0  0
   -9.9190    2.5105    0.0000 C   0  0  0  0  0  0  0  0  0  0  0  0
   -9.5043    0.5477    0.0000 C   0  0  0  0  0  0  0  0  0  0  0  0
    3.0195    1.9591    0.0000 C   0  0  0  0  0  0  0  0  0  0  0  0
    1.1124    2.5814    0.0000 C   0  0  0  0  0  0  0  0  0  0  0  0
   -5.0332    3.1291    0.0000 C   0  0  0  0  0  0  0  0  0  0  0  0
   -6.5257    4.4697    0.0000 C   0  0  0  0  0  0  0  0  0  0  0  0
    1.1124   -2.5814    0.0000 C   0  0  0  0  0  0  0  0  0  0  0  0
    3.0195   -1.9591    0.0000 C   0  0  0  0  0  0  0  0  0  0  0  0
   -6.2071   -1.5004    0.0000 C   0  0  0  0  0  0  0  0  0  0  0  0
   -2.3100    0.7500    0.0000 C   0  0  0  0  0  0  0  0  0  0  0  0
   -7.5066   -0.7496    0.0000 C   0  0  0  0  0  0  0  0  0  0  0  0
   -1.0100    1.5000    0.0000 C   0  0  0  0  0  0  0  0  0  0  0  0
   -3.6089   -1.5002    0.0000 C   0  0  0  0  0  0  0  0  0  0  0  0
   -4.9086    0.7504    0.0000 C   0  0  0  0  0  0  0  0  0  0  0  0
   -1.0100   -1.5000    0.0000 C   0  0  0  0  0  0  0  0  0  0  0  0
   -8.0126    3.1268    0.0000 C   0  0  0  0  0  0  0  0  0  0  0  0
    2.6000    0.0000    0.0000 C   0  0  0  0  0  0  0  0  0  0  0  0
   -4.9081   -0.7504    0.0000 C   0  0  0  0  0  0  0  0  0  0  0  0
   -2.3100   -0.7500    0.0000 C   0  0  0  0  0  0  0  0  0  0  0  0
   -7.5071    0.7512    0.0000 C   0  0  0  0  0  0  0  0  0  0  0  0
    0.2900    0.7500    0.0000 C   0  0  0  0  0  0  0  0  0  0  0  0
   -6.2081    1.5012    0.0000 C   0  0  0  0  0  0  0  0  0  0  0  0
    0.2900   -0.7500    0.0000 C   0  0  0  0  0  0  0  0  0  0  0  0
   -8.6205    1.7597    0.0000 C   0  0  0  0  0  0  0  0  0  0  0  0
    1.7200    1.2100    0.0000 C   0  0  0  0  0  0  0  0  0  0  0  0
   -6.5247    2.9697    0.0000 C   0  0  0  0  0  0  0  0  0  0  0  0
    1.7200   -1.2100    0.0000 C   0  0  0  0  0  0  0  0  0  0  0  0
 13 11  2  0
 14 12  2  0
 18  1  1  0
 19  2  1  0
 20 11  1  0
 20 15  1  0
 20 16  2  0
 21 12  1  0
 21 15  1  0
 21 17  2  0
 22 13  1  0
 23 14  1  0
 24 16  1  0
 24 22  2  0
 25 17  1  0
 25 23  2  0
 26  3  1  0
 26  4  1  0
 26 18  1  0
 26 22  1  0
 27  5  1  0
 27  6  1  0
 27 19  1  0
 27 23  1  0
 28  7  1  0
 28  8  1  0
 28 18  1  0
 28 24  1  0
 29  9  1  0
 29 10  1  0
 29 19  1  0
 29 25  1  0
M  END
>  <NAME>  (1350) 
BIS(1,1,2,3,3-PENTAMETHYLINDAN-5-YL)-METHANE

>  <SYNONYMS>  (1350) 
BIS(2,3-DIHYDRO-1,1,2,3,3-PENTAMETHYL-1H-INDEN-6-YL)-METHANE

>  <SPECTRUM TYPE>  (1350) 
MS1

>  <INSTRUMENT TYPE>  (1350) 
EI-B

>  <INSTRUMENT>  (1350) 
JEOL JMS-D-300

>  <ION MODE>  (1350) 
P

>  <INCHIKEY>  (1350) 
ONWXJPHQWJMWHT-UHFFFAOYSA-N

>  <FORMULA>  (1350) 
C29H40

>  <EXACT MASS>  (1350) 
388.31300128

>  <MW>  (1350) 
388

>  <ID>  (1350) 
JP010077

>  <CONTRIBUTOR>  (1350) 
University of Tokyo Team, {Faculty of Engineering, University of Tokyo

>  <COMMENT>  (1350) 
SMILES=c(c34)cc(cc3C(C)(C)C(C)C4(C)C)Cc(c2)ccc(c21)C(C)(C)C(C)C1(C)C
InChI=InChI=1S/C29H40/c1-18-26(3,4)22-13-11-20(16-24(22)28(18,7)8)15-21-12-14-23-25(17-21)29(9,10)19(2)27(23,5)6/h11-14,16-19H,15H2,1-10H3
computed SMILES=C=1C=C2C(=CC1CC3=CC=C4C(=C3)C(C)(C)C(C)C4(C)C)C(C)(C)C(C)C2(C)C
accession=JP010077
date=2016.01.19 (Created 2008.10.21, modified 2011.05.06)
author=KURARAY CO., LTD.
license=CC BY-NC-SA
exact mass=388.313
ionization energy=70 eV
ion type=[M]+*
computed spectral entropy=2.03150979675508
computed normalized entropy=0.7327122773239749
SPLASH=splash10-00di-0219000000-d8b78c90c800b80e7335
submitter=submitter = University of Tokyo Team (Faculty of Engineering, University of Tokyo)
MoNA Rating=3.75

>  <NUM PEAKS>  (1350) 
16

>  <MASS SPECTRAL PEAKS>  (1350) 
57 2
143 10.3
156 3.6
157 0.59
159 4.7
171 12.2
179 10.6
185 0.32
186 5.6
201 20.7
202 3.3
373 99.99
374 31.6
375 4.2
388 28.9
389 8.5

$$$$

     RDKit          2D

 28 31  0  0  1  0  0  0  0  0999 V2000
    3.1899    4.8613    0.0000 C   0  0  0  0  0  0  0  0  0  0  0  0
    2.4540    3.3421    0.0000 C   0  0  0  0  0  0  0  0  0  0  0  0
   -1.6000    1.1000    0.0000 C   0  0  0  0  0  0  0  0  0  0  0  0
    5.6608    4.0584    0.0000 C   0  0  0  0  0  0  0  0  0  0  0  0
    4.6100    1.1000    0.0000 C   0  0  0  0  0  0  0  0  0  0  0  0
    3.7300   -0.1100    0.0000 C   0  0  0  0  0  0  0  0  0  0  0  0
    6.1243    5.4850    0.0000 C   0  0  0  0  0  0  0  0  0  0  0  0
   -4.2000   -0.4000    0.0000 C   0  0  0  0  0  0  0  0  0  0  0  0
   -0.3000    1.8500    0.0000 C   0  0  0  0  0  0  0  0  0  0  0  0
   -2.9000    0.3500    0.0000 C   0  0  0  0  0  0  0  0  0  0  0  0
    1.0000    2.6000    0.0000 C   0  0  0  0  0  0  0  0  0  0  0  0
   -2.9000   -2.6500    0.0000 C   0  0  0  0  0  0  0  0  0  0  0  0
    1.0000   -1.9000    0.0000 C   0  0  0  0  0  0  0  0  0  0  0  0
    4.1936    3.7466    0.0000 C   0  0  0  0  0  0  0  0  0  0  0  0
   -4.2000   -1.9000    0.0000 C   0  0  0  0  0  0  0  0  0  0  0  0
    1.0000   -0.4000    0.0000 C   0  0  0  0  0  0  0  0  0  0  0  0
    3.7300    2.3200    0.0000 C   0  0  0  0  0  0  0  0  0  0  0  0
    2.3000    0.3500    0.0000 C   0  0  0  0  0  0  0  0  0  0  0  0
   -0.3000    0.3500    0.0000 C   0  0  0  0  0  0  0  0  0  0  0  0
   -1.6000   -1.9000    0.0000 C   0  0  0  0  0  0  0  0  0  0  0  0
   -0.3000   -2.6500    0.0000 C   0  0  0  0  0  0  0  0  0  0  0  0
    7.5916    5.7968    0.0000 C   0  0  0  0  0  0  0  0  0  0  0  0
    2.3000    1.8500    0.0000 C   0  0  0  0  0  0  0  0  0  0  0  0
   -1.6000   -0.4000    0.0000 C   0  0  0  0  0  0  0  0  0  0  0  0
   -5.4989   -2.6502    0.0000 O   0  0  0  0  0  0  0  0  0  0  0  0
   -0.3000   -4.1500    0.0000 O   0  0  0  0  0  0  0  0  0  0  0  0
    8.5952    4.6821    0.0000 O   0  0  0  0  0  0  0  0  0  0  0  0
    8.0551    7.2234    0.0000 O   0  0  0  0  0  0  0  0  0  0  0  0
  6  5  1  0
  7  4  1  0
 10  8  1  0
 11  9  1  0
 14  1  1  6
 14  4  1  0
 15  8  1  0
 15 12  1  0
 16 13  1  6
 17  5  1  0
 17 14  1  0
 18  6  1  1
 18 16  1  0
 19  9  1  1
 19 16  1  0
 20 12  2  0
 21 13  1  0
 21 20  1  0
 22  7  1  0
 23  2  1  1
 23 11  1  0
 23 17  1  0
 23 18  1  0
 24  3  1  1
 24 10  1  0
 24 19  1  0
 24 20  1  0
 25 15  2  0
 26 21  1  0
 27 22  2  0
 28 22  1  0
M  END
>  <NAME>  (1351) 
4,5-DEHYDRO-6-HYDROXY-3-OXO-CHOLANIC ACID

>  <SYNONYMS>  (1351) 


>  <SPECTRUM TYPE>  (1351) 
MS1

>  <INSTRUMENT TYPE>  (1351) 
EI-B

>  <INSTRUMENT>  (1351) 
JEOL JMS-D-300

>  <ION MODE>  (1351) 
P

>  <INCHIKEY>  (1351) 
VNVAJHCQVWXNTN-YUZXQEEUSA-N

>  <FORMULA>  (1351) 
C24H36O4

>  <EXACT MASS>  (1351) 
388.261359632

>  <MW>  (1351) 
388

>  <ID>  (1351) 
JP010076

>  <CONTRIBUTOR>  (1351) 
University of Tokyo Team, {Faculty of Engineering, University of Tokyo

>  <COMMENT>  (1351) 
SMILES=C(C1([H])3)(C)(C4)C(=CC(=O)C4)C(O)CC1(C(C(C)(CC3)2)([H])CCC2C([H])(C)CCC(O)=O)[H]
InChI=InChI=1S/C24H36O4/c1-14(4-7-22(27)28)17-5-6-18-16-13-21(26)20-12-15(25)8-10-24(20,3)19(16)9-11-23(17,18)2/h12,14,16-19,21,26H,4-11,13H2,1-3H3,(H,27,28)/t14-,16+,17?,18+,19+,21?,23-,24-/m1/s1
computed SMILES=O=C(O)CCC(C)C1CCC2C3CC(O)C4=CC(=O)CCC4(C)C3CCC12C
accession=JP010076
date=2016.01.19 (Created 2008.10.21, modified 2011.05.06)
author=KURARAY CO., LTD.
license=CC BY-NC-SA
exact mass=388.26136
ionization energy=70 eV
ion type=[M]+*
computed spectral entropy=4.47455997047369
computed normalized entropy=0.8571369692805481
SPLASH=splash10-00dr-2921000000-32cc2f958baf14859e59
submitter=submitter = University of Tokyo Team (Faculty of Engineering, University of Tokyo)
MoNA Rating=3.75

>  <NUM PEAKS>  (1351) 
185

>  <MASS SPECTRAL PEAKS>  (1351) 
29 3.5
39 2
41 14.4
43 0.59
45 2.6
53 5.2
55 31.4
57 0.18
59 2.6
60 1.8
65 3.5
67 1.66
68 1.8
69 7.2
71 0.9
77 0.96
78 2.6
79 17.6
80 1.9
81 2.4
82 2.8
83 7.4
85 3.3
91 2.07
92 4
93 21
94 4
95 3.13
96 2.7
97 4
99 2.1
101 0.39
103 3.2
104 3.2
105 17.3
106 0.35
107 22
108 4.9
109 19.8
110 0.24
111 1.6
115 6.7
116 3.5
117 1
118 4.9
119 15.2
120 3.9
121 1.59
122 19.1
123 21.3
124 99.99
125 1.14
127 4.5
128 6.4
129 7.6
130 0.35
131 15.3
132 7.4
133 21.1
134 0.7
135 16.8
136 39.9
137 8.6
138 0.16
139 1
141 4.5
142 3.2
143 0.86
144 3.4
145 16
146 5.6
147 1.36
148 5.8
149 5
150 2.7
151 0.32
152 7.5
153 4
155 5.3
156 0.26
157 7.5
158 3.1
159 13.2
160 1.16
161 29.9
162 11.7
163 6.7
164 0.18
165 3
167 2
169 3.7
170 0.19
171 6.5
172 4
173 15.9
174 2.27
175 26.1
176 9
177 4.1
179 0.2
181 5.1
183 4.1
184 1.9
185 0.61
186 2.5
187 8.3
188 3.2
189 0.33
191 1
193 2
194 2.9
195 0.65
196 1.4
197 3.4
198 3.4
199 0.58
200 3.5
201 5
202 1.1
203 0.09
207 3.8
208 1.7
209 4.8
211 0.44
212 1.8
213 5.1
214 3.5
215 0.42
217 2.7
219 1.9
221 0.9
224 0.1
225 3.5
226 1.8
227 10.1
228 0.49
229 7.6
230 1.8
231 1.1
233 0.19
234 1.9
235 30.3
236 5.3
237 0.15
241 2.8
242 3.5
243 1.6
244 0.1
245 1.9
246 1.3
247 4.4
249 0.12
251 2.7
253 1.9
255 1.3
260 0.14
267 2.8
268 2.5
269 23.3
270 0.51
271 2.7
304 1.9
313 1.9
319 0.18
326 3.6
327 2.2
328 1.8
332 1.28
333 3.3
337 3.4
342 5.9
343 0.18
344 1
352 3.7
353 2.2
355 0.76
356 2.5
360 4.1
369 0.8
370 7.07
371 19.3
372 4.8
373 1.6
388 0.76
389 1.8

$$$$

     RDKit          2D

 28 28  0  0  0  0  0  0  0  0999 V2000
   16.3827    8.8157    0.0000 C   0  0  0  0  0  0  0  0  0  0  0  0
   15.0837   11.0657    0.0000 C   0  0  0  0  0  0  0  0  0  0  0  0
    9.8875   11.0657    0.0000 C   0  0  0  0  0  0  0  0  0  0  0  0
    4.6914   11.0657    0.0000 C   0  0  0  0  0  0  0  0  0  0  0  0
   -0.5048   11.0657    0.0000 C   0  0  0  0  0  0  0  0  0  0  0  0
   -6.8761    6.5212    0.0000 C   0  0  0  0  0  0  0  0  0  0  0  0
   -7.6261    7.8202    0.0000 C   0  0  0  0  0  0  0  0  0  0  0  0
   -5.3929    6.2921    0.0000 C   0  0  0  0  0  0  0  0  0  0  0  0
   12.4856    9.5657    0.0000 C   0  0  0  0  0  0  0  0  0  0  0  0
    7.2895    9.5657    0.0000 C   0  0  0  0  0  0  0  0  0  0  0  0
    2.0933    9.5657    0.0000 C   0  0  0  0  0  0  0  0  0  0  0  0
   13.7847    8.8157    0.0000 C   0  0  0  0  0  0  0  0  0  0  0  0
   11.1866    8.8157    0.0000 C   0  0  0  0  0  0  0  0  0  0  0  0
    8.5885    8.8157    0.0000 C   0  0  0  0  0  0  0  0  0  0  0  0
    5.9904    8.8157    0.0000 C   0  0  0  0  0  0  0  0  0  0  0  0
    3.3923    8.8157    0.0000 C   0  0  0  0  0  0  0  0  0  0  0  0
    0.7943    8.8157    0.0000 C   0  0  0  0  0  0  0  0  0  0  0  0
   -7.0829    9.2193    0.0000 C   0  0  0  0  0  0  0  0  0  0  0  0
   -1.8038    8.8157    0.0000 C   0  0  0  0  0  0  0  0  0  0  0  0
   -4.2898    7.3216    0.0000 C   0  0  0  0  0  0  0  0  0  0  0  0
   -3.1028    9.5657    0.0000 C   0  0  0  0  0  0  0  0  0  0  0  0
   15.0837    9.5657    0.0000 C   0  0  0  0  0  0  0  0  0  0  0  0
    9.8875    9.5657    0.0000 C   0  0  0  0  0  0  0  0  0  0  0  0
    4.6914    9.5657    0.0000 C   0  0  0  0  0  0  0  0  0  0  0  0
   -0.5048    9.5657    0.0000 C   0  0  0  0  0  0  0  0  0  0  0  0
   -5.6398    9.6599    0.0000 C   0  0  0  0  0  0  0  0  0  0  0  0
   -4.4019    8.8157    0.0000 N   0  0  0  0  0  0  0  0  0  0  0  0
   -5.4140   11.1428    0.0000 O   0  0  0  0  0  0  0  0  0  0  0  0
  7  6  1  0
  8  6  1  0
 12  9  1  0
 13  9  1  0
 14 10  1  0
 15 10  1  0
 16 11  1  0
 17 11  1  0
 18  7  1  0
 20  8  1  0
 21 19  1  0
 22  1  1  0
 22  2  1  0
 22 12  2  0
 23  3  1  0
 23 13  1  0
 14 23  2  0
 24  4  1  0
 24 15  1  0
 16 24  2  0
 25  5  1  0
 25 17  1  0
 19 25  2  0
 26 18  1  0
 27 20  1  0
 27 21  1  0
 27 26  1  0
 28 26  2  0
M  END
>  <NAME>  (1352) 
N-(3,7,11,15-TETRAMETHYL-2,6,10,14-HEXADECATETRAEN-1-YL)-EPSILON-CAPROLACTAM

>  <SYNONYMS>  (1352) 
1-(3,7,11,15-TETRAMETHYL-2,6,10,14-HEXADECATETRAEN-1-YL)-AZACYCLOHEPTAN-2-ONE

>  <SPECTRUM TYPE>  (1352) 
MS1

>  <INSTRUMENT TYPE>  (1352) 
EI-B

>  <INSTRUMENT>  (1352) 
JEOL JMS-D-300

>  <ION MODE>  (1352) 
P

>  <INCHIKEY>  (1352) 
CEMMKPPUZSMGFQ-PHPAXXOYSA-N

>  <FORMULA>  (1352) 
C26H43NO

>  <EXACT MASS>  (1352) 
385.334464996

>  <MW>  (1352) 
385

>  <ID>  (1352) 
JP010075

>  <CONTRIBUTOR>  (1352) 
University of Tokyo Team, {Faculty of Engineering, University of Tokyo

>  <COMMENT>  (1352) 
SMILES=CC(C)=CCCC(C)=CCCC(C)=CCCC(C)=CCN(C1)C(=O)CCCC1
InChI=InChI=1S/C26H43NO/c1-22(2)12-9-13-23(3)14-10-15-24(4)16-11-17-25(5)19-21-27-20-8-6-7-18-26(27)28/h12,14,16,19H,6-11,13,15,17-18,20-21H2,1-5H3/b23-14+,24-16+,25-19+
computed SMILES=O=C1N(CC=C(C)CCC=C(C)CCC=C(C)CCC=C(C)C)CCCCC1
accession=JP010075
date=2016.01.19 (Created 2008.10.21, modified 2011.05.06)
author=KURARAY CO., LTD.
license=CC BY-NC-SA
exact mass=385.33447
ionization energy=70 eV
ion type=[M]+*
computed spectral entropy=3.339338616458101
computed normalized entropy=0.7914047916920984
SPLASH=splash10-003s-5920000000-ffe1f8ac06f524066a17
submitter=submitter = University of Tokyo Team (Faculty of Engineering, University of Tokyo)
MoNA Rating=3.75

>  <NUM PEAKS>  (1352) 
68

>  <MASS SPECTRAL PEAKS>  (1352) 
29 1.2
30 5.6
39 5.5
41 2.53
43 5.1
44 1.9
53 7.6
55 1.74
56 6.7
57 2.7
67 7.5
68 0.78
69 47.6
70 3.8
71 4.1
77 0.41
79 4.4
80 6.2
81 12.8
82 0.36
83 3.1
84 5.4
85 4.5
91 0.72
93 12.2
94 6.3
95 6.2
96 1.96
97 7.3
98 15.2
99 5.6
105 0.68
107 6
108 4.3
109 4.7
112 0.5
114 24.5
119 3.3
121 5.8
122 0.5
123 5.6
126 96.6
127 11.2
133 0.5
134 4.7
135 12.3
136 5.6
137 0.42
138 12.4
147 5.4
148 4.4
152 0.73
161 4.5
166 4.3
167 4
179 0.54
180 99.99
181 14.6
182 4.9
192 0.5
203 6.9
248 63.7
249 12.2
250 0.42
272 4
316 9.7
317 4.2
385 4.5

$$$$

     RDKit          2D

 27 29  0  0  0  0  0  0  0  0999 V2000
   -3.7389    1.4102    0.0000 C   0  0  0  0  0  0  0  0  0  0  0  0
   -1.1400    2.9100    0.0000 C   0  0  0  0  0  0  0  0  0  0  0  0
   -1.1400   -3.0900    0.0000 C   0  0  0  0  0  0  0  0  0  0  0  0
   -6.3370   -1.5906    0.0000 C   0  0  0  0  0  0  0  0  0  0  0  0
    4.2372    0.3997    0.0000 C   0  0  0  0  0  0  0  0  0  0  0  0
    9.6960    4.5213    0.0000 C   0  0  0  0  0  0  0  0  0  0  0  0
    8.7308    5.6707    0.0000 C   0  0  0  0  0  0  0  0  0  0  0  0
    9.1830    3.1118    0.0000 C   0  0  0  0  0  0  0  0  0  0  0  0
    7.2527    5.4104    0.0000 C   0  0  0  0  0  0  0  0  0  0  0  0
    7.7049    2.8515    0.0000 C   0  0  0  0  0  0  0  0  0  0  0  0
    1.4600   -1.5900    0.0000 C   0  0  0  0  0  0  0  0  0  0  0  0
    2.7600   -0.8400    0.0000 C   0  0  0  0  0  0  0  0  0  0  0  0
    3.2727    2.0696    0.0000 C   0  0  0  0  0  0  0  0  0  0  0  0
    4.7499    2.3304    0.0000 C   0  0  0  0  0  0  0  0  0  0  0  0
   -2.4400    0.6600    0.0000 C   0  0  0  0  0  0  0  0  0  0  0  0
   -1.1400    1.4100    0.0000 C   0  0  0  0  0  0  0  0  0  0  0  0
   -1.1400   -1.5900    0.0000 C   0  0  0  0  0  0  0  0  0  0  0  0
   -5.0381   -0.8404    0.0000 C   0  0  0  0  0  0  0  0  0  0  0  0
    6.7398    4.0009    0.0000 C   0  0  0  0  0  0  0  0  0  0  0  0
    0.1600   -0.8400    0.0000 C   0  0  0  0  0  0  0  0  0  0  0  0
   -2.4400   -0.8400    0.0000 C   0  0  0  0  0  0  0  0  0  0  0  0
    0.1600    0.6600    0.0000 C   0  0  0  0  0  0  0  0  0  0  0  0
    2.7600    0.6600    0.0000 C   0  0  0  0  0  0  0  0  0  0  0  0
   -5.0383    0.6596    0.0000 O   0  0  0  0  0  0  0  0  0  0  0  0
   -3.7389   -1.5902    0.0000 O   0  0  0  0  0  0  0  0  0  0  0  0
    1.4600    1.4100    0.0000 O   0  0  0  0  0  0  0  0  0  0  0  0
    5.2626    3.7401    0.0000 S   0  0  0  0  0  0  0  0  0  0  0  0
  7  6  2  0
  8  6  1  0
  9  7  1  0
 10  8  2  0
 12 11  1  0
 14 13  1  0
 15  1  1  0
 16  2  1  0
 16 15  1  0
 17  3  1  0
 18  4  1  0
 19  9  2  0
 19 10  1  0
 20 11  1  0
 20 17  2  0
 21 15  2  0
 21 17  1  0
 22 16  2  0
 22 20  1  0
 23  5  1  0
 23 12  1  0
 23 13  1  0
 24 18  2  0
 25 18  1  0
 25 21  1  0
 26 22  1  0
 26 23  1  0
 27 14  1  0
 27 19  1  0
M  END
>  <NAME>  (1353) 
6-ACETOXY-2,5,7,8-TETRAMETHYL-2-(2-PHENYLTHIOETHYL)-3,4-DIHYDRO-2H-1-BENZOPYRAN

>  <SYNONYMS>  (1353) 


>  <SPECTRUM TYPE>  (1353) 
MS1

>  <INSTRUMENT TYPE>  (1353) 
EI-B

>  <INSTRUMENT>  (1353) 
JEOL JMS-D-300

>  <ION MODE>  (1353) 
P

>  <INCHIKEY>  (1353) 
XZRSZKHNRBOICQ-UHFFFAOYSA-N

>  <FORMULA>  (1353) 
C23H28O3S

>  <EXACT MASS>  (1353) 
384.175915756

>  <MW>  (1353) 
384

>  <ID>  (1353) 
JP010074

>  <CONTRIBUTOR>  (1353) 
University of Tokyo Team, {Faculty of Engineering, University of Tokyo

>  <COMMENT>  (1353) 
SMILES=CC(=O)Oc(c(C)1)c(C)c(C2)c(OC(C)(CCSc(c3)cccc3)C2)c(C)1
InChI=InChI=1S/C23H28O3S/c1-15-16(2)22-20(17(3)21(15)25-18(4)24)11-12-23(5,26-22)13-14-27-19-9-7-6-8-10-19/h6-10H,11-14H2,1-5H3
computed SMILES=O=C(OC=1C(=C(C=2OC(C)(CCSC=3C=CC=CC3)CCC2C1C)C)C)C
accession=JP010074
date=2016.01.19 (Created 2008.10.21, modified 2011.05.06)
author=KURARAY CO., LTD.
license=CC BY-NC-SA
exact mass=384.17592
ionization energy=70 eV
ion type=[M]+*
computed spectral entropy=2.8152332952935497
computed normalized entropy=0.6993757344912648
SPLASH=splash10-00l6-1819000000-a56bb094cfd05b571c6d
submitter=submitter = University of Tokyo Team (Faculty of Engineering, University of Tokyo)
MoNA Rating=3.75

>  <NUM PEAKS>  (1353) 
56

>  <MASS SPECTRAL PEAKS>  (1353) 
41 2.6
43 10.3
45 8
53 0.28
55 3
65 1
67 2
77 0.37
79 3.4
81 1.1
91 5.6
93 0.28
105 1.9
107 2.6
109 2.6
119 0.17
121 5.1
123 29.6
124 2.3
135 0.37
136 3.2
137 2.2
147 1
149 0.22
151 0.9
152 0.9
159 1
161 0.18
163 1.8
164 47.6
165 68.3
166 0.74
171 3
175 2.4
176 1.5
177 1.01
178 2.4
189 5
190 2.4
191 0.15
203 7.5
204 2.3
205 9.2
207 0.95
216 1
217 2.3
231 5.9
232 4.71
233 9
247 3.4
342 99.99
343 0.23
344 7.4
384 79.3
385 20.2
386 6.2

$$$$

     RDKit          2D

 28 30  0  0  0  0  0  0  0  0999 V2000
    7.2525    5.4105    0.0000 C   0  0  0  0  0  0  0  0  0  0  0  0
   -3.7389    1.4102    0.0000 C   0  0  0  0  0  0  0  0  0  0  0  0
   -1.1400    2.9100    0.0000 C   0  0  0  0  0  0  0  0  0  0  0  0
   -1.1400   -3.0900    0.0000 C   0  0  0  0  0  0  0  0  0  0  0  0
    4.2372    0.3997    0.0000 C   0  0  0  0  0  0  0  0  0  0  0  0
    6.7398    4.0009    0.0000 C   0  0  0  0  0  0  0  0  0  0  0  0
   -8.9348   -3.0910    0.0000 C   0  0  0  0  0  0  0  0  0  0  0  0
   -7.6352   -3.8417    0.0000 C   0  0  0  0  0  0  0  0  0  0  0  0
   -8.9356   -1.5902    0.0000 C   0  0  0  0  0  0  0  0  0  0  0  0
   -6.3363   -3.0915    0.0000 C   0  0  0  0  0  0  0  0  0  0  0  0
   -7.6366   -0.8400    0.0000 C   0  0  0  0  0  0  0  0  0  0  0  0
    1.4600   -1.5900    0.0000 C   0  0  0  0  0  0  0  0  0  0  0  0
    2.7600   -0.8400    0.0000 C   0  0  0  0  0  0  0  0  0  0  0  0
    3.2727    2.0696    0.0000 C   0  0  0  0  0  0  0  0  0  0  0  0
    4.7499    2.3304    0.0000 C   0  0  0  0  0  0  0  0  0  0  0  0
   -2.4400    0.6600    0.0000 C   0  0  0  0  0  0  0  0  0  0  0  0
   -1.1400    1.4100    0.0000 C   0  0  0  0  0  0  0  0  0  0  0  0
   -1.1400   -1.5900    0.0000 C   0  0  0  0  0  0  0  0  0  0  0  0
   -6.3370   -1.5906    0.0000 C   0  0  0  0  0  0  0  0  0  0  0  0
    0.1600   -0.8400    0.0000 C   0  0  0  0  0  0  0  0  0  0  0  0
   -2.4400   -0.8400    0.0000 C   0  0  0  0  0  0  0  0  0  0  0  0
    0.1600    0.6600    0.0000 C   0  0  0  0  0  0  0  0  0  0  0  0
   -5.0381   -0.8404    0.0000 C   0  0  0  0  0  0  0  0  0  0  0  0
    2.7600    0.6600    0.0000 C   0  0  0  0  0  0  0  0  0  0  0  0
   -5.0383    0.6596    0.0000 O   0  0  0  0  0  0  0  0  0  0  0  0
    5.2626    3.7401    0.0000 O   0  0  0  0  0  0  0  0  0  0  0  0
   -3.7389   -1.5902    0.0000 O   0  0  0  0  0  0  0  0  0  0  0  0
    1.4600    1.4100    0.0000 O   0  0  0  0  0  0  0  0  0  0  0  0
  6  1  1  0
  8  7  2  0
  9  7  1  0
 10  8  1  0
 11  9  2  0
 13 12  1  0
 15 14  1  0
 16  2  1  0
 17  3  1  0
 17 16  1  0
 18  4  1  0
 19 10  2  0
 19 11  1  0
 20 12  1  0
 20 18  2  0
 21 16  2  0
 21 18  1  0
 22 17  2  0
 22 20  1  0
 23 19  1  0
 24  5  1  0
 24 13  1  0
 24 14  1  0
 25 23  2  0
 26  6  1  0
 26 15  1  0
 27 21  1  0
 27 23  1  0
 28 22  1  0
 28 24  1  0
M  END
>  <NAME>  (1354) 
6-BENZOYLOXY-2,5,7,8-TETRAMETHYL-3,4-DIHYDRO-2H-1-BENZOPYRAN ETHANOL ETHYL ETHER

>  <SYNONYMS>  (1354) 
2-(2-ETHOXYETHYL)-6-BENZOYLOXY-2,5,7,8-TETRAMETHYL-3,4-DIHYDRO-2H-1-BENZOPYRAN

>  <SPECTRUM TYPE>  (1354) 
MS1

>  <INSTRUMENT TYPE>  (1354) 
EI-B

>  <INSTRUMENT>  (1354) 
JEOL JMS-D-300

>  <ION MODE>  (1354) 
P

>  <INCHIKEY>  (1354) 
NXLFZDMUKZIROL-UHFFFAOYSA-N

>  <FORMULA>  (1354) 
C24H30O4

>  <EXACT MASS>  (1354) 
382.21440944

>  <MW>  (1354) 
382

>  <ID>  (1354) 
JP010073

>  <CONTRIBUTOR>  (1354) 
University of Tokyo Team, {Faculty of Engineering, University of Tokyo

>  <COMMENT>  (1354) 
SMILES=CCOCCC(C)(C3)Oc(c(C)1)c(C3)c(C)c(OC(=O)c(c2)cccc2)c(C)1
InChI=InChI=1S/C24H30O4/c1-6-26-15-14-24(5)13-12-20-18(4)21(16(2)17(3)22(20)28-24)27-23(25)19-10-8-7-9-11-19/h7-11H,6,12-15H2,1-5H3
computed SMILES=O=C(OC=1C(=C(C=2OC(C)(CCOCC)CCC2C1C)C)C)C=3C=CC=CC3
accession=JP010073
date=2016.01.19 (Created 2008.10.21, modified 2011.05.06)
author=KURARAY CO., LTD.
license=CC BY-NC-SA
exact mass=382.21441
ionization energy=70 eV
ion type=[M]+*
computed spectral entropy=1.4243563698465886
computed normalized entropy=0.5940027431574811
SPLASH=splash10-0a4i-0912000000-92749c796832a7ddcf1e
submitter=submitter = University of Tokyo Team (Faculty of Engineering, University of Tokyo)
MoNA Rating=3.75

>  <NUM PEAKS>  (1354) 
11

>  <MASS SPECTRAL PEAKS>  (1354) 
77 11.8
105 99.99
106 7.9
164 0.37
231 11.8
232 3.1
269 1.9
277 0.3
354 3.1
382 22.2
383 5.2

$$$$

     RDKit          2D

 27 30  0  0  0  0  0  0  0  0999 V2000
   13.3695    0.7294    0.0000 C   0  0  0  0  0  0  0  0  0  0  0  0
   10.5494   -0.2957    0.0000 C   0  0  0  0  0  0  0  0  0  0  0  0
   11.5926    5.6129    0.0000 C   0  0  0  0  0  0  0  0  0  0  0  0
    5.6905    3.1113    0.0000 C   0  0  0  0  0  0  0  0  0  0  0  0
   -2.3100   -0.7500    0.0000 C   0  0  0  0  0  0  0  0  0  0  0  0
   -2.3100    0.7500    0.0000 C   0  0  0  0  0  0  0  0  0  0  0  0
   -1.0100   -1.5000    0.0000 C   0  0  0  0  0  0  0  0  0  0  0  0
   -1.0100    1.5000    0.0000 C   0  0  0  0  0  0  0  0  0  0  0  0
    8.7714    4.5878    0.0000 C   0  0  0  0  0  0  0  0  0  0  0  0
    7.3608    4.0752    0.0000 C   0  0  0  0  0  0  0  0  0  0  0  0
    6.3500    1.2990    0.0000 C   0  0  0  0  0  0  0  0  0  0  0  0
    4.8500    1.2990    0.0000 C   0  0  0  0  0  0  0  0  0  0  0  0
   12.2208    1.6940    0.0000 C   0  0  0  0  0  0  0  0  0  0  0  0
   10.8102    1.1814    0.0000 C   0  0  0  0  0  0  0  0  0  0  0  0
   11.3318    4.1358    0.0000 C   0  0  0  0  0  0  0  0  0  0  0  0
    9.9212    3.6232    0.0000 C   0  0  0  0  0  0  0  0  0  0  0  0
    0.2900   -0.7500    0.0000 C   0  0  0  0  0  0  0  0  0  0  0  0
    0.2900    0.7500    0.0000 C   0  0  0  0  0  0  0  0  0  0  0  0
   12.4816    3.1712    0.0000 C   0  0  0  0  0  0  0  0  0  0  0  0
    9.6604    2.1460    0.0000 C   0  0  0  0  0  0  0  0  0  0  0  0
    2.6000    0.0000    0.0000 C   0  0  0  0  0  0  0  0  0  0  0  0
    7.1000    2.5981    0.0000 C   0  0  0  0  0  0  0  0  0  0  0  0
    1.7200   -1.2100    0.0000 N   0  0  0  0  0  0  0  0  0  0  0  0
    1.7200    1.2100    0.0000 N   0  0  0  0  0  0  0  0  0  0  0  0
   13.8912    3.6841    0.0000 O   0  0  0  0  0  0  0  0  0  0  0  0
    8.2498    1.6335    0.0000 O   0  0  0  0  0  0  0  0  0  0  0  0
    4.1000   -0.0000    0.0000 S   0  0  0  0  0  0  0  0  0  0  0  0
  6  5  2  0
  7  5  1  0
  8  6  1  0
 10  9  1  0
 12 11  1  0
 13  1  1  0
 14  2  1  0
 14 13  1  0
 15  3  1  0
 16  9  1  0
 16 15  2  0
 17  7  2  0
 18  8  2  0
 18 17  1  0
 19 13  2  0
 19 15  1  0
 20 14  2  0
 20 16  1  0
 22  4  1  0
 22 10  1  0
 22 11  1  0
 23 17  1  0
 23 21  2  0
 24 18  1  0
 24 21  1  0
 25 19  1  0
 26 20  1  0
 26 22  1  0
 27 12  1  0
 27 21  1  0
M  END
>  <NAME>  (1355) 
3,4-DIHYDRO-6-HYDROXY-2,5,7,8-TETRAMETHYL-2-(2-BENZIMIDAZOLETHIO)ETHYL-2H-1-BENZOPYRAN

>  <SYNONYMS>  (1355) 


>  <SPECTRUM TYPE>  (1355) 
MS1

>  <INSTRUMENT TYPE>  (1355) 
EI-B

>  <INSTRUMENT>  (1355) 
JEOL JMS-D-300

>  <ION MODE>  (1355) 
P

>  <INCHIKEY>  (1355) 
QWRCLQDGIAHWMP-UHFFFAOYSA-N

>  <FORMULA>  (1355) 
C22H26N2O2S

>  <EXACT MASS>  (1355) 
382.171499072

>  <MW>  (1355) 
382

>  <ID>  (1355) 
JP010072

>  <CONTRIBUTOR>  (1355) 
University of Tokyo Team, {Faculty of Engineering, University of Tokyo

>  <COMMENT>  (1355) 
SMILES=CC1=C(C(=C2CCC(OC2=C1C)(C)CCSC3=NC4=CC=CC=C4N3)C)O
InChI=InChI=1S/C22H26N2O2S/c1-13-14(2)20-16(15(3)19(13)25)9-10-22(4,26-20)11-12-27-21-23-17-7-5-6-8-18(17)24-21/h5-8,25H,9-12H2,1-4H3,(H,23,24)
computed SMILES=OC=1C(=C(C=2OC(C)(CCSC3=NC=4C=CC=CC4N3)CCC2C1C)C)C
ionization energy=70 eV
accession=JP010072
date=2016.01.19 (Created 2008.10.21, modified 2011.05.06)
author=KURARAY CO., LTD.
license=CC BY-NC-SA
exact mass=382.1715
ion type=[M]+*
computed spectral entropy=3.3805121086531202
computed normalized entropy=0.819094265721659
SPLASH=splash10-001i-2971000000-4030079311605a3f818e
submitter=submitter = University of Tokyo Team (Faculty of Engineering, University of Tokyo)
MoNA Rating=3.75

>  <NUM PEAKS>  (1355) 
62

>  <MASS SPECTRAL PEAKS>  (1355) 
28 4.3
41 9.1
43 11.3
49 0.77
51 2.9
53 3.5
55 4.9
65 0.33
67 3.2
69 2.8
77 3.4
79 0.3
84 6.2
86 3.9
91 7.3
93 0.46
105 2.6
107 2.3
118 4.9
119 0.66
121 9.2
122 4.8
131 3.1
135 0.37
136 8.6
137 3.2
149 5.2
150 0.61
151 42.5
152 4.7
153 2.4
159 1.31
160 2.7
161 3.1
163 4.5
164 7.03
165 27.1
166 3.4
172 4.1
175 0.49
176 3.6
177 15.9
178 2.7
185 0.55
189 13
190 5.9
191 7
203 2.15
204 9.9
205 9.2
206 5.1
215 0.23
217 14.2
218 2.9
219 10.6
231 0.44
232 99.99
233 16.8
234 2
382 6.41
383 16.5
384 6

$$$$

     RDKit          2D

 26 26  0  0  0  0  0  0  0  0999 V2000
    7.7948    3.0010    0.0000 C   0  0  0  0  0  0  0  0  0  0  0  0
   12.9910    3.0019    0.0000 C   0  0  0  0  0  0  0  0  0  0  0  0
   14.2906   -0.7479    0.0000 C   0  0  0  0  0  0  0  0  0  0  0  0
   -2.5989   -1.5002    0.0000 C   0  0  0  0  0  0  0  0  0  0  0  0
   16.1387   -0.5467    0.0000 C   0  0  0  0  0  0  0  0  0  0  0  0
   18.1876    0.0027    0.0000 C   0  0  0  0  0  0  0  0  0  0  0  0
   17.6382    2.0517    0.0000 C   0  0  0  0  0  0  0  0  0  0  0  0
   10.3931    1.5015    0.0000 C   0  0  0  0  0  0  0  0  0  0  0  0
    5.1970    1.5006    0.0000 C   0  0  0  0  0  0  0  0  0  0  0  0
    9.0942    0.7512    0.0000 C   0  0  0  0  0  0  0  0  0  0  0  0
    6.4962    0.7508    0.0000 C   0  0  0  0  0  0  0  0  0  0  0  0
   11.6923    0.7517    0.0000 C   0  0  0  0  0  0  0  0  0  0  0  0
    3.8981    0.7504    0.0000 C   0  0  0  0  0  0  0  0  0  0  0  0
   -1.3000    0.7500    0.0000 C   0  0  0  0  0  0  0  0  0  0  0  0
   -0.0000   -1.5000    0.0000 C   0  0  0  0  0  0  0  0  0  0  0  0
   -0.0000    1.5000    0.0000 C   0  0  0  0  0  0  0  0  0  0  0  0
    1.3000   -0.7500    0.0000 C   0  0  0  0  0  0  0  0  0  0  0  0
    7.7951    1.5010    0.0000 C   0  0  0  0  0  0  0  0  0  0  0  0
   12.9912    1.5019    0.0000 C   0  0  0  0  0  0  0  0  0  0  0  0
   14.2904    0.7521    0.0000 C   0  0  0  0  0  0  0  0  0  0  0  0
    2.5989    1.5002    0.0000 C   0  0  0  0  0  0  0  0  0  0  0  0
   -1.3000   -0.7500    0.0000 N   0  0  0  0  0  0  0  0  0  0  0  0
    1.3000    0.7500    0.0000 N   0  0  0  0  0  0  0  0  0  0  0  0
    2.5987    3.0002    0.0000 O   0  0  0  0  0  0  0  0  0  0  0  0
   15.5893    1.5023    0.0000 O   0  0  0  0  0  0  0  0  0  0  0  0
   16.8885    0.7525    0.0000 Si  0  0  0  0  0  4  0  0  0  0  0  0
 10  8  1  0
 11  9  1  0
 12  8  1  0
 13  9  1  0
 16 14  1  0
 17 15  1  0
 18  1  1  0
 18 10  1  0
 11 18  2  0
 19  2  1  0
 12 19  2  0
 20  3  1  0
 20 19  1  0
 21 13  1  0
 22  4  1  0
 22 14  1  0
 22 15  1  0
 23 16  1  0
 23 17  1  0
 23 21  1  0
 24 21  2  0
 25 20  1  0
 26  5  1  0
 26  6  1  0
 26  7  1  0
 26 25  1  0
M  END
>  <NAME>  (1356) 
4-METHYL-1-(5,9-DIMETHYL-1-OXO-10-TRIMETHYLSILOXY-4,8-UNDECADIEN-1-YL)-PIPERADINE

>  <SYNONYMS>  (1356) 


>  <SPECTRUM TYPE>  (1356) 
MS1

>  <INSTRUMENT TYPE>  (1356) 
EI-B

>  <INSTRUMENT>  (1356) 
JEOL JMS-D-300

>  <ION MODE>  (1356) 
P

>  <INCHIKEY>  (1356) 
ROQLKSKDJZZPGV-GDAWTGGTSA-N

>  <FORMULA>  (1356) 
C21H40N2O2Si

>  <EXACT MASS>  (1356) 
380.28590505

>  <MW>  (1356) 
380

>  <ID>  (1356) 
JP010071

>  <CONTRIBUTOR>  (1356) 
University of Tokyo Team, {Faculty of Engineering, University of Tokyo

>  <COMMENT>  (1356) 
SMILES=CC(CCC=C(C)C(C)O[Si](C)(C)C)=CCCC(=O)N(C1)CCN(C)C1
InChI=InChI=1S/C21H40N2O2Si/c1-18(10-8-12-19(2)20(3)25-26(5,6)7)11-9-13-21(24)23-16-14-22(4)15-17-23/h11-12,20H,8-10,13-17H2,1-7H3/b18-11+,19-12+
computed SMILES=O=C(N1CCN(C)CC1)CCC=C(C)CCC=C(C)C(O[Si](C)(C)C)C
accession=JP010071
date=2016.01.19 (Created 2008.10.21, modified 2011.05.06)
author=KURARAY CO., LTD.
license=CC BY-NC-SA
exact mass=380.28591
ionization energy=70 eV
ion type=[M]+*
computed spectral entropy=3.2762957417073864
computed normalized entropy=0.8509532829993859
SPLASH=splash10-0aba-9210000000-15ea8a5af67c7281b602
submitter=submitter = University of Tokyo Team (Faculty of Engineering, University of Tokyo)
MoNA Rating=3.75

>  <NUM PEAKS>  (1356) 
47

>  <MASS SPECTRAL PEAKS>  (1356) 
29 3.6
32 2.1
41 18.2
42 1.7
43 30.3
44 8.3
45 9.2
55 1.73
56 34.9
57 51.3
58 59
69 0.58
70 93.4
71 22.4
73 43.5
75 4.85
77 12.2
81 19.8
82 8.2
83 2.44
85 9
96 10.5
97 20.6
98 99.99
99 53.2
100 12.2
101 59.5
127 2
133 7.4
140 7.3
147 1.1
148 0.92
149 33.9
152 10.6
157 7.4
166 1.88
167 13.2
170 7.3
207 17
208 1.78
209 65
210 9.6
281 4.7
290 5.49
291 12.3
365 12.3
380 7.5

$$$$

     RDKit          2D

 27 28  0  0  0  0  0  0  0  0999 V2000
  -10.3942   -0.7512    0.0000 C   0  0  0  0  0  0  0  0  0  0  0  0
    7.0925    5.5005    0.0000 C   0  0  0  0  0  0  0  0  0  0  0  0
   -5.1976    3.7504    0.0000 C   0  0  0  0  0  0  0  0  0  0  0  0
    4.0772    0.4897    0.0000 C   0  0  0  0  0  0  0  0  0  0  0  0
   -9.0951   -1.5010    0.0000 C   0  0  0  0  0  0  0  0  0  0  0  0
   -7.7962   -0.7508    0.0000 C   0  0  0  0  0  0  0  0  0  0  0  0
   -6.4970   -1.5006    0.0000 C   0  0  0  0  0  0  0  0  0  0  0  0
   -5.1981   -0.7504    0.0000 C   0  0  0  0  0  0  0  0  0  0  0  0
   -3.8989   -1.5002    0.0000 C   0  0  0  0  0  0  0  0  0  0  0  0
    1.3000   -1.5000    0.0000 C   0  0  0  0  0  0  0  0  0  0  0  0
    2.6000   -0.7500    0.0000 C   0  0  0  0  0  0  0  0  0  0  0  0
    3.1127    2.1596    0.0000 C   0  0  0  0  0  0  0  0  0  0  0  0
    4.5899    2.4204    0.0000 C   0  0  0  0  0  0  0  0  0  0  0  0
   -1.3000   -1.5000    0.0000 C   0  0  0  0  0  0  0  0  0  0  0  0
   -1.3000    1.5000    0.0000 C   0  0  0  0  0  0  0  0  0  0  0  0
    6.5798    4.0909    0.0000 C   0  0  0  0  0  0  0  0  0  0  0  0
   -3.8987    3.0002    0.0000 C   0  0  0  0  0  0  0  0  0  0  0  0
   -2.6000   -0.7500    0.0000 C   0  0  0  0  0  0  0  0  0  0  0  0
    0.0000   -0.7500    0.0000 C   0  0  0  0  0  0  0  0  0  0  0  0
   -2.6000    0.7500    0.0000 C   0  0  0  0  0  0  0  0  0  0  0  0
    0.0000    0.7500    0.0000 C   0  0  0  0  0  0  0  0  0  0  0  0
    2.6000    0.7500    0.0000 C   0  0  0  0  0  0  0  0  0  0  0  0
    7.5442    2.9420    0.0000 O   0  0  0  0  0  0  0  0  0  0  0  0
   -2.5995    3.7500    0.0000 O   0  0  0  0  0  0  0  0  0  0  0  0
    5.1026    3.8301    0.0000 O   0  0  0  0  0  0  0  0  0  0  0  0
   -3.8989    1.5002    0.0000 O   0  0  0  0  0  0  0  0  0  0  0  0
    1.3000    1.5000    0.0000 O   0  0  0  0  0  0  0  0  0  0  0  0
  5  1  1  0
  6  5  1  0
  7  6  1  0
  8  7  1  0
  9  8  1  0
 11 10  1  0
 13 12  1  0
 16  2  1  0
 17  3  1  0
 18  9  1  0
 18 14  1  0
 19 10  1  0
 19 14  2  0
 20 15  1  0
 20 18  2  0
 21 15  2  0
 21 19  1  0
 22  4  1  0
 22 11  1  0
 22 12  1  0
 23 16  2  0
 24 17  2  0
 25 13  1  0
 25 16  1  0
 26 17  1  0
 26 20  1  0
 27 21  1  0
 27 22  1  0
M  END
>  <NAME>  (1357) 
7-ACETOXY-2-(2-ACETOXYETHYL)-6-HEXYL-3,4-DIHYDRO-2-METHYL-2H-1-BENZOPYRAN

>  <SYNONYMS>  (1357) 


>  <SPECTRUM TYPE>  (1357) 
MS1

>  <INSTRUMENT TYPE>  (1357) 
EI-B

>  <INSTRUMENT>  (1357) 
JEOL JMS-D-300

>  <ION MODE>  (1357) 
P

>  <INCHIKEY>  (1357) 
UIXUWDLVIIMRCQ-UHFFFAOYSA-N

>  <FORMULA>  (1357) 
C22H32O5

>  <EXACT MASS>  (1357) 
376.22497412399997

>  <MW>  (1357) 
376

>  <ID>  (1357) 
JP010070

>  <CONTRIBUTOR>  (1357) 
University of Tokyo Team, {Faculty of Engineering, University of Tokyo

>  <COMMENT>  (1357) 
SMILES=CCCCCCc(c1)c(OC(C)=O)cc(O2)c(CCC(C)(CCOC(C)=O)2)1
InChI=InChI=1S/C22H32O5/c1-5-6-7-8-9-18-14-19-10-11-22(4,12-13-25-16(2)23)27-21(19)15-20(18)26-17(3)24/h14-15H,5-13H2,1-4H3
computed SMILES=O=C(OC=1C=C2OC(C)(CCOC(=O)C)CCC2=CC1CCCCCC)C
accession=JP010070
date=2016.01.19 (Created 2008.10.21, modified 2011.05.06)
author=KURARAY CO., LTD.
license=CC BY-NC-SA
exact mass=376.22497
ionization energy=70 eV
ion type=[M]+*
computed spectral entropy=3.3666311542457756
computed normalized entropy=0.7463391731402841
SPLASH=splash10-0a6r-3289000000-235a56e16d1a1e9b645c
submitter=submitter = University of Tokyo Team (Faculty of Engineering, University of Tokyo)
MoNA Rating=3.75

>  <NUM PEAKS>  (1357) 
91

>  <MASS SPECTRAL PEAKS>  (1357) 
27 1.9
28 7.9
29 5.1
31 0.14
32 1.2
41 10.6
42 1.2
43 2.19
53 1.4
55 12.3
57 3.4
65 0.11
67 3.1
69 4.9
77 3.5
79 0.37
81 7.2
83 2.5
85 6.1
91 0.55
93 3.4
95 4.4
97 2
103 0.13
105 2.5
107 2.3
109 1.6
115 0.11
117 1.2
119 1.5
121 3.1
123 0.27
129 1.1
131 1
133 1.8
135 0.21
137 4.6
144 1.2
145 1.4
147 0.28
148 1.8
149 14.5
150 8.2
151 0.42
159 1.3
161 5.1
162 1.7
163 0.35
174 1.2
175 2.4
177 1.7
187 0.21
189 1.5
191 1.3
205 42.8
206 0.74
207 4.8
217 2.3
219 52.1
220 1.95
221 6.6
231 1.2
233 2
245 0.11
259 0.8
261 1.8
273 1.7
275 0.75
276 1.1
287 51.3
288 10.7
289 0.59
290 5.4
291 28.7
292 1.8
303 0.3
305 63.9
306 12.9
307 1.6
317 0.11
329 5.8
331 4.4
348 3.3
358 0.72
359 1.6
374 5.1
375 2.6
376 99.99
377 26.7
378 3.7
388 2.2

$$$$

     RDKit          2D

 26 25  0  0  0  0  0  0  0  0999 V2000
    6.1704    9.5625    0.0000 C   0  0  0  0  0  0  0  0  0  0  0  0
    4.8714   11.8125    0.0000 C   0  0  0  0  0  0  0  0  0  0  0  0
   -0.3248   11.8125    0.0000 C   0  0  0  0  0  0  0  0  0  0  0  0
   -5.5209   11.8125    0.0000 C   0  0  0  0  0  0  0  0  0  0  0  0
   -9.7529   11.4616    0.0000 C   0  0  0  0  0  0  0  0  0  0  0  0
    2.2733   10.3125    0.0000 C   0  0  0  0  0  0  0  0  0  0  0  0
   -2.9228   10.3125    0.0000 C   0  0  0  0  0  0  0  0  0  0  0  0
   -8.1190   10.3125    0.0000 C   0  0  0  0  0  0  0  0  0  0  0  0
    3.5724    9.5625    0.0000 C   0  0  0  0  0  0  0  0  0  0  0  0
    0.9743    9.5625    0.0000 C   0  0  0  0  0  0  0  0  0  0  0  0
   -1.6238    9.5625    0.0000 C   0  0  0  0  0  0  0  0  0  0  0  0
   -4.2219    9.5625    0.0000 C   0  0  0  0  0  0  0  0  0  0  0  0
   -6.8200    9.5625    0.0000 C   0  0  0  0  0  0  0  0  0  0  0  0
   -9.4180    9.5625    0.0000 C   0  0  0  0  0  0  0  0  0  0  0  0
  -13.3151   10.3125    0.0000 C   0  0  0  0  0  0  0  0  0  0  0  0
    4.8714   10.3125    0.0000 C   0  0  0  0  0  0  0  0  0  0  0  0
   -0.3248   10.3125    0.0000 C   0  0  0  0  0  0  0  0  0  0  0  0
   -5.5209   10.3125    0.0000 C   0  0  0  0  0  0  0  0  0  0  0  0
  -12.0161    9.5625    0.0000 C   0  0  0  0  0  0  0  0  0  0  0  0
  -10.7171   10.3125    0.0000 C   0  0  0  0  0  0  0  0  0  0  0  0
  -15.9132   10.3125    0.0000 N   0  0  0  0  0  0  0  0  0  0  0  0
  -12.0161    8.0625    0.0000 O   0  0  0  0  0  0  0  0  0  0  0  0
  -11.6812   11.4616    0.0000 O   0  0  0  0  0  0  0  0  0  0  0  0
  -17.2123    9.5625    0.0000 O   0  0  0  0  0  0  0  0  0  0  0  0
  -15.9132   11.8125    0.0000 O   0  0  0  0  0  0  0  0  0  0  0  0
  -14.6142    9.5625    0.0000 O   0  0  0  0  0  0  0  0  0  0  0  0
  9  6  1  0
 10  6  1  0
 11  7  1  0
 12  7  1  0
 13  8  1  0
 14  8  1  0
 16  1  1  0
 16  2  1  0
 16  9  1  0
 17  3  1  0
 17 10  1  0
 17 11  1  0
 18  4  1  0
 18 12  1  0
 18 13  1  0
 19 15  1  0
 20  5  1  0
 20 14  1  0
 20 19  1  0
 22 19  1  0
 23 20  1  0
 24 21  1  0
 25 21  2  0
 26 15  1  0
 26 21  1  0
M  CHG  2  21   1  24  -1
M  END
>  <NAME>  (1358) 
2,3-DIHYDROXY-3,7,11,15-TETRAMETHYLHEXADECAN-1-OL NITRATE

>  <SYNONYMS>  (1358) 


>  <SPECTRUM TYPE>  (1358) 
MS1

>  <INSTRUMENT TYPE>  (1358) 
EI-B

>  <INSTRUMENT>  (1358) 
JEOL JMS-D-300

>  <ION MODE>  (1358) 
P

>  <INCHIKEY>  (1358) 
JTBGMTKEKZFXJG-UHFFFAOYSA-N

>  <FORMULA>  (1358) 
C20H41NO5

>  <EXACT MASS>  (1358) 
375.298473412

>  <MW>  (1358) 
375

>  <ID>  (1358) 
JP010069

>  <CONTRIBUTOR>  (1358) 
University of Tokyo Team, {Faculty of Engineering, University of Tokyo

>  <COMMENT>  (1358) 
SMILES=CC(C)CCCC(C)CCCC(C)CCCC(C)(O)C(O)CO[N+1]([O-1])=O
InChI=InChI=1S/C20H41NO5/c1-16(2)9-6-10-17(3)11-7-12-18(4)13-8-14-20(5,23)19(22)15-26-21(24)25/h16-19,22-23H,6-15H2,1-5H3
computed SMILES=O=N(=O)OCC(O)C(O)(C)CCCC(C)CCCC(C)CCCC(C)C
accession=JP010069
date=2016.01.19 (Created 2008.10.21, modified 2011.05.06)
author=KURARAY CO., LTD.
license=CC BY-NC-SA
exact mass=375.29847
ionization energy=70 eV
ion type=[M]+*
computed spectral entropy=3.4772802097145776
computed normalized entropy=0.7727616198174359
SPLASH=splash10-0abc-9200000000-ca8618da98fedf8f3e2f
submitter=submitter = University of Tokyo Team (Faculty of Engineering, University of Tokyo)
MoNA Rating=3.75

>  <NUM PEAKS>  (1358) 
90

>  <MASS SPECTRAL PEAKS>  (1358) 
27 2.2
28 9.2
29 9.5
31 0.11
32 2
39 2.6
41 29.7
42 0.54
43 99.99
44 4.4
45 4.6
48 0.19
53 2
54 0.9
55 53
56 1.72
57 95.4
58 35.6
59 12.7
64 0.6
67 7
68 8.4
69 79.6
70 1.57
71 92.5
72 8.3
73 1.9
79 0.14
80 3.7
81 26.1
82 11.4
83 6.87
84 11.8
85 38.1
86 3
87 1.22
88 5.7
92 1.1
93 5.5
94 0.33
95 24.3
96 7.7
97 61.8
98 0.73
99 15.2
100 1
101 1.4
107 0.38
108 1.4
109 21.4
110 7.3
111 5.1
112 6.8
113 11
115 5.8
121 0.52
122 1.6
123 7.2
124 5.1
125 3.24
126 8.1
127 8.7
129 1.7
135 0.26
136 1
137 6.6
138 2.9
139 1.39
140 3.3
141 3.7
149 4
150 0.14
151 67.1
152 3.5
153 7.7
154 0.11
155 2.2
162 1.3
163 2.3
165 0.21
167 2.6
169 3.6
171 2.1
179 0.21
191 1.6
195 2
269 11
270 0.17
276 2
281 1.2

$$$$

     RDKit          2D

 27 30  0  0  1  0  0  0  0  0999 V2000
    3.0099    4.6213    0.0000 C   0  0  0  0  0  0  0  0  0  0  0  0
   -1.7700    0.8600    0.0000 C   0  0  0  0  0  0  0  0  0  0  0  0
    2.2765    3.1018    0.0000 C   0  0  0  0  0  0  0  0  0  0  0  0
    4.4300    0.8600    0.0000 C   0  0  0  0  0  0  0  0  0  0  0  0
    3.5500   -0.3500    0.0000 C   0  0  0  0  0  0  0  0  0  0  0  0
   -4.3700   -0.6400    0.0000 C   0  0  0  0  0  0  0  0  0  0  0  0
   -3.0700    0.1100    0.0000 C   0  0  0  0  0  0  0  0  0  0  0  0
   -3.0700   -2.8900    0.0000 C   0  0  0  0  0  0  0  0  0  0  0  0
   -0.4700   -2.8900    0.0000 C   0  0  0  0  0  0  0  0  0  0  0  0
   -0.4700    1.6100    0.0000 C   0  0  0  0  0  0  0  0  0  0  0  0
    4.0136    3.5066    0.0000 C   0  0  0  0  0  0  0  0  0  0  0  0
   -1.7700   -2.1400    0.0000 C   0  0  0  0  0  0  0  0  0  0  0  0
   -4.3700   -2.1400    0.0000 C   0  0  0  0  0  0  0  0  0  0  0  0
    3.5500    2.0800    0.0000 C   0  0  0  0  0  0  0  0  0  0  0  0
    2.1200    0.1100    0.0000 C   0  0  0  0  0  0  0  0  0  0  0  0
   -0.4700    0.1100    0.0000 C   0  0  0  0  0  0  0  0  0  0  0  0
    0.8300   -2.1400    0.0000 C   0  0  0  0  0  0  0  0  0  0  0  0
    0.8300    2.3600    0.0000 C   0  0  0  0  0  0  0  0  0  0  0  0
    0.8300   -0.6400    0.0000 C   0  0  0  0  0  0  0  0  0  0  0  0
    5.4808    3.8184    0.0000 C   0  0  0  0  0  0  0  0  0  0  0  0
   -1.7700   -0.6400    0.0000 C   0  0  0  0  0  0  0  0  0  0  0  0
    2.1200    1.6100    0.0000 C   0  0  0  0  0  0  0  0  0  0  0  0
   -5.6689   -2.8902    0.0000 O   0  0  0  0  0  0  0  0  0  0  0  0
    2.1289   -2.8902    0.0000 O   0  0  0  0  0  0  0  0  0  0  0  0
    0.8325    3.8600    0.0000 O   0  0  0  0  0  0  0  0  0  0  0  0
    6.4845    2.7037    0.0000 O   0  0  0  0  0  0  0  0  0  0  0  0
    5.9443    5.2450    0.0000 O   0  0  0  0  0  0  0  0  0  0  0  0
  5  4  1  0
  7  6  2  0
 11  1  1  0
 12  8  2  0
 12  9  1  0
 13  6  1  0
 13  8  1  0
 14  4  1  0
 14 11  1  1
 15  5  1  1
 16 10  1  1
 17  9  1  0
 18 10  1  0
 19 15  1  0
 19 16  1  0
 19 17  1  6
 20 11  1  0
 21  2  1  1
 21  7  1  0
 21 12  1  0
 21 16  1  0
 22  3  1  1
 22 14  1  0
 22 15  1  0
 22 18  1  0
 23 13  2  0
 17 24  1  6
 25 18  1  0
 26 20  2  0
 27 20  1  0
M  END
>  <NAME>  (1359) 
7,12-DIHYDROXYPREGNA-1,4-DIENE-3-ONE-20-CARBOXYLIC ACID

>  <SYNONYMS>  (1359) 


>  <SPECTRUM TYPE>  (1359) 
MS1

>  <INSTRUMENT TYPE>  (1359) 
EI-B

>  <INSTRUMENT>  (1359) 
JEOL JMS-D-300

>  <ION MODE>  (1359) 
P

>  <INCHIKEY>  (1359) 
RIPUUOOMDLZCBV-IRZBZXEOSA-N

>  <FORMULA>  (1359) 
C22H30O5

>  <EXACT MASS>  (1359) 
374.20932406

>  <MW>  (1359) 
374

>  <ID>  (1359) 
JP010068

>  <CONTRIBUTOR>  (1359) 
University of Tokyo Team, {Faculty of Engineering, University of Tokyo

>  <COMMENT>  (1359) 
SMILES=OC(=O)C(C)C([H])(C4)C(C)(C(O)3)C([H])(C4)C([H])(C(O)1)C([H])(C3)C(C)(C=2)C(=CC(=O)C2)C1
InChI=InChI=1S/C22H30O5/c1-11(20(26)27)14-4-5-15-19-16(10-18(25)22(14,15)3)21(2)7-6-13(23)8-12(21)9-17(19)24/h6-8,11,14-19,24-25H,4-5,9-10H2,1-3H3,(H,26,27)/t11?,14-,15+,16+,17?,18?,19+,21+,22-/m1/s1
computed SMILES=O=C1C=CC2(C(=C1)CC(O)C3C4CCC(C(C(=O)O)C)C4(C)C(O)CC32)C
computed InChI=InChI=1S/C22H30O5/c1-11(20(26)27)14-4-5-15-19-16(10-18(25)22(14,15)3)21(2)7-6-13(23)8-12(21)9-17(19)24/h6-8,11,14-19,24-25H,4-5,9-10H2,1-3H3,(H,26,27)/t11?,14-,15+,16+,17-,18?,19+,21+,22-/m1/s1
accession=JP010068
date=2016.01.19 (Created 2008.10.21, modified 2011.05.06)
author=KURARAY CO., LTD.
license=CC BY-NC-SA
exact mass=374.20932
ionization energy=70 eV
ion type=[M]+*
computed spectral entropy=4.3472961444746225
computed normalized entropy=0.8435959938918018
SPLASH=splash10-00xr-2940000000-ba15df7d17bb4905c4a1
submitter=submitter = University of Tokyo Team (Faculty of Engineering, University of Tokyo)
MoNA Rating=3.75

>  <NUM PEAKS>  (1359) 
173

>  <MASS SPECTRAL PEAKS>  (1359) 
29 1.5
39 3.4
41 15
53 0.71
55 18.5
57 4.9
65 5
67 1.13
69 7.7
71 3.5
74 2.4
75 1.64
78 3.7
79 16.3
80 4
81 2.05
82 2.5
83 3.9
91 27.9
92 0.6
93 19.3
94 4.6
95 10.6
96 0.17
97 5.9
99 2.7
103 3.9
104 0.19
105 20.5
106 7.1
107 23.4
108 0.82
109 15.6
110 2.2
111 2.5
115 0.87
116 3.7
117 8.7
118 2.9
119 1.35
120 7.3
121 61.8
122 87.7
123 1.55
124 9.1
125 3.1
127 2.8
128 0.76
129 8.7
130 4.2
131 23
132 2.35
133 49.3
134 13.4
135 11.8
136 0.22
137 5.3
139 1.6
141 4.6
142 0.3
143 15.8
144 6
145 14.2
146 0.61
147 12.4
148 5
149 6.3
150 1.5
151 16.1
152 4.2
153 6.5
154 0.12
155 4.1
156 2.1
157 2.9
158 1.31
159 18.5
160 9.7
161 27.3
162 0.44
163 3
165 8.7
166 3.3
167 0.36
168 1.4
169 3
170 2.4
171 1.58
172 7.7
173 15
174 9.1
175 0.62
176 2.2
177 4
178 2.3
179 0.64
180 2.1
181 3.2
182 1.5
183 0.43
184 3.3
185 5.6
186 1.5
187 0.23
188 2.2
189 9.8
190 1.8
191 0.26
193 1.8
195 4
196 1.5
197 0.41
198 1.8
199 3.4
200 1.7
201 0.15
202 2.3
203 1.9
204 1.2
205 0.63
206 6.9
207 6.2
208 2.1
209 0.58
210 4.6
211 5
212 1.6
213 0.24
217 13.6
218 2.4
219 1.8
221 0.33
223 10.8
224 4.9
225 4.2
231 0.13
233 1.7
234 1.5
235 18.3
236 0.51
237 7.3
238 13.6
239 8.2
240 0.16
241 2.1
247 3.3
249 14.2
250 0.48
251 3.1
253 2.5
263 2.2
264 2.33
265 99.99
266 23.3
267 15.8
268 0.24
277 1.9
281 1.4
282 2.2
283 0.74
284 1.7
292 1.7
310 4.1
320 0.3
321 1.1
323 6.4
324 2.4
325 0.12
338 27.5
339 7.1
340 3.2
356 2.77
357 5.9

$$$$

     RDKit          2D

 27 27  0  0  0  0  0  0  0  0999 V2000
   -2.9245    9.1878    0.0000 C   0  0  0  0  0  0  0  0  0  0  0  0
   -1.6258   11.4380    0.0000 C   0  0  0  0  0  0  0  0  0  0  0  0
    3.5703   11.4388    0.0000 C   0  0  0  0  0  0  0  0  0  0  0  0
    8.7665   11.4396    0.0000 C   0  0  0  0  0  0  0  0  0  0  0  0
   10.0666    4.6898    0.0000 C   0  0  0  0  0  0  0  0  0  0  0  0
   17.8623    0.1890    0.0000 C   0  0  0  0  0  0  0  0  0  0  0  0
    0.9725    9.9384    0.0000 C   0  0  0  0  0  0  0  0  0  0  0  0
    6.1687    9.9392    0.0000 C   0  0  0  0  0  0  0  0  0  0  0  0
   10.0661    7.6898    0.0000 C   0  0  0  0  0  0  0  0  0  0  0  0
   -0.3264    9.1882    0.0000 C   0  0  0  0  0  0  0  0  0  0  0  0
    2.2717    9.1886    0.0000 C   0  0  0  0  0  0  0  0  0  0  0  0
    4.8697    9.1890    0.0000 C   0  0  0  0  0  0  0  0  0  0  0  0
    7.4678    9.1894    0.0000 C   0  0  0  0  0  0  0  0  0  0  0  0
   10.0659    9.1898    0.0000 C   0  0  0  0  0  0  0  0  0  0  0  0
   11.3653    6.9401    0.0000 C   0  0  0  0  0  0  0  0  0  0  0  0
   12.6647    4.6903    0.0000 C   0  0  0  0  0  0  0  0  0  0  0  0
   12.6649    3.1903    0.0000 C   0  0  0  0  0  0  0  0  0  0  0  0
   15.2641    0.1888    0.0000 C   0  0  0  0  0  0  0  0  0  0  0  0
   16.5626    2.4396    0.0000 C   0  0  0  0  0  0  0  0  0  0  0  0
   13.9646    0.9396    0.0000 C   0  0  0  0  0  0  0  0  0  0  0  0
   15.2631    3.1905    0.0000 C   0  0  0  0  0  0  0  0  0  0  0  0
   -1.6256    9.9380    0.0000 C   0  0  0  0  0  0  0  0  0  0  0  0
    3.5706    9.9388    0.0000 C   0  0  0  0  0  0  0  0  0  0  0  0
    8.7667    9.9396    0.0000 C   0  0  0  0  0  0  0  0  0  0  0  0
   11.3655    5.4401    0.0000 C   0  0  0  0  0  0  0  0  0  0  0  0
   16.5631    0.9388    0.0000 N   0  0  0  0  0  0  0  0  0  0  0  0
   13.9641    2.4405    0.0000 N   0  0  0  0  0  0  0  0  0  0  0  0
 10  7  1  0
 11  7  1  0
 12  8  1  0
 13  8  1  0
 14  9  1  0
 15  9  1  0
 17 16  1  0
 20 18  1  0
 21 19  1  0
 22  1  1  0
 22  2  1  0
 22 10  2  0
 23  3  1  0
 23 11  1  0
 12 23  2  0
 24  4  1  0
 24 13  1  0
 14 24  2  0
 25  5  1  0
 25 15  1  0
 16 25  2  0
 26  6  1  0
 26 18  1  0
 26 19  1  0
 27 17  1  0
 27 20  1  0
 27 21  1  0
M  END
>  <NAME>  (1360) 
3,7,11,15-TETRAMETHYL-1-(4-METHYLPYPERADINO)-HEXADECA-2,6,10,14-TETRAENE

>  <SYNONYMS>  (1360) 


>  <SPECTRUM TYPE>  (1360) 
MS1

>  <INSTRUMENT TYPE>  (1360) 
EI-B

>  <INSTRUMENT>  (1360) 
JEOL JMS-D-300

>  <ION MODE>  (1360) 
P

>  <INCHIKEY>  (1360) 
RNYWGZFGJLZKNY-ZASDBRTLSA-N

>  <FORMULA>  (1360) 
C25H44N2

>  <EXACT MASS>  (1360) 
372.35044940800003

>  <MW>  (1360) 
372

>  <ID>  (1360) 
JP010067

>  <CONTRIBUTOR>  (1360) 
University of Tokyo Team, {Faculty of Engineering, University of Tokyo

>  <COMMENT>  (1360) 
SMILES=CC(C)=CCCC(C)=CCCC(C)=CCCC(C)=CCN(C1)CCN(C)C1
InChI=InChI=1S/C25H44N2/c1-22(2)10-7-11-23(3)12-8-13-24(4)14-9-15-25(5)16-17-27-20-18-26(6)19-21-27/h10,12,14,16H,7-9,11,13,15,17-21H2,1-6H3/b23-12+,24-14-,25-16+
computed SMILES=C(=C(C)C)CCC(=CCCC(=CCCC(=CCN1CCN(C)CC1)C)C)C
accession=JP010067
date=2016.01.19 (Created 2008.10.21, modified 2011.05.06)
author=KURARAY CO., LTD.
license=CC BY-NC-SA
exact mass=372.35045
ionization energy=70 eV
ion type=[M]+*
computed spectral entropy=3.449090943947412
computed normalized entropy=0.842403684284819
SPLASH=splash10-0aou-9200000000-f9b4d6926422b10685c3
submitter=submitter = University of Tokyo Team (Faculty of Engineering, University of Tokyo)
MoNA Rating=3.75

>  <NUM PEAKS>  (1360) 
60

>  <MASS SPECTRAL PEAKS>  (1360) 
27 6.3
29 9.3
30 7.4
39 0.68
41 61
42 30.8
43 40.2
44 2.76
53 11.7
55 24.9
56 65.3
57 1.61
58 86.3
59 7.7
67 20.4
68 2.12
69 99.99
70 63.9
71 14.2
72 1.68
77 5
79 10.2
80 5
81 3.1
82 9.5
83 5.1
84 4.9
85 1.09
91 5.8
93 16.7
94 5.9
95 1.5
96 14.7
97 23.8
98 8.4
99 4.92
100 84.7
101 24.9
105 4.9
107 1.13
109 9.4
110 8
111 17.2
113 1.48
119 5
121 7.4
124 9.4
135 0.83
137 4.6
153 6.1
166 9.6
167 6.52
168 8.1
179 5.3
235 35.8
236 0.66
303 19
304 4
372 21.2
373 6.2

$$$$

     RDKit          2D

 27 27  0  0  0  0  0  0  0  0999 V2000
    9.7430  -10.8754    0.0000 C   0  0  0  0  0  0  0  0  0  0  0  0
    8.4440  -13.1254    0.0000 C   0  0  0  0  0  0  0  0  0  0  0  0
    3.2478  -13.1254    0.0000 C   0  0  0  0  0  0  0  0  0  0  0  0
   -1.9483  -13.1254    0.0000 C   0  0  0  0  0  0  0  0  0  0  0  0
   -3.2474   -6.3754    0.0000 C   0  0  0  0  0  0  0  0  0  0  0  0
   -9.7426   -2.6254    0.0000 C   0  0  0  0  0  0  0  0  0  0  0  0
   -9.7431   -4.1262    0.0000 C   0  0  0  0  0  0  0  0  0  0  0  0
    5.8459  -11.6254    0.0000 C   0  0  0  0  0  0  0  0  0  0  0  0
    0.6497  -11.6254    0.0000 C   0  0  0  0  0  0  0  0  0  0  0  0
   -3.2474   -9.3754    0.0000 C   0  0  0  0  0  0  0  0  0  0  0  0
    7.1449  -10.8754    0.0000 C   0  0  0  0  0  0  0  0  0  0  0  0
    4.5468  -10.8754    0.0000 C   0  0  0  0  0  0  0  0  0  0  0  0
    1.9488  -10.8754    0.0000 C   0  0  0  0  0  0  0  0  0  0  0  0
   -0.6493  -10.8754    0.0000 C   0  0  0  0  0  0  0  0  0  0  0  0
   -3.2474  -10.8754    0.0000 C   0  0  0  0  0  0  0  0  0  0  0  0
   -4.5464   -8.6254    0.0000 C   0  0  0  0  0  0  0  0  0  0  0  0
   -8.4431   -1.8745    0.0000 C   0  0  0  0  0  0  0  0  0  0  0  0
   -5.8455   -6.3754    0.0000 C   0  0  0  0  0  0  0  0  0  0  0  0
   -8.4440   -4.8762    0.0000 C   0  0  0  0  0  0  0  0  0  0  0  0
   -5.8455   -4.8754    0.0000 C   0  0  0  0  0  0  0  0  0  0  0  0
    8.4440  -11.6254    0.0000 C   0  0  0  0  0  0  0  0  0  0  0  0
    3.2478  -11.6254    0.0000 C   0  0  0  0  0  0  0  0  0  0  0  0
   -1.9483  -11.6254    0.0000 C   0  0  0  0  0  0  0  0  0  0  0  0
   -4.5464   -7.1254    0.0000 C   0  0  0  0  0  0  0  0  0  0  0  0
   -7.1440   -2.6245    0.0000 C   0  0  0  0  0  0  0  0  0  0  0  0
   -7.1445   -4.1254    0.0000 N   0  0  0  0  0  0  0  0  0  0  0  0
   -5.8449   -1.8747    0.0000 O   0  0  0  0  0  0  0  0  0  0  0  0
  7  6  1  0
 11  8  1  0
 12  8  1  0
 13  9  1  0
 14  9  1  0
 15 10  1  0
 16 10  1  0
 17  6  1  0
 19  7  1  0
 20 18  1  0
 21  1  1  0
 21  2  1  0
 21 11  2  0
 22  3  1  0
 22 12  1  0
 13 22  2  0
 23  4  1  0
 23 14  1  0
 15 23  2  0
 24  5  1  0
 24 16  1  0
 18 24  2  0
 25 17  1  0
 26 19  1  0
 26 20  1  0
 26 25  1  0
 27 25  2  0
M  END
>  <NAME>  (1361) 
3,7,11,15-TETRAMETHYL-1-(2-OXOPYPERIDINO)-HEXADECA-2,6,10,14-TETRAENE

>  <SYNONYMS>  (1361) 


>  <SPECTRUM TYPE>  (1361) 
MS1

>  <INSTRUMENT TYPE>  (1361) 
EI-B

>  <INSTRUMENT>  (1361) 
JEOL JMS-D-300

>  <ION MODE>  (1361) 
P

>  <INCHIKEY>  (1361) 
AZXQGUBARWMYAD-RTEFFSRBSA-N

>  <FORMULA>  (1361) 
C25H41NO

>  <EXACT MASS>  (1361) 
371.318814932

>  <MW>  (1361) 
371

>  <ID>  (1361) 
JP010066

>  <CONTRIBUTOR>  (1361) 
University of Tokyo Team, {Faculty of Engineering, University of Tokyo

>  <COMMENT>  (1361) 
SMILES=CC(C)=CCCC(C)=CCCC(C)=CCCC(C)=CCN(C1)C(=O)CCC1
InChI=InChI=1S/C25H41NO/c1-21(2)11-8-12-22(3)13-9-14-23(4)15-10-16-24(5)18-20-26-19-7-6-17-25(26)27/h11,13,15,18H,6-10,12,14,16-17,19-20H2,1-5H3/b22-13+,23-15-,24-18+
computed SMILES=O=C1N(CC=C(C)CCC=C(C)CCC=C(C)CCC=C(C)C)CCCC1
accession=JP010066
date=2016.01.19 (Created 2008.10.21, modified 2011.05.06)
author=KURARAY CO., LTD.
license=CC BY-NC-SA
exact mass=371.31881
ionization energy=70 eV
ion type=[M]+*
computed spectral entropy=3.583535124555017
computed normalized entropy=0.8109672745905863
SPLASH=splash10-02t9-6900000000-99b22d2826b70a87bce3
submitter=submitter = University of Tokyo Team (Faculty of Engineering, University of Tokyo)
MoNA Rating=3.75

>  <NUM PEAKS>  (1361) 
83

>  <MASS SPECTRAL PEAKS>  (1361) 
27 4.7
28 1.7
29 7.7
30 0.39
32 2.7
39 5.4
41 36.3
42 0.78
43 12.5
44 5
53 8.3
55 2.77
56 7.2
57 4.6
67 13.6
68 1.42
69 61
70 9.2
71 4.2
77 0.42
79 7.5
80 5.5
81 20.8
82 1.23
83 7.2
84 17.4
85 4.9
91 0.56
92 2.7
93 20.4
94 5.7
95 0.95
96 3.4
97 2.4
98 8.3
99 0.4
100 40.6
101 3.2
105 5.8
107 1.05
108 3.2
109 7.5
110 3.2
111 0.26
112 99.99
113 14.8
119 6.6
120 0.21
121 10.9
122 5.7
123 5.6
124 0.97
125 2.3
126 2.4
133 4.2
134 0.41
135 24.6
136 9.8
137 4.2
138 0.64
147 4.9
148 4.9
149 2.9
150 0.55
152 8
153 4
161 3.9
165 0.68
166 90.9
167 16.7
168 4.8
178 0.49
180 1.3
192 2.6
203 4.9
234 7.36
235 13.8
236 3.9
272 2.7
302 1.1
303 2.5
371 7.3
372 1.8

$$$$

     RDKit          2D

 26 25  0  0  0  0  0  0  0  0999 V2000
  -22.0836   13.5000    0.0000 C   0  0  0  0  0  0  0  0  0  0  0  0
    7.7942   12.7500    0.0000 C   0  0  0  0  0  0  0  0  0  0  0  0
  -20.7846   12.7500    0.0000 C   0  0  0  0  0  0  0  0  0  0  0  0
    6.4952   13.5000    0.0000 C   0  0  0  0  0  0  0  0  0  0  0  0
  -19.4856   13.5000    0.0000 C   0  0  0  0  0  0  0  0  0  0  0  0
    5.1962   12.7500    0.0000 C   0  0  0  0  0  0  0  0  0  0  0  0
  -18.1865   12.7500    0.0000 C   0  0  0  0  0  0  0  0  0  0  0  0
    3.8971   13.5000    0.0000 C   0  0  0  0  0  0  0  0  0  0  0  0
  -16.8875   13.5000    0.0000 C   0  0  0  0  0  0  0  0  0  0  0  0
    2.5981   12.7500    0.0000 C   0  0  0  0  0  0  0  0  0  0  0  0
  -15.5885   12.7500    0.0000 C   0  0  0  0  0  0  0  0  0  0  0  0
    1.2990   13.5000    0.0000 C   0  0  0  0  0  0  0  0  0  0  0  0
   -7.7942   12.7500    0.0000 C   0  0  0  0  0  0  0  0  0  0  0  0
   -6.4952   13.5000    0.0000 C   0  0  0  0  0  0  0  0  0  0  0  0
  -14.2894   13.5000    0.0000 C   0  0  0  0  0  0  0  0  0  0  0  0
    0.0000   12.7500    0.0000 C   0  0  0  0  0  0  0  0  0  0  0  0
   -9.0933   13.5000    0.0000 C   0  0  0  0  0  0  0  0  0  0  0  0
   -5.1962   12.7500    0.0000 C   0  0  0  0  0  0  0  0  0  0  0  0
  -12.9904   12.7500    0.0000 C   0  0  0  0  0  0  0  0  0  0  0  0
   -1.2990   13.5000    0.0000 C   0  0  0  0  0  0  0  0  0  0  0  0
  -10.3923   12.7500    0.0000 C   0  0  0  0  0  0  0  0  0  0  0  0
   -3.8971   13.5000    0.0000 C   0  0  0  0  0  0  0  0  0  0  0  0
  -10.3923   11.2500    0.0000 O   0  0  0  0  0  0  0  0  0  0  0  0
   -3.8971   15.0000    0.0000 O   0  0  0  0  0  0  0  0  0  0  0  0
  -11.6913   13.5000    0.0000 O   0  0  0  0  0  0  0  0  0  0  0  0
   -2.5981   12.7500    0.0000 O   0  0  0  0  0  0  0  0  0  0  0  0
  3  1  1  0
  4  2  1  0
  5  3  1  0
  6  4  1  0
  7  5  1  0
  8  6  1  0
  9  7  1  0
 10  8  1  0
 11  9  1  0
 12 10  1  0
 14 13  1  0
 15 11  1  0
 16 12  1  0
 17 13  1  0
 18 14  1  0
 19 15  1  0
 20 16  1  0
 21 17  1  0
 22 18  1  0
 23 21  2  0
 24 22  2  0
 25 19  1  0
 25 21  1  0
 26 20  1  0
 26 22  1  0
M  END
>  <NAME>  (1362) 
DIOCTYL ADIPATE

>  <SYNONYMS>  (1362) 
ADIPIC ACID DIOCTHLESTER

>  <SPECTRUM TYPE>  (1362) 
MS1

>  <INSTRUMENT TYPE>  (1362) 
EI-B

>  <INSTRUMENT>  (1362) 
JEOL JMS-D-300

>  <ION MODE>  (1362) 
P

>  <INCHIKEY>  (1362) 
NEHDRDVHPTWWFG-UHFFFAOYSA-N

>  <FORMULA>  (1362) 
C22H42O4

>  <EXACT MASS>  (1362) 
370.308309824

>  <MW>  (1362) 
370

>  <ID>  (1362) 
JP010064

>  <CONTRIBUTOR>  (1362) 
University of Tokyo Team, {Faculty of Engineering, University of Tokyo

>  <COMMENT>  (1362) 
SMILES=CCCCCCCCOC(=O)CCCCC(=O)OCCCCCCCC
InChI=InChI=1S/C22H42O4/c1-3-5-7-9-11-15-19-25-21(23)17-13-14-18-22(24)26-20-16-12-10-8-6-4-2/h3-20H2,1-2H3
computed SMILES=O=C(OCCCCCCCC)CCCCC(=O)OCCCCCCCC
accession=JP010064
date=2016.01.19 (Created 2008.10.21, modified 2011.05.06)
author=KURARAY CO., LTD.
license=CC BY-NC-SA
exact mass=370.30831
ionization energy=70 eV
ion type=[M]+*
computed spectral entropy=3.104964532841365
computed normalized entropy=0.7783847958769555
SPLASH=splash10-00b9-7900000000-92f135b67c9cebe254e4
submitter=submitter = University of Tokyo Team (Faculty of Engineering, University of Tokyo)
MoNA Rating=3.75

>  <NUM PEAKS>  (1362) 
54

>  <MASS SPECTRAL PEAKS>  (1362) 
27 1.4
28 51
29 5
32 2.01
39 1.9
41 15
42 1.9
43 1.78
53 2.1
55 19.9
56 8.7
57 3.9
58 2.1
59 3.8
68 2.5
69 0.67
70 31.5
71 30
82 2.9
83 1.4
84 8.6
87 7.5
96 1.4
97 0.32
100 6.9
101 7.5
102 5.2
111 1.01
112 30.4
113 14
121 18.2
127 0.13
128 6.2
129 99.99
130 10.4
135 0.32
136 2
139 5.2
141 1.7
142 0.57
146 5.2
147 14.5
148 4.5
150 0.13
151 2.8
173 4.1
175 1.6
178 0.44
179 2
195 2.2
207 1.5
241 0.81
259 4.5
270 3.1

$$$$

     RDKit          2D

 26 25  0  0  0  0  0  0  0  0999 V2000
  -15.5885    9.0000    0.0000 C   0  0  0  0  0  0  0  0  0  0  0  0
  -11.6913   11.2500    0.0000 C   0  0  0  0  0  0  0  0  0  0  0  0
    5.1962    9.0000    0.0000 C   0  0  0  0  0  0  0  0  0  0  0  0
    3.8971    6.7500    0.0000 C   0  0  0  0  0  0  0  0  0  0  0  0
   -3.8971   11.2500    0.0000 C   0  0  0  0  0  0  0  0  0  0  0  0
   -6.4952   11.2500    0.0000 C   0  0  0  0  0  0  0  0  0  0  0  0
   -1.2990    6.7500    0.0000 C   0  0  0  0  0  0  0  0  0  0  0  0
   -6.4952    6.7500    0.0000 C   0  0  0  0  0  0  0  0  0  0  0  0
  -14.2894    8.2500    0.0000 C   0  0  0  0  0  0  0  0  0  0  0  0
  -10.3923   10.5000    0.0000 C   0  0  0  0  0  0  0  0  0  0  0  0
  -12.9904    9.0000    0.0000 C   0  0  0  0  0  0  0  0  0  0  0  0
    1.2990    8.2500    0.0000 C   0  0  0  0  0  0  0  0  0  0  0  0
    2.5981    9.0000    0.0000 C   0  0  0  0  0  0  0  0  0  0  0  0
    0.0000    9.0000    0.0000 C   0  0  0  0  0  0  0  0  0  0  0  0
  -11.6913    8.2500    0.0000 C   0  0  0  0  0  0  0  0  0  0  0  0
   -2.5981    9.0000    0.0000 C   0  0  0  0  0  0  0  0  0  0  0  0
   -3.8971    8.2500    0.0000 C   0  0  0  0  0  0  0  0  0  0  0  0
    3.8971    8.2500    0.0000 C   0  0  0  0  0  0  0  0  0  0  0  0
   -5.1962   10.5000    0.0000 C   0  0  0  0  0  0  0  0  0  0  0  0
   -1.2990    8.2500    0.0000 C   0  0  0  0  0  0  0  0  0  0  0  0
   -6.4952    8.2500    0.0000 C   0  0  0  0  0  0  0  0  0  0  0  0
  -10.3923    9.0000    0.0000 C   0  0  0  0  0  0  0  0  0  0  0  0
   -5.1962    9.0000    0.0000 C   0  0  0  0  0  0  0  0  0  0  0  0
   -9.0933    8.2500    0.0000 C   0  0  0  0  0  0  0  0  0  0  0  0
   -9.0933    6.7500    0.0000 O   0  0  0  0  0  0  0  0  0  0  0  0
   -7.7942    9.0000    0.0000 O   0  0  0  0  0  0  0  0  0  0  0  0
  9  1  1  0
 10  2  1  0
 11  9  1  0
 13 12  1  0
 14 12  1  0
 15 11  1  0
 17 16  1  0
 18  3  1  0
 18  4  1  0
 18 13  1  0
 19  5  1  0
 19  6  1  0
 20  7  1  0
 20 14  1  0
 20 16  1  0
 21  8  1  0
 22 10  1  0
 22 15  1  0
 23 17  1  0
 23 19  1  0
 23 21  1  0
 24 22  1  0
 25 24  2  0
 26 21  1  0
 26 24  1  0
M  END
>  <NAME>  (1363) 
2-ISOPROPYL-1,5,9-TRIMETHYLDECANYL 2-ETHYLHEXANOATE

>  <SYNONYMS>  (1363) 


>  <SPECTRUM TYPE>  (1363) 
MS1

>  <INSTRUMENT TYPE>  (1363) 
EI-B

>  <INSTRUMENT>  (1363) 
JEOL JMS-D-300

>  <ION MODE>  (1363) 
P

>  <INCHIKEY>  (1363) 
SYALHZYVHKJYEJ-UHFFFAOYSA-N

>  <FORMULA>  (1363) 
C24H48O2

>  <EXACT MASS>  (1363) 
368.365430776

>  <MW>  (1363) 
368

>  <ID>  (1363) 
JP010063

>  <CONTRIBUTOR>  (1363) 
University of Tokyo Team, {Faculty of Engineering, University of Tokyo

>  <COMMENT>  (1363) 
SMILES=CCCCC(CC)C(=O)OC(C)C(CCC(C)CCCC(C)C)C(C)C
InChI=InChI=1S/C24H48O2/c1-9-11-15-22(10-2)24(25)26-21(8)23(19(5)6)17-16-20(7)14-12-13-18(3)4/h18-23H,9-17H2,1-8H3
computed SMILES=O=C(OC(C)C(CCC(C)CCCC(C)C)C(C)C)C(CC)CCCC
author=KURARAY CO., LTD.
accession=JP010063
date=2016.01.19 (Created 2008.10.21, modified 2011.05.06)
license=CC BY-NC-SA
exact mass=368.36543
ionization energy=70 eV
ion type=[M]+*
computed spectral entropy=2.451241367342503
computed normalized entropy=0.6951193306048356
SPLASH=splash10-056r-9700000000-4e64263a27cf963680d1
submitter=submitter = University of Tokyo Team (Faculty of Engineering, University of Tokyo)
MoNA Rating=3.75

>  <NUM PEAKS>  (1363) 
34

>  <MASS SPECTRAL PEAKS>  (1363) 
27 1.2
29 2.4
41 6.3
43 1.67
55 10.5
56 6.6
57 51.8
58 0.2
68 1.7
69 11.2
70 5.4
71 1.39
82 2.1
83 9.1
84 7.7
85 1.02
97 3.7
98 7.2
99 25.1
100 0.15
111 3.2
113 3
124 1.7
125 0.17
126 3.9
127 99.99
128 9.3
139 0.19
141 2.3
145 2.8
171 3.4
224 0.65
225 2.7
324 0.8

$$$$

     RDKit          2D

 26 27  0  0  0  0  0  0  0  0999 V2000
   11.2323    8.7514    0.0000 C   0  0  0  0  0  0  0  0  0  0  0  0
   11.6840    6.1929    0.0000 C   0  0  0  0  0  0  0  0  0  0  0  0
   -3.7389    1.4102    0.0000 C   0  0  0  0  0  0  0  0  0  0  0  0
   -1.1400    2.9100    0.0000 C   0  0  0  0  0  0  0  0  0  0  0  0
   -1.1400   -3.0900    0.0000 C   0  0  0  0  0  0  0  0  0  0  0  0
    4.2372    0.3997    0.0000 C   0  0  0  0  0  0  0  0  0  0  0  0
    1.4600   -1.5900    0.0000 C   0  0  0  0  0  0  0  0  0  0  0  0
    2.7600   -0.8400    0.0000 C   0  0  0  0  0  0  0  0  0  0  0  0
    3.2727    2.0696    0.0000 C   0  0  0  0  0  0  0  0  0  0  0  0
    4.7499    2.3304    0.0000 C   0  0  0  0  0  0  0  0  0  0  0  0
    8.7297    5.6713    0.0000 C   0  0  0  0  0  0  0  0  0  0  0  0
    6.7398    4.0009    0.0000 C   0  0  0  0  0  0  0  0  0  0  0  0
   10.7195    7.3417    0.0000 C   0  0  0  0  0  0  0  0  0  0  0  0
   -2.4400    0.6600    0.0000 C   0  0  0  0  0  0  0  0  0  0  0  0
   -1.1400    1.4100    0.0000 C   0  0  0  0  0  0  0  0  0  0  0  0
   -1.1400   -1.5900    0.0000 C   0  0  0  0  0  0  0  0  0  0  0  0
    7.2525    5.4105    0.0000 C   0  0  0  0  0  0  0  0  0  0  0  0
    0.1600   -0.8400    0.0000 C   0  0  0  0  0  0  0  0  0  0  0  0
   -2.4400   -0.8400    0.0000 C   0  0  0  0  0  0  0  0  0  0  0  0
    0.1600    0.6600    0.0000 C   0  0  0  0  0  0  0  0  0  0  0  0
    2.7600    0.6600    0.0000 C   0  0  0  0  0  0  0  0  0  0  0  0
    9.2424    7.0810    0.0000 N   0  0  0  0  0  0  0  0  0  0  0  0
    6.2881    6.5594    0.0000 O   0  0  0  0  0  0  0  0  0  0  0  0
   -3.7389   -1.5902    0.0000 O   0  0  0  0  0  0  0  0  0  0  0  0
    5.2626    3.7401    0.0000 O   0  0  0  0  0  0  0  0  0  0  0  0
    1.4600    1.4100    0.0000 O   0  0  0  0  0  0  0  0  0  0  0  0
  8  7  1  0
 10  9  1  0
 13  1  1  0
 13  2  1  0
 14  3  1  0
 15  4  1  0
 15 14  1  0
 16  5  1  0
 17 11  1  0
 17 12  1  0
 18  7  1  0
 18 16  2  0
 19 14  2  0
 19 16  1  0
 20 15  2  0
 20 18  1  0
 21  6  1  0
 21  8  1  0
 21  9  1  0
 22 11  1  0
 22 13  1  0
 23 17  1  0
 24 19  1  0
 25 10  1  0
 25 12  1  0
 26 20  1  0
 26 21  1  0
M  END
>  <NAME>  (1364) 
6-HYDROXY-3,4-DIHYDRO-2-(3-ISOPROPYLAMINO-2-HYDROXYPROPYLOXY)ETHYL-2H-1-BENZOPYRAN

>  <SYNONYMS>  (1364) 


>  <SPECTRUM TYPE>  (1364) 
MS1

>  <INSTRUMENT TYPE>  (1364) 
EI-B

>  <INSTRUMENT>  (1364) 
JEOL JMS-D-300

>  <ION MODE>  (1364) 
P

>  <INCHIKEY>  (1364) 
APMGJFMVYQXFIP-UHFFFAOYSA-N

>  <FORMULA>  (1364) 
C21H35NO4

>  <EXACT MASS>  (1364) 
365.25660860000005

>  <MW>  (1364) 
365

>  <ID>  (1364) 
JP010062

>  <CONTRIBUTOR>  (1364) 
University of Tokyo Team, {Faculty of Engineering, University of Tokyo

>  <COMMENT>  (1364) 
SMILES=CC(C)NCC(O)COCCC(C)(C2)Oc(c(C)1)c(C2)c(C)c(O)c(C)1
InChI=InChI=1S/C21H35NO4/c1-13(2)22-11-17(23)12-25-10-9-21(6)8-7-18-16(5)19(24)14(3)15(4)20(18)26-21/h13,17,22-24H,7-12H2,1-6H3
computed SMILES=OC=1C(=C(C=2OC(C)(CCOCC(O)CNC(C)C)CCC2C1C)C)C
accession=JP010062
date=2016.01.19 (Created 2008.10.21, modified 2011.05.06)
author=KURARAY CO., LTD.
license=CC BY-NC-SA
exact mass=365.25661
ionization energy=70 eV
ion type=[M]+*
computed spectral entropy=2.249482139595607
computed normalized entropy=0.6433511439775481
SPLASH=splash10-00di-9210000000-950bad82025e92f6dc9d
submitter=submitter = University of Tokyo Team (Faculty of Engineering, University of Tokyo)
MoNA Rating=3.75

>  <NUM PEAKS>  (1364) 
33

>  <MASS SPECTRAL PEAKS>  (1364) 
28 1.1
30 12.6
41 3
43 0.41
44 2.1
56 1.5
58 5.6
60 0.23
69 2.2
72 99.99
73 5.4
81 0.19
91 1.2
102 7.9
116 1.8
121 0.22
134 3.1
136 2
137 1.3
160 0.13
164 8.9
165 12.9
166 1.9
177 0.14
189 1.4
202 17.1
203 3.5
205 0.2
232 3.1
250 2.3
350 2.7
365 2.17
366 5

$$$$

     RDKit          2D

 25 24  0  0  0  0  0  0  0  0999 V2000
    6.4450    9.8370    0.0000 C   0  0  0  0  0  0  0  0  0  0  0  0
    5.1459   12.0870    0.0000 C   0  0  0  0  0  0  0  0  0  0  0  0
   -0.0502   12.0870    0.0000 C   0  0  0  0  0  0  0  0  0  0  0  0
   -5.2464   12.0870    0.0000 C   0  0  0  0  0  0  0  0  0  0  0  0
  -10.4425   12.0870    0.0000 C   0  0  0  0  0  0  0  0  0  0  0  0
  -14.8887   11.8861    0.0000 C   0  0  0  0  0  0  0  0  0  0  0  0
  -16.9377   11.3370    0.0000 C   0  0  0  0  0  0  0  0  0  0  0  0
  -16.3887    9.2880    0.0000 C   0  0  0  0  0  0  0  0  0  0  0  0
    2.5478   10.5870    0.0000 C   0  0  0  0  0  0  0  0  0  0  0  0
   -2.6483   10.5870    0.0000 C   0  0  0  0  0  0  0  0  0  0  0  0
   -7.8445   10.5870    0.0000 C   0  0  0  0  0  0  0  0  0  0  0  0
    3.8469    9.8370    0.0000 C   0  0  0  0  0  0  0  0  0  0  0  0
    1.2488    9.8370    0.0000 C   0  0  0  0  0  0  0  0  0  0  0  0
   -1.3493    9.8370    0.0000 C   0  0  0  0  0  0  0  0  0  0  0  0
   -3.9474    9.8370    0.0000 C   0  0  0  0  0  0  0  0  0  0  0  0
   -6.5454    9.8370    0.0000 C   0  0  0  0  0  0  0  0  0  0  0  0
   -9.1435    9.8370    0.0000 C   0  0  0  0  0  0  0  0  0  0  0  0
  -11.7416    9.8370    0.0000 C   0  0  0  0  0  0  0  0  0  0  0  0
  -13.0406   10.5870    0.0000 C   0  0  0  0  0  0  0  0  0  0  0  0
    5.1459   10.5870    0.0000 C   0  0  0  0  0  0  0  0  0  0  0  0
   -0.0502   10.5870    0.0000 C   0  0  0  0  0  0  0  0  0  0  0  0
   -5.2464   10.5870    0.0000 C   0  0  0  0  0  0  0  0  0  0  0  0
  -10.4425   10.5870    0.0000 C   0  0  0  0  0  0  0  0  0  0  0  0
  -14.3397    9.8370    0.0000 O   0  0  0  0  0  0  0  0  0  0  0  0
  -15.6387   10.5870    0.0000 Si  0  0  0  0  0  4  0  0  0  0  0  0
 12  9  1  0
 13  9  1  0
 14 10  1  0
 15 10  1  0
 16 11  1  0
 17 11  1  0
 19 18  1  0
 20  1  1  0
 20  2  1  0
 20 12  2  0
 21  3  1  0
 21 13  1  0
 14 21  2  0
 22  4  1  0
 22 15  1  0
 16 22  2  0
 23  5  1  0
 23 17  1  0
 18 23  2  0
 24 19  1  0
 25  6  1  0
 25  7  1  0
 25  8  1  0
 25 24  1  0
M  END
>  <NAME>  (1365) 
3,7,11,15-TETRAMETHYL-2,6,10,14-HEXADECATETRAENE-1-OL TRIMETHYLSILYL ETHER

>  <SYNONYMS>  (1365) 


>  <SPECTRUM TYPE>  (1365) 
MS1

>  <INSTRUMENT TYPE>  (1365) 
EI-B

>  <INSTRUMENT>  (1365) 
JEOL JMS-D-300

>  <ION MODE>  (1365) 
P

>  <INCHIKEY>  (1365) 
OGLCJQCKGRHUOG-INVBOZNNSA-N

>  <FORMULA>  (1365) 
C23H42OSi

>  <EXACT MASS>  (1365) 
362.30049249399997

>  <MW>  (1365) 
362

>  <ID>  (1365) 
JP010061

>  <CONTRIBUTOR>  (1365) 
University of Tokyo Team, {Faculty of Engineering, University of Tokyo

>  <COMMENT>  (1365) 
SMILES=CC(C)=CCCC(C)=CCCC(C)=CCCC(C)=CCO[Si](C)(C)C
InChI=InChI=1S/C23H42OSi/c1-20(2)12-9-13-21(3)14-10-15-22(4)16-11-17-23(5)18-19-24-25(6,7)8/h12,14,16,18H,9-11,13,15,17,19H2,1-8H3/b21-14+,22-16+,23-18+
computed SMILES=O(CC=C(C)CCC=C(C)CCC=C(C)CCC=C(C)C)[Si](C)(C)C
accession=JP010061
date=2016.01.19 (Created 2008.10.21, modified 2011.05.06)
author=KURARAY CO., LTD.
license=CC BY-NC-SA
exact mass=362.30049
ionization energy=70 eV
ion type=[M]+*
computed spectral entropy=3.353421312337884
computed normalized entropy=0.7920021163135232
SPLASH=splash10-01b9-9400000000-8346f437b67dca087170
submitter=submitter = University of Tokyo Team (Faculty of Engineering, University of Tokyo)
MoNA Rating=3.75

>  <NUM PEAKS>  (1365) 
69

>  <MASS SPECTRAL PEAKS>  (1365) 
29 4.3
32 1.9
39 2.5
41 2.7
43 5
45 3.5
53 5
55 1.43
57 3.4
67 10.1
68 11.4
69 99.99
70 6.6
73 46.5
74 4.2
75 2.95
76 2.1
77 5.3
79 7.4
80 1.05
81 45.5
82 6.5
83 3.2
91 0.44
92 2.7
93 28.4
94 4.9
95 1.66
96 1.9
97 1.6
103 6.6
105 0.66
107 17.5
108 3.2
109 15
119 0.83
120 3.2
121 13.1
122 6.6
123 0.94
132 1.4
133 6.2
134 4.2
135 1.67
136 9
137 8.6
143 10.8
144 0.13
145 1.5
147 4.8
148 2.9
149 0.31
155 1.5
156 11.5
157 4.1
159 0.12
161 5.1
169 7
177 1.4
181 0.24
187 1.3
189 1.4
191 1.4
203 0.64
209 1.9
229 3.6
272 2.8
293 0.18
362 1.5

$$$$

     RDKit          2D

 26 29  0  0  1  0  0  0  0  0999 V2000
    3.2335    4.5499    0.0000 C   0  0  0  0  0  0  0  0  0  0  0  0
   -1.5400    0.8000    0.0000 C   0  0  0  0  0  0  0  0  0  0  0  0
    2.5172    3.0417    0.0000 C   0  0  0  0  0  0  0  0  0  0  0  0
   -0.2400   -2.9500    0.0000 C   0  0  0  0  0  0  0  0  0  0  0  0
    1.0600   -2.2000    0.0000 C   0  0  0  0  0  0  0  0  0  0  0  0
    4.6700    0.8000    0.0000 C   0  0  0  0  0  0  0  0  0  0  0  0
    3.7800   -0.4200    0.0000 C   0  0  0  0  0  0  0  0  0  0  0  0
   -4.1400   -0.7000    0.0000 C   0  0  0  0  0  0  0  0  0  0  0  0
   -2.8400    0.0500    0.0000 C   0  0  0  0  0  0  0  0  0  0  0  0
   -2.8400   -2.9500    0.0000 C   0  0  0  0  0  0  0  0  0  0  0  0
    1.0600    2.3000    0.0000 C   0  0  0  0  0  0  0  0  0  0  0  0
    4.2400    3.4377    0.0000 C   0  0  0  0  0  0  0  0  0  0  0  0
   -1.5400   -2.2000    0.0000 C   0  0  0  0  0  0  0  0  0  0  0  0
   -4.1400   -2.2000    0.0000 C   0  0  0  0  0  0  0  0  0  0  0  0
    1.0600   -0.7000    0.0000 C   0  0  0  0  0  0  0  0  0  0  0  0
    3.7800    2.0100    0.0000 C   0  0  0  0  0  0  0  0  0  0  0  0
    2.3600    0.0500    0.0000 C   0  0  0  0  0  0  0  0  0  0  0  0
   -0.2400    1.5500    0.0000 C   0  0  0  0  0  0  0  0  0  0  0  0
   -0.2400    0.0500    0.0000 C   0  0  0  0  0  0  0  0  0  0  0  0
    5.7064    3.7533    0.0000 C   0  0  0  0  0  0  0  0  0  0  0  0
   -1.5400   -0.7000    0.0000 C   0  0  0  0  0  0  0  0  0  0  0  0
    2.3600    1.5500    0.0000 C   0  0  0  0  0  0  0  0  0  0  0  0
   -5.4389   -2.9502    0.0000 O   0  0  0  0  0  0  0  0  0  0  0  0
   -1.5389    2.3002    0.0000 O   0  0  0  0  0  0  0  0  0  0  0  0
    6.7129    2.6410    0.0000 O   0  0  0  0  0  0  0  0  0  0  0  0
    6.1664    5.1810    0.0000 O   0  0  0  0  0  0  0  0  0  0  0  0
  5  4  1  0
  7  6  1  0
  9  8  1  0
 12  1  1  0
 13  4  1  0
 13 10  1  0
 14  8  1  0
 14 10  1  0
 15  5  1  6
 16  6  1  0
 16 12  1  1
 17  7  1  1
 17 15  1  0
 18 11  1  0
 19 15  1  0
 19 18  1  1
 20 12  1  0
 21  2  1  1
 21  9  1  0
 21 13  1  0
 21 19  1  0
 22  3  1  1
 22 11  1  0
 22 16  1  0
 22 17  1  0
 23 14  2  0
 24 18  1  0
 25 20  2  0
 26 20  1  0
M  END
>  <NAME>  (1366) 
20-CARBOXY-11-HYDROXY-3-OXO-PREGNANE

>  <SYNONYMS>  (1366) 


>  <SPECTRUM TYPE>  (1366) 
MS1

>  <INSTRUMENT TYPE>  (1366) 
EI-B

>  <INSTRUMENT>  (1366) 
JEOL JMS-D-300

>  <ION MODE>  (1366) 
P

>  <INCHIKEY>  (1366) 
NCZFUIRADBGZAC-RCXLZMTBSA-N

>  <FORMULA>  (1366) 
C22H34O4

>  <EXACT MASS>  (1366) 
362.245709568

>  <MW>  (1366) 
362

>  <ID>  (1366) 
JP010060

>  <CONTRIBUTOR>  (1366) 
University of Tokyo Team, {Faculty of Engineering, University of Tokyo

>  <COMMENT>  (1366) 
SMILES=OC(=O)C(C)C(C4)C(C)(C3)C([H])(C4)C([H])(C1)C([H])(C(O)3)C(C)(C2)C(CC(=O)C2)C1
InChI=InChI=1S/C22H34O4/c1-12(20(25)26)16-6-7-17-15-5-4-13-10-14(23)8-9-21(13,2)19(15)18(24)11-22(16,17)3/h12-13,15-19,24H,4-11H2,1-3H3,(H,25,26)/t12?,13?,15-,16+,17-,18?,19+,21-,22+/m0/s1
computed SMILES=O=C(O)C(C)C1CCC2C3CCC4CC(=O)CCC4(C)C3C(O)CC12C
accession=JP010060
date=2016.01.19 (Created 2008.10.21, modified 2011.05.06)
author=KURARAY CO., LTD.
license=CC BY-NC-SA
exact mass=362.24571
ionization energy=70 eV
ion type=[M]+*
computed spectral entropy=4.104667370557976
computed normalized entropy=0.9167653765258083
SPLASH=splash10-0c0s-5943000000-dcb85e3fb3bf549e5dd2
submitter=submitter = University of Tokyo Team (Faculty of Engineering, University of Tokyo)
MoNA Rating=3.75

>  <NUM PEAKS>  (1366) 
88

>  <MASS SPECTRAL PEAKS>  (1366) 
41 28.5
43 24.3
53 11.6
55 5.11
67 29
69 19.5
77 14.3
79 3.02
81 62.7
83 13.4
84 9.9
91 2.98
93 40.3
94 10.8
95 35.2
97 1.39
105 34.8
106 10.5
107 44.8
108 2.17
109 33.1
110 11.7
111 13.4
119 2.99
120 12.8
121 46.6
122 26.3
123 2.15
124 19.1
131 16.4
133 24.9
134 1.23
135 22.7
137 15.7
143 9.3
145 3
146 11.7
147 39.5
148 10.4
149 1.33
157 11.7
159 24.7
160 10
161 2.84
163 13
171 10.3
173 16.6
174 0.87
177 14.2
187 9.7
189 11.8
191 0.93
199 15.2
201 24.7
203 8.6
213 1
215 11.3
217 16.7
218 8.4
219 1.12
229 15.9
231 7.6
233 9
244 0.78
247 31.4
248 16.1
253 28.4
255 0.73
260 9.2
269 12.3
270 31.7
271 9.86
272 24.4
273 12.3
274 7.7
287 0.1
288 6.9
298 10.7
300 9.2
301 0.97
316 24.6
326 24.7
327 8.2
344 4.12
345 11
347 11
362 99.99
363 11

$$$$

     RDKit          2D

 26 26  0  0  0  0  0  0  0  0999 V2000
  -20.1611   10.9200    0.0000 C   0  0  0  0  0  0  0  0  0  0  0  0
  -18.8620   11.6700    0.0000 C   0  0  0  0  0  0  0  0  0  0  0  0
  -17.5630   10.9200    0.0000 C   0  0  0  0  0  0  0  0  0  0  0  0
  -16.2640   11.6700    0.0000 C   0  0  0  0  0  0  0  0  0  0  0  0
  -14.9649   10.9200    0.0000 C   0  0  0  0  0  0  0  0  0  0  0  0
  -13.6659   11.6700    0.0000 C   0  0  0  0  0  0  0  0  0  0  0  0
  -12.3668   10.9200    0.0000 C   0  0  0  0  0  0  0  0  0  0  0  0
  -11.0678   11.6700    0.0000 C   0  0  0  0  0  0  0  0  0  0  0  0
   -9.7688   10.9200    0.0000 C   0  0  0  0  0  0  0  0  0  0  0  0
   -8.4697   11.6700    0.0000 C   0  0  0  0  0  0  0  0  0  0  0  0
   -7.1707   10.9200    0.0000 C   0  0  0  0  0  0  0  0  0  0  0  0
   -5.8717   11.6700    0.0000 C   0  0  0  0  0  0  0  0  0  0  0  0
   -4.5726   10.9200    0.0000 C   0  0  0  0  0  0  0  0  0  0  0  0
   -3.2736   11.6700    0.0000 C   0  0  0  0  0  0  0  0  0  0  0  0
   -1.9745   10.9200    0.0000 C   0  0  0  0  0  0  0  0  0  0  0  0
   -0.6755   11.6700    0.0000 C   0  0  0  0  0  0  0  0  0  0  0  0
    0.6235   10.9200    0.0000 C   0  0  0  0  0  0  0  0  0  0  0  0
    1.9226   11.6700    0.0000 C   0  0  0  0  0  0  0  0  0  0  0  0
    7.4452    9.1155    0.0000 C   0  0  0  0  0  0  0  0  0  0  0  0
    8.1952   10.4145    0.0000 C   0  0  0  0  0  0  0  0  0  0  0  0
    3.2216   10.9200    0.0000 C   0  0  0  0  0  0  0  0  0  0  0  0
    5.9768    9.4321    0.0000 C   0  0  0  0  0  0  0  0  0  0  0  0
    7.1868   11.5279    0.0000 C   0  0  0  0  0  0  0  0  0  0  0  0
    4.5207   11.6700    0.0000 C   0  0  0  0  0  0  0  0  0  0  0  0
    5.8197   10.9200    0.0000 N   0  0  0  0  0  0  0  0  0  0  0  0
    4.5207   13.1700    0.0000 O   0  0  0  0  0  0  0  0  0  0  0  0
  2  1  1  0
  3  2  1  0
  4  3  1  0
  5  4  1  0
  6  5  1  0
  7  6  1  0
  8  7  1  0
  9  8  1  0
 10  9  1  0
 11 10  1  0
 12 11  1  0
 13 12  1  0
 14 13  1  0
 15 14  1  0
 16 15  1  0
 16 17  2  0
 18 17  1  0
 20 19  1  0
 18 21  2  0
 22 19  1  0
 23 20  1  0
 24 21  1  0
 25 22  1  0
 25 23  1  0
 25 24  1  0
 26 24  2  0
M  END
>  <NAME>  (1367) 
1-OXO-1-PYRRORIDINO-ICOSA-2,4-DIENE

>  <SYNONYMS>  (1367) 


>  <SPECTRUM TYPE>  (1367) 
MS1

>  <INSTRUMENT TYPE>  (1367) 
EI-B

>  <INSTRUMENT>  (1367) 
JEOL JMS-D-300

>  <ION MODE>  (1367) 
P

>  <INCHIKEY>  (1367) 
RIDFJCCEYZWOSP-RAISGICESA-N

>  <FORMULA>  (1367) 
C24H43NO

>  <EXACT MASS>  (1367) 
361.334464996

>  <MW>  (1367) 
361

>  <ID>  (1367) 
JP010059

>  <CONTRIBUTOR>  (1367) 
University of Tokyo Team, {Faculty of Engineering, University of Tokyo

>  <COMMENT>  (1367) 
SMILES=CCCCCCCCCCCCCCCC=CC=CC(=O)N(C1)CCC1
InChI=InChI=1S/C24H43NO/c1-2-3-4-5-6-7-8-9-10-11-12-13-14-15-16-17-18-21-24(26)25-22-19-20-23-25/h16-18,21H,2-15,19-20,22-23H2,1H3/b17-16+,21-18+
computed SMILES=O=C(C=CC=CCCCCCCCCCCCCCCC)N1CCCC1
accession=JP010059
date=2016.01.19 (Created 2008.10.21, modified 2011.05.06)
author=KURARAY CO., LTD.
license=CC BY-NC-SA
exact mass=361.33447
ionization energy=70 eV
ion type=[M]+*
computed spectral entropy=3.4160695212503196
computed normalized entropy=0.7912168907981848
SPLASH=splash10-0w29-9811000000-422300a32c9e7587cd6e
submitter=submitter = University of Tokyo Team (Faculty of Engineering, University of Tokyo)
MoNA Rating=3.75

>  <NUM PEAKS>  (1367) 
75

>  <MASS SPECTRAL PEAKS>  (1367) 
27 2.4
29 6.5
30 1.2
39 0.19
41 15.8
42 1.9
43 22.7
53 0.67
54 1.6
55 31.3
56 4
57 0.77
66 5.7
67 13.7
68 2.6
69 0.79
70 26.5
71 7.1
72 7.6
77 0.27
79 7.4
80 2.7
81 41.6
82 0.58
83 7.1
91 1.6
93 2.8
94 0.6
95 13.3
96 3.4
97 3.5
98 3.06
107 6.1
108 2
109 4.1
110 0.19
111 1.1
113 48.3
114 5
121 0.19
122 2.1
123 2.6
124 5.1
126 0.44
136 5.3
137 4.3
138 2.7
139 0.27
150 99.99
151 15.2
152 6.6
165 1.44
166 1.8
179 19.2
180 3.8
193 0.62
194 2.3
207 4.7
221 4.5
235 0.39
249 3.2
263 2.9
277 3
291 0.37
292 9.1
293 2.1
295 1.8
305 0.33
319 2.9
333 3.3
347 1.3
361 0.77
362 33
363 10.1
364 1.3

$$$$

     RDKit          2D

 27 29  0  0  0  0  0  0  0  0999 V2000
    0.2080   -2.8325    0.0000 C   0  0  0  0  0  0  0  0  0  0  0  0
    0.1900    3.1254    0.0000 C   0  0  0  0  0  0  0  0  0  0  0  0
   -2.3711    1.6300    0.0000 C   0  0  0  0  0  0  0  0  0  0  0  0
    8.0739    3.1657    0.0000 C   0  0  0  0  0  0  0  0  0  0  0  0
   -7.5753   -2.8688    0.0000 C   0  0  0  0  0  0  0  0  0  0  0  0
    6.7758    3.9189    0.0000 C   0  0  0  0  0  0  0  0  0  0  0  0
    8.0717    1.6649    0.0000 C   0  0  0  0  0  0  0  0  0  0  0  0
   -6.2745   -3.6174    0.0000 C   0  0  0  0  0  0  0  0  0  0  0  0
   -7.5783   -1.3680    0.0000 C   0  0  0  0  0  0  0  0  0  0  0  0
    5.4754    3.1712    0.0000 C   0  0  0  0  0  0  0  0  0  0  0  0
    6.7714    0.9172    0.0000 C   0  0  0  0  0  0  0  0  0  0  0  0
   -4.9767   -2.8652    0.0000 C   0  0  0  0  0  0  0  0  0  0  0  0
   -6.2806   -0.6158    0.0000 C   0  0  0  0  0  0  0  0  0  0  0  0
    1.4996   -0.5825    0.0000 C   0  0  0  0  0  0  0  0  0  0  0  0
    0.2006   -1.3325    0.0000 C   0  0  0  0  0  0  0  0  0  0  0  0
    0.2246    1.6258    0.0000 C   0  0  0  0  0  0  0  0  0  0  0  0
   -1.0744    0.8758    0.0000 C   0  0  0  0  0  0  0  0  0  0  0  0
    5.4732    1.6704    0.0000 C   0  0  0  0  0  0  0  0  0  0  0  0
   -4.9798   -1.3644    0.0000 C   0  0  0  0  0  0  0  0  0  0  0  0
    1.5748    0.9273    0.0000 C   0  0  0  0  0  0  0  0  0  0  0  0
   -1.0839   -0.6077    0.0000 C   0  0  0  0  0  0  0  0  0  0  0  0
    4.1728    0.9227    0.0000 C   0  0  0  0  0  0  0  0  0  0  0  0
   -3.6820   -0.6121    0.0000 C   0  0  0  0  0  0  0  0  0  0  0  0
    4.1701   -0.5773    0.0000 O   0  0  0  0  0  0  0  0  0  0  0  0
   -3.6846    0.8879    0.0000 O   0  0  0  0  0  0  0  0  0  0  0  0
    2.8751    1.6750    0.0000 O   0  0  0  0  0  0  0  0  0  0  0  0
   -2.3817   -1.3599    0.0000 O   0  0  0  0  0  0  0  0  0  0  0  0
  6  4  2  0
  7  4  1  0
  8  5  2  0
  9  5  1  0
 10  6  1  0
 11  7  2  0
 12  8  1  0
 13  9  2  0
 15  1  1  0
 15 14  2  0
 16  2  1  0
 17  3  1  0
 17 16  1  0
 18 10  2  0
 18 11  1  0
 19 12  2  0
 19 13  1  0
 20 14  1  0
 20 16  2  0
 21 15  1  0
 21 17  2  0
 22 18  1  0
 23 19  1  0
 24 22  2  0
 25 23  2  0
 26 20  1  0
 26 22  1  0
 27 21  1  0
 27 23  1  0
M  END
>  <NAME>  (1368) 
3,5,6-TRIMETHYL-P-HYDOQUINONE DIBENZOATE

>  <SYNONYMS>  (1368) 


>  <SPECTRUM TYPE>  (1368) 
MS1

>  <INSTRUMENT TYPE>  (1368) 
EI-B

>  <INSTRUMENT>  (1368) 
JEOL JMS-D-300

>  <ION MODE>  (1368) 
P

>  <INCHIKEY>  (1368) 
WQYMVLAZGLEXEI-UHFFFAOYSA-N

>  <FORMULA>  (1368) 
C23H20O4

>  <EXACT MASS>  (1368) 
360.13615912

>  <MW>  (1368) 
360

>  <ID>  (1368) 
JP010058

>  <CONTRIBUTOR>  (1368) 
University of Tokyo Team, {Faculty of Engineering, University of Tokyo

>  <COMMENT>  (1368) 
SMILES=c(c3)ccc(c3)C(=O)Oc(c1)c(C)c(C)c(OC(=O)c(c2)cccc2)c(C)1
InChI=InChI=1S/C23H20O4/c1-15-14-20(26-22(24)18-10-6-4-7-11-18)16(2)17(3)21(15)27-23(25)19-12-8-5-9-13-19/h4-14H,1-3H3
computed SMILES=O=C(OC=1C=C(C(OC(=O)C=2C=CC=CC2)=C(C1C)C)C)C=3C=CC=CC3
accession=JP010058
date=2016.01.19 (Created 2008.10.21, modified 2011.05.06)
author=KURARAY CO., LTD.
license=CC BY-NC-SA
exact mass=360.13616
ionization energy=70 eV
ion type=[M]+*
computed spectral entropy=1.273436730772684
computed normalized entropy=0.5124686397701608
SPLASH=splash10-0a4i-1900000000-32614f2c13a91bb44e30
submitter=submitter = University of Tokyo Team (Faculty of Engineering, University of Tokyo)
MoNA Rating=3.75

>  <NUM PEAKS>  (1368) 
12

>  <MASS SPECTRAL PEAKS>  (1368) 
51 5.5
59 2.7
76 3.2
77 1.77
78 4.4
83 3.5
89 1.8
105 99.99
106 7.9
107 3.4
175 0.5
360 8

$$$$

     RDKit          2D

 26 29  0  0  1  0  0  0  0  0999 V2000
   -1.7600    0.6800    0.0000 C   0  0  0  0  0  0  0  0  0  0  0  0
    2.2972    2.9217    0.0000 C   0  0  0  0  0  0  0  0  0  0  0  0
   -0.4600   -3.0700    0.0000 C   0  0  0  0  0  0  0  0  0  0  0  0
    0.8400   -2.3200    0.0000 C   0  0  0  0  0  0  0  0  0  0  0  0
   -4.3600   -0.8200    0.0000 C   0  0  0  0  0  0  0  0  0  0  0  0
    3.5600   -0.5400    0.0000 C   0  0  0  0  0  0  0  0  0  0  0  0
   -3.0600   -0.0700    0.0000 C   0  0  0  0  0  0  0  0  0  0  0  0
    4.4500    0.6800    0.0000 C   0  0  0  0  0  0  0  0  0  0  0  0
   -3.0600   -3.0700    0.0000 C   0  0  0  0  0  0  0  0  0  0  0  0
    0.8400    2.1800    0.0000 C   0  0  0  0  0  0  0  0  0  0  0  0
    6.1581    1.8994    0.0000 C   0  0  0  0  0  0  0  0  0  0  0  0
   -1.7600   -2.3200    0.0000 C   0  0  0  0  0  0  0  0  0  0  0  0
   -4.3600   -2.3200    0.0000 C   0  0  0  0  0  0  0  0  0  0  0  0
    0.8400   -0.8200    0.0000 C   0  0  0  0  0  0  0  0  0  0  0  0
    2.1400   -0.0700    0.0000 C   0  0  0  0  0  0  0  0  0  0  0  0
   -0.4600    1.4300    0.0000 C   0  0  0  0  0  0  0  0  0  0  0  0
    4.8563    2.6447    0.0000 C   0  0  0  0  0  0  0  0  0  0  0  0
   -0.4600   -0.0700    0.0000 C   0  0  0  0  0  0  0  0  0  0  0  0
   -1.7600   -0.8200    0.0000 C   0  0  0  0  0  0  0  0  0  0  0  0
    2.1400    1.4300    0.0000 C   0  0  0  0  0  0  0  0  0  0  0  0
    3.5600    1.8900    0.0000 C   0  0  0  0  0  0  0  0  0  0  0  0
    7.4544    2.6541    0.0000 O   0  0  0  0  0  0  0  0  0  0  0  0
   -5.6589   -3.0702    0.0000 O   0  0  0  0  0  0  0  0  0  0  0  0
   -1.7589    2.1802    0.0000 O   0  0  0  0  0  0  0  0  0  0  0  0
    4.8509    4.1447    0.0000 O   0  0  0  0  0  0  0  0  0  0  0  0
    3.6077    0.3908    0.0000 O   0  0  0  0  0  0  0  0  0  0  0  0
  4  3  1  0
  7  5  2  0
  8  6  1  0
 12  3  1  0
 12  9  2  0
 13  5  1  0
 13  9  1  0
 14  4  1  6
 15  6  1  1
 15 14  1  0
 16 10  1  0
 17 11  1  0
 18 14  1  0
 18 16  1  1
 19  1  1  1
 19  7  1  0
 19 12  1  0
 19 18  1  0
 20  2  1  1
 20 10  1  0
 20 15  1  0
 21  8  1  0
 21 17  1  0
 21 20  1  0
 22 11  1  0
 23 13  2  0
 16 24  1  1
 25 17  2  0
 21 26  1  6
M  END
>  <NAME>  (1369) 
PREDNISOLONE

>  <SYNONYMS>  (1369) 
11,17,21-TRIHYDROXYPREGNA-1,4-DIENE-3,20-DIONE

>  <SPECTRUM TYPE>  (1369) 
MS1

>  <INSTRUMENT TYPE>  (1369) 
EI-B

>  <INSTRUMENT>  (1369) 
JEOL JMS-D-300

>  <ION MODE>  (1369) 
P

>  <INCHIKEY>  (1369) 
OIGNJSKKLXVSLS-VWUMJDOOSA-N

>  <FORMULA>  (1369) 
C21H28O5

>  <EXACT MASS>  (1369) 
360.193673996

>  <MW>  (1369) 
360

>  <ID>  (1369) 
JP010057

>  <CONTRIBUTOR>  (1369) 
University of Tokyo Team, {Faculty of Engineering, University of Tokyo

>  <COMMENT>  (1369) 
SMILES=OCC(=O)C(O)(C4)C(C)(C3)C([H])(C4)C([H])(C2)C([H])(C([H])(O)3)C(C)(C([H])=1)C(C2)=C([H])C(=O)C([H])1
InChI=InChI=1S/C21H28O5/c1-19-7-5-13(23)9-12(19)3-4-14-15-6-8-21(26,17(25)11-22)20(15,2)10-16(24)18(14)19/h5,7,9,14-16,18,22,24,26H,3-4,6,8,10-11H2,1-2H3/t14-,15-,16-,18+,19-,20-,21-/m0/s1
computed SMILES=O=C1C=CC2(C(=C1)CCC3C4CCC(O)(C(=O)CO)C4(C)CC(O)C32)C
accession=JP010057
date=2016.01.19 (Created 2008.10.21, modified 2011.05.06)
author=KURARAY CO., LTD.
license=CC BY-NC-SA
exact mass=360.19367
ionization energy=70 eV
ion type=[M]+*
computed spectral entropy=3.533825578361502
computed normalized entropy=0.7760037573434437
SPLASH=splash10-00di-1910000000-2f59b266e7257ff0e7ad
submitter=submitter = University of Tokyo Team (Faculty of Engineering, University of Tokyo)
MoNA Rating=3.75

>  <NUM PEAKS>  (1369) 
95

>  <MASS SPECTRAL PEAKS>  (1369) 
28 4.7
29 4.5
30 1.5
31 0.35
39 1.5
41 7.3
42 1.3
43 0.87
53 2.6
55 7.2
57 4
60 0.26
65 2
67 3.9
69 3.2
77 0.66
79 4.9
81 4
83 1.3
91 1.25
92 1.8
93 5.2
94 1.2
95 0.56
97 3
103 1.4
105 6.4
106 0.13
107 10.6
108 2.4
109 4.8
111 0.11
115 2.4
117 3.4
119 8.2
120 0.39
121 54.5
122 99.99
123 17.2
124 0.17
128 1.7
129 2
131 3.1
132 0.16
133 6.6
134 8.9
135 14.1
136 0.49
137 2.3
143 2
145 4.8
146 0.3
147 18.5
148 2.8
149 3.2
157 0.24
158 1.3
159 5.8
160 3.3
161 0.71
163 1.6
165 3.1
171 4.9
172 0.16
173 4.3
175 1.7
177 1.2
179 0.32
185 2.1
186 1.4
187 1.5
195 0.43
197 1.6
209 4.1
210 1.5
211 0.24
213 1.6
221 1.6
223 3.1
224 0.26
225 10.4
226 2.7
227 1.6
238 0.23
239 4.7
240 5.8
241 1.6
265 0.5
266 1.5
267 2.1
283 4.5
300 0.33
301 3.2
330 2.5
360 2.8

$$$$

     RDKit          2D

 26 27  0  0  0  0  0  0  0  0999 V2000
    9.2424    7.0810    0.0000 C   0  0  0  0  0  0  0  0  0  0  0  0
   -3.7389    1.4102    0.0000 C   0  0  0  0  0  0  0  0  0  0  0  0
   -1.1400    2.9100    0.0000 C   0  0  0  0  0  0  0  0  0  0  0  0
   -1.1400   -3.0900    0.0000 C   0  0  0  0  0  0  0  0  0  0  0  0
   -6.3370   -1.5906    0.0000 C   0  0  0  0  0  0  0  0  0  0  0  0
    4.2372    0.3997    0.0000 C   0  0  0  0  0  0  0  0  0  0  0  0
    8.7297    5.6713    0.0000 C   0  0  0  0  0  0  0  0  0  0  0  0
    4.7499    2.3304    0.0000 C   0  0  0  0  0  0  0  0  0  0  0  0
    5.2626    3.7401    0.0000 C   0  0  0  0  0  0  0  0  0  0  0  0
    1.4600   -1.5900    0.0000 C   0  0  0  0  0  0  0  0  0  0  0  0
    3.2727    2.0696    0.0000 C   0  0  0  0  0  0  0  0  0  0  0  0
    2.7600   -0.8400    0.0000 C   0  0  0  0  0  0  0  0  0  0  0  0
   -2.4400    0.6600    0.0000 C   0  0  0  0  0  0  0  0  0  0  0  0
   -1.1400    1.4100    0.0000 C   0  0  0  0  0  0  0  0  0  0  0  0
   -1.1400   -1.5900    0.0000 C   0  0  0  0  0  0  0  0  0  0  0  0
   -5.0381   -0.8404    0.0000 C   0  0  0  0  0  0  0  0  0  0  0  0
    0.1600   -0.8400    0.0000 C   0  0  0  0  0  0  0  0  0  0  0  0
    6.7398    4.0009    0.0000 C   0  0  0  0  0  0  0  0  0  0  0  0
   -2.4400   -0.8400    0.0000 C   0  0  0  0  0  0  0  0  0  0  0  0
    0.1600    0.6600    0.0000 C   0  0  0  0  0  0  0  0  0  0  0  0
    2.7600    0.6600    0.0000 C   0  0  0  0  0  0  0  0  0  0  0  0
   -5.0383    0.6596    0.0000 O   0  0  0  0  0  0  0  0  0  0  0  0
    7.7042    2.8520    0.0000 O   0  0  0  0  0  0  0  0  0  0  0  0
    7.2525    5.4105    0.0000 O   0  0  0  0  0  0  0  0  0  0  0  0
   -3.7389   -1.5902    0.0000 O   0  0  0  0  0  0  0  0  0  0  0  0
    1.4600    1.4100    0.0000 O   0  0  0  0  0  0  0  0  0  0  0  0
  7  1  1  0
  8  9  2  0
 11  8  1  0
 12 10  1  0
 13  2  1  0
 14  3  1  0
 14 13  1  0
 15  4  1  0
 16  5  1  0
 17 10  1  0
 17 15  2  0
 18  9  1  0
 19 13  2  0
 19 15  1  0
 20 14  2  0
 20 17  1  0
 21  6  1  0
 21 11  1  0
 21 12  1  0
 22 16  2  0
 23 18  2  0
 24  7  1  0
 24 18  1  0
 25 16  1  0
 25 19  1  0
 26 20  1  0
 26 21  1  0
M  END
>  <NAME>  (1370) 
6-ACETOXY-3,4-DIHYDRO-2,5,7,8-TETRAMETHYL-2H-1-BENZOPYRAN-2-BUTENOIC ACID ETHYL ESTER

>  <SYNONYMS>  (1370) 


>  <SPECTRUM TYPE>  (1370) 
MS1

>  <INSTRUMENT TYPE>  (1370) 
EI-B

>  <INSTRUMENT>  (1370) 
JEOL JMS-D-300

>  <ION MODE>  (1370) 
P

>  <INCHIKEY>  (1370) 
BZVNJQIUTBPNGK-CMDGGOBGSA-N

>  <FORMULA>  (1370) 
C21H28O5

>  <EXACT MASS>  (1370) 
360.19367399600003

>  <MW>  (1370) 
360

>  <ID>  (1370) 
JP010056

>  <CONTRIBUTOR>  (1370) 
University of Tokyo Team, {Faculty of Engineering, University of Tokyo

>  <COMMENT>  (1370) 
SMILES=CCOC(=O)C=CCC(C)(C2)Oc(c(C)1)c(C2)c(C)c(OC(C)=O)c(C)1
InChI=InChI=1S/C21H28O5/c1-7-24-18(23)9-8-11-21(6)12-10-17-15(4)19(25-16(5)22)13(2)14(3)20(17)26-21/h8-9H,7,10-12H2,1-6H3/b9-8+
computed SMILES=O=C(OCC)C=CCC1(OC=2C(=C(C(OC(=O)C)=C(C2CC1)C)C)C)C
accession=JP010056
date=2016.01.19 (Created 2008.10.21, modified 2011.05.06)
author=KURARAY CO., LTD.
license=CC BY-NC-SA
exact mass=360.19367
ionization energy=70 eV
ion type=[M]+*
computed spectral entropy=2.541220551520085
computed normalized entropy=0.6936475476548202
SPLASH=splash10-0aor-1592000000-55f49bee74a63463a6e0
submitter=submitter = University of Tokyo Team (Faculty of Engineering, University of Tokyo)
MoNA Rating=3.75

>  <NUM PEAKS>  (1370) 
39

>  <MASS SPECTRAL PEAKS>  (1370) 
41 2.2
43 8
53 2.7
55 0.19
67 1.6
77 1.8
79 2.2
81 0.19
91 3.8
93 1.3
105 1.8
107 0.29
109 2.1
121 4.5
135 3.6
136 0.25
152 3.3
161 2.4
163 1.9
164 2.91
165 60.4
166 6.7
175 1.9
176 0.47
177 2.5
189 5.1
190 2.8
203 0.58
204 3.6
205 99.99
206 14
207 0.43
245 1.7
247 33.9
248 4.7
318 5.46
319 11.5
360 16.6
361 3.7

$$$$

     RDKit          2D

 27 30  0  0  0  0  0  0  0  0999 V2000
    7.9100   -2.5981    0.0000 C   0  0  0  0  0  0  0  0  0  0  0  0
    6.4092   -2.5986    0.0000 C   0  0  0  0  0  0  0  0  0  0  0  0
    8.6608   -1.2986    0.0000 C   0  0  0  0  0  0  0  0  0  0  0  0
   -3.0000    0.7500    0.0000 C   0  0  0  0  0  0  0  0  0  0  0  0
   -3.0000   -0.7500    0.0000 C   0  0  0  0  0  0  0  0  0  0  0  0
    6.0920    4.7677    0.0000 C   0  0  0  0  0  0  0  0  0  0  0  0
    5.6592   -1.2995    0.0000 C   0  0  0  0  0  0  0  0  0  0  0  0
    7.9108    0.0005    0.0000 C   0  0  0  0  0  0  0  0  0  0  0  0
    5.8307    3.2898    0.0000 C   0  0  0  0  0  0  0  0  0  0  0  0
   -1.7000    1.5000    0.0000 C   0  0  0  0  0  0  0  0  0  0  0  0
   -1.7000   -1.5000    0.0000 C   0  0  0  0  0  0  0  0  0  0  0  0
    4.9431    5.7321    0.0000 C   0  0  0  0  0  0  0  0  0  0  0  0
    5.6600    1.2990    0.0000 C   0  0  0  0  0  0  0  0  0  0  0  0
    3.2716    3.7406    0.0000 C   0  0  0  0  0  0  0  0  0  0  0  0
    3.4100   -0.0000    0.0000 C   0  0  0  0  0  0  0  0  0  0  0  0
    6.4100   -0.0000    0.0000 C   0  0  0  0  0  0  0  0  0  0  0  0
    4.4205    2.7762    0.0000 C   0  0  0  0  0  0  0  0  0  0  0  0
   -0.4000    0.7500    0.0000 C   0  0  0  0  0  0  0  0  0  0  0  0
   -0.4000   -0.7500    0.0000 C   0  0  0  0  0  0  0  0  0  0  0  0
    1.0300    1.2100    0.0000 C   0  0  0  0  0  0  0  0  0  0  0  0
    1.0300   -1.2100    0.0000 C   0  0  0  0  0  0  0  0  0  0  0  0
    4.1600    1.2990    0.0000 C   0  0  0  0  0  0  0  0  0  0  0  0
    2.7505    1.8121    0.0000 N   0  0  0  0  0  0  0  0  0  0  0  0
    3.5329    5.2185    0.0000 N   0  0  0  0  0  0  0  0  0  0  0  0
    1.9100    0.0000    0.0000 N   0  0  0  0  0  0  0  0  0  0  0  0
    1.4953    2.6360    0.0000 O   0  0  0  0  0  0  0  0  0  0  0  0
    1.4953   -2.6360    0.0000 O   0  0  0  0  0  0  0  0  0  0  0  0
  2  1  2  0
  3  1  1  0
  5  4  2  0
  7  2  1  0
  8  3  2  0
  9  6  2  0
 10  4  1  0
 11  5  1  0
 12  6  1  0
 16  7  2  0
 16  8  1  0
 16 13  1  0
 17  9  1  0
 17 14  2  0
 18 10  2  0
 19 11  2  0
 19 18  1  0
 20 18  1  0
 21 19  1  0
 22 13  1  0
 22 15  1  0
 22 17  1  0
 23 22  1  0
 24 12  2  0
 24 14  1  0
 25 15  1  0
 25 20  1  0
 25 21  1  0
 26 20  2  0
 27 21  2  0
M  END
>  <NAME>  (1371) 
1-BENZYL-1-(3-PYRIDINO)-2-(N-PHTHALIMIDO)-ETHYLAMINE

>  <SYNONYMS>  (1371) 


>  <SPECTRUM TYPE>  (1371) 
MS1

>  <INSTRUMENT TYPE>  (1371) 
EI-B

>  <INSTRUMENT>  (1371) 
JEOL JMS-D-300

>  <ION MODE>  (1371) 
P

>  <INCHIKEY>  (1371) 
KFOGGLFEAPXODO-UHFFFAOYSA-N

>  <FORMULA>  (1371) 
C22H19N3O2

>  <EXACT MASS>  (1371) 
357.14772684800005

>  <MW>  (1371) 
357

>  <ID>  (1371) 
JP010054

>  <CONTRIBUTOR>  (1371) 
University of Tokyo Team, {Faculty of Engineering, University of Tokyo

>  <COMMENT>  (1371) 
SMILES=c(c4)ccc(c4)CC(N)(c(c3)cncc3)Cn(c(=O)1)c(=O)c(c2)c(ccc2)1
InChI=InChI=1S/C22H19N3O2/c23-22(17-9-6-12-24-14-17,13-16-7-2-1-3-8-16)15-25-20(26)18-10-4-5-11-19(18)21(25)27/h1-12,14H,13,15,23H2
computed SMILES=O=C1C=2C=CC=CC2C(=O)N1CC(N)(C=3C=NC=CC3)CC=4C=CC=CC4
accession=JP010054
date=2016.01.19 (Created 2008.10.21, modified 2011.05.06)
author=KURARAY CO., LTD.
license=CC BY-NC-SA
exact mass=357.14773
ionization energy=70 eV
ion type=[M]+*
computed spectral entropy=2.7932987313673596
computed normalized entropy=0.8295376683249657
SPLASH=splash10-00e9-2900000000-569475bc05b5877f1f29
submitter=submitter = University of Tokyo Team (Faculty of Engineering, University of Tokyo)
MoNA Rating=3.75

>  <NUM PEAKS>  (1371) 
29

>  <MASS SPECTRAL PEAKS>  (1371) 
28 4.08
44 11.04
51 3.19
52 7.21
55 6.85
65 6.14
76 9.08
77 5.92
78 7.52
79 3.35
83 6.14
91 9.91
102 6.38
104 10.7
105 5.47
117 9.86
130 20.09
133 5.87
147 15.02
148 8.09
160 8.34
173 7.48
174 99.99
175 16.43
181 1.48
183 58.11
184 7.4
357 5.44
365 6.77

$$$$

     RDKit          2D

 23 25  0  0  0  0  0  0  0  0999 V2000
   -1.6700   -0.9600    0.0000 C   0  0  0  0  0  0  0  0  0  0  0  0
    6.1283   -3.9608    0.0000 C   0  0  0  0  0  0  0  0  0  0  0  0
    8.7257    5.0408    0.0000 C   0  0  0  0  0  0  0  0  0  0  0  0
   -0.3700   -1.7100    0.0000 C   0  0  0  0  0  0  0  0  0  0  0  0
   -1.6700    0.5400    0.0000 C   0  0  0  0  0  0  0  0  0  0  0  0
    4.8286   -3.2104    0.0000 C   0  0  0  0  0  0  0  0  0  0  0  0
    7.4271   -3.2104    0.0000 C   0  0  0  0  0  0  0  0  0  0  0  0
    7.4257    5.7908    0.0000 C   0  0  0  0  0  0  0  0  0  0  0  0
    8.7257    3.5408    0.0000 C   0  0  0  0  0  0  0  0  0  0  0  0
    0.9300   -0.9600    0.0000 C   0  0  0  0  0  0  0  0  0  0  0  0
   -0.3700    1.2900    0.0000 C   0  0  0  0  0  0  0  0  0  0  0  0
    4.8276   -1.7096    0.0000 C   0  0  0  0  0  0  0  0  0  0  0  0
    7.4262   -1.7096    0.0000 C   0  0  0  0  0  0  0  0  0  0  0  0
    6.1257    5.0408    0.0000 C   0  0  0  0  0  0  0  0  0  0  0  0
    7.4257    2.7908    0.0000 C   0  0  0  0  0  0  0  0  0  0  0  0
    3.5281    0.5404    0.0000 C   0  0  0  0  0  0  0  0  0  0  0  0
    0.9300    0.5400    0.0000 C   0  0  0  0  0  0  0  0  0  0  0  0
    6.1264   -0.9592    0.0000 C   0  0  0  0  0  0  0  0  0  0  0  0
    6.1257    3.5408    0.0000 C   0  0  0  0  0  0  0  0  0  0  0  0
    4.8270    1.2906    0.0000 C   0  0  0  0  0  0  0  0  0  0  0  0
    2.2289    1.2902    0.0000 S   0  0  0  0  0  0  0  0  0  0  0  0
    6.1262    0.5408    0.0000 S   0  0  0  0  0  0  0  0  0  0  0  0
    4.8268    2.7906    0.0000 S   0  0  0  0  0  0  0  0  0  0  0  0
  4  1  2  0
  5  1  1  0
  6  2  2  0
  7  2  1  0
  8  3  2  0
  9  3  1  0
 10  4  1  0
 11  5  2  0
 12  6  1  0
 13  7  2  0
 14  8  1  0
 15  9  2  0
 17 10  2  0
 17 11  1  0
 18 12  2  0
 18 13  1  0
 19 14  2  0
 19 15  1  0
 20 16  1  0
 21 16  1  0
 21 17  1  0
 22 18  1  0
 22 20  1  0
 23 19  1  0
 23 20  1  0
M  END
>  <NAME>  (1372) 
1,1,2-TRIS(PHENYLTHIO)ETANE

>  <SYNONYMS>  (1372) 


>  <SPECTRUM TYPE>  (1372) 
MS1

>  <INSTRUMENT TYPE>  (1372) 
EI-B

>  <INSTRUMENT>  (1372) 
JEOL JMS-D-300

>  <ION MODE>  (1372) 
P

>  <INCHIKEY>  (1372) 
PQXFZZRYLUCAQH-UHFFFAOYSA-N

>  <FORMULA>  (1372) 
C20H18S3

>  <EXACT MASS>  (1372) 
354.057063576

>  <MW>  (1372) 
354

>  <ID>  (1372) 
JP010052

>  <CONTRIBUTOR>  (1372) 
University of Tokyo Team, {Faculty of Engineering, University of Tokyo

>  <COMMENT>  (1372) 
SMILES=c(c3)ccc(c3)SCC(Sc(c2)cccc2)Sc(c1)cccc1
InChI=InChI=1S/C20H18S3/c1-4-10-17(11-5-1)21-16-20(22-18-12-6-2-7-13-18)23-19-14-8-3-9-15-19/h1-15,20H,16H2
computed SMILES=S(C=1C=CC=CC1)CC(SC=2C=CC=CC2)SC=3C=CC=CC3
accession=JP010052
date=2016.01.19 (Created 2008.10.21, modified 2011.05.06)
author=KURARAY CO., LTD.
license=CC BY-NC-SA
exact mass=354.05706
ionization energy=70 eV
ion type=[M]+*
computed spectral entropy=1.7156840274729375
computed normalized entropy=0.7808414511514921
SPLASH=splash10-00dj-3940000000-f65bda3cb4beca56ceb1
submitter=submitter = University of Tokyo Team (Faculty of Engineering, University of Tokyo)
MoNA Rating=3.75

>  <NUM PEAKS>  (1372) 
9

>  <MASS SPECTRAL PEAKS>  (1372) 
45 16.82
55 5.97
91 12.99
98 11.17
122 7.6
123 99.99
135 14.78
245 56.32
354 10.92

$$$$

     RDKit          2D

 28 28  0  0  0  0  0  0  0  0999 V2000
    7.7948    3.0010    0.0000 C   0  0  0  0  0  0  0  0  0  0  0  0
   14.2904    0.7521    0.0000 C   0  0  0  0  0  0  0  0  0  0  0  0
   -2.5989   -1.5002    0.0000 C   0  0  0  0  0  0  0  0  0  0  0  0
   -3.3491   -0.2013    0.0000 H   0  0  0  0  0  0  0  0  0  0  0  0
   -3.8978   -2.2504    0.0000 H   0  0  0  0  0  0  0  0  0  0  0  0
   -1.8487   -2.7991    0.0000 H   0  0  0  0  0  0  0  0  0  0  0  0
   15.5883    7.5023    0.0000 C   0  0  0  0  0  0  0  0  0  0  0  0
   10.3931    1.5015    0.0000 C   0  0  0  0  0  0  0  0  0  0  0  0
    5.1970    1.5006    0.0000 C   0  0  0  0  0  0  0  0  0  0  0  0
    9.0942    0.7512    0.0000 C   0  0  0  0  0  0  0  0  0  0  0  0
   11.6923    0.7517    0.0000 C   0  0  0  0  0  0  0  0  0  0  0  0
    6.4962    0.7508    0.0000 C   0  0  0  0  0  0  0  0  0  0  0  0
    3.8981    0.7504    0.0000 C   0  0  0  0  0  0  0  0  0  0  0  0
   12.9910    3.0019    0.0000 C   0  0  0  0  0  0  0  0  0  0  0  0
   14.2899    3.7521    0.0000 C   0  0  0  0  0  0  0  0  0  0  0  0
   -1.3000    0.7500    0.0000 C   0  0  0  0  0  0  0  0  0  0  0  0
   -0.0000   -1.5000    0.0000 C   0  0  0  0  0  0  0  0  0  0  0  0
   -0.0000    1.5000    0.0000 C   0  0  0  0  0  0  0  0  0  0  0  0
    1.3000   -0.7500    0.0000 C   0  0  0  0  0  0  0  0  0  0  0  0
    7.7951    1.5010    0.0000 C   0  0  0  0  0  0  0  0  0  0  0  0
   12.9912    1.5019    0.0000 C   0  0  0  0  0  0  0  0  0  0  0  0
    2.5989    1.5002    0.0000 C   0  0  0  0  0  0  0  0  0  0  0  0
   14.2897    5.2521    0.0000 C   0  0  0  0  0  0  0  0  0  0  0  0
   -1.3000   -0.7500    0.0000 N   0  0  0  0  0  0  0  0  0  0  0  0
    1.3000    0.7500    0.0000 N   0  0  0  0  0  0  0  0  0  0  0  0
    2.5987    3.0002    0.0000 O   0  0  0  0  0  0  0  0  0  0  0  0
   12.9905    6.0019    0.0000 O   0  0  0  0  0  0  0  0  0  0  0  0
   15.5886    6.0023    0.0000 O   0  0  0  0  0  0  0  0  0  0  0  0
  3  4  1  0
  3  5  1  0
  3  6  1  0
 10  8  1  0
 11  8  1  0
 12  9  1  0
 13  9  1  0
 15 14  1  0
 18 16  1  0
 19 17  1  0
 20  1  1  0
 20 10  1  0
 12 20  2  0
 21  2  1  0
 11 21  2  0
 21 14  1  0
 22 13  1  0
 23 15  1  0
 24  3  1  0
 24 16  1  0
 24 17  1  0
 25 18  1  0
 25 19  1  0
 25 22  1  0
 26 22  2  0
 27 23  2  0
 28  7  1  0
 28 23  1  0
M  ISO  3   4   2   5   2   6   2
M  END
>  <NAME>  (1373) 
1,1,1-TRIDEUTERIOMETHYL-4-(5,9-DIMETHYL-11-METHOXYCARBONYL-1-OXOUNDECA-4,8-DIENYL)-PIPERADINE

>  <SYNONYMS>  (1373) 


>  <SPECTRUM TYPE>  (1373) 
MS1

>  <INSTRUMENT TYPE>  (1373) 
EI-B

>  <INSTRUMENT>  (1373) 
JEOL JMS-D-300

>  <ION MODE>  (1373) 
P

>  <INCHIKEY>  (1373) 
NCVBXHMUXQRVJI-MNWKKPFGSA-N

>  <FORMULA>  (1373) 
C20H34N2O3

>  <EXACT MASS>  (1373) 
353.275773186

>  <MW>  (1373) 
353

>  <ID>  (1373) 
JP010051

>  <CONTRIBUTOR>  (1373) 
University of Tokyo Team, {Faculty of Engineering, University of Tokyo

>  <COMMENT>  (1373) 
SMILES=COC(=O)CCC(C)=CCCC(C)=CCCC(=O)N(C1)CCN(C1)C([2H])([2H])[2H]
InChI=InChI=1S/C20H34N2O3/c1-17(7-5-8-18(2)11-12-20(24)25-4)9-6-10-19(23)22-15-13-21(3)14-16-22/h8-9H,5-7,10-16H2,1-4H3/b17-9+,18-8-/i3D3
computed SMILES=[H]C([H])([H])N1CCN(C(=O)CCC=C(C)CCC=C(C)CCC(=O)OC)CC1
accession=JP010051
date=2016.01.19 (Created 2008.10.21, modified 2011.05.06)
author=KURARAY CO., LTD.
license=CC BY-NC-SA
exact mass=350.25694
ionization energy=70 eV
ion type=[M]+*
computed spectral entropy=3.4715690822136245
computed normalized entropy=0.8920167983858293
SPLASH=splash10-0w29-9651000000-ba28f5fde72a49d1b565
submitter=submitter = University of Tokyo Team (Faculty of Engineering, University of Tokyo)
MoNA Rating=3.75

>  <NUM PEAKS>  (1373) 
49

>  <MASS SPECTRAL PEAKS>  (1373) 
28 5.39
41 7.9
42 4.97
43 7.11
44 3.07
45 7.62
46 7.62
47 9.89
55 8.8
56 16.16
57 7.95
58 8.89
59 5.91
60 18.27
61 30.13
67 8.75
70 8.74
72 9.29
73 42.48
74 7.63
79 4.43
81 25.39
85 10.52
98 5.79
99 12.72
100 8.18
101 38.99
102 30.37
103 7.66
104 61.08
105 4.45
109 8.04
130 16.07
141 5.25
145 4.49
152 5.74
158 5.63
166 20.78
207 5.28
209 12.36
212 99.99
214 18.37
280 26.81
281 5.93
322 8.14
350 3.33
351 4.1
353 29.45
354 6.86

$$$$

     RDKit          2D

 25 24  0  0  0  0  0  0  0  0999 V2000
   -7.4742    8.2115    0.0000 C   0  0  0  0  0  0  0  0  0  0  0  0
    5.5162    8.2115    0.0000 C   0  0  0  0  0  0  0  0  0  0  0  0
   -2.8455    1.1952    0.0000 C   0  0  0  0  0  0  0  0  0  0  0  0
    4.8680    4.5353    0.0000 C   0  0  0  0  0  0  0  0  0  0  0  0
   -6.1752    7.4615    0.0000 C   0  0  0  0  0  0  0  0  0  0  0  0
    4.2171    7.4615    0.0000 C   0  0  0  0  0  0  0  0  0  0  0  0
   -1.8813    2.3443    0.0000 C   0  0  0  0  0  0  0  0  0  0  0  0
    3.9038    5.6843    0.0000 C   0  0  0  0  0  0  0  0  0  0  0  0
   -2.2780    8.2115    0.0000 C   0  0  0  0  0  0  0  0  0  0  0  0
    0.3200    8.2115    0.0000 C   0  0  0  0  0  0  0  0  0  0  0  0
   -1.9432    6.3125    0.0000 C   0  0  0  0  0  0  0  0  0  0  0  0
   -0.0148    6.3125    0.0000 C   0  0  0  0  0  0  0  0  0  0  0  0
   -4.8761    8.2115    0.0000 C   0  0  0  0  0  0  0  0  0  0  0  0
    2.9181    8.2115    0.0000 C   0  0  0  0  0  0  0  0  0  0  0  0
   -2.3943    3.7539    0.0000 C   0  0  0  0  0  0  0  0  0  0  0  0
    2.4266    5.4239    0.0000 C   0  0  0  0  0  0  0  0  0  0  0  0
   -0.9790    7.4615    0.0000 C   0  0  0  0  0  0  0  0  0  0  0  0
   -4.8761    9.7115    0.0000 O   0  0  0  0  0  0  0  0  0  0  0  0
    2.9181    9.7115    0.0000 O   0  0  0  0  0  0  0  0  0  0  0  0
   -3.8715    4.0143    0.0000 O   0  0  0  0  0  0  0  0  0  0  0  0
    1.9135    4.0143    0.0000 O   0  0  0  0  0  0  0  0  0  0  0  0
   -3.5771    7.4615    0.0000 O   0  0  0  0  0  0  0  0  0  0  0  0
    1.6191    7.4615    0.0000 O   0  0  0  0  0  0  0  0  0  0  0  0
   -1.4302    4.9029    0.0000 O   0  0  0  0  0  0  0  0  0  0  0  0
    1.4624    6.5729    0.0000 O   0  0  0  0  0  0  0  0  0  0  0  0
  5  1  2  0
  6  2  2  0
  7  3  2  0
  8  4  2  0
 13  5  1  0
 14  6  1  0
 15  7  1  0
 16  8  1  0
 17  9  1  0
 17 10  1  0
 17 11  1  0
 17 12  1  0
 18 13  2  0
 19 14  2  0
 20 15  2  0
 21 16  2  0
 22  9  1  0
 22 13  1  0
 23 10  1  0
 23 14  1  0
 24 11  1  0
 24 15  1  0
 25 12  1  0
 25 16  1  0
M  END
>  <NAME>  (1374) 
PENTAERYTHRITOL TETRAACRYLIC ACID ESTER

>  <SYNONYMS>  (1374) 
PENTAERYTHRITOL TETRAACRYLATE

>  <SPECTRUM TYPE>  (1374) 
MS1

>  <INSTRUMENT TYPE>  (1374) 
EI-B

>  <INSTRUMENT>  (1374) 
JEOL JMS-D-300

>  <ION MODE>  (1374) 
P

>  <INCHIKEY>  (1374) 
KNSXNCFKSZZHEA-UHFFFAOYSA-N

>  <FORMULA>  (1374) 
C17H20O8

>  <EXACT MASS>  (1374) 
352.1158176

>  <MW>  (1374) 
352

>  <ID>  (1374) 
JP010050

>  <CONTRIBUTOR>  (1374) 
University of Tokyo Team, {Faculty of Engineering, University of Tokyo

>  <COMMENT>  (1374) 
SMILES=C=CC(=O)OCC(COC(=O)C=C)(COC(=O)C=C)COC(=O)C=C
InChI=InChI=1S/C17H20O8/c1-5-13(18)22-9-17(10-23-14(19)6-2,11-24-15(20)7-3)12-25-16(21)8-4/h5-8H,1-4,9-12H2
computed SMILES=O=C(OCC(COC(=O)C=C)(COC(=O)C=C)COC(=O)C=C)C=C
accession=JP010050
date=2016.01.19 (Created 2008.10.21, modified 2011.05.06)
author=KURARAY CO., LTD.
license=CC BY-NC-SA
exact mass=352.11582
ionization energy=70 eV
ion type=[M]+*
computed spectral entropy=3.448491612765457
computed normalized entropy=0.793887220503961
SPLASH=splash10-057i-9500000000-7e16facda7c7de7f2c27
submitter=submitter = University of Tokyo Team (Faculty of Engineering, University of Tokyo)
MoNA Rating=3.75

>  <NUM PEAKS>  (1374) 
77

>  <MASS SPECTRAL PEAKS>  (1374) 
26 5.76
27 91.89
28 19.93
29 3.05
31 3.23
39 4.5
40 2.38
41 4.61
42 1.5
43 1.93
44 5.66
53 4
54 13.03
55 97.76
56 57.02
57 7.8
66 1.36
67 3.21
68 5.44
69 6.51
70 3.28
71 2.9
72 3.07
73 4.57
79 2.24
80 35.16
81 91.27
82 99.99
83 19.16
84 2.59
85 5.01
95 35.88
96 40.25
97 4.19
98 1.86
99 8.49
105 1.28
106 4.92
107 3.23
108 42.49
109 6.39
110 3.16
111 7.37
123 5.02
124 21.44
125 30.7
126 78.03
127 84.81
128 5.75
134 2.07
135 1.45
136 13.12
137 1.45
141 15
142 1.36
152 1.43
153 11.15
154 18.45
155 1.98
178 1.48
181 2.54
195 2.11
196 48.83
197 5.26
208 2.76
225 36.11
226 3.9
281 17.92
295 0.35
296 0.54
297 0.79
298 0.19
308 0.55
324 2.64
325 0.45
352 1.02
353 0.38

$$$$

     RDKit          2D

 25 25  0  0  0  0  0  0  0  0999 V2000
    9.0942    0.7512    0.0000 C   0  0  0  0  0  0  0  0  0  0  0  0
   10.3922    7.5015    0.0000 C   0  0  0  0  0  0  0  0  0  0  0  0
   -2.5989   -1.5002    0.0000 C   0  0  0  0  0  0  0  0  0  0  0  0
   16.8877    5.2525    0.0000 C   0  0  0  0  0  0  0  0  0  0  0  0
    9.0937    3.7512    0.0000 C   0  0  0  0  0  0  0  0  0  0  0  0
    5.1970    1.5006    0.0000 C   0  0  0  0  0  0  0  0  0  0  0  0
    7.7948    3.0010    0.0000 C   0  0  0  0  0  0  0  0  0  0  0  0
    9.0935    5.2512    0.0000 C   0  0  0  0  0  0  0  0  0  0  0  0
    6.4962    0.7508    0.0000 C   0  0  0  0  0  0  0  0  0  0  0  0
    3.8981    0.7504    0.0000 C   0  0  0  0  0  0  0  0  0  0  0  0
   11.6916    5.2517    0.0000 C   0  0  0  0  0  0  0  0  0  0  0  0
   12.9905    6.0019    0.0000 C   0  0  0  0  0  0  0  0  0  0  0  0
   -1.3000    0.7500    0.0000 C   0  0  0  0  0  0  0  0  0  0  0  0
   -0.0000   -1.5000    0.0000 C   0  0  0  0  0  0  0  0  0  0  0  0
   -0.0000    1.5000    0.0000 C   0  0  0  0  0  0  0  0  0  0  0  0
    1.3000   -0.7500    0.0000 C   0  0  0  0  0  0  0  0  0  0  0  0
    7.7951    1.5010    0.0000 C   0  0  0  0  0  0  0  0  0  0  0  0
   10.3924    6.0015    0.0000 C   0  0  0  0  0  0  0  0  0  0  0  0
    2.5989    1.5002    0.0000 C   0  0  0  0  0  0  0  0  0  0  0  0
   14.2897    5.2521    0.0000 C   0  0  0  0  0  0  0  0  0  0  0  0
   -1.3000   -0.7500    0.0000 N   0  0  0  0  0  0  0  0  0  0  0  0
    1.3000    0.7500    0.0000 N   0  0  0  0  0  0  0  0  0  0  0  0
    2.5987    3.0002    0.0000 O   0  0  0  0  0  0  0  0  0  0  0  0
   14.2899    3.7521    0.0000 O   0  0  0  0  0  0  0  0  0  0  0  0
   15.5886    6.0023    0.0000 O   0  0  0  0  0  0  0  0  0  0  0  0
  7  5  1  0
  8  5  1  0
  9  6  1  0
 10  6  1  0
 12 11  1  0
 15 13  1  0
 16 14  1  0
 17  1  1  0
 17  7  1  0
  9 17  2  0
 18  2  1  0
  8 18  2  0
 18 11  1  0
 19 10  1  0
 20 12  1  0
 21  3  1  0
 21 13  1  0
 21 14  1  0
 22 15  1  0
 22 16  1  0
 22 19  1  0
 23 19  2  0
 24 20  2  0
 25  4  1  0
 25 20  1  0
M  END
>  <NAME>  (1375) 
1-METHYL-4-(11-METHOXYCARBONYL-5,9-DIMETHYL-1-OXOUNDECA-4,8-DIENYL)-PIPERADINE

>  <SYNONYMS>  (1375) 


>  <SPECTRUM TYPE>  (1375) 
MS1

>  <INSTRUMENT TYPE>  (1375) 
EI-B

>  <INSTRUMENT>  (1375) 
JEOL JMS-D-300

>  <ION MODE>  (1375) 
P

>  <INCHIKEY>  (1375) 
NCVBXHMUXQRVJI-DWFXYBKLSA-N

>  <FORMULA>  (1375) 
C20H34N2O3

>  <EXACT MASS>  (1375) 
350.25694294799996

>  <MW>  (1375) 
350

>  <ID>  (1375) 
JP010049

>  <CONTRIBUTOR>  (1375) 
University of Tokyo Team, {Faculty of Engineering, University of Tokyo

>  <COMMENT>  (1375) 
SMILES=COC(=O)CCC(C)=CCCC(C)=CCCC(=O)N(C1)CCN(C)C1
InChI=InChI=1S/C20H34N2O3/c1-17(7-5-8-18(2)11-12-20(24)25-4)9-6-10-19(23)22-15-13-21(3)14-16-22/h8-9H,5-7,10-16H2,1-4H3/b17-9-,18-8-
computed SMILES=O=C(OC)CCC(=CCCC(=CCCC(=O)N1CCN(C)CC1)C)C
accession=JP010049
date=2016.01.19 (Created 2008.10.21, modified 2011.05.06)
author=KURARAY CO., LTD.
license=CC BY-NC-SA
exact mass=350.25694
ionization energy=70 eV
ion type=[M]+*
computed spectral entropy=2.758933227430637
computed normalized entropy=0.9545253893010639
SPLASH=splash10-0pba-9341000000-85790decc5e28dab5dbf
submitter=submitter = University of Tokyo Team (Faculty of Engineering, University of Tokyo)
MoNA Rating=3.75

>  <NUM PEAKS>  (1375) 
18

>  <MASS SPECTRAL PEAKS>  (1375) 
43 18.77
44 19.37
56 27.11
57 29
58 42.87
70 49.43
81 33.93
83 18.02
98 40.67
99 53.55
101 64.84
127 23.42
166 32.31
209 99.99
210 25.43
277 36.71
319 11.25
350 38.52

$$$$

     RDKit          2D

 24 24  0  0  0  0  0  0  0  0999 V2000
   17.8174    1.2927    0.0000 C   0  0  0  0  0  0  0  0  0  0  0  0
   16.5187   -0.9575    0.0000 C   0  0  0  0  0  0  0  0  0  0  0  0
   11.3225   -0.9583    0.0000 C   0  0  0  0  0  0  0  0  0  0  0  0
    6.1264   -0.9592    0.0000 C   0  0  0  0  0  0  0  0  0  0  0  0
   -1.6700   -0.9600    0.0000 C   0  0  0  0  0  0  0  0  0  0  0  0
   -0.3700   -1.7100    0.0000 C   0  0  0  0  0  0  0  0  0  0  0  0
   -1.6700    0.5400    0.0000 C   0  0  0  0  0  0  0  0  0  0  0  0
   13.9204    0.5421    0.0000 C   0  0  0  0  0  0  0  0  0  0  0  0
    8.7242    0.5412    0.0000 C   0  0  0  0  0  0  0  0  0  0  0  0
   15.2193    1.2923    0.0000 C   0  0  0  0  0  0  0  0  0  0  0  0
   12.6212    1.2919    0.0000 C   0  0  0  0  0  0  0  0  0  0  0  0
   10.0231    1.2915    0.0000 C   0  0  0  0  0  0  0  0  0  0  0  0
    7.4251    1.2910    0.0000 C   0  0  0  0  0  0  0  0  0  0  0  0
    0.9300   -0.9600    0.0000 C   0  0  0  0  0  0  0  0  0  0  0  0
   -0.3700    1.2900    0.0000 C   0  0  0  0  0  0  0  0  0  0  0  0
    4.8270    1.2906    0.0000 C   0  0  0  0  0  0  0  0  0  0  0  0
    3.5281    0.5404    0.0000 C   0  0  0  0  0  0  0  0  0  0  0  0
   16.5185    0.5425    0.0000 C   0  0  0  0  0  0  0  0  0  0  0  0
   11.3223    0.5417    0.0000 C   0  0  0  0  0  0  0  0  0  0  0  0
    6.1262    0.5408    0.0000 C   0  0  0  0  0  0  0  0  0  0  0  0
    0.9300    0.5400    0.0000 C   0  0  0  0  0  0  0  0  0  0  0  0
    3.1929    2.4394    0.0000 O   0  0  0  0  0  0  0  0  0  0  0  0
    1.2646    2.4391    0.0000 O   0  0  0  0  0  0  0  0  0  0  0  0
    2.2289    1.2902    0.0000 S   0  0  0  0  0  0  0  0  0  0  0  0
  6  5  2  0
  7  5  1  0
 10  8  1  0
 11  8  1  0
 12  9  1  0
 13  9  1  0
 14  6  1  0
 15  7  2  0
 17 16  1  0
 18  1  1  0
 18  2  1  0
 18 10  2  0
 19  3  1  0
 19 11  1  0
 12 19  2  0
 20  4  1  0
 20 13  1  0
 16 20  2  0
 21 14  2  0
 21 15  1  0
 24 17  1  0
 24 21  1  0
 24 22  2  0
 24 23  2  0
M  END
>  <NAME>  (1376) 
3,7,11-TRIMETHYL-2,6,10-DODECATRIENYL PHENYL SULFONE

>  <SYNONYMS>  (1376) 


>  <SPECTRUM TYPE>  (1376) 
MS1

>  <INSTRUMENT TYPE>  (1376) 
EI-B

>  <INSTRUMENT>  (1376) 
JEOL JMS-D-300

>  <ION MODE>  (1376) 
P

>  <INCHIKEY>  (1376) 
MLMQYHDLGZNPKC-YEFHWUCQSA-N

>  <FORMULA>  (1376) 
C21H30O2S

>  <EXACT MASS>  (1376) 
346.1966512

>  <MW>  (1376) 
346

>  <ID>  (1376) 
JP010048

>  <CONTRIBUTOR>  (1376) 
University of Tokyo Team, {Faculty of Engineering, University of Tokyo

>  <COMMENT>  (1376) 
SMILES=CC(C)=CCCC(C)=CCCC(C)=CCS(=O)(=O)c(c1)cccc1
InChI=InChI=1S/C21H30O2S/c1-18(2)10-8-11-19(3)12-9-13-20(4)16-17-24(22,23)21-14-6-5-7-15-21/h5-7,10,12,14-16H,8-9,11,13,17H2,1-4H3/b19-12+,20-16+
computed SMILES=O=S(=O)(C=1C=CC=CC1)CC=C(C)CCC=C(C)CCC=C(C)C
accession=JP010048
date=2016.01.19 (Created 2008.10.21, modified 2011.05.06)
author=KURARAY CO., LTD.
license=CC BY-NC-SA
exact mass=346.19665
ionization energy=70 eV
ion type=[M]+*
computed spectral entropy=3.3633030196729043
computed normalized entropy=0.8181479487815075
SPLASH=splash10-014i-9400000000-b9dbdc501a9e4c7ecb58
submitter=submitter = University of Tokyo Team (Faculty of Engineering, University of Tokyo)
MoNA Rating=3.75

>  <NUM PEAKS>  (1376) 
61

>  <MASS SPECTRAL PEAKS>  (1376) 
29 1.46
39 2.33
41 24.52
43 3.73
51 2.24
53 6.38
55 11.99
57 2.07
65 1.6
67 11.69
68 20.13
69 99.99
70 5.12
77 12.66
78 3.26
79 6.93
80 5.99
81 58.3
82 4.98
83 2.52
91 4.09
92 2.27
93 25.98
94 4.72
95 15.75
96 2.12
97 1.86
105 3.35
107 12.21
108 2.57
109 10.5
111 1.58
119 3.68
121 13.32
122 3.93
123 11.05
124 2.77
125 1.63
133 2.85
134 2.37
135 18.21
136 9.65
137 24.85
138 2.66
143 8.81
147 1.93
148 4.75
149 10.09
161 11.81
162 1.63
189 1.82
204 7.36
205 9.9
235 0.3
290 0.33
303 0.96
304 0.3
331 0.24
346 2.04
347 0.45
348 0.28

$$$$

     RDKit          2D

 25 28  0  0  1  0  0  0  0  0999 V2000
    5.5429    3.9861    0.0000 C   0  0  0  0  0  0  0  0  0  0  0  0
   -1.7200    1.0400    0.0000 C   0  0  0  0  0  0  0  0  0  0  0  0
    2.3387    3.2816    0.0000 C   0  0  0  0  0  0  0  0  0  0  0  0
    4.4900    1.0400    0.0000 C   0  0  0  0  0  0  0  0  0  0  0  0
    3.6100   -0.1800    0.0000 C   0  0  0  0  0  0  0  0  0  0  0  0
   -4.3200   -0.4600    0.0000 C   0  0  0  0  0  0  0  0  0  0  0  0
   -0.4200    1.7900    0.0000 C   0  0  0  0  0  0  0  0  0  0  0  0
   -3.0200    0.2900    0.0000 C   0  0  0  0  0  0  0  0  0  0  0  0
    0.8800    2.5400    0.0000 C   0  0  0  0  0  0  0  0  0  0  0  0
   -3.0200   -2.7100    0.0000 C   0  0  0  0  0  0  0  0  0  0  0  0
   -0.4200   -2.7100    0.0000 C   0  0  0  0  0  0  0  0  0  0  0  0
    3.0730    4.7920    0.0000 C   0  0  0  0  0  0  0  0  0  0  0  0
    4.0753    3.6760    0.0000 C   0  0  0  0  0  0  0  0  0  0  0  0
   -1.7200   -1.9600    0.0000 C   0  0  0  0  0  0  0  0  0  0  0  0
   -4.3200   -1.9600    0.0000 C   0  0  0  0  0  0  0  0  0  0  0  0
    3.6100    2.2500    0.0000 C   0  0  0  0  0  0  0  0  0  0  0  0
    2.1800    0.2900    0.0000 C   0  0  0  0  0  0  0  0  0  0  0  0
   -0.4200    0.2900    0.0000 C   0  0  0  0  0  0  0  0  0  0  0  0
    0.8800   -1.9600    0.0000 C   0  0  0  0  0  0  0  0  0  0  0  0
    0.8800   -0.4600    0.0000 C   0  0  0  0  0  0  0  0  0  0  0  0
   -1.7200   -0.4600    0.0000 C   0  0  0  0  0  0  0  0  0  0  0  0
    2.1800    1.7900    0.0000 C   0  0  0  0  0  0  0  0  0  0  0  0
    3.5382    6.2180    0.0000 O   0  0  0  0  0  0  0  0  0  0  0  0
   -5.6189   -2.7102    0.0000 O   0  0  0  0  0  0  0  0  0  0  0  0
    2.1789   -2.7102    0.0000 O   0  0  0  0  0  0  0  0  0  0  0  0
  5  4  1  0
  8  6  1  0
  9  7  1  0
 13  1  1  0
 13 12  1  0
 14 10  2  0
 14 11  1  0
 15  6  1  0
 15 10  1  0
 16  4  1  0
 16 13  1  1
 17  5  1  1
 18  7  1  1
 19 11  1  0
 20 17  1  0
 20 18  1  0
 20 19  1  6
 21  2  1  1
 21  8  1  0
 21 14  1  0
 21 18  1  0
 22  3  1  1
 22  9  1  0
 22 16  1  0
 22 17  1  0
 23 12  2  0
 24 15  2  0
 19 25  1  6
M  END
>  <NAME>  (1377) 
7-HYDROXY-PREGNA-4-ENE-3-ONE-20-CARBALDEHYDE

>  <SYNONYMS>  (1377) 


>  <SPECTRUM TYPE>  (1377) 
MS1

>  <INSTRUMENT TYPE>  (1377) 
EI-B

>  <INSTRUMENT>  (1377) 
JEOL JMS-D-300

>  <ION MODE>  (1377) 
P

>  <INCHIKEY>  (1377) 
ALHATGQVHVESGQ-PZSYZHRISA-N

>  <FORMULA>  (1377) 
C22H32O3

>  <EXACT MASS>  (1377) 
344.23514488399996

>  <MW>  (1377) 
344

>  <ID>  (1377) 
JP010046

>  <CONTRIBUTOR>  (1377) 
University of Tokyo Team, {Faculty of Engineering, University of Tokyo

>  <COMMENT>  (1377) 
SMILES=O=CC(C)C([H])(C4)C(C)(C3)C([H])(C4)C([H])(C(O)1)C([H])(C3)C(C)(C2)C(=CC(=O)C2)C1
InChI=InChI=1S/C22H32O3/c1-13(12-23)16-4-5-17-20-18(7-9-22(16,17)3)21(2)8-6-15(24)10-14(21)11-19(20)25/h10,12-13,16-20,25H,4-9,11H2,1-3H3/t13?,16-,17+,18+,19?,20+,21+,22-/m1/s1
computed SMILES=O=CC(C)C1CCC2C3C(O)CC4=CC(=O)CCC4(C)C3CCC12C
computed InChI=InChI=1S/C22H32O3/c1-13(12-23)16-4-5-17-20-18(7-9-22(16,17)3)21(2)8-6-15(24)10-14(21)11-19(20)25/h10,12-13,16-20,25H,4-9,11H2,1-3H3/t13?,16-,17+,18+,19-,20+,21+,22-/m1/s1
accession=JP010046
date=2016.01.19 (Created 2008.10.21, modified 2011.05.06)
author=KURARAY CO., LTD.
license=CC BY-NC-SA
exact mass=344.23514
ionization energy=70 eV
ion type=[M]+*
computed spectral entropy=3.7791639972385846
computed normalized entropy=0.8484214961004926
SPLASH=splash10-00di-3901000000-3d6b82a430e463577da1
submitter=submitter = University of Tokyo Team (Faculty of Engineering, University of Tokyo)
MoNA Rating=3.75

>  <NUM PEAKS>  (1377) 
86

>  <MASS SPECTRAL PEAKS>  (1377) 
27 1.12
29 3.65
39 1.86
41 10.3
43 6.9
44 3.51
53 3.68
55 13.4
57 1.88
67 8.12
69 3.29
77 5.66
79 9.15
80 1.33
81 9.21
82 1.52
83 2.01
91 9.07
92 1.47
93 9.76
94 1.94
95 10.02
97 1.37
105 7.06
106 2.32
107 7.39
108 2.23
109 9.3
110 1.69
111 1.14
117 2.72
119 6.52
120 2.62
121 4.52
122 10.92
123 19.16
124 99.99
125 10.55
128 1.22
129 2.29
131 4.55
132 2.29
133 6.37
134 3.33
135 7.98
136 3.11
137 3
143 2.43
145 5.37
146 2.02
147 4.23
148 1.77
149 1.77
152 5.04
155 1.25
157 2.01
159 2.81
160 1.45
161 4.52
162 4.14
163 2.88
169 0.9
171 1.93
173 3.79
174 4.44
175 3.68
176 1.36
183 1.07
185 2.62
187 1.01
189 0.95
199 1.71
203 1.03
227 3.19
253 1.36
268 1.69
269 1.69
284 1.69
288 13.87
289 2.53
311 1.55
316 5.48
326 9.24
327 1.88
344 17.87
345 4.8

$$$$

     RDKit          2D

 25 28  0  0  1  0  0  0  0  0999 V2000
    5.5429    3.9861    0.0000 C   0  0  0  0  0  0  0  0  0  0  0  0
   -1.7200    1.0400    0.0000 C   0  0  0  0  0  0  0  0  0  0  0  0
    2.3387    3.2816    0.0000 C   0  0  0  0  0  0  0  0  0  0  0  0
    4.4900    1.0400    0.0000 C   0  0  0  0  0  0  0  0  0  0  0  0
    3.6100   -0.1800    0.0000 C   0  0  0  0  0  0  0  0  0  0  0  0
   -4.3200   -0.4600    0.0000 C   0  0  0  0  0  0  0  0  0  0  0  0
   -0.4200    1.7900    0.0000 C   0  0  0  0  0  0  0  0  0  0  0  0
   -3.0200    0.2900    0.0000 C   0  0  0  0  0  0  0  0  0  0  0  0
    0.8800    2.5400    0.0000 C   0  0  0  0  0  0  0  0  0  0  0  0
   -3.0200   -2.7100    0.0000 C   0  0  0  0  0  0  0  0  0  0  0  0
   -0.4200   -2.7100    0.0000 C   0  0  0  0  0  0  0  0  0  0  0  0
    3.0730    4.7920    0.0000 C   0  0  0  0  0  0  0  0  0  0  0  0
    4.0753    3.6760    0.0000 C   0  0  0  0  0  0  0  0  0  0  0  0
   -1.7200   -1.9600    0.0000 C   0  0  0  0  0  0  0  0  0  0  0  0
   -4.3200   -1.9600    0.0000 C   0  0  0  0  0  0  0  0  0  0  0  0
    3.6100    2.2500    0.0000 C   0  0  0  0  0  0  0  0  0  0  0  0
    2.1800    0.2900    0.0000 C   0  0  0  0  0  0  0  0  0  0  0  0
   -0.4200    0.2900    0.0000 C   0  0  0  0  0  0  0  0  0  0  0  0
    0.8800   -1.9600    0.0000 C   0  0  0  0  0  0  0  0  0  0  0  0
    0.8800   -0.4600    0.0000 C   0  0  0  0  0  0  0  0  0  0  0  0
   -1.7200   -0.4600    0.0000 C   0  0  0  0  0  0  0  0  0  0  0  0
    2.1800    1.7900    0.0000 C   0  0  0  0  0  0  0  0  0  0  0  0
    3.5382    6.2180    0.0000 O   0  0  0  0  0  0  0  0  0  0  0  0
   -5.6189   -2.7102    0.0000 O   0  0  0  0  0  0  0  0  0  0  0  0
    2.1789   -2.7102    0.0000 O   0  0  0  0  0  0  0  0  0  0  0  0
  5  4  1  0
  8  6  2  0
  9  7  1  0
 13  1  1  0
 13 12  1  0
 14 10  2  0
 14 11  1  0
 15  6  1  0
 15 10  1  0
 16  4  1  0
 16 13  1  1
 17  5  1  1
 18  7  1  1
 19 11  1  0
 20 17  1  0
 20 18  1  0
 20 19  1  6
 21  2  1  1
 21  8  1  0
 21 14  1  0
 21 18  1  0
 22  3  1  1
 22  9  1  0
 22 16  1  0
 22 17  1  0
 23 12  2  0
 24 15  2  0
 19 25  1  6
M  END
>  <NAME>  (1378) 
7-HYDROXY-PREGNA-1,4-DIEN-3-ONE-20-CARBALDEHYDE

>  <SYNONYMS>  (1378) 


>  <SPECTRUM TYPE>  (1378) 
MS1

>  <INSTRUMENT TYPE>  (1378) 
EI-B

>  <INSTRUMENT>  (1378) 
JEOL JMS-D-300

>  <ION MODE>  (1378) 
P

>  <INCHIKEY>  (1378) 
XKNAFGDXOSIMKT-PZSYZHRISA-N

>  <FORMULA>  (1378) 
C22H30O3

>  <EXACT MASS>  (1378) 
342.21949481999997

>  <MW>  (1378) 
342

>  <ID>  (1378) 
JP010045

>  <CONTRIBUTOR>  (1378) 
University of Tokyo Team, {Faculty of Engineering, University of Tokyo

>  <COMMENT>  (1378) 
SMILES=O=CC(C)C([H])(C4)C(C)(C3)C([H])(C4)C([H])(C(O)1)C([H])(C3)C(C)(C=2)C(=CC(=O)C2)C1
InChI=InChI=1S/C22H30O3/c1-13(12-23)16-4-5-17-20-18(7-9-22(16,17)3)21(2)8-6-15(24)10-14(21)11-19(20)25/h6,8,10,12-13,16-20,25H,4-5,7,9,11H2,1-3H3/t13?,16-,17+,18+,19?,20+,21+,22-/m1/s1
computed SMILES=O=CC(C)C1CCC2C3C(O)CC4=CC(=O)C=CC4(C)C3CCC12C
computed InChI=InChI=1S/C22H30O3/c1-13(12-23)16-4-5-17-20-18(7-9-22(16,17)3)21(2)8-6-15(24)10-14(21)11-19(20)25/h6,8,10,12-13,16-20,25H,4-5,7,9,11H2,1-3H3/t13?,16-,17+,18+,19-,20+,21+,22-/m1/s1
accession=JP010045
date=2016.01.19 (Created 2008.10.21, modified 2011.05.06)
author=KURARAY CO., LTD.
license=CC BY-NC-SA
exact mass=342.21949
ionization energy=70 eV
ion type=[M]+*
computed spectral entropy=3.738037971747364
computed normalized entropy=0.8712442159217417
SPLASH=splash10-00di-2900000000-3fa6b3eb8757849afb03
submitter=submitter = University of Tokyo Team (Faculty of Engineering, University of Tokyo)
MoNA Rating=3.75

>  <NUM PEAKS>  (1378) 
73

>  <MASS SPECTRAL PEAKS>  (1378) 
29 4.9
39 1.98
41 8.34
43 4.47
53 3.45
55 10.26
57 2.65
65 2.03
67 6.14
69 5.01
77 6.04
79 7.45
81 7.78
83 2.83
91 11.74
92 3.97
93 13.96
94 2.95
95 8.62
105 8.29
106 3.68
107 10.24
108 5.42
109 6.26
115 2.22
117 3.64
118 3.17
119 6.18
120 3.17
121 25.53
122 99.99
123 12.02
124 2.5
129 2.5
131 7.66
132 3.53
133 12.88
134 5.84
135 10.49
136 2.01
143 3.61
144 1.75
145 10.49
146 3.92
147 8.01
148 2.17
149 2.17
150 22.97
151 25.98
152 3.62
157 2.9
158 2.26
159 7.04
160 26.23
161 9.57
162 2.22
163 4.39
171 5.46
172 4
173 8.84
174 5.37
175 5.01
185 3.76
186 1.39
187 1.62
189 1.95
203 2.12
225 2.65
251 2.5
267 3.09
268 5.36
324 7.07
342 1.59

$$$$

     RDKit          2D

 24 25  0  0  0  0  0  0  0  0999 V2000
   10.0229    2.7915    0.0000 C   0  0  0  0  0  0  0  0  0  0  0  0
    6.1264   -0.9592    0.0000 C   0  0  0  0  0  0  0  0  0  0  0  0
   16.5193    3.5423    0.0000 C   0  0  0  0  0  0  0  0  0  0  0  0
   -0.3700   -1.7100    0.0000 C   0  0  0  0  0  0  0  0  0  0  0  0
   17.8193    2.7923    0.0000 C   0  0  0  0  0  0  0  0  0  0  0  0
   -1.6700   -0.9600    0.0000 C   0  0  0  0  0  0  0  0  0  0  0  0
   15.2193    2.7923    0.0000 C   0  0  0  0  0  0  0  0  0  0  0  0
    0.9300   -0.9600    0.0000 C   0  0  0  0  0  0  0  0  0  0  0  0
    8.7242    0.5412    0.0000 C   0  0  0  0  0  0  0  0  0  0  0  0
    7.4251    1.2910    0.0000 C   0  0  0  0  0  0  0  0  0  0  0  0
   11.3223    0.5417    0.0000 C   0  0  0  0  0  0  0  0  0  0  0  0
    4.8270    1.2906    0.0000 C   0  0  0  0  0  0  0  0  0  0  0  0
   17.8193    1.2923    0.0000 C   0  0  0  0  0  0  0  0  0  0  0  0
   -1.6700    0.5400    0.0000 C   0  0  0  0  0  0  0  0  0  0  0  0
   12.6212    1.2919    0.0000 C   0  0  0  0  0  0  0  0  0  0  0  0
    3.5281    0.5404    0.0000 C   0  0  0  0  0  0  0  0  0  0  0  0
   10.0231    1.2915    0.0000 C   0  0  0  0  0  0  0  0  0  0  0  0
    6.1262    0.5408    0.0000 C   0  0  0  0  0  0  0  0  0  0  0  0
   15.2193    1.2923    0.0000 C   0  0  0  0  0  0  0  0  0  0  0  0
    0.9300    0.5400    0.0000 C   0  0  0  0  0  0  0  0  0  0  0  0
   16.5193    0.5423    0.0000 O   0  0  0  0  0  0  0  0  0  0  0  0
   -0.3700    1.2900    0.0000 O   0  0  0  0  0  0  0  0  0  0  0  0
   13.9204    0.5421    0.0000 O   0  0  0  0  0  0  0  0  0  0  0  0
    2.2289    1.2902    0.0000 O   0  0  0  0  0  0  0  0  0  0  0  0
  5  3  1  0
  6  4  1  0
  7  3  1  0
  8  4  1  0
 10  9  1  0
 13  5  1  0
 14  6  1  0
 15 11  1  0
 16 12  1  0
 17  1  1  0
 17  9  1  0
 17 11  1  0
 18  2  1  0
 18 10  1  0
 18 12  1  0
 19  7  1  0
 20  8  1  0
 21 13  1  0
 21 19  1  0
 22 14  1  0
 22 20  1  0
 23 15  1  0
 23 19  1  0
 24 16  1  0
 24 20  1  0
M  END
>  <NAME>  (1379) 
OCTANE-3,6-DIMETHYL-1,8-BIS-(2-OXYTETRAHYDRO-2H-PYRANYL)

>  <SYNONYMS>  (1379) 


>  <SPECTRUM TYPE>  (1379) 
MS1

>  <INSTRUMENT TYPE>  (1379) 
EI-B

>  <INSTRUMENT>  (1379) 
JEOL JMS-D-300

>  <ION MODE>  (1379) 
P

>  <INCHIKEY>  (1379) 
CMMVTFNLFCVCPP-UHFFFAOYSA-N

>  <FORMULA>  (1379) 
C20H38O4

>  <EXACT MASS>  (1379) 
342.277009696

>  <MW>  (1379) 
342

>  <ID>  (1379) 
JP010044

>  <CONTRIBUTOR>  (1379) 
University of Tokyo Team, {Faculty of Engineering, University of Tokyo

>  <COMMENT>  (1379) 
SMILES=CC(CCOC(C2)OCCC2)CCC(C)CCOC(C1)OCCC1
InChI=InChI=1S/C20H38O4/c1-17(11-15-23-19-7-3-5-13-21-19)9-10-18(2)12-16-24-20-8-4-6-14-22-20/h17-20H,3-16H2,1-2H3
computed SMILES=O1CCCCC1OCCC(C)CCC(C)CCOC2OCCCC2
accession=JP010044
date=2016.01.19 (Created 2008.10.21, modified 2011.05.06)
author=KURARAY CO., LTD.
license=CC BY-NC-SA
exact mass=342.27701
ionization energy=70 eV
ion type=[M]+*
computed spectral entropy=2.359793503919759
computed normalized entropy=0.7526065562268865
SPLASH=splash10-000i-9000000000-3e5d5a5e7190dcb8f8c7
submitter=submitter = University of Tokyo Team (Faculty of Engineering, University of Tokyo)
MoNA Rating=3.75

>  <NUM PEAKS>  (1379) 
23

>  <MASS SPECTRAL PEAKS>  (1379) 
27 2.56
28 2.7
29 7.26
31 2.44
39 1.97
41 16.74
42 1.97
43 7.42
55 19.08
56 8.05
57 11.56
67 6.36
69 12.12
70 2.48
71 1.76
81 2
83 11.86
84 5.64
85 99.99
86 5.52
97 2.55
101 10.14
257 4.14

$$$$

     RDKit          2D

 20 20  0  0  0  0  0  0  0  0999 V2000
   -6.3041    0.8603    0.0000 C   0  0  0  0  0  0  0  0  0  0  0  0
    6.6863   -2.1397    0.0000 C   0  0  0  0  0  0  0  0  0  0  0  0
    6.5296   -3.0282    0.0000 C   0  0  0  0  0  0  0  0  0  0  0  0
   -2.4074   -1.3905    0.0000 C   0  0  0  0  0  0  0  0  0  0  0  0
    0.1916    0.1112    0.0000 C   0  0  0  0  0  0  0  0  0  0  0  0
    2.7892   -1.3897    0.0000 C   0  0  0  0  0  0  0  0  0  0  0  0
   -2.4069    0.1103    0.0000 C   0  0  0  0  0  0  0  0  0  0  0  0
   -1.1074    0.8612    0.0000 C   0  0  0  0  0  0  0  0  0  0  0  0
   -1.1084   -2.1405    0.0000 C   0  0  0  0  0  0  0  0  0  0  0  0
    0.1911   -1.3897    0.0000 C   0  0  0  0  0  0  0  0  0  0  0  0
   -3.7060    0.8603    0.0000 C   0  0  0  0  0  0  0  0  0  0  0  0
   -1.1077    2.3612    0.0000 Cl  0  0  0  0  0  0  0  0  0  0  0  0
   -1.1081   -3.6405    0.0000 Cl  0  0  0  0  0  0  0  0  0  0  0  0
    1.4902   -2.1397    0.0000 N   0  0  0  0  0  0  0  0  0  0  0  0
   -3.7060    2.3603    0.0000 O   0  0  0  0  0  0  0  0  0  0  0  0
    3.1241   -3.2887    0.0000 O   0  0  0  0  0  0  0  0  0  0  0  0
   -5.0050    0.1103    0.0000 O   0  0  0  0  0  0  0  0  0  0  0  0
    5.3873   -1.3897    0.0000 O   0  0  0  0  0  0  0  0  0  0  0  0
    5.0524   -3.2887    0.0000 O   0  0  0  0  0  0  0  0  0  0  0  0
    4.0882   -2.1397    0.0000 P   0  0  0  0  0  0  0  0  0  0  0  0
  7  4  2  0
  8  5  2  0
  8  7  1  0
  9  4  1  0
 10  5  1  0
 10  9  2  0
 11  7  1  0
 12  8  1  0
 13  9  1  0
 14  6  1  0
 14 10  1  0
 15 11  2  0
 17  1  1  0
 17 11  1  0
 18  2  1  0
 19  3  1  0
 20  6  1  0
 20 16  2  0
 20 18  1  0
 20 19  1  0
M  END
>  <NAME>  (1380) 
DIMETHYL 2,5-DICHLORO-4-METHOXYCARBONYL PHENYLAMINOMETHYLPHOPHONATE

>  <SYNONYMS>  (1380) 


>  <SPECTRUM TYPE>  (1380) 
MS1

>  <INSTRUMENT TYPE>  (1380) 
EI-B

>  <INSTRUMENT>  (1380) 
JEOL JMS-D-300

>  <ION MODE>  (1380) 
P

>  <INCHIKEY>  (1380) 
LWQMIQAGQGFXHX-UHFFFAOYSA-N

>  <FORMULA>  (1380) 
C11H14Cl2NO5P

>  <EXACT MASS>  (1380) 
340.998664538

>  <MW>  (1380) 
341

>  <ID>  (1380) 
JP010043

>  <CONTRIBUTOR>  (1380) 
University of Tokyo Team, {Faculty of Engineering, University of Tokyo

>  <COMMENT>  (1380) 
SMILES=COC(=O)c(c1)c(Cl)cc(NCP(=O)(OC)OC)c(Cl)1
InChI=InChI=1S/C11H14Cl2NO5P/c1-17-11(15)7-4-9(13)10(5-8(7)12)14-6-20(16,18-2)19-3/h4-5,14H,6H2,1-3H3
computed SMILES=O=C(OC)C=1C=C(Cl)C(=CC1Cl)NCP(=O)(OC)OC
accession=JP010043
date=2016.01.19 (Created 2008.10.21, modified 2011.05.06)
author=KURARAY CO., LTD.
license=CC BY-NC-SA
exact mass=340.99866
ionization energy=70 eV
ion type=[M]+*
computed spectral entropy=3.330250991005338
computed normalized entropy=0.8854224419248277
SPLASH=splash10-0uei-1690000000-bfc96ef118c63010b5ed
submitter=submitter = University of Tokyo Team (Faculty of Engineering, University of Tokyo)
MoNA Rating=3.75

>  <NUM PEAKS>  (1380) 
43

>  <MASS SPECTRAL PEAKS>  (1380) 
28 6.71
32 7.4
62 9.42
63 14.89
73 15.57
74 13.94
75 9.3
97 13.53
99 11.27
100 10.99
109 15.39
124 24.31
125 12.99
126 10.34
136 14.65
137 11.11
138 11.54
153 14
160 32.42
161 12.11
162 21.1
163 13.74
169 2
172 16.45
174 10.06
188 86.16
189 7.68
190 56.91
192 9.34
200 99.99
201 9.91
202 66.32
203 11.15
204 11.15
219 80.6
220 7.18
221 49.37
223 7.4
231 87.4
232 12.17
233 55.94
234 5.52
235 9.47

$$$$

     RDKit          2D

 25 27  0  0  0  0  0  0  0  0999 V2000
   -3.7389    1.4102    0.0000 C   0  0  0  0  0  0  0  0  0  0  0  0
   -1.1400    2.9100    0.0000 C   0  0  0  0  0  0  0  0  0  0  0  0
   -1.1400   -3.0900    0.0000 C   0  0  0  0  0  0  0  0  0  0  0  0
    4.2372    0.3997    0.0000 C   0  0  0  0  0  0  0  0  0  0  0  0
    9.6941    4.5224    0.0000 C   0  0  0  0  0  0  0  0  0  0  0  0
    8.7295    5.6723    0.0000 C   0  0  0  0  0  0  0  0  0  0  0  0
    9.1815    3.1119    0.0000 C   0  0  0  0  0  0  0  0  0  0  0  0
    7.2523    5.4115    0.0000 C   0  0  0  0  0  0  0  0  0  0  0  0
    7.7044    2.8511    0.0000 C   0  0  0  0  0  0  0  0  0  0  0  0
    1.4600   -1.5900    0.0000 C   0  0  0  0  0  0  0  0  0  0  0  0
    2.7600   -0.8400    0.0000 C   0  0  0  0  0  0  0  0  0  0  0  0
    5.2626    3.7401    0.0000 C   0  0  0  0  0  0  0  0  0  0  0  0
   -2.4400    0.6600    0.0000 C   0  0  0  0  0  0  0  0  0  0  0  0
   -1.1400    1.4100    0.0000 C   0  0  0  0  0  0  0  0  0  0  0  0
   -1.1400   -1.5900    0.0000 C   0  0  0  0  0  0  0  0  0  0  0  0
    6.7398    4.0009    0.0000 C   0  0  0  0  0  0  0  0  0  0  0  0
    0.1600   -0.8400    0.0000 C   0  0  0  0  0  0  0  0  0  0  0  0
   -2.4400   -0.8400    0.0000 C   0  0  0  0  0  0  0  0  0  0  0  0
    0.1600    0.6600    0.0000 C   0  0  0  0  0  0  0  0  0  0  0  0
    3.2727    2.0696    0.0000 C   0  0  0  0  0  0  0  0  0  0  0  0
    2.7600    0.6600    0.0000 C   0  0  0  0  0  0  0  0  0  0  0  0
   -3.7389   -1.5902    0.0000 O   0  0  0  0  0  0  0  0  0  0  0  0
    2.3083    3.2185    0.0000 O   0  0  0  0  0  0  0  0  0  0  0  0
    4.7499    2.3304    0.0000 O   0  0  0  0  0  0  0  0  0  0  0  0
    1.4600    1.4100    0.0000 O   0  0  0  0  0  0  0  0  0  0  0  0
  6  5  2  0
  7  5  1  0
  8  6  1  0
  9  7  2  0
 11 10  1  0
 13  1  1  0
 14  2  1  0
 14 13  1  0
 15  3  1  0
 16  8  2  0
 16  9  1  0
 16 12  1  0
 17 10  1  0
 17 15  2  0
 18 13  2  0
 18 15  1  0
 19 14  2  0
 19 17  1  0
 21  4  1  0
 21 11  1  0
 21 20  1  0
 22 18  1  0
 23 20  2  0
 24 12  1  0
 24 20  1  0
 25 19  1  0
 25 21  1  0
M  END
>  <NAME>  (1381) 
3,4-DIHYDRO-2,5,7,8-TRIMETHYL-2-BENZYLOXYCARBONYL-2H-1-BENZOPYRAN-6-OL

>  <SYNONYMS>  (1381) 
2-BENZYLOXYCARBONYL-6-HYDROXY-2,5,7,8-TETRAMETHYL-3,4-DIHYDRO-2H-1-BENZOPYRAN

>  <SPECTRUM TYPE>  (1381) 
MS1

>  <INSTRUMENT TYPE>  (1381) 
EI-B

>  <INSTRUMENT>  (1381) 
JEOL JMS-D-300

>  <ION MODE>  (1381) 
P

>  <INCHIKEY>  (1381) 
BKLVARSCGRWNBA-UHFFFAOYSA-N

>  <FORMULA>  (1381) 
C21H24O4

>  <EXACT MASS>  (1381) 
340.167459248

>  <MW>  (1381) 
340

>  <ID>  (1381) 
JP010042

>  <CONTRIBUTOR>  (1381) 
University of Tokyo Team, {Faculty of Engineering, University of Tokyo

>  <COMMENT>  (1381) 
SMILES=c(c3)ccc(c3)COC(=O)C(C)(C2)Oc(c(C)1)c(C2)c(C)c(O)c(C)1
InChI=InChI=1S/C21H24O4/c1-13-14(2)19-17(15(3)18(13)22)10-11-21(4,25-19)20(23)24-12-16-8-6-5-7-9-16/h5-9,22H,10-12H2,1-4H3
computed SMILES=O=C(OCC=1C=CC=CC1)C2(OC=3C(=C(C(O)=C(C3CC2)C)C)C)C
accession=JP010042
date=2016.01.19 (Created 2008.10.21, modified 2011.05.06)
author=KURARAY CO., LTD.
license=CC BY-NC-SA
exact mass=340.16746
ionization energy=70 eV
ion type=[M]+*
computed spectral entropy=2.5343152587307456
computed normalized entropy=0.7380095229885146
SPLASH=splash10-052f-5297000000-0ee6ab57d031630d2d7b
submitter=submitter = University of Tokyo Team (Faculty of Engineering, University of Tokyo)
MoNA Rating=3.75

>  <NUM PEAKS>  (1381) 
31

>  <MASS SPECTRAL PEAKS>  (1381) 
28 2.16
32 11.01
40 3.08
41 3.08
43 14.2
44 2.54
65 3.71
77 2.43
91 41.76
92 3.6
105 2.5
121 3.19
135 1.6
136 1.5
149 3
164 16.3
165 3.42
175 2.95
189 4.15
190 5.23
203 16.21
204 3.05
205 99.99
206 13.96
221 4.39
231 4.45
249 5.28
339 5.1
340 94.23
341 21.45
342 2.99

$$$$

     RDKit          2D

 24 23  0  0  0  0  0  0  0  0999 V2000
    5.1962    8.2500    0.0000 C   0  0  0  0  0  0  0  0  0  0  0  0
    3.8971   10.5000    0.0000 C   0  0  0  0  0  0  0  0  0  0  0  0
  -14.2894    9.0000    0.0000 C   0  0  0  0  0  0  0  0  0  0  0  0
  -12.9904    6.7500    0.0000 C   0  0  0  0  0  0  0  0  0  0  0  0
   -0.3349   10.1491    0.0000 C   0  0  0  0  0  0  0  0  0  0  0  0
   -8.7584    7.1009    0.0000 C   0  0  0  0  0  0  0  0  0  0  0  0
    1.2990    9.0000    0.0000 C   0  0  0  0  0  0  0  0  0  0  0  0
  -10.3923    8.2500    0.0000 C   0  0  0  0  0  0  0  0  0  0  0  0
    2.5981    8.2500    0.0000 C   0  0  0  0  0  0  0  0  0  0  0  0
  -11.6913    9.0000    0.0000 C   0  0  0  0  0  0  0  0  0  0  0  0
    0.0000    8.2500    0.0000 C   0  0  0  0  0  0  0  0  0  0  0  0
   -9.0933    9.0000    0.0000 C   0  0  0  0  0  0  0  0  0  0  0  0
   -2.5981    8.2500    0.0000 C   0  0  0  0  0  0  0  0  0  0  0  0
   -6.4952    9.0000    0.0000 C   0  0  0  0  0  0  0  0  0  0  0  0
    3.8971    9.0000    0.0000 C   0  0  0  0  0  0  0  0  0  0  0  0
  -12.9904    8.2500    0.0000 C   0  0  0  0  0  0  0  0  0  0  0  0
   -3.8971    9.0000    0.0000 C   0  0  0  0  0  0  0  0  0  0  0  0
   -5.1962    8.2500    0.0000 C   0  0  0  0  0  0  0  0  0  0  0  0
   -1.2990    9.0000    0.0000 C   0  0  0  0  0  0  0  0  0  0  0  0
   -7.7942    8.2500    0.0000 C   0  0  0  0  0  0  0  0  0  0  0  0
   -3.8971   10.5000    0.0000 O   0  0  0  0  0  0  0  0  0  0  0  0
   -5.1962    6.7500    0.0000 O   0  0  0  0  0  0  0  0  0  0  0  0
   -2.2632   10.1491    0.0000 O   0  0  0  0  0  0  0  0  0  0  0  0
   -6.8300    7.1009    0.0000 O   0  0  0  0  0  0  0  0  0  0  0  0
  9  7  1  0
 10  8  1  0
 11  7  1  0
 12  8  1  0
 15  1  1  0
 15  2  1  0
 15  9  2  0
 16  3  1  0
 16  4  1  0
 16 10  2  0
 17 13  1  0
 18 14  1  0
 18 17  1  0
 19  5  1  0
 19 11  1  0
 19 13  1  0
 20  6  1  0
 20 12  1  0
 20 14  1  0
 21 17  1  0
 22 18  2  0
 23 19  1  0
 24 20  1  0
M  END
>  <NAME>  (1382) 
2,6,11,15-TETRAMETHYL-2,14-HEXADECADIENE-6,9,11-TRIOL-8-ONE

>  <SYNONYMS>  (1382) 


>  <SPECTRUM TYPE>  (1382) 
MS1

>  <INSTRUMENT TYPE>  (1382) 
EI-B

>  <INSTRUMENT>  (1382) 
JEOL JMS-D-300

>  <ION MODE>  (1382) 
P

>  <INCHIKEY>  (1382) 
NMPBMQZZQNDZKJ-UHFFFAOYSA-N

>  <FORMULA>  (1382) 
C20H36O4

>  <EXACT MASS>  (1382) 
340.261359632

>  <MW>  (1382) 
340

>  <ID>  (1382) 
JP010041

>  <CONTRIBUTOR>  (1382) 
University of Tokyo Team, {Faculty of Engineering, University of Tokyo

>  <COMMENT>  (1382) 
SMILES=CC(C)=CCCC(C)(O)CC(O)C(=O)CC(C)(O)CCC=C(C)C
InChI=InChI=1S/C20H36O4/c1-15(2)9-7-11-19(5,23)13-17(21)18(22)14-20(6,24)12-8-10-16(3)4/h9-10,17,21,23-24H,7-8,11-14H2,1-6H3
computed SMILES=O=C(CC(O)(C)CCC=C(C)C)C(O)CC(O)(C)CCC=C(C)C
accession=JP010041
date=2016.01.19 (Created 2008.10.21, modified 2011.05.06)
author=KURARAY CO., LTD.
license=CC BY-NC-SA
exact mass=340.26136
ionization energy=70 eV
ion type=[M]+*
computed spectral entropy=3.8502952228631533
computed normalized entropy=0.8535613262396273
SPLASH=splash10-05mo-9600000000-bf5ccc50547d47406190
submitter=submitter = University of Tokyo Team (Faculty of Engineering, University of Tokyo)
MoNA Rating=3.75

>  <NUM PEAKS>  (1382) 
91

>  <MASS SPECTRAL PEAKS>  (1382) 
27 2.2
28 1.87
29 4.36
31 2.16
39 2.73
41 37.55
42 2.75
43 66
44 2.35
45 4.39
53 4.55
55 20.94
56 3.42
57 5.61
58 4.21
59 5.8
67 10.39
68 6.99
69 99.99
70 13.39
71 33.39
72 6.06
73 3
77 1.63
79 3.74
80 5.82
81 2.75
82 27.78
83 21.92
84 5.6
85 6.09
86 2.64
87 13.12
88 7.57
91 1.94
92 2.51
93 27.66
94 5.29
95 17.18
96 2.95
97 7.45
98 2.11
99 2.58
101 1.65
103 1.65
105 1.79
107 9.92
108 26.15
109 68.69
110 13.41
111 11.91
112 2.51
113 4.09
114 14.25
115 4.27
119 2.42
121 9.77
122 2.32
123 8.03
124 6.08
125 8.82
126 19.54
127 19.98
128 2.35
129 3.91
134 3.55
135 31
136 9.77
137 10.08
138 2.06
139 3.74
140 2.01
143 2.01
149 2.2
151 2.8
152 4.09
153 11.88
154 4.17
155 2.45
165 1.91
169 11.95
170 1.37
171 2.88
213 1.56
237 1.89
239 1.75
240 4.31
255 6.06
322 3.59
340 6.58
341 2.18

$$$$

     RDKit          2D

 25 28  0  0  0  0  0  0  0  0999 V2000
    4.5490   -0.8784    0.0000 C   0  0  0  0  0  0  0  0  0  0  0  0
    1.9500   -0.9000    0.0000 C   0  0  0  0  0  0  0  0  0  0  0  0
   11.0606    1.3847    0.0000 C   0  0  0  0  0  0  0  0  0  0  0  0
    0.6300   -1.6600    0.0000 C   0  0  0  0  0  0  0  0  0  0  0  0
   12.3788    0.6215    0.0000 C   0  0  0  0  0  0  0  0  0  0  0  0
    3.2486    1.3708    0.0000 C   0  0  0  0  0  0  0  0  0  0  0  0
    0.6300    1.3800    0.0000 C   0  0  0  0  0  0  0  0  0  0  0  0
    9.7460   -0.8985    0.0000 C   0  0  0  0  0  0  0  0  0  0  0  0
    8.4447    1.3739    0.0000 C   0  0  0  0  0  0  0  0  0  0  0  0
   -2.9400   -0.2300    0.0000 C   0  0  0  0  0  0  0  0  0  0  0  0
   12.9253   -3.1852    0.0000 C   0  0  0  0  0  0  0  0  0  0  0  0
    4.5481    0.6216    0.0000 C   0  0  0  0  0  0  0  0  0  0  0  0
    1.9500    0.6200    0.0000 C   0  0  0  0  0  0  0  0  0  0  0  0
    9.7442    0.6247    0.0000 C   0  0  0  0  0  0  0  0  0  0  0  0
   -0.6600   -0.9000    0.0000 C   0  0  0  0  0  0  0  0  0  0  0  0
   12.3656   -0.8757    0.0000 C   0  0  0  0  0  0  0  0  0  0  0  0
   -0.6600    0.6200    0.0000 C   0  0  0  0  0  0  0  0  0  0  0  0
   11.0492   -1.6357    0.0000 C   0  0  0  0  0  0  0  0  0  0  0  0
    5.8467    1.3723    0.0000 C   0  0  0  0  0  0  0  0  0  0  0  0
    5.8458    2.8723    0.0000 O   0  0  0  0  0  0  0  0  0  0  0  0
    7.1462    0.6231    0.0000 O   0  0  0  0  0  0  0  0  0  0  0  0
   -2.0600   -1.3400    0.0000 O   0  0  0  0  0  0  0  0  0  0  0  0
   13.4466   -1.8681    0.0000 O   0  0  0  0  0  0  0  0  0  0  0  0
   -2.0900    1.0600    0.0000 O   0  0  0  0  0  0  0  0  0  0  0  0
   11.3832   -3.0941    0.0000 O   0  0  0  0  0  0  0  0  0  0  0  0
  4  2  2  0
  5  3  2  0
 12  1  1  0
  6 12  2  0
 13  2  1  0
 13  6  1  0
 13  7  2  0
 14  3  1  0
 14  8  2  0
 14  9  1  0
 15  4  1  0
 16  5  1  0
 17  7  1  0
 17 15  2  0
 18  8  1  0
 18 16  2  0
 19 12  1  0
 20 19  2  0
 21  9  1  0
 21 19  1  0
 22 10  1  0
 22 15  1  0
 23 11  1  0
 23 16  1  0
 24 10  1  0
 24 17  1  0
 25 11  1  0
 25 18  1  0
M  END
>  <NAME>  (1383) 
3,4-(METHYLENEDIOXY)BENZYL 3,4-(METHYLENEDIOXY)-ALPHA-METHYLCINNAMATE

>  <SYNONYMS>  (1383) 
1,3-BENZODIOXOL-5-(2-METHYL-1-PROPENIC ACID)-1,3-BENZODIOXOL-5-METHYL ESTER

>  <SPECTRUM TYPE>  (1383) 
MS1

>  <INSTRUMENT TYPE>  (1383) 
EI-B

>  <INSTRUMENT>  (1383) 
JEOL JMS-D-300

>  <ION MODE>  (1383) 
P

>  <INCHIKEY>  (1383) 
UQGWIRIJKQMRHI-WUXMJOGZSA-N

>  <FORMULA>  (1383) 
C19H16O6

>  <EXACT MASS>  (1383) 
340.09468823199995

>  <MW>  (1383) 
340

>  <ID>  (1383) 
JP010040

>  <CONTRIBUTOR>  (1383) 
University of Tokyo Team, {Faculty of Engineering, University of Tokyo

>  <COMMENT>  (1383) 
SMILES=O=C(OCc(c3)cc(O4)c(OC4)c3)C(C)=Cc(c1)cc(O2)c(OC2)c1
InChI=InChI=1S/C19H16O6/c1-12(6-13-2-4-15-17(7-13)24-10-22-15)19(20)21-9-14-3-5-16-18(8-14)25-11-23-16/h2-8H,9-11H2,1H3/b12-6+
computed SMILES=O=C(OCC1=CC=C2OCOC2=C1)C(=CC3=CC=C4OCOC4=C3)C
accession=JP010040
date=2016.01.19 (Created 2008.10.21, modified 2011.05.06)
author=KURARAY CO., LTD.
license=CC BY-NC-SA
exact mass=340.09469
ionization energy=70 eV
ion type=[M]+*
computed spectral entropy=2.0689418774048627
computed normalized entropy=0.6598455410614646
SPLASH=splash10-000i-1902000000-e579ac407345e0d54022
submitter=submitter = University of Tokyo Team (Faculty of Engineering, University of Tokyo)
MoNA Rating=3.75

>  <NUM PEAKS>  (1383) 
23

>  <MASS SPECTRAL PEAKS>  (1383) 
51 4.14
77 11.54
79 1.21
103 5.91
105 4.17
131 1.88
135 99.99
137 14.77
149 2.73
159 1.93
160 1.6
161 1.87
162 1.76
175 4.15
189 4.36
190 1.87
204 2.48
205 3.17
295 3.98
296 1.61
322 1.18
340 26.8
341 5.55

$$$$

     RDKit          2D

 24 24  0  0  0  0  0  0  0  0999 V2000
    2.5989   -1.5002    0.0000 C   0  0  0  0  0  0  0  0  0  0  0  0
   -3.8981   -0.7504    0.0000 C   0  0  0  0  0  0  0  0  0  0  0  0
   -3.8981    0.7504    0.0000 C   0  0  0  0  0  0  0  0  0  0  0  0
    7.7951    1.5010    0.0000 C   0  0  0  0  0  0  0  0  0  0  0  0
    9.0942    0.7512    0.0000 C   0  0  0  0  0  0  0  0  0  0  0  0
    6.4962    0.7508    0.0000 C   0  0  0  0  0  0  0  0  0  0  0  0
   10.3931    1.5015    0.0000 C   0  0  0  0  0  0  0  0  0  0  0  0
    5.1970    1.5006    0.0000 C   0  0  0  0  0  0  0  0  0  0  0  0
   11.6923    0.7517    0.0000 C   0  0  0  0  0  0  0  0  0  0  0  0
    3.8981    0.7504    0.0000 C   0  0  0  0  0  0  0  0  0  0  0  0
   12.9912    1.5019    0.0000 C   0  0  0  0  0  0  0  0  0  0  0  0
    2.5989    1.5002    0.0000 C   0  0  0  0  0  0  0  0  0  0  0  0
   14.2904    0.7521    0.0000 C   0  0  0  0  0  0  0  0  0  0  0  0
    1.3000   -0.7500    0.0000 C   0  0  0  0  0  0  0  0  0  0  0  0
    1.3000    0.7500    0.0000 C   0  0  0  0  0  0  0  0  0  0  0  0
    0.0000   -1.5000    0.0000 C   0  0  0  0  0  0  0  0  0  0  0  0
    0.0000    1.5000    0.0000 C   0  0  0  0  0  0  0  0  0  0  0  0
   -1.3000   -0.7500    0.0000 C   0  0  0  0  0  0  0  0  0  0  0  0
   -1.3000    0.7500    0.0000 C   0  0  0  0  0  0  0  0  0  0  0  0
   15.5893    1.5023    0.0000 O   0  0  0  0  0  0  0  0  0  0  0  0
   -0.0000   -3.0000    0.0000 O   0  0  0  0  0  0  0  0  0  0  0  0
    0.0000    3.0000    0.0000 O   0  0  0  0  0  0  0  0  0  0  0  0
   -2.5989   -1.5002    0.0000 O   0  0  0  0  0  0  0  0  0  0  0  0
   -2.5989    1.5002    0.0000 O   0  0  0  0  0  0  0  0  0  0  0  0
  5  4  1  0
  6  4  1  0
  7  5  1  0
  8  6  1  0
  9  7  1  0
 10  8  1  0
 11  9  1  0
 12 10  1  0
 13 11  1  0
 14  1  1  0
 15 12  1  0
 15 14  2  0
 16 14  1  0
 17 15  1  0
 18 16  1  0
 19 17  1  0
 19 18  2  0
 20 13  2  0
 21 16  2  0
 22 17  2  0
 23  2  1  0
 23 18  1  0
 24  3  1  0
 24 19  1  0
M  END
>  <NAME>  (1384) 
2,3-DIMETHOXY-5-(DECYL-10-AL)-6-METHYL-1,4-BENZOQINONE

>  <SYNONYMS>  (1384) 


>  <SPECTRUM TYPE>  (1384) 
MS1

>  <INSTRUMENT TYPE>  (1384) 
EI-B

>  <INSTRUMENT>  (1384) 
JEOL JMS-D-300

>  <ION MODE>  (1384) 
P

>  <INCHIKEY>  (1384) 
NWTCBWDIPOKYAO-UHFFFAOYSA-N

>  <FORMULA>  (1384) 
C19H28O5

>  <EXACT MASS>  (1384) 
336.193673996

>  <MW>  (1384) 
336

>  <ID>  (1384) 
JP010039

>  <CONTRIBUTOR>  (1384) 
University of Tokyo Team, {Faculty of Engineering, University of Tokyo

>  <COMMENT>  (1384) 
SMILES=O=CCCCCCCCCCc(c(C)1)c(=O)c(OC)c(OC)c(=O)1
InChI=InChI=1S/C19H28O5/c1-14-15(12-10-8-6-4-5-7-9-11-13-20)17(22)19(24-3)18(23-2)16(14)21/h13H,4-12H2,1-3H3
computed SMILES=O=CCCCCCCCCCC=1C(=O)C(OC)=C(OC)C(=O)C1C
accession=JP010039
date=2016.01.19 (Created 2008.10.21, modified 2011.05.06)
author=KURARAY CO., LTD.
license=CC BY-NC-SA
exact mass=336.19367
ionization energy=70 eV
ion type=[M]+*
computed spectral entropy=3.465639194339794
computed normalized entropy=0.8609531441231324
SPLASH=splash10-0079-1639000000-0e4408915fbfd64cca72
submitter=submitter = University of Tokyo Team (Faculty of Engineering, University of Tokyo)
MoNA Rating=3.75

>  <NUM PEAKS>  (1384) 
56

>  <MASS SPECTRAL PEAKS>  (1384) 
32 7.86
41 7.61
55 3.62
67 4.48
77 5.41
79 5.53
91 5.99
105 3.41
107 3.46
135 3.46
147 3.03
153 5.09
160 9.04
161 4.7
163 6.11
167 5.89
169 3.65
176 3.58
177 9.24
179 3.25
181 5.17
182 3.65
183 9.2
184 3.68
189 3.69
191 14.46
192 4.46
193 7.56
195 3.54
196 9.34
197 33.12
198 6.52
205 10.7
206 3.66
207 14.04
208 2.66
210 1.57
219 10.56
221 37.87
222 7.32
223 3.02
233 3.43
247 2.66
321 38.67
322 10.45
334 4.32
335 5.91
336 99.99
337 21.66
338 24.03
339 4.76
340 17.18
341 4.61
350 7.8
352 2.03
354 1.7

$$$$

     RDKit          2D

 24 25  0  0  0  0  0  0  0  0999 V2000
  -10.3942   -0.7512    0.0000 C   0  0  0  0  0  0  0  0  0  0  0  0
    7.0925    5.5005    0.0000 C   0  0  0  0  0  0  0  0  0  0  0  0
    4.0772    0.4897    0.0000 C   0  0  0  0  0  0  0  0  0  0  0  0
   -9.0951   -1.5010    0.0000 C   0  0  0  0  0  0  0  0  0  0  0  0
   -7.7962   -0.7508    0.0000 C   0  0  0  0  0  0  0  0  0  0  0  0
   -6.4970   -1.5006    0.0000 C   0  0  0  0  0  0  0  0  0  0  0  0
   -5.1981   -0.7504    0.0000 C   0  0  0  0  0  0  0  0  0  0  0  0
   -3.8989   -1.5002    0.0000 C   0  0  0  0  0  0  0  0  0  0  0  0
    1.3000   -1.5000    0.0000 C   0  0  0  0  0  0  0  0  0  0  0  0
    2.6000   -0.7500    0.0000 C   0  0  0  0  0  0  0  0  0  0  0  0
    3.1127    2.1596    0.0000 C   0  0  0  0  0  0  0  0  0  0  0  0
    4.5899    2.4204    0.0000 C   0  0  0  0  0  0  0  0  0  0  0  0
   -1.3000   -1.5000    0.0000 C   0  0  0  0  0  0  0  0  0  0  0  0
   -1.3000    1.5000    0.0000 C   0  0  0  0  0  0  0  0  0  0  0  0
    6.5798    4.0909    0.0000 C   0  0  0  0  0  0  0  0  0  0  0  0
   -2.6000   -0.7500    0.0000 C   0  0  0  0  0  0  0  0  0  0  0  0
    0.0000   -0.7500    0.0000 C   0  0  0  0  0  0  0  0  0  0  0  0
   -2.6000    0.7500    0.0000 C   0  0  0  0  0  0  0  0  0  0  0  0
    0.0000    0.7500    0.0000 C   0  0  0  0  0  0  0  0  0  0  0  0
    2.6000    0.7500    0.0000 C   0  0  0  0  0  0  0  0  0  0  0  0
    7.5442    2.9420    0.0000 O   0  0  0  0  0  0  0  0  0  0  0  0
   -3.8989    1.5002    0.0000 O   0  0  0  0  0  0  0  0  0  0  0  0
    5.1026    3.8301    0.0000 O   0  0  0  0  0  0  0  0  0  0  0  0
    1.3000    1.5000    0.0000 O   0  0  0  0  0  0  0  0  0  0  0  0
  4  1  1  0
  5  4  1  0
  6  5  1  0
  7  6  1  0
  8  7  1  0
 10  9  1  0
 12 11  1  0
 15  2  1  0
 16  8  1  0
 16 13  1  0
 17  9  1  0
 17 13  2  0
 18 14  1  0
 18 16  2  0
 19 14  2  0
 19 17  1  0
 20  3  1  0
 20 10  1  0
 20 11  1  0
 21 15  2  0
 22 18  1  0
 23 12  1  0
 23 15  1  0
 24 19  1  0
 24 20  1  0
M  END
>  <NAME>  (1385) 
2-(2-ACETOXYETHYL)-6-HEXYL-7-HYDROXY-2-METHYL-3,4-DIHYDRO-2H-1-BENZOPYRAN

>  <SYNONYMS>  (1385) 


>  <SPECTRUM TYPE>  (1385) 
MS1

>  <INSTRUMENT TYPE>  (1385) 
EI-B

>  <INSTRUMENT>  (1385) 
JEOL JMS-D-300

>  <ION MODE>  (1385) 
P

>  <INCHIKEY>  (1385) 
CZDAYPXTPJELBJ-UHFFFAOYSA-N

>  <FORMULA>  (1385) 
C20H30O4

>  <EXACT MASS>  (1385) 
334.21440944

>  <MW>  (1385) 
334

>  <ID>  (1385) 
JP010038

>  <CONTRIBUTOR>  (1385) 
University of Tokyo Team, {Faculty of Engineering, University of Tokyo

>  <COMMENT>  (1385) 
SMILES=CCCCCCc(c1)c(O)cc(O2)c(CCC(C)(CCOC(C)=O)2)1
InChI=InChI=1S/C20H30O4/c1-4-5-6-7-8-16-13-17-9-10-20(3,11-12-23-15(2)21)24-19(17)14-18(16)22/h13-14,22H,4-12H2,1-3H3
computed SMILES=O=C(OCCC1(OC2=CC(O)=C(C=C2CC1)CCCCCC)C)C
accession=JP010038
date=2016.01.19 (Created 2008.10.21, modified 2011.05.06)
author=KURARAY CO., LTD.
license=CC BY-NC-SA
exact mass=334.21441
ionization energy=70 eV
ion type=[M]+*
computed spectral entropy=3.6730693075579546
computed normalized entropy=0.820369219416435
SPLASH=splash10-0pb9-2391000000-1a0e6822cffe491964a6
submitter=submitter = University of Tokyo Team (Faculty of Engineering, University of Tokyo)
MoNA Rating=3.75

>  <NUM PEAKS>  (1385) 
88

>  <MASS SPECTRAL PEAKS>  (1385) 
27 1.99
29 3.93
39 1.61
41 7.75
43 26.78
53 1.88
55 7.09
57 2.05
65 1.38
67 2.74
69 11.34
77 2.88
79 3.82
81 5.01
83 2.2
85 1.43
91 3.65
93 2.55
95 1.38
97 1.75
98 1.75
105 1.64
107 3.29
108 1.97
119 1.28
121 1.63
123 5.48
133 2
135 9.13
136 5.67
137 5.39
145 1.72
147 4.64
148 2.19
149 6.03
159 1.47
160 1.46
161 5.48
162 1.32
163 9.73
164 1.47
173 1.44
174 2.43
175 7.96
176 1.49
177 3.99
185 2.07
187 1.46
188 1.74
189 12.04
190 1.25
191 1.8
194 2.32
195 1.5
202 1.58
203 67.31
204 9.82
205 4.37
206 2.65
207 99.99
208 14.99
209 1.71
219 4.96
221 7.97
222 1.19
231 3.04
233 1.8
243 1.33
245 14.08
246 4.62
247 11.98
248 2.33
257 3.23
259 17.12
260 3.85
263 15.57
264 2.62
273 3.05
274 9.82
275 6.23
277 3.26
289 2.22
290 1.52
292 9.51
293 1.8
334 36.63
335 7.96
336 1.43

$$$$

     RDKit          2D

 24 23  0  0  0  0  0  0  0  0999 V2000
    6.1704    9.5625    0.0000 C   0  0  0  0  0  0  0  0  0  0  0  0
    4.8714   11.8125    0.0000 C   0  0  0  0  0  0  0  0  0  0  0  0
   -0.3248   11.8125    0.0000 C   0  0  0  0  0  0  0  0  0  0  0  0
   -5.5209   11.8125    0.0000 C   0  0  0  0  0  0  0  0  0  0  0  0
  -10.7171   11.8125    0.0000 C   0  0  0  0  0  0  0  0  0  0  0  0
    2.2733   10.3125    0.0000 C   0  0  0  0  0  0  0  0  0  0  0  0
   -2.9228   10.3125    0.0000 C   0  0  0  0  0  0  0  0  0  0  0  0
   -8.1190   10.3125    0.0000 C   0  0  0  0  0  0  0  0  0  0  0  0
  -13.3151   10.3125    0.0000 C   0  0  0  0  0  0  0  0  0  0  0  0
    3.5724    9.5625    0.0000 C   0  0  0  0  0  0  0  0  0  0  0  0
    0.9743    9.5625    0.0000 C   0  0  0  0  0  0  0  0  0  0  0  0
   -1.6238    9.5625    0.0000 C   0  0  0  0  0  0  0  0  0  0  0  0
   -4.2219    9.5625    0.0000 C   0  0  0  0  0  0  0  0  0  0  0  0
   -6.8200    9.5625    0.0000 C   0  0  0  0  0  0  0  0  0  0  0  0
   -9.4180    9.5625    0.0000 C   0  0  0  0  0  0  0  0  0  0  0  0
  -12.0161    9.5625    0.0000 C   0  0  0  0  0  0  0  0  0  0  0  0
  -14.6142    9.5625    0.0000 C   0  0  0  0  0  0  0  0  0  0  0  0
    4.8714   10.3125    0.0000 C   0  0  0  0  0  0  0  0  0  0  0  0
   -0.3248   10.3125    0.0000 C   0  0  0  0  0  0  0  0  0  0  0  0
   -5.5209   10.3125    0.0000 C   0  0  0  0  0  0  0  0  0  0  0  0
  -10.7171   10.3125    0.0000 C   0  0  0  0  0  0  0  0  0  0  0  0
  -15.9132   10.3125    0.0000 C   0  0  0  0  0  0  0  0  0  0  0  0
  -15.9132   11.8125    0.0000 O   0  0  0  0  0  0  0  0  0  0  0  0
  -17.2123    9.5625    0.0000 O   0  0  0  0  0  0  0  0  0  0  0  0
 10  6  1  0
 11  6  1  0
 12  7  1  0
 13  7  1  0
 14  8  1  0
 15  8  1  0
 16  9  1  0
 17  9  1  0
 18  1  1  0
 18  2  1  0
 18 10  2  0
 19  3  1  0
 19 11  1  0
 12 19  2  0
 20  4  1  0
 20 13  1  0
 14 20  2  0
 21  5  1  0
 21 15  1  0
 16 21  2  0
 22 17  1  0
 23 22  2  0
 24 22  1  0
M  END
>  <NAME>  (1386) 
5,9,13,17-TETRAMETHYL 4,8,12,16-OCTADECATETRAENOIC ACID

>  <SYNONYMS>  (1386) 


>  <SPECTRUM TYPE>  (1386) 
MS1

>  <INSTRUMENT TYPE>  (1386) 
EI-B

>  <INSTRUMENT>  (1386) 
JEOL JMS-D-300

>  <ION MODE>  (1386) 
P

>  <INCHIKEY>  (1386) 
PIJHYAQKPAXLRO-RFRQLJORSA-N

>  <FORMULA>  (1386) 
C22H36O2

>  <EXACT MASS>  (1386) 
332.271530392

>  <MW>  (1386) 
332

>  <ID>  (1386) 
JP010037

>  <CONTRIBUTOR>  (1386) 
University of Tokyo Team, {Faculty of Engineering, University of Tokyo

>  <COMMENT>  (1386) 
SMILES=CC(C)=CCCC(C)=CCCC(C)=CCCC(C)=CCCC(O)=O
InChI=InChI=1S/C22H36O2/c1-18(2)10-6-11-19(3)12-7-13-20(4)14-8-15-21(5)16-9-17-22(23)24/h10,12,14,16H,6-9,11,13,15,17H2,1-5H3,(H,23,24)/b19-12+,20-14+,21-16+
computed SMILES=O=C(O)CCC=C(C)CCC=C(C)CCC=C(C)CCC=C(C)C
accession=JP010037
date=2016.01.19 (Created 2008.10.21, modified 2011.05.06)
author=KURARAY CO., LTD.
license=CC BY-NC-SA
exact mass=332.27153
ionization energy=70 eV
ion type=[M]+*
computed spectral entropy=3.471958216021966
computed normalized entropy=0.8145012799862931
SPLASH=splash10-0159-9300000000-662f06b06fd39720487c
submitter=submitter = University of Tokyo Team (Faculty of Engineering, University of Tokyo)
MoNA Rating=3.75

>  <NUM PEAKS>  (1386) 
71

>  <MASS SPECTRAL PEAKS>  (1386) 
27 2.35
28 6.11
29 3.68
39 4.34
41 28.05
43 7.69
44 1.43
53 4.81
55 12.5
57 4.34
67 11.79
68 12.42
69 99.99
70 6.2
71 2.73
73 2.41
77 2.85
79 5.29
80 2.66
81 60.14
82 8.21
83 4.29
85 6.8
91 3.33
92 1.99
93 17.1
94 3.45
95 16.93
96 1.79
97 2.87
105 3.4
107 11.09
108 3.32
109 10.87
110 1.55
111 1.57
113 1.32
119 3.43
121 12.23
122 4.26
123 10.02
124 2.04
125 1.27
127 2.08
133 3.82
134 2.04
135 16.7
136 15.16
137 13.08
138 1.72
147 2.68
149 4.32
153 4.32
161 3.66
163 1.27
177 2.43
179 1.69
181 1.53
189 1.24
193 1.91
195 1.52
204 1.97
206 1.46
207 3.26
208 1.32
221 1.33
263 3.52
281 0.53
289 1.11
332 2.18
333 0.6

$$$$

     RDKit          2D

 24 23  0  0  0  0  0  0  0  0999 V2000
    5.8457   10.1250    0.0000 C   0  0  0  0  0  0  0  0  0  0  0  0
  -17.5370   10.1250    0.0000 C   0  0  0  0  0  0  0  0  0  0  0  0
  -16.2380   12.3750    0.0000 C   0  0  0  0  0  0  0  0  0  0  0  0
  -11.0418   12.3750    0.0000 C   0  0  0  0  0  0  0  0  0  0  0  0
   -5.8457   12.3750    0.0000 C   0  0  0  0  0  0  0  0  0  0  0  0
   -0.6495   12.3750    0.0000 C   0  0  0  0  0  0  0  0  0  0  0  0
    4.5466   10.8750    0.0000 C   0  0  0  0  0  0  0  0  0  0  0  0
  -13.6399   10.8750    0.0000 C   0  0  0  0  0  0  0  0  0  0  0  0
   -8.4437   10.8750    0.0000 C   0  0  0  0  0  0  0  0  0  0  0  0
   -3.2476   10.8750    0.0000 C   0  0  0  0  0  0  0  0  0  0  0  0
  -14.9389   10.1250    0.0000 C   0  0  0  0  0  0  0  0  0  0  0  0
  -12.3409   10.1250    0.0000 C   0  0  0  0  0  0  0  0  0  0  0  0
   -9.7428   10.1250    0.0000 C   0  0  0  0  0  0  0  0  0  0  0  0
   -7.1447   10.1250    0.0000 C   0  0  0  0  0  0  0  0  0  0  0  0
   -4.5466   10.1250    0.0000 C   0  0  0  0  0  0  0  0  0  0  0  0
   -1.9486   10.1250    0.0000 C   0  0  0  0  0  0  0  0  0  0  0  0
    0.6495   10.1250    0.0000 C   0  0  0  0  0  0  0  0  0  0  0  0
  -16.2380   10.8750    0.0000 C   0  0  0  0  0  0  0  0  0  0  0  0
  -11.0418   10.8750    0.0000 C   0  0  0  0  0  0  0  0  0  0  0  0
   -5.8457   10.8750    0.0000 C   0  0  0  0  0  0  0  0  0  0  0  0
   -0.6495   10.8750    0.0000 C   0  0  0  0  0  0  0  0  0  0  0  0
    1.9486   10.8750    0.0000 C   0  0  0  0  0  0  0  0  0  0  0  0
    1.9486   12.3750    0.0000 O   0  0  0  0  0  0  0  0  0  0  0  0
    3.2476   10.1250    0.0000 O   0  0  0  0  0  0  0  0  0  0  0  0
  7  1  1  0
 11  8  1  0
 12  8  1  0
 13  9  1  0
 14  9  1  0
 15 10  1  0
 16 10  1  0
 18  2  1  0
 18  3  1  0
 18 11  2  0
 19  4  1  0
 19 12  1  0
 13 19  2  0
 20  5  1  0
 20 14  1  0
 15 20  2  0
 21  6  1  0
 21 16  1  0
 17 21  2  0
 22 17  1  0
 23 22  2  0
 24  7  1  0
 24 22  1  0
M  END
>  <NAME>  (1387) 
3,7,11,15-TETRAMETHYL-2,6,10,14-HEXADECATETRAENIC ACID ETHYL ESTER

>  <SYNONYMS>  (1387) 


>  <SPECTRUM TYPE>  (1387) 
MS1

>  <INSTRUMENT TYPE>  (1387) 
EI-B

>  <INSTRUMENT>  (1387) 
JEOL JMS-D-300

>  <ION MODE>  (1387) 
P

>  <INCHIKEY>  (1387) 
BFYVSGCRUDETNO-JYQWTDEISA-N

>  <FORMULA>  (1387) 
C22H36O2

>  <EXACT MASS>  (1387) 
332.271530392

>  <MW>  (1387) 
332

>  <ID>  (1387) 
JP010036

>  <CONTRIBUTOR>  (1387) 
University of Tokyo Team, {Faculty of Engineering, University of Tokyo

>  <COMMENT>  (1387) 
SMILES=CCOC(=O)C=C(C)CCC=C(C)CCC=C(C)CCC=C(C)C
InChI=InChI=1S/C22H36O2/c1-7-24-22(23)17-21(6)16-10-15-20(5)14-9-13-19(4)12-8-11-18(2)3/h11,13,15,17H,7-10,12,14,16H2,1-6H3/b19-13+,20-15+,21-17+
computed SMILES=O=C(OCC)C=C(C)CCC=C(C)CCC=C(C)CCC=C(C)C
accession=JP010036
date=2016.01.19 (Created 2008.10.21, modified 2011.05.06)
author=KURARAY CO., LTD.
license=CC BY-NC-SA
exact mass=332.27153
ionization energy=70 eV
ion type=[M]+*
computed spectral entropy=3.6599011799230867
computed normalized entropy=0.8503359267734647
SPLASH=splash10-01c0-9800000000-eee02baea52fcb4b3021
submitter=submitter = University of Tokyo Team (Faculty of Engineering, University of Tokyo)
MoNA Rating=3.75

>  <NUM PEAKS>  (1387) 
74

>  <MASS SPECTRAL PEAKS>  (1387) 
27 1.91
28 7.77
29 5.13
32 1.15
39 3.3
41 24.86
43 6.61
53 7.6
54 2.02
55 10.08
57 1.88
65 1.44
67 12.04
68 15.18
69 99.99
70 5.9
71 2.45
77 4.82
79 8.15
80 3.22
81 50.16
82 15.07
83 5.12
91 7.5
92 1.85
93 21.13
94 4.3
95 18.02
96 1.71
97 1.21
99 2.54
100 7
105 6.7
107 16.67
108 4.71
109 12.01
113 1.68
119 5.01
121 35.58
122 11.14
123 18.19
124 2.34
125 1.66
128 47.2
129 4.1
133 5.79
134 3.97
135 22.24
136 25.33
137 17.88
139 1.81
141 2.15
147 8.66
148 2.56
149 9.26
150 2.68
153 5.24
161 5.31
162 1.76
163 1.6
175 4.88
177 2.64
179 1.32
181 1.41
189 10.97
190 1.88
191 2.35
203 1.54
204 2.86
205 4.07
217 1.84
287 5.07
289 2.04
332 6.06

$$$$

     RDKit          2D

 23 22  0  0  0  0  0  0  0  0999 V2000
    5.5209    8.4375    0.0000 C   0  0  0  0  0  0  0  0  0  0  0  0
    4.2219   10.6875    0.0000 C   0  0  0  0  0  0  0  0  0  0  0  0
   -0.9743   10.6875    0.0000 C   0  0  0  0  0  0  0  0  0  0  0  0
   -6.1704   10.6875    0.0000 C   0  0  0  0  0  0  0  0  0  0  0  0
  -10.4024   10.3366    0.0000 C   0  0  0  0  0  0  0  0  0  0  0  0
    1.6238    9.1875    0.0000 C   0  0  0  0  0  0  0  0  0  0  0  0
   -3.5724    9.1875    0.0000 C   0  0  0  0  0  0  0  0  0  0  0  0
   -8.7685    9.1875    0.0000 C   0  0  0  0  0  0  0  0  0  0  0  0
    2.9228    8.4375    0.0000 C   0  0  0  0  0  0  0  0  0  0  0  0
    0.3248    8.4375    0.0000 C   0  0  0  0  0  0  0  0  0  0  0  0
   -2.2733    8.4375    0.0000 C   0  0  0  0  0  0  0  0  0  0  0  0
   -4.8714    8.4375    0.0000 C   0  0  0  0  0  0  0  0  0  0  0  0
   -7.4695    8.4375    0.0000 C   0  0  0  0  0  0  0  0  0  0  0  0
  -10.0675    8.4375    0.0000 C   0  0  0  0  0  0  0  0  0  0  0  0
  -13.9647    9.1875    0.0000 C   0  0  0  0  0  0  0  0  0  0  0  0
    4.2219    9.1875    0.0000 C   0  0  0  0  0  0  0  0  0  0  0  0
   -0.9743    9.1875    0.0000 C   0  0  0  0  0  0  0  0  0  0  0  0
   -6.1704    9.1875    0.0000 C   0  0  0  0  0  0  0  0  0  0  0  0
  -12.6656    8.4375    0.0000 C   0  0  0  0  0  0  0  0  0  0  0  0
  -11.3666    9.1875    0.0000 C   0  0  0  0  0  0  0  0  0  0  0  0
  -15.2637    8.4375    0.0000 O   0  0  0  0  0  0  0  0  0  0  0  0
  -12.6656    6.9375    0.0000 O   0  0  0  0  0  0  0  0  0  0  0  0
  -12.3308   10.3366    0.0000 O   0  0  0  0  0  0  0  0  0  0  0  0
  9  6  1  0
 10  6  1  0
 11  7  1  0
 12  7  1  0
 13  8  1  0
 14  8  1  0
 16  1  1  0
 16  2  1  0
 16  9  1  0
 17  3  1  0
 17 10  1  0
 17 11  1  0
 18  4  1  0
 18 12  1  0
 18 13  1  0
 19 15  1  0
 20  5  1  0
 20 14  1  0
 20 19  1  0
 21 15  1  0
 22 19  1  0
 23 20  1  0
M  END
>  <NAME>  (1388) 
3,7,11,15-TETRAMETHYLHEXADECANE-1,2,3-TRIOL

>  <SYNONYMS>  (1388) 


>  <SPECTRUM TYPE>  (1388) 
MS1

>  <INSTRUMENT TYPE>  (1388) 
EI-B

>  <INSTRUMENT>  (1388) 
JEOL JMS-D-300

>  <ION MODE>  (1388) 
P

>  <INCHIKEY>  (1388) 
CGIHFIDULQUVJG-UHFFFAOYSA-N

>  <FORMULA>  (1388) 
C20H42O3

>  <EXACT MASS>  (1388) 
330.31339520399996

>  <MW>  (1388) 
330

>  <ID>  (1388) 
JP010035

>  <CONTRIBUTOR>  (1388) 
University of Tokyo Team, {Faculty of Engineering, University of Tokyo

>  <COMMENT>  (1388) 
SMILES=CC(C)CCCC(C)CCCC(C)CCCC(C)(O)C(O)CO
InChI=InChI=1S/C20H42O3/c1-16(2)9-6-10-17(3)11-7-12-18(4)13-8-14-20(5,23)19(22)15-21/h16-19,21-23H,6-15H2,1-5H3
computed SMILES=OCC(O)C(O)(C)CCCC(C)CCCC(C)CCCC(C)C
accession=JP010035
date=2016.01.19 (Created 2008.10.21, modified 2011.05.06)
author=KURARAY CO., LTD.
license=CC BY-NC-SA
exact mass=330.3134
ionization energy=70 eV
ion type=[M]+*
computed spectral entropy=3.6922072088892115
computed normalized entropy=0.8246436133528866
SPLASH=splash10-0a4i-9300000000-c3080cdc7ae38007ce2b
submitter=submitter = University of Tokyo Team (Faculty of Engineering, University of Tokyo)
MoNA Rating=3.75

>  <NUM PEAKS>  (1388) 
88

>  <MASS SPECTRAL PEAKS>  (1388) 
27 3.68
28 1.97
29 12.24
31 2.39
39 3.18
41 30.1
42 5.58
43 90.19
44 13.77
45 7.47
53 2.01
55 53.84
56 14.32
57 99.99
58 26.07
59 8.71
61 12.4
62 2.2
67 6.96
68 6.35
69 80.41
70 13.91
71 87.96
72 6.58
73 1.8
74 1.23
75 3.3
79 2.18
80 2.08
81 18.38
82 7.66
83 71.56
84 13.45
85 40.05
86 2.71
87 9.27
88 14
93 4.43
94 2.33
95 18.03
96 5.01
97 64.69
98 8.28
99 17.04
101 3.93
103 1.13
104 1.13
105 83.44
106 3.71
107 2.2
109 15.83
110 6.44
111 55.44
112 6.44
113 12.97
118 3.23
119 2.01
121 4.19
123 10.89
124 4.53
125 35.34
126 6.92
127 9.58
135 2.03
137 6.53
138 2.1
139 15.95
140 3.45
141 4.65
149 2.25
151 2.44
153 7.8
155 3.33
161 2.15
165 2.13
167 3.23
169 4.76
179 1.46
181 2.25
195 2.23
250 3.9
263 2.23
269 21.07
270 3.8
281 6.54
282 1.56
312 0.84
315 1.24

$$$$

     RDKit          2D

 10 10  0  0  0  0  0  0  0  0999 V2000
    0.9641    2.6492    0.0000 C   0  0  0  0  0  0  0  0  0  0  0  0
    1.3000    0.7500    0.0000 C   0  0  0  0  0  0  0  0  0  0  0  0
    1.3000   -0.7500    0.0000 C   0  0  0  0  0  0  0  0  0  0  0  0
   -2.5989    1.5002    0.0000 C   0  0  0  0  0  0  0  0  0  0  0  0
   -1.3000   -0.7500    0.0000 C   0  0  0  0  0  0  0  0  0  0  0  0
   -1.3000    0.7500    0.0000 C   0  0  0  0  0  0  0  0  0  0  0  0
   -0.0000    1.5000    0.0000 C   0  0  0  0  0  0  0  0  0  0  0  0
   -3.8981    0.7504    0.0000 O   0  0  0  0  0  0  0  0  0  0  0  0
   -0.9641    2.6492    0.0000 O   0  0  0  0  0  0  0  0  0  0  0  0
   -0.0000   -1.5000    0.0000 O   0  0  0  0  0  0  0  0  0  0  0  0
  3  2  1  0
  6  4  1  0
  6  5  1  0
  7  1  1  0
  7  2  1  0
  7  6  1  0
  8  4  1  0
  9  7  1  0
 10  3  1  0
 10  5  1  0
M  END
>  <NAME>  (1389) 
3-HYDROXYMETHYL-4-METHYLPERHYDROPYRAN-4-OL

>  <SYNONYMS>  (1389) 


>  <SPECTRUM TYPE>  (1389) 
MS1

>  <INSTRUMENT TYPE>  (1389) 
EI-B

>  <INSTRUMENT>  (1389) 
JEOL JMS-D-300

>  <ION MODE>  (1389) 
P

>  <INCHIKEY>  (1389) 
BAMBQJPPLYXMBB-UHFFFAOYSA-N

>  <FORMULA>  (1389) 
C7H14O3

>  <EXACT MASS>  (1389) 
146.09429430799997

>  <MW>  (1389) 
146

>  <ID>  (1389) 
JP010034

>  <CONTRIBUTOR>  (1389) 
University of Tokyo Team, {Faculty of Engineering, University of Tokyo

>  <COMMENT>  (1389) 
SMILES=OCC(C1)C(C)(O)CCO1
InChI=InChI=1S/C7H14O3/c1-7(9)2-3-10-5-6(7)4-8/h6,8-9H,2-5H2,1H3
computed SMILES=OCC1COCCC1(O)C
accession=JP010034
date=2016.01.19 (Created 2008.10.21, modified 2011.05.06)
author=KURARAY CO., LTD.
license=CC BY-NC-SA
exact mass=146.09429
ionization energy=70 eV
ion type=[M]+*
computed spectral entropy=3.0371604893742834
computed normalized entropy=0.7845525150506186
SPLASH=splash10-0006-9000000000-6003215a2420be878d6f
submitter=submitter = University of Tokyo Team (Faculty of Engineering, University of Tokyo)
MoNA Rating=3.75

>  <NUM PEAKS>  (1389) 
48

>  <MASS SPECTRAL PEAKS>  (1389) 
27 6.6
29 7.1
30 3.4
31 0.86
39 6.6
41 25.3
42 4.2
43 99.99
44 2.5
45 1.8
53 3.4
55 2.87
56 3.2
57 24.4
58 22.1
59 0.64
61 11.8
65 1.8
67 5.1
68 0.25
69 8.6
70 12.1
71 49.7
72 1.75
73 4.5
79 2.6
81 3.5
82 0.65
83 22.9
84 1.9
85 3.5
87 0.79
88 2.1
89 31.5
90 1.2
95 0.19
97 15.8
98 6.4
99 11.1
100 0.27
101 7.8
112 1.9
113 3.5
115 0.45
117 5.5
119 1.6
128 8
131 2.1

$$$$

     RDKit          2D

  9  9  0  0  0  0  0  0  0  0999 V2000
   -3.4605    1.6603    0.0000 C   0  0  0  0  0  0  0  0  0  0  0  0
    1.3532   -0.4911    0.0000 C   0  0  0  0  0  0  0  0  0  0  0  0
   -1.8282   -1.1668    0.0000 C   0  0  0  0  0  0  0  0  0  0  0  0
   -1.9687    1.5028    0.0000 C   0  0  0  0  0  0  0  0  0  0  0  0
    0.2410    0.5154    0.0000 C   0  0  0  0  0  0  0  0  0  0  0  0
   -1.2187    0.2038    0.0000 C   0  0  0  0  0  0  0  0  0  0  0  0
   -0.9460   -2.3800    0.0000 Cl  0  0  0  0  0  0  0  0  0  0  0  0
   -0.9690    2.6112    0.0000 N   0  0  0  0  0  0  0  0  0  0  0  0
    0.4068    2.0083    0.0000 O   0  0  0  0  0  0  0  0  0  0  0  0
  4  1  1  0
  5  2  1  0
  6  3  1  0
  6  4  1  0
  6  5  2  0
  7  3  1  0
  8  4  2  0
  9  5  1  0
  9  8  1  0
M  END
>  <NAME>  (1390) 
4-CHLOROMETHYL-3,5-DIMETHYLISOXAZOLE

>  <SYNONYMS>  (1390) 


>  <SPECTRUM TYPE>  (1390) 
MS1

>  <INSTRUMENT TYPE>  (1390) 
EI-B

>  <INSTRUMENT>  (1390) 
JEOL JMS-D-300

>  <ION MODE>  (1390) 
P

>  <INCHIKEY>  (1390) 
NIFAUKBQIAURIM-UHFFFAOYSA-N

>  <FORMULA>  (1390) 
C6H8ClNO

>  <EXACT MASS>  (1390) 
145.029441556

>  <MW>  (1390) 
145

>  <ID>  (1390) 
JP010033

>  <CONTRIBUTOR>  (1390) 
University of Tokyo Team, {Faculty of Engineering, University of Tokyo

>  <COMMENT>  (1390) 
SMILES=ClCc(c(C)1)c(C)on1
InChI=InChI=1S/C6H8ClNO/c1-4-6(3-7)5(2)9-8-4/h3H2,1-2H3
computed SMILES=ClCC=1C(=NOC1C)C
accession=JP010033
date=2016.01.19 (Created 2008.10.21, modified 2011.05.06)
author=KURARAY CO., LTD.
license=CC BY-NC-SA
exact mass=145.02944
ionization energy=70 eV
ion type=[M]+*
computed spectral entropy=1.9242077535003297
computed normalized entropy=0.5905926147507059
SPLASH=splash10-03xr-9700000000-d3fee2664895f1ec591f
submitter=submitter = University of Tokyo Team (Faculty of Engineering, University of Tokyo)
MoNA Rating=3.75

>  <NUM PEAKS>  (1390) 
26

>  <MASS SPECTRAL PEAKS>  (1390) 
26 2.8
27 2.8
28 2.8
38 0.16
39 4.1
40 1.7
41 3.1
42 1.26
43 39.6
49 1
50 1.1
51 0.26
52 2.6
53 2.2
54 1.7
61 0.1
66 5.5
67 2.8
68 62.9
69 0.58
76 1.1
110 99.99
111 7.1
145 1.81
146 1.3
147 5.8

$$$$

     RDKit          2D

 10  9  0  0  0  0  0  0  0  0999 V2000
   -1.2990    6.0000    0.0000 C   0  0  0  0  0  0  0  0  0  0  0  0
   -6.4952    4.5000    0.0000 C   0  0  0  0  0  0  0  0  0  0  0  0
   -0.0000    3.7500    0.0000 C   0  0  0  0  0  0  0  0  0  0  0  0
    1.2990    4.5000    0.0000 C   0  0  0  0  0  0  0  0  0  0  0  0
   -2.5981    3.7500    0.0000 C   0  0  0  0  0  0  0  0  0  0  0  0
   -1.2990    4.5000    0.0000 C   0  0  0  0  0  0  0  0  0  0  0  0
   -3.8971    4.5000    0.0000 C   0  0  0  0  0  0  0  0  0  0  0  0
   -5.1962    3.7500    0.0000 N   0  0  0  0  0  0  0  0  0  0  0  0
    2.5981    3.7500    0.0000 O   0  0  0  0  0  0  0  0  0  0  0  0
   -3.8971    6.0000    0.0000 O   0  0  0  0  0  0  0  0  0  0  0  0
  4  3  1  0
  6  1  1  0
  6  3  1  0
  6  5  1  0
  7  5  1  0
  8  2  1  0
  8  7  2  3
  9  4  1  0
 10  7  1  0
M  END
>  <NAME>  (1391) 
5-HYDROXY-3,N-DIMETHYLPENTANAMIDE

>  <SYNONYMS>  (1391) 


>  <SPECTRUM TYPE>  (1391) 
MS1

>  <INSTRUMENT TYPE>  (1391) 
EI-B

>  <INSTRUMENT>  (1391) 
JEOL JMS-D-300

>  <ION MODE>  (1391) 
P

>  <INCHIKEY>  (1391) 
XZEGKLNXAIQEJU-UHFFFAOYSA-N

>  <FORMULA>  (1391) 
C7H15NO2

>  <EXACT MASS>  (1391) 
145.11027872

>  <MW>  (1391) 
145

>  <ID>  (1391) 
JP010032

>  <CONTRIBUTOR>  (1391) 
University of Tokyo Team, {Faculty of Engineering, University of Tokyo

>  <COMMENT>  (1391) 
SMILES=OCCC(C)CC(=O)NC
InChI=InChI=1S/C7H15NO2/c1-6(3-4-9)5-7(10)8-2/h6,9H,3-5H2,1-2H3,(H,8,10)
computed SMILES=OC(=NC)CC(C)CCO
accession=JP010032
date=2016.01.19 (Created 2008.10.21, modified 2011.05.06)
author=KURARAY CO., LTD.
license=CC BY-NC-SA
exact mass=145.11028
ionization energy=70 eV
ion type=[M]+*
computed spectral entropy=2.999396167339009
computed normalized entropy=0.8024776060107119
SPLASH=splash10-05fu-9100000000-8acc6f7f76d57ab5b65a
submitter=submitter = University of Tokyo Team (Faculty of Engineering, University of Tokyo)
MoNA Rating=3.75

>  <NUM PEAKS>  (1391) 
42

>  <MASS SPECTRAL PEAKS>  (1391) 
27 9.7
28 9
29 10.5
30 1.63
31 26.2
32 6.5
39 9.8
40 0.36
41 28.6
42 21.6
43 17.5
44 0.68
45 15.6
53 4
54 2.5
55 2.9
56 7.3
57 16.9
58 56.9
59 0.53
67 2.7
68 4.6
69 21.7
70 1.17
71 8.7
72 2.6
73 99.99
74 0.62
82 5.2
84 1.9
86 6
97 0.31
100 11
101 3.5
110 6.9
112 0.5
114 8.1
115 5.2
125 3
126 0.18
127 13
128 1.8

$$$$

     RDKit          2D

 10  9  0  0  0  0  0  0  0  0999 V2000
   -5.3469    4.4130    0.0000 C   0  0  0  0  0  0  0  0  0  0  0  0
    0.3983    2.3639    0.0000 C   0  0  0  0  0  0  0  0  0  0  0  0
    2.4474    2.9130    0.0000 C   0  0  0  0  0  0  0  0  0  0  0  0
   -1.4498    3.6630    0.0000 C   0  0  0  0  0  0  0  0  0  0  0  0
   -2.7488    4.4130    0.0000 C   0  0  0  0  0  0  0  0  0  0  0  0
   -0.1507    4.4130    0.0000 C   0  0  0  0  0  0  0  0  0  0  0  0
   -4.0478    3.6630    0.0000 C   0  0  0  0  0  0  0  0  0  0  0  0
    1.1483    3.6630    0.0000 C   0  0  0  0  0  0  0  0  0  0  0  0
   -4.0478    2.1630    0.0000 O   0  0  0  0  0  0  0  0  0  0  0  0
    1.8983    4.9620    0.0000 O   0  0  0  0  0  0  0  0  0  0  0  0
  5  4  1  0
  6  4  1  0
  7  1  1  0
  7  5  1  0
  8  2  1  0
  8  3  1  0
  8  6  1  0
  9  7  2  0
 10  8  1  0
M  END
>  <NAME>  (1392) 
6-HYDROXY-6-METHYL-2-HEPTANONE

>  <SYNONYMS>  (1392) 


>  <SPECTRUM TYPE>  (1392) 
MS1

>  <INSTRUMENT TYPE>  (1392) 
EI-B

>  <INSTRUMENT>  (1392) 
JEOL JMS-D-300

>  <ION MODE>  (1392) 
P

>  <INCHIKEY>  (1392) 
BDKJAPPUGXLAHC-UHFFFAOYSA-N

>  <FORMULA>  (1392) 
C8H16O2

>  <EXACT MASS>  (1392) 
144.115029752

>  <MW>  (1392) 
144

>  <ID>  (1392) 
JP010031

>  <CONTRIBUTOR>  (1392) 
University of Tokyo Team, {Faculty of Engineering, University of Tokyo

>  <COMMENT>  (1392) 
SMILES=CC(=O)CCCC(C)(C)O
InChI=InChI=1S/C8H16O2/c1-7(9)5-4-6-8(2,3)10/h10H,4-6H2,1-3H3
computed SMILES=O=C(C)CCCC(O)(C)C
accession=JP010031
date=2016.01.19 (Created 2008.10.21, modified 2011.05.06)
author=KURARAY CO., LTD.
license=CC BY-NC-SA
exact mass=144.11503
ionization energy=70 eV
ion type=[M]+*
computed spectral entropy=2.497585801450571
computed normalized entropy=0.7143087087742638
SPLASH=splash10-0a4i-9100000000-23ccde11e2779895c693
submitter=submitter = University of Tokyo Team (Faculty of Engineering, University of Tokyo)
MoNA Rating=3.75

>  <NUM PEAKS>  (1392) 
33

>  <MASS SPECTRAL PEAKS>  (1392) 
27 5.8
29 3.2
31 12.3
39 0.55
41 17.9
42 4.1
43 74.8
44 0.2
45 3.2
53 2.1
55 14.7
56 1.62
57 1.8
58 78.2
59 99.99
60 0.44
67 2.9
68 2.3
69 15.2
71 9.09
72 4.2
83 7.4
85 3.4
86 0.55
93 2.7
108 10.5
109 4.1
111 2.23
112 1.7
116 23.6
117 1.5
126 0.58
129 7.1

$$$$

     RDKit          2D

 10  9  0  0  0  0  0  0  0  0999 V2000
   -0.6495    4.8750    0.0000 C   0  0  0  0  0  0  0  0  0  0  0  0
   -5.8457    3.3750    0.0000 C   0  0  0  0  0  0  0  0  0  0  0  0
   -4.5466    5.6250    0.0000 C   0  0  0  0  0  0  0  0  0  0  0  0
   -1.9486    2.6250    0.0000 C   0  0  0  0  0  0  0  0  0  0  0  0
    0.6495    2.6250    0.0000 C   0  0  0  0  0  0  0  0  0  0  0  0
   -0.6495    3.3750    0.0000 C   0  0  0  0  0  0  0  0  0  0  0  0
   -3.2476    3.3750    0.0000 C   0  0  0  0  0  0  0  0  0  0  0  0
    1.9486    3.3750    0.0000 O   0  0  0  0  0  0  0  0  0  0  0  0
   -4.5466    2.6250    0.0000 O   0  0  0  0  0  0  0  0  0  0  0  0
   -3.2476    4.8750    0.0000 O   0  0  0  0  0  0  0  0  0  0  0  0
  6  1  1  0
  4  6  2  0
  6  5  1  0
  7  4  1  0
  8  5  2  0
  9  2  1  0
  9  7  1  0
 10  3  1  0
 10  7  1  0
M  END
>  <NAME>  (1393) 
4,4-DIMETHOXY-2-METHYL-2-BUTENAL

>  <SYNONYMS>  (1393) 


>  <SPECTRUM TYPE>  (1393) 
MS1

>  <INSTRUMENT TYPE>  (1393) 
EI-B

>  <INSTRUMENT>  (1393) 
JEOL JMS-D-300

>  <ION MODE>  (1393) 
P

>  <INCHIKEY>  (1393) 
UKYNGIDUKUFOQS-GQCTYLIASA-N

>  <FORMULA>  (1393) 
C7H12O3

>  <EXACT MASS>  (1393) 
144.078644244

>  <MW>  (1393) 
144

>  <ID>  (1393) 
JP010030

>  <CONTRIBUTOR>  (1393) 
University of Tokyo Team, {Faculty of Engineering, University of Tokyo

>  <COMMENT>  (1393) 
SMILES=O=CC(C)=CC(OC)OC
InChI=InChI=1S/C7H12O3/c1-6(5-8)4-7(9-2)10-3/h4-5,7H,1-3H3/b6-4+
computed SMILES=O=CC(=CC(OC)OC)C
accession=JP010030
date=2016.01.19 (Created 2008.10.21, modified 2011.05.06)
author=KURARAY CO., LTD.
license=CC BY-NC-SA
exact mass=144.07864
ionization energy=70 eV
ion type=[M]+*
computed spectral entropy=3.1626884520448666
computed normalized entropy=0.7856924549783288
SPLASH=splash10-03y1-9400000000-38ac41659ac5a40f1a54
submitter=submitter = University of Tokyo Team (Faculty of Engineering, University of Tokyo)
MoNA Rating=3.75

>  <NUM PEAKS>  (1393) 
56

>  <MASS SPECTRAL PEAKS>  (1393) 
26 1.6
27 13
28 25.3
29 2.14
30 1.8
31 6.8
32 6.2
33 0.25
37 1.4
38 3.3
39 28.2
40 0.45
41 27.3
42 6.6
43 6.4
44 0.14
45 60.1
46 1.6
47 11.7
50 0.21
51 3.8
52 1.6
53 29.5
54 0.52
55 35.7
56 6.2
57 3.2
58 0.31
59 16.8
67 1.9
68 3.1
69 5.45
70 7.1
71 2.6
73 3.2
75 6.77
76 3.4
81 13.9
82 3.1
83 1.12
84 27.6
85 29.6
86 1.9
97 1.92
98 5.9
99 2.1
101 1.8
112 0.59
113 99.99
114 9.5
115 67.5
116 0.82
129 8
133 1
143 2
144 2.4

$$$$

     RDKit          2D

  9  9  0  0  0  0  0  0  0  0999 V2000
    3.8981   -0.7504    0.0000 C   0  0  0  0  0  0  0  0  0  0  0  0
   -0.0000    1.5000    0.0000 C   0  0  0  0  0  0  0  0  0  0  0  0
   -1.3000    0.7500    0.0000 C   0  0  0  0  0  0  0  0  0  0  0  0
    1.3000    0.7500    0.0000 C   0  0  0  0  0  0  0  0  0  0  0  0
   -1.3000   -0.7500    0.0000 C   0  0  0  0  0  0  0  0  0  0  0  0
    1.3000   -0.7500    0.0000 C   0  0  0  0  0  0  0  0  0  0  0  0
   -2.5989   -1.5002    0.0000 Cl  0  0  0  0  0  0  0  0  0  0  0  0
   -0.0000   -1.5000    0.0000 N   0  0  0  0  0  0  0  0  0  0  0  0
    2.5989   -1.5002    0.0000 O   0  0  0  0  0  0  0  0  0  0  0  0
  3  2  2  0
  4  2  1  0
  5  3  1  0
  6  4  2  0
  7  5  1  0
  8  5  2  0
  8  6  1  0
  9  1  1  0
  9  6  1  0
M  END
>  <NAME>  (1394) 
2-CHLORO-6-METHOXYPYRIDINE

>  <SYNONYMS>  (1394) 


>  <SPECTRUM TYPE>  (1394) 
MS1

>  <INSTRUMENT TYPE>  (1394) 
EI-B

>  <INSTRUMENT>  (1394) 
JEOL JMS-D-300

>  <ION MODE>  (1394) 
P

>  <INCHIKEY>  (1394) 
VAVGOGHLNAJECD-UHFFFAOYSA-N

>  <FORMULA>  (1394) 
C6H6ClNO

>  <EXACT MASS>  (1394) 
143.013791492

>  <MW>  (1394) 
143

>  <ID>  (1394) 
JP010029

>  <CONTRIBUTOR>  (1394) 
University of Tokyo Team, {Faculty of Engineering, University of Tokyo

>  <COMMENT>  (1394) 
SMILES=COc(c1)nc(Cl)cc1
InChI=InChI=1S/C6H6ClNO/c1-9-6-4-2-3-5(7)8-6/h2-4H,1H3
computed SMILES=ClC=1N=C(OC)C=CC1
accession=JP010029
date=2016.01.19 (Created 2008.10.21, modified 2011.05.06)
author=KURARAY CO., LTD.
license=CC BY-NC-SA
exact mass=143.01379
ionization energy=70 eV
ion type=[M]+*
computed spectral entropy=2.558644737095328
computed normalized entropy=0.6845561535399853
SPLASH=splash10-0006-3900000000-7dd8a2b24ac6dd63d2dc
submitter=submitter = University of Tokyo Team (Faculty of Engineering, University of Tokyo)
MoNA Rating=3.75

>  <NUM PEAKS>  (1394) 
42

>  <MASS SPECTRAL PEAKS>  (1394) 
26 1
28 2.3
37 2.3
38 0.76
39 16.1
49 1.4
50 4.3
51 0.45
52 2.1
53 2.1
63 1.3
64 0.54
65 5.8
66 1.2
73 1.4
75 0.17
76 9.9
77 4.3
78 46
79 0.4
80 1.4
85 2
86 2.5
93 0.92
100 2.8
102 1.1
106 3
108 0.78
109 1
112 8.7
113 55.2
114 2.8
115 19.6
116 8.5
138 1.7
139 0.19
140 1.3
142 99.99
143 75.9
144 3.88
145 25.2
146 1.8

$$$$

     RDKit          2D

 10  9  0  0  0  0  0  0  0  0999 V2000
   -5.3469    4.4130    0.0000 C   0  0  0  0  0  0  0  0  0  0  0  0
   -4.0478    2.1630    0.0000 C   0  0  0  0  0  0  0  0  0  0  0  0
    0.3983    2.3639    0.0000 C   0  0  0  0  0  0  0  0  0  0  0  0
    2.4474    2.9130    0.0000 C   0  0  0  0  0  0  0  0  0  0  0  0
   -1.4498    3.6630    0.0000 C   0  0  0  0  0  0  0  0  0  0  0  0
   -2.7488    4.4130    0.0000 C   0  0  0  0  0  0  0  0  0  0  0  0
   -0.1507    4.4130    0.0000 C   0  0  0  0  0  0  0  0  0  0  0  0
   -4.0478    3.6630    0.0000 C   0  0  0  0  0  0  0  0  0  0  0  0
    1.1483    3.6630    0.0000 C   0  0  0  0  0  0  0  0  0  0  0  0
    1.8983    4.9620    0.0000 O   0  0  0  0  0  0  0  0  0  0  0  0
  6  5  1  0
  7  5  1  0
  8  1  1  0
  8  2  1  0
  8  6  2  0
  9  3  1  0
  9  4  1  0
  9  7  1  0
 10  9  1  0
M  END
>  <NAME>  (1395) 
2,6-DIMETHYL-5-HEPTEN-2-OL

>  <SYNONYMS>  (1395) 


>  <SPECTRUM TYPE>  (1395) 
MS1

>  <INSTRUMENT TYPE>  (1395) 
EI-B

>  <INSTRUMENT>  (1395) 
JEOL JMS-D-300

>  <ION MODE>  (1395) 
P

>  <INCHIKEY>  (1395) 
URIIVOSFQJXLPT-UHFFFAOYSA-N

>  <FORMULA>  (1395) 
C9H18O

>  <EXACT MASS>  (1395) 
142.135765196

>  <MW>  (1395) 
142

>  <ID>  (1395) 
JP010028

>  <CONTRIBUTOR>  (1395) 
University of Tokyo Team, {Faculty of Engineering, University of Tokyo

>  <COMMENT>  (1395) 
SMILES=CC(C)=CCCC(C)(C)O
InChI=InChI=1S/C9H18O/c1-8(2)6-5-7-9(3,4)10/h6,10H,5,7H2,1-4H3
computed SMILES=OC(C)(C)CCC=C(C)C
accession=JP010028
ionization energy=70 eV
ion type=[M]+*
date=2016.01.19 (Created 2008.10.21, modified 2011.05.06)
author=KURARAY CO., LTD.
license=CC BY-NC-SA
exact mass=142.13577
computed spectral entropy=2.6184555402542182
computed normalized entropy=0.7251495613027548
SPLASH=splash10-0a4l-9200000000-00bc6f557f44acf604a6
submitter=submitter = University of Tokyo Team (Faculty of Engineering, University of Tokyo)
MoNA Rating=3.75

>  <NUM PEAKS>  (1395) 
37

>  <MASS SPECTRAL PEAKS>  (1395) 
27 13.1
28 2.5
29 10.2
31 1.4
39 15.4
40 3.3
41 59.8
42 0.4
43 42.6
44 1.1
45 1.3
51 0.14
53 6.9
54 1.1
55 16.9
56 1.38
57 3.4
58 2.8
59 99.99
60 0.32
67 21.1
68 16.5
69 56.7
70 0.35
71 6
72 1
79 1
81 0.72
82 2.6
83 1.9
84 1.7
95 0.43
109 77.4
110 6.5
124 33.8
125 0.33
127 1.7

$$$$

     RDKit          2D

 10 10  0  0  0  0  0  0  0  0999 V2000
    1.0567   -2.3735    0.0000 C   0  0  0  0  0  0  0  0  0  0  0  0
    2.5838   -0.2716    0.0000 C   0  0  0  0  0  0  0  0  0  0  0  0
   -3.4230    1.7537    0.0000 C   0  0  0  0  0  0  0  0  0  0  0  0
   -3.4230   -0.2537    0.0000 C   0  0  0  0  0  0  0  0  0  0  0  0
    0.0000    1.5000    0.0000 C   0  0  0  0  0  0  0  0  0  0  0  0
    1.2135   -0.8817    0.0000 C   0  0  0  0  0  0  0  0  0  0  0  0
    0.0000    0.0000    0.0000 C   0  0  0  0  0  0  0  0  0  0  0  0
   -2.3083    0.7500    0.0000 C   0  0  0  0  0  0  0  0  0  0  0  0
   -1.4266    1.9635    0.0000 O   0  0  0  0  0  0  0  0  0  0  0  0
   -1.4266   -0.4635    0.0000 O   0  0  0  0  0  0  0  0  0  0  0  0
  6  1  2  0
  6  2  1  0
  7  5  1  0
  7  6  1  0
  8  3  1  0
  8  4  1  0
  9  5  1  0
  9  8  1  0
 10  7  1  0
 10  8  1  0
M  END
>  <NAME>  (1396) 
2,2-DIMETHYL-4-ISOPROPENYL-1,3-DIOXOLANE

>  <SYNONYMS>  (1396) 


>  <SPECTRUM TYPE>  (1396) 
MS1

>  <INSTRUMENT TYPE>  (1396) 
EI-B

>  <INSTRUMENT>  (1396) 
JEOL JMS-D-300

>  <ION MODE>  (1396) 
P

>  <INCHIKEY>  (1396) 
WACAKSJDGYQSKE-UHFFFAOYSA-N

>  <FORMULA>  (1396) 
C8H14O2

>  <EXACT MASS>  (1396) 
142.099379688

>  <MW>  (1396) 
142

>  <ID>  (1396) 
JP010027

>  <CONTRIBUTOR>  (1396) 
University of Tokyo Team, {Faculty of Engineering, University of Tokyo

>  <COMMENT>  (1396) 
SMILES=CC(=C)C(C1)OC(C)(C)O1
InChI=InChI=1S/C8H14O2/c1-6(2)7-5-9-8(3,4)10-7/h7H,1,5H2,2-4H3
computed SMILES=O1CC(OC1(C)C)C(=C)C
accession=JP010027
date=2016.01.19 (Created 2008.10.21, modified 2011.05.06)
author=KURARAY CO., LTD.
license=CC BY-NC-SA
exact mass=142.09938
ionization energy=70 eV
ion type=[M]+*
computed spectral entropy=2.5590761839604084
computed normalized entropy=0.7452200697247757
SPLASH=splash10-0006-9200000000-ec5e178fcfaed767e701
submitter=submitter = University of Tokyo Team (Faculty of Engineering, University of Tokyo)
MoNA Rating=3.75

>  <NUM PEAKS>  (1396) 
31

>  <MASS SPECTRAL PEAKS>  (1396) 
27 7.1
29 7.5
31 2.7
39 1.51
40 3.6
41 19.5
42 27.7
43 99.99
44 4.8
53 4.1
54 1.9
55 0.93
56 4.3
57 3.9
58 3.9
59 1.33
61 1.9
67 5.5
69 7.4
70 0.37
71 1.9
72 63.2
73 4
83 0.92
84 8.8
85 20
97 10
101 0.31
112 17.4
127 62.7
128 5.2

$$$$

     RDKit          2D

 10 10  0  0  0  0  0  0  0  0999 V2000
    3.8981    0.7504    0.0000 C   0  0  0  0  0  0  0  0  0  0  0  0
   -2.5989   -1.5002    0.0000 C   0  0  0  0  0  0  0  0  0  0  0  0
   -1.3000    0.7500    0.0000 C   0  0  0  0  0  0  0  0  0  0  0  0
   -0.0000   -1.5000    0.0000 C   0  0  0  0  0  0  0  0  0  0  0  0
    0.0000    1.5000    0.0000 C   0  0  0  0  0  0  0  0  0  0  0  0
    1.3000   -0.7500    0.0000 C   0  0  0  0  0  0  0  0  0  0  0  0
    2.5989    1.5002    0.0000 C   0  0  0  0  0  0  0  0  0  0  0  0
   -1.3000   -0.7500    0.0000 N   0  0  0  0  0  0  0  0  0  0  0  0
    1.3000    0.7500    0.0000 N   0  0  0  0  0  0  0  0  0  0  0  0
    2.5987    3.0002    0.0000 O   0  0  0  0  0  0  0  0  0  0  0  0
  5  3  1  0
  6  4  1  0
  7  1  1  0
  8  2  1  0
  8  3  1  0
  8  4  1  0
  9  5  1  0
  9  6  1  0
  9  7  1  0
 10  7  2  0
M  END
>  <NAME>  (1397) 
1-ACETYL-4-METHYLPIPERAZINE

>  <SYNONYMS>  (1397) 


>  <SPECTRUM TYPE>  (1397) 
MS1

>  <INSTRUMENT TYPE>  (1397) 
EI-B

>  <INSTRUMENT>  (1397) 
JEOL JMS-D-300

>  <ION MODE>  (1397) 
P

>  <INCHIKEY>  (1397) 
YSDBJKNOEWSFGA-UHFFFAOYSA-N

>  <FORMULA>  (1397) 
C7H14N2O

>  <EXACT MASS>  (1397) 
142.110613068

>  <MW>  (1397) 
142

>  <ID>  (1397) 
JP010026

>  <CONTRIBUTOR>  (1397) 
University of Tokyo Team, {Faculty of Engineering, University of Tokyo

>  <COMMENT>  (1397) 
SMILES=CN(C1)CCN(C1)C(C)=O
InChI=InChI=1S/C7H14N2O/c1-7(10)9-5-3-8(2)4-6-9/h3-6H2,1-2H3
computed SMILES=O=C(N1CCN(C)CC1)C
accession=JP010026
date=2016.01.19 (Created 2008.10.21, modified 2011.05.06)
author=KURARAY CO., LTD.
license=CC BY-NC-SA
exact mass=142.11061
ionization energy=70 eV
ion type=[M]+*
computed spectral entropy=2.5756587710601964
computed normalized entropy=0.7572800052555254
SPLASH=splash10-05fu-9000000000-606202821b41b38f0585
submitter=submitter = University of Tokyo Team (Faculty of Engineering, University of Tokyo)
MoNA Rating=3.75

>  <NUM PEAKS>  (1397) 
30

>  <MASS SPECTRAL PEAKS>  (1397) 
27 4.7
28 28.9
29 5.2
30 0.63
32 5.3
41 5.5
42 38.3
43 8.8
44 18.4
54 3.4
55 5
56 6.44
57 29.7
58 87.5
59 2.7
69 0.14
70 99.99
71 21.3
72 5.2
83 2.55
84 3.6
85 3.3
97 1.4
98 0.45
99 59.8
100 8
127 1.4
141 0.16
142 31.3
143 1.9

$$$$

     RDKit          2D

 10  9  0  0  0  0  0  0  0  0999 V2000
    2.2733    5.0625    0.0000 C   0  0  0  0  0  0  0  0  0  0  0  0
   -5.5209    5.0625    0.0000 C   0  0  0  0  0  0  0  0  0  0  0  0
   -0.3248    5.0625    0.0000 C   0  0  0  0  0  0  0  0  0  0  0  0
   -1.6238    4.3125    0.0000 C   0  0  0  0  0  0  0  0  0  0  0  0
    0.9743    2.8125    0.0000 C   0  0  0  0  0  0  0  0  0  0  0  0
    0.9743    4.3125    0.0000 C   0  0  0  0  0  0  0  0  0  0  0  0
   -4.2219    4.3125    0.0000 C   0  0  0  0  0  0  0  0  0  0  0  0
    2.2733    2.0625    0.0000 O   0  0  0  0  0  0  0  0  0  0  0  0
   -4.2219    2.8125    0.0000 O   0  0  0  0  0  0  0  0  0  0  0  0
   -2.9228    5.0625    0.0000 O   0  0  0  0  0  0  0  0  0  0  0  0
  4  3  1  0
  6  1  1  0
  3  6  2  0
  6  5  1  0
  7  2  1  0
  8  5  2  0
  9  7  2  0
 10  4  1  0
 10  7  1  0
M  END
>  <NAME>  (1398) 
3-FORMYL-2-BUTEN-1-YL ACETATE

>  <SYNONYMS>  (1398) 


>  <SPECTRUM TYPE>  (1398) 
MS1

>  <INSTRUMENT TYPE>  (1398) 
EI-B

>  <INSTRUMENT>  (1398) 
JEOL JMS-D-300

>  <ION MODE>  (1398) 
P

>  <INCHIKEY>  (1398) 
LPDDKAJRWGPGSI-UTCJRWHESA-N

>  <FORMULA>  (1398) 
C7H10O3

>  <EXACT MASS>  (1398) 
142.06299417999998

>  <MW>  (1398) 
142

>  <ID>  (1398) 
JP010025

>  <CONTRIBUTOR>  (1398) 
University of Tokyo Team, {Faculty of Engineering, University of Tokyo

>  <COMMENT>  (1398) 
SMILES=O=CC(C)=CCOC(C)=O
InChI=InChI=1S/C7H10O3/c1-6(5-8)3-4-10-7(2)9/h3,5H,4H2,1-2H3/b6-3-
computed SMILES=O=CC(=CCOC(=O)C)C
accession=JP010025
date=2016.01.19 (Created 2008.10.21, modified 2011.05.06)
author=KURARAY CO., LTD.
license=CC BY-NC-SA
exact mass=142.06299
ionization energy=70 eV
ion type=[M]+*
computed spectral entropy=2.148869088069289
computed normalized entropy=0.6761588074906908
SPLASH=splash10-0f6x-9100000000-c3395ed7d6947fc9f26f
submitter=submitter = University of Tokyo Team (Faculty of Engineering, University of Tokyo)
MoNA Rating=3.75

>  <NUM PEAKS>  (1398) 
24

>  <MASS SPECTRAL PEAKS>  (1398) 
27 9.6
29 9.4
38 1
39 1.46
41 5.2
42 2.5
43 99.99
44 0.29
51 1.6
53 12.2
54 11.6
55 0.91
57 1.6
61 1.4
69 1.7
71 4.92
72 2.3
81 6.8
82 42.9
83 2.42
84 1.2
99 3.1
100 39.7
101 2.3

$$$$

     RDKit          2D

 10  9  0  0  0  0  0  0  0  0999 V2000
   -5.3469    4.4130    0.0000 C   0  0  0  0  0  0  0  0  0  0  0  0
   -4.0478    2.1630    0.0000 C   0  0  0  0  0  0  0  0  0  0  0  0
    0.3983    2.3639    0.0000 C   0  0  0  0  0  0  0  0  0  0  0  0
    2.4474    2.9130    0.0000 C   0  0  0  0  0  0  0  0  0  0  0  0
    1.8983    4.9620    0.0000 C   0  0  0  0  0  0  0  0  0  0  0  0
   -2.7488    4.4130    0.0000 C   0  0  0  0  0  0  0  0  0  0  0  0
   -1.4498    3.6630    0.0000 C   0  0  0  0  0  0  0  0  0  0  0  0
   -4.0478    3.6630    0.0000 C   0  0  0  0  0  0  0  0  0  0  0  0
    1.1483    3.6630    0.0000 C   0  0  0  0  0  0  0  0  0  0  0  0
   -0.1507    4.4130    0.0000 N   0  0  0  0  0  0  0  0  0  0  0  0
  7  6  1  0
  8  1  1  0
  8  2  1  0
  8  6  2  0
  9  3  1  0
  9  4  1  0
  9  5  1  0
 10  7  1  0
 10  9  1  0
M  END
>  <NAME>  (1399) 
TERT-BUTYL(3-METHYL-2-BUTENYL)AMINE

>  <SYNONYMS>  (1399) 


>  <SPECTRUM TYPE>  (1399) 
MS1

>  <INSTRUMENT TYPE>  (1399) 
EI-B

>  <INSTRUMENT>  (1399) 
JEOL JMS-D-300

>  <ION MODE>  (1399) 
P

>  <INCHIKEY>  (1399) 
POFOHSVASPTSTC-UHFFFAOYSA-N

>  <FORMULA>  (1399) 
C9H19N

>  <EXACT MASS>  (1399) 
141.151749608

>  <MW>  (1399) 
141

>  <ID>  (1399) 
JP010024

>  <CONTRIBUTOR>  (1399) 
University of Tokyo Team, {Faculty of Engineering, University of Tokyo

>  <COMMENT>  (1399) 
SMILES=CC(C)=CCNC(C)(C)C
InChI=InChI=1S/C9H19N/c1-8(2)6-7-10-9(3,4)5/h6,10H,7H2,1-5H3
computed SMILES=C(=C(C)C)CNC(C)(C)C
accession=JP010024
date=2016.01.19 (Created 2008.10.21, modified 2011.05.06)
author=KURARAY CO., LTD.
license=CC BY-NC-SA
exact mass=141.15175
ionization energy=70 eV
ion type=[M]+*
computed spectral entropy=2.3125170371474058
computed normalized entropy=0.6939901287828868
SPLASH=splash10-0a6r-9200000000-ca5230267d5f87e82a50
submitter=submitter = University of Tokyo Team (Faculty of Engineering, University of Tokyo)
MoNA Rating=3.75

>  <NUM PEAKS>  (1399) 
28

>  <MASS SPECTRAL PEAKS>  (1399) 
27 3.4
28 11.4
29 5.2
30 0.51
32 1.8
39 5.2
41 24.1
42 0.65
43 2.3
53 2.7
55 1.8
56 0.17
57 8
58 99.99
59 4.1
67 0.26
68 2.7
69 33.8
70 14.5
71 0.1
82 1.2
84 9.7
85 1
110 0.11
126 41.4
127 3.4
141 11.2
142 1.2

$$$$

     RDKit          2D

 10 10  0  0  0  0  0  0  0  0999 V2000
    6.1262    0.5406    0.0000 C   0  0  0  0  0  0  0  0  0  0  0  0
    6.1262   -0.9594    0.0000 C   0  0  0  0  0  0  0  0  0  0  0  0
    4.8262    1.2906    0.0000 C   0  0  0  0  0  0  0  0  0  0  0  0
    4.8262   -1.7094    0.0000 C   0  0  0  0  0  0  0  0  0  0  0  0
    3.5262    0.5406    0.0000 C   0  0  0  0  0  0  0  0  0  0  0  0
   -0.3708   -1.7100    0.0000 C   0  0  0  0  0  0  0  0  0  0  0  0
    0.9281   -0.9598    0.0000 C   0  0  0  0  0  0  0  0  0  0  0  0
    3.5262   -0.9594    0.0000 C   0  0  0  0  0  0  0  0  0  0  0  0
   -1.6700   -0.9602    0.0000 O   0  0  0  0  0  0  0  0  0  0  0  0
    2.2272   -1.7096    0.0000 O   0  0  0  0  0  0  0  0  0  0  0  0
  2  1  2  0
  3  1  1  0
  4  2  1  0
  5  3  2  0
  7  6  1  0
  8  4  2  0
  8  5  1  0
  9  6  1  0
 10  7  1  0
 10  8  1  0
M  END
>  <NAME>  (1400) 
2-PHENOXYETHANOL

>  <SYNONYMS>  (1400) 


>  <SPECTRUM TYPE>  (1400) 
MS1

>  <INSTRUMENT TYPE>  (1400) 
EI-B

>  <INSTRUMENT>  (1400) 
JEOL JMS-D-300

>  <ION MODE>  (1400) 
P

>  <INCHIKEY>  (1400) 
QCDWFXQBSFUVSP-UHFFFAOYSA-N

>  <FORMULA>  (1400) 
C8H10O2

>  <EXACT MASS>  (1400) 
138.06807956

>  <MW>  (1400) 
138

>  <ID>  (1400) 
JP010023

>  <CONTRIBUTOR>  (1400) 
University of Tokyo Team, {Faculty of Engineering, University of Tokyo

>  <COMMENT>  (1400) 
SMILES=OCCOc(c1)cccc1
InChI=InChI=1S/C8H10O2/c9-6-7-10-8-4-2-1-3-5-8/h1-5,9H,6-7H2
computed SMILES=OCCOC=1C=CC=CC1
accession=JP010023
date=2016.01.19 (Created 2008.10.21, modified 2011.05.06)
author=KURARAY CO., LTD.
license=CC BY-NC-SA
exact mass=138.06808
ionization energy=70 eV
ion type=[M]+*
computed spectral entropy=1.8228311536027657
computed normalized entropy=0.6433794184355632
SPLASH=splash10-0006-9000000000-480278f55ce8ffc42edb
submitter=submitter = University of Tokyo Team (Faculty of Engineering, University of Tokyo)
MoNA Rating=3.75

>  <NUM PEAKS>  (1400) 
17

>  <MASS SPECTRAL PEAKS>  (1400) 
27 2.5
39 5.9
45 8.1
50 0.17
51 8.1
55 2
65 5.5
66 0.88
77 25.3
78 2.5
79 4.4
87 0.2
94 99.99
95 16.4
107 7.5
138 3.55
139 2.7

$$$$

     RDKit          2D

  9 10  0  0  0  0  0  0  0  0999 V2000
   -2.3100   -0.7500    0.0000 C   0  0  0  0  0  0  0  0  0  0  0  0
   -2.3100    0.7500    0.0000 C   0  0  0  0  0  0  0  0  0  0  0  0
   -1.0100   -1.5000    0.0000 C   0  0  0  0  0  0  0  0  0  0  0  0
   -1.0100    1.5000    0.0000 C   0  0  0  0  0  0  0  0  0  0  0  0
    1.7200   -1.2100    0.0000 C   0  0  0  0  0  0  0  0  0  0  0  0
    1.7200    1.2100    0.0000 C   0  0  0  0  0  0  0  0  0  0  0  0
    0.2900   -0.7500    0.0000 C   0  0  0  0  0  0  0  0  0  0  0  0
    0.2900    0.7500    0.0000 C   0  0  0  0  0  0  0  0  0  0  0  0
    2.6000    0.0000    0.0000 S   0  0  0  0  0  0  0  0  0  0  0  0
  2  1  2  0
  3  1  1  0
  4  2  1  0
  7  3  2  0
  7  5  1  0
  8  4  2  0
  8  6  1  0
  8  7  1  0
  9  5  1  0
  9  6  1  0
M  END
>  <NAME>  (1401) 
1,3-DIHYDROBENZO(C)THIOPHENE

>  <SYNONYMS>  (1401) 


>  <SPECTRUM TYPE>  (1401) 
MS1

>  <INSTRUMENT TYPE>  (1401) 
EI-B

>  <INSTRUMENT>  (1401) 
JEOL JMS-D-300

>  <ION MODE>  (1401) 
P

>  <INCHIKEY>  (1401) 
KVRZARWOKBNZMM-UHFFFAOYSA-N

>  <FORMULA>  (1401) 
C8H8S

>  <EXACT MASS>  (1401) 
136.034671256

>  <MW>  (1401) 
136

>  <ID>  (1401) 
JP010022

>  <CONTRIBUTOR>  (1401) 
University of Tokyo Team, {Faculty of Engineering, University of Tokyo

>  <COMMENT>  (1401) 
SMILES=c(c2)cc(C1)c(c2)CS1
InChI=InChI=1S/C8H8S/c1-2-4-8-6-9-5-7(8)3-1/h1-4H,5-6H2
computed SMILES=S1CC=2C=CC=CC2C1
accession=JP010022
date=2016.01.19 (Created 2008.10.21, modified 2011.05.06)
author=KURARAY CO., LTD.
license=CC BY-NC-SA
exact mass=136.03467
ionization energy=70 eV
ion type=[M]+*
computed spectral entropy=1.8691972837654736
computed normalized entropy=0.63482289732988
SPLASH=splash10-000i-2900000000-c78fddbfddf9714d038f
submitter=submitter = University of Tokyo Team (Faculty of Engineering, University of Tokyo)
MoNA Rating=3.75

>  <NUM PEAKS>  (1401) 
19

>  <MASS SPECTRAL PEAKS>  (1401) 
39 4.3
45 2.9
50 2.3
51 0.44
63 4.4
65 2.9
67 10.8
68 0.26
69 1.9
77 2.7
89 4.5
90 0.23
91 19.8
103 1.6
134 8.6
135 99.99
136 70
137 11.6
138 3.3

$$$$

     RDKit          2D

  9  8  0  0  0  0  0  0  0  0999 V2000
   -0.9398    5.1969    0.0000 C   0  0  0  0  0  0  0  0  0  0  0  0
   -0.6050    3.2978    0.0000 C   0  0  0  0  0  0  0  0  0  0  0  0
   -3.2031    3.2978    0.0000 C   0  0  0  0  0  0  0  0  0  0  0  0
    0.6941    4.0478    0.0000 C   0  0  0  0  0  0  0  0  0  0  0  0
   -4.5021    4.0478    0.0000 C   0  0  0  0  0  0  0  0  0  0  0  0
   -1.9040    4.0478    0.0000 C   0  0  0  0  0  0  0  0  0  0  0  0
    1.9931    3.2978    0.0000 O   0  0  0  0  0  0  0  0  0  0  0  0
   -5.8011    3.2978    0.0000 O   0  0  0  0  0  0  0  0  0  0  0  0
   -2.8682    5.1969    0.0000 O   0  0  0  0  0  0  0  0  0  0  0  0
  4  2  1  0
  5  3  1  0
  6  1  1  0
  6  2  1  0
  6  3  1  0
  7  4  1  0
  8  5  1  0
  9  6  1  0
M  END
>  <NAME>  (1402) 
3-METHYLPENTANE-1,3,5-TRIOL

>  <SYNONYMS>  (1402) 


>  <SPECTRUM TYPE>  (1402) 
MS1

>  <INSTRUMENT TYPE>  (1402) 
EI-B

>  <INSTRUMENT>  (1402) 
JEOL JMS-D-300

>  <ION MODE>  (1402) 
P

>  <INCHIKEY>  (1402) 
AHHQDHCTHYTBSV-UHFFFAOYSA-N

>  <FORMULA>  (1402) 
C6H14O3

>  <EXACT MASS>  (1402) 
134.09429430799997

>  <MW>  (1402) 
134

>  <ID>  (1402) 
JP010021

>  <CONTRIBUTOR>  (1402) 
University of Tokyo Team, {Faculty of Engineering, University of Tokyo

>  <COMMENT>  (1402) 
SMILES=OCCC(C)(O)CCO
InChI=InChI=1S/C6H14O3/c1-6(9,2-4-7)3-5-8/h7-9H,2-5H2,1H3
computed SMILES=OCCC(O)(C)CCO
accession=JP010021
date=2016.01.19 (Created 2008.10.21, modified 2011.05.06)
author=KURARAY CO., LTD.
license=CC BY-NC-SA
exact mass=134.09429
ionization energy=70 eV
ion type=[M]+*
computed spectral entropy=2.4789851755083285
computed normalized entropy=0.6766598777250662
SPLASH=splash10-000f-9000000000-03ad8de50aca2c39515f
submitter=submitter = University of Tokyo Team (Faculty of Engineering, University of Tokyo)
MoNA Rating=3.75

>  <NUM PEAKS>  (1402) 
39

>  <MASS SPECTRAL PEAKS>  (1402) 
27 3.9
28 1.5
29 6.4
31 1.43
39 4
41 15.9
42 3.6
43 99.99
44 4.8
45 15.5
53 3.7
54 0.13
55 6.9
56 3.2
57 2.5
58 0.29
59 3.2
61 7
67 2.3
68 0.44
69 5.3
70 4.2
71 41.8
72 0.2
73 8.1
79 1.5
81 2.9
83 0.4
86 1.4
89 81.7
90 2.6
101 0.55
112 2.5
113 1.8
119 2.3
140 0.26
141 4.5
142 1.8
157 1.7

$$$$

     RDKit          2D

  8  8  0  0  0  0  0  0  0  0999 V2000
   -1.3146    2.4468    0.0000 C   0  0  0  0  0  0  0  0  0  0  0  0
    0.4981    1.7881    0.0000 C   0  0  0  0  0  0  0  0  0  0  0  0
   -0.8019   -0.4635    0.0000 C   0  0  0  0  0  0  0  0  0  0  0  0
    1.7971    1.0381    0.0000 C   0  0  0  0  0  0  0  0  0  0  0  0
    0.4971   -1.2135    0.0000 C   0  0  0  0  0  0  0  0  0  0  0  0
   -0.8014    1.0373    0.0000 C   0  0  0  0  0  0  0  0  0  0  0  0
   -2.2787    0.7770    0.0000 Cl  0  0  0  0  0  0  0  0  0  0  0  0
    1.7966   -0.4627    0.0000 O   0  0  0  0  0  0  0  0  0  0  0  0
  4  2  1  0
  5  3  1  0
  6  1  1  0
  6  2  1  0
  6  3  1  0
  7  6  1  0
  8  4  1  0
  8  5  1  0
M  END
>  <NAME>  (1403) 
4-CHLORO-4-METHYLPERHYDROPYRAN

>  <SYNONYMS>  (1403) 


>  <SPECTRUM TYPE>  (1403) 
MS1

>  <INSTRUMENT TYPE>  (1403) 
EI-B

>  <INSTRUMENT>  (1403) 
JEOL JMS-D-300

>  <ION MODE>  (1403) 
P

>  <INCHIKEY>  (1403) 
AJALOBPESIDPGW-UHFFFAOYSA-N

>  <FORMULA>  (1403) 
C6H11ClO

>  <EXACT MASS>  (1403) 
134.049842652

>  <MW>  (1403) 
134

>  <ID>  (1403) 
JP010020

>  <CONTRIBUTOR>  (1403) 
University of Tokyo Team, {Faculty of Engineering, University of Tokyo

>  <COMMENT>  (1403) 
SMILES=CC(Cl)(C1)CCOC1
InChI=InChI=1S/C6H11ClO/c1-6(7)2-4-8-5-3-6/h2-5H2,1H3
computed SMILES=ClC1(C)CCOCC1
accession=JP010020
date=2016.01.19 (Created 2008.10.21, modified 2011.05.06)
author=KURARAY CO., LTD.
license=CC BY-NC-SA
exact mass=134.04984
ionization energy=70 eV
ion type=[M]+*
computed spectral entropy=2.9288267252213993
computed normalized entropy=0.7449024953815264
SPLASH=splash10-015d-9000000000-c6316033c02d96948299
submitter=submitter = University of Tokyo Team (Faculty of Engineering, University of Tokyo)
MoNA Rating=3.75

>  <NUM PEAKS>  (1403) 
51

>  <MASS SPECTRAL PEAKS>  (1403) 
26 2.1
27 19.7
28 5.1
29 1.45
30 1.5
31 3.4
36 1.3
38 0.23
39 25.3
40 10.6
41 82.5
42 1.03
43 22.9
44 3.2
45 1.3
49 0.3
50 1.8
51 4.4
52 1.6
53 2.45
54 2.9
55 43.4
56 4
57 0.42
58 1.3
61 1
63 1.6
65 0.21
67 21.8
68 23.4
69 77.1
70 1.17
71 2.3
75 1.3
76 9.5
77 0.12
78 2.5
79 11
81 7.4
83 99.99
84 5.6
89 7.1
91 2.4
97 0.5
98 62.7
99 19.7
104 4
106 0.12
134 14.9
135 1.1
136 4.4

$$$$

     RDKit          2D

 10 10  0  0  0  0  0  0  0  0999 V2000
   -0.9743   -0.6175    0.0000 C   0  0  0  0  0  0  0  0  0  0  0  0
    2.9228    3.1325    0.0000 C   0  0  0  0  0  0  0  0  0  0  0  0
    1.6233    3.8833    0.0000 C   0  0  0  0  0  0  0  0  0  0  0  0
    2.9233    1.6317    0.0000 C   0  0  0  0  0  0  0  0  0  0  0  0
    0.3243    3.1333    0.0000 C   0  0  0  0  0  0  0  0  0  0  0  0
    1.6243    0.8817    0.0000 C   0  0  0  0  0  0  0  0  0  0  0  0
   -2.2733    1.6325    0.0000 C   0  0  0  0  0  0  0  0  0  0  0  0
   -0.9743    0.8825    0.0000 C   0  0  0  0  0  0  0  0  0  0  0  0
    0.3248    1.6325    0.0000 C   0  0  0  0  0  0  0  0  0  0  0  0
   -3.5724    0.8825    0.0000 O   0  0  0  0  0  0  0  0  0  0  0  0
  3  2  2  0
  4  2  1  0
  5  3  1  0
  6  4  2  0
  8  1  1  0
  8  7  1  0
  9  5  2  0
  9  6  1  0
  9  8  1  0
 10  7  2  0
M  END
>  <NAME>  (1404) 
2-PHENYL-PROPANAL

>  <SYNONYMS>  (1404) 


>  <SPECTRUM TYPE>  (1404) 
MS1

>  <INSTRUMENT TYPE>  (1404) 
EI-B

>  <INSTRUMENT>  (1404) 
JEOL JMS-D-300

>  <ION MODE>  (1404) 
P

>  <INCHIKEY>  (1404) 
IQVAERDLDAZARL-UHFFFAOYSA-N

>  <FORMULA>  (1404) 
C9H10O

>  <EXACT MASS>  (1404) 
134.07316494

>  <MW>  (1404) 
134

>  <ID>  (1404) 
JP010019

>  <CONTRIBUTOR>  (1404) 
University of Tokyo Team, {Faculty of Engineering, University of Tokyo

>  <COMMENT>  (1404) 
SMILES=O=CC(C)c(c1)cccc1
InChI=InChI=1S/C9H10O/c1-8(7-10)9-5-3-2-4-6-9/h2-8H,1H3
computed SMILES=O=CC(C=1C=CC=CC1)C
accession=JP010019
date=2016.01.19 (Created 2008.10.21, modified 2011.05.06)
author=KURARAY CO., LTD.
license=CC BY-NC-SA
exact mass=134.07316
ionization energy=70 eV
ion type=[M]+*
computed spectral entropy=2.229983211506663
computed normalized entropy=0.711206290918271
SPLASH=splash10-0a4i-4900000000-81527d703e7b4bf031c2
submitter=submitter = University of Tokyo Team (Faculty of Engineering, University of Tokyo)
MoNA Rating=3.75

>  <NUM PEAKS>  (1404) 
23

>  <MASS SPECTRAL PEAKS>  (1404) 
27 2.7
28 1.8
39 5.2
50 0.45
51 11.5
52 2.5
63 4.7
65 0.35
74 2.1
75 1.6
77 31.3
78 0.83
79 29.6
80 1.8
89 2.4
91 1.49
102 2.3
103 21.1
104 6.8
105 99.99
107 22.5
134 26.1
135 2.5

$$$$

     RDKit          2D

  9  8  0  0  0  0  0  0  0  0999 V2000
   -6.4952    4.5000    0.0000 C   0  0  0  0  0  0  0  0  0  0  0  0
    2.5981    3.7500    0.0000 C   0  0  0  0  0  0  0  0  0  0  0  0
   -5.1962    3.7500    0.0000 C   0  0  0  0  0  0  0  0  0  0  0  0
   -1.2990    4.5000    0.0000 C   0  0  0  0  0  0  0  0  0  0  0  0
   -2.5981    3.7500    0.0000 C   0  0  0  0  0  0  0  0  0  0  0  0
    0.0000    3.7500    0.0000 C   0  0  0  0  0  0  0  0  0  0  0  0
   -0.0000    2.2500    0.0000 O   0  0  0  0  0  0  0  0  0  0  0  0
    1.2990    4.5000    0.0000 O   0  0  0  0  0  0  0  0  0  0  0  0
   -3.8971    4.5000    0.0000 O   0  0  0  0  0  0  0  0  0  0  0  0
  3  1  1  0
  5  4  1  0
  6  4  1  0
  7  6  2  0
  8  2  1  0
  8  6  1  0
  9  3  1  0
  9  5  1  0
M  END
>  <NAME>  (1405) 
3-ETHOXYPROPIONIC ACID METHYL ESTER

>  <SYNONYMS>  (1405) 


>  <SPECTRUM TYPE>  (1405) 
MS1

>  <INSTRUMENT TYPE>  (1405) 
EI-B

>  <INSTRUMENT>  (1405) 
JEOL JMS-D-300

>  <ION MODE>  (1405) 
P

>  <INCHIKEY>  (1405) 
HSDFKDZBJMDHFF-UHFFFAOYSA-N

>  <FORMULA>  (1405) 
C6H12O3

>  <EXACT MASS>  (1405) 
132.07864424399997

>  <MW>  (1405) 
132

>  <ID>  (1405) 
JP010018

>  <CONTRIBUTOR>  (1405) 
University of Tokyo Team, {Faculty of Engineering, University of Tokyo

>  <COMMENT>  (1405) 
SMILES=CCOCCC(=O)OC
InChI=InChI=1S/C6H12O3/c1-3-9-5-4-6(7)8-2/h3-5H2,1-2H3
computed SMILES=O=C(OC)CCOCC
accession=JP010018
date=2016.01.19 (Created 2008.10.21, modified 2011.05.06)
author=KURARAY CO., LTD.
license=CC BY-NC-SA
exact mass=132.07864
ionization energy=70 eV
ion type=[M]+*
computed spectral entropy=1.9954809701175622
computed normalized entropy=0.8030406173559101
SPLASH=splash10-0006-9000000000-c4d7876120daadd89478
submitter=submitter = University of Tokyo Team (Faculty of Engineering, University of Tokyo)
MoNA Rating=3.75

>  <NUM PEAKS>  (1405) 
12

>  <MASS SPECTRAL PEAKS>  (1405) 
27 5.3
29 11.7
31 30.3
43 99.99
44 21.3
45 10
59 53.1
61 0.43
72 43.8
73 5.6
87 11.2
88 10.1

$$$$

     RDKit          2D

  9  8  0  0  0  0  0  0  0  0999 V2000
    1.9486    3.3750    0.0000 C   0  0  0  0  0  0  0  0  0  0  0  0
   -5.8457    3.3750    0.0000 C   0  0  0  0  0  0  0  0  0  0  0  0
   -4.5466    5.6250    0.0000 C   0  0  0  0  0  0  0  0  0  0  0  0
    0.6495    4.1250    0.0000 C   0  0  0  0  0  0  0  0  0  0  0  0
   -3.2476    3.3750    0.0000 C   0  0  0  0  0  0  0  0  0  0  0  0
   -4.5466    4.1250    0.0000 C   0  0  0  0  0  0  0  0  0  0  0  0
   -1.9486    4.1250    0.0000 C   0  0  0  0  0  0  0  0  0  0  0  0
   -1.9486    5.6250    0.0000 O   0  0  0  0  0  0  0  0  0  0  0  0
   -0.6495    3.3750    0.0000 O   0  0  0  0  0  0  0  0  0  0  0  0
  4  1  1  0
  6  2  1  0
  6  3  1  0
  6  5  2  0
  7  5  1  0
  8  7  2  0
  9  4  1  0
  9  7  1  0
M  END
>  <NAME>  (1406) 
ETHYL 3-METHYL-2-BUTENOATE

>  <SYNONYMS>  (1406) 
ETHYL SENECIOLATE

>  <SPECTRUM TYPE>  (1406) 
MS1

>  <INSTRUMENT TYPE>  (1406) 
EI-B

>  <INSTRUMENT>  (1406) 
JEOL JMS-D-300

>  <ION MODE>  (1406) 
P

>  <INCHIKEY>  (1406) 
UTXVCHVLDOLVPC-UHFFFAOYSA-N

>  <FORMULA>  (1406) 
C7H12O2

>  <EXACT MASS>  (1406) 
128.083729624

>  <MW>  (1406) 
128

>  <ID>  (1406) 
JP010017

>  <CONTRIBUTOR>  (1406) 
University of Tokyo Team, {Faculty of Engineering, University of Tokyo

>  <COMMENT>  (1406) 
SMILES=CCOC(=O)C=C(C)C
InChI=InChI=1S/C7H12O2/c1-4-9-7(8)5-6(2)3/h5H,4H2,1-3H3
computed SMILES=O=C(OCC)C=C(C)C
accession=JP010017
date=2016.01.19 (Created 2008.10.21, modified 2011.05.06)
author=KURARAY CO., LTD.
license=CC BY-NC-SA
exact mass=128.08373
ionization energy=70 eV
ion type=[M]+*
computed spectral entropy=2.3541458382728715
computed normalized entropy=0.6921520788430123
SPLASH=splash10-001i-9200000000-9b7dd3555e19e4dcf54d
submitter=submitter = University of Tokyo Team (Faculty of Engineering, University of Tokyo)
MoNA Rating=3.75

>  <NUM PEAKS>  (1406) 
30

>  <MASS SPECTRAL PEAKS>  (1406) 
26 1.3
27 16
28 3
29 2.25
32 1.1
38 1.2
39 15.4
40 0.21
41 4.3
42 1.8
43 4
45 0.13
50 1.1
51 1.8
53 6.7
54 0.62
55 35.3
56 3
57 1.6
59 0.23
67 1.2
82 27.9
83 99.99
84 0.62
85 16
100 22.3
101 1.3
113 0.33
128 32.3
129 2.6

$$$$

     RDKit          2D

  9  8  0  0  0  0  0  0  0  0999 V2000
    2.2733    2.8125    0.0000 C   0  0  0  0  0  0  0  0  0  0  0  0
    0.9743    5.0625    0.0000 C   0  0  0  0  0  0  0  0  0  0  0  0
   -5.5209    2.8125    0.0000 C   0  0  0  0  0  0  0  0  0  0  0  0
   -0.3248    2.8125    0.0000 C   0  0  0  0  0  0  0  0  0  0  0  0
   -1.6238    3.5625    0.0000 C   0  0  0  0  0  0  0  0  0  0  0  0
    0.9743    3.5625    0.0000 C   0  0  0  0  0  0  0  0  0  0  0  0
   -4.2219    3.5625    0.0000 C   0  0  0  0  0  0  0  0  0  0  0  0
   -4.2219    5.0625    0.0000 O   0  0  0  0  0  0  0  0  0  0  0  0
   -2.9228    2.8125    0.0000 O   0  0  0  0  0  0  0  0  0  0  0  0
  5  4  1  0
  6  1  2  0
  6  2  1  0
  6  4  1  0
  7  3  1  0
  8  7  2  0
  9  5  1  0
  9  7  1  0
M  END
>  <NAME>  (1407) 
3-METHYL-3-BUTEN-1-YL ACETATE

>  <SYNONYMS>  (1407) 


>  <SPECTRUM TYPE>  (1407) 
MS1

>  <INSTRUMENT TYPE>  (1407) 
EI-B

>  <INSTRUMENT>  (1407) 
JEOL JMS-D-300

>  <ION MODE>  (1407) 
P

>  <INCHIKEY>  (1407) 
OCUAPVNNQFAQSM-UHFFFAOYSA-N

>  <FORMULA>  (1407) 
C7H12O2

>  <EXACT MASS>  (1407) 
128.083729624

>  <MW>  (1407) 
128

>  <ID>  (1407) 
JP010016

>  <CONTRIBUTOR>  (1407) 
University of Tokyo Team, {Faculty of Engineering, University of Tokyo

>  <COMMENT>  (1407) 
SMILES=CC(=C)CCOC(C)=O
InChI=InChI=1S/C7H12O2/c1-6(2)4-5-9-7(3)8/h1,4-5H2,2-3H3
computed SMILES=O=C(OCCC(=C)C)C
accession=JP010016
date=2016.01.19 (Created 2008.10.21, modified 2011.05.06)
author=KURARAY CO., LTD.
license=CC BY-NC-SA
exact mass=128.08373
ionization energy=70 eV
ion type=[M]+*
computed spectral entropy=1.5471199685268935
computed normalized entropy=0.5713040208402328
SPLASH=splash10-00kf-9000000000-5a5c0fbdbc4d27512f06
submitter=submitter = University of Tokyo Team (Faculty of Engineering, University of Tokyo)
MoNA Rating=3.75

>  <NUM PEAKS>  (1407) 
15

>  <MASS SPECTRAL PEAKS>  (1407) 
27 4
29 2.9
39 6.6
40 0.4
41 8.3
42 3.2
43 99.99
44 0.26
53 7.7
55 1.2
61 1.3
67 2.49
68 77.5
69 6
73 3.8

$$$$

     RDKit          2D

  9  9  0  0  0  0  0  0  0  0999 V2000
   -2.2733    0.9376    0.0000 C   0  0  0  0  0  0  0  0  0  0  0  0
    2.9228   -2.0624    0.0000 C   0  0  0  0  0  0  0  0  0  0  0  0
   -0.9748   -1.3133    0.0000 C   0  0  0  0  0  0  0  0  0  0  0  0
    0.3242   -2.0633    0.0000 C   0  0  0  0  0  0  0  0  0  0  0  0
    0.3252    0.9384    0.0000 C   0  0  0  0  0  0  0  0  0  0  0  0
   -0.9743    0.1876    0.0000 C   0  0  0  0  0  0  0  0  0  0  0  0
    1.6242    0.1884    0.0000 C   0  0  0  0  0  0  0  0  0  0  0  0
    1.6238   -1.3124    0.0000 N   0  0  0  0  0  0  0  0  0  0  0  0
    2.9234    0.9382    0.0000 O   0  0  0  0  0  0  0  0  0  0  0  0
  4  3  1  0
  6  1  1  0
  6  3  1  0
  6  5  1  0
  7  5  1  0
  8  2  1  0
  8  4  1  0
  8  7  1  0
  9  7  2  0
M  END
>  <NAME>  (1408) 
1,4-DIMETHYL-2-PIPERIDONE

>  <SYNONYMS>  (1408) 


>  <SPECTRUM TYPE>  (1408) 
MS1

>  <INSTRUMENT TYPE>  (1408) 
EI-B

>  <INSTRUMENT>  (1408) 
JEOL JMS-D-300

>  <ION MODE>  (1408) 
P

>  <INCHIKEY>  (1408) 
JBCMUNOVVMEKMO-UHFFFAOYSA-N

>  <FORMULA>  (1408) 
C7H13NO

>  <EXACT MASS>  (1408) 
127.099714036

>  <MW>  (1408) 
127

>  <ID>  (1408) 
JP010015

>  <CONTRIBUTOR>  (1408) 
University of Tokyo Team, {Faculty of Engineering, University of Tokyo

>  <COMMENT>  (1408) 
SMILES=CC(C1)CC(=O)N(C)C1
InChI=InChI=1S/C7H13NO/c1-6-3-4-8(2)7(9)5-6/h6H,3-5H2,1-2H3
computed SMILES=O=C1N(C)CCC(C)C1
accession=JP010015
date=2016.01.19 (Created 2008.10.21, modified 2011.05.06)
author=KURARAY CO., LTD.
license=CC BY-NC-SA
exact mass=127.09971
ionization energy=70 eV
ion type=[M]+*
computed spectral entropy=2.4798166130517996
computed normalized entropy=0.7524087853468844
SPLASH=splash10-002f-9300000000-0aa70b84a47db7a3826d
submitter=submitter = University of Tokyo Team (Faculty of Engineering, University of Tokyo)
MoNA Rating=3.75

>  <NUM PEAKS>  (1408) 
27

>  <MASS SPECTRAL PEAKS>  (1408) 
27 7.6
28 5.4
29 6.2
30 0.26
32 1.4
39 8.6
41 18.6
42 3.66
43 20.5
44 99.99
45 4
55 1.1
56 22
57 23.4
58 5.5
69 2.23
70 2.3
71 10.4
72 4.4
84 1.08
85 6.4
98 1.9
99 2.9
112 0.28
126 20.6
127 66
128 5.2

$$$$

     RDKit          2D

  9  8  0  0  0  0  0  0  0  0999 V2000
    2.5981    4.5000    0.0000 C   0  0  0  0  0  0  0  0  0  0  0  0
    1.2990    5.2500    0.0000 C   0  0  0  0  0  0  0  0  0  0  0  0
    0.0000    4.5000    0.0000 C   0  0  0  0  0  0  0  0  0  0  0  0
   -1.2990    5.2500    0.0000 C   0  0  0  0  0  0  0  0  0  0  0  0
   -2.5981    4.5000    0.0000 C   0  0  0  0  0  0  0  0  0  0  0  0
   -3.8971    5.2500    0.0000 C   0  0  0  0  0  0  0  0  0  0  0  0
   -5.1962    4.5000    0.0000 C   0  0  0  0  0  0  0  0  0  0  0  0
   -6.4952    5.2500    0.0000 C   0  0  0  0  0  0  0  0  0  0  0  0
   -7.7942    4.5000    0.0000 O   0  0  0  0  0  0  0  0  0  0  0  0
  2  1  2  0
  3  2  1  0
  4  3  1  0
  5  4  1  0
  6  5  1  0
  6  7  2  0
  8  7  1  0
  9  8  1  0
M  END
>  <NAME>  (1409) 
2,7-OCTADIEN-1-OL

>  <SYNONYMS>  (1409) 


>  <SPECTRUM TYPE>  (1409) 
MS1

>  <INSTRUMENT TYPE>  (1409) 
EI-B

>  <INSTRUMENT>  (1409) 
JEOL JMS-D-300

>  <ION MODE>  (1409) 
P

>  <INCHIKEY>  (1409) 
YHYGSIBXYYKYFB-VOTSOKGWSA-N

>  <FORMULA>  (1409) 
C8H14O

>  <EXACT MASS>  (1409) 
126.104465068

>  <MW>  (1409) 
126

>  <ID>  (1409) 
JP010014

>  <CONTRIBUTOR>  (1409) 
University of Tokyo Team, {Faculty of Engineering, University of Tokyo

>  <COMMENT>  (1409) 
SMILES=C=CCCCC=CCO
InChI=InChI=1S/C8H14O/c1-2-3-4-5-6-7-8-9/h2,6-7,9H,1,3-5,8H2/b7-6+
computed SMILES=OCC=CCCCC=C
accession=JP010014
date=2016.01.19 (Created 2008.10.21, modified 2011.05.06)
author=KURARAY CO., LTD.
license=CC BY-NC-SA
exact mass=126.10447
ionization energy=70 eV
ion type=[M]+*
computed spectral entropy=3.199048861177707
computed normalized entropy=0.8355571937636334
SPLASH=splash10-0kdl-9000000000-195fda73d3622ae98163
submitter=submitter = University of Tokyo Team (Faculty of Engineering, University of Tokyo)
MoNA Rating=3.75

>  <NUM PEAKS>  (1409) 
46

>  <MASS SPECTRAL PEAKS>  (1409) 
26 2.3
27 45.3
29 58.9
31 2.23
38 2.3
39 55.8
40 2.9
41 9.35
42 19.5
43 38.2
44 10.4
45 0.27
50 2.3
51 5.8
52 2.9
53 2.4
54 78.2
55 99.99
56 24.4
57 8
58 6.5
65 6.5
66 9.1
67 8.86
68 21.1
69 16.7
70 24.5
71 0.97
77 7.3
78 5.2
79 41.2
80 2.59
81 12.9
82 23.8
83 34.7
84 3.43
85 3.1
91 4.9
93 36.1
94 0.38
95 25.8
96 2.4
97 5.3
98 0.31
108 8.4
109 1.9

$$$$

     RDKit          2D

  9  8  0  0  0  0  0  0  0  0999 V2000
   -6.4952    4.5000    0.0000 C   0  0  0  0  0  0  0  0  0  0  0  0
    2.5981    3.7500    0.0000 C   0  0  0  0  0  0  0  0  0  0  0  0
   -3.8971    6.0000    0.0000 C   0  0  0  0  0  0  0  0  0  0  0  0
   -5.1962    3.7500    0.0000 C   0  0  0  0  0  0  0  0  0  0  0  0
    1.2990    4.5000    0.0000 C   0  0  0  0  0  0  0  0  0  0  0  0
   -2.5981    3.7500    0.0000 C   0  0  0  0  0  0  0  0  0  0  0  0
   -1.2990    4.5000    0.0000 C   0  0  0  0  0  0  0  0  0  0  0  0
   -3.8971    4.5000    0.0000 C   0  0  0  0  0  0  0  0  0  0  0  0
    0.0000    3.7500    0.0000 O   0  0  0  0  0  0  0  0  0  0  0  0
  4  1  2  0
  5  2  1  0
  7  6  1  0
  8  3  1  0
  8  4  1  0
  6  8  2  0
  9  5  1  0
  9  7  1  0
M  END
>  <NAME>  (1410) 
5-ETHOXY-3-METHYL-1,3-PENTADIENE

>  <SYNONYMS>  (1410) 
2,4-PENTADIENE-3-METHYL-1-ETHOXY

>  <SPECTRUM TYPE>  (1410) 
MS1

>  <INSTRUMENT TYPE>  (1410) 
EI-B

>  <INSTRUMENT>  (1410) 
JEOL JMS-D-300

>  <ION MODE>  (1410) 
P

>  <INCHIKEY>  (1410) 
KNRWANBXKZWMCQ-SOFGYWHQSA-N

>  <FORMULA>  (1410) 
C8H14O

>  <EXACT MASS>  (1410) 
126.104465068

>  <MW>  (1410) 
126

>  <ID>  (1410) 
JP010013

>  <CONTRIBUTOR>  (1410) 
University of Tokyo Team, {Faculty of Engineering, University of Tokyo

>  <COMMENT>  (1410) 
SMILES=CCOCC=C(C)C=C
InChI=InChI=1S/C8H14O/c1-4-8(3)6-7-9-5-2/h4,6H,1,5,7H2,2-3H3/b8-6+
computed SMILES=O(CC=C(C=C)C)CC
accession=JP010013
date=2016.01.19 (Created 2008.10.21, modified 2011.05.06)
author=KURARAY CO., LTD.
license=CC BY-NC-SA
exact mass=126.10447
ionization energy=70 eV
ion type=[M]+*
computed spectral entropy=2.2424005603571056
computed normalized entropy=0.6659351222984506
SPLASH=splash10-014j-9000000000-d1002d58470720595405
submitter=submitter = University of Tokyo Team (Faculty of Engineering, University of Tokyo)
MoNA Rating=3.75

>  <NUM PEAKS>  (1410) 
29

>  <MASS SPECTRAL PEAKS>  (1410) 
27 8.9
28 1.3
29 3.4
39 0.95
40 2.1
41 13.9
42 3.1
43 1.54
44 1.1
45 54
46 1.1
50 0.11
51 2.6
53 9.6
54 7.8
55 0.91
56 1
57 1.2
65 3.5
66 0.25
67 99.99
68 5.9
72 1
77 0.3
79 8.3
80 1.9
81 18.4
82 7.27
83 5.5

$$$$

     RDKit          2D

  9  9  0  0  0  0  0  0  0  0999 V2000
   -2.7865   -1.4800    0.0000 C   0  0  0  0  0  0  0  0  0  0  0  0
   -1.9070    0.4285    0.0000 C   0  0  0  0  0  0  0  0  0  0  0  0
   -1.2865   -1.4800    0.0000 C   0  0  0  0  0  0  0  0  0  0  0  0
    1.4235    1.2390    0.0000 C   0  0  0  0  0  0  0  0  0  0  0  0
   -0.0765    1.2390    0.0000 C   0  0  0  0  0  0  0  0  0  0  0  0
    1.8835   -0.1810    0.0000 C   0  0  0  0  0  0  0  0  0  0  0  0
   -0.5365   -0.1810    0.0000 C   0  0  0  0  0  0  0  0  0  0  0  0
    3.3100   -0.6448    0.0000 O   0  0  0  0  0  0  0  0  0  0  0  0
    0.6735   -1.0610    0.0000 O   0  0  0  0  0  0  0  0  0  0  0  0
  3  1  2  0
  5  4  1  0
  6  4  1  0
  7  2  1  0
  7  3  1  0
  7  5  1  0
  8  6  2  0
  9  6  1  0
  9  7  1  0
M  END
>  <NAME>  (1411) 
5-METHYL-5-VINYLTETRAHYDRO-2-FURANONE

>  <SYNONYMS>  (1411) 
2-FURANONE-3,4-DIHYDRO-5-METHYL-5-VINYL

>  <SPECTRUM TYPE>  (1411) 
MS1

>  <INSTRUMENT TYPE>  (1411) 
EI-B

>  <INSTRUMENT>  (1411) 
JEOL JMS-D-300

>  <ION MODE>  (1411) 
P

>  <INCHIKEY>  (1411) 
QESPSAHXYXIGBG-UHFFFAOYSA-N

>  <FORMULA>  (1411) 
C7H10O2

>  <EXACT MASS>  (1411) 
126.06807956

>  <MW>  (1411) 
126

>  <ID>  (1411) 
JP010012

>  <CONTRIBUTOR>  (1411) 
University of Tokyo Team, {Faculty of Engineering, University of Tokyo

>  <COMMENT>  (1411) 
SMILES=C=CC(C)(C1)OC(=O)C1
InChI=InChI=1S/C7H10O2/c1-3-7(2)5-4-6(8)9-7/h3H,1,4-5H2,2H3
computed SMILES=O=C1OC(C=C)(C)CC1
accession=JP010012
date=2016.01.19 (Created 2008.10.21, modified 2011.05.06)
author=KURARAY CO., LTD.
license=CC BY-NC-SA
exact mass=126.06808
ionization energy=70 eV
ion type=[M]+*
computed spectral entropy=2.8439917897570393
computed normalized entropy=0.770963601585122
SPLASH=splash10-0bvl-9200000000-288aefec213df99a77a2
submitter=submitter = University of Tokyo Team (Faculty of Engineering, University of Tokyo)
MoNA Rating=3.75

>  <NUM PEAKS>  (1411) 
40

>  <MASS SPECTRAL PEAKS>  (1411) 
26 5.5
27 30.9
28 38.1
29 0.51
32 2.5
38 1.8
39 16.6
40 0.26
41 17.6
42 8.6
43 55
44 0.19
50 3.1
51 4.5
52 2.3
53 0.75
54 4.9
55 67.9
56 38
57 0.18
65 3.5
66 1.2
67 36.5
68 0.27
69 2.1
70 3.4
71 47.4
72 0.21
79 1.8
81 4.7
82 2.5
83 2.01
84 4.5
98 23.2
99 28.2
100 0.16
111 99.99
112 6.9
126 14.9
127 1.8

$$$$

     RDKit          2D

  7  7  0  0  0  0  0  0  0  0999 V2000
   -1.1071    0.8238    0.0000 C   0  0  0  0  0  0  0  0  0  0  0  0
   -1.8571   -0.4752    0.0000 C   0  0  0  0  0  0  0  0  0  0  0  0
    0.3527    0.5122    0.0000 C   0  0  0  0  0  0  0  0  0  0  0  0
   -0.8573   -1.5836    0.0000 C   0  0  0  0  0  0  0  0  0  0  0  0
    0.9792   -2.4082    0.0000 O   0  0  0  0  0  0  0  0  0  0  0  0
    1.9850   -0.6660    0.0000 O   0  0  0  0  0  0  0  0  0  0  0  0
    0.5184   -0.9807    0.0000 S   0  0  0  0  0  0  0  0  0  0  0  0
  2  1  1  0
  3  1  1  0
  4  2  1  0
  7  3  1  0
  7  4  1  0
  7  5  2  0
  7  6  2  0
M  END
>  <NAME>  (1412) 
SULFOLANE

>  <SYNONYMS>  (1412) 
TETRAHYDROTHIOPHENE 1,1-DIOXIDE

>  <SPECTRUM TYPE>  (1412) 
MS1

>  <INSTRUMENT TYPE>  (1412) 
EI-B

>  <INSTRUMENT>  (1412) 
JEOL JMS-D-300

>  <ION MODE>  (1412) 
P

>  <INCHIKEY>  (1412) 
HXJUTPCZVOIRIF-UHFFFAOYSA-N

>  <FORMULA>  (1412) 
C4H8O2S

>  <EXACT MASS>  (1412) 
120.024500496

>  <MW>  (1412) 
120

>  <ID>  (1412) 
JP010011

>  <CONTRIBUTOR>  (1412) 
University of Tokyo Team, {Faculty of Engineering, University of Tokyo

>  <COMMENT>  (1412) 
SMILES=O=S(=O)(C1)CCC1
InChI=InChI=1S/C4H8O2S/c5-7(6)3-1-2-4-7/h1-4H2
computed SMILES=O=S1(=O)CCCC1
ionization energy=70 eV
accession=JP010011
date=2016.01.19 (Created 2008.10.21, modified 2011.05.06)
author=KURARAY CO., LTD.
license=CC BY-NC-SA
exact mass=120.0245
ion type=[M]+*
computed spectral entropy=2.0036854559929997
computed normalized entropy=0.7072130519914857
SPLASH=splash10-05bf-9100000000-da096f8b6dee71e3b48a
submitter=submitter = University of Tokyo Team (Faculty of Engineering, University of Tokyo)
MoNA Rating=3.75

>  <NUM PEAKS>  (1412) 
17

>  <MASS SPECTRAL PEAKS>  (1412) 
26 5.5
27 18.1
28 46.8
29 1.25
39 16.1
40 4.7
41 99.99
42 0.42
43 3.6
48 3.5
53 3.2
55 8.67
56 90.6
57 5.4
120 54.2
121 0.31
122 2.5

$$$$

     RDKit          2D

  8  7  0  0  0  0  0  0  0  0999 V2000
   -1.9486    5.6250    0.0000 C   0  0  0  0  0  0  0  0  0  0  0  0
   -0.6495    3.3750    0.0000 C   0  0  0  0  0  0  0  0  0  0  0  0
   -3.2476    3.3750    0.0000 C   0  0  0  0  0  0  0  0  0  0  0  0
    0.6495    4.1250    0.0000 C   0  0  0  0  0  0  0  0  0  0  0  0
   -4.5466    4.1250    0.0000 C   0  0  0  0  0  0  0  0  0  0  0  0
   -1.9486    4.1250    0.0000 N   0  0  0  0  0  0  0  0  0  0  0  0
    1.9486    3.3750    0.0000 O   0  0  0  0  0  0  0  0  0  0  0  0
   -5.8457    3.3750    0.0000 O   0  0  0  0  0  0  0  0  0  0  0  0
  4  2  1  0
  5  3  1  0
  6  1  1  0
  6  2  1  0
  6  3  1  0
  7  4  1  0
  8  5  1  0
M  END
>  <NAME>  (1413) 
2,2'-METHYLIMINODIETHANOL

>  <SYNONYMS>  (1413) 
METHYL-DIETHANOLAMINE

>  <SPECTRUM TYPE>  (1413) 
MS1

>  <INSTRUMENT TYPE>  (1413) 
EI-B

>  <INSTRUMENT>  (1413) 
JEOL JMS-D-300

>  <ION MODE>  (1413) 
P

>  <INCHIKEY>  (1413) 
CRVGTESFCCXCTH-UHFFFAOYSA-N

>  <FORMULA>  (1413) 
C5H13NO2

>  <EXACT MASS>  (1413) 
119.094628656

>  <MW>  (1413) 
119

>  <ID>  (1413) 
JP010010

>  <CONTRIBUTOR>  (1413) 
University of Tokyo Team, {Faculty of Engineering, University of Tokyo

>  <COMMENT>  (1413) 
SMILES=OCCN(C)CCO
InChI=InChI=1S/C5H13NO2/c1-6(2-4-7)3-5-8/h7-8H,2-5H2,1H3
computed SMILES=OCCN(C)CCO
accession=JP010010
date=2016.01.19 (Created 2008.10.21, modified 2011.05.06)
author=KURARAY CO., LTD.
license=CC BY-NC-SA
exact mass=119.09463
ionization energy=70 eV
ion type=[M]+*
computed spectral entropy=1.9105112181547994
computed normalized entropy=0.6377443121405044
SPLASH=splash10-000l-9000000000-e5123d6a820b44f48b01
submitter=submitter = University of Tokyo Team (Faculty of Engineering, University of Tokyo)
MoNA Rating=3.75

>  <NUM PEAKS>  (1413) 
20

>  <MASS SPECTRAL PEAKS>  (1413) 
27 4
28 1.5
29 3.1
30 0.22
31 2.5
41 2.4
42 16
43 0.65
44 75.6
45 29
56 4.9
57 0.34
58 6.4
70 2.9
74 4.2
87 0.82
88 99.99
89 8.8
119 3.4
130 4.4

$$$$

     RDKit          2D

  8  7  0  0  0  0  0  0  0  0999 V2000
    1.2990    2.2500    0.0000 C   0  0  0  0  0  0  0  0  0  0  0  0
    0.0000    4.5000    0.0000 C   0  0  0  0  0  0  0  0  0  0  0  0
   -2.5981    3.0000    0.0000 C   0  0  0  0  0  0  0  0  0  0  0  0
   -1.2990    0.7500    0.0000 C   0  0  0  0  0  0  0  0  0  0  0  0
    0.0000    3.0000    0.0000 C   0  0  0  0  0  0  0  0  0  0  0  0
   -1.2990    2.2500    0.0000 C   0  0  0  0  0  0  0  0  0  0  0  0
   -3.8971    2.2500    0.0000 O   0  0  0  0  0  0  0  0  0  0  0  0
   -2.5981    0.0000    0.0000 O   0  0  0  0  0  0  0  0  0  0  0  0
  5  1  1  0
  5  2  1  0
  6  3  1  0
  6  4  1  0
  6  5  1  0
  7  3  1  0
  8  4  1  0
M  END
>  <NAME>  (1414) 
2-ISOPROPYL-1,3-PROPANEDIOL

>  <SYNONYMS>  (1414) 


>  <SPECTRUM TYPE>  (1414) 
MS1

>  <INSTRUMENT TYPE>  (1414) 
EI-B

>  <INSTRUMENT>  (1414) 
JEOL JMS-D-300

>  <ION MODE>  (1414) 
P

>  <INCHIKEY>  (1414) 
VVOISBSEMFDYNE-UHFFFAOYSA-N

>  <FORMULA>  (1414) 
C6H14O2

>  <EXACT MASS>  (1414) 
118.099379688

>  <MW>  (1414) 
118

>  <ID>  (1414) 
JP010009

>  <CONTRIBUTOR>  (1414) 
University of Tokyo Team, {Faculty of Engineering, University of Tokyo

>  <COMMENT>  (1414) 
SMILES=OCC(CO)C(C)C
InChI=InChI=1S/C6H14O2/c1-5(2)6(3-7)4-8/h5-8H,3-4H2,1-2H3
computed SMILES=OCC(CO)C(C)C
accession=JP010009
date=2016.01.19 (Created 2008.10.21, modified 2011.05.06)
author=KURARAY CO., LTD.
license=CC BY-NC-SA
exact mass=118.09938
ionization energy=70 eV
ion type=[M]+*
computed spectral entropy=2.7116989571520635
computed normalized entropy=0.7689795011663555
SPLASH=splash10-05dl-9000000000-9170ab1076182407d677
submitter=submitter = University of Tokyo Team (Faculty of Engineering, University of Tokyo)
MoNA Rating=3.75

>  <NUM PEAKS>  (1414) 
34

>  <MASS SPECTRAL PEAKS>  (1414) 
27 11
28 89.6
29 17.2
30 0.31
31 2.1
32 27.3
40 3.4
41 4.55
42 25.6
43 50.2
44 9
45 1.99
54 3.4
55 66.1
56 15.6
57 4.97
58 16.8
59 6.2
61 3.5
67 1.01
68 2.9
69 38.3
70 99.99
71 1.61
72 3.1
73 2.9
81 2.7
82 0.86
83 6.3
85 10.5
87 2.5
98 0.28
99 12
100 1.8

$$$$

     RDKit          2D

  8  7  0  0  0  0  0  0  0  0999 V2000
   -1.9486    5.6250    0.0000 C   0  0  0  0  0  0  0  0  0  0  0  0
   -0.6495    3.3750    0.0000 C   0  0  0  0  0  0  0  0  0  0  0  0
   -3.2476    3.3750    0.0000 C   0  0  0  0  0  0  0  0  0  0  0  0
    0.6495    4.1250    0.0000 C   0  0  0  0  0  0  0  0  0  0  0  0
   -4.5466    4.1250    0.0000 C   0  0  0  0  0  0  0  0  0  0  0  0
   -1.9486    4.1250    0.0000 C   0  0  0  0  0  0  0  0  0  0  0  0
    1.9486    3.3750    0.0000 O   0  0  0  0  0  0  0  0  0  0  0  0
   -5.8457    3.3750    0.0000 O   0  0  0  0  0  0  0  0  0  0  0  0
  4  2  1  0
  5  3  1  0
  6  1  1  0
  6  2  1  0
  6  3  1  0
  7  4  1  0
  8  5  1  0
M  END
>  <NAME>  (1415) 
3-METHYL-1,5-PENTANEDIOL

>  <SYNONYMS>  (1415) 


>  <SPECTRUM TYPE>  (1415) 
MS1

>  <INSTRUMENT TYPE>  (1415) 
EI-B

>  <INSTRUMENT>  (1415) 
JEOL JMS-D-300

>  <ION MODE>  (1415) 
P

>  <INCHIKEY>  (1415) 
SXFJDZNJHVPHPH-UHFFFAOYSA-N

>  <FORMULA>  (1415) 
C6H14O2

>  <EXACT MASS>  (1415) 
118.099379688

>  <MW>  (1415) 
118

>  <ID>  (1415) 
JP010008

>  <CONTRIBUTOR>  (1415) 
University of Tokyo Team, {Faculty of Engineering, University of Tokyo

>  <COMMENT>  (1415) 
SMILES=OCCC(C)CCO
InChI=InChI=1S/C6H14O2/c1-6(2-4-7)3-5-8/h6-8H,2-5H2,1H3
computed SMILES=OCCC(C)CCO
accession=JP010008
date=2016.01.19 (Created 2008.10.21, modified 2011.05.06)
author=KURARAY CO., LTD.
license=CC BY-NC-SA
exact mass=118.09938
ionization energy=70 eV
ion type=[M]+*
computed spectral entropy=2.9661858027855232
computed normalized entropy=0.7621589836060844
SPLASH=splash10-05tf-9000000000-b2427381bc04f2d896a5
submitter=submitter = University of Tokyo Team (Faculty of Engineering, University of Tokyo)
MoNA Rating=3.75

>  <NUM PEAKS>  (1415) 
49

>  <MASS SPECTRAL PEAKS>  (1415) 
26 1.8
27 22.6
28 23.1
29 3.4
30 2.6
31 64.5
32 1.4
38 0.1
39 19.1
40 3.9
41 88.1
42 6.72
43 66.3
44 22.2
45 30.6
46 0.42
47 2.2
49 3.2
51 1.2
53 0.78
54 13.4
55 98
56 52.6
57 5.03
58 12.1
59 3.4
60 1.2
61 0.29
66 1
67 99.99
68 9.1
69 5.52
70 87.3
71 45.5
72 7.3
73 1.14
74 1.3
75 1.2
81 10.1
82 3.97
83 7.5
85 2.8
87 5.6
88 0.51
89 3.4
99 3.1
101 2.3
103 0.1
115 1.8

$$$$

     RDKit          2D

  8  7  0  0  0  0  0  0  0  0999 V2000
    1.9486    2.6250    0.0000 C   0  0  0  0  0  0  0  0  0  0  0  0
    0.6495    0.3750    0.0000 C   0  0  0  0  0  0  0  0  0  0  0  0
    0.6495    3.3750    0.0000 C   0  0  0  0  0  0  0  0  0  0  0  0
   -0.6495    1.1250    0.0000 C   0  0  0  0  0  0  0  0  0  0  0  0
   -1.9486    3.3750    0.0000 C   0  0  0  0  0  0  0  0  0  0  0  0
   -3.2476    2.6250    0.0000 C   0  0  0  0  0  0  0  0  0  0  0  0
   -0.6495    2.6250    0.0000 N   0  0  0  0  0  0  0  0  0  0  0  0
   -4.5466    3.3750    0.0000 O   0  0  0  0  0  0  0  0  0  0  0  0
  3  1  1  0
  4  2  1  0
  6  5  1  0
  7  3  1  0
  7  4  1  0
  7  5  1  0
  8  6  1  0
M  END
>  <NAME>  (1416) 
2-DIETHYLAMINOETHANOL

>  <SYNONYMS>  (1416) 


>  <SPECTRUM TYPE>  (1416) 
MS1

>  <INSTRUMENT TYPE>  (1416) 
EI-B

>  <INSTRUMENT>  (1416) 
JEOL JMS-D-300

>  <ION MODE>  (1416) 
P

>  <INCHIKEY>  (1416) 
BFSVOASYOCHEOV-UHFFFAOYSA-N

>  <FORMULA>  (1416) 
C6H15NO

>  <EXACT MASS>  (1416) 
117.1153641

>  <MW>  (1416) 
117

>  <ID>  (1416) 
JP010007

>  <CONTRIBUTOR>  (1416) 
University of Tokyo Team, {Faculty of Engineering, University of Tokyo

>  <COMMENT>  (1416) 
SMILES=OCCN(CC)CC
InChI=InChI=1S/C6H15NO/c1-3-7(4-2)5-6-8/h8H,3-6H2,1-2H3
computed SMILES=OCCN(CC)CC
accession=JP010007
date=2016.01.19 (Created 2008.10.21, modified 2011.05.06)
author=KURARAY CO., LTD.
license=CC BY-NC-SA
exact mass=117.11536
ionization energy=70 eV
ion type=[M]+*
computed spectral entropy=1.6886849418213516
computed normalized entropy=0.7042363196498725
SPLASH=splash10-000i-9000000000-419afeeab276c9a36e30
submitter=submitter = University of Tokyo Team (Faculty of Engineering, University of Tokyo)
MoNA Rating=3.75

>  <NUM PEAKS>  (1416) 
11

>  <MASS SPECTRAL PEAKS>  (1416) 
27 6.8
29 7.6
30 12.9
42 1.21
44 5.1
56 9.7
58 31.8
86 99.99
87 7
102 9.4
117 4.7

$$$$

     RDKit          2D

  8  7  0  0  0  0  0  0  0  0999 V2000
   -1.9486    5.6250    0.0000 C   0  0  0  0  0  0  0  0  0  0  0  0
   -0.6495    3.3750    0.0000 C   0  0  0  0  0  0  0  0  0  0  0  0
   -3.2476    3.3750    0.0000 C   0  0  0  0  0  0  0  0  0  0  0  0
    0.6495    4.1250    0.0000 C   0  0  0  0  0  0  0  0  0  0  0  0
   -4.5466    4.1250    0.0000 C   0  0  0  0  0  0  0  0  0  0  0  0
   -1.9486    4.1250    0.0000 C   0  0  0  0  0  0  0  0  0  0  0  0
    1.9486    3.3750    0.0000 N   0  0  0  0  0  0  0  0  0  0  0  0
   -5.8457    3.3750    0.0000 N   0  0  0  0  0  0  0  0  0  0  0  0
  4  2  1  0
  5  3  1  0
  6  1  1  0
  6  2  1  0
  6  3  1  0
  7  4  1  0
  8  5  1  0
M  END
>  <NAME>  (1417) 
3-METHYL-1,5-PENTANEDIAMINE

>  <SYNONYMS>  (1417) 


>  <SPECTRUM TYPE>  (1417) 
MS1

>  <INSTRUMENT TYPE>  (1417) 
EI-B

>  <INSTRUMENT>  (1417) 
JEOL JMS-D-300

>  <ION MODE>  (1417) 
P

>  <INCHIKEY>  (1417) 
FJSUFIIJYXMJQO-UHFFFAOYSA-N

>  <FORMULA>  (1417) 
C6H16N2

>  <EXACT MASS>  (1417) 
116.131348512

>  <MW>  (1417) 
116

>  <ID>  (1417) 
JP010006

>  <CONTRIBUTOR>  (1417) 
University of Tokyo Team, {Faculty of Engineering, University of Tokyo

>  <COMMENT>  (1417) 
SMILES=NCCC(C)CCN
InChI=InChI=1S/C6H16N2/c1-6(2-4-7)3-5-8/h6H,2-5,7-8H2,1H3
computed SMILES=NCCC(C)CCN
accession=JP010006
date=2016.01.19 (Created 2008.10.21, modified 2011.05.06)
author=KURARAY CO., LTD.
license=CC BY-NC-SA
exact mass=116.13135
ionization energy=70 eV
ion type=[M]+*
computed spectral entropy=2.3751070670952408
computed normalized entropy=0.7206385399695693
SPLASH=splash10-001i-9000000000-0d97800d493b220b5dec
submitter=submitter = University of Tokyo Team (Faculty of Engineering, University of Tokyo)
MoNA Rating=3.75

>  <NUM PEAKS>  (1417) 
27

>  <MASS SPECTRAL PEAKS>  (1417) 
27 6.1
28 3.6
29 4.7
30 99.99
31 5.2
39 4.7
41 9.5
42 1.03
43 15.5
44 8.7
45 12.1
55 1.36
56 38.1
57 4.2
67 3.5
70 3.08
71 2.3
72 2.3
73 5.3
82 0.24
84 4.4
86 3.7
87 3.4
97 0.31
98 2.5
99 7.9
100 3

$$$$

     RDKit          2D

  8  8  0  0  0  0  0  0  0  0999 V2000
   -1.3146    2.4468    0.0000 C   0  0  0  0  0  0  0  0  0  0  0  0
    0.4981    1.7881    0.0000 C   0  0  0  0  0  0  0  0  0  0  0  0
   -0.8019   -0.4635    0.0000 C   0  0  0  0  0  0  0  0  0  0  0  0
    1.7971    1.0381    0.0000 C   0  0  0  0  0  0  0  0  0  0  0  0
    0.4971   -1.2135    0.0000 C   0  0  0  0  0  0  0  0  0  0  0  0
   -0.8014    1.0373    0.0000 C   0  0  0  0  0  0  0  0  0  0  0  0
   -2.2787    0.7770    0.0000 O   0  0  0  0  0  0  0  0  0  0  0  0
    1.7966   -0.4627    0.0000 O   0  0  0  0  0  0  0  0  0  0  0  0
  4  2  1  0
  5  3  1  0
  6  1  1  0
  6  2  1  0
  6  3  1  0
  7  6  1  0
  8  4  1  0
  8  5  1  0
M  END
>  <NAME>  (1418) 
4-METHYLTETRAHYDROPYRAN-4-OL

>  <SYNONYMS>  (1418) 


>  <SPECTRUM TYPE>  (1418) 
MS1

>  <INSTRUMENT TYPE>  (1418) 
EI-B

>  <INSTRUMENT>  (1418) 
JEOL JMS-D-300

>  <ION MODE>  (1418) 
P

>  <INCHIKEY>  (1418) 
DCUYGCJQVJXUHU-UHFFFAOYSA-N

>  <FORMULA>  (1418) 
C6H12O2

>  <EXACT MASS>  (1418) 
116.083729624

>  <MW>  (1418) 
116

>  <ID>  (1418) 
JP010005

>  <CONTRIBUTOR>  (1418) 
University of Tokyo Team, {Faculty of Engineering, University of Tokyo

>  <COMMENT>  (1418) 
SMILES=CC(O)(C1)CCOC1
InChI=InChI=1S/C6H12O2/c1-6(7)2-4-8-5-3-6/h7H,2-5H2,1H3
computed SMILES=OC1(C)CCOCC1
accession=JP010005
date=2016.01.19 (Created 2008.10.21, modified 2011.05.06)
author=KURARAY CO., LTD.
license=CC BY-NC-SA
exact mass=116.08373
ionization energy=70 eV
ion type=[M]+*
computed spectral entropy=2.8646275272993975
computed normalized entropy=0.7875078146643463
SPLASH=splash10-006x-9000000000-216870e5e6ea68b74072
submitter=submitter = University of Tokyo Team (Faculty of Engineering, University of Tokyo)
MoNA Rating=3.75

>  <NUM PEAKS>  (1418) 
38

>  <MASS SPECTRAL PEAKS>  (1418) 
26 1.3
27 8.4
28 13.4
29 1
30 2.7
31 10
39 5.8
40 0.16
41 14.3
42 7.8
43 99.99
44 0.49
45 8.2
53 10.3
55 13.8
56 0.45
57 7.8
58 35.9
59 4.2
60 0.13
61 35.6
67 2.9
68 2.3
69 0.64
70 33.4
71 29.5
72 15.9
73 1.81
81 1.3
83 25.3
84 1.3
87 0.95
88 9.6
89 1.3
97 1.2
98 3.05
99 2.6
101 16.6

$$$$

     RDKit          2D

  8  7  0  0  0  0  0  0  0  0999 V2000
    1.9040    2.7022    0.0000 C   0  0  0  0  0  0  0  0  0  0  0  0
   -4.5912    3.4522    0.0000 C   0  0  0  0  0  0  0  0  0  0  0  0
   -1.6582    1.5531    0.0000 C   0  0  0  0  0  0  0  0  0  0  0  0
    0.2701    1.5531    0.0000 C   0  0  0  0  0  0  0  0  0  0  0  0
    0.6050    3.4522    0.0000 C   0  0  0  0  0  0  0  0  0  0  0  0
   -3.2921    2.7022    0.0000 C   0  0  0  0  0  0  0  0  0  0  0  0
   -0.6941    2.7022    0.0000 C   0  0  0  0  0  0  0  0  0  0  0  0
   -1.9931    3.4522    0.0000 O   0  0  0  0  0  0  0  0  0  0  0  0
  5  1  2  0
  6  2  1  0
  7  3  1  0
  7  4  1  0
  7  5  1  0
  8  6  1  0
  8  7  1  0
M  END
>  <NAME>  (1419) 
3-ETHOXY-3-METHYL-1-BUTENE

>  <SYNONYMS>  (1419) 


>  <SPECTRUM TYPE>  (1419) 
MS1

>  <INSTRUMENT TYPE>  (1419) 
EI-B

>  <INSTRUMENT>  (1419) 
JEOL JMS-D-300

>  <ION MODE>  (1419) 
P

>  <INCHIKEY>  (1419) 
ZZKVKKJYPYTFHL-UHFFFAOYSA-N

>  <FORMULA>  (1419) 
C7H14O

>  <EXACT MASS>  (1419) 
114.104465068

>  <MW>  (1419) 
114

>  <ID>  (1419) 
JP010004

>  <CONTRIBUTOR>  (1419) 
University of Tokyo Team, {Faculty of Engineering, University of Tokyo

>  <COMMENT>  (1419) 
SMILES=CCOC(C)(C)C=C
InChI=InChI=1S/C7H14O/c1-5-7(3,4)8-6-2/h5H,1,6H2,2-4H3
computed SMILES=O(CC)C(C=C)(C)C
accession=JP010004
date=2016.01.19 (Created 2008.10.21, modified 2011.05.06)
author=KURARAY CO., LTD.
license=CC BY-NC-SA
exact mass=114.10447
ionization energy=70 eV
ion type=[M]+*
computed spectral entropy=2.379633090677428
computed normalized entropy=0.7220117947046176
SPLASH=splash10-00r7-9000000000-31aa35ffecfab515c6dd
submitter=submitter = University of Tokyo Team (Faculty of Engineering, University of Tokyo)
MoNA Rating=3.75

>  <NUM PEAKS>  (1419) 
27

>  <MASS SPECTRAL PEAKS>  (1419) 
26 1.9
27 19.5
29 15.5
31 0.78
39 13
40 3.2
41 69.4
42 0.65
43 45.7
44 2.3
45 3.6
51 0.17
53 9.4
55 7.2
58 3.1
59 5.08
67 6.8
68 3.7
69 84.4
70 0.64
71 99.99
72 5.8
86 6
87 1.35
99 94.2
100 6.5
114 2.3

$$$$

     RDKit          2D

  8  7  0  0  0  0  0  0  0  0999 V2000
    1.9486    3.3750    0.0000 C   0  0  0  0  0  0  0  0  0  0  0  0
   -5.8457    3.3750    0.0000 C   0  0  0  0  0  0  0  0  0  0  0  0
   -4.5466    5.6250    0.0000 C   0  0  0  0  0  0  0  0  0  0  0  0
    0.6495    4.1250    0.0000 C   0  0  0  0  0  0  0  0  0  0  0  0
   -3.2476    3.3750    0.0000 C   0  0  0  0  0  0  0  0  0  0  0  0
   -1.9486    4.1250    0.0000 C   0  0  0  0  0  0  0  0  0  0  0  0
   -4.5466    4.1250    0.0000 C   0  0  0  0  0  0  0  0  0  0  0  0
   -0.6495    3.3750    0.0000 O   0  0  0  0  0  0  0  0  0  0  0  0
  4  1  1  0
  6  5  1  0
  7  2  1  0
  7  3  1  0
  7  5  2  0
  8  4  1  0
  8  6  1  0
M  END
>  <NAME>  (1420) 
1-ETHOXY-3-METHYL-2-BUTENE

>  <SYNONYMS>  (1420) 


>  <SPECTRUM TYPE>  (1420) 
MS1

>  <INSTRUMENT TYPE>  (1420) 
EI-B

>  <INSTRUMENT>  (1420) 
JEOL JMS-D-300

>  <ION MODE>  (1420) 
P

>  <INCHIKEY>  (1420) 
HPMSQLYFMOOLKS-UHFFFAOYSA-N

>  <FORMULA>  (1420) 
C7H14O

>  <EXACT MASS>  (1420) 
114.104465068

>  <MW>  (1420) 
114

>  <ID>  (1420) 
JP010003

>  <CONTRIBUTOR>  (1420) 
University of Tokyo Team, {Faculty of Engineering, University of Tokyo

>  <COMMENT>  (1420) 
SMILES=CCOCC=C(C)C
InChI=InChI=1S/C7H14O/c1-4-8-6-5-7(2)3/h5H,4,6H2,1-3H3
computed SMILES=O(CC=C(C)C)CC
accession=JP010003
date=2016.01.19 (Created 2008.10.21, modified 2011.05.06)
author=KURARAY CO., LTD.
license=CC BY-NC-SA
exact mass=114.10447
ionization energy=70 eV
ion type=[M]+*
computed spectral entropy=2.5145619246109248
computed normalized entropy=0.771788648760519
SPLASH=splash10-00xv-9000000000-3d89bf8995a2b7bebe2f
submitter=submitter = University of Tokyo Team (Faculty of Engineering, University of Tokyo)
MoNA Rating=3.75

>  <NUM PEAKS>  (1420) 
26

>  <MASS SPECTRAL PEAKS>  (1420) 
27 17.9
29 32
31 6.8
39 1.62
40 4.4
41 67.5
42 6.4
43 1.78
44 3.7
45 3
53 14.2
54 0.19
55 10.4
57 8.7
59 3.4
67 1.62
68 19.9
69 44.5
70 5.5
71 99.99
72 5.2
85 9.9
99 81.9
100 0.56
114 23.1
115 1.7

$$$$

     RDKit          2D

  8  8  0  0  0  0  0  0  0  0999 V2000
    0.0000    3.0000    0.0000 C   0  0  0  0  0  0  0  0  0  0  0  0
    1.3000    0.7500    0.0000 C   0  0  0  0  0  0  0  0  0  0  0  0
    1.3000   -0.7500    0.0000 C   0  0  0  0  0  0  0  0  0  0  0  0
   -1.3000    0.7500    0.0000 C   0  0  0  0  0  0  0  0  0  0  0  0
    0.0000    1.5000    0.0000 C   0  0  0  0  0  0  0  0  0  0  0  0
   -1.3000   -0.7500    0.0000 C   0  0  0  0  0  0  0  0  0  0  0  0
   -2.5989   -1.5002    0.0000 O   0  0  0  0  0  0  0  0  0  0  0  0
   -0.0000   -1.5000    0.0000 O   0  0  0  0  0  0  0  0  0  0  0  0
  3  2  1  0
  5  1  1  0
  5  2  1  0
  5  4  1  0
  6  4  1  0
  7  6  2  0
  8  3  1  0
  8  6  1  0
M  END
>  <NAME>  (1421) 
4-METHYLTETRAHYDRO-2-PYRONE

>  <SYNONYMS>  (1421) 


>  <SPECTRUM TYPE>  (1421) 
MS1

>  <INSTRUMENT TYPE>  (1421) 
EI-B

>  <INSTRUMENT>  (1421) 
JEOL JMS-D-300

>  <ION MODE>  (1421) 
P

>  <INCHIKEY>  (1421) 
YHTLGFCVBKENTE-UHFFFAOYSA-N

>  <FORMULA>  (1421) 
C6H10O2

>  <EXACT MASS>  (1421) 
114.06807956

>  <MW>  (1421) 
114

>  <ID>  (1421) 
JP010002

>  <CONTRIBUTOR>  (1421) 
University of Tokyo Team, {Faculty of Engineering, University of Tokyo

>  <COMMENT>  (1421) 
SMILES=CC(C1)CC(=O)OC1
InChI=InChI=1S/C6H10O2/c1-5-2-3-8-6(7)4-5/h5H,2-4H2,1H3
computed SMILES=O=C1OCCC(C)C1
accession=JP010002
date=2016.01.19 (Created 2008.10.21, modified 2011.05.06)
author=KURARAY CO., LTD.
license=CC BY-NC-SA
exact mass=114.06808
ionization energy=70 eV
ion type=[M]+*
computed spectral entropy=2.349709665635719
computed normalized entropy=0.7129326362819538
SPLASH=splash10-052f-9000000000-300cc5aed6dd918f0ae1
submitter=submitter = University of Tokyo Team (Faculty of Engineering, University of Tokyo)
MoNA Rating=3.75

>  <NUM PEAKS>  (1421) 
27

>  <MASS SPECTRAL PEAKS>  (1421) 
26 2.1
27 15.8
28 7.5
29 1.88
32 1.7
38 2.1
39 22.3
40 0.62
41 42.6
42 99.99
43 19.9
44 0.2
53 4
54 2.3
55 87.9
56 6.46
57 4.7
59 1.6
69 20.3
70 3.31
71 5
73 1.6
83 1.2
84 0.53
85 1.9
114 35.1
115 3.1

$$$$

     RDKit          2D

  8  8  0  0  0  0  0  0  0  0999 V2000
    0.0000    3.0000    0.0000 C   0  0  0  0  0  0  0  0  0  0  0  0
   -1.3000    0.7500    0.0000 C   0  0  0  0  0  0  0  0  0  0  0  0
   -1.3000   -0.7500    0.0000 C   0  0  0  0  0  0  0  0  0  0  0  0
    1.3000    0.7500    0.0000 C   0  0  0  0  0  0  0  0  0  0  0  0
   -0.0000    1.5000    0.0000 C   0  0  0  0  0  0  0  0  0  0  0  0
    1.3000   -0.7500    0.0000 C   0  0  0  0  0  0  0  0  0  0  0  0
   -0.0000   -1.5000    0.0000 N   0  0  0  0  0  0  0  0  0  0  0  0
    2.5989   -1.5002    0.0000 O   0  0  0  0  0  0  0  0  0  0  0  0
  3  2  1  0
  5  1  1  0
  5  2  1  0
  5  4  1  0
  6  4  1  0
  7  3  1  0
  7  6  2  0
  8  6  1  0
M  END
>  <NAME>  (1422) 
4-METHYL-2-PIPERIDONE

>  <SYNONYMS>  (1422) 


>  <SPECTRUM TYPE>  (1422) 
MS1

>  <INSTRUMENT TYPE>  (1422) 
EI-B

>  <INSTRUMENT>  (1422) 
JEOL JMS-D-300

>  <ION MODE>  (1422) 
P

>  <INCHIKEY>  (1422) 
PTSGHGGLRADEFP-UHFFFAOYSA-N

>  <FORMULA>  (1422) 
C6H11NO

>  <EXACT MASS>  (1422) 
113.084063972

>  <MW>  (1422) 
113

>  <ID>  (1422) 
JP010001

>  <CONTRIBUTOR>  (1422) 
University of Tokyo Team, {Faculty of Engineering, University of Tokyo

>  <COMMENT>  (1422) 
SMILES=CC(C1)CC(=O)NC1
InChI=InChI=1S/C6H11NO/c1-5-2-3-7-6(8)4-5/h5H,2-4H2,1H3,(H,7,8)
computed SMILES=OC1=NCCC(C)C1
accession=JP010001
date=2016.01.19 (Created 2008.10.21, modified 2011.05.06)
author=KURARAY CO., LTD.
license=CC BY-NC-SA
exact mass=113.08406
ionization energy=70 eV
ion type=[M]+*
computed spectral entropy=2.8640187533023718
computed normalized entropy=0.8263811304804647
SPLASH=splash10-08fu-9300000000-665a40c8b470d06b3db4
submitter=submitter = University of Tokyo Team (Faculty of Engineering, University of Tokyo)
MoNA Rating=3.75

>  <NUM PEAKS>  (1422) 
32

>  <MASS SPECTRAL PEAKS>  (1422) 
27 12.2
28 10.4
29 10.4
30 4.2
31 6.8
39 16.4
40 5.3
41 4.98
42 46.1
43 35.5
44 4.5
45 0.28
53 4.8
54 4.5
55 43.4
56 5.01
57 20.1
58 4.9
67 3
68 0.88
69 29
70 7.8
71 16.6
72 0.3
83 5.6
84 9.1
85 14.4
96 0.7
98 3.2
112 17.4
113 99.99
114 9.5

$$$$

     RDKit          2D

  8  8  0  0  0  0  0  0  0  0999 V2000
    0.0000    3.0000    0.0000 C   0  0  0  0  0  0  0  0  0  0  0  0
    1.3000    0.7500    0.0000 C   0  0  0  0  0  0  0  0  0  0  0  0
    1.3000   -0.7500    0.0000 C   0  0  0  0  0  0  0  0  0  0  0  0
   -1.3000    0.7500    0.0000 C   0  0  0  0  0  0  0  0  0  0  0  0
    0.0000    1.5000    0.0000 C   0  0  0  0  0  0  0  0  0  0  0  0
   -1.3000   -0.7500    0.0000 C   0  0  0  0  0  0  0  0  0  0  0  0
   -2.5989   -1.5002    0.0000 O   0  0  0  0  0  0  0  0  0  0  0  0
   -0.0000   -1.5000    0.0000 O   0  0  0  0  0  0  0  0  0  0  0  0
  3  2  1  0
  5  1  1  0
  5  2  1  0
  5  4  2  0
  6  4  1  0
  7  6  2  0
  8  3  1  0
  8  6  1  0
M  END
>  <NAME>  (1423) 
4-METHYL-5,6-DIHYDRO-2-PYRONE

>  <SYNONYMS>  (1423) 


>  <SPECTRUM TYPE>  (1423) 
MS1

>  <INSTRUMENT TYPE>  (1423) 
EI-B

>  <INSTRUMENT>  (1423) 
JEOL JMS-D-300

>  <ION MODE>  (1423) 
P

>  <INCHIKEY>  (1423) 
RPEASMBMVIKUTH-UHFFFAOYSA-N

>  <FORMULA>  (1423) 
C6H8O2

>  <EXACT MASS>  (1423) 
112.052429496

>  <MW>  (1423) 
112

>  <ID>  (1423) 
JP010000

>  <CONTRIBUTOR>  (1423) 
University of Tokyo Team, {Faculty of Engineering, University of Tokyo

>  <COMMENT>  (1423) 
SMILES=CC(C1)=CC(=O)OC1
InChI=InChI=1S/C6H8O2/c1-5-2-3-8-6(7)4-5/h4H,2-3H2,1H3
computed SMILES=O=C1OCCC(=C1)C
accession=JP010000
date=2016.01.19 (Created 2008.10.21, modified 2011.05.06)
author=KURARAY CO., LTD.
license=CC BY-NC-SA
exact mass=112.05243
ionization energy=70 eV
ion type=[M]+*
computed spectral entropy=2.27195000911122
computed normalized entropy=0.6893393397427444
SPLASH=splash10-01q9-9300000000-7b008325b519e78dde77
submitter=submitter = University of Tokyo Team (Faculty of Engineering, University of Tokyo)
MoNA Rating=3.75

>  <NUM PEAKS>  (1423) 
27

>  <MASS SPECTRAL PEAKS>  (1423) 
26 3.1
27 14.4
28 6.2
29 0.78
32 2.5
37 2.1
38 5.3
39 4.21
40 2.7
41 4.3
42 7.3
43 0.19
45 1.3
50 3.7
51 4.5
52 0.24
53 14.9
54 38.4
55 13.2
67 0.69
69 1.9
82 99.99
83 11.8
89 0.16
111 1.8
112 77.1
113 5.8

$$$$

     RDKit          2D

  8  8  0  0  0  0  0  0  0  0999 V2000
   -1.6834   -3.0075    0.0000 C   0  0  0  0  0  0  0  0  0  0  0  0
   -0.3829   -2.2600    0.0000 C   0  0  0  0  0  0  0  0  0  0  0  0
   -1.1300    1.5500    0.0000 C   0  0  0  0  0  0  0  0  0  0  0  0
    0.3700    1.5500    0.0000 C   0  0  0  0  0  0  0  0  0  0  0  0
   -1.5900    0.1200    0.0000 C   0  0  0  0  0  0  0  0  0  0  0  0
    0.8400    0.1200    0.0000 C   0  0  0  0  0  0  0  0  0  0  0  0
   -0.3800   -0.7600    0.0000 N   0  0  0  0  0  0  0  0  0  0  0  0
    2.2666   -0.3436    0.0000 O   0  0  0  0  0  0  0  0  0  0  0  0
  2  1  2  0
  4  3  1  0
  5  3  1  0
  6  4  1  0
  7  2  1  0
  7  5  1  0
  7  6  1  0
  8  6  2  0
M  END
>  <NAME>  (1424) 
N-VINYL-2-PYRROLIDONE

>  <SYNONYMS>  (1424) 


>  <SPECTRUM TYPE>  (1424) 
MS1

>  <INSTRUMENT TYPE>  (1424) 
EI-B

>  <INSTRUMENT>  (1424) 
JEOL JMS-D-300

>  <ION MODE>  (1424) 
P

>  <INCHIKEY>  (1424) 
WHNWPMSKXPGLAX-UHFFFAOYSA-N

>  <FORMULA>  (1424) 
C6H9NO

>  <EXACT MASS>  (1424) 
111.068413908

>  <MW>  (1424) 
111

>  <ID>  (1424) 
JP009999

>  <CONTRIBUTOR>  (1424) 
University of Tokyo Team, {Faculty of Engineering, University of Tokyo

>  <COMMENT>  (1424) 
SMILES=C=CN(C1)C(=O)CC1
InChI=InChI=1S/C6H9NO/c1-2-7-5-3-4-6(7)8/h2H,1,3-5H2
computed SMILES=O=C1N(C=C)CCC1
accession=JP009999
date=2016.01.19 (Created 2008.10.21, modified 2011.05.06)
author=KURARAY CO., LTD.
license=CC BY-NC-SA
exact mass=111.06841
ionization energy=70 eV
ion type=[M]+*
computed spectral entropy=2.574737116214493
computed normalized entropy=0.7646305065583844
SPLASH=splash10-0a4i-9000000000-6950aee5a8dd87be76cc
submitter=submitter = University of Tokyo Team (Faculty of Engineering, University of Tokyo)
MoNA Rating=3.75

>  <NUM PEAKS>  (1424) 
29

>  <MASS SPECTRAL PEAKS>  (1424) 
26 5.5
27 20.5
28 3.5
29 0.39
30 3.6
31 2.6
39 8.1
40 0.12
41 17.8
42 13.4
43 8.7
44 0.56
54 12.7
55 38.6
56 99.99
57 0.77
58 3.4
68 12.1
69 3.6
71 2.31
73 5.1
82 10.6
83 10.5
84 0.27
85 3.2
86 3.5
110 3.6
111 7.55
112 6.2

$$$$

     RDKit          2D

  6  5  0  0  0  0  0  0  0  0999 V2000
    0.0000    0.0000    0.0000 C   0  0  0  0  0  0  0  0  0  0  0  0
   -1.2990    2.2500    0.0000 C   0  0  0  0  0  0  0  0  0  0  0  0
   -1.2990    3.7500    0.0000 C   0  0  0  0  0  0  0  0  0  0  0  0
    0.0000    1.5000    0.0000 C   0  0  0  0  0  0  0  0  0  0  0  0
    1.2990    2.2500    0.0000 Cl  0  0  0  0  0  0  0  0  0  0  0  0
   -2.5981    4.5000    0.0000 O   0  0  0  0  0  0  0  0  0  0  0  0
  3  2  1  0
  4  1  1  0
  2  4  2  0
  5  4  1  0
  6  3  1  0
M  END
>  <NAME>  (1425) 
3-CHLORO-2-BUTEN-1-OL

>  <SYNONYMS>  (1425) 


>  <SPECTRUM TYPE>  (1425) 
MS1

>  <INSTRUMENT TYPE>  (1425) 
EI-B

>  <INSTRUMENT>  (1425) 
JEOL JMS-D-300

>  <ION MODE>  (1425) 
P

>  <INCHIKEY>  (1425) 
SRQGZQPUPABHCN-RQOWECAXSA-N

>  <FORMULA>  (1425) 
C4H7ClO

>  <EXACT MASS>  (1425) 
106.018542524

>  <MW>  (1425) 
106

>  <ID>  (1425) 
JP009998

>  <CONTRIBUTOR>  (1425) 
University of Tokyo Team, {Faculty of Engineering, University of Tokyo

>  <COMMENT>  (1425) 
SMILES=OCC=C(C)Cl
InChI=InChI=1S/C4H7ClO/c1-4(5)2-3-6/h2,6H,3H2,1H3/b4-2-
computed SMILES=ClC(=CCO)C
accession=JP009998
author=KURARAY CO., LTD.
date=2016.01.19 (Created 2008.10.21, modified 2011.05.06)
license=CC BY-NC-SA
exact mass=106.01854
ionization energy=70 eV
ion type=[M]+*
computed spectral entropy=2.474792462353528
computed normalized entropy=0.6960760014356464
SPLASH=splash10-00di-9000000000-d263a076367492c40aab
submitter=submitter = University of Tokyo Team (Faculty of Engineering, University of Tokyo)
MoNA Rating=3.75

>  <NUM PEAKS>  (1425) 
35

>  <MASS SPECTRAL PEAKS>  (1425) 
26 2
27 15.2
28 16
29 0.84
31 13.7
32 3.8
36 1
37 0.19
38 3
39 20.2
40 2.8
41 3.65
42 5.4
43 25.5
44 1.4
49 0.22
50 2.3
51 4
52 1.2
53 2.13
54 1.2
55 2.3
61 1.3
63 0.15
65 1.3
69 7.4
70 1.8
71 99.99
72 7.5
89 1.4
91 5.2
93 0.16
105 2.2
106 4.6
108 1.4

$$$$

     RDKit          2D

  7  6  0  0  0  0  0  0  0  0999 V2000
   -0.9743    0.1875    0.0000 C   0  0  0  0  0  0  0  0  0  0  0  0
    1.6238    1.6875    0.0000 C   0  0  0  0  0  0  0  0  0  0  0  0
   -2.2733    2.4375    0.0000 C   0  0  0  0  0  0  0  0  0  0  0  0
   -0.9743    1.6875    0.0000 C   0  0  0  0  0  0  0  0  0  0  0  0
    0.3248    2.4375    0.0000 C   0  0  0  0  0  0  0  0  0  0  0  0
   -3.5724    1.6875    0.0000 O   0  0  0  0  0  0  0  0  0  0  0  0
    0.3248    3.9375    0.0000 O   0  0  0  0  0  0  0  0  0  0  0  0
  4  1  1  0
  4  3  1  0
  5  2  1  0
  5  4  1  0
  6  3  1  0
  7  5  1  0
M  END
>  <NAME>  (1426) 
-METHYLBUTANE-1,3-DIOL

>  <SYNONYMS>  (1426) 


>  <SPECTRUM TYPE>  (1426) 
MS1

>  <INSTRUMENT TYPE>  (1426) 
EI-B

>  <INSTRUMENT>  (1426) 
JEOL JMS-D-300

>  <ION MODE>  (1426) 
P

>  <INCHIKEY>  (1426) 
GNBPEYCZELNJMS-UHFFFAOYSA-N

>  <FORMULA>  (1426) 
C5H12O2

>  <EXACT MASS>  (1426) 
104.083729624

>  <MW>  (1426) 
104

>  <ID>  (1426) 
JP009997

>  <CONTRIBUTOR>  (1426) 
University of Tokyo Team, {Faculty of Engineering, University of Tokyo

>  <COMMENT>  (1426) 
SMILES=OCC(C)C(C)O
InChI=InChI=1S/C5H12O2/c1-4(3-6)5(2)7/h4-7H,3H2,1-2H3
computed SMILES=OCC(C)C(O)C
accession=JP009997
date=2016.01.19 (Created 2008.10.21, modified 2011.05.06)
author=KURARAY CO., LTD.
license=CC BY-NC-SA
exact mass=104.08373
ionization energy=70 eV
ion type=[M]+*
computed spectral entropy=2.48031100055519
computed normalized entropy=0.7525587889797978
SPLASH=splash10-0a4i-9000000000-ae5f167807d7a2f8d7ad
submitter=submitter = University of Tokyo Team (Faculty of Engineering, University of Tokyo)
MoNA Rating=3.75

>  <NUM PEAKS>  (1426) 
27

>  <MASS SPECTRAL PEAKS>  (1426) 
27 8
29 7.2
31 29.1
39 0.77
40 2
41 28.3
42 4.5
43 9.28
44 3
45 3.8
53 3.1
55 0.45
56 7.5
57 3
58 20.5
59 99.99
60 4.4
61 2
67 1.6
68 0.23
69 9.7
71 27.7
72 2.2
73 0.48
86 4.5
89 21.1
115 5.3

$$$$

     RDKit          2D

  6  5  0  0  0  0  0  0  0  0999 V2000
    0.0000    0.0000    0.0000 C   0  0  0  0  0  0  0  0  0  0  0  0
   -1.2990    2.2500    0.0000 C   0  0  0  0  0  0  0  0  0  0  0  0
   -1.2990    3.7500    0.0000 C   0  0  0  0  0  0  0  0  0  0  0  0
    0.0000    1.5000    0.0000 C   0  0  0  0  0  0  0  0  0  0  0  0
   -2.5981    4.5000    0.0000 Cl  0  0  0  0  0  0  0  0  0  0  0  0
    1.2990    2.2500    0.0000 O   0  0  0  0  0  0  0  0  0  0  0  0
  2  3  2  0
  4  1  1  0
  4  2  1  0
  5  3  1  0
  6  4  2  0
M  END
>  <NAME>  (1427) 
4-CHLORO-3-BUTEN-2-ONE

>  <SYNONYMS>  (1427) 
-BUTENE-3-ONE-1-CHLORO

>  <SPECTRUM TYPE>  (1427) 
MS1

>  <INSTRUMENT TYPE>  (1427) 
EI-B

>  <INSTRUMENT>  (1427) 
JEOL JMS-D-300

>  <ION MODE>  (1427) 
P

>  <INCHIKEY>  (1427) 
HTPABEPAZTWGPP-NSCUHMNNSA-N

>  <FORMULA>  (1427) 
C4H5ClO

>  <EXACT MASS>  (1427) 
104.00289246

>  <MW>  (1427) 
104

>  <ID>  (1427) 
JP009996

>  <CONTRIBUTOR>  (1427) 
University of Tokyo Team, {Faculty of Engineering, University of Tokyo

>  <COMMENT>  (1427) 
SMILES=CC(=O)C=CCl
InChI=InChI=1S/C4H5ClO/c1-4(6)2-3-5/h2-3H,1H3/b3-2+
computed SMILES=O=C(C=CCl)C
accession=JP009996
date=2016.01.19 (Created 2008.10.21, modified 2011.05.06)
author=KURARAY CO., LTD.
license=CC BY-NC-SA
exact mass=104.00289
ionization energy=70 eV
ion type=[M]+*
computed spectral entropy=1.5996371929826232
computed normalized entropy=0.6236525443783975
SPLASH=splash10-000l-9100000000-0e6c8b326b428c8de8d2
submitter=submitter = University of Tokyo Team (Faculty of Engineering, University of Tokyo)
MoNA Rating=3.75

>  <NUM PEAKS>  (1427) 
13

>  <MASS SPECTRAL PEAKS>  (1427) 
26 1.9
43 30.6
60 1.1
61 1.84
62 1.1
63 5.8
89 99.99
90 0.33
91 33.8
92 1.3
104 27
105 0.11
106 9

$$$$

     RDKit          2D

  7  6  0  0  0  0  0  0  0  0999 V2000
    1.9486    2.6250    0.0000 C   0  0  0  0  0  0  0  0  0  0  0  0
   -0.6495    1.1250    0.0000 C   0  0  0  0  0  0  0  0  0  0  0  0
    0.6495    3.3750    0.0000 C   0  0  0  0  0  0  0  0  0  0  0  0
   -1.9486    3.3750    0.0000 C   0  0  0  0  0  0  0  0  0  0  0  0
   -3.2476    2.6250    0.0000 C   0  0  0  0  0  0  0  0  0  0  0  0
   -0.6495    2.6250    0.0000 C   0  0  0  0  0  0  0  0  0  0  0  0
   -4.5466    3.3750    0.0000 O   0  0  0  0  0  0  0  0  0  0  0  0
  3  1  1  0
  5  4  1  0
  6  2  1  0
  6  3  1  0
  6  4  1  0
  7  5  1  0
M  END
>  <NAME>  (1428) 
3-METHYLPENTANOL

>  <SYNONYMS>  (1428) 


>  <SPECTRUM TYPE>  (1428) 
MS1

>  <INSTRUMENT TYPE>  (1428) 
EI-B

>  <INSTRUMENT>  (1428) 
JEOL JMS-D-300

>  <ION MODE>  (1428) 
P

>  <INCHIKEY>  (1428) 
IWTBVKIGCDZRPL-UHFFFAOYSA-N

>  <FORMULA>  (1428) 
C6H14O

>  <EXACT MASS>  (1428) 
102.104465068

>  <MW>  (1428) 
102

>  <ID>  (1428) 
JP009995

>  <CONTRIBUTOR>  (1428) 
University of Tokyo Team, {Faculty of Engineering, University of Tokyo

>  <COMMENT>  (1428) 
SMILES=OCCC(C)CC
InChI=InChI=1S/C6H14O/c1-3-6(2)4-5-7/h6-7H,3-5H2,1-2H3
computed SMILES=OCCC(C)CC
accession=JP009995
date=2016.01.19 (Created 2008.10.21, modified 2011.05.06)
author=KURARAY CO., LTD.
license=CC BY-NC-SA
exact mass=102.10447
ionization energy=70 eV
ion type=[M]+*
computed spectral entropy=2.4656219253057077
computed normalized entropy=0.7180055656833396
SPLASH=splash10-0a4l-9000000000-36ef332a1a165815accb
submitter=submitter = University of Tokyo Team (Faculty of Engineering, University of Tokyo)
MoNA Rating=3.75

>  <NUM PEAKS>  (1428) 
31

>  <MASS SPECTRAL PEAKS>  (1428) 
26 1.2
27 17.7
28 12.9
29 3.49
31 29.6
32 1.4
39 12.9
40 0.21
41 62.7
42 19.3
43 68.1
44 0.42
45 10.6
46 4.2
51 1
53 0.33
54 2.3
55 83.4
56 99.99
57 3.48
58 1.1
59 1.2
67 1.1
69 7.82
70 4.9
71 4.5
73 1.4
83 0.21
84 21.3
85 2.5
135 1

$$$$

     RDKit          2D

  7  6  0  0  0  0  0  0  0  0999 V2000
    1.6238    1.6875    0.0000 C   0  0  0  0  0  0  0  0  0  0  0  0
    0.3248    3.9375    0.0000 C   0  0  0  0  0  0  0  0  0  0  0  0
   -0.9743    0.1875    0.0000 C   0  0  0  0  0  0  0  0  0  0  0  0
   -2.2733    2.4375    0.0000 C   0  0  0  0  0  0  0  0  0  0  0  0
    0.3248    2.4375    0.0000 C   0  0  0  0  0  0  0  0  0  0  0  0
   -0.9743    1.6875    0.0000 C   0  0  0  0  0  0  0  0  0  0  0  0
   -3.5724    1.6875    0.0000 O   0  0  0  0  0  0  0  0  0  0  0  0
  5  1  1  0
  5  2  1  0
  6  3  1  0
  6  4  1  0
  6  5  1  0
  7  4  1  0
M  END
>  <NAME>  (1429) 
2,3-DIMETHYLBUTANOL

>  <SYNONYMS>  (1429) 


>  <SPECTRUM TYPE>  (1429) 
MS1

>  <INSTRUMENT TYPE>  (1429) 
EI-B

>  <INSTRUMENT>  (1429) 
JEOL JMS-D-300

>  <ION MODE>  (1429) 
P

>  <INCHIKEY>  (1429) 
SXSWMAUXEHKFGX-UHFFFAOYSA-N

>  <FORMULA>  (1429) 
C6H14O

>  <EXACT MASS>  (1429) 
102.104465068

>  <MW>  (1429) 
102

>  <ID>  (1429) 
JP009994

>  <CONTRIBUTOR>  (1429) 
University of Tokyo Team, {Faculty of Engineering, University of Tokyo

>  <COMMENT>  (1429) 
SMILES=OCC(C)C(C)C
InChI=InChI=1S/C6H14O/c1-5(2)6(3)4-7/h5-7H,4H2,1-3H3
computed SMILES=OCC(C)C(C)C
accession=JP009994
date=2016.01.19 (Created 2008.10.21, modified 2011.05.06)
author=KURARAY CO., LTD.
license=CC BY-NC-SA
exact mass=102.10447
ionization energy=70 eV
ion type=[M]+*
computed spectral entropy=2.2813174841494632
computed normalized entropy=0.7087311248618525
SPLASH=splash10-006x-9000000000-537d56f26d526fe6977a
submitter=submitter = University of Tokyo Team (Faculty of Engineering, University of Tokyo)
MoNA Rating=3.75

>  <NUM PEAKS>  (1429) 
25

>  <MASS SPECTRAL PEAKS>  (1429) 
27 10.4
28 8.6
29 12.9
31 1.67
32 1.7
39 8.4
40 1.3
41 3.25
42 27.3
43 99.99
44 3.2
45 1.22
53 1.9
55 12.5
56 7.7
57 0.47
58 1.5
59 5.8
61 1.1
69 2.86
70 11.7
71 55.8
72 3.5
84 2.03
85 1.8

$$$$

     RDKit          2D

  7  6  0  0  0  0  0  0  0  0999 V2000
    1.9486    2.6250    0.0000 C   0  0  0  0  0  0  0  0  0  0  0  0
   -0.6495    1.1250    0.0000 C   0  0  0  0  0  0  0  0  0  0  0  0
    0.6495    3.3750    0.0000 C   0  0  0  0  0  0  0  0  0  0  0  0
   -1.9486    3.3750    0.0000 C   0  0  0  0  0  0  0  0  0  0  0  0
   -3.2476    2.6250    0.0000 C   0  0  0  0  0  0  0  0  0  0  0  0
   -0.6495    2.6250    0.0000 C   0  0  0  0  0  0  0  0  0  0  0  0
   -4.5466    3.3750    0.0000 O   0  0  0  0  0  0  0  0  0  0  0  0
  3  1  2  0
  5  4  1  0
  6  2  1  0
  6  3  1  0
  6  4  1  0
  7  5  1  0
M  END
>  <NAME>  (1430) 
3-METHYL-4-PENTEN-1-OL

>  <SYNONYMS>  (1430) 


>  <SPECTRUM TYPE>  (1430) 
MS1

>  <INSTRUMENT TYPE>  (1430) 
EI-B

>  <INSTRUMENT>  (1430) 
JEOL JMS-D-300

>  <ION MODE>  (1430) 
P

>  <INCHIKEY>  (1430) 
VTCQTYOGWYLVES-UHFFFAOYSA-N

>  <FORMULA>  (1430) 
C6H12O

>  <EXACT MASS>  (1430) 
100.088815004

>  <MW>  (1430) 
100

>  <ID>  (1430) 
JP009993

>  <CONTRIBUTOR>  (1430) 
University of Tokyo Team, {Faculty of Engineering, University of Tokyo

>  <COMMENT>  (1430) 
SMILES=OCCC(C)C=C
InChI=InChI=1S/C6H12O/c1-3-6(2)4-5-7/h3,6-7H,1,4-5H2,2H3
computed SMILES=OCCC(C=C)C
accession=JP009993
date=2016.01.19 (Created 2008.10.21, modified 2011.05.06)
author=KURARAY CO., LTD.
license=CC BY-NC-SA
exact mass=100.08882
ionization energy=70 eV
ion type=[M]+*
computed spectral entropy=1.996032214945758
computed normalized entropy=0.8668657766520681
SPLASH=splash10-066r-9000000000-edafbb53c8623d8d69cd
submitter=submitter = University of Tokyo Team (Faculty of Engineering, University of Tokyo)
MoNA Rating=3.75

>  <NUM PEAKS>  (1430) 
10

>  <MASS SPECTRAL PEAKS>  (1430) 
28 13.5
29 30.3
32 2.8
41 7.44
42 32.9
55 83.1
56 40.6
67 99.99
69 27.9
82 34.6

$$$$

     RDKit          2D

  7  7  0  0  0  0  0  0  0  0999 V2000
   -0.0000   -1.5000    0.0000 C   0  0  0  0  0  0  0  0  0  0  0  0
   -1.3000    0.7500    0.0000 C   0  0  0  0  0  0  0  0  0  0  0  0
    1.3000    0.7500    0.0000 C   0  0  0  0  0  0  0  0  0  0  0  0
   -1.3000    2.2500    0.0000 C   0  0  0  0  0  0  0  0  0  0  0  0
    1.3000    2.2500    0.0000 C   0  0  0  0  0  0  0  0  0  0  0  0
   -0.0000    0.0000    0.0000 C   0  0  0  0  0  0  0  0  0  0  0  0
    0.0000    3.0000    0.0000 O   0  0  0  0  0  0  0  0  0  0  0  0
  4  2  1  0
  5  3  1  0
  6  1  1  0
  6  2  1  0
  6  3  1  0
  7  4  1  0
  7  5  1  0
M  END
>  <NAME>  (1431) 
4-METHYLTETRAHYDROPYRAN

>  <SYNONYMS>  (1431) 


>  <SPECTRUM TYPE>  (1431) 
MS1

>  <INSTRUMENT TYPE>  (1431) 
EI-B

>  <INSTRUMENT>  (1431) 
JEOL JMS-D-300

>  <ION MODE>  (1431) 
P

>  <INCHIKEY>  (1431) 
OVRKATYHWPCGPZ-UHFFFAOYSA-N

>  <FORMULA>  (1431) 
C6H12O

>  <EXACT MASS>  (1431) 
100.088815004

>  <MW>  (1431) 
100

>  <ID>  (1431) 
JP009992

>  <CONTRIBUTOR>  (1431) 
University of Tokyo Team, {Faculty of Engineering, University of Tokyo

>  <COMMENT>  (1431) 
SMILES=CC(C1)CCOC1
InChI=InChI=1S/C6H12O/c1-6-2-4-7-5-3-6/h6H,2-5H2,1H3
computed SMILES=O1CCC(C)CC1
accession=JP009992
date=2016.01.19 (Created 2008.10.21, modified 2011.05.06)
author=KURARAY CO., LTD.
license=CC BY-NC-SA
exact mass=100.08882
ionization energy=70 eV
ion type=[M]+*
computed spectral entropy=2.738427708485432
computed normalized entropy=0.7765592001638871
SPLASH=splash10-052g-9000000000-e5c6f48a406e81ded687
submitter=submitter = University of Tokyo Team (Faculty of Engineering, University of Tokyo)
MoNA Rating=3.75

>  <NUM PEAKS>  (1431) 
34

>  <MASS SPECTRAL PEAKS>  (1431) 
26 3.6
27 15.1
28 7.7
29 1.21
31 5.6
38 3.7
39 17.1
40 0.37
41 35.1
42 94.2
43 25.8
44 0.45
45 25
50 3.4
51 1.2
53 0.6
54 7.1
55 99.99
56 13.5
57 1.1
58 5.1
67 35.1
68 10.4
69 1.21
70 38.2
71 9.3
81 9.9
82 2.9
83 5.1
85 6.2
99 91
100 7.1
101 4.9
104 2.7

$$$$

     RDKit          2D

  7  7  0  0  0  0  0  0  0  0999 V2000
   -0.0000   -1.5000    0.0000 C   0  0  0  0  0  0  0  0  0  0  0  0
   -1.3000    2.2500    0.0000 C   0  0  0  0  0  0  0  0  0  0  0  0
    1.3000    2.2500    0.0000 C   0  0  0  0  0  0  0  0  0  0  0  0
   -1.3000    0.7500    0.0000 C   0  0  0  0  0  0  0  0  0  0  0  0
    1.3000    0.7500    0.0000 C   0  0  0  0  0  0  0  0  0  0  0  0
    0.0000    3.0000    0.0000 N   0  0  0  0  0  0  0  0  0  0  0  0
   -0.0000    0.0000    0.0000 N   0  0  0  0  0  0  0  0  0  0  0  0
  4  2  1  0
  5  3  1  0
  6  2  1  0
  6  3  1  0
  7  1  1  0
  7  4  1  0
  7  5  1  0
M  END
>  <NAME>  (1432) 
1-METHYLPYPERAZINE

>  <SYNONYMS>  (1432) 


>  <SPECTRUM TYPE>  (1432) 
MS1

>  <INSTRUMENT TYPE>  (1432) 
EI-B

>  <INSTRUMENT>  (1432) 
JEOL JMS-D-300

>  <ION MODE>  (1432) 
P

>  <INCHIKEY>  (1432) 
PVOAHINGSUIXLS-UHFFFAOYSA-N

>  <FORMULA>  (1432) 
C5H12N2

>  <EXACT MASS>  (1432) 
100.10004838399999

>  <MW>  (1432) 
100

>  <ID>  (1432) 
JP009991

>  <CONTRIBUTOR>  (1432) 
University of Tokyo Team, {Faculty of Engineering, University of Tokyo

>  <COMMENT>  (1432) 
SMILES=CN(C1)CCNC1
InChI=InChI=1S/C5H12N2/c1-7-4-2-6-3-5-7/h6H,2-5H2,1H3
computed SMILES=N1CCN(C)CC1
accession=JP009991
date=2016.01.19 (Created 2008.10.21, modified 2011.05.06)
author=KURARAY CO., LTD.
license=CC BY-NC-SA
exact mass=100.10005
ionization energy=70 eV
ion type=[M]+*
computed spectral entropy=2.299696080512489
computed normalized entropy=0.7439872195912239
SPLASH=splash10-0a4l-9100000000-cc1382f5f5cd0d361c01
submitter=submitter = University of Tokyo Team (Faculty of Engineering, University of Tokyo)
MoNA Rating=3.75

>  <NUM PEAKS>  (1432) 
22

>  <MASS SPECTRAL PEAKS>  (1432) 
26 1.8
27 8.2
28 11.5
29 1.64
30 13.6
40 2.7
41 6.6
42 4.08
43 58.4
44 21
45 1.9
54 0.29
55 2.6
56 26.2
57 15.9
58 99.99
59 6
70 7.4
71 3.4
99 0.22
100 58.8
101 3.6

$$$$

     RDKit          2D

  7  6  0  0  0  0  0  0  0  0999 V2000
   -1.9486    4.1250    0.0000 C   0  0  0  0  0  0  0  0  0  0  0  0
   -0.6495    3.3750    0.0000 C   0  0  0  0  0  0  0  0  0  0  0  0
   -3.2476    3.3750    0.0000 C   0  0  0  0  0  0  0  0  0  0  0  0
    0.6495    4.1250    0.0000 C   0  0  0  0  0  0  0  0  0  0  0  0
   -4.5466    4.1250    0.0000 C   0  0  0  0  0  0  0  0  0  0  0  0
    1.9486    3.3750    0.0000 O   0  0  0  0  0  0  0  0  0  0  0  0
   -5.8457    3.3750    0.0000 O   0  0  0  0  0  0  0  0  0  0  0  0
  2  1  1  0
  3  1  1  0
  4  2  1  0
  5  3  1  0
  6  4  2  0
  7  5  2  0
M  END
>  <NAME>  (1433) 
PENTANE-1,5-DIAL

>  <SYNONYMS>  (1433) 


>  <SPECTRUM TYPE>  (1433) 
MS1

>  <INSTRUMENT TYPE>  (1433) 
EI-B

>  <INSTRUMENT>  (1433) 
JEOL JMS-D-300

>  <ION MODE>  (1433) 
P

>  <INCHIKEY>  (1433) 
SXRSQZLOMIGNAQ-UHFFFAOYSA-N

>  <FORMULA>  (1433) 
C5H8O2

>  <EXACT MASS>  (1433) 
100.052429496

>  <MW>  (1433) 
100

>  <ID>  (1433) 
JP009990

>  <CONTRIBUTOR>  (1433) 
University of Tokyo Team, {Faculty of Engineering, University of Tokyo

>  <COMMENT>  (1433) 
SMILES=O=CCCCC=O
InChI=InChI=1S/C5H8O2/c6-4-2-1-3-5-7/h4-5H,1-3H2
computed SMILES=O=CCCCC=O
accession=JP009990
date=2016.01.19 (Created 2008.10.21, modified 2011.05.06)
author=KURARAY CO., LTD.
license=CC BY-NC-SA
exact mass=100.05243
ionization energy=70 eV
ion type=[M]+*
computed spectral entropy=2.3967253429846105
computed normalized entropy=0.7271978075450845
SPLASH=splash10-0006-9000000000-0a4ee2dd933655592450
submitter=submitter = University of Tokyo Team (Faculty of Engineering, University of Tokyo)
MoNA Rating=3.75

>  <NUM PEAKS>  (1433) 
27

>  <MASS SPECTRAL PEAKS>  (1433) 
26 3.3
27 34.3
28 9.4
29 3.17
30 1.1
31 3.3
37 1.1
38 0.21
39 16.2
40 2
41 33.1
42 0.82
43 35.1
44 99.99
45 3.5
53 0.31
54 3.5
55 8.5
56 1.8
57 2.24
58 1.1
71 3.5
72 36.4
73 0.16
81 8.5
82 36.2
83 2.1

$$$$

     RDKit          2D

  7  6  0  0  0  0  0  0  0  0999 V2000
   -3.8971    2.2500    0.0000 C   0  0  0  0  0  0  0  0  0  0  0  0
    1.2990    2.2500    0.0000 C   0  0  0  0  0  0  0  0  0  0  0  0
   -0.0000    0.0000    0.0000 C   0  0  0  0  0  0  0  0  0  0  0  0
   -2.5981    1.5000    0.0000 C   0  0  0  0  0  0  0  0  0  0  0  0
    0.0000    1.5000    0.0000 C   0  0  0  0  0  0  0  0  0  0  0  0
   -1.2990    2.2500    0.0000 C   0  0  0  0  0  0  0  0  0  0  0  0
   -1.2990    3.7500    0.0000 O   0  0  0  0  0  0  0  0  0  0  0  0
  4  1  2  0
  5  2  1  0
  5  3  1  0
  6  4  1  0
  6  5  1  0
  7  6  2  0
M  END
>  <NAME>  (1434) 
4-METHYL-1-PENTEN-3-ONE

>  <SYNONYMS>  (1434) 


>  <SPECTRUM TYPE>  (1434) 
MS1

>  <INSTRUMENT TYPE>  (1434) 
EI-B

>  <INSTRUMENT>  (1434) 
JEOL JMS-D-300

>  <ION MODE>  (1434) 
P

>  <INCHIKEY>  (1434) 
SNOYUTZWILESAI-UHFFFAOYSA-N

>  <FORMULA>  (1434) 
C6H10O

>  <EXACT MASS>  (1434) 
98.07316494

>  <MW>  (1434) 
98

>  <ID>  (1434) 
JP009989

>  <CONTRIBUTOR>  (1434) 
University of Tokyo Team, {Faculty of Engineering, University of Tokyo

>  <COMMENT>  (1434) 
SMILES=C=CC(=O)C(C)C
InChI=InChI=1S/C6H10O/c1-4-6(7)5(2)3/h4-5H,1H2,2-3H3
computed SMILES=O=C(C=C)C(C)C
accession=JP009989
date=2016.01.19 (Created 2008.10.21, modified 2011.05.06)
author=KURARAY CO., LTD.
license=CC BY-NC-SA
exact mass=98.07316
ionization energy=70 eV
ion type=[M]+*
computed spectral entropy=1.679674275900553
computed normalized entropy=0.675950654341021
SPLASH=splash10-0a4i-9000000000-818d4c2d02460b513de2
submitter=submitter = University of Tokyo Team (Faculty of Engineering, University of Tokyo)
MoNA Rating=3.75

>  <NUM PEAKS>  (1434) 
12

>  <MASS SPECTRAL PEAKS>  (1434) 
27 20.3
28 3.4
29 2.3
39 0.47
41 11.2
42 2.6
43 18.8
55 99.99
56 8.8
69 2.5
70 11
98 9.1

$$$$

     RDKit          2D

  7  6  0  0  0  0  0  0  0  0999 V2000
    1.9486    2.6250    0.0000 C   0  0  0  0  0  0  0  0  0  0  0  0
   -0.6495    1.1250    0.0000 C   0  0  0  0  0  0  0  0  0  0  0  0
    0.6495    3.3750    0.0000 C   0  0  0  0  0  0  0  0  0  0  0  0
   -1.9486    3.3750    0.0000 C   0  0  0  0  0  0  0  0  0  0  0  0
   -3.2476    2.6250    0.0000 C   0  0  0  0  0  0  0  0  0  0  0  0
   -0.6495    2.6250    0.0000 C   0  0  0  0  0  0  0  0  0  0  0  0
   -4.5466    3.3750    0.0000 O   0  0  0  0  0  0  0  0  0  0  0  0
  3  1  2  0
  5  4  1  0
  6  2  1  0
  6  3  1  0
  4  6  2  0
  7  5  1  0
M  END
>  <NAME>  (1435) 
3-METHYL-2,4-PENTADIEN-1-OL

>  <SYNONYMS>  (1435) 


>  <SPECTRUM TYPE>  (1435) 
MS1

>  <INSTRUMENT TYPE>  (1435) 
EI-B

>  <INSTRUMENT>  (1435) 
JEOL JMS-D-300

>  <ION MODE>  (1435) 
P

>  <INCHIKEY>  (1435) 
MOBKGOLFIBXIOP-GQCTYLIASA-N

>  <FORMULA>  (1435) 
C6H10O

>  <EXACT MASS>  (1435) 
98.07316494

>  <MW>  (1435) 
98

>  <ID>  (1435) 
JP009988

>  <CONTRIBUTOR>  (1435) 
University of Tokyo Team, {Faculty of Engineering, University of Tokyo

>  <COMMENT>  (1435) 
SMILES=OCC=C(C)C=C
InChI=InChI=1S/C6H10O/c1-3-6(2)4-5-7/h3-4,7H,1,5H2,2H3/b6-4+
computed SMILES=OCC=C(C=C)C
accession=JP009988
date=2016.01.19 (Created 2008.10.21, modified 2011.05.06)
author=KURARAY CO., LTD.
license=CC BY-NC-SA
exact mass=98.07316
ionization energy=70 eV
ion type=[M]+*
computed spectral entropy=2.9326652374802338
computed normalized entropy=0.7749784025605678
SPLASH=splash10-05ox-9000000000-30208a5aa6a3e2a09199
submitter=submitter = University of Tokyo Team (Faculty of Engineering, University of Tokyo)
MoNA Rating=3.75

>  <NUM PEAKS>  (1435) 
44

>  <MASS SPECTRAL PEAKS>  (1435) 
26 3
27 29.1
28 45.6
29 2.21
31 9.2
32 7.4
37 1.8
38 0.43
39 48.2
40 3.1
41 99.99
42 1.35
43 45.2
44 3.5
45 3.5
49 0.1
50 7
51 11.8
52 6.5
53 2.96
54 7.2
55 61.8
56 15.6
57 0.84
62 1.6
63 2.5
65 8.7
66 0.32
67 7.4
68 2.3
69 90.2
70 2.71
71 5.7
77 10.3
78 1.3
79 1.95
80 10.4
81 7.6
82 1.4
83 6.04
84 3.9
97 9.4
98 21
99 1.6

$$$$

     RDKit          2D

  7  7  0  0  0  0  0  0  0  0999 V2000
   -0.0000   -1.5000    0.0000 C   0  0  0  0  0  0  0  0  0  0  0  0
   -1.3000    0.7500    0.0000 C   0  0  0  0  0  0  0  0  0  0  0  0
    1.3000    0.7500    0.0000 C   0  0  0  0  0  0  0  0  0  0  0  0
   -1.3000    2.2500    0.0000 C   0  0  0  0  0  0  0  0  0  0  0  0
    1.3000    2.2500    0.0000 C   0  0  0  0  0  0  0  0  0  0  0  0
   -0.0000    0.0000    0.0000 C   0  0  0  0  0  0  0  0  0  0  0  0
    0.0000    3.0000    0.0000 O   0  0  0  0  0  0  0  0  0  0  0  0
  4  2  1  0
  5  3  1  0
  6  1  1  0
  6  2  2  0
  6  3  1  0
  7  4  1  0
  7  5  1  0
M  END
>  <NAME>  (1436) 
4-METHYL-5,6-DIHYDRO-2H-PYRAN

>  <SYNONYMS>  (1436) 


>  <SPECTRUM TYPE>  (1436) 
MS1

>  <INSTRUMENT TYPE>  (1436) 
EI-B

>  <INSTRUMENT>  (1436) 
JEOL JMS-D-300

>  <ION MODE>  (1436) 
P

>  <INCHIKEY>  (1436) 
PQGPYWUIWWYUGU-UHFFFAOYSA-N

>  <FORMULA>  (1436) 
C6H10O

>  <EXACT MASS>  (1436) 
98.07316494

>  <MW>  (1436) 
98

>  <ID>  (1436) 
JP009987

>  <CONTRIBUTOR>  (1436) 
University of Tokyo Team, {Faculty of Engineering, University of Tokyo

>  <COMMENT>  (1436) 
SMILES=CC(C1)=CCOC1
InChI=InChI=1S/C6H10O/c1-6-2-4-7-5-3-6/h2H,3-5H2,1H3
computed SMILES=O1CC=C(C)CC1
accession=JP009987
date=2016.01.19 (Created 2008.10.21, modified 2011.05.06)
author=KURARAY CO., LTD.
license=CC BY-NC-SA
exact mass=98.07316
ionization energy=70 eV
ion type=[M]+*
computed spectral entropy=2.8590469102824554
computed normalized entropy=0.7555242170361622
SPLASH=splash10-00ls-9000000000-19ddaa966f1e45981896
submitter=submitter = University of Tokyo Team (Faculty of Engineering, University of Tokyo)
MoNA Rating=3.75

>  <NUM PEAKS>  (1436) 
44

>  <MASS SPECTRAL PEAKS>  (1436) 
26 1.8
27 16.4
28 33.3
29 0.88
31 1.2
32 9
36 2.3
38 0.23
39 19.5
40 12
41 47
42 0.91
43 13.3
44 2.3
49 4.2
50 0.18
51 4
52 1.4
53 18.7
54 0.23
55 28.4
56 3.6
57 1.7
61 0.17
62 6.8
63 2.1
64 2.3
65 0.32
66 1.9
67 31.3
68 22.9
69 3.25
70 7
71 1
76 1.2
77 0.16
79 3.2
81 2.3
83 99.99
84 0.52
89 1.2
97 8.8
98 61
99 6.4

$$$$

     RDKit          2D

  7  7  0  0  0  0  0  0  0  0999 V2000
   -3.0958    1.4497    0.0000 C   0  0  0  0  0  0  0  0  0  0  0  0
    1.7179   -0.7016    0.0000 C   0  0  0  0  0  0  0  0  0  0  0  0
   -0.8541   -0.0068    0.0000 C   0  0  0  0  0  0  0  0  0  0  0  0
   -1.6041    1.2923    0.0000 C   0  0  0  0  0  0  0  0  0  0  0  0
    0.6057    0.3049    0.0000 C   0  0  0  0  0  0  0  0  0  0  0  0
   -0.6043    2.4006    0.0000 N   0  0  0  0  0  0  0  0  0  0  0  0
    0.7714    1.7978    0.0000 O   0  0  0  0  0  0  0  0  0  0  0  0
  4  1  1  0
  4  3  1  0
  5  2  1  0
  5  3  2  0
  6  4  2  0
  7  5  1  0
  7  6  1  0
M  END
>  <NAME>  (1437) 
3,5-DIMETHYLISOXAZOLE

>  <SYNONYMS>  (1437) 


>  <SPECTRUM TYPE>  (1437) 
MS1

>  <INSTRUMENT TYPE>  (1437) 
EI-B

>  <INSTRUMENT>  (1437) 
JEOL JMS-D-300

>  <ION MODE>  (1437) 
P

>  <INCHIKEY>  (1437) 
FICAQKBMCKEFDI-UHFFFAOYSA-N

>  <FORMULA>  (1437) 
C5H7NO

>  <EXACT MASS>  (1437) 
97.052763844

>  <MW>  (1437) 
97

>  <ID>  (1437) 
JP009986

>  <CONTRIBUTOR>  (1437) 
University of Tokyo Team, {Faculty of Engineering, University of Tokyo

>  <COMMENT>  (1437) 
SMILES=Cc(n1)cc(C)o1
InChI=InChI=1S/C5H7NO/c1-4-3-5(2)7-6-4/h3H,1-2H3
computed SMILES=N=1OC(=CC1C)C
accession=JP009986
date=2016.01.19 (Created 2008.10.21, modified 2011.05.06)
author=KURARAY CO., LTD.
license=CC BY-NC-SA
exact mass=97.05276
ionization energy=70 eV
ion type=[M]+*
computed spectral entropy=2.1155248204689627
computed normalized entropy=0.6572247379426588
SPLASH=splash10-0f7k-9000000000-32507e190715b008cda0
submitter=submitter = University of Tokyo Team (Faculty of Engineering, University of Tokyo)
MoNA Rating=3.75

>  <NUM PEAKS>  (1437) 
25

>  <MASS SPECTRAL PEAKS>  (1437) 
26 3.6
27 11.8
28 15.1
37 0.12
38 2.3
39 10.4
40 2.8
41 0.5
42 5.7
43 49.1
44 1.1
51 0.2
52 3.4
53 1.8
54 52
55 2.48
56 1.1
63 1.2
65 1.4
68 0.2
82 86.4
83 4
96 1.1
97 99.99
98 8.3

$$$$

     RDKit          2D

  7  7  0  0  0  0  0  0  0  0999 V2000
   -0.0000   -1.5000    0.0000 C   0  0  0  0  0  0  0  0  0  0  0  0
   -1.3000    0.7500    0.0000 C   0  0  0  0  0  0  0  0  0  0  0  0
    1.3000    0.7500    0.0000 C   0  0  0  0  0  0  0  0  0  0  0  0
   -1.3000    2.2500    0.0000 C   0  0  0  0  0  0  0  0  0  0  0  0
    1.3000    2.2500    0.0000 C   0  0  0  0  0  0  0  0  0  0  0  0
   -0.0000    0.0000    0.0000 C   0  0  0  0  0  0  0  0  0  0  0  0
    0.0000    3.0000    0.0000 O   0  0  0  0  0  0  0  0  0  0  0  0
  4  2  2  0
  5  3  1  0
  6  1  1  0
  6  2  1  0
  6  3  2  0
  7  4  1  0
  7  5  1  0
M  END
>  <NAME>  (1438) 
4-METHYL-2H-PYRAN

>  <SYNONYMS>  (1438) 


>  <SPECTRUM TYPE>  (1438) 
MS1

>  <INSTRUMENT TYPE>  (1438) 
EI-B

>  <INSTRUMENT>  (1438) 
JEOL JMS-D-300

>  <ION MODE>  (1438) 
P

>  <INCHIKEY>  (1438) 
OOARNVHTYGBULA-UHFFFAOYSA-N

>  <FORMULA>  (1438) 
C6H8O

>  <EXACT MASS>  (1438) 
96.057514876

>  <MW>  (1438) 
96

>  <ID>  (1438) 
JP009985

>  <CONTRIBUTOR>  (1438) 
University of Tokyo Team, {Faculty of Engineering, University of Tokyo

>  <COMMENT>  (1438) 
SMILES=CC(=C1)C=COC1
InChI=InChI=1S/C6H8O/c1-6-2-4-7-5-3-6/h2-4H,5H2,1H3
computed SMILES=O1C=CC(=CC1)C
accession=JP009985
date=2016.01.19 (Created 2008.10.21, modified 2011.05.06)
author=KURARAY CO., LTD.
license=CC BY-NC-SA
exact mass=96.05751
ionization energy=70 eV
ion type=[M]+*
computed spectral entropy=1.715082964293495
computed normalized entropy=0.7448510673989367
SPLASH=splash10-0002-9000000000-d24bfbf1b6bca5199ba9
submitter=submitter = University of Tokyo Team (Faculty of Engineering, University of Tokyo)
MoNA Rating=3.75

>  <NUM PEAKS>  (1438) 
10

>  <MASS SPECTRAL PEAKS>  (1438) 
29 4.6
39 27.5
40 2.1
41 2
43 12.1
53 16.5
67 18.6
81 4.71
95 44.9
96 99.99

$$$$

     RDKit          2D

  7  6  0  0  0  0  0  0  0  0999 V2000
   -3.5724    3.9375    0.0000 C   0  0  0  0  0  0  0  0  0  0  0  0
   -0.9743    0.9375    0.0000 C   0  0  0  0  0  0  0  0  0  0  0  0
   -2.2733    3.1875    0.0000 C   0  0  0  0  0  0  0  0  0  0  0  0
    0.3248    3.1875    0.0000 C   0  0  0  0  0  0  0  0  0  0  0  0
    1.6238    2.4375    0.0000 C   0  0  0  0  0  0  0  0  0  0  0  0
   -0.9743    2.4375    0.0000 C   0  0  0  0  0  0  0  0  0  0  0  0
    2.9228    3.1875    0.0000 O   0  0  0  0  0  0  0  0  0  0  0  0
  3  1  3  0
  5  4  1  0
  6  2  1  0
  6  3  1  0
  4  6  2  0
  7  5  1  0
M  END
>  <NAME>  (1439) 
3-METHYL-2-PENTE-4-YNE-1-OL

>  <SYNONYMS>  (1439) 


>  <SPECTRUM TYPE>  (1439) 
MS1

>  <INSTRUMENT TYPE>  (1439) 
EI-B

>  <INSTRUMENT>  (1439) 
JEOL JMS-D-300

>  <ION MODE>  (1439) 
P

>  <INCHIKEY>  (1439) 
ZSJHASYJQIRSLE-GQCTYLIASA-N

>  <FORMULA>  (1439) 
C6H8O

>  <EXACT MASS>  (1439) 
96.057514876

>  <MW>  (1439) 
96

>  <ID>  (1439) 
JP009984

>  <CONTRIBUTOR>  (1439) 
University of Tokyo Team, {Faculty of Engineering, University of Tokyo

>  <COMMENT>  (1439) 
SMILES=OCC=C(C)C#C
InChI=InChI=1S/C6H8O/c1-3-6(2)4-5-7/h1,4,7H,5H2,2H3/b6-4+
computed SMILES=C#CC(=CCO)C
accession=JP009984
date=2016.01.19 (Created 2008.10.21, modified 2011.05.06)
author=KURARAY CO., LTD.
license=CC BY-NC-SA
exact mass=96.05751
ionization energy=70 eV
ion type=[M]+*
computed spectral entropy=2.9498659373601632
computed normalized entropy=0.7943472980660605
SPLASH=splash10-0fsi-9000000000-9eb37e1365ac216362fc
submitter=submitter = University of Tokyo Team (Faculty of Engineering, University of Tokyo)
MoNA Rating=3.75

>  <NUM PEAKS>  (1439) 
41

>  <MASS SPECTRAL PEAKS>  (1439) 
26 2.3
27 20.2
28 26.1
29 0.62
31 6.8
32 4.4
37 3.1
38 0.55
39 36.9
40 10.1
41 47.5
42 0.57
43 13.5
44 2.1
45 3
49 0.27
50 17
51 28.8
52 15.6
53 5.05
54 3.7
55 4.1
61 2.7
62 0.51
63 8.2
64 1.5
65 17.2
66 0.5
67 40.1
68 8.3
69 1.4
73 0.14
74 1.3
77 13.1
78 5.6
79 0.4
81 99.99
82 6.8
94 1.1
95 8.09
96 14.7

$$$$

     RDKit          2D

  7  6  0  0  0  0  0  0  0  0999 V2000
   -2.1397    4.0147    0.0000 C   0  0  0  0  0  0  0  0  0  0  0  0
    3.0565    2.5147    0.0000 C   0  0  0  0  0  0  0  0  0  0  0  0
   -0.5058    1.3656    0.0000 C   0  0  0  0  0  0  0  0  0  0  0  0
   -0.8406    3.2647    0.0000 C   0  0  0  0  0  0  0  0  0  0  0  0
    1.7574    3.2647    0.0000 C   0  0  0  0  0  0  0  0  0  0  0  0
    0.4584    2.5147    0.0000 C   0  0  0  0  0  0  0  0  0  0  0  0
    1.4226    1.3656    0.0000 O   0  0  0  0  0  0  0  0  0  0  0  0
  4  1  3  0
  5  2  2  0
  6  3  1  0
  6  4  1  0
  6  5  1  0
  7  6  1  0
M  END
>  <NAME>  (1440) 
3-METHYL-1-PENTEN-4-YNE-3-OL

>  <SYNONYMS>  (1440) 


>  <SPECTRUM TYPE>  (1440) 
MS1

>  <INSTRUMENT TYPE>  (1440) 
EI-B

>  <INSTRUMENT>  (1440) 
JEOL JMS-D-300

>  <ION MODE>  (1440) 
P

>  <INCHIKEY>  (1440) 
VBATUBQIYXCZPA-UHFFFAOYSA-N

>  <FORMULA>  (1440) 
C6H8O

>  <EXACT MASS>  (1440) 
96.057514876

>  <MW>  (1440) 
96

>  <ID>  (1440) 
JP009983

>  <CONTRIBUTOR>  (1440) 
University of Tokyo Team, {Faculty of Engineering, University of Tokyo

>  <COMMENT>  (1440) 
SMILES=C=CC(C)(O)C#C
InChI=InChI=1S/C6H8O/c1-4-6(3,7)5-2/h1,5,7H,2H2,3H3
computed SMILES=C#CC(O)(C=C)C
accession=JP009983
exact mass=96.05751
date=2016.01.19 (Created 2008.10.21, modified 2011.05.06)
author=KURARAY CO., LTD.
license=CC BY-NC-SA
ionization energy=70 eV
ion type=[M]+*
computed spectral entropy=2.473207057976771
computed normalized entropy=0.7073363962466239
SPLASH=splash10-001i-9000000000-7c1b16afe3f83ae094d5
submitter=submitter = University of Tokyo Team (Faculty of Engineering, University of Tokyo)
MoNA Rating=3.75

>  <NUM PEAKS>  (1440) 
33

>  <MASS SPECTRAL PEAKS>  (1440) 
26 3.3
27 12.9
28 30.2
29 0.16
31 1.2
32 5.6
37 1.3
38 0.21
39 7.5
41 4
42 1.3
43 3.9
44 1.2
50 6.2
51 13.5
52 0.52
53 28.8
54 2.6
55 11.3
61 0.12
62 1.3
63 2.3
67 5.7
68 0.2
69 18.4
70 1.8
77 7.7
78 0.28
79 2.8
81 99.99
82 5.7
95 1.28
96 1.3

$$$$

     RDKit          2D

  6  5  0  0  0  0  0  0  0  0999 V2000
    0.0000    0.0000    0.0000 C   0  0  0  0  0  0  0  0  0  0  0  0
   -2.5981    4.5000    0.0000 C   0  0  0  0  0  0  0  0  0  0  0  0
   -1.2990    2.2500    0.0000 C   0  0  0  0  0  0  0  0  0  0  0  0
    0.0000    1.5000    0.0000 C   0  0  0  0  0  0  0  0  0  0  0  0
    1.2990    2.2500    0.0000 O   0  0  0  0  0  0  0  0  0  0  0  0
   -1.2990    3.7500    0.0000 O   0  0  0  0  0  0  0  0  0  0  0  0
  4  1  1  0
  4  3  1  0
  5  4  1  0
  6  2  1  0
  6  3  1  0
M  END
>  <NAME>  (1441) 
1-METHOXY-2-PROPANOL

>  <SYNONYMS>  (1441) 


>  <SPECTRUM TYPE>  (1441) 
MS1

>  <INSTRUMENT TYPE>  (1441) 
EI-B

>  <INSTRUMENT>  (1441) 
JEOL JMS-D-300

>  <ION MODE>  (1441) 
P

>  <INCHIKEY>  (1441) 
ARXJGSRGQADJSQ-UHFFFAOYSA-N

>  <FORMULA>  (1441) 
C4H10O2

>  <EXACT MASS>  (1441) 
90.06807956

>  <MW>  (1441) 
90

>  <ID>  (1441) 
JP009982

>  <CONTRIBUTOR>  (1441) 
University of Tokyo Team, {Faculty of Engineering, University of Tokyo

>  <COMMENT>  (1441) 
SMILES=COCC(C)O
InChI=InChI=1S/C4H10O2/c1-4(5)3-6-2/h4-5H,3H2,1-2H3
computed SMILES=OC(C)COC
accession=JP009982
date=2016.01.19 (Created 2008.10.21, modified 2011.05.06)
author=KURARAY CO., LTD.
license=CC BY-NC-SA
exact mass=90.06808
ionization energy=70 eV
ion type=[M]+*
computed spectral entropy=1.267166349445417
computed normalized entropy=0.6093782027754249
SPLASH=splash10-0002-9000000000-ce082fe9b7e2d32f567c
submitter=submitter = University of Tokyo Team (Faculty of Engineering, University of Tokyo)
MoNA Rating=3.75

>  <NUM PEAKS>  (1441) 
8

>  <MASS SPECTRAL PEAKS>  (1441) 
27 7.1
28 3.5
29 4.1
31 1.65
45 99.99
46 8.7
47 34.8
75 6.5

$$$$

     RDKit          2D

  6  5  0  0  0  0  0  0  0  0999 V2000
   -1.2990    0.7500    0.0000 C   0  0  0  0  0  0  0  0  0  0  0  0
    0.0000    3.0000    0.0000 C   0  0  0  0  0  0  0  0  0  0  0  0
   -2.5981    3.0000    0.0000 C   0  0  0  0  0  0  0  0  0  0  0  0
   -1.2990    2.2500    0.0000 C   0  0  0  0  0  0  0  0  0  0  0  0
    1.2990    2.2500    0.0000 O   0  0  0  0  0  0  0  0  0  0  0  0
   -3.8971    2.2500    0.0000 O   0  0  0  0  0  0  0  0  0  0  0  0
  4  1  1  0
  4  2  1  0
  4  3  1  0
  5  2  1  0
  6  3  1  0
M  END
>  <NAME>  (1442) 
2-METHYLPROPANE-1,3-DIOL

>  <SYNONYMS>  (1442) 


>  <SPECTRUM TYPE>  (1442) 
MS1

>  <INSTRUMENT TYPE>  (1442) 
EI-B

>  <INSTRUMENT>  (1442) 
JEOL JMS-D-300

>  <ION MODE>  (1442) 
P

>  <INCHIKEY>  (1442) 
QWGRWMMWNDWRQN-UHFFFAOYSA-N

>  <FORMULA>  (1442) 
C4H10O2

>  <EXACT MASS>  (1442) 
90.06807956

>  <MW>  (1442) 
90

>  <ID>  (1442) 
JP009981

>  <CONTRIBUTOR>  (1442) 
University of Tokyo Team, {Faculty of Engineering, University of Tokyo

>  <COMMENT>  (1442) 
SMILES=OCC(C)CO
InChI=InChI=1S/C4H10O2/c1-4(2-5)3-6/h4-6H,2-3H2,1H3
computed SMILES=OCC(C)CO
accession=JP009981
date=2016.01.19 (Created 2008.10.21, modified 2011.05.06)
author=KURARAY CO., LTD.
license=CC BY-NC-SA
exact mass=90.06808
ionization energy=70 eV
ion type=[M]+*
computed spectral entropy=2.51515479976361
computed normalized entropy=0.732429869417846
SPLASH=splash10-0006-9000000000-65f6c7dc45d51ea5a1d1
submitter=submitter = University of Tokyo Team (Faculty of Engineering, University of Tokyo)
MoNA Rating=3.75

>  <NUM PEAKS>  (1442) 
31

>  <MASS SPECTRAL PEAKS>  (1442) 
26 2.6
27 17.4
28 11.4
29 3.18
30 3.4
31 79.2
32 1.8
39 1.63
40 7.1
41 61.1
42 99.99
43 3.42
44 7.5
45 5.4
47 2.3
49 2.2
54 3.9
55 8.2
56 1.7
57 7.75
58 5.9
59 18
60 6.5
70 0.17
71 7.3
72 22.6
73 2.3
75 2.11
87 1.8
89 3
117 1.4

$$$$

     RDKit          2D

  5  4  0  0  0  0  0  0  0  0999 V2000
   -3.8971    2.2500    0.0000 C   0  0  0  0  0  0  0  0  0  0  0  0
   -2.5981    1.5000    0.0000 C   0  0  0  0  0  0  0  0  0  0  0  0
   -1.2990    2.2500    0.0000 C   0  0  0  0  0  0  0  0  0  0  0  0
    0.0000    1.5000    0.0000 C   0  0  0  0  0  0  0  0  0  0  0  0
    1.2990    2.2500    0.0000 Cl  0  0  0  0  0  0  0  0  0  0  0  0
  2  1  2  0
  3  2  1  0
  4  3  1  0
  5  4  1  0
M  END
>  <NAME>  (1443) 
4-CHLORO-1-BUTENE

>  <SYNONYMS>  (1443) 


>  <SPECTRUM TYPE>  (1443) 
MS1

>  <INSTRUMENT TYPE>  (1443) 
EI-B

>  <INSTRUMENT>  (1443) 
JEOL JMS-D-300

>  <ION MODE>  (1443) 
P

>  <INCHIKEY>  (1443) 
WKEVRZCQFQDCIR-UHFFFAOYSA-N

>  <FORMULA>  (1443) 
C4H7Cl

>  <EXACT MASS>  (1443) 
90.023627904

>  <MW>  (1443) 
90

>  <ID>  (1443) 
JP009980

>  <CONTRIBUTOR>  (1443) 
University of Tokyo Team, {Faculty of Engineering, University of Tokyo

>  <COMMENT>  (1443) 
SMILES=C=CCCCl
InChI=InChI=1S/C4H7Cl/c1-2-3-4-5/h2H,1,3-4H2
computed SMILES=ClCCC=C
accession=JP009980
date=2016.01.19 (Created 2008.10.21, modified 2011.05.06)
author=KURARAY CO., LTD.
license=CC BY-NC-SA
exact mass=90.02363
ionization energy=70 eV
ion type=[M]+*
computed spectral entropy=2.0646334156677897
computed normalized entropy=0.6679408150556565
SPLASH=splash10-0a4i-9000000000-12e6cfd14d43328e960e
submitter=submitter = University of Tokyo Team (Faculty of Engineering, University of Tokyo)
MoNA Rating=3.75

>  <NUM PEAKS>  (1443) 
22

>  <MASS SPECTRAL PEAKS>  (1443) 
26 1.6
27 10.6
28 3.5
29 0.36
39 7.6
41 20.7
49 5.7
51 0.23
53 3.5
54 10.8
55 99.99
56 0.43
61 1.1
62 15.7
63 6.5
64 0.55
65 1.6
75 6.5
77 2.5
90 2.71
91 1.6
92 9.1

$$$$

     RDKit          2D

  6  5  0  0  0  0  0  0  0  0999 V2000
   -1.2990    2.2500    0.0000 C   0  0  0  0  0  0  0  0  0  0  0  0
    1.2990    2.2500    0.0000 N   0  0  0  0  0  0  0  0  0  0  0  0
   -3.8971    2.2500    0.0000 N   0  0  0  0  0  0  0  0  0  0  0  0
    0.0000    3.0000    0.0000 N   0  0  0  0  0  0  0  0  0  0  0  0
   -2.5981    3.0000    0.0000 N   0  0  0  0  0  0  0  0  0  0  0  0
   -1.2990    0.7500    0.0000 O   0  0  0  0  0  0  0  0  0  0  0  0
  4  1  2  3
  4  2  1  0
  5  1  1  0
  5  3  1  0
  6  1  1  0
M  END
>  <NAME>  (1444) 
1,3-DIAMINOUREA

>  <SYNONYMS>  (1444) 
CARBOHYDRAZIDE

>  <SPECTRUM TYPE>  (1444) 
MS1

>  <INSTRUMENT TYPE>  (1444) 
EI-B

>  <INSTRUMENT>  (1444) 
JEOL JMS-D-300

>  <ION MODE>  (1444) 
P

>  <INCHIKEY>  (1444) 
XEVRDFDBXJMZFG-UHFFFAOYSA-N

>  <FORMULA>  (1444) 
CH6N4O

>  <EXACT MASS>  (1444) 
90.05416081199999

>  <MW>  (1444) 
90

>  <ID>  (1444) 
JP009979

>  <CONTRIBUTOR>  (1444) 
University of Tokyo Team, {Faculty of Engineering, University of Tokyo

>  <COMMENT>  (1444) 
SMILES=NNC(=O)NN
InChI=InChI=1S/CH6N4O/c2-4-1(6)5-3/h2-3H2,(H2,4,5,6)
computed SMILES=OC(=NN)NN
accession=JP009979
date=2016.01.19 (Created 2008.10.21, modified 2011.05.06)
author=KURARAY CO., LTD.
license=CC BY-NC-SA
exact mass=90.05416
ionization energy=70 eV
ion type=[M]+*
computed spectral entropy=1.7773802356022466
computed normalized entropy=0.715270425049522
SPLASH=splash10-001i-9000000000-6ca0a19c624deee04288
submitter=submitter = University of Tokyo Team (Faculty of Engineering, University of Tokyo)
MoNA Rating=3.75

>  <NUM PEAKS>  (1444) 
12

>  <MASS SPECTRAL PEAKS>  (1444) 
28 18.2
29 12.7
30 11.4
31 4.68
32 99.99
33 3.3
42 3.8
43 0.95
44 15.4
59 5.1
74 8.1
90 14.4

$$$$

     RDKit          2D

  6  5  0  0  0  0  0  0  0  0999 V2000
    0.0000    0.0000    0.0000 C   0  0  0  0  0  0  0  0  0  0  0  0
   -2.5981    4.5000    0.0000 C   0  0  0  0  0  0  0  0  0  0  0  0
   -1.2990    2.2500    0.0000 C   0  0  0  0  0  0  0  0  0  0  0  0
    0.0000    1.5000    0.0000 C   0  0  0  0  0  0  0  0  0  0  0  0
    1.2990    2.2500    0.0000 O   0  0  0  0  0  0  0  0  0  0  0  0
   -1.2990    3.7500    0.0000 O   0  0  0  0  0  0  0  0  0  0  0  0
  4  1  1  0
  4  3  1  0
  5  4  2  0
  6  2  1  0
  6  3  1  0
M  END
>  <NAME>  (1445) 
1-METHOXY-2-PROPANONE

>  <SYNONYMS>  (1445) 
PROPANE-2-ONE-1-METHOXY

>  <SPECTRUM TYPE>  (1445) 
MS1

>  <INSTRUMENT TYPE>  (1445) 
EI-B

>  <INSTRUMENT>  (1445) 
JEOL JMS-D-300

>  <ION MODE>  (1445) 
P

>  <INCHIKEY>  (1445) 
CUZLJOLBIRPEFB-UHFFFAOYSA-N

>  <FORMULA>  (1445) 
C4H8O2

>  <EXACT MASS>  (1445) 
88.052429496

>  <MW>  (1445) 
88

>  <ID>  (1445) 
JP009978

>  <CONTRIBUTOR>  (1445) 
University of Tokyo Team, {Faculty of Engineering, University of Tokyo

>  <COMMENT>  (1445) 
SMILES=COCC(C)=O
InChI=InChI=1S/C4H8O2/c1-4(5)3-6-2/h3H2,1-2H3
computed SMILES=O=C(C)COC
accession=JP009978
date=2016.01.19 (Created 2008.10.21, modified 2011.05.06)
author=KURARAY CO., LTD.
license=CC BY-NC-SA
exact mass=88.05243
ionization energy=70 eV
ion type=[M]+*
computed spectral entropy=1.6599053924739102
computed normalized entropy=0.6679950704045663
SPLASH=splash10-0005-9000000000-9036f805d43fcd591eb9
submitter=submitter = University of Tokyo Team (Faculty of Engineering, University of Tokyo)
MoNA Rating=3.75

>  <NUM PEAKS>  (1445) 
12

>  <MASS SPECTRAL PEAKS>  (1445) 
27 4.6
28 15.4
29 21.4
31 0.25
32 3.3
42 6.5
43 92
44 0.31
45 99.99
46 2.9
58 41.8
88 2.6

$$$$

     RDKit          2D

  6  6  0  0  0  0  0  0  0  0999 V2000
    2.1595   -0.2383    0.0000 C   0  0  0  0  0  0  0  0  0  0  0  0
   -0.0732    1.1914    0.0000 C   0  0  0  0  0  0  0  0  0  0  0  0
   -1.5429    0.8971    0.0000 C   0  0  0  0  0  0  0  0  0  0  0  0
   -0.3229   -1.2161    0.0000 C   0  0  0  0  0  0  0  0  0  0  0  0
    0.6668   -0.0904    0.0000 C   0  0  0  0  0  0  0  0  0  0  0  0
   -1.6900   -0.6082    0.0000 O   0  0  0  0  0  0  0  0  0  0  0  0
  3  2  1  0
  5  1  1  0
  5  2  1  0
  5  4  1  0
  6  3  1  0
  6  4  1  0
M  END
>  <NAME>  (1446) 
3-METHYLTETRAHYDROFURAN

>  <SYNONYMS>  (1446) 


>  <SPECTRUM TYPE>  (1446) 
MS1

>  <INSTRUMENT TYPE>  (1446) 
EI-B

>  <INSTRUMENT>  (1446) 
JEOL JMS-D-300

>  <ION MODE>  (1446) 
P

>  <INCHIKEY>  (1446) 
LJPCNSSTRWGCMZ-UHFFFAOYSA-N

>  <FORMULA>  (1446) 
C5H10O

>  <EXACT MASS>  (1446) 
86.07316494

>  <MW>  (1446) 
86

>  <ID>  (1446) 
JP009977

>  <CONTRIBUTOR>  (1446) 
University of Tokyo Team, {Faculty of Engineering, University of Tokyo

>  <COMMENT>  (1446) 
SMILES=CC(C1)COC1
InChI=InChI=1S/C5H10O/c1-5-2-3-6-4-5/h5H,2-4H2,1H3
computed SMILES=O1CCC(C)C1
accession=JP009977
date=2016.01.19 (Created 2008.10.21, modified 2011.05.06)
author=KURARAY CO., LTD.
license=CC BY-NC-SA
exact mass=86.07316
ionization energy=70 eV
ion type=[M]+*
computed spectral entropy=1.8478271538226827
computed normalized entropy=0.7001845443395778
SPLASH=splash10-0a4i-9000000000-6a76f0ae2cb8334f344c
submitter=submitter = University of Tokyo Team (Faculty of Engineering, University of Tokyo)
MoNA Rating=3.75

>  <NUM PEAKS>  (1446) 
14

>  <MASS SPECTRAL PEAKS>  (1446) 
27 9.7
28 3.2
29 14.3
39 1.05
41 58.4
42 4.9
43 3.9
44 0.61
55 13.6
56 99.99
57 10.1
71 0.7
85 5.6
86 25.1

$$$$

     RDKit          2D

  6  6  0  0  0  0  0  0  0  0999 V2000
    2.1595   -0.2383    0.0000 C   0  0  0  0  0  0  0  0  0  0  0  0
   -0.0732    1.1914    0.0000 C   0  0  0  0  0  0  0  0  0  0  0  0
   -1.5429    0.8971    0.0000 C   0  0  0  0  0  0  0  0  0  0  0  0
   -0.3229   -1.2161    0.0000 C   0  0  0  0  0  0  0  0  0  0  0  0
    0.6668   -0.0904    0.0000 C   0  0  0  0  0  0  0  0  0  0  0  0
   -1.6900   -0.6082    0.0000 O   0  0  0  0  0  0  0  0  0  0  0  0
  3  2  1  0
  5  1  1  0
  5  2  1  0
  5  4  2  0
  6  3  1  0
  6  4  1  0
M  END
>  <NAME>  (1447) 
3-METHYL-4,5-DIHYDROFURAN

>  <SYNONYMS>  (1447) 


>  <SPECTRUM TYPE>  (1447) 
MS1

>  <INSTRUMENT TYPE>  (1447) 
EI-B

>  <INSTRUMENT>  (1447) 
JEOL JMS-D-300

>  <ION MODE>  (1447) 
P

>  <INCHIKEY>  (1447) 
FWGYRFWKBWPRJD-UHFFFAOYSA-N

>  <FORMULA>  (1447) 
C5H8O

>  <EXACT MASS>  (1447) 
84.057514876

>  <MW>  (1447) 
84

>  <ID>  (1447) 
JP009976

>  <CONTRIBUTOR>  (1447) 
University of Tokyo Team, {Faculty of Engineering, University of Tokyo

>  <COMMENT>  (1447) 
SMILES=CC(C1)=COC1
InChI=InChI=1S/C5H8O/c1-5-2-3-6-4-5/h4H,2-3H2,1H3
computed SMILES=O1C=C(C)CC1
accession=JP009976
date=2016.01.19 (Created 2008.10.21, modified 2011.05.06)
author=KURARAY CO., LTD.
license=CC BY-NC-SA
exact mass=84.05751
ionization energy=70 eV
ion type=[M]+*
computed spectral entropy=2.2503649221524995
computed normalized entropy=0.7642762978194133
SPLASH=splash10-053r-9000000000-6292ffc16a02c4f6924c
submitter=submitter = University of Tokyo Team (Faculty of Engineering, University of Tokyo)
MoNA Rating=3.75

>  <NUM PEAKS>  (1447) 
19

>  <MASS SPECTRAL PEAKS>  (1447) 
26 4.7
27 26.9
28 5.8
29 3.76
32 1.9
39 33.8
41 32.1
43 0.76
44 4.9
51 4.9
53 19.9
54 1.17
55 99.99
56 16.2
57 6.2
69 1.16
83 42.7
84 86.7
85 5.2

$$$$

     RDKit          2D

  6  6  0  0  0  0  0  0  0  0999 V2000
   -0.8877    2.7675    0.0000 C   0  0  0  0  0  0  0  0  0  0  0  0
   -2.1867    0.5175    0.0000 C   0  0  0  0  0  0  0  0  0  0  0  0
    1.9122    0.5170    0.0000 C   0  0  0  0  0  0  0  0  0  0  0  0
   -0.8877    1.2675    0.0000 C   0  0  0  0  0  0  0  0  0  0  0  0
    0.4114    0.5175    0.0000 C   0  0  0  0  0  0  0  0  0  0  0  0
    1.1622   -0.7820    0.0000 O   0  0  0  0  0  0  0  0  0  0  0  0
  4  1  2  0
  4  2  1  0
  5  3  1  0
  5  4  1  0
  6  3  1  0
  6  5  1  0
M  END
>  <NAME>  (1448) 
2-METHYL-3,4-EPOXY-1-BUTENE

>  <SYNONYMS>  (1448) 
2-ISOPROPENYLOXIRANE

>  <SPECTRUM TYPE>  (1448) 
MS1

>  <INSTRUMENT TYPE>  (1448) 
EI-B

>  <INSTRUMENT>  (1448) 
JEOL JMS-D-300

>  <ION MODE>  (1448) 
P

>  <INCHIKEY>  (1448) 
JZQHTTYHPIAPCZ-UHFFFAOYSA-N

>  <FORMULA>  (1448) 
C5H8O

>  <EXACT MASS>  (1448) 
84.057514876

>  <MW>  (1448) 
84

>  <ID>  (1448) 
JP009975

>  <CONTRIBUTOR>  (1448) 
University of Tokyo Team, {Faculty of Engineering, University of Tokyo

>  <COMMENT>  (1448) 
SMILES=CC(=C)C(C1)O1
InChI=InChI=1S/C5H8O/c1-4(2)5-3-6-5/h5H,1,3H2,2H3
computed SMILES=O1CC1C(=C)C
accession=JP009975
date=2016.01.19 (Created 2008.10.21, modified 2011.05.06)
author=KURARAY CO., LTD.
license=CC BY-NC-SA
exact mass=84.05751
ionization energy=70 eV
ion type=[M]+*
computed spectral entropy=2.627047058988525
computed normalized entropy=0.8063134496879674
SPLASH=splash10-0f79-9000000000-bee62335a0cb5175ea2d
submitter=submitter = University of Tokyo Team (Faculty of Engineering, University of Tokyo)
MoNA Rating=3.75

>  <NUM PEAKS>  (1448) 
26

>  <MASS SPECTRAL PEAKS>  (1448) 
26 5.8
27 20
28 9.5
29 1.62
30 3.4
37 8.3
38 17.5
39 99.99
40 8.1
41 30
42 4.7
43 0.47
49 4.3
50 21.1
51 19.6
52 1.07
53 52.6
54 13.4
55 50.9
56 4.27
57 3.6
67 2.1
68 2.1
69 2.34
83 35.7
84 10.5

$$$$

     RDKit          2D

  5  4  0  0  0  0  0  0  0  0999 V2000
    1.9486    1.8750    0.0000 C   0  0  0  0  0  0  0  0  0  0  0  0
    0.6495    2.6250    0.0000 C   0  0  0  0  0  0  0  0  0  0  0  0
   -0.6495    3.3750    0.0000 C   0  0  0  0  0  0  0  0  0  0  0  0
   -1.9486    4.1250    0.0000 C   0  0  0  0  0  0  0  0  0  0  0  0
   -3.2476    3.3750    0.0000 O   0  0  0  0  0  0  0  0  0  0  0  0
  2  1  1  0
  3  2  3  0
  4  3  1  0
  5  4  1  0
M  END
>  <NAME>  (1449) 
2-BUTYN-1-OL

>  <SYNONYMS>  (1449) 


>  <SPECTRUM TYPE>  (1449) 
MS1

>  <INSTRUMENT TYPE>  (1449) 
EI-B

>  <INSTRUMENT>  (1449) 
JEOL JMS-D-300

>  <ION MODE>  (1449) 
P

>  <INCHIKEY>  (1449) 
NEEDEQSZOUAJMU-UHFFFAOYSA-N

>  <FORMULA>  (1449) 
C4H6O

>  <EXACT MASS>  (1449) 
70.041864812

>  <MW>  (1449) 
70

>  <ID>  (1449) 
JP009974

>  <CONTRIBUTOR>  (1449) 
University of Tokyo Team, {Faculty of Engineering, University of Tokyo

>  <COMMENT>  (1449) 
SMILES=CC#CCO
InChI=InChI=1S/C4H6O/c1-2-3-4-5/h5H,4H2,1H3
computed SMILES=OCC#CC
accession=JP009974
date=2016.01.19 (Created 2008.10.21, modified 2011.05.06)
author=KURARAY CO., LTD.
license=CC BY-NC-SA
exact mass=70.04186
ionization energy=70 eV
ion type=[M]+*
computed spectral entropy=2.609406872441528
computed normalized entropy=0.7598767022292249
SPLASH=splash10-016u-9000000000-04998d1b907b82a7dffd
submitter=submitter = University of Tokyo Team (Faculty of Engineering, University of Tokyo)
MoNA Rating=3.75

>  <NUM PEAKS>  (1449) 
31

>  <MASS SPECTRAL PEAKS>  (1449) 
26 4.2
27 28.3
28 26.9
29 1.17
30 2.3
31 6.9
32 4.5
34 0.18
36 1.6
37 7.4
38 9.8
39 4.12
40 6.4
41 22.8
42 38.9
43 0.89
44 3.5
49 3.4
50 12.2
51 1.49
52 7.8
53 16.4
54 1.9
55 0.9
66 1.1
67 2.7
68 4
69 99.99
70 14.3
71 2
75 1.2

$$$$

     RDKit          2D

 23 25  0  0  0  0  0  0  0  0999 V2000
   10.8510   -1.3011    0.0000 C   0  0  0  0  0  0  0  0  0  0  0  0
    8.6006   -2.5994    0.0000 C   0  0  0  0  0  0  0  0  0  0  0  0
   -2.3100   -0.7500    0.0000 C   0  0  0  0  0  0  0  0  0  0  0  0
   -2.3100    0.7500    0.0000 C   0  0  0  0  0  0  0  0  0  0  0  0
   -1.0100   -1.5000    0.0000 C   0  0  0  0  0  0  0  0  0  0  0  0
   -1.0100    1.5000    0.0000 C   0  0  0  0  0  0  0  0  0  0  0  0
    9.3517    1.2976    0.0000 C   0  0  0  0  0  0  0  0  0  0  0  0
    8.6010    2.5972    0.0000 C   0  0  0  0  0  0  0  0  0  0  0  0
    7.1006   -0.0006    0.0000 C   0  0  0  0  0  0  0  0  0  0  0  0
    8.6015   -0.0013    0.0000 C   0  0  0  0  0  0  0  0  0  0  0  0
    7.1002    2.5980    0.0000 C   0  0  0  0  0  0  0  0  0  0  0  0
    0.2900   -0.7500    0.0000 C   0  0  0  0  0  0  0  0  0  0  0  0
    6.3500    1.2990    0.0000 C   0  0  0  0  0  0  0  0  0  0  0  0
    0.2900    0.7500    0.0000 C   0  0  0  0  0  0  0  0  0  0  0  0
    6.3506    3.8972    0.0000 C   0  0  0  0  0  0  0  0  0  0  0  0
    2.6000    0.0000    0.0000 C   0  0  0  0  0  0  0  0  0  0  0  0
    1.7200   -1.2100    0.0000 N   0  0  0  0  0  0  0  0  0  0  0  0
    4.8500    1.2990    0.0000 N   0  0  0  0  0  0  0  0  0  0  0  0
    4.1000   -0.0000    0.0000 N   0  0  0  0  0  0  0  0  0  0  0  0
    9.3510   -1.3006    0.0000 N   0  0  0  0  0  0  0  0  0  0  0  0
    4.8506    3.8977    0.0000 O   0  0  0  0  0  0  0  0  0  0  0  0
    7.1010    5.1960    0.0000 O   0  0  0  0  0  0  0  0  0  0  0  0
    1.7200    1.2100    0.0000 S   0  0  0  0  0  0  0  0  0  0  0  0
  4  3  2  0
  5  3  1  0
  6  4  1  0
  8  7  2  0
 10  7  1  0
 10  9  2  0
 11  8  1  0
 12  5  2  0
 13  9  1  0
 13 11  2  0
 14  6  2  0
 14 12  1  0
 15 11  1  0
 17 12  1  0
 17 16  2  0
 18 13  1  0
 19 16  1  0
 18 19  2  0
 20  1  1  0
 20  2  1  0
 20 10  1  0
 21 15  2  0
 22 15  1  0
 23 14  1  0
 23 16  1  0
M  END
>  <NAME>  (1450) 
2-(2-BENZOTHIAZOLYL)AZO-4-(N,N-DIMETHYL)AMINOBENZOIC ACID

>  <SYNONYMS>  (1450) 


>  <SPECTRUM TYPE>  (1450) 
MS1

>  <INSTRUMENT TYPE>  (1450) 
EI-B

>  <INSTRUMENT>  (1450) 
JEOL JMS-D-300

>  <ION MODE>  (1450) 
P

>  <INCHIKEY>  (1450) 
IUIWKULRUPRNEN-VHEBQXMUSA-N

>  <FORMULA>  (1450) 
C16H14N4O2S

>  <EXACT MASS>  (1450) 
326.083746688

>  <MW>  (1450) 
326

>  <ID>  (1450) 
JP009973

>  <CONTRIBUTOR>  (1450) 
University of Tokyo Team, {Faculty of Engineering, University of Tokyo

>  <COMMENT>  (1450) 
SMILES=CN(C)c(c1)cc(N=Nc(n2)sc(c3)c(ccc3)2)c(C(O)=O)c1
InChI=InChI=1S/C16H14N4O2S/c1-20(2)10-7-8-11(15(21)22)13(9-10)18-19-16-17-12-5-3-4-6-14(12)23-16/h3-9H,1-2H3,(H,21,22)/b19-18+
computed SMILES=O=C(O)C1=CC=C(C=C1N=NC2=NC=3C=CC=CC3S2)N(C)C
accession=JP009973
date=2016.01.19 (Created 2008.10.21, modified 2011.05.06)
author=KURARAY CO., LTD.
license=CC BY-NC-SA
exact mass=326.08375
ionization energy=70 eV
ion type=[M]+*
computed spectral entropy=3.163143784001984
computed normalized entropy=0.6883702465147533
SPLASH=splash10-0fl0-4890000000-b400a2b6094ff4f3337e
submitter=submitter = University of Tokyo Team (Faculty of Engineering, University of Tokyo)
MoNA Rating=3.75

>  <NUM PEAKS>  (1450) 
99

>  <MASS SPECTRAL PEAKS>  (1450) 
27 0.8
38 0.4
39 3.5
41 0.07
42 21.2
50 2.4
51 3.1
52 0.16
53 1.1
54 0.5
58 0.4
62 0.03
63 5.8
64 2.3
65 4.3
66 0.18
67 0.8
68 1.5
69 2.7
70 0.11
74 0.1
75 0.8
76 2.8
77 1.91
78 10.3
79 13.2
80 2.2
81 0.08
82 1.1
89 0.4
90 7.8
91 0.96
92 6.6
93 5
94 1.6
95 0.09
96 0.9
102 0.3
103 2
104 1.66
105 23.2
106 2.3
107 1.6
108 0.19
109 0.8
117 1.1
118 7.3
119 0.97
120 99.99
121 9.2
122 1.2
123 0.09
126 0.5
127 15
128 1.9
131 0.18
132 0.3
133 2.3
134 3.4
135 0.2
136 0.8
141 1.4
145 0.5
148 0.97
149 1.2
150 5.3
151 0.8
152 0.08
159 1.9
163 0.4
176 2.3
177 0.58
178 1.2
209 0.3
210 2.2
211 0.16
212 0.5
223 0.5
224 0.8
228 0.01
237 1.8
238 2.7
239 2.3
240 0.09
251 0.7
253 24.7
254 55.3
255 1.11
256 3.1
257 0.5
268 0.3
281 0.27
282 78.6
283 15.8
284 5.4
285 0.09
325 0.9
326 2.1
327 0.5

$$$$

     RDKit          2D

 23 23  0  0  0  0  0  0  0  0999 V2000
    7.7948    3.0010    0.0000 C   0  0  0  0  0  0  0  0  0  0  0  0
   12.9910    3.0019    0.0000 C   0  0  0  0  0  0  0  0  0  0  0  0
   -2.5989   -1.5002    0.0000 C   0  0  0  0  0  0  0  0  0  0  0  0
   16.8885    0.7525    0.0000 C   0  0  0  0  0  0  0  0  0  0  0  0
   10.3931    1.5015    0.0000 C   0  0  0  0  0  0  0  0  0  0  0  0
    5.1970    1.5006    0.0000 C   0  0  0  0  0  0  0  0  0  0  0  0
    9.0942    0.7512    0.0000 C   0  0  0  0  0  0  0  0  0  0  0  0
    6.4962    0.7508    0.0000 C   0  0  0  0  0  0  0  0  0  0  0  0
   11.6923    0.7517    0.0000 C   0  0  0  0  0  0  0  0  0  0  0  0
    3.8981    0.7504    0.0000 C   0  0  0  0  0  0  0  0  0  0  0  0
   -1.3000    0.7500    0.0000 C   0  0  0  0  0  0  0  0  0  0  0  0
   -0.0000   -1.5000    0.0000 C   0  0  0  0  0  0  0  0  0  0  0  0
   -0.0000    1.5000    0.0000 C   0  0  0  0  0  0  0  0  0  0  0  0
    1.3000   -0.7500    0.0000 C   0  0  0  0  0  0  0  0  0  0  0  0
    7.7951    1.5010    0.0000 C   0  0  0  0  0  0  0  0  0  0  0  0
   12.9912    1.5019    0.0000 C   0  0  0  0  0  0  0  0  0  0  0  0
    2.5989    1.5002    0.0000 C   0  0  0  0  0  0  0  0  0  0  0  0
   14.2904    0.7521    0.0000 C   0  0  0  0  0  0  0  0  0  0  0  0
   -1.3000   -0.7500    0.0000 N   0  0  0  0  0  0  0  0  0  0  0  0
    1.3000    0.7500    0.0000 N   0  0  0  0  0  0  0  0  0  0  0  0
    2.5987    3.0002    0.0000 O   0  0  0  0  0  0  0  0  0  0  0  0
   14.2906   -0.7479    0.0000 O   0  0  0  0  0  0  0  0  0  0  0  0
   15.5893    1.5023    0.0000 O   0  0  0  0  0  0  0  0  0  0  0  0
  7  5  1  0
  8  6  1  0
  9  5  1  0
 10  6  1  0
 13 11  1  0
 14 12  1  0
 15  1  1  0
 15  7  1  0
  8 15  2  0
 16  2  1  0
 16  9  1  0
 17 10  1  0
 18 16  1  0
 19  3  1  0
 19 11  1  0
 19 12  1  0
 20 13  1  0
 20 14  1  0
 20 17  1  0
 21 17  2  0
 22 18  2  0
 23  4  1  0
 23 18  1  0
M  END
>  <NAME>  (1451) 
METHYL 2,6-DIMETHYL-9-(N-METHYLPIPERAZINYLCARBAMOYL)-6-NONENOATE

>  <SYNONYMS>  (1451) 


>  <SPECTRUM TYPE>  (1451) 
MS1

>  <INSTRUMENT TYPE>  (1451) 
EI-B

>  <INSTRUMENT>  (1451) 
JEOL JMS-D-300

>  <ION MODE>  (1451) 
P

>  <INCHIKEY>  (1451) 
YOOYZUUMVILRGI-OVCLIPMQSA-N

>  <FORMULA>  (1451) 
C18H32N2O3

>  <EXACT MASS>  (1451) 
324.24129288399996

>  <MW>  (1451) 
324

>  <ID>  (1451) 
JP009972

>  <CONTRIBUTOR>  (1451) 
University of Tokyo Team, {Faculty of Engineering, University of Tokyo

>  <COMMENT>  (1451) 
SMILES=COC(=O)C(C)CCCC(C)=CCCC(=O)N(C1)CCN(C)C1
InChI=InChI=1S/C18H32N2O3/c1-15(7-5-9-16(2)18(22)23-4)8-6-10-17(21)20-13-11-19(3)12-14-20/h8,16H,5-7,9-14H2,1-4H3/b15-8+
computed SMILES=O=C(OC)C(C)CCCC(=CCCC(=O)N1CCN(C)CC1)C
accession=JP009972
date=2016.01.19 (Created 2008.10.21, modified 2011.05.06)
author=KURARAY CO., LTD.
license=CC BY-NC-SA
exact mass=324.24129
ionization energy=70 eV
ion type=[M]+*
computed spectral entropy=2.4707384953336593
computed normalized entropy=0.8720622823964207
SPLASH=splash10-05fr-9101000000-8cc3811532666396ae4f
submitter=submitter = University of Tokyo Team (Faculty of Engineering, University of Tokyo)
MoNA Rating=3.75

>  <NUM PEAKS>  (1451) 
17

>  <MASS SPECTRAL PEAKS>  (1451) 
28 52.5
32 12.7
43 19.8
44 2.23
56 23.8
57 34.8
58 52.2
70 99.99
71 17.2
83 31.1
98 49.8
99 4.69
101 28.3
166 19.8
185 0.3
209 1.3
324 51.9

$$$$

     RDKit          2D

 22 22  0  0  0  0  0  0  0  0999 V2000
   -2.5989    1.5002    0.0000 C   0  0  0  0  0  0  0  0  0  0  0  0
   -2.5989   -1.5002    0.0000 C   0  0  0  0  0  0  0  0  0  0  0  0
    2.5989    1.5002    0.0000 C   0  0  0  0  0  0  0  0  0  0  0  0
   -1.2990    5.2500    0.0000 C   0  0  0  0  0  0  0  0  0  0  0  0
    1.2990   -5.2500    0.0000 C   0  0  0  0  0  0  0  0  0  0  0  0
    6.4962   -0.7508    0.0000 C   0  0  0  0  0  0  0  0  0  0  0  0
    2.5989   -1.5002    0.0000 C   0  0  0  0  0  0  0  0  0  0  0  0
   -1.3000    0.7500    0.0000 C   0  0  0  0  0  0  0  0  0  0  0  0
   -1.3000   -0.7500    0.0000 C   0  0  0  0  0  0  0  0  0  0  0  0
    1.3000    0.7500    0.0000 C   0  0  0  0  0  0  0  0  0  0  0  0
   -1.2990    3.7500    0.0000 C   0  0  0  0  0  0  0  0  0  0  0  0
    1.2990   -3.7500    0.0000 C   0  0  0  0  0  0  0  0  0  0  0  0
    5.1970   -1.5006    0.0000 C   0  0  0  0  0  0  0  0  0  0  0  0
    1.3000   -0.7500    0.0000 C   0  0  0  0  0  0  0  0  0  0  0  0
   -0.0000    1.5000    0.0000 C   0  0  0  0  0  0  0  0  0  0  0  0
   -0.0000   -1.5000    0.0000 C   0  0  0  0  0  0  0  0  0  0  0  0
   -2.5981    3.0000    0.0000 O   0  0  0  0  0  0  0  0  0  0  0  0
    2.5981   -3.0000    0.0000 O   0  0  0  0  0  0  0  0  0  0  0  0
    5.1968   -3.0006    0.0000 O   0  0  0  0  0  0  0  0  0  0  0  0
    0.0000    3.0000    0.0000 O   0  0  0  0  0  0  0  0  0  0  0  0
   -0.0000   -3.0000    0.0000 O   0  0  0  0  0  0  0  0  0  0  0  0
    3.8981   -0.7504    0.0000 S   0  0  0  0  0  0  0  0  0  0  0  0
  8  1  1  0
  9  2  1  0
  9  8  2  0
 10  3  1  0
 11  4  1  0
 12  5  1  0
 13  6  1  0
 14  7  1  0
 14 10  1  0
 15  8  1  0
 15 10  2  0
 16  9  1  0
 16 14  2  0
 17 11  2  0
 18 12  2  0
 19 13  2  0
 20 11  1  0
 20 15  1  0
 21 12  1  0
 21 16  1  0
 22  7  1  0
 22 13  1  0
M  END
>  <NAME>  (1452) 
S-(2,5-DIACETOXY-3,4,6-TRIMETHYL-PHENYLMETHYL)THIOACETATE

>  <SYNONYMS>  (1452) 


>  <SPECTRUM TYPE>  (1452) 
MS1

>  <INSTRUMENT TYPE>  (1452) 
EI-B

>  <INSTRUMENT>  (1452) 
JEOL JMS-D-300

>  <ION MODE>  (1452) 
P

>  <INCHIKEY>  (1452) 
TWCQSTWNXKQUGO-UHFFFAOYSA-N

>  <FORMULA>  (1452) 
C16H20O5S

>  <EXACT MASS>  (1452) 
324.10314474

>  <MW>  (1452) 
324

>  <ID>  (1452) 
JP009971

>  <CONTRIBUTOR>  (1452) 
University of Tokyo Team, {Faculty of Engineering, University of Tokyo

>  <COMMENT>  (1452) 
SMILES=CC(=O)SCc(c(C)1)c(OC(C)=O)c(C)c(C)c(OC(C)=O)1
InChI=InChI=1S/C16H20O5S/c1-8-9(2)16(21-12(5)18)14(7-22-13(6)19)10(3)15(8)20-11(4)17/h7H2,1-6H3
computed SMILES=O=C(OC=1C(=C(C(OC(=O)C)=C(C1C)CSC(=O)C)C)C)C
accession=JP009971
date=2016.01.19 (Created 2008.10.21, modified 2011.05.06)
author=KURARAY CO., LTD.
license=CC BY-NC-SA
exact mass=324.10314
ionization energy=70 eV
ion type=[M]+*
computed spectral entropy=2.412958636767506
computed normalized entropy=0.6200077218207973
SPLASH=splash10-01ox-2950000000-1146c973cf15c6acf4c7
submitter=submitter = University of Tokyo Team (Faculty of Engineering, University of Tokyo)
MoNA Rating=3.75

>  <NUM PEAKS>  (1452) 
49

>  <MASS SPECTRAL PEAKS>  (1452) 
39 0.9
41 0.6
43 46.6
53 0.33
54 0.2
65 0.5
67 1.4
77 0.14
79 1.3
85 0.2
91 4.2
93 0.05
105 0.6
107 2.7
119 0.2
121 0.56
122 1.3
134 0.3
135 4.7
136 0.51
137 1.4
151 2.3
152 1.3
153 0.13
163 2.8
164 99.99
165 46.4
166 0.59
179 0.5
180 0.2
181 0.9
195 0.19
196 1.6
197 14.2
198 35.3
199 0.45
200 1.6
205 0.2
206 0.5
207 1.36
208 1.4
239 2.2
240 74.2
241 1.05
242 3.9
282 42.7
283 6.7
284 0.23
324 4.7

$$$$

     RDKit          2D

 23 23  0  0  0  0  0  0  0  0999 V2000
    7.7948    3.0010    0.0000 C   0  0  0  0  0  0  0  0  0  0  0  0
   12.9910    3.0019    0.0000 C   0  0  0  0  0  0  0  0  0  0  0  0
   -2.5989   -1.5002    0.0000 C   0  0  0  0  0  0  0  0  0  0  0  0
   16.8885    0.7525    0.0000 C   0  0  0  0  0  0  0  0  0  0  0  0
   10.3931    1.5015    0.0000 C   0  0  0  0  0  0  0  0  0  0  0  0
    5.1970    1.5006    0.0000 C   0  0  0  0  0  0  0  0  0  0  0  0
    9.0942    0.7512    0.0000 C   0  0  0  0  0  0  0  0  0  0  0  0
    6.4962    0.7508    0.0000 C   0  0  0  0  0  0  0  0  0  0  0  0
   11.6923    0.7517    0.0000 C   0  0  0  0  0  0  0  0  0  0  0  0
    3.8981    0.7504    0.0000 C   0  0  0  0  0  0  0  0  0  0  0  0
   -1.3000    0.7500    0.0000 C   0  0  0  0  0  0  0  0  0  0  0  0
   -0.0000   -1.5000    0.0000 C   0  0  0  0  0  0  0  0  0  0  0  0
   -0.0000    1.5000    0.0000 C   0  0  0  0  0  0  0  0  0  0  0  0
    1.3000   -0.7500    0.0000 C   0  0  0  0  0  0  0  0  0  0  0  0
    7.7951    1.5010    0.0000 C   0  0  0  0  0  0  0  0  0  0  0  0
   12.9912    1.5019    0.0000 C   0  0  0  0  0  0  0  0  0  0  0  0
    2.5989    1.5002    0.0000 C   0  0  0  0  0  0  0  0  0  0  0  0
   14.2904    0.7521    0.0000 C   0  0  0  0  0  0  0  0  0  0  0  0
   -1.3000   -0.7500    0.0000 N   0  0  0  0  0  0  0  0  0  0  0  0
    1.3000    0.7500    0.0000 N   0  0  0  0  0  0  0  0  0  0  0  0
    2.5987    3.0002    0.0000 O   0  0  0  0  0  0  0  0  0  0  0  0
   14.2906   -0.7479    0.0000 O   0  0  0  0  0  0  0  0  0  0  0  0
   15.5893    1.5023    0.0000 O   0  0  0  0  0  0  0  0  0  0  0  0
  7  5  1  0
  8  6  1  0
  9  5  1  0
 10  6  1  0
 13 11  1  0
 14 12  1  0
 15  1  1  0
 15  7  1  0
  8 15  2  0
 16  2  1  0
  9 16  2  0
 17 10  1  0
 18 16  1  0
 19  3  1  0
 19 11  1  0
 19 12  1  0
 20 13  1  0
 20 14  1  0
 20 17  1  0
 21 17  2  0
 22 18  2  0
 23  4  1  0
 23 18  1  0
M  END
>  <NAME>  (1453) 
METHYL 2,6-DIMETHYL-9-(N-METHYLPIPERAZINYLCARBAMOYL)-2,6-NONADIENOATE

>  <SYNONYMS>  (1453) 


>  <SPECTRUM TYPE>  (1453) 
MS1

>  <INSTRUMENT TYPE>  (1453) 
EI-B

>  <INSTRUMENT>  (1453) 
JEOL JMS-D-300

>  <ION MODE>  (1453) 
P

>  <INCHIKEY>  (1453) 
UJSXGCPFSPWPNB-BVXMOGEKSA-N

>  <FORMULA>  (1453) 
C18H30N2O3

>  <EXACT MASS>  (1453) 
322.22564281999996

>  <MW>  (1453) 
322

>  <ID>  (1453) 
JP009970

>  <CONTRIBUTOR>  (1453) 
University of Tokyo Team, {Faculty of Engineering, University of Tokyo

>  <COMMENT>  (1453) 
SMILES=COC(=O)C(C)=CCCC(C)=CCCC(=O)N(C1)CCN(C)C1
InChI=InChI=1S/C18H30N2O3/c1-15(7-5-9-16(2)18(22)23-4)8-6-10-17(21)20-13-11-19(3)12-14-20/h8-9H,5-7,10-14H2,1-4H3/b15-8+,16-9+
computed SMILES=O=C(OC)C(=CCCC(=CCCC(=O)N1CCN(C)CC1)C)C
accession=JP009970
date=2016.01.19 (Created 2008.10.21, modified 2011.05.06)
author=KURARAY CO., LTD.
license=CC BY-NC-SA
exact mass=322.22564
ionization energy=70 eV
ion type=[M]+*
computed spectral entropy=3.4586852217276873
computed normalized entropy=0.7764740806440354
SPLASH=splash10-0aba-9320000000-67a8108e2d75889e5a30
submitter=submitter = University of Tokyo Team (Faculty of Engineering, University of Tokyo)
MoNA Rating=3.75

>  <NUM PEAKS>  (1453) 
86

>  <MASS SPECTRAL PEAKS>  (1453) 
27 5.9
28 2.2
29 6.4
30 0.47
39 5.5
41 13.4
42 20.6
43 2.58
44 19.1
45 4.2
53 11.6
54 0.47
55 14.8
56 39.2
57 28.1
58 4.69
59 8
67 8
68 4.7
69 0.61
70 99.99
71 14.7
72 4.1
73 0.28
77 1.9
79 5.2
80 5.8
81 1.58
82 5.8
83 24.4
84 4.8
85 0.72
91 0.5
93 2.7
95 2
96 0.39
97 12.2
98 41.6
99 50.8
100 0.81
101 63.6
102 3.6
105 3.3
107 0.28
109 5.2
110 1.9
111 3.4
112 0.3
113 4.4
114 0.3
121 2.5
122 0.22
125 1.9
127 21.1
128 2.2
135 0.7
140 2
141 1.9
142 3.8
148 0.17
149 0.9
152 8
153 1.9
155 0.77
156 1.7
163 1.9
166 37.5
167 0.55
178 2.2
191 1.3
207 1.6
208 0.25
209 98.6
210 14.5
235 6.7
236 0.19
255 6.6
262 4.1
263 1.9
266 0.19
281 1.4
291 4.5
320 4.7
322 1.25
323 2
368 1.4

$$$$

     RDKit          2D

 23 24  0  0  0  0  0  0  0  0999 V2000
    8.7297    5.6713    0.0000 C   0  0  0  0  0  0  0  0  0  0  0  0
    6.2881    6.5594    0.0000 C   0  0  0  0  0  0  0  0  0  0  0  0
   -3.7389    1.4102    0.0000 C   0  0  0  0  0  0  0  0  0  0  0  0
   -1.1400    2.9100    0.0000 C   0  0  0  0  0  0  0  0  0  0  0  0
   -1.1400   -3.0900    0.0000 C   0  0  0  0  0  0  0  0  0  0  0  0
    4.2372    0.3997    0.0000 C   0  0  0  0  0  0  0  0  0  0  0  0
    1.4600   -1.5900    0.0000 C   0  0  0  0  0  0  0  0  0  0  0  0
    4.7499    2.3304    0.0000 C   0  0  0  0  0  0  0  0  0  0  0  0
    2.7600   -0.8400    0.0000 C   0  0  0  0  0  0  0  0  0  0  0  0
    3.2727    2.0696    0.0000 C   0  0  0  0  0  0  0  0  0  0  0  0
    7.2525    5.4105    0.0000 C   0  0  0  0  0  0  0  0  0  0  0  0
   -2.4400    0.6600    0.0000 C   0  0  0  0  0  0  0  0  0  0  0  0
   -1.1400    1.4100    0.0000 C   0  0  0  0  0  0  0  0  0  0  0  0
   -1.1400   -1.5900    0.0000 C   0  0  0  0  0  0  0  0  0  0  0  0
    0.1600   -0.8400    0.0000 C   0  0  0  0  0  0  0  0  0  0  0  0
    5.2626    3.7401    0.0000 C   0  0  0  0  0  0  0  0  0  0  0  0
   -2.4400   -0.8400    0.0000 C   0  0  0  0  0  0  0  0  0  0  0  0
    0.1600    0.6600    0.0000 C   0  0  0  0  0  0  0  0  0  0  0  0
    2.7600    0.6600    0.0000 C   0  0  0  0  0  0  0  0  0  0  0  0
    4.2982    4.8889    0.0000 O   0  0  0  0  0  0  0  0  0  0  0  0
   -3.7389   -1.5902    0.0000 O   0  0  0  0  0  0  0  0  0  0  0  0
    6.7398    4.0009    0.0000 O   0  0  0  0  0  0  0  0  0  0  0  0
    1.4600    1.4100    0.0000 O   0  0  0  0  0  0  0  0  0  0  0  0
  9  7  1  0
 10  8  1  0
 11  1  1  0
 11  2  1  0
 12  3  1  0
 13  4  1  0
 13 12  1  0
 14  5  1  0
 15  7  1  0
 15 14  2  0
 16  8  1  0
 17 12  2  0
 17 14  1  0
 18 13  2  0
 18 15  1  0
 19  6  1  0
 19  9  1  0
 19 10  1  0
 20 16  2  0
 21 17  1  0
 22 11  1  0
 22 16  1  0
 23 18  1  0
 23 19  1  0
M  END
>  <NAME>  (1454) 
2-(2-ISOPROPOXYCARBONYLETHYL)-6-HYDROXY-2,5,7,8-TETRAMETHYL-2H-1-BENZOPYRAN

>  <SYNONYMS>  (1454) 


>  <SPECTRUM TYPE>  (1454) 
MS1

>  <INSTRUMENT TYPE>  (1454) 
EI-B

>  <INSTRUMENT>  (1454) 
JEOL JMS-D-300

>  <ION MODE>  (1454) 
P

>  <INCHIKEY>  (1454) 
PWRAYOPGCFLHSF-UHFFFAOYSA-N

>  <FORMULA>  (1454) 
C19H28O4

>  <EXACT MASS>  (1454) 
320.198759376

>  <MW>  (1454) 
320

>  <ID>  (1454) 
JP009968

>  <CONTRIBUTOR>  (1454) 
University of Tokyo Team, {Faculty of Engineering, University of Tokyo

>  <COMMENT>  (1454) 
SMILES=CC(C)OC(=O)CCC(C)(C2)Oc(c(C)1)c(C2)c(C)c(O)c(C)1
InChI=InChI=1S/C19H28O4/c1-11(2)22-16(20)8-10-19(6)9-7-15-14(5)17(21)12(3)13(4)18(15)23-19/h11,21H,7-10H2,1-6H3
computed SMILES=O=C(OC(C)C)CCC1(OC=2C(=C(C(O)=C(C2CC1)C)C)C)C
accession=JP009968
date=2016.01.19 (Created 2008.10.21, modified 2011.05.06)
author=KURARAY CO., LTD.
license=CC BY-NC-SA
exact mass=320.19876
ionization energy=70 eV
ion type=[M]+*
computed spectral entropy=2.9445701181357173
computed normalized entropy=0.6353273569207071
SPLASH=splash10-02t9-2922000000-36e66a33d3640db199c8
submitter=submitter = University of Tokyo Team (Faculty of Engineering, University of Tokyo)
MoNA Rating=3.75

>  <NUM PEAKS>  (1454) 
103

>  <MASS SPECTRAL PEAKS>  (1454) 
27 1.6
28 3.1
29 0.8
31 0.05
32 0.8
39 1.6
41 5
42 0.03
43 8.1
51 0.8
52 0.6
53 0.22
54 0.5
55 3.1
57 0.3
59 0.03
65 0.6
66 0.3
67 1.9
69 0.19
70 0.3
71 0.6
73 0.9
77 0.17
78 0.6
79 1.9
80 0.5
81 0.16
82 0.5
83 1.3
85 0.3
91 0.3
92 0.3
93 1.3
95 1.6
96 0.05
97 3.8
102 0.5
103 0.5
104 0.03
105 1.1
107 1.4
109 0.5
110 0.08
111 0.3
113 0.3
115 1.6
117 0.05
119 0.3
121 4.7
122 1.4
130 0.28
131 0.8
132 0.6
135 2.8
136 0.45
137 2.2
139 0.5
146 0.3
147 0.03
148 0.3
149 1.4
151 3.1
152 0.53
153 0.6
159 0.6
161 1.1
162 0.13
163 1.4
164 44.7
165 99.99
166 1.14
167 0.3
175 1.9
176 0.5
177 0.31
178 0.3
179 0.3
189 2.2
190 0.13
202 0.5
203 4.5
204 1.6
205 0.63
206 0.5
217 1.4
218 1.4
231 0.17
232 5.2
233 0.3
243 2
245 0.06
259 1.6
260 6.4
261 15.3
262 0.2
263 0.3
277 0.9
278 17.2
279 0.31
320 41.9
321 9.1
322 1.1

$$$$

     RDKit          2D

 20 21  0  0  0  0  0  0  0  0999 V2000
   -6.2469    1.7895    0.0000 C   0  0  0  0  0  0  0  0  0  0  0  0
   -5.4969    0.4904    0.0000 C   0  0  0  0  0  0  0  0  0  0  0  0
   -5.2385    2.9028    0.0000 C   0  0  0  0  0  0  0  0  0  0  0  0
   -4.0285    0.8071    0.0000 C   0  0  0  0  0  0  0  0  0  0  0  0
    5.2225    4.5447    0.0000 C   0  0  0  0  0  0  0  0  0  0  0  0
    3.9233    5.2945    0.0000 C   0  0  0  0  0  0  0  0  0  0  0  0
    0.0252    7.5458    0.0000 C   0  0  0  0  0  0  0  0  0  0  0  0
    0.0262    4.5441    0.0000 C   0  0  0  0  0  0  0  0  0  0  0  0
    1.3247    6.7949    0.0000 C   0  0  0  0  0  0  0  0  0  0  0  0
   -1.2738    6.7958    0.0000 C   0  0  0  0  0  0  0  0  0  0  0  0
    1.3252    5.2941    0.0000 C   0  0  0  0  0  0  0  0  0  0  0  0
   -1.2733    5.2949    0.0000 C   0  0  0  0  0  0  0  0  0  0  0  0
   -2.5724    3.0449    0.0000 C   0  0  0  0  0  0  0  0  0  0  0  0
    2.6238    7.5449    0.0000 Cl  0  0  0  0  0  0  0  0  0  0  0  0
   -2.5730    7.5456    0.0000 Cl  0  0  0  0  0  0  0  0  0  0  0  0
   -3.8714    2.2949    0.0000 N   0  0  0  0  0  0  0  0  0  0  0  0
    6.5214    5.2949    0.0000 O   0  0  0  0  0  0  0  0  0  0  0  0
   -1.2733    2.2949    0.0000 O   0  0  0  0  0  0  0  0  0  0  0  0
    2.6244    4.5443    0.0000 O   0  0  0  0  0  0  0  0  0  0  0  0
   -2.5724    4.5449    0.0000 O   0  0  0  0  0  0  0  0  0  0  0  0
  2  1  1  0
  3  1  1  0
  4  2  1  0
  6  5  1  0
  9  7  2  0
 10  7  1  0
 11  8  2  0
 11  9  1  0
 12  8  1  0
 12 10  2  0
 14  9  1  0
 15 10  1  0
 16  3  1  0
 16  4  1  0
 16 13  1  0
 17  5  1  0
 18 13  2  0
 19  6  1  0
 19 11  1  0
 20 12  1  0
 20 13  1  0
M  END
>  <NAME>  (1455) 
N-(2,4-DICHLORO-5-(2-HYDROXYETHOXY)PHENOXYCARBONYL)TETRAHYDROPYRROLE

>  <SYNONYMS>  (1455) 


>  <SPECTRUM TYPE>  (1455) 
MS1

>  <INSTRUMENT TYPE>  (1455) 
EI-B

>  <INSTRUMENT>  (1455) 
JEOL JMS-D-300

>  <ION MODE>  (1455) 
P

>  <INCHIKEY>  (1455) 
WYJXQWOKFHETOU-UHFFFAOYSA-N

>  <FORMULA>  (1455) 
C13H15Cl2NO4

>  <EXACT MASS>  (1455) 
319.03781332

>  <MW>  (1455) 
319

>  <ID>  (1455) 
JP009967

>  <CONTRIBUTOR>  (1455) 
University of Tokyo Team, {Faculty of Engineering, University of Tokyo

>  <COMMENT>  (1455) 
SMILES=OCCOc(c1)c(Cl)cc(Cl)c(OC(=O)N(C2)CCC2)1
InChI=InChI=1S/C13H15Cl2NO4/c14-9-7-10(15)12(8-11(9)19-6-5-17)20-13(18)16-3-1-2-4-16/h7-8,17H,1-6H2
computed SMILES=O=C(OC=1C=C(OCCO)C(Cl)=CC1Cl)N2CCCC2
accession=JP009967
date=2016.01.19 (Created 2008.10.21, modified 2011.05.06)
author=KURARAY CO., LTD.
license=CC BY-NC-SA
exact mass=319.03781
ionization energy=70 eV
ion type=[M]+*
computed spectral entropy=1.766397732765624
computed normalized entropy=0.5009124054205698
SPLASH=splash10-052b-9000000000-2354136005507cee405f
submitter=submitter = University of Tokyo Team (Faculty of Engineering, University of Tokyo)
MoNA Rating=3.75

>  <NUM PEAKS>  (1455) 
34

>  <MASS SPECTRAL PEAKS>  (1455) 
27 0.5
28 1.9
29 1.5
30 0.48
41 1.2
42 1.2
43 1.4
45 0.51
55 39.2
56 12.1
69 1.2
70 0.17
73 0.3
78 0.3
85 0.2
97 0.12
98 99.99
99 6
133 0.5
178 0.9
180 6.3
182 1.4
222 1.2
224 0.08
266 2.1
268 1.2
284 1.6
285 0.03
286 0.5
319 4.7
320 0.8
321 0.3
322 0.5
323 0.5

$$$$

     RDKit          2D

 20 20  0  0  0  0  0  0  0  0999 V2000
   -7.7951    1.5010    0.0000 C   0  0  0  0  0  0  0  0  0  0  0  0
   -1.3000   -0.7500    0.0000 C   0  0  0  0  0  0  0  0  0  0  0  0
    0.0000    1.5000    0.0000 C   0  0  0  0  0  0  0  0  0  0  0  0
    0.0000   -1.5000    0.0000 C   0  0  0  0  0  0  0  0  0  0  0  0
    1.3000    0.7500    0.0000 C   0  0  0  0  0  0  0  0  0  0  0  0
    5.1970   -1.5006    0.0000 C   0  0  0  0  0  0  0  0  0  0  0  0
    3.8976   -3.7504    0.0000 C   0  0  0  0  0  0  0  0  0  0  0  0
    3.8981   -0.7504    0.0000 C   0  0  0  0  0  0  0  0  0  0  0  0
    2.5987   -3.0002    0.0000 C   0  0  0  0  0  0  0  0  0  0  0  0
   -2.5989    1.5002    0.0000 C   0  0  0  0  0  0  0  0  0  0  0  0
   -1.3000    0.7500    0.0000 C   0  0  0  0  0  0  0  0  0  0  0  0
    1.3000   -0.7500    0.0000 C   0  0  0  0  0  0  0  0  0  0  0  0
   -3.8981    0.7504    0.0000 C   0  0  0  0  0  0  0  0  0  0  0  0
   -5.1970    1.5006    0.0000 C   0  0  0  0  0  0  0  0  0  0  0  0
    6.4962   -0.7508    0.0000 Cl  0  0  0  0  0  0  0  0  0  0  0  0
    3.8974   -5.2504    0.0000 Cl  0  0  0  0  0  0  0  0  0  0  0  0
   -3.8983   -0.7496    0.0000 N   0  0  0  0  0  0  0  0  0  0  0  0
    2.5989   -1.5002    0.0000 N   0  0  0  0  0  0  0  0  0  0  0  0
   -5.1968    3.0006    0.0000 O   0  0  0  0  0  0  0  0  0  0  0  0
   -6.4962    0.7508    0.0000 O   0  0  0  0  0  0  0  0  0  0  0  0
  4  2  2  0
  5  3  1  0
  8  6  1  0
  9  7  1  0
 11  2  1  0
 11  3  2  0
 11 10  1  0
 12  4  1  0
 12  5  2  0
 13 10  1  0
 14 13  1  0
 15  6  1  0
 16  7  1  0
 17 13  1  0
 18  8  1  0
 18  9  1  0
 18 12  1  0
 19 14  2  0
 20  1  1  0
 20 14  1  0
M  END
>  <NAME>  (1456) 
METHYL 2-AMINO-3-(4-(N,N-BIS(2-CHLOROETHYL)AMINO)PHENYLPROPIONATE

>  <SYNONYMS>  (1456) 


>  <SPECTRUM TYPE>  (1456) 
MS1

>  <INSTRUMENT TYPE>  (1456) 
EI-B

>  <INSTRUMENT>  (1456) 
JEOL JMS-D-300

>  <ION MODE>  (1456) 
P

>  <INCHIKEY>  (1456) 
YHYUQHQOUXSXQE-UHFFFAOYSA-N

>  <FORMULA>  (1456) 
C14H20Cl2N2O2

>  <EXACT MASS>  (1456) 
318.09018324

>  <MW>  (1456) 
318

>  <ID>  (1456) 
JP009966

>  <CONTRIBUTOR>  (1456) 
University of Tokyo Team, {Faculty of Engineering, University of Tokyo

>  <COMMENT>  (1456) 
SMILES=ClCCN(CCCl)c(c1)ccc(c1)CC(N)C(=O)OC
InChI=InChI=1S/C14H20Cl2N2O2/c1-20-14(19)13(17)10-11-2-4-12(5-3-11)18(8-6-15)9-7-16/h2-5,13H,6-10,17H2,1H3
computed SMILES=O=C(OC)C(N)CC1=CC=C(C=C1)N(CCCl)CCCl
accession=JP009966
date=2016.01.19 (Created 2008.10.21, modified 2011.05.06)
author=KURARAY CO., LTD.
license=CC BY-NC-SA
exact mass=318.09018
ionization energy=70 eV
ion type=[M]+*
computed spectral entropy=2.106275489362449
computed normalized entropy=0.6464742418717616
SPLASH=splash10-001i-0290000000-feae1d5980dfc5c1a7f4
submitter=submitter = University of Tokyo Team (Faculty of Engineering, University of Tokyo)
MoNA Rating=3.75

>  <NUM PEAKS>  (1456) 
26

>  <MASS SPECTRAL PEAKS>  (1456) 
63 2.5
90 3.1
91 3.1
105 0.44
117 2
118 20
119 8.1
132 0.41
146 4.4
149 4.7
168 3
181 0.8
183 2
194 2.2
209 1.6
212 0.38
230 99.99
231 12.5
232 64.7
233 0.91
234 12.8
259 7.2
261 4.5
269 0.13
318 3
320 2

$$$$

     RDKit          2D

 22 23  0  0  0  0  0  0  0  0999 V2000
  -12.0174   -3.5608    0.0000 C   0  0  0  0  0  0  0  0  0  0  0  0
    4.8714   -5.8135    0.0000 C   0  0  0  0  0  0  0  0  0  0  0  0
    3.5724   -8.0635    0.0000 C   0  0  0  0  0  0  0  0  0  0  0  0
   -9.4183   -6.5623    0.0000 C   0  0  0  0  0  0  0  0  0  0  0  0
  -10.7178   -5.8115    0.0000 C   0  0  0  0  0  0  0  0  0  0  0  0
   -8.1192   -5.8123    0.0000 C   0  0  0  0  0  0  0  0  0  0  0  0
   -1.6239   -6.5633    0.0000 C   0  0  0  0  0  0  0  0  0  0  0  0
   -0.3250   -4.3127    0.0000 C   0  0  0  0  0  0  0  0  0  0  0  0
   -2.9233   -5.8123    0.0000 C   0  0  0  0  0  0  0  0  0  0  0  0
   -1.6244   -3.5617    0.0000 C   0  0  0  0  0  0  0  0  0  0  0  0
   -9.4192   -3.5606    0.0000 C   0  0  0  0  0  0  0  0  0  0  0  0
   -5.5216   -4.3115    0.0000 C   0  0  0  0  0  0  0  0  0  0  0  0
  -10.7183   -4.3106    0.0000 C   0  0  0  0  0  0  0  0  0  0  0  0
   -0.3248   -5.8135    0.0000 C   0  0  0  0  0  0  0  0  0  0  0  0
   -2.9236   -4.3115    0.0000 C   0  0  0  0  0  0  0  0  0  0  0  0
   -8.1197   -4.3115    0.0000 C   0  0  0  0  0  0  0  0  0  0  0  0
    2.2733   -5.8135    0.0000 C   0  0  0  0  0  0  0  0  0  0  0  0
    0.9743   -6.5635    0.0000 N   0  0  0  0  0  0  0  0  0  0  0  0
    3.5724   -6.5635    0.0000 N   0  0  0  0  0  0  0  0  0  0  0  0
    2.2733   -4.3135    0.0000 O   0  0  0  0  0  0  0  0  0  0  0  0
   -4.2226   -3.5615    0.0000 O   0  0  0  0  0  0  0  0  0  0  0  0
   -6.8207   -3.5615    0.0000 S   0  0  0  0  0  0  0  0  0  0  0  0
  5  4  2  0
  6  4  1  0
  9  7  2  0
 10  8  1  0
 13  1  1  0
 13  5  1  0
 13 11  2  0
 14  7  1  0
 14  8  2  0
 15  9  1  0
 15 10  2  0
 16  6  2  0
 16 11  1  0
 18 14  1  0
 18 17  1  0
 19  2  1  0
 19  3  1  0
 19 17  1  0
 20 17  2  0
 21 12  1  0
 21 15  1  0
 22 12  1  0
 22 16  1  0
M  END
>  <NAME>  (1457) 
4-(N-(N,N-DIMETHYLCARBAMOYL)AMINO)PHENOXYMETHYL 3-METHYLPHENYL SULFIDE

>  <SYNONYMS>  (1457) 


>  <SPECTRUM TYPE>  (1457) 
MS1

>  <INSTRUMENT TYPE>  (1457) 
EI-B

>  <INSTRUMENT>  (1457) 
JEOL JMS-D-300

>  <ION MODE>  (1457) 
P

>  <INCHIKEY>  (1457) 
UFVWOSHVXSRPKE-UHFFFAOYSA-N

>  <FORMULA>  (1457) 
C17H20N2O2S

>  <EXACT MASS>  (1457) 
316.12454888

>  <MW>  (1457) 
316

>  <ID>  (1457) 
JP009965

>  <CONTRIBUTOR>  (1457) 
University of Tokyo Team, {Faculty of Engineering, University of Tokyo

>  <COMMENT>  (1457) 
SMILES=CN(C)C(=O)Nc(c1)ccc(OCSc(c2)cc(C)cc2)c1
InChI=InChI=1S/C17H20N2O2S/c1-13-5-4-6-16(11-13)22-12-21-15-9-7-14(8-10-15)18-17(20)19(2)3/h4-11H,12H2,1-3H3,(H,18,20)
computed SMILES=O=C(NC1=CC=C(OCSC2=CC=CC(=C2)C)C=C1)N(C)C
accession=JP009965
date=2016.01.19 (Created 2008.10.21, modified 2011.05.06)
author=KURARAY CO., LTD.
license=CC BY-NC-SA
exact mass=316.12455
ionization energy=70 eV
ion type=[M]+*
computed spectral entropy=2.047332653484198
computed normalized entropy=0.5042141086986185
SPLASH=splash10-000i-4901000000-2fb5c0099b44ed5a44f6
submitter=submitter = University of Tokyo Team (Faculty of Engineering, University of Tokyo)
MoNA Rating=3.75

>  <NUM PEAKS>  (1457) 
58

>  <MASS SPECTRAL PEAKS>  (1457) 
28 1.2
39 1.4
41 0.3
42 0.08
43 0.6
44 5.8
45 13.5
46 0.01
47 0.2
51 0.4
52 0.1
53 0.02
59 0.2
63 1
64 0.6
65 0.26
66 0.1
67 0.1
72 24
73 0.05
77 1.8
78 0.4
79 0.5
89 0.05
90 1.8
91 6.2
92 0.6
93 0.33
98 0.5
103 0.1
104 0.3
105 0.01
106 0.1
107 0.1
108 0.1
118 0.04
119 0.1
121 0.6
122 0.7
123 0.02
124 0.1
134 0.1
135 1.8
136 0.01
137 99.99
138 10
171 4.5
172 0.01
173 1.2
174 0.1
179 0.2
192 0.06
193 0.6
194 0.1
271 2.5
272 0.01
316 13.4
317 2.8

$$$$

     RDKit          2D

 22 22  0  0  0  0  0  0  0  0999 V2000
  -13.8335    7.1903    0.0000 C   0  0  0  0  0  0  0  0  0  0  0  0
  -12.5345    9.4403    0.0000 C   0  0  0  0  0  0  0  0  0  0  0  0
   -7.3383    9.4403    0.0000 C   0  0  0  0  0  0  0  0  0  0  0  0
   -2.1422    9.4403    0.0000 C   0  0  0  0  0  0  0  0  0  0  0  0
    4.0182    9.0894    0.0000 C   0  0  0  0  0  0  0  0  0  0  0  0
   -9.9364    7.9403    0.0000 C   0  0  0  0  0  0  0  0  0  0  0  0
   -4.7402    7.9403    0.0000 C   0  0  0  0  0  0  0  0  0  0  0  0
    0.4559    7.9403    0.0000 C   0  0  0  0  0  0  0  0  0  0  0  0
  -11.2354    7.1903    0.0000 C   0  0  0  0  0  0  0  0  0  0  0  0
   -8.6374    7.1903    0.0000 C   0  0  0  0  0  0  0  0  0  0  0  0
   -6.0393    7.1903    0.0000 C   0  0  0  0  0  0  0  0  0  0  0  0
   -3.4412    7.1903    0.0000 C   0  0  0  0  0  0  0  0  0  0  0  0
   -0.8431    7.1903    0.0000 C   0  0  0  0  0  0  0  0  0  0  0  0
    1.7549    7.1903    0.0000 C   0  0  0  0  0  0  0  0  0  0  0  0
    5.8539    7.1899    0.0000 C   0  0  0  0  0  0  0  0  0  0  0  0
  -12.5345    7.9403    0.0000 C   0  0  0  0  0  0  0  0  0  0  0  0
   -7.3383    7.9403    0.0000 C   0  0  0  0  0  0  0  0  0  0  0  0
   -2.1422    7.9403    0.0000 C   0  0  0  0  0  0  0  0  0  0  0  0
    4.3530    7.1903    0.0000 C   0  0  0  0  0  0  0  0  0  0  0  0
    3.0540    7.9403    0.0000 C   0  0  0  0  0  0  0  0  0  0  0  0
    2.0898    9.0894    0.0000 O   0  0  0  0  0  0  0  0  0  0  0  0
    5.1039    5.8908    0.0000 O   0  0  0  0  0  0  0  0  0  0  0  0
  9  6  1  0
 10  6  1  0
 11  7  1  0
 12  7  1  0
 13  8  1  0
 14  8  1  0
 16  1  1  0
 16  2  1  0
 16  9  1  0
 17  3  1  0
 17 10  1  0
 17 11  1  0
 18  4  1  0
 18 12  1  0
 18 13  1  0
 19 15  1  0
 20  5  1  0
 20 14  1  0
 20 19  1  0
 21 20  1  0
 22 15  1  0
 22 19  1  0
M  END
>  <NAME>  (1458) 
1,2-EPOXY-3,7,11,15-TETRAMETHYLHEXADECAN-3-OL

>  <SYNONYMS>  (1458) 


>  <SPECTRUM TYPE>  (1458) 
MS1

>  <INSTRUMENT TYPE>  (1458) 
EI-B

>  <INSTRUMENT>  (1458) 
JEOL JMS-D-300

>  <ION MODE>  (1458) 
P

>  <INCHIKEY>  (1458) 
NOXQKQDMUVOWCE-UHFFFAOYSA-N

>  <FORMULA>  (1458) 
C20H40O2

>  <EXACT MASS>  (1458) 
312.30283052

>  <MW>  (1458) 
312

>  <ID>  (1458) 
JP009964

>  <CONTRIBUTOR>  (1458) 
University of Tokyo Team, {Faculty of Engineering, University of Tokyo

>  <COMMENT>  (1458) 
SMILES=CC(C)CCCC(C)CCCC(C)CCCC(C)(O)C(C1)O1
InChI=InChI=1S/C20H40O2/c1-16(2)9-6-10-17(3)11-7-12-18(4)13-8-14-20(5,21)19-15-22-19/h16-19,21H,6-15H2,1-5H3
computed SMILES=OC(C)(CCCC(C)CCCC(C)CCCC(C)C)C1OC1
accession=JP009964
date=2016.01.19 (Created 2008.10.21, modified 2011.05.06)
author=KURARAY CO., LTD.
license=CC BY-NC-SA
exact mass=312.30283
ionization energy=70 eV
ion type=[M]+*
computed spectral entropy=3.1478921451701822
computed normalized entropy=0.8006184503632316
SPLASH=splash10-0a4u-9100000000-4ff26ede576655ab222e
submitter=submitter = University of Tokyo Team (Faculty of Engineering, University of Tokyo)
MoNA Rating=3.75

>  <NUM PEAKS>  (1458) 
51

>  <MASS SPECTRAL PEAKS>  (1458) 
27 4
29 8.3
31 5
41 2.36
42 5.9
43 88.4
44 2.2
45 0.28
55 34.3
56 19.7
57 48.6
58 0.91
59 5.3
67 6.9
68 6
69 4.31
70 11
71 45.5
72 3.4
73 0.26
81 15.2
82 6
83 39.5
84 0.69
85 19
86 3.4
87 99.99
88 0.72
93 3.1
95 14
96 4.5
97 3.38
98 5
99 10.5
101 3.3
109 1.24
110 3.3
111 31
112 4
113 0.78
121 3.8
123 6.6
125 22.6
126 0.36
127 5.2
137 2.9
139 12.1
153 0.55
169 2.6
269 21.4
270 3.4

$$$$

     RDKit          2D

 22 21  0  0  0  0  0  0  0  0999 V2000
    5.8457    9.3750    0.0000 C   0  0  0  0  0  0  0  0  0  0  0  0
    4.5466   11.6250    0.0000 C   0  0  0  0  0  0  0  0  0  0  0  0
  -14.9389    7.8750    0.0000 C   0  0  0  0  0  0  0  0  0  0  0  0
  -16.2380   10.1250    0.0000 C   0  0  0  0  0  0  0  0  0  0  0  0
   -4.5466    9.3750    0.0000 C   0  0  0  0  0  0  0  0  0  0  0  0
   -5.8457   10.1250    0.0000 C   0  0  0  0  0  0  0  0  0  0  0  0
   -3.2476   10.1250    0.0000 C   0  0  0  0  0  0  0  0  0  0  0  0
   -7.1447    9.3750    0.0000 C   0  0  0  0  0  0  0  0  0  0  0  0
   -1.9486    9.3750    0.0000 C   0  0  0  0  0  0  0  0  0  0  0  0
   -8.4437   10.1250    0.0000 C   0  0  0  0  0  0  0  0  0  0  0  0
   -0.6495   10.1250    0.0000 C   0  0  0  0  0  0  0  0  0  0  0  0
   -9.7428    9.3750    0.0000 C   0  0  0  0  0  0  0  0  0  0  0  0
    0.6495    9.3750    0.0000 C   0  0  0  0  0  0  0  0  0  0  0  0
  -11.0418   10.1250    0.0000 C   0  0  0  0  0  0  0  0  0  0  0  0
    4.5466   10.1250    0.0000 C   0  0  0  0  0  0  0  0  0  0  0  0
  -14.9389    9.3750    0.0000 C   0  0  0  0  0  0  0  0  0  0  0  0
    3.2476    9.3750    0.0000 C   0  0  0  0  0  0  0  0  0  0  0  0
  -13.6399   10.1250    0.0000 C   0  0  0  0  0  0  0  0  0  0  0  0
    3.2476    7.8750    0.0000 O   0  0  0  0  0  0  0  0  0  0  0  0
  -13.6399   11.6250    0.0000 O   0  0  0  0  0  0  0  0  0  0  0  0
    1.9486   10.1250    0.0000 O   0  0  0  0  0  0  0  0  0  0  0  0
  -12.3409    9.3750    0.0000 O   0  0  0  0  0  0  0  0  0  0  0  0
  6  5  1  0
  7  5  1  0
  8  6  1  0
  9  7  1  0
 10  8  1  0
 11  9  1  0
 12 10  1  0
 13 11  1  0
 14 12  1  0
 15  1  2  0
 15  2  1  0
 16  3  2  0
 16  4  1  0
 17 15  1  0
 18 16  1  0
 19 17  2  0
 20 18  2  0
 21 13  1  0
 21 17  1  0
 22 14  1  0
 22 18  1  0
M  END
>  <NAME>  (1459) 
DECAN-1,10-DIOL DIMETHACRYLATE

>  <SYNONYMS>  (1459) 


>  <SPECTRUM TYPE>  (1459) 
MS1

>  <INSTRUMENT TYPE>  (1459) 
EI-B

>  <INSTRUMENT>  (1459) 
JEOL JMS-D-300

>  <ION MODE>  (1459) 
P

>  <INCHIKEY>  (1459) 
LRZPQLZONWIQOJ-UHFFFAOYSA-N

>  <FORMULA>  (1459) 
C18H30O4

>  <EXACT MASS>  (1459) 
310.21440944

>  <MW>  (1459) 
310

>  <ID>  (1459) 
JP009963

>  <CONTRIBUTOR>  (1459) 
University of Tokyo Team, {Faculty of Engineering, University of Tokyo

>  <COMMENT>  (1459) 
SMILES=CC(=C)C(=O)OCCCCCCCCCCOC(=O)C(C)=C
InChI=InChI=1S/C18H30O4/c1-15(2)17(19)21-13-11-9-7-5-6-8-10-12-14-22-18(20)16(3)4/h1,3,5-14H2,2,4H3
computed SMILES=O=C(OCCCCCCCCCCOC(=O)C(=C)C)C(=C)C
accession=JP009963
date=2016.01.19 (Created 2008.10.21, modified 2011.05.06)
author=KURARAY CO., LTD.
license=CC BY-NC-SA
exact mass=310.21441
ionization energy=70 eV
ion type=[M]+*
computed spectral entropy=3.2134046049719625
computed normalized entropy=0.7589333431936464
SPLASH=splash10-0159-9100000000-16fe47f453d6f7c51c0e
submitter=submitter = University of Tokyo Team (Faculty of Engineering, University of Tokyo)
MoNA Rating=3.75

>  <NUM PEAKS>  (1459) 
69

>  <MASS SPECTRAL PEAKS>  (1459) 
27 1.7
28 3.6
29 2.9
39 0.62
40 3.1
41 42.6
42 5
43 0.46
54 13.3
55 27
56 3.2
57 0.39
66 2.7
67 20.3
68 26.2
69 99.99
70 11.6
71 2.6
79 1.7
80 0.21
81 25.5
82 26.5
83 26
84 0.29
86 3.1
87 30.9
88 2.7
93 0.1
94 1.9
95 20
96 21
97 1.26
98 3.6
99 1.5
107 1
108 0.51
109 12.8
110 15.9
111 3.1
112 0.27
113 1.5
114 0.3
121 1.4
122 0.05
123 2.4
124 1.7
125 4.6
126 0.65
127 4.8
128 2.4
129 0.3
136 0.91
137 5
138 10.8
139 3.1
150 0.02
151 0.3
152 0.2
153 0.9
154 0.55
155 3.1
172 3.1
173 1.7
208 0.1
224 0.9
264 1
282 2.1
310 0.08
311 0.5

$$$$

     RDKit          2D

 22 22  0  0  0  0  0  0  0  0999 V2000
    7.7948    3.0010    0.0000 C   0  0  0  0  0  0  0  0  0  0  0  0
   14.2904    0.7521    0.0000 C   0  0  0  0  0  0  0  0  0  0  0  0
   -2.5989   -1.5002    0.0000 C   0  0  0  0  0  0  0  0  0  0  0  0
   10.3931    1.5015    0.0000 C   0  0  0  0  0  0  0  0  0  0  0  0
    5.1970    1.5006    0.0000 C   0  0  0  0  0  0  0  0  0  0  0  0
    9.0942    0.7512    0.0000 C   0  0  0  0  0  0  0  0  0  0  0  0
    6.4962    0.7508    0.0000 C   0  0  0  0  0  0  0  0  0  0  0  0
   11.6923    0.7517    0.0000 C   0  0  0  0  0  0  0  0  0  0  0  0
    3.8981    0.7504    0.0000 C   0  0  0  0  0  0  0  0  0  0  0  0
   -1.3000    0.7500    0.0000 C   0  0  0  0  0  0  0  0  0  0  0  0
   -0.0000   -1.5000    0.0000 C   0  0  0  0  0  0  0  0  0  0  0  0
   -0.0000    1.5000    0.0000 C   0  0  0  0  0  0  0  0  0  0  0  0
    1.3000   -0.7500    0.0000 C   0  0  0  0  0  0  0  0  0  0  0  0
    7.7951    1.5010    0.0000 C   0  0  0  0  0  0  0  0  0  0  0  0
   12.9912    1.5019    0.0000 C   0  0  0  0  0  0  0  0  0  0  0  0
    2.5989    1.5002    0.0000 C   0  0  0  0  0  0  0  0  0  0  0  0
   12.9910    3.0019    0.0000 C   0  0  0  0  0  0  0  0  0  0  0  0
   -1.3000   -0.7500    0.0000 N   0  0  0  0  0  0  0  0  0  0  0  0
    1.3000    0.7500    0.0000 N   0  0  0  0  0  0  0  0  0  0  0  0
    2.5987    3.0002    0.0000 O   0  0  0  0  0  0  0  0  0  0  0  0
   11.6918    3.7517    0.0000 O   0  0  0  0  0  0  0  0  0  0  0  0
   14.2899    3.7521    0.0000 O   0  0  0  0  0  0  0  0  0  0  0  0
  6  4  1  0
  7  5  1  0
  8  4  1  0
  9  5  1  0
 12 10  1  0
 13 11  1  0
 14  1  1  0
 14  6  1  0
  7 14  2  0
 15  2  1  0
  8 15  2  0
 16  9  1  0
 17 15  1  0
 18  3  1  0
 18 10  1  0
 18 11  1  0
 19 12  1  0
 19 13  1  0
 19 16  1  0
 20 16  2  0
 21 17  2  0
 22 17  1  0
M  END
>  <NAME>  (1460) 
2,6-DIMETHYL-9-(N-METHYLPIPERAZINYLCARBAMOYL)-2,6-NONADIENOIC ACID

>  <SYNONYMS>  (1460) 


>  <SPECTRUM TYPE>  (1460) 
MS1

>  <INSTRUMENT TYPE>  (1460) 
EI-B

>  <INSTRUMENT>  (1460) 
JEOL JMS-D-300

>  <ION MODE>  (1460) 
P

>  <INCHIKEY>  (1460) 
UPJGDYBMMHGILS-GOBHWCIESA-N

>  <FORMULA>  (1460) 
C17H28N2O3

>  <EXACT MASS>  (1460) 
308.20999275599996

>  <MW>  (1460) 
308

>  <ID>  (1460) 
JP009962

>  <CONTRIBUTOR>  (1460) 
University of Tokyo Team, {Faculty of Engineering, University of Tokyo

>  <COMMENT>  (1460) 
SMILES=OC(=O)C(C)=CCCC(C)=CCCC(=O)N(C1)CCN(C)C1
InChI=InChI=1S/C17H28N2O3/c1-14(6-4-8-15(2)17(21)22)7-5-9-16(20)19-12-10-18(3)11-13-19/h7-8H,4-6,9-13H2,1-3H3,(H,21,22)/b14-7+,15-8-
computed SMILES=O=C(O)C(=CCCC(=CCCC(=O)N1CCN(C)CC1)C)C
accession=JP009962
date=2016.01.19 (Created 2008.10.21, modified 2011.05.06)
author=KURARAY CO., LTD.
license=CC BY-NC-SA
exact mass=308.20999
ionization energy=70 eV
ion type=[M]+*
computed spectral entropy=3.3099017369841603
computed normalized entropy=0.8019854524189421
SPLASH=splash10-0ab9-9210000000-06c0f9823ea9d6a37b9b
submitter=submitter = University of Tokyo Team (Faculty of Engineering, University of Tokyo)
MoNA Rating=3.75

>  <NUM PEAKS>  (1460) 
62

>  <MASS SPECTRAL PEAKS>  (1460) 
27 4.7
28 6.4
29 4.9
30 0.47
35 2.8
36 11.9
38 3.8
39 0.61
41 10
42 18.2
43 26.5
44 2.18
45 3.8
53 9.4
54 3.9
55 1.11
56 33.4
57 22.7
58 46.1
59 0.34
67 4.5
68 5
69 3.3
70 99.99
71 12.9
72 4.7
77 3.1
79 0.63
81 9.4
82 6.6
83 23.4
84 0.56
85 4.1
91 1.6
93 5.2
95 0.45
97 5
98 20.8
99 45.1
100 0.88
101 51.4
102 3.1
105 1.6
107 0.24
109 4.5
111 3.3
112 2.2
113 0.2
121 1.3
127 15.7
135 2.2
142 0.44
152 8.3
155 14.4
166 37.5
167 0.5
209 84
210 14.3
235 4.4
262 0.13
308 12.4
309 1.7

$$$$

     RDKit          2D

 22 22  0  0  0  0  0  0  0  0999 V2000
    5.1956   -1.4994    0.0000 C   0  0  0  0  0  0  0  0  0  0  0  0
   -0.0006   -1.5002    0.0000 C   0  0  0  0  0  0  0  0  0  0  0  0
   -2.5989   -0.0006    0.0000 C   0  0  0  0  0  0  0  0  0  0  0  0
   15.5893    3.0019    0.0000 C   0  0  0  0  0  0  0  0  0  0  0  0
    2.5972    0.0002    0.0000 C   0  0  0  0  0  0  0  0  0  0  0  0
    7.7934    0.0010    0.0000 C   0  0  0  0  0  0  0  0  0  0  0  0
    3.8962    0.7504    0.0000 C   0  0  0  0  0  0  0  0  0  0  0  0
    6.4942    0.7508    0.0000 C   0  0  0  0  0  0  0  0  0  0  0  0
    1.2981    0.7500    0.0000 C   0  0  0  0  0  0  0  0  0  0  0  0
    9.0923    0.7512    0.0000 C   0  0  0  0  0  0  0  0  0  0  0  0
   14.2904    0.7517    0.0000 C   0  0  0  0  0  0  0  0  0  0  0  0
   12.9904    3.0017    0.0000 C   0  0  0  0  0  0  0  0  0  0  0  0
   12.9904    0.0017    0.0000 C   0  0  0  0  0  0  0  0  0  0  0  0
   11.6904    2.2517    0.0000 C   0  0  0  0  0  0  0  0  0  0  0  0
    5.1953    0.0006    0.0000 C   0  0  0  0  0  0  0  0  0  0  0  0
   -0.0008   -0.0002    0.0000 C   0  0  0  0  0  0  0  0  0  0  0  0
   -1.3000    0.7496    0.0000 C   0  0  0  0  0  0  0  0  0  0  0  0
   10.3915    0.0015    0.0000 C   0  0  0  0  0  0  0  0  0  0  0  0
   14.2904    2.2517    0.0000 N   0  0  0  0  0  0  0  0  0  0  0  0
   11.6904    0.7517    0.0000 N   0  0  0  0  0  0  0  0  0  0  0  0
   -1.3002    2.2496    0.0000 O   0  0  0  0  0  0  0  0  0  0  0  0
   10.3917   -1.4985    0.0000 O   0  0  0  0  0  0  0  0  0  0  0  0
  7  5  1  0
  8  6  1  0
  9  5  1  0
 10  6  1  0
 13 11  1  0
 14 12  1  0
 15  1  1  0
 15  7  1  0
  8 15  2  0
 16  2  1  0
 16  9  1  0
 17  3  1  0
 17 16  1  0
 18 10  1  0
 19  4  1  0
 19 11  1  0
 19 12  1  0
 20 13  1  0
 20 14  1  0
 20 18  1  0
 21 17  2  0
 22 18  2  0
M  END
>  <NAME>  (1461) 
3,7-DIMETHYL-10-(N-METHYLPIPERAZINYLCARBAMOYL)-(E)-7-DECEN-2-ONE

>  <SYNONYMS>  (1461) 


>  <SPECTRUM TYPE>  (1461) 
MS1

>  <INSTRUMENT TYPE>  (1461) 
EI-B

>  <INSTRUMENT>  (1461) 
JEOL JMS-D-300

>  <ION MODE>  (1461) 
P

>  <INCHIKEY>  (1461) 
QMADJUVVKFXMDJ-OVCLIPMQSA-N

>  <FORMULA>  (1461) 
C18H32N2O2

>  <EXACT MASS>  (1461) 
308.246378264

>  <MW>  (1461) 
308

>  <ID>  (1461) 
JP009961

>  <CONTRIBUTOR>  (1461) 
University of Tokyo Team, {Faculty of Engineering, University of Tokyo

>  <COMMENT>  (1461) 
SMILES=CC(=O)C(C)CCCC(C)=C([H])CCC(=O)N(C1)CCN(C)C1
InChI=InChI=1S/C18H32N2O2/c1-15(7-5-9-16(2)17(3)21)8-6-10-18(22)20-13-11-19(4)12-14-20/h8,16H,5-7,9-14H2,1-4H3/b15-8+
computed SMILES=O=C(N1CCN(C)CC1)CCC=C(C)CCCC(C(=O)C)C
accession=JP009961
date=2016.01.19 (Created 2008.10.21, modified 2011.05.06)
author=KURARAY CO., LTD.
license=CC BY-NC-SA
exact mass=308.24638
ionization energy=70 eV
ion type=[M]+*
computed spectral entropy=3.342992562134891
computed normalized entropy=0.7673206301177202
SPLASH=splash10-0a4j-9101000000-110c98ae6ec5e5593c65
submitter=submitter = University of Tokyo Team (Faculty of Engineering, University of Tokyo)
MoNA Rating=3.75

>  <NUM PEAKS>  (1461) 
78

>  <MASS SPECTRAL PEAKS>  (1461) 
29 4.9
30 2.5
41 8.7
42 1.38
43 43.7
44 39.1
53 2.8
55 1.36
56 35.9
57 59.8
58 85.9
59 0.35
67 6.6
68 2.7
69 7.8
70 99.99
71 26.4
72 6.5
79 5.1
81 0.85
82 5.7
83 49.8
84 6.8
85 1.1
86 1.9
93 4
95 8.2
96 0.21
97 12.3
98 76.9
99 76.6
100 2.4
101 46
102 3.2
107 1.6
108 0.17
109 3.3
110 3.2
111 3.5
112 0.32
113 3.2
124 5.1
125 1.7
127 1.36
128 3.5
137 1.6
138 1.6
140 0.14
141 3.5
142 15.5
143 1.3
149 0.19
152 9.5
153 3.3
155 3.3
166 3.61
167 6.5
180 10.9
181 1.6
194 0.71
195 1.9
208 2.1
209 25
210 0.46
222 4.4
223 4.3
224 4.7
237 2.5
238 3.5
251 1.3
252 6.3
265 0.51
293 1.7
307 1.9
308 83.5
309 1.85
400 2.1
407 1.9

$$$$

     RDKit          2D

 21 22  0  0  0  0  0  0  0  0999 V2000
   -3.7389    1.4102    0.0000 C   0  0  0  0  0  0  0  0  0  0  0  0
   -1.1400    2.9100    0.0000 C   0  0  0  0  0  0  0  0  0  0  0  0
   -1.1400   -3.0900    0.0000 C   0  0  0  0  0  0  0  0  0  0  0  0
   -6.3370   -1.5906    0.0000 C   0  0  0  0  0  0  0  0  0  0  0  0
    4.2372    0.3997    0.0000 C   0  0  0  0  0  0  0  0  0  0  0  0
    1.4600   -1.5900    0.0000 C   0  0  0  0  0  0  0  0  0  0  0  0
    2.7600   -0.8400    0.0000 C   0  0  0  0  0  0  0  0  0  0  0  0
    3.2727    2.0696    0.0000 C   0  0  0  0  0  0  0  0  0  0  0  0
    4.7499    2.3304    0.0000 C   0  0  0  0  0  0  0  0  0  0  0  0
   -2.4400    0.6600    0.0000 C   0  0  0  0  0  0  0  0  0  0  0  0
   -1.1400    1.4100    0.0000 C   0  0  0  0  0  0  0  0  0  0  0  0
   -1.1400   -1.5900    0.0000 C   0  0  0  0  0  0  0  0  0  0  0  0
   -5.0381   -0.8404    0.0000 C   0  0  0  0  0  0  0  0  0  0  0  0
    0.1600   -0.8400    0.0000 C   0  0  0  0  0  0  0  0  0  0  0  0
   -2.4400   -0.8400    0.0000 C   0  0  0  0  0  0  0  0  0  0  0  0
    0.1600    0.6600    0.0000 C   0  0  0  0  0  0  0  0  0  0  0  0
    2.7600    0.6600    0.0000 C   0  0  0  0  0  0  0  0  0  0  0  0
   -5.0383    0.6596    0.0000 O   0  0  0  0  0  0  0  0  0  0  0  0
   -3.7389   -1.5902    0.0000 O   0  0  0  0  0  0  0  0  0  0  0  0
    1.4600    1.4100    0.0000 O   0  0  0  0  0  0  0  0  0  0  0  0
    5.2626    3.7401    0.0000 S   0  0  0  0  0  0  0  0  0  0  0  0
  7  6  1  0
  9  8  1  0
 10  1  1  0
 11  2  1  0
 11 10  1  0
 12  3  1  0
 13  4  1  0
 14  6  1  0
 14 12  2  0
 15 10  2  0
 15 12  1  0
 16 11  2  0
 16 14  1  0
 17  5  1  0
 17  7  1  0
 17  8  1  0
 18 13  2  0
 19 13  1  0
 19 15  1  0
 20 16  1  0
 20 17  1  0
 21  9  1  0
M  END
>  <NAME>  (1462) 
6-ACETOXY-3,4-DIHYDRO-2-(2-MERCAPTOETHYL)-2,5,7,8-TETRAMETHYL-2H-1-BENZOPYRAN

>  <SYNONYMS>  (1462) 


>  <SPECTRUM TYPE>  (1462) 
MS1

>  <INSTRUMENT TYPE>  (1462) 
EI-B

>  <INSTRUMENT>  (1462) 
JEOL JMS-D-300

>  <ION MODE>  (1462) 
P

>  <INCHIKEY>  (1462) 
BZMFPCPZSSVHGT-UHFFFAOYSA-N

>  <FORMULA>  (1462) 
C17H24O3S

>  <EXACT MASS>  (1462) 
308.144615628

>  <MW>  (1462) 
308

>  <ID>  (1462) 
JP009960

>  <CONTRIBUTOR>  (1462) 
University of Tokyo Team, {Faculty of Engineering, University of Tokyo

>  <COMMENT>  (1462) 
SMILES=SCCC(C)(C2)Oc(c(C)1)c(C2)c(C)c(OC(C)=O)c(C)1
InChI=InChI=1S/C17H24O3S/c1-10-11(2)16-14(12(3)15(10)19-13(4)18)6-7-17(5,20-16)8-9-21/h21H,6-9H2,1-5H3
computed SMILES=O=C(OC=1C(=C(C=2OC(C)(CCS)CCC2C1C)C)C)C
accession=JP009960
date=2016.01.19 (Created 2008.10.21, modified 2011.05.06)
author=KURARAY CO., LTD.
license=CC BY-NC-SA
exact mass=308.14462
ionization energy=70 eV
ion type=[M]+*
computed spectral entropy=2.530456336612132
computed normalized entropy=0.7237096709011052
SPLASH=splash10-014i-2692000000-0886be9ccf8e324c8661
submitter=submitter = University of Tokyo Team (Faculty of Engineering, University of Tokyo)
MoNA Rating=3.75

>  <NUM PEAKS>  (1462) 
33

>  <MASS SPECTRAL PEAKS>  (1462) 
41 4.9
43 17.5
53 4.5
55 0.49
67 2.3
77 2.3
79 2.7
91 0.74
93 2.5
101 17.2
107 3.3
121 0.44
135 3.8
136 4.4
164 56.5
165 8.01
166 12.1
175 1.4
177 2.8
189 0.28
203 6.3
205 5.8
207 1.4
231 0.28
232 15.2
233 1.9
265 1.3
266 99.99
267 17.5
268 5.9
308 32.6
309 0.61
310 1.4

$$$$

     RDKit          2D

 22 23  0  0  0  0  0  0  0  0999 V2000
    5.5858   -4.6822    0.0000 C   0  0  0  0  0  0  0  0  0  0  0  0
   -1.0100   -3.0000    0.0000 C   0  0  0  0  0  0  0  0  0  0  0  0
   -3.6089   -1.5002    0.0000 C   0  0  0  0  0  0  0  0  0  0  0  0
   -1.0100    3.0000    0.0000 C   0  0  0  0  0  0  0  0  0  0  0  0
    4.1000   -0.0000    0.0000 C   0  0  0  0  0  0  0  0  0  0  0  0
    4.1182    4.3721    0.0000 C   0  0  0  0  0  0  0  0  0  0  0  0
    4.1182   -4.3721    0.0000 C   0  0  0  0  0  0  0  0  0  0  0  0
    3.6529   -2.9461    0.0000 C   0  0  0  0  0  0  0  0  0  0  0  0
    2.1853   -2.6360    0.0000 C   0  0  0  0  0  0  0  0  0  0  0  0
   -1.0100   -1.5000    0.0000 C   0  0  0  0  0  0  0  0  0  0  0  0
   -2.3100   -0.7500    0.0000 C   0  0  0  0  0  0  0  0  0  0  0  0
   -1.0100    1.5000    0.0000 C   0  0  0  0  0  0  0  0  0  0  0  0
    2.6000   -0.0000    0.0000 C   0  0  0  0  0  0  0  0  0  0  0  0
    0.2900    0.7500    0.0000 C   0  0  0  0  0  0  0  0  0  0  0  0
    1.7200    1.2100    0.0000 C   0  0  0  0  0  0  0  0  0  0  0  0
    0.2900   -0.7500    0.0000 C   0  0  0  0  0  0  0  0  0  0  0  0
   -2.3100    0.7500    0.0000 C   0  0  0  0  0  0  0  0  0  0  0  0
    2.1853    2.6360    0.0000 C   0  0  0  0  0  0  0  0  0  0  0  0
    1.7200   -1.2100    0.0000 N   0  0  0  0  0  0  0  0  0  0  0  0
   -3.6089    1.5002    0.0000 O   0  0  0  0  0  0  0  0  0  0  0  0
    1.1830    3.7520    0.0000 O   0  0  0  0  0  0  0  0  0  0  0  0
    3.6529    2.9461    0.0000 O   0  0  0  0  0  0  0  0  0  0  0  0
  7  1  1  0
  8  7  1  0
  9  8  1  0
 10  2  1  0
 11  3  1  0
 11 10  2  0
 12  4  1  0
 13  5  1  0
 14 12  1  0
 15 13  2  0
 15 14  1  0
 16 10  1  0
 16 14  2  0
 17 11  1  0
 17 12  2  0
 18 15  1  0
 19  9  1  0
 19 13  1  0
 19 16  1  0
 20 17  1  0
 21 18  2  0
 22  6  1  0
 22 18  1  0
M  END
>  <NAME>  (1463) 
1-BUTYL-5-HYDROXY-3-METHOXYCARBONYL-2,4,6,7-TETRAMETHYLINDOLE

>  <SYNONYMS>  (1463) 


>  <SPECTRUM TYPE>  (1463) 
MS1

>  <INSTRUMENT TYPE>  (1463) 
EI-B

>  <INSTRUMENT>  (1463) 
JEOL JMS-D-300

>  <ION MODE>  (1463) 
P

>  <INCHIKEY>  (1463) 
HGABABVBQJLOLJ-UHFFFAOYSA-N

>  <FORMULA>  (1463) 
C18H25NO3

>  <EXACT MASS>  (1463) 
303.18344365999997

>  <MW>  (1463) 
303

>  <ID>  (1463) 
JP009959

>  <CONTRIBUTOR>  (1463) 
University of Tokyo Team, {Faculty of Engineering, University of Tokyo

>  <COMMENT>  (1463) 
SMILES=CCCCn(c(C)1)c(c(C)2)c(c(C)c(O)c(C)2)c(C(=O)OC)1
InChI=InChI=1S/C18H25NO3/c1-7-8-9-19-13(5)15(18(21)22-6)14-12(4)17(20)11(3)10(2)16(14)19/h20H,7-9H2,1-6H3
computed SMILES=O=C(OC)C=1C=2C(=C(C(=C(O)C2C)C)C)N(C1C)CCCC
accession=JP009959
date=2016.01.19 (Created 2008.10.21, modified 2011.05.06)
author=KURARAY CO., LTD.
license=CC BY-NC-SA
exact mass=303.18344
ionization energy=70 eV
ion type=[M]+*
computed spectral entropy=2.441158512158506
computed normalized entropy=0.7492591099344553
SPLASH=splash10-0udi-1198000000-ae411bf8bc6581641f43
submitter=submitter = University of Tokyo Team (Faculty of Engineering, University of Tokyo)
MoNA Rating=3.75

>  <NUM PEAKS>  (1463) 
26

>  <MASS SPECTRAL PEAKS>  (1463) 
28 0.9
29 9.7
41 7.7
43 0.49
140 6.1
151 6
158 4.4
200 0.56
202 8.2
214 8.5
215 9.2
216 0.71
222 3.4
228 32.6
229 6.3
243 0.77
246 4.5
260 20.3
261 4.4
271 0.88
272 19.7
288 4.4
289 4.9
302 0.86
303 99.99
304 22.9

$$$$

     RDKit          2D

 22 22  0  0  0  0  0  0  0  0999 V2000
  -12.3407   -6.3746    0.0000 C   0  0  0  0  0  0  0  0  0  0  0  0
  -11.0416   -8.6246    0.0000 C   0  0  0  0  0  0  0  0  0  0  0  0
   -5.8455   -8.6246    0.0000 C   0  0  0  0  0  0  0  0  0  0  0  0
   -0.6493   -8.6246    0.0000 C   0  0  0  0  0  0  0  0  0  0  0  0
    5.8459   -4.8746    0.0000 C   0  0  0  0  0  0  0  0  0  0  0  0
    4.5464   -4.1238    0.0000 C   0  0  0  0  0  0  0  0  0  0  0  0
   -8.4435   -7.1246    0.0000 C   0  0  0  0  0  0  0  0  0  0  0  0
   -3.2474   -7.1246    0.0000 C   0  0  0  0  0  0  0  0  0  0  0  0
   -9.7426   -6.3746    0.0000 C   0  0  0  0  0  0  0  0  0  0  0  0
   -7.1445   -6.3746    0.0000 C   0  0  0  0  0  0  0  0  0  0  0  0
   -4.5464   -6.3746    0.0000 C   0  0  0  0  0  0  0  0  0  0  0  0
   -1.9483   -6.3746    0.0000 C   0  0  0  0  0  0  0  0  0  0  0  0
    5.8464   -6.3755    0.0000 C   0  0  0  0  0  0  0  0  0  0  0  0
    0.6497   -6.3746    0.0000 C   0  0  0  0  0  0  0  0  0  0  0  0
    3.2473   -4.8738    0.0000 C   0  0  0  0  0  0  0  0  0  0  0  0
    1.9488   -7.1246    0.0000 C   0  0  0  0  0  0  0  0  0  0  0  0
  -11.0416   -7.1246    0.0000 C   0  0  0  0  0  0  0  0  0  0  0  0
   -5.8455   -7.1246    0.0000 C   0  0  0  0  0  0  0  0  0  0  0  0
   -0.6493   -7.1246    0.0000 C   0  0  0  0  0  0  0  0  0  0  0  0
    4.5473   -7.1255    0.0000 C   0  0  0  0  0  0  0  0  0  0  0  0
    3.2478   -6.3746    0.0000 N   0  0  0  0  0  0  0  0  0  0  0  0
    4.5471   -8.6255    0.0000 O   0  0  0  0  0  0  0  0  0  0  0  0
  6  5  1  0
  9  7  1  0
 10  7  1  0
 11  8  1  0
 12  8  1  0
 13  5  1  0
 15  6  1  0
 16 14  1  0
 17  1  1  0
 17  2  1  0
 17  9  2  0
 18  3  1  0
 18 10  1  0
 11 18  2  0
 19  4  1  0
 19 12  1  0
 14 19  2  0
 20 13  1  0
 21 15  1  0
 21 16  1  0
 21 20  1  0
 22 20  2  0
M  END
>  <NAME>  (1464) 
N-(3,7,11-TRIMETHYL-2,6,10-DODECATRIENYL)-6-HEXANELACTAM

>  <SYNONYMS>  (1464) 


>  <SPECTRUM TYPE>  (1464) 
MS1

>  <INSTRUMENT TYPE>  (1464) 
EI-B

>  <INSTRUMENT>  (1464) 
JEOL JMS-D-300

>  <ION MODE>  (1464) 
P

>  <INCHIKEY>  (1464) 
NIYHCJHBUMZSLH-MMOYSQFZSA-N

>  <FORMULA>  (1464) 
C20H33NO

>  <EXACT MASS>  (1464) 
303.256214676

>  <MW>  (1464) 
303

>  <ID>  (1464) 
JP009958

>  <CONTRIBUTOR>  (1464) 
University of Tokyo Team, {Faculty of Engineering, University of Tokyo

>  <COMMENT>  (1464) 
SMILES=CC(C)=CCCC(C)=CCCC(C)=CCN(C1)C(=O)CCC1
InChI=InChI=1S/C20H33NO/c1-17(2)9-7-10-18(3)11-8-12-19(4)14-16-21-15-6-5-13-20(21)22/h9,11,14H,5-8,10,12-13,15-16H2,1-4H3/b18-11+,19-14+
computed SMILES=O=C1N(CC=C(C)CCC=C(C)CCC=C(C)C)CCCC1
accession=JP009958
date=2016.01.19 (Created 2008.10.21, modified 2011.05.06)
author=KURARAY CO., LTD.
license=CC BY-NC-SA
exact mass=303.25621
ionization energy=70 eV
ion type=[M]+*
computed spectral entropy=3.252701158943934
computed normalized entropy=0.7792044553224345
SPLASH=splash10-02u0-7910000000-65c46b8e80ac4ff5e55d
submitter=submitter = University of Tokyo Team (Faculty of Engineering, University of Tokyo)
MoNA Rating=3.75

>  <NUM PEAKS>  (1464) 
65

>  <MASS SPECTRAL PEAKS>  (1464) 
27 3.4
29 7.7
30 3.8
39 0.38
41 41.8
42 5.9
43 8.9
44 0.17
53 6.1
54 29.1
56 7
57 0.27
67 15.2
68 10.2
69 45.1
70 0.86
77 2.8
79 6.3
80 5.8
81 1.3
82 15
83 5
84 23.5
85 0.3
91 4.1
92 1.9
93 24.4
94 0.41
95 5.6
96 2.7
98 8
99 0.19
100 40.1
105 4.1
107 8.6
108 0.2
109 3.9
110 2
112 95.8
113 1.27
119 5.2
121 6.9
122 4.2
123 0.31
124 17.1
133 2.8
134 1.6
135 2.66
136 6.1
138 6.1
148 3.4
150 0.39
152 7
153 2.5
161 4.5
165 0.25
166 99.99
167 14.9
168 1.6
178 0.3
204 5
207 0.3
234 62.8
235 1.02
303 3.4

$$$$

     RDKit          2D

 22 22  0  0  0  0  0  0  0  0999 V2000
   -5.3712    1.2718    0.0000 C   0  0  0  0  0  0  0  0  0  0  0  0
   -2.2197    8.0276    0.0000 C   0  0  0  0  0  0  0  0  0  0  0  0
   -0.2294    9.6976    0.0000 C   0  0  0  0  0  0  0  0  0  0  0  0
    2.1501    4.8408    0.0000 C   0  0  0  0  0  0  0  0  0  0  0  0
    2.0882    3.1708    0.0000 C   0  0  0  0  0  0  0  0  0  0  0  0
   -4.0721    2.0218    0.0000 C   0  0  0  0  0  0  0  0  0  0  0  0
   -2.7731    1.2718    0.0000 C   0  0  0  0  0  0  0  0  0  0  0  0
    5.0211   -0.2282    0.0000 C   0  0  0  0  0  0  0  0  0  0  0  0
    5.0216    1.2726    0.0000 C   0  0  0  0  0  0  0  0  0  0  0  0
    3.7216   -0.9791    0.0000 C   0  0  0  0  0  0  0  0  0  0  0  0
   -1.4740    2.0218    0.0000 C   0  0  0  0  0  0  0  0  0  0  0  0
    3.7226    2.0226    0.0000 C   0  0  0  0  0  0  0  0  0  0  0  0
    2.4226   -0.2291    0.0000 C   0  0  0  0  0  0  0  0  0  0  0  0
   -0.1750    1.2718    0.0000 C   0  0  0  0  0  0  0  0  0  0  0  0
    0.1598    3.1708    0.0000 C   0  0  0  0  0  0  0  0  0  0  0  0
   -0.7425    8.2880    0.0000 C   0  0  0  0  0  0  0  0  0  0  0  0
    0.6729    4.5804    0.0000 C   0  0  0  0  0  0  0  0  0  0  0  0
    2.4231    1.2718    0.0000 C   0  0  0  0  0  0  0  0  0  0  0  0
    0.2217    7.1390    0.0000 C   0  0  0  0  0  0  0  0  0  0  0  0
    1.1240    2.0218    0.0000 C   0  0  0  0  0  0  0  0  0  0  0  0
    1.6989    7.3994    0.0000 O   0  0  0  0  0  0  0  0  0  0  0  0
   -0.2913    5.7294    0.0000 O   0  0  0  0  0  0  0  0  0  0  0  0
  6  1  1  0
  7  6  1  0
  9  8  2  0
 10  8  1  0
 11  7  1  0
 12  9  1  0
 13 10  2  0
 14 11  1  0
 16  2  2  0
 16  3  1  0
 17  4  1  0
 17 15  1  0
 18 12  2  0
 18 13  1  0
 19 16  1  0
 20  5  1  0
 20 14  1  0
 20 15  1  0
 20 18  1  0
 21 19  2  0
 22 17  1  0
 22 19  1  0
M  END
>  <NAME>  (1465) 
1,3-DIMETHYL-3-PHENYLOCTYL METHACRYLATE

>  <SYNONYMS>  (1465) 


>  <SPECTRUM TYPE>  (1465) 
MS1

>  <INSTRUMENT TYPE>  (1465) 
EI-B

>  <INSTRUMENT>  (1465) 
JEOL JMS-D-300

>  <ION MODE>  (1465) 
P

>  <INCHIKEY>  (1465) 
GPKKCNPTXCVNEX-UHFFFAOYSA-N

>  <FORMULA>  (1465) 
C20H30O2

>  <EXACT MASS>  (1465) 
302.2245802

>  <MW>  (1465) 
302

>  <ID>  (1465) 
JP009957

>  <CONTRIBUTOR>  (1465) 
University of Tokyo Team, {Faculty of Engineering, University of Tokyo

>  <COMMENT>  (1465) 
SMILES=CCCCCC(C)(CC(C)OC(=O)C(C)=C)c(c1)cccc1
InChI=InChI=1S/C20H30O2/c1-6-7-11-14-20(5,18-12-9-8-10-13-18)15-17(4)22-19(21)16(2)3/h8-10,12-13,17H,2,6-7,11,14-15H2,1,3-5H3
computed SMILES=O=C(OC(C)CC(C=1C=CC=CC1)(C)CCCCC)C(=C)C
accession=JP009957
date=2016.01.19 (Created 2008.10.21, modified 2011.05.06)
author=KURARAY CO., LTD.
license=CC BY-NC-SA
exact mass=302.22458
ionization energy=70 eV
ion type=[M]+*
computed spectral entropy=2.760866647290071
computed normalized entropy=0.6921227598460853
SPLASH=splash10-0002-2900000000-fc476d4a93836572269b
submitter=submitter = University of Tokyo Team (Faculty of Engineering, University of Tokyo)
MoNA Rating=3.75

>  <NUM PEAKS>  (1465) 
54

>  <MASS SPECTRAL PEAKS>  (1465) 
27 0.7
28 6.3
29 2.8
39 0.19
41 13.3
42 1
43 3.9
55 0.26
57 0.7
67 0.7
69 16.8
70 0.06
71 0.7
73 0.5
77 1.9
78 0.18
79 1.4
91 32.4
92 2.6
97 0.05
103 3.9
104 0.7
105 48.1
106 0.43
115 2.5
116 1
117 9.7
118 1.23
119 12
120 0.9
127 0.6
128 0.12
129 2.5
130 1.4
131 3.8
132 0.05
133 3.9
143 1.2
144 0.6
145 99.99
146 21.2
147 2.5
159 12
160 0.28
174 1.7
175 31.3
176 4.5
188 0.14
189 0.8
221 1.2
231 11.3
232 0.19
245 3.8
246 0.7

$$$$

     RDKit          2D

 22 25  0  0  1  0  0  0  0  0999 V2000
   -1.6800    1.1900    0.0000 C   0  0  0  0  0  0  0  0  0  0  0  0
    2.3787    3.4316    0.0000 C   0  0  0  0  0  0  0  0  0  0  0  0
    3.6500   -0.0200    0.0000 C   0  0  0  0  0  0  0  0  0  0  0  0
    4.5300    1.1900    0.0000 C   0  0  0  0  0  0  0  0  0  0  0  0
   -4.2800   -0.3100    0.0000 C   0  0  0  0  0  0  0  0  0  0  0  0
   -0.3800    1.9400    0.0000 C   0  0  0  0  0  0  0  0  0  0  0  0
   -2.9800    0.4400    0.0000 C   0  0  0  0  0  0  0  0  0  0  0  0
    0.9200    2.6900    0.0000 C   0  0  0  0  0  0  0  0  0  0  0  0
   -2.9800   -2.5600    0.0000 C   0  0  0  0  0  0  0  0  0  0  0  0
   -0.3800   -2.5600    0.0000 C   0  0  0  0  0  0  0  0  0  0  0  0
   -1.6800   -1.8100    0.0000 C   0  0  0  0  0  0  0  0  0  0  0  0
   -4.2800   -1.8100    0.0000 C   0  0  0  0  0  0  0  0  0  0  0  0
    2.2200    0.4400    0.0000 C   0  0  0  0  0  0  0  0  0  0  0  0
   -0.3800    0.4400    0.0000 C   0  0  0  0  0  0  0  0  0  0  0  0
    0.9200   -1.8100    0.0000 C   0  0  0  0  0  0  0  0  0  0  0  0
    3.6500    2.4000    0.0000 C   0  0  0  0  0  0  0  0  0  0  0  0
    0.9200   -0.3100    0.0000 C   0  0  0  0  0  0  0  0  0  0  0  0
   -1.6800   -0.3100    0.0000 C   0  0  0  0  0  0  0  0  0  0  0  0
    2.2200    1.9400    0.0000 C   0  0  0  0  0  0  0  0  0  0  0  0
   -5.5789   -2.5602    0.0000 O   0  0  0  0  0  0  0  0  0  0  0  0
    2.2189   -2.5602    0.0000 O   0  0  0  0  0  0  0  0  0  0  0  0
    4.1153    3.8260    0.0000 O   0  0  0  0  0  0  0  0  0  0  0  0
  4  3  1  0
  7  5  1  0
  8  6  1  0
 11  9  2  0
 11 10  1  0
 12  5  1  0
 12  9  1  0
 13  3  1  1
 14  6  1  1
 15 10  1  0
 16  4  1  0
 17 13  1  0
 17 14  1  0
 17 15  1  6
 18  1  1  1
 18  7  1  0
 18 11  1  0
 18 14  1  0
 19  2  1  1
 19  8  1  0
 19 13  1  0
 19 16  1  0
 20 12  2  0
 15 21  1  6
 22 16  2  0
M  END
>  <NAME>  (1466) 
7-HYDROXY-4-ANDROSTENE-3,17-DIONE

>  <SYNONYMS>  (1466) 


>  <SPECTRUM TYPE>  (1466) 
MS1

>  <INSTRUMENT TYPE>  (1466) 
EI-B

>  <INSTRUMENT>  (1466) 
JEOL JMS-D-300

>  <ION MODE>  (1466) 
P

>  <INCHIKEY>  (1466) 
LFWLQMQUJQUZBD-UOEDLQKQSA-N

>  <FORMULA>  (1466) 
C19H26O3

>  <EXACT MASS>  (1466) 
302.18819469199997

>  <MW>  (1466) 
302

>  <ID>  (1466) 
JP009956

>  <CONTRIBUTOR>  (1466) 
University of Tokyo Team, {Faculty of Engineering, University of Tokyo

>  <COMMENT>  (1466) 
SMILES=O=C(C4)C=C(C3)C(C)(C4)C([H])(C2)C([H])(C(O)3)C([H])(C1)C(C)(C2)C(=O)C1
InChI=InChI=1S/C19H26O3/c1-18-7-5-12(20)9-11(18)10-15(21)17-13-3-4-16(22)19(13,2)8-6-14(17)18/h9,13-15,17,21H,3-8,10H2,1-2H3/t13-,14-,15?,17-,18-,19-/m0/s1
computed SMILES=O=C1C=C2CC(O)C3C4CCC(=O)C4(C)CCC3C2(C)CC1
computed InChI=InChI=1S/C19H26O3/c1-18-7-5-12(20)9-11(18)10-15(21)17-13-3-4-16(22)19(13,2)8-6-14(17)18/h9,13-15,17,21H,3-8,10H2,1-2H3/t13-,14-,15+,17-,18-,19-/m0/s1
ion type=[M]+*
computed spectral entropy=3.993337679640511
accession=JP009956
date=2016.01.19 (Created 2008.10.21, modified 2011.05.06)
author=KURARAY CO., LTD.
license=CC BY-NC-SA
exact mass=302.18819
ionization energy=70 eV
computed normalized entropy=0.8165751718206227
SPLASH=splash10-00di-3920000000-e798b14e62c8255c3f39
submitter=submitter = University of Tokyo Team (Faculty of Engineering, University of Tokyo)
MoNA Rating=3.75

>  <NUM PEAKS>  (1466) 
133

>  <MASS SPECTRAL PEAKS>  (1466) 
27 0.6
29 1.7
39 2.3
41 0.92
43 3.6
44 37.8
53 4.7
55 1.27
57 1.6
65 3.1
66 0.3
67 0.97
68 1.4
69 2.7
77 8
78 0.22
79 12.8
80 2
81 9.5
82 0.25
83 2.3
85 0.9
91 12.3
92 0.3
93 9.4
94 3.4
95 11.1
96 0.27
97 4.8
105 9.8
106 4.7
107 0.97
108 3.9
109 12.5
110 3.6
111 0.14
115 2.2
116 1.3
117 3.9
118 0.23
119 8.6
120 2
121 5
122 1.22
123 29.4
124 99.99
125 12
128 0.23
129 3
130 1.3
131 4.7
132 0.44
133 8.9
134 5
135 3.9
136 1
137 3.1
141 1.6
142 2.5
143 0.45
144 2.2
145 4.7
146 2.5
147 0.3
148 2.8
149 5.8
150 3
151 0.33
152 16.4
153 2.2
155 1.4
157 0.31
158 1.4
159 4.4
160 3
161 0.63
162 3.1
163 1.6
169 1.6
170 0.09
171 3.3
172 1.6
173 3
174 0.44
175 3
179 2.7
183 1.6
184 0.14
185 4.7
186 2.8
187 1.9
188 0.39
192 1.6
195 1.3
197 1.1
198 0.2
199 3.8
200 1.6
201 1.4
209 0.22
211 1.3
212 1.4
213 3.1
214 0.23
223 1.1
224 1.3
225 1.4
226 0.03
227 5
228 3
229 4.7
231 0.06
233 1.3
240 4.8
241 3
242 0.91
243 1.6
245 1.3
246 12.5
247 0.2
251 2.3
255 1.4
256 3
258 0.13
266 2.5
267 0.3
269 4.7
274 0.56
284 15.6
285 3.4
287 3.1
302 5.44
303 11.3

$$$$

     RDKit          2D

 22 25  0  0  1  0  0  0  0  0999 V2000
   -1.6800    1.1900    0.0000 C   0  0  0  0  0  0  0  0  0  0  0  0
    2.3787    3.4316    0.0000 C   0  0  0  0  0  0  0  0  0  0  0  0
    3.6500   -0.0200    0.0000 C   0  0  0  0  0  0  0  0  0  0  0  0
    4.5300    1.1900    0.0000 C   0  0  0  0  0  0  0  0  0  0  0  0
   -4.2800   -0.3100    0.0000 C   0  0  0  0  0  0  0  0  0  0  0  0
   -0.3800    1.9400    0.0000 C   0  0  0  0  0  0  0  0  0  0  0  0
   -2.9800    0.4400    0.0000 C   0  0  0  0  0  0  0  0  0  0  0  0
    0.9200    2.6900    0.0000 C   0  0  0  0  0  0  0  0  0  0  0  0
   -2.9800   -2.5600    0.0000 C   0  0  0  0  0  0  0  0  0  0  0  0
    0.9200   -1.8100    0.0000 C   0  0  0  0  0  0  0  0  0  0  0  0
   -4.2800   -1.8100    0.0000 C   0  0  0  0  0  0  0  0  0  0  0  0
    0.9200   -0.3100    0.0000 C   0  0  0  0  0  0  0  0  0  0  0  0
    2.2200    0.4400    0.0000 C   0  0  0  0  0  0  0  0  0  0  0  0
   -0.3800    0.4400    0.0000 C   0  0  0  0  0  0  0  0  0  0  0  0
   -1.6800   -1.8100    0.0000 C   0  0  0  0  0  0  0  0  0  0  0  0
   -0.3800   -2.5600    0.0000 C   0  0  0  0  0  0  0  0  0  0  0  0
    3.6500    2.4000    0.0000 C   0  0  0  0  0  0  0  0  0  0  0  0
   -1.6800   -0.3100    0.0000 C   0  0  0  0  0  0  0  0  0  0  0  0
    2.2200    1.9400    0.0000 C   0  0  0  0  0  0  0  0  0  0  0  0
   -5.5789   -2.5602    0.0000 O   0  0  0  0  0  0  0  0  0  0  0  0
   -0.3800   -4.0600    0.0000 O   0  0  0  0  0  0  0  0  0  0  0  0
    4.1153    3.8260    0.0000 O   0  0  0  0  0  0  0  0  0  0  0  0
  4  3  1  0
  7  5  1  0
  8  6  1  0
 11  5  1  0
 11  9  1  0
 12 10  1  6
 13  3  1  1
 13 12  1  0
 14  6  1  1
 14 12  1  0
 15  9  2  0
 16 10  1  0
 16 15  1  0
 17  4  1  0
 18  1  1  1
 18  7  1  0
 18 14  1  0
 18 15  1  0
 19  2  1  1
 19  8  1  0
 19 13  1  0
 19 17  1  0
 20 11  2  0
 21 16  1  0
 22 17  2  0
M  END
>  <NAME>  (1467) 
6-HYDROXY-4-ANDROSTENE-3,17-DIONE

>  <SYNONYMS>  (1467) 


>  <SPECTRUM TYPE>  (1467) 
MS1

>  <INSTRUMENT TYPE>  (1467) 
EI-B

>  <INSTRUMENT>  (1467) 
JEOL JMS-D-300

>  <ION MODE>  (1467) 
P

>  <INCHIKEY>  (1467) 
WVAMBAWFDOYFOD-WFJVDCJUSA-N

>  <FORMULA>  (1467) 
C19H26O3

>  <EXACT MASS>  (1467) 
302.18819469199997

>  <MW>  (1467) 
302

>  <ID>  (1467) 
JP009955

>  <CONTRIBUTOR>  (1467) 
University of Tokyo Team, {Faculty of Engineering, University of Tokyo

>  <COMMENT>  (1467) 
SMILES=O=C(C4)C=C(C(O)3)C(C)(C4)C([H])(C2)C([H])(C3)C([H])(C1)C(C)(C2)C(=O)C1
InChI=InChI=1S/C19H26O3/c1-18-7-5-11(20)9-15(18)16(21)10-12-13-3-4-17(22)19(13,2)8-6-14(12)18/h9,12-14,16,21H,3-8,10H2,1-2H3/t12-,13-,14-,16?,18+,19-/m0/s1
computed SMILES=O=C1C=C2C(O)CC3C4CCC(=O)C4(C)CCC3C2(C)CC1
accession=JP009955
date=2016.01.19 (Created 2008.10.21, modified 2011.05.06)
author=KURARAY CO., LTD.
license=CC BY-NC-SA
exact mass=302.18819
ionization energy=70 eV
ion type=[M]+*
computed spectral entropy=4.3988187931106415
computed normalized entropy=0.8342156573797982
SPLASH=splash10-0uec-7942000000-d079c91515b751c3602b
submitter=submitter = University of Tokyo Team (Faculty of Engineering, University of Tokyo)
MoNA Rating=3.75

>  <NUM PEAKS>  (1467) 
195

>  <MASS SPECTRAL PEAKS>  (1467) 
27 9.4
28 3
29 12.3
31 0.13
39 12.2
40 2.3
41 36.4
42 0.36
43 18.8
51 3.3
52 2.7
53 1.88
54 4.2
55 37.5
56 2
57 0.38
65 9.2
66 5
67 29.2
68 0.63
69 6.6
71 1.7
77 20.5
78 0.5
79 30
80 6.3
81 26.6
82 0.67
83 5.3
84 0.6
85 1.3
91 2.81
92 5.9
93 26.7
94 7.5
95 2.11
96 5.5
97 15.3
98 3.1
103 0.27
104 1.3
105 18.8
106 5.9
107 2.08
108 15.6
109 24.2
110 21.4
111 0.93
112 3.1
113 0.6
114 1.3
115 0.45
116 1.6
117 6.1
118 2.3
119 0.97
120 4.4
121 12.7
122 6.4
123 1.64
124 7.8
125 3
127 0.8
128 0.34
129 4.7
130 1.6
131 10.8
132 0.47
133 7.8
134 5.9
135 9.4
136 1.53
137 8
138 13
139 19.2
140 0.84
141 2.3
142 1.4
143 5.8
144 0.33
145 9.2
146 4.7
147 14.1
148 0.61
149 18.9
150 12.8
151 3.8
152 2.27
153 5.9
154 0.6
155 1.6
156 0.06
157 5
158 2.8
159 5.5
160 0.44
161 5.6
162 3.1
163 4.1
164 0.23
165 1.7
166 1.3
167 1.4
168 0.14
169 2
170 1.4
171 6.3
172 0.28
173 6.3
174 2.5
175 5
176 0.19
177 2.8
178 1.6
179 1.3
180 0.05
181 1.6
182 0.6
183 2.5
184 0.28
185 9.5
186 4.7
187 4.4
188 0.3
189 4.5
190 2.3
191 2.7
192 0.13
193 1.3
194 0.3
195 1.9
196 0.06
197 2
198 4.8
199 6.3
200 0.16
201 3.1
202 2.8
203 5.5
204 0.28
205 1.6
206 1.1
207 0.5
208 0.03
209 1.9
210 1.3
211 1.6
213 0.5
214 3.1
215 2.8
216 1.7
217 0.25
218 1.3
219 1.3
220 3
223 0.13
225 1.9
226 1.4
227 4.8
228 0.34
229 2
230 1.3
231 6.4
232 0.64
233 81.7
234 13.9
235 1.6
237 0.03
238 0.5
239 0.5
240 1.7
241 0.41
242 4.5
243 2.3
245 3.3
246 0.55
247 1.7
251 1.3
256 1.7
258 0.17
259 5.9
260 1.3
269 4.7
273 1.55
274 4.7
284 6.3
285 1.6
286 0.06
287 25.9
288 4.7
300 1.4
301 0.05
302 99.99
303 24.7
304 4.2

$$$$

     RDKit          2D

 22 24  0  0  0  0  0  0  0  0999 V2000
   -3.7389    1.4102    0.0000 C   0  0  0  0  0  0  0  0  0  0  0  0
   -1.1400    2.9100    0.0000 C   0  0  0  0  0  0  0  0  0  0  0  0
   -1.1400   -3.0900    0.0000 C   0  0  0  0  0  0  0  0  0  0  0  0
    4.2372    0.3997    0.0000 C   0  0  0  0  0  0  0  0  0  0  0  0
    1.4600   -1.5900    0.0000 C   0  0  0  0  0  0  0  0  0  0  0  0
    2.7600   -0.8400    0.0000 C   0  0  0  0  0  0  0  0  0  0  0  0
    3.2727    2.0696    0.0000 C   0  0  0  0  0  0  0  0  0  0  0  0
    6.7570    5.6546    0.0000 C   0  0  0  0  0  0  0  0  0  0  0  0
    4.7499    2.3304    0.0000 C   0  0  0  0  0  0  0  0  0  0  0  0
    6.7005    4.1535    0.0000 C   0  0  0  0  0  0  0  0  0  0  0  0
    4.4263    4.9807    0.0000 C   0  0  0  0  0  0  0  0  0  0  0  0
   -2.4400    0.6600    0.0000 C   0  0  0  0  0  0  0  0  0  0  0  0
   -1.1400    1.4100    0.0000 C   0  0  0  0  0  0  0  0  0  0  0  0
   -1.1400   -1.5900    0.0000 C   0  0  0  0  0  0  0  0  0  0  0  0
    0.1600   -0.8400    0.0000 C   0  0  0  0  0  0  0  0  0  0  0  0
   -2.4400   -0.8400    0.0000 C   0  0  0  0  0  0  0  0  0  0  0  0
    0.1600    0.6600    0.0000 C   0  0  0  0  0  0  0  0  0  0  0  0
    2.7600    0.6600    0.0000 C   0  0  0  0  0  0  0  0  0  0  0  0
    5.3474    6.1673    0.0000 N   0  0  0  0  0  0  0  0  0  0  0  0
    5.2626    3.7401    0.0000 N   0  0  0  0  0  0  0  0  0  0  0  0
   -3.7389   -1.5902    0.0000 O   0  0  0  0  0  0  0  0  0  0  0  0
    1.4600    1.4100    0.0000 O   0  0  0  0  0  0  0  0  0  0  0  0
  6  5  1  0
  9  7  1  0
 10  8  2  0
 12  1  1  0
 13  2  1  0
 13 12  1  0
 14  3  1  0
 15  5  1  0
 15 14  2  0
 16 12  2  0
 16 14  1  0
 17 13  2  0
 17 15  1  0
 18  4  1  0
 18  6  1  0
 18  7  1  0
 19  8  1  0
 19 11  2  0
 20  9  1  0
 20 10  1  0
 20 11  1  0
 21 16  1  0
 22 17  1  0
 22 18  1  0
M  END
>  <NAME>  (1468) 
3,4-DIHYDRO-6-HYDROXY-2-(2-(IMIDAZOL-1-YL)ETHYL)-2,5,7,8-TETRAMETHYL-2H-1-BENZOPYRAN

>  <SYNONYMS>  (1468) 


>  <SPECTRUM TYPE>  (1468) 
MS1

>  <INSTRUMENT TYPE>  (1468) 
EI-B

>  <INSTRUMENT>  (1468) 
JEOL JMS-D-300

>  <ION MODE>  (1468) 
P

>  <INCHIKEY>  (1468) 
YRQDSILNLFORDF-UHFFFAOYSA-N

>  <FORMULA>  (1468) 
C18H24N2O2

>  <EXACT MASS>  (1468) 
300.183778008

>  <MW>  (1468) 
300

>  <ID>  (1468) 
JP009954

>  <CONTRIBUTOR>  (1468) 
University of Tokyo Team, {Faculty of Engineering, University of Tokyo

>  <COMMENT>  (1468) 
SMILES=c(n3)cn(c3)CCC(C)(C2)Oc(c(C)1)c(C2)c(C)c(O)c(C)1
InChI=InChI=1S/C18H24N2O2/c1-12-13(2)17-15(14(3)16(12)21)5-6-18(4,22-17)7-9-20-10-8-19-11-20/h8,10-11,21H,5-7,9H2,1-4H3
computed SMILES=OC=1C(=C(C=2OC(C)(CCC2C1C)CCN3C=NC=C3)C)C
accession=JP009954
date=2016.01.19 (Created 2008.10.21, modified 2011.05.06)
author=KURARAY CO., LTD.
license=CC BY-NC-SA
exact mass=300.18378
ionization energy=70 eV
ion type=[M]+*
computed spectral entropy=2.193644605844904
computed normalized entropy=0.720521740508251
SPLASH=splash10-000i-4900000000-7c8243d5e51b47bd0cad
submitter=submitter = University of Tokyo Team (Faculty of Engineering, University of Tokyo)
MoNA Rating=3.75

>  <NUM PEAKS>  (1468) 
21

>  <MASS SPECTRAL PEAKS>  (1468) 
28 8.6
32 4.1
41 5
43 0.45
44 3.8
69 21.7
73 4.1
77 0.48
81 6.3
82 16.7
105 5.9
121 0.47
122 5.3
135 4.7
136 3.8
137 99.99
138 9.7
164 5.8
203 9.1
300 3.28
301 6.3

$$$$

     RDKit          2D

 22 24  0  0  0  0  0  0  0  0999 V2000
    4.4724    4.5780    0.0000 C   0  0  0  0  0  0  0  0  0  0  0  0
    5.7681    2.3261    0.0000 C   0  0  0  0  0  0  0  0  0  0  0  0
   -0.7200    1.5800    0.0000 C   0  0  0  0  0  0  0  0  0  0  0  0
   -2.9841   -3.3192    0.0000 C   0  0  0  0  0  0  0  0  0  0  0  0
   -3.3200    0.0800    0.0000 C   0  0  0  0  0  0  0  0  0  0  0  0
    1.8800    3.0800    0.0000 C   0  0  0  0  0  0  0  0  0  0  0  0
    1.8800   -1.4200    0.0000 C   0  0  0  0  0  0  0  0  0  0  0  0
    0.5800    2.3300    0.0000 C   0  0  0  0  0  0  0  0  0  0  0  0
    0.5800   -2.1700    0.0000 C   0  0  0  0  0  0  0  0  0  0  0  0
   -2.0200    0.8300    0.0000 C   0  0  0  0  0  0  0  0  0  0  0  0
   -3.3200   -1.4200    0.0000 C   0  0  0  0  0  0  0  0  0  0  0  0
    3.1700    0.8300    0.0000 C   0  0  0  0  0  0  0  0  0  0  0  0
    4.4702    3.0780    0.0000 C   0  0  0  0  0  0  0  0  0  0  0  0
    3.1700    2.3300    0.0000 C   0  0  0  0  0  0  0  0  0  0  0  0
    1.8800    0.0800    0.0000 C   0  0  0  0  0  0  0  0  0  0  0  0
    0.5800    0.8300    0.0000 C   0  0  0  0  0  0  0  0  0  0  0  0
   -0.7200   -1.4200    0.0000 C   0  0  0  0  0  0  0  0  0  0  0  0
   -1.0559   -3.3192    0.0000 C   0  0  0  0  0  0  0  0  0  0  0  0
   -0.7200    0.0800    0.0000 C   0  0  0  0  0  0  0  0  0  0  0  0
   -2.0200   -2.1700    0.0000 C   0  0  0  0  0  0  0  0  0  0  0  0
    0.4213   -3.0589    0.0000 O   0  0  0  0  0  0  0  0  0  0  0  0
   -1.5691   -4.7287    0.0000 O   0  0  0  0  0  0  0  0  0  0  0  0
  8  6  1  0
  9  7  1  0
 10  5  1  0
 11  5  1  0
 13  1  1  0
 13  2  1  0
 14  6  2  0
 14 12  1  0
 14 13  1  0
 15  7  1  0
 15 12  2  0
 16  8  2  0
 16 15  1  0
 17  9  1  0
 19  3  1  0
 19 10  1  0
 19 16  1  0
 19 17  1  0
 20  4  1  0
 20 11  1  0
 20 17  1  0
 20 18  1  0
 21 18  2  0
 22 18  1  0
M  END
>  <NAME>  (1469) 
7-ISOPROPYL-1,4A-DIMETHYL-1,2,3,4,4A,9,10,10A-OCTAHYDRO-1-PHENANTHRENECARBOXYLIC ACID

>  <SYNONYMS>  (1469) 


>  <SPECTRUM TYPE>  (1469) 
MS1

>  <INSTRUMENT TYPE>  (1469) 
EI-B

>  <INSTRUMENT>  (1469) 
JEOL JMS-D-300

>  <ION MODE>  (1469) 
P

>  <INCHIKEY>  (1469) 
NFWKVWVWBFBAOV-UHFFFAOYSA-N

>  <FORMULA>  (1469) 
C20H28O2

>  <EXACT MASS>  (1469) 
300.208930136

>  <MW>  (1469) 
300

>  <ID>  (1469) 
JP009953

>  <CONTRIBUTOR>  (1469) 
University of Tokyo Team, {Faculty of Engineering, University of Tokyo

>  <COMMENT>  (1469) 
SMILES=CC(C)c(c3)cc(C2)c(c3)C(C)(C1)C(C2)C(C)(C(O)=O)CC1
InChI=InChI=1S/C20H28O2/c1-13(2)14-6-8-16-15(12-14)7-9-17-19(16,3)10-5-11-20(17,4)18(21)22/h6,8,12-13,17H,5,7,9-11H2,1-4H3,(H,21,22)
computed SMILES=O=C(O)C1(C)CCCC2(C3=CC=C(C=C3CCC12)C(C)C)C
accession=JP009953
date=2016.01.19 (Created 2008.10.21, modified 2011.05.06)
author=KURARAY CO., LTD.
license=CC BY-NC-SA
exact mass=300.20893
ionization energy=70 eV
ion type=[M]+*
computed spectral entropy=3.8331377692253747
computed normalized entropy=0.8034775029076043
SPLASH=splash10-000i-3891000000-4c76cb7734651ab12198
submitter=submitter = University of Tokyo Team (Faculty of Engineering, University of Tokyo)
MoNA Rating=3.75

>  <NUM PEAKS>  (1469) 
118

>  <MASS SPECTRAL PEAKS>  (1469) 
27 3.2
29 2.2
39 2.4
41 1.37
43 19.6
45 2.2
53 3.2
55 0.76
56 2.1
67 4.3
69 5.1
77 0.47
78 2.2
79 6.5
81 8.7
82 0.22
83 2.1
84 1.6
85 1.4
89 0.32
91 7.1
92 3.2
93 6.5
94 0.21
95 6.3
96 0.5
97 0.5
99 0.25
105 7.9
107 7.9
109 6.2
111 0.17
112 2.4
115 7.9
116 2.7
117 1.11
119 4.7
121 6.3
123 4.4
125 0.19
127 3.2
128 8.2
129 10.7
130 0.24
131 9.6
132 1.6
133 10.1
134 0.27
135 4.7
136 2.5
139 2.4
141 1.53
142 5.2
143 9.2
144 1.6
145 0.52
146 2.5
147 1.3
149 0.5
150 0.38
151 1.6
152 2.1
153 3.3
154 0.22
155 7.6
156 2.5
157 7.1
159 1
160 1.6
161 1.3
163 4.7
165 0.32
166 1.6
167 6.3
168 2.7
169 0.6
171 6
173 4.1
175 2.4
179 0.21
180 1.3
181 2.1
183 7.3
184 0.19
185 5.8
186 3.3
187 7.8
189 0.19
195 3
197 26.9
198 4.7
199 0.63
201 3.5
207 1.6
211 2.4
213 0.16
215 2.7
225 3.5
239 75.4
240 1.53
241 2.8
243 7.9
244 1.6
255 0.16
257 2.4
259 3.2
261 2.8
271 0.27
284 1.6
285 99.99
286 22.1
287 0.28
289 15
290 3.2
300 29.2
301 0.71
302 1.4
304 6.3

$$$$

     RDKit          2D

 22 25  0  0  0  0  0  0  0  0999 V2000
    1.9500   -0.9000    0.0000 C   0  0  0  0  0  0  0  0  0  0  0  0
    8.4625    1.3831    0.0000 C   0  0  0  0  0  0  0  0  0  0  0  0
    0.6300   -1.6600    0.0000 C   0  0  0  0  0  0  0  0  0  0  0  0
    9.7807    0.6200    0.0000 C   0  0  0  0  0  0  0  0  0  0  0  0
    0.6300    1.3800    0.0000 C   0  0  0  0  0  0  0  0  0  0  0  0
    7.1480   -0.9000    0.0000 C   0  0  0  0  0  0  0  0  0  0  0  0
    3.2486    1.3708    0.0000 C   0  0  0  0  0  0  0  0  0  0  0  0
   -2.9400   -0.2300    0.0000 C   0  0  0  0  0  0  0  0  0  0  0  0
   10.3273   -3.1868    0.0000 C   0  0  0  0  0  0  0  0  0  0  0  0
    1.9500    0.6200    0.0000 C   0  0  0  0  0  0  0  0  0  0  0  0
    7.1462    0.6231    0.0000 C   0  0  0  0  0  0  0  0  0  0  0  0
   -0.6600   -0.9000    0.0000 C   0  0  0  0  0  0  0  0  0  0  0  0
    9.7675   -0.8772    0.0000 C   0  0  0  0  0  0  0  0  0  0  0  0
   -0.6600    0.6200    0.0000 C   0  0  0  0  0  0  0  0  0  0  0  0
    8.4512   -1.6372    0.0000 C   0  0  0  0  0  0  0  0  0  0  0  0
    5.8467    1.3723    0.0000 C   0  0  0  0  0  0  0  0  0  0  0  0
    5.8458    2.8723    0.0000 O   0  0  0  0  0  0  0  0  0  0  0  0
    4.5481    0.6216    0.0000 O   0  0  0  0  0  0  0  0  0  0  0  0
   -2.0600   -1.3400    0.0000 O   0  0  0  0  0  0  0  0  0  0  0  0
   10.8486   -1.8697    0.0000 O   0  0  0  0  0  0  0  0  0  0  0  0
   -2.0900    1.0600    0.0000 O   0  0  0  0  0  0  0  0  0  0  0  0
    8.7851   -3.0956    0.0000 O   0  0  0  0  0  0  0  0  0  0  0  0
  3  1  2  0
  4  2  2  0
 10  1  1  0
 10  5  2  0
 10  7  1  0
 11  2  1  0
 11  6  2  0
 12  3  1  0
 13  4  1  0
 14  5  1  0
 14 12  2  0
 15  6  1  0
 15 13  2  0
 16 11  1  0
 17 16  2  0
 18  7  1  0
 18 16  1  0
 19  8  1  0
 19 12  1  0
 20  9  1  0
 20 13  1  0
 21  8  1  0
 21 14  1  0
 22  9  1  0
 22 15  1  0
M  END
>  <NAME>  (1470) 
1,3-BENZODIOXOL-5-METHYL 1,3-BENZODIOXOLE-5-CARBOXYLATE

>  <SYNONYMS>  (1470) 


>  <SPECTRUM TYPE>  (1470) 
MS1

>  <INSTRUMENT TYPE>  (1470) 
EI-B

>  <INSTRUMENT>  (1470) 
JEOL JMS-D-300

>  <ION MODE>  (1470) 
P

>  <INCHIKEY>  (1470) 
FFPTUNHKEQKODI-UHFFFAOYSA-N

>  <FORMULA>  (1470) 
C16H12O6

>  <EXACT MASS>  (1470) 
300.06338810399996

>  <MW>  (1470) 
300

>  <ID>  (1470) 
JP009952

>  <CONTRIBUTOR>  (1470) 
University of Tokyo Team, {Faculty of Engineering, University of Tokyo

>  <COMMENT>  (1470) 
SMILES=O=C(OCc(c3)cc(O4)c(OC4)c3)c(c1)cc(O2)c(OC2)c1
InChI=InChI=1S/C16H12O6/c17-16(11-2-4-13-15(6-11)22-9-20-13)18-7-10-1-3-12-14(5-10)21-8-19-12/h1-6H,7-9H2
computed SMILES=O=C(OCC1=CC=C2OCOC2=C1)C3=CC=C4OCOC4=C3
accession=JP009952
date=2016.01.19 (Created 2008.10.21, modified 2011.05.06)
author=KURARAY CO., LTD.
license=CC BY-NC-SA
exact mass=300.06339
ionization energy=70 eV
ion type=[M]+*
computed spectral entropy=1.2609128969445518
computed normalized entropy=0.703728886940272
SPLASH=splash10-000i-0902000000-47ac2b7065abfc56a763
submitter=submitter = University of Tokyo Team (Faculty of Engineering, University of Tokyo)
MoNA Rating=3.75

>  <NUM PEAKS>  (1470) 
6

>  <MASS SPECTRAL PEAKS>  (1470) 
77 11.3
135 99.99
136 11.4
149 3.58
150 11.6
300 35.9

$$$$

     RDKit          2D

 21 20  0  0  0  0  0  0  0  0999 V2000
    4.8714    8.8125    0.0000 C   0  0  0  0  0  0  0  0  0  0  0  0
  -14.6142    9.5625    0.0000 C   0  0  0  0  0  0  0  0  0  0  0  0
  -13.3151    7.3125    0.0000 C   0  0  0  0  0  0  0  0  0  0  0  0
   -8.1190    7.3125    0.0000 C   0  0  0  0  0  0  0  0  0  0  0  0
   -2.9228    7.3125    0.0000 C   0  0  0  0  0  0  0  0  0  0  0  0
    1.3091    7.6634    0.0000 C   0  0  0  0  0  0  0  0  0  0  0  0
    3.5724    9.5625    0.0000 C   0  0  0  0  0  0  0  0  0  0  0  0
  -10.7171    8.8125    0.0000 C   0  0  0  0  0  0  0  0  0  0  0  0
   -5.5209    8.8125    0.0000 C   0  0  0  0  0  0  0  0  0  0  0  0
   -0.3248    8.8125    0.0000 C   0  0  0  0  0  0  0  0  0  0  0  0
  -12.0161    9.5625    0.0000 C   0  0  0  0  0  0  0  0  0  0  0  0
   -9.4180    9.5625    0.0000 C   0  0  0  0  0  0  0  0  0  0  0  0
   -6.8200    9.5625    0.0000 C   0  0  0  0  0  0  0  0  0  0  0  0
   -4.2219    9.5625    0.0000 C   0  0  0  0  0  0  0  0  0  0  0  0
   -1.6238    9.5625    0.0000 C   0  0  0  0  0  0  0  0  0  0  0  0
    0.9743    9.5625    0.0000 C   0  0  0  0  0  0  0  0  0  0  0  0
  -13.3151    8.8125    0.0000 C   0  0  0  0  0  0  0  0  0  0  0  0
   -8.1190    8.8125    0.0000 C   0  0  0  0  0  0  0  0  0  0  0  0
   -2.9228    8.8125    0.0000 C   0  0  0  0  0  0  0  0  0  0  0  0
    2.2733    8.8125    0.0000 C   0  0  0  0  0  0  0  0  0  0  0  0
    3.2375    7.6634    0.0000 O   0  0  0  0  0  0  0  0  0  0  0  0
  7  1  2  0
 11  8  1  0
 12  8  1  0
 13  9  1  0
 14  9  1  0
 15 10  1  0
 16 10  1  0
 17  2  1  0
 17  3  1  0
 17 11  1  0
 18  4  1  0
 18 12  1  0
 18 13  1  0
 19  5  1  0
 19 14  1  0
 19 15  1  0
 20  6  1  0
 20  7  1  0
 20 16  1  0
 21 20  1  0
M  END
>  <NAME>  (1471) 
3,7,11,15-TETRAMETHYL-1-HEXADECEN-3-OL

>  <SYNONYMS>  (1471) 


>  <SPECTRUM TYPE>  (1471) 
MS1

>  <INSTRUMENT TYPE>  (1471) 
EI-B

>  <INSTRUMENT>  (1471) 
JEOL JMS-D-300

>  <ION MODE>  (1471) 
P

>  <INCHIKEY>  (1471) 
KEVYVLWNCKMXJX-UHFFFAOYSA-N

>  <FORMULA>  (1471) 
C20H40O

>  <EXACT MASS>  (1471) 
296.3079159

>  <MW>  (1471) 
296

>  <ID>  (1471) 
JP009951

>  <CONTRIBUTOR>  (1471) 
University of Tokyo Team, {Faculty of Engineering, University of Tokyo

>  <COMMENT>  (1471) 
SMILES=CC(C)CCCC(C)CCCC(C)CCCC(C)(O)C=C
InChI=InChI=1S/C20H40O/c1-7-20(6,21)16-10-15-19(5)14-9-13-18(4)12-8-11-17(2)3/h7,17-19,21H,1,8-16H2,2-6H3
computed SMILES=OC(C=C)(C)CCCC(C)CCCC(C)CCCC(C)C
accession=JP009951
date=2016.01.19 (Created 2008.10.21, modified 2011.05.06)
author=KURARAY CO., LTD.
license=CC BY-NC-SA
exact mass=296.30792
ionization energy=70 eV
ion type=[M]+*
computed spectral entropy=2.8671131859901733
computed normalized entropy=0.8130516338235875
SPLASH=splash10-0ab9-9100000000-f7aa2b807fcdbe5fdad3
submitter=submitter = University of Tokyo Team (Faculty of Engineering, University of Tokyo)
MoNA Rating=3.75

>  <NUM PEAKS>  (1471) 
34

>  <MASS SPECTRAL PEAKS>  (1471) 
29 9.4
41 21.2
42 4.6
43 4.57
55 29.9
56 11.9
57 99.99
58 0.56
69 20.8
70 7
71 74.6
72 0.85
81 9.6
83 13.3
85 53.4
88 2.13
95 8.4
97 14.5
99 21
109 0.65
111 11.3
113 15.7
123 6.8
125 0.41
127 13.8
137 6.5
141 9.6
155 0.77
169 5.5
183 3.8
197 3.4
263 0.82
281 15
282 3.4

$$$$

     RDKit          2D

 21 20  0  0  0  0  0  0  0  0999 V2000
    5.5209    8.4375    0.0000 C   0  0  0  0  0  0  0  0  0  0  0  0
    4.2219   10.6875    0.0000 C   0  0  0  0  0  0  0  0  0  0  0  0
  -13.9647   10.6875    0.0000 C   0  0  0  0  0  0  0  0  0  0  0  0
  -15.2637    8.4375    0.0000 C   0  0  0  0  0  0  0  0  0  0  0  0
   -4.8714    8.4375    0.0000 C   0  0  0  0  0  0  0  0  0  0  0  0
   -3.5724    9.1875    0.0000 C   0  0  0  0  0  0  0  0  0  0  0  0
   -6.1704    9.1875    0.0000 C   0  0  0  0  0  0  0  0  0  0  0  0
   -2.2733    8.4375    0.0000 C   0  0  0  0  0  0  0  0  0  0  0  0
   -7.4695    8.4375    0.0000 C   0  0  0  0  0  0  0  0  0  0  0  0
   -0.9743    9.1875    0.0000 C   0  0  0  0  0  0  0  0  0  0  0  0
   -8.7685    9.1875    0.0000 C   0  0  0  0  0  0  0  0  0  0  0  0
    0.3248    8.4375    0.0000 C   0  0  0  0  0  0  0  0  0  0  0  0
  -10.0675    8.4375    0.0000 C   0  0  0  0  0  0  0  0  0  0  0  0
    4.2219    9.1875    0.0000 C   0  0  0  0  0  0  0  0  0  0  0  0
  -13.9647    9.1875    0.0000 C   0  0  0  0  0  0  0  0  0  0  0  0
    2.9228    8.4375    0.0000 C   0  0  0  0  0  0  0  0  0  0  0  0
  -12.6656    8.4375    0.0000 C   0  0  0  0  0  0  0  0  0  0  0  0
    2.9228    6.9375    0.0000 O   0  0  0  0  0  0  0  0  0  0  0  0
  -12.6656    6.9375    0.0000 O   0  0  0  0  0  0  0  0  0  0  0  0
    1.6238    9.1875    0.0000 O   0  0  0  0  0  0  0  0  0  0  0  0
  -11.3666    9.1875    0.0000 O   0  0  0  0  0  0  0  0  0  0  0  0
  6  5  1  0
  7  5  1  0
  8  6  1  0
  9  7  1  0
 10  8  1  0
 11  9  1  0
 12 10  1  0
 13 11  1  0
 14  1  2  0
 14  2  1  0
 15  3  2  0
 15  4  1  0
 16 14  1  0
 17 15  1  0
 18 16  2  0
 19 17  2  0
 20 12  1  0
 20 16  1  0
 21 13  1  0
 21 17  1  0
M  END
>  <NAME>  (1472) 
NONANEDIOL DIMETHACRYLATE

>  <SYNONYMS>  (1472) 


>  <SPECTRUM TYPE>  (1472) 
MS1

>  <INSTRUMENT TYPE>  (1472) 
EI-B

>  <INSTRUMENT>  (1472) 
JEOL JMS-D-300

>  <ION MODE>  (1472) 
P

>  <INCHIKEY>  (1472) 
YJVIKVWFGPLAFS-UHFFFAOYSA-N

>  <FORMULA>  (1472) 
C17H28O4

>  <EXACT MASS>  (1472) 
296.198759376

>  <MW>  (1472) 
296

>  <ID>  (1472) 
JP009950

>  <CONTRIBUTOR>  (1472) 
University of Tokyo Team, {Faculty of Engineering, University of Tokyo

>  <COMMENT>  (1472) 
SMILES=CC(=C)C(=O)OCCCCCCCCCOC(=O)C(C)=C
InChI=InChI=1S/C17H28O4/c1-14(2)16(18)20-12-10-8-6-5-7-9-11-13-21-17(19)15(3)4/h1,3,5-13H2,2,4H3
computed SMILES=O=C(OCCCCCCCCCOC(=O)C(=C)C)C(=C)C
accession=JP009950
date=2016.01.19 (Created 2008.10.21, modified 2011.05.06)
author=KURARAY CO., LTD.
license=CC BY-NC-SA
exact mass=296.19876
ionization energy=70 eV
ion type=[M]+*
computed spectral entropy=1.6709838746420644
computed normalized entropy=0.5257884113495707
SPLASH=splash10-014i-9010000000-73244ef64b35b5775ac7
submitter=submitter = University of Tokyo Team (Faculty of Engineering, University of Tokyo)
MoNA Rating=3.75

>  <NUM PEAKS>  (1472) 
24

>  <MASS SPECTRAL PEAKS>  (1472) 
28 4.5
39 3.6
41 25.1
68 0.16
69 99.99
70 4.8
73 5.1
96 0.19
99 1.1
143 2
145 3.3
147 0.3
197 2.3
210 4.7
211 5.6
212 0.06
221 3
267 0.5
268 1.5
281 0.26
282 0.9
283 0.6
295 1
296 0.6

$$$$

     RDKit          2D

 21 22  0  0  0  0  0  0  0  0999 V2000
  -10.3942   -0.7512    0.0000 C   0  0  0  0  0  0  0  0  0  0  0  0
    4.0772    0.4897    0.0000 C   0  0  0  0  0  0  0  0  0  0  0  0
   -9.0951   -1.5010    0.0000 C   0  0  0  0  0  0  0  0  0  0  0  0
   -7.7962   -0.7508    0.0000 C   0  0  0  0  0  0  0  0  0  0  0  0
   -6.4970   -1.5006    0.0000 C   0  0  0  0  0  0  0  0  0  0  0  0
   -5.1981   -0.7504    0.0000 C   0  0  0  0  0  0  0  0  0  0  0  0
   -3.8989   -1.5002    0.0000 C   0  0  0  0  0  0  0  0  0  0  0  0
    1.3000   -1.5000    0.0000 C   0  0  0  0  0  0  0  0  0  0  0  0
    2.6000   -0.7500    0.0000 C   0  0  0  0  0  0  0  0  0  0  0  0
    3.1127    2.1596    0.0000 C   0  0  0  0  0  0  0  0  0  0  0  0
    4.5899    2.4204    0.0000 C   0  0  0  0  0  0  0  0  0  0  0  0
   -1.3000   -1.5000    0.0000 C   0  0  0  0  0  0  0  0  0  0  0  0
   -1.3000    1.5000    0.0000 C   0  0  0  0  0  0  0  0  0  0  0  0
   -2.6000   -0.7500    0.0000 C   0  0  0  0  0  0  0  0  0  0  0  0
    0.0000   -0.7500    0.0000 C   0  0  0  0  0  0  0  0  0  0  0  0
   -2.6000    0.7500    0.0000 C   0  0  0  0  0  0  0  0  0  0  0  0
    0.0000    0.7500    0.0000 C   0  0  0  0  0  0  0  0  0  0  0  0
    2.6000    0.7500    0.0000 C   0  0  0  0  0  0  0  0  0  0  0  0
    5.1026    3.8301    0.0000 O   0  0  0  0  0  0  0  0  0  0  0  0
   -3.8989    1.5002    0.0000 O   0  0  0  0  0  0  0  0  0  0  0  0
    1.3000    1.5000    0.0000 O   0  0  0  0  0  0  0  0  0  0  0  0
  3  1  1  0
  4  3  1  0
  5  4  1  0
  6  5  1  0
  7  6  1  0
  9  8  1  0
 11 10  1  0
 14  7  1  0
 14 12  1  0
 15  8  1  0
 15 12  2  0
 16 13  1  0
 16 14  2  0
 17 13  2  0
 17 15  1  0
 18  2  1  0
 18  9  1  0
 18 10  1  0
 19 11  1  0
 20 16  1  0
 21 17  1  0
 21 18  1  0
M  END
>  <NAME>  (1473) 
3,4-DIHYDRO-7-HYDROXY-2-(2-HYDROXYETHYL)-6-HEXYL-2-METHYL-2H-1-BENZOPYRAN

>  <SYNONYMS>  (1473) 


>  <SPECTRUM TYPE>  (1473) 
MS1

>  <INSTRUMENT TYPE>  (1473) 
EI-B

>  <INSTRUMENT>  (1473) 
JEOL JMS-D-300

>  <ION MODE>  (1473) 
P

>  <INCHIKEY>  (1473) 
GSSPKHFHVBRYGV-UHFFFAOYSA-N

>  <FORMULA>  (1473) 
C18H28O3

>  <EXACT MASS>  (1473) 
292.20384475599997

>  <MW>  (1473) 
292

>  <ID>  (1473) 
JP009949

>  <CONTRIBUTOR>  (1473) 
University of Tokyo Team, {Faculty of Engineering, University of Tokyo

>  <COMMENT>  (1473) 
SMILES=CCCCCCc(c1)c(O)cc(O2)c(CCC(C)(CCO)2)1
InChI=InChI=1S/C18H28O3/c1-3-4-5-6-7-14-12-15-8-9-18(2,10-11-19)21-17(15)13-16(14)20/h12-13,19-20H,3-11H2,1-2H3
computed SMILES=OC=1C=C2OC(C)(CCO)CCC2=CC1CCCCCC
accession=JP009949
date=2016.01.19 (Created 2008.10.21, modified 2011.05.06)
author=KURARAY CO., LTD.
license=CC BY-NC-SA
exact mass=292.20384
ionization energy=70 eV
ion type=[M]+*
computed spectral entropy=3.5883019396376765
computed normalized entropy=0.7419546686226034
SPLASH=splash10-0pb9-2390000000-a71c3f2b1d0f9d2203cb
submitter=submitter = University of Tokyo Team (Faculty of Engineering, University of Tokyo)
MoNA Rating=3.75

>  <NUM PEAKS>  (1473) 
126

>  <MASS SPECTRAL PEAKS>  (1473) 
27 1.9
29 3.1
31 0.5
39 0.16
41 9.7
43 17.3
51 0.5
53 0.16
55 7.8
57 1.6
65 1.3
66 0.08
67 2.8
68 1.6
69 12.2
71 0.08
77 4.5
78 1.6
79 4.5
80 0.08
81 4.4
83 0.8
85 5
91 0.31
93 1.6
94 0.8
95 1.6
97 0.08
103 1.6
105 1.6
107 3.1
108 0.23
109 1.3
111 0.6
115 0.6
117 0.08
119 0.8
121 1.3
122 1.3
123 0.7
124 0.2
128 0.3
129 0.6
131 0.08
132 0.3
133 0.8
135 20
136 1.02
137 9.1
138 0.6
143 0.6
144 0.06
145 0.8
146 0.6
147 3.4
149 0.63
150 1.6
151 9.2
152 7
157 0.05
159 2.3
160 1.6
161 5
162 0.16
163 8.1
164 1.6
165 0.8
173 0.16
174 2.3
175 4.7
177 1.9
178 0.08
185 1.9
187 1.6
188 1.6
189 0.63
191 6.3
192 1.3
193 0.8
194 0.16
201 2.3
202 3.1
203 57.8
204 0.78
205 3.9
206 3.1
207 99.99
208 1.41
209 1.6
218 0.8
219 4.7
220 0.06
221 19.5
222 4.7
223 0.8
227 0.05
231 0.8
232 0.8
241 0.5
245 1.33
246 3.1
247 8.6
248 1.3
249 0.06
255 0.8
257 1.6
258 0.8
259 0.66
260 1.6
263 5.9
264 0.6
270 0.13
271 0.6
273 1.6
274 4.7
275 2.3
286 0.05
288 2.8
289 1.6
290 6.3
291 0.23
292 0.3
293 9.1
304 0.5
334 0.59
335 1.3

$$$$

     RDKit          2D

 21 20  0  0  0  0  0  0  0  0999 V2000
  -14.6142    9.5625    0.0000 C   0  0  0  0  0  0  0  0  0  0  0  0
  -13.3151    7.3125    0.0000 C   0  0  0  0  0  0  0  0  0  0  0  0
   -8.1190    7.3125    0.0000 C   0  0  0  0  0  0  0  0  0  0  0  0
   -2.9228    7.3125    0.0000 C   0  0  0  0  0  0  0  0  0  0  0  0
    2.2733    7.3125    0.0000 C   0  0  0  0  0  0  0  0  0  0  0  0
  -10.7171    8.8125    0.0000 C   0  0  0  0  0  0  0  0  0  0  0  0
   -5.5209    8.8125    0.0000 C   0  0  0  0  0  0  0  0  0  0  0  0
   -0.3248    8.8125    0.0000 C   0  0  0  0  0  0  0  0  0  0  0  0
  -12.0161    9.5625    0.0000 C   0  0  0  0  0  0  0  0  0  0  0  0
   -9.4180    9.5625    0.0000 C   0  0  0  0  0  0  0  0  0  0  0  0
   -6.8200    9.5625    0.0000 C   0  0  0  0  0  0  0  0  0  0  0  0
   -4.2219    9.5625    0.0000 C   0  0  0  0  0  0  0  0  0  0  0  0
   -1.6238    9.5625    0.0000 C   0  0  0  0  0  0  0  0  0  0  0  0
    0.9743    9.5625    0.0000 C   0  0  0  0  0  0  0  0  0  0  0  0
    3.5724    9.5625    0.0000 C   0  0  0  0  0  0  0  0  0  0  0  0
    4.8714    8.8125    0.0000 C   0  0  0  0  0  0  0  0  0  0  0  0
  -13.3151    8.8125    0.0000 C   0  0  0  0  0  0  0  0  0  0  0  0
   -8.1190    8.8125    0.0000 C   0  0  0  0  0  0  0  0  0  0  0  0
   -2.9228    8.8125    0.0000 C   0  0  0  0  0  0  0  0  0  0  0  0
    2.2733    8.8125    0.0000 C   0  0  0  0  0  0  0  0  0  0  0  0
    6.1704    9.5625    0.0000 O   0  0  0  0  0  0  0  0  0  0  0  0
  9  6  1  0
 10  6  1  0
 11  7  1  0
 12  7  1  0
 13  8  1  0
 14  8  1  0
 16 15  1  0
 17  1  1  0
 17  2  1  0
 17  9  2  0
 18  3  1  0
 18 10  1  0
 11 18  2  0
 19  4  1  0
 19 12  1  0
 13 19  2  0
 20  5  1  0
 20 14  1  0
 15 20  2  0
 21 16  1  0
M  END
>  <NAME>  (1474) 
3,7,11,15-TETRAMETHYL-2E,6E,10E,14E-2,6,10,14-HEXADECATETRAEN-1-OL

>  <SYNONYMS>  (1474) 
GERANYL GERANIOL

>  <SPECTRUM TYPE>  (1474) 
MS1

>  <INSTRUMENT TYPE>  (1474) 
EI-B

>  <INSTRUMENT>  (1474) 
JEOL JMS-D-300

>  <ION MODE>  (1474) 
P

>  <INCHIKEY>  (1474) 
OJISWRZIEWCUBN-QIRCYJPOSA-N

>  <FORMULA>  (1474) 
C20H34O

>  <EXACT MASS>  (1474) 
290.260965708

>  <MW>  (1474) 
290

>  <ID>  (1474) 
JP009948

>  <CONTRIBUTOR>  (1474) 
University of Tokyo Team, {Faculty of Engineering, University of Tokyo

>  <COMMENT>  (1474) 
SMILES=OCC=C(C)CCC=C(C)CCC=C(C)CCC=C(C)C
InChI=InChI=1S/C20H34O/c1-17(2)9-6-10-18(3)11-7-12-19(4)13-8-14-20(5)15-16-21/h9,11,13,15,21H,6-8,10,12,14,16H2,1-5H3/b18-11+,19-13+,20-15+
computed SMILES=OCC=C(C)CCC=C(C)CCC=C(C)CCC=C(C)C
accession=JP009948
date=2016.01.19 (Created 2008.10.21, modified 2011.05.06)
author=KURARAY CO., LTD.
license=CC BY-NC-SA
exact mass=290.26097
ionization energy=70 eV
ion type=[M]+*
computed spectral entropy=3.233632710631999
computed normalized entropy=0.7835055534777963
SPLASH=splash10-00kf-9200000000-9d615b455befc17956dd
submitter=submitter = University of Tokyo Team (Faculty of Engineering, University of Tokyo)
MoNA Rating=3.75

>  <NUM PEAKS>  (1474) 
62

>  <MASS SPECTRAL PEAKS>  (1474) 
27 4.5
29 7
39 7
40 0.06
41 57.8
42 2.3
43 10.6
53 1.09
55 23.4
57 3.9
65 3.1
67 1.88
68 11.7
69 99.99
70 8.3
71 0.2
77 9.4
78 1.3
79 17.3
80 0.47
81 51.6
82 5.8
83 3.1
84 0.45
91 13
92 4.4
93 45.3
94 0.63
95 18.4
96 1.6
97 2.3
105 1.17
106 2.3
107 19.5
108 3.1
109 1.09
119 15.3
120 10.9
121 10.9
122 0.31
123 7
131 1.6
132 4.7
133 1.25
134 6.3
135 12.5
136 5.3
137 0.55
145 1.9
146 1.6
147 5.5
148 0.23
149 1.9
159 3.1
161 5.9
162 0.16
187 2.6
189 2.2
191 2.1
203 0.29
204 1.5
272 3.3

$$$$

     RDKit          2D

 21 20  0  0  0  0  0  0  0  0999 V2000
    4.8714    8.8125    0.0000 C   0  0  0  0  0  0  0  0  0  0  0  0
  -14.6142    9.5625    0.0000 C   0  0  0  0  0  0  0  0  0  0  0  0
  -13.3151    7.3125    0.0000 C   0  0  0  0  0  0  0  0  0  0  0  0
   -8.1190    7.3125    0.0000 C   0  0  0  0  0  0  0  0  0  0  0  0
   -2.9228    7.3125    0.0000 C   0  0  0  0  0  0  0  0  0  0  0  0
    1.3091    7.6634    0.0000 C   0  0  0  0  0  0  0  0  0  0  0  0
    3.5724    9.5625    0.0000 C   0  0  0  0  0  0  0  0  0  0  0  0
  -10.7171    8.8125    0.0000 C   0  0  0  0  0  0  0  0  0  0  0  0
   -5.5209    8.8125    0.0000 C   0  0  0  0  0  0  0  0  0  0  0  0
   -0.3248    8.8125    0.0000 C   0  0  0  0  0  0  0  0  0  0  0  0
  -12.0161    9.5625    0.0000 C   0  0  0  0  0  0  0  0  0  0  0  0
   -9.4180    9.5625    0.0000 C   0  0  0  0  0  0  0  0  0  0  0  0
   -6.8200    9.5625    0.0000 C   0  0  0  0  0  0  0  0  0  0  0  0
   -4.2219    9.5625    0.0000 C   0  0  0  0  0  0  0  0  0  0  0  0
   -1.6238    9.5625    0.0000 C   0  0  0  0  0  0  0  0  0  0  0  0
    0.9743    9.5625    0.0000 C   0  0  0  0  0  0  0  0  0  0  0  0
  -13.3151    8.8125    0.0000 C   0  0  0  0  0  0  0  0  0  0  0  0
   -8.1190    8.8125    0.0000 C   0  0  0  0  0  0  0  0  0  0  0  0
   -2.9228    8.8125    0.0000 C   0  0  0  0  0  0  0  0  0  0  0  0
    2.2733    8.8125    0.0000 C   0  0  0  0  0  0  0  0  0  0  0  0
    3.2375    7.6634    0.0000 O   0  0  0  0  0  0  0  0  0  0  0  0
  7  1  2  0
 11  8  1  0
 12  8  1  0
 13  9  1  0
 14  9  1  0
 15 10  1  0
 16 10  1  0
 17  2  1  0
 17  3  1  0
 17 11  2  0
 18  4  1  0
 18 12  1  0
 13 18  2  0
 19  5  1  0
 19 14  1  0
 15 19  2  0
 20  6  1  0
 20  7  1  0
 20 16  1  0
 21 20  1  0
M  END
>  <NAME>  (1475) 
3,7,11,15-TETRAMETHYL-1,6,10,14-HEXADECATETRAEN-3-OL

>  <SYNONYMS>  (1475) 
LINALYL LINALOOL

>  <SPECTRUM TYPE>  (1475) 
MS1

>  <INSTRUMENT TYPE>  (1475) 
EI-B

>  <INSTRUMENT>  (1475) 
JEOL JMS-D-300

>  <ION MODE>  (1475) 
P

>  <INCHIKEY>  (1475) 
IQDXAJNQKSIPGB-HQSZAHFGSA-N

>  <FORMULA>  (1475) 
C20H34O

>  <EXACT MASS>  (1475) 
290.260965708

>  <MW>  (1475) 
290

>  <ID>  (1475) 
JP009947

>  <CONTRIBUTOR>  (1475) 
University of Tokyo Team, {Faculty of Engineering, University of Tokyo

>  <COMMENT>  (1475) 
SMILES=CC(C)=CCCC(C)=CCCC(C)=CCCC(C)(O)C=C
InChI=InChI=1S/C20H34O/c1-7-20(6,21)16-10-15-19(5)14-9-13-18(4)12-8-11-17(2)3/h7,11,13,15,21H,1,8-10,12,14,16H2,2-6H3/b18-13+,19-15+
computed SMILES=OC(C=C)(C)CCC=C(C)CCC=C(C)CCC=C(C)C
accession=JP009947
date=2016.01.19 (Created 2008.10.21, modified 2011.05.06)
author=KURARAY CO., LTD.
license=CC BY-NC-SA
exact mass=290.26097
ionization energy=70 eV
ion type=[M]+*
computed spectral entropy=3.783542891279023
computed normalized entropy=0.8763296601597473
SPLASH=splash10-00kf-9500000000-36e24d484f9bbea30bd0
submitter=submitter = University of Tokyo Team (Faculty of Engineering, University of Tokyo)
MoNA Rating=3.75

>  <NUM PEAKS>  (1475) 
75

>  <MASS SPECTRAL PEAKS>  (1475) 
27 5.5
29 9.8
32 0.8
39 0.39
41 64.1
42 9.4
43 55.9
44 0.23
45 7.8
53 9.4
55 30.5
57 0.75
65 14.8
67 19.5
68 7.8
69 99.99
70 7.8
71 23.4
73 4.7
77 0.55
79 15.3
80 7
81 52.8
82 0.86
83 12.2
85 10.2
91 12.5
92 0.28
93 35.5
94 7.8
95 44.8
96 0.47
97 8.4
98 8.6
99 9.8
105 1.27
106 9.4
107 41.7
108 9.4
109 3.64
110 8.6
111 11.7
113 6.1
119 1.56
120 2.3
121 25.8
122 10.8
123 4.69
124 10.9
125 16.1
133 18.3
134 0.31
135 17.3
136 9.2
137 14.1
142 0.55
143 14.1
145 12.7
147 12.2
148 0.78
149 10.2
151 13.8
159 2
161 0.83
163 12.7
175 11.7
177 12.5
187 0.16
189 13.3
190 10.9
191 5.9
203 3.83
204 8.6
229 10.9
272 10.2

$$$$

     RDKit          2D

 21 20  0  0  0  0  0  0  0  0999 V2000
    5.1962    9.0000    0.0000 C   0  0  0  0  0  0  0  0  0  0  0  0
  -15.5885    9.0000    0.0000 C   0  0  0  0  0  0  0  0  0  0  0  0
  -14.2894   11.2500    0.0000 C   0  0  0  0  0  0  0  0  0  0  0  0
   -9.0933   11.2500    0.0000 C   0  0  0  0  0  0  0  0  0  0  0  0
   -3.8971   11.2500    0.0000 C   0  0  0  0  0  0  0  0  0  0  0  0
    3.8971    9.7500    0.0000 C   0  0  0  0  0  0  0  0  0  0  0  0
  -11.6913    9.7500    0.0000 C   0  0  0  0  0  0  0  0  0  0  0  0
   -6.4952    9.7500    0.0000 C   0  0  0  0  0  0  0  0  0  0  0  0
   -1.2990    9.7500    0.0000 C   0  0  0  0  0  0  0  0  0  0  0  0
  -12.9904    9.0000    0.0000 C   0  0  0  0  0  0  0  0  0  0  0  0
  -10.3923    9.0000    0.0000 C   0  0  0  0  0  0  0  0  0  0  0  0
   -7.7942    9.0000    0.0000 C   0  0  0  0  0  0  0  0  0  0  0  0
   -5.1962    9.0000    0.0000 C   0  0  0  0  0  0  0  0  0  0  0  0
   -2.5981    9.0000    0.0000 C   0  0  0  0  0  0  0  0  0  0  0  0
    0.0000    9.0000    0.0000 C   0  0  0  0  0  0  0  0  0  0  0  0
  -14.2894    9.7500    0.0000 C   0  0  0  0  0  0  0  0  0  0  0  0
   -9.0933    9.7500    0.0000 C   0  0  0  0  0  0  0  0  0  0  0  0
   -3.8971    9.7500    0.0000 C   0  0  0  0  0  0  0  0  0  0  0  0
    1.2990    9.7500    0.0000 C   0  0  0  0  0  0  0  0  0  0  0  0
    1.2990   11.2500    0.0000 O   0  0  0  0  0  0  0  0  0  0  0  0
    2.5981    9.0000    0.0000 O   0  0  0  0  0  0  0  0  0  0  0  0
  6  1  1  0
 10  7  1  0
 11  7  1  0
 12  8  1  0
 13  8  1  0
 14  9  1  0
  9 15  2  0
 16  2  1  0
 16  3  1  0
 16 10  2  0
 17  4  1  0
 17 11  1  0
 12 17  2  0
 18  5  1  0
 18 13  1  0
 14 18  2  0
 19 15  1  0
 20 19  2  0
 21  6  1  0
 21 19  1  0
M  END
>  <NAME>  (1476) 
ETHYL 5,9,13-TRIMETHYL-(2E,4E,8E,12E)-2,4,8,12-TETRADECATETRAENOATE

>  <SYNONYMS>  (1476) 


>  <SPECTRUM TYPE>  (1476) 
MS1

>  <INSTRUMENT TYPE>  (1476) 
EI-B

>  <INSTRUMENT>  (1476) 
JEOL JMS-D-300

>  <ION MODE>  (1476) 
P

>  <INCHIKEY>  (1476) 
WXCIIDBUNPXVPR-GQHNWBNOSA-N

>  <FORMULA>  (1476) 
C19H30O2

>  <EXACT MASS>  (1476) 
290.2245802

>  <MW>  (1476) 
290

>  <ID>  (1476) 
JP009946

>  <CONTRIBUTOR>  (1476) 
University of Tokyo Team, {Faculty of Engineering, University of Tokyo

>  <COMMENT>  (1476) 
SMILES=CCOC(=O)C=CC=C(C)CCC=C(C)CCC=C(C)C
InChI=InChI=1S/C19H30O2/c1-6-21-19(20)15-9-14-18(5)13-8-12-17(4)11-7-10-16(2)3/h9-10,12,14-15H,6-8,11,13H2,1-5H3/b15-9+,17-12+,18-14+
computed SMILES=O=C(OCC)C=CC=C(C)CCC=C(C)CCC=C(C)C
accession=JP009946
date=2016.01.19 (Created 2008.10.21, modified 2011.05.06)
author=KURARAY CO., LTD.
license=CC BY-NC-SA
exact mass=290.22458
ionization energy=70 eV
ion type=[M]+*
computed spectral entropy=2.6829898847237605
computed normalized entropy=0.619523224800161
SPLASH=splash10-014i-9400000000-355dd9f521361bb8014d
submitter=submitter = University of Tokyo Team (Faculty of Engineering, University of Tokyo)
MoNA Rating=3.75

>  <NUM PEAKS>  (1476) 
76

>  <MASS SPECTRAL PEAKS>  (1476) 
27 0.9
29 4.5
39 2
41 1.95
43 1.6
53 3.9
55 4.5
65 0.11
67 5.5
68 5.3
69 99.99
70 0.55
77 3.1
79 8.8
80 11.1
81 5.86
82 3.6
91 2.3
93 4.7
95 0.78
97 0.2
105 1.9
107 3.1
108 0.28
109 2.2
111 2
119 0.3
121 0.16
123 0.8
125 2.3
133 1.1
135 0.03
136 1.9
137 10.9
138 0.8
139 1.08
147 1.9
154 39.8
155 3.9
160 0.02
161 0.7
162 0.1
165 0.2
166 0.33
167 2.2
168 0.3
171 0.1
173 0.02
175 0.7
176 0.2
177 2
178 0.03
179 0.3
180 0.2
181 0.2
193 0.01
201 0.2
202 0.5
203 0.3
205 0.06
206 0.2
207 0.5
208 0.2
216 0.04
217 0.5
219 0.3
222 0.1
234 0.3
244 0.2
245 0.58
246 1.1
247 1.5
248 0.3
275 0.05
290 2.1
291 0.4

$$$$

     RDKit          2D

 21 20  0  0  0  0  0  0  0  0999 V2000
    5.8457    7.8750    0.0000 C   0  0  0  0  0  0  0  0  0  0  0  0
  -11.0418   14.6250    0.0000 C   0  0  0  0  0  0  0  0  0  0  0  0
  -12.3409   12.3750    0.0000 C   0  0  0  0  0  0  0  0  0  0  0  0
   -9.7428    7.8750    0.0000 C   0  0  0  0  0  0  0  0  0  0  0  0
   -3.2476   10.1250    0.0000 C   0  0  0  0  0  0  0  0  0  0  0  0
    4.5466    8.6250    0.0000 C   0  0  0  0  0  0  0  0  0  0  0  0
   -9.7428   10.8750    0.0000 C   0  0  0  0  0  0  0  0  0  0  0  0
   -5.8457    8.6250    0.0000 C   0  0  0  0  0  0  0  0  0  0  0  0
   -0.6495    8.6250    0.0000 C   0  0  0  0  0  0  0  0  0  0  0  0
   -9.7428   12.3750    0.0000 C   0  0  0  0  0  0  0  0  0  0  0  0
   -8.4437   10.1250    0.0000 C   0  0  0  0  0  0  0  0  0  0  0  0
   -7.1447    7.8750    0.0000 C   0  0  0  0  0  0  0  0  0  0  0  0
   -4.5466    7.8750    0.0000 C   0  0  0  0  0  0  0  0  0  0  0  0
   -1.9486    7.8750    0.0000 C   0  0  0  0  0  0  0  0  0  0  0  0
    0.6495    7.8750    0.0000 C   0  0  0  0  0  0  0  0  0  0  0  0
  -11.0418   13.1250    0.0000 C   0  0  0  0  0  0  0  0  0  0  0  0
   -8.4437    8.6250    0.0000 C   0  0  0  0  0  0  0  0  0  0  0  0
   -3.2476    8.6250    0.0000 C   0  0  0  0  0  0  0  0  0  0  0  0
    1.9486    8.6250    0.0000 C   0  0  0  0  0  0  0  0  0  0  0  0
    1.9486   10.1250    0.0000 O   0  0  0  0  0  0  0  0  0  0  0  0
    3.2476    7.8750    0.0000 O   0  0  0  0  0  0  0  0  0  0  0  0
  6  1  1  0
 10  7  1  0
 11  7  1  0
 12  8  1  0
 13  8  1  0
 14  9  1  0
  9 15  2  0
 16  2  1  0
 16  3  1  0
 16 10  2  0
 17  4  1  0
 17 11  1  0
 12 17  2  0
 18  5  1  0
 18 13  1  0
 14 18  2  0
 19 15  1  0
 20 19  2  0
 21  6  1  0
 21 19  1  0
M  END
>  <NAME>  (1477) 
ETHYL 5,9,13-TRIMETHYL-(2E,4E,8Z,12E)-2,4,8,12-TETRADECATETRAENOATE

>  <SYNONYMS>  (1477) 


>  <SPECTRUM TYPE>  (1477) 
MS1

>  <INSTRUMENT TYPE>  (1477) 
EI-B

>  <INSTRUMENT>  (1477) 
JEOL JMS-D-300

>  <ION MODE>  (1477) 
P

>  <INCHIKEY>  (1477) 
WXCIIDBUNPXVPR-OBAPAJOLSA-N

>  <FORMULA>  (1477) 
C19H30O2

>  <EXACT MASS>  (1477) 
290.2245802

>  <MW>  (1477) 
290

>  <ID>  (1477) 
JP009945

>  <CONTRIBUTOR>  (1477) 
University of Tokyo Team, {Faculty of Engineering, University of Tokyo

>  <COMMENT>  (1477) 
SMILES=CCOC(=O)C=CC=C(C)CCC=C(C)CCC=C(C)C
InChI=InChI=1S/C19H30O2/c1-6-21-19(20)15-9-14-18(5)13-8-12-17(4)11-7-10-16(2)3/h9-10,12,14-15H,6-8,11,13H2,1-5H3/b15-9+,17-12-,18-14+
computed SMILES=O=C(OCC)C=CC=C(C)CCC=C(C)CCC=C(C)C
accession=JP009945
date=2016.01.19 (Created 2008.10.21, modified 2011.05.06)
author=KURARAY CO., LTD.
license=CC BY-NC-SA
exact mass=290.22458
ionization energy=70 eV
ion type=[M]+*
computed spectral entropy=3.0711202893858633
computed normalized entropy=0.7028623279373587
SPLASH=splash10-0159-9200000000-a9f1bacc1ab43b041fd6
submitter=submitter = University of Tokyo Team (Faculty of Engineering, University of Tokyo)
MoNA Rating=3.75

>  <NUM PEAKS>  (1477) 
79

>  <MASS SPECTRAL PEAKS>  (1477) 
27 2.7
28 38.3
29 9.8
32 1.09
39 3.1
41 28.3
43 4.7
53 0.47
54 0.5
55 6.4
56 0.5
57 0.23
65 1.6
67 6.4
68 5.5
69 99.99
70 5.5
71 1.3
77 3.1
79 0.83
80 10.9
81 57.2
82 4.7
88 0.16
91 3.1
92 0.5
93 6.4
94 0.05
95 7.7
96 0.5
97 1.6
105 0.28
107 4.1
108 2.8
109 5.2
110 0.05
111 2.8
119 1.6
121 2.3
123 0.27
125 2.8
133 3.1
135 1.6
136 0.16
137 6.3
138 0.5
139 10.9
140 0.05
147 3.3
148 0.5
149 0.5
151 0.34
152 0.5
154 22
155 3.1
161 0.16
166 1.7
167 1.5
169 0.8
175 0.14
176 0.7
177 2
178 1
179 0.21
180 0.9
197 1.6
202 1.1
203 0.09
205 2
207 0.8
208 0.8
216 0.11
217 1.4
219 1
221 1.7
245 0.08
247 1.3
290 2.8
291 0.8

$$$$

     RDKit          2D

 21 21  0  0  0  0  0  0  0  0999 V2000
   -4.8712    5.0071    0.0000 C   0  0  0  0  0  0  0  0  0  0  0  0
  -12.6654    6.5071    0.0000 C   0  0  0  0  0  0  0  0  0  0  0  0
    5.5212    5.0071    0.0000 C   0  0  0  0  0  0  0  0  0  0  0  0
    5.5216    6.5079    0.0000 C   0  0  0  0  0  0  0  0  0  0  0  0
    4.2216    4.2563    0.0000 C   0  0  0  0  0  0  0  0  0  0  0  0
   -7.4692    6.5071    0.0000 C   0  0  0  0  0  0  0  0  0  0  0  0
   -6.1702    7.2571    0.0000 C   0  0  0  0  0  0  0  0  0  0  0  0
    4.2226    7.2579    0.0000 C   0  0  0  0  0  0  0  0  0  0  0  0
    2.9226    5.0063    0.0000 C   0  0  0  0  0  0  0  0  0  0  0  0
   -8.7683    7.2571    0.0000 C   0  0  0  0  0  0  0  0  0  0  0  0
   -3.5721    7.2571    0.0000 C   0  0  0  0  0  0  0  0  0  0  0  0
   -2.2731    6.5071    0.0000 C   0  0  0  0  0  0  0  0  0  0  0  0
    1.6240    7.2571    0.0000 C   0  0  0  0  0  0  0  0  0  0  0  0
   -4.8712    6.5071    0.0000 C   0  0  0  0  0  0  0  0  0  0  0  0
    2.9231    6.5071    0.0000 C   0  0  0  0  0  0  0  0  0  0  0  0
  -10.0673    6.5071    0.0000 C   0  0  0  0  0  0  0  0  0  0  0  0
   -0.9740    7.2571    0.0000 C   0  0  0  0  0  0  0  0  0  0  0  0
  -10.0673    5.0071    0.0000 O   0  0  0  0  0  0  0  0  0  0  0  0
   -0.9740    8.7571    0.0000 O   0  0  0  0  0  0  0  0  0  0  0  0
  -11.3663    7.2571    0.0000 O   0  0  0  0  0  0  0  0  0  0  0  0
    0.3250    6.5071    0.0000 O   0  0  0  0  0  0  0  0  0  0  0  0
  4  3  2  0
  5  3  1  0
  7  6  1  0
  8  4  1  0
  9  5  2  0
 10  6  1  0
 12 11  1  0
 14  1  1  0
  7 14  2  0
 14 11  1  0
 15  8  2  0
 15  9  1  0
 15 13  1  0
 16 10  1  0
 17 12  1  0
 18 16  2  0
 19 17  2  0
 20  2  1  0
 20 16  1  0
 21 13  1  0
 21 17  1  0
M  END
>  <NAME>  (1478) 
BENZYL METHYL 4-METHYL-4-OCTENEDIOATE

>  <SYNONYMS>  (1478) 


>  <SPECTRUM TYPE>  (1478) 
MS1

>  <INSTRUMENT TYPE>  (1478) 
EI-B

>  <INSTRUMENT>  (1478) 
JEOL JMS-D-300

>  <ION MODE>  (1478) 
P

>  <INCHIKEY>  (1478) 
JLDIJNJHXGCWNE-VGOFMYFVSA-N

>  <FORMULA>  (1478) 
C17H22O4

>  <EXACT MASS>  (1478) 
290.151809184

>  <MW>  (1478) 
290

>  <ID>  (1478) 
JP009944

>  <CONTRIBUTOR>  (1478) 
University of Tokyo Team, {Faculty of Engineering, University of Tokyo

>  <COMMENT>  (1478) 
SMILES=COC(=O)CCC=C(C)CCC(=O)OCc(c1)cccc1
InChI=InChI=1S/C17H22O4/c1-14(7-6-10-16(18)20-2)11-12-17(19)21-13-15-8-4-3-5-9-15/h3-5,7-9H,6,10-13H2,1-2H3/b14-7+
computed SMILES=O=C(OC)CCC=C(C)CCC(=O)OCC=1C=CC=CC1
accession=JP009944
date=2016.01.19 (Created 2008.10.21, modified 2011.05.06)
author=KURARAY CO., LTD.
license=CC BY-NC-SA
exact mass=290.15181
ionization energy=70 eV
ion type=[M]+*
computed spectral entropy=2.8699174793240596
computed normalized entropy=0.6494729577392722
SPLASH=splash10-0006-9400000000-2bf00f770440935d9bb0
submitter=submitter = University of Tokyo Team (Faculty of Engineering, University of Tokyo)
MoNA Rating=3.75

>  <NUM PEAKS>  (1478) 
83

>  <MASS SPECTRAL PEAKS>  (1478) 
27 1.6
28 0.8
29 1.6
39 0.31
40 0.5
41 5
42 0.5
43 0.73
44 0.5
45 0.5
51 0.8
53 0.23
55 4.7
59 3.3
63 0.8
65 0.66
66 0.5
67 4.4
68 3.3
69 0.05
71 1.6
77 2.8
78 0.5
79 0.66
80 1.1
81 6.6
82 2.7
83 0.05
85 0.8
87 0.5
89 1.6
90 0.16
91 99.99
92 10.5
93 15.6
94 0.17
95 3.1
97 3
99 1.9
104 0.05
105 0.8
107 3.1
108 0.8
110 0.34
111 2.3
117 0.5
120 0.5
121 3.47
122 4
123 1.7
125 4.7
126 0.05
127 0.5
139 4.2
140 0.5
143 0.2
148 0.8
149 39.8
150 4.2
151 0.33
152 0.8
153 0.8
154 0.8
156 0.11
157 1.6
167 2
176 1.1
181 0.63
199 16.4
200 1.6
212 0.4
216 0.17
217 0.5
230 1.2
231 0.4
240 0.1
241 0.9
242 0.3
244 0.2
258 0.09
259 0.4
272 0.2
273 0.4

$$$$

     RDKit          2D

 20 19  0  0  0  0  0  0  0  0999 V2000
    3.8971    6.7500    0.0000 C   0  0  0  0  0  0  0  0  0  0  0  0
   -6.4952   11.2500    0.0000 C   0  0  0  0  0  0  0  0  0  0  0  0
   -7.8776    3.4100    0.0000 C   0  0  0  0  0  0  0  0  0  0  0  0
   -1.2990    8.2500    0.0000 C   0  0  0  0  0  0  0  0  0  0  0  0
   -5.3743    7.0105    0.0000 C   0  0  0  0  0  0  0  0  0  0  0  0
    2.5981    6.0000    0.0000 C   0  0  0  0  0  0  0  0  0  0  0  0
   -5.1962   10.5000    0.0000 C   0  0  0  0  0  0  0  0  0  0  0  0
   -6.4004    3.6704    0.0000 C   0  0  0  0  0  0  0  0  0  0  0  0
   -2.5981    6.0000    0.0000 C   0  0  0  0  0  0  0  0  0  0  0  0
   -1.2990    6.7500    0.0000 C   0  0  0  0  0  0  0  0  0  0  0  0
    0.0000    6.0000    0.0000 C   0  0  0  0  0  0  0  0  0  0  0  0
   -3.8971    8.2500    0.0000 C   0  0  0  0  0  0  0  0  0  0  0  0
   -4.4101    5.3405    0.0000 C   0  0  0  0  0  0  0  0  0  0  0  0
   -3.8971    6.7500    0.0000 C   0  0  0  0  0  0  0  0  0  0  0  0
    0.0000    4.5000    0.0000 O   0  0  0  0  0  0  0  0  0  0  0  0
   -2.5981    9.0000    0.0000 O   0  0  0  0  0  0  0  0  0  0  0  0
   -3.4460    4.1914    0.0000 O   0  0  0  0  0  0  0  0  0  0  0  0
    1.2990    6.7500    0.0000 O   0  0  0  0  0  0  0  0  0  0  0  0
   -5.1962    9.0000    0.0000 O   0  0  0  0  0  0  0  0  0  0  0  0
   -5.8874    5.0800    0.0000 O   0  0  0  0  0  0  0  0  0  0  0  0
  6  1  1  0
  7  2  1  0
  8  3  1  0
 10  4  1  0
 10  9  1  0
 11 10  1  0
 14  5  1  0
 14  9  1  0
 14 12  1  0
 14 13  1  0
 15 11  2  0
 16 12  2  0
 17 13  2  0
 18  6  1  0
 18 11  1  0
 19  7  1  0
 19 12  1  0
 20  8  1  0
 20 13  1  0
M  END
>  <NAME>  (1479) 
2,2,4-TRIETHOXYCARBONYLPENTANE

>  <SYNONYMS>  (1479) 


>  <SPECTRUM TYPE>  (1479) 
MS1

>  <INSTRUMENT TYPE>  (1479) 
EI-B

>  <INSTRUMENT>  (1479) 
JEOL JMS-D-300

>  <ION MODE>  (1479) 
P

>  <INCHIKEY>  (1479) 
QCTIOLMTJPOZIA-UHFFFAOYSA-N

>  <FORMULA>  (1479) 
C14H24O6

>  <EXACT MASS>  (1479) 
288.157288488

>  <MW>  (1479) 
288

>  <ID>  (1479) 
JP009943

>  <CONTRIBUTOR>  (1479) 
University of Tokyo Team, {Faculty of Engineering, University of Tokyo

>  <COMMENT>  (1479) 
SMILES=CCOC(=O)C(C)CC(C)(C(=O)OCC)C(=O)OCC
InChI=InChI=1S/C14H24O6/c1-6-18-11(15)10(4)9-14(5,12(16)19-7-2)13(17)20-8-3/h10H,6-9H2,1-5H3
computed SMILES=O=C(OCC)C(C)CC(C(=O)OCC)(C(=O)OCC)C
accession=JP009943
date=2016.01.19 (Created 2008.10.21, modified 2011.05.06)
author=KURARAY CO., LTD.
license=CC BY-NC-SA
exact mass=288.15729
ionization energy=70 eV
ion type=[M]+*
computed spectral entropy=3.392586268485515
computed normalized entropy=0.7698666690853235
SPLASH=splash10-006x-3920000000-34cf37cea8062efb0ef2
submitter=submitter = University of Tokyo Team (Faculty of Engineering, University of Tokyo)
MoNA Rating=3.75

>  <NUM PEAKS>  (1479) 
82

>  <MASS SPECTRAL PEAKS>  (1479) 
27 5.8
29 20.6
31 1.3
39 0.2
40 0.8
41 18.3
42 1.6
43 1.53
44 1.6
45 7
53 1.6
54 0.11
55 5.9
56 14.1
57 6.3
58 0.05
59 3
65 0.5
67 7.8
68 0.17
69 27.7
70 2.7
71 1.6
72 0.31
73 4.4
74 10.9
75 1.6
82 0.16
83 3.3
84 1.6
85 4.7
86 0.16
87 18.8
88 1.6
95 10.9
96 0.3
97 4
99 2
100 17.2
101 0.34
102 18.3
103 3.1
110 1.7
111 0.31
112 2.5
113 73.8
114 10.9
115 2.11
116 2.7
123 6.6
127 2.5
128 5
129 6.9
130 7.9
139 1.3
140 0.39
141 53.1
142 35.9
143 16.4
146 0.16
154 1.6
157 1.6
159 3.3
160 0.22
167 1.6
168 3.6
169 30
170 1.36
171 3.9
173 2.2
174 99.99
181 0.05
185 7.8
187 13.6
196 0.9
200 0.16
201 0.9
213 1.9
214 10.8
215 3.42
229 1.6
243 80.5

$$$$

     RDKit          2D

 20 19  0  0  0  0  0  0  0  0999 V2000
    4.5466    7.1250    0.0000 C   0  0  0  0  0  0  0  0  0  0  0  0
    3.2476    9.3750    0.0000 C   0  0  0  0  0  0  0  0  0  0  0  0
   -1.9486    9.3750    0.0000 C   0  0  0  0  0  0  0  0  0  0  0  0
   -6.1805    9.0241    0.0000 C   0  0  0  0  0  0  0  0  0  0  0  0
  -12.3409    7.8750    0.0000 C   0  0  0  0  0  0  0  0  0  0  0  0
  -11.0418    5.6250    0.0000 C   0  0  0  0  0  0  0  0  0  0  0  0
    0.6495    7.8750    0.0000 C   0  0  0  0  0  0  0  0  0  0  0  0
   -4.5466    7.8750    0.0000 C   0  0  0  0  0  0  0  0  0  0  0  0
    1.9486    7.1250    0.0000 C   0  0  0  0  0  0  0  0  0  0  0  0
   -0.6495    7.1250    0.0000 C   0  0  0  0  0  0  0  0  0  0  0  0
   -3.2476    7.1250    0.0000 C   0  0  0  0  0  0  0  0  0  0  0  0
   -5.8457    7.1250    0.0000 C   0  0  0  0  0  0  0  0  0  0  0  0
   -9.7428    7.8750    0.0000 C   0  0  0  0  0  0  0  0  0  0  0  0
    3.2476    7.8750    0.0000 C   0  0  0  0  0  0  0  0  0  0  0  0
   -1.9486    7.8750    0.0000 C   0  0  0  0  0  0  0  0  0  0  0  0
   -8.4437    7.1250    0.0000 C   0  0  0  0  0  0  0  0  0  0  0  0
   -7.1447    7.8750    0.0000 C   0  0  0  0  0  0  0  0  0  0  0  0
  -11.0418    7.1250    0.0000 N   0  0  0  0  0  0  0  0  0  0  0  0
   -8.4437    5.6250    0.0000 O   0  0  0  0  0  0  0  0  0  0  0  0
   -8.1089    9.0241    0.0000 O   0  0  0  0  0  0  0  0  0  0  0  0
  9  7  1  0
 10  7  1  0
 11  8  1  0
 12  8  1  0
 14  1  1  0
 14  2  1  0
 14  9  1  0
 15  3  1  0
 15 10  1  0
 15 11  1  0
 16 13  1  0
 17  4  1  0
 17 12  1  0
 17 16  1  0
 18  5  1  0
 18  6  1  0
 18 13  1  0
 19 16  1  0
 20 17  1  0
M  END
>  <NAME>  (1480) 
1-(N,N-DIMETHYLAMINO)-3,7,11-TRIMETHYL-2,3-DODECANEDIOL

>  <SYNONYMS>  (1480) 


>  <SPECTRUM TYPE>  (1480) 
MS1

>  <INSTRUMENT TYPE>  (1480) 
EI-B

>  <INSTRUMENT>  (1480) 
JEOL JMS-D-300

>  <ION MODE>  (1480) 
P

>  <INCHIKEY>  (1480) 
AYIZETHHCXDLGF-UHFFFAOYSA-N

>  <FORMULA>  (1480) 
C17H37NO2

>  <EXACT MASS>  (1480) 
287.282429424

>  <MW>  (1480) 
287

>  <ID>  (1480) 
JP009942

>  <CONTRIBUTOR>  (1480) 
University of Tokyo Team, {Faculty of Engineering, University of Tokyo

>  <COMMENT>  (1480) 
SMILES=CC(C)CCCC(C)CCCC(C)(O)C(O)CN(C)C
InChI=InChI=1S/C17H37NO2/c1-14(2)9-7-10-15(3)11-8-12-17(4,20)16(19)13-18(5)6/h14-16,19-20H,7-13H2,1-6H3
computed SMILES=OC(CN(C)C)C(O)(C)CCCC(C)CCCC(C)C
accession=JP009942
date=2016.01.19 (Created 2008.10.21, modified 2011.05.06)
author=KURARAY CO., LTD.
license=CC BY-NC-SA
exact mass=287.28243
ionization energy=70 eV
ion type=[M]+*
computed spectral entropy=2.1717202392413637
computed normalized entropy=0.5469925855649187
SPLASH=splash10-0a4i-9000000000-655e8d10cff7c86bbb98
submitter=submitter = University of Tokyo Team (Faculty of Engineering, University of Tokyo)
MoNA Rating=3.75

>  <NUM PEAKS>  (1480) 
53

>  <MASS SPECTRAL PEAKS>  (1480) 
28 18
32 4.7
41 3.6
43 0.67
44 2.8
45 6.6
46 0.8
55 0.47
57 5.3
58 99.99
59 4.4
67 0.05
69 4.1
71 3.1
81 1.6
83 0.3
85 1.6
88 15.9
89 1.6
91 0.05
95 1.6
97 2
100 1.6
109 0.16
111 1.6
121 0.5
122 0.5
123 0.11
124 0.5
125 0.8
126 0.5
127 0.05
131 0.6
132 2.3
133 0.5
134 0.05
139 0.5
144 0.5
145 0.5
146 0.05
147 0.5
149 0.5
150 0.5
151 0.05
152 0.5
153 0.5
155 0.5
159 0.05
160 0.5
270 0.3
272 0.7
286 0.02
287 0.3

$$$$

     RDKit          2D

 20 19  0  0  0  0  0  0  0  0999 V2000
    5.1962    8.2500    0.0000 C   0  0  0  0  0  0  0  0  0  0  0  0
    3.8971   10.5000    0.0000 C   0  0  0  0  0  0  0  0  0  0  0  0
  -12.9904    6.7500    0.0000 C   0  0  0  0  0  0  0  0  0  0  0  0
  -14.2894    9.0000    0.0000 C   0  0  0  0  0  0  0  0  0  0  0  0
   -3.8971    9.0000    0.0000 C   0  0  0  0  0  0  0  0  0  0  0  0
   -5.1962    8.2500    0.0000 C   0  0  0  0  0  0  0  0  0  0  0  0
   -1.2990    9.0000    0.0000 C   0  0  0  0  0  0  0  0  0  0  0  0
   -7.7942    8.2500    0.0000 C   0  0  0  0  0  0  0  0  0  0  0  0
    0.0000    8.2500    0.0000 C   0  0  0  0  0  0  0  0  0  0  0  0
   -9.0933    9.0000    0.0000 C   0  0  0  0  0  0  0  0  0  0  0  0
    3.8971    9.0000    0.0000 C   0  0  0  0  0  0  0  0  0  0  0  0
  -12.9904    8.2500    0.0000 C   0  0  0  0  0  0  0  0  0  0  0  0
    2.5981    8.2500    0.0000 C   0  0  0  0  0  0  0  0  0  0  0  0
  -11.6913    9.0000    0.0000 C   0  0  0  0  0  0  0  0  0  0  0  0
    2.5981    6.7500    0.0000 O   0  0  0  0  0  0  0  0  0  0  0  0
  -11.6913   10.5000    0.0000 O   0  0  0  0  0  0  0  0  0  0  0  0
   -2.5981    8.2500    0.0000 O   0  0  0  0  0  0  0  0  0  0  0  0
   -6.4952    9.0000    0.0000 O   0  0  0  0  0  0  0  0  0  0  0  0
    1.2990    9.0000    0.0000 O   0  0  0  0  0  0  0  0  0  0  0  0
  -10.3923    8.2500    0.0000 O   0  0  0  0  0  0  0  0  0  0  0  0
  6  5  1  0
  9  7  1  0
 10  8  1  0
 11  1  2  0
 11  2  1  0
 12  3  2  0
 12  4  1  0
 13 11  1  0
 14 12  1  0
 15 13  2  0
 16 14  2  0
 17  5  1  0
 17  7  1  0
 18  6  1  0
 18  8  1  0
 19  9  1  0
 19 13  1  0
 20 10  1  0
 20 14  1  0
M  END
>  <NAME>  (1481) 
TRIETHYLENEGLYCOL DIMETHACRYLATE

>  <SYNONYMS>  (1481) 


>  <SPECTRUM TYPE>  (1481) 
MS1

>  <INSTRUMENT TYPE>  (1481) 
EI-B

>  <INSTRUMENT>  (1481) 
JEOL JMS-D-300

>  <ION MODE>  (1481) 
P

>  <INCHIKEY>  (1481) 
HWSSEYVMGDIFMH-UHFFFAOYSA-N

>  <FORMULA>  (1481) 
C14H22O6

>  <EXACT MASS>  (1481) 
286.14163842399995

>  <MW>  (1481) 
286

>  <ID>  (1481) 
JP009941

>  <CONTRIBUTOR>  (1481) 
University of Tokyo Team, {Faculty of Engineering, University of Tokyo

>  <COMMENT>  (1481) 
SMILES=CC(=C)C(=O)OCCOCCOCCOC(=O)C(C)=C
InChI=InChI=1S/C14H22O6/c1-11(2)13(15)19-9-7-17-5-6-18-8-10-20-14(16)12(3)4/h1,3,5-10H2,2,4H3
computed SMILES=O=C(OCCOCCOCCOC(=O)C(=C)C)C(=C)C
accession=JP009941
date=2016.01.19 (Created 2008.10.21, modified 2011.05.06)
author=KURARAY CO., LTD.
license=CC BY-NC-SA
exact mass=286.14164
ionization energy=70 eV
ion type=[M]+*
computed spectral entropy=1.9300972160155283
computed normalized entropy=0.644282278845217
SPLASH=splash10-03di-7900000000-39b663b79c155bac9892
submitter=submitter = University of Tokyo Team (Faculty of Engineering, University of Tokyo)
MoNA Rating=3.75

>  <NUM PEAKS>  (1481) 
20

>  <MASS SPECTRAL PEAKS>  (1481) 
39 2.3
40 1.6
41 17.8
43 0.3
45 4.5
68 1.6
69 62.3
70 0.47
73 1.6
84 2.3
86 12
87 0.17
89 1.6
100 3.1
112 18.9
113 99.99
114 10
143 5.2
172 1.9
200 5.8

$$$$

     RDKit          2D

 21 22  0  0  0  0  0  0  0  0999 V2000
   -5.1970   -1.5006    0.0000 C   0  0  0  0  0  0  0  0  0  0  0  0
   10.3936   -1.4985    0.0000 C   0  0  0  0  0  0  0  0  0  0  0  0
   -1.3000    0.7500    0.0000 C   0  0  0  0  0  0  0  0  0  0  0  0
   -0.0000   -1.5000    0.0000 C   0  0  0  0  0  0  0  0  0  0  0  0
    0.0000    1.5000    0.0000 C   0  0  0  0  0  0  0  0  0  0  0  0
    1.3000   -0.7500    0.0000 C   0  0  0  0  0  0  0  0  0  0  0  0
    6.4966    0.7517    0.0000 C   0  0  0  0  0  0  0  0  0  0  0  0
    5.1970   -1.5002    0.0000 C   0  0  0  0  0  0  0  0  0  0  0  0
    5.1975    1.5015    0.0000 C   0  0  0  0  0  0  0  0  0  0  0  0
    3.8978   -0.7504    0.0000 C   0  0  0  0  0  0  0  0  0  0  0  0
   -3.8981   -0.7504    0.0000 C   0  0  0  0  0  0  0  0  0  0  0  0
    9.0945   -0.7488    0.0000 C   0  0  0  0  0  0  0  0  0  0  0  0
   -1.3000   -0.7500    0.0000 C   0  0  0  0  0  0  0  0  0  0  0  0
    6.4964   -0.7492    0.0000 C   0  0  0  0  0  0  0  0  0  0  0  0
    1.3000    0.7500    0.0000 C   0  0  0  0  0  0  0  0  0  0  0  0
    3.8981    0.7504    0.0000 C   0  0  0  0  0  0  0  0  0  0  0  0
   -2.5989   -1.5002    0.0000 N   0  0  0  0  0  0  0  0  0  0  0  0
   -3.8983    0.7496    0.0000 O   0  0  0  0  0  0  0  0  0  0  0  0
    9.0942    0.7512    0.0000 O   0  0  0  0  0  0  0  0  0  0  0  0
    7.7956   -1.4990    0.0000 O   0  0  0  0  0  0  0  0  0  0  0  0
    2.5989    1.5002    0.0000 O   0  0  0  0  0  0  0  0  0  0  0  0
  5  3  2  0
  6  4  1  0
  9  7  2  0
 10  8  1  0
 11  1  1  0
 12  2  1  0
 13  3  1  0
 13  4  2  0
 14  7  1  0
 14  8  2  0
 15  5  1  0
 15  6  2  0
 16  9  1  0
 16 10  2  0
 17 11  2  3
 17 13  1  0
 18 11  1  0
 19 12  2  0
 20 12  1  0
 20 14  1  0
 21 15  1  0
 21 16  1  0
M  END
>  <NAME>  (1482) 
1-ACETOXY-4-(4'-(N-ACETYLAMINO)PHENOXY)BENZENE

>  <SYNONYMS>  (1482) 


>  <SPECTRUM TYPE>  (1482) 
MS1

>  <INSTRUMENT TYPE>  (1482) 
EI-B

>  <INSTRUMENT>  (1482) 
JEOL JMS-D-300

>  <ION MODE>  (1482) 
P

>  <INCHIKEY>  (1482) 
HIZBNPMDDFRWMP-UHFFFAOYSA-N

>  <FORMULA>  (1482) 
C16H15NO4

>  <EXACT MASS>  (1482) 
285.10010796

>  <MW>  (1482) 
285

>  <ID>  (1482) 
JP009940

>  <CONTRIBUTOR>  (1482) 
University of Tokyo Team, {Faculty of Engineering, University of Tokyo

>  <COMMENT>  (1482) 
SMILES=CC(=O)Nc(c2)ccc(c2)Oc(c1)ccc(OC(C)=O)c1
InChI=InChI=1S/C16H15NO4/c1-11(18)17-13-3-5-15(6-4-13)21-16-9-7-14(8-10-16)20-12(2)19/h3-10H,1-2H3,(H,17,18)
computed SMILES=O=C(OC1=CC=C(OC2=CC=C(N=C(O)C)C=C2)C=C1)C
accession=JP009940
date=2016.01.19 (Created 2008.10.21, modified 2011.05.06)
author=KURARAY CO., LTD.
license=CC BY-NC-SA
exact mass=285.10011
ionization energy=70 eV
ion type=[M]+*
computed spectral entropy=2.5500651289512573
computed normalized entropy=0.6335012006082725
SPLASH=splash10-0udi-4090000000-5097b559b752d911210d
submitter=submitter = University of Tokyo Team (Faculty of Engineering, University of Tokyo)
MoNA Rating=3.75

>  <NUM PEAKS>  (1482) 
56

>  <MASS SPECTRAL PEAKS>  (1482) 
27 0.9
28 5.4
38 0.8
39 0.36
41 1
42 1.3
43 29.1
44 5.09
45 0.6
50 1
51 1
52 0.12
53 1.7
54 0.6
55 0.6
58 0.05
62 0.5
63 3.6
64 3.9
65 1.25
66 1.7
76 1
77 0.6
79 0.06
80 2.1
81 1.2
90 1.4
91 0.19
92 6
93 2.7
94 1
108 1.52
109 3
110 0.8
115 0.8
117 0.12
127 1.2
128 0.6
134 1.3
144 0.13
145 0.6
148 0.6
172 2.7
173 0.1
199 0.8
200 4
201 99.99
202 1.41
203 1.9
227 1.2
242 1.8
243 6.3
244 10.1
245 1.3
285 22.3
286 3.9

$$$$

     RDKit          2D

 21 24  0  0  1  0  0  0  0  0999 V2000
   -1.6300    0.9100    0.0000 C   0  0  0  0  0  0  0  0  0  0  0  0
    2.4272    3.1517    0.0000 C   0  0  0  0  0  0  0  0  0  0  0  0
   -0.3300   -2.8400    0.0000 C   0  0  0  0  0  0  0  0  0  0  0  0
    0.9700   -2.0900    0.0000 C   0  0  0  0  0  0  0  0  0  0  0  0
    3.6900   -0.3000    0.0000 C   0  0  0  0  0  0  0  0  0  0  0  0
    4.5700    0.9100    0.0000 C   0  0  0  0  0  0  0  0  0  0  0  0
   -4.2300   -0.5900    0.0000 C   0  0  0  0  0  0  0  0  0  0  0  0
   -0.3300    1.6600    0.0000 C   0  0  0  0  0  0  0  0  0  0  0  0
   -2.9300    0.1600    0.0000 C   0  0  0  0  0  0  0  0  0  0  0  0
    0.9700    2.4100    0.0000 C   0  0  0  0  0  0  0  0  0  0  0  0
   -2.9300   -2.8400    0.0000 C   0  0  0  0  0  0  0  0  0  0  0  0
   -1.6300   -2.0900    0.0000 C   0  0  0  0  0  0  0  0  0  0  0  0
   -4.2300   -2.0900    0.0000 C   0  0  0  0  0  0  0  0  0  0  0  0
    0.9700   -0.5900    0.0000 C   0  0  0  0  0  0  0  0  0  0  0  0
    2.2700    0.1600    0.0000 C   0  0  0  0  0  0  0  0  0  0  0  0
   -0.3300    0.1600    0.0000 C   0  0  0  0  0  0  0  0  0  0  0  0
    3.6900    2.1200    0.0000 C   0  0  0  0  0  0  0  0  0  0  0  0
   -1.6300   -0.5900    0.0000 C   0  0  0  0  0  0  0  0  0  0  0  0
    2.2700    1.6600    0.0000 C   0  0  0  0  0  0  0  0  0  0  0  0
   -5.5289   -2.8402    0.0000 O   0  0  0  0  0  0  0  0  0  0  0  0
    4.1538    3.5465    0.0000 O   0  0  0  0  0  0  0  0  0  0  0  0
  4  3  2  0
  6  5  1  0
  9  7  1  0
 10  8  1  0
 12  3  1  0
 12 11  2  0
 13  7  1  0
 13 11  1  0
 14  4  1  6
 15  5  1  1
 15 14  1  0
 16  8  1  1
 16 14  1  0
 17  6  1  0
 18  1  1  1
 18  9  1  0
 18 12  1  0
 18 16  1  0
 19  2  1  1
 19 10  1  0
 19 15  1  0
 19 17  1  0
 20 13  2  0
 21 17  2  0
M  END
>  <NAME>  (1483) 
ANDROSTA-4,6-DIENE-3,17-DIONE

>  <SYNONYMS>  (1483) 


>  <SPECTRUM TYPE>  (1483) 
MS1

>  <INSTRUMENT TYPE>  (1483) 
EI-B

>  <INSTRUMENT>  (1483) 
JEOL JMS-D-300

>  <ION MODE>  (1483) 
P

>  <INCHIKEY>  (1483) 
YEWSFUFGMDJFFG-QAGGRKNESA-N

>  <FORMULA>  (1483) 
C19H24O2

>  <EXACT MASS>  (1483) 
284.177630008

>  <MW>  (1483) 
284

>  <ID>  (1483) 
JP009939

>  <CONTRIBUTOR>  (1483) 
University of Tokyo Team, {Faculty of Engineering, University of Tokyo

>  <COMMENT>  (1483) 
SMILES=O=C(C4)C=C(C=3)C(C)(C4)C([H])(C2)C([H])(C3)C([H])(C1)C(C)(C2)C(=O)C1
InChI=InChI=1S/C19H24O2/c1-18-9-7-13(20)11-12(18)3-4-14-15-5-6-17(21)19(15,2)10-8-16(14)18/h3-4,11,14-16H,5-10H2,1-2H3/t14-,15-,16-,18-,19-/m0/s1
computed SMILES=O=C1C=C2C=CC3C4CCC(=O)C4(C)CCC3C2(C)CC1
accession=JP009939
date=2016.01.19 (Created 2008.10.21, modified 2011.05.06)
author=KURARAY CO., LTD.
license=CC BY-NC-SA
exact mass=284.17763
ionization energy=70 eV
ion type=[M]+*
computed spectral entropy=4.161318792133076
computed normalized entropy=0.8457997815169676
SPLASH=splash10-000i-2940000000-8e4e9967462b026af63e
submitter=submitter = University of Tokyo Team (Faculty of Engineering, University of Tokyo)
MoNA Rating=3.75

>  <NUM PEAKS>  (1483) 
137

>  <MASS SPECTRAL PEAKS>  (1483) 
27 2.9
28 0.9
29 3.9
39 0.43
41 10.9
53 5.4
55 11.5
65 0.43
67 9.3
69 1.9
77 9
78 0.39
79 12.9
80 2.2
81 8.5
82 0.19
83 3.6
85 2.3
91 17.4
92 0.39
93 9.8
94 3.1
95 7.6
96 0.31
97 9.8
98 2.3
103 3.1
104 0.23
105 18.6
106 6.2
107 31
108 0.62
109 7.8
110 4.2
111 2.2
115 0.74
116 3.1
117 8.7
118 4.2
119 0.82
120 3.3
121 11.5
122 7.1
123 0.62
124 12.9
125 2
127 2
128 0.64
129 7.8
130 2.8
131 12.6
132 0.62
133 7.8
134 5.9
135 4.7
136 99.99
137 13.6
141 3.9
142 3.1
143 0.7
144 4.7
145 8.4
146 4.7
147 0.76
148 12.1
149 38.8
150 8.2
151 0.22
153 2.2
155 4.7
156 2
157 0.7
158 4.2
159 6.7
160 6.2
161 0.7
162 7.8
163 3.6
167 1.1
169 0.34
170 2.6
171 7.9
172 4.5
173 0.5
174 3.4
175 2.8
181 2.2
182 0.16
183 4.7
184 3.9
185 7
186 0.36
187 3.1
188 3.1
195 3.1
196 0.17
197 3.3
198 3.3
199 6.4
200 0.31
201 3.9
207 1.9
209 4.7
210 0.19
211 3.1
212 2.8
213 5.7
214 0.26
215 2.2
222 2
223 2.6
224 0.19
225 1.9
226 1.6
227 11.6
228 0.45
229 2.8
233 1.7
240 25
241 0.91
242 6
243 1.7
244 8.7
245 0.17
251 6.8
255 1.4
256 4.2
257 0.14
266 9
267 2.8
269 8.1
270 0.19
284 65.1
285 16.3
286 14.4
287 0.29
288 2.6

$$$$

     RDKit          2D

 20 19  0  0  0  0  0  0  0  0999 V2000
    4.8714    8.8125    0.0000 C   0  0  0  0  0  0  0  0  0  0  0  0
  -14.6142    9.5625    0.0000 C   0  0  0  0  0  0  0  0  0  0  0  0
  -13.3151    7.3125    0.0000 C   0  0  0  0  0  0  0  0  0  0  0  0
    2.2733    7.3125    0.0000 C   0  0  0  0  0  0  0  0  0  0  0  0
   -8.1190    7.3125    0.0000 C   0  0  0  0  0  0  0  0  0  0  0  0
   -2.9228    7.3125    0.0000 C   0  0  0  0  0  0  0  0  0  0  0  0
    3.5724    9.5625    0.0000 C   0  0  0  0  0  0  0  0  0  0  0  0
  -10.7171    8.8125    0.0000 C   0  0  0  0  0  0  0  0  0  0  0  0
   -0.3248    8.8125    0.0000 C   0  0  0  0  0  0  0  0  0  0  0  0
   -5.5209    8.8125    0.0000 C   0  0  0  0  0  0  0  0  0  0  0  0
  -12.0161    9.5625    0.0000 C   0  0  0  0  0  0  0  0  0  0  0  0
    0.9743    9.5625    0.0000 C   0  0  0  0  0  0  0  0  0  0  0  0
   -9.4180    9.5625    0.0000 C   0  0  0  0  0  0  0  0  0  0  0  0
   -1.6238    9.5625    0.0000 C   0  0  0  0  0  0  0  0  0  0  0  0
   -6.8200    9.5625    0.0000 C   0  0  0  0  0  0  0  0  0  0  0  0
   -4.2219    9.5625    0.0000 C   0  0  0  0  0  0  0  0  0  0  0  0
  -13.3151    8.8125    0.0000 C   0  0  0  0  0  0  0  0  0  0  0  0
    2.2733    8.8125    0.0000 C   0  0  0  0  0  0  0  0  0  0  0  0
   -8.1190    8.8125    0.0000 C   0  0  0  0  0  0  0  0  0  0  0  0
   -2.9228    8.8125    0.0000 C   0  0  0  0  0  0  0  0  0  0  0  0
  7  1  2  0
 11  8  1  0
 12  9  1  0
 13  8  1  0
 14  9  1  0
 15 10  1  0
 16 10  1  0
 17  2  1  0
 17  3  1  0
 17 11  1  0
 18  4  2  0
 18  7  1  0
 18 12  1  0
 19  5  1  0
 19 13  1  0
 19 15  1  0
 20  6  1  0
 20 14  1  0
 20 16  1  0
M  END
>  <NAME>  (1484) 
3-METHYLENE-7,11,15-TRIMETHYL-1-HEXADECENE

>  <SYNONYMS>  (1484) 


>  <SPECTRUM TYPE>  (1484) 
MS1

>  <INSTRUMENT TYPE>  (1484) 
EI-B

>  <INSTRUMENT>  (1484) 
JEOL JMS-D-300

>  <ION MODE>  (1484) 
P

>  <INCHIKEY>  (1484) 
NIDGCIPAMWNKOA-UHFFFAOYSA-N

>  <FORMULA>  (1484) 
C20H38

>  <EXACT MASS>  (1484) 
278.297351216

>  <MW>  (1484) 
278

>  <ID>  (1484) 
JP009938

>  <CONTRIBUTOR>  (1484) 
University of Tokyo Team, {Faculty of Engineering, University of Tokyo

>  <COMMENT>  (1484) 
SMILES=C=CC(=C)CCCC(C)CCCC(C)CCCC(C)C
InChI=InChI=1S/C20H38/c1-7-18(4)12-9-14-20(6)16-10-15-19(5)13-8-11-17(2)3/h7,17,19-20H,1,4,8-16H2,2-3,5-6H3
computed SMILES=C=CC(=C)CCCC(C)CCCC(C)CCCC(C)C
accession=JP009938
date=2016.01.19 (Created 2008.10.21, modified 2011.05.06)
author=KURARAY CO., LTD.
license=CC BY-NC-SA
exact mass=278.29735
ionization energy=70 eV
ion type=[M]+*
computed spectral entropy=3.2607189577395594
computed normalized entropy=0.7701079210452485
SPLASH=splash10-067j-9100000000-01cb6473810e7e6605d7
submitter=submitter = University of Tokyo Team (Faculty of Engineering, University of Tokyo)
MoNA Rating=3.75

>  <NUM PEAKS>  (1484) 
69

>  <MASS SPECTRAL PEAKS>  (1484) 
27 4.9
28 0.9
29 11.9
39 0.43
40 0.7
41 37.4
42 5.1
43 5.44
44 1.9
53 7.3
54 1.7
55 4.9
56 16.5
57 69.7
58 2.7
65 0.17
66 1
67 28.7
68 99.99
69 5.87
70 13.4
71 38.1
72 1.7
77 0.17
79 7
80 2.7
81 40.5
82 7.99
83 49.7
84 5.6
85 13.8
91 0.05
93 2
94 8.2
95 72.4
96 2.72
97 35.4
98 3.2
99 1.9
107 0.05
108 0.5
109 22.1
110 10.7
111 2.01
112 2.6
113 1.2
122 0.5
123 4.85
124 23.3
125 8.8
126 3.2
127 0.15
137 10.2
138 5.1
139 1.9
140 0.07
151 2
152 1.9
153 1
165 0.07
179 3.1
193 2
194 1.2
205 0.27
208 2.2
249 1.4
263 1.4
278 0.54
279 0.9

$$$$

     RDKit          2D

 20 21  0  0  0  0  0  0  0  0999 V2000
    7.2525    5.4105    0.0000 C   0  0  0  0  0  0  0  0  0  0  0  0
   -3.7389    1.4102    0.0000 C   0  0  0  0  0  0  0  0  0  0  0  0
   -1.1400    2.9100    0.0000 C   0  0  0  0  0  0  0  0  0  0  0  0
   -1.1400   -3.0900    0.0000 C   0  0  0  0  0  0  0  0  0  0  0  0
    4.2372    0.3997    0.0000 C   0  0  0  0  0  0  0  0  0  0  0  0
    6.7398    4.0009    0.0000 C   0  0  0  0  0  0  0  0  0  0  0  0
    1.4600   -1.5900    0.0000 C   0  0  0  0  0  0  0  0  0  0  0  0
    2.7600   -0.8400    0.0000 C   0  0  0  0  0  0  0  0  0  0  0  0
    3.2727    2.0696    0.0000 C   0  0  0  0  0  0  0  0  0  0  0  0
    4.7499    2.3304    0.0000 C   0  0  0  0  0  0  0  0  0  0  0  0
   -2.4400    0.6600    0.0000 C   0  0  0  0  0  0  0  0  0  0  0  0
   -1.1400    1.4100    0.0000 C   0  0  0  0  0  0  0  0  0  0  0  0
   -1.1400   -1.5900    0.0000 C   0  0  0  0  0  0  0  0  0  0  0  0
    0.1600   -0.8400    0.0000 C   0  0  0  0  0  0  0  0  0  0  0  0
   -2.4400   -0.8400    0.0000 C   0  0  0  0  0  0  0  0  0  0  0  0
    0.1600    0.6600    0.0000 C   0  0  0  0  0  0  0  0  0  0  0  0
    2.7600    0.6600    0.0000 C   0  0  0  0  0  0  0  0  0  0  0  0
   -3.7389   -1.5902    0.0000 O   0  0  0  0  0  0  0  0  0  0  0  0
    5.2626    3.7401    0.0000 O   0  0  0  0  0  0  0  0  0  0  0  0
    1.4600    1.4100    0.0000 O   0  0  0  0  0  0  0  0  0  0  0  0
  6  1  1  0
  8  7  1  0
 10  9  1  0
 11  2  1  0
 12  3  1  0
 12 11  1  0
 13  4  1  0
 14  7  1  0
 14 13  2  0
 15 11  2  0
 15 13  1  0
 16 12  2  0
 16 14  1  0
 17  5  1  0
 17  8  1  0
 17  9  1  0
 18 15  1  0
 19  6  1  0
 19 10  1  0
 20 16  1  0
 20 17  1  0
M  END
>  <NAME>  (1485) 
2-(2-ETHOXYETHYL)-3,4-DIHYDRO-6-HYDROXY-2,5,7,8-TETRAMETHYL-2H-1-BENZOPYRAN

>  <SYNONYMS>  (1485) 


>  <SPECTRUM TYPE>  (1485) 
MS1

>  <INSTRUMENT TYPE>  (1485) 
EI-B

>  <INSTRUMENT>  (1485) 
JEOL JMS-D-300

>  <ION MODE>  (1485) 
P

>  <INCHIKEY>  (1485) 
CIVPYQYYCUJIJT-UHFFFAOYSA-N

>  <FORMULA>  (1485) 
C17H26O3

>  <EXACT MASS>  (1485) 
278.18819469199997

>  <MW>  (1485) 
278

>  <ID>  (1485) 
JP009937

>  <CONTRIBUTOR>  (1485) 
University of Tokyo Team, {Faculty of Engineering, University of Tokyo

>  <COMMENT>  (1485) 
SMILES=CCOCCC(C)(C2)Oc(c(C)1)c(C2)c(C)c(O)c(C)1
InChI=InChI=1S/C17H26O3/c1-6-19-10-9-17(5)8-7-14-13(4)15(18)11(2)12(3)16(14)20-17/h18H,6-10H2,1-5H3
computed SMILES=OC=1C(=C(C=2OC(C)(CCOCC)CCC2C1C)C)C
accession=JP009937
date=2016.01.19 (Created 2008.10.21, modified 2011.05.06)
author=KURARAY CO., LTD.
license=CC BY-NC-SA
exact mass=278.18819
ionization energy=70 eV
ion type=[M]+*
computed spectral entropy=2.2103021340179665
computed normalized entropy=0.6866689658985118
SPLASH=splash10-03xr-0910000000-b301e58d0ceaa4454672
submitter=submitter = University of Tokyo Team (Faculty of Engineering, University of Tokyo)
MoNA Rating=3.75

>  <NUM PEAKS>  (1485) 
25

>  <MASS SPECTRAL PEAKS>  (1485) 
43 4.7
53 2.8
55 2.8
77 0.52
91 4.7
105 5.8
121 7.7
122 0.52
135 3.1
136 8.6
137 2.5
164 99.99
165 71.3
166 7.3
175 2.8
177 0.84
189 5.5
190 1.9
203 11.9
204 0.33
205 4.7
217 4.7
232 10.2
278 5.47
279 10.2

$$$$

     RDKit          2D

 20 21  0  0  0  0  0  0  0  0999 V2000
   -3.8989    1.5002    0.0000 C   0  0  0  0  0  0  0  0  0  0  0  0
   -1.3000   -3.0000    0.0000 C   0  0  0  0  0  0  0  0  0  0  0  0
    7.0925    5.5005    0.0000 C   0  0  0  0  0  0  0  0  0  0  0  0
    4.0772    0.4897    0.0000 C   0  0  0  0  0  0  0  0  0  0  0  0
    1.3000   -1.5000    0.0000 C   0  0  0  0  0  0  0  0  0  0  0  0
    2.6000   -0.7500    0.0000 C   0  0  0  0  0  0  0  0  0  0  0  0
    3.1127    2.1596    0.0000 C   0  0  0  0  0  0  0  0  0  0  0  0
    4.5899    2.4204    0.0000 C   0  0  0  0  0  0  0  0  0  0  0  0
   -1.3000    1.5000    0.0000 C   0  0  0  0  0  0  0  0  0  0  0  0
   -2.6000    0.7500    0.0000 C   0  0  0  0  0  0  0  0  0  0  0  0
   -1.3000   -1.5000    0.0000 C   0  0  0  0  0  0  0  0  0  0  0  0
    6.5798    4.0909    0.0000 C   0  0  0  0  0  0  0  0  0  0  0  0
    0.0000   -0.7500    0.0000 C   0  0  0  0  0  0  0  0  0  0  0  0
    0.0000    0.7500    0.0000 C   0  0  0  0  0  0  0  0  0  0  0  0
   -2.6000   -0.7500    0.0000 C   0  0  0  0  0  0  0  0  0  0  0  0
    2.6000    0.7500    0.0000 C   0  0  0  0  0  0  0  0  0  0  0  0
    7.5442    2.9420    0.0000 O   0  0  0  0  0  0  0  0  0  0  0  0
   -3.8989   -1.5002    0.0000 O   0  0  0  0  0  0  0  0  0  0  0  0
    5.1026    3.8301    0.0000 O   0  0  0  0  0  0  0  0  0  0  0  0
    1.3000    1.5000    0.0000 O   0  0  0  0  0  0  0  0  0  0  0  0
  6  5  1  0
  8  7  1  0
 10  1  1  0
 10  9  1  0
 11  2  1  0
 12  3  1  0
 13  5  1  0
 13 11  2  0
 14  9  2  0
 14 13  1  0
 15 10  2  0
 15 11  1  0
 16  4  1  0
 16  6  1  0
 16  7  1  0
 17 12  2  0
 18 15  1  0
 19  8  1  0
 19 12  1  0
 20 14  1  0
 20 16  1  0
M  END
>  <NAME>  (1486) 
2-(2-ACETOXYETHYL)-3,4-DIHYDRO-6-HYDROXY-2,5,7-TRIMETHYL-2H-1-BENZOPYRAN

>  <SYNONYMS>  (1486) 


>  <SPECTRUM TYPE>  (1486) 
MS1

>  <INSTRUMENT TYPE>  (1486) 
EI-B

>  <INSTRUMENT>  (1486) 
JEOL JMS-D-300

>  <ION MODE>  (1486) 
P

>  <INCHIKEY>  (1486) 
FMRLOVBRAMDRIK-UHFFFAOYSA-N

>  <FORMULA>  (1486) 
C16H22O4

>  <EXACT MASS>  (1486) 
278.151809184

>  <MW>  (1486) 
278

>  <ID>  (1486) 
JP009936

>  <CONTRIBUTOR>  (1486) 
University of Tokyo Team, {Faculty of Engineering, University of Tokyo

>  <COMMENT>  (1486) 
InChI=InChI=1S/C16H22O4/c1-10-9-14-13(11(2)15(10)18)5-6-16(4,20-14)7-8-19-12(3)17/h9,18H,5-8H2,1-4H3
SMILES=CC(=O)OCCC(C)(C2)Oc(c1)c(C2)c(C)c(O)c(C)1
computed SMILES=O=C(OCCC1(OC=2C=C(C(O)=C(C2CC1)C)C)C)C
accession=JP009936
computed spectral entropy=2.9926983797600815
computed normalized entropy=0.7020696993641672
date=2016.01.19 (Created 2008.10.21, modified 2011.05.06)
author=KURARAY CO., LTD.
license=CC BY-NC-SA
exact mass=278.15181
ionization energy=70 eV
ion type=[M]+*
SPLASH=splash10-0ufr-2940000000-638026b1ca89a979aca7
submitter=submitter = University of Tokyo Team (Faculty of Engineering, University of Tokyo)
MoNA Rating=3.75

>  <NUM PEAKS>  (1486) 
71

>  <MASS SPECTRAL PEAKS>  (1486) 
27 1.6
29 1.4
39 3
41 0.61
43 29.5
53 3.4
55 4.7
65 0.16
67 3.3
68 0.8
69 5
77 0.5
78 0.8
79 3.9
81 2.7
85 0.3
91 6.1
93 2
94 1.3
95 0.11
103 1.1
105 1.7
107 6.9
108 0.13
109 0.6
115 1.3
119 1.3
121 0.45
122 10.9
123 2.7
131 0.8
133 0.09
135 3.8
137 1.1
138 2
145 0.13
146 0.8
147 1.4
148 1.3
149 0.17
150 77.3
151 99.99
152 9.8
161 0.36
162 5
163 16.9
164 2.3
173 0.14
174 1.6
175 14.7
176 4.4
177 0.17
188 1.7
189 28.1
190 10.3
191 1.02
192 0.6
201 5.5
202 1.6
203 1.92
204 2.8
205 0.5
206 1.1
217 0.3
218 42
219 6.3
220 0.5
236 0.34
278 64.1
279 10.9
280 1.6

$$$$

     RDKit          2D

 20 20  0  0  0  0  0  0  0  0999 V2000
    4.6268   -2.6706    0.0000 C   0  0  0  0  0  0  0  0  0  0  0  0
   11.1223   -0.4217    0.0000 C   0  0  0  0  0  0  0  0  0  0  0  0
    2.0304    3.3192    0.0000 C   0  0  0  0  0  0  0  0  0  0  0  0
   -1.8707   -3.4190    0.0000 C   0  0  0  0  0  0  0  0  0  0  0  0
   -1.9000    1.1000    0.0000 C   0  0  0  0  0  0  0  0  0  0  0  0
   -0.6000    1.8400    0.0000 C   0  0  0  0  0  0  0  0  0  0  0  0
   -1.9000   -0.4000    0.0000 C   0  0  0  0  0  0  0  0  0  0  0  0
    3.3281   -0.4204    0.0000 C   0  0  0  0  0  0  0  0  0  0  0  0
    2.0289   -1.1702    0.0000 C   0  0  0  0  0  0  0  0  0  0  0  0
    5.9262   -0.4208    0.0000 C   0  0  0  0  0  0  0  0  0  0  0  0
    7.2251   -1.1710    0.0000 C   0  0  0  0  0  0  0  0  0  0  0  0
    4.6270   -1.1706    0.0000 C   0  0  0  0  0  0  0  0  0  0  0  0
    9.8231   -1.1715    0.0000 C   0  0  0  0  0  0  0  0  0  0  0  0
    0.7300   -0.4200    0.0000 C   0  0  0  0  0  0  0  0  0  0  0  0
    0.7300    1.0700    0.0000 C   0  0  0  0  0  0  0  0  0  0  0  0
   -0.5700   -1.1700    0.0000 C   0  0  0  0  0  0  0  0  0  0  0  0
    9.8229   -2.6715    0.0000 O   0  0  0  0  0  0  0  0  0  0  0  0
    2.0295    1.8192    0.0000 O   0  0  0  0  0  0  0  0  0  0  0  0
   -0.5711   -2.6700    0.0000 O   0  0  0  0  0  0  0  0  0  0  0  0
    8.5242   -0.4212    0.0000 O   0  0  0  0  0  0  0  0  0  0  0  0
  6  5  2  0
  7  5  1  0
  9  8  1  0
 11 10  1  0
 12  1  1  0
  8 12  2  0
 12 10  1  0
 13  2  1  0
 14  9  1  0
 15  6  1  0
 15 14  2  0
 16  7  2  0
 16 14  1  0
 17 13  2  0
 18  3  1  0
 18 15  1  0
 19  4  1  0
 19 16  1  0
 20 11  1  0
 20 13  1  0
M  END
>  <NAME>  (1487) 
5-ACETOXY-1-(2,6-DIMETOXYPHENYL)-3-METHYL-2-PENTENE

>  <SYNONYMS>  (1487) 


>  <SPECTRUM TYPE>  (1487) 
MS1

>  <INSTRUMENT TYPE>  (1487) 
EI-B

>  <INSTRUMENT>  (1487) 
JEOL JMS-D-300

>  <ION MODE>  (1487) 
P

>  <INCHIKEY>  (1487) 
GLVUXJCZSHESLV-XYOKQWHBSA-N

>  <FORMULA>  (1487) 
C16H22O4

>  <EXACT MASS>  (1487) 
278.151809184

>  <MW>  (1487) 
278

>  <ID>  (1487) 
JP009935

>  <CONTRIBUTOR>  (1487) 
University of Tokyo Team, {Faculty of Engineering, University of Tokyo

>  <COMMENT>  (1487) 
SMILES=CC(=O)OCCC(C)=CCc(c(OC)1)c(OC)ccc1
InChI=InChI=1S/C16H22O4/c1-12(10-11-20-13(2)17)8-9-14-15(18-3)6-5-7-16(14)19-4/h5-8H,9-11H2,1-4H3/b12-8+
computed SMILES=O=C(OCCC(=CCC=1C(OC)=CC=CC1OC)C)C
author=KURARAY CO., LTD.
accession=JP009935
date=2016.01.19 (Created 2008.10.21, modified 2011.05.06)
license=CC BY-NC-SA
exact mass=278.15181
ionization energy=70 eV
ion type=[M]+*
computed spectral entropy=3.7509811553527963
computed normalized entropy=0.7808003171562021
SPLASH=splash10-0udl-2930000000-aa73161aa7eb00757946
submitter=submitter = University of Tokyo Team (Faculty of Engineering, University of Tokyo)
MoNA Rating=3.75

>  <NUM PEAKS>  (1487) 
122

>  <MASS SPECTRAL PEAKS>  (1487) 
27 3.3
29 1.3
39 4.2
41 0.61
42 0.5
43 51.3
51 3.1
52 0.08
53 3.9
55 7.8
56 0.3
57 0.22
59 0.2
63 0.9
65 4.4
66 0.06
67 4.7
68 0.2
69 2.3
75 0.03
76 1.3
77 10.9
78 3.8
79 0.8
80 1.6
81 3.4
82 0.2
87 0.34
88 0.8
89 2.8
90 1.3
91 2.48
92 3.6
93 3.9
94 1.7
95 0.19
96 0.3
97 0.8
101 1.6
102 0.17
103 5.6
104 1.6
105 8
106 0.2
107 6
108 1.9
109 2
115 0.13
116 3.6
117 3.4
118 2
119 0.19
120 1.4
121 29.5
122 3.4
123 0.34
124 1.6
125 1.4
127 4.5
128 0.77
129 4.1
130 1.4
131 7.7
132 0.23
133 4.1
134 8
135 9.5
136 0.23
137 16.1
138 12.5
139 3.3
140 0.03
141 2
142 0.9
143 1.7
144 0.33
145 6.1
146 3.9
147 7.2
148 0.41
149 48.4
150 5.5
151 34.4
152 0.55
153 1.1
155 1.4
156 0.3
157 0.14
158 3.3
159 6.9
160 13.3
161 3
162 12.3
163 16.4
164 2.5
165 0.53
171 2.8
172 11.7
173 4.7
174 0.28
175 12.3
176 10.8
177 7.2
178 0.13
186 1.9
187 65.2
188 14.8
189 0.98
190 3.1
191 53.3
192 15
193 0.25
203 99.99
204 16.4
205 3
217 0.38
218 51.1
219 16.1
220 0.5
260 0.17
278 6.3
279 0.8

$$$$

     RDKit          2D

 19 20  0  0  0  0  0  0  0  0999 V2000
    2.2289   -1.7100    0.0000 C   0  0  0  0  0  0  0  0  0  0  0  0
    0.5941    2.4394    0.0000 C   0  0  0  0  0  0  0  0  0  0  0  0
   -1.3341    2.4394    0.0000 C   0  0  0  0  0  0  0  0  0  0  0  0
    7.4270    2.7908    0.0000 C   0  0  0  0  0  0  0  0  0  0  0  0
    6.1270    3.5408    0.0000 C   0  0  0  0  0  0  0  0  0  0  0  0
    7.4270    1.2908    0.0000 C   0  0  0  0  0  0  0  0  0  0  0  0
   -1.6700   -0.9598    0.0000 C   0  0  0  0  0  0  0  0  0  0  0  0
   -0.3700   -1.7098    0.0000 C   0  0  0  0  0  0  0  0  0  0  0  0
    4.8270    2.7908    0.0000 C   0  0  0  0  0  0  0  0  0  0  0  0
    6.1270    0.5408    0.0000 C   0  0  0  0  0  0  0  0  0  0  0  0
   -1.6700    0.5402    0.0000 C   0  0  0  0  0  0  0  0  0  0  0  0
    2.2289    1.2904    0.0000 C   0  0  0  0  0  0  0  0  0  0  0  0
    0.9300   -0.9598    0.0000 C   0  0  0  0  0  0  0  0  0  0  0  0
    4.8270    1.2908    0.0000 C   0  0  0  0  0  0  0  0  0  0  0  0
    0.9300    0.5402    0.0000 C   0  0  0  0  0  0  0  0  0  0  0  0
   -0.3700    1.2902    0.0000 C   0  0  0  0  0  0  0  0  0  0  0  0
    2.5641   -0.6086    0.0000 O   0  0  0  0  0  0  0  0  0  0  0  0
    4.4924   -0.6083    0.0000 O   0  0  0  0  0  0  0  0  0  0  0  0
    3.5281    0.5406    0.0000 S   0  0  0  0  0  0  0  0  0  0  0  0
  5  4  2  0
  6  4  1  0
  8  7  1  0
  9  5  1  0
 10  6  2  0
 11  7  1  0
 13  1  1  0
 13  8  1  0
 14  9  2  0
 14 10  1  0
 15 12  1  0
 15 13  2  0
 16  2  1  0
 16  3  1  0
 16 11  1  0
 16 15  1  0
 19 12  1  0
 19 14  1  0
 19 17  2  0
 19 18  2  0
M  END
>  <NAME>  (1488) 
1-PHENYLSULFONYLMETHYL-2,6,6-TRIMETHYLCYCLOHEXENE

>  <SYNONYMS>  (1488) 


>  <SPECTRUM TYPE>  (1488) 
MS1

>  <INSTRUMENT TYPE>  (1488) 
EI-B

>  <INSTRUMENT>  (1488) 
JEOL JMS-D-300

>  <ION MODE>  (1488) 
P

>  <INCHIKEY>  (1488) 
WQRHISGXRFLGKQ-UHFFFAOYSA-N

>  <FORMULA>  (1488) 
C16H22O2S

>  <EXACT MASS>  (1488) 
278.134050944

>  <MW>  (1488) 
278

>  <ID>  (1488) 
JP009934

>  <CONTRIBUTOR>  (1488) 
University of Tokyo Team, {Faculty of Engineering, University of Tokyo

>  <COMMENT>  (1488) 
SMILES=CC(C1)=C(CS(=O)(=O)c(c2)cccc2)C(C)(C)CC1
InChI=InChI=1S/C16H22O2S/c1-13-8-7-11-16(2,3)15(13)12-19(17,18)14-9-5-4-6-10-14/h4-6,9-10H,7-8,11-12H2,1-3H3
computed SMILES=O=S(=O)(C=1C=CC=CC1)CC2=C(C)CCCC2(C)C
accession=JP009934
date=2016.01.19 (Created 2008.10.21, modified 2011.05.06)
author=KURARAY CO., LTD.
license=CC BY-NC-SA
exact mass=278.13405
ionization energy=70 eV
ion type=[M]+*
computed spectral entropy=2.076065170028827
computed normalized entropy=0.5793370164030052
SPLASH=splash10-000i-4900000000-59988b520f7fbd1f52ef
submitter=submitter = University of Tokyo Team (Faculty of Engineering, University of Tokyo)
MoNA Rating=3.75

>  <NUM PEAKS>  (1488) 
36

>  <MASS SPECTRAL PEAKS>  (1488) 
27 0.9
29 1.3
39 1.9
41 1.03
43 3.1
51 2.3
53 2.8
55 0.63
57 3.9
65 1.3
67 5.6
69 0.89
77 7.8
78 1.6
79 5
81 2.17
91 3.9
93 6.3
94 0.8
95 3.13
96 2
107 4.4
109 2.3
121 0.78
122 1.7
136 5.6
137 99.99
138 1.13
141 0.4
142 0.1
143 1.2
144 0.02
145 0.1
149 0.2
278 1.1
279 0.2

$$$$

     RDKit          2D

 19 19  0  0  0  0  0  0  0  0999 V2000
   12.6212    1.2919    0.0000 C   0  0  0  0  0  0  0  0  0  0  0  0
   11.3225   -0.9583    0.0000 C   0  0  0  0  0  0  0  0  0  0  0  0
    6.1264   -0.9592    0.0000 C   0  0  0  0  0  0  0  0  0  0  0  0
   -1.6700   -0.9600    0.0000 C   0  0  0  0  0  0  0  0  0  0  0  0
   -0.3700   -1.7100    0.0000 C   0  0  0  0  0  0  0  0  0  0  0  0
   -1.6700    0.5400    0.0000 C   0  0  0  0  0  0  0  0  0  0  0  0
    8.7242    0.5412    0.0000 C   0  0  0  0  0  0  0  0  0  0  0  0
   10.0231    1.2915    0.0000 C   0  0  0  0  0  0  0  0  0  0  0  0
    7.4251    1.2910    0.0000 C   0  0  0  0  0  0  0  0  0  0  0  0
    0.9300   -0.9600    0.0000 C   0  0  0  0  0  0  0  0  0  0  0  0
   -0.3700    1.2900    0.0000 C   0  0  0  0  0  0  0  0  0  0  0  0
    4.8270    1.2906    0.0000 C   0  0  0  0  0  0  0  0  0  0  0  0
    3.5281    0.5404    0.0000 C   0  0  0  0  0  0  0  0  0  0  0  0
   11.3223    0.5417    0.0000 C   0  0  0  0  0  0  0  0  0  0  0  0
    6.1262    0.5408    0.0000 C   0  0  0  0  0  0  0  0  0  0  0  0
    0.9300    0.5400    0.0000 C   0  0  0  0  0  0  0  0  0  0  0  0
    3.1929    2.4394    0.0000 O   0  0  0  0  0  0  0  0  0  0  0  0
    1.2646    2.4391    0.0000 O   0  0  0  0  0  0  0  0  0  0  0  0
    2.2289    1.2902    0.0000 S   0  0  0  0  0  0  0  0  0  0  0  0
  5  4  2  0
  6  4  1  0
  8  7  1  0
  9  7  1  0
 10  5  1  0
 11  6  2  0
 13 12  1  0
 14  1  1  0
 14  2  1  0
 14  8  2  0
 15  3  1  0
 15  9  1  0
 12 15  2  0
 16 10  2  0
 16 11  1  0
 19 13  1  0
 19 16  1  0
 19 17  2  0
 19 18  2  0
M  END
>  <NAME>  (1489) 
3,7-DIMETHYL-1-PHENYLSULFONYL-2,6-OCTADIENE

>  <SYNONYMS>  (1489) 


>  <SPECTRUM TYPE>  (1489) 
MS1

>  <INSTRUMENT TYPE>  (1489) 
EI-B

>  <INSTRUMENT>  (1489) 
JEOL JMS-D-300

>  <ION MODE>  (1489) 
P

>  <INCHIKEY>  (1489) 
IULKHBFGJTXXCU-NTCAYCPXSA-N

>  <FORMULA>  (1489) 
C16H22O2S

>  <EXACT MASS>  (1489) 
278.134050944

>  <MW>  (1489) 
278

>  <ID>  (1489) 
JP009933

>  <CONTRIBUTOR>  (1489) 
University of Tokyo Team, {Faculty of Engineering, University of Tokyo

>  <COMMENT>  (1489) 
SMILES=CC(C)=CCCC(C)=CCS(=O)(=O)c(c1)cccc1
InChI=InChI=1S/C16H22O2S/c1-14(2)8-7-9-15(3)12-13-19(17,18)16-10-5-4-6-11-16/h4-6,8,10-12H,7,9,13H2,1-3H3/b15-12+
computed SMILES=O=S(=O)(C=1C=CC=CC1)CC=C(C)CCC=C(C)C
accession=JP009933
date=2016.01.19 (Created 2008.10.21, modified 2011.05.06)
author=KURARAY CO., LTD.
license=CC BY-NC-SA
exact mass=278.13405
ionization energy=70 eV
ion type=[M]+*
computed spectral entropy=2.341681744505326
computed normalized entropy=0.6819133575823594
SPLASH=splash10-014i-9100000000-85a065e92255986f6394
submitter=submitter = University of Tokyo Team (Faculty of Engineering, University of Tokyo)
MoNA Rating=3.75

>  <NUM PEAKS>  (1489) 
31

>  <MASS SPECTRAL PEAKS>  (1489) 
27 2.3
29 1.6
39 3.1
41 1.53
43 3
51 3.4
53 5
55 0.5
67 7.2
68 14.1
69 99.99
70 0.47
77 11.3
78 2.3
79 1.9
80 0.66
81 56.7
82 3.4
91 1.6
92 0.23
93 15.2
94 1.9
95 9.2
107 0.13
121 4.7
136 12.3
137 27.8
138 0.3
143 4.7
209 0.3
210 0.5

$$$$

     RDKit          2D

 20 22  0  0  0  0  0  0  0  0999 V2000
   -1.3000    0.7500    0.0000 C   0  0  0  0  0  0  0  0  0  0  0  0
    6.4971    0.7512    0.0000 C   0  0  0  0  0  0  0  0  0  0  0  0
   -0.2941   -4.9491    0.0000 C   0  0  0  0  0  0  0  0  0  0  0  0
    0.0000    1.5000    0.0000 C   0  0  0  0  0  0  0  0  0  0  0  0
   -1.3000   -0.7500    0.0000 C   0  0  0  0  0  0  0  0  0  0  0  0
    6.4966   -0.7496    0.0000 C   0  0  0  0  0  0  0  0  0  0  0  0
    5.1981    1.5012    0.0000 C   0  0  0  0  0  0  0  0  0  0  0  0
   -0.8070   -3.5387    0.0000 C   0  0  0  0  0  0  0  0  0  0  0  0
    1.1831   -5.2096    0.0000 C   0  0  0  0  0  0  0  0  0  0  0  0
    1.3000    0.7500    0.0000 C   0  0  0  0  0  0  0  0  0  0  0  0
    0.0000   -1.5000    0.0000 C   0  0  0  0  0  0  0  0  0  0  0  0
    5.1971   -1.5004    0.0000 C   0  0  0  0  0  0  0  0  0  0  0  0
    3.8986    0.7504    0.0000 C   0  0  0  0  0  0  0  0  0  0  0  0
    0.1573   -2.3886    0.0000 C   0  0  0  0  0  0  0  0  0  0  0  0
    2.1474   -4.0596    0.0000 C   0  0  0  0  0  0  0  0  0  0  0  0
    1.3000   -0.7500    0.0000 C   0  0  0  0  0  0  0  0  0  0  0  0
    3.8981   -0.7504    0.0000 C   0  0  0  0  0  0  0  0  0  0  0  0
    1.6346   -2.6491    0.0000 C   0  0  0  0  0  0  0  0  0  0  0  0
    3.5629   -2.6494    0.0000 O   0  0  0  0  0  0  0  0  0  0  0  0
    2.5989   -1.5002    0.0000 P   0  0  0  0  0  0  0  0  0  0  0  0
  4  1  2  0
  5  1  1  0
  6  2  2  0
  7  2  1  0
  8  3  2  0
  9  3  1  0
 10  4  1  0
 11  5  2  0
 12  6  1  0
 13  7  2  0
 14  8  1  0
 15  9  2  0
 16 10  2  0
 16 11  1  0
 17 12  2  0
 17 13  1  0
 18 14  2  0
 18 15  1  0
 20 16  1  0
 20 17  1  0
 20 18  1  0
 20 19  2  0
M  END
>  <NAME>  (1490) 
TRIPHENYLPHOSPHINE OXIDE

>  <SYNONYMS>  (1490) 


>  <SPECTRUM TYPE>  (1490) 
MS1

>  <INSTRUMENT TYPE>  (1490) 
EI-B

>  <INSTRUMENT>  (1490) 
JEOL JMS-D-300

>  <ION MODE>  (1490) 
P

>  <INCHIKEY>  (1490) 
FIQMHBFVRAXMOP-UHFFFAOYSA-N

>  <FORMULA>  (1490) 
C18H15OP

>  <EXACT MASS>  (1490) 
278.08605173

>  <MW>  (1490) 
278

>  <ID>  (1490) 
JP009932

>  <CONTRIBUTOR>  (1490) 
University of Tokyo Team, {Faculty of Engineering, University of Tokyo

>  <COMMENT>  (1490) 
SMILES=c(c3)ccc(c3)P(=O)(c(c2)cccc2)c(c1)cccc1
InChI=InChI=1S/C18H15OP/c19-20(16-10-4-1-5-11-16,17-12-6-2-7-13-17)18-14-8-3-9-15-18/h1-15H
computed SMILES=O=P(C=1C=CC=CC1)(C=2C=CC=CC2)C=3C=CC=CC3
accession=JP009932
date=2016.01.19 (Created 2008.10.21, modified 2011.05.06)
author=KURARAY CO., LTD.
license=CC BY-NC-SA
exact mass=278.08605
ionization energy=70 eV
ion type=[M]+*
computed spectral entropy=2.039103130915421
computed normalized entropy=0.6334830052038164
SPLASH=splash10-004i-1290000000-6c346115fe6ef033ad3e
submitter=submitter = University of Tokyo Team (Faculty of Engineering, University of Tokyo)
MoNA Rating=3.75

>  <NUM PEAKS>  (1490) 
25

>  <MASS SPECTRAL PEAKS>  (1490) 
28 13.4
32 3
39 0.9
40 0.03
47 3.4
50 1.3
51 7.5
77 0.28
78 1.9
95 1.3
107 15.6
115 0.13
127 0.9
133 1.4
151 1.1
152 0.59
153 3.4
154 3.6
170 1.6
183 0.28
185 8.1
199 12.3
201 16.7
277 99.99
278 56.7

$$$$

     RDKit          2D

 20 20  0  0  0  0  0  0  0  0999 V2000
   -5.1959    4.8196    0.0000 C   0  0  0  0  0  0  0  0  0  0  0  0
  -11.6911    7.0696    0.0000 C   0  0  0  0  0  0  0  0  0  0  0  0
    5.1964    4.8196    0.0000 C   0  0  0  0  0  0  0  0  0  0  0  0
    5.1969    6.3204    0.0000 C   0  0  0  0  0  0  0  0  0  0  0  0
    3.8969    4.0688    0.0000 C   0  0  0  0  0  0  0  0  0  0  0  0
    3.8978    7.0704    0.0000 C   0  0  0  0  0  0  0  0  0  0  0  0
    2.5978    4.8188    0.0000 C   0  0  0  0  0  0  0  0  0  0  0  0
   -3.8969    7.0696    0.0000 C   0  0  0  0  0  0  0  0  0  0  0  0
   -2.5978    6.3196    0.0000 C   0  0  0  0  0  0  0  0  0  0  0  0
   -6.4949    7.0696    0.0000 C   0  0  0  0  0  0  0  0  0  0  0  0
   -7.7940    6.3196    0.0000 C   0  0  0  0  0  0  0  0  0  0  0  0
    1.2993    7.0696    0.0000 C   0  0  0  0  0  0  0  0  0  0  0  0
   -5.1959    6.3196    0.0000 C   0  0  0  0  0  0  0  0  0  0  0  0
  -10.3921    6.3196    0.0000 C   0  0  0  0  0  0  0  0  0  0  0  0
    2.5983    6.3196    0.0000 C   0  0  0  0  0  0  0  0  0  0  0  0
   -1.2988    7.0696    0.0000 C   0  0  0  0  0  0  0  0  0  0  0  0
  -10.3921    4.8196    0.0000 O   0  0  0  0  0  0  0  0  0  0  0  0
   -1.2988    8.5696    0.0000 O   0  0  0  0  0  0  0  0  0  0  0  0
   -9.0930    7.0696    0.0000 O   0  0  0  0  0  0  0  0  0  0  0  0
    0.0002    6.3196    0.0000 O   0  0  0  0  0  0  0  0  0  0  0  0
  4  3  2  0
  5  3  1  0
  6  4  1  0
  7  5  2  0
  9  8  1  0
 11 10  1  0
 13  1  1  0
 13  8  1  0
 10 13  2  0
 14  2  1  0
 15  6  2  0
 15  7  1  0
 15 12  1  0
 16  9  1  0
 17 14  2  0
 18 16  2  0
 19 11  1  0
 19 14  1  0
 20 12  1  0
 20 16  1  0
M  END
>  <NAME>  (1491) 
BENZYL 6-ACETOXY-4-METHYL-4-HEXENOATE

>  <SYNONYMS>  (1491) 


>  <SPECTRUM TYPE>  (1491) 
MS1

>  <INSTRUMENT TYPE>  (1491) 
EI-B

>  <INSTRUMENT>  (1491) 
JEOL JMS-D-300

>  <ION MODE>  (1491) 
P

>  <INCHIKEY>  (1491) 
GBALUYBVKIVYMM-JLHYYAGUSA-N

>  <FORMULA>  (1491) 
C16H20O4

>  <EXACT MASS>  (1491) 
276.13615912

>  <MW>  (1491) 
276

>  <ID>  (1491) 
JP009931

>  <CONTRIBUTOR>  (1491) 
University of Tokyo Team, {Faculty of Engineering, University of Tokyo

>  <COMMENT>  (1491) 
SMILES=CC(=O)OCC=C(C)CCC(=O)OCc(c1)cccc1
InChI=InChI=1S/C16H20O4/c1-13(10-11-19-14(2)17)8-9-16(18)20-12-15-6-4-3-5-7-15/h3-7,10H,8-9,11-12H2,1-2H3/b13-10+
computed SMILES=O=C(OCC=C(C)CCC(=O)OCC=1C=CC=CC1)C
accession=JP009931
date=2016.01.19 (Created 2008.10.21, modified 2011.05.06)
author=KURARAY CO., LTD.
license=CC BY-NC-SA
exact mass=276.13616
ionization energy=70 eV
ion type=[M]+*
computed spectral entropy=2.178287862868178
computed normalized entropy=0.5865748189993651
SPLASH=splash10-0006-9400000000-a149a6a1281e403ba7b1
submitter=submitter = University of Tokyo Team (Faculty of Engineering, University of Tokyo)
MoNA Rating=3.75

>  <NUM PEAKS>  (1491) 
41

>  <MASS SPECTRAL PEAKS>  (1491) 
39 1.6
41 3.1
43 18.4
51 0.03
53 1.1
55 0.8
63 0.2
65 0.45
67 1.9
68 4.7
69 2.2
71 0.02
77 1.9
79 2.8
80 0.2
81 0.83
82 1.9
83 1.6
84 1.7
89 0.03
90 1.1
91 99.99
92 9.5
97 0.23
98 0.3
104 0.6
105 1.9
107 0.16
108 2
109 0.2
110 6.7
111 0.05
125 43.3
126 4.7
143 11.3
144 0.03
156 6.3
157 1.4
185 0.6
216 0.45
217 0.3

$$$$

     RDKit          2D

 17 18  0  0  0  0  0  0  0  0999 V2000
    3.5481    1.6155    0.0000 C   0  0  0  0  0  0  0  0  0  0  0  0
    4.2981    2.9145    0.0000 C   0  0  0  0  0  0  0  0  0  0  0  0
    2.0797    1.9321    0.0000 C   0  0  0  0  0  0  0  0  0  0  0  0
    3.2897    4.0279    0.0000 C   0  0  0  0  0  0  0  0  0  0  0  0
   -4.5731    4.1692    0.0000 C   0  0  0  0  0  0  0  0  0  0  0  0
   -1.9741    5.6708    0.0000 C   0  0  0  0  0  0  0  0  0  0  0  0
   -4.5726    5.6700    0.0000 C   0  0  0  0  0  0  0  0  0  0  0  0
   -3.2741    3.4192    0.0000 C   0  0  0  0  0  0  0  0  0  0  0  0
   -3.2731    6.4208    0.0000 C   0  0  0  0  0  0  0  0  0  0  0  0
   -1.9745    4.1700    0.0000 C   0  0  0  0  0  0  0  0  0  0  0  0
    0.6235    4.1700    0.0000 C   0  0  0  0  0  0  0  0  0  0  0  0
   -5.8717    6.4200    0.0000 Cl  0  0  0  0  0  0  0  0  0  0  0  0
   -3.2738    1.9192    0.0000 Cl  0  0  0  0  0  0  0  0  0  0  0  0
    1.9226    3.4200    0.0000 N   0  0  0  0  0  0  0  0  0  0  0  0
   -3.2733    7.9208    0.0000 O   0  0  0  0  0  0  0  0  0  0  0  0
    0.6235    5.6700    0.0000 O   0  0  0  0  0  0  0  0  0  0  0  0
   -0.6755    3.4200    0.0000 O   0  0  0  0  0  0  0  0  0  0  0  0
  2  1  1  0
  3  1  1  0
  4  2  1  0
  7  5  2  0
  8  5  1  0
  9  6  2  0
  9  7  1  0
 10  6  1  0
 10  8  2  0
 12  7  1  0
 13  8  1  0
 14  3  1  0
 14  4  1  0
 14 11  1  0
 15  9  1  0
 16 11  2  0
 17 10  1  0
 17 11  1  0
M  END
>  <NAME>  (1492) 
N-(2,4-DICHLORO-5-HYDROXYPHENOXYCARBONYL)TETRAHYDROPYRROLE

>  <SYNONYMS>  (1492) 


>  <SPECTRUM TYPE>  (1492) 
MS1

>  <INSTRUMENT TYPE>  (1492) 
EI-B

>  <INSTRUMENT>  (1492) 
JEOL JMS-D-300

>  <ION MODE>  (1492) 
P

>  <INCHIKEY>  (1492) 
NNKDVXRNTGSXFM-UHFFFAOYSA-N

>  <FORMULA>  (1492) 
C11H11Cl2NO3

>  <EXACT MASS>  (1492) 
275.011598572

>  <MW>  (1492) 
275

>  <ID>  (1492) 
JP009930

>  <CONTRIBUTOR>  (1492) 
University of Tokyo Team, {Faculty of Engineering, University of Tokyo

>  <COMMENT>  (1492) 
SMILES=O=C(Oc(c2)c(Cl)cc(Cl)c(O)2)N(C1)CCC1
InChI=InChI=1S/C11H11Cl2NO3/c12-7-5-8(13)10(6-9(7)15)17-11(16)14-3-1-2-4-14/h5-6,15H,1-4H2
computed SMILES=O=C(OC1=CC(O)=C(Cl)C=C1Cl)N2CCCC2
accession=JP009930
date=2016.01.19 (Created 2008.10.21, modified 2011.05.06)
author=KURARAY CO., LTD.
license=CC BY-NC-SA
exact mass=275.0116
ionization energy=70 eV
ion type=[M]+*
computed spectral entropy=1.960059742029104
computed normalized entropy=0.4936815188169595
SPLASH=splash10-0002-9000000000-e5a4a84651d721529aae
submitter=submitter = University of Tokyo Team (Faculty of Engineering, University of Tokyo)
MoNA Rating=3.75

>  <NUM PEAKS>  (1492) 
53

>  <MASS SPECTRAL PEAKS>  (1492) 
27 1.4
28 3.8
29 3.4
30 1
39 1.7
41 4.3
42 3.3
55 6.9
56 27.8
63 1
69 1.7
70 0.29
73 0.9
85 1.2
97 0.5
98 99.99
99 5.2
113 0.8
114 0.5
115 0.06
116 0.2
117 0.2
120 0.1
121 0.02
123 0.1
125 0.2
132 0.1
133 0.08
134 0.1
135 0.5
137 0.3
138 0.02
149 1.7
150 1.2
151 0.2
153 0.02
161 0.4
163 0.2
177 0.2
178 0.17
179 0.2
180 1.1
182 0.2
198 0.01
240 3.7
241 0.5
242 1.3
243 0.02
275 2.6
276 0.5
277 1.7
278 0.02
279 0.3

$$$$

     RDKit          2D

 20 21  0  0  0  0  0  0  0  0999 V2000
  -10.3942   -0.7512    0.0000 C   0  0  0  0  0  0  0  0  0  0  0  0
    4.5899    2.4204    0.0000 C   0  0  0  0  0  0  0  0  0  0  0  0
    4.0772    0.4897    0.0000 C   0  0  0  0  0  0  0  0  0  0  0  0
   -9.0951   -1.5010    0.0000 C   0  0  0  0  0  0  0  0  0  0  0  0
    3.1127    2.1596    0.0000 C   0  0  0  0  0  0  0  0  0  0  0  0
   -7.7962   -0.7508    0.0000 C   0  0  0  0  0  0  0  0  0  0  0  0
   -6.4970   -1.5006    0.0000 C   0  0  0  0  0  0  0  0  0  0  0  0
   -5.1981   -0.7504    0.0000 C   0  0  0  0  0  0  0  0  0  0  0  0
   -3.8989   -1.5002    0.0000 C   0  0  0  0  0  0  0  0  0  0  0  0
    1.3000   -1.5000    0.0000 C   0  0  0  0  0  0  0  0  0  0  0  0
    2.6000   -0.7500    0.0000 C   0  0  0  0  0  0  0  0  0  0  0  0
   -1.3000   -1.5000    0.0000 C   0  0  0  0  0  0  0  0  0  0  0  0
   -1.3000    1.5000    0.0000 C   0  0  0  0  0  0  0  0  0  0  0  0
   -2.6000   -0.7500    0.0000 C   0  0  0  0  0  0  0  0  0  0  0  0
    0.0000   -0.7500    0.0000 C   0  0  0  0  0  0  0  0  0  0  0  0
   -2.6000    0.7500    0.0000 C   0  0  0  0  0  0  0  0  0  0  0  0
    0.0000    0.7500    0.0000 C   0  0  0  0  0  0  0  0  0  0  0  0
    2.6000    0.7500    0.0000 C   0  0  0  0  0  0  0  0  0  0  0  0
   -3.8989    1.5002    0.0000 O   0  0  0  0  0  0  0  0  0  0  0  0
    1.3000    1.5000    0.0000 O   0  0  0  0  0  0  0  0  0  0  0  0
  4  1  1  0
  5  2  2  0
  6  4  1  0
  7  6  1  0
  8  7  1  0
  9  8  1  0
 11 10  1  0
 14  9  1  0
 14 12  1  0
 15 10  1  0
 15 12  2  0
 16 13  1  0
 16 14  2  0
 17 13  2  0
 17 15  1  0
 18  3  1  0
 18  5  1  0
 18 11  1  0
 19 16  1  0
 20 17  1  0
 20 18  1  0
M  END
>  <NAME>  (1493) 
2-ETHENYL-3,4-DIHYDRO-6-HEXYL-7-HYDROXY-2-METHYL-2H-1-BENZOPYRAN

>  <SYNONYMS>  (1493) 


>  <SPECTRUM TYPE>  (1493) 
MS1

>  <INSTRUMENT TYPE>  (1493) 
EI-B

>  <INSTRUMENT>  (1493) 
JEOL JMS-D-300

>  <ION MODE>  (1493) 
P

>  <INCHIKEY>  (1493) 
JVEAWTAJDFFQKM-UHFFFAOYSA-N

>  <FORMULA>  (1493) 
C18H26O2

>  <EXACT MASS>  (1493) 
274.193280072

>  <MW>  (1493) 
274

>  <ID>  (1493) 
JP009929

>  <CONTRIBUTOR>  (1493) 
University of Tokyo Team, {Faculty of Engineering, University of Tokyo

>  <COMMENT>  (1493) 
SMILES=CCCCCCc(c1)c(O)cc(O2)c(CCC(C)(C=C)2)1
InChI=InChI=1S/C18H26O2/c1-4-6-7-8-9-14-12-15-10-11-18(3,5-2)20-17(15)13-16(14)19/h5,12-13,19H,2,4,6-11H2,1,3H3
computed SMILES=OC=1C=C2OC(C=C)(C)CCC2=CC1CCCCCC
accession=JP009929
date=2016.01.19 (Created 2008.10.21, modified 2011.05.06)
author=KURARAY CO., LTD.
license=CC BY-NC-SA
exact mass=274.19328
ionization energy=70 eV
ion type=[M]+*
computed spectral entropy=3.7893558165601395
computed normalized entropy=0.7320800232484563
SPLASH=splash10-0wtj-4890000000-8f9f77e2aad24b93d003
submitter=submitter = University of Tokyo Team (Faculty of Engineering, University of Tokyo)
MoNA Rating=3.75

>  <NUM PEAKS>  (1493) 
177

>  <MASS SPECTRAL PEAKS>  (1493) 
26 0.3
27 7.8
28 10.8
29 1.2
30 0.3
32 2
39 7.8
40 0.13
41 23
42 2
43 22.2
50 0.03
51 2.7
52 0.9
53 7.5
54 0.03
55 15.5
56 0.2
57 3.8
58 0.02
63 0.2
64 0.3
65 5.9
66 0.09
67 9.4
68 5.6
69 31.3
70 0.13
71 2
72 0.2
73 0.2
74 0.02
76 0.2
77 12.3
78 3.1
79 0.94
80 2.3
81 7.8
82 0.3
83 0.2
84 0.2
85 0.2
87 0.2
88 0.02
89 0.2
90 0.2
91 11.3
92 0.13
93 4.7
94 1.7
95 5.3
96 0.02
97 0.6
98 0.3
99 0.3
101 0.02
102 0.2
103 3
104 0.8
105 0.5
106 0.2
107 5.2
108 4.4
109 0.02
110 1.3
111 0.9
112 0.2
115 0.44
116 1.4
117 3.1
118 0.3
119 0.23
120 0.3
121 3.4
122 5.6
123 0.73
124 1.4
127 1.1
128 2.5
129 0.17
131 3
132 0.2
133 5
134 0.17
135 7.5
136 68.3
137 17.8
138 0.33
139 0.2
141 0.2
142 0.2
143 0.11
144 0.6
145 2.8
146 1.4
147 1.69
148 4.4
149 40.6
150 12
151 0.28
152 0.2
153 0.3
155 0.3
157 0.09
158 0.2
159 1.7
160 1.9
161 1.83
162 5.3
163 93.8
164 13
165 0.16
166 0.2
167 0.2
168 0.2
169 0.02
171 0.3
172 0.2
173 2
174 0.17
175 18.9
176 25
177 22.3
178 4.38
179 1.7
180 0.2
181 0.2
185 0.03
186 0.2
187 3.3
188 1.4
189 3.75
190 12
191 12.3
192 2.2
193 0.06
194 0.2
201 1.1
202 0.8
203 1.98
204 99.99
205 43.3
206 11.4
207 0.3
208 1.3
209 0.2
213 0.2
215 0.02
216 0.2
217 31.6
218 23.9
219 0.53
220 0.3
221 0.2
227 0.2
229 0.13
230 0.3
231 42.3
232 12.2
233 0.11
235 0.2
236 0.2
237 0.2
243 0.02
245 42
246 15.3
247 0.3
257 0.52
259 11.3
260 2
261 0.3
272 0.02
273 1.9
274 94.1
275 18.9
276 0.28
277 0.2

$$$$

     RDKit          2D

 17 17  0  0  0  0  0  0  0  0999 V2000
   -5.8457   -2.6250    0.0000 C   0  0  0  0  0  0  0  0  0  0  0  0
    4.5466    3.3750    0.0000 C   0  0  0  0  0  0  0  0  0  0  0  0
   -4.5466   -1.8750    0.0000 C   0  0  0  0  0  0  0  0  0  0  0  0
   -3.2476   -1.1250    0.0000 C   0  0  0  0  0  0  0  0  0  0  0  0
    0.6490    1.1258    0.0000 C   0  0  0  0  0  0  0  0  0  0  0  0
    1.9486    0.3750    0.0000 C   0  0  0  0  0  0  0  0  0  0  0  0
   -0.6500    0.3758    0.0000 C   0  0  0  0  0  0  0  0  0  0  0  0
    0.6500   -1.8758    0.0000 C   0  0  0  0  0  0  0  0  0  0  0  0
    1.9490   -1.1258    0.0000 C   0  0  0  0  0  0  0  0  0  0  0  0
   -0.6495   -1.1250    0.0000 C   0  0  0  0  0  0  0  0  0  0  0  0
    3.2476    1.1250    0.0000 C   0  0  0  0  0  0  0  0  0  0  0  0
   -1.9492    1.1256    0.0000 Cl  0  0  0  0  0  0  0  0  0  0  0  0
    0.6498   -3.3758    0.0000 Cl  0  0  0  0  0  0  0  0  0  0  0  0
    3.2482   -1.8756    0.0000 O   0  0  0  0  0  0  0  0  0  0  0  0
    4.5466    0.3750    0.0000 O   0  0  0  0  0  0  0  0  0  0  0  0
    3.2476    2.6250    0.0000 O   0  0  0  0  0  0  0  0  0  0  0  0
   -1.9486   -1.8750    0.0000 O   0  0  0  0  0  0  0  0  0  0  0  0
  3  1  3  0
  4  3  1  0
  6  5  2  0
  7  5  1  0
  9  6  1  0
  9  8  2  0
 10  7  2  0
 10  8  1  0
 11  6  1  0
 12  7  1  0
 13  8  1  0
 14  9  1  0
 15 11  2  0
 16  2  1  0
 16 11  1  0
 17  4  1  0
 17 10  1  0
M  END
>  <NAME>  (1494) 
METHYL 3,5-DICHLORO-2-HYDROXY-4-(2-PROPYNOXY)BENZOATE

>  <SYNONYMS>  (1494) 


>  <SPECTRUM TYPE>  (1494) 
MS1

>  <INSTRUMENT TYPE>  (1494) 
EI-B

>  <INSTRUMENT>  (1494) 
JEOL JMS-D-300

>  <ION MODE>  (1494) 
P

>  <INCHIKEY>  (1494) 
HFDROIQVJXCSEP-UHFFFAOYSA-N

>  <FORMULA>  (1494) 
C11H8Cl2O4

>  <EXACT MASS>  (1494) 
273.979964096

>  <MW>  (1494) 
274

>  <ID>  (1494) 
JP009928

>  <CONTRIBUTOR>  (1494) 
University of Tokyo Team, {Faculty of Engineering, University of Tokyo

>  <COMMENT>  (1494) 
SMILES=C#CCOc(c(Cl)1)c(Cl)c(O)c(C(=O)OC)c1
InChI=InChI=1S/C11H8Cl2O4/c1-3-4-17-10-7(12)5-6(11(15)16-2)9(14)8(10)13/h1,5,14H,4H2,2H3
computed SMILES=O=C(OC)C1=CC(Cl)=C(OCC#C)C(Cl)=C1O
accession=JP009928
date=2016.01.19 (Created 2008.10.21, modified 2011.05.06)
author=KURARAY CO., LTD.
license=CC BY-NC-SA
exact mass=273.97996
ionization energy=70 eV
ion type=[M]+*
computed spectral entropy=3.2563745957768506
computed normalized entropy=0.7040851324409071
SPLASH=splash10-0a4i-2290000000-e37b8ba44753cca9c0a7
submitter=submitter = University of Tokyo Team (Faculty of Engineering, University of Tokyo)
MoNA Rating=3.75

>  <NUM PEAKS>  (1494) 
102

>  <MASS SPECTRAL PEAKS>  (1494) 
27 0.7
28 0.9
29 0.2
36 0.17
37 1.7
38 1.7
39 18.4
50 0.19
51 1.9
53 4
59 3.8
61 0.17
62 1.2
63 1.9
69 0.3
72 0.16
73 1.2
75 0.9
77 3.1
84 0.19
85 3.3
86 1.7
87 2.2
96 0.07
97 1.7
99 1.7
101 0.5
103 0.29
109 0.5
111 1.9
112 1.4
113 0.5
115 0.7
119 3.4
120 1.6
121 0.28
122 0.5
123 5.2
124 0.7
125 0.1
129 0.7
131 1.7
133 1
139 0.17
140 0.3
141 0.3
143 0.2
147 0.45
148 1.4
149 2.9
150 1.7
151 0.36
152 1.7
153 1.7
154 1.7
155 0.03
156 0.3
157 0.3
158 0.2
159 0.14
166 1.7
167 0.3
168 1.7
175 2.38
176 1.6
177 14.5
178 0.7
179 0.81
180 3.4
181 1.6
182 1.7
186 0.21
187 1.4
188 1.7
189 0.9
194 0.1
195 1
204 1.7
205 1.2
206 0.21
207 99.99
208 10.9
209 32.6
210 0.29
211 1.6
213 1
214 10.3
215 0.31
216 6.4
217 2.9
239 6.7
241 0.17
242 7.2
243 3.4
244 4.6
245 0.19
246 1.7
247 0.2
274 18.4
276 1.21
277 1.7
278 2.1

$$$$

     RDKit          2D

 19 18  0  0  0  0  0  0  0  0999 V2000
    3.8971    6.7500    0.0000 C   0  0  0  0  0  0  0  0  0  0  0  0
    2.5981    9.0000    0.0000 C   0  0  0  0  0  0  0  0  0  0  0  0
   -2.5981    9.0000    0.0000 C   0  0  0  0  0  0  0  0  0  0  0  0
   -6.8300    8.6491    0.0000 C   0  0  0  0  0  0  0  0  0  0  0  0
  -11.6913    6.7500    0.0000 C   0  0  0  0  0  0  0  0  0  0  0  0
    0.0000    7.5000    0.0000 C   0  0  0  0  0  0  0  0  0  0  0  0
   -5.1962    7.5000    0.0000 C   0  0  0  0  0  0  0  0  0  0  0  0
    1.2990    6.7500    0.0000 C   0  0  0  0  0  0  0  0  0  0  0  0
   -1.2990    6.7500    0.0000 C   0  0  0  0  0  0  0  0  0  0  0  0
   -3.8971    6.7500    0.0000 C   0  0  0  0  0  0  0  0  0  0  0  0
   -6.4952    6.7500    0.0000 C   0  0  0  0  0  0  0  0  0  0  0  0
   -9.0933    5.2500    0.0000 C   0  0  0  0  0  0  0  0  0  0  0  0
    2.5981    7.5000    0.0000 C   0  0  0  0  0  0  0  0  0  0  0  0
   -2.5981    7.5000    0.0000 C   0  0  0  0  0  0  0  0  0  0  0  0
   -9.0933    6.7500    0.0000 C   0  0  0  0  0  0  0  0  0  0  0  0
   -7.7942    7.5000    0.0000 C   0  0  0  0  0  0  0  0  0  0  0  0
  -10.3923    7.5000    0.0000 N   0  0  0  0  0  0  0  0  0  0  0  0
  -10.3923    4.5000    0.0000 O   0  0  0  0  0  0  0  0  0  0  0  0
   -8.7584    8.6491    0.0000 O   0  0  0  0  0  0  0  0  0  0  0  0
  8  6  1  0
  9  6  1  0
 10  7  1  0
 11  7  1  0
 13  1  1  0
 13  2  1  0
 13  8  1  0
 14  3  1  0
 14  9  1  0
 14 10  1  0
 15 12  1  0
 16  4  1  0
 16 11  1  0
 16 15  1  0
 17  5  1  0
 17 15  1  0
 18 12  1  0
 19 16  1  0
M  END
>  <NAME>  (1495) 
2-(N-METHYLAMINO)-3,7,11-TRIMETHYL-1,3-DODECANEDIOL

>  <SYNONYMS>  (1495) 


>  <SPECTRUM TYPE>  (1495) 
MS1

>  <INSTRUMENT TYPE>  (1495) 
EI-B

>  <INSTRUMENT>  (1495) 
JEOL JMS-D-300

>  <ION MODE>  (1495) 
P

>  <INCHIKEY>  (1495) 
LCIWWMFNDBZAFP-UHFFFAOYSA-N

>  <FORMULA>  (1495) 
C16H35NO2

>  <EXACT MASS>  (1495) 
273.26677936000004

>  <MW>  (1495) 
273

>  <ID>  (1495) 
JP009927

>  <CONTRIBUTOR>  (1495) 
University of Tokyo Team, {Faculty of Engineering, University of Tokyo

>  <COMMENT>  (1495) 
SMILES=CC(C)CCCC(C)CCCC(C)(O)C(NC)CO
InChI=InChI=1S/C16H35NO2/c1-13(2)8-6-9-14(3)10-7-11-16(4,19)15(12-18)17-5/h13-15,17-19H,6-12H2,1-5H3
computed SMILES=OCC(NC)C(O)(C)CCCC(C)CCCC(C)C
accession=JP009927
date=2016.01.19 (Created 2008.10.21, modified 2011.05.06)
author=KURARAY CO., LTD.
license=CC BY-NC-SA
exact mass=273.26678
ionization energy=70 eV
ion type=[M]+*
computed spectral entropy=1.8766134370924974
computed normalized entropy=0.5321672086539602
SPLASH=splash10-00di-9000000000-e01aa78778aed14d2ff7
submitter=submitter = University of Tokyo Team (Faculty of Engineering, University of Tokyo)
MoNA Rating=3.75

>  <NUM PEAKS>  (1495) 
34

>  <MASS SPECTRAL PEAKS>  (1495) 
28 0.9
29 1.1
30 0.3
41 0.31
42 2.8
43 7.5
44 5
45 0.17
55 3.4
56 3.6
57 14.5
58 2.97
59 0.9
69 2.8
71 3.3
73 0.16
74 99.99
75 3.3
83 1.1
84 0.16
86 1.4
88 4.5
97 0.2
100 0.36
118 4.8
242 4.1
254 0.6
255 0.01
256 0.3
258 0.9
259 0.2
268 0.15
272 0.4
274 0.2

$$$$

     RDKit          2D

 20 19  0  0  0  0  0  0  0  0999 V2000
    4.8714    8.8125    0.0000 C   0  0  0  0  0  0  0  0  0  0  0  0
  -14.6142    9.5625    0.0000 C   0  0  0  0  0  0  0  0  0  0  0  0
  -13.3151    7.3125    0.0000 C   0  0  0  0  0  0  0  0  0  0  0  0
    2.2733    7.3125    0.0000 C   0  0  0  0  0  0  0  0  0  0  0  0
   -8.1190    7.3125    0.0000 C   0  0  0  0  0  0  0  0  0  0  0  0
   -2.9228    7.3125    0.0000 C   0  0  0  0  0  0  0  0  0  0  0  0
    3.5724    9.5625    0.0000 C   0  0  0  0  0  0  0  0  0  0  0  0
  -10.7171    8.8125    0.0000 C   0  0  0  0  0  0  0  0  0  0  0  0
   -0.3248    8.8125    0.0000 C   0  0  0  0  0  0  0  0  0  0  0  0
   -5.5209    8.8125    0.0000 C   0  0  0  0  0  0  0  0  0  0  0  0
  -12.0161    9.5625    0.0000 C   0  0  0  0  0  0  0  0  0  0  0  0
    0.9743    9.5625    0.0000 C   0  0  0  0  0  0  0  0  0  0  0  0
   -9.4180    9.5625    0.0000 C   0  0  0  0  0  0  0  0  0  0  0  0
   -1.6238    9.5625    0.0000 C   0  0  0  0  0  0  0  0  0  0  0  0
   -6.8200    9.5625    0.0000 C   0  0  0  0  0  0  0  0  0  0  0  0
   -4.2219    9.5625    0.0000 C   0  0  0  0  0  0  0  0  0  0  0  0
  -13.3151    8.8125    0.0000 C   0  0  0  0  0  0  0  0  0  0  0  0
    2.2733    8.8125    0.0000 C   0  0  0  0  0  0  0  0  0  0  0  0
   -8.1190    8.8125    0.0000 C   0  0  0  0  0  0  0  0  0  0  0  0
   -2.9228    8.8125    0.0000 C   0  0  0  0  0  0  0  0  0  0  0  0
  7  1  2  0
 11  8  1  0
 12  9  1  0
 13  8  1  0
 14  9  1  0
 15 10  1  0
 16 10  1  0
 17  2  1  0
 17  3  1  0
 17 11  2  0
 18  4  2  0
 18  7  1  0
 18 12  1  0
 19  5  1  0
 19 13  1  0
 15 19  2  0
 20  6  1  0
 14 20  2  0
 20 16  1  0
M  END
>  <NAME>  (1496) 
3-METHYLENE-7,11,15-TRIMETHYL-1,6,10,14-HEXADECATETRAENE

>  <SYNONYMS>  (1496) 


>  <SPECTRUM TYPE>  (1496) 
MS1

>  <INSTRUMENT TYPE>  (1496) 
EI-B

>  <INSTRUMENT>  (1496) 
JEOL JMS-D-300

>  <ION MODE>  (1496) 
P

>  <INCHIKEY>  (1496) 
XSIVJVJUIXOEPW-YTOAGJIJSA-N

>  <FORMULA>  (1496) 
C20H32

>  <EXACT MASS>  (1496) 
272.250401024

>  <MW>  (1496) 
272

>  <ID>  (1496) 
JP009926

>  <CONTRIBUTOR>  (1496) 
University of Tokyo Team, {Faculty of Engineering, University of Tokyo

>  <COMMENT>  (1496) 
SMILES=C=CC(=C)CCC=C(C)CCC=C(C)CCC=C(C)C
InChI=InChI=1S/C20H32/c1-7-18(4)12-9-14-20(6)16-10-15-19(5)13-8-11-17(2)3/h7,11,14-15H,1,4,8-10,12-13,16H2,2-3,5-6H3/b19-15+,20-14+
computed SMILES=C=CC(=C)CCC=C(C)CCC=C(C)CCC=C(C)C
accession=JP009926
date=2016.01.19 (Created 2008.10.21, modified 2011.05.06)
author=KURARAY CO., LTD.
license=CC BY-NC-SA
exact mass=272.2504
ionization energy=70 eV
ion type=[M]+*
computed spectral entropy=2.9453211419587295
computed normalized entropy=0.8219075139666108
SPLASH=splash10-014i-9200000000-1e868c0fcc68d2727aef
submitter=submitter = University of Tokyo Team (Faculty of Engineering, University of Tokyo)
MoNA Rating=3.75

>  <NUM PEAKS>  (1496) 
36

>  <MASS SPECTRAL PEAKS>  (1496) 
27 7.2
29 9.4
39 10.8
41 7.72
43 9.2
53 15.9
55 27.8
65 0.47
67 26.9
68 17.5
69 99.99
70 0.97
77 9.7
79 21.6
81 54.7
82 0.48
91 12.2
92 4.2
93 48.9
94 0.62
95 17
105 7.2
107 14
109 0.72
119 9.1
120 13.8
121 7.8
123 0.39
133 15.6
134 4.5
135 5.9
137 0.27
147 4.7
161 5.5
181 0.2
272 2.5

$$$$

     RDKit          2D

 20 22  0  0  0  0  0  0  0  0999 V2000
    4.0247   -0.4635    0.0000 C   0  0  0  0  0  0  0  0  0  0  0  0
   -3.8971   -2.2500    0.0000 C   0  0  0  0  0  0  0  0  0  0  0  0
   -3.8971    3.7500    0.0000 C   0  0  0  0  0  0  0  0  0  0  0  0
    2.7256    2.7135    0.0000 C   0  0  0  0  0  0  0  0  0  0  0  0
    0.8165    3.3338    0.0000 C   0  0  0  0  0  0  0  0  0  0  0  0
    0.8165   -1.8338    0.0000 C   0  0  0  0  0  0  0  0  0  0  0  0
    2.7256   -1.2135    0.0000 C   0  0  0  0  0  0  0  0  0  0  0  0
   -1.2990   -0.7500    0.0000 C   0  0  0  0  0  0  0  0  0  0  0  0
   -1.2990    2.2500    0.0000 C   0  0  0  0  0  0  0  0  0  0  0  0
   -5.1962    0.0000    0.0000 C   0  0  0  0  0  0  0  0  0  0  0  0
    2.3083    0.7500    0.0000 C   0  0  0  0  0  0  0  0  0  0  0  0
   -3.8971   -0.7500    0.0000 C   0  0  0  0  0  0  0  0  0  0  0  0
   -3.8971    2.2500    0.0000 C   0  0  0  0  0  0  0  0  0  0  0  0
   -2.5981    0.0000    0.0000 C   0  0  0  0  0  0  0  0  0  0  0  0
   -2.5981    1.5000    0.0000 C   0  0  0  0  0  0  0  0  0  0  0  0
    0.0000    1.5000    0.0000 C   0  0  0  0  0  0  0  0  0  0  0  0
   -0.0000   -0.0000    0.0000 C   0  0  0  0  0  0  0  0  0  0  0  0
    1.4266    1.9635    0.0000 C   0  0  0  0  0  0  0  0  0  0  0  0
    1.4266   -0.4635    0.0000 C   0  0  0  0  0  0  0  0  0  0  0  0
   -5.1962    1.5000    0.0000 O   0  0  0  0  0  0  0  0  0  0  0  0
  7  1  1  0
 12  2  1  0
 12 10  1  0
 13  3  1  0
 14  8  2  0
 14 12  1  0
 15  9  2  0
 15 13  1  0
 15 14  1  0
 16  9  1  0
 17  8  1  0
 17 16  2  0
 18  4  1  0
 18  5  1  0
 18 11  1  0
 18 16  1  0
 19  6  1  0
 19  7  1  0
 19 11  1  0
 19 17  1  0
 20 10  1  0
 20 13  1  0
M  END
>  <NAME>  (1497) 
3-ETHYL-1,1,3,5,8-PENTAMETHYL-5H,6H-PYRANO(4,5-F)INDAN

>  <SYNONYMS>  (1497) 


>  <SPECTRUM TYPE>  (1497) 
MS1

>  <INSTRUMENT TYPE>  (1497) 
EI-B

>  <INSTRUMENT>  (1497) 
JEOL JMS-D-300

>  <ION MODE>  (1497) 
P

>  <INCHIKEY>  (1497) 
CSEKCKNHEKPVHN-UHFFFAOYSA-N

>  <FORMULA>  (1497) 
C19H28O

>  <EXACT MASS>  (1497) 
272.214015516

>  <MW>  (1497) 
272

>  <ID>  (1497) 
JP009925

>  <CONTRIBUTOR>  (1497) 
University of Tokyo Team, {Faculty of Engineering, University of Tokyo

>  <COMMENT>  (1497) 
SMILES=CCC(C)(C1)c(c2)c(cc(C(C)3)c(C(C)CO3)2)C(C)(C)1
InChI=InChI=1S/C19H28O/c1-7-19(6)11-18(4,5)16-9-15-13(3)20-10-12(2)14(15)8-17(16)19/h8-9,12-13H,7,10-11H2,1-6H3
computed SMILES=O1CC(C=2C=C3C(=CC2C1C)C(C)(C)CC3(C)CC)C
accession=JP009925
date=2016.01.19 (Created 2008.10.21, modified 2011.05.06)
author=KURARAY CO., LTD.
license=CC BY-NC-SA
exact mass=272.21402
ionization energy=70 eV
ion type=[M]+*
computed spectral entropy=1.5315922869040137
computed normalized entropy=0.8547979308650567
SPLASH=splash10-004i-0090000000-837a5e1484640d8c3c65
submitter=submitter = University of Tokyo Team (Faculty of Engineering, University of Tokyo)
MoNA Rating=3.75

>  <NUM PEAKS>  (1497) 
6

>  <MASS SPECTRAL PEAKS>  (1497) 
215 44.9
229 99.99
230 23.8
243 8.89
257 31.4
272 20.9

$$$$

     RDKit          2D

 20 21  0  0  0  0  0  0  0  0999 V2000
   -5.2215   -0.7635    0.0000 C   0  0  0  0  0  0  0  0  0  0  0  0
    6.4917   -3.0351    0.0000 C   0  0  0  0  0  0  0  0  0  0  0  0
    5.2403   -0.7747    0.0000 C   0  0  0  0  0  0  0  0  0  0  0  0
    5.2156   -3.7746    0.0000 C   0  0  0  0  0  0  0  0  0  0  0  0
    3.8842   -1.5136    0.0000 C   0  0  0  0  0  0  0  0  0  0  0  0
   -1.3248   -3.0144    0.0000 C   0  0  0  0  0  0  0  0  0  0  0  0
   -0.0248   -0.7627    0.0000 C   0  0  0  0  0  0  0  0  0  0  0  0
   -0.0258   -3.7644    0.0000 C   0  0  0  0  0  0  0  0  0  0  0  0
    1.2742   -1.5127    0.0000 C   0  0  0  0  0  0  0  0  0  0  0  0
   -3.9224   -1.5135    0.0000 C   0  0  0  0  0  0  0  0  0  0  0  0
    6.5041   -1.5352    0.0000 C   0  0  0  0  0  0  0  0  0  0  0  0
   -1.3244   -1.5135    0.0000 C   0  0  0  0  0  0  0  0  0  0  0  0
    3.8718   -3.0135    0.0000 C   0  0  0  0  0  0  0  0  0  0  0  0
    1.2737   -3.0135    0.0000 C   0  0  0  0  0  0  0  0  0  0  0  0
    7.8129   -0.8024    0.0000 C   0  0  0  0  0  0  0  0  0  0  0  0
   -3.9224   -3.0135    0.0000 O   0  0  0  0  0  0  0  0  0  0  0  0
    9.1019   -1.5694    0.0000 O   0  0  0  0  0  0  0  0  0  0  0  0
    7.8326    0.6975    0.0000 O   0  0  0  0  0  0  0  0  0  0  0  0
   -2.6234   -0.7635    0.0000 O   0  0  0  0  0  0  0  0  0  0  0  0
    2.5728   -3.7635    0.0000 O   0  0  0  0  0  0  0  0  0  0  0  0
  4  2  2  0
  5  3  1  0
  8  6  2  0
  9  7  1  0
 10  1  1  0
 11  2  1  0
 11  3  2  0
 12  6  1  0
 12  7  2  0
 13  4  1  0
 13  5  2  0
 14  8  1  0
 14  9  2  0
 15 11  1  0
 16 10  2  0
 17 15  1  0
 18 15  2  0
 19 10  1  0
 19 12  1  0
 20 13  1  0
 20 14  1  0
M  END
>  <NAME>  (1498) 
4-(4-ACETOXYPHENOXY)BENZOIC ACID

>  <SYNONYMS>  (1498) 


>  <SPECTRUM TYPE>  (1498) 
MS1

>  <INSTRUMENT TYPE>  (1498) 
EI-B

>  <INSTRUMENT>  (1498) 
JEOL JMS-D-300

>  <ION MODE>  (1498) 
P

>  <INCHIKEY>  (1498) 
BALYRASTARBISG-UHFFFAOYSA-N

>  <FORMULA>  (1498) 
C15H12O5

>  <EXACT MASS>  (1498) 
272.068473484

>  <MW>  (1498) 
272

>  <ID>  (1498) 
JP009923

>  <CONTRIBUTOR>  (1498) 
University of Tokyo Team, {Faculty of Engineering, University of Tokyo

>  <COMMENT>  (1498) 
SMILES=CC(=O)Oc(c2)ccc(c2)Oc(c1)ccc(C(O)=O)c1
InChI=InChI=1S/C15H12O5/c1-10(16)19-12-6-8-14(9-7-12)20-13-4-2-11(3-5-13)15(17)18/h2-9H,1H3,(H,17,18)
computed SMILES=O=C(O)C1=CC=C(OC2=CC=C(OC(=O)C)C=C2)C=C1
accession=JP009923
date=2016.01.19 (Created 2008.10.21, modified 2011.05.06)
author=KURARAY CO., LTD.
license=CC BY-NC-SA
exact mass=272.06847
ionization energy=70 eV
ion type=[M]+*
computed spectral entropy=1.6802562375453909
computed normalized entropy=0.46888443075154973
SPLASH=splash10-001i-1090000000-6429287dfc1b01cea177
submitter=submitter = University of Tokyo Team (Faculty of Engineering, University of Tokyo)
MoNA Rating=3.75

>  <NUM PEAKS>  (1498) 
36

>  <MASS SPECTRAL PEAKS>  (1498) 
28 3
39 1.4
42 0.9
43 0.53
44 0.3
50 1.3
51 1.3
53 0.05
54 0.2
63 1.3
64 0.6
65 0.52
75 1.1
76 1.7
81 1.6
92 0.12
93 0.6
104 1.1
105 1.3
109 0.47
121 0.8
127 1.1
128 1.9
129 0.16
139 0.2
156 0.2
157 2.8
158 0.02
184 1.6
185 1.6
213 6.1
230 99.99
231 14.1
232 1.1
255 0.2
272 4.2

$$$$

     RDKit          2D

 20 21  0  0  0  0  0  0  0  0999 V2000
    7.1511   -3.4033    0.0000 C   0  0  0  0  0  0  0  0  0  0  0  0
    1.9492   -0.4176    0.0000 C   0  0  0  0  0  0  0  0  0  0  0  0
    3.2482   -1.1676    0.0000 C   0  0  0  0  0  0  0  0  0  0  0  0
    0.6547   -1.1598    0.0000 C   0  0  0  0  0  0  0  0  0  0  0  0
   -3.2348   -0.3803    0.0000 C   0  0  0  0  0  0  0  0  0  0  0  0
   -4.5670   -2.5940    0.0000 C   0  0  0  0  0  0  0  0  0  0  0  0
   -1.9564   -1.1159    0.0000 C   0  0  0  0  0  0  0  0  0  0  0  0
   -3.2492   -3.3993    0.0000 C   0  0  0  0  0  0  0  0  0  0  0  0
    1.9532   -3.4106    0.0000 C   0  0  0  0  0  0  0  0  0  0  0  0
    5.8508   -2.6554    0.0000 C   0  0  0  0  0  0  0  0  0  0  0  0
   -4.5401   -1.1193    0.0000 C   0  0  0  0  0  0  0  0  0  0  0  0
   -1.9439   -2.6602    0.0000 C   0  0  0  0  0  0  0  0  0  0  0  0
    3.2527   -2.6598    0.0000 C   0  0  0  0  0  0  0  0  0  0  0  0
    0.6542   -2.6606    0.0000 C   0  0  0  0  0  0  0  0  0  0  0  0
   -5.8290   -0.3521    0.0000 C   0  0  0  0  0  0  0  0  0  0  0  0
    5.8483   -1.1554    0.0000 O   0  0  0  0  0  0  0  0  0  0  0  0
   -7.1379   -1.0847    0.0000 O   0  0  0  0  0  0  0  0  0  0  0  0
   -5.8090    1.1478    0.0000 O   0  0  0  0  0  0  0  0  0  0  0  0
    4.5530   -3.4076    0.0000 O   0  0  0  0  0  0  0  0  0  0  0  0
   -0.6450   -3.4104    0.0000 O   0  0  0  0  0  0  0  0  0  0  0  0
  3  2  2  0
  4  2  1  0
  7  5  2  0
  8  6  1  0
 10  1  1  0
 11  5  1  0
 11  6  2  0
 12  7  1  0
 12  8  2  0
 13  3  1  0
 13  9  2  0
 14  4  2  0
 14  9  1  0
 15 11  1  0
 16 10  2  0
 17 15  1  0
 18 15  2  0
 19 10  1  0
 19 13  1  0
 20 12  1  0
 20 14  1  0
M  END
>  <NAME>  (1499) 
4-(3-ACETOXYPHENOXY)BENZOIC ACID

>  <SYNONYMS>  (1499) 


>  <SPECTRUM TYPE>  (1499) 
MS1

>  <INSTRUMENT TYPE>  (1499) 
EI-B

>  <INSTRUMENT>  (1499) 
JEOL JMS-D-300

>  <ION MODE>  (1499) 
P

>  <INCHIKEY>  (1499) 
PYJZFSCAKHRLSC-UHFFFAOYSA-N

>  <FORMULA>  (1499) 
C15H12O5

>  <EXACT MASS>  (1499) 
272.068473484

>  <MW>  (1499) 
272

>  <ID>  (1499) 
JP009922

>  <CONTRIBUTOR>  (1499) 
University of Tokyo Team, {Faculty of Engineering, University of Tokyo

>  <COMMENT>  (1499) 
SMILES=CC(=O)Oc(c2)cc(cc2)Oc(c1)ccc(C(O)=O)c1
InChI=InChI=1S/C15H12O5/c1-10(16)19-13-3-2-4-14(9-13)20-12-7-5-11(6-8-12)15(17)18/h2-9H,1H3,(H,17,18)
computed SMILES=O=C(O)C1=CC=C(OC=2C=CC=C(OC(=O)C)C2)C=C1
accession=JP009922
date=2016.01.19 (Created 2008.10.21, modified 2011.05.06)
author=KURARAY CO., LTD.
license=CC BY-NC-SA
exact mass=272.06847
ion type=[M]+*
ionization energy=70 eV
computed spectral entropy=2.464044440114733
computed normalized entropy=0.5860224903840036
SPLASH=splash10-001i-2190000000-41019f60bfcfd67e184a
submitter=submitter = University of Tokyo Team (Faculty of Engineering, University of Tokyo)
MoNA Rating=3.75

>  <NUM PEAKS>  (1499) 
67

>  <MASS SPECTRAL PEAKS>  (1499) 
28 4.8
32 1.7
38 0.6
39 0.28
41 0.5
42 1.7
43 12.5
44 0.08
50 1.1
51 1.4
52 0.8
53 0.09
55 0.3
62 0.3
63 3.4
64 0.5
65 6.7
66 0.3
69 0.9
74 0.03
75 0.8
76 0.8
77 0.8
78 0.08
81 0.3
92 3
93 2
103 0.03
110 0.9
115 1.6
116 0.3
117 0.13
121 1.3
122 0.3
127 0.9
128 0.5
129 5.9
130 0.9
131 0.3
139 0.09
141 0.2
155 0.9
156 1.6
157 0.63
158 1.3
162 0.9
167 0.5
169 0.02
183 0.3
184 2.5
185 4.2
186 0.03
201 0.3
202 1.6
211 0.5
212 0.17
213 6.7
214 0.6
229 0.3
230 99.99
231 14.2
232 1.7
244 0.6
248 0.03
255 0.8
272 9.8
273 1.7

$$$$

     RDKit          2D

 19 18  0  0  0  0  0  0  0  0999 V2000
    4.8714    7.3125    0.0000 C   0  0  0  0  0  0  0  0  0  0  0  0
    3.5724    9.5625    0.0000 C   0  0  0  0  0  0  0  0  0  0  0  0
   -1.6238    9.5625    0.0000 C   0  0  0  0  0  0  0  0  0  0  0  0
   -6.8200    9.5625    0.0000 C   0  0  0  0  0  0  0  0  0  0  0  0
  -13.3151    7.3125    0.0000 C   0  0  0  0  0  0  0  0  0  0  0  0
    0.9743    8.0625    0.0000 C   0  0  0  0  0  0  0  0  0  0  0  0
   -4.2219    8.0625    0.0000 C   0  0  0  0  0  0  0  0  0  0  0  0
   -9.4180    8.0625    0.0000 C   0  0  0  0  0  0  0  0  0  0  0  0
    2.2733    7.3125    0.0000 C   0  0  0  0  0  0  0  0  0  0  0  0
   -0.3248    7.3125    0.0000 C   0  0  0  0  0  0  0  0  0  0  0  0
   -2.9228    7.3125    0.0000 C   0  0  0  0  0  0  0  0  0  0  0  0
   -5.5209    7.3125    0.0000 C   0  0  0  0  0  0  0  0  0  0  0  0
   -8.1190    7.3125    0.0000 C   0  0  0  0  0  0  0  0  0  0  0  0
  -10.7171    7.3125    0.0000 C   0  0  0  0  0  0  0  0  0  0  0  0
    3.5724    8.0625    0.0000 C   0  0  0  0  0  0  0  0  0  0  0  0
   -1.6238    8.0625    0.0000 C   0  0  0  0  0  0  0  0  0  0  0  0
   -6.8200    8.0625    0.0000 C   0  0  0  0  0  0  0  0  0  0  0  0
  -12.0161    8.0625    0.0000 C   0  0  0  0  0  0  0  0  0  0  0  0
  -12.0161    9.5625    0.0000 O   0  0  0  0  0  0  0  0  0  0  0  0
  9  6  1  0
 10  6  1  0
 11  7  1  0
 12  7  1  0
 13  8  1  0
 14  8  1  0
 15  1  1  0
 15  2  1  0
 15  9  1  0
 16  3  1  0
 16 10  1  0
 16 11  1  0
 17  4  1  0
 17 12  1  0
 17 13  1  0
 18  5  1  0
 18 14  1  0
 19 18  2  0
M  END
>  <NAME>  (1500) 
6,10,14-TRIMETHYL-PENTADECAN-2-ONE

>  <SYNONYMS>  (1500) 


>  <SPECTRUM TYPE>  (1500) 
MS1

>  <INSTRUMENT TYPE>  (1500) 
EI-B

>  <INSTRUMENT>  (1500) 
JEOL JMS-D-300

>  <ION MODE>  (1500) 
P

>  <INCHIKEY>  (1500) 
WHWDWIHXSPCOKZ-UHFFFAOYSA-N

>  <FORMULA>  (1500) 
C18H36O

>  <EXACT MASS>  (1500) 
268.276615772

>  <MW>  (1500) 
268

>  <ID>  (1500) 
JP009920

>  <CONTRIBUTOR>  (1500) 
University of Tokyo Team, {Faculty of Engineering, University of Tokyo

>  <COMMENT>  (1500) 
SMILES=CC(C)CCCC(C)CCCC(C)CCCC(C)=O
InChI=InChI=1S/C18H36O/c1-15(2)9-6-10-16(3)11-7-12-17(4)13-8-14-18(5)19/h15-17H,6-14H2,1-5H3
computed SMILES=O=C(C)CCCC(C)CCCC(C)CCCC(C)C
accession=JP009920
date=2016.01.19 (Created 2008.10.21, modified 2011.05.06)
author=KURARAY CO., LTD.
license=CC BY-NC-SA
exact mass=268.27662
ionization energy=70 eV
ion type=[M]+*
computed spectral entropy=3.2184747080704157
computed normalized entropy=0.7960509266048026
SPLASH=splash10-0a4l-9200000000-f2203c7f88d3a1f991cf
submitter=submitter = University of Tokyo Team (Faculty of Engineering, University of Tokyo)
MoNA Rating=3.75

>  <NUM PEAKS>  (1500) 
57

>  <MASS SPECTRAL PEAKS>  (1500) 
27 3.3
29 7.8
39 2.6
41 2.36
42 5.2
43 96.6
44 2.6
55 3.1
56 14.7
57 44.1
58 99.99
59 4.64
67 4.8
68 7.2
69 28.1
70 1.55
71 60.5
72 4.8
81 15.2
82 1.21
83 19.5
84 6.7
85 34.5
86 0.33
95 25.9
96 11.6
97 12.1
98 0.31
99 5.5
109 27.8
110 20.3
111 1.12
112 3.4
113 11.2
123 14.1
124 1.9
125 10.2
126 8.8
127 3.6
137 0.81
138 7.1
139 2.1
140 5.9
141 0.19
151 2.2
152 2.1
165 8.6
179 0.64
180 2.2
194 2.9
208 1.7
210 0.74
225 2.4
235 1.6
250 19.3
253 0.19
268 1.7

$$$$

     RDKit          2D

 19 18  0  0  0  0  0  0  0  0999 V2000
    4.5466    7.8750    0.0000 C   0  0  0  0  0  0  0  0  0  0  0  0
  -13.6399    7.8750    0.0000 C   0  0  0  0  0  0  0  0  0  0  0  0
  -12.3409   10.1250    0.0000 C   0  0  0  0  0  0  0  0  0  0  0  0
   -7.1447   10.1250    0.0000 C   0  0  0  0  0  0  0  0  0  0  0  0
   -1.9486   10.1250    0.0000 C   0  0  0  0  0  0  0  0  0  0  0  0
    3.2476    8.6250    0.0000 C   0  0  0  0  0  0  0  0  0  0  0  0
   -9.7428    8.6250    0.0000 C   0  0  0  0  0  0  0  0  0  0  0  0
   -4.5466    8.6250    0.0000 C   0  0  0  0  0  0  0  0  0  0  0  0
  -11.0418    7.8750    0.0000 C   0  0  0  0  0  0  0  0  0  0  0  0
   -8.4437    7.8750    0.0000 C   0  0  0  0  0  0  0  0  0  0  0  0
   -5.8457    7.8750    0.0000 C   0  0  0  0  0  0  0  0  0  0  0  0
   -3.2476    7.8750    0.0000 C   0  0  0  0  0  0  0  0  0  0  0  0
   -0.6495    7.8750    0.0000 C   0  0  0  0  0  0  0  0  0  0  0  0
  -12.3409    8.6250    0.0000 C   0  0  0  0  0  0  0  0  0  0  0  0
   -7.1447    8.6250    0.0000 C   0  0  0  0  0  0  0  0  0  0  0  0
   -1.9486    8.6250    0.0000 C   0  0  0  0  0  0  0  0  0  0  0  0
    0.6495    8.6250    0.0000 C   0  0  0  0  0  0  0  0  0  0  0  0
    0.6495   10.1250    0.0000 O   0  0  0  0  0  0  0  0  0  0  0  0
    1.9486    7.8750    0.0000 O   0  0  0  0  0  0  0  0  0  0  0  0
  6  1  1  0
  9  7  1  0
 10  7  1  0
 11  8  1  0
 12  8  1  0
 14  2  1  0
 14  3  1  0
 14  9  2  0
 15  4  1  0
 15 10  1  0
 15 11  1  0
 16  5  1  0
 16 12  1  0
 16 13  1  0
 17 13  1  0
 18 17  2  0
 19  6  1  0
 19 17  1  0
M  END
>  <NAME>  (1501) 
ETHYL 3,7,11-TRIMETHYL-10-DODECENOATE

>  <SYNONYMS>  (1501) 


>  <SPECTRUM TYPE>  (1501) 
MS1

>  <INSTRUMENT TYPE>  (1501) 
EI-B

>  <INSTRUMENT>  (1501) 
JEOL JMS-D-300

>  <ION MODE>  (1501) 
P

>  <INCHIKEY>  (1501) 
RLJQAAPXMHYQJM-UHFFFAOYSA-N

>  <FORMULA>  (1501) 
C17H32O2

>  <EXACT MASS>  (1501) 
268.240230264

>  <MW>  (1501) 
268

>  <ID>  (1501) 
JP009919

>  <CONTRIBUTOR>  (1501) 
University of Tokyo Team, {Faculty of Engineering, University of Tokyo

>  <COMMENT>  (1501) 
SMILES=CCOC(=O)CC(C)CCCC(C)CCC=C(C)C
InChI=InChI=1S/C17H32O2/c1-6-19-17(18)13-16(5)12-8-11-15(4)10-7-9-14(2)3/h9,15-16H,6-8,10-13H2,1-5H3
computed SMILES=O=C(OCC)CC(C)CCCC(C)CCC=C(C)C
accession=JP009919
date=2016.01.19 (Created 2008.10.21, modified 2011.05.06)
author=KURARAY CO., LTD.
license=CC BY-NC-SA
exact mass=268.24023
ionization energy=70 eV
ion type=[M]+*
computed spectral entropy=3.5421008388713067
computed normalized entropy=0.8760959493764837
SPLASH=splash10-014l-9400000000-2b60207f89a885f8ed67
submitter=submitter = University of Tokyo Team (Faculty of Engineering, University of Tokyo)
MoNA Rating=3.75

>  <NUM PEAKS>  (1501) 
57

>  <MASS SPECTRAL PEAKS>  (1501) 
27 6.4
29 25
41 37.3
42 0.48
43 35.3
45 6.6
53 5.8
55 6.27
56 29.5
57 30.6
59 4.5
60 0.48
61 7.2
67 16.3
68 24.2
69 99.99
70 28.1
71 15.3
73 6.7
81 2.27
82 15.6
83 39.1
84 5
85 0.45
87 13.4
88 41.4
89 8.1
94 0.88
95 45.3
96 16.4
97 28
98 3.05
99 5.3
101 6.6
109 29.5
110 2.27
111 27.2
115 43
123 19.5
124 2.63
125 57.2
126 12.8
129 6.1
137 0.98
139 4.8
142 5.9
143 16.4
151 1.22
152 18.6
160 0.3
165 7
179 0.59
180 13.4
205 4.2
222 16.9
223 1.14
268 10.3

$$$$

     RDKit          2D

 20 21  0  0  0  0  0  0  0  0999 V2000
   -0.9777    6.4882    0.0000 C   0  0  0  0  0  0  0  0  0  0  0  0
   -7.4311    4.2601    0.0000 C   0  0  0  0  0  0  0  0  0  0  0  0
    2.9194    2.7382    0.0000 C   0  0  0  0  0  0  0  0  0  0  0  0
    2.9199    4.2390    0.0000 C   0  0  0  0  0  0  0  0  0  0  0  0
    1.6199    1.9873    0.0000 C   0  0  0  0  0  0  0  0  0  0  0  0
   -6.1490    0.5246    0.0000 C   0  0  0  0  0  0  0  0  0  0  0  0
   -4.8792   -0.2257    0.0000 C   0  0  0  0  0  0  0  0  0  0  0  0
    1.6209    4.9890    0.0000 C   0  0  0  0  0  0  0  0  0  0  0  0
    0.3209    2.7373    0.0000 C   0  0  0  0  0  0  0  0  0  0  0  0
   -6.1322    2.0068    0.0000 C   0  0  0  0  0  0  0  0  0  0  0  0
   -3.5606    0.4894    0.0000 C   0  0  0  0  0  0  0  0  0  0  0  0
   -0.9777    4.9882    0.0000 C   0  0  0  0  0  0  0  0  0  0  0  0
    0.3213    4.2382    0.0000 C   0  0  0  0  0  0  0  0  0  0  0  0
   -4.8456    2.7385    0.0000 C   0  0  0  0  0  0  0  0  0  0  0  0
   -3.5758    1.9882    0.0000 C   0  0  0  0  0  0  0  0  0  0  0  0
   -4.8331    4.2385    0.0000 C   0  0  0  0  0  0  0  0  0  0  0  0
   -2.2767    4.2382    0.0000 N   0  0  0  0  0  0  0  0  0  0  0  0
   -2.2767    2.7382    0.0000 N   0  0  0  0  0  0  0  0  0  0  0  0
   -3.5279    4.9777    0.0000 O   0  0  0  0  0  0  0  0  0  0  0  0
   -6.1259    4.9992    0.0000 O   0  0  0  0  0  0  0  0  0  0  0  0
  4  3  2  0
  5  3  1  0
  7  6  2  0
  8  4  1  0
  9  5  2  0
 10  6  1  0
 11  7  1  0
 12  1  1  0
 13  8  2  0
 13  9  1  0
 13 12  1  0
 14 10  2  0
 15 11  2  0
 15 14  1  0
 16 14  1  0
 12 17  2  0
 18 15  1  0
 18 17  1  0
 19 16  2  0
 20  2  1  0
 20 16  1  0
M  END
>  <NAME>  (1502) 
ACETOPHENONE 2-METHOXYCARBONYLPHENYLHYDRAZONE

>  <SYNONYMS>  (1502) 


>  <SPECTRUM TYPE>  (1502) 
MS1

>  <INSTRUMENT TYPE>  (1502) 
EI-B

>  <INSTRUMENT>  (1502) 
JEOL JMS-D-300

>  <ION MODE>  (1502) 
P

>  <INCHIKEY>  (1502) 
GMSDKZMVKPYFOV-ATVHPVEESA-N

>  <FORMULA>  (1502) 
C16H16N2O2

>  <EXACT MASS>  (1502) 
268.121177752

>  <MW>  (1502) 
268

>  <ID>  (1502) 
JP009918

>  <CONTRIBUTOR>  (1502) 
University of Tokyo Team, {Faculty of Engineering, University of Tokyo

>  <COMMENT>  (1502) 
SMILES=COC(=O)c(c2)c(ccc2)NN=C(C)c(c1)cccc1
InChI=InChI=1S/C16H16N2O2/c1-12(13-8-4-3-5-9-13)17-18-15-11-7-6-10-14(15)16(19)20-2/h3-11,18H,1-2H3/b17-12-
computed SMILES=O=C(OC)C=1C=CC=CC1NN=C(C=2C=CC=CC2)C
accession=JP009918
date=2016.01.19 (Created 2008.10.21, modified 2011.05.06)
author=KURARAY CO., LTD.
license=CC BY-NC-SA
exact mass=268.12118
ionization energy=70 eV
ion type=[M]+*
computed spectral entropy=3.0657388023026435
computed normalized entropy=0.7168525007530835
SPLASH=splash10-00n0-5590000000-7949f8e2c9baa967d3cf
submitter=submitter = University of Tokyo Team (Faculty of Engineering, University of Tokyo)
MoNA Rating=3.75

>  <NUM PEAKS>  (1502) 
72

>  <MASS SPECTRAL PEAKS>  (1502) 
26 0.2
27 2.6
28 3.4
38 0.17
39 8.6
40 0.3
42 2.8
50 0.52
51 21
52 5.2
53 1.4
59 0.1
62 1.2
63 6.9
64 5.9
65 0.72
66 0.3
74 0.3
75 1.7
76 0.59
77 55.7
78 16.6
79 2.4
84 0.29
89 1.6
90 6.9
91 8.8
92 0.97
93 1
102 2.8
103 37.9
104 1.09
105 12.1
106 1.7
118 14.7
119 0.81
120 2.9
129 0.3
131 0.3
133 0.17
134 35.9
135 6
136 0.3
139 0.16
140 0.5
150 0.5
151 1.6
152 0.03
165 9.1
166 4.3
167 3.4
168 0.14
178 2.9
179 2.4
180 1.2
191 0.02
193 4
194 3.6
195 1.2
206 0.07
207 10.3
208 8.8
209 2.6
220 0.1
221 2.2
235 99.99
236 34.3
237 0.41
267 1.2
268 88.1
269 15.9
270 1.6

$$$$

     RDKit          2D

 16 15  0  0  0  0  0  0  0  0999 V2000
    3.2476    5.6250    0.0000 C   0  0  0  0  0  0  0  0  0  0  0  0
   -9.7428    5.6250    0.0000 C   0  0  0  0  0  0  0  0  0  0  0  0
   -8.4437    7.8750    0.0000 C   0  0  0  0  0  0  0  0  0  0  0  0
    1.9486    3.3750    0.0000 C   0  0  0  0  0  0  0  0  0  0  0  0
   -0.6495    3.3750    0.0000 C   0  0  0  0  0  0  0  0  0  0  0  0
   -3.2476    7.8750    0.0000 C   0  0  0  0  0  0  0  0  0  0  0  0
    1.9486    6.3750    0.0000 C   0  0  0  0  0  0  0  0  0  0  0  0
   -5.8457    6.3750    0.0000 C   0  0  0  0  0  0  0  0  0  0  0  0
   -7.1447    5.6250    0.0000 C   0  0  0  0  0  0  0  0  0  0  0  0
   -4.5466    5.6250    0.0000 C   0  0  0  0  0  0  0  0  0  0  0  0
   -1.9486    5.6250    0.0000 C   0  0  0  0  0  0  0  0  0  0  0  0
   -0.6495    6.3750    0.0000 C   0  0  0  0  0  0  0  0  0  0  0  0
   -8.4437    6.3750    0.0000 C   0  0  0  0  0  0  0  0  0  0  0  0
    0.6495    4.1250    0.0000 C   0  0  0  0  0  0  0  0  0  0  0  0
   -3.2476    6.3750    0.0000 C   0  0  0  0  0  0  0  0  0  0  0  0
    0.6495    5.6250    0.0000 C   0  0  0  0  0  0  0  0  0  0  0  0
  7  1  1  0
  9  8  1  0
 10  8  1  0
 12 11  1  0
 13  2  1  0
 13  3  1  0
 13  9  1  0
 14  4  1  0
 14  5  1  0
 15  6  1  0
 15 10  1  0
 15 11  1  0
 16  7  1  0
 16 12  1  0
 16 14  1  0
M  END
>  <NAME>  (1503) 
3-ETHYL-2,6,10-TRIMETHYLUNDECANE

>  <SYNONYMS>  (1503) 


>  <SPECTRUM TYPE>  (1503) 
MS1

>  <INSTRUMENT TYPE>  (1503) 
EI-B

>  <INSTRUMENT>  (1503) 
JEOL JMS-D-300

>  <ION MODE>  (1503) 
P

>  <INCHIKEY>  (1503) 
OHXPAEQCBFOPSB-UHFFFAOYSA-N

>  <FORMULA>  (1503) 
C16H34

>  <EXACT MASS>  (1503) 
226.26605108799998

>  <MW>  (1503) 
226

>  <ID>  (1503) 
JP009917

>  <CONTRIBUTOR>  (1503) 
University of Tokyo Team, {Faculty of Engineering, University of Tokyo

>  <COMMENT>  (1503) 
SMILES=CC(C)CCCC(C)CCC(CC)C(C)C
InChI=InChI=1S/C16H34/c1-7-16(14(4)5)12-11-15(6)10-8-9-13(2)3/h13-16H,7-12H2,1-6H3
computed SMILES=CCC(CCC(C)CCCC(C)C)C(C)C
accession=JP009917
date=2016.01.19 (Created 2008.10.21, modified 2011.05.06)
author=KURARAY CO., LTD.
license=CC BY-NC-SA
exact mass=226.26605
ionization energy=70 eV
ion type=[M]+*
computed spectral entropy=2.7373022777007154
computed normalized entropy=0.7898184842905772
SPLASH=splash10-0abc-9100000000-d3b192aec0e266f38738
submitter=submitter = University of Tokyo Team (Faculty of Engineering, University of Tokyo)
MoNA Rating=3.75

>  <NUM PEAKS>  (1503) 
32

>  <MASS SPECTRAL PEAKS>  (1503) 
27 3.7
29 10.8
39 2.8
41 23.5
42 6
43 66.3
44 2
55 19.5
56 16.7
57 99.99
58 4.3
69 8.5
70 14
71 93.5
72 4.6
83 2.3
84 11.3
85 46.7
86 3
97 5.8
98 1.7
99 14.5
112 11.2
113 17
127 5.2
140 5.8
141 15.3
155 2.3
183 6.7
197 1
216 1.8
226 1.3

$$$$

     RDKit          2D

 16 15  0  0  0  0  0  0  0  0999 V2000
    4.2219    6.1875    0.0000 C   0  0  0  0  0  0  0  0  0  0  0  0
    2.9228    8.4375    0.0000 C   0  0  0  0  0  0  0  0  0  0  0  0
   -2.2733    8.4375    0.0000 C   0  0  0  0  0  0  0  0  0  0  0  0
  -11.3666    6.1875    0.0000 C   0  0  0  0  0  0  0  0  0  0  0  0
   -4.8714    6.9375    0.0000 C   0  0  0  0  0  0  0  0  0  0  0  0
   -6.1704    6.1875    0.0000 C   0  0  0  0  0  0  0  0  0  0  0  0
    0.3248    6.9375    0.0000 C   0  0  0  0  0  0  0  0  0  0  0  0
    1.6238    6.1875    0.0000 C   0  0  0  0  0  0  0  0  0  0  0  0
   -3.5724    6.1875    0.0000 C   0  0  0  0  0  0  0  0  0  0  0  0
   -0.9743    6.1875    0.0000 C   0  0  0  0  0  0  0  0  0  0  0  0
   -7.4695    6.9375    0.0000 C   0  0  0  0  0  0  0  0  0  0  0  0
    2.9228    6.9375    0.0000 C   0  0  0  0  0  0  0  0  0  0  0  0
   -2.2733    6.9375    0.0000 C   0  0  0  0  0  0  0  0  0  0  0  0
  -10.0675    6.9375    0.0000 C   0  0  0  0  0  0  0  0  0  0  0  0
  -10.0675    8.4375    0.0000 O   0  0  0  0  0  0  0  0  0  0  0  0
   -8.7685    6.1875    0.0000 O   0  0  0  0  0  0  0  0  0  0  0  0
  6  5  1  0
  8  7  1  0
  9  5  1  0
 10  7  1  0
 11  6  1  0
 12  1  1  0
 12  2  1  0
 12  8  2  0
 13  3  1  0
  9 13  2  0
 13 10  1  0
 14  4  1  0
 15 14  2  0
 16 11  1  0
 16 14  1  0
M  END
>  <NAME>  (1504) 
5,9-DIMETHYL-4,8-DECADIENYL ACETATE(E)

>  <SYNONYMS>  (1504) 


>  <SPECTRUM TYPE>  (1504) 
MS1

>  <INSTRUMENT TYPE>  (1504) 
EI-B

>  <INSTRUMENT>  (1504) 
JEOL JMS-D-300

>  <ION MODE>  (1504) 
P

>  <INCHIKEY>  (1504) 
PLVUZLFGBFWHDU-UKTHLTGXSA-N

>  <FORMULA>  (1504) 
C14H24O2

>  <EXACT MASS>  (1504) 
224.177630008

>  <MW>  (1504) 
224

>  <ID>  (1504) 
JP009916

>  <CONTRIBUTOR>  (1504) 
University of Tokyo Team, {Faculty of Engineering, University of Tokyo

>  <COMMENT>  (1504) 
SMILES=CC(C)=CCCC(C)=C([H])CCCOC(C)=O
InChI=InChI=1S/C14H24O2/c1-12(2)8-7-10-13(3)9-5-6-11-16-14(4)15/h8-9H,5-7,10-11H2,1-4H3/b13-9+
computed SMILES=O=C(OCCCC=C(C)CCC=C(C)C)C
accession=JP009916
date=2016.01.19 (Created 2008.10.21, modified 2011.05.06)
author=KURARAY CO., LTD.
license=CC BY-NC-SA
exact mass=224.17763
ionization energy=70 eV
ion type=[M]+*
computed spectral entropy=2.665425464637094
computed normalized entropy=0.828060978321906
SPLASH=splash10-014j-9200000000-5d358e60056b14805d5a
submitter=submitter = University of Tokyo Team (Faculty of Engineering, University of Tokyo)
MoNA Rating=3.75

>  <NUM PEAKS>  (1504) 
25

>  <MASS SPECTRAL PEAKS>  (1504) 
39 3.4
41 35.7
43 28
53 6.7
55 11
67 21.6
68 13.3
69 99.99
70 6.2
79 6.2
81 14
82 3.2
93 11
94 6
95 89.2
96 25
107 4
108 4
109 4.8
121 19
122 2.8
123 9.8
149 8.7
164 7
181 26.8

$$$$

     RDKit          2D

 16 15  0  0  0  0  0  0  0  0999 V2000
    3.8971    6.7500    0.0000 C   0  0  0  0  0  0  0  0  0  0  0  0
    2.5981    4.5000    0.0000 C   0  0  0  0  0  0  0  0  0  0  0  0
   -2.5981    4.5000    0.0000 C   0  0  0  0  0  0  0  0  0  0  0  0
   -7.7942   13.5000    0.0000 C   0  0  0  0  0  0  0  0  0  0  0  0
   -3.8971    8.2500    0.0000 C   0  0  0  0  0  0  0  0  0  0  0  0
   -5.1962    9.0000    0.0000 C   0  0  0  0  0  0  0  0  0  0  0  0
    0.0000    6.0000    0.0000 C   0  0  0  0  0  0  0  0  0  0  0  0
    1.2990    6.7500    0.0000 C   0  0  0  0  0  0  0  0  0  0  0  0
   -3.8971    6.7500    0.0000 C   0  0  0  0  0  0  0  0  0  0  0  0
   -1.2990    6.7500    0.0000 C   0  0  0  0  0  0  0  0  0  0  0  0
   -5.1962   10.5000    0.0000 C   0  0  0  0  0  0  0  0  0  0  0  0
    2.5981    6.0000    0.0000 C   0  0  0  0  0  0  0  0  0  0  0  0
   -2.5981    6.0000    0.0000 C   0  0  0  0  0  0  0  0  0  0  0  0
   -6.4952   12.7500    0.0000 C   0  0  0  0  0  0  0  0  0  0  0  0
   -5.1962   13.5000    0.0000 O   0  0  0  0  0  0  0  0  0  0  0  0
   -6.4952   11.2500    0.0000 O   0  0  0  0  0  0  0  0  0  0  0  0
  6  5  1  0
  8  7  1  0
  9  5  1  0
 10  7  1  0
 11  6  1  0
 12  1  1  0
 12  2  1  0
 12  8  2  0
 13  3  1  0
  9 13  2  0
 13 10  1  0
 14  4  1  0
 15 14  2  0
 16 11  1  0
 16 14  1  0
M  END
>  <NAME>  (1505) 
5,9-DIMETHYL-4,8-DECADIENYL ACETATE(Z)

>  <SYNONYMS>  (1505) 


>  <SPECTRUM TYPE>  (1505) 
MS1

>  <INSTRUMENT TYPE>  (1505) 
EI-B

>  <INSTRUMENT>  (1505) 
JEOL JMS-D-300

>  <ION MODE>  (1505) 
P

>  <INCHIKEY>  (1505) 
PLVUZLFGBFWHDU-LCYFTJDESA-N

>  <FORMULA>  (1505) 
C14H24O2

>  <EXACT MASS>  (1505) 
224.177630008

>  <MW>  (1505) 
224

>  <ID>  (1505) 
JP009915

>  <CONTRIBUTOR>  (1505) 
University of Tokyo Team, {Faculty of Engineering, University of Tokyo

>  <COMMENT>  (1505) 
SMILES=CC(C)=CCCC(C)=C([H])CCCOC(C)=O
InChI=InChI=1S/C14H24O2/c1-12(2)8-7-10-13(3)9-5-6-11-16-14(4)15/h8-9H,5-7,10-11H2,1-4H3/b13-9-
computed SMILES=O=C(OCCCC=C(C)CCC=C(C)C)C
accession=JP009915
date=2016.01.19 (Created 2008.10.21, modified 2011.05.06)
author=KURARAY CO., LTD.
license=CC BY-NC-SA
exact mass=224.17763
ionization energy=70 eV
ion type=[M]+*
computed spectral entropy=2.8067375912240426
computed normalized entropy=0.8335286630385893
SPLASH=splash10-014j-9200000000-57ac7e208f3c75cd783b
submitter=submitter = University of Tokyo Team (Faculty of Engineering, University of Tokyo)
MoNA Rating=3.75

>  <NUM PEAKS>  (1505) 
29

>  <MASS SPECTRAL PEAKS>  (1505) 
39 3
41 30
43 25.8
53 5.7
55 8.3
67 16
68 13.2
69 99.99
70 6
77 2.3
79 7
80 2.2
81 16.4
82 5.3
91 2.2
93 11.6
94 8
95 50
96 17.5
117 4.2
118 6.3
119 6.2
121 14.7
122 2.2
123 6
136 2
149 9.6
164 5.7
181 19

$$$$

     RDKit          2D

 16 17  0  0  0  0  0  0  0  0999 V2000
    3.2481    2.1950    0.0000 C   0  0  0  0  0  0  0  0  0  0  0  0
   -7.1442    2.1950    0.0000 C   0  0  0  0  0  0  0  0  0  0  0  0
    1.9486    1.4442    0.0000 C   0  0  0  0  0  0  0  0  0  0  0  0
    3.2486    3.6958    0.0000 C   0  0  0  0  0  0  0  0  0  0  0  0
   -7.1447    3.6958    0.0000 C   0  0  0  0  0  0  0  0  0  0  0  0
   -5.8447    1.4442    0.0000 C   0  0  0  0  0  0  0  0  0  0  0  0
    0.6495    2.1942    0.0000 C   0  0  0  0  0  0  0  0  0  0  0  0
    1.9495    4.4458    0.0000 C   0  0  0  0  0  0  0  0  0  0  0  0
   -5.8457    4.4458    0.0000 C   0  0  0  0  0  0  0  0  0  0  0  0
   -4.5457    2.1942    0.0000 C   0  0  0  0  0  0  0  0  0  0  0  0
    0.6500    3.6950    0.0000 C   0  0  0  0  0  0  0  0  0  0  0  0
   -4.5462    3.6950    0.0000 C   0  0  0  0  0  0  0  0  0  0  0  0
   -1.9481    3.6950    0.0000 C   0  0  0  0  0  0  0  0  0  0  0  0
   -0.6490    4.4450    0.0000 N   0  0  0  0  0  0  0  0  0  0  0  0
   -3.2471    4.4450    0.0000 N   0  0  0  0  0  0  0  0  0  0  0  0
   -1.9481    2.1950    0.0000 O   0  0  0  0  0  0  0  0  0  0  0  0
  3  1  1  0
  4  1  1  0
  5  2  1  0
  6  2  1  0
  7  3  1  0
  8  4  1  0
  9  5  1  0
 10  6  1  0
 11  7  1  0
 11  8  1  0
 12  9  1  0
 12 10  1  0
 14 11  1  0
 14 13  2  3
 15 12  1  0
 15 13  1  0
 16 13  1  0
M  END
>  <NAME>  (1506) 
1,3-DICYCLOHEXYLUREA

>  <SYNONYMS>  (1506) 


>  <SPECTRUM TYPE>  (1506) 
MS1

>  <INSTRUMENT TYPE>  (1506) 
EI-B

>  <INSTRUMENT>  (1506) 
JEOL JMS-D-300

>  <ION MODE>  (1506) 
P

>  <INCHIKEY>  (1506) 
ADFXKUOMJKEIND-UHFFFAOYSA-N

>  <FORMULA>  (1506) 
C13H24N2O

>  <EXACT MASS>  (1506) 
224.18886338800002

>  <MW>  (1506) 
224

>  <ID>  (1506) 
JP009914

>  <CONTRIBUTOR>  (1506) 
University of Tokyo Team, {Faculty of Engineering, University of Tokyo

>  <COMMENT>  (1506) 
SMILES=O=C(NC(C2)CCCC2)NC(C1)CCCC1
cas=2387-23-7
InChI=InChI=1S/C13H24N2O/c16-13(14-11-7-3-1-4-8-11)15-12-9-5-2-6-10-12/h11-12H,1-10H2,(H2,14,15,16)
computed SMILES=OC(=NC1CCCCC1)NC2CCCCC2
accession=JP009914
date=2016.01.19 (Created 2008.10.21, modified 2011.05.06)
author=KURARAY CO., LTD.
license=CC BY-NC-SA
exact mass=224.18886
ionization energy=70 eV
ion type=[M]+*
computed spectral entropy=2.8455055253190915
computed normalized entropy=0.7940534357954371
SPLASH=splash10-0a4i-9000000000-88dd38a5b2f34d764ec2
submitter=submitter = University of Tokyo Team (Faculty of Engineering, University of Tokyo)
MoNA Rating=3.75

>  <NUM PEAKS>  (1506) 
36

>  <MASS SPECTRAL PEAKS>  (1506) 
27 2.5
28 3.8
29 4.6
30 5.2
39 2
41 13.2
42 2
43 15.5
44 1
53 1.8
54 3
55 17
56 99.99
57 7
60 1.3
61 28.3
67 3.8
69 2.2
70 15
71 3
77 4.1
79 2.7
81 4.7
82 5
83 10
84 1.2
96 1.6
97 1.5
98 20.8
99 33.7
100 7
141 1.8
142 3
143 20.2
224 19
225 3.7

$$$$

     RDKit          2D

 16 17  0  0  0  0  0  0  0  0999 V2000
    1.9487   -0.3759    0.0000 C   0  0  0  0  0  0  0  0  0  0  0  0
   -5.8459    4.1256    0.0000 C   0  0  0  0  0  0  0  0  0  0  0  0
   -0.6491    5.6249    0.0000 C   0  0  0  0  0  0  0  0  0  0  0  0
    3.2485    3.3758    0.0000 C   0  0  0  0  0  0  0  0  0  0  0  0
   -3.2467    1.1241    0.0000 C   0  0  0  0  0  0  0  0  0  0  0  0
    1.9494    4.1258    0.0000 C   0  0  0  0  0  0  0  0  0  0  0  0
   -1.9477    1.8741    0.0000 C   0  0  0  0  0  0  0  0  0  0  0  0
    0.6494    1.8741    0.0000 C   0  0  0  0  0  0  0  0  0  0  0  0
   -3.2477    4.1258    0.0000 C   0  0  0  0  0  0  0  0  0  0  0  0
    1.9485    1.1241    0.0000 C   0  0  0  0  0  0  0  0  0  0  0  0
   -4.5467    3.3758    0.0000 C   0  0  0  0  0  0  0  0  0  0  0  0
   -0.6491    4.1249    0.0000 C   0  0  0  0  0  0  0  0  0  0  0  0
    3.2480    1.8749    0.0000 N   0  0  0  0  0  0  0  0  0  0  0  0
   -4.5462    1.8749    0.0000 N   0  0  0  0  0  0  0  0  0  0  0  0
    0.6499    3.3749    0.0000 N   0  0  0  0  0  0  0  0  0  0  0  0
   -1.9482    3.3749    0.0000 N   0  0  0  0  0  0  0  0  0  0  0  0
  6  4  1  0
  7  5  1  0
 10  1  1  0
 10  8  1  0
 11  2  1  0
 11  9  1  0
 12  3  2  0
 13  4  1  0
 13 10  1  0
 14  5  1  0
 14 11  1  0
 15  6  1  0
 15  8  1  0
 15 12  1  0
 16  7  1  0
 16  9  1  0
 16 12  1  0
M  END
>  <NAME>  (1507) 
1,1-BIS(3-METHYLPIPERAZINYL)ETHYLENE

>  <SYNONYMS>  (1507) 


>  <SPECTRUM TYPE>  (1507) 
MS1

>  <INSTRUMENT TYPE>  (1507) 
EI-B

>  <INSTRUMENT>  (1507) 
JEOL JMS-D-300

>  <ION MODE>  (1507) 
P

>  <INCHIKEY>  (1507) 
OUPYNEDRGBWKKS-UHFFFAOYSA-N

>  <FORMULA>  (1507) 
C12H24N4

>  <EXACT MASS>  (1507) 
224.20009676799998

>  <MW>  (1507) 
224

>  <ID>  (1507) 
JP009913

>  <CONTRIBUTOR>  (1507) 
University of Tokyo Team, {Faculty of Engineering, University of Tokyo

>  <COMMENT>  (1507) 
SMILES=CC(N2)CN(CC2)C(=C)N(C1)CC(C)NC1
InChI=InChI=1S/C12H24N4/c1-10-8-15(6-4-13-10)12(3)16-7-5-14-11(2)9-16/h10-11,13-14H,3-9H2,1-2H3
computed SMILES=C=C(N1CCNC(C)C1)N2CCNC(C)C2
accession=JP009913
date=2016.01.19 (Created 2008.10.21, modified 2011.05.06)
author=KURARAY CO., LTD.
license=CC BY-NC-SA
exact mass=224.2001
ionization energy=70 eV
ion type=[M]+*
computed spectral entropy=3.419835047889833
computed normalized entropy=0.8697829881942808
SPLASH=splash10-0pkd-9400000000-3ff71f89c84f39851a76
submitter=submitter = University of Tokyo Team (Faculty of Engineering, University of Tokyo)
MoNA Rating=3.75

>  <NUM PEAKS>  (1507) 
51

>  <MASS SPECTRAL PEAKS>  (1507) 
27 5.2
28 2.4
29 7.5
30 6.8
32 4
41 9.7
42 42.8
43 36.3
44 10.6
54 8
55 27.6
56 99.99
57 32.1
58 46.3
59 4.3
68 5.8
69 5.8
70 52.3
71 15
72 4.8
82 19.3
83 28
84 13.7
85 11
95 3.6
96 4.7
97 30
98 57.5
99 52.8
100 16
109 4.8
110 3
111 12
112 3.2
113 3
123 8.7
124 3.5
125 74.6
126 25
127 10.8
139 4
141 4
142 10.2
152 6.8
154 91.8
155 10.6
167 10.8
168 5.7
223 6.6
224 40.8
225 6

$$$$

     RDKit          2D

 17 18  0  0  0  0  0  0  0  0999 V2000
    1.9465    2.1985    0.0000 C   0  0  0  0  0  0  0  0  0  0  0  0
    1.9470    3.6994    0.0000 C   0  0  0  0  0  0  0  0  0  0  0  0
    0.6470    1.4477    0.0000 C   0  0  0  0  0  0  0  0  0  0  0  0
   -7.1480   -0.0613    0.0000 C   0  0  0  0  0  0  0  0  0  0  0  0
   -3.2496    3.6985    0.0000 C   0  0  0  0  0  0  0  0  0  0  0  0
    0.6480    4.4494    0.0000 C   0  0  0  0  0  0  0  0  0  0  0  0
   -0.6520    2.1977    0.0000 C   0  0  0  0  0  0  0  0  0  0  0  0
   -1.9506    4.4485    0.0000 C   0  0  0  0  0  0  0  0  0  0  0  0
   -7.1445    1.4446    0.0000 C   0  0  0  0  0  0  0  0  0  0  0  0
   -5.8376   -0.8031    0.0000 C   0  0  0  0  0  0  0  0  0  0  0  0
   -4.5487    4.4485    0.0000 C   0  0  0  0  0  0  0  0  0  0  0  0
   -4.5546    1.4467    0.0000 C   0  0  0  0  0  0  0  0  0  0  0  0
   -0.6516    3.6985    0.0000 C   0  0  0  0  0  0  0  0  0  0  0  0
   -5.8477    2.1985    0.0000 C   0  0  0  0  0  0  0  0  0  0  0  0
   -4.5408   -0.0491    0.0000 C   0  0  0  0  0  0  0  0  0  0  0  0
   -5.8477    3.6985    0.0000 N   0  0  0  0  0  0  0  0  0  0  0  0
   -3.2372   -0.7912    0.0000 O   0  0  0  0  0  0  0  0  0  0  0  0
  2  1  2  0
  3  1  1  0
  6  2  1  0
  7  3  2  0
  5  8  2  3
  9  4  2  0
 10  4  1  0
 11  5  1  0
 13  6  2  0
 13  7  1  0
 13  8  1  0
 14  9  1  0
 14 12  2  0
 15 10  2  0
 15 12  1  0
 11 16  2  0
 16 14  1  0
 17 15  1  0
M  END
>  <NAME>  (1508) 
N-PHENYLPROPADIENYL-3-PHENOLAMINE

>  <SYNONYMS>  (1508) 


>  <SPECTRUM TYPE>  (1508) 
MS1

>  <INSTRUMENT TYPE>  (1508) 
EI-B

>  <INSTRUMENT>  (1508) 
JEOL JMS-D-300

>  <ION MODE>  (1508) 
P

>  <INCHIKEY>  (1508) 
LAMWJTQGOKUQKO-HWMYPRNFSA-N

>  <FORMULA>  (1508) 
C15H13NO

>  <EXACT MASS>  (1508) 
223.099714036

>  <MW>  (1508) 
223

>  <ID>  (1508) 
JP009912

>  <CONTRIBUTOR>  (1508) 
University of Tokyo Team, {Faculty of Engineering, University of Tokyo

>  <COMMENT>  (1508) 
SMILES=Oc(c1)cc(N=CC=Cc(c2)cccc2)cc1
InChI=InChI=1S/C15H13NO/c17-15-10-4-9-14(12-15)16-11-5-8-13-6-2-1-3-7-13/h1-12,17H/b8-5?,16-11-
computed SMILES=OC1=CC=CC(N=CC=CC=2C=CC=CC2)=C1
computed InChI=InChI=1S/C15H13NO/c17-15-10-4-9-14(12-15)16-11-5-8-13-6-2-1-3-7-13/h1-12,17H/b8-5+,16-11-
accession=JP009912
date=2016.01.19 (Created 2008.10.21, modified 2011.05.06)
author=KURARAY CO., LTD.
license=CC BY-NC-SA
exact mass=223.09971
ionization energy=70 eV
ion type=[M]+*
computed spectral entropy=1.7582214298345473
computed normalized entropy=0.6083028679723596
SPLASH=splash10-00di-0190000000-4eb78dfb5cd1951949b1
submitter=submitter = University of Tokyo Team (Faculty of Engineering, University of Tokyo)
MoNA Rating=3.75

>  <NUM PEAKS>  (1508) 
18

>  <MASS SPECTRAL PEAKS>  (1508) 
39 2
51 1
65 5.2
77 1.7
93 3
102 1.6
103 2
109 6.6
115 6.5
117 1.7
127 2.5
130 1.7
194 1.3
220 4.6
221 8.2
222 99.99
223 44
224 6.7

$$$$

     RDKit          2D

 13 13  0  0  0  0  0  0  0  0999 V2000
   -1.1481   -1.5453    0.0000 C   0  0  0  0  0  0  0  0  0  0  0  0
    1.1481   -1.5453    0.0000 C   0  0  0  0  0  0  0  0  0  0  0  0
    4.6482    1.4541    0.0000 C   0  0  0  0  0  0  0  0  0  0  0  0
   -2.0502    1.4580    0.0000 C   0  0  0  0  0  0  0  0  0  0  0  0
   -0.7500    0.7100    0.0000 C   0  0  0  0  0  0  0  0  0  0  0  0
   -2.0524    2.9580    0.0000 C   0  0  0  0  0  0  0  0  0  0  0  0
    0.7500    0.7100    0.0000 C   0  0  0  0  0  0  0  0  0  0  0  0
    2.0502    1.4580    0.0000 C   0  0  0  0  0  0  0  0  0  0  0  0
   -0.0000   -0.5800    0.0000 C   0  0  0  0  0  0  0  0  0  0  0  0
   -3.3526    3.7061    0.0000 Cl  0  0  0  0  0  0  0  0  0  0  0  0
   -0.7545    3.7100    0.0000 Cl  0  0  0  0  0  0  0  0  0  0  0  0
    2.0524    2.9580    0.0000 O   0  0  0  0  0  0  0  0  0  0  0  0
    3.3481    0.7061    0.0000 O   0  0  0  0  0  0  0  0  0  0  0  0
  5  4  1  0
  6  4  2  0
  7  5  1  0
  8  7  1  0
  9  1  1  0
  9  2  1  0
  9  5  1  0
  9  7  1  0
 10  6  1  0
 11  6  1  0
 12  8  2  0
 13  3  1  0
 13  8  1  0
M  END
>  <NAME>  (1509) 
METHYL 2,2-DIMETHYL-3-(2,2-DICHLOROETHENYL)CYCLOPROPANOATE

>  <SYNONYMS>  (1509) 


>  <SPECTRUM TYPE>  (1509) 
MS1

>  <INSTRUMENT TYPE>  (1509) 
EI-B

>  <INSTRUMENT>  (1509) 
JEOL JMS-D-300

>  <ION MODE>  (1509) 
P

>  <INCHIKEY>  (1509) 
QJOOIMSFFIUFKX-UHFFFAOYSA-N

>  <FORMULA>  (1509) 
C9H12Cl2O2

>  <EXACT MASS>  (1509) 
222.021434984

>  <MW>  (1509) 
222

>  <ID>  (1509) 
JP009911

>  <CONTRIBUTOR>  (1509) 
University of Tokyo Team, {Faculty of Engineering, University of Tokyo

>  <COMMENT>  (1509) 
SMILES=COC(=O)C(C(C=C(Cl)Cl)1)C(C)(C)1
InChI=InChI=1S/C9H12Cl2O2/c1-9(2)5(4-6(10)11)7(9)8(12)13-3/h4-5,7H,1-3H3
computed SMILES=O=C(OC)C1C(C=C(Cl)Cl)C1(C)C
accession=JP009911
date=2016.01.19 (Created 2008.10.21, modified 2011.05.06)
author=KURARAY CO., LTD.
license=CC BY-NC-SA
exact mass=222.02144
ionization energy=70 eV
ion type=[M]+*
computed spectral entropy=3.535759593503325
computed normalized entropy=0.8671311158130172
SPLASH=splash10-03g3-8900000000-dff0bb459c45d92cad23
submitter=submitter = University of Tokyo Team (Faculty of Engineering, University of Tokyo)
MoNA Rating=3.75

>  <NUM PEAKS>  (1509) 
59

>  <MASS SPECTRAL PEAKS>  (1509) 
27 10.6
29 3.3
36 4
38 5
39 25
41 20.8
43 11.6
50 6.7
51 8
52 20.8
53 14
55 6
61 41.3
63 9.8
65 12.8
67 7.5
73 42.3
75 11.8
77 25.3
79 8.5
81 5
83 7.7
85 14.2
87 5.7
89 5.7
91 96.4
92 12.6
93 10.8
95 5
99 4.8
109 17
111 14.8
112 3.2
113 14.8
114 2
121 5
123 5.8
125 6
127 63.4
128 14.5
129 22
130 4.3
139 6.8
145 3.8
149 6.8
151 5
152 5
163 99.99
164 7.8
165 62.7
166 5
167 5.3
179 3.2
187 70.7
188 6.8
189 23.2
191 13.5
193 3
222 3.8

$$$$

     RDKit          2D

 16 16  0  0  0  0  0  0  0  0999 V2000
  -10.4183    5.2950    0.0000 C   0  0  0  0  0  0  0  0  0  0  0  0
   -9.1192    6.0450    0.0000 C   0  0  0  0  0  0  0  0  0  0  0  0
   -7.8202    5.2950    0.0000 C   0  0  0  0  0  0  0  0  0  0  0  0
   -6.5212    6.0450    0.0000 C   0  0  0  0  0  0  0  0  0  0  0  0
   -5.2221    5.2950    0.0000 C   0  0  0  0  0  0  0  0  0  0  0  0
   -3.9231    6.0450    0.0000 C   0  0  0  0  0  0  0  0  0  0  0  0
   -2.6241    5.2950    0.0000 C   0  0  0  0  0  0  0  0  0  0  0  0
   -1.3250    6.0450    0.0000 C   0  0  0  0  0  0  0  0  0  0  0  0
    4.1976    3.4905    0.0000 C   0  0  0  0  0  0  0  0  0  0  0  0
    4.9476    4.7895    0.0000 C   0  0  0  0  0  0  0  0  0  0  0  0
   -0.0260    5.2950    0.0000 C   0  0  0  0  0  0  0  0  0  0  0  0
    2.7292    3.8071    0.0000 C   0  0  0  0  0  0  0  0  0  0  0  0
    3.9392    5.9029    0.0000 C   0  0  0  0  0  0  0  0  0  0  0  0
    1.2731    6.0450    0.0000 C   0  0  0  0  0  0  0  0  0  0  0  0
    2.5721    5.2950    0.0000 N   0  0  0  0  0  0  0  0  0  0  0  0
    1.2731    7.5450    0.0000 O   0  0  0  0  0  0  0  0  0  0  0  0
  2  1  1  0
  3  2  1  0
  4  3  1  0
  5  4  1  0
  6  5  1  0
  6  7  2  0
  8  7  1  0
 10  9  1  0
  8 11  2  0
 12  9  1  0
 13 10  1  0
 14 11  1  0
 15 12  1  0
 15 13  1  0
 15 14  1  0
 16 14  2  0
M  END
>  <NAME>  (1510) 
1-(1-OXO-2,4-DECADIENYL)PYROLIDINE

>  <SYNONYMS>  (1510) 


>  <SPECTRUM TYPE>  (1510) 
MS1

>  <INSTRUMENT TYPE>  (1510) 
EI-B

>  <INSTRUMENT>  (1510) 
JEOL JMS-D-300

>  <ION MODE>  (1510) 
P

>  <INCHIKEY>  (1510) 
BFZBGTMIBOQWBA-HRCSPUOPSA-N

>  <FORMULA>  (1510) 
C14H23NO

>  <EXACT MASS>  (1510) 
221.177964356

>  <MW>  (1510) 
221

>  <ID>  (1510) 
JP009910

>  <CONTRIBUTOR>  (1510) 
University of Tokyo Team, {Faculty of Engineering, University of Tokyo

>  <COMMENT>  (1510) 
SMILES=CCCCCC=CC=CC(=O)N(C1)CCC1
cas=78910-33-5
InChI=InChI=1S/C14H23NO/c1-2-3-4-5-6-7-8-11-14(16)15-12-9-10-13-15/h6-8,11H,2-5,9-10,12-13H2,1H3/b7-6+,11-8+
computed SMILES=O=C(C=CC=CCCCCC)N1CCCC1
accession=JP009910
date=2016.01.19 (Created 2008.10.21, modified 2011.05.06)
author=KURARAY CO., LTD.
license=CC BY-NC-SA
exact mass=221.17796
ionization energy=70 eV
ion type=[M]+*
computed spectral entropy=3.4262634897010225
computed normalized entropy=0.8899044515018681
SPLASH=splash10-0ue9-9300000000-77a82e6bbd52a716cca0
submitter=submitter = University of Tokyo Team (Faculty of Engineering, University of Tokyo)
MoNA Rating=3.75

>  <NUM PEAKS>  (1510) 
47

>  <MASS SPECTRAL PEAKS>  (1510) 
27 16
28 10.3
29 22.9
39 16.6
40 5
41 39.6
42 7.3
43 15.4
53 27.5
55 46.5
56 14.8
57 5
65 9.7
66 24.6
67 32.8
68 5.8
69 28
70 47.5
71 6.8
77 12
79 17.3
80 5.2
81 98
82 11
83 9.8
94 7.8
95 21.3
96 6.6
98 26.3
107 6.6
108 6.7
109 5.8
113 10.3
122 6.7
124 5
136 8
137 4.2
150 99.99
151 44.5
152 7.6
164 19.2
165 5
178 5.8
192 6.2
220 3
221 29.3
222 8

$$$$

     RDKit          2D

 16 16  0  0  0  0  0  0  0  0999 V2000
   -6.1702    4.2571    0.0000 C   0  0  0  0  0  0  0  0  0  0  0  0
   -3.5721   -0.2429    0.0000 C   0  0  0  0  0  0  0  0  0  0  0  0
    2.9231    2.0071    0.0000 C   0  0  0  0  0  0  0  0  0  0  0  0
    2.9236    3.5079    0.0000 C   0  0  0  0  0  0  0  0  0  0  0  0
    1.6236    1.2563    0.0000 C   0  0  0  0  0  0  0  0  0  0  0  0
    1.6245    4.2579    0.0000 C   0  0  0  0  0  0  0  0  0  0  0  0
    0.3245    2.0063    0.0000 C   0  0  0  0  0  0  0  0  0  0  0  0
   -0.9740    4.2571    0.0000 C   0  0  0  0  0  0  0  0  0  0  0  0
   -4.8712    3.5071    0.0000 C   0  0  0  0  0  0  0  0  0  0  0  0
    0.3250    3.5071    0.0000 C   0  0  0  0  0  0  0  0  0  0  0  0
   -2.2731    3.5071    0.0000 C   0  0  0  0  0  0  0  0  0  0  0  0
   -2.2731    2.0071    0.0000 C   0  0  0  0  0  0  0  0  0  0  0  0
   -3.5721    4.2571    0.0000 N   0  0  0  0  0  0  0  0  0  0  0  0
   -4.8712    2.0071    0.0000 O   0  0  0  0  0  0  0  0  0  0  0  0
   -0.9740    1.2571    0.0000 O   0  0  0  0  0  0  0  0  0  0  0  0
   -3.5721    1.2571    0.0000 O   0  0  0  0  0  0  0  0  0  0  0  0
  4  3  2  0
  5  3  1  0
  6  4  1  0
  7  5  2  0
  9  1  1  0
 10  6  2  0
 10  7  1  0
 10  8  1  0
 11  8  1  0
 12 11  1  0
 13  9  2  3
 13 11  1  0
 14  9  1  0
 15 12  2  0
 16  2  1  0
 16 12  1  0
M  END
>  <NAME>  (1511) 
METHYL 2-ACETYLAMINO-3-PHENYLPROPIONATE

>  <SYNONYMS>  (1511) 


>  <SPECTRUM TYPE>  (1511) 
MS1

>  <INSTRUMENT TYPE>  (1511) 
EI-B

>  <INSTRUMENT>  (1511) 
JEOL JMS-D-300

>  <ION MODE>  (1511) 
P

>  <INCHIKEY>  (1511) 
IKGHIFGXPVLPFD-UHFFFAOYSA-N

>  <FORMULA>  (1511) 
C12H15NO3

>  <EXACT MASS>  (1511) 
221.10519333999997

>  <MW>  (1511) 
221

>  <ID>  (1511) 
JP009909

>  <CONTRIBUTOR>  (1511) 
University of Tokyo Team, {Faculty of Engineering, University of Tokyo

>  <COMMENT>  (1511) 
SMILES=COC(=O)C(NC(C)=O)Cc(c1)cccc1
InChI=InChI=1S/C12H15NO3/c1-9(14)13-11(12(15)16-2)8-10-6-4-3-5-7-10/h3-7,11H,8H2,1-2H3,(H,13,14)
computed SMILES=O=C(OC)C(N=C(O)C)CC=1C=CC=CC1
accession=JP009909
date=2016.01.19 (Created 2008.10.21, modified 2011.05.06)
author=KURARAY CO., LTD.
license=CC BY-NC-SA
exact mass=221.10519
ionization energy=70 eV
ion type=[M]+*
computed spectral entropy=2.435168561238807
computed normalized entropy=0.7388619826293333
SPLASH=splash10-03du-7900000000-1173782815fdd71983d2
submitter=submitter = University of Tokyo Team (Faculty of Engineering, University of Tokyo)
MoNA Rating=3.75

>  <NUM PEAKS>  (1511) 
27

>  <MASS SPECTRAL PEAKS>  (1511) 
28 15.3
32 2
33 3.3
39 2
43 36
65 6.3
77 3.3
88 73
89 3.7
91 27
92 4.8
102 1.6
103 5
104 1
117 1.8
118 2.6
119 2.7
120 34
121 3.4
130 2
131 22.8
132 2.8
161 10.3
162 99.99
163 11
164 1
221 1.8

$$$$

     RDKit          2D

 17 16  0  0  0  0  0  0  0  0999 V2000
    4.8714    6.5625    0.0000 C   0  0  0  0  0  0  0  0  0  0  0  0
    3.5724    8.8125    0.0000 C   0  0  0  0  0  0  0  0  0  0  0  0
   -1.6238    8.8125    0.0000 C   0  0  0  0  0  0  0  0  0  0  0  0
   -6.8200    8.8125    0.0000 C   0  0  0  0  0  0  0  0  0  0  0  0
    0.9743    7.3125    0.0000 C   0  0  0  0  0  0  0  0  0  0  0  0
   -4.2219    7.3125    0.0000 C   0  0  0  0  0  0  0  0  0  0  0  0
   -9.4180    7.3125    0.0000 C   0  0  0  0  0  0  0  0  0  0  0  0
    2.2733    6.5625    0.0000 C   0  0  0  0  0  0  0  0  0  0  0  0
   -0.3248    6.5625    0.0000 C   0  0  0  0  0  0  0  0  0  0  0  0
   -2.9228    6.5625    0.0000 C   0  0  0  0  0  0  0  0  0  0  0  0
   -5.5209    6.5625    0.0000 C   0  0  0  0  0  0  0  0  0  0  0  0
   -8.1190    6.5625    0.0000 C   0  0  0  0  0  0  0  0  0  0  0  0
  -10.7171    6.5625    0.0000 C   0  0  0  0  0  0  0  0  0  0  0  0
    3.5724    7.3125    0.0000 C   0  0  0  0  0  0  0  0  0  0  0  0
   -1.6238    7.3125    0.0000 C   0  0  0  0  0  0  0  0  0  0  0  0
   -6.8200    7.3125    0.0000 C   0  0  0  0  0  0  0  0  0  0  0  0
  -12.0161    7.3125    0.0000 O   0  0  0  0  0  0  0  0  0  0  0  0
  8  5  1  0
  9  5  1  0
 10  6  1  0
 11  6  1  0
 12  7  1  0
 13  7  1  0
 14  1  1  0
 14  2  1  0
 14  8  2  0
 15  3  1  0
 15  9  1  0
 10 15  2  0
 16  4  1  0
 16 11  1  0
 12 16  2  0
 17 13  2  0
M  END
>  <NAME>  (1512) 
4,8,12-TRIMETHYL-3,7,11-TRIDECATRIENAL

>  <SYNONYMS>  (1512) 


>  <SPECTRUM TYPE>  (1512) 
MS1

>  <INSTRUMENT TYPE>  (1512) 
EI-B

>  <INSTRUMENT>  (1512) 
JEOL JMS-D-30

>  <ION MODE>  (1512) 
P

>  <INCHIKEY>  (1512) 
HXNIVGFVIQFPHU-NCZFFCEISA-N

>  <FORMULA>  (1512) 
C16H26O

>  <EXACT MASS>  (1512) 
234.198365452

>  <MW>  (1512) 
234

>  <ID>  (1512) 
JP009908

>  <CONTRIBUTOR>  (1512) 
University of Tokyo Team, {Faculty of Engineering, University of Tokyo

>  <COMMENT>  (1512) 
SMILES=O=CCC=C(C)CCC=C(C)CCC=C(C)C
InChI=InChI=1S/C16H26O/c1-14(2)8-5-9-15(3)10-6-11-16(4)12-7-13-17/h8,10,12-13H,5-7,9,11H2,1-4H3/b15-10+,16-12+
computed SMILES=O=CCC=C(C)CCC=C(C)CCC=C(C)C
accession=JP009908
date=2016.01.19 (Created 2008.10.21, modified 2011.05.06)
author=KURARAY CO., LTD.
license=CC BY-NC-SA
exact mass=234.19837
ionization energy=70 eV
ion type=[M]+*
computed spectral entropy=3.6237874424879637
computed normalized entropy=0.8780396043363563
SPLASH=splash10-05o3-9300000000-79d37e75c65b0a247bc3
submitter=submitter = University of Tokyo Team (Faculty of Engineering, University of Tokyo)
MoNA Rating=3.75

>  <NUM PEAKS>  (1512) 
62

>  <MASS SPECTRAL PEAKS>  (1512) 
27 8.7
29 9
39 11
41 52.5
42 3.8
43 12.8
54 12
55 15
56 2.8
57 5.6
65 3.8
67 15
68 7.7
69 99.99
70 8.7
71 19
77 7
79 8.6
80 10.3
81 59.7
82 12.8
83 7.5
84 44.2
85 5
91 8.2
92 3.7
93 16.5
94 9.3
95 27
96 10
97 6
105 7.8
107 16.6
108 6.6
109 27.8
110 6.8
111 2
119 4.5
121 10.2
122 5.3
123 13
124 3.9
125 2.8
127 1
132 3
133 10.7
134 2.7
135 8
136 14.8
137 10.8
138 8.6
139 2
142 2.9
149 5
150 2.2
151 3.8
159 6.7
177 8.5
187 2.8
202 3.8
205 3.1
220 4.5

$$$$

     RDKit          2D

 16 17  0  0  0  0  0  0  0  0999 V2000
   -3.7389    1.4102    0.0000 C   0  0  0  0  0  0  0  0  0  0  0  0
   -1.1400    2.9100    0.0000 C   0  0  0  0  0  0  0  0  0  0  0  0
   -1.1400   -3.0900    0.0000 C   0  0  0  0  0  0  0  0  0  0  0  0
    4.2372    0.3997    0.0000 C   0  0  0  0  0  0  0  0  0  0  0  0
    3.2727    2.0696    0.0000 C   0  0  0  0  0  0  0  0  0  0  0  0
    1.4600   -1.5900    0.0000 C   0  0  0  0  0  0  0  0  0  0  0  0
    2.7600   -0.8400    0.0000 C   0  0  0  0  0  0  0  0  0  0  0  0
   -2.4400    0.6600    0.0000 C   0  0  0  0  0  0  0  0  0  0  0  0
   -1.1400    1.4100    0.0000 C   0  0  0  0  0  0  0  0  0  0  0  0
   -1.1400   -1.5900    0.0000 C   0  0  0  0  0  0  0  0  0  0  0  0
    0.1600   -0.8400    0.0000 C   0  0  0  0  0  0  0  0  0  0  0  0
   -2.4400   -0.8400    0.0000 C   0  0  0  0  0  0  0  0  0  0  0  0
    0.1600    0.6600    0.0000 C   0  0  0  0  0  0  0  0  0  0  0  0
    2.7600    0.6600    0.0000 C   0  0  0  0  0  0  0  0  0  0  0  0
   -3.7389   -1.5902    0.0000 O   0  0  0  0  0  0  0  0  0  0  0  0
    1.4600    1.4100    0.0000 O   0  0  0  0  0  0  0  0  0  0  0  0
  7  6  1  0
  8  1  1  0
  9  2  1  0
  9  8  1  0
 10  3  1  0
 11  6  1  0
 11 10  2  0
 12  8  2  0
 12 10  1  0
 13  9  2  0
 13 11  1  0
 14  4  1  0
 14  5  1  0
 14  7  1  0
 15 12  1  0
 16 13  1  0
 16 14  1  0
M  END
>  <NAME>  (1513) 
2,2,5,7,8-PENTAMETHYLCHROMAN-6-OL

>  <SYNONYMS>  (1513) 
2,4-DIHYDRO-2,2,5,7,8-PENTAMETHYL-6-HYDROXY-2H-1-BENZOPYRANE

>  <SPECTRUM TYPE>  (1513) 
MS1

>  <INSTRUMENT TYPE>  (1513) 
EI-B

>  <INSTRUMENT>  (1513) 
JEOL JMS-D-300

>  <ION MODE>  (1513) 
P

>  <INCHIKEY>  (1513) 
SEBPXHSZHLFWRL-UHFFFAOYSA-N

>  <FORMULA>  (1513) 
C14H20O2

>  <EXACT MASS>  (1513) 
220.14632988

>  <MW>  (1513) 
220

>  <ID>  (1513) 
JP009907

>  <CONTRIBUTOR>  (1513) 
University of Tokyo Team, {Faculty of Engineering, University of Tokyo

>  <COMMENT>  (1513) 
SMILES=Oc(c(C)1)c(C)c(C2)c(OC(C)(C)C2)c(C)1
cas=950-99-2
InChI=InChI=1S/C14H20O2/c1-8-9(2)13-11(10(3)12(8)15)6-7-14(4,5)16-13/h15H,6-7H2,1-5H3
computed SMILES=OC=1C(=C(C=2OC(C)(C)CCC2C1C)C)C
accession=JP009907
date=2016.01.19 (Created 2008.10.21, modified 2011.05.06)
author=KURARAY CO., LTD.
license=CC BY-NC-SA
exact mass=220.14633
ionization energy=70 eV
ion type=[M]+*
computed spectral entropy=3.090374477264778
computed normalized entropy=0.7859897070571479
SPLASH=splash10-0300-4930000000-08d950865405837d6fca
submitter=submitter = University of Tokyo Team (Faculty of Engineering, University of Tokyo)
MoNA Rating=3.75

>  <NUM PEAKS>  (1513) 
51

>  <MASS SPECTRAL PEAKS>  (1513) 
27 5.3
28 37.3
29 3.3
32 10.3
39 6.7
40 1.6
41 7.6
43 7.2
44 1.3
51 3
53 8.4
55 4.8
57 2.8
65 4
67 5.2
69 3.8
77 7
79 6.7
81 3
83 3
91 8.5
93 3.3
105 4.1
107 4.7
115 3
119 3.4
121 10.6
133 2.8
135 6.3
136 12
137 6.2
147 4.3
149 3.6
161 4.2
162 1.8
163 4.9
164 98
165 99.99
166 17.8
175 10.3
176 7.3
177 5.7
188 2.7
189 4
191 1.6
203 6.9
204 3.6
205 6.5
218 8.3
219 6
220 80

$$$$

     RDKit          2D

 16 17  0  0  0  0  0  0  0  0999 V2000
    4.5490   -0.8784    0.0000 C   0  0  0  0  0  0  0  0  0  0  0  0
    8.4447    1.3739    0.0000 C   0  0  0  0  0  0  0  0  0  0  0  0
    1.9500   -0.9000    0.0000 C   0  0  0  0  0  0  0  0  0  0  0  0
    0.6300   -1.6600    0.0000 C   0  0  0  0  0  0  0  0  0  0  0  0
    3.2486    1.3708    0.0000 C   0  0  0  0  0  0  0  0  0  0  0  0
    0.6300    1.3800    0.0000 C   0  0  0  0  0  0  0  0  0  0  0  0
   -2.9400   -0.2300    0.0000 C   0  0  0  0  0  0  0  0  0  0  0  0
    4.5481    0.6216    0.0000 C   0  0  0  0  0  0  0  0  0  0  0  0
    1.9500    0.6200    0.0000 C   0  0  0  0  0  0  0  0  0  0  0  0
   -0.6600   -0.9000    0.0000 C   0  0  0  0  0  0  0  0  0  0  0  0
   -0.6600    0.6200    0.0000 C   0  0  0  0  0  0  0  0  0  0  0  0
    5.8467    1.3723    0.0000 C   0  0  0  0  0  0  0  0  0  0  0  0
    5.8458    2.8723    0.0000 O   0  0  0  0  0  0  0  0  0  0  0  0
    7.1462    0.6231    0.0000 O   0  0  0  0  0  0  0  0  0  0  0  0
   -2.0600   -1.3400    0.0000 O   0  0  0  0  0  0  0  0  0  0  0  0
   -2.0900    1.0600    0.0000 O   0  0  0  0  0  0  0  0  0  0  0  0
  4  3  2  0
  8  1  1  0
  5  8  2  0
  9  3  1  0
  9  5  1  0
  9  6  2  0
 10  4  1  0
 11  6  1  0
 11 10  2  0
 12  8  1  0
 13 12  2  0
 14  2  1  0
 14 12  1  0
 15  7  1  0
 15 10  1  0
 16  7  1  0
 16 11  1  0
M  END
>  <NAME>  (1514) 
METHYL (3,4-METHYLENEDIOXY)-ALPHA-METHYLCINNAMATE

>  <SYNONYMS>  (1514) 


>  <SPECTRUM TYPE>  (1514) 
MS1

>  <INSTRUMENT TYPE>  (1514) 
EI-B

>  <INSTRUMENT>  (1514) 
JEOL JMS-D-300

>  <ION MODE>  (1514) 
P

>  <INCHIKEY>  (1514) 
ONRIBRPCDSNRTI-VMPITWQZSA-N

>  <FORMULA>  (1514) 
C12H12O4

>  <EXACT MASS>  (1514) 
220.073558864

>  <MW>  (1514) 
220

>  <ID>  (1514) 
JP009906

>  <CONTRIBUTOR>  (1514) 
University of Tokyo Team, {Faculty of Engineering, University of Tokyo

>  <COMMENT>  (1514) 
SMILES=COC(=O)C(C)=Cc(c1)cc(O2)c(OC2)c1
InChI=InChI=1S/C12H12O4/c1-8(12(13)14-2)5-9-3-4-10-11(6-9)16-7-15-10/h3-6H,7H2,1-2H3/b8-5+
computed SMILES=O=C(OC)C(=CC1=CC=C2OCOC2=C1)C
accession=JP009906
date=2016.01.19 (Created 2008.10.21, modified 2011.05.06)
author=KURARAY CO., LTD.
license=CC BY-NC-SA
exact mass=220.07356
ionization energy=70 eV
ion type=[M]+*
computed spectral entropy=3.0334040922993006
computed normalized entropy=0.8339057713281681
SPLASH=splash10-0w90-3920000000-9f27ce1a5fa3a1515c1b
submitter=submitter = University of Tokyo Team (Faculty of Engineering, University of Tokyo)
MoNA Rating=3.75

>  <NUM PEAKS>  (1514) 
38

>  <MASS SPECTRAL PEAKS>  (1514) 
39 5.5
50 5.6
51 11
53 3.7
62 6.3
63 14
65 11.8
74 4.2
75 6.5
76 7.6
77 28
78 3.8
79 3
91 5
93 13
101 2.6
102 28.1
103 66.5
104 8.2
119 3.8
121 3.7
130 6
131 31.5
132 4.2
135 6.3
145 4
147 6
151 30.5
159 24.2
160 93.5
161 22.8
162 6.3
165 6
189 20.8
190 2.8
219 5.3
220 99.99
221 13.3

$$$$

     RDKit          2D

 14 13  0  0  0  0  0  0  0  0999 V2000
   -1.9486    3.3750    0.0000 C   0  0  0  0  0  0  0  0  0  0  0  0
    3.2476    4.8750    0.0000 C   0  0  0  0  0  0  0  0  0  0  0  0
   -8.4437    5.6250    0.0000 C   0  0  0  0  0  0  0  0  0  0  0  0
   -3.2476    5.6250    0.0000 C   0  0  0  0  0  0  0  0  0  0  0  0
   -0.6495    5.6250    0.0000 C   0  0  0  0  0  0  0  0  0  0  0  0
   -1.9486    4.8750    0.0000 C   0  0  0  0  0  0  0  0  0  0  0  0
    1.9486    5.6250    0.0000 C   0  0  0  0  0  0  0  0  0  0  0  0
   -7.1447    4.8750    0.0000 C   0  0  0  0  0  0  0  0  0  0  0  0
   -4.5466    4.8750    0.0000 C   0  0  0  0  0  0  0  0  0  0  0  0
   -4.5466    3.3750    0.0000 Cl  0  0  0  0  0  0  0  0  0  0  0  0
    1.9486    7.1250    0.0000 O   0  0  0  0  0  0  0  0  0  0  0  0
   -7.1447    3.3750    0.0000 O   0  0  0  0  0  0  0  0  0  0  0  0
    0.6495    4.8750    0.0000 O   0  0  0  0  0  0  0  0  0  0  0  0
   -5.8457    5.6250    0.0000 O   0  0  0  0  0  0  0  0  0  0  0  0
  6  1  2  0
  6  4  1  0
  6  5  1  0
  7  2  1  0
  8  3  1  0
  9  4  1  0
 10  9  1  0
 11  7  2  0
 12  8  2  0
 13  5  1  0
 13  7  1  0
 14  8  1  0
 14  9  1  0
M  END
>  <NAME>  (1515) 
1-CHLORO-3-METHYLENE-1,4-BUTANEDIOL DIACETATE

>  <SYNONYMS>  (1515) 


>  <SPECTRUM TYPE>  (1515) 
MS1

>  <INSTRUMENT TYPE>  (1515) 
EI-B

>  <INSTRUMENT>  (1515) 
JEOL JMS-D-300

>  <ION MODE>  (1515) 
P

>  <INCHIKEY>  (1515) 
VIJVCKDWQUPTRB-UHFFFAOYSA-N

>  <FORMULA>  (1515) 
C9H13ClO4

>  <EXACT MASS>  (1515) 
220.050236576

>  <MW>  (1515) 
220

>  <ID>  (1515) 
JP009905

>  <CONTRIBUTOR>  (1515) 
University of Tokyo Team, {Faculty of Engineering, University of Tokyo

>  <COMMENT>  (1515) 
SMILES=CC(=O)OCC(=C)CC(Cl)OC(C)=O
InChI=InChI=1S/C9H13ClO4/c1-6(5-13-7(2)11)4-9(10)14-8(3)12/h9H,1,4-5H2,2-3H3
computed SMILES=O=C(OCC(=C)CC(Cl)OC(=O)C)C
accession=JP009905
date=2016.01.19 (Created 2008.10.21, modified 2011.05.06)
author=KURARAY CO., LTD.
license=CC BY-NC-SA
exact mass=220.05024
ionization energy=70 eV
ion type=[M]+*
computed spectral entropy=2.8274476993803397
computed normalized entropy=0.7613822079100301
SPLASH=splash10-0006-9300000000-052af095753bf4b8728f
submitter=submitter = University of Tokyo Team (Faculty of Engineering, University of Tokyo)
MoNA Rating=3.75

>  <NUM PEAKS>  (1515) 
41

>  <MASS SPECTRAL PEAKS>  (1515) 
26 2.6
27 7.3
29 1.5
32 1.8
39 4.6
40 2
41 4.8
42 2.7
43 99.99
44 4.7
51 1.7
53 4.3
54 3.5
55 4.1
57 1.2
61 3.2
65 5
67 2.6
69 2
78 1.8
81 2
82 10.3
83 12.5
84 6.4
85 2.3
87 5.3
88 2.8
89 1.3
101 2.1
102 3.2
103 4
113 1.7
118 9
119 1.6
120 2.2
125 15.3
129 12.2
143 4.5
160 2
161 1.5
185 28

$$$$

     RDKit          2D

 15 16  0  0  0  0  0  0  0  0999 V2000
   -1.9625   -1.6198    0.0000 C   0  0  0  0  0  0  0  0  0  0  0  0
   -0.6651    0.6203    0.0000 C   0  0  0  0  0  0  0  0  0  0  0  0
    0.6301    1.3767    0.0000 C   0  0  0  0  0  0  0  0  0  0  0  0
    7.4695   -3.4370    0.0000 C   0  0  0  0  0  0  0  0  0  0  0  0
    8.2147   -2.1437    0.0000 C   0  0  0  0  0  0  0  0  0  0  0  0
    0.6561   -1.6422    0.0000 C   0  0  0  0  0  0  0  0  0  0  0  0
   -0.6623   -0.8719    0.0000 C   0  0  0  0  0  0  0  0  0  0  0  0
    1.9514   -0.8857    0.0000 C   0  0  0  0  0  0  0  0  0  0  0  0
    1.9629    0.6611    0.0000 C   0  0  0  0  0  0  0  0  0  0  0  0
    5.8476   -1.6405    0.0000 C   0  0  0  0  0  0  0  0  0  0  0  0
    6.0002   -3.1349    0.0000 N   0  0  0  0  0  0  0  0  0  0  0  0
    3.2495   -1.6373    0.0000 N   0  0  0  0  0  0  0  0  0  0  0  0
    4.5495   -0.8889    0.0000 N   0  0  0  0  0  0  0  0  0  0  0  0
    3.2530    1.4263    0.0000 O   0  0  0  0  0  0  0  0  0  0  0  0
    7.2141   -1.0313    0.0000 S   0  0  0  0  0  0  0  0  0  0  0  0
  3  2  2  0
  5  4  2  0
  7  1  1  0
  7  2  1  0
  7  6  2  0
  8  6  1  0
  9  3  1  0
  9  8  2  0
 11  4  1  0
 11 10  2  0
 12  8  1  0
 13 10  1  0
 12 13  2  0
 14  9  1  0
 15  5  1  0
 15 10  1  0
M  END
>  <NAME>  (1516) 
2-(2-THIAZOLYLAZO)-PARA-CRESOL

>  <SYNONYMS>  (1516) 


>  <SPECTRUM TYPE>  (1516) 
MS1

>  <INSTRUMENT TYPE>  (1516) 
EI-B

>  <INSTRUMENT>  (1516) 
JEOL JMS-D-300

>  <ION MODE>  (1516) 
P

>  <INCHIKEY>  (1516) 
MZRKINSTWYZJLV-OUKQBFOZSA-N

>  <FORMULA>  (1516) 
C10H9N3OS

>  <EXACT MASS>  (1516) 
219.046632908

>  <MW>  (1516) 
219

>  <ID>  (1516) 
JP009904

>  <CONTRIBUTOR>  (1516) 
University of Tokyo Team, {Faculty of Engineering, University of Tokyo

>  <COMMENT>  (1516) 
SMILES=Cc(c1)cc(N=Nc(n2)scc2)c(O)c1
cas=1823-44-5
InChI=InChI=1S/C10H9N3OS/c1-7-2-3-9(14)8(6-7)12-13-10-11-4-5-15-10/h2-6,14H,1H3/b13-12+
computed SMILES=OC1=CC=C(C=C1N=NC2=NC=CS2)C
accession=JP009904
date=2016.01.19 (Created 2008.10.21, modified 2011.05.06)
author=KURARAY CO., LTD.
license=CC BY-NC-SA
exact mass=219.04663
ionization energy=70 eV
ion type=[M]+*
computed spectral entropy=3.4073246824594796
computed normalized entropy=0.8464663324454018
SPLASH=splash10-0ar0-9720000000-edc6f505e8393d8e2930
submitter=submitter = University of Tokyo Team (Faculty of Engineering, University of Tokyo)
MoNA Rating=3.75

>  <NUM PEAKS>  (1516) 
56

>  <MASS SPECTRAL PEAKS>  (1516) 
26 2.6
27 7.5
28 8.8
38 2.8
39 19.6
40 4
43 3.7
44 6.8
45 7.8
50 3.8
51 10.2
52 8.6
53 14.7
54 2.5
55 12
58 12
59 5.8
63 5
64 3.2
65 20
66 10.3
67 2
77 46.5
78 26.8
79 15
84 2.6
86 9.5
91 4
92 6.3
93 2
95 1.8
100 4
105 19
106 5.6
107 99.99
108 8.8
117 8.2
120 2.5
123 3
133 1.3
134 3.2
135 15
136 1.7
148 6.8
162 13.8
163 4.3
174 2
176 2
190 11.5
191 36
192 4.8
193 1.3
204 5
219 71.2
220 9.3
221 4.2

$$$$

     RDKit          2D

 13 13  0  0  0  0  0  0  0  0999 V2000
   -5.1970   -1.5006    0.0000 C   0  0  0  0  0  0  0  0  0  0  0  0
   -1.3000    0.7500    0.0000 C   0  0  0  0  0  0  0  0  0  0  0  0
    1.3000    0.7500    0.0000 C   0  0  0  0  0  0  0  0  0  0  0  0
    0.0000    1.5000    0.0000 C   0  0  0  0  0  0  0  0  0  0  0  0
   -1.3000   -0.7500    0.0000 C   0  0  0  0  0  0  0  0  0  0  0  0
    1.3000   -0.7500    0.0000 C   0  0  0  0  0  0  0  0  0  0  0  0
   -0.0000   -1.5000    0.0000 C   0  0  0  0  0  0  0  0  0  0  0  0
   -2.5989   -1.5002    0.0000 C   0  0  0  0  0  0  0  0  0  0  0  0
    0.0000    3.0000    0.0000 Cl  0  0  0  0  0  0  0  0  0  0  0  0
   -0.0000   -3.0000    0.0000 Cl  0  0  0  0  0  0  0  0  0  0  0  0
    2.5989   -1.5002    0.0000 N   0  0  0  0  0  0  0  0  0  0  0  0
   -2.5987   -3.0002    0.0000 O   0  0  0  0  0  0  0  0  0  0  0  0
   -3.8981   -0.7504    0.0000 O   0  0  0  0  0  0  0  0  0  0  0  0
  4  2  2  0
  4  3  1  0
  5  2  1  0
  6  3  2  0
  7  5  2  0
  7  6  1  0
  8  5  1  0
  9  4  1  0
 10  7  1  0
 11  6  1  0
 12  8  2  0
 13  1  1  0
 13  8  1  0
M  END
>  <NAME>  (1517) 
METHYL 2,5-DICHLORO-3-AMINOBENZOATE

>  <SYNONYMS>  (1517) 


>  <SPECTRUM TYPE>  (1517) 
MS1

>  <INSTRUMENT TYPE>  (1517) 
EI-B

>  <INSTRUMENT>  (1517) 
JEOL JMS-D-300

>  <ION MODE>  (1517) 
P

>  <INCHIKEY>  (1517) 
DTSSCQVCVYZGSI-UHFFFAOYSA-N

>  <FORMULA>  (1517) 
C8H7Cl2NO2

>  <EXACT MASS>  (1517) 
218.985383824

>  <MW>  (1517) 
219

>  <ID>  (1517) 
JP009903

>  <CONTRIBUTOR>  (1517) 
University of Tokyo Team, {Faculty of Engineering, University of Tokyo

>  <COMMENT>  (1517) 
SMILES=COC(=O)c(c1)c(Cl)c(N)cc(Cl)1
InChI=InChI=1S/C8H7Cl2NO2/c1-13-8(12)5-2-4(9)3-6(11)7(5)10/h2-3H,11H2,1H3
computed SMILES=O=C(OC)C=1C=C(Cl)C=C(N)C1Cl
accession=JP009903
date=2016.01.19 (Created 2008.10.21, modified 2011.05.06)
author=KURARAY CO., LTD.
license=CC BY-NC-SA
exact mass=218.98538
ionization energy=70 eV
ion type=[M]+*
computed spectral entropy=2.93550610905315
computed normalized entropy=0.7624398887329237
SPLASH=splash10-02gc-1940000000-83e89845d4db1ada099f
submitter=submitter = University of Tokyo Team (Faculty of Engineering, University of Tokyo)
MoNA Rating=3.75

>  <NUM PEAKS>  (1517) 
47

>  <MASS SPECTRAL PEAKS>  (1517) 
28 1.3
38 1.3
41 1.2
52 2.7
60 1.2
61 3.5
62 7
63 7
64 1
65 2.5
73 4
74 1.3
75 1.8
88 2.3
89 4
90 6
94 4.2
95 2.9
96 1.5
97 8.8
98 1.8
99 4
124 25.3
125 6.7
126 9.8
127 2.2
133 5.7
135 3.3
154 1.6
159 1
160 34.1
161 13.7
162 22.3
163 8.5
164 3.6
165 1.2
169 1.8
188 99.99
189 9
190 64.5
191 5.5
192 10.2
219 94
220 9
221 60
222 6.3
223 9.7

$$$$

     RDKit          2D

 16 16  0  0  0  0  0  0  0  0999 V2000
    0.0872    5.7590    0.0000 C   0  0  0  0  0  0  0  0  0  0  0  0
   -5.5601    3.2003    0.0000 C   0  0  0  0  0  0  0  0  0  0  0  0
   -4.2610    0.9503    0.0000 C   0  0  0  0  0  0  0  0  0  0  0  0
    0.6003    4.3494    0.0000 C   0  0  0  0  0  0  0  0  0  0  0  0
    3.5332    0.9503    0.0000 C   0  0  0  0  0  0  0  0  0  0  0  0
    3.5337    2.4512    0.0000 C   0  0  0  0  0  0  0  0  0  0  0  0
    2.2337    0.1995    0.0000 C   0  0  0  0  0  0  0  0  0  0  0  0
    2.2346    3.2012    0.0000 C   0  0  0  0  0  0  0  0  0  0  0  0
    0.9346    0.9495    0.0000 C   0  0  0  0  0  0  0  0  0  0  0  0
   -2.9620    3.2003    0.0000 C   0  0  0  0  0  0  0  0  0  0  0  0
   -1.6630    2.4503    0.0000 C   0  0  0  0  0  0  0  0  0  0  0  0
   -1.3281    4.3494    0.0000 C   0  0  0  0  0  0  0  0  0  0  0  0
   -4.2610    2.4503    0.0000 C   0  0  0  0  0  0  0  0  0  0  0  0
    0.9351    2.4503    0.0000 C   0  0  0  0  0  0  0  0  0  0  0  0
   -0.3639    3.2003    0.0000 C   0  0  0  0  0  0  0  0  0  0  0  0
   -0.8151    5.7590    0.0000 O   0  0  0  0  0  0  0  0  0  0  0  0
  4  1  1  0
  6  5  2  0
  7  5  1  0
  8  6  1  0
  9  7  2  0
 11 10  1  0
 13  2  1  0
 13  3  1  0
 13 10  2  0
 14  8  2  0
 14  9  1  0
 15  4  1  0
 15 11  1  0
 15 12  1  0
 15 14  1  0
 16 12  1  0
M  END
>  <NAME>  (1518) 
2-ETHYL-5-METHYL-2-PHENYL-4-HEXEN-1-OL

>  <SYNONYMS>  (1518) 


>  <SPECTRUM TYPE>  (1518) 
MS1

>  <INSTRUMENT TYPE>  (1518) 
EI-B

>  <INSTRUMENT>  (1518) 
JEOL JMS-D-300

>  <ION MODE>  (1518) 
P

>  <INCHIKEY>  (1518) 
DHXIFOUGIOWUMY-UHFFFAOYSA-N

>  <FORMULA>  (1518) 
C15H22O

>  <EXACT MASS>  (1518) 
218.167065324

>  <MW>  (1518) 
218

>  <ID>  (1518) 
JP009902

>  <CONTRIBUTOR>  (1518) 
University of Tokyo Team, {Faculty of Engineering, University of Tokyo

>  <COMMENT>  (1518) 
SMILES=CC(C)=CCC(CC)(CO)c(c1)cccc1
InChI=InChI=1S/C15H22O/c1-4-15(12-16,11-10-13(2)3)14-8-6-5-7-9-14/h5-10,16H,4,11-12H2,1-3H3
computed SMILES=OCC(C=1C=CC=CC1)(CC=C(C)C)CC
accession=JP009902
date=2016.01.19 (Created 2008.10.21, modified 2011.05.06)
author=KURARAY CO., LTD.
license=CC BY-NC-SA
exact mass=218.16707
ionization energy=70 eV
ion type=[M]+*
computed spectral entropy=3.015280181971499
computed normalized entropy=0.7707726099227006
SPLASH=splash10-052e-7900000000-650be49310ccfd66319d
submitter=submitter = University of Tokyo Team (Faculty of Engineering, University of Tokyo)
MoNA Rating=3.75

>  <NUM PEAKS>  (1518) 
50

>  <MASS SPECTRAL PEAKS>  (1518) 
27 3
29 5.7
31 1
39 3.3
41 13.2
42 1.2
43 5.8
51 2
53 2.8
55 3.8
57 32.6
58 1.1
63 1
65 2.3
67 1.2
69 12
70 6.6
71 8.3
77 5.8
78 2.2
79 4.8
91 61.8
92 5.4
93 2.7
102 1
103 3.2
105 14.3
106 1.2
107 17.5
108 1.2
115 5
116 2.6
117 5.7
119 2.9
127 1
128 3
129 3.8
130 2
131 18.7
132 5.6
133 1.6
143 2.5
145 3.2
148 24.3
149 99.99
150 11
157 1.6
171 1.2
187 1.5
218 1

$$$$

     RDKit          2D

 16 16  0  0  0  0  0  0  0  0999 V2000
   -6.8197    3.1321    0.0000 C   0  0  0  0  0  0  0  0  0  0  0  0
   -5.5207    5.3821    0.0000 C   0  0  0  0  0  0  0  0  0  0  0  0
   -2.5877    1.9830    0.0000 C   0  0  0  0  0  0  0  0  0  0  0  0
   -0.6594    1.9830    0.0000 C   0  0  0  0  0  0  0  0  0  0  0  0
    3.5726    1.6321    0.0000 C   0  0  0  0  0  0  0  0  0  0  0  0
    3.5731    3.1329    0.0000 C   0  0  0  0  0  0  0  0  0  0  0  0
    2.2731    0.8813    0.0000 C   0  0  0  0  0  0  0  0  0  0  0  0
    2.2740    3.8829    0.0000 C   0  0  0  0  0  0  0  0  0  0  0  0
    0.9740    1.6313    0.0000 C   0  0  0  0  0  0  0  0  0  0  0  0
   -4.2216    3.1321    0.0000 C   0  0  0  0  0  0  0  0  0  0  0  0
   -2.9226    3.8821    0.0000 C   0  0  0  0  0  0  0  0  0  0  0  0
   -5.5207    3.8821    0.0000 C   0  0  0  0  0  0  0  0  0  0  0  0
    0.9745    3.1321    0.0000 C   0  0  0  0  0  0  0  0  0  0  0  0
   -0.3245    3.8821    0.0000 C   0  0  0  0  0  0  0  0  0  0  0  0
   -1.6236    3.1321    0.0000 C   0  0  0  0  0  0  0  0  0  0  0  0
   -0.3245    5.3821    0.0000 O   0  0  0  0  0  0  0  0  0  0  0  0
  6  5  2  0
  7  5  1  0
  8  6  1  0
  9  7  2  0
 11 10  1  0
 12  1  1  0
 12  2  1  0
 12 10  2  0
 13  8  2  0
 13  9  1  0
 14 13  1  0
 15  3  1  0
 15  4  1  0
 15 11  1  0
 15 14  1  0
 16 14  1  0
M  END
>  <NAME>  (1519) 
2,2,5-TRIMETHYL-1-PHENYL-4-HEXEN-1-OL

>  <SYNONYMS>  (1519) 


>  <SPECTRUM TYPE>  (1519) 
MS1

>  <INSTRUMENT TYPE>  (1519) 
EI-B

>  <INSTRUMENT>  (1519) 
JEOL JMS-D-300

>  <ION MODE>  (1519) 
P

>  <INCHIKEY>  (1519) 
LHBLOKIXWZKFJL-UHFFFAOYSA-N

>  <FORMULA>  (1519) 
C15H22O

>  <EXACT MASS>  (1519) 
218.167065324

>  <MW>  (1519) 
218

>  <ID>  (1519) 
JP009901

>  <CONTRIBUTOR>  (1519) 
University of Tokyo Team, {Faculty of Engineering, University of Tokyo

>  <COMMENT>  (1519) 
SMILES=CC(C)=CCC(C)(C)C(O)c(c1)cccc1
InChI=InChI=1S/C15H22O/c1-12(2)10-11-15(3,4)14(16)13-8-6-5-7-9-13/h5-10,14,16H,11H2,1-4H3
computed SMILES=OC(C=1C=CC=CC1)C(C)(C)CC=C(C)C
accession=JP009901
date=2016.01.19 (Created 2008.10.21, modified 2011.05.06)
author=KURARAY CO., LTD.
license=CC BY-NC-SA
exact mass=218.16707
ionization energy=70 eV
ion type=[M]+*
computed spectral entropy=3.1670727911060195
computed normalized entropy=0.7903193083063527
SPLASH=splash10-0cdi-9700000000-e8f0d8cbbd8774347c23
submitter=submitter = University of Tokyo Team (Faculty of Engineering, University of Tokyo)
MoNA Rating=3.75

>  <NUM PEAKS>  (1519) 
55

>  <MASS SPECTRAL PEAKS>  (1519) 
27 7
28 1.3
29 6.2
31 2
39 7.2
41 40.5
42 2.6
43 24
44 2
45 2
51 5
53 6.9
55 35.2
56 18
57 21
58 1.8
59 2
67 5.3
68 5
69 99.7
70 7.8
71 6.6
77 16.5
78 3.5
79 28.8
80 2.3
81 3.2
83 4.5
91 7.2
95 7.6
96 2.3
97 1.5
105 9.3
107 99.99
108 10.6
110 12
111 93.7
112 48.8
113 4.8
115 2
117 2.3
119 2
129 1.7
131 4.6
132 2.7
133 1.4
143 2
147 1.6
148 6.6
149 8
157 4.7
185 3.4
200 14.1
201 3.7
208 2

$$$$

     RDKit          2D

 11 10  0  0  0  0  0  0  0  0999 V2000
   -6.8200    5.0625    0.0000 C   0  0  0  0  0  0  0  0  0  0  0  0
   -5.5209    2.8125    0.0000 C   0  0  0  0  0  0  0  0  0  0  0  0
   -0.3248    2.8125    0.0000 C   0  0  0  0  0  0  0  0  0  0  0  0
   -2.9228    4.3125    0.0000 C   0  0  0  0  0  0  0  0  0  0  0  0
   -4.2219    5.0625    0.0000 C   0  0  0  0  0  0  0  0  0  0  0  0
   -1.6238    5.0625    0.0000 C   0  0  0  0  0  0  0  0  0  0  0  0
    0.9743    5.0625    0.0000 C   0  0  0  0  0  0  0  0  0  0  0  0
    2.2733    4.3125    0.0000 C   0  0  0  0  0  0  0  0  0  0  0  0
   -5.5209    4.3125    0.0000 C   0  0  0  0  0  0  0  0  0  0  0  0
   -0.3248    4.3125    0.0000 C   0  0  0  0  0  0  0  0  0  0  0  0
    3.5724    5.0625    0.0000 Br  0  0  0  0  0  0  0  0  0  0  0  0
  5  4  1  0
  6  4  1  0
  8  7  1  0
  9  1  1  0
  9  2  1  0
  9  5  2  0
 10  3  1  0
 10  6  1  0
 10  7  1  0
 11  8  1  0
M  END
>  <NAME>  (1520) 
1-BROMO-3,7-DIMETHYL-6-OCTENE

>  <SYNONYMS>  (1520) 


>  <SPECTRUM TYPE>  (1520) 
MS1

>  <INSTRUMENT TYPE>  (1520) 
EI-B

>  <INSTRUMENT>  (1520) 
JEOL JMS-D-30

>  <ION MODE>  (1520) 
P

>  <INCHIKEY>  (1520) 
QPKCDMXLSDFCQD-UHFFFAOYSA-N

>  <FORMULA>  (1520) 
C10H19Br

>  <EXACT MASS>  (1520) 
218.067012708

>  <MW>  (1520) 
218

>  <ID>  (1520) 
JP009900

>  <CONTRIBUTOR>  (1520) 
University of Tokyo Team, {Faculty of Engineering, University of Tokyo

>  <COMMENT>  (1520) 
SMILES=CC(C)=CCCC(C)CCBr
InChI=InChI=1S/C10H19Br/c1-9(2)5-4-6-10(3)7-8-11/h5,10H,4,6-8H2,1-3H3
computed SMILES=BrCCC(C)CCC=C(C)C
accession=JP009900
date=2016.01.19 (Created 2008.10.21, modified 2011.05.06)
author=KURARAY CO., LTD.
license=CC BY-NC-SA
exact mass=218.06701
ionization energy=70 eV
ion type=[M]+*
computed spectral entropy=2.638789875409681
computed normalized entropy=0.7836525237582943
SPLASH=splash10-0api-9000000000-97a905d5f6ed26dca9af
submitter=submitter = University of Tokyo Team (Faculty of Engineering, University of Tokyo)
MoNA Rating=3.75

>  <NUM PEAKS>  (1520) 
29

>  <MASS SPECTRAL PEAKS>  (1520) 
27 7
29 7
39 7.2
41 43.5
42 3
43 8
53 5.3
55 51.6
56 44
57 19
67 7.5
68 3.6
69 99.99
70 14.5
71 2.8
81 4.5
82 1.7
83 63.2
84 4.5
95 2
97 8
111 2.8
139 2.8
148 2.5
150 3
162 7.4
164 7.2
218 5
220 5

$$$$

     RDKit          2D

 16 15  0  0  0  0  0  0  0  0999 V2000
  -10.0675    8.4375    0.0000 C   0  0  0  0  0  0  0  0  0  0  0  0
   -8.7685    6.1875    0.0000 C   0  0  0  0  0  0  0  0  0  0  0  0
   -3.5724    6.1875    0.0000 C   0  0  0  0  0  0  0  0  0  0  0  0
    1.6238    6.1875    0.0000 C   0  0  0  0  0  0  0  0  0  0  0  0
   -6.1704    7.6875    0.0000 C   0  0  0  0  0  0  0  0  0  0  0  0
   -0.9743    7.6875    0.0000 C   0  0  0  0  0  0  0  0  0  0  0  0
   -7.4695    8.4375    0.0000 C   0  0  0  0  0  0  0  0  0  0  0  0
   -4.8714    8.4375    0.0000 C   0  0  0  0  0  0  0  0  0  0  0  0
   -2.2733    8.4375    0.0000 C   0  0  0  0  0  0  0  0  0  0  0  0
    0.3248    8.4375    0.0000 C   0  0  0  0  0  0  0  0  0  0  0  0
    2.9228    8.4375    0.0000 C   0  0  0  0  0  0  0  0  0  0  0  0
    4.2219    7.6875    0.0000 C   0  0  0  0  0  0  0  0  0  0  0  0
   -8.7685    7.6875    0.0000 C   0  0  0  0  0  0  0  0  0  0  0  0
   -3.5724    7.6875    0.0000 C   0  0  0  0  0  0  0  0  0  0  0  0
    1.6238    7.6875    0.0000 C   0  0  0  0  0  0  0  0  0  0  0  0
    5.5209    6.9375    0.0000 N   0  0  0  0  0  0  0  0  0  0  0  0
  7  5  1  0
  8  5  1  0
  9  6  1  0
 10  6  1  0
 12 11  1  0
 13  1  1  0
 13  2  1  0
 13  7  2  0
 14  3  1  0
 14  8  1  0
  9 14  2  0
 15  4  1  0
 15 10  1  0
 11 15  2  0
 16 12  3  0
M  END
>  <NAME>  (1521) 
3,7,11-TRIMETHYL-2,6,10-DODECATRIENENITRILE

>  <SYNONYMS>  (1521) 


>  <SPECTRUM TYPE>  (1521) 
MS1

>  <INSTRUMENT TYPE>  (1521) 
EI-B

>  <INSTRUMENT>  (1521) 
JEOL JMS-D-300

>  <ION MODE>  (1521) 
P

>  <INCHIKEY>  (1521) 
KNFDAUYLUSORSX-YFVJMOTDSA-N

>  <FORMULA>  (1521) 
C15H23N

>  <EXACT MASS>  (1521) 
217.183049736

>  <MW>  (1521) 
217

>  <ID>  (1521) 
JP009899

>  <CONTRIBUTOR>  (1521) 
University of Tokyo Team, {Faculty of Engineering, University of Tokyo

>  <COMMENT>  (1521) 
SMILES=N#CC=C(C)CCC=C(C)CCC=C(C)C
cas=29789-67-1
InChI=InChI=1S/C15H23N/c1-13(2)7-5-8-14(3)9-6-10-15(4)11-12-16/h7,9,11H,5-6,8,10H2,1-4H3/b14-9+,15-11+
computed SMILES=N#CC=C(C)CCC=C(C)CCC=C(C)C
accession=JP009899
date=2016.01.19 (Created 2008.10.21, modified 2011.05.06)
author=KURARAY CO., LTD.
license=CC BY-NC-SA
exact mass=217.18305
ionization energy=70 eV
ion type=[M]+*
computed spectral entropy=2.480045062047229
computed normalized entropy=0.692069751727253
SPLASH=splash10-014i-9100000000-9ba64f2b4d3fcb638407
submitter=submitter = University of Tokyo Team (Faculty of Engineering, University of Tokyo)
MoNA Rating=3.75

>  <NUM PEAKS>  (1521) 
36

>  <MASS SPECTRAL PEAKS>  (1521) 
27 3
29 3
39 4.2
41 31
42 1.2
43 3.5
53 7
55 7.8
67 6
68 6.2
69 99.99
70 6
77 1.6
79 2.5
80 2
81 41.7
82 3
91 1.3
93 2
94 1.3
95 4.5
96 1.3
106 1
107 1
109 3.5
121 1.5
123 1.6
124 4.2
136 3.3
137 4.6
146 1.6
148 1.7
161 1.7
174 3.5
202 1
217 1.5

$$$$

     RDKit          2D

 16 17  0  0  0  0  0  0  0  0999 V2000
    3.9319    0.0285    0.0000 C   0  0  0  0  0  0  0  0  0  0  0  0
    2.9679   -1.1207    0.0000 C   0  0  0  0  0  0  0  0  0  0  0  0
   -6.3036   -0.8603    0.0000 C   0  0  0  0  0  0  0  0  0  0  0  0
   -6.3041   -2.3612    0.0000 C   0  0  0  0  0  0  0  0  0  0  0  0
   -5.0041   -0.1095    0.0000 C   0  0  0  0  0  0  0  0  0  0  0  0
   -5.0050   -3.1112    0.0000 C   0  0  0  0  0  0  0  0  0  0  0  0
   -3.7050   -0.8595    0.0000 C   0  0  0  0  0  0  0  0  0  0  0  0
    0.1911   -0.1095    0.0000 C   0  0  0  0  0  0  0  0  0  0  0  0
    1.4911   -2.3612    0.0000 C   0  0  0  0  0  0  0  0  0  0  0  0
   -1.1079   -0.8595    0.0000 C   0  0  0  0  0  0  0  0  0  0  0  0
    0.1921   -3.1112    0.0000 C   0  0  0  0  0  0  0  0  0  0  0  0
   -2.4065   -3.1103    0.0000 C   0  0  0  0  0  0  0  0  0  0  0  0
   -3.7055   -2.3603    0.0000 C   0  0  0  0  0  0  0  0  0  0  0  0
    1.4906   -0.8603    0.0000 C   0  0  0  0  0  0  0  0  0  0  0  0
   -1.1074   -2.3603    0.0000 N   0  0  0  0  0  0  0  0  0  0  0  0
    2.0038    0.5491    0.0000 O   0  0  0  0  0  0  0  0  0  0  0  0
  2  1  2  0
  4  3  2  0
  5  3  1  0
  6  4  1  0
  7  5  2  0
 10  8  1  0
 11  9  1  0
 13  6  2  0
 13  7  1  0
 13 12  1  0
 14  2  1  0
 14  8  1  0
 14  9  1  0
 15 10  1  0
 15 11  1  0
 15 12  1  0
 16 14  1  0
M  END
>  <NAME>  (1522) 
N-BENZYL-4-ETHENYL-4-HYDROXYPIPERIDINE

>  <SYNONYMS>  (1522) 


>  <SPECTRUM TYPE>  (1522) 
MS1

>  <INSTRUMENT TYPE>  (1522) 
EI-B

>  <INSTRUMENT>  (1522) 
JEOL JMS-D-300

>  <ION MODE>  (1522) 
P

>  <INCHIKEY>  (1522) 
KBCISEBKFUOCHX-UHFFFAOYSA-N

>  <FORMULA>  (1522) 
C14H19NO

>  <EXACT MASS>  (1522) 
217.146664228

>  <MW>  (1522) 
217

>  <ID>  (1522) 
JP009898

>  <CONTRIBUTOR>  (1522) 
University of Tokyo Team, {Faculty of Engineering, University of Tokyo

>  <COMMENT>  (1522) 
SMILES=C=CC(O)(C2)CCN(C2)Cc(c1)cccc1
InChI=InChI=1S/C14H19NO/c1-2-14(16)8-10-15(11-9-14)12-13-6-4-3-5-7-13/h2-7,16H,1,8-12H2
computed SMILES=OC1(C=C)CCN(CC=2C=CC=CC2)CC1
accession=JP009898
date=2016.01.19 (Created 2008.10.21, modified 2011.05.06)
author=KURARAY CO., LTD.
license=CC BY-NC-SA
exact mass=217.14666
ionization energy=70 eV
ion type=[M]+*
computed spectral entropy=2.6278241182234776
computed normalized entropy=0.797316197694363
SPLASH=splash10-0006-9400000000-36028ea9be663081c742
submitter=submitter = University of Tokyo Team (Faculty of Engineering, University of Tokyo)
MoNA Rating=3.75

>  <NUM PEAKS>  (1522) 
27

>  <MASS SPECTRAL PEAKS>  (1522) 
27 2.5
39 3
42 3.5
43 21.5
44 2.6
55 5
56 9.5
65 8.5
89 2
91 99.99
92 21.5
98 15
104 3.2
112 19
118 4.8
126 5.5
132 3.3
133 3.5
140 4
146 10
188 17.3
189 24.5
190 3.2
199 3
200 1.8
216 5
217 10

$$$$

     RDKit          2D

 15 15  0  0  0  0  0  0  0  0999 V2000
    0.3255   -0.9386    0.0000 C   0  0  0  0  0  0  0  0  0  0  0  0
   -8.7680   -3.1886    0.0000 C   0  0  0  0  0  0  0  0  0  0  0  0
    1.6249   -3.1884    0.0000 C   0  0  0  0  0  0  0  0  0  0  0  0
   -0.9731   -3.1889    0.0000 C   0  0  0  0  0  0  0  0  0  0  0  0
   -7.4694   -0.9378    0.0000 C   0  0  0  0  0  0  0  0  0  0  0  0
    2.9239   -2.4382    0.0000 C   0  0  0  0  0  0  0  0  0  0  0  0
   -2.2723   -2.4391    0.0000 C   0  0  0  0  0  0  0  0  0  0  0  0
   -6.1704   -0.1878    0.0000 C   0  0  0  0  0  0  0  0  0  0  0  0
   -6.1694   -3.1895    0.0000 C   0  0  0  0  0  0  0  0  0  0  0  0
    0.3258   -2.4386    0.0000 C   0  0  0  0  0  0  0  0  0  0  0  0
   -7.4689   -2.4386    0.0000 C   0  0  0  0  0  0  0  0  0  0  0  0
   -4.8704   -2.4395    0.0000 C   0  0  0  0  0  0  0  0  0  0  0  0
    4.2230   -3.1880    0.0000 O   0  0  0  0  0  0  0  0  0  0  0  0
   -3.5712   -3.1893    0.0000 O   0  0  0  0  0  0  0  0  0  0  0  0
   -4.8709   -0.9386    0.0000 O   0  0  0  0  0  0  0  0  0  0  0  0
  6  3  1  0
  7  4  1  0
  8  5  1  0
 10  1  1  0
 10  3  1  0
 10  4  1  0
 11  2  1  0
 11  5  1  0
 11  9  1  0
 12  9  1  0
 13  6  1  0
 14  7  1  0
 14 12  1  0
 15  8  1  0
 15 12  1  0
M  END
>  <NAME>  (1523) 
4-METHYL-2-(5-HYDROXY-3-METHYLPENTOXY)TETRAHYDRO-2H-PYRAN

>  <SYNONYMS>  (1523) 


>  <SPECTRUM TYPE>  (1523) 
MS1

>  <INSTRUMENT TYPE>  (1523) 
EI-B

>  <INSTRUMENT>  (1523) 
JEOL JMS-D-300

>  <ION MODE>  (1523) 
P

>  <INCHIKEY>  (1523) 
SKVDDTWHWFDGBM-UHFFFAOYSA-N

>  <FORMULA>  (1523) 
C12H24O3

>  <EXACT MASS>  (1523) 
216.17254462799997

>  <MW>  (1523) 
216

>  <ID>  (1523) 
JP009897

>  <CONTRIBUTOR>  (1523) 
University of Tokyo Team, {Faculty of Engineering, University of Tokyo

>  <COMMENT>  (1523) 
SMILES=OCCC(C)CCOC(O1)CC(C)CC1
InChI=InChI=1S/C12H24O3/c1-10(3-6-13)4-7-14-12-9-11(2)5-8-15-12/h10-13H,3-9H2,1-2H3
computed SMILES=OCCC(C)CCOC1OCCC(C)C1
accession=JP009897
date=2016.01.19 (Created 2008.10.21, modified 2011.05.06)
author=KURARAY CO., LTD.
license=CC BY-NC-SA
exact mass=216.17254
ionization energy=70 eV
ion type=[M]+*
computed spectral entropy=2.731335465423899
computed normalized entropy=0.8030511490306697
SPLASH=splash10-0002-9100000000-9791507d3e3b22990865
submitter=submitter = University of Tokyo Team (Faculty of Engineering, University of Tokyo)
MoNA Rating=3.75

>  <NUM PEAKS>  (1523) 
30

>  <MASS SPECTRAL PEAKS>  (1523) 
27 3.8
28 6.5
29 5
31 7.6
32 2.7
39 2.8
40 2.5
41 14
42 12.6
43 22.3
44 1.8
45 4
55 36
56 3
57 7.2
67 2.5
69 7.7
70 9.6
71 5.5
73 1.3
81 7.7
83 33
98 8
99 99.99
100 7.2
101 23.2
102 2.3
116 10.5
117 3.8
133 1.3

$$$$

     RDKit          2D

 15 15  0  0  0  0  0  0  0  0999 V2000
    0.9276    1.8391    0.0000 C   0  0  0  0  0  0  0  0  0  0  0  0
   -1.1213    0.8878    0.0000 C   0  0  0  0  0  0  0  0  0  0  0  0
   -1.6700   -1.1613    0.0000 C   0  0  0  0  0  0  0  0  0  0  0  0
    7.4240    2.5900    0.0000 C   0  0  0  0  0  0  0  0  0  0  0  0
    8.7240    1.8400    0.0000 C   0  0  0  0  0  0  0  0  0  0  0  0
    6.1240    1.8400    0.0000 C   0  0  0  0  0  0  0  0  0  0  0  0
    2.2270   -0.4107    0.0000 C   0  0  0  0  0  0  0  0  0  0  0  0
    8.7240    0.3400    0.0000 C   0  0  0  0  0  0  0  0  0  0  0  0
    3.5259    0.3395    0.0000 C   0  0  0  0  0  0  0  0  0  0  0  0
    0.9278    0.3391    0.0000 C   0  0  0  0  0  0  0  0  0  0  0  0
    6.1240    0.3400    0.0000 C   0  0  0  0  0  0  0  0  0  0  0  0
   -0.3711   -0.4111    0.0000 C   0  0  0  0  0  0  0  0  0  0  0  0
    0.3791   -1.7100    0.0000 O   0  0  0  0  0  0  0  0  0  0  0  0
    7.4240   -0.4100    0.0000 O   0  0  0  0  0  0  0  0  0  0  0  0
    4.8251   -0.4102    0.0000 O   0  0  0  0  0  0  0  0  0  0  0  0
  5  4  1  0
  6  4  1  0
  8  5  1  0
  9  7  1  0
 10  1  1  0
 10  7  1  0
 11  6  1  0
 12  2  1  0
 12  3  1  0
 12 10  1  0
 13 12  1  0
 14  8  1  0
 14 11  1  0
 15  9  1  0
 15 11  1  0
M  END
>  <NAME>  (1524) 
2-(4-HYDROXY-3,4-DIMETHYLPENTOXY)TETRAHYDRO-2H-PYRAN

>  <SYNONYMS>  (1524) 


>  <SPECTRUM TYPE>  (1524) 
MS1

>  <INSTRUMENT TYPE>  (1524) 
EI-B

>  <INSTRUMENT>  (1524) 
JEOL JMS-D-300

>  <ION MODE>  (1524) 
P

>  <INCHIKEY>  (1524) 
AHUOICUKGFHOHG-UHFFFAOYSA-N

>  <FORMULA>  (1524) 
C12H24O3

>  <EXACT MASS>  (1524) 
216.17254462799997

>  <MW>  (1524) 
216

>  <ID>  (1524) 
JP009896

>  <CONTRIBUTOR>  (1524) 
University of Tokyo Team, {Faculty of Engineering, University of Tokyo

>  <COMMENT>  (1524) 
SMILES=CC(CCOC(C1)OCCC1)C(C)(C)O
InChI=InChI=1S/C12H24O3/c1-10(12(2,3)13)7-9-15-11-6-4-5-8-14-11/h10-11,13H,4-9H2,1-3H3
computed SMILES=OC(C)(C)C(C)CCOC1OCCCC1
accession=JP009896
date=2016.01.19 (Created 2008.10.21, modified 2011.05.06)
author=KURARAY CO., LTD.
license=CC BY-NC-SA
exact mass=216.17254
ionization energy=70 eV
ion type=[M]+*
computed spectral entropy=2.876505975778227
computed normalized entropy=0.8226797526420287
SPLASH=splash10-052u-9100000000-32a0a6e7becc9720adea
submitter=submitter = University of Tokyo Team (Faculty of Engineering, University of Tokyo)
MoNA Rating=3.75

>  <NUM PEAKS>  (1524) 
33

>  <MASS SPECTRAL PEAKS>  (1524) 
27 6.5
28 4
29 13.8
31 9
39 6
41 28.6
42 6.8
43 40
44 1.3
45 2
53 1.7
55 26.2
56 9
57 15
58 2.7
59 44
67 8.7
69 23.5
70 2
71 3.2
73 2
83 6.5
84 3
85 99.99
86 5.8
99 10.5
101 6.3
112 18
114 1.5
116 6.2
126 3
129 19.5
132 2.8

$$$$

     RDKit          2D

 15 14  0  0  0  0  0  0  0  0999 V2000
    3.8971    6.7500    0.0000 C   0  0  0  0  0  0  0  0  0  0  0  0
  -11.6913    6.7500    0.0000 C   0  0  0  0  0  0  0  0  0  0  0  0
   -3.8971    6.7500    0.0000 C   0  0  0  0  0  0  0  0  0  0  0  0
   -2.5981    7.5000    0.0000 C   0  0  0  0  0  0  0  0  0  0  0  0
   -5.1962    7.5000    0.0000 C   0  0  0  0  0  0  0  0  0  0  0  0
   -1.2990    6.7500    0.0000 C   0  0  0  0  0  0  0  0  0  0  0  0
   -6.4952    6.7500    0.0000 C   0  0  0  0  0  0  0  0  0  0  0  0
    0.0000    7.5000    0.0000 C   0  0  0  0  0  0  0  0  0  0  0  0
   -7.7942    7.5000    0.0000 C   0  0  0  0  0  0  0  0  0  0  0  0
    1.2990    6.7500    0.0000 C   0  0  0  0  0  0  0  0  0  0  0  0
   -9.0933    6.7500    0.0000 C   0  0  0  0  0  0  0  0  0  0  0  0
    1.2990    5.2500    0.0000 O   0  0  0  0  0  0  0  0  0  0  0  0
   -9.0933    5.2500    0.0000 O   0  0  0  0  0  0  0  0  0  0  0  0
    2.5981    7.5000    0.0000 O   0  0  0  0  0  0  0  0  0  0  0  0
  -10.3923    7.5000    0.0000 O   0  0  0  0  0  0  0  0  0  0  0  0
  4  3  1  0
  5  3  1  0
  6  4  1  0
  7  5  1  0
  8  6  1  0
  9  7  1  0
 10  8  1  0
 11  9  1  0
 12 10  2  0
 13 11  2  0
 14  1  1  0
 14 10  1  0
 15  2  1  0
 15 11  1  0
M  END
>  <NAME>  (1525) 
DIMETHYL NONANEDIOATE

>  <SYNONYMS>  (1525) 


>  <SPECTRUM TYPE>  (1525) 
MS1

>  <INSTRUMENT TYPE>  (1525) 
EI-B

>  <INSTRUMENT>  (1525) 
JEOL JMS-D-300

>  <ION MODE>  (1525) 
P

>  <INCHIKEY>  (1525) 
DRUKNYVQGHETPO-UHFFFAOYSA-N

>  <FORMULA>  (1525) 
C11H20O4

>  <EXACT MASS>  (1525) 
216.13615912

>  <MW>  (1525) 
216

>  <ID>  (1525) 
JP009894

>  <CONTRIBUTOR>  (1525) 
University of Tokyo Team, {Faculty of Engineering, University of Tokyo

>  <COMMENT>  (1525) 
SMILES=COC(=O)CCCCCCCC(=O)OC
cas=1732-10-1
InChI=InChI=1S/C11H20O4/c1-14-10(12)8-6-4-3-5-7-9-11(13)15-2/h3-9H2,1-2H3
computed SMILES=O=C(OC)CCCCCCCC(=O)OC
accession=JP009894
date=2016.01.19 (Created 2008.10.21, modified 2011.05.06)
author=KURARAY CO., LTD.
license=CC BY-NC-SA
exact mass=216.13616
ionization energy=70 eV
ion type=[M]+*
computed spectral entropy=3.4087378262835135
computed normalized entropy=0.819628192944975
SPLASH=splash10-0piu-9200000000-2d1b67f9c876d877c4a4
submitter=submitter = University of Tokyo Team (Faculty of Engineering, University of Tokyo)
MoNA Rating=3.75

>  <NUM PEAKS>  (1525) 
64

>  <MASS SPECTRAL PEAKS>  (1525) 
27 8.8
28 17.2
29 13.8
30 2
31 3.5
32 8.6
33 1
39 11
41 39.8
42 12.3
43 46.1
44 4
45 7.6
49 1.1
53 4.5
54 4.6
55 91.6
56 6.8
57 7.6
58 1.7
59 49
60 2
63 5.9
65 1.3
67 10.2
68 8.7
69 41
70 4
71 6.6
72 2
73 9.5
74 96.5
75 5.8
77 2.7
79 4.7
80 4.8
81 10.8
82 12
83 72
84 36.8
85 4
87 35.5
88 4.9
89 1.3
91 1.2
92 1.4
93 3.2
94 1.5
95 5
96 12.8
97 31.8
98 21
99 4.1
100 1.5
151 1.7
152 99.99
153 14.3
154 1
156 7
157 2.2
184 4.5
185 58.4
186 8.2
187 1.2

$$$$

     RDKit          2D

 15 14  0  0  0  0  0  0  0  0999 V2000
   -6.5663    4.4589    0.0000 C   0  0  0  0  0  0  0  0  0  0  0  0
    2.5270    3.7089    0.0000 C   0  0  0  0  0  0  0  0  0  0  0  0
    1.2279    5.9589    0.0000 C   0  0  0  0  0  0  0  0  0  0  0  0
   -3.6334    2.5599    0.0000 C   0  0  0  0  0  0  0  0  0  0  0  0
   -1.2538    0.0013    0.0000 C   0  0  0  0  0  0  0  0  0  0  0  0
    0.7364    1.6713    0.0000 C   0  0  0  0  0  0  0  0  0  0  0  0
   -5.2673    3.7089    0.0000 C   0  0  0  0  0  0  0  0  0  0  0  0
   -0.0711    3.7089    0.0000 C   0  0  0  0  0  0  0  0  0  0  0  0
   -3.9682    4.4589    0.0000 C   0  0  0  0  0  0  0  0  0  0  0  0
   -1.3701    4.4589    0.0000 C   0  0  0  0  0  0  0  0  0  0  0  0
    1.2279    4.4589    0.0000 C   0  0  0  0  0  0  0  0  0  0  0  0
   -1.7050    2.5599    0.0000 C   0  0  0  0  0  0  0  0  0  0  0  0
   -2.6692    3.7089    0.0000 C   0  0  0  0  0  0  0  0  0  0  0  0
   -2.2180    1.1503    0.0000 O   0  0  0  0  0  0  0  0  0  0  0  0
   -0.2278    2.8204    0.0000 O   0  0  0  0  0  0  0  0  0  0  0  0
  7  1  1  0
  9  7  1  0
 10  8  1  0
 11  2  1  0
 11  3  1  0
 11  8  2  0
 13  4  1  0
 13  9  1  0
 13 10  1  0
 13 12  1  0
 14  5  1  0
 14 12  1  0
 15  6  1  0
 15 12  1  0
M  END
>  <NAME>  (1526) 
2,5-DIMETHYL-2-PROPYL-4-HEXENAL DIMETHYL ACETAL

>  <SYNONYMS>  (1526) 


>  <SPECTRUM TYPE>  (1526) 
MS1

>  <INSTRUMENT TYPE>  (1526) 
EI-B

>  <INSTRUMENT>  (1526) 
JEOL JMS-D-300

>  <ION MODE>  (1526) 
P

>  <INCHIKEY>  (1526) 
CYKQWXWEZRIDJL-UHFFFAOYSA-N

>  <FORMULA>  (1526) 
C13H26O2

>  <EXACT MASS>  (1526) 
214.193280072

>  <MW>  (1526) 
214

>  <ID>  (1526) 
JP009893

>  <CONTRIBUTOR>  (1526) 
University of Tokyo Team, {Faculty of Engineering, University of Tokyo

>  <COMMENT>  (1526) 
SMILES=CCCC(C)(CC=C(C)C)C(OC)OC
InChI=InChI=1S/C13H26O2/c1-7-9-13(4,10-8-11(2)3)12(14-5)15-6/h8,12H,7,9-10H2,1-6H3
computed SMILES=O(C)C(OC)C(C)(CC=C(C)C)CCC
accession=JP009893
date=2016.01.19 (Created 2008.10.21, modified 2011.05.06)
author=KURARAY CO., LTD.
license=CC BY-NC-SA
exact mass=214.19328
ionization energy=70 eV
ion type=[M]+*
computed spectral entropy=2.0332349813134343
computed normalized entropy=0.6169100789804576
SPLASH=splash10-004i-9300000000-a82660e4075ac8c5a9d8
submitter=submitter = University of Tokyo Team (Faculty of Engineering, University of Tokyo)
MoNA Rating=3.75

>  <NUM PEAKS>  (1526) 
27

>  <MASS SPECTRAL PEAKS>  (1526) 
29 1
41 6
43 1.6
45 1.2
47 2.3
56 3.2
59 2.7
69 9
71 1.2
73 1
75 99.99
76 3.3
81 2.2
85 3.9
86 1
87 3
107 1.5
109 1.2
113 2
114 1.8
115 2
139 24
140 2.7
145 1.5
167 1.6
182 8.6
183 3.2

$$$$

     RDKit          2D

 15 15  0  0  0  0  0  0  0  0999 V2000
    0.3255   -0.9386    0.0000 C   0  0  0  0  0  0  0  0  0  0  0  0
   -8.7680   -3.1886    0.0000 C   0  0  0  0  0  0  0  0  0  0  0  0
    1.6249   -3.1884    0.0000 C   0  0  0  0  0  0  0  0  0  0  0  0
   -0.9731   -3.1889    0.0000 C   0  0  0  0  0  0  0  0  0  0  0  0
   -7.4694   -0.9378    0.0000 C   0  0  0  0  0  0  0  0  0  0  0  0
    2.9239   -2.4382    0.0000 C   0  0  0  0  0  0  0  0  0  0  0  0
   -2.2723   -2.4391    0.0000 C   0  0  0  0  0  0  0  0  0  0  0  0
   -6.1704   -0.1878    0.0000 C   0  0  0  0  0  0  0  0  0  0  0  0
   -6.1694   -3.1895    0.0000 C   0  0  0  0  0  0  0  0  0  0  0  0
    0.3258   -2.4386    0.0000 C   0  0  0  0  0  0  0  0  0  0  0  0
   -7.4689   -2.4386    0.0000 C   0  0  0  0  0  0  0  0  0  0  0  0
   -4.8704   -2.4395    0.0000 C   0  0  0  0  0  0  0  0  0  0  0  0
    4.2230   -3.1880    0.0000 O   0  0  0  0  0  0  0  0  0  0  0  0
   -3.5712   -3.1893    0.0000 O   0  0  0  0  0  0  0  0  0  0  0  0
   -4.8709   -0.9386    0.0000 O   0  0  0  0  0  0  0  0  0  0  0  0
  6  3  1  0
  7  4  1  0
  8  5  1  0
 10  1  1  0
 10  3  1  0
 10  4  1  0
 11  2  1  0
 11  5  1  0
 11  9  1  0
 12  9  1  0
 13  6  2  0
 14  7  1  0
 14 12  1  0
 15  8  1  0
 15 12  1  0
M  END
>  <NAME>  (1527) 
4-METHYL-2-(4-METHYL-6-OXO-1-OXAHEXYL)TETRAHYDRO-2H-PYRAN

>  <SYNONYMS>  (1527) 


>  <SPECTRUM TYPE>  (1527) 
MS1

>  <INSTRUMENT TYPE>  (1527) 
EI-B

>  <INSTRUMENT>  (1527) 
JEOL JMS-D-300

>  <ION MODE>  (1527) 
P

>  <INCHIKEY>  (1527) 
NYNVUDUNNAUQKW-UHFFFAOYSA-N

>  <FORMULA>  (1527) 
C12H22O3

>  <EXACT MASS>  (1527) 
214.15689456399997

>  <MW>  (1527) 
214

>  <ID>  (1527) 
JP009892

>  <CONTRIBUTOR>  (1527) 
University of Tokyo Team, {Faculty of Engineering, University of Tokyo

>  <COMMENT>  (1527) 
SMILES=O=CCC(C)CCOC(O1)CC(C)CC1
cas=101153-83-7
InChI=InChI=1S/C12H22O3/c1-10(3-6-13)4-7-14-12-9-11(2)5-8-15-12/h6,10-12H,3-5,7-9H2,1-2H3
computed SMILES=O=CCC(C)CCOC1OCCC(C)C1
accession=JP009892
date=2016.01.19 (Created 2008.10.21, modified 2011.05.06)
author=KURARAY CO., LTD.
license=CC BY-NC-SA
exact mass=214.15689
ionization energy=70 eV
ion type=[M]+*
computed spectral entropy=2.31594149936597
computed normalized entropy=0.7026869330986262
SPLASH=splash10-0002-9000000000-e2c4ca7d928ac5bb162f
submitter=submitter = University of Tokyo Team (Faculty of Engineering, University of Tokyo)
MoNA Rating=3.75

>  <NUM PEAKS>  (1527) 
27

>  <MASS SPECTRAL PEAKS>  (1527) 
27 2.5
28 1.5
29 4
31 2.5
39 1.5
41 10.6
42 3.7
43 23
44 1.2
45 2.8
53 1.5
55 14
56 1.5
57 6.3
58 1
59 3.2
67 1.8
69 9.3
70 7.2
81 9.8
82 1
83 3.3
84 4.7
98 3.3
99 99.99
100 8.2
101 1.5

$$$$

     RDKit          2D

 15 14  0  0  0  0  0  0  0  0999 V2000
    3.8971    6.0000    0.0000 C   0  0  0  0  0  0  0  0  0  0  0  0
   -2.5981    8.2500    0.0000 C   0  0  0  0  0  0  0  0  0  0  0  0
  -10.3923    6.7500    0.0000 C   0  0  0  0  0  0  0  0  0  0  0  0
    2.5981    6.7500    0.0000 C   0  0  0  0  0  0  0  0  0  0  0  0
   -5.1962    6.7500    0.0000 C   0  0  0  0  0  0  0  0  0  0  0  0
   -3.8971    6.0000    0.0000 C   0  0  0  0  0  0  0  0  0  0  0  0
   -6.4952    6.0000    0.0000 C   0  0  0  0  0  0  0  0  0  0  0  0
   -1.2990    6.0000    0.0000 C   0  0  0  0  0  0  0  0  0  0  0  0
    0.0000    6.7500    0.0000 C   0  0  0  0  0  0  0  0  0  0  0  0
   -2.5981    6.7500    0.0000 C   0  0  0  0  0  0  0  0  0  0  0  0
    1.2990    6.0000    0.0000 C   0  0  0  0  0  0  0  0  0  0  0  0
   -7.7942    6.7500    0.0000 C   0  0  0  0  0  0  0  0  0  0  0  0
    1.2990    4.5000    0.0000 O   0  0  0  0  0  0  0  0  0  0  0  0
   -7.7942    8.2500    0.0000 O   0  0  0  0  0  0  0  0  0  0  0  0
   -9.0933    6.0000    0.0000 O   0  0  0  0  0  0  0  0  0  0  0  0
  4  1  1  0
  6  5  1  0
  7  5  1  0
  9  8  1  0
 10  2  1  0
  6 10  2  0
 10  8  1  0
 11  4  1  0
 11  9  1  0
 12  7  1  0
 13 11  1  0
 14 12  2  0
 15  3  1  0
 15 12  1  0
M  END
>  <NAME>  (1528) 
METHYL 8-HYDROXY-5-METHYL-4-DECENOATE

>  <SYNONYMS>  (1528) 


>  <SPECTRUM TYPE>  (1528) 
MS1

>  <INSTRUMENT TYPE>  (1528) 
EI-B

>  <INSTRUMENT>  (1528) 
JEOL JMS-D-300

>  <ION MODE>  (1528) 
P

>  <INCHIKEY>  (1528) 
PAFTXKVWUFSNKO-UXBLZVDNSA-N

>  <FORMULA>  (1528) 
C12H22O3

>  <EXACT MASS>  (1528) 
214.15689456399997

>  <MW>  (1528) 
214

>  <ID>  (1528) 
JP009891

>  <CONTRIBUTOR>  (1528) 
University of Tokyo Team, {Faculty of Engineering, University of Tokyo

>  <COMMENT>  (1528) 
SMILES=CCC(O)CCC(C)=CCCC(=O)OC
InChI=InChI=1S/C12H22O3/c1-4-11(13)9-8-10(2)6-5-7-12(14)15-3/h6,11,13H,4-5,7-9H2,1-3H3/b10-6+
computed SMILES=O=C(OC)CCC=C(C)CCC(O)CC
accession=JP009891
date=2016.01.19 (Created 2008.10.21, modified 2011.05.06)
author=KURARAY CO., LTD.
license=CC BY-NC-SA
exact mass=214.15689
ionization energy=70 eV
ion type=[M]+*
computed spectral entropy=3.8256870868963238
computed normalized entropy=0.9269596601358367
SPLASH=splash10-053u-9300000000-a811f75917e3a09af57e
submitter=submitter = University of Tokyo Team (Faculty of Engineering, University of Tokyo)
MoNA Rating=3.75

>  <NUM PEAKS>  (1528) 
62

>  <MASS SPECTRAL PEAKS>  (1528) 
27 10.8
29 13.2
31 30
39 13.4
41 35.8
42 4.7
43 32
44 4.3
45 8.2
53 14.8
54 4
55 45.2
56 5
57 12.8
59 32
65 3.7
67 35.8
68 14
69 32.5
70 8.8
71 5.3
72 21
73 4.7
74 25.6
77 7.3
79 26.7
80 17.2
81 99.99
82 44.6
83 31
85 14.7
87 13.5
91 5.7
93 72
94 21
95 28.6
96 14.7
97 8.2
98 16.5
99 15.3
107 24
108 18.2
109 19.6
110 5.7
111 34.8
112 5.3
122 8.3
123 26.6
124 20.8
125 23.5
127 3.8
135 18.6
136 5.6
140 30.2
141 6
142 8.7
143 23.6
147 4
153 9
156 17.8
165 4.5
167 5.2

$$$$

     RDKit          2D

 15 14  0  0  0  0  0  0  0  0999 V2000
    4.8714    6.5625    0.0000 C   0  0  0  0  0  0  0  0  0  0  0  0
   -5.5209    6.5625    0.0000 C   0  0  0  0  0  0  0  0  0  0  0  0
   -4.2219    7.3125    0.0000 C   0  0  0  0  0  0  0  0  0  0  0  0
   -6.8200    7.3125    0.0000 C   0  0  0  0  0  0  0  0  0  0  0  0
   -2.9228    6.5625    0.0000 C   0  0  0  0  0  0  0  0  0  0  0  0
   -8.1190    6.5625    0.0000 C   0  0  0  0  0  0  0  0  0  0  0  0
   -1.6238    7.3125    0.0000 C   0  0  0  0  0  0  0  0  0  0  0  0
   -9.4180    7.3125    0.0000 C   0  0  0  0  0  0  0  0  0  0  0  0
   -0.3248    6.5625    0.0000 C   0  0  0  0  0  0  0  0  0  0  0  0
  -10.7171    6.5625    0.0000 C   0  0  0  0  0  0  0  0  0  0  0  0
    0.9743    7.3125    0.0000 C   0  0  0  0  0  0  0  0  0  0  0  0
    3.5724    7.3125    0.0000 C   0  0  0  0  0  0  0  0  0  0  0  0
  -12.0161    7.3125    0.0000 O   0  0  0  0  0  0  0  0  0  0  0  0
    3.5724    8.8125    0.0000 O   0  0  0  0  0  0  0  0  0  0  0  0
    2.2733    6.5625    0.0000 O   0  0  0  0  0  0  0  0  0  0  0  0
  3  2  1  0
  4  2  1  0
  5  3  1  0
  6  4  1  0
  7  5  1  0
  8  6  1  0
  9  7  1  0
 10  8  1  0
 11  9  1  0
 12  1  1  0
 13 10  2  0
 14 12  2  0
 15 11  1  0
 15 12  1  0
M  END
>  <NAME>  (1529) 
10-OXODECANYL ACETATE

>  <SYNONYMS>  (1529) 


>  <SPECTRUM TYPE>  (1529) 
MS1

>  <INSTRUMENT TYPE>  (1529) 
EI-B

>  <INSTRUMENT>  (1529) 
JEOL JMS-D-300

>  <ION MODE>  (1529) 
P

>  <INCHIKEY>  (1529) 
JAPNOISVXDOAHT-UHFFFAOYSA-N

>  <FORMULA>  (1529) 
C12H22O3

>  <EXACT MASS>  (1529) 
214.15689456399997

>  <MW>  (1529) 
214

>  <ID>  (1529) 
JP009890

>  <CONTRIBUTOR>  (1529) 
University of Tokyo Team, {Faculty of Engineering, University of Tokyo

>  <COMMENT>  (1529) 
SMILES=O=CCCCCCCCCCOC(C)=O
InChI=InChI=1S/C12H22O3/c1-12(14)15-11-9-7-5-3-2-4-6-8-10-13/h10H,2-9,11H2,1H3
computed SMILES=O=CCCCCCCCCCOC(=O)C
accession=JP009890
date=2016.01.19 (Created 2008.10.21, modified 2011.05.06)
author=KURARAY CO., LTD.
license=CC BY-NC-SA
exact mass=214.15689
ionization energy=70 eV
ion type=[M]+*
computed spectral entropy=3.308079802106313
computed normalized entropy=0.8741844680444912
SPLASH=splash10-014l-9100000000-c0df55f9105dbd06a515
submitter=submitter = University of Tokyo Team (Faculty of Engineering, University of Tokyo)
MoNA Rating=3.75

>  <NUM PEAKS>  (1529) 
44

>  <MASS SPECTRAL PEAKS>  (1529) 
27 4.8
28 19.7
29 11
32 12.3
39 4.8
41 30
42 10
43 99.99
44 9
45 2.1
54 13.2
55 51
56 22
57 16.7
58 4.8
61 32.3
67 21
68 22.3
69 64
70 22.7
71 9
73 4.8
79 6.8
80 5.8
81 17
82 16.6
83 19.3
84 12.8
85 3
94 7
95 5.3
96 10
97 4.2
98 19
112 4.8
113 3
114 1.6
115 5.5
116 42.9
117 6
121 2.8
126 5.2
135 1.3
171 4

$$$$

     RDKit          2D

 15 14  0  0  0  0  0  0  0  0999 V2000
    2.5981    4.5000    0.0000 C   0  0  0  0  0  0  0  0  0  0  0  0
   -5.0395    3.6114    0.0000 C   0  0  0  0  0  0  0  0  0  0  0  0
   -0.9642    5.6491    0.0000 C   0  0  0  0  0  0  0  0  0  0  0  0
   -5.1962    9.0000    0.0000 C   0  0  0  0  0  0  0  0  0  0  0  0
    1.2990    3.7500    0.0000 C   0  0  0  0  0  0  0  0  0  0  0  0
   -4.0753    4.7605    0.0000 C   0  0  0  0  0  0  0  0  0  0  0  0
   -2.5981    6.0000    0.0000 C   0  0  0  0  0  0  0  0  0  0  0  0
   -1.2990    3.7500    0.0000 C   0  0  0  0  0  0  0  0  0  0  0  0
   -3.8971    6.7500    0.0000 C   0  0  0  0  0  0  0  0  0  0  0  0
    0.0000    4.5000    0.0000 C   0  0  0  0  0  0  0  0  0  0  0  0
   -2.5981    4.5000    0.0000 C   0  0  0  0  0  0  0  0  0  0  0  0
   -5.1962    6.0000    0.0000 O   0  0  0  0  0  0  0  0  0  0  0  0
    0.9642    5.6491    0.0000 O   0  0  0  0  0  0  0  0  0  0  0  0
   -3.1111    3.0905    0.0000 O   0  0  0  0  0  0  0  0  0  0  0  0
   -3.8971    8.2500    0.0000 O   0  0  0  0  0  0  0  0  0  0  0  0
  5  1  2  0
  6  2  2  0
  9  7  1  0
 10  3  1  0
 10  5  1  0
 10  8  1  0
 11  6  1  0
 11  7  1  0
 11  8  1  0
 12  9  2  0
 13 10  1  0
 14 11  1  0
 15  4  1  0
 15  9  1  0
M  END
>  <NAME>  (1530) 
METHYL 3,5-DIHYDRO-3-ETHENYL-5-METHYL-6-HEPTENOATE

>  <SYNONYMS>  (1530) 


>  <SPECTRUM TYPE>  (1530) 
MS1

>  <INSTRUMENT TYPE>  (1530) 
EI-B

>  <INSTRUMENT>  (1530) 
JEOL JMS-D-300

>  <ION MODE>  (1530) 
P

>  <INCHIKEY>  (1530) 
DBGDHNKKUGAQJO-UHFFFAOYSA-N

>  <FORMULA>  (1530) 
C11H18O4

>  <EXACT MASS>  (1530) 
214.120509056

>  <MW>  (1530) 
214

>  <ID>  (1530) 
JP009889

>  <CONTRIBUTOR>  (1530) 
University of Tokyo Team, {Faculty of Engineering, University of Tokyo

>  <COMMENT>  (1530) 
SMILES=COC(=O)CC(O)(C=C)CC(C)(O)C=C
InChI=InChI=1S/C11H18O4/c1-5-10(3,13)8-11(14,6-2)7-9(12)15-4/h5-6,13-14H,1-2,7-8H2,3-4H3
computed SMILES=O=C(OC)CC(O)(C=C)CC(O)(C=C)C
accession=JP009889
date=2016.01.19 (Created 2008.10.21, modified 2011.05.06)
author=KURARAY CO., LTD.
license=CC BY-NC-SA
exact mass=214.12051
ionization energy=70 eV
ion type=[M]+*
computed spectral entropy=3.594842878313789
computed normalized entropy=0.8710263691291247
SPLASH=splash10-0006-9700000000-028deddf0d481a5f0883
submitter=submitter = University of Tokyo Team (Faculty of Engineering, University of Tokyo)
MoNA Rating=3.75

>  <NUM PEAKS>  (1530) 
62

>  <MASS SPECTRAL PEAKS>  (1530) 
27 4.5
28 6.3
29 4.2
39 6.6
41 14.8
42 6.2
43 99.99
44 4.8
53 3
54 2
55 14
56 2.8
57 3.8
58 2
59 9.5
67 6.3
68 7.7
69 12
70 5.6
71 12.8
73 2
74 2.8
79 4.8
80 2.8
81 9
84 14.2
85 8.5
93 3
94 8.3
95 12.4
96 2
97 18
98 61.4
99 10.5
101 4.6
111 22
112 26.3
113 10
117 2.8
122 7
123 3.2
125 15.5
126 21
127 3.8
129 6.6
130 2.6
139 11
140 29.8
141 30.3
142 2
143 9
144 5.3
154 32
155 20.6
156 1.5
165 5.7
171 5.5
172 17.2
173 1.5
182 2
183 4
214 2.2

$$$$

     RDKit          2D

  6  5  0  0  0  0  0  0  0  0999 V2000
   -1.9486    3.3750    0.0000 C   0  0  0  0  0  0  0  0  0  0  0  0
   -0.6495    2.6250    0.0000 C   0  0  0  0  0  0  0  0  0  0  0  0
   -3.2476    2.6250    0.0000 C   0  0  0  0  0  0  0  0  0  0  0  0
    0.6495    3.3750    0.0000 C   0  0  0  0  0  0  0  0  0  0  0  0
   -4.5466    3.3750    0.0000 Br  0  0  0  0  0  0  0  0  0  0  0  0
    1.9486    2.6250    0.0000 Br  0  0  0  0  0  0  0  0  0  0  0  0
  2  1  1  0
  3  1  1  0
  4  2  1  0
  5  3  1  0
  6  4  1  0
M  END
>  <NAME>  (1531) 
1,4-DIBROMOBUTANE

>  <SYNONYMS>  (1531) 


>  <SPECTRUM TYPE>  (1531) 
MS1

>  <INSTRUMENT TYPE>  (1531) 
EI-B

>  <INSTRUMENT>  (1531) 
JEOL JMS-D-300

>  <ION MODE>  (1531) 
P

>  <INCHIKEY>  (1531) 
ULTHEAFYOOPTTB-UHFFFAOYSA-N

>  <FORMULA>  (1531) 
C4H8Br2

>  <EXACT MASS>  (1531) 
213.899274456

>  <MW>  (1531) 
214

>  <ID>  (1531) 
JP009888

>  <CONTRIBUTOR>  (1531) 
University of Tokyo Team, {Faculty of Engineering, University of Tokyo

>  <COMMENT>  (1531) 
SMILES=BrCCCCBr
cas=110-52-1
InChI=InChI=1S/C4H8Br2/c5-3-1-2-4-6/h1-4H2
computed SMILES=BrCCCCBr
accession=JP009888
date=2016.01.19 (Created 2008.10.21, modified 2011.05.06)
author=KURARAY CO., LTD.
license=CC BY-NC-SA
exact mass=213.89928
ionization energy=70 eV
ion type=[M]+*
computed spectral entropy=2.4359025443832754
computed normalized entropy=0.7234002200492909
SPLASH=splash10-052r-7900000000-7e27fed7fcb7770cebfa
submitter=submitter = University of Tokyo Team (Faculty of Engineering, University of Tokyo)
MoNA Rating=3.75

>  <NUM PEAKS>  (1531) 
29

>  <MASS SPECTRAL PEAKS>  (1531) 
26 4
27 18.2
28 5.4
29 18
39 10.7
41 10
50 1
51 1.2
53 5
54 1.5
55 99.99
56 4.4
79 1.7
80 3.1
81 1.7
82 3.2
95 3.6
106 4.5
107 13.6
108 4.6
109 13.2
134 10.2
135 84.4
136 13.7
137 80.8
138 3.3
214 0.9
216 1.7
218 0.8

$$$$

     RDKit          2D

 15 14  0  0  0  0  0  0  0  0999 V2000
    3.8971    6.0000    0.0000 C   0  0  0  0  0  0  0  0  0  0  0  0
   -2.5981    8.2500    0.0000 C   0  0  0  0  0  0  0  0  0  0  0  0
  -10.3923    6.7500    0.0000 C   0  0  0  0  0  0  0  0  0  0  0  0
    2.5981    6.7500    0.0000 C   0  0  0  0  0  0  0  0  0  0  0  0
   -5.1962    6.7500    0.0000 C   0  0  0  0  0  0  0  0  0  0  0  0
   -3.8971    6.0000    0.0000 C   0  0  0  0  0  0  0  0  0  0  0  0
   -6.4952    6.0000    0.0000 C   0  0  0  0  0  0  0  0  0  0  0  0
   -1.2990    6.0000    0.0000 C   0  0  0  0  0  0  0  0  0  0  0  0
    0.0000    6.7500    0.0000 C   0  0  0  0  0  0  0  0  0  0  0  0
   -2.5981    6.7500    0.0000 C   0  0  0  0  0  0  0  0  0  0  0  0
    1.2990    6.0000    0.0000 C   0  0  0  0  0  0  0  0  0  0  0  0
   -7.7942    6.7500    0.0000 C   0  0  0  0  0  0  0  0  0  0  0  0
    1.2990    4.5000    0.0000 O   0  0  0  0  0  0  0  0  0  0  0  0
   -7.7942    8.2500    0.0000 O   0  0  0  0  0  0  0  0  0  0  0  0
   -9.0933    6.0000    0.0000 O   0  0  0  0  0  0  0  0  0  0  0  0
  4  1  1  0
  6  5  1  0
  7  5  1  0
  9  8  1  0
 10  2  1  0
  6 10  2  0
 10  8  1  0
 11  4  1  0
 11  9  1  0
 12  7  1  0
 13 11  2  0
 14 12  2  0
 15  3  1  0
 15 12  1  0
M  END
>  <NAME>  (1532) 
METHYL 5-METHYL-8-OXO-4-DECENOATE

>  <SYNONYMS>  (1532) 


>  <SPECTRUM TYPE>  (1532) 
MS1

>  <INSTRUMENT TYPE>  (1532) 
EI-B

>  <INSTRUMENT>  (1532) 
JEOL JMS-D-300

>  <ION MODE>  (1532) 
P

>  <INCHIKEY>  (1532) 
KQXMJPIJJDMVKD-UXBLZVDNSA-N

>  <FORMULA>  (1532) 
C12H20O3

>  <EXACT MASS>  (1532) 
212.14124449999997

>  <MW>  (1532) 
212

>  <ID>  (1532) 
JP009887

>  <CONTRIBUTOR>  (1532) 
University of Tokyo Team, {Faculty of Engineering, University of Tokyo

>  <COMMENT>  (1532) 
SMILES=CCC(=O)CCC(C)=CCCC(=O)OC
InChI=InChI=1S/C12H20O3/c1-4-11(13)9-8-10(2)6-5-7-12(14)15-3/h6H,4-5,7-9H2,1-3H3/b10-6+
computed SMILES=O=C(OC)CCC=C(C)CCC(=O)CC
accession=JP009887
date=2016.01.19 (Created 2008.10.21, modified 2011.05.06)
author=KURARAY CO., LTD.
license=CC BY-NC-SA
exact mass=212.14124
ionization energy=70 eV
ion type=[M]+*
computed spectral entropy=3.3219529361240983
computed normalized entropy=0.8327817051525457
SPLASH=splash10-0a4i-9300000000-65ee1489ac305963af31
submitter=submitter = University of Tokyo Team (Faculty of Engineering, University of Tokyo)
MoNA Rating=3.75

>  <NUM PEAKS>  (1532) 
54

>  <MASS SPECTRAL PEAKS>  (1532) 
27 5.8
29 30.5
39 5.2
41 14
43 10
45 2
53 7.2
55 15
57 99.99
58 5
59 10.2
65 1.2
67 10.6
68 1.7
69 2.3
72 5.2
74 6.8
77 2.2
79 8
80 7.2
81 60.6
82 10
83 2.7
85 2.2
91 1
93 2.2
94 1.2
95 25.2
96 4.5
97 3.6
98 7.8
99 15.5
105 2
107 1.2
108 9.2
109 16
110 1.2
113 2.2
120 3
121 6.2
123 28.3
124 10
125 14.8
151 4.4
152 4.3
155 4.8
163 1.5
165 1.5
180 2.3
181 8.5
194 20.7
195 1.5
212 16
213 1.2

$$$$

     RDKit          2D

 15 14  0  0  0  0  0  0  0  0999 V2000
   -2.2733    7.6875    0.0000 C   0  0  0  0  0  0  0  0  0  0  0  0
   -7.4695    7.6875    0.0000 C   0  0  0  0  0  0  0  0  0  0  0  0
    4.2219    5.4375    0.0000 C   0  0  0  0  0  0  0  0  0  0  0  0
   -4.8714    6.1875    0.0000 C   0  0  0  0  0  0  0  0  0  0  0  0
   -3.5724    5.4375    0.0000 C   0  0  0  0  0  0  0  0  0  0  0  0
   -6.1704    5.4375    0.0000 C   0  0  0  0  0  0  0  0  0  0  0  0
   -0.9743    5.4375    0.0000 C   0  0  0  0  0  0  0  0  0  0  0  0
    0.3248    6.1875    0.0000 C   0  0  0  0  0  0  0  0  0  0  0  0
   -8.7685    5.4375    0.0000 C   0  0  0  0  0  0  0  0  0  0  0  0
   -2.2733    6.1875    0.0000 C   0  0  0  0  0  0  0  0  0  0  0  0
   -7.4695    6.1875    0.0000 C   0  0  0  0  0  0  0  0  0  0  0  0
    2.9228    6.1875    0.0000 C   0  0  0  0  0  0  0  0  0  0  0  0
  -10.0675    6.1875    0.0000 O   0  0  0  0  0  0  0  0  0  0  0  0
    2.9228    7.6875    0.0000 O   0  0  0  0  0  0  0  0  0  0  0  0
    1.6238    5.4375    0.0000 O   0  0  0  0  0  0  0  0  0  0  0  0
  5  4  1  0
  6  4  1  0
  8  7  1  0
 10  1  1  0
 10  5  1  0
  7 10  2  0
 11  2  1  0
  6 11  2  0
 11  9  1  0
 12  3  1  0
 13  9  1  0
 14 12  2  0
 15  8  1  0
 15 12  1  0
M  END
>  <NAME>  (1533) 
8-HYDROXY-3,7-DIMETHYL-2,6-OCTADIENYL ACETATE(E)

>  <SYNONYMS>  (1533) 


>  <SPECTRUM TYPE>  (1533) 
MS1

>  <INSTRUMENT TYPE>  (1533) 
EI-B

>  <INSTRUMENT>  (1533) 
JEOL JMS-D-300

>  <ION MODE>  (1533) 
P

>  <INCHIKEY>  (1533) 
HZIJXISIZGWHAY-NXAIOARDSA-N

>  <FORMULA>  (1533) 
C12H20O3

>  <EXACT MASS>  (1533) 
212.14124449999997

>  <MW>  (1533) 
212

>  <ID>  (1533) 
JP009886

>  <CONTRIBUTOR>  (1533) 
University of Tokyo Team, {Faculty of Engineering, University of Tokyo

>  <COMMENT>  (1533) 
SMILES=OCC(C)=CCCC(C)=CCOC(C)=O
InChI=InChI=1S/C12H20O3/c1-10(7-8-15-12(3)14)5-4-6-11(2)9-13/h6-7,13H,4-5,8-9H2,1-3H3/b10-7+,11-6+
computed SMILES=O=C(OCC=C(C)CCC=C(C)CO)C
accession=JP009886
date=2016.01.19 (Created 2008.10.21, modified 2011.05.06)
author=KURARAY CO., LTD.
license=CC BY-NC-SA
exact mass=212.14124
ionization energy=70 eV
ion type=[M]+*
computed spectral entropy=3.231962820400563
computed normalized entropy=0.8261615066976952
SPLASH=splash10-00kf-9100000000-e8fc17d2cdbf477bbf13
submitter=submitter = University of Tokyo Team (Faculty of Engineering, University of Tokyo)
MoNA Rating=3.75

>  <NUM PEAKS>  (1533) 
50

>  <MASS SPECTRAL PEAKS>  (1533) 
27 6.6
29 10.5
31 1.8
39 9.8
40 2.7
41 22.8
42 3.2
43 99.99
44 3
45 3
53 7
55 3
57 7.8
65 2.8
67 22.5
68 70
69 13.2
71 5.3
77 4.2
79 7
80 5
81 10
82 10
83 7
84 53.7
85 15
86 2.2
91 6
92 4.2
93 12.6
94 12.6
95 7
96 3
97 10.3
105 4
106 2
107 2
109 6
110 1.5
119 9.8
120 1.3
121 6.8
122 1.2
123 4.2
126 4.2
127 4
134 15.2
135 5.3
137 3
152 3.8

$$$$

     RDKit          2D

 15 14  0  0  0  0  0  0  0  0999 V2000
   -2.2733    8.8125    0.0000 C   0  0  0  0  0  0  0  0  0  0  0  0
    2.9228    8.8125    0.0000 C   0  0  0  0  0  0  0  0  0  0  0  0
   -6.1704    2.0625    0.0000 C   0  0  0  0  0  0  0  0  0  0  0  0
    0.3248    7.3125    0.0000 C   0  0  0  0  0  0  0  0  0  0  0  0
   -0.9743    6.5625    0.0000 C   0  0  0  0  0  0  0  0  0  0  0  0
    1.6238    6.5625    0.0000 C   0  0  0  0  0  0  0  0  0  0  0  0
   -3.5724    6.5625    0.0000 C   0  0  0  0  0  0  0  0  0  0  0  0
   -3.5724    5.0625    0.0000 C   0  0  0  0  0  0  0  0  0  0  0  0
    4.2219    6.5625    0.0000 C   0  0  0  0  0  0  0  0  0  0  0  0
   -2.2733    7.3125    0.0000 C   0  0  0  0  0  0  0  0  0  0  0  0
    2.9228    7.3125    0.0000 C   0  0  0  0  0  0  0  0  0  0  0  0
   -4.8714    2.8125    0.0000 C   0  0  0  0  0  0  0  0  0  0  0  0
    5.5209    7.3125    0.0000 O   0  0  0  0  0  0  0  0  0  0  0  0
   -3.5724    2.0625    0.0000 O   0  0  0  0  0  0  0  0  0  0  0  0
   -4.8714    4.3125    0.0000 O   0  0  0  0  0  0  0  0  0  0  0  0
  5  4  1  0
  6  4  1  0
  8  7  1  0
 10  1  1  0
 10  5  1  0
  7 10  2  0
 11  2  1  0
  6 11  2  0
 11  9  1  0
 12  3  1  0
 13  9  1  0
 14 12  2  0
 15  8  1  0
 15 12  1  0
M  END
>  <NAME>  (1534) 
8-HYDROXY-3,7-DIMETHYL-2,6-OCTADIENEYL ACETATE(Z)

>  <SYNONYMS>  (1534) 


>  <SPECTRUM TYPE>  (1534) 
MS1

>  <INSTRUMENT TYPE>  (1534) 
EI-B

>  <INSTRUMENT>  (1534) 
JEOL JMS-D-300

>  <ION MODE>  (1534) 
P

>  <INCHIKEY>  (1534) 
HZIJXISIZGWHAY-IKVLVDHLSA-N

>  <FORMULA>  (1534) 
C12H20O3

>  <EXACT MASS>  (1534) 
212.1412445

>  <MW>  (1534) 
212

>  <ID>  (1534) 
JP009885

>  <CONTRIBUTOR>  (1534) 
University of Tokyo Team, {Faculty of Engineering, University of Tokyo

>  <COMMENT>  (1534) 
SMILES=OCC(C)=CCCC(C)=CCOC(C)=O
InChI=InChI=1S/C12H20O3/c1-10(7-8-15-12(3)14)5-4-6-11(2)9-13/h6-7,13H,4-5,8-9H2,1-3H3/b10-7-,11-6+
computed SMILES=O=C(OCC=C(C)CCC=C(C)CO)C
accession=JP009885
date=2016.01.19 (Created 2008.10.21, modified 2011.05.06)
author=KURARAY CO., LTD.
license=CC BY-NC-SA
exact mass=212.14124
ionization energy=70 eV
ion type=[M]+*
computed spectral entropy=3.085331436662632
computed normalized entropy=0.8481809917856918
SPLASH=splash10-0006-9100000000-309439e27904c29502f4
submitter=submitter = University of Tokyo Team (Faculty of Engineering, University of Tokyo)
MoNA Rating=3.75

>  <NUM PEAKS>  (1534) 
38

>  <MASS SPECTRAL PEAKS>  (1534) 
28 3.5
29 5.6
39 5.7
42 13.2
43 99.99
44 4
53 7.5
55 11.3
57 2.8
67 15.7
68 33.6
69 10
71 5
77 3
79 9
80 4
81 15.2
82 3.8
83 6
84 36.2
85 12
91 5.5
92 3
93 17
94 6.8
95 6
97 3.5
105 4.3
107 8.5
109 4.2
119 15.3
121 4.8
123 2
126 5.5
127 3.2
135 9
146 16
147 2.2

$$$$

     RDKit          2D

 15 14  0  0  0  0  0  0  0  0999 V2000
   -8.7685    6.1875    0.0000 C   0  0  0  0  0  0  0  0  0  0  0  0
   -7.4695    3.9375    0.0000 C   0  0  0  0  0  0  0  0  0  0  0  0
   -2.2733    3.9375    0.0000 C   0  0  0  0  0  0  0  0  0  0  0  0
    4.2219    6.1875    0.0000 C   0  0  0  0  0  0  0  0  0  0  0  0
   -3.5724    6.1875    0.0000 C   0  0  0  0  0  0  0  0  0  0  0  0
   -4.8714    5.4375    0.0000 C   0  0  0  0  0  0  0  0  0  0  0  0
   -0.9743    6.1875    0.0000 C   0  0  0  0  0  0  0  0  0  0  0  0
    0.3248    5.4375    0.0000 C   0  0  0  0  0  0  0  0  0  0  0  0
   -7.4695    5.4375    0.0000 C   0  0  0  0  0  0  0  0  0  0  0  0
   -2.2733    5.4375    0.0000 C   0  0  0  0  0  0  0  0  0  0  0  0
    2.9228    5.4375    0.0000 C   0  0  0  0  0  0  0  0  0  0  0  0
   -6.1704    6.1875    0.0000 C   0  0  0  0  0  0  0  0  0  0  0  0
    2.9228    3.9375    0.0000 O   0  0  0  0  0  0  0  0  0  0  0  0
   -6.1704    7.6875    0.0000 O   0  0  0  0  0  0  0  0  0  0  0  0
    1.6238    6.1875    0.0000 O   0  0  0  0  0  0  0  0  0  0  0  0
  6  5  1  0
  8  7  1  0
  9  1  2  0
  9  2  1  0
 10  3  1  0
 10  5  1  0
  7 10  2  0
 11  4  1  0
 12  6  1  0
 12  9  1  0
 13 11  2  0
 14 12  1  0
 15  8  1  0
 15 11  1  0
M  END
>  <NAME>  (1535) 
6-HYDROXY-3,7-DIMETHYL-2,7-OCTADIENYL ACETATE(E)

>  <SYNONYMS>  (1535) 


>  <SPECTRUM TYPE>  (1535) 
MS1

>  <INSTRUMENT TYPE>  (1535) 
EI-B

>  <INSTRUMENT>  (1535) 
JEOL JMS-D-300

>  <ION MODE>  (1535) 
P

>  <INCHIKEY>  (1535) 
AJCBRFGINYAOCJ-JXMROGBWSA-N

>  <FORMULA>  (1535) 
C12H20O3

>  <EXACT MASS>  (1535) 
212.14124449999997

>  <MW>  (1535) 
212

>  <ID>  (1535) 
JP009884

>  <CONTRIBUTOR>  (1535) 
University of Tokyo Team, {Faculty of Engineering, University of Tokyo

>  <COMMENT>  (1535) 
SMILES=CC(=O)OCC=C(C)CCC(O)C(C)=C
cas=33766-43-7
InChI=InChI=1S/C12H20O3/c1-9(2)12(14)6-5-10(3)7-8-15-11(4)13/h7,12,14H,1,5-6,8H2,2-4H3/b10-7+
computed SMILES=O=C(OCC=C(C)CCC(O)C(=C)C)C
accession=JP009884
date=2016.01.19 (Created 2008.10.21, modified 2011.05.06)
author=KURARAY CO., LTD.
license=CC BY-NC-SA
exact mass=212.14124
ionization energy=70 eV
ion type=[M]+*
computed spectral entropy=3.433872109519551
computed normalized entropy=0.8777740071453735
SPLASH=splash10-00lu-9100000000-1a1985c37855dfd53412
submitter=submitter = University of Tokyo Team (Faculty of Engineering, University of Tokyo)
MoNA Rating=3.75

>  <NUM PEAKS>  (1535) 
50

>  <MASS SPECTRAL PEAKS>  (1535) 
27 10.6
29 7.6
39 10.2
41 35
42 6.2
43 91.6
44 3.1
45 5.2
53 10.7
54 4.2
55 22.5
57 7
67 66.3
68 40.2
69 47.6
70 5.8
71 41
72 12
77 5
79 14.6
80 6.5
81 43
82 41.2
83 10.2
84 99.99
85 7
91 8
92 6.8
93 15.5
94 8
95 9.2
96 9.6
97 14
105 10
106 7.5
107 7
108 5.3
109 11.7
110 10.3
111 4.5
112 4.5
119 21.6
121 2.3
123 8
124 6.2
126 15
134 19.2
135 4
137 11.6
152 8.8

$$$$

     RDKit          2D

 15 15  0  0  0  0  0  0  0  0999 V2000
    9.0942    0.7512    0.0000 C   0  0  0  0  0  0  0  0  0  0  0  0
   -2.5989   -1.5002    0.0000 C   0  0  0  0  0  0  0  0  0  0  0  0
    7.7951    1.5010    0.0000 C   0  0  0  0  0  0  0  0  0  0  0  0
    5.1970    1.5006    0.0000 C   0  0  0  0  0  0  0  0  0  0  0  0
    3.8981    0.7504    0.0000 C   0  0  0  0  0  0  0  0  0  0  0  0
   -1.3000    0.7500    0.0000 C   0  0  0  0  0  0  0  0  0  0  0  0
   -0.0000   -1.5000    0.0000 C   0  0  0  0  0  0  0  0  0  0  0  0
    0.0000    1.5000    0.0000 C   0  0  0  0  0  0  0  0  0  0  0  0
    1.3000   -0.7500    0.0000 C   0  0  0  0  0  0  0  0  0  0  0  0
    6.4962    0.7508    0.0000 C   0  0  0  0  0  0  0  0  0  0  0  0
    2.5989    1.5002    0.0000 C   0  0  0  0  0  0  0  0  0  0  0  0
   -1.3000   -0.7500    0.0000 N   0  0  0  0  0  0  0  0  0  0  0  0
    1.3000    0.7500    0.0000 N   0  0  0  0  0  0  0  0  0  0  0  0
    6.4964   -0.7492    0.0000 O   0  0  0  0  0  0  0  0  0  0  0  0
    2.5987    3.0002    0.0000 O   0  0  0  0  0  0  0  0  0  0  0  0
  3  1  1  0
  5  4  1  0
  8  6  1  0
  9  7  1  0
 10  3  1  0
 10  4  1  0
 11  5  1  0
 12  2  1  0
 12  6  1  0
 12  7  1  0
 13  8  1  0
 13  9  1  0
 13 11  1  0
 14 10  2  0
 15 11  2  0
M  END
>  <NAME>  (1536) 
1-METHYL-4-(1,4-DIOXOHEXYL)PIPERAZINE

>  <SYNONYMS>  (1536) 


>  <SPECTRUM TYPE>  (1536) 
MS1

>  <INSTRUMENT TYPE>  (1536) 
EI-B

>  <INSTRUMENT>  (1536) 
JEOL JMS-D-300

>  <ION MODE>  (1536) 
P

>  <INCHIKEY>  (1536) 
TYGIAYFULOQNDZ-UHFFFAOYSA-N

>  <FORMULA>  (1536) 
C11H20N2O2

>  <EXACT MASS>  (1536) 
212.15247788

>  <MW>  (1536) 
212

>  <ID>  (1536) 
JP009883

>  <CONTRIBUTOR>  (1536) 
University of Tokyo Team, {Faculty of Engineering, University of Tokyo

>  <COMMENT>  (1536) 
SMILES=CCC(=O)CCC(=O)N(C1)CCN(C)C1
InChI=InChI=1S/C11H20N2O2/c1-3-10(14)4-5-11(15)13-8-6-12(2)7-9-13/h3-9H2,1-2H3
computed SMILES=O=C(N1CCN(C)CC1)CCC(=O)CC
accession=JP009883
date=2016.01.19 (Created 2008.10.21, modified 2011.05.06)
author=KURARAY CO., LTD.
license=CC BY-NC-SA
exact mass=212.15248
ionization energy=70 eV
ion type=[M]+*
computed spectral entropy=2.9887752252998574
computed normalized entropy=0.81581136445659
SPLASH=splash10-0ab9-9100000000-bf89c1e50c2f488f524c
submitter=submitter = University of Tokyo Team (Faculty of Engineering, University of Tokyo)
MoNA Rating=3.75

>  <NUM PEAKS>  (1536) 
39

>  <MASS SPECTRAL PEAKS>  (1536) 
27 5.8
29 12.3
30 3
41 4
42 21.7
43 25.4
44 9.5
54 2.2
55 10
56 32.3
57 22.3
58 55.8
59 1.6
69 1.8
70 99.99
71 16.7
72 3
82 2
83 28.3
84 5
85 4.3
95 2
98 7.6
99 54
100 4.8
101 2.2
112 20.3
113 21.3
114 1.5
126 1.3
127 2.3
140 3.8
154 1.8
155 9
156 2
170 2
183 6.3
212 16.8
213 2.6

$$$$

     RDKit          2D

 16 17  0  0  0  0  0  0  0  0999 V2000
    3.2481    2.1950    0.0000 C   0  0  0  0  0  0  0  0  0  0  0  0
   -7.1442    2.1950    0.0000 C   0  0  0  0  0  0  0  0  0  0  0  0
    3.2486    3.6958    0.0000 C   0  0  0  0  0  0  0  0  0  0  0  0
    1.9486    1.4442    0.0000 C   0  0  0  0  0  0  0  0  0  0  0  0
   -5.8447    1.4442    0.0000 C   0  0  0  0  0  0  0  0  0  0  0  0
   -7.1447    3.6958    0.0000 C   0  0  0  0  0  0  0  0  0  0  0  0
    1.9495    4.4458    0.0000 C   0  0  0  0  0  0  0  0  0  0  0  0
    0.6495    2.1942    0.0000 C   0  0  0  0  0  0  0  0  0  0  0  0
   -4.5457    2.1942    0.0000 C   0  0  0  0  0  0  0  0  0  0  0  0
   -5.8457    4.4458    0.0000 C   0  0  0  0  0  0  0  0  0  0  0  0
   -0.6490    4.4450    0.0000 C   0  0  0  0  0  0  0  0  0  0  0  0
   -3.2471    4.4450    0.0000 C   0  0  0  0  0  0  0  0  0  0  0  0
    0.6500    3.6950    0.0000 C   0  0  0  0  0  0  0  0  0  0  0  0
   -4.5462    3.6950    0.0000 C   0  0  0  0  0  0  0  0  0  0  0  0
   -1.9481    3.6950    0.0000 C   0  0  0  0  0  0  0  0  0  0  0  0
   -1.9481    2.1950    0.0000 O   0  0  0  0  0  0  0  0  0  0  0  0
  3  1  2  0
  4  1  1  0
  5  2  2  0
  6  2  1  0
  7  3  1  0
  8  4  2  0
  9  5  1  0
 10  6  2  0
 13  7  2  0
 13  8  1  0
 13 11  1  0
 14  9  2  0
 14 10  1  0
 14 12  1  0
 15 11  1  0
 15 12  1  0
 16 15  2  0
M  END
>  <NAME>  (1537) 
1,3-DIPHENYLACETONE

>  <SYNONYMS>  (1537) 


>  <SPECTRUM TYPE>  (1537) 
MS1

>  <INSTRUMENT TYPE>  (1537) 
EI-B

>  <INSTRUMENT>  (1537) 
JEOL JMS-D-300

>  <ION MODE>  (1537) 
P

>  <INCHIKEY>  (1537) 
YFKBXYGUSOXJGS-UHFFFAOYSA-N

>  <FORMULA>  (1537) 
C15H14O

>  <EXACT MASS>  (1537) 
210.104465068

>  <MW>  (1537) 
210

>  <ID>  (1537) 
JP009882

>  <CONTRIBUTOR>  (1537) 
University of Tokyo Team, {Faculty of Engineering, University of Tokyo

>  <COMMENT>  (1537) 
cas=102-04-5
SMILES=O=C(Cc(c2)cccc2)Cc(c1)cccc1
InChI=InChI=1S/C15H14O/c16-15(11-13-7-3-1-4-8-13)12-14-9-5-2-6-10-14/h1-10H,11-12H2
computed SMILES=O=C(CC=1C=CC=CC1)CC=2C=CC=CC2
accession=JP009882
date=2016.01.19 (Created 2008.10.21, modified 2011.05.06)
author=KURARAY CO., LTD.
license=CC BY-NC-SA
exact mass=210.10447
ionization energy=70 eV
ion type=[M]+*
computed spectral entropy=1.7033521917841854
computed normalized entropy=0.6640880401123975
SPLASH=splash10-0006-9200000000-8fe40f45465094b7fef7
submitter=submitter = University of Tokyo Team (Faculty of Engineering, University of Tokyo)
MoNA Rating=3.75

>  <NUM PEAKS>  (1537) 
13

>  <MASS SPECTRAL PEAKS>  (1537) 
39 3.7
51 1.5
63 2.5
65 15.5
89 3
90 3
91 99.99
92 11.6
118 13.3
119 24
120 1.5
210 11.5
211 1.7

$$$$

     RDKit          2D

 15 14  0  0  0  0  0  0  0  0999 V2000
    2.5981    4.5000    0.0000 C   0  0  0  0  0  0  0  0  0  0  0  0
    0.8075    2.4623    0.0000 C   0  0  0  0  0  0  0  0  0  0  0  0
   -7.7942    4.5000    0.0000 C   0  0  0  0  0  0  0  0  0  0  0  0
   -6.4952    6.7500    0.0000 C   0  0  0  0  0  0  0  0  0  0  0  0
   -3.5623    3.3509    0.0000 C   0  0  0  0  0  0  0  0  0  0  0  0
    1.2990    5.2500    0.0000 C   0  0  0  0  0  0  0  0  0  0  0  0
   -0.1567    3.6114    0.0000 C   0  0  0  0  0  0  0  0  0  0  0  0
    0.0000    4.5000    0.0000 C   0  0  0  0  0  0  0  0  0  0  0  0
   -5.1962    4.5000    0.0000 C   0  0  0  0  0  0  0  0  0  0  0  0
   -1.6339    3.3509    0.0000 C   0  0  0  0  0  0  0  0  0  0  0  0
   -3.8971    5.2500    0.0000 C   0  0  0  0  0  0  0  0  0  0  0  0
   -6.4952    5.2500    0.0000 C   0  0  0  0  0  0  0  0  0  0  0  0
   -1.2990    5.2500    0.0000 C   0  0  0  0  0  0  0  0  0  0  0  0
   -2.5981    4.5000    0.0000 C   0  0  0  0  0  0  0  0  0  0  0  0
   -1.2990    6.7500    0.0000 O   0  0  0  0  0  0  0  0  0  0  0  0
  6  1  2  0
  7  2  1  0
  8  6  1  0
 10  7  1  0
 11  9  1  0
 12  3  1  0
 12  4  1  0
 12  9  2  0
 13  8  1  0
 14  5  1  0
 14 10  1  0
 14 11  1  0
 14 13  1  0
 15 13  1  0
M  END
>  <NAME>  (1538) 
4-HYDROXY-5,8-DIMETHYL-5-PROPYL-1,7-NONADIENE

>  <SYNONYMS>  (1538) 


>  <SPECTRUM TYPE>  (1538) 
MS1

>  <INSTRUMENT TYPE>  (1538) 
EI-B

>  <INSTRUMENT>  (1538) 
JEOL JMS-D-300

>  <ION MODE>  (1538) 
P

>  <INCHIKEY>  (1538) 
QLDLPUYFCLNUQZ-UHFFFAOYSA-N

>  <FORMULA>  (1538) 
C14H26O

>  <EXACT MASS>  (1538) 
210.198365452

>  <MW>  (1538) 
210

>  <ID>  (1538) 
JP009881

>  <CONTRIBUTOR>  (1538) 
University of Tokyo Team, {Faculty of Engineering, University of Tokyo

>  <COMMENT>  (1538) 
SMILES=C=CCC(O)C(C)(CCC)CC=C(C)C
InChI=InChI=1S/C14H26O/c1-6-8-13(15)14(5,10-7-2)11-9-12(3)4/h6,9,13,15H,1,7-8,10-11H2,2-5H3
computed SMILES=OC(CC=C)C(C)(CC=C(C)C)CCC
accession=JP009881
date=2016.01.19 (Created 2008.10.21, modified 2011.05.06)
author=KURARAY CO., LTD.
license=CC BY-NC-SA
exact mass=210.19837
ionization energy=70 eV
ion type=[M]+*
computed spectral entropy=3.583015945698034
computed normalized entropy=0.8248564559710436
SPLASH=splash10-00xu-9100000000-ba488b52ca38ae6a8002
submitter=submitter = University of Tokyo Team (Faculty of Engineering, University of Tokyo)
MoNA Rating=3.75

>  <NUM PEAKS>  (1538) 
77

>  <MASS SPECTRAL PEAKS>  (1538) 
25 1.2
26 10.2
27 16.7
28 16.7
29 12.2
31 1
37 2
38 4
39 26
40 10.2
41 67.5
42 16.8
43 60
44 3.2
45 2
50 2.8
51 3.2
52 2.7
53 11.2
54 4.2
55 40.7
56 15
57 12
58 2
65 2.8
66 2.2
67 16.6
68 6.7
69 99
70 31.4
71 99.99
72 6.3
77 4.5
78 2
79 7.3
80 1.8
81 14
82 3.7
83 18
84 7.7
85 5.7
91 5.2
92 1
93 5.1
94 1.8
95 13.3
96 3.3
97 11.8
98 5.7
99 20.2
100 5
105 1.3
107 4
108 1.2
109 12.3
110 2.3
111 4
112 1
113 1.8
121 2.8
123 4.2
124 1
125 1.7
126 1.8
136 1
138 2.2
139 8
140 9
141 4.6
149 1.8
150 1
151 34.3
152 5
167 3
168 2.8
169 8.3
210 10

$$$$

     RDKit          2D

 15 14  0  0  0  0  0  0  0  0999 V2000
    4.2219    5.4375    0.0000 C   0  0  0  0  0  0  0  0  0  0  0  0
    2.9228    7.6875    0.0000 C   0  0  0  0  0  0  0  0  0  0  0  0
   -2.2733    7.6875    0.0000 C   0  0  0  0  0  0  0  0  0  0  0  0
  -10.0675    6.1875    0.0000 C   0  0  0  0  0  0  0  0  0  0  0  0
    0.3248    6.1875    0.0000 C   0  0  0  0  0  0  0  0  0  0  0  0
   -4.8714    6.1875    0.0000 C   0  0  0  0  0  0  0  0  0  0  0  0
    1.6238    5.4375    0.0000 C   0  0  0  0  0  0  0  0  0  0  0  0
   -0.9743    5.4375    0.0000 C   0  0  0  0  0  0  0  0  0  0  0  0
   -3.5724    5.4375    0.0000 C   0  0  0  0  0  0  0  0  0  0  0  0
   -6.1704    5.4375    0.0000 C   0  0  0  0  0  0  0  0  0  0  0  0
    2.9228    6.1875    0.0000 C   0  0  0  0  0  0  0  0  0  0  0  0
   -2.2733    6.1875    0.0000 C   0  0  0  0  0  0  0  0  0  0  0  0
   -7.4695    6.1875    0.0000 C   0  0  0  0  0  0  0  0  0  0  0  0
   -7.4695    7.6875    0.0000 O   0  0  0  0  0  0  0  0  0  0  0  0
   -8.7685    5.4375    0.0000 O   0  0  0  0  0  0  0  0  0  0  0  0
  7  5  1  0
  8  5  1  0
  9  6  1  0
 10  6  1  0
 11  1  1  0
 11  2  1  0
 11  7  2  0
 12  3  1  0
 12  8  1  0
  9 12  2  0
 13 10  1  0
 14 13  2  0
 15  4  1  0
 15 13  1  0
M  END
>  <NAME>  (1539) 
METHYL 5,9-DIMETHYL-4,8-DECADIENOATE(E)

>  <SYNONYMS>  (1539) 
FARNECIC ACID METHYL ESTER(E)

>  <SPECTRUM TYPE>  (1539) 
MS1

>  <INSTRUMENT TYPE>  (1539) 
EI-B

>  <INSTRUMENT>  (1539) 
JEOL JMS-D-300

>  <ION MODE>  (1539) 
P

>  <INCHIKEY>  (1539) 
AVFLRLAFBQUJGG-FMIVXFBMSA-N

>  <FORMULA>  (1539) 
C13H22O2

>  <EXACT MASS>  (1539) 
210.161979944

>  <MW>  (1539) 
210

>  <ID>  (1539) 
JP009880

>  <CONTRIBUTOR>  (1539) 
University of Tokyo Team, {Faculty of Engineering, University of Tokyo

>  <COMMENT>  (1539) 
SMILES=COC(=O)CCC=C(C)CCC=C(C)C
cas=19894-82-7
InChI=InChI=1S/C13H22O2/c1-11(2)7-5-8-12(3)9-6-10-13(14)15-4/h7,9H,5-6,8,10H2,1-4H3/b12-9+
computed SMILES=O=C(OC)CCC=C(C)CCC=C(C)C
accession=JP009880
date=2016.01.19 (Created 2008.10.21, modified 2011.05.06)
author=KURARAY CO., LTD.
license=CC BY-NC-SA
exact mass=210.16198
ionization energy=70 eV
ion type=[M]+*
computed spectral entropy=3.277302988590917
computed normalized entropy=0.7880247948551159
SPLASH=splash10-014i-9400000000-0426439591e5c16d2e31
submitter=submitter = University of Tokyo Team (Faculty of Engineering, University of Tokyo)
MoNA Rating=3.75

>  <NUM PEAKS>  (1539) 
64

>  <MASS SPECTRAL PEAKS>  (1539) 
27 4.5
28 2.3
29 3.2
39 7
40 3
41 46.7
42 4
43 4.5
51 1.2
53 7.3
54 1.8
55 8.6
56 1.2
59 7.9
65 2.6
66 1.2
67 13.6
68 8
69 99.99
70 6.3
74 5.3
77 2.7
79 4.4
80 2.3
81 46.3
82 16.3
83 2.3
85 1.7
87 3.6
91 1.8
93 6
94 1.7
95 3
99 53.7
100 4.7
105 1.6
107 4
108 1.6
109 35.5
110 5.8
111 3
119 1.5
121 4
122 2
123 7
124 1
125 1
135 12.4
136 3.5
137 3.5
140 2.8
141 13.7
142 3.7
154 1.8
161 2.3
163 1.8
166 2.7
167 52.8
168 5.8
178 1.4
179 2.4
195 2.1
210 3.4
211 1.2

$$$$

     RDKit          2D

 15 14  0  0  0  0  0  0  0  0999 V2000
   -6.4952   10.5000    0.0000 C   0  0  0  0  0  0  0  0  0  0  0  0
   -5.1962   12.7500    0.0000 C   0  0  0  0  0  0  0  0  0  0  0  0
    0.0000   12.7500    0.0000 C   0  0  0  0  0  0  0  0  0  0  0  0
    3.8971    4.5000    0.0000 C   0  0  0  0  0  0  0  0  0  0  0  0
   -2.5981   11.2500    0.0000 C   0  0  0  0  0  0  0  0  0  0  0  0
    1.2990    9.0000    0.0000 C   0  0  0  0  0  0  0  0  0  0  0  0
   -3.8971   10.5000    0.0000 C   0  0  0  0  0  0  0  0  0  0  0  0
   -1.2990   10.5000    0.0000 C   0  0  0  0  0  0  0  0  0  0  0  0
    1.2990   10.5000    0.0000 C   0  0  0  0  0  0  0  0  0  0  0  0
    2.5981    8.2500    0.0000 C   0  0  0  0  0  0  0  0  0  0  0  0
   -5.1962   11.2500    0.0000 C   0  0  0  0  0  0  0  0  0  0  0  0
    0.0000   11.2500    0.0000 C   0  0  0  0  0  0  0  0  0  0  0  0
    2.5981    6.7500    0.0000 C   0  0  0  0  0  0  0  0  0  0  0  0
    1.2990    6.0000    0.0000 O   0  0  0  0  0  0  0  0  0  0  0  0
    3.8971    6.0000    0.0000 O   0  0  0  0  0  0  0  0  0  0  0  0
  7  5  1  0
  8  5  1  0
  9  6  1  0
 10  6  1  0
 11  1  1  0
 11  2  1  0
 11  7  2  0
 12  3  1  0
 12  8  1  0
  9 12  2  0
 13 10  1  0
 14 13  2  0
 15  4  1  0
 15 13  1  0
M  END
>  <NAME>  (1540) 
METHYL 5,9-DIMETHYL-4,8-DECADIENOATE(Z)

>  <SYNONYMS>  (1540) 
FARNECIC ACID METHYL ESTER(Z)

>  <SPECTRUM TYPE>  (1540) 
MS1

>  <INSTRUMENT TYPE>  (1540) 
EI-B

>  <INSTRUMENT>  (1540) 
JEOL JMS-D-300

>  <ION MODE>  (1540) 
P

>  <INCHIKEY>  (1540) 
AVFLRLAFBQUJGG-XFXZXTDPSA-N

>  <FORMULA>  (1540) 
C13H22O2

>  <EXACT MASS>  (1540) 
210.161979944

>  <MW>  (1540) 
210

>  <ID>  (1540) 
JP009879

>  <CONTRIBUTOR>  (1540) 
University of Tokyo Team, {Faculty of Engineering, University of Tokyo

>  <COMMENT>  (1540) 
SMILES=COC(=O)CCC=C(C)CCC=C(C)C
InChI=InChI=1S/C13H22O2/c1-11(2)7-5-8-12(3)9-6-10-13(14)15-4/h7,9H,5-6,8,10H2,1-4H3/b12-9-
computed SMILES=O=C(OC)CCC=C(C)CCC=C(C)C
accession=JP009879
date=2016.01.19 (Created 2008.10.21, modified 2011.05.06)
author=KURARAY CO., LTD.
license=CC BY-NC-SA
exact mass=210.16198
ionization energy=70 eV
ion type=[M]+*
computed spectral entropy=3.0305179293441995
computed normalized entropy=0.7961089110180215
SPLASH=splash10-014i-9300000000-b846473c650bfa4f3bbe
submitter=submitter = University of Tokyo Team (Faculty of Engineering, University of Tokyo)
MoNA Rating=3.75

>  <NUM PEAKS>  (1540) 
45

>  <MASS SPECTRAL PEAKS>  (1540) 
27 3.5
29 2.6
39 5.9
41 40.3
42 2.2
43 2
54 6.5
55 6.5
59 5.6
67 10
68 7.6
69 99.99
70 5.8
74 5.2
77 2.2
79 3.8
80 1.8
81 29.5
82 18.2
83 1.7
87 1.8
91 1.8
93 6.5
94 2
95 5
99 26.2
107 3.4
109 31.2
110 5.8
121 4
122 1.5
123 5
135 7.4
136 3.5
137 2
141 6.7
142 1.8
154 1.5
162 1.6
163 1.7
167 28
168 2.6
178 1.8
179 2
210 8.3

$$$$

     RDKit          2D

 15 14  0  0  0  0  0  0  0  0999 V2000
   -2.9228    5.0625    0.0000 C   0  0  0  0  0  0  0  0  0  0  0  0
    2.2733    5.0625    0.0000 C   0  0  0  0  0  0  0  0  0  0  0  0
   -9.4180    7.3125    0.0000 C   0  0  0  0  0  0  0  0  0  0  0  0
   -0.3248    6.5625    0.0000 C   0  0  0  0  0  0  0  0  0  0  0  0
   -1.6238    7.3125    0.0000 C   0  0  0  0  0  0  0  0  0  0  0  0
    0.9743    7.3125    0.0000 C   0  0  0  0  0  0  0  0  0  0  0  0
   -4.2219    7.3125    0.0000 C   0  0  0  0  0  0  0  0  0  0  0  0
   -5.5209    6.5625    0.0000 C   0  0  0  0  0  0  0  0  0  0  0  0
    3.5724    7.3125    0.0000 C   0  0  0  0  0  0  0  0  0  0  0  0
   -2.9228    6.5625    0.0000 C   0  0  0  0  0  0  0  0  0  0  0  0
    2.2733    6.5625    0.0000 C   0  0  0  0  0  0  0  0  0  0  0  0
   -8.1190    6.5625    0.0000 C   0  0  0  0  0  0  0  0  0  0  0  0
    4.8714    6.5625    0.0000 O   0  0  0  0  0  0  0  0  0  0  0  0
   -8.1190    5.0625    0.0000 O   0  0  0  0  0  0  0  0  0  0  0  0
   -6.8200    7.3125    0.0000 O   0  0  0  0  0  0  0  0  0  0  0  0
  5  4  1  0
  6  4  1  0
  8  7  1  0
 10  1  1  0
 10  5  1  0
  7 10  2  0
 11  2  1  0
  6 11  2  0
 11  9  1  0
 12  3  1  0
 13  9  2  0
 14 12  2  0
 15  8  1  0
 15 12  1  0
M  END
>  <NAME>  (1541) 
3,7-DIMETHYL-8-OXO-2,6-OCTADIENYL ACETATE(E)

>  <SYNONYMS>  (1541) 


>  <SPECTRUM TYPE>  (1541) 
MS1

>  <INSTRUMENT TYPE>  (1541) 
EI-B

>  <INSTRUMENT>  (1541) 
JEOL JMS-D-300

>  <ION MODE>  (1541) 
P

>  <INCHIKEY>  (1541) 
YODDEHYDMMDDCV-NXAIOARDSA-N

>  <FORMULA>  (1541) 
C12H18O3

>  <EXACT MASS>  (1541) 
210.12559443599997

>  <MW>  (1541) 
210

>  <ID>  (1541) 
JP009878

>  <CONTRIBUTOR>  (1541) 
University of Tokyo Team, {Faculty of Engineering, University of Tokyo

>  <COMMENT>  (1541) 
SMILES=O=CC(C)=CCCC(C)=CCOC(C)=O
InChI=InChI=1S/C12H18O3/c1-10(7-8-15-12(3)14)5-4-6-11(2)9-13/h6-7,9H,4-5,8H2,1-3H3/b10-7+,11-6+
computed SMILES=O=CC(=CCCC(=CCOC(=O)C)C)C
accession=JP009878
date=2016.01.19 (Created 2008.10.21, modified 2011.05.06)
author=KURARAY CO., LTD.
license=CC BY-NC-SA
exact mass=210.12559
ionization energy=70 eV
ion type=[M]+*
computed spectral entropy=2.759722163264212
computed normalized entropy=0.7642716422881256
SPLASH=splash10-000x-9200000000-e661ab2c8adb9a85b68a
submitter=submitter = University of Tokyo Team (Faculty of Engineering, University of Tokyo)
MoNA Rating=3.75

>  <NUM PEAKS>  (1541) 
37

>  <MASS SPECTRAL PEAKS>  (1541) 
27 6.2
29 8.8
39 8
41 12
43 99.99
53 6.8
54 1.8
55 12.6
56 1.5
57 1.2
65 1.5
67 5.3
68 3.6
77 1.5
79 2.6
80 2
81 2.7
82 12
83 4.2
84 55
85 21.3
91 1.8
92 1.2
93 7
94 1.8
95 4
97 1.2
117 6.2
118 2
119 1.2
121 14
122 2.8
123 1.3
127 3.6
135 10.3
150 29.3
151 3.9

$$$$

     RDKit          2D

 15 14  0  0  0  0  0  0  0  0999 V2000
   -2.2733    8.8125    0.0000 C   0  0  0  0  0  0  0  0  0  0  0  0
    2.9228    8.8125    0.0000 C   0  0  0  0  0  0  0  0  0  0  0  0
   -6.1704    2.0625    0.0000 C   0  0  0  0  0  0  0  0  0  0  0  0
    0.3248    7.3125    0.0000 C   0  0  0  0  0  0  0  0  0  0  0  0
   -0.9743    6.5625    0.0000 C   0  0  0  0  0  0  0  0  0  0  0  0
    1.6238    6.5625    0.0000 C   0  0  0  0  0  0  0  0  0  0  0  0
   -3.5724    6.5625    0.0000 C   0  0  0  0  0  0  0  0  0  0  0  0
   -3.5724    5.0625    0.0000 C   0  0  0  0  0  0  0  0  0  0  0  0
    4.2219    6.5625    0.0000 C   0  0  0  0  0  0  0  0  0  0  0  0
   -2.2733    7.3125    0.0000 C   0  0  0  0  0  0  0  0  0  0  0  0
    2.9228    7.3125    0.0000 C   0  0  0  0  0  0  0  0  0  0  0  0
   -4.8714    2.8125    0.0000 C   0  0  0  0  0  0  0  0  0  0  0  0
    5.5209    7.3125    0.0000 O   0  0  0  0  0  0  0  0  0  0  0  0
   -3.5724    2.0625    0.0000 O   0  0  0  0  0  0  0  0  0  0  0  0
   -4.8714    4.3125    0.0000 O   0  0  0  0  0  0  0  0  0  0  0  0
  5  4  1  0
  6  4  1  0
  8  7  1  0
 10  1  1  0
 10  5  1  0
  7 10  2  0
 11  2  1  0
  6 11  2  0
 11  9  1  0
 12  3  1  0
 13  9  2  0
 14 12  2  0
 15  8  1  0
 15 12  1  0
M  END
>  <NAME>  (1542) 
3,7-DIMETHYL-8-OXO-2,6-OCTADIENYL ACETATE(Z)

>  <SYNONYMS>  (1542) 


>  <SPECTRUM TYPE>  (1542) 
MS1

>  <INSTRUMENT TYPE>  (1542) 
EI-B

>  <INSTRUMENT>  (1542) 
JEOL JMS-D-300

>  <ION MODE>  (1542) 
P

>  <INCHIKEY>  (1542) 
YODDEHYDMMDDCV-IKVLVDHLSA-N

>  <FORMULA>  (1542) 
C12H18O3

>  <EXACT MASS>  (1542) 
210.12559443599997

>  <MW>  (1542) 
210

>  <ID>  (1542) 
JP009877

>  <CONTRIBUTOR>  (1542) 
University of Tokyo Team, {Faculty of Engineering, University of Tokyo

>  <COMMENT>  (1542) 
SMILES=O=CC(C)=CCCC(C)=CCOC(C)=O
InChI=InChI=1S/C12H18O3/c1-10(7-8-15-12(3)14)5-4-6-11(2)9-13/h6-7,9H,4-5,8H2,1-3H3/b10-7-,11-6+
computed SMILES=O=CC(=CCCC(=CCOC(=O)C)C)C
accession=JP009877
date=2016.01.19 (Created 2008.10.21, modified 2011.05.06)
author=KURARAY CO., LTD.
license=CC BY-NC-SA
exact mass=210.12559
ionization energy=70 eV
ion type=[M]+*
computed spectral entropy=2.8227154964045154
computed normalized entropy=0.7817168832668037
SPLASH=splash10-000x-9100000000-62b204ab2d8f98970301
submitter=submitter = University of Tokyo Team (Faculty of Engineering, University of Tokyo)
MoNA Rating=3.75

>  <NUM PEAKS>  (1542) 
37

>  <MASS SPECTRAL PEAKS>  (1542) 
27 4.3
29 5.8
39 5
41 7.8
43 99.99
44 1.5
53 4.3
54 2.8
55 8.8
56 1
57 1
65 1
67 6
68 2.7
71 3.8
77 1.2
79 4.2
80 13
81 4.3
82 29.5
83 5
84 37
85 16.8
91 2.7
92 2.8
93 8.6
94 3.3
95 8.6
107 5.2
108 1.8
109 1
117 2
121 13.6
122 2.3
127 2
135 7
150 20.8

$$$$

     RDKit          2D

 15 14  0  0  0  0  0  0  0  0999 V2000
    2.9228    3.9375    0.0000 C   0  0  0  0  0  0  0  0  0  0  0  0
    1.6238    6.1875    0.0000 C   0  0  0  0  0  0  0  0  0  0  0  0
   -7.4695    3.9375    0.0000 C   0  0  0  0  0  0  0  0  0  0  0  0
   -6.1704    6.1875    0.0000 C   0  0  0  0  0  0  0  0  0  0  0  0
   -3.7733    2.4375    0.0000 C   0  0  0  0  0  0  0  0  0  0  0  0
   -2.2733    0.9375    0.0000 C   0  0  0  0  0  0  0  0  0  0  0  0
   -0.7733    2.4375    0.0000 C   0  0  0  0  0  0  0  0  0  0  0  0
    0.3248    3.9375    0.0000 C   0  0  0  0  0  0  0  0  0  0  0  0
   -4.8714    3.9375    0.0000 C   0  0  0  0  0  0  0  0  0  0  0  0
   -0.9743    4.6875    0.0000 C   0  0  0  0  0  0  0  0  0  0  0  0
   -3.5724    4.6875    0.0000 C   0  0  0  0  0  0  0  0  0  0  0  0
    1.6238    4.6875    0.0000 C   0  0  0  0  0  0  0  0  0  0  0  0
   -6.1704    4.6875    0.0000 C   0  0  0  0  0  0  0  0  0  0  0  0
   -2.2733    2.4375    0.0000 C   0  0  0  0  0  0  0  0  0  0  0  0
   -2.2733    3.9375    0.0000 N   0  0  0  0  0  0  0  0  0  0  0  0
 10  8  1  0
 11  9  1  0
 12  1  1  0
 12  2  1  0
 12  8  2  0
 13  3  1  0
 13  4  1  0
 13  9  2  0
 14  5  1  0
 14  6  1  0
 14  7  1  0
 15 10  1  0
 15 11  1  0
 15 14  1  0
M  END
>  <NAME>  (1543) 
BIS(3-METHYL-2-BUTENYL)(TERT-BUTYL)AMINE

>  <SYNONYMS>  (1543) 


>  <SPECTRUM TYPE>  (1543) 
MS1

>  <INSTRUMENT TYPE>  (1543) 
EI-B

>  <INSTRUMENT>  (1543) 
JEOL JMS-D-300

>  <ION MODE>  (1543) 
P

>  <INCHIKEY>  (1543) 
RAGXFGSULNYENY-UHFFFAOYSA-N

>  <FORMULA>  (1543) 
C14H27N

>  <EXACT MASS>  (1543) 
209.21434986399998

>  <MW>  (1543) 
209

>  <ID>  (1543) 
JP009876

>  <CONTRIBUTOR>  (1543) 
University of Tokyo Team, {Faculty of Engineering, University of Tokyo

>  <COMMENT>  (1543) 
SMILES=CC(C)=CCN(CC=C(C)C)C(C)(C)C
InChI=InChI=1S/C14H27N/c1-12(2)8-10-15(14(5,6)7)11-9-13(3)4/h8-9H,10-11H2,1-7H3
computed SMILES=C(=C(C)C)CN(CC=C(C)C)C(C)(C)C
accession=JP009876
date=2016.01.19 (Created 2008.10.21, modified 2011.05.06)
author=KURARAY CO., LTD.
license=CC BY-NC-SA
exact mass=209.21435
ionization energy=70 eV
ion type=[M]+*
computed spectral entropy=2.5850729589711636
computed normalized entropy=0.7527905041680959
SPLASH=splash10-0a6u-9200000000-b0963cf146d6f4170fc0
submitter=submitter = University of Tokyo Team (Faculty of Engineering, University of Tokyo)
MoNA Rating=3.75

>  <NUM PEAKS>  (1543) 
31

>  <MASS SPECTRAL PEAKS>  (1543) 
27 2.5
28 19.8
29 5.7
30 6
32 5
39 3.7
41 34.8
42 4.3
43 1.8
53 2.3
55 2
56 1
57 7.8
58 99.99
59 3.3
67 2.3
68 2.8
69 47
70 11.8
82 2
83 1
84 9
96 1.2
110 1
126 34
127 2.7
141 10
152 2
194 34.8
195 5.2
209 2

$$$$

     RDKit          2D

 15 15  0  0  0  0  0  0  0  0999 V2000
   -7.7951    1.5010    0.0000 C   0  0  0  0  0  0  0  0  0  0  0  0
   -6.4962    0.7508    0.0000 C   0  0  0  0  0  0  0  0  0  0  0  0
   -1.3000   -0.7500    0.0000 C   0  0  0  0  0  0  0  0  0  0  0  0
    0.0000    1.5000    0.0000 C   0  0  0  0  0  0  0  0  0  0  0  0
    0.0000   -1.5000    0.0000 C   0  0  0  0  0  0  0  0  0  0  0  0
    1.3000    0.7500    0.0000 C   0  0  0  0  0  0  0  0  0  0  0  0
   -2.5989    1.5002    0.0000 C   0  0  0  0  0  0  0  0  0  0  0  0
   -1.3000    0.7500    0.0000 C   0  0  0  0  0  0  0  0  0  0  0  0
    1.3000   -0.7500    0.0000 C   0  0  0  0  0  0  0  0  0  0  0  0
   -3.8981    0.7504    0.0000 C   0  0  0  0  0  0  0  0  0  0  0  0
    2.5989   -1.5002    0.0000 N   0  0  0  0  0  0  0  0  0  0  0  0
   -3.8983   -0.7496    0.0000 O   0  0  0  0  0  0  0  0  0  0  0  0
    3.8981   -0.7504    0.0000 O   0  0  0  0  0  0  0  0  0  0  0  0
    2.5987   -3.0002    0.0000 O   0  0  0  0  0  0  0  0  0  0  0  0
   -5.1970    1.5006    0.0000 O   0  0  0  0  0  0  0  0  0  0  0  0
  2  1  1  0
  5  3  2  0
  6  4  1  0
  8  3  1  0
  8  4  2  0
  8  7  1  0
  9  5  1  0
  9  6  2  0
 10  7  1  0
 11  9  1  0
 12 10  2  0
 13 11  1  0
 14 11  2  0
 15  2  1  0
 15 10  1  0
M  CHG  2  11   1  13  -1
M  END
>  <NAME>  (1544) 
ETHYL 4-NITROPHENYLACETATE

>  <SYNONYMS>  (1544) 


>  <SPECTRUM TYPE>  (1544) 
MS1

>  <INSTRUMENT TYPE>  (1544) 
EI-B

>  <INSTRUMENT>  (1544) 
JEOL JMS-D-300

>  <ION MODE>  (1544) 
P

>  <INCHIKEY>  (1544) 
DWDRNKYLWMKWTH-UHFFFAOYSA-N

>  <FORMULA>  (1544) 
C10H11NO4

>  <EXACT MASS>  (1544) 
209.068807832

>  <MW>  (1544) 
209

>  <ID>  (1544) 
JP009875

>  <CONTRIBUTOR>  (1544) 
University of Tokyo Team, {Faculty of Engineering, University of Tokyo

>  <COMMENT>  (1544) 
SMILES=CCOC(=O)Cc(c1)ccc(c1)[N+1]([O-1])=O
InChI=InChI=1S/C10H11NO4/c1-2-15-10(12)7-8-3-5-9(6-4-8)11(13)14/h3-6H,2,7H2,1H3
computed SMILES=O=C(OCC)CC1=CC=C(C=C1)N(=O)=O
accession=JP009875
date=2016.01.19 (Created 2008.10.21, modified 2011.05.06)
author=KURARAY CO., LTD.
license=CC BY-NC-SA
exact mass=209.06881
ionization energy=70 eV
ion type=[M]+*
computed spectral entropy=2.901294957898975
computed normalized entropy=0.8034785137982816
SPLASH=splash10-000i-7910000000-47f399a84d6a576d5ab7
submitter=submitter = University of Tokyo Team (Faculty of Engineering, University of Tokyo)
MoNA Rating=3.75

>  <NUM PEAKS>  (1544) 
37

>  <MASS SPECTRAL PEAKS>  (1544) 
27 6
28 1.5
29 67.8
30 16
38 1.2
39 6
45 1.2
51 5.8
52 2.2
62 2.8
63 12.5
64 5
65 1
73 1.2
77 6.8
78 23
79 4.8
89 38.5
90 45.3
91 10.2
106 25
107 19
108 1.5
119 6.2
120 22.2
121 3.8
135 2.7
136 80
137 99.99
138 7.8
163 1.2
164 12.5
165 4.2
181 6.8
193 2.6
209 43.5
210 7.8

$$$$

     RDKit          2D

 15 14  0  0  0  0  0  0  0  0999 V2000
    3.5724    6.5625    0.0000 C   0  0  0  0  0  0  0  0  0  0  0  0
  -10.7171    7.3125    0.0000 C   0  0  0  0  0  0  0  0  0  0  0  0
   -9.4180    5.0625    0.0000 C   0  0  0  0  0  0  0  0  0  0  0  0
    0.9743    5.0625    0.0000 C   0  0  0  0  0  0  0  0  0  0  0  0
   -4.2219    5.0625    0.0000 C   0  0  0  0  0  0  0  0  0  0  0  0
    2.2733    7.3125    0.0000 C   0  0  0  0  0  0  0  0  0  0  0  0
   -6.8200    6.5625    0.0000 C   0  0  0  0  0  0  0  0  0  0  0  0
   -1.6238    6.5625    0.0000 C   0  0  0  0  0  0  0  0  0  0  0  0
   -8.1190    7.3125    0.0000 C   0  0  0  0  0  0  0  0  0  0  0  0
   -0.3248    7.3125    0.0000 C   0  0  0  0  0  0  0  0  0  0  0  0
   -5.5209    7.3125    0.0000 C   0  0  0  0  0  0  0  0  0  0  0  0
   -2.9228    7.3125    0.0000 C   0  0  0  0  0  0  0  0  0  0  0  0
   -9.4180    6.5625    0.0000 C   0  0  0  0  0  0  0  0  0  0  0  0
    0.9743    6.5625    0.0000 C   0  0  0  0  0  0  0  0  0  0  0  0
   -4.2219    6.5625    0.0000 C   0  0  0  0  0  0  0  0  0  0  0  0
  6  1  2  0
  9  7  1  0
 10  8  1  0
 11  7  1  0
 12  8  1  0
 13  2  1  0
 13  3  1  0
 13  9  1  0
 14  4  2  0
 14  6  1  0
 14 10  1  0
 15  5  1  0
 15 11  1  0
 15 12  1  0
M  END
>  <NAME>  (1545) 
3-METHYLENE-7,11-DIMETHYL-1-DODECENE

>  <SYNONYMS>  (1545) 


>  <SPECTRUM TYPE>  (1545) 
MS1

>  <INSTRUMENT TYPE>  (1545) 
EI-B

>  <INSTRUMENT>  (1545) 
JEOL JMS-D-300

>  <ION MODE>  (1545) 
P

>  <INCHIKEY>  (1545) 
AEUDOPZBDNUKIV-UHFFFAOYSA-N

>  <FORMULA>  (1545) 
C15H28

>  <EXACT MASS>  (1545) 
208.219100896

>  <MW>  (1545) 
208

>  <ID>  (1545) 
JP009874

>  <CONTRIBUTOR>  (1545) 
University of Tokyo Team, {Faculty of Engineering, University of Tokyo

>  <COMMENT>  (1545) 
SMILES=C=CC(=C)CCCC(C)CCCC(C)C
InChI=InChI=1S/C15H28/c1-6-14(4)10-8-12-15(5)11-7-9-13(2)3/h6,13,15H,1,4,7-12H2,2-3,5H3
computed SMILES=C=CC(=C)CCCC(C)CCCC(C)C
accession=JP009874
date=2016.01.19 (Created 2008.10.21, modified 2011.05.06)
author=KURARAY CO., LTD.
license=CC BY-NC-SA
exact mass=208.2191
ionization energy=70 eV
ion type=[M]+*
computed spectral entropy=3.2160042625766017
computed normalized entropy=0.9119896392121332
SPLASH=splash10-00lr-9100000000-90b657be105c8bc16a89
submitter=submitter = University of Tokyo Team (Faculty of Engineering, University of Tokyo)
MoNA Rating=3.75

>  <NUM PEAKS>  (1545) 
34

>  <MASS SPECTRAL PEAKS>  (1545) 
27 7
29 11.7
39 7
41 36.6
42 10
43 51.8
53 13
55 34.5
56 18.3
57 52
67 29.3
68 99.99
69 55.8
70 14.8
71 24
77 10.6
79 19
80 10.6
81 87.5
82 69
83 58
84 11
85 8
94 11.7
95 59.6
96 20
97 16
109 18.2
110 7.8
123 33.5
124 12.3
137 11.5
138 13
208 12.5

$$$$

     RDKit          2D

 15 15  0  0  0  0  0  0  0  0999 V2000
    5.9762    0.1908    0.0000 C   0  0  0  0  0  0  0  0  0  0  0  0
    2.0789   -2.0602    0.0000 C   0  0  0  0  0  0  0  0  0  0  0  0
    0.4441    2.0892    0.0000 C   0  0  0  0  0  0  0  0  0  0  0  0
   -1.4841    2.0892    0.0000 C   0  0  0  0  0  0  0  0  0  0  0  0
   -1.8200   -1.3100    0.0000 C   0  0  0  0  0  0  0  0  0  0  0  0
   -0.5200   -2.0600    0.0000 C   0  0  0  0  0  0  0  0  0  0  0  0
    3.3781    0.1904    0.0000 C   0  0  0  0  0  0  0  0  0  0  0  0
    2.0789    0.9402    0.0000 C   0  0  0  0  0  0  0  0  0  0  0  0
   -1.8200    0.1900    0.0000 C   0  0  0  0  0  0  0  0  0  0  0  0
    4.6768    2.4406    0.0000 C   0  0  0  0  0  0  0  0  0  0  0  0
    4.6770    0.9406    0.0000 C   0  0  0  0  0  0  0  0  0  0  0  0
    0.7800   -1.3100    0.0000 C   0  0  0  0  0  0  0  0  0  0  0  0
    0.7800    0.1900    0.0000 C   0  0  0  0  0  0  0  0  0  0  0  0
   -0.5200    0.9400    0.0000 C   0  0  0  0  0  0  0  0  0  0  0  0
    5.9757    3.1908    0.0000 O   0  0  0  0  0  0  0  0  0  0  0  0
  6  5  1  0
  8  7  1  0
  9  5  1  0
 11  1  1  0
 11  7  1  0
 11 10  1  0
 12  2  1  0
 12  6  1  0
 13  8  1  0
 13 12  2  0
 14  3  1  0
 14  4  1  0
 14  9  1  0
 14 13  1  0
 15 10  2  0
M  END
>  <NAME>  (1546) 
2-METHYL-4-(2,6,6-TRIMETHYL-2-CYCLOHEXEN-2-YL)BUTANAL

>  <SYNONYMS>  (1546) 


>  <SPECTRUM TYPE>  (1546) 
MS1

>  <INSTRUMENT TYPE>  (1546) 
EI-B

>  <INSTRUMENT>  (1546) 
JEOL JMS-D-300

>  <ION MODE>  (1546) 
P

>  <INCHIKEY>  (1546) 
MXNVWZZDDFIWHW-UHFFFAOYSA-N

>  <FORMULA>  (1546) 
C14H24O

>  <EXACT MASS>  (1546) 
208.182715388

>  <MW>  (1546) 
208

>  <ID>  (1546) 
JP009872

>  <CONTRIBUTOR>  (1546) 
University of Tokyo Team, {Faculty of Engineering, University of Tokyo

>  <COMMENT>  (1546) 
SMILES=O=CC(C)CCC(=C(C)1)C(C)(C)CCC1
cas=21632-06-4
InChI=InChI=1S/C14H24O/c1-11(10-15)7-8-13-12(2)6-5-9-14(13,3)4/h10-11H,5-9H2,1-4H3
computed SMILES=O=CC(C)CCC1=C(C)CCCC1(C)C
accession=JP009872
date=2016.01.19 (Created 2008.10.21, modified 2011.05.06)
author=KURARAY CO., LTD.
license=CC BY-NC-SA
exact mass=208.18272
ionization energy=70 eV
ion type=[M]+*
computed spectral entropy=3.319349278990537
computed normalized entropy=0.9336214687233713
SPLASH=splash10-05gv-9700000000-ebe49932934b4f645ba5
submitter=submitter = University of Tokyo Team (Faculty of Engineering, University of Tokyo)
MoNA Rating=3.75

>  <NUM PEAKS>  (1546) 
35

>  <MASS SPECTRAL PEAKS>  (1546) 
29 19
39 12.7
41 47.8
43 13
53 14.6
55 26.6
67 26.4
69 40.6
77 15.7
79 27.5
81 65.8
82 17
83 15.5
91 21
93 28
94 25.2
95 82.7
96 11.5
105 20.6
107 41
109 39.7
119 21.2
121 6.8
123 99.99
124 14.8
125 15.8
133 11
135 59
136 10
151 38.2
152 10.2
175 26
177 2
193 27.5
208 27.8

$$$$

     RDKit          2D

 15 15  0  0  0  0  0  0  0  0999 V2000
   -0.0000   -3.0000    0.0000 C   0  0  0  0  0  0  0  0  0  0  0  0
   -6.4962   -0.7508    0.0000 C   0  0  0  0  0  0  0  0  0  0  0  0
    2.7772    0.4897    0.0000 C   0  0  0  0  0  0  0  0  0  0  0  0
    1.8127    2.1596    0.0000 C   0  0  0  0  0  0  0  0  0  0  0  0
   -1.3000    0.7500    0.0000 C   0  0  0  0  0  0  0  0  0  0  0  0
    0.0000    1.5000    0.0000 C   0  0  0  0  0  0  0  0  0  0  0  0
   -3.8981   -0.7504    0.0000 C   0  0  0  0  0  0  0  0  0  0  0  0
    1.3000   -0.7500    0.0000 C   0  0  0  0  0  0  0  0  0  0  0  0
   -0.0000   -1.5000    0.0000 C   0  0  0  0  0  0  0  0  0  0  0  0
   -5.1970   -1.5006    0.0000 C   0  0  0  0  0  0  0  0  0  0  0  0
   -1.3000   -0.7500    0.0000 C   0  0  0  0  0  0  0  0  0  0  0  0
   -2.5989   -1.5002    0.0000 C   0  0  0  0  0  0  0  0  0  0  0  0
    1.3000    0.7500    0.0000 C   0  0  0  0  0  0  0  0  0  0  0  0
   -5.1968   -3.0006    0.0000 O   0  0  0  0  0  0  0  0  0  0  0  0
   -2.5987   -3.0002    0.0000 O   0  0  0  0  0  0  0  0  0  0  0  0
  6  5  1  0
  9  1  1  0
  9  8  2  0
 10  2  1  0
 10  7  1  0
 11  5  1  0
 11  9  1  0
 12  7  1  0
 12 11  1  0
 13  3  1  0
 13  4  1  0
 13  6  1  0
 13  8  1  0
 14 10  2  0
 15 12  2  0
M  END
>  <NAME>  (1547) 
4-(2,4,4-TRIMETHYL-2-CYCLOHEXENE-1-YL)-4-OXO-2-BUTANONE

>  <SYNONYMS>  (1547) 


>  <SPECTRUM TYPE>  (1547) 
MS1

>  <INSTRUMENT TYPE>  (1547) 
EI-B

>  <INSTRUMENT>  (1547) 
JEOL JMS-D-300

>  <ION MODE>  (1547) 
P

>  <INCHIKEY>  (1547) 
VYSSESUTYQNLPY-UHFFFAOYSA-N

>  <FORMULA>  (1547) 
C13H20O2

>  <EXACT MASS>  (1547) 
208.14632988

>  <MW>  (1547) 
208

>  <ID>  (1547) 
JP009871

>  <CONTRIBUTOR>  (1547) 
University of Tokyo Team, {Faculty of Engineering, University of Tokyo

>  <COMMENT>  (1547) 
SMILES=CC(=O)CC(=O)C(C1)C(C)=CC(C)(C)C1
cas=101529-26-4
InChI=InChI=1S/C13H20O2/c1-9-8-13(3,4)6-5-11(9)12(15)7-10(2)14/h8,11H,5-7H2,1-4H3
computed SMILES=O=C(C)CC(=O)C1C(=CC(C)(C)CC1)C
accession=JP009871
date=2016.01.19 (Created 2008.10.21, modified 2011.05.06)
author=KURARAY CO., LTD.
license=CC BY-NC-SA
exact mass=208.14633
ionization energy=70 eV
ion type=[M]+*
computed spectral entropy=3.2463673315032366
computed normalized entropy=0.8216064517196486
SPLASH=splash10-0670-9400000000-b92b3dc492f1b46dcbbd
submitter=submitter = University of Tokyo Team (Faculty of Engineering, University of Tokyo)
MoNA Rating=3.75

>  <NUM PEAKS>  (1547) 
52

>  <MASS SPECTRAL PEAKS>  (1547) 
27 5
28 5.5
29 1.2
32 4
39 6.6
40 1.2
41 16.7
42 3.3
43 20
53 10.3
55 6.2
56 6.8
57 1.7
65 4.5
67 18.3
68 85.5
69 16.6
71 3.8
77 6.8
79 8
81 15.3
82 11.6
83 3
85 99.99
86 5.4
87 4.2
92 3.8
93 6.8
95 5.8
96 6.2
107 1.8
108 4.2
109 70
110 7.8
111 5
119 3.3
120 3.8
122 4.2
123 6.3
124 40.3
125 7
133 1.2
135 2
137 6
147 8.5
150 7.9
151 5.7
159 2.8
165 4
193 14.6
208 31.8
209 5.2

$$$$

     RDKit          2D

 15 16  0  0  0  0  0  0  0  0999 V2000
    4.0772    0.4897    0.0000 C   0  0  0  0  0  0  0  0  0  0  0  0
   -2.6000    0.7500    0.0000 C   0  0  0  0  0  0  0  0  0  0  0  0
   -1.3000    1.5000    0.0000 C   0  0  0  0  0  0  0  0  0  0  0  0
    1.3000   -1.5000    0.0000 C   0  0  0  0  0  0  0  0  0  0  0  0
    2.6000   -0.7500    0.0000 C   0  0  0  0  0  0  0  0  0  0  0  0
    3.1127    2.1596    0.0000 C   0  0  0  0  0  0  0  0  0  0  0  0
    4.5899    2.4204    0.0000 C   0  0  0  0  0  0  0  0  0  0  0  0
   -1.3000   -1.5000    0.0000 C   0  0  0  0  0  0  0  0  0  0  0  0
    0.0000   -0.7500    0.0000 C   0  0  0  0  0  0  0  0  0  0  0  0
   -2.6000   -0.7500    0.0000 C   0  0  0  0  0  0  0  0  0  0  0  0
    0.0000    0.7500    0.0000 C   0  0  0  0  0  0  0  0  0  0  0  0
    2.6000    0.7500    0.0000 C   0  0  0  0  0  0  0  0  0  0  0  0
    5.1026    3.8301    0.0000 O   0  0  0  0  0  0  0  0  0  0  0  0
   -3.8989   -1.5002    0.0000 O   0  0  0  0  0  0  0  0  0  0  0  0
    1.3000    1.5000    0.0000 O   0  0  0  0  0  0  0  0  0  0  0  0
  3  2  2  0
  5  4  1  0
  7  6  1  0
  9  4  1  0
  9  8  1  0
 10  2  1  0
 10  8  2  0
 11  3  1  0
 11  9  2  0
 12  1  1  0
 12  5  1  0
 12  6  1  0
 13  7  1  0
 14 10  1  0
 15 11  1  0
 15 12  1  0
M  END
>  <NAME>  (1548) 
2-(3,4-DIHYDRO-6-HYDROXY-2-METHYL)-2H-1-BENZOPYRANETHANOL

>  <SYNONYMS>  (1548) 


>  <SPECTRUM TYPE>  (1548) 
MS1

>  <INSTRUMENT TYPE>  (1548) 
EI-B

>  <INSTRUMENT>  (1548) 
JEOL JMS-D-300

>  <ION MODE>  (1548) 
P

>  <INCHIKEY>  (1548) 
IZVREMVRDLKBEU-UHFFFAOYSA-N

>  <FORMULA>  (1548) 
C12H16O3

>  <EXACT MASS>  (1548) 
208.10994437199997

>  <MW>  (1548) 
208

>  <ID>  (1548) 
JP009870

>  <CONTRIBUTOR>  (1548) 
University of Tokyo Team, {Faculty of Engineering, University of Tokyo

>  <COMMENT>  (1548) 
SMILES=OCCC(C)(C1)Oc(c2)c(cc(O)c2)C1
InChI=InChI=1S/C12H16O3/c1-12(6-7-13)5-4-9-8-10(14)2-3-11(9)15-12/h2-3,8,13-14H,4-7H2,1H3
computed SMILES=OC1=CC=C2OC(C)(CCO)CCC2=C1
accession=JP009870
date=2016.01.19 (Created 2008.10.21, modified 2011.05.06)
author=KURARAY CO., LTD.
license=CC BY-NC-SA
exact mass=208.10994
ionization energy=70 eV
ion type=[M]+*
computed spectral entropy=3.6944344713106427
computed normalized entropy=0.8338043839400205
SPLASH=splash10-00di-3910000000-0cb2b8d2a7ef07ec16d9
submitter=submitter = University of Tokyo Team (Faculty of Engineering, University of Tokyo)
MoNA Rating=3.75

>  <NUM PEAKS>  (1548) 
84

>  <MASS SPECTRAL PEAKS>  (1548) 
26 6.2
27 19
28 6.8
39 11.5
40 2.8
41 12
43 13.3
51 4
52 1.3
53 7.5
54 2.2
55 17.3
56 1.5
57 3
63 1.5
65 7.8
66 3.3
67 9
68 1.3
69 5.5
71 2
77 8
78 2
79 4.2
80 1
81 3
82 3.6
83 1.3
84 1
85 17.2
86 1.2
91 6
93 2
94 17.7
95 5.3
103 1.2
105 3
106 1
107 11.2
108 1.2
109 2
110 3.8
115 2.5
117 1.3
119 2.2
121 5
122 44.6
123 99.99
124 14
125 1.6
131 2.2
132 1
133 3.2
134 4.3
135 22.5
136 10
137 1
144 1
145 3
146 1
147 18.5
148 6
149 7.2
150 1.8
157 1.5
158 1.7
159 1.2
160 3.2
161 40.8
162 11
163 23.3
164 5
173 20.2
174 5
175 62.7
176 11.6
178 14.5
179 3.2
189 4.8
190 24.5
191 6.3
206 2.5
208 70.2
209 19

$$$$

     RDKit          2D

 15 16  0  0  0  0  0  0  0  0999 V2000
    4.0772    0.4897    0.0000 C   0  0  0  0  0  0  0  0  0  0  0  0
   -2.6000    0.7500    0.0000 C   0  0  0  0  0  0  0  0  0  0  0  0
   -2.6000   -0.7500    0.0000 C   0  0  0  0  0  0  0  0  0  0  0  0
   -1.3000    1.5000    0.0000 C   0  0  0  0  0  0  0  0  0  0  0  0
    1.3000   -1.5000    0.0000 C   0  0  0  0  0  0  0  0  0  0  0  0
    2.6000   -0.7500    0.0000 C   0  0  0  0  0  0  0  0  0  0  0  0
    3.1127    2.1596    0.0000 C   0  0  0  0  0  0  0  0  0  0  0  0
    4.5899    2.4204    0.0000 C   0  0  0  0  0  0  0  0  0  0  0  0
    0.0000   -0.7500    0.0000 C   0  0  0  0  0  0  0  0  0  0  0  0
   -1.3000   -1.5000    0.0000 C   0  0  0  0  0  0  0  0  0  0  0  0
    0.0000    0.7500    0.0000 C   0  0  0  0  0  0  0  0  0  0  0  0
    2.6000    0.7500    0.0000 C   0  0  0  0  0  0  0  0  0  0  0  0
    5.1026    3.8301    0.0000 O   0  0  0  0  0  0  0  0  0  0  0  0
   -1.3000   -3.0000    0.0000 O   0  0  0  0  0  0  0  0  0  0  0  0
    1.3000    1.5000    0.0000 O   0  0  0  0  0  0  0  0  0  0  0  0
  3  2  2  0
  4  2  1  0
  6  5  1  0
  8  7  1  0
  9  5  1  0
 10  3  1  0
 10  9  2  0
 11  4  2  0
 11  9  1  0
 12  1  1  0
 12  6  1  0
 12  7  1  0
 13  8  1  0
 14 10  1  0
 15 11  1  0
 15 12  1  0
M  END
>  <NAME>  (1549) 
2-(3,4-DIHYDRO-5-HYDROXY-2-METHYL)-2H-1-BENZOPYRANETHANOL

>  <SYNONYMS>  (1549) 


>  <SPECTRUM TYPE>  (1549) 
MS1

>  <INSTRUMENT TYPE>  (1549) 
EI-B

>  <INSTRUMENT>  (1549) 
JEOL JMS-D-300

>  <ION MODE>  (1549) 
P

>  <INCHIKEY>  (1549) 
WXVMCKFUHIGFAR-UHFFFAOYSA-N

>  <FORMULA>  (1549) 
C12H16O3

>  <EXACT MASS>  (1549) 
208.109944372

>  <MW>  (1549) 
208

>  <ID>  (1549) 
JP009869

>  <CONTRIBUTOR>  (1549) 
University of Tokyo Team, {Faculty of Engineering, University of Tokyo

>  <COMMENT>  (1549) 
cas=101529-26-4
SMILES=OCCC(C)(C2)Oc(c1)c(C2)c(O)cc1
InChI=InChI=1S/C12H16O3/c1-12(7-8-13)6-5-9-10(14)3-2-4-11(9)15-12/h2-4,13-14H,5-8H2,1H3
computed SMILES=OC1=CC=CC=2OC(C)(CCO)CCC12
accession=JP009869
date=2016.01.19 (Created 2008.10.21, modified 2011.05.06)
author=KURARAY CO., LTD.
license=CC BY-NC-SA
exact mass=208.10994
ionization energy=70 eV
ion type=[M]+*
computed spectral entropy=3.1283992048272307
computed normalized entropy=0.8267025459789112
SPLASH=splash10-00di-3910000000-2df818983153861744a2
submitter=submitter = University of Tokyo Team (Faculty of Engineering, University of Tokyo)
MoNA Rating=3.75

>  <NUM PEAKS>  (1549) 
44

>  <MASS SPECTRAL PEAKS>  (1549) 
28 4.6
29 6.7
32 5
39 5
40 1
41 4.7
43 5.2
55 4.8
56 1
57 5.7
67 3.7
69 6.5
71 3.8
77 5.6
81 2.3
82 1.6
83 2.3
84 5.2
85 5.8
91 7.5
94 5.6
95 3.5
97 2.7
105 4.9
107 7.8
109 2.5
110 7
111 2.8
113 5.8
121 4.6
122 7.2
123 99.99
124 14.5
125 1.5
127 4.8
135 5.8
137 7
139 5.7
148 6.3
149 5.7
161 10
163 28.7
175 23
208 34.4

$$$$

     RDKit          2D

 15 16  0  0  0  0  0  0  0  0999 V2000
    8.4447    1.3739    0.0000 C   0  0  0  0  0  0  0  0  0  0  0  0
    7.1462    0.6231    0.0000 C   0  0  0  0  0  0  0  0  0  0  0  0
    1.9500   -0.9000    0.0000 C   0  0  0  0  0  0  0  0  0  0  0  0
    0.6300   -1.6600    0.0000 C   0  0  0  0  0  0  0  0  0  0  0  0
    0.6300    1.3800    0.0000 C   0  0  0  0  0  0  0  0  0  0  0  0
    3.2486    1.3708    0.0000 C   0  0  0  0  0  0  0  0  0  0  0  0
   -2.9400   -0.2300    0.0000 C   0  0  0  0  0  0  0  0  0  0  0  0
    1.9500    0.6200    0.0000 C   0  0  0  0  0  0  0  0  0  0  0  0
   -0.6600   -0.9000    0.0000 C   0  0  0  0  0  0  0  0  0  0  0  0
   -0.6600    0.6200    0.0000 C   0  0  0  0  0  0  0  0  0  0  0  0
    5.8467    1.3723    0.0000 C   0  0  0  0  0  0  0  0  0  0  0  0
    5.8458    2.8723    0.0000 O   0  0  0  0  0  0  0  0  0  0  0  0
    4.5481    0.6216    0.0000 O   0  0  0  0  0  0  0  0  0  0  0  0
   -2.0600   -1.3400    0.0000 O   0  0  0  0  0  0  0  0  0  0  0  0
   -2.0900    1.0600    0.0000 O   0  0  0  0  0  0  0  0  0  0  0  0
  2  1  1  0
  4  3  2  0
  8  3  1  0
  8  5  2  0
  8  6  1  0
  9  4  1  0
 10  5  1  0
 10  9  2  0
 11  2  1  0
 12 11  2  0
 13  6  1  0
 13 11  1  0
 14  7  1  0
 14  9  1  0
 15  7  1  0
 15 10  1  0
M  END
>  <NAME>  (1550) 
3,4-METHYLENEDIOXYBENZYL PROPIONATE

>  <SYNONYMS>  (1550) 


>  <SPECTRUM TYPE>  (1550) 
MS1

>  <INSTRUMENT TYPE>  (1550) 
EI-B

>  <INSTRUMENT>  (1550) 
JEOL JMS-D-300

>  <ION MODE>  (1550) 
P

>  <INCHIKEY>  (1550) 
FVRCUNZJSLRIKU-UHFFFAOYSA-N

>  <FORMULA>  (1550) 
C11H12O4

>  <EXACT MASS>  (1550) 
208.073558864

>  <MW>  (1550) 
208

>  <ID>  (1550) 
JP009868

>  <CONTRIBUTOR>  (1550) 
University of Tokyo Team, {Faculty of Engineering, University of Tokyo

>  <COMMENT>  (1550) 
SMILES=CCC(=O)OCc(c1)cc(O2)c(OC2)c1
cas=6890-26-2
InChI=InChI=1S/C11H12O4/c1-2-11(12)13-6-8-3-4-9-10(5-8)15-7-14-9/h3-5H,2,6-7H2,1H3
computed SMILES=O=C(OCC1=CC=C2OCOC2=C1)CC
accession=JP009868
date=2016.01.19 (Created 2008.10.21, modified 2011.05.06)
author=KURARAY CO., LTD.
license=CC BY-NC-SA
exact mass=208.07356
ionization energy=70 eV
ion type=[M]+*
computed spectral entropy=2.675468277670569
computed normalized entropy=0.7791142244723941
SPLASH=splash10-0k9i-2920000000-123a01eccdc82b3d6446
submitter=submitter = University of Tokyo Team (Faculty of Engineering, University of Tokyo)
MoNA Rating=3.75

>  <NUM PEAKS>  (1550) 
31

>  <MASS SPECTRAL PEAKS>  (1550) 
27 1.2
29 8.9
39 2.8
50 1.6
51 10
57 10
63 4
65 7.2
67 2.2
76 6.5
77 14.3
78 1.5
79 1.2
91 1.2
93 7.4
104 6.2
105 6.8
121 5.2
122 8.2
123 5
134 38
135 99.99
136 10
149 8
150 14.2
151 6.5
152 66.5
153 5.8
180 1.8
208 60
209 6.7

$$$$

     RDKit          2D

 12 11  0  0  0  0  0  0  0  0999 V2000
   -0.3248    2.8125    0.0000 C   0  0  0  0  0  0  0  0  0  0  0  0
   -6.8200    5.0625    0.0000 C   0  0  0  0  0  0  0  0  0  0  0  0
   -1.6238    5.0625    0.0000 C   0  0  0  0  0  0  0  0  0  0  0  0
   -2.9228    4.3125    0.0000 C   0  0  0  0  0  0  0  0  0  0  0  0
    0.9743    5.0625    0.0000 C   0  0  0  0  0  0  0  0  0  0  0  0
   -0.3248    4.3125    0.0000 C   0  0  0  0  0  0  0  0  0  0  0  0
   -5.5209    4.3125    0.0000 C   0  0  0  0  0  0  0  0  0  0  0  0
    2.2733    4.3125    0.0000 C   0  0  0  0  0  0  0  0  0  0  0  0
    3.5724    5.0625    0.0000 Cl  0  0  0  0  0  0  0  0  0  0  0  0
    2.2733    2.8125    0.0000 Cl  0  0  0  0  0  0  0  0  0  0  0  0
   -5.5209    2.8125    0.0000 O   0  0  0  0  0  0  0  0  0  0  0  0
   -4.2219    5.0625    0.0000 O   0  0  0  0  0  0  0  0  0  0  0  0
  4  3  1  0
  6  1  1  0
  3  6  2  0
  6  5  1  0
  7  2  1  0
  8  5  2  0
  9  8  1  0
 10  8  1  0
 11  7  2  0
 12  4  1  0
 12  7  1  0
M  END
>  <NAME>  (1551) 
5,5-DICHLORO-3-METHYL-2,4-PENTADIENYL ACETATE

>  <SYNONYMS>  (1551) 


>  <SPECTRUM TYPE>  (1551) 
MS1

>  <INSTRUMENT TYPE>  (1551) 
EI-B

>  <INSTRUMENT>  (1551) 
JEOL JMS-D-300

>  <ION MODE>  (1551) 
P

>  <INCHIKEY>  (1551) 
LSFBFKFSLCFMGT-ZZXKWVIFSA-N

>  <FORMULA>  (1551) 
C8H10Cl2O2

>  <EXACT MASS>  (1551) 
208.00578492

>  <MW>  (1551) 
208

>  <ID>  (1551) 
JP009867

>  <CONTRIBUTOR>  (1551) 
University of Tokyo Team, {Faculty of Engineering, University of Tokyo

>  <COMMENT>  (1551) 
SMILES=CC(=O)OCC=C(C)C=C(Cl)Cl
InChI=InChI=1S/C8H10Cl2O2/c1-6(5-8(9)10)3-4-12-7(2)11/h3,5H,4H2,1-2H3/b6-3+
computed SMILES=O=C(OCC=C(C=C(Cl)Cl)C)C
accession=JP009867
date=2016.01.19 (Created 2008.10.21, modified 2011.05.06)
author=KURARAY CO., LTD.
license=CC BY-NC-SA
exact mass=208.00578
ionization energy=70 eV
ion type=[M]+*
computed spectral entropy=1.8104753627357133
computed normalized entropy=0.5624557955135919
SPLASH=splash10-0006-9100000000-a7a6d8b2e5b1e08d1b0e
submitter=submitter = University of Tokyo Team (Faculty of Engineering, University of Tokyo)
MoNA Rating=3.75

>  <NUM PEAKS>  (1551) 
25

>  <MASS SPECTRAL PEAKS>  (1551) 
27 1.5
28 5.3
39 3.2
41 1.3
43 99.99
44 2.5
45 3
50 1
51 3
65 2.8
73 3
77 15
78 1.8
79 1
95 2.2
113 10.3
114 1
115 3.2
131 1.2
148 2
149 0.8
150 1.2
173 1.2
208 1
210 0.7

$$$$

     RDKit          2D

 15 15  0  0  0  0  0  0  0  0999 V2000
    4.6768    2.4406    0.0000 C   0  0  0  0  0  0  0  0  0  0  0  0
    2.0789   -2.0602    0.0000 C   0  0  0  0  0  0  0  0  0  0  0  0
    0.4441    2.0892    0.0000 C   0  0  0  0  0  0  0  0  0  0  0  0
   -1.4841    2.0892    0.0000 C   0  0  0  0  0  0  0  0  0  0  0  0
   -1.8200   -1.3100    0.0000 C   0  0  0  0  0  0  0  0  0  0  0  0
   -0.5200   -2.0600    0.0000 C   0  0  0  0  0  0  0  0  0  0  0  0
    3.3781    0.1904    0.0000 C   0  0  0  0  0  0  0  0  0  0  0  0
    2.0789    0.9402    0.0000 C   0  0  0  0  0  0  0  0  0  0  0  0
   -1.8200    0.1900    0.0000 C   0  0  0  0  0  0  0  0  0  0  0  0
    5.9762    0.1908    0.0000 C   0  0  0  0  0  0  0  0  0  0  0  0
    4.6770    0.9406    0.0000 C   0  0  0  0  0  0  0  0  0  0  0  0
    0.7800   -1.3100    0.0000 C   0  0  0  0  0  0  0  0  0  0  0  0
    0.7800    0.1900    0.0000 C   0  0  0  0  0  0  0  0  0  0  0  0
   -0.5200    0.9400    0.0000 C   0  0  0  0  0  0  0  0  0  0  0  0
    7.2751    0.9410    0.0000 O   0  0  0  0  0  0  0  0  0  0  0  0
  6  5  1  0
  8  7  1  0
  9  5  1  0
 11  1  1  0
  7 11  2  0
 11 10  1  0
 12  2  1  0
 12  6  1  0
 13  8  1  0
 13 12  2  0
 14  3  1  0
 14  4  1  0
 14  9  1  0
 14 13  1  0
 15 10  2  0
M  END
>  <NAME>  (1552) 
2-METHYL-4-(2,6,6-TRIMETHYLCYCLOHEXENYL)-2-BUTENAL

>  <SYNONYMS>  (1552) 


>  <SPECTRUM TYPE>  (1552) 
MS1

>  <INSTRUMENT TYPE>  (1552) 
EI-B

>  <INSTRUMENT>  (1552) 
JEOL JMS-D-300

>  <ION MODE>  (1552) 
P

>  <INCHIKEY>  (1552) 
FJCQUJKUMKZEMH-YRNVUSSQSA-N

>  <FORMULA>  (1552) 
C14H22O

>  <EXACT MASS>  (1552) 
206.167065324

>  <MW>  (1552) 
206

>  <ID>  (1552) 
JP009866

>  <CONTRIBUTOR>  (1552) 
University of Tokyo Team, {Faculty of Engineering, University of Tokyo

>  <COMMENT>  (1552) 
SMILES=O=CC(C)=CCC(=C(C)1)C(C)(C)CCC1
cas=3155-71-3
InChI=InChI=1S/C14H22O/c1-11(10-15)7-8-13-12(2)6-5-9-14(13,3)4/h7,10H,5-6,8-9H2,1-4H3/b11-7+
computed SMILES=O=CC(=CCC1=C(C)CCCC1(C)C)C
accession=JP009866
date=2016.01.19 (Created 2008.10.21, modified 2011.05.06)
author=KURARAY CO., LTD.
license=CC BY-NC-SA
exact mass=206.16707
ionization energy=70 eV
ion type=[M]+*
computed spectral entropy=3.8965632953124563
computed normalized entropy=0.8443036928490423
SPLASH=splash10-0abc-7910000000-d245a3a26af1b426d4e0
submitter=submitter = University of Tokyo Team (Faculty of Engineering, University of Tokyo)
MoNA Rating=3.75

>  <NUM PEAKS>  (1552) 
101

>  <MASS SPECTRAL PEAKS>  (1552) 
27 13.6
28 2.3
29 20.7
39 20.3
40 3
41 51.8
42 2.8
43 22.6
45 1.3
51 6.1
52 2.7
53 20.8
54 2.6
55 42.3
56 2.8
57 9.7
58 2
63 2
65 12
66 3.5
67 23
68 2.5
69 26.3
70 2.1
71 5
77 23.6
78 5.4
79 26.5
80 8
81 60.5
82 1.87
83 10.7
84 1.6
85 2.2
88 6.7
89 1.3
91 40.3
92 6.8
93 47.2
94 6.8
95 64.6
96 9.5
97 6
103 3.3
104 1.2
105 33.2
106 5.5
107 99.99
108 42.3
109 55.3
110 5.8
111 4.7
115 3.5
116 1.6
117 5.6
118 1.7
119 13.7
120 4.3
121 54.3
122 14.2
123 87.6
124 11
125 1.8
128 1.7
129 2
130 1.5
131 14.8
132 4.2
133 21.5
134 3.6
135 51.8
136 18.8
137 9.8
138 1.3
139 1.3
144 1.5
145 7
146 1.2
147 10.2
148 2.7
149 12.2
150 8.2
151 1.6
158 2.4
159 1.4
161 2.5
162 1.2
163 35.8
164 6.2
165 5.6
166 1.3
173 12.2
174 2
175 1.8
177 4.2
191 83.3
192 12.6
193 1.3
206 98.5
207 17
208 1.6

$$$$

     RDKit          2D

 15 16  0  0  0  0  0  0  0  0999 V2000
    3.8971    1.8200    0.0000 C   0  0  0  0  0  0  0  0  0  0  0  0
   -6.4952    4.8200    0.0000 C   0  0  0  0  0  0  0  0  0  0  0  0
    2.5976    1.0692    0.0000 C   0  0  0  0  0  0  0  0  0  0  0  0
    3.8976    3.3208    0.0000 C   0  0  0  0  0  0  0  0  0  0  0  0
   -5.1957    5.5708    0.0000 C   0  0  0  0  0  0  0  0  0  0  0  0
   -6.4957    3.3192    0.0000 C   0  0  0  0  0  0  0  0  0  0  0  0
    1.2986    1.8192    0.0000 C   0  0  0  0  0  0  0  0  0  0  0  0
    2.5986    4.0708    0.0000 C   0  0  0  0  0  0  0  0  0  0  0  0
   -3.8966    4.8208    0.0000 C   0  0  0  0  0  0  0  0  0  0  0  0
   -5.1966    2.5692    0.0000 C   0  0  0  0  0  0  0  0  0  0  0  0
   -1.2990    3.3200    0.0000 C   0  0  0  0  0  0  0  0  0  0  0  0
    1.2990    3.3200    0.0000 C   0  0  0  0  0  0  0  0  0  0  0  0
   -3.8971    3.3200    0.0000 C   0  0  0  0  0  0  0  0  0  0  0  0
    0.0000    4.0700    0.0000 N   0  0  0  0  0  0  0  0  0  0  0  0
   -2.5981    2.5700    0.0000 N   0  0  0  0  0  0  0  0  0  0  0  0
  3  1  1  0
  4  1  1  0
  5  2  1  0
  6  2  1  0
  7  3  1  0
  8  4  1  0
  9  5  1  0
 10  6  1  0
 12  7  1  0
 12  8  1  0
 13  9  1  0
 13 10  1  0
 14 11  2  0
 14 12  1  0
 15 11  2  0
 15 13  1  0
M  END
>  <NAME>  (1553) 
DICYCLOHEXYLCARBODIIMIDE

>  <SYNONYMS>  (1553) 


>  <SPECTRUM TYPE>  (1553) 
MS1

>  <INSTRUMENT TYPE>  (1553) 
EI-B

>  <INSTRUMENT>  (1553) 
JEOL JMS-D-300

>  <ION MODE>  (1553) 
P

>  <INCHIKEY>  (1553) 
QOSSAOTZNIDXMA-UHFFFAOYSA-N

>  <FORMULA>  (1553) 
C13H22N2

>  <EXACT MASS>  (1553) 
206.17829870399999

>  <MW>  (1553) 
206

>  <ID>  (1553) 
JP009865

>  <CONTRIBUTOR>  (1553) 
University of Tokyo Team, {Faculty of Engineering, University of Tokyo

>  <COMMENT>  (1553) 
SMILES=C(C2)CCC(C2)N=C=NC(C1)CCCC1
cas=538-75-0
InChI=InChI=1S/C13H22N2/c1-3-7-12(8-4-1)14-11-15-13-9-5-2-6-10-13/h12-13H,1-10H2
computed SMILES=C(=NC1CCCCC1)=NC2CCCCC2
accession=JP009865
date=2016.01.19 (Created 2008.10.21, modified 2011.05.06)
author=KURARAY CO., LTD.
license=CC BY-NC-SA
exact mass=206.1783
ionization energy=70 eV
ion type=[M]+*
computed spectral entropy=2.824750934366155
computed normalized entropy=0.8010386103881493
SPLASH=splash10-052f-9000000000-0b76a833bcb87eb1cdb4
submitter=submitter = University of Tokyo Team (Faculty of Engineering, University of Tokyo)
MoNA Rating=3.75

>  <NUM PEAKS>  (1553) 
34

>  <MASS SPECTRAL PEAKS>  (1553) 
27 32
28 14
29 35.6
30 1.5
39 32.5
40 4.8
41 99.99
42 8.8
43 51
52 1.5
53 15.5
54 15
55 96
56 9.5
65 1.5
66 1.3
67 14.2
68 6
69 4
77 1
79 2.8
80 1.1
81 24.5
82 14.3
83 33
84 1.6
95 4
96 4.8
124 9.5
125 7.3
151 1.1
163 9.5
164 4.9
177 2.2

$$$$

     RDKit          2D

 15 16  0  0  0  0  0  0  0  0999 V2000
   -3.8989    1.5002    0.0000 C   0  0  0  0  0  0  0  0  0  0  0  0
   -1.3000   -3.0000    0.0000 C   0  0  0  0  0  0  0  0  0  0  0  0
    4.0772    0.4897    0.0000 C   0  0  0  0  0  0  0  0  0  0  0  0
    3.1127    2.1596    0.0000 C   0  0  0  0  0  0  0  0  0  0  0  0
    1.3000   -1.5000    0.0000 C   0  0  0  0  0  0  0  0  0  0  0  0
    2.6000   -0.7500    0.0000 C   0  0  0  0  0  0  0  0  0  0  0  0
   -1.3000    1.5000    0.0000 C   0  0  0  0  0  0  0  0  0  0  0  0
   -2.6000    0.7500    0.0000 C   0  0  0  0  0  0  0  0  0  0  0  0
   -1.3000   -1.5000    0.0000 C   0  0  0  0  0  0  0  0  0  0  0  0
    0.0000   -0.7500    0.0000 C   0  0  0  0  0  0  0  0  0  0  0  0
    0.0000    0.7500    0.0000 C   0  0  0  0  0  0  0  0  0  0  0  0
   -2.6000   -0.7500    0.0000 C   0  0  0  0  0  0  0  0  0  0  0  0
    2.6000    0.7500    0.0000 C   0  0  0  0  0  0  0  0  0  0  0  0
   -3.8989   -1.5002    0.0000 O   0  0  0  0  0  0  0  0  0  0  0  0
    1.3000    1.5000    0.0000 O   0  0  0  0  0  0  0  0  0  0  0  0
  6  5  1  0
  8  1  1  0
  8  7  1  0
  9  2  1  0
 10  5  1  0
 10  9  2  0
 11  7  2  0
 11 10  1  0
 12  8  2  0
 12  9  1  0
 13  3  1  0
 13  4  1  0
 13  6  1  0
 14 12  1  0
 15 11  1  0
 15 13  1  0
M  END
>  <NAME>  (1554) 
2,2,5,7-TETRAMETHYLCHROMAN-6-OL

>  <SYNONYMS>  (1554) 
3,4-DIHYDRO-2,2,5,7-TETRAMETHYL-6-HYDROXY-2H-BENZOPYRAN

>  <SPECTRUM TYPE>  (1554) 
MS1

>  <INSTRUMENT TYPE>  (1554) 
EI-B

>  <INSTRUMENT>  (1554) 
JEOL JMS-D-300

>  <ION MODE>  (1554) 
P

>  <INCHIKEY>  (1554) 
JCUAPADRRINJBH-UHFFFAOYSA-N

>  <FORMULA>  (1554) 
C13H18O2

>  <EXACT MASS>  (1554) 
206.130679816

>  <MW>  (1554) 
206

>  <ID>  (1554) 
JP009864

>  <CONTRIBUTOR>  (1554) 
University of Tokyo Team, {Faculty of Engineering, University of Tokyo

>  <COMMENT>  (1554) 
SMILES=Cc(c1)c(O)c(C)c(C2)c1OC(C)(C)C2
cas=14074-92-1
InChI=InChI=1S/C13H18O2/c1-8-7-11-10(9(2)12(8)14)5-6-13(3,4)15-11/h7,14H,5-6H2,1-4H3
computed SMILES=OC=1C(=CC=2OC(C)(C)CCC2C1C)C
accession=JP009864
date=2016.01.19 (Created 2008.10.21, modified 2011.05.06)
author=KURARAY CO., LTD.
license=CC BY-NC-SA
exact mass=206.13068
ionization energy=70 eV
ion type=[M]+*
computed spectral entropy=3.577055575430756
computed normalized entropy=0.9342884864356725
SPLASH=splash10-0udi-3910000000-5b52411bf0cb7a919005
submitter=submitter = University of Tokyo Team (Faculty of Engineering, University of Tokyo)
MoNA Rating=3.75

>  <NUM PEAKS>  (1554) 
46

>  <MASS SPECTRAL PEAKS>  (1554) 
39 11.2
41 13
43 11.8
53 15.3
55 10.2
57 9.4
65 9.7
67 14.3
68 8.5
69 11
77 18
79 6
81 7.5
83 10.8
91 14.2
93 9.5
95 8.2
97 10
105 13.8
107 13.8
108 10.2
109 10.5
119 11.7
121 17.7
122 18
123 11.8
133 14.2
135 10.8
136 5.2
138 15.2
147 11.6
149 10
150 41.7
151 99.99
152 14.3
161 29.2
162 16.7
163 11.5
174 10
175 14
176 9.2
189 28.5
191 10
204 17
206 49.7
207 10.8

$$$$

     RDKit          2D

 15 16  0  0  0  0  0  0  0  0999 V2000
   -3.8989   -1.5002    0.0000 C   0  0  0  0  0  0  0  0  0  0  0  0
    4.0772    0.4897    0.0000 C   0  0  0  0  0  0  0  0  0  0  0  0
   -2.6000    0.7500    0.0000 C   0  0  0  0  0  0  0  0  0  0  0  0
   -1.3000    1.5000    0.0000 C   0  0  0  0  0  0  0  0  0  0  0  0
    1.3000   -1.5000    0.0000 C   0  0  0  0  0  0  0  0  0  0  0  0
    2.6000   -0.7500    0.0000 C   0  0  0  0  0  0  0  0  0  0  0  0
    3.1127    2.1596    0.0000 C   0  0  0  0  0  0  0  0  0  0  0  0
    4.5899    2.4204    0.0000 C   0  0  0  0  0  0  0  0  0  0  0  0
   -1.3000   -1.5000    0.0000 C   0  0  0  0  0  0  0  0  0  0  0  0
   -2.6000   -0.7500    0.0000 C   0  0  0  0  0  0  0  0  0  0  0  0
    0.0000   -0.7500    0.0000 C   0  0  0  0  0  0  0  0  0  0  0  0
    0.0000    0.7500    0.0000 C   0  0  0  0  0  0  0  0  0  0  0  0
    2.6000    0.7500    0.0000 C   0  0  0  0  0  0  0  0  0  0  0  0
    5.1026    3.8301    0.0000 O   0  0  0  0  0  0  0  0  0  0  0  0
    1.3000    1.5000    0.0000 O   0  0  0  0  0  0  0  0  0  0  0  0
  4  3  2  0
  6  5  1  0
  8  7  1  0
 10  1  1  0
 10  3  1  0
 10  9  2  0
 11  5  1  0
 11  9  1  0
 12  4  1  0
 12 11  2  0
 13  2  1  0
 13  6  1  0
 13  7  1  0
 14  8  1  0
 15 12  1  0
 15 13  1  0
M  END
>  <NAME>  (1555) 
2,6-DIMETHYL-2-(2-HYDROXYETHYL)-3,4-DIHYDRO-2H-1-BENZOPYRAN

>  <SYNONYMS>  (1555) 
2,6-DIMETHYL-2-(2-HYDROXYETHYL)CHROMAN

>  <SPECTRUM TYPE>  (1555) 
MS1

>  <INSTRUMENT TYPE>  (1555) 
EI-B

>  <INSTRUMENT>  (1555) 
JEOL JMS-D-300

>  <ION MODE>  (1555) 
P

>  <INCHIKEY>  (1555) 
XYPZIMJRPNTDRA-UHFFFAOYSA-N

>  <FORMULA>  (1555) 
C13H18O2

>  <EXACT MASS>  (1555) 
206.130679816

>  <MW>  (1555) 
206

>  <ID>  (1555) 
JP009863

>  <CONTRIBUTOR>  (1555) 
University of Tokyo Team, {Faculty of Engineering, University of Tokyo

>  <COMMENT>  (1555) 
SMILES=OCCC(C)(C1)Oc(c2)c(cc(C)c2)C1
InChI=InChI=1S/C13H18O2/c1-10-3-4-12-11(9-10)5-6-13(2,15-12)7-8-14/h3-4,9,14H,5-8H2,1-2H3
computed SMILES=OCCC1(OC2=CC=C(C=C2CC1)C)C
accession=JP009863
date=2016.01.19 (Created 2008.10.21, modified 2011.05.06)
author=KURARAY CO., LTD.
license=CC BY-NC-SA
exact mass=206.13068
ionization energy=70 eV
ion type=[M]+*
computed spectral entropy=3.3239494599152875
computed normalized entropy=0.7797792834076033
SPLASH=splash10-05fr-2920000000-78b161c0acf39724d59e
submitter=submitter = University of Tokyo Team (Faculty of Engineering, University of Tokyo)
MoNA Rating=3.75

>  <NUM PEAKS>  (1555) 
71

>  <MASS SPECTRAL PEAKS>  (1555) 
27 1.7
29 1.6
31 1.4
39 0.4
41 4.1
43 4.2
51 2.7
52 0.1
53 3.2
55 3.2
63 1.8
65 0.51
67 1.4
77 11.4
78 2.8
79 0.29
80 1.3
83 1.9
85 8.6
89 0.13
91 19.6
92 9.1
93 3.4
103 0.19
105 10.7
106 1.4
107 3.4
108 0.4
109 1.3
115 5.3
116 1.8
117 0.19
119 3.3
120 8.4
121 99.99
122 1.33
128 2.4
129 1.9
131 3.4
132 0.3
133 13.7
134 4.5
135 2.9
141 0.16
142 1
143 1.3
144 1.6
145 1.51
146 6.6
147 11.3
148 4.5
149 0.12
158 3.8
159 19.5
160 7.7
161 4.2
162 9.1
171 10.7
172 2.7
173 7.4
174 14.6
175 3.2
176 6.8
186 0.15
187 4.5
188 9
189 2
191 0.14
204 1.8
206 60.7
207 15.1

$$$$

     RDKit          2D

 15 16  0  0  0  0  0  0  0  0999 V2000
   -3.8989    1.5002    0.0000 C   0  0  0  0  0  0  0  0  0  0  0  0
   -1.3000    3.0000    0.0000 C   0  0  0  0  0  0  0  0  0  0  0  0
   -1.3000   -3.0000    0.0000 C   0  0  0  0  0  0  0  0  0  0  0  0
    1.3000   -1.5000    0.0000 C   0  0  0  0  0  0  0  0  0  0  0  0
    2.6000   -0.7500    0.0000 C   0  0  0  0  0  0  0  0  0  0  0  0
   -2.6000    0.7500    0.0000 C   0  0  0  0  0  0  0  0  0  0  0  0
   -1.3000    1.5000    0.0000 C   0  0  0  0  0  0  0  0  0  0  0  0
   -1.3000   -1.5000    0.0000 C   0  0  0  0  0  0  0  0  0  0  0  0
    0.0000   -0.7500    0.0000 C   0  0  0  0  0  0  0  0  0  0  0  0
    2.6000    0.7500    0.0000 C   0  0  0  0  0  0  0  0  0  0  0  0
   -2.6000   -0.7500    0.0000 C   0  0  0  0  0  0  0  0  0  0  0  0
    0.0000    0.7500    0.0000 C   0  0  0  0  0  0  0  0  0  0  0  0
    3.8989    1.5002    0.0000 O   0  0  0  0  0  0  0  0  0  0  0  0
   -3.8989   -1.5002    0.0000 O   0  0  0  0  0  0  0  0  0  0  0  0
    1.3000    1.5000    0.0000 O   0  0  0  0  0  0  0  0  0  0  0  0
  5  4  1  0
  6  1  1  0
  7  2  1  0
  7  6  1  0
  8  3  1  0
  9  4  1  0
  9  8  2  0
 10  5  1  0
 11  6  2  0
 11  8  1  0
 12  7  2  0
 12  9  1  0
 13 10  2  0
 14 11  1  0
 15 10  1  0
 15 12  1  0
M  END
>  <NAME>  (1556) 
6-HYDROXY-5,7,8-TRIMETHYL-3,4-DIHYDROCOUMARIN

>  <SYNONYMS>  (1556) 


>  <SPECTRUM TYPE>  (1556) 
MS1

>  <INSTRUMENT TYPE>  (1556) 
EI-B

>  <INSTRUMENT>  (1556) 
JEOL JMS-D-300

>  <ION MODE>  (1556) 
P

>  <INCHIKEY>  (1556) 
IWIXYZQOIASOQM-UHFFFAOYSA-N

>  <FORMULA>  (1556) 
C12H14O3

>  <EXACT MASS>  (1556) 
206.09429430799997

>  <MW>  (1556) 
206

>  <ID>  (1556) 
JP009862

>  <CONTRIBUTOR>  (1556) 
University of Tokyo Team, {Faculty of Engineering, University of Tokyo

>  <COMMENT>  (1556) 
SMILES=O=C(C2)Oc(c(C)1)c(C2)c(C)c(O)c(C)1
InChI=InChI=1S/C12H14O3/c1-6-7(2)12-9(8(3)11(6)14)4-5-10(13)15-12/h14H,4-5H2,1-3H3
computed SMILES=O=C1OC=2C(=C(C(O)=C(C2CC1)C)C)C
license=CC BY-NC-SA
accession=JP009862
date=2016.01.19 (Created 2008.10.21, modified 2011.05.06)
author=KURARAY CO., LTD.
exact mass=206.09429
ionization energy=70 eV
ion type=[M]+*
computed spectral entropy=2.4225362499169045
computed normalized entropy=0.743543422254768
SPLASH=splash10-0bt9-3940000000-7affddfa5eee5042639b
submitter=submitter = University of Tokyo Team (Faculty of Engineering, University of Tokyo)
MoNA Rating=3.75

>  <NUM PEAKS>  (1556) 
26

>  <MASS SPECTRAL PEAKS>  (1556) 
27 5
28 2.8
39 7.8
41 0.63
43 6.1
51 4.7
53 7.7
55 0.47
65 4.7
67 5.2
77 6.4
79 0.44
89 5.9
91 10.5
121 18.4
135 1.17
136 22.5
149 3.8
163 7.5
164 99.99
165 14.4
177 7.7
178 26.9
179 0.45
206 94.5
207 15.6

$$$$

     RDKit          2D

 15 16  0  0  0  0  0  0  0  0999 V2000
   -2.3090   -5.2500    0.0000 C   0  0  0  0  0  0  0  0  0  0  0  0
   -2.3100    0.7500    0.0000 C   0  0  0  0  0  0  0  0  0  0  0  0
   -2.3100   -0.7500    0.0000 C   0  0  0  0  0  0  0  0  0  0  0  0
   -1.0100    1.5000    0.0000 C   0  0  0  0  0  0  0  0  0  0  0  0
   -1.0100   -3.0000    0.0000 C   0  0  0  0  0  0  0  0  0  0  0  0
    2.6000   -0.0000    0.0000 C   0  0  0  0  0  0  0  0  0  0  0  0
   -2.3090   -3.7500    0.0000 C   0  0  0  0  0  0  0  0  0  0  0  0
   -1.0100   -1.5000    0.0000 C   0  0  0  0  0  0  0  0  0  0  0  0
    0.2900    0.7500    0.0000 C   0  0  0  0  0  0  0  0  0  0  0  0
    0.2900   -0.7500    0.0000 C   0  0  0  0  0  0  0  0  0  0  0  0
   -3.6081   -3.0000    0.0000 C   0  0  0  0  0  0  0  0  0  0  0  0
   -3.6081   -1.5000    0.0000 O   0  0  0  0  0  0  0  0  0  0  0  0
   -4.9071   -3.7500    0.0000 O   0  0  0  0  0  0  0  0  0  0  0  0
    1.7200    1.2100    0.0000 O   0  0  0  0  0  0  0  0  0  0  0  0
    1.7200   -1.2100    0.0000 O   0  0  0  0  0  0  0  0  0  0  0  0
  3  2  2  0
  4  2  1  0
  7  1  1  0
  5  7  2  0
  8  3  1  0
  8  5  1  0
  9  4  2  0
 10  8  2  0
 10  9  1  0
 11  7  1  0
 12 11  2  0
 13 11  1  0
 14  6  1  0
 14  9  1  0
 15  6  1  0
 15 10  1  0
M  END
>  <NAME>  (1557) 
4-(2-HYDROXYCARBONYL-1-PROPENYL)-1,3-BENZODIOXOLE

>  <SYNONYMS>  (1557) 
3,4-METHYLENEDIOXY-ALPHA-METHYLCINNAMIC ACID

>  <SPECTRUM TYPE>  (1557) 
MS1

>  <INSTRUMENT TYPE>  (1557) 
EI-B

>  <INSTRUMENT>  (1557) 
JEOL JMS-D-300

>  <ION MODE>  (1557) 
P

>  <INCHIKEY>  (1557) 
GHPDISUPGNPJBE-ALCCZGGFSA-N

>  <FORMULA>  (1557) 
C11H10O4

>  <EXACT MASS>  (1557) 
206.0579088

>  <MW>  (1557) 
206

>  <ID>  (1557) 
JP009861

>  <CONTRIBUTOR>  (1557) 
University of Tokyo Team, {Faculty of Engineering, University of Tokyo

>  <COMMENT>  (1557) 
SMILES=OC(=O)C(C)=Cc(c2)c(O1)c(cc2)OC1
InChI=InChI=1S/C11H10O4/c1-7(11(12)13)5-8-3-2-4-9-10(8)15-6-14-9/h2-5H,6H2,1H3,(H,12,13)/b7-5-
computed SMILES=O=C(O)C(=CC=1C=CC=C2OCOC21)C
accession=JP009861
date=2016.01.19 (Created 2008.10.21, modified 2011.05.06)
author=KURARAY CO., LTD.
license=CC BY-NC-SA
exact mass=206.05791
ionization energy=70 eV
ion type=[M]+*
computed spectral entropy=2.488804421856983
computed normalized entropy=0.7181171594311186
SPLASH=splash10-0a4i-3790000000-eeb1519e3d2e807f8925
submitter=submitter = University of Tokyo Team (Faculty of Engineering, University of Tokyo)
MoNA Rating=3.75

>  <NUM PEAKS>  (1557) 
32

>  <MASS SPECTRAL PEAKS>  (1557) 
39 3.6
50 3.1
51 9.4
52 0.17
53 2.5
62 2.2
63 4.7
65 0.3
74 2
75 2.5
76 3.1
77 1.44
78 2.8
79 2.7
91 3.3
102 1
103 22.7
104 3.9
105 2.2
130 0.41
131 22.2
132 2.9
135 16.4
147 0.16
151 2.8
159 5.6
160 24.8
161 0.78
189 2.2
205 15.6
206 99.99
207 12.5

$$$$

     RDKit          2D

 14 13  0  0  0  0  0  0  0  0999 V2000
    7.6917    3.5143    0.0000 C   0  0  0  0  0  0  0  0  0  0  0  0
    6.1917    0.9162    0.0000 C   0  0  0  0  0  0  0  0  0  0  0  0
    0.7813    1.0662    0.0000 C   0  0  0  0  0  0  0  0  0  0  0  0
    4.3436    2.2153    0.0000 C   0  0  0  0  0  0  0  0  0  0  0  0
    5.6426    2.9653    0.0000 C   0  0  0  0  0  0  0  0  0  0  0  0
    3.0445    2.9653    0.0000 C   0  0  0  0  0  0  0  0  0  0  0  0
   -0.8526    2.2153    0.0000 C   0  0  0  0  0  0  0  0  0  0  0  0
    0.4465    2.9653    0.0000 C   0  0  0  0  0  0  0  0  0  0  0  0
    6.9417    2.2153    0.0000 C   0  0  0  0  0  0  0  0  0  0  0  0
    1.7455    2.2153    0.0000 C   0  0  0  0  0  0  0  0  0  0  0  0
   -2.1516    2.9653    0.0000 O   0  0  0  0  0  0  0  0  0  0  0  0
    0.4465    4.4653    0.0000 O   0  0  0  0  0  0  0  0  0  0  0  0
    8.2407    1.4653    0.0000 O   0  0  0  0  0  0  0  0  0  0  0  0
    2.7097    1.0662    0.0000 O   0  0  0  0  0  0  0  0  0  0  0  0
  5  4  1  0
  6  4  1  0
  8  7  1  0
  9  1  1  0
  9  2  1  0
  9  5  1  0
 10  3  1  0
 10  6  1  0
 10  8  1  0
 11  7  1  0
 12  8  1  0
 13  9  1  0
 14 10  1  0
M  END
>  <NAME>  (1558) 
3,7-DIMETHYL-1,2,3,7-OCTANETETRAOL

>  <SYNONYMS>  (1558) 


>  <SPECTRUM TYPE>  (1558) 
MS1

>  <INSTRUMENT TYPE>  (1558) 
EI-B

>  <INSTRUMENT>  (1558) 
JEOL JMS-D-300

>  <ION MODE>  (1558) 
P

>  <INCHIKEY>  (1558) 
UWRGONHVPULUGX-UHFFFAOYSA-N

>  <FORMULA>  (1558) 
C10H22O4

>  <EXACT MASS>  (1558) 
206.151809184

>  <MW>  (1558) 
206

>  <ID>  (1558) 
JP009860

>  <CONTRIBUTOR>  (1558) 
University of Tokyo Team, {Faculty of Engineering, University of Tokyo

>  <COMMENT>  (1558) 
SMILES=OCC(O)C(C)(O)CCCC(C)(C)O
InChI=InChI=1S/C10H22O4/c1-9(2,13)5-4-6-10(3,14)8(12)7-11/h8,11-14H,4-7H2,1-3H3
computed SMILES=OCC(O)C(O)(C)CCCC(O)(C)C
accession=JP009860
date=2016.01.19 (Created 2008.10.21, modified 2011.05.06)
author=KURARAY CO., LTD.
license=CC BY-NC-SA
exact mass=206.15181
ionization energy=70 eV
ion type=[M]+*
computed spectral entropy=3.175578880485852
computed normalized entropy=0.7888947660883505
SPLASH=splash10-0a4l-9200000000-69380db1f702f0bcc32c
submitter=submitter = University of Tokyo Team (Faculty of Engineering, University of Tokyo)
MoNA Rating=3.75

>  <NUM PEAKS>  (1558) 
56

>  <MASS SPECTRAL PEAKS>  (1558) 
27 5.1
29 7.6
31 10.9
39 0.53
41 24.2
42 4.7
43 99.99
44 0.64
45 5.7
53 3.3
55 18.8
56 1.24
57 10.5
58 31
59 79.1
60 3.02
61 3.1
67 6
68 3.1
69 7.12
70 10.1
71 62.6
72 20
73 0.29
81 5.6
82 3.1
83 9.3
84 0.59
85 6.2
86 3.1
87 4.2
88 0.25
93 4.7
94 2.5
95 12.4
96 0.31
97 7.1
98 2.3
99 4
100 0.5
101 2.9
105 4
106 3.1
107 0.23
108 5
109 52.7
110 7.3
111 1.46
112 8.2
113 4.5
116 8.4
117 0.47
127 22.5
128 3.1
129 4.3
153 3.4

$$$$

     RDKit          2D

 15 14  0  0  0  0  0  0  0  0999 V2000
    3.5724    6.5625    0.0000 C   0  0  0  0  0  0  0  0  0  0  0  0
  -10.7171    7.3125    0.0000 C   0  0  0  0  0  0  0  0  0  0  0  0
   -9.4180    5.0625    0.0000 C   0  0  0  0  0  0  0  0  0  0  0  0
    0.9743    5.0625    0.0000 C   0  0  0  0  0  0  0  0  0  0  0  0
   -4.2219    5.0625    0.0000 C   0  0  0  0  0  0  0  0  0  0  0  0
    2.2733    7.3125    0.0000 C   0  0  0  0  0  0  0  0  0  0  0  0
   -6.8200    6.5625    0.0000 C   0  0  0  0  0  0  0  0  0  0  0  0
   -1.6238    6.5625    0.0000 C   0  0  0  0  0  0  0  0  0  0  0  0
   -8.1190    7.3125    0.0000 C   0  0  0  0  0  0  0  0  0  0  0  0
   -0.3248    7.3125    0.0000 C   0  0  0  0  0  0  0  0  0  0  0  0
   -5.5209    7.3125    0.0000 C   0  0  0  0  0  0  0  0  0  0  0  0
   -2.9228    7.3125    0.0000 C   0  0  0  0  0  0  0  0  0  0  0  0
   -9.4180    6.5625    0.0000 C   0  0  0  0  0  0  0  0  0  0  0  0
    0.9743    6.5625    0.0000 C   0  0  0  0  0  0  0  0  0  0  0  0
   -4.2219    6.5625    0.0000 C   0  0  0  0  0  0  0  0  0  0  0  0
  6  1  2  0
  9  7  1  0
 10  8  1  0
 11  7  1  0
 12  8  1  0
 13  2  1  0
 13  3  1  0
 13  9  2  0
 14  4  2  0
 14  6  1  0
 14 10  1  0
 15  5  1  0
 15 11  1  0
 12 15  2  0
M  END
>  <NAME>  (1559) 
(E)-BETA-FARNESENE

>  <SYNONYMS>  (1559) 
7,11-DIMETHYL-3-METHYLENE-1,6,10-DODECATRIENE

>  <SPECTRUM TYPE>  (1559) 
MS1

>  <INSTRUMENT TYPE>  (1559) 
EI-B

>  <INSTRUMENT>  (1559) 
JEOL JMS-D-300

>  <ION MODE>  (1559) 
P

>  <INCHIKEY>  (1559) 
JSNRRGGBADWTMC-NTCAYCPXSA-N

>  <FORMULA>  (1559) 
C15H24

>  <EXACT MASS>  (1559) 
204.187800768

>  <MW>  (1559) 
204

>  <ID>  (1559) 
JP009859

>  <CONTRIBUTOR>  (1559) 
University of Tokyo Team, {Faculty of Engineering, University of Tokyo

>  <COMMENT>  (1559) 
SMILES=C=CC(=C)CCC([H])=C(C)CCC=C(C)C
InChI=InChI=1S/C15H24/c1-6-14(4)10-8-12-15(5)11-7-9-13(2)3/h6,9,12H,1,4,7-8,10-11H2,2-3,5H3/b15-12+
computed SMILES=C=CC(=C)CCC=C(C)CCC=C(C)C
accession=JP009859
date=2016.01.19 (Created 2008.10.21, modified 2011.05.06)
author=KURARAY CO., LTD.
license=CC BY-NC-SA
exact mass=204.1878
ionization energy=70 eV
ion type=[M]+*
computed spectral entropy=2.994193890480879
computed normalized entropy=0.7471786727180214
SPLASH=splash10-014l-9100000000-f65ac7d94ccd703ca91d
submitter=submitter = University of Tokyo Team (Faculty of Engineering, University of Tokyo)
MoNA Rating=3.75

>  <NUM PEAKS>  (1559) 
55

>  <MASS SPECTRAL PEAKS>  (1559) 
27 4.6
28 1.5
29 4.8
39 0.74
40 1.5
41 49.6
42 2.1
43 0.61
51 1.3
53 7.9
55 18
56 0.15
57 4.2
65 3.2
67 16.8
68 0.55
69 99.99
70 6.3
71 3.2
77 0.74
78 1.2
79 18
80 3.3
81 2.2
82 7.7
83 1.4
91 10.2
92 0.64
93 55.3
94 8.4
95 6.3
105 0.56
106 2.2
107 8.5
108 1.5
109 0.79
110 1
111 2.1
119 7.4
120 1.58
121 6.8
122 1.5
123 1.5
133 2.36
134 4.9
135 4.4
136 1.4
137 0.12
147 2.8
148 3.2
161 11.9
162 0.23
189 2
204 8.7
205 1.4

$$$$

     RDKit          2D

 15 15  0  0  0  0  0  0  0  0999 V2000
   -5.6729    3.3957    0.0000 C   0  0  0  0  0  0  0  0  0  0  0  0
   -4.3738    1.1457    0.0000 C   0  0  0  0  0  0  0  0  0  0  0  0
    0.4875    4.5448    0.0000 C   0  0  0  0  0  0  0  0  0  0  0  0
    3.4204    1.1457    0.0000 C   0  0  0  0  0  0  0  0  0  0  0  0
    3.4209    2.6465    0.0000 C   0  0  0  0  0  0  0  0  0  0  0  0
    2.1209    0.3949    0.0000 C   0  0  0  0  0  0  0  0  0  0  0  0
    2.1218    3.3965    0.0000 C   0  0  0  0  0  0  0  0  0  0  0  0
    0.8218    1.1449    0.0000 C   0  0  0  0  0  0  0  0  0  0  0  0
   -3.0748    3.3957    0.0000 C   0  0  0  0  0  0  0  0  0  0  0  0
   -1.7758    2.6457    0.0000 C   0  0  0  0  0  0  0  0  0  0  0  0
   -1.4409    4.5448    0.0000 C   0  0  0  0  0  0  0  0  0  0  0  0
   -4.3738    2.6457    0.0000 C   0  0  0  0  0  0  0  0  0  0  0  0
    0.8223    2.6457    0.0000 C   0  0  0  0  0  0  0  0  0  0  0  0
   -0.4767    3.3957    0.0000 C   0  0  0  0  0  0  0  0  0  0  0  0
   -0.9279    5.9543    0.0000 O   0  0  0  0  0  0  0  0  0  0  0  0
  5  4  2  0
  6  4  1  0
  7  5  1  0
  8  6  2  0
 10  9  1  0
 12  1  1  0
 12  2  1  0
 12  9  2  0
 13  7  2  0
 13  8  1  0
 14  3  1  0
 14 10  1  0
 14 11  1  0
 14 13  1  0
 15 11  1  0
M  END
>  <NAME>  (1560) 
2,5-DIMETHYL-2-PHENYL-4-HEXEN-1-OL

>  <SYNONYMS>  (1560) 


>  <SPECTRUM TYPE>  (1560) 
MS1

>  <INSTRUMENT TYPE>  (1560) 
EI-B

>  <INSTRUMENT>  (1560) 
JEOL JMS-D-300

>  <ION MODE>  (1560) 
P

>  <INCHIKEY>  (1560) 
ZIIUMKBETGSXRY-UHFFFAOYSA-N

>  <FORMULA>  (1560) 
C14H20O

>  <EXACT MASS>  (1560) 
204.15141526

>  <MW>  (1560) 
204

>  <ID>  (1560) 
JP009858

>  <CONTRIBUTOR>  (1560) 
University of Tokyo Team, {Faculty of Engineering, University of Tokyo

>  <COMMENT>  (1560) 
SMILES=CC(C)=CCC(C)(CO)c(c1)cccc1
InChI=InChI=1S/C14H20O/c1-12(2)9-10-14(3,11-15)13-7-5-4-6-8-13/h4-9,15H,10-11H2,1-3H3
computed SMILES=OCC(C=1C=CC=CC1)(C)CC=C(C)C
accession=JP009858
date=2016.01.19 (Created 2008.10.21, modified 2011.05.06)
author=KURARAY CO., LTD.
license=CC BY-NC-SA
exact mass=204.15142
ionization energy=70 eV
ion type=[M]+*
computed spectral entropy=2.6051436352573254
computed normalized entropy=0.7269791732647299
SPLASH=splash10-000i-4900000000-710397bfcb56ed24835a
submitter=submitter = University of Tokyo Team (Faculty of Engineering, University of Tokyo)
MoNA Rating=3.75

>  <NUM PEAKS>  (1560) 
36

>  <MASS SPECTRAL PEAKS>  (1560) 
27 2.6
29 5.8
31 1.4
39 0.29
41 10.3
43 26.7
44 1.5
51 0.19
53 2.4
55 2.7
56 23.2
57 0.14
65 1.7
67 1
69 7.7
70 0.48
77 6.8
78 3.1
79 2.7
91 1.4
93 8.2
103 3.9
105 6
115 0.68
116 1.9
117 30.4
118 8.5
128 0.21
129 2.1
131 8.5
134 29.4
135 99.99
136 10.1
143 2.2
173 1.9
204 1

$$$$

     RDKit          2D

 15 15  0  0  0  0  0  0  0  0999 V2000
   -1.2990    3.7500    0.0000 C   0  0  0  0  0  0  0  0  0  0  0  0
    2.5987   -3.0002    0.0000 C   0  0  0  0  0  0  0  0  0  0  0  0
   -3.8981   -0.7504    0.0000 C   0  0  0  0  0  0  0  0  0  0  0  0
    1.3000    0.7500    0.0000 C   0  0  0  0  0  0  0  0  0  0  0  0
   -1.3000    0.7500    0.0000 C   0  0  0  0  0  0  0  0  0  0  0  0
    0.0000   -1.5000    0.0000 C   0  0  0  0  0  0  0  0  0  0  0  0
    0.0000    3.0000    0.0000 C   0  0  0  0  0  0  0  0  0  0  0  0
    2.5989   -1.5002    0.0000 C   0  0  0  0  0  0  0  0  0  0  0  0
   -2.5989   -1.5002    0.0000 C   0  0  0  0  0  0  0  0  0  0  0  0
    0.0000    1.5000    0.0000 C   0  0  0  0  0  0  0  0  0  0  0  0
    1.3000   -0.7500    0.0000 C   0  0  0  0  0  0  0  0  0  0  0  0
   -1.3000   -0.7500    0.0000 C   0  0  0  0  0  0  0  0  0  0  0  0
    1.2990    3.7500    0.0000 O   0  0  0  0  0  0  0  0  0  0  0  0
    3.8981   -0.7504    0.0000 O   0  0  0  0  0  0  0  0  0  0  0  0
   -2.5987   -3.0002    0.0000 O   0  0  0  0  0  0  0  0  0  0  0  0
  7  1  1  0
  8  2  1  0
  9  3  1  0
 10  4  2  0
 10  5  1  0
 10  7  1  0
 11  4  1  0
 11  6  2  0
 11  8  1  0
 12  5  2  0
 12  6  1  0
 12  9  1  0
 13  7  2  0
 14  8  2  0
 15  9  2  0
M  END
>  <NAME>  (1561) 
1,3,5-TRIACETYLBENZENE

>  <SYNONYMS>  (1561) 


>  <SPECTRUM TYPE>  (1561) 
MS1

>  <INSTRUMENT TYPE>  (1561) 
EI-B

>  <INSTRUMENT>  (1561) 
JEOL JMS-D-300

>  <ION MODE>  (1561) 
P

>  <INCHIKEY>  (1561) 
HSOAIPRTHLEQFI-UHFFFAOYSA-N

>  <FORMULA>  (1561) 
C12H12O3

>  <EXACT MASS>  (1561) 
204.07864424399997

>  <MW>  (1561) 
204

>  <ID>  (1561) 
JP009857

>  <CONTRIBUTOR>  (1561) 
University of Tokyo Team, {Faculty of Engineering, University of Tokyo

>  <COMMENT>  (1561) 
SMILES=CC(=O)c(c1)cc(C(C)=O)cc(C(C)=O)1
InChI=InChI=1S/C12H12O3/c1-7(13)10-4-11(8(2)14)6-12(5-10)9(3)15/h4-6H,1-3H3
computed SMILES=O=C(C=1C=C(C=C(C1)C(=O)C)C(=O)C)C
accession=JP009857
date=2016.01.19 (Created 2008.10.21, modified 2011.05.06)
author=KURARAY CO., LTD.
license=CC BY-NC-SA
exact mass=204.07864
ionization energy=70 eV
ion type=[M]+*
computed spectral entropy=1.9418156885149094
computed normalized entropy=0.5959969773314636
SPLASH=splash10-000l-5910000000-931da0629dba7e732123
submitter=submitter = University of Tokyo Team (Faculty of Engineering, University of Tokyo)
MoNA Rating=3.75

>  <NUM PEAKS>  (1561) 
26

>  <MASS SPECTRAL PEAKS>  (1561) 
28 3.1
39 1
43 53.8
44 0.15
50 1.4
51 1
63 1.4
65 0.13
74 2
75 5.8
76 2.8
77 0.23
89 1.4
91 5.6
103 1.4
118 0.42
119 8.9
146 2
147 1.8
161 1.96
162 3.4
189 99.99
190 12.7
191 0.14
204 16.6
205 2.5

$$$$

     RDKit          2D

 13 12  0  0  0  0  0  0  0  0999 V2000
    3.2476    5.6250    0.0000 C   0  0  0  0  0  0  0  0  0  0  0  0
   -5.8457    7.8750    0.0000 C   0  0  0  0  0  0  0  0  0  0  0  0
   -0.6495    7.8750    0.0000 C   0  0  0  0  0  0  0  0  0  0  0  0
    1.9486    6.3750    0.0000 C   0  0  0  0  0  0  0  0  0  0  0  0
   -7.1447    5.6250    0.0000 C   0  0  0  0  0  0  0  0  0  0  0  0
   -4.5466    5.6250    0.0000 C   0  0  0  0  0  0  0  0  0  0  0  0
   -8.4437    6.3750    0.0000 C   0  0  0  0  0  0  0  0  0  0  0  0
   -3.2476    6.3750    0.0000 C   0  0  0  0  0  0  0  0  0  0  0  0
   -5.8457    6.3750    0.0000 C   0  0  0  0  0  0  0  0  0  0  0  0
   -0.6495    6.3750    0.0000 C   0  0  0  0  0  0  0  0  0  0  0  0
   -9.7428    5.6250    0.0000 Cl  0  0  0  0  0  0  0  0  0  0  0  0
    0.6495    5.6250    0.0000 O   0  0  0  0  0  0  0  0  0  0  0  0
   -1.9486    5.6250    0.0000 O   0  0  0  0  0  0  0  0  0  0  0  0
  4  1  1  0
  5  7  2  0
  8  6  1  0
  9  2  1  0
  9  5  1  0
  6  9  2  0
 10  3  1  0
 11  7  1  0
 12  4  1  0
 12 10  1  0
 13  8  1  0
 13 10  1  0
M  END
>  <NAME>  (1562) 
1-CHLORO-5-(1-ETHOXY)ETHOXY-3-METHYL-1,3-PENTADIENE

>  <SYNONYMS>  (1562) 


>  <SPECTRUM TYPE>  (1562) 
MS1

>  <INSTRUMENT TYPE>  (1562) 
EI-B

>  <INSTRUMENT>  (1562) 
JEOL JMS-D-300

>  <ION MODE>  (1562) 
P

>  <INCHIKEY>  (1562) 
XJDHKKWKOPKDMF-PDTNFJSOSA-N

>  <FORMULA>  (1562) 
C10H17ClO2

>  <EXACT MASS>  (1562) 
204.091707464

>  <MW>  (1562) 
204

>  <ID>  (1562) 
JP009856

>  <CONTRIBUTOR>  (1562) 
University of Tokyo Team, {Faculty of Engineering, University of Tokyo

>  <COMMENT>  (1562) 
SMILES=CCOC(C)OCC=C(C)C=CCl
InChI=InChI=1S/C10H17ClO2/c1-4-12-10(3)13-8-6-9(2)5-7-11/h5-7,10H,4,8H2,1-3H3/b7-5+,9-6+
computed SMILES=ClC=CC(=CCOC(OCC)C)C
ion type=[M]+*
accession=JP009856
date=2016.01.19 (Created 2008.10.21, modified 2011.05.06)
author=KURARAY CO., LTD.
license=CC BY-NC-SA
exact mass=204.09171
ionization energy=70 eV
computed spectral entropy=2.591694111577527
computed normalized entropy=0.6848742696052499
SPLASH=splash10-00r2-9200000000-62e1e257b9640a5fd9aa
submitter=submitter = University of Tokyo Team (Faculty of Engineering, University of Tokyo)
MoNA Rating=3.75

>  <NUM PEAKS>  (1562) 
44

>  <MASS SPECTRAL PEAKS>  (1562) 
27 6.5
28 1.5
29 7.3
31 0.3
36 1.1
39 5.8
41 5.3
42 0.11
43 10
44 6.5
45 99.99
46 0.28
50 1.2
51 4.9
52 1.8
53 0.55
63 1.3
65 3.5
67 2.8
69 0.14
72 3.2
73 97
74 4.9
75 0.42
77 11.7
78 1.9
79 19.7
80 0.36
81 5.6
95 2.5
96 3.7
97 1.2
115 42.7
116 7.4
117 14.4
118 0.23
123 4.6
125 13.7
126 1.1
143 0.14
145 1.1
158 1.4
160 3.2
162 1

$$$$

     RDKit          2D

 12 12  0  0  0  0  0  0  0  0999 V2000
   -0.6150   -0.0187    0.0000 C   0  0  0  0  0  0  0  0  0  0  0  0
    0.6840   -0.7687    0.0000 C   0  0  0  0  0  0  0  0  0  0  0  0
    0.6850    2.2330    0.0000 C   0  0  0  0  0  0  0  0  0  0  0  0
   -0.6145    1.4821    0.0000 C   0  0  0  0  0  0  0  0  0  0  0  0
    1.9835   -0.0179    0.0000 C   0  0  0  0  0  0  0  0  0  0  0  0
    1.9840    1.4830    0.0000 C   0  0  0  0  0  0  0  0  0  0  0  0
   -3.2126    1.4821    0.0000 C   0  0  0  0  0  0  0  0  0  0  0  0
    3.2826   -0.7679    0.0000 Cl  0  0  0  0  0  0  0  0  0  0  0  0
    3.2832    2.2328    0.0000 Cl  0  0  0  0  0  0  0  0  0  0  0  0
   -4.5117    2.2321    0.0000 N   0  0  0  0  0  0  0  0  0  0  0  0
   -1.9136    2.2321    0.0000 N   0  0  0  0  0  0  0  0  0  0  0  0
   -3.2126   -0.0179    0.0000 O   0  0  0  0  0  0  0  0  0  0  0  0
  2  1  2  0
  4  1  1  0
  4  3  2  0
  5  2  1  0
  6  3  1  0
  6  5  2  0
  8  5  1  0
  9  6  1  0
 10  7  2  0
 11  4  1  0
 11  7  1  0
 12  7  1  0
M  END
>  <NAME>  (1563) 
1-(3,4-DICHLOROPHENYL)UREA

>  <SYNONYMS>  (1563) 


>  <SPECTRUM TYPE>  (1563) 
MS1

>  <INSTRUMENT TYPE>  (1563) 
EI-B

>  <INSTRUMENT>  (1563) 
JEOL JMS-D-300

>  <ION MODE>  (1563) 
P

>  <INCHIKEY>  (1563) 
CYESCLHCWJKRKM-UHFFFAOYSA-N

>  <FORMULA>  (1563) 
C7H6Cl2N2O

>  <EXACT MASS>  (1563) 
203.985718172

>  <MW>  (1563) 
204

>  <ID>  (1563) 
JP009855

>  <CONTRIBUTOR>  (1563) 
University of Tokyo Team, {Faculty of Engineering, University of Tokyo

>  <COMMENT>  (1563) 
SMILES=NC(=O)Nc(c1)cc(Cl)c(Cl)c1
InChI=InChI=1S/C7H6Cl2N2O/c8-5-2-1-4(3-6(5)9)11-7(10)12/h1-3H,(H3,10,11,12)
computed SMILES=ClC1=CC=C(C=C1Cl)NC(=N)O
accession=JP009855
date=2016.01.19 (Created 2008.10.21, modified 2011.05.06)
author=KURARAY CO., LTD.
license=CC BY-NC-SA
exact mass=203.98572
ionization energy=70 eV
ion type=[M]+*
computed spectral entropy=2.5729450205923245
computed normalized entropy=0.6799196841328011
SPLASH=splash10-03di-2900000000-91d498a104c598a75303
submitter=submitter = University of Tokyo Team (Faculty of Engineering, University of Tokyo)
MoNA Rating=3.75

>  <NUM PEAKS>  (1563) 
44

>  <MASS SPECTRAL PEAKS>  (1563) 
28 2
43 1.6
44 8.1
52 0.13
61 1.6
62 4.1
63 7.1
64 0.18
72 1.3
73 4.4
74 1.8
75 0.22
88 1.4
89 1.6
90 9.2
91 0.25
97 2.1
98 1.8
99 10
100 0.13
101 3.5
109 1.5
124 3.9
125 0.6
126 10.2
127 2.8
128 3.2
133 0.49
134 3.9
135 3.4
136 2.5
160 0.21
161 99.99
162 64.5
163 4.6
164 1.04
165 8.3
187 3.5
189 2.3
204 2.36
205 2.5
206 15
207 1.3
208 2.6

$$$$

     RDKit          2D

 15 15  0  0  0  0  0  0  0  0999 V2000
    5.5216    4.2579    0.0000 C   0  0  0  0  0  0  0  0  0  0  0  0
    4.2226    5.0079    0.0000 C   0  0  0  0  0  0  0  0  0  0  0  0
   -2.2726    4.2579    0.0000 C   0  0  0  0  0  0  0  0  0  0  0  0
   -0.9736    5.0079    0.0000 C   0  0  0  0  0  0  0  0  0  0  0  0
   -8.7678    6.5079    0.0000 C   0  0  0  0  0  0  0  0  0  0  0  0
   -3.5716    5.0079    0.0000 C   0  0  0  0  0  0  0  0  0  0  0  0
   -8.7683    5.0071    0.0000 C   0  0  0  0  0  0  0  0  0  0  0  0
   -7.4683    7.2587    0.0000 C   0  0  0  0  0  0  0  0  0  0  0  0
    0.3255    4.2579    0.0000 C   0  0  0  0  0  0  0  0  0  0  0  0
   -4.8707    4.2579    0.0000 C   0  0  0  0  0  0  0  0  0  0  0  0
   -7.4692    4.2571    0.0000 C   0  0  0  0  0  0  0  0  0  0  0  0
   -6.1692    6.5087    0.0000 C   0  0  0  0  0  0  0  0  0  0  0  0
    1.6245    5.0079    0.0000 C   0  0  0  0  0  0  0  0  0  0  0  0
   -6.1697    5.0079    0.0000 C   0  0  0  0  0  0  0  0  0  0  0  0
    2.9236    4.2579    0.0000 O   0  0  0  0  0  0  0  0  0  0  0  0
  2  1  2  0
  4  3  1  0
  6  3  1  0
  7  5  2  0
  8  5  1  0
  4  9  2  0
 10  6  1  0
 11  7  1  0
 12  8  2  0
 13  9  1  0
 14 10  1  0
 14 11  2  0
 14 12  1  0
 15  2  1  0
 15 13  1  0
M  END
>  <NAME>  (1564) 
6-PHENYL-2-HEXENYL VINYL ETHER

>  <SYNONYMS>  (1564) 
6-PHENYL-1-ETHENOXY-2-HEXENE

>  <SPECTRUM TYPE>  (1564) 
MS1

>  <INSTRUMENT TYPE>  (1564) 
EI-B

>  <INSTRUMENT>  (1564) 
JEOL JMS-D-300

>  <ION MODE>  (1564) 
P

>  <INCHIKEY>  (1564) 
LQIXWNQKGOAZAI-RUDMXATFSA-N

>  <FORMULA>  (1564) 
C14H18O

>  <EXACT MASS>  (1564) 
202.135765196

>  <MW>  (1564) 
202

>  <ID>  (1564) 
JP009854

>  <CONTRIBUTOR>  (1564) 
University of Tokyo Team, {Faculty of Engineering, University of Tokyo

>  <COMMENT>  (1564) 
SMILES=C=COCC=CCCCc(c1)cccc1
InChI=InChI=1S/C14H18O/c1-2-15-13-9-4-3-6-10-14-11-7-5-8-12-14/h2,4-5,7-9,11-12H,1,3,6,10,13H2/b9-4+
computed SMILES=O(C=C)CC=CCCCC=1C=CC=CC1
accession=JP009854
date=2016.01.19 (Created 2008.10.21, modified 2011.05.06)
author=KURARAY CO., LTD.
license=CC BY-NC-SA
exact mass=202.13577
ionization energy=70 eV
ion type=[M]+*
computed spectral entropy=1.9058807785574121
computed normalized entropy=0.6472814658556653
SPLASH=splash10-052f-9400000000-2a0e4c54e4ee89bee850
submitter=submitter = University of Tokyo Team (Faculty of Engineering, University of Tokyo)
MoNA Rating=3.75

>  <NUM PEAKS>  (1564) 
19

>  <MASS SPECTRAL PEAKS>  (1564) 
29 1.6
41 1.1
55 3.3
57 0.16
65 2.3
67 5.9
77 3.1
79 0.22
81 18.6
91 99.99
92 8.8
101 0.14
105 3.4
115 5.2
117 10.9
129 0.23
158 13.8
159 36.9
160 4.7

$$$$

     RDKit          2D

 14 13  0  0  0  0  0  0  0  0999 V2000
   -8.7685    6.1875    0.0000 C   0  0  0  0  0  0  0  0  0  0  0  0
   -7.4695    3.9375    0.0000 C   0  0  0  0  0  0  0  0  0  0  0  0
   -2.2733    3.9375    0.0000 C   0  0  0  0  0  0  0  0  0  0  0  0
    4.2219    6.1875    0.0000 C   0  0  0  0  0  0  0  0  0  0  0  0
   -4.8714    5.4375    0.0000 C   0  0  0  0  0  0  0  0  0  0  0  0
    0.3248    5.4375    0.0000 C   0  0  0  0  0  0  0  0  0  0  0  0
   -6.1704    6.1875    0.0000 C   0  0  0  0  0  0  0  0  0  0  0  0
   -3.5724    6.1875    0.0000 C   0  0  0  0  0  0  0  0  0  0  0  0
   -0.9743    6.1875    0.0000 C   0  0  0  0  0  0  0  0  0  0  0  0
    1.6238    6.1875    0.0000 C   0  0  0  0  0  0  0  0  0  0  0  0
   -7.4695    5.4375    0.0000 C   0  0  0  0  0  0  0  0  0  0  0  0
   -2.2733    5.4375    0.0000 C   0  0  0  0  0  0  0  0  0  0  0  0
    2.9228    5.4375    0.0000 C   0  0  0  0  0  0  0  0  0  0  0  0
    2.9228    3.9375    0.0000 O   0  0  0  0  0  0  0  0  0  0  0  0
  7  5  1  0
  8  5  1  0
  9  6  1  0
 10  6  1  0
 11  1  1  0
 11  2  1  0
 11  7  1  0
 12  3  1  0
 12  8  1  0
 12  9  1  0
 13  4  1  0
 13 10  1  0
 14 13  1  0
M  END
>  <NAME>  (1565) 
6,10-DIMETHYL-2-UNDECANOL

>  <SYNONYMS>  (1565) 


>  <SPECTRUM TYPE>  (1565) 
MS1

>  <INSTRUMENT TYPE>  (1565) 
EI-B

>  <INSTRUMENT>  (1565) 
JEOL JMS-D-300

>  <ION MODE>  (1565) 
P

>  <INCHIKEY>  (1565) 
GNJORAZPXCKMSY-UHFFFAOYSA-N

>  <FORMULA>  (1565) 
C13H28O

>  <EXACT MASS>  (1565) 
200.21401551600002

>  <MW>  (1565) 
200

>  <ID>  (1565) 
JP009853

>  <CONTRIBUTOR>  (1565) 
University of Tokyo Team, {Faculty of Engineering, University of Tokyo

>  <COMMENT>  (1565) 
SMILES=CC(C)CCCC(C)CCCC(C)O
InChI=InChI=1S/C13H28O/c1-11(2)7-5-8-12(3)9-6-10-13(4)14/h11-14H,5-10H2,1-4H3
computed SMILES=OC(C)CCCC(C)CCCC(C)C
accession=JP009853
date=2016.01.19 (Created 2008.10.21, modified 2011.05.06)
author=KURARAY CO., LTD.
license=CC BY-NC-SA
exact mass=200.21402
ionization energy=70 eV
ion type=[M]+*
computed spectral entropy=2.8839216404472636
computed normalized entropy=0.7871906955609632
SPLASH=splash10-0592-9000000000-65e4a885e6f6bf9f1769
submitter=submitter = University of Tokyo Team (Faculty of Engineering, University of Tokyo)
MoNA Rating=3.75

>  <NUM PEAKS>  (1565) 
39

>  <MASS SPECTRAL PEAKS>  (1565) 
27 7
29 12.8
39 4.7
41 2.72
42 10.4
43 47.4
44 6.1
45 99.99
46 2.3
55 53.3
56 45.1
57 6.19
58 5
59 2.6
67 2.5
68 0.33
69 43.2
70 38.9
71 38.9
72 0.2
81 3.3
83 18.7
84 13.4
85 0.95
87 2.2
95 1.4
96 6.2
97 3.58
98 8.2
99 1.6
111 14.3
112 1.85
113 6.7
125 2.8
126 14
127 0.3
140 2.5
182 1.9
185 1

$$$$

     RDKit          2D

 13 13  0  0  0  0  0  0  0  0999 V2000
    2.5989   -0.3984    0.0000 C   0  0  0  0  0  0  0  0  0  0  0  0
   -6.4962   -2.6494    0.0000 C   0  0  0  0  0  0  0  0  0  0  0  0
    1.2998    0.3514    0.0000 C   0  0  0  0  0  0  0  0  0  0  0  0
   -3.8972   -2.6492    0.0000 C   0  0  0  0  0  0  0  0  0  0  0  0
   -5.1972   -0.3992    0.0000 C   0  0  0  0  0  0  0  0  0  0  0  0
   -2.5972   -1.8992    0.0000 C   0  0  0  0  0  0  0  0  0  0  0  0
   -3.8972    0.3508    0.0000 C   0  0  0  0  0  0  0  0  0  0  0  0
   -5.1972   -1.8992    0.0000 C   0  0  0  0  0  0  0  0  0  0  0  0
   -2.5972   -0.3992    0.0000 C   0  0  0  0  0  0  0  0  0  0  0  0
    0.0008   -0.3988    0.0000 N   0  0  0  0  0  0  0  0  0  0  0  0
   -0.3343    1.5002    0.0000 O   0  0  0  0  0  0  0  0  0  0  0  0
   -2.2627    1.4999    0.0000 O   0  0  0  0  0  0  0  0  0  0  0  0
   -1.2983    0.3510    0.0000 S   0  0  0  0  0  0  0  0  0  0  0  0
  3  1  1  0
  6  4  2  0
  7  5  1  0
  8  2  1  0
  8  4  1  0
  8  5  2  0
  9  6  1  0
  9  7  2  0
 10  3  1  0
 13  9  1  0
 13 10  1  0
 13 11  2  0
 13 12  2  0
M  END
>  <NAME>  (1566) 
N-ETHYL-PARA-TOLUENESULFONAMIDE

>  <SYNONYMS>  (1566) 


>  <SPECTRUM TYPE>  (1566) 
MS1

>  <INSTRUMENT TYPE>  (1566) 
EI-B

>  <INSTRUMENT>  (1566) 
JEOL JMS-D-300

>  <ION MODE>  (1566) 
P

>  <INCHIKEY>  (1566) 
OHPZPBNDOVQJMH-UHFFFAOYSA-N

>  <FORMULA>  (1566) 
C9H13NO2S

>  <EXACT MASS>  (1566) 
199.066699656

>  <MW>  (1566) 
199

>  <ID>  (1566) 
JP009852

>  <CONTRIBUTOR>  (1566) 
University of Tokyo Team, {Faculty of Engineering, University of Tokyo

>  <COMMENT>  (1566) 
SMILES=CCNS(=O)(=O)c(c1)ccc(C)c1
InChI=InChI=1S/C9H13NO2S/c1-3-10-13(11,12)9-6-4-8(2)5-7-9/h4-7,10H,3H2,1-2H3
computed SMILES=O=S(=O)(NCC)C1=CC=C(C=C1)C
accession=JP009852
date=2016.01.19 (Created 2008.10.21, modified 2011.05.06)
author=KURARAY CO., LTD.
license=CC BY-NC-SA
exact mass=199.0667
ionization energy=70 eV
ion type=[M]+*
computed spectral entropy=2.375817404583587
computed normalized entropy=0.738089175801265
SPLASH=splash10-0006-9200000000-11d8300a231f9d807dc8
submitter=submitter = University of Tokyo Team (Faculty of Engineering, University of Tokyo)
MoNA Rating=3.75

>  <NUM PEAKS>  (1566) 
25

>  <MASS SPECTRAL PEAKS>  (1566) 
27 2.8
28 3.9
29 1.7
30 0.2
39 16.3
41 6.3
42 2.3
43 0.52
44 29.5
51 6.4
59 3.6
63 0.94
64 4.2
65 33.8
77 5.2
89 0.88
90 19.1
91 99.99
92 12.5
106 0.36
120 5.9
136 2.8
155 35.5
184 1.53
199 14.1

$$$$

     RDKit          2D

 15 16  0  0  0  0  0  0  0  0999 V2000
    3.8971    1.0700    0.0000 C   0  0  0  0  0  0  0  0  0  0  0  0
   -5.1962    4.8200    0.0000 C   0  0  0  0  0  0  0  0  0  0  0  0
    3.8976    2.5708    0.0000 C   0  0  0  0  0  0  0  0  0  0  0  0
    2.5976    0.3192    0.0000 C   0  0  0  0  0  0  0  0  0  0  0  0
   -5.1966    3.3192    0.0000 C   0  0  0  0  0  0  0  0  0  0  0  0
   -3.8966    5.5708    0.0000 C   0  0  0  0  0  0  0  0  0  0  0  0
    2.5986    3.3208    0.0000 C   0  0  0  0  0  0  0  0  0  0  0  0
    1.2986    1.0692    0.0000 C   0  0  0  0  0  0  0  0  0  0  0  0
   -3.8976    2.5692    0.0000 C   0  0  0  0  0  0  0  0  0  0  0  0
   -2.5976    4.8208    0.0000 C   0  0  0  0  0  0  0  0  0  0  0  0
    0.0000    3.3200    0.0000 C   0  0  0  0  0  0  0  0  0  0  0  0
    1.2990    2.5700    0.0000 C   0  0  0  0  0  0  0  0  0  0  0  0
   -2.5981    3.3200    0.0000 C   0  0  0  0  0  0  0  0  0  0  0  0
   -1.2990    2.5700    0.0000 C   0  0  0  0  0  0  0  0  0  0  0  0
   -1.2990    1.0700    0.0000 O   0  0  0  0  0  0  0  0  0  0  0  0
  3  1  2  0
  4  1  1  0
  5  2  2  0
  6  2  1  0
  7  3  1  0
  8  4  2  0
  9  5  1  0
 10  6  2  0
 12  7  2  0
 12  8  1  0
 12 11  1  0
 13  9  2  0
 13 10  1  0
 14 11  1  0
 14 13  1  0
 15 14  1  0
M  END
>  <NAME>  (1567) 
1,2-DIPHENYLETHANOL

>  <SYNONYMS>  (1567) 


>  <SPECTRUM TYPE>  (1567) 
MS1

>  <INSTRUMENT TYPE>  (1567) 
EI-B

>  <INSTRUMENT>  (1567) 
JEOL JMS-D-300

>  <ION MODE>  (1567) 
P

>  <INCHIKEY>  (1567) 
GBGXVCNOKWAMIP-UHFFFAOYSA-N

>  <FORMULA>  (1567) 
C14H14O

>  <EXACT MASS>  (1567) 
198.104465068

>  <MW>  (1567) 
198

>  <ID>  (1567) 
JP009851

>  <CONTRIBUTOR>  (1567) 
University of Tokyo Team, {Faculty of Engineering, University of Tokyo

>  <COMMENT>  (1567) 
SMILES=OC(Cc(c2)cccc2)c(c1)cccc1
InChI=InChI=1S/C14H14O/c15-14(13-9-5-2-6-10-13)11-12-7-3-1-4-8-12/h1-10,14-15H,11H2
computed SMILES=OC(C=1C=CC=CC1)CC=2C=CC=CC2
ionization energy=70 eV
accession=JP009851
date=2016.01.19 (Created 2008.10.21, modified 2011.05.06)
author=KURARAY CO., LTD.
license=CC BY-NC-SA
exact mass=198.10447
ion type=[M]+*
computed spectral entropy=2.750473176176546
computed normalized entropy=0.7143812291650617
SPLASH=splash10-0006-9200000000-f53c4d95c156dc60c84d
submitter=submitter = University of Tokyo Team (Faculty of Engineering, University of Tokyo)
MoNA Rating=3.75

>  <NUM PEAKS>  (1567) 
47

>  <MASS SPECTRAL PEAKS>  (1567) 
27 1.9
28 17.2
29 1.6
38 0.16
39 3.9
40 5
43 3.3
44 0.33
45 3.6
46 1.4
50 1.7
51 0.71
52 1.4
62 1.7
63 2.6
65 0.78
70 2.8
73 2.9
74 1.2
75 0.16
76 1.4
77 34.4
78 4.7
79 5.16
80 3.4
87 1.9
88 1.6
89 0.43
90 1.4
91 27.3
92 99.99
93 0.79
101 2.2
105 12.1
106 2.9
107 8.16
108 7.3
119 2.3
120 1.4
151 0.14
152 2.3
165 5.6
166 2.2
178 0.81
179 6.2
180 8.8
181 2.2

$$$$

     RDKit          2D

 13 13  0  0  0  0  0  0  0  0999 V2000
   -5.5207    3.1321    0.0000 C   0  0  0  0  0  0  0  0  0  0  0  0
    3.5726    0.8821    0.0000 C   0  0  0  0  0  0  0  0  0  0  0  0
    3.5731    2.3829    0.0000 C   0  0  0  0  0  0  0  0  0  0  0  0
    2.2731    0.1313    0.0000 C   0  0  0  0  0  0  0  0  0  0  0  0
    2.2740    3.1329    0.0000 C   0  0  0  0  0  0  0  0  0  0  0  0
    0.9740    0.8813    0.0000 C   0  0  0  0  0  0  0  0  0  0  0  0
   -0.3245    3.1321    0.0000 C   0  0  0  0  0  0  0  0  0  0  0  0
    0.9745    2.3821    0.0000 C   0  0  0  0  0  0  0  0  0  0  0  0
   -1.6236    2.3821    0.0000 C   0  0  0  0  0  0  0  0  0  0  0  0
   -2.9226    3.1321    0.0000 C   0  0  0  0  0  0  0  0  0  0  0  0
   -1.6236    0.8821    0.0000 Cl  0  0  0  0  0  0  0  0  0  0  0  0
   -2.9226    4.6321    0.0000 O   0  0  0  0  0  0  0  0  0  0  0  0
   -4.2216    2.3821    0.0000 O   0  0  0  0  0  0  0  0  0  0  0  0
  3  2  2  0
  4  2  1  0
  5  3  1  0
  6  4  2  0
  8  5  2  0
  8  6  1  0
  8  7  1  0
  9  7  1  0
 10  9  1  0
 11  9  1  0
 12 10  2  0
 13  1  1  0
 13 10  1  0
M  END
>  <NAME>  (1568) 
METHYL 2-CHLORO-3-PHENYLPROPANOATE

>  <SYNONYMS>  (1568) 
METHYL 2-CHLORO-3-PHENYLPROPIONATE

>  <SPECTRUM TYPE>  (1568) 
MS1

>  <INSTRUMENT TYPE>  (1568) 
EI-B

>  <INSTRUMENT>  (1568) 
JEOL JMS-D-300

>  <ION MODE>  (1568) 
P

>  <INCHIKEY>  (1568) 
DWKOUAHXOPJAHG-UHFFFAOYSA-N

>  <FORMULA>  (1568) 
C10H11ClO2

>  <EXACT MASS>  (1568) 
198.044757272

>  <MW>  (1568) 
198

>  <ID>  (1568) 
JP009850

>  <CONTRIBUTOR>  (1568) 
University of Tokyo Team, {Faculty of Engineering, University of Tokyo

>  <COMMENT>  (1568) 
SMILES=COC(=O)C(Cl)Cc(c1)cccc1
InChI=InChI=1S/C10H11ClO2/c1-13-10(12)9(11)7-8-5-3-2-4-6-8/h2-6,9H,7H2,1H3
computed SMILES=O=C(OC)C(Cl)CC=1C=CC=CC1
accession=JP009850
author=KURARAY CO., LTD.
date=2016.01.19 (Created 2008.10.21, modified 2011.05.06)
license=CC BY-NC-SA
exact mass=198.04476
ionization energy=70 eV
ion type=[M]+*
computed spectral entropy=2.6503964741472954
computed normalized entropy=0.7003868015469925
SPLASH=splash10-03dl-7900000000-b597ba3dd5e9ac796e72
submitter=submitter = University of Tokyo Team (Faculty of Engineering, University of Tokyo)
MoNA Rating=3.75

>  <NUM PEAKS>  (1568) 
44

>  <MASS SPECTRAL PEAKS>  (1568) 
27 3
29 1.3
36 1.3
38 0.1
39 4.9
41 1.3
50 5.1
51 1.51
52 3
55 1.3
59 4.9
62 0.11
63 3.5
65 7.8
74 1.6
75 0.24
76 2.4
77 18.8
78 6.9
79 0.1
89 1.7
91 99.99
92 8.9
101 0.12
102 4.7
103 33.6
104 7.3
105 0.14
117 1.9
121 2.1
130 1.3
131 8.11
132 9.5
138 1.5
139 11
140 0.13
141 3.5
144 1.1
147 1.9
161 0.93
162 65.5
163 53.5
164 5.8
167 1.7

$$$$

     RDKit          2D

 11 10  0  0  0  0  0  0  0  0999 V2000
   -3.2476    1.8750    0.0000 C   0  0  0  0  0  0  0  0  0  0  0  0
    1.9486    3.3750    0.0000 C   0  0  0  0  0  0  0  0  0  0  0  0
    0.6495    1.1250    0.0000 C   0  0  0  0  0  0  0  0  0  0  0  0
   -4.5466    4.1250    0.0000 C   0  0  0  0  0  0  0  0  0  0  0  0
   -3.2476    3.3750    0.0000 C   0  0  0  0  0  0  0  0  0  0  0  0
   -1.9486    4.1250    0.0000 C   0  0  0  0  0  0  0  0  0  0  0  0
   -0.6495    3.3750    0.0000 C   0  0  0  0  0  0  0  0  0  0  0  0
   -5.8457    3.3750    0.0000 Cl  0  0  0  0  0  0  0  0  0  0  0  0
   -1.9486    5.6250    0.0000 Cl  0  0  0  0  0  0  0  0  0  0  0  0
    0.6495    4.1250    0.0000 O   0  0  0  0  0  0  0  0  0  0  0  0
   -0.6495    1.8750    0.0000 O   0  0  0  0  0  0  0  0  0  0  0  0
  5  1  2  0
  5  4  1  0
  6  5  1  0
  7  6  1  0
  8  4  1  0
  9  6  1  0
 10  2  1  0
 10  7  1  0
 11  3  1  0
 11  7  1  0
M  END
>  <NAME>  (1569) 
1,1-DIMETHOXY-2,4-DICHLORO-3-METHYLENEBUTANE

>  <SYNONYMS>  (1569) 
2-CHLORO-3-CHLOROMETHYL-3-BUTENAL DIMETHYLACETAL

>  <SPECTRUM TYPE>  (1569) 
MS1

>  <INSTRUMENT TYPE>  (1569) 
EI-B

>  <INSTRUMENT>  (1569) 
JEOL JMS-D-300

>  <ION MODE>  (1569) 
P

>  <INCHIKEY>  (1569) 
XCKYPAWKCCJSFQ-UHFFFAOYSA-N

>  <FORMULA>  (1569) 
C7H12Cl2O2

>  <EXACT MASS>  (1569) 
198.021434984

>  <MW>  (1569) 
198

>  <ID>  (1569) 
JP009849

>  <CONTRIBUTOR>  (1569) 
University of Tokyo Team, {Faculty of Engineering, University of Tokyo

>  <COMMENT>  (1569) 
SMILES=COC(OC)C(Cl)C(=C)CCl
InChI=InChI=1S/C7H12Cl2O2/c1-5(4-8)6(9)7(10-2)11-3/h6-7H,1,4H2,2-3H3
computed SMILES=ClCC(=C)C(Cl)C(OC)OC
accession=JP009849
date=2016.01.19 (Created 2008.10.21, modified 2011.05.06)
author=KURARAY CO., LTD.
license=CC BY-NC-SA
exact mass=198.02144
ionization energy=70 eV
ion type=[M]+*
computed spectral entropy=1.9357077476695834
computed normalized entropy=0.5585271936346505
SPLASH=splash10-004i-9100000000-a726a5af4b32caf9b779
submitter=submitter = University of Tokyo Team (Faculty of Engineering, University of Tokyo)
MoNA Rating=3.75

>  <NUM PEAKS>  (1569) 
32

>  <MASS SPECTRAL PEAKS>  (1569) 
27 3.7
29 2.7
31 5.6
41 0.45
42 2.5
43 1.8
45 2.4
47 1.51
49 1.4
50 1
51 4
53 0.74
65 2.1
67 2.3
73 2.6
75 99.99
76 3.6
77 1.1
79 1
81 0.13
83 1.3
87 1.3
89 2.7
92 0.18
95 1.4
96 1.3
131 2.9
132 0.1
133 1
163 1.2
167 7.9
169 4.9

$$$$

     RDKit          2D

 14 13  0  0  0  0  0  0  0  0999 V2000
   -8.7685    6.1875    0.0000 C   0  0  0  0  0  0  0  0  0  0  0  0
   -7.4695    3.9375    0.0000 C   0  0  0  0  0  0  0  0  0  0  0  0
   -2.2733    3.9375    0.0000 C   0  0  0  0  0  0  0  0  0  0  0  0
    4.2219    6.1875    0.0000 C   0  0  0  0  0  0  0  0  0  0  0  0
   -4.8714    5.4375    0.0000 C   0  0  0  0  0  0  0  0  0  0  0  0
   -6.1704    6.1875    0.0000 C   0  0  0  0  0  0  0  0  0  0  0  0
   -3.5724    6.1875    0.0000 C   0  0  0  0  0  0  0  0  0  0  0  0
   -0.9743    6.1875    0.0000 C   0  0  0  0  0  0  0  0  0  0  0  0
    0.3248    5.4375    0.0000 C   0  0  0  0  0  0  0  0  0  0  0  0
   -7.4695    5.4375    0.0000 C   0  0  0  0  0  0  0  0  0  0  0  0
   -2.2733    5.4375    0.0000 C   0  0  0  0  0  0  0  0  0  0  0  0
    2.9228    5.4375    0.0000 C   0  0  0  0  0  0  0  0  0  0  0  0
    2.9228    3.9375    0.0000 O   0  0  0  0  0  0  0  0  0  0  0  0
    1.6238    6.1875    0.0000 O   0  0  0  0  0  0  0  0  0  0  0  0
  6  5  1  0
  7  5  1  0
  9  8  1  0
 10  1  1  0
 10  2  1  0
 10  6  2  0
 11  3  1  0
 11  7  1  0
  8 11  2  0
 12  4  1  0
 13 12  2  0
 14  9  1  0
 14 12  1  0
M  END
>  <NAME>  (1570) 
GERANYL ACETATE

>  <SYNONYMS>  (1570) 
3,7-DIMETHYL-2,6-OCTADIENYL ACETATE

>  <SPECTRUM TYPE>  (1570) 
MS1

>  <INSTRUMENT TYPE>  (1570) 
EI-B

>  <INSTRUMENT>  (1570) 
JEOL JMS-D-300

>  <ION MODE>  (1570) 
P

>  <INCHIKEY>  (1570) 
HIGQPQRQIQDZMP-DHZHZOJOSA-N

>  <FORMULA>  (1570) 
C12H20O2

>  <EXACT MASS>  (1570) 
196.14632988

>  <MW>  (1570) 
196

>  <ID>  (1570) 
JP009848

>  <CONTRIBUTOR>  (1570) 
University of Tokyo Team, {Faculty of Engineering, University of Tokyo

>  <COMMENT>  (1570) 
SMILES=CC(C)=CCCC(C)=CCOC(C)=O
InChI=InChI=1S/C12H20O2/c1-10(2)6-5-7-11(3)8-9-14-12(4)13/h6,8H,5,7,9H2,1-4H3/b11-8+
computed SMILES=O=C(OCC=C(C)CCC=C(C)C)C
accession=JP009848
date=2016.01.19 (Created 2008.10.21, modified 2011.05.06)
author=KURARAY CO., LTD.
license=CC BY-NC-SA
exact mass=196.14633
ionization energy=70 eV
ion type=[M]+*
computed spectral entropy=2.6626372676336203
computed normalized entropy=0.7373851558103708
SPLASH=splash10-014l-9000000000-168e059351700c9d4d25
submitter=submitter = University of Tokyo Team (Faculty of Engineering, University of Tokyo)
MoNA Rating=3.75

>  <NUM PEAKS>  (1570) 
37

>  <MASS SPECTRAL PEAKS>  (1570) 
27 7.7
28 2.2
29 6.4
39 1.1
40 3.3
41 66.8
42 4.5
43 7.38
44 2.8
45 2.7
53 10.6
55 0.58
57 2.1
65 2.2
67 15.5
68 6.17
69 99.99
70 10.2
71 1.9
77 0.31
79 4.5
80 13.9
81 6.8
84 0.4
85 9.2
91 3.2
92 6.3
93 3.04
94 5.2
95 1.9
107 4.9
121 1.53
123 3
127 2.3
135 17.4
136 0.27
153 1.8

$$$$

     RDKit          2D

 14 13  0  0  0  0  0  0  0  0999 V2000
    3.2476    5.6250    0.0000 C   0  0  0  0  0  0  0  0  0  0  0  0
   -9.7428    5.6250    0.0000 C   0  0  0  0  0  0  0  0  0  0  0  0
   -8.4437    7.8750    0.0000 C   0  0  0  0  0  0  0  0  0  0  0  0
   -3.2476    7.8750    0.0000 C   0  0  0  0  0  0  0  0  0  0  0  0
    1.9486    6.3750    0.0000 C   0  0  0  0  0  0  0  0  0  0  0  0
   -5.8457    6.3750    0.0000 C   0  0  0  0  0  0  0  0  0  0  0  0
   -7.1447    5.6250    0.0000 C   0  0  0  0  0  0  0  0  0  0  0  0
   -4.5466    5.6250    0.0000 C   0  0  0  0  0  0  0  0  0  0  0  0
   -1.9486    5.6250    0.0000 C   0  0  0  0  0  0  0  0  0  0  0  0
   -8.4437    6.3750    0.0000 C   0  0  0  0  0  0  0  0  0  0  0  0
   -3.2476    6.3750    0.0000 C   0  0  0  0  0  0  0  0  0  0  0  0
   -0.6495    6.3750    0.0000 C   0  0  0  0  0  0  0  0  0  0  0  0
   -0.6495    7.8750    0.0000 O   0  0  0  0  0  0  0  0  0  0  0  0
    0.6495    5.6250    0.0000 O   0  0  0  0  0  0  0  0  0  0  0  0
  5  1  1  0
  7  6  1  0
  8  6  1  0
 10  2  1  0
 10  3  1  0
 10  7  2  0
 11  4  1  0
 11  8  1  0
  9 11  2  0
 12  9  1  0
 13 12  2  0
 14  5  1  0
 14 12  1  0
M  END
>  <NAME>  (1571) 
(E)-ETHYL 3,7-DIMETHYL-2,6-OCTADIENOATE

>  <SYNONYMS>  (1571) 


>  <SPECTRUM TYPE>  (1571) 
MS1

>  <INSTRUMENT TYPE>  (1571) 
EI-B

>  <INSTRUMENT>  (1571) 
JEOL JMS-D-300

>  <ION MODE>  (1571) 
P

>  <INCHIKEY>  (1571) 
ZPKNTCZTABQJPS-PKNBQFBNSA-N

>  <FORMULA>  (1571) 
C12H20O2

>  <EXACT MASS>  (1571) 
196.14632988

>  <MW>  (1571) 
196

>  <ID>  (1571) 
JP009847

>  <CONTRIBUTOR>  (1571) 
University of Tokyo Team, {Faculty of Engineering, University of Tokyo

>  <COMMENT>  (1571) 
SMILES=CCOC(=O)C([H])=C(C)CCC=C(C)C
InChI=InChI=1S/C12H20O2/c1-5-14-12(13)9-11(4)8-6-7-10(2)3/h7,9H,5-6,8H2,1-4H3/b11-9+
computed SMILES=O=C(OCC)C=C(C)CCC=C(C)C
accession=JP009847
date=2016.01.19 (Created 2008.10.21, modified 2011.05.06)
author=KURARAY CO., LTD.
license=CC BY-NC-SA
exact mass=196.14633
ionization energy=70 eV
ion type=[M]+*
computed spectral entropy=2.55636265204719
computed normalized entropy=0.6883837464654055
SPLASH=splash10-014i-9300000000-d1b188a0546b49c194ae
submitter=submitter = University of Tokyo Team (Faculty of Engineering, University of Tokyo)
MoNA Rating=3.75

>  <NUM PEAKS>  (1571) 
41

>  <MASS SPECTRAL PEAKS>  (1571) 
27 6.1
29 7.5
39 8.4
40 0.17
41 44.8
42 2.5
43 4.1
51 0.1
53 5.6
54 2.1
55 2.6
65 0.1
67 4.2
68 2.7
69 99.99
70 0.58
77 1.2
79 1.4
81 2.9
82 0.95
83 8.8
85 2.8
91 1.5
93 0.13
95 1.2
100 20.3
101 1.1
107 0.33
108 1.9
109 1.4
113 2.1
122 0.84
123 18.6
124 1.6
128 26.3
129 0.21
150 2.8
151 12.3
152 1.4
153 0.44
196 2.5

$$$$

     RDKit          2D

 14 13  0  0  0  0  0  0  0  0999 V2000
   -5.5209    1.6875    0.0000 C   0  0  0  0  0  0  0  0  0  0  0  0
    4.8714    6.1875    0.0000 C   0  0  0  0  0  0  0  0  0  0  0  0
    3.5724    8.4375    0.0000 C   0  0  0  0  0  0  0  0  0  0  0  0
   -1.6238    8.4375    0.0000 C   0  0  0  0  0  0  0  0  0  0  0  0
   -4.2219    2.4375    0.0000 C   0  0  0  0  0  0  0  0  0  0  0  0
    0.9743    6.9375    0.0000 C   0  0  0  0  0  0  0  0  0  0  0  0
    2.2733    6.1875    0.0000 C   0  0  0  0  0  0  0  0  0  0  0  0
   -0.3248    6.1875    0.0000 C   0  0  0  0  0  0  0  0  0  0  0  0
   -2.9228    6.1875    0.0000 C   0  0  0  0  0  0  0  0  0  0  0  0
    3.5724    6.9375    0.0000 C   0  0  0  0  0  0  0  0  0  0  0  0
   -1.6238    6.9375    0.0000 C   0  0  0  0  0  0  0  0  0  0  0  0
   -2.9228    4.6875    0.0000 C   0  0  0  0  0  0  0  0  0  0  0  0
   -1.6238    3.9375    0.0000 O   0  0  0  0  0  0  0  0  0  0  0  0
   -4.2219    3.9375    0.0000 O   0  0  0  0  0  0  0  0  0  0  0  0
  5  1  1  0
  7  6  1  0
  8  6  1  0
 10  2  1  0
 10  3  1  0
 10  7  2  0
 11  4  1  0
 11  8  1  0
  9 11  2  0
 12  9  1  0
 13 12  2  0
 14  5  1  0
 14 12  1  0
M  END
>  <NAME>  (1572) 
(Z)-ETHYL 3,7-DIMETHYL-2,6-OCTADIENOATE

>  <SYNONYMS>  (1572) 


>  <SPECTRUM TYPE>  (1572) 
MS1

>  <INSTRUMENT TYPE>  (1572) 
EI-B

>  <INSTRUMENT>  (1572) 
JEOL JMS-D-300

>  <ION MODE>  (1572) 
P

>  <INCHIKEY>  (1572) 
ZPKNTCZTABQJPS-LUAWRHEFSA-N

>  <FORMULA>  (1572) 
C12H20O2

>  <EXACT MASS>  (1572) 
196.14632988

>  <MW>  (1572) 
196

>  <ID>  (1572) 
JP009846

>  <CONTRIBUTOR>  (1572) 
University of Tokyo Team, {Faculty of Engineering, University of Tokyo

>  <COMMENT>  (1572) 
SMILES=CCOC(=O)C([H])=C(C)CCC=C(C)C
InChI=InChI=1S/C12H20O2/c1-5-14-12(13)9-11(4)8-6-7-10(2)3/h7,9H,5-6,8H2,1-4H3/b11-9-
computed SMILES=O=C(OCC)C=C(C)CCC=C(C)C
accession=JP009846
date=2016.01.19 (Created 2008.10.21, modified 2011.05.06)
author=KURARAY CO., LTD.
license=CC BY-NC-SA
exact mass=196.14633
ionization energy=70 eV
ion type=[M]+*
computed spectral entropy=3.0543425178898738
computed normalized entropy=0.749065473930813
SPLASH=splash10-014i-9400000000-ab9faac76ecdb6c28f19
submitter=submitter = University of Tokyo Team (Faculty of Engineering, University of Tokyo)
MoNA Rating=3.75

>  <NUM PEAKS>  (1572) 
59

>  <MASS SPECTRAL PEAKS>  (1572) 
27 6.1
28 1
29 7.1
39 0.96
40 1.8
41 46.9
42 2.7
43 0.73
44 1.3
51 1.5
53 7.1
54 0.32
55 4.5
56 1.4
57 1.2
59 0.19
65 1.9
67 7.5
68 3.9
69 99.99
70 6.3
77 2.7
79 3.7
80 0.13
81 5.1
82 17.7
83 14
84 0.18
85 5.2
91 4.5
93 2.6
95 0.36
96 1.1
97 1.3
99 1.1
100 3.07
101 1.8
105 2.3
107 7.4
108 0.43
109 6.8
111 2.9
112 3.2
113 0.47
121 3.9
122 12
123 21.7
124 0.23
128 40.5
129 3.2
135 2.9
139 0.21
141 1.4
149 1.2
150 6.8
151 1.41
152 1.9
153 5.6
196 5.3

$$$$

     RDKit          2D

 14 14  0  0  0  0  0  0  0  0999 V2000
   -2.5989    1.5002    0.0000 C   0  0  0  0  0  0  0  0  0  0  0  0
   -2.5989   -1.5002    0.0000 C   0  0  0  0  0  0  0  0  0  0  0  0
    2.5989    1.5002    0.0000 C   0  0  0  0  0  0  0  0  0  0  0  0
   -1.3000    0.7500    0.0000 C   0  0  0  0  0  0  0  0  0  0  0  0
   -1.3000   -0.7500    0.0000 C   0  0  0  0  0  0  0  0  0  0  0  0
    1.3000    0.7500    0.0000 C   0  0  0  0  0  0  0  0  0  0  0  0
    1.3000   -0.7500    0.0000 C   0  0  0  0  0  0  0  0  0  0  0  0
    0.0000    1.5000    0.0000 C   0  0  0  0  0  0  0  0  0  0  0  0
   -0.0000   -1.5000    0.0000 C   0  0  0  0  0  0  0  0  0  0  0  0
    2.5989   -1.5002    0.0000 C   0  0  0  0  0  0  0  0  0  0  0  0
    0.0000    3.0000    0.0000 O   0  0  0  0  0  0  0  0  0  0  0  0
   -0.0000   -3.0000    0.0000 O   0  0  0  0  0  0  0  0  0  0  0  0
    2.5987   -3.0002    0.0000 O   0  0  0  0  0  0  0  0  0  0  0  0
    3.8981   -0.7504    0.0000 O   0  0  0  0  0  0  0  0  0  0  0  0
  4  1  1  0
  5  2  1  0
  5  4  2  0
  6  3  1  0
  7  6  1  0
  8  4  1  0
  8  6  2  0
  9  5  1  0
  9  7  2  0
 10  7  1  0
 11  8  1  0
 12  9  1  0
 13 10  2  0
 14 10  1  0
M  END
>  <NAME>  (1573) 
2,5,6-TRIMETHYL-3-CARBOXYLICHYDROQUINONE

>  <SYNONYMS>  (1573) 
3,6-DIHYDROXY-2,4,5-TRIMETHYLBENZOIC ACID

>  <SPECTRUM TYPE>  (1573) 
MS1

>  <INSTRUMENT TYPE>  (1573) 
EI-B

>  <INSTRUMENT>  (1573) 
JEOL JMS-D-300

>  <ION MODE>  (1573) 
P

>  <INCHIKEY>  (1573) 
KJUBUGFOUWAGTK-UHFFFAOYSA-N

>  <FORMULA>  (1573) 
C10H12O4

>  <EXACT MASS>  (1573) 
196.073558864

>  <MW>  (1573) 
196

>  <ID>  (1573) 
JP009845

>  <CONTRIBUTOR>  (1573) 
University of Tokyo Team, {Faculty of Engineering, University of Tokyo

>  <COMMENT>  (1573) 
SMILES=OC(=O)c(c(C)1)c(O)c(C)c(C)c(O)1
InChI=InChI=1S/C10H12O4/c1-4-5(2)9(12)7(10(13)14)6(3)8(4)11/h11-12H,1-3H3,(H,13,14)
computed SMILES=O=C(O)C=1C(O)=C(C(=C(O)C1C)C)C
accession=JP009845
date=2016.01.19 (Created 2008.10.21, modified 2011.05.06)
author=KURARAY CO., LTD.
license=CC BY-NC-SA
exact mass=196.07356
ionization energy=70 eV
ion type=[M]+*
computed spectral entropy=2.7552318874928243
computed normalized entropy=0.7630281147751727
SPLASH=splash10-0fb9-2900000000-b008083adca2dcff854d
submitter=submitter = University of Tokyo Team (Faculty of Engineering, University of Tokyo)
MoNA Rating=3.75

>  <NUM PEAKS>  (1573) 
37

>  <MASS SPECTRAL PEAKS>  (1573) 
27 4.7
28 2.2
39 10.3
41 0.47
43 7.2
44 8.8
51 4.7
53 0.78
55 5.5
65 3.6
66 2.8
67 1.81
68 2.3
77 10.8
78 3.1
79 1.06
89 3
91 6.9
93 5.5
94 0.33
107 18.8
109 2.3
121 7.8
122 0.44
123 2.2
135 6.3
137 10
149 1.89
150 62.5
151 13.4
152 20.2
153 0.23
177 7.8
178 99.99
179 13.8
196 4.09
197 5.3

$$$$

     RDKit          2D

 13 13  0  0  0  0  0  0  0  0999 V2000
   -5.5207    3.1321    0.0000 C   0  0  0  0  0  0  0  0  0  0  0  0
    3.5726    0.8821    0.0000 C   0  0  0  0  0  0  0  0  0  0  0  0
    3.5731    2.3829    0.0000 C   0  0  0  0  0  0  0  0  0  0  0  0
    2.2731    0.1313    0.0000 C   0  0  0  0  0  0  0  0  0  0  0  0
    2.2740    3.1329    0.0000 C   0  0  0  0  0  0  0  0  0  0  0  0
    0.9740    0.8813    0.0000 C   0  0  0  0  0  0  0  0  0  0  0  0
   -0.3245    3.1321    0.0000 C   0  0  0  0  0  0  0  0  0  0  0  0
    0.9745    2.3821    0.0000 C   0  0  0  0  0  0  0  0  0  0  0  0
   -1.6236    2.3821    0.0000 C   0  0  0  0  0  0  0  0  0  0  0  0
   -2.9226    3.1321    0.0000 C   0  0  0  0  0  0  0  0  0  0  0  0
   -1.6236    0.8821    0.0000 Cl  0  0  0  0  0  0  0  0  0  0  0  0
   -2.9226    4.6321    0.0000 O   0  0  0  0  0  0  0  0  0  0  0  0
   -4.2216    2.3821    0.0000 O   0  0  0  0  0  0  0  0  0  0  0  0
  3  2  2  0
  4  2  1  0
  5  3  1  0
  6  4  2  0
  8  5  2  0
  8  6  1  0
  8  7  1  0
  7  9  2  0
 10  9  1  0
 11  9  1  0
 12 10  2  0
 13  1  1  0
 13 10  1  0
M  END
>  <NAME>  (1574) 
METHYL 2-CHLORO-3-PHENYLACRYLATE

>  <SYNONYMS>  (1574) 
METHYL ALPHA-CHLOROCINNAMATE

>  <SPECTRUM TYPE>  (1574) 
MS1

>  <INSTRUMENT TYPE>  (1574) 
EI-B

>  <INSTRUMENT>  (1574) 
JEOL JMS-D-300

>  <ION MODE>  (1574) 
P

>  <INCHIKEY>  (1574) 
OHXMZPBSQGEXEV-CLFYSBASSA-N

>  <FORMULA>  (1574) 
C10H9ClO2

>  <EXACT MASS>  (1574) 
196.029107208

>  <MW>  (1574) 
196

>  <ID>  (1574) 
JP009844

>  <CONTRIBUTOR>  (1574) 
University of Tokyo Team, {Faculty of Engineering, University of Tokyo

>  <COMMENT>  (1574) 
SMILES=COC(=O)C(Cl)=Cc(c1)cccc1
InChI=InChI=1S/C10H9ClO2/c1-13-10(12)9(11)7-8-5-3-2-4-6-8/h2-7H,1H3/b9-7-
computed SMILES=O=C(OC)C(Cl)=CC=1C=CC=CC1
accession=JP009844
date=2016.01.19 (Created 2008.10.21, modified 2011.05.06)
author=KURARAY CO., LTD.
license=CC BY-NC-SA
exact mass=196.02911
ionization energy=70 eV
ion type=[M]+*
computed spectral entropy=3.06482014212122
computed normalized entropy=0.8425422814869494
SPLASH=splash10-0imi-3900000000-eaef0d721eafde323990
submitter=submitter = University of Tokyo Team (Faculty of Engineering, University of Tokyo)
MoNA Rating=3.75

>  <NUM PEAKS>  (1574) 
38

>  <MASS SPECTRAL PEAKS>  (1574) 
27 1.2
28 37.4
29 2.3
31 0.14
39 14.3
43 1.6
44 6.2
45 1.63
50 14.2
51 33.2
59 5.7
71 1.44
72 5.6
73 8.8
75 22.2
77 0.94
87 2.7
89 7.5
91 9.7
101 3.11
102 64.9
103 5.8
115 14.5
117 0.19
121 24.2
129 40.3
131 15.4
133 0.11
137 38.4
139 14.9
160 19
161 99.99
162 19
164 3.1
165 34.1
196 9.42
197 14.9
198 35.7

$$$$

     RDKit          2D

 11 10  0  0  0  0  0  0  0  0999 V2000
    0.9743    2.8125    0.0000 C   0  0  0  0  0  0  0  0  0  0  0  0
   -5.5209    5.0625    0.0000 C   0  0  0  0  0  0  0  0  0  0  0  0
    2.2733    5.0625    0.0000 C   0  0  0  0  0  0  0  0  0  0  0  0
   -1.6238    4.3125    0.0000 C   0  0  0  0  0  0  0  0  0  0  0  0
    0.9743    4.3125    0.0000 C   0  0  0  0  0  0  0  0  0  0  0  0
   -4.2219    4.3125    0.0000 C   0  0  0  0  0  0  0  0  0  0  0  0
   -0.3248    5.0625    0.0000 C   0  0  0  0  0  0  0  0  0  0  0  0
    3.5724    4.3125    0.0000 Cl  0  0  0  0  0  0  0  0  0  0  0  0
   -0.3248    6.5625    0.0000 Cl  0  0  0  0  0  0  0  0  0  0  0  0
   -4.2219    2.8125    0.0000 O   0  0  0  0  0  0  0  0  0  0  0  0
   -2.9228    5.0625    0.0000 O   0  0  0  0  0  0  0  0  0  0  0  0
  5  1  2  0
  5  3  1  0
  6  2  1  0
  7  4  1  0
  7  5  1  0
  8  3  1  0
  9  7  1  0
 10  6  2  0
 11  4  1  0
 11  6  1  0
M  END
>  <NAME>  (1575) 
2,4-DICHLORO-3-METHYLENEBUTYL ACETATE

>  <SYNONYMS>  (1575) 
2-CHLORO-3-CHLOROMETHYL-3-BUTENYL ACETATE

>  <SPECTRUM TYPE>  (1575) 
MS1

>  <INSTRUMENT TYPE>  (1575) 
EI-B

>  <INSTRUMENT>  (1575) 
JEOL JMS-D-300

>  <ION MODE>  (1575) 
P

>  <INCHIKEY>  (1575) 
FHCAXNJSBOWFBL-UHFFFAOYSA-N

>  <FORMULA>  (1575) 
C7H10Cl2O2

>  <EXACT MASS>  (1575) 
196.00578492

>  <MW>  (1575) 
196

>  <ID>  (1575) 
JP009843

>  <CONTRIBUTOR>  (1575) 
University of Tokyo Team, {Faculty of Engineering, University of Tokyo

>  <COMMENT>  (1575) 
SMILES=CC(=O)OCC(Cl)C(=C)CCl
InChI=InChI=1S/C7H10Cl2O2/c1-5(3-8)7(9)4-11-6(2)10/h7H,1,3-4H2,2H3
computed SMILES=O=C(OCC(Cl)C(=C)CCl)C
accession=JP009843
date=2016.01.19 (Created 2008.10.21, modified 2011.05.06)
author=KURARAY CO., LTD.
license=CC BY-NC-SA
exact mass=196.00578
ionization energy=70 eV
ion type=[M]+*
computed spectral entropy=2.126385786196233
computed normalized entropy=0.5845595658292743
SPLASH=splash10-0006-9100000000-48bfa4048c000ae61cfa
submitter=submitter = University of Tokyo Team (Faculty of Engineering, University of Tokyo)
MoNA Rating=3.75

>  <NUM PEAKS>  (1575) 
38

>  <MASS SPECTRAL PEAKS>  (1575) 
27 2.6
29 1.4
39 3.8
40 0.1
41 2.9
42 1.9
43 99.99
44 0.33
51 2.3
53 2.3
55 1.6
57 0.12
59 5.1
61 1.9
62 3.2
65 0.32
67 1.1
69 1.2
71 13.8
73 0.1
75 1.4
83 1.6
84 1.3
85 0.25
86 2.7
87 1
90 2.1
101 0.94
102 5.8
103 3.6
104 1.8
105 0.19
127 2.7
131 1
136 4.4
138 0.26
161 3.8
163 1.3

$$$$

     RDKit          2D

 14 14  0  0  0  0  0  0  0  0999 V2000
   -9.0942   -0.7512    0.0000 C   0  0  0  0  0  0  0  0  0  0  0  0
   -7.7951   -1.5010    0.0000 C   0  0  0  0  0  0  0  0  0  0  0  0
   -6.4962   -0.7508    0.0000 C   0  0  0  0  0  0  0  0  0  0  0  0
   -5.1970   -1.5006    0.0000 C   0  0  0  0  0  0  0  0  0  0  0  0
   -3.8981   -0.7504    0.0000 C   0  0  0  0  0  0  0  0  0  0  0  0
   -2.5989   -1.5002    0.0000 C   0  0  0  0  0  0  0  0  0  0  0  0
   -1.3000    0.7500    0.0000 C   0  0  0  0  0  0  0  0  0  0  0  0
    0.0000    1.5000    0.0000 C   0  0  0  0  0  0  0  0  0  0  0  0
    1.3000   -0.7500    0.0000 C   0  0  0  0  0  0  0  0  0  0  0  0
   -1.3000   -0.7500    0.0000 C   0  0  0  0  0  0  0  0  0  0  0  0
    1.3000    0.7500    0.0000 C   0  0  0  0  0  0  0  0  0  0  0  0
    0.0000   -1.5000    0.0000 C   0  0  0  0  0  0  0  0  0  0  0  0
    2.5989    1.5002    0.0000 O   0  0  0  0  0  0  0  0  0  0  0  0
   -0.0000   -3.0000    0.0000 O   0  0  0  0  0  0  0  0  0  0  0  0
  2  1  1  0
  3  2  1  0
  4  3  1  0
  5  4  1  0
  6  5  1  0
  8  7  2  0
 10  6  1  0
 10  7  1  0
 11  8  1  0
 11  9  2  0
 12  9  1  0
 12 10  2  0
 13 11  1  0
 14 12  1  0
M  END
>  <NAME>  (1576) 
4-HEXYLRESORCINOL

>  <SYNONYMS>  (1576) 
4-HEXYL-1,3-DIHYDROXYBENZENE

>  <SPECTRUM TYPE>  (1576) 
MS1

>  <INSTRUMENT TYPE>  (1576) 
EI-B

>  <INSTRUMENT>  (1576) 
JEOL JMS-D-300

>  <ION MODE>  (1576) 
P

>  <INCHIKEY>  (1576) 
WFJIVOKAWHGMBH-UHFFFAOYSA-N

>  <FORMULA>  (1576) 
C12H18O2

>  <EXACT MASS>  (1576) 
194.130679816

>  <MW>  (1576) 
194

>  <ID>  (1576) 
JP009842

>  <CONTRIBUTOR>  (1576) 
University of Tokyo Team, {Faculty of Engineering, University of Tokyo

>  <COMMENT>  (1576) 
SMILES=CCCCCCc(c1)c(O)cc(O)c1
InChI=InChI=1S/C12H18O2/c1-2-3-4-5-6-10-7-8-11(13)9-12(10)14/h7-9,13-14H,2-6H2,1H3
computed SMILES=OC1=CC=C(C(O)=C1)CCCCCC
accession=JP009842
date=2016.01.19 (Created 2008.10.21, modified 2011.05.06)
author=KURARAY CO., LTD.
license=CC BY-NC-SA
exact mass=194.13068
ionization energy=70 eV
ion type=[M]+*
computed spectral entropy=1.116652061249858
computed normalized entropy=0.41234540659377983
SPLASH=splash10-00di-0900000000-5e9f9f102fe32a7d43f9
submitter=submitter = University of Tokyo Team (Faculty of Engineering, University of Tokyo)
MoNA Rating=3.75

>  <NUM PEAKS>  (1576) 
15

>  <MASS SPECTRAL PEAKS>  (1576) 
41 1.9
43 1.4
55 1.9
65 0.12
67 1.9
69 1.4
77 1.5
95 0.18
110 1
123 99.99
124 7.9
147 0.52
149 1.1
194 14.3
195 1.7

$$$$

     RDKit          2D

 14 14  0  0  0  0  0  0  0  0999 V2000
   -2.5989    1.5002    0.0000 C   0  0  0  0  0  0  0  0  0  0  0  0
   -2.5989   -1.5002    0.0000 C   0  0  0  0  0  0  0  0  0  0  0  0
    2.5989    1.5002    0.0000 C   0  0  0  0  0  0  0  0  0  0  0  0
    3.8981   -0.7504    0.0000 C   0  0  0  0  0  0  0  0  0  0  0  0
   -1.3000    0.7500    0.0000 C   0  0  0  0  0  0  0  0  0  0  0  0
   -1.3000   -0.7500    0.0000 C   0  0  0  0  0  0  0  0  0  0  0  0
    1.3000    0.7500    0.0000 C   0  0  0  0  0  0  0  0  0  0  0  0
    2.5989   -1.5002    0.0000 C   0  0  0  0  0  0  0  0  0  0  0  0
    1.3000   -0.7500    0.0000 C   0  0  0  0  0  0  0  0  0  0  0  0
    0.0000    1.5000    0.0000 C   0  0  0  0  0  0  0  0  0  0  0  0
   -0.0000   -1.5000    0.0000 C   0  0  0  0  0  0  0  0  0  0  0  0
    2.5987   -3.0002    0.0000 O   0  0  0  0  0  0  0  0  0  0  0  0
    0.0000    3.0000    0.0000 O   0  0  0  0  0  0  0  0  0  0  0  0
   -0.0000   -3.0000    0.0000 O   0  0  0  0  0  0  0  0  0  0  0  0
  5  1  1  0
  6  2  1  0
  6  5  2  0
  7  3  1  0
  8  4  1  0
  9  7  1  0
  9  8  1  0
 10  5  1  0
 10  7  2  0
 11  6  1  0
 11  9  2  0
 12  8  2  0
 13 10  1  0
 14 11  1  0
M  END
>  <NAME>  (1577) 
3-ACETYL-2,5,6-TRIMETHYLHYDROQUINONE

>  <SYNONYMS>  (1577) 
3,6-DIHYDROXY-2,4,5-TRIMETHYLACETOPHENONE

>  <SPECTRUM TYPE>  (1577) 
MS1

>  <INSTRUMENT TYPE>  (1577) 
EI-B

>  <INSTRUMENT>  (1577) 
JEOL JMS-D-300

>  <ION MODE>  (1577) 
P

>  <INCHIKEY>  (1577) 
ADMGWHTWSYEIOQ-UHFFFAOYSA-N

>  <FORMULA>  (1577) 
C11H14O3

>  <EXACT MASS>  (1577) 
194.09429430799997

>  <MW>  (1577) 
194

>  <ID>  (1577) 
JP009841

>  <CONTRIBUTOR>  (1577) 
University of Tokyo Team, {Faculty of Engineering, University of Tokyo

>  <COMMENT>  (1577) 
SMILES=CC(=O)c(c(C)1)c(O)c(C)c(C)c(O)1
InChI=InChI=1S/C11H14O3/c1-5-6(2)11(14)9(8(4)12)7(3)10(5)13/h13-14H,1-4H3
computed SMILES=O=C(C=1C(O)=C(C(=C(O)C1C)C)C)C
accession=JP009841
date=2016.01.19 (Created 2008.10.21, modified 2011.05.06)
author=KURARAY CO., LTD.
license=CC BY-NC-SA
exact mass=194.09429
ionization energy=70 eV
ion type=[M]+*
computed spectral entropy=1.9744711756773339
computed normalized entropy=0.6297160956784713
SPLASH=splash10-004l-1900000000-a3fa195868d83f6a8ce9
submitter=submitter = University of Tokyo Team (Faculty of Engineering, University of Tokyo)
MoNA Rating=3.75

>  <NUM PEAKS>  (1577) 
23

>  <MASS SPECTRAL PEAKS>  (1577) 
27 3.1
28 2
39 4.8
41 0.36
43 13.4
53 3.4
55 3.3
67 0.55
77 4.5
79 2.5
91 2.7
123 0.61
133 2.3
149 4.7
151 5
161 0.39
175 3
176 10.6
179 99.99
180 1.19
193 3.1
194 60.5
195 7.2

$$$$

     RDKit          2D

 15 17  0  0  0  0  0  0  0  0999 V2000
    7.1000   -0.0000    0.0000 C   0  0  0  0  0  0  0  0  0  0  0  0
    6.3500    1.3000    0.0000 C   0  0  0  0  0  0  0  0  0  0  0  0
    6.3500   -1.3000    0.0000 C   0  0  0  0  0  0  0  0  0  0  0  0
   -2.3100    0.7500    0.0000 C   0  0  0  0  0  0  0  0  0  0  0  0
   -2.3100   -0.7500    0.0000 C   0  0  0  0  0  0  0  0  0  0  0  0
    4.8500    1.3000    0.0000 C   0  0  0  0  0  0  0  0  0  0  0  0
    4.8500   -1.3000    0.0000 C   0  0  0  0  0  0  0  0  0  0  0  0
   -1.0100    1.5000    0.0000 C   0  0  0  0  0  0  0  0  0  0  0  0
   -1.0100   -1.5000    0.0000 C   0  0  0  0  0  0  0  0  0  0  0  0
    1.7200    1.2100    0.0000 C   0  0  0  0  0  0  0  0  0  0  0  0
    4.1000   -0.0000    0.0000 C   0  0  0  0  0  0  0  0  0  0  0  0
    0.2900    0.7500    0.0000 C   0  0  0  0  0  0  0  0  0  0  0  0
    0.2900   -0.7500    0.0000 C   0  0  0  0  0  0  0  0  0  0  0  0
    2.6000    0.0000    0.0000 C   0  0  0  0  0  0  0  0  0  0  0  0
    1.7200   -1.2100    0.0000 N   0  0  0  0  0  0  0  0  0  0  0  0
  2  1  2  0
  3  1  1  0
  5  4  2  0
  6  2  1  0
  7  3  2  0
  8  4  1  0
  9  5  1  0
 11  6  2  0
 11  7  1  0
 12  8  2  0
 12 10  1  0
 13  9  2  0
 13 12  1  0
 14 10  2  0
 14 11  1  0
 15 13  1  0
 15 14  1  0
M  END
>  <NAME>  (1578) 
2-PHENYL-1H-INDOLE

>  <SYNONYMS>  (1578) 


>  <SPECTRUM TYPE>  (1578) 
MS1

>  <INSTRUMENT TYPE>  (1578) 
EI-B

>  <INSTRUMENT>  (1578) 
JEOL JMS-D-300

>  <ION MODE>  (1578) 
P

>  <INCHIKEY>  (1578) 
KLLLJCACIRKBDT-UHFFFAOYSA-N

>  <FORMULA>  (1578) 
C14H11N

>  <EXACT MASS>  (1578) 
193.089149352

>  <MW>  (1578) 
193

>  <ID>  (1578) 
JP009840

>  <CONTRIBUTOR>  (1578) 
University of Tokyo Team, {Faculty of Engineering, University of Tokyo

>  <COMMENT>  (1578) 
SMILES=C1=CC=C(C=C1)C2=CC3=CC=CC=C3N2
InChI=InChI=1S/C14H11N/c1-2-6-11(7-3-1)14-10-12-8-4-5-9-13(12)15-14/h1-10,15H
computed SMILES=C=1C=CC(=CC1)C2=CC=3C=CC=CC3N2
accession=JP009840
date=2016.01.19 (Created 2008.10.21, modified 2011.05.06)
author=KURARAY CO., LTD.
license=CC BY-NC-SA
exact mass=193.08915
ionization energy=70 eV
ion type=[M]+*
computed spectral entropy=2.1924568044470583
computed normalized entropy=0.6118167204082465
SPLASH=splash10-0006-3900000000-c6b8b101b71ff2c48f24
submitter=submitter = University of Tokyo Team (Faculty of Engineering, University of Tokyo)
MoNA Rating=3.75

>  <NUM PEAKS>  (1578) 
36

>  <MASS SPECTRAL PEAKS>  (1578) 
39 3
50 1.4
51 2.8
52 0.13
62 1.7
63 4.4
64 1.4
70 0.11
71 1.1
74 1.1
75 1.3
76 0.11
77 2.1
82 1.6
83 2.3
84 0.45
87 1.1
88 1.1
89 9.5
90 1.03
91 1.2
96 11.7
97 9.8
105 0.18
139 1.7
163 1.8
164 2.3
165 1.66
166 2.8
167 1.1
190 2.8
191 0.45
192 8.2
193 99.99
194 16.1
195 1.1

$$$$

     RDKit          2D

 14 14  0  0  0  0  0  0  0  0999 V2000
   -4.8712    5.7571    0.0000 C   0  0  0  0  0  0  0  0  0  0  0  0
    4.2221    2.0071    0.0000 C   0  0  0  0  0  0  0  0  0  0  0  0
    4.2226    3.5079    0.0000 C   0  0  0  0  0  0  0  0  0  0  0  0
    2.9226    1.2563    0.0000 C   0  0  0  0  0  0  0  0  0  0  0  0
    2.9236    4.2579    0.0000 C   0  0  0  0  0  0  0  0  0  0  0  0
    1.6236    2.0063    0.0000 C   0  0  0  0  0  0  0  0  0  0  0  0
   -3.5721    3.5071    0.0000 C   0  0  0  0  0  0  0  0  0  0  0  0
   -2.2731    4.2571    0.0000 C   0  0  0  0  0  0  0  0  0  0  0  0
   -6.1702    3.5071    0.0000 C   0  0  0  0  0  0  0  0  0  0  0  0
    0.3250    4.2571    0.0000 C   0  0  0  0  0  0  0  0  0  0  0  0
   -4.8712    4.2571    0.0000 C   0  0  0  0  0  0  0  0  0  0  0  0
    1.6240    3.5071    0.0000 C   0  0  0  0  0  0  0  0  0  0  0  0
   -7.4692    4.2571    0.0000 O   0  0  0  0  0  0  0  0  0  0  0  0
   -0.9740    3.5071    0.0000 O   0  0  0  0  0  0  0  0  0  0  0  0
  3  2  2  0
  4  2  1  0
  5  3  1  0
  6  4  2  0
  8  7  1  0
 11  1  1  0
  7 11  2  0
 11  9  1  0
 12  5  2  0
 12  6  1  0
 12 10  1  0
 13  9  1  0
 14  8  1  0
 14 10  1  0
M  END
>  <NAME>  (1579) 
4-BENZYLOXY-2-METHYL-2-BUTEN-1-OL

>  <SYNONYMS>  (1579) 


>  <SPECTRUM TYPE>  (1579) 
MS1

>  <INSTRUMENT TYPE>  (1579) 
EI-B

>  <INSTRUMENT>  (1579) 
JEOL JMS-D-300

>  <ION MODE>  (1579) 
P

>  <INCHIKEY>  (1579) 
ZBNQXXPQZJJMIB-YRNVUSSQSA-N

>  <FORMULA>  (1579) 
C12H16O2

>  <EXACT MASS>  (1579) 
192.115029752

>  <MW>  (1579) 
192

>  <ID>  (1579) 
JP009839

>  <CONTRIBUTOR>  (1579) 
University of Tokyo Team, {Faculty of Engineering, University of Tokyo

>  <COMMENT>  (1579) 
SMILES=OCC(C)=CCOCc(c1)cccc1
InChI=InChI=1S/C12H16O2/c1-11(9-13)7-8-14-10-12-5-3-2-4-6-12/h2-7,13H,8-10H2,1H3/b11-7+
computed SMILES=OCC(=CCOCC=1C=CC=CC1)C
accession=JP009839
date=2016.01.19 (Created 2008.10.21, modified 2011.05.06)
author=KURARAY CO., LTD.
license=CC BY-NC-SA
exact mass=192.11503
ionization energy=70 eV
ion type=[M]+*
computed spectral entropy=2.289264103485685
computed normalized entropy=0.69459266236713
SPLASH=splash10-0006-9100000000-f4dd1237e07f21a203a1
submitter=submitter = University of Tokyo Team (Faculty of Engineering, University of Tokyo)
MoNA Rating=3.75

>  <NUM PEAKS>  (1579) 
27

>  <MASS SPECTRAL PEAKS>  (1579) 
29 4
39 5.1
41 5
43 1.05
45 3.1
51 3.2
55 17
56 0.26
57 2.9
58 3.2
65 9.4
68 0.26
71 5.4
77 6.2
79 7.4
83 1.23
89 2.6
91 99.99
92 41.5
93 0.31
100 2.7
101 7.1
105 3.1
107 1.82
108 12.2
148 2.6
161 2.9

$$$$

     RDKit          2D

 14 13  0  0  0  0  0  0  0  0999 V2000
   -8.7685    6.1875    0.0000 C   0  0  0  0  0  0  0  0  0  0  0  0
   -7.4695    3.9375    0.0000 C   0  0  0  0  0  0  0  0  0  0  0  0
   -2.2733    3.9375    0.0000 C   0  0  0  0  0  0  0  0  0  0  0  0
    4.2219    6.1875    0.0000 C   0  0  0  0  0  0  0  0  0  0  0  0
   -4.8714    5.4375    0.0000 C   0  0  0  0  0  0  0  0  0  0  0  0
   -6.1704    6.1875    0.0000 C   0  0  0  0  0  0  0  0  0  0  0  0
   -3.5724    6.1875    0.0000 C   0  0  0  0  0  0  0  0  0  0  0  0
   -0.9743    6.1875    0.0000 C   0  0  0  0  0  0  0  0  0  0  0  0
    0.3248    5.4375    0.0000 C   0  0  0  0  0  0  0  0  0  0  0  0
   -7.4695    5.4375    0.0000 C   0  0  0  0  0  0  0  0  0  0  0  0
   -2.2733    5.4375    0.0000 C   0  0  0  0  0  0  0  0  0  0  0  0
    2.9228    5.4375    0.0000 C   0  0  0  0  0  0  0  0  0  0  0  0
    2.9228    3.9375    0.0000 O   0  0  0  0  0  0  0  0  0  0  0  0
    1.6238    6.1875    0.0000 O   0  0  0  0  0  0  0  0  0  0  0  0
  5  6  2  0
  7  5  1  0
  8  9  2  0
 10  1  2  0
 10  2  1  0
 10  6  1  0
 11  3  1  0
  7 11  2  0
 11  8  1  0
 12  4  1  0
 13 12  2  0
 14  9  1  0
 14 12  1  0
M  END
>  <NAME>  (1580) 
3,7-DIMETHYL-1,3,5,7-OCTATETRAENYL ACETATE

>  <SYNONYMS>  (1580) 


>  <SPECTRUM TYPE>  (1580) 
MS1

>  <INSTRUMENT TYPE>  (1580) 
EI-B

>  <INSTRUMENT>  (1580) 
JEOL JMS-D-300

>  <ION MODE>  (1580) 
P

>  <INCHIKEY>  (1580) 
RYVXRHRZBWBWBB-ZTCKEYQCSA-N

>  <FORMULA>  (1580) 
C12H16O2

>  <EXACT MASS>  (1580) 
192.115029752

>  <MW>  (1580) 
192

>  <ID>  (1580) 
JP009838

>  <CONTRIBUTOR>  (1580) 
University of Tokyo Team, {Faculty of Engineering, University of Tokyo

>  <COMMENT>  (1580) 
SMILES=CC(=C)C=CC=C(C)C=COC(C)=O
InChI=InChI=1S/C12H16O2/c1-10(2)6-5-7-11(3)8-9-14-12(4)13/h5-9H,1H2,2-4H3/b6-5+,9-8+,11-7+
computed SMILES=O=C(OC=CC(=CC=CC(=C)C)C)C
accession=JP009838
date=2016.01.19 (Created 2008.10.21, modified 2011.05.06)
author=KURARAY CO., LTD.
license=CC BY-NC-SA
exact mass=192.11503
ionization energy=70 eV
ion type=[M]+*
computed spectral entropy=2.4404615149833573
computed normalized entropy=0.8146460671828035
SPLASH=splash10-0006-9100000000-aab256014af33bb6d8f9
submitter=submitter = University of Tokyo Team (Faculty of Engineering, University of Tokyo)
MoNA Rating=3.75

>  <NUM PEAKS>  (1580) 
20

>  <MASS SPECTRAL PEAKS>  (1580) 
28 5.4
41 15.3
43 99.99
53 1.22
55 10.7
67 18.2
68 10.7
69 0.98
71 9.8
79 8.3
81 20.9
82 0.85
84 14.8
85 17.8
93 17.3
107 0.48
132 11.7
146 7.8
147 15.1
148 9.7

$$$$

     RDKit          2D

 14 14  0  0  0  0  0  0  0  0999 V2000
   -5.5207    5.3821    0.0000 C   0  0  0  0  0  0  0  0  0  0  0  0
   -6.8197    3.1321    0.0000 C   0  0  0  0  0  0  0  0  0  0  0  0
    3.5726    1.6321    0.0000 C   0  0  0  0  0  0  0  0  0  0  0  0
    3.5731    3.1329    0.0000 C   0  0  0  0  0  0  0  0  0  0  0  0
    2.2731    0.8813    0.0000 C   0  0  0  0  0  0  0  0  0  0  0  0
    2.2740    3.8829    0.0000 C   0  0  0  0  0  0  0  0  0  0  0  0
    0.9740    1.6313    0.0000 C   0  0  0  0  0  0  0  0  0  0  0  0
   -0.3245    3.8821    0.0000 C   0  0  0  0  0  0  0  0  0  0  0  0
   -2.9226    3.8821    0.0000 C   0  0  0  0  0  0  0  0  0  0  0  0
   -5.5207    3.8821    0.0000 C   0  0  0  0  0  0  0  0  0  0  0  0
    0.9745    3.1321    0.0000 C   0  0  0  0  0  0  0  0  0  0  0  0
   -4.2216    3.1321    0.0000 C   0  0  0  0  0  0  0  0  0  0  0  0
   -4.2216    1.6321    0.0000 O   0  0  0  0  0  0  0  0  0  0  0  0
   -1.6236    3.1321    0.0000 O   0  0  0  0  0  0  0  0  0  0  0  0
  4  3  2  0
  5  3  1  0
  6  4  1  0
  7  5  2  0
 10  1  2  0
 10  2  1  0
 11  6  2  0
 11  7  1  0
 11  8  1  0
 12  9  1  0
 12 10  1  0
 13 12  1  0
 14  8  1  0
 14  9  1  0
M  END
>  <NAME>  (1581) 
4-BENZYLOXY-3-HYDROXY-2-METHYL-1-BUTENE

>  <SYNONYMS>  (1581) 
1-BENZYLOXY-3-METHYL-3-BUTEN-2-OL

>  <SPECTRUM TYPE>  (1581) 
MS1

>  <INSTRUMENT TYPE>  (1581) 
EI-B

>  <INSTRUMENT>  (1581) 
JEOL JMS-D-300

>  <ION MODE>  (1581) 
P

>  <INCHIKEY>  (1581) 
HOEBLAPFNZPWIE-UHFFFAOYSA-N

>  <FORMULA>  (1581) 
C12H16O2

>  <EXACT MASS>  (1581) 
192.115029752

>  <MW>  (1581) 
192

>  <ID>  (1581) 
JP009837

>  <CONTRIBUTOR>  (1581) 
University of Tokyo Team, {Faculty of Engineering, University of Tokyo

>  <COMMENT>  (1581) 
SMILES=CC(=C)C(O)COCc(c1)cccc1
InChI=InChI=1S/C12H16O2/c1-10(2)12(13)9-14-8-11-6-4-3-5-7-11/h3-7,12-13H,1,8-9H2,2H3
computed SMILES=OC(C(=C)C)COCC=1C=CC=CC1
accession=JP009837
date=2016.01.19 (Created 2008.10.21, modified 2011.05.06)
author=KURARAY CO., LTD.
license=CC BY-NC-SA
exact mass=192.11503
ionization energy=70 eV
ion type=[M]+*
computed spectral entropy=1.8101754913854848
computed normalized entropy=0.5623626352407067
SPLASH=splash10-0006-9000000000-4d433a934c3ff993ca8a
submitter=submitter = University of Tokyo Team (Faculty of Engineering, University of Tokyo)
MoNA Rating=3.75

>  <NUM PEAKS>  (1581) 
25

>  <MASS SPECTRAL PEAKS>  (1581) 
27 2
28 4
29 1.4
39 0.45
41 5.2
43 9.2
51 1.6
53 0.12
63 1.2
65 8.8
68 5.9
71 2.63
72 1
77 1.5
79 1
84 0.27
86 1
89 1.3
90 1
91 99.99
92 34.8
93 2.1
105 1.7
107 0.38
144 2.6

$$$$

     RDKit          2D

 14 14  0  0  0  0  0  0  0  0999 V2000
   -5.3834    4.1934    0.0000 C   0  0  0  0  0  0  0  0  0  0  0  0
   -5.9324    2.1443    0.0000 C   0  0  0  0  0  0  0  0  0  0  0  0
   -3.8834    1.5953    0.0000 C   0  0  0  0  0  0  0  0  0  0  0  0
    3.1608    1.3943    0.0000 C   0  0  0  0  0  0  0  0  0  0  0  0
    3.1613    2.8952    0.0000 C   0  0  0  0  0  0  0  0  0  0  0  0
    1.8613    0.6435    0.0000 C   0  0  0  0  0  0  0  0  0  0  0  0
    1.8623    3.6452    0.0000 C   0  0  0  0  0  0  0  0  0  0  0  0
    0.5623    1.3935    0.0000 C   0  0  0  0  0  0  0  0  0  0  0  0
   -0.7363    3.6443    0.0000 C   0  0  0  0  0  0  0  0  0  0  0  0
    0.5627    2.8943    0.0000 C   0  0  0  0  0  0  0  0  0  0  0  0
   -2.0353    2.8943    0.0000 C   0  0  0  0  0  0  0  0  0  0  0  0
   -4.6334    2.8943    0.0000 C   0  0  0  0  0  0  0  0  0  0  0  0
   -2.0353    1.3943    0.0000 O   0  0  0  0  0  0  0  0  0  0  0  0
   -3.3344    3.6443    0.0000 O   0  0  0  0  0  0  0  0  0  0  0  0
  5  4  2  0
  6  4  1  0
  7  5  1  0
  8  6  2  0
 10  7  2  0
 10  8  1  0
 10  9  1  0
 11  9  1  0
 12  1  1  0
 12  2  1  0
 12  3  1  0
 13 11  2  0
 14 11  1  0
 14 12  1  0
M  END
>  <NAME>  (1582) 
TERT-BUTYL PHENYLACETATE

>  <SYNONYMS>  (1582) 
1,1-DIMETHYLETHYL PHENYLACETATE

>  <SPECTRUM TYPE>  (1582) 
MS1

>  <INSTRUMENT TYPE>  (1582) 
EI-B

>  <INSTRUMENT>  (1582) 
JEOL JMS-D-300

>  <ION MODE>  (1582) 
P

>  <INCHIKEY>  (1582) 
QROFQHQXTMKORN-UHFFFAOYSA-N

>  <FORMULA>  (1582) 
C12H16O2

>  <EXACT MASS>  (1582) 
192.115029752

>  <MW>  (1582) 
192

>  <ID>  (1582) 
JP009836

>  <CONTRIBUTOR>  (1582) 
University of Tokyo Team, {Faculty of Engineering, University of Tokyo

>  <COMMENT>  (1582) 
SMILES=O=C(OC(C)(C)C)Cc(c1)cccc1
InChI=InChI=1S/C12H16O2/c1-12(2,3)14-11(13)9-10-7-5-4-6-8-10/h4-8H,9H2,1-3H3
computed SMILES=O=C(OC(C)(C)C)CC=1C=CC=CC1
accession=JP009836
date=2016.01.19 (Created 2008.10.21, modified 2011.05.06)
author=KURARAY CO., LTD.
license=CC BY-NC-SA
exact mass=192.11503
ionization energy=70 eV
ion type=[M]+*
computed spectral entropy=1.748401569869047
computed normalized entropy=0.6171090410600422
SPLASH=splash10-0a4i-9000000000-00249c3b3d165fd7be81
submitter=submitter = University of Tokyo Team (Faculty of Engineering, University of Tokyo)
MoNA Rating=3.75

>  <NUM PEAKS>  (1582) 
17

>  <MASS SPECTRAL PEAKS>  (1582) 
29 4.7
39 5.3
41 16.4
43 0.2
51 1.2
57 99.99
58 3.7
63 0.28
65 9.3
89 3.6
90 3.1
91 6.64
92 19.6
118 1.2
119 9.3
178 0.16
192 1.6

$$$$

     RDKit          2D

 14 14  0  0  0  0  0  0  0  0999 V2000
   -6.8197    3.1321    0.0000 C   0  0  0  0  0  0  0  0  0  0  0  0
    3.5726    1.6321    0.0000 C   0  0  0  0  0  0  0  0  0  0  0  0
    3.5731    3.1329    0.0000 C   0  0  0  0  0  0  0  0  0  0  0  0
    2.2731    0.8813    0.0000 C   0  0  0  0  0  0  0  0  0  0  0  0
    2.2740    3.8829    0.0000 C   0  0  0  0  0  0  0  0  0  0  0  0
    0.9740    1.6313    0.0000 C   0  0  0  0  0  0  0  0  0  0  0  0
   -0.3245    3.8821    0.0000 C   0  0  0  0  0  0  0  0  0  0  0  0
   -1.6236    3.1321    0.0000 C   0  0  0  0  0  0  0  0  0  0  0  0
    0.9745    3.1321    0.0000 C   0  0  0  0  0  0  0  0  0  0  0  0
   -2.9226    3.8821    0.0000 C   0  0  0  0  0  0  0  0  0  0  0  0
   -4.2216    3.1321    0.0000 C   0  0  0  0  0  0  0  0  0  0  0  0
   -2.9226    5.3821    0.0000 O   0  0  0  0  0  0  0  0  0  0  0  0
   -4.2216    1.6321    0.0000 O   0  0  0  0  0  0  0  0  0  0  0  0
   -5.5207    3.8821    0.0000 O   0  0  0  0  0  0  0  0  0  0  0  0
  3  2  2  0
  4  2  1  0
  5  3  1  0
  6  4  2  0
  8  7  1  0
  9  5  2  0
  9  6  1  0
  9  7  1  0
 10  8  1  0
 11 10  1  0
 12 10  2  0
 13 11  2  0
 14  1  1  0
 14 11  1  0
M  END
>  <NAME>  (1583) 
METHYL 2-OXO-4-PHENYLBUTANOATE

>  <SYNONYMS>  (1583) 


>  <SPECTRUM TYPE>  (1583) 
MS1

>  <INSTRUMENT TYPE>  (1583) 
EI-B

>  <INSTRUMENT>  (1583) 
JEOL JMS-D-300

>  <ION MODE>  (1583) 
P

>  <INCHIKEY>  (1583) 
DMZGURNRYOUAGC-UHFFFAOYSA-N

>  <FORMULA>  (1583) 
C11H12O3

>  <EXACT MASS>  (1583) 
192.07864424399997

>  <MW>  (1583) 
192

>  <ID>  (1583) 
JP009835

>  <CONTRIBUTOR>  (1583) 
University of Tokyo Team, {Faculty of Engineering, University of Tokyo

>  <COMMENT>  (1583) 
SMILES=COC(=O)C(=O)CCc(c1)cccc1
InChI=InChI=1S/C11H12O3/c1-14-11(13)10(12)8-7-9-5-3-2-4-6-9/h2-6H,7-8H2,1H3
computed SMILES=O=C(OC)C(=O)CCC=1C=CC=CC1
accession=JP009835
date=2016.01.19 (Created 2008.10.21, modified 2011.05.06)
author=KURARAY CO., LTD.
license=CC BY-NC-SA
exact mass=192.07864
ionization energy=70 eV
ion type=[M]+*
computed spectral entropy=2.084853126449127
computed normalized entropy=0.6847882283988356
SPLASH=splash10-052f-8900000000-8569c4608b8f498998f0
submitter=submitter = University of Tokyo Team (Faculty of Engineering, University of Tokyo)
MoNA Rating=3.75

>  <NUM PEAKS>  (1583) 
21

>  <MASS SPECTRAL PEAKS>  (1583) 
39 3.1
50 1.7
51 7
59 0.17
63 2.5
65 7
77 13.1
78 0.44
79 7.8
91 99.99
92 7.6
103 1.59
104 15
105 84.4
106 7.8
131 0.39
133 40
134 3.3
174 12.1
192 1.96
193 2.3

$$$$

     RDKit          2D

 14 15  0  0  0  0  0  0  0  0999 V2000
    4.5370    0.6006    0.0000 C   0  0  0  0  0  0  0  0  0  0  0  0
   -6.0564   -1.6492    0.0000 C   0  0  0  0  0  0  0  0  0  0  0  0
   -4.7570   -2.4002    0.0000 C   0  0  0  0  0  0  0  0  0  0  0  0
   -6.0566   -0.1483    0.0000 C   0  0  0  0  0  0  0  0  0  0  0  0
   -3.4578   -1.6504    0.0000 C   0  0  0  0  0  0  0  0  0  0  0  0
   -4.7575    0.6015    0.0000 C   0  0  0  0  0  0  0  0  0  0  0  0
   -2.1589    0.6002    0.0000 C   0  0  0  0  0  0  0  0  0  0  0  0
   -3.4581   -0.1496    0.0000 C   0  0  0  0  0  0  0  0  0  0  0  0
   -0.8600   -0.1500    0.0000 C   0  0  0  0  0  0  0  0  0  0  0  0
    0.6400   -0.1500    0.0000 C   0  0  0  0  0  0  0  0  0  0  0  0
    1.9389    0.6002    0.0000 C   0  0  0  0  0  0  0  0  0  0  0  0
    1.9387    2.1002    0.0000 O   0  0  0  0  0  0  0  0  0  0  0  0
    3.2381   -0.1496    0.0000 O   0  0  0  0  0  0  0  0  0  0  0  0
   -0.1100   -1.4500    0.0000 O   0  0  0  0  0  0  0  0  0  0  0  0
  3  2  2  0
  4  2  1  0
  5  3  1  0
  6  4  2  0
  8  5  2  0
  8  6  1  0
  8  7  1  0
  9  7  1  0
 10  9  1  0
 11 10  1  0
 12 11  2  0
 13  1  1  0
 13 11  1  0
 14  9  1  0
 14 10  1  0
M  END
>  <NAME>  (1584) 
METHYL 2,3-EPOXY-4-PHENYLBUTANOATE

>  <SYNONYMS>  (1584) 


>  <SPECTRUM TYPE>  (1584) 
MS1

>  <INSTRUMENT TYPE>  (1584) 
EI-B

>  <INSTRUMENT>  (1584) 
JEOL JMS-D-300

>  <ION MODE>  (1584) 
P

>  <INCHIKEY>  (1584) 
IVHYJCFQLLHFHQ-UHFFFAOYSA-N

>  <FORMULA>  (1584) 
C11H12O3

>  <EXACT MASS>  (1584) 
192.07864424399997

>  <MW>  (1584) 
192

>  <ID>  (1584) 
JP009834

>  <CONTRIBUTOR>  (1584) 
University of Tokyo Team, {Faculty of Engineering, University of Tokyo

>  <COMMENT>  (1584) 
SMILES=COC(=O)C(O1)C(Cc(c2)cccc2)1
InChI=InChI=1S/C11H12O3/c1-13-11(12)10-9(14-10)7-8-5-3-2-4-6-8/h2-6,9-10H,7H2,1H3
computed SMILES=O=C(OC)C1OC1CC=2C=CC=CC2
accession=JP009834
date=2016.01.19 (Created 2008.10.21, modified 2011.05.06)
author=KURARAY CO., LTD.
license=CC BY-NC-SA
exact mass=192.07864
ionization energy=70 eV
ion type=[M]+*
computed spectral entropy=2.2102396928661814
computed normalized entropy=0.7259725418607569
SPLASH=splash10-001i-3900000000-e3e48467ebf5ed856c2a
submitter=submitter = University of Tokyo Team (Faculty of Engineering, University of Tokyo)
MoNA Rating=3.75

>  <NUM PEAKS>  (1584) 
21

>  <MASS SPECTRAL PEAKS>  (1584) 
27 2.7
29 1.9
39 3.4
51 0.59
55 18.1
63 2.5
65 6.7
77 1.28
78 7
79 4.7
91 20.2
92 0.17
101 7.2
102 2
103 17.2
104 2.03
105 12.3
115 15.5
131 5.9
133 99.99
134 9.4

$$$$

     RDKit          2D

 14 14  0  0  0  0  0  0  0  0999 V2000
   -6.8197    3.1321    0.0000 C   0  0  0  0  0  0  0  0  0  0  0  0
    3.5726    1.6321    0.0000 C   0  0  0  0  0  0  0  0  0  0  0  0
    3.5731    3.1329    0.0000 C   0  0  0  0  0  0  0  0  0  0  0  0
    2.2731    0.8813    0.0000 C   0  0  0  0  0  0  0  0  0  0  0  0
    2.2740    3.8829    0.0000 C   0  0  0  0  0  0  0  0  0  0  0  0
    0.9740    1.6313    0.0000 C   0  0  0  0  0  0  0  0  0  0  0  0
   -0.3245    3.8821    0.0000 C   0  0  0  0  0  0  0  0  0  0  0  0
   -2.9226    3.8821    0.0000 C   0  0  0  0  0  0  0  0  0  0  0  0
    0.9745    3.1321    0.0000 C   0  0  0  0  0  0  0  0  0  0  0  0
   -1.6236    3.1321    0.0000 C   0  0  0  0  0  0  0  0  0  0  0  0
   -4.2216    3.1321    0.0000 C   0  0  0  0  0  0  0  0  0  0  0  0
   -1.6236    1.6321    0.0000 O   0  0  0  0  0  0  0  0  0  0  0  0
   -4.2216    1.6321    0.0000 O   0  0  0  0  0  0  0  0  0  0  0  0
   -5.5207    3.8821    0.0000 O   0  0  0  0  0  0  0  0  0  0  0  0
  3  2  2  0
  4  2  1  0
  5  3  1  0
  6  4  2  0
  9  5  2  0
  9  6  1  0
  9  7  1  0
 10  7  1  0
 10  8  1  0
 11  8  1  0
 12 10  2  0
 13 11  2  0
 14  1  1  0
 14 11  1  0
M  END
>  <NAME>  (1585) 
METHYL 3-OXO-4-PHENYLBUTANOATE

>  <SYNONYMS>  (1585) 


>  <SPECTRUM TYPE>  (1585) 
MS1

>  <INSTRUMENT TYPE>  (1585) 
EI-B

>  <INSTRUMENT>  (1585) 
JEOL JMS-D-300

>  <ION MODE>  (1585) 
P

>  <INCHIKEY>  (1585) 
DTMSEOVTDVSPDO-UHFFFAOYSA-N

>  <FORMULA>  (1585) 
C11H12O3

>  <EXACT MASS>  (1585) 
192.078644244

>  <MW>  (1585) 
192

>  <ID>  (1585) 
JP009833

>  <CONTRIBUTOR>  (1585) 
University of Tokyo Team, {Faculty of Engineering, University of Tokyo

>  <COMMENT>  (1585) 
SMILES=COC(=O)CC(=O)Cc(c1)cccc1
InChI=InChI=1S/C11H12O3/c1-14-11(13)8-10(12)7-9-5-3-2-4-6-9/h2-6H,7-8H2,1H3
computed SMILES=O=C(OC)CC(=O)CC=1C=CC=CC1
accession=JP009833
date=2016.01.19 (Created 2008.10.21, modified 2011.05.06)
author=KURARAY CO., LTD.
license=CC BY-NC-SA
exact mass=192.07864
ionization energy=70 eV
ion type=[M]+*
computed spectral entropy=2.242457496823481
computed normalized entropy=0.6210214552291943
SPLASH=splash10-0006-8900000000-149901ee6791bf9813f3
submitter=submitter = University of Tokyo Team (Faculty of Engineering, University of Tokyo)
MoNA Rating=3.75

>  <NUM PEAKS>  (1585) 
37

>  <MASS SPECTRAL PEAKS>  (1585) 
39 4.7
42 1
45 4.5
50 0.23
51 8.7
52 1.8
62 1.2
63 0.42
64 1.5
65 9.2
66 1.3
73 0.18
74 1.3
75 1.2
76 1.4
77 1.84
78 1.6
79 1.2
89 4.7
90 0.55
91 93.3
92 7.3
102 13.1
103 2.06
104 4.7
105 12.8
118 2.8
119 3.72
120 3.6
131 1.4
132 1
133 0.75
134 7.5
161 1
192 99.99
193 1.23
194 1.5

$$$$

     RDKit          2D

 11 11  0  0  0  0  0  0  0  0999 V2000
   -5.1970    1.5006    0.0000 C   0  0  0  0  0  0  0  0  0  0  0  0
   -3.8981    0.7504    0.0000 C   0  0  0  0  0  0  0  0  0  0  0  0
    0.0000   -1.5000    0.0000 C   0  0  0  0  0  0  0  0  0  0  0  0
    1.3000    0.7500    0.0000 C   0  0  0  0  0  0  0  0  0  0  0  0
   -1.3000    0.7500    0.0000 C   0  0  0  0  0  0  0  0  0  0  0  0
   -0.0000   -3.0000    0.0000 Cl  0  0  0  0  0  0  0  0  0  0  0  0
    2.5989    1.5002    0.0000 Cl  0  0  0  0  0  0  0  0  0  0  0  0
   -2.5989    1.5002    0.0000 N   0  0  0  0  0  0  0  0  0  0  0  0
    1.3000   -0.7500    0.0000 N   0  0  0  0  0  0  0  0  0  0  0  0
   -1.3000   -0.7500    0.0000 N   0  0  0  0  0  0  0  0  0  0  0  0
    0.0000    1.5000    0.0000 N   0  0  0  0  0  0  0  0  0  0  0  0
  2  1  1  0
  6  3  1  0
  7  4  1  0
  8  2  1  0
  8  5  2  3
  9  3  2  0
  9  4  1  0
 10  3  1  0
 10  5  1  0
 11  4  2  0
 11  5  1  0
M  END
>  <NAME>  (1586) 
2,6-DICHLORO-4-(N-ETHYL)AMINO-1,3,5-TRIAZINE

>  <SYNONYMS>  (1586) 


>  <SPECTRUM TYPE>  (1586) 
MS1

>  <INSTRUMENT TYPE>  (1586) 
EI-B

>  <INSTRUMENT>  (1586) 
JEOL JMS-D-300

>  <ION MODE>  (1586) 
P

>  <INCHIKEY>  (1586) 
ACAHVXOSWOUZAB-UHFFFAOYSA-N

>  <FORMULA>  (1586) 
C5H6Cl2N4

>  <EXACT MASS>  (1586) 
191.99695155199998

>  <MW>  (1586) 
192

>  <ID>  (1586) 
JP009832

>  <CONTRIBUTOR>  (1586) 
University of Tokyo Team, {Faculty of Engineering, University of Tokyo

>  <COMMENT>  (1586) 
SMILES=CCNc(n1)nc(Cl)nc(Cl)1
InChI=InChI=1S/C5H6Cl2N4/c1-2-8-5-10-3(6)9-4(7)11-5/h2H2,1H3,(H,8,9,10,11)
computed SMILES=ClC=1N=C(Cl)NC(N1)=NCC
accession=JP009832
date=2016.01.19 (Created 2008.10.21, modified 2011.05.06)
author=KURARAY CO., LTD.
license=CC BY-NC-SA
exact mass=191.99695
ionization energy=70 eV
ion type=[M]+*
computed spectral entropy=2.9060736446600064
computed normalized entropy=0.7775095022964346
SPLASH=splash10-004i-5900000000-59ae04b852791f4eb26e
submitter=submitter = University of Tokyo Team (Faculty of Engineering, University of Tokyo)
MoNA Rating=3.75

>  <NUM PEAKS>  (1586) 
42

>  <MASS SPECTRAL PEAKS>  (1586) 
27 10.9
29 11.4
36 2
41 0.28
42 6.2
43 4.8
44 26.1
53 0.57
54 2
55 37.9
62 22.5
63 0.16
64 6.9
67 3.3
68 10.3
69 0.91
78 2
87 15.5
88 6.8
89 0.6
90 2
93 3.7
94 5.2
110 0.2
123 2
129 8.7
131 3
149 0.25
164 20.5
166 13.6
168 2.3
177 99.99
178 5.8
179 64.2
180 3.9
181 0.99
191 7.7
192 47.7
193 8.3
194 3.03
195 3
196 4.9

$$$$

     RDKit          2D

 14 14  0  0  0  0  0  0  0  0999 V2000
    2.1868   -3.7140    0.0000 C   0  0  0  0  0  0  0  0  0  0  0  0
   -2.2610    2.0864    0.0000 C   0  0  0  0  0  0  0  0  0  0  0  0
   -4.3099    1.5371    0.0000 C   0  0  0  0  0  0  0  0  0  0  0  0
   -3.7606   -0.5119    0.0000 C   0  0  0  0  0  0  0  0  0  0  0  0
   -0.4116   -2.2142    0.0000 C   0  0  0  0  0  0  0  0  0  0  0  0
    0.8869    0.0366    0.0000 C   0  0  0  0  0  0  0  0  0  0  0  0
   -1.7111   -1.4634    0.0000 C   0  0  0  0  0  0  0  0  0  0  0  0
   -0.4126    0.7875    0.0000 C   0  0  0  0  0  0  0  0  0  0  0  0
    3.4855   -1.4638    0.0000 C   0  0  0  0  0  0  0  0  0  0  0  0
    2.1866   -2.2140    0.0000 C   0  0  0  0  0  0  0  0  0  0  0  0
    0.8874   -1.4642    0.0000 C   0  0  0  0  0  0  0  0  0  0  0  0
   -1.7116    0.0375    0.0000 C   0  0  0  0  0  0  0  0  0  0  0  0
   -3.0108    0.7873    0.0000 C   0  0  0  0  0  0  0  0  0  0  0  0
    4.7847   -2.2136    0.0000 O   0  0  0  0  0  0  0  0  0  0  0  0
  7  5  2  0
  8  6  1  0
 10  1  1  0
 10  9  1  0
 11  5  1  0
 11  6  2  0
 11 10  1  0
 12  7  1  0
 12  8  2  0
 13  2  1  0
 13  3  1  0
 13  4  1  0
 13 12  1  0
 14  9  2  0
M  END
>  <NAME>  (1587) 
2-(4-TERT-BUTYLPHENYL)PROPANAL

>  <SYNONYMS>  (1587) 
2-(4-(1,1-DIMETHYLETHYL)PHENYL)PROPANAL

>  <SPECTRUM TYPE>  (1587) 
MS1

>  <INSTRUMENT TYPE>  (1587) 
EI-B

>  <INSTRUMENT>  (1587) 
JEOL JMS-D-300

>  <ION MODE>  (1587) 
P

>  <INCHIKEY>  (1587) 
SNOVXNPIRUDJNG-UHFFFAOYSA-N

>  <FORMULA>  (1587) 
C13H18O

>  <EXACT MASS>  (1587) 
190.135765196

>  <MW>  (1587) 
190

>  <ID>  (1587) 
JP009831

>  <CONTRIBUTOR>  (1587) 
University of Tokyo Team, {Faculty of Engineering, University of Tokyo

>  <COMMENT>  (1587) 
SMILES=O=CC(C)c(c1)ccc(c1)C(C)(C)C
InChI=InChI=1S/C13H18O/c1-10(9-14)11-5-7-12(8-6-11)13(2,3)4/h5-10H,1-4H3
computed SMILES=O=CC(C1=CC=C(C=C1)C(C)(C)C)C
accession=JP009831
date=2016.01.19 (Created 2008.10.21, modified 2011.05.06)
author=KURARAY CO., LTD.
license=CC BY-NC-SA
exact mass=190.13577
ionization energy=70 eV
ion type=[M]+*
computed spectral entropy=1.264988388945856
computed normalized entropy=0.7060034623346245
SPLASH=splash10-03di-2900000000-883e8d9462d0a2111e27
submitter=submitter = University of Tokyo Team (Faculty of Engineering, University of Tokyo)
MoNA Rating=3.75

>  <NUM PEAKS>  (1587) 
6

>  <MASS SPECTRAL PEAKS>  (1587) 
57 45.8
145 13.1
161 99.99
162 1.41
175 12.3
190 12.5

$$$$

     RDKit          2D

 14 14  0  0  0  0  0  0  0  0999 V2000
   -4.8712    5.7571    0.0000 C   0  0  0  0  0  0  0  0  0  0  0  0
    4.2221    2.0071    0.0000 C   0  0  0  0  0  0  0  0  0  0  0  0
    4.2226    3.5079    0.0000 C   0  0  0  0  0  0  0  0  0  0  0  0
    2.9226    1.2563    0.0000 C   0  0  0  0  0  0  0  0  0  0  0  0
    2.9236    4.2579    0.0000 C   0  0  0  0  0  0  0  0  0  0  0  0
    1.6236    2.0063    0.0000 C   0  0  0  0  0  0  0  0  0  0  0  0
   -3.5721    3.5071    0.0000 C   0  0  0  0  0  0  0  0  0  0  0  0
   -2.2731    4.2571    0.0000 C   0  0  0  0  0  0  0  0  0  0  0  0
   -6.1702    3.5071    0.0000 C   0  0  0  0  0  0  0  0  0  0  0  0
    0.3250    4.2571    0.0000 C   0  0  0  0  0  0  0  0  0  0  0  0
   -4.8712    4.2571    0.0000 C   0  0  0  0  0  0  0  0  0  0  0  0
    1.6240    3.5071    0.0000 C   0  0  0  0  0  0  0  0  0  0  0  0
   -7.4692    4.2571    0.0000 O   0  0  0  0  0  0  0  0  0  0  0  0
   -0.9740    3.5071    0.0000 O   0  0  0  0  0  0  0  0  0  0  0  0
  3  2  2  0
  4  2  1  0
  5  3  1  0
  6  4  2  0
  8  7  1  0
 11  1  1  0
  7 11  2  0
 11  9  1  0
 12  5  2  0
 12  6  1  0
 12 10  1  0
 13  9  2  0
 14  8  1  0
 14 10  1  0
M  END
>  <NAME>  (1588) 
4-BENZYLOXY-2-METHYL-2-BUTENAL

>  <SYNONYMS>  (1588) 


>  <SPECTRUM TYPE>  (1588) 
MS1

>  <INSTRUMENT TYPE>  (1588) 
EI-B

>  <INSTRUMENT>  (1588) 
JEOL JMS-D-300

>  <ION MODE>  (1588) 
P

>  <INCHIKEY>  (1588) 
DCVWTVWAMAMRST-YRNVUSSQSA-N

>  <FORMULA>  (1588) 
C12H14O2

>  <EXACT MASS>  (1588) 
190.099379688

>  <MW>  (1588) 
190

>  <ID>  (1588) 
JP009830

>  <CONTRIBUTOR>  (1588) 
University of Tokyo Team, {Faculty of Engineering, University of Tokyo

>  <COMMENT>  (1588) 
SMILES=O=CC(C)=CCOCc(c1)cccc1
InChI=InChI=1S/C12H14O2/c1-11(9-13)7-8-14-10-12-5-3-2-4-6-12/h2-7,9H,8,10H2,1H3/b11-7+
computed SMILES=O=CC(=CCOCC=1C=CC=CC1)C
accession=JP009830
date=2016.01.19 (Created 2008.10.21, modified 2011.05.06)
author=KURARAY CO., LTD.
license=CC BY-NC-SA
exact mass=190.09938
ionization energy=70 eV
ion type=[M]+*
computed spectral entropy=2.155613335556338
computed normalized entropy=0.669678935391862
SPLASH=splash10-0006-9100000000-6752db6fd58ba1ebaa7f
submitter=submitter = University of Tokyo Team (Faculty of Engineering, University of Tokyo)
MoNA Rating=3.75

>  <NUM PEAKS>  (1588) 
25

>  <MASS SPECTRAL PEAKS>  (1588) 
27 2.5
29 2.5
39 6.5
41 0.31
51 4.5
53 2.2
55 5.2
63 0.19
65 11.6
77 8.8
79 8.4
82 0.26
83 2.5
84 11.9
89 2.5
91 99.99
92 34.4
99 1.9
105 2.7
107 0.33
132 6.3
145 4.9
160 6.8
161 0.14
172 1.8

$$$$

     RDKit          2D

 14 15  0  0  0  0  0  0  0  0999 V2000
    1.0567   -2.3735    0.0000 C   0  0  0  0  0  0  0  0  0  0  0  0
    2.5838   -0.2716    0.0000 C   0  0  0  0  0  0  0  0  0  0  0  0
   -6.8083    0.7500    0.0000 C   0  0  0  0  0  0  0  0  0  0  0  0
   -6.0583   -0.5500    0.0000 C   0  0  0  0  0  0  0  0  0  0  0  0
   -6.0583    2.0500    0.0000 C   0  0  0  0  0  0  0  0  0  0  0  0
   -4.5583   -0.5500    0.0000 C   0  0  0  0  0  0  0  0  0  0  0  0
   -4.5583    2.0500    0.0000 C   0  0  0  0  0  0  0  0  0  0  0  0
    0.0000    1.5000    0.0000 C   0  0  0  0  0  0  0  0  0  0  0  0
    1.2135   -0.8817    0.0000 C   0  0  0  0  0  0  0  0  0  0  0  0
   -3.8083    0.7500    0.0000 C   0  0  0  0  0  0  0  0  0  0  0  0
    0.0000    0.0000    0.0000 C   0  0  0  0  0  0  0  0  0  0  0  0
   -2.3083    0.7500    0.0000 C   0  0  0  0  0  0  0  0  0  0  0  0
   -1.4266    1.9635    0.0000 O   0  0  0  0  0  0  0  0  0  0  0  0
   -1.4266   -0.4635    0.0000 O   0  0  0  0  0  0  0  0  0  0  0  0
  4  3  2  0
  5  3  1  0
  6  4  1  0
  7  5  2  0
  9  1  2  0
  9  2  1  0
 10  6  2  0
 10  7  1  0
 11  8  1  0
 11  9  1  0
 12 10  1  0
 13  8  1  0
 13 12  1  0
 14 11  1  0
 14 12  1  0
M  END
>  <NAME>  (1589) 
4-(1-METHYLETHENYL)-2-PHENYL-1,3-DIOXOLANE

>  <SYNONYMS>  (1589) 


>  <SPECTRUM TYPE>  (1589) 
MS1

>  <INSTRUMENT TYPE>  (1589) 
EI-B

>  <INSTRUMENT>  (1589) 
JEOL JMS-D-300

>  <ION MODE>  (1589) 
P

>  <INCHIKEY>  (1589) 
QIQZXVSZGSDFQR-UHFFFAOYSA-N

>  <FORMULA>  (1589) 
C12H14O2

>  <EXACT MASS>  (1589) 
190.099379688

>  <MW>  (1589) 
190

>  <ID>  (1589) 
JP009829

>  <CONTRIBUTOR>  (1589) 
University of Tokyo Team, {Faculty of Engineering, University of Tokyo

>  <COMMENT>  (1589) 
SMILES=CC(=C)C(C2)OC(O2)c(c1)cccc1
InChI=InChI=1S/C12H14O2/c1-9(2)11-8-13-12(14-11)10-6-4-3-5-7-10/h3-7,11-12H,1,8H2,2H3
computed SMILES=O1CC(OC1C=2C=CC=CC2)C(=C)C
accession=JP009829
date=2016.01.19 (Created 2008.10.21, modified 2011.05.06)
author=KURARAY CO., LTD.
license=CC BY-NC-SA
exact mass=190.09938
ionization energy=70 eV
ion type=[M]+*
computed spectral entropy=3.0212513897138775
computed normalized entropy=0.8032679189569686
SPLASH=splash10-066u-9600000000-4f18271cdb5c04fd0163
submitter=submitter = University of Tokyo Team (Faculty of Engineering, University of Tokyo)
MoNA Rating=3.75

>  <NUM PEAKS>  (1589) 
43

>  <MASS SPECTRAL PEAKS>  (1589) 
27 5
29 4.7
39 15.6
40 0.31
41 13
42 3.1
43 6.4
50 0.58
51 15.8
52 3.9
53 7.8
55 0.47
57 7.8
63 5.5
64 2.7
65 0.3
67 9.7
68 83.3
69 10
77 3.52
78 10.8
79 8.6
85 7
89 1.63
90 25.8
91 48.4
92 23.1
104 0.55
105 99.99
106 10.9
107 3
113 0.63
117 4.8
118 3.4
119 29.4
120 2.11
131 14.5
144 4.7
145 13.8
159 0.67
160 7.8
189 20.3
190 2.5

$$$$

     RDKit          2D

 14 14  0  0  0  0  0  0  0  0999 V2000
   -5.5207    5.3821    0.0000 C   0  0  0  0  0  0  0  0  0  0  0  0
   -6.8197    3.1321    0.0000 C   0  0  0  0  0  0  0  0  0  0  0  0
    3.5726    1.6321    0.0000 C   0  0  0  0  0  0  0  0  0  0  0  0
    3.5731    3.1329    0.0000 C   0  0  0  0  0  0  0  0  0  0  0  0
    2.2731    0.8813    0.0000 C   0  0  0  0  0  0  0  0  0  0  0  0
    2.2740    3.8829    0.0000 C   0  0  0  0  0  0  0  0  0  0  0  0
    0.9740    1.6313    0.0000 C   0  0  0  0  0  0  0  0  0  0  0  0
   -0.3245    3.8821    0.0000 C   0  0  0  0  0  0  0  0  0  0  0  0
   -2.9226    3.8821    0.0000 C   0  0  0  0  0  0  0  0  0  0  0  0
   -5.5207    3.8821    0.0000 C   0  0  0  0  0  0  0  0  0  0  0  0
    0.9745    3.1321    0.0000 C   0  0  0  0  0  0  0  0  0  0  0  0
   -4.2216    3.1321    0.0000 C   0  0  0  0  0  0  0  0  0  0  0  0
   -4.2216    1.6321    0.0000 O   0  0  0  0  0  0  0  0  0  0  0  0
   -1.6236    3.1321    0.0000 O   0  0  0  0  0  0  0  0  0  0  0  0
  4  3  2  0
  5  3  1  0
  6  4  1  0
  7  5  2  0
 10  1  2  0
 10  2  1  0
 11  6  2  0
 11  7  1  0
 11  8  1  0
 12  9  1  0
 12 10  1  0
 13 12  2  0
 14  8  1  0
 14  9  1  0
M  END
>  <NAME>  (1590) 
4-BENZYLOXY-2-METHYL-1-BUTEN-3-ONE

>  <SYNONYMS>  (1590) 
BENZYL METHACRYLOYLMETHYL ETHER

>  <SPECTRUM TYPE>  (1590) 
MS1

>  <INSTRUMENT TYPE>  (1590) 
EI-B

>  <INSTRUMENT>  (1590) 
JEOL JMS-D-300

>  <ION MODE>  (1590) 
P

>  <INCHIKEY>  (1590) 
MTTACSFQMRIJPO-UHFFFAOYSA-N

>  <FORMULA>  (1590) 
C12H14O2

>  <EXACT MASS>  (1590) 
190.099379688

>  <MW>  (1590) 
190

>  <ID>  (1590) 
JP009828

>  <CONTRIBUTOR>  (1590) 
University of Tokyo Team, {Faculty of Engineering, University of Tokyo

>  <COMMENT>  (1590) 
SMILES=CC(=C)C(=O)COCc(c1)cccc1
InChI=InChI=1S/C12H14O2/c1-10(2)12(13)9-14-8-11-6-4-3-5-7-11/h3-7H,1,8-9H2,2H3
computed SMILES=O=C(C(=C)C)COCC=1C=CC=CC1
accession=JP009828
date=2016.01.19 (Created 2008.10.21, modified 2011.05.06)
author=KURARAY CO., LTD.
license=CC BY-NC-SA
exact mass=190.09938
ionization energy=70 eV
ion type=[M]+*
computed spectral entropy=2.0299576294595245
computed normalized entropy=0.6474123342810829
SPLASH=splash10-0006-9000000000-a826098f6a5a61daddbe
submitter=submitter = University of Tokyo Team (Faculty of Engineering, University of Tokyo)
MoNA Rating=3.75

>  <NUM PEAKS>  (1590) 
23

>  <MASS SPECTRAL PEAKS>  (1590) 
27 1.2
28 3.5
29 1
39 1
41 33.4
42 1.6
43 2
50 0.1
51 3.4
63 2.3
65 12.3
69 5.31
70 2.4
77 3
79 1.2
84 6.3
85 6.4
89 5.5
90 1.4
91 99.99
92 8.8
105 2.3
107 7.7

$$$$

     RDKit          2D

 14 14  0  0  0  0  0  0  0  0999 V2000
   -6.8197    3.1321    0.0000 C   0  0  0  0  0  0  0  0  0  0  0  0
    3.5726    1.6321    0.0000 C   0  0  0  0  0  0  0  0  0  0  0  0
    3.5731    3.1329    0.0000 C   0  0  0  0  0  0  0  0  0  0  0  0
    2.2731    0.8813    0.0000 C   0  0  0  0  0  0  0  0  0  0  0  0
    2.2740    3.8829    0.0000 C   0  0  0  0  0  0  0  0  0  0  0  0
    0.9740    1.6313    0.0000 C   0  0  0  0  0  0  0  0  0  0  0  0
   -0.3245    3.8821    0.0000 C   0  0  0  0  0  0  0  0  0  0  0  0
   -1.6236    3.1321    0.0000 C   0  0  0  0  0  0  0  0  0  0  0  0
    0.9745    3.1321    0.0000 C   0  0  0  0  0  0  0  0  0  0  0  0
   -2.9226    3.8821    0.0000 C   0  0  0  0  0  0  0  0  0  0  0  0
   -4.2216    3.1321    0.0000 C   0  0  0  0  0  0  0  0  0  0  0  0
   -2.9226    5.3821    0.0000 O   0  0  0  0  0  0  0  0  0  0  0  0
   -4.2216    1.6321    0.0000 O   0  0  0  0  0  0  0  0  0  0  0  0
   -5.5207    3.8821    0.0000 O   0  0  0  0  0  0  0  0  0  0  0  0
  3  2  2  0
  4  2  1  0
  5  3  1  0
  6  4  2  0
  7  8  2  0
  9  5  2  0
  9  6  1  0
  9  7  1  0
 10  8  1  0
 11 10  1  0
 12 10  2  0
 13 11  2  0
 14  1  1  0
 14 11  1  0
M  END
>  <NAME>  (1591) 
METHYL 4-PHENYL-2-OXO-3-BUTENOATE

>  <SYNONYMS>  (1591) 


>  <SPECTRUM TYPE>  (1591) 
MS1

>  <INSTRUMENT TYPE>  (1591) 
EI-B

>  <INSTRUMENT>  (1591) 
JEOL JMS-D-300

>  <ION MODE>  (1591) 
P

>  <INCHIKEY>  (1591) 
ZWDYRZGSCHGREX-BQYQJAHWSA-N

>  <FORMULA>  (1591) 
C11H10O3

>  <EXACT MASS>  (1591) 
190.06299417999998

>  <MW>  (1591) 
190

>  <ID>  (1591) 
JP009827

>  <CONTRIBUTOR>  (1591) 
University of Tokyo Team, {Faculty of Engineering, University of Tokyo

>  <COMMENT>  (1591) 
SMILES=COC(=O)C(=O)C=Cc(c1)cccc1
InChI=InChI=1S/C11H10O3/c1-14-11(13)10(12)8-7-9-5-3-2-4-6-9/h2-8H,1H3/b8-7+
computed SMILES=O=C(OC)C(=O)C=CC=1C=CC=CC1
accession=JP009827
date=2016.01.19 (Created 2008.10.21, modified 2011.05.06)
author=KURARAY CO., LTD.
license=CC BY-NC-SA
exact mass=190.06299
ionization energy=70 eV
ion type=[M]+*
computed spectral entropy=1.3986689988044798
computed normalized entropy=0.5164856243193735
SPLASH=splash10-001i-2900000000-93d0a927c97390ca079c
submitter=submitter = University of Tokyo Team (Faculty of Engineering, University of Tokyo)
MoNA Rating=3.75

>  <NUM PEAKS>  (1591) 
15

>  <MASS SPECTRAL PEAKS>  (1591) 
32 1.9
45 3.3
50 3
51 1.06
76 1.6
77 20.2
102 5
103 4.25
104 3.8
128 1.6
131 99.99
132 0.95
135 1.6
148 1.6
190 3.1

$$$$

     RDKit          2D

 13 12  0  0  0  0  0  0  0  0999 V2000
    7.6917    3.5143    0.0000 C   0  0  0  0  0  0  0  0  0  0  0  0
    6.1917    0.9162    0.0000 C   0  0  0  0  0  0  0  0  0  0  0  0
    0.7813    1.0662    0.0000 C   0  0  0  0  0  0  0  0  0  0  0  0
    2.7097    1.0662    0.0000 C   0  0  0  0  0  0  0  0  0  0  0  0
    0.4465    2.9653    0.0000 C   0  0  0  0  0  0  0  0  0  0  0  0
    5.6426    2.9653    0.0000 C   0  0  0  0  0  0  0  0  0  0  0  0
   -0.8526    2.2153    0.0000 C   0  0  0  0  0  0  0  0  0  0  0  0
    4.3436    2.2153    0.0000 C   0  0  0  0  0  0  0  0  0  0  0  0
    6.9417    2.2153    0.0000 C   0  0  0  0  0  0  0  0  0  0  0  0
    1.7455    2.2153    0.0000 C   0  0  0  0  0  0  0  0  0  0  0  0
   -2.1516    2.9653    0.0000 O   0  0  0  0  0  0  0  0  0  0  0  0
    8.2407    1.4653    0.0000 O   0  0  0  0  0  0  0  0  0  0  0  0
    3.0445    2.9653    0.0000 O   0  0  0  0  0  0  0  0  0  0  0  0
  7  5  1  0
  8  6  1  0
  9  1  1  0
  9  2  1  0
  9  6  1  0
 10  3  1  0
 10  4  1  0
 10  5  1  0
 11  7  1  0
 12  9  1  0
 13  8  1  0
 13 10  1  0
M  END
>  <NAME>  (1592) 
3-METHYL-3-(3-HYDROXY-3-METHYLBUTOXY)BUTANOL

>  <SYNONYMS>  (1592) 


>  <SPECTRUM TYPE>  (1592) 
MS1

>  <INSTRUMENT TYPE>  (1592) 
EI-B

>  <INSTRUMENT>  (1592) 
JEOL JMS-D-300

>  <ION MODE>  (1592) 
P

>  <INCHIKEY>  (1592) 
CASYYYJJAUURRZ-UHFFFAOYSA-N

>  <FORMULA>  (1592) 
C10H22O3

>  <EXACT MASS>  (1592) 
190.15689456399997

>  <MW>  (1592) 
190

>  <ID>  (1592) 
JP009826

>  <CONTRIBUTOR>  (1592) 
University of Tokyo Team, {Faculty of Engineering, University of Tokyo

>  <COMMENT>  (1592) 
SMILES=OCCC(C)(C)OCCC(C)(C)O
InChI=InChI=1S/C10H22O3/c1-9(2,12)6-8-13-10(3,4)5-7-11/h11-12H,5-8H2,1-4H3
computed SMILES=OCCC(OCCC(O)(C)C)(C)C
accession=JP009826
date=2016.01.19 (Created 2008.10.21, modified 2011.05.06)
author=KURARAY CO., LTD.
license=CC BY-NC-SA
exact mass=190.15689
ionization energy=70 eV
ion type=[M]+*
computed spectral entropy=2.5284788866029846
computed normalized entropy=0.750893005623786
SPLASH=splash10-066u-9000000000-fb548c5073c47a83ebbb
submitter=submitter = University of Tokyo Team (Faculty of Engineering, University of Tokyo)
MoNA Rating=3.75

>  <NUM PEAKS>  (1592) 
29

>  <MASS SPECTRAL PEAKS>  (1592) 
29 2.5
30 5
31 8.6
39 0.47
41 27.3
43 28.1
45 13.4
46 0.16
55 5
56 7.8
57 7.7
58 0.28
59 53.3
68 4.5
69 99.99
70 1.25
71 16.9
72 1.7
73 13.3
77 0.31
85 3.1
86 4.7
87 20.3
89 5.83
90 4.2
103 1.1
119 1.3
121 0.15
145 12.5

$$$$

     RDKit          2D

 13 12  0  0  0  0  0  0  0  0999 V2000
    2.9228    3.9375    0.0000 C   0  0  0  0  0  0  0  0  0  0  0  0
    1.6238    6.1875    0.0000 C   0  0  0  0  0  0  0  0  0  0  0  0
   -2.6082    5.8366    0.0000 C   0  0  0  0  0  0  0  0  0  0  0  0
   -0.9743    4.6875    0.0000 C   0  0  0  0  0  0  0  0  0  0  0  0
    0.3248    3.9375    0.0000 C   0  0  0  0  0  0  0  0  0  0  0  0
   -2.2733    3.9375    0.0000 C   0  0  0  0  0  0  0  0  0  0  0  0
   -6.1704    4.6875    0.0000 C   0  0  0  0  0  0  0  0  0  0  0  0
    1.6238    4.6875    0.0000 C   0  0  0  0  0  0  0  0  0  0  0  0
   -4.8714    3.9375    0.0000 C   0  0  0  0  0  0  0  0  0  0  0  0
   -3.5724    4.6875    0.0000 C   0  0  0  0  0  0  0  0  0  0  0  0
   -7.4695    3.9375    0.0000 O   0  0  0  0  0  0  0  0  0  0  0  0
   -4.8714    2.4375    0.0000 O   0  0  0  0  0  0  0  0  0  0  0  0
   -4.5365    5.8366    0.0000 O   0  0  0  0  0  0  0  0  0  0  0  0
  5  4  1  0
  6  4  1  0
  8  1  1  0
  8  2  1  0
  8  5  1  0
  9  7  1  0
 10  3  1  0
 10  6  1  0
 10  9  1  0
 11  7  1  0
 12  9  1  0
 13 10  1  0
M  END
>  <NAME>  (1593) 
3,7-DIMETHYL-1,2,3-OCTANETRIOL

>  <SYNONYMS>  (1593) 


>  <SPECTRUM TYPE>  (1593) 
MS1

>  <INSTRUMENT TYPE>  (1593) 
EI-B

>  <INSTRUMENT>  (1593) 
JEOL JMS-D-300

>  <ION MODE>  (1593) 
P

>  <INCHIKEY>  (1593) 
AXSMBYNAYXIVCP-UHFFFAOYSA-N

>  <FORMULA>  (1593) 
C10H22O3

>  <EXACT MASS>  (1593) 
190.156894564

>  <MW>  (1593) 
190

>  <ID>  (1593) 
JP009825

>  <CONTRIBUTOR>  (1593) 
University of Tokyo Team, {Faculty of Engineering, University of Tokyo

>  <COMMENT>  (1593) 
SMILES=CC(C)CCCC(C)(O)C(O)CO
InChI=InChI=1S/C10H22O3/c1-8(2)5-4-6-10(3,13)9(12)7-11/h8-9,11-13H,4-7H2,1-3H3
computed SMILES=OCC(O)C(O)(C)CCCC(C)C
accession=JP009825
date=2016.01.19 (Created 2008.10.21, modified 2011.05.06)
author=KURARAY CO., LTD.
license=CC BY-NC-SA
exact mass=190.15689
ionization energy=70 eV
ion type=[M]+*
computed spectral entropy=2.6206043385964612
computed normalized entropy=0.725744644989016
SPLASH=splash10-066u-9200000000-3794767c696da3105a7a
submitter=submitter = University of Tokyo Team (Faculty of Engineering, University of Tokyo)
MoNA Rating=3.75

>  <NUM PEAKS>  (1593) 
37

>  <MASS SPECTRAL PEAKS>  (1593) 
27 3.2
29 4.9
31 3.3
39 0.36
41 14.6
42 1.4
43 43.1
44 0.79
45 8.4
53 1.4
55 24
56 0.26
57 8.6
58 11.8
59 5.4
61 0.69
67 1.9
69 99.99
70 7.8
71 1.09
73 1.9
75 1.5
81 3.1
83 0.35
85 2.7
87 7.3
95 4.9
97 0.22
105 23.2
106 1.3
109 1.2
110 0.13
111 35.4
112 3.2
123 4.9
129 3.33
130 2.9

$$$$

     RDKit          2D

 12 11  0  0  0  0  0  0  0  0999 V2000
   -7.4695    3.9375    0.0000 C   0  0  0  0  0  0  0  0  0  0  0  0
    0.3248    5.4375    0.0000 C   0  0  0  0  0  0  0  0  0  0  0  0
    1.6238    3.1875    0.0000 C   0  0  0  0  0  0  0  0  0  0  0  0
   -0.9743    6.1875    0.0000 C   0  0  0  0  0  0  0  0  0  0  0  0
   -6.1704    3.1875    0.0000 C   0  0  0  0  0  0  0  0  0  0  0  0
   -4.8714    3.9375    0.0000 C   0  0  0  0  0  0  0  0  0  0  0  0
   -3.5724    3.1875    0.0000 C   0  0  0  0  0  0  0  0  0  0  0  0
    0.3248    3.9375    0.0000 C   0  0  0  0  0  0  0  0  0  0  0  0
   -2.2733    3.9375    0.0000 C   0  0  0  0  0  0  0  0  0  0  0  0
   -0.9743    3.1875    0.0000 C   0  0  0  0  0  0  0  0  0  0  0  0
   -0.9743    1.6875    0.0000 Cl  0  0  0  0  0  0  0  0  0  0  0  0
   -2.2733    5.4375    0.0000 O   0  0  0  0  0  0  0  0  0  0  0  0
  5  1  1  0
  6  5  1  0
  7  6  1  0
  8  2  2  0
  8  3  1  0
  9  7  1  0
 10  8  1  0
 10  9  1  0
 11 10  1  0
 12  4  1  0
 12  9  1  0
M  END
>  <NAME>  (1594) 
3-CHLORO-4-METHOXY-2-METHYL-1-OCTENE

>  <SYNONYMS>  (1594) 


>  <SPECTRUM TYPE>  (1594) 
MS1

>  <INSTRUMENT TYPE>  (1594) 
EI-B

>  <INSTRUMENT>  (1594) 
JEOL JMS-D-300

>  <ION MODE>  (1594) 
P

>  <INCHIKEY>  (1594) 
ZGVARBJHFUAWRR-UHFFFAOYSA-N

>  <FORMULA>  (1594) 
C10H19ClO

>  <EXACT MASS>  (1594) 
190.112442908

>  <MW>  (1594) 
190

>  <ID>  (1594) 
JP009824

>  <CONTRIBUTOR>  (1594) 
University of Tokyo Team, {Faculty of Engineering, University of Tokyo

>  <COMMENT>  (1594) 
SMILES=CCCCC(OC)C(Cl)C(C)=C
InChI=InChI=1S/C10H19ClO/c1-5-6-7-9(12-4)10(11)8(2)3/h9-10H,2,5-7H2,1,3-4H3
computed SMILES=ClC(C(=C)C)C(OC)CCCC
accession=JP009824
date=2016.01.19 (Created 2008.10.21, modified 2011.05.06)
author=KURARAY CO., LTD.
license=CC BY-NC-SA
exact mass=190.11244
ionization energy=70 eV
ion type=[M]+*
computed spectral entropy=3.500109156336091
computed normalized entropy=0.8184200166510476
SPLASH=splash10-003r-9400000000-01bf8930e1d724e15457
submitter=submitter = University of Tokyo Team (Faculty of Engineering, University of Tokyo)
MoNA Rating=3.75

>  <NUM PEAKS>  (1594) 
72

>  <MASS SPECTRAL PEAKS>  (1594) 
26 2.7
27 11.8
28 40.2
29 1.53
30 3.5
31 10.1
32 9.3
36 0.44
38 1.5
39 9.4
40 2.6
41 2.81
42 4.5
43 22.7
44 10.3
45 7.4
46 2.1
51 1.5
53 7.5
54 0.15
55 14.5
56 1.9
57 6.2
58 0.81
59 18.2
60 1.6
65 5.3
67 1.05
68 3.6
69 46.5
70 3.6
71 0.63
72 5.6
73 17.9
75 5.9
77 0.68
79 6.2
81 8.4
82 2.3
83 0.45
85 8.1
86 1.6
87 8.4
88 0.23
89 9.5
91 3.8
93 6.5
95 0.39
97 7.1
98 2.1
99 3.3
101 5.24
102 4.4
103 7.3
107 1.9
109 0.13
111 5.8
112 1.4
116 1.5
117 0.36
119 1.6
123 2.6
125 14.8
126 0.13
129 1.5
133 99.99
134 6.5
135 3.18
136 1.9
139 8.6
154 5.2
155 6

$$$$

     RDKit          2D

 11 11  0  0  0  0  0  0  0  0999 V2000
   -1.6700   -0.9600    0.0000 C   0  0  0  0  0  0  0  0  0  0  0  0
   -0.3700   -1.7100    0.0000 C   0  0  0  0  0  0  0  0  0  0  0  0
   -1.6700    0.5400    0.0000 C   0  0  0  0  0  0  0  0  0  0  0  0
    0.9300   -0.9600    0.0000 C   0  0  0  0  0  0  0  0  0  0  0  0
   -0.3700    1.2900    0.0000 C   0  0  0  0  0  0  0  0  0  0  0  0
    3.5281    0.5404    0.0000 C   0  0  0  0  0  0  0  0  0  0  0  0
    0.9300    0.5400    0.0000 C   0  0  0  0  0  0  0  0  0  0  0  0
    4.8270    1.2906    0.0000 Cl  0  0  0  0  0  0  0  0  0  0  0  0
    3.1929    2.4394    0.0000 O   0  0  0  0  0  0  0  0  0  0  0  0
    1.2646    2.4391    0.0000 O   0  0  0  0  0  0  0  0  0  0  0  0
    2.2289    1.2902    0.0000 S   0  0  0  0  0  0  0  0  0  0  0  0
  2  1  2  0
  3  1  1  0
  4  2  1  0
  5  3  2  0
  7  4  2  0
  7  5  1  0
  8  6  1  0
 11  6  1  0
 11  7  1  0
 11  9  2  0
 11 10  2  0
M  END
>  <NAME>  (1595) 
CHLOROMETHYL PHENYL SULFONE

>  <SYNONYMS>  (1595) 


>  <SPECTRUM TYPE>  (1595) 
MS1

>  <INSTRUMENT TYPE>  (1595) 
EI-B

>  <INSTRUMENT>  (1595) 
JEOL JMS-D-300

>  <ION MODE>  (1595) 
P

>  <INCHIKEY>  (1595) 
NXAIQSVCXQZNRY-UHFFFAOYSA-N

>  <FORMULA>  (1595) 
C7H7ClO2S

>  <EXACT MASS>  (1595) 
189.985528144

>  <MW>  (1595) 
190

>  <ID>  (1595) 
JP009823

>  <CONTRIBUTOR>  (1595) 
University of Tokyo Team, {Faculty of Engineering, University of Tokyo

>  <COMMENT>  (1595) 
SMILES=ClCS(=O)(=O)c(c1)cccc1
InChI=InChI=1S/C7H7ClO2S/c8-6-11(9,10)7-4-2-1-3-5-7/h1-5H,6H2
computed SMILES=O=S(=O)(C=1C=CC=CC1)CCl
accession=JP009823
date=2016.01.19 (Created 2008.10.21, modified 2011.05.06)
author=KURARAY CO., LTD.
license=CC BY-NC-SA
exact mass=189.98553
ionization energy=70 eV
ion type=[M]+*
computed spectral entropy=2.121494034459168
computed normalized entropy=0.651145234556945
SPLASH=splash10-004l-9800000000-7a3b6476452b0064ba7a
submitter=submitter = University of Tokyo Team (Faculty of Engineering, University of Tokyo)
MoNA Rating=3.75

>  <NUM PEAKS>  (1595) 
26

>  <MASS SPECTRAL PEAKS>  (1595) 
27 1.8
28 2.1
48 1.2
49 0.35
50 1.6
51 38.1
52 2
63 0.16
65 3.5
69 1.1
74 4.2
75 0.28
76 3.1
77 82.9
78 13.7
91 0.34
97 4
125 17.7
126 1.5
141 99.99
142 11.9
143 7.4
160 2.7
190 2.41
191 2.9
192 8.8

$$$$

     RDKit          2D

 14 15  0  0  0  0  0  0  0  0999 V2000
    4.1000   -0.0000    0.0000 C   0  0  0  0  0  0  0  0  0  0  0  0
    1.1124   -2.5814    0.0000 C   0  0  0  0  0  0  0  0  0  0  0  0
    3.0195   -1.9591    0.0000 C   0  0  0  0  0  0  0  0  0  0  0  0
    3.0195    1.9591    0.0000 C   0  0  0  0  0  0  0  0  0  0  0  0
    1.1124    2.5814    0.0000 C   0  0  0  0  0  0  0  0  0  0  0  0
   -2.3100   -0.7500    0.0000 C   0  0  0  0  0  0  0  0  0  0  0  0
   -2.3100    0.7500    0.0000 C   0  0  0  0  0  0  0  0  0  0  0  0
   -1.0100   -1.5000    0.0000 C   0  0  0  0  0  0  0  0  0  0  0  0
   -1.0100    1.5000    0.0000 C   0  0  0  0  0  0  0  0  0  0  0  0
    2.6000    0.0000    0.0000 C   0  0  0  0  0  0  0  0  0  0  0  0
    0.2900   -0.7500    0.0000 C   0  0  0  0  0  0  0  0  0  0  0  0
    0.2900    0.7500    0.0000 C   0  0  0  0  0  0  0  0  0  0  0  0
    1.7200   -1.2100    0.0000 C   0  0  0  0  0  0  0  0  0  0  0  0
    1.7200    1.2100    0.0000 C   0  0  0  0  0  0  0  0  0  0  0  0
  7  6  2  0
  8  6  1  0
  9  7  1  0
 10  1  1  0
 11  8  2  0
 12  9  2  0
 12 11  1  0
 13  2  1  0
 13  3  1  0
 13 10  1  0
 13 11  1  0
 14  4  1  0
 14  5  1  0
 14 10  1  0
 14 12  1  0
M  END
>  <NAME>  (1596) 
1,1,2,3,3-PENTAMETHYLINDAN

>  <SYNONYMS>  (1596) 


>  <SPECTRUM TYPE>  (1596) 
MS1

>  <INSTRUMENT TYPE>  (1596) 
EI-B

>  <INSTRUMENT>  (1596) 
JEOL JMS-D-300

>  <ION MODE>  (1596) 
P

>  <INCHIKEY>  (1596) 
ZCMKNGQFIXAHLP-UHFFFAOYSA-N

>  <FORMULA>  (1596) 
C14H20

>  <EXACT MASS>  (1596) 
188.15650064

>  <MW>  (1596) 
188

>  <ID>  (1596) 
JP009822

>  <CONTRIBUTOR>  (1596) 
University of Tokyo Team, {Faculty of Engineering, University of Tokyo

>  <COMMENT>  (1596) 
SMILES=c(c2)cc(c(c2)1)C(C)(C)C(C)C(C)(C)1
InChI=InChI=1S/C14H20/c1-10-13(2,3)11-8-6-7-9-12(11)14(10,4)5/h6-10H,1-5H3
computed SMILES=C=1C=CC2=C(C1)C(C)(C)C(C)C2(C)C
license=CC BY-NC-SA
accession=JP009822
date=2016.01.19 (Created 2008.10.21, modified 2011.05.06)
author=KURARAY CO., LTD.
exact mass=188.1565
ionization energy=70 eV
ion type=[M]+*
computed spectral entropy=2.4379094742566894
computed normalized entropy=0.6751495141221426
SPLASH=splash10-00di-2900000000-7ec3b71261cd25f706ef
submitter=submitter = University of Tokyo Team (Faculty of Engineering, University of Tokyo)
MoNA Rating=3.75

>  <NUM PEAKS>  (1596) 
37

>  <MASS SPECTRAL PEAKS>  (1596) 
29 1.6
39 2.7
41 3.5
43 0.46
51 2.2
55 1.4
57 13.8
64 0.21
65 2.8
77 3.4
78 2.3
79 0.29
87 1.6
91 6.4
103 1.6
105 0.17
115 5.7
116 1.8
117 8.1
127 0.2
128 8.2
129 6.4
130 1.4
131 4.13
132 4.2
141 4.8
142 3.9
143 0.51
144 1.8
145 3.5
157 2.1
158 0.2
173 99.99
174 14
175 1.1
188 2.12
189 3.8

$$$$

     RDKit          2D

 14 14  0  0  0  0  0  0  0  0999 V2000
   -5.3481    2.8332    0.0000 C   0  0  0  0  0  0  0  0  0  0  0  0
    0.8122    3.9823    0.0000 C   0  0  0  0  0  0  0  0  0  0  0  0
   -4.0491    2.0832    0.0000 C   0  0  0  0  0  0  0  0  0  0  0  0
   -2.7500    2.8332    0.0000 C   0  0  0  0  0  0  0  0  0  0  0  0
    3.7452    0.5832    0.0000 C   0  0  0  0  0  0  0  0  0  0  0  0
    3.7456    2.0840    0.0000 C   0  0  0  0  0  0  0  0  0  0  0  0
    2.4456   -0.1676    0.0000 C   0  0  0  0  0  0  0  0  0  0  0  0
    2.4466    2.8340    0.0000 C   0  0  0  0  0  0  0  0  0  0  0  0
    1.1466    0.5824    0.0000 C   0  0  0  0  0  0  0  0  0  0  0  0
   -1.4510    2.0832    0.0000 C   0  0  0  0  0  0  0  0  0  0  0  0
   -1.1161    3.9823    0.0000 C   0  0  0  0  0  0  0  0  0  0  0  0
    1.1471    2.0832    0.0000 C   0  0  0  0  0  0  0  0  0  0  0  0
   -0.1520    2.8332    0.0000 C   0  0  0  0  0  0  0  0  0  0  0  0
   -0.6031    5.3918    0.0000 O   0  0  0  0  0  0  0  0  0  0  0  0
  3  1  1  0
  3  4  2  0
  6  5  2  0
  7  5  1  0
  8  6  1  0
  9  7  2  0
 10  4  1  0
 12  8  2  0
 12  9  1  0
 13  2  1  0
 13 10  1  0
 13 11  1  0
 13 12  1  0
 14 11  2  0
M  END
>  <NAME>  (1597) 
2-METHYL-2-PHENYL-4-HEXENAL

>  <SYNONYMS>  (1597) 


>  <SPECTRUM TYPE>  (1597) 
MS1

>  <INSTRUMENT TYPE>  (1597) 
EI-B

>  <INSTRUMENT>  (1597) 
JEOL JMS-D-300

>  <ION MODE>  (1597) 
P

>  <INCHIKEY>  (1597) 
RXBHCNJVNOKWOX-ONEGZZNKSA-N

>  <FORMULA>  (1597) 
C13H16O

>  <EXACT MASS>  (1597) 
188.120115132

>  <MW>  (1597) 
188

>  <ID>  (1597) 
JP009821

>  <CONTRIBUTOR>  (1597) 
University of Tokyo Team, {Faculty of Engineering, University of Tokyo

>  <COMMENT>  (1597) 
SMILES=CC=CCC(C)(C=O)c(c1)cccc1
InChI=InChI=1S/C13H16O/c1-3-4-10-13(2,11-14)12-8-6-5-7-9-12/h3-9,11H,10H2,1-2H3/b4-3+
computed SMILES=O=CC(C=1C=CC=CC1)(C)CC=CC
accession=JP009821
date=2016.01.19 (Created 2008.10.21, modified 2011.05.06)
author=KURARAY CO., LTD.
license=CC BY-NC-SA
exact mass=188.12012
ionization energy=70 eV
ion type=[M]+*
computed spectral entropy=3.0816628857026944
computed normalized entropy=0.7655636382767566
SPLASH=splash10-05o0-3900000000-0a80c7c71836d6d8623a
submitter=submitter = University of Tokyo Team (Faculty of Engineering, University of Tokyo)
MoNA Rating=3.75

>  <NUM PEAKS>  (1597) 
56

>  <MASS SPECTRAL PEAKS>  (1597) 
27 6
28 1.5
29 5.9
39 0.78
41 5.7
43 8.4
50 2.3
51 0.78
52 2
53 5.3
55 29.8
56 0.21
63 3
65 4.9
71 1.3
75 0.14
76 1.6
77 17.6
78 6.4
79 0.92
81 4.6
89 1.6
91 26.4
92 0.42
97 1.1
102 2.8
103 11.3
104 0.49
105 57.1
106 3.9
115 9.9
116 0.39
117 52.2
118 33.2
119 4.6
127 0.23
128 7.6
129 7.8
130 4.9
131 1.12
132 3.5
133 17.2
134 99.99
135 0.99
141 2.4
142 2.1
143 3.5
144 0.46
145 2.8
157 2.8
158 1.9
159 3.29
160 6.2
173 1.6
188 13.8
189 2.1

$$$$

     RDKit          2D

 14 15  0  0  0  0  0  0  0  0999 V2000
    1.3000   -1.5000    0.0000 C   0  0  0  0  0  0  0  0  0  0  0  0
    2.6000   -0.7500    0.0000 C   0  0  0  0  0  0  0  0  0  0  0  0
   -1.3000    1.5000    0.0000 C   0  0  0  0  0  0  0  0  0  0  0  0
   -2.6000    0.7500    0.0000 C   0  0  0  0  0  0  0  0  0  0  0  0
    1.3000    1.5000    0.0000 C   0  0  0  0  0  0  0  0  0  0  0  0
   -1.3000   -1.5000    0.0000 C   0  0  0  0  0  0  0  0  0  0  0  0
    0.0000    0.7500    0.0000 C   0  0  0  0  0  0  0  0  0  0  0  0
    0.0000   -0.7500    0.0000 C   0  0  0  0  0  0  0  0  0  0  0  0
    2.6000    0.7500    0.0000 C   0  0  0  0  0  0  0  0  0  0  0  0
   -2.6000   -0.7500    0.0000 C   0  0  0  0  0  0  0  0  0  0  0  0
    3.8989    1.5002    0.0000 C   0  0  0  0  0  0  0  0  0  0  0  0
   -3.8989   -1.5002    0.0000 O   0  0  0  0  0  0  0  0  0  0  0  0
    5.1981    0.7504    0.0000 O   0  0  0  0  0  0  0  0  0  0  0  0
    3.8987    3.0002    0.0000 O   0  0  0  0  0  0  0  0  0  0  0  0
  2  1  2  0
  4  3  1  0
  7  3  2  0
  7  5  1  0
  8  1  1  0
  8  6  2  0
  8  7  1  0
  9  2  1  0
  9  5  2  0
 10  4  2  0
 10  6  1  0
 11  9  1  0
 12 10  1  0
 13 11  1  0
 14 11  2  0
M  END
>  <NAME>  (1598) 
6-HYDROXY-2-CARBOXYLNAPHTHALENE

>  <SYNONYMS>  (1598) 
6-HYDROXY-2-NAPHTHOIC ACID

>  <SPECTRUM TYPE>  (1598) 
MS1

>  <INSTRUMENT TYPE>  (1598) 
EI-B

>  <INSTRUMENT>  (1598) 
JEOL JMS-D-300

>  <ION MODE>  (1598) 
P

>  <INCHIKEY>  (1598) 
KAUQJMHLAFIZDU-UHFFFAOYSA-N

>  <FORMULA>  (1598) 
C11H8O3

>  <EXACT MASS>  (1598) 
188.04734411599998

>  <MW>  (1598) 
188

>  <ID>  (1598) 
JP009820

>  <CONTRIBUTOR>  (1598) 
University of Tokyo Team, {Faculty of Engineering, University of Tokyo

>  <COMMENT>  (1598) 
SMILES=OC(=O)c(c2)cc(c1)c(c2)cc(O)c1
InChI=InChI=1S/C11H8O3/c12-10-4-3-7-5-9(11(13)14)2-1-8(7)6-10/h1-6,12H,(H,13,14)
computed SMILES=O=C(O)C1=CC=C2C=C(O)C=CC2=C1
exact mass=188.04734
ionization energy=70 eV
ion type=[M]+*
computed spectral entropy=1.7428816690440025
computed normalized entropy=0.6151607582607166
accession=JP009820
date=2016.01.19 (Created 2008.10.21, modified 2011.05.06)
author=KURARAY CO., LTD.
license=CC BY-NC-SA
SPLASH=splash10-000i-0900000000-52bd59e57cdd64c36b3c
submitter=submitter = University of Tokyo Team (Faculty of Engineering, University of Tokyo)
MoNA Rating=3.75

>  <NUM PEAKS>  (1598) 
17

>  <MASS SPECTRAL PEAKS>  (1598) 
62 1.6
63 3.1
71 3.3
80 0.53
85 1.6
89 1.9
113 1.7
114 0.41
115 10.8
142 2.8
143 29.5
144 0.3
159 1.7
171 51.6
172 5.9
188 99.99
189 11.7

$$$$

     RDKit          2D

 13 12  0  0  0  0  0  0  0  0999 V2000
    2.5981    4.5000    0.0000 C   0  0  0  0  0  0  0  0  0  0  0  0
   -7.7942    4.5000    0.0000 C   0  0  0  0  0  0  0  0  0  0  0  0
   -3.5623    3.3509    0.0000 C   0  0  0  0  0  0  0  0  0  0  0  0
   -1.6339    3.3509    0.0000 C   0  0  0  0  0  0  0  0  0  0  0  0
    1.2990    5.2500    0.0000 C   0  0  0  0  0  0  0  0  0  0  0  0
   -6.4952    5.2500    0.0000 C   0  0  0  0  0  0  0  0  0  0  0  0
   -1.2990    5.2500    0.0000 C   0  0  0  0  0  0  0  0  0  0  0  0
   -3.8971    5.2500    0.0000 C   0  0  0  0  0  0  0  0  0  0  0  0
   -2.5981    4.5000    0.0000 C   0  0  0  0  0  0  0  0  0  0  0  0
   -1.2990    6.7500    0.0000 O   0  0  0  0  0  0  0  0  0  0  0  0
   -3.8971    6.7500    0.0000 O   0  0  0  0  0  0  0  0  0  0  0  0
    0.0000    4.5000    0.0000 O   0  0  0  0  0  0  0  0  0  0  0  0
   -5.1962    4.5000    0.0000 O   0  0  0  0  0  0  0  0  0  0  0  0
  5  1  1  0
  6  2  1  0
  9  3  1  0
  9  4  1  0
  9  7  1  0
  9  8  1  0
 10  7  2  0
 11  8  2  0
 12  5  1  0
 12  7  1  0
 13  6  1  0
 13  8  1  0
M  END
>  <NAME>  (1599) 
DIETHYL 2,2-DIMETHYLMALONATE

>  <SYNONYMS>  (1599) 


>  <SPECTRUM TYPE>  (1599) 
MS1

>  <INSTRUMENT TYPE>  (1599) 
EI-B

>  <INSTRUMENT>  (1599) 
JEOL JMS-D-300

>  <ION MODE>  (1599) 
P

>  <INCHIKEY>  (1599) 
UELKSYXXNGHTSE-UHFFFAOYSA-N

>  <FORMULA>  (1599) 
C9H16O4

>  <EXACT MASS>  (1599) 
188.104858992

>  <MW>  (1599) 
188

>  <ID>  (1599) 
JP009819

>  <CONTRIBUTOR>  (1599) 
University of Tokyo Team, {Faculty of Engineering, University of Tokyo

>  <COMMENT>  (1599) 
SMILES=CCOC(=O)C(C)(C)C(=O)OCC
InChI=InChI=1S/C9H16O4/c1-5-12-7(10)9(3,4)8(11)13-6-2/h5-6H2,1-4H3
computed SMILES=O=C(OCC)C(C(=O)OCC)(C)C
accession=JP009819
date=2016.01.19 (Created 2008.10.21, modified 2011.05.06)
author=KURARAY CO., LTD.
license=CC BY-NC-SA
exact mass=188.10486
ionization energy=70 eV
ion type=[M]+*
computed spectral entropy=2.8688921713225524
computed normalized entropy=0.7627597796118676
SPLASH=splash10-000i-9300000000-6c4baca797334f6fb068
submitter=submitter = University of Tokyo Team (Faculty of Engineering, University of Tokyo)
MoNA Rating=3.75

>  <NUM PEAKS>  (1599) 
43

>  <MASS SPECTRAL PEAKS>  (1599) 
26 1.1
27 12.8
29 39.7
30 0.13
31 2.5
39 5.2
40 1.6
41 1.91
42 13.8
43 14.1
44 2.2
45 0.86
55 4.8
56 5.6
57 9.2
59 4.38
60 2.7
69 12.5
70 34.8
71 1.31
72 1.4
73 32.3
74 1.6
86 0.48
87 64.5
88 99.99
89 7.8
99 0.2
101 2.3
114 3.6
115 58.9
116 7.41
117 8.1
128 2.2
129 8.3
132 0.16
133 7.7
142 1.6
143 50.8
144 0.86
160 1.4
161 2.7
188 5.5

$$$$

     RDKit          2D

 13 12  0  0  0  0  0  0  0  0999 V2000
    2.9228    3.9375    0.0000 C   0  0  0  0  0  0  0  0  0  0  0  0
    1.6238    6.1875    0.0000 C   0  0  0  0  0  0  0  0  0  0  0  0
   -2.6082    5.8366    0.0000 C   0  0  0  0  0  0  0  0  0  0  0  0
   -0.9743    4.6875    0.0000 C   0  0  0  0  0  0  0  0  0  0  0  0
    0.3248    3.9375    0.0000 C   0  0  0  0  0  0  0  0  0  0  0  0
   -2.2733    3.9375    0.0000 C   0  0  0  0  0  0  0  0  0  0  0  0
   -6.1704    4.6875    0.0000 C   0  0  0  0  0  0  0  0  0  0  0  0
    1.6238    4.6875    0.0000 C   0  0  0  0  0  0  0  0  0  0  0  0
   -4.8714    3.9375    0.0000 C   0  0  0  0  0  0  0  0  0  0  0  0
   -3.5724    4.6875    0.0000 C   0  0  0  0  0  0  0  0  0  0  0  0
   -4.8714    2.4375    0.0000 N   0  0  0  0  0  0  0  0  0  0  0  0
   -7.4695    3.9375    0.0000 O   0  0  0  0  0  0  0  0  0  0  0  0
   -4.5365    5.8366    0.0000 O   0  0  0  0  0  0  0  0  0  0  0  0
  5  4  1  0
  6  4  1  0
  8  1  1  0
  8  2  1  0
  8  5  2  0
  9  7  1  0
 10  3  1  0
 10  6  1  0
 10  9  1  0
 11  9  1  0
 12  7  1  0
 13 10  1  0
M  END
>  <NAME>  (1600) 
2-AMINO-3,7-DIMETHYL-6-OCTENE-1,3-DIOL

>  <SYNONYMS>  (1600) 


>  <SPECTRUM TYPE>  (1600) 
MS1

>  <INSTRUMENT TYPE>  (1600) 
EI-B

>  <INSTRUMENT>  (1600) 
JEOL JMS-D-300

>  <ION MODE>  (1600) 
P

>  <INCHIKEY>  (1600) 
MYZAIZLYFVZBRQ-UHFFFAOYSA-N

>  <FORMULA>  (1600) 
C10H21NO2

>  <EXACT MASS>  (1600) 
187.157228912

>  <MW>  (1600) 
187

>  <ID>  (1600) 
JP009818

>  <CONTRIBUTOR>  (1600) 
University of Tokyo Team, {Faculty of Engineering, University of Tokyo

>  <COMMENT>  (1600) 
SMILES=OCC(N)C(C)(O)CCC=C(C)C
InChI=InChI=1S/C10H21NO2/c1-8(2)5-4-6-10(3,13)9(11)7-12/h5,9,12-13H,4,6-7,11H2,1-3H3
computed SMILES=OCC(N)C(O)(C)CCC=C(C)C
accession=JP009818
date=2016.01.19 (Created 2008.10.21, modified 2011.05.06)
author=KURARAY CO., LTD.
license=CC BY-NC-SA
exact mass=187.15723
ionization energy=70 eV
ion type=[M]+*
computed spectral entropy=2.9790300298957977
computed normalized entropy=0.7305953828451657
SPLASH=splash10-0006-9200000000-48702953e0bfab1e90d8
submitter=submitter = University of Tokyo Team (Faculty of Engineering, University of Tokyo)
MoNA Rating=3.75

>  <NUM PEAKS>  (1600) 
59

>  <MASS SPECTRAL PEAKS>  (1600) 
27 4.7
28 1.6
29 3.7
39 0.71
40 1.8
41 37
42 3
43 99.99
44 2.8
53 5.5
54 1.6
55 1.1
56 1.5
57 1.3
59 3.7
67 1.91
68 9.3
69 45.3
70 6.3
71 0.95
72 1.4
73 1.4
77 1.8
79 0.49
80 1.3
81 11.5
82 25.8
83 0.59
84 5
85 5.1
86 1.4
87 0.87
88 5.8
91 1.9
93 4.7
94 0.29
95 12
96 2
97 2.5
101 0.32
103 12.3
105 1.1
107 1.9
108 0.11
109 44.1
110 8.1
111 1.7
112 0.13
119 5.2
121 2.7
123 1.4
127 0.11
129 1.8
130 2.5
134 5.6
137 0.28
139 1.4
152 2.8
169 1

$$$$

     RDKit          2D

 13 12  0  0  0  0  0  0  0  0999 V2000
    3.8971    6.0000    0.0000 C   0  0  0  0  0  0  0  0  0  0  0  0
   -3.8971    6.0000    0.0000 C   0  0  0  0  0  0  0  0  0  0  0  0
   -5.1962    6.7500    0.0000 C   0  0  0  0  0  0  0  0  0  0  0  0
   -2.5981    6.7500    0.0000 C   0  0  0  0  0  0  0  0  0  0  0  0
   -6.4952    6.0000    0.0000 C   0  0  0  0  0  0  0  0  0  0  0  0
   -1.2990    6.0000    0.0000 C   0  0  0  0  0  0  0  0  0  0  0  0
   -7.7942    6.7500    0.0000 C   0  0  0  0  0  0  0  0  0  0  0  0
    0.0000    6.7500    0.0000 C   0  0  0  0  0  0  0  0  0  0  0  0
   -9.0933    6.0000    0.0000 C   0  0  0  0  0  0  0  0  0  0  0  0
    1.2990    6.0000    0.0000 C   0  0  0  0  0  0  0  0  0  0  0  0
  -10.3923    6.7500    0.0000 O   0  0  0  0  0  0  0  0  0  0  0  0
    1.2990    4.5000    0.0000 O   0  0  0  0  0  0  0  0  0  0  0  0
    2.5981    6.7500    0.0000 O   0  0  0  0  0  0  0  0  0  0  0  0
  3  2  1  0
  4  2  1  0
  5  3  1  0
  6  4  1  0
  7  5  1  0
  8  6  1  0
  9  7  1  0
 10  8  1  0
 11  9  2  0
 12 10  2  0
 13  1  1  0
 13 10  1  0
M  END
>  <NAME>  (1601) 
8-METHOXYCARBONYL OCTANAL

>  <SYNONYMS>  (1601) 
METHYL 8-FORMYLOCTANOATE

>  <SPECTRUM TYPE>  (1601) 
MS1

>  <INSTRUMENT TYPE>  (1601) 
EI-B

>  <INSTRUMENT>  (1601) 
JEOL JMS-D-300

>  <ION MODE>  (1601) 
P

>  <INCHIKEY>  (1601) 
JMLYDLZRFNYHHO-UHFFFAOYSA-N

>  <FORMULA>  (1601) 
C10H18O3

>  <EXACT MASS>  (1601) 
186.12559443599997

>  <MW>  (1601) 
186

>  <ID>  (1601) 
JP009817

>  <CONTRIBUTOR>  (1601) 
University of Tokyo Team, {Faculty of Engineering, University of Tokyo

>  <COMMENT>  (1601) 
SMILES=O=CCCCCCCCC(=O)OC
InChI=InChI=1S/C10H18O3/c1-13-10(12)8-6-4-2-3-5-7-9-11/h9H,2-8H2,1H3
computed SMILES=O=CCCCCCCCC(=O)OC
accession=JP009817
date=2016.01.19 (Created 2008.10.21, modified 2011.05.06)
author=KURARAY CO., LTD.
license=CC BY-NC-SA
exact mass=186.12559
ionization energy=70 eV
ion type=[M]+*
computed spectral entropy=3.5315039718682097
computed normalized entropy=0.8059065510748615
SPLASH=splash10-059f-9200000000-2ccb39254b2953efc602
submitter=submitter = University of Tokyo Team (Faculty of Engineering, University of Tokyo)
MoNA Rating=3.75

>  <NUM PEAKS>  (1601) 
80

>  <MASS SPECTRAL PEAKS>  (1601) 
27 14.3
28 14.7
29 17.5
31 0.31
32 12.9
39 14.2
41 39.8
42 1.07
43 45.1
44 8.3
45 6.5
51 0.16
53 6.7
54 5.8
55 64.9
56 0.56
57 16.4
58 4
59 30.5
60 0.2
65 1.8
66 2.3
67 20.7
68 1.06
69 29.7
70 6
71 3.7
72 0.1
73 3
74 99.99
75 7.1
76 0.13
77 2.5
78 1.3
79 5.5
80 0.4
81 8.8
82 9.7
83 46
84 1.13
85 3.2
86 2
87 66.4
88 0.55
93 4.4
94 11.4
95 9.1
96 0.13
97 5.9
98 10.4
99 2.1
100 0.13
101 9.7
102 1.3
107 2.7
108 0.45
109 12.5
110 6.2
111 46.9
112 0.61
113 2.3
115 12.1
119 1.3
121 0.12
124 1.3
125 2.9
126 3.8
127 0.25
129 3.9
130 2.1
135 1.9
136 0.76
137 1.7
143 39.6
144 4.4
154 0.39
155 23.9
156 2.3
158 12.5
159 1.3

$$$$

     RDKit          2D

 12 11  0  0  0  0  0  0  0  0999 V2000
   -6.8200    5.0625    0.0000 C   0  0  0  0  0  0  0  0  0  0  0  0
   -5.5209    2.8125    0.0000 C   0  0  0  0  0  0  0  0  0  0  0  0
   -0.3248    2.8125    0.0000 C   0  0  0  0  0  0  0  0  0  0  0  0
   -1.6238    5.0625    0.0000 C   0  0  0  0  0  0  0  0  0  0  0  0
   -2.9228    4.3125    0.0000 C   0  0  0  0  0  0  0  0  0  0  0  0
    0.9743    5.0625    0.0000 C   0  0  0  0  0  0  0  0  0  0  0  0
    2.2733    4.3125    0.0000 C   0  0  0  0  0  0  0  0  0  0  0  0
   -5.5209    4.3125    0.0000 C   0  0  0  0  0  0  0  0  0  0  0  0
   -0.3248    4.3125    0.0000 C   0  0  0  0  0  0  0  0  0  0  0  0
   -4.2219    5.0625    0.0000 C   0  0  0  0  0  0  0  0  0  0  0  0
   -4.2219    6.5625    0.0000 Cl  0  0  0  0  0  0  0  0  0  0  0  0
    3.5724    5.0625    0.0000 O   0  0  0  0  0  0  0  0  0  0  0  0
  5  4  1  0
  7  6  1  0
  8  1  2  0
  8  2  1  0
  9  3  1  0
  9  4  1  0
  6  9  2  0
 10  5  1  0
 10  8  1  0
 11 10  1  0
 12  7  2  0
M  END
>  <NAME>  (1602) 
6-CHLORO-3,7-DIMETHYL-2,7-OCTADIENAL

>  <SYNONYMS>  (1602) 


>  <SPECTRUM TYPE>  (1602) 
MS1

>  <INSTRUMENT TYPE>  (1602) 
EI-B

>  <INSTRUMENT>  (1602) 
JEOL JMS-D-300

>  <ION MODE>  (1602) 
P

>  <INCHIKEY>  (1602) 
AUSCHJGENLMKTA-RMKNXTFCSA-N

>  <FORMULA>  (1602) 
C10H15ClO

>  <EXACT MASS>  (1602) 
186.08114278

>  <MW>  (1602) 
186

>  <ID>  (1602) 
JP009816

>  <CONTRIBUTOR>  (1602) 
University of Tokyo Team, {Faculty of Engineering, University of Tokyo

>  <COMMENT>  (1602) 
SMILES=O=CC=C(C)CCC(Cl)C(C)=C
InChI=InChI=1S/C10H15ClO/c1-8(2)10(11)5-4-9(3)6-7-12/h6-7,10H,1,4-5H2,2-3H3/b9-6+
computed SMILES=O=CC=C(C)CCC(Cl)C(=C)C
accession=JP009816
date=2016.01.19 (Created 2008.10.21, modified 2011.05.06)
author=KURARAY CO., LTD.
license=CC BY-NC-SA
exact mass=186.08114
ionization energy=70 eV
ion type=[M]+*
computed spectral entropy=3.776753488760689
computed normalized entropy=0.8594372936924348
SPLASH=splash10-00l7-9200000000-c090b16005a4e67f031c
submitter=submitter = University of Tokyo Team (Faculty of Engineering, University of Tokyo)
MoNA Rating=3.75

>  <NUM PEAKS>  (1602) 
81

>  <MASS SPECTRAL PEAKS>  (1602) 
27 31.9
28 10.3
29 28.5
36 0.53
38 4.1
39 57.2
40 13.1
41 99.99
42 7.4
43 33.4
50 3.9
51 1.13
52 5.9
53 53.4
54 16.6
55 5.13
56 10.6
57 7.8
59 4.1
63 0.52
65 13
66 6.3
67 73.3
68 7.1
69 42.8
70 3.9
71 11.5
75 0.86
77 17.7
78 3.5
79 32.1
80 1.21
81 55.1
82 45
83 30.5
84 7.26
85 4.4
89 10.1
90 19.3
91 2.46
92 11
93 30.7
94 15.7
95 6.76
96 8.4
97 83.6
98 5.5
102 1.77
103 6.3
104 7.4
105 19
106 0.88
107 30.1
108 9.3
109 47.3
110 0.71
115 3.3
117 8.5
118 23.7
119 0.61
120 9.6
121 20.5
122 9.3
123 1.56
124 8.4
129 2.2
130 2.7
131 0.21
132 3.9
133 12.6
135 17.1
136 0.23
142 7.4
143 2.1
144 3.3
150 0.52
151 21.6
152 2.6
157 2
171 1.33
173 5.2

$$$$

     RDKit          2D

 13 12  0  0  0  0  0  0  0  0999 V2000
   -9.7428    5.6250    0.0000 C   0  0  0  0  0  0  0  0  0  0  0  0
    3.2476    5.6250    0.0000 C   0  0  0  0  0  0  0  0  0  0  0  0
    0.6495    7.1250    0.0000 C   0  0  0  0  0  0  0  0  0  0  0  0
   -8.4437    4.8750    0.0000 C   0  0  0  0  0  0  0  0  0  0  0  0
    1.9486    4.8750    0.0000 C   0  0  0  0  0  0  0  0  0  0  0  0
   -7.1447    5.6250    0.0000 C   0  0  0  0  0  0  0  0  0  0  0  0
   -5.8457    4.8750    0.0000 C   0  0  0  0  0  0  0  0  0  0  0  0
   -4.5466    5.6250    0.0000 C   0  0  0  0  0  0  0  0  0  0  0  0
   -3.2476    4.8750    0.0000 C   0  0  0  0  0  0  0  0  0  0  0  0
   -0.6495    4.8750    0.0000 C   0  0  0  0  0  0  0  0  0  0  0  0
    0.6495    5.6250    0.0000 C   0  0  0  0  0  0  0  0  0  0  0  0
   -1.9486    5.6250    0.0000 C   0  0  0  0  0  0  0  0  0  0  0  0
   -1.9486    7.1250    0.0000 O   0  0  0  0  0  0  0  0  0  0  0  0
  4  1  1  0
  5  2  2  0
  6  4  1  0
  7  6  1  0
  8  7  1  0
  9  8  1  0
 11  3  1  0
 11  5  1  0
 11 10  1  0
 12  9  1  0
 12 10  1  0
 13 12  1  0
M  END
>  <NAME>  (1603) 
5-HYDROXY-3-METHYL-1-UNDECENE

>  <SYNONYMS>  (1603) 


>  <SPECTRUM TYPE>  (1603) 
MS1

>  <INSTRUMENT TYPE>  (1603) 
EI-B

>  <INSTRUMENT>  (1603) 
JEOL JMS-D-300

>  <ION MODE>  (1603) 
P

>  <INCHIKEY>  (1603) 
ONXKCUDRJQBVFX-UHFFFAOYSA-N

>  <FORMULA>  (1603) 
C12H24O

>  <EXACT MASS>  (1603) 
184.182715388

>  <MW>  (1603) 
184

>  <ID>  (1603) 
JP009815

>  <CONTRIBUTOR>  (1603) 
University of Tokyo Team, {Faculty of Engineering, University of Tokyo

>  <COMMENT>  (1603) 
SMILES=CCCCCCC(O)CC(C)C=C
InChI=InChI=1S/C12H24O/c1-4-6-7-8-9-12(13)10-11(3)5-2/h5,11-13H,2,4,6-10H2,1,3H3
computed SMILES=OC(CCCCCC)CC(C=C)C
accession=JP009815
date=2016.01.19 (Created 2008.10.21, modified 2011.05.06)
author=KURARAY CO., LTD.
license=CC BY-NC-SA
exact mass=184.18272
ionization energy=70 eV
ion type=[M]+*
computed spectral entropy=2.9213270878479896
computed normalized entropy=0.7719822129588051
SPLASH=splash10-0ab9-9000000000-dc82a535b0cc1fa15d18
submitter=submitter = University of Tokyo Team (Faculty of Engineering, University of Tokyo)
MoNA Rating=3.75

>  <NUM PEAKS>  (1603) 
44

>  <MASS SPECTRAL PEAKS>  (1603) 
27 7.2
28 3
29 11.8
31 0.19
39 6.4
41 21.8
42 7.1
43 3.39
44 3.5
45 1.8
53 4.4
54 0.34
55 99.99
56 7.8
57 8.6
58 1.3
59 4
67 7.4
68 33.2
69 2.17
70 41.5
71 17.1
72 2.8
79 0.18
81 47.2
82 8.2
83 2.8
85 0.43
86 1.4
95 10.8
96 7.4
97 2.74
98 2.5
99 14.2
109 5.2
110 0.72
113 3
115 3.6
123 1.4
128 0.38
129 1.6
137 1.8
155 5.5
166 1.8

$$$$

     RDKit          2D

 13 13  0  0  0  0  0  0  0  0999 V2000
    2.9180    2.1136    0.0000 C   0  0  0  0  0  0  0  0  0  0  0  0
   -2.6350    2.6351    0.0000 C   0  0  0  0  0  0  0  0  0  0  0  0
   -3.5990    0.9648    0.0000 C   0  0  0  0  0  0  0  0  0  0  0  0
   -1.7862   -2.1749    0.0000 C   0  0  0  0  0  0  0  0  0  0  0  0
    0.1422   -2.1753    0.0000 C   0  0  0  0  0  0  0  0  0  0  0  0
    1.9540    0.9644    0.0000 C   0  0  0  0  0  0  0  0  0  0  0  0
   -0.8228    1.9756    0.0000 C   0  0  0  0  0  0  0  0  0  0  0  0
    0.4772   -0.2761    0.0000 C   0  0  0  0  0  0  0  0  0  0  0  0
   -2.1218    1.2256    0.0000 C   0  0  0  0  0  0  0  0  0  0  0  0
   -0.8218   -1.0261    0.0000 C   0  0  0  0  0  0  0  0  0  0  0  0
    0.4767    1.2248    0.0000 C   0  0  0  0  0  0  0  0  0  0  0  0
   -2.1213   -0.2752    0.0000 N   0  0  0  0  0  0  0  0  0  0  0  0
    0.9899    2.6342    0.0000 O   0  0  0  0  0  0  0  0  0  0  0  0
  6  1  2  0
  9  2  1  0
  9  3  1  0
  9  7  1  0
 10  4  1  0
 10  5  1  0
 10  8  1  0
 11  6  1  0
 11  7  1  0
 11  8  1  0
 12  9  1  0
 12 10  1  0
 13 11  1  0
M  END
>  <NAME>  (1604) 
4-ETHENYL-4-HYDROXY-2,2,6,6-TETRAMETHYLPIPERIDINE

>  <SYNONYMS>  (1604) 


>  <SPECTRUM TYPE>  (1604) 
MS1

>  <INSTRUMENT TYPE>  (1604) 
EI-B

>  <INSTRUMENT>  (1604) 
JEOL JMS-D-300

>  <ION MODE>  (1604) 
P

>  <INCHIKEY>  (1604) 
KSGXXSJRSQQSOW-UHFFFAOYSA-N

>  <FORMULA>  (1604) 
C11H21NO

>  <EXACT MASS>  (1604) 
183.162314292

>  <MW>  (1604) 
183

>  <ID>  (1604) 
JP009814

>  <CONTRIBUTOR>  (1604) 
University of Tokyo Team, {Faculty of Engineering, University of Tokyo

>  <COMMENT>  (1604) 
SMILES=C=CC(O)(C1)CC(C)(C)NC(C)(C)1
InChI=InChI=1S/C11H21NO/c1-6-11(13)7-9(2,3)12-10(4,5)8-11/h6,12-13H,1,7-8H2,2-5H3
computed SMILES=OC1(C=C)CC(NC(C)(C)C1)(C)C
accession=JP009814
date=2016.01.19 (Created 2008.10.21, modified 2011.05.06)
author=KURARAY CO., LTD.
license=CC BY-NC-SA
exact mass=183.16231
ionization energy=70 eV
ion type=[M]+*
computed spectral entropy=2.635122902486893
computed normalized entropy=0.7673653818643084
SPLASH=splash10-014i-9500000000-5d80dde1969708a4029f
submitter=submitter = University of Tokyo Team (Faculty of Engineering, University of Tokyo)
MoNA Rating=3.75

>  <NUM PEAKS>  (1604) 
31

>  <MASS SPECTRAL PEAKS>  (1604) 
27 7.8
29 3.1
39 6.1
40 0.17
41 15
42 25.8
43 8.1
53 0.23
55 39.7
56 4.8
57 7.2
58 7.38
59 3.8
67 2
69 2.5
70 0.48
71 9.8
72 7.3
77 2.5
83 0.23
84 10
91 3.1
93 2.2
98 4.38
99 26.4
100 1.7
111 6.1
112 0.86
150 10.2
168 99.99
169 12.3

$$$$

     RDKit          2D

 13 13  0  0  0  0  0  0  0  0999 V2000
    3.5733   -2.0631    0.0000 C   0  0  0  0  0  0  0  0  0  0  0  0
    2.2739    0.1867    0.0000 C   0  0  0  0  0  0  0  0  0  0  0  0
   -6.8196   -2.0633    0.0000 C   0  0  0  0  0  0  0  0  0  0  0  0
    0.9752   -2.0635    0.0000 C   0  0  0  0  0  0  0  0  0  0  0  0
   -5.5210    0.1875    0.0000 C   0  0  0  0  0  0  0  0  0  0  0  0
   -0.3239   -1.3137    0.0000 C   0  0  0  0  0  0  0  0  0  0  0  0
   -4.2220    0.9375    0.0000 C   0  0  0  0  0  0  0  0  0  0  0  0
   -4.2210   -2.0642    0.0000 C   0  0  0  0  0  0  0  0  0  0  0  0
    2.2742   -1.3133    0.0000 C   0  0  0  0  0  0  0  0  0  0  0  0
   -5.5206   -1.3133    0.0000 C   0  0  0  0  0  0  0  0  0  0  0  0
   -2.9220   -1.3142    0.0000 C   0  0  0  0  0  0  0  0  0  0  0  0
   -1.6228   -2.0640    0.0000 O   0  0  0  0  0  0  0  0  0  0  0  0
   -2.9225    0.1867    0.0000 O   0  0  0  0  0  0  0  0  0  0  0  0
  6  4  1  0
  7  5  1  0
  9  1  1  0
  9  2  1  0
  9  4  2  0
 10  3  1  0
 10  5  2  0
 10  8  1  0
 11  8  1  0
 12  6  1  0
 12 11  1  0
 13  7  1  0
 13 11  1  0
M  END
>  <NAME>  (1605) 
6-(3-METHYL-2-BUTENOXY)-4-METHYL-5,6-DIHYDRO-2H-PYRAN

>  <SYNONYMS>  (1605) 


>  <SPECTRUM TYPE>  (1605) 
MS1

>  <INSTRUMENT TYPE>  (1605) 
EI-B

>  <INSTRUMENT>  (1605) 
JEOL JMS-D-300

>  <ION MODE>  (1605) 
P

>  <INCHIKEY>  (1605) 
MSJLAJXSUADVQP-UHFFFAOYSA-N

>  <FORMULA>  (1605) 
C11H18O2

>  <EXACT MASS>  (1605) 
182.130679816

>  <MW>  (1605) 
182

>  <ID>  (1605) 
JP009813

>  <CONTRIBUTOR>  (1605) 
University of Tokyo Team, {Faculty of Engineering, University of Tokyo

>  <COMMENT>  (1605) 
SMILES=CC(C)=CCOC(O1)CC(C)=CC1
InChI=InChI=1S/C11H18O2/c1-9(2)4-6-12-11-8-10(3)5-7-13-11/h4-5,11H,6-8H2,1-3H3
computed SMILES=O(CC=C(C)C)C1OCC=C(C)C1
accession=JP009813
date=2016.01.19 (Created 2008.10.21, modified 2011.05.06)
author=KURARAY CO., LTD.
license=CC BY-NC-SA
exact mass=182.13068
ionization energy=70 eV
ion type=[M]+*
computed spectral entropy=3.0445720220385626
computed normalized entropy=0.8094682357727052
SPLASH=splash10-0077-9000000000-9dae300b90be8d38bac1
submitter=submitter = University of Tokyo Team (Faculty of Engineering, University of Tokyo)
MoNA Rating=3.75

>  <NUM PEAKS>  (1605) 
43

>  <MASS SPECTRAL PEAKS>  (1605) 
26 3.9
27 32.8
28 7
29 2.27
31 11.6
32 10.6
37 3.3
38 0.92
39 64.2
40 27.8
41 85.9
42 1.33
43 37.5
44 4.7
45 4.7
50 0.75
51 10.8
52 4.4
53 53.9
54 0.44
55 11.4
56 1.9
57 4.7
63 0.28
65 13.9
66 5
67 45
68 2.09
69 16.6
71 99.99
72 4.8
77 0.22
81 51.4
82 3
83 2.7
84 0.17
85 5.3
86 26.6
95 57.2
96 9.38
97 62.3
98 4.4
113 8.8

$$$$

     RDKit          2D

 13 14  0  0  0  0  0  0  0  0999 V2000
   -3.5728   -0.6166    0.0000 C   0  0  0  0  0  0  0  0  0  0  0  0
   -2.2733   -1.3674    0.0000 C   0  0  0  0  0  0  0  0  0  0  0  0
   -3.5733    0.8843    0.0000 C   0  0  0  0  0  0  0  0  0  0  0  0
    2.9243    1.6330    0.0000 C   0  0  0  0  0  0  0  0  0  0  0  0
    2.9246    3.1330    0.0000 C   0  0  0  0  0  0  0  0  0  0  0  0
   -0.9742   -0.6174    0.0000 C   0  0  0  0  0  0  0  0  0  0  0  0
   -2.2742    1.6343    0.0000 C   0  0  0  0  0  0  0  0  0  0  0  0
    1.6242    0.8832    0.0000 C   0  0  0  0  0  0  0  0  0  0  0  0
    1.6247    3.8832    0.0000 C   0  0  0  0  0  0  0  0  0  0  0  0
   -0.9747    0.8834    0.0000 C   0  0  0  0  0  0  0  0  0  0  0  0
    0.3243    1.6334    0.0000 C   0  0  0  0  0  0  0  0  0  0  0  0
    0.3246    3.1334    0.0000 C   0  0  0  0  0  0  0  0  0  0  0  0
   -0.9742    3.8839    0.0000 O   0  0  0  0  0  0  0  0  0  0  0  0
  2  1  1  0
  3  1  1  0
  5  4  1  0
  6  2  1  0
  7  3  1  0
  8  4  1  0
  9  5  1  0
 10  6  1  0
 10  7  1  0
 11  8  1  0
 11 10  1  0
 12  9  1  0
 12 11  1  0
 13 12  1  0
M  END
>  <NAME>  (1606) 
2-CYCLOHEXYLCYCLOHEXANOL

>  <SYNONYMS>  (1606) 


>  <SPECTRUM TYPE>  (1606) 
MS1

>  <INSTRUMENT TYPE>  (1606) 
EI-B

>  <INSTRUMENT>  (1606) 
JEOL JMS

>  <ION MODE>  (1606) 
P

>  <INCHIKEY>  (1606) 
YTWWBKKPWACPPB-UHFFFAOYSA-N

>  <FORMULA>  (1606) 
C12H22O

>  <EXACT MASS>  (1606) 
182.167065324

>  <MW>  (1606) 
182

>  <ID>  (1606) 
JP009812

>  <CONTRIBUTOR>  (1606) 
University of Tokyo Team, {Faculty of Engineering, University of Tokyo

>  <COMMENT>  (1606) 
SMILES=OC(C2)C(CCC2)C(C1)CCCC1
InChI=InChI=1S/C12H22O/c13-12-9-5-4-8-11(12)10-6-2-1-3-7-10/h10-13H,1-9H2
computed SMILES=OC1CCCCC1C2CCCCC2
accession=JP009812
date=2016.01.19 (Created 2008.10.21, modified 2011.05.06)
author=KURARAY CO., LTD.
license=CC BY-NC-SA
exact mass=182.16707
ionization energy=70 eV
ion type=[M]+*
computed spectral entropy=3.024608620745048
computed normalized entropy=0.7945565515390732
SPLASH=splash10-001i-9100000000-3e2df0205380e831faa7
submitter=submitter = University of Tokyo Team (Faculty of Engineering, University of Tokyo)
MoNA Rating=3.75

>  <NUM PEAKS>  (1606) 
45

>  <MASS SPECTRAL PEAKS>  (1606) 
27 4
29 4.9
39 5.4
41 2.22
42 2
43 6.8
44 1
53 0.46
54 10.5
55 41.2
56 3.3
57 0.7
66 2.8
67 53.6
68 13.1
69 0.91
70 3.3
71 2.5
77 2.1
79 0.53
80 14.2
81 45.2
82 99.99
83 4.67
84 3.9
93 6.8
94 10.4
95 1.42
96 30.6
97 17.6
98 6.5
101 0.23
107 7.5
108 9.2
109 10.1
110 0.19
121 12.7
122 10.1
123 3.6
125 0.18
135 11.1
136 3.5
149 3.6
164 5.69
165 7.7

$$$$

     RDKit          2D

 13 13  0  0  0  0  0  0  0  0999 V2000
   -3.8976    3.7504    0.0000 C   0  0  0  0  0  0  0  0  0  0  0  0
   -2.5989   -1.5002    0.0000 C   0  0  0  0  0  0  0  0  0  0  0  0
    1.8127   -2.1596    0.0000 C   0  0  0  0  0  0  0  0  0  0  0  0
    2.7772   -0.4897    0.0000 C   0  0  0  0  0  0  0  0  0  0  0  0
   -2.5987    3.0002    0.0000 C   0  0  0  0  0  0  0  0  0  0  0  0
   -0.0000    1.5000    0.0000 C   0  0  0  0  0  0  0  0  0  0  0  0
    1.3000    0.7500    0.0000 C   0  0  0  0  0  0  0  0  0  0  0  0
   -1.3000   -0.7500    0.0000 C   0  0  0  0  0  0  0  0  0  0  0  0
   -1.3000    0.7500    0.0000 C   0  0  0  0  0  0  0  0  0  0  0  0
   -2.5989    1.5002    0.0000 C   0  0  0  0  0  0  0  0  0  0  0  0
    1.3000   -0.7500    0.0000 C   0  0  0  0  0  0  0  0  0  0  0  0
   -3.8981    0.7504    0.0000 O   0  0  0  0  0  0  0  0  0  0  0  0
   -0.0000   -1.5000    0.0000 O   0  0  0  0  0  0  0  0  0  0  0  0
  5  1  1  0
  7  6  1  0
  8  2  1  0
  9  6  1  0
  9  8  2  0
 10  5  1  0
 10  9  1  0
 11  3  1  0
 11  4  1  0
 11  7  1  0
 12 10  2  0
 13  8  1  0
 13 11  1  0
M  END
>  <NAME>  (1607) 
2,6,6-TRIMETHYL-3-ETHYLCARBONYL-5,6-DIHYDRO-4H-PYRAN

>  <SYNONYMS>  (1607) 
5-PROPIONYL-2,2,6-TRIMETHYL-3,4-DIHYDRO-2H-PYRAN

>  <SPECTRUM TYPE>  (1607) 
MS1

>  <INSTRUMENT TYPE>  (1607) 
EI-B

>  <INSTRUMENT>  (1607) 
JEOL JMS-D-300

>  <ION MODE>  (1607) 
P

>  <INCHIKEY>  (1607) 
ZERLPEUSKXJNAS-UHFFFAOYSA-N

>  <FORMULA>  (1607) 
C11H18O2

>  <EXACT MASS>  (1607) 
182.130679816

>  <MW>  (1607) 
182

>  <ID>  (1607) 
JP009811

>  <CONTRIBUTOR>  (1607) 
University of Tokyo Team, {Faculty of Engineering, University of Tokyo

>  <COMMENT>  (1607) 
SMILES=CCC(=O)C(C1)=C(C)OC(C)(C)C1
InChI=InChI=1S/C11H18O2/c1-5-10(12)9-6-7-11(3,4)13-8(9)2/h5-7H2,1-4H3
computed SMILES=O=C(C1=C(OC(C)(C)CC1)C)CC
accession=JP009811
date=2016.01.19 (Created 2008.10.21, modified 2011.05.06)
author=KURARAY CO., LTD.
license=CC BY-NC-SA
exact mass=182.13068
ionization energy=70 eV
ion type=[M]+*
computed spectral entropy=2.8600832468992445
computed normalized entropy=0.7604177280984283
SPLASH=splash10-0pbd-9500000000-01d7e51cfb81713a56ac
submitter=submitter = University of Tokyo Team (Faculty of Engineering, University of Tokyo)
MoNA Rating=3.75

>  <NUM PEAKS>  (1607) 
43

>  <MASS SPECTRAL PEAKS>  (1607) 
27 9.7
29 25.4
39 8.4
40 0.24
41 18.6
43 72.7
44 2.3
53 0.4
55 34
56 25.3
57 49.3
58 0.21
67 5.1
69 4.5
71 2.5
79 0.27
81 3
83 4.4
85 4.5
91 0.2
93 3.2
95 3.1
97 59.9
98 0.36
107 5.8
108 2.2
109 5.7
111 1.47
121 3.2
125 7.3
126 3.2
127 2.64
128 2.5
135 15.6
136 1.8
139 0.91
140 2.1
149 8.2
153 99.99
154 1.05
167 3.8
182 35.7
183 6.6

$$$$

     RDKit          2D

 10  9  0  0  0  0  0  0  0  0999 V2000
   -3.2476    1.8750    0.0000 C   0  0  0  0  0  0  0  0  0  0  0  0
    1.9486    3.3750    0.0000 C   0  0  0  0  0  0  0  0  0  0  0  0
   -4.5466    4.1250    0.0000 C   0  0  0  0  0  0  0  0  0  0  0  0
   -3.2476    3.3750    0.0000 C   0  0  0  0  0  0  0  0  0  0  0  0
   -1.9486    4.1250    0.0000 C   0  0  0  0  0  0  0  0  0  0  0  0
   -0.6495    3.3750    0.0000 C   0  0  0  0  0  0  0  0  0  0  0  0
   -5.8457    3.3750    0.0000 Cl  0  0  0  0  0  0  0  0  0  0  0  0
   -1.9486    5.6250    0.0000 Cl  0  0  0  0  0  0  0  0  0  0  0  0
   -0.6495    1.8750    0.0000 O   0  0  0  0  0  0  0  0  0  0  0  0
    0.6495    4.1250    0.0000 O   0  0  0  0  0  0  0  0  0  0  0  0
  4  1  2  0
  4  3  1  0
  5  4  1  0
  6  5  1  0
  7  3  1  0
  8  5  1  0
  9  6  2  0
 10  2  1  0
 10  6  1  0
M  END
>  <NAME>  (1608) 
METHYL 2,4-DICHLORO-3-METHYLENEBUTYRATE

>  <SYNONYMS>  (1608) 


>  <SPECTRUM TYPE>  (1608) 
MS1

>  <INSTRUMENT TYPE>  (1608) 
EI-B

>  <INSTRUMENT>  (1608) 
JEOL JMS-D-300

>  <ION MODE>  (1608) 
P

>  <INCHIKEY>  (1608) 
YRNAQLFSLJHQFK-UHFFFAOYSA-N

>  <FORMULA>  (1608) 
C6H8Cl2O2

>  <EXACT MASS>  (1608) 
181.990134856

>  <MW>  (1608) 
182

>  <ID>  (1608) 
JP009810

>  <CONTRIBUTOR>  (1608) 
University of Tokyo Team, {Faculty of Engineering, University of Tokyo

>  <COMMENT>  (1608) 
SMILES=COC(=O)C(Cl)C(=C)CCl
InChI=InChI=1S/C6H8Cl2O2/c1-4(3-7)5(8)6(9)10-2/h5H,1,3H2,2H3
computed SMILES=O=C(OC)C(Cl)C(=C)CCl
accession=JP009810
date=2016.01.19 (Created 2008.10.21, modified 2011.05.06)
author=KURARAY CO., LTD.
license=CC BY-NC-SA
exact mass=181.99013
ionization energy=70 eV
ion type=[M]+*
computed spectral entropy=3.245737238967317
computed normalized entropy=0.825503860586609
SPLASH=splash10-0002-9800000000-63f3ce89d7ca81b018b9
submitter=submitter = University of Tokyo Team (Faculty of Engineering, University of Tokyo)
MoNA Rating=3.75

>  <NUM PEAKS>  (1608) 
51

>  <MASS SPECTRAL PEAKS>  (1608) 
27 9.5
29 3.6
36 8.7
38 1.07
39 14.9
41 3.4
42 6.5
43 0.74
44 1.6
45 5.2
49 6.5
50 0.87
51 24.8
52 7.2
53 31.6
54 0.72
55 6.8
58 1.2
59 60.4
61 0.74
67 9.4
73 8.8
75 4.5
81 0.79
82 6.9
83 5.1
87 36.2
88 1.98
89 18.2
90 7.9
91 9.7
108 0.74
111 5.6
112 7.8
113 10.1
115 0.58
116 10.4
117 18.2
118 5.2
119 0.74
123 29.1
125 20.8
131 3.9
146 0.7
147 99.99
148 15.5
149 36.4
150 0.75
151 5.5
153 4
182 4.3

$$$$

     RDKit          2D

 13 12  0  0  0  0  0  0  0  0999 V2000
    2.9228    6.1875    0.0000 C   0  0  0  0  0  0  0  0  0  0  0  0
  -10.0675    6.1875    0.0000 C   0  0  0  0  0  0  0  0  0  0  0  0
   -8.7685    3.9375    0.0000 C   0  0  0  0  0  0  0  0  0  0  0  0
    1.6238    6.9375    0.0000 C   0  0  0  0  0  0  0  0  0  0  0  0
   -8.7685    6.9375    0.0000 C   0  0  0  0  0  0  0  0  0  0  0  0
   -7.4695    4.6875    0.0000 C   0  0  0  0  0  0  0  0  0  0  0  0
    0.3248    6.1875    0.0000 C   0  0  0  0  0  0  0  0  0  0  0  0
   -0.9743    6.9375    0.0000 C   0  0  0  0  0  0  0  0  0  0  0  0
   -2.2733    6.1875    0.0000 C   0  0  0  0  0  0  0  0  0  0  0  0
   -3.5724    6.9375    0.0000 C   0  0  0  0  0  0  0  0  0  0  0  0
   -4.8714    6.1875    0.0000 C   0  0  0  0  0  0  0  0  0  0  0  0
   -6.1704    6.9375    0.0000 C   0  0  0  0  0  0  0  0  0  0  0  0
   -7.4695    6.1875    0.0000 N   0  0  0  0  0  0  0  0  0  0  0  0
  4  1  2  0
  5  2  1  0
  6  3  1  0
  7  4  1  0
  8  7  1  0
  9  8  1  0
 10  9  1  0
 10 11  2  0
 12 11  1  0
 13  5  1  0
 13  6  1  0
 13 12  1  0
M  END
>  <NAME>  (1609) 
N,N-DIETHYL-2,7-OCTADIENYLAMINE

>  <SYNONYMS>  (1609) 


>  <SPECTRUM TYPE>  (1609) 
MS1

>  <INSTRUMENT TYPE>  (1609) 
EI-B

>  <INSTRUMENT>  (1609) 
JEOL JMS-D-300

>  <ION MODE>  (1609) 
P

>  <INCHIKEY>  (1609) 
ZDIDSJWITLGYFN-ZHACJKMWSA-N

>  <FORMULA>  (1609) 
C12H23N

>  <EXACT MASS>  (1609) 
181.183049736

>  <MW>  (1609) 
181

>  <ID>  (1609) 
JP009809

>  <CONTRIBUTOR>  (1609) 
University of Tokyo Team, {Faculty of Engineering, University of Tokyo

>  <COMMENT>  (1609) 
SMILES=C=CCCCC=CCN(CC)CC
InChI=InChI=1S/C12H23N/c1-4-7-8-9-10-11-12-13(5-2)6-3/h4,10-11H,1,5-9,12H2,2-3H3/b11-10+
computed SMILES=C=CCCCC=CCN(CC)CC
accession=JP009809
date=2016.01.19 (Created 2008.10.21, modified 2011.05.06)
author=KURARAY CO., LTD.
license=CC BY-NC-SA
exact mass=181.18305
ionization energy=70 eV
ion type=[M]+*
computed spectral entropy=3.1655442122400577
computed normalized entropy=0.7700416789306286
SPLASH=splash10-066r-9200000000-c80f069f3875a73e0def
submitter=submitter = University of Tokyo Team (Faculty of Engineering, University of Tokyo)
MoNA Rating=3.75

>  <NUM PEAKS>  (1609) 
61

>  <MASS SPECTRAL PEAKS>  (1609) 
26 4.2
27 10.6
28 3.9
29 1.56
30 11.3
39 10.8
40 3
41 2.41
42 15.3
43 46.6
44 3.9
53 0.78
54 14.1
55 31.3
56 17.6
57 0.66
58 99.99
59 5.9
65 3.4
66 0.31
67 90.5
68 8.8
69 2.8
70 0.47
71 7.7
72 17.2
73 31.4
74 0.3
77 3
79 7.5
80 6.3
81 1.13
82 4.7
83 1.6
84 5.6
85 0.19
86 50.9
87 3.4
91 1.9
93 0.36
94 1.9
96 3.8
97 1.7
98 0.55
99 7.8
100 1.6
107 1.9
108 0.36
109 20.8
110 6.9
111 1.7
112 0.98
124 2.3
126 5.5
138 9.4
152 0.16
166 92
167 11.6
180 8.4
181 1.66
182 3

$$$$

     RDKit          2D

 13 14  0  0  0  0  0  0  0  0999 V2000
    7.6332    1.0841    0.0000 C   0  0  0  0  0  0  0  0  0  0  0  0
   -0.6759    1.4813    0.0000 C   0  0  0  0  0  0  0  0  0  0  0  0
   -0.6759   -2.3013    0.0000 C   0  0  0  0  0  0  0  0  0  0  0  0
    2.4475    2.5900    0.0000 C   0  0  0  0  0  0  0  0  0  0  0  0
    6.3331    0.3361    0.0000 C   0  0  0  0  0  0  0  0  0  0  0  0
    1.1450   -1.1600    0.0000 C   0  0  0  0  0  0  0  0  0  0  0  0
    1.1450    0.3400    0.0000 C   0  0  0  0  0  0  0  0  0  0  0  0
    3.7350   -1.1600    0.0000 C   0  0  0  0  0  0  0  0  0  0  0  0
    2.4450   -1.9100    0.0000 C   0  0  0  0  0  0  0  0  0  0  0  0
    3.7350    0.3400    0.0000 C   0  0  0  0  0  0  0  0  0  0  0  0
    1.5750   -0.4100    0.0000 C   0  0  0  0  0  0  0  0  0  0  0  0
    2.4450    1.0900    0.0000 C   0  0  0  0  0  0  0  0  0  0  0  0
    5.0352    1.0880    0.0000 O   0  0  0  0  0  0  0  0  0  0  0  0
  5  1  2  0
  7  6  1  0
  9  6  1  0
  9  8  1  0
 10  8  1  0
 11  2  1  0
 11  3  1  0
 11  9  1  0
 12  4  1  0
 12  7  1  0
 12 10  1  0
 12 11  1  0
 13  5  1  0
 13 10  1  0
M  END
>  <NAME>  (1610) 
2-ETHENOXY-1,7,7-TRIMETHYLBICYCLO(2.2.1)HEPTANE

>  <SYNONYMS>  (1610) 


>  <SPECTRUM TYPE>  (1610) 
MS1

>  <INSTRUMENT TYPE>  (1610) 
EI-B

>  <INSTRUMENT>  (1610) 
JEOL JMS-D-300

>  <ION MODE>  (1610) 
P

>  <INCHIKEY>  (1610) 
LQLLNKLOYCYFEB-UHFFFAOYSA-N

>  <FORMULA>  (1610) 
C12H20O

>  <EXACT MASS>  (1610) 
180.15141526

>  <MW>  (1610) 
180

>  <ID>  (1610) 
JP009808

>  <CONTRIBUTOR>  (1610) 
University of Tokyo Team, {Faculty of Engineering, University of Tokyo

>  <COMMENT>  (1610) 
SMILES=C=COC(C1)C(C)(C2)C(C)(C)C(C2)1
InChI=InChI=1S/C12H20O/c1-5-13-10-8-9-6-7-12(10,4)11(9,2)3/h5,9-10H,1,6-8H2,2-4H3
computed SMILES=O(C=C)C1CC2CCC1(C)C2(C)C
accession=JP009808
date=2016.01.19 (Created 2008.10.21, modified 2011.05.06)
author=KURARAY CO., LTD.
license=CC BY-NC-SA
exact mass=180.15142
ionization energy=70 eV
ion type=[M]+*
computed spectral entropy=2.3601412535366335
computed normalized entropy=0.7243926709949047
SPLASH=splash10-00m0-9300000000-3192d5bb93f4572e45b4
submitter=submitter = University of Tokyo Team (Faculty of Engineering, University of Tokyo)
MoNA Rating=3.75

>  <NUM PEAKS>  (1610) 
26

>  <MASS SPECTRAL PEAKS>  (1610) 
27 5.6
29 5.8
39 5.2
41 1.7
43 13.6
53 6.1
55 9.8
57 1.06
67 23.3
68 3.1
69 28.4
71 0.98
77 5
79 7.2
81 99.99
82 0.94
83 5.3
91 4.4
93 8.4
95 3.84
96 3.1
107 2.3
109 5.5
121 0.39
137 84.7
138 9.8

$$$$

     RDKit          2D

 14 15  0  0  0  0  0  0  0  0999 V2000
    3.8971    1.0700    0.0000 C   0  0  0  0  0  0  0  0  0  0  0  0
   -5.1962    4.8200    0.0000 C   0  0  0  0  0  0  0  0  0  0  0  0
    3.8976    2.5708    0.0000 C   0  0  0  0  0  0  0  0  0  0  0  0
    2.5976    0.3192    0.0000 C   0  0  0  0  0  0  0  0  0  0  0  0
   -5.1966    3.3192    0.0000 C   0  0  0  0  0  0  0  0  0  0  0  0
   -3.8966    5.5708    0.0000 C   0  0  0  0  0  0  0  0  0  0  0  0
    2.5986    3.3208    0.0000 C   0  0  0  0  0  0  0  0  0  0  0  0
    1.2986    1.0692    0.0000 C   0  0  0  0  0  0  0  0  0  0  0  0
   -3.8976    2.5692    0.0000 C   0  0  0  0  0  0  0  0  0  0  0  0
   -2.5976    4.8208    0.0000 C   0  0  0  0  0  0  0  0  0  0  0  0
    0.0000    3.3200    0.0000 C   0  0  0  0  0  0  0  0  0  0  0  0
   -1.2990    2.5700    0.0000 C   0  0  0  0  0  0  0  0  0  0  0  0
    1.2990    2.5700    0.0000 C   0  0  0  0  0  0  0  0  0  0  0  0
   -2.5981    3.3200    0.0000 C   0  0  0  0  0  0  0  0  0  0  0  0
  3  1  2  0
  4  1  1  0
  5  2  2  0
  6  2  1  0
  7  3  1  0
  8  4  2  0
  9  5  1  0
 10  6  2  0
 11 12  2  0
 13  7  2  0
 13  8  1  0
 13 11  1  0
 14  9  2  0
 14 10  1  0
 14 12  1  0
M  END
>  <NAME>  (1611) 
1,2-DIPHENYLETHENE

>  <SYNONYMS>  (1611) 
TRANS-STILBENE

>  <SPECTRUM TYPE>  (1611) 
MS1

>  <INSTRUMENT TYPE>  (1611) 
EI-B

>  <INSTRUMENT>  (1611) 
JEOL JMS-D-300

>  <ION MODE>  (1611) 
P

>  <INCHIKEY>  (1611) 
PJANXHGTPQOBST-VAWYXSNFSA-N

>  <FORMULA>  (1611) 
C14H12

>  <EXACT MASS>  (1611) 
180.093900384

>  <MW>  (1611) 
180

>  <ID>  (1611) 
JP009807

>  <CONTRIBUTOR>  (1611) 
University of Tokyo Team, {Faculty of Engineering, University of Tokyo

>  <COMMENT>  (1611) 
SMILES=c(c2)ccc(c2)C=Cc(c1)cccc1
InChI=InChI=1S/C14H12/c1-3-7-13(8-4-1)11-12-14-9-5-2-6-10-14/h1-12H/b12-11+
computed SMILES=C=1C=CC(=CC1)C=CC=2C=CC=CC2
ion type=[M]+*
accession=JP009807
date=2016.01.19 (Created 2008.10.21, modified 2011.05.06)
author=KURARAY CO., LTD.
license=CC BY-NC-SA
exact mass=180.0939
ionization energy=70 eV
computed spectral entropy=2.2047543372838376
computed normalized entropy=0.6420391824419724
SPLASH=splash10-003r-1900000000-4545c05c12e925c28411
submitter=submitter = University of Tokyo Team (Faculty of Engineering, University of Tokyo)
MoNA Rating=3.75

>  <NUM PEAKS>  (1611) 
31

>  <MASS SPECTRAL PEAKS>  (1611) 
39 3.2
50 2.5
51 6.8
52 0.21
62 1.1
63 4.6
64 1.3
65 0.14
76 12.2
77 5.7
78 2.7
82 0.28
89 4.2
90 4.2
102 4
115 0.2
126 1
139 2.1
150 1.2
151 0.38
152 7.4
153 2.1
164 1.1
165 3.28
166 4.4
176 6.4
177 6.1
178 4.67
179 81.7
180 99.99
181 14.5

$$$$

     RDKit          2D

 13 13  0  0  0  0  0  0  0  0999 V2000
    8.7242    0.5412    0.0000 C   0  0  0  0  0  0  0  0  0  0  0  0
   -1.6700   -0.9600    0.0000 C   0  0  0  0  0  0  0  0  0  0  0  0
   -1.6700    0.5400    0.0000 C   0  0  0  0  0  0  0  0  0  0  0  0
   -0.3700   -1.7100    0.0000 C   0  0  0  0  0  0  0  0  0  0  0  0
   -0.3700    1.2900    0.0000 C   0  0  0  0  0  0  0  0  0  0  0  0
    0.9300   -0.9600    0.0000 C   0  0  0  0  0  0  0  0  0  0  0  0
    4.8270    1.2906    0.0000 C   0  0  0  0  0  0  0  0  0  0  0  0
    3.5281    0.5404    0.0000 C   0  0  0  0  0  0  0  0  0  0  0  0
    7.4251    1.2910    0.0000 C   0  0  0  0  0  0  0  0  0  0  0  0
    0.9300    0.5400    0.0000 C   0  0  0  0  0  0  0  0  0  0  0  0
    7.4248    2.7910    0.0000 O   0  0  0  0  0  0  0  0  0  0  0  0
    6.1262    0.5408    0.0000 O   0  0  0  0  0  0  0  0  0  0  0  0
    2.2289    1.2902    0.0000 O   0  0  0  0  0  0  0  0  0  0  0  0
  3  2  2  0
  4  2  1  0
  5  3  1  0
  6  4  2  0
  8  7  1  0
  9  1  1  0
 10  5  2  0
 10  6  1  0
 11  9  2  0
 12  7  1  0
 12  9  1  0
 13  8  1  0
 13 10  1  0
M  END
>  <NAME>  (1612) 
2-PHENOXYETHYL ACETATE

>  <SYNONYMS>  (1612) 


>  <SPECTRUM TYPE>  (1612) 
MS1

>  <INSTRUMENT TYPE>  (1612) 
EI-B

>  <INSTRUMENT>  (1612) 
JEOL JMS-D-300

>  <ION MODE>  (1612) 
P

>  <INCHIKEY>  (1612) 
WHFKYDMBUMLWDA-UHFFFAOYSA-N

>  <FORMULA>  (1612) 
C10H12O3

>  <EXACT MASS>  (1612) 
180.078644244

>  <MW>  (1612) 
180

>  <ID>  (1612) 
JP009806

>  <CONTRIBUTOR>  (1612) 
University of Tokyo Team, {Faculty of Engineering, University of Tokyo

>  <COMMENT>  (1612) 
SMILES=CC(=O)OCCOc(c1)cccc1
InChI=InChI=1S/C10H12O3/c1-9(11)12-7-8-13-10-5-3-2-4-6-10/h2-6H,7-8H2,1H3
computed SMILES=O=C(OCCOC=1C=CC=CC1)C
accession=JP009806
date=2016.01.19 (Created 2008.10.21, modified 2011.05.06)
author=KURARAY CO., LTD.
license=CC BY-NC-SA
exact mass=180.07864
ionization energy=70 eV
ion type=[M]+*
computed spectral entropy=1.748294862609061
computed normalized entropy=0.5937616214766988
SPLASH=splash10-000l-9000000000-0cb4d7971615c1df44f1
submitter=submitter = University of Tokyo Team (Faculty of Engineering, University of Tokyo)
MoNA Rating=3.75

>  <NUM PEAKS>  (1612) 
19

>  <MASS SPECTRAL PEAKS>  (1612) 
39 2.6
43 63.7
44 1.4
51 0.64
65 5.2
77 12.2
79 4.9
87 99.99
88 5.9
91 2.3
93 3.3
94 1.58
95 2.1
97 1.3
98 3.3
107 0.51
110 3.3
120 3.4
180 4.6

$$$$

     RDKit          2D

 13 14  0  0  0  0  0  0  0  0999 V2000
    5.8467    1.3723    0.0000 C   0  0  0  0  0  0  0  0  0  0  0  0
    1.9500   -0.9000    0.0000 C   0  0  0  0  0  0  0  0  0  0  0  0
    0.6300   -1.6600    0.0000 C   0  0  0  0  0  0  0  0  0  0  0  0
    0.6300    1.3800    0.0000 C   0  0  0  0  0  0  0  0  0  0  0  0
   -2.9400   -0.2300    0.0000 C   0  0  0  0  0  0  0  0  0  0  0  0
    1.9500    0.6200    0.0000 C   0  0  0  0  0  0  0  0  0  0  0  0
   -0.6600   -0.9000    0.0000 C   0  0  0  0  0  0  0  0  0  0  0  0
   -0.6600    0.6200    0.0000 C   0  0  0  0  0  0  0  0  0  0  0  0
    3.2486    1.3708    0.0000 C   0  0  0  0  0  0  0  0  0  0  0  0
    3.2477    2.8708    0.0000 O   0  0  0  0  0  0  0  0  0  0  0  0
    4.5481    0.6216    0.0000 O   0  0  0  0  0  0  0  0  0  0  0  0
   -2.0600   -1.3400    0.0000 O   0  0  0  0  0  0  0  0  0  0  0  0
   -2.0900    1.0600    0.0000 O   0  0  0  0  0  0  0  0  0  0  0  0
  3  2  2  0
  6  2  1  0
  6  4  2  0
  7  3  1  0
  8  4  1  0
  8  7  2  0
  9  6  1  0
 10  9  2  0
 11  1  1  0
 11  9  1  0
 12  5  1  0
 12  7  1  0
 13  5  1  0
 13  8  1  0
M  END
>  <NAME>  (1613) 
METHYL 3,4-METHYLENEDIOXYBENZOATE

>  <SYNONYMS>  (1613) 
3,4-METHYLENEDIOXYBEZOIC ACID METHYL ESTER

>  <SPECTRUM TYPE>  (1613) 
MS1

>  <INSTRUMENT TYPE>  (1613) 
EI-B

>  <INSTRUMENT>  (1613) 
JEOL JMS-D-300

>  <ION MODE>  (1613) 
P

>  <INCHIKEY>  (1613) 
QCHGUEIECOASJU-UHFFFAOYSA-N

>  <FORMULA>  (1613) 
C9H8O4

>  <EXACT MASS>  (1613) 
180.042258736

>  <MW>  (1613) 
180

>  <ID>  (1613) 
JP009805

>  <CONTRIBUTOR>  (1613) 
University of Tokyo Team, {Faculty of Engineering, University of Tokyo

>  <COMMENT>  (1613) 
SMILES=COC(=O)c(c1)cc(O2)c(OC2)c1
InChI=InChI=1S/C9H8O4/c1-11-9(10)6-2-3-7-8(4-6)13-5-12-7/h2-4H,5H2,1H3
computed SMILES=O=C(OC)C1=CC=C2OCOC2=C1
accession=JP009805
date=2016.01.19 (Created 2008.10.21, modified 2011.05.06)
author=KURARAY CO., LTD.
license=CC BY-NC-SA
exact mass=180.04226
ionization energy=70 eV
ion type=[M]+*
computed spectral entropy=1.5737252518972618
computed normalized entropy=0.6135502236405699
SPLASH=splash10-0002-2900000000-54241e93694b071a67d5
submitter=submitter = University of Tokyo Team (Faculty of Engineering, University of Tokyo)
MoNA Rating=3.75

>  <NUM PEAKS>  (1613) 
13

>  <MASS SPECTRAL PEAKS>  (1613) 
39 3.2
62 5.3
63 7.8
65 0.51
74 5.8
91 7.4
119 4.8
121 1.71
149 99.99
150 5.6
179 7.7
180 6.27
181 6.1

$$$$

     RDKit          2D

 11 10  0  0  0  0  0  0  0  0999 V2000
   -5.3469    4.4130    0.0000 C   0  0  0  0  0  0  0  0  0  0  0  0
    0.3983    2.3639    0.0000 C   0  0  0  0  0  0  0  0  0  0  0  0
    2.4474    2.9130    0.0000 C   0  0  0  0  0  0  0  0  0  0  0  0
   -1.4498    3.6630    0.0000 C   0  0  0  0  0  0  0  0  0  0  0  0
   -4.0478    3.6630    0.0000 C   0  0  0  0  0  0  0  0  0  0  0  0
   -0.1507    4.4130    0.0000 C   0  0  0  0  0  0  0  0  0  0  0  0
    1.1483    3.6630    0.0000 C   0  0  0  0  0  0  0  0  0  0  0  0
   -0.1507    5.9130    0.0000 Cl  0  0  0  0  0  0  0  0  0  0  0  0
   -4.0478    2.1630    0.0000 O   0  0  0  0  0  0  0  0  0  0  0  0
    1.8983    4.9620    0.0000 O   0  0  0  0  0  0  0  0  0  0  0  0
   -2.7488    4.4130    0.0000 O   0  0  0  0  0  0  0  0  0  0  0  0
  5  1  1  0
  6  4  1  0
  7  2  1  0
  7  3  1  0
  7  6  1  0
  8  6  1  0
  9  5  2  0
 10  7  1  0
 11  4  1  0
 11  5  1  0
M  END
>  <NAME>  (1614) 
2-CHLORO-3-HYDROXY-3-METHYLBUTYL ACETATE

>  <SYNONYMS>  (1614) 


>  <SPECTRUM TYPE>  (1614) 
MS1

>  <INSTRUMENT TYPE>  (1614) 
EI-B

>  <INSTRUMENT>  (1614) 
JEOL JMS-D-300

>  <ION MODE>  (1614) 
P

>  <INCHIKEY>  (1614) 
GVGGNYJJOUJXTK-UHFFFAOYSA-N

>  <FORMULA>  (1614) 
C7H13ClO3

>  <EXACT MASS>  (1614) 
180.055321956

>  <MW>  (1614) 
180

>  <ID>  (1614) 
JP009804

>  <CONTRIBUTOR>  (1614) 
University of Tokyo Team, {Faculty of Engineering, University of Tokyo

>  <COMMENT>  (1614) 
SMILES=CC(=O)OCC(Cl)C(C)(C)O
InChI=InChI=1S/C7H13ClO3/c1-5(9)11-4-6(8)7(2,3)10/h6,10H,4H2,1-3H3
computed SMILES=O=C(OCC(Cl)C(O)(C)C)C
accession=JP009804
date=2016.01.19 (Created 2008.10.21, modified 2011.05.06)
author=KURARAY CO., LTD.
license=CC BY-NC-SA
exact mass=180.05532
ionization energy=70 eV
ion type=[M]+*
computed spectral entropy=2.1366238602156247
computed normalized entropy=0.6482796167050394
SPLASH=splash10-0a4l-9100000000-4224b92d11cc797ab7e8
submitter=submitter = University of Tokyo Team (Faculty of Engineering, University of Tokyo)
MoNA Rating=3.75

>  <NUM PEAKS>  (1614) 
27

>  <MASS SPECTRAL PEAKS>  (1614) 
27 3.1
29 1.9
31 7.8
39 0.25
41 6.6
42 2.5
43 99.99
44 0.25
55 3.3
58 19.4
59 90.5
60 0.31
61 3.1
62 12.8
64 4.4
85 0.78
86 3.9
87 2.5
90 6.9
92 0.23
101 5.3
103 8.1
105 18.3
107 0.59
120 2.7
122 1.6
123 1.6

$$$$

     RDKit          2D

 11 10  0  0  0  0  0  0  0  0999 V2000
    2.9228    3.1875    0.0000 C   0  0  0  0  0  0  0  0  0  0  0  0
   -2.6082    5.0866    0.0000 C   0  0  0  0  0  0  0  0  0  0  0  0
   -2.2733    3.1875    0.0000 C   0  0  0  0  0  0  0  0  0  0  0  0
   -0.9743    3.9375    0.0000 C   0  0  0  0  0  0  0  0  0  0  0  0
   -4.8714    3.1875    0.0000 C   0  0  0  0  0  0  0  0  0  0  0  0
    1.6238    3.9375    0.0000 C   0  0  0  0  0  0  0  0  0  0  0  0
   -3.5724    3.9375    0.0000 C   0  0  0  0  0  0  0  0  0  0  0  0
   -6.1704    3.9375    0.0000 Cl  0  0  0  0  0  0  0  0  0  0  0  0
    1.6238    5.4375    0.0000 O   0  0  0  0  0  0  0  0  0  0  0  0
   -4.5365    5.0866    0.0000 O   0  0  0  0  0  0  0  0  0  0  0  0
    0.3248    3.1875    0.0000 O   0  0  0  0  0  0  0  0  0  0  0  0
  4  3  1  0
  6  1  1  0
  7  2  1  0
  7  3  1  0
  7  5  1  0
  8  5  1  0
  9  6  2  0
 10  7  1  0
 11  4  1  0
 11  6  1  0
M  END
>  <NAME>  (1615) 
4-CHLORO-3-HYDROXY-3-METHYLBUTYL ACETATE

>  <SYNONYMS>  (1615) 


>  <SPECTRUM TYPE>  (1615) 
MS1

>  <INSTRUMENT TYPE>  (1615) 
EI-B

>  <INSTRUMENT>  (1615) 
JEOL JMS-D-300

>  <ION MODE>  (1615) 
P

>  <INCHIKEY>  (1615) 
CXGRFFKXRMWAOS-UHFFFAOYSA-N

>  <FORMULA>  (1615) 
C7H13ClO3

>  <EXACT MASS>  (1615) 
180.055321956

>  <MW>  (1615) 
180

>  <ID>  (1615) 
JP009803

>  <CONTRIBUTOR>  (1615) 
University of Tokyo Team, {Faculty of Engineering, University of Tokyo

>  <COMMENT>  (1615) 
SMILES=CC(=O)OCCC(C)(O)CCl
InChI=InChI=1S/C7H13ClO3/c1-6(9)11-4-3-7(2,10)5-8/h10H,3-5H2,1-2H3
computed SMILES=O=C(OCCC(O)(C)CCl)C
accession=JP009803
date=2016.01.19 (Created 2008.10.21, modified 2011.05.06)
author=KURARAY CO., LTD.
license=CC BY-NC-SA
exact mass=180.05532
ionization energy=70 eV
ion type=[M]+*
computed spectral entropy=2.421705467771066
computed normalized entropy=0.6926069585719333
SPLASH=splash10-0006-9000000000-a6d5b5ad832148de0527
submitter=submitter = University of Tokyo Team (Faculty of Engineering, University of Tokyo)
MoNA Rating=3.75

>  <NUM PEAKS>  (1615) 
33

>  <MASS SPECTRAL PEAKS>  (1615) 
27 4.7
28 6.9
29 8.5
31 0.32
39 3
41 4.5
42 3.2
43 99.99
44 4
45 8.5
53 1.4
55 0.38
56 1.7
57 6.4
58 2.3
61 1.3
67 1.4
69 2.2
70 4.5
71 5.04
72 2.9
73 5.8
77 1.8
84 0.14
87 2.7
88 13.3
89 7.1
92 0.12
93 11
95 3.6
103 1.3
105 0.81
107 2.5

$$$$

     RDKit          2D

  5  0  0  0  0  0  0  0  0  0999 V2000
    0.0000    0.0000    0.0000 C   0  0  0  0  0  3  0  0  0  0  0  0
    0.0000    0.0000    0.0000 C   0  0  0  0  0  3  0  0  0  0  0  0
    0.0000    0.0000    0.0000 C   0  0  0  0  0  3  0  0  0  0  0  0
    0.0000    0.0000    0.0000 C   0  0  0  0  0  3  0  0  0  0  0  0
    0.0000    0.0000    0.0000 Sn  0  0  0  0  0 15  0  0  0  0  0  0
M  RAD  4   1   2   2   2   3   2   4   2
M  END
>  <NAME>  (1616) 
TETRAMETHYLTIN

>  <SYNONYMS>  (1616) 


>  <SPECTRUM TYPE>  (1616) 
MS1

>  <INSTRUMENT TYPE>  (1616) 
EI-B

>  <INSTRUMENT>  (1616) 
JEOL JMS-D-300

>  <ION MODE>  (1616) 
P

>  <INCHIKEY>  (1616) 
VXKWYPOMXBVZSJ-UHFFFAOYSA-N

>  <FORMULA>  (1616) 
C4H12Sn

>  <EXACT MASS>  (1616) 
179.996095084

>  <MW>  (1616) 
180

>  <ID>  (1616) 
JP009802

>  <CONTRIBUTOR>  (1616) 
University of Tokyo Team, {Faculty of Engineering, University of Tokyo

>  <COMMENT>  (1616) 
SMILES=C[Sn](C)(C)C
InChI=InChI=1S/4CH3.Sn/h4*1H3;
computed SMILES=[Sn].[CH3].[CH3].[CH3].[CH3]
accession=JP009802
date=2016.01.19 (Created 2008.10.21, modified 2011.05.06)
author=KURARAY CO., LTD.
license=CC BY-NC-SA
exact mass=179.9961
ionization energy=70 eV
ion type=[M]+*
computed spectral entropy=2.6902991303859056
computed normalized entropy=0.7909858877614342
SPLASH=splash10-03xr-0900000000-d97a03123fd77919e290
submitter=submitter = University of Tokyo Team (Faculty of Engineering, University of Tokyo)
MoNA Rating=3.75

>  <NUM PEAKS>  (1616) 
30

>  <MASS SPECTRAL PEAKS>  (1616) 
116 5.2
117 5.9
118 10.8
119 0.86
120 14.1
121 7
130 2.3
131 1.39
132 10.8
133 21.6
134 11.7
135 2.63
137 3.9
139 4.2
146 9.7
147 0.63
148 16.3
149 7
150 21.6
152 0.31
154 3.4
157 3
161 44.7
162 2.47
163 73.8
164 28.9
165 99.99
166 0.31
167 13.9
169 17.7

$$$$

     RDKit          2D

 13 12  0  0  0  0  0  0  0  0999 V2000
    3.5724    4.3125    0.0000 C   0  0  0  0  0  0  0  0  0  0  0  0
   -8.1190    5.0625    0.0000 C   0  0  0  0  0  0  0  0  0  0  0  0
   -6.8200    7.3125    0.0000 C   0  0  0  0  0  0  0  0  0  0  0  0
   -1.6238    7.3125    0.0000 C   0  0  0  0  0  0  0  0  0  0  0  0
    2.2733    5.0625    0.0000 C   0  0  0  0  0  0  0  0  0  0  0  0
   -4.2219    5.8125    0.0000 C   0  0  0  0  0  0  0  0  0  0  0  0
   -5.5209    5.0625    0.0000 C   0  0  0  0  0  0  0  0  0  0  0  0
   -2.9228    5.0625    0.0000 C   0  0  0  0  0  0  0  0  0  0  0  0
   -0.3248    5.0625    0.0000 C   0  0  0  0  0  0  0  0  0  0  0  0
   -6.8200    5.8125    0.0000 C   0  0  0  0  0  0  0  0  0  0  0  0
   -1.6238    5.8125    0.0000 C   0  0  0  0  0  0  0  0  0  0  0  0
    0.9743    5.8125    0.0000 C   0  0  0  0  0  0  0  0  0  0  0  0
    0.9743    7.3125    0.0000 O   0  0  0  0  0  0  0  0  0  0  0  0
  5  1  3  0
  7  6  1  0
  8  6  1  0
 10  2  1  0
 10  3  1  0
 10  7  2  0
 11  4  1  0
 11  8  1  0
 11  9  1  0
 12  5  1  0
 12  9  1  0
 13 12  2  0
M  END
>  <NAME>  (1617) 
5,9-DIMETHYLDEC-8-EN-1-YN-3-ONE

>  <SYNONYMS>  (1617) 


>  <SPECTRUM TYPE>  (1617) 
MS1

>  <INSTRUMENT TYPE>  (1617) 
EI-B

>  <INSTRUMENT>  (1617) 
JEOL JMS-D-300

>  <ION MODE>  (1617) 
P

>  <INCHIKEY>  (1617) 
YGQFGXUPZVFDTI-UHFFFAOYSA-N

>  <FORMULA>  (1617) 
C12H18O

>  <EXACT MASS>  (1617) 
178.135765196

>  <MW>  (1617) 
178

>  <ID>  (1617) 
JP009801

>  <CONTRIBUTOR>  (1617) 
University of Tokyo Team, {Faculty of Engineering, University of Tokyo

>  <COMMENT>  (1617) 
SMILES=C#CC(=O)CC(C)CCC=C(C)C
InChI=InChI=1S/C12H18O/c1-5-12(13)9-11(4)8-6-7-10(2)3/h1,7,11H,6,8-9H2,2-4H3
computed SMILES=O=C(C#C)CC(C)CCC=C(C)C
accession=JP009801
date=2016.01.19 (Created 2008.10.21, modified 2011.05.06)
author=KURARAY CO., LTD.
license=CC BY-NC-SA
exact mass=178.13577
ionization energy=70 eV
ion type=[M]+*
computed spectral entropy=3.1643403891798516
computed normalized entropy=0.8088757107995419
SPLASH=splash10-00ke-9300000000-417fd7cdbbc499dee0d9
submitter=submitter = University of Tokyo Team (Faculty of Engineering, University of Tokyo)
MoNA Rating=3.75

>  <NUM PEAKS>  (1617) 
50

>  <MASS SPECTRAL PEAKS>  (1617) 
27 9.6
28 2.8
29 8.5
39 1.59
40 3.5
41 72.3
42 6.1
43 1.2
51 2.5
53 45.1
54 3.9
55 3.93
56 10.9
57 2.5
65 3.6
67 2.13
68 14.8
69 87.1
70 9.5
77 0.71
79 14.5
80 7.2
81 25.9
82 0.79
83 10.6
91 8.4
93 17.4
94 0.57
95 99.99
96 12.1
105 6.2
107 2.03
108 12.4
109 15.8
110 24.8
111 0.3
117 3.9
119 5
121 17.2
122 0.5
123 6.7
134 3.4
135 42.1
136 1.19
145 14.8
149 4.5
161 2
163 6.59
164 8.9
177 3.2

$$$$

     RDKit          2D

 13 13  0  0  0  0  0  0  0  0999 V2000
   -5.8454    3.6946    0.0000 C   0  0  0  0  0  0  0  0  0  0  0  0
   -4.5464    1.4446    0.0000 C   0  0  0  0  0  0  0  0  0  0  0  0
    3.2478    1.4446    0.0000 C   0  0  0  0  0  0  0  0  0  0  0  0
    3.2483    2.9454    0.0000 C   0  0  0  0  0  0  0  0  0  0  0  0
    1.9483    0.6938    0.0000 C   0  0  0  0  0  0  0  0  0  0  0  0
    1.9493    3.6954    0.0000 C   0  0  0  0  0  0  0  0  0  0  0  0
    0.6493    1.4438    0.0000 C   0  0  0  0  0  0  0  0  0  0  0  0
   -3.2474    3.6946    0.0000 C   0  0  0  0  0  0  0  0  0  0  0  0
   -4.5464    2.9446    0.0000 C   0  0  0  0  0  0  0  0  0  0  0  0
    0.6498    2.9446    0.0000 C   0  0  0  0  0  0  0  0  0  0  0  0
   -0.6493    3.6946    0.0000 C   0  0  0  0  0  0  0  0  0  0  0  0
   -0.6493    5.1946    0.0000 O   0  0  0  0  0  0  0  0  0  0  0  0
   -1.9483    2.9446    0.0000 O   0  0  0  0  0  0  0  0  0  0  0  0
  4  3  2  0
  5  3  1  0
  6  4  1  0
  7  5  2  0
  9  1  1  0
  9  2  1  0
  9  8  1  0
 10  6  2  0
 10  7  1  0
 11 10  1  0
 12 11  2  0
 13  8  1  0
 13 11  1  0
M  END
>  <NAME>  (1618) 
BUTYL BENZOATE

>  <SYNONYMS>  (1618) 


>  <SPECTRUM TYPE>  (1618) 
MS1

>  <INSTRUMENT TYPE>  (1618) 
EI-B

>  <INSTRUMENT>  (1618) 
JEOL JMS-D-300

>  <ION MODE>  (1618) 
P

>  <INCHIKEY>  (1618) 
KYZHGEFMXZOSJN-UHFFFAOYSA-N

>  <FORMULA>  (1618) 
C11H14O2

>  <EXACT MASS>  (1618) 
178.099379688

>  <MW>  (1618) 
178

>  <ID>  (1618) 
JP009800

>  <CONTRIBUTOR>  (1618) 
University of Tokyo Team, {Faculty of Engineering, University of Tokyo

>  <COMMENT>  (1618) 
SMILES=CC(C)COC(=O)c(c1)cccc1
InChI=InChI=1S/C11H14O2/c1-9(2)8-13-11(12)10-6-4-3-5-7-10/h3-7,9H,8H2,1-2H3
computed SMILES=O=C(OCC(C)C)C=1C=CC=CC1
accession=JP009800
date=2016.01.19 (Created 2008.10.21, modified 2011.05.06)
author=KURARAY CO., LTD.
license=CC BY-NC-SA
exact mass=178.09938
ionization energy=70 eV
ion type=[M]+*
computed spectral entropy=1.7021209529708587
computed normalized entropy=0.7098395715107543
SPLASH=splash10-0ab9-3900000000-7236cdc2ceef1cd1ae31
submitter=submitter = University of Tokyo Team (Faculty of Engineering, University of Tokyo)
MoNA Rating=3.75

>  <NUM PEAKS>  (1618) 
11

>  <MASS SPECTRAL PEAKS>  (1618) 
27 4.1
41 10.3
51 14.1
56 2.5
77 45.8
91 1.2
105 99.99
106 0.96
122 20.1
123 70.6
124 4.7

$$$$

     RDKit          2D

 13 14  0  0  0  0  0  0  0  0999 V2000
   -3.5728   -0.6166    0.0000 C   0  0  0  0  0  0  0  0  0  0  0  0
   -2.2733   -1.3674    0.0000 C   0  0  0  0  0  0  0  0  0  0  0  0
   -3.5733    0.8843    0.0000 C   0  0  0  0  0  0  0  0  0  0  0  0
    2.9243    1.6330    0.0000 C   0  0  0  0  0  0  0  0  0  0  0  0
    2.9246    3.1330    0.0000 C   0  0  0  0  0  0  0  0  0  0  0  0
   -0.9742   -0.6174    0.0000 C   0  0  0  0  0  0  0  0  0  0  0  0
   -2.2742    1.6343    0.0000 C   0  0  0  0  0  0  0  0  0  0  0  0
    1.6242    0.8832    0.0000 C   0  0  0  0  0  0  0  0  0  0  0  0
    1.6247    3.8832    0.0000 C   0  0  0  0  0  0  0  0  0  0  0  0
   -0.9747    0.8834    0.0000 C   0  0  0  0  0  0  0  0  0  0  0  0
    0.3243    1.6334    0.0000 C   0  0  0  0  0  0  0  0  0  0  0  0
    0.3246    3.1334    0.0000 C   0  0  0  0  0  0  0  0  0  0  0  0
   -0.9742    3.8839    0.0000 O   0  0  0  0  0  0  0  0  0  0  0  0
  2  1  2  0
  3  1  1  0
  5  4  1  0
  6  2  1  0
  7  3  2  0
  8  4  1  0
  9  5  1  0
 10  6  2  0
 10  7  1  0
 11  8  1  0
 11 10  1  0
 12  9  1  0
 12 11  1  0
 13 12  1  0
M  END
>  <NAME>  (1619) 
2-PHENYLCYCLOHEXANOL

>  <SYNONYMS>  (1619) 


>  <SPECTRUM TYPE>  (1619) 
MS1

>  <INSTRUMENT TYPE>  (1619) 
EI-B

>  <INSTRUMENT>  (1619) 
JEOL JMS-D-300

>  <ION MODE>  (1619) 
P

>  <INCHIKEY>  (1619) 
AAIBYZBZXNWTPP-UHFFFAOYSA-N

>  <FORMULA>  (1619) 
C12H16O

>  <EXACT MASS>  (1619) 
176.120115132

>  <MW>  (1619) 
176

>  <ID>  (1619) 
JP009799

>  <CONTRIBUTOR>  (1619) 
University of Tokyo Team, {Faculty of Engineering, University of Tokyo

>  <COMMENT>  (1619) 
SMILES=OC(C2)C(CCC2)c(c1)cccc1
InChI=InChI=1S/C12H16O/c13-12-9-5-4-8-11(12)10-6-2-1-3-7-10/h1-3,6-7,11-13H,4-5,8-9H2
computed SMILES=OC1CCCCC1C=2C=CC=CC2
accession=JP009799
date=2016.01.19 (Created 2008.10.21, modified 2011.05.06)
author=KURARAY CO., LTD.
license=CC BY-NC-SA
exact mass=176.12012
ionization energy=70 eV
ion type=[M]+*
computed spectral entropy=2.927344690105527
computed normalized entropy=0.8047492379742609
SPLASH=splash10-002f-6900000000-f68a06f8487cd0c8f4c3
submitter=submitter = University of Tokyo Team (Faculty of Engineering, University of Tokyo)
MoNA Rating=3.75

>  <NUM PEAKS>  (1619) 
38

>  <MASS SPECTRAL PEAKS>  (1619) 
27 5
29 7.1
39 6.8
41 0.57
43 5.9
51 5.2
57 16
65 0.72
67 6.9
71 12.5
77 11.4
78 1.14
79 7.8
80 4.9
84 4.6
85 1.29
91 99.99
92 46.6
93 4.9
98 2.48
103 9.4
104 45.6
105 18.9
115 1.37
116 4.5
117 45
118 5.9
120 0.39
128 4.9
129 26.5
130 45
131 0.82
132 16.3
133 8.1
143 13.1
158 1.56
176 88.8
177 12.1

$$$$

     RDKit          2D

 13 13  0  0  0  0  0  0  0  0999 V2000
   -5.5207    5.3821    0.0000 C   0  0  0  0  0  0  0  0  0  0  0  0
   -6.8197    3.1321    0.0000 C   0  0  0  0  0  0  0  0  0  0  0  0
    3.5726    1.6321    0.0000 C   0  0  0  0  0  0  0  0  0  0  0  0
    3.5731    3.1329    0.0000 C   0  0  0  0  0  0  0  0  0  0  0  0
    2.2731    0.8813    0.0000 C   0  0  0  0  0  0  0  0  0  0  0  0
    2.2740    3.8829    0.0000 C   0  0  0  0  0  0  0  0  0  0  0  0
    0.9740    1.6313    0.0000 C   0  0  0  0  0  0  0  0  0  0  0  0
   -4.2216    3.1321    0.0000 C   0  0  0  0  0  0  0  0  0  0  0  0
   -2.9226    3.8821    0.0000 C   0  0  0  0  0  0  0  0  0  0  0  0
   -0.3245    3.8821    0.0000 C   0  0  0  0  0  0  0  0  0  0  0  0
   -5.5207    3.8821    0.0000 C   0  0  0  0  0  0  0  0  0  0  0  0
    0.9745    3.1321    0.0000 C   0  0  0  0  0  0  0  0  0  0  0  0
   -1.6236    3.1321    0.0000 O   0  0  0  0  0  0  0  0  0  0  0  0
  4  3  2  0
  5  3  1  0
  6  4  1  0
  7  5  2  0
  8  9  2  0
 11  1  2  0
 11  2  1  0
 11  8  1  0
 12  6  2  0
 12  7  1  0
 12 10  1  0
 13  9  1  0
 13 10  1  0
M  END
>  <NAME>  (1620) 
4-BENZYLOXY-2-METHYL-1,3-BUTADIENE

>  <SYNONYMS>  (1620) 


>  <SPECTRUM TYPE>  (1620) 
MS1

>  <INSTRUMENT TYPE>  (1620) 
EI-B

>  <INSTRUMENT>  (1620) 
JEOL JMS-D-300

>  <ION MODE>  (1620) 
P

>  <INCHIKEY>  (1620) 
JICYZRMWDNTUNJ-CMDGGOBGSA-N

>  <FORMULA>  (1620) 
C12H14O

>  <EXACT MASS>  (1620) 
174.104465068

>  <MW>  (1620) 
174

>  <ID>  (1620) 
JP009798

>  <CONTRIBUTOR>  (1620) 
University of Tokyo Team, {Faculty of Engineering, University of Tokyo

>  <COMMENT>  (1620) 
SMILES=CC(=C)C=COCc(c1)cccc1
InChI=InChI=1S/C12H14O/c1-11(2)8-9-13-10-12-6-4-3-5-7-12/h3-9H,1,10H2,2H3/b9-8+
computed SMILES=O(C=CC(=C)C)CC=1C=CC=CC1
accession=JP009798
date=2016.01.19 (Created 2008.10.21, modified 2011.05.06)
author=KURARAY CO., LTD.
license=CC BY-NC-SA
exact mass=174.10447
ionization energy=70 eV
ion type=[M]+*
computed spectral entropy=2.1396746883233635
computed normalized entropy=0.6067657215951462
SPLASH=splash10-0006-9100000000-04476cb75eaf08d59859
submitter=submitter = University of Tokyo Team (Faculty of Engineering, University of Tokyo)
MoNA Rating=3.75

>  <NUM PEAKS>  (1620) 
34

>  <MASS SPECTRAL PEAKS>  (1620) 
27 2.1
29 1.6
39 5.1
41 0.58
43 2.5
50 1.2
51 3.1
53 0.19
55 2.7
57 1.2
59 1.1
63 0.19
65 8.4
67 3.6
68 2
69 0.64
71 3.6
77 3.9
79 4.4
83 0.18
84 1.8
85 1.9
86 1
89 0.25
91 99.99
92 17.7
104 1.4
105 0.34
107 11.6
108 4.2
126 2.6
127 0.1
174 1.4
175 2.5

$$$$

     RDKit          2D

 12 11  0  0  0  0  0  0  0  0999 V2000
   -6.8200    5.0625    0.0000 C   0  0  0  0  0  0  0  0  0  0  0  0
   -5.5209    2.8125    0.0000 C   0  0  0  0  0  0  0  0  0  0  0  0
    3.5724    5.0625    0.0000 C   0  0  0  0  0  0  0  0  0  0  0  0
    2.2733    2.8125    0.0000 C   0  0  0  0  0  0  0  0  0  0  0  0
   -1.6238    6.5625    0.0000 C   0  0  0  0  0  0  0  0  0  0  0  0
   -4.2219    5.0625    0.0000 C   0  0  0  0  0  0  0  0  0  0  0  0
    0.9743    5.0625    0.0000 C   0  0  0  0  0  0  0  0  0  0  0  0
   -5.5209    4.3125    0.0000 C   0  0  0  0  0  0  0  0  0  0  0  0
    2.2733    4.3125    0.0000 C   0  0  0  0  0  0  0  0  0  0  0  0
   -1.6238    5.0625    0.0000 C   0  0  0  0  0  0  0  0  0  0  0  0
   -2.9228    4.3125    0.0000 O   0  0  0  0  0  0  0  0  0  0  0  0
   -0.3248    4.3125    0.0000 O   0  0  0  0  0  0  0  0  0  0  0  0
  8  1  1  0
  8  2  1  0
  8  6  1  0
  9  3  1  0
  9  4  1  0
  9  7  1  0
 10  5  1  0
 11  6  1  0
 11 10  1  0
 12  7  1  0
 12 10  1  0
M  END
>  <NAME>  (1621) 
1,1-DIISOBUTOXYETHANE

>  <SYNONYMS>  (1621) 
ACETALDEHYDE DIISOBUTYL ACETAL

>  <SPECTRUM TYPE>  (1621) 
MS1

>  <INSTRUMENT TYPE>  (1621) 
EI-B

>  <INSTRUMENT>  (1621) 
JEOL JMS-D-300

>  <ION MODE>  (1621) 
P

>  <INCHIKEY>  (1621) 
KIELJSVPUISYCI-UHFFFAOYSA-N

>  <FORMULA>  (1621) 
C10H22O2

>  <EXACT MASS>  (1621) 
174.161979944

>  <MW>  (1621) 
174

>  <ID>  (1621) 
JP009797

>  <CONTRIBUTOR>  (1621) 
University of Tokyo Team, {Faculty of Engineering, University of Tokyo

>  <COMMENT>  (1621) 
SMILES=CC(C)COC(C)OCC(C)C
InChI=InChI=1S/C10H22O2/c1-8(2)6-11-10(5)12-7-9(3)4/h8-10H,6-7H2,1-5H3
computed SMILES=O(CC(C)C)C(OCC(C)C)C
accession=JP009797
date=2016.01.19 (Created 2008.10.21, modified 2011.05.06)
author=KURARAY CO., LTD.
license=CC BY-NC-SA
exact mass=174.16198
ionization energy=70 eV
ion type=[M]+*
computed spectral entropy=2.013661462616017
computed normalized entropy=0.6838862944227416
SPLASH=splash10-0a4i-9000000000-71348183c83200c9a205
submitter=submitter = University of Tokyo Team (Faculty of Engineering, University of Tokyo)
MoNA Rating=3.75

>  <NUM PEAKS>  (1621) 
19

>  <MASS SPECTRAL PEAKS>  (1621) 
27 3.9
29 16.9
31 2
33 0.16
39 3.3
41 26.6
42 3.9
43 0.8
45 45
55 2.3
56 9.2
57 99.99
58 7.8
59 1.4
83 3.1
101 8.02
102 4.7
131 1.7
159 4.8

$$$$

     RDKit          2D

 12 11  0  0  0  0  0  0  0  0999 V2000
   -2.5981    6.7500    0.0000 C   0  0  0  0  0  0  0  0  0  0  0  0
   -3.8971    6.0000    0.0000 C   0  0  0  0  0  0  0  0  0  0  0  0
   -1.2990    6.0000    0.0000 C   0  0  0  0  0  0  0  0  0  0  0  0
   -5.1962    6.7500    0.0000 C   0  0  0  0  0  0  0  0  0  0  0  0
    0.0000    6.7500    0.0000 C   0  0  0  0  0  0  0  0  0  0  0  0
   -6.4952    6.0000    0.0000 C   0  0  0  0  0  0  0  0  0  0  0  0
    1.2990    6.0000    0.0000 C   0  0  0  0  0  0  0  0  0  0  0  0
   -7.7942    6.7500    0.0000 C   0  0  0  0  0  0  0  0  0  0  0  0
    2.5981    6.7500    0.0000 C   0  0  0  0  0  0  0  0  0  0  0  0
   -9.0933    6.0000    0.0000 C   0  0  0  0  0  0  0  0  0  0  0  0
    3.8971    6.0000    0.0000 O   0  0  0  0  0  0  0  0  0  0  0  0
  -10.3923    6.7500    0.0000 O   0  0  0  0  0  0  0  0  0  0  0  0
  2  1  1  0
  3  1  1  0
  4  2  1  0
  5  3  1  0
  6  4  1  0
  7  5  1  0
  8  6  1  0
  9  7  1  0
 10  8  1  0
 11  9  1  0
 12 10  1  0
M  END
>  <NAME>  (1622) 
1,10-DECANEDIOL

>  <SYNONYMS>  (1622) 


>  <SPECTRUM TYPE>  (1622) 
MS1

>  <INSTRUMENT TYPE>  (1622) 
EI-B

>  <INSTRUMENT>  (1622) 
JEOL JMS-D-300

>  <ION MODE>  (1622) 
P

>  <INCHIKEY>  (1622) 
FOTKYAAJKYLFFN-UHFFFAOYSA-N

>  <FORMULA>  (1622) 
C10H22O2

>  <EXACT MASS>  (1622) 
174.161979944

>  <MW>  (1622) 
174

>  <ID>  (1622) 
JP009796

>  <CONTRIBUTOR>  (1622) 
University of Tokyo Team, {Faculty of Engineering, University of Tokyo

>  <COMMENT>  (1622) 
SMILES=OCCCCCCCCCCO
InChI=InChI=1S/C10H22O2/c11-9-7-5-3-1-2-4-6-8-10-12/h11-12H,1-10H2
computed SMILES=OCCCCCCCCCCO
accession=JP009796
date=2016.01.19 (Created 2008.10.21, modified 2011.05.06)
author=KURARAY CO., LTD.
license=CC BY-NC-SA
exact mass=174.16198
ionization energy=70 eV
ion type=[M]+*
computed spectral entropy=3.040829872143754
computed normalized entropy=0.8421210190062164
SPLASH=splash10-067i-9000000000-510f20afc116b1789722
submitter=submitter = University of Tokyo Team (Faculty of Engineering, University of Tokyo)
MoNA Rating=3.75

>  <NUM PEAKS>  (1622) 
37

>  <MASS SPECTRAL PEAKS>  (1622) 
27 10.5
29 20.6
31 27.6
39 1.13
41 66.5
42 20.6
43 29
44 0.55
45 5.6
53 5.7
54 43.9
55 99.99
56 29.4
57 24.3
58 3.5
66 1.05
67 80.3
68 88.4
69 52.6
70 2.28
71 16.3
72 2.9
73 4.8
79 0.46
81 60.2
82 70
83 27
84 1.17
85 8.6
95 38.8
96 27.2
97 1.81
98 8.8
99 4.6
109 16.6
110 1.49
126 3.3

$$$$

     RDKit          2D

 12 11  0  0  0  0  0  0  0  0999 V2000
    3.5724    4.3125    0.0000 C   0  0  0  0  0  0  0  0  0  0  0  0
    2.2733    6.5625    0.0000 C   0  0  0  0  0  0  0  0  0  0  0  0
   -6.8200    4.3125    0.0000 C   0  0  0  0  0  0  0  0  0  0  0  0
   -5.5209    5.0625    0.0000 C   0  0  0  0  0  0  0  0  0  0  0  0
   -2.9228    5.0625    0.0000 C   0  0  0  0  0  0  0  0  0  0  0  0
   -1.6238    4.3125    0.0000 C   0  0  0  0  0  0  0  0  0  0  0  0
    2.2733    5.0625    0.0000 C   0  0  0  0  0  0  0  0  0  0  0  0
    0.9743    4.3125    0.0000 C   0  0  0  0  0  0  0  0  0  0  0  0
   -8.1190    5.0625    0.0000 O   0  0  0  0  0  0  0  0  0  0  0  0
    0.9743    2.8125    0.0000 O   0  0  0  0  0  0  0  0  0  0  0  0
   -4.2219    4.3125    0.0000 O   0  0  0  0  0  0  0  0  0  0  0  0
   -0.3248    5.0625    0.0000 O   0  0  0  0  0  0  0  0  0  0  0  0
  4  3  1  0
  6  5  1  0
  7  1  2  0
  7  2  1  0
  8  7  1  0
  9  3  1  0
 10  8  2  0
 11  4  1  0
 11  5  1  0
 12  6  1  0
 12  8  1  0
M  END
>  <NAME>  (1623) 
METHACRYLIC ACID DIETHYLENEGLYCOL ESTER

>  <SYNONYMS>  (1623) 
2-(2-HYDROXYETHOXY)ETHYL METHACRYLATE

>  <SPECTRUM TYPE>  (1623) 
MS1

>  <INSTRUMENT TYPE>  (1623) 
EI-B

>  <INSTRUMENT>  (1623) 
JEOL JMS-D-300

>  <ION MODE>  (1623) 
P

>  <INCHIKEY>  (1623) 
OLQFXOWPTQTLDP-UHFFFAOYSA-N

>  <FORMULA>  (1623) 
C8H14O4

>  <EXACT MASS>  (1623) 
174.089208928

>  <MW>  (1623) 
174

>  <ID>  (1623) 
JP009795

>  <CONTRIBUTOR>  (1623) 
University of Tokyo Team, {Faculty of Engineering, University of Tokyo

>  <COMMENT>  (1623) 
SMILES=OCCOCCOC(=O)C(C)=C
InChI=InChI=1S/C8H14O4/c1-7(2)8(10)12-6-5-11-4-3-9/h9H,1,3-6H2,2H3
computed SMILES=O=C(OCCOCCO)C(=C)C
accession=JP009795
date=2016.01.19 (Created 2008.10.21, modified 2011.05.06)
author=KURARAY CO., LTD.
license=CC BY-NC-SA
exact mass=174.08921
ionization energy=70 eV
ion type=[M]+*
computed spectral entropy=2.4039499574513075
computed normalized entropy=0.7139111259674988
SPLASH=splash10-014m-9100000000-3532adf033944b78006f
submitter=submitter = University of Tokyo Team (Faculty of Engineering, University of Tokyo)
MoNA Rating=3.75

>  <NUM PEAKS>  (1623) 
29

>  <MASS SPECTRAL PEAKS>  (1623) 
27 5.2
29 3.6
31 5.5
39 1.1
40 2.1
41 58.4
42 4.4
43 0.51
44 34.4
45 67.5
55 4.3
57 0.16
58 3.8
68 3.8
69 99.99
70 0.84
71 2.5
73 2.6
75 7.7
85 0.28
86 6.1
87 4.8
88 11.3
99 0.51
100 9
101 28.2
112 4.7
113 3.67
114 3.8

$$$$

     RDKit          2D

 12 11  0  0  0  0  0  0  0  0999 V2000
    2.5981    4.5000    0.0000 C   0  0  0  0  0  0  0  0  0  0  0  0
   -7.7942    4.5000    0.0000 C   0  0  0  0  0  0  0  0  0  0  0  0
   -2.5981    3.0000    0.0000 C   0  0  0  0  0  0  0  0  0  0  0  0
    1.2990    5.2500    0.0000 C   0  0  0  0  0  0  0  0  0  0  0  0
   -6.4952    5.2500    0.0000 C   0  0  0  0  0  0  0  0  0  0  0  0
   -2.5981    4.5000    0.0000 C   0  0  0  0  0  0  0  0  0  0  0  0
   -1.2990    5.2500    0.0000 C   0  0  0  0  0  0  0  0  0  0  0  0
   -3.8971    5.2500    0.0000 C   0  0  0  0  0  0  0  0  0  0  0  0
   -1.2990    6.7500    0.0000 O   0  0  0  0  0  0  0  0  0  0  0  0
   -3.8971    6.7500    0.0000 O   0  0  0  0  0  0  0  0  0  0  0  0
    0.0000    4.5000    0.0000 O   0  0  0  0  0  0  0  0  0  0  0  0
   -5.1962    4.5000    0.0000 O   0  0  0  0  0  0  0  0  0  0  0  0
  4  1  1  0
  5  2  1  0
  6  3  1  0
  7  6  1  0
  8  6  1  0
  9  7  2  0
 10  8  2  0
 11  4  1  0
 11  7  1  0
 12  5  1  0
 12  8  1  0
M  END
>  <NAME>  (1624) 
DIETHYL 2-METHYLPROPANEDIOATE

>  <SYNONYMS>  (1624) 
DIETHYL 2-METHYLMALONATE

>  <SPECTRUM TYPE>  (1624) 
MS1

>  <INSTRUMENT TYPE>  (1624) 
EI-B

>  <INSTRUMENT>  (1624) 
JEOL JMS-D-300

>  <ION MODE>  (1624) 
P

>  <INCHIKEY>  (1624) 
UPQZOUHVTJNGFK-UHFFFAOYSA-N

>  <FORMULA>  (1624) 
C8H14O4

>  <EXACT MASS>  (1624) 
174.089208928

>  <MW>  (1624) 
174

>  <ID>  (1624) 
JP009794

>  <CONTRIBUTOR>  (1624) 
University of Tokyo Team, {Faculty of Engineering, University of Tokyo

>  <COMMENT>  (1624) 
SMILES=CCOC(=O)C(C)C(=O)OCC
InChI=InChI=1S/C8H14O4/c1-4-11-7(9)6(3)8(10)12-5-2/h6H,4-5H2,1-3H3
computed SMILES=O=C(OCC)C(C(=O)OCC)C
accession=JP009794
date=2016.01.19 (Created 2008.10.21, modified 2011.05.06)
author=KURARAY CO., LTD.
license=CC BY-NC-SA
exact mass=174.08921
ionization energy=70 eV
ion type=[M]+*
computed spectral entropy=3.146126447191296
computed normalized entropy=0.8171443728011705
SPLASH=splash10-05i0-9500000000-76e1858b1ac18b781fc5
submitter=submitter = University of Tokyo Team (Faculty of Engineering, University of Tokyo)
MoNA Rating=3.75

>  <NUM PEAKS>  (1624) 
47

>  <MASS SPECTRAL PEAKS>  (1624) 
26 2.5
27 17.6
28 7.3
29 99.99
30 2.9
31 2.8
39 4.7
41 1.61
43 25.3
44 3
45 17.3
53 0.25
54 2
55 22.7
56 11
57 3.7
58 2
59 3.6
69 14.2
70 0.17
72 2.2
73 59.8
74 19.4
75 0.23
82 2.3
83 9.8
84 15
85 0.7
87 47.6
88 5.1
99 2.9
100 1.5
101 15
102 27.4
103 3
113 0.32
115 27.3
116 3.6
128 22.4
129 6.7
130 30.9
143 4.1
146 2
147 0.44
156 3.8
157 33.4
174 49

$$$$

     RDKit          2D

 13 13  0  0  0  0  0  0  0  0999 V2000
   -2.9231    0.8829    0.0000 C   0  0  0  0  0  0  0  0  0  0  0  0
   -1.6240    3.1329    0.0000 C   0  0  0  0  0  0  0  0  0  0  0  0
   -1.6240    0.1329    0.0000 C   0  0  0  0  0  0  0  0  0  0  0  0
    3.5721   -1.3671    0.0000 C   0  0  0  0  0  0  0  0  0  0  0  0
    3.5726    0.1337    0.0000 C   0  0  0  0  0  0  0  0  0  0  0  0
    2.2726   -2.1179    0.0000 C   0  0  0  0  0  0  0  0  0  0  0  0
    2.2736    0.8837    0.0000 C   0  0  0  0  0  0  0  0  0  0  0  0
    0.9736   -1.3679    0.0000 C   0  0  0  0  0  0  0  0  0  0  0  0
    0.9740    3.1329    0.0000 C   0  0  0  0  0  0  0  0  0  0  0  0
   -0.3250    2.3829    0.0000 C   0  0  0  0  0  0  0  0  0  0  0  0
    0.9740    0.1329    0.0000 C   0  0  0  0  0  0  0  0  0  0  0  0
   -0.3250    0.8829    0.0000 C   0  0  0  0  0  0  0  0  0  0  0  0
    2.2731    3.8829    0.0000 N   0  0  0  0  0  0  0  0  0  0  0  0
  3  1  1  0
  5  4  2  0
  6  4  1  0
  7  5  1  0
  8  6  2  0
 10  2  1  0
 10  9  1  0
 11  7  2  0
 11  8  1  0
 12  3  1  0
 12 10  1  0
 12 11  1  0
 13  9  3  0
M  END
>  <NAME>  (1625) 
2-CYANO-4-PHENYLPENTANE

>  <SYNONYMS>  (1625) 


>  <SPECTRUM TYPE>  (1625) 
MS1

>  <INSTRUMENT TYPE>  (1625) 
EI-B

>  <INSTRUMENT>  (1625) 
JEOL JMS-D-300

>  <ION MODE>  (1625) 
P

>  <INCHIKEY>  (1625) 
LPJQHUZTKUSKPA-UHFFFAOYSA-N

>  <FORMULA>  (1625) 
C12H15N

>  <EXACT MASS>  (1625) 
173.12044948

>  <MW>  (1625) 
173

>  <ID>  (1625) 
JP009793

>  <CONTRIBUTOR>  (1625) 
University of Tokyo Team, {Faculty of Engineering, University of Tokyo

>  <COMMENT>  (1625) 
SMILES=N#CC(C)C(CC)c(c1)cccc1
InChI=InChI=1S/C12H15N/c1-3-12(10(2)9-13)11-7-5-4-6-8-11/h4-8,10,12H,3H2,1-2H3
computed SMILES=N#CC(C)C(C=1C=CC=CC1)CC
accession=JP009793
date=2016.01.19 (Created 2008.10.21, modified 2011.05.06)
author=KURARAY CO., LTD.
license=CC BY-NC-SA
exact mass=173.12045
ionization energy=70 eV
ion type=[M]+*
computed spectral entropy=1.7352967466593192
computed normalized entropy=0.6124836134560038
SPLASH=splash10-0a4i-2900000000-7f9be65666f621ce4626
submitter=submitter = University of Tokyo Team (Faculty of Engineering, University of Tokyo)
MoNA Rating=3.75

>  <NUM PEAKS>  (1625) 
17

>  <MASS SPECTRAL PEAKS>  (1625) 
39 2.8
41 3
51 3.1
77 1.02
78 4.5
79 7.5
91 20.8
103 0.7
104 4.8
105 99.99
106 25
115 0.17
117 1.6
119 8.8
158 2.2
173 2.06
174 1.9

$$$$

     RDKit          2D

 12 11  0  0  0  0  0  0  0  0999 V2000
    3.5724    4.3125    0.0000 C   0  0  0  0  0  0  0  0  0  0  0  0
    2.2733    6.5625    0.0000 C   0  0  0  0  0  0  0  0  0  0  0  0
   -2.9228    6.5625    0.0000 C   0  0  0  0  0  0  0  0  0  0  0  0
   -0.3248    5.0625    0.0000 C   0  0  0  0  0  0  0  0  0  0  0  0
   -5.5209    5.0625    0.0000 C   0  0  0  0  0  0  0  0  0  0  0  0
    0.9743    4.3125    0.0000 C   0  0  0  0  0  0  0  0  0  0  0  0
   -1.6238    4.3125    0.0000 C   0  0  0  0  0  0  0  0  0  0  0  0
   -4.2219    4.3125    0.0000 C   0  0  0  0  0  0  0  0  0  0  0  0
   -6.8200    4.3125    0.0000 C   0  0  0  0  0  0  0  0  0  0  0  0
    2.2733    5.0625    0.0000 C   0  0  0  0  0  0  0  0  0  0  0  0
   -2.9228    5.0625    0.0000 C   0  0  0  0  0  0  0  0  0  0  0  0
   -8.1190    5.0625    0.0000 O   0  0  0  0  0  0  0  0  0  0  0  0
  6  4  1  0
  7  4  1  0
  8  5  1  0
  9  5  1  0
 10  1  1  0
 10  2  1  0
 10  6  1  0
 11  3  1  0
 11  7  1  0
 11  8  1  0
 12  9  1  0
M  END
>  <NAME>  (1626) 
4,8-DIMETHYL-4-NONANOL

>  <SYNONYMS>  (1626) 


>  <SPECTRUM TYPE>  (1626) 
MS1

>  <INSTRUMENT TYPE>  (1626) 
EI-B

>  <INSTRUMENT>  (1626) 
JEOL JMS-D-300

>  <ION MODE>  (1626) 
P

>  <INCHIKEY>  (1626) 
ASDSWUHLJCTXPE-UHFFFAOYSA-N

>  <FORMULA>  (1626) 
C11H24O

>  <EXACT MASS>  (1626) 
172.182715388

>  <MW>  (1626) 
172

>  <ID>  (1626) 
JP009792

>  <CONTRIBUTOR>  (1626) 
University of Tokyo Team, {Faculty of Engineering, University of Tokyo

>  <COMMENT>  (1626) 
SMILES=OCCCC(C)CCCC(C)C
InChI=InChI=1S/C11H24O/c1-10(2)6-4-7-11(3)8-5-9-12/h10-12H,4-9H2,1-3H3
computed SMILES=OCCCC(C)CCCC(C)C
accession=JP009792
date=2016.01.19 (Created 2008.10.21, modified 2011.05.06)
author=KURARAY CO., LTD.
license=CC BY-NC-SA
exact mass=172.18272
ionization energy=70 eV
ion type=[M]+*
computed spectral entropy=2.346020569632241
computed normalized entropy=0.728832268553976
SPLASH=splash10-000i-9100000000-5f26785b7aee867a6678
submitter=submitter = University of Tokyo Team (Faculty of Engineering, University of Tokyo)
MoNA Rating=3.75

>  <NUM PEAKS>  (1626) 
25

>  <MASS SPECTRAL PEAKS>  (1626) 
27 4.7
29 5.5
31 1.3
39 0.26
41 14.3
43 24.3
45 37.7
55 1.81
56 6.6
57 6.4
58 5.2
69 6.44
70 5.2
71 5.1
83 7.8
84 0.3
85 2.5
87 99.99
88 5.8
97 0.27
111 17.2
112 1.6
129 15.5
130 0.11
157 2.7

$$$$

     RDKit          2D

 12 11  0  0  0  0  0  0  0  0999 V2000
   -7.2954    5.5380    0.0000 C   0  0  0  0  0  0  0  0  0  0  0  0
   -5.9964    3.2880    0.0000 C   0  0  0  0  0  0  0  0  0  0  0  0
    1.0478    3.4889    0.0000 C   0  0  0  0  0  0  0  0  0  0  0  0
    3.0969    4.0380    0.0000 C   0  0  0  0  0  0  0  0  0  0  0  0
   -4.6974    5.5380    0.0000 C   0  0  0  0  0  0  0  0  0  0  0  0
    0.4988    5.5380    0.0000 C   0  0  0  0  0  0  0  0  0  0  0  0
   -3.3983    4.7880    0.0000 C   0  0  0  0  0  0  0  0  0  0  0  0
   -0.8002    4.7880    0.0000 C   0  0  0  0  0  0  0  0  0  0  0  0
   -5.9964    4.7880    0.0000 C   0  0  0  0  0  0  0  0  0  0  0  0
    1.7978    4.7880    0.0000 C   0  0  0  0  0  0  0  0  0  0  0  0
    2.5478    6.0870    0.0000 O   0  0  0  0  0  0  0  0  0  0  0  0
   -2.0993    5.5380    0.0000 O   0  0  0  0  0  0  0  0  0  0  0  0
  7  5  1  0
  8  6  1  0
  9  1  1  0
  9  2  1  0
  9  5  2  0
 10  3  1  0
 10  4  1  0
 10  6  1  0
 11 10  1  0
 12  7  1  0
 12  8  1  0
M  END
>  <NAME>  (1627) 
4-(3-METHYL-2-BUTENOXY)-2-METHYL-2-BUTANOL

>  <SYNONYMS>  (1627) 


>  <SPECTRUM TYPE>  (1627) 
MS1

>  <INSTRUMENT TYPE>  (1627) 
EI-B

>  <INSTRUMENT>  (1627) 
JEOL JMS-D-300

>  <ION MODE>  (1627) 
P

>  <INCHIKEY>  (1627) 
XWKFROPYJWBTBH-UHFFFAOYSA-N

>  <FORMULA>  (1627) 
C10H20O2

>  <EXACT MASS>  (1627) 
172.14632988

>  <MW>  (1627) 
172

>  <ID>  (1627) 
JP009791

>  <CONTRIBUTOR>  (1627) 
University of Tokyo Team, {Faculty of Engineering, University of Tokyo

>  <COMMENT>  (1627) 
SMILES=CC(C)=CCOCCC(C)(C)O
InChI=InChI=1S/C10H20O2/c1-9(2)5-7-12-8-6-10(3,4)11/h5,11H,6-8H2,1-4H3
computed SMILES=OC(C)(C)CCOCC=C(C)C
accession=JP009791
date=2016.01.19 (Created 2008.10.21, modified 2011.05.06)
author=KURARAY CO., LTD.
license=CC BY-NC-SA
exact mass=172.14633
ionization energy=70 eV
ion type=[M]+*
computed spectral entropy=2.469477583761284
computed normalized entropy=0.767186346451373
SPLASH=splash10-014i-9000000000-35cf055e67a342eb266c
submitter=submitter = University of Tokyo Team (Faculty of Engineering, University of Tokyo)
MoNA Rating=3.75

>  <NUM PEAKS>  (1627) 
25

>  <MASS SPECTRAL PEAKS>  (1627) 
27 5.8
29 5
39 7
40 0.25
41 60.2
42 8.6
43 7.5
53 0.76
55 17.2
56 4.2
57 6.7
59 1.86
67 10.6
68 14.5
69 99.99
70 3.18
71 31.8
83 5
85 49.8
86 0.64
87 8
89 12.5
96 2.5
139 4.43
140 4.1

$$$$

     RDKit          2D

 12 12  0  0  0  0  0  0  0  0999 V2000
    7.4251    1.2910    0.0000 C   0  0  0  0  0  0  0  0  0  0  0  0
    6.1264   -0.9592    0.0000 C   0  0  0  0  0  0  0  0  0  0  0  0
   -0.3700   -1.7100    0.0000 C   0  0  0  0  0  0  0  0  0  0  0  0
   -1.6700   -0.9600    0.0000 C   0  0  0  0  0  0  0  0  0  0  0  0
    0.9300   -0.9600    0.0000 C   0  0  0  0  0  0  0  0  0  0  0  0
    4.8270    1.2906    0.0000 C   0  0  0  0  0  0  0  0  0  0  0  0
   -1.6700    0.5400    0.0000 C   0  0  0  0  0  0  0  0  0  0  0  0
    3.5281    0.5404    0.0000 C   0  0  0  0  0  0  0  0  0  0  0  0
    6.1262    0.5408    0.0000 C   0  0  0  0  0  0  0  0  0  0  0  0
    0.9300    0.5400    0.0000 C   0  0  0  0  0  0  0  0  0  0  0  0
   -0.3700    1.2900    0.0000 O   0  0  0  0  0  0  0  0  0  0  0  0
    2.2289    1.2902    0.0000 O   0  0  0  0  0  0  0  0  0  0  0  0
  4  3  1  0
  5  3  1  0
  7  4  1  0
  8  6  1  0
  9  1  1  0
  9  2  1  0
  9  6  1  0
 10  5  1  0
 11  7  1  0
 11 10  1  0
 12  8  1  0
 12 10  1  0
M  END
>  <NAME>  (1628) 
6-(3-METHYL)BUTOXYTETRAHYDRO-2H-PYRAN

>  <SYNONYMS>  (1628) 


>  <SPECTRUM TYPE>  (1628) 
MS1

>  <INSTRUMENT TYPE>  (1628) 
EI-B

>  <INSTRUMENT>  (1628) 
JEOL JMS-D-300

>  <ION MODE>  (1628) 
P

>  <INCHIKEY>  (1628) 
DHDKLGMTNBVEIS-UHFFFAOYSA-N

>  <FORMULA>  (1628) 
C10H20O2

>  <EXACT MASS>  (1628) 
172.14632988

>  <MW>  (1628) 
172

>  <ID>  (1628) 
JP009790

>  <CONTRIBUTOR>  (1628) 
University of Tokyo Team, {Faculty of Engineering, University of Tokyo

>  <COMMENT>  (1628) 
SMILES=CC(C)CCOC(C1)OCCC1
InChI=InChI=1S/C10H20O2/c1-9(2)6-8-12-10-5-3-4-7-11-10/h9-10H,3-8H2,1-2H3
computed SMILES=O1CCCCC1OCCC(C)C
accession=JP009790
date=2016.01.19 (Created 2008.10.21, modified 2011.05.06)
author=KURARAY CO., LTD.
license=CC BY-NC-SA
exact mass=172.14633
ionization energy=70 eV
ion type=[M]+*
computed spectral entropy=2.5759576387950656
computed normalized entropy=0.743264262205937
SPLASH=splash10-000l-9000000000-9ce435bebfd9d4197655
submitter=submitter = University of Tokyo Team (Faculty of Engineering, University of Tokyo)
MoNA Rating=3.75

>  <NUM PEAKS>  (1628) 
32

>  <MASS SPECTRAL PEAKS>  (1628) 
26 4.6
27 20
28 14.2
29 2.55
31 7.4
39 14.5
40 3.5
41 4.09
42 8.9
43 63.6
44 4.9
45 0.23
53 3.5
54 2.5
55 26.3
56 2.37
57 15.6
67 8.8
69 1.8
70 1.29
71 49.6
72 2.7
74 2
83 0.3
84 3.6
85 99.99
86 6.5
101 0.38
114 1.6
115 3.5
171 4
172 1.3

$$$$

     RDKit          2D

 12 12  0  0  0  0  0  0  0  0999 V2000
    4.5486   -2.8023    0.0000 C   0  0  0  0  0  0  0  0  0  0  0  0
    3.2481   -3.5498    0.0000 C   0  0  0  0  0  0  0  0  0  0  0  0
   -3.5736   -5.3441    0.0000 C   0  0  0  0  0  0  0  0  0  0  0  0
   -4.3236   -4.0451    0.0000 C   0  0  0  0  0  0  0  0  0  0  0  0
   -2.1051   -5.0275    0.0000 C   0  0  0  0  0  0  0  0  0  0  0  0
   -0.6475   -2.7921    0.0000 C   0  0  0  0  0  0  0  0  0  0  0  0
   -3.3201   -2.9231    0.0000 C   0  0  0  0  0  0  0  0  0  0  0  0
    0.6500   -3.5447    0.0000 C   0  0  0  0  0  0  0  0  0  0  0  0
   -1.9480   -3.5396    0.0000 N   0  0  0  0  0  0  0  0  0  0  0  0
   -3.6320   -1.4558    0.0000 O   0  0  0  0  0  0  0  0  0  0  0  0
    0.6471   -5.0447    0.0000 O   0  0  0  0  0  0  0  0  0  0  0  0
    1.9505   -2.7972    0.0000 O   0  0  0  0  0  0  0  0  0  0  0  0
  2  1  1  0
  4  3  1  0
  5  3  1  0
  7  4  1  0
  8  6  1  0
  9  5  1  0
  9  6  1  0
  9  7  1  0
 10  7  2  0
 11  8  2  0
 12  2  1  0
 12  8  1  0
M  END
>  <NAME>  (1629) 
ETHYL 2-PYRROLIDONYLACETATE

>  <SYNONYMS>  (1629) 
N-ETHOXYCARBONYLMETHYL-2-PYRROLIDONE

>  <SPECTRUM TYPE>  (1629) 
MS1

>  <INSTRUMENT TYPE>  (1629) 
EI-B

>  <INSTRUMENT>  (1629) 
JEOL JMS-D-300

>  <ION MODE>  (1629) 
P

>  <INCHIKEY>  (1629) 
AQZWKPDVWWJWRY-UHFFFAOYSA-N

>  <FORMULA>  (1629) 
C8H13NO3

>  <EXACT MASS>  (1629) 
171.089543276

>  <MW>  (1629) 
171

>  <ID>  (1629) 
JP009789

>  <CONTRIBUTOR>  (1629) 
University of Tokyo Team, {Faculty of Engineering, University of Tokyo

>  <COMMENT>  (1629) 
SMILES=CCOC(=O)CN(C1)C(=O)CC1
InChI=InChI=1S/C8H13NO3/c1-2-12-8(11)6-9-5-3-4-7(9)10/h2-6H2,1H3
computed SMILES=O=C(OCC)CN1C(=O)CCC1
accession=JP009789
date=2016.01.19 (Created 2008.10.21, modified 2011.05.06)
author=KURARAY CO., LTD.
license=CC BY-NC-SA
exact mass=171.08954
ionization energy=70 eV
ion type=[M]+*
computed spectral entropy=1.9844407884999586
computed normalized entropy=0.6739622734724652
SPLASH=splash10-0002-9100000000-7143ea5aad2a73df86f0
submitter=submitter = University of Tokyo Team (Faculty of Engineering, University of Tokyo)
MoNA Rating=3.75

>  <NUM PEAKS>  (1629) 
19

>  <MASS SPECTRAL PEAKS>  (1629) 
27 3.2
28 5.8
29 3.1
30 0.12
39 2.3
41 11.8
42 8.8
43 0.42
68 3.4
69 11.2
70 27.6
71 0.15
84 17.1
97 1.2
98 99.99
99 0.68
126 4.8
171 21.4
172 2.2

$$$$

     RDKit          2D

 12 11  0  0  0  0  0  0  0  0999 V2000
    2.6426    4.4228    0.0000 C   0  0  0  0  0  0  0  0  0  0  0  0
   -7.7497    4.4228    0.0000 C   0  0  0  0  0  0  0  0  0  0  0  0
   -6.4506    6.6728    0.0000 C   0  0  0  0  0  0  0  0  0  0  0  0
   -0.2903    6.3219    0.0000 C   0  0  0  0  0  0  0  0  0  0  0  0
    1.3436    5.1728    0.0000 C   0  0  0  0  0  0  0  0  0  0  0  0
   -3.8526    5.1728    0.0000 C   0  0  0  0  0  0  0  0  0  0  0  0
   -5.1516    4.4228    0.0000 C   0  0  0  0  0  0  0  0  0  0  0  0
    0.0445    4.4228    0.0000 C   0  0  0  0  0  0  0  0  0  0  0  0
   -2.5535    4.4228    0.0000 C   0  0  0  0  0  0  0  0  0  0  0  0
   -6.4506    5.1728    0.0000 C   0  0  0  0  0  0  0  0  0  0  0  0
   -1.2545    5.1728    0.0000 C   0  0  0  0  0  0  0  0  0  0  0  0
   -2.2187    6.3219    0.0000 O   0  0  0  0  0  0  0  0  0  0  0  0
  5  1  2  0
  7  6  1  0
  8  5  1  0
  9  6  1  0
 10  2  1  0
 10  3  1  0
 10  7  1  0
 11  4  1  0
 11  8  1  0
 11  9  1  0
 12 11  1  0
M  END
>  <NAME>  (1630) 
4,8-DIMETHYL-4-HYDROXY-1-NONENE

>  <SYNONYMS>  (1630) 
4,8-DIMETHYL-1-NONEN-4-OL

>  <SPECTRUM TYPE>  (1630) 
MS1

>  <INSTRUMENT TYPE>  (1630) 
EI-B

>  <INSTRUMENT>  (1630) 
JEOL JMS-D-300

>  <ION MODE>  (1630) 
P

>  <INCHIKEY>  (1630) 
LGYLSRRKPXWRAT-UHFFFAOYSA-N

>  <FORMULA>  (1630) 
C11H22O

>  <EXACT MASS>  (1630) 
170.167065324

>  <MW>  (1630) 
170

>  <ID>  (1630) 
JP009788

>  <CONTRIBUTOR>  (1630) 
University of Tokyo Team, {Faculty of Engineering, University of Tokyo

>  <COMMENT>  (1630) 
SMILES=C=CCC(C)(O)CCCC(C)C
InChI=InChI=1S/C11H22O/c1-5-8-11(4,12)9-6-7-10(2)3/h5,10,12H,1,6-9H2,2-4H3
computed SMILES=OC(C)(CC=C)CCCC(C)C
accession=JP009788
date=2016.01.19 (Created 2008.10.21, modified 2011.05.06)
author=KURARAY CO., LTD.
license=CC BY-NC-SA
exact mass=170.16707
ionization energy=70 eV
ion type=[M]+*
computed spectral entropy=2.3558468952707363
computed normalized entropy=0.7230746135905943
SPLASH=splash10-014l-9100000000-7615df54a44ba7db5797
submitter=submitter = University of Tokyo Team (Faculty of Engineering, University of Tokyo)
MoNA Rating=3.75

>  <NUM PEAKS>  (1630) 
26

>  <MASS SPECTRAL PEAKS>  (1630) 
27 4.5
29 5.7
39 5.8
41 1.88
43 86.4
45 9.1
55 26.3
56 0.23
57 5.7
58 5.8
67 5.2
69 99.99
70 7.1
71 4.2
81 4.2
82 0.19
83 1.9
85 38.8
86 2.2
87 0.32
95 9.4
111 26.9
112 2.5
113 0.28
129 28.6
130 2.5

$$$$

     RDKit          2D

 12 12  0  0  0  0  0  0  0  0999 V2000
   -3.4837    0.4227    0.0000 C   0  0  0  0  0  0  0  0  0  0  0  0
    3.4191   -0.8150    0.0000 C   0  0  0  0  0  0  0  0  0  0  0  0
    4.3841    1.0741    0.0000 C   0  0  0  0  0  0  0  0  0  0  0  0
   -1.6500    1.4490    0.0000 C   0  0  0  0  0  0  0  0  0  0  0  0
   -2.2706   -0.4595    0.0000 C   0  0  0  0  0  0  0  0  0  0  0  0
    1.0600   -1.2700    0.0000 C   0  0  0  0  0  0  0  0  0  0  0  0
   -0.4400   -1.2700    0.0000 C   0  0  0  0  0  0  0  0  0  0  0  0
    1.5300    0.1500    0.0000 C   0  0  0  0  0  0  0  0  0  0  0  0
    2.9571    0.6121    0.0000 C   0  0  0  0  0  0  0  0  0  0  0  0
   -0.9000    0.1500    0.0000 C   0  0  0  0  0  0  0  0  0  0  0  0
    2.4950    2.0391    0.0000 O   0  0  0  0  0  0  0  0  0  0  0  0
    0.3100    1.0300    0.0000 O   0  0  0  0  0  0  0  0  0  0  0  0
  5  1  2  0
  7  6  1  0
  8  6  1  0
  9  2  1  0
  9  3  1  0
  9  8  1  0
 10  4  1  0
 10  5  1  0
 10  7  1  0
 11  9  1  0
 12  8  1  0
 12 10  1  0
M  END
>  <NAME>  (1631) 
2-ETHENYL-2-METHYL-5-(1-METHYL-1-HYDROXY)ETHYLTETRAHYDROFURAN

>  <SYNONYMS>  (1631) 
LINALOL OXIDE

>  <SPECTRUM TYPE>  (1631) 
MS1

>  <INSTRUMENT TYPE>  (1631) 
EI-B

>  <INSTRUMENT>  (1631) 
JEOL JMS-D-300

>  <ION MODE>  (1631) 
P

>  <INCHIKEY>  (1631) 
BRHDDEIRQPDPMG-UHFFFAOYSA-N

>  <FORMULA>  (1631) 
C10H18O2

>  <EXACT MASS>  (1631) 
170.130679816

>  <MW>  (1631) 
170

>  <ID>  (1631) 
JP009787

>  <CONTRIBUTOR>  (1631) 
University of Tokyo Team, {Faculty of Engineering, University of Tokyo

>  <COMMENT>  (1631) 
SMILES=C=CC(C)(C1)OC(C1)C(C)(C)O
InChI=InChI=1S/C10H18O2/c1-5-10(4)7-6-8(12-10)9(2,3)11/h5,8,11H,1,6-7H2,2-4H3
computed SMILES=OC(C)(C)C1OC(C=C)(C)CC1
accession=JP009787
date=2016.01.19 (Created 2008.10.21, modified 2011.05.06)
author=KURARAY CO., LTD.
license=CC BY-NC-SA
exact mass=170.13068
ionization energy=70 eV
ion type=[M]+*
computed spectral entropy=3.1975859429324376
computed normalized entropy=0.817374013009538
SPLASH=splash10-052f-9100000000-721d5756936e1fe18c95
submitter=submitter = University of Tokyo Team (Faculty of Engineering, University of Tokyo)
MoNA Rating=3.75

>  <NUM PEAKS>  (1631) 
50

>  <MASS SPECTRAL PEAKS>  (1631) 
27 9
29 7.5
31 9.7
39 0.9
41 25.7
42 3.9
43 59.8
44 0.25
45 3.6
53 7.7
54 1.8
55 3.99
56 4.2
57 8
58 2.3
59 99.99
60 5.1
67 28.8
68 44.7
69 2.51
70 12.7
71 19.5
72 12.4
73 0.48
77 3.9
79 11.1
81 24.6
82 0.66
83 19.5
84 7.6
85 14.3
91 0.36
93 43.1
94 64.2
95 27
96 0.21
97 12.4
98 1.4
102 7.9
109 0.39
110 2.6
111 50.5
112 10.6
113 1.63
114 1.4
125 2.2
137 7.1
139 0.15
143 3.9
155 7.1

$$$$

     RDKit          2D

 12 12  0  0  0  0  0  0  0  0999 V2000
   -6.0393    2.6903    0.0000 C   0  0  0  0  0  0  0  0  0  0  0  0
   -4.7402    4.9403    0.0000 C   0  0  0  0  0  0  0  0  0  0  0  0
    1.4201    4.5894    0.0000 C   0  0  0  0  0  0  0  0  0  0  0  0
   -2.1422    3.4403    0.0000 C   0  0  0  0  0  0  0  0  0  0  0  0
   -3.4412    2.6903    0.0000 C   0  0  0  0  0  0  0  0  0  0  0  0
   -0.8431    2.6903    0.0000 C   0  0  0  0  0  0  0  0  0  0  0  0
    3.2558    2.6899    0.0000 C   0  0  0  0  0  0  0  0  0  0  0  0
   -4.7402    3.4403    0.0000 C   0  0  0  0  0  0  0  0  0  0  0  0
    1.7549    2.6903    0.0000 C   0  0  0  0  0  0  0  0  0  0  0  0
    0.4559    3.4403    0.0000 C   0  0  0  0  0  0  0  0  0  0  0  0
   -0.5083    4.5894    0.0000 O   0  0  0  0  0  0  0  0  0  0  0  0
    2.5058    1.3908    0.0000 O   0  0  0  0  0  0  0  0  0  0  0  0
  5  4  1  0
  6  4  1  0
  8  1  1  0
  8  2  1  0
  8  5  2  0
  9  7  1  0
 10  3  1  0
 10  6  1  0
 10  9  1  0
 11 10  1  0
 12  7  1  0
 12  9  1  0
M  END
>  <NAME>  (1632) 
3,7-DIMETHYL-1,2-EPOXY-3-HYDROXY-6-OCTENE

>  <SYNONYMS>  (1632) 
1,2-EPOXY-3,7-DIMETHYL-6-OCTEN-3-OL

>  <SPECTRUM TYPE>  (1632) 
MS1

>  <INSTRUMENT TYPE>  (1632) 
EI-B

>  <INSTRUMENT>  (1632) 
JEOL JMS-D-300

>  <ION MODE>  (1632) 
P

>  <INCHIKEY>  (1632) 
BXOURKNXQXLKRK-UHFFFAOYSA-N

>  <FORMULA>  (1632) 
C10H18O2

>  <EXACT MASS>  (1632) 
170.130679816

>  <MW>  (1632) 
170

>  <ID>  (1632) 
JP009786

>  <CONTRIBUTOR>  (1632) 
University of Tokyo Team, {Faculty of Engineering, University of Tokyo

>  <COMMENT>  (1632) 
SMILES=CC(C)=CCCC(C)(O)C(C1)O1
InChI=InChI=1S/C10H18O2/c1-8(2)5-4-6-10(3,11)9-7-12-9/h5,9,11H,4,6-7H2,1-3H3
computed SMILES=OC(C)(CCC=C(C)C)C1OC1
accession=JP009786
date=2016.01.19 (Created 2008.10.21, modified 2011.05.06)
author=KURARAY CO., LTD.
license=CC BY-NC-SA
exact mass=170.13068
ionization energy=70 eV
ion type=[M]+*
computed spectral entropy=2.9935216489683913
computed normalized entropy=0.7539802397779265
SPLASH=splash10-067l-9100000000-69fc30af472f94682741
submitter=submitter = University of Tokyo Team (Faculty of Engineering, University of Tokyo)
MoNA Rating=3.75

>  <NUM PEAKS>  (1632) 
53

>  <MASS SPECTRAL PEAKS>  (1632) 
27 7.7
29 6.9
31 4.7
39 1.03
40 2.7
41 58.8
42 5.3
43 99.99
44 1.8
51 2.1
53 8.2
54 0.35
55 32.5
56 12.2
57 3.7
58 0.21
59 3.4
65 2.1
66 1.5
67 5.39
68 73.1
69 94.6
70 16.3
71 1.98
77 2.1
79 5
80 2.3
81 1.03
82 66.7
83 43.9
84 7.2
85 2.06
87 14.8
88 7.1
91 4.2
92 0.14
93 6
94 2.7
95 9.6
96 0.47
97 2.7
105 3.5
107 6.6
108 0.18
109 56.1
110 7
111 6.9
119 0.28
121 3.2
127 6.9
137 2
152 0.94
153 1.6

$$$$

     RDKit          2D

 12 12  0  0  0  0  0  0  0  0999 V2000
    7.2107   -0.2406    0.0000 C   0  0  0  0  0  0  0  0  0  0  0  0
    5.5129   -2.2073    0.0000 C   0  0  0  0  0  0  0  0  0  0  0  0
    0.9204   -1.2422    0.0000 C   0  0  0  0  0  0  0  0  0  0  0  0
    3.2420   -0.2469    0.0000 C   0  0  0  0  0  0  0  0  0  0  0  0
    4.6586    0.2463    0.0000 C   0  0  0  0  0  0  0  0  0  0  0  0
    2.1066    0.7332    0.0000 C   0  0  0  0  0  0  0  0  0  0  0  0
   -2.1167   -0.4566    0.0000 C   0  0  0  0  0  0  0  0  0  0  0  0
    5.7941   -0.7339    0.0000 C   0  0  0  0  0  0  0  0  0  0  0  0
   -0.8100    0.2800    0.0000 C   0  0  0  0  0  0  0  0  0  0  0  0
    0.6900    0.2400    0.0000 C   0  0  0  0  0  0  0  0  0  0  0  0
   -3.4079    0.3067    0.0000 O   0  0  0  0  0  0  0  0  0  0  0  0
   -0.0700    1.5800    0.0000 O   0  0  0  0  0  0  0  0  0  0  0  0
  5  4  1  0
  6  4  1  0
  8  1  1  0
  8  2  1  0
  8  5  2  0
  9  7  1  0
 10  3  1  0
 10  6  1  0
 10  9  1  0
 11  7  1  0
 12  9  1  0
 12 10  1  0
M  END
>  <NAME>  (1633) 
3,7-DIMETHYL-2,3-EPOXY-6-OCTEN-1-OL

>  <SYNONYMS>  (1633) 


>  <SPECTRUM TYPE>  (1633) 
MS1

>  <INSTRUMENT TYPE>  (1633) 
EI-B

>  <INSTRUMENT>  (1633) 
JEOL JMS-D-300

>  <ION MODE>  (1633) 
P

>  <INCHIKEY>  (1633) 
RZRBXGPSHVAUQO-UHFFFAOYSA-N

>  <FORMULA>  (1633) 
C10H18O2

>  <EXACT MASS>  (1633) 
170.130679816

>  <MW>  (1633) 
170

>  <ID>  (1633) 
JP009785

>  <CONTRIBUTOR>  (1633) 
University of Tokyo Team, {Faculty of Engineering, University of Tokyo

>  <COMMENT>  (1633) 
SMILES=CC(C)=CCCC(C)(O1)C(CO)1
InChI=InChI=1S/C10H18O2/c1-8(2)5-4-6-10(3)9(7-11)12-10/h5,9,11H,4,6-7H2,1-3H3
computed SMILES=OCC1OC1(C)CCC=C(C)C
accession=JP009785
date=2016.01.19 (Created 2008.10.21, modified 2011.05.06)
author=KURARAY CO., LTD.
license=CC BY-NC-SA
exact mass=170.13068
ionization energy=70 eV
ion type=[M]+*
computed spectral entropy=3.1582221636525794
computed normalized entropy=0.7881107004755749
SPLASH=splash10-052f-9200000000-2a97522368b8d2ee6f7b
submitter=submitter = University of Tokyo Team (Faculty of Engineering, University of Tokyo)
MoNA Rating=3.75

>  <NUM PEAKS>  (1633) 
55

>  <MASS SPECTRAL PEAKS>  (1633) 
27 15.1
28 3.9
29 12.4
31 0.82
39 25.2
40 4.9
41 99.99
42 0.91
43 80.5
44 4
45 3.5
51 0.29
53 15.7
54 4.3
55 36.3
56 0.62
57 4.8
58 5
59 12
61 3.23
65 3.3
67 59.2
68 18
69 8.19
70 16
71 26.2
72 3.6
77 0.45
79 9.9
81 27.7
82 51.8
83 1.88
84 8.5
85 9.4
87 2.7
88 1.06
91 3.6
93 9.2
94 4.6
95 2.77
96 3.3
97 7
101 2.2
107 0.32
108 2.1
109 96.6
110 33.7
111 1.03
119 3.2
121 6.4
123 1.6
137 0.15
139 4.3
152 1.7
155 1

$$$$

     RDKit          2D

 12 11  0  0  0  0  0  0  0  0999 V2000
    2.5981    4.5000    0.0000 C   0  0  0  0  0  0  0  0  0  0  0  0
   -5.1962    3.0000    0.0000 C   0  0  0  0  0  0  0  0  0  0  0  0
   -1.2990    2.2500    0.0000 C   0  0  0  0  0  0  0  0  0  0  0  0
    1.2990    5.2500    0.0000 C   0  0  0  0  0  0  0  0  0  0  0  0
    0.0000    4.5000    0.0000 C   0  0  0  0  0  0  0  0  0  0  0  0
   -1.2990    5.2500    0.0000 C   0  0  0  0  0  0  0  0  0  0  0  0
   -3.8971    5.2500    0.0000 C   0  0  0  0  0  0  0  0  0  0  0  0
   -6.4952    5.2500    0.0000 C   0  0  0  0  0  0  0  0  0  0  0  0
   -5.1962    4.5000    0.0000 C   0  0  0  0  0  0  0  0  0  0  0  0
   -2.5981    4.5000    0.0000 C   0  0  0  0  0  0  0  0  0  0  0  0
   -7.7942    4.5000    0.0000 O   0  0  0  0  0  0  0  0  0  0  0  0
   -2.5981    3.0000    0.0000 O   0  0  0  0  0  0  0  0  0  0  0  0
  4  1  1  0
  5  4  1  0
  6  5  1  0
  9  2  1  0
  7  9  2  0
  9  8  1  0
 10  6  1  0
 10  7  1  0
 11  8  2  0
 12  3  1  0
 12 10  1  0
M  END
>  <NAME>  (1634) 
4-METHOXY-2-METHYL-2-OCTENAL

>  <SYNONYMS>  (1634) 


>  <SPECTRUM TYPE>  (1634) 
MS1

>  <INSTRUMENT TYPE>  (1634) 
EI-B

>  <INSTRUMENT>  (1634) 
JEOL JMS-D-300

>  <ION MODE>  (1634) 
P

>  <INCHIKEY>  (1634) 
RTCHEAZARYSCOY-VQHVLOKHSA-N

>  <FORMULA>  (1634) 
C10H18O2

>  <EXACT MASS>  (1634) 
170.130679816

>  <MW>  (1634) 
170

>  <ID>  (1634) 
JP009784

>  <CONTRIBUTOR>  (1634) 
University of Tokyo Team, {Faculty of Engineering, University of Tokyo

>  <COMMENT>  (1634) 
SMILES=CCCCC(OC)C=C(C)C=O
InChI=InChI=1S/C10H18O2/c1-4-5-6-10(12-3)7-9(2)8-11/h7-8,10H,4-6H2,1-3H3/b9-7+
computed SMILES=O=CC(=CC(OC)CCCC)C
accession=JP009784
date=2016.01.19 (Created 2008.10.21, modified 2011.05.06)
author=KURARAY CO., LTD.
license=CC BY-NC-SA
exact mass=170.13068
ionization energy=70 eV
ion type=[M]+*
computed spectral entropy=1.9860650720887592
computed normalized entropy=0.6425227417795458
SPLASH=splash10-03di-5900000000-40f470c94909191c14af
submitter=submitter = University of Tokyo Team (Faculty of Engineering, University of Tokyo)
MoNA Rating=3.75

>  <NUM PEAKS>  (1634) 
22

>  <MASS SPECTRAL PEAKS>  (1634) 
27 4.1
29 5.1
39 4.9
41 0.9
43 3.4
45 14.5
53 5.8
55 0.94
59 3.2
67 2.3
69 4
71 0.19
81 6.5
83 1.8
85 18.8
95 0.23
112 2.5
113 99.99
114 8.4
141 0.5
170 8.8
171 1

$$$$

     RDKit          2D

 12 11  0  0  0  0  0  0  0  0999 V2000
   -8.4437    5.6250    0.0000 C   0  0  0  0  0  0  0  0  0  0  0  0
    3.2476    4.8750    0.0000 C   0  0  0  0  0  0  0  0  0  0  0  0
   -5.8457    7.1250    0.0000 C   0  0  0  0  0  0  0  0  0  0  0  0
   -0.6495    7.1250    0.0000 C   0  0  0  0  0  0  0  0  0  0  0  0
   -7.1447    4.8750    0.0000 C   0  0  0  0  0  0  0  0  0  0  0  0
    1.9486    5.6250    0.0000 C   0  0  0  0  0  0  0  0  0  0  0  0
   -4.5466    4.8750    0.0000 C   0  0  0  0  0  0  0  0  0  0  0  0
   -3.2476    5.6250    0.0000 C   0  0  0  0  0  0  0  0  0  0  0  0
   -5.8457    5.6250    0.0000 C   0  0  0  0  0  0  0  0  0  0  0  0
   -0.6495    5.6250    0.0000 C   0  0  0  0  0  0  0  0  0  0  0  0
    0.6495    4.8750    0.0000 O   0  0  0  0  0  0  0  0  0  0  0  0
   -1.9486    4.8750    0.0000 O   0  0  0  0  0  0  0  0  0  0  0  0
  5  1  2  0
  6  2  1  0
  8  7  1  0
  9  3  1  0
  9  5  1  0
  7  9  2  0
 10  4  1  0
 11  6  1  0
 11 10  1  0
 12  8  1  0
 12 10  1  0
M  END
>  <NAME>  (1635) 
1-(1-ETHOXY)ETHOXY-3-METHYL-2,4-PENTADIENE

>  <SYNONYMS>  (1635) 


>  <SPECTRUM TYPE>  (1635) 
MS1

>  <INSTRUMENT TYPE>  (1635) 
EI-B

>  <INSTRUMENT>  (1635) 
JEOL JMS-D-300

>  <ION MODE>  (1635) 
P

>  <INCHIKEY>  (1635) 
SXYHZQKHSJEQNM-VQHVLOKHSA-N

>  <FORMULA>  (1635) 
C10H18O2

>  <EXACT MASS>  (1635) 
170.130679816

>  <MW>  (1635) 
170

>  <ID>  (1635) 
JP009783

>  <CONTRIBUTOR>  (1635) 
University of Tokyo Team, {Faculty of Engineering, University of Tokyo

>  <COMMENT>  (1635) 
SMILES=CCOC(C)OCC=C(C)C=C
InChI=InChI=1S/C10H18O2/c1-5-9(3)7-8-12-10(4)11-6-2/h5,7,10H,1,6,8H2,2-4H3/b9-7+
computed SMILES=O(CC=C(C=C)C)C(OCC)C
accession=JP009783
date=2016.01.19 (Created 2008.10.21, modified 2011.05.06)
author=KURARAY CO., LTD.
license=CC BY-NC-SA
exact mass=170.13068
ionization energy=70 eV
ion type=[M]+*
computed spectral entropy=2.5854264815190486
computed normalized entropy=0.7214769967513914
SPLASH=splash10-014j-9000000000-d77342485c2046b4d175
submitter=submitter = University of Tokyo Team (Faculty of Engineering, University of Tokyo)
MoNA Rating=3.75

>  <NUM PEAKS>  (1635) 
36

>  <MASS SPECTRAL PEAKS>  (1635) 
27 9.9
28 2.1
29 5
31 0.15
39 10.6
40 2.5
41 18.2
42 0.31
43 14.3
44 1.6
45 86.5
46 0.22
50 1.3
51 3.3
52 1.8
53 1.22
54 7.4
55 8.8
65 4.2
66 0.28
67 99.99
68 6.3
73 18.5
77 0.56
79 11
80 2.8
81 24
82 8.9
83 8.3
91 2.5
93 4.4
97 0.15
111 3.2
115 1.4
125 1.3
126 8.1

$$$$

     RDKit          2D

 11 10  0  0  0  0  0  0  0  0999 V2000
   -7.4695    3.9375    0.0000 C   0  0  0  0  0  0  0  0  0  0  0  0
    0.3248    5.4375    0.0000 C   0  0  0  0  0  0  0  0  0  0  0  0
    1.6238    3.1875    0.0000 C   0  0  0  0  0  0  0  0  0  0  0  0
   -4.8714    5.4375    0.0000 C   0  0  0  0  0  0  0  0  0  0  0  0
   -6.1704    3.1875    0.0000 C   0  0  0  0  0  0  0  0  0  0  0  0
   -3.5724    3.1875    0.0000 C   0  0  0  0  0  0  0  0  0  0  0  0
   -2.2733    3.9375    0.0000 C   0  0  0  0  0  0  0  0  0  0  0  0
    0.3248    3.9375    0.0000 C   0  0  0  0  0  0  0  0  0  0  0  0
   -4.8714    3.9375    0.0000 C   0  0  0  0  0  0  0  0  0  0  0  0
   -0.9743    3.1875    0.0000 C   0  0  0  0  0  0  0  0  0  0  0  0
   -0.9743    1.6875    0.0000 Cl  0  0  0  0  0  0  0  0  0  0  0  0
  5  1  2  0
  7  6  1  0
  8  2  2  0
  8  3  1  0
  9  4  1  0
  9  5  1  0
  6  9  2  0
 10  7  1  0
 10  8  1  0
 11 10  1  0
M  END
>  <NAME>  (1636) 
3-CHLORO-2,6-DIMETHYL-1,5,7-OCTATRIENE

>  <SYNONYMS>  (1636) 


>  <SPECTRUM TYPE>  (1636) 
MS1

>  <INSTRUMENT TYPE>  (1636) 
EI-B

>  <INSTRUMENT>  (1636) 
JEOL JMS-D-300

>  <ION MODE>  (1636) 
P

>  <INCHIKEY>  (1636) 
RHUJVDWXWYMVRC-RMKNXTFCSA-N

>  <FORMULA>  (1636) 
C10H15Cl

>  <EXACT MASS>  (1636) 
170.08622816

>  <MW>  (1636) 
170

>  <ID>  (1636) 
JP009782

>  <CONTRIBUTOR>  (1636) 
University of Tokyo Team, {Faculty of Engineering, University of Tokyo

>  <COMMENT>  (1636) 
SMILES=C=CC(C)=CCC(Cl)C(C)=C
InChI=InChI=1S/C10H15Cl/c1-5-9(4)6-7-10(11)8(2)3/h5-6,10H,1-2,7H2,3-4H3/b9-6+
computed SMILES=ClC(C(=C)C)CC=C(C=C)C
accession=JP009782
date=2016.01.19 (Created 2008.10.21, modified 2011.05.06)
author=KURARAY CO., LTD.
license=CC BY-NC-SA
exact mass=170.08623
ionization energy=70 eV
ion type=[M]+*
computed spectral entropy=3.2389159825540794
computed normalized entropy=0.8412446268593707
SPLASH=splash10-0006-9700000000-26805e689ea17dc7b4f6
submitter=submitter = University of Tokyo Team (Faculty of Engineering, University of Tokyo)
MoNA Rating=3.75

>  <NUM PEAKS>  (1636) 
47

>  <MASS SPECTRAL PEAKS>  (1636) 
27 6.7
29 6.3
39 9.2
41 2.05
43 99.99
44 4.1
51 2.9
53 0.92
55 8.5
65 5.7
67 8
68 0.63
69 9.4
73 5.1
77 11.4
78 0.32
79 19.6
80 8.2
81 7.4
84 0.45
91 21.5
92 8
93 42.8
94 0.78
95 5
103 3.3
105 16
106 0.77
107 38.5
108 7.5
109 2
119 5.18
120 8.2
121 32.8
122 8.5
123 0.3
127 4.3
133 2.6
134 31.9
135 6.97
136 8.9
155 16.5
157 6.7
170 6.62
171 9.4
172 21.9
173 3.8

$$$$

     RDKit          2D

 12 11  0  0  0  0  0  0  0  0999 V2000
    0.0000    0.0000    0.0000 C   0  0  0  0  0  0  0  0  0  0  0  0
    1.2990    2.2500    0.0000 C   0  0  0  0  0  0  0  0  0  0  0  0
   -5.1962    4.5000    0.0000 C   0  0  0  0  0  0  0  0  0  0  0  0
   -3.8971    2.2500    0.0000 C   0  0  0  0  0  0  0  0  0  0  0  0
   -3.8971    6.7500    0.0000 C   0  0  0  0  0  0  0  0  0  0  0  0
   -1.2990    2.2500    0.0000 C   0  0  0  0  0  0  0  0  0  0  0  0
   -1.2990    3.7500    0.0000 C   0  0  0  0  0  0  0  0  0  0  0  0
    0.0000    1.5000    0.0000 C   0  0  0  0  0  0  0  0  0  0  0  0
   -3.8971    3.7500    0.0000 C   0  0  0  0  0  0  0  0  0  0  0  0
   -2.5981    6.0000    0.0000 C   0  0  0  0  0  0  0  0  0  0  0  0
   -2.5981    4.5000    0.0000 C   0  0  0  0  0  0  0  0  0  0  0  0
   -1.2990    6.7500    0.0000 O   0  0  0  0  0  0  0  0  0  0  0  0
  7  6  1  0
  8  1  1  0
  8  2  1  0
  8  6  2  0
  9  3  1  0
  9  4  1  0
 10  5  1  0
 11  7  1  0
 11  9  2  0
 11 10  1  0
 12 10  1  0
M  END
>  <NAME>  (1637) 
2,6-DIMETHYL-5-(1-HYDROXY)ETHYL-2,5-HEPTADIENE

>  <SYNONYMS>  (1637) 
6-METHYL-3-(1-METHYLETHYLIDENE)HEPT-5-EN-2-OL

>  <SPECTRUM TYPE>  (1637) 
MS1

>  <INSTRUMENT TYPE>  (1637) 
EI-B

>  <INSTRUMENT>  (1637) 
JEOL JMS-D-300

>  <ION MODE>  (1637) 
P

>  <INCHIKEY>  (1637) 
VSBFLTQWMJCTBX-UHFFFAOYSA-N

>  <FORMULA>  (1637) 
C11H20O

>  <EXACT MASS>  (1637) 
168.15141526

>  <MW>  (1637) 
168

>  <ID>  (1637) 
JP009781

>  <CONTRIBUTOR>  (1637) 
University of Tokyo Team, {Faculty of Engineering, University of Tokyo

>  <COMMENT>  (1637) 
SMILES=CC(C)=CCC(=C(C)C)C(C)O
InChI=InChI=1S/C11H20O/c1-8(2)6-7-11(9(3)4)10(5)12/h6,10,12H,7H2,1-5H3
computed SMILES=OC(C(=C(C)C)CC=C(C)C)C
accession=JP009781
date=2016.01.19 (Created 2008.10.21, modified 2011.05.06)
author=KURARAY CO., LTD.
license=CC BY-NC-SA
exact mass=168.15142
ionization energy=70 eV
ion type=[M]+*
computed spectral entropy=3.3298757621447717
computed normalized entropy=0.8166389169820127
SPLASH=splash10-052u-9800000000-a7ef0020827cef48ddc8
submitter=submitter = University of Tokyo Team (Faculty of Engineering, University of Tokyo)
MoNA Rating=3.75

>  <NUM PEAKS>  (1637) 
59

>  <MASS SPECTRAL PEAKS>  (1637) 
27 8.4
28 2.4
29 7.5
39 1.12
40 2.5
41 41.1
42 2.6
43 6.1
44 2.8
45 10.3
51 2.9
53 1.1
55 17.8
56 2.6
57 6.2
59 0.58
65 5
67 16.6
68 3.8
69 3.27
70 3.1
71 2.6
77 8.1
79 1.58
80 1.9
81 29.7
82 3.2
83 1.1
85 2.8
91 16.7
92 2.4
93 1.42
94 2.1
95 11
96 2.5
97 2.51
98 2.7
99 19.3
105 7.5
106 0.19
107 39.3
108 5
109 8.6
111 0.42
112 7.5
113 2.3
119 13.8
120 0.65
121 7
123 9.7
124 2
125 0.58
132 1.8
135 99.99
136 11.7
150 3.81
151 5.8
153 26
154 3.1

$$$$

     RDKit          2D

 12 12  0  0  0  0  0  0  0  0999 V2000
   -3.9497   -0.5073    0.0000 C   0  0  0  0  0  0  0  0  0  0  0  0
   -2.6540    1.7447    0.0000 C   0  0  0  0  0  0  0  0  0  0  0  0
    1.7004   -1.2238    0.0000 C   0  0  0  0  0  0  0  0  0  0  0  0
    2.8485    0.7647    0.0000 C   0  0  0  0  0  0  0  0  0  0  0  0
   -1.3516   -0.5034    0.0000 C   0  0  0  0  0  0  0  0  0  0  0  0
   -2.6518    0.2447    0.0000 C   0  0  0  0  0  0  0  0  0  0  0  0
   -0.0537    0.2486    0.0000 C   0  0  0  0  0  0  0  0  0  0  0  0
    0.6963    1.5476    0.0000 C   0  0  0  0  0  0  0  0  0  0  0  0
    0.6986    3.0476    0.0000 C   0  0  0  0  0  0  0  0  0  0  0  0
    1.4385    0.2531    0.0000 C   0  0  0  0  0  0  0  0  0  0  0  0
   -0.5993    3.7996    0.0000 O   0  0  0  0  0  0  0  0  0  0  0  0
    1.9988    3.7957    0.0000 O   0  0  0  0  0  0  0  0  0  0  0  0
  6  1  1  0
  6  2  1  0
  6  5  2  0
  7  5  1  0
  8  7  1  0
  9  8  1  0
 10  3  1  0
 10  4  1  0
 10  7  1  0
 10  8  1  0
 11  9  2  0
 12  9  1  0
M  END
>  <NAME>  (1638) 
2,2-DIMETHYL-3-(2-METHYL-1-PROPENYL)CYCLOPROPANECARBOXYLIC ACID

>  <SYNONYMS>  (1638) 


>  <SPECTRUM TYPE>  (1638) 
MS1

>  <INSTRUMENT TYPE>  (1638) 
EI-B

>  <INSTRUMENT>  (1638) 
JEOL JMS-D-300

>  <ION MODE>  (1638) 
P

>  <INCHIKEY>  (1638) 
XLOPRKKSAJMMEW-UHFFFAOYSA-N

>  <FORMULA>  (1638) 
C10H16O2

>  <EXACT MASS>  (1638) 
168.115029752

>  <MW>  (1638) 
168

>  <ID>  (1638) 
JP009780

>  <CONTRIBUTOR>  (1638) 
University of Tokyo Team, {Faculty of Engineering, University of Tokyo

>  <COMMENT>  (1638) 
SMILES=CC(C)=CC(C(C(O)=O)1)C(C)(C)1
InChI=InChI=1S/C10H16O2/c1-6(2)5-7-8(9(11)12)10(7,3)4/h5,7-8H,1-4H3,(H,11,12)
computed SMILES=O=C(O)C1C(C=C(C)C)C1(C)C
accession=JP009780
date=2016.01.19 (Created 2008.10.21, modified 2011.05.06)
author=KURARAY CO., LTD.
license=CC BY-NC-SA
exact mass=168.11503
ionization energy=70 eV
ion type=[M]+*
computed spectral entropy=3.0047697533870017
computed normalized entropy=0.8145481007887104
SPLASH=splash10-00yi-9700000000-643c33a73ac721dc4aa2
submitter=submitter = University of Tokyo Team (Faculty of Engineering, University of Tokyo)
MoNA Rating=3.75

>  <NUM PEAKS>  (1638) 
40

>  <MASS SPECTRAL PEAKS>  (1638) 
27 10.8
29 9.2
39 16.3
41 3.79
43 32.7
45 3.9
51 3.9
53 1.1
55 18.2
56 3.1
57 8.5
59 0.47
65 6.1
67 22.4
68 3.3
69 3.21
77 7.8
79 14.9
81 63.5
82 0.61
83 6.6
85 3.3
91 13.5
93 0.72
95 12.4
97 3.4
100 3.9
105 0.31
107 22.5
108 5.2
109 7
111 0.77
112 3.3
123 99.99
124 11
125 2.13
135 4.7
153 27.2
168 36.3
169 3.6

$$$$

     RDKit          2D

 12 12  0  0  0  0  0  0  0  0999 V2000
   -2.5987    3.0002    0.0000 C   0  0  0  0  0  0  0  0  0  0  0  0
   -2.5989   -1.5002    0.0000 C   0  0  0  0  0  0  0  0  0  0  0  0
    1.8127   -2.1596    0.0000 C   0  0  0  0  0  0  0  0  0  0  0  0
    2.7772   -0.4897    0.0000 C   0  0  0  0  0  0  0  0  0  0  0  0
   -0.0000    1.5000    0.0000 C   0  0  0  0  0  0  0  0  0  0  0  0
    1.3000    0.7500    0.0000 C   0  0  0  0  0  0  0  0  0  0  0  0
   -2.5989    1.5002    0.0000 C   0  0  0  0  0  0  0  0  0  0  0  0
   -1.3000   -0.7500    0.0000 C   0  0  0  0  0  0  0  0  0  0  0  0
   -1.3000    0.7500    0.0000 C   0  0  0  0  0  0  0  0  0  0  0  0
    1.3000   -0.7500    0.0000 C   0  0  0  0  0  0  0  0  0  0  0  0
   -3.8981    0.7504    0.0000 O   0  0  0  0  0  0  0  0  0  0  0  0
   -0.0000   -1.5000    0.0000 O   0  0  0  0  0  0  0  0  0  0  0  0
  6  5  1  0
  7  1  1  0
  8  2  1  0
  9  5  1  0
  9  7  1  0
  9  8  2  0
 10  3  1  0
 10  4  1  0
 10  6  1  0
 11  7  2  0
 12  8  1  0
 12 10  1  0
M  END
>  <NAME>  (1639) 
2,6,6-TRIMETHYL-3-ACETYL-5,6-DIHYDRO-4H-PYRAN

>  <SYNONYMS>  (1639) 
5-ACETYL-2,2,6-TRIMETHYL-3,4-DIHYDRO-2H-PYRAN

>  <SPECTRUM TYPE>  (1639) 
MS1

>  <INSTRUMENT TYPE>  (1639) 
EI-B

>  <INSTRUMENT>  (1639) 
JEOL JMS-D-300

>  <ION MODE>  (1639) 
P

>  <INCHIKEY>  (1639) 
UMPFVLPDUDPOHN-UHFFFAOYSA-N

>  <FORMULA>  (1639) 
C10H16O2

>  <EXACT MASS>  (1639) 
168.115029752

>  <MW>  (1639) 
168

>  <ID>  (1639) 
JP009779

>  <CONTRIBUTOR>  (1639) 
University of Tokyo Team, {Faculty of Engineering, University of Tokyo

>  <COMMENT>  (1639) 
SMILES=CC(=O)C(C1)=C(C)OC(C)(C)C1
InChI=InChI=1S/C10H16O2/c1-7(11)9-5-6-10(3,4)12-8(9)2/h5-6H2,1-4H3
computed SMILES=O=C(C1=C(OC(C)(C)CC1)C)C
accession=JP009779
date=2016.01.19 (Created 2008.10.21, modified 2011.05.06)
author=KURARAY CO., LTD.
license=CC BY-NC-SA
exact mass=168.11503
ionization energy=70 eV
ion type=[M]+*
computed spectral entropy=2.9393218550201197
computed normalized entropy=0.7721519475180653
SPLASH=splash10-01ox-9700000000-6334a4ca28949e108d55
submitter=submitter = University of Tokyo Team (Faculty of Engineering, University of Tokyo)
MoNA Rating=3.75

>  <NUM PEAKS>  (1639) 
45

>  <MASS SPECTRAL PEAKS>  (1639) 
27 7.8
29 5.1
39 11.3
40 0.31
41 26.8
42 3.1
43 99.99
44 0.46
51 1.6
53 8.4
55 21.7
56 5.09
57 3.4
59 2.3
65 1.9
67 0.61
68 2.5
69 6.9
70 7.8
71 0.95
77 1.6
79 2.7
81 2.4
83 0.59
85 3.1
91 4.6
93 5.4
95 1.16
97 21.9
107 13.1
108 22.4
109 0.48
111 7.8
112 2.8
113 81
114 0.56
125 20.9
126 1.6
135 25.5
136 0.24
150 5.2
153 18.1
154 1.6
168 5.94
169 10.5

$$$$

     RDKit          2D

 12 11  0  0  0  0  0  0  0  0999 V2000
   -6.8200    5.0625    0.0000 C   0  0  0  0  0  0  0  0  0  0  0  0
   -5.5209    2.8125    0.0000 C   0  0  0  0  0  0  0  0  0  0  0  0
   -0.3248    2.8125    0.0000 C   0  0  0  0  0  0  0  0  0  0  0  0
   -2.9228    4.3125    0.0000 C   0  0  0  0  0  0  0  0  0  0  0  0
   -4.2219    5.0625    0.0000 C   0  0  0  0  0  0  0  0  0  0  0  0
   -1.6238    5.0625    0.0000 C   0  0  0  0  0  0  0  0  0  0  0  0
    0.9743    5.0625    0.0000 C   0  0  0  0  0  0  0  0  0  0  0  0
   -5.5209    4.3125    0.0000 C   0  0  0  0  0  0  0  0  0  0  0  0
   -0.3248    4.3125    0.0000 C   0  0  0  0  0  0  0  0  0  0  0  0
    2.2733    4.3125    0.0000 C   0  0  0  0  0  0  0  0  0  0  0  0
    2.2733    2.8125    0.0000 O   0  0  0  0  0  0  0  0  0  0  0  0
    3.5724    5.0625    0.0000 O   0  0  0  0  0  0  0  0  0  0  0  0
  5  4  1  0
  6  4  1  0
  8  1  1  0
  8  2  1  0
  8  5  2  0
  9  3  1  0
  9  6  1  0
  7  9  2  0
 10  7  1  0
 11 10  2  0
 12 10  1  0
M  END
>  <NAME>  (1640) 
3,7-DIMETHYL-2E,6-OCTADIENOIC ACID

>  <SYNONYMS>  (1640) 


>  <SPECTRUM TYPE>  (1640) 
MS1

>  <INSTRUMENT TYPE>  (1640) 
EI-B

>  <INSTRUMENT>  (1640) 
JEOL JMS-D-300

>  <ION MODE>  (1640) 
P

>  <INCHIKEY>  (1640) 
ZHYZQXUYZJNEHD-VQHVLOKHSA-N

>  <FORMULA>  (1640) 
C10H16O2

>  <EXACT MASS>  (1640) 
168.115029752

>  <MW>  (1640) 
168

>  <ID>  (1640) 
JP009778

>  <CONTRIBUTOR>  (1640) 
University of Tokyo Team, {Faculty of Engineering, University of Tokyo

>  <COMMENT>  (1640) 
SMILES=CC(C)=CCCC(C)=CC(O)=O
InChI=InChI=1S/C10H16O2/c1-8(2)5-4-6-9(3)7-10(11)12/h5,7H,4,6H2,1-3H3,(H,11,12)/b9-7+
computed SMILES=O=C(O)C=C(C)CCC=C(C)C
accession=JP009778
date=2016.01.19 (Created 2008.10.21, modified 2011.05.06)
author=KURARAY CO., LTD.
license=CC BY-NC-SA
exact mass=168.11503
ionization energy=70 eV
ion type=[M]+*
computed spectral entropy=2.4476821845178254
computed normalized entropy=0.6778559479147567
SPLASH=splash10-014i-9200000000-2b329e291d2596f55878
submitter=submitter = University of Tokyo Team (Faculty of Engineering, University of Tokyo)
MoNA Rating=3.75

>  <NUM PEAKS>  (1640) 
37

>  <MASS SPECTRAL PEAKS>  (1640) 
27 5.2
28 2.8
29 3.1
39 0.85
40 1.9
41 48.4
42 3
43 0.42
45 1.6
51 2
53 5.7
54 0.15
55 3
65 1.8
67 6.6
68 0.35
69 99.99
70 5.7
77 2.5
79 0.3
81 3.5
82 4.9
83 1.6
85 0.15
91 3
93 3.5
100 16.1
107 0.39
108 3.9
109 8.2
111 1.7
122 0.25
123 10.5
124 2.7
125 6.9
153 0.1
168 6.6

$$$$

     RDKit          2D

 12 11  0  0  0  0  0  0  0  0999 V2000
    3.8971    6.7500    0.0000 C   0  0  0  0  0  0  0  0  0  0  0  0
    2.5981    4.5000    0.0000 C   0  0  0  0  0  0  0  0  0  0  0  0
   -2.5981    4.5000    0.0000 C   0  0  0  0  0  0  0  0  0  0  0  0
    0.0000    6.0000    0.0000 C   0  0  0  0  0  0  0  0  0  0  0  0
    1.2990    6.7500    0.0000 C   0  0  0  0  0  0  0  0  0  0  0  0
   -1.2990    6.7500    0.0000 C   0  0  0  0  0  0  0  0  0  0  0  0
   -3.8971    6.7500    0.0000 C   0  0  0  0  0  0  0  0  0  0  0  0
    2.5981    6.0000    0.0000 C   0  0  0  0  0  0  0  0  0  0  0  0
   -2.5981    6.0000    0.0000 C   0  0  0  0  0  0  0  0  0  0  0  0
   -3.8971    8.2500    0.0000 C   0  0  0  0  0  0  0  0  0  0  0  0
   -2.5981    9.0000    0.0000 O   0  0  0  0  0  0  0  0  0  0  0  0
   -5.1962    9.0000    0.0000 O   0  0  0  0  0  0  0  0  0  0  0  0
  5  4  1  0
  6  4  1  0
  8  1  1  0
  8  2  1  0
  8  5  2  0
  9  3  1  0
  9  6  1  0
  7  9  2  0
 10  7  1  0
 11 10  2  0
 12 10  1  0
M  END
>  <NAME>  (1641) 
3,7-DIMETHYL-2Z,6-OCTADIENOIC ACID

>  <SYNONYMS>  (1641) 


>  <SPECTRUM TYPE>  (1641) 
MS1

>  <INSTRUMENT TYPE>  (1641) 
EI-B

>  <INSTRUMENT>  (1641) 
JEOL JMS-D-300

>  <ION MODE>  (1641) 
P

>  <INCHIKEY>  (1641) 
ZHYZQXUYZJNEHD-CLFYSBASSA-N

>  <FORMULA>  (1641) 
C10H16O2

>  <EXACT MASS>  (1641) 
168.115029752

>  <MW>  (1641) 
168

>  <ID>  (1641) 
JP009777

>  <CONTRIBUTOR>  (1641) 
University of Tokyo Team, {Faculty of Engineering, University of Tokyo

>  <COMMENT>  (1641) 
SMILES=CC(C)=CCCC(C)=CC(O)=O
InChI=InChI=1S/C10H16O2/c1-8(2)5-4-6-9(3)7-10(11)12/h5,7H,4,6H2,1-3H3,(H,11,12)/b9-7-
computed SMILES=O=C(O)C=C(C)CCC=C(C)C
accession=JP009777
date=2016.01.19 (Created 2008.10.21, modified 2011.05.06)
author=KURARAY CO., LTD.
license=CC BY-NC-SA
exact mass=168.11503
ionization energy=70 eV
ion type=[M]+*
computed spectral entropy=2.5017154415923795
computed normalized entropy=0.6736682085754114
SPLASH=splash10-014i-9200000000-62c925dfa93a2a6e3bdf
submitter=submitter = University of Tokyo Team (Faculty of Engineering, University of Tokyo)
MoNA Rating=3.75

>  <NUM PEAKS>  (1641) 
41

>  <MASS SPECTRAL PEAKS>  (1641) 
27 5.4
28 3.2
29 3.2
39 0.94
40 2.2
41 47.3
42 2.9
43 0.42
45 1.8
51 2.2
53 5.7
54 0.17
55 3.5
56 1.4
65 2.2
67 0.7
68 3.6
69 99.99
70 5.7
71 0.11
77 3.1
79 3.5
81 4.2
82 0.46
83 2.1
85 1.6
91 3.5
93 0.39
95 1.2
100 15.5
107 4.1
108 0.44
109 9.5
111 2
122 2.7
123 0.93
124 3
125 7.3
126 1.3
153 0.13
168 6.7

$$$$

     RDKit          2D

 12 11  0  0  0  0  0  0  0  0999 V2000
    3.5724    4.3125    0.0000 C   0  0  0  0  0  0  0  0  0  0  0  0
   -8.1190    5.0625    0.0000 C   0  0  0  0  0  0  0  0  0  0  0  0
    0.9743    7.3125    0.0000 C   0  0  0  0  0  0  0  0  0  0  0  0
   -4.2219    7.3125    0.0000 C   0  0  0  0  0  0  0  0  0  0  0  0
    2.2733    5.0625    0.0000 C   0  0  0  0  0  0  0  0  0  0  0  0
   -6.8200    5.8125    0.0000 C   0  0  0  0  0  0  0  0  0  0  0  0
   -0.3248    5.0625    0.0000 C   0  0  0  0  0  0  0  0  0  0  0  0
   -1.6238    5.8125    0.0000 C   0  0  0  0  0  0  0  0  0  0  0  0
    0.9743    5.8125    0.0000 C   0  0  0  0  0  0  0  0  0  0  0  0
   -4.2219    5.8125    0.0000 C   0  0  0  0  0  0  0  0  0  0  0  0
   -5.5209    5.0625    0.0000 O   0  0  0  0  0  0  0  0  0  0  0  0
   -2.9228    5.0625    0.0000 O   0  0  0  0  0  0  0  0  0  0  0  0
  5  1  3  0
  6  2  1  0
  8  7  1  0
  9  3  1  0
  9  5  1  0
  7  9  2  0
 10  4  1  0
 11  6  1  0
 11 10  1  0
 12  8  1  0
 12 10  1  0
M  END
>  <NAME>  (1642) 
1-(1-ETHOXY)ETHOXY-3-METHYL-2-PENTEN-4-YNE

>  <SYNONYMS>  (1642) 


>  <SPECTRUM TYPE>  (1642) 
MS1

>  <INSTRUMENT TYPE>  (1642) 
EI-B

>  <INSTRUMENT>  (1642) 
JEOL JMS-D-300

>  <ION MODE>  (1642) 
P

>  <INCHIKEY>  (1642) 
JTRZVLCJKKJLNN-VQHVLOKHSA-N

>  <FORMULA>  (1642) 
C10H16O2

>  <EXACT MASS>  (1642) 
168.115029752

>  <MW>  (1642) 
168

>  <ID>  (1642) 
JP009776

>  <CONTRIBUTOR>  (1642) 
University of Tokyo Team, {Faculty of Engineering, University of Tokyo

>  <COMMENT>  (1642) 
SMILES=CCOC(C)OCC=C(C)C#C
InChI=InChI=1S/C10H16O2/c1-5-9(3)7-8-12-10(4)11-6-2/h1,7,10H,6,8H2,2-4H3/b9-7+
computed SMILES=C#CC(=CCOC(OCC)C)C
accession=JP009776
date=2016.01.19 (Created 2008.10.21, modified 2011.05.06)
author=KURARAY CO., LTD.
license=CC BY-NC-SA
exact mass=168.11503
ionization energy=70 eV
ion type=[M]+*
computed spectral entropy=2.3773330068012695
computed normalized entropy=0.6583735948348884
SPLASH=splash10-0092-9000000000-af0da3094f47cc13f01e
submitter=submitter = University of Tokyo Team (Faculty of Engineering, University of Tokyo)
MoNA Rating=3.75

>  <NUM PEAKS>  (1642) 
37

>  <MASS SPECTRAL PEAKS>  (1642) 
27 6.6
28 1.6
29 6.8
39 0.63
41 3.8
43 9.2
44 3.6
45 99.99
46 2.3
50 2.5
51 7.4
52 0.42
53 6.4
63 3.3
65 2.1
67 0.35
72 1.5
73 90.4
74 4.5
77 2.87
78 8
79 81.6
80 10.2
81 0.69
82 1.4
93 1.5
95 7.9
96 0.13
107 2.1
109 9.6
121 1.8
122 0.38
123 3.8
124 7
125 1.5
139 0.12
153 3.3

$$$$

     RDKit          2D

 12 13  0  0  0  0  0  0  0  0999 V2000
   -0.6185    1.4841    0.0000 C   0  0  0  0  0  0  0  0  0  0  0  0
   -0.6185   -1.9841    0.0000 C   0  0  0  0  0  0  0  0  0  0  0  0
    2.2532    2.7500    0.0000 C   0  0  0  0  0  0  0  0  0  0  0  0
    0.9657   -1.0000    0.0000 C   0  0  0  0  0  0  0  0  0  0  0  0
    0.9657    0.5000    0.0000 C   0  0  0  0  0  0  0  0  0  0  0  0
    2.2557   -1.7500    0.0000 C   0  0  0  0  0  0  0  0  0  0  0  0
    3.5557   -1.0000    0.0000 C   0  0  0  0  0  0  0  0  0  0  0  0
    3.5557    0.5000    0.0000 C   0  0  0  0  0  0  0  0  0  0  0  0
    1.7557   -0.2500    0.0000 C   0  0  0  0  0  0  0  0  0  0  0  0
    2.2557    1.2500    0.0000 C   0  0  0  0  0  0  0  0  0  0  0  0
    4.8546   -1.7502    0.0000 O   0  0  0  0  0  0  0  0  0  0  0  0
    4.8546    1.2502    0.0000 O   0  0  0  0  0  0  0  0  0  0  0  0
  5  4  1  0
  6  4  1  0
  7  6  1  0
  8  7  1  0
  9  1  1  0
  9  2  1  0
  9  6  1  0
 10  3  1  0
 10  5  1  0
 10  8  1  0
 10  9  1  0
 11  7  2  0
 12  8  1  0
M  END
>  <NAME>  (1643) 
2-HYDROXY-1,7,7-TRIMETHYLBICYCLO(2.2.1)HEPTAN-3-ONE

>  <SYNONYMS>  (1643) 


>  <SPECTRUM TYPE>  (1643) 
MS1

>  <INSTRUMENT TYPE>  (1643) 
EI-B

>  <INSTRUMENT>  (1643) 
JEOL JMS-D-300

>  <ION MODE>  (1643) 
P

>  <INCHIKEY>  (1643) 
HJVHHNRJPMNKAK-UHFFFAOYSA-N

>  <FORMULA>  (1643) 
C10H16O2

>  <EXACT MASS>  (1643) 
168.115029752

>  <MW>  (1643) 
168

>  <ID>  (1643) 
JP009775

>  <CONTRIBUTOR>  (1643) 
University of Tokyo Team, {Faculty of Engineering, University of Tokyo

>  <COMMENT>  (1643) 
SMILES=O=C(C(O)1)C(C2)C(C)(C)C(C)(C2)1
InChI=InChI=1S/C10H16O2/c1-9(2)6-4-5-10(9,3)8(12)7(6)11/h6,8,12H,4-5H2,1-3H3
computed SMILES=O=C1C(O)C2(C)CCC1C2(C)C
accession=JP009775
date=2016.01.19 (Created 2008.10.21, modified 2011.05.06)
author=KURARAY CO., LTD.
license=CC BY-NC-SA
exact mass=168.11503
ionization energy=70 eV
ion type=[M]+*
computed spectral entropy=2.914324403367203
computed normalized entropy=0.8264397196552733
SPLASH=splash10-00lr-9100000000-c8c243551cb45f6429d0
submitter=submitter = University of Tokyo Team (Faculty of Engineering, University of Tokyo)
MoNA Rating=3.75

>  <NUM PEAKS>  (1643) 
34

>  <MASS SPECTRAL PEAKS>  (1643) 
27 13.1
28 5
29 10.3
39 1.59
41 46
43 22.9
53 10.8
55 5.44
57 14.2
67 12
69 49.4
70 6.99
71 48.1
77 5.7
79 6.1
81 0.72
82 7.6
83 99.99
84 64.6
85 0.64
95 26.5
96 9.8
97 10.3
100 0.76
107 6.9
109 7.4
111 5
125 2.26
138 6.1
139 7.6
140 8.4
153 0.75
168 43.1
169 4.9

$$$$

     RDKit          2D

 12 12  0  0  0  0  0  0  0  0999 V2000
   -1.6700   -0.9600    0.0000 C   0  0  0  0  0  0  0  0  0  0  0  0
   -1.6700    0.5400    0.0000 C   0  0  0  0  0  0  0  0  0  0  0  0
   -0.3700   -1.7100    0.0000 C   0  0  0  0  0  0  0  0  0  0  0  0
   -0.3700    1.2900    0.0000 C   0  0  0  0  0  0  0  0  0  0  0  0
    0.9300   -0.9600    0.0000 C   0  0  0  0  0  0  0  0  0  0  0  0
    6.1262    0.5408    0.0000 C   0  0  0  0  0  0  0  0  0  0  0  0
    3.5281    0.5404    0.0000 C   0  0  0  0  0  0  0  0  0  0  0  0
    4.8270    1.2906    0.0000 C   0  0  0  0  0  0  0  0  0  0  0  0
    0.9300    0.5400    0.0000 C   0  0  0  0  0  0  0  0  0  0  0  0
    7.4251    1.2910    0.0000 O   0  0  0  0  0  0  0  0  0  0  0  0
    4.8268    2.7906    0.0000 O   0  0  0  0  0  0  0  0  0  0  0  0
    2.2289    1.2902    0.0000 O   0  0  0  0  0  0  0  0  0  0  0  0
  2  1  2  0
  3  1  1  0
  4  2  1  0
  5  3  2  0
  8  6  1  0
  8  7  1  0
  9  4  2  0
  9  5  1  0
 10  6  1  0
 11  8  1  0
 12  7  1  0
 12  9  1  0
M  END
>  <NAME>  (1644) 
3-PHENOXY-1,2-PROPANEDIOL

>  <SYNONYMS>  (1644) 


>  <SPECTRUM TYPE>  (1644) 
MS1

>  <INSTRUMENT TYPE>  (1644) 
EI-B

>  <INSTRUMENT>  (1644) 
JEOL JMS-D-300

>  <ION MODE>  (1644) 
P

>  <INCHIKEY>  (1644) 
FNQIYTUXOKTMDM-UHFFFAOYSA-N

>  <FORMULA>  (1644) 
C9H12O3

>  <EXACT MASS>  (1644) 
168.078644244

>  <MW>  (1644) 
168

>  <ID>  (1644) 
JP009774

>  <CONTRIBUTOR>  (1644) 
University of Tokyo Team, {Faculty of Engineering, University of Tokyo

>  <COMMENT>  (1644) 
SMILES=OCC(O)COc(c1)cccc1
InChI=InChI=1S/C9H12O3/c10-6-8(11)7-12-9-4-2-1-3-5-9/h1-5,8,10-11H,6-7H2
computed SMILES=OCC(O)COC=1C=CC=CC1
accession=JP009774
date=2016.01.19 (Created 2008.10.21, modified 2011.05.06)
author=KURARAY CO., LTD.
license=CC BY-NC-SA
exact mass=168.07864
ionization energy=70 eV
ion type=[M]+*
computed spectral entropy=2.4727445569135775
computed normalized entropy=0.7502630310435788
SPLASH=splash10-0006-9200000000-564347ab7e5fd855e8be
submitter=submitter = University of Tokyo Team (Faculty of Engineering, University of Tokyo)
MoNA Rating=3.75

>  <NUM PEAKS>  (1644) 
27

>  <MASS SPECTRAL PEAKS>  (1644) 
27 5.3
29 4.1
31 5.8
39 0.56
41 3.1
43 9.7
45 6.7
51 0.75
56 2.8
57 7.8
61 3.3
65 0.72
66 5.9
71 12.5
77 21.3
78 0.64
79 4.7
91 3
94 99.99
95 1.31
99 10.8
107 7.8
108 6.3
119 0.48
142 5
143 16.6
168 18

$$$$

     RDKit          2D

 12 11  0  0  0  0  0  0  0  0999 V2000
    0.0000    0.0000    0.0000 C   0  0  0  0  0  0  0  0  0  0  0  0
    1.2990    2.2500    0.0000 C   0  0  0  0  0  0  0  0  0  0  0  0
   -3.8971    6.7500    0.0000 C   0  0  0  0  0  0  0  0  0  0  0  0
   -1.2990    6.7500    0.0000 C   0  0  0  0  0  0  0  0  0  0  0  0
   -5.1962    4.5000    0.0000 C   0  0  0  0  0  0  0  0  0  0  0  0
   -1.2990    2.2500    0.0000 C   0  0  0  0  0  0  0  0  0  0  0  0
   -1.2990    3.7500    0.0000 C   0  0  0  0  0  0  0  0  0  0  0  0
    0.0000    1.5000    0.0000 C   0  0  0  0  0  0  0  0  0  0  0  0
   -2.5981    6.0000    0.0000 C   0  0  0  0  0  0  0  0  0  0  0  0
   -3.8971    3.7500    0.0000 C   0  0  0  0  0  0  0  0  0  0  0  0
   -2.5981    4.5000    0.0000 C   0  0  0  0  0  0  0  0  0  0  0  0
   -3.8971    2.2500    0.0000 O   0  0  0  0  0  0  0  0  0  0  0  0
  7  6  1  0
  8  1  1  0
  8  2  1  0
  8  6  2  0
  9  3  1  0
  9  4  1  0
 10  5  1  0
 11  7  1  0
 11  9  2  0
 11 10  1  0
 12 10  2  0
M  END
>  <NAME>  (1645) 
3-ACETYL-2,6-DIMETHYL-2,5-HEPTADIENE

>  <SYNONYMS>  (1645) 
6-METHYL-3-(1-METHYLETHYLIDENE)HEPT-5-EN-2-ONE

>  <SPECTRUM TYPE>  (1645) 
MS1

>  <INSTRUMENT TYPE>  (1645) 
EI-B

>  <INSTRUMENT>  (1645) 
JEOL JMS-D-300

>  <ION MODE>  (1645) 
P

>  <INCHIKEY>  (1645) 
XUOWQIBGRJIEDN-UHFFFAOYSA-N

>  <FORMULA>  (1645) 
C11H18O

>  <EXACT MASS>  (1645) 
166.135765196

>  <MW>  (1645) 
166

>  <ID>  (1645) 
JP009773

>  <CONTRIBUTOR>  (1645) 
University of Tokyo Team, {Faculty of Engineering, University of Tokyo

>  <COMMENT>  (1645) 
SMILES=CC(C)=CCC(=C(C)C)C(C)=O
InChI=InChI=1S/C11H18O/c1-8(2)6-7-11(9(3)4)10(5)12/h6H,7H2,1-5H3
computed SMILES=O=C(C(=C(C)C)CC=C(C)C)C
accession=JP009773
date=2016.01.19 (Created 2008.10.21, modified 2011.05.06)
author=KURARAY CO., LTD.
license=CC BY-NC-SA
exact mass=166.13577
ionization energy=70 eV
ion type=[M]+*
computed spectral entropy=2.932617698840552
computed normalized entropy=0.7659682365472499
SPLASH=splash10-0fxx-9700000000-68bf15199d967936c94d
submitter=submitter = University of Tokyo Team (Faculty of Engineering, University of Tokyo)
MoNA Rating=3.75

>  <NUM PEAKS>  (1645) 
46

>  <MASS SPECTRAL PEAKS>  (1645) 
26 9.1
27 6.8
28 1
39 1.39
40 2.8
41 38.9
42 2.5
43 99.99
45 4.6
51 4
53 11.3
55 1.42
56 3
57 5.3
65 5.8
66 0.23
67 24.4
68 3.4
69 24.3
77 0.84
79 10.9
81 49.8
82 4.5
83 1.3
91 12.2
93 9.6
94 1.8
95 2.07
96 2.1
105 5.9
107 8.6
108 0.45
109 25.6
110 2.8
111 6
121 0.32
123 77.3
124 7.6
133 7.1
136 0.32
137 2.7
147 2.7
151 94.2
152 1.1
166 55.4
167 8

$$$$

     RDKit          2D

 12 13  0  0  0  0  0  0  0  0999 V2000
   -0.6185    1.4841    0.0000 C   0  0  0  0  0  0  0  0  0  0  0  0
   -0.6185   -1.9841    0.0000 C   0  0  0  0  0  0  0  0  0  0  0  0
    2.2532    2.7500    0.0000 C   0  0  0  0  0  0  0  0  0  0  0  0
    0.9657   -1.0000    0.0000 C   0  0  0  0  0  0  0  0  0  0  0  0
    0.9657    0.5000    0.0000 C   0  0  0  0  0  0  0  0  0  0  0  0
    2.2557   -1.7500    0.0000 C   0  0  0  0  0  0  0  0  0  0  0  0
    3.5557   -1.0000    0.0000 C   0  0  0  0  0  0  0  0  0  0  0  0
    3.5557    0.5000    0.0000 C   0  0  0  0  0  0  0  0  0  0  0  0
    1.7557   -0.2500    0.0000 C   0  0  0  0  0  0  0  0  0  0  0  0
    2.2557    1.2500    0.0000 C   0  0  0  0  0  0  0  0  0  0  0  0
    4.8546   -1.7502    0.0000 O   0  0  0  0  0  0  0  0  0  0  0  0
    4.8546    1.2502    0.0000 O   0  0  0  0  0  0  0  0  0  0  0  0
  5  4  1  0
  6  4  1  0
  7  6  1  0
  8  7  1  0
  9  1  1  0
  9  2  1  0
  9  6  1  0
 10  3  1  0
 10  5  1  0
 10  8  1  0
 10  9  1  0
 11  7  2  0
 12  8  2  0
M  END
>  <NAME>  (1646) 
1,7,7-TRIMETHYLBICYCLO(2.2.1)HEPTAN-2,3-DIONE

>  <SYNONYMS>  (1646) 


>  <SPECTRUM TYPE>  (1646) 
MS1

>  <INSTRUMENT TYPE>  (1646) 
EI-B

>  <INSTRUMENT>  (1646) 
JEOL JMS-D-300

>  <ION MODE>  (1646) 
P

>  <INCHIKEY>  (1646) 
VNQXSTWCDUXYEZ-UHFFFAOYSA-N

>  <FORMULA>  (1646) 
C10H14O2

>  <EXACT MASS>  (1646) 
166.099379688

>  <MW>  (1646) 
166

>  <ID>  (1646) 
JP009772

>  <CONTRIBUTOR>  (1646) 
University of Tokyo Team, {Faculty of Engineering, University of Tokyo

>  <COMMENT>  (1646) 
SMILES=O=C(C(=O)1)C(C2)C(C)(C)C(C)(C2)1
InChI=InChI=1S/C10H14O2/c1-9(2)6-4-5-10(9,3)8(12)7(6)11/h6H,4-5H2,1-3H3
computed SMILES=O=C1C(=O)C2(C)CCC1C2(C)C
accession=JP009772
date=2016.01.19 (Created 2008.10.21, modified 2011.05.06)
author=KURARAY CO., LTD.
license=CC BY-NC-SA
exact mass=166.09938
ionization energy=70 eV
ion type=[M]+*
computed spectral entropy=2.130740274042747
computed normalized entropy=0.8073868839951962
SPLASH=splash10-014v-9200000000-234b101e2090a7db39bc
submitter=submitter = University of Tokyo Team (Faculty of Engineering, University of Tokyo)
MoNA Rating=3.75

>  <NUM PEAKS>  (1646) 
14

>  <MASS SPECTRAL PEAKS>  (1646) 
28 5.6
39 20.7
41 52.9
55 4.81
67 16.2
69 88.3
75 12.4
83 6
95 99.99
105 13.8
110 12.9
122 1.14
123 13.1
138 32.6

$$$$

     RDKit          2D

 12 12  0  0  0  0  0  0  0  0999 V2000
   -5.5207    3.1321    0.0000 C   0  0  0  0  0  0  0  0  0  0  0  0
    3.5726    0.8821    0.0000 C   0  0  0  0  0  0  0  0  0  0  0  0
    3.5731    2.3829    0.0000 C   0  0  0  0  0  0  0  0  0  0  0  0
    2.2731    0.1313    0.0000 C   0  0  0  0  0  0  0  0  0  0  0  0
    2.2740    3.1329    0.0000 C   0  0  0  0  0  0  0  0  0  0  0  0
    0.9740    0.8813    0.0000 C   0  0  0  0  0  0  0  0  0  0  0  0
   -0.3245    3.1321    0.0000 C   0  0  0  0  0  0  0  0  0  0  0  0
   -1.6236    2.3821    0.0000 C   0  0  0  0  0  0  0  0  0  0  0  0
    0.9745    2.3821    0.0000 C   0  0  0  0  0  0  0  0  0  0  0  0
   -2.9226    3.1321    0.0000 C   0  0  0  0  0  0  0  0  0  0  0  0
   -2.9226    4.6321    0.0000 O   0  0  0  0  0  0  0  0  0  0  0  0
   -4.2216    2.3821    0.0000 O   0  0  0  0  0  0  0  0  0  0  0  0
  3  2  2  0
  4  2  1  0
  5  3  1  0
  6  4  2  0
  8  7  1  0
  9  5  2  0
  9  6  1  0
  9  7  1  0
 10  8  1  0
 11 10  2  0
 12  1  1  0
 12 10  1  0
M  END
>  <NAME>  (1647) 
METHYL 3-PHENYLPROPIONATE

>  <SYNONYMS>  (1647) 


>  <SPECTRUM TYPE>  (1647) 
MS1

>  <INSTRUMENT TYPE>  (1647) 
EI-B

>  <INSTRUMENT>  (1647) 
JEOL JMS-D-300

>  <ION MODE>  (1647) 
P

>  <INCHIKEY>  (1647) 
RPUSRLKKXPQSGP-UHFFFAOYSA-N

>  <FORMULA>  (1647) 
C10H12O2

>  <EXACT MASS>  (1647) 
164.083729624

>  <MW>  (1647) 
164

>  <ID>  (1647) 
JP009771

>  <CONTRIBUTOR>  (1647) 
University of Tokyo Team, {Faculty of Engineering, University of Tokyo

>  <COMMENT>  (1647) 
SMILES=COC(=O)CCc(c1)cccc1
InChI=InChI=1S/C10H12O2/c1-12-10(11)8-7-9-5-3-2-4-6-9/h2-6H,7-8H2,1H3
computed SMILES=O=C(OC)CCC=1C=CC=CC1
accession=JP009771
date=2016.01.19 (Created 2008.10.21, modified 2011.05.06)
author=KURARAY CO., LTD.
license=CC BY-NC-SA
exact mass=164.08373
ionization energy=70 eV
ion type=[M]+*
computed spectral entropy=2.273019193696929
computed normalized entropy=0.6821367616411442
SPLASH=splash10-0udl-5900000000-73becd76a83f69a5aad9
submitter=submitter = University of Tokyo Team (Faculty of Engineering, University of Tokyo)
MoNA Rating=3.75

>  <NUM PEAKS>  (1647) 
28

>  <MASS SPECTRAL PEAKS>  (1647) 
26 2.5
27 11
31 2.7
39 0.36
50 2.4
51 8.4
52 2
55 0.12
59 1.8
63 2.4
65 6.4
77 1.14
78 9.1
79 7.3
91 63.7
92 0.58
102 1.4
103 8.4
104 99.99
105 3.75
106 3
107 4.3
131 3
132 0.16
133 13.6
134 1.4
164 46.7
165 5.4

$$$$

     RDKit          2D

 10  9  0  0  0  0  0  0  0  0999 V2000
   -3.5724    3.9375    0.0000 C   0  0  0  0  0  0  0  0  0  0  0  0
   -2.2733    1.6875    0.0000 C   0  0  0  0  0  0  0  0  0  0  0  0
    2.9228    3.1875    0.0000 C   0  0  0  0  0  0  0  0  0  0  0  0
    1.6238    0.9375    0.0000 C   0  0  0  0  0  0  0  0  0  0  0  0
   -2.2733    3.1875    0.0000 C   0  0  0  0  0  0  0  0  0  0  0  0
   -0.9743    3.9375    0.0000 C   0  0  0  0  0  0  0  0  0  0  0  0
    0.3248    3.1875    0.0000 C   0  0  0  0  0  0  0  0  0  0  0  0
   -0.9743    5.4375    0.0000 Cl  0  0  0  0  0  0  0  0  0  0  0  0
    1.6238    3.9375    0.0000 O   0  0  0  0  0  0  0  0  0  0  0  0
    0.3248    1.6875    0.0000 O   0  0  0  0  0  0  0  0  0  0  0  0
  5  1  2  0
  5  2  1  0
  6  5  1  0
  7  6  1  0
  8  6  1  0
  9  3  1  0
  9  7  1  0
 10  4  1  0
 10  7  1  0
M  END
>  <NAME>  (1648) 
3-CHLORO-4,4-DIMETHOXY-2-METHYL-1-BUTENE

>  <SYNONYMS>  (1648) 
2-CHLORO-3-METHYL-3-BUTENAL DIMETHYL ACETAL

>  <SPECTRUM TYPE>  (1648) 
MS1

>  <INSTRUMENT TYPE>  (1648) 
EI-B

>  <INSTRUMENT>  (1648) 
JEOL JMS-D-300

>  <ION MODE>  (1648) 
P

>  <INCHIKEY>  (1648) 
ABPMBQRFVZPMID-UHFFFAOYSA-N

>  <FORMULA>  (1648) 
C7H13ClO2

>  <EXACT MASS>  (1648) 
164.060407336

>  <MW>  (1648) 
164

>  <ID>  (1648) 
JP009770

>  <CONTRIBUTOR>  (1648) 
University of Tokyo Team, {Faculty of Engineering, University of Tokyo

>  <COMMENT>  (1648) 
SMILES=COC(OC)C(Cl)C(C)=C
InChI=InChI=1S/C7H13ClO2/c1-5(2)6(8)7(9-3)10-4/h6-7H,1H2,2-4H3
computed SMILES=ClC(C(=C)C)C(OC)OC
accession=JP009770
date=2016.01.19 (Created 2008.10.21, modified 2011.05.06)
author=KURARAY CO., LTD.
license=CC BY-NC-SA
exact mass=164.06041
ionization energy=70 eV
ion type=[M]+*
computed spectral entropy=1.8871372451632489
computed normalized entropy=0.5604310819257092
SPLASH=splash10-004i-9000000000-665d1669ca159e33a7fb
submitter=submitter = University of Tokyo Team (Faculty of Engineering, University of Tokyo)
MoNA Rating=3.75

>  <NUM PEAKS>  (1648) 
29

>  <MASS SPECTRAL PEAKS>  (1648) 
27 4.4
29 4.4
31 5.4
39 0.58
41 5.6
43 7.4
45 1.7
47 1.45
51 1.4
53 4.5
55 5.5
57 0.16
58 2
59 1.2
65 3.2
67 0.27
69 1
73 1
75 99.99
76 0.35
83 3.5
92 1.2
97 1.7
98 0.15
101 1.7
103 1.2
129 2.1
133 1.04
135 3.2

$$$$

     RDKit          2D

  7  7  0  0  0  0  0  0  0  0999 V2000
   -1.7504   -3.3467    0.0000 C   0  0  0  0  0  0  0  0  0  0  0  0
   -0.6017   -1.3563    0.0000 C   0  0  0  0  0  0  0  0  0  0  0  0
    0.5474   -2.3204    0.0000 C   0  0  0  0  0  0  0  0  0  0  0  0
   -2.7612   -0.5705    0.0000 C   0  0  0  0  0  0  0  0  0  0  0  0
   -2.0112   -1.8695    0.0000 C   0  0  0  0  0  0  0  0  0  0  0  0
    1.9569   -1.8072    0.0000 Br  0  0  0  0  0  0  0  0  0  0  0  0
   -3.5120   -1.8700    0.0000 O   0  0  0  0  0  0  0  0  0  0  0  0
  3  2  1  0
  5  1  1  0
  5  2  1  0
  5  4  1  0
  6  3  1  0
  7  4  1  0
  7  5  1  0
M  END
>  <NAME>  (1649) 
4-BROMO-1,2-EPOXY-2-METHYLBUTANE

>  <SYNONYMS>  (1649) 


>  <SPECTRUM TYPE>  (1649) 
MS1

>  <INSTRUMENT TYPE>  (1649) 
EI-B

>  <INSTRUMENT>  (1649) 
JEOL JMS-D-300

>  <ION MODE>  (1649) 
P

>  <INCHIKEY>  (1649) 
HUQIPXUHULWQTD-UHFFFAOYSA-N

>  <FORMULA>  (1649) 
C5H9BrO

>  <EXACT MASS>  (1649) 
163.983677008

>  <MW>  (1649) 
164

>  <ID>  (1649) 
JP009769

>  <CONTRIBUTOR>  (1649) 
University of Tokyo Team, {Faculty of Engineering, University of Tokyo

>  <COMMENT>  (1649) 
SMILES=CC(C1)(O1)CCBr
InChI=InChI=1S/C5H9BrO/c1-5(2-3-6)4-7-5/h2-4H2,1H3
computed SMILES=BrCCC1(OC1)C
accession=JP009769
date=2016.01.19 (Created 2008.10.21, modified 2011.05.06)
author=KURARAY CO., LTD.
license=CC BY-NC-SA
exact mass=163.98368
ionization energy=70 eV
ion type=[M]+*
computed spectral entropy=2.2533276361897507
computed normalized entropy=0.6625101055112996
SPLASH=splash10-052r-9000000000-a1c6f5b8c7275271457c
submitter=submitter = University of Tokyo Team (Faculty of Engineering, University of Tokyo)
MoNA Rating=3.75

>  <NUM PEAKS>  (1649) 
30

>  <MASS SPECTRAL PEAKS>  (1649) 
26 2.6
27 17.8
28 1
29 2.25
31 1.4
38 1.8
39 19.7
40 0.19
41 22.3
42 2.7
43 19.2
45 0.2
49 2.4
50 2
51 3.3
53 1.3
54 4.2
55 68.7
56 5.7
57 0.62
58 8.5
62 2.5
75 3.8
77 0.26
85 99.99
86 7.3
105 1.2
107 0.13
109 1
121 1.1

$$$$

     RDKit          2D

 24 25  0  0  0  0  0  0  0  0999 V2000
   -7.7964   -0.9992    0.0000 C   0  0  0  0  0  0  0  0  0  0  0  0
  -13.7423    0.3008    0.0000 C   0  0  0  0  0  0  0  0  0  0  0  0
  -14.2917   -1.7481    0.0000 C   0  0  0  0  0  0  0  0  0  0  0  0
   -1.3000   -1.7500    0.0000 C   0  0  0  0  0  0  0  0  0  0  0  0
    1.3000   -1.7500    0.0000 C   0  0  0  0  0  0  0  0  0  0  0  0
   -2.6000   -1.0000    0.0000 C   0  0  0  0  0  0  0  0  0  0  0  0
    2.6000   -1.0000    0.0000 C   0  0  0  0  0  0  0  0  0  0  0  0
  -10.3942    0.5012    0.0000 C   0  0  0  0  0  0  0  0  0  0  0  0
   -6.4970    1.2506    0.0000 C   0  0  0  0  0  0  0  0  0  0  0  0
  -11.6934   -0.2485    0.0000 C   0  0  0  0  0  0  0  0  0  0  0  0
   -5.1981    0.5004    0.0000 C   0  0  0  0  0  0  0  0  0  0  0  0
   -1.3000    1.2500    0.0000 C   0  0  0  0  0  0  0  0  0  0  0  0
   -7.7962    0.5008    0.0000 C   0  0  0  0  0  0  0  0  0  0  0  0
    0.0000   -1.0000    0.0000 C   0  0  0  0  0  0  0  0  0  0  0  0
   -2.6000    0.5000    0.0000 C   0  0  0  0  0  0  0  0  0  0  0  0
   -9.0951    1.2510    0.0000 C   0  0  0  0  0  0  0  0  0  0  0  0
    0.0000    0.5000    0.0000 C   0  0  0  0  0  0  0  0  0  0  0  0
    2.6000    0.5000    0.0000 C   0  0  0  0  0  0  0  0  0  0  0  0
  -12.9925   -0.9983    0.0000 C   0  0  0  0  0  0  0  0  0  0  0  0
   -9.0948    2.7510    0.0000 O   0  0  0  0  0  0  0  0  0  0  0  0
    3.8989    1.2502    0.0000 O   0  0  0  0  0  0  0  0  0  0  0  0
  -12.2428   -2.2975    0.0000 O   0  0  0  0  0  0  0  0  0  0  0  0
   -3.8989    1.2502    0.0000 O   0  0  0  0  0  0  0  0  0  0  0  0
    1.3000    1.2500    0.0000 O   0  0  0  0  0  0  0  0  0  0  0  0
  6  4  2  0
  7  5  2  0
 10  8  3  0
 11  9  1  0
 13  1  1  0
  9 13  2  0
 14  4  1  0
 14  5  1  0
 15  6  1  0
 15 12  2  0
 16  8  1  0
 16 13  1  0
 17 12  1  0
 17 14  2  0
 18  7  1  0
 19  2  1  0
 19  3  1  0
 19 10  1  0
 20 16  2  0
 21 18  2  0
 22 19  1  0
 23 11  1  0
 23 15  1  0
 24 17  1  0
 24 18  1  0
M  END
>  <NAME>  (1650) 
7-((E-3,7-DIMETHYL-7-HYDROXY-4-OXO-5-YN-2-OCTENYL)OXY)-2H-1-BENZOPYRAN-2-ONE

>  <SYNONYMS>  (1650) 


>  <SPECTRUM TYPE>  (1650) 
MS1

>  <INSTRUMENT TYPE>  (1650) 
EI-B

>  <INSTRUMENT>  (1650) 
JEOL JMS-DX-300

>  <ION MODE>  (1650) 
P

>  <INCHIKEY>  (1650) 
OYKRKWYDZSRLEV-UKTHLTGXSA-N

>  <FORMULA>  (1650) 
C19H18O5

>  <EXACT MASS>  (1650) 
326.115423676

>  <MW>  (1650) 
326

>  <ID>  (1650) 
JP009768

>  <CONTRIBUTOR>  (1650) 
University of Tokyo Team, {Faculty of Engineering, University of Tokyo

>  <COMMENT>  (1650) 
SMILES=CC(=CCOc(c1)cc(O2)c(C=CC(=O)2)c1)C(=O)C#CC(C)(C)O
InChI=InChI=1S/C19H18O5/c1-13(16(20)8-10-19(2,3)22)9-11-23-15-6-4-14-5-7-18(21)24-17(14)12-15/h4-7,9,12,22H,11H2,1-3H3/b13-9+
computed SMILES=O=C1OC=2C=C(OCC=C(C(=O)C#CC(O)(C)C)C)C=CC2C=C1
accession=JP009768
date=2016.01.19 (Created 2008.10.21, modified 2011.05.06)
author=HISAHIRO HAGIWARA, CHEMICAL RESEARCH INSTITUTE OF NON-AQUEOUSSOLUTIONS TOHOKU UNIV.
license=CC BY-NC-SA
exact mass=326.11542
ionization energy=70 eV
ion type=[M]+*
computed spectral entropy=3.3992447881412398
computed normalized entropy=0.811342460762558
SPLASH=splash10-03dl-8910000000-da2f8d15ee30682d2bc6
submitter=submitter = University of Tokyo Team (Faculty of Engineering, University of Tokyo)
MoNA Rating=3.75

>  <NUM PEAKS>  (1650) 
66

>  <MASS SPECTRAL PEAKS>  (1650) 
31 2.15
39 9.07
41 12.26
43 79.15
44 1.16
50 2.06
51 8.75
52 2.27
53 20.29
54 3.08
55 6.39
58 0.27
59 7.25
63 4.53
65 3.92
67 6.44
69 8.61
77 23.28
78 6.66
79 1.14
80 1.75
81 2.27
82 2.47
83 1.68
89 5.01
91 9.36
93 8.73
94 1.99
95 5.92
103 2.18
104 1.7
105 7.32
106 2.86
107 11.33
108 2.45
109 1.63
117 2.61
119 4.42
121 3.13
122 3.02
123 3.04
133 3.04
134 35.27
135 4.37
147 4.37
149 2.54
159 2.4
162 99.99
163 17.04
164 2.43
165 14.64
166 1.81
173 9.75
187 15.07
188 2.06
215 26.56
216 4.03
265 2.77
267 2.77
268 2.86
269 1.81
293 3.76
308 2.33
311 1.56
326 7.8
327 1.77

$$$$

     RDKit          2D

 18 19  0  0  0  0  0  0  0  0999 V2000
   -7.7964   -0.9992    0.0000 C   0  0  0  0  0  0  0  0  0  0  0  0
   -1.3000   -1.7500    0.0000 C   0  0  0  0  0  0  0  0  0  0  0  0
    1.3000   -1.7500    0.0000 C   0  0  0  0  0  0  0  0  0  0  0  0
   -2.6000   -1.0000    0.0000 C   0  0  0  0  0  0  0  0  0  0  0  0
    2.6000   -1.0000    0.0000 C   0  0  0  0  0  0  0  0  0  0  0  0
   -6.4970    1.2506    0.0000 C   0  0  0  0  0  0  0  0  0  0  0  0
   -5.1981    0.5004    0.0000 C   0  0  0  0  0  0  0  0  0  0  0  0
   -1.3000    1.2500    0.0000 C   0  0  0  0  0  0  0  0  0  0  0  0
   -9.0951    1.2510    0.0000 C   0  0  0  0  0  0  0  0  0  0  0  0
   -7.7962    0.5008    0.0000 C   0  0  0  0  0  0  0  0  0  0  0  0
    0.0000   -1.0000    0.0000 C   0  0  0  0  0  0  0  0  0  0  0  0
   -2.6000    0.5000    0.0000 C   0  0  0  0  0  0  0  0  0  0  0  0
    0.0000    0.5000    0.0000 C   0  0  0  0  0  0  0  0  0  0  0  0
    2.6000    0.5000    0.0000 C   0  0  0  0  0  0  0  0  0  0  0  0
  -10.3942    0.5012    0.0000 O   0  0  0  0  0  0  0  0  0  0  0  0
    3.8989    1.2502    0.0000 O   0  0  0  0  0  0  0  0  0  0  0  0
   -3.8989    1.2502    0.0000 O   0  0  0  0  0  0  0  0  0  0  0  0
    1.3000    1.2500    0.0000 O   0  0  0  0  0  0  0  0  0  0  0  0
  4  2  2  0
  5  3  2  0
  7  6  1  0
 10  1  1  0
  6 10  2  0
 10  9  1  0
 11  2  1  0
 11  3  1  0
 12  4  1  0
 12  8  2  0
 13  8  1  0
 13 11  2  0
 14  5  1  0
 15  9  2  0
 16 14  2  0
 17  7  1  0
 17 12  1  0
 18 13  1  0
 18 14  1  0
M  END
>  <NAME>  (1651) 
7-((E-3-FORMYL-2-BUTENYL)OXY)-2H-1-BENZOPYRAN-2-ONE

>  <SYNONYMS>  (1651) 


>  <SPECTRUM TYPE>  (1651) 
MS1

>  <INSTRUMENT TYPE>  (1651) 
EI-B

>  <INSTRUMENT>  (1651) 
JEOL JMS-DX-300

>  <ION MODE>  (1651) 
P

>  <INCHIKEY>  (1651) 
BOEYBMJEVSXRSZ-UXBLZVDNSA-N

>  <FORMULA>  (1651) 
C14H12O4

>  <EXACT MASS>  (1651) 
244.073558864

>  <MW>  (1651) 
244

>  <ID>  (1651) 
JP009767

>  <CONTRIBUTOR>  (1651) 
University of Tokyo Team, {Faculty of Engineering, University of Tokyo

>  <COMMENT>  (1651) 
SMILES=O=CC(C)=CCOc(c1)cc(O2)c(C=CC(=O)2)c1
InChI=InChI=1S/C14H12O4/c1-10(9-15)6-7-17-12-4-2-11-3-5-14(16)18-13(11)8-12/h2-6,8-9H,7H2,1H3/b10-6+
computed SMILES=O=CC(=CCOC=1C=CC=2C=CC(=O)OC2C1)C
accession=JP009767
date=2016.01.19 (Created 2008.10.21, modified 2011.05.06)
author=HISAHIRO HAGIWARA, CHEMICAL RESEARCH INSTITUTE OF NON-AQUEOUSSOLUTIONS TOHOKU UNIV.
license=CC BY-NC-SA
exact mass=244.07356
ionization energy=70 eV
ion type=[M]+*
computed spectral entropy=3.232933542098601
computed normalized entropy=0.8031431264849732
SPLASH=splash10-01q9-9820000000-c760f1879f411dbd7c41
submitter=submitter = University of Tokyo Team (Faculty of Engineering, University of Tokyo)
MoNA Rating=3.75

>  <NUM PEAKS>  (1651) 
56

>  <MASS SPECTRAL PEAKS>  (1651) 
38 2.28
39 18.34
41 5.93
43 14.54
44 1.62
45 2.21
50 4.54
51 16.16
52 3.29
53 11.33
54 5.96
55 50.25
56 3.04
57 2.01
58 2.65
59 1.91
61 1.62
62 2.99
63 9.05
64 0.26
65 4.17
67 2.13
69 8.26
76 2.01
77 11.72
78 9.02
79 2.97
81 3.41
82 9.91
83 43.26
84 3.87
85 1.91
89 8.09
91 2.21
105 9.47
106 3.78
123 2.04
133 4.02
134 82.34
135 8.29
145 1.74
159 2.35
162 99.99
163 14.25
173 5.59
175 2.77
187 15.96
188 2.16
199 3.31
201 1.82
215 19.42
216 4.02
227 2.13
229 1.99
244 36.86
245 6.28

$$$$

     RDKit          2D

 13 12  0  0  0  0  0  0  0  0999 V2000
    2.5478    3.0870    0.0000 C   0  0  0  0  0  0  0  0  0  0  0  0
   -0.0502    6.0870    0.0000 C   0  0  0  0  0  0  0  0  0  0  0  0
   -2.6483    6.0870    0.0000 C   0  0  0  0  0  0  0  0  0  0  0  0
   -3.1974    5.1361    0.0000 C   0  0  0  0  0  0  0  0  0  0  0  0
   -5.2464    4.5870    0.0000 C   0  0  0  0  0  0  0  0  0  0  0  0
   -4.6974    2.5380    0.0000 C   0  0  0  0  0  0  0  0  0  0  0  0
    1.2488    3.8370    0.0000 C   0  0  0  0  0  0  0  0  0  0  0  0
   -2.6483    3.0870    0.0000 C   0  0  0  0  0  0  0  0  0  0  0  0
   -1.3493    5.3370    0.0000 C   0  0  0  0  0  0  0  0  0  0  0  0
   -1.3493    3.8370    0.0000 C   0  0  0  0  0  0  0  0  0  0  0  0
   -0.0502    3.0870    0.0000 C   0  0  0  0  0  0  0  0  0  0  0  0
   -0.0502    1.5870    0.0000 O   0  0  0  0  0  0  0  0  0  0  0  0
   -3.9474    3.8370    0.0000 Si  0  0  0  0  0  4  0  0  0  0  0  0
  7  1  1  0
  9  2  2  0
  9  3  1  0
 10  8  1  0
 10  9  1  0
 11  7  1  0
 11 10  1  0
 12 11  1  0
 13  4  1  0
 13  5  1  0
 13  6  1  0
 13  8  1  0
M  END
>  <NAME>  (1652) 
3-TRIMETHYLSILYLMETHYL-4-HYDROXY-2-METHYL-1-HEXENE

>  <SYNONYMS>  (1652) 


>  <SPECTRUM TYPE>  (1652) 
MS1

>  <INSTRUMENT TYPE>  (1652) 
EI-B

>  <INSTRUMENT>  (1652) 
JEOL JMS-DX-300

>  <ION MODE>  (1652) 
P

>  <INCHIKEY>  (1652) 
LTTVLXPPUDUYBC-UHFFFAOYSA-N

>  <FORMULA>  (1652) 
C11H24OSi

>  <EXACT MASS>  (1652) 
200.159641918

>  <MW>  (1652) 
200

>  <ID>  (1652) 
JP009766

>  <CONTRIBUTOR>  (1652) 
University of Tokyo Team, {Faculty of Engineering, University of Tokyo

>  <COMMENT>  (1652) 
SMILES=CCC(O)C(C(C)=C)C[Si](C)(C)C
InChI=InChI=1S/C11H24OSi/c1-7-11(12)10(9(2)3)8-13(4,5)6/h10-12H,2,7-8H2,1,3-6H3
computed SMILES=OC(CC)C(C(=C)C)C[Si](C)(C)C
accession=JP009766
date=2016.01.19 (Created 2008.10.21, modified 2011.05.06)
author=HISAHIRO HAGIWARA, CHEMICAL RESEARCH INSTITUTE OF NON-AQUEOUSSOLUTIONS TOHOKU UNIV.
license=CC BY-NC-SA
exact mass=200.15964
ionization energy=70 eV
ion type=[M]+*
computed spectral entropy=2.2408946877871267
computed normalized entropy=0.6525634937894597
SPLASH=splash10-00di-9000000000-edb6245ebade434dd143
submitter=submitter = University of Tokyo Team (Faculty of Engineering, University of Tokyo)
MoNA Rating=3.75

>  <NUM PEAKS>  (1652) 
31

>  <MASS SPECTRAL PEAKS>  (1652) 
31 3.74
39 1.49
41 3.68
43 2.91
44 1.59
45 8.31
47 1.65
53 1.24
57 1.6
58 1.4
59 8.35
61 1.62
67 1.56
68 3.56
72 1.59
73 99.99
74 10.19
75 26.84
76 2.02
77 0.18
81 4.95
83 1
85 1.85
95 2.37
99 2.45
111 2.01
127 1.86
131 0.17
141 4.15
142 10.16
143 1.78

$$$$

     RDKit          2D

 20 21  0  0  1  0  0  0  0  0999 V2000
   -0.3255    4.3139    0.0000 C   0  0  0  0  0  0  0  0  0  0  0  0
    1.3093    0.1636    0.0000 C   0  0  0  0  0  0  0  0  0  0  0  0
    3.2378    0.1633    0.0000 C   0  0  0  0  0  0  0  0  0  0  0  0
    2.2727    4.3141    0.0000 C   0  0  0  0  0  0  0  0  0  0  0  0
    3.5723    3.5633    0.0000 C   0  0  0  0  0  0  0  0  0  0  0  0
   -0.3248    1.3133    0.0000 C   0  0  0  0  0  0  0  0  0  0  0  0
   -1.6234    3.5641    0.0000 C   0  0  0  0  0  0  0  0  0  0  0  0
   -4.2224    2.0624    0.0000 C   0  0  0  0  0  0  0  0  0  0  0  0
    0.9737    3.5641    0.0000 C   0  0  0  0  0  0  0  0  0  0  0  0
   -1.6239    2.0633    0.0000 C   0  0  0  0  0  0  0  0  0  0  0  0
    0.9742    2.0633    0.0000 C   0  0  0  0  0  0  0  0  0  0  0  0
   -4.2220    3.5633    0.0000 C   0  0  0  0  0  0  0  0  0  0  0  0
   -2.9234    1.3124    0.0000 C   0  0  0  0  0  0  0  0  0  0  0  0
   -2.9224    4.3141    0.0000 C   0  0  0  0  0  0  0  0  0  0  0  0
    3.5727    2.0624    0.0000 C   0  0  0  0  0  0  0  0  0  0  0  0
    2.2737    1.3124    0.0000 C   0  0  0  0  0  0  0  0  0  0  0  0
   -5.5210    4.3133    0.0000 Br  0  0  0  0  0  0  0  0  0  0  0  0
    4.8719    1.3127    0.0000 Br  0  0  0  0  0  0  0  0  0  0  0  0
   -2.9232   -0.1876    0.0000 O   0  0  0  0  0  0  0  0  0  0  0  0
   -2.9227    5.8141    0.0000 O   0  0  0  0  0  0  0  0  0  0  0  0
  5  4  1  0
  9  1  2  0
  9  4  1  0
 10  6  1  0
 10  7  2  0
 11  6  1  1
 11  9  1  0
 12  8  1  0
 13  8  2  0
 13 10  1  0
 14  7  1  0
 14 12  2  0
 15  5  1  0
 16  2  1  0
 16  3  1  0
 16 11  1  0
 16 15  1  0
 17 12  1  0
 15 18  1  1
 19 13  1  0
 20 14  1  0
M  END
>  <NAME>  (1653) 
CYCLOCYMOPOL

>  <SYNONYMS>  (1653) 


>  <SPECTRUM TYPE>  (1653) 
MS1

>  <INSTRUMENT TYPE>  (1653) 
EI-B

>  <INSTRUMENT>  (1653) 
JEOL JMS-DX-300

>  <ION MODE>  (1653) 
P

>  <INCHIKEY>  (1653) 
OVQUXMIHRFSOJM-XHDPSFHLSA-N

>  <FORMULA>  (1653) 
C16H20Br2O2

>  <EXACT MASS>  (1653) 
401.98300408

>  <MW>  (1653) 
402

>  <ID>  (1653) 
JP009765

>  <CONTRIBUTOR>  (1653) 
University of Tokyo Team, {Faculty of Engineering, University of Tokyo

>  <COMMENT>  (1653) 
SMILES=Oc(c1)c(Br)cc(O)c1CC([H])(C(=C)2)C(C)(C)C([H])(Br)CC2
InChI=InChI=1S/C16H20Br2O2/c1-9-4-5-15(18)16(2,3)11(9)6-10-7-14(20)12(17)8-13(10)19/h7-8,11,15,19-20H,1,4-6H2,2-3H3/t11-,15+/m0/s1
computed SMILES=BrC=1C=C(O)C(=CC1O)CC2C(=C)CCC(Br)C2(C)C
accession=JP009765
date=2016.01.19 (Created 2008.10.21, modified 2011.05.06)
author=HISAHIRO HAGIWARA, CHEMICAL RESEARCH INSTITUTE OF NON-AQUEOUSSOLUTIONS TOHOKU UNIV.
license=CC BY-NC-SA
exact mass=401.98301
ionization energy=70 eV
ion type=[M]+*
computed spectral entropy=3.696069497120594
computed normalized entropy=0.8670764879688784
SPLASH=splash10-0udi-9781200000-4e34489ce784ebe6a55b
submitter=submitter = University of Tokyo Team (Faculty of Engineering, University of Tokyo)
MoNA Rating=3.75

>  <NUM PEAKS>  (1653) 
71

>  <MASS SPECTRAL PEAKS>  (1653) 
39 19.03
41 38.71
43 7.95
51 8.06
52 3.96
53 45.86
55 12.8
57 11.31
63 3.7
65 15.71
66 7.76
67 12.07
69 18.95
77 16.77
78 5.94
79 0.21
80 4.55
81 7.77
82 4.4
91 18.54
92 3.64
93 27.26
94 13.14
95 4.34
103 3.36
105 12.45
106 3.72
107 29.33
108 4.67
109 5.94
115 4.58
119 7.06
120 3.58
121 84.44
122 30.15
123 18.74
131 3.99
134 3.57
147 4.08
148 3.07
160 6.04
161 6.03
162 3.56
173 3.37
174 4.8
175 3.96
176 3.84
200 5.46
201 99.99
202 18.67
203 96.71
204 13.94
227 3.65
239 12.31
241 13.37
243 4.02
244 3.05
253 3.27
279 5.29
281 6.12
322 6.04
323 17.15
324 8.56
325 17.28
326 3.37
402 17.68
403 3.45
404 32.14
405 6.42
406 16.94
407 3.21

$$$$

     RDKit          2D

 24 26  0  0  0  0  0  0  0  0999 V2000
   -7.7964   -0.9992    0.0000 C   0  0  0  0  0  0  0  0  0  0  0  0
  -12.0911    3.6507    0.0000 C   0  0  0  0  0  0  0  0  0  0  0  0
  -10.2635    4.4750    0.0000 C   0  0  0  0  0  0  0  0  0  0  0  0
   -1.3000   -1.7500    0.0000 C   0  0  0  0  0  0  0  0  0  0  0  0
    1.3000   -1.7500    0.0000 C   0  0  0  0  0  0  0  0  0  0  0  0
   -2.6000   -1.0000    0.0000 C   0  0  0  0  0  0  0  0  0  0  0  0
    2.6000   -1.0000    0.0000 C   0  0  0  0  0  0  0  0  0  0  0  0
   -6.4970    1.2506    0.0000 C   0  0  0  0  0  0  0  0  0  0  0  0
   -5.1981    0.5004    0.0000 C   0  0  0  0  0  0  0  0  0  0  0  0
   -1.3000    1.2500    0.0000 C   0  0  0  0  0  0  0  0  0  0  0  0
  -10.4567    0.6395    0.0000 C   0  0  0  0  0  0  0  0  0  0  0  0
   -7.7962    0.5008    0.0000 C   0  0  0  0  0  0  0  0  0  0  0  0
    0.0000   -1.0000    0.0000 C   0  0  0  0  0  0  0  0  0  0  0  0
   -2.6000    0.5000    0.0000 C   0  0  0  0  0  0  0  0  0  0  0  0
   -9.0951    1.2510    0.0000 C   0  0  0  0  0  0  0  0  0  0  0  0
    0.0000    0.5000    0.0000 C   0  0  0  0  0  0  0  0  0  0  0  0
  -11.4630    1.7519    0.0000 C   0  0  0  0  0  0  0  0  0  0  0  0
    2.6000    0.5000    0.0000 C   0  0  0  0  0  0  0  0  0  0  0  0
  -10.7186    3.0457    0.0000 C   0  0  0  0  0  0  0  0  0  0  0  0
  -12.9545    1.5923    0.0000 O   0  0  0  0  0  0  0  0  0  0  0  0
    3.8989    1.2502    0.0000 O   0  0  0  0  0  0  0  0  0  0  0  0
   -3.8989    1.2502    0.0000 O   0  0  0  0  0  0  0  0  0  0  0  0
    1.3000    1.2500    0.0000 O   0  0  0  0  0  0  0  0  0  0  0  0
   -9.2468    2.7454    0.0000 O   0  0  0  0  0  0  0  0  0  0  0  0
  6  4  2  0
  7  5  2  0
  9  8  1  0
 12  1  1  0
  8 12  2  0
 13  4  1  0
 13  5  1  0
 14  6  1  0
 14 10  2  0
 15 11  2  0
 15 12  1  0
 16 10  1  0
 16 13  2  0
 17 11  1  0
 18  7  1  0
 19  2  1  0
 19  3  1  0
 19 17  1  0
 20 17  2  0
 21 18  2  0
 22  9  1  0
 22 14  1  0
 23 16  1  0
 23 18  1  0
 24 15  1  0
 24 19  1  0
M  END
>  <NAME>  (1654) 
GEIPARVARIN

>  <SYNONYMS>  (1654) 


>  <SPECTRUM TYPE>  (1654) 
MS1

>  <INSTRUMENT TYPE>  (1654) 
EI-B

>  <INSTRUMENT>  (1654) 
JEOL JMS-DX-300

>  <ION MODE>  (1654) 
P

>  <INCHIKEY>  (1654) 
OUTLLBZGJYDUQE-XYOKQWHBSA-N

>  <FORMULA>  (1654) 
C19H18O5

>  <EXACT MASS>  (1654) 
326.115423676

>  <MW>  (1654) 
326

>  <ID>  (1654) 
JP009764

>  <CONTRIBUTOR>  (1654) 
University of Tokyo Team, {Faculty of Engineering, University of Tokyo

>  <COMMENT>  (1654) 
SMILES=O=C(C=3)Oc(c1)c(C3)ccc(OCC=C(C)C(=C2)OC(C)(C)C(=O)2)1
InChI=InChI=1S/C19H18O5/c1-12(15-11-17(20)19(2,3)24-15)8-9-22-14-6-4-13-5-7-18(21)23-16(13)10-14/h4-8,10-11H,9H2,1-3H3/b12-8+
computed SMILES=O=C1OC=2C=C(OCC=C(C=3OC(C(=O)C3)(C)C)C)C=CC2C=C1
accession=JP009764
date=2016.01.19 (Created 2008.10.21, modified 2011.05.06)
author=HISAHIRO HAGIWARA, CHEMICAL RESEARCH INSTITUTE OF NON-AQUEOUSSOLUTIONS TOHOKU UNIV.
license=CC BY-NC-SA
exact mass=326.11542
ionization energy=70 eV
ion type=[M]+*
computed spectral entropy=2.3810832970150444
computed normalized entropy=0.9022476587737397
SPLASH=splash10-014i-9500000000-92fb71b83a517d490a18
submitter=submitter = University of Tokyo Team (Faculty of Engineering, University of Tokyo)
MoNA Rating=3.75

>  <NUM PEAKS>  (1654) 
14

>  <MASS SPECTRAL PEAKS>  (1654) 
41 35.59
43 15.48
51 11.57
67 12.46
69 99.99
77 26.69
78 12.99
79 14.59
109 27.22
134 15.48
137 21.53
162 20.28
165 59.25
326 17.79

$$$$

     RDKit          2D

  3  3  0  0  0  0  0  0  0  0999 V2000
   -0.3245   -0.7179    0.0000 C   0  0  0  0  0  0  0  0  0  0  0  0
   -0.3250    0.7829    0.0000 C   0  0  0  0  0  0  0  0  0  0  0  0
    0.9745    0.0321    0.0000 C   0  0  0  0  0  0  0  0  0  0  0  0
  2  1  1  0
  3  1  1  0
  3  2  1  0
M  END
>  <NAME>  (1655) 
CYCLOPROPANE

>  <SYNONYMS>  (1655) 


>  <SPECTRUM TYPE>  (1655) 
MS1

>  <INSTRUMENT TYPE>  (1655) 
EI-B

>  <INSTRUMENT>  (1655) 
JEOL JMS-DX-300

>  <ION MODE>  (1655) 
P

>  <INCHIKEY>  (1655) 
LVZWSLJZHVFIQJ-UHFFFAOYSA-N

>  <FORMULA>  (1655) 
C3H6

>  <EXACT MASS>  (1655) 
42.046950192

>  <MW>  (1655) 
42

>  <ID>  (1655) 
JP009763

>  <CONTRIBUTOR>  (1655) 
University of Tokyo Team, {Faculty of Engineering, University of Tokyo

>  <COMMENT>  (1655) 
SMILES=C(C1)C1
cas=75-19-4
InChI=InChI=1S/C3H6/c1-2-3-1/h1-3H2
computed SMILES=C1CC1
accession=JP009763
date=2016.01.19 (Created 2008.10.21, modified 2011.05.06)
author=HISAHIRO HAGIWARA, CHEMICAL RESEARCH INSTITUTE OF NON-AQUEOUSSOLUTIONS TOHOKU UNIV.
license=CC BY-NC-SA
exact mass=42.04695
ionization energy=70 eV
ion type=[M]+*
computed spectral entropy=2.1143675735646656
computed normalized entropy=0.6653026306144023
SPLASH=splash10-0006-9000000000-2e1149aecaee45f89566
submitter=submitter = University of Tokyo Team (Faculty of Engineering, University of Tokyo)
MoNA Rating=3.75

>  <NUM PEAKS>  (1655) 
24

>  <MASS SPECTRAL PEAKS>  (1655) 
12 0.26
13 0.45
15 2.31
16 0.24
17 1.92
18 9.28
19 2.51
20 1.97
21 0.61
25 0.86
26 6.69
27 25.89
32 16.1
36 1.62
37 8.53
38 12.52
39 59.86
40 30.23
41 94.37
42 99.99
43 4.43
45 0.28
55 0.42
57 0.26

$$$$

     RDKit          2D

 18 18  0  0  0  0  0  0  0  0999 V2000
   -6.4952    0.7500    0.0000 C   0  0  0  0  0  0  0  0  0  0  0  0
    6.4952   -0.7500    0.0000 C   0  0  0  0  0  0  0  0  0  0  0  0
   -5.1962    1.5000    0.0000 C   0  0  0  0  0  0  0  0  0  0  0  0
    5.1962   -1.5000    0.0000 C   0  0  0  0  0  0  0  0  0  0  0  0
   -1.2995   -0.7508    0.0000 C   0  0  0  0  0  0  0  0  0  0  0  0
    1.2995    0.7508    0.0000 C   0  0  0  0  0  0  0  0  0  0  0  0
   -1.2990    0.7500    0.0000 C   0  0  0  0  0  0  0  0  0  0  0  0
    1.2990   -0.7500    0.0000 C   0  0  0  0  0  0  0  0  0  0  0  0
    0.0005    1.5008    0.0000 C   0  0  0  0  0  0  0  0  0  0  0  0
   -0.0005   -1.5008    0.0000 C   0  0  0  0  0  0  0  0  0  0  0  0
   -2.5981    1.5000    0.0000 C   0  0  0  0  0  0  0  0  0  0  0  0
    2.5981   -1.5000    0.0000 C   0  0  0  0  0  0  0  0  0  0  0  0
    0.0002    3.0008    0.0000 O   0  0  0  0  0  0  0  0  0  0  0  0
   -0.0002   -3.0008    0.0000 O   0  0  0  0  0  0  0  0  0  0  0  0
   -2.5981    3.0000    0.0000 O   0  0  0  0  0  0  0  0  0  0  0  0
    2.5981   -3.0000    0.0000 O   0  0  0  0  0  0  0  0  0  0  0  0
   -3.8971    0.7500    0.0000 O   0  0  0  0  0  0  0  0  0  0  0  0
    3.8971   -0.7500    0.0000 O   0  0  0  0  0  0  0  0  0  0  0  0
  3  1  1  0
  4  2  1  0
  7  5  1  0
  8  6  1  0
  9  6  1  0
  9  7  1  0
 10  5  1  0
 10  8  1  0
 11  7  1  0
 12  8  1  0
 13  9  2  0
 14 10  2  0
 15 11  2  0
 16 12  2  0
 17  3  1  0
 17 11  1  0
 18  4  1  0
 18 12  1  0
M  END
>  <NAME>  (1656) 
DIETHYL 1,4-CYCLOHEXANEDIONE-2,5-DICARBOXYLATE

>  <SYNONYMS>  (1656) 


>  <SPECTRUM TYPE>  (1656) 
MS1

>  <INSTRUMENT TYPE>  (1656) 
EI-B

>  <INSTRUMENT>  (1656) 
JEOL JMS-DX-300

>  <ION MODE>  (1656) 
P

>  <INCHIKEY>  (1656) 
KSKWGMNRWCYVAT-UHFFFAOYSA-N

>  <FORMULA>  (1656) 
C12H16O6

>  <EXACT MASS>  (1656) 
256.09468823199995

>  <MW>  (1656) 
256

>  <ID>  (1656) 
JP009762

>  <CONTRIBUTOR>  (1656) 
University of Tokyo Team, {Faculty of Engineering, University of Tokyo

>  <COMMENT>  (1656) 
SMILES=CCOC(=O)C(C1)C(=O)CC(C(=O)OCC)C(=O)1
cas=787-07-5
InChI=InChI=1S/C12H16O6/c1-3-17-11(15)7-5-10(14)8(6-9(7)13)12(16)18-4-2/h7-8H,3-6H2,1-2H3
computed SMILES=O=C(OCC)C1C(=O)CC(C(=O)OCC)C(=O)C1
accession=JP009762
date=2016.01.19 (Created 2008.10.21, modified 2011.05.06)
author=HISAHIRO HAGIWARA, CHEMICAL RESEARCH INSTITUTE OF NON-AQUEOUSSOLUTIONS TOHOKU UNIV.
license=CC BY-NC-SA
exact mass=256.09469
ionization energy=70 eV
ion type=[M]+*
computed spectral entropy=3.707343317802962
computed normalized entropy=0.9130391211435966
SPLASH=splash10-052u-3930000000-c54f447eae9b34d5e6ae
submitter=submitter = University of Tokyo Team (Faculty of Engineering, University of Tokyo)
MoNA Rating=3.75

>  <NUM PEAKS>  (1656) 
58

>  <MASS SPECTRAL PEAKS>  (1656) 
31 11.03
39 6.76
41 8.74
43 6.78
44 8.07
45 10.49
52 8.2
53 13.92
54 10.82
55 31.23
68 7.74
69 10.59
72 5.62
73 13.48
80 6.05
81 12.38
82 5.87
83 8.66
96 30.73
97 6.18
98 6.24
99 19.02
101 14.29
108 13.48
109 15.94
110 8.47
111 11.82
114 4.44
115 4.99
126 8.95
127 9.88
135 10.26
136 42.74
137 70.37
138 9.38
142 99.99
143 9.16
153 9.45
154 9.82
155 14.44
162 6.55
163 8.3
164 29.21
165 36.62
181 34.02
182 21.93
183 17.29
192 27.22
199 10.8
208 8.07
209 11.65
210 53.23
211 30.52
227 36.54
228 5.33
238 12.59
256 70.79
257 11.59

$$$$

     RDKit          2D

 17 17  0  0  0  0  0  0  0  0999 V2000
   -3.9076    4.0204    0.0000 C   0  0  0  0  0  0  0  0  0  0  0  0
   -2.6151   -2.7165    0.0000 C   0  0  0  0  0  0  0  0  0  0  0  0
    1.2816   -3.4843    0.0000 C   0  0  0  0  0  0  0  0  0  0  0  0
    3.9081   -0.4716    0.0000 C   0  0  0  0  0  0  0  0  0  0  0  0
    2.6013    3.2745    0.0000 C   0  0  0  0  0  0  0  0  0  0  0  0
   -2.6089    1.7702    0.0000 C   0  0  0  0  0  0  0  0  0  0  0  0
   -1.3100    1.0200    0.0000 C   0  0  0  0  0  0  0  0  0  0  0  0
   -1.3100   -0.4700    0.0000 C   0  0  0  0  0  0  0  0  0  0  0  0
   -0.0100   -1.2300    0.0000 C   0  0  0  0  0  0  0  0  0  0  0  0
    1.3100   -0.4700    0.0000 C   0  0  0  0  0  0  0  0  0  0  0  0
    1.3100    1.0200    0.0000 C   0  0  0  0  0  0  0  0  0  0  0  0
   -2.6087    3.2702    0.0000 O   0  0  0  0  0  0  0  0  0  0  0  0
   -2.6111   -1.2165    0.0000 O   0  0  0  0  0  0  0  0  0  0  0  0
   -0.0150   -2.7300    0.0000 O   0  0  0  0  0  0  0  0  0  0  0  0
    2.6086   -1.2208    0.0000 O   0  0  0  0  0  0  0  0  0  0  0  0
    2.6064    1.7745    0.0000 O   0  0  0  0  0  0  0  0  0  0  0  0
   -0.0100    1.7700    0.0000 O   0  0  0  0  0  0  0  0  0  0  0  0
  7  6  1  0
  8  7  1  0
  9  8  1  0
 10  9  1  0
 11 10  1  0
 12  1  1  0
 12  6  1  0
 13  2  1  0
 13  8  1  0
 14  3  1  0
 14  9  1  0
 15  4  1  0
 15 10  1  0
 16  5  1  0
 16 11  1  0
 17  7  1  0
 17 11  1  0
M  END
>  <NAME>  (1657) 
METHYL TETRA-O-METHYL-ALPHA-D-TALOPYRANOSIDE

>  <SYNONYMS>  (1657) 


>  <SPECTRUM TYPE>  (1657) 
MS1

>  <INSTRUMENT TYPE>  (1657) 
EI-B

>  <INSTRUMENT>  (1657) 
JEOL JMS-DX-300

>  <ION MODE>  (1657) 
P

>  <INCHIKEY>  (1657) 
ZYGZAHUNAGVTEC-UHFFFAOYSA-N

>  <FORMULA>  (1657) 
C11H22O6

>  <EXACT MASS>  (1657) 
250.14163842399998

>  <MW>  (1657) 
250

>  <ID>  (1657) 
JP009687

>  <CONTRIBUTOR>  (1657) 
University of Tokyo Team, {Faculty of Engineering, University of Tokyo

>  <COMMENT>  (1657) 
SMILES=COCC([H])(O1)C([H])(OC)C([H])(OC)C([H])(OC)C([H])(OC)1
InChI=InChI=1S/C11H22O6/c1-12-6-7-8(13-2)9(14-3)10(15-4)11(16-5)17-7/h7-11H,6H2,1-5H3
computed SMILES=O(C)CC1OC(OC)C(OC)C(OC)C1OC
accession=JP009687
date=2016.01.19 (Created 2008.10.21, modified 2011.05.06)
author=THE INSTITUTE OF SCIENTIFIC AND INDUSTRIALRESEARCH
license=CC BY-NC-SA
exact mass=250.14164
ionization energy=70 eV
ion type=[M]+*
computed spectral entropy=2.484328447121883
computed normalized entropy=0.660514827901885
SPLASH=splash10-0f9i-9300000000-8e6d589818f681b4aa6e
submitter=submitter = University of Tokyo Team (Faculty of Engineering, University of Tokyo)
MoNA Rating=3.75

>  <NUM PEAKS>  (1657) 
43

>  <MASS SPECTRAL PEAKS>  (1657) 
27 2
29 4.4
31 2.3
33 0.14
39 1.2
41 5.3
42 1.3
43 0.6
44 1.8
45 26.1
47 1.6
55 0.22
57 2.3
58 1.3
59 5.4
69 0.11
71 14
72 2.1
73 12.9
74 0.29
75 73
76 2.7
83 1.7
85 0.26
87 1.1
88 99.99
89 10
98 0.11
99 1.2
101 64.6
102 6.4
111 0.24
117 1.1
127 2.8
131 2.8
143 0.12
145 1.5
149 28.6
150 1.8
159 0.13
176 4.6
187 3.8
219 2.1

$$$$

     RDKit          2D

 17 17  0  0  0  0  0  0  0  0999 V2000
   -3.9076    4.0204    0.0000 C   0  0  0  0  0  0  0  0  0  0  0  0
   -2.6151   -2.7165    0.0000 C   0  0  0  0  0  0  0  0  0  0  0  0
    1.2816   -3.4843    0.0000 C   0  0  0  0  0  0  0  0  0  0  0  0
    3.9081   -0.4716    0.0000 C   0  0  0  0  0  0  0  0  0  0  0  0
    2.6013    3.2745    0.0000 C   0  0  0  0  0  0  0  0  0  0  0  0
   -2.6089    1.7702    0.0000 C   0  0  0  0  0  0  0  0  0  0  0  0
   -1.3100    1.0200    0.0000 C   0  0  0  0  0  0  0  0  0  0  0  0
   -1.3100   -0.4700    0.0000 C   0  0  0  0  0  0  0  0  0  0  0  0
   -0.0100   -1.2300    0.0000 C   0  0  0  0  0  0  0  0  0  0  0  0
    1.3100   -0.4700    0.0000 C   0  0  0  0  0  0  0  0  0  0  0  0
    1.3100    1.0200    0.0000 C   0  0  0  0  0  0  0  0  0  0  0  0
   -2.6087    3.2702    0.0000 O   0  0  0  0  0  0  0  0  0  0  0  0
   -2.6111   -1.2165    0.0000 O   0  0  0  0  0  0  0  0  0  0  0  0
   -0.0150   -2.7300    0.0000 O   0  0  0  0  0  0  0  0  0  0  0  0
    2.6086   -1.2208    0.0000 O   0  0  0  0  0  0  0  0  0  0  0  0
    2.6064    1.7745    0.0000 O   0  0  0  0  0  0  0  0  0  0  0  0
   -0.0100    1.7700    0.0000 O   0  0  0  0  0  0  0  0  0  0  0  0
  7  6  1  0
  8  7  1  0
  9  8  1  0
 10  9  1  0
 11 10  1  0
 12  1  1  0
 12  6  1  0
 13  2  1  0
 13  8  1  0
 14  3  1  0
 14  9  1  0
 15  4  1  0
 15 10  1  0
 16  5  1  0
 16 11  1  0
 17  7  1  0
 17 11  1  0
M  END
>  <NAME>  (1658) 
METHYL TETRA-O-METHYL-BETA-D-MANNOPYRANOSIDE

>  <SYNONYMS>  (1658) 


>  <SPECTRUM TYPE>  (1658) 
MS1

>  <INSTRUMENT TYPE>  (1658) 
EI-B

>  <INSTRUMENT>  (1658) 
JEOL JMS-DX-300

>  <ION MODE>  (1658) 
P

>  <INCHIKEY>  (1658) 
ZYGZAHUNAGVTEC-UHFFFAOYSA-N

>  <FORMULA>  (1658) 
C11H22O6

>  <EXACT MASS>  (1658) 
250.14163842399998

>  <MW>  (1658) 
250

>  <ID>  (1658) 
JP009686

>  <CONTRIBUTOR>  (1658) 
University of Tokyo Team, {Faculty of Engineering, University of Tokyo

>  <COMMENT>  (1658) 
SMILES=COCC([H])(O1)C([H])(OC)C([H])(OC)C([H])(OC)C([H])(OC)1
InChI=InChI=1S/C11H22O6/c1-12-6-7-8(13-2)9(14-3)10(15-4)11(16-5)17-7/h7-11H,6H2,1-5H3
computed SMILES=O(C)CC1OC(OC)C(OC)C(OC)C1OC
accession=JP009686
date=2016.01.19 (Created 2008.10.21, modified 2011.05.06)
author=THE INSTITUTE OF SCIENTIFIC AND INDUSTRIALRESEARCH
license=CC BY-NC-SA
exact mass=250.14164
ionization energy=70 eV
ion type=[M]+*
computed spectral entropy=2.5393819559126505
computed normalized entropy=0.6838111420216173
SPLASH=splash10-0f79-9400000000-81b464144c2938c39a18
submitter=submitter = University of Tokyo Team (Faculty of Engineering, University of Tokyo)
MoNA Rating=3.75

>  <NUM PEAKS>  (1658) 
41

>  <MASS SPECTRAL PEAKS>  (1658) 
27 1.8
29 9.9
30 2.4
31 0.97
33 1.8
34 1
41 4.8
42 0.12
43 3.9
44 2.7
45 30
46 0.12
47 1.6
55 2
57 1.8
58 0.19
59 5.6
60 2.8
69 1
71 1.52
72 2.1
73 12.6
74 4.6
75 7.14
76 2.4
85 3
87 2
88 99.99
89 11.8
99 1.2
101 57.8
102 0.7
103 1.3
117 1.5
127 1.8
129 0.11
131 1.8
145 3.3
149 25.2
150 0.18
176 5.9

$$$$

     RDKit          2D

 17 17  0  0  0  0  0  0  0  0999 V2000
   -3.9076    4.0204    0.0000 C   0  0  0  0  0  0  0  0  0  0  0  0
   -2.6151   -2.7165    0.0000 C   0  0  0  0  0  0  0  0  0  0  0  0
    1.2816   -3.4843    0.0000 C   0  0  0  0  0  0  0  0  0  0  0  0
    3.9081   -0.4716    0.0000 C   0  0  0  0  0  0  0  0  0  0  0  0
    2.6013    3.2745    0.0000 C   0  0  0  0  0  0  0  0  0  0  0  0
   -2.6089    1.7702    0.0000 C   0  0  0  0  0  0  0  0  0  0  0  0
   -1.3100    1.0200    0.0000 C   0  0  0  0  0  0  0  0  0  0  0  0
   -1.3100   -0.4700    0.0000 C   0  0  0  0  0  0  0  0  0  0  0  0
   -0.0100   -1.2300    0.0000 C   0  0  0  0  0  0  0  0  0  0  0  0
    1.3100   -0.4700    0.0000 C   0  0  0  0  0  0  0  0  0  0  0  0
    1.3100    1.0200    0.0000 C   0  0  0  0  0  0  0  0  0  0  0  0
   -2.6087    3.2702    0.0000 O   0  0  0  0  0  0  0  0  0  0  0  0
   -2.6111   -1.2165    0.0000 O   0  0  0  0  0  0  0  0  0  0  0  0
   -0.0150   -2.7300    0.0000 O   0  0  0  0  0  0  0  0  0  0  0  0
    2.6086   -1.2208    0.0000 O   0  0  0  0  0  0  0  0  0  0  0  0
    2.6064    1.7745    0.0000 O   0  0  0  0  0  0  0  0  0  0  0  0
   -0.0100    1.7700    0.0000 O   0  0  0  0  0  0  0  0  0  0  0  0
  7  6  1  0
  8  7  1  0
  9  8  1  0
 10  9  1  0
 11 10  1  0
 12  1  1  0
 12  6  1  0
 13  2  1  0
 13  8  1  0
 14  3  1  0
 14  9  1  0
 15  4  1  0
 15 10  1  0
 16  5  1  0
 16 11  1  0
 17  7  1  0
 17 11  1  0
M  END
>  <NAME>  (1659) 
METHYL TETRA-O-METHYL-ALPHA-D-MANNOPYRANOSIDE

>  <SYNONYMS>  (1659) 


>  <SPECTRUM TYPE>  (1659) 
MS1

>  <INSTRUMENT TYPE>  (1659) 
EI-B

>  <INSTRUMENT>  (1659) 
JEOL JMS-DX-300

>  <ION MODE>  (1659) 
P

>  <INCHIKEY>  (1659) 
ZYGZAHUNAGVTEC-UHFFFAOYSA-N

>  <FORMULA>  (1659) 
C11H22O6

>  <EXACT MASS>  (1659) 
250.14163842399998

>  <MW>  (1659) 
250

>  <ID>  (1659) 
JP009685

>  <CONTRIBUTOR>  (1659) 
University of Tokyo Team, {Faculty of Engineering, University of Tokyo

>  <COMMENT>  (1659) 
SMILES=COCC([H])(O1)C([H])(OC)C([H])(OC)C([H])(OC)C([H])(OC)1
InChI=InChI=1S/C11H22O6/c1-12-6-7-8(13-2)9(14-3)10(15-4)11(16-5)17-7/h7-11H,6H2,1-5H3
computed SMILES=O(C)CC1OC(OC)C(OC)C(OC)C1OC
accession=JP009685
date=2016.01.19 (Created 2008.10.21, modified 2011.05.06)
author=THE INSTITUTE OF SCIENTIFIC AND INDUSTRIALRESEARCH
license=CC BY-NC-SA
exact mass=250.14164
ionization energy=70 eV
ion type=[M]+*
computed spectral entropy=2.3995101881344802
computed normalized entropy=0.659643533588485
SPLASH=splash10-002r-9300000000-69bc66f1e3cea63ed1fa
submitter=submitter = University of Tokyo Team (Faculty of Engineering, University of Tokyo)
MoNA Rating=3.75

>  <NUM PEAKS>  (1659) 
38

>  <MASS SPECTRAL PEAKS>  (1659) 
27 1.8
29 4.1
31 1.9
33 0.11
39 1
41 4.6
42 1
43 0.36
44 2
45 21.8
47 1.4
53 0.1
55 2
57 1.9
59 4
69 0.1
71 12.1
72 1.7
73 10.8
74 0.28
75 67.5
76 2.1
85 2.5
88 99.99
89 14.3
99 1.2
101 53.5
102 0.53
111 2
117 1.9
127 2
131 0.18
145 3.2
149 29.8
150 1.9
176 0.57
187 2.9
219 2.3

$$$$

     RDKit          2D

 17 17  0  0  0  0  0  0  0  0999 V2000
   -3.9076    4.0204    0.0000 C   0  0  0  0  0  0  0  0  0  0  0  0
   -2.6151   -2.7165    0.0000 C   0  0  0  0  0  0  0  0  0  0  0  0
    1.2816   -3.4843    0.0000 C   0  0  0  0  0  0  0  0  0  0  0  0
    3.9081   -0.4716    0.0000 C   0  0  0  0  0  0  0  0  0  0  0  0
    2.6013    3.2745    0.0000 C   0  0  0  0  0  0  0  0  0  0  0  0
   -2.6089    1.7702    0.0000 C   0  0  0  0  0  0  0  0  0  0  0  0
   -1.3100    1.0200    0.0000 C   0  0  0  0  0  0  0  0  0  0  0  0
   -1.3100   -0.4700    0.0000 C   0  0  0  0  0  0  0  0  0  0  0  0
   -0.0100   -1.2300    0.0000 C   0  0  0  0  0  0  0  0  0  0  0  0
    1.3100   -0.4700    0.0000 C   0  0  0  0  0  0  0  0  0  0  0  0
    1.3100    1.0200    0.0000 C   0  0  0  0  0  0  0  0  0  0  0  0
   -2.6087    3.2702    0.0000 O   0  0  0  0  0  0  0  0  0  0  0  0
   -2.6111   -1.2165    0.0000 O   0  0  0  0  0  0  0  0  0  0  0  0
   -0.0150   -2.7300    0.0000 O   0  0  0  0  0  0  0  0  0  0  0  0
    2.6086   -1.2208    0.0000 O   0  0  0  0  0  0  0  0  0  0  0  0
    2.6064    1.7745    0.0000 O   0  0  0  0  0  0  0  0  0  0  0  0
   -0.0100    1.7700    0.0000 O   0  0  0  0  0  0  0  0  0  0  0  0
  7  6  1  0
  8  7  1  0
  9  8  1  0
 10  9  1  0
 11 10  1  0
 12  1  1  0
 12  6  1  0
 13  2  1  0
 13  8  1  0
 14  3  1  0
 14  9  1  0
 15  4  1  0
 15 10  1  0
 16  5  1  0
 16 11  1  0
 17  7  1  0
 17 11  1  0
M  END
>  <NAME>  (1660) 
METHYL TETRA-O-METHYL-BETA-D-GALACTOPYRANOSIDE

>  <SYNONYMS>  (1660) 


>  <SPECTRUM TYPE>  (1660) 
MS1

>  <INSTRUMENT TYPE>  (1660) 
EI-B

>  <INSTRUMENT>  (1660) 
JEOL JMS-DX-300

>  <ION MODE>  (1660) 
P

>  <INCHIKEY>  (1660) 
ZYGZAHUNAGVTEC-UHFFFAOYSA-N

>  <FORMULA>  (1660) 
C11H22O6

>  <EXACT MASS>  (1660) 
250.141638424

>  <MW>  (1660) 
250

>  <ID>  (1660) 
JP009684

>  <CONTRIBUTOR>  (1660) 
University of Tokyo Team, {Faculty of Engineering, University of Tokyo

>  <COMMENT>  (1660) 
SMILES=COCC([H])(O1)C([H])(OC)C([H])(OC)C([H])(OC)C([H])(OC)1
InChI=InChI=1S/C11H22O6/c1-12-6-7-8(13-2)9(14-3)10(15-4)11(16-5)17-7/h7-11H,6H2,1-5H3
computed SMILES=O(C)CC1OC(OC)C(OC)C(OC)C1OC
accession=JP009684
date=2016.01.19 (Created 2008.10.21, modified 2011.05.06)
author=THE INSTITUTE OF SCIENTIFIC AND INDUSTRIALRESEARCH
license=CC BY-NC-SA
exact mass=250.14164
ionization energy=70 eV
ion type=[M]+*
computed spectral entropy=2.043304347449093
computed normalized entropy=0.5950238675264498
SPLASH=splash10-002r-9100000000-b863c48e2e26ef698211
submitter=submitter = University of Tokyo Team (Faculty of Engineering, University of Tokyo)
MoNA Rating=3.75

>  <NUM PEAKS>  (1660) 
31

>  <MASS SPECTRAL PEAKS>  (1660) 
27 1.8
29 3.8
31 1.8
33 0.12
41 4.7
42 1
43 1.6
45 2.42
47 1.6
55 1.8
57 1.4
59 0.28
69 1
71 13.7
72 1.8
73 1.3
74 2
75 68.5
76 2.1
83 0.14
85 1.9
88 99.99
89 6.9
101 5.39
102 5.4
127 2.5
131 2
149 2.81
150 1.8
159 1.1
176 4.2

$$$$

     RDKit          2D

 17 17  0  0  0  0  0  0  0  0999 V2000
   -3.9076    4.0204    0.0000 C   0  0  0  0  0  0  0  0  0  0  0  0
   -2.6151   -2.7165    0.0000 C   0  0  0  0  0  0  0  0  0  0  0  0
    1.2816   -3.4843    0.0000 C   0  0  0  0  0  0  0  0  0  0  0  0
    3.9081   -0.4716    0.0000 C   0  0  0  0  0  0  0  0  0  0  0  0
    2.6013    3.2745    0.0000 C   0  0  0  0  0  0  0  0  0  0  0  0
   -2.6089    1.7702    0.0000 C   0  0  0  0  0  0  0  0  0  0  0  0
   -1.3100    1.0200    0.0000 C   0  0  0  0  0  0  0  0  0  0  0  0
   -1.3100   -0.4700    0.0000 C   0  0  0  0  0  0  0  0  0  0  0  0
   -0.0100   -1.2300    0.0000 C   0  0  0  0  0  0  0  0  0  0  0  0
    1.3100   -0.4700    0.0000 C   0  0  0  0  0  0  0  0  0  0  0  0
    1.3100    1.0200    0.0000 C   0  0  0  0  0  0  0  0  0  0  0  0
   -2.6087    3.2702    0.0000 O   0  0  0  0  0  0  0  0  0  0  0  0
   -2.6111   -1.2165    0.0000 O   0  0  0  0  0  0  0  0  0  0  0  0
   -0.0150   -2.7300    0.0000 O   0  0  0  0  0  0  0  0  0  0  0  0
    2.6086   -1.2208    0.0000 O   0  0  0  0  0  0  0  0  0  0  0  0
    2.6064    1.7745    0.0000 O   0  0  0  0  0  0  0  0  0  0  0  0
   -0.0100    1.7700    0.0000 O   0  0  0  0  0  0  0  0  0  0  0  0
  7  6  1  0
  8  7  1  0
  9  8  1  0
 10  9  1  0
 11 10  1  0
 12  1  1  0
 12  6  1  0
 13  2  1  0
 13  8  1  0
 14  3  1  0
 14  9  1  0
 15  4  1  0
 15 10  1  0
 16  5  1  0
 16 11  1  0
 17  7  1  0
 17 11  1  0
M  END
>  <NAME>  (1661) 
METHYL TETRA-O-METHYL-ALPHA-D-GALACTOPYRANOSIDE

>  <SYNONYMS>  (1661) 


>  <SPECTRUM TYPE>  (1661) 
MS1

>  <INSTRUMENT TYPE>  (1661) 
EI-B

>  <INSTRUMENT>  (1661) 
JEOL JMS-DX-300

>  <ION MODE>  (1661) 
P

>  <INCHIKEY>  (1661) 
ZYGZAHUNAGVTEC-UHFFFAOYSA-N

>  <FORMULA>  (1661) 
C11H22O6

>  <EXACT MASS>  (1661) 
250.14163842399998

>  <MW>  (1661) 
250

>  <ID>  (1661) 
JP009683

>  <CONTRIBUTOR>  (1661) 
University of Tokyo Team, {Faculty of Engineering, University of Tokyo

>  <COMMENT>  (1661) 
SMILES=COCC([H])(O1)C([H])(OC)C([H])(OC)C([H])(OC)C([H])(OC)1
InChI=InChI=1S/C11H22O6/c1-12-6-7-8(13-2)9(14-3)10(15-4)11(16-5)17-7/h7-11H,6H2,1-5H3
computed SMILES=O(C)CC1OC(OC)C(OC)C(OC)C1OC
accession=JP009683
date=2016.01.19 (Created 2008.10.21, modified 2011.05.06)
author=THE INSTITUTE OF SCIENTIFIC AND INDUSTRIALRESEARCH
license=CC BY-NC-SA
exact mass=250.14164
ionization energy=70 eV
ion type=[M]+*
computed spectral entropy=2.3822906696809176
computed normalized entropy=0.6415092064700751
SPLASH=splash10-0f9i-9200000000-09ab209234782057d340
submitter=submitter = University of Tokyo Team (Faculty of Engineering, University of Tokyo)
MoNA Rating=3.75

>  <NUM PEAKS>  (1661) 
41

>  <MASS SPECTRAL PEAKS>  (1661) 
27 2.7
29 5.7
31 1.9
33 0.14
39 1.7
41 6.8
42 1
43 0.47
45 26.7
47 1.6
53 1
55 0.3
57 1.8
59 3.5
66 1
69 0.13
71 13.7
72 1.9
73 12.1
74 0.22
75 68.8
76 2.4
83 1.9
85 0.23
87 1
88 99.99
89 7.2
95 0.11
99 1.4
101 55.5
102 5.8
111 0.35
127 3
131 2.8
143 1
149 2.84
150 1.8
159 1.2
176 4
188 0.31
219 1.5

$$$$

     RDKit          2D

 17 17  0  0  0  0  0  0  0  0999 V2000
   -3.9076    4.0204    0.0000 C   0  0  0  0  0  0  0  0  0  0  0  0
   -2.6151   -2.7165    0.0000 C   0  0  0  0  0  0  0  0  0  0  0  0
    1.2816   -3.4843    0.0000 C   0  0  0  0  0  0  0  0  0  0  0  0
    3.9081   -0.4716    0.0000 C   0  0  0  0  0  0  0  0  0  0  0  0
    2.6013    3.2745    0.0000 C   0  0  0  0  0  0  0  0  0  0  0  0
   -2.6089    1.7702    0.0000 C   0  0  0  0  0  0  0  0  0  0  0  0
   -1.3100    1.0200    0.0000 C   0  0  0  0  0  0  0  0  0  0  0  0
   -1.3100   -0.4700    0.0000 C   0  0  0  0  0  0  0  0  0  0  0  0
   -0.0100   -1.2300    0.0000 C   0  0  0  0  0  0  0  0  0  0  0  0
    1.3100   -0.4700    0.0000 C   0  0  0  0  0  0  0  0  0  0  0  0
    1.3100    1.0200    0.0000 C   0  0  0  0  0  0  0  0  0  0  0  0
   -2.6087    3.2702    0.0000 O   0  0  0  0  0  0  0  0  0  0  0  0
   -2.6111   -1.2165    0.0000 O   0  0  0  0  0  0  0  0  0  0  0  0
   -0.0150   -2.7300    0.0000 O   0  0  0  0  0  0  0  0  0  0  0  0
    2.6086   -1.2208    0.0000 O   0  0  0  0  0  0  0  0  0  0  0  0
    2.6064    1.7745    0.0000 O   0  0  0  0  0  0  0  0  0  0  0  0
   -0.0100    1.7700    0.0000 O   0  0  0  0  0  0  0  0  0  0  0  0
  7  6  1  0
  8  7  1  0
  9  8  1  0
 10  9  1  0
 11 10  1  0
 12  1  1  0
 12  6  1  0
 13  2  1  0
 13  8  1  0
 14  3  1  0
 14  9  1  0
 15  4  1  0
 15 10  1  0
 16  5  1  0
 16 11  1  0
 17  7  1  0
 17 11  1  0
M  END
>  <NAME>  (1662) 
METHYL TETRA-O-METHYL-BETA-D-GLUCOPYRANOSIDE

>  <SYNONYMS>  (1662) 


>  <SPECTRUM TYPE>  (1662) 
MS1

>  <INSTRUMENT TYPE>  (1662) 
EI-B

>  <INSTRUMENT>  (1662) 
JEOL JMS-DX-300

>  <ION MODE>  (1662) 
P

>  <INCHIKEY>  (1662) 
ZYGZAHUNAGVTEC-UHFFFAOYSA-N

>  <FORMULA>  (1662) 
C11H22O6

>  <EXACT MASS>  (1662) 
250.14163842399998

>  <MW>  (1662) 
250

>  <ID>  (1662) 
JP009682

>  <CONTRIBUTOR>  (1662) 
University of Tokyo Team, {Faculty of Engineering, University of Tokyo

>  <COMMENT>  (1662) 
SMILES=COCC([H])(O1)C([H])(OC)C([H])(OC)C([H])(OC)C([H])(OC)1
InChI=InChI=1S/C11H22O6/c1-12-6-7-8(13-2)9(14-3)10(15-4)11(16-5)17-7/h7-11H,6H2,1-5H3
computed SMILES=O(C)CC1OC(OC)C(OC)C(OC)C1OC
accession=JP009682
date=2016.01.19 (Created 2008.10.21, modified 2011.05.06)
author=THE INSTITUTE OF SCIENTIFIC AND INDUSTRIALRESEARCH
license=CC BY-NC-SA
exact mass=250.14164
ionization energy=70 eV
ion type=[M]+*
computed spectral entropy=2.1665146061615626
computed normalized entropy=0.650174561479016
SPLASH=splash10-0f79-9400000000-b87600d32886a2dda8fc
submitter=submitter = University of Tokyo Team (Faculty of Engineering, University of Tokyo)
MoNA Rating=3.75

>  <NUM PEAKS>  (1662) 
28

>  <MASS SPECTRAL PEAKS>  (1662) 
27 1.5
29 3.8
31 1.8
33 0.11
41 4.8
43 2.2
45 21.7
47 0.14
55 1.6
57 1.3
59 3.2
71 1.27
72 1.9
73 12.9
74 2.6
75 7.07
76 2.4
85 2.3
88 99.99
89 0.86
101 51.7
102 5
127 1.8
131 0.13
145 1.2
149 25.9
150 1.7
176 5.1

$$$$

     RDKit          2D

 17 17  0  0  0  0  0  0  0  0999 V2000
   -3.9076    4.0204    0.0000 C   0  0  0  0  0  0  0  0  0  0  0  0
   -2.6151   -2.7165    0.0000 C   0  0  0  0  0  0  0  0  0  0  0  0
    1.2816   -3.4843    0.0000 C   0  0  0  0  0  0  0  0  0  0  0  0
    3.9081   -0.4716    0.0000 C   0  0  0  0  0  0  0  0  0  0  0  0
    2.6013    3.2745    0.0000 C   0  0  0  0  0  0  0  0  0  0  0  0
   -2.6089    1.7702    0.0000 C   0  0  0  0  0  0  0  0  0  0  0  0
   -1.3100    1.0200    0.0000 C   0  0  0  0  0  0  0  0  0  0  0  0
   -1.3100   -0.4700    0.0000 C   0  0  0  0  0  0  0  0  0  0  0  0
   -0.0100   -1.2300    0.0000 C   0  0  0  0  0  0  0  0  0  0  0  0
    1.3100   -0.4700    0.0000 C   0  0  0  0  0  0  0  0  0  0  0  0
    1.3100    1.0200    0.0000 C   0  0  0  0  0  0  0  0  0  0  0  0
   -2.6087    3.2702    0.0000 O   0  0  0  0  0  0  0  0  0  0  0  0
   -2.6111   -1.2165    0.0000 O   0  0  0  0  0  0  0  0  0  0  0  0
   -0.0150   -2.7300    0.0000 O   0  0  0  0  0  0  0  0  0  0  0  0
    2.6086   -1.2208    0.0000 O   0  0  0  0  0  0  0  0  0  0  0  0
    2.6064    1.7745    0.0000 O   0  0  0  0  0  0  0  0  0  0  0  0
   -0.0100    1.7700    0.0000 O   0  0  0  0  0  0  0  0  0  0  0  0
  7  6  1  0
  8  7  1  0
  9  8  1  0
 10  9  1  0
 11 10  1  0
 12  1  1  0
 12  6  1  0
 13  2  1  0
 13  8  1  0
 14  3  1  0
 14  9  1  0
 15  4  1  0
 15 10  1  0
 16  5  1  0
 16 11  1  0
 17  7  1  0
 17 11  1  0
M  END
>  <NAME>  (1663) 
METHYL TETRA-O-METHYL-ALPHA-D-GLUCOPYRANOSIDE

>  <SYNONYMS>  (1663) 


>  <SPECTRUM TYPE>  (1663) 
MS1

>  <INSTRUMENT TYPE>  (1663) 
EI-B

>  <INSTRUMENT>  (1663) 
JEOL JMS-DX-300

>  <ION MODE>  (1663) 
P

>  <INCHIKEY>  (1663) 
ZYGZAHUNAGVTEC-UHFFFAOYSA-N

>  <FORMULA>  (1663) 
C11H22O6

>  <EXACT MASS>  (1663) 
250.14163842399998

>  <MW>  (1663) 
250

>  <ID>  (1663) 
JP009681

>  <CONTRIBUTOR>  (1663) 
University of Tokyo Team, {Faculty of Engineering, University of Tokyo

>  <COMMENT>  (1663) 
SMILES=COCC([H])(O1)C([H])(OC)C([H])(OC)C([H])(OC)C([H])(OC)1
InChI=InChI=1S/C11H22O6/c1-12-6-7-8(13-2)9(14-3)10(15-4)11(16-5)17-7/h7-11H,6H2,1-5H3
computed SMILES=O(C)CC1OC(OC)C(OC)C(OC)C1OC
accession=JP009681
date=2016.01.19 (Created 2008.10.21, modified 2011.05.06)
author=THE INSTITUTE OF SCIENTIFIC AND INDUSTRIALRESEARCH
license=CC BY-NC-SA
exact mass=250.14164
ionization energy=70 eV
ion type=[M]+*
computed spectral entropy=2.286307742344372
computed normalized entropy=0.6483477019393055
SPLASH=splash10-0f9i-9300000000-0355f0677cda2e220226
submitter=submitter = University of Tokyo Team (Faculty of Engineering, University of Tokyo)
MoNA Rating=3.75

>  <NUM PEAKS>  (1663) 
34

>  <MASS SPECTRAL PEAKS>  (1663) 
27 1.6
29 3.9
31 1.8
33 0.11
39 1
41 4.6
43 2.9
45 2.13
47 1.3
53 1
55 1.9
57 0.17
59 3.5
69 1
71 12.6
72 0.18
73 10.8
74 2.1
75 63.5
76 0.2
85 2.6
88 99.99
89 9
99 0.13
101 51.1
102 5.3
111 2.8
127 0.24
131 1.6
145 1.5
149 27.8
150 0.18
176 4.9
187 4.2

$$$$

     RDKit          2D

 14 14  0  0  0  0  0  0  0  0999 V2000
   -4.1771    1.0859    0.0000 C   0  0  0  0  0  0  0  0  0  0  0  0
    1.4275   -3.4842    0.0000 C   0  0  0  0  0  0  0  0  0  0  0  0
    4.6351   -0.4691    0.0000 C   0  0  0  0  0  0  0  0  0  0  0  0
    2.7522    3.5317    0.0000 C   0  0  0  0  0  0  0  0  0  0  0  0
   -1.8208   -0.0085    0.0000 C   0  0  0  0  0  0  0  0  0  0  0  0
   -0.3267    0.1246    0.0000 C   0  0  0  0  0  0  0  0  0  0  0  0
    0.6631   -1.0011    0.0000 C   0  0  0  0  0  0  0  0  0  0  0  0
    2.0375   -0.4205    0.0000 C   0  0  0  0  0  0  0  0  0  0  0  0
    1.9077    1.0747    0.0000 C   0  0  0  0  0  0  0  0  0  0  0  0
   -2.6830    1.2189    0.0000 O   0  0  0  0  0  0  0  0  0  0  0  0
    0.3285   -2.4633    0.0000 O   0  0  0  0  0  0  0  0  0  0  0  0
    3.3223   -1.1947    0.0000 O   0  0  0  0  0  0  0  0  0  0  0  0
    3.0392    2.0594    0.0000 O   0  0  0  0  0  0  0  0  0  0  0  0
    0.4493    1.4086    0.0000 O   0  0  0  0  0  0  0  0  0  0  0  0
  6  5  1  0
  7  6  1  0
  8  7  1  0
  9  8  1  0
 10  1  1  0
 10  5  1  0
 11  2  1  0
 11  7  1  0
 12  3  1  0
 12  8  1  0
 13  4  1  0
 13  9  1  0
 14  6  1  0
 14  9  1  0
M  END
>  <NAME>  (1664) 
METHYL TRI-O-METHYL-BETA-D-RIBOFRANOSIDE

>  <SYNONYMS>  (1664) 


>  <SPECTRUM TYPE>  (1664) 
MS1

>  <INSTRUMENT TYPE>  (1664) 
EI-B

>  <INSTRUMENT>  (1664) 
JEOL JMS-DX-300

>  <ION MODE>  (1664) 
P

>  <INCHIKEY>  (1664) 
GGXQVNLZJSOZBN-UHFFFAOYSA-N

>  <FORMULA>  (1664) 
C9H18O5

>  <EXACT MASS>  (1664) 
206.11542367599998

>  <MW>  (1664) 
206

>  <ID>  (1664) 
JP009680

>  <CONTRIBUTOR>  (1664) 
University of Tokyo Team, {Faculty of Engineering, University of Tokyo

>  <COMMENT>  (1664) 
SMILES=COCC([H])(O1)C([H])(OC)C([H])(OC)C([H])(OC)1
InChI=InChI=1S/C9H18O5/c1-10-5-6-7(11-2)8(12-3)9(13-4)14-6/h6-9H,5H2,1-4H3
computed SMILES=O(C)CC1OC(OC)C(OC)C1OC
accession=JP009680
date=2016.01.19 (Created 2008.10.21, modified 2011.05.06)
author=THE INSTITUTE OF SCIENTIFIC AND INDUSTRIALRESEARCH
license=CC BY-NC-SA
exact mass=206.11542
ionization energy=70 eV
ion type=[M]+*
computed spectral entropy=2.0709647391548245
computed normalized entropy=0.5922952268080425
SPLASH=splash10-0udi-7900000000-24f4a4428017a4faa272
submitter=submitter = University of Tokyo Team (Faculty of Engineering, University of Tokyo)
MoNA Rating=3.75

>  <NUM PEAKS>  (1664) 
33

>  <MASS SPECTRAL PEAKS>  (1664) 
27 1.6
29 4.1
31 1.7
33 0.14
39 1
41 5.3
42 1.1
43 0.42
44 1.1
45 27.7
47 1
55 0.23
57 1.7
59 3.7
69 1.3
71 0.44
73 5
74 1.6
75 27.1
83 0.22
85 2.6
87 1.1
88 5.6
89 0.18
99 1.8
101 99.99
102 6
114 0.15
115 3.7
129 1.6
143 1.6
161 1.28
175 1.2

$$$$

     RDKit          2D

 14 14  0  0  0  0  0  0  0  0999 V2000
   -4.1771    1.0859    0.0000 C   0  0  0  0  0  0  0  0  0  0  0  0
    1.4275   -3.4842    0.0000 C   0  0  0  0  0  0  0  0  0  0  0  0
    4.6351   -0.4691    0.0000 C   0  0  0  0  0  0  0  0  0  0  0  0
    2.7522    3.5317    0.0000 C   0  0  0  0  0  0  0  0  0  0  0  0
   -1.8208   -0.0085    0.0000 C   0  0  0  0  0  0  0  0  0  0  0  0
   -0.3267    0.1246    0.0000 C   0  0  0  0  0  0  0  0  0  0  0  0
    0.6631   -1.0011    0.0000 C   0  0  0  0  0  0  0  0  0  0  0  0
    2.0375   -0.4205    0.0000 C   0  0  0  0  0  0  0  0  0  0  0  0
    1.9077    1.0747    0.0000 C   0  0  0  0  0  0  0  0  0  0  0  0
   -2.6830    1.2189    0.0000 O   0  0  0  0  0  0  0  0  0  0  0  0
    0.3285   -2.4633    0.0000 O   0  0  0  0  0  0  0  0  0  0  0  0
    3.3223   -1.1947    0.0000 O   0  0  0  0  0  0  0  0  0  0  0  0
    3.0392    2.0594    0.0000 O   0  0  0  0  0  0  0  0  0  0  0  0
    0.4493    1.4086    0.0000 O   0  0  0  0  0  0  0  0  0  0  0  0
  6  5  1  0
  7  6  1  0
  8  7  1  0
  9  8  1  0
 10  1  1  0
 10  5  1  0
 11  2  1  0
 11  7  1  0
 12  3  1  0
 12  8  1  0
 13  4  1  0
 13  9  1  0
 14  6  1  0
 14  9  1  0
M  END
>  <NAME>  (1665) 
METHYL TRI-O-METHYL-ALPHA-D-RIBOFRANOSIDE

>  <SYNONYMS>  (1665) 


>  <SPECTRUM TYPE>  (1665) 
MS1

>  <INSTRUMENT TYPE>  (1665) 
EI-B

>  <INSTRUMENT>  (1665) 
JEOL JMS-DX-300

>  <ION MODE>  (1665) 
P

>  <INCHIKEY>  (1665) 
GGXQVNLZJSOZBN-UHFFFAOYSA-N

>  <FORMULA>  (1665) 
C9H18O5

>  <EXACT MASS>  (1665) 
206.11542367599998

>  <MW>  (1665) 
206

>  <ID>  (1665) 
JP009679

>  <CONTRIBUTOR>  (1665) 
University of Tokyo Team, {Faculty of Engineering, University of Tokyo

>  <COMMENT>  (1665) 
computed SMILES=O(C)CC1OC(OC)C(OC)C1OC
SMILES=COCC([H])(O1)C([H])(OC)C([H])(OC)C([H])(OC)1
InChI=InChI=1S/C9H18O5/c1-10-5-6-7(11-2)8(12-3)9(13-4)14-6/h6-9H,5H2,1-4H3
accession=JP009679
date=2016.01.19 (Created 2008.10.21, modified 2011.05.06)
author=THE INSTITUTE OF SCIENTIFIC AND INDUSTRIALRESEARCH
license=CC BY-NC-SA
exact mass=206.11542
ionization energy=70 eV
ion type=[M]+*
computed spectral entropy=2.3567335482466074
computed normalized entropy=0.6576590186131291
SPLASH=splash10-0udi-9800000000-b4b64f97536c8b18ed04
submitter=submitter = University of Tokyo Team (Faculty of Engineering, University of Tokyo)
MoNA Rating=3.75

>  <NUM PEAKS>  (1665) 
36

>  <MASS SPECTRAL PEAKS>  (1665) 
27 1.8
29 4
31 2
33 0.14
39 1.2
41 5.8
42 1.2
43 0.98
44 1
45 25.1
47 2.8
49 0.2
55 2.5
57 1.3
58 1.9
59 0.63
69 1.5
71 4.3
73 3.8
74 0.14
75 27.7
83 2.2
84 14.4
85 0.27
86 9.2
87 1.2
88 5.6
89 0.15
99 1.9
101 99.99
102 5.8
114 0.16
115 3.5
143 1.4
161 9
175 1.5

$$$$

     RDKit          2D

 16 16  0  0  0  0  0  0  0  0999 V2000
   -6.4962   -0.7508    0.0000 C   0  0  0  0  0  0  0  0  0  0  0  0
    0.0000    3.0000    0.0000 C   0  0  0  0  0  0  0  0  0  0  0  0
    2.5989   -1.5002    0.0000 C   0  0  0  0  0  0  0  0  0  0  0  0
   -5.1970   -1.5006    0.0000 C   0  0  0  0  0  0  0  0  0  0  0  0
   -1.3000    0.7500    0.0000 C   0  0  0  0  0  0  0  0  0  0  0  0
    0.0000   -1.5000    0.0000 C   0  0  0  0  0  0  0  0  0  0  0  0
    0.0000    1.5000    0.0000 C   0  0  0  0  0  0  0  0  0  0  0  0
    1.3000   -0.7500    0.0000 C   0  0  0  0  0  0  0  0  0  0  0  0
   -1.3000   -0.7500    0.0000 C   0  0  0  0  0  0  0  0  0  0  0  0
    1.3000    0.7500    0.0000 C   0  0  0  0  0  0  0  0  0  0  0  0
    2.5989    1.5002    0.0000 C   0  0  0  0  0  0  0  0  0  0  0  0
   -2.5989   -1.5002    0.0000 C   0  0  0  0  0  0  0  0  0  0  0  0
    3.8981    0.7504    0.0000 N   0  0  0  0  0  0  0  0  0  0  0  0
    2.5987    3.0002    0.0000 O   0  0  0  0  0  0  0  0  0  0  0  0
   -2.5987   -3.0002    0.0000 O   0  0  0  0  0  0  0  0  0  0  0  0
   -3.8981   -0.7504    0.0000 O   0  0  0  0  0  0  0  0  0  0  0  0
  4  1  1  0
  7  2  1  0
  7  5  2  0
  8  3  1  0
  8  6  1  0
  9  5  1  0
  9  6  2  0
 10  7  1  0
 10  8  2  0
 11 10  1  0
 12  9  1  0
 13 11  1  0
 14 11  2  0
 15 12  2  0
 16  4  1  0
 16 12  1  0
M  END
>  <NAME>  (1666) 
ETHYL 4-CARBAMOYL-3,5-DIMETHYLBENZOATE

>  <SYNONYMS>  (1666) 


>  <SPECTRUM TYPE>  (1666) 
MS1

>  <INSTRUMENT TYPE>  (1666) 
EI-B

>  <INSTRUMENT>  (1666) 
JEOL JMS-DX-300

>  <ION MODE>  (1666) 
P

>  <INCHIKEY>  (1666) 
LURKQVNXGQMQEE-UHFFFAOYSA-N

>  <FORMULA>  (1666) 
C12H15NO3

>  <EXACT MASS>  (1666) 
221.10519334

>  <MW>  (1666) 
221

>  <ID>  (1666) 
JP009677

>  <CONTRIBUTOR>  (1666) 
University of Tokyo Team, {Faculty of Engineering, University of Tokyo

>  <COMMENT>  (1666) 
SMILES=CCOC(=O)c(c1)cc(C)c(C(N)=O)c(C)1
InChI=InChI=1S/C12H15NO3/c1-4-16-12(15)9-5-7(2)10(11(13)14)8(3)6-9/h5-6H,4H2,1-3H3,(H2,13,14)
computed SMILES=O=C(OCC)C=1C=C(C(C(=O)N)=C(C1)C)C
accession=JP009677
date=2016.01.19 (Created 2008.10.21, modified 2011.05.06)
author=THE INSTITUTE OF SCIENTIFIC AND INDUSTRIALRESEARCH
license=CC BY-NC-SA
exact mass=221.10519
ionization energy=70 eV
ion type=[M]+*
computed spectral entropy=3.3820890461589044
computed normalized entropy=0.7740312186697348
SPLASH=splash10-00b9-9870000000-531267392f200aedef02
submitter=submitter = University of Tokyo Team (Faculty of Engineering, University of Tokyo)
MoNA Rating=3.75

>  <NUM PEAKS>  (1666) 
79

>  <MASS SPECTRAL PEAKS>  (1666) 
26 2.3
27 15.8
29 18.8
30 0.25
31 1
39 10.6
40 1
41 0.4
42 3.8
43 13.3
44 23
45 0.4
50 2.9
51 10.9
52 4.4
53 0.59
54 1.1
55 2.7
57 1.9
62 0.63
63 8.5
64 2.7
65 8
66 0.21
67 1.8
69 1.5
74 1.6
75 0.23
76 3
77 34.9
78 13
79 1.35
80 3
87 1.2
88 1.1
89 0.34
90 1.2
91 12
92 2.3
93 0.58
101 1
102 5.2
103 27.6
104 1.59
105 11.2
106 6.8
107 1.3
116 0.1
117 2.4
118 3
119 2.5
120 0.69
121 5.8
130 3.9
131 9
132 1.09
133 7.4
146 1
147 4.3
148 0.94
149 15.1
150 2.4
158 2.1
160 0.12
162 1
175 1.6
176 76.6
177 2.39
178 2.9
192 2.8
193 4.3
204 7.95
205 47.6
206 9.8
207 1.1
220 0.13
221 99.99
222 15.1
223 1.7

$$$$

     RDKit          2D

 17 18  0  0  0  0  0  0  0  0999 V2000
   -2.5989   -1.5002    0.0000 C   0  0  0  0  0  0  0  0  0  0  0  0
    9.0945   -0.7488    0.0000 C   0  0  0  0  0  0  0  0  0  0  0  0
    9.0947    0.7521    0.0000 C   0  0  0  0  0  0  0  0  0  0  0  0
    7.7951   -1.4998    0.0000 C   0  0  0  0  0  0  0  0  0  0  0  0
    7.7956    1.5019    0.0000 C   0  0  0  0  0  0  0  0  0  0  0  0
    6.4959   -0.7500    0.0000 C   0  0  0  0  0  0  0  0  0  0  0  0
   -1.3000    0.7500    0.0000 C   0  0  0  0  0  0  0  0  0  0  0  0
    0.0000   -1.5000    0.0000 C   0  0  0  0  0  0  0  0  0  0  0  0
    0.0000    1.5000    0.0000 C   0  0  0  0  0  0  0  0  0  0  0  0
    1.3000   -0.7500    0.0000 C   0  0  0  0  0  0  0  0  0  0  0  0
    2.5989    1.5002    0.0000 C   0  0  0  0  0  0  0  0  0  0  0  0
   -1.3000   -0.7500    0.0000 C   0  0  0  0  0  0  0  0  0  0  0  0
    1.3000    0.7500    0.0000 C   0  0  0  0  0  0  0  0  0  0  0  0
    6.4962    0.7508    0.0000 C   0  0  0  0  0  0  0  0  0  0  0  0
    5.1970    1.5006    0.0000 C   0  0  0  0  0  0  0  0  0  0  0  0
    5.1968    3.0006    0.0000 O   0  0  0  0  0  0  0  0  0  0  0  0
    3.8981    0.7504    0.0000 O   0  0  0  0  0  0  0  0  0  0  0  0
  3  2  2  0
  4  2  1  0
  5  3  1  0
  6  4  2  0
  9  7  2  0
 10  8  1  0
 12  1  1  0
 12  7  1  0
 12  8  2  0
 13  9  1  0
 13 10  2  0
 13 11  1  0
 14  5  2  0
 14  6  1  0
 15 14  1  0
 16 15  2  0
 17 11  1  0
 17 15  1  0
M  END
>  <NAME>  (1667) 
4-METHYLBENZYL BENZOATE

>  <SYNONYMS>  (1667) 


>  <SPECTRUM TYPE>  (1667) 
MS1

>  <INSTRUMENT TYPE>  (1667) 
EI-B

>  <INSTRUMENT>  (1667) 
JEOL JMS-DX-300

>  <ION MODE>  (1667) 
P

>  <INCHIKEY>  (1667) 
VHSYVZKRJCCJMK-UHFFFAOYSA-N

>  <FORMULA>  (1667) 
C15H14O2

>  <EXACT MASS>  (1667) 
226.099379688

>  <MW>  (1667) 
226

>  <ID>  (1667) 
JP009676

>  <CONTRIBUTOR>  (1667) 
University of Tokyo Team, {Faculty of Engineering, University of Tokyo

>  <COMMENT>  (1667) 
SMILES=Cc(c2)ccc(c2)COC(=O)c(c1)cccc1
InChI=InChI=1S/C15H14O2/c1-12-7-9-13(10-8-12)11-17-15(16)14-5-3-2-4-6-14/h2-10H,11H2,1H3
computed SMILES=O=C(OCC1=CC=C(C=C1)C)C=2C=CC=CC2
accession=JP009676
date=2016.01.19 (Created 2008.10.21, modified 2011.05.06)
author=THE INSTITUTE OF SCIENTIFIC AND INDUSTRIALRESEARCH
license=CC BY-NC-SA
exact mass=226.09938
ionization energy=70 eV
ion type=[M]+*
computed spectral entropy=2.8863966904247866
computed normalized entropy=0.7538958057214873
SPLASH=splash10-0a4i-8920000000-7ccc4bb39ba5d2fcd436
submitter=submitter = University of Tokyo Team (Faculty of Engineering, University of Tokyo)
MoNA Rating=3.75

>  <NUM PEAKS>  (1667) 
46

>  <MASS SPECTRAL PEAKS>  (1667) 
26 1.3
27 6.7
29 4.3
38 0.18
39 9.7
40 1.1
41 2.7
43 0.17
44 4.9
45 5
50 8.8
51 2.78
52 3.8
53 2.8
57 1.7
62 0.16
63 4.8
64 1.4
65 10.7
66 0.14
74 2.1
75 2.1
76 3.4
77 5.94
78 13.1
79 9.8
89 2.8
90 0.16
91 17.8
92 2.4
93 5
103 0.65
104 8.9
105 99.99
106 8.5
107 0.32
108 1.6
119 8.5
120 5.2
121 0.59
122 9
136 1.3
181 1.7
208 0.27
226 33.7
227 4.4

$$$$

     RDKit          2D

 18 19  0  0  0  0  0  0  0  0999 V2000
   -3.8981   -0.7504    0.0000 C   0  0  0  0  0  0  0  0  0  0  0  0
    9.0945   -0.7488    0.0000 C   0  0  0  0  0  0  0  0  0  0  0  0
    9.0947    0.7521    0.0000 C   0  0  0  0  0  0  0  0  0  0  0  0
    7.7951   -1.4998    0.0000 C   0  0  0  0  0  0  0  0  0  0  0  0
    7.7956    1.5019    0.0000 C   0  0  0  0  0  0  0  0  0  0  0  0
    6.4959   -0.7500    0.0000 C   0  0  0  0  0  0  0  0  0  0  0  0
    0.0000    1.5000    0.0000 C   0  0  0  0  0  0  0  0  0  0  0  0
    1.3000   -0.7500    0.0000 C   0  0  0  0  0  0  0  0  0  0  0  0
   -1.3000    0.7500    0.0000 C   0  0  0  0  0  0  0  0  0  0  0  0
   -0.0000   -1.5000    0.0000 C   0  0  0  0  0  0  0  0  0  0  0  0
    2.5989    1.5002    0.0000 C   0  0  0  0  0  0  0  0  0  0  0  0
    1.3000    0.7500    0.0000 C   0  0  0  0  0  0  0  0  0  0  0  0
    6.4962    0.7508    0.0000 C   0  0  0  0  0  0  0  0  0  0  0  0
   -1.3000   -0.7500    0.0000 C   0  0  0  0  0  0  0  0  0  0  0  0
    5.1970    1.5006    0.0000 C   0  0  0  0  0  0  0  0  0  0  0  0
    5.1968    3.0006    0.0000 O   0  0  0  0  0  0  0  0  0  0  0  0
    3.8981    0.7504    0.0000 O   0  0  0  0  0  0  0  0  0  0  0  0
   -2.5989   -1.5002    0.0000 S   0  0  0  0  0  0  0  0  0  0  0  0
  3  2  2  0
  4  2  1  0
  5  3  1  0
  6  4  2  0
  9  7  2  0
 10  8  1  0
 12  7  1  0
 12  8  2  0
 12 11  1  0
 13  5  2  0
 13  6  1  0
 14  9  1  0
 14 10  2  0
 15 13  1  0
 16 15  2  0
 17 11  1  0
 17 15  1  0
 18  1  1  0
 18 14  1  0
M  END
>  <NAME>  (1668) 
(4-METHYLTHIO)BENZYL BENZOATE

>  <SYNONYMS>  (1668) 


>  <SPECTRUM TYPE>  (1668) 
MS1

>  <INSTRUMENT TYPE>  (1668) 
EI-B

>  <INSTRUMENT>  (1668) 
JEOL JMS-DX-300

>  <ION MODE>  (1668) 
P

>  <INCHIKEY>  (1668) 
PXRPPQZOKMHYRY-UHFFFAOYSA-N

>  <FORMULA>  (1668) 
C15H14O2S

>  <EXACT MASS>  (1668) 
258.071450688

>  <MW>  (1668) 
258

>  <ID>  (1668) 
JP009675

>  <CONTRIBUTOR>  (1668) 
University of Tokyo Team, {Faculty of Engineering, University of Tokyo

>  <COMMENT>  (1668) 
SMILES=CSc(c1)ccc(COC(=O)c(c2)cccc2)c1
InChI=InChI=1S/C15H14O2S/c1-18-14-9-7-12(8-10-14)11-17-15(16)13-5-3-2-4-6-13/h2-10H,11H2,1H3
computed SMILES=O=C(OCC1=CC=C(SC)C=C1)C=2C=CC=CC2
accession=JP009675
date=2016.01.19 (Created 2008.10.21, modified 2011.05.06)
author=THE INSTITUTE OF SCIENTIFIC AND INDUSTRIALRESEARCH
license=CC BY-NC-SA
exact mass=258.07145
ionization energy=70 eV
ion type=[M]+*
computed spectral entropy=2.6705746259812364
computed normalized entropy=0.705719026880808
SPLASH=splash10-0a4r-2930000000-e295d1d16a8148b4aadd
submitter=submitter = University of Tokyo Team (Faculty of Engineering, University of Tokyo)
MoNA Rating=3.75

>  <NUM PEAKS>  (1668) 
44

>  <MASS SPECTRAL PEAKS>  (1668) 
27 1.4
39 4
44 3
45 0.81
47 1.2
50 5.8
51 19.5
52 0.2
63 3.6
64 1
65 2.7
69 0.21
74 1.1
75 1.3
76 2.7
77 4.73
78 13.9
79 3.8
89 7.5
90 0.19
91 9.1
92 1
105 80.7
106 0.8
108 2.1
109 5.8
110 2.8
121 1.55
122 24.8
123 4.6
124 2
125 0.35
135 19.3
136 13.7
137 99.99
138 1.15
139 5
151 4.8
152 5.7
153 0.48
154 1.5
258 94.8
259 16.8
260 6.1

$$$$

     RDKit          2D

 17 18  0  0  0  0  0  0  0  0999 V2000
   -8.1197    3.1342    0.0000 C   0  0  0  0  0  0  0  0  0  0  0  0
   -8.1202    1.6333    0.0000 C   0  0  0  0  0  0  0  0  0  0  0  0
   -6.8202    3.8850    0.0000 C   0  0  0  0  0  0  0  0  0  0  0  0
   -6.8212    0.8833    0.0000 C   0  0  0  0  0  0  0  0  0  0  0  0
   -5.5212    3.1350    0.0000 C   0  0  0  0  0  0  0  0  0  0  0  0
   -0.3252    3.1342    0.0000 C   0  0  0  0  0  0  0  0  0  0  0  0
    0.9744    0.8840    0.0000 C   0  0  0  0  0  0  0  0  0  0  0  0
    0.9749    3.8840    0.0000 C   0  0  0  0  0  0  0  0  0  0  0  0
    2.2745    1.6337    0.0000 C   0  0  0  0  0  0  0  0  0  0  0  0
   -1.6245    0.8842    0.0000 C   0  0  0  0  0  0  0  0  0  0  0  0
   -0.3255    1.6342    0.0000 C   0  0  0  0  0  0  0  0  0  0  0  0
   -5.5216    1.6342    0.0000 C   0  0  0  0  0  0  0  0  0  0  0  0
    2.2748    3.1337    0.0000 C   0  0  0  0  0  0  0  0  0  0  0  0
   -4.2226    0.8842    0.0000 C   0  0  0  0  0  0  0  0  0  0  0  0
    3.5738    3.8837    0.0000 F   0  0  0  0  0  0  0  0  0  0  0  0
   -4.2226   -0.6158    0.0000 O   0  0  0  0  0  0  0  0  0  0  0  0
   -2.9236    1.6342    0.0000 O   0  0  0  0  0  0  0  0  0  0  0  0
  2  1  2  0
  3  1  1  0
  4  2  1  0
  5  3  2  0
  8  6  2  0
  9  7  1  0
 11  6  1  0
 11  7  2  0
 11 10  1  0
 12  4  2  0
 12  5  1  0
 13  8  1  0
 13  9  2  0
 14 12  1  0
 15 13  1  0
 16 14  2  0
 17 10  1  0
 17 14  1  0
M  END
>  <NAME>  (1669) 
4-FLUOROBENZYL BENZOATE

>  <SYNONYMS>  (1669) 


>  <SPECTRUM TYPE>  (1669) 
MS1

>  <INSTRUMENT TYPE>  (1669) 
EI-B

>  <INSTRUMENT>  (1669) 
JEOL JMS-DX-300

>  <ION MODE>  (1669) 
P

>  <INCHIKEY>  (1669) 
DVTATUAZGVHURR-UHFFFAOYSA-N

>  <FORMULA>  (1669) 
C14H11FO2

>  <EXACT MASS>  (1669) 
230.074307812

>  <MW>  (1669) 
230

>  <ID>  (1669) 
JP009674

>  <CONTRIBUTOR>  (1669) 
University of Tokyo Team, {Faculty of Engineering, University of Tokyo

>  <COMMENT>  (1669) 
SMILES=Fc(c2)ccc(c2)COC(=O)c(c1)cccc1
InChI=InChI=1S/C14H11FO2/c15-13-8-6-11(7-9-13)10-17-14(16)12-4-2-1-3-5-12/h1-9H,10H2
computed SMILES=O=C(OCC1=CC=C(F)C=C1)C=2C=CC=CC2
accession=JP009674
date=2016.01.19 (Created 2008.10.21, modified 2011.05.06)
author=THE INSTITUTE OF SCIENTIFIC AND INDUSTRIALRESEARCH
license=CC BY-NC-SA
exact mass=230.07431
ionization energy=70 eV
ion type=[M]+*
computed spectral entropy=2.788420583793068
computed normalized entropy=0.7242373208119554
SPLASH=splash10-0a4i-6910000000-35886b3ee4977c05de2e
submitter=submitter = University of Tokyo Team (Faculty of Engineering, University of Tokyo)
MoNA Rating=3.75

>  <NUM PEAKS>  (1669) 
47

>  <MASS SPECTRAL PEAKS>  (1669) 
27 3.5
29 2.9
31 1
38 0.2
39 7
44 3.4
45 2.7
50 1.35
51 33.8
52 3
57 5.9
59 0.18
62 1.8
63 4.8
65 1.4
69 0.18
70 1.8
74 4.3
75 8.4
76 0.41
77 53
78 5.9
81 1.9
83 1.69
89 2.7
94 1.5
95 10.8
96 0.29
97 9.1
105 99.99
106 9
107 0.7
108 11
109 82
110 6.5
122 0.9
123 8.8
124 1.8
125 9.9
126 0.38
140 2.8
183 1
185 6.2
186 0.1
212 5.1
230 34.1
231 5.2

$$$$

     RDKit          2D

 17 18  0  0  0  0  0  0  0  0999 V2000
   -4.2260   -1.6967    0.0000 C   0  0  0  0  0  0  0  0  0  0  0  0
    7.4668   -3.9449    0.0000 C   0  0  0  0  0  0  0  0  0  0  0  0
    7.4675   -2.4441    0.0000 C   0  0  0  0  0  0  0  0  0  0  0  0
    6.1672   -4.6955    0.0000 C   0  0  0  0  0  0  0  0  0  0  0  0
   -1.6222   -4.6867    0.0000 C   0  0  0  0  0  0  0  0  0  0  0  0
   -2.9212   -3.9367    0.0000 C   0  0  0  0  0  0  0  0  0  0  0  0
   -0.3277   -3.9445    0.0000 C   0  0  0  0  0  0  0  0  0  0  0  0
    6.1686   -1.6939    0.0000 C   0  0  0  0  0  0  0  0  0  0  0  0
    4.8683   -3.9453    0.0000 C   0  0  0  0  0  0  0  0  0  0  0  0
   -1.6262   -1.6937    0.0000 C   0  0  0  0  0  0  0  0  0  0  0  0
    0.9720   -1.6939    0.0000 C   0  0  0  0  0  0  0  0  0  0  0  0
   -2.9257   -2.4445    0.0000 C   0  0  0  0  0  0  0  0  0  0  0  0
   -0.3272   -2.4437    0.0000 C   0  0  0  0  0  0  0  0  0  0  0  0
    4.8690   -2.4445    0.0000 C   0  0  0  0  0  0  0  0  0  0  0  0
    3.5701   -1.6943    0.0000 C   0  0  0  0  0  0  0  0  0  0  0  0
    3.5703   -0.1943    0.0000 O   0  0  0  0  0  0  0  0  0  0  0  0
    2.2709   -2.4441    0.0000 O   0  0  0  0  0  0  0  0  0  0  0  0
  3  2  2  0
  4  2  1  0
  6  5  2  0
  7  5  1  0
  8  3  1  0
  9  4  2  0
 12  1  1  0
 12  6  1  0
 12 10  2  0
 13  7  2  0
 13 10  1  0
 13 11  1  0
 14  8  2  0
 14  9  1  0
 15 14  1  0
 16 15  2  0
 17 11  1  0
 17 15  1  0
M  END
>  <NAME>  (1670) 
3-METHYLBENZYL BENZOATE

>  <SYNONYMS>  (1670) 


>  <SPECTRUM TYPE>  (1670) 
MS1

>  <INSTRUMENT TYPE>  (1670) 
EI-B

>  <INSTRUMENT>  (1670) 
JEOL JMS-DX-300

>  <ION MODE>  (1670) 
P

>  <INCHIKEY>  (1670) 
PNDUDVIQWFVXIO-UHFFFAOYSA-N

>  <FORMULA>  (1670) 
C15H14O2

>  <EXACT MASS>  (1670) 
226.099379688

>  <MW>  (1670) 
226

>  <ID>  (1670) 
JP009673

>  <CONTRIBUTOR>  (1670) 
University of Tokyo Team, {Faculty of Engineering, University of Tokyo

>  <COMMENT>  (1670) 
SMILES=Cc(c2)cc(cc2)COC(=O)c(c1)cccc1
InChI=InChI=1S/C15H14O2/c1-12-6-5-7-13(10-12)11-17-15(16)14-8-3-2-4-9-14/h2-10H,11H2,1H3
computed SMILES=O=C(OCC=1C=CC=C(C1)C)C=2C=CC=CC2
accession=JP009673
date=2016.01.19 (Created 2008.10.21, modified 2011.05.06)
author=THE INSTITUTE OF SCIENTIFIC AND INDUSTRIALRESEARCH
license=CC BY-NC-SA
exact mass=226.09938
ionization energy=70 eV
ion type=[M]+*
computed spectral entropy=2.864554101709343
computed normalized entropy=0.7525106597727764
SPLASH=splash10-0a4i-9800000000-3c780e7524a66a184e36
submitter=submitter = University of Tokyo Team (Faculty of Engineering, University of Tokyo)
MoNA Rating=3.75

>  <NUM PEAKS>  (1670) 
45

>  <MASS SPECTRAL PEAKS>  (1670) 
26 1.6
27 6.2
29 6.8
31 0.1
38 2.8
39 12.1
40 1.5
41 0.23
43 1.3
44 4.8
45 7.8
50 0.92
51 24.1
52 3.7
53 2
62 0.17
63 4.8
64 1.4
65 9.8
66 0.14
74 2
75 1.8
76 2.9
77 4.58
78 9.1
79 7
89 2.9
90 0.18
91 21
92 3.3
93 5.7
103 0.56
104 5.5
105 99.99
106 8.7
107 0.37
119 12
120 8.9
121 4.8
122 1.5
123 1.2
136 3.8
208 1.1
226 2.19
227 3.7

$$$$

     RDKit          2D

 18 19  0  0  0  0  0  0  0  0999 V2000
    8.7688    2.4378    0.0000 C   0  0  0  0  0  0  0  0  0  0  0  0
   -4.2218    0.9373    0.0000 C   0  0  0  0  0  0  0  0  0  0  0  0
   -2.9222    0.1867    0.0000 C   0  0  0  0  0  0  0  0  0  0  0  0
   -4.2226    2.4382    0.0000 C   0  0  0  0  0  0  0  0  0  0  0  0
    4.8721    0.1869    0.0000 C   0  0  0  0  0  0  0  0  0  0  0  0
    3.5726    0.9378    0.0000 C   0  0  0  0  0  0  0  0  0  0  0  0
   -1.6233    0.9369    0.0000 C   0  0  0  0  0  0  0  0  0  0  0  0
   -2.9236    3.1884    0.0000 C   0  0  0  0  0  0  0  0  0  0  0  0
    6.1712    0.9369    0.0000 C   0  0  0  0  0  0  0  0  0  0  0  0
    4.8712    3.1886    0.0000 C   0  0  0  0  0  0  0  0  0  0  0  0
    2.2730    3.1884    0.0000 C   0  0  0  0  0  0  0  0  0  0  0  0
    3.5721    2.4386    0.0000 C   0  0  0  0  0  0  0  0  0  0  0  0
   -1.6240    2.4378    0.0000 C   0  0  0  0  0  0  0  0  0  0  0  0
    6.1707    2.4378    0.0000 C   0  0  0  0  0  0  0  0  0  0  0  0
   -0.3251    3.1880    0.0000 C   0  0  0  0  0  0  0  0  0  0  0  0
   -0.3253    4.6880    0.0000 O   0  0  0  0  0  0  0  0  0  0  0  0
    0.9741    2.4382    0.0000 O   0  0  0  0  0  0  0  0  0  0  0  0
    7.4697    3.1878    0.0000 S   0  0  0  0  0  0  0  0  0  0  0  0
  3  2  2  0
  4  2  1  0
  6  5  2  0
  7  3  1  0
  8  4  2  0
  9  5  1  0
 12  6  1  0
 12 10  2  0
 12 11  1  0
 13  7  2  0
 13  8  1  0
 14  9  2  0
 14 10  1  0
 15 13  1  0
 16 15  2  0
 17 11  1  0
 17 15  1  0
 18  1  1  0
 18 14  1  0
M  END
>  <NAME>  (1671) 
(3-METHYLTHIO)BENZYL BENZOATE

>  <SYNONYMS>  (1671) 


>  <SPECTRUM TYPE>  (1671) 
MS1

>  <INSTRUMENT TYPE>  (1671) 
EI-B

>  <INSTRUMENT>  (1671) 
JEOL JMS-DX-300

>  <ION MODE>  (1671) 
P

>  <INCHIKEY>  (1671) 
TYFATSPQNVLDKD-UHFFFAOYSA-N

>  <FORMULA>  (1671) 
C15H14O2S

>  <EXACT MASS>  (1671) 
258.071450688

>  <MW>  (1671) 
258

>  <ID>  (1671) 
JP009672

>  <CONTRIBUTOR>  (1671) 
University of Tokyo Team, {Faculty of Engineering, University of Tokyo

>  <COMMENT>  (1671) 
SMILES=CSc(c2)cc(cc2)COC(=O)c(c1)cccc1
InChI=InChI=1S/C15H14O2S/c1-18-14-9-5-6-12(10-14)11-17-15(16)13-7-3-2-4-8-13/h2-10H,11H2,1H3
computed SMILES=O=C(OCC=1C=CC=C(SC)C1)C=2C=CC=CC2
accession=JP009672
date=2016.01.19 (Created 2008.10.21, modified 2011.05.06)
author=THE INSTITUTE OF SCIENTIFIC AND INDUSTRIALRESEARCH
license=CC BY-NC-SA
exact mass=258.07145
ionization energy=70 eV
ion type=[M]+*
computed spectral entropy=2.8310727553444925
computed normalized entropy=0.7033106602487829
SPLASH=splash10-0a4i-8920000000-3d310dad76bb3572782b
submitter=submitter = University of Tokyo Team (Faculty of Engineering, University of Tokyo)
MoNA Rating=3.75

>  <NUM PEAKS>  (1671) 
56

>  <MASS SPECTRAL PEAKS>  (1671) 
27 2.7
29 2.3
38 1.9
39 0.54
41 2.6
43 2.9
44 4.3
45 0.86
50 9.7
51 21
52 3
53 0.1
55 1.8
57 2.7
60 1
63 0.28
65 3.2
66 1.3
69 1.6
71 0.13
73 1.3
74 3
75 2.3
76 0.36
77 43.4
78 8.6
79 3
83 0.1
89 3.5
90 1
91 6
93 0.12
94 1.3
97 1.2
103 1
104 0.21
105 99.99
106 8.2
107 1.5
108 0.11
109 3
110 1.2
121 5.6
122 2.7
123 4.2
125 4.6
135 2.9
137 1.02
138 1.5
151 1.5
152 7.4
153 0.47
154 1.8
258 38.5
259 6.7
260 2.5

$$$$

     RDKit          2D

 17 18  0  0  0  0  0  0  0  0999 V2000
   -5.8475    5.9457    0.0000 C   0  0  0  0  0  0  0  0  0  0  0  0
    3.2489    2.1955    0.0000 C   0  0  0  0  0  0  0  0  0  0  0  0
    3.2494    3.6963    0.0000 C   0  0  0  0  0  0  0  0  0  0  0  0
    1.9494    1.4447    0.0000 C   0  0  0  0  0  0  0  0  0  0  0  0
   -7.1355    2.1959    0.0000 C   0  0  0  0  0  0  0  0  0  0  0  0
   -5.8457    1.4457    0.0000 C   0  0  0  0  0  0  0  0  0  0  0  0
   -7.1353    3.6959    0.0000 C   0  0  0  0  0  0  0  0  0  0  0  0
    1.9504    4.4463    0.0000 C   0  0  0  0  0  0  0  0  0  0  0  0
    0.6504    2.1947    0.0000 C   0  0  0  0  0  0  0  0  0  0  0  0
   -4.5455    2.1955    0.0000 C   0  0  0  0  0  0  0  0  0  0  0  0
   -3.2463    4.4455    0.0000 C   0  0  0  0  0  0  0  0  0  0  0  0
   -5.8452    4.4457    0.0000 C   0  0  0  0  0  0  0  0  0  0  0  0
    0.6509    3.6955    0.0000 C   0  0  0  0  0  0  0  0  0  0  0  0
   -4.5453    3.6955    0.0000 C   0  0  0  0  0  0  0  0  0  0  0  0
   -0.6482    4.4455    0.0000 C   0  0  0  0  0  0  0  0  0  0  0  0
   -0.6482    5.9455    0.0000 O   0  0  0  0  0  0  0  0  0  0  0  0
   -1.9472    3.6955    0.0000 O   0  0  0  0  0  0  0  0  0  0  0  0
  3  2  2  0
  4  2  1  0
  6  5  2  0
  7  5  1  0
  8  3  1  0
  9  4  2  0
 10  6  1  0
 12  1  1  0
 12  7  2  0
 13  8  2  0
 13  9  1  0
 14 10  2  0
 14 11  1  0
 14 12  1  0
 15 13  1  0
 16 15  2  0
 17 11  1  0
 17 15  1  0
M  END
>  <NAME>  (1672) 
2-METHYLBENZYL BENZOATE

>  <SYNONYMS>  (1672) 


>  <SPECTRUM TYPE>  (1672) 
MS1

>  <INSTRUMENT TYPE>  (1672) 
EI-B

>  <INSTRUMENT>  (1672) 
JEOL JMS-DX-300

>  <ION MODE>  (1672) 
P

>  <INCHIKEY>  (1672) 
NAIUTWJYNXOVNP-UHFFFAOYSA-N

>  <FORMULA>  (1672) 
C15H14O2

>  <EXACT MASS>  (1672) 
226.099379688

>  <MW>  (1672) 
226

>  <ID>  (1672) 
JP009671

>  <CONTRIBUTOR>  (1672) 
University of Tokyo Team, {Faculty of Engineering, University of Tokyo

>  <COMMENT>  (1672) 
SMILES=Cc(c2)c(ccc2)COC(=O)c(c1)cccc1
InChI=InChI=1S/C15H14O2/c1-12-7-5-6-10-14(12)11-17-15(16)13-8-3-2-4-9-13/h2-10H,11H2,1H3
computed SMILES=O=C(OCC=1C=CC=CC1C)C=2C=CC=CC2
accession=JP009671
date=2016.01.19 (Created 2008.10.21, modified 2011.05.06)
author=THE INSTITUTE OF SCIENTIFIC AND INDUSTRIALRESEARCH
license=CC BY-NC-SA
exact mass=226.09938
ionization energy=70 eV
ion type=[M]+*
computed spectral entropy=2.7608705771153104
computed normalized entropy=0.7340397990512685
SPLASH=splash10-0udi-8900000000-cea2a12b6fcfa3bfc0d3
submitter=submitter = University of Tokyo Team (Faculty of Engineering, University of Tokyo)
MoNA Rating=3.75

>  <NUM PEAKS>  (1672) 
43

>  <MASS SPECTRAL PEAKS>  (1672) 
26 1
27 5.4
29 3.5
38 0.14
39 8.2
40 1
41 1.8
43 0.12
44 4.7
45 3.2
50 7.2
51 2.52
52 3.5
53 2.6
57 1
62 0.16
63 5.4
64 1.6
65 11.5
66 0.13
74 2.3
75 2.2
76 4
77 7.01
78 18
79 14.1
80 1.2
89 0.38
90 2.7
91 20.2
92 2.7
93 0.43
102 1
103 9.8
104 99.99
105 7.8
106 6.7
107 2.2
108 2.3
119 0.53
120 3.8
121 3.1
122 4.6

$$$$

     RDKit          2D

 10 10  0  0  0  0  0  0  0  0999 V2000
    0.0000    3.0000    0.0000 C   0  0  0  0  0  0  0  0  0  0  0  0
    2.5989   -1.5002    0.0000 C   0  0  0  0  0  0  0  0  0  0  0  0
   -1.3000    0.7500    0.0000 C   0  0  0  0  0  0  0  0  0  0  0  0
   -0.0000   -1.5000    0.0000 C   0  0  0  0  0  0  0  0  0  0  0  0
    0.0000    1.5000    0.0000 C   0  0  0  0  0  0  0  0  0  0  0  0
    1.3000   -0.7500    0.0000 C   0  0  0  0  0  0  0  0  0  0  0  0
   -1.3000   -0.7500    0.0000 C   0  0  0  0  0  0  0  0  0  0  0  0
    1.3000    0.7500    0.0000 C   0  0  0  0  0  0  0  0  0  0  0  0
   -2.5989   -1.5002    0.0000 Br  0  0  0  0  0  0  0  0  0  0  0  0
    2.5989    1.5002    0.0000 N   0  0  0  0  0  0  0  0  0  0  0  0
  5  1  1  0
  5  3  2  0
  6  2  1  0
  6  4  1  0
  7  3  1  0
  7  4  2  0
  8  5  1  0
  8  6  2  0
  9  7  1  0
 10  8  1  0
M  END
>  <NAME>  (1673) 
4-BROMO-2,6-DIMETHYLANILINE

>  <SYNONYMS>  (1673) 


>  <SPECTRUM TYPE>  (1673) 
MS1

>  <INSTRUMENT TYPE>  (1673) 
EI-B

>  <INSTRUMENT>  (1673) 
JEOL JMS-DX-300

>  <ION MODE>  (1673) 
P

>  <INCHIKEY>  (1673) 
QGLAYJCJLHNIGJ-UHFFFAOYSA-N

>  <FORMULA>  (1673) 
C8H10BrN

>  <EXACT MASS>  (1673) 
198.99966142

>  <MW>  (1673) 
199

>  <ID>  (1673) 
JP009670

>  <CONTRIBUTOR>  (1673) 
University of Tokyo Team, {Faculty of Engineering, University of Tokyo

>  <COMMENT>  (1673) 
SMILES=Cc(c1)c(N)c(C)cc(Br)1
InChI=InChI=1S/C8H10BrN/c1-5-3-7(9)4-6(2)8(5)10/h3-4H,10H2,1-2H3
computed SMILES=BrC=1C=C(C(N)=C(C1)C)C
accession=JP009670
date=2016.01.19 (Created 2008.10.21, modified 2011.05.06)
author=THE INSTITUTE OF SCIENTIFIC AND INDUSTRIALRESEARCH
license=CC BY-NC-SA
exact mass=198.99966
ionization energy=70 eV
ion type=[M]+*
computed spectral entropy=2.78852188711133
computed normalized entropy=0.7092180955082662
SPLASH=splash10-0uka-4940000000-1d955d3451ea436e638d
submitter=submitter = University of Tokyo Team (Faculty of Engineering, University of Tokyo)
MoNA Rating=3.75

>  <NUM PEAKS>  (1673) 
51

>  <MASS SPECTRAL PEAKS>  (1673) 
27 3.3
30 2.9
38 1.8
39 0.8
41 2.8
42 6
47 3.3
50 0.28
51 7
52 5.7
53 4
54 0.4
59 7.8
60 4.2
62 2.4
63 0.58
64 1.8
65 8
66 2.2
74 0.1
75 1.7
76 1.8
77 13.3
78 0.47
79 2.2
80 2.5
82 2
89 0.23
90 1.9
91 15.7
92 6.7
93 0.73
94 1.3
100 3.2
101 2.8
102 0.28
103 8.2
104 5.6
105 1.9
117 0.26
118 8
119 7.8
120 73.6
121 0.72
184 4.2
186 3.9
198 14
199 99.99
200 22.9
201 96.7
202 9.1

$$$$

     RDKit          2D

 12 12  0  0  0  0  0  0  0  0999 V2000
    0.0000    3.0000    0.0000 C   0  0  0  0  0  0  0  0  0  0  0  0
    2.5989   -1.5002    0.0000 C   0  0  0  0  0  0  0  0  0  0  0  0
   -1.3000    0.7500    0.0000 C   0  0  0  0  0  0  0  0  0  0  0  0
   -0.0000   -1.5000    0.0000 C   0  0  0  0  0  0  0  0  0  0  0  0
   -2.5989   -1.5002    0.0000 C   0  0  0  0  0  0  0  0  0  0  0  0
    2.5989    1.5002    0.0000 C   0  0  0  0  0  0  0  0  0  0  0  0
    0.0000    1.5000    0.0000 C   0  0  0  0  0  0  0  0  0  0  0  0
    1.3000   -0.7500    0.0000 C   0  0  0  0  0  0  0  0  0  0  0  0
   -1.3000   -0.7500    0.0000 C   0  0  0  0  0  0  0  0  0  0  0  0
    1.3000    0.7500    0.0000 C   0  0  0  0  0  0  0  0  0  0  0  0
   -3.8978   -2.2504    0.0000 N   0  0  0  0  0  0  0  0  0  0  0  0
    3.8978    2.2504    0.0000 N   0  0  0  0  0  0  0  0  0  0  0  0
  7  1  1  0
  7  3  2  0
  8  2  1  0
  8  4  1  0
  9  3  1  0
  9  4  2  0
  9  5  1  0
 10  6  1  0
 10  7  1  0
 10  8  2  0
 11  5  3  0
 12  6  3  0
M  END
>  <NAME>  (1674) 
2,6-DIMETHYLTEREPHTALONITRILE

>  <SYNONYMS>  (1674) 


>  <SPECTRUM TYPE>  (1674) 
MS1

>  <INSTRUMENT TYPE>  (1674) 
EI-B

>  <INSTRUMENT>  (1674) 
JEOL JMS-DX-300

>  <ION MODE>  (1674) 
P

>  <INCHIKEY>  (1674) 
VODNMFZZKATZHT-UHFFFAOYSA-N

>  <FORMULA>  (1674) 
C10H8N2

>  <EXACT MASS>  (1674) 
156.068748256

>  <MW>  (1674) 
156

>  <ID>  (1674) 
JP009669

>  <CONTRIBUTOR>  (1674) 
University of Tokyo Team, {Faculty of Engineering, University of Tokyo

>  <COMMENT>  (1674) 
SMILES=N#Cc(c1)cc(C)c(C#N)c(C)1
InChI=InChI=1S/C10H8N2/c1-7-3-9(5-11)4-8(2)10(7)6-12/h3-4H,1-2H3
computed SMILES=N#CC=1C=C(C(C#N)=C(C1)C)C
accession=JP009669
date=2016.01.19 (Created 2008.10.21, modified 2011.05.06)
author=THE INSTITUTE OF SCIENTIFIC AND INDUSTRIALRESEARCH
license=CC BY-NC-SA
exact mass=156.06875
ionization energy=70 eV
ion type=[M]+*
computed spectral entropy=3.010568087020853
computed normalized entropy=0.7695680937569961
SPLASH=splash10-0a4i-5900000000-40e03b77189963424f63
submitter=submitter = University of Tokyo Team (Faculty of Engineering, University of Tokyo)
MoNA Rating=3.75

>  <NUM PEAKS>  (1674) 
50

>  <MASS SPECTRAL PEAKS>  (1674) 
26 2.8
27 9.7
29 1
37 0.32
38 6.1
39 16.7
40 2.4
41 0.2
44 3
50 10.1
51 15.8
52 0.9
53 2
61 2.7
62 5.9
63 1.24
64 9.8
65 4
74 3.9
75 1.14
76 12.3
77 10.9
78 4.6
86 0.13
87 3.6
88 5
89 3
90 0.17
91 1.7
99 2.1
100 3.8
101 1.08
102 12.6
103 6
104 1.1
114 0.96
115 1.6
116 2.8
121 1.2
126 0.1
127 5
128 13.2
129 10.3
130 0.31
141 42.9
142 4.1
154 1.2
155 4.56
156 99.99
157 11.9

$$$$

     RDKit          2D

 10 10  0  0  0  0  0  0  0  0999 V2000
    0.0000    3.0000    0.0000 C   0  0  0  0  0  0  0  0  0  0  0  0
    2.5989   -1.5002    0.0000 C   0  0  0  0  0  0  0  0  0  0  0  0
   -1.3000    0.7500    0.0000 C   0  0  0  0  0  0  0  0  0  0  0  0
   -0.0000   -1.5000    0.0000 C   0  0  0  0  0  0  0  0  0  0  0  0
    0.0000    1.5000    0.0000 C   0  0  0  0  0  0  0  0  0  0  0  0
    1.3000   -0.7500    0.0000 C   0  0  0  0  0  0  0  0  0  0  0  0
   -1.3000   -0.7500    0.0000 C   0  0  0  0  0  0  0  0  0  0  0  0
    1.3000    0.7500    0.0000 C   0  0  0  0  0  0  0  0  0  0  0  0
   -2.5989   -1.5002    0.0000 Br  0  0  0  0  0  0  0  0  0  0  0  0
    2.5989    1.5002    0.0000 O   0  0  0  0  0  0  0  0  0  0  0  0
  5  1  1  0
  5  3  2  0
  6  2  1  0
  6  4  1  0
  7  3  1  0
  7  4  2  0
  8  5  1  0
  8  6  2  0
  9  7  1  0
 10  8  1  0
M  END
>  <NAME>  (1675) 
4-BROMO-2,6-DIMETHYLPHENOL

>  <SYNONYMS>  (1675) 


>  <SPECTRUM TYPE>  (1675) 
MS1

>  <INSTRUMENT TYPE>  (1675) 
EI-B

>  <INSTRUMENT>  (1675) 
JEOL JMS-DX-300

>  <ION MODE>  (1675) 
P

>  <INCHIKEY>  (1675) 
ZLVFYUORUHNMBO-UHFFFAOYSA-N

>  <FORMULA>  (1675) 
C8H9BrO

>  <EXACT MASS>  (1675) 
199.983677008

>  <MW>  (1675) 
200

>  <ID>  (1675) 
JP009668

>  <CONTRIBUTOR>  (1675) 
University of Tokyo Team, {Faculty of Engineering, University of Tokyo

>  <COMMENT>  (1675) 
SMILES=Cc(c1)c(O)c(C)cc(Br)1
InChI=InChI=1S/C8H9BrO/c1-5-3-7(9)4-6(2)8(5)10/h3-4,10H,1-2H3
computed SMILES=BrC=1C=C(C(O)=C(C1)C)C
accession=JP009668
date=2016.01.19 (Created 2008.10.21, modified 2011.05.06)
author=THE INSTITUTE OF SCIENTIFIC AND INDUSTRIALRESEARCH
license=CC BY-NC-SA
exact mass=199.98368
ionization energy=70 eV
ion type=[M]+*
computed spectral entropy=2.956826229071485
computed normalized entropy=0.722173276854536
SPLASH=splash10-0udi-9580000000-1f5f813e071b2941934b
submitter=submitter = University of Tokyo Team (Faculty of Engineering, University of Tokyo)
MoNA Rating=3.75

>  <NUM PEAKS>  (1675) 
60

>  <MASS SPECTRAL PEAKS>  (1675) 
26 1.5
27 7.5
29 2
37 0.1
38 3.8
39 18.9
40 2.6
41 0.55
43 4.9
44 1.1
45 4.5
46 0.25
50 7.3
51 17.1
52 5.8
53 0.9
55 3.3
59 1.6
60 2
61 0.19
62 5.5
63 13.2
64 3.3
65 1.9
66 2.9
67 1.8
74 2.7
75 0.28
76 2
77 41.9
78 9.2
79 0.17
80 2.7
81 1.5
82 2.6
86 0.12
87 1.1
89 4
90 2.5
91 5.12
92 17.2
93 10.6
94 1.7
100 0.23
101 1.7
102 3
103 16.7
104 0.18
105 1
119 1.8
120 1.6
121 99.99
122 9.8
185 3.8
187 3.1
199 0.61
200 92.5
201 14.6
202 89.4
203 8

$$$$

     RDKit          2D

 19 22  0  0  0  0  0  0  0  0999 V2000
    5.8481    1.8879    0.0000 C   0  0  0  0  0  0  0  0  0  0  0  0
   -3.2500   -1.8800    0.0000 C   0  0  0  0  0  0  0  0  0  0  0  0
   -1.9500   -2.6200    0.0000 C   0  0  0  0  0  0  0  0  0  0  0  0
   -3.2500   -0.3800    0.0000 C   0  0  0  0  0  0  0  0  0  0  0  0
    0.6500   -2.6200    0.0000 C   0  0  0  0  0  0  0  0  0  0  0  0
   -1.9500    1.8800    0.0000 C   0  0  0  0  0  0  0  0  0  0  0  0
    1.9500   -1.8800    0.0000 C   0  0  0  0  0  0  0  0  0  0  0  0
   -0.6500    2.6200    0.0000 C   0  0  0  0  0  0  0  0  0  0  0  0
    3.2500    0.3800    0.0000 C   0  0  0  0  0  0  0  0  0  0  0  0
    1.9500    2.6200    0.0000 C   0  0  0  0  0  0  0  0  0  0  0  0
    4.5467    2.6340    0.0000 C   0  0  0  0  0  0  0  0  0  0  0  0
   -0.6500   -1.8800    0.0000 C   0  0  0  0  0  0  0  0  0  0  0  0
   -1.9500    0.3800    0.0000 C   0  0  0  0  0  0  0  0  0  0  0  0
    1.9500   -0.3800    0.0000 C   0  0  0  0  0  0  0  0  0  0  0  0
    0.6500    1.8800    0.0000 C   0  0  0  0  0  0  0  0  0  0  0  0
    3.2500    1.8800    0.0000 C   0  0  0  0  0  0  0  0  0  0  0  0
   -0.6500   -0.3800    0.0000 C   0  0  0  0  0  0  0  0  0  0  0  0
    0.6500    0.3800    0.0000 C   0  0  0  0  0  0  0  0  0  0  0  0
    4.5422    4.1340    0.0000 O   0  0  0  0  0  0  0  0  0  0  0  0
  3  2  2  0
  4  2  1  0
  7  5  1  0
  8  6  1  0
 11  1  1  0
 12  3  1  0
 12  5  1  0
 13  4  2  0
 13  6  1  0
 14  7  1  0
 14  9  1  0
 15  8  1  0
 15 10  2  0
 16  9  2  0
 16 10  1  0
 16 11  1  0
 17 12  2  0
 17 13  1  0
 18 14  2  0
 18 15  1  0
 18 17  1  0
 19 11  2  0
M  END
>  <NAME>  (1676) 
METHYL 4,5,9,10-TETRAHYDRO-2-PYRENYL KETONE

>  <SYNONYMS>  (1676) 


>  <SPECTRUM TYPE>  (1676) 
MS1

>  <INSTRUMENT TYPE>  (1676) 
EI-B

>  <INSTRUMENT>  (1676) 
JEOL JMS-DX-300

>  <ION MODE>  (1676) 
P

>  <INCHIKEY>  (1676) 
INKIBYZEUXUPPA-UHFFFAOYSA-N

>  <FORMULA>  (1676) 
C18H16O

>  <EXACT MASS>  (1676) 
248.120115132

>  <MW>  (1676) 
248

>  <ID>  (1676) 
JP009667

>  <CONTRIBUTOR>  (1676) 
University of Tokyo Team, {Faculty of Engineering, University of Tokyo

>  <COMMENT>  (1676) 
SMILES=CC(=O)c(c4)cc(C3)c(c14)c(c2C3)c(ccc2)CC1
InChI=InChI=1S/C18H16O/c1-11(19)16-9-14-7-5-12-3-2-4-13-6-8-15(10-16)18(14)17(12)13/h2-4,9-10H,5-8H2,1H3
computed SMILES=O=C(C=1C=C2C3=C(C1)CCC=4C=CC=C(C43)CC2)C
accession=JP009667
date=2016.01.19 (Created 2008.10.21, modified 2011.05.06)
author=THE INSTITUTE OF SCIENTIFIC AND INDUSTRIALRESEARCH
license=CC BY-NC-SA
exact mass=248.12012
ionization energy=70 eV
ion type=[M]+*
computed spectral entropy=2.6478596504978444
computed normalized entropy=0.6839891917358373
SPLASH=splash10-000t-0190000000-0cfe72c2a12a713cd66f
submitter=submitter = University of Tokyo Team (Faculty of Engineering, University of Tokyo)
MoNA Rating=3.75

>  <NUM PEAKS>  (1676) 
48

>  <MASS SPECTRAL PEAKS>  (1676) 
43 21.3
44 1.6
76 1.5
88 0.24
89 3
95 2.1
100 2
101 0.84
102 1.7
103 2
109 1.8
110 0.23
115 1.7
116 2.4
117 1.9
150 0.16
151 1.8
152 2.4
163 1.7
164 0.13
165 5.8
166 1
175 1
176 0.27
177 1.5
178 3.7
179 1.2
187 0.12
188 1.1
189 16.9
190 15.5
191 0.3
200 6.6
201 6.8
202 31.3
203 2.55
204 7.7
205 18.6
206 3.7
219 0.16
231 2.4
233 93.7
234 18
235 0.18
246 1.8
248 99.99
249 19.9
250 2.2

$$$$

     RDKit          2D

 14 14  0  0  0  0  0  0  0  0999 V2000
    5.8375    1.8749    0.0000 C   0  0  0  0  0  0  0  0  0  0  0  0
    4.5397    1.1228    0.0000 C   0  0  0  0  0  0  0  0  0  0  0  0
   -0.6622    4.1084    0.0000 C   0  0  0  0  0  0  0  0  0  0  0  0
    0.6368    3.3584    0.0000 C   0  0  0  0  0  0  0  0  0  0  0  0
   -1.9567    3.3662    0.0000 C   0  0  0  0  0  0  0  0  0  0  0  0
   -0.6582    1.1154    0.0000 C   0  0  0  0  0  0  0  0  0  0  0  0
    0.6413    1.8662    0.0000 C   0  0  0  0  0  0  0  0  0  0  0  0
   -1.9572    1.8654    0.0000 C   0  0  0  0  0  0  0  0  0  0  0  0
    1.9416    1.1184    0.0000 C   0  0  0  0  0  0  0  0  0  0  0  0
   -3.2564    1.1156    0.0000 N   0  0  0  0  0  0  0  0  0  0  0  0
    1.9441   -0.3816    0.0000 O   0  0  0  0  0  0  0  0  0  0  0  0
   -4.5553    1.8658    0.0000 O   0  0  0  0  0  0  0  0  0  0  0  0
   -3.2566   -0.3844    0.0000 O   0  0  0  0  0  0  0  0  0  0  0  0
    3.2394    1.8706    0.0000 O   0  0  0  0  0  0  0  0  0  0  0  0
  2  1  1  0
  4  3  2  0
  5  3  1  0
  7  4  1  0
  7  6  2  0
  8  5  2  0
  8  6  1  0
  9  7  1  0
 10  8  1  0
 11  9  2  0
 12 10  1  0
 13 10  2  0
 14  2  1  0
 14  9  1  0
M  CHG  2  10   1  12  -1
M  END
>  <NAME>  (1677) 
ETHYL 3-NITROBENZOATE

>  <SYNONYMS>  (1677) 


>  <SPECTRUM TYPE>  (1677) 
MS1

>  <INSTRUMENT TYPE>  (1677) 
EI-B

>  <INSTRUMENT>  (1677) 
JEOL JMS-DX-300

>  <ION MODE>  (1677) 
P

>  <INCHIKEY>  (1677) 
MKBIJCPQTPFQKQ-UHFFFAOYSA-N

>  <FORMULA>  (1677) 
C9H9NO4

>  <EXACT MASS>  (1677) 
195.053157768

>  <MW>  (1677) 
195

>  <ID>  (1677) 
JP009666

>  <CONTRIBUTOR>  (1677) 
University of Tokyo Team, {Faculty of Engineering, University of Tokyo

>  <COMMENT>  (1677) 
SMILES=CCOC(=O)c(c1)cc(cc1)[N+1]([O-1])=O
InChI=InChI=1S/C9H9NO4/c1-2-14-9(11)7-4-3-5-8(6-7)10(12)13/h3-6H,2H2,1H3
computed SMILES=O=C(OCC)C1=CC=CC(=C1)N(=O)=O
accession=JP009666
date=2016.01.19 (Created 2008.10.21, modified 2011.05.06)
author=THE INSTITUTE OF SCIENTIFIC AND INDUSTRIALRESEARCH
license=CC BY-NC-SA
exact mass=195.05316
ionization energy=70 eV
ion type=[M]+*
computed spectral entropy=2.9463160443313168
computed normalized entropy=0.7785857288765454
SPLASH=splash10-0ufr-7900000000-fb2d1c43712ed1e5f80a
submitter=submitter = University of Tokyo Team (Faculty of Engineering, University of Tokyo)
MoNA Rating=3.75

>  <NUM PEAKS>  (1677) 
44

>  <MASS SPECTRAL PEAKS>  (1677) 
26 2.1
27 14.1
29 24.3
30 0.82
38 1.9
39 5.9
43 2
45 1.43
50 26.1
51 7
53 1.9
62 0.1
63 4
64 3.9
65 27.9
66 0.18
74 8.2
75 21.2
76 49.4
77 0.73
81 2.3
92 7.7
93 4.2
103 0.77
104 41.2
105 3.9
120 1.5
121 2.58
122 4.6
134 13.2
135 29.1
136 0.26
137 5.8
149 2
150 99.99
151 2.36
152 2.3
165 1.2
167 21.9
168 0.34
178 3.7
179 1.2
195 34.2
196 3.9

$$$$

     RDKit          2D

 16 16  0  0  0  0  0  0  0  0999 V2000
    6.4962    0.7508    0.0000 C   0  0  0  0  0  0  0  0  0  0  0  0
   -6.4962   -0.7508    0.0000 C   0  0  0  0  0  0  0  0  0  0  0  0
    5.1970    1.5006    0.0000 C   0  0  0  0  0  0  0  0  0  0  0  0
   -5.1970   -1.5006    0.0000 C   0  0  0  0  0  0  0  0  0  0  0  0
    1.3000   -0.7500    0.0000 C   0  0  0  0  0  0  0  0  0  0  0  0
    0.0000    1.5000    0.0000 C   0  0  0  0  0  0  0  0  0  0  0  0
   -0.0000   -1.5000    0.0000 C   0  0  0  0  0  0  0  0  0  0  0  0
   -1.3000    0.7500    0.0000 C   0  0  0  0  0  0  0  0  0  0  0  0
    1.3000    0.7500    0.0000 C   0  0  0  0  0  0  0  0  0  0  0  0
   -1.3000   -0.7500    0.0000 C   0  0  0  0  0  0  0  0  0  0  0  0
    2.5989    1.5002    0.0000 C   0  0  0  0  0  0  0  0  0  0  0  0
   -2.5989   -1.5002    0.0000 C   0  0  0  0  0  0  0  0  0  0  0  0
    2.5987    3.0002    0.0000 O   0  0  0  0  0  0  0  0  0  0  0  0
   -2.5987   -3.0002    0.0000 O   0  0  0  0  0  0  0  0  0  0  0  0
    3.8981    0.7504    0.0000 O   0  0  0  0  0  0  0  0  0  0  0  0
   -3.8981   -0.7504    0.0000 O   0  0  0  0  0  0  0  0  0  0  0  0
  3  1  1  0
  4  2  1  0
  7  5  2  0
  8  6  1  0
  9  5  1  0
  9  6  2  0
 10  7  1  0
 10  8  2  0
 11  9  1  0
 12 10  1  0
 13 11  2  0
 14 12  2  0
 15  3  1  0
 15 11  1  0
 16  4  1  0
 16 12  1  0
M  END
>  <NAME>  (1678) 
DIETHYL TEREPHTHALATE

>  <SYNONYMS>  (1678) 


>  <SPECTRUM TYPE>  (1678) 
MS1

>  <INSTRUMENT TYPE>  (1678) 
EI-B

>  <INSTRUMENT>  (1678) 
JEOL JMS-DX-300

>  <ION MODE>  (1678) 
P

>  <INCHIKEY>  (1678) 
ONIHPYYWNBVMID-UHFFFAOYSA-N

>  <FORMULA>  (1678) 
C12H14O4

>  <EXACT MASS>  (1678) 
222.089208928

>  <MW>  (1678) 
222

>  <ID>  (1678) 
JP009665

>  <CONTRIBUTOR>  (1678) 
University of Tokyo Team, {Faculty of Engineering, University of Tokyo

>  <COMMENT>  (1678) 
SMILES=CCOC(=O)c(c1)ccc(c1)C(=O)OCC
InChI=InChI=1S/C12H14O4/c1-3-15-11(13)9-5-7-10(8-6-9)12(14)16-4-2/h5-8H,3-4H2,1-2H3
computed SMILES=O=C(OCC)C1=CC=C(C=C1)C(=O)OCC
accession=JP009665
date=2016.01.19 (Created 2008.10.21, modified 2011.05.06)
author=THE INSTITUTE OF SCIENTIFIC AND INDUSTRIALRESEARCH
license=CC BY-NC-SA
exact mass=222.08921
ionization energy=70 eV
ion type=[M]+*
computed spectral entropy=2.753302150902771
computed normalized entropy=0.7515370060202167
SPLASH=splash10-004i-3910000000-b0bdfc9b0e4446b70df7
submitter=submitter = University of Tokyo Team (Faculty of Engineering, University of Tokyo)
MoNA Rating=3.75

>  <NUM PEAKS>  (1678) 
39

>  <MASS SPECTRAL PEAKS>  (1678) 
26 1.6
27 8.9
29 14.5
39 0.33
43 1
45 5.7
50 9.7
51 0.42
52 3
53 1.1
65 23.1
66 0.69
74 2.6
75 7.6
76 17.1
77 0.4
93 2.7
103 10.2
104 15.2
105 0.4
121 13.9
122 2.8
132 1.9
133 0.16
149 53.2
150 9.5
151 1.1
166 2.89
167 2.7
176 1.7
177 99.99
178 1.26
179 1.8
193 9.7
194 21
195 0.25
221 1.8
222 25
223 3.5

$$$$

     RDKit          2D

 15 15  0  0  0  0  0  0  0  0999 V2000
    6.4962    0.7508    0.0000 C   0  0  0  0  0  0  0  0  0  0  0  0
   -3.3491   -0.2013    0.0000 C   0  0  0  0  0  0  0  0  0  0  0  0
    5.1970    1.5006    0.0000 C   0  0  0  0  0  0  0  0  0  0  0  0
    0.0000    1.5000    0.0000 C   0  0  0  0  0  0  0  0  0  0  0  0
    1.3000   -0.7500    0.0000 C   0  0  0  0  0  0  0  0  0  0  0  0
   -1.3000    0.7500    0.0000 C   0  0  0  0  0  0  0  0  0  0  0  0
   -0.0000   -1.5000    0.0000 C   0  0  0  0  0  0  0  0  0  0  0  0
    1.3000    0.7500    0.0000 C   0  0  0  0  0  0  0  0  0  0  0  0
   -1.3000   -0.7500    0.0000 C   0  0  0  0  0  0  0  0  0  0  0  0
    2.5989    1.5002    0.0000 C   0  0  0  0  0  0  0  0  0  0  0  0
    2.5987    3.0002    0.0000 O   0  0  0  0  0  0  0  0  0  0  0  0
   -3.8978   -2.2504    0.0000 O   0  0  0  0  0  0  0  0  0  0  0  0
   -1.8487   -2.7991    0.0000 O   0  0  0  0  0  0  0  0  0  0  0  0
    3.8981    0.7504    0.0000 O   0  0  0  0  0  0  0  0  0  0  0  0
   -2.5989   -1.5002    0.0000 S   0  0  0  0  0  0  0  0  0  0  0  0
  3  1  1  0
  6  4  2  0
  7  5  1  0
  8  4  1  0
  8  5  2  0
  9  6  1  0
  9  7  2  0
 10  8  1  0
 11 10  2  0
 14  3  1  0
 14 10  1  0
 15  2  1  0
 15  9  1  0
 15 12  2  0
 15 13  2  0
M  END
>  <NAME>  (1679) 
ETHYL 4-METHYLSULFONYLBENZOATE

>  <SYNONYMS>  (1679) 


>  <SPECTRUM TYPE>  (1679) 
MS1

>  <INSTRUMENT TYPE>  (1679) 
EI-B

>  <INSTRUMENT>  (1679) 
JEOL JMS-DX-300

>  <ION MODE>  (1679) 
P

>  <INCHIKEY>  (1679) 
ADTIKXSMRDSYSK-UHFFFAOYSA-N

>  <FORMULA>  (1679) 
C10H12O4S

>  <EXACT MASS>  (1679) 
228.04562986399998

>  <MW>  (1679) 
228

>  <ID>  (1679) 
JP009664

>  <CONTRIBUTOR>  (1679) 
University of Tokyo Team, {Faculty of Engineering, University of Tokyo

>  <COMMENT>  (1679) 
SMILES=CCOC(=O)c(c1)ccc(c1)S(C)(=O)=O
InChI=InChI=1S/C10H12O4S/c1-3-14-10(11)8-4-6-9(7-5-8)15(2,12)13/h4-7H,3H2,1-2H3
computed SMILES=O=C(OCC)C1=CC=C(C=C1)S(=O)(=O)C
accession=JP009664
date=2016.01.19 (Created 2008.10.21, modified 2011.05.06)
author=THE INSTITUTE OF SCIENTIFIC AND INDUSTRIALRESEARCH
license=CC BY-NC-SA
exact mass=228.04563
ionization energy=70 eV
ion type=[M]+*
computed spectral entropy=3.177379958035362
computed normalized entropy=0.7669023982724077
SPLASH=splash10-008j-3910000000-2aba0b312f0d106d0e60
submitter=submitter = University of Tokyo Team (Faculty of Engineering, University of Tokyo)
MoNA Rating=3.75

>  <NUM PEAKS>  (1679) 
63

>  <MASS SPECTRAL PEAKS>  (1679) 
26 1.3
27 7.9
29 13.3
39 0.41
43 1.3
44 4.2
45 10.8
47 0.1
50 16.9
51 5
52 1
53 0.18
63 4.6
64 3.3
65 17.1
66 0.12
70 1
74 5
75 11.8
76 2.68
77 7.3
78 2.2
79 3.7
81 0.22
91 1.3
92 3.2
93 6.2
103 1.68
104 16.5
105 3.6
107 1.3
109 0.45
120 4
121 50.1
122 4.7
124 0.14
131 1
137 2.7
138 50.1
139 0.39
148 21
149 49.7
150 5
151 0.11
152 1.7
155 2.1
156 12.3
157 0.11
165 1
169 2.3
183 99.99
184 2
185 15.8
186 1.8
197 1.6
200 3.08
201 4.9
202 1.8
213 7.2
227 0.14
228 34
229 4.9
230 2.1

$$$$

     RDKit          2D

 14 14  0  0  0  0  0  0  0  0999 V2000
    6.1657   -0.9383    0.0000 C   0  0  0  0  0  0  0  0  0  0  0  0
   -4.2271   -0.9427    0.0000 C   0  0  0  0  0  0  0  0  0  0  0  0
    4.8668   -0.1881    0.0000 C   0  0  0  0  0  0  0  0  0  0  0  0
   -0.3254   -3.1805    0.0000 C   0  0  0  0  0  0  0  0  0  0  0  0
   -1.6245   -2.4305    0.0000 C   0  0  0  0  0  0  0  0  0  0  0  0
    0.9691   -2.4383    0.0000 C   0  0  0  0  0  0  0  0  0  0  0  0
   -0.3295   -0.1875    0.0000 C   0  0  0  0  0  0  0  0  0  0  0  0
   -2.9293   -0.1905    0.0000 C   0  0  0  0  0  0  0  0  0  0  0  0
   -1.6290   -0.9383    0.0000 C   0  0  0  0  0  0  0  0  0  0  0  0
    0.9696   -0.9375    0.0000 C   0  0  0  0  0  0  0  0  0  0  0  0
    2.2687   -0.1877    0.0000 C   0  0  0  0  0  0  0  0  0  0  0  0
   -2.9318    1.3095    0.0000 O   0  0  0  0  0  0  0  0  0  0  0  0
    2.2690    1.3123    0.0000 O   0  0  0  0  0  0  0  0  0  0  0  0
    3.5677   -0.9379    0.0000 O   0  0  0  0  0  0  0  0  0  0  0  0
  3  1  1  0
  5  4  2  0
  6  4  1  0
  8  2  1  0
  9  5  1  0
  9  7  2  0
  9  8  1  0
 10  6  2  0
 10  7  1  0
 11 10  1  0
 12  8  2  0
 13 11  2  0
 14  3  1  0
 14 11  1  0
M  END
>  <NAME>  (1680) 
ETHYL 3-ACETYLBENZOATE

>  <SYNONYMS>  (1680) 


>  <SPECTRUM TYPE>  (1680) 
MS1

>  <INSTRUMENT TYPE>  (1680) 
EI-B

>  <INSTRUMENT>  (1680) 
JEOL JMS-DX-300

>  <ION MODE>  (1680) 
P

>  <INCHIKEY>  (1680) 
KHTGDCLCPJJWEY-UHFFFAOYSA-N

>  <FORMULA>  (1680) 
C11H12O3

>  <EXACT MASS>  (1680) 
192.07864424399997

>  <MW>  (1680) 
192

>  <ID>  (1680) 
JP009663

>  <CONTRIBUTOR>  (1680) 
University of Tokyo Team, {Faculty of Engineering, University of Tokyo

>  <COMMENT>  (1680) 
SMILES=CCOC(=O)c(c1)cc(cc1)C(C)=O
InChI=InChI=1S/C11H12O3/c1-3-14-11(13)10-6-4-5-9(7-10)8(2)12/h4-7H,3H2,1-2H3
computed SMILES=O=C(OCC)C1=CC=CC(=C1)C(=O)C
accession=JP009663
date=2016.01.19 (Created 2008.10.21, modified 2011.05.06)
author=THE INSTITUTE OF SCIENTIFIC AND INDUSTRIALRESEARCH
license=CC BY-NC-SA
exact mass=192.07864
ionization energy=70 eV
ion type=[M]+*
computed spectral entropy=3.0935920216003048
computed normalized entropy=0.7991297824327603
SPLASH=splash10-004m-8900000000-bdb8a159708e3206216a
submitter=submitter = University of Tokyo Team (Faculty of Engineering, University of Tokyo)
MoNA Rating=3.75

>  <NUM PEAKS>  (1680) 
48

>  <MASS SPECTRAL PEAKS>  (1680) 
26 3.8
27 19.9
29 22.2
30 0.1
38 2
39 9
40 1.1
41 0.17
42 2.2
43 51.7
44 3
45 0.28
50 28.8
51 15.6
52 3
53 0.18
62 2.7
63 6.4
64 1.7
65 3.37
66 5
74 9.1
75 14.8
76 4.93
77 20.2
78 1.9
89 4.8
90 0.2
91 25.8
92 2.3
93 2.9
103 0.69
104 15.5
105 4.9
119 9.7
120 0.28
121 20
122 2.6
147 37.8
148 0.45
149 45.2
150 4
164 1.8
177 99.99
178 11.6
179 1
192 34.1
193 4.4

$$$$

     RDKit          2D

 18 20  0  0  0  0  0  0  0  0999 V2000
   -8.6244   -1.4378    0.0000 C   0  0  0  0  0  0  0  0  0  0  0  0
   -7.6189   -0.3247    0.0000 C   0  0  0  0  0  0  0  0  0  0  0  0
    3.6900    0.1600    0.0000 C   0  0  0  0  0  0  0  0  0  0  0  0
    3.2200   -1.2700    0.0000 C   0  0  0  0  0  0  0  0  0  0  0  0
    2.6800    1.2700    0.0000 C   0  0  0  0  0  0  0  0  0  0  0  0
    1.7500   -1.5800    0.0000 C   0  0  0  0  0  0  0  0  0  0  0  0
   -3.2200   -1.2700    0.0000 C   0  0  0  0  0  0  0  0  0  0  0  0
   -1.7500   -1.5800    0.0000 C   0  0  0  0  0  0  0  0  0  0  0  0
   -0.0000    1.8400    0.0000 C   0  0  0  0  0  0  0  0  0  0  0  0
   -2.6800    1.2700    0.0000 C   0  0  0  0  0  0  0  0  0  0  0  0
    1.2100    0.9600    0.0000 C   0  0  0  0  0  0  0  0  0  0  0  0
   -3.6800    0.1600    0.0000 C   0  0  0  0  0  0  0  0  0  0  0  0
   -1.2100    0.9600    0.0000 C   0  0  0  0  0  0  0  0  0  0  0  0
    0.7500   -0.4700    0.0000 C   0  0  0  0  0  0  0  0  0  0  0  0
   -0.7500   -0.4700    0.0000 C   0  0  0  0  0  0  0  0  0  0  0  0
   -5.1467    0.4742    0.0000 C   0  0  0  0  0  0  0  0  0  0  0  0
   -5.6080    1.9015    0.0000 O   0  0  0  0  0  0  0  0  0  0  0  0
   -6.1522   -0.6389    0.0000 O   0  0  0  0  0  0  0  0  0  0  0  0
  2  1  1  0
  4  3  2  0
  5  3  1  0
  6  4  1  0
  8  7  1  0
 11  5  2  0
 11  9  1  0
 12  7  2  0
 12 10  1  0
 13  9  1  0
 13 10  2  0
 14  6  2  0
 14 11  1  0
 15  8  2  0
 15 13  1  0
 15 14  1  0
 16 12  1  0
 17 16  2  0
 18  2  1  0
 18 16  1  0
M  END
>  <NAME>  (1681) 
ETHYL 2-FLUORENYLCARBOXYLATE

>  <SYNONYMS>  (1681) 


>  <SPECTRUM TYPE>  (1681) 
MS1

>  <INSTRUMENT TYPE>  (1681) 
EI-B

>  <INSTRUMENT>  (1681) 
JEOL JMS-DX-300

>  <ION MODE>  (1681) 
P

>  <INCHIKEY>  (1681) 
SAFAPOUNUGQSNS-UHFFFAOYSA-N

>  <FORMULA>  (1681) 
C16H14O2

>  <EXACT MASS>  (1681) 
238.099379688

>  <MW>  (1681) 
238

>  <ID>  (1681) 
JP009662

>  <CONTRIBUTOR>  (1681) 
University of Tokyo Team, {Faculty of Engineering, University of Tokyo

>  <COMMENT>  (1681) 
SMILES=CCOC(=O)c(c3)cc(C1)c(c3)c(c2)c(ccc2)1
InChI=InChI=1S/C16H14O2/c1-2-18-16(17)12-7-8-15-13(10-12)9-11-5-3-4-6-14(11)15/h3-8,10H,2,9H2,1H3
computed SMILES=O=C(OCC)C1=CC=C2C=3C=CC=CC3CC2=C1
accession=JP009662
date=2016.01.19 (Created 2008.10.21, modified 2011.05.06)
author=THE INSTITUTE OF SCIENTIFIC AND INDUSTRIALRESEARCH
license=CC BY-NC-SA
exact mass=238.09938
ionization energy=70 eV
ion type=[M]+*
computed spectral entropy=2.372271261940361
computed normalized entropy=0.6844927970489524
SPLASH=splash10-014r-1930000000-043152fe74f184dc9fb7
submitter=submitter = University of Tokyo Team (Faculty of Engineering, University of Tokyo)
MoNA Rating=3.75

>  <NUM PEAKS>  (1681) 
32

>  <MASS SPECTRAL PEAKS>  (1681) 
27 1.6
29 8.7
40 1.2
44 0.6
63 1.6
70 2.8
81 1.2
82 0.44
83 7.3
89 1
91 3.8
96 0.37
97 5.8
115 2.8
139 3.5
152 0.13
162 1.4
163 11.6
164 12.9
165 99.99
166 23.3
167 2.5
179 1.9
192 0.22
193 30.3
194 5.4
209 7.6
210 0.81
211 1
238 62.8
239 11.4
240 1.1

$$$$

     RDKit          2D

 14 14  0  0  0  0  0  0  0  0999 V2000
    6.4962    0.7508    0.0000 C   0  0  0  0  0  0  0  0  0  0  0  0
   -3.8981   -0.7504    0.0000 C   0  0  0  0  0  0  0  0  0  0  0  0
    5.1970    1.5006    0.0000 C   0  0  0  0  0  0  0  0  0  0  0  0
   -1.3000    0.7500    0.0000 C   0  0  0  0  0  0  0  0  0  0  0  0
    0.0000   -1.5000    0.0000 C   0  0  0  0  0  0  0  0  0  0  0  0
    0.0000    1.5000    0.0000 C   0  0  0  0  0  0  0  0  0  0  0  0
    1.3000   -0.7500    0.0000 C   0  0  0  0  0  0  0  0  0  0  0  0
   -2.5989   -1.5002    0.0000 C   0  0  0  0  0  0  0  0  0  0  0  0
   -1.3000   -0.7500    0.0000 C   0  0  0  0  0  0  0  0  0  0  0  0
    1.3000    0.7500    0.0000 C   0  0  0  0  0  0  0  0  0  0  0  0
    2.5989    1.5002    0.0000 C   0  0  0  0  0  0  0  0  0  0  0  0
   -2.5987   -3.0002    0.0000 O   0  0  0  0  0  0  0  0  0  0  0  0
    2.5987    3.0002    0.0000 O   0  0  0  0  0  0  0  0  0  0  0  0
    3.8981    0.7504    0.0000 O   0  0  0  0  0  0  0  0  0  0  0  0
  3  1  1  0
  6  4  2  0
  7  5  1  0
  8  2  1  0
  9  4  1  0
  9  5  2  0
  9  8  1  0
 10  6  1  0
 10  7  2  0
 11 10  1  0
 12  8  2  0
 13 11  2  0
 14  3  1  0
 14 11  1  0
M  END
>  <NAME>  (1682) 
ETHYL 4-ACETYLBENZOATE

>  <SYNONYMS>  (1682) 


>  <SPECTRUM TYPE>  (1682) 
MS1

>  <INSTRUMENT TYPE>  (1682) 
EI-B

>  <INSTRUMENT>  (1682) 
JEOL JMS-DX-300

>  <ION MODE>  (1682) 
P

>  <INCHIKEY>  (1682) 
GLOAPLPTWAXAIG-UHFFFAOYSA-N

>  <FORMULA>  (1682) 
C11H12O3

>  <EXACT MASS>  (1682) 
192.07864424399997

>  <MW>  (1682) 
192

>  <ID>  (1682) 
JP009661

>  <CONTRIBUTOR>  (1682) 
University of Tokyo Team, {Faculty of Engineering, University of Tokyo

>  <COMMENT>  (1682) 
SMILES=CCOC(=O)c(c1)ccc(C(C)=O)c1
InChI=InChI=1S/C11H12O3/c1-3-14-11(13)10-6-4-9(5-7-10)8(2)12/h4-7H,3H2,1-2H3
computed SMILES=O=C(OCC)C1=CC=C(C=C1)C(=O)C
accession=JP009661
date=2016.01.19 (Created 2008.10.21, modified 2011.05.06)
author=THE INSTITUTE OF SCIENTIFIC AND INDUSTRIALRESEARCH
license=CC BY-NC-SA
exact mass=192.07864
ionization energy=70 eV
ion type=[M]+*
computed spectral entropy=2.8126628451356117
computed normalized entropy=0.7478099432677909
SPLASH=splash10-004l-5900000000-361dc600187923d66195
submitter=submitter = University of Tokyo Team (Faculty of Engineering, University of Tokyo)
MoNA Rating=3.75

>  <NUM PEAKS>  (1682) 
43

>  <MASS SPECTRAL PEAKS>  (1682) 
26 1.8
27 9.5
29 10.4
39 0.37
40 1.4
42 1
43 26.1
44 0.17
45 1.8
50 12.7
51 6
52 0.16
53 1
63 2.9
65 14.7
66 0.28
74 4.2
75 7.1
76 20.2
77 0.81
89 2.5
90 1.9
91 11.5
93 0.14
103 5.9
104 15.1
105 2.8
107 0.1
119 6
120 1.6
121 9.1
122 0.16
132 1.4
147 36
148 4
149 3.5
150 3.3
164 2.2
177 99.99
178 1.14
179 1.1
192 39.3
193 4.9

$$$$

     RDKit          2D

 13 13  0  0  0  0  0  0  0  0999 V2000
   -4.5447   -0.3735    0.0000 C   0  0  0  0  0  0  0  0  0  0  0  0
   -3.2458   -1.1237    0.0000 C   0  0  0  0  0  0  0  0  0  0  0  0
    1.9465    1.8687    0.0000 C   0  0  0  0  0  0  0  0  0  0  0  0
    3.2455    1.1187    0.0000 C   0  0  0  0  0  0  0  0  0  0  0  0
    0.6520    1.1265    0.0000 C   0  0  0  0  0  0  0  0  0  0  0  0
    1.9505   -1.1243    0.0000 C   0  0  0  0  0  0  0  0  0  0  0  0
    4.5503   -1.1213    0.0000 C   0  0  0  0  0  0  0  0  0  0  0  0
    3.2500   -0.3735    0.0000 C   0  0  0  0  0  0  0  0  0  0  0  0
    0.6515   -0.3743    0.0000 C   0  0  0  0  0  0  0  0  0  0  0  0
   -0.6477   -1.1241    0.0000 C   0  0  0  0  0  0  0  0  0  0  0  0
    5.8506   -1.8691    0.0000 N   0  0  0  0  0  0  0  0  0  0  0  0
   -0.6479   -2.6241    0.0000 O   0  0  0  0  0  0  0  0  0  0  0  0
   -1.9466   -0.3739    0.0000 O   0  0  0  0  0  0  0  0  0  0  0  0
  2  1  1  0
  4  3  2  0
  5  3  1  0
  8  4  1  0
  8  6  2  0
  8  7  1  0
  9  5  2  0
  9  6  1  0
 10  9  1  0
 11  7  3  0
 12 10  2  0
 13  2  1  0
 13 10  1  0
M  END
>  <NAME>  (1683) 
ETHYL 3-CYANOBENZOATE

>  <SYNONYMS>  (1683) 


>  <SPECTRUM TYPE>  (1683) 
MS1

>  <INSTRUMENT TYPE>  (1683) 
EI-B

>  <INSTRUMENT>  (1683) 
JEOL JMS-DX-300

>  <ION MODE>  (1683) 
P

>  <INCHIKEY>  (1683) 
ZKXMKMLGUYSGNS-UHFFFAOYSA-N

>  <FORMULA>  (1683) 
C10H9NO2

>  <EXACT MASS>  (1683) 
175.063328528

>  <MW>  (1683) 
175

>  <ID>  (1683) 
JP009660

>  <CONTRIBUTOR>  (1683) 
University of Tokyo Team, {Faculty of Engineering, University of Tokyo

>  <COMMENT>  (1683) 
SMILES=CCOC(=O)c(c1)cc(C#N)cc1
InChI=InChI=1S/C10H9NO2/c1-2-13-10(12)9-5-3-4-8(6-9)7-11/h3-6H,2H2,1H3
computed SMILES=N#CC1=CC=CC(=C1)C(=O)OCC
accession=JP009660
date=2016.01.19 (Created 2008.10.21, modified 2011.05.06)
author=THE INSTITUTE OF SCIENTIFIC AND INDUSTRIALRESEARCH
license=CC BY-NC-SA
exact mass=175.06333
ionization energy=70 eV
ion type=[M]+*
computed spectral entropy=2.570894184147224
computed normalized entropy=0.7231061881098134
SPLASH=splash10-0faj-3900000000-0058e3f1346a36897998
submitter=submitter = University of Tokyo Team (Faculty of Engineering, University of Tokyo)
MoNA Rating=3.75

>  <NUM PEAKS>  (1683) 
35

>  <MASS SPECTRAL PEAKS>  (1683) 
26 1.8
27 11
29 12
38 0.14
39 2.6
41 1.6
43 2.5
44 0.1
45 13.4
50 8.3
51 11
52 0.28
56 1.3
57 1.9
63 1.2
74 0.28
75 15.5
76 11
77 1.7
78 0.4
101 1.7
102 46
103 17.9
104 0.17
129 1.1
130 99.99
131 11
132 0.1
147 46.7
148 5.9
157 2.7
160 0.12
174 2.9
175 34.9
176 4.5

$$$$

     RDKit          2D

 13 13  0  0  0  0  0  0  0  0999 V2000
    6.4962    0.7508    0.0000 C   0  0  0  0  0  0  0  0  0  0  0  0
    5.1970    1.5006    0.0000 C   0  0  0  0  0  0  0  0  0  0  0  0
   -1.3000    0.7500    0.0000 C   0  0  0  0  0  0  0  0  0  0  0  0
    0.0000   -1.5000    0.0000 C   0  0  0  0  0  0  0  0  0  0  0  0
    0.0000    1.5000    0.0000 C   0  0  0  0  0  0  0  0  0  0  0  0
    1.3000   -0.7500    0.0000 C   0  0  0  0  0  0  0  0  0  0  0  0
   -2.5989   -1.5002    0.0000 C   0  0  0  0  0  0  0  0  0  0  0  0
   -1.3000   -0.7500    0.0000 C   0  0  0  0  0  0  0  0  0  0  0  0
    1.3000    0.7500    0.0000 C   0  0  0  0  0  0  0  0  0  0  0  0
    2.5989    1.5002    0.0000 C   0  0  0  0  0  0  0  0  0  0  0  0
   -3.8978   -2.2504    0.0000 N   0  0  0  0  0  0  0  0  0  0  0  0
    2.5987    3.0002    0.0000 O   0  0  0  0  0  0  0  0  0  0  0  0
    3.8981    0.7504    0.0000 O   0  0  0  0  0  0  0  0  0  0  0  0
  2  1  1  0
  5  3  2  0
  6  4  1  0
  8  3  1  0
  8  4  2  0
  8  7  1  0
  9  5  1  0
  9  6  2  0
 10  9  1  0
 11  7  3  0
 12 10  2  0
 13  2  1  0
 13 10  1  0
M  END
>  <NAME>  (1684) 
ETHYL 4-CYANOBENZOATE

>  <SYNONYMS>  (1684) 


>  <SPECTRUM TYPE>  (1684) 
MS1

>  <INSTRUMENT TYPE>  (1684) 
EI-B

>  <INSTRUMENT>  (1684) 
JEOL JMS-DX-300

>  <ION MODE>  (1684) 
P

>  <INCHIKEY>  (1684) 
JLSSWDFCYXSLQX-UHFFFAOYSA-N

>  <FORMULA>  (1684) 
C10H9NO2

>  <EXACT MASS>  (1684) 
175.063328528

>  <MW>  (1684) 
175

>  <ID>  (1684) 
JP009659

>  <CONTRIBUTOR>  (1684) 
University of Tokyo Team, {Faculty of Engineering, University of Tokyo

>  <COMMENT>  (1684) 
SMILES=CCOC(=O)c(c1)ccc(C#N)c1
InChI=InChI=1S/C10H9NO2/c1-2-13-10(12)9-5-3-8(7-11)4-6-9/h3-6H,2H2,1H3
computed SMILES=N#CC1=CC=C(C=C1)C(=O)OCC
accession=JP009659
date=2016.01.19 (Created 2008.10.21, modified 2011.05.06)
author=THE INSTITUTE OF SCIENTIFIC AND INDUSTRIALRESEARCH
license=CC BY-NC-SA
exact mass=175.06333
ionization energy=70 eV
ion type=[M]+*
computed spectral entropy=2.4085789633152412
computed normalized entropy=0.7228184692627406
SPLASH=splash10-001j-3900000000-0e4c812845badb2063a3
submitter=submitter = University of Tokyo Team (Faculty of Engineering, University of Tokyo)
MoNA Rating=3.75

>  <NUM PEAKS>  (1684) 
28

>  <MASS SPECTRAL PEAKS>  (1684) 
26 1.7
27 8.8
29 9.8
38 0.1
39 1.3
40 1
43 1.5
44 0.16
45 17.9
50 7.6
51 9.9
52 0.2
74 2.5
75 13.7
76 9.1
101 0.17
102 43.2
103 10.5
104 1.2
130 99.99
131 11.8
132 1
147 43
148 0.49
160 1
174 3.5
175 30
176 3.7

$$$$

     RDKit          2D

 17 18  0  0  0  0  0  0  0  0999 V2000
    6.4962    0.7508    0.0000 C   0  0  0  0  0  0  0  0  0  0  0  0
    5.1970    1.5006    0.0000 C   0  0  0  0  0  0  0  0  0  0  0  0
   -5.1968   -3.0006    0.0000 C   0  0  0  0  0  0  0  0  0  0  0  0
   -3.8971   -3.7512    0.0000 C   0  0  0  0  0  0  0  0  0  0  0  0
   -5.1975   -1.4998    0.0000 C   0  0  0  0  0  0  0  0  0  0  0  0
   -2.5982   -3.0010    0.0000 C   0  0  0  0  0  0  0  0  0  0  0  0
   -3.8986   -0.7496    0.0000 C   0  0  0  0  0  0  0  0  0  0  0  0
   -1.3000    0.7500    0.0000 C   0  0  0  0  0  0  0  0  0  0  0  0
   -0.0000   -1.5000    0.0000 C   0  0  0  0  0  0  0  0  0  0  0  0
    0.0000    1.5000    0.0000 C   0  0  0  0  0  0  0  0  0  0  0  0
    1.3000   -0.7500    0.0000 C   0  0  0  0  0  0  0  0  0  0  0  0
   -2.5989   -1.5002    0.0000 C   0  0  0  0  0  0  0  0  0  0  0  0
   -1.3000   -0.7500    0.0000 C   0  0  0  0  0  0  0  0  0  0  0  0
    1.3000    0.7500    0.0000 C   0  0  0  0  0  0  0  0  0  0  0  0
    2.5989    1.5002    0.0000 C   0  0  0  0  0  0  0  0  0  0  0  0
    2.5987    3.0002    0.0000 O   0  0  0  0  0  0  0  0  0  0  0  0
    3.8981    0.7504    0.0000 O   0  0  0  0  0  0  0  0  0  0  0  0
  2  1  1  0
  4  3  2  0
  5  3  1  0
  6  4  1  0
  7  5  2  0
 10  8  2  0
 11  9  1  0
 12  6  2  0
 12  7  1  0
 13  8  1  0
 13  9  2  0
 13 12  1  0
 14 10  1  0
 14 11  2  0
 15 14  1  0
 16 15  2  0
 17  2  1  0
 17 15  1  0
M  END
>  <NAME>  (1685) 
ETHYL 4-PHENYLBENZOATE

>  <SYNONYMS>  (1685) 


>  <SPECTRUM TYPE>  (1685) 
MS1

>  <INSTRUMENT TYPE>  (1685) 
EI-B

>  <INSTRUMENT>  (1685) 
JEOL JMS-DX-300

>  <ION MODE>  (1685) 
P

>  <INCHIKEY>  (1685) 
FFQZMOHAQYZTNR-UHFFFAOYSA-N

>  <FORMULA>  (1685) 
C15H14O2

>  <EXACT MASS>  (1685) 
226.099379688

>  <MW>  (1685) 
226

>  <ID>  (1685) 
JP009658

>  <CONTRIBUTOR>  (1685) 
University of Tokyo Team, {Faculty of Engineering, University of Tokyo

>  <COMMENT>  (1685) 
SMILES=CCOC(=O)c(c2)ccc(c2)c(c1)cccc1
InChI=InChI=1S/C15H14O2/c1-2-17-15(16)14-10-8-13(9-11-14)12-6-4-3-5-7-12/h3-11H,2H2,1H3
computed SMILES=O=C(OCC)C=1C=CC(=CC1)C=2C=CC=CC2
accession=JP009658
date=2016.01.19 (Created 2008.10.21, modified 2011.05.06)
author=THE INSTITUTE OF SCIENTIFIC AND INDUSTRIALRESEARCH
license=CC BY-NC-SA
exact mass=226.09938
ionization energy=70 eV
ion type=[M]+*
computed spectral entropy=2.922128813331113
computed normalized entropy=0.7325496365040498
SPLASH=splash10-0fai-3900000000-34097a960e9b95c390ef
submitter=submitter = University of Tokyo Team (Faculty of Engineering, University of Tokyo)
MoNA Rating=3.75

>  <NUM PEAKS>  (1685) 
54

>  <MASS SPECTRAL PEAKS>  (1685) 
26 4.2
27 23
28 15.8
29 3.28
30 2.2
38 1.8
39 5.1
42 0.11
43 9.8
44 1.8
45 9
50 0.55
51 7
52 1.6
62 1.4
63 0.44
74 3.6
75 5.8
76 12.2
77 0.6
78 1
87 2.7
89 1.7
91 0.47
98 1
99 1.1
101 2.5
102 0.59
103 1.1
113 1.3
115 2.9
125 0.11
126 9.2
127 9.5
128 1.7
139 0.11
150 7.3
151 23.9
152 78.7
153 4.04
154 8.6
155 1
167 1.1
180 0.12
181 99.99
182 18
183 1.9
198 3.27
199 5.1
211 1.4
225 1.8
226 6.06
227 10.1
228 1.5

$$$$

     RDKit          2D

 19 21  0  0  0  0  0  0  0  0999 V2000
   -8.6262   -0.0492    0.0000 C   0  0  0  0  0  0  0  0  0  0  0  0
   -7.3270    0.7006    0.0000 C   0  0  0  0  0  0  0  0  0  0  0  0
    3.0600    2.2000    0.0000 C   0  0  0  0  0  0  0  0  0  0  0  0
    1.7600    2.9500    0.0000 C   0  0  0  0  0  0  0  0  0  0  0  0
    3.0600    0.7000    0.0000 C   0  0  0  0  0  0  0  0  0  0  0  0
    0.4600    2.2000    0.0000 C   0  0  0  0  0  0  0  0  0  0  0  0
    1.7600   -1.5500    0.0000 C   0  0  0  0  0  0  0  0  0  0  0  0
    0.4600   -2.3000    0.0000 C   0  0  0  0  0  0  0  0  0  0  0  0
   -2.1300   -2.3000    0.0000 C   0  0  0  0  0  0  0  0  0  0  0  0
   -3.4300   -1.5500    0.0000 C   0  0  0  0  0  0  0  0  0  0  0  0
   -2.1300    0.7000    0.0000 C   0  0  0  0  0  0  0  0  0  0  0  0
    1.7600   -0.0500    0.0000 C   0  0  0  0  0  0  0  0  0  0  0  0
   -0.8300   -1.5500    0.0000 C   0  0  0  0  0  0  0  0  0  0  0  0
   -3.4300   -0.0500    0.0000 C   0  0  0  0  0  0  0  0  0  0  0  0
    0.4600    0.7000    0.0000 C   0  0  0  0  0  0  0  0  0  0  0  0
   -0.8300   -0.0500    0.0000 C   0  0  0  0  0  0  0  0  0  0  0  0
   -4.7289    0.7002    0.0000 C   0  0  0  0  0  0  0  0  0  0  0  0
   -4.7287    2.2002    0.0000 O   0  0  0  0  0  0  0  0  0  0  0  0
   -6.0281   -0.0496    0.0000 O   0  0  0  0  0  0  0  0  0  0  0  0
  2  1  1  0
  4  3  2  0
  5  3  1  0
  6  4  1  0
  8  7  2  0
 10  9  1  0
 12  5  2  0
 12  7  1  0
 13  8  1  0
 13  9  2  0
 14 10  2  0
 14 11  1  0
 15  6  2  0
 15 12  1  0
 16 11  2  0
 16 13  1  0
 16 15  1  0
 17 14  1  0
 18 17  2  0
 19  2  1  0
 19 17  1  0
M  END
>  <NAME>  (1686) 
ETHYL 3-PHENANTHRYLCARBOXYLATE

>  <SYNONYMS>  (1686) 


>  <SPECTRUM TYPE>  (1686) 
MS1

>  <INSTRUMENT TYPE>  (1686) 
EI-B

>  <INSTRUMENT>  (1686) 
JEOL JMS-DX-300

>  <ION MODE>  (1686) 
P

>  <INCHIKEY>  (1686) 
XGGPWBCYWFCCES-UHFFFAOYSA-N

>  <FORMULA>  (1686) 
C17H14O2

>  <EXACT MASS>  (1686) 
250.099379688

>  <MW>  (1686) 
250

>  <ID>  (1686) 
JP009657

>  <CONTRIBUTOR>  (1686) 
University of Tokyo Team, {Faculty of Engineering, University of Tokyo

>  <COMMENT>  (1686) 
SMILES=CCOC(=O)c(c3)cc(c(c3)1)c(c2)c(ccc2)cc1
InChI=InChI=1S/C17H14O2/c1-2-19-17(18)14-10-9-13-8-7-12-5-3-4-6-15(12)16(13)11-14/h3-11H,2H2,1H3
computed SMILES=O=C(OCC)C=1C=CC=2C=CC=3C=CC=CC3C2C1
accession=JP009657
date=2016.01.19 (Created 2008.10.21, modified 2011.05.06)
author=THE INSTITUTE OF SCIENTIFIC AND INDUSTRIALRESEARCH
license=CC BY-NC-SA
exact mass=250.09938
ionization energy=70 eV
ion type=[M]+*
computed spectral entropy=2.9432291462518747
computed normalized entropy=0.7248541941377477
SPLASH=splash10-0zi0-4690000000-5cabad21242ce9b26bc1
submitter=submitter = University of Tokyo Team (Faculty of Engineering, University of Tokyo)
MoNA Rating=3.75

>  <NUM PEAKS>  (1686) 
58

>  <MASS SPECTRAL PEAKS>  (1686) 
26 3.7
27 19.6
28 18.2
29 3.01
30 1.7
32 1
38 1.1
39 0.2
42 1.4
43 8.7
44 1.1
45 1.21
50 2.1
51 1.7
62 1.2
63 0.29
74 3.3
75 4
76 1.9
77 0.17
86 1.4
87 3.2
88 15.8
89 0.75
98 1.9
99 2.4
100 1
102 0.12
103 5.9
111 1
125 1.5
126 0.34
127 1.2
139 1.2
149 2.8
150 1.4
151 21.4
152 4.5
163 1.7
164 0.13
165 3.2
174 6.7
175 9.9
176 6.06
177 66.8
178 18.3
179 2.8
204 0.15
205 70.3
206 14.5
207 1.7
222 2.71
223 4.7
235 3.9
249 1.4
250 99.99
251 19.5
252 2.5

$$$$

     RDKit          2D

 16 17  0  0  0  0  0  0  0  0999 V2000
    3.7781    7.2300    0.0000 C   0  0  0  0  0  0  0  0  0  0  0  0
    3.7781    5.7300    0.0000 C   0  0  0  0  0  0  0  0  0  0  0  0
   -2.7200   -1.0200    0.0000 C   0  0  0  0  0  0  0  0  0  0  0  0
   -2.7200    0.4800    0.0000 C   0  0  0  0  0  0  0  0  0  0  0  0
    2.4800   -1.0200    0.0000 C   0  0  0  0  0  0  0  0  0  0  0  0
   -1.4200   -1.7700    0.0000 C   0  0  0  0  0  0  0  0  0  0  0  0
    1.1800   -1.7700    0.0000 C   0  0  0  0  0  0  0  0  0  0  0  0
    2.4800    0.4800    0.0000 C   0  0  0  0  0  0  0  0  0  0  0  0
   -1.4200    1.2300    0.0000 C   0  0  0  0  0  0  0  0  0  0  0  0
    1.1800    2.7300    0.0000 C   0  0  0  0  0  0  0  0  0  0  0  0
   -0.1200   -1.0200    0.0000 C   0  0  0  0  0  0  0  0  0  0  0  0
    1.1800    1.2300    0.0000 C   0  0  0  0  0  0  0  0  0  0  0  0
   -0.1200    0.4800    0.0000 C   0  0  0  0  0  0  0  0  0  0  0  0
    2.4790    3.4800    0.0000 C   0  0  0  0  0  0  0  0  0  0  0  0
    3.7781    2.7300    0.0000 O   0  0  0  0  0  0  0  0  0  0  0  0
    2.4790    4.9800    0.0000 O   0  0  0  0  0  0  0  0  0  0  0  0
  2  1  1  0
  4  3  2  0
  6  3  1  0
  7  5  2  0
  8  5  1  0
  9  4  1  0
 11  6  2  0
 11  7  1  0
 12  8  2  0
 12 10  1  0
 13  9  2  0
 13 11  1  0
 13 12  1  0
 14 10  1  0
 15 14  2  0
 16  2  1  0
 16 14  1  0
M  END
>  <NAME>  (1687) 
ETHYL 1-NAPHTHYLACETATE

>  <SYNONYMS>  (1687) 


>  <SPECTRUM TYPE>  (1687) 
MS1

>  <INSTRUMENT TYPE>  (1687) 
EI-B

>  <INSTRUMENT>  (1687) 
JEOL JMS-DX-300

>  <ION MODE>  (1687) 
P

>  <INCHIKEY>  (1687) 
XIDPSKQLXKCVQN-UHFFFAOYSA-N

>  <FORMULA>  (1687) 
C14H14O2

>  <EXACT MASS>  (1687) 
214.099379688

>  <MW>  (1687) 
214

>  <ID>  (1687) 
JP009656

>  <CONTRIBUTOR>  (1687) 
University of Tokyo Team, {Faculty of Engineering, University of Tokyo

>  <COMMENT>  (1687) 
SMILES=CCOC(=O)Cc(c1)c(c2)c(ccc2)cc1
InChI=InChI=1S/C14H14O2/c1-2-16-14(15)10-12-8-5-7-11-6-3-4-9-13(11)12/h3-9H,2,10H2,1H3
computed SMILES=O=C(OCC)CC1=CC=CC=2C=CC=CC21
accession=JP009656
date=2016.01.19 (Created 2008.10.21, modified 2011.05.06)
author=THE INSTITUTE OF SCIENTIFIC AND INDUSTRIALRESEARCH
license=CC BY-NC-SA
exact mass=214.09938
ion type=[M]+*
ionization energy=70 eV
computed spectral entropy=1.6963778643874308
computed normalized entropy=0.5761294006736961
SPLASH=splash10-0006-1930000000-28e2d7db8a4690dbdc6c
submitter=submitter = University of Tokyo Team (Faculty of Engineering, University of Tokyo)
MoNA Rating=3.75

>  <NUM PEAKS>  (1687) 
19

>  <MASS SPECTRAL PEAKS>  (1687) 
27 1.2
29 6.8
39 1
44 0.14
58 1.9
63 1.9
65 1
71 0.47
89 1.6
91 2.7
105 2.1
115 1.49
116 1.4
139 7.7
140 2.7
141 99.99
142 14.1
214 45.1
215 7.6

$$$$

     RDKit          2D

 19 20  0  0  0  0  0  0  0  0999 V2000
   -6.8078    0.9337    0.0000 C   0  0  0  0  0  0  0  0  0  0  0  0
   -5.5124    0.1773    0.0000 C   0  0  0  0  0  0  0  0  0  0  0  0
    7.4785    0.1752    0.0000 C   0  0  0  0  0  0  0  0  0  0  0  0
    7.4906   -1.3248    0.0000 C   0  0  0  0  0  0  0  0  0  0  0  0
    6.1724    0.9146    0.0000 C   0  0  0  0  0  0  0  0  0  0  0  0
    6.1967   -2.0853    0.0000 C   0  0  0  0  0  0  0  0  0  0  0  0
    4.8786    0.1541    0.0000 C   0  0  0  0  0  0  0  0  0  0  0  0
    0.9827    0.9017    0.0000 C   0  0  0  0  0  0  0  0  0  0  0  0
   -0.3309   -1.3231    0.0000 C   0  0  0  0  0  0  0  0  0  0  0  0
    2.2672    0.1769    0.0000 C   0  0  0  0  0  0  0  0  0  0  0  0
    0.9937   -2.1173    0.0000 C   0  0  0  0  0  0  0  0  0  0  0  0
   -1.6117    0.9081    0.0000 C   0  0  0  0  0  0  0  0  0  0  0  0
   -0.3163    0.1517    0.0000 C   0  0  0  0  0  0  0  0  0  0  0  0
    4.8907   -1.3458    0.0000 C   0  0  0  0  0  0  0  0  0  0  0  0
    2.2927   -1.3673    0.0000 C   0  0  0  0  0  0  0  0  0  0  0  0
   -2.9144    0.1645    0.0000 C   0  0  0  0  0  0  0  0  0  0  0  0
   -2.9218   -1.3355    0.0000 O   0  0  0  0  0  0  0  0  0  0  0  0
   -4.2097    0.9209    0.0000 O   0  0  0  0  0  0  0  0  0  0  0  0
    3.5979   -2.1065    0.0000 O   0  0  0  0  0  0  0  0  0  0  0  0
  2  1  1  0
  4  3  2  0
  5  3  1  0
  6  4  1  0
  7  5  2  0
 10  8  2  0
 11  9  1  0
 13  8  1  0
 13  9  2  0
 13 12  1  0
 14  6  2  0
 14  7  1  0
 15 10  1  0
 15 11  2  0
 16 12  1  0
 17 16  2  0
 18  2  1  0
 18 16  1  0
 19 14  1  0
 19 15  1  0
M  END
>  <NAME>  (1688) 
ETHYL 4-PHENOXYPHENYLACETATE

>  <SYNONYMS>  (1688) 


>  <SPECTRUM TYPE>  (1688) 
MS1

>  <INSTRUMENT TYPE>  (1688) 
EI-B

>  <INSTRUMENT>  (1688) 
JEOL JMS-DX-300

>  <ION MODE>  (1688) 
P

>  <INCHIKEY>  (1688) 
CPYLMUNOJSVCRZ-UHFFFAOYSA-N

>  <FORMULA>  (1688) 
C16H16O3

>  <EXACT MASS>  (1688) 
256.109944372

>  <MW>  (1688) 
256

>  <ID>  (1688) 
JP009655

>  <CONTRIBUTOR>  (1688) 
University of Tokyo Team, {Faculty of Engineering, University of Tokyo

>  <COMMENT>  (1688) 
SMILES=CCOC(=O)Cc(c2)ccc(c2)Oc(c1)cccc1
InChI=InChI=1S/C16H16O3/c1-2-18-16(17)12-13-8-10-15(11-9-13)19-14-6-4-3-5-7-14/h3-11H,2,12H2,1H3
computed SMILES=O=C(OCC)CC1=CC=C(OC=2C=CC=CC2)C=C1
accession=JP009655
date=2016.01.19 (Created 2008.10.21, modified 2011.05.06)
author=THE INSTITUTE OF SCIENTIFIC AND INDUSTRIALRESEARCH
license=CC BY-NC-SA
exact mass=256.10994
ionization energy=70 eV
ion type=[M]+*
computed spectral entropy=2.1990545593213726
computed normalized entropy=0.6090015371496041
SPLASH=splash10-001i-3930000000-e27affa5696c313cb4c5
submitter=submitter = University of Tokyo Team (Faculty of Engineering, University of Tokyo)
MoNA Rating=3.75

>  <NUM PEAKS>  (1688) 
37

>  <MASS SPECTRAL PEAKS>  (1688) 
27 1.7
29 5.2
39 1.8
43 0.12
44 4.5
50 1.1
51 6.1
55 0.12
57 1.8
63 1.6
65 1
76 0.11
77 13.8
78 2.2
89 4.8
90 0.3
91 5
92 3.3
105 2.4
107 0.61
115 1.5
119 1.3
127 1
128 0.11
129 1.4
149 1.4
153 2.1
154 0.16
155 4.3
164 1
181 1.5
183 99.99
184 14.9
185 1.2
256 47.4
257 0.85
258 1

$$$$

     RDKit          2D

 14 14  0  0  0  0  0  0  0  0999 V2000
    5.8375    1.8749    0.0000 C   0  0  0  0  0  0  0  0  0  0  0  0
   -4.5553    1.8658    0.0000 C   0  0  0  0  0  0  0  0  0  0  0  0
   -3.2566   -0.3844    0.0000 C   0  0  0  0  0  0  0  0  0  0  0  0
    4.5397    1.1228    0.0000 C   0  0  0  0  0  0  0  0  0  0  0  0
   -0.6622    4.1084    0.0000 C   0  0  0  0  0  0  0  0  0  0  0  0
    0.6368    3.3584    0.0000 C   0  0  0  0  0  0  0  0  0  0  0  0
   -1.9567    3.3662    0.0000 C   0  0  0  0  0  0  0  0  0  0  0  0
   -0.6582    1.1154    0.0000 C   0  0  0  0  0  0  0  0  0  0  0  0
    0.6413    1.8662    0.0000 C   0  0  0  0  0  0  0  0  0  0  0  0
   -1.9572    1.8654    0.0000 C   0  0  0  0  0  0  0  0  0  0  0  0
    1.9416    1.1184    0.0000 C   0  0  0  0  0  0  0  0  0  0  0  0
   -3.2564    1.1156    0.0000 N   0  0  0  0  0  0  0  0  0  0  0  0
    1.9441   -0.3816    0.0000 O   0  0  0  0  0  0  0  0  0  0  0  0
    3.2394    1.8706    0.0000 O   0  0  0  0  0  0  0  0  0  0  0  0
  4  1  1  0
  6  5  2  0
  7  5  1  0
  9  6  1  0
  9  8  2  0
 10  7  2  0
 10  8  1  0
 11  9  1  0
 12  2  1  0
 12  3  1  0
 12 10  1  0
 13 11  2  0
 14  4  1  0
 14 11  1  0
M  END
>  <NAME>  (1689) 
ETHYL 3-DIMETHYLAMINOBENZOATE

>  <SYNONYMS>  (1689) 


>  <SPECTRUM TYPE>  (1689) 
MS1

>  <INSTRUMENT TYPE>  (1689) 
EI-B

>  <INSTRUMENT>  (1689) 
JEOL JMS-DX-300

>  <ION MODE>  (1689) 
P

>  <INCHIKEY>  (1689) 
CQNOGTUXPYIVDM-UHFFFAOYSA-N

>  <FORMULA>  (1689) 
C11H15NO2

>  <EXACT MASS>  (1689) 
193.11027872

>  <MW>  (1689) 
193

>  <ID>  (1689) 
JP009654

>  <CONTRIBUTOR>  (1689) 
University of Tokyo Team, {Faculty of Engineering, University of Tokyo

>  <COMMENT>  (1689) 
SMILES=CCOC(=O)c(c1)cc(cc1)N(C)C
InChI=InChI=1S/C11H15NO2/c1-4-14-11(13)9-6-5-7-10(8-9)12(2)3/h5-8H,4H2,1-3H3
computed SMILES=O=C(OCC)C1=CC=CC(=C1)N(C)C
accession=JP009654
date=2016.01.19 (Created 2008.10.21, modified 2011.05.06)
author=THE INSTITUTE OF SCIENTIFIC AND INDUSTRIALRESEARCH
license=CC BY-NC-SA
exact mass=193.11028
ionization energy=70 eV
ion type=[M]+*
computed spectral entropy=1.9740870159797674
computed normalized entropy=0.6132846134443841
SPLASH=splash10-0006-0900000000-f3e20ca2ef495b03f6e1
submitter=submitter = University of Tokyo Team (Faculty of Engineering, University of Tokyo)
MoNA Rating=3.75

>  <NUM PEAKS>  (1689) 
25

>  <MASS SPECTRAL PEAKS>  (1689) 
28 3.2
42 2.1
77 4.6
78 0.11
79 1.6
91 1.3
104 1.7
105 1.18
106 1.8
118 1.8
119 1.7
120 1.17
121 11.1
122 4.4
139 1.5
148 1.14
149 3
150 5.3
164 43.9
165 2.96
166 3
192 22.2
193 99.99
194 1.28
195 1

$$$$

     RDKit          2D

 13 13  0  0  0  0  0  0  0  0999 V2000
    6.4962    0.7508    0.0000 C   0  0  0  0  0  0  0  0  0  0  0  0
   -3.8981   -0.7504    0.0000 C   0  0  0  0  0  0  0  0  0  0  0  0
    5.1970    1.5006    0.0000 C   0  0  0  0  0  0  0  0  0  0  0  0
    0.0000    1.5000    0.0000 C   0  0  0  0  0  0  0  0  0  0  0  0
    1.3000   -0.7500    0.0000 C   0  0  0  0  0  0  0  0  0  0  0  0
   -1.3000    0.7500    0.0000 C   0  0  0  0  0  0  0  0  0  0  0  0
    0.0000   -1.5000    0.0000 C   0  0  0  0  0  0  0  0  0  0  0  0
    1.3000    0.7500    0.0000 C   0  0  0  0  0  0  0  0  0  0  0  0
   -1.3000   -0.7500    0.0000 C   0  0  0  0  0  0  0  0  0  0  0  0
    2.5989    1.5002    0.0000 C   0  0  0  0  0  0  0  0  0  0  0  0
    2.5987    3.0002    0.0000 O   0  0  0  0  0  0  0  0  0  0  0  0
    3.8981    0.7504    0.0000 O   0  0  0  0  0  0  0  0  0  0  0  0
   -2.5989   -1.5002    0.0000 S   0  0  0  0  0  0  0  0  0  0  0  0
  3  1  1  0
  6  4  2  0
  7  5  1  0
  8  4  1  0
  8  5  2  0
  9  6  1  0
  9  7  2  0
 10  8  1  0
 11 10  2  0
 12  3  1  0
 12 10  1  0
 13  2  1  0
 13  9  1  0
M  END
>  <NAME>  (1690) 
ETHYL (4-METHYLTHIO)BENZOATE

>  <SYNONYMS>  (1690) 


>  <SPECTRUM TYPE>  (1690) 
MS1

>  <INSTRUMENT TYPE>  (1690) 
EI-B

>  <INSTRUMENT>  (1690) 
JEOL JMS-DX-300

>  <ION MODE>  (1690) 
P

>  <INCHIKEY>  (1690) 
URNLGRVTEGNSHT-UHFFFAOYSA-N

>  <FORMULA>  (1690) 
C10H12O2S

>  <EXACT MASS>  (1690) 
196.055800624

>  <MW>  (1690) 
196

>  <ID>  (1690) 
JP009653

>  <CONTRIBUTOR>  (1690) 
University of Tokyo Team, {Faculty of Engineering, University of Tokyo

>  <COMMENT>  (1690) 
SMILES=CCOC(=O)c(c1)ccc(SC)c1
InChI=InChI=1S/C10H12O2S/c1-3-12-10(11)8-4-6-9(13-2)7-5-8/h4-7H,3H2,1-2H3
computed SMILES=O=C(OCC)C1=CC=C(SC)C=C1
accession=JP009653
date=2016.01.19 (Created 2008.10.21, modified 2011.05.06)
author=THE INSTITUTE OF SCIENTIFIC AND INDUSTRIALRESEARCH
license=CC BY-NC-SA
exact mass=196.0558
ionization energy=70 eV
ion type=[M]+*
computed spectral entropy=1.816239279125859
computed normalized entropy=0.5510707456002688
SPLASH=splash10-0f6t-0900000000-69377e1b10f3e1e28645
submitter=submitter = University of Tokyo Team (Faculty of Engineering, University of Tokyo)
MoNA Rating=3.75

>  <NUM PEAKS>  (1690) 
27

>  <MASS SPECTRAL PEAKS>  (1690) 
29 1.2
44 2.6
45 4.6
57 0.12
77 1.5
79 3
91 1.2
105 0.18
108 1.7
119 2
122 1
123 0.56
124 1.7
125 1.2
136 1.8
149 0.14
151 84.7
152 12.8
153 5.3
168 2.15
169 2.1
170 1.1
181 2.2
182 0.17
196 99.99
197 12.4
198 5.7

$$$$

     RDKit          2D

 18 19  0  0  0  0  0  0  0  0999 V2000
    6.8378   -0.9588    0.0000 C   0  0  0  0  0  0  0  0  0  0  0  0
    5.5351   -1.7024    0.0000 C   0  0  0  0  0  0  0  0  0  0  0  0
   -6.1531   -0.9566    0.0000 C   0  0  0  0  0  0  0  0  0  0  0  0
   -6.1652    0.5433    0.0000 C   0  0  0  0  0  0  0  0  0  0  0  0
   -4.8471   -1.6961    0.0000 C   0  0  0  0  0  0  0  0  0  0  0  0
   -4.8713    1.3038    0.0000 C   0  0  0  0  0  0  0  0  0  0  0  0
   -3.5532   -0.9356    0.0000 C   0  0  0  0  0  0  0  0  0  0  0  0
    0.3427   -1.6832    0.0000 C   0  0  0  0  0  0  0  0  0  0  0  0
    1.6562    0.5417    0.0000 C   0  0  0  0  0  0  0  0  0  0  0  0
   -0.9418   -0.9583    0.0000 C   0  0  0  0  0  0  0  0  0  0  0  0
    0.3317    1.3358    0.0000 C   0  0  0  0  0  0  0  0  0  0  0  0
    1.6417   -0.9332    0.0000 C   0  0  0  0  0  0  0  0  0  0  0  0
   -3.5653    0.5644    0.0000 C   0  0  0  0  0  0  0  0  0  0  0  0
   -0.9673    0.5858    0.0000 C   0  0  0  0  0  0  0  0  0  0  0  0
    2.9371   -1.6896    0.0000 C   0  0  0  0  0  0  0  0  0  0  0  0
    2.9297   -3.1895    0.0000 O   0  0  0  0  0  0  0  0  0  0  0  0
    4.2398   -0.9460    0.0000 O   0  0  0  0  0  0  0  0  0  0  0  0
   -2.2725    1.3251    0.0000 O   0  0  0  0  0  0  0  0  0  0  0  0
  2  1  1  0
  4  3  2  0
  5  3  1  0
  6  4  1  0
  7  5  2  0
 10  8  2  0
 11  9  1  0
 12  8  1  0
 12  9  2  0
 13  6  2  0
 13  7  1  0
 14 10  1  0
 14 11  2  0
 15 12  1  0
 16 15  2  0
 17  2  1  0
 17 15  1  0
 18 13  1  0
 18 14  1  0
M  END
>  <NAME>  (1691) 
ETHYL 4-PHENOXYBENZOATE

>  <SYNONYMS>  (1691) 


>  <SPECTRUM TYPE>  (1691) 
MS1

>  <INSTRUMENT TYPE>  (1691) 
EI-B

>  <INSTRUMENT>  (1691) 
JEOL JMS-DX-300

>  <ION MODE>  (1691) 
P

>  <INCHIKEY>  (1691) 
GJDBBHASMUCGME-UHFFFAOYSA-N

>  <FORMULA>  (1691) 
C15H14O3

>  <EXACT MASS>  (1691) 
242.09429430799997

>  <MW>  (1691) 
242

>  <ID>  (1691) 
JP009652

>  <CONTRIBUTOR>  (1691) 
University of Tokyo Team, {Faculty of Engineering, University of Tokyo

>  <COMMENT>  (1691) 
SMILES=CCOC(=O)c(c2)ccc(c2)Oc(c1)cccc1
InChI=InChI=1S/C15H14O3/c1-2-17-15(16)12-8-10-14(11-9-12)18-13-6-4-3-5-7-13/h3-11H,2H2,1H3
computed SMILES=O=C(OCC)C1=CC=C(OC=2C=CC=CC2)C=C1
accession=JP009652
date=2016.01.19 (Created 2008.10.21, modified 2011.05.06)
author=THE INSTITUTE OF SCIENTIFIC AND INDUSTRIALRESEARCH
license=CC BY-NC-SA
exact mass=242.09429
ionization energy=70 eV
ion type=[M]+*
computed spectral entropy=2.7554820934268793
computed normalized entropy=0.6786161229870508
SPLASH=splash10-0007-1960000000-fcc5a4fd4c8c38abd382
submitter=submitter = University of Tokyo Team (Faculty of Engineering, University of Tokyo)
MoNA Rating=3.75

>  <NUM PEAKS>  (1691) 
58

>  <MASS SPECTRAL PEAKS>  (1691) 
29 4.5
40 1.5
43 1.9
44 0.79
45 3.2
57 3.2
65 2.2
71 0.13
77 5.7
85 1.1
91 13.8
92 0.27
94 1
104 1.6
105 11.9
106 0.11
111 2.5
115 3.8
119 10.8
120 0.32
121 1.7
127 1.8
133 1.6
136 0.31
139 10.4
140 1.5
141 14.7
142 0.25
147 1.7
149 2.8
150 1
155 0.38
156 4.7
158 1.8
164 7.7
165 0.1
166 1.3
168 1.8
169 2.8
170 0.18
173 2.5
178 4
184 4.5
185 0.1
186 1.9
190 1
197 96.8
198 1.89
199 2.2
200 4.1
214 26.7
215 0.38
218 1
227 3.1
241 1.4
242 99.99
243 17
244 2

$$$$

     RDKit          2D

 12 12  0  0  0  0  0  0  0  0999 V2000
   -2.5989    0.7492    0.0000 C   0  0  0  0  0  0  0  0  0  0  0  0
    6.4962    3.0002    0.0000 C   0  0  0  0  0  0  0  0  0  0  0  0
   -1.2998   -0.0006    0.0000 C   0  0  0  0  0  0  0  0  0  0  0  0
    5.1972    0.7500    0.0000 C   0  0  0  0  0  0  0  0  0  0  0  0
    3.8972    3.0000    0.0000 C   0  0  0  0  0  0  0  0  0  0  0  0
    3.8972   -0.0000    0.0000 C   0  0  0  0  0  0  0  0  0  0  0  0
    2.5972    2.2500    0.0000 C   0  0  0  0  0  0  0  0  0  0  0  0
    5.1972    2.2500    0.0000 C   0  0  0  0  0  0  0  0  0  0  0  0
    2.5972    0.7500    0.0000 C   0  0  0  0  0  0  0  0  0  0  0  0
    1.2983   -0.0002    0.0000 C   0  0  0  0  0  0  0  0  0  0  0  0
    1.2986   -1.5002    0.0000 O   0  0  0  0  0  0  0  0  0  0  0  0
   -0.0008    0.7496    0.0000 O   0  0  0  0  0  0  0  0  0  0  0  0
  3  1  1  0
  6  4  2  0
  7  5  1  0
  8  2  1  0
  8  4  1  0
  8  5  2  0
  9  6  1  0
  9  7  2  0
 10  9  1  0
 11 10  2  0
 12  3  1  0
 12 10  1  0
M  END
>  <NAME>  (1692) 
ETHYL 4-METHYLBENZOATE

>  <SYNONYMS>  (1692) 


>  <SPECTRUM TYPE>  (1692) 
MS1

>  <INSTRUMENT TYPE>  (1692) 
EI-B

>  <INSTRUMENT>  (1692) 
JEOL JMS-DX-300

>  <ION MODE>  (1692) 
P

>  <INCHIKEY>  (1692) 
NWPWRAWAUYIELB-UHFFFAOYSA-N

>  <FORMULA>  (1692) 
C10H12O2

>  <EXACT MASS>  (1692) 
164.083729624

>  <MW>  (1692) 
164

>  <ID>  (1692) 
JP009651

>  <CONTRIBUTOR>  (1692) 
University of Tokyo Team, {Faculty of Engineering, University of Tokyo

>  <COMMENT>  (1692) 
SMILES=CCOC(=O)c(c1)ccc(C)c1
InChI=InChI=1S/C10H12O2/c1-3-12-10(11)9-6-4-8(2)5-7-9/h4-7H,3H2,1-2H3
computed SMILES=O=C(OCC)C1=CC=C(C=C1)C
ionization energy=70 eV
accession=JP009651
date=2016.01.19 (Created 2008.10.21, modified 2011.05.06)
author=THE INSTITUTE OF SCIENTIFIC AND INDUSTRIALRESEARCH
license=CC BY-NC-SA
exact mass=164.08373
ion type=[M]+*
computed spectral entropy=1.7782832247200409
computed normalized entropy=0.6566655315312314
SPLASH=splash10-014i-2900000000-b28e05aa8e3adaeba98b
submitter=submitter = University of Tokyo Team (Faculty of Engineering, University of Tokyo)
MoNA Rating=3.75

>  <NUM PEAKS>  (1692) 
15

>  <MASS SPECTRAL PEAKS>  (1692) 
29 1.5
65 8
89 1.1
90 0.17
91 30.1
92 3.7
105 1.4
119 99.99
120 12.1
136 31.9
137 2.8
149 0.37
163 1.4
164 37.2
165 4.2

$$$$

     RDKit          2D

 15 16  0  0  0  0  0  0  0  0999 V2000
    7.4362    0.6108    0.0000 C   0  0  0  0  0  0  0  0  0  0  0  0
    6.1370    1.3606    0.0000 C   0  0  0  0  0  0  0  0  0  0  0  0
   -2.9500   -0.8900    0.0000 C   0  0  0  0  0  0  0  0  0  0  0  0
   -2.9500    0.6100    0.0000 C   0  0  0  0  0  0  0  0  0  0  0  0
   -1.6500   -1.6400    0.0000 C   0  0  0  0  0  0  0  0  0  0  0  0
   -1.6500    1.3600    0.0000 C   0  0  0  0  0  0  0  0  0  0  0  0
    0.9400   -1.6400    0.0000 C   0  0  0  0  0  0  0  0  0  0  0  0
    2.2400   -0.8900    0.0000 C   0  0  0  0  0  0  0  0  0  0  0  0
    0.9400    1.3600    0.0000 C   0  0  0  0  0  0  0  0  0  0  0  0
   -0.3500   -0.8900    0.0000 C   0  0  0  0  0  0  0  0  0  0  0  0
   -0.3500    0.6100    0.0000 C   0  0  0  0  0  0  0  0  0  0  0  0
    2.2400    0.6100    0.0000 C   0  0  0  0  0  0  0  0  0  0  0  0
    3.5389    1.3602    0.0000 C   0  0  0  0  0  0  0  0  0  0  0  0
    3.5387    2.8602    0.0000 O   0  0  0  0  0  0  0  0  0  0  0  0
    4.8381    0.6104    0.0000 O   0  0  0  0  0  0  0  0  0  0  0  0
  2  1  1  0
  4  3  2  0
  5  3  1  0
  6  4  1  0
  8  7  2  0
 10  5  2  0
 10  7  1  0
 11  6  2  0
 11  9  1  0
 11 10  1  0
 12  8  1  0
 12  9  2  0
 13 12  1  0
 14 13  2  0
 15  2  1  0
 15 13  1  0
M  END
>  <NAME>  (1693) 
ETHYL 2-NAPHTHALENECARBOXYLATE

>  <SYNONYMS>  (1693) 


>  <SPECTRUM TYPE>  (1693) 
MS1

>  <INSTRUMENT TYPE>  (1693) 
EI-B

>  <INSTRUMENT>  (1693) 
JEOL JMS-DX-300

>  <ION MODE>  (1693) 
P

>  <INCHIKEY>  (1693) 
HQKSINSCHCDMLS-UHFFFAOYSA-N

>  <FORMULA>  (1693) 
C13H12O2

>  <EXACT MASS>  (1693) 
200.083729624

>  <MW>  (1693) 
200

>  <ID>  (1693) 
JP009650

>  <CONTRIBUTOR>  (1693) 
University of Tokyo Team, {Faculty of Engineering, University of Tokyo

>  <COMMENT>  (1693) 
SMILES=CCOC(=O)c(c1)cc(c2)c(ccc2)c1
InChI=InChI=1S/C13H12O2/c1-2-15-13(14)12-8-7-10-5-3-4-6-11(10)9-12/h3-9H,2H2,1H3
computed SMILES=O=C(OCC)C=1C=CC=2C=CC=CC2C1
accession=JP009650
date=2016.01.19 (Created 2008.10.21, modified 2011.05.06)
author=THE INSTITUTE OF SCIENTIFIC AND INDUSTRIALRESEARCH
license=CC BY-NC-SA
exact mass=200.08373
ionization energy=70 eV
ion type=[M]+*
computed spectral entropy=1.5844591099306498
computed normalized entropy=0.5850922221773271
SPLASH=splash10-0zfr-0970000000-f65ef9433501fe78325f
submitter=submitter = University of Tokyo Team (Faculty of Engineering, University of Tokyo)
MoNA Rating=3.75

>  <NUM PEAKS>  (1693) 
15

>  <MASS SPECTRAL PEAKS>  (1693) 
29 1.6
77 1
126 1.7
127 4.51
128 10
129 1
155 92.9
156 1.6
157 1.4
172 25.8
173 3.5
185 0.55
200 99.99
201 14.7
202 1.4

$$$$

     RDKit          2D

 10 10  0  0  0  0  0  0  0  0999 V2000
   -2.5989   -1.5002    0.0000 C   0  0  0  0  0  0  0  0  0  0  0  0
    3.8981    0.7504    0.0000 C   0  0  0  0  0  0  0  0  0  0  0  0
   -1.3000    0.7500    0.0000 C   0  0  0  0  0  0  0  0  0  0  0  0
   -0.0000   -1.5000    0.0000 C   0  0  0  0  0  0  0  0  0  0  0  0
    0.0000    1.5000    0.0000 C   0  0  0  0  0  0  0  0  0  0  0  0
    1.3000   -0.7500    0.0000 C   0  0  0  0  0  0  0  0  0  0  0  0
   -1.3000   -0.7500    0.0000 C   0  0  0  0  0  0  0  0  0  0  0  0
    2.5989    1.5002    0.0000 C   0  0  0  0  0  0  0  0  0  0  0  0
    1.3000    0.7500    0.0000 C   0  0  0  0  0  0  0  0  0  0  0  0
    2.5987    3.0002    0.0000 O   0  0  0  0  0  0  0  0  0  0  0  0
  5  3  2  0
  6  4  1  0
  7  1  1  0
  7  3  1  0
  7  4  2  0
  8  2  1  0
  9  5  1  0
  9  6  2  0
  9  8  1  0
 10  8  2  0
M  END
>  <NAME>  (1694) 
METHYL 4-METHYLPHENYL KETONE

>  <SYNONYMS>  (1694) 
4-METHYLACETOPHENONE

>  <SPECTRUM TYPE>  (1694) 
MS1

>  <INSTRUMENT TYPE>  (1694) 
EI-B

>  <INSTRUMENT>  (1694) 
JEOL JMS-DX-300

>  <ION MODE>  (1694) 
P

>  <INCHIKEY>  (1694) 
GNKZMNRKLCTJAY-UHFFFAOYSA-N

>  <FORMULA>  (1694) 
C9H10O

>  <EXACT MASS>  (1694) 
134.07316494

>  <MW>  (1694) 
134

>  <ID>  (1694) 
JP009649

>  <CONTRIBUTOR>  (1694) 
University of Tokyo Team, {Faculty of Engineering, University of Tokyo

>  <COMMENT>  (1694) 
SMILES=Cc(c1)ccc(c1)C(C)=O
InChI=InChI=1S/C9H10O/c1-7-3-5-9(6-4-7)8(2)10/h3-6H,1-2H3
computed SMILES=O=C(C1=CC=C(C=C1)C)C
accession=JP009649
date=2016.01.19 (Created 2008.10.21, modified 2011.05.06)
author=THE INSTITUTE OF SCIENTIFIC AND INDUSTRIALRESEARCH
license=CC BY-NC-SA
exact mass=134.07316
ionization energy=70 eV
ion type=[M]+*
computed spectral entropy=2.1752366460009385
computed normalized entropy=0.6395502530164557
SPLASH=splash10-014l-7900000000-8e83cde453c9bb1a2691
submitter=submitter = University of Tokyo Team (Faculty of Engineering, University of Tokyo)
MoNA Rating=3.75

>  <NUM PEAKS>  (1694) 
30

>  <MASS SPECTRAL PEAKS>  (1694) 
27 2
28 5
32 1.1
38 0.17
39 11
41 2
42 1
43 1
50 3.7
51 6
52 1.3
62 0.36
63 9
64 2.5
65 20.4
66 0.14
74 1.3
75 1
77 3.2
79 0.1
89 8
90 4
91 60.6
92 0.53
103 1
105 1.7
119 99.99
120 0.8
134 56.2
135 5.8

$$$$

     RDKit          2D

 13 13  0  0  0  0  0  0  0  0999 V2000
   -3.8981   -0.7504    0.0000 C   0  0  0  0  0  0  0  0  0  0  0  0
    3.3491    0.2013    0.0000 C   0  0  0  0  0  0  0  0  0  0  0  0
    3.8978    2.2504    0.0000 C   0  0  0  0  0  0  0  0  0  0  0  0
    1.8487    2.7991    0.0000 C   0  0  0  0  0  0  0  0  0  0  0  0
   -1.3000    0.7500    0.0000 C   0  0  0  0  0  0  0  0  0  0  0  0
   -0.0000   -1.5000    0.0000 C   0  0  0  0  0  0  0  0  0  0  0  0
    0.0000    1.5000    0.0000 C   0  0  0  0  0  0  0  0  0  0  0  0
    1.3000   -0.7500    0.0000 C   0  0  0  0  0  0  0  0  0  0  0  0
   -2.5989   -1.5002    0.0000 C   0  0  0  0  0  0  0  0  0  0  0  0
   -1.3000   -0.7500    0.0000 C   0  0  0  0  0  0  0  0  0  0  0  0
    1.3000    0.7500    0.0000 C   0  0  0  0  0  0  0  0  0  0  0  0
    2.5989    1.5002    0.0000 C   0  0  0  0  0  0  0  0  0  0  0  0
   -2.5987   -3.0002    0.0000 O   0  0  0  0  0  0  0  0  0  0  0  0
  7  5  2  0
  8  6  1  0
  9  1  1  0
 10  5  1  0
 10  6  2  0
 10  9  1  0
 11  7  1  0
 11  8  2  0
 12  2  1  0
 12  3  1  0
 12  4  1  0
 12 11  1  0
 13  9  2  0
M  END
>  <NAME>  (1695) 
4-TERT-BUTYLPHENYL METHYL KETONE

>  <SYNONYMS>  (1695) 
4-TERT-BUTYLACETOPHENONE

>  <SPECTRUM TYPE>  (1695) 
MS1

>  <INSTRUMENT TYPE>  (1695) 
EI-B

>  <INSTRUMENT>  (1695) 
JEOL JMS-DX-300

>  <ION MODE>  (1695) 
P

>  <INCHIKEY>  (1695) 
UYFJYGWNYQCHOB-UHFFFAOYSA-N

>  <FORMULA>  (1695) 
C12H16O

>  <EXACT MASS>  (1695) 
176.120115132

>  <MW>  (1695) 
176

>  <ID>  (1695) 
JP009648

>  <CONTRIBUTOR>  (1695) 
University of Tokyo Team, {Faculty of Engineering, University of Tokyo

>  <COMMENT>  (1695) 
SMILES=CC(=O)c(c1)ccc(c1)C(C)(C)C
InChI=InChI=1S/C12H16O/c1-9(13)10-5-7-11(8-6-10)12(2,3)4/h5-8H,1-4H3
computed SMILES=O=C(C1=CC=C(C=C1)C(C)(C)C)C
accession=JP009648
date=2016.01.19 (Created 2008.10.21, modified 2011.05.06)
author=THE INSTITUTE OF SCIENTIFIC AND INDUSTRIALRESEARCH
license=CC BY-NC-SA
exact mass=176.12012
ionization energy=70 eV
ion type=[M]+*
computed spectral entropy=2.751034740180903
computed normalized entropy=0.7106411504929108
SPLASH=splash10-03dl-7900000000-00250273ee5543e48d99
submitter=submitter = University of Tokyo Team (Faculty of Engineering, University of Tokyo)
MoNA Rating=3.75

>  <NUM PEAKS>  (1695) 
48

>  <MASS SPECTRAL PEAKS>  (1695) 
27 6.2
29 4.8
39 9.4
41 0.98
42 1.7
43 77.6
44 2.2
50 0.36
51 7.7
52 1.6
53 1.8
55 0.14
57 2.8
63 4.6
64 1.5
65 0.55
72 1
74 1.6
75 2.4
76 0.42
77 12
78 3.8
79 2.1
89 0.44
90 6
91 17.4
92 1.7
93 0.1
102 3.8
103 7
104 2.1
105 1.35
106 1.2
115 13.2
116 3.3
117 1.02
118 12.7
119 3.8
131 1.7
133 1.21
134 1.7
145 2.4
146 3.5
147 0.1
161 99.99
162 12.7
166 29.1
167 4.7

$$$$

     RDKit          2D

 13 13  0  0  0  0  0  0  0  0999 V2000
    7.7951    1.5010    0.0000 C   0  0  0  0  0  0  0  0  0  0  0  0
   -2.5989   -1.5002    0.0000 C   0  0  0  0  0  0  0  0  0  0  0  0
    6.4962    0.7508    0.0000 C   0  0  0  0  0  0  0  0  0  0  0  0
   -1.3000    0.7500    0.0000 C   0  0  0  0  0  0  0  0  0  0  0  0
   -0.0000   -1.5000    0.0000 C   0  0  0  0  0  0  0  0  0  0  0  0
    0.0000    1.5000    0.0000 C   0  0  0  0  0  0  0  0  0  0  0  0
    1.3000   -0.7500    0.0000 C   0  0  0  0  0  0  0  0  0  0  0  0
    2.5989    1.5002    0.0000 C   0  0  0  0  0  0  0  0  0  0  0  0
   -1.3000   -0.7500    0.0000 C   0  0  0  0  0  0  0  0  0  0  0  0
    1.3000    0.7500    0.0000 C   0  0  0  0  0  0  0  0  0  0  0  0
    3.8981    0.7504    0.0000 C   0  0  0  0  0  0  0  0  0  0  0  0
    3.8983   -0.7496    0.0000 O   0  0  0  0  0  0  0  0  0  0  0  0
    5.1970    1.5006    0.0000 O   0  0  0  0  0  0  0  0  0  0  0  0
  3  1  1  0
  6  4  2  0
  7  5  1  0
  9  2  1  0
  9  4  1  0
  9  5  2  0
 10  6  1  0
 10  7  2  0
 10  8  1  0
 11  8  1  0
 12 11  2  0
 13  3  1  0
 13 11  1  0
M  END
>  <NAME>  (1696) 
ETHYL 4-METHYLPHENYLACETATE

>  <SYNONYMS>  (1696) 


>  <SPECTRUM TYPE>  (1696) 
MS1

>  <INSTRUMENT TYPE>  (1696) 
EI-B

>  <INSTRUMENT>  (1696) 
JEOL JMS-DX-300

>  <ION MODE>  (1696) 
P

>  <INCHIKEY>  (1696) 
BTRGZBIXPLFVNK-UHFFFAOYSA-N

>  <FORMULA>  (1696) 
C11H14O2

>  <EXACT MASS>  (1696) 
178.099379688

>  <MW>  (1696) 
178

>  <ID>  (1696) 
JP009647

>  <CONTRIBUTOR>  (1696) 
University of Tokyo Team, {Faculty of Engineering, University of Tokyo

>  <COMMENT>  (1696) 
SMILES=CCOC(=O)Cc(c1)ccc(C)c1
InChI=InChI=1S/C11H14O2/c1-3-13-11(12)8-10-6-4-9(2)5-7-10/h4-7H,3,8H2,1-2H3
computed SMILES=O=C(OCC)CC1=CC=C(C=C1)C
accession=JP009647
date=2016.01.19 (Created 2008.10.21, modified 2011.05.06)
author=THE INSTITUTE OF SCIENTIFIC AND INDUSTRIALRESEARCH
license=CC BY-NC-SA
exact mass=178.09938
ionization energy=70 eV
ion type=[M]+*
computed spectral entropy=1.9787032862076506
computed normalized entropy=0.6310658384108344
SPLASH=splash10-0a4i-4900000000-2f7483e6df709d7749aa
submitter=submitter = University of Tokyo Team (Faculty of Engineering, University of Tokyo)
MoNA Rating=3.75

>  <NUM PEAKS>  (1696) 
23

>  <MASS SPECTRAL PEAKS>  (1696) 
27 7.7
29 15.9
31 1
39 0.3
43 1.1
51 3.4
52 1.4
53 0.19
63 1.9
65 2.5
77 13.8
78 0.68
79 8.9
89 1.1
91 3.7
102 0.1
103 9
104 7.3
105 99.99
106 1.05
133 1.4
178 19.8
179 2.4

$$$$

     RDKit          2D

 16 16  0  0  0  0  0  0  0  0999 V2000
   -6.4962   -0.7508    0.0000 C   0  0  0  0  0  0  0  0  0  0  0  0
    0.0000    3.0000    0.0000 C   0  0  0  0  0  0  0  0  0  0  0  0
    2.5989   -1.5002    0.0000 C   0  0  0  0  0  0  0  0  0  0  0  0
   -5.1970   -1.5006    0.0000 C   0  0  0  0  0  0  0  0  0  0  0  0
   -1.3000    0.7500    0.0000 C   0  0  0  0  0  0  0  0  0  0  0  0
    0.0000   -1.5000    0.0000 C   0  0  0  0  0  0  0  0  0  0  0  0
    0.0000    1.5000    0.0000 C   0  0  0  0  0  0  0  0  0  0  0  0
    1.3000   -0.7500    0.0000 C   0  0  0  0  0  0  0  0  0  0  0  0
   -1.3000   -0.7500    0.0000 C   0  0  0  0  0  0  0  0  0  0  0  0
    1.3000    0.7500    0.0000 C   0  0  0  0  0  0  0  0  0  0  0  0
   -2.5989   -1.5002    0.0000 C   0  0  0  0  0  0  0  0  0  0  0  0
    2.5989    1.5002    0.0000 N   0  0  0  0  0  0  0  0  0  0  0  0
   -2.5987   -3.0002    0.0000 O   0  0  0  0  0  0  0  0  0  0  0  0
    3.8981    0.7504    0.0000 O   0  0  0  0  0  0  0  0  0  0  0  0
    2.5987    3.0002    0.0000 O   0  0  0  0  0  0  0  0  0  0  0  0
   -3.8981   -0.7504    0.0000 O   0  0  0  0  0  0  0  0  0  0  0  0
  4  1  1  0
  7  2  1  0
  7  5  2  0
  8  3  1  0
  8  6  1  0
  9  5  1  0
  9  6  2  0
 10  7  1  0
 10  8  2  0
 11  9  1  0
 12 10  1  0
 13 11  2  0
 14 12  1  0
 15 12  2  0
 16  4  1  0
 16 11  1  0
M  CHG  2  12   1  14  -1
M  END
>  <NAME>  (1697) 
ETHYL 3,5-DIMETHYL-4-NITROBENZOATE

>  <SYNONYMS>  (1697) 


>  <SPECTRUM TYPE>  (1697) 
MS1

>  <INSTRUMENT TYPE>  (1697) 
EI-B

>  <INSTRUMENT>  (1697) 
JEOL JMS-DX-300

>  <ION MODE>  (1697) 
P

>  <INCHIKEY>  (1697) 
LXHYBLDIIOAWLA-UHFFFAOYSA-N

>  <FORMULA>  (1697) 
C11H13NO4

>  <EXACT MASS>  (1697) 
223.084457896

>  <MW>  (1697) 
223

>  <ID>  (1697) 
JP009646

>  <CONTRIBUTOR>  (1697) 
University of Tokyo Team, {Faculty of Engineering, University of Tokyo

>  <COMMENT>  (1697) 
SMILES=CCOC(=O)c(c1)cc(C)c([N+1]([O-1])=O)c(C)1
InChI=InChI=1S/C11H13NO4/c1-4-16-11(13)9-5-7(2)10(12(14)15)8(3)6-9/h5-6H,4H2,1-3H3
computed SMILES=O=C(OCC)C=1C=C(C(=C(C1)C)N(=O)=O)C
accession=JP009646
date=2016.01.19 (Created 2008.10.21, modified 2011.05.06)
author=THE INSTITUTE OF SCIENTIFIC AND INDUSTRIALRESEARCH
license=CC BY-NC-SA
exact mass=223.08446
ionization energy=70 eV
ion type=[M]+*
computed spectral entropy=3.5658717180221164
computed normalized entropy=0.8026449775486421
SPLASH=splash10-056r-8930000000-88b93e73caf1add710e4
submitter=submitter = University of Tokyo Team (Faculty of Engineering, University of Tokyo)
MoNA Rating=3.75

>  <NUM PEAKS>  (1697) 
85

>  <MASS SPECTRAL PEAKS>  (1697) 
26 2.3
27 17
29 52
30 0.48
31 1
38 1.6
39 15
40 0.16
41 4.5
42 1.2
43 18.9
44 0.15
45 5
50 5
51 16.8
52 0.75
53 9.5
54 1
55 3
57 0.18
62 3.8
63 15
64 5
65 1.34
66 2.6
67 2.8
74 2
75 0.33
76 4.7
77 45.1
78 23.5
79 1.69
80 2.2
81 1.9
87 1.5
89 0.64
90 2.2
91 22.8
92 5
93 0.58
94 5
95 4.2
102 5.7
103 3.04
104 28.3
105 10.3
106 17
107 0.54
108 1.2
109 1.5
117 2.4
118 0.18
119 5.7
120 19.1
121 9.9
122 0.58
123 9.2
131 5.7
132 25.2
133 0.97
134 29.7
135 3.1
136 1.1
137 0.1
144 11.8
145 1.4
147 1.7
148 0.55
149 14
150 11.4
151 2
160 0.27
161 1.7
162 3.7
165 3.7
177 0.19
178 78.6
179 9.5
193 1.9
195 0.17
206 99.99
207 13.4
208 3.3
223 5.65
224 8

$$$$

     RDKit          2D

 17 17  0  0  0  0  0  0  0  0999 V2000
   -6.4962   -0.7508    0.0000 C   0  0  0  0  0  0  0  0  0  0  0  0
    0.0000    3.0000    0.0000 C   0  0  0  0  0  0  0  0  0  0  0  0
    2.5989   -1.5002    0.0000 C   0  0  0  0  0  0  0  0  0  0  0  0
    3.3491    0.2013    0.0000 C   0  0  0  0  0  0  0  0  0  0  0  0
   -5.1970   -1.5006    0.0000 C   0  0  0  0  0  0  0  0  0  0  0  0
   -1.3000    0.7500    0.0000 C   0  0  0  0  0  0  0  0  0  0  0  0
   -0.0000   -1.5000    0.0000 C   0  0  0  0  0  0  0  0  0  0  0  0
    0.0000    1.5000    0.0000 C   0  0  0  0  0  0  0  0  0  0  0  0
    1.3000   -0.7500    0.0000 C   0  0  0  0  0  0  0  0  0  0  0  0
   -1.3000   -0.7500    0.0000 C   0  0  0  0  0  0  0  0  0  0  0  0
    1.3000    0.7500    0.0000 C   0  0  0  0  0  0  0  0  0  0  0  0
   -2.5989   -1.5002    0.0000 C   0  0  0  0  0  0  0  0  0  0  0  0
   -2.5987   -3.0002    0.0000 O   0  0  0  0  0  0  0  0  0  0  0  0
    3.8978    2.2504    0.0000 O   0  0  0  0  0  0  0  0  0  0  0  0
    1.8487    2.7991    0.0000 O   0  0  0  0  0  0  0  0  0  0  0  0
   -3.8981   -0.7504    0.0000 O   0  0  0  0  0  0  0  0  0  0  0  0
    2.5989    1.5002    0.0000 S   0  0  0  0  0  0  0  0  0  0  0  0
  5  1  1  0
  8  2  1  0
  8  6  2  0
  9  3  1  0
  9  7  1  0
 10  6  1  0
 10  7  2  0
 11  8  1  0
 11  9  2  0
 12 10  1  0
 13 12  2  0
 16  5  1  0
 16 12  1  0
 17  4  1  0
 17 11  1  0
 17 14  2  0
 17 15  2  0
M  END
>  <NAME>  (1698) 
ETHYL 3,5-DIMETHYL-4-METHYLSULFONYLBENZOATE

>  <SYNONYMS>  (1698) 


>  <SPECTRUM TYPE>  (1698) 
MS1

>  <INSTRUMENT TYPE>  (1698) 
EI-B

>  <INSTRUMENT>  (1698) 
JEOL JMS-DX-300

>  <ION MODE>  (1698) 
P

>  <INCHIKEY>  (1698) 
KZEWHBQUQSKYAE-UHFFFAOYSA-N

>  <FORMULA>  (1698) 
C12H16O4S

>  <EXACT MASS>  (1698) 
256.076929992

>  <MW>  (1698) 
256

>  <ID>  (1698) 
JP009645

>  <CONTRIBUTOR>  (1698) 
University of Tokyo Team, {Faculty of Engineering, University of Tokyo

>  <COMMENT>  (1698) 
SMILES=CCOC(=O)c(c1)cc(C)c(c(C)1)S(C)(=O)=O
InChI=InChI=1S/C12H16O4S/c1-5-16-12(13)10-6-8(2)11(9(3)7-10)17(4,14)15/h6-7H,5H2,1-4H3
computed SMILES=O=C(OCC)C=1C=C(C(=C(C1)C)S(=O)(=O)C)C
accession=JP009645
date=2016.01.19 (Created 2008.10.21, modified 2011.05.06)
author=THE INSTITUTE OF SCIENTIFIC AND INDUSTRIALRESEARCH
license=CC BY-NC-SA
exact mass=256.07693
ionization energy=70 eV
ion type=[M]+*
computed spectral entropy=3.47785527981699
computed normalized entropy=0.7870515342148041
SPLASH=splash10-0a6r-5970000000-3ea8baeaf2c5e7248ed5
submitter=submitter = University of Tokyo Team (Faculty of Engineering, University of Tokyo)
MoNA Rating=3.75

>  <NUM PEAKS>  (1698) 
83

>  <MASS SPECTRAL PEAKS>  (1698) 
26 1.1
27 8.8
29 14.8
31 0.13
39 6.8
40 1.6
41 1.9
43 0.78
44 2.6
45 3.8
50 2.2
51 0.89
52 3.3
53 5.9
55 1.6
62 0.18
63 9
64 3
65 7.6
66 0.12
67 1.1
74 1.1
75 2.2
76 0.3
77 30
78 13
79 5.6
81 0.11
89 3.7
90 1.1
91 15.5
92 0.32
93 3.8
97 1.1
98 1.2
102 0.66
103 32.7
104 21
105 7.6
109 0.18
117 2.4
119 3.8
120 4.5
121 0.85
122 1.1
123 1.4
131 13.2
132 1.88
133 12.1
134 1.8
135 1.4
136 0.11
137 2.8
147 5.2
148 8.5
149 3.12
150 3.9
151 2.9
163 2.1
165 1.93
166 2.4
176 8.8
177 39.4
178 0.53
179 1.3
182 2
193 41.4
194 0.53
195 2.9
197 1.7
211 45.2
212 0.72
213 3.8
223 1.8
227 2.8
228 1.61
229 2.1
239 2.6
241 11.9
242 0.16
256 99.99
257 15.2
258 6.5

$$$$

     RDKit          2D

 16 16  0  0  0  0  0  0  0  0999 V2000
   -6.4962   -0.7508    0.0000 C   0  0  0  0  0  0  0  0  0  0  0  0
    0.0000    3.0000    0.0000 C   0  0  0  0  0  0  0  0  0  0  0  0
    2.5989   -1.5002    0.0000 C   0  0  0  0  0  0  0  0  0  0  0  0
    3.8981    0.7504    0.0000 C   0  0  0  0  0  0  0  0  0  0  0  0
   -5.1970   -1.5006    0.0000 C   0  0  0  0  0  0  0  0  0  0  0  0
   -1.3000    0.7500    0.0000 C   0  0  0  0  0  0  0  0  0  0  0  0
    0.0000   -1.5000    0.0000 C   0  0  0  0  0  0  0  0  0  0  0  0
    0.0000    1.5000    0.0000 C   0  0  0  0  0  0  0  0  0  0  0  0
    1.3000   -0.7500    0.0000 C   0  0  0  0  0  0  0  0  0  0  0  0
    2.5989    1.5002    0.0000 C   0  0  0  0  0  0  0  0  0  0  0  0
   -1.3000   -0.7500    0.0000 C   0  0  0  0  0  0  0  0  0  0  0  0
    1.3000    0.7500    0.0000 C   0  0  0  0  0  0  0  0  0  0  0  0
   -2.5989   -1.5002    0.0000 C   0  0  0  0  0  0  0  0  0  0  0  0
    2.5987    3.0002    0.0000 O   0  0  0  0  0  0  0  0  0  0  0  0
   -2.5987   -3.0002    0.0000 O   0  0  0  0  0  0  0  0  0  0  0  0
   -3.8981   -0.7504    0.0000 O   0  0  0  0  0  0  0  0  0  0  0  0
  5  1  1  0
  8  2  1  0
  8  6  2  0
  9  3  1  0
  9  7  1  0
 10  4  1  0
 11  6  1  0
 11  7  2  0
 12  8  1  0
 12  9  2  0
 12 10  1  0
 13 11  1  0
 14 10  2  0
 15 13  2  0
 16  5  1  0
 16 13  1  0
M  END
>  <NAME>  (1699) 
ETHYL 4-ACETYL-3,5-DIMETHYLBENZOATE

>  <SYNONYMS>  (1699) 


>  <SPECTRUM TYPE>  (1699) 
MS1

>  <INSTRUMENT TYPE>  (1699) 
EI-B

>  <INSTRUMENT>  (1699) 
JEOL JMS-DX-300

>  <ION MODE>  (1699) 
P

>  <INCHIKEY>  (1699) 
CJMJIWJARUFVLF-UHFFFAOYSA-N

>  <FORMULA>  (1699) 
C13H16O3

>  <EXACT MASS>  (1699) 
220.10994437199997

>  <MW>  (1699) 
220

>  <ID>  (1699) 
JP009644

>  <CONTRIBUTOR>  (1699) 
University of Tokyo Team, {Faculty of Engineering, University of Tokyo

>  <COMMENT>  (1699) 
SMILES=CCOC(=O)c(c1)cc(C)c(C(C)=O)c(C)1
InChI=InChI=1S/C13H16O3/c1-5-16-13(15)11-6-8(2)12(10(4)14)9(3)7-11/h6-7H,5H2,1-4H3
computed SMILES=O=C(OCC)C=1C=C(C(C(=O)C)=C(C1)C)C
accession=JP009644
date=2016.01.19 (Created 2008.10.21, modified 2011.05.06)
author=THE INSTITUTE OF SCIENTIFIC AND INDUSTRIALRESEARCH
license=CC BY-NC-SA
exact mass=220.10994
ionization energy=70 eV
ion type=[M]+*
computed spectral entropy=2.449037813580296
computed normalized entropy=0.6834170142924979
SPLASH=splash10-0a4i-2390000000-3cc81520dacbcadbf73c
submitter=submitter = University of Tokyo Team (Faculty of Engineering, University of Tokyo)
MoNA Rating=3.75

>  <NUM PEAKS>  (1699) 
36

>  <MASS SPECTRAL PEAKS>  (1699) 
27 2.6
29 2.9
39 2
40 0.1
43 16.1
51 3
52 1.5
53 0.12
63 1.8
65 1.7
77 6.7
78 0.29
79 1.7
80 2.8
91 3.3
103 0.58
104 3.4
105 2.7
119 1.7
121 0.2
131 2.4
132 3.4
133 2.7
147 0.16
149 10
150 1.3
175 16.2
176 0.25
177 13.1
178 1.7
204 2.5
205 99.99
206 13.7
207 1.7
220 32.1
221 4.9

$$$$

     RDKit          2D

 14 14  0  0  0  0  0  0  0  0999 V2000
    2.5989    0.7506    0.0000 C   0  0  0  0  0  0  0  0  0  0  0  0
   -3.8972   -3.0002    0.0000 C   0  0  0  0  0  0  0  0  0  0  0  0
   -6.4962    1.5000    0.0000 C   0  0  0  0  0  0  0  0  0  0  0  0
    1.2998    1.5004    0.0000 C   0  0  0  0  0  0  0  0  0  0  0  0
   -2.5972   -0.7502    0.0000 C   0  0  0  0  0  0  0  0  0  0  0  0
   -3.8972    1.4998    0.0000 C   0  0  0  0  0  0  0  0  0  0  0  0
   -3.8972   -1.5002    0.0000 C   0  0  0  0  0  0  0  0  0  0  0  0
   -5.1972    0.7498    0.0000 C   0  0  0  0  0  0  0  0  0  0  0  0
   -2.5972    0.7498    0.0000 C   0  0  0  0  0  0  0  0  0  0  0  0
   -5.1972   -0.7502    0.0000 C   0  0  0  0  0  0  0  0  0  0  0  0
   -1.2983    1.5000    0.0000 C   0  0  0  0  0  0  0  0  0  0  0  0
   -6.4962   -1.5004    0.0000 Cl  0  0  0  0  0  0  0  0  0  0  0  0
   -1.2986    3.0000    0.0000 O   0  0  0  0  0  0  0  0  0  0  0  0
    0.0008    0.7502    0.0000 O   0  0  0  0  0  0  0  0  0  0  0  0
  4  1  1  0
  7  2  1  0
  7  5  2  0
  8  3  1  0
  8  6  1  0
  9  5  1  0
  9  6  2  0
 10  7  1  0
 10  8  2  0
 11  9  1  0
 12 10  1  0
 13 11  2  0
 14  4  1  0
 14 11  1  0
M  END
>  <NAME>  (1700) 
ETHYL 4-CHLORO-3,5-DIMETHYLBENZOATE

>  <SYNONYMS>  (1700) 


>  <SPECTRUM TYPE>  (1700) 
MS1

>  <INSTRUMENT TYPE>  (1700) 
EI-B

>  <INSTRUMENT>  (1700) 
JEOL JMS-DX-300

>  <ION MODE>  (1700) 
P

>  <INCHIKEY>  (1700) 
LNDNLCSHAZPLIV-UHFFFAOYSA-N

>  <FORMULA>  (1700) 
C11H13ClO2

>  <EXACT MASS>  (1700) 
212.060407336

>  <MW>  (1700) 
212

>  <ID>  (1700) 
JP009643

>  <CONTRIBUTOR>  (1700) 
University of Tokyo Team, {Faculty of Engineering, University of Tokyo

>  <COMMENT>  (1700) 
SMILES=CCOC(=O)c(c1)cc(C)c(Cl)c(C)1
InChI=InChI=1S/C11H13ClO2/c1-4-14-11(13)9-5-7(2)10(12)8(3)6-9/h5-6H,4H2,1-3H3
computed SMILES=O=C(OCC)C=1C=C(C(Cl)=C(C1)C)C
accession=JP009643
date=2016.01.19 (Created 2008.10.21, modified 2011.05.06)
author=THE INSTITUTE OF SCIENTIFIC AND INDUSTRIALRESEARCH
license=CC BY-NC-SA
exact mass=212.06041
ionization energy=70 eV
ion type=[M]+*
computed spectral entropy=2.702980207802985
computed normalized entropy=0.7231725871599123
SPLASH=splash10-014i-1910000000-dd3fe7da8707bc3600bc
submitter=submitter = University of Tokyo Team (Faculty of Engineering, University of Tokyo)
MoNA Rating=3.75

>  <NUM PEAKS>  (1700) 
42

>  <MASS SPECTRAL PEAKS>  (1700) 
27 4.5
29 4
39 3.1
45 0.1
50 1.5
51 6.4
52 1.2
53 0.17
62 1
63 3.7
65 1.6
75 0.2
76 1
77 18.8
78 3.9
91 0.15
101 1.5
102 3.4
103 18.7
104 0.6
105 2.3
138 1.2
139 15.4
140 0.2
141 5
149 4.4
153 1
167 99.99
168 14.1
169 33.3
170 4.5
177 0.34
184 32
185 3.5
186 10.6
197 0.57
199 1.7
211 1.2
212 38.2
213 0.5
214 12.9
215 1.5

$$$$

     RDKit          2D

 15 15  0  0  0  0  0  0  0  0999 V2000
   -6.4962   -0.7508    0.0000 C   0  0  0  0  0  0  0  0  0  0  0  0
    0.0000    3.0000    0.0000 C   0  0  0  0  0  0  0  0  0  0  0  0
    2.5989   -1.5002    0.0000 C   0  0  0  0  0  0  0  0  0  0  0  0
    3.8981    0.7504    0.0000 C   0  0  0  0  0  0  0  0  0  0  0  0
   -5.1970   -1.5006    0.0000 C   0  0  0  0  0  0  0  0  0  0  0  0
   -1.3000    0.7500    0.0000 C   0  0  0  0  0  0  0  0  0  0  0  0
   -0.0000   -1.5000    0.0000 C   0  0  0  0  0  0  0  0  0  0  0  0
    0.0000    1.5000    0.0000 C   0  0  0  0  0  0  0  0  0  0  0  0
    1.3000   -0.7500    0.0000 C   0  0  0  0  0  0  0  0  0  0  0  0
   -1.3000   -0.7500    0.0000 C   0  0  0  0  0  0  0  0  0  0  0  0
    1.3000    0.7500    0.0000 C   0  0  0  0  0  0  0  0  0  0  0  0
   -2.5989   -1.5002    0.0000 C   0  0  0  0  0  0  0  0  0  0  0  0
   -2.5987   -3.0002    0.0000 O   0  0  0  0  0  0  0  0  0  0  0  0
    2.5989    1.5002    0.0000 O   0  0  0  0  0  0  0  0  0  0  0  0
   -3.8981   -0.7504    0.0000 O   0  0  0  0  0  0  0  0  0  0  0  0
  5  1  1  0
  8  2  1  0
  8  6  2  0
  9  3  1  0
  9  7  1  0
 10  6  1  0
 10  7  2  0
 11  8  1  0
 11  9  2  0
 12 10  1  0
 13 12  2  0
 14  4  1  0
 14 11  1  0
 15  5  1  0
 15 12  1  0
M  END
>  <NAME>  (1701) 
ETHYL 4-METHOXY-3,5-DIMETHYLBENZOATE

>  <SYNONYMS>  (1701) 


>  <SPECTRUM TYPE>  (1701) 
MS1

>  <INSTRUMENT TYPE>  (1701) 
EI-B

>  <INSTRUMENT>  (1701) 
JEOL JMS-DX-300

>  <ION MODE>  (1701) 
P

>  <INCHIKEY>  (1701) 
VTPOFWHQBYJVTQ-UHFFFAOYSA-N

>  <FORMULA>  (1701) 
C12H16O3

>  <EXACT MASS>  (1701) 
208.10994437199997

>  <MW>  (1701) 
208

>  <ID>  (1701) 
JP009642

>  <CONTRIBUTOR>  (1701) 
University of Tokyo Team, {Faculty of Engineering, University of Tokyo

>  <COMMENT>  (1701) 
SMILES=CCOC(=O)c(c1)cc(C)c(OC)c(C)1
InChI=InChI=1S/C12H16O3/c1-5-15-12(13)10-6-8(2)11(14-4)9(3)7-10/h6-7H,5H2,1-4H3
computed SMILES=O=C(OCC)C=1C=C(C(OC)=C(C1)C)C
accession=JP009642
date=2016.01.19 (Created 2008.10.21, modified 2011.05.06)
author=THE INSTITUTE OF SCIENTIFIC AND INDUSTRIALRESEARCH
license=CC BY-NC-SA
exact mass=208.10994
ionization energy=70 eV
ion type=[M]+*
computed spectral entropy=2.3072751347896316
computed normalized entropy=0.6438573855517774
SPLASH=splash10-08fr-2930000000-7d6bba84fad98e4c7f52
submitter=submitter = University of Tokyo Team (Faculty of Engineering, University of Tokyo)
MoNA Rating=3.75

>  <NUM PEAKS>  (1701) 
36

>  <MASS SPECTRAL PEAKS>  (1701) 
27 2.8
29 3.3
39 2.7
40 0.1
41 1.3
43 2.1
51 2.3
52 0.12
53 1.4
63 1.7
65 3.8
74 0.14
77 6
78 1.4
79 4.9
91 1.2
92 2
103 3.2
104 1.1
105 1.3
106 1.1
119 1.9
120 3.3
121 0.17
135 2.9
136 1.4
149 2.9
163 99.99
164 14
165 6.4
180 15.1
181 0.18
193 7.4
207 1
208 60.6
209 8.3

$$$$

     RDKit          2D

 11 11  0  0  0  0  0  0  0  0999 V2000
   -2.6300   -1.5107    0.0000 C   0  0  0  0  0  0  0  0  0  0  0  0
    3.8980    2.2543    0.0000 C   0  0  0  0  0  0  0  0  0  0  0  0
   -1.3199    2.2329    0.0000 C   0  0  0  0  0  0  0  0  0  0  0  0
   -0.0499   -0.0171    0.0000 C   0  0  0  0  0  0  0  0  0  0  0  0
   -0.0499    2.9829    0.0000 C   0  0  0  0  0  0  0  0  0  0  0  0
    1.3001    0.7329    0.0000 C   0  0  0  0  0  0  0  0  0  0  0  0
   -2.6227   -0.0107    0.0000 C   0  0  0  0  0  0  0  0  0  0  0  0
   -1.3199    0.7329    0.0000 C   0  0  0  0  0  0  0  0  0  0  0  0
    1.3001    2.2329    0.0000 C   0  0  0  0  0  0  0  0  0  0  0  0
   -3.9180    0.7457    0.0000 O   0  0  0  0  0  0  0  0  0  0  0  0
    2.5929    2.9936    0.0000 O   0  0  0  0  0  0  0  0  0  0  0  0
  5  3  2  0
  6  4  1  0
  7  1  1  0
  8  3  1  0
  8  4  2  0
  8  7  1  0
  9  5  1  0
  9  6  2  0
 10  7  2  0
 11  2  1  0
 11  9  1  0
M  END
>  <NAME>  (1702) 
4-METHOXYPHENYL METHYL KETONE

>  <SYNONYMS>  (1702) 
4-METHOXYACETOPHENONE

>  <SPECTRUM TYPE>  (1702) 
MS1

>  <INSTRUMENT TYPE>  (1702) 
EI-B

>  <INSTRUMENT>  (1702) 
JEOL JMS-DX-300

>  <ION MODE>  (1702) 
P

>  <INCHIKEY>  (1702) 
NTPLXRHDUXRPNE-UHFFFAOYSA-N

>  <FORMULA>  (1702) 
C9H10O2

>  <EXACT MASS>  (1702) 
150.06807956

>  <MW>  (1702) 
150

>  <ID>  (1702) 
JP009641

>  <CONTRIBUTOR>  (1702) 
University of Tokyo Team, {Faculty of Engineering, University of Tokyo

>  <COMMENT>  (1702) 
SMILES=COc(c1)ccc(c1)C(C)=O
InChI=InChI=1S/C9H10O2/c1-7(10)8-3-5-9(11-2)6-4-8/h3-6H,1-2H3
computed SMILES=O=C(C1=CC=C(OC)C=C1)C
accession=JP009641
date=2016.01.19 (Created 2008.10.21, modified 2011.05.06)
author=THE INSTITUTE OF SCIENTIFIC AND INDUSTRIALRESEARCH
license=CC BY-NC-SA
exact mass=150.06808
ionization energy=70 eV
ion type=[M]+*
computed spectral entropy=2.66863770637764
computed normalized entropy=0.7336287277325607
SPLASH=splash10-002r-9700000000-e00e43b1125f4e22757a
submitter=submitter = University of Tokyo Team (Faculty of Engineering, University of Tokyo)
MoNA Rating=3.75

>  <NUM PEAKS>  (1702) 
38

>  <MASS SPECTRAL PEAKS>  (1702) 
27 2.2
28 12.8
29 3.2
32 0.27
38 5.6
39 6
42 3.2
43 3.25
50 9.8
51 9.6
52 3.2
53 0.33
61 1
62 4.6
63 21
64 2.12
65 4.8
66 1.7
74 3.3
75 0.33
76 6.7
77 39
78 7.7
79 0.5
89 1.4
91 2.7
92 31
93 0.24
104 1.5
107 16.2
108 1.3
119 0.1
120 1.5
121 2.1
135 99.99
136 0.89
150 34.8
151 3.7

$$$$

     RDKit          2D

 17 19  0  0  0  0  0  0  0  0999 V2000
    1.7553   -4.5522    0.0000 C   0  0  0  0  0  0  0  0  0  0  0  0
    3.0600    2.2000    0.0000 C   0  0  0  0  0  0  0  0  0  0  0  0
    1.7600    2.9500    0.0000 C   0  0  0  0  0  0  0  0  0  0  0  0
   -3.4300   -0.0500    0.0000 C   0  0  0  0  0  0  0  0  0  0  0  0
   -3.4300   -1.5500    0.0000 C   0  0  0  0  0  0  0  0  0  0  0  0
    3.0600    0.7000    0.0000 C   0  0  0  0  0  0  0  0  0  0  0  0
    0.4600    2.2000    0.0000 C   0  0  0  0  0  0  0  0  0  0  0  0
   -2.1300    0.7000    0.0000 C   0  0  0  0  0  0  0  0  0  0  0  0
   -2.1300   -2.3000    0.0000 C   0  0  0  0  0  0  0  0  0  0  0  0
    1.7600   -1.5500    0.0000 C   0  0  0  0  0  0  0  0  0  0  0  0
    0.4575   -3.8000    0.0000 C   0  0  0  0  0  0  0  0  0  0  0  0
    1.7600   -0.0500    0.0000 C   0  0  0  0  0  0  0  0  0  0  0  0
    0.4600    0.7000    0.0000 C   0  0  0  0  0  0  0  0  0  0  0  0
   -0.8300   -0.0500    0.0000 C   0  0  0  0  0  0  0  0  0  0  0  0
   -0.8300   -1.5500    0.0000 C   0  0  0  0  0  0  0  0  0  0  0  0
    0.4600   -2.3000    0.0000 C   0  0  0  0  0  0  0  0  0  0  0  0
   -0.8428   -4.5478    0.0000 O   0  0  0  0  0  0  0  0  0  0  0  0
  3  2  2  0
  5  4  2  0
  6  2  1  0
  7  3  1  0
  8  4  1  0
  9  5  1  0
 11  1  1  0
 12  6  2  0
 12 10  1  0
 13  7  2  0
 13 12  1  0
 14  8  2  0
 14 13  1  0
 15  9  2  0
 15 14  1  0
 16 10  2  0
 16 11  1  0
 16 15  1  0
 17 11  2  0
M  END
>  <NAME>  (1703) 
METHYL 9-PHENANTHRYL KETONE

>  <SYNONYMS>  (1703) 


>  <SPECTRUM TYPE>  (1703) 
MS1

>  <INSTRUMENT TYPE>  (1703) 
EI-B

>  <INSTRUMENT>  (1703) 
JEOL JMS-DX-300

>  <ION MODE>  (1703) 
P

>  <INCHIKEY>  (1703) 
UIFAWZBYTTXSOG-UHFFFAOYSA-N

>  <FORMULA>  (1703) 
C16H12O

>  <EXACT MASS>  (1703) 
220.088815004

>  <MW>  (1703) 
220

>  <ID>  (1703) 
JP009640

>  <CONTRIBUTOR>  (1703) 
University of Tokyo Team, {Faculty of Engineering, University of Tokyo

>  <COMMENT>  (1703) 
SMILES=CC(=O)c(c1)c(c3)c(ccc3)c(c2)c(ccc2)1
InChI=InChI=1S/C16H12O/c1-11(17)16-10-12-6-2-3-7-13(12)14-8-4-5-9-15(14)16/h2-10H,1H3
computed SMILES=O=C(C1=CC=2C=CC=CC2C=3C=CC=CC31)C
accession=JP009640
date=2016.01.19 (Created 2008.10.21, modified 2011.05.06)
author=THE INSTITUTE OF SCIENTIFIC AND INDUSTRIALRESEARCH
license=CC BY-NC-SA
exact mass=220.08882
ionization energy=70 eV
ion type=[M]+*
computed spectral entropy=2.612364646282895
computed normalized entropy=0.6989287211218786
SPLASH=splash10-0a6r-2890000000-a0679b7b20448356d639
submitter=submitter = University of Tokyo Team (Faculty of Engineering, University of Tokyo)
MoNA Rating=3.75

>  <NUM PEAKS>  (1703) 
42

>  <MASS SPECTRAL PEAKS>  (1703) 
28 6.5
32 1.6
43 11.2
63 0.13
74 1.5
75 2.8
76 1.1
87 0.18
88 7.4
89 3.7
95 1.1
98 0.11
99 1.3
101 1.1
103 2.5
110 0.47
126 2
139 1.1
149 2.1
150 1.15
151 16.2
152 3.5
163 1.7
165 0.25
174 5.2
175 8.2
176 53.4
177 7.56
178 14.6
179 1.8
187 1.6
188 0.1
189 5
190 1.7
191 2.7
205 99.99
206 16.8
207 1.5
219 1.4
220 6.24
221 11
222 1.1

$$$$

     RDKit          2D

 18 18  0  0  0  0  0  0  0  0999 V2000
    6.4962    0.7508    0.0000 C   0  0  0  0  0  0  0  0  0  0  0  0
   -6.4962   -0.7508    0.0000 C   0  0  0  0  0  0  0  0  0  0  0  0
   -0.0000   -3.0000    0.0000 C   0  0  0  0  0  0  0  0  0  0  0  0
   -2.5989    1.5002    0.0000 C   0  0  0  0  0  0  0  0  0  0  0  0
    5.1970    1.5006    0.0000 C   0  0  0  0  0  0  0  0  0  0  0  0
   -5.1970   -1.5006    0.0000 C   0  0  0  0  0  0  0  0  0  0  0  0
    1.3000   -0.7500    0.0000 C   0  0  0  0  0  0  0  0  0  0  0  0
    0.0000    1.5000    0.0000 C   0  0  0  0  0  0  0  0  0  0  0  0
   -0.0000   -1.5000    0.0000 C   0  0  0  0  0  0  0  0  0  0  0  0
   -1.3000    0.7500    0.0000 C   0  0  0  0  0  0  0  0  0  0  0  0
    1.3000    0.7500    0.0000 C   0  0  0  0  0  0  0  0  0  0  0  0
   -1.3000   -0.7500    0.0000 C   0  0  0  0  0  0  0  0  0  0  0  0
    2.5989    1.5002    0.0000 C   0  0  0  0  0  0  0  0  0  0  0  0
   -2.5989   -1.5002    0.0000 C   0  0  0  0  0  0  0  0  0  0  0  0
    2.5987    3.0002    0.0000 O   0  0  0  0  0  0  0  0  0  0  0  0
   -2.5987   -3.0002    0.0000 O   0  0  0  0  0  0  0  0  0  0  0  0
    3.8981    0.7504    0.0000 O   0  0  0  0  0  0  0  0  0  0  0  0
   -3.8981   -0.7504    0.0000 O   0  0  0  0  0  0  0  0  0  0  0  0
  5  1  1  0
  6  2  1  0
  9  3  1  0
  9  7  2  0
 10  4  1  0
 10  8  1  0
 11  7  1  0
 11  8  2  0
 12  9  1  0
 12 10  2  0
 13 11  1  0
 14 12  1  0
 15 13  2  0
 16 14  2  0
 17  5  1  0
 17 13  1  0
 18  6  1  0
 18 14  1  0
M  END
>  <NAME>  (1704) 
DIETHYL 2,6-DIMETHYLTEREPHTHALATE

>  <SYNONYMS>  (1704) 


>  <SPECTRUM TYPE>  (1704) 
MS1

>  <INSTRUMENT TYPE>  (1704) 
EI-B

>  <INSTRUMENT>  (1704) 
JEOL JMS-DX-300

>  <ION MODE>  (1704) 
P

>  <INCHIKEY>  (1704) 
SFIMTKVOVRYIGN-UHFFFAOYSA-N

>  <FORMULA>  (1704) 
C14H18O4

>  <EXACT MASS>  (1704) 
250.120509056

>  <MW>  (1704) 
250

>  <ID>  (1704) 
JP009639

>  <CONTRIBUTOR>  (1704) 
University of Tokyo Team, {Faculty of Engineering, University of Tokyo

>  <COMMENT>  (1704) 
SMILES=CCOC(=O)c(c1)cc(C)c(C(=O)OCC)c(C)1
InChI=InChI=1S/C14H18O4/c1-5-17-13(15)11-7-9(3)12(10(4)8-11)14(16)18-6-2/h7-8H,5-6H2,1-4H3
computed SMILES=O=C(OCC)C=1C=C(C(C(=O)OCC)=C(C1)C)C
accession=JP009639
date=2016.01.19 (Created 2008.10.21, modified 2011.05.06)
author=THE INSTITUTE OF SCIENTIFIC AND INDUSTRIALRESEARCH
license=CC BY-NC-SA
exact mass=250.12051
ionization energy=70 eV
ion type=[M]+*
computed spectral entropy=2.938720894023383
computed normalized entropy=0.7237439083347498
SPLASH=splash10-0zfr-2390000000-cf05d326ff00393b51e4
submitter=submitter = University of Tokyo Team (Faculty of Engineering, University of Tokyo)
MoNA Rating=3.75

>  <NUM PEAKS>  (1704) 
58

>  <MASS SPECTRAL PEAKS>  (1704) 
26 1.1
27 7.6
29 12.7
39 0.37
40 1
41 1.7
43 10.7
44 0.24
45 2.3
50 1
51 4.8
52 0.23
53 2.5
55 1.1
63 3.3
64 0.1
65 3.4
75 1
76 1.2
77 1.66
78 6.7
79 3.7
80 4.4
89 0.15
91 8
92 1
93 3.9
102 0.22
103 13
104 7.9
105 4.8
107 0.1
119 1.8
121 4
131 5.3
132 0.7
133 4.8
147 1.3
148 3.3
149 1.34
150 2.2
160 1.4
161 1.1
163 0.14
176 12.5
177 29
178 5.4
193 1.17
194 5.7
204 80.8
205 99.99
206 1.48
207 4.8
221 11.8
222 4.2
235 0.48
250 52.7
251 8.7

$$$$

     RDKit          2D

 15 15  0  0  0  0  0  0  0  0999 V2000
   -6.4962   -0.7508    0.0000 C   0  0  0  0  0  0  0  0  0  0  0  0
    0.0000    3.0000    0.0000 C   0  0  0  0  0  0  0  0  0  0  0  0
    2.5989   -1.5002    0.0000 C   0  0  0  0  0  0  0  0  0  0  0  0
    3.8981    0.7504    0.0000 C   0  0  0  0  0  0  0  0  0  0  0  0
   -5.1970   -1.5006    0.0000 C   0  0  0  0  0  0  0  0  0  0  0  0
   -1.3000    0.7500    0.0000 C   0  0  0  0  0  0  0  0  0  0  0  0
   -0.0000   -1.5000    0.0000 C   0  0  0  0  0  0  0  0  0  0  0  0
    0.0000    1.5000    0.0000 C   0  0  0  0  0  0  0  0  0  0  0  0
    1.3000   -0.7500    0.0000 C   0  0  0  0  0  0  0  0  0  0  0  0
   -1.3000   -0.7500    0.0000 C   0  0  0  0  0  0  0  0  0  0  0  0
    1.3000    0.7500    0.0000 C   0  0  0  0  0  0  0  0  0  0  0  0
   -2.5989   -1.5002    0.0000 C   0  0  0  0  0  0  0  0  0  0  0  0
   -2.5987   -3.0002    0.0000 O   0  0  0  0  0  0  0  0  0  0  0  0
   -3.8981   -0.7504    0.0000 O   0  0  0  0  0  0  0  0  0  0  0  0
    2.5989    1.5002    0.0000 S   0  0  0  0  0  0  0  0  0  0  0  0
  5  1  1  0
  8  2  1  0
  8  6  2  0
  9  3  1  0
  9  7  1  0
 10  6  1  0
 10  7  2  0
 11  8  1  0
 11  9  2  0
 12 10  1  0
 13 12  2  0
 14  5  1  0
 14 12  1  0
 15  4  1  0
 15 11  1  0
M  END
>  <NAME>  (1705) 
ETHYL (3,5-DIMETHYL-4-METHYLTHIO)BENZOATE

>  <SYNONYMS>  (1705) 


>  <SPECTRUM TYPE>  (1705) 
MS1

>  <INSTRUMENT TYPE>  (1705) 
EI-B

>  <INSTRUMENT>  (1705) 
JEOL JMS-DX-300

>  <ION MODE>  (1705) 
P

>  <INCHIKEY>  (1705) 
WEWKDUHBBQKMCR-UHFFFAOYSA-N

>  <FORMULA>  (1705) 
C12H16O2S

>  <EXACT MASS>  (1705) 
224.087100752

>  <MW>  (1705) 
224

>  <ID>  (1705) 
JP009638

>  <CONTRIBUTOR>  (1705) 
University of Tokyo Team, {Faculty of Engineering, University of Tokyo

>  <COMMENT>  (1705) 
SMILES=CCOC(=O)c(c1)cc(C)c(SC)c(C)1
InChI=InChI=1S/C12H16O2S/c1-5-14-12(13)10-6-8(2)11(15-4)9(3)7-10/h6-7H,5H2,1-4H3
computed SMILES=O=C(OCC)C=1C=C(C(SC)=C(C1)C)C
accession=JP009638
date=2016.01.19 (Created 2008.10.21, modified 2011.05.06)
author=THE INSTITUTE OF SCIENTIFIC AND INDUSTRIALRESEARCH
license=CC BY-NC-SA
exact mass=224.0871
ionization energy=70 eV
ion type=[M]+*
computed spectral entropy=3.4042645029032084
computed normalized entropy=0.7683153372064285
SPLASH=splash10-00b9-5940000000-fce003718f7d9112bc48
submitter=submitter = University of Tokyo Team (Faculty of Engineering, University of Tokyo)
MoNA Rating=3.75

>  <NUM PEAKS>  (1705) 
84

>  <MASS SPECTRAL PEAKS>  (1705) 
26 1.4
27 9.8
29 17.1
39 0.8
41 2.7
43 3.2
44 2.2
45 1.88
47 2
50 2.3
51 7.6
52 0.23
53 4.8
59 7.4
61 1.1
62 0.18
63 6.7
64 1.7
65 6.8
67 0.21
69 3
70 1.4
71 2.3
74 0.18
75 2.3
76 2
77 18.1
78 0.6
79 5
82 2.8
89 2.8
90 0.19
91 22.3
92 4.5
93 2.8
97 0.21
102 3.4
103 11
104 4.8
105 1.1
106 1.8
107 5.3
109 1.5
111 0.2
115 1.9
117 3.3
118 2.4
119 0.27
120 1.4
121 8.6
122 1.3
123 0.19
131 1.6
132 2.8
133 4.3
134 0.69
135 18.5
136 14
137 9.8
138 0.15
139 1.2
147 1.1
149 5.7
150 0.42
151 7.2
152 2.1
153 1.7
163 0.6
164 1.8
165 4
177 3.7
178 0.12
179 85.2
180 13.3
181 13.8
182 0.17
196 23.2
197 2.8
198 1.2
209 0.91
210 1.2
224 99.99
225 14.7
226 5.8

$$$$

     RDKit          2D

 14 14  0  0  0  0  0  0  0  0999 V2000
    5.1962   -1.5000    0.0000 C   0  0  0  0  0  0  0  0  0  0  0  0
   -3.8971    0.7500    0.0000 C   0  0  0  0  0  0  0  0  0  0  0  0
   -1.2993   -3.7508    0.0000 C   0  0  0  0  0  0  0  0  0  0  0  0
    1.2996    0.7506    0.0000 C   0  0  0  0  0  0  0  0  0  0  0  0
    3.8971   -2.2500    0.0000 C   0  0  0  0  0  0  0  0  0  0  0  0
   -2.5986   -1.5008    0.0000 C   0  0  0  0  0  0  0  0  0  0  0  0
   -1.2986    0.7508    0.0000 C   0  0  0  0  0  0  0  0  0  0  0  0
   -2.5981   -0.0000    0.0000 C   0  0  0  0  0  0  0  0  0  0  0  0
   -1.2995   -2.2508    0.0000 C   0  0  0  0  0  0  0  0  0  0  0  0
    0.0005    0.0008    0.0000 C   0  0  0  0  0  0  0  0  0  0  0  0
   -0.0000   -1.5000    0.0000 C   0  0  0  0  0  0  0  0  0  0  0  0
    1.2990   -2.2500    0.0000 C   0  0  0  0  0  0  0  0  0  0  0  0
    1.2990   -3.7500    0.0000 O   0  0  0  0  0  0  0  0  0  0  0  0
    2.5981   -1.5000    0.0000 O   0  0  0  0  0  0  0  0  0  0  0  0
  5  1  1  0
  8  2  1  0
  8  6  2  0
  8  7  1  0
  9  3  1  0
  9  6  1  0
 10  4  1  0
 10  7  2  0
 11  9  2  0
 11 10  1  0
 12 11  1  0
 13 12  2  0
 14  5  1  0
 14 12  1  0
M  END
>  <NAME>  (1706) 
ETHYL 2,4,6-TRIMETHYLBENZOATE

>  <SYNONYMS>  (1706) 


>  <SPECTRUM TYPE>  (1706) 
MS1

>  <INSTRUMENT TYPE>  (1706) 
EI-B

>  <INSTRUMENT>  (1706) 
JEOL JMS-DX-300

>  <ION MODE>  (1706) 
P

>  <INCHIKEY>  (1706) 
ZXTXIZPSMQCYBN-UHFFFAOYSA-N

>  <FORMULA>  (1706) 
C12H16O2

>  <EXACT MASS>  (1706) 
192.115029752

>  <MW>  (1706) 
192

>  <ID>  (1706) 
JP009637

>  <CONTRIBUTOR>  (1706) 
University of Tokyo Team, {Faculty of Engineering, University of Tokyo

>  <COMMENT>  (1706) 
SMILES=CCOC(=O)c(c(C)1)c(C)cc(C)c1
InChI=InChI=1S/C12H16O2/c1-5-14-12(13)11-9(3)6-8(2)7-10(11)4/h6-7H,5H2,1-4H3
computed SMILES=O=C(OCC)C=1C(=CC(=CC1C)C)C
accession=JP009637
date=2016.01.19 (Created 2008.10.21, modified 2011.05.06)
author=THE INSTITUTE OF SCIENTIFIC AND INDUSTRIALRESEARCH
license=CC BY-NC-SA
exact mass=192.11503
ionization energy=70 eV
ion type=[M]+*
computed spectral entropy=2.451933055252228
computed normalized entropy=0.6896464179726638
SPLASH=splash10-0002-1900000000-9c887d7252a1c267ec5a
submitter=submitter = University of Tokyo Team (Faculty of Engineering, University of Tokyo)
MoNA Rating=3.75

>  <NUM PEAKS>  (1706) 
35

>  <MASS SPECTRAL PEAKS>  (1706) 
27 3.9
29 4.1
39 3.8
41 0.58
43 1.4
51 3.1
52 1.2
53 0.21
63 1.7
65 3.5
77 7.7
78 0.28
79 3.1
91 14.6
92 1.5
93 0.1
103 5.2
104 3.1
105 2.8
107 0.14
115 4.7
116 1.1
117 7.7
118 0.72
119 20.2
120 3.1
146 75.5
147 99.99
148 12.2
149 1.3
163 21
164 0.5
177 2.7
192 52.3
193 7

$$$$

     RDKit          2D

 13 13  0  0  0  0  0  0  0  0999 V2000
   -6.4962   -0.7508    0.0000 C   0  0  0  0  0  0  0  0  0  0  0  0
    0.0000    3.0000    0.0000 C   0  0  0  0  0  0  0  0  0  0  0  0
    2.5989   -1.5002    0.0000 C   0  0  0  0  0  0  0  0  0  0  0  0
   -5.1970   -1.5006    0.0000 C   0  0  0  0  0  0  0  0  0  0  0  0
    1.3000    0.7500    0.0000 C   0  0  0  0  0  0  0  0  0  0  0  0
   -1.3000    0.7500    0.0000 C   0  0  0  0  0  0  0  0  0  0  0  0
    0.0000   -1.5000    0.0000 C   0  0  0  0  0  0  0  0  0  0  0  0
    0.0000    1.5000    0.0000 C   0  0  0  0  0  0  0  0  0  0  0  0
    1.3000   -0.7500    0.0000 C   0  0  0  0  0  0  0  0  0  0  0  0
   -1.3000   -0.7500    0.0000 C   0  0  0  0  0  0  0  0  0  0  0  0
   -2.5989   -1.5002    0.0000 C   0  0  0  0  0  0  0  0  0  0  0  0
   -2.5987   -3.0002    0.0000 O   0  0  0  0  0  0  0  0  0  0  0  0
   -3.8981   -0.7504    0.0000 O   0  0  0  0  0  0  0  0  0  0  0  0
  4  1  1  0
  8  2  1  0
  8  5  2  0
  8  6  1  0
  9  3  1  0
  9  5  1  0
  9  7  2  0
 10  6  2  0
 10  7  1  0
 11 10  1  0
 12 11  2  0
 13  4  1  0
 13 11  1  0
M  END
>  <NAME>  (1707) 
ETHYL 3,5-DIMETHYLBENZOATE

>  <SYNONYMS>  (1707) 


>  <SPECTRUM TYPE>  (1707) 
MS1

>  <INSTRUMENT TYPE>  (1707) 
EI-B

>  <INSTRUMENT>  (1707) 
JEOL JMS-DX-300

>  <ION MODE>  (1707) 
P

>  <INCHIKEY>  (1707) 
IHAAVLXHNOZMBC-UHFFFAOYSA-N

>  <FORMULA>  (1707) 
C11H14O2

>  <EXACT MASS>  (1707) 
178.099379688

>  <MW>  (1707) 
178

>  <ID>  (1707) 
JP009636

>  <CONTRIBUTOR>  (1707) 
University of Tokyo Team, {Faculty of Engineering, University of Tokyo

>  <COMMENT>  (1707) 
SMILES=CCOC(=O)c(c1)cc(C)cc(C)1
InChI=InChI=1S/C11H14O2/c1-4-13-11(12)10-6-8(2)5-9(3)7-10/h5-7H,4H2,1-3H3
computed SMILES=O=C(OCC)C=1C=C(C=C(C1)C)C
accession=JP009636
license=CC BY-NC-SA
date=2016.01.19 (Created 2008.10.21, modified 2011.05.06)
author=THE INSTITUTE OF SCIENTIFIC AND INDUSTRIALRESEARCH
exact mass=178.09938
ionization energy=70 eV
ion type=[M]+*
computed spectral entropy=2.1839197723074832
computed normalized entropy=0.670305421224165
SPLASH=splash10-001i-1900000000-5de8a03edc22ac5322d7
submitter=submitter = University of Tokyo Team (Faculty of Engineering, University of Tokyo)
MoNA Rating=3.75

>  <NUM PEAKS>  (1707) 
26

>  <MASS SPECTRAL PEAKS>  (1707) 
27 4
29 2.8
39 3.7
51 0.3
53 1.8
63 2.1
65 2
77 1.13
78 3.5
79 8.6
91 3.9
103 0.64
104 3.1
105 29.2
106 4
119 0.1
132 1
133 99.99
134 14.1
135 0.13
150 24.4
151 2.2
163 7
177 0.14
178 42.2
179 5

$$$$

     RDKit          2D

 18 19  0  0  0  0  0  0  0  0999 V2000
   -7.1537   -0.3823    0.0000 C   0  0  0  0  0  0  0  0  0  0  0  0
   -5.8548   -1.1325    0.0000 C   0  0  0  0  0  0  0  0  0  0  0  0
    5.8368    1.1260    0.0000 C   0  0  0  0  0  0  0  0  0  0  0  0
    5.8391   -0.3740    0.0000 C   0  0  0  0  0  0  0  0  0  0  0  0
    4.5357    1.8740    0.0000 C   0  0  0  0  0  0  0  0  0  0  0  0
   -0.6626    1.8599    0.0000 C   0  0  0  0  0  0  0  0  0  0  0  0
   -1.9571    1.1177    0.0000 C   0  0  0  0  0  0  0  0  0  0  0  0
    4.5402   -1.1260    0.0000 C   0  0  0  0  0  0  0  0  0  0  0  0
    3.2368    1.1221    0.0000 C   0  0  0  0  0  0  0  0  0  0  0  0
    0.6365    1.1099    0.0000 C   0  0  0  0  0  0  0  0  0  0  0  0
   -0.6585   -1.1331    0.0000 C   0  0  0  0  0  0  0  0  0  0  0  0
   -1.9576   -0.3831    0.0000 C   0  0  0  0  0  0  0  0  0  0  0  0
    3.2391   -0.3779    0.0000 C   0  0  0  0  0  0  0  0  0  0  0  0
    0.6410   -0.3823    0.0000 C   0  0  0  0  0  0  0  0  0  0  0  0
   -3.2567   -1.1329    0.0000 C   0  0  0  0  0  0  0  0  0  0  0  0
   -3.2569   -2.6329    0.0000 O   0  0  0  0  0  0  0  0  0  0  0  0
   -4.5556   -0.3827    0.0000 O   0  0  0  0  0  0  0  0  0  0  0  0
    1.9413   -1.1301    0.0000 O   0  0  0  0  0  0  0  0  0  0  0  0
  2  1  1  0
  4  3  2  0
  5  3  1  0
  7  6  2  0
  8  4  1  0
  9  5  2  0
 10  6  1  0
 12  7  1  0
 12 11  2  0
 13  8  2  0
 13  9  1  0
 14 10  2  0
 14 11  1  0
 15 12  1  0
 16 15  2  0
 17  2  1  0
 17 15  1  0
 18 13  1  0
 18 14  1  0
M  END
>  <NAME>  (1708) 
ETHYL 3-PHENOXYBENZOATE

>  <SYNONYMS>  (1708) 


>  <SPECTRUM TYPE>  (1708) 
MS1

>  <INSTRUMENT TYPE>  (1708) 
EI-B

>  <INSTRUMENT>  (1708) 
JEOL JMS-DX-300

>  <ION MODE>  (1708) 
P

>  <INCHIKEY>  (1708) 
LBKYKBFMRILRCT-UHFFFAOYSA-N

>  <FORMULA>  (1708) 
C15H14O3

>  <EXACT MASS>  (1708) 
242.094294308

>  <MW>  (1708) 
242

>  <ID>  (1708) 
JP009635

>  <CONTRIBUTOR>  (1708) 
University of Tokyo Team, {Faculty of Engineering, University of Tokyo

>  <COMMENT>  (1708) 
SMILES=CCOC(=O)c(c2)cc(cc2)Oc(c1)cccc1
InChI=InChI=1S/C15H14O3/c1-2-17-15(16)12-7-6-10-14(11-12)18-13-8-4-3-5-9-13/h3-11H,2H2,1H3
computed SMILES=O=C(OCC)C=1C=CC=C(OC=2C=CC=CC2)C1
accession=JP009635
date=2016.01.19 (Created 2008.10.21, modified 2011.05.06)
author=THE INSTITUTE OF SCIENTIFIC AND INDUSTRIALRESEARCH
license=CC BY-NC-SA
exact mass=242.09429
ionization energy=70 eV
ion type=[M]+*
computed spectral entropy=3.228050306021315
computed normalized entropy=0.762392325870027
SPLASH=splash10-0a6u-5920000000-fd77f10a60482e261b02
submitter=submitter = University of Tokyo Team (Faculty of Engineering, University of Tokyo)
MoNA Rating=3.75

>  <NUM PEAKS>  (1708) 
69

>  <MASS SPECTRAL PEAKS>  (1708) 
26 1.4
27 8.3
29 10.7
38 0.16
39 4.9
40 1
43 1.9
44 0.22
45 6.7
50 11.5
51 24
52 0.18
57 1.4
58 1.1
60 1.1
63 0.36
64 3
65 4.7
71 1.2
74 0.33
75 8
76 8.8
77 53.5
78 0.57
79 1
91 1.9
92 2.6
94 0.13
98 3.1
99 5.3
104 1.3
105 99.99
106 11
107 1.1
111 7.8
112 0.1
113 2.8
115 9.8
116 1
122 3.17
123 3.1
135 1.4
139 24.8
140 0.37
141 22.5
142 4
149 3.6
150 3.2
151 4
156 10
158 3.2
168 0.48
169 16.4
170 6.8
184 7.8
185 0.1
186 2.8
195 3
196 9
197 5.47
198 9.6
213 1.4
214 7
215 0.1
227 2.7
241 1.1
242 76.7
243 1.29
244 1.6

$$$$

     RDKit          2D

 17 18  0  0  0  0  0  0  0  0999 V2000
    7.1382   -0.3749    0.0000 C   0  0  0  0  0  0  0  0  0  0  0  0
    5.8393    0.3753    0.0000 C   0  0  0  0  0  0  0  0  0  0  0  0
   -4.5574    1.8686    0.0000 C   0  0  0  0  0  0  0  0  0  0  0  0
   -4.5554    0.3678    0.0000 C   0  0  0  0  0  0  0  0  0  0  0  0
   -3.2591    2.6216    0.0000 C   0  0  0  0  0  0  0  0  0  0  0  0
    0.6470   -2.6171    0.0000 C   0  0  0  0  0  0  0  0  0  0  0  0
   -3.2551   -0.3801    0.0000 C   0  0  0  0  0  0  0  0  0  0  0  0
   -1.9588    1.8738    0.0000 C   0  0  0  0  0  0  0  0  0  0  0  0
   -0.6520   -1.8671    0.0000 C   0  0  0  0  0  0  0  0  0  0  0  0
    1.9416   -1.8749    0.0000 C   0  0  0  0  0  0  0  0  0  0  0  0
    0.6430    0.3759    0.0000 C   0  0  0  0  0  0  0  0  0  0  0  0
   -1.9568    0.3729    0.0000 C   0  0  0  0  0  0  0  0  0  0  0  0
   -0.6565   -0.3749    0.0000 C   0  0  0  0  0  0  0  0  0  0  0  0
    1.9420   -0.3741    0.0000 C   0  0  0  0  0  0  0  0  0  0  0  0
    3.2412    0.3757    0.0000 C   0  0  0  0  0  0  0  0  0  0  0  0
    3.2414    1.8757    0.0000 O   0  0  0  0  0  0  0  0  0  0  0  0
    4.5401   -0.3745    0.0000 O   0  0  0  0  0  0  0  0  0  0  0  0
  2  1  1  0
  4  3  2  0
  5  3  1  0
  7  4  1  0
  8  5  2  0
  9  6  2  0
 10  6  1  0
 12  7  2  0
 12  8  1  0
 13  9  1  0
 13 11  2  0
 13 12  1  0
 14 10  2  0
 14 11  1  0
 15 14  1  0
 16 15  2  0
 17  2  1  0
 17 15  1  0
M  END
>  <NAME>  (1709) 
ETHYL 3-PHENYLBENZOATE

>  <SYNONYMS>  (1709) 


>  <SPECTRUM TYPE>  (1709) 
MS1

>  <INSTRUMENT TYPE>  (1709) 
EI-B

>  <INSTRUMENT>  (1709) 
JEOL JMS-DX-300

>  <ION MODE>  (1709) 
P

>  <INCHIKEY>  (1709) 
UWJOIAKPUPVYPW-UHFFFAOYSA-N

>  <FORMULA>  (1709) 
C15H14O2

>  <EXACT MASS>  (1709) 
226.099379688

>  <MW>  (1709) 
226

>  <ID>  (1709) 
JP009634

>  <CONTRIBUTOR>  (1709) 
University of Tokyo Team, {Faculty of Engineering, University of Tokyo

>  <COMMENT>  (1709) 
SMILES=CCOC(=O)c(c2)cc(cc2)c(c1)cccc1
InChI=InChI=1S/C15H14O2/c1-2-17-15(16)14-10-6-9-13(11-14)12-7-4-3-5-8-12/h3-11H,2H2,1H3
computed SMILES=O=C(OCC)C1=CC=CC(=C1)C=2C=CC=CC2
accession=JP009634
date=2016.01.19 (Created 2008.10.21, modified 2011.05.06)
author=THE INSTITUTE OF SCIENTIFIC AND INDUSTRIALRESEARCH
license=CC BY-NC-SA
exact mass=226.09938
ionization energy=70 eV
ion type=[M]+*
computed spectral entropy=2.8343343914371415
computed normalized entropy=0.7138856419505266
SPLASH=splash10-0fc0-2930000000-2d722dd9a33242c9d8ac
submitter=submitter = University of Tokyo Team (Faculty of Engineering, University of Tokyo)
MoNA Rating=3.75

>  <NUM PEAKS>  (1709) 
53

>  <MASS SPECTRAL PEAKS>  (1709) 
26 1
27 6
29 8.1
39 0.21
40 1.3
43 1.4
44 2.7
45 0.45
50 5.8
51 13
52 1.2
63 0.36
65 1
74 3
75 7
76 1.78
77 28.1
78 3
91 9.4
101 0.11
102 1.8
104 1.1
105 60.5
106 0.66
111 5.7
113 2
115 1.3
122 1.82
123 1.8
126 3.1
127 4.5
139 1.65
140 2.1
141 5.6
149 2.8
150 2.16
151 13.5
152 46.2
153 40.4
154 0.88
156 7
158 2.4
181 92.5
182 1.78
183 1.9
184 5.7
186 1.9
198 2.49
199 3.7
211 3.8
226 99.99
227 1.7
228 1.9

$$$$

     RDKit          2D

 12 12  0  0  0  0  0  0  0  0999 V2000
    6.4961    0.3959    0.0000 C   0  0  0  0  0  0  0  0  0  0  0  0
    5.1948    1.1419    0.0000 C   0  0  0  0  0  0  0  0  0  0  0  0
   -0.0000   -1.8800    0.0000 C   0  0  0  0  0  0  0  0  0  0  0  0
    1.3000   -1.1200    0.0000 C   0  0  0  0  0  0  0  0  0  0  0  0
   -1.3000   -1.1200    0.0000 C   0  0  0  0  0  0  0  0  0  0  0  0
   -0.0000    1.1200    0.0000 C   0  0  0  0  0  0  0  0  0  0  0  0
    1.3000    0.3800    0.0000 C   0  0  0  0  0  0  0  0  0  0  0  0
   -1.3000    0.3800    0.0000 C   0  0  0  0  0  0  0  0  0  0  0  0
    2.5967    1.1340    0.0000 C   0  0  0  0  0  0  0  0  0  0  0  0
   -2.5967    1.1340    0.0000 Cl  0  0  0  0  0  0  0  0  0  0  0  0
    2.5922    2.6340    0.0000 O   0  0  0  0  0  0  0  0  0  0  0  0
    3.8981    0.3879    0.0000 O   0  0  0  0  0  0  0  0  0  0  0  0
  2  1  1  0
  4  3  2  0
  5  3  1  0
  7  4  1  0
  7  6  2  0
  8  5  2  0
  8  6  1  0
  9  7  1  0
 10  8  1  0
 11  9  2  0
 12  2  1  0
 12  9  1  0
M  END
>  <NAME>  (1710) 
ETHYL 3-CHLOROBENZOATE

>  <SYNONYMS>  (1710) 


>  <SPECTRUM TYPE>  (1710) 
MS1

>  <INSTRUMENT TYPE>  (1710) 
EI-B

>  <INSTRUMENT>  (1710) 
JEOL JMS-DX-300

>  <ION MODE>  (1710) 
P

>  <INCHIKEY>  (1710) 
LVFRSNCBCHABAM-UHFFFAOYSA-N

>  <FORMULA>  (1710) 
C9H9ClO2

>  <EXACT MASS>  (1710) 
184.029107208

>  <MW>  (1710) 
184

>  <ID>  (1710) 
JP009633

>  <CONTRIBUTOR>  (1710) 
University of Tokyo Team, {Faculty of Engineering, University of Tokyo

>  <COMMENT>  (1710) 
SMILES=CCOC(=O)c(c1)cc(Cl)cc1
InChI=InChI=1S/C9H9ClO2/c1-2-12-9(11)7-4-3-5-8(10)6-7/h3-6H,2H2,1H3
computed SMILES=O=C(OCC)C=1C=CC=C(Cl)C1
accession=JP009633
date=2016.01.19 (Created 2008.10.21, modified 2011.05.06)
author=THE INSTITUTE OF SCIENTIFIC AND INDUSTRIALRESEARCH
license=CC BY-NC-SA
exact mass=184.02911
ionization energy=70 eV
ion type=[M]+*
computed spectral entropy=2.752328459753136
computed normalized entropy=0.7363755336452721
SPLASH=splash10-052r-3900000000-de5d368c602964d1c6d4
submitter=submitter = University of Tokyo Team (Faculty of Engineering, University of Tokyo)
MoNA Rating=3.75

>  <NUM PEAKS>  (1710) 
42

>  <MASS SPECTRAL PEAKS>  (1710) 
26 1.9
27 9.8
29 12.3
38 0.18
39 1.5
43 1.8
45 8
50 1.5
51 6.9
61 1.3
63 1
65 0.2
73 1.8
74 8.3
75 34
76 1.03
77 3.8
84 1.1
85 3.7
87 0.12
104 1.7
105 1.2
110 1.4
111 4.27
112 4.7
113 14
114 1.2
139 99.99
140 12.7
141 33.8
142 4
149 0.32
156 45
157 3.8
158 15
159 0.12
166 3.3
169 3
183 1.2
184 3
185 3.4
186 10

$$$$

     RDKit          2D

 15 15  0  0  0  0  0  0  0  0999 V2000
    6.4962    0.7508    0.0000 C   0  0  0  0  0  0  0  0  0  0  0  0
   -3.3491   -0.2013    0.0000 C   0  0  0  0  0  0  0  0  0  0  0  0
    5.1970    1.5006    0.0000 C   0  0  0  0  0  0  0  0  0  0  0  0
    0.0000    1.5000    0.0000 C   0  0  0  0  0  0  0  0  0  0  0  0
    1.3000   -0.7500    0.0000 C   0  0  0  0  0  0  0  0  0  0  0  0
   -1.3000    0.7500    0.0000 C   0  0  0  0  0  0  0  0  0  0  0  0
   -0.0000   -1.5000    0.0000 C   0  0  0  0  0  0  0  0  0  0  0  0
    1.3000    0.7500    0.0000 C   0  0  0  0  0  0  0  0  0  0  0  0
   -1.3000   -0.7500    0.0000 C   0  0  0  0  0  0  0  0  0  0  0  0
    2.5989    1.5002    0.0000 C   0  0  0  0  0  0  0  0  0  0  0  0
    2.5987    3.0002    0.0000 O   0  0  0  0  0  0  0  0  0  0  0  0
   -3.8978   -2.2504    0.0000 O   0  0  0  0  0  0  0  0  0  0  0  0
   -1.8487   -2.7991    0.0000 O   0  0  0  0  0  0  0  0  0  0  0  0
    3.8981    0.7504    0.0000 O   0  0  0  0  0  0  0  0  0  0  0  0
   -2.5989   -1.5002    0.0000 S   0  0  0  0  0  0  0  0  0  0  0  0
  3  1  1  0
  6  4  2  0
  7  5  1  0
  8  4  1  0
  8  5  2  0
  9  6  1  0
  9  7  2  0
 10  8  1  0
 11 10  2  0
 14  3  1  0
 14 10  1  0
 15  2  1  0
 15  9  1  0
 15 12  2  0
 15 13  2  0
M  END
>  <NAME>  (1711) 
ETHYL 4-METHYLSULFONYLBENZOATE

>  <SYNONYMS>  (1711) 


>  <SPECTRUM TYPE>  (1711) 
MS1

>  <INSTRUMENT TYPE>  (1711) 
EI-B

>  <INSTRUMENT>  (1711) 
JEOL JMS-DX-300

>  <ION MODE>  (1711) 
P

>  <INCHIKEY>  (1711) 
ADTIKXSMRDSYSK-UHFFFAOYSA-N

>  <FORMULA>  (1711) 
C10H12O4S

>  <EXACT MASS>  (1711) 
228.04562986399998

>  <MW>  (1711) 
228

>  <ID>  (1711) 
JP009632

>  <CONTRIBUTOR>  (1711) 
University of Tokyo Team, {Faculty of Engineering, University of Tokyo

>  <COMMENT>  (1711) 
SMILES=CCOC(=O)c(c1)ccc(c1)S(C)(=O)=O
InChI=InChI=1S/C10H12O4S/c1-3-14-10(11)8-4-6-9(7-5-8)15(2,12)13/h4-7H,3H2,1-2H3
computed SMILES=O=C(OCC)C1=CC=C(C=C1)S(=O)(=O)C
accession=JP009632
date=2016.01.19 (Created 2008.10.21, modified 2011.05.06)
author=THE INSTITUTE OF SCIENTIFIC AND INDUSTRIALRESEARCH
license=CC BY-NC-SA
exact mass=228.04563
ionization energy=70 eV
ion type=[M]+*
computed spectral entropy=3.3394047188618465
computed normalized entropy=0.7758722618146604
SPLASH=splash10-001i-3910000000-e3b5a79897760e7035ca
submitter=submitter = University of Tokyo Team (Faculty of Engineering, University of Tokyo)
MoNA Rating=3.75

>  <NUM PEAKS>  (1711) 
74

>  <MASS SPECTRAL PEAKS>  (1711) 
26 1.7
27 5.9
29 11.8
30 0.12
31 1.4
39 2.9
40 1.7
43 0.18
44 7.6
45 9.4
47 1.1
48 0.2
50 8.7
51 4.8
53 1.4
63 0.36
64 4.8
65 15.1
66 1.3
74 0.18
75 8.5
76 21.7
77 9.5
78 0.26
79 3.4
80 1
81 1.9
90 0.12
91 1.7
92 2.8
93 5.2
94 0.1
103 14
104 17
105 7.7
106 0.1
107 1.2
108 1.1
109 4.9
110 0.1
120 3.7
121 37.3
122 5.6
123 0.11
124 1.3
137 3.8
138 39
139 0.31
141 1
148 14
149 41.4
150 0.53
151 3.8
152 2.7
155 1.8
156 1.3
157 1.2
165 1.2
168 1.1
169 0.28
183 99.99
184 20.9
185 15.9
186 0.18
196 2.4
197 3.4
200 30.6
201 0.5
202 1.9
213 7.1
227 1.4
228 3.9
229 4.8
230 2.6

$$$$

     RDKit          2D

 12 12  0  0  0  0  0  0  0  0999 V2000
   -6.4962    0.7508    0.0000 C   0  0  0  0  0  0  0  0  0  0  0  0
   -5.1970    1.5006    0.0000 C   0  0  0  0  0  0  0  0  0  0  0  0
   -1.3000   -0.7500    0.0000 C   0  0  0  0  0  0  0  0  0  0  0  0
    0.0000    1.5000    0.0000 C   0  0  0  0  0  0  0  0  0  0  0  0
    0.0000   -1.5000    0.0000 C   0  0  0  0  0  0  0  0  0  0  0  0
    1.3000    0.7500    0.0000 C   0  0  0  0  0  0  0  0  0  0  0  0
   -1.3000    0.7500    0.0000 C   0  0  0  0  0  0  0  0  0  0  0  0
    1.3000   -0.7500    0.0000 C   0  0  0  0  0  0  0  0  0  0  0  0
   -2.5989    1.5002    0.0000 C   0  0  0  0  0  0  0  0  0  0  0  0
    2.5989   -1.5002    0.0000 N   0  0  0  0  0  0  0  0  0  0  0  0
   -2.5987    3.0002    0.0000 O   0  0  0  0  0  0  0  0  0  0  0  0
   -3.8981    0.7504    0.0000 O   0  0  0  0  0  0  0  0  0  0  0  0
  2  1  1  0
  5  3  2  0
  6  4  1  0
  7  3  1  0
  7  4  2  0
  8  5  1  0
  8  6  2  0
  9  7  1  0
 10  8  1  0
 11  9  2  0
 12  2  1  0
 12  9  1  0
M  END
>  <NAME>  (1712) 
ETHYL 4-AMINOBENZOATE

>  <SYNONYMS>  (1712) 


>  <SPECTRUM TYPE>  (1712) 
MS1

>  <INSTRUMENT TYPE>  (1712) 
EI-B

>  <INSTRUMENT>  (1712) 
JEOL JMS-DX-300

>  <ION MODE>  (1712) 
P

>  <INCHIKEY>  (1712) 
BLFLLBZGZJTVJG-UHFFFAOYSA-N

>  <FORMULA>  (1712) 
C9H11NO2

>  <EXACT MASS>  (1712) 
165.078978592

>  <MW>  (1712) 
165

>  <ID>  (1712) 
JP009631

>  <CONTRIBUTOR>  (1712) 
University of Tokyo Team, {Faculty of Engineering, University of Tokyo

>  <COMMENT>  (1712) 
SMILES=CCOC(=O)c(c1)ccc(N)c1
InChI=InChI=1S/C9H11NO2/c1-2-12-9(11)7-3-5-8(10)6-4-7/h3-6H,2,10H2,1H3
computed SMILES=O=C(OCC)C1=CC=C(N)C=C1
accession=JP009631
date=2016.01.19 (Created 2008.10.21, modified 2011.05.06)
author=THE INSTITUTE OF SCIENTIFIC AND INDUSTRIALRESEARCH
license=CC BY-NC-SA
exact mass=165.07898
ionization energy=70 eV
ion type=[M]+*
computed spectral entropy=1.9862097757620343
computed normalized entropy=0.6170507605223824
SPLASH=splash10-00di-5900000000-dcd2847110af7c87bf18
submitter=submitter = University of Tokyo Team (Faculty of Engineering, University of Tokyo)
MoNA Rating=3.75

>  <NUM PEAKS>  (1712) 
25

>  <MASS SPECTRAL PEAKS>  (1712) 
26 1.3
27 4.8
29 4.4
39 0.62
40 1.2
41 1.9
44 1.7
52 0.16
63 2.8
64 3
65 22.8
66 0.36
91 3.7
92 24.2
93 5.9
108 0.21
119 1.1
120 99.99
121 11.5
137 1.61
138 1.2
150 1.3
164 1.2
165 4.7
166 4.8

$$$$

     RDKit          2D

 14 14  0  0  0  0  0  0  0  0999 V2000
   -6.4962    0.7508    0.0000 C   0  0  0  0  0  0  0  0  0  0  0  0
   -5.1970    1.5006    0.0000 C   0  0  0  0  0  0  0  0  0  0  0  0
   -1.3000   -0.7500    0.0000 C   0  0  0  0  0  0  0  0  0  0  0  0
    0.0000    1.5000    0.0000 C   0  0  0  0  0  0  0  0  0  0  0  0
    0.0000   -1.5000    0.0000 C   0  0  0  0  0  0  0  0  0  0  0  0
    1.3000    0.7500    0.0000 C   0  0  0  0  0  0  0  0  0  0  0  0
   -1.3000    0.7500    0.0000 C   0  0  0  0  0  0  0  0  0  0  0  0
    1.3000   -0.7500    0.0000 C   0  0  0  0  0  0  0  0  0  0  0  0
   -2.5989    1.5002    0.0000 C   0  0  0  0  0  0  0  0  0  0  0  0
    2.5989   -1.5002    0.0000 N   0  0  0  0  0  0  0  0  0  0  0  0
   -2.5987    3.0002    0.0000 O   0  0  0  0  0  0  0  0  0  0  0  0
    3.8981   -0.7504    0.0000 O   0  0  0  0  0  0  0  0  0  0  0  0
    2.5987   -3.0002    0.0000 O   0  0  0  0  0  0  0  0  0  0  0  0
   -3.8981    0.7504    0.0000 O   0  0  0  0  0  0  0  0  0  0  0  0
  2  1  1  0
  5  3  2  0
  6  4  1  0
  7  3  1  0
  7  4  2  0
  8  5  1  0
  8  6  2  0
  9  7  1  0
 10  8  1  0
 11  9  2  0
 12 10  1  0
 13 10  2  0
 14  2  1  0
 14  9  1  0
M  CHG  2  10   1  12  -1
M  END
>  <NAME>  (1713) 
ETHYL 4-NITROBENZOATE

>  <SYNONYMS>  (1713) 


>  <SPECTRUM TYPE>  (1713) 
MS1

>  <INSTRUMENT TYPE>  (1713) 
EI-B

>  <INSTRUMENT>  (1713) 
JEOL JMS-DX-300

>  <ION MODE>  (1713) 
P

>  <INCHIKEY>  (1713) 
PHWSCBWNPZDYRI-UHFFFAOYSA-N

>  <FORMULA>  (1713) 
C9H9NO4

>  <EXACT MASS>  (1713) 
195.053157768

>  <MW>  (1713) 
195

>  <ID>  (1713) 
JP009630

>  <CONTRIBUTOR>  (1713) 
University of Tokyo Team, {Faculty of Engineering, University of Tokyo

>  <COMMENT>  (1713) 
SMILES=CCOC(=O)c(c1)ccc(c1)[N+1]([O-1])=O
InChI=InChI=1S/C9H9NO4/c1-2-14-9(11)7-3-5-8(6-4-7)10(12)13/h3-6H,2H2,1H3
computed SMILES=O=C(OCC)C1=CC=C(C=C1)N(=O)=O
accession=JP009630
date=2016.01.19 (Created 2008.10.21, modified 2011.05.06)
author=THE INSTITUTE OF SCIENTIFIC AND INDUSTRIALRESEARCH
license=CC BY-NC-SA
exact mass=195.05316
ionization energy=70 eV
ion type=[M]+*
computed spectral entropy=3.1337469509652913
computed normalized entropy=0.8010553482474531
SPLASH=splash10-0ufr-9800000000-3d91bb8dc564f24d5fd6
submitter=submitter = University of Tokyo Team (Faculty of Engineering, University of Tokyo)
MoNA Rating=3.75

>  <NUM PEAKS>  (1713) 
50

>  <MASS SPECTRAL PEAKS>  (1713) 
26 4.3
27 24.2
29 34.5
30 1.95
38 3
39 7.2
43 3.9
44 0.12
45 26
46 3.5
50 35.3
51 0.89
52 1
53 3.4
62 1.8
63 0.67
64 7.1
65 26.7
66 1.9
74 1.27
75 27
76 48.4
77 7.6
81 0.36
91 1
92 22.5
93 4
103 1.24
104 42
105 4.2
109 7
120 1.2
121 15.8
122 2.8
134 7.6
135 1.18
136 1
137 6
148 2.7
149 0.38
150 99.99
151 17.4
152 1.8
167 3.71
168 4.8
178 22.9
179 4.3
194 0.12
195 30.5
196 4.5

$$$$

     RDKit          2D

 15 15  0  0  0  0  0  0  0  0999 V2000
   -6.4962   -0.7508    0.0000 C   0  0  0  0  0  0  0  0  0  0  0  0
    0.0000    3.0000    0.0000 C   0  0  0  0  0  0  0  0  0  0  0  0
    2.5989   -1.5002    0.0000 C   0  0  0  0  0  0  0  0  0  0  0  0
   -5.1970   -1.5006    0.0000 C   0  0  0  0  0  0  0  0  0  0  0  0
   -1.3000    0.7500    0.0000 C   0  0  0  0  0  0  0  0  0  0  0  0
   -0.0000   -1.5000    0.0000 C   0  0  0  0  0  0  0  0  0  0  0  0
    2.5989    1.5002    0.0000 C   0  0  0  0  0  0  0  0  0  0  0  0
    0.0000    1.5000    0.0000 C   0  0  0  0  0  0  0  0  0  0  0  0
    1.3000   -0.7500    0.0000 C   0  0  0  0  0  0  0  0  0  0  0  0
   -1.3000   -0.7500    0.0000 C   0  0  0  0  0  0  0  0  0  0  0  0
    1.3000    0.7500    0.0000 C   0  0  0  0  0  0  0  0  0  0  0  0
   -2.5989   -1.5002    0.0000 C   0  0  0  0  0  0  0  0  0  0  0  0
    3.8978    2.2504    0.0000 N   0  0  0  0  0  0  0  0  0  0  0  0
   -2.5987   -3.0002    0.0000 O   0  0  0  0  0  0  0  0  0  0  0  0
   -3.8981   -0.7504    0.0000 O   0  0  0  0  0  0  0  0  0  0  0  0
  4  1  1  0
  8  2  1  0
  8  5  2  0
  9  3  1  0
  9  6  1  0
 10  5  1  0
 10  6  2  0
 11  7  1  0
 11  8  1  0
 11  9  2  0
 12 10  1  0
 13  7  3  0
 14 12  2  0
 15  4  1  0
 15 12  1  0
M  END
>  <NAME>  (1714) 
ETHYL 4-CYANO-3,5-DIMETHYLBENZOATE

>  <SYNONYMS>  (1714) 


>  <SPECTRUM TYPE>  (1714) 
MS1

>  <INSTRUMENT TYPE>  (1714) 
EI-B

>  <INSTRUMENT>  (1714) 
JEOL JMS-DX-300

>  <ION MODE>  (1714) 
P

>  <INCHIKEY>  (1714) 
PBIVJCCDRQYWSV-UHFFFAOYSA-N

>  <FORMULA>  (1714) 
C12H13NO2

>  <EXACT MASS>  (1714) 
203.094628656

>  <MW>  (1714) 
203

>  <ID>  (1714) 
JP009629

>  <CONTRIBUTOR>  (1714) 
University of Tokyo Team, {Faculty of Engineering, University of Tokyo

>  <COMMENT>  (1714) 
SMILES=CCOC(=O)c(c1)cc(C)c(C#N)c(C)1
InChI=InChI=1S/C12H13NO2/c1-4-15-12(14)10-5-8(2)11(7-13)9(3)6-10/h5-6H,4H2,1-3H3
computed SMILES=N#CC=1C(=CC(=CC1C)C(=O)OCC)C
accession=JP009629
date=2016.01.19 (Created 2008.10.21, modified 2011.05.06)
author=THE INSTITUTE OF SCIENTIFIC AND INDUSTRIALRESEARCH
license=CC BY-NC-SA
exact mass=203.09463
ionization energy=70 eV
ion type=[M]+*
computed spectral entropy=2.5008063503213336
computed normalized entropy=0.6690817021622956
SPLASH=splash10-0pdi-1910000000-f55dac394cbd277e289d
submitter=submitter = University of Tokyo Team (Faculty of Engineering, University of Tokyo)
MoNA Rating=3.75

>  <NUM PEAKS>  (1714) 
42

>  <MASS SPECTRAL PEAKS>  (1714) 
26 1
27 6.2
29 7
39 0.3
40 1.7
43 1
44 5.4
45 0.48
51 2.7
52 1.2
53 1.2
63 0.22
64 1.2
65 1.3
76 1.7
77 1.37
78 2.4
89 1.3
91 1.2
101 0.18
102 5.3
103 16.7
104 6.6
116 0.37
128 4.2
129 3.3
130 25.2
131 0.85
144 2
157 1.6
158 99.99
159 1.61
160 2
174 1
175 54.5
176 0.62
185 1.7
188 13
189 1.5
202 0.12
203 42
204 6

$$$$

     RDKit          2D

 21 22  0  0  0  0  0  0  0  0999 V2000
   -6.4962   -0.7508    0.0000 C   0  0  0  0  0  0  0  0  0  0  0  0
    0.0000    3.0000    0.0000 C   0  0  0  0  0  0  0  0  0  0  0  0
    2.5989   -1.5002    0.0000 C   0  0  0  0  0  0  0  0  0  0  0  0
   -5.1970   -1.5006    0.0000 C   0  0  0  0  0  0  0  0  0  0  0  0
    6.4964   -0.7492    0.0000 C   0  0  0  0  0  0  0  0  0  0  0  0
    6.4966    0.7517    0.0000 C   0  0  0  0  0  0  0  0  0  0  0  0
    5.1970   -1.5002    0.0000 C   0  0  0  0  0  0  0  0  0  0  0  0
    5.1975    1.5015    0.0000 C   0  0  0  0  0  0  0  0  0  0  0  0
    3.8978   -0.7504    0.0000 C   0  0  0  0  0  0  0  0  0  0  0  0
   -1.3000    0.7500    0.0000 C   0  0  0  0  0  0  0  0  0  0  0  0
   -0.0000   -1.5000    0.0000 C   0  0  0  0  0  0  0  0  0  0  0  0
    0.0000    1.5000    0.0000 C   0  0  0  0  0  0  0  0  0  0  0  0
    1.3000   -0.7500    0.0000 C   0  0  0  0  0  0  0  0  0  0  0  0
    3.8981    0.7504    0.0000 C   0  0  0  0  0  0  0  0  0  0  0  0
   -1.3000   -0.7500    0.0000 C   0  0  0  0  0  0  0  0  0  0  0  0
    1.3000    0.7500    0.0000 C   0  0  0  0  0  0  0  0  0  0  0  0
    2.5989    1.5002    0.0000 C   0  0  0  0  0  0  0  0  0  0  0  0
   -2.5989   -1.5002    0.0000 C   0  0  0  0  0  0  0  0  0  0  0  0
    2.5987    3.0002    0.0000 O   0  0  0  0  0  0  0  0  0  0  0  0
   -2.5987   -3.0002    0.0000 O   0  0  0  0  0  0  0  0  0  0  0  0
   -3.8981   -0.7504    0.0000 O   0  0  0  0  0  0  0  0  0  0  0  0
  4  1  1  0
  6  5  2  0
  7  5  1  0
  8  6  1  0
  9  7  2  0
 12  2  1  0
 12 10  2  0
 13  3  1  0
 13 11  1  0
 14  8  2  0
 14  9  1  0
 15 10  1  0
 15 11  2  0
 16 12  1  0
 16 13  2  0
 17 14  1  0
 17 16  1  0
 18 15  1  0
 19 17  2  0
 20 18  2  0
 21  4  1  0
 21 18  1  0
M  END
>  <NAME>  (1715) 
ETHYL 4-BENZOYL-3,5-DIMETHYLBENZOATE

>  <SYNONYMS>  (1715) 


>  <SPECTRUM TYPE>  (1715) 
MS1

>  <INSTRUMENT TYPE>  (1715) 
EI-B

>  <INSTRUMENT>  (1715) 
JEOL JMS-DX-300

>  <ION MODE>  (1715) 
P

>  <INCHIKEY>  (1715) 
HIUGILYOVQDTAN-UHFFFAOYSA-N

>  <FORMULA>  (1715) 
C18H18O3

>  <EXACT MASS>  (1715) 
282.125594436

>  <MW>  (1715) 
282

>  <ID>  (1715) 
JP009628

>  <CONTRIBUTOR>  (1715) 
University of Tokyo Team, {Faculty of Engineering, University of Tokyo

>  <COMMENT>  (1715) 
SMILES=CCOC(=O)c(c2)cc(C)c(c(C)2)C(=O)c(c1)cccc1
InChI=InChI=1S/C18H18O3/c1-4-21-18(20)15-10-12(2)16(13(3)11-15)17(19)14-8-6-5-7-9-14/h5-11H,4H2,1-3H3
computed SMILES=O=C(OCC)C=1C=C(C(C(=O)C=2C=CC=CC2)=C(C1)C)C
accession=JP009628
date=2016.01.19 (Created 2008.10.21, modified 2011.05.06)
author=THE INSTITUTE OF SCIENTIFIC AND INDUSTRIALRESEARCH
license=CC BY-NC-SA
exact mass=282.12559
ionization energy=70 eV
ion type=[M]+*
computed spectral entropy=3.3159221978474562
computed normalized entropy=0.7753521330793903
SPLASH=splash10-001i-2290000000-e0ff2ccff89c884e5887
submitter=submitter = University of Tokyo Team (Faculty of Engineering, University of Tokyo)
MoNA Rating=3.75

>  <NUM PEAKS>  (1715) 
72

>  <MASS SPECTRAL PEAKS>  (1715) 
26 1
27 5.6
29 13
39 0.18
40 1.1
41 1.3
43 5.7
44 0.31
45 2.7
51 5.3
53 1.4
63 0.11
65 1.7
76 1.7
77 40.8
78 0.85
79 2.6
89 1.2
91 4.1
93 0.18
102 1.4
103 10.5
104 7.9
105 4.74
106 3.8
115 1.1
121 3.6
131 0.31
132 6.8
133 4.7
149 9.5
150 0.2
152 1.4
165 8.4
166 4.3
176 0.3
177 16.9
178 6.6
179 3
181 0.17
191 2.8
192 4.8
193 4
194 0.75
195 1.8
204 4.4
205 23.8
206 0.36
207 3.2
208 16.7
209 18.4
210 0.36
221 2.4
222 6
223 1.1
235 1.29
236 8.4
237 20.7
238 4.7
239 0.17
250 1.2
252 1.7
253 4.4
254 0.18
264 10
265 4.2
267 6.4
268 0.15
281 67.2
282 99.99
283 20.2
284 2.6

$$$$

     RDKit          2D

 14 14  0  0  0  0  0  0  0  0999 V2000
    2.5989    0.7506    0.0000 C   0  0  0  0  0  0  0  0  0  0  0  0
   -3.8972   -3.0002    0.0000 C   0  0  0  0  0  0  0  0  0  0  0  0
   -6.4962    1.5000    0.0000 C   0  0  0  0  0  0  0  0  0  0  0  0
   -6.4962   -1.5004    0.0000 C   0  0  0  0  0  0  0  0  0  0  0  0
    1.2998    1.5004    0.0000 C   0  0  0  0  0  0  0  0  0  0  0  0
   -2.5972   -0.7502    0.0000 C   0  0  0  0  0  0  0  0  0  0  0  0
   -3.8972    1.4998    0.0000 C   0  0  0  0  0  0  0  0  0  0  0  0
   -3.8972   -1.5002    0.0000 C   0  0  0  0  0  0  0  0  0  0  0  0
   -5.1972    0.7498    0.0000 C   0  0  0  0  0  0  0  0  0  0  0  0
   -5.1972   -0.7502    0.0000 C   0  0  0  0  0  0  0  0  0  0  0  0
   -2.5972    0.7498    0.0000 C   0  0  0  0  0  0  0  0  0  0  0  0
   -1.2983    1.5000    0.0000 C   0  0  0  0  0  0  0  0  0  0  0  0
   -1.2986    3.0000    0.0000 O   0  0  0  0  0  0  0  0  0  0  0  0
    0.0008    0.7502    0.0000 O   0  0  0  0  0  0  0  0  0  0  0  0
  5  1  1  0
  8  2  1  0
  8  6  2  0
  9  3  1  0
  9  7  1  0
 10  4  1  0
 10  8  1  0
 10  9  2  0
 11  6  1  0
 11  7  2  0
 12 11  1  0
 13 12  2  0
 14  5  1  0
 14 12  1  0
M  END
>  <NAME>  (1716) 
ETHYL 3,4,5-TRIMETHYLBENZOATE

>  <SYNONYMS>  (1716) 


>  <SPECTRUM TYPE>  (1716) 
MS1

>  <INSTRUMENT TYPE>  (1716) 
EI-B

>  <INSTRUMENT>  (1716) 
JEOL JMS-DX-300

>  <ION MODE>  (1716) 
P

>  <INCHIKEY>  (1716) 
KPJDFDDXGVPHRI-UHFFFAOYSA-N

>  <FORMULA>  (1716) 
C12H16O2

>  <EXACT MASS>  (1716) 
192.115029752

>  <MW>  (1716) 
192

>  <ID>  (1716) 
JP009627

>  <CONTRIBUTOR>  (1716) 
University of Tokyo Team, {Faculty of Engineering, University of Tokyo

>  <COMMENT>  (1716) 
SMILES=CCOC(=O)c(c1)cc(C)c(C)c(C)1
InChI=InChI=1S/C12H16O2/c1-5-14-12(13)11-6-8(2)10(4)9(3)7-11/h6-7H,5H2,1-4H3
computed SMILES=O=C(OCC)C=1C=C(C(=C(C1)C)C)C
accession=JP009627
date=2016.01.19 (Created 2008.10.21, modified 2011.05.06)
author=THE INSTITUTE OF SCIENTIFIC AND INDUSTRIALRESEARCH
license=CC BY-NC-SA
exact mass=192.11503
ionization energy=70 eV
ion type=[M]+*
computed spectral entropy=2.586663455406686
computed normalized entropy=0.7012057421724557
SPLASH=splash10-0005-2900000000-73cda044bbdcdffc2a0d
submitter=submitter = University of Tokyo Team (Faculty of Engineering, University of Tokyo)
MoNA Rating=3.75

>  <NUM PEAKS>  (1716) 
40

>  <MASS SPECTRAL PEAKS>  (1716) 
26 1
27 6.8
29 10.7
30 0.13
39 4
41 6.9
43 2.5
44 0.11
51 2.4
53 2.5
63 1.5
65 0.37
77 8.8
78 3.8
79 3.7
91 1.68
92 1.7
93 2
102 1.1
103 0.65
104 4.6
105 5.3
115 4.7
116 0.12
117 6.3
118 2.9
119 25.4
120 0.4
133 2.8
146 1.5
147 99.99
148 1.48
149 2.3
163 1.4
164 23.1
165 0.26
177 7.2
191 1.7
192 51.6
193 7

$$$$

     RDKit          2D

 15 16  0  0  0  0  0  0  0  0999 V2000
   -5.8542    3.6957    0.0000 C   0  0  0  0  0  0  0  0  0  0  0  0
   -5.8547    2.1948    0.0000 C   0  0  0  0  0  0  0  0  0  0  0  0
   -4.5547    4.4465    0.0000 C   0  0  0  0  0  0  0  0  0  0  0  0
    0.6488    4.4517    0.0000 C   0  0  0  0  0  0  0  0  0  0  0  0
   -4.5557    1.4448    0.0000 C   0  0  0  0  0  0  0  0  0  0  0  0
   -3.2557    3.6965    0.0000 C   0  0  0  0  0  0  0  0  0  0  0  0
   -0.6535    3.6957    0.0000 C   0  0  0  0  0  0  0  0  0  0  0  0
    1.9465    3.6877    0.0000 C   0  0  0  0  0  0  0  0  0  0  0  0
    0.6397    1.4517    0.0000 C   0  0  0  0  0  0  0  0  0  0  0  0
   -3.2562    2.1957    0.0000 C   0  0  0  0  0  0  0  0  0  0  0  0
   -0.6581    2.1957    0.0000 C   0  0  0  0  0  0  0  0  0  0  0  0
    1.9419    2.1877    0.0000 C   0  0  0  0  0  0  0  0  0  0  0  0
   -1.9571    1.4457    0.0000 C   0  0  0  0  0  0  0  0  0  0  0  0
    3.2363    1.4298    0.0000 Cl  0  0  0  0  0  0  0  0  0  0  0  0
   -1.9571   -0.0543    0.0000 O   0  0  0  0  0  0  0  0  0  0  0  0
  2  1  2  0
  3  1  1  0
  5  2  1  0
  6  3  2  0
  7  4  2  0
  8  4  1  0
 10  5  2  0
 10  6  1  0
 11  7  1  0
 11  9  2  0
 12  8  2  0
 12  9  1  0
 13 10  1  0
 13 11  1  0
 14 12  1  0
 15 13  1  0
M  END
>  <NAME>  (1717) 
3-CHLOROBENZHYDROL

>  <SYNONYMS>  (1717) 
ALPHA-(3-CHLOROPHENYL)-ALPHA-PHENYLMETHANOL

>  <SPECTRUM TYPE>  (1717) 
MS1

>  <INSTRUMENT TYPE>  (1717) 
EI-B

>  <INSTRUMENT>  (1717) 
JEOL JMS-DX-300

>  <ION MODE>  (1717) 
P

>  <INCHIKEY>  (1717) 
DDCJHFYXAPQYLA-UHFFFAOYSA-N

>  <FORMULA>  (1717) 
C13H11ClO

>  <EXACT MASS>  (1717) 
218.049842652

>  <MW>  (1717) 
218

>  <ID>  (1717) 
JP009626

>  <CONTRIBUTOR>  (1717) 
University of Tokyo Team, {Faculty of Engineering, University of Tokyo

>  <COMMENT>  (1717) 
SMILES=Clc(c2)cc(cc2)C(O)c(c1)cccc1
InChI=InChI=1S/C13H11ClO/c14-12-8-4-7-11(9-12)13(15)10-5-2-1-3-6-10/h1-9,13,15H
computed SMILES=ClC1=CC=CC(=C1)C(O)C=2C=CC=CC2
accession=JP009626
date=2016.01.19 (Created 2008.10.21, modified 2011.05.06)
author=THE INSTITUTE OF SCIENTIFIC AND INDUSTRIALRESEARCH
license=CC BY-NC-SA
exact mass=218.04984
ionization energy=70 eV
ion type=[M]+*
computed spectral entropy=3.0314013579163364
computed normalized entropy=0.7434392447939536
SPLASH=splash10-056r-9810000000-621d48f96413ee2a9a35
submitter=submitter = University of Tokyo Team (Faculty of Engineering, University of Tokyo)
MoNA Rating=3.75

>  <NUM PEAKS>  (1717) 
59

>  <MASS SPECTRAL PEAKS>  (1717) 
27 3.8
29 4.6
38 1.3
39 0.62
44 1.3
50 12.5
51 29.2
52 0.54
53 2.2
62 2
63 5
65 0.1
73 1.1
74 5
75 15.5
76 0.77
77 75.6
78 29
79 28.9
80 0.19
82 1.8
83 1.6
85 1.6
86 0.11
87 2
89 2.6
104 1.2
105 99.99
106 12.1
107 9
111 13.4
112 0.73
113 9.8
114 3
115 3.7
126 0.11
127 1.4
139 27.4
140 3.3
141 1.5
142 1.3
143 2
151 1.6
152 0.5
153 4
154 1.6
155 1.3
163 0.23
164 2
165 11.5
166 3.8
181 0.14
183 6.9
184 4.4
201 1.6
217 0.39
218 15.8
219 3.3
220 5.4

$$$$

     RDKit          2D

 13 14  0  0  0  0  0  0  0  0999 V2000
    2.4790    3.4800    0.0000 C   0  0  0  0  0  0  0  0  0  0  0  0
   -2.7200   -1.0200    0.0000 C   0  0  0  0  0  0  0  0  0  0  0  0
   -2.7200    0.4800    0.0000 C   0  0  0  0  0  0  0  0  0  0  0  0
    2.4800   -1.0200    0.0000 C   0  0  0  0  0  0  0  0  0  0  0  0
   -1.4200   -1.7700    0.0000 C   0  0  0  0  0  0  0  0  0  0  0  0
    1.1800   -1.7700    0.0000 C   0  0  0  0  0  0  0  0  0  0  0  0
   -1.4200    1.2300    0.0000 C   0  0  0  0  0  0  0  0  0  0  0  0
    2.4800    0.4800    0.0000 C   0  0  0  0  0  0  0  0  0  0  0  0
    1.1800    2.7300    0.0000 C   0  0  0  0  0  0  0  0  0  0  0  0
   -0.1200   -1.0200    0.0000 C   0  0  0  0  0  0  0  0  0  0  0  0
    1.1800    1.2300    0.0000 C   0  0  0  0  0  0  0  0  0  0  0  0
   -0.1200    0.4800    0.0000 C   0  0  0  0  0  0  0  0  0  0  0  0
   -0.1190    3.4800    0.0000 O   0  0  0  0  0  0  0  0  0  0  0  0
  3  2  2  0
  5  2  1  0
  6  4  2  0
  7  3  1  0
  8  4  1  0
  9  1  1  0
 10  5  2  0
 10  6  1  0
 11  8  2  0
 11  9  1  0
 12  7  2  0
 12 10  1  0
 12 11  1  0
 13  9  1  0
M  END
>  <NAME>  (1718) 
1-(1-NAPHTHYL)ETHYL ALCOHOL

>  <SYNONYMS>  (1718) 


>  <SPECTRUM TYPE>  (1718) 
MS1

>  <INSTRUMENT TYPE>  (1718) 
EI-B

>  <INSTRUMENT>  (1718) 
JEOL JMS-DX-300

>  <ION MODE>  (1718) 
P

>  <INCHIKEY>  (1718) 
CDRQOYRPWJULJN-UHFFFAOYSA-N

>  <FORMULA>  (1718) 
C12H12O

>  <EXACT MASS>  (1718) 
172.088815004

>  <MW>  (1718) 
172

>  <ID>  (1718) 
JP009625

>  <CONTRIBUTOR>  (1718) 
University of Tokyo Team, {Faculty of Engineering, University of Tokyo

>  <COMMENT>  (1718) 
SMILES=CC(O)c(c1)c(c2)c(ccc2)cc1
InChI=InChI=1S/C12H12O/c1-9(13)11-8-4-6-10-5-2-3-7-12(10)11/h2-9,13H,1H3
computed SMILES=OC(C1=CC=CC=2C=CC=CC21)C
accession=JP009625
date=2016.01.19 (Created 2008.10.21, modified 2011.05.06)
author=THE INSTITUTE OF SCIENTIFIC AND INDUSTRIALRESEARCH
license=CC BY-NC-SA
exact mass=172.08882
ionization energy=70 eV
ion type=[M]+*
computed spectral entropy=2.71518082414233
computed normalized entropy=0.7091760608951728
SPLASH=splash10-004i-2900000000-406226a0fcd8346bdd0e
submitter=submitter = University of Tokyo Team (Faculty of Engineering, University of Tokyo)
MoNA Rating=3.75

>  <NUM PEAKS>  (1718) 
46

>  <MASS SPECTRAL PEAKS>  (1718) 
27 4.5
29 9.5
39 4.5
43 1.95
44 2.8
45 3.4
50 3.8
51 0.74
52 1.4
62 2.1
63 6.5
64 0.28
65 1
74 4.2
75 6.2
76 0.49
77 8.8
78 3.6
79 2.5
86 0.14
87 2.1
89 1.9
98 1.2
101 0.42
102 6
103 1.3
115 4.8
126 0.82
127 28.2
128 48.4
129 99.99
130 1.07
139 1.8
141 2
143 1.6
151 0.17
152 4.7
153 4.8
154 1.8
155 0.5
156 1.3
157 38.9
158 4.7
171 0.12
172 41.5
173 5.7

$$$$

     RDKit          2D

 10 10  0  0  0  0  0  0  0  0999 V2000
    2.5989   -0.7496    0.0000 C   0  0  0  0  0  0  0  0  0  0  0  0
    0.0008   -2.2500    0.0000 C   0  0  0  0  0  0  0  0  0  0  0  0
   -1.2992    0.0000    0.0000 C   0  0  0  0  0  0  0  0  0  0  0  0
   -1.2992   -3.0000    0.0000 C   0  0  0  0  0  0  0  0  0  0  0  0
   -2.5992   -0.7500    0.0000 C   0  0  0  0  0  0  0  0  0  0  0  0
    1.2998    0.0002    0.0000 C   0  0  0  0  0  0  0  0  0  0  0  0
    0.0008   -0.7500    0.0000 C   0  0  0  0  0  0  0  0  0  0  0  0
   -2.5992   -2.2500    0.0000 C   0  0  0  0  0  0  0  0  0  0  0  0
   -3.8981   -3.0002    0.0000 I   0  0  0  0  0  0  0  0  0  0  0  0
    1.2995    1.5002    0.0000 O   0  0  0  0  0  0  0  0  0  0  0  0
  4  2  2  0
  5  3  1  0
  6  1  1  0
  7  2  1  0
  7  3  2  0
  7  6  1  0
  8  4  1  0
  8  5  2  0
  9  8  1  0
 10  6  1  0
M  END
>  <NAME>  (1719) 
1-(4-IODOPHENYL)ETHYL ALCOHOL

>  <SYNONYMS>  (1719) 


>  <SPECTRUM TYPE>  (1719) 
MS1

>  <INSTRUMENT TYPE>  (1719) 
EI-B

>  <INSTRUMENT>  (1719) 
JEOL JMS-DX-300

>  <ION MODE>  (1719) 
P

>  <INCHIKEY>  (1719) 
KWUDBZIJCVKUHM-UHFFFAOYSA-N

>  <FORMULA>  (1719) 
C8H9IO

>  <EXACT MASS>  (1719) 
247.969812908

>  <MW>  (1719) 
248

>  <ID>  (1719) 
JP009624

>  <CONTRIBUTOR>  (1719) 
University of Tokyo Team, {Faculty of Engineering, University of Tokyo

>  <COMMENT>  (1719) 
SMILES=CC(O)c(c1)ccc(I)c1
InChI=InChI=1S/C8H9IO/c1-6(10)7-2-4-8(9)5-3-7/h2-6,10H,1H3
computed SMILES=IC1=CC=C(C=C1)C(O)C
accession=JP009624
date=2016.01.19 (Created 2008.10.21, modified 2011.05.06)
author=THE INSTITUTE OF SCIENTIFIC AND INDUSTRIALRESEARCH
license=CC BY-NC-SA
exact mass=247.96981
ionization energy=70 eV
ion type=[M]+*
computed spectral entropy=3.017018876939181
computed normalized entropy=0.7563376643578581
SPLASH=splash10-004l-9220000000-bf5e1e8ceeb00d235220
submitter=submitter = University of Tokyo Team (Faculty of Engineering, University of Tokyo)
MoNA Rating=3.75

>  <NUM PEAKS>  (1719) 
54

>  <MASS SPECTRAL PEAKS>  (1719) 
26 1.1
27 7.2
29 7.6
37 0.15
38 3.6
39 10.6
40 1.1
41 0.11
42 1
43 76.6
44 4.8
45 1.08
49 1.4
50 29.7
51 32.3
52 0.93
53 2.8
55 1.2
61 1.2
62 0.39
63 7.5
64 1.2
65 4.6
73 0.19
74 12.3
75 10.1
76 21
77 4.34
78 99.99
79 9.7
89 2.2
91 0.86
92 2
93 1
102 2
103 0.38
104 6.2
105 16
106 12.7
107 0.2
117 2.6
120 1.2
121 39.2
122 0.38
127 17.8
128 4.2
203 4.2
204 0.39
205 4.2
231 5.6
233 55.3
234 0.42
248 39.4
249 3.8

$$$$

     RDKit          2D

 16 17  0  0  0  0  0  0  0  0999 V2000
    2.6101    2.9936    0.0000 C   0  0  0  0  0  0  0  0  0  0  0  0
   -6.5291    0.7092    0.0000 C   0  0  0  0  0  0  0  0  0  0  0  0
   -5.2362    1.4696    0.0000 C   0  0  0  0  0  0  0  0  0  0  0  0
   -6.5165   -0.7916    0.0000 C   0  0  0  0  0  0  0  0  0  0  0  0
   -3.9306    0.7293    0.0000 C   0  0  0  0  0  0  0  0  0  0  0  0
   -5.2109   -1.5319    0.0000 C   0  0  0  0  0  0  0  0  0  0  0  0
    1.3000   -0.7500    0.0000 C   0  0  0  0  0  0  0  0  0  0  0  0
    0.0300    1.5000    0.0000 C   0  0  0  0  0  0  0  0  0  0  0  0
    0.0300   -1.5000    0.0000 C   0  0  0  0  0  0  0  0  0  0  0  0
   -1.3200    0.7500    0.0000 C   0  0  0  0  0  0  0  0  0  0  0  0
    2.6027    1.4936    0.0000 C   0  0  0  0  0  0  0  0  0  0  0  0
    1.3000    0.7500    0.0000 C   0  0  0  0  0  0  0  0  0  0  0  0
   -3.9180   -0.7714    0.0000 C   0  0  0  0  0  0  0  0  0  0  0  0
   -1.3200   -0.7500    0.0000 C   0  0  0  0  0  0  0  0  0  0  0  0
    3.8980    0.7372    0.0000 O   0  0  0  0  0  0  0  0  0  0  0  0
   -2.6128   -1.5107    0.0000 O   0  0  0  0  0  0  0  0  0  0  0  0
  3  2  2  0
  4  2  1  0
  5  3  1  0
  6  4  2  0
  9  7  2  0
 10  8  1  0
 11  1  1  0
 12  7  1  0
 12  8  2  0
 12 11  1  0
 13  5  2  0
 13  6  1  0
 14  9  1  0
 14 10  2  0
 15 11  1  0
 16 13  1  0
 16 14  1  0
M  END
>  <NAME>  (1720) 
1-(4-PHENOXYPHENYL)ETHYL ALCOHOL

>  <SYNONYMS>  (1720) 


>  <SPECTRUM TYPE>  (1720) 
MS1

>  <INSTRUMENT TYPE>  (1720) 
EI-B

>  <INSTRUMENT>  (1720) 
JEOL JMS-DX-300

>  <ION MODE>  (1720) 
P

>  <INCHIKEY>  (1720) 
HCIFMENZOKGFEI-UHFFFAOYSA-N

>  <FORMULA>  (1720) 
C14H14O2

>  <EXACT MASS>  (1720) 
214.099379688

>  <MW>  (1720) 
214

>  <ID>  (1720) 
JP009623

>  <CONTRIBUTOR>  (1720) 
University of Tokyo Team, {Faculty of Engineering, University of Tokyo

>  <COMMENT>  (1720) 
SMILES=CC(O)c(c2)ccc(c2)Oc(c1)cccc1
InChI=InChI=1S/C14H14O2/c1-11(15)12-7-9-14(10-8-12)16-13-5-3-2-4-6-13/h2-11,15H,1H3
computed SMILES=OC(C1=CC=C(OC=2C=CC=CC2)C=C1)C
accession=JP009623
date=2016.01.19 (Created 2008.10.21, modified 2011.05.06)
author=THE INSTITUTE OF SCIENTIFIC AND INDUSTRIALRESEARCH
license=CC BY-NC-SA
exact mass=214.09938
ionization energy=70 eV
ion type=[M]+*
computed spectral entropy=3.387777580974436
computed normalized entropy=0.7645943704688563
SPLASH=splash10-02bb-9720000000-0219e813ec5bab5f98b7
submitter=submitter = University of Tokyo Team (Faculty of Engineering, University of Tokyo)
MoNA Rating=3.75

>  <NUM PEAKS>  (1720) 
84

>  <MASS SPECTRAL PEAKS>  (1720) 
27 7.2
29 8
38 2.8
39 1.98
40 2.9
41 6.8
42 1.5
43 4.74
44 3.4
45 7
50 9.6
51 3.8
52 4.2
53 2.8
55 5.7
56 0.17
57 6.1
62 1.8
63 7.9
64 0.39
65 45.6
66 10.3
67 2.4
68 0.11
69 2.5
70 1.1
71 3.3
74 0.23
75 2.9
76 4
77 57.5
78 1.08
79 2.7
81 1.8
83 1.8
85 0.22
89 2.3
91 8
92 2.2
93 3.73
94 11.5
95 5.3
97 1.6
99 0.1
100 4.8
102 1.3
103 2.8
104 0.24
105 2.8
106 1.2
107 1.8
115 1.15
116 1.4
119 1.3
120 1.3
121 0.4
122 3.4
123 1.2
127 1.2
128 0.42
139 3.2
141 9.8
142 2.7
143 0.12
151 1.2
152 6
153 16.2
154 0.24
165 1
168 1.4
169 2.8
170 0.25
171 16
172 2.1
181 1.8
196 0.12
197 8.7
198 2.8
199 99.99
200 1.4
201 1.4
213 1.8
214 51.2
215 8

$$$$

     RDKit          2D

 21 23  0  0  0  0  0  0  0  0999 V2000
   -4.2258    2.7585    0.0000 C   0  0  0  0  0  0  0  0  0  0  0  0
   -2.9262    2.0076    0.0000 C   0  0  0  0  0  0  0  0  0  0  0  0
   -4.2262    4.2593    0.0000 C   0  0  0  0  0  0  0  0  0  0  0  0
    7.4769    6.5042    0.0000 C   0  0  0  0  0  0  0  0  0  0  0  0
   -1.6272    2.7576    0.0000 C   0  0  0  0  0  0  0  0  0  0  0  0
   -2.9272    5.0093    0.0000 C   0  0  0  0  0  0  0  0  0  0  0  0
    6.1710    7.2541    0.0000 C   0  0  0  0  0  0  0  0  0  0  0  0
    7.4641    4.9984    0.0000 C   0  0  0  0  0  0  0  0  0  0  0  0
   -0.3284    6.5085    0.0000 C   0  0  0  0  0  0  0  0  0  0  0  0
    0.9712    4.2583    0.0000 C   0  0  0  0  0  0  0  0  0  0  0  0
    0.9717    7.2583    0.0000 C   0  0  0  0  0  0  0  0  0  0  0  0
    2.2714    5.0080    0.0000 C   0  0  0  0  0  0  0  0  0  0  0  0
    4.8742    5.0122    0.0000 C   0  0  0  0  0  0  0  0  0  0  0  0
   -1.6277    4.2585    0.0000 C   0  0  0  0  0  0  0  0  0  0  0  0
   -0.3286    5.0085    0.0000 C   0  0  0  0  0  0  0  0  0  0  0  0
    2.2716    6.5080    0.0000 C   0  0  0  0  0  0  0  0  0  0  0  0
    4.8697    6.5080    0.0000 C   0  0  0  0  0  0  0  0  0  0  0  0
    6.1628    4.2524    0.0000 C   0  0  0  0  0  0  0  0  0  0  0  0
    3.5706    7.2580    0.0000 C   0  0  0  0  0  0  0  0  0  0  0  0
    6.1536    2.7524    0.0000 Cl  0  0  0  0  0  0  0  0  0  0  0  0
    3.5706    8.7580    0.0000 O   0  0  0  0  0  0  0  0  0  0  0  0
  2  1  2  0
  3  1  1  0
  5  2  1  0
  6  3  2  0
  7  4  2  0
  8  4  1  0
 11  9  2  0
 12 10  1  0
 14  5  2  0
 14  6  1  0
 15  9  1  0
 15 10  2  0
 15 14  1  0
 16 11  1  0
 16 12  2  0
 17  7  1  0
 17 13  2  0
 18  8  2  0
 18 13  1  0
 19 16  1  0
 19 17  1  0
 20 18  1  0
 21 19  2  0
M  END
>  <NAME>  (1721) 
4-BIPHENYLYL 3-CHLOROPHENYL KETONE

>  <SYNONYMS>  (1721) 
3-CHLORO-4'-PHENYLBENZOPHENONE

>  <SPECTRUM TYPE>  (1721) 
MS1

>  <INSTRUMENT TYPE>  (1721) 
EI-B

>  <INSTRUMENT>  (1721) 
JEOL JMS-DX-300

>  <ION MODE>  (1721) 
P

>  <INCHIKEY>  (1721) 
IIMHFJOYSGKNFB-UHFFFAOYSA-N

>  <FORMULA>  (1721) 
C19H13ClO

>  <EXACT MASS>  (1721) 
292.065492716

>  <MW>  (1721) 
292

>  <ID>  (1721) 
JP009622

>  <CONTRIBUTOR>  (1721) 
University of Tokyo Team, {Faculty of Engineering, University of Tokyo

>  <COMMENT>  (1721) 
SMILES=Clc(c3)cc(cc3)C(=O)c(c2)ccc(c2)c(c1)cccc1
InChI=InChI=1S/C19H13ClO/c20-18-8-4-7-17(13-18)19(21)16-11-9-15(10-12-16)14-5-2-1-3-6-14/h1-13H
computed SMILES=O=C(C=1C=CC(=CC1)C=2C=CC=CC2)C=3C=CC=C(Cl)C3
accession=JP009622
date=2016.01.19 (Created 2008.10.21, modified 2011.05.06)
author=THE INSTITUTE OF SCIENTIFIC AND INDUSTRIALRESEARCH
license=CC BY-NC-SA
exact mass=292.06549
ionization energy=70 eV
ion type=[M]+*
computed spectral entropy=2.8878610858574074
computed normalized entropy=0.7174183295596708
SPLASH=splash10-0f8c-4910000000-51015ceabdcb9d460e32
submitter=submitter = University of Tokyo Team (Faculty of Engineering, University of Tokyo)
MoNA Rating=3.75

>  <NUM PEAKS>  (1721) 
56

>  <MASS SPECTRAL PEAKS>  (1721) 
27 1.7
29 2
39 2.9
40 0.1
41 1.1
43 1.2
44 69.3
45 0.21
50 8.2
51 9.8
52 1.2
62 0.11
63 3.9
74 4.7
75 23.8
76 1.08
77 8.4
78 1
85 1.8
87 0.2
89 1
99 1
101 2.9
102 0.38
111 28.7
112 2.2
113 10.3
114 0.15
115 1.3
125 1
126 5.9
127 0.84
128 1.2
132 3.5
133 1.1
139 1.66
140 1.3
141 5.2
150 5
151 1.79
152 67
153 33
154 3.7
181 99.99
182 14.2
183 1.2
226 2.9
227 0.12
228 2.6
257 5
258 1.1
264 0.1
292 30.3
293 6.8
294 9.5
295 1.7

$$$$

     RDKit          2D

 22 25  0  0  0  0  0  0  0  0999 V2000
    3.6900    0.1600    0.0000 C   0  0  0  0  0  0  0  0  0  0  0  0
    3.2200   -1.2700    0.0000 C   0  0  0  0  0  0  0  0  0  0  0  0
   -6.7021   -3.1875    0.0000 C   0  0  0  0  0  0  0  0  0  0  0  0
    2.6800    1.2700    0.0000 C   0  0  0  0  0  0  0  0  0  0  0  0
   -5.6953   -2.0676    0.0000 C   0  0  0  0  0  0  0  0  0  0  0  0
   -8.1718   -2.8595    0.0000 C   0  0  0  0  0  0  0  0  0  0  0  0
    1.7500   -1.5800    0.0000 C   0  0  0  0  0  0  0  0  0  0  0  0
   -3.2200   -1.2700    0.0000 C   0  0  0  0  0  0  0  0  0  0  0  0
   -1.7500   -1.5800    0.0000 C   0  0  0  0  0  0  0  0  0  0  0  0
   -0.0000    1.8400    0.0000 C   0  0  0  0  0  0  0  0  0  0  0  0
   -2.6800    1.2700    0.0000 C   0  0  0  0  0  0  0  0  0  0  0  0
   -7.6158   -0.3300    0.0000 C   0  0  0  0  0  0  0  0  0  0  0  0
    1.2100    0.9600    0.0000 C   0  0  0  0  0  0  0  0  0  0  0  0
   -6.1522   -0.6389    0.0000 C   0  0  0  0  0  0  0  0  0  0  0  0
   -3.6800    0.1600    0.0000 C   0  0  0  0  0  0  0  0  0  0  0  0
   -1.2100    0.9600    0.0000 C   0  0  0  0  0  0  0  0  0  0  0  0
   -8.6287   -1.4308    0.0000 C   0  0  0  0  0  0  0  0  0  0  0  0
    0.7500   -0.4700    0.0000 C   0  0  0  0  0  0  0  0  0  0  0  0
   -0.7500   -0.4700    0.0000 C   0  0  0  0  0  0  0  0  0  0  0  0
   -5.1467    0.4742    0.0000 C   0  0  0  0  0  0  0  0  0  0  0  0
  -10.0934   -1.1076    0.0000 Cl  0  0  0  0  0  0  0  0  0  0  0  0
   -5.6080    1.9015    0.0000 O   0  0  0  0  0  0  0  0  0  0  0  0
  2  1  2  0
  4  1  1  0
  5  3  2  0
  6  3  1  0
  7  2  1  0
  9  8  1  0
 13  4  2  0
 13 10  1  0
 14  5  1  0
 14 12  2  0
 15  8  2  0
 15 11  1  0
 16 10  1  0
 16 11  2  0
 17  6  2  0
 17 12  1  0
 18  7  2  0
 18 13  1  0
 19  9  2  0
 19 16  1  0
 19 18  1  0
 20 14  1  0
 20 15  1  0
 21 17  1  0
 22 20  2  0
M  END
>  <NAME>  (1722) 
3-CHLOROPHENYL 2-FLUORENYL KETONE

>  <SYNONYMS>  (1722) 


>  <SPECTRUM TYPE>  (1722) 
MS1

>  <INSTRUMENT TYPE>  (1722) 
EI-B

>  <INSTRUMENT>  (1722) 
JEOL JMS-DX-300

>  <ION MODE>  (1722) 
P

>  <INCHIKEY>  (1722) 
BYCULHXMOSCHIW-UHFFFAOYSA-N

>  <FORMULA>  (1722) 
C20H13ClO

>  <EXACT MASS>  (1722) 
304.065492716

>  <MW>  (1722) 
304

>  <ID>  (1722) 
JP009621

>  <CONTRIBUTOR>  (1722) 
University of Tokyo Team, {Faculty of Engineering, University of Tokyo

>  <COMMENT>  (1722) 
SMILES=Clc(c4)cc(cc4)C(=O)c(c3)cc(C1)c(c3)c(c2)c(ccc2)1
InChI=InChI=1S/C20H13ClO/c21-17-6-3-5-14(12-17)20(22)15-8-9-19-16(11-15)10-13-4-1-2-7-18(13)19/h1-9,11-12H,10H2
computed SMILES=O=C(C=1C=CC=C(Cl)C1)C2=CC=C3C=4C=CC=CC4CC3=C2
accession=JP009621
date=2016.01.19 (Created 2008.10.21, modified 2011.05.06)
author=THE INSTITUTE OF SCIENTIFIC AND INDUSTRIALRESEARCH
license=CC BY-NC-SA
exact mass=304.06549
ionization energy=70 eV
ion type=[M]+*
computed spectral entropy=2.746940782120204
computed normalized entropy=0.7258993464542476
SPLASH=splash10-00ko-1902000000-ccd96d97aded2320b4bf
submitter=submitter = University of Tokyo Team (Faculty of Engineering, University of Tokyo)
MoNA Rating=3.75

>  <NUM PEAKS>  (1722) 
44

>  <MASS SPECTRAL PEAKS>  (1722) 
29 4.2
36 1.8
39 1
40 0.79
41 1.3
44 38.4
50 1.5
51 0.15
59 2.2
63 3.1
75 5.9
76 0.24
87 1.5
89 1.5
105 1.5
111 1.71
112 1.3
113 6.6
115 4.2
119 0.13
120 7.7
121 1.9
138 5.5
139 99.99
140 8.1
141 33
142 2.2
162 0.19
163 17.5
164 17.5
165 73.2
166 1.32
167 1
193 63.7
194 10.1
237 0.18
239 5.9
240 1.8
269 1.9
270 0.1
304 65.3
305 14.7
306 23
307 4.6

$$$$

     RDKit          2D

 22 24  0  0  0  0  0  0  0  0999 V2000
   -1.6700   -0.9600    0.0000 C   0  0  0  0  0  0  0  0  0  0  0  0
   -1.6700    0.5400    0.0000 C   0  0  0  0  0  0  0  0  0  0  0  0
   -0.3700   -1.7100    0.0000 C   0  0  0  0  0  0  0  0  0  0  0  0
   10.0587    1.2054    0.0000 C   0  0  0  0  0  0  0  0  0  0  0  0
    8.7467    0.4664    0.0000 C   0  0  0  0  0  0  0  0  0  0  0  0
   11.3464    0.4246    0.0000 C   0  0  0  0  0  0  0  0  0  0  0  0
   -0.3700    1.2900    0.0000 C   0  0  0  0  0  0  0  0  0  0  0  0
    0.9300   -0.9600    0.0000 C   0  0  0  0  0  0  0  0  0  0  0  0
    4.8197   -1.7391    0.0000 C   0  0  0  0  0  0  0  0  0  0  0  0
    6.1512    0.4751    0.0000 C   0  0  0  0  0  0  0  0  0  0  0  0
    3.5411   -1.0039    0.0000 C   0  0  0  0  0  0  0  0  0  0  0  0
    4.8331    1.2799    0.0000 C   0  0  0  0  0  0  0  0  0  0  0  0
   10.0105   -1.7942    0.0000 C   0  0  0  0  0  0  0  0  0  0  0  0
    6.1247   -0.9996    0.0000 C   0  0  0  0  0  0  0  0  0  0  0  0
    8.7226   -1.0334    0.0000 C   0  0  0  0  0  0  0  0  0  0  0  0
   11.3223   -1.0752    0.0000 C   0  0  0  0  0  0  0  0  0  0  0  0
    0.9300    0.5400    0.0000 C   0  0  0  0  0  0  0  0  0  0  0  0
    3.5281    0.5404    0.0000 C   0  0  0  0  0  0  0  0  0  0  0  0
    7.4139   -1.7665    0.0000 C   0  0  0  0  0  0  0  0  0  0  0  0
   12.6067   -1.8499    0.0000 Cl  0  0  0  0  0  0  0  0  0  0  0  0
    7.3944   -3.2663    0.0000 O   0  0  0  0  0  0  0  0  0  0  0  0
    2.2289    1.2902    0.0000 O   0  0  0  0  0  0  0  0  0  0  0  0
  2  1  2  0
  3  1  1  0
  5  4  2  0
  6  4  1  0
  7  2  1  0
  8  3  2  0
 11  9  2  0
 12 10  1  0
 14  9  1  0
 14 10  2  0
 15  5  1  0
 15 13  2  0
 16  6  2  0
 16 13  1  0
 17  7  2  0
 17  8  1  0
 18 11  1  0
 18 12  2  0
 19 14  1  0
 19 15  1  0
 20 16  1  0
 21 19  2  0
 22 17  1  0
 22 18  1  0
M  END
>  <NAME>  (1723) 
3-CHLOROPHENYL 4-PHENOXYPHENYL KETONE

>  <SYNONYMS>  (1723) 
3-CHLORO-4'-PHENOXYBENZOPHENONE

>  <SPECTRUM TYPE>  (1723) 
MS1

>  <INSTRUMENT TYPE>  (1723) 
EI-B

>  <INSTRUMENT>  (1723) 
JEOL JMS-DX-300

>  <ION MODE>  (1723) 
P

>  <INCHIKEY>  (1723) 
CJLZBJCUUYTJOL-UHFFFAOYSA-N

>  <FORMULA>  (1723) 
C19H13ClO2

>  <EXACT MASS>  (1723) 
308.060407336

>  <MW>  (1723) 
308

>  <ID>  (1723) 
JP009620

>  <CONTRIBUTOR>  (1723) 
University of Tokyo Team, {Faculty of Engineering, University of Tokyo

>  <COMMENT>  (1723) 
SMILES=Clc(c3)cc(cc3)C(=O)c(c2)ccc(c2)Oc(c1)cccc1
InChI=InChI=1S/C19H13ClO2/c20-16-6-4-5-15(13-16)19(21)14-9-11-18(12-10-14)22-17-7-2-1-3-8-17/h1-13H
computed SMILES=O=C(C1=CC=C(OC=2C=CC=CC2)C=C1)C=3C=CC=C(Cl)C3
accession=JP009620
date=2016.01.19 (Created 2008.10.21, modified 2011.05.06)
author=THE INSTITUTE OF SCIENTIFIC AND INDUSTRIALRESEARCH
license=CC BY-NC-SA
exact mass=308.06041
ionization energy=70 eV
ion type=[M]+*
computed spectral entropy=2.091455106734584
computed normalized entropy=0.6345748262929458
SPLASH=splash10-0002-1902000000-e2befd577d2eba12f441
submitter=submitter = University of Tokyo Team (Faculty of Engineering, University of Tokyo)
MoNA Rating=3.75

>  <NUM PEAKS>  (1723) 
27

>  <MASS SPECTRAL PEAKS>  (1723) 
39 1
44 8.6
50 1.5
51 0.39
59 2.6
63 1
65 1
75 0.31
76 1.8
77 6.6
111 7
113 0.24
115 6.2
139 6.6
141 10.8
142 0.1
154 1.7
168 1
197 99.99
198 1.52
199 1.3
215 1.8
273 1.8
308 5.3
309 11.2
310 18.9
311 3.5

$$$$

     RDKit          2D

 17 19  0  0  0  0  0  0  0  0999 V2000
   -6.0281   -1.5504    0.0000 C   0  0  0  0  0  0  0  0  0  0  0  0
    3.0600    2.2000    0.0000 C   0  0  0  0  0  0  0  0  0  0  0  0
    1.7600    2.9500    0.0000 C   0  0  0  0  0  0  0  0  0  0  0  0
    3.0600    0.7000    0.0000 C   0  0  0  0  0  0  0  0  0  0  0  0
    0.4600    2.2000    0.0000 C   0  0  0  0  0  0  0  0  0  0  0  0
    1.7600   -1.5500    0.0000 C   0  0  0  0  0  0  0  0  0  0  0  0
    0.4600   -2.3000    0.0000 C   0  0  0  0  0  0  0  0  0  0  0  0
   -3.4300   -0.0500    0.0000 C   0  0  0  0  0  0  0  0  0  0  0  0
   -2.1300    0.7000    0.0000 C   0  0  0  0  0  0  0  0  0  0  0  0
   -2.1300   -2.3000    0.0000 C   0  0  0  0  0  0  0  0  0  0  0  0
   -4.7289   -2.3002    0.0000 C   0  0  0  0  0  0  0  0  0  0  0  0
    1.7600   -0.0500    0.0000 C   0  0  0  0  0  0  0  0  0  0  0  0
   -3.4300   -1.5500    0.0000 C   0  0  0  0  0  0  0  0  0  0  0  0
   -0.8300   -1.5500    0.0000 C   0  0  0  0  0  0  0  0  0  0  0  0
    0.4600    0.7000    0.0000 C   0  0  0  0  0  0  0  0  0  0  0  0
   -0.8300   -0.0500    0.0000 C   0  0  0  0  0  0  0  0  0  0  0  0
   -4.7287   -3.8002    0.0000 O   0  0  0  0  0  0  0  0  0  0  0  0
  3  2  2  0
  4  2  1  0
  5  3  1  0
  7  6  1  0
  9  8  1  0
 11  1  1  0
 12  4  2  0
 12  6  1  0
 13  8  2  0
 13 10  1  0
 13 11  1  0
 14  7  1  0
 14 10  2  0
 15  5  2  0
 15 12  1  0
 16  9  2  0
 16 14  1  0
 16 15  1  0
 17 11  2  0
M  END
>  <NAME>  (1724) 
9,10-DIHYDRO-2-PHENANTHRYL METHYL KETONE

>  <SYNONYMS>  (1724) 


>  <SPECTRUM TYPE>  (1724) 
MS1

>  <INSTRUMENT TYPE>  (1724) 
EI-B

>  <INSTRUMENT>  (1724) 
JEOL JMS-DX-300

>  <ION MODE>  (1724) 
P

>  <INCHIKEY>  (1724) 
JLABAJAYOGFVQR-UHFFFAOYSA-N

>  <FORMULA>  (1724) 
C16H14O

>  <EXACT MASS>  (1724) 
222.104465068

>  <MW>  (1724) 
222

>  <ID>  (1724) 
JP009619

>  <CONTRIBUTOR>  (1724) 
University of Tokyo Team, {Faculty of Engineering, University of Tokyo

>  <COMMENT>  (1724) 
SMILES=CC(=O)c(c3)cc(C1)c(c3)c(c2)c(ccc2)C1
InChI=InChI=1S/C16H14O/c1-11(17)13-8-9-16-14(10-13)7-6-12-4-2-3-5-15(12)16/h2-5,8-10H,6-7H2,1H3
computed SMILES=O=C(C1=CC=C2C=3C=CC=CC3CCC2=C1)C
accession=JP009619
date=2016.01.19 (Created 2008.10.21, modified 2011.05.06)
author=THE INSTITUTE OF SCIENTIFIC AND INDUSTRIALRESEARCH
license=CC BY-NC-SA
exact mass=222.10447
ionization energy=70 eV
ion type=[M]+*
computed spectral entropy=2.366771653448248
computed normalized entropy=0.6892197065722891
SPLASH=splash10-0ab9-2390000000-c57fcda2353c4649c998
submitter=submitter = University of Tokyo Team (Faculty of Engineering, University of Tokyo)
MoNA Rating=3.75

>  <NUM PEAKS>  (1724) 
31

>  <MASS SPECTRAL PEAKS>  (1724) 
43 9
44 5
57 1.1
59 0.1
63 1.9
75 1.9
76 7.8
82 0.14
88 5.5
89 9.5
90 1.8
96 0.48
97 2.6
103 4.8
104 4.9
115 0.12
150 1.8
151 3.8
152 5
153 0.11
176 7.5
177 6.4
178 33.5
179 2.72
180 4
207 99.99
208 16.7
209 0.18
222 70.6
223 12.7
224 1.5

$$$$

     RDKit          2D

 10 10  0  0  0  0  0  0  0  0999 V2000
   -2.9280    0.5574    0.0000 C   0  0  0  0  0  0  0  0  0  0  0  0
    0.9737   -1.6804    0.0000 C   0  0  0  0  0  0  0  0  0  0  0  0
   -0.3254   -0.9304    0.0000 C   0  0  0  0  0  0  0  0  0  0  0  0
    2.2682   -0.9382    0.0000 C   0  0  0  0  0  0  0  0  0  0  0  0
    0.9696    1.3126    0.0000 C   0  0  0  0  0  0  0  0  0  0  0  0
   -1.6302    1.3096    0.0000 C   0  0  0  0  0  0  0  0  0  0  0  0
   -0.3299    0.5618    0.0000 C   0  0  0  0  0  0  0  0  0  0  0  0
    2.2687    0.5626    0.0000 C   0  0  0  0  0  0  0  0  0  0  0  0
    3.5678    1.3124    0.0000 N   0  0  0  0  0  0  0  0  0  0  0  0
   -1.6327    2.8096    0.0000 O   0  0  0  0  0  0  0  0  0  0  0  0
  3  2  2  0
  4  2  1  0
  6  1  1  0
  7  3  1  0
  7  5  2  0
  7  6  1  0
  8  4  2  0
  8  5  1  0
  9  8  1  0
 10  6  2  0
M  END
>  <NAME>  (1725) 
3-AMINOPHENYL METHYL KETONE

>  <SYNONYMS>  (1725) 
3-AMINOACETOPHENONE

>  <SPECTRUM TYPE>  (1725) 
MS1

>  <INSTRUMENT TYPE>  (1725) 
EI-B

>  <INSTRUMENT>  (1725) 
JEOL JMS-DX-300

>  <ION MODE>  (1725) 
P

>  <INCHIKEY>  (1725) 
CKQHAYFOPRIUOM-UHFFFAOYSA-N

>  <FORMULA>  (1725) 
C8H9NO

>  <EXACT MASS>  (1725) 
135.068413908

>  <MW>  (1725) 
135

>  <ID>  (1725) 
JP009618

>  <CONTRIBUTOR>  (1725) 
University of Tokyo Team, {Faculty of Engineering, University of Tokyo

>  <COMMENT>  (1725) 
SMILES=CC(=O)c(c1)cc(N)cc1
InChI=InChI=1S/C8H9NO/c1-6(10)7-3-2-4-8(9)5-7/h2-5H,9H2,1H3
computed SMILES=O=C(C=1C=CC=C(N)C1)C
accession=JP009618
date=2016.01.19 (Created 2008.10.21, modified 2011.05.06)
author=THE INSTITUTE OF SCIENTIFIC AND INDUSTRIALRESEARCH
license=CC BY-NC-SA
exact mass=135.06841
ionization energy=70 eV
ion type=[M]+*
computed spectral entropy=2.124337448882366
computed normalized entropy=0.6245851711917432
SPLASH=splash10-007c-6900000000-389349e09cc3b6346454
submitter=submitter = University of Tokyo Team (Faculty of Engineering, University of Tokyo)
MoNA Rating=3.75

>  <NUM PEAKS>  (1725) 
30

>  <MASS SPECTRAL PEAKS>  (1725) 
38 1.9
39 8.3
40 1.2
41 0.23
42 1.1
43 11.2
44 2.7
46 0.39
50 1.4
51 1.8
52 2.9
53 0.12
60 3.9
62 1.7
63 4.3
64 0.37
65 27.1
66 4.8
76 1.2
77 0.19
91 3.1
92 73.7
93 8
106 0.15
119 1.6
120 96.6
121 8
134 0.12
135 99.99
136 9.8

$$$$

     RDKit          2D

 10 10  0  0  0  0  0  0  0  0999 V2000
    2.5989   -0.7496    0.0000 C   0  0  0  0  0  0  0  0  0  0  0  0
    0.0008   -2.2500    0.0000 C   0  0  0  0  0  0  0  0  0  0  0  0
   -1.2992    0.0000    0.0000 C   0  0  0  0  0  0  0  0  0  0  0  0
   -1.2992   -3.0000    0.0000 C   0  0  0  0  0  0  0  0  0  0  0  0
   -2.5992   -0.7500    0.0000 C   0  0  0  0  0  0  0  0  0  0  0  0
    1.2998    0.0002    0.0000 C   0  0  0  0  0  0  0  0  0  0  0  0
    0.0008   -0.7500    0.0000 C   0  0  0  0  0  0  0  0  0  0  0  0
   -2.5992   -2.2500    0.0000 C   0  0  0  0  0  0  0  0  0  0  0  0
   -3.8981   -3.0002    0.0000 Br  0  0  0  0  0  0  0  0  0  0  0  0
    1.2995    1.5002    0.0000 O   0  0  0  0  0  0  0  0  0  0  0  0
  4  2  2  0
  5  3  1  0
  6  1  1  0
  7  2  1  0
  7  3  2  0
  7  6  1  0
  8  4  1  0
  8  5  2  0
  9  8  1  0
 10  6  2  0
M  END
>  <NAME>  (1726) 
4-BROMOPHENYL METHYL KETONE

>  <SYNONYMS>  (1726) 


>  <SPECTRUM TYPE>  (1726) 
MS1

>  <INSTRUMENT TYPE>  (1726) 
EI-B

>  <INSTRUMENT>  (1726) 
JEOL JMS-DX-300

>  <ION MODE>  (1726) 
P

>  <INCHIKEY>  (1726) 
WYECURVXVYPVAT-UHFFFAOYSA-N

>  <FORMULA>  (1726) 
C8H7BrO

>  <EXACT MASS>  (1726) 
197.968026944

>  <MW>  (1726) 
198

>  <ID>  (1726) 
JP009617

>  <CONTRIBUTOR>  (1726) 
University of Tokyo Team, {Faculty of Engineering, University of Tokyo

>  <COMMENT>  (1726) 
SMILES=CC(=O)c(c1)ccc(Br)c1
InChI=InChI=1S/C8H7BrO/c1-6(10)7-2-4-8(9)5-3-7/h2-5H,1H3
computed SMILES=O=C(C1=CC=C(Br)C=C1)C
accession=JP009617
date=2016.01.19 (Created 2008.10.21, modified 2011.05.06)
author=THE INSTITUTE OF SCIENTIFIC AND INDUSTRIALRESEARCH
license=CC BY-NC-SA
exact mass=197.96803
ionization energy=70 eV
ion type=[M]+*
computed spectral entropy=2.4677048954759457
computed normalized entropy=0.6783907753985855
SPLASH=splash10-0kar-2910000000-7a7c782921332a2533c2
submitter=submitter = University of Tokyo Team (Faculty of Engineering, University of Tokyo)
MoNA Rating=3.75

>  <NUM PEAKS>  (1726) 
38

>  <MASS SPECTRAL PEAKS>  (1726) 
37 1.2
38 4.7
39 1.5
43 1.88
44 1.3
49 1
50 16.1
51 0.45
52 2.3
62 1.6
63 2
73 0.18
74 8.2
75 18.9
76 17.8
77 0.38
78 1
80 1
82 1
85 0.1
86 1
89 1.8
90 1.7
92 0.2
93 2
104 1.7
155 36.1
156 0.3
157 35.1
158 2.7
183 99.99
184 0.79
185 96.2
186 7.7
198 46.8
199 0.42
200 45.7
201 4

$$$$

     RDKit          2D

 10 10  0  0  0  0  0  0  0  0999 V2000
    2.5987    3.0002    0.0000 C   0  0  0  0  0  0  0  0  0  0  0  0
   -1.3000    0.7500    0.0000 C   0  0  0  0  0  0  0  0  0  0  0  0
    0.0000    1.5000    0.0000 C   0  0  0  0  0  0  0  0  0  0  0  0
   -1.3000   -0.7500    0.0000 C   0  0  0  0  0  0  0  0  0  0  0  0
    1.3000   -0.7500    0.0000 C   0  0  0  0  0  0  0  0  0  0  0  0
    2.5989    1.5002    0.0000 C   0  0  0  0  0  0  0  0  0  0  0  0
    1.3000    0.7500    0.0000 C   0  0  0  0  0  0  0  0  0  0  0  0
    0.0000   -1.5000    0.0000 C   0  0  0  0  0  0  0  0  0  0  0  0
   -0.0000   -3.0000    0.0000 Br  0  0  0  0  0  0  0  0  0  0  0  0
    3.8981    0.7504    0.0000 O   0  0  0  0  0  0  0  0  0  0  0  0
  3  2  2  0
  4  2  1  0
  6  1  1  0
  7  3  1  0
  7  5  2  0
  7  6  1  0
  8  4  2  0
  8  5  1  0
  9  8  1  0
 10  6  2  0
M  END
>  <NAME>  (1727) 
3-BROMOPHENYL METHYL KETONE

>  <SYNONYMS>  (1727) 
3-BROMOACETOPHENONE

>  <SPECTRUM TYPE>  (1727) 
MS1

>  <INSTRUMENT TYPE>  (1727) 
EI-B

>  <INSTRUMENT>  (1727) 
JEOL JMS-DX-300

>  <ION MODE>  (1727) 
P

>  <INCHIKEY>  (1727) 
JYAQYXOVOHJRCS-UHFFFAOYSA-N

>  <FORMULA>  (1727) 
C8H7BrO

>  <EXACT MASS>  (1727) 
197.968026944

>  <MW>  (1727) 
198

>  <ID>  (1727) 
JP009616

>  <CONTRIBUTOR>  (1727) 
University of Tokyo Team, {Faculty of Engineering, University of Tokyo

>  <COMMENT>  (1727) 
SMILES=CC(=O)c(c1)cc(Br)cc1
InChI=InChI=1S/C8H7BrO/c1-6(10)7-3-2-4-8(9)5-7/h2-5H,1H3
computed SMILES=O=C(C=1C=CC=C(Br)C1)C
accession=JP009616
date=2016.01.19 (Created 2008.10.21, modified 2011.05.06)
author=THE INSTITUTE OF SCIENTIFIC AND INDUSTRIALRESEARCH
license=CC BY-NC-SA
exact mass=197.96803
ionization energy=70 eV
ion type=[M]+*
computed spectral entropy=3.015016410443689
computed normalized entropy=0.752374776710458
SPLASH=splash10-0ufu-9200000000-845ebfd82ff68d4a413f
submitter=submitter = University of Tokyo Team (Faculty of Engineering, University of Tokyo)
MoNA Rating=3.75

>  <NUM PEAKS>  (1727) 
55

>  <MASS SPECTRAL PEAKS>  (1727) 
26 3
27 4.3
29 2.2
37 0.72
38 15.7
39 13.2
40 1
41 0.12
42 10.2
43 93.9
44 2.6
49 0.78
50 99.99
51 28.2
52 2.4
53 0.26
61 11.2
62 12
63 18.8
64 0.37
65 3.9
73 9.1
74 55.4
75 7.96
76 95.8
77 17
78 1
79 0.48
80 1.8
81 4.9
82 1.8
85 0.17
86 2.8
87 2.4
88 1.2
89 1.1
90 7
91 8
104 12.7
105 0.18
117 1
129 2.2
131 2.2
155 4.44
156 3.8
157 42.3
158 3.2
183 5.38
184 4
185 51.5
186 4
198 1.89
199 2
200 18.6
201 1.9

$$$$

     RDKit          2D

 11 11  0  0  0  0  0  0  0  0999 V2000
   -2.9210    1.3138    0.0000 C   0  0  0  0  0  0  0  0  0  0  0  0
    0.9721    3.5563    0.0000 C   0  0  0  0  0  0  0  0  0  0  0  0
    2.2711    2.8063    0.0000 C   0  0  0  0  0  0  0  0  0  0  0  0
   -0.3224    2.8142    0.0000 C   0  0  0  0  0  0  0  0  0  0  0  0
    0.9761    0.5633    0.0000 C   0  0  0  0  0  0  0  0  0  0  0  0
    3.5760    0.5663    0.0000 C   0  0  0  0  0  0  0  0  0  0  0  0
   -1.6220    0.5635    0.0000 C   0  0  0  0  0  0  0  0  0  0  0  0
    2.2757    1.3142    0.0000 C   0  0  0  0  0  0  0  0  0  0  0  0
   -0.3229    1.3133    0.0000 C   0  0  0  0  0  0  0  0  0  0  0  0
    4.8763   -0.1815    0.0000 N   0  0  0  0  0  0  0  0  0  0  0  0
   -1.6223   -0.9365    0.0000 O   0  0  0  0  0  0  0  0  0  0  0  0
  3  2  2  0
  4  2  1  0
  7  1  1  0
  8  3  1  0
  8  5  2  0
  8  6  1  0
  9  4  2  0
  9  5  1  0
  9  7  1  0
 10  6  3  0
 11  7  2  0
M  END
>  <NAME>  (1728) 
3-CYANOPHENYL METHYL KETONE

>  <SYNONYMS>  (1728) 


>  <SPECTRUM TYPE>  (1728) 
MS1

>  <INSTRUMENT TYPE>  (1728) 
EI-B

>  <INSTRUMENT>  (1728) 
JEOL JMS-DX-300

>  <ION MODE>  (1728) 
P

>  <INCHIKEY>  (1728) 
SBCFGFDAZCTSRH-UHFFFAOYSA-N

>  <FORMULA>  (1728) 
C9H7NO

>  <EXACT MASS>  (1728) 
145.052763844

>  <MW>  (1728) 
145

>  <ID>  (1728) 
JP009615

>  <CONTRIBUTOR>  (1728) 
University of Tokyo Team, {Faculty of Engineering, University of Tokyo

>  <COMMENT>  (1728) 
SMILES=N#Cc(c1)cc(cc1)C(C)=O
InChI=InChI=1S/C9H7NO/c1-7(11)9-4-2-3-8(5-9)6-10/h2-5H,1H3
computed SMILES=N#CC1=CC=CC(=C1)C(=O)C
accession=JP009615
date=2016.01.19 (Created 2008.10.21, modified 2011.05.06)
author=THE INSTITUTE OF SCIENTIFIC AND INDUSTRIALRESEARCH
license=CC BY-NC-SA
exact mass=145.05276
ionization energy=70 eV
ion type=[M]+*
computed spectral entropy=2.670843813454445
computed normalized entropy=0.7290293084807367
SPLASH=splash10-001i-7900000000-0e5bd24d5fe5169c90e8
submitter=submitter = University of Tokyo Team (Faculty of Engineering, University of Tokyo)
MoNA Rating=3.75

>  <NUM PEAKS>  (1728) 
39

>  <MASS SPECTRAL PEAKS>  (1728) 
26 1.6
27 5
29 1.5
37 0.28
38 4.8
39 7.2
42 5.8
43 4.85
44 1.8
49 2.1
50 18.8
51 2.13
52 5
53 1
61 2.4
62 0.46
63 5.8
64 3
65 1.6
73 0.17
74 8
75 27.4
76 19
77 0.2
87 1.5
88 1.7
89 2.9
90 0.1
99 2.5
100 1.7
101 2.5
102 6.36
103 7.2
116 1.5
128 1.8
130 99.99
131 9.4
145 29.9
146 3.5

$$$$

     RDKit          2D

 12 12  0  0  0  0  0  0  0  0999 V2000
   -3.2527   -0.3801    0.0000 C   0  0  0  0  0  0  0  0  0  0  0  0
    0.6489   -2.6180    0.0000 C   0  0  0  0  0  0  0  0  0  0  0  0
   -0.6501   -1.8680    0.0000 C   0  0  0  0  0  0  0  0  0  0  0  0
    1.9435   -1.8758    0.0000 C   0  0  0  0  0  0  0  0  0  0  0  0
    0.6449    0.3750    0.0000 C   0  0  0  0  0  0  0  0  0  0  0  0
   -1.9549    0.3720    0.0000 C   0  0  0  0  0  0  0  0  0  0  0  0
   -0.6546   -0.3758    0.0000 C   0  0  0  0  0  0  0  0  0  0  0  0
    1.9439   -0.3750    0.0000 C   0  0  0  0  0  0  0  0  0  0  0  0
    3.2431    0.3748    0.0000 N   0  0  0  0  0  0  0  0  0  0  0  0
   -1.9574    1.8720    0.0000 O   0  0  0  0  0  0  0  0  0  0  0  0
    4.5420   -0.3754    0.0000 O   0  0  0  0  0  0  0  0  0  0  0  0
    3.2433    1.8748    0.0000 O   0  0  0  0  0  0  0  0  0  0  0  0
  3  2  2  0
  4  2  1  0
  6  1  1  0
  7  3  1  0
  7  5  2  0
  7  6  1  0
  8  4  2  0
  8  5  1  0
  9  8  1  0
 10  6  2  0
 11  9  1  0
 12  9  2  0
M  CHG  2   9   1  11  -1
M  END
>  <NAME>  (1729) 
METHYL 3-NITROPHENYL KETONE

>  <SYNONYMS>  (1729) 
3-NITROACETOPHENONE

>  <SPECTRUM TYPE>  (1729) 
MS1

>  <INSTRUMENT TYPE>  (1729) 
EI-B

>  <INSTRUMENT>  (1729) 
JEOL JMS-DX-300

>  <ION MODE>  (1729) 
P

>  <INCHIKEY>  (1729) 
ARKIFHPFTHVKDT-UHFFFAOYSA-N

>  <FORMULA>  (1729) 
C8H7NO3

>  <EXACT MASS>  (1729) 
165.04259308399998

>  <MW>  (1729) 
165

>  <ID>  (1729) 
JP009614

>  <CONTRIBUTOR>  (1729) 
University of Tokyo Team, {Faculty of Engineering, University of Tokyo

>  <COMMENT>  (1729) 
SMILES=CC(=O)c(c1)cc(cc1)[N+1]([O-1])=O
InChI=InChI=1S/C8H7NO3/c1-6(10)7-3-2-4-8(5-7)9(11)12/h2-5H,1H3
computed SMILES=O=C(C1=CC=CC(=C1)N(=O)=O)C
accession=JP009614
date=2016.01.19 (Created 2008.10.21, modified 2011.05.06)
author=THE INSTITUTE OF SCIENTIFIC AND INDUSTRIALRESEARCH
license=CC BY-NC-SA
exact mass=165.04259
ionization energy=70 eV
ion type=[M]+*
computed spectral entropy=2.3012734700753605
computed normalized entropy=0.6834188578211746
SPLASH=splash10-0udi-7900000000-93a7d3e239ff6f3ce391
submitter=submitter = University of Tokyo Team (Faculty of Engineering, University of Tokyo)
MoNA Rating=3.75

>  <NUM PEAKS>  (1729) 
29

>  <MASS SPECTRAL PEAKS>  (1729) 
27 1
30 2.8
38 2.2
39 0.4
42 1.9
43 50.6
44 1.2
50 1.86
51 8.2
62 2.2
63 5.6
64 0.32
65 5.2
74 6.8
75 11
76 3
77 9
89 3
90 1.6
91 0.87
92 6.8
104 35.5
105 2.8
119 0.18
122 2.7
150 99.99
151 8.2
165 3.27
166 3

$$$$

     RDKit          2D

 13 14  0  0  0  0  0  0  0  0999 V2000
    2.4790    3.4800    0.0000 C   0  0  0  0  0  0  0  0  0  0  0  0
   -2.7200   -1.0200    0.0000 C   0  0  0  0  0  0  0  0  0  0  0  0
   -2.7200    0.4800    0.0000 C   0  0  0  0  0  0  0  0  0  0  0  0
    2.4800   -1.0200    0.0000 C   0  0  0  0  0  0  0  0  0  0  0  0
   -1.4200   -1.7700    0.0000 C   0  0  0  0  0  0  0  0  0  0  0  0
    1.1800   -1.7700    0.0000 C   0  0  0  0  0  0  0  0  0  0  0  0
   -1.4200    1.2300    0.0000 C   0  0  0  0  0  0  0  0  0  0  0  0
    2.4800    0.4800    0.0000 C   0  0  0  0  0  0  0  0  0  0  0  0
    1.1800    2.7300    0.0000 C   0  0  0  0  0  0  0  0  0  0  0  0
   -0.1200   -1.0200    0.0000 C   0  0  0  0  0  0  0  0  0  0  0  0
    1.1800    1.2300    0.0000 C   0  0  0  0  0  0  0  0  0  0  0  0
   -0.1200    0.4800    0.0000 C   0  0  0  0  0  0  0  0  0  0  0  0
   -0.1190    3.4800    0.0000 O   0  0  0  0  0  0  0  0  0  0  0  0
  3  2  2  0
  5  2  1  0
  6  4  2  0
  7  3  1  0
  8  4  1  0
  9  1  1  0
 10  5  2  0
 10  6  1  0
 11  8  2  0
 11  9  1  0
 12  7  2  0
 12 10  1  0
 12 11  1  0
 13  9  2  0
M  END
>  <NAME>  (1730) 
METHYL 1-NAPHTHYL KETONE

>  <SYNONYMS>  (1730) 


>  <SPECTRUM TYPE>  (1730) 
MS1

>  <INSTRUMENT TYPE>  (1730) 
EI-B

>  <INSTRUMENT>  (1730) 
JEOL JMS-DX-300

>  <ION MODE>  (1730) 
P

>  <INCHIKEY>  (1730) 
QQLIGMASAVJVON-UHFFFAOYSA-N

>  <FORMULA>  (1730) 
C12H10O

>  <EXACT MASS>  (1730) 
170.07316494

>  <MW>  (1730) 
170

>  <ID>  (1730) 
JP009613

>  <CONTRIBUTOR>  (1730) 
University of Tokyo Team, {Faculty of Engineering, University of Tokyo

>  <COMMENT>  (1730) 
SMILES=CC(=O)c(c1)c(c2)c(ccc2)cc1
InChI=InChI=1S/C12H10O/c1-9(13)11-8-4-6-10-5-2-3-7-12(10)11/h2-8H,1H3
computed SMILES=O=C(C1=CC=CC=2C=CC=CC21)C
accession=JP009613
date=2016.01.19 (Created 2008.10.21, modified 2011.05.06)
author=THE INSTITUTE OF SCIENTIFIC AND INDUSTRIALRESEARCH
license=CC BY-NC-SA
exact mass=170.07316
ionization energy=70 eV
ion type=[M]+*
computed spectral entropy=2.532822160278492
computed normalized entropy=0.7067974814079564
SPLASH=splash10-0ab9-2900000000-f8142db76f0d6f06996b
submitter=submitter = University of Tokyo Team (Faculty of Engineering, University of Tokyo)
MoNA Rating=3.75

>  <NUM PEAKS>  (1730) 
36

>  <MASS SPECTRAL PEAKS>  (1730) 
27 1.2
39 2.9
40 1.2
43 1.32
50 4.7
51 8
52 1
62 0.28
63 8.1
64 5
74 6
75 0.94
76 4.8
77 13.5
78 1.8
85 0.26
86 1.6
87 2.9
89 1.7
98 0.18
99 1.7
100 1.4
101 8
102 0.18
115 5
125 1
126 16.8
127 8.97
128 12
139 3
141 2.9
155 99.99
156 12.2
169 1.2
170 58.2
171 7.9

$$$$

     RDKit          2D

 16 18  0  0  0  0  0  0  0  0999 V2000
   -6.1522   -0.6389    0.0000 C   0  0  0  0  0  0  0  0  0  0  0  0
    3.6900    0.1600    0.0000 C   0  0  0  0  0  0  0  0  0  0  0  0
    3.2200   -1.2700    0.0000 C   0  0  0  0  0  0  0  0  0  0  0  0
    2.6800    1.2700    0.0000 C   0  0  0  0  0  0  0  0  0  0  0  0
    1.7500   -1.5800    0.0000 C   0  0  0  0  0  0  0  0  0  0  0  0
   -3.2200   -1.2700    0.0000 C   0  0  0  0  0  0  0  0  0  0  0  0
   -1.7500   -1.5800    0.0000 C   0  0  0  0  0  0  0  0  0  0  0  0
   -2.6800    1.2700    0.0000 C   0  0  0  0  0  0  0  0  0  0  0  0
   -0.0000    1.8400    0.0000 C   0  0  0  0  0  0  0  0  0  0  0  0
   -5.1467    0.4742    0.0000 C   0  0  0  0  0  0  0  0  0  0  0  0
   -3.6800    0.1600    0.0000 C   0  0  0  0  0  0  0  0  0  0  0  0
    1.2100    0.9600    0.0000 C   0  0  0  0  0  0  0  0  0  0  0  0
   -1.2100    0.9600    0.0000 C   0  0  0  0  0  0  0  0  0  0  0  0
    0.7500   -0.4700    0.0000 C   0  0  0  0  0  0  0  0  0  0  0  0
   -0.7500   -0.4700    0.0000 C   0  0  0  0  0  0  0  0  0  0  0  0
   -5.6080    1.9015    0.0000 O   0  0  0  0  0  0  0  0  0  0  0  0
  3  2  2  0
  4  2  1  0
  5  3  1  0
  7  6  1  0
 10  1  1  0
 11  6  2  0
 11  8  1  0
 11 10  1  0
 12  4  2  0
 12  9  1  0
 13  8  2  0
 13  9  1  0
 14  5  2  0
 14 12  1  0
 15  7  2  0
 15 13  1  0
 15 14  1  0
 16 10  2  0
M  END
>  <NAME>  (1731) 
2-FLUORENYL METHYL KETONE

>  <SYNONYMS>  (1731) 


>  <SPECTRUM TYPE>  (1731) 
MS1

>  <INSTRUMENT TYPE>  (1731) 
EI-B

>  <INSTRUMENT>  (1731) 
JEOL JMS-DX-300

>  <ION MODE>  (1731) 
P

>  <INCHIKEY>  (1731) 
IBASEVZORZFIIH-UHFFFAOYSA-N

>  <FORMULA>  (1731) 
C15H12O

>  <EXACT MASS>  (1731) 
208.088815004

>  <MW>  (1731) 
208

>  <ID>  (1731) 
JP009612

>  <CONTRIBUTOR>  (1731) 
University of Tokyo Team, {Faculty of Engineering, University of Tokyo

>  <COMMENT>  (1731) 
SMILES=CC(=O)c(c3)cc(C1)c(c3)c(c2)c(ccc2)1
InChI=InChI=1S/C15H12O/c1-10(16)11-6-7-15-13(8-11)9-12-4-2-3-5-14(12)15/h2-8H,9H2,1H3
computed SMILES=O=C(C1=CC=C2C=3C=CC=CC3CC2=C1)C
accession=JP009612
date=2016.01.19 (Created 2008.10.21, modified 2011.05.06)
author=THE INSTITUTE OF SCIENTIFIC AND INDUSTRIALRESEARCH
license=CC BY-NC-SA
exact mass=208.08882
ionization energy=70 eV
ion type=[M]+*
computed spectral entropy=2.4822097217783123
computed normalized entropy=0.6447050810924311
SPLASH=splash10-05mo-2930000000-bb15002b6e3cd95c7111
submitter=submitter = University of Tokyo Team (Faculty of Engineering, University of Tokyo)
MoNA Rating=3.75

>  <NUM PEAKS>  (1731) 
47

>  <MASS SPECTRAL PEAKS>  (1731) 
29 1.5
39 1.9
41 1.5
43 2.62
44 7.9
50 1
51 1.3
55 0.12
57 1.2
62 1.3
63 4
69 0.1
70 3.1
74 1.8
75 1.8
76 0.26
81 1.6
82 4.6
83 6.8
86 0.13
87 2.8
88 1.7
89 4.5
90 0.32
96 3
97 3.7
113 1.7
115 0.49
137 1.5
138 1
139 6.9
162 0.24
163 18.3
164 16.5
165 83.8
166 1.53
167 1.3
176 1.2
178 2.7
179 0.17
192 1
193 99.99
194 15.8
195 0.13
208 76
209 12.9
210 1.2

$$$$

     RDKit          2D

 18 20  0  0  0  0  0  0  0  0999 V2000
    6.1617   -0.6406    0.0000 C   0  0  0  0  0  0  0  0  0  0  0  0
   -6.1522   -0.6389    0.0000 C   0  0  0  0  0  0  0  0  0  0  0  0
    5.1569    0.4732    0.0000 C   0  0  0  0  0  0  0  0  0  0  0  0
    3.2200   -1.2700    0.0000 C   0  0  0  0  0  0  0  0  0  0  0  0
   -3.2200   -1.2700    0.0000 C   0  0  0  0  0  0  0  0  0  0  0  0
    1.7500   -1.5800    0.0000 C   0  0  0  0  0  0  0  0  0  0  0  0
   -1.7500   -1.5800    0.0000 C   0  0  0  0  0  0  0  0  0  0  0  0
    2.6800    1.2700    0.0000 C   0  0  0  0  0  0  0  0  0  0  0  0
   -2.6800    1.2700    0.0000 C   0  0  0  0  0  0  0  0  0  0  0  0
   -0.0000    1.8400    0.0000 C   0  0  0  0  0  0  0  0  0  0  0  0
   -5.1467    0.4742    0.0000 C   0  0  0  0  0  0  0  0  0  0  0  0
    3.6900    0.1600    0.0000 C   0  0  0  0  0  0  0  0  0  0  0  0
   -3.6800    0.1600    0.0000 C   0  0  0  0  0  0  0  0  0  0  0  0
    1.2100    0.9600    0.0000 C   0  0  0  0  0  0  0  0  0  0  0  0
   -1.2100    0.9600    0.0000 C   0  0  0  0  0  0  0  0  0  0  0  0
    0.7500   -0.4700    0.0000 C   0  0  0  0  0  0  0  0  0  0  0  0
   -0.7500   -0.4700    0.0000 C   0  0  0  0  0  0  0  0  0  0  0  0
   -5.6080    1.9015    0.0000 O   0  0  0  0  0  0  0  0  0  0  0  0
  3  1  1  0
  6  4  2  0
  7  5  1  0
 11  2  1  0
 12  3  1  0
 12  4  1  0
 12  8  2  0
 13  5  2  0
 13  9  1  0
 13 11  1  0
 14  8  1  0
 14 10  1  0
 15  9  2  0
 15 10  1  0
 16  6  1  0
 16 14  2  0
 17  7  2  0
 17 15  1  0
 17 16  1  0
 18 11  2  0
M  END
>  <NAME>  (1732) 
7-ETHYL-2-FLUORENYL METHYL KETONE

>  <SYNONYMS>  (1732) 


>  <SPECTRUM TYPE>  (1732) 
MS1

>  <INSTRUMENT TYPE>  (1732) 
EI-B

>  <INSTRUMENT>  (1732) 
JEOL JMS-DX-300

>  <ION MODE>  (1732) 
P

>  <INCHIKEY>  (1732) 
JHMVPGWDPZHTSF-UHFFFAOYSA-N

>  <FORMULA>  (1732) 
C17H16O

>  <EXACT MASS>  (1732) 
236.120115132

>  <MW>  (1732) 
236

>  <ID>  (1732) 
JP009611

>  <CONTRIBUTOR>  (1732) 
University of Tokyo Team, {Faculty of Engineering, University of Tokyo

>  <COMMENT>  (1732) 
SMILES=CCc(c3)cc(C1)c(c3)c(c2)c(cc(C(C)=O)c2)1
InChI=InChI=1S/C17H16O/c1-3-12-4-6-16-14(8-12)10-15-9-13(11(2)18)5-7-17(15)16/h4-9H,3,10H2,1-2H3
computed SMILES=O=C(C=1C=CC=2C3=CC=C(C=C3CC2C1)CC)C
accession=JP009611
date=2016.01.19 (Created 2008.10.21, modified 2011.05.06)
author=THE INSTITUTE OF SCIENTIFIC AND INDUSTRIALRESEARCH
license=CC BY-NC-SA
exact mass=236.12012
ionization energy=70 eV
ion type=[M]+*
computed spectral entropy=2.7177499057858663
computed normalized entropy=0.7058820042584255
SPLASH=splash10-00du-1690000000-6c70572121b1a2a96731
submitter=submitter = University of Tokyo Team (Faculty of Engineering, University of Tokyo)
MoNA Rating=3.75

>  <NUM PEAKS>  (1732) 
47

>  <MASS SPECTRAL PEAKS>  (1732) 
27 2
29 2
39 1.1
41 0.18
43 29.9
44 7.8
57 1.2
63 0.17
76 3.5
83 1
88 1.7
89 0.55
90 1.2
95 1
103 7.1
104 0.2
115 1.8
139 2.4
150 2.2
151 0.5
152 8.4
153 1.7
163 7.5
164 1
165 11.8
166 1.7
175 1.2
176 1.07
177 9.7
178 44.2
179 8.7
187 0.11
189 7.7
190 3
191 6.7
192 0.76
193 40
194 7.6
207 5.6
220 0.16
221 99.99
222 18.3
223 1.8
235 0.17
236 94.9
237 18
238 1.8

$$$$

     RDKit          2D

 17 19  0  0  0  0  0  0  0  0999 V2000
   -3.8990    3.7500    0.0000 C   0  0  0  0  0  0  0  0  0  0  0  0
    3.9000   -0.7500    0.0000 C   0  0  0  0  0  0  0  0  0  0  0  0
    3.9000    0.7500    0.0000 C   0  0  0  0  0  0  0  0  0  0  0  0
   -3.9000   -0.7500    0.0000 C   0  0  0  0  0  0  0  0  0  0  0  0
    2.6000   -1.5000    0.0000 C   0  0  0  0  0  0  0  0  0  0  0  0
    2.6000    1.5000    0.0000 C   0  0  0  0  0  0  0  0  0  0  0  0
   -2.6000   -1.5000    0.0000 C   0  0  0  0  0  0  0  0  0  0  0  0
   -3.9000    0.7500    0.0000 C   0  0  0  0  0  0  0  0  0  0  0  0
   -0.0000   -1.5000    0.0000 C   0  0  0  0  0  0  0  0  0  0  0  0
   -0.0000    1.5000    0.0000 C   0  0  0  0  0  0  0  0  0  0  0  0
   -2.6000    3.0000    0.0000 C   0  0  0  0  0  0  0  0  0  0  0  0
    1.3000   -0.7500    0.0000 C   0  0  0  0  0  0  0  0  0  0  0  0
    1.3000    0.7500    0.0000 C   0  0  0  0  0  0  0  0  0  0  0  0
   -1.3000   -0.7500    0.0000 C   0  0  0  0  0  0  0  0  0  0  0  0
   -2.6000    1.5000    0.0000 C   0  0  0  0  0  0  0  0  0  0  0  0
   -1.3000    0.7500    0.0000 C   0  0  0  0  0  0  0  0  0  0  0  0
   -1.3010    3.7500    0.0000 O   0  0  0  0  0  0  0  0  0  0  0  0
  3  2  2  0
  5  2  1  0
  6  3  1  0
  7  4  2  0
  8  4  1  0
 11  1  1  0
 12  5  2  0
 12  9  1  0
 13  6  2  0
 13 10  1  0
 13 12  1  0
 14  7  1  0
 14  9  2  0
 15  8  2  0
 15 11  1  0
 16 10  2  0
 16 14  1  0
 16 15  1  0
 17 11  2  0
M  END
>  <NAME>  (1733) 
1-ANTHRYL METHYL KETONE

>  <SYNONYMS>  (1733) 


>  <SPECTRUM TYPE>  (1733) 
MS1

>  <INSTRUMENT TYPE>  (1733) 
EI-B

>  <INSTRUMENT>  (1733) 
JEOL JMS-DX-300

>  <ION MODE>  (1733) 
P

>  <INCHIKEY>  (1733) 
MGRRZBKEFOXFRI-UHFFFAOYSA-N

>  <FORMULA>  (1733) 
C16H12O

>  <EXACT MASS>  (1733) 
220.088815004

>  <MW>  (1733) 
220

>  <ID>  (1733) 
JP009610

>  <CONTRIBUTOR>  (1733) 
University of Tokyo Team, {Faculty of Engineering, University of Tokyo

>  <COMMENT>  (1733) 
SMILES=CC(=O)c(c3)c(c1)c(cc3)cc(c2)c(ccc2)1
InChI=InChI=1S/C16H12O/c1-11(17)15-8-4-7-14-9-12-5-2-3-6-13(12)10-16(14)15/h2-10H,1H3
computed SMILES=O=C(C1=CC=CC2=CC=3C=CC=CC3C=C21)C
accession=JP009610
date=2016.01.19 (Created 2008.10.21, modified 2011.05.06)
author=THE INSTITUTE OF SCIENTIFIC AND INDUSTRIALRESEARCH
license=CC BY-NC-SA
exact mass=220.08882
ionization energy=70 eV
ion type=[M]+*
computed spectral entropy=2.693591564670448
computed normalized entropy=0.7035371782639398
SPLASH=splash10-00di-2690000000-6ca20ea4cee470a873a1
submitter=submitter = University of Tokyo Team (Faculty of Engineering, University of Tokyo)
MoNA Rating=3.75

>  <NUM PEAKS>  (1733) 
46

>  <MASS SPECTRAL PEAKS>  (1733) 
43 7.9
44 2.5
51 1.7
63 0.2
74 1.8
75 4.3
76 1.3
77 0.12
83 1.3
87 2.3
88 17
89 1.24
95 1.4
96 1.2
98 1
99 0.12
101 1
103 7.1
110 5.8
111 0.1
126 1.8
127 1.1
149 1.5
150 0.8
151 12.8
152 2.3
163 1
165 0.11
174 3.2
175 5
176 34.8
177 6.46
178 11.1
179 1.2
189 4.1
190 0.16
191 2.9
192 1.2
202 1
205 6.66
206 11.4
207 1.1
219 2.6
220 99.99
221 17.7
222 1.9

$$$$

     RDKit          2D

 17 19  0  0  0  0  0  0  0  0999 V2000
   -6.0281   -1.5504    0.0000 C   0  0  0  0  0  0  0  0  0  0  0  0
    3.0600    2.2000    0.0000 C   0  0  0  0  0  0  0  0  0  0  0  0
    1.7600    2.9500    0.0000 C   0  0  0  0  0  0  0  0  0  0  0  0
    3.0600    0.7000    0.0000 C   0  0  0  0  0  0  0  0  0  0  0  0
    0.4600    2.2000    0.0000 C   0  0  0  0  0  0  0  0  0  0  0  0
    1.7600   -1.5500    0.0000 C   0  0  0  0  0  0  0  0  0  0  0  0
    0.4600   -2.3000    0.0000 C   0  0  0  0  0  0  0  0  0  0  0  0
   -3.4300   -0.0500    0.0000 C   0  0  0  0  0  0  0  0  0  0  0  0
   -2.1300    0.7000    0.0000 C   0  0  0  0  0  0  0  0  0  0  0  0
   -2.1300   -2.3000    0.0000 C   0  0  0  0  0  0  0  0  0  0  0  0
   -4.7289   -2.3002    0.0000 C   0  0  0  0  0  0  0  0  0  0  0  0
    1.7600   -0.0500    0.0000 C   0  0  0  0  0  0  0  0  0  0  0  0
   -3.4300   -1.5500    0.0000 C   0  0  0  0  0  0  0  0  0  0  0  0
   -0.8300   -1.5500    0.0000 C   0  0  0  0  0  0  0  0  0  0  0  0
    0.4600    0.7000    0.0000 C   0  0  0  0  0  0  0  0  0  0  0  0
   -0.8300   -0.0500    0.0000 C   0  0  0  0  0  0  0  0  0  0  0  0
   -4.7287   -3.8002    0.0000 O   0  0  0  0  0  0  0  0  0  0  0  0
  3  2  2  0
  4  2  1  0
  5  3  1  0
  7  6  2  0
  9  8  1  0
 11  1  1  0
 12  4  2  0
 12  6  1  0
 13  8  2  0
 13 10  1  0
 13 11  1  0
 14  7  1  0
 14 10  2  0
 15  5  2  0
 15 12  1  0
 16  9  2  0
 16 14  1  0
 16 15  1  0
 17 11  2  0
M  END
>  <NAME>  (1734) 
METHYL 2-PHENANTHRYL KETONE

>  <SYNONYMS>  (1734) 


>  <SPECTRUM TYPE>  (1734) 
MS1

>  <INSTRUMENT TYPE>  (1734) 
EI-B

>  <INSTRUMENT>  (1734) 
JEOL JMS-DX-300

>  <ION MODE>  (1734) 
P

>  <INCHIKEY>  (1734) 
CWILMKDSVMROHT-UHFFFAOYSA-N

>  <FORMULA>  (1734) 
C16H12O

>  <EXACT MASS>  (1734) 
220.088815004

>  <MW>  (1734) 
220

>  <ID>  (1734) 
JP009609

>  <CONTRIBUTOR>  (1734) 
University of Tokyo Team, {Faculty of Engineering, University of Tokyo

>  <COMMENT>  (1734) 
SMILES=CC(=O)c(c3)cc(c1)c(c3)c(c2)c(ccc2)c1
InChI=InChI=1S/C16H12O/c1-11(17)13-8-9-16-14(10-13)7-6-12-4-2-3-5-15(12)16/h2-10H,1H3
computed SMILES=O=C(C=1C=CC2=C(C=CC=3C=CC=CC32)C1)C
accession=JP009609
date=2016.01.19 (Created 2008.10.21, modified 2011.05.06)
author=THE INSTITUTE OF SCIENTIFIC AND INDUSTRIALRESEARCH
license=CC BY-NC-SA
exact mass=220.08882
ionization energy=70 eV
ion type=[M]+*
computed spectral entropy=2.3784039560403656
computed normalized entropy=0.6637062610488268
SPLASH=splash10-0adi-2590000000-c6d68d0639bbf7115b91
submitter=submitter = University of Tokyo Team (Faculty of Engineering, University of Tokyo)
MoNA Rating=3.75

>  <NUM PEAKS>  (1734) 
36

>  <MASS SPECTRAL PEAKS>  (1734) 
43 8.8
44 12.2
51 1.3
56 0.1
63 1.7
74 1.7
75 3.9
76 0.13
77 1.1
83 1.2
87 2.2
88 2
89 9
95 1.7
99 1.2
103 1.08
110 1.4
126 1.7
149 1.6
150 0.77
151 13.1
152 2.3
174 3.5
175 0.5
176 37
177 53.8
178 9.2
189 0.32
190 1.2
191 1.5
205 99.99
206 1.68
207 2.8
220 75.4
221 13.2
222 1.6

$$$$

     RDKit          2D

 17 19  0  0  0  0  0  0  0  0999 V2000
   -6.0281   -0.0496    0.0000 C   0  0  0  0  0  0  0  0  0  0  0  0
    3.0600    2.2000    0.0000 C   0  0  0  0  0  0  0  0  0  0  0  0
    1.7600    2.9500    0.0000 C   0  0  0  0  0  0  0  0  0  0  0  0
    3.0600    0.7000    0.0000 C   0  0  0  0  0  0  0  0  0  0  0  0
    0.4600    2.2000    0.0000 C   0  0  0  0  0  0  0  0  0  0  0  0
    1.7600   -1.5500    0.0000 C   0  0  0  0  0  0  0  0  0  0  0  0
    0.4600   -2.3000    0.0000 C   0  0  0  0  0  0  0  0  0  0  0  0
   -2.1300   -2.3000    0.0000 C   0  0  0  0  0  0  0  0  0  0  0  0
   -3.4300   -1.5500    0.0000 C   0  0  0  0  0  0  0  0  0  0  0  0
   -2.1300    0.7000    0.0000 C   0  0  0  0  0  0  0  0  0  0  0  0
   -4.7289    0.7002    0.0000 C   0  0  0  0  0  0  0  0  0  0  0  0
    1.7600   -0.0500    0.0000 C   0  0  0  0  0  0  0  0  0  0  0  0
   -0.8300   -1.5500    0.0000 C   0  0  0  0  0  0  0  0  0  0  0  0
   -3.4300   -0.0500    0.0000 C   0  0  0  0  0  0  0  0  0  0  0  0
    0.4600    0.7000    0.0000 C   0  0  0  0  0  0  0  0  0  0  0  0
   -0.8300   -0.0500    0.0000 C   0  0  0  0  0  0  0  0  0  0  0  0
   -4.7287    2.2002    0.0000 O   0  0  0  0  0  0  0  0  0  0  0  0
  3  2  2  0
  4  2  1  0
  5  3  1  0
  7  6  2  0
  9  8  1  0
 11  1  1  0
 12  4  2  0
 12  6  1  0
 13  7  1  0
 13  8  2  0
 14  9  2  0
 14 10  1  0
 14 11  1  0
 15  5  2  0
 15 12  1  0
 16 10  2  0
 16 13  1  0
 16 15  1  0
 17 11  2  0
M  END
>  <NAME>  (1735) 
METHYL 3-PHENANTHRYL KETONE

>  <SYNONYMS>  (1735) 


>  <SPECTRUM TYPE>  (1735) 
MS1

>  <INSTRUMENT TYPE>  (1735) 
EI-B

>  <INSTRUMENT>  (1735) 
JEOL JMS-DX-300

>  <ION MODE>  (1735) 
P

>  <INCHIKEY>  (1735) 
JKVNPRNAHRHQDD-UHFFFAOYSA-N

>  <FORMULA>  (1735) 
C16H12O

>  <EXACT MASS>  (1735) 
220.088815004

>  <MW>  (1735) 
220

>  <ID>  (1735) 
JP009608

>  <CONTRIBUTOR>  (1735) 
University of Tokyo Team, {Faculty of Engineering, University of Tokyo

>  <COMMENT>  (1735) 
SMILES=CC(=O)c(c3)cc(c(c3)1)c(c2)c(ccc2)cc1
InChI=InChI=1S/C16H12O/c1-11(17)14-9-8-13-7-6-12-4-2-3-5-15(12)16(13)10-14/h2-10H,1H3
computed SMILES=O=C(C=1C=CC=2C=CC=3C=CC=CC3C2C1)C
accession=JP009608
date=2016.01.19 (Created 2008.10.21, modified 2011.05.06)
author=THE INSTITUTE OF SCIENTIFIC AND INDUSTRIALRESEARCH
license=CC BY-NC-SA
exact mass=220.08882
ionization energy=70 eV
ion type=[M]+*
computed spectral entropy=2.6582552449757624
computed normalized entropy=0.6943077111931691
SPLASH=splash10-056r-2960000000-7a779159d62e72607d5a
submitter=submitter = University of Tokyo Team (Faculty of Engineering, University of Tokyo)
MoNA Rating=3.75

>  <NUM PEAKS>  (1735) 
46

>  <MASS SPECTRAL PEAKS>  (1735) 
29 2
39 1
40 2.1
43 1.5
44 12
51 1.9
63 2.5
74 0.23
75 5
76 1.8
77 1.8
87 0.27
88 16.7
89 6.9
95 1.2
96 0.3
98 1.3
99 1.7
100 1
101 0.1
103 4.9
110 1.2
125 1
126 0.27
149 2.2
150 12.4
151 21
152 0.4
163 1.1
165 1.5
174 5
175 0.74
176 51.4
177 64.6
178 10.9
179 0.11
187 1.1
189 4.8
190 1.8
191 0.22
205 99.99
206 16.7
207 1.8
220 7.17
221 13.1
222 1.8

$$$$

     RDKit          2D

 12 12  0  0  0  0  0  0  0  0999 V2000
    2.9228    1.3125    0.0000 C   0  0  0  0  0  0  0  0  0  0  0  0
   -2.2739    1.3131    0.0000 C   0  0  0  0  0  0  0  0  0  0  0  0
    0.3250   -3.1883    0.0000 C   0  0  0  0  0  0  0  0  0  0  0  0
   -2.2733   -3.1875    0.0000 C   0  0  0  0  0  0  0  0  0  0  0  0
    0.3243    1.3133    0.0000 C   0  0  0  0  0  0  0  0  0  0  0  0
    1.6243   -0.9383    0.0000 C   0  0  0  0  0  0  0  0  0  0  0  0
    1.6238    0.5625    0.0000 C   0  0  0  0  0  0  0  0  0  0  0  0
   -0.9748    0.5633    0.0000 C   0  0  0  0  0  0  0  0  0  0  0  0
    0.3252   -1.6883    0.0000 C   0  0  0  0  0  0  0  0  0  0  0  0
   -2.2733   -1.6875    0.0000 C   0  0  0  0  0  0  0  0  0  0  0  0
   -0.9743   -0.9375    0.0000 C   0  0  0  0  0  0  0  0  0  0  0  0
   -3.5724   -0.9375    0.0000 O   0  0  0  0  0  0  0  0  0  0  0  0
  7  1  1  0
  7  5  2  0
  7  6  1  0
  8  2  1  0
  8  5  1  0
  9  3  1  0
  9  6  2  0
 10  4  1  0
 11  8  2  0
 11  9  1  0
 11 10  1  0
 12 10  2  0
M  END
>  <NAME>  (1736) 
METHYL 2,4,6-TRIMETHYLPHENYL KETONE

>  <SYNONYMS>  (1736) 
2,4,6-TRIMETHYLACETOPHENONE

>  <SPECTRUM TYPE>  (1736) 
MS1

>  <INSTRUMENT TYPE>  (1736) 
EI-B

>  <INSTRUMENT>  (1736) 
JEOL JMS-DX-300

>  <ION MODE>  (1736) 
P

>  <INCHIKEY>  (1736) 
XWCIICLTKWRWCI-UHFFFAOYSA-N

>  <FORMULA>  (1736) 
C11H14O

>  <EXACT MASS>  (1736) 
162.104465068

>  <MW>  (1736) 
162

>  <ID>  (1736) 
JP009607

>  <CONTRIBUTOR>  (1736) 
University of Tokyo Team, {Faculty of Engineering, University of Tokyo

>  <COMMENT>  (1736) 
SMILES=Cc(c1)cc(C)c(C(C)=O)c(C)1
InChI=InChI=1S/C11H14O/c1-7-5-8(2)11(10(4)12)9(3)6-7/h5-6H,1-4H3
computed SMILES=O=C(C=1C(=CC(=CC1C)C)C)C
accession=JP009607
date=2016.01.19 (Created 2008.10.21, modified 2011.05.06)
author=THE INSTITUTE OF SCIENTIFIC AND INDUSTRIALRESEARCH
license=CC BY-NC-SA
exact mass=162.10447
ionization energy=70 eV
ion type=[M]+*
computed spectral entropy=3.027915374818097
computed normalized entropy=0.766319566818616
SPLASH=splash10-00mk-6900000000-849258fb9d6b395bcfb4
submitter=submitter = University of Tokyo Team (Faculty of Engineering, University of Tokyo)
MoNA Rating=3.75

>  <NUM PEAKS>  (1736) 
52

>  <MASS SPECTRAL PEAKS>  (1736) 
27 10
28 11.5
29 1.9
32 0.22
38 1
39 18.6
40 2.5
41 1.55
42 2.7
43 40.4
50 3.9
51 1.5
52 5.6
53 9
55 1
58 0.1
62 1.8
63 9
64 2.7
65 1.55
66 4
67 1.2
74 1.7
75 0.25
76 2.2
77 29.7
78 11.2
79 0.82
80 1.7
89 4.5
90 1.3
91 4.48
92 4.4
93 3
102 4.2
103 1.51
104 9.5
105 5.5
115 19.6
116 0.5
117 17.3
118 5
119 54.4
120 0.59
128 2
129 1
133 2.2
146 0.1
147 99.99
148 10.8
162 22.7
163 2.7

$$$$

     RDKit          2D

 12 12  0  0  0  0  0  0  0  0999 V2000
   -3.8981   -0.7504    0.0000 C   0  0  0  0  0  0  0  0  0  0  0  0
   -2.5987   -3.0002    0.0000 C   0  0  0  0  0  0  0  0  0  0  0  0
    3.8981    0.7504    0.0000 C   0  0  0  0  0  0  0  0  0  0  0  0
   -1.3000    0.7500    0.0000 C   0  0  0  0  0  0  0  0  0  0  0  0
    0.0000   -1.5000    0.0000 C   0  0  0  0  0  0  0  0  0  0  0  0
    0.0000    1.5000    0.0000 C   0  0  0  0  0  0  0  0  0  0  0  0
    1.3000   -0.7500    0.0000 C   0  0  0  0  0  0  0  0  0  0  0  0
   -2.5989   -1.5002    0.0000 C   0  0  0  0  0  0  0  0  0  0  0  0
    2.5989    1.5002    0.0000 C   0  0  0  0  0  0  0  0  0  0  0  0
   -1.3000   -0.7500    0.0000 C   0  0  0  0  0  0  0  0  0  0  0  0
    1.3000    0.7500    0.0000 C   0  0  0  0  0  0  0  0  0  0  0  0
    2.5987    3.0002    0.0000 O   0  0  0  0  0  0  0  0  0  0  0  0
  6  4  2  0
  7  5  1  0
  8  1  1  0
  8  2  1  0
  9  3  1  0
 10  4  1  0
 10  5  2  0
 10  8  1  0
 11  6  1  0
 11  7  2  0
 11  9  1  0
 12  9  2  0
M  END
>  <NAME>  (1737) 
4-ISOPROPYLPHENYL METHYL KETONE

>  <SYNONYMS>  (1737) 
4-ISOPROPYLACETOPHENONE

>  <SPECTRUM TYPE>  (1737) 
MS1

>  <INSTRUMENT TYPE>  (1737) 
EI-B

>  <INSTRUMENT>  (1737) 
JEOL JMS-DX-300

>  <ION MODE>  (1737) 
P

>  <INCHIKEY>  (1737) 
PDLCCNYKIIUWHA-UHFFFAOYSA-N

>  <FORMULA>  (1737) 
C11H14O

>  <EXACT MASS>  (1737) 
162.104465068

>  <MW>  (1737) 
162

>  <ID>  (1737) 
JP009606

>  <CONTRIBUTOR>  (1737) 
University of Tokyo Team, {Faculty of Engineering, University of Tokyo

>  <COMMENT>  (1737) 
SMILES=CC(C)c(c1)ccc(C(C)=O)c1
InChI=InChI=1S/C11H14O/c1-8(2)10-4-6-11(7-5-10)9(3)12/h4-8H,1-3H3
computed SMILES=O=C(C1=CC=C(C=C1)C(C)C)C
accession=JP009606
date=2016.01.19 (Created 2008.10.21, modified 2011.05.06)
author=THE INSTITUTE OF SCIENTIFIC AND INDUSTRIALRESEARCH
license=CC BY-NC-SA
exact mass=162.10447
ionization energy=70 eV
ion type=[M]+*
computed spectral entropy=2.8083742127155977
computed normalized entropy=0.7335171727733255
SPLASH=splash10-0007-9600000000-4d5212924d216e344ed2
submitter=submitter = University of Tokyo Team (Faculty of Engineering, University of Tokyo)
MoNA Rating=3.75

>  <NUM PEAKS>  (1737) 
46

>  <MASS SPECTRAL PEAKS>  (1737) 
27 9.2
29 1.8
39 12.7
40 0.17
41 16.6
42 2
43 95.9
44 0.27
50 5.6
51 15
52 3.9
53 0.33
62 1.6
63 7.7
64 1.7
65 0.79
66 1.1
74 1.8
75 3.2
76 0.57
77 25.2
78 15.7
79 5.7
89 0.47
90 3
91 31.8
92 2.7
93 0.12
101 1
102 6
103 19.5
104 1.6
105 7.8
115 8.4
116 1.7
117 0.77
118 2.8
119 14
120 1.7
131 0.3
132 3.1
133 2.8
147 99.99
148 1.11
162 26.9
163 3.4

$$$$

     RDKit          2D

 10 10  0  0  0  0  0  0  0  0999 V2000
    3.8981    0.7504    0.0000 C   0  0  0  0  0  0  0  0  0  0  0  0
    1.3000   -0.7500    0.0000 C   0  0  0  0  0  0  0  0  0  0  0  0
    0.0000    1.5000    0.0000 C   0  0  0  0  0  0  0  0  0  0  0  0
   -0.0000   -1.5000    0.0000 C   0  0  0  0  0  0  0  0  0  0  0  0
   -1.3000    0.7500    0.0000 C   0  0  0  0  0  0  0  0  0  0  0  0
    2.5989    1.5002    0.0000 C   0  0  0  0  0  0  0  0  0  0  0  0
    1.3000    0.7500    0.0000 C   0  0  0  0  0  0  0  0  0  0  0  0
   -1.3000   -0.7500    0.0000 C   0  0  0  0  0  0  0  0  0  0  0  0
   -2.5989   -1.5002    0.0000 F   0  0  0  0  0  0  0  0  0  0  0  0
    2.5987    3.0002    0.0000 O   0  0  0  0  0  0  0  0  0  0  0  0
  4  2  2  0
  5  3  1  0
  6  1  1  0
  7  2  1  0
  7  3  2  0
  7  6  1  0
  8  4  1  0
  8  5  2  0
  9  8  1  0
 10  6  2  0
M  END
>  <NAME>  (1738) 
4-FLUOROPHENYL METHYL KETONE

>  <SYNONYMS>  (1738) 
4-FLUOROACETOPHENONE

>  <SPECTRUM TYPE>  (1738) 
MS1

>  <INSTRUMENT TYPE>  (1738) 
EI-B

>  <INSTRUMENT>  (1738) 
JEOL JMS-DX-300

>  <ION MODE>  (1738) 
P

>  <INCHIKEY>  (1738) 
ZDPAWHACYDRYIW-UHFFFAOYSA-N

>  <FORMULA>  (1738) 
C8H7FO

>  <EXACT MASS>  (1738) 
138.048093064

>  <MW>  (1738) 
138

>  <ID>  (1738) 
JP009605

>  <CONTRIBUTOR>  (1738) 
University of Tokyo Team, {Faculty of Engineering, University of Tokyo

>  <COMMENT>  (1738) 
SMILES=CC(=O)c(c1)ccc(F)c1
InChI=InChI=1S/C8H7FO/c1-6(10)7-2-4-8(9)5-3-7/h2-5H,1H3
computed SMILES=O=C(C1=CC=C(F)C=C1)C
accession=JP009605
date=2016.01.19 (Created 2008.10.21, modified 2011.05.06)
author=THE INSTITUTE OF SCIENTIFIC AND INDUSTRIALRESEARCH
license=CC BY-NC-SA
exact mass=138.04809
ionization energy=70 eV
ion type=[M]+*
computed spectral entropy=2.7069808285423407
computed normalized entropy=0.715339634218979
SPLASH=splash10-00dj-9500000000-c58704fe6b4a81c62298
submitter=submitter = University of Tokyo Team (Faculty of Engineering, University of Tokyo)
MoNA Rating=3.75

>  <NUM PEAKS>  (1738) 
44

>  <MASS SPECTRAL PEAKS>  (1738) 
26 1.7
27 2
28 10.3
29 0.22
31 4
32 2.2
33 1.1
37 0.22
38 4.3
39 6.7
42 7
43 4.02
44 1.5
45 1.6
49 2
50 2.13
51 12.2
56 1.8
57 9.9
61 0.35
62 6.1
63 8
68 7.3
69 1.32
70 3
73 2
74 14.9
75 5.45
76 6
81 3.8
83 6
86 0.1
87 1
92 1.7
93 2.7
94 0.88
95 90.9
96 9
107 3.2
109 0.49
123 99.99
124 7.7
138 29
139 3.2

$$$$

     RDKit          2D

 15 16  0  0  0  0  0  0  0  0999 V2000
   -3.8981   -0.7504    0.0000 C   0  0  0  0  0  0  0  0  0  0  0  0
    5.1968    3.0006    0.0000 C   0  0  0  0  0  0  0  0  0  0  0  0
    3.8971    3.7512    0.0000 C   0  0  0  0  0  0  0  0  0  0  0  0
    5.1975    1.4998    0.0000 C   0  0  0  0  0  0  0  0  0  0  0  0
    2.5982    3.0010    0.0000 C   0  0  0  0  0  0  0  0  0  0  0  0
    3.8986    0.7496    0.0000 C   0  0  0  0  0  0  0  0  0  0  0  0
   -1.3000    0.7500    0.0000 C   0  0  0  0  0  0  0  0  0  0  0  0
   -0.0000   -1.5000    0.0000 C   0  0  0  0  0  0  0  0  0  0  0  0
    0.0000    1.5000    0.0000 C   0  0  0  0  0  0  0  0  0  0  0  0
    1.3000   -0.7500    0.0000 C   0  0  0  0  0  0  0  0  0  0  0  0
   -2.5989   -1.5002    0.0000 C   0  0  0  0  0  0  0  0  0  0  0  0
   -1.3000   -0.7500    0.0000 C   0  0  0  0  0  0  0  0  0  0  0  0
    2.5989    1.5002    0.0000 C   0  0  0  0  0  0  0  0  0  0  0  0
    1.3000    0.7500    0.0000 C   0  0  0  0  0  0  0  0  0  0  0  0
   -2.5987   -3.0002    0.0000 O   0  0  0  0  0  0  0  0  0  0  0  0
  3  2  2  0
  4  2  1  0
  5  3  1  0
  6  4  2  0
  9  7  2  0
 10  8  1  0
 11  1  1  0
 12  7  1  0
 12  8  2  0
 12 11  1  0
 13  5  2  0
 13  6  1  0
 14  9  1  0
 14 10  2  0
 14 13  1  0
 15 11  2  0
M  END
>  <NAME>  (1739) 
4-BIPHENYLYL METHYL KETONE

>  <SYNONYMS>  (1739) 
4-PHENYLACETOPHENONE

>  <SPECTRUM TYPE>  (1739) 
MS1

>  <INSTRUMENT TYPE>  (1739) 
EI-B

>  <INSTRUMENT>  (1739) 
JEOL JMS-DX-300

>  <ION MODE>  (1739) 
P

>  <INCHIKEY>  (1739) 
QCZZSANNLWPGEA-UHFFFAOYSA-N

>  <FORMULA>  (1739) 
C14H12O

>  <EXACT MASS>  (1739) 
196.088815004

>  <MW>  (1739) 
196

>  <ID>  (1739) 
JP009604

>  <CONTRIBUTOR>  (1739) 
University of Tokyo Team, {Faculty of Engineering, University of Tokyo

>  <COMMENT>  (1739) 
SMILES=CC(=O)c(c2)ccc(c2)c(c1)cccc1
InChI=InChI=1S/C14H12O/c1-11(15)12-7-9-14(10-8-12)13-5-3-2-4-6-13/h2-10H,1H3
computed SMILES=O=C(C=1C=CC(=CC1)C=2C=CC=CC2)C
accession=JP009604
date=2016.01.19 (Created 2008.10.21, modified 2011.05.06)
author=THE INSTITUTE OF SCIENTIFIC AND INDUSTRIALRESEARCH
license=CC BY-NC-SA
exact mass=196.08882
ionization energy=70 eV
ion type=[M]+*
computed spectral entropy=2.5451999195589154
computed normalized entropy=0.6809590411920546
SPLASH=splash10-0f89-2900000000-717ab61aafde57a0fef4
submitter=submitter = University of Tokyo Team (Faculty of Engineering, University of Tokyo)
MoNA Rating=3.75

>  <NUM PEAKS>  (1739) 
42

>  <MASS SPECTRAL PEAKS>  (1739) 
27 1.7
28 8.4
32 1.9
39 0.29
42 1.3
43 20.6
44 1
50 0.29
51 6.3
52 1.2
62 1.1
63 0.48
74 2.7
75 4.9
76 11.7
77 0.69
78 1
84 2.5
87 1.9
89 0.18
91 3.9
99 1
101 2.3
102 0.47
115 3.6
125 1
126 7
127 0.82
128 1.7
139 1
150 5.7
151 1.86
152 65.3
153 36
154 5.9
165 0.28
167 1.3
181 99.99
182 14.8
183 0.12
196 55.8
197 8.7

$$$$

     RDKit          2D

 11 11  0  0  0  0  0  0  0  0999 V2000
   -3.8981   -0.7504    0.0000 C   0  0  0  0  0  0  0  0  0  0  0  0
    3.8981    0.7504    0.0000 C   0  0  0  0  0  0  0  0  0  0  0  0
   -2.5989   -1.5002    0.0000 C   0  0  0  0  0  0  0  0  0  0  0  0
   -1.3000    0.7500    0.0000 C   0  0  0  0  0  0  0  0  0  0  0  0
   -0.0000   -1.5000    0.0000 C   0  0  0  0  0  0  0  0  0  0  0  0
    0.0000    1.5000    0.0000 C   0  0  0  0  0  0  0  0  0  0  0  0
    1.3000   -0.7500    0.0000 C   0  0  0  0  0  0  0  0  0  0  0  0
    2.5989    1.5002    0.0000 C   0  0  0  0  0  0  0  0  0  0  0  0
   -1.3000   -0.7500    0.0000 C   0  0  0  0  0  0  0  0  0  0  0  0
    1.3000    0.7500    0.0000 C   0  0  0  0  0  0  0  0  0  0  0  0
    2.5987    3.0002    0.0000 O   0  0  0  0  0  0  0  0  0  0  0  0
  3  1  1  0
  6  4  2  0
  7  5  1  0
  8  2  1  0
  9  3  1  0
  9  4  1  0
  9  5  2  0
 10  6  1  0
 10  7  2  0
 10  8  1  0
 11  8  2  0
M  END
>  <NAME>  (1740) 
4-ETHYLPHENYL METHYL KETONE

>  <SYNONYMS>  (1740) 
4-ETHYLACETOPHENONE

>  <SPECTRUM TYPE>  (1740) 
MS1

>  <INSTRUMENT TYPE>  (1740) 
EI-B

>  <INSTRUMENT>  (1740) 
JEOL JMS-DX-300

>  <ION MODE>  (1740) 
P

>  <INCHIKEY>  (1740) 
NODGRWCMFMEGJH-UHFFFAOYSA-N

>  <FORMULA>  (1740) 
C10H12O

>  <EXACT MASS>  (1740) 
148.088815004

>  <MW>  (1740) 
148

>  <ID>  (1740) 
JP009603

>  <CONTRIBUTOR>  (1740) 
University of Tokyo Team, {Faculty of Engineering, University of Tokyo

>  <COMMENT>  (1740) 
SMILES=CCc(c1)ccc(c1)C(C)=O
InChI=InChI=1S/C10H12O/c1-3-9-4-6-10(7-5-9)8(2)11/h4-7H,3H2,1-2H3
computed SMILES=O=C(C1=CC=C(C=C1)CC)C
accession=JP009603
date=2016.01.19 (Created 2008.10.21, modified 2011.05.06)
author=THE INSTITUTE OF SCIENTIFIC AND INDUSTRIALRESEARCH
license=CC BY-NC-SA
exact mass=148.08882
ionization energy=70 eV
ion type=[M]+*
computed spectral entropy=2.4666685448192456
computed normalized entropy=0.6994941463302985
SPLASH=splash10-001i-4900000000-100392111ea19bcf289f
submitter=submitter = University of Tokyo Team (Faculty of Engineering, University of Tokyo)
MoNA Rating=3.75

>  <NUM PEAKS>  (1740) 
34

>  <MASS SPECTRAL PEAKS>  (1740) 
27 6.2
28 9.8
29 1
32 0.21
39 6.5
41 1
42 1.1
43 2.4
50 3.9
51 9.5
52 2
53 0.25
62 1.3
63 6.2
64 1.8
65 0.39
74 1.7
75 1.9
76 2.6
77 2.02
78 5.7
79 14.1
89 7
90 0.62
91 4
102 1.9
103 11.8
104 0.43
105 23.6
106 2.1
133 99.99
134 1.03
148 41.1
149 4.8

$$$$

     RDKit          2D

  9  9  0  0  0  0  0  0  0  0999 V2000
   -2.9228    0.8825    0.0000 C   0  0  0  0  0  0  0  0  0  0  0  0
    2.2733   -0.6175    0.0000 C   0  0  0  0  0  0  0  0  0  0  0  0
    2.2738    0.8833    0.0000 C   0  0  0  0  0  0  0  0  0  0  0  0
    0.9738   -1.3683    0.0000 C   0  0  0  0  0  0  0  0  0  0  0  0
    0.9748    1.6333    0.0000 C   0  0  0  0  0  0  0  0  0  0  0  0
   -0.3252   -0.6183    0.0000 C   0  0  0  0  0  0  0  0  0  0  0  0
   -1.6238    1.6325    0.0000 C   0  0  0  0  0  0  0  0  0  0  0  0
   -0.3248    0.8825    0.0000 C   0  0  0  0  0  0  0  0  0  0  0  0
   -1.6238    3.1325    0.0000 O   0  0  0  0  0  0  0  0  0  0  0  0
  3  2  2  0
  4  2  1  0
  5  3  1  0
  6  4  2  0
  7  1  1  0
  8  5  2  0
  8  6  1  0
  8  7  1  0
  9  7  2  0
M  END
>  <NAME>  (1741) 
METHYL PHENYL KETONE

>  <SYNONYMS>  (1741) 


>  <SPECTRUM TYPE>  (1741) 
MS1

>  <INSTRUMENT TYPE>  (1741) 
EI-B

>  <INSTRUMENT>  (1741) 
JEOL JMS-DX-300

>  <ION MODE>  (1741) 
P

>  <INCHIKEY>  (1741) 
KWOLFJPFCHCOCG-UHFFFAOYSA-N

>  <FORMULA>  (1741) 
C8H8O

>  <EXACT MASS>  (1741) 
120.057514876

>  <MW>  (1741) 
120

>  <ID>  (1741) 
JP009602

>  <CONTRIBUTOR>  (1741) 
University of Tokyo Team, {Faculty of Engineering, University of Tokyo

>  <COMMENT>  (1741) 
SMILES=CC(=O)c(c1)cccc1
InChI=InChI=1S/C8H8O/c1-7(9)8-5-3-2-4-6-8/h2-6H,1H3
computed SMILES=O=C(C=1C=CC=CC1)C
accession=JP009602
date=2016.01.19 (Created 2008.10.21, modified 2011.05.06)
author=THE INSTITUTE OF SCIENTIFIC AND INDUSTRIALRESEARCH
license=CC BY-NC-SA
exact mass=120.05751
ionization energy=70 eV
ion type=[M]+*
computed spectral entropy=2.1606125821681963
computed normalized entropy=0.6798539916272104
SPLASH=splash10-0adi-9700000000-6f2471f8e98524af3f5b
submitter=submitter = University of Tokyo Team (Faculty of Engineering, University of Tokyo)
MoNA Rating=3.75

>  <NUM PEAKS>  (1741) 
24

>  <MASS SPECTRAL PEAKS>  (1741) 
26 1.1
27 3.8
29 1.2
38 0.31
39 8.1
42 3.8
43 27
50 1.73
51 39.3
52 3.7
62 2.7
63 0.46
65 3
74 5.6
75 3.3
76 0.47
77 77.9
78 8.4
89 1.2
91 0.26
105 99.99
106 7.8
120 54.1
121 5.1

$$$$

     RDKit          2D

 17 19  0  0  0  0  0  0  0  0999 V2000
   -1.2990    3.7500    0.0000 C   0  0  0  0  0  0  0  0  0  0  0  0
    3.9000   -0.7500    0.0000 C   0  0  0  0  0  0  0  0  0  0  0  0
   -3.9000   -0.7500    0.0000 C   0  0  0  0  0  0  0  0  0  0  0  0
    3.9000    0.7500    0.0000 C   0  0  0  0  0  0  0  0  0  0  0  0
   -3.9000    0.7500    0.0000 C   0  0  0  0  0  0  0  0  0  0  0  0
    2.6000   -1.5000    0.0000 C   0  0  0  0  0  0  0  0  0  0  0  0
   -2.6000   -1.5000    0.0000 C   0  0  0  0  0  0  0  0  0  0  0  0
    2.6000    1.5000    0.0000 C   0  0  0  0  0  0  0  0  0  0  0  0
   -2.6000    1.5000    0.0000 C   0  0  0  0  0  0  0  0  0  0  0  0
   -0.0000   -1.5000    0.0000 C   0  0  0  0  0  0  0  0  0  0  0  0
    0.0000    3.0000    0.0000 C   0  0  0  0  0  0  0  0  0  0  0  0
    1.3000   -0.7500    0.0000 C   0  0  0  0  0  0  0  0  0  0  0  0
   -1.3000   -0.7500    0.0000 C   0  0  0  0  0  0  0  0  0  0  0  0
    1.3000    0.7500    0.0000 C   0  0  0  0  0  0  0  0  0  0  0  0
   -1.3000    0.7500    0.0000 C   0  0  0  0  0  0  0  0  0  0  0  0
   -0.0000    1.5000    0.0000 C   0  0  0  0  0  0  0  0  0  0  0  0
    1.2990    3.7500    0.0000 O   0  0  0  0  0  0  0  0  0  0  0  0
  4  2  2  0
  5  3  1  0
  6  2  1  0
  7  3  2  0
  8  4  1  0
  9  5  2  0
 11  1  1  0
 12  6  2  0
 12 10  1  0
 13  7  1  0
 13 10  2  0
 14  8  2  0
 14 12  1  0
 15  9  1  0
 15 13  1  0
 16 11  1  0
 16 14  1  0
 16 15  2  0
 17 11  2  0
M  END
>  <NAME>  (1742) 
9-ANTHRYL METHYL KETONE

>  <SYNONYMS>  (1742) 


>  <SPECTRUM TYPE>  (1742) 
MS1

>  <INSTRUMENT TYPE>  (1742) 
EI-B

>  <INSTRUMENT>  (1742) 
JEOL JMS-DX-300

>  <ION MODE>  (1742) 
P

>  <INCHIKEY>  (1742) 
NXXNVJDXUHMAHU-UHFFFAOYSA-N

>  <FORMULA>  (1742) 
C16H12O

>  <EXACT MASS>  (1742) 
220.088815004

>  <MW>  (1742) 
220

>  <ID>  (1742) 
JP009601

>  <CONTRIBUTOR>  (1742) 
University of Tokyo Team, {Faculty of Engineering, University of Tokyo

>  <COMMENT>  (1742) 
SMILES=CC(=O)c(c21)c(c3)c(ccc3)cc(cccc2)1
InChI=InChI=1S/C16H12O/c1-11(17)16-14-8-4-2-6-12(14)10-13-7-3-5-9-15(13)16/h2-10H,1H3
computed SMILES=O=C(C=1C=2C=CC=CC2C=C3C=CC=CC31)C
accession=JP009601
date=2016.01.19 (Created 2008.10.21, modified 2011.05.06)
author=THE INSTITUTE OF SCIENTIFIC AND INDUSTRIALRESEARCH
license=CC BY-NC-SA
exact mass=220.08882
ionization energy=70 eV
ion type=[M]+*
computed spectral entropy=2.9073683590846655
computed normalized entropy=0.7044520696054098
SPLASH=splash10-056r-3960000000-64db6bc268e501fca77a
submitter=submitter = University of Tokyo Team (Faculty of Engineering, University of Tokyo)
MoNA Rating=3.75

>  <NUM PEAKS>  (1742) 
62

>  <MASS SPECTRAL PEAKS>  (1742) 
27 3
28 5.3
32 1.2
39 0.27
42 2.7
43 31.9
44 1
50 0.18
51 2.1
62 1.3
63 3.1
74 0.24
75 3.9
76 1.8
77 1.3
86 0.11
87 2.8
88 8.8
89 4.8
95 0.17
96 1.7
98 1.7
99 1.9
100 0.14
101 2.2
103 1.6
110 3.8
111 0.1
125 1.1
126 2.9
127 1.3
139 0.15
149 2.3
150 13.9
151 19.8
152 0.47
163 2.3
164 1
165 3.4
174 0.64
175 9.5
176 58.7
177 68.8
178 1.88
179 3.2
187 1.8
188 1.3
189 0.79
190 2.7
191 5.3
192 3.8
200 0.13
202 1.8
203 1.1
204 1
205 99.99
206 16.8
207 1.5
219 4.7
220 7.98
221 14
222 1.6

$$$$

     RDKit          2D

 13 14  0  0  0  0  0  0  0  0999 V2000
    4.8381    0.6104    0.0000 C   0  0  0  0  0  0  0  0  0  0  0  0
   -2.9500   -0.8900    0.0000 C   0  0  0  0  0  0  0  0  0  0  0  0
   -2.9500    0.6100    0.0000 C   0  0  0  0  0  0  0  0  0  0  0  0
   -1.6500   -1.6400    0.0000 C   0  0  0  0  0  0  0  0  0  0  0  0
   -1.6500    1.3600    0.0000 C   0  0  0  0  0  0  0  0  0  0  0  0
    0.9400   -1.6400    0.0000 C   0  0  0  0  0  0  0  0  0  0  0  0
    2.2400   -0.8900    0.0000 C   0  0  0  0  0  0  0  0  0  0  0  0
    0.9400    1.3600    0.0000 C   0  0  0  0  0  0  0  0  0  0  0  0
    3.5389    1.3602    0.0000 C   0  0  0  0  0  0  0  0  0  0  0  0
   -0.3500   -0.8900    0.0000 C   0  0  0  0  0  0  0  0  0  0  0  0
    2.2400    0.6100    0.0000 C   0  0  0  0  0  0  0  0  0  0  0  0
   -0.3500    0.6100    0.0000 C   0  0  0  0  0  0  0  0  0  0  0  0
    3.5387    2.8602    0.0000 O   0  0  0  0  0  0  0  0  0  0  0  0
  3  2  2  0
  4  2  1  0
  5  3  1  0
  7  6  2  0
  9  1  1  0
 10  4  2  0
 10  6  1  0
 11  7  1  0
 11  8  2  0
 11  9  1  0
 12  5  2  0
 12  8  1  0
 12 10  1  0
 13  9  2  0
M  END
>  <NAME>  (1743) 
METHYL 2-NAPHTHYL KETONE

>  <SYNONYMS>  (1743) 


>  <SPECTRUM TYPE>  (1743) 
MS1

>  <INSTRUMENT TYPE>  (1743) 
EI-B

>  <INSTRUMENT>  (1743) 
JEOL JMS-DX-300

>  <ION MODE>  (1743) 
P

>  <INCHIKEY>  (1743) 
XSAYZAUNJMRRIR-UHFFFAOYSA-N

>  <FORMULA>  (1743) 
C12H10O

>  <EXACT MASS>  (1743) 
170.07316494

>  <MW>  (1743) 
170

>  <ID>  (1743) 
JP009600

>  <CONTRIBUTOR>  (1743) 
University of Tokyo Team, {Faculty of Engineering, University of Tokyo

>  <COMMENT>  (1743) 
SMILES=CC(=O)c(c1)cc(c2)c(ccc2)c1
InChI=InChI=1S/C12H10O/c1-9(13)11-7-6-10-4-2-3-5-12(10)8-11/h2-8H,1H3
computed SMILES=O=C(C=1C=CC=2C=CC=CC2C1)C
license=CC BY-NC-SA
exact mass=170.07316
accession=JP009600
date=2016.01.19 (Created 2008.10.21, modified 2011.05.06)
author=THE INSTITUTE OF SCIENTIFIC AND INDUSTRIALRESEARCH
ionization energy=70 eV
ion type=[M]+*
computed spectral entropy=2.4713631403035765
computed normalized entropy=0.6793964546229385
SPLASH=splash10-004j-2900000000-78879a4ce433795813fc
submitter=submitter = University of Tokyo Team (Faculty of Engineering, University of Tokyo)
MoNA Rating=3.75

>  <NUM PEAKS>  (1743) 
38

>  <MASS SPECTRAL PEAKS>  (1743) 
27 2.2
28 7.5
29 1
32 0.18
38 1
39 3.8
42 3.7
43 2.69
50 4.7
51 7.1
52 1.2
62 0.27
63 8.5
64 3.7
74 6.8
75 0.97
76 5
77 12.9
78 2
86 0.18
87 3.8
89 1.8
98 2.3
99 0.22
100 2.1
101 9.7
102 2.2
115 0.51
125 1.7
126 24.3
127 99.99
128 1.5
139 3
141 2.6
145 84.7
146 1.07
170 33.2
171 4.5

$$$$

     RDKit          2D

 12 12  0  0  0  0  0  0  0  0999 V2000
   -5.5207    3.1321    0.0000 C   0  0  0  0  0  0  0  0  0  0  0  0
   -4.2216    2.3821    0.0000 C   0  0  0  0  0  0  0  0  0  0  0  0
    3.5726    0.8821    0.0000 C   0  0  0  0  0  0  0  0  0  0  0  0
    3.5731    2.3829    0.0000 C   0  0  0  0  0  0  0  0  0  0  0  0
    2.2731    0.1313    0.0000 C   0  0  0  0  0  0  0  0  0  0  0  0
    2.2740    3.1329    0.0000 C   0  0  0  0  0  0  0  0  0  0  0  0
    0.9740    0.8813    0.0000 C   0  0  0  0  0  0  0  0  0  0  0  0
   -0.3245    3.1321    0.0000 C   0  0  0  0  0  0  0  0  0  0  0  0
    0.9745    2.3821    0.0000 C   0  0  0  0  0  0  0  0  0  0  0  0
   -1.6236    2.3821    0.0000 C   0  0  0  0  0  0  0  0  0  0  0  0
   -1.6236    0.8821    0.0000 O   0  0  0  0  0  0  0  0  0  0  0  0
   -2.9226    3.1321    0.0000 O   0  0  0  0  0  0  0  0  0  0  0  0
  2  1  1  0
  4  3  2  0
  5  3  1  0
  6  4  1  0
  7  5  2  0
  9  6  2  0
  9  7  1  0
  9  8  1  0
 10  8  1  0
 11 10  2  0
 12  2  1  0
 12 10  1  0
M  END
>  <NAME>  (1744) 
ETHYL PHENYLACETATE

>  <SYNONYMS>  (1744) 


>  <SPECTRUM TYPE>  (1744) 
MS1

>  <INSTRUMENT TYPE>  (1744) 
EI-B

>  <INSTRUMENT>  (1744) 
JEOL JMS-DX-300

>  <ION MODE>  (1744) 
P

>  <INCHIKEY>  (1744) 
DULCUDSUACXJJC-UHFFFAOYSA-N

>  <FORMULA>  (1744) 
C10H12O2

>  <EXACT MASS>  (1744) 
164.083729624

>  <MW>  (1744) 
164

>  <ID>  (1744) 
JP009599

>  <CONTRIBUTOR>  (1744) 
University of Tokyo Team, {Faculty of Engineering, University of Tokyo

>  <COMMENT>  (1744) 
SMILES=CCOC(=O)Cc(c1)cccc1
InChI=InChI=1S/C10H12O2/c1-2-12-10(11)8-9-6-4-3-5-7-9/h3-7H,2,8H2,1H3
computed SMILES=O=C(OCC)CC=1C=CC=CC1
accession=JP009599
date=2016.01.19 (Created 2008.10.21, modified 2011.05.06)
author=THE INSTITUTE OF SCIENTIFIC AND INDUSTRIALRESEARCH
license=CC BY-NC-SA
exact mass=164.08373
ionization energy=70 eV
ion type=[M]+*
computed spectral entropy=1.7293454420083287
computed normalized entropy=0.5873259572517614
SPLASH=splash10-0006-9100000000-95ebd9a41c4a5c677094
submitter=submitter = University of Tokyo Team (Faculty of Engineering, University of Tokyo)
MoNA Rating=3.75

>  <NUM PEAKS>  (1744) 
19

>  <MASS SPECTRAL PEAKS>  (1744) 
27 6.6
29 19
30 1
39 0.6
41 1.4
43 1
51 2.7
63 0.4
64 1.3
65 15.9
77 1.2
89 0.52
90 3.7
91 99.99
92 11.8
105 0.22
119 2.1
164 16.4
165 1.8

$$$$

     RDKit          2D

 15 15  0  0  0  0  0  0  0  0999 V2000
   -4.3722    0.2744    0.0000 C   0  0  0  0  0  0  0  0  0  0  0  0
    5.4716   -0.2746    0.0000 C   0  0  0  0  0  0  0  0  0  0  0  0
   -3.0733    1.0246    0.0000 C   0  0  0  0  0  0  0  0  0  0  0  0
    2.1240   -1.9764    0.0000 C   0  0  0  0  0  0  0  0  0  0  0  0
    0.8245   -1.2256    0.0000 C   0  0  0  0  0  0  0  0  0  0  0  0
    3.4230   -1.2264    0.0000 C   0  0  0  0  0  0  0  0  0  0  0  0
    2.1230    1.0252    0.0000 C   0  0  0  0  0  0  0  0  0  0  0  0
    0.8240    0.2752    0.0000 C   0  0  0  0  0  0  0  0  0  0  0  0
    3.4225    0.2744    0.0000 C   0  0  0  0  0  0  0  0  0  0  0  0
   -0.4752    1.0250    0.0000 C   0  0  0  0  0  0  0  0  0  0  0  0
   -0.4754    2.5250    0.0000 O   0  0  0  0  0  0  0  0  0  0  0  0
    6.0206    1.7744    0.0000 O   0  0  0  0  0  0  0  0  0  0  0  0
    3.9716    2.3235    0.0000 O   0  0  0  0  0  0  0  0  0  0  0  0
   -1.7741    0.2748    0.0000 O   0  0  0  0  0  0  0  0  0  0  0  0
    4.7216    1.0244    0.0000 S   0  0  0  0  0  0  0  0  0  0  0  0
  3  1  1  0
  5  4  2  0
  6  4  1  0
  8  5  1  0
  8  7  2  0
  9  6  2  0
  9  7  1  0
 10  8  1  0
 11 10  2  0
 14  3  1  0
 14 10  1  0
 15  2  1  0
 15  9  1  0
 15 12  2  0
 15 13  2  0
M  END
>  <NAME>  (1745) 
ETHYL 3-METHYLSULFONYLBENZOATE

>  <SYNONYMS>  (1745) 


>  <SPECTRUM TYPE>  (1745) 
MS1

>  <INSTRUMENT TYPE>  (1745) 
EI-B

>  <INSTRUMENT>  (1745) 
JEOL JMS-DX-300

>  <ION MODE>  (1745) 
P

>  <INCHIKEY>  (1745) 
XCBPURUOABFDDU-UHFFFAOYSA-N

>  <FORMULA>  (1745) 
C10H12O4S

>  <EXACT MASS>  (1745) 
228.045629864

>  <MW>  (1745) 
228

>  <ID>  (1745) 
JP009598

>  <CONTRIBUTOR>  (1745) 
University of Tokyo Team, {Faculty of Engineering, University of Tokyo

>  <COMMENT>  (1745) 
SMILES=CCOC(=O)c(c1)cc(cc1)S(C)(=O)=O
InChI=InChI=1S/C10H12O4S/c1-3-14-10(11)8-5-4-6-9(7-8)15(2,12)13/h4-7H,3H2,1-2H3
computed SMILES=O=C(OCC)C1=CC=CC(=C1)S(=O)(=O)C
accession=JP009598
date=2016.01.19 (Created 2008.10.21, modified 2011.05.06)
author=THE INSTITUTE OF SCIENTIFIC AND INDUSTRIALRESEARCH
license=CC BY-NC-SA
exact mass=228.04563
ionization energy=70 eV
ion type=[M]+*
computed spectral entropy=3.614208876680302
computed normalized entropy=0.7900409214185354
SPLASH=splash10-004i-9400000000-6eab5b81cfd6f40501da
submitter=submitter = University of Tokyo Team (Faculty of Engineering, University of Tokyo)
MoNA Rating=3.75

>  <NUM PEAKS>  (1745) 
97

>  <MASS SPECTRAL PEAKS>  (1745) 
26 6.5
27 38.7
29 53.4
30 0.47
31 2.8
38 3
39 12.2
41 0.18
42 1.3
43 8
44 11.6
45 1.28
46 1
47 3
48 3.3
49 0.1
50 55.1
51 16.8
52 3.8
53 0.57
55 2.8
62 2.7
63 17
64 1.26
65 52.2
66 3.9
69 3.8
70 0.36
73 1.7
74 18.4
75 40
76 99.99
77 27.3
78 7.9
79 16.3
80 0.3
81 7
82 1.4
84 2
85 0.1
89 2.8
90 3
91 5.8
92 1.11
93 9.7
94 1.4
95 4.1
96 0.43
97 2.7
99 1
103 14.8
104 2.13
105 8.5
106 2.8
107 4.8
108 0.37
109 7.4
110 2.9
111 4.8
112 0.1
113 1.8
119 1.8
120 2.9
121 4.03
122 4.3
123 3.5
124 3.2
125 0.11
131 1.4
135 1.7
137 2.7
138 3.46
139 8.7
140 1.6
141 2.8
148 0.57
149 36.4
150 3.8
151 1.7
152 0.34
153 1.9
155 11.4
156 22.7
157 0.25
158 1.5
169 6.5
183 85.3
184 2.83
185 16
186 2.7
197 2.7
200 1.5
201 4.8
202 1.2
213 1.8
228 1.32
229 2.2

$$$$

     RDKit          2D

 12 12  0  0  0  0  0  0  0  0999 V2000
    5.5011    2.0747    0.0000 C   0  0  0  0  0  0  0  0  0  0  0  0
    4.1983    2.8181    0.0000 C   0  0  0  0  0  0  0  0  0  0  0  0
   -0.9845    2.7821    0.0000 C   0  0  0  0  0  0  0  0  0  0  0  0
    0.3105    0.5391    0.0000 C   0  0  0  0  0  0  0  0  0  0  0  0
   -2.2836    2.0321    0.0000 C   0  0  0  0  0  0  0  0  0  0  0  0
   -0.9886   -0.2109    0.0000 C   0  0  0  0  0  0  0  0  0  0  0  0
    0.3050    2.0486    0.0000 C   0  0  0  0  0  0  0  0  0  0  0  0
   -2.3018    0.5436    0.0000 C   0  0  0  0  0  0  0  0  0  0  0  0
    1.6002    2.8051    0.0000 C   0  0  0  0  0  0  0  0  0  0  0  0
   -3.6046   -0.1999    0.0000 Cl  0  0  0  0  0  0  0  0  0  0  0  0
    1.5927    4.3051    0.0000 O   0  0  0  0  0  0  0  0  0  0  0  0
    2.9030    2.0616    0.0000 O   0  0  0  0  0  0  0  0  0  0  0  0
  2  1  1  0
  5  3  2  0
  6  4  1  0
  7  3  1  0
  7  4  2  0
  8  5  1  0
  8  6  2  0
  9  7  1  0
 10  8  1  0
 11  9  2  0
 12  2  1  0
 12  9  1  0
M  END
>  <NAME>  (1746) 
ETHYL 4-CHLOROBENZOATE

>  <SYNONYMS>  (1746) 


>  <SPECTRUM TYPE>  (1746) 
MS1

>  <INSTRUMENT TYPE>  (1746) 
EI-B

>  <INSTRUMENT>  (1746) 
JEOL JMS-DX-300

>  <ION MODE>  (1746) 
P

>  <INCHIKEY>  (1746) 
RWBYCMPOFNRISR-UHFFFAOYSA-N

>  <FORMULA>  (1746) 
C9H9ClO2

>  <EXACT MASS>  (1746) 
184.029107208

>  <MW>  (1746) 
184

>  <ID>  (1746) 
JP009597

>  <CONTRIBUTOR>  (1746) 
University of Tokyo Team, {Faculty of Engineering, University of Tokyo

>  <COMMENT>  (1746) 
SMILES=CCOC(=O)c(c1)ccc(Cl)c1
InChI=InChI=1S/C9H9ClO2/c1-2-12-9(11)7-3-5-8(10)6-4-7/h3-6H,2H2,1H3
computed SMILES=O=C(OCC)C1=CC=C(Cl)C=C1
accession=JP009597
date=2016.01.19 (Created 2008.10.21, modified 2011.05.06)
author=THE INSTITUTE OF SCIENTIFIC AND INDUSTRIALRESEARCH
license=CC BY-NC-SA
exact mass=184.02911
ionization energy=70 eV
ion type=[M]+*
computed spectral entropy=2.596764347453983
computed normalized entropy=0.7303825961743227
SPLASH=splash10-000i-3900000000-86b6e5da9317d475b405
submitter=submitter = University of Tokyo Team (Faculty of Engineering, University of Tokyo)
MoNA Rating=3.75

>  <NUM PEAKS>  (1746) 
35

>  <MASS SPECTRAL PEAKS>  (1746) 
26 1.2
27 8
29 10
43 0.15
45 4.2
50 10.1
51 4.9
65 0.19
73 1
74 5.7
75 29
76 0.88
77 3
85 3.1
87 1
103 0.1
104 3.6
105 1.5
110 1.2
111 3.77
112 3.8
113 12.7
139 99.99
140 1.15
141 34.8
142 3.6
149 3.6
156 3.98
157 3.2
158 13.4
169 1.7
183 0.1
184 26.5
185 3
186 9

$$$$

     RDKit          2D

 12 12  0  0  0  0  0  0  0  0999 V2000
    6.4961    0.3959    0.0000 C   0  0  0  0  0  0  0  0  0  0  0  0
    5.1948    1.1419    0.0000 C   0  0  0  0  0  0  0  0  0  0  0  0
   -0.0000   -1.8800    0.0000 C   0  0  0  0  0  0  0  0  0  0  0  0
    1.3000   -1.1200    0.0000 C   0  0  0  0  0  0  0  0  0  0  0  0
   -1.3000   -1.1200    0.0000 C   0  0  0  0  0  0  0  0  0  0  0  0
   -0.0000    1.1200    0.0000 C   0  0  0  0  0  0  0  0  0  0  0  0
    1.3000    0.3800    0.0000 C   0  0  0  0  0  0  0  0  0  0  0  0
   -1.3000    0.3800    0.0000 C   0  0  0  0  0  0  0  0  0  0  0  0
    2.5967    1.1340    0.0000 C   0  0  0  0  0  0  0  0  0  0  0  0
   -2.5967    1.1340    0.0000 Cl  0  0  0  0  0  0  0  0  0  0  0  0
    2.5922    2.6340    0.0000 O   0  0  0  0  0  0  0  0  0  0  0  0
    3.8981    0.3879    0.0000 O   0  0  0  0  0  0  0  0  0  0  0  0
  2  1  1  0
  4  3  2  0
  5  3  1  0
  7  4  1  0
  7  6  2  0
  8  5  2  0
  8  6  1  0
  9  7  1  0
 10  8  1  0
 11  9  2  0
 12  2  1  0
 12  9  1  0
M  END
>  <NAME>  (1747) 
ETHYL 3-CHLOROBENZOATE

>  <SYNONYMS>  (1747) 


>  <SPECTRUM TYPE>  (1747) 
MS1

>  <INSTRUMENT TYPE>  (1747) 
EI-B

>  <INSTRUMENT>  (1747) 
JEOL JMS-DX-300

>  <ION MODE>  (1747) 
P

>  <INCHIKEY>  (1747) 
LVFRSNCBCHABAM-UHFFFAOYSA-N

>  <FORMULA>  (1747) 
C9H9ClO2

>  <EXACT MASS>  (1747) 
184.029107208

>  <MW>  (1747) 
184

>  <ID>  (1747) 
JP009596

>  <CONTRIBUTOR>  (1747) 
University of Tokyo Team, {Faculty of Engineering, University of Tokyo

>  <COMMENT>  (1747) 
InChI=InChI=1S/C9H9ClO2/c1-2-12-9(11)7-4-3-5-8(10)6-7/h3-6H,2H2,1H3
SMILES=CCOC(=O)c(c1)cc(Cl)cc1
computed SMILES=O=C(OCC)C=1C=CC=C(Cl)C1
accession=JP009596
date=2016.01.19 (Created 2008.10.21, modified 2011.05.06)
author=THE INSTITUTE OF SCIENTIFIC AND INDUSTRIALRESEARCH
license=CC BY-NC-SA
exact mass=184.02911
ionization energy=70 eV
ion type=[M]+*
computed spectral entropy=2.788372456063948
computed normalized entropy=0.7413517947182595
SPLASH=splash10-052r-1900000000-a97c89ba6953c002dca1
submitter=submitter = University of Tokyo Team (Faculty of Engineering, University of Tokyo)
MoNA Rating=3.75

>  <NUM PEAKS>  (1747) 
43

>  <MASS SPECTRAL PEAKS>  (1747) 
26 1.5
27 8.9
29 11.1
30 0.1
39 1
43 1.3
45 6.3
50 1.01
51 7.7
65 2.1
74 5.3
75 2.67
76 9.5
77 10.5
78 1
85 0.29
87 1
104 2
105 16.5
106 0.17
110 1.1
111 39.7
112 4.3
113 1.28
114 1.2
122 5
139 99.99
140 1.25
141 33
142 3.8
149 3.7
150 0.52
156 48.2
157 4
158 15.7
159 0.12
166 3.4
168 1
169 3.2
183 0.16
184 36.3
185 4.1
186 12.1

$$$$

     RDKit          2D

 12 12  0  0  0  0  0  0  0  0999 V2000
   -3.5727    1.3128    0.0000 C   0  0  0  0  0  0  0  0  0  0  0  0
   -2.2737    2.0630    0.0000 C   0  0  0  0  0  0  0  0  0  0  0  0
    2.9235   -0.9380    0.0000 C   0  0  0  0  0  0  0  0  0  0  0  0
    1.6240   -0.1872    0.0000 C   0  0  0  0  0  0  0  0  0  0  0  0
    4.2225   -0.1880    0.0000 C   0  0  0  0  0  0  0  0  0  0  0  0
    2.9225    2.0636    0.0000 C   0  0  0  0  0  0  0  0  0  0  0  0
    1.6235    1.3136    0.0000 C   0  0  0  0  0  0  0  0  0  0  0  0
    4.2221    1.3128    0.0000 C   0  0  0  0  0  0  0  0  0  0  0  0
    0.3243    2.0634    0.0000 C   0  0  0  0  0  0  0  0  0  0  0  0
    5.5211    2.0628    0.0000 Br  0  0  0  0  0  0  0  0  0  0  0  0
    0.3241    3.5634    0.0000 O   0  0  0  0  0  0  0  0  0  0  0  0
   -0.9746    1.3132    0.0000 O   0  0  0  0  0  0  0  0  0  0  0  0
  2  1  1  0
  4  3  2  0
  5  3  1  0
  7  4  1  0
  7  6  2  0
  8  5  2  0
  8  6  1  0
  9  7  1  0
 10  8  1  0
 11  9  2  0
 12  2  1  0
 12  9  1  0
M  END
>  <NAME>  (1748) 
ETHYL 3-BROMOBENZOATE

>  <SYNONYMS>  (1748) 


>  <SPECTRUM TYPE>  (1748) 
MS1

>  <INSTRUMENT TYPE>  (1748) 
EI-B

>  <INSTRUMENT>  (1748) 
JEOL JMS-DX-300

>  <ION MODE>  (1748) 
P

>  <INCHIKEY>  (1748) 
QAUASTLEZAPQTB-UHFFFAOYSA-N

>  <FORMULA>  (1748) 
C9H9BrO2

>  <EXACT MASS>  (1748) 
227.978591628

>  <MW>  (1748) 
228

>  <ID>  (1748) 
JP009595

>  <CONTRIBUTOR>  (1748) 
University of Tokyo Team, {Faculty of Engineering, University of Tokyo

>  <COMMENT>  (1748) 
SMILES=CCOC(=O)c(c1)cc(Br)cc1
InChI=InChI=1S/C9H9BrO2/c1-2-12-9(11)7-4-3-5-8(10)6-7/h3-6H,2H2,1H3
computed SMILES=O=C(OCC)C=1C=CC=C(Br)C1
accession=JP009595
date=2016.01.19 (Created 2008.10.21, modified 2011.05.06)
author=THE INSTITUTE OF SCIENTIFIC AND INDUSTRIALRESEARCH
license=CC BY-NC-SA
exact mass=227.97859
ionization energy=70 eV
ion type=[M]+*
computed spectral entropy=2.6118019684390847
computed normalized entropy=0.7233069351406272
SPLASH=splash10-0uei-1950000000-1365544da0e8a94b5a36
submitter=submitter = University of Tokyo Team (Faculty of Engineering, University of Tokyo)
MoNA Rating=3.75

>  <NUM PEAKS>  (1748) 
37

>  <MASS SPECTRAL PEAKS>  (1748) 
27 1.7
28 4.3
29 8.5
45 0.8
51 1
65 6.1
75 7.7
76 1.39
77 5.7
103 2.7
104 7.3
105 0.41
121 2.1
131 2.1
149 21.4
150 0.23
155 27.7
156 2.8
157 28.3
158 0.26
183 99.99
184 12.8
185 97
186 1.19
200 60.6
201 4.9
202 57.5
203 0.45
210 2.8
212 2.6
213 2.3
215 0.17
227 1
228 43.9
229 5.5
230 4.25
231 4.2

$$$$

     RDKit          2D

 14 14  0  0  0  0  0  0  0  0999 V2000
   -6.4962    0.7508    0.0000 C   0  0  0  0  0  0  0  0  0  0  0  0
    3.8981   -0.7504    0.0000 C   0  0  0  0  0  0  0  0  0  0  0  0
    2.5987   -3.0002    0.0000 C   0  0  0  0  0  0  0  0  0  0  0  0
   -5.1970    1.5006    0.0000 C   0  0  0  0  0  0  0  0  0  0  0  0
   -1.3000   -0.7500    0.0000 C   0  0  0  0  0  0  0  0  0  0  0  0
    0.0000    1.5000    0.0000 C   0  0  0  0  0  0  0  0  0  0  0  0
    0.0000   -1.5000    0.0000 C   0  0  0  0  0  0  0  0  0  0  0  0
    1.3000    0.7500    0.0000 C   0  0  0  0  0  0  0  0  0  0  0  0
   -1.3000    0.7500    0.0000 C   0  0  0  0  0  0  0  0  0  0  0  0
    1.3000   -0.7500    0.0000 C   0  0  0  0  0  0  0  0  0  0  0  0
   -2.5989    1.5002    0.0000 C   0  0  0  0  0  0  0  0  0  0  0  0
    2.5989   -1.5002    0.0000 N   0  0  0  0  0  0  0  0  0  0  0  0
   -2.5987    3.0002    0.0000 O   0  0  0  0  0  0  0  0  0  0  0  0
   -3.8981    0.7504    0.0000 O   0  0  0  0  0  0  0  0  0  0  0  0
  4  1  1  0
  7  5  2  0
  8  6  1  0
  9  5  1  0
  9  6  2  0
 10  7  1  0
 10  8  2  0
 11  9  1  0
 12  2  1  0
 12  3  1  0
 12 10  1  0
 13 11  2  0
 14  4  1  0
 14 11  1  0
M  END
>  <NAME>  (1749) 
ETHYL 4-DIMETHYLAMINOBENZOATE

>  <SYNONYMS>  (1749) 


>  <SPECTRUM TYPE>  (1749) 
MS1

>  <INSTRUMENT TYPE>  (1749) 
EI-B

>  <INSTRUMENT>  (1749) 
JEOL JMS-DX-300

>  <ION MODE>  (1749) 
P

>  <INCHIKEY>  (1749) 
FZUGPQWGEGAKET-UHFFFAOYSA-N

>  <FORMULA>  (1749) 
C11H15NO2

>  <EXACT MASS>  (1749) 
193.11027872

>  <MW>  (1749) 
193

>  <ID>  (1749) 
JP009594

>  <CONTRIBUTOR>  (1749) 
University of Tokyo Team, {Faculty of Engineering, University of Tokyo

>  <COMMENT>  (1749) 
SMILES=CCOC(=O)c(c1)ccc(N(C)C)c1
InChI=InChI=1S/C11H15NO2/c1-4-14-11(13)9-5-7-10(8-6-9)12(2)3/h5-8H,4H2,1-3H3
computed SMILES=O=C(OCC)C1=CC=C(C=C1)N(C)C
accession=JP009594
date=2016.01.19 (Created 2008.10.21, modified 2011.05.06)
author=THE INSTITUTE OF SCIENTIFIC AND INDUSTRIALRESEARCH
license=CC BY-NC-SA
exact mass=193.11028
ionization energy=70 eV
ion type=[M]+*
computed spectral entropy=3.0522228915609397
computed normalized entropy=0.7687653598322425
SPLASH=splash10-0002-4900000000-77f75b3b43a3a102c2b7
submitter=submitter = University of Tokyo Team (Faculty of Engineering, University of Tokyo)
MoNA Rating=3.75

>  <NUM PEAKS>  (1749) 
53

>  <MASS SPECTRAL PEAKS>  (1749) 
26 1.6
27 8.4
29 11.3
30 0.1
38 1
39 4.3
40 2.8
41 0.26
42 26.5
43 4.7
44 9.9
45 0.22
50 6.5
51 8.4
52 2.8
53 0.17
60 1.2
63 4.1
64 1.2
65 0.47
66 1
74 4.7
75 1.2
76 0.37
77 13.3
78 6.1
79 5.9
80 0.1
90 2.7
91 6
92 2.9
93 0.19
103 2.2
104 9.9
105 10.6
106 0.12
117 1.2
118 6.8
119 6.8
120 1.18
121 9.3
132 4.1
148 99.99
149 1.39
150 2.2
164 41.5
165 35.3
166 0.36
178 1.1
191 2.9
192 12.1
193 9
194 11.2

$$$$

     RDKit          2D

 15 15  0  0  0  0  0  0  0  0999 V2000
    3.8978    0.5498    0.0000 C   0  0  0  0  0  0  0  0  0  0  0  0
   -5.9474   -0.4024    0.0000 C   0  0  0  0  0  0  0  0  0  0  0  0
   -6.4962   -2.4515    0.0000 C   0  0  0  0  0  0  0  0  0  0  0  0
   -4.4470   -3.0002    0.0000 C   0  0  0  0  0  0  0  0  0  0  0  0
    2.5987    1.2995    0.0000 C   0  0  0  0  0  0  0  0  0  0  0  0
   -1.2983   -0.9511    0.0000 C   0  0  0  0  0  0  0  0  0  0  0  0
   -2.5983    1.2989    0.0000 C   0  0  0  0  0  0  0  0  0  0  0  0
   -2.5983   -1.7011    0.0000 C   0  0  0  0  0  0  0  0  0  0  0  0
   -3.8983    0.5489    0.0000 C   0  0  0  0  0  0  0  0  0  0  0  0
   -1.2983    0.5489    0.0000 C   0  0  0  0  0  0  0  0  0  0  0  0
   -3.8983   -0.9511    0.0000 C   0  0  0  0  0  0  0  0  0  0  0  0
    0.0006    1.2991    0.0000 C   0  0  0  0  0  0  0  0  0  0  0  0
   -5.1972   -1.7013    0.0000 C   0  0  0  0  0  0  0  0  0  0  0  0
    0.0004    2.7991    0.0000 O   0  0  0  0  0  0  0  0  0  0  0  0
    1.2998    0.5493    0.0000 O   0  0  0  0  0  0  0  0  0  0  0  0
  5  1  1  0
  8  6  2  0
  9  7  1  0
 10  6  1  0
 10  7  2  0
 11  8  1  0
 11  9  2  0
 12 10  1  0
 13  2  1  0
 13  3  1  0
 13  4  1  0
 13 11  1  0
 14 12  2  0
 15  5  1  0
 15 12  1  0
M  END
>  <NAME>  (1750) 
ETHYL 4-TERT-BUTYLBENZOATE

>  <SYNONYMS>  (1750) 


>  <SPECTRUM TYPE>  (1750) 
MS1

>  <INSTRUMENT TYPE>  (1750) 
EI-B

>  <INSTRUMENT>  (1750) 
JEOL JMS-DX-300

>  <ION MODE>  (1750) 
P

>  <INCHIKEY>  (1750) 
LIQWHXBLFOERRD-UHFFFAOYSA-N

>  <FORMULA>  (1750) 
C13H18O2

>  <EXACT MASS>  (1750) 
206.130679816

>  <MW>  (1750) 
206

>  <ID>  (1750) 
JP009593

>  <CONTRIBUTOR>  (1750) 
University of Tokyo Team, {Faculty of Engineering, University of Tokyo

>  <COMMENT>  (1750) 
SMILES=CCOC(=O)c(c1)ccc(c1)C(C)(C)C
InChI=InChI=1S/C13H18O2/c1-5-15-12(14)10-6-8-11(9-7-10)13(2,3)4/h6-9H,5H2,1-4H3
computed SMILES=O=C(OCC)C1=CC=C(C=C1)C(C)(C)C
accession=JP009593
date=2016.01.19 (Created 2008.10.21, modified 2011.05.06)
author=THE INSTITUTE OF SCIENTIFIC AND INDUSTRIALRESEARCH
license=CC BY-NC-SA
exact mass=206.13068
ionization energy=70 eV
ion type=[M]+*
computed spectral entropy=3.0609249913289514
computed normalized entropy=0.7506797996187146
SPLASH=splash10-0006-6910000000-083fb9f5476630afbebf
submitter=submitter = University of Tokyo Team (Faculty of Engineering, University of Tokyo)
MoNA Rating=3.75

>  <NUM PEAKS>  (1750) 
59

>  <MASS SPECTRAL PEAKS>  (1750) 
26 1.7
27 12.8
29 34.8
30 0.1
31 1.7
39 9.4
40 1
41 2.87
43 1.6
45 2.4
50 3.5
51 0.77
52 1.5
53 2.1
55 2.2
57 0.38
58 1.3
63 3.1
64 1
65 0.55
72 1.5
74 1.1
75 2
76 0.38
77 12.8
78 3.5
79 5.9
89 0.35
90 4.6
91 26.3
92 2.5
93 0.1
101 1
102 3
103 7.3
104 0.21
105 6.1
107 3.9
115 11.5
116 0.3
117 9.1
118 11.3
119 6.2
131 0.18
133 2
135 5.9
145 5.9
146 0.34
147 1.2
161 15.9
162 2.2
163 1.41
164 1.5
178 1
191 99.99
192 1.44
193 1.6
206 22.2
207 4

$$$$

     RDKit          2D

 12 12  0  0  0  0  0  0  0  0999 V2000
   -1.3000    0.7500    0.0000 C   0  0  0  0  0  0  0  0  0  0  0  0
    0.0000    1.5000    0.0000 C   0  0  0  0  0  0  0  0  0  0  0  0
    0.0000   -1.5000    0.0000 C   0  0  0  0  0  0  0  0  0  0  0  0
    1.3000   -0.7500    0.0000 C   0  0  0  0  0  0  0  0  0  0  0  0
   -1.3000   -0.7500    0.0000 C   0  0  0  0  0  0  0  0  0  0  0  0
    1.3000    0.7500    0.0000 C   0  0  0  0  0  0  0  0  0  0  0  0
   -2.5989   -1.5002    0.0000 C   0  0  0  0  0  0  0  0  0  0  0  0
    2.5989    1.5002    0.0000 C   0  0  0  0  0  0  0  0  0  0  0  0
   -3.8981   -0.7504    0.0000 O   0  0  0  0  0  0  0  0  0  0  0  0
   -2.5987   -3.0002    0.0000 O   0  0  0  0  0  0  0  0  0  0  0  0
    3.8981    0.7504    0.0000 O   0  0  0  0  0  0  0  0  0  0  0  0
    2.5987    3.0002    0.0000 O   0  0  0  0  0  0  0  0  0  0  0  0
  2  1  2  0
  4  3  1  0
  5  1  1  0
  5  3  2  0
  6  2  1  0
  6  4  2  0
  7  5  1  0
  8  6  1  0
  9  7  1  0
 10  7  2  0
 11  8  1  0
 12  8  2  0
M  END
>  <NAME>  (1751) 
TEREPHTHALIC ACID

>  <SYNONYMS>  (1751) 


>  <SPECTRUM TYPE>  (1751) 
MS1

>  <INSTRUMENT TYPE>  (1751) 
EI-B

>  <INSTRUMENT>  (1751) 
JEOL JMS-AX-505-H

>  <ION MODE>  (1751) 
P

>  <INCHIKEY>  (1751) 
KKEYFWRCBNTPAC-UHFFFAOYSA-N

>  <FORMULA>  (1751) 
C8H6O4

>  <EXACT MASS>  (1751) 
166.026608672

>  <MW>  (1751) 
166

>  <ID>  (1751) 
JP009592

>  <CONTRIBUTOR>  (1751) 
University of Tokyo Team, {Faculty of Engineering, University of Tokyo

>  <COMMENT>  (1751) 
SMILES=OC(=O)c(c1)ccc(c1)C(O)=O
InChI=InChI=1S/C8H6O4/c9-7(10)5-1-2-6(4-3-5)8(11)12/h1-4H,(H,9,10)(H,11,12)
computed SMILES=O=C(O)C1=CC=C(C=C1)C(=O)O
accession=JP009592
date=2016.01.19 (Created 2008.10.21, modified 2011.05.06)
author=HAMAMATSU UNIV. SCHOOL OF MEDICINE
license=CC BY-NC-SA
exact mass=166.02661
ionization energy=70 eV
ion type=[M]+*
computed spectral entropy=3.3723940455019
computed normalized entropy=0.8078776183088093
SPLASH=splash10-014j-9500000000-6b6ec61e945c382eed89
submitter=submitter = University of Tokyo Team (Faculty of Engineering, University of Tokyo)
MoNA Rating=3.75

>  <NUM PEAKS>  (1751) 
65

>  <MASS SPECTRAL PEAKS>  (1751) 
23 1.01
26 1.65
27 7.15
29 9.25
31 3.54
32 3.64
37 4.75
38 10.59
39 29.25
40 2.55
41 8.43
42 3.24
43 8.07
44 4.4
45 17.4
49 4.68
50 44.82
51 35.32
52 4.45
53 7.77
55 1.81
56 2.24
57 3.11
59 3.19
60 2.8
61 4.04
62 8.47
63 10.82
65 93.66
66 7.05
67 1.73
68 3.58
69 2.75
71 3.05
72 1.74
73 11.01
74 45.36
75 30.27
76 36.28
77 12.04
78 3.5
81 4.44
83 1.82
86 1.19
90 1.5
92 1.09
93 8.62
98 1.01
101 2.79
102 2.31
103 8.3
104 11.11
105 6.83
115 1.61
119 3.53
120 2.24
121 42.97
122 6.16
138 5.29
148 7.68
149 99.99
150 9.17
166 88.83
167 6.73
168 1.39

$$$$

     RDKit          2D

  9  9  0  0  0  0  0  0  0  0999 V2000
   -1.3000    0.7500    0.0000 C   0  0  0  0  0  0  0  0  0  0  0  0
    0.0000    1.5000    0.0000 C   0  0  0  0  0  0  0  0  0  0  0  0
   -0.0000   -1.5000    0.0000 C   0  0  0  0  0  0  0  0  0  0  0  0
   -1.3000   -0.7500    0.0000 C   0  0  0  0  0  0  0  0  0  0  0  0
    1.3000    0.7500    0.0000 C   0  0  0  0  0  0  0  0  0  0  0  0
    1.3000   -0.7500    0.0000 C   0  0  0  0  0  0  0  0  0  0  0  0
   -2.5989   -1.5002    0.0000 Cl  0  0  0  0  0  0  0  0  0  0  0  0
    2.5989    1.5002    0.0000 Cl  0  0  0  0  0  0  0  0  0  0  0  0
    2.5989   -1.5002    0.0000 N   0  0  0  0  0  0  0  0  0  0  0  0
  2  1  2  0
  4  1  1  0
  4  3  2  0
  5  2  1  0
  6  3  1  0
  6  5  2  0
  7  4  1  0
  8  5  1  0
  9  6  1  0
M  END
>  <NAME>  (1752) 
2,5-DICHLOROANILINE

>  <SYNONYMS>  (1752) 


>  <SPECTRUM TYPE>  (1752) 
MS1

>  <INSTRUMENT TYPE>  (1752) 
EI-B

>  <INSTRUMENT>  (1752) 
JEOL JMS-AX-505-H

>  <ION MODE>  (1752) 
P

>  <INCHIKEY>  (1752) 
AVYGCQXNNJPXSS-UHFFFAOYSA-N

>  <FORMULA>  (1752) 
C6H5Cl2N

>  <EXACT MASS>  (1752) 
160.97990452

>  <MW>  (1752) 
161

>  <ID>  (1752) 
JP009591

>  <CONTRIBUTOR>  (1752) 
University of Tokyo Team, {Faculty of Engineering, University of Tokyo

>  <COMMENT>  (1752) 
SMILES=Nc(c1)c(Cl)ccc(Cl)1
InChI=InChI=1S/C6H5Cl2N/c7-4-1-2-5(8)6(9)3-4/h1-3H,9H2
computed SMILES=ClC1=CC=C(Cl)C(N)=C1
accession=JP009591
date=2016.01.19 (Created 2008.10.21, modified 2011.05.06)
author=HAMAMATSU UNIV. SCHOOL OF MEDICINE
license=CC BY-NC-SA
exact mass=160.9799
ionization energy=70 eV
ion type=[M]+*
computed spectral entropy=2.260571954701556
computed normalized entropy=0.7209619278572563
SPLASH=splash10-03di-3900000000-f53c9e35d37113085961
submitter=submitter = University of Tokyo Team (Faculty of Engineering, University of Tokyo)
MoNA Rating=3.75

>  <NUM PEAKS>  (1752) 
23

>  <MASS SPECTRAL PEAKS>  (1752) 
28 4.79
37 2.22
38 1.34
52 5.62
61 3.37
62 7.52
63 16.8
65 1.28
73 4.51
90 21.36
91 1.44
98 1.2
99 14.86
101 3.72
125 8.29
126 12.28
128 2.3
133 2.66
161 99.99
162 7.29
163 67.42
164 1.25
165 9.65

$$$$

     RDKit          2D

 11 11  0  0  0  0  0  0  0  0999 V2000
    0.0008   -2.2500    0.0000 C   0  0  0  0  0  0  0  0  0  0  0  0
   -1.2992   -3.0000    0.0000 C   0  0  0  0  0  0  0  0  0  0  0  0
   -1.2992    0.0000    0.0000 C   0  0  0  0  0  0  0  0  0  0  0  0
    0.0008   -0.7500    0.0000 C   0  0  0  0  0  0  0  0  0  0  0  0
   -2.5992   -2.2500    0.0000 C   0  0  0  0  0  0  0  0  0  0  0  0
   -2.5992   -0.7500    0.0000 C   0  0  0  0  0  0  0  0  0  0  0  0
    1.2998    0.0002    0.0000 C   0  0  0  0  0  0  0  0  0  0  0  0
   -3.8981   -3.0002    0.0000 Cl  0  0  0  0  0  0  0  0  0  0  0  0
   -3.8981    0.0002    0.0000 Cl  0  0  0  0  0  0  0  0  0  0  0  0
    1.2995    1.5002    0.0000 O   0  0  0  0  0  0  0  0  0  0  0  0
    2.5989   -0.7496    0.0000 O   0  0  0  0  0  0  0  0  0  0  0  0
  2  1  2  0
  4  1  1  0
  4  3  2  0
  5  2  1  0
  6  3  1  0
  6  5  2  0
  7  4  1  0
  8  5  1  0
  9  6  1  0
 10  7  2  0
 11  7  1  0
M  END
>  <NAME>  (1753) 
3,4-DICHLOROBEZOIC ACID

>  <SYNONYMS>  (1753) 


>  <SPECTRUM TYPE>  (1753) 
MS1

>  <INSTRUMENT TYPE>  (1753) 
EI-B

>  <INSTRUMENT>  (1753) 
JEOL JMS-AX-505-H

>  <ION MODE>  (1753) 
P

>  <INCHIKEY>  (1753) 
VPHHJAOJUJHJKD-UHFFFAOYSA-N

>  <FORMULA>  (1753) 
C7H4Cl2O2

>  <EXACT MASS>  (1753) 
189.958834728

>  <MW>  (1753) 
190

>  <ID>  (1753) 
JP009590

>  <CONTRIBUTOR>  (1753) 
University of Tokyo Team, {Faculty of Engineering, University of Tokyo

>  <COMMENT>  (1753) 
SMILES=OC(=O)c(c1)cc(Cl)c(Cl)c1
InChI=InChI=1S/C7H4Cl2O2/c8-5-2-1-4(7(10)11)3-6(5)9/h1-3H,(H,10,11)
computed SMILES=O=C(O)C1=CC=C(Cl)C(Cl)=C1
accession=JP009590
date=2016.01.19 (Created 2008.10.21, modified 2011.05.06)
author=HAMAMATSU UNIV. SCHOOL OF MEDICINE
license=CC BY-NC-SA
exact mass=189.95883
ionization energy=70 eV
ion type=[M]+*
computed spectral entropy=3.0033493276588468
computed normalized entropy=0.7717081205205933
SPLASH=splash10-006x-2900000000-6bd0174e168753d5ff4a
submitter=submitter = University of Tokyo Team (Faculty of Engineering, University of Tokyo)
MoNA Rating=3.75

>  <NUM PEAKS>  (1753) 
49

>  <MASS SPECTRAL PEAKS>  (1753) 
37 4.3
38 2.19
45 5.54
49 2.74
50 8.1
51 1.94
53 1.55
54 2.14
55 1.94
61 2.05
62 2.14
63 3.74
72 1.96
73 7.34
74 25.92
75 21.46
76 1.75
81 2
82 1.24
84 7
85 3.84
86 2.39
87 1.48
99 6.33
101 2.35
108 2.27
109 20.35
110 7.52
111 10.01
112 2.36
113 1.63
144 1.6
145 38.74
146 3.92
147 25.09
148 2.1
149 4.19
162 2.91
164 1.9
173 90.78
174 7.77
175 59.79
176 4.66
177 9.98
190 99.99
191 8.35
192 65.27
193 5.32
194 11.58

$$$$

     RDKit          2D

 13 15  0  0  0  0  0  0  0  0999 V2000
    3.2200   -1.2700    0.0000 C   0  0  0  0  0  0  0  0  0  0  0  0
   -3.2200   -1.2700    0.0000 C   0  0  0  0  0  0  0  0  0  0  0  0
    3.6800    0.1600    0.0000 C   0  0  0  0  0  0  0  0  0  0  0  0
   -3.6800    0.1600    0.0000 C   0  0  0  0  0  0  0  0  0  0  0  0
    1.7500   -1.5800    0.0000 C   0  0  0  0  0  0  0  0  0  0  0  0
   -1.7500   -1.5800    0.0000 C   0  0  0  0  0  0  0  0  0  0  0  0
    2.6800    1.2700    0.0000 C   0  0  0  0  0  0  0  0  0  0  0  0
   -2.6800    1.2700    0.0000 C   0  0  0  0  0  0  0  0  0  0  0  0
    0.7500   -0.4700    0.0000 C   0  0  0  0  0  0  0  0  0  0  0  0
   -0.7500   -0.4700    0.0000 C   0  0  0  0  0  0  0  0  0  0  0  0
    1.2100    0.9600    0.0000 C   0  0  0  0  0  0  0  0  0  0  0  0
   -1.2100    0.9600    0.0000 C   0  0  0  0  0  0  0  0  0  0  0  0
    0.0000    1.8400    0.0000 S   0  0  0  0  0  0  0  0  0  0  0  0
  3  1  2  0
  4  2  2  0
  5  1  1  0
  6  2  1  0
  7  3  1  0
  8  4  1  0
  9  5  2  0
 10  6  2  0
 10  9  1  0
 11  7  2  0
 11  9  1  0
 12  8  2  0
 12 10  1  0
 13 11  1  0
 13 12  1  0
M  END
>  <NAME>  (1754) 
DIBENZOTHIOPHENE

>  <SYNONYMS>  (1754) 


>  <SPECTRUM TYPE>  (1754) 
MS1

>  <INSTRUMENT TYPE>  (1754) 
EI-B

>  <INSTRUMENT>  (1754) 
JEOL JMS-AX-505-H

>  <ION MODE>  (1754) 
P

>  <INCHIKEY>  (1754) 
IYYZUPMFVPLQIF-UHFFFAOYSA-N

>  <FORMULA>  (1754) 
C12H8S

>  <EXACT MASS>  (1754) 
184.034671256

>  <MW>  (1754) 
184

>  <ID>  (1754) 
JP009589

>  <CONTRIBUTOR>  (1754) 
University of Tokyo Team, {Faculty of Engineering, University of Tokyo

>  <COMMENT>  (1754) 
SMILES=c(c3)cc(s1)c(c3)c(c2)c(ccc2)1
InChI=InChI=1S/C12H8S/c1-3-7-11-9(5-1)10-6-2-4-8-12(10)13-11/h1-8H
computed SMILES=S1C=2C=CC=CC2C=3C=CC=CC13
accession=JP009589
date=2016.01.19 (Created 2008.10.21, modified 2011.05.06)
author=HAMAMATSU UNIV. SCHOOL OF MEDICINE
license=CC BY-NC-SA
exact mass=184.03467
ionization energy=70 eV
ion type=[M]+*
computed spectral entropy=2.0033421731387975
computed normalized entropy=0.6223732390238527
SPLASH=splash10-001i-1900000000-340859bcf04890563bce
submitter=submitter = University of Tokyo Team (Faculty of Engineering, University of Tokyo)
MoNA Rating=3.75

>  <NUM PEAKS>  (1754) 
25

>  <MASS SPECTRAL PEAKS>  (1754) 
63 1.76
69 2.02
74 1.37
75 1.37
79 5.23
87 1.21
89 1.22
91 2.2
92 8.74
113 1.7
114 1.35
115 1.15
138 1.87
139 14.34
140 2.44
150 1.12
151 1.82
152 7.89
153 1.16
158 1.78
182 2.21
183 4.76
184 99.99
185 16.14
186 6.15

$$$$

     RDKit          2D

 12 13  0  0  0  0  0  0  0  0999 V2000
   -3.3911    3.6304    0.0000 C   0  0  0  0  0  0  0  0  0  0  0  0
   -2.0915    4.3812    0.0000 C   0  0  0  0  0  0  0  0  0  0  0  0
   -3.3915    2.1295    0.0000 C   0  0  0  0  0  0  0  0  0  0  0  0
   -0.7925    3.6312    0.0000 C   0  0  0  0  0  0  0  0  0  0  0  0
   -2.0925    1.3795    0.0000 C   0  0  0  0  0  0  0  0  0  0  0  0
    2.1316   -0.4242    0.0000 C   0  0  0  0  0  0  0  0  0  0  0  0
    0.6718   -0.1125    0.0000 C   0  0  0  0  0  0  0  0  0  0  0  0
   -0.7930    2.1304    0.0000 C   0  0  0  0  0  0  0  0  0  0  0  0
    2.8816    0.8749    0.0000 C   0  0  0  0  0  0  0  0  0  0  0  0
    1.8818    1.9833    0.0000 N   0  0  0  0  0  0  0  0  0  0  0  0
    0.5060    1.3804    0.0000 N   0  0  0  0  0  0  0  0  0  0  0  0
    4.3733    1.0323    0.0000 O   0  0  0  0  0  0  0  0  0  0  0  0
  2  1  2  0
  3  1  1  0
  4  2  1  0
  5  3  2  0
  7  6  1  0
  8  4  2  0
  8  5  1  0
  9  6  1  0
 10  9  2  0
 11  7  1  0
 11  8  1  0
 11 10  1  0
 12  9  1  0
M  END
>  <NAME>  (1755) 
1-PHENYL-3-PYRAZOLIDONE

>  <SYNONYMS>  (1755) 


>  <SPECTRUM TYPE>  (1755) 
MS1

>  <INSTRUMENT TYPE>  (1755) 
EI-B

>  <INSTRUMENT>  (1755) 
JEOL JMS-AX-505-H

>  <ION MODE>  (1755) 
P

>  <INCHIKEY>  (1755) 
CMCWWLVWPDLCRM-UHFFFAOYSA-N

>  <FORMULA>  (1755) 
C9H10N2O

>  <EXACT MASS>  (1755) 
162.07931294

>  <MW>  (1755) 
162

>  <ID>  (1755) 
JP009588

>  <CONTRIBUTOR>  (1755) 
University of Tokyo Team, {Faculty of Engineering, University of Tokyo

>  <COMMENT>  (1755) 
SMILES=O=C(C2)NN(C2)c(c1)cccc1
InChI=InChI=1S/C9H10N2O/c12-9-6-7-11(10-9)8-4-2-1-3-5-8/h1-5H,6-7H2,(H,10,12)
computed SMILES=OC1=NN(C=2C=CC=CC2)CC1
accession=JP009588
date=2016.01.19 (Created 2008.10.21, modified 2011.05.06)
author=HAMAMATSU UNIV. SCHOOL OF MEDICINE
license=CC BY-NC-SA
exact mass=162.07931
ionization energy=70 eV
ion type=[M]+*
computed spectral entropy=2.8085596293471244
computed normalized entropy=0.7777965872645539
SPLASH=splash10-08i0-7900000000-c37d774964dd44b01660
submitter=submitter = University of Tokyo Team (Faculty of Engineering, University of Tokyo)
MoNA Rating=3.75

>  <NUM PEAKS>  (1755) 
37

>  <MASS SPECTRAL PEAKS>  (1755) 
26 1.13
27 4.77
28 3.51
29 2
38 1.78
39 4.33
50 5.85
51 19.28
52 3.28
55 6.79
63 3.19
64 3.23
65 4.5
66 1.08
74 1.86
75 1.43
76 2.12
77 62.55
78 8.13
79 3.33
91 10.62
92 14.61
93 3.15
104 4.76
105 20.56
106 16.53
107 30.39
108 1.55
117 10.86
118 9.06
119 1.18
120 4.86
133 1.2
160 3.35
161 4.83
162 99.99
163 11.94

$$$$

     RDKit          2D

 10 10  0  0  0  0  0  0  0  0999 V2000
    0.0008   -2.2500    0.0000 C   0  0  0  0  0  0  0  0  0  0  0  0
   -1.2992    0.0000    0.0000 C   0  0  0  0  0  0  0  0  0  0  0  0
   -1.2992   -3.0000    0.0000 C   0  0  0  0  0  0  0  0  0  0  0  0
   -2.5992   -0.7500    0.0000 C   0  0  0  0  0  0  0  0  0  0  0  0
    0.0008   -0.7500    0.0000 C   0  0  0  0  0  0  0  0  0  0  0  0
   -2.5992   -2.2500    0.0000 C   0  0  0  0  0  0  0  0  0  0  0  0
    1.2998    0.0002    0.0000 C   0  0  0  0  0  0  0  0  0  0  0  0
   -3.8981   -3.0002    0.0000 Br  0  0  0  0  0  0  0  0  0  0  0  0
    2.5989   -0.7496    0.0000 O   0  0  0  0  0  0  0  0  0  0  0  0
    1.2995    1.5002    0.0000 O   0  0  0  0  0  0  0  0  0  0  0  0
  3  1  2  0
  4  2  1  0
  5  1  1  0
  5  2  2  0
  6  3  1  0
  6  4  2  0
  7  5  1  0
  8  6  1  0
  9  7  1  0
 10  7  2  0
M  END
>  <NAME>  (1756) 
4-BROMOBENZOIC ACID

>  <SYNONYMS>  (1756) 


>  <SPECTRUM TYPE>  (1756) 
MS1

>  <INSTRUMENT TYPE>  (1756) 
EI-B

>  <INSTRUMENT>  (1756) 
JEOL JMS-AX-505-H

>  <ION MODE>  (1756) 
P

>  <INCHIKEY>  (1756) 
TUXYZHVUPGXXQG-UHFFFAOYSA-N

>  <FORMULA>  (1756) 
C7H5BrO2

>  <EXACT MASS>  (1756) 
199.9472915

>  <MW>  (1756) 
200

>  <ID>  (1756) 
JP009587

>  <CONTRIBUTOR>  (1756) 
University of Tokyo Team, {Faculty of Engineering, University of Tokyo

>  <COMMENT>  (1756) 
SMILES=OC(=O)c(c1)ccc(Br)c1
InChI=InChI=1S/C7H5BrO2/c8-6-3-1-5(2-4-6)7(9)10/h1-4H,(H,9,10)
computed SMILES=O=C(O)C1=CC=C(Br)C=C1
accession=JP009587
date=2016.01.19 (Created 2008.10.21, modified 2011.05.06)
author=HAMAMATSU UNIV. SCHOOL OF MEDICINE
license=CC BY-NC-SA
exact mass=199.94729
ionization energy=70 eV
ion type=[M]+*
computed spectral entropy=2.8486144411220025
computed normalized entropy=0.7573684870518304
SPLASH=splash10-0udi-7980000000-93d2c93456b829c977f1
submitter=submitter = University of Tokyo Team (Faculty of Engineering, University of Tokyo)
MoNA Rating=3.75

>  <NUM PEAKS>  (1756) 
43

>  <MASS SPECTRAL PEAKS>  (1756) 
28 1.06
29 1.12
31 1.28
37 3.73
38 8.02
39 4.51
45 3.75
49 3.26
50 27.22
51 9.21
52 2.32
53 2.05
61 1.38
62 1.26
63 2.16
64 1.08
65 10.26
73 5.35
74 20.77
75 26.86
76 23.71
77 6.99
78 1.1
86 3.4
87 3.52
91 1.56
92 1.46
93 1.7
104 2.35
155 31.9
156 2.99
157 30.96
158 2.04
172 2.19
174 2.02
183 69.85
184 5.96
185 69.92
186 5.66
200 99.99
201 8.4
202 97.13
203 8.05

$$$$

     RDKit          2D

 11 11  0  0  0  0  0  0  0  0999 V2000
    3.8980    2.2543    0.0000 C   0  0  0  0  0  0  0  0  0  0  0  0
   -1.3199    2.2329    0.0000 C   0  0  0  0  0  0  0  0  0  0  0  0
   -0.0499   -0.0171    0.0000 C   0  0  0  0  0  0  0  0  0  0  0  0
   -0.0499    2.9829    0.0000 C   0  0  0  0  0  0  0  0  0  0  0  0
    1.3001    0.7329    0.0000 C   0  0  0  0  0  0  0  0  0  0  0  0
   -1.3199    0.7329    0.0000 C   0  0  0  0  0  0  0  0  0  0  0  0
    1.3001    2.2329    0.0000 C   0  0  0  0  0  0  0  0  0  0  0  0
   -2.6227   -0.0107    0.0000 C   0  0  0  0  0  0  0  0  0  0  0  0
   -2.6300   -1.5107    0.0000 O   0  0  0  0  0  0  0  0  0  0  0  0
   -3.9180    0.7457    0.0000 O   0  0  0  0  0  0  0  0  0  0  0  0
    2.5929    2.9936    0.0000 O   0  0  0  0  0  0  0  0  0  0  0  0
  4  2  2  0
  5  3  1  0
  6  2  1  0
  6  3  2  0
  7  4  1  0
  7  5  2  0
  8  6  1  0
  9  8  1  0
 10  8  2  0
 11  1  1  0
 11  7  1  0
M  END
>  <NAME>  (1757) 
PARA-ANISIC ACID

>  <SYNONYMS>  (1757) 


>  <SPECTRUM TYPE>  (1757) 
MS1

>  <INSTRUMENT TYPE>  (1757) 
EI-B

>  <INSTRUMENT>  (1757) 
JEOL JMS-AX-505-H

>  <ION MODE>  (1757) 
P

>  <INCHIKEY>  (1757) 
ZEYHEAKUIGZSGI-UHFFFAOYSA-N

>  <FORMULA>  (1757) 
C8H8O3

>  <EXACT MASS>  (1757) 
152.04734411599998

>  <MW>  (1757) 
152

>  <ID>  (1757) 
JP009586

>  <CONTRIBUTOR>  (1757) 
University of Tokyo Team, {Faculty of Engineering, University of Tokyo

>  <COMMENT>  (1757) 
SMILES=COc(c1)ccc(c1)C(O)=O
InChI=InChI=1S/C8H8O3/c1-11-7-4-2-6(3-5-7)8(9)10/h2-5H,1H3,(H,9,10)
computed SMILES=O=C(O)C1=CC=C(OC)C=C1
accession=JP009586
date=2016.01.19 (Created 2008.10.21, modified 2011.05.06)
author=HAMAMATSU UNIV. SCHOOL OF MEDICINE
license=CC BY-NC-SA
exact mass=152.04734
ionization energy=70 eV
ion type=[M]+*
computed spectral entropy=2.393349116797893
computed normalized entropy=0.6844970516220167
SPLASH=splash10-0udr-3900000000-37a76df2abc65593a12f
submitter=submitter = University of Tokyo Team (Faculty of Engineering, University of Tokyo)
MoNA Rating=3.75

>  <NUM PEAKS>  (1757) 
33

>  <MASS SPECTRAL PEAKS>  (1757) 
27 1.7
37 1.03
38 3.11
39 4.07
45 1.51
50 4.88
51 3.46
53 2.87
61 1.01
62 2.91
63 8.76
64 8.01
65 5.2
74 3.07
75 2.4
76 2.69
77 16.71
78 2.59
79 1.88
81 6.69
92 11.96
93 1.32
105 2.48
107 11.36
108 1.08
109 4.5
121 1.41
135 91.98
136 9.07
137 1.01
152 99.99
153 9.92
154 1.04

$$$$

     RDKit          2D

 11 11  0  0  0  0  0  0  0  0999 V2000
   -2.5989    1.5002    0.0000 C   0  0  0  0  0  0  0  0  0  0  0  0
    5.1970   -1.5006    0.0000 C   0  0  0  0  0  0  0  0  0  0  0  0
   -1.3000   -0.7500    0.0000 C   0  0  0  0  0  0  0  0  0  0  0  0
    0.0000    1.5000    0.0000 C   0  0  0  0  0  0  0  0  0  0  0  0
    0.0000   -1.5000    0.0000 C   0  0  0  0  0  0  0  0  0  0  0  0
    1.3000    0.7500    0.0000 C   0  0  0  0  0  0  0  0  0  0  0  0
   -1.3000    0.7500    0.0000 C   0  0  0  0  0  0  0  0  0  0  0  0
    3.8981   -0.7504    0.0000 C   0  0  0  0  0  0  0  0  0  0  0  0
    1.3000   -0.7500    0.0000 C   0  0  0  0  0  0  0  0  0  0  0  0
    2.5989   -1.5002    0.0000 N   0  0  0  0  0  0  0  0  0  0  0  0
    3.8983    0.7496    0.0000 O   0  0  0  0  0  0  0  0  0  0  0  0
  5  3  2  0
  6  4  1  0
  7  1  1  0
  7  3  1  0
  7  4  2  0
  8  2  1  0
  9  5  1  0
  9  6  2  0
 10  8  2  3
 10  9  1  0
 11  8  1  0
M  END
>  <NAME>  (1758) 
N-ACETYL-PARA-TOLUIDINE

>  <SYNONYMS>  (1758) 


>  <SPECTRUM TYPE>  (1758) 
MS1

>  <INSTRUMENT TYPE>  (1758) 
EI-B

>  <INSTRUMENT>  (1758) 
JEOL JMS-AX-505-H

>  <ION MODE>  (1758) 
P

>  <INCHIKEY>  (1758) 
YICAMJWHIUMFDI-UHFFFAOYSA-N

>  <FORMULA>  (1758) 
C9H11NO

>  <EXACT MASS>  (1758) 
149.084063972

>  <MW>  (1758) 
149

>  <ID>  (1758) 
JP009585

>  <CONTRIBUTOR>  (1758) 
University of Tokyo Team, {Faculty of Engineering, University of Tokyo

>  <COMMENT>  (1758) 
SMILES=CC(=O)Nc(c1)ccc(C)c1
InChI=InChI=1S/C9H11NO/c1-7-3-5-9(6-4-7)10-8(2)11/h3-6H,1-2H3,(H,10,11)
computed SMILES=OC(=NC1=CC=C(C=C1)C)C
accession=JP009585
date=2016.01.19 (Created 2008.10.21, modified 2011.05.06)
author=HAMAMATSU UNIV. SCHOOL OF MEDICINE
license=CC BY-NC-SA
exact mass=149.08406
ionization energy=70 eV
ion type=[M]+*
computed spectral entropy=2.1179274478920385
computed normalized entropy=0.6851822580408042
SPLASH=splash10-0a4i-2900000000-b6a3a5d1998b02f25806
submitter=submitter = University of Tokyo Team (Faculty of Engineering, University of Tokyo)
MoNA Rating=3.75

>  <NUM PEAKS>  (1758) 
22

>  <MASS SPECTRAL PEAKS>  (1758) 
27 1.75
39 3.52
43 14.87
50 2.11
51 5.14
52 3.63
53 2.7
63 2.14
65 2.81
77 14.08
78 5.46
79 7.47
80 1.63
89 1.07
91 3.08
104 2.73
105 1.15
106 71.92
107 99.99
108 8.84
149 58.95
150 6.85

$$$$

     RDKit          2D

 10 10  0  0  0  0  0  0  0  0999 V2000
    2.2687   -3.1902    0.0000 C   0  0  0  0  0  0  0  0  0  0  0  0
   -1.6200   -0.9400    0.0000 C   0  0  0  0  0  0  0  0  0  0  0  0
   -0.3300   -1.6900    0.0000 C   0  0  0  0  0  0  0  0  0  0  0  0
   -1.6200    0.5600    0.0000 C   0  0  0  0  0  0  0  0  0  0  0  0
    0.9700    0.5600    0.0000 C   0  0  0  0  0  0  0  0  0  0  0  0
    2.2689   -1.6902    0.0000 C   0  0  0  0  0  0  0  0  0  0  0  0
    0.9700   -0.9400    0.0000 C   0  0  0  0  0  0  0  0  0  0  0  0
   -0.3300    1.3100    0.0000 C   0  0  0  0  0  0  0  0  0  0  0  0
    3.5681   -0.9404    0.0000 O   0  0  0  0  0  0  0  0  0  0  0  0
   -0.3325    2.8100    0.0000 O   0  0  0  0  0  0  0  0  0  0  0  0
  3  2  2  0
  4  2  1  0
  6  1  1  0
  7  3  1  0
  7  5  2  0
  7  6  1  0
  8  4  2  0
  8  5  1  0
  9  6  2  0
 10  8  1  0
M  END
>  <NAME>  (1759) 
3-HYDROXYACETOPHENONE

>  <SYNONYMS>  (1759) 


>  <SPECTRUM TYPE>  (1759) 
MS1

>  <INSTRUMENT TYPE>  (1759) 
EI-B

>  <INSTRUMENT>  (1759) 
JEOL JMS-AX-505-H

>  <ION MODE>  (1759) 
P

>  <INCHIKEY>  (1759) 
LUJMEECXHPYQOF-UHFFFAOYSA-N

>  <FORMULA>  (1759) 
C8H8O2

>  <EXACT MASS>  (1759) 
136.052429496

>  <MW>  (1759) 
136

>  <ID>  (1759) 
JP009584

>  <CONTRIBUTOR>  (1759) 
University of Tokyo Team, {Faculty of Engineering, University of Tokyo

>  <COMMENT>  (1759) 
SMILES=CC(=O)c(c1)cc(O)cc1
InChI=InChI=1S/C8H8O2/c1-6(9)7-3-2-4-8(10)5-7/h2-5,10H,1H3
computed SMILES=O=C(C=1C=CC=C(O)C1)C
accession=JP009584
date=2016.01.19 (Created 2008.10.21, modified 2011.05.06)
author=HAMAMATSU UNIV. SCHOOL OF MEDICINE
license=CC BY-NC-SA
exact mass=136.05243
ionization energy=70 eV
ion type=[M]+*
computed spectral entropy=2.3268027175238073
computed normalized entropy=0.7059823687040313
SPLASH=splash10-00du-8900000000-cb6b7b06b882bd6af109
submitter=submitter = University of Tokyo Team (Faculty of Engineering, University of Tokyo)
MoNA Rating=3.75

>  <NUM PEAKS>  (1759) 
27

>  <MASS SPECTRAL PEAKS>  (1759) 
27 1.19
37 1.09
38 3.46
39 15.35
42 1.03
43 15.77
50 3.06
51 3.25
53 3.12
60 1.13
61 1.44
62 3.25
63 8.49
64 4.44
65 27.55
66 2.6
74 1.66
75 1.14
77 3.12
92 2.85
93 50.13
94 5.37
107 1.38
121 99.99
122 8.31
136 63.43
137 6.18

$$$$

     RDKit          2D

 16 18  0  0  0  0  0  0  0  0999 V2000
    3.9000   -0.7500    0.0000 C   0  0  0  0  0  0  0  0  0  0  0  0
    3.9000    0.7500    0.0000 C   0  0  0  0  0  0  0  0  0  0  0  0
   -3.9000   -0.7500    0.0000 C   0  0  0  0  0  0  0  0  0  0  0  0
   -3.9000    0.7500    0.0000 C   0  0  0  0  0  0  0  0  0  0  0  0
    2.6000   -1.5000    0.0000 C   0  0  0  0  0  0  0  0  0  0  0  0
    2.6000    1.5000    0.0000 C   0  0  0  0  0  0  0  0  0  0  0  0
   -2.6000   -1.5000    0.0000 C   0  0  0  0  0  0  0  0  0  0  0  0
   -2.6000    1.5000    0.0000 C   0  0  0  0  0  0  0  0  0  0  0  0
    1.3000   -0.7500    0.0000 C   0  0  0  0  0  0  0  0  0  0  0  0
    1.3000    0.7500    0.0000 C   0  0  0  0  0  0  0  0  0  0  0  0
   -1.3000   -0.7500    0.0000 C   0  0  0  0  0  0  0  0  0  0  0  0
   -1.3000    0.7500    0.0000 C   0  0  0  0  0  0  0  0  0  0  0  0
   -0.0000   -1.5000    0.0000 C   0  0  0  0  0  0  0  0  0  0  0  0
   -0.0000    1.5000    0.0000 C   0  0  0  0  0  0  0  0  0  0  0  0
   -0.0000   -3.0000    0.0000 O   0  0  0  0  0  0  0  0  0  0  0  0
    0.0000    3.0000    0.0000 O   0  0  0  0  0  0  0  0  0  0  0  0
  2  1  2  0
  4  3  2  0
  5  1  1  0
  6  2  1  0
  7  3  1  0
  8  4  1  0
  9  5  2  0
 10  6  2  0
 10  9  1  0
 11  7  2  0
 12  8  2  0
 12 11  1  0
 13  9  1  0
 13 11  1  0
 14 10  1  0
 14 12  1  0
 15 13  2  0
 16 14  2  0
M  END
>  <NAME>  (1760) 
ANTHRAQUINONE

>  <SYNONYMS>  (1760) 


>  <SPECTRUM TYPE>  (1760) 
MS1

>  <INSTRUMENT TYPE>  (1760) 
EI-B

>  <INSTRUMENT>  (1760) 
JEOL JMS-AX-505-H

>  <ION MODE>  (1760) 
P

>  <INCHIKEY>  (1760) 
RZVHIXYEVGDQDX-UHFFFAOYSA-N

>  <FORMULA>  (1760) 
C14H8O2

>  <EXACT MASS>  (1760) 
208.052429496

>  <MW>  (1760) 
208

>  <ID>  (1760) 
JP009583

>  <CONTRIBUTOR>  (1760) 
University of Tokyo Team, {Faculty of Engineering, University of Tokyo

>  <COMMENT>  (1760) 
SMILES=O=c(c21)c(c3)c(ccc3)c(=O)c(cccc2)1
InChI=InChI=1S/C14H8O2/c15-13-9-5-1-2-6-10(9)14(16)12-8-4-3-7-11(12)13/h1-8H
computed SMILES=O=C1C=2C=CC=CC2C(=O)C=3C=CC=CC13
accession=JP009583
date=2016.01.19 (Created 2008.10.21, modified 2011.05.06)
author=HAMAMATSU UNIV. SCHOOL OF MEDICINE
license=CC BY-NC-SA
exact mass=208.05243
ionization energy=70 eV
ion type=[M]+*
computed spectral entropy=2.546705742885423
computed normalized entropy=0.7816544762151033
SPLASH=splash10-0pc0-2940000000-9210be3af7f81873a30b
submitter=submitter = University of Tokyo Team (Faculty of Engineering, University of Tokyo)
MoNA Rating=3.75

>  <NUM PEAKS>  (1760) 
26

>  <MASS SPECTRAL PEAKS>  (1760) 
28 1.62
32 1.2
50 9.4
51 2.26
63 4.98
74 6.86
75 11.96
76 24.49
77 5.9
89 1.5
90 2.76
105 1.86
126 8.44
149 7.31
150 14.51
151 29.61
152 67.65
153 8.46
176 1.69
178 21.07
179 5.16
180 98.25
181 12.36
207 14.59
208 99.99
209 18.36

$$$$

     RDKit          2D

 16 17  0  0  0  0  0  0  0  0999 V2000
    3.8971    1.0700    0.0000 C   0  0  0  0  0  0  0  0  0  0  0  0
   -5.1962    4.8200    0.0000 C   0  0  0  0  0  0  0  0  0  0  0  0
    3.8976    2.5708    0.0000 C   0  0  0  0  0  0  0  0  0  0  0  0
    2.5976    0.3192    0.0000 C   0  0  0  0  0  0  0  0  0  0  0  0
   -5.1966    3.3192    0.0000 C   0  0  0  0  0  0  0  0  0  0  0  0
   -3.8966    5.5708    0.0000 C   0  0  0  0  0  0  0  0  0  0  0  0
    2.5986    3.3208    0.0000 C   0  0  0  0  0  0  0  0  0  0  0  0
    1.2986    1.0692    0.0000 C   0  0  0  0  0  0  0  0  0  0  0  0
   -3.8976    2.5692    0.0000 C   0  0  0  0  0  0  0  0  0  0  0  0
   -2.5976    4.8208    0.0000 C   0  0  0  0  0  0  0  0  0  0  0  0
    1.2990    2.5700    0.0000 C   0  0  0  0  0  0  0  0  0  0  0  0
   -2.5981    3.3200    0.0000 C   0  0  0  0  0  0  0  0  0  0  0  0
    0.0000    3.3200    0.0000 C   0  0  0  0  0  0  0  0  0  0  0  0
   -1.2990    2.5700    0.0000 C   0  0  0  0  0  0  0  0  0  0  0  0
    0.0000    4.8200    0.0000 O   0  0  0  0  0  0  0  0  0  0  0  0
   -1.2990    1.0700    0.0000 O   0  0  0  0  0  0  0  0  0  0  0  0
  3  1  2  0
  4  1  1  0
  5  2  2  0
  6  2  1  0
  7  3  1  0
  8  4  2  0
  9  5  1  0
 10  6  2  0
 11  7  2  0
 11  8  1  0
 12  9  2  0
 12 10  1  0
 13 11  1  0
 14 12  1  0
 14 13  1  0
 15 13  2  0
 16 14  2  0
M  END
>  <NAME>  (1761) 
BENZIL

>  <SYNONYMS>  (1761) 


>  <SPECTRUM TYPE>  (1761) 
MS1

>  <INSTRUMENT TYPE>  (1761) 
EI-B

>  <INSTRUMENT>  (1761) 
JEOL JMS-AX-505-H

>  <ION MODE>  (1761) 
P

>  <INCHIKEY>  (1761) 
WURBFLDFSFBTLW-UHFFFAOYSA-N

>  <FORMULA>  (1761) 
C14H10O2

>  <EXACT MASS>  (1761) 
210.06807956

>  <MW>  (1761) 
210

>  <ID>  (1761) 
JP009582

>  <CONTRIBUTOR>  (1761) 
University of Tokyo Team, {Faculty of Engineering, University of Tokyo

>  <COMMENT>  (1761) 
SMILES=c(c2)ccc(c2)C(=O)C(=O)c(c1)cccc1
InChI=InChI=1S/C14H10O2/c15-13(11-7-3-1-4-8-11)14(16)12-9-5-2-6-10-12/h1-10H
computed SMILES=O=C(C=1C=CC=CC1)C(=O)C=2C=CC=CC2
accession=JP009582
date=2016.01.19 (Created 2008.10.21, modified 2011.05.06)
author=HAMAMATSU UNIV. SCHOOL OF MEDICINE
license=CC BY-NC-SA
exact mass=210.06808
ionization energy=70 eV
ion type=[M]+*
computed spectral entropy=1.44379674993277
computed normalized entropy=0.6021100113550176
SPLASH=splash10-0a4i-5900000000-c6298baf2bc2b7eb3a9a
submitter=submitter = University of Tokyo Team (Faculty of Engineering, University of Tokyo)
MoNA Rating=3.75

>  <NUM PEAKS>  (1761) 
11

>  <MASS SPECTRAL PEAKS>  (1761) 
50 4.36
51 15.45
74 1.45
75 1.11
76 1.82
77 43
78 3.2
105 99.99
106 9.05
210 6.63
211 1.09

$$$$

     RDKit          2D

 16 17  0  0  0  0  0  0  0  0999 V2000
    3.8971    1.0700    0.0000 C   0  0  0  0  0  0  0  0  0  0  0  0
   -5.1962    4.8200    0.0000 C   0  0  0  0  0  0  0  0  0  0  0  0
    3.8976    2.5708    0.0000 C   0  0  0  0  0  0  0  0  0  0  0  0
    2.5976    0.3192    0.0000 C   0  0  0  0  0  0  0  0  0  0  0  0
   -5.1966    3.3192    0.0000 C   0  0  0  0  0  0  0  0  0  0  0  0
   -3.8966    5.5708    0.0000 C   0  0  0  0  0  0  0  0  0  0  0  0
    2.5986    3.3208    0.0000 C   0  0  0  0  0  0  0  0  0  0  0  0
    1.2986    1.0692    0.0000 C   0  0  0  0  0  0  0  0  0  0  0  0
   -3.8976    2.5692    0.0000 C   0  0  0  0  0  0  0  0  0  0  0  0
   -2.5976    4.8208    0.0000 C   0  0  0  0  0  0  0  0  0  0  0  0
    1.2990    2.5700    0.0000 C   0  0  0  0  0  0  0  0  0  0  0  0
   -2.5981    3.3200    0.0000 C   0  0  0  0  0  0  0  0  0  0  0  0
    0.0000    3.3200    0.0000 C   0  0  0  0  0  0  0  0  0  0  0  0
   -1.2990    2.5700    0.0000 C   0  0  0  0  0  0  0  0  0  0  0  0
    0.0000    4.8200    0.0000 O   0  0  0  0  0  0  0  0  0  0  0  0
   -1.2990    1.0700    0.0000 O   0  0  0  0  0  0  0  0  0  0  0  0
  3  1  2  0
  4  1  1  0
  5  2  2  0
  6  2  1  0
  7  3  1  0
  8  4  2  0
  9  5  1  0
 10  6  2  0
 11  7  2  0
 11  8  1  0
 12  9  2  0
 12 10  1  0
 13 11  1  0
 14 12  1  0
 14 13  1  0
 15 13  1  0
 16 14  2  0
M  END
>  <NAME>  (1762) 
BENZOIN

>  <SYNONYMS>  (1762) 


>  <SPECTRUM TYPE>  (1762) 
MS1

>  <INSTRUMENT TYPE>  (1762) 
EI-B

>  <INSTRUMENT>  (1762) 
JEOL JMS-AX-505-H

>  <ION MODE>  (1762) 
P

>  <INCHIKEY>  (1762) 
ISAOCJYIOMOJEB-UHFFFAOYSA-N

>  <FORMULA>  (1762) 
C14H12O2

>  <EXACT MASS>  (1762) 
212.083729624

>  <MW>  (1762) 
212

>  <ID>  (1762) 
JP009581

>  <CONTRIBUTOR>  (1762) 
University of Tokyo Team, {Faculty of Engineering, University of Tokyo

>  <COMMENT>  (1762) 
SMILES=c(c2)ccc(c2)C(O)C(=O)c(c1)cccc1
InChI=InChI=1S/C14H12O2/c15-13(11-7-3-1-4-8-11)14(16)12-9-5-2-6-10-12/h1-10,13,15H
computed SMILES=O=C(C=1C=CC=CC1)C(O)C=2C=CC=CC2
accession=JP009581
date=2016.01.19 (Created 2008.10.21, modified 2011.05.06)
author=HAMAMATSU UNIV. SCHOOL OF MEDICINE
license=CC BY-NC-SA
exact mass=212.08373
ionization energy=70 eV
ion type=[M]+*
computed spectral entropy=2.2424598948093046
computed normalized entropy=0.6882730050015845
SPLASH=splash10-0a6r-6900000000-2f572dbc9a49f3d86fa6
submitter=submitter = University of Tokyo Team (Faculty of Engineering, University of Tokyo)
MoNA Rating=3.75

>  <NUM PEAKS>  (1762) 
26

>  <MASS SPECTRAL PEAKS>  (1762) 
27 2.16
29 1.77
39 2.96
50 4.62
51 17.83
52 2.88
53 1.67
63 1.81
74 1.2
75 1.1
76 1.86
77 56.22
78 9.38
79 38.96
80 2.87
89 1.28
105 99.99
106 13.05
107 71.39
108 6.37
165 1.55
167 1.45
195 6.58
196 1.33
212 4.36
213 2.17

$$$$

     RDKit          2D

 14 16  0  0  0  0  0  0  0  0999 V2000
    3.0600    2.2000    0.0000 C   0  0  0  0  0  0  0  0  0  0  0  0
    1.7600    2.9500    0.0000 C   0  0  0  0  0  0  0  0  0  0  0  0
   -3.4300   -0.0500    0.0000 C   0  0  0  0  0  0  0  0  0  0  0  0
    3.0600    0.7000    0.0000 C   0  0  0  0  0  0  0  0  0  0  0  0
    0.4600    2.2000    0.0000 C   0  0  0  0  0  0  0  0  0  0  0  0
   -2.1300    0.7000    0.0000 C   0  0  0  0  0  0  0  0  0  0  0  0
    1.7600   -1.5500    0.0000 C   0  0  0  0  0  0  0  0  0  0  0  0
    0.4600   -2.3000    0.0000 C   0  0  0  0  0  0  0  0  0  0  0  0
   -3.4300   -1.5500    0.0000 C   0  0  0  0  0  0  0  0  0  0  0  0
    1.7600   -0.0500    0.0000 C   0  0  0  0  0  0  0  0  0  0  0  0
    0.4600    0.7000    0.0000 C   0  0  0  0  0  0  0  0  0  0  0  0
   -0.8300   -0.0500    0.0000 C   0  0  0  0  0  0  0  0  0  0  0  0
   -0.8300   -1.5500    0.0000 C   0  0  0  0  0  0  0  0  0  0  0  0
   -2.1300   -2.3000    0.0000 N   0  0  0  0  0  0  0  0  0  0  0  0
  2  1  2  0
  4  1  1  0
  5  2  1  0
  6  3  1  0
  8  7  2  0
  9  3  2  0
 10  4  2  0
 10  7  1  0
 11  5  2  0
 11 10  1  0
 12  6  2  0
 12 11  1  0
 13  8  1  0
 13 12  1  0
 14  9  1  0
 14 13  2  0
M  END
>  <NAME>  (1763) 
BENZO(F)QUINOLINE

>  <SYNONYMS>  (1763) 


>  <SPECTRUM TYPE>  (1763) 
MS1

>  <INSTRUMENT TYPE>  (1763) 
EI-B

>  <INSTRUMENT>  (1763) 
JEOL JMS-AX-505-H

>  <ION MODE>  (1763) 
P

>  <INCHIKEY>  (1763) 
HCAUQPZEWLULFJ-UHFFFAOYSA-N

>  <FORMULA>  (1763) 
C13H9N

>  <EXACT MASS>  (1763) 
179.073499288

>  <MW>  (1763) 
179

>  <ID>  (1763) 
JP009580

>  <CONTRIBUTOR>  (1763) 
University of Tokyo Team, {Faculty of Engineering, University of Tokyo

>  <COMMENT>  (1763) 
SMILES=c(c3)cc(c1)c(c3)c(c2)c(ncc2)c1
InChI=InChI=1S/C13H9N/c1-2-5-11-10(4-1)7-8-13-12(11)6-3-9-14-13/h1-9H
computed SMILES=N1=CC=CC=2C1=CC=C3C=CC=CC32
accession=JP009580
date=2016.01.19 (Created 2008.10.21, modified 2011.05.06)
author=HAMAMATSU UNIV. SCHOOL OF MEDICINE
license=CC BY-NC-SA
exact mass=179.0735
ionization energy=70 eV
ion type=[M]+*
computed spectral entropy=2.436516918436523
computed normalized entropy=0.7095299933716052
SPLASH=splash10-004i-2900000000-aaacc4057c354eefecab
submitter=submitter = University of Tokyo Team (Faculty of Engineering, University of Tokyo)
MoNA Rating=3.75

>  <NUM PEAKS>  (1763) 
31

>  <MASS SPECTRAL PEAKS>  (1763) 
31 1
39 1.39
50 2.34
51 2.18
62 2.18
63 6.07
74 3.37
75 6.29
76 12.63
77 1.46
86 1.14
87 1.63
89 6.44
98 1.48
99 1.74
100 1.18
101 1.03
102 1.09
125 1.73
126 4.3
127 1.28
150 8.49
151 17.13
152 13.25
153 3.99
176 1.43
177 5.98
178 23.53
179 99.99
180 18.2
181 1.44

$$$$

     RDKit          2D

  8  8  0  0  0  0  0  0  0  0999 V2000
   -1.3000    0.7500    0.0000 C   0  0  0  0  0  0  0  0  0  0  0  0
   -0.0000   -1.5000    0.0000 C   0  0  0  0  0  0  0  0  0  0  0  0
    0.0000    1.5000    0.0000 C   0  0  0  0  0  0  0  0  0  0  0  0
    1.3000   -0.7500    0.0000 C   0  0  0  0  0  0  0  0  0  0  0  0
   -1.3000   -0.7500    0.0000 C   0  0  0  0  0  0  0  0  0  0  0  0
    1.3000    0.7500    0.0000 C   0  0  0  0  0  0  0  0  0  0  0  0
   -2.5989   -1.5002    0.0000 Br  0  0  0  0  0  0  0  0  0  0  0  0
    2.5989    1.5002    0.0000 N   0  0  0  0  0  0  0  0  0  0  0  0
  3  1  2  0
  4  2  1  0
  5  1  1  0
  5  2  2  0
  6  3  1  0
  6  4  2  0
  7  5  1  0
  8  6  1  0
M  END
>  <NAME>  (1764) 
4-BROMOANILINE

>  <SYNONYMS>  (1764) 


>  <SPECTRUM TYPE>  (1764) 
MS1

>  <INSTRUMENT TYPE>  (1764) 
EI-B

>  <INSTRUMENT>  (1764) 
JEOL JMS-AX-505-H

>  <ION MODE>  (1764) 
P

>  <INCHIKEY>  (1764) 
WDFQBORIUYODSI-UHFFFAOYSA-N

>  <FORMULA>  (1764) 
C6H6BrN

>  <EXACT MASS>  (1764) 
170.968361292

>  <MW>  (1764) 
171

>  <ID>  (1764) 
JP009579

>  <CONTRIBUTOR>  (1764) 
University of Tokyo Team, {Faculty of Engineering, University of Tokyo

>  <COMMENT>  (1764) 
SMILES=Nc(c1)ccc(Br)c1
InChI=InChI=1S/C6H6BrN/c7-5-1-3-6(8)4-2-5/h1-4H,8H2
computed SMILES=BrC1=CC=C(N)C=C1
accession=JP009579
date=2016.01.19 (Created 2008.10.21, modified 2011.05.06)
author=HAMAMATSU UNIV. SCHOOL OF MEDICINE
license=CC BY-NC-SA
exact mass=170.96836
ionization energy=70 eV
ion type=[M]+*
computed spectral entropy=2.5225611756781414
computed normalized entropy=0.7039340991357892
SPLASH=splash10-00di-9800000000-c60ed627997e6c6dd8cb
submitter=submitter = University of Tokyo Team (Faculty of Engineering, University of Tokyo)
MoNA Rating=3.75

>  <NUM PEAKS>  (1764) 
36

>  <MASS SPECTRAL PEAKS>  (1764) 
29 1.08
31 3.59
37 2.34
38 4.99
39 10.63
41 3.53
45 16.31
46 2.62
50 3.15
51 1.63
52 3.67
57 1.2
61 2.15
62 3.46
63 8.24
64 5
65 54.63
66 5.29
71 1.21
74 1.45
75 1.32
85 7.62
86 7.46
90 1.98
91 6.64
92 59.78
93 5.01
117 1.1
119 1.08
143 1.93
145 2.22
149 2.6
171 99.99
172 7.79
173 97.54
174 6.89

$$$$

     RDKit          2D

 13 13  0  0  0  0  0  0  0  0999 V2000
    3.3491    0.2013    0.0000 C   0  0  0  0  0  0  0  0  0  0  0  0
    3.8978    2.2504    0.0000 C   0  0  0  0  0  0  0  0  0  0  0  0
    1.8487    2.7991    0.0000 C   0  0  0  0  0  0  0  0  0  0  0  0
   -1.3000    0.7500    0.0000 C   0  0  0  0  0  0  0  0  0  0  0  0
   -0.0000   -1.5000    0.0000 C   0  0  0  0  0  0  0  0  0  0  0  0
    0.0000    1.5000    0.0000 C   0  0  0  0  0  0  0  0  0  0  0  0
    1.3000   -0.7500    0.0000 C   0  0  0  0  0  0  0  0  0  0  0  0
   -1.3000   -0.7500    0.0000 C   0  0  0  0  0  0  0  0  0  0  0  0
    1.3000    0.7500    0.0000 C   0  0  0  0  0  0  0  0  0  0  0  0
   -2.5989   -1.5002    0.0000 C   0  0  0  0  0  0  0  0  0  0  0  0
    2.5989    1.5002    0.0000 C   0  0  0  0  0  0  0  0  0  0  0  0
   -3.8981   -0.7504    0.0000 O   0  0  0  0  0  0  0  0  0  0  0  0
   -2.5987   -3.0002    0.0000 O   0  0  0  0  0  0  0  0  0  0  0  0
  6  4  2  0
  7  5  1  0
  8  4  1  0
  8  5  2  0
  9  6  1  0
  9  7  2  0
 10  8  1  0
 11  1  1  0
 11  2  1  0
 11  3  1  0
 11  9  1  0
 12 10  1  0
 13 10  2  0
M  END
>  <NAME>  (1765) 
4-TERT-BUTYLBENZOIC ACID

>  <SYNONYMS>  (1765) 


>  <SPECTRUM TYPE>  (1765) 
MS1

>  <INSTRUMENT TYPE>  (1765) 
EI-B

>  <INSTRUMENT>  (1765) 
JEOL JMS-AX-505-H

>  <ION MODE>  (1765) 
P

>  <INCHIKEY>  (1765) 
KDVYCTOWXSLNNI-UHFFFAOYSA-N

>  <FORMULA>  (1765) 
C11H14O2

>  <EXACT MASS>  (1765) 
178.099379688

>  <MW>  (1765) 
178

>  <ID>  (1765) 
JP009578

>  <CONTRIBUTOR>  (1765) 
University of Tokyo Team, {Faculty of Engineering, University of Tokyo

>  <COMMENT>  (1765) 
SMILES=OC(=O)c(c1)ccc(c1)C(C)(C)C
InChI=InChI=1S/C11H14O2/c1-11(2,3)9-6-4-8(5-7-9)10(12)13/h4-7H,1-3H3,(H,12,13)
computed SMILES=O=C(O)C1=CC=C(C=C1)C(C)(C)C
accession=JP009578
date=2016.01.19 (Created 2008.10.21, modified 2011.05.06)
author=HAMAMATSU UNIV. SCHOOL OF MEDICINE
license=CC BY-NC-SA
exact mass=178.09938
ionization energy=70 eV
ion type=[M]+*
computed spectral entropy=3.628314312615003
computed normalized entropy=0.8188815916654898
SPLASH=splash10-01rf-9500000000-33fe4a180efeca1f9086
submitter=submitter = University of Tokyo Team (Faculty of Engineering, University of Tokyo)
MoNA Rating=3.75

>  <NUM PEAKS>  (1765) 
84

>  <MASS SPECTRAL PEAKS>  (1765) 
27 8.47
28 1.39
29 8.78
38 1.74
39 24.73
40 2.53
41 55.42
42 2.58
43 1.96
45 7.04
50 9.41
51 20.33
52 4.28
53 5.14
55 5.61
56 1.79
57 6.99
58 6.1
59 5.41
62 2.33
63 8.26
64 2.31
65 13.31
66 2.37
67 1.69
68 1.26
69 7.48
70 1.21
71 2.88
72 8.88
73 4.73
74 3.51
75 5.82
76 5.17
77 28.43
78 6.46
79 21.8
80 2.28
81 4.9
82 1.52
83 2.03
84 1.13
85 1.18
87 1.12
89 4.57
90 3.77
91 59.18
92 5.81
93 2.47
95 1.89
96 1.14
97 1.73
98 1.03
101 2.21
102 3.86
103 8
104 1.51
105 7.4
107 8.36
109 1.04
111 1.04
115 11.33
116 3.06
117 8.36
118 4.71
119 4.2
120 1.09
121 1.03
123 3.03
131 1.55
133 1.69
135 39.4
136 4.53
137 1.55
145 3.28
147 1.69
149 1.01
161 1.7
162 1.2
163 99.99
164 14.27
165 1.43
178 20.68
179 2.84

$$$$

     RDKit          2D

 26 29  0  0  0  0  0  0  0  0999 V2000
   -2.4779   -4.2733    0.0000 C   0  0  0  0  0  0  0  0  0  0  0  0
    4.3226   -5.7081    0.0000 C   0  0  0  0  0  0  0  0  0  0  0  0
   -2.3100    0.7500    0.0000 C   0  0  0  0  0  0  0  0  0  0  0  0
   -2.3100   -0.7500    0.0000 C   0  0  0  0  0  0  0  0  0  0  0  0
   -1.0100    1.5000    0.0000 C   0  0  0  0  0  0  0  0  0  0  0  0
   -1.0100   -1.5000    0.0000 C   0  0  0  0  0  0  0  0  0  0  0  0
    1.9965   -3.7942    0.0000 C   0  0  0  0  0  0  0  0  0  0  0  0
    4.3189   -1.2081    0.0000 C   0  0  0  0  0  0  0  0  0  0  0  0
    1.3892   -5.1666    0.0000 C   0  0  0  0  0  0  0  0  0  0  0  0
    5.6195   -1.9570    0.0000 C   0  0  0  0  0  0  0  0  0  0  0  0
   -0.3791   -2.7411    0.0000 C   0  0  0  0  0  0  0  0  0  0  0  0
    3.0208   -3.4591    0.0000 C   0  0  0  0  0  0  0  0  0  0  0  0
   -0.9864   -4.1136    0.0000 C   0  0  0  0  0  0  0  0  0  0  0  0
    4.3214   -4.2081    0.0000 C   0  0  0  0  0  0  0  0  0  0  0  0
    1.1124   -2.5814    0.0000 C   0  0  0  0  0  0  0  0  0  0  0  0
    3.0195   -1.9591    0.0000 C   0  0  0  0  0  0  0  0  0  0  0  0
    0.2900    0.7500    0.0000 C   0  0  0  0  0  0  0  0  0  0  0  0
    0.2900   -0.7500    0.0000 C   0  0  0  0  0  0  0  0  0  0  0  0
   -0.1023   -5.3263    0.0000 C   0  0  0  0  0  0  0  0  0  0  0  0
    5.6208   -3.4570    0.0000 C   0  0  0  0  0  0  0  0  0  0  0  0
    1.7200    1.2100    0.0000 C   0  0  0  0  0  0  0  0  0  0  0  0
    1.7200   -1.2100    0.0000 C   0  0  0  0  0  0  0  0  0  0  0  0
   -0.7099   -6.6978    0.0000 O   0  0  0  0  0  0  0  0  0  0  0  0
    6.9203   -4.2062    0.0000 O   0  0  0  0  0  0  0  0  0  0  0  0
    2.1853    2.6360    0.0000 O   0  0  0  0  0  0  0  0  0  0  0  0
    2.6000    0.0000    0.0000 O   0  0  0  0  0  0  0  0  0  0  0  0
  4  3  2  0
  5  3  1  0
  6  4  1  0
  9  7  2  0
 10  8  2  0
 13  1  1  0
 13 11  1  0
 14  2  1  0
 14 12  1  0
 15  7  1  0
 15 11  2  0
 16  8  1  0
 16 12  2  0
 17  5  2  0
 18  6  2  0
 18 17  1  0
 19  9  1  0
 19 13  2  0
 20 10  1  0
 20 14  2  0
 21 17  1  0
 22 15  1  0
 22 16  1  0
 22 18  1  0
 23 19  1  0
 24 20  1  0
 25 21  2  0
 26 21  1  0
 26 22  1  0
M  END
>  <NAME>  (1766) 
ORTHO-CRESOLPHTHALEIN

>  <SYNONYMS>  (1766) 


>  <SPECTRUM TYPE>  (1766) 
MS1

>  <INSTRUMENT TYPE>  (1766) 
EI-B

>  <INSTRUMENT>  (1766) 
JEOL JMS-AX-505-H

>  <ION MODE>  (1766) 
P

>  <INCHIKEY>  (1766) 
CPBJMKMKNCRKQB-UHFFFAOYSA-N

>  <FORMULA>  (1766) 
C22H18O4

>  <EXACT MASS>  (1766) 
346.120509056

>  <MW>  (1766) 
346

>  <ID>  (1766) 
JP009577

>  <CONTRIBUTOR>  (1766) 
University of Tokyo Team, {Faculty of Engineering, University of Tokyo

>  <COMMENT>  (1766) 
SMILES=Oc(c4)c(C)cc(c4)C(O1)(c(c3)cc(C)c(O)c3)c(c2)c(ccc2)C(=O)1
InChI=InChI=1S/C22H18O4/c1-13-11-15(7-9-19(13)23)22(16-8-10-20(24)14(2)12-16)18-6-4-3-5-17(18)21(25)26-22/h3-12,23-24H,1-2H3
computed SMILES=O=C1OC(C2=CC=C(O)C(=C2)C)(C3=CC=C(O)C(=C3)C)C=4C=CC=CC14
accession=JP009577
date=2016.01.19 (Created 2008.10.21, modified 2011.05.06)
author=HAMAMATSU UNIV. SCHOOL OF MEDICINE
license=CC BY-NC-SA
exact mass=346.12051
ionization energy=70 eV
ion type=[M]+*
computed spectral entropy=3.7805297363931363
computed normalized entropy=0.8027403105599945
SPLASH=splash10-000i-1494000000-823277f980f6385662f8
submitter=submitter = University of Tokyo Team (Faculty of Engineering, University of Tokyo)
MoNA Rating=3.75

>  <NUM PEAKS>  (1766) 
111

>  <MASS SPECTRAL PEAKS>  (1766) 
27 1.08
39 2.48
51 2.2
52 1.08
53 1.98
55 1.7
63 1.41
75 1.39
76 5.14
77 10.5
78 2.09
79 3.85
88 1.15
89 1.03
91 1.85
94 1.02
101 2.22
104 5.45
105 3.47
106 1.38
107 5.02
108 1.02
113 3.21
114 1.24
115 2.9
119 3.29
120 1.68
121 1.25
125 1.2
126 1.86
127 1.77
128 2.23
129 1.49
133 1.66
134 2.6
135 16.43
136 2.31
139 2.37
141 1.29
142 1.08
143 2.62
150 1.42
151 1.96
152 5.46
153 3.45
154 1.27
155 2.09
163 1.73
164 3.09
165 10.43
166 2.94
168 3.4
173 4.23
176 1.26
181 3.76
182 1.71
183 1.34
189 2.42
193 1.31
194 3.51
195 10.5
196 2.55
197 1.05
202 3.47
203 1.32
210 1.04
211 11.54
212 2.12
213 2.46
214 2.11
215 4.14
216 1.43
226 3.77
227 2.26
228 2.05
229 1.63
231 1.6
238 1.07
239 35.5
240 7.76
241 2.28
242 1.82
243 1.43
244 2.39
245 1.46
252 1.07
255 3
256 1.49
257 3.02
258 3.31
259 1.45
268 1.07
269 2.1
271 2.73
272 1.49
273 1.32
284 1.17
285 14.96
286 4.28
287 99.99
288 24.59
289 3.72
301 20.05
302 43.68
303 10.42
304 1.47
317 1.18
345 1.3
346 47.76
347 12.97
348 2.08

$$$$

     RDKit          2D

 11 12  0  0  0  0  0  0  0  0999 V2000
   -2.9400   -0.8900    0.0000 C   0  0  0  0  0  0  0  0  0  0  0  0
   -2.9400    0.6100    0.0000 C   0  0  0  0  0  0  0  0  0  0  0  0
   -1.6400   -1.6400    0.0000 C   0  0  0  0  0  0  0  0  0  0  0  0
   -1.6400    1.3700    0.0000 C   0  0  0  0  0  0  0  0  0  0  0  0
    0.9500   -1.6200    0.0000 C   0  0  0  0  0  0  0  0  0  0  0  0
    2.2300   -0.8800    0.0000 C   0  0  0  0  0  0  0  0  0  0  0  0
   -0.3600   -0.8700    0.0000 C   0  0  0  0  0  0  0  0  0  0  0  0
   -0.3600    0.5900    0.0000 C   0  0  0  0  0  0  0  0  0  0  0  0
    2.2300    0.6000    0.0000 C   0  0  0  0  0  0  0  0  0  0  0  0
    3.5314    1.3458    0.0000 O   0  0  0  0  0  0  0  0  0  0  0  0
    0.9500    1.3500    0.0000 O   0  0  0  0  0  0  0  0  0  0  0  0
  2  1  2  0
  3  1  1  0
  4  2  1  0
  6  5  2  0
  7  3  2  0
  7  5  1  0
  8  4  2  0
  8  7  1  0
  9  6  1  0
 10  9  2  0
 11  8  1  0
 11  9  1  0
M  END
>  <NAME>  (1767) 
COUMARIN

>  <SYNONYMS>  (1767) 


>  <SPECTRUM TYPE>  (1767) 
MS1

>  <INSTRUMENT TYPE>  (1767) 
EI-B

>  <INSTRUMENT>  (1767) 
JEOL JMS-AX-505-H

>  <ION MODE>  (1767) 
P

>  <INCHIKEY>  (1767) 
ZYGHJZDHTFUPRJ-UHFFFAOYSA-N

>  <FORMULA>  (1767) 
C9H6O2

>  <EXACT MASS>  (1767) 
146.036779432

>  <MW>  (1767) 
146

>  <ID>  (1767) 
JP009576

>  <CONTRIBUTOR>  (1767) 
University of Tokyo Team, {Faculty of Engineering, University of Tokyo

>  <COMMENT>  (1767) 
SMILES=O=C(C=1)Oc(c2)c(ccc2)C1
InChI=InChI=1S/C9H6O2/c10-9-6-5-7-3-1-2-4-8(7)11-9/h1-6H
computed SMILES=O=C1OC=2C=CC=CC2C=C1
accession=JP009576
date=2016.01.19 (Created 2008.10.21, modified 2011.05.06)
author=HAMAMATSU UNIV. SCHOOL OF MEDICINE
license=CC BY-NC-SA
exact mass=146.03678
ionization energy=70 eV
ion type=[M]+*
computed spectral entropy=2.7732832300935577
computed normalized entropy=0.7623965751788984
SPLASH=splash10-02tj-9600000000-4a54f8d648a87a9c5811
submitter=submitter = University of Tokyo Team (Faculty of Engineering, University of Tokyo)
MoNA Rating=3.75

>  <NUM PEAKS>  (1767) 
38

>  <MASS SPECTRAL PEAKS>  (1767) 
26 2.74
27 2.51
28 2.79
29 1.37
31 1.59
37 4.7
38 10.36
39 14.87
40 2.84
43 4.19
44 2.18
45 7.34
49 2.02
50 10.37
51 12.6
52 1.33
53 2.31
59 6.91
61 5.77
62 13.84
63 32.86
64 13.03
73 1.64
74 4.11
75 2.97
76 1.21
85 1.44
86 2.57
87 2.19
88 1.18
89 41.26
90 50
91 4.17
92 3
118 99.99
119 10.51
146 82.85
147 9.73

$$$$

     RDKit          2D

 10 10  0  0  0  0  0  0  0  0999 V2000
   -2.2915    1.3193    0.0000 C   0  0  0  0  0  0  0  0  0  0  0  0
    1.6056    2.0565    0.0000 C   0  0  0  0  0  0  0  0  0  0  0  0
    0.2920   -0.1684    0.0000 C   0  0  0  0  0  0  0  0  0  0  0  0
    2.8901    1.3316    0.0000 C   0  0  0  0  0  0  0  0  0  0  0  0
    1.6165   -0.9625    0.0000 C   0  0  0  0  0  0  0  0  0  0  0  0
   -0.9888    2.0629    0.0000 C   0  0  0  0  0  0  0  0  0  0  0  0
    0.3065    1.3065    0.0000 C   0  0  0  0  0  0  0  0  0  0  0  0
    2.9156   -0.2125    0.0000 C   0  0  0  0  0  0  0  0  0  0  0  0
   -0.9814    3.5628    0.0000 O   0  0  0  0  0  0  0  0  0  0  0  0
    4.2207   -0.9518    0.0000 O   0  0  0  0  0  0  0  0  0  0  0  0
  4  2  2  0
  5  3  1  0
  6  1  1  0
  7  2  1  0
  7  3  2  0
  7  6  1  0
  8  4  1  0
  8  5  2  0
  9  6  2  0
 10  8  1  0
M  END
>  <NAME>  (1768) 
4-HYDROXYACETOPHENONE

>  <SYNONYMS>  (1768) 


>  <SPECTRUM TYPE>  (1768) 
MS1

>  <INSTRUMENT TYPE>  (1768) 
EI-B

>  <INSTRUMENT>  (1768) 
JEOL JMS-AX-505-H

>  <ION MODE>  (1768) 
P

>  <INCHIKEY>  (1768) 
TXFPEBPIARQUIG-UHFFFAOYSA-N

>  <FORMULA>  (1768) 
C8H8O2

>  <EXACT MASS>  (1768) 
136.052429496

>  <MW>  (1768) 
136

>  <ID>  (1768) 
JP009575

>  <CONTRIBUTOR>  (1768) 
University of Tokyo Team, {Faculty of Engineering, University of Tokyo

>  <COMMENT>  (1768) 
SMILES=CC(=O)c(c1)ccc(O)c1
InChI=InChI=1S/C8H8O2/c1-6(9)7-2-4-8(10)5-3-7/h2-5,10H,1H3
computed SMILES=O=C(C1=CC=C(O)C=C1)C
accession=JP009575
date=2016.01.19 (Created 2008.10.21, modified 2011.05.06)
author=HAMAMATSU UNIV. SCHOOL OF MEDICINE
license=CC BY-NC-SA
exact mass=136.05243
ionization energy=70 eV
ion type=[M]+*
computed spectral entropy=2.676813770896935
computed normalized entropy=0.7306588586341499
SPLASH=splash10-00du-9700000000-34294e3a6071ba63678d
submitter=submitter = University of Tokyo Team (Faculty of Engineering, University of Tokyo)
MoNA Rating=3.75

>  <NUM PEAKS>  (1768) 
39

>  <MASS SPECTRAL PEAKS>  (1768) 
27 2.46
28 7.79
29 3.09
31 3.51
32 1.65
37 1.47
38 4.71
39 22.83
40 1.3
42 1.32
43 12.94
44 1.02
46 1.37
50 3.74
51 4.34
52 1.35
53 4.53
54 1.32
55 1.19
60 1.73
61 1.87
62 3.32
63 7.42
64 4.28
65 31.31
66 3.18
74 1.63
75 1.19
77 3.79
79 1.48
92 2.9
93 42.3
94 4
107 1.91
120 1.02
121 99.99
122 8.97
136 38.59
137 3.91

$$$$

     RDKit          2D

 10 10  0  0  0  0  0  0  0  0999 V2000
    3.2480   -0.3742    0.0000 C   0  0  0  0  0  0  0  0  0  0  0  0
    3.2475   -1.8751    0.0000 C   0  0  0  0  0  0  0  0  0  0  0  0
    1.9489    0.3758    0.0000 C   0  0  0  0  0  0  0  0  0  0  0  0
    1.9480   -2.6259    0.0000 C   0  0  0  0  0  0  0  0  0  0  0  0
    0.6494   -0.3751    0.0000 C   0  0  0  0  0  0  0  0  0  0  0  0
    0.6489   -1.8759    0.0000 C   0  0  0  0  0  0  0  0  0  0  0  0
   -0.6496    0.3749    0.0000 C   0  0  0  0  0  0  0  0  0  0  0  0
   -0.6502   -2.6257    0.0000 I   0  0  0  0  0  0  0  0  0  0  0  0
   -1.9486   -0.3751    0.0000 O   0  0  0  0  0  0  0  0  0  0  0  0
   -0.6496    1.8749    0.0000 O   0  0  0  0  0  0  0  0  0  0  0  0
  2  1  2  0
  3  1  1  0
  4  2  1  0
  5  3  2  0
  6  4  2  0
  6  5  1  0
  7  5  1  0
  8  6  1  0
  9  7  2  0
 10  7  1  0
M  END
>  <NAME>  (1769) 
2-IODOBENZOIC ACID

>  <SYNONYMS>  (1769) 


>  <SPECTRUM TYPE>  (1769) 
MS1

>  <INSTRUMENT TYPE>  (1769) 
EI-B

>  <INSTRUMENT>  (1769) 
JEOL JMS-AX-505-H

>  <ION MODE>  (1769) 
P

>  <INCHIKEY>  (1769) 
CJNZAXGUTKBIHP-UHFFFAOYSA-N

>  <FORMULA>  (1769) 
C7H5IO2

>  <EXACT MASS>  (1769) 
247.9334274

>  <MW>  (1769) 
248

>  <ID>  (1769) 
JP009574

>  <CONTRIBUTOR>  (1769) 
University of Tokyo Team, {Faculty of Engineering, University of Tokyo

>  <COMMENT>  (1769) 
SMILES=OC(=O)c(c1)c(I)ccc1
InChI=InChI=1S/C7H5IO2/c8-6-4-2-1-3-5(6)7(9)10/h1-4H,(H,9,10)
computed SMILES=O=C(O)C=1C=CC=CC1I
accession=JP009574
date=2016.01.19 (Created 2008.10.21, modified 2011.05.06)
author=HAMAMATSU UNIV. SCHOOL OF MEDICINE
license=CC BY-NC-SA
exact mass=247.93342
ionization energy=70 eV
ion type=[M]+*
computed spectral entropy=2.897262261351963
computed normalized entropy=0.7801820482571658
SPLASH=splash10-0f7k-9060000000-9a1850f2d737746aa157
submitter=submitter = University of Tokyo Team (Faculty of Engineering, University of Tokyo)
MoNA Rating=3.75

>  <NUM PEAKS>  (1769) 
41

>  <MASS SPECTRAL PEAKS>  (1769) 
27 2.33
28 2.81
29 1.18
37 3.71
38 4.01
39 19.06
44 1.07
45 3.34
49 3.7
50 36.88
51 15.26
53 4.02
57 1.05
61 1.18
62 1.32
63 3.2
64 3.62
65 41.12
66 3.02
69 1.73
73 3.88
74 16.58
75 13.01
76 36.17
77 8.8
92 3.36
93 11.97
104 2.59
105 1.14
115 1.83
121 6.89
122 1.32
124 1.89
127 5.81
128 3.36
203 17.15
204 1.35
231 58.05
232 5.28
248 99.99
249 10.24

$$$$

     RDKit          2D

  9  9  0  0  0  0  0  0  0  0999 V2000
    0.6473    1.8688    0.0000 C   0  0  0  0  0  0  0  0  0  0  0  0
   -0.6473    1.1266    0.0000 C   0  0  0  0  0  0  0  0  0  0  0  0
    1.9463    1.1188    0.0000 C   0  0  0  0  0  0  0  0  0  0  0  0
    0.6513   -1.1242    0.0000 C   0  0  0  0  0  0  0  0  0  0  0  0
   -1.9469   -1.1240    0.0000 C   0  0  0  0  0  0  0  0  0  0  0  0
   -0.6477   -0.3742    0.0000 C   0  0  0  0  0  0  0  0  0  0  0  0
    1.9508   -0.3734    0.0000 C   0  0  0  0  0  0  0  0  0  0  0  0
   -3.2458   -0.3738    0.0000 O   0  0  0  0  0  0  0  0  0  0  0  0
    3.2511   -1.1212    0.0000 O   0  0  0  0  0  0  0  0  0  0  0  0
  2  1  2  0
  3  1  1  0
  6  2  1  0
  6  4  2  0
  6  5  1  0
  7  3  2  0
  7  4  1  0
  8  5  2  0
  9  7  1  0
M  END
>  <NAME>  (1770) 
3-HYDROXYBENZALDEHYDE

>  <SYNONYMS>  (1770) 


>  <SPECTRUM TYPE>  (1770) 
MS1

>  <INSTRUMENT TYPE>  (1770) 
EI-B

>  <INSTRUMENT>  (1770) 
JEOL JMS-AX-505-H

>  <ION MODE>  (1770) 
P

>  <INCHIKEY>  (1770) 
IAVREABSGIHHMO-UHFFFAOYSA-N

>  <FORMULA>  (1770) 
C7H6O2

>  <EXACT MASS>  (1770) 
122.036779432

>  <MW>  (1770) 
122

>  <ID>  (1770) 
JP009573

>  <CONTRIBUTOR>  (1770) 
University of Tokyo Team, {Faculty of Engineering, University of Tokyo

>  <COMMENT>  (1770) 
SMILES=O=Cc(c1)cc(O)cc1
InChI=InChI=1S/C7H6O2/c8-5-6-2-1-3-7(9)4-6/h1-5,9H
computed SMILES=O=CC=1C=CC=C(O)C1
computed spectral entropy=2.7625241978452495
accession=JP009573
date=2016.01.19 (Created 2008.10.21, modified 2011.05.06)
author=HAMAMATSU UNIV. SCHOOL OF MEDICINE
license=CC BY-NC-SA
exact mass=122.03678
ionization energy=70 eV
ion type=[M]+*
computed normalized entropy=0.7594388356846626
SPLASH=splash10-00di-9500000000-a38c126d44548ebb0b6d
submitter=submitter = University of Tokyo Team (Faculty of Engineering, University of Tokyo)
MoNA Rating=3.75

>  <NUM PEAKS>  (1770) 
38

>  <MASS SPECTRAL PEAKS>  (1770) 
26 1.44
27 2.64
28 28.08
29 6.25
31 2.52
32 7.31
37 4.57
38 10.68
39 37.41
40 5.75
41 1.26
43 1.31
49 1.42
50 6.91
51 5.66
53 6.96
55 4.06
57 1.02
61 4.27
62 7.19
63 14.58
64 6.6
65 46.87
66 12.78
67 1.28
69 4.01
73 1.18
74 3.8
75 2.47
76 1.67
77 1.35
92 2.68
93 52.18
94 10.53
119 1.23
121 89.9
122 99.99
123 8.38

$$$$

     RDKit          2D

 11 11  0  0  0  0  0  0  0  0999 V2000
    1.5668    2.3416    0.0000 C   0  0  0  0  0  0  0  0  0  0  0  0
   -2.2773    1.5771    0.0000 C   0  0  0  0  0  0  0  0  0  0  0  0
   -1.0129    2.3223    0.0000 C   0  0  0  0  0  0  0  0  0  0  0  0
   -2.3074    0.0902    0.0000 C   0  0  0  0  0  0  0  0  0  0  0  0
    0.2712    1.5858    0.0000 C   0  0  0  0  0  0  0  0  0  0  0  0
   -1.0045   -0.6926    0.0000 C   0  0  0  0  0  0  0  0  0  0  0  0
    0.2805    0.0869    0.0000 C   0  0  0  0  0  0  0  0  0  0  0  0
   -1.0013   -2.1926    0.0000 C   0  0  0  0  0  0  0  0  0  0  0  0
    1.5899   -0.6449    0.0000 O   0  0  0  0  0  0  0  0  0  0  0  0
    0.2993   -2.9399    0.0000 O   0  0  0  0  0  0  0  0  0  0  0  0
   -2.2988   -2.9454    0.0000 O   0  0  0  0  0  0  0  0  0  0  0  0
  3  2  2  0
  4  2  1  0
  5  1  1  0
  5  3  1  0
  6  4  2  0
  7  5  2  0
  7  6  1  0
  8  6  1  0
  9  7  1  0
 10  8  2  0
 11  8  1  0
M  END
>  <NAME>  (1771) 
2-HYDROXY-3-METHYLBENZOIC ACID

>  <SYNONYMS>  (1771) 


>  <SPECTRUM TYPE>  (1771) 
MS1

>  <INSTRUMENT TYPE>  (1771) 
EI-B

>  <INSTRUMENT>  (1771) 
JEOL JMS-AX-505-H

>  <ION MODE>  (1771) 
P

>  <INCHIKEY>  (1771) 
WHSXTWFYRGOBGO-UHFFFAOYSA-N

>  <FORMULA>  (1771) 
C8H8O3

>  <EXACT MASS>  (1771) 
152.04734411599998

>  <MW>  (1771) 
152

>  <ID>  (1771) 
JP009572

>  <CONTRIBUTOR>  (1771) 
University of Tokyo Team, {Faculty of Engineering, University of Tokyo

>  <COMMENT>  (1771) 
SMILES=OC(=O)c(c1)c(O)c(C)cc1
InChI=InChI=1S/C8H8O3/c1-5-3-2-4-6(7(5)9)8(10)11/h2-4,9H,1H3,(H,10,11)
computed SMILES=O=C(O)C1=CC=CC(=C1O)C
accession=JP009572
date=2016.01.19 (Created 2008.10.21, modified 2011.05.06)
author=HAMAMATSU UNIV. SCHOOL OF MEDICINE
license=CC BY-NC-SA
exact mass=152.04734
ionization energy=70 eV
ion type=[M]+*
computed spectral entropy=2.8875186830671438
computed normalized entropy=0.7541888581456151
SPLASH=splash10-0pe9-5900000000-cf8848c42302842dd0c8
submitter=submitter = University of Tokyo Team (Faculty of Engineering, University of Tokyo)
MoNA Rating=3.75

>  <NUM PEAKS>  (1771) 
46

>  <MASS SPECTRAL PEAKS>  (1771) 
26 1.05
27 6.09
28 22.55
29 1.77
31 1.2
32 6.14
37 1.53
38 3.95
39 13.62
40 1.07
41 2.37
43 1.28
45 2.12
50 7.68
51 20.34
52 11.71
53 9.77
55 1.97
57 1.1
61 1.13
62 2.39
63 5.35
64 1.08
65 1.67
66 2.31
67 5.3
69 1.94
73 1.2
74 2.4
75 1.83
76 4.62
77 28.38
78 35.03
79 5.63
81 1.69
89 1.02
105 35.67
106 99.99
107 12.09
108 1.39
133 6.13
134 94.75
135 14.75
136 1.56
152 66.9
153 7.59

$$$$

     RDKit          2D

 14 13  0  0  0  0  0  0  0  0999 V2000
    3.8971    6.7500    0.0000 C   0  0  0  0  0  0  0  0  0  0  0  0
    2.5981    7.5000    0.0000 C   0  0  0  0  0  0  0  0  0  0  0  0
    1.2990    6.7500    0.0000 C   0  0  0  0  0  0  0  0  0  0  0  0
    0.0000    7.5000    0.0000 C   0  0  0  0  0  0  0  0  0  0  0  0
   -1.2990    6.7500    0.0000 C   0  0  0  0  0  0  0  0  0  0  0  0
   -2.5981    7.5000    0.0000 C   0  0  0  0  0  0  0  0  0  0  0  0
   -3.8971    6.7500    0.0000 C   0  0  0  0  0  0  0  0  0  0  0  0
   -5.1962    7.5000    0.0000 C   0  0  0  0  0  0  0  0  0  0  0  0
   -6.4952    6.7500    0.0000 C   0  0  0  0  0  0  0  0  0  0  0  0
   -7.7942    7.5000    0.0000 C   0  0  0  0  0  0  0  0  0  0  0  0
   -9.0933    6.7500    0.0000 C   0  0  0  0  0  0  0  0  0  0  0  0
  -10.3923    7.5000    0.0000 C   0  0  0  0  0  0  0  0  0  0  0  0
  -10.3923    9.0000    0.0000 O   0  0  0  0  0  0  0  0  0  0  0  0
  -11.6913    6.7500    0.0000 O   0  0  0  0  0  0  0  0  0  0  0  0
  2  1  1  0
  3  2  1  0
  4  3  1  0
  5  4  1  0
  6  5  1  0
  7  6  1  0
  8  7  1  0
  9  8  1  0
 10  9  1  0
 11 10  1  0
 12 11  1  0
 13 12  2  0
 14 12  1  0
M  END
>  <NAME>  (1772) 
LAURIC ACID

>  <SYNONYMS>  (1772) 


>  <SPECTRUM TYPE>  (1772) 
MS1

>  <INSTRUMENT TYPE>  (1772) 
EI-B

>  <INSTRUMENT>  (1772) 
JEOL JMS-AX-505-H

>  <ION MODE>  (1772) 
P

>  <INCHIKEY>  (1772) 
POULHZVOKOAJMA-UHFFFAOYSA-N

>  <FORMULA>  (1772) 
C12H24O2

>  <EXACT MASS>  (1772) 
200.177630008

>  <MW>  (1772) 
200

>  <ID>  (1772) 
JP009571

>  <CONTRIBUTOR>  (1772) 
University of Tokyo Team, {Faculty of Engineering, University of Tokyo

>  <COMMENT>  (1772) 
SMILES=CCCCCCCCCCCC(O)=O
InChI=InChI=1S/C12H24O2/c1-2-3-4-5-6-7-8-9-10-11-12(13)14/h2-11H2,1H3,(H,13,14)
computed SMILES=O=C(O)CCCCCCCCCCC
accession=JP009571
date=2016.01.19 (Created 2008.10.21, modified 2011.05.06)
author=HAMAMATSU UNIV. SCHOOL OF MEDICINE
license=CC BY-NC-SA
exact mass=200.17763
ionization energy=70 eV
ion type=[M]+*
computed spectral entropy=3.634345959414175
computed normalized entropy=0.8443984653374698
SPLASH=splash10-0706-9100000000-e66a9147257053b93702
submitter=submitter = University of Tokyo Team (Faculty of Engineering, University of Tokyo)
MoNA Rating=3.75

>  <NUM PEAKS>  (1772) 
74

>  <MASS SPECTRAL PEAKS>  (1772) 
26 1.19
27 28.23
29 44.27
30 1.52
31 2.67
39 21.62
40 4.09
41 82.37
42 20.44
43 73.05
44 2.96
45 11.48
53 7.69
54 6.66
55 64.2
56 17.95
57 53.85
58 2.89
59 6.31
60 95.08
61 21.37
62 1.03
65 1.31
67 7.84
68 5.93
69 34.87
70 11.26
71 32.89
72 2.1
73 99.99
74 11.69
75 1
79 2.23
81 4.69
82 4.92
83 20.39
84 11.56
85 33.2
86 2.7
87 21.18
88 3.56
93 1.33
95 2.67
96 4.41
97 14.95
98 11.51
99 8.76
101 17.09
102 3.53
109 1.26
110 2.75
111 7.81
112 4.73
115 21.07
116 2.73
121 1.13
125 1.62
129 41.32
130 4.13
138 6.54
139 1.89
140 8.57
141 4.43
143 11.09
144 1.39
157 32.68
158 3.99
164 1.48
171 12.12
172 1.85
183 5.04
200 45.19
201 16.53
202 2.04

$$$$

     RDKit          2D

 16 17  0  0  0  0  0  0  0  0999 V2000
   -0.0000   -1.9300    0.0000 C   0  0  0  0  0  0  0  0  0  0  0  0
    3.8971    4.8200    0.0000 C   0  0  0  0  0  0  0  0  0  0  0  0
   -1.3000   -1.1800    0.0000 C   0  0  0  0  0  0  0  0  0  0  0  0
    1.3000   -1.1800    0.0000 C   0  0  0  0  0  0  0  0  0  0  0  0
    3.8976    3.3192    0.0000 C   0  0  0  0  0  0  0  0  0  0  0  0
    2.5976    5.5708    0.0000 C   0  0  0  0  0  0  0  0  0  0  0  0
   -1.3000    0.3200    0.0000 C   0  0  0  0  0  0  0  0  0  0  0  0
    1.3000    0.3200    0.0000 C   0  0  0  0  0  0  0  0  0  0  0  0
    2.5986    2.5692    0.0000 C   0  0  0  0  0  0  0  0  0  0  0  0
    1.2986    4.8208    0.0000 C   0  0  0  0  0  0  0  0  0  0  0  0
   -0.0000    1.0700    0.0000 C   0  0  0  0  0  0  0  0  0  0  0  0
    1.2990    3.3200    0.0000 C   0  0  0  0  0  0  0  0  0  0  0  0
   -1.2990    3.3200    0.0000 C   0  0  0  0  0  0  0  0  0  0  0  0
   -1.2990    4.8200    0.0000 N   0  0  0  0  0  0  0  0  0  0  0  0
    0.0000    2.5700    0.0000 N   0  0  0  0  0  0  0  0  0  0  0  0
   -2.5981    2.5700    0.0000 S   0  0  0  0  0  0  0  0  0  0  0  0
  3  1  2  0
  4  1  1  0
  5  2  2  0
  6  2  1  0
  7  3  1  0
  8  4  2  0
  9  5  1  0
 10  6  2  0
 11  7  2  0
 11  8  1  0
 12  9  2  0
 12 10  1  0
 14 13  2  0
 15 11  1  0
 15 12  1  0
 15 13  1  0
 16 13  1  0
M  END
>  <NAME>  (1773) 
1,1-DIPHENYLTHIOUREA

>  <SYNONYMS>  (1773) 


>  <SPECTRUM TYPE>  (1773) 
MS1

>  <INSTRUMENT TYPE>  (1773) 
EI-B

>  <INSTRUMENT>  (1773) 
JEOL JMS-AX-505-H

>  <ION MODE>  (1773) 
P

>  <INCHIKEY>  (1773) 
FPZXQVCYHDMIIA-UHFFFAOYSA-N

>  <FORMULA>  (1773) 
C13H12N2S

>  <EXACT MASS>  (1773) 
228.072119384

>  <MW>  (1773) 
228

>  <ID>  (1773) 
JP009570

>  <CONTRIBUTOR>  (1773) 
University of Tokyo Team, {Faculty of Engineering, University of Tokyo

>  <COMMENT>  (1773) 
SMILES=NC(=S)N(c(c2)cccc2)c(c1)cccc1
InChI=InChI=1S/C13H12N2S/c14-13(16)15(11-7-3-1-4-8-11)12-9-5-2-6-10-12/h1-10H,(H2,14,16)
computed SMILES=N=C(S)N(C=1C=CC=CC1)C=2C=CC=CC2
accession=JP009570
date=2016.01.19 (Created 2008.10.21, modified 2011.05.06)
author=HAMAMATSU UNIV. SCHOOL OF MEDICINE
license=CC BY-NC-SA
exact mass=228.07212
ionization energy=70 eV
ion type=[M]+*
computed spectral entropy=3.441226930412438
computed normalized entropy=0.7898684689073484
SPLASH=splash10-016r-6910000000-2544cce240ac414f4dc1
submitter=submitter = University of Tokyo Team (Faculty of Engineering, University of Tokyo)
MoNA Rating=3.75

>  <NUM PEAKS>  (1773) 
78

>  <MASS SPECTRAL PEAKS>  (1773) 
27 2.07
28 58.93
29 1.42
32 15.51
38 1.21
39 7.58
40 1.23
41 2.4
43 2.96
45 1.94
50 4.56
51 25.37
52 2.39
55 2.88
57 2.94
60 7.21
62 1.03
63 3.73
64 3.12
65 7.74
66 11.06
67 1.66
69 3.25
70 1.06
71 1.64
74 1.44
75 1.71
76 2.73
77 38.24
78 3.8
81 1.34
82 1.18
83 2.89
84 1.79
85 1.02
89 1.48
90 1.19
91 8.42
92 2.2
93 1.41
95 1.05
96 1.35
97 2.27
103 1.85
104 5.23
109 1.55
110 5.19
111 1.04
114 3.28
115 4
116 1.09
118 12.23
119 99.99
120 10.06
129 1.19
139 3.12
140 2.8
141 3.23
142 1.78
143 1.13
149 1.39
151 1.46
152 1.45
153 1.05
154 1.83
166 7.9
167 25.97
168 35.38
169 34.73
170 4.83
192 1.83
193 9.98
194 46.89
195 8.18
227 5.76
228 40.43
229 7.16
230 2.43

$$$$

     RDKit          2D

 13 13  0  0  0  0  0  0  0  0999 V2000
   -1.3000    0.7500    0.0000 C   0  0  0  0  0  0  0  0  0  0  0  0
    0.0000    1.5000    0.0000 C   0  0  0  0  0  0  0  0  0  0  0  0
    0.0000   -1.5000    0.0000 C   0  0  0  0  0  0  0  0  0  0  0  0
   -1.3000   -0.7500    0.0000 C   0  0  0  0  0  0  0  0  0  0  0  0
    1.3000   -0.7500    0.0000 C   0  0  0  0  0  0  0  0  0  0  0  0
    1.3000    0.7500    0.0000 C   0  0  0  0  0  0  0  0  0  0  0  0
   -2.5989   -1.5002    0.0000 N   0  0  0  0  0  0  0  0  0  0  0  0
    2.5989   -1.5002    0.0000 N   0  0  0  0  0  0  0  0  0  0  0  0
    2.5989    1.5002    0.0000 O   0  0  0  0  0  0  0  0  0  0  0  0
   -3.8981   -0.7504    0.0000 O   0  0  0  0  0  0  0  0  0  0  0  0
   -2.5987   -3.0002    0.0000 O   0  0  0  0  0  0  0  0  0  0  0  0
    3.8981   -0.7504    0.0000 O   0  0  0  0  0  0  0  0  0  0  0  0
    2.5987   -3.0002    0.0000 O   0  0  0  0  0  0  0  0  0  0  0  0
  2  1  2  0
  4  1  1  0
  4  3  2  0
  5  3  1  0
  6  2  1  0
  6  5  2  0
  7  4  1  0
  8  5  1  0
  9  6  1  0
 10  7  1  0
 11  7  2  0
 12  8  1  0
 13  8  2  0
M  CHG  4   7   1   8   1  10  -1  12  -1
M  END
>  <NAME>  (1774) 
2,4-DINITROPHENOL

>  <SYNONYMS>  (1774) 


>  <SPECTRUM TYPE>  (1774) 
MS1

>  <INSTRUMENT TYPE>  (1774) 
EI-B

>  <INSTRUMENT>  (1774) 
JEOL JMS-AX-505-H

>  <ION MODE>  (1774) 
P

>  <INCHIKEY>  (1774) 
UFBJCMHMOXMLKC-UHFFFAOYSA-N

>  <FORMULA>  (1774) 
C6H4N2O5

>  <EXACT MASS>  (1774) 
184.01202122799998

>  <MW>  (1774) 
184

>  <ID>  (1774) 
JP009569

>  <CONTRIBUTOR>  (1774) 
University of Tokyo Team, {Faculty of Engineering, University of Tokyo

>  <COMMENT>  (1774) 
SMILES=[O-1][N+1](=O)c(c1)cc([N+1]([O-1])=O)c(O)c1
InChI=InChI=1S/C6H4N2O5/c9-6-2-1-4(7(10)11)3-5(6)8(12)13/h1-3,9H
computed SMILES=O=N(=O)C1=CC=C(O)C(=C1)N(=O)=O
accession=JP009569
date=2016.01.19 (Created 2008.10.21, modified 2011.05.06)
author=HAMAMATSU UNIV. SCHOOL OF MEDICINE
license=CC BY-NC-SA
exact mass=184.01202
ionization energy=70 eV
ion type=[M]+*
computed spectral entropy=3.43245784878742
computed normalized entropy=0.8079231947384024
SPLASH=splash10-0gz9-9200000000-e0169c5ed661f777992d
submitter=submitter = University of Tokyo Team (Faculty of Engineering, University of Tokyo)
MoNA Rating=3.75

>  <NUM PEAKS>  (1774) 
70

>  <MASS SPECTRAL PEAKS>  (1774) 
25 1.15
26 7.09
27 3.86
28 92.99
29 7.16
30 61.83
31 2.99
32 26.97
37 12.48
38 27.46
39 18.65
40 2.07
41 1.08
42 3.54
43 1.07
44 3.39
45 2.28
46 3.45
49 3.16
50 16.58
51 34.93
52 24.31
53 71.78
54 6.66
55 4.71
60 1.23
61 13.95
62 42.71
63 85.26
64 32.98
65 7.5
66 5.94
67 2.93
68 5.67
69 5.17
70 1.51
73 1.37
74 4.55
75 3.9
76 4.55
77 5.4
78 1.43
79 41.42
80 9.25
81 1.13
82 1.03
90 2.43
91 59.12
92 33.98
93 20.95
94 1.67
96 2.14
104 1.32
105 1.14
107 46.86
108 8.18
109 1.16
119 1.01
120 1.77
121 1.72
126 2.12
138 3.65
151 1.54
154 40.86
155 3.1
167 1.02
168 4.39
184 99.99
185 8.95
186 1.66

$$$$

     RDKit          2D

 12 11  0  0  0  0  0  0  0  0999 V2000
   -2.5981    6.7500    0.0000 C   0  0  0  0  0  0  0  0  0  0  0  0
   -3.8971    6.0000    0.0000 C   0  0  0  0  0  0  0  0  0  0  0  0
   -1.2990    6.0000    0.0000 C   0  0  0  0  0  0  0  0  0  0  0  0
   -5.1962    6.7500    0.0000 C   0  0  0  0  0  0  0  0  0  0  0  0
    0.0000    6.7500    0.0000 C   0  0  0  0  0  0  0  0  0  0  0  0
   -6.4952    6.0000    0.0000 C   0  0  0  0  0  0  0  0  0  0  0  0
    1.2990    6.0000    0.0000 C   0  0  0  0  0  0  0  0  0  0  0  0
   -7.7942    6.7500    0.0000 C   0  0  0  0  0  0  0  0  0  0  0  0
    2.5981    6.7500    0.0000 C   0  0  0  0  0  0  0  0  0  0  0  0
   -9.0933    6.0000    0.0000 C   0  0  0  0  0  0  0  0  0  0  0  0
    3.8971    6.0000    0.0000 O   0  0  0  0  0  0  0  0  0  0  0  0
  -10.3923    6.7500    0.0000 O   0  0  0  0  0  0  0  0  0  0  0  0
  2  1  1  0
  3  1  1  0
  4  2  1  0
  5  3  1  0
  6  4  1  0
  7  5  1  0
  8  6  1  0
  9  7  1  0
 10  8  1  0
 11  9  1  0
 12 10  1  0
M  END
>  <NAME>  (1775) 
1,10-DECANEDIOL

>  <SYNONYMS>  (1775) 


>  <SPECTRUM TYPE>  (1775) 
MS1

>  <INSTRUMENT TYPE>  (1775) 
EI-B

>  <INSTRUMENT>  (1775) 
JEOL JMS-AX-505-H

>  <ION MODE>  (1775) 
P

>  <INCHIKEY>  (1775) 
FOTKYAAJKYLFFN-UHFFFAOYSA-N

>  <FORMULA>  (1775) 
C10H22O2

>  <EXACT MASS>  (1775) 
174.161979944

>  <MW>  (1775) 
174

>  <ID>  (1775) 
JP009568

>  <CONTRIBUTOR>  (1775) 
University of Tokyo Team, {Faculty of Engineering, University of Tokyo

>  <COMMENT>  (1775) 
SMILES=OCCCCCCCCCCO
InChI=InChI=1S/C10H22O2/c11-9-7-5-3-1-2-4-6-8-10-12/h11-12H,1-10H2
computed SMILES=OCCCCCCCCCCO
accession=JP009568
date=2016.01.19 (Created 2008.10.21, modified 2011.05.06)
author=HAMAMATSU UNIV. SCHOOL OF MEDICINE
license=CC BY-NC-SA
exact mass=174.16198
ionization energy=70 eV
ion type=[M]+*
computed spectral entropy=3.4809752702363768
computed normalized entropy=0.8401791156012288
SPLASH=splash10-00ls-9000000000-d5b34fe31587c24e0883
submitter=submitter = University of Tokyo Team (Faculty of Engineering, University of Tokyo)
MoNA Rating=3.75

>  <NUM PEAKS>  (1775) 
63

>  <MASS SPECTRAL PEAKS>  (1775) 
26 2.1
27 39.47
28 12.63
29 56.76
30 2.17
31 99.99
32 1.38
39 28.28
40 6.42
41 94.71
42 26.56
43 31.63
44 6.49
45 5.92
51 1.03
53 8.3
54 29.52
55 70.24
56 18.84
57 16.48
58 1.75
65 1.61
66 8.38
67 63.15
68 68.83
69 46.93
70 16.27
71 13.18
72 2.46
73 3.78
77 1.27
79 4.7
80 3.54
81 65.23
82 92.95
83 44.11
84 11.75
85 13.33
86 3.06
87 1.82
93 2.13
94 3.51
95 68.36
96 66.41
97 34.49
98 14.01
99 9.51
100 1.86
108 1.26
109 35.78
110 42
111 7.31
112 3.08
113 5.63
123 3.28
124 1.21
126 9.98
127 1.65
128 1.32
137 1.56
138 3.68
157 1.16
175 4.32

$$$$

     RDKit          2D

 13 14  0  0  0  0  0  0  0  0999 V2000
   -2.6000   -0.7500    0.0000 C   0  0  0  0  0  0  0  0  0  0  0  0
   -2.6000    0.7500    0.0000 C   0  0  0  0  0  0  0  0  0  0  0  0
   -1.3000   -1.5000    0.0000 C   0  0  0  0  0  0  0  0  0  0  0  0
   -1.3000    1.5000    0.0000 C   0  0  0  0  0  0  0  0  0  0  0  0
    2.6000   -0.7500    0.0000 C   0  0  0  0  0  0  0  0  0  0  0  0
    0.0000   -0.7500    0.0000 C   0  0  0  0  0  0  0  0  0  0  0  0
    0.0000    0.7500    0.0000 C   0  0  0  0  0  0  0  0  0  0  0  0
    1.3000   -1.5000    0.0000 C   0  0  0  0  0  0  0  0  0  0  0  0
    2.6000    0.7500    0.0000 C   0  0  0  0  0  0  0  0  0  0  0  0
    1.3000    1.5000    0.0000 C   0  0  0  0  0  0  0  0  0  0  0  0
    1.3000   -3.0000    0.0000 Cl  0  0  0  0  0  0  0  0  0  0  0  0
    3.8989    1.5002    0.0000 Cl  0  0  0  0  0  0  0  0  0  0  0  0
    1.3000    3.0000    0.0000 O   0  0  0  0  0  0  0  0  0  0  0  0
  2  1  2  0
  3  1  1  0
  4  2  1  0
  6  3  2  0
  7  4  2  0
  7  6  1  0
  8  5  2  0
  8  6  1  0
  9  5  1  0
 10  7  1  0
 10  9  2  0
 11  8  1  0
 12  9  1  0
 13 10  1  0
M  END
>  <NAME>  (1776) 
2,4-DICHLORO-1-NAPHTOL

>  <SYNONYMS>  (1776) 


>  <SPECTRUM TYPE>  (1776) 
MS1

>  <INSTRUMENT TYPE>  (1776) 
EI-B

>  <INSTRUMENT>  (1776) 
JEOL JMS-AX-505-H

>  <ION MODE>  (1776) 
P

>  <INCHIKEY>  (1776) 
HVLJEMXDXOTWLV-UHFFFAOYSA-N

>  <FORMULA>  (1776) 
C10H6Cl2O

>  <EXACT MASS>  (1776) 
211.979570172

>  <MW>  (1776) 
212

>  <ID>  (1776) 
JP009567

>  <CONTRIBUTOR>  (1776) 
University of Tokyo Team, {Faculty of Engineering, University of Tokyo

>  <COMMENT>  (1776) 
SMILES=Clc(c1)c(O)c(c2)c(ccc2)c(Cl)1
InChI=InChI=1S/C10H6Cl2O/c11-8-5-9(12)10(13)7-4-2-1-3-6(7)8/h1-5,13H
computed SMILES=ClC=1C=C(Cl)C=2C=CC=CC2C1O
accession=JP009567
date=2016.01.19 (Created 2008.10.21, modified 2011.05.06)
author=HAMAMATSU UNIV. SCHOOL OF MEDICINE
license=CC BY-NC-SA
exact mass=211.97957
ionization energy=70 eV
ion type=[M]+*
computed spectral entropy=3.321008197619977
computed normalized entropy=0.7898337639009181
SPLASH=splash10-03di-6980000000-4d8c305a901b64d5f7cb
submitter=submitter = University of Tokyo Team (Faculty of Engineering, University of Tokyo)
MoNA Rating=3.75

>  <NUM PEAKS>  (1776) 
67

>  <MASS SPECTRAL PEAKS>  (1776) 
28 2.49
29 1
31 1.27
36 2.86
37 1.17
38 1.41
39 4.34
43 1.75
50 3.63
51 2.46
53 1.84
55 3.81
56 18.62
57 2.75
61 4.35
62 6.81
63 13.25
64 1.37
71 1.36
73 4.61
74 29.81
75 12.54
76 1.59
85 2.94
86 7.59
87 8.59
88 5.39
89 1.91
92 3.38
93 2.04
97 3.12
98 1.71
99 2.17
101 1.25
106 8.08
107 5.43
108 1.52
109 1.38
110 1.93
111 1.9
112 1.07
113 35.89
114 10.83
115 1.3
121 2
123 2.02
129 1.66
147 3.19
148 33.52
149 54.34
150 16.59
151 18.9
152 1.97
157 1.17
177 4.44
178 1.07
179 1.54
183 7.72
185 5.01
192 1.87
211 1.79
212 99.99
213 14.32
214 68.46
215 8.98
216 13.02
217 1.48

$$$$

     RDKit          2D

 12 12  0  0  1  0  0  0  0  0999 V2000
   -1.6200   -1.3100    0.0000 C   0  0  0  0  0  0  0  0  0  0  0  0
   -0.3300   -2.0600    0.0000 C   0  0  0  0  0  0  0  0  0  0  0  0
   -1.6200    0.1900    0.0000 C   0  0  0  0  0  0  0  0  0  0  0  0
    0.9700   -1.3100    0.0000 C   0  0  0  0  0  0  0  0  0  0  0  0
   -0.3300    0.9400    0.0000 C   0  0  0  0  0  0  0  0  0  0  0  0
    0.9700    0.1900    0.0000 C   0  0  0  0  0  0  0  0  0  0  0  0
   -0.3325    2.4400    0.0000 C   0  0  0  0  0  0  0  0  0  0  0  0
    2.2689    0.9402    0.0000 C   0  0  0  0  0  0  0  0  0  0  0  0
    0.9653    3.1922    0.0000 O   0  0  0  0  0  0  0  0  0  0  0  0
   -1.6328    3.1878    0.0000 O   0  0  0  0  0  0  0  0  0  0  0  0
    2.2687    2.4402    0.0000 O   0  0  0  0  0  0  0  0  0  0  0  0
    3.5681    0.1904    0.0000 O   0  0  0  0  0  0  0  0  0  0  0  0
  2  1  1  0
  3  1  1  0
  4  2  1  0
  5  3  1  0
  6  4  1  0
  6  5  1  0
  5  7  1  1
  6  8  1  6
  9  7  2  0
 10  7  1  0
 11  8  2  0
 12  8  1  0
M  END
>  <NAME>  (1777) 
TRANS-1,2-CYCLOHEXANEDICARBOXYLIC ACID

>  <SYNONYMS>  (1777) 


>  <SPECTRUM TYPE>  (1777) 
MS1

>  <INSTRUMENT TYPE>  (1777) 
EI-B

>  <INSTRUMENT>  (1777) 
JEOL JMS-AX-505-H

>  <ION MODE>  (1777) 
P

>  <INCHIKEY>  (1777) 
QSAWQNUELGIYBC-PHDIDXHHSA-N

>  <FORMULA>  (1777) 
C8H12O4

>  <EXACT MASS>  (1777) 
172.073558864

>  <MW>  (1777) 
172

>  <ID>  (1777) 
JP009566

>  <CONTRIBUTOR>  (1777) 
University of Tokyo Team, {Faculty of Engineering, University of Tokyo

>  <COMMENT>  (1777) 
SMILES=OC(=O)C(C1)C(CCC1)C(O)=O
InChI=InChI=1S/C8H12O4/c9-7(10)5-3-1-2-4-6(5)8(11)12/h5-6H,1-4H2,(H,9,10)(H,11,12)/t5-,6-/m1/s1
computed SMILES=O=C(O)C1CCCCC1C(=O)O
accession=JP009566
date=2016.01.19 (Created 2008.10.21, modified 2011.05.06)
author=HAMAMATSU UNIV. SCHOOL OF MEDICINE
license=CC BY-NC-SA
exact mass=172.07356
ionization energy=70 eV
ion type=[M]+*
computed spectral entropy=3.6636076119298178
computed normalized entropy=0.8652610906107316
SPLASH=splash10-003r-9200000000-9bc803e7923fc5d3ee8e
submitter=submitter = University of Tokyo Team (Faculty of Engineering, University of Tokyo)
MoNA Rating=3.75

>  <NUM PEAKS>  (1777) 
69

>  <MASS SPECTRAL PEAKS>  (1777) 
26 2.56
27 21.19
28 5.35
29 11.26
31 2.84
37 1.63
38 3.72
39 34.98
40 6.9
41 44.55
42 5.08
43 19.67
44 1.13
45 15.21
47 1.77
50 2.12
51 5.54
52 3.19
53 17.31
54 18.34
55 22.64
56 11.5
57 6.57
58 1.42
59 1.26
60 9.83
61 5.57
65 3.1
66 6.92
67 34.08
68 21.28
69 15.36
70 2.33
71 3.91
72 1.02
73 23.42
74 2.38
77 7.21
78 1.8
79 19.2
80 23.94
81 99.99
82 27.05
83 8.78
84 2
85 3.47
86 20.09
87 5.85
94 1.54
95 3.47
97 6.85
98 2.14
99 22.71
100 4.07
107 1.25
108 23.77
109 11.93
110 6.12
111 4.12
112 3.42
113 2.38
125 2.19
126 44.62
127 9.66
128 61.77
129 5.88
136 2.41
154 16.83
155 3.19

$$$$

     RDKit          2D

 14 14  0  0  0  0  0  0  0  0999 V2000
   -1.7792   -1.1452    0.0000 C   0  0  0  0  0  0  0  0  0  0  0  0
   -0.1554   -2.3260    0.0000 C   0  0  0  0  0  0  0  0  0  0  0  0
   -1.5265    1.8822    0.0000 C   0  0  0  0  0  0  0  0  0  0  0  0
    1.6482    0.5858    0.0000 C   0  0  0  0  0  0  0  0  0  0  0  0
    0.4382    1.4758    0.0000 C   0  0  0  0  0  0  0  0  0  0  0  0
    1.1882   -0.8342    0.0000 C   0  0  0  0  0  0  0  0  0  0  0  0
    2.0704   -2.0473    0.0000 C   0  0  0  0  0  0  0  0  0  0  0  0
   -2.5795   -0.2220    0.0000 C   0  0  0  0  0  0  0  0  0  0  0  0
   -0.3118   -0.8342    0.0000 C   0  0  0  0  0  0  0  0  0  0  0  0
   -0.7718    0.5858    0.0000 C   0  0  0  0  0  0  0  0  0  0  0  0
    1.4609   -3.4179    0.0000 O   0  0  0  0  0  0  0  0  0  0  0  0
    3.5622   -1.8899    0.0000 O   0  0  0  0  0  0  0  0  0  0  0  0
   -2.7342   -1.7140    0.0000 O   0  0  0  0  0  0  0  0  0  0  0  0
   -3.7942    0.6580    0.0000 O   0  0  0  0  0  0  0  0  0  0  0  0
  5  4  1  0
  6  4  1  0
  7  6  1  0
  9  1  1  0
  9  2  1  0
  9  6  1  0
 10  3  1  0
 10  5  1  0
 10  8  1  0
 10  9  1  0
 11  7  2  0
 12  7  1  0
 13  8  2  0
 14  8  1  0
M  END
>  <NAME>  (1778) 
1,2,2-TRIMETHYL-1,3-CYCLOPENTANEDICARBOXYLIC ACID

>  <SYNONYMS>  (1778) 


>  <SPECTRUM TYPE>  (1778) 
MS1

>  <INSTRUMENT TYPE>  (1778) 
EI-B

>  <INSTRUMENT>  (1778) 
JEOL JMS-AX-505-H

>  <ION MODE>  (1778) 
P

>  <INCHIKEY>  (1778) 
LSPHULWDVZXLIL-UHFFFAOYSA-N

>  <FORMULA>  (1778) 
C10H16O4

>  <EXACT MASS>  (1778) 
200.104858992

>  <MW>  (1778) 
200

>  <ID>  (1778) 
JP009565

>  <CONTRIBUTOR>  (1778) 
University of Tokyo Team, {Faculty of Engineering, University of Tokyo

>  <COMMENT>  (1778) 
SMILES=OC(=O)C(C1)C(C)(C)C(C)(C(O)=O)C1
InChI=InChI=1S/C10H16O4/c1-9(2)6(7(11)12)4-5-10(9,3)8(13)14/h6H,4-5H2,1-3H3,(H,11,12)(H,13,14)
computed SMILES=O=C(O)C1CCC(C(=O)O)(C)C1(C)C
accession=JP009565
date=2016.01.19 (Created 2008.10.21, modified 2011.05.06)
author=HAMAMATSU UNIV. SCHOOL OF MEDICINE
license=CC BY-NC-SA
exact mass=200.10486
ionization energy=70 eV
ion type=[M]+*
computed spectral entropy=3.9600364255801503
computed normalized entropy=0.8656364181668318
SPLASH=splash10-0ap0-9500000000-2870c01c3ad0bda7f8b6
submitter=submitter = University of Tokyo Team (Faculty of Engineering, University of Tokyo)
MoNA Rating=3.75

>  <NUM PEAKS>  (1778) 
97

>  <MASS SPECTRAL PEAKS>  (1778) 
26 1.45
27 25.96
28 6.25
29 20.6
30 1.68
31 19.97
32 12.11
38 1.59
39 36.17
40 7.91
41 75.12
42 8.08
43 27.18
44 1.69
45 15.45
46 1.02
50 1.68
51 6.22
52 3.06
53 22.19
54 8.92
55 42.44
56 7.13
57 5.71
58 1.86
59 28.23
60 1.9
63 1.85
65 7.13
66 2.98
67 36.83
68 70.83
69 46.19
70 12.25
71 5.22
72 1.13
73 8.7
74 1.92
77 10.18
78 2.22
79 9.74
80 2.92
81 12.63
82 28.63
83 22.38
84 4.07
85 7.04
86 4.03
87 21.56
88 1.61
91 7.37
92 1.3
93 20.59
94 5.59
95 31.94
96 36.43
97 7.79
98 4.27
99 12.68
100 7.94
101 4.96
105 1.19
107 5.06
108 46.02
109 71.92
110 9.97
111 15.44
112 5.66
113 11.39
114 15.58
115 2.83
121 9.59
122 2.99
123 2.29
124 2.93
125 5.3
126 3.48
127 1.42
128 1.09
135 2.54
136 99.99
137 22.21
138 5.19
139 20.74
140 11.21
141 1.63
142 1.09
149 3.56
154 69.5
155 11.54
156 1.6
164 49.85
165 6.4
167 2.55
172 1.51
182 14.71
183 3.59

$$$$

     RDKit          2D

 25 29  0  0  0  0  0  0  0  0999 V2000
   -4.3724    4.2906    0.0000 C   0  0  0  0  0  0  0  0  0  0  0  0
   -4.8360    2.8640    0.0000 C   0  0  0  0  0  0  0  0  0  0  0  0
   -2.9052    4.6025    0.0000 C   0  0  0  0  0  0  0  0  0  0  0  0
   -3.8323    1.7493    0.0000 C   0  0  0  0  0  0  0  0  0  0  0  0
   -5.0486    0.4295    0.0000 C   0  0  0  0  0  0  0  0  0  0  0  0
    2.7456    0.4295    0.0000 C   0  0  0  0  0  0  0  0  0  0  0  0
   -3.7496    1.1795    0.0000 C   0  0  0  0  0  0  0  0  0  0  0  0
    1.4466    1.1795    0.0000 C   0  0  0  0  0  0  0  0  0  0  0  0
   -3.7496   -1.8205    0.0000 C   0  0  0  0  0  0  0  0  0  0  0  0
    1.4466   -1.8205    0.0000 C   0  0  0  0  0  0  0  0  0  0  0  0
   -5.0486   -1.0705    0.0000 C   0  0  0  0  0  0  0  0  0  0  0  0
    2.7456   -1.0705    0.0000 C   0  0  0  0  0  0  0  0  0  0  0  0
   -1.9015    3.4877    0.0000 C   0  0  0  0  0  0  0  0  0  0  0  0
   -2.3650    2.0612    0.0000 C   0  0  0  0  0  0  0  0  0  0  0  0
   -2.4506    0.4295    0.0000 C   0  0  0  0  0  0  0  0  0  0  0  0
    0.1475    0.4295    0.0000 C   0  0  0  0  0  0  0  0  0  0  0  0
   -2.4506   -1.0705    0.0000 C   0  0  0  0  0  0  0  0  0  0  0  0
    0.1475   -1.0705    0.0000 C   0  0  0  0  0  0  0  0  0  0  0  0
   -0.4015    3.4877    0.0000 C   0  0  0  0  0  0  0  0  0  0  0  0
   -1.1515    1.1795    0.0000 C   0  0  0  0  0  0  0  0  0  0  0  0
   -6.3477   -1.8205    0.0000 O   0  0  0  0  0  0  0  0  0  0  0  0
    4.0446   -1.8205    0.0000 O   0  0  0  0  0  0  0  0  0  0  0  0
    0.4802    4.7013    0.0000 O   0  0  0  0  0  0  0  0  0  0  0  0
   -1.1515   -1.8205    0.0000 O   0  0  0  0  0  0  0  0  0  0  0  0
    0.0620    2.0612    0.0000 O   0  0  0  0  0  0  0  0  0  0  0  0
  2  1  2  0
  3  1  1  0
  4  2  1  0
  7  5  2  0
  8  6  1  0
 11  5  1  0
 11  9  2  0
 12  6  2  0
 12 10  1  0
 13  3  2  0
 14  4  2  0
 14 13  1  0
 15  7  1  0
 16  8  2  0
 17  9  1  0
 17 15  2  0
 18 10  2  0
 18 16  1  0
 19 13  1  0
 20 14  1  0
 20 15  1  0
 20 16  1  0
 21 11  1  0
 22 12  1  0
 23 19  2  0
 24 17  1  0
 24 18  1  0
 25 19  1  0
 25 20  1  0
M  END
>  <NAME>  (1779) 
FLUORESCEIN

>  <SYNONYMS>  (1779) 
3',6'-DIHYDROXYSPIRO(ISOBENZOFURAN-1(3H),9'-(9H)XANTHEN)-3-ONE

>  <SPECTRUM TYPE>  (1779) 
MS1

>  <INSTRUMENT TYPE>  (1779) 
EI-B

>  <INSTRUMENT>  (1779) 
HITACHI M-80

>  <ION MODE>  (1779) 
P

>  <INCHIKEY>  (1779) 
GNBHRKFJIUUOQI-UHFFFAOYSA-N

>  <FORMULA>  (1779) 
C20H12O5

>  <EXACT MASS>  (1779) 
332.068473484

>  <MW>  (1779) 
332

>  <ID>  (1779) 
JP009560

>  <CONTRIBUTOR>  (1779) 
University of Tokyo Team, {Faculty of Engineering, University of Tokyo

>  <COMMENT>  (1779) 
SMILES=Oc(c5)cc(O1)c(c5)C(O3)(c(c4)c(ccc4)C(=O)3)c(c2)c(cc(O)c2)1
cas=2321-07-5
InChI=InChI=1S/C20H12O5/c21-11-5-7-15-17(9-11)24-18-10-12(22)6-8-16(18)20(15)14-4-2-1-3-13(14)19(23)25-20/h1-10,21-22H
computed SMILES=O=C1OC2(C3=CC=C(O)C=C3OC4=CC(O)=CC=C42)C=5C=CC=CC15
accession=JP009560
date=2016.01.19 (Created 2008.10.21, modified 2011.05.06)
author=NARA WOMEN'S UNIVERSITY
license=CC BY-NC-SA
exact mass=332.06847
ionization energy=70 eV
ion type=[M]+*
computed spectral entropy=3.5184803179182746
computed normalized entropy=0.7726340438425077
SPLASH=splash10-000i-2290000000-eaff9e9aba714ba94d70
submitter=submitter = University of Tokyo Team (Faculty of Engineering, University of Tokyo)
MoNA Rating=3.75

>  <NUM PEAKS>  (1779) 
95

>  <MASS SPECTRAL PEAKS>  (1779) 
39 3.15
41 2.34
43 3.9
44 2.62
50 3.23
51 2.94
52 1.28
53 2.5
55 2.74
62 1.42
63 4.01
65 1.36
67 1.16
69 3.71
71 2.63
74 1.99
75 3.49
76 6.79
77 2.73
79 1.54
81 2.23
86 1.1
87 1.85
88 3.44
89 1.44
91 1.2
93 2.04
94 1.36
95 1.26
100 2.76
101 4.98
104 4.03
105 1.62
106 1.01
107 2.61
108 1.31
109 1.27
110 1.14
113 1.11
115 2.41
121 2.31
126 1.23
127 1.26
128 1.02
129 2.65
135 4.68
136 2.03
137 2.79
138 4.09
139 3.35
144 7.75
149 1.24
150 2.27
151 1.96
152 2.88
163 2.45
170 1.04
174 1.41
175 2.05
176 4
177 1.03
186 1.37
187 2.98
188 1.65
189 4.6
190 1.1
198 1.07
199 1.22
200 6.25
201 4.86
202 13.51
203 2.83
205 1.26
211 1.22
212 1.2
213 5.3
214 1.28
229 2.94
231 2.23
240 1.17
242 1.49
258 8.09
259 4.58
260 1.09
271 32.54
272 6.83
273 1.35
287 99.99
288 69.68
289 13.13
290 1.74
303 2.28
331 1.39
332 3.28
333 1

$$$$

     RDKit          2D

 16 16  0  0  0  0  0  0  0  0999 V2000
   -3.3491   -0.2013    0.0000 C   0  0  0  0  0  0  0  0  0  0  0  0
   -3.8978   -2.2504    0.0000 C   0  0  0  0  0  0  0  0  0  0  0  0
   -1.8487   -2.7991    0.0000 C   0  0  0  0  0  0  0  0  0  0  0  0
    1.8487   -2.7991    0.0000 C   0  0  0  0  0  0  0  0  0  0  0  0
    3.8978   -2.2504    0.0000 C   0  0  0  0  0  0  0  0  0  0  0  0
    3.3491   -0.2013    0.0000 C   0  0  0  0  0  0  0  0  0  0  0  0
   -1.3000    0.7500    0.0000 C   0  0  0  0  0  0  0  0  0  0  0  0
    1.3000    0.7500    0.0000 C   0  0  0  0  0  0  0  0  0  0  0  0
    0.0000    1.5000    0.0000 C   0  0  0  0  0  0  0  0  0  0  0  0
   -1.3000   -0.7500    0.0000 C   0  0  0  0  0  0  0  0  0  0  0  0
    1.3000   -0.7500    0.0000 C   0  0  0  0  0  0  0  0  0  0  0  0
    0.0000   -1.5000    0.0000 C   0  0  0  0  0  0  0  0  0  0  0  0
   -2.5989   -1.5002    0.0000 C   0  0  0  0  0  0  0  0  0  0  0  0
    2.5989   -1.5002    0.0000 C   0  0  0  0  0  0  0  0  0  0  0  0
    0.0000    3.0000    0.0000 O   0  0  0  0  0  0  0  0  0  0  0  0
   -0.0000   -3.0000    0.0000 O   0  0  0  0  0  0  0  0  0  0  0  0
  9  7  1  0
  9  8  1  0
 10  7  2  0
 11  8  2  0
 12 10  1  0
 12 11  1  0
 13  1  1  0
 13  2  1  0
 13  3  1  0
 13 10  1  0
 14  4  1  0
 14  5  1  0
 14  6  1  0
 14 11  1  0
 15  9  2  0
 16 12  2  0
M  END
>  <NAME>  (1780) 
2,6-DI-TERT-BUTYL-1,4-BENZOQUINONE

>  <SYNONYMS>  (1780) 


>  <SPECTRUM TYPE>  (1780) 
MS1

>  <INSTRUMENT TYPE>  (1780) 
EI-B

>  <INSTRUMENT>  (1780) 
HITACHI M-80

>  <ION MODE>  (1780) 
P

>  <INCHIKEY>  (1780) 
RDQSIADLBQFVMY-UHFFFAOYSA-N

>  <FORMULA>  (1780) 
C14H20O2

>  <EXACT MASS>  (1780) 
220.14632988

>  <MW>  (1780) 
220

>  <ID>  (1780) 
JP009558

>  <CONTRIBUTOR>  (1780) 
University of Tokyo Team, {Faculty of Engineering, University of Tokyo

>  <COMMENT>  (1780) 
SMILES=O=c(c1)cc(C(C)(C)C)c(=O)c1C(C)(C)C
cas=719-22-2
InChI=InChI=1S/C14H20O2/c1-13(2,3)10-7-9(15)8-11(12(10)16)14(4,5)6/h7-8H,1-6H3
computed SMILES=O=C1C=C(C(=O)C(=C1)C(C)(C)C)C(C)(C)C
accession=JP009558
date=2016.01.19 (Created 2008.10.21, modified 2011.05.06)
author=NARA WOMEN'S UNIVERSITY
license=CC BY-NC-SA
exact mass=220.14633
ionization energy=70 eV
ion type=[M]+*
computed spectral entropy=3.989178523437921
computed normalized entropy=0.864371473915105
SPLASH=splash10-00b9-8920000000-ebc9402c163c4b9965f3
submitter=submitter = University of Tokyo Team (Faculty of Engineering, University of Tokyo)
MoNA Rating=3.75

>  <NUM PEAKS>  (1780) 
101

>  <MASS SPECTRAL PEAKS>  (1780) 
15 3.29
17 2.55
18 11.82
27 6.37
28 27.66
29 16.87
32 5.89
39 14.82
40 3.58
41 48.55
42 3.28
43 16.96
50 1.13
51 5.43
52 3.15
53 11.53
54 2.78
55 10.03
56 2.58
57 26.94
58 1.27
63 1.86
65 10.85
66 5.35
67 41.09
68 3.37
69 5.22
77 12.15
78 3.24
79 11.67
80 2.35
81 9.29
82 2.96
83 2.54
91 21.83
92 3.47
93 8.49
94 2.67
95 16.73
96 1.99
103 3.11
104 1.5
105 11.35
106 2.21
107 12.82
108 3.85
109 7.62
110 6.07
111 1.99
115 3.51
116 1.4
117 4.9
118 1.59
119 11.87
120 2.43
121 14.26
122 4.21
123 6.19
124 1.43
128 1.71
129 2.22
131 3.66
132 1.13
133 6.88
134 4.26
135 37.25
136 19.95
137 4.93
138 3.41
143 1.09
144 3.25
145 2.74
146 1.63
147 5.24
148 1.81
149 26.99
150 7.53
151 1.85
159 9.66
160 1.64
161 4.74
162 5.92
163 23.75
164 8.89
165 3.53
175 1.58
176 1.8
177 99.99
178 14.65
179 2.17
187 3.16
190 1.06
191 3.56
192 13.34
193 2.15
205 26.43
206 4.07
207 3.11
220 64.68
221 10.65
222 2.56

$$$$

     RDKit          2D

  9  9  0  0  0  0  0  0  0  0999 V2000
    0.6396    2.6142    0.0000 C   0  0  0  0  0  0  0  0  0  0  0  0
   -0.6740    0.3893    0.0000 C   0  0  0  0  0  0  0  0  0  0  0  0
    1.9241    1.8893    0.0000 C   0  0  0  0  0  0  0  0  0  0  0  0
    0.6506   -0.4048    0.0000 C   0  0  0  0  0  0  0  0  0  0  0  0
   -1.9548    2.6206    0.0000 C   0  0  0  0  0  0  0  0  0  0  0  0
   -0.6594    1.8642    0.0000 C   0  0  0  0  0  0  0  0  0  0  0  0
    1.9496    0.3452    0.0000 C   0  0  0  0  0  0  0  0  0  0  0  0
   -3.2575    1.8770    0.0000 O   0  0  0  0  0  0  0  0  0  0  0  0
    3.2548   -0.3941    0.0000 O   0  0  0  0  0  0  0  0  0  0  0  0
  3  1  2  0
  4  2  1  0
  6  1  1  0
  6  2  2  0
  6  5  1  0
  7  3  1  0
  7  4  2  0
  8  5  2  0
  9  7  1  0
M  END
>  <NAME>  (1781) 
4-HYDROXYBENZALDEHYDE

>  <SYNONYMS>  (1781) 


>  <SPECTRUM TYPE>  (1781) 
MS1

>  <INSTRUMENT TYPE>  (1781) 
EI-B

>  <INSTRUMENT>  (1781) 
HITACHI M-80

>  <ION MODE>  (1781) 
P

>  <INCHIKEY>  (1781) 
RGHHSNMVTDWUBI-UHFFFAOYSA-N

>  <FORMULA>  (1781) 
C7H6O2

>  <EXACT MASS>  (1781) 
122.036779432

>  <MW>  (1781) 
122

>  <ID>  (1781) 
JP009557

>  <CONTRIBUTOR>  (1781) 
University of Tokyo Team, {Faculty of Engineering, University of Tokyo

>  <COMMENT>  (1781) 
SMILES=O=Cc(c1)ccc(O)c1
cas=123-08-0
InChI=InChI=1S/C7H6O2/c8-5-6-1-3-7(9)4-2-6/h1-5,9H
computed SMILES=O=CC1=CC=C(O)C=C1
accession=JP009557
date=2016.01.19 (Created 2008.10.21, modified 2011.05.06)
author=NARA WOMEN'S UNIVERSITY
license=CC BY-NC-SA
exact mass=122.03678
ionization energy=70 eV
ion type=[M]+*
computed spectral entropy=2.3886638332932595
computed normalized entropy=0.7168419063113465
SPLASH=splash10-00di-8900000000-60621d4d9871b2d7587d
submitter=submitter = University of Tokyo Team (Faculty of Engineering, University of Tokyo)
MoNA Rating=3.75

>  <NUM PEAKS>  (1781) 
28

>  <MASS SPECTRAL PEAKS>  (1781) 
18 1.26
27 1.78
28 5.46
29 5.29
32 1.1
37 1.94
38 5.93
39 31.11
40 3.52
47 1.09
50 4.4
51 4.2
53 4.85
55 2.05
61 1.56
62 4.14
63 10.79
64 4.56
65 39.99
66 7.47
74 2.01
75 1.59
92 2.68
93 32.98
94 6.08
121 99.99
122 90.64
123 10.85

$$$$

     RDKit          2D

 13 12  0  0  0  0  0  0  0  0999 V2000
    3.2476    5.6250    0.0000 C   0  0  0  0  0  0  0  0  0  0  0  0
    1.9486    6.3750    0.0000 C   0  0  0  0  0  0  0  0  0  0  0  0
   -4.5466    5.6250    0.0000 C   0  0  0  0  0  0  0  0  0  0  0  0
   -5.8457    6.3750    0.0000 C   0  0  0  0  0  0  0  0  0  0  0  0
   -3.2476    6.3750    0.0000 C   0  0  0  0  0  0  0  0  0  0  0  0
   -7.1447    5.6250    0.0000 C   0  0  0  0  0  0  0  0  0  0  0  0
   -1.9486    5.6250    0.0000 C   0  0  0  0  0  0  0  0  0  0  0  0
   -8.4437    6.3750    0.0000 C   0  0  0  0  0  0  0  0  0  0  0  0
   -0.6495    6.3750    0.0000 C   0  0  0  0  0  0  0  0  0  0  0  0
   -8.4437    7.8750    0.0000 O   0  0  0  0  0  0  0  0  0  0  0  0
   -9.7428    5.6250    0.0000 O   0  0  0  0  0  0  0  0  0  0  0  0
   -0.6495    7.8750    0.0000 O   0  0  0  0  0  0  0  0  0  0  0  0
    0.6495    5.6250    0.0000 O   0  0  0  0  0  0  0  0  0  0  0  0
  2  1  1  0
  4  3  1  0
  5  3  1  0
  6  4  1  0
  7  5  1  0
  8  6  1  0
  9  7  1  0
 10  8  2  0
 11  8  1  0
 12  9  2  0
 13  2  1  0
 13  9  1  0
M  END
>  <NAME>  (1782) 
PIMELIC ACID MONOETHYL ESTER

>  <SYNONYMS>  (1782) 


>  <SPECTRUM TYPE>  (1782) 
MS1

>  <INSTRUMENT TYPE>  (1782) 
EI-B

>  <INSTRUMENT>  (1782) 
HITACHI M-80

>  <ION MODE>  (1782) 
P

>  <INCHIKEY>  (1782) 
NQYXFXWKKYGBNL-UHFFFAOYSA-N

>  <FORMULA>  (1782) 
C9H16O4

>  <EXACT MASS>  (1782) 
188.104858992

>  <MW>  (1782) 
188

>  <ID>  (1782) 
JP009555

>  <CONTRIBUTOR>  (1782) 
University of Tokyo Team, {Faculty of Engineering, University of Tokyo

>  <COMMENT>  (1782) 
SMILES=CCOC(=O)CCCCCC(O)=O
InChI=InChI=1S/C9H16O4/c1-2-13-9(12)7-5-3-4-6-8(10)11/h2-7H2,1H3,(H,10,11)
computed SMILES=O=C(O)CCCCCC(=O)OCC
accession=JP009555
date=2016.01.19 (Created 2008.10.21, modified 2011.05.06)
author=NARA WOMEN'S UNIVERSITY
license=CC BY-NC-SA
exact mass=188.10486
ionization energy=70 eV
ion type=[M]+*
computed spectral entropy=3.6659534741269253
computed normalized entropy=0.8544431020528865
SPLASH=splash10-004u-9400000000-f894a6262a37dd576edb
submitter=submitter = University of Tokyo Team (Faculty of Engineering, University of Tokyo)
MoNA Rating=3.75

>  <NUM PEAKS>  (1782) 
73

>  <MASS SPECTRAL PEAKS>  (1782) 
15 1.25
18 3.81
26 2.05
27 20.41
28 14.74
29 49.47
30 1.75
31 4.22
32 1.52
39 9.6
40 2.25
41 29.68
42 16.19
43 20.99
44 2.23
45 24.86
53 2.97
54 4.19
55 54.85
56 5.89
57 4.19
58 1.75
59 5.82
60 50.32
61 26.87
67 4.66
68 18.36
69 59.79
70 28.6
71 8.6
72 1.04
73 47.41
74 4.61
79 1.37
80 2.24
81 1.8
82 2.31
83 33.51
84 2.27
85 1.43
86 6.15
87 6.45
88 99.99
89 8.17
95 1.95
96 11.61
97 37.4
98 13.93
99 4.16
100 2.24
101 30.26
102 2.57
113 3.19
114 35.71
115 9.66
116 4.91
123 1.49
124 31.2
125 51.62
126 9.43
127 2.19
128 4.28
129 47.79
130 3.84
141 2.55
142 34.18
143 85.61
144 7.15
145 1.01
170 10.57
171 32.14
189 11.74
190 1.18

$$$$

     RDKit          2D

 21 20  0  0  0  0  0  0  0  0999 V2000
  -19.4856   11.2500    0.0000 C   0  0  0  0  0  0  0  0  0  0  0  0
    6.4952   11.2500    0.0000 C   0  0  0  0  0  0  0  0  0  0  0  0
  -18.1865   10.5000    0.0000 C   0  0  0  0  0  0  0  0  0  0  0  0
    5.1962   10.5000    0.0000 C   0  0  0  0  0  0  0  0  0  0  0  0
  -16.8875   11.2500    0.0000 C   0  0  0  0  0  0  0  0  0  0  0  0
    3.8971   11.2500    0.0000 C   0  0  0  0  0  0  0  0  0  0  0  0
  -15.5885   10.5000    0.0000 C   0  0  0  0  0  0  0  0  0  0  0  0
    2.5981   10.5000    0.0000 C   0  0  0  0  0  0  0  0  0  0  0  0
  -14.2894   11.2500    0.0000 C   0  0  0  0  0  0  0  0  0  0  0  0
    1.2990   11.2500    0.0000 C   0  0  0  0  0  0  0  0  0  0  0  0
  -12.9904   10.5000    0.0000 C   0  0  0  0  0  0  0  0  0  0  0  0
    0.0000   10.5000    0.0000 C   0  0  0  0  0  0  0  0  0  0  0  0
  -11.6913   11.2500    0.0000 C   0  0  0  0  0  0  0  0  0  0  0  0
   -1.2990   11.2500    0.0000 C   0  0  0  0  0  0  0  0  0  0  0  0
  -10.3923   10.5000    0.0000 C   0  0  0  0  0  0  0  0  0  0  0  0
   -2.5981   10.5000    0.0000 C   0  0  0  0  0  0  0  0  0  0  0  0
   -9.0933   11.2500    0.0000 C   0  0  0  0  0  0  0  0  0  0  0  0
   -3.8971   11.2500    0.0000 C   0  0  0  0  0  0  0  0  0  0  0  0
   -7.7942   10.5000    0.0000 C   0  0  0  0  0  0  0  0  0  0  0  0
   -5.1962   10.5000    0.0000 C   0  0  0  0  0  0  0  0  0  0  0  0
   -6.4952   11.2500    0.0000 C   0  0  0  0  0  0  0  0  0  0  0  0
  3  1  1  0
  4  2  1  0
  5  3  1  0
  6  4  1  0
  7  5  1  0
  8  6  1  0
  9  7  1  0
 10  8  1  0
 11  9  1  0
 12 10  1  0
 13 11  1  0
 14 12  1  0
 15 13  1  0
 16 14  1  0
 17 15  1  0
 18 16  1  0
 19 17  1  0
 20 18  1  0
 21 19  1  0
 21 20  1  0
M  END
>  <NAME>  (1783) 
HENEICOSANE

>  <SYNONYMS>  (1783) 


>  <SPECTRUM TYPE>  (1783) 
MS1

>  <INSTRUMENT TYPE>  (1783) 
EI-B

>  <INSTRUMENT>  (1783) 
HITACHI M-80

>  <ION MODE>  (1783) 
P

>  <INCHIKEY>  (1783) 
FNAZRRHPUDJQCJ-UHFFFAOYSA-N

>  <FORMULA>  (1783) 
C21H44

>  <EXACT MASS>  (1783) 
296.344301408

>  <MW>  (1783) 
296

>  <ID>  (1783) 
JP009554

>  <CONTRIBUTOR>  (1783) 
University of Tokyo Team, {Faculty of Engineering, University of Tokyo

>  <COMMENT>  (1783) 
SMILES=CCCCCCCCCCCCCCCCCCCCC
cas=629-94-7
InChI=InChI=1S/C21H44/c1-3-5-7-9-11-13-15-17-19-21-20-18-16-14-12-10-8-6-4-2/h3-21H2,1-2H3
computed SMILES=CCCCCCCCCCCCCCCCCCCCC
accession=JP009554
date=2016.01.19 (Created 2008.10.21, modified 2011.05.06)
author=NARA WOMEN'S UNIVERSITY
license=CC BY-NC-SA
exact mass=296.3443
ionization energy=70 eV
ion type=[M]+*
computed spectral entropy=3.3027233974101464
computed normalized entropy=0.7941371111452613
SPLASH=splash10-0a4l-9100000000-2bc507df938a82e990b1
submitter=submitter = University of Tokyo Team (Faculty of Engineering, University of Tokyo)
MoNA Rating=3.75

>  <NUM PEAKS>  (1783) 
64

>  <MASS SPECTRAL PEAKS>  (1783) 
14 1.04
18 1.94
26 1.47
27 11.56
28 10.51
29 25.76
32 1.94
39 8.41
40 2.14
41 48.31
42 14.14
43 95.34
44 3.31
53 2.61
54 3.48
55 30.06
56 17.04
57 99.99
58 4.5
67 4.28
68 3.06
69 16.21
70 12.39
71 64.53
72 3.66
74 1.37
81 2.08
82 3.56
83 11.71
84 8.43
85 47.67
86 3.22
87 1
95 1.04
96 1.95
97 8.44
98 5.84
99 15.03
100 1.21
110 1.31
111 4.51
112 4.93
113 10.72
125 2.2
126 4.07
127 8.28
140 3.59
141 6.78
154 2.95
155 5.65
168 2.57
169 4.81
182 2.17
183 4.28
196 1.74
197 3.85
210 1.42
211 3.41
224 1.14
225 3.04
239 2.76
253 1.64
296 10.09
297 2.37

$$$$

     RDKit          2D

 13 14  0  0  0  0  0  0  0  0999 V2000
   -2.4300    0.3800    0.0000 C   0  0  0  0  0  0  0  0  0  0  0  0
   -1.8200   -0.9900    0.0000 C   0  0  0  0  0  0  0  0  0  0  0  0
    3.1950    0.4796    0.0000 C   0  0  0  0  0  0  0  0  0  0  0  0
    4.5643   -0.1328    0.0000 C   0  0  0  0  0  0  0  0  0  0  0  0
   -0.0600    1.4400    0.0000 C   0  0  0  0  0  0  0  0  0  0  0  0
    1.9800   -1.9000    0.0000 C   0  0  0  0  0  0  0  0  0  0  0  0
    1.9800   -0.4000    0.0000 C   0  0  0  0  0  0  0  0  0  0  0  0
   -1.5500    1.5900    0.0000 C   0  0  0  0  0  0  0  0  0  0  0  0
    0.5500    0.0700    0.0000 C   0  0  0  0  0  0  0  0  0  0  0  0
   -0.3300   -1.1500    0.0000 C   0  0  0  0  0  0  0  0  0  0  0  0
    5.7793    0.7468    0.0000 N   0  0  0  0  0  0  0  0  0  0  0  0
    0.5500   -2.3600    0.0000 N   0  0  0  0  0  0  0  0  0  0  0  0
   -2.1628    2.9591    0.0000 O   0  0  0  0  0  0  0  0  0  0  0  0
  2  1  2  0
  4  3  1  0
  7  3  1  0
  7  6  2  0
  8  1  1  0
  8  5  2  0
  9  5  1  0
  9  7  1  0
 10  2  1  0
 10  9  2  0
 11  4  1  0
 12  6  1  0
 12 10  1  0
 13  8  1  0
M  END
>  <NAME>  (1784) 
3-(2-AMINOETHYL)-1H-INDOL-5-OL

>  <SYNONYMS>  (1784) 


>  <SPECTRUM TYPE>  (1784) 
MS1

>  <INSTRUMENT TYPE>  (1784) 
EI-B

>  <INSTRUMENT>  (1784) 
HITACHI M-80

>  <ION MODE>  (1784) 
P

>  <INCHIKEY>  (1784) 
QZAYGJVTTNCVMB-UHFFFAOYSA-N

>  <FORMULA>  (1784) 
C10H12N2O

>  <EXACT MASS>  (1784) 
176.094963004

>  <MW>  (1784) 
176

>  <ID>  (1784) 
JP009553

>  <CONTRIBUTOR>  (1784) 
University of Tokyo Team, {Faculty of Engineering, University of Tokyo

>  <COMMENT>  (1784) 
SMILES=C1=CC2=C(C=C1O)C(=CN2)CCN
cas=50-67-9
InChI=InChI=1S/C10H12N2O/c11-4-3-7-6-12-10-2-1-8(13)5-9(7)10/h1-2,5-6,12-13H,3-4,11H2
computed SMILES=OC=1C=CC=2NC=C(C2C1)CCN
accession=JP009553
date=2016.01.19 (Created 2008.10.21, modified 2011.05.06)
author=NARA WOMEN'S UNIVERSITY
license=CC BY-NC-SA
exact mass=176.09496
ionization energy=70 eV
ion type=[M]+*
computed spectral entropy=2.946650590111581
computed normalized entropy=0.7457526794043181
SPLASH=splash10-0002-9800000000-9ce9fb2286c3b7ea7719
submitter=submitter = University of Tokyo Team (Faculty of Engineering, University of Tokyo)
MoNA Rating=3.75

>  <NUM PEAKS>  (1784) 
52

>  <MASS SPECTRAL PEAKS>  (1784) 
15 1.73
16 1.23
17 3.9
18 4.45
27 1.55
28 7.14
29 7.29
30 18.5
31 11.35
32 4.17
39 1.54
41 1.95
42 1.47
43 3.75
44 5.39
45 53.79
46 1.05
47 1.07
50 9.77
51 20.6
55 1.11
57 1.19
60 2.56
63 1.55
65 2.84
69 36.33
70 1.81
73 1.32
74 2.64
78 1.43
86 7.24
89 2.74
90 1.76
91 5.54
95 4.94
97 2.79
114 1.14
116 1.06
117 5.68
118 4.2
119 1.04
128 1.26
130 1.47
133 1.12
145 3.29
146 99.99
147 67.19
148 7.17
159 2.09
160 1.36
176 35.9
177 4.81

$$$$

     RDKit          2D

 30 29  0  0  0  0  0  0  0  0999 V2000
    7.7942   12.7500    0.0000 C   0  0  0  0  0  0  0  0  0  0  0  0
    6.4952   15.0000    0.0000 C   0  0  0  0  0  0  0  0  0  0  0  0
  -22.0836   13.5000    0.0000 C   0  0  0  0  0  0  0  0  0  0  0  0
  -20.7846   11.2500    0.0000 C   0  0  0  0  0  0  0  0  0  0  0  0
   -3.8971   15.0000    0.0000 C   0  0  0  0  0  0  0  0  0  0  0  0
  -10.3923   11.2500    0.0000 C   0  0  0  0  0  0  0  0  0  0  0  0
    1.2990   15.0000    0.0000 C   0  0  0  0  0  0  0  0  0  0  0  0
  -15.5885   11.2500    0.0000 C   0  0  0  0  0  0  0  0  0  0  0  0
   -6.4952   13.5000    0.0000 C   0  0  0  0  0  0  0  0  0  0  0  0
   -7.7942   12.7500    0.0000 C   0  0  0  0  0  0  0  0  0  0  0  0
    3.8971   13.5000    0.0000 C   0  0  0  0  0  0  0  0  0  0  0  0
  -18.1865   12.7500    0.0000 C   0  0  0  0  0  0  0  0  0  0  0  0
   -1.2990   13.5000    0.0000 C   0  0  0  0  0  0  0  0  0  0  0  0
  -12.9904   12.7500    0.0000 C   0  0  0  0  0  0  0  0  0  0  0  0
    5.1962   12.7500    0.0000 C   0  0  0  0  0  0  0  0  0  0  0  0
  -19.4856   13.5000    0.0000 C   0  0  0  0  0  0  0  0  0  0  0  0
   -5.1962   12.7500    0.0000 C   0  0  0  0  0  0  0  0  0  0  0  0
   -9.0933   13.5000    0.0000 C   0  0  0  0  0  0  0  0  0  0  0  0
    2.5981   12.7500    0.0000 C   0  0  0  0  0  0  0  0  0  0  0  0
  -16.8875   13.5000    0.0000 C   0  0  0  0  0  0  0  0  0  0  0  0
   -2.5981   12.7500    0.0000 C   0  0  0  0  0  0  0  0  0  0  0  0
  -11.6913   13.5000    0.0000 C   0  0  0  0  0  0  0  0  0  0  0  0
    0.0000   12.7500    0.0000 C   0  0  0  0  0  0  0  0  0  0  0  0
  -14.2894   13.5000    0.0000 C   0  0  0  0  0  0  0  0  0  0  0  0
    6.4952   13.5000    0.0000 C   0  0  0  0  0  0  0  0  0  0  0  0
  -20.7846   12.7500    0.0000 C   0  0  0  0  0  0  0  0  0  0  0  0
   -3.8971   13.5000    0.0000 C   0  0  0  0  0  0  0  0  0  0  0  0
  -10.3923   12.7500    0.0000 C   0  0  0  0  0  0  0  0  0  0  0  0
    1.2990   13.5000    0.0000 C   0  0  0  0  0  0  0  0  0  0  0  0
  -15.5885   12.7500    0.0000 C   0  0  0  0  0  0  0  0  0  0  0  0
 10  9  1  0
 15 11  1  0
 16 12  1  0
 17  9  1  0
 18 10  1  0
 19 11  1  0
 20 12  1  0
 21 13  1  0
 22 14  1  0
 23 13  1  0
 24 14  1  0
 25  1  1  0
 25  2  1  0
 25 15  2  0
 26  3  1  0
 26  4  1  0
 26 16  2  0
 27  5  1  0
 17 27  2  0
 27 21  1  0
 28  6  1  0
 18 28  2  0
 28 22  1  0
 29  7  1  0
 29 19  1  0
 23 29  2  0
 30  8  1  0
 30 20  1  0
 24 30  2  0
M  END
>  <NAME>  (1785) 
SQUALENE

>  <SYNONYMS>  (1785) 
2,6,10,15,19,23-HEXAMETHYL-2,6,10,14,18,22-TETRACOSAHEXAENE

>  <SPECTRUM TYPE>  (1785) 
MS1

>  <INSTRUMENT TYPE>  (1785) 
EI-B

>  <INSTRUMENT>  (1785) 
HITACHI M-80

>  <ION MODE>  (1785) 
P

>  <INCHIKEY>  (1785) 
YYGNTYWPHWGJRM-AAJYLUCBSA-N

>  <FORMULA>  (1785) 
C30H50

>  <EXACT MASS>  (1785) 
410.3912516

>  <MW>  (1785) 
410

>  <ID>  (1785) 
JP009552

>  <CONTRIBUTOR>  (1785) 
University of Tokyo Team, {Faculty of Engineering, University of Tokyo

>  <COMMENT>  (1785) 
SMILES=C(CC=C(C)C)C(C)=C(CCC(C)=C(CCC([H])=C(CCC([H])=C(CCC=C(C)C)C)C)[H])[H]
cas=111-02-4
InChI=InChI=1S/C30H50/c1-25(2)15-11-19-29(7)23-13-21-27(5)17-9-10-18-28(6)22-14-24-30(8)20-12-16-26(3)4/h15-18,23-24H,9-14,19-22H2,1-8H3/b27-17+,28-18+,29-23+,30-24+
computed SMILES=C(=C(C)C)CCC(=CCCC(=CCCC=C(C)CCC=C(C)CCC=C(C)C)C)C
accession=JP009552
date=2016.01.19 (Created 2008.10.21, modified 2011.05.06)
author=NARA WOMEN'S UNIVERSITY
license=CC BY-NC-SA
exact mass=410.39125
ionization energy=70 eV
ion type=[M]+*
computed spectral entropy=3.6890560973469135
computed normalized entropy=0.8348470616563871
SPLASH=splash10-015i-9500000000-63fc959bf17e2f6e0381
submitter=submitter = University of Tokyo Team (Faculty of Engineering, University of Tokyo)
MoNA Rating=3.75

>  <NUM PEAKS>  (1785) 
83

>  <MASS SPECTRAL PEAKS>  (1785) 
18 6.78
27 1.32
28 11.49
29 2.15
32 3.32
39 2.7
40 1.08
41 24.85
42 1.51
43 4.67
53 3.99
55 6.81
56 1.07
57 4.08
67 9.32
68 12
69 99.99
70 6.31
71 2.35
77 1.71
79 3.77
80 2.97
81 62.72
82 9.25
83 4.39
91 2.7
92 2.4
93 10.94
94 7.95
95 17.51
96 2.4
97 2.87
105 3.02
106 1.56
107 8.79
108 3.21
109 12.07
110 1.89
111 2.2
119 4.66
120 1.8
121 14.62
122 4.69
123 13.86
124 1.95
133 3.22
134 4.35
135 9.97
136 28.47
137 25.66
138 2.91
145 1.01
147 4.55
148 2.4
149 13.1
150 3.45
151 1.11
161 3.64
162 2.31
163 3.52
167 1.3
175 4.31
176 1.66
177 3.57
189 3.66
190 1.9
191 6.09
192 6.92
193 1.16
203 4.87
204 2.01
205 3.19
217 2.18
218 2.4
231 2.97
273 2.4
299 1.74
328 1.99
341 6.91
342 1.94
367 2.27
410 6.03
411 2.16

$$$$

     RDKit          2D

 11 11  0  0  0  0  0  0  0  0999 V2000
    4.2010    1.4526    0.0000 C   0  0  0  0  0  0  0  0  0  0  0  0
    0.4510   -1.1896    0.0000 C   0  0  0  0  0  0  0  0  0  0  0  0
    2.7732    1.9126    0.0000 C   0  0  0  0  0  0  0  0  0  0  0  0
   -0.5487   -0.0813    0.0000 C   0  0  0  0  0  0  0  0  0  0  0  0
    1.6610    0.9061    0.0000 C   0  0  0  0  0  0  0  0  0  0  0  0
   -2.0405   -0.2387    0.0000 C   0  0  0  0  0  0  0  0  0  0  0  0
    2.4577    3.3791    0.0000 N   0  0  0  0  0  0  0  0  0  0  0  0
    0.2013    1.2178    0.0000 N   0  0  0  0  0  0  0  0  0  0  0  0
   -2.9227    0.9744    0.0000 O   0  0  0  0  0  0  0  0  0  0  0  0
   -2.6500   -1.6093    0.0000 O   0  0  0  0  0  0  0  0  0  0  0  0
    1.8268   -0.5867    0.0000 S   0  0  0  0  0  0  0  0  0  0  0  0
  3  1  1  0
  4  2  2  0
  5  3  1  0
  6  4  1  0
  7  3  1  0
  8  4  1  0
  8  5  2  0
  9  6  2  0
 10  6  1  0
 11  2  1  0
 11  5  1  0
M  END
>  <NAME>  (1786) 
2-(1-AMINOETHYL)TIAZOL-4-CARBOXLIC ACID

>  <SYNONYMS>  (1786) 


>  <SPECTRUM TYPE>  (1786) 
MS1

>  <INSTRUMENT TYPE>  (1786) 
EI-B

>  <INSTRUMENT>  (1786) 
HITACHI M-80

>  <ION MODE>  (1786) 
P

>  <INCHIKEY>  (1786) 
IZYPOVIPPSQRBI-UHFFFAOYSA-N

>  <FORMULA>  (1786) 
C6H8N2O2S

>  <EXACT MASS>  (1786) 
172.030648496

>  <MW>  (1786) 
172

>  <ID>  (1786) 
JP009551

>  <CONTRIBUTOR>  (1786) 
University of Tokyo Team, {Faculty of Engineering, University of Tokyo

>  <COMMENT>  (1786) 
SMILES=CC(N)c(s1)nc(C(O)=O)c1
cas=57001-28-2
InChI=InChI=1S/C6H8N2O2S/c1-3(7)5-8-4(2-11-5)6(9)10/h2-3H,7H2,1H3,(H,9,10)
computed SMILES=O=C(O)C=1N=C(SC1)C(N)C
accession=JP009551
date=2016.01.19 (Created 2008.10.21, modified 2011.05.06)
author=NARA WOMEN'S UNIVERSITY
license=CC BY-NC-SA
exact mass=172.03065
ionization energy=70 eV
ion type=[M]+*
computed spectral entropy=3.641001800407453
computed normalized entropy=0.8308944933371961
SPLASH=splash10-0a4u-9500000000-7c3dd6440b8ce3e94b2c
submitter=submitter = University of Tokyo Team (Faculty of Engineering, University of Tokyo)
MoNA Rating=3.75

>  <NUM PEAKS>  (1786) 
80

>  <MASS SPECTRAL PEAKS>  (1786) 
14 4.92
15 16.21
16 8.1
17 11.02
18 30.39
19 4.01
25 1.34
26 4.23
27 12.64
28 59.54
29 11.09
30 9.59
31 1.87
32 8.4
33 1.27
36 3.44
37 1.9
38 5.21
39 8.79
40 10.71
41 14.64
42 44.21
43 16.86
44 94.86
45 55.97
46 5.58
47 2.31
51 3.8
52 7.69
53 14.35
54 5.78
55 7.06
56 4.86
57 31.64
58 16.39
59 7.61
60 2.92
61 2.54
66 1.76
67 2.18
68 2.78
69 3.45
70 6.11
71 3.81
72 2.77
73 3.12
74 1.1
76 1.02
82 4.25
83 5.41
84 15.37
85 7.26
86 2.46
110 2.37
111 5.8
112 50.97
113 4.81
114 2.43
126 7.66
127 1.93
129 1.42
130 21.06
131 4.41
132 1.3
138 4.62
139 99.99
140 19.34
141 6.79
144 2.33
153 7.86
154 3.27
155 1.82
157 86.88
158 25.95
159 7.22
160 1.45
171 1.04
172 18.62
173 6.43
174 2.01

$$$$

     RDKit          2D

 28 31  0  0  1  0  0  0  0  0999 V2000
    9.5655    7.2342    0.0000 C   0  0  0  0  0  0  0  0  0  0  0  0
    7.1046    8.0672    0.0000 C   0  0  0  0  0  0  0  0  0  0  0  0
    3.2009    4.6377    0.0000 C   0  0  0  0  0  0  0  0  0  0  0  0
   -1.6125    0.9400    0.0000 C   0  0  0  0  0  0  0  0  0  0  0  0
    2.4507    3.1203    0.0000 C   0  0  0  0  0  0  0  0  0  0  0  0
    6.1427    5.2256    0.0000 C   0  0  0  0  0  0  0  0  0  0  0  0
    7.6137    5.5195    0.0000 C   0  0  0  0  0  0  0  0  0  0  0  0
    5.6618    3.8047    0.0000 C   0  0  0  0  0  0  0  0  0  0  0  0
   -0.3200   -2.8400    0.0000 C   0  0  0  0  0  0  0  0  0  0  0  0
    1.0100   -2.0900    0.0000 C   0  0  0  0  0  0  0  0  0  0  0  0
    4.5500    0.8800    0.0000 C   0  0  0  0  0  0  0  0  0  0  0  0
    3.7100   -0.3100    0.0000 C   0  0  0  0  0  0  0  0  0  0  0  0
   -4.2000   -0.5600    0.0000 C   0  0  0  0  0  0  0  0  0  0  0  0
   -0.3200    1.6300    0.0000 C   0  0  0  0  0  0  0  0  0  0  0  0
   -2.8900    0.1600    0.0000 C   0  0  0  0  0  0  0  0  0  0  0  0
    1.0100    2.3900    0.0000 C   0  0  0  0  0  0  0  0  0  0  0  0
   -2.8900   -2.8400    0.0000 C   0  0  0  0  0  0  0  0  0  0  0  0
    8.0946    6.9403    0.0000 C   0  0  0  0  0  0  0  0  0  0  0  0
    4.1909    3.5108    0.0000 C   0  0  0  0  0  0  0  0  0  0  0  0
   -1.6200   -2.0900    0.0000 C   0  0  0  0  0  0  0  0  0  0  0  0
   -4.2000   -2.0900    0.0000 C   0  0  0  0  0  0  0  0  0  0  0  0
    1.0100   -0.5600    0.0000 C   0  0  0  0  0  0  0  0  0  0  0  0
    3.7100    2.0900    0.0000 C   0  0  0  0  0  0  0  0  0  0  0  0
    2.2800    0.1600    0.0000 C   0  0  0  0  0  0  0  0  0  0  0  0
   -0.3200    0.1600    0.0000 C   0  0  0  0  0  0  0  0  0  0  0  0
   -1.6200   -0.5600    0.0000 C   0  0  0  0  0  0  0  0  0  0  0  0
    2.2800    1.6300    0.0000 C   0  0  0  0  0  0  0  0  0  0  0  0
   -5.4977   -2.8424    0.0000 O   0  0  0  0  0  0  0  0  0  0  0  0
  7  6  1  0
  8  6  1  0
 10  9  1  0
 12 11  1  0
 15 13  1  0
 16 14  1  0
 18  1  1  0
 18  2  1  0
 18  7  2  0
 19  3  1  6
 19  8  1  0
 20  9  2  0
 20 17  1  0
 21 13  1  0
 21 17  1  0
 22 10  1  6
 23 11  1  1
 23 19  1  0
 24 12  1  1
 24 22  1  0
 25 14  1  1
 25 22  1  0
 26  4  1  1
 26 15  1  0
 26 20  1  0
 26 25  1  0
 27  5  1  1
 27 16  1  0
 27 23  1  0
 27 24  1  0
 21 28  1  1
M  END
>  <NAME>  (1787) 
DESMOSTEROL

>  <SYNONYMS>  (1787) 


>  <SPECTRUM TYPE>  (1787) 
MS1

>  <INSTRUMENT TYPE>  (1787) 
EI-B

>  <INSTRUMENT>  (1787) 
HITACHI M-80

>  <ION MODE>  (1787) 
P

>  <INCHIKEY>  (1787) 
AVSXSVCZWQODGV-DPAQBDIFSA-N

>  <FORMULA>  (1787) 
C27H44O

>  <EXACT MASS>  (1787) 
384.33921602799995

>  <MW>  (1787) 
384

>  <ID>  (1787) 
JP009550

>  <CONTRIBUTOR>  (1787) 
University of Tokyo Team, {Faculty of Engineering, University of Tokyo

>  <COMMENT>  (1787) 
SMILES=C(C2([H])3)([H])(C(C)(C4)C(CC(C4)([H])O)=CC3)CCC(C2([H])1)(C)C([H])(CC1)C(CCC=C(C)C)([H])C
cas=313-04-2
InChI=InChI=1S/C27H44O/c1-18(2)7-6-8-19(3)23-11-12-24-22-10-9-20-17-21(28)13-15-26(20,4)25(22)14-16-27(23,24)5/h7,9,19,21-25,28H,6,8,10-17H2,1-5H3/t19-,21+,22+,23-,24+,25+,26+,27-/m1/s1
computed SMILES=OC1CC2=CCC3C(CCC4(C)C(CCC34)C(C)CCC=C(C)C)C2(C)CC1
accession=JP009550
date=2016.01.19 (Created 2008.10.21, modified 2011.05.06)
author=NARA WOMEN'S UNIVERSITY
license=CC BY-NC-SA
exact mass=384.33922
ionization energy=70 eV
ion type=[M]+*
computed spectral entropy=4.571123924683027
computed normalized entropy=0.8870299382172865
SPLASH=splash10-00xr-6973000000-9b8478114c7fec1504f2
submitter=submitter = University of Tokyo Team (Faculty of Engineering, University of Tokyo)
MoNA Rating=3.75

>  <NUM PEAKS>  (1787) 
173

>  <MASS SPECTRAL PEAKS>  (1787) 
18 2.86
27 1.97
28 19.65
29 3.48
32 4.58
39 3.21
41 19.12
42 1.98
43 7.31
53 3.22
55 19.78
56 7.23
57 7.17
65 1.18
67 10.68
68 3.55
69 50.06
70 5.52
71 2.24
77 3.13
78 1.19
79 9.8
80 2.19
81 19.52
82 9.96
83 9.37
84 1.62
85 1.05
91 10.52
92 3.18
93 12.83
94 5.2
95 22.48
96 4.19
97 4.65
105 14.71
106 4.65
107 20.15
108 5.44
109 15.42
111 4.32
115 1.4
117 4.83
118 3.28
119 11.26
120 9.4
121 12.63
122 3.47
123 8.05
124 2.36
125 1.97
128 1.36
129 3.16
130 1.79
131 8.9
132 4.65
133 13.9
134 4.75
135 9.1
136 2.38
137 4.31
138 5.33
139 1
141 1.2
142 1.15
143 7.17
144 4.49
145 17.39
146 5.12
147 12.01
148 3.17
149 5.83
150 1.98
151 3.06
152 4.19
155 1.26
156 1.31
157 6.02
158 8.8
159 14.89
160 6.46
161 11.56
162 3.58
163 6.96
164 2.79
165 1.55
169 1.51
171 5.47
172 2.44
173 6.95
174 2.7
175 6.02
176 3.6
177 3.88
178 1.83
179 1.02
183 1.73
185 4.97
186 2.36
187 5
188 1.62
189 3.58
190 1.23
191 2.65
197 3.33
198 1.26
199 5.9
200 1.82
201 3.12
203 2.54
204 1
205 1.81
206 1.03
211 3.18
212 1.68
213 11.78
214 3.75
215 3.85
216 1.26
217 2.74
225 1.61
227 2.94
228 3.39
229 5.8
230 4.37
231 6.92
232 2.34
239 3.21
240 1.43
241 1.86
243 2.15
244 1.29
245 3.37
246 2.67
253 8.46
254 3.17
255 6.22
256 1.68
257 2.84
258 4.81
259 1.87
267 1.58
269 1.63
270 12.95
271 99.99
272 30.56
273 10.99
274 2.15
281 2.81
282 1.67
283 1.47
285 2.75
286 1.03
298 1.07
299 17.29
300 29.86
301 6.92
302 1.1
313 1.22
314 1.71
324 1.11
325 1.17
351 11.19
352 3.27
366 4.83
367 1.88
368 1.34
369 31.49
370 9.26
371 1.51
384 42.11
385 12.59
386 2.34

$$$$

     RDKit          2D

 10 10  0  0  0  0  0  0  0  0999 V2000
    2.5740    2.2576    0.0000 C   0  0  0  0  0  0  0  0  0  0  0  0
    0.2518   -0.8447    0.0000 C   0  0  0  0  0  0  0  0  0  0  0  0
   -0.7479    0.2637    0.0000 C   0  0  0  0  0  0  0  0  0  0  0  0
    1.4618    1.2511    0.0000 C   0  0  0  0  0  0  0  0  0  0  0  0
   -2.2396    0.1063    0.0000 C   0  0  0  0  0  0  0  0  0  0  0  0
    4.0018    1.7976    0.0000 N   0  0  0  0  0  0  0  0  0  0  0  0
    0.0021    1.5628    0.0000 N   0  0  0  0  0  0  0  0  0  0  0  0
   -3.1218    1.3194    0.0000 O   0  0  0  0  0  0  0  0  0  0  0  0
   -2.8491   -1.2643    0.0000 O   0  0  0  0  0  0  0  0  0  0  0  0
    1.6276   -0.2418    0.0000 S   0  0  0  0  0  0  0  0  0  0  0  0
  3  2  2  0
  4  1  1  0
  5  3  1  0
  6  1  1  0
  7  3  1  0
  7  4  2  0
  8  5  2  0
  9  5  1  0
 10  2  1  0
 10  4  1  0
M  END
>  <NAME>  (1788) 
2-AMINOMETHYLTHIAZOLE-4-CARBOXYLIC ACID

>  <SYNONYMS>  (1788) 


>  <SPECTRUM TYPE>  (1788) 
MS1

>  <INSTRUMENT TYPE>  (1788) 
EI-B

>  <INSTRUMENT>  (1788) 
HITACHI M-80

>  <ION MODE>  (1788) 
P

>  <INCHIKEY>  (1788) 
DOIRUXCDSGNCMX-UHFFFAOYSA-N

>  <FORMULA>  (1788) 
C5H6N2O2S

>  <EXACT MASS>  (1788) 
158.014998432

>  <MW>  (1788) 
158

>  <ID>  (1788) 
JP009549

>  <CONTRIBUTOR>  (1788) 
University of Tokyo Team, {Faculty of Engineering, University of Tokyo

>  <COMMENT>  (1788) 
SMILES=NCc(s1)nc(C(O)=O)c1
cas=25438-22-6
InChI=InChI=1S/C5H6N2O2S/c6-1-4-7-3(2-10-4)5(8)9/h2H,1,6H2,(H,8,9)
computed SMILES=O=C(O)C=1N=C(SC1)CN
accession=JP009549
date=2016.01.19 (Created 2008.10.21, modified 2011.05.06)
author=NARA WOMEN'S UNIVERSITY
license=CC BY-NC-SA
exact mass=158.015
ionization energy=70 eV
ion type=[M]+*
computed spectral entropy=3.349620154328391
computed normalized entropy=0.8116091800804772
SPLASH=splash10-001i-9300000000-14dabad9dc7119214e23
submitter=submitter = University of Tokyo Team (Faculty of Engineering, University of Tokyo)
MoNA Rating=3.75

>  <NUM PEAKS>  (1788) 
62

>  <MASS SPECTRAL PEAKS>  (1788) 
14 3.41
15 1.99
16 1.5
17 3.05
18 10.61
26 1.68
27 1.67
28 46.75
29 6.52
30 99.99
31 10.62
32 8.09
35 8.56
36 30.4
37 3.22
38 10.62
39 2.84
40 4.43
41 4.77
42 5.61
43 1.65
44 3.24
45 27.79
46 3.07
47 1.22
51 2.26
52 3.13
53 6.95
54 1.27
55 3.13
56 3.41
57 15.54
58 8.72
59 3.28
60 1.22
61 1.37
68 1.73
69 3.18
70 2.83
71 1.47
72 1.39
73 1.06
82 2.35
83 3.13
84 6.47
85 4.16
86 1.46
111 2.8
112 31.8
113 3.32
114 1.96
130 28.64
131 4.11
132 1.44
139 11.86
140 18.56
141 3.83
142 1.61
157 2.75
158 19.77
159 4.35
160 1.26

$$$$

     RDKit          2D

 10 10  0  0  0  0  0  0  0  0999 V2000
   -3.8969    2.5696    0.0000 C   0  0  0  0  0  0  0  0  0  0  0  0
    2.5983    0.3196    0.0000 C   0  0  0  0  0  0  0  0  0  0  0  0
    2.5988    1.8204    0.0000 C   0  0  0  0  0  0  0  0  0  0  0  0
    1.2988   -0.4312    0.0000 C   0  0  0  0  0  0  0  0  0  0  0  0
    1.2998    2.5704    0.0000 C   0  0  0  0  0  0  0  0  0  0  0  0
   -0.0002    0.3188    0.0000 C   0  0  0  0  0  0  0  0  0  0  0  0
   -1.2988    2.5696    0.0000 C   0  0  0  0  0  0  0  0  0  0  0  0
   -2.5978    1.8196    0.0000 C   0  0  0  0  0  0  0  0  0  0  0  0
    0.0002    1.8196    0.0000 C   0  0  0  0  0  0  0  0  0  0  0  0
   -2.5978    0.3196    0.0000 O   0  0  0  0  0  0  0  0  0  0  0  0
  3  2  2  0
  4  2  1  0
  5  3  1  0
  6  4  2  0
  8  1  1  0
  8  7  1  0
  9  5  2  0
  9  6  1  0
  9  7  1  0
 10  8  1  0
M  END
>  <NAME>  (1789) 
1-PHENYL-2-PROPANOL

>  <SYNONYMS>  (1789) 
BENZYLMETHYLCARBINOL

>  <SPECTRUM TYPE>  (1789) 
MS1

>  <INSTRUMENT TYPE>  (1789) 
EI-B

>  <INSTRUMENT>  (1789) 
HITACHI M-80

>  <ION MODE>  (1789) 
P

>  <INCHIKEY>  (1789) 
WYTRYIUQUDTGSX-UHFFFAOYSA-N

>  <FORMULA>  (1789) 
C9H12O

>  <EXACT MASS>  (1789) 
136.088815004

>  <MW>  (1789) 
136

>  <ID>  (1789) 
JP009548

>  <CONTRIBUTOR>  (1789) 
University of Tokyo Team, {Faculty of Engineering, University of Tokyo

>  <COMMENT>  (1789) 
SMILES=CC(O)Cc(c1)cccc1
cas=14898-87-4
InChI=InChI=1S/C9H12O/c1-8(10)7-9-5-3-2-4-6-9/h2-6,8,10H,7H2,1H3
computed SMILES=OC(C)CC=1C=CC=CC1
accession=JP009548
date=2016.01.19 (Created 2008.10.21, modified 2011.05.06)
author=NARA WOMEN'S UNIVERSITY
license=CC BY-NC-SA
exact mass=136.08882
ionization energy=70 eV
ion type=[M]+*
computed spectral entropy=1.7124870277433553
computed normalized entropy=0.5924798507545048
SPLASH=splash10-0006-9000000000-af804ab6e867dc4f66d3
submitter=submitter = University of Tokyo Team (Faculty of Engineering, University of Tokyo)
MoNA Rating=3.75

>  <NUM PEAKS>  (1789) 
18

>  <MASS SPECTRAL PEAKS>  (1789) 
27 1.19
29 1.1
39 2.65
43 3.55
45 17.99
51 1.69
63 1.86
65 6.73
77 1.97
89 1.42
90 1.28
91 49.75
92 99.99
93 8.21
103 2.28
117 1.07
121 2.26
136 3.68

$$$$

     RDKit          2D

 10 10  0  0  0  0  0  0  0  0999 V2000
    3.8981    0.7502    0.0000 C   0  0  0  0  0  0  0  0  0  0  0  0
    3.8981    2.2502    0.0000 C   0  0  0  0  0  0  0  0  0  0  0  0
    1.2981    2.2502    0.0000 C   0  0  0  0  0  0  0  0  0  0  0  0
    1.2981    0.7502    0.0000 C   0  0  0  0  0  0  0  0  0  0  0  0
    2.5981    0.0002    0.0000 C   0  0  0  0  0  0  0  0  0  0  0  0
   -0.0008   -0.0000    0.0000 C   0  0  0  0  0  0  0  0  0  0  0  0
    2.5981    3.0002    0.0000 N   0  0  0  0  0  0  0  0  0  0  0  0
    2.5981   -1.4998    0.0000 O   0  0  0  0  0  0  0  0  0  0  0  0
   -0.0006   -1.5000    0.0000 O   0  0  0  0  0  0  0  0  0  0  0  0
   -1.3000    0.7498    0.0000 O   0  0  0  0  0  0  0  0  0  0  0  0
  2  1  2  0
  4  3  2  0
  5  1  1  0
  5  4  1  0
  6  4  1  0
  7  2  1  0
  7  3  1  0
  8  5  2  0
  9  6  2  0
 10  6  1  0
M  END
>  <NAME>  (1790) 
4-HYDROXYISONICOTINIC ACID

>  <SYNONYMS>  (1790) 


>  <SPECTRUM TYPE>  (1790) 
MS1

>  <INSTRUMENT TYPE>  (1790) 
EI-B

>  <INSTRUMENT>  (1790) 
HITACHI M-80

>  <ION MODE>  (1790) 
P

>  <INCHIKEY>  (1790) 
CHCUBGPSZDGABM-UHFFFAOYSA-N

>  <FORMULA>  (1790) 
C6H5NO3

>  <EXACT MASS>  (1790) 
139.02694302

>  <MW>  (1790) 
139

>  <ID>  (1790) 
JP009547

>  <CONTRIBUTOR>  (1790) 
University of Tokyo Team, {Faculty of Engineering, University of Tokyo

>  <COMMENT>  (1790) 
SMILES=OC(=O)c(c1)c(O)ccn1
InChI=InChI=1S/C6H5NO3/c8-5-1-2-7-3-4(5)6(9)10/h1-3H,(H,7,8)(H,9,10)
computed SMILES=O=C(O)C1=CNC=CC1=O
accession=JP009547
date=2016.01.19 (Created 2008.10.21, modified 2011.05.06)
author=NARA WOMEN'S UNIVERSITY
license=CC BY-NC-SA
exact mass=139.02694
ionization energy=70 eV
ion type=[M]+*
computed spectral entropy=2.93728758617066
computed normalized entropy=0.807482615447272
SPLASH=splash10-000e-9000000000-653b27f096dafbef38cb
submitter=submitter = University of Tokyo Team (Faculty of Engineering, University of Tokyo)
MoNA Rating=3.75

>  <NUM PEAKS>  (1790) 
38

>  <MASS SPECTRAL PEAKS>  (1790) 
18 1.73
26 2.2
27 3.12
28 22.24
29 2.88
36 1.17
37 7.92
38 15.42
39 32.76
40 10.8
41 7.75
42 1.51
44 2.73
45 9.45
49 2.23
50 5.54
51 3.97
52 2.91
53 5.16
54 1.47
55 2.92
61 1.09
63 1.48
64 3.72
65 9.62
66 17.97
67 24.17
68 3
76 1.13
77 3.14
93 25.15
94 26.65
95 99.99
96 5.76
121 3.94
122 7.78
139 24.97
140 3.49

$$$$

     RDKit          2D

 15 15  0  0  0  0  0  0  0  0999 V2000
    3.1108   -1.3066    0.0000 C   0  0  0  0  0  0  0  0  0  0  0  0
    3.6601    0.7423    0.0000 C   0  0  0  0  0  0  0  0  0  0  0  0
    1.6112    1.2917    0.0000 C   0  0  0  0  0  0  0  0  0  0  0  0
   -2.0858    1.2909    0.0000 C   0  0  0  0  0  0  0  0  0  0  0  0
   -4.1348    0.7419    0.0000 C   0  0  0  0  0  0  0  0  0  0  0  0
   -3.5858   -1.3071    0.0000 C   0  0  0  0  0  0  0  0  0  0  0  0
    1.0613   -2.2581    0.0000 C   0  0  0  0  0  0  0  0  0  0  0  0
   -0.2382   -3.0089    0.0000 C   0  0  0  0  0  0  0  0  0  0  0  0
   -0.2372   -0.0073    0.0000 C   0  0  0  0  0  0  0  0  0  0  0  0
    1.0618   -0.7573    0.0000 C   0  0  0  0  0  0  0  0  0  0  0  0
   -1.5367   -0.7581    0.0000 C   0  0  0  0  0  0  0  0  0  0  0  0
   -1.5372   -2.2589    0.0000 C   0  0  0  0  0  0  0  0  0  0  0  0
    2.3610   -0.0075    0.0000 C   0  0  0  0  0  0  0  0  0  0  0  0
   -2.8358   -0.0081    0.0000 C   0  0  0  0  0  0  0  0  0  0  0  0
   -2.8364   -3.0087    0.0000 O   0  0  0  0  0  0  0  0  0  0  0  0
  8  7  2  0
 10  7  1  0
 10  9  2  0
 11  9  1  0
 12  8  1  0
 12 11  2  0
 13  1  1  0
 13  2  1  0
 13  3  1  0
 13 10  1  0
 14  4  1  0
 14  5  1  0
 14  6  1  0
 14 11  1  0
 15 12  1  0
M  END
>  <NAME>  (1791) 
2,4-DI-TERT-BUTYLPHENOL

>  <SYNONYMS>  (1791) 


>  <SPECTRUM TYPE>  (1791) 
MS1

>  <INSTRUMENT TYPE>  (1791) 
EI-B

>  <INSTRUMENT>  (1791) 
HITACHI M-80

>  <ION MODE>  (1791) 
P

>  <INCHIKEY>  (1791) 
ICKWICRCANNIBI-UHFFFAOYSA-N

>  <FORMULA>  (1791) 
C14H22O

>  <EXACT MASS>  (1791) 
206.167065324

>  <MW>  (1791) 
206

>  <ID>  (1791) 
JP009546

>  <CONTRIBUTOR>  (1791) 
University of Tokyo Team, {Faculty of Engineering, University of Tokyo

>  <COMMENT>  (1791) 
SMILES=Oc(c1)c(cc(c1)C(C)(C)C)C(C)(C)C
InChI=InChI=1S/C14H22O/c1-13(2,3)10-7-8-12(15)11(9-10)14(4,5)6/h7-9,15H,1-6H3
computed SMILES=OC1=CC=C(C=C1C(C)(C)C)C(C)(C)C
accession=JP009546
date=2016.01.19 (Created 2008.10.21, modified 2011.05.06)
author=NARA WOMEN'S UNIVERSITY
license=CC BY-NC-SA
exact mass=206.16707
ionization energy=70 eV
ion type=[M]+*
computed spectral entropy=2.7440929154109166
computed normalized entropy=0.6847678464878452
SPLASH=splash10-052f-7920000000-d2d151aecfad794a5cfa
submitter=submitter = University of Tokyo Team (Faculty of Engineering, University of Tokyo)
MoNA Rating=3.75

>  <NUM PEAKS>  (1791) 
55

>  <MASS SPECTRAL PEAKS>  (1791) 
29 11.53
39 2.71
41 24.06
42 1.24
43 4
53 1.28
55 3.7
57 81.34
58 3.94
65 1.11
67 1.22
77 2.32
79 1.61
91 4.61
103 1.04
105 2.86
107 2.89
115 3.2
116 1.12
117 1.8
119 2.07
121 1.93
127 1.08
128 1.93
129 1.61
131 1.59
133 2.09
134 1.13
135 2.17
141 1.23
145 1.21
147 2.78
148 1.19
149 1.88
153 1.11
159 1.04
161 2.32
163 3.79
165 1.25
175 4.8
176 2.52
177 2.12
179 1.05
182 1.61
190 8.01
191 99.99
192 14.95
193 1.67
197 1.04
199 1.02
205 1.15
206 44.55
207 9.78
208 1.36
209 1.05

$$$$

     RDKit          2D

  9  9  0  0  0  0  0  0  0  0999 V2000
   -1.3000   -0.7500    0.0000 C   0  0  0  0  0  0  0  0  0  0  0  0
    0.0000    1.5000    0.0000 C   0  0  0  0  0  0  0  0  0  0  0  0
    0.0000   -1.5000    0.0000 C   0  0  0  0  0  0  0  0  0  0  0  0
    1.3000    0.7500    0.0000 C   0  0  0  0  0  0  0  0  0  0  0  0
   -2.5989    1.5002    0.0000 C   0  0  0  0  0  0  0  0  0  0  0  0
   -1.3000    0.7500    0.0000 C   0  0  0  0  0  0  0  0  0  0  0  0
    1.3000   -0.7500    0.0000 C   0  0  0  0  0  0  0  0  0  0  0  0
   -3.8978    2.2504    0.0000 N   0  0  0  0  0  0  0  0  0  0  0  0
    2.5989   -1.5002    0.0000 N   0  0  0  0  0  0  0  0  0  0  0  0
  3  1  2  0
  4  2  1  0
  6  1  1  0
  6  2  2  0
  6  5  1  0
  7  3  1  0
  7  4  2  0
  8  5  3  0
  9  7  1  0
M  END
>  <NAME>  (1792) 
4-AMINOBENZONITRILE

>  <SYNONYMS>  (1792) 
4-CYANOANILINE

>  <SPECTRUM TYPE>  (1792) 
MS1

>  <INSTRUMENT TYPE>  (1792) 
EI-B

>  <INSTRUMENT>  (1792) 
HITACHI M-80

>  <ION MODE>  (1792) 
P

>  <INCHIKEY>  (1792) 
YBAZINRZQSAIAY-UHFFFAOYSA-N

>  <FORMULA>  (1792) 
C7H6N2

>  <EXACT MASS>  (1792) 
118.053098192

>  <MW>  (1792) 
118

>  <ID>  (1792) 
JP009545

>  <CONTRIBUTOR>  (1792) 
University of Tokyo Team, {Faculty of Engineering, University of Tokyo

>  <COMMENT>  (1792) 
SMILES=N#Cc(c1)ccc(N)c1
cas=873-74-5
InChI=InChI=1S/C7H6N2/c8-5-6-1-3-7(9)4-2-6/h1-4H,9H2
computed SMILES=N#CC1=CC=C(N)C=C1
accession=JP009545
date=2016.01.19 (Created 2008.10.21, modified 2011.05.06)
author=NARA WOMEN'S UNIVERSITY
license=CC BY-NC-SA
exact mass=118.0531
ionization energy=70 eV
ion type=[M]+*
computed spectral entropy=2.1010159767233834
computed normalized entropy=0.6611014441166202
SPLASH=splash10-014i-7900000000-dd5b4d1abe581cea101e
submitter=submitter = University of Tokyo Team (Faculty of Engineering, University of Tokyo)
MoNA Rating=3.75

>  <NUM PEAKS>  (1792) 
24

>  <MASS SPECTRAL PEAKS>  (1792) 
28 6.26
37 1.28
38 1.81
39 3.59
40 1.75
41 4.09
50 1.37
51 1.91
52 4.26
62 2.08
63 8.34
64 10.99
65 4.17
66 1.42
67 1.32
75 1.29
76 1.23
78 1.21
90 8.18
91 27.33
92 2.44
117 4.75
118 99.99
119 9.7

$$$$

     RDKit          2D

 14 16  0  0  0  0  0  0  0  0999 V2000
    3.9000    0.7500    0.0000 C   0  0  0  0  0  0  0  0  0  0  0  0
   -3.9000    0.7500    0.0000 C   0  0  0  0  0  0  0  0  0  0  0  0
    3.9000   -0.7500    0.0000 C   0  0  0  0  0  0  0  0  0  0  0  0
   -3.9000   -0.7500    0.0000 C   0  0  0  0  0  0  0  0  0  0  0  0
    2.6000    1.5000    0.0000 C   0  0  0  0  0  0  0  0  0  0  0  0
   -2.6000    1.5000    0.0000 C   0  0  0  0  0  0  0  0  0  0  0  0
    2.6000   -1.5000    0.0000 C   0  0  0  0  0  0  0  0  0  0  0  0
   -2.6000   -1.5000    0.0000 C   0  0  0  0  0  0  0  0  0  0  0  0
    0.0000    1.5000    0.0000 C   0  0  0  0  0  0  0  0  0  0  0  0
    1.3000    0.7500    0.0000 C   0  0  0  0  0  0  0  0  0  0  0  0
   -1.3000    0.7500    0.0000 C   0  0  0  0  0  0  0  0  0  0  0  0
    1.3000   -0.7500    0.0000 C   0  0  0  0  0  0  0  0  0  0  0  0
   -1.3000   -0.7500    0.0000 C   0  0  0  0  0  0  0  0  0  0  0  0
    0.0000   -1.5000    0.0000 N   0  0  0  0  0  0  0  0  0  0  0  0
  3  1  2  0
  4  2  2  0
  5  1  1  0
  6  2  1  0
  7  3  1  0
  8  4  1  0
 10  5  2  0
 10  9  1  0
 11  6  2  0
 11  9  1  0
 12  7  2  0
 12 10  1  0
 13  8  2  0
 13 11  1  0
 14 12  1  0
 14 13  1  0
M  END
>  <NAME>  (1793) 
9,10-DIHYDROACRIDINE

>  <SYNONYMS>  (1793) 
ACRIDAN

>  <SPECTRUM TYPE>  (1793) 
MS1

>  <INSTRUMENT TYPE>  (1793) 
EI-B

>  <INSTRUMENT>  (1793) 
HITACHI M-80

>  <ION MODE>  (1793) 
P

>  <INCHIKEY>  (1793) 
HJCUTNIGJHJGCF-UHFFFAOYSA-N

>  <FORMULA>  (1793) 
C13H11N

>  <EXACT MASS>  (1793) 
181.089149352

>  <MW>  (1793) 
181

>  <ID>  (1793) 
JP009544

>  <CONTRIBUTOR>  (1793) 
University of Tokyo Team, {Faculty of Engineering, University of Tokyo

>  <COMMENT>  (1793) 
SMILES=c(c3)cc(C1)c(c3)Nc(c2)c(ccc2)1
cas=92-81-9
InChI=InChI=1S/C13H11N/c1-3-7-12-10(5-1)9-11-6-2-4-8-13(11)14-12/h1-8,14H,9H2
computed SMILES=C=1C=CC2=C(C1)NC=3C=CC=CC3C2
accession=JP009544
date=2016.01.19 (Created 2008.10.21, modified 2011.05.06)
author=NARA WOMEN'S UNIVERSITY
license=CC BY-NC-SA
exact mass=181.08915
ionization energy=70 eV
ion type=[M]+*
computed spectral entropy=2.034043767747115
computed normalized entropy=0.5923271248915666
SPLASH=splash10-003r-0900000000-06c037ba2e423605524a
submitter=submitter = University of Tokyo Team (Faculty of Engineering, University of Tokyo)
MoNA Rating=3.75

>  <NUM PEAKS>  (1793) 
31

>  <MASS SPECTRAL PEAKS>  (1793) 
39 1.06
51 1.15
63 1.67
75 1.3
76 1.56
77 1.55
89 1.62
90 1.28
93 1.42
126 1.32
127 1.25
128 1.13
150 1.29
151 3.94
152 6.17
153 2.96
154 1.29
166 1.12
167 1.5
168 2.22
177 3.08
178 12.66
179 99.99
180 93.78
181 78.21
182 11.07
183 1.81
184 6.35
185 2.7
195 1.04
196 1.59

$$$$

     RDKit          2D

 10 10  0  0  0  0  0  0  0  0999 V2000
   -1.3000    0.7500    0.0000 C   0  0  0  0  0  0  0  0  0  0  0  0
   -0.0000   -1.5000    0.0000 C   0  0  0  0  0  0  0  0  0  0  0  0
    0.0000    1.5000    0.0000 C   0  0  0  0  0  0  0  0  0  0  0  0
    1.3000   -0.7500    0.0000 C   0  0  0  0  0  0  0  0  0  0  0  0
   -1.3000   -0.7500    0.0000 C   0  0  0  0  0  0  0  0  0  0  0  0
    1.3000    0.7500    0.0000 C   0  0  0  0  0  0  0  0  0  0  0  0
   -2.5989   -1.5002    0.0000 I   0  0  0  0  0  0  0  0  0  0  0  0
    2.5989    1.5002    0.0000 N   0  0  0  0  0  0  0  0  0  0  0  0
    3.8981    0.7504    0.0000 O   0  0  0  0  0  0  0  0  0  0  0  0
    2.5987    3.0002    0.0000 O   0  0  0  0  0  0  0  0  0  0  0  0
  3  1  2  0
  4  2  1  0
  5  1  1  0
  5  2  2  0
  6  3  1  0
  6  4  2  0
  7  5  1  0
  8  6  1  0
  9  8  1  0
 10  8  2  0
M  CHG  2   8   1   9  -1
M  END
>  <NAME>  (1794) 
4-IODONITROBENZENE

>  <SYNONYMS>  (1794) 


>  <SPECTRUM TYPE>  (1794) 
MS1

>  <INSTRUMENT TYPE>  (1794) 
EI-B

>  <INSTRUMENT>  (1794) 
HITACHI M-80

>  <ION MODE>  (1794) 
P

>  <INCHIKEY>  (1794) 
SCCCFNJTCDSLCY-UHFFFAOYSA-N

>  <FORMULA>  (1794) 
C6H4INO2

>  <EXACT MASS>  (1794) 
248.928676368

>  <MW>  (1794) 
249

>  <ID>  (1794) 
JP009543

>  <CONTRIBUTOR>  (1794) 
University of Tokyo Team, {Faculty of Engineering, University of Tokyo

>  <COMMENT>  (1794) 
SMILES=[O-1][N+1](=O)c(c1)ccc(I)c1
cas=636-98-6
InChI=InChI=1S/C6H4INO2/c7-5-1-3-6(4-2-5)8(9)10/h1-4H
computed SMILES=O=N(=O)C1=CC=C(I)C=C1
accession=JP009543
date=2016.01.19 (Created 2008.10.21, modified 2011.05.06)
author=NARA WOMEN'S UNIVERSITY
license=CC BY-NC-SA
exact mass=248.92867
ionization energy=70 eV
ion type=[M]+*
computed spectral entropy=2.2587350714132657
computed normalized entropy=0.7539842900359092
SPLASH=splash10-0002-4090000000-71299b107f879302fc7d
submitter=submitter = University of Tokyo Team (Faculty of Engineering, University of Tokyo)
MoNA Rating=3.75

>  <NUM PEAKS>  (1794) 
20

>  <MASS SPECTRAL PEAKS>  (1794) 
30 4.74
46 1.52
50 10.27
63 2.63
64 4.67
73 1.15
74 6.68
75 7.16
76 33.22
77 2.57
92 10.26
127 5.05
191 12.24
203 17.19
204 1.68
219 23.22
220 2.17
233 7.59
249 99.99
250 7.98

$$$$

     RDKit          2D

  9  9  0  0  0  0  0  0  0  0999 V2000
    2.6027    1.4936    0.0000 C   0  0  0  0  0  0  0  0  0  0  0  0
   -3.9180   -0.7714    0.0000 C   0  0  0  0  0  0  0  0  0  0  0  0
    1.3000   -0.7500    0.0000 C   0  0  0  0  0  0  0  0  0  0  0  0
    0.0300    1.5000    0.0000 C   0  0  0  0  0  0  0  0  0  0  0  0
    0.0300   -1.5000    0.0000 C   0  0  0  0  0  0  0  0  0  0  0  0
   -1.3200    0.7500    0.0000 C   0  0  0  0  0  0  0  0  0  0  0  0
    1.3000    0.7500    0.0000 C   0  0  0  0  0  0  0  0  0  0  0  0
   -1.3200   -0.7500    0.0000 C   0  0  0  0  0  0  0  0  0  0  0  0
   -2.6128   -1.5107    0.0000 O   0  0  0  0  0  0  0  0  0  0  0  0
  5  3  2  0
  6  4  1  0
  7  1  1  0
  7  3  1  0
  7  4  2  0
  8  5  1  0
  8  6  2  0
  9  2  1  0
  9  8  1  0
M  END
>  <NAME>  (1795) 
PARA-METHOXYTOLUENE

>  <SYNONYMS>  (1795) 


>  <SPECTRUM TYPE>  (1795) 
MS1

>  <INSTRUMENT TYPE>  (1795) 
EI-B

>  <INSTRUMENT>  (1795) 
HITACHI M-80

>  <ION MODE>  (1795) 
P

>  <INCHIKEY>  (1795) 
CHLICZRVGGXEOD-UHFFFAOYSA-N

>  <FORMULA>  (1795) 
C8H10O

>  <EXACT MASS>  (1795) 
122.07316494

>  <MW>  (1795) 
122

>  <ID>  (1795) 
JP009542

>  <CONTRIBUTOR>  (1795) 
University of Tokyo Team, {Faculty of Engineering, University of Tokyo

>  <COMMENT>  (1795) 
SMILES=COc(c1)ccc(C)c1
cas=104-93-8
InChI=InChI=1S/C8H10O/c1-7-3-5-8(9-2)6-4-7/h3-6H,1-2H3
computed SMILES=O(C1=CC=C(C=C1)C)C
accession=JP009542
date=2016.01.19 (Created 2008.10.21, modified 2011.05.06)
author=NARA WOMEN'S UNIVERSITY
license=CC BY-NC-SA
exact mass=122.07316
ionization energy=70 eV
ion type=[M]+*
computed spectral entropy=2.6797015042433263
computed normalized entropy=0.7663937392200076
SPLASH=splash10-00fr-9800000000-7bf81d1ff4cffad22e15
submitter=submitter = University of Tokyo Team (Faculty of Engineering, University of Tokyo)
MoNA Rating=3.75

>  <NUM PEAKS>  (1795) 
33

>  <MASS SPECTRAL PEAKS>  (1795) 
26 1.19
28 2.29
29 2.41
30 1.05
38 1.87
39 8.11
41 1.1
50 5.66
51 13.77
52 6.15
53 7.25
61 1.24
62 3.05
63 6.9
64 1.99
65 7.54
74 1.38
75 1.13
76 1.05
77 40.2
78 14.48
79 29.47
80 2.01
89 3.55
90 1.83
91 20.98
92 8.54
93 1.58
107 30.52
108 3.17
121 40.36
122 99.99
123 9.05

$$$$

     RDKit          2D

  9  9  0  0  0  0  0  0  0  0999 V2000
    2.9228   -0.2425    0.0000 C   0  0  0  0  0  0  0  0  0  0  0  0
    1.6233   -0.9933    0.0000 C   0  0  0  0  0  0  0  0  0  0  0  0
    2.9233    1.2583    0.0000 C   0  0  0  0  0  0  0  0  0  0  0  0
    0.3243   -0.2433    0.0000 C   0  0  0  0  0  0  0  0  0  0  0  0
    1.6243    2.0083    0.0000 C   0  0  0  0  0  0  0  0  0  0  0  0
   -2.2733    1.2575    0.0000 C   0  0  0  0  0  0  0  0  0  0  0  0
    0.3248    1.2575    0.0000 C   0  0  0  0  0  0  0  0  0  0  0  0
   -0.9743    2.0075    0.0000 N   0  0  0  0  0  0  0  0  0  0  0  0
   -3.5724    2.0075    0.0000 O   0  0  0  0  0  0  0  0  0  0  0  0
  2  1  2  0
  3  1  1  0
  4  2  1  0
  5  3  2  0
  7  4  2  0
  7  5  1  0
  8  6  2  3
  8  7  1  0
  9  6  1  0
M  END
>  <NAME>  (1796) 
FORMANILIDE

>  <SYNONYMS>  (1796) 


>  <SPECTRUM TYPE>  (1796) 
MS1

>  <INSTRUMENT TYPE>  (1796) 
EI-B

>  <INSTRUMENT>  (1796) 
HITACHI M-80

>  <ION MODE>  (1796) 
P

>  <INCHIKEY>  (1796) 
DYDNPESBYVVLBO-UHFFFAOYSA-N

>  <FORMULA>  (1796) 
C7H7NO

>  <EXACT MASS>  (1796) 
121.052763844

>  <MW>  (1796) 
121

>  <ID>  (1796) 
JP009541

>  <CONTRIBUTOR>  (1796) 
University of Tokyo Team, {Faculty of Engineering, University of Tokyo

>  <COMMENT>  (1796) 
SMILES=O=CNc(c1)cccc1
cas=103-70-8
InChI=InChI=1S/C7H7NO/c9-6-8-7-4-2-1-3-5-7/h1-6H,(H,8,9)
computed SMILES=OC=NC=1C=CC=CC1
accession=JP009541
date=2016.01.19 (Created 2008.10.21, modified 2011.05.06)
author=NARA WOMEN'S UNIVERSITY
license=CC BY-NC-SA
exact mass=121.05276
ionization energy=70 eV
ion type=[M]+*
computed spectral entropy=1.698134312629543
computed normalized entropy=0.599366904787474
SPLASH=splash10-00di-5900000000-7cdbe066b73caa780cd4
submitter=submitter = University of Tokyo Team (Faculty of Engineering, University of Tokyo)
MoNA Rating=3.75

>  <NUM PEAKS>  (1796) 
17

>  <MASS SPECTRAL PEAKS>  (1796) 
29 2.98
63 2.9
65 4.23
66 3.14
67 1.44
92 3.56
93 68.53
94 7.81
121 99.99
122 46.94
123 3.53
130 2.1
132 1.46
154 1.02
158 1.35
160 2.24
186 1.14

$$$$

     RDKit          2D

 11 10  0  0  0  0  0  0  0  0999 V2000
   -6.8200    5.0625    0.0000 C   0  0  0  0  0  0  0  0  0  0  0  0
   -5.5209    2.8125    0.0000 C   0  0  0  0  0  0  0  0  0  0  0  0
   -0.3248    2.8125    0.0000 C   0  0  0  0  0  0  0  0  0  0  0  0
   -2.9228    4.3125    0.0000 C   0  0  0  0  0  0  0  0  0  0  0  0
   -4.2219    5.0625    0.0000 C   0  0  0  0  0  0  0  0  0  0  0  0
   -1.6238    5.0625    0.0000 C   0  0  0  0  0  0  0  0  0  0  0  0
    0.9743    5.0625    0.0000 C   0  0  0  0  0  0  0  0  0  0  0  0
    2.2733    4.3125    0.0000 C   0  0  0  0  0  0  0  0  0  0  0  0
   -5.5209    4.3125    0.0000 C   0  0  0  0  0  0  0  0  0  0  0  0
   -0.3248    4.3125    0.0000 C   0  0  0  0  0  0  0  0  0  0  0  0
    3.5724    5.0625    0.0000 Br  0  0  0  0  0  0  0  0  0  0  0  0
  5  4  1  0
  6  4  1  0
  8  7  1  0
  9  1  1  0
  9  2  1  0
  9  5  2  0
 10  3  1  0
 10  6  1  0
  7 10  2  0
 11  8  1  0
M  END
>  <NAME>  (1797) 
GERANYL BROMIDE

>  <SYNONYMS>  (1797) 
TRANS-1-BROMO-3,7-DIMETHYL-2,6-OCTADIENE

>  <SPECTRUM TYPE>  (1797) 
MS1

>  <INSTRUMENT TYPE>  (1797) 
EI-B

>  <INSTRUMENT>  (1797) 
HITACHI M-80

>  <ION MODE>  (1797) 
P

>  <INCHIKEY>  (1797) 
JSCUZAYKVZXKQE-JXMROGBWSA-N

>  <FORMULA>  (1797) 
C10H17Br

>  <EXACT MASS>  (1797) 
216.051362644

>  <MW>  (1797) 
216

>  <ID>  (1797) 
JP009540

>  <CONTRIBUTOR>  (1797) 
University of Tokyo Team, {Faculty of Engineering, University of Tokyo

>  <COMMENT>  (1797) 
SMILES=CC(C)=CCCC(C)=CCBr
cas=6138-90-5
InChI=InChI=1S/C10H17Br/c1-9(2)5-4-6-10(3)7-8-11/h5,7H,4,6,8H2,1-3H3/b10-7+
computed SMILES=BrCC=C(C)CCC=C(C)C
accession=JP009540
date=2016.01.19 (Created 2008.10.21, modified 2011.05.06)
author=NARA WOMEN'S UNIVERSITY
license=CC BY-NC-SA
exact mass=216.05136
ionization energy=70 eV
ion type=[M]+*
computed spectral entropy=3.0862045353389886
computed normalized entropy=0.7736818446283702
SPLASH=splash10-014i-9000000000-06cebcea3d02f729242f
submitter=submitter = University of Tokyo Team (Faculty of Engineering, University of Tokyo)
MoNA Rating=3.75

>  <NUM PEAKS>  (1797) 
54

>  <MASS SPECTRAL PEAKS>  (1797) 
15 1.39
26 1.33
27 17.95
29 10.01
38 1.53
39 24.73
40 6.57
41 64.28
42 5.03
43 6.4
50 1.72
51 5.22
52 3.24
53 19.55
54 2.91
55 13.36
56 1.7
57 2.99
59 2.57
63 1.45
65 4.11
66 2.25
67 22.6
68 18.16
69 99.99
70 5.78
71 1.04
77 5.3
78 1.35
79 6.52
80 1.96
81 41.21
82 3.68
83 1.76
91 4.58
92 1.69
93 7.97
94 1.77
95 9.76
96 1.91
105 1.99
107 1.72
109 1.4
110 0.99
121 3.06
123 1.06
135 0.88
136 3.95
137 24.7
138 2.76
173 1.21
175 1.15
178 0.87
217 0.8

$$$$

     RDKit          2D

 10 10  0  0  0  0  0  0  0  0999 V2000
   -0.3325    2.8100    0.0000 C   0  0  0  0  0  0  0  0  0  0  0  0
    2.2687   -3.1902    0.0000 C   0  0  0  0  0  0  0  0  0  0  0  0
    3.5681   -0.9404    0.0000 C   0  0  0  0  0  0  0  0  0  0  0  0
   -1.6200   -0.9400    0.0000 C   0  0  0  0  0  0  0  0  0  0  0  0
   -1.6200    0.5600    0.0000 C   0  0  0  0  0  0  0  0  0  0  0  0
   -0.3300   -1.6900    0.0000 C   0  0  0  0  0  0  0  0  0  0  0  0
    0.9700    0.5600    0.0000 C   0  0  0  0  0  0  0  0  0  0  0  0
   -0.3300    1.3100    0.0000 C   0  0  0  0  0  0  0  0  0  0  0  0
    0.9700   -0.9400    0.0000 C   0  0  0  0  0  0  0  0  0  0  0  0
    2.2689   -1.6902    0.0000 N   0  0  0  0  0  0  0  0  0  0  0  0
  5  4  2  0
  6  4  1  0
  8  1  1  0
  8  5  1  0
  8  7  2  0
  9  6  2  0
  9  7  1  0
 10  2  1  0
 10  3  1  0
 10  9  1  0
M  END
>  <NAME>  (1798) 
N,N-DIMETHYL-META-TOLUIDINE

>  <SYNONYMS>  (1798) 


>  <SPECTRUM TYPE>  (1798) 
MS1

>  <INSTRUMENT TYPE>  (1798) 
EI-B

>  <INSTRUMENT>  (1798) 
HITACHI M-80

>  <ION MODE>  (1798) 
P

>  <INCHIKEY>  (1798) 
CWOMTHDOJCARBY-UHFFFAOYSA-N

>  <FORMULA>  (1798) 
C9H13N

>  <EXACT MASS>  (1798) 
135.104799416

>  <MW>  (1798) 
135

>  <ID>  (1798) 
JP009539

>  <CONTRIBUTOR>  (1798) 
University of Tokyo Team, {Faculty of Engineering, University of Tokyo

>  <COMMENT>  (1798) 
SMILES=CN(C)c(c1)cc(C)cc1
cas=121-72-2
InChI=InChI=1S/C9H13N/c1-8-5-4-6-9(7-8)10(2)3/h4-7H,1-3H3
computed SMILES=C=1C=C(C=C(C1)C)N(C)C
accession=JP009539
date=2016.01.19 (Created 2008.10.21, modified 2011.05.06)
author=NARA WOMEN'S UNIVERSITY
license=CC BY-NC-SA
exact mass=135.1048
ionization energy=70 eV
ion type=[M]+*
computed spectral entropy=2.044732528301646
computed normalized entropy=0.6072328157487308
SPLASH=splash10-001r-1900000000-b1df3d8df6cfbec7296c
submitter=submitter = University of Tokyo Team (Faculty of Engineering, University of Tokyo)
MoNA Rating=3.75

>  <NUM PEAKS>  (1798) 
29

>  <MASS SPECTRAL PEAKS>  (1798) 
15 1.29
28 1.94
39 2.29
42 3.82
44 1.37
51 1.3
63 1.64
65 5.31
67 1.33
77 3.64
78 1.43
79 1.2
89 1.49
90 1
91 15.25
92 3.02
93 1.55
104 1.06
105 1.85
106 1.22
118 8.99
119 9.02
120 5.82
121 1.6
132 1.37
133 1.43
134 99.99
135 83.93
136 7.39

$$$$

     RDKit          2D

  9  9  0  0  0  0  0  0  0  0999 V2000
   -1.6205    0.1948    0.0000 C   0  0  0  0  0  0  0  0  0  0  0  0
   -0.3171   -0.5477    0.0000 C   0  0  0  0  0  0  0  0  0  0  0  0
    2.2488    2.4423    0.0000 C   0  0  0  0  0  0  0  0  0  0  0  0
    3.5317    1.7146    0.0000 C   0  0  0  0  0  0  0  0  0  0  0  0
    0.9717    1.6899    0.0000 C   0  0  0  0  0  0  0  0  0  0  0  0
    3.5679    0.2150    0.0000 C   0  0  0  0  0  0  0  0  0  0  0  0
    0.9776    0.2098    0.0000 C   0  0  0  0  0  0  0  0  0  0  0  0
    2.2604   -0.5180    0.0000 C   0  0  0  0  0  0  0  0  0  0  0  0
    2.2567   -2.0179    0.0000 N   0  0  0  0  0  0  0  0  0  0  0  0
  2  1  1  0
  4  3  2  0
  5  3  1  0
  6  4  1  0
  7  2  1  0
  7  5  2  0
  8  6  2  0
  8  7  1  0
  9  8  1  0
M  END
>  <NAME>  (1799) 
2-ETHYLANILINE

>  <SYNONYMS>  (1799) 


>  <SPECTRUM TYPE>  (1799) 
MS1

>  <INSTRUMENT TYPE>  (1799) 
EI-B

>  <INSTRUMENT>  (1799) 
HITACHI M-80

>  <ION MODE>  (1799) 
P

>  <INCHIKEY>  (1799) 
MLPVBIWIRCKMJV-UHFFFAOYSA-N

>  <FORMULA>  (1799) 
C8H11N

>  <EXACT MASS>  (1799) 
121.08914935199999

>  <MW>  (1799) 
121

>  <ID>  (1799) 
JP009538

>  <CONTRIBUTOR>  (1799) 
University of Tokyo Team, {Faculty of Engineering, University of Tokyo

>  <COMMENT>  (1799) 
SMILES=CCc(c1)c(N)ccc1
cas=578-54-1
InChI=InChI=1S/C8H11N/c1-2-7-5-3-4-6-8(7)9/h3-6H,2,9H2,1H3
computed SMILES=NC=1C=CC=CC1CC
accession=JP009538
date=2016.01.19 (Created 2008.10.21, modified 2011.05.06)
author=NARA WOMEN'S UNIVERSITY
license=CC BY-NC-SA
exact mass=121.08915
ionization energy=70 eV
ion type=[M]+*
computed spectral entropy=2.0422707424500484
computed normalized entropy=0.6268294136214397
SPLASH=splash10-0a4i-2900000000-29c46d82c093819da44c
submitter=submitter = University of Tokyo Team (Faculty of Engineering, University of Tokyo)
MoNA Rating=3.75

>  <NUM PEAKS>  (1799) 
26

>  <MASS SPECTRAL PEAKS>  (1799) 
28 2.12
39 2.3
51 1.8
52 1.4
53 1.82
63 1.05
65 3.19
66 1.38
77 10.39
78 3.71
79 5.99
80 1.58
91 3.27
92 1.35
93 2.47
94 1.12
103 2.48
104 2.17
106 99.99
107 8.47
117 1.14
118 2.76
119 2.45
120 4.83
121 46.86
122 4.51

$$$$

     RDKit          2D

  8  8  0  0  0  0  0  0  0  0999 V2000
   -1.3000    0.7500    0.0000 C   0  0  0  0  0  0  0  0  0  0  0  0
    0.0000    1.5000    0.0000 C   0  0  0  0  0  0  0  0  0  0  0  0
   -1.3000   -0.7500    0.0000 C   0  0  0  0  0  0  0  0  0  0  0  0
    1.3000    0.7500    0.0000 C   0  0  0  0  0  0  0  0  0  0  0  0
    0.0000   -1.5000    0.0000 C   0  0  0  0  0  0  0  0  0  0  0  0
    1.3000   -0.7500    0.0000 C   0  0  0  0  0  0  0  0  0  0  0  0
   -0.0000   -3.0000    0.0000 F   0  0  0  0  0  0  0  0  0  0  0  0
    2.5989   -1.5002    0.0000 N   0  0  0  0  0  0  0  0  0  0  0  0
  2  1  2  0
  3  1  1  0
  4  2  1  0
  5  3  2  0
  6  4  2  0
  6  5  1  0
  7  5  1  0
  8  6  1  0
M  END
>  <NAME>  (1800) 
2-FLUOROANILINE

>  <SYNONYMS>  (1800) 


>  <SPECTRUM TYPE>  (1800) 
MS1

>  <INSTRUMENT TYPE>  (1800) 
EI-B

>  <INSTRUMENT>  (1800) 
HITACHI M-80

>  <ION MODE>  (1800) 
P

>  <INCHIKEY>  (1800) 
FTZQXOJYPFINKJ-UHFFFAOYSA-N

>  <FORMULA>  (1800) 
C6H6FN

>  <EXACT MASS>  (1800) 
111.048427412

>  <MW>  (1800) 
111

>  <ID>  (1800) 
JP009537

>  <CONTRIBUTOR>  (1800) 
University of Tokyo Team, {Faculty of Engineering, University of Tokyo

>  <COMMENT>  (1800) 
SMILES=Nc(c1)c(F)ccc1
cas=348-54-9
InChI=InChI=1S/C6H6FN/c7-5-3-1-2-4-6(5)8/h1-4H,8H2
computed SMILES=FC=1C=CC=CC1N
accession=JP009537
date=2016.01.19 (Created 2008.10.21, modified 2011.05.06)
author=NARA WOMEN'S UNIVERSITY
license=CC BY-NC-SA
exact mass=111.04843
ionization energy=70 eV
ion type=[M]+*
computed spectral entropy=2.4419784396029667
computed normalized entropy=0.698405021775148
SPLASH=splash10-03di-9800000000-884fd855b4041bc1dc84
submitter=submitter = University of Tokyo Team (Faculty of Engineering, University of Tokyo)
MoNA Rating=3.75

>  <NUM PEAKS>  (1800) 
33

>  <MASS SPECTRAL PEAKS>  (1800) 
27 1.02
28 4.8
31 1.24
37 1.12
38 2.65
39 4.68
40 1.11
41 4.02
50 1.69
51 2
52 5.37
56 1.75
57 8.88
58 1.12
61 1.01
62 1.79
63 7.19
64 13.04
65 5.44
72 1.31
75 1.12
78 1.04
81 1.9
82 1.66
83 17.64
84 17.34
85 2.55
90 1.58
91 8.43
92 1.11
110 4.54
111 99.99
112 7.3

$$$$

     RDKit          2D

 10 10  0  0  0  0  0  0  0  0999 V2000
   -1.3000   -0.7500    0.0000 C   0  0  0  0  0  0  0  0  0  0  0  0
    0.0000    1.5000    0.0000 C   0  0  0  0  0  0  0  0  0  0  0  0
    0.0000   -1.5000    0.0000 C   0  0  0  0  0  0  0  0  0  0  0  0
    1.3000    0.7500    0.0000 C   0  0  0  0  0  0  0  0  0  0  0  0
   -2.5989    1.5002    0.0000 C   0  0  0  0  0  0  0  0  0  0  0  0
   -3.8981    0.7504    0.0000 C   0  0  0  0  0  0  0  0  0  0  0  0
   -1.3000    0.7500    0.0000 C   0  0  0  0  0  0  0  0  0  0  0  0
    1.3000   -0.7500    0.0000 C   0  0  0  0  0  0  0  0  0  0  0  0
   -5.1972    0.0006    0.0000 N   0  0  0  0  0  0  0  0  0  0  0  0
    2.5989   -1.5002    0.0000 N   0  0  0  0  0  0  0  0  0  0  0  0
  3  1  2  0
  4  2  1  0
  6  5  1  0
  7  1  1  0
  7  2  2  0
  7  5  1  0
  8  3  1  0
  8  4  2  0
  9  6  3  0
 10  8  1  0
M  END
>  <NAME>  (1801) 
4-AMINOBENZYL CYANIDE

>  <SYNONYMS>  (1801) 


>  <SPECTRUM TYPE>  (1801) 
MS1

>  <INSTRUMENT TYPE>  (1801) 
EI-B

>  <INSTRUMENT>  (1801) 
HITACHI M-80

>  <ION MODE>  (1801) 
P

>  <INCHIKEY>  (1801) 
YCWRFIYBUQBHJI-UHFFFAOYSA-N

>  <FORMULA>  (1801) 
C8H8N2

>  <EXACT MASS>  (1801) 
132.068748256

>  <MW>  (1801) 
132

>  <ID>  (1801) 
JP009536

>  <CONTRIBUTOR>  (1801) 
University of Tokyo Team, {Faculty of Engineering, University of Tokyo

>  <COMMENT>  (1801) 
SMILES=N#CCc(c1)ccc(N)c1
cas=3544-25-0
InChI=InChI=1S/C8H8N2/c9-6-5-7-1-3-8(10)4-2-7/h1-4H,5,10H2
computed SMILES=N#CCC1=CC=C(N)C=C1
accession=JP009536
date=2016.01.19 (Created 2008.10.21, modified 2011.05.06)
author=NARA WOMEN'S UNIVERSITY
license=CC BY-NC-SA
exact mass=132.06875
ionization energy=70 eV
ion type=[M]+*
computed spectral entropy=2.419333711991178
computed normalized entropy=0.6751279269179755
SPLASH=splash10-001i-2900000000-930ebf0dac8f57605dab
submitter=submitter = University of Tokyo Team (Faculty of Engineering, University of Tokyo)
MoNA Rating=3.75

>  <NUM PEAKS>  (1801) 
36

>  <MASS SPECTRAL PEAKS>  (1801) 
18 1.11
27 1.55
28 6.06
38 1.02
39 4.06
40 1.1
41 2.15
50 2.3
51 5.96
52 5.07
53 2.29
54 1.9
62 1.08
63 3.42
64 2.05
65 4.47
66 2.91
75 1.21
76 3.2
77 13.72
78 7.68
79 2.41
80 1.55
89 1.13
91 1.75
93 1.04
102 1.52
103 2.28
104 21.36
105 9.58
106 13.29
107 1.13
116 1.34
131 86.22
132 99.99
133 9.87

$$$$

     RDKit          2D

  7  7  0  0  0  0  0  0  0  0999 V2000
   -1.3000   -0.7500    0.0000 C   0  0  0  0  0  0  0  0  0  0  0  0
   -1.3000    0.7500    0.0000 C   0  0  0  0  0  0  0  0  0  0  0  0
   -0.0000   -1.5000    0.0000 C   0  0  0  0  0  0  0  0  0  0  0  0
    1.3000    0.7500    0.0000 C   0  0  0  0  0  0  0  0  0  0  0  0
    2.5989    1.5002    0.0000 N   0  0  0  0  0  0  0  0  0  0  0  0
    0.0000    1.5000    0.0000 N   0  0  0  0  0  0  0  0  0  0  0  0
    1.3000   -0.7500    0.0000 N   0  0  0  0  0  0  0  0  0  0  0  0
  2  1  2  0
  3  1  1  0
  5  4  2  0
  6  2  1  0
  6  4  1  0
  7  3  2  0
  7  4  1  0
M  END
>  <NAME>  (1802) 
2-AMINOPYRIMIDINE

>  <SYNONYMS>  (1802) 


>  <SPECTRUM TYPE>  (1802) 
MS1

>  <INSTRUMENT TYPE>  (1802) 
EI-B

>  <INSTRUMENT>  (1802) 
HITACHI M-80

>  <ION MODE>  (1802) 
P

>  <INCHIKEY>  (1802) 
LJXQPZWIHJMPQQ-UHFFFAOYSA-N

>  <FORMULA>  (1802) 
C4H5N3

>  <EXACT MASS>  (1802) 
95.04834715999999

>  <MW>  (1802) 
95

>  <ID>  (1802) 
JP009535

>  <CONTRIBUTOR>  (1802) 
University of Tokyo Team, {Faculty of Engineering, University of Tokyo

>  <COMMENT>  (1802) 
SMILES=Nc(n1)nccc1
cas=109-12-6
InChI=InChI=1S/C4H5N3/c5-4-6-2-1-3-7-4/h1-3H,(H2,5,6,7)
computed SMILES=N=C1N=CC=CN1
accession=JP009535
date=2016.01.19 (Created 2008.10.21, modified 2011.05.06)
author=NARA WOMEN'S UNIVERSITY
license=CC BY-NC-SA
exact mass=95.04835
ionization energy=70 eV
ion type=[M]+*
computed spectral entropy=2.2082810593360147
computed normalized entropy=0.7499836386356938
SPLASH=splash10-0002-9000000000-255ea907dd659837b2e4
submitter=submitter = University of Tokyo Team (Faculty of Engineering, University of Tokyo)
MoNA Rating=3.75

>  <NUM PEAKS>  (1802) 
19

>  <MASS SPECTRAL PEAKS>  (1802) 
26 3.87
27 2.39
28 10.46
38 1.41
39 2.56
40 11.45
41 18.86
42 24.73
43 8.44
51 2.02
52 5.83
53 4.4
66 1.84
67 9.54
68 31.86
69 1.66
94 4.41
95 99.99
96 15.4

$$$$

     RDKit          2D

 15 16  0  0  0  0  0  0  0  0999 V2000
    2.2729    1.6330    0.0000 C   0  0  0  0  0  0  0  0  0  0  0  0
    2.2734    3.1338    0.0000 C   0  0  0  0  0  0  0  0  0  0  0  0
    0.9734    0.8821    0.0000 C   0  0  0  0  0  0  0  0  0  0  0  0
    0.9744    3.8838    0.0000 C   0  0  0  0  0  0  0  0  0  0  0  0
   -0.3256    1.6321    0.0000 C   0  0  0  0  0  0  0  0  0  0  0  0
   -4.2224    3.8828    0.0000 C   0  0  0  0  0  0  0  0  0  0  0  0
   -2.9235    1.6321    0.0000 C   0  0  0  0  0  0  0  0  0  0  0  0
   -5.5218    3.1317    0.0000 C   0  0  0  0  0  0  0  0  0  0  0  0
   -4.2229    0.8811    0.0000 C   0  0  0  0  0  0  0  0  0  0  0  0
   -0.3252    3.1330    0.0000 C   0  0  0  0  0  0  0  0  0  0  0  0
   -2.9232    3.1330    0.0000 C   0  0  0  0  0  0  0  0  0  0  0  0
   -5.5220    1.6309    0.0000 C   0  0  0  0  0  0  0  0  0  0  0  0
   -1.6242    3.8830    0.0000 C   0  0  0  0  0  0  0  0  0  0  0  0
   -6.8211    0.8809    0.0000 N   0  0  0  0  0  0  0  0  0  0  0  0
   -1.6242    5.3830    0.0000 O   0  0  0  0  0  0  0  0  0  0  0  0
  2  1  2  0
  3  1  1  0
  4  2  1  0
  5  3  2  0
  8  6  2  0
  9  7  1  0
 10  4  2  0
 10  5  1  0
 11  6  1  0
 11  7  2  0
 12  8  1  0
 12  9  2  0
 13 10  1  0
 13 11  1  0
 14 12  1  0
 15 13  2  0
M  END
>  <NAME>  (1803) 
4-AMINOBENZOPHENONE

>  <SYNONYMS>  (1803) 


>  <SPECTRUM TYPE>  (1803) 
MS1

>  <INSTRUMENT TYPE>  (1803) 
EI-B

>  <INSTRUMENT>  (1803) 
HITACHI M-80

>  <ION MODE>  (1803) 
P

>  <INCHIKEY>  (1803) 
RBKHNGHPZZZJCI-UHFFFAOYSA-N

>  <FORMULA>  (1803) 
C13H11NO

>  <EXACT MASS>  (1803) 
197.084063972

>  <MW>  (1803) 
197

>  <ID>  (1803) 
JP009534

>  <CONTRIBUTOR>  (1803) 
University of Tokyo Team, {Faculty of Engineering, University of Tokyo

>  <COMMENT>  (1803) 
SMILES=Nc(c2)ccc(c2)C(=O)c(c1)cccc1
cas=1137-41-3
InChI=InChI=1S/C13H11NO/c14-12-8-6-11(7-9-12)13(15)10-4-2-1-3-5-10/h1-9H,14H2
computed SMILES=O=C(C=1C=CC=CC1)C2=CC=C(N)C=C2
accession=JP009534
date=2016.01.19 (Created 2008.10.21, modified 2011.05.06)
author=NARA WOMEN'S UNIVERSITY
license=CC BY-NC-SA
exact mass=197.08406
ionization energy=70 eV
ion type=[M]+*
computed spectral entropy=1.8548840846937624
computed normalized entropy=0.6092528869916207
SPLASH=splash10-00dj-1900000000-29ea0fb93caac8947395
submitter=submitter = University of Tokyo Team (Faculty of Engineering, University of Tokyo)
MoNA Rating=3.75

>  <NUM PEAKS>  (1803) 
21

>  <MASS SPECTRAL PEAKS>  (1803) 
39 1.13
51 1.59
65 7.62
66 1
77 7.28
78 1.28
92 11.82
93 1.64
105 6.35
120 99.99
121 8.16
141 1.37
167 1.37
168 2.02
169 1.57
180 1.33
195 1.55
196 3.87
197 80.09
198 15.22
199 1.47

$$$$

     RDKit          2D

  8  8  0  0  0  0  0  0  0  0999 V2000
   -2.5989    1.5002    0.0000 C   0  0  0  0  0  0  0  0  0  0  0  0
   -1.3000   -0.7500    0.0000 C   0  0  0  0  0  0  0  0  0  0  0  0
    0.0000    1.5000    0.0000 C   0  0  0  0  0  0  0  0  0  0  0  0
    0.0000   -1.5000    0.0000 C   0  0  0  0  0  0  0  0  0  0  0  0
    1.3000    0.7500    0.0000 C   0  0  0  0  0  0  0  0  0  0  0  0
   -1.3000    0.7500    0.0000 C   0  0  0  0  0  0  0  0  0  0  0  0
    1.3000   -0.7500    0.0000 C   0  0  0  0  0  0  0  0  0  0  0  0
    2.5989   -1.5002    0.0000 N   0  0  0  0  0  0  0  0  0  0  0  0
  4  2  2  0
  5  3  1  0
  6  1  1  0
  6  2  1  0
  6  3  2  0
  7  4  1  0
  7  5  2  0
  8  7  1  0
M  END
>  <NAME>  (1804) 
PARA-TOLUIDINE

>  <SYNONYMS>  (1804) 


>  <SPECTRUM TYPE>  (1804) 
MS1

>  <INSTRUMENT TYPE>  (1804) 
EI-B

>  <INSTRUMENT>  (1804) 
HITACHI M-80

>  <ION MODE>  (1804) 
P

>  <INCHIKEY>  (1804) 
RZXMPPFPUUCRFN-UHFFFAOYSA-N

>  <FORMULA>  (1804) 
C7H9N

>  <EXACT MASS>  (1804) 
107.073499288

>  <MW>  (1804) 
107

>  <ID>  (1804) 
JP009533

>  <CONTRIBUTOR>  (1804) 
University of Tokyo Team, {Faculty of Engineering, University of Tokyo

>  <COMMENT>  (1804) 
SMILES=Cc(c1)ccc(N)c1
cas=106-49-0
InChI=InChI=1S/C7H9N/c1-6-2-4-7(8)5-3-6/h2-5H,8H2,1H3
computed SMILES=NC1=CC=C(C=C1)C
accession=JP009533
date=2016.01.19 (Created 2008.10.21, modified 2011.05.06)
author=NARA WOMEN'S UNIVERSITY
license=CC BY-NC-SA
exact mass=107.0735
ionization energy=70 eV
ion type=[M]+*
computed spectral entropy=1.2365542348131524
computed normalized entropy=0.5156831696699079
SPLASH=splash10-0a4i-0900000000-26d49344f064be566137
submitter=submitter = University of Tokyo Team (Faculty of Engineering, University of Tokyo)
MoNA Rating=3.75

>  <NUM PEAKS>  (1804) 
11

>  <MASS SPECTRAL PEAKS>  (1804) 
52 1.26
53 1.32
77 5.1
78 1.7
79 4.37
80 2.15
91 1.12
104 1.09
106 73.1
107 99.99
108 8.36

$$$$

     RDKit          2D

  7  7  0  0  0  0  0  0  0  0999 V2000
    0.0000   -1.5000    0.0000 C   0  0  0  0  0  0  0  0  0  0  0  0
    1.3000    0.7500    0.0000 C   0  0  0  0  0  0  0  0  0  0  0  0
   -1.3000    0.7500    0.0000 C   0  0  0  0  0  0  0  0  0  0  0  0
   -2.5989    1.5002    0.0000 N   0  0  0  0  0  0  0  0  0  0  0  0
    1.3000   -0.7500    0.0000 N   0  0  0  0  0  0  0  0  0  0  0  0
   -1.3000   -0.7500    0.0000 N   0  0  0  0  0  0  0  0  0  0  0  0
    0.0000    1.5000    0.0000 N   0  0  0  0  0  0  0  0  0  0  0  0
  4  3  2  0
  5  1  2  0
  5  2  1  0
  6  1  1  0
  6  3  1  0
  7  2  2  0
  7  3  1  0
M  END
>  <NAME>  (1805) 
2-AMINO-1,3,5-TRIAZINE

>  <SYNONYMS>  (1805) 


>  <SPECTRUM TYPE>  (1805) 
MS1

>  <INSTRUMENT TYPE>  (1805) 
EI-B

>  <INSTRUMENT>  (1805) 
HITACHI M-80

>  <ION MODE>  (1805) 
P

>  <INCHIKEY>  (1805) 
KCZIUKYAJJEIQG-UHFFFAOYSA-N

>  <FORMULA>  (1805) 
C3H4N4

>  <EXACT MASS>  (1805) 
96.04359612799999

>  <MW>  (1805) 
96

>  <ID>  (1805) 
JP009532

>  <CONTRIBUTOR>  (1805) 
University of Tokyo Team, {Faculty of Engineering, University of Tokyo

>  <COMMENT>  (1805) 
SMILES=Nc(n1)ncnc1
InChI=InChI=1S/C3H4N4/c4-3-6-1-5-2-7-3/h1-2H,(H2,4,5,6,7)
computed SMILES=N=C1N=CN=CN1
accession=JP009532
date=2016.01.19 (Created 2008.10.21, modified 2011.05.06)
author=NARA WOMEN'S UNIVERSITY
license=CC BY-NC-SA
exact mass=96.0436
ionization energy=70 eV
ion type=[M]+*
computed spectral entropy=2.167740991850186
computed normalized entropy=0.7120134721264001
SPLASH=splash10-002g-9000000000-317625f62ac9ebc4314d
submitter=submitter = University of Tokyo Team (Faculty of Engineering, University of Tokyo)
MoNA Rating=3.75

>  <NUM PEAKS>  (1805) 
21

>  <MASS SPECTRAL PEAKS>  (1805) 
13 1.5
14 1.47
16 1.28
17 1.18
27 11.62
28 45.33
29 1.3
38 1.19
39 1.99
40 1.78
41 11.11
42 60.14
43 40.66
53 9.83
54 7.85
55 1.02
67 1.2
68 9.08
69 11.65
96 99.99
97 7.94

$$$$

     RDKit          2D

 14 15  0  0  0  0  0  0  0  0999 V2000
    3.8989   -1.5002    0.0000 C   0  0  0  0  0  0  0  0  0  0  0  0
   -5.1981    0.7504    0.0000 C   0  0  0  0  0  0  0  0  0  0  0  0
   -2.6000   -0.7500    0.0000 C   0  0  0  0  0  0  0  0  0  0  0  0
   -1.3000   -1.5000    0.0000 C   0  0  0  0  0  0  0  0  0  0  0  0
    2.6000    0.7500    0.0000 C   0  0  0  0  0  0  0  0  0  0  0  0
   -1.3000    1.5000    0.0000 C   0  0  0  0  0  0  0  0  0  0  0  0
    2.6000   -0.7500    0.0000 C   0  0  0  0  0  0  0  0  0  0  0  0
   -2.6000    0.7500    0.0000 C   0  0  0  0  0  0  0  0  0  0  0  0
   -0.0000    0.7500    0.0000 C   0  0  0  0  0  0  0  0  0  0  0  0
    1.3000    1.5000    0.0000 C   0  0  0  0  0  0  0  0  0  0  0  0
   -0.0000   -0.7500    0.0000 C   0  0  0  0  0  0  0  0  0  0  0  0
    1.3000    3.0000    0.0000 Cl  0  0  0  0  0  0  0  0  0  0  0  0
    1.3000   -1.5000    0.0000 N   0  0  0  0  0  0  0  0  0  0  0  0
   -3.8989    1.5002    0.0000 O   0  0  0  0  0  0  0  0  0  0  0  0
  4  3  2  0
  7  1  1  0
  7  5  1  0
  8  3  1  0
  8  6  2  0
  9  6  1  0
 10  5  2  0
 10  9  1  0
 11  4  1  0
 11  9  2  0
 12 10  1  0
 13  7  2  0
 13 11  1  0
 14  2  1  0
 14  8  1  0
M  END
>  <NAME>  (1806) 
6-METHOXY-4-CHLOROQUINALIDINE

>  <SYNONYMS>  (1806) 


>  <SPECTRUM TYPE>  (1806) 
MS1

>  <INSTRUMENT TYPE>  (1806) 
EI-B

>  <INSTRUMENT>  (1806) 
HITACHI M-80

>  <ION MODE>  (1806) 
P

>  <INCHIKEY>  (1806) 
WABDZSKKLDCIRM-UHFFFAOYSA-N

>  <FORMULA>  (1806) 
C11H10ClNO

>  <EXACT MASS>  (1806) 
207.04509162

>  <MW>  (1806) 
207

>  <ID>  (1806) 
JP009531

>  <CONTRIBUTOR>  (1806) 
University of Tokyo Team, {Faculty of Engineering, University of Tokyo

>  <COMMENT>  (1806) 
SMILES=COc(c2)cc(c(Cl)1)c(c2)nc(C)c1
InChI=InChI=1S/C11H10ClNO/c1-7-5-10(12)9-6-8(14-2)3-4-11(9)13-7/h3-6H,1-2H3
computed SMILES=ClC1=CC(=NC=2C=CC(OC)=CC12)C
accession=JP009531
date=2016.01.19 (Created 2008.10.21, modified 2011.05.06)
author=NARA WOMEN'S UNIVERSITY
license=CC BY-NC-SA
exact mass=207.04509
ionization energy=70 eV
ion type=[M]+*
computed spectral entropy=3.236236952843153
computed normalized entropy=0.787238202817968
SPLASH=splash10-0a4i-2950000000-b371aa6905c4a211f0c4
submitter=submitter = University of Tokyo Team (Faculty of Engineering, University of Tokyo)
MoNA Rating=3.75

>  <NUM PEAKS>  (1806) 
61

>  <MASS SPECTRAL PEAKS>  (1806) 
15 5.52
18 1.09
38 1
39 1.82
50 3.52
51 5.45
52 2.43
61 1.24
62 6.57
63 4.27
64 1.01
73 1.26
74 4.49
75 7.13
76 3.06
77 6.88
78 2.46
80 1.1
86 1.87
87 4.43
88 6
89 1.79
98 1.34
99 3.09
100 2.49
101 12.35
102 14.49
103 2.87
113 1.88
114 3.24
115 1.89
116 4.9
123 1.01
127 2.81
128 16.4
129 10.64
130 1.3
135 1.27
137 5.91
138 1.24
139 2.07
140 4.46
141 1.89
142 1.94
163 1.35
164 62.58
165 6.93
166 20.27
167 2.08
172 3.95
177 4.33
178 2.26
179 1.72
192 35.14
193 4.8
194 11.48
195 1.48
207 99.99
208 13.51
209 32.8
210 4.29

$$$$

     RDKit          2D

 14 15  0  0  0  0  0  0  0  0999 V2000
   -2.6000   -0.7500    0.0000 C   0  0  0  0  0  0  0  0  0  0  0  0
   -2.6000    0.7500    0.0000 C   0  0  0  0  0  0  0  0  0  0  0  0
    2.6000   -0.7500    0.0000 C   0  0  0  0  0  0  0  0  0  0  0  0
   -1.3000   -1.5000    0.0000 C   0  0  0  0  0  0  0  0  0  0  0  0
   -1.3000    1.5000    0.0000 C   0  0  0  0  0  0  0  0  0  0  0  0
    1.3000   -1.5000    0.0000 C   0  0  0  0  0  0  0  0  0  0  0  0
    2.6000    0.7500    0.0000 C   0  0  0  0  0  0  0  0  0  0  0  0
    0.0000   -0.7500    0.0000 C   0  0  0  0  0  0  0  0  0  0  0  0
    0.0000    0.7500    0.0000 C   0  0  0  0  0  0  0  0  0  0  0  0
   -1.3000   -3.0000    0.0000 Cl  0  0  0  0  0  0  0  0  0  0  0  0
   -1.3000    3.0000    0.0000 Cl  0  0  0  0  0  0  0  0  0  0  0  0
    1.3000   -3.0000    0.0000 O   0  0  0  0  0  0  0  0  0  0  0  0
    3.8989    1.5002    0.0000 O   0  0  0  0  0  0  0  0  0  0  0  0
    1.3000    1.5000    0.0000 O   0  0  0  0  0  0  0  0  0  0  0  0
  2  1  2  0
  4  1  1  0
  5  2  1  0
  6  3  1  0
  7  3  1  0
  8  4  2  0
  8  6  1  0
  9  5  2  0
  9  8  1  0
 10  4  1  0
 11  5  1  0
 12  6  2  0
 13  7  1  0
 14  7  1  0
 14  9  1  0
M  END
>  <NAME>  (1807) 
5,8-DICHLORO-4-CHLOMANONE-2-OL

>  <SYNONYMS>  (1807) 


>  <SPECTRUM TYPE>  (1807) 
MS1

>  <INSTRUMENT TYPE>  (1807) 
EI-B

>  <INSTRUMENT>  (1807) 
HITACHI M-80

>  <ION MODE>  (1807) 
P

>  <INCHIKEY>  (1807) 
OBIVNYOBLULRFU-UHFFFAOYSA-N

>  <FORMULA>  (1807) 
C9H6Cl2O3

>  <EXACT MASS>  (1807) 
231.96939941199997

>  <MW>  (1807) 
232

>  <ID>  (1807) 
JP009530

>  <CONTRIBUTOR>  (1807) 
University of Tokyo Team, {Faculty of Engineering, University of Tokyo

>  <COMMENT>  (1807) 
SMILES=OC(C2)Oc(c(Cl)1)c(C(=O)2)c(Cl)cc1
InChI=InChI=1S/C9H6Cl2O3/c10-4-1-2-5(11)9-8(4)6(12)3-7(13)14-9/h1-2,7,13H,3H2
computed SMILES=O=C1C=2C(Cl)=CC=C(Cl)C2OC(O)C1
accession=JP009530
date=2016.01.19 (Created 2008.10.21, modified 2011.05.06)
author=NARA WOMEN'S UNIVERSITY
license=CC BY-NC-SA
exact mass=231.9694
ionization energy=70 eV
ion type=[M]+*
computed spectral entropy=3.847500819779092
computed normalized entropy=0.830145803465577
SPLASH=splash10-000e-4910000000-86669a1aad1f85daf461
submitter=submitter = University of Tokyo Team (Faculty of Engineering, University of Tokyo)
MoNA Rating=3.75

>  <NUM PEAKS>  (1807) 
103

>  <MASS SPECTRAL PEAKS>  (1807) 
15 6.83
26 2.02
27 1.88
29 10.09
37 4.24
38 2.96
39 2.06
41 0.97
42 5.99
43 24.98
44 2.02
47 0.93
49 1.98
50 4.17
51 5.25
52 0.91
53 7.04
60 1.97
61 10.11
62 15.17
63 13.32
64 1
65 1.4
66 1.22
69 4.29
70 2.13
71 18.11
72 2.6
73 11.6
74 6.5
75 7.6
76 1.33
77 4.42
83 1.09
84 1.95
85 2.52
86 2
87 4.07
88 0.92
89 1.17
90 4.26
91 1.39
96 2.53
97 17.92
98 3.29
99 7.6
100 1.18
101 0.98
105 1.08
107 1.56
108 1.05
109 2.86
110 0.9
111 4.51
112 1.38
113 1.6
123 7.41
124 1.07
125 11.77
126 2.84
127 3.58
128 1.36
132 3.31
133 10.01
134 2.75
135 6.22
137 1.09
153 6.17
154 1
155 2.94
157 1
160 14.52
161 2.7
162 12.66
163 2.65
164 4
165 1.01
175 1.49
186 5.1
188 43.86
189 64.11
190 30.5
191 41.17
192 7.23
193 6.47
197 99.99
198 10.37
199 32.32
200 3.31
204 7.43
205 0.92
206 4.76
214 9.27
215 4.48
216 6.42
217 2.84
218 1.21
231 1
232 10.74
233 2.26
234 7.21
235 1.17
236 1.21

$$$$

     RDKit          2D

 14 15  0  0  0  0  0  0  0  0999 V2000
    1.9500   -0.9000    0.0000 C   0  0  0  0  0  0  0  0  0  0  0  0
    0.6300   -1.6600    0.0000 C   0  0  0  0  0  0  0  0  0  0  0  0
    0.6300    1.3800    0.0000 C   0  0  0  0  0  0  0  0  0  0  0  0
   -2.9400   -0.2300    0.0000 C   0  0  0  0  0  0  0  0  0  0  0  0
   -4.0982    0.7231    0.0000 H   0  0  0  0  0  0  0  0  0  0  0  0
   -4.0103   -1.2809    0.0000 H   0  0  0  0  0  0  0  0  0  0  0  0
    1.9500    0.6200    0.0000 C   0  0  0  0  0  0  0  0  0  0  0  0
   -0.6600   -0.9000    0.0000 C   0  0  0  0  0  0  0  0  0  0  0  0
   -0.6600    0.6200    0.0000 C   0  0  0  0  0  0  0  0  0  0  0  0
    3.2486    1.3708    0.0000 C   0  0  0  0  0  0  0  0  0  0  0  0
    3.2477    2.8708    0.0000 O   0  0  0  0  0  0  0  0  0  0  0  0
    4.5481    0.6216    0.0000 O   0  0  0  0  0  0  0  0  0  0  0  0
   -2.0600   -1.3400    0.0000 O   0  0  0  0  0  0  0  0  0  0  0  0
   -2.0900    1.0600    0.0000 O   0  0  0  0  0  0  0  0  0  0  0  0
  4  5  1  0
  4  6  1  0
  2  1  2  0
  7  1  1  0
  7  3  2  0
  8  2  1  0
  9  3  1  0
  9  8  2  0
 10  7  1  0
 11 10  2  0
 12 10  1  0
 13  4  1  0
 13  8  1  0
 14  4  1  0
 14  9  1  0
M  ISO  2   5   2   6   2
M  END
>  <NAME>  (1808) 
PIPERONYLIC ACID-2,2-D2

>  <SYNONYMS>  (1808) 


>  <SPECTRUM TYPE>  (1808) 
MS1

>  <INSTRUMENT TYPE>  (1808) 
EI-B

>  <INSTRUMENT>  (1808) 
HITACHI M-80

>  <ION MODE>  (1808) 
P

>  <INCHIKEY>  (1808) 
VDVJGIYXDVPQLP-APZFVMQVSA-N

>  <FORMULA>  (1808) 
C8H6O4

>  <EXACT MASS>  (1808) 
168.039162164

>  <MW>  (1808) 
168

>  <ID>  (1808) 
JP009529

>  <CONTRIBUTOR>  (1808) 
University of Tokyo Team, {Faculty of Engineering, University of Tokyo

>  <COMMENT>  (1808) 
SMILES=OC(=O)c(c2)cc(O1)c(c2)OC([2H])([2H])1
InChI=InChI=1S/C8H6O4/c9-8(10)5-1-2-6-7(3-5)12-4-11-6/h1-3H,4H2,(H,9,10)/i4D2
computed SMILES=[H]C1([H])OC2=CC=C(C=C2O1)C(=O)O
accession=JP009529
date=2016.01.19 (Created 2008.10.21, modified 2011.05.06)
author=NARA WOMEN'S UNIVERSITY
license=CC BY-NC-SA
exact mass=166.02661
ionization energy=70 eV
ion type=[M]+*
computed spectral entropy=3.120452585172497
computed normalized entropy=0.7652787075778592
SPLASH=splash10-014i-4900000000-cef5628d095e3f32ecfd
submitter=submitter = University of Tokyo Team (Faculty of Engineering, University of Tokyo)
MoNA Rating=3.75

>  <NUM PEAKS>  (1808) 
59

>  <MASS SPECTRAL PEAKS>  (1808) 
18 1
26 1
28 5.2
29 1.9
30 4.2
31 1.7
32 1
37 4
38 5.8
39 6
40 3
41 2
45 3.6
49 1
50 4.8
51 6.5
52 4.2
53 7.3
54 1.8
55 1
56 1
57 1
60 1
60.5 2.2
61 5.3
62 13.6
63 26
64 4.4
65 2.2
66 5.1
67 10.7
68 2
69 2.2
69.5 1
70 5.2
74 1.5
74.5 11.5
75 1.5
79 3.1
80 1
82 2.5
83 1
84 2.3
91 11.2
92 1.6
119 16.5
120 4.2
121 1.6
123 14.3
124 4.5
151 41.3
152 4.3
165 12.8
166 97
167 35
168 99.99
169 13.8
170 1.5
172 4.5

$$$$

     RDKit          2D

  5  4  0  0  0  0  0  0  0  0999 V2000
    0.0000    0.0000    0.0000 C   0  0  0  0  0  0  0  0  0  0  0  0
    1.2990    2.2500    0.0000 C   0  0  0  0  0  0  0  0  0  0  0  0
   -1.2990    2.2500    0.0000 C   0  0  0  0  0  0  0  0  0  0  0  0
    0.0000    1.5000    0.0000 C   0  0  0  0  0  0  0  0  0  0  0  0
   -1.2990    3.7500    0.0000 Cl  0  0  0  0  0  0  0  0  0  0  0  0
  4  1  2  0
  4  2  1  0
  4  3  1  0
  5  3  1  0
M  END
>  <NAME>  (1809) 
3-CHLORO-2-METHYLPROPENE

>  <SYNONYMS>  (1809) 
METHALLYL CHLORIDE

>  <SPECTRUM TYPE>  (1809) 
MS1

>  <INSTRUMENT TYPE>  (1809) 
EI-B

>  <INSTRUMENT>  (1809) 
HITACHI M-80

>  <ION MODE>  (1809) 
P

>  <INCHIKEY>  (1809) 
OHXAOPZTJOUYKM-UHFFFAOYSA-N

>  <FORMULA>  (1809) 
C4H7Cl

>  <EXACT MASS>  (1809) 
90.023627904

>  <MW>  (1809) 
90

>  <ID>  (1809) 
JP009526

>  <CONTRIBUTOR>  (1809) 
University of Tokyo Team, {Faculty of Engineering, University of Tokyo

>  <COMMENT>  (1809) 
SMILES=CC(=C)CCl
cas=563-47-3
InChI=InChI=1S/C4H7Cl/c1-4(2)3-5/h1,3H2,2H3
computed SMILES=ClCC(=C)C
accession=JP009526
date=2016.01.19 (Created 2008.10.21, modified 2011.05.06)
author=NARA WOMEN'S UNIVERSITY
license=CC BY-NC-SA
exact mass=90.02363
ionization energy=70 eV
ion type=[M]+*
computed spectral entropy=3.266277790799708
computed normalized entropy=0.8392673712055507
SPLASH=splash10-000l-9000000000-609b3b297f7f7eaf3ae2
submitter=submitter = University of Tokyo Team (Faculty of Engineering, University of Tokyo)
MoNA Rating=3.75

>  <NUM PEAKS>  (1809) 
49

>  <MASS SPECTRAL PEAKS>  (1809) 
12 1.52
13 10.28
14 18.37
15 1.51
24 1.18
25 9.18
26 37.82
27 14.72
28 22.8
32 1.66
35 7.87
36 6.81
37 15.95
38 23.04
39 99.99
40 15.16
41 28.68
42 4.87
43 41.85
47 2.87
48 4.27
49 39.99
50 17.75
51 22.8
52 6.81
53 31.01
54 21.81
55 60.71
56 21.93
57 3.45
58 4.71
61 1.81
62 3.53
63 4.29
64 1.07
65 2.3
67 3.4
68 1.01
73 2.28
75 7.43
77 4.37
79 2.97
81 2.32
89 5.17
90 7.34
91 2.8
92 2.56
93 1.16
95 2.45

$$$$

     RDKit          2D

  7  7  0  0  0  0  0  0  0  0999 V2000
    2.2289    1.2902    0.0000 C   0  0  0  0  0  0  0  0  0  0  0  0
   -0.3700   -1.7100    0.0000 C   0  0  0  0  0  0  0  0  0  0  0  0
   -1.6700   -0.9600    0.0000 C   0  0  0  0  0  0  0  0  0  0  0  0
    0.9300   -0.9600    0.0000 C   0  0  0  0  0  0  0  0  0  0  0  0
   -1.6700    0.5400    0.0000 C   0  0  0  0  0  0  0  0  0  0  0  0
    0.9300    0.5400    0.0000 C   0  0  0  0  0  0  0  0  0  0  0  0
   -0.3700    1.2900    0.0000 N   0  0  0  0  0  0  0  0  0  0  0  0
  3  2  2  0
  4  2  1  0
  5  3  1  0
  6  1  1  0
  6  4  2  0
  7  5  2  0
  7  6  1  0
M  END
>  <NAME>  (1810) 
2-PICOLINE

>  <SYNONYMS>  (1810) 
2-METHYLPYRIDINE

>  <SPECTRUM TYPE>  (1810) 
MS1

>  <INSTRUMENT TYPE>  (1810) 
EI-B

>  <INSTRUMENT>  (1810) 
HITACHI M-80

>  <ION MODE>  (1810) 
P

>  <INCHIKEY>  (1810) 
BSKHPKMHTQYZBB-UHFFFAOYSA-N

>  <FORMULA>  (1810) 
C6H7N

>  <EXACT MASS>  (1810) 
93.057849224

>  <MW>  (1810) 
93

>  <ID>  (1810) 
JP009525

>  <CONTRIBUTOR>  (1810) 
University of Tokyo Team, {Faculty of Engineering, University of Tokyo

>  <COMMENT>  (1810) 
SMILES=Cc(c1)nccc1
cas=109-06-8
InChI=InChI=1S/C6H7N/c1-6-4-2-3-5-7-6/h2-5H,1H3
computed SMILES=N=1C=CC=CC1C
accession=JP009525
date=2016.01.19 (Created 2008.10.21, modified 2011.05.06)
author=NARA WOMEN'S UNIVERSITY
license=CC BY-NC-SA
exact mass=93.05785
ionization energy=70 eV
ion type=[M]+*
computed spectral entropy=2.5759450378915054
computed normalized entropy=0.7649892281373605
SPLASH=splash10-0006-9000000000-30ce30016e1d6ff093c4
submitter=submitter = University of Tokyo Team (Faculty of Engineering, University of Tokyo)
MoNA Rating=3.75

>  <NUM PEAKS>  (1810) 
29

>  <MASS SPECTRAL PEAKS>  (1810) 
25 2.42
26 2.83
27 3.45
37 2.46
38 5.41
39 12.51
40 5.58
41 2.26
42 1.71
46 1.1
49 1.03
50 7.3
51 11.52
52 7.66
53 3.89
54 1.65
61 2.12
62 4.12
63 7.86
64 4.43
65 14.5
66 39.32
67 9.67
78 14.42
79 1.06
91 1.81
92 20.36
93 99.99
94 10.64

$$$$

     RDKit          2D

 10 10  0  0  0  0  0  0  0  0999 V2000
    0.0008   -2.2500    0.0000 C   0  0  0  0  0  0  0  0  0  0  0  0
   -1.2992    0.0000    0.0000 C   0  0  0  0  0  0  0  0  0  0  0  0
   -1.2992   -3.0000    0.0000 C   0  0  0  0  0  0  0  0  0  0  0  0
   -2.5992   -0.7500    0.0000 C   0  0  0  0  0  0  0  0  0  0  0  0
    0.0008   -0.7500    0.0000 C   0  0  0  0  0  0  0  0  0  0  0  0
   -2.5992   -2.2500    0.0000 C   0  0  0  0  0  0  0  0  0  0  0  0
    1.2998    0.0002    0.0000 N   0  0  0  0  0  0  0  0  0  0  0  0
   -3.8981   -3.0002    0.0000 O   0  0  0  0  0  0  0  0  0  0  0  0
    2.5989   -0.7496    0.0000 O   0  0  0  0  0  0  0  0  0  0  0  0
    1.2995    1.5002    0.0000 O   0  0  0  0  0  0  0  0  0  0  0  0
  3  1  2  0
  4  2  1  0
  5  1  1  0
  5  2  2  0
  6  3  1  0
  6  4  2  0
  7  5  1  0
  8  6  1  0
  9  7  1  0
 10  7  2  0
M  CHG  2   7   1   9  -1
M  END
>  <NAME>  (1811) 
4-NITROPHENOL

>  <SYNONYMS>  (1811) 


>  <SPECTRUM TYPE>  (1811) 
MS1

>  <INSTRUMENT TYPE>  (1811) 
EI-B

>  <INSTRUMENT>  (1811) 
HITACHI M-80

>  <ION MODE>  (1811) 
P

>  <INCHIKEY>  (1811) 
BTJIUGUIPKRLHP-UHFFFAOYSA-N

>  <FORMULA>  (1811) 
C6H5NO3

>  <EXACT MASS>  (1811) 
139.02694301999998

>  <MW>  (1811) 
139

>  <ID>  (1811) 
JP009524

>  <CONTRIBUTOR>  (1811) 
University of Tokyo Team, {Faculty of Engineering, University of Tokyo

>  <COMMENT>  (1811) 
SMILES=Oc(c1)ccc(c1)[N+1]([O-1])=O
cas=100-02-7
InChI=InChI=1S/C6H5NO3/c8-6-3-1-5(2-4-6)7(9)10/h1-4,8H
computed SMILES=O=N(=O)C1=CC=C(O)C=C1
accession=JP009524
date=2016.01.19 (Created 2008.10.21, modified 2011.05.06)
author=NARA WOMEN'S UNIVERSITY
license=CC BY-NC-SA
exact mass=139.02694
ionization energy=70 eV
ion type=[M]+*
computed spectral entropy=3.0228772596893942
computed normalized entropy=0.8087598874182296
SPLASH=splash10-05n0-9300000000-f284a324180bf4d7ffc2
submitter=submitter = University of Tokyo Team (Faculty of Engineering, University of Tokyo)
MoNA Rating=3.75

>  <NUM PEAKS>  (1811) 
42

>  <MASS SPECTRAL PEAKS>  (1811) 
25 4.51
26 3.52
27 1.82
28 5.26
29 41.39
37 7.16
38 17.29
39 56.89
40 1.74
42 1.84
46 22.12
49 1.96
50 12.41
51 9.82
52 8.33
53 23.74
54 3.2
55 3.93
60 1.43
61 10.82
62 22.22
63 41.94
64 14.77
65 99.99
66 8.7
67 1.68
73 1.62
74 6.86
75 4.71
76 1.3
79 1.31
80 1.01
81 48.26
82 3.17
92 2.94
93 21.41
94 1.86
109 80.6
110 6.04
123 6.44
139 74.57
140 9.4

$$$$

     RDKit          2D

  7  7  0  0  0  0  0  0  0  0999 V2000
    2.2289    1.2902    0.0000 C   0  0  0  0  0  0  0  0  0  0  0  0
   -1.6700    0.5400    0.0000 C   0  0  0  0  0  0  0  0  0  0  0  0
   -0.3700    1.2900    0.0000 C   0  0  0  0  0  0  0  0  0  0  0  0
   -1.6700   -0.9600    0.0000 C   0  0  0  0  0  0  0  0  0  0  0  0
    0.9300   -0.9600    0.0000 C   0  0  0  0  0  0  0  0  0  0  0  0
    0.9300    0.5400    0.0000 C   0  0  0  0  0  0  0  0  0  0  0  0
   -0.3700   -1.7100    0.0000 N   0  0  0  0  0  0  0  0  0  0  0  0
  3  2  2  0
  4  2  1  0
  6  1  1  0
  6  3  1  0
  6  5  2  0
  7  4  2  0
  7  5  1  0
M  END
>  <NAME>  (1812) 
3-PICOLINE

>  <SYNONYMS>  (1812) 
3-METHYLPYRIDINE

>  <SPECTRUM TYPE>  (1812) 
MS1

>  <INSTRUMENT TYPE>  (1812) 
EI-B

>  <INSTRUMENT>  (1812) 
HITACHI M-80

>  <ION MODE>  (1812) 
P

>  <INCHIKEY>  (1812) 
ITQTTZVARXURQS-UHFFFAOYSA-N

>  <FORMULA>  (1812) 
C6H7N

>  <EXACT MASS>  (1812) 
93.057849224

>  <MW>  (1812) 
93

>  <ID>  (1812) 
JP009523

>  <CONTRIBUTOR>  (1812) 
University of Tokyo Team, {Faculty of Engineering, University of Tokyo

>  <COMMENT>  (1812) 
SMILES=Cc(c1)cncc1
cas=108-99-6
InChI=InChI=1S/C6H7N/c1-6-3-2-4-7-5-6/h2-5H,1H3
computed SMILES=N=1C=CC=C(C1)C
accession=JP009523
date=2016.01.19 (Created 2008.10.21, modified 2011.05.06)
author=NARA WOMEN'S UNIVERSITY
license=CC BY-NC-SA
exact mass=93.05785
ionization energy=70 eV
ion type=[M]+*
computed spectral entropy=2.3562135187182953
computed normalized entropy=0.7319988862306523
SPLASH=splash10-0006-9000000000-f5d09461ea2a38433f8f
submitter=submitter = University of Tokyo Team (Faculty of Engineering, University of Tokyo)
MoNA Rating=3.75

>  <NUM PEAKS>  (1812) 
25

>  <MASS SPECTRAL PEAKS>  (1812) 
25 1.3
26 1.73
27 2.44
37 2.05
38 5.21
39 20.32
40 6.47
41 1.84
50 2.54
51 3.98
52 1.82
53 1.6
54 1.79
61 1.86
62 4.35
63 9.1
64 3.95
65 23.81
66 35.1
67 9.52
78 2.59
91 1.35
92 28.45
93 99.99
94 14.6

$$$$

     RDKit          2D

  5  4  0  0  0  0  0  0  0  0999 V2000
    0.0000    0.0000    0.0000 C   0  0  0  0  0  0  0  0  0  0  0  0
   -1.2990    3.7500    0.0000 C   0  0  0  0  0  0  0  0  0  0  0  0
    0.0000    1.5000    0.0000 C   0  0  0  0  0  0  0  0  0  0  0  0
   -1.2990    2.2500    0.0000 N   0  0  0  0  0  0  0  0  0  0  0  0
    1.2990    2.2500    0.0000 O   0  0  0  0  0  0  0  0  0  0  0  0
  3  1  1  0
  4  2  1  0
  4  3  2  3
  5  3  1  0
M  END
>  <NAME>  (1813) 
N-METHYLACETAMIDE

>  <SYNONYMS>  (1813) 


>  <SPECTRUM TYPE>  (1813) 
MS1

>  <INSTRUMENT TYPE>  (1813) 
EI-B

>  <INSTRUMENT>  (1813) 
HITACHI M-80

>  <ION MODE>  (1813) 
P

>  <INCHIKEY>  (1813) 
OHLUUHNLEMFGTQ-UHFFFAOYSA-N

>  <FORMULA>  (1813) 
C3H7NO

>  <EXACT MASS>  (1813) 
73.052763844

>  <MW>  (1813) 
73

>  <ID>  (1813) 
JP009522

>  <CONTRIBUTOR>  (1813) 
University of Tokyo Team, {Faculty of Engineering, University of Tokyo

>  <COMMENT>  (1813) 
SMILES=CNC(C)=O
cas=79-16-3
InChI=InChI=1S/C3H7NO/c1-3(5)4-2/h1-2H3,(H,4,5)
computed SMILES=OC(=NC)C
accession=JP009522
date=2016.01.19 (Created 2008.10.21, modified 2011.05.06)
author=NARA WOMEN'S UNIVERSITY
license=CC BY-NC-SA
exact mass=73.05276
ionization energy=70 eV
ion type=[M]+*
computed spectral entropy=2.4817653776550257
computed normalized entropy=0.7617224808084131
SPLASH=splash10-002f-9000000000-99a9c9899c3192926982
submitter=submitter = University of Tokyo Team (Faculty of Engineering, University of Tokyo)
MoNA Rating=3.75

>  <NUM PEAKS>  (1813) 
26

>  <MASS SPECTRAL PEAKS>  (1813) 
12 1.75
13 9.76
15 28.92
16 1.3
25 2.85
26 7.05
27 47.84
28 10.75
30 38.27
31 8.43
32 2.29
38 1.32
39 2.16
40 3.15
41 5.98
42 16.48
43 99.99
44 5.05
45 4.69
54 1.21
55 1.39
56 1.39
58 42.26
59 1
73 38.54
74 5.25

$$$$

     RDKit          2D

 11 11  0  0  0  0  0  0  0  0999 V2000
   -4.8712    2.0071    0.0000 C   0  0  0  0  0  0  0  0  0  0  0  0
   -3.5721    2.7571    0.0000 C   0  0  0  0  0  0  0  0  0  0  0  0
    2.9231    0.5071    0.0000 C   0  0  0  0  0  0  0  0  0  0  0  0
    2.9236    2.0079    0.0000 C   0  0  0  0  0  0  0  0  0  0  0  0
    1.6236   -0.2437    0.0000 C   0  0  0  0  0  0  0  0  0  0  0  0
    1.6245    2.7579    0.0000 C   0  0  0  0  0  0  0  0  0  0  0  0
    0.3245    0.5063    0.0000 C   0  0  0  0  0  0  0  0  0  0  0  0
    0.3250    2.0071    0.0000 C   0  0  0  0  0  0  0  0  0  0  0  0
   -0.9740    2.7571    0.0000 C   0  0  0  0  0  0  0  0  0  0  0  0
   -0.9740    4.2571    0.0000 O   0  0  0  0  0  0  0  0  0  0  0  0
   -2.2731    2.0071    0.0000 O   0  0  0  0  0  0  0  0  0  0  0  0
  2  1  1  0
  4  3  2  0
  5  3  1  0
  6  4  1  0
  7  5  2  0
  8  6  2  0
  8  7  1  0
  9  8  1  0
 10  9  2  0
 11  2  1  0
 11  9  1  0
M  END
>  <NAME>  (1814) 
ETHYL BENZOATE

>  <SYNONYMS>  (1814) 


>  <SPECTRUM TYPE>  (1814) 
MS1

>  <INSTRUMENT TYPE>  (1814) 
EI-B

>  <INSTRUMENT>  (1814) 
HITACHI M-80

>  <ION MODE>  (1814) 
P

>  <INCHIKEY>  (1814) 
MTZQAGJQAFMTAQ-UHFFFAOYSA-N

>  <FORMULA>  (1814) 
C9H10O2

>  <EXACT MASS>  (1814) 
150.06807956

>  <MW>  (1814) 
150

>  <ID>  (1814) 
JP009521

>  <CONTRIBUTOR>  (1814) 
University of Tokyo Team, {Faculty of Engineering, University of Tokyo

>  <COMMENT>  (1814) 
SMILES=CCOC(=O)c(c1)cccc1
cas=93-89-0
InChI=InChI=1S/C9H10O2/c1-2-11-9(10)8-6-4-3-5-7-8/h3-7H,2H2,1H3
computed SMILES=O=C(OCC)C=1C=CC=CC1
accession=JP009521
date=2016.01.19 (Created 2008.10.21, modified 2011.05.06)
author=NARA WOMEN'S UNIVERSITY
license=CC BY-NC-SA
exact mass=150.06808
ionization energy=70 eV
ion type=[M]+*
computed spectral entropy=2.3896330904470493
computed normalized entropy=0.7171327819616344
SPLASH=splash10-0pdi-8900000000-44a1b5b320f6a221cb8a
submitter=submitter = University of Tokyo Team (Faculty of Engineering, University of Tokyo)
MoNA Rating=3.75

>  <NUM PEAKS>  (1814) 
28

>  <MASS SPECTRAL PEAKS>  (1814) 
14 1.8
25 2.15
26 9.21
27 3.83
28 9.59
30 1.84
38 1.17
39 2.13
43 2.05
45 1.47
50 11.28
51 25.91
52 1.88
65 1.08
74 5.14
75 3.01
76 4.19
77 54.31
78 5.82
91 1.23
105 99.99
106 9.3
122 26.1
123 2.27
135 1.01
149 1.38
150 19.58
151 2.25

$$$$

     RDKit          2D

  5  4  0  0  0  0  0  0  0  0999 V2000
    0.0000    1.5000    0.0000 C   0  0  0  0  0  0  0  0  0  0  0  0
   -1.2990    0.7500    0.0000 Br  0  0  0  0  0  0  0  0  0  0  0  0
    0.7500    0.2010    0.0000 Cl  0  0  0  0  0  0  0  0  0  0  0  0
    1.2990    2.2500    0.0000 Cl  0  0  0  0  0  0  0  0  0  0  0  0
   -0.7500    2.7990    0.0000 Cl  0  0  0  0  0  0  0  0  0  0  0  0
  2  1  1  0
  3  1  1  0
  4  1  1  0
  5  1  1  0
M  END
>  <NAME>  (1815) 
BROMOTRICHLOROMETHANE

>  <SYNONYMS>  (1815) 


>  <SPECTRUM TYPE>  (1815) 
MS1

>  <INSTRUMENT TYPE>  (1815) 
EI-B

>  <INSTRUMENT>  (1815) 
HITACHI M-80

>  <ION MODE>  (1815) 
P

>  <INCHIKEY>  (1815) 
XNNQFQFUQLJSQT-UHFFFAOYSA-N

>  <FORMULA>  (1815) 
CBrCl3

>  <EXACT MASS>  (1815) 
195.82489514

>  <MW>  (1815) 
196

>  <ID>  (1815) 
JP009520

>  <CONTRIBUTOR>  (1815) 
University of Tokyo Team, {Faculty of Engineering, University of Tokyo

>  <COMMENT>  (1815) 
SMILES=ClC(Cl)(Cl)Br
cas=75-62-7
InChI=InChI=1S/CBrCl3/c2-1(3,4)5
computed SMILES=ClC(Cl)(Cl)Br
accession=JP009520
date=2016.01.19 (Created 2008.10.21, modified 2011.05.06)
author=NARA WOMEN'S UNIVERSITY
license=CC BY-NC-SA
exact mass=195.8249
ionization energy=70 eV
ion type=[M]+*
computed spectral entropy=2.6601964388073753
computed normalized entropy=0.7900097208916927
SPLASH=splash10-014i-5900000000-d5639ffc9c2042fe8623
submitter=submitter = University of Tokyo Team (Faculty of Engineering, University of Tokyo)
MoNA Rating=3.75

>  <NUM PEAKS>  (1815) 
29

>  <MASS SPECTRAL PEAKS>  (1815) 
11 2.29
35 30.83
36 1.85
37 7.13
47 42.9
49 12.75
79 12.75
80 1.13
81 28.76
82 36.38
84 22.74
86 3.21
91 5.55
93 5.33
114 1.04
116 1.39
117 99.03
118 1.34
119 99.99
120 1.07
121 31.27
123 3.47
126 3.26
128 4.66
130 1.09
161 24.68
163 39.39
165 17.53
167 2.49

$$$$

     RDKit          2D

  9  8  0  0  0  0  0  0  0  0999 V2000
    2.0490    4.0981    0.0000 C   0  0  0  0  0  0  0  0  0  0  0  0
    2.0490    1.0981    0.0000 C   0  0  0  0  0  0  0  0  0  0  0  0
    3.5490    2.5981    0.0000 C   0  0  0  0  0  0  0  0  0  0  0  0
   -1.5000    2.0490    0.0000 C   0  0  0  0  0  0  0  0  0  0  0  0
   -0.9510    0.0000    0.0000 C   0  0  0  0  0  0  0  0  0  0  0  0
    1.0981    0.5490    0.0000 C   0  0  0  0  0  0  0  0  0  0  0  0
    0.5490    2.5981    0.0000 N   0  0  0  0  0  0  0  0  0  0  0  0
    2.0490    2.5981    0.0000 Si  0  0  0  0  0  4  0  0  0  0  0  0
   -0.2010    1.2990    0.0000 Si  0  0  0  0  0  4  0  0  0  0  0  0
  8  1  1  0
  8  2  1  0
  8  3  1  0
  8  7  1  0
  9  4  1  0
  9  5  1  0
  9  6  1  0
  9  7  1  0
M  END
>  <NAME>  (1816) 
1,1,1,3,3,3-HEXAMETHYLDISILAZANE

>  <SYNONYMS>  (1816) 


>  <SPECTRUM TYPE>  (1816) 
MS1

>  <INSTRUMENT TYPE>  (1816) 
EI-B

>  <INSTRUMENT>  (1816) 
HITACHI M-80

>  <ION MODE>  (1816) 
P

>  <INCHIKEY>  (1816) 
FFUAGWLWBBFQJT-UHFFFAOYSA-N

>  <FORMULA>  (1816) 
C6H19NSi2

>  <EXACT MASS>  (1816) 
161.105602668

>  <MW>  (1816) 
161

>  <ID>  (1816) 
JP009518

>  <CONTRIBUTOR>  (1816) 
University of Tokyo Team, {Faculty of Engineering, University of Tokyo

>  <COMMENT>  (1816) 
SMILES=C[Si](C)(C)N[Si](C)(C)C
cas=999-97-3
InChI=InChI=1S/C6H19NSi2/c1-8(2,3)7-9(4,5)6/h7H,1-6H3
computed SMILES=N([Si](C)(C)C)[Si](C)(C)C
accession=JP009518
date=2016.01.19 (Created 2008.10.21, modified 2011.05.06)
author=NARA WOMEN'S UNIVERSITY
license=CC BY-NC-SA
exact mass=161.1056
ionization energy=70 eV
ion type=[M]+*
computed spectral entropy=2.0705537478925313
computed normalized entropy=0.6515162607128775
SPLASH=splash10-0002-1900000000-230d51b9fe83539b16b9
submitter=submitter = University of Tokyo Team (Faculty of Engineering, University of Tokyo)
MoNA Rating=3.75

>  <NUM PEAKS>  (1816) 
24

>  <MASS SPECTRAL PEAKS>  (1816) 
43 1.23
45 4.57
59 4.71
65 3.68
66 3.67
73 13.38
74 2.4
75 2.84
86 1.12
100 4.16
102 1.07
113 1.59
114 1.07
116 1.93
117 1.26
130 24.55
131 7.57
132 2.89
133 1.67
146 99.99
147 96.8
148 20.45
149 7.14
161 4.27

$$$$

     RDKit          2D

 17 19  0  0  0  0  0  0  0  0999 V2000
    3.9000   -0.7500    0.0000 C   0  0  0  0  0  0  0  0  0  0  0  0
   -3.9000   -0.7500    0.0000 C   0  0  0  0  0  0  0  0  0  0  0  0
    3.9000    0.7500    0.0000 C   0  0  0  0  0  0  0  0  0  0  0  0
   -3.9000    0.7500    0.0000 C   0  0  0  0  0  0  0  0  0  0  0  0
    2.6000   -1.5000    0.0000 C   0  0  0  0  0  0  0  0  0  0  0  0
   -2.6000   -1.5000    0.0000 C   0  0  0  0  0  0  0  0  0  0  0  0
    2.6000    1.5000    0.0000 C   0  0  0  0  0  0  0  0  0  0  0  0
   -2.6000    1.5000    0.0000 C   0  0  0  0  0  0  0  0  0  0  0  0
   -0.0000   -1.5000    0.0000 C   0  0  0  0  0  0  0  0  0  0  0  0
    1.3000   -0.7500    0.0000 C   0  0  0  0  0  0  0  0  0  0  0  0
   -1.3000   -0.7500    0.0000 C   0  0  0  0  0  0  0  0  0  0  0  0
    1.3000    0.7500    0.0000 C   0  0  0  0  0  0  0  0  0  0  0  0
   -1.3000    0.7500    0.0000 C   0  0  0  0  0  0  0  0  0  0  0  0
   -0.0000    1.5000    0.0000 C   0  0  0  0  0  0  0  0  0  0  0  0
    0.0000    3.0000    0.0000 C   0  0  0  0  0  0  0  0  0  0  0  0
   -1.2990    3.7500    0.0000 O   0  0  0  0  0  0  0  0  0  0  0  0
    1.2990    3.7500    0.0000 O   0  0  0  0  0  0  0  0  0  0  0  0
  3  1  2  0
  4  2  1  0
  5  1  1  0
  6  2  2  0
  7  3  1  0
  8  4  2  0
 10  5  2  0
 10  9  1  0
 11  6  1  0
 11  9  2  0
 12  7  2  0
 12 10  1  0
 13  8  1  0
 13 11  1  0
 14 12  1  0
 14 13  2  0
 15 14  1  0
 16 15  1  0
 17 15  2  0
M  END
>  <NAME>  (1817) 
9-ANTHRACENECARBOXYLIC ACID

>  <SYNONYMS>  (1817) 


>  <SPECTRUM TYPE>  (1817) 
MS1

>  <INSTRUMENT TYPE>  (1817) 
EI-B

>  <INSTRUMENT>  (1817) 
HITACHI M-80

>  <ION MODE>  (1817) 
P

>  <INCHIKEY>  (1817) 
XGWFJBFNAQHLEF-UHFFFAOYSA-N

>  <FORMULA>  (1817) 
C15H10O2

>  <EXACT MASS>  (1817) 
222.06807956

>  <MW>  (1817) 
222

>  <ID>  (1817) 
JP009517

>  <CONTRIBUTOR>  (1817) 
University of Tokyo Team, {Faculty of Engineering, University of Tokyo

>  <COMMENT>  (1817) 
SMILES=OC(=O)c(c21)c(c3)c(ccc3)cc(cccc2)1
cas=723-62-6
InChI=InChI=1S/C15H10O2/c16-15(17)14-12-7-3-1-5-10(12)9-11-6-2-4-8-13(11)14/h1-9H,(H,16,17)
computed SMILES=O=C(O)C=1C=2C=CC=CC2C=C3C=CC=CC31
accession=JP009517
date=2016.01.19 (Created 2008.10.21, modified 2011.05.06)
author=NARA WOMEN'S UNIVERSITY
license=CC BY-NC-SA
exact mass=222.06808
ionization energy=70 eV
ion type=[M]+*
computed spectral entropy=3.29668023162276
computed normalized entropy=0.8051789930043336
SPLASH=splash10-00fr-4970000000-225ec51dd6d930f15989
submitter=submitter = University of Tokyo Team (Faculty of Engineering, University of Tokyo)
MoNA Rating=3.75

>  <NUM PEAKS>  (1817) 
60

>  <MASS SPECTRAL PEAKS>  (1817) 
18 3.59
28 2.34
38 1.06
39 3.23
45 4.64
50 3.74
51 3.51
62 4.21
63 6.16
69 1.02
74 6.42
75 7.51
76 3.15
77 1.76
81 1.33
82 4.15
83 1.87
86 3.92
87 6.52
88 12.61
89 1.94
97 3.74
98 4.74
99 3.46
100 1.39
101 1.01
110 1.88
113 5.07
115 1.29
122 1.55
123 1.73
125 1.2
126 3.32
127 1.19
137 1.21
139 3.61
149 2.43
150 11.99
151 13.42
152 3.1
163 4.61
164 3.65
165 24.77
166 6.34
174 6.23
175 7.66
176 40.87
177 39.93
178 9.48
179 1.23
193 1.68
194 10.38
195 1.6
204 1
205 29.19
206 4.8
221 29.8
222 99.99
223 16.42
224 1.72

$$$$

     RDKit          2D

 21 23  0  0  0  0  0  0  0  0999 V2000
   -3.6087    3.0002    0.0000 C   0  0  0  0  0  0  0  0  0  0  0  0
    4.8436   -1.2838    0.0000 C   0  0  0  0  0  0  0  0  0  0  0  0
    4.8566    1.3062    0.0000 C   0  0  0  0  0  0  0  0  0  0  0  0
   -2.3100   -0.7500    0.0000 C   0  0  0  0  0  0  0  0  0  0  0  0
    6.3435   -1.2913    0.0000 C   0  0  0  0  0  0  0  0  0  0  0  0
    6.3566    1.2987    0.0000 C   0  0  0  0  0  0  0  0  0  0  0  0
   -1.0100   -1.5000    0.0000 C   0  0  0  0  0  0  0  0  0  0  0  0
   -1.0100    1.5000    0.0000 C   0  0  0  0  0  0  0  0  0  0  0  0
   -3.6089    1.5002    0.0000 C   0  0  0  0  0  0  0  0  0  0  0  0
    4.1000    0.0000    0.0000 C   0  0  0  0  0  0  0  0  0  0  0  0
   -2.3100    0.7500    0.0000 C   0  0  0  0  0  0  0  0  0  0  0  0
    7.1100   -0.0151    0.0000 C   0  0  0  0  0  0  0  0  0  0  0  0
    0.2900    0.7500    0.0000 C   0  0  0  0  0  0  0  0  0  0  0  0
    0.2900   -0.7500    0.0000 C   0  0  0  0  0  0  0  0  0  0  0  0
    2.6000    0.0000    0.0000 C   0  0  0  0  0  0  0  0  0  0  0  0
   -4.9081    0.7504    0.0000 C   0  0  0  0  0  0  0  0  0  0  0  0
    8.6099   -0.0302    0.0000 Cl  0  0  0  0  0  0  0  0  0  0  0  0
    1.7200    1.2100    0.0000 N   0  0  0  0  0  0  0  0  0  0  0  0
   -4.9083   -0.7496    0.0000 O   0  0  0  0  0  0  0  0  0  0  0  0
   -6.2070    1.5006    0.0000 O   0  0  0  0  0  0  0  0  0  0  0  0
    1.7200   -1.2100    0.0000 O   0  0  0  0  0  0  0  0  0  0  0  0
  5  2  2  0
  6  3  1  0
  7  4  2  0
  9  1  1  0
 10  2  1  0
 10  3  2  0
 11  4  1  0
 11  8  2  0
 11  9  1  0
 12  5  1  0
 12  6  2  0
 13  8  1  0
 14  7  1  0
 14 13  2  0
 15 10  1  0
 16  9  1  0
 17 12  1  0
 18 13  1  0
 18 15  2  0
 19 16  2  0
 20 16  1  0
 21 14  1  0
 21 15  1  0
M  END
>  <NAME>  (1818) 
BENOXAPROFENE

>  <SYNONYMS>  (1818) 
2-(4-CHLOROPHENYL)-ALPHA-METHYL-5-BENZOXAZOLEACETIC ACID

>  <SPECTRUM TYPE>  (1818) 
MS1

>  <INSTRUMENT TYPE>  (1818) 
EI-B

>  <INSTRUMENT>  (1818) 
HITACHI M-80

>  <ION MODE>  (1818) 
P

>  <INCHIKEY>  (1818) 
MITFXPHMIHQXPI-UHFFFAOYSA-N

>  <FORMULA>  (1818) 
C16H12ClNO3

>  <EXACT MASS>  (1818) 
301.050570924

>  <MW>  (1818) 
301

>  <ID>  (1818) 
JP009516

>  <CONTRIBUTOR>  (1818) 
University of Tokyo Team, {Faculty of Engineering, University of Tokyo

>  <COMMENT>  (1818) 
SMILES=OC(=O)C(C)c(c3)cc(n1)c(c3)oc1c(c2)ccc(Cl)c2
InChI=InChI=1S/C16H12ClNO3/c1-9(16(19)20)11-4-7-14-13(8-11)18-15(21-14)10-2-5-12(17)6-3-10/h2-9H,1H3,(H,19,20)
computed SMILES=O=C(O)C(C1=CC=C2OC(=NC2=C1)C=3C=CC(Cl)=CC3)C
accession=JP009516
date=2016.01.19 (Created 2008.10.21, modified 2011.05.06)
author=NARA WOMEN'S UNIVERSITY
license=CC BY-NC-SA
exact mass=301.05057
ionization energy=70 eV
ion type=[M]+*
computed spectral entropy=3.0272601638943457
computed normalized entropy=0.777851990073642
SPLASH=splash10-0a4i-7294000000-6fce0cace9618294c879
submitter=submitter = University of Tokyo Team (Faculty of Engineering, University of Tokyo)
MoNA Rating=3.75

>  <NUM PEAKS>  (1818) 
49

>  <MASS SPECTRAL PEAKS>  (1818) 
27 1.94
28 1.67
39 8.25
41 2.42
45 6.33
50 3.54
51 6.48
52 1.23
53 1.52
62 3.1
64 3.78
65 24.18
66 1.85
74 1.56
75 5.77
76 3.27
77 2.4
87 1.24
88 1
89 10.27
90 4.02
91 44.68
92 4.48
93 1.81
102 3.91
111 3.36
113 1.18
119 22.81
120 2.84
128 3.5
129 1.24
137 7.02
138 1.79
139 4.23
149 1.31
221 1.94
229 2.67
230 1.44
242 2.84
255 4.74
256 99.99
257 19.18
258 34.13
259 5.96
266 1.26
301 48.38
302 9.37
303 16.76
304 3.14

$$$$

     RDKit          2D

  8  7  0  0  0  0  0  0  0  0999 V2000
   -3.2476    3.3750    0.0000 C   0  0  0  0  0  0  0  0  0  0  0  0
   -0.6495    4.8750    0.0000 C   0  0  0  0  0  0  0  0  0  0  0  0
   -1.9486    2.6250    0.0000 C   0  0  0  0  0  0  0  0  0  0  0  0
   -0.6495    3.3750    0.0000 C   0  0  0  0  0  0  0  0  0  0  0  0
   -1.9486    1.1250    0.0000 N   0  0  0  0  0  0  0  0  0  0  0  0
    0.6495    2.6250    0.0000 N   0  0  0  0  0  0  0  0  0  0  0  0
   -3.2476    0.3750    0.0000 O   0  0  0  0  0  0  0  0  0  0  0  0
    1.9486    3.3750    0.0000 O   0  0  0  0  0  0  0  0  0  0  0  0
  3  1  1  0
  4  2  1  0
  4  3  1  0
  3  5  2  0
  4  6  2  0
  7  5  1  0
  8  6  1  0
M  END
>  <NAME>  (1819) 
DIMETHYLGLYOXIME

>  <SYNONYMS>  (1819) 


>  <SPECTRUM TYPE>  (1819) 
MS1

>  <INSTRUMENT TYPE>  (1819) 
EI-B

>  <INSTRUMENT>  (1819) 
HITACHI M-80

>  <ION MODE>  (1819) 
P

>  <INCHIKEY>  (1819) 
JGUQDUKBUKFFRO-GGWOSOGESA-N

>  <FORMULA>  (1819) 
C4H8N2O2

>  <EXACT MASS>  (1819) 
116.058577496

>  <MW>  (1819) 
116

>  <ID>  (1819) 
JP009515

>  <CONTRIBUTOR>  (1819) 
University of Tokyo Team, {Faculty of Engineering, University of Tokyo

>  <COMMENT>  (1819) 
SMILES=ON=C(C)C(C)=NO
cas=95-45-4
InChI=InChI=1S/C4H8N2O2/c1-3(5-7)4(2)6-8/h7-8H,1-2H3/b5-3+,6-4+
computed SMILES=ON=C(C(=NO)C)C
accession=JP009515
date=2016.01.19 (Created 2008.10.21, modified 2011.05.06)
author=NARA WOMEN'S UNIVERSITY
license=CC BY-NC-SA
exact mass=116.05858
ionization energy=70 eV
ion type=[M]+*
computed spectral entropy=3.16028467785196
computed normalized entropy=0.8510093842494418
SPLASH=splash10-00kf-9100000000-d29e3ca76b35c62e1f0d
submitter=submitter = University of Tokyo Team (Faculty of Engineering, University of Tokyo)
MoNA Rating=3.75

>  <NUM PEAKS>  (1819) 
41

>  <MASS SPECTRAL PEAKS>  (1819) 
14 2.42
15 38.23
17 1.28
18 2.77
26 5.59
27 21.25
28 28.79
29 5.31
30 14.53
31 28.1
37 2.06
38 5.54
39 13.74
40 27.31
41 33.96
42 99.99
43 11.5
44 4.03
50 3.11
51 5.58
52 8.13
53 5.78
54 13.02
55 6.02
56 2.92
57 12.53
58 49.92
59 1.52
66 4.36
67 6.97
68 21.76
69 9.35
81 5.23
82 3.5
84 7.34
98 4.15
99 34.82
100 1.89
101 1.33
116 51.12
117 11.48

$$$$

     RDKit          2D

 13 13  0  0  1  0  0  0  0  0999 V2000
   -5.5207    3.1321    0.0000 C   0  0  0  0  0  0  0  0  0  0  0  0
    3.5726    0.8821    0.0000 C   0  0  0  0  0  0  0  0  0  0  0  0
    3.5731    2.3829    0.0000 C   0  0  0  0  0  0  0  0  0  0  0  0
    2.2731    0.1313    0.0000 C   0  0  0  0  0  0  0  0  0  0  0  0
    2.2740    3.1329    0.0000 C   0  0  0  0  0  0  0  0  0  0  0  0
    0.9740    0.8813    0.0000 C   0  0  0  0  0  0  0  0  0  0  0  0
   -0.3245    3.1321    0.0000 C   0  0  0  0  0  0  0  0  0  0  0  0
    0.9745    2.3821    0.0000 C   0  0  0  0  0  0  0  0  0  0  0  0
   -1.6236    2.3821    0.0000 C   0  0  0  0  0  0  0  0  0  0  0  0
   -2.9226    3.1321    0.0000 C   0  0  0  0  0  0  0  0  0  0  0  0
   -1.6236    0.8821    0.0000 N   0  0  0  0  0  0  0  0  0  0  0  0
   -2.9226    4.6321    0.0000 O   0  0  0  0  0  0  0  0  0  0  0  0
   -4.2216    2.3821    0.0000 O   0  0  0  0  0  0  0  0  0  0  0  0
  3  2  2  0
  4  2  1  0
  5  3  1  0
  6  4  2  0
  8  5  2  0
  8  6  1  0
  8  7  1  0
  9  7  1  0
 10  9  1  0
  9 11  1  6
 12 10  2  0
 13  1  1  0
 13 10  1  0
M  END
>  <NAME>  (1820) 
L-PHENYLALANINE METHYL ESTER

>  <SYNONYMS>  (1820) 


>  <SPECTRUM TYPE>  (1820) 
MS1

>  <INSTRUMENT TYPE>  (1820) 
EI-B

>  <INSTRUMENT>  (1820) 
HITACHI M-80

>  <ION MODE>  (1820) 
P

>  <INCHIKEY>  (1820) 
VSDUZFOSJDMAFZ-VIFPVBQESA-N

>  <FORMULA>  (1820) 
C10H13NO2

>  <EXACT MASS>  (1820) 
179.094628656

>  <MW>  (1820) 
179

>  <ID>  (1820) 
JP009514

>  <CONTRIBUTOR>  (1820) 
University of Tokyo Team, {Faculty of Engineering, University of Tokyo

>  <COMMENT>  (1820) 
SMILES=COC(=O)C(N)Cc(c1)cccc1
cas=2577-90-4
InChI=InChI=1S/C10H13NO2/c1-13-10(12)9(11)7-8-5-3-2-4-6-8/h2-6,9H,7,11H2,1H3/t9-/m0/s1
computed SMILES=O=C(OC)C(N)CC=1C=CC=CC1
accession=JP009514
date=2016.01.19 (Created 2008.10.21, modified 2011.05.06)
author=NARA WOMEN'S UNIVERSITY
license=CC BY-NC-SA
exact mass=179.09463
ionization energy=70 eV
ion type=[M]+*
computed spectral entropy=2.982922947965
computed normalized entropy=0.7747554786315525
SPLASH=splash10-0079-9300000000-de217e7b5ba4a358f934
submitter=submitter = University of Tokyo Team (Faculty of Engineering, University of Tokyo)
MoNA Rating=3.75

>  <NUM PEAKS>  (1820) 
47

>  <MASS SPECTRAL PEAKS>  (1820) 
15 9.08
18 2.34
27 2.59
28 22.16
29 6.88
30 2.54
31 1.13
33 23.52
38 1.51
39 10.13
40 1.23
41 3.86
42 8.47
43 4.43
50 4.12
51 10.08
52 2.54
53 1.44
59 3
60 13.13
62 2.24
63 6.98
64 2
65 16.82
66 1.67
74 1.32
75 1.17
76 1.26
77 13.2
78 3.8
80 1.04
88 99.99
89 9.13
90 3.77
91 42.85
92 9.63
93 4.15
102 2.92
103 15.91
104 3.71
117 2.86
118 6.63
119 6.09
120 99.36
121 9.27
179 1.91
180 3.89

$$$$

     RDKit          2D

 16 18  0  0  0  0  0  0  0  0999 V2000
    3.9000   -0.7500    0.0000 C   0  0  0  0  0  0  0  0  0  0  0  0
   -3.9000   -0.7500    0.0000 C   0  0  0  0  0  0  0  0  0  0  0  0
    3.9000    0.7500    0.0000 C   0  0  0  0  0  0  0  0  0  0  0  0
   -3.9000    0.7500    0.0000 C   0  0  0  0  0  0  0  0  0  0  0  0
    2.6000   -1.5000    0.0000 C   0  0  0  0  0  0  0  0  0  0  0  0
   -2.6000   -1.5000    0.0000 C   0  0  0  0  0  0  0  0  0  0  0  0
    2.6000    1.5000    0.0000 C   0  0  0  0  0  0  0  0  0  0  0  0
   -2.6000    1.5000    0.0000 C   0  0  0  0  0  0  0  0  0  0  0  0
   -0.0000   -1.5000    0.0000 C   0  0  0  0  0  0  0  0  0  0  0  0
    0.0000    3.0000    0.0000 C   0  0  0  0  0  0  0  0  0  0  0  0
    1.3000   -0.7500    0.0000 C   0  0  0  0  0  0  0  0  0  0  0  0
   -1.3000   -0.7500    0.0000 C   0  0  0  0  0  0  0  0  0  0  0  0
    1.3000    0.7500    0.0000 C   0  0  0  0  0  0  0  0  0  0  0  0
   -1.3000    0.7500    0.0000 C   0  0  0  0  0  0  0  0  0  0  0  0
   -0.0000    1.5000    0.0000 C   0  0  0  0  0  0  0  0  0  0  0  0
   -1.2990    3.7500    0.0000 O   0  0  0  0  0  0  0  0  0  0  0  0
  3  1  2  0
  4  2  1  0
  5  1  1  0
  6  2  2  0
  7  3  1  0
  8  4  2  0
 11  5  2  0
 11  9  1  0
 12  6  1  0
 12  9  2  0
 13  7  2  0
 13 11  1  0
 14  8  1  0
 14 12  1  0
 15 10  1  0
 15 13  1  0
 15 14  2  0
 16 10  2  0
M  END
>  <NAME>  (1821) 
9-ANTHRALDEHYDE

>  <SYNONYMS>  (1821) 


>  <SPECTRUM TYPE>  (1821) 
MS1

>  <INSTRUMENT TYPE>  (1821) 
EI-B

>  <INSTRUMENT>  (1821) 
HITACHI M-80

>  <ION MODE>  (1821) 
P

>  <INCHIKEY>  (1821) 
YMNKUHIVVMFOFO-UHFFFAOYSA-N

>  <FORMULA>  (1821) 
C15H10O

>  <EXACT MASS>  (1821) 
206.07316494

>  <MW>  (1821) 
206

>  <ID>  (1821) 
JP009513

>  <CONTRIBUTOR>  (1821) 
University of Tokyo Team, {Faculty of Engineering, University of Tokyo

>  <COMMENT>  (1821) 
SMILES=O=Cc(c21)c(c3)c(ccc3)cc(cccc2)1
cas=642-31-9
InChI=InChI=1S/C15H10O/c16-10-15-13-7-3-1-5-11(13)9-12-6-2-4-8-14(12)15/h1-10H
computed SMILES=O=CC=1C=2C=CC=CC2C=C3C=CC=CC31
accession=JP009513
date=2016.01.19 (Created 2008.10.21, modified 2011.05.06)
author=NARA WOMEN'S UNIVERSITY
license=CC BY-NC-SA
exact mass=206.07316
ionization energy=70 eV
ion type=[M]+*
computed spectral entropy=2.9306725254135673
computed normalized entropy=0.7698797918883514
SPLASH=splash10-004i-2930000000-b5f840927d5d673cab91
submitter=submitter = University of Tokyo Team (Faculty of Engineering, University of Tokyo)
MoNA Rating=3.75

>  <NUM PEAKS>  (1821) 
45

>  <MASS SPECTRAL PEAKS>  (1821) 
27 1.13
28 1.07
29 2.5
39 2.56
50 3.27
51 3.25
62 3.35
63 5.96
74 5.72
75 6.91
76 9.03
77 1.62
86 3.2
87 5.21
88 10.94
89 10.53
98 3.93
99 2.81
100 1.11
101 1.01
102 1.1
103 1.79
110 1.49
111 1.7
122 1.41
125 1.11
126 3.38
127 1.36
128 1.22
139 1.99
149 1.93
150 11.78
151 14.91
152 10.18
153 1.22
174 4.91
175 6.65
176 39.61
177 30.33
178 99.99
179 15.28
180 1.25
205 30.52
206 56.63
207 9.12

$$$$

     RDKit          2D

 16 18  0  0  0  0  0  0  0  0999 V2000
    3.9000   -0.7500    0.0000 C   0  0  0  0  0  0  0  0  0  0  0  0
   -3.9000   -0.7500    0.0000 C   0  0  0  0  0  0  0  0  0  0  0  0
    3.9000    0.7500    0.0000 C   0  0  0  0  0  0  0  0  0  0  0  0
   -3.9000    0.7500    0.0000 C   0  0  0  0  0  0  0  0  0  0  0  0
    2.6000   -1.5000    0.0000 C   0  0  0  0  0  0  0  0  0  0  0  0
   -2.6000   -1.5000    0.0000 C   0  0  0  0  0  0  0  0  0  0  0  0
    2.6000    1.5000    0.0000 C   0  0  0  0  0  0  0  0  0  0  0  0
   -2.6000    1.5000    0.0000 C   0  0  0  0  0  0  0  0  0  0  0  0
   -0.0000   -1.5000    0.0000 C   0  0  0  0  0  0  0  0  0  0  0  0
    0.0000    3.0000    0.0000 C   0  0  0  0  0  0  0  0  0  0  0  0
    1.3000   -0.7500    0.0000 C   0  0  0  0  0  0  0  0  0  0  0  0
   -1.3000   -0.7500    0.0000 C   0  0  0  0  0  0  0  0  0  0  0  0
    1.3000    0.7500    0.0000 C   0  0  0  0  0  0  0  0  0  0  0  0
   -1.3000    0.7500    0.0000 C   0  0  0  0  0  0  0  0  0  0  0  0
   -0.0000    1.5000    0.0000 C   0  0  0  0  0  0  0  0  0  0  0  0
    0.0000    4.5000    0.0000 N   0  0  0  0  0  0  0  0  0  0  0  0
  3  1  2  0
  4  2  1  0
  5  1  1  0
  6  2  2  0
  7  3  1  0
  8  4  2  0
 11  5  2  0
 11  9  1  0
 12  6  1  0
 12  9  2  0
 13  7  2  0
 13 11  1  0
 14  8  1  0
 14 12  1  0
 15 10  1  0
 15 13  1  0
 15 14  2  0
 16 10  3  0
M  END
>  <NAME>  (1822) 
9-ANTHRACENECARBONITRILE

>  <SYNONYMS>  (1822) 
9-CYANOANTHRACENE

>  <SPECTRUM TYPE>  (1822) 
MS1

>  <INSTRUMENT TYPE>  (1822) 
EI-B

>  <INSTRUMENT>  (1822) 
HITACHI M-80

>  <ION MODE>  (1822) 
P

>  <INCHIKEY>  (1822) 
KEQZHLAEKAVZLY-UHFFFAOYSA-N

>  <FORMULA>  (1822) 
C15H9N

>  <EXACT MASS>  (1822) 
203.073499288

>  <MW>  (1822) 
203

>  <ID>  (1822) 
JP009512

>  <CONTRIBUTOR>  (1822) 
University of Tokyo Team, {Faculty of Engineering, University of Tokyo

>  <COMMENT>  (1822) 
SMILES=N#Cc(c21)c(c3)c(ccc3)cc(cccc2)1
cas=1210-12-4
InChI=InChI=1S/C15H9N/c16-10-15-13-7-3-1-5-11(13)9-12-6-2-4-8-14(12)15/h1-9H
computed SMILES=N#CC=1C=2C=CC=CC2C=C3C=CC=CC31
accession=JP009512
date=2016.01.19 (Created 2008.10.21, modified 2011.05.06)
author=NARA WOMEN'S UNIVERSITY
license=CC BY-NC-SA
exact mass=203.0735
ionization energy=70 eV
ion type=[M]+*
computed spectral entropy=2.546479031582107
computed normalized entropy=0.7106085039079515
SPLASH=splash10-0udi-3390000000-0d0fefbbfcd75a9fba27
submitter=submitter = University of Tokyo Team (Faculty of Engineering, University of Tokyo)
MoNA Rating=3.75

>  <NUM PEAKS>  (1822) 
36

>  <MASS SPECTRAL PEAKS>  (1822) 
39 2.17
50 2.73
51 2.32
61 1.05
62 2.58
63 3.7
74 4.54
75 5.27
76 1.83
86 2.6
87 5.29
88 6.77
98 2.88
99 2.6
100 1.55
101 4.71
102 1.27
110 1.16
111 1.81
122 1.08
123 1.37
124 1.12
126 1.72
149 1.8
150 4.91
151 2.44
152 1.58
174 4.14
175 6.76
176 8.7
177 5.21
201 7.55
202 7.16
203 99.99
204 17.01
205 1.3

$$$$

     RDKit          2D

 29 31  0  0  1  0  0  0  0  0999 V2000
    6.4962   -3.0000    0.0000 C   0  0  0  0  0  0  0  0  0  0  0  0
    3.8989    1.5002    0.0000 C   0  0  0  0  0  0  0  0  0  0  0  0
    3.8981   -1.5000    0.0000 C   0  0  0  0  0  0  0  0  0  0  0  0
   -3.8989   -1.5002    0.0000 C   0  0  0  0  0  0  0  0  0  0  0  0
    5.1971   -3.7500    0.0000 C   0  0  0  0  0  0  0  0  0  0  0  0
   -2.6000    0.7500    0.0000 C   0  0  0  0  0  0  0  0  0  0  0  0
   -1.3000    1.5000    0.0000 C   0  0  0  0  0  0  0  0  0  0  0  0
   -2.5990   -3.7500    0.0000 C   0  0  0  0  0  0  0  0  0  0  0  0
   -1.3000   -3.0000    0.0000 C   0  0  0  0  0  0  0  0  0  0  0  0
    1.3000    1.5000    0.0000 C   0  0  0  0  0  0  0  0  0  0  0  0
    2.6000   -0.7500    0.0000 C   0  0  0  0  0  0  0  0  0  0  0  0
   -1.3001   -6.0002    0.0000 C   0  0  0  0  0  0  0  0  0  0  0  0
   -2.6005   -8.2517    0.0000 C   0  0  0  0  0  0  0  0  0  0  0  0
    2.6000    0.7500    0.0000 C   0  0  0  0  0  0  0  0  0  0  0  0
    3.8981   -3.0000    0.0000 C   0  0  0  0  0  0  0  0  0  0  0  0
   -2.6000   -0.7500    0.0000 C   0  0  0  0  0  0  0  0  0  0  0  0
    0.0000    0.7500    0.0000 C   0  0  0  0  0  0  0  0  0  0  0  0
   -1.3008   -7.5010    0.0000 C   0  0  0  0  0  0  0  0  0  0  0  0
   -2.5990   -5.2500    0.0000 C   0  0  0  0  0  0  0  0  0  0  0  0
   -1.3000   -1.5000    0.0000 C   0  0  0  0  0  0  0  0  0  0  0  0
    1.3000   -1.5000    0.0000 C   0  0  0  0  0  0  0  0  0  0  0  0
   -3.8994   -7.5015    0.0000 C   0  0  0  0  0  0  0  0  0  0  0  0
    0.0000   -0.7500    0.0000 C   0  0  0  0  0  0  0  0  0  0  0  0
    2.5990   -3.7500    0.0000 C   0  0  0  0  0  0  0  0  0  0  0  0
   -0.0019   -8.2512    0.0000 O   0  0  0  0  0  0  0  0  0  0  0  0
   -5.1987   -8.2510    0.0000 O   0  0  0  0  0  0  0  0  0  0  0  0
    2.5990   -5.2500    0.0000 O   0  0  0  0  0  0  0  0  0  0  0  0
   -3.8987   -6.0006    0.0000 O   0  0  0  0  0  0  0  0  0  0  0  0
    1.3000   -3.0000    0.0000 O   0  0  0  0  0  0  0  0  0  0  0  0
  5  1  1  0
  7  6  2  0
  9  8  1  0
 14  2  1  6
 14 10  1  0
 14 11  1  0
 15  3  1  1
 15  5  1  0
 16  4  1  1
 16  6  1  0
 17  7  1  0
 17 10  2  0
 18 12  1  0
 18 13  1  0
 19  8  1  6
 19 12  1  0
 20  9  1  1
 20 16  1  0
 21 11  1  0
 22 13  1  0
 23 17  1  6
 23 20  1  0
 23 21  1  0
 24 15  1  0
 18 25  1  1
 26 22  2  0
 27 24  2  0
 28 19  1  0
 28 22  1  0
 21 29  1  6
 29 24  1  0
M  END
>  <NAME>  (1823) 
MEVINOLINE

>  <SYNONYMS>  (1823) 


>  <SPECTRUM TYPE>  (1823) 
MS1

>  <INSTRUMENT TYPE>  (1823) 
EI-B

>  <INSTRUMENT>  (1823) 
HITACHI M-80

>  <ION MODE>  (1823) 
P

>  <INCHIKEY>  (1823) 
PCZOHLXUXFIOCF-BXMDZJJMSA-N

>  <FORMULA>  (1823) 
C24H36O5

>  <EXACT MASS>  (1823) 
404.256274252

>  <MW>  (1823) 
404

>  <ID>  (1823) 
JP009511

>  <CONTRIBUTOR>  (1823) 
University of Tokyo Team, {Faculty of Engineering, University of Tokyo

>  <COMMENT>  (1823) 
SMILES=CCC([H])(C)C(=O)OC(C3)C([H])(C1=CC(C)3)C(CCC(C2)OC(=O)CC(O)2)C(C)C=C1
cas=75330-75-5
InChI=InChI=1S/C24H36O5/c1-5-15(3)24(27)29-21-11-14(2)10-17-7-6-16(4)20(23(17)21)9-8-19-12-18(25)13-22(26)28-19/h6-7,10,14-16,18-21,23,25H,5,8-9,11-13H2,1-4H3/t14-,15-,16-,18+,19+,20-,21-,23-/m0/s1
computed SMILES=O=C1OC(CCC2C(C=CC3=CC(C)CC(OC(=O)C(C)CC)C32)C)CC(O)C1
author=NARA WOMEN'S UNIVERSITY
accession=JP009511
date=2016.01.19 (Created 2008.10.21, modified 2011.05.06)
license=CC BY-NC-SA
exact mass=404.25627
ionization energy=70 eV
ion type=[M]+*
computed spectral entropy=3.890091399798772
computed normalized entropy=0.8183480786957322
SPLASH=splash10-0a4j-1910000000-8aeacab386a420581150
submitter=submitter = University of Tokyo Team (Faculty of Engineering, University of Tokyo)
MoNA Rating=3.75

>  <NUM PEAKS>  (1823) 
116

>  <MASS SPECTRAL PEAKS>  (1823) 
18 1.22
27 2.13
28 2.07
29 6.63
39 2.13
41 8.86
42 2.43
43 2.67
44 3.89
45 2.86
55 4.61
56 1.94
57 19.87
58 2.33
67 1.88
69 1.68
71 2.46
73 3.22
74 4.67
77 1.52
79 2.33
80 2.03
81 4.05
83 1.1
84 1.45
85 4.43
87 1.66
89 4.04
91 5.01
92 1.1
93 2.3
95 1.21
97 1.9
103 1.54
105 10.16
106 2.19
107 1.79
108 1.3
115 3.21
116 1.21
117 4.19
118 4.37
119 4.07
120 1.23
126 2.76
127 1.59
128 4.23
129 6.1
130 2.7
131 7.38
132 4.25
133 2.16
141 3.07
142 4.71
143 16.21
144 7.35
145 8.56
146 2.37
147 1.25
155 6.87
156 10.93
157 72.15
158 26.93
159 95.11
160 16.45
161 4.65
169 16.54
170 11.68
171 9.62
172 56.63
173 17.5
174 7.72
175 1.92
181 1.49
182 1.21
183 13.09
184 3.28
185 4.8
186 1.49
195 1.74
196 2.32
197 17.82
198 99.99
199 24.51
200 15.98
201 3.9
202 2.07
209 3.08
211 3.93
212 1.39
213 1.55
214 1.23
223 1.72
224 25.09
225 7.17
226 1.26
227 1.09
233 3.05
238 3.45
239 1
242 2.26
243 1.35
251 2.31
256 1.38
269 5.46
270 1.2
284 15.8
285 4.41
286 2.1
287 3.98
300 1.07
302 19.65
303 4.95
304 4.39
404 5.89
405 1.95

$$$$

     RDKit          2D

 20 23  0  0  1  0  0  0  0  0999 V2000
    2.3365    3.1918    0.0000 C   0  0  0  0  0  0  0  0  0  0  0  0
   -0.4100   -2.8000    0.0000 C   0  0  0  0  0  0  0  0  0  0  0  0
   -4.3100   -0.5500    0.0000 C   0  0  0  0  0  0  0  0  0  0  0  0
    0.8900   -2.0500    0.0000 C   0  0  0  0  0  0  0  0  0  0  0  0
   -3.0100    0.2000    0.0000 C   0  0  0  0  0  0  0  0  0  0  0  0
    3.6100   -0.2600    0.0000 C   0  0  0  0  0  0  0  0  0  0  0  0
    4.4900    0.9500    0.0000 C   0  0  0  0  0  0  0  0  0  0  0  0
   -0.4100    1.7000    0.0000 C   0  0  0  0  0  0  0  0  0  0  0  0
    0.8900    2.4500    0.0000 C   0  0  0  0  0  0  0  0  0  0  0  0
   -3.0100   -2.8000    0.0000 C   0  0  0  0  0  0  0  0  0  0  0  0
   -1.7100   -2.0500    0.0000 C   0  0  0  0  0  0  0  0  0  0  0  0
   -4.3100   -2.0500    0.0000 C   0  0  0  0  0  0  0  0  0  0  0  0
   -1.7100   -0.5500    0.0000 C   0  0  0  0  0  0  0  0  0  0  0  0
   -0.4100    0.2000    0.0000 C   0  0  0  0  0  0  0  0  0  0  0  0
    0.8900   -0.5500    0.0000 C   0  0  0  0  0  0  0  0  0  0  0  0
    2.1800    0.2000    0.0000 C   0  0  0  0  0  0  0  0  0  0  0  0
    3.6100    2.1700    0.0000 C   0  0  0  0  0  0  0  0  0  0  0  0
    2.1800    1.7000    0.0000 C   0  0  0  0  0  0  0  0  0  0  0  0
   -5.6089   -2.8002    0.0000 O   0  0  0  0  0  0  0  0  0  0  0  0
    4.0736    3.5966    0.0000 O   0  0  0  0  0  0  0  0  0  0  0  0
  4  2  1  0
  5  3  1  0
  7  6  1  0
  9  8  1  0
 11  2  1  0
 11 10  2  0
 12  3  2  0
 12 10  1  0
 13  5  2  0
 13 11  1  0
 14  8  1  1
 14 13  1  0
 15  4  1  6
 15 14  1  0
 16  6  1  1
 16 15  1  0
 17  7  1  0
 18  1  1  1
 18  9  1  0
 18 16  1  0
 18 17  1  0
 19 12  1  0
 20 17  2  0
M  END
>  <NAME>  (1824) 
ESTRONE

>  <SYNONYMS>  (1824) 


>  <SPECTRUM TYPE>  (1824) 
MS1

>  <INSTRUMENT TYPE>  (1824) 
EI-B

>  <INSTRUMENT>  (1824) 
HITACHI M-80

>  <ION MODE>  (1824) 
P

>  <INCHIKEY>  (1824) 
DNXHEGUUPJUMQT-CBZIJGRNSA-N

>  <FORMULA>  (1824) 
C18H22O2

>  <EXACT MASS>  (1824) 
270.161979944

>  <MW>  (1824) 
270

>  <ID>  (1824) 
JP009509

>  <CONTRIBUTOR>  (1824) 
University of Tokyo Team, {Faculty of Engineering, University of Tokyo

>  <COMMENT>  (1824) 
cas=53-16-7
SMILES=Oc(c4)cc(C3)c(c4)C([H])(C2)C([H])(C3)C([H])(C1)C(C)(C2)C(=O)C1
InChI=InChI=1S/C18H22O2/c1-18-9-8-14-13-5-3-12(19)10-11(13)2-4-15(14)16(18)6-7-17(18)20/h3,5,10,14-16,19H,2,4,6-9H2,1H3/t14-,15-,16+,18+/m1/s1
computed SMILES=O=C1CCC2C3CCC4=CC(O)=CC=C4C3CCC12C
accession=JP009509
date=2016.01.19 (Created 2008.10.21, modified 2011.05.06)
author=NARA WOMEN'S UNIVERSITY
license=CC BY-NC-SA
exact mass=270.16198
ionization energy=70 eV
ion type=[M]+*
computed spectral entropy=4.032636691455209
computed normalized entropy=0.8546439877283184
SPLASH=splash10-00di-2940000000-2d417e7ecb4a8b87b817
submitter=submitter = University of Tokyo Team (Faculty of Engineering, University of Tokyo)
MoNA Rating=3.75

>  <NUM PEAKS>  (1824) 
112

>  <MASS SPECTRAL PEAKS>  (1824) 
18 1.77
27 4.41
28 3.84
29 4.25
39 6.26
40 1.37
41 10.6
42 1.83
43 1.8
51 2.36
52 1.08
53 4.89
54 1.09
55 7.7
57 1.19
63 1.67
65 3.52
66 1.2
67 5.6
68 1.27
69 1.37
77 7.83
78 2.11
79 6.17
81 3.61
82 1.09
85 1.08
89 1.64
91 8.88
92 2.36
93 2.13
95 1.61
97 4.02
102 1.3
103 3.68
104 1.19
105 5.31
107 8.14
108 2.12
115 12.09
116 4.15
117 4.05
119 1.65
120 7.3
121 3.58
123 1.95
127 6.73
128 6.65
129 4.28
130 1.19
131 10.98
132 4.28
133 12.97
134 2.02
135 1.16
139 1.07
141 4.12
142 1.28
143 1.29
144 9.81
145 16.22
146 29.86
147 7.67
148 1.08
150 1.14
152 2.17
153 2.03
154 1.11
155 1.34
157 12.85
158 11.06
159 16.93
160 15.3
161 2.38
165 2.42
167 1.11
169 1.68
170 5.26
171 6.08
172 22.34
173 5.72
174 1.52
181 1.56
182 1.05
183 2.12
184 2.14
185 25.35
186 10
187 1.73
195 1.17
197 2.29
198 1.6
199 6.23
200 2.37
210 1.17
211 4.72
212 2.05
213 17.31
214 10.93
215 1.83
226 5.45
227 2.4
228 1.52
237 1.88
241 1.13
242 4.84
255 1.15
268 1.17
269 2.35
270 99.99
271 20.22
272 2.51

$$$$

     RDKit          2D

 12 13  0  0  0  0  0  0  0  0999 V2000
    3.2476   -0.0550    0.0000 C   0  0  0  0  0  0  0  0  0  0  0  0
   -3.2476    3.6950    0.0000 C   0  0  0  0  0  0  0  0  0  0  0  0
    3.2481    1.4458    0.0000 C   0  0  0  0  0  0  0  0  0  0  0  0
    1.9481   -0.8058    0.0000 C   0  0  0  0  0  0  0  0  0  0  0  0
   -3.2481    2.1942    0.0000 C   0  0  0  0  0  0  0  0  0  0  0  0
   -1.9481    4.4458    0.0000 C   0  0  0  0  0  0  0  0  0  0  0  0
    1.9490    2.1958    0.0000 C   0  0  0  0  0  0  0  0  0  0  0  0
    0.6490   -0.0558    0.0000 C   0  0  0  0  0  0  0  0  0  0  0  0
   -1.9490    1.4442    0.0000 C   0  0  0  0  0  0  0  0  0  0  0  0
   -0.6490    3.6958    0.0000 C   0  0  0  0  0  0  0  0  0  0  0  0
    0.6495    1.4450    0.0000 C   0  0  0  0  0  0  0  0  0  0  0  0
   -0.6495    2.1950    0.0000 C   0  0  0  0  0  0  0  0  0  0  0  0
  3  1  2  0
  4  1  1  0
  5  2  2  0
  6  2  1  0
  7  3  1  0
  8  4  2  0
  9  5  1  0
 10  6  2  0
 11  7  2  0
 11  8  1  0
 12  9  2  0
 12 10  1  0
 12 11  1  0
M  END
>  <NAME>  (1825) 
BIPHENYL

>  <SYNONYMS>  (1825) 
DIPHENYL

>  <SPECTRUM TYPE>  (1825) 
MS1

>  <INSTRUMENT TYPE>  (1825) 
EI-B

>  <INSTRUMENT>  (1825) 
HITACHI M-80

>  <ION MODE>  (1825) 
P

>  <INCHIKEY>  (1825) 
ZUOUZKKEUPVFJK-UHFFFAOYSA-N

>  <FORMULA>  (1825) 
C12H10

>  <EXACT MASS>  (1825) 
154.07825032

>  <MW>  (1825) 
154

>  <ID>  (1825) 
JP009508

>  <CONTRIBUTOR>  (1825) 
University of Tokyo Team, {Faculty of Engineering, University of Tokyo

>  <COMMENT>  (1825) 
SMILES=c(c2)ccc(c2)c(c1)cccc1
cas=92-52-4
InChI=InChI=1S/C12H10/c1-3-7-11(8-4-1)12-9-5-2-6-10-12/h1-10H
computed SMILES=C=1C=CC(=CC1)C=2C=CC=CC2
accession=JP009508
date=2016.01.19 (Created 2008.10.21, modified 2011.05.06)
author=NARA WOMEN'S UNIVERSITY
license=CC BY-NC-SA
exact mass=154.07825
ionization energy=70 eV
ion type=[M]+*
computed spectral entropy=3.1654020319043212
computed normalized entropy=0.8267690034399745
SPLASH=splash10-0udi-6900000000-f9f4bb759b70237cae7b
submitter=submitter = University of Tokyo Team (Faculty of Engineering, University of Tokyo)
MoNA Rating=3.75

>  <NUM PEAKS>  (1825) 
46

>  <MASS SPECTRAL PEAKS>  (1825) 
26 3.51
27 7.25
28 1.04
37 1.31
38 5.07
39 15.37
50 17.74
51 23.9
52 6.09
61 2.3
62 7.59
63 15.46
64 3.37
65 2.69
73 1.2
74 13.03
75 10.47
76 12.39
77 9.57
78 2.97
85 1.37
86 4.32
87 6.51
88 2.17
89 5.64
98 3.87
99 2.32
100 1.37
101 2.4
102 10.06
103 1.33
113 2.62
114 1.29
115 10.03
116 1.03
126 8.13
127 6.25
128 11.05
129 1.2
139 2.95
150 2.57
151 7.66
152 26.02
153 33.2
154 99.99
155 13.32

$$$$

     RDKit          2D

 29 32  0  0  1  0  0  0  0  0999 V2000
    9.5655    7.2342    0.0000 C   0  0  0  0  0  0  0  0  0  0  0  0
    7.1046    8.0672    0.0000 C   0  0  0  0  0  0  0  0  0  0  0  0
    8.6037    4.3926    0.0000 C   0  0  0  0  0  0  0  0  0  0  0  0
    3.2009    4.6377    0.0000 C   0  0  0  0  0  0  0  0  0  0  0  0
   -1.6125    0.9400    0.0000 C   0  0  0  0  0  0  0  0  0  0  0  0
    2.4507    3.1203    0.0000 C   0  0  0  0  0  0  0  0  0  0  0  0
    6.1427    5.2256    0.0000 C   0  0  0  0  0  0  0  0  0  0  0  0
    5.6618    3.8047    0.0000 C   0  0  0  0  0  0  0  0  0  0  0  0
   -0.3200   -2.8400    0.0000 C   0  0  0  0  0  0  0  0  0  0  0  0
    1.0100   -2.0900    0.0000 C   0  0  0  0  0  0  0  0  0  0  0  0
    4.5500    0.8800    0.0000 C   0  0  0  0  0  0  0  0  0  0  0  0
    3.7100   -0.3100    0.0000 C   0  0  0  0  0  0  0  0  0  0  0  0
   -4.2000   -0.5600    0.0000 C   0  0  0  0  0  0  0  0  0  0  0  0
   -0.3200    1.6300    0.0000 C   0  0  0  0  0  0  0  0  0  0  0  0
   -2.8900    0.1600    0.0000 C   0  0  0  0  0  0  0  0  0  0  0  0
    1.0100    2.3900    0.0000 C   0  0  0  0  0  0  0  0  0  0  0  0
   -2.8900   -2.8400    0.0000 C   0  0  0  0  0  0  0  0  0  0  0  0
    8.0946    6.9403    0.0000 C   0  0  0  0  0  0  0  0  0  0  0  0
    7.6137    5.5195    0.0000 C   0  0  0  0  0  0  0  0  0  0  0  0
    4.1909    3.5108    0.0000 C   0  0  0  0  0  0  0  0  0  0  0  0
   -1.6200   -2.0900    0.0000 C   0  0  0  0  0  0  0  0  0  0  0  0
   -4.2000   -2.0900    0.0000 C   0  0  0  0  0  0  0  0  0  0  0  0
    1.0100   -0.5600    0.0000 C   0  0  0  0  0  0  0  0  0  0  0  0
    3.7100    2.0900    0.0000 C   0  0  0  0  0  0  0  0  0  0  0  0
    2.2800    0.1600    0.0000 C   0  0  0  0  0  0  0  0  0  0  0  0
   -0.3200    0.1600    0.0000 C   0  0  0  0  0  0  0  0  0  0  0  0
   -1.6200   -0.5600    0.0000 C   0  0  0  0  0  0  0  0  0  0  0  0
    2.2800    1.6300    0.0000 C   0  0  0  0  0  0  0  0  0  0  0  0
   -5.4977   -2.8424    0.0000 O   0  0  0  0  0  0  0  0  0  0  0  0
  8  7  1  0
 10  9  1  0
 12 11  1  0
 15 13  1  0
 16 14  1  0
 18  1  1  0
 18  2  1  0
 19  3  2  0
 19  7  1  0
 19 18  1  0
 20  4  1  1
 20  8  1  0
 21  9  1  0
 21 17  2  0
 22 13  1  0
 22 17  1  0
 23 10  1  1
 24 11  1  1
 24 20  1  0
 25 12  1  1
 25 23  1  0
 26 14  1  1
 26 23  1  0
 27  5  1  1
 27 15  1  0
 27 21  1  0
 27 26  1  0
 28  6  1  1
 28 16  1  0
 28 24  1  0
 28 25  1  0
 29 22  2  0
M  END
>  <NAME>  (1826) 
ERGSTA-4,24(28)-DIEN-3-ONE

>  <SYNONYMS>  (1826) 


>  <SPECTRUM TYPE>  (1826) 
MS1

>  <INSTRUMENT TYPE>  (1826) 
EI-B

>  <INSTRUMENT>  (1826) 
HITACHI M-80

>  <ION MODE>  (1826) 
P

>  <INCHIKEY>  (1826) 
JRMPVNVOLQJLJX-AWYZUKNCSA-N

>  <FORMULA>  (1826) 
C28H44O

>  <EXACT MASS>  (1826) 
396.339216028

>  <MW>  (1826) 
396

>  <ID>  (1826) 
JP009507

>  <CONTRIBUTOR>  (1826) 
University of Tokyo Team, {Faculty of Engineering, University of Tokyo

>  <COMMENT>  (1826) 
SMILES=CC(C4([H])C([H])(C)CCC(C(C)C)=C)(C([H])3CC4)CCC(C([H])23)([H])C(C)(C=1CC2)CCC(C1)=O
cas=55688-44-3
InChI=InChI=1S/C28H44O/c1-18(2)19(3)7-8-20(4)24-11-12-25-23-10-9-21-17-22(29)13-15-27(21,5)26(23)14-16-28(24,25)6/h17-18,20,23-26H,3,7-16H2,1-2,4-6H3/t20-,23+,24+,25-,26-,27-,28+/m0/s1
computed SMILES=O=C1C=C2CCC3C(CCC4(C)C(CCC34)C(C)CCC(=C)C(C)C)C2(C)CC1
accession=JP009507
date=2016.01.19 (Created 2008.10.21, modified 2011.05.06)
author=NARA WOMEN'S UNIVERSITY
license=CC BY-NC-SA
exact mass=396.33922
ionization energy=70 eV
ion type=[M]+*
computed spectral entropy=4.658371836031231
computed normalized entropy=0.8775691245397915
SPLASH=splash10-03dj-9886000000-4a07baee0f6116d6c545
submitter=submitter = University of Tokyo Team (Faculty of Engineering, University of Tokyo)
MoNA Rating=3.75

>  <NUM PEAKS>  (1826) 
202

>  <MASS SPECTRAL PEAKS>  (1826) 
18 2.74
27 3.93
28 2.69
29 7.17
39 4.11
40 1.23
41 27.71
42 3.66
43 20.53
44 1.33
45 1.37
53 4.57
54 2.1
55 30.58
56 5.88
57 11.14
60 4.43
61 1.89
65 1.91
66 1.21
67 12.84
68 6.03
69 35.62
70 5.99
71 7.09
73 4.61
74 1.35
77 5.19
78 1.3
79 12.58
80 2.76
81 19.98
82 13.2
83 16.46
84 9.49
85 4.91
87 1.23
91 10.38
92 2.29
93 13.33
94 4.73
95 16.75
96 5.03
97 9.58
98 2.93
99 1.8
101 1.02
103 1.5
105 10.28
106 3.21
107 12.12
108 4.32
109 12.27
110 3.13
111 5.07
112 1.98
113 1.72
115 2.21
116 1.26
117 3.18
118 1.45
119 8.4
120 3.75
121 11.17
122 6.72
123 10.95
124 17.05
125 4.27
126 1.88
127 1.51
128 1.4
129 4.78
130 1.23
131 5.15
132 2.48
133 8.82
134 5.17
135 9.07
136 8.43
137 7.37
138 2.98
139 1.14
141 1.25
143 2.53
144 1.4
145 5.65
146 2.9
147 10.09
148 7.29
149 10.82
150 2.75
151 1.71
152 1.24
155 1.32
157 2.45
158 1.31
159 4.99
160 2.93
161 6.54
162 3.03
163 4.49
164 1.17
165 1.19
166 1.22
167 1.59
169 1.24
171 2.44
172 1.7
173 4.74
174 4.23
175 6.32
176 2.95
177 3
178 1.09
183 1.37
185 3.81
186 1.65
187 4.48
188 3.58
189 7.88
190 2.32
191 1.82
192 1.09
197 1.23
199 2.42
200 1.32
201 3.59
202 2.25
203 4.08
204 1.24
209 1.46
211 1.9
212 1.13
213 3.64
214 1.32
215 3.35
216 1.58
217 3.12
218 1.98
219 1.91
225 1.51
226 1.17
227 10.79
228 4.3
229 10.1
230 6.58
231 20.31
232 3.9
234 3.94
241 1.97
242 2.67
243 11.57
244 5.42
245 9.23
246 2.12
252 1.51
253 2.13
255 3.12
256 13.61
257 4.74
258 1.01
259 1.68
262 1.08
263 1.33
264 1.14
267 1.05
268 13.84
269 44.31
270 23.42
271 10.29
272 2.64
273 1.68
279 1.43
281 2.7
282 1.2
283 5.22
284 5.28
285 2.01
294 1.2
295 1.28
296 1.25
297 35.66
298 29.59
299 11.49
300 2.54
310 1.16
311 1.91
312 99.99
313 60.37
314 13.79
315 1.94
328 2.16
353 1.84
380 1.28
381 11.61
382 4.11
394 2.31
395 1.27
396 41.64
397 15.07
398 4.4
399 1.06

$$$$

     RDKit          2D

 29 32  0  0  1  0  0  0  0  0999 V2000
    9.5655    7.2342    0.0000 C   0  0  0  0  0  0  0  0  0  0  0  0
    7.1046    8.0672    0.0000 C   0  0  0  0  0  0  0  0  0  0  0  0
    8.6037    4.3926    0.0000 C   0  0  0  0  0  0  0  0  0  0  0  0
    3.2009    4.6377    0.0000 C   0  0  0  0  0  0  0  0  0  0  0  0
   -1.6125    0.9400    0.0000 C   0  0  0  0  0  0  0  0  0  0  0  0
    2.4507    3.1203    0.0000 C   0  0  0  0  0  0  0  0  0  0  0  0
    6.1427    5.2256    0.0000 C   0  0  0  0  0  0  0  0  0  0  0  0
    5.6618    3.8047    0.0000 C   0  0  0  0  0  0  0  0  0  0  0  0
   -0.3200   -2.8400    0.0000 C   0  0  0  0  0  0  0  0  0  0  0  0
    1.0100   -2.0900    0.0000 C   0  0  0  0  0  0  0  0  0  0  0  0
    4.5500    0.8800    0.0000 C   0  0  0  0  0  0  0  0  0  0  0  0
    3.7100   -0.3100    0.0000 C   0  0  0  0  0  0  0  0  0  0  0  0
   -4.2000   -0.5600    0.0000 C   0  0  0  0  0  0  0  0  0  0  0  0
   -0.3200    1.6300    0.0000 C   0  0  0  0  0  0  0  0  0  0  0  0
   -2.8900    0.1600    0.0000 C   0  0  0  0  0  0  0  0  0  0  0  0
    1.0100    2.3900    0.0000 C   0  0  0  0  0  0  0  0  0  0  0  0
   -2.8900   -2.8400    0.0000 C   0  0  0  0  0  0  0  0  0  0  0  0
    8.0946    6.9403    0.0000 C   0  0  0  0  0  0  0  0  0  0  0  0
    7.6137    5.5195    0.0000 C   0  0  0  0  0  0  0  0  0  0  0  0
    4.1909    3.5108    0.0000 C   0  0  0  0  0  0  0  0  0  0  0  0
   -1.6200   -2.0900    0.0000 C   0  0  0  0  0  0  0  0  0  0  0  0
   -4.2000   -2.0900    0.0000 C   0  0  0  0  0  0  0  0  0  0  0  0
    1.0100   -0.5600    0.0000 C   0  0  0  0  0  0  0  0  0  0  0  0
    3.7100    2.0900    0.0000 C   0  0  0  0  0  0  0  0  0  0  0  0
    2.2800    0.1600    0.0000 C   0  0  0  0  0  0  0  0  0  0  0  0
   -0.3200    0.1600    0.0000 C   0  0  0  0  0  0  0  0  0  0  0  0
   -1.6200   -0.5600    0.0000 C   0  0  0  0  0  0  0  0  0  0  0  0
    2.2800    1.6300    0.0000 C   0  0  0  0  0  0  0  0  0  0  0  0
   -5.4977   -2.8424    0.0000 O   0  0  0  0  0  0  0  0  0  0  0  0
  7  8  2  0
 10  9  1  0
 12 11  1  0
 15 13  1  0
 16 14  1  0
 18  1  1  0
 18  2  1  0
 19  3  1  1
 19  7  1  0
 19 18  1  0
 20  4  1  1
 20  8  1  0
 21  9  2  0
 21 17  1  0
 22 13  1  0
 22 17  1  0
 23 10  2  0
 24 11  1  1
 24 20  1  0
 25 12  1  1
 25 23  1  0
 26 14  1  1
 26 23  1  0
 27  5  1  1
 27 15  1  0
 27 21  1  0
 27 26  1  0
 28  6  1  1
 28 16  1  0
 28 24  1  0
 28 25  1  0
 22 29  1  1
M  END
>  <NAME>  (1827) 
ERGOSTERIN

>  <SYNONYMS>  (1827) 


>  <SPECTRUM TYPE>  (1827) 
MS1

>  <INSTRUMENT TYPE>  (1827) 
EI-B

>  <INSTRUMENT>  (1827) 
HITACHI M-80

>  <ION MODE>  (1827) 
P

>  <INCHIKEY>  (1827) 
DNVPQKQSNYMLRS-PFQWWJQESA-N

>  <FORMULA>  (1827) 
C28H44O

>  <EXACT MASS>  (1827) 
396.339216028

>  <MW>  (1827) 
396

>  <ID>  (1827) 
JP009506

>  <CONTRIBUTOR>  (1827) 
University of Tokyo Team, {Faculty of Engineering, University of Tokyo

>  <COMMENT>  (1827) 
SMILES=C(=CC([H])(C)C(C)C)C(C(C4)([H])C(C3(C4)[H])(CCC(C=23)(C(C1)(C)C(=CC2)CC(O)C1)[H])C)([H])C
cas=57-87-4
InChI=InChI=1S/C28H44O/c1-18(2)19(3)7-8-20(4)24-11-12-25-23-10-9-21-17-22(29)13-15-27(21,5)26(23)14-16-28(24,25)6/h7-10,18-20,22,24-26,29H,11-17H2,1-6H3/b8-7+/t19-,20-,22-,24+,25-,26-,27-,28+/m0/s1
computed SMILES=OC1CC2=CC=C3C(CCC4(C)C3CCC4C(C=CC(C)C(C)C)C)C2(C)CC1
license=CC BY-NC-SA
accession=JP009506
date=2016.01.19 (Created 2008.10.21, modified 2011.05.06)
author=NARA WOMEN'S UNIVERSITY
exact mass=396.33922
ionization energy=70 eV
ion type=[M]+*
computed spectral entropy=4.131411737210923
computed normalized entropy=0.8501175340642757
SPLASH=splash10-0002-5739000000-d0138ac11d14b1acc4f8
submitter=submitter = University of Tokyo Team (Faculty of Engineering, University of Tokyo)
MoNA Rating=3.75

>  <NUM PEAKS>  (1827) 
129

>  <MASS SPECTRAL PEAKS>  (1827) 
27 1.95
29 2.42
39 1.5
41 9.7
43 17.74
53 1.93
55 17.6
57 4.5
67 6.11
69 19.74
70 2.34
71 1.62
77 2.62
79 4.94
81 11.59
82 1.75
83 7.28
91 6.43
92 1.02
93 5.38
94 1.03
95 5.5
97 1.97
105 6.32
106 1.05
107 6.17
108 1.07
109 6.08
115 2.71
116 1.28
117 3.62
118 2.14
119 7.03
120 1.14
121 2.4
123 1.58
125 3.25
127 1
128 4.49
129 4.88
130 1.9
131 5.82
132 1.66
133 4.33
134 1.06
135 1.58
137 1.01
141 3.82
142 2.96
143 11.25
144 3.6
145 9.08
146 2.02
147 3.74
153 1.33
154 1.07
155 4.03
156 2.28
157 9.38
158 4.92
159 8.87
160 1.67
161 1.71
165 1.38
167 1.65
168 1.15
169 4.22
170 2.19
171 6.51
172 1.72
173 2.44
175 4.87
176 1.59
177 1.39
181 1.97
182 1.15
183 4.35
184 1.64
185 4.91
186 2.13
187 1.52
195 2.21
196 1.34
197 6.02
198 2.12
199 4.82
200 1.08
201 1
209 2.02
210 1.18
211 9.27
212 2.39
213 4
217 2.11
223 1.54
224 1.22
225 2.62
226 2.13
227 2.99
229 1.51
237 2.85
238 1.41
239 2.44
251 4.08
252 1.46
253 15.4
254 3.43
255 1.77
269 2.09
270 1.29
271 8.45
272 1.93
337 18.45
338 6.4
339 1.24
363 45
364 13.88
365 2.21
376 1.42
377 1.11
378 3.13
379 1.35
380 1.17
381 1.77
394 2.35
395 1.28
396 99.99
397 31.34
398 5.39

$$$$

     RDKit          2D

  8  7  0  0  0  0  0  0  0  0999 V2000
    1.9486    3.3750    0.0000 C   0  0  0  0  0  0  0  0  0  0  0  0
    0.6495    4.1250    0.0000 C   0  0  0  0  0  0  0  0  0  0  0  0
   -3.2476    3.3750    0.0000 C   0  0  0  0  0  0  0  0  0  0  0  0
   -4.5466    4.1250    0.0000 C   0  0  0  0  0  0  0  0  0  0  0  0
   -1.9486    4.1250    0.0000 C   0  0  0  0  0  0  0  0  0  0  0  0
   -5.8457    3.3750    0.0000 Br  0  0  0  0  0  0  0  0  0  0  0  0
   -1.9486    5.6250    0.0000 O   0  0  0  0  0  0  0  0  0  0  0  0
   -0.6495    3.3750    0.0000 O   0  0  0  0  0  0  0  0  0  0  0  0
  2  1  1  0
  4  3  1  0
  5  3  1  0
  6  4  1  0
  7  5  2  0
  8  2  1  0
  8  5  1  0
M  END
>  <NAME>  (1828) 
ETHYL 3-BROMOPROPIONATE

>  <SYNONYMS>  (1828) 


>  <SPECTRUM TYPE>  (1828) 
MS1

>  <INSTRUMENT TYPE>  (1828) 
EI-B

>  <INSTRUMENT>  (1828) 
HITACHI M-80

>  <ION MODE>  (1828) 
P

>  <INCHIKEY>  (1828) 
FQTIYMRSUOADDK-UHFFFAOYSA-N

>  <FORMULA>  (1828) 
C5H9BrO2

>  <EXACT MASS>  (1828) 
179.978591628

>  <MW>  (1828) 
180

>  <ID>  (1828) 
JP009504

>  <CONTRIBUTOR>  (1828) 
University of Tokyo Team, {Faculty of Engineering, University of Tokyo

>  <COMMENT>  (1828) 
SMILES=CCOC(=O)CCBr
cas=539-74-2
InChI=InChI=1S/C5H9BrO2/c1-2-8-5(7)3-4-6/h2-4H2,1H3
computed SMILES=O=C(OCC)CCBr
accession=JP009504
date=2016.01.19 (Created 2008.10.21, modified 2011.05.06)
author=NARA WOMEN'S UNIVERSITY
license=CC BY-NC-SA
exact mass=179.97859
ionization energy=70 eV
ion type=[M]+*
computed spectral entropy=2.839723111504231
computed normalized entropy=0.7864269363644275
SPLASH=splash10-004i-9200000000-fc5bfcf02d6f8306f710
submitter=submitter = University of Tokyo Team (Faculty of Engineering, University of Tokyo)
MoNA Rating=3.75

>  <NUM PEAKS>  (1828) 
37

>  <MASS SPECTRAL PEAKS>  (1828) 
14 5.32
15 13.05
25 2.14
26 39.83
27 99.99
28 49.43
29 70.84
30 10.34
31 4.09
41 1.84
42 7.15
43 11.72
44 1.91
45 10.79
53 1.68
55 9.67
56 2.06
73 12.45
79 4.91
80 1.76
81 5.12
82 1.84
93 2.33
95 1.77
101 6.5
106 1.62
107 18.34
108 2.14
109 15.18
135 9.73
137 10.44
152 17.63
153 1.07
154 17.14
155 1.13
180 1.15
182 1.02

$$$$

     RDKit          2D

 13 10  0  0  0  0  0  0  0  0999 V2000
   -1.2990    1.5000    0.0000 C   0  0  0  0  0  0  0  0  0  0  0  0
    0.0000    3.7500    0.0000 C   0  0  0  0  0  0  0  0  0  0  0  0
    1.2990    1.5000    0.0000 C   0  0  0  0  0  0  0  0  0  0  0  0
    0.0000    2.2500    0.0000 N   0  0  0  0  0  0  0  0  0  0  0  0
    2.5981    2.2500    0.0000 S   0  0  0  0  0  0  0  0  0  0  0  0
    1.2990   -0.0000    0.0000 S   0  0  0  0  0  0  0  0  0  0  0  0
   -1.2990    1.5000    0.0000 C   0  0  0  0  0  0  0  0  0  0  0  0
    0.0000    3.7500    0.0000 C   0  0  0  0  0  0  0  0  0  0  0  0
    1.2990    1.5000    0.0000 C   0  0  0  0  0  0  0  0  0  0  0  0
    0.0000    2.2500    0.0000 N   0  0  0  0  0  0  0  0  0  0  0  0
    2.5981    2.2500    0.0000 S   0  0  0  0  0  0  0  0  0  0  0  0
    1.2990   -0.0000    0.0000 S   0  0  0  0  0  0  0  0  0  0  0  0
    0.0000    0.0000    0.0000 Zn  0  0  0  0  0 15  0  0  0  0  0  0
  4  1  1  0
  4  2  1  0
  4  3  1  0
  5  3  2  0
  6  3  1  0
 10  7  1  0
 10  8  1  0
 10  9  1  0
 11  9  2  0
 12  9  1  0
M  CHG  3   6  -1  12  -1  13   2
M  END
>  <NAME>  (1829) 
ZIRAM

>  <SYNONYMS>  (1829) 
ZINC DIMETHYLDITHIOCARBAMATE

>  <SPECTRUM TYPE>  (1829) 
MS1

>  <INSTRUMENT TYPE>  (1829) 
EI-B

>  <INSTRUMENT>  (1829) 
HITACHI M-80

>  <ION MODE>  (1829) 
P

>  <INCHIKEY>  (1829) 
DUBNHZYBDBBJHD-UHFFFAOYSA-L

>  <FORMULA>  (1829) 
C6H12N2S4Zn

>  <EXACT MASS>  (1829) 
303.917474584

>  <MW>  (1829) 
304

>  <ID>  (1829) 
JP009503

>  <CONTRIBUTOR>  (1829) 
University of Tokyo Team, {Faculty of Engineering, University of Tokyo

>  <COMMENT>  (1829) 
SMILES=CN(C)C(=S)S[Zn]SC(=S)N(C)C
InChI=InChI=1S/2C3H7NS2.Zn/c2*1-4(2)3(5)6;/h2*1-2H3,(H,5,6);/q;;+2/p-2
computed SMILES=[Zn+2].S=C([S-])N(C)C.S=C([S-])N(C)C
accession=JP009503
date=2016.01.19 (Created 2008.10.21, modified 2011.05.06)
author=NARA WOMEN'S UNIVERSITY
license=CC BY-NC-SA
exact mass=303.91748
ionization energy=70 eV
ion type=[M]+*
computed spectral entropy=3.126420395837728
computed normalized entropy=0.7575281306968078
SPLASH=splash10-0pbi-7219000000-1e53d9c95de1c08396cc
submitter=submitter = University of Tokyo Team (Faculty of Engineering, University of Tokyo)
MoNA Rating=3.75

>  <NUM PEAKS>  (1829) 
62

>  <MASS SPECTRAL PEAKS>  (1829) 
14 1.06
15 8
18 1.19
27 1.09
28 3.57
32 1.68
40 1.49
41 2.64
42 17.43
43 3.02
44 11.61
45 4.09
47 2.18
56 3.3
61 1.04
64 2.79
72 8.72
73 12.9
74 1.59
76 5.19
77 4.92
87 3.03
88 94.81
89 6.69
90 4.19
96 1.53
120 20.67
121 5.59
122 2.14
140 1.16
152 1.81
172 1.19
184 13.16
185 2.48
186 8.6
187 2.67
188 5.77
189 1.11
208 1.48
216 9.12
218 6.35
219 1.2
220 3.91
227 5.38
228 1.89
229 3.37
230 1.71
231 2.36
257 1.4
258 1.03
260 1.1
289 3.33
291 2.75
293 1.87
304 99.99
305 10.69
306 74
307 15.65
308 47.85
309 6.8
310 8.75
311 1.05

$$$$

     RDKit          2D

  6  5  0  0  0  0  0  0  0  0999 V2000
    1.2990    2.2500    0.0000 C   0  0  0  0  0  0  0  0  0  0  0  0
    0.0000    3.0000    0.0000 C   0  0  0  0  0  0  0  0  0  0  0  0
   -2.5981    3.0000    0.0000 C   0  0  0  0  0  0  0  0  0  0  0  0
   -3.8971    2.2500    0.0000 N   0  0  0  0  0  0  0  0  0  0  0  0
   -2.5981    4.5000    0.0000 O   0  0  0  0  0  0  0  0  0  0  0  0
   -1.2990    2.2500    0.0000 O   0  0  0  0  0  0  0  0  0  0  0  0
  2  1  1  0
  4  3  2  0
  5  3  1  0
  6  2  1  0
  6  3  1  0
M  END
>  <NAME>  (1830) 
URETHANE

>  <SYNONYMS>  (1830) 
ETHYL CARBAMATE

>  <SPECTRUM TYPE>  (1830) 
MS1

>  <INSTRUMENT TYPE>  (1830) 
EI-B

>  <INSTRUMENT>  (1830) 
HITACHI M-80

>  <ION MODE>  (1830) 
P

>  <INCHIKEY>  (1830) 
JOYRKODLDBILNP-UHFFFAOYSA-N

>  <FORMULA>  (1830) 
C3H7NO2

>  <EXACT MASS>  (1830) 
89.047678464

>  <MW>  (1830) 
89

>  <ID>  (1830) 
JP009502

>  <CONTRIBUTOR>  (1830) 
University of Tokyo Team, {Faculty of Engineering, University of Tokyo

>  <COMMENT>  (1830) 
SMILES=CCOC(N)=O
cas=51-79-6
InChI=InChI=1S/C3H7NO2/c1-2-6-3(4)5/h2H2,1H3,(H2,4,5)
computed SMILES=N=C(O)OCC
accession=JP009502
date=2016.01.19 (Created 2008.10.21, modified 2011.05.06)
author=NARA WOMEN'S UNIVERSITY
license=CC BY-NC-SA
exact mass=89.04768
ionization energy=70 eV
ion type=[M]+*
computed spectral entropy=2.569695985738248
computed normalized entropy=0.7983209435683859
SPLASH=splash10-01r7-9000000000-4905daa85aa870eff5d7
submitter=submitter = University of Tokyo Team (Faculty of Engineering, University of Tokyo)
MoNA Rating=3.75

>  <NUM PEAKS>  (1830) 
25

>  <MASS SPECTRAL PEAKS>  (1830) 
14 2.09
15 8.3
16 7.55
17 7.59
18 23.24
19 2.53
26 7.56
27 34.84
28 13.02
29 30.39
30 4.93
31 30.47
32 1.53
42 2.72
43 12.77
44 99.99
45 61.51
46 7.34
61 6.17
62 79.69
63 1.14
71 1.01
74 14.25
89 5.57
90 7.21

$$$$

     RDKit          2D

 10 11  0  0  0  0  0  0  0  0999 V2000
    2.6000    0.0000    0.0000 C   0  0  0  0  0  0  0  0  0  0  0  0
   -2.3100   -0.7500    0.0000 C   0  0  0  0  0  0  0  0  0  0  0  0
    0.2900    0.7500    0.0000 C   0  0  0  0  0  0  0  0  0  0  0  0
    0.2900   -0.7500    0.0000 C   0  0  0  0  0  0  0  0  0  0  0  0
   -1.0100    1.5000    0.0000 C   0  0  0  0  0  0  0  0  0  0  0  0
    1.7200    1.2100    0.0000 N   0  0  0  0  0  0  0  0  0  0  0  0
    1.7200   -1.2100    0.0000 N   0  0  0  0  0  0  0  0  0  0  0  0
   -1.0100   -1.5000    0.0000 N   0  0  0  0  0  0  0  0  0  0  0  0
   -2.3100    0.7500    0.0000 N   0  0  0  0  0  0  0  0  0  0  0  0
   -1.0100    3.0000    0.0000 O   0  0  0  0  0  0  0  0  0  0  0  0
  4  3  2  0
  5  3  1  0
  6  1  2  0
  6  3  1  0
  7  1  1  0
  7  4  1  0
  8  2  2  0
  8  4  1  0
  9  2  1  0
  9  5  2  0
 10  5  1  0
M  END
>  <NAME>  (1831) 
HYPOXANTHINE

>  <SYNONYMS>  (1831) 


>  <SPECTRUM TYPE>  (1831) 
MS1

>  <INSTRUMENT TYPE>  (1831) 
EI-B

>  <INSTRUMENT>  (1831) 
HITACHI M-80

>  <ION MODE>  (1831) 
P

>  <INCHIKEY>  (1831) 
FDGQSTZJBFJUBT-UHFFFAOYSA-N

>  <FORMULA>  (1831) 
C5H4N4O

>  <EXACT MASS>  (1831) 
136.038510748

>  <MW>  (1831) 
136

>  <ID>  (1831) 
JP009501

>  <CONTRIBUTOR>  (1831) 
University of Tokyo Team, {Faculty of Engineering, University of Tokyo

>  <COMMENT>  (1831) 
SMILES=C1=NC2=C(N1)C(=O)N=CN2
cas=68-94-0
InChI=InChI=1S/C5H4N4O/c10-5-3-4(7-1-6-3)8-2-9-5/h1-2H,(H2,6,7,8,9,10)
computed SMILES=OC1=NC=NC=2NC=NC12
accession=JP009501
date=2016.01.19 (Created 2008.10.21, modified 2011.05.06)
author=NARA WOMEN'S UNIVERSITY
license=CC BY-NC-SA
exact mass=136.03851
ionization energy=70 eV
ion type=[M]+*
computed spectral entropy=2.20715287063764
computed normalized entropy=0.7140480611127294
SPLASH=splash10-000i-9800000000-9c266d6963658e9d2cf1
submitter=submitter = University of Tokyo Team (Faculty of Engineering, University of Tokyo)
MoNA Rating=3.75

>  <NUM PEAKS>  (1831) 
22

>  <MASS SPECTRAL PEAKS>  (1831) 
18 1.09
27 6.36
28 38.83
29 5.3
38 4.67
39 4.63
43 1.67
52 1.27
53 14.02
54 25.13
55 2.55
65 1.65
66 3.5
67 1
80 3.08
81 10.32
82 3.76
108 5.8
109 5.02
135 5.16
136 99.99
137 7.68

$$$$

     RDKit          2D

  9  9  0  0  0  0  0  0  0  0999 V2000
   -2.5989   -0.3304    0.0000 C   0  0  0  0  0  0  0  0  0  0  0  0
   -1.3000    1.9198    0.0000 C   0  0  0  0  0  0  0  0  0  0  0  0
   -1.3000    0.4198    0.0000 C   0  0  0  0  0  0  0  0  0  0  0  0
   -0.0000   -0.3302    0.0000 C   0  0  0  0  0  0  0  0  0  0  0  0
    1.3000    1.9198    0.0000 C   0  0  0  0  0  0  0  0  0  0  0  0
    0.0000    2.6698    0.0000 N   0  0  0  0  0  0  0  0  0  0  0  0
    1.3000    0.4198    0.0000 N   0  0  0  0  0  0  0  0  0  0  0  0
   -0.0000   -1.8302    0.0000 O   0  0  0  0  0  0  0  0  0  0  0  0
    2.5989    2.6700    0.0000 O   0  0  0  0  0  0  0  0  0  0  0  0
  3  1  1  0
  3  2  2  0
  4  3  1  0
  6  2  1  0
  6  5  2  0
  7  4  2  0
  7  5  1  0
  8  4  1  0
  9  5  1  0
M  END
>  <NAME>  (1832) 
THYMINE

>  <SYNONYMS>  (1832) 
5-METHYLURACIL

>  <SPECTRUM TYPE>  (1832) 
MS1

>  <INSTRUMENT TYPE>  (1832) 
EI-B

>  <INSTRUMENT>  (1832) 
HITACHI M-80

>  <ION MODE>  (1832) 
P

>  <INCHIKEY>  (1832) 
RWQNBRDOKXIBIV-UHFFFAOYSA-N

>  <FORMULA>  (1832) 
C5H6N2O2

>  <EXACT MASS>  (1832) 
126.042927432

>  <MW>  (1832) 
126

>  <ID>  (1832) 
JP009500

>  <CONTRIBUTOR>  (1832) 
University of Tokyo Team, {Faculty of Engineering, University of Tokyo

>  <COMMENT>  (1832) 
SMILES=CC(=C1)C(=O)NC(=O)N1
cas=65-71-4
InChI=InChI=1S/C5H6N2O2/c1-3-2-6-5(9)7-4(3)8/h2H,1H3,(H2,6,7,8,9)
computed SMILES=OC1=NC=C(C(O)=N1)C
accession=JP009500
date=2016.01.19 (Created 2008.10.21, modified 2011.05.06)
author=NARA WOMEN'S UNIVERSITY
license=CC BY-NC-SA
exact mass=126.04293
ionization energy=70 eV
ion type=[M]+*
computed spectral entropy=2.3009898754779896
computed normalized entropy=0.714842696851223
SPLASH=splash10-004i-9500000000-74b6d7909610070d30d0
submitter=submitter = University of Tokyo Team (Faculty of Engineering, University of Tokyo)
MoNA Rating=3.75

>  <NUM PEAKS>  (1832) 
25

>  <MASS SPECTRAL PEAKS>  (1832) 
18 1.22
26 4.65
27 10.06
28 28.56
29 2.41
38 1.93
39 5.35
40 3.01
42 1.94
43 4.47
44 3.71
51 1.8
52 6.98
53 4.13
54 23.97
55 62.89
56 4.56
70 2.46
71 2.15
82 6.62
83 9.34
84 1.46
97 1.23
126 99.99
127 8.33

$$$$

     RDKit          2D

 10 10  0  0  0  0  0  0  0  0999 V2000
    0.9213    1.4946    0.0000 C   0  0  0  0  0  0  0  0  0  0  0  0
    1.8295    2.6884    0.0000 C   0  0  0  0  0  0  0  0  0  0  0  0
   -1.5988    0.5918    0.0000 C   0  0  0  0  0  0  0  0  0  0  0  0
   -2.7568    2.7176    0.0000 C   0  0  0  0  0  0  0  0  0  0  0  0
   -0.5667    1.6842    0.0000 C   0  0  0  0  0  0  0  0  0  0  0  0
    3.3175    2.4987    0.0000 C   0  0  0  0  0  0  0  0  0  0  0  0
   -2.9499    1.2321    0.0000 N   0  0  0  0  0  0  0  0  0  0  0  0
   -1.2857    2.9896    0.0000 N   0  0  0  0  0  0  0  0  0  0  0  0
    3.8972    1.1153    0.0000 O   0  0  0  0  0  0  0  0  0  0  0  0
    4.2257    3.6925    0.0000 O   0  0  0  0  0  0  0  0  0  0  0  0
  1  2  2  0
  5  1  1  0
  5  3  2  0
  6  2  1  0
  7  3  1  0
  7  4  2  0
  8  4  1  0
  8  5  1  0
  9  6  2  0
 10  6  1  0
M  END
>  <NAME>  (1833) 
UROCANIC ACID

>  <SYNONYMS>  (1833) 
4-IMIDAZOLE-ACRYLIC ACID

>  <SPECTRUM TYPE>  (1833) 
MS1

>  <INSTRUMENT TYPE>  (1833) 
EI-B

>  <INSTRUMENT>  (1833) 
HITACHI M-80

>  <ION MODE>  (1833) 
P

>  <INCHIKEY>  (1833) 
LOIYMIARKYCTBW-OWOJBTEDSA-N

>  <FORMULA>  (1833) 
C6H6N2O2

>  <EXACT MASS>  (1833) 
138.042927432

>  <MW>  (1833) 
138

>  <ID>  (1833) 
JP009499

>  <CONTRIBUTOR>  (1833) 
University of Tokyo Team, {Faculty of Engineering, University of Tokyo

>  <COMMENT>  (1833) 
SMILES=C1=C(NC=N1)C=CC(=O)O
cas=104-98-3
InChI=InChI=1S/C6H6N2O2/c9-6(10)2-1-5-3-7-4-8-5/h1-4H,(H,7,8)(H,9,10)/b2-1+
computed SMILES=O=C(O)C=CC1=CN=CN1
accession=JP009499
date=2016.01.19 (Created 2008.10.21, modified 2011.05.06)
author=NARA WOMEN'S UNIVERSITY
license=CC BY-NC-SA
exact mass=138.04293
ionization energy=70 eV
ion type=[M]+*
computed spectral entropy=3.0280370635177896
computed normalized entropy=0.8050720435967609
SPLASH=splash10-000f-9200000000-cb7f9025a0f6adf740c1
submitter=submitter = University of Tokyo Team (Faculty of Engineering, University of Tokyo)
MoNA Rating=3.75

>  <NUM PEAKS>  (1833) 
43

>  <MASS SPECTRAL PEAKS>  (1833) 
17 1.12
18 4.41
26 2.51
27 4.91
28 32.28
29 4.59
37 6.9
38 22.15
39 50.36
40 14.49
41 9.03
42 1.54
44 1.24
45 11.45
50 1.93
51 2.32
52 5.53
53 2.7
54 5.6
55 9.16
63 1.58
64 5.12
65 15.31
66 21.14
67 5.92
68 22.09
69 1.81
81 4.36
82 2.26
83 1.36
84 1.9
92 21.33
93 71.5
94 99.99
95 7.21
109 2.55
110 2.05
119 1.09
120 29.19
121 13.81
122 1.03
138 56.5
139 6.76

$$$$

     RDKit          2D

  8  8  0  0  0  0  0  0  0  0999 V2000
    0.6477    2.2439    0.0000 C   0  0  0  0  0  0  0  0  0  0  0  0
    1.9467    1.4939    0.0000 C   0  0  0  0  0  0  0  0  0  0  0  0
   -0.6468    1.5017    0.0000 C   0  0  0  0  0  0  0  0  0  0  0  0
    0.6517   -0.7491    0.0000 C   0  0  0  0  0  0  0  0  0  0  0  0
    1.9512    0.0017    0.0000 N   0  0  0  0  0  0  0  0  0  0  0  0
   -0.6473    0.0009    0.0000 N   0  0  0  0  0  0  0  0  0  0  0  0
   -1.9446    2.2539    0.0000 O   0  0  0  0  0  0  0  0  0  0  0  0
    0.6520   -2.2491    0.0000 O   0  0  0  0  0  0  0  0  0  0  0  0
  2  1  2  0
  3  1  1  0
  5  2  1  0
  5  4  2  0
  6  3  2  0
  6  4  1  0
  7  3  1  0
  8  4  1  0
M  END
>  <NAME>  (1834) 
URACIL

>  <SYNONYMS>  (1834) 


>  <SPECTRUM TYPE>  (1834) 
MS1

>  <INSTRUMENT TYPE>  (1834) 
EI-B

>  <INSTRUMENT>  (1834) 
HITACHI M-80

>  <ION MODE>  (1834) 
P

>  <INCHIKEY>  (1834) 
ISAKRJDGNUQOIC-UHFFFAOYSA-N

>  <FORMULA>  (1834) 
C4H4N2O2

>  <EXACT MASS>  (1834) 
112.027277368

>  <MW>  (1834) 
112

>  <ID>  (1834) 
JP009498

>  <CONTRIBUTOR>  (1834) 
University of Tokyo Team, {Faculty of Engineering, University of Tokyo

>  <COMMENT>  (1834) 
SMILES=O=C(C=1)NC(=O)NC1
cas=66-22-8
InChI=InChI=1S/C4H4N2O2/c7-3-1-2-5-4(8)6-3/h1-2H,(H2,5,6,7,8)
computed SMILES=OC1=NC=CC(O)=N1
accession=JP009498
date=2016.01.19 (Created 2008.10.21, modified 2011.05.06)
author=NARA WOMEN'S UNIVERSITY
license=CC BY-NC-SA
exact mass=112.02728
ionization energy=70 eV
ion type=[M]+*
computed spectral entropy=2.3358925589781414
computed normalized entropy=0.7556973397244257
SPLASH=splash10-03xu-9400000000-1c29f070a8135b06f88b
submitter=submitter = University of Tokyo Team (Faculty of Engineering, University of Tokyo)
MoNA Rating=3.75

>  <NUM PEAKS>  (1834) 
22

>  <MASS SPECTRAL PEAKS>  (1834) 
14 2.32
18 1.76
25 1.08
26 4.6
27 3.46
28 36.75
29 3.47
38 3.07
39 5.91
40 22.36
41 24.86
42 39.52
43 9.79
44 3.9
53 1.81
56 1.33
67 1.04
68 15.96
69 47.21
70 5.62
112 99.99
113 6.11

$$$$

     RDKit          2D

  5  5  0  0  0  0  0  0  0  0999 V2000
   -1.2100    0.3900    0.0000 C   0  0  0  0  0  0  0  0  0  0  0  0
    0.0000    1.2800    0.0000 N   0  0  0  0  0  0  0  0  0  0  0  0
   -0.7500   -1.0300    0.0000 N   0  0  0  0  0  0  0  0  0  0  0  0
    1.2100    0.3900    0.0000 N   0  0  0  0  0  0  0  0  0  0  0  0
    0.7500   -1.0300    0.0000 N   0  0  0  0  0  0  0  0  0  0  0  0
  2  1  2  0
  3  1  1  0
  4  2  1  0
  5  3  2  0
  5  4  1  0
M  END
>  <NAME>  (1835) 
1H-TETRAZOLE

>  <SYNONYMS>  (1835) 


>  <SPECTRUM TYPE>  (1835) 
MS1

>  <INSTRUMENT TYPE>  (1835) 
EI-B

>  <INSTRUMENT>  (1835) 
HITACHI M-80

>  <ION MODE>  (1835) 
P

>  <INCHIKEY>  (1835) 
KJUGUADJHNHALS-UHFFFAOYSA-N

>  <FORMULA>  (1835) 
CH2N4

>  <EXACT MASS>  (1835) 
70.02794606399999

>  <MW>  (1835) 
70

>  <ID>  (1835) 
JP009497

>  <CONTRIBUTOR>  (1835) 
University of Tokyo Team, {Faculty of Engineering, University of Tokyo

>  <COMMENT>  (1835) 
SMILES=C1=NNN=N1
cas=288-94-8
InChI=InChI=1S/CH2N4/c1-2-4-5-3-1/h1H,(H,2,3,4,5)
computed SMILES=N1=NNN=C1
accession=JP009497
date=2016.01.19 (Created 2008.10.21, modified 2011.05.06)
license=CC BY-NC-SA
author=NARA WOMEN'S UNIVERSITY
exact mass=70.02795
ionization energy=70 eV
ion type=[M]+*
computed spectral entropy=1.9436264666995648
computed normalized entropy=0.701015066212
SPLASH=splash10-0006-9000000000-365fa31532edf6a8b9ff
submitter=submitter = University of Tokyo Team (Faculty of Engineering, University of Tokyo)
MoNA Rating=3.75

>  <NUM PEAKS>  (1835) 
16

>  <MASS SPECTRAL PEAKS>  (1835) 
12 2.96
13 11.72
14 10
15 3.51
26 3.13
27 10.68
28 21.55
29 24.57
40 1.41
41 14.47
42 99.99
43 5.31
44 0.48
70 1.25
71 9.59
72 0.26

$$$$

     RDKit          2D

  5  5  0  0  0  0  0  0  0  0999 V2000
   -1.2100    0.3900    0.0000 C   0  0  0  0  0  0  0  0  0  0  0  0
    0.0000    1.2800    0.0000 N   0  0  0  0  0  0  0  0  0  0  0  0
   -0.7500   -1.0300    0.0000 N   0  0  0  0  0  0  0  0  0  0  0  0
    1.2100    0.3900    0.0000 N   0  0  0  0  0  0  0  0  0  0  0  0
    0.7500   -1.0300    0.0000 N   0  0  0  0  0  0  0  0  0  0  0  0
  2  1  2  0
  3  1  1  0
  4  2  1  0
  5  3  2  0
  5  4  1  0
M  END
>  <NAME>  (1836) 
1H-TETRAZOLE

>  <SYNONYMS>  (1836) 


>  <SPECTRUM TYPE>  (1836) 
MS1

>  <INSTRUMENT TYPE>  (1836) 
EI-B

>  <INSTRUMENT>  (1836) 
HITACHI M-80

>  <ION MODE>  (1836) 
P

>  <INCHIKEY>  (1836) 
KJUGUADJHNHALS-UHFFFAOYSA-N

>  <FORMULA>  (1836) 
CH2N4

>  <EXACT MASS>  (1836) 
70.02794606399999

>  <MW>  (1836) 
70

>  <ID>  (1836) 
JP009496

>  <CONTRIBUTOR>  (1836) 
University of Tokyo Team, {Faculty of Engineering, University of Tokyo

>  <COMMENT>  (1836) 
SMILES=C1=NNN=N1
cas=288-94-8
InChI=InChI=1S/CH2N4/c1-2-4-5-3-1/h1H,(H,2,3,4,5)
computed SMILES=N1=NNN=C1
exact mass=70.02795
accession=JP009496
date=2016.01.19 (Created 2008.10.21, modified 2011.05.06)
author=NARA WOMEN'S UNIVERSITY
license=CC BY-NC-SA
ionization energy=70 eV
ion type=[M]+*
computed spectral entropy=2.046206549674725
computed normalized entropy=0.7556014097677708
SPLASH=splash10-002f-9000000000-af77c3483751bc5a46ad
submitter=submitter = University of Tokyo Team (Faculty of Engineering, University of Tokyo)
MoNA Rating=3.75

>  <NUM PEAKS>  (1836) 
15

>  <MASS SPECTRAL PEAKS>  (1836) 
12 5.35
13 20.78
14 15.18
15 6.46
18 1.65
26 5.22
27 18.76
28 32.2
29 46.49
40 2.15
41 20.55
42 99.99
43 5.33
70 1.15
71 0.54

$$$$

     RDKit          2D

  9  9  0  0  0  0  0  0  0  0999 V2000
    2.2281    2.7902    0.0000 C   0  0  0  0  0  0  0  0  0  0  0  0
    3.5281    2.0402    0.0000 C   0  0  0  0  0  0  0  0  0  0  0  0
    0.9281    2.0402    0.0000 C   0  0  0  0  0  0  0  0  0  0  0  0
    3.5281    0.5402    0.0000 C   0  0  0  0  0  0  0  0  0  0  0  0
    0.9281    0.5402    0.0000 C   0  0  0  0  0  0  0  0  0  0  0  0
   -0.3708   -0.2100    0.0000 C   0  0  0  0  0  0  0  0  0  0  0  0
   -1.6700    0.5398    0.0000 N   0  0  0  0  0  0  0  0  0  0  0  0
    2.2281   -0.2098    0.0000 N   0  0  0  0  0  0  0  0  0  0  0  0
   -0.3706   -1.7100    0.0000 O   0  0  0  0  0  0  0  0  0  0  0  0
  2  1  2  0
  3  1  1  0
  4  2  1  0
  5  3  2  0
  6  5  1  0
  7  6  2  0
  8  4  2  0
  8  5  1  0
  9  6  1  0
M  END
>  <NAME>  (1837) 
ALPHA-PICOLINAMIDE

>  <SYNONYMS>  (1837) 


>  <SPECTRUM TYPE>  (1837) 
MS1

>  <INSTRUMENT TYPE>  (1837) 
EI-B

>  <INSTRUMENT>  (1837) 
HITACHI M-80

>  <ION MODE>  (1837) 
P

>  <INCHIKEY>  (1837) 
IBBMAWULFFBRKK-UHFFFAOYSA-N

>  <FORMULA>  (1837) 
C6H6N2O

>  <EXACT MASS>  (1837) 
122.048012812

>  <MW>  (1837) 
122

>  <ID>  (1837) 
JP009495

>  <CONTRIBUTOR>  (1837) 
University of Tokyo Team, {Faculty of Engineering, University of Tokyo

>  <COMMENT>  (1837) 
SMILES=NC(=O)c(c1)nccc1
InChI=InChI=1S/C6H6N2O/c7-6(9)5-3-1-2-4-8-5/h1-4H,(H2,7,9)
computed SMILES=N=C(O)C1=NC=CC=C1
accession=JP009495
date=2016.01.19 (Created 2008.10.21, modified 2011.05.06)
author=NARA WOMEN'S UNIVERSITY
license=CC BY-NC-SA
exact mass=122.04801
ionization energy=70 eV
ion type=[M]+*
computed spectral entropy=2.591020984189422
computed normalized entropy=0.7775696168339886
SPLASH=splash10-0fb9-9100000000-589b1ae7c14f930b3d31
submitter=submitter = University of Tokyo Team (Faculty of Engineering, University of Tokyo)
MoNA Rating=3.75

>  <NUM PEAKS>  (1837) 
28

>  <MASS SPECTRAL PEAKS>  (1837) 
16 4.05
18 1.27
26 7
27 7.73
28 7.11
29 1.33
37 2.94
38 4.43
39 6.82
40 1.28
41 1.05
43 4.19
44 32.19
49 4.05
50 19.59
51 34.84
52 39.86
53 5.54
67 1.21
75 3.67
76 4.99
77 3.14
78 36.12
79 99.99
80 6.1
106 1.7
122 34.57
123 7.26

$$$$

     RDKit          2D

  6  5  0  0  0  0  0  0  0  0999 V2000
    0.0000    0.0000    0.0000 C   0  0  0  0  0  0  0  0  0  0  0  0
    1.2990    2.2500    0.0000 C   0  0  0  0  0  0  0  0  0  0  0  0
   -1.2990    2.2500    0.0000 C   0  0  0  0  0  0  0  0  0  0  0  0
   -1.2990    3.7500    0.0000 C   0  0  0  0  0  0  0  0  0  0  0  0
    0.0000    1.5000    0.0000 N   0  0  0  0  0  0  0  0  0  0  0  0
   -2.5981    4.5000    0.0000 O   0  0  0  0  0  0  0  0  0  0  0  0
  4  3  1  0
  5  1  1  0
  5  2  1  0
  5  3  1  0
  6  4  1  0
M  END
>  <NAME>  (1838) 
N,N-DIMETHYLETHANOLAMINE

>  <SYNONYMS>  (1838) 
2-DIMETHYLAMINOETHANOL

>  <SPECTRUM TYPE>  (1838) 
MS1

>  <INSTRUMENT TYPE>  (1838) 
EI-B

>  <INSTRUMENT>  (1838) 
HITACHI M-80

>  <ION MODE>  (1838) 
P

>  <INCHIKEY>  (1838) 
UEEJHVSXFDXPFK-UHFFFAOYSA-N

>  <FORMULA>  (1838) 
C4H11NO

>  <EXACT MASS>  (1838) 
89.084063972

>  <MW>  (1838) 
89

>  <ID>  (1838) 
JP009494

>  <CONTRIBUTOR>  (1838) 
University of Tokyo Team, {Faculty of Engineering, University of Tokyo

>  <COMMENT>  (1838) 
SMILES=OCCN(C)C
cas=108-01-0
InChI=InChI=1S/C4H11NO/c1-5(2)3-4-6/h6H,3-4H2,1-2H3
computed SMILES=OCCN(C)C
accession=JP009494
date=2016.01.19 (Created 2008.10.21, modified 2011.05.06)
author=NARA WOMEN'S UNIVERSITY
license=CC BY-NC-SA
exact mass=89.08406
ionization energy=70 eV
ion type=[M]+*
computed spectral entropy=2.0922247609167464
computed normalized entropy=0.6984017828918446
SPLASH=splash10-0a4i-9000000000-3e9a264650444af400c5
submitter=submitter = University of Tokyo Team (Faculty of Engineering, University of Tokyo)
MoNA Rating=3.75

>  <NUM PEAKS>  (1838) 
20

>  <MASS SPECTRAL PEAKS>  (1838) 
15 7.61
18 1.04
27 3.64
28 5.17
29 4.9
30 11.07
31 5.84
40 1.22
41 3.03
42 22.32
43 6.81
44 14.97
45 3.5
56 2.34
57 3.68
58 99.99
59 5.16
88 2.27
89 7.3
90 1.2

$$$$

     RDKit          2D

 10 10  0  0  0  0  0  0  0  0999 V2000
    2.2730   -0.9380    0.0000 C   0  0  0  0  0  0  0  0  0  0  0  0
    3.5721   -0.1880    0.0000 C   0  0  0  0  0  0  0  0  0  0  0  0
    0.9735   -0.1871    0.0000 C   0  0  0  0  0  0  0  0  0  0  0  0
    3.5716    1.3129    0.0000 C   0  0  0  0  0  0  0  0  0  0  0  0
   -0.3261    2.0635    0.0000 C   0  0  0  0  0  0  0  0  0  0  0  0
    0.9730    1.3137    0.0000 C   0  0  0  0  0  0  0  0  0  0  0  0
    2.2721    2.0637    0.0000 C   0  0  0  0  0  0  0  0  0  0  0  0
   -1.6250    1.3133    0.0000 N   0  0  0  0  0  0  0  0  0  0  0  0
    2.2723    3.5637    0.0000 O   0  0  0  0  0  0  0  0  0  0  0  0
   -2.9242    2.0631    0.0000 O   0  0  0  0  0  0  0  0  0  0  0  0
  2  1  2  0
  3  1  1  0
  4  2  1  0
  6  3  2  0
  6  5  1  0
  7  4  2  0
  7  6  1  0
  5  8  2  0
  9  7  1  0
 10  8  1  0
M  END
>  <NAME>  (1839) 
SALICYLALDOXIME

>  <SYNONYMS>  (1839) 


>  <SPECTRUM TYPE>  (1839) 
MS1

>  <INSTRUMENT TYPE>  (1839) 
EI-B

>  <INSTRUMENT>  (1839) 
HITACHI M-80

>  <ION MODE>  (1839) 
P

>  <INCHIKEY>  (1839) 
ORIHZIZPTZTNCU-VMPITWQZSA-N

>  <FORMULA>  (1839) 
C7H7NO2

>  <EXACT MASS>  (1839) 
137.047678464

>  <MW>  (1839) 
137

>  <ID>  (1839) 
JP009493

>  <CONTRIBUTOR>  (1839) 
University of Tokyo Team, {Faculty of Engineering, University of Tokyo

>  <COMMENT>  (1839) 
SMILES=ON=Cc(c1)c(O)ccc1
cas=94-67-7
InChI=InChI=1S/C7H7NO2/c9-7-4-2-1-3-6(7)5-8-10/h1-5,9-10H/b8-5+
computed SMILES=ON=CC=1C=CC=CC1O
accession=JP009493
date=2016.01.19 (Created 2008.10.21, modified 2011.05.06)
author=NARA WOMEN'S UNIVERSITY
license=CC BY-NC-SA
exact mass=137.04768
ionization energy=70 eV
ion type=[M]+*
computed spectral entropy=2.9184715945144615
computed normalized entropy=0.7911539617429636
SPLASH=splash10-0006-9000000000-430bbc09a57679173581
submitter=submitter = University of Tokyo Team (Faculty of Engineering, University of Tokyo)
MoNA Rating=3.75

>  <NUM PEAKS>  (1839) 
40

>  <MASS SPECTRAL PEAKS>  (1839) 
17 1.5
18 3.22
19 1.16
26 2.55
27 4.77
28 11.25
29 2.74
30 3.42
37 3.91
38 9.93
39 24.09
40 2.12
41 4.17
44 2.01
50 6.15
51 10.21
52 9.32
53 6.49
54 1.55
55 1.35
61 2.56
62 5.77
63 19.79
64 26.7
65 24.61
66 3.59
68 1.18
74 2.08
75 2.75
76 2.36
77 6.75
78 4.23
80 2.74
81 2.05
90 2.4
91 99.99
92 15.47
93 3.65
94 1.97
102 8.41

$$$$

     RDKit          2D

  8  8  0  0  1  0  0  0  0  0999 V2000
    1.5995   -1.0095    0.0000 C   0  0  0  0  0  0  0  0  0  0  0  0
    0.1311   -0.6929    0.0000 C   0  0  0  0  0  0  0  0  0  0  0  0
    2.3495    0.2895    0.0000 C   0  0  0  0  0  0  0  0  0  0  0  0
   -0.0260    0.7950    0.0000 C   0  0  0  0  0  0  0  0  0  0  0  0
   -1.3250    1.5450    0.0000 C   0  0  0  0  0  0  0  0  0  0  0  0
    1.3411    1.4029    0.0000 N   0  0  0  0  0  0  0  0  0  0  0  0
   -1.3250    3.0450    0.0000 O   0  0  0  0  0  0  0  0  0  0  0  0
   -2.6241    0.7950    0.0000 O   0  0  0  0  0  0  0  0  0  0  0  0
  2  1  1  0
  3  1  1  0
  4  2  1  0
  4  5  1  1
  6  3  1  0
  6  4  1  0
  7  5  2  0
  8  5  1  0
M  END
>  <NAME>  (1840) 
L-PROLINE

>  <SYNONYMS>  (1840) 
(S)-(-)-PROLINE

>  <SPECTRUM TYPE>  (1840) 
MS1

>  <INSTRUMENT TYPE>  (1840) 
EI-B

>  <INSTRUMENT>  (1840) 
HITACHI M-80

>  <ION MODE>  (1840) 
P

>  <INCHIKEY>  (1840) 
ONIBWKKTOPOVIA-BYPYZUCNSA-N

>  <FORMULA>  (1840) 
C5H9NO2

>  <EXACT MASS>  (1840) 
115.063328528

>  <MW>  (1840) 
115

>  <ID>  (1840) 
JP009492

>  <CONTRIBUTOR>  (1840) 
University of Tokyo Team, {Faculty of Engineering, University of Tokyo

>  <COMMENT>  (1840) 
SMILES=OC(=O)C([H])(C1)NCC1
cas=147-85-3
InChI=InChI=1S/C5H9NO2/c7-5(8)4-2-1-3-6-4/h4,6H,1-3H2,(H,7,8)/t4-/m0/s1
computed SMILES=O=C(O)C1NCCC1
accession=JP009492
computed normalized entropy=0.7453189570889001
date=2016.01.19 (Created 2008.10.21, modified 2011.05.06)
author=NARA WOMEN'S UNIVERSITY
license=CC BY-NC-SA
exact mass=115.06333
ionization energy=70 eV
ion type=[M]+*
computed spectral entropy=2.4564496957054955
SPLASH=splash10-00fu-9000000000-716c3d01b301162863b6
submitter=submitter = University of Tokyo Team (Faculty of Engineering, University of Tokyo)
MoNA Rating=3.75

>  <NUM PEAKS>  (1840) 
27

>  <MASS SPECTRAL PEAKS>  (1840) 
14 1.2
15 4.96
17 0.96
18 3.32
26 3.22
27 11.87
28 43.71
29 4.18
30 5.52
37 1.27
38 2.94
39 15.08
40 4.6
41 31.9
42 10.06
43 26.51
44 2.57
45 18.4
53 1.23
54 1.1
67 1.34
68 13.78
69 5.22
70 99.99
71 5.08
115 0.96
116 0.9

$$$$

     RDKit          2D

  5  4  0  0  0  0  0  0  0  0999 V2000
   -1.2990    2.2500    0.0000 C   0  0  0  0  0  0  0  0  0  0  0  0
   -2.5981    1.5000    0.0000 C   0  0  0  0  0  0  0  0  0  0  0  0
    0.0000    1.5000    0.0000 C   0  0  0  0  0  0  0  0  0  0  0  0
   -3.8971    2.2500    0.0000 S   0  0  0  0  0  0  0  0  0  0  0  0
    1.2990    2.2500    0.0000 S   0  0  0  0  0  0  0  0  0  0  0  0
  2  1  1  0
  3  1  1  0
  4  2  1  0
  5  3  1  0
M  END
>  <NAME>  (1841) 
1,3-PROPANEDITHIOL

>  <SYNONYMS>  (1841) 
1,3-DIMERCAPTOPROPANE

>  <SPECTRUM TYPE>  (1841) 
MS1

>  <INSTRUMENT TYPE>  (1841) 
EI-B

>  <INSTRUMENT>  (1841) 
HITACHI M-80

>  <ION MODE>  (1841) 
P

>  <INCHIKEY>  (1841) 
ZJLMKPKYJBQJNH-UHFFFAOYSA-N

>  <FORMULA>  (1841) 
C3H8S2

>  <EXACT MASS>  (1841) 
108.006742256

>  <MW>  (1841) 
108

>  <ID>  (1841) 
JP009491

>  <CONTRIBUTOR>  (1841) 
University of Tokyo Team, {Faculty of Engineering, University of Tokyo

>  <COMMENT>  (1841) 
SMILES=SCCCS
cas=109-80-8
InChI=InChI=1S/C3H8S2/c4-2-1-3-5/h4-5H,1-3H2
computed SMILES=SCCCS
accession=JP009491
date=2016.01.19 (Created 2008.10.21, modified 2011.05.06)
author=NARA WOMEN'S UNIVERSITY
license=CC BY-NC-SA
exact mass=108.00674
ionization energy=70 eV
ion type=[M]+*
computed spectral entropy=3.0459988686774566
computed normalized entropy=0.795582180005333
SPLASH=splash10-0abd-9200000000-6a18983666e306b5d1d7
submitter=submitter = University of Tokyo Team (Faculty of Engineering, University of Tokyo)
MoNA Rating=3.75

>  <NUM PEAKS>  (1841) 
46

>  <MASS SPECTRAL PEAKS>  (1841) 
15 1.43
26 4.22
27 19.57
28 4.41
29 1.3
32 4.64
33 6.85
34 6.54
35 8.88
37 1.9
38 3.51
39 25.18
40 3.22
41 92.51
42 6.6
43 1.25
44 2.08
45 42.63
46 28.7
47 59.94
48 3.33
49 2.7
57 2.06
58 7.57
59 14.46
60 6.97
61 35.73
62 1.73
63 1.56
64 10.31
66 1.91
69 2.85
71 4.17
72 2.11
73 12.37
74 72.83
75 9.99
76 4.3
78 6.09
79 2.02
80 1.37
106 37.61
107 7.88
108 99.99
109 6.31
110 8.86

$$$$

     RDKit          2D

 16 16  0  0  0  0  0  0  0  0999 V2000
    0.0000    3.0000    0.0000 C   0  0  0  0  0  0  0  0  0  0  0  0
   -3.3491   -0.2013    0.0000 C   0  0  0  0  0  0  0  0  0  0  0  0
   -3.8978   -2.2504    0.0000 C   0  0  0  0  0  0  0  0  0  0  0  0
   -1.8487   -2.7991    0.0000 C   0  0  0  0  0  0  0  0  0  0  0  0
    1.8487   -2.7991    0.0000 C   0  0  0  0  0  0  0  0  0  0  0  0
    3.8978   -2.2504    0.0000 C   0  0  0  0  0  0  0  0  0  0  0  0
    3.3491   -0.2013    0.0000 C   0  0  0  0  0  0  0  0  0  0  0  0
   -1.3000    0.7500    0.0000 C   0  0  0  0  0  0  0  0  0  0  0  0
    1.3000    0.7500    0.0000 C   0  0  0  0  0  0  0  0  0  0  0  0
    0.0000    1.5000    0.0000 C   0  0  0  0  0  0  0  0  0  0  0  0
   -1.3000   -0.7500    0.0000 C   0  0  0  0  0  0  0  0  0  0  0  0
    1.3000   -0.7500    0.0000 C   0  0  0  0  0  0  0  0  0  0  0  0
    0.0000   -1.5000    0.0000 C   0  0  0  0  0  0  0  0  0  0  0  0
   -2.5989   -1.5002    0.0000 C   0  0  0  0  0  0  0  0  0  0  0  0
    2.5989   -1.5002    0.0000 C   0  0  0  0  0  0  0  0  0  0  0  0
   -0.0000   -3.0000    0.0000 O   0  0  0  0  0  0  0  0  0  0  0  0
 10  1  1  0
 10  8  2  0
 10  9  1  0
 11  8  1  0
 12  9  2  0
 13 11  2  0
 13 12  1  0
 14  2  1  0
 14  3  1  0
 14  4  1  0
 14 11  1  0
 15  5  1  0
 15  6  1  0
 15  7  1  0
 15 12  1  0
 16 13  1  0
M  END
>  <NAME>  (1842) 
2,6-DI-TERT-BUTYL-4-METHYLPHENOL

>  <SYNONYMS>  (1842) 
2,6-DI-TERT-BUTYL-4-CRESOL

>  <SPECTRUM TYPE>  (1842) 
MS1

>  <INSTRUMENT TYPE>  (1842) 
EI-B

>  <INSTRUMENT>  (1842) 
HITACHI M-80

>  <ION MODE>  (1842) 
P

>  <INCHIKEY>  (1842) 
NLZUEZXRPGMBCV-UHFFFAOYSA-N

>  <FORMULA>  (1842) 
C15H24O

>  <EXACT MASS>  (1842) 
220.182715388

>  <MW>  (1842) 
220

>  <ID>  (1842) 
JP009490

>  <CONTRIBUTOR>  (1842) 
University of Tokyo Team, {Faculty of Engineering, University of Tokyo

>  <COMMENT>  (1842) 
SMILES=Cc(c1)cc(C(C)(C)C)c(O)c1C(C)(C)C
cas=128-37-0
InChI=InChI=1S/C15H24O/c1-10-8-11(14(2,3)4)13(16)12(9-10)15(5,6)7/h8-9,16H,1-7H3
computed SMILES=OC=1C(=CC(=CC1C(C)(C)C)C)C(C)(C)C
accession=JP009490
date=2016.01.19 (Created 2008.10.21, modified 2011.05.06)
author=NARA WOMEN'S UNIVERSITY
license=CC BY-NC-SA
exact mass=220.18272
ionization energy=70 eV
ion type=[M]+*
computed spectral entropy=2.4909246279885586
computed normalized entropy=0.6752523792043715
SPLASH=splash10-0a4i-3490000000-ddeff8b438c2941c327e
submitter=submitter = University of Tokyo Team (Faculty of Engineering, University of Tokyo)
MoNA Rating=3.75

>  <NUM PEAKS>  (1842) 
40

>  <MASS SPECTRAL PEAKS>  (1842) 
29 3.28
39 1.38
41 5.31
43 1.16
55 2.89
57 12.64
67 1.54
77 1.76
79 1.23
81 2.47
91 3.84
95 1.8
105 5.16
115 2.67
116 1.19
117 1.43
119 2.87
121 2.35
128 2.18
129 2.38
130 1.38
131 2.76
133 2.36
135 1.3
141 1.56
142 1.28
145 8.24
146 1.25
147 1.33
149 1.52
157 1.12
159 1.32
161 3.1
163 1.73
175 1.07
177 5.5
189 4.25
205 99.99
206 15.57
207 1.37

$$$$

     RDKit          2D

 16 17  0  0  0  0  0  0  0  0999 V2000
    3.2481    2.1950    0.0000 C   0  0  0  0  0  0  0  0  0  0  0  0
   -7.1442    2.1950    0.0000 C   0  0  0  0  0  0  0  0  0  0  0  0
    3.2486    3.6958    0.0000 C   0  0  0  0  0  0  0  0  0  0  0  0
    1.9486    1.4442    0.0000 C   0  0  0  0  0  0  0  0  0  0  0  0
   -5.8447    1.4442    0.0000 C   0  0  0  0  0  0  0  0  0  0  0  0
   -7.1447    3.6958    0.0000 C   0  0  0  0  0  0  0  0  0  0  0  0
    1.9495    4.4458    0.0000 C   0  0  0  0  0  0  0  0  0  0  0  0
    0.6495    2.1942    0.0000 C   0  0  0  0  0  0  0  0  0  0  0  0
   -4.5457    2.1942    0.0000 C   0  0  0  0  0  0  0  0  0  0  0  0
   -5.8457    4.4458    0.0000 C   0  0  0  0  0  0  0  0  0  0  0  0
   -0.6490    4.4450    0.0000 C   0  0  0  0  0  0  0  0  0  0  0  0
   -3.2471    4.4450    0.0000 C   0  0  0  0  0  0  0  0  0  0  0  0
    0.6500    3.6950    0.0000 C   0  0  0  0  0  0  0  0  0  0  0  0
   -4.5462    3.6950    0.0000 C   0  0  0  0  0  0  0  0  0  0  0  0
   -1.9481    3.6950    0.0000 C   0  0  0  0  0  0  0  0  0  0  0  0
   -1.9481    2.1950    0.0000 O   0  0  0  0  0  0  0  0  0  0  0  0
  3  1  2  0
  4  1  1  0
  5  2  2  0
  6  2  1  0
  7  3  1  0
  8  4  2  0
  9  5  1  0
 10  6  2  0
 13  7  2  0
 13  8  1  0
 13 11  1  0
 14  9  2  0
 14 10  1  0
 14 12  1  0
 15 11  1  0
 15 12  1  0
 16 15  2  0
M  END
>  <NAME>  (1843) 
1,3-DIPHENYLACETONE

>  <SYNONYMS>  (1843) 


>  <SPECTRUM TYPE>  (1843) 
MS1

>  <INSTRUMENT TYPE>  (1843) 
EI-B

>  <INSTRUMENT>  (1843) 
HITACHI M-80

>  <ION MODE>  (1843) 
P

>  <INCHIKEY>  (1843) 
YFKBXYGUSOXJGS-UHFFFAOYSA-N

>  <FORMULA>  (1843) 
C15H14O

>  <EXACT MASS>  (1843) 
210.104465068

>  <MW>  (1843) 
210

>  <ID>  (1843) 
JP009489

>  <CONTRIBUTOR>  (1843) 
University of Tokyo Team, {Faculty of Engineering, University of Tokyo

>  <COMMENT>  (1843) 
SMILES=O=C(Cc(c2)cccc2)Cc(c1)cccc1
cas=102-04-5
InChI=InChI=1S/C15H14O/c16-15(11-13-7-3-1-4-8-13)12-14-9-5-2-6-10-14/h1-10H,11-12H2
computed SMILES=O=C(CC=1C=CC=CC1)CC=2C=CC=CC2
accession=JP009489
date=2016.01.19 (Created 2008.10.21, modified 2011.05.06)
author=NARA WOMEN'S UNIVERSITY
license=CC BY-NC-SA
exact mass=210.10447
ionization energy=70 eV
ion type=[M]+*
computed spectral entropy=2.666928144327062
computed normalized entropy=0.756283461577529
SPLASH=splash10-0006-9000000000-1a46c1ad4fe2dc9b7120
submitter=submitter = University of Tokyo Team (Faculty of Engineering, University of Tokyo)
MoNA Rating=3.75

>  <NUM PEAKS>  (1843) 
34

>  <MASS SPECTRAL PEAKS>  (1843) 
14 2.43
15 3.96
17 1.4
18 3.14
26 3.14
27 9.42
28 7.18
29 9.31
30 2.33
31 38.56
32 1.53
39 5.38
41 1.92
42 1.54
43 4.05
45 16.77
46 7.49
50 1.44
51 3.12
63 3.68
64 1.32
65 15.58
66 1.2
77 2.81
89 4.9
90 3.55
91 99.99
92 8.82
105 2.99
106 1.26
118 6.15
119 9.38
210 9.55
211 1.75

$$$$

     RDKit          2D

  6  5  0  0  0  0  0  0  0  0999 V2000
   -0.0000   -0.0000    0.0000 C   0  0  0  0  0  0  0  0  0  0  0  0
   -1.2990    3.7500    0.0000 C   0  0  0  0  0  0  0  0  0  0  0  0
   -2.5981    1.5000    0.0000 C   0  0  0  0  0  0  0  0  0  0  0  0
   -0.0000    1.5000    0.0000 C   0  0  0  0  0  0  0  0  0  0  0  0
   -1.2990    2.2500    0.0000 N   0  0  0  0  0  0  0  0  0  0  0  0
    1.2990    2.2500    0.0000 O   0  0  0  0  0  0  0  0  0  0  0  0
  4  1  1  0
  5  2  1  0
  5  3  1  0
  5  4  1  0
  6  4  2  0
M  END
>  <NAME>  (1844) 
N,N-DIMETHYLACETAMIDE

>  <SYNONYMS>  (1844) 


>  <SPECTRUM TYPE>  (1844) 
MS1

>  <INSTRUMENT TYPE>  (1844) 
EI-B

>  <INSTRUMENT>  (1844) 
HITACHI M-80

>  <ION MODE>  (1844) 
P

>  <INCHIKEY>  (1844) 
FXHOOIRPVKKKFG-UHFFFAOYSA-N

>  <FORMULA>  (1844) 
C4H9NO

>  <EXACT MASS>  (1844) 
87.068413908

>  <MW>  (1844) 
87

>  <ID>  (1844) 
JP009488

>  <CONTRIBUTOR>  (1844) 
University of Tokyo Team, {Faculty of Engineering, University of Tokyo

>  <COMMENT>  (1844) 
SMILES=CN(C)C(C)=O
cas=127-19-5
InChI=InChI=1S/C4H9NO/c1-4(6)5(2)3/h1-3H3
computed SMILES=O=C(N(C)C)C
accession=JP009488
license=CC BY-NC-SA
date=2016.01.19 (Created 2008.10.21, modified 2011.05.06)
author=NARA WOMEN'S UNIVERSITY
exact mass=87.06841
ionization energy=70 eV
ion type=[M]+*
computed spectral entropy=2.2632240350713486
computed normalized entropy=0.7554827429176005
SPLASH=splash10-0006-9000000000-5e3281b4f8650eae12d9
submitter=submitter = University of Tokyo Team (Faculty of Engineering, University of Tokyo)
MoNA Rating=3.75

>  <NUM PEAKS>  (1844) 
20

>  <MASS SPECTRAL PEAKS>  (1844) 
14 2.91
15 20.98
18 3.9
27 2.05
28 8.06
29 1.63
30 9.84
31 1.77
40 2.46
41 4.13
42 29.44
43 46.3
44 99.99
45 22.05
46 1.08
56 2.02
58 1.7
72 19.44
87 70.49
88 16.04

$$$$

     RDKit          2D

 10 10  0  0  0  0  0  0  0  0999 V2000
   -3.5794    0.1813    0.0000 C   0  0  0  0  0  0  0  0  0  0  0  0
    4.2153    0.1861    0.0000 C   0  0  0  0  0  0  0  0  0  0  0  0
   -2.2816    0.9335    0.0000 C   0  0  0  0  0  0  0  0  0  0  0  0
    2.9164    0.9363    0.0000 C   0  0  0  0  0  0  0  0  0  0  0  0
    0.3223   -2.0565    0.0000 C   0  0  0  0  0  0  0  0  0  0  0  0
   -0.9768   -1.3065    0.0000 C   0  0  0  0  0  0  0  0  0  0  0  0
    1.6168   -1.3143    0.0000 C   0  0  0  0  0  0  0  0  0  0  0  0
    0.3182    0.9365    0.0000 C   0  0  0  0  0  0  0  0  0  0  0  0
   -0.9813    0.1857    0.0000 C   0  0  0  0  0  0  0  0  0  0  0  0
    1.6173    0.1865    0.0000 C   0  0  0  0  0  0  0  0  0  0  0  0
  3  1  1  0
  4  2  1  0
  6  5  2  0
  7  5  1  0
  9  3  1  0
  9  6  1  0
  9  8  2  0
 10  4  1  0
 10  7  2  0
 10  8  1  0
M  END
>  <NAME>  (1845) 
1,3-DIETHYLBENZENE

>  <SYNONYMS>  (1845) 


>  <SPECTRUM TYPE>  (1845) 
MS1

>  <INSTRUMENT TYPE>  (1845) 
EI-B

>  <INSTRUMENT>  (1845) 
HITACHI M-80

>  <ION MODE>  (1845) 
P

>  <INCHIKEY>  (1845) 
AFZZYIJIWUTJFO-UHFFFAOYSA-N

>  <FORMULA>  (1845) 
C10H14

>  <EXACT MASS>  (1845) 
134.109550448

>  <MW>  (1845) 
134

>  <ID>  (1845) 
JP009487

>  <CONTRIBUTOR>  (1845) 
University of Tokyo Team, {Faculty of Engineering, University of Tokyo

>  <COMMENT>  (1845) 
SMILES=CCc(c1)cc(CC)cc1
cas=141-93-5
InChI=InChI=1S/C10H14/c1-3-9-6-5-7-10(4-2)8-9/h5-8H,3-4H2,1-2H3
computed SMILES=C=1C=C(C=C(C1)CC)CC
accession=JP009487
date=2016.01.19 (Created 2008.10.21, modified 2011.05.06)
author=NARA WOMEN'S UNIVERSITY
license=CC BY-NC-SA
exact mass=134.10955
ionization energy=70 eV
ion type=[M]+*
computed spectral entropy=2.802107002683309
computed normalized entropy=0.7545584015473547
SPLASH=splash10-067i-3900000000-09b6243b09a923315a46
submitter=submitter = University of Tokyo Team (Faculty of Engineering, University of Tokyo)
MoNA Rating=3.75

>  <NUM PEAKS>  (1845) 
41

>  <MASS SPECTRAL PEAKS>  (1845) 
15 3.39
26 1.2
27 7.04
28 2.01
29 4.73
31 6.49
39 6.83
41 4.8
45 3.09
46 1.34
50 1.77
51 5.82
52 1.74
53 1.97
57 1.03
63 3.97
64 1.15
65 6.32
77 13.78
78 6.04
79 9.05
89 3
91 28.36
92 2.65
93 2.73
102 2.44
103 10.85
104 7.74
105 99.99
106 9.76
107 1.13
115 10.24
116 3.09
117 15.55
118 3.28
119 87.39
120 8.92
128 1.14
133 2.05
134 58.83
135 7.34

$$$$

     RDKit          2D

 10 10  0  0  0  0  0  0  0  0999 V2000
   -3.8969    2.5696    0.0000 C   0  0  0  0  0  0  0  0  0  0  0  0
   -2.5978    0.3196    0.0000 C   0  0  0  0  0  0  0  0  0  0  0  0
    2.5983    0.3196    0.0000 C   0  0  0  0  0  0  0  0  0  0  0  0
    2.5988    1.8204    0.0000 C   0  0  0  0  0  0  0  0  0  0  0  0
    1.2988   -0.4312    0.0000 C   0  0  0  0  0  0  0  0  0  0  0  0
    1.2998    2.5704    0.0000 C   0  0  0  0  0  0  0  0  0  0  0  0
   -0.0002    0.3188    0.0000 C   0  0  0  0  0  0  0  0  0  0  0  0
   -1.2988    2.5696    0.0000 C   0  0  0  0  0  0  0  0  0  0  0  0
    0.0002    1.8196    0.0000 C   0  0  0  0  0  0  0  0  0  0  0  0
   -2.5978    1.8196    0.0000 N   0  0  0  0  0  0  0  0  0  0  0  0
  4  3  2  0
  5  3  1  0
  6  4  1  0
  7  5  2  0
  9  6  2  0
  9  7  1  0
  9  8  1  0
 10  1  1  0
 10  2  1  0
 10  8  1  0
M  END
>  <NAME>  (1846) 
N,N-DIMETHYLBENZYLAMINE

>  <SYNONYMS>  (1846) 
BENZYLDIMETHYLAMINE

>  <SPECTRUM TYPE>  (1846) 
MS1

>  <INSTRUMENT TYPE>  (1846) 
EI-B

>  <INSTRUMENT>  (1846) 
HITACHI M-80

>  <ION MODE>  (1846) 
P

>  <INCHIKEY>  (1846) 
XXBDWLFCJWSEKW-UHFFFAOYSA-N

>  <FORMULA>  (1846) 
C9H13N

>  <EXACT MASS>  (1846) 
135.104799416

>  <MW>  (1846) 
135

>  <ID>  (1846) 
JP009486

>  <CONTRIBUTOR>  (1846) 
University of Tokyo Team, {Faculty of Engineering, University of Tokyo

>  <COMMENT>  (1846) 
SMILES=CN(C)Cc(c1)cccc1
cas=103-83-3
InChI=InChI=1S/C9H13N/c1-10(2)8-9-6-4-3-5-7-9/h3-7H,8H2,1-2H3
computed SMILES=C=1C=CC(=CC1)CN(C)C
accession=JP009486
date=2016.01.19 (Created 2008.10.21, modified 2011.05.06)
author=NARA WOMEN'S UNIVERSITY
license=CC BY-NC-SA
exact mass=135.1048
ionization energy=70 eV
ion type=[M]+*
computed spectral entropy=2.6450608777961504
computed normalized entropy=0.7381182918865008
SPLASH=splash10-052o-9400000000-05599a7b9661e4f78e1a
submitter=submitter = University of Tokyo Team (Faculty of Engineering, University of Tokyo)
MoNA Rating=3.75

>  <NUM PEAKS>  (1846) 
36

>  <MASS SPECTRAL PEAKS>  (1846) 
15 4.94
27 3.07
28 2.73
29 2.26
30 3.51
31 7.11
39 7.2
40 1.02
41 3.17
42 21.92
43 4.1
44 10.45
45 3.29
46 1.43
50 2.23
51 5.72
52 1.32
57 3.4
58 99.99
59 3.85
62 1.29
63 4.98
64 1.37
65 14.88
66 1.12
77 4.59
78 1.99
89 4.46
90 1.93
91 57.78
92 10.24
118 4.22
132 2.28
134 41.77
135 77.61
136 10.37

$$$$

     RDKit          2D

  9  9  0  0  0  0  0  0  0  0999 V2000
    2.9228   -0.2425    0.0000 C   0  0  0  0  0  0  0  0  0  0  0  0
    2.9233    1.2583    0.0000 C   0  0  0  0  0  0  0  0  0  0  0  0
    1.6233   -0.9933    0.0000 C   0  0  0  0  0  0  0  0  0  0  0  0
    1.6243    2.0083    0.0000 C   0  0  0  0  0  0  0  0  0  0  0  0
    0.3243   -0.2433    0.0000 C   0  0  0  0  0  0  0  0  0  0  0  0
   -0.9743    2.0075    0.0000 C   0  0  0  0  0  0  0  0  0  0  0  0
   -2.2733    1.2575    0.0000 C   0  0  0  0  0  0  0  0  0  0  0  0
    0.3248    1.2575    0.0000 C   0  0  0  0  0  0  0  0  0  0  0  0
   -3.5724    2.0075    0.0000 Br  0  0  0  0  0  0  0  0  0  0  0  0
  2  1  2  0
  3  1  1  0
  4  2  1  0
  5  3  2  0
  7  6  1  0
  8  4  2  0
  8  5  1  0
  8  6  1  0
  9  7  1  0
M  END
>  <NAME>  (1847) 
(2-BROMOETHYL)BENZENE

>  <SYNONYMS>  (1847) 
PHENYL BROMIDE

>  <SPECTRUM TYPE>  (1847) 
MS1

>  <INSTRUMENT TYPE>  (1847) 
EI-B

>  <INSTRUMENT>  (1847) 
HITACHI M-80

>  <ION MODE>  (1847) 
P

>  <INCHIKEY>  (1847) 
WMPPDTMATNBGJN-UHFFFAOYSA-N

>  <FORMULA>  (1847) 
C8H9Br

>  <EXACT MASS>  (1847) 
183.988762388

>  <MW>  (1847) 
184

>  <ID>  (1847) 
JP009485

>  <CONTRIBUTOR>  (1847) 
University of Tokyo Team, {Faculty of Engineering, University of Tokyo

>  <COMMENT>  (1847) 
computed SMILES=BrCCC=1C=CC=CC1
SMILES=BrCCc(c1)cccc1
cas=103-63-9
InChI=InChI=1S/C8H9Br/c9-7-6-8-4-2-1-3-5-8/h1-5H,6-7H2
accession=JP009485
date=2016.01.19 (Created 2008.10.21, modified 2011.05.06)
author=NARA WOMEN'S UNIVERSITY
license=CC BY-NC-SA
exact mass=183.98876
ionization energy=70 eV
ion type=[M]+*
computed spectral entropy=2.7798169349729616
computed normalized entropy=0.7698366460336786
SPLASH=splash10-052f-9600000000-97fb142a9a5e197ef86d
submitter=submitter = University of Tokyo Team (Faculty of Engineering, University of Tokyo)
MoNA Rating=3.75

>  <NUM PEAKS>  (1847) 
37

>  <MASS SPECTRAL PEAKS>  (1847) 
26 1.5
27 6.6
28 1.03
38 2
39 8.36
50 7.88
51 17
52 4.34
53 1.12
62 2.2
63 6.12
64 1.28
65 8.07
74 3.17
75 2.55
76 3
77 19.79
78 12.19
79 11.43
80 1.16
81 1.29
82 1.16
89 3.01
90 1.05
91 99.99
92 8.2
93 2.72
95 2.49
102 3.25
103 14.61
104 16.05
105 70.58
106 6.22
184 26.92
185 2.51
186 27
187 2.46

$$$$

     RDKit          2D

 15 17  0  0  0  0  0  0  0  0999 V2000
    4.2200   -0.2200    0.0000 C   0  0  0  0  0  0  0  0  0  0  0  0
   -4.2200   -0.2200    0.0000 C   0  0  0  0  0  0  0  0  0  0  0  0
    3.8800    1.2400    0.0000 C   0  0  0  0  0  0  0  0  0  0  0  0
   -3.8800    1.2400    0.0000 C   0  0  0  0  0  0  0  0  0  0  0  0
    3.1200   -1.2400    0.0000 C   0  0  0  0  0  0  0  0  0  0  0  0
   -3.1200   -1.2400    0.0000 C   0  0  0  0  0  0  0  0  0  0  0  0
    2.4500    1.6800    0.0000 C   0  0  0  0  0  0  0  0  0  0  0  0
   -2.4500    1.6800    0.0000 C   0  0  0  0  0  0  0  0  0  0  0  0
    0.7500   -1.9700    0.0000 C   0  0  0  0  0  0  0  0  0  0  0  0
   -0.7500   -1.9700    0.0000 C   0  0  0  0  0  0  0  0  0  0  0  0
    0.0000    1.3100    0.0000 C   0  0  0  0  0  0  0  0  0  0  0  0
    1.6900   -0.8000    0.0000 C   0  0  0  0  0  0  0  0  0  0  0  0
   -1.6900   -0.8000    0.0000 C   0  0  0  0  0  0  0  0  0  0  0  0
    1.3500    0.6600    0.0000 C   0  0  0  0  0  0  0  0  0  0  0  0
   -1.3500    0.6600    0.0000 C   0  0  0  0  0  0  0  0  0  0  0  0
  3  1  2  0
  4  2  2  0
  5  1  1  0
  6  2  1  0
  7  3  1  0
  8  4  1  0
 10  9  1  0
 12  5  2  0
 12  9  1  0
 13  6  2  0
 13 10  1  0
 14  7  2  0
 14 11  1  0
 14 12  1  0
 15  8  2  0
 15 11  1  0
 15 13  1  0
M  END
>  <NAME>  (1848) 
DIBENZOSUBERANE

>  <SYNONYMS>  (1848) 
10,11-DIHYDRO-5H-DIBENZO(A,D)CYCLOHEPTENE

>  <SPECTRUM TYPE>  (1848) 
MS1

>  <INSTRUMENT TYPE>  (1848) 
EI-B

>  <INSTRUMENT>  (1848) 
HITACHI M-80

>  <ION MODE>  (1848) 
P

>  <INCHIKEY>  (1848) 
PJQCANLCUDUPRF-UHFFFAOYSA-N

>  <FORMULA>  (1848) 
C15H14

>  <EXACT MASS>  (1848) 
194.109550448

>  <MW>  (1848) 
194

>  <ID>  (1848) 
JP009484

>  <CONTRIBUTOR>  (1848) 
University of Tokyo Team, {Faculty of Engineering, University of Tokyo

>  <COMMENT>  (1848) 
SMILES=c(c3)cc(C1)c(c3)Cc(c2)c(ccc2)C1
cas=833-48-7
InChI=InChI=1S/C15H14/c1-3-7-14-11-15-8-4-2-6-13(15)10-9-12(14)5-1/h1-8H,9-11H2
computed SMILES=C=1C=CC2=C(C1)CC=3C=CC=CC3CC2
accession=JP009484
date=2016.01.19 (Created 2008.10.21, modified 2011.05.06)
author=NARA WOMEN'S UNIVERSITY
license=CC BY-NC-SA
exact mass=194.10955
ionization energy=70 eV
ion type=[M]+*
computed spectral entropy=3.2315184377046506
computed normalized entropy=0.786090389653564
SPLASH=splash10-002f-1900000000-0f7b60ace7319624a78a
submitter=submitter = University of Tokyo Team (Faculty of Engineering, University of Tokyo)
MoNA Rating=3.75

>  <NUM PEAKS>  (1848) 
61

>  <MASS SPECTRAL PEAKS>  (1848) 
18 2.55
27 3.8
39 5.91
50 2.16
51 4.99
52 1.42
62 1.65
63 6.23
64 1.19
65 3.08
74 1.45
75 1.91
76 3.33
77 4.76
78 3.72
82 1.79
83 3.49
87 1.45
88 1.7
89 11.46
90 2.4
91 6
95 2.1
96 4.4
97 1.28
102 2.13
103 2.75
115 24.34
116 22.08
117 7.18
121 1.08
126 1.42
127 1.8
128 5.77
129 1.06
139 3.84
141 1.94
150 1.46
151 3.05
152 8.86
153 3.05
163 3
164 2.44
165 19.96
166 6.36
167 1.94
176 4.28
177 4.12
178 43.43
179 57.19
180 9.13
187 1.1
188 1
189 9.03
190 3.66
191 9.62
192 6.18
193 52.84
194 99.99
195 15.94
196 1.2

$$$$

     RDKit          2D

 11 11  0  0  0  0  0  0  0  0999 V2000
   -3.2538    2.6270    0.0000 C   0  0  0  0  0  0  0  0  0  0  0  0
   -0.6484    4.1141    0.0000 C   0  0  0  0  0  0  0  0  0  0  0  0
   -1.9585    1.8706    0.0000 C   0  0  0  0  0  0  0  0  0  0  0  0
    1.9386    2.6078    0.0000 C   0  0  0  0  0  0  0  0  0  0  0  0
    0.6251    0.3829    0.0000 C   0  0  0  0  0  0  0  0  0  0  0  0
    3.2231    1.8829    0.0000 C   0  0  0  0  0  0  0  0  0  0  0  0
    1.9496   -0.4112    0.0000 C   0  0  0  0  0  0  0  0  0  0  0  0
   -0.6558    2.6142    0.0000 C   0  0  0  0  0  0  0  0  0  0  0  0
    0.6396    1.8578    0.0000 C   0  0  0  0  0  0  0  0  0  0  0  0
    3.2486    0.3388    0.0000 C   0  0  0  0  0  0  0  0  0  0  0  0
    4.5538   -0.4005    0.0000 O   0  0  0  0  0  0  0  0  0  0  0  0
  3  1  1  0
  6  4  2  0
  7  5  1  0
  8  2  1  0
  8  3  1  0
  9  4  1  0
  9  5  2  0
  9  8  1  0
 10  6  1  0
 10  7  2  0
 11 10  1  0
M  END
>  <NAME>  (1849) 
4-SEC-BUTYLPHENOL

>  <SYNONYMS>  (1849) 


>  <SPECTRUM TYPE>  (1849) 
MS1

>  <INSTRUMENT TYPE>  (1849) 
EI-B

>  <INSTRUMENT>  (1849) 
HITACHI M-80

>  <ION MODE>  (1849) 
P

>  <INCHIKEY>  (1849) 
ZUTYZAFDFLLILI-UHFFFAOYSA-N

>  <FORMULA>  (1849) 
C10H14O

>  <EXACT MASS>  (1849) 
150.104465068

>  <MW>  (1849) 
150

>  <ID>  (1849) 
JP009483

>  <CONTRIBUTOR>  (1849) 
University of Tokyo Team, {Faculty of Engineering, University of Tokyo

>  <COMMENT>  (1849) 
SMILES=CCC(C)c(c1)ccc(O)c1
cas=99-71-8
InChI=InChI=1S/C10H14O/c1-3-8(2)9-4-6-10(11)7-5-9/h4-8,11H,3H2,1-2H3
computed SMILES=OC1=CC=C(C=C1)C(C)CC
accession=JP009483
date=2016.01.19 (Created 2008.10.21, modified 2011.05.06)
author=NARA WOMEN'S UNIVERSITY
license=CC BY-NC-SA
exact mass=150.10447
ionization energy=70 eV
ion type=[M]+*
computed spectral entropy=2.5344963360417463
computed normalized entropy=0.718728649084348
SPLASH=splash10-00di-4900000000-10a3c41667e51f5a9cdb
submitter=submitter = University of Tokyo Team (Faculty of Engineering, University of Tokyo)
MoNA Rating=3.75

>  <NUM PEAKS>  (1849) 
34

>  <MASS SPECTRAL PEAKS>  (1849) 
15 1.04
26 1.01
27 7.31
28 1.76
29 5.73
39 6.43
41 3.17
50 1.12
51 3.11
52 1.05
53 2.14
55 2.28
63 2.49
65 5.84
66 1.68
77 13.67
78 2.3
79 1.62
89 1.11
91 11.67
92 2
93 4.26
95 1.06
103 8.66
105 1.06
107 12.42
108 1.18
119 2.06
120 4.97
121 99.99
122 9.02
135 3.77
150 19.65
151 2.16

$$$$

     RDKit          2D

 11 11  0  0  0  0  0  0  0  0999 V2000
    1.5187   -2.9891    0.0000 C   0  0  0  0  0  0  0  0  0  0  0  0
    3.5678   -2.4404    0.0000 C   0  0  0  0  0  0  0  0  0  0  0  0
    3.0191   -0.3913    0.0000 C   0  0  0  0  0  0  0  0  0  0  0  0
   -1.6200   -0.9400    0.0000 C   0  0  0  0  0  0  0  0  0  0  0  0
   -0.3300   -1.6900    0.0000 C   0  0  0  0  0  0  0  0  0  0  0  0
   -1.6200    0.5600    0.0000 C   0  0  0  0  0  0  0  0  0  0  0  0
    0.9700    0.5600    0.0000 C   0  0  0  0  0  0  0  0  0  0  0  0
    0.9700   -0.9400    0.0000 C   0  0  0  0  0  0  0  0  0  0  0  0
   -0.3300    1.3100    0.0000 C   0  0  0  0  0  0  0  0  0  0  0  0
    2.2689   -1.6902    0.0000 C   0  0  0  0  0  0  0  0  0  0  0  0
   -0.3325    2.8100    0.0000 O   0  0  0  0  0  0  0  0  0  0  0  0
  5  4  2  0
  6  4  1  0
  8  5  1  0
  8  7  2  0
  9  6  2  0
  9  7  1  0
 10  1  1  0
 10  2  1  0
 10  3  1  0
 10  8  1  0
 11  9  1  0
M  END
>  <NAME>  (1850) 
3-TERT-BUTYLPHENOL

>  <SYNONYMS>  (1850) 


>  <SPECTRUM TYPE>  (1850) 
MS1

>  <INSTRUMENT TYPE>  (1850) 
EI-B

>  <INSTRUMENT>  (1850) 
HITACHI M-80

>  <ION MODE>  (1850) 
P

>  <INCHIKEY>  (1850) 
CYEKUDPFXBLGHH-UHFFFAOYSA-N

>  <FORMULA>  (1850) 
C10H14O

>  <EXACT MASS>  (1850) 
150.104465068

>  <MW>  (1850) 
150

>  <ID>  (1850) 
JP009482

>  <CONTRIBUTOR>  (1850) 
University of Tokyo Team, {Faculty of Engineering, University of Tokyo

>  <COMMENT>  (1850) 
SMILES=Oc(c1)cc(cc1)C(C)(C)C
cas=585-34-2
InChI=InChI=1S/C10H14O/c1-10(2,3)8-5-4-6-9(11)7-8/h4-7,11H,1-3H3
computed SMILES=OC1=CC=CC(=C1)C(C)(C)C
accession=JP009482
date=2016.01.19 (Created 2008.10.21, modified 2011.05.06)
author=NARA WOMEN'S UNIVERSITY
license=CC BY-NC-SA
exact mass=150.10447
ionization energy=70 eV
ion type=[M]+*
computed spectral entropy=2.822158320385376
computed normalized entropy=0.7290136348986722
SPLASH=splash10-052r-3900000000-682da625802e236e6895
submitter=submitter = University of Tokyo Team (Faculty of Engineering, University of Tokyo)
MoNA Rating=3.75

>  <NUM PEAKS>  (1850) 
48

>  <MASS SPECTRAL PEAKS>  (1850) 
15 3.11
27 5.2
28 2.76
29 2.96
38 1.01
39 10.52
40 1.38
41 8.52
43 1.51
50 1.62
51 4.96
52 1.91
53 3.01
55 1.91
57 2.01
63 4.12
64 1.39
65 7.49
66 2.45
75 1.3
77 12.7
78 3.68
79 6.5
89 2.98
90 1.52
91 21.3
92 2.5
94 2.17
95 4.61
102 1.17
103 2.04
105 3.24
107 88.94
108 10.36
109 1.32
115 13.9
116 3.51
117 1.72
119 2.67
120 1.06
121 2.43
122 2.09
133 1.7
134 1.64
135 99.99
136 10.41
150 43.3
151 4.9

$$$$

     RDKit          2D

  5  5  0  0  0  0  0  0  0  0999 V2000
   -1.2995    1.0295    0.0000 C   0  0  0  0  0  0  0  0  0  0  0  0
    1.5005    1.7795    0.0000 C   0  0  0  0  0  0  0  0  0  0  0  0
    0.2005    1.0295    0.0000 C   0  0  0  0  0  0  0  0  0  0  0  0
   -2.0495   -0.2695    0.0000 Br  0  0  0  0  0  0  0  0  0  0  0  0
    1.5005    0.2795    0.0000 O   0  0  0  0  0  0  0  0  0  0  0  0
  3  1  1  0
  3  2  1  0
  4  1  1  0
  5  2  1  0
  5  3  1  0
M  END
>  <NAME>  (1851) 
EPIBROMOHYDRIN

>  <SYNONYMS>  (1851) 
1-BROMO-2,3-EPOXYPROPANE

>  <SPECTRUM TYPE>  (1851) 
MS1

>  <INSTRUMENT TYPE>  (1851) 
EI-B

>  <INSTRUMENT>  (1851) 
HITACHI M-80

>  <ION MODE>  (1851) 
P

>  <INCHIKEY>  (1851) 
GKIPXFAANLTWBM-UHFFFAOYSA-N

>  <FORMULA>  (1851) 
C3H5BrO

>  <EXACT MASS>  (1851) 
135.95237688

>  <MW>  (1851) 
136

>  <ID>  (1851) 
JP009481

>  <CONTRIBUTOR>  (1851) 
University of Tokyo Team, {Faculty of Engineering, University of Tokyo

>  <COMMENT>  (1851) 
SMILES=C(O1)C1CBr
cas=3132-64-7
InChI=InChI=1S/C3H5BrO/c4-1-3-2-5-3/h3H,1-2H2
computed SMILES=BrCC1OC1
accession=JP009481
date=2016.01.19 (Created 2008.10.21, modified 2011.05.06)
author=NARA WOMEN'S UNIVERSITY
license=CC BY-NC-SA
exact mass=135.95238
ionization energy=70 eV
ion type=[M]+*
computed spectral entropy=2.4206283119824796
computed normalized entropy=0.7116988637688312
SPLASH=splash10-0a6r-9000000000-6ba4a0f2a0dd3b99910d
submitter=submitter = University of Tokyo Team (Faculty of Engineering, University of Tokyo)
MoNA Rating=3.75

>  <NUM PEAKS>  (1851) 
30

>  <MASS SPECTRAL PEAKS>  (1851) 
14 3.27
15 4.77
25 1.7
26 13.02
27 47.61
28 7.24
29 35.5
30 3.42
31 29.24
37 1.67
38 2.84
39 6.54
41 1.18
42 3.21
43 3.64
55 1.13
57 99.99
58 3.58
79 4.47
80 1.86
81 4.84
82 1.79
83 5.61
93 5.12
95 1.44
105 2.65
107 1.95
108 2.09
123 1.81
125 1.71

$$$$

     RDKit          2D

 15 17  0  0  0  0  0  0  0  0999 V2000
    3.9000    0.7500    0.0000 C   0  0  0  0  0  0  0  0  0  0  0  0
   -3.9000    0.7500    0.0000 C   0  0  0  0  0  0  0  0  0  0  0  0
    3.9000   -0.7500    0.0000 C   0  0  0  0  0  0  0  0  0  0  0  0
   -3.9000   -0.7500    0.0000 C   0  0  0  0  0  0  0  0  0  0  0  0
    2.6000    1.5000    0.0000 C   0  0  0  0  0  0  0  0  0  0  0  0
   -2.6000    1.5000    0.0000 C   0  0  0  0  0  0  0  0  0  0  0  0
    2.6000   -1.5000    0.0000 C   0  0  0  0  0  0  0  0  0  0  0  0
   -2.6000   -1.5000    0.0000 C   0  0  0  0  0  0  0  0  0  0  0  0
    1.3000    0.7500    0.0000 C   0  0  0  0  0  0  0  0  0  0  0  0
   -1.3000    0.7500    0.0000 C   0  0  0  0  0  0  0  0  0  0  0  0
    1.3000   -0.7500    0.0000 C   0  0  0  0  0  0  0  0  0  0  0  0
   -1.3000   -0.7500    0.0000 C   0  0  0  0  0  0  0  0  0  0  0  0
    0.0000    1.5000    0.0000 C   0  0  0  0  0  0  0  0  0  0  0  0
    0.0000   -1.5000    0.0000 N   0  0  0  0  0  0  0  0  0  0  0  0
    0.0000    3.0000    0.0000 O   0  0  0  0  0  0  0  0  0  0  0  0
  3  1  2  0
  4  2  2  0
  5  1  1  0
  6  2  1  0
  7  3  1  0
  8  4  1  0
  9  5  2  0
 10  6  2  0
 11  7  2  0
 11  9  1  0
 12  8  2  0
 12 10  1  0
 13  9  1  0
 13 10  1  0
 14 11  1  0
 14 12  1  0
 15 13  2  0
M  END
>  <NAME>  (1852) 
9(10H)-ACRIDONE

>  <SYNONYMS>  (1852) 


>  <SPECTRUM TYPE>  (1852) 
MS1

>  <INSTRUMENT TYPE>  (1852) 
EI-B

>  <INSTRUMENT>  (1852) 
HITACHI M-80

>  <ION MODE>  (1852) 
P

>  <INCHIKEY>  (1852) 
FZEYVTFCMJSGMP-UHFFFAOYSA-N

>  <FORMULA>  (1852) 
C13H9NO

>  <EXACT MASS>  (1852) 
195.068413908

>  <MW>  (1852) 
195

>  <ID>  (1852) 
JP009480

>  <CONTRIBUTOR>  (1852) 
University of Tokyo Team, {Faculty of Engineering, University of Tokyo

>  <COMMENT>  (1852) 
SMILES=O=C(c21)c(c3)c(ccc3)Nc(cccc2)1
cas=578-95-0
InChI=InChI=1S/C13H9NO/c15-13-9-5-1-3-7-11(9)14-12-8-4-2-6-10(12)13/h1-8H,(H,14,15)
computed SMILES=O=C1C=2C=CC=CC2NC=3C=CC=CC13
accession=JP009480
date=2016.01.19 (Created 2008.10.21, modified 2011.05.06)
author=NARA WOMEN'S UNIVERSITY
license=CC BY-NC-SA
exact mass=195.06841
ionization energy=70 eV
ion type=[M]+*
computed spectral entropy=2.907558853139548
computed normalized entropy=0.7510741098038861
SPLASH=splash10-00kb-3900000000-cb9f42be169c6b6da934
submitter=submitter = University of Tokyo Team (Faculty of Engineering, University of Tokyo)
MoNA Rating=3.75

>  <NUM PEAKS>  (1852) 
48

>  <MASS SPECTRAL PEAKS>  (1852) 
18 1.84
27 1.18
28 3.58
38 2.02
39 4.03
50 6.16
51 3.6
52 2.08
62 2.84
63 7.24
64 3.85
65 1.79
69 2.03
70 1.21
71 2.27
74 4.02
75 4.38
76 5.23
77 3.56
83 1.61
84 7.88
86 1.21
87 2.31
88 1.84
89 2.45
90 1.78
91 1.14
92 2.27
97 2.16
101 1.05
102 1.45
113 3.92
114 2.37
115 2.89
137 1.13
138 1.97
139 14.78
140 12.62
141 2.01
164 3.16
165 2.22
166 19.1
167 40.8
168 5.58
194 3.3
195 99.99
196 14.98
197 1.14

$$$$

     RDKit          2D

 14 15  0  0  0  0  0  0  0  0999 V2000
    1.2986    4.8200    0.0000 C   0  0  0  0  0  0  0  0  0  0  0  0
   -2.5986    1.0700    0.0000 C   0  0  0  0  0  0  0  0  0  0  0  0
    5.1957    1.0700    0.0000 C   0  0  0  0  0  0  0  0  0  0  0  0
   -2.5990    2.5708    0.0000 C   0  0  0  0  0  0  0  0  0  0  0  0
   -1.2990    0.3192    0.0000 C   0  0  0  0  0  0  0  0  0  0  0  0
    3.8962    0.3192    0.0000 C   0  0  0  0  0  0  0  0  0  0  0  0
    5.1962    2.5708    0.0000 C   0  0  0  0  0  0  0  0  0  0  0  0
   -1.3000    3.3208    0.0000 C   0  0  0  0  0  0  0  0  0  0  0  0
    0.0000    1.0692    0.0000 C   0  0  0  0  0  0  0  0  0  0  0  0
    2.5971    1.0692    0.0000 C   0  0  0  0  0  0  0  0  0  0  0  0
    3.8971    3.3208    0.0000 C   0  0  0  0  0  0  0  0  0  0  0  0
   -0.0005    2.5700    0.0000 C   0  0  0  0  0  0  0  0  0  0  0  0
    2.5976    2.5700    0.0000 C   0  0  0  0  0  0  0  0  0  0  0  0
    1.2986    3.3200    0.0000 N   0  0  0  0  0  0  0  0  0  0  0  0
  4  2  2  0
  5  2  1  0
  6  3  2  0
  7  3  1  0
  8  4  1  0
  9  5  2  0
 10  6  1  0
 11  7  2  0
 12  8  2  0
 12  9  1  0
 13 10  2  0
 13 11  1  0
 14  1  1  0
 14 12  1  0
 14 13  1  0
M  END
>  <NAME>  (1853) 
N-METHYLDIPHENYLAMINE

>  <SYNONYMS>  (1853) 


>  <SPECTRUM TYPE>  (1853) 
MS1

>  <INSTRUMENT TYPE>  (1853) 
EI-B

>  <INSTRUMENT>  (1853) 
HITACHI M-80

>  <ION MODE>  (1853) 
P

>  <INCHIKEY>  (1853) 
DYFFAVRFJWYYQO-UHFFFAOYSA-N

>  <FORMULA>  (1853) 
C13H13N

>  <EXACT MASS>  (1853) 
183.104799416

>  <MW>  (1853) 
183

>  <ID>  (1853) 
JP009479

>  <CONTRIBUTOR>  (1853) 
University of Tokyo Team, {Faculty of Engineering, University of Tokyo

>  <COMMENT>  (1853) 
SMILES=c(c2)ccc(c2)N(C)c(c1)cccc1
cas=552-82-9
InChI=InChI=1S/C13H13N/c1-14(12-8-4-2-5-9-12)13-10-6-3-7-11-13/h2-11H,1H3
computed SMILES=C=1C=CC(=CC1)N(C=2C=CC=CC2)C
accession=JP009479
date=2016.01.19 (Created 2008.10.21, modified 2011.05.06)
author=NARA WOMEN'S UNIVERSITY
license=CC BY-NC-SA
exact mass=183.1048
ionization energy=70 eV
ion type=[M]+*
computed spectral entropy=2.982532131981301
computed normalized entropy=0.7624014807282253
SPLASH=splash10-001i-4900000000-9e9282984f5929922fc5
submitter=submitter = University of Tokyo Team (Faculty of Engineering, University of Tokyo)
MoNA Rating=3.75

>  <NUM PEAKS>  (1853) 
50

>  <MASS SPECTRAL PEAKS>  (1853) 
15 2.91
26 1.55
27 5.18
28 2.53
29 3.25
30 1.08
31 14.76
39 5.43
43 1.44
45 6.17
46 2.81
50 3.08
51 14.21
52 2.04
63 3.15
64 1.94
65 3.38
74 1.11
75 1.23
76 1.81
77 29.78
78 4.21
79 1.7
84 3.08
89 1.37
90 1.94
91 6.52
104 13.99
105 2.11
106 1.59
115 3.73
116 1.03
128 1.36
139 2.59
140 2.49
141 2.74
142 4.01
152 1.9
153 1.66
154 2.16
166 5.45
167 23.62
168 8.83
169 3.22
180 4.37
181 4.16
182 54.19
183 99.99
184 14.16
185 1

$$$$

     RDKit          2D

  7  6  0  0  0  0  0  0  0  0999 V2000
    1.2990    2.2500    0.0000 C   0  0  0  0  0  0  0  0  0  0  0  0
   -3.8971    2.2500    0.0000 C   0  0  0  0  0  0  0  0  0  0  0  0
    0.0000    3.0000    0.0000 C   0  0  0  0  0  0  0  0  0  0  0  0
   -2.5981    3.0000    0.0000 C   0  0  0  0  0  0  0  0  0  0  0  0
   -1.2990    0.7500    0.0000 C   0  0  0  0  0  0  0  0  0  0  0  0
   -1.2990    2.2500    0.0000 N   0  0  0  0  0  0  0  0  0  0  0  0
   -0.0000    0.0000    0.0000 O   0  0  0  0  0  0  0  0  0  0  0  0
  3  1  1  0
  4  2  1  0
  6  3  1  0
  6  4  1  0
  6  5  1  0
  7  5  2  0
M  END
>  <NAME>  (1854) 
N,N-DIETHYLFORMAMIDE

>  <SYNONYMS>  (1854) 


>  <SPECTRUM TYPE>  (1854) 
MS1

>  <INSTRUMENT TYPE>  (1854) 
EI-B

>  <INSTRUMENT>  (1854) 
HITACHI M-80

>  <ION MODE>  (1854) 
P

>  <INCHIKEY>  (1854) 
SUAKHGWARZSWIH-UHFFFAOYSA-N

>  <FORMULA>  (1854) 
C5H11NO

>  <EXACT MASS>  (1854) 
101.084063972

>  <MW>  (1854) 
101

>  <ID>  (1854) 
JP009478

>  <CONTRIBUTOR>  (1854) 
University of Tokyo Team, {Faculty of Engineering, University of Tokyo

>  <COMMENT>  (1854) 
SMILES=CCN(CC)C=O
cas=617-84-5
InChI=InChI=1S/C5H11NO/c1-3-6(4-2)5-7/h5H,3-4H2,1-2H3
computed SMILES=O=CN(CC)CC
accession=JP009478
date=2016.01.19 (Created 2008.10.21, modified 2011.05.06)
author=NARA WOMEN'S UNIVERSITY
license=CC BY-NC-SA
exact mass=101.08406
ionization energy=70 eV
ion type=[M]+*
computed spectral entropy=2.6823043556705506
computed normalized entropy=0.7606438244037782
SPLASH=splash10-0zir-9200000000-b3af7374f9d7ee8e5000
submitter=submitter = University of Tokyo Team (Faculty of Engineering, University of Tokyo)
MoNA Rating=3.75

>  <NUM PEAKS>  (1854) 
34

>  <MASS SPECTRAL PEAKS>  (1854) 
14 1.02
15 9.38
17 1.46
18 12.63
26 5.44
27 29.68
28 30.43
29 35.77
30 85.2
31 1.44
39 1.25
40 2.78
41 6.51
42 17.46
43 3.44
44 45.32
45 2.26
46 2.3
52 1.09
54 1.64
56 7.09
57 1.35
58 99.99
59 3.76
70 1.83
72 18.18
73 4.66
79 1.06
86 38.75
87 1.83
100 1.9
101 91.45
102 19.88
103 1.2

$$$$

     RDKit          2D

  7  7  0  0  0  0  0  0  0  0999 V2000
   -0.0000    1.5000    0.0000 C   0  0  0  0  0  0  0  0  0  0  0  0
   -1.3000    0.7500    0.0000 C   0  0  0  0  0  0  0  0  0  0  0  0
    1.3000    0.7500    0.0000 C   0  0  0  0  0  0  0  0  0  0  0  0
   -1.3000   -0.7500    0.0000 C   0  0  0  0  0  0  0  0  0  0  0  0
    1.3000   -0.7500    0.0000 C   0  0  0  0  0  0  0  0  0  0  0  0
   -0.0000   -1.5000    0.0000 N   0  0  0  0  0  0  0  0  0  0  0  0
    2.5989   -1.5002    0.0000 O   0  0  0  0  0  0  0  0  0  0  0  0
  2  1  2  0
  3  1  1  0
  4  2  1  0
  5  3  2  0
  6  4  2  0
  6  5  1  0
  7  5  1  0
M  END
>  <NAME>  (1855) 
2-HYDROXYPYRIDINE

>  <SYNONYMS>  (1855) 
2-PYRIDINOL

>  <SPECTRUM TYPE>  (1855) 
MS1

>  <INSTRUMENT TYPE>  (1855) 
EI-B

>  <INSTRUMENT>  (1855) 
HITACHI M-80

>  <ION MODE>  (1855) 
P

>  <INCHIKEY>  (1855) 
UBQKCCHYAOITMY-UHFFFAOYSA-N

>  <FORMULA>  (1855) 
C5H5NO

>  <EXACT MASS>  (1855) 
95.03711378

>  <MW>  (1855) 
95

>  <ID>  (1855) 
JP009477

>  <CONTRIBUTOR>  (1855) 
University of Tokyo Team, {Faculty of Engineering, University of Tokyo

>  <COMMENT>  (1855) 
SMILES=Oc(c1)nccc1
cas=142-08-5
InChI=InChI=1S/C5H5NO/c7-5-3-1-2-4-6-5/h1-4H,(H,6,7)
computed SMILES=OC1=NC=CC=C1
accession=JP009477
date=2016.01.19 (Created 2008.10.21, modified 2011.05.06)
author=NARA WOMEN'S UNIVERSITY
license=CC BY-NC-SA
exact mass=95.03711
ionization energy=70 eV
ion type=[M]+*
computed spectral entropy=2.518224847728177
computed normalized entropy=0.7478478205873264
SPLASH=splash10-00kk-9000000000-4cb62ee57ab731935093
submitter=submitter = University of Tokyo Team (Faculty of Engineering, University of Tokyo)
MoNA Rating=3.75

>  <NUM PEAKS>  (1855) 
29

>  <MASS SPECTRAL PEAKS>  (1855) 
14 1.06
18 1.55
25 1.28
26 5.86
27 4.35
28 28.36
29 5.18
36 1.34
37 11.23
38 19.44
39 46.19
40 19.22
41 25.24
42 4.66
49 2.34
50 8.1
51 8.37
52 4.6
53 1.53
63 1.29
64 2.11
65 1.59
66 10.9
67 86.62
68 6.96
78 1.14
94 1.32
95 99.99
96 8.82

$$$$

     RDKit          2D

 30 33  0  0  1  0  0  0  0  0999 V2000
    9.5655    7.2342    0.0000 C   0  0  0  0  0  0  0  0  0  0  0  0
   10.0746    4.6865    0.0000 C   0  0  0  0  0  0  0  0  0  0  0  0
    8.1228    2.9718    0.0000 C   0  0  0  0  0  0  0  0  0  0  0  0
    3.2009    4.6377    0.0000 C   0  0  0  0  0  0  0  0  0  0  0  0
   -1.6125    0.9400    0.0000 C   0  0  0  0  0  0  0  0  0  0  0  0
    2.4507    3.1203    0.0000 C   0  0  0  0  0  0  0  0  0  0  0  0
    8.0946    6.9403    0.0000 C   0  0  0  0  0  0  0  0  0  0  0  0
    5.6618    3.8047    0.0000 C   0  0  0  0  0  0  0  0  0  0  0  0
    6.1427    5.2256    0.0000 C   0  0  0  0  0  0  0  0  0  0  0  0
   -0.3200   -2.8400    0.0000 C   0  0  0  0  0  0  0  0  0  0  0  0
    1.0100   -2.0900    0.0000 C   0  0  0  0  0  0  0  0  0  0  0  0
    4.5500    0.8800    0.0000 C   0  0  0  0  0  0  0  0  0  0  0  0
    3.7100   -0.3100    0.0000 C   0  0  0  0  0  0  0  0  0  0  0  0
   -4.2000   -0.5600    0.0000 C   0  0  0  0  0  0  0  0  0  0  0  0
   -0.3200    1.6300    0.0000 C   0  0  0  0  0  0  0  0  0  0  0  0
   -2.8900    0.1600    0.0000 C   0  0  0  0  0  0  0  0  0  0  0  0
    1.0100    2.3900    0.0000 C   0  0  0  0  0  0  0  0  0  0  0  0
   -2.8900   -2.8400    0.0000 C   0  0  0  0  0  0  0  0  0  0  0  0
    8.6037    4.3926    0.0000 C   0  0  0  0  0  0  0  0  0  0  0  0
    4.1909    3.5108    0.0000 C   0  0  0  0  0  0  0  0  0  0  0  0
    7.6137    5.5195    0.0000 C   0  0  0  0  0  0  0  0  0  0  0  0
   -1.6200   -2.0900    0.0000 C   0  0  0  0  0  0  0  0  0  0  0  0
   -4.2000   -2.0900    0.0000 C   0  0  0  0  0  0  0  0  0  0  0  0
    1.0100   -0.5600    0.0000 C   0  0  0  0  0  0  0  0  0  0  0  0
    3.7100    2.0900    0.0000 C   0  0  0  0  0  0  0  0  0  0  0  0
    2.2800    0.1600    0.0000 C   0  0  0  0  0  0  0  0  0  0  0  0
   -0.3200    0.1600    0.0000 C   0  0  0  0  0  0  0  0  0  0  0  0
   -1.6200   -0.5600    0.0000 C   0  0  0  0  0  0  0  0  0  0  0  0
    2.2800    1.6300    0.0000 C   0  0  0  0  0  0  0  0  0  0  0  0
   -5.4977   -2.8424    0.0000 O   0  0  0  0  0  0  0  0  0  0  0  0
  7  1  1  0
  8  9  2  0
 11 10  1  0
 13 12  1  0
 16 14  1  0
 17 15  1  0
 19  2  1  0
 19  3  1  0
 20  4  1  6
 20  8  1  0
 21  7  1  6
 21  9  1  0
 21 19  1  0
 22 10  1  1
 22 18  1  0
 23 14  1  0
 23 18  1  0
 24 11  2  0
 25 12  1  1
 25 20  1  0
 26 13  1  1
 26 24  1  0
 27 15  1  1
 27 24  1  0
 28  5  1  1
 28 16  1  0
 28 22  1  0
 28 27  1  0
 29  6  1  1
 29 17  1  0
 29 25  1  0
 29 26  1  0
 23 30  1  1
M  END
>  <NAME>  (1856) 
CONDRILLASTEROL

>  <SYNONYMS>  (1856) 
STIGMAST-7,22-DIEN-3-OL(3BETA,5ALPHA,22E,24R)

>  <SPECTRUM TYPE>  (1856) 
MS1

>  <INSTRUMENT TYPE>  (1856) 
EI-B

>  <INSTRUMENT>  (1856) 
HITACHI M-80

>  <ION MODE>  (1856) 
P

>  <INCHIKEY>  (1856) 
JZVFJDZBLUFKCA-INYURWPISA-N

>  <FORMULA>  (1856) 
C29H48O

>  <EXACT MASS>  (1856) 
412.37051615599995

>  <MW>  (1856) 
412

>  <ID>  (1856) 
JP009476

>  <CONTRIBUTOR>  (1856) 
University of Tokyo Team, {Faculty of Engineering, University of Tokyo

>  <COMMENT>  (1856) 
SMILES=C(C(C)12)CC(O)CC1(CC=C(C([H])43)C(CCC(C)3C(C(C)C=CC(C(C)C)CC)CC4)2[H])[H]
cas=481-17-4
InChI=InChI=1S/C29H48O/c1-7-21(19(2)3)9-8-20(4)25-12-13-26-24-11-10-22-18-23(30)14-16-28(22,5)27(24)15-17-29(25,26)6/h8-9,11,19-23,25-27,30H,7,10,12-18H2,1-6H3/b9-8+/t20-,21+,22+,23+,25-,26+,27+,28+,29-/m1/s1
computed SMILES=OC1CCC2(C)C3C(=CCC2C1)C4CCC(C(C=CC(CC)C(C)C)C)C4(C)CC3
accession=JP009476
date=2016.01.19 (Created 2008.10.21, modified 2011.05.06)
author=NARA WOMEN'S UNIVERSITY
license=CC BY-NC-SA
exact mass=412.37052
ionization energy=70 eV
ion type=[M]+*
computed spectral entropy=4.7712357672833905
computed normalized entropy=0.8838629050476573
SPLASH=splash10-0759-9861100000-38bc3494b6c04db1db99
submitter=submitter = University of Tokyo Team (Faculty of Engineering, University of Tokyo)
MoNA Rating=3.75

>  <NUM PEAKS>  (1856) 
221

>  <MASS SPECTRAL PEAKS>  (1856) 
18 1.9
27 3.42
28 16.55
29 6.46
32 4.22
39 3.14
41 24.4
42 3.36
43 43.85
44 2.55
45 2.79
53 4.24
54 1.7
55 43.24
56 20.18
57 1.49
58 2.29
59 1.06
65 2.07
66 1.05
67 16.42
68 7.34
69 37
70 5.82
71 14.26
72 1.98
73 1.62
74 10.79
77 6.32
78 1.83
79 17.96
80 3.9
81 51.02
82 8.42
83 39.4
84 6.99
85 10.77
86 1.21
87 1.43
89 1.89
91 20.03
92 4.6
93 20.97
94 11.89
95 27.16
96 8.85
97 17.13
98 4.15
99 2.89
103 2.31
104 4.16
105 22.78
106 5.68
107 33.19
108 6.19
109 18.25
110 5.39
111 6.96
112 2.59
113 2.04
114 2.45
115 3.2
116 2.16
117 8.5
118 3.41
119 17.37
120 6.25
121 14.58
122 5.29
123 13.54
124 3.91
125 4.46
126 1.56
127 2
128 2.89
129 5.83
130 2.57
131 11.64
132 4.33
133 18.08
134 6.92
135 17.1
136 4.42
137 10.85
138 3.26
139 5.96
140 1.43
141 2.41
142 1.98
143 5.63
144 2.6
145 15.18
146 5.45
147 22.25
148 4.74
149 10.81
150 2.21
151 6.49
152 1.83
153 1.44
154 1.2
155 2.29
156 1.41
157 5.42
158 3.17
159 14.05
160 4.24
161 16.63
162 3.23
163 5.84
164 2.61
165 4.34
166 2.78
167 1.36
169 1.93
171 4.6
172 2.01
173 8.48
174 2.95
175 7.24
176 2.07
177 3.2
178 4.9
179 2.02
183 2.09
185 4.58
186 1.9
187 6.76
188 2.05
189 3.95
190 1.1
191 2.52
192 1.17
193 1.27
197 2.29
198 1.16
199 5.53
200 1.95
201 7.24
202 1.82
203 3.12
205 1.58
211 2.32
212 1.06
213 12.64
214 3.15
215 6.22
216 1.64
217 2.83
218 2.39
219 3.56
220 1.1
224 1.27
225 1.56
227 4.9
228 4.49
229 17.72
230 4.15
231 14.6
232 5.13
233 3.08
236 1.65
237 1.03
239 3.03
240 1.21
241 2.9
242 1.03
243 3.64
244 2.71
245 3.77
246 23.34
247 9.26
248 1.79
253 4.42
254 1.98
255 42.18
256 10.46
257 10.07
258 4.94
259 4.35
260 1.86
261 1.25
267 1.45
269 3.92
270 3.5
271 99.99
272 28.81
273 8.2
274 2.12
284 1.63
285 4.76
286 2.96
287 1.75
299 8.07
300 20
301 8.04
302 1.59
309 1.22
313 1.7
314 2.07
327 1.94
328 1.14
351 5.44
352 1.71
367 1.15
368 1.4
369 20.09
370 6.2
371 1.61
380 1.47
383 2.15
394 1.28
395 1.26
397 13.21
398 4.62
399 1.17
410 2.06
411 1.59
412 68.5
413 22.36
414 4.22

$$$$

     RDKit          2D

 30 33  0  0  1  0  0  0  0  0999 V2000
    9.5655    7.2342    0.0000 C   0  0  0  0  0  0  0  0  0  0  0  0
    8.1228    2.9718    0.0000 C   0  0  0  0  0  0  0  0  0  0  0  0
   10.0746    4.6865    0.0000 C   0  0  0  0  0  0  0  0  0  0  0  0
    3.2009    4.6377    0.0000 C   0  0  0  0  0  0  0  0  0  0  0  0
   -1.6125    0.9400    0.0000 C   0  0  0  0  0  0  0  0  0  0  0  0
    2.4507    3.1203    0.0000 C   0  0  0  0  0  0  0  0  0  0  0  0
    8.0946    6.9403    0.0000 C   0  0  0  0  0  0  0  0  0  0  0  0
    5.6618    3.8047    0.0000 C   0  0  0  0  0  0  0  0  0  0  0  0
    6.1427    5.2256    0.0000 C   0  0  0  0  0  0  0  0  0  0  0  0
   -0.3200   -2.8400    0.0000 C   0  0  0  0  0  0  0  0  0  0  0  0
    1.0100   -2.0900    0.0000 C   0  0  0  0  0  0  0  0  0  0  0  0
    4.5500    0.8800    0.0000 C   0  0  0  0  0  0  0  0  0  0  0  0
    3.7100   -0.3100    0.0000 C   0  0  0  0  0  0  0  0  0  0  0  0
   -4.2000   -0.5600    0.0000 C   0  0  0  0  0  0  0  0  0  0  0  0
   -0.3200    1.6300    0.0000 C   0  0  0  0  0  0  0  0  0  0  0  0
   -2.8900    0.1600    0.0000 C   0  0  0  0  0  0  0  0  0  0  0  0
    1.0100    2.3900    0.0000 C   0  0  0  0  0  0  0  0  0  0  0  0
   -2.8900   -2.8400    0.0000 C   0  0  0  0  0  0  0  0  0  0  0  0
    8.6037    4.3926    0.0000 C   0  0  0  0  0  0  0  0  0  0  0  0
    4.1909    3.5108    0.0000 C   0  0  0  0  0  0  0  0  0  0  0  0
    7.6137    5.5195    0.0000 C   0  0  0  0  0  0  0  0  0  0  0  0
   -1.6200   -2.0900    0.0000 C   0  0  0  0  0  0  0  0  0  0  0  0
   -4.2000   -2.0900    0.0000 C   0  0  0  0  0  0  0  0  0  0  0  0
    1.0100   -0.5600    0.0000 C   0  0  0  0  0  0  0  0  0  0  0  0
    3.7100    2.0900    0.0000 C   0  0  0  0  0  0  0  0  0  0  0  0
    2.2800    0.1600    0.0000 C   0  0  0  0  0  0  0  0  0  0  0  0
   -0.3200    0.1600    0.0000 C   0  0  0  0  0  0  0  0  0  0  0  0
   -1.6200   -0.5600    0.0000 C   0  0  0  0  0  0  0  0  0  0  0  0
    2.2800    1.6300    0.0000 C   0  0  0  0  0  0  0  0  0  0  0  0
   -5.4977   -2.8424    0.0000 O   0  0  0  0  0  0  0  0  0  0  0  0
  7  1  1  0
  9  8  1  0
 11 10  1  0
 13 12  1  0
 16 14  1  0
 17 15  1  0
 19  2  2  0
 19  3  1  0
 20  4  1  0
 20  8  1  0
 21  7  1  6
 21  9  1  0
 21 19  1  0
 22 10  1  1
 22 18  1  0
 23 14  1  0
 23 18  1  0
 24 11  2  0
 25 12  1  0
 25 20  1  1
 26 13  1  1
 26 24  1  0
 27 15  1  1
 27 24  1  0
 28  5  1  1
 28 16  1  0
 28 22  1  0
 28 27  1  0
 29  6  1  1
 29 17  1  0
 29 25  1  0
 29 26  1  0
 23 30  1  1
M  END
>  <NAME>  (1857) 
22-DIHYDRO-25-DEHYDROCHONDRILLASTEROL

>  <SYNONYMS>  (1857) 
STIGMASTA-7,25-DIEN-3-OL(3BETA,5ALPHA)

>  <SPECTRUM TYPE>  (1857) 
MS1

>  <INSTRUMENT TYPE>  (1857) 
EI-B

>  <INSTRUMENT>  (1857) 
HITACHI M-80

>  <ION MODE>  (1857) 
P

>  <INCHIKEY>  (1857) 
CMQUSRGUOMCHOZ-DYSDFPMNSA-N

>  <FORMULA>  (1857) 
C29H48O

>  <EXACT MASS>  (1857) 
412.37051615599995

>  <MW>  (1857) 
412

>  <ID>  (1857) 
JP009475

>  <CONTRIBUTOR>  (1857) 
University of Tokyo Team, {Faculty of Engineering, University of Tokyo

>  <COMMENT>  (1857) 
SMILES=[H]C(C14C)(C(CCC(C(C)=C)CC)C)CCC1(C(C(CC4)2[H])=CCC(C3)(C2(CCC3([H])O)C)[H])[H]
cas=6785-58-6
InChI=InChI=1S/C29H48O/c1-7-21(19(2)3)9-8-20(4)25-12-13-26-24-11-10-22-18-23(30)14-16-28(22,5)27(24)15-17-29(25,26)6/h11,20-23,25-27,30H,2,7-10,12-18H2,1,3-6H3/t20?,21-,22-,23-,25+,26-,27-,28-,29+/m0/s1
computed SMILES=OC1CCC2(C)C3C(=CCC2C1)C4CCC(C(C)CCC(C(=C)C)CC)C4(C)CC3
accession=JP009475
date=2016.01.19 (Created 2008.10.21, modified 2011.05.06)
author=NARA WOMEN'S UNIVERSITY
license=CC BY-NC-SA
exact mass=412.37052
ionization energy=70 eV
ion type=[M]+*
computed spectral entropy=4.664154386841862
computed normalized entropy=0.8880258141047513
SPLASH=splash10-00di-9881200000-bca9e59a75a00407134d
submitter=submitter = University of Tokyo Team (Faculty of Engineering, University of Tokyo)
MoNA Rating=3.75

>  <NUM PEAKS>  (1857) 
191

>  <MASS SPECTRAL PEAKS>  (1857) 
18 3.65
27 2.22
28 28.23
29 6.7
32 6.92
40 3.41
42 21.2
43 2.33
44 15.93
45 1.64
46 1.83
54 3.63
55 1.31
56 41.7
57 10.07
60 1.05
65 1.49
67 13.79
68 5.3
69 21.87
70 3.56
71 5.38
73 1.33
74 9.46
77 4.8
78 1.36
79 14.68
80 2.62
81 22.13
82 4.07
83 17.17
84 7.98
85 4.59
87 1.12
91 16.64
92 4
93 15.81
94 8.12
95 18.95
96 3.31
97 7.77
98 2.13
99 1.56
103 1.84
105 18.64
106 5.44
107 20.02
108 4.75
109 11.92
110 3.9
111 3.99
112 1.38
114 1.15
115 2.37
116 1.72
117 7.02
118 3.15
119 15.5
120 6.15
121 10.85
122 3.68
123 7.37
124 2.44
125 1.85
127 1.29
128 2.09
129 4.73
130 2.18
131 10.44
132 4
133 13.53
134 6.34
135 8.81
136 2.85
137 6.56
138 3.97
139 2.07
141 1.77
142 1.69
143 5.05
144 2.27
145 12.13
146 4.2
147 13.71
148 3.47
149 5.12
150 1.53
151 2.45
155 1.94
156 1.22
157 5.25
158 2.85
159 10.79
160 3.4
161 9.91
162 2.37
163 3.02
164 2.36
165 1.95
166 1.1
169 1.92
171 4.83
172 1.96
173 5.86
174 2.12
175 3.62
176 1.22
177 1.77
178 1.73
179 1.09
183 1.64
185 4.43
186 1.69
187 4.52
188 1.6
189 2.87
191 1.22
197 2.04
199 4.07
200 1.76
201 4.48
202 1.53
203 2.14
211 3.16
212 1.29
213 11.42
214 2.99
215 3.86
216 1.31
217 2.38
218 3.02
219 2.23
225 1.38
227 8.84
228 4.47
229 7.67
230 2.42
231 12.58
232 5.2
233 3.54
234 1.45
239 1.9
241 1.52
243 2.18
244 3.61
245 5.4
246 11.32
247 3.63
248 1.18
253 3.28
254 1.33
255 20.34
256 6.16
257 6.3
258 4.4
259 2.04
260 1.52
261 1
262 3.98
269 5.46
270 4.23
271 99.99
272 26.3
273 8.15
274 2.11
281 1.13
283 1.11
284 1.38
285 3.54
286 2.32
287 1.87
297 1.47
299 7.58
300 6.86
301 2.69
313 3.01
314 4.26
315 1.53
328 2.84
329 1.07
379 2.54
394 1.3
395 1.56
397 28.19
398 8.99
399 1.86
410 3.7
411 2.18
412 55.5
413 18.23
414 3.96

$$$$

     RDKit          2D

 30 33  0  0  1  0  0  0  0  0999 V2000
    9.5655    7.2342    0.0000 C   0  0  0  0  0  0  0  0  0  0  0  0
   10.0746    4.6865    0.0000 C   0  0  0  0  0  0  0  0  0  0  0  0
    8.1228    2.9718    0.0000 C   0  0  0  0  0  0  0  0  0  0  0  0
    3.2009    4.6377    0.0000 C   0  0  0  0  0  0  0  0  0  0  0  0
   -1.6125    0.9400    0.0000 C   0  0  0  0  0  0  0  0  0  0  0  0
    2.4507    3.1203    0.0000 C   0  0  0  0  0  0  0  0  0  0  0  0
    8.0946    6.9403    0.0000 C   0  0  0  0  0  0  0  0  0  0  0  0
    5.6618    3.8047    0.0000 C   0  0  0  0  0  0  0  0  0  0  0  0
    6.1427    5.2256    0.0000 C   0  0  0  0  0  0  0  0  0  0  0  0
   -0.3200   -2.8400    0.0000 C   0  0  0  0  0  0  0  0  0  0  0  0
    1.0100   -2.0900    0.0000 C   0  0  0  0  0  0  0  0  0  0  0  0
    4.5500    0.8800    0.0000 C   0  0  0  0  0  0  0  0  0  0  0  0
    3.7100   -0.3100    0.0000 C   0  0  0  0  0  0  0  0  0  0  0  0
   -4.2000   -0.5600    0.0000 C   0  0  0  0  0  0  0  0  0  0  0  0
   -0.3200    1.6300    0.0000 C   0  0  0  0  0  0  0  0  0  0  0  0
   -2.8900    0.1600    0.0000 C   0  0  0  0  0  0  0  0  0  0  0  0
    1.0100    2.3900    0.0000 C   0  0  0  0  0  0  0  0  0  0  0  0
   -2.8900   -2.8400    0.0000 C   0  0  0  0  0  0  0  0  0  0  0  0
    8.6037    4.3926    0.0000 C   0  0  0  0  0  0  0  0  0  0  0  0
    4.1909    3.5108    0.0000 C   0  0  0  0  0  0  0  0  0  0  0  0
    7.6137    5.5195    0.0000 C   0  0  0  0  0  0  0  0  0  0  0  0
   -1.6200   -2.0900    0.0000 C   0  0  0  0  0  0  0  0  0  0  0  0
   -4.2000   -2.0900    0.0000 C   0  0  0  0  0  0  0  0  0  0  0  0
    1.0100   -0.5600    0.0000 C   0  0  0  0  0  0  0  0  0  0  0  0
    3.7100    2.0900    0.0000 C   0  0  0  0  0  0  0  0  0  0  0  0
    2.2800    0.1600    0.0000 C   0  0  0  0  0  0  0  0  0  0  0  0
   -0.3200    0.1600    0.0000 C   0  0  0  0  0  0  0  0  0  0  0  0
   -1.6200   -0.5600    0.0000 C   0  0  0  0  0  0  0  0  0  0  0  0
    2.2800    1.6300    0.0000 C   0  0  0  0  0  0  0  0  0  0  0  0
   -5.4977   -2.8424    0.0000 O   0  0  0  0  0  0  0  0  0  0  0  0
  7  1  1  0
  9  8  1  0
 11 10  1  0
 13 12  1  0
 16 14  1  0
 17 15  1  0
 19  2  1  0
 19  3  1  0
 20  4  1  0
 20  8  1  0
 21  7  1  6
 21  9  1  0
 21 19  1  0
 22 10  1  1
 22 18  1  0
 23 14  1  0
 23 18  1  0
 24 11  2  0
 25 12  1  0
 25 20  1  1
 26 13  1  1
 26 24  1  0
 27 15  1  1
 27 24  1  0
 28  5  1  1
 28 16  1  0
 28 22  1  0
 28 27  1  0
 29  6  1  1
 29 17  1  0
 29 25  1  0
 29 26  1  0
 23 30  1  1
M  END
>  <NAME>  (1858) 
22-DIHYDROCHONDRILLASTEROL

>  <SYNONYMS>  (1858) 
STIGMAST-7-EN-3-OL(3BETA,5ALPHA,24S)

>  <SPECTRUM TYPE>  (1858) 
MS1

>  <INSTRUMENT TYPE>  (1858) 
EI-B

>  <INSTRUMENT>  (1858) 
HITACHI M-80

>  <ION MODE>  (1858) 
P

>  <INCHIKEY>  (1858) 
YSKVBPGQYRAUQO-DYSDFPMNSA-N

>  <FORMULA>  (1858) 
C29H50O

>  <EXACT MASS>  (1858) 
414.38616621999995

>  <MW>  (1858) 
414

>  <ID>  (1858) 
JP009474

>  <CONTRIBUTOR>  (1858) 
University of Tokyo Team, {Faculty of Engineering, University of Tokyo

>  <COMMENT>  (1858) 
SMILES=[H]C(C14C)(C(CCC(C(C)C)CC)C)CCC1(C(C(CC4)2[H])=CCC(C3)(C2(CCC3([H])O)C)[H])[H]
cas=18525-35-4
InChI=InChI=1S/C29H50O/c1-7-21(19(2)3)9-8-20(4)25-12-13-26-24-11-10-22-18-23(30)14-16-28(22,5)27(24)15-17-29(25,26)6/h11,19-23,25-27,30H,7-10,12-18H2,1-6H3/t20?,21-,22-,23-,25+,26-,27-,28-,29+/m0/s1
computed SMILES=OC1CCC2(C)C3C(=CCC2C1)C4CCC(C(C)CCC(CC)C(C)C)C4(C)CC3
accession=JP009474
date=2016.01.19 (Created 2008.10.21, modified 2011.05.06)
author=NARA WOMEN'S UNIVERSITY
license=CC BY-NC-SA
exact mass=414.38617
ionization energy=70 eV
ion type=[M]+*
computed spectral entropy=3.6174108384320327
computed normalized entropy=0.798087464797261
SPLASH=splash10-03di-4561900000-33983ddc68264bf49951
submitter=submitter = University of Tokyo Team (Faculty of Engineering, University of Tokyo)
MoNA Rating=3.75

>  <NUM PEAKS>  (1858) 
93

>  <MASS SPECTRAL PEAKS>  (1858) 
29 1.36
41 3.82
43 9.95
55 5.05
56 4.55
67 2.08
69 4.42
70 1.02
71 2.61
79 2.67
81 4.66
82 1.54
83 2.9
84 1.25
85 2.76
91 3.25
93 3.19
94 2.14
95 5.14
96 1.32
97 2.49
105 4.24
106 1.51
107 6.52
108 1.72
109 2.93
110 1.14
111 1.85
117 1.46
119 3.96
120 2.04
121 3.39
122 1.74
123 2.34
124 1.09
129 1.01
131 2.35
133 3.95
134 2.84
135 4.27
136 1.6
137 1.6
143 1.09
145 3
146 1.11
147 4.71
148 1.38
149 2
151 1.28
157 1.2
159 2.57
160 1.12
161 4.11
163 1.17
171 1.1
173 1.8
175 1.02
178 1.52
185 1.01
187 1.21
199 1.11
201 1.58
213 4.86
214 1.21
215 1.32
218 1.81
219 1.22
228 1.31
229 6.16
230 1.37
231 7.02
232 3.09
233 1.15
246 4.39
247 2.39
255 29.91
256 6.66
257 2.1
271 1.18
272 1.89
273 12.33
274 3
275 1.44
381 1.26
396 1.17
399 16
400 5
401 0.85
412 1.31
413 0.92
414 99.99
415 32.04
416 5.37

$$$$

     RDKit          2D

 10 10  0  0  0  0  0  0  0  0999 V2000
    1.6056    2.0565    0.0000 C   0  0  0  0  0  0  0  0  0  0  0  0
    0.2920   -0.1684    0.0000 C   0  0  0  0  0  0  0  0  0  0  0  0
    2.8901    1.3316    0.0000 C   0  0  0  0  0  0  0  0  0  0  0  0
    1.6165   -0.9625    0.0000 C   0  0  0  0  0  0  0  0  0  0  0  0
    0.3065    1.3065    0.0000 C   0  0  0  0  0  0  0  0  0  0  0  0
    2.9156   -0.2125    0.0000 C   0  0  0  0  0  0  0  0  0  0  0  0
   -0.9888    2.0629    0.0000 C   0  0  0  0  0  0  0  0  0  0  0  0
    4.2207   -0.9518    0.0000 O   0  0  0  0  0  0  0  0  0  0  0  0
   -2.2915    1.3193    0.0000 O   0  0  0  0  0  0  0  0  0  0  0  0
   -0.9814    3.5628    0.0000 O   0  0  0  0  0  0  0  0  0  0  0  0
  3  1  2  0
  4  2  1  0
  5  1  1  0
  5  2  2  0
  6  3  1  0
  6  4  2  0
  7  5  1  0
  8  6  1  0
  9  7  1  0
 10  7  2  0
M  END
>  <NAME>  (1859) 
4-HYDROXYBENZOIC ACID

>  <SYNONYMS>  (1859) 


>  <SPECTRUM TYPE>  (1859) 
MS1

>  <INSTRUMENT TYPE>  (1859) 
EI-B

>  <INSTRUMENT>  (1859) 
HITACHI M-80

>  <ION MODE>  (1859) 
P

>  <INCHIKEY>  (1859) 
FJKROLUGYXJWQN-UHFFFAOYSA-N

>  <FORMULA>  (1859) 
C7H6O3

>  <EXACT MASS>  (1859) 
138.03169405199998

>  <MW>  (1859) 
138

>  <ID>  (1859) 
JP009473

>  <CONTRIBUTOR>  (1859) 
University of Tokyo Team, {Faculty of Engineering, University of Tokyo

>  <COMMENT>  (1859) 
SMILES=Oc(c1)ccc(c1)C(O)=O
cas=99-96-7
InChI=InChI=1S/C7H6O3/c8-6-3-1-5(2-4-6)7(9)10/h1-4,8H,(H,9,10)
computed SMILES=O=C(O)C1=CC=C(O)C=C1
accession=JP009473
date=2016.01.19 (Created 2008.10.21, modified 2011.05.06)
license=CC BY-NC-SA
author=NARA WOMEN'S UNIVERSITY
exact mass=138.03169
ionization energy=70 eV
ion type=[M]+*
computed spectral entropy=2.410866007296493
computed normalized entropy=0.7088286085056051
SPLASH=splash10-0079-6900000000-617d58eb059c1e918ca0
submitter=submitter = University of Tokyo Team (Faculty of Engineering, University of Tokyo)
MoNA Rating=3.75

>  <NUM PEAKS>  (1859) 
30

>  <MASS SPECTRAL PEAKS>  (1859) 
26 1.01
27 2.29
29 2.37
37 2.85
38 5.67
39 18
40 1.05
45 4.7
50 3.44
51 3.29
53 5.5
54 3.59
60 2.99
62 5.74
63 10.9
64 4.5
65 24.86
66 3.61
74 2.12
75 1.15
81 4.26
92 3.46
93 22.76
94 1.8
109 1.14
110 2.38
121 99.99
122 7.59
138 86.88
139 7.13

$$$$

     RDKit          2D

 17 19  0  0  0  0  0  0  0  0999 V2000
    3.8990   -3.7500    0.0000 C   0  0  0  0  0  0  0  0  0  0  0  0
   -3.9000    0.7500    0.0000 C   0  0  0  0  0  0  0  0  0  0  0  0
   -3.9000   -0.7500    0.0000 C   0  0  0  0  0  0  0  0  0  0  0  0
   -2.6000    1.5000    0.0000 C   0  0  0  0  0  0  0  0  0  0  0  0
   -2.6000   -1.5000    0.0000 C   0  0  0  0  0  0  0  0  0  0  0  0
    3.9000    0.7500    0.0000 C   0  0  0  0  0  0  0  0  0  0  0  0
    3.9000   -0.7500    0.0000 C   0  0  0  0  0  0  0  0  0  0  0  0
    2.6000    1.5000    0.0000 C   0  0  0  0  0  0  0  0  0  0  0  0
   -1.3000    0.7500    0.0000 C   0  0  0  0  0  0  0  0  0  0  0  0
   -1.3000   -0.7500    0.0000 C   0  0  0  0  0  0  0  0  0  0  0  0
    2.6000   -1.5000    0.0000 C   0  0  0  0  0  0  0  0  0  0  0  0
    1.3000    0.7500    0.0000 C   0  0  0  0  0  0  0  0  0  0  0  0
    1.3000   -0.7500    0.0000 C   0  0  0  0  0  0  0  0  0  0  0  0
    2.6000    3.0000    0.0000 N   0  0  0  0  0  0  0  0  0  0  0  0
    0.0000    1.5000    0.0000 N   0  0  0  0  0  0  0  0  0  0  0  0
    0.0000   -1.5000    0.0000 N   0  0  0  0  0  0  0  0  0  0  0  0
    2.6000   -3.0000    0.0000 O   0  0  0  0  0  0  0  0  0  0  0  0
  3  2  2  0
  4  2  1  0
  5  3  1  0
  7  6  1  0
  8  6  2  0
  9  4  2  0
 10  5  2  0
 10  9  1  0
 11  7  2  0
 12  8  1  0
 13 11  1  0
 13 12  1  0
 14  8  1  0
 15  9  1  0
 15 12  2  0
 16 10  1  0
 16 13  2  0
 17  1  1  0
 17 11  1  0
M  END
>  <NAME>  (1860) 
1-AMINO-4-METHOXYPHENAZINE

>  <SYNONYMS>  (1860) 


>  <SPECTRUM TYPE>  (1860) 
MS1

>  <INSTRUMENT TYPE>  (1860) 
EI-B

>  <INSTRUMENT>  (1860) 
HITACHI RMU-7L

>  <ION MODE>  (1860) 
P

>  <INCHIKEY>  (1860) 
VFEBRDAKZGPEHA-UHFFFAOYSA-N

>  <FORMULA>  (1860) 
C13H11N3O

>  <EXACT MASS>  (1860) 
225.090211972

>  <MW>  (1860) 
225

>  <ID>  (1860) 
JP009472

>  <CONTRIBUTOR>  (1860) 
University of Tokyo Team, {Faculty of Engineering, University of Tokyo

>  <COMMENT>  (1860) 
SMILES=COc(c3)c(n1)c(c(N)c3)nc(c2)c(ccc2)1
InChI=InChI=1S/C13H11N3O/c1-17-11-7-6-8(14)12-13(11)16-10-5-3-2-4-9(10)15-12/h2-7H,14H2,1H3
computed SMILES=N1=C2C=CC=CC2=NC=3C1=C(OC)C=CC3N
accession=JP009472
date=2016.01.19 (Created 2008.10.21, modified 2011.05.06)
author=EGUCHI S, FAC. OF SCIENCE, HIROSHIMA UNIV.
license=CC BY-NC-SA
exact mass=225.09021
ionization energy=70 eV
ion type=[M]+*
computed spectral entropy=2.714867352234943
computed normalized entropy=0.80624557190921
SPLASH=splash10-01t9-5790000000-e2b520c7f2d459a9b6df
submitter=submitter = University of Tokyo Team (Faculty of Engineering, University of Tokyo)
MoNA Rating=3.75

>  <NUM PEAKS>  (1860) 
29

>  <MASS SPECTRAL PEAKS>  (1860) 
63 15
64 17
65 11
66 8
75 19
76 35
77 30
101 6
102 22
103 18
129 19
130 2.5
155 15
156 1
168 7
169 0.5
182 90
183 9
184 2
195 5
196 1.5
197 0.5
210 88
211 10.5
212 3
224 11
225 99.99
226 14
227 3.5

$$$$

     RDKit          2D

 17 19  0  0  0  0  0  0  0  0999 V2000
    6.4981    0.7504    0.0000 C   0  0  0  0  0  0  0  0  0  0  0  0
   -3.9000    0.7500    0.0000 C   0  0  0  0  0  0  0  0  0  0  0  0
   -3.9000   -0.7500    0.0000 C   0  0  0  0  0  0  0  0  0  0  0  0
   -2.6000    1.5000    0.0000 C   0  0  0  0  0  0  0  0  0  0  0  0
   -2.6000   -1.5000    0.0000 C   0  0  0  0  0  0  0  0  0  0  0  0
    3.9000   -0.7500    0.0000 C   0  0  0  0  0  0  0  0  0  0  0  0
    2.6000    1.5000    0.0000 C   0  0  0  0  0  0  0  0  0  0  0  0
    3.9000    0.7500    0.0000 C   0  0  0  0  0  0  0  0  0  0  0  0
    2.6000   -1.5000    0.0000 C   0  0  0  0  0  0  0  0  0  0  0  0
   -1.3000    0.7500    0.0000 C   0  0  0  0  0  0  0  0  0  0  0  0
   -1.3000   -0.7500    0.0000 C   0  0  0  0  0  0  0  0  0  0  0  0
    1.3000    0.7500    0.0000 C   0  0  0  0  0  0  0  0  0  0  0  0
    1.3000   -0.7500    0.0000 C   0  0  0  0  0  0  0  0  0  0  0  0
    2.6000   -3.0000    0.0000 N   0  0  0  0  0  0  0  0  0  0  0  0
    0.0000    1.5000    0.0000 N   0  0  0  0  0  0  0  0  0  0  0  0
    0.0000   -1.5000    0.0000 N   0  0  0  0  0  0  0  0  0  0  0  0
    5.1989    1.5002    0.0000 O   0  0  0  0  0  0  0  0  0  0  0  0
  3  2  2  0
  4  2  1  0
  5  3  1  0
  8  6  1  0
  8  7  2  0
  9  6  2  0
 10  4  2  0
 11  5  2  0
 11 10  1  0
 12  7  1  0
 13  9  1  0
 13 12  1  0
 14  9  1  0
 15 10  1  0
 15 12  2  0
 16 11  1  0
 16 13  2  0
 17  1  1  0
 17  8  1  0
M  END
>  <NAME>  (1861) 
1-AMINO-3-METHOXYPHENAZINE

>  <SYNONYMS>  (1861) 


>  <SPECTRUM TYPE>  (1861) 
MS1

>  <INSTRUMENT TYPE>  (1861) 
EI-B

>  <INSTRUMENT>  (1861) 
HITACHI RMU-7L

>  <ION MODE>  (1861) 
P

>  <INCHIKEY>  (1861) 
RYMYEMJNPWTUNT-UHFFFAOYSA-N

>  <FORMULA>  (1861) 
C13H11N3O

>  <EXACT MASS>  (1861) 
225.090211972

>  <MW>  (1861) 
225

>  <ID>  (1861) 
JP009471

>  <CONTRIBUTOR>  (1861) 
University of Tokyo Team, {Faculty of Engineering, University of Tokyo

>  <COMMENT>  (1861) 
SMILES=COc(c1)cc(n2)c(nc(c3)c(ccc3)2)c(N)1
InChI=InChI=1S/C13H11N3O/c1-17-8-6-9(14)13-12(7-8)15-10-4-2-3-5-11(10)16-13/h2-7H,14H2,1H3
computed SMILES=N1=C2C=CC=CC2=NC=3C1=CC(OC)=CC3N
accession=JP009471
date=2016.01.19 (Created 2008.10.21, modified 2011.05.06)
author=EGUCHI S, FAC. OF SCIENCE, HIROSHIMA UNIV.
license=CC BY-NC-SA
exact mass=225.09021
ionization energy=70 eV
ion type=[M]+*
computed spectral entropy=2.617943519213563
computed normalized entropy=0.8469451839360063
SPLASH=splash10-004i-2960000000-a01c82be17bd550e6a82
submitter=submitter = University of Tokyo Team (Faculty of Engineering, University of Tokyo)
MoNA Rating=3.75

>  <NUM PEAKS>  (1861) 
22

>  <MASS SPECTRAL PEAKS>  (1861) 
64 5
65 6
75 8
76 14
77 22
102 12
103 6
112.5 7
129 11
155 9
168 18
169 7
182 22
194 8
195 29
196 50
197 8
210 7
224 5
225 99.99
226 13.5
227 3

$$$$

     RDKit          2D

 18 20  0  0  0  0  0  0  0  0999 V2000
    3.8990   -5.2500    0.0000 C   0  0  0  0  0  0  0  0  0  0  0  0
   -3.9000    0.7500    0.0000 C   0  0  0  0  0  0  0  0  0  0  0  0
   -3.9000   -0.7500    0.0000 C   0  0  0  0  0  0  0  0  0  0  0  0
    3.9000    0.7500    0.0000 C   0  0  0  0  0  0  0  0  0  0  0  0
    3.9000   -0.7500    0.0000 C   0  0  0  0  0  0  0  0  0  0  0  0
   -2.6000    1.5000    0.0000 C   0  0  0  0  0  0  0  0  0  0  0  0
   -2.6000   -1.5000    0.0000 C   0  0  0  0  0  0  0  0  0  0  0  0
    2.6000    1.5000    0.0000 C   0  0  0  0  0  0  0  0  0  0  0  0
    2.6000   -1.5000    0.0000 C   0  0  0  0  0  0  0  0  0  0  0  0
   -1.3000    0.7500    0.0000 C   0  0  0  0  0  0  0  0  0  0  0  0
   -1.3000   -0.7500    0.0000 C   0  0  0  0  0  0  0  0  0  0  0  0
    1.3000    0.7500    0.0000 C   0  0  0  0  0  0  0  0  0  0  0  0
    1.3000   -0.7500    0.0000 C   0  0  0  0  0  0  0  0  0  0  0  0
    2.6000   -3.0000    0.0000 C   0  0  0  0  0  0  0  0  0  0  0  0
    0.0000    1.5000    0.0000 N   0  0  0  0  0  0  0  0  0  0  0  0
    0.0000   -1.5000    0.0000 N   0  0  0  0  0  0  0  0  0  0  0  0
    1.3010   -3.7500    0.0000 O   0  0  0  0  0  0  0  0  0  0  0  0
    3.8990   -3.7500    0.0000 O   0  0  0  0  0  0  0  0  0  0  0  0
  3  2  2  0
  5  4  2  0
  6  2  1  0
  7  3  1  0
  8  4  1  0
  9  5  1  0
 10  6  2  0
 11  7  2  0
 11 10  1  0
 12  8  2  0
 13  9  2  0
 13 12  1  0
 14  9  1  0
 15 10  1  0
 15 12  1  0
 16 11  1  0
 16 13  1  0
 17 14  2  0
 18  1  1  0
 18 14  1  0
M  END
>  <NAME>  (1862) 
1-METHOXYCARBONYL-5,10-DIHYDROPHENAZINE

>  <SYNONYMS>  (1862) 


>  <SPECTRUM TYPE>  (1862) 
MS1

>  <INSTRUMENT TYPE>  (1862) 
EI-B

>  <INSTRUMENT>  (1862) 
HITACHI RMU-7L

>  <ION MODE>  (1862) 
P

>  <INCHIKEY>  (1862) 
COHAWUIBTRRGHL-UHFFFAOYSA-N

>  <FORMULA>  (1862) 
C14H12N2O2

>  <EXACT MASS>  (1862) 
240.089877624

>  <MW>  (1862) 
240

>  <ID>  (1862) 
JP009470

>  <CONTRIBUTOR>  (1862) 
University of Tokyo Team, {Faculty of Engineering, University of Tokyo

>  <COMMENT>  (1862) 
SMILES=COC(=O)c(c3)c(N1)c(cc3)Nc(c2)c(ccc2)1
InChI=InChI=1S/C14H12N2O2/c1-18-14(17)9-5-4-8-12-13(9)16-11-7-3-2-6-10(11)15-12/h2-8,15-16H,1H3
computed SMILES=O=C(OC)C=1C=CC=C2NC=3C=CC=CC3NC21
accession=JP009470
date=2016.01.19 (Created 2008.10.21, modified 2011.05.06)
author=EGUCHI S, FAC. OF SCIENCE, HIROSHIMA UNIV.
license=CC BY-NC-SA
exact mass=240.08988
ionization energy=70 eV
ion type=[M]+*
computed spectral entropy=2.8536225184033848
computed normalized entropy=0.7902762088307117
SPLASH=splash10-0f8c-4920000000-fdff2828a62640f719b0
submitter=submitter = University of Tokyo Team (Faculty of Engineering, University of Tokyo)
MoNA Rating=3.75

>  <NUM PEAKS>  (1862) 
37

>  <MASS SPECTRAL PEAKS>  (1862) 
50 20
51 13
53 2.5
63 7
74 1.5
75 11
76 8
77 21.5
88 2
90 31
91 2
101 2
102 10
103 1.5
104 30
113 2
120 2
125 2
126 3.5
128 1
129 1.5
140 1
151 1.5
152 8.5
153 3.5
154 1.5
178 1
179 32
180 99.99
181 19
182 1.5
207 10
208 20
209 2
239 2
240 31
241 5.5

$$$$

     RDKit          2D

 18 20  0  0  0  0  0  0  0  0999 V2000
    3.8990   -5.2500    0.0000 C   0  0  0  0  0  0  0  0  0  0  0  0
   -3.9000    0.7500    0.0000 C   0  0  0  0  0  0  0  0  0  0  0  0
   -3.9000   -0.7500    0.0000 C   0  0  0  0  0  0  0  0  0  0  0  0
    3.9000    0.7500    0.0000 C   0  0  0  0  0  0  0  0  0  0  0  0
    3.9000   -0.7500    0.0000 C   0  0  0  0  0  0  0  0  0  0  0  0
   -2.6000    1.5000    0.0000 C   0  0  0  0  0  0  0  0  0  0  0  0
   -2.6000   -1.5000    0.0000 C   0  0  0  0  0  0  0  0  0  0  0  0
    2.6000    1.5000    0.0000 C   0  0  0  0  0  0  0  0  0  0  0  0
    2.6000   -1.5000    0.0000 C   0  0  0  0  0  0  0  0  0  0  0  0
   -1.3000    0.7500    0.0000 C   0  0  0  0  0  0  0  0  0  0  0  0
   -1.3000   -0.7500    0.0000 C   0  0  0  0  0  0  0  0  0  0  0  0
    1.3000    0.7500    0.0000 C   0  0  0  0  0  0  0  0  0  0  0  0
    1.3000   -0.7500    0.0000 C   0  0  0  0  0  0  0  0  0  0  0  0
    2.6000   -3.0000    0.0000 C   0  0  0  0  0  0  0  0  0  0  0  0
    0.0000    1.5000    0.0000 N   0  0  0  0  0  0  0  0  0  0  0  0
    0.0000   -1.5000    0.0000 N   0  0  0  0  0  0  0  0  0  0  0  0
    1.3010   -3.7500    0.0000 O   0  0  0  0  0  0  0  0  0  0  0  0
    3.8990   -3.7500    0.0000 O   0  0  0  0  0  0  0  0  0  0  0  0
  3  2  2  0
  5  4  1  0
  6  2  1  0
  7  3  1  0
  8  4  2  0
  9  5  2  0
 10  6  2  0
 11  7  2  0
 11 10  1  0
 12  8  1  0
 13  9  1  0
 13 12  1  0
 14  9  1  0
 15 10  1  0
 15 12  2  0
 16 11  1  0
 16 13  2  0
 17 14  2  0
 18  1  1  0
 18 14  1  0
M  END
>  <NAME>  (1863) 
1-METHOXYCARBONYLPHENAZINE

>  <SYNONYMS>  (1863) 


>  <SPECTRUM TYPE>  (1863) 
MS1

>  <INSTRUMENT TYPE>  (1863) 
EI-B

>  <INSTRUMENT>  (1863) 
HITACHI RMU-7L

>  <ION MODE>  (1863) 
P

>  <INCHIKEY>  (1863) 
UEHCMQFOWIRZGQ-UHFFFAOYSA-N

>  <FORMULA>  (1863) 
C14H10N2O2

>  <EXACT MASS>  (1863) 
238.07422756

>  <MW>  (1863) 
238

>  <ID>  (1863) 
JP009469

>  <CONTRIBUTOR>  (1863) 
University of Tokyo Team, {Faculty of Engineering, University of Tokyo

>  <COMMENT>  (1863) 
SMILES=COC(=O)c(c3)c(n1)c(cc3)nc(c2)c(ccc2)1
InChI=InChI=1S/C14H10N2O2/c1-18-14(17)9-5-4-8-12-13(9)16-11-7-3-2-6-10(11)15-12/h2-8H,1H3
computed SMILES=O=C(OC)C=1C=CC=C2N=C3C=CC=CC3=NC21
accession=JP009469
date=2016.01.19 (Created 2008.10.21, modified 2011.05.06)
author=EGUCHI S, FAC. OF SCIENCE, HIROSHIMA UNIV.
license=CC BY-NC-SA
exact mass=238.07423
ionization energy=70 eV
ion type=[M]+*
computed spectral entropy=2.474889514117524
computed normalized entropy=0.6853906884593777
SPLASH=splash10-001r-1920000000-11f505ddc9ae078a3765
submitter=submitter = University of Tokyo Team (Faculty of Engineering, University of Tokyo)
MoNA Rating=3.75

>  <NUM PEAKS>  (1863) 
37

>  <MASS SPECTRAL PEAKS>  (1863) 
50 5.5
51 3
52 1
57 1
62 1.5
63 1.5
74 1.5
75 4.5
76 2
77 1
89 2
89.5 12.5
90 2
101 1.5
102 9
103.5 8
104 1.5
119 1.5
127 2
128 2
129 3
140 1
151 1.5
152 13
153 3.5
167 1
178 1
179 51.5
180 99.99
181 11
182 1
194 1
208 8
223 1
237 1
238 45
239 6

$$$$

     RDKit          2D

 17 19  0  0  0  0  0  0  0  0999 V2000
   -3.9000    0.7500    0.0000 C   0  0  0  0  0  0  0  0  0  0  0  0
   -3.9000   -0.7500    0.0000 C   0  0  0  0  0  0  0  0  0  0  0  0
    3.9000    0.7500    0.0000 C   0  0  0  0  0  0  0  0  0  0  0  0
    3.9000   -0.7500    0.0000 C   0  0  0  0  0  0  0  0  0  0  0  0
   -2.6000    1.5000    0.0000 C   0  0  0  0  0  0  0  0  0  0  0  0
   -2.6000   -1.5000    0.0000 C   0  0  0  0  0  0  0  0  0  0  0  0
    2.6000    1.5000    0.0000 C   0  0  0  0  0  0  0  0  0  0  0  0
    2.6000   -1.5000    0.0000 C   0  0  0  0  0  0  0  0  0  0  0  0
   -1.3000    0.7500    0.0000 C   0  0  0  0  0  0  0  0  0  0  0  0
   -1.3000   -0.7500    0.0000 C   0  0  0  0  0  0  0  0  0  0  0  0
    1.3000    0.7500    0.0000 C   0  0  0  0  0  0  0  0  0  0  0  0
    1.3000   -0.7500    0.0000 C   0  0  0  0  0  0  0  0  0  0  0  0
    2.6000   -3.0000    0.0000 C   0  0  0  0  0  0  0  0  0  0  0  0
    3.8990   -3.7500    0.0000 N   0  0  0  0  0  0  0  0  0  0  0  0
    0.0000    1.5000    0.0000 N   0  0  0  0  0  0  0  0  0  0  0  0
    0.0000   -1.5000    0.0000 N   0  0  0  0  0  0  0  0  0  0  0  0
    1.3010   -3.7500    0.0000 O   0  0  0  0  0  0  0  0  0  0  0  0
  2  1  2  0
  4  3  2  0
  5  1  1  0
  6  2  1  0
  7  3  1  0
  8  4  1  0
  9  5  2  0
 10  6  2  0
 10  9  1  0
 11  7  2  0
 12  8  2  0
 12 11  1  0
 13  8  1  0
 14 13  2  0
 15  9  1  0
 15 11  1  0
 16 10  1  0
 16 12  1  0
 17 13  1  0
M  END
>  <NAME>  (1864) 
5,10-DIHYDROPHENAZINE-1-CARBOXAMIDE

>  <SYNONYMS>  (1864) 


>  <SPECTRUM TYPE>  (1864) 
MS1

>  <INSTRUMENT TYPE>  (1864) 
EI-B

>  <INSTRUMENT>  (1864) 
HITACHI RMU-7L

>  <ION MODE>  (1864) 
P

>  <INCHIKEY>  (1864) 
MGGYDPTZXGZDOD-UHFFFAOYSA-N

>  <FORMULA>  (1864) 
C13H11N3O

>  <EXACT MASS>  (1864) 
225.090211972

>  <MW>  (1864) 
225

>  <ID>  (1864) 
JP009468

>  <CONTRIBUTOR>  (1864) 
University of Tokyo Team, {Faculty of Engineering, University of Tokyo

>  <COMMENT>  (1864) 
SMILES=NC(=O)c(c3)c(N1)c(cc3)Nc(c2)c(ccc2)1
InChI=InChI=1S/C13H11N3O/c14-13(17)8-4-3-7-11-12(8)16-10-6-2-1-5-9(10)15-11/h1-7,15-16H,(H2,14,17)
computed SMILES=N=C(O)C=1C=CC=C2NC=3C=CC=CC3NC21
accession=JP009468
date=2016.01.19 (Created 2008.10.21, modified 2011.05.06)
author=EGUCHI S, FAC. OF SCIENCE, HIROSHIMA UNIV.
license=CC BY-NC-SA
exact mass=225.09021
ionization energy=70 eV
ion type=[M]+*
computed spectral entropy=2.8457209351175474
computed normalized entropy=0.7880879610009373
SPLASH=splash10-0f8c-4920000000-becaf8828a15dea33fa5
submitter=submitter = University of Tokyo Team (Faculty of Engineering, University of Tokyo)
MoNA Rating=3.75

>  <NUM PEAKS>  (1864) 
37

>  <MASS SPECTRAL PEAKS>  (1864) 
50 20
51 13
53 2.5
63 7
74 1.5
75 11
76 8
77 21.5
88 2
90 31
91 2
101 2
102 10
103 1.5
104 30
113 2
120 2
125 2
126 3
128 1
129 1.5
140 1
151 2
152 8
153 3.5
154 1
178 1
179 32
180 99.99
181 18
182 1.5
207 10
208 20
209 2
239 1.5
240 31
241 5.5

$$$$

     RDKit          2D

 17 19  0  0  0  0  0  0  0  0999 V2000
   -3.9000    0.7500    0.0000 C   0  0  0  0  0  0  0  0  0  0  0  0
   -3.9000   -0.7500    0.0000 C   0  0  0  0  0  0  0  0  0  0  0  0
   -2.6000    1.5000    0.0000 C   0  0  0  0  0  0  0  0  0  0  0  0
   -2.6000   -1.5000    0.0000 C   0  0  0  0  0  0  0  0  0  0  0  0
    3.9000    0.7500    0.0000 C   0  0  0  0  0  0  0  0  0  0  0  0
    2.6000    1.5000    0.0000 C   0  0  0  0  0  0  0  0  0  0  0  0
    2.6000   -1.5000    0.0000 C   0  0  0  0  0  0  0  0  0  0  0  0
    3.9000   -0.7500    0.0000 C   0  0  0  0  0  0  0  0  0  0  0  0
   -1.3000    0.7500    0.0000 C   0  0  0  0  0  0  0  0  0  0  0  0
   -1.3000   -0.7500    0.0000 C   0  0  0  0  0  0  0  0  0  0  0  0
    1.3000    0.7500    0.0000 C   0  0  0  0  0  0  0  0  0  0  0  0
    1.3000   -0.7500    0.0000 C   0  0  0  0  0  0  0  0  0  0  0  0
    5.1989   -1.5002    0.0000 C   0  0  0  0  0  0  0  0  0  0  0  0
    6.4981   -0.7504    0.0000 N   0  0  0  0  0  0  0  0  0  0  0  0
    0.0000    1.5000    0.0000 N   0  0  0  0  0  0  0  0  0  0  0  0
    0.0000   -1.5000    0.0000 N   0  0  0  0  0  0  0  0  0  0  0  0
    5.1987   -3.0002    0.0000 O   0  0  0  0  0  0  0  0  0  0  0  0
  2  1  2  0
  3  1  1  0
  4  2  1  0
  6  5  2  0
  8  5  1  0
  8  7  2  0
  9  3  2  0
 10  4  2  0
 10  9  1  0
 11  6  1  0
 12  7  1  0
 12 11  1  0
 13  8  1  0
 14 13  2  0
 15  9  1  0
 15 11  2  0
 16 10  1  0
 16 12  2  0
 17 13  1  0
M  END
>  <NAME>  (1865) 
PHENAZINE-2-CARBOXAMIDE

>  <SYNONYMS>  (1865) 


>  <SPECTRUM TYPE>  (1865) 
MS1

>  <INSTRUMENT TYPE>  (1865) 
EI-B

>  <INSTRUMENT>  (1865) 
HITACHI RMU-7L

>  <ION MODE>  (1865) 
P

>  <INCHIKEY>  (1865) 
HBUAKGFNHSQHSX-UHFFFAOYSA-N

>  <FORMULA>  (1865) 
C13H9N3O

>  <EXACT MASS>  (1865) 
223.074561908

>  <MW>  (1865) 
223

>  <ID>  (1865) 
JP009467

>  <CONTRIBUTOR>  (1865) 
University of Tokyo Team, {Faculty of Engineering, University of Tokyo

>  <COMMENT>  (1865) 
SMILES=NC(=O)c(c3)cc(n1)c(c3)nc(c2)c(ccc2)1
InChI=InChI=1S/C13H9N3O/c14-13(17)8-5-6-11-12(7-8)16-10-4-2-1-3-9(10)15-11/h1-7H,(H2,14,17)
computed SMILES=N=C(O)C1=CC=C2N=C3C=CC=CC3=NC2=C1
accession=JP009467
date=2016.01.19 (Created 2008.10.21, modified 2011.05.06)
author=EGUCHI S, FAC. OF SCIENCE, HIROSHIMA UNIV.
license=CC BY-NC-SA
exact mass=223.07456
ionization energy=70 eV
ion type=[M]+*
computed spectral entropy=2.822100536767131
computed normalized entropy=0.7503191667446649
SPLASH=splash10-00ai-2930000000-0f000fd038cb05801765
submitter=submitter = University of Tokyo Team (Faculty of Engineering, University of Tokyo)
MoNA Rating=3.75

>  <NUM PEAKS>  (1865) 
43

>  <MASS SPECTRAL PEAKS>  (1865) 
50 11
51 11
52 4.5
62 2
63 6
64 2.5
74 4.5
75 12
76 7
77 6.5
78 1.5
89 3
90 3
101 2.5
102 18
103 5
104 1
112 1
116 0.5
125 3
126 1
127 1.5
128 2
129 3
151 3.5
152 13
153 5.5
154 1
168 1.5
177 2
179 51
180 99.99
181 15.5
182 1.5
195 4.5
196 1
205 1
206 7
207 11
208 1.5
222 1
223 60
224 7

$$$$

     RDKit          2D

 18 20  0  0  0  0  0  0  0  0999 V2000
   -3.9000    0.7500    0.0000 C   0  0  0  0  0  0  0  0  0  0  0  0
   -3.9000   -0.7500    0.0000 C   0  0  0  0  0  0  0  0  0  0  0  0
   -2.6000    1.5000    0.0000 C   0  0  0  0  0  0  0  0  0  0  0  0
   -2.6000   -1.5000    0.0000 C   0  0  0  0  0  0  0  0  0  0  0  0
    2.6000    1.5000    0.0000 C   0  0  0  0  0  0  0  0  0  0  0  0
    3.9000    0.7500    0.0000 C   0  0  0  0  0  0  0  0  0  0  0  0
   -1.3000    0.7500    0.0000 C   0  0  0  0  0  0  0  0  0  0  0  0
   -1.3000   -0.7500    0.0000 C   0  0  0  0  0  0  0  0  0  0  0  0
    1.3000    0.7500    0.0000 C   0  0  0  0  0  0  0  0  0  0  0  0
    3.9000   -0.7500    0.0000 C   0  0  0  0  0  0  0  0  0  0  0  0
    2.6000   -1.5000    0.0000 C   0  0  0  0  0  0  0  0  0  0  0  0
    1.3000   -0.7500    0.0000 C   0  0  0  0  0  0  0  0  0  0  0  0
    2.6000   -3.0000    0.0000 C   0  0  0  0  0  0  0  0  0  0  0  0
    0.0000    1.5000    0.0000 N   0  0  0  0  0  0  0  0  0  0  0  0
    0.0000   -1.5000    0.0000 N   0  0  0  0  0  0  0  0  0  0  0  0
    5.1989   -1.5002    0.0000 O   0  0  0  0  0  0  0  0  0  0  0  0
    1.3010   -3.7500    0.0000 O   0  0  0  0  0  0  0  0  0  0  0  0
    3.8990   -3.7500    0.0000 O   0  0  0  0  0  0  0  0  0  0  0  0
  2  1  2  0
  3  1  1  0
  4  2  1  0
  6  5  2  0
  7  3  2  0
  8  4  2  0
  8  7  1  0
  9  5  1  0
 10  6  1  0
 11 10  2  0
 12  9  1  0
 12 11  1  0
 13 11  1  0
 14  7  1  0
 14  9  2  0
 15  8  1  0
 15 12  2  0
 16 10  1  0
 17 13  2  0
 18 13  1  0
M  END
>  <NAME>  (1866) 
1-CARBOXY-2-HYDROXYPHENAZINE

>  <SYNONYMS>  (1866) 


>  <SPECTRUM TYPE>  (1866) 
MS1

>  <INSTRUMENT TYPE>  (1866) 
EI-B

>  <INSTRUMENT>  (1866) 
HITACHI RMU-7L

>  <ION MODE>  (1866) 
P

>  <INCHIKEY>  (1866) 
GXLWPTUCVZRTBQ-UHFFFAOYSA-N

>  <FORMULA>  (1866) 
C13H8N2O3

>  <EXACT MASS>  (1866) 
240.05349211599997

>  <MW>  (1866) 
240

>  <ID>  (1866) 
JP009466

>  <CONTRIBUTOR>  (1866) 
University of Tokyo Team, {Faculty of Engineering, University of Tokyo

>  <COMMENT>  (1866) 
SMILES=OC(=O)c(c(O)3)c(n1)c(cc3)nc(c2)c(ccc2)1
InChI=InChI=1S/C13H8N2O3/c16-10-6-5-9-12(11(10)13(17)18)15-8-4-2-1-3-7(8)14-9/h1-6,16H,(H,17,18)
computed SMILES=O=C(O)C=1C(O)=CC=C2N=C3C=CC=CC3=NC21
accession=JP009466
date=2016.01.19 (Created 2008.10.21, modified 2011.05.06)
author=EGUCHI S, FAC. OF SCIENCE, HIROSHIMA UNIV.
license=CC BY-NC-SA
exact mass=240.05349
ionization energy=70 eV
ion type=[M]+*
computed spectral entropy=3.26042565854953
computed normalized entropy=0.8251644015824177
SPLASH=splash10-00ke-4920000000-222019157340a3bba12e
submitter=submitter = University of Tokyo Team (Faculty of Engineering, University of Tokyo)
MoNA Rating=3.75

>  <NUM PEAKS>  (1866) 
52

>  <MASS SPECTRAL PEAKS>  (1866) 
50 18
51 13
52 5
53 2
61 4.5
62 12
63 16
64 10
65 2.5
74 4.5
75 8
76 10
77 20
78 1
83 3
84 1.5
88 4
89 9.5
90 3.5
97 16
102 19
103 3
104 6
115 7
116 1
118 1
129 1.5
139 11
140 11
141 1.5
142 3
152 1
153 1
165 8
166 41
167 10
168 76
169 10
179 2
180 12
181 1
194 18
195 5
196 99.99
197 18
198 1
221 1
222 45
223 8
240 50
241 10
242 1

$$$$

     RDKit          2D

 17 19  0  0  0  0  0  0  0  0999 V2000
   -3.9000    0.7500    0.0000 C   0  0  0  0  0  0  0  0  0  0  0  0
   -3.9000   -0.7500    0.0000 C   0  0  0  0  0  0  0  0  0  0  0  0
    3.9000    0.7500    0.0000 C   0  0  0  0  0  0  0  0  0  0  0  0
    3.9000   -0.7500    0.0000 C   0  0  0  0  0  0  0  0  0  0  0  0
   -2.6000    1.5000    0.0000 C   0  0  0  0  0  0  0  0  0  0  0  0
   -2.6000   -1.5000    0.0000 C   0  0  0  0  0  0  0  0  0  0  0  0
    2.6000    1.5000    0.0000 C   0  0  0  0  0  0  0  0  0  0  0  0
    2.6000   -1.5000    0.0000 C   0  0  0  0  0  0  0  0  0  0  0  0
   -1.3000    0.7500    0.0000 C   0  0  0  0  0  0  0  0  0  0  0  0
   -1.3000   -0.7500    0.0000 C   0  0  0  0  0  0  0  0  0  0  0  0
    1.3000    0.7500    0.0000 C   0  0  0  0  0  0  0  0  0  0  0  0
    1.3000   -0.7500    0.0000 C   0  0  0  0  0  0  0  0  0  0  0  0
    2.6000   -3.0000    0.0000 C   0  0  0  0  0  0  0  0  0  0  0  0
    0.0000    1.5000    0.0000 N   0  0  0  0  0  0  0  0  0  0  0  0
    0.0000   -1.5000    0.0000 N   0  0  0  0  0  0  0  0  0  0  0  0
    1.3010   -3.7500    0.0000 O   0  0  0  0  0  0  0  0  0  0  0  0
    3.8990   -3.7500    0.0000 O   0  0  0  0  0  0  0  0  0  0  0  0
  2  1  2  0
  4  3  2  0
  5  1  1  0
  6  2  1  0
  7  3  1  0
  8  4  1  0
  9  5  2  0
 10  6  2  0
 10  9  1  0
 11  7  2  0
 12  8  2  0
 12 11  1  0
 13  8  1  0
 14  9  1  0
 14 11  1  0
 15 10  1  0
 15 12  1  0
 16 13  2  0
 17 13  1  0
M  END
>  <NAME>  (1867) 
1-CARBOXY-5,10-DIHYDROPHENAZINE

>  <SYNONYMS>  (1867) 


>  <SPECTRUM TYPE>  (1867) 
MS1

>  <INSTRUMENT TYPE>  (1867) 
EI-B

>  <INSTRUMENT>  (1867) 
HITACHI RMU-7L

>  <ION MODE>  (1867) 
P

>  <INCHIKEY>  (1867) 
RWCXEOMFBZOODX-UHFFFAOYSA-N

>  <FORMULA>  (1867) 
C13H10N2O2

>  <EXACT MASS>  (1867) 
226.07422756

>  <MW>  (1867) 
226

>  <ID>  (1867) 
JP009465

>  <CONTRIBUTOR>  (1867) 
University of Tokyo Team, {Faculty of Engineering, University of Tokyo

>  <COMMENT>  (1867) 
SMILES=OC(=O)c(c3)c(N1)c(cc3)Nc(c2)c(ccc2)1
InChI=InChI=1S/C13H10N2O2/c16-13(17)8-4-3-7-11-12(8)15-10-6-2-1-5-9(10)14-11/h1-7,14-15H,(H,16,17)
computed SMILES=O=C(O)C=1C=CC=C2NC=3C=CC=CC3NC21
accession=JP009465
date=2016.01.19 (Created 2008.10.21, modified 2011.05.06)
author=EGUCHI S, FAC. OF SCIENCE, HIROSHIMA UNIV.
license=CC BY-NC-SA
exact mass=226.07423
ionization energy=70 eV
ion type=[M]+*
computed spectral entropy=3.0389206128499007
computed normalized entropy=0.7307059496356336
SPLASH=splash10-003r-3950000000-38726380cc412e7c4a41
submitter=submitter = University of Tokyo Team (Faculty of Engineering, University of Tokyo)
MoNA Rating=3.75

>  <NUM PEAKS>  (1867) 
64

>  <MASS SPECTRAL PEAKS>  (1867) 
50 4
51 5
52 3
53 2.5
54 2
62 1.5
63 5
64 2
65 1.5
69 1
71 1.5
74 2.5
75 4.5
76 6
76.5 2.5
77 8.5
78 3
84 0.5
85 0.5
86 1
87 1
88 1
89 1.5
89.5 2.5
90 11
90.5 3
91 1
95 1
97 1
99 1
100 1.5
101 2
102 5
103 3
103.5 1.5
104 10
104.5 2
105 1.5
113 2
124 0.5
125 2
126 1.5
127 4
128 2
129 3
130 1
140 1
151 2
152 7
153 8
154 4
155 1.5
179 32
180 99.99
181 20
182 2.5
207 6
208 17
209 3.5
210 1
225 4
226 86.5
227 9
228 2

$$$$

     RDKit          2D

 14 16  0  0  0  0  0  0  0  0999 V2000
   -3.9000    0.7500    0.0000 C   0  0  0  0  0  0  0  0  0  0  0  0
   -3.9000   -0.7500    0.0000 C   0  0  0  0  0  0  0  0  0  0  0  0
    3.9000    0.7500    0.0000 C   0  0  0  0  0  0  0  0  0  0  0  0
    3.9000   -0.7500    0.0000 C   0  0  0  0  0  0  0  0  0  0  0  0
   -2.6000    1.5000    0.0000 C   0  0  0  0  0  0  0  0  0  0  0  0
   -2.6000   -1.5000    0.0000 C   0  0  0  0  0  0  0  0  0  0  0  0
    2.6000    1.5000    0.0000 C   0  0  0  0  0  0  0  0  0  0  0  0
    2.6000   -1.5000    0.0000 C   0  0  0  0  0  0  0  0  0  0  0  0
   -1.3000    0.7500    0.0000 C   0  0  0  0  0  0  0  0  0  0  0  0
   -1.3000   -0.7500    0.0000 C   0  0  0  0  0  0  0  0  0  0  0  0
    1.3000    0.7500    0.0000 C   0  0  0  0  0  0  0  0  0  0  0  0
    1.3000   -0.7500    0.0000 C   0  0  0  0  0  0  0  0  0  0  0  0
    0.0000    1.5000    0.0000 N   0  0  0  0  0  0  0  0  0  0  0  0
    0.0000   -1.5000    0.0000 N   0  0  0  0  0  0  0  0  0  0  0  0
  2  1  2  0
  4  3  2  0
  5  1  1  0
  6  2  1  0
  7  3  1  0
  8  4  1  0
  9  5  2  0
 10  6  2  0
 10  9  1  0
 11  7  2  0
 12  8  2  0
 12 11  1  0
 13  9  1  0
 13 11  1  0
 14 10  1  0
 14 12  1  0
M  END
>  <NAME>  (1868) 
5,10-DIHYDROPHENAZINE

>  <SYNONYMS>  (1868) 


>  <SPECTRUM TYPE>  (1868) 
MS1

>  <INSTRUMENT TYPE>  (1868) 
EI-B

>  <INSTRUMENT>  (1868) 
HITACHI RMU-7L

>  <ION MODE>  (1868) 
P

>  <INCHIKEY>  (1868) 
IVURTNNWJAPOML-UHFFFAOYSA-N

>  <FORMULA>  (1868) 
C12H10N2

>  <EXACT MASS>  (1868) 
182.08439832

>  <MW>  (1868) 
182

>  <ID>  (1868) 
JP009464

>  <CONTRIBUTOR>  (1868) 
University of Tokyo Team, {Faculty of Engineering, University of Tokyo

>  <COMMENT>  (1868) 
SMILES=c(c3)cc(N1)c(c3)Nc(c2)c(ccc2)1
InChI=InChI=1S/C12H10N2/c1-2-6-10-9(5-1)13-11-7-3-4-8-12(11)14-10/h1-8,13-14H
computed SMILES=C=1C=CC=2NC=3C=CC=CC3NC2C1
accession=JP009464
date=2016.01.19 (Created 2008.10.21, modified 2011.05.06)
author=EGUCHI S, FAC. OF SCIENCE, HIROSHIMA UNIV.
license=CC BY-NC-SA
exact mass=182.0844
ionization energy=70 eV
ion type=[M]+*
computed spectral entropy=2.7935768551782436
computed normalized entropy=0.7141003136489746
SPLASH=splash10-001i-2900000000-1af52b77a34fe1bac3c3
submitter=submitter = University of Tokyo Team (Faculty of Engineering, University of Tokyo)
MoNA Rating=3.75

>  <NUM PEAKS>  (1868) 
50

>  <MASS SPECTRAL PEAKS>  (1868) 
50 4.5
51 5
52 3.5
53 4.5
65 1.5
66 2.5
67 3.5
68 1.5
74 1.5
75 3
76 4
77 16
78 4
89 1.5
90 6
90.5 4.5
91 1.5
91.5 2.5
99 1
100 1
101 1.5
102 4.5
103 2
104 1.5
105 1.5
125 2
126 3
127 2.5
128 3.5
129 2
130 1.5
137 1
138 1
139 1
140 1
141 1
149 1
150 1
151 1
152 2
153 3
154 3.5
155 1
156 1
179 6
180 11
181 46
182 99.99
183 15
184 2.5

$$$$

     RDKit          2D

 17 19  0  0  0  0  0  0  0  0999 V2000
   -3.9000    0.7500    0.0000 C   0  0  0  0  0  0  0  0  0  0  0  0
   -3.9000   -0.7500    0.0000 C   0  0  0  0  0  0  0  0  0  0  0  0
    3.9000    0.7500    0.0000 C   0  0  0  0  0  0  0  0  0  0  0  0
    3.9000   -0.7500    0.0000 C   0  0  0  0  0  0  0  0  0  0  0  0
   -2.6000    1.5000    0.0000 C   0  0  0  0  0  0  0  0  0  0  0  0
   -2.6000   -1.5000    0.0000 C   0  0  0  0  0  0  0  0  0  0  0  0
    2.6000    1.5000    0.0000 C   0  0  0  0  0  0  0  0  0  0  0  0
    2.6000   -1.5000    0.0000 C   0  0  0  0  0  0  0  0  0  0  0  0
   -1.3000    0.7500    0.0000 C   0  0  0  0  0  0  0  0  0  0  0  0
   -1.3000   -0.7500    0.0000 C   0  0  0  0  0  0  0  0  0  0  0  0
    1.3000    0.7500    0.0000 C   0  0  0  0  0  0  0  0  0  0  0  0
    1.3000   -0.7500    0.0000 C   0  0  0  0  0  0  0  0  0  0  0  0
    2.6000   -3.0000    0.0000 C   0  0  0  0  0  0  0  0  0  0  0  0
    0.0000    1.5000    0.0000 N   0  0  0  0  0  0  0  0  0  0  0  0
    0.0000   -1.5000    0.0000 N   0  0  0  0  0  0  0  0  0  0  0  0
    1.3010   -3.7500    0.0000 O   0  0  0  0  0  0  0  0  0  0  0  0
    3.8990   -3.7500    0.0000 O   0  0  0  0  0  0  0  0  0  0  0  0
  2  1  2  0
  4  3  1  0
  5  1  1  0
  6  2  1  0
  7  3  2  0
  8  4  2  0
  9  5  2  0
 10  6  2  0
 10  9  1  0
 11  7  1  0
 12  8  1  0
 12 11  1  0
 13  8  1  0
 14  9  1  0
 14 11  2  0
 15 10  1  0
 15 12  2  0
 16 13  2  0
 17 13  1  0
M  END
>  <NAME>  (1869) 
1-CARBOXYPHENAZINE

>  <SYNONYMS>  (1869) 


>  <SPECTRUM TYPE>  (1869) 
MS1

>  <INSTRUMENT TYPE>  (1869) 
EI-B

>  <INSTRUMENT>  (1869) 
HITACHI RMU-7L

>  <ION MODE>  (1869) 
P

>  <INCHIKEY>  (1869) 
JGCSKOVQDXEQHI-UHFFFAOYSA-N

>  <FORMULA>  (1869) 
C13H8N2O2

>  <EXACT MASS>  (1869) 
224.058577496

>  <MW>  (1869) 
224

>  <ID>  (1869) 
JP009463

>  <CONTRIBUTOR>  (1869) 
University of Tokyo Team, {Faculty of Engineering, University of Tokyo

>  <COMMENT>  (1869) 
SMILES=OC(=O)c(c3)c(n1)c(cc3)nc(c2)c(ccc2)1
InChI=InChI=1S/C13H8N2O2/c16-13(17)8-4-3-7-11-12(8)15-10-6-2-1-5-9(10)14-11/h1-7H,(H,16,17)
computed SMILES=O=C(O)C=1C=CC=C2N=C3C=CC=CC3=NC21
accession=JP009463
date=2016.01.19 (Created 2008.10.21, modified 2011.05.06)
author=EGUCHI S, FAC. OF SCIENCE, HIROSHIMA UNIV.
license=CC BY-NC-SA
exact mass=224.05858
ionization energy=70 eV
ion type=[M]+*
computed spectral entropy=2.503950618061407
computed normalized entropy=0.6742701025009578
SPLASH=splash10-001i-4900000000-16e3cd0ea477a37b7d29
submitter=submitter = University of Tokyo Team (Faculty of Engineering, University of Tokyo)
MoNA Rating=3.75

>  <NUM PEAKS>  (1869) 
41

>  <MASS SPECTRAL PEAKS>  (1869) 
50 12
51 13
52 4.5
55 1
57 1
61 2
63 6
64 1.5
65 1
69 1
71 0.5
74 2
75 9.5
76 6.5
77 3
78 1
89 1
90 7.5
99 0.5
100 1
101 1
102 5.5
103 3
125 3
126 1.5
127 2
128 1.5
130 1
140 1
154 2.5
170 1.5
177 0.5
178 1
179 23
180 99.99
181 13
182 1
207 1
224 2.5
225 1
226 0.5

$$$$

     RDKit          2D

 16 18  0  0  0  0  0  0  0  0999 V2000
   -3.9000    0.7500    0.0000 C   0  0  0  0  0  0  0  0  0  0  0  0
   -3.9000   -0.7500    0.0000 C   0  0  0  0  0  0  0  0  0  0  0  0
   -2.6000    1.5000    0.0000 C   0  0  0  0  0  0  0  0  0  0  0  0
   -2.6000   -1.5000    0.0000 C   0  0  0  0  0  0  0  0  0  0  0  0
    3.9000    0.7500    0.0000 C   0  0  0  0  0  0  0  0  0  0  0  0
    2.6000    1.5000    0.0000 C   0  0  0  0  0  0  0  0  0  0  0  0
    2.6000   -1.5000    0.0000 C   0  0  0  0  0  0  0  0  0  0  0  0
    5.1989   -1.5002    0.0000 C   0  0  0  0  0  0  0  0  0  0  0  0
    3.9000   -0.7500    0.0000 C   0  0  0  0  0  0  0  0  0  0  0  0
   -1.3000    0.7500    0.0000 C   0  0  0  0  0  0  0  0  0  0  0  0
   -1.3000   -0.7500    0.0000 C   0  0  0  0  0  0  0  0  0  0  0  0
    1.3000    0.7500    0.0000 C   0  0  0  0  0  0  0  0  0  0  0  0
    1.3000   -0.7500    0.0000 C   0  0  0  0  0  0  0  0  0  0  0  0
    6.4978   -2.2504    0.0000 N   0  0  0  0  0  0  0  0  0  0  0  0
    0.0000    1.5000    0.0000 N   0  0  0  0  0  0  0  0  0  0  0  0
    0.0000   -1.5000    0.0000 N   0  0  0  0  0  0  0  0  0  0  0  0
  2  1  2  0
  3  1  1  0
  4  2  1  0
  6  5  2  0
  9  5  1  0
  9  7  2  0
  9  8  1  0
 10  3  2  0
 11  4  2  0
 11 10  1  0
 12  6  1  0
 13  7  1  0
 13 12  1  0
 14  8  3  0
 15 10  1  0
 15 12  2  0
 16 11  1  0
 16 13  2  0
M  END
>  <NAME>  (1870) 
2-CYANOPHENAZINE

>  <SYNONYMS>  (1870) 


>  <SPECTRUM TYPE>  (1870) 
MS1

>  <INSTRUMENT TYPE>  (1870) 
EI-B

>  <INSTRUMENT>  (1870) 
HITACHI RMU-7L

>  <ION MODE>  (1870) 
P

>  <INCHIKEY>  (1870) 
IWDIQIINIKFOEB-UHFFFAOYSA-N

>  <FORMULA>  (1870) 
C13H7N3

>  <EXACT MASS>  (1870) 
205.063997224

>  <MW>  (1870) 
205

>  <ID>  (1870) 
JP009462

>  <CONTRIBUTOR>  (1870) 
University of Tokyo Team, {Faculty of Engineering, University of Tokyo

>  <COMMENT>  (1870) 
SMILES=N#Cc(c3)cc(n1)c(c3)nc(c2)c(ccc2)1
InChI=InChI=1S/C13H7N3/c14-8-9-5-6-12-13(7-9)16-11-4-2-1-3-10(11)15-12/h1-7H
computed SMILES=N#CC1=CC=C2N=C3C=CC=CC3=NC2=C1
accession=JP009462
date=2016.01.19 (Created 2008.10.21, modified 2011.05.06)
author=EGUCHI S, FAC. OF SCIENCE, HIROSHIMA UNIV.
license=CC BY-NC-SA
exact mass=205.064
ionization energy=70 eV
ion type=[M]+*
computed spectral entropy=2.5993446458599543
computed normalized entropy=0.8409281609949587
SPLASH=splash10-0a6r-3980000000-615070b68473a1c7afc2
submitter=submitter = University of Tokyo Team (Faculty of Engineering, University of Tokyo)
MoNA Rating=3.75

>  <NUM PEAKS>  (1870) 
22

>  <MASS SPECTRAL PEAKS>  (1870) 
75 18
76 21
77 9
100 7
101 8
102 8
102.5 15
103 9
127 7
128 9
149 9.5
151 7
152 5
153 5
154 6
177 6
178 15
179 10
204 10
205 99.99
206 14
207 2.5

$$$$

     RDKit          2D

 16 18  0  0  0  0  0  0  0  0999 V2000
    6.1481   -0.6504    0.0000 C   0  0  0  0  0  0  0  0  0  0  0  0
   -4.2400    0.8500    0.0000 C   0  0  0  0  0  0  0  0  0  0  0  0
   -4.2400   -0.6500    0.0000 C   0  0  0  0  0  0  0  0  0  0  0  0
   -2.9400    1.6000    0.0000 C   0  0  0  0  0  0  0  0  0  0  0  0
   -2.9400   -1.4000    0.0000 C   0  0  0  0  0  0  0  0  0  0  0  0
    3.5500    0.8500    0.0000 C   0  0  0  0  0  0  0  0  0  0  0  0
    2.2500    1.6000    0.0000 C   0  0  0  0  0  0  0  0  0  0  0  0
    2.2500   -1.4000    0.0000 C   0  0  0  0  0  0  0  0  0  0  0  0
    3.5500   -0.6500    0.0000 C   0  0  0  0  0  0  0  0  0  0  0  0
   -1.6500    0.8500    0.0000 C   0  0  0  0  0  0  0  0  0  0  0  0
   -1.6500   -0.6500    0.0000 C   0  0  0  0  0  0  0  0  0  0  0  0
    0.9500    0.8500    0.0000 C   0  0  0  0  0  0  0  0  0  0  0  0
    0.9500   -0.6500    0.0000 C   0  0  0  0  0  0  0  0  0  0  0  0
   -0.3500    1.6000    0.0000 N   0  0  0  0  0  0  0  0  0  0  0  0
   -0.3500   -1.4000    0.0000 N   0  0  0  0  0  0  0  0  0  0  0  0
    4.8489   -1.4002    0.0000 O   0  0  0  0  0  0  0  0  0  0  0  0
  3  2  2  0
  4  2  1  0
  5  3  1  0
  7  6  2  0
  9  6  1  0
  9  8  2  0
 10  4  2  0
 11  5  2  0
 11 10  1  0
 12  7  1  0
 13  8  1  0
 13 12  1  0
 14 10  1  0
 14 12  2  0
 15 11  1  0
 15 13  2  0
 16  1  1  0
 16  9  1  0
M  END
>  <NAME>  (1871) 
2-METHOXYPHENAZINE

>  <SYNONYMS>  (1871) 


>  <SPECTRUM TYPE>  (1871) 
MS1

>  <INSTRUMENT TYPE>  (1871) 
EI-B

>  <INSTRUMENT>  (1871) 
HITACHI RMU-7L

>  <ION MODE>  (1871) 
P

>  <INCHIKEY>  (1871) 
YGSXHEXJOFMTHZ-UHFFFAOYSA-N

>  <FORMULA>  (1871) 
C13H10N2O

>  <EXACT MASS>  (1871) 
210.07931294

>  <MW>  (1871) 
210

>  <ID>  (1871) 
JP009461

>  <CONTRIBUTOR>  (1871) 
University of Tokyo Team, {Faculty of Engineering, University of Tokyo

>  <COMMENT>  (1871) 
SMILES=COc(c3)cc(n1)c(c3)nc(c2)c(ccc2)1
InChI=InChI=1S/C13H10N2O/c1-16-9-6-7-12-13(8-9)15-11-5-3-2-4-10(11)14-12/h2-8H,1H3
computed SMILES=N1=C2C=CC=CC2=NC3=CC(OC)=CC=C13
accession=JP009461
date=2016.01.19 (Created 2008.10.21, modified 2011.05.06)
author=EGUCHI S, FAC. OF SCIENCE, HIROSHIMA UNIV.
license=CC BY-NC-SA
exact mass=210.07931
ionization energy=70 eV
ion type=[M]+*
computed spectral entropy=2.2398007977563803
computed normalized entropy=0.7606884753272963
SPLASH=splash10-03xr-3890000000-bd0f019fa2d2517d6602
submitter=submitter = University of Tokyo Team (Faculty of Engineering, University of Tokyo)
MoNA Rating=3.75

>  <NUM PEAKS>  (1871) 
19

>  <MASS SPECTRAL PEAKS>  (1871) 
62 6
63 15
64 4
74 5
75 8
76 10
77 6
102 5.5
113 5
114 6
140 9
167 70
168 10
180 8
181 6
209 7
210 99.99
211 14
212 2

$$$$

     RDKit          2D

 15 17  0  0  0  0  0  0  0  0999 V2000
   -4.2400    0.8500    0.0000 C   0  0  0  0  0  0  0  0  0  0  0  0
   -4.2400   -0.6500    0.0000 C   0  0  0  0  0  0  0  0  0  0  0  0
   -2.9400    1.6000    0.0000 C   0  0  0  0  0  0  0  0  0  0  0  0
   -2.9400   -1.4000    0.0000 C   0  0  0  0  0  0  0  0  0  0  0  0
    3.5500    0.8500    0.0000 C   0  0  0  0  0  0  0  0  0  0  0  0
    2.2500    1.6000    0.0000 C   0  0  0  0  0  0  0  0  0  0  0  0
    2.2500   -1.4000    0.0000 C   0  0  0  0  0  0  0  0  0  0  0  0
    3.5500   -0.6500    0.0000 C   0  0  0  0  0  0  0  0  0  0  0  0
   -1.6500    0.8500    0.0000 C   0  0  0  0  0  0  0  0  0  0  0  0
   -1.6500   -0.6500    0.0000 C   0  0  0  0  0  0  0  0  0  0  0  0
    0.9500    0.8500    0.0000 C   0  0  0  0  0  0  0  0  0  0  0  0
    0.9500   -0.6500    0.0000 C   0  0  0  0  0  0  0  0  0  0  0  0
   -0.3500    1.6000    0.0000 N   0  0  0  0  0  0  0  0  0  0  0  0
   -0.3500   -1.4000    0.0000 N   0  0  0  0  0  0  0  0  0  0  0  0
    4.8489   -1.4002    0.0000 O   0  0  0  0  0  0  0  0  0  0  0  0
  2  1  2  0
  3  1  1  0
  4  2  1  0
  6  5  2  0
  8  5  1  0
  8  7  2  0
  9  3  2  0
 10  4  2  0
 10  9  1  0
 11  6  1  0
 12  7  1  0
 12 11  1  0
 13  9  1  0
 13 11  2  0
 14 10  1  0
 14 12  2  0
 15  8  1  0
M  END
>  <NAME>  (1872) 
2-HYDROXYPHENAZINE

>  <SYNONYMS>  (1872) 


>  <SPECTRUM TYPE>  (1872) 
MS1

>  <INSTRUMENT TYPE>  (1872) 
EI-B

>  <INSTRUMENT>  (1872) 
HITACHI RMU-7L

>  <ION MODE>  (1872) 
P

>  <INCHIKEY>  (1872) 
RETSEGNZNUBJRB-UHFFFAOYSA-N

>  <FORMULA>  (1872) 
C12H8N2O

>  <EXACT MASS>  (1872) 
196.063662876

>  <MW>  (1872) 
196

>  <ID>  (1872) 
JP009460

>  <CONTRIBUTOR>  (1872) 
University of Tokyo Team, {Faculty of Engineering, University of Tokyo

>  <COMMENT>  (1872) 
SMILES=Oc(c3)cc(n1)c(c3)nc(c2)c(ccc2)1
InChI=InChI=1S/C12H8N2O/c15-8-5-6-11-12(7-8)14-10-4-2-1-3-9(10)13-11/h1-7,15H
computed SMILES=OC1=CC=C2N=C3C=CC=CC3=NC2=C1
accession=JP009460
date=2016.01.19 (Created 2008.10.21, modified 2011.05.06)
author=EGUCHI S, FAC. OF SCIENCE, HIROSHIMA UNIV.
license=CC BY-NC-SA
exact mass=196.06366
ionization energy=70 eV
ion type=[M]+*
computed spectral entropy=3.092045681455826
computed normalized entropy=0.8696886009412255
SPLASH=splash10-00mk-5900000000-022a68c2a1b0a88c68a3
submitter=submitter = University of Tokyo Team (Faculty of Engineering, University of Tokyo)
MoNA Rating=3.75

>  <NUM PEAKS>  (1872) 
35

>  <MASS SPECTRAL PEAKS>  (1872) 
74 15
75 25
76 38
77 35
78 16
88 9
89 13
90 11
91 7
92 10
98 35
99 3
100 1
102 20
103 7
114 13
115 10
117 7
118 5
119 8
120 2.5
129 10
130 1.5
140 29
141 17
142 15
143 2
167 25
168 68
169 15
195 10
196 99.99
197 13.5
198 2.5
199 1

$$$$

     RDKit          2D

 14 16  0  0  0  0  0  0  0  0999 V2000
    3.0600    2.2000    0.0000 C   0  0  0  0  0  0  0  0  0  0  0  0
    1.7600    2.9500    0.0000 C   0  0  0  0  0  0  0  0  0  0  0  0
   -3.4300   -1.5500    0.0000 C   0  0  0  0  0  0  0  0  0  0  0  0
    3.0600    0.7000    0.0000 C   0  0  0  0  0  0  0  0  0  0  0  0
   -2.1300   -2.3000    0.0000 C   0  0  0  0  0  0  0  0  0  0  0  0
    0.4600    2.2000    0.0000 C   0  0  0  0  0  0  0  0  0  0  0  0
    1.7600   -1.5500    0.0000 C   0  0  0  0  0  0  0  0  0  0  0  0
    0.4600   -2.3000    0.0000 C   0  0  0  0  0  0  0  0  0  0  0  0
   -3.4300   -0.0500    0.0000 C   0  0  0  0  0  0  0  0  0  0  0  0
    1.7600   -0.0500    0.0000 C   0  0  0  0  0  0  0  0  0  0  0  0
   -0.8300   -1.5500    0.0000 C   0  0  0  0  0  0  0  0  0  0  0  0
    0.4600    0.7000    0.0000 C   0  0  0  0  0  0  0  0  0  0  0  0
   -0.8300   -0.0500    0.0000 C   0  0  0  0  0  0  0  0  0  0  0  0
   -2.1300    0.7000    0.0000 N   0  0  0  0  0  0  0  0  0  0  0  0
  2  1  2  0
  4  1  1  0
  5  3  2  0
  6  2  1  0
  8  7  2  0
  9  3  1  0
 10  4  2  0
 10  7  1  0
 11  5  1  0
 11  8  1  0
 12  6  2  0
 12 10  1  0
 13 11  2  0
 13 12  1  0
 14  9  2  0
 14 13  1  0
M  END
>  <NAME>  (1873) 
BENZO(H)QUINOLINE

>  <SYNONYMS>  (1873) 
ALPHA-NAPHTHOQUINOLINE

>  <SPECTRUM TYPE>  (1873) 
MS1

>  <INSTRUMENT TYPE>  (1873) 
EI-B

>  <INSTRUMENT>  (1873) 
HITACHI RMU-7L

>  <ION MODE>  (1873) 
P

>  <INCHIKEY>  (1873) 
WZJYKHNJTSNBHV-UHFFFAOYSA-N

>  <FORMULA>  (1873) 
C13H9N

>  <EXACT MASS>  (1873) 
179.073499288

>  <MW>  (1873) 
179

>  <ID>  (1873) 
JP009459

>  <CONTRIBUTOR>  (1873) 
University of Tokyo Team, {Faculty of Engineering, University of Tokyo

>  <COMMENT>  (1873) 
SMILES=c(c3)cc(c1)c(c3)c(n2)c(ccc2)c1
InChI=InChI=1S/C13H9N/c1-2-6-12-10(4-1)7-8-11-5-3-9-14-13(11)12/h1-9H
computed SMILES=N=1C=CC=C2C=CC=3C=CC=CC3C12
accession=JP009459
date=2016.01.19 (Created 2008.10.21, modified 2011.05.06)
author=EGUCHI S, FAC. OF SCIENCE, HIROSHIMA UNIV.
license=CC BY-NC-SA
exact mass=179.0735
ionization energy=70 eV
ion type=[M]+*
computed spectral entropy=2.647852584913858
computed normalized entropy=0.7227536590550265
SPLASH=splash10-004i-2900000000-0bdb468c2213d1504abd
submitter=submitter = University of Tokyo Team (Faculty of Engineering, University of Tokyo)
MoNA Rating=3.75

>  <NUM PEAKS>  (1873) 
39

>  <MASS SPECTRAL PEAKS>  (1873) 
50 4.2
51 4.3
52 1.6
61 1
62 2.7
63 7.5
74 3.8
75 7.5
76 9
77 2.6
86 1.5
87 1.9
88 1.2
89 7.9
90 2
98 1.6
99 2.1
100 1.7
101 1.8
102 1.6
124 1
125 2.4
126 3.9
127 1.8
128 1.7
139 1.5
140 1.1
149 1.2
150 6.1
151 9.7
152 7.5
153 6
154 1
176 1.4
177 4.7
178 20.6
179 99.99
180 17.6
181 1

$$$$

     RDKit          2D

 14 16  0  0  0  0  0  0  0  0999 V2000
    3.9000    0.7500    0.0000 C   0  0  0  0  0  0  0  0  0  0  0  0
   -3.9000    0.7500    0.0000 C   0  0  0  0  0  0  0  0  0  0  0  0
    3.9000   -0.7500    0.0000 C   0  0  0  0  0  0  0  0  0  0  0  0
   -3.9000   -0.7500    0.0000 C   0  0  0  0  0  0  0  0  0  0  0  0
    2.6000    1.5000    0.0000 C   0  0  0  0  0  0  0  0  0  0  0  0
   -2.6000    1.5000    0.0000 C   0  0  0  0  0  0  0  0  0  0  0  0
    2.6000   -1.5000    0.0000 C   0  0  0  0  0  0  0  0  0  0  0  0
   -2.6000   -1.5000    0.0000 C   0  0  0  0  0  0  0  0  0  0  0  0
    0.0000    1.5000    0.0000 C   0  0  0  0  0  0  0  0  0  0  0  0
    1.3000    0.7500    0.0000 C   0  0  0  0  0  0  0  0  0  0  0  0
   -1.3000    0.7500    0.0000 C   0  0  0  0  0  0  0  0  0  0  0  0
    1.3000   -0.7500    0.0000 C   0  0  0  0  0  0  0  0  0  0  0  0
   -1.3000   -0.7500    0.0000 C   0  0  0  0  0  0  0  0  0  0  0  0
    0.0000   -1.5000    0.0000 N   0  0  0  0  0  0  0  0  0  0  0  0
  3  1  2  0
  4  2  1  0
  5  1  1  0
  6  2  2  0
  7  3  1  0
  8  4  2  0
 10  5  2  0
 10  9  1  0
 11  6  1  0
 11  9  2  0
 12  7  2  0
 12 10  1  0
 13  8  1  0
 13 11  1  0
 14 12  1  0
 14 13  2  0
M  END
>  <NAME>  (1874) 
ACRIDINE

>  <SYNONYMS>  (1874) 


>  <SPECTRUM TYPE>  (1874) 
MS1

>  <INSTRUMENT TYPE>  (1874) 
EI-B

>  <INSTRUMENT>  (1874) 
HITACHI RMU-7L

>  <ION MODE>  (1874) 
P

>  <INCHIKEY>  (1874) 
DZBUGLKDJFMEHC-UHFFFAOYSA-N

>  <FORMULA>  (1874) 
C13H9N

>  <EXACT MASS>  (1874) 
179.073499288

>  <MW>  (1874) 
179

>  <ID>  (1874) 
JP009458

>  <CONTRIBUTOR>  (1874) 
University of Tokyo Team, {Faculty of Engineering, University of Tokyo

>  <COMMENT>  (1874) 
SMILES=c(c3)cc(c1)c(c3)nc(c2)c(ccc2)1
InChI=InChI=1S/C13H9N/c1-3-7-12-10(5-1)9-11-6-2-4-8-13(11)14-12/h1-9H
computed SMILES=N=1C=2C=CC=CC2C=C3C=CC=CC13
accession=JP009458
date=2016.01.19 (Created 2008.10.21, modified 2011.05.06)
author=EGUCHI S, FAC. OF SCIENCE, HIROSHIMA UNIV.
license=CC BY-NC-SA
exact mass=179.0735
ionization energy=70 eV
ion type=[M]+*
computed spectral entropy=3.520653774249452
computed normalized entropy=0.8670614918384664
SPLASH=splash10-0fb9-7900000000-21c7ab90106cbfed50b1
submitter=submitter = University of Tokyo Team (Faculty of Engineering, University of Tokyo)
MoNA Rating=3.75

>  <NUM PEAKS>  (1874) 
58

>  <MASS SPECTRAL PEAKS>  (1874) 
50 37.5
51 24.5
52 10.5
53 2
61 6.5
62 15.5
63 31.5
64 9.5
65 5
73 2.5
74 39.5
75 25.5
76 24.5
77 14
78 7.5
87 13.5
88 7.5
89 1.5
90 4.5
91 3
98 13.5
99 14
100 13.5
101 13
102 10.5
103 8
104 3.5
105 1
111 4
112 1.5
113 8
114 4.5
122 3
123 2
124 1.5
125 4
126 16
127 9
128 7.5
129 2
131 1.5
137 2
139 3
140 7.5
149 1.5
150 12.5
151 27.5
152 30.5
153 15
154 3
162 2
163 0.5
175 1
176 2
177 7
178 17.5
179 99.99
180 15

$$$$

     RDKit          2D

 14 16  0  0  0  0  0  0  0  0999 V2000
   -3.9000    0.7500    0.0000 C   0  0  0  0  0  0  0  0  0  0  0  0
   -3.9000   -0.7500    0.0000 C   0  0  0  0  0  0  0  0  0  0  0  0
    3.9000    0.7500    0.0000 C   0  0  0  0  0  0  0  0  0  0  0  0
    3.9000   -0.7500    0.0000 C   0  0  0  0  0  0  0  0  0  0  0  0
   -2.6000    1.5000    0.0000 C   0  0  0  0  0  0  0  0  0  0  0  0
   -2.6000   -1.5000    0.0000 C   0  0  0  0  0  0  0  0  0  0  0  0
    2.6000    1.5000    0.0000 C   0  0  0  0  0  0  0  0  0  0  0  0
    2.6000   -1.5000    0.0000 C   0  0  0  0  0  0  0  0  0  0  0  0
   -1.3000    0.7500    0.0000 C   0  0  0  0  0  0  0  0  0  0  0  0
   -1.3000   -0.7500    0.0000 C   0  0  0  0  0  0  0  0  0  0  0  0
    1.3000    0.7500    0.0000 C   0  0  0  0  0  0  0  0  0  0  0  0
    1.3000   -0.7500    0.0000 C   0  0  0  0  0  0  0  0  0  0  0  0
    0.0000    1.5000    0.0000 N   0  0  0  0  0  0  0  0  0  0  0  0
    0.0000   -1.5000    0.0000 N   0  0  0  0  0  0  0  0  0  0  0  0
  2  1  2  0
  4  3  1  0
  5  1  1  0
  6  2  1  0
  7  3  2  0
  8  4  2  0
  9  5  2  0
 10  6  2  0
 10  9  1  0
 11  7  1  0
 12  8  1  0
 12 11  1  0
 13  9  1  0
 13 11  2  0
 14 10  1  0
 14 12  2  0
M  END
>  <NAME>  (1875) 
PHENAZINE

>  <SYNONYMS>  (1875) 


>  <SPECTRUM TYPE>  (1875) 
MS1

>  <INSTRUMENT TYPE>  (1875) 
EI-B

>  <INSTRUMENT>  (1875) 
HITACHI RMU-7L

>  <ION MODE>  (1875) 
P

>  <INCHIKEY>  (1875) 
PCNDJXKNXGMECE-UHFFFAOYSA-N

>  <FORMULA>  (1875) 
C12H8N2

>  <EXACT MASS>  (1875) 
180.068748256

>  <MW>  (1875) 
180

>  <ID>  (1875) 
JP009457

>  <CONTRIBUTOR>  (1875) 
University of Tokyo Team, {Faculty of Engineering, University of Tokyo

>  <COMMENT>  (1875) 
SMILES=c(c3)cc(n1)c(c3)nc(c2)c(ccc2)1
InChI=InChI=1S/C12H8N2/c1-2-6-10-9(5-1)13-11-7-3-4-8-12(11)14-10/h1-8H
computed SMILES=N=1C2=CC=CC=C2N=C3C=CC=CC13
accession=JP009457
date=2016.01.19 (Created 2008.10.21, modified 2011.05.06)
author=EGUCHI S, FAC. OF SCIENCE, HIROSHIMA UNIV.
license=CC BY-NC-SA
exact mass=180.06875
ionization energy=70 eV
ion type=[M]+*
computed spectral entropy=2.6400683938854046
computed normalized entropy=0.7063407586831956
SPLASH=splash10-001i-3900000000-d81dcdb5d23bd5bbc493
submitter=submitter = University of Tokyo Team (Faculty of Engineering, University of Tokyo)
MoNA Rating=3.75

>  <NUM PEAKS>  (1875) 
42

>  <MASS SPECTRAL PEAKS>  (1875) 
50 12.5
51 7
52 4.5
53 0.5
61 2
62 2.5
63 3.5
64 3
73 1.5
74 3
75 5
76 6.5
77 3.5
78 1.5
87 0.5
88 0.5
89 0.5
90 6.5
99 1
100 1.5
101 1.5
102 4
103 3
125 1.5
126 2.5
127 2.5
128 3
129 3.5
140 1.5
149 1
150 0.5
151 1.5
152 5.5
153 8
154 5.5
155 0.5
165 0.5
178 1.5
179 25
180 99.99
181 13.5
182 2

$$$$

     RDKit          2D

 12 12  0  0  0  0  0  0  0  0999 V2000
   -5.5207    3.1321    0.0000 C   0  0  0  0  0  0  0  0  0  0  0  0
    3.5726    0.8821    0.0000 C   0  0  0  0  0  0  0  0  0  0  0  0
    3.5731    2.3829    0.0000 C   0  0  0  0  0  0  0  0  0  0  0  0
    2.2731    0.1313    0.0000 C   0  0  0  0  0  0  0  0  0  0  0  0
    2.2740    3.1329    0.0000 C   0  0  0  0  0  0  0  0  0  0  0  0
    0.9740    0.8813    0.0000 C   0  0  0  0  0  0  0  0  0  0  0  0
   -0.3245    3.1321    0.0000 C   0  0  0  0  0  0  0  0  0  0  0  0
   -1.6236    2.3821    0.0000 C   0  0  0  0  0  0  0  0  0  0  0  0
    0.9745    2.3821    0.0000 C   0  0  0  0  0  0  0  0  0  0  0  0
   -2.9226    3.1321    0.0000 C   0  0  0  0  0  0  0  0  0  0  0  0
   -2.9226    4.6321    0.0000 O   0  0  0  0  0  0  0  0  0  0  0  0
   -4.2216    2.3821    0.0000 O   0  0  0  0  0  0  0  0  0  0  0  0
  3  2  2  0
  4  2  1  0
  5  3  1  0
  6  4  2  0
  7  8  2  0
  9  5  2  0
  9  6  1  0
  9  7  1  0
 10  8  1  0
 11 10  2  0
 12  1  1  0
 12 10  1  0
M  END
>  <NAME>  (1876) 
METHYL CINNAMATE

>  <SYNONYMS>  (1876) 


>  <SPECTRUM TYPE>  (1876) 
MS1

>  <INSTRUMENT TYPE>  (1876) 
EI-B

>  <INSTRUMENT>  (1876) 
HITACHI RMU-7L

>  <ION MODE>  (1876) 
P

>  <INCHIKEY>  (1876) 
CCRCUPLGCSFEDV-BQYQJAHWSA-N

>  <FORMULA>  (1876) 
C10H10O2

>  <EXACT MASS>  (1876) 
162.06807956

>  <MW>  (1876) 
162

>  <ID>  (1876) 
JP009456

>  <CONTRIBUTOR>  (1876) 
University of Tokyo Team, {Faculty of Engineering, University of Tokyo

>  <COMMENT>  (1876) 
SMILES=COC(=O)C=Cc(c1)cccc1
InChI=InChI=1S/C10H10O2/c1-12-10(11)8-7-9-5-3-2-4-6-9/h2-8H,1H3/b8-7+
computed SMILES=O=C(OC)C=CC=1C=CC=CC1
license=CC BY-NC-SA
exact mass=162.06808
accession=JP009456
date=2016.01.19 (Created 2008.10.21, modified 2011.05.06)
author=EGUCHI S, FAC. OF SCIENCE, HIROSHIMA UNIV.
ionization energy=70 eV
ion type=[M]+*
computed spectral entropy=3.0545713430495454
computed normalized entropy=0.7555114048023357
SPLASH=splash10-0udi-7900000000-4a3d59402d4046246f21
submitter=submitter = University of Tokyo Team (Faculty of Engineering, University of Tokyo)
MoNA Rating=3.75

>  <NUM PEAKS>  (1876) 
57

>  <MASS SPECTRAL PEAKS>  (1876) 
40 3.5
41 1.5
50 26
51 56
52 11
53 3.5
59 2.5
61 2
62 5.5
63 12.5
64 2
65 3.5
66 1
67 1
69 1.5
73 1.5
74 10
75 11.5
76 16.5
77 61.5
78 7.5
79 1.5
85 2.5
86 1.5
87 2
89 2.5
90 3
91 8
92 2.5
98 2
99 1.5
101 3
102 27
103 89
104 15
105 2.5
106 1
107 1.5
115 2
116 2.5
117 4
118 2.5
119 2
121 2.55
129 1.5
130 2.5
131 99.99
132 11
133 1.5
134 2
144 2
145 1
146 1
147 2.5
161 12
162 38
163 4

$$$$

     RDKit          2D

 13 13  0  0  0  0  0  0  0  0999 V2000
   -6.8197    3.1321    0.0000 C   0  0  0  0  0  0  0  0  0  0  0  0
   -5.5207    3.8821    0.0000 C   0  0  0  0  0  0  0  0  0  0  0  0
    3.5726    1.6321    0.0000 C   0  0  0  0  0  0  0  0  0  0  0  0
    3.5731    3.1329    0.0000 C   0  0  0  0  0  0  0  0  0  0  0  0
    2.2731    0.8813    0.0000 C   0  0  0  0  0  0  0  0  0  0  0  0
    2.2740    3.8829    0.0000 C   0  0  0  0  0  0  0  0  0  0  0  0
    0.9740    1.6313    0.0000 C   0  0  0  0  0  0  0  0  0  0  0  0
   -0.3245    3.8821    0.0000 C   0  0  0  0  0  0  0  0  0  0  0  0
   -1.6236    3.1321    0.0000 C   0  0  0  0  0  0  0  0  0  0  0  0
    0.9745    3.1321    0.0000 C   0  0  0  0  0  0  0  0  0  0  0  0
   -2.9226    3.8821    0.0000 C   0  0  0  0  0  0  0  0  0  0  0  0
   -2.9226    5.3821    0.0000 O   0  0  0  0  0  0  0  0  0  0  0  0
   -4.2216    3.1321    0.0000 O   0  0  0  0  0  0  0  0  0  0  0  0
  2  1  1  0
  4  3  2  0
  5  3  1  0
  6  4  1  0
  7  5  2  0
  8  9  2  0
 10  6  2  0
 10  7  1  0
 10  8  1  0
 11  9  1  0
 12 11  2  0
 13  2  1  0
 13 11  1  0
M  END
>  <NAME>  (1877) 
ETHYL CINNAMATE

>  <SYNONYMS>  (1877) 


>  <SPECTRUM TYPE>  (1877) 
MS1

>  <INSTRUMENT TYPE>  (1877) 
EI-B

>  <INSTRUMENT>  (1877) 
HITACHI RMU-7L

>  <ION MODE>  (1877) 
P

>  <INCHIKEY>  (1877) 
KBEBGUQPQBELIU-CMDGGOBGSA-N

>  <FORMULA>  (1877) 
C11H12O2

>  <EXACT MASS>  (1877) 
176.083729624

>  <MW>  (1877) 
176

>  <ID>  (1877) 
JP009455

>  <CONTRIBUTOR>  (1877) 
University of Tokyo Team, {Faculty of Engineering, University of Tokyo

>  <COMMENT>  (1877) 
SMILES=CCOC(=O)C=Cc(c1)cccc1
InChI=InChI=1S/C11H12O2/c1-2-13-11(12)9-8-10-6-4-3-5-7-10/h3-9H,2H2,1H3/b9-8+
computed SMILES=O=C(OCC)C=CC=1C=CC=CC1
date=2016.01.19 (Created 2008.10.21, modified 2011.05.06)
author=EGUCHI S, FAC. OF SCIENCE, HIROSHIMA UNIV.
license=CC BY-NC-SA
accession=JP009455
exact mass=176.08373
ionization energy=70 eV
ion type=[M]+*
computed spectral entropy=3.273818416973976
computed normalized entropy=0.775876866620709
SPLASH=splash10-0udi-9800000000-37cf39cf9d251824252b
submitter=submitter = University of Tokyo Team (Faculty of Engineering, University of Tokyo)
MoNA Rating=3.75

>  <NUM PEAKS>  (1877) 
68

>  <MASS SPECTRAL PEAKS>  (1877) 
40 1.5
41 3
42 2
43 4.5
44 1.5
45 2
49 1.5
50 37.5
51 68
52 12
53 5.5
54 1.5
55 2.5
57 1.5
61 1.5
62 7.5
63 19.5
64 4
65 5.5
66 2
69 4.5
71 1.5
73 2.5
74 12.5
75 16.5
76 27.5
77 82
78 16.5
79 3.5
86 1.5
87 2
88 1.5
89 3
90 2
91 15
92 3.5
93 1.5
94 1.5
97 2.5
99 1.5
101 5
102 42
103 88.5
104 41.5
105 5
106 1.5
107 2
115 2.5
116 1.5
117 2
118 1.5
119 2
120 4.5
121 1.5
129 2.5
130 7.5
131 99.99
132 12
133 2.5
135 1.5
147 17
148 17.5
149 1.5
158 2.5
161 1.5
175 2.5
176 14
177 3

$$$$

     RDKit          2D

 19 20  0  0  0  0  0  0  0  0999 V2000
   -9.0933    7.0700    0.0000 C   0  0  0  0  0  0  0  0  0  0  0  0
    5.1962    3.3200    0.0000 C   0  0  0  0  0  0  0  0  0  0  0  0
   -9.0937    5.5692    0.0000 C   0  0  0  0  0  0  0  0  0  0  0  0
   -7.7937    7.8208    0.0000 C   0  0  0  0  0  0  0  0  0  0  0  0
    5.1966    4.8208    0.0000 C   0  0  0  0  0  0  0  0  0  0  0  0
    3.8966    2.5692    0.0000 C   0  0  0  0  0  0  0  0  0  0  0  0
   -7.7947    4.8192    0.0000 C   0  0  0  0  0  0  0  0  0  0  0  0
   -6.4947    7.0708    0.0000 C   0  0  0  0  0  0  0  0  0  0  0  0
    3.8976    5.5708    0.0000 C   0  0  0  0  0  0  0  0  0  0  0  0
    2.5976    3.3192    0.0000 C   0  0  0  0  0  0  0  0  0  0  0  0
   -5.1962    4.8200    0.0000 C   0  0  0  0  0  0  0  0  0  0  0  0
   -3.8971    5.5700    0.0000 C   0  0  0  0  0  0  0  0  0  0  0  0
    1.2990    5.5700    0.0000 C   0  0  0  0  0  0  0  0  0  0  0  0
    0.0000    4.8200    0.0000 C   0  0  0  0  0  0  0  0  0  0  0  0
   -6.4952    5.5700    0.0000 C   0  0  0  0  0  0  0  0  0  0  0  0
    2.5981    4.8200    0.0000 C   0  0  0  0  0  0  0  0  0  0  0  0
   -2.5981    4.8200    0.0000 C   0  0  0  0  0  0  0  0  0  0  0  0
   -2.5981    3.3200    0.0000 O   0  0  0  0  0  0  0  0  0  0  0  0
   -1.2990    5.5700    0.0000 O   0  0  0  0  0  0  0  0  0  0  0  0
  3  1  2  0
  4  1  1  0
  5  2  2  0
  6  2  1  0
  7  3  1  0
  8  4  2  0
  9  5  1  0
 10  6  2  0
 11 12  2  0
 14 13  1  0
 15  7  2  0
 15  8  1  0
 15 11  1  0
 16  9  2  0
 16 10  1  0
 16 13  1  0
 17 12  1  0
 18 17  2  0
 19 14  1  0
 19 17  1  0
M  END
>  <NAME>  (1878) 
BETA-PHENYLETHYL CINNAMATE

>  <SYNONYMS>  (1878) 


>  <SPECTRUM TYPE>  (1878) 
MS1

>  <INSTRUMENT TYPE>  (1878) 
EI-B

>  <INSTRUMENT>  (1878) 
HITACHI RMU-7L

>  <ION MODE>  (1878) 
P

>  <INCHIKEY>  (1878) 
MJQVZIANGRDJBT-VAWYXSNFSA-N

>  <FORMULA>  (1878) 
C17H16O2

>  <EXACT MASS>  (1878) 
252.115029752

>  <MW>  (1878) 
252

>  <ID>  (1878) 
JP009454

>  <CONTRIBUTOR>  (1878) 
University of Tokyo Team, {Faculty of Engineering, University of Tokyo

>  <COMMENT>  (1878) 
SMILES=O=C(OCCc(c2)cccc2)C=Cc(c1)cccc1
InChI=InChI=1S/C17H16O2/c18-17(12-11-15-7-3-1-4-8-15)19-14-13-16-9-5-2-6-10-16/h1-12H,13-14H2/b12-11+
computed SMILES=O=C(OCCC=1C=CC=CC1)C=CC=2C=CC=CC2
accession=JP009454
date=2016.01.19 (Created 2008.10.21, modified 2011.05.06)
author=EGUCHI S, FAC. OF SCIENCE, HIROSHIMA UNIV.
license=CC BY-NC-SA
exact mass=252.11503
ionization energy=70 eV
ion type=[M]+*
computed spectral entropy=2.038410105551124
computed normalized entropy=0.6501080739347103
SPLASH=splash10-0udi-2900000000-1720b7e3472ad3e02bd8
submitter=submitter = University of Tokyo Team (Faculty of Engineering, University of Tokyo)
MoNA Rating=3.75

>  <NUM PEAKS>  (1878) 
23

>  <MASS SPECTRAL PEAKS>  (1878) 
40 2
41 6
42 1
63 1
65 4
76 3
77 14.5
78 5
79 1.5
89 1
91 5
92 1
102 5
103 27
104 99.99
105 9
131 30.5
132 1
147 2
148 1
206 2
234 1
252 2

$$$$

     RDKit          2D

 13 14  0  0  0  0  0  0  0  0999 V2000
    3.8989   -1.5002    0.0000 C   0  0  0  0  0  0  0  0  0  0  0  0
    3.8989    1.5002    0.0000 C   0  0  0  0  0  0  0  0  0  0  0  0
   -2.6000   -0.7500    0.0000 C   0  0  0  0  0  0  0  0  0  0  0  0
   -2.6000    0.7500    0.0000 C   0  0  0  0  0  0  0  0  0  0  0  0
   -1.3000   -1.5000    0.0000 C   0  0  0  0  0  0  0  0  0  0  0  0
   -1.3000    1.5000    0.0000 C   0  0  0  0  0  0  0  0  0  0  0  0
    2.6000   -0.7500    0.0000 C   0  0  0  0  0  0  0  0  0  0  0  0
    2.6000    0.7500    0.0000 C   0  0  0  0  0  0  0  0  0  0  0  0
    0.0000   -0.7500    0.0000 C   0  0  0  0  0  0  0  0  0  0  0  0
    0.0000    0.7500    0.0000 C   0  0  0  0  0  0  0  0  0  0  0  0
    1.3000   -1.5000    0.0000 C   0  0  0  0  0  0  0  0  0  0  0  0
    1.3000   -3.0000    0.0000 O   0  0  0  0  0  0  0  0  0  0  0  0
    1.3000    1.5000    0.0000 S   0  0  0  0  0  0  0  0  0  0  0  0
  4  3  2  0
  5  3  1  0
  6  4  1  0
  7  1  1  0
  8  2  1  0
  8  7  2  0
  9  5  2  0
 10  6  2  0
 10  9  1  0
 11  7  1  0
 11  9  1  0
 12 11  2  0
 13  8  1  0
 13 10  1  0
M  END
>  <NAME>  (1879) 
2,3-DIMETHYLCHROMOTHIONE

>  <SYNONYMS>  (1879) 


>  <SPECTRUM TYPE>  (1879) 
MS1

>  <INSTRUMENT TYPE>  (1879) 
EI-B

>  <INSTRUMENT>  (1879) 
HITACHI RMU-7L

>  <ION MODE>  (1879) 
P

>  <INCHIKEY>  (1879) 
MBMJRWSFDYUTRL-UHFFFAOYSA-N

>  <FORMULA>  (1879) 
C11H10OS

>  <EXACT MASS>  (1879) 
190.04523594

>  <MW>  (1879) 
190

>  <ID>  (1879) 
JP009441

>  <CONTRIBUTOR>  (1879) 
University of Tokyo Team, {Faculty of Engineering, University of Tokyo

>  <COMMENT>  (1879) 
SMILES=CC(S1)=C(C)C(=O)c(c2)c(ccc2)1
InChI=InChI=1S/C11H10OS/c1-7-8(2)13-10-6-4-3-5-9(10)11(7)12/h3-6H,1-2H3
computed SMILES=O=C1C=2C=CC=CC2SC(=C1C)C
accession=JP009441
date=2016.01.19 (Created 2008.10.21, modified 2011.05.06)
author=EGUCHI S, FAC. OF SCIENCE, HIROSHIMA UNIV.
license=CC BY-NC-SA
exact mass=190.04524
ionization energy=70 eV
ion type=[M]+*
computed spectral entropy=3.6741053480719326
computed normalized entropy=0.7743220026498681
SPLASH=splash10-0006-3900000000-b4715fa309ee6ec667ac
submitter=submitter = University of Tokyo Team (Faculty of Engineering, University of Tokyo)
MoNA Rating=3.75

>  <NUM PEAKS>  (1879) 
115

>  <MASS SPECTRAL PEAKS>  (1879) 
40 1
41 2
42 1
43 11
44 1
45 4
46 1
47 1.5
49 1
50 2
51 4
52 1
53 3
54 1
55 1
56 1
57 1
58 1
59 1.5
60 1
61 1
62 1.5
63 4.5
64 1.5
65 3
66 1
67 1.5
68 1
71 1.5
72 1
73 1.5
74 2
75 2.5
76 4.5
77 5
78 1.5
79 1
81 1
82 1.5
83 1.1
84 1
85 1
86 1
87 2
88 1
89 2
91 2.5
92 1
93 1
94 1
95 4.5
96 1
97 6
98 1
99 1
101 1
102 2
103 2.5
104 1
105 1.5
106 1.5
107 1
108 3.5
109 1
111 1
112 1
113 1
114 1.5
115 3.5
116 1
117 1.5
118 1
119 1
121 1
122 2.5
123 1
124 1
125 1
126 1.5
127 3.5
128 5.5
129 4.5
130 1.5
131 6.5
132 2
133 1
134 1
135 1
139 1.5
140 1
141 1
142 1.5
143 1
144 3.5
145 6
146 2
147 5
148 5
149 1
155 1
156 1.5
157 38
158 4
159 1
173 1
174 1
175 7
176 1.5
177 1
188 1
189 24.5
190 99.99
191 15.5
192 7.5
193 1.5

$$$$

     RDKit          2D

 13 14  0  0  0  0  0  0  0  0999 V2000
    3.8989   -1.5002    0.0000 C   0  0  0  0  0  0  0  0  0  0  0  0
    3.8989    1.5002    0.0000 C   0  0  0  0  0  0  0  0  0  0  0  0
   -2.6000   -0.7500    0.0000 C   0  0  0  0  0  0  0  0  0  0  0  0
   -2.6000    0.7500    0.0000 C   0  0  0  0  0  0  0  0  0  0  0  0
   -1.3000   -1.5000    0.0000 C   0  0  0  0  0  0  0  0  0  0  0  0
   -1.3000    1.5000    0.0000 C   0  0  0  0  0  0  0  0  0  0  0  0
    2.6000   -0.7500    0.0000 C   0  0  0  0  0  0  0  0  0  0  0  0
    2.6000    0.7500    0.0000 C   0  0  0  0  0  0  0  0  0  0  0  0
    0.0000   -0.7500    0.0000 C   0  0  0  0  0  0  0  0  0  0  0  0
    0.0000    0.7500    0.0000 C   0  0  0  0  0  0  0  0  0  0  0  0
    1.3000   -1.5000    0.0000 C   0  0  0  0  0  0  0  0  0  0  0  0
    1.3000   -3.0000    0.0000 S   0  0  0  0  0  0  0  0  0  0  0  0
    1.3000    1.5000    0.0000 S   0  0  0  0  0  0  0  0  0  0  0  0
  4  3  2  0
  5  3  1  0
  6  4  1  0
  7  1  1  0
  8  2  1  0
  8  7  2  0
  9  5  2  0
 10  6  2  0
 10  9  1  0
 11  7  1  0
 11  9  1  0
 12 11  2  0
 13  8  1  0
 13 10  1  0
M  END
>  <NAME>  (1880) 
2,3-DIMETHYLTHIOCHROMOTHIONE

>  <SYNONYMS>  (1880) 


>  <SPECTRUM TYPE>  (1880) 
MS1

>  <INSTRUMENT TYPE>  (1880) 
EI-B

>  <INSTRUMENT>  (1880) 
HITACHI RMU-7L

>  <ION MODE>  (1880) 
P

>  <INCHIKEY>  (1880) 
FRIYENJAXQGJMB-UHFFFAOYSA-N

>  <FORMULA>  (1880) 
C11H10S2

>  <EXACT MASS>  (1880) 
206.02239232

>  <MW>  (1880) 
206

>  <ID>  (1880) 
JP009440

>  <CONTRIBUTOR>  (1880) 
University of Tokyo Team, {Faculty of Engineering, University of Tokyo

>  <COMMENT>  (1880) 
SMILES=CC(S1)=C(C)C(=S)c(c2)c(ccc2)1
InChI=InChI=1S/C11H10S2/c1-7-8(2)13-10-6-4-3-5-9(10)11(7)12/h3-6H,1-2H3
computed SMILES=S=C1C=2C=CC=CC2SC(=C1C)C
accession=JP009440
date=2016.01.19 (Created 2008.10.21, modified 2011.05.06)
author=EGUCHI S, FAC. OF SCIENCE, HIROSHIMA UNIV.
license=CC BY-NC-SA
exact mass=206.02239
ionization energy=70 eV
ion type=[M]+*
computed spectral entropy=3.966341805872253
computed normalized entropy=0.8073723675132504
SPLASH=splash10-0a4i-4950000000-2d9d1d9524d76ddc7e1e
submitter=submitter = University of Tokyo Team (Faculty of Engineering, University of Tokyo)
MoNA Rating=3.75

>  <NUM PEAKS>  (1880) 
136

>  <MASS SPECTRAL PEAKS>  (1880) 
41 2
42 1
43 1.5
44 1
45 12.5
46 1
47 1.5
50 3
51 6
52 1
53 2.5
54 1
55 1
56 1
57 1.5
58 2
59 6
60 1
61 1.5
62 2.5
63 3
64 1
65 1.5
66 1
67 1
68 1
69 8
70 1
71 1.5
72 1
73 1
74 2
75 2.5
76 2
77 7
78 1
79 1
80 1
81 1.5
82 2.5
83 1
84 1
85 1.5
86 2
87 2
88 1.5
89 3
90 1
91 1
92 1.5
93 3.5
94 1
95 2
96 1
97 1.5
99 1
100 1.5
101 1.5
102 2.5
103 2
104 1
105 1.5
106 1
107 1
108 8
109 1.5
110 1
111 1
112 1
113 1.5
114 2.5
115 6
116 1
117 1
118 1
119 1
121 2.5
122 1
123 1
125 1
126 1.5
127 3.5
128 7.5
129 9.5
130 1
131 1
132 1.5
133 1
134 2
135 1
136 1
137 1
139 2.5
140 1
141 2
142 1
143 1
145 2.5
146 2
147 14
148 3
149 1
151 1
152 1.5
153 2.5
154 1
157 1
158 3
159 1.5
160 9
161 8
162 4
163 1.5
164 1
165 1
169 1
170 1.5
171 9
172 4.5
173 38
174 6
175 2.5
176 1
178 1
179 1.5
190 6.5
191 12.5
192 5.5
193 2
194 1
204 1
205 23
206 99.99
207 15
208 11.5
209 1

$$$$

     RDKit          2D

 12 13  0  0  0  0  0  0  0  0999 V2000
    3.8989    1.5002    0.0000 C   0  0  0  0  0  0  0  0  0  0  0  0
   -2.6000   -0.7500    0.0000 C   0  0  0  0  0  0  0  0  0  0  0  0
   -2.6000    0.7500    0.0000 C   0  0  0  0  0  0  0  0  0  0  0  0
   -1.3000   -1.5000    0.0000 C   0  0  0  0  0  0  0  0  0  0  0  0
   -1.3000    1.5000    0.0000 C   0  0  0  0  0  0  0  0  0  0  0  0
    2.6000   -0.7500    0.0000 C   0  0  0  0  0  0  0  0  0  0  0  0
    2.6000    0.7500    0.0000 C   0  0  0  0  0  0  0  0  0  0  0  0
    0.0000   -0.7500    0.0000 C   0  0  0  0  0  0  0  0  0  0  0  0
    1.3000   -1.5000    0.0000 C   0  0  0  0  0  0  0  0  0  0  0  0
    0.0000    0.7500    0.0000 C   0  0  0  0  0  0  0  0  0  0  0  0
    1.3000   -3.0000    0.0000 S   0  0  0  0  0  0  0  0  0  0  0  0
    1.3000    1.5000    0.0000 S   0  0  0  0  0  0  0  0  0  0  0  0
  3  2  2  0
  4  2  1  0
  5  3  1  0
  7  1  1  0
  7  6  2  0
  8  4  2  0
  9  6  1  0
  9  8  1  0
 10  5  2  0
 10  8  1  0
 11  9  2  0
 12  7  1  0
 12 10  1  0
M  END
>  <NAME>  (1881) 
2-METHYLTHIOCHROMOTHIONE

>  <SYNONYMS>  (1881) 


>  <SPECTRUM TYPE>  (1881) 
MS1

>  <INSTRUMENT TYPE>  (1881) 
EI-B

>  <INSTRUMENT>  (1881) 
HITACHI RMU-7L

>  <ION MODE>  (1881) 
P

>  <INCHIKEY>  (1881) 
OPFHNXXKRKLZGV-UHFFFAOYSA-N

>  <FORMULA>  (1881) 
C10H8S2

>  <EXACT MASS>  (1881) 
192.006742256

>  <MW>  (1881) 
192

>  <ID>  (1881) 
JP009439

>  <CONTRIBUTOR>  (1881) 
University of Tokyo Team, {Faculty of Engineering, University of Tokyo

>  <COMMENT>  (1881) 
SMILES=CC(=C1)Sc(c2)c(ccc2)C(=S)1
InChI=InChI=1S/C10H8S2/c1-7-6-9(11)8-4-2-3-5-10(8)12-7/h2-6H,1H3
computed SMILES=S=C1C=C(SC=2C=CC=CC12)C
accession=JP009439
date=2016.01.19 (Created 2008.10.21, modified 2011.05.06)
author=EGUCHI S, FAC. OF SCIENCE, HIROSHIMA UNIV.
license=CC BY-NC-SA
exact mass=192.00674
ionization energy=70 eV
ion type=[M]+*
computed spectral entropy=4.019125143616745
computed normalized entropy=0.8218483053536494
SPLASH=splash10-0006-4900000000-f1cfa4dbeba1f0d0741b
submitter=submitter = University of Tokyo Team (Faculty of Engineering, University of Tokyo)
MoNA Rating=3.75

>  <NUM PEAKS>  (1881) 
133

>  <MASS SPECTRAL PEAKS>  (1881) 
40 1
41 10
42 2
43 7
44 2
45 11
46 1
47 1
49 1
50 4
51 6
52 2
53 1.5
54 1
55 7
56 1.5
57 5.5
58 4
59 6.5
60 2
61 3.5
62 7
63 9
64 1.5
65 2.5
66 1.5
67 2.5
68 1
69 20
70 1.5
71 2
72 1
73 3
74 6
75 4
76 4
77 2
78 1.5
79 1
80 1
81 4
82 6
83 4
84 2
85 3
86 2.5
87 3
88 2
89 3.5
90 1
91 2
92 1
93 6
94 2
95 2.5
96 3.5
97 1
98 2
99 2
100 1
101 2.5
102 2
103 2.5
104 1
105 1.5
106 1.5
107 2
108 14
109 2
110 1
111 1
112 1
113 2.5
114 3.5
115 13.5
116 3
117 2
118 1
119 2
120 2.5
121 8
122 1
123 1.5
124 1
125 1
126 1.5
127 1.5
128 3.5
129 2
130 1
131 1
132 1.5
133 1.5
134 2.5
135 1
136 1
137 1
138 1
139 1.5
140 1
141 2
143 1
144 1
145 3
146 3
147 36.5
148 14
149 5
150 1
151 1.5
152 3
153 1
154 1
156 1
157 1.5
158 4
159 4
160 2
161 1.5
162 1
165 1.5
166 1
176 1.5
177 9
178 1
179 1
189 1
190 3
191 44
192 99.99
193 14
194 11.5
195 1.5

$$$$

     RDKit          2D

 16 17  0  0  0  0  0  0  0  0999 V2000
    3.8989   -1.5002    0.0000 C   0  0  0  0  0  0  0  0  0  0  0  0
    3.8989    1.5002    0.0000 C   0  0  0  0  0  0  0  0  0  0  0  0
    4.6491    0.2013    0.0000 H   0  0  0  0  0  0  0  0  0  0  0  0
    5.1978    2.2504    0.0000 H   0  0  0  0  0  0  0  0  0  0  0  0
    3.1487    2.7991    0.0000 H   0  0  0  0  0  0  0  0  0  0  0  0
   -2.6000   -0.7500    0.0000 C   0  0  0  0  0  0  0  0  0  0  0  0
   -2.6000    0.7500    0.0000 C   0  0  0  0  0  0  0  0  0  0  0  0
   -1.3000   -1.5000    0.0000 C   0  0  0  0  0  0  0  0  0  0  0  0
   -1.3000    1.5000    0.0000 C   0  0  0  0  0  0  0  0  0  0  0  0
    2.6000   -0.7500    0.0000 C   0  0  0  0  0  0  0  0  0  0  0  0
    2.6000    0.7500    0.0000 C   0  0  0  0  0  0  0  0  0  0  0  0
    0.0000   -0.7500    0.0000 C   0  0  0  0  0  0  0  0  0  0  0  0
    0.0000    0.7500    0.0000 C   0  0  0  0  0  0  0  0  0  0  0  0
    1.3000   -1.5000    0.0000 C   0  0  0  0  0  0  0  0  0  0  0  0
    1.3000   -3.0000    0.0000 O   0  0  0  0  0  0  0  0  0  0  0  0
    1.3000    1.5000    0.0000 S   0  0  0  0  0  0  0  0  0  0  0  0
  2  3  1  0
  2  4  1  0
  2  5  1  0
  7  6  2  0
  8  6  1  0
  9  7  1  0
 10  1  1  0
 11  2  1  0
 11 10  2  0
 12  8  2  0
 13  9  2  0
 13 12  1  0
 14 10  1  0
 14 12  1  0
 15 14  2  0
 16 11  1  0
 16 13  1  0
M  ISO  3   3   2   4   2   5   2
M  END
>  <NAME>  (1882) 
2-TRIDEUTROMETHYL-3-METHYLTHIOCHROMONE

>  <SYNONYMS>  (1882) 


>  <SPECTRUM TYPE>  (1882) 
MS1

>  <INSTRUMENT TYPE>  (1882) 
EI-B

>  <INSTRUMENT>  (1882) 
HITACHI RMU-7L

>  <ION MODE>  (1882) 
P

>  <INCHIKEY>  (1882) 
MBMJRWSFDYUTRL-BMSJAHLVSA-N

>  <FORMULA>  (1882) 
C11H10OS

>  <EXACT MASS>  (1882) 
193.06406617800002

>  <MW>  (1882) 
193

>  <ID>  (1882) 
JP009438

>  <CONTRIBUTOR>  (1882) 
University of Tokyo Team, {Faculty of Engineering, University of Tokyo

>  <COMMENT>  (1882) 
SMILES=[2H]C([2H])([2H])C(S1)=C(C)C(=O)c(c2)c(ccc2)1
InChI=InChI=1S/C11H10OS/c1-7-8(2)13-10-6-4-3-5-9(10)11(7)12/h3-6H,1-2H3/i2D3
computed SMILES=[H]C([H])([H])C=1SC=2C=CC=CC2C(=O)C1C
accession=JP009438
date=2016.01.19 (Created 2008.10.21, modified 2011.05.06)
author=EGUCHI S, FAC. OF SCIENCE, HIROSHIMA UNIV.
license=CC BY-NC-SA
exact mass=190.04524
ionization energy=70 eV
ion type=[M]+*
computed spectral entropy=3.967046971126387
computed normalized entropy=0.8271935426305751
SPLASH=splash10-000f-4900000000-81931f950deefe97a303
submitter=submitter = University of Tokyo Team (Faculty of Engineering, University of Tokyo)
MoNA Rating=3.75

>  <NUM PEAKS>  (1882) 
121

>  <MASS SPECTRAL PEAKS>  (1882) 
40 2
41 3
42 1.5
43 3.5
44 1
45 4
46 1
47 5
48 1
49 3
50 4
51 3
52 1.5
53 2.5
54 1
55 3.5
56 4
57 3
58 3
59 1
60 1
61 1.5
62 3.5
63 6
64 2
65 2.5
66 1.5
67 1
68 1
69 13.5
70 1.5
71 2.5
72 1
73 1.5
74 3
75 3
76 4
77 3.5
78 1.5
79 2
80 1
81 2.5
82 4.5
83 3.5
84 19.5
85 1
86 12
87 1.5
89 3.5
90 1
91 1
92 1.5
93 3
94 2
95 1
96 1.5
97 1.5
98 1
99 1
101 1
102 1.5
103 1.5
104 2
105 2.5
106 1
107 2
108 22
109 6
110 3
111 2.5
112 1
113 1
114 1
115 1.5
116 1.5
117 2
118 2
119 2.5
120 1.5
121 1.5
122 1
123 1
124 1
125 2.5
126 1
127 1
128 1.5
129 2.5
130 4
131 6
132 6
133 1.5
134 1
135 1.5
136 37
137 15
138 6
139 1
140 1
146 1.5
147 7
148 7.5
149 7
150 5.5
151 3
152 1
158 1
159 16
160 26
161 4
162 2
163 4
164 7
165 8
166 3
167 2
191 2
192 11
193 99.99
194 12.5
195 4

$$$$

     RDKit          2D

 13 14  0  0  0  0  0  0  0  0999 V2000
    3.8989   -1.5002    0.0000 C   0  0  0  0  0  0  0  0  0  0  0  0
    3.8989    1.5002    0.0000 C   0  0  0  0  0  0  0  0  0  0  0  0
   -2.6000   -0.7500    0.0000 C   0  0  0  0  0  0  0  0  0  0  0  0
   -2.6000    0.7500    0.0000 C   0  0  0  0  0  0  0  0  0  0  0  0
   -1.3000   -1.5000    0.0000 C   0  0  0  0  0  0  0  0  0  0  0  0
   -1.3000    1.5000    0.0000 C   0  0  0  0  0  0  0  0  0  0  0  0
    2.6000   -0.7500    0.0000 C   0  0  0  0  0  0  0  0  0  0  0  0
    2.6000    0.7500    0.0000 C   0  0  0  0  0  0  0  0  0  0  0  0
    0.0000   -0.7500    0.0000 C   0  0  0  0  0  0  0  0  0  0  0  0
    0.0000    0.7500    0.0000 C   0  0  0  0  0  0  0  0  0  0  0  0
    1.3000   -1.5000    0.0000 C   0  0  0  0  0  0  0  0  0  0  0  0
    1.3000   -3.0000    0.0000 O   0  0  0  0  0  0  0  0  0  0  0  0
    1.3000    1.5000    0.0000 S   0  0  0  0  0  0  0  0  0  0  0  0
  4  3  2  0
  5  3  1  0
  6  4  1  0
  7  1  1  0
  8  2  1  0
  8  7  2  0
  9  5  2  0
 10  6  2  0
 10  9  1  0
 11  7  1  0
 11  9  1  0
 12 11  2  0
 13  8  1  0
 13 10  1  0
M  END
>  <NAME>  (1883) 
2,3-DIMETHYLTHIOCHROMONE

>  <SYNONYMS>  (1883) 


>  <SPECTRUM TYPE>  (1883) 
MS1

>  <INSTRUMENT TYPE>  (1883) 
EI-B

>  <INSTRUMENT>  (1883) 
HITACHI RMU-7L

>  <ION MODE>  (1883) 
P

>  <INCHIKEY>  (1883) 
MBMJRWSFDYUTRL-UHFFFAOYSA-N

>  <FORMULA>  (1883) 
C11H10OS

>  <EXACT MASS>  (1883) 
190.04523594

>  <MW>  (1883) 
190

>  <ID>  (1883) 
JP009437

>  <CONTRIBUTOR>  (1883) 
University of Tokyo Team, {Faculty of Engineering, University of Tokyo

>  <COMMENT>  (1883) 
SMILES=CC(S1)=C(C)C(=O)c(c2)c(ccc2)1
InChI=InChI=1S/C11H10OS/c1-7-8(2)13-10-6-4-3-5-9(10)11(7)12/h3-6H,1-2H3
computed SMILES=O=C1C=2C=CC=CC2SC(=C1C)C
accession=JP009437
date=2016.01.19 (Created 2008.10.21, modified 2011.05.06)
author=EGUCHI S, FAC. OF SCIENCE, HIROSHIMA UNIV.
license=CC BY-NC-SA
exact mass=190.04524
ionization energy=70 eV
ion type=[M]+*
computed spectral entropy=3.900094720658247
computed normalized entropy=0.8175125852288072
SPLASH=splash10-052f-4900000000-8a2688789e3f8621170d
submitter=submitter = University of Tokyo Team (Faculty of Engineering, University of Tokyo)
MoNA Rating=3.75

>  <NUM PEAKS>  (1883) 
118

>  <MASS SPECTRAL PEAKS>  (1883) 
40 1
41 3.5
42 1
43 2.5
44 1.5
45 11
46 2.5
47 1
49 1
50 9.9
51 12.5
52 2.5
53 9
54 2
55 2.5
56 2
57 2.5
58 8
59 5
60 2
61 1
62 3
63 10.5
64 3
65 6
66 1.5
67 2.5
68 1
69 25
70 1.5
71 4
72 1.5
73 2.6
74 4
75 4.5
76 6.5
77 8
78 3
79 1
80 1
81 5
82 10.5
83 3
84 2
85 2
86 2
87 1.5
88 1
89 2.5
90 1
91 3
92 3.5
93 2.5
94 2
95 2.5
96 1.5
97 1
98 1
99 1.5
100 1
101 1.5
102 3
103 2.5
104 1
105 1
106 1.5
107 2
108 29
109 10
110 3
111 1
112 1
113 1.5
114 1
115 6
116 1
117 1.5
118 1
119 1
121 2
123 1
124 1
125 1
126 1.5
127 2
128 12
129 9
130 2
131 1
132 1.5
133 1.5
134 3
135 2.5
136 42.5
137 14.5
138 3
140 1
141 1.5
145 2
146 1
147 31
148 4
149 3
150 1
157 41.5
158 4.5
159 1
160 1.5
161 16
162 10
163 3
164 1.5
165 1.1
189 2.5
190 99.99
191 15
192 7.5
193 1.5

$$$$

     RDKit          2D

 12 13  0  0  0  0  0  0  0  0999 V2000
    3.8989    1.5002    0.0000 C   0  0  0  0  0  0  0  0  0  0  0  0
   -2.6000   -0.7500    0.0000 C   0  0  0  0  0  0  0  0  0  0  0  0
   -2.6000    0.7500    0.0000 C   0  0  0  0  0  0  0  0  0  0  0  0
   -1.3000   -1.5000    0.0000 C   0  0  0  0  0  0  0  0  0  0  0  0
   -1.3000    1.5000    0.0000 C   0  0  0  0  0  0  0  0  0  0  0  0
    2.6000   -0.7500    0.0000 C   0  0  0  0  0  0  0  0  0  0  0  0
    2.6000    0.7500    0.0000 C   0  0  0  0  0  0  0  0  0  0  0  0
    0.0000   -0.7500    0.0000 C   0  0  0  0  0  0  0  0  0  0  0  0
    1.3000   -1.5000    0.0000 C   0  0  0  0  0  0  0  0  0  0  0  0
    0.0000    0.7500    0.0000 C   0  0  0  0  0  0  0  0  0  0  0  0
    1.3000   -3.0000    0.0000 O   0  0  0  0  0  0  0  0  0  0  0  0
    1.3000    1.5000    0.0000 S   0  0  0  0  0  0  0  0  0  0  0  0
  3  2  2  0
  4  2  1  0
  5  3  1  0
  7  1  1  0
  7  6  2  0
  8  4  2  0
  9  6  1  0
  9  8  1  0
 10  5  2  0
 10  8  1  0
 11  9  2  0
 12  7  1  0
 12 10  1  0
M  END
>  <NAME>  (1884) 
2-METHYLTHIOCHROMONE

>  <SYNONYMS>  (1884) 


>  <SPECTRUM TYPE>  (1884) 
MS1

>  <INSTRUMENT TYPE>  (1884) 
EI-B

>  <INSTRUMENT>  (1884) 
HITACHI RMU-7L

>  <ION MODE>  (1884) 
P

>  <INCHIKEY>  (1884) 
MGMTVGPDPYFNAU-UHFFFAOYSA-N

>  <FORMULA>  (1884) 
C10H8OS

>  <EXACT MASS>  (1884) 
176.029585876

>  <MW>  (1884) 
176

>  <ID>  (1884) 
JP009436

>  <CONTRIBUTOR>  (1884) 
University of Tokyo Team, {Faculty of Engineering, University of Tokyo

>  <COMMENT>  (1884) 
SMILES=CC(=C1)Sc(c2)c(ccc2)C(=O)1
InChI=InChI=1S/C10H8OS/c1-7-6-9(11)8-4-2-3-5-10(8)12-7/h2-6H,1H3
computed SMILES=O=C1C=C(SC=2C=CC=CC12)C
accession=JP009436
date=2016.01.19 (Created 2008.10.21, modified 2011.05.06)
author=EGUCHI S, FAC. OF SCIENCE, HIROSHIMA UNIV.
license=CC BY-NC-SA
exact mass=176.02959
ionization energy=70 eV
ion type=[M]+*
computed spectral entropy=3.3230916223985116
computed normalized entropy=0.7673276928610898
SPLASH=splash10-004j-4900000000-78aa01063882d235db86
submitter=submitter = University of Tokyo Team (Faculty of Engineering, University of Tokyo)
MoNA Rating=3.75

>  <NUM PEAKS>  (1884) 
76

>  <MASS SPECTRAL PEAKS>  (1884) 
40 3
41 1
44 1
45 9
46 1
47 1.5
50 7.5
51 6
52 1
53 1.5
57 1.5
58 6
59 2
60 1
61 2.5
62 5
63 10.5
64 3
65 2.5
66 1.5
67 7
68 1
69 26.5
70 1.5
71 5
72 3
73 4.5
74 10.5
75 3
76 5
77 4.5
78 1
81 3
82 7.5
83 1
84 1.5
85 2.5
86 2
87 1
88 1
89 3
90 1
91 1
92 3
93 2.5
94 1
95 1
101 1
102 2
103 3
104 1.5
105 1
106 1
107 2
108 22.5
109 3
110 2.5
115 6
116 1
121 2.5
122 1
135 1
136 33
137 4.5
138 2
145 1
146 2
147 52
148 52.5
149 7.5
150 3
175 1
176 99.99
177 14
178 6.5
179 1

$$$$

     RDKit          2D

 15 17  0  0  0  0  0  0  0  0999 V2000
   -4.2587   -3.2243    0.0000 C   0  0  0  0  0  0  0  0  0  0  0  0
   -4.2587    0.8738    0.0000 C   0  0  0  0  0  0  0  0  0  0  0  0
    1.6875   -1.9252    0.0000 C   0  0  0  0  0  0  0  0  0  0  0  0
    0.3885   -2.6752    0.0000 C   0  0  0  0  0  0  0  0  0  0  0  0
    0.3885    0.3248    0.0000 C   0  0  0  0  0  0  0  0  0  0  0  0
   -4.8077   -1.1752    0.0000 C   0  0  0  0  0  0  0  0  0  0  0  0
    1.6875   -0.4252    0.0000 C   0  0  0  0  0  0  0  0  0  0  0  0
   -0.9106   -1.9252    0.0000 C   0  0  0  0  0  0  0  0  0  0  0  0
   -0.9106   -0.4252    0.0000 C   0  0  0  0  0  0  0  0  0  0  0  0
   -2.2096   -2.6752    0.0000 C   0  0  0  0  0  0  0  0  0  0  0  0
   -3.5087   -1.9252    0.0000 C   0  0  0  0  0  0  0  0  0  0  0  0
   -3.5087   -0.4252    0.0000 C   0  0  0  0  0  0  0  0  0  0  0  0
    2.9865    0.3248    0.0000 Cl  0  0  0  0  0  0  0  0  0  0  0  0
   -2.2096   -4.1752    0.0000 O   0  0  0  0  0  0  0  0  0  0  0  0
   -2.2096    0.3248    0.0000 O   0  0  0  0  0  0  0  0  0  0  0  0
  4  3  2  0
  7  3  1  0
  7  5  2  0
  8  4  1  0
  9  5  1  0
  9  8  2  0
 10  8  1  0
 11  1  1  0
 11  6  1  0
 11 10  1  0
 12  2  1  0
 12  6  1  0
 12 11  1  0
 13  7  1  0
 14 10  2  0
 15  9  1  0
 15 12  1  0
M  END
>  <NAME>  (1885) 
1,6-DIMETHYL-3,4-(5'-CHLOROBENZO)-2-OXABICYCLO(4.1.0)HEPT-3-EN-5-ONE

>  <SYNONYMS>  (1885) 


>  <SPECTRUM TYPE>  (1885) 
MS1

>  <INSTRUMENT TYPE>  (1885) 
EI-B

>  <INSTRUMENT>  (1885) 
HITACHI RMU-7L

>  <ION MODE>  (1885) 
P

>  <INCHIKEY>  (1885) 
JCJUWMGJSYDXDU-UHFFFAOYSA-N

>  <FORMULA>  (1885) 
C12H11ClO2

>  <EXACT MASS>  (1885) 
222.044757272

>  <MW>  (1885) 
222

>  <ID>  (1885) 
JP009435

>  <CONTRIBUTOR>  (1885) 
University of Tokyo Team, {Faculty of Engineering, University of Tokyo

>  <COMMENT>  (1885) 
SMILES=Clc(c3)cc(O1)c(c3)C(=O)C(C)(C2)C(C)12
InChI=InChI=1S/C12H11ClO2/c1-11-6-12(11,2)15-9-5-7(13)3-4-8(9)10(11)14/h3-5H,6H2,1-2H3
computed SMILES=O=C1C2=CC=C(Cl)C=C2OC3(C)CC13C
accession=JP009435
date=2016.01.19 (Created 2008.10.21, modified 2011.05.06)
author=EGUCHI S, FAC. OF SCIENCE, HIROSHIMA UNIV.
license=CC BY-NC-SA
exact mass=222.04476
ionization energy=70 eV
ion type=[M]+*
computed spectral entropy=3.7997126641643226
computed normalized entropy=0.8444163070313686
SPLASH=splash10-05fr-2950000000-a2a67e23442bdd44586f
submitter=submitter = University of Tokyo Team (Faculty of Engineering, University of Tokyo)
MoNA Rating=3.75

>  <NUM PEAKS>  (1885) 
90

>  <MASS SPECTRAL PEAKS>  (1885) 
53 12.5
54 1.5
60 1
62 1.5
63 14
64 1.5
65 5
66 3
67 16
68 1.5
69 4.5
73 2
74 3
75 12.5
76 2.5
80 2
89 2.5
90 1
91 3
97 1.5
98 2
99 7
101 1.5
102 2
110 12
111 3
112 6
113 2
115 10
116 7
117 2
125 2
126 4
127 6
128 24.5
129 3
130 6.5
131 3
132 1
136 2
137 3
138 20
139 2
140 7
141 2
142 1
143 1.5
144 4
145 13.5
146 2.5
154 7
155 56.5
156 7
157 16.5
158 4
159 5
160 3
165 5
166 1.5
167 1
168 1
169 1
177 2
178 4.5
179 32.5
180 12.5
181 10
182 30
183 3
184 8
187 3
188 12.5
189 3
192 1.5
193 12.5
194 3.5
195 4
196 2
197 2
206 2
207 25
208 5
209 12
210 3
211 1
221 14.5
222 99.99
223 31
224 34
225 3

$$$$

     RDKit          2D

 14 16  0  0  0  0  0  0  0  0999 V2000
    1.5000   -0.0000    0.0000 C   0  0  0  0  0  0  0  0  0  0  0  0
   -2.5981    4.5000    0.0000 C   0  0  0  0  0  0  0  0  0  0  0  0
   -1.2990    3.7500    0.0000 C   0  0  0  0  0  0  0  0  0  0  0  0
   -3.8971    2.2500    0.0000 C   0  0  0  0  0  0  0  0  0  0  0  0
   -0.0000   -1.5000    0.0000 C   0  0  0  0  0  0  0  0  0  0  0  0
   -3.8971    3.7500    0.0000 C   0  0  0  0  0  0  0  0  0  0  0  0
   -1.2990    2.2500    0.0000 C   0  0  0  0  0  0  0  0  0  0  0  0
   -2.5981    1.5000    0.0000 C   0  0  0  0  0  0  0  0  0  0  0  0
   -1.2990   -0.7500    0.0000 C   0  0  0  0  0  0  0  0  0  0  0  0
    0.0000    1.5000    0.0000 C   0  0  0  0  0  0  0  0  0  0  0  0
    0.0000    0.0000    0.0000 C   0  0  0  0  0  0  0  0  0  0  0  0
   -5.1962    4.5000    0.0000 Cl  0  0  0  0  0  0  0  0  0  0  0  0
    1.2990    2.2500    0.0000 O   0  0  0  0  0  0  0  0  0  0  0  0
   -2.5981   -0.0000    0.0000 O   0  0  0  0  0  0  0  0  0  0  0  0
  3  2  2  0
  6  2  1  0
  6  4  2  0
  7  3  1  0
  8  4  1  0
  8  7  2  0
  9  5  1  0
 10  7  1  0
 11  1  1  0
 11  5  1  0
 11  9  1  0
 11 10  1  0
 12  6  1  0
 13 10  2  0
 14  8  1  0
 14  9  1  0
M  END
>  <NAME>  (1886) 
6-METHYL-3,4-(5'-CHLOROBENZO)-2-OXABICYCLO(4.1.0)HEPT-3-EN-5-ONE

>  <SYNONYMS>  (1886) 


>  <SPECTRUM TYPE>  (1886) 
MS1

>  <INSTRUMENT TYPE>  (1886) 
EI-B

>  <INSTRUMENT>  (1886) 
HITACHI RMU-7L

>  <ION MODE>  (1886) 
P

>  <INCHIKEY>  (1886) 
QXHWEEJMQGJQLJ-UHFFFAOYSA-N

>  <FORMULA>  (1886) 
C11H9ClO2

>  <EXACT MASS>  (1886) 
208.029107208

>  <MW>  (1886) 
208

>  <ID>  (1886) 
JP009434

>  <CONTRIBUTOR>  (1886) 
University of Tokyo Team, {Faculty of Engineering, University of Tokyo

>  <COMMENT>  (1886) 
SMILES=Clc(c3)cc(O1)c(c3)C(=O)C(C)(C2)C12
InChI=InChI=1S/C11H9ClO2/c1-11-5-9(11)14-8-4-6(12)2-3-7(8)10(11)13/h2-4,9H,5H2,1H3
computed SMILES=O=C1C2=CC=C(Cl)C=C2OC3CC13C
accession=JP009434
date=2016.01.19 (Created 2008.10.21, modified 2011.05.06)
author=EGUCHI S, FAC. OF SCIENCE, HIROSHIMA UNIV.
license=CC BY-NC-SA
exact mass=208.02911
ionization energy=70 eV
ion type=[M]+*
computed spectral entropy=4.0201440479372135
computed normalized entropy=0.8536189123104
SPLASH=splash10-0929-6920000000-a67f61c8f05797a60fac
submitter=submitter = University of Tokyo Team (Faculty of Engineering, University of Tokyo)
MoNA Rating=3.75

>  <NUM PEAKS>  (1886) 
111

>  <MASS SPECTRAL PEAKS>  (1886) 
50 23
51 21
52 3
53 38
54 4
55 4.5
56 1.5
57 1
58 6
59 1.5
61 0.5
62 11
63 54
64 9.5
65 8
66 3
67 2
68 1
69 11
71 3
72 3.5
73 8.5
74 20
75 49
76 11
77 10
78 1.5
79 1
84 2
85 4
86 4.5
87 4.5
88 1
89 8
90 1
91 20
92 2.5
93 1
96 1
97 4
98 9
99 12.5
100 4
101 9.5
102 9
103 2
104 1
105 6
106 1
107 1
109 2
110 34
111 7
112 14
114 4
115 22.5
116 5
117 10.5
118 1
119 2
124 1
125 2
126 16
127 2.5
128 7
129 1.5
130 2.5
131 1.5
132 1.1
134 1
135 1
136 2
137 4
138 31
139 12
140 10.5
141 3
143 1
144 5
145 24.5
146 3
147 1
149 2
151 1
154 6
155 14.5
156 4.5
157 3.5
158 1
165 45
166 3.5
167 16.5
168 45
169 4.5
170 12.5
171 2
172 1
173 5
179 31
180 5
181 14.5
182 3.5
183 2
193 8
194 2
195 3
207 4
208 99.99
209 12.5
210 34
211 3

$$$$

     RDKit          2D

 16 18  0  0  0  0  0  0  0  0999 V2000
    2.1863    2.0858    0.0000 C   0  0  0  0  0  0  0  0  0  0  0  0
    2.1863   -2.0123    0.0000 C   0  0  0  0  0  0  0  0  0  0  0  0
   -6.3579   -0.7132    0.0000 C   0  0  0  0  0  0  0  0  0  0  0  0
   -3.7599    0.7868    0.0000 C   0  0  0  0  0  0  0  0  0  0  0  0
   -2.4608    1.5368    0.0000 C   0  0  0  0  0  0  0  0  0  0  0  0
   -2.4608   -1.4632    0.0000 C   0  0  0  0  0  0  0  0  0  0  0  0
    2.7353    0.0368    0.0000 C   0  0  0  0  0  0  0  0  0  0  0  0
   -3.7599   -0.7132    0.0000 C   0  0  0  0  0  0  0  0  0  0  0  0
   -1.1618    0.7868    0.0000 C   0  0  0  0  0  0  0  0  0  0  0  0
   -1.1618   -0.7132    0.0000 C   0  0  0  0  0  0  0  0  0  0  0  0
    0.1373    1.5368    0.0000 C   0  0  0  0  0  0  0  0  0  0  0  0
    1.4363    0.7868    0.0000 C   0  0  0  0  0  0  0  0  0  0  0  0
    1.4363   -0.7132    0.0000 C   0  0  0  0  0  0  0  0  0  0  0  0
    0.1373    3.0368    0.0000 O   0  0  0  0  0  0  0  0  0  0  0  0
   -5.0589   -1.4632    0.0000 O   0  0  0  0  0  0  0  0  0  0  0  0
    0.1373   -1.4632    0.0000 O   0  0  0  0  0  0  0  0  0  0  0  0
  5  4  2  0
  8  4  1  0
  8  6  2  0
  9  5  1  0
 10  6  1  0
 10  9  2  0
 11  9  1  0
 12  1  1  0
 12  7  1  0
 12 11  1  0
 13  2  1  0
 13  7  1  0
 13 12  1  0
 14 11  2  0
 15  3  1  0
 15  8  1  0
 16 10  1  0
 16 13  1  0
M  END
>  <NAME>  (1887) 
1,6-DIMETHYL-3,4-(5'-METHOXYBENZO)-2-OXABICYCLO(4.1.0)HEPT-3-EN-5-ONE

>  <SYNONYMS>  (1887) 


>  <SPECTRUM TYPE>  (1887) 
MS1

>  <INSTRUMENT TYPE>  (1887) 
EI-B

>  <INSTRUMENT>  (1887) 
HITACHI RMU-7L

>  <ION MODE>  (1887) 
P

>  <INCHIKEY>  (1887) 
LUPDDXPOCMRECU-UHFFFAOYSA-N

>  <FORMULA>  (1887) 
C13H14O3

>  <EXACT MASS>  (1887) 
218.09429430799997

>  <MW>  (1887) 
218

>  <ID>  (1887) 
JP009433

>  <CONTRIBUTOR>  (1887) 
University of Tokyo Team, {Faculty of Engineering, University of Tokyo

>  <COMMENT>  (1887) 
SMILES=COc(c3)cc(O1)c(c3)C(=O)C(C)(C2)C(C)12
InChI=InChI=1S/C13H14O3/c1-12-7-13(12,2)16-10-6-8(15-3)4-5-9(10)11(12)14/h4-6H,7H2,1-3H3
computed SMILES=O=C1C2=CC=C(OC)C=C2OC3(C)CC13C
accession=JP009433
date=2016.01.19 (Created 2008.10.21, modified 2011.05.06)
author=EGUCHI S, FAC. OF SCIENCE, HIROSHIMA UNIV.
license=CC BY-NC-SA
exact mass=218.09429
ionization energy=70 eV
ion type=[M]+*
computed spectral entropy=4.327377170559538
computed normalized entropy=0.8756961351069552
SPLASH=splash10-0hk9-5910000000-84aae4440a9bcc7353fa
submitter=submitter = University of Tokyo Team (Faculty of Engineering, University of Tokyo)
MoNA Rating=3.75

>  <NUM PEAKS>  (1887) 
140

>  <MASS SPECTRAL PEAKS>  (1887) 
50 16
51 40
52 12
53 31
54 9
55 16
56 4
57 12.5
58 3
59 1
60 1
61 7
62 17
63 86
64 17
65 18
66 3
67 10
68 2
69 16
70 3
71 6.5
72 3.5
73 6
74 14
75 30
76 6
77 24.5
78 6.5
79 12
80 2
81 1
82 1
83 2
84 1
85 1.5
86 2
87 1
88 2.5
89 8
90 2
91 26
92 10
93 5
94 9.5
95 16.5
96 2
97 4
98 2
99 1.5
100 3
101 4.5
102 4
103 12.5
104 5
105 7
106 54
107 14
108 12
109 3
110 17
111 5
112 6
113 4
114 2
115 23
116 5
117 11
118 4
119 5
120 3
121 2.5
122 8
123 5
124 15
125 5
126 9
127 5
128 6
129 3
130 2
131 8
132 12
133 2
134 44.5
135 11.5
136 3.5
137 12.5
138 16
139 3
140 2.5
143 2
144 4.5
145 18.5
146 7.5
147 9
148 5
149 3
150 2.5
151 76
152 7
153 2
154 2.5
155 6
156 1.5
157 2
158 2
159 9
160 6
161 22.5
162 2
163 7
164 3
165 20
166 3
167 6
168 18
169 1.5
175 70
176 25
177 10
178 56.5
179 20
180 3
181 5
182 1.5
183 1
187 1.5
188 6
189 21.5
190 4
191 1.5
202 1.5
203 18
204 16
205 3
217 8
218 99.99
219 14.5
220 1.5

$$$$

     RDKit          2D

 15 17  0  0  0  0  0  0  0  0999 V2000
    1.7745    4.0245    0.0000 C   0  0  0  0  0  0  0  0  0  0  0  0
   -6.7697    1.2255    0.0000 C   0  0  0  0  0  0  0  0  0  0  0  0
   -4.1716    2.7255    0.0000 C   0  0  0  0  0  0  0  0  0  0  0  0
   -2.8726    3.4755    0.0000 C   0  0  0  0  0  0  0  0  0  0  0  0
   -2.8726    0.4755    0.0000 C   0  0  0  0  0  0  0  0  0  0  0  0
    2.3236    1.9755    0.0000 C   0  0  0  0  0  0  0  0  0  0  0  0
   -4.1716    1.2255    0.0000 C   0  0  0  0  0  0  0  0  0  0  0  0
   -1.5736    2.7255    0.0000 C   0  0  0  0  0  0  0  0  0  0  0  0
   -1.5736    1.2255    0.0000 C   0  0  0  0  0  0  0  0  0  0  0  0
    1.0245    1.2255    0.0000 C   0  0  0  0  0  0  0  0  0  0  0  0
   -0.2745    3.4755    0.0000 C   0  0  0  0  0  0  0  0  0  0  0  0
    1.0245    2.7255    0.0000 C   0  0  0  0  0  0  0  0  0  0  0  0
   -0.2745    4.9755    0.0000 O   0  0  0  0  0  0  0  0  0  0  0  0
   -5.4707    0.4755    0.0000 O   0  0  0  0  0  0  0  0  0  0  0  0
   -0.2745    0.4755    0.0000 O   0  0  0  0  0  0  0  0  0  0  0  0
  4  3  2  0
  7  3  1  0
  7  5  2  0
  8  4  1  0
  9  5  1  0
  9  8  2  0
 10  6  1  0
 11  8  1  0
 12  1  1  0
 12  6  1  0
 12 10  1  0
 12 11  1  0
 13 11  2  0
 14  2  1  0
 14  7  1  0
 15  9  1  0
 15 10  1  0
M  END
>  <NAME>  (1888) 
6-METHYL-3,4-(5'-METHOXYBENZO)-2-OXABICYCLO(4.1.0)HEPT-3-EN-5-ONE

>  <SYNONYMS>  (1888) 


>  <SPECTRUM TYPE>  (1888) 
MS1

>  <INSTRUMENT TYPE>  (1888) 
EI-B

>  <INSTRUMENT>  (1888) 
HITACHI RMU-7L

>  <ION MODE>  (1888) 
P

>  <INCHIKEY>  (1888) 
YMAGECSHLQMIKM-UHFFFAOYSA-N

>  <FORMULA>  (1888) 
C12H12O3

>  <EXACT MASS>  (1888) 
204.07864424399997

>  <MW>  (1888) 
204

>  <ID>  (1888) 
JP009432

>  <CONTRIBUTOR>  (1888) 
University of Tokyo Team, {Faculty of Engineering, University of Tokyo

>  <COMMENT>  (1888) 
SMILES=COc(c3)cc(O1)c(c3)C(=O)C(C)(C2)C12
InChI=InChI=1S/C12H12O3/c1-12-6-10(12)15-9-5-7(14-2)3-4-8(9)11(12)13/h3-5,10H,6H2,1-2H3
computed SMILES=O=C1C2=CC=C(OC)C=C2OC3CC13C
accession=JP009432
date=2016.01.19 (Created 2008.10.21, modified 2011.05.06)
author=EGUCHI S, FAC. OF SCIENCE, HIROSHIMA UNIV.
license=CC BY-NC-SA
exact mass=204.07864
ionization energy=70 eV
ion type=[M]+*
computed spectral entropy=3.8355755302066745
computed normalized entropy=0.8191943677243958
SPLASH=splash10-0ik9-5910000000-fd316b287f683ce1a810
submitter=submitter = University of Tokyo Team (Faculty of Engineering, University of Tokyo)
MoNA Rating=3.75

>  <NUM PEAKS>  (1888) 
108

>  <MASS SPECTRAL PEAKS>  (1888) 
50 14
51 32
52 24
53 27
54 5
55 8
56 1.5
57 5
58 1
59 1
60 1
61 2
62 13
63 76
64 14
65 12
66 2
67 1
68 1
69 12.5
70 2
71 2.5
72 1
73 1
74 5
75 12.5
76 7
77 12
78 10
79 14.5
80 4.5
81 3
82 1
83 2
84 1
85 1.5
86 1
87 1.5
88 3
89 5
90 4.5
91 12
92 11
93 3
94 2
95 6
96 1.5
97 2
101 1
102 2
103 8
104 2
105 8
106 71
107 22
108 8
109 1
111 1
115 11
116 4
117 3.5
118 8
119 4
120 3
121 4
122 10
123 2
124 1.5
125 1
131 1
132 3
133 9
134 62.5
135 18.5
136 2
137 1
143 1
144 1.5
145 5
146 4.5
147 4
148 2
149 13
150 8
151 19
152 2
159 6
160 7
161 92
162 21
163 19
164 88
165 20
166 2.5
173 2
174 1
175 46
176 11.5
177 5
178 1
187 1
188 1
189 24.5
190 2
203 6
204 99.99
205 11.5
206 1

$$$$

     RDKit          2D

 15 17  0  0  0  0  0  0  0  0999 V2000
    2.9865    0.3248    0.0000 C   0  0  0  0  0  0  0  0  0  0  0  0
   -4.2587   -3.2243    0.0000 C   0  0  0  0  0  0  0  0  0  0  0  0
   -4.2587    0.8738    0.0000 C   0  0  0  0  0  0  0  0  0  0  0  0
    1.6875   -1.9252    0.0000 C   0  0  0  0  0  0  0  0  0  0  0  0
    0.3885   -2.6752    0.0000 C   0  0  0  0  0  0  0  0  0  0  0  0
    0.3885    0.3248    0.0000 C   0  0  0  0  0  0  0  0  0  0  0  0
   -4.8077   -1.1752    0.0000 C   0  0  0  0  0  0  0  0  0  0  0  0
    1.6875   -0.4252    0.0000 C   0  0  0  0  0  0  0  0  0  0  0  0
   -0.9106   -1.9252    0.0000 C   0  0  0  0  0  0  0  0  0  0  0  0
   -0.9106   -0.4252    0.0000 C   0  0  0  0  0  0  0  0  0  0  0  0
   -2.2096   -2.6752    0.0000 C   0  0  0  0  0  0  0  0  0  0  0  0
   -3.5087   -1.9252    0.0000 C   0  0  0  0  0  0  0  0  0  0  0  0
   -3.5087   -0.4252    0.0000 C   0  0  0  0  0  0  0  0  0  0  0  0
   -2.2096   -4.1752    0.0000 O   0  0  0  0  0  0  0  0  0  0  0  0
   -2.2096    0.3248    0.0000 O   0  0  0  0  0  0  0  0  0  0  0  0
  5  4  2  0
  8  1  1  0
  8  4  1  0
  8  6  2  0
  9  5  1  0
 10  6  1  0
 10  9  2  0
 11  9  1  0
 12  2  1  0
 12  7  1  0
 12 11  1  0
 13  3  1  0
 13  7  1  0
 13 12  1  0
 14 11  2  0
 15 10  1  0
 15 13  1  0
M  END
>  <NAME>  (1889) 
1,6-DIMETHYL-3,4-(5'-METHYLBENZO)-2-OXABICYCLO(4.1.0)HEPT-3-EN-5-ONE

>  <SYNONYMS>  (1889) 


>  <SPECTRUM TYPE>  (1889) 
MS1

>  <INSTRUMENT TYPE>  (1889) 
EI-B

>  <INSTRUMENT>  (1889) 
HITACHI RMU-7L

>  <ION MODE>  (1889) 
P

>  <INCHIKEY>  (1889) 
NVDZXYOUPPJXIV-UHFFFAOYSA-N

>  <FORMULA>  (1889) 
C13H14O2

>  <EXACT MASS>  (1889) 
202.099379688

>  <MW>  (1889) 
202

>  <ID>  (1889) 
JP009431

>  <CONTRIBUTOR>  (1889) 
University of Tokyo Team, {Faculty of Engineering, University of Tokyo

>  <COMMENT>  (1889) 
SMILES=Cc(c3)cc(O1)c(c3)C(=O)C(C)(C2)C(C)12
InChI=InChI=1S/C13H14O2/c1-8-4-5-9-10(6-8)15-13(3)7-12(13,2)11(9)14/h4-6H,7H2,1-3H3
computed SMILES=O=C1C2=CC=C(C=C2OC3(C)CC13C)C
accession=JP009431
date=2016.01.19 (Created 2008.10.21, modified 2011.05.06)
author=EGUCHI S, FAC. OF SCIENCE, HIROSHIMA UNIV.
license=CC BY-NC-SA
exact mass=202.09938
ionization energy=70 eV
ion type=[M]+*
computed spectral entropy=3.775708259251299
computed normalized entropy=0.8370263480377795
SPLASH=splash10-0k9i-5910000000-3a7b8940cab32f4dcac3
submitter=submitter = University of Tokyo Team (Faculty of Engineering, University of Tokyo)
MoNA Rating=3.75

>  <NUM PEAKS>  (1889) 
91

>  <MASS SPECTRAL PEAKS>  (1889) 
50 12
51 26
52 15
53 24.5
54 2
55 5
56 1
57 1
61 1
62 7
63 26
64 8.5
65 14.5
66 1
67 14
68 1.5
69 9.9
73 1
74 1.5
75 4
76 4.5
77 38
78 24
79 12.5
80 1
85 1.5
86 12.5
87 5
88 2
89 41
90 42.5
91 32.5
102 2
103 3
104 2
105 12.5
106 9.5
107 20
108 41.5
109 3
110 1
115 21
116 9.9
117 3
118 38
119 6
120 1.5
121 5
127 2
128 7
129 5
130 2
131 12.5
132 3
133 1
134 5
135 63
136 5
137 1
138 2
139 1
140 1
141 2
142 1
143 3
144 4
145 26
146 5
147 1
157 5
158 7
159 96
160 26
161 13
162 50
163 5
164 1
165 4
172 1
173 29
174 2
175 1
185 2
186 1
187 54.5
188 6
189 2
201 8
202 99.99
203 16
204 2

$$$$

     RDKit          2D

 14 16  0  0  0  0  0  0  0  0999 V2000
   -5.1962    4.5000    0.0000 C   0  0  0  0  0  0  0  0  0  0  0  0
    1.5000   -0.0000    0.0000 C   0  0  0  0  0  0  0  0  0  0  0  0
   -2.5981    4.5000    0.0000 C   0  0  0  0  0  0  0  0  0  0  0  0
   -1.2990    3.7500    0.0000 C   0  0  0  0  0  0  0  0  0  0  0  0
   -3.8971    2.2500    0.0000 C   0  0  0  0  0  0  0  0  0  0  0  0
   -0.0000   -1.5000    0.0000 C   0  0  0  0  0  0  0  0  0  0  0  0
   -3.8971    3.7500    0.0000 C   0  0  0  0  0  0  0  0  0  0  0  0
   -1.2990    2.2500    0.0000 C   0  0  0  0  0  0  0  0  0  0  0  0
   -2.5981    1.5000    0.0000 C   0  0  0  0  0  0  0  0  0  0  0  0
   -1.2990   -0.7500    0.0000 C   0  0  0  0  0  0  0  0  0  0  0  0
    0.0000    1.5000    0.0000 C   0  0  0  0  0  0  0  0  0  0  0  0
    0.0000    0.0000    0.0000 C   0  0  0  0  0  0  0  0  0  0  0  0
    1.2990    2.2500    0.0000 O   0  0  0  0  0  0  0  0  0  0  0  0
   -2.5981   -0.0000    0.0000 O   0  0  0  0  0  0  0  0  0  0  0  0
  4  3  2  0
  7  1  1  0
  7  3  1  0
  7  5  2  0
  8  4  1  0
  9  5  1  0
  9  8  2  0
 10  6  1  0
 11  8  1  0
 12  2  1  0
 12  6  1  0
 12 10  1  0
 12 11  1  0
 13 11  2  0
 14  9  1  0
 14 10  1  0
M  END
>  <NAME>  (1890) 
6-METHYL-3,4-(5'-METHYLBENZO)-2-OXABICYCLO(4.1.0)HEPT-3-EN-5-ONE

>  <SYNONYMS>  (1890) 


>  <SPECTRUM TYPE>  (1890) 
MS1

>  <INSTRUMENT TYPE>  (1890) 
EI-B

>  <INSTRUMENT>  (1890) 
HITACHI RMU-7L

>  <ION MODE>  (1890) 
P

>  <INCHIKEY>  (1890) 
AYOLJEXZSUEOSM-UHFFFAOYSA-N

>  <FORMULA>  (1890) 
C12H12O2

>  <EXACT MASS>  (1890) 
188.083729624

>  <MW>  (1890) 
188

>  <ID>  (1890) 
JP009430

>  <CONTRIBUTOR>  (1890) 
University of Tokyo Team, {Faculty of Engineering, University of Tokyo

>  <COMMENT>  (1890) 
SMILES=Cc(c3)cc(O1)c(c3)C(=O)C(C)(C2)C12
InChI=InChI=1S/C12H12O2/c1-7-3-4-8-9(5-7)14-10-6-12(10,2)11(8)13/h3-5,10H,6H2,1-2H3
computed SMILES=O=C1C2=CC=C(C=C2OC3CC13C)C
accession=JP009430
date=2016.01.19 (Created 2008.10.21, modified 2011.05.06)
author=EGUCHI S, FAC. OF SCIENCE, HIROSHIMA UNIV.
license=CC BY-NC-SA
exact mass=188.08373
ionization energy=70 eV
ion type=[M]+*
computed spectral entropy=3.6492971246116537
computed normalized entropy=0.8032270190463682
SPLASH=splash10-000b-4900000000-c5f1c2d77ddd6e81f881
submitter=submitter = University of Tokyo Team (Faculty of Engineering, University of Tokyo)
MoNA Rating=3.75

>  <NUM PEAKS>  (1890) 
94

>  <MASS SPECTRAL PEAKS>  (1890) 
50 6.5
51 23
52 10
53 15
54 1
55 6.5
56 1
57 1
58 1
59 5
60 1.5
61 1.5
62 5
63 17
64 6.8
65 12.5
66 1.8
67 1
68 1
69 1.9
70 2
73 1
74 1
75 1.8
76 2
77 16
78 13
79 12
80 2
81 1
82 4
83 16
84 1
85 1
86 1
87 1
88 2
89 12.5
90 14.5
91 20
92 3
93 1
98 2
99 1
101 1
102 2
103 2
104 1
105 8
106 7
107 2.5
108 2
109 1
111 1
114 1
115 12
116 6
117 8
118 30.5
119 10
120 1
127 2
128 4
129 3
131 4
132 3
133 1
134 5
135 14.5
136 2
144 2
145 56
146 5
147 3
148 74
149 2.5
150 1.5
157 1
158 1.5
159 36
160 6
161 5
162 1
163 1
171 1
172 1.5
173 8
174 1.5
175 1
186 1
187 4.5
188 99.99
189 11
190 1

$$$$

     RDKit          2D

 14 16  0  0  0  0  0  0  0  0999 V2000
   -2.0490    3.5490    0.0000 C   0  0  0  0  0  0  0  0  0  0  0  0
    1.5000    1.5000    0.0000 C   0  0  0  0  0  0  0  0  0  0  0  0
   -3.8971   -2.2500    0.0000 C   0  0  0  0  0  0  0  0  0  0  0  0
   -2.5981   -3.0000    0.0000 C   0  0  0  0  0  0  0  0  0  0  0  0
   -3.8971   -0.7500    0.0000 C   0  0  0  0  0  0  0  0  0  0  0  0
   -1.2990   -2.2500    0.0000 C   0  0  0  0  0  0  0  0  0  0  0  0
    0.0000    3.0000    0.0000 C   0  0  0  0  0  0  0  0  0  0  0  0
   -2.5981    0.0000    0.0000 C   0  0  0  0  0  0  0  0  0  0  0  0
   -1.2990   -0.7500    0.0000 C   0  0  0  0  0  0  0  0  0  0  0  0
   -2.5981    1.5000    0.0000 C   0  0  0  0  0  0  0  0  0  0  0  0
   -1.2990    2.2500    0.0000 C   0  0  0  0  0  0  0  0  0  0  0  0
    0.0000    1.5000    0.0000 C   0  0  0  0  0  0  0  0  0  0  0  0
   -3.8971    2.2500    0.0000 O   0  0  0  0  0  0  0  0  0  0  0  0
    0.0000   -0.0000    0.0000 O   0  0  0  0  0  0  0  0  0  0  0  0
  4  3  2  0
  5  3  1  0
  6  4  1  0
  8  5  2  0
  9  6  2  0
  9  8  1  0
 10  8  1  0
 11  1  1  0
 11  7  1  0
 11 10  1  0
 12  2  1  0
 12  7  1  0
 12 11  1  0
 13 10  2  0
 14  9  1  0
 14 12  1  0
M  END
>  <NAME>  (1891) 
1,6-DIMETHYL-3,4-BENZO-2-OXABICYCLO(4.1.0)HEPT-3-EN-5-ONE

>  <SYNONYMS>  (1891) 


>  <SPECTRUM TYPE>  (1891) 
MS1

>  <INSTRUMENT TYPE>  (1891) 
EI-B

>  <INSTRUMENT>  (1891) 
HITACHI RMU-7L

>  <ION MODE>  (1891) 
P

>  <INCHIKEY>  (1891) 
IKUPBRUXXGSVLP-UHFFFAOYSA-N

>  <FORMULA>  (1891) 
C12H12O2

>  <EXACT MASS>  (1891) 
188.083729624

>  <MW>  (1891) 
188

>  <ID>  (1891) 
JP009429

>  <CONTRIBUTOR>  (1891) 
University of Tokyo Team, {Faculty of Engineering, University of Tokyo

>  <COMMENT>  (1891) 
SMILES=c(c3)cc(O1)c(c3)C(=O)C(C)(C2)C(C)12
InChI=InChI=1S/C12H12O2/c1-11-7-12(11,2)14-9-6-4-3-5-8(9)10(11)13/h3-6H,7H2,1-2H3
computed SMILES=O=C1C=2C=CC=CC2OC3(C)CC13C
accession=JP009429
date=2016.01.19 (Created 2008.10.21, modified 2011.05.06)
author=EGUCHI S, FAC. OF SCIENCE, HIROSHIMA UNIV.
license=CC BY-NC-SA
exact mass=188.08373
ionization energy=70 eV
ion type=[M]+*
computed spectral entropy=3.613607886247517
computed normalized entropy=0.8422426399351519
SPLASH=splash10-0079-4900000000-a651409a5e7cf0c39ade
submitter=submitter = University of Tokyo Team (Faculty of Engineering, University of Tokyo)
MoNA Rating=3.75

>  <NUM PEAKS>  (1891) 
73

>  <MASS SPECTRAL PEAKS>  (1891) 
50 14
51 16.1
52 4.5
53 13.5
54 1.9
55 2.5
62 3.5
63 1.7
64 1.3
65 31.1
66 6.5
67 20.5
68 1.5
69 12.5
73 7.4
75 4
76 28
77 14
78 3
79 1.5
80 1
85 1.5
89 3
90 1
91 17
92 13
93 8
94 4.4
95 5
102 3
103 4
104 20.1
105 5
106 1
107 4
114 1
115 12.5
116 4
117 11
118 5
119 2
120 3.9
121 46.5
122 6.5
127 1
128 1.5
129 1.5
130 1
131 12
132 3
133 1
141 1
142 1.5
143 2.5
144 3
145 49
146 16
147 6.5
148 22.5
149 1.5
158 2
159 19
160 6
161 2
171 7
172 3
173 27
174 5
175 1
187 10
188 99.99
189 44.5
190 7

$$$$

     RDKit          2D

 13 15  0  0  0  0  0  0  0  0999 V2000
    1.5000   -0.0000    0.0000 C   0  0  0  0  0  0  0  0  0  0  0  0
   -2.5981    4.5000    0.0000 C   0  0  0  0  0  0  0  0  0  0  0  0
   -3.8971    3.7500    0.0000 C   0  0  0  0  0  0  0  0  0  0  0  0
   -1.2990    3.7500    0.0000 C   0  0  0  0  0  0  0  0  0  0  0  0
   -3.8971    2.2500    0.0000 C   0  0  0  0  0  0  0  0  0  0  0  0
   -0.0000   -1.5000    0.0000 C   0  0  0  0  0  0  0  0  0  0  0  0
   -1.2990    2.2500    0.0000 C   0  0  0  0  0  0  0  0  0  0  0  0
   -2.5981    1.5000    0.0000 C   0  0  0  0  0  0  0  0  0  0  0  0
   -1.2990   -0.7500    0.0000 C   0  0  0  0  0  0  0  0  0  0  0  0
    0.0000    1.5000    0.0000 C   0  0  0  0  0  0  0  0  0  0  0  0
    0.0000    0.0000    0.0000 C   0  0  0  0  0  0  0  0  0  0  0  0
    1.2990    2.2500    0.0000 O   0  0  0  0  0  0  0  0  0  0  0  0
   -2.5981   -0.0000    0.0000 O   0  0  0  0  0  0  0  0  0  0  0  0
  3  2  2  0
  4  2  1  0
  5  3  1  0
  7  4  2  0
  8  5  2  0
  8  7  1  0
  9  6  1  0
 10  7  1  0
 11  1  1  0
 11  6  1  0
 11  9  1  0
 11 10  1  0
 12 10  2  0
 13  8  1  0
 13  9  1  0
M  END
>  <NAME>  (1892) 
6-METHYL-3,4-BENZO-2-OXABICYCLO(4.1.0)HEPT-3-EN-5-ONE

>  <SYNONYMS>  (1892) 
METHYLHOMOCHROMONE

>  <SPECTRUM TYPE>  (1892) 
MS1

>  <INSTRUMENT TYPE>  (1892) 
EI-B

>  <INSTRUMENT>  (1892) 
HITACHI RMU-7L

>  <ION MODE>  (1892) 
P

>  <INCHIKEY>  (1892) 
WYYFVKUBHSHHHS-UHFFFAOYSA-N

>  <FORMULA>  (1892) 
C11H10O2

>  <EXACT MASS>  (1892) 
174.06807956

>  <MW>  (1892) 
174

>  <ID>  (1892) 
JP009427

>  <CONTRIBUTOR>  (1892) 
University of Tokyo Team, {Faculty of Engineering, University of Tokyo

>  <COMMENT>  (1892) 
SMILES=O=C(c32)C(C)(C1)C(Oc(cccc3)2)1
InChI=InChI=1S/C11H10O2/c1-11-6-9(11)13-8-5-3-2-4-7(8)10(11)12/h2-5,9H,6H2,1H3
computed SMILES=O=C1C=2C=CC=CC2OC3CC13C
accession=JP009427
date=2016.01.19 (Created 2008.10.21, modified 2011.05.06)
author=EGUCHI S, FAC. OF SCIENCE, HIROSHIMA UNIV.
license=CC BY-NC-SA
exact mass=174.06808
ionization energy=70 eV
ion type=[M]+*
computed spectral entropy=3.802196213730104
computed normalized entropy=0.8979925775607673
SPLASH=splash10-0fn9-9600000000-600f13765221871b779e
submitter=submitter = University of Tokyo Team (Faculty of Engineering, University of Tokyo)
MoNA Rating=3.75

>  <NUM PEAKS>  (1892) 
69

>  <MASS SPECTRAL PEAKS>  (1892) 
50 41.9
51 39.9
52 6
53 32
54 5
55 35
56 6
57 62.5
58 7
63 35
64 24
65 32
66 5
67 11
68 4
69 40
70 10.9
71 46.9
72 2.5
73 7.5
74 2
75 10.5
76 66
77 42
78 10
79 1.9
81 17.5
82 12
83 30
84 10
85 28.5
86 1.5
91 16.5
92 26
93 8
94 7.5
95 6
96 18
97 29
98 10.5
99 5
103 18.5
104 63
105 31
106 4
111 11
112 3
115 16
116 5
117 12
118 4.5
119 1
120 9
121 22.9
122 2
123 6.8
131 67
132 9
133 4.5
134 47
135 6.5
145 50
146 9.5
159 10.5
160 2
173 7
174 99.99
175 26.3
176 4

$$$$

     RDKit          2D

 14 16  0  0  0  0  0  0  0  0999 V2000
   -5.1124    1.5545    0.0000 C   0  0  0  0  0  0  0  0  0  0  0  0
   -5.1124    0.0545    0.0000 C   0  0  0  0  0  0  0  0  0  0  0  0
   -3.8134    2.3045    0.0000 C   0  0  0  0  0  0  0  0  0  0  0  0
   -3.8134   -0.6955    0.0000 C   0  0  0  0  0  0  0  0  0  0  0  0
    1.3828    0.8045    0.0000 C   0  0  0  0  0  0  0  0  0  0  0  0
    2.3469   -0.3445    0.0000 H   0  0  0  0  0  0  0  0  0  0  0  0
    2.3469    1.9536    0.0000 H   0  0  0  0  0  0  0  0  0  0  0  0
   -2.5144    1.5545    0.0000 C   0  0  0  0  0  0  0  0  0  0  0  0
    0.0837    1.5545    0.0000 C   0  0  0  0  0  0  0  0  0  0  0  0
   -2.5144    0.0545    0.0000 C   0  0  0  0  0  0  0  0  0  0  0  0
    0.0837    0.0545    0.0000 C   0  0  0  0  0  0  0  0  0  0  0  0
   -1.2153    2.3045    0.0000 C   0  0  0  0  0  0  0  0  0  0  0  0
   -1.2153    3.8045    0.0000 O   0  0  0  0  0  0  0  0  0  0  0  0
   -1.2153   -0.6955    0.0000 O   0  0  0  0  0  0  0  0  0  0  0  0
  5  6  1  0
  5  7  1  0
  2  1  2  0
  3  1  1  0
  4  2  1  0
  8  3  2  0
  9  5  1  0
 10  4  2  0
 10  8  1  0
 11  5  1  0
 11  9  1  0
 12  8  1  0
 12  9  1  0
 13 12  2  0
 14 10  1  0
 14 11  1  0
M  ISO  2   6   2   7   2
M  END
>  <NAME>  (1893) 
3,4-BENZO-2-OXABICYCLO(4.1.0)HEPT-3-EN-5-ONE(7,7-D2)

>  <SYNONYMS>  (1893) 
9,9-DIDEUTEROHOMOCHROMONE

>  <SPECTRUM TYPE>  (1893) 
MS1

>  <INSTRUMENT TYPE>  (1893) 
EI-B

>  <INSTRUMENT>  (1893) 
HITACHI RMU-7L

>  <ION MODE>  (1893) 
P

>  <INCHIKEY>  (1893) 
DQYKWUOLGDGKNU-BFWBPSQCSA-N

>  <FORMULA>  (1893) 
C10H8O2

>  <EXACT MASS>  (1893) 
162.064982988

>  <MW>  (1893) 
162

>  <ID>  (1893) 
JP009426

>  <CONTRIBUTOR>  (1893) 
University of Tokyo Team, {Faculty of Engineering, University of Tokyo

>  <COMMENT>  (1893) 
SMILES=O=C(c32)C(C(Oc(cccc3)2)1)C([2H])([2H])1
InChI=InChI=1S/C10H8O2/c11-10-6-3-1-2-4-8(6)12-9-5-7(9)10/h1-4,7,9H,5H2/i5D2
computed SMILES=[H]C1([H])C2OC=3C=CC=CC3C(=O)C21
accession=JP009426
ionization energy=70 eV
date=2016.01.19 (Created 2008.10.21, modified 2011.05.06)
author=EGUCHI S, FAC. OF SCIENCE, HIROSHIMA UNIV.
license=CC BY-NC-SA
exact mass=160.05243
ion type=[M]+*
computed spectral entropy=3.2291259708375892
computed normalized entropy=0.8533203362470124
SPLASH=splash10-03e9-5900000000-8980cf68f1e6302b6ad6
submitter=submitter = University of Tokyo Team (Faculty of Engineering, University of Tokyo)
MoNA Rating=3.75

>  <NUM PEAKS>  (1893) 
44

>  <MASS SPECTRAL PEAKS>  (1893) 
50 21.5
51 13
52 10
53 6.3
55 1
56 4.9
57 9
58 2
61 2
62 7
63 17.3
64 13.3
65 5
66 3.5
67 6.9
68 1.5
74 9.5
75 8
76 52
77 14
78 12
79 11
80 6.4
81 2.6
90 15
91 5
103 4.8
104 53
105 26
106 10
107 2
120 12.5
121 4.3
130 0.2
131 11
132 55.2
133 53.8
134 18.2
135 6
160 9.5
161 44.8
162 99.99
163 13.3
164 1.9

$$$$

     RDKit          2D

 12 14  0  0  0  0  0  0  0  0999 V2000
    0.9743   -0.5625    0.0000 C   0  0  0  0  0  0  0  0  0  0  0  0
    0.9743    0.9375    0.0000 C   0  0  0  0  0  0  0  0  0  0  0  0
   -0.3248   -1.3125    0.0000 C   0  0  0  0  0  0  0  0  0  0  0  0
   -0.3248    1.6875    0.0000 C   0  0  0  0  0  0  0  0  0  0  0  0
   -5.5209    0.1875    0.0000 C   0  0  0  0  0  0  0  0  0  0  0  0
   -1.6238   -0.5625    0.0000 C   0  0  0  0  0  0  0  0  0  0  0  0
   -4.2219   -0.5625    0.0000 C   0  0  0  0  0  0  0  0  0  0  0  0
   -1.6238    0.9375    0.0000 C   0  0  0  0  0  0  0  0  0  0  0  0
   -4.2219    0.9375    0.0000 C   0  0  0  0  0  0  0  0  0  0  0  0
   -2.9228   -1.3125    0.0000 C   0  0  0  0  0  0  0  0  0  0  0  0
   -2.9228   -2.8125    0.0000 O   0  0  0  0  0  0  0  0  0  0  0  0
   -2.9228    1.6875    0.0000 O   0  0  0  0  0  0  0  0  0  0  0  0
  2  1  2  0
  3  1  1  0
  4  2  1  0
  6  3  2  0
  7  5  1  0
  8  4  2  0
  8  6  1  0
  9  5  1  0
  9  7  1  0
 10  6  1  0
 10  7  1  0
 11 10  2  0
 12  8  1  0
 12  9  1  0
M  END
>  <NAME>  (1894) 
3,4-BENZO-2-OXABICYCLO(4.1.0)HEPT-3-EN-5-ONE

>  <SYNONYMS>  (1894) 
HOMOCHROMONE

>  <SPECTRUM TYPE>  (1894) 
MS1

>  <INSTRUMENT TYPE>  (1894) 
EI-B

>  <INSTRUMENT>  (1894) 
HITACHI RMU-7L

>  <ION MODE>  (1894) 
P

>  <INCHIKEY>  (1894) 
DQYKWUOLGDGKNU-UHFFFAOYSA-N

>  <FORMULA>  (1894) 
C10H8O2

>  <EXACT MASS>  (1894) 
160.052429496

>  <MW>  (1894) 
160

>  <ID>  (1894) 
JP009425

>  <CONTRIBUTOR>  (1894) 
University of Tokyo Team, {Faculty of Engineering, University of Tokyo

>  <COMMENT>  (1894) 
SMILES=O=C(c32)C(C1)C(Oc(cccc3)2)1
InChI=InChI=1S/C10H8O2/c11-10-6-3-1-2-4-8(6)12-9-5-7(9)10/h1-4,7,9H,5H2
computed SMILES=O=C1C=2C=CC=CC2OC3CC13
accession=JP009425
date=2016.01.19 (Created 2008.10.21, modified 2011.05.06)
author=EGUCHI S, FAC. OF SCIENCE, HIROSHIMA UNIV.
license=CC BY-NC-SA
exact mass=160.05243
ionization energy=70 eV
ion type=[M]+*
computed spectral entropy=3.1157507765615904
computed normalized entropy=0.7964551262194306
SPLASH=splash10-0w59-6900000000-ec192f6070fa8291ef43
submitter=submitter = University of Tokyo Team (Faculty of Engineering, University of Tokyo)
MoNA Rating=3.75

>  <NUM PEAKS>  (1894) 
50

>  <MASS SPECTRAL PEAKS>  (1894) 
50 21
51 15
52 5
53 4.5
54 1.5
55 14
56 6
57 3
59 1.8
61 2
62 5
63 13
64 1.2
65 6.2
66 4.1
67 1
68 2
69 1
73 2
74 7
75 8
76 51
77 21
78 8.1
79 1.8
80 1
89 3.9
90 2.1
91 2.4
92 5
93 2.5
102 4
103 18.3
104 48
105 10.3
106 1.8
117 1.8
119 3.5
120 9.5
121 6
123 1.9
130 0.5
131 69.7
132 20.3
133 6.8
134 5
159 5.1
160 99.99
161 11
162 1.5

$$$$

     RDKit          2D

 16 18  0  0  0  0  0  0  0  0999 V2000
    3.9000   -0.7500    0.0000 C   0  0  0  0  0  0  0  0  0  0  0  0
    3.9000    0.7500    0.0000 C   0  0  0  0  0  0  0  0  0  0  0  0
   -3.9000   -0.7500    0.0000 C   0  0  0  0  0  0  0  0  0  0  0  0
   -3.9000    0.7500    0.0000 C   0  0  0  0  0  0  0  0  0  0  0  0
    2.6000   -1.5000    0.0000 C   0  0  0  0  0  0  0  0  0  0  0  0
    2.6000    1.5000    0.0000 C   0  0  0  0  0  0  0  0  0  0  0  0
   -2.6000   -1.5000    0.0000 C   0  0  0  0  0  0  0  0  0  0  0  0
   -2.6000    1.5000    0.0000 C   0  0  0  0  0  0  0  0  0  0  0  0
    1.3000   -0.7500    0.0000 C   0  0  0  0  0  0  0  0  0  0  0  0
    1.3000    0.7500    0.0000 C   0  0  0  0  0  0  0  0  0  0  0  0
   -1.3000   -0.7500    0.0000 C   0  0  0  0  0  0  0  0  0  0  0  0
   -1.3000    0.7500    0.0000 C   0  0  0  0  0  0  0  0  0  0  0  0
   -0.0000   -1.5000    0.0000 C   0  0  0  0  0  0  0  0  0  0  0  0
   -0.0000    1.5000    0.0000 C   0  0  0  0  0  0  0  0  0  0  0  0
   -0.0000   -3.0000    0.0000 O   0  0  0  0  0  0  0  0  0  0  0  0
    0.0000    3.0000    0.0000 O   0  0  0  0  0  0  0  0  0  0  0  0
  2  1  2  0
  4  3  2  0
  5  1  1  0
  6  2  1  0
  7  3  1  0
  8  4  1  0
  9  5  2  0
 10  6  2  0
 10  9  1  0
 11  7  2  0
 12  8  2  0
 12 11  1  0
 13  9  1  0
 13 11  1  0
 14 10  1  0
 14 12  1  0
 15 13  2  0
 16 14  2  0
M  END
>  <NAME>  (1895) 
ANTHRAQUINONE

>  <SYNONYMS>  (1895) 


>  <SPECTRUM TYPE>  (1895) 
MS1

>  <INSTRUMENT TYPE>  (1895) 
EI-B

>  <INSTRUMENT>  (1895) 
HITACHI M-80A

>  <ION MODE>  (1895) 
P

>  <INCHIKEY>  (1895) 
RZVHIXYEVGDQDX-UHFFFAOYSA-N

>  <FORMULA>  (1895) 
C14H8O2

>  <EXACT MASS>  (1895) 
208.052429496

>  <MW>  (1895) 
208

>  <ID>  (1895) 
JP009424

>  <CONTRIBUTOR>  (1895) 
University of Tokyo Team, {Faculty of Engineering, University of Tokyo

>  <COMMENT>  (1895) 
SMILES=O=c(c21)c(c3)c(ccc3)c(=O)c(cccc2)1
InChI=InChI=1S/C14H8O2/c15-13-9-5-1-2-6-10(9)14(16)12-8-4-3-7-11(12)13/h1-8H
computed SMILES=O=C1C=2C=CC=CC2C(=O)C=3C=CC=CC13
accession=JP009424
date=2016.01.19 (Created 2008.10.21, modified 2011.05.06)
author=GUNMA COLLEGE OF TECHNOLOGY
license=CC BY-NC-SA
exact mass=208.05243
ionization energy=70 eV
ion type=[M]+*
computed spectral entropy=2.7336162066285574
computed normalized entropy=0.7514918098418805
SPLASH=splash10-0pc0-4950000000-5e8e781063ee0647c5ba
submitter=submitter = University of Tokyo Team (Faculty of Engineering, University of Tokyo)
MoNA Rating=3.75

>  <NUM PEAKS>  (1895) 
38

>  <MASS SPECTRAL PEAKS>  (1895) 
27 2.32
28 1.62
38 1.66
39 5.5
50 16.62
51 4.82
53 1.33
62 1.82
63 5.82
74 8.96
75 10.99
76 22.62
77 5.52
86 1.72
87 3.28
90 1.53
98 2.06
99 2.14
100 1.32
101 1.18
102 2.92
104 1.57
113 1.2
125 2.03
126 9.34
127 1.06
150 12.24
151 21.41
152 64.16
153 8.49
178 1.77
179 3.29
180 76.12
181 10.95
207 11.04
208 99.99
209 20.92
210 2.46

$$$$

     RDKit          2D

  6  5  0  0  0  0  0  0  0  0999 V2000
   -1.6238    1.3125    0.0000 C   0  0  0  0  0  0  0  0  0  0  0  0
   -2.9228    2.0625    0.0000 C   0  0  0  0  0  0  0  0  0  0  0  0
   -0.3248    2.0625    0.0000 C   0  0  0  0  0  0  0  0  0  0  0  0
   -4.2219    2.8125    0.0000 N   0  0  0  0  0  0  0  0  0  0  0  0
    0.9743    1.3125    0.0000 N   0  0  0  0  0  0  0  0  0  0  0  0
   -0.3248    3.5625    0.0000 O   0  0  0  0  0  0  0  0  0  0  0  0
  2  1  1  0
  3  1  1  0
  4  2  3  0
  5  3  2  0
  6  3  1  0
M  END
>  <NAME>  (1896) 
2-CYANOACETAMIDE

>  <SYNONYMS>  (1896) 


>  <SPECTRUM TYPE>  (1896) 
MS1

>  <INSTRUMENT TYPE>  (1896) 
EI-B

>  <INSTRUMENT>  (1896) 
HITACHI M-80A

>  <ION MODE>  (1896) 
P

>  <INCHIKEY>  (1896) 
DGJMPUGMZIKDRO-UHFFFAOYSA-N

>  <FORMULA>  (1896) 
C3H4N2O

>  <EXACT MASS>  (1896) 
84.032362748

>  <MW>  (1896) 
84

>  <ID>  (1896) 
JP009423

>  <CONTRIBUTOR>  (1896) 
University of Tokyo Team, {Faculty of Engineering, University of Tokyo

>  <COMMENT>  (1896) 
SMILES=N#CCC(N)=O
InChI=InChI=1S/C3H4N2O/c4-2-1-3(5)6/h1H2,(H2,5,6)
computed SMILES=N#CCC(=N)O
accession=JP009423
date=2016.01.19 (Created 2008.10.21, modified 2011.05.06)
author=GUNMA COLLEGE OF TECHNOLOGY
license=CC BY-NC-SA
exact mass=84.03236
ionization energy=70 eV
ion type=[M]+*
computed spectral entropy=2.0182852372429445
computed normalized entropy=0.6737201635340228
SPLASH=splash10-0006-9000000000-12de24f77a9d788e2f13
submitter=submitter = University of Tokyo Team (Faculty of Engineering, University of Tokyo)
MoNA Rating=3.75

>  <NUM PEAKS>  (1896) 
20

>  <MASS SPECTRAL PEAKS>  (1896) 
25 1.1
26 2.02
27 3.46
28 4.01
29 2.46
30 2.33
38 6.91
39 9.74
40 24.65
41 51.47
42 5.23
43 5.13
44 99.99
45 1.45
53 1.36
55 1.13
67 3.83
68 4.38
84 5.79
85 7.4

$$$$

     RDKit          2D

 10 10  0  0  0  0  0  0  0  0999 V2000
    0.0005   -3.7506    0.0000 C   0  0  0  0  0  0  0  0  0  0  0  0
   -1.2990   -2.9998    0.0000 C   0  0  0  0  0  0  0  0  0  0  0  0
    1.2995   -3.0006    0.0000 C   0  0  0  0  0  0  0  0  0  0  0  0
   -0.0005   -0.7490    0.0000 C   0  0  0  0  0  0  0  0  0  0  0  0
   -1.2995   -1.4990    0.0000 C   0  0  0  0  0  0  0  0  0  0  0  0
    1.2990   -1.4998    0.0000 C   0  0  0  0  0  0  0  0  0  0  0  0
   -2.5987   -0.7492    0.0000 I   0  0  0  0  0  0  0  0  0  0  0  0
    2.5981   -0.7498    0.0000 N   0  0  0  0  0  0  0  0  0  0  0  0
    3.8971   -1.4998    0.0000 O   0  0  0  0  0  0  0  0  0  0  0  0
    2.5981    0.7502    0.0000 O   0  0  0  0  0  0  0  0  0  0  0  0
  2  1  2  0
  3  1  1  0
  5  2  1  0
  5  4  2  0
  6  3  2  0
  6  4  1  0
  7  5  1  0
  8  6  1  0
  9  8  1  0
 10  8  2  0
M  CHG  2   8   1   9  -1
M  END
>  <NAME>  (1897) 
META-IODONITROBENZENE

>  <SYNONYMS>  (1897) 


>  <SPECTRUM TYPE>  (1897) 
MS1

>  <INSTRUMENT TYPE>  (1897) 
EI-B

>  <INSTRUMENT>  (1897) 
HITACHI M-80A

>  <ION MODE>  (1897) 
P

>  <INCHIKEY>  (1897) 
CBYAZOKPJYBCHE-UHFFFAOYSA-N

>  <FORMULA>  (1897) 
C6H4INO2

>  <EXACT MASS>  (1897) 
248.928676368

>  <MW>  (1897) 
249

>  <ID>  (1897) 
JP009422

>  <CONTRIBUTOR>  (1897) 
University of Tokyo Team, {Faculty of Engineering, University of Tokyo

>  <COMMENT>  (1897) 
SMILES=[O-1][N+1](=O)c(c1)cc(I)cc1
InChI=InChI=1S/C6H4INO2/c7-5-2-1-3-6(4-5)8(9)10/h1-4H
computed SMILES=O=N(=O)C=1C=CC=C(I)C1
accession=JP009422
date=2016.01.19 (Created 2008.10.21, modified 2011.05.06)
author=GUNMA COLLEGE OF TECHNOLOGY
license=CC BY-NC-SA
exact mass=248.92867
ionization energy=70 eV
ion type=[M]+*
computed spectral entropy=2.6915813919186906
computed normalized entropy=0.7697913831451308
SPLASH=splash10-0f92-9170000000-f581e5af2495b52169b9
submitter=submitter = University of Tokyo Team (Faculty of Engineering, University of Tokyo)
MoNA Rating=3.75

>  <NUM PEAKS>  (1897) 
33

>  <MASS SPECTRAL PEAKS>  (1897) 
26 1.57
30 18.67
37 4.46
38 5.15
39 3.21
43 1.47
46 9.25
49 3.25
50 34.2
51 3.31
57 1.32
61 1.86
62 2.83
63 4.53
64 4.05
65 1.71
73 4.7
74 19.9
75 15.89
76 48.51
77 4.02
92 6.69
93 1.5
127 24.65
128 3.84
191 6.29
203 54.57
204 4.35
219 2.18
220 2.93
233 1.17
249 99.99
250 7.33

$$$$

     RDKit          2D

 12 12  0  0  0  0  0  0  0  0999 V2000
    3.2476   -3.7504    0.0000 C   0  0  0  0  0  0  0  0  0  0  0  0
    1.9487   -3.0002    0.0000 C   0  0  0  0  0  0  0  0  0  0  0  0
   -1.9500    0.7500    0.0000 C   0  0  0  0  0  0  0  0  0  0  0  0
   -1.9500   -0.7500    0.0000 C   0  0  0  0  0  0  0  0  0  0  0  0
   -0.6500    1.5000    0.0000 C   0  0  0  0  0  0  0  0  0  0  0  0
   -0.6500   -1.5000    0.0000 C   0  0  0  0  0  0  0  0  0  0  0  0
    0.6500    0.7500    0.0000 C   0  0  0  0  0  0  0  0  0  0  0  0
    0.6500   -0.7500    0.0000 C   0  0  0  0  0  0  0  0  0  0  0  0
    1.9489    1.5002    0.0000 C   0  0  0  0  0  0  0  0  0  0  0  0
    1.9487    3.0002    0.0000 N   0  0  0  0  0  0  0  0  0  0  0  0
    3.2481    0.7504    0.0000 O   0  0  0  0  0  0  0  0  0  0  0  0
    1.9489   -1.5002    0.0000 O   0  0  0  0  0  0  0  0  0  0  0  0
  2  1  1  0
  4  3  2  0
  5  3  1  0
  6  4  1  0
  7  5  2  0
  8  6  2  0
  8  7  1  0
  9  7  1  0
 10  9  2  0
 11  9  1  0
 12  2  1  0
 12  8  1  0
M  END
>  <NAME>  (1898) 
ORTHO-ETHOXYBENZAMIDE

>  <SYNONYMS>  (1898) 


>  <SPECTRUM TYPE>  (1898) 
MS1

>  <INSTRUMENT TYPE>  (1898) 
EI-B

>  <INSTRUMENT>  (1898) 
HITACHI M-80A

>  <ION MODE>  (1898) 
P

>  <INCHIKEY>  (1898) 
SBNKFTQSBPKMBZ-UHFFFAOYSA-N

>  <FORMULA>  (1898) 
C9H11NO2

>  <EXACT MASS>  (1898) 
165.078978592

>  <MW>  (1898) 
165

>  <ID>  (1898) 
JP009421

>  <CONTRIBUTOR>  (1898) 
University of Tokyo Team, {Faculty of Engineering, University of Tokyo

>  <COMMENT>  (1898) 
SMILES=CCOc(c1)c(ccc1)C(N)=O
InChI=InChI=1S/C9H11NO2/c1-2-12-8-6-4-3-5-7(8)9(10)11/h3-6H,2H2,1H3,(H2,10,11)
computed SMILES=N=C(O)C=1C=CC=CC1OCC
accession=JP009421
date=2016.01.19 (Created 2008.10.21, modified 2011.05.06)
author=GUNMA COLLEGE OF TECHNOLOGY
license=CC BY-NC-SA
exact mass=165.07898
ionization energy=70 eV
ion type=[M]+*
computed spectral entropy=3.176690676583553
computed normalized entropy=0.8039723446176198
SPLASH=splash10-00dl-6900000000-8e77edbc0a9e88098d92
submitter=submitter = University of Tokyo Team (Faculty of Engineering, University of Tokyo)
MoNA Rating=3.75

>  <NUM PEAKS>  (1898) 
52

>  <MASS SPECTRAL PEAKS>  (1898) 
26 3.64
27 18.24
28 16.74
29 16.12
32 5.92
38 2.5
39 7.89
43 1.66
44 7.59
50 3.51
51 3.94
52 1.73
53 2.87
61 1.03
62 2.79
63 10.4
64 10.56
65 18.6
66 2.72
74 2.1
75 1.95
76 4.33
77 6.36
78 1.74
79 1.28
80 10.21
81 1.37
91 7.37
92 73.24
93 14.29
94 1.91
102 1.36
104 2.17
105 48.19
106 4.22
108 3.57
119 3.72
120 99.99
121 36.95
122 5.98
131 1.38
133 27.54
134 2.7
137 1.94
146 1.24
147 1.83
148 38.68
149 7.14
150 39.73
151 3.74
165 8.24
166 3.27

$$$$

     RDKit          2D

 11 11  0  0  0  0  0  0  0  0999 V2000
    3.8981    0.0804    0.0000 C   0  0  0  0  0  0  0  0  0  0  0  0
   -0.0000   -2.1700    0.0000 C   0  0  0  0  0  0  0  0  0  0  0  0
   -1.3000   -1.4200    0.0000 C   0  0  0  0  0  0  0  0  0  0  0  0
    1.3000   -1.4200    0.0000 C   0  0  0  0  0  0  0  0  0  0  0  0
   -2.5989    0.8302    0.0000 C   0  0  0  0  0  0  0  0  0  0  0  0
   -1.3000    0.0800    0.0000 C   0  0  0  0  0  0  0  0  0  0  0  0
    1.3000    0.0800    0.0000 C   0  0  0  0  0  0  0  0  0  0  0  0
   -0.0000    0.8300    0.0000 C   0  0  0  0  0  0  0  0  0  0  0  0
   -3.8981    0.0804    0.0000 O   0  0  0  0  0  0  0  0  0  0  0  0
    0.0000    2.3300    0.0000 O   0  0  0  0  0  0  0  0  0  0  0  0
    2.5989    0.8302    0.0000 O   0  0  0  0  0  0  0  0  0  0  0  0
  3  2  2  0
  4  2  1  0
  6  3  1  0
  6  5  1  0
  7  4  2  0
  8  6  2  0
  8  7  1  0
  9  5  2  0
 10  8  1  0
 11  1  1  0
 11  7  1  0
M  END
>  <NAME>  (1899) 
ORTHO-VANILLIN

>  <SYNONYMS>  (1899) 
2-HYDROXY-3-METHOXYBENZALDEHYDE

>  <SPECTRUM TYPE>  (1899) 
MS1

>  <INSTRUMENT TYPE>  (1899) 
EI-B

>  <INSTRUMENT>  (1899) 
HITACHI M-80A

>  <ION MODE>  (1899) 
P

>  <INCHIKEY>  (1899) 
JJVNINGBHGBWJH-UHFFFAOYSA-N

>  <FORMULA>  (1899) 
C8H8O3

>  <EXACT MASS>  (1899) 
152.04734411599998

>  <MW>  (1899) 
152

>  <ID>  (1899) 
JP009420

>  <CONTRIBUTOR>  (1899) 
University of Tokyo Team, {Faculty of Engineering, University of Tokyo

>  <COMMENT>  (1899) 
SMILES=O=Cc(c1)c(O)c(OC)cc1
InChI=InChI=1S/C8H8O3/c1-11-7-4-2-3-6(5-9)8(7)10/h2-5,10H,1H3
computed SMILES=O=CC=1C=CC=C(OC)C1O
accession=JP009420
date=2016.01.19 (Created 2008.10.21, modified 2011.05.06)
author=GUNMA COLLEGE OF TECHNOLOGY
license=CC BY-NC-SA
exact mass=152.04734
ionization energy=70 eV
ion type=[M]+*
computed spectral entropy=3.596921390690205
computed normalized entropy=0.8585245353535909
SPLASH=splash10-0pb9-8900000000-bbe3aaed58f67e9ab3be
submitter=submitter = University of Tokyo Team (Faculty of Engineering, University of Tokyo)
MoNA Rating=3.75

>  <NUM PEAKS>  (1899) 
66

>  <MASS SPECTRAL PEAKS>  (1899) 
15 20.19
26 2.25
27 5.61
29 21.5
30 2.09
31 1.73
32 2.99
37 1.99
38 4.28
39 11.16
40 1.2
41 1.56
49 1.78
50 11.13
51 17.27
52 15.65
53 19.21
54 2.4
55 14.68
61 3.24
62 6.5
63 15.81
64 7.21
65 19.18
66 6.64
67 4.41
69 1.09
73 1.05
74 4.15
75 3.85
76 19.69
77 17.81
78 13.06
79 11.17
80 9.66
81 49.88
82 3.31
85 1.13
91 2.57
92 11.05
93 12.82
94 4.29
95 7.42
104 4.15
105 16.77
106 72.13
107 12.64
108 16.33
109 52.18
110 4.76
115 1.31
119 1.56
120 7.68
121 36.35
122 22.11
123 8.91
124 3.61
133 2.93
134 3.27
135 1.24
136 6.41
137 5.79
151 19.73
152 99.99
153 10.23
154 1.26

$$$$

     RDKit          2D

 12 12  0  0  0  0  0  0  0  0999 V2000
   -1.3000   -0.7500    0.0000 C   0  0  0  0  0  0  0  0  0  0  0  0
    0.0000    1.5000    0.0000 C   0  0  0  0  0  0  0  0  0  0  0  0
    0.0000   -1.5000    0.0000 C   0  0  0  0  0  0  0  0  0  0  0  0
    1.3000    0.7500    0.0000 C   0  0  0  0  0  0  0  0  0  0  0  0
   -1.3000    0.7500    0.0000 C   0  0  0  0  0  0  0  0  0  0  0  0
    1.3000   -0.7500    0.0000 C   0  0  0  0  0  0  0  0  0  0  0  0
   -2.5989    1.5002    0.0000 C   0  0  0  0  0  0  0  0  0  0  0  0
    2.5989   -1.5002    0.0000 N   0  0  0  0  0  0  0  0  0  0  0  0
   -3.8981    0.7504    0.0000 O   0  0  0  0  0  0  0  0  0  0  0  0
   -2.5987    3.0002    0.0000 O   0  0  0  0  0  0  0  0  0  0  0  0
    3.8981   -0.7504    0.0000 O   0  0  0  0  0  0  0  0  0  0  0  0
    2.5987   -3.0002    0.0000 O   0  0  0  0  0  0  0  0  0  0  0  0
  3  1  2  0
  4  2  1  0
  5  1  1  0
  5  2  2  0
  6  3  1  0
  6  4  2  0
  7  5  1  0
  8  6  1  0
  9  7  1  0
 10  7  2  0
 11  8  1  0
 12  8  2  0
M  CHG  2   8   1  11  -1
M  END
>  <NAME>  (1900) 
PARA-NITROBENZOIC ACID

>  <SYNONYMS>  (1900) 
4-NITROBENZOIC ACID

>  <SPECTRUM TYPE>  (1900) 
MS1

>  <INSTRUMENT TYPE>  (1900) 
EI-B

>  <INSTRUMENT>  (1900) 
HITACHI M-80A

>  <ION MODE>  (1900) 
P

>  <INCHIKEY>  (1900) 
OTLNPYWUJOZPPA-UHFFFAOYSA-N

>  <FORMULA>  (1900) 
C7H5NO4

>  <EXACT MASS>  (1900) 
167.02185764

>  <MW>  (1900) 
167

>  <ID>  (1900) 
JP009419

>  <CONTRIBUTOR>  (1900) 
University of Tokyo Team, {Faculty of Engineering, University of Tokyo

>  <COMMENT>  (1900) 
SMILES=OC(=O)c(c1)ccc(c1)[N+1]([O-1])=O
InChI=InChI=1S/C7H5NO4/c9-7(10)5-1-3-6(4-2-5)8(11)12/h1-4H,(H,9,10)
computed SMILES=O=C(O)C1=CC=C(C=C1)N(=O)=O
accession=JP009419
date=2016.01.19 (Created 2008.10.21, modified 2011.05.06)
author=GUNMA COLLEGE OF TECHNOLOGY
license=CC BY-NC-SA
exact mass=167.02186
ionization energy=70 eV
ion type=[M]+*
computed spectral entropy=3.0933522706628303
computed normalized entropy=0.812615323521753
SPLASH=splash10-014i-9500000000-d5292213a48657e97909
submitter=submitter = University of Tokyo Team (Faculty of Engineering, University of Tokyo)
MoNA Rating=3.75

>  <NUM PEAKS>  (1900) 
45

>  <MASS SPECTRAL PEAKS>  (1900) 
26 1
27 3.91
29 1.26
30 40.37
37 2.98
38 5.11
39 22.64
45 7.83
46 6.13
49 1.56
50 26.05
51 18.07
52 1.54
53 6.46
61 1.38
62 2.5
63 6.29
64 3.79
65 99.99
66 5.72
73 2.06
74 14.48
75 18.17
76 17.95
77 2.79
81 12.61
92 5.14
93 5.3
103 5.53
104 7.28
105 1.63
109 16.28
110 1.14
120 1.6
121 24.2
122 2.54
135 1.45
137 14.56
138 1.46
150 10.64
151 16.22
152 1.88
167 77.09
168 14.55
169 1.55

$$$$

     RDKit          2D

  9  9  0  0  0  0  0  0  0  0999 V2000
    2.9228   -0.2425    0.0000 C   0  0  0  0  0  0  0  0  0  0  0  0
    2.9233    1.2583    0.0000 C   0  0  0  0  0  0  0  0  0  0  0  0
    1.6233   -0.9933    0.0000 C   0  0  0  0  0  0  0  0  0  0  0  0
    1.6243    2.0083    0.0000 C   0  0  0  0  0  0  0  0  0  0  0  0
    0.3243   -0.2433    0.0000 C   0  0  0  0  0  0  0  0  0  0  0  0
   -0.9743    2.0075    0.0000 C   0  0  0  0  0  0  0  0  0  0  0  0
   -2.2733    1.2575    0.0000 C   0  0  0  0  0  0  0  0  0  0  0  0
    0.3248    1.2575    0.0000 C   0  0  0  0  0  0  0  0  0  0  0  0
   -3.5724    2.0075    0.0000 O   0  0  0  0  0  0  0  0  0  0  0  0
  2  1  2  0
  3  1  1  0
  4  2  1  0
  5  3  2  0
  7  6  1  0
  8  4  2  0
  8  5  1  0
  8  6  1  0
  9  7  2  0
M  END
>  <NAME>  (1901) 
PHENYLACETALDEHYDE

>  <SYNONYMS>  (1901) 


>  <SPECTRUM TYPE>  (1901) 
MS1

>  <INSTRUMENT TYPE>  (1901) 
EI-B

>  <INSTRUMENT>  (1901) 
HITACHI M-80A

>  <ION MODE>  (1901) 
P

>  <INCHIKEY>  (1901) 
DTUQWGWMVIHBKE-UHFFFAOYSA-N

>  <FORMULA>  (1901) 
C8H8O

>  <EXACT MASS>  (1901) 
120.057514876

>  <MW>  (1901) 
120

>  <ID>  (1901) 
JP009418

>  <CONTRIBUTOR>  (1901) 
University of Tokyo Team, {Faculty of Engineering, University of Tokyo

>  <COMMENT>  (1901) 
SMILES=O=CCc(c1)cccc1
InChI=InChI=1S/C8H8O/c9-7-6-8-4-2-1-3-5-8/h1-5,7H,6H2
computed SMILES=O=CCC=1C=CC=CC1
accession=JP009418
date=2016.01.19 (Created 2008.10.21, modified 2011.05.06)
author=GUNMA COLLEGE OF TECHNOLOGY
license=CC BY-NC-SA
exact mass=120.05751
ionization energy=70 eV
ion type=[M]+*
computed spectral entropy=3.00586556219245
computed normalized entropy=0.804208469226068
SPLASH=splash10-0006-9000000000-d37cbef4100302e951de
submitter=submitter = University of Tokyo Team (Faculty of Engineering, University of Tokyo)
MoNA Rating=3.75

>  <NUM PEAKS>  (1901) 
42

>  <MASS SPECTRAL PEAKS>  (1901) 
15 5.66
26 3.19
27 3.49
28 33.69
29 9.74
32 14.49
37 2.38
38 5.19
39 14.82
40 2.09
41 3.03
42 8.12
43 99.99
44 2.45
49 1.6
50 13.73
51 24.96
52 3.83
53 1.32
57 1.1
58 36.05
59 2.23
61 2.66
62 4.97
63 12.31
64 2.78
65 26.25
66 1.76
74 4.3
75 2.23
76 3.59
77 29.97
78 4.47
89 3.82
90 1.76
91 60.27
92 17.05
93 1.61
103 2.7
105 13.48
106 2.2
120 4.55

$$$$

     RDKit          2D

 15 16  0  0  0  0  0  0  0  0999 V2000
    2.2719    1.6474    0.0000 C   0  0  0  0  0  0  0  0  0  0  0  0
    2.2724    3.1482    0.0000 C   0  0  0  0  0  0  0  0  0  0  0  0
    0.9724    0.8966    0.0000 C   0  0  0  0  0  0  0  0  0  0  0  0
    0.9734    3.8982    0.0000 C   0  0  0  0  0  0  0  0  0  0  0  0
   -0.3266    1.6466    0.0000 C   0  0  0  0  0  0  0  0  0  0  0  0
   -2.9168    1.6474    0.0000 C   0  0  0  0  0  0  0  0  0  0  0  0
   -4.1979    3.8912    0.0000 C   0  0  0  0  0  0  0  0  0  0  0  0
   -4.1831    0.8912    0.0000 C   0  0  0  0  0  0  0  0  0  0  0  0
   -5.5442    3.1345    0.0000 C   0  0  0  0  0  0  0  0  0  0  0  0
   -0.3261    3.1474    0.0000 C   0  0  0  0  0  0  0  0  0  0  0  0
   -2.9242    3.1474    0.0000 C   0  0  0  0  0  0  0  0  0  0  0  0
   -5.5368    1.6345    0.0000 C   0  0  0  0  0  0  0  0  0  0  0  0
   -1.6252    3.8974    0.0000 C   0  0  0  0  0  0  0  0  0  0  0  0
   -6.8259    0.8675    0.0000 O   0  0  0  0  0  0  0  0  0  0  0  0
   -1.6252    5.3974    0.0000 O   0  0  0  0  0  0  0  0  0  0  0  0
  2  1  2  0
  3  1  1  0
  4  2  1  0
  5  3  2  0
  8  6  2  0
  9  7  1  0
 10  4  2  0
 10  5  1  0
 11  6  1  0
 11  7  2  0
 12  8  1  0
 12  9  2  0
 13 10  1  0
 13 11  1  0
 14 12  1  0
 15 13  2  0
M  END
>  <NAME>  (1902) 
4-HYDROXYBENZOPHENONE

>  <SYNONYMS>  (1902) 


>  <SPECTRUM TYPE>  (1902) 
MS1

>  <INSTRUMENT TYPE>  (1902) 
EI-B

>  <INSTRUMENT>  (1902) 
HITACHI M-80A

>  <ION MODE>  (1902) 
P

>  <INCHIKEY>  (1902) 
NPFYZDNDJHZQKY-UHFFFAOYSA-N

>  <FORMULA>  (1902) 
C13H10O2

>  <EXACT MASS>  (1902) 
198.06807956

>  <MW>  (1902) 
198

>  <ID>  (1902) 
JP009417

>  <CONTRIBUTOR>  (1902) 
University of Tokyo Team, {Faculty of Engineering, University of Tokyo

>  <COMMENT>  (1902) 
SMILES=Oc(c2)ccc(c2)C(=O)c(c1)cccc1
InChI=InChI=1S/C13H10O2/c14-12-8-6-11(7-9-12)13(15)10-4-2-1-3-5-10/h1-9,14H
computed SMILES=O=C(C=1C=CC=CC1)C2=CC=C(O)C=C2
accession=JP009417
date=2016.01.19 (Created 2008.10.21, modified 2011.05.06)
author=GUNMA COLLEGE OF TECHNOLOGY
license=CC BY-NC-SA
exact mass=198.06808
ionization energy=70 eV
ion type=[M]+*
computed spectral entropy=2.624378537464981
computed normalized entropy=0.7572355802832318
SPLASH=splash10-00fr-9700000000-7bbd4a386378ac812532
submitter=submitter = University of Tokyo Team (Faculty of Engineering, University of Tokyo)
MoNA Rating=3.75

>  <NUM PEAKS>  (1902) 
32

>  <MASS SPECTRAL PEAKS>  (1902) 
38 1.24
39 8.27
50 5.76
51 15.95
52 1.3
53 2.44
62 3.12
63 8.35
64 4.74
65 35.4
66 2.8
74 4.87
75 4.15
76 5.46
77 51.23
78 5.07
84 1.18
85 6.64
89 1.77
92 3.84
93 23.24
94 1.89
105 25.66
106 2.35
115 4.73
120 1.49
121 99.99
122 8.42
139 1.48
141 2.14
198 7.58
199 1.23

$$$$

     RDKit          2D

  6  5  0  0  0  0  0  0  0  0999 V2000
   -4.5466    3.3750    0.0000 C   0  0  0  0  0  0  0  0  0  0  0  0
    1.9486    2.6250    0.0000 C   0  0  0  0  0  0  0  0  0  0  0  0
   -3.2476    2.6250    0.0000 C   0  0  0  0  0  0  0  0  0  0  0  0
    0.6495    3.3750    0.0000 C   0  0  0  0  0  0  0  0  0  0  0  0
   -1.9486    3.3750    0.0000 C   0  0  0  0  0  0  0  0  0  0  0  0
   -0.6495    2.6250    0.0000 C   0  0  0  0  0  0  0  0  0  0  0  0
  3  1  1  0
  4  2  1  0
  5  3  1  0
  6  4  1  0
  6  5  1  0
M  END
>  <NAME>  (1903) 
HEXANE

>  <SYNONYMS>  (1903) 


>  <SPECTRUM TYPE>  (1903) 
MS1

>  <INSTRUMENT TYPE>  (1903) 
EI-B

>  <INSTRUMENT>  (1903) 
HITACHI M-80A

>  <ION MODE>  (1903) 
P

>  <INCHIKEY>  (1903) 
VLKZOEOYAKHREP-UHFFFAOYSA-N

>  <FORMULA>  (1903) 
C6H14

>  <EXACT MASS>  (1903) 
86.109550448

>  <MW>  (1903) 
86

>  <ID>  (1903) 
JP009416

>  <CONTRIBUTOR>  (1903) 
University of Tokyo Team, {Faculty of Engineering, University of Tokyo

>  <COMMENT>  (1903) 
SMILES=CCCCCC
InChI=InChI=1S/C6H14/c1-3-5-6-4-2/h3-6H2,1-2H3
computed SMILES=CCCCCC
accession=JP009416
date=2016.01.19 (Created 2008.10.21, modified 2011.05.06)
author=GUNMA COLLEGE OF TECHNOLOGY
license=CC BY-NC-SA
exact mass=86.10955
ionization energy=70 eV
ion type=[M]+*
computed spectral entropy=2.425391018384344
computed normalized entropy=0.7534900848446534
SPLASH=splash10-054o-9000000000-2c1489cf6d4c005a89ae
submitter=submitter = University of Tokyo Team (Faculty of Engineering, University of Tokyo)
MoNA Rating=3.75

>  <NUM PEAKS>  (1903) 
25

>  <MASS SPECTRAL PEAKS>  (1903) 
14 2.03
15 6.17
26 5.06
27 52.52
28 1.2
29 60.51
30 1.25
38 1.92
39 27.09
40 4.21
41 88.82
42 39.54
43 76.61
44 2.43
50 1.06
51 1.44
53 2.4
55 7.96
56 53.46
57 99.99
58 4.51
71 5.56
85 1.52
86 15.75
87 1.12

$$$$

     RDKit          2D

 12 12  0  0  0  0  0  0  0  0999 V2000
    0.6489   -2.6180    0.0000 C   0  0  0  0  0  0  0  0  0  0  0  0
   -0.6501   -1.8680    0.0000 C   0  0  0  0  0  0  0  0  0  0  0  0
    1.9435   -1.8758    0.0000 C   0  0  0  0  0  0  0  0  0  0  0  0
    0.6449    0.3750    0.0000 C   0  0  0  0  0  0  0  0  0  0  0  0
   -0.6546   -0.3758    0.0000 C   0  0  0  0  0  0  0  0  0  0  0  0
    1.9439   -0.3750    0.0000 C   0  0  0  0  0  0  0  0  0  0  0  0
   -1.9549    0.3720    0.0000 C   0  0  0  0  0  0  0  0  0  0  0  0
    3.2431    0.3748    0.0000 N   0  0  0  0  0  0  0  0  0  0  0  0
   -1.9574    1.8720    0.0000 O   0  0  0  0  0  0  0  0  0  0  0  0
   -3.2527   -0.3801    0.0000 O   0  0  0  0  0  0  0  0  0  0  0  0
    4.5420   -0.3754    0.0000 O   0  0  0  0  0  0  0  0  0  0  0  0
    3.2433    1.8748    0.0000 O   0  0  0  0  0  0  0  0  0  0  0  0
  2  1  2  0
  3  1  1  0
  5  2  1  0
  5  4  2  0
  6  3  2  0
  6  4  1  0
  7  5  1  0
  8  6  1  0
  9  7  2  0
 10  7  1  0
 11  8  1  0
 12  8  2  0
M  CHG  2   8   1  11  -1
M  END
>  <NAME>  (1904) 
META-NITROBENZOIC ACID

>  <SYNONYMS>  (1904) 
3-NITROBENZOIC ACID

>  <SPECTRUM TYPE>  (1904) 
MS1

>  <INSTRUMENT TYPE>  (1904) 
EI-B

>  <INSTRUMENT>  (1904) 
HITACHI M-80A

>  <ION MODE>  (1904) 
P

>  <INCHIKEY>  (1904) 
AFPHTEQTJZKQAQ-UHFFFAOYSA-N

>  <FORMULA>  (1904) 
C7H5NO4

>  <EXACT MASS>  (1904) 
167.02185764

>  <MW>  (1904) 
167

>  <ID>  (1904) 
JP009415

>  <CONTRIBUTOR>  (1904) 
University of Tokyo Team, {Faculty of Engineering, University of Tokyo

>  <COMMENT>  (1904) 
SMILES=OC(=O)c(c1)cc(cc1)[N+1]([O-1])=O
InChI=InChI=1S/C7H5NO4/c9-7(10)5-2-1-3-6(4-5)8(11)12/h1-4H,(H,9,10)
computed SMILES=O=C(O)C1=CC=CC(=C1)N(=O)=O
accession=JP009415
date=2016.01.19 (Created 2008.10.21, modified 2011.05.06)
author=GUNMA COLLEGE OF TECHNOLOGY
license=CC BY-NC-SA
exact mass=167.02186
ionization energy=70 eV
ion type=[M]+*
computed spectral entropy=3.089759269120135
computed normalized entropy=0.8070119264639088
SPLASH=splash10-0gb9-9700000000-3935caa792945e368800
submitter=submitter = University of Tokyo Team (Faculty of Engineering, University of Tokyo)
MoNA Rating=3.75

>  <NUM PEAKS>  (1904) 
46

>  <MASS SPECTRAL PEAKS>  (1904) 
27 1.38
30 29.24
37 1.23
38 2.31
39 18.66
45 4.32
46 7.04
50 10.36
51 6.72
53 3.45
55 1.7
62 1.25
63 7.23
64 2.59
65 99.99
66 5.83
74 7.81
75 7.52
76 11.92
77 2.52
79 3.54
81 8.58
91 1.4
92 12.04
93 4.51
95 1.07
103 2.49
104 6.62
105 1.45
107 1.84
109 5.41
121 27.09
122 3.16
123 4.73
134 1.75
135 2.22
136 2.37
137 8.85
138 1.64
148 1.45
150 42.01
151 40.63
152 5.96
167 34.56
168 26.22
169 2.32

$$$$

     RDKit          2D

 12 12  0  0  0  0  0  0  0  0999 V2000
    2.2420    3.2180    0.0000 C   0  0  0  0  0  0  0  0  0  0  0  0
    3.5249    2.4903    0.0000 C   0  0  0  0  0  0  0  0  0  0  0  0
    0.9649    2.4656    0.0000 C   0  0  0  0  0  0  0  0  0  0  0  0
    3.5611    0.9907    0.0000 C   0  0  0  0  0  0  0  0  0  0  0  0
    0.9708    0.9855    0.0000 C   0  0  0  0  0  0  0  0  0  0  0  0
    2.2537    0.2578    0.0000 C   0  0  0  0  0  0  0  0  0  0  0  0
   -0.3239    0.2280    0.0000 C   0  0  0  0  0  0  0  0  0  0  0  0
    2.2499   -1.2422    0.0000 N   0  0  0  0  0  0  0  0  0  0  0  0
   -0.3152   -1.2720    0.0000 O   0  0  0  0  0  0  0  0  0  0  0  0
   -1.6273    0.9705    0.0000 O   0  0  0  0  0  0  0  0  0  0  0  0
    3.5470   -1.9955    0.0000 O   0  0  0  0  0  0  0  0  0  0  0  0
    0.9490   -1.9889    0.0000 O   0  0  0  0  0  0  0  0  0  0  0  0
  2  1  2  0
  3  1  1  0
  4  2  1  0
  5  3  2  0
  6  4  2  0
  6  5  1  0
  7  5  1  0
  8  6  1  0
  9  7  2  0
 10  7  1  0
 11  8  1  0
 12  8  2  0
M  CHG  2   8   1  11  -1
M  END
>  <NAME>  (1905) 
ORTHO-NITROBENZOIC ACID

>  <SYNONYMS>  (1905) 
2-NITROBENZOIC ACID

>  <SPECTRUM TYPE>  (1905) 
MS1

>  <INSTRUMENT TYPE>  (1905) 
EI-B

>  <INSTRUMENT>  (1905) 
HITACHI M-80A

>  <ION MODE>  (1905) 
P

>  <INCHIKEY>  (1905) 
SLAMLWHELXOEJZ-UHFFFAOYSA-N

>  <FORMULA>  (1905) 
C7H5NO4

>  <EXACT MASS>  (1905) 
167.02185763999998

>  <MW>  (1905) 
167

>  <ID>  (1905) 
JP009414

>  <CONTRIBUTOR>  (1905) 
University of Tokyo Team, {Faculty of Engineering, University of Tokyo

>  <COMMENT>  (1905) 
SMILES=OC(=O)c(c1)c(ccc1)[N+1]([O-1])=O
InChI=InChI=1S/C7H5NO4/c9-7(10)5-3-1-2-4-6(5)8(11)12/h1-4H,(H,9,10)
computed SMILES=O=C(O)C=1C=CC=CC1N(=O)=O
accession=JP009414
date=2016.01.19 (Created 2008.10.21, modified 2011.05.06)
author=GUNMA COLLEGE OF TECHNOLOGY
license=CC BY-NC-SA
exact mass=167.02186
ionization energy=70 eV
ion type=[M]+*
computed spectral entropy=3.2070525691905076
computed normalized entropy=0.8197938930166174
SPLASH=splash10-0gb9-9300000000-8009789f258d0668959b
submitter=submitter = University of Tokyo Team (Faculty of Engineering, University of Tokyo)
MoNA Rating=3.75

>  <NUM PEAKS>  (1905) 
50

>  <MASS SPECTRAL PEAKS>  (1905) 
26 1.17
27 3.64
28 1.56
29 1.22
30 40.17
37 3.05
38 5.19
39 35.03
40 1.32
45 7.57
46 7.62
49 1.82
50 25.73
51 17.58
52 2.41
53 6.53
55 1.04
61 1.21
62 2.07
63 9.39
64 4.87
65 99.99
66 5.84
73 1.55
74 11.66
75 8.39
76 14.53
77 16.26
78 3.2
79 7.48
81 6.56
92 5.68
93 24.51
94 2.19
104 1.89
106 1.12
107 2.05
109 6.71
121 16.62
122 1.58
123 12.82
124 1.47
134 4.11
137 1.43
150 55.48
151 24.23
152 2.68
167 8.26
168 26.68
169 2.34

$$$$

     RDKit          2D

  6  5  0  0  0  0  0  0  0  0999 V2000
   -0.0000    1.5000    0.0000 C   0  0  0  0  0  0  0  0  0  0  0  0
   -1.2990    2.2500    0.0000 C   0  0  0  0  0  0  0  0  0  0  0  0
   -0.0000   -0.0000    0.0000 Cl  0  0  0  0  0  0  0  0  0  0  0  0
    1.2990    2.2500    0.0000 Cl  0  0  0  0  0  0  0  0  0  0  0  0
   -1.2990    3.7500    0.0000 Cl  0  0  0  0  0  0  0  0  0  0  0  0
   -2.5981    1.5000    0.0000 Cl  0  0  0  0  0  0  0  0  0  0  0  0
  2  1  2  0
  3  1  1  0
  4  1  1  0
  5  2  1  0
  6  2  1  0
M  END
>  <NAME>  (1906) 
TETRACHLOROETHYLENE

>  <SYNONYMS>  (1906) 


>  <SPECTRUM TYPE>  (1906) 
MS1

>  <INSTRUMENT TYPE>  (1906) 
EI-B

>  <INSTRUMENT>  (1906) 
HITACHI M-80A

>  <ION MODE>  (1906) 
P

>  <INCHIKEY>  (1906) 
CYTYCFOTNPOANT-UHFFFAOYSA-N

>  <FORMULA>  (1906) 
C2Cl4

>  <EXACT MASS>  (1906) 
163.87541072

>  <MW>  (1906) 
164

>  <ID>  (1906) 
JP009413

>  <CONTRIBUTOR>  (1906) 
University of Tokyo Team, {Faculty of Engineering, University of Tokyo

>  <COMMENT>  (1906) 
SMILES=ClC(Cl)=C(Cl)Cl
InChI=InChI=1S/C2Cl4/c3-1(4)2(5)6
computed SMILES=ClC(Cl)=C(Cl)Cl
accession=JP009413
date=2016.01.19 (Created 2008.10.21, modified 2011.05.06)
author=GUNMA COLLEGE OF TECHNOLOGY
license=CC BY-NC-SA
exact mass=163.87541
ionization energy=70 eV
ion type=[M]+*
computed spectral entropy=2.9031965549700605
computed normalized entropy=0.8040051380852605
SPLASH=splash10-02ce-9700000000-15e97c87ff2d3325dcde
submitter=submitter = University of Tokyo Team (Faculty of Engineering, University of Tokyo)
MoNA Rating=3.75

>  <NUM PEAKS>  (1906) 
37

>  <MASS SPECTRAL PEAKS>  (1906) 
12 11.73
24 19.94
35 87.35
36 1.71
37 26.61
47 99.99
48 1.17
49 32.56
59 50.44
60 1.26
61 16.33
70 1.53
72 1.04
82 30.93
83 2.91
84 19.5
86 2.96
94 80.34
95 1.88
96 51.6
97 1.14
98 8.28
117 1.72
119 1.57
129 97.88
130 2.11
131 90.72
132 1.98
133 29.1
135 3.04
164 79.95
165 1.65
166 97.4
167 2.29
168 46.55
169 1.03
170 9.69

$$$$

     RDKit          2D

  5  4  0  0  0  0  0  0  0  0999 V2000
   -3.8971    2.2500    0.0000 C   0  0  0  0  0  0  0  0  0  0  0  0
    1.2990    2.2500    0.0000 C   0  0  0  0  0  0  0  0  0  0  0  0
   -2.5981    1.5000    0.0000 C   0  0  0  0  0  0  0  0  0  0  0  0
    0.0000    1.5000    0.0000 C   0  0  0  0  0  0  0  0  0  0  0  0
   -1.2990    2.2500    0.0000 C   0  0  0  0  0  0  0  0  0  0  0  0
  3  1  1  0
  4  2  1  0
  5  3  1  0
  5  4  1  0
M  END
>  <NAME>  (1907) 
PENTANE

>  <SYNONYMS>  (1907) 


>  <SPECTRUM TYPE>  (1907) 
MS1

>  <INSTRUMENT TYPE>  (1907) 
EI-B

>  <INSTRUMENT>  (1907) 
HITACHI M-80A

>  <ION MODE>  (1907) 
P

>  <INCHIKEY>  (1907) 
OFBQJSOFQDEBGM-UHFFFAOYSA-N

>  <FORMULA>  (1907) 
C5H12

>  <EXACT MASS>  (1907) 
72.093900384

>  <MW>  (1907) 
72

>  <ID>  (1907) 
JP009412

>  <CONTRIBUTOR>  (1907) 
University of Tokyo Team, {Faculty of Engineering, University of Tokyo

>  <COMMENT>  (1907) 
SMILES=CCCCC
InChI=InChI=1S/C5H12/c1-3-5-4-2/h3-5H2,1-2H3
computed SMILES=CCCCC
accession=JP009412
date=2016.01.19 (Created 2008.10.21, modified 2011.05.06)
author=GUNMA COLLEGE OF TECHNOLOGY
license=CC BY-NC-SA
exact mass=72.0939
ionization energy=70 eV
ion type=[M]+*
computed spectral entropy=2.1320603537016343
computed normalized entropy=0.7376422592966076
SPLASH=splash10-0006-9000000000-9f4d0bc46cbebba40720
submitter=submitter = University of Tokyo Team (Faculty of Engineering, University of Tokyo)
MoNA Rating=3.75

>  <NUM PEAKS>  (1907) 
18

>  <MASS SPECTRAL PEAKS>  (1907) 
14 1.25
15 4.16
26 3.1
27 30.44
29 21.08
38 1.59
39 16.11
40 2.65
41 47.86
42 59.35
43 99.99
44 3.4
53 1.31
55 3.55
56 3
57 15.49
71 1.45
72 11.45

$$$$

     RDKit          2D

 14 16  0  0  0  0  0  0  0  0999 V2000
    3.0600    2.2000    0.0000 C   0  0  0  0  0  0  0  0  0  0  0  0
   -3.4300   -1.5500    0.0000 C   0  0  0  0  0  0  0  0  0  0  0  0
    1.7600    2.9500    0.0000 C   0  0  0  0  0  0  0  0  0  0  0  0
   -3.4300   -0.0500    0.0000 C   0  0  0  0  0  0  0  0  0  0  0  0
    3.0600    0.7000    0.0000 C   0  0  0  0  0  0  0  0  0  0  0  0
   -2.1300   -2.3000    0.0000 C   0  0  0  0  0  0  0  0  0  0  0  0
    0.4600    2.2000    0.0000 C   0  0  0  0  0  0  0  0  0  0  0  0
   -2.1300    0.7000    0.0000 C   0  0  0  0  0  0  0  0  0  0  0  0
    1.7600   -1.5500    0.0000 C   0  0  0  0  0  0  0  0  0  0  0  0
    0.4600   -2.3000    0.0000 C   0  0  0  0  0  0  0  0  0  0  0  0
    1.7600   -0.0500    0.0000 C   0  0  0  0  0  0  0  0  0  0  0  0
   -0.8300   -1.5500    0.0000 C   0  0  0  0  0  0  0  0  0  0  0  0
    0.4600    0.7000    0.0000 C   0  0  0  0  0  0  0  0  0  0  0  0
   -0.8300   -0.0500    0.0000 C   0  0  0  0  0  0  0  0  0  0  0  0
  3  1  2  0
  4  2  2  0
  5  1  1  0
  6  2  1  0
  7  3  1  0
  8  4  1  0
 10  9  1  0
 11  5  2  0
 11  9  1  0
 12  6  2  0
 12 10  1  0
 13  7  2  0
 13 11  1  0
 14  8  2  0
 14 12  1  0
 14 13  1  0
M  END
>  <NAME>  (1908) 
9,10-DIHYDROPHENANTHRENE

>  <SYNONYMS>  (1908) 


>  <SPECTRUM TYPE>  (1908) 
MS1

>  <INSTRUMENT TYPE>  (1908) 
EI-B

>  <INSTRUMENT>  (1908) 
HITACHI M-80A

>  <ION MODE>  (1908) 
P

>  <INCHIKEY>  (1908) 
XXPBFNVKTVJZKF-UHFFFAOYSA-N

>  <FORMULA>  (1908) 
C14H12

>  <EXACT MASS>  (1908) 
180.093900384

>  <MW>  (1908) 
180

>  <ID>  (1908) 
JP009411

>  <CONTRIBUTOR>  (1908) 
University of Tokyo Team, {Faculty of Engineering, University of Tokyo

>  <COMMENT>  (1908) 
SMILES=c(c3)cc(C1)c(c3)c(c2)c(ccc2)C1
InChI=InChI=1S/C14H12/c1-3-7-13-11(5-1)9-10-12-6-2-4-8-14(12)13/h1-8H,9-10H2
computed SMILES=C=1C=CC2=C(C1)C=3C=CC=CC3CC2
accession=JP009411
date=2016.01.19 (Created 2008.10.21, modified 2011.05.06)
author=GUNMA COLLEGE OF TECHNOLOGY
license=CC BY-NC-SA
exact mass=180.0939
ionization energy=70 eV
ion type=[M]+*
computed spectral entropy=3.272243783822527
computed normalized entropy=0.8025049012641727
SPLASH=splash10-0059-4900000000-a925caa9979d27ad3d93
submitter=submitter = University of Tokyo Team (Faculty of Engineering, University of Tokyo)
MoNA Rating=3.75

>  <NUM PEAKS>  (1908) 
59

>  <MASS SPECTRAL PEAKS>  (1908) 
26 1.25
27 9.56
29 16.1
30 1.74
31 13.43
38 2.61
39 13.66
41 1.41
44 1.32
50 6.03
51 9.78
52 2.68
56 1.1
62 3.2
63 14.8
64 2.64
65 2.14
69 1.03
74 4.89
75 7.06
76 13.92
77 5.05
78 1.09
82 1.01
83 3.2
86 2.48
87 3.77
88 5.99
89 14.34
90 5.65
91 2.32
98 1.77
99 2.31
101 1.08
102 1.98
113 1.22
115 3.65
126 2.24
127 1.57
128 2.84
139 4.06
141 1.03
150 3.69
151 9.24
152 13.02
153 3.91
154 2.39
163 1.47
164 1.89
165 29.46
166 6.26
175 1.8
176 10.15
177 8.43
178 40.84
179 57.41
180 99.99
181 11.85
182 1.38

$$$$

     RDKit          2D

 10 10  0  0  0  0  0  0  0  0999 V2000
    2.5983    0.3196    0.0000 C   0  0  0  0  0  0  0  0  0  0  0  0
    2.5988    1.8204    0.0000 C   0  0  0  0  0  0  0  0  0  0  0  0
    1.2988   -0.4312    0.0000 C   0  0  0  0  0  0  0  0  0  0  0  0
    1.2998    2.5704    0.0000 C   0  0  0  0  0  0  0  0  0  0  0  0
   -0.0002    0.3188    0.0000 C   0  0  0  0  0  0  0  0  0  0  0  0
   -1.2988    2.5696    0.0000 C   0  0  0  0  0  0  0  0  0  0  0  0
    0.0002    1.8196    0.0000 C   0  0  0  0  0  0  0  0  0  0  0  0
   -2.5978    1.8196    0.0000 C   0  0  0  0  0  0  0  0  0  0  0  0
   -3.8969    2.5696    0.0000 Cl  0  0  0  0  0  0  0  0  0  0  0  0
   -2.5978    0.3196    0.0000 O   0  0  0  0  0  0  0  0  0  0  0  0
  2  1  2  0
  3  1  1  0
  4  2  1  0
  5  3  2  0
  7  4  2  0
  7  5  1  0
  7  6  1  0
  8  6  1  0
  9  8  1  0
 10  8  2  0
M  END
>  <NAME>  (1909) 
PHENYLACETYL CHLORIDE

>  <SYNONYMS>  (1909) 


>  <SPECTRUM TYPE>  (1909) 
MS1

>  <INSTRUMENT TYPE>  (1909) 
EI-B

>  <INSTRUMENT>  (1909) 
HITACHI M-80A

>  <ION MODE>  (1909) 
P

>  <INCHIKEY>  (1909) 
VMZCDNSFRSVYKQ-UHFFFAOYSA-N

>  <FORMULA>  (1909) 
C8H7ClO

>  <EXACT MASS>  (1909) 
154.018542524

>  <MW>  (1909) 
154

>  <ID>  (1909) 
JP009410

>  <CONTRIBUTOR>  (1909) 
University of Tokyo Team, {Faculty of Engineering, University of Tokyo

>  <COMMENT>  (1909) 
SMILES=O=C(Cl)Cc(c1)cccc1
InChI=InChI=1S/C8H7ClO/c9-8(10)6-7-4-2-1-3-5-7/h1-5H,6H2
computed SMILES=O=C(Cl)CC=1C=CC=CC1
accession=JP009410
date=2016.01.19 (Created 2008.10.21, modified 2011.05.06)
author=GUNMA COLLEGE OF TECHNOLOGY
license=CC BY-NC-SA
exact mass=154.01854
ionization energy=70 eV
ion type=[M]+*
computed spectral entropy=3.0123324094887436
computed normalized entropy=0.811168426350779
SPLASH=splash10-0006-9100000000-4fabf0611b7739a53717
submitter=submitter = University of Tokyo Team (Faculty of Engineering, University of Tokyo)
MoNA Rating=3.75

>  <NUM PEAKS>  (1909) 
41

>  <MASS SPECTRAL PEAKS>  (1909) 
14 2.83
15 7.71
26 5.24
27 6.85
29 1.51
35 5.12
36 16.09
37 3.31
38 6.94
39 18.83
40 1.68
41 3.02
42 2.5
43 23.28
46 3.02
49 1.17
50 8.49
51 9.99
52 2.92
58 4.53
61 2.3
62 5.62
63 12.99
64 3.64
65 18.3
66 1.19
74 1.65
75 1.24
77 3.27
89 10.96
90 8.47
91 99.99
92 8.34
105 4.1
118 5.94
119 6.23
125 3.13
127 1.01
154 12.49
155 1.12
156 4.38

$$$$

     RDKit          2D

  7  6  0  0  0  0  0  0  0  0999 V2000
    1.6238    3.1875    0.0000 C   0  0  0  0  0  0  0  0  0  0  0  0
    0.3248    3.9375    0.0000 C   0  0  0  0  0  0  0  0  0  0  0  0
   -0.9743    3.1875    0.0000 C   0  0  0  0  0  0  0  0  0  0  0  0
   -3.5724    3.1875    0.0000 C   0  0  0  0  0  0  0  0  0  0  0  0
   -4.8714    3.9375    0.0000 Cl  0  0  0  0  0  0  0  0  0  0  0  0
   -3.5724    1.6875    0.0000 O   0  0  0  0  0  0  0  0  0  0  0  0
   -2.2733    3.9375    0.0000 O   0  0  0  0  0  0  0  0  0  0  0  0
  2  1  1  0
  3  2  1  0
  5  4  1  0
  6  4  2  0
  7  3  1  0
  7  4  1  0
M  END
>  <NAME>  (1910) 
PROPYL CHLOROFORMATE

>  <SYNONYMS>  (1910) 


>  <SPECTRUM TYPE>  (1910) 
MS1

>  <INSTRUMENT TYPE>  (1910) 
EI-B

>  <INSTRUMENT>  (1910) 
HITACHI M-80A

>  <ION MODE>  (1910) 
P

>  <INCHIKEY>  (1910) 
QQKDTTWZXHEGAQ-UHFFFAOYSA-N

>  <FORMULA>  (1910) 
C4H7ClO2

>  <EXACT MASS>  (1910) 
122.013457144

>  <MW>  (1910) 
122

>  <ID>  (1910) 
JP009409

>  <CONTRIBUTOR>  (1910) 
University of Tokyo Team, {Faculty of Engineering, University of Tokyo

>  <COMMENT>  (1910) 
SMILES=CCCOC(=O)Cl
InChI=InChI=1S/C4H7ClO2/c1-2-3-7-4(5)6/h2-3H2,1H3
computed SMILES=O=C(Cl)OCCC
accession=JP009409
date=2016.01.19 (Created 2008.10.21, modified 2011.05.06)
author=GUNMA COLLEGE OF TECHNOLOGY
license=CC BY-NC-SA
exact mass=122.01346
ionization energy=70 eV
ion type=[M]+*
computed spectral entropy=2.5146989100528403
computed normalized entropy=0.771830693383911
SPLASH=splash10-0006-9000000000-7f29b529441740743e44
submitter=submitter = University of Tokyo Team (Faculty of Engineering, University of Tokyo)
MoNA Rating=3.75

>  <NUM PEAKS>  (1910) 
26

>  <MASS SPECTRAL PEAKS>  (1910) 
14 2.42
15 9.21
16 2.23
26 9.98
27 54.05
29 15.48
30 3.76
31 5.64
35 4.34
36 4.05
37 3.09
38 5.42
39 23.97
40 6.61
41 48.63
42 83.79
43 99.99
44 14.81
45 1.49
57 2.6
59 5.08
63 25.6
65 8.44
78 1.08
93 6.79
95 2.18

$$$$

     RDKit          2D

 11 11  0  0  0  0  0  0  0  0999 V2000
   -1.6700   -0.9600    0.0000 C   0  0  0  0  0  0  0  0  0  0  0  0
   -1.6700    0.5400    0.0000 C   0  0  0  0  0  0  0  0  0  0  0  0
   -0.3700   -1.7100    0.0000 C   0  0  0  0  0  0  0  0  0  0  0  0
   -0.3700    1.2900    0.0000 C   0  0  0  0  0  0  0  0  0  0  0  0
    0.9300   -0.9600    0.0000 C   0  0  0  0  0  0  0  0  0  0  0  0
    3.5281    0.5404    0.0000 C   0  0  0  0  0  0  0  0  0  0  0  0
    0.9300    0.5400    0.0000 C   0  0  0  0  0  0  0  0  0  0  0  0
    4.8270    1.2906    0.0000 C   0  0  0  0  0  0  0  0  0  0  0  0
    4.8268    2.7906    0.0000 O   0  0  0  0  0  0  0  0  0  0  0  0
    6.1262    0.5408    0.0000 O   0  0  0  0  0  0  0  0  0  0  0  0
    2.2289    1.2902    0.0000 O   0  0  0  0  0  0  0  0  0  0  0  0
  2  1  2  0
  3  1  1  0
  4  2  1  0
  5  3  2  0
  7  4  2  0
  7  5  1  0
  8  6  1  0
  9  8  2  0
 10  8  1  0
 11  6  1  0
 11  7  1  0
M  END
>  <NAME>  (1911) 
PHENOXYACETIC ACID

>  <SYNONYMS>  (1911) 


>  <SPECTRUM TYPE>  (1911) 
MS1

>  <INSTRUMENT TYPE>  (1911) 
EI-B

>  <INSTRUMENT>  (1911) 
HITACHI M-80A

>  <ION MODE>  (1911) 
P

>  <INCHIKEY>  (1911) 
LCPDWSOZIOUXRV-UHFFFAOYSA-N

>  <FORMULA>  (1911) 
C8H8O3

>  <EXACT MASS>  (1911) 
152.04734411599998

>  <MW>  (1911) 
152

>  <ID>  (1911) 
JP009408

>  <CONTRIBUTOR>  (1911) 
University of Tokyo Team, {Faculty of Engineering, University of Tokyo

>  <COMMENT>  (1911) 
SMILES=OC(=O)COc(c1)cccc1
InChI=InChI=1S/C8H8O3/c9-8(10)6-11-7-4-2-1-3-5-7/h1-5H,6H2,(H,9,10)
computed SMILES=O=C(O)COC=1C=CC=CC1
accession=JP009408
date=2016.01.19 (Created 2008.10.21, modified 2011.05.06)
author=GUNMA COLLEGE OF TECHNOLOGY
license=CC BY-NC-SA
exact mass=152.04734
ionization energy=70 eV
ion type=[M]+*
computed spectral entropy=2.9482029345090885
computed normalized entropy=0.7992136829576186
SPLASH=splash10-0ufr-9300000000-7ad28b74c9749c6a27fb
submitter=submitter = University of Tokyo Team (Faculty of Engineering, University of Tokyo)
MoNA Rating=3.75

>  <NUM PEAKS>  (1911) 
40

>  <MASS SPECTRAL PEAKS>  (1911) 
37 4.88
38 13.3
39 49.58
40 10.97
41 2.42
42 11.66
43 13.47
44 2.91
45 29.34
46 1.16
49 1.29
50 21.31
51 56.5
52 7.03
53 2.58
55 1.86
58 3.56
59 1.48
61 2.26
62 5.9
63 11.69
64 4.21
65 29.34
66 9.62
74 5.03
75 3.01
76 3.81
77 99.99
78 13.81
79 36.43
80 2.54
92 1.78
93 1.87
94 22.51
95 2.14
105 1.04
107 71.04
108 5.71
152 92.9
153 8.56

$$$$

     RDKit          2D

 14 14  0  0  0  0  0  0  0  0999 V2000
   -1.2996   -4.1256    0.0000 C   0  0  0  0  0  0  0  0  0  0  0  0
    5.1963   -0.3752    0.0000 C   0  0  0  0  0  0  0  0  0  0  0  0
   -0.0010    2.6258    0.0000 C   0  0  0  0  0  0  0  0  0  0  0  0
   -1.3000    1.8758    0.0000 C   0  0  0  0  0  0  0  0  0  0  0  0
    1.2986    1.8750    0.0000 C   0  0  0  0  0  0  0  0  0  0  0  0
   -1.2995    0.3750    0.0000 C   0  0  0  0  0  0  0  0  0  0  0  0
   -1.2994   -2.6256    0.0000 C   0  0  0  0  0  0  0  0  0  0  0  0
    1.2990    0.3742    0.0000 C   0  0  0  0  0  0  0  0  0  0  0  0
   -0.0000   -0.3758    0.0000 C   0  0  0  0  0  0  0  0  0  0  0  0
    2.5982   -0.3756    0.0000 C   0  0  0  0  0  0  0  0  0  0  0  0
   -2.5983   -1.8754    0.0000 O   0  0  0  0  0  0  0  0  0  0  0  0
    2.5984   -1.8756    0.0000 O   0  0  0  0  0  0  0  0  0  0  0  0
    3.8971    0.3746    0.0000 O   0  0  0  0  0  0  0  0  0  0  0  0
   -0.0002   -1.8758    0.0000 O   0  0  0  0  0  0  0  0  0  0  0  0
  4  3  2  0
  5  3  1  0
  6  4  1  0
  7  1  1  0
  8  5  2  0
  9  6  2  0
  9  8  1  0
 10  8  1  0
 11  7  2  0
 12 10  2  0
 13  2  1  0
 13 10  1  0
 14  7  1  0
 14  9  1  0
M  END
>  <NAME>  (1912) 
METHYL ACETYLSALICYLATE

>  <SYNONYMS>  (1912) 
METHYL 2-ACETHOXYBENZOATE

>  <SPECTRUM TYPE>  (1912) 
MS1

>  <INSTRUMENT TYPE>  (1912) 
EI-B

>  <INSTRUMENT>  (1912) 
HITACHI M-80A

>  <ION MODE>  (1912) 
P

>  <INCHIKEY>  (1912) 
ONWPLBKWMAUFGZ-UHFFFAOYSA-N

>  <FORMULA>  (1912) 
C10H10O4

>  <EXACT MASS>  (1912) 
194.0579088

>  <MW>  (1912) 
194

>  <ID>  (1912) 
JP009407

>  <CONTRIBUTOR>  (1912) 
University of Tokyo Team, {Faculty of Engineering, University of Tokyo

>  <COMMENT>  (1912) 
SMILES=COC(=O)c(c1)c(ccc1)OC(C)=O
InChI=InChI=1S/C10H10O4/c1-7(11)14-9-6-4-3-5-8(9)10(12)13-2/h3-6H,1-2H3
computed SMILES=O=C(OC)C=1C=CC=CC1OC(=O)C
accession=JP009407
date=2016.01.19 (Created 2008.10.21, modified 2011.05.06)
author=GUNMA COLLEGE OF TECHNOLOGY
license=CC BY-NC-SA
exact mass=194.05791
ionization energy=70 eV
ion type=[M]+*
computed spectral entropy=2.6468537345994045
computed normalized entropy=0.7569992880236415
SPLASH=splash10-0fkc-9700000000-9c56fa1f8fda05f01113
submitter=submitter = University of Tokyo Team (Faculty of Engineering, University of Tokyo)
MoNA Rating=3.75

>  <NUM PEAKS>  (1912) 
33

>  <MASS SPECTRAL PEAKS>  (1912) 
15 23.79
27 1.79
29 4.1
37 2.07
38 7.73
39 12.43
41 2.62
42 4.23
43 74.89
44 1.71
50 4.07
51 2.72
52 2.41
53 4.21
59 2.17
61 1.05
62 3.8
63 17.09
64 15.84
65 12.94
66 1.23
74 1.23
76 1.68
77 4.33
92 45.1
93 7.1
95 3.47
120 99.99
121 32.32
122 2.76
152 73.68
153 7.44
163 5.5

$$$$

     RDKit          2D

  9  9  0  0  0  0  0  0  0  0999 V2000
    2.6463   -2.2604    0.0000 C   0  0  0  0  0  0  0  0  0  0  0  0
    0.0578   -2.2440    0.0000 C   0  0  0  0  0  0  0  0  0  0  0  0
   -1.2413   -1.4940    0.0000 C   0  0  0  0  0  0  0  0  0  0  0  0
    1.3678    0.0250    0.0000 C   0  0  0  0  0  0  0  0  0  0  0  0
    1.3523   -1.5018    0.0000 C   0  0  0  0  0  0  0  0  0  0  0  0
    0.0687    0.7750    0.0000 C   0  0  0  0  0  0  0  0  0  0  0  0
   -1.2804    0.0182    0.0000 C   0  0  0  0  0  0  0  0  0  0  0  0
    0.0780    2.2750    0.0000 N   0  0  0  0  0  0  0  0  0  0  0  0
   -2.5845    0.7594    0.0000 O   0  0  0  0  0  0  0  0  0  0  0  0
  3  2  2  0
  5  1  1  0
  5  2  1  0
  5  4  2  0
  6  4  1  0
  7  3  1  0
  7  6  2  0
  8  6  1  0
  9  7  1  0
M  END
>  <NAME>  (1913) 
2-AMINO-4-METHYLPHENOL

>  <SYNONYMS>  (1913) 
2-HYDROXY-5-METHYLANILINE

>  <SPECTRUM TYPE>  (1913) 
MS1

>  <INSTRUMENT TYPE>  (1913) 
EI-B

>  <INSTRUMENT>  (1913) 
HITACHI M-80A

>  <ION MODE>  (1913) 
P

>  <INCHIKEY>  (1913) 
ZMXYNJXDULEQCK-UHFFFAOYSA-N

>  <FORMULA>  (1913) 
C7H9NO

>  <EXACT MASS>  (1913) 
123.068413908

>  <MW>  (1913) 
123

>  <ID>  (1913) 
JP009406

>  <CONTRIBUTOR>  (1913) 
University of Tokyo Team, {Faculty of Engineering, University of Tokyo

>  <COMMENT>  (1913) 
SMILES=Cc(c1)cc(N)c(O)c1
InChI=InChI=1S/C7H9NO/c1-5-2-3-7(9)6(8)4-5/h2-4,9H,8H2,1H3
computed SMILES=OC1=CC=C(C=C1N)C
accession=JP009406
date=2016.01.19 (Created 2008.10.21, modified 2011.05.06)
author=GUNMA COLLEGE OF TECHNOLOGY
license=CC BY-NC-SA
exact mass=123.06841
ionization energy=70 eV
ion type=[M]+*
computed spectral entropy=3.057050292744787
computed normalized entropy=0.8030788915381984
SPLASH=splash10-00di-9700000000-f27c2cd160e872ac856d
submitter=submitter = University of Tokyo Team (Faculty of Engineering, University of Tokyo)
MoNA Rating=3.75

>  <NUM PEAKS>  (1913) 
45

>  <MASS SPECTRAL PEAKS>  (1913) 
15 2.5
17 2.43
26 2.61
27 7.12
29 3.66
37 1.02
38 3.17
39 8.75
40 2.7
41 6.67
42 3.78
46 1.64
50 4.96
51 11.76
52 8.05
53 5.58
54 4.63
55 2.67
61 1.88
62 2.14
63 4.5
64 1.7
65 6.84
66 8.43
67 8.53
68 2.62
74 1.07
75 1.42
76 2.2
77 20.64
78 34.78
79 5.12
80 7.16
92 1.49
93 8.77
94 27.71
95 3.96
96 1.36
104 3.71
105 3.7
106 20.73
107 5.58
122 46.08
123 99.99
124 8.92

$$$$

     RDKit          2D

  7  6  0  0  0  0  0  0  0  0999 V2000
    1.6238    1.6875    0.0000 C   0  0  0  0  0  0  0  0  0  0  0  0
    0.3248    3.9375    0.0000 C   0  0  0  0  0  0  0  0  0  0  0  0
   -3.5724    1.6875    0.0000 C   0  0  0  0  0  0  0  0  0  0  0  0
   -2.2733    3.9375    0.0000 C   0  0  0  0  0  0  0  0  0  0  0  0
    0.3248    2.4375    0.0000 C   0  0  0  0  0  0  0  0  0  0  0  0
   -2.2733    2.4375    0.0000 C   0  0  0  0  0  0  0  0  0  0  0  0
   -0.9743    1.6875    0.0000 N   0  0  0  0  0  0  0  0  0  0  0  0
  5  1  1  0
  5  2  1  0
  6  3  1  0
  6  4  1  0
  7  5  1  0
  7  6  1  0
M  END
>  <NAME>  (1914) 
DIISOPROPYLAMINE

>  <SYNONYMS>  (1914) 
BIS(1-METHYLETHYL)AMINE

>  <SPECTRUM TYPE>  (1914) 
MS1

>  <INSTRUMENT TYPE>  (1914) 
EI-B

>  <INSTRUMENT>  (1914) 
HITACHI M-80A

>  <ION MODE>  (1914) 
P

>  <INCHIKEY>  (1914) 
UAOMVDZJSHZZME-UHFFFAOYSA-N

>  <FORMULA>  (1914) 
C6H15N

>  <EXACT MASS>  (1914) 
101.12044947999999

>  <MW>  (1914) 
101

>  <ID>  (1914) 
JP009405

>  <CONTRIBUTOR>  (1914) 
University of Tokyo Team, {Faculty of Engineering, University of Tokyo

>  <COMMENT>  (1914) 
SMILES=CC(C)NC(C)C
InChI=InChI=1S/C6H15N/c1-5(2)7-6(3)4/h5-7H,1-4H3
computed SMILES=N(C(C)C)C(C)C
accession=JP009405
date=2016.01.19 (Created 2008.10.21, modified 2011.05.06)
author=GUNMA COLLEGE OF TECHNOLOGY
license=CC BY-NC-SA
exact mass=101.12045
ionization energy=70 eV
ion type=[M]+*
computed spectral entropy=2.130310836967727
computed normalized entropy=0.6997192106623762
SPLASH=splash10-0006-9000000000-5c86e34e4ea923cb7518
submitter=submitter = University of Tokyo Team (Faculty of Engineering, University of Tokyo)
MoNA Rating=3.75

>  <NUM PEAKS>  (1914) 
21

>  <MASS SPECTRAL PEAKS>  (1914) 
14 1.52
15 9.09
18 4.13
27 9.1
28 3.02
30 2.9
32 3.31
39 5.39
41 10.1
42 12.1
43 9.45
44 99.99
45 2.56
56 1.54
58 7.19
70 1.94
86 33.51
87 2.04
100 1.07
101 3.44
102 3.65

$$$$

     RDKit          2D

 15 15  0  0  0  0  0  0  0  0999 V2000
   -7.7940    4.8196    0.0000 C   0  0  0  0  0  0  0  0  0  0  0  0
   -6.4949    2.5696    0.0000 C   0  0  0  0  0  0  0  0  0  0  0  0
    3.8974    2.5696    0.0000 C   0  0  0  0  0  0  0  0  0  0  0  0
    3.8978    4.0704    0.0000 C   0  0  0  0  0  0  0  0  0  0  0  0
    2.5978    1.8188    0.0000 C   0  0  0  0  0  0  0  0  0  0  0  0
    2.5988    4.8204    0.0000 C   0  0  0  0  0  0  0  0  0  0  0  0
    1.2988    2.5688    0.0000 C   0  0  0  0  0  0  0  0  0  0  0  0
   -5.1959    4.8196    0.0000 C   0  0  0  0  0  0  0  0  0  0  0  0
   -3.8969    4.0696    0.0000 C   0  0  0  0  0  0  0  0  0  0  0  0
    0.0002    4.8196    0.0000 C   0  0  0  0  0  0  0  0  0  0  0  0
   -6.4949    4.0696    0.0000 C   0  0  0  0  0  0  0  0  0  0  0  0
    1.2993    4.0696    0.0000 C   0  0  0  0  0  0  0  0  0  0  0  0
   -1.2988    4.0696    0.0000 C   0  0  0  0  0  0  0  0  0  0  0  0
   -1.2988    2.5696    0.0000 O   0  0  0  0  0  0  0  0  0  0  0  0
   -2.5978    4.8196    0.0000 O   0  0  0  0  0  0  0  0  0  0  0  0
  4  3  2  0
  5  3  1  0
  6  4  1  0
  7  5  2  0
  9  8  1  0
 11  1  1  0
 11  2  1  0
 11  8  1  0
 12  6  2  0
 12  7  1  0
 12 10  1  0
 13 10  1  0
 14 13  2  0
 15  9  1  0
 15 13  1  0
M  END
>  <NAME>  (1915) 
ISOPENTYL PHENYLACETATE

>  <SYNONYMS>  (1915) 
3-METHYLBUTYL PHENYLACETATE

>  <SPECTRUM TYPE>  (1915) 
MS1

>  <INSTRUMENT TYPE>  (1915) 
EI-B

>  <INSTRUMENT>  (1915) 
HITACHI M-80A

>  <ION MODE>  (1915) 
P

>  <INCHIKEY>  (1915) 
QWBQBUWZZBUFHN-UHFFFAOYSA-N

>  <FORMULA>  (1915) 
C13H18O2

>  <EXACT MASS>  (1915) 
206.130679816

>  <MW>  (1915) 
206

>  <ID>  (1915) 
JP009404

>  <CONTRIBUTOR>  (1915) 
University of Tokyo Team, {Faculty of Engineering, University of Tokyo

>  <COMMENT>  (1915) 
SMILES=CC(C)CCOC(=O)Cc(c1)cccc1
InChI=InChI=1S/C13H18O2/c1-11(2)8-9-15-13(14)10-12-6-4-3-5-7-12/h3-7,11H,8-10H2,1-2H3
computed SMILES=O=C(OCCC(C)C)CC=1C=CC=CC1
accession=JP009404
date=2016.01.19 (Created 2008.10.21, modified 2011.05.06)
author=GUNMA COLLEGE OF TECHNOLOGY
license=CC BY-NC-SA
exact mass=206.13068
ionization energy=70 eV
ion type=[M]+*
computed spectral entropy=2.616216336895803
computed normalized entropy=0.741902683696975
SPLASH=splash10-0006-9000000000-dcdd64feb66cdbfaff3e
submitter=submitter = University of Tokyo Team (Faculty of Engineering, University of Tokyo)
MoNA Rating=3.75

>  <NUM PEAKS>  (1915) 
34

>  <MASS SPECTRAL PEAKS>  (1915) 
15 1.08
27 6.15
29 6.8
39 12.67
40 1.56
41 22.67
42 4.65
43 99.99
44 4.36
50 1.78
51 4.68
52 2.06
53 2.06
55 17.79
56 1.52
57 2.24
62 1.38
63 6.58
64 2
65 25.99
66 1.48
69 2.4
70 53.79
71 23.53
72 1.28
77 1.21
89 4.3
90 3.51
91 73.99
92 16.22
93 1.03
119 2.1
136 8.06
137 2.28

$$$$

     RDKit          2D

  8  7  0  0  0  0  0  0  0  0999 V2000
    0.0000    0.0000    0.0000 C   0  0  0  0  0  0  0  0  0  0  0  0
    1.2990    2.2500    0.0000 C   0  0  0  0  0  0  0  0  0  0  0  0
   -1.2990    2.2500    0.0000 C   0  0  0  0  0  0  0  0  0  0  0  0
    0.0000    1.5000    0.0000 C   0  0  0  0  0  0  0  0  0  0  0  0
   -2.5981    4.5000    0.0000 C   0  0  0  0  0  0  0  0  0  0  0  0
   -2.5981    6.0000    0.0000 Cl  0  0  0  0  0  0  0  0  0  0  0  0
   -3.8971    3.7500    0.0000 O   0  0  0  0  0  0  0  0  0  0  0  0
   -1.2990    3.7500    0.0000 O   0  0  0  0  0  0  0  0  0  0  0  0
  4  1  1  0
  4  2  1  0
  4  3  1  0
  6  5  1  0
  7  5  2  0
  8  3  1  0
  8  5  1  0
M  END
>  <NAME>  (1916) 
ISOBUTYL CHLOROFORMATE

>  <SYNONYMS>  (1916) 
2-METHYLPROPYL CHLOROFORMATE

>  <SPECTRUM TYPE>  (1916) 
MS1

>  <INSTRUMENT TYPE>  (1916) 
EI-B

>  <INSTRUMENT>  (1916) 
HITACHI M-80A

>  <ION MODE>  (1916) 
P

>  <INCHIKEY>  (1916) 
YOETUEMZNOLGDB-UHFFFAOYSA-N

>  <FORMULA>  (1916) 
C5H9ClO2

>  <EXACT MASS>  (1916) 
136.029107208

>  <MW>  (1916) 
136

>  <ID>  (1916) 
JP009403

>  <CONTRIBUTOR>  (1916) 
University of Tokyo Team, {Faculty of Engineering, University of Tokyo

>  <COMMENT>  (1916) 
SMILES=CC(C)COC(=O)Cl
InChI=InChI=1S/C5H9ClO2/c1-4(2)3-8-5(6)7/h4H,3H2,1-2H3
computed SMILES=O=C(Cl)OCC(C)C
accession=JP009403
date=2016.01.19 (Created 2008.10.21, modified 2011.05.06)
author=GUNMA COLLEGE OF TECHNOLOGY
license=CC BY-NC-SA
exact mass=136.02911
ionization energy=70 eV
ion type=[M]+*
computed spectral entropy=2.7522234659431453
computed normalized entropy=0.7871349961527975
SPLASH=splash10-052f-9000000000-8e1b38400446eb9522ab
submitter=submitter = University of Tokyo Team (Faculty of Engineering, University of Tokyo)
MoNA Rating=3.75

>  <NUM PEAKS>  (1916) 
33

>  <MASS SPECTRAL PEAKS>  (1916) 
15 11.04
26 8.85
27 41.03
28 1.24
29 29.5
30 1.17
31 2.28
35 4.71
36 14.16
37 3.01
38 6
39 45.67
40 8.79
41 99.99
42 11.9
43 55.28
44 27.08
45 1.44
49 1.23
50 3.86
51 3.39
53 4.25
54 1.48
55 14.62
56 68.47
57 48.14
58 2.12
62 1.45
63 12.97
65 4.28
77 1.56
94 2.08
95 1.04

$$$$

     RDKit          2D

  9  9  0  0  0  0  0  0  0  0999 V2000
   -0.0008    0.7500    0.0000 C   0  0  0  0  0  0  0  0  0  0  0  0
    1.2992   -1.5000    0.0000 C   0  0  0  0  0  0  0  0  0  0  0  0
    1.2992    1.5000    0.0000 C   0  0  0  0  0  0  0  0  0  0  0  0
    2.5992   -0.7500    0.0000 C   0  0  0  0  0  0  0  0  0  0  0  0
   -1.2998   -1.5002    0.0000 C   0  0  0  0  0  0  0  0  0  0  0  0
   -0.0008   -0.7500    0.0000 C   0  0  0  0  0  0  0  0  0  0  0  0
    2.5992    0.7500    0.0000 C   0  0  0  0  0  0  0  0  0  0  0  0
    3.8981    1.5002    0.0000 F   0  0  0  0  0  0  0  0  0  0  0  0
   -2.5989   -0.7504    0.0000 O   0  0  0  0  0  0  0  0  0  0  0  0
  3  1  2  0
  4  2  1  0
  6  1  1  0
  6  2  2  0
  6  5  1  0
  7  3  1  0
  7  4  2  0
  8  7  1  0
  9  5  2  0
M  END
>  <NAME>  (1917) 
PARA-FLUOROBENZALDEHYDE

>  <SYNONYMS>  (1917) 


>  <SPECTRUM TYPE>  (1917) 
MS1

>  <INSTRUMENT TYPE>  (1917) 
EI-B

>  <INSTRUMENT>  (1917) 
HITACHI M-80A

>  <ION MODE>  (1917) 
P

>  <INCHIKEY>  (1917) 
UOQXIWFBQSVDPP-UHFFFAOYSA-N

>  <FORMULA>  (1917) 
C7H5FO

>  <EXACT MASS>  (1917) 
124.032443

>  <MW>  (1917) 
124

>  <ID>  (1917) 
JP009402

>  <CONTRIBUTOR>  (1917) 
University of Tokyo Team, {Faculty of Engineering, University of Tokyo

>  <COMMENT>  (1917) 
SMILES=O=Cc(c1)ccc(F)c1
InChI=InChI=1S/C7H5FO/c8-7-3-1-6(5-9)2-4-7/h1-5H
computed SMILES=O=CC1=CC=C(F)C=C1
accession=JP009402
date=2016.01.19 (Created 2008.10.21, modified 2011.05.06)
author=GUNMA COLLEGE OF TECHNOLOGY
license=CC BY-NC-SA
exact mass=124.03244
ionization energy=70 eV
ion type=[M]+*
computed spectral entropy=2.855522858633961
computed normalized entropy=0.7639848221645233
SPLASH=splash10-00dj-9400000000-bccc26b19ce9ece9604e
submitter=submitter = University of Tokyo Team (Faculty of Engineering, University of Tokyo)
MoNA Rating=3.75

>  <NUM PEAKS>  (1917) 
42

>  <MASS SPECTRAL PEAKS>  (1917) 
18 1.17
26 2.62
27 2.44
29 18.18
31 6.31
36 1.11
37 8.01
38 7.43
39 7.63
43 3.11
44 1.26
45 2.02
48 2.04
49 5.23
50 29.7
51 14.75
52 2.09
53 1.24
56 2
57 6.76
61 5.16
62 5.61
63 6.3
68 8.68
69 13.63
70 13.26
73 3.72
74 15.96
75 44.71
76 5.5
77 1.76
81 1.96
92 2
93 2.33
94 6.91
95 91.74
96 20.06
97 1.32
109 2.19
123 99.99
124 93.32
125 8.35

$$$$

     RDKit          2D

  7  6  0  0  0  0  0  0  0  0999 V2000
   -0.5993    2.0625    0.0000 C   0  0  0  0  0  0  0  0  0  0  0  0
    0.6998    1.3125    0.0000 C   0  0  0  0  0  0  0  0  0  0  0  0
    1.4498    2.6115    0.0000 F   0  0  0  0  0  0  0  0  0  0  0  0
   -0.0502    0.0135    0.0000 F   0  0  0  0  0  0  0  0  0  0  0  0
    1.9988    0.5625    0.0000 F   0  0  0  0  0  0  0  0  0  0  0  0
   -0.5993    3.5625    0.0000 O   0  0  0  0  0  0  0  0  0  0  0  0
   -1.8983    1.3125    0.0000 O   0  0  0  0  0  0  0  0  0  0  0  0
  2  1  1  0
  3  2  1  0
  4  2  1  0
  5  2  1  0
  6  1  2  0
  7  1  1  0
M  END
>  <NAME>  (1918) 
TRIFLUOROACETIC ACID

>  <SYNONYMS>  (1918) 


>  <SPECTRUM TYPE>  (1918) 
MS1

>  <INSTRUMENT TYPE>  (1918) 
EI-B

>  <INSTRUMENT>  (1918) 
HITACHI M-80A

>  <ION MODE>  (1918) 
P

>  <INCHIKEY>  (1918) 
DTQVDTLACAAQTR-UHFFFAOYSA-N

>  <FORMULA>  (1918) 
C2HF3O2

>  <EXACT MASS>  (1918) 
113.992863932

>  <MW>  (1918) 
114

>  <ID>  (1918) 
JP009401

>  <CONTRIBUTOR>  (1918) 
University of Tokyo Team, {Faculty of Engineering, University of Tokyo

>  <COMMENT>  (1918) 
SMILES=OC(=O)C(F)(F)F
InChI=InChI=1S/C2HF3O2/c3-2(4,5)1(6)7/h(H,6,7)
computed SMILES=O=C(O)C(F)(F)F
accession=JP009401
date=2016.01.19 (Created 2008.10.21, modified 2011.05.06)
author=GUNMA COLLEGE OF TECHNOLOGY
license=CC BY-NC-SA
exact mass=113.99286
ionization energy=70 eV
ion type=[M]+*
computed spectral entropy=1.9375950461004887
computed normalized entropy=0.6703618802000819
SPLASH=splash10-0fr2-9000000000-aed48110ad973f60f967
submitter=submitter = University of Tokyo Team (Faculty of Engineering, University of Tokyo)
MoNA Rating=3.75

>  <NUM PEAKS>  (1918) 
18

>  <MASS SPECTRAL PEAKS>  (1918) 
17 2.98
18 3.4
29 6.88
31 13.24
44 5.09
45 99.99
46 1.17
47 2.35
50 21.76
51 43.28
67 1.06
69 73.85
70 2.56
78 2.16
86 1.69
95 6.41
97 3.96
114 1.06

$$$$

     RDKit          2D

  9  9  0  0  0  0  0  0  0  0999 V2000
    2.9228   -0.2425    0.0000 C   0  0  0  0  0  0  0  0  0  0  0  0
    2.9233    1.2583    0.0000 C   0  0  0  0  0  0  0  0  0  0  0  0
    1.6233   -0.9933    0.0000 C   0  0  0  0  0  0  0  0  0  0  0  0
    1.6243    2.0083    0.0000 C   0  0  0  0  0  0  0  0  0  0  0  0
    0.3243   -0.2433    0.0000 C   0  0  0  0  0  0  0  0  0  0  0  0
   -0.9743    2.0075    0.0000 C   0  0  0  0  0  0  0  0  0  0  0  0
   -2.2733    1.2575    0.0000 C   0  0  0  0  0  0  0  0  0  0  0  0
    0.3248    1.2575    0.0000 C   0  0  0  0  0  0  0  0  0  0  0  0
   -3.5724    2.0075    0.0000 N   0  0  0  0  0  0  0  0  0  0  0  0
  2  1  2  0
  3  1  1  0
  4  2  1  0
  5  3  2  0
  7  6  1  0
  8  4  2  0
  8  5  1  0
  8  6  1  0
  9  7  1  0
M  END
>  <NAME>  (1919) 
2-PHENYLETHYLAMINE

>  <SYNONYMS>  (1919) 


>  <SPECTRUM TYPE>  (1919) 
MS1

>  <INSTRUMENT TYPE>  (1919) 
EI-B

>  <INSTRUMENT>  (1919) 
HITACHI M-80A

>  <ION MODE>  (1919) 
P

>  <INCHIKEY>  (1919) 
BHHGXPLMPWCGHP-UHFFFAOYSA-N

>  <FORMULA>  (1919) 
C8H11N

>  <EXACT MASS>  (1919) 
121.08914935199999

>  <MW>  (1919) 
121

>  <ID>  (1919) 
JP009400

>  <CONTRIBUTOR>  (1919) 
University of Tokyo Team, {Faculty of Engineering, University of Tokyo

>  <COMMENT>  (1919) 
SMILES=NCCc(c1)cccc1
InChI=InChI=1S/C8H11N/c9-7-6-8-4-2-1-3-5-8/h1-5H,6-7,9H2
computed SMILES=NCCC=1C=CC=CC1
accession=JP009400
date=2016.01.19 (Created 2008.10.21, modified 2011.05.06)
author=GUNMA COLLEGE OF TECHNOLOGY
license=CC BY-NC-SA
exact mass=121.08915
ionization energy=70 eV
ion type=[M]+*
computed spectral entropy=2.621814943513928
computed normalized entropy=0.7060089036701301
SPLASH=splash10-053r-9000000000-f312ab6fe99f8eca86e7
submitter=submitter = University of Tokyo Team (Faculty of Engineering, University of Tokyo)
MoNA Rating=3.75

>  <NUM PEAKS>  (1919) 
41

>  <MASS SPECTRAL PEAKS>  (1919) 
15 9.26
26 1.78
27 8.76
28 5.08
29 5.8
30 99.99
31 2.13
38 1.61
39 7.69
40 1.75
41 23.98
42 14.74
43 8.48
44 7.99
45 9.12
50 2.35
51 3.19
52 1.31
53 1.05
54 1.13
55 1.03
56 4.41
57 1.45
58 91.36
59 4.19
63 2.26
65 4.83
66 1.67
70 1.21
73 2.37
74 12.39
76 1.2
77 2.06
86 3.21
91 6.52
92 2.39
94 3.07
105 1.07
106 1.12
107 1.01
121 2.14

$$$$

     RDKit          2D

  7  6  0  0  0  0  0  0  0  0999 V2000
    1.9486    2.6250    0.0000 C   0  0  0  0  0  0  0  0  0  0  0  0
   -4.5466    3.3750    0.0000 C   0  0  0  0  0  0  0  0  0  0  0  0
    0.6495    3.3750    0.0000 C   0  0  0  0  0  0  0  0  0  0  0  0
   -1.9486    3.3750    0.0000 C   0  0  0  0  0  0  0  0  0  0  0  0
   -0.6495    2.6250    0.0000 C   0  0  0  0  0  0  0  0  0  0  0  0
   -0.6495    1.1250    0.0000 N   0  0  0  0  0  0  0  0  0  0  0  0
   -3.2476    2.6250    0.0000 O   0  0  0  0  0  0  0  0  0  0  0  0
  3  1  1  0
  5  3  1  0
  5  4  1  0
  6  5  1  0
  7  2  1  0
  7  4  1  0
M  END
>  <NAME>  (1920) 
2-AMINO-1-METHOXYBUTANE

>  <SYNONYMS>  (1920) 


>  <SPECTRUM TYPE>  (1920) 
MS1

>  <INSTRUMENT TYPE>  (1920) 
EI-B

>  <INSTRUMENT>  (1920) 
HITACHI M-80A

>  <ION MODE>  (1920) 
P

>  <INCHIKEY>  (1920) 
QAFODUGVXFNLBE-UHFFFAOYSA-N

>  <FORMULA>  (1920) 
C5H13NO

>  <EXACT MASS>  (1920) 
103.099714036

>  <MW>  (1920) 
103

>  <ID>  (1920) 
JP009399

>  <CONTRIBUTOR>  (1920) 
University of Tokyo Team, {Faculty of Engineering, University of Tokyo

>  <COMMENT>  (1920) 
SMILES=CCC(N)COC
InChI=InChI=1S/C5H13NO/c1-3-5(6)4-7-2/h5H,3-4,6H2,1-2H3
computed SMILES=O(C)CC(N)CC
accession=JP009399
date=2016.01.19 (Created 2008.10.21, modified 2011.05.06)
author=GUNMA COLLEGE OF TECHNOLOGY
license=CC BY-NC-SA
exact mass=103.09971
ionization energy=70 eV
ion type=[M]+*
computed spectral entropy=2.8081407393619764
computed normalized entropy=0.8102581437591581
SPLASH=splash10-0a4i-9000000000-cefd1378e618fe975e11
submitter=submitter = University of Tokyo Team (Faculty of Engineering, University of Tokyo)
MoNA Rating=3.75

>  <NUM PEAKS>  (1920) 
32

>  <MASS SPECTRAL PEAKS>  (1920) 
15 12.03
17 8.5
18 34.51
26 2
27 12.74
28 9.15
29 9.89
30 33.42
31 9.75
39 3.77
40 1.1
41 25.26
42 16.19
43 9.84
44 10.55
45 13.61
47 2.59
54 1.3
55 1.4
56 5.69
57 2.53
58 99.99
59 15.72
70 1.95
71 1.42
72 1.33
74 11.86
75 2.46
86 21.72
87 1.4
100 1.34
101 3.97

$$$$

     RDKit          2D

  6  5  0  0  0  0  0  0  0  0999 V2000
   -0.0000   -0.0000    0.0000 C   0  0  0  0  0  0  0  0  0  0  0  0
   -1.2990    3.7500    0.0000 C   0  0  0  0  0  0  0  0  0  0  0  0
   -0.0000    1.5000    0.0000 C   0  0  0  0  0  0  0  0  0  0  0  0
   -1.2990    2.2500    0.0000 C   0  0  0  0  0  0  0  0  0  0  0  0
    1.2990    2.2500    0.0000 O   0  0  0  0  0  0  0  0  0  0  0  0
   -2.5981    1.5000    0.0000 O   0  0  0  0  0  0  0  0  0  0  0  0
  3  1  1  0
  4  2  1  0
  4  3  1  0
  5  3  1  0
  6  4  1  0
M  END
>  <NAME>  (1921) 
2,3-BUTANEDIOL

>  <SYNONYMS>  (1921) 


>  <SPECTRUM TYPE>  (1921) 
MS1

>  <INSTRUMENT TYPE>  (1921) 
EI-B

>  <INSTRUMENT>  (1921) 
HITACHI M-80A

>  <ION MODE>  (1921) 
P

>  <INCHIKEY>  (1921) 
OWBTYPJTUOEWEK-UHFFFAOYSA-N

>  <FORMULA>  (1921) 
C4H10O2

>  <EXACT MASS>  (1921) 
90.06807956

>  <MW>  (1921) 
90

>  <ID>  (1921) 
JP009398

>  <CONTRIBUTOR>  (1921) 
University of Tokyo Team, {Faculty of Engineering, University of Tokyo

>  <COMMENT>  (1921) 
SMILES=CC(O)C(C)O
InChI=InChI=1S/C4H10O2/c1-3(5)4(2)6/h3-6H,1-2H3
computed SMILES=OC(C)C(O)C
accession=JP009398
date=2016.01.19 (Created 2008.10.21, modified 2011.05.06)
author=GUNMA COLLEGE OF TECHNOLOGY
license=CC BY-NC-SA
exact mass=90.06808
ionization energy=70 eV
ion type=[M]+*
computed spectral entropy=2.0289155941673327
computed normalized entropy=0.6772686638517019
SPLASH=splash10-0002-9000000000-39d2dfc0a50d8ba018c7
submitter=submitter = University of Tokyo Team (Faculty of Engineering, University of Tokyo)
MoNA Rating=3.75

>  <NUM PEAKS>  (1921) 
20

>  <MASS SPECTRAL PEAKS>  (1921) 
15 5.01
17 2.59
18 10.97
19 5.95
26 1.9
27 11.12
29 10.29
31 3.25
39 1.4
41 1.37
42 2.59
43 15.53
44 5.09
45 99.99
46 3.51
47 4.92
55 1.93
57 8.94
75 2.53
90 1.01

$$$$

     RDKit          2D

  7  6  0  0  0  0  0  0  0  0999 V2000
    1.6238    1.6875    0.0000 C   0  0  0  0  0  0  0  0  0  0  0  0
   -3.5724    1.6875    0.0000 C   0  0  0  0  0  0  0  0  0  0  0  0
    0.3248    2.4375    0.0000 C   0  0  0  0  0  0  0  0  0  0  0  0
   -0.9743    1.6875    0.0000 C   0  0  0  0  0  0  0  0  0  0  0  0
    0.3248    3.9375    0.0000 O   0  0  0  0  0  0  0  0  0  0  0  0
   -0.9743    0.1875    0.0000 O   0  0  0  0  0  0  0  0  0  0  0  0
   -2.2733    2.4375    0.0000 O   0  0  0  0  0  0  0  0  0  0  0  0
  3  1  1  0
  4  3  1  0
  5  3  1  0
  6  4  2  0
  7  2  1  0
  7  4  1  0
M  END
>  <NAME>  (1922) 
METHYL LACTATE

>  <SYNONYMS>  (1922) 


>  <SPECTRUM TYPE>  (1922) 
MS1

>  <INSTRUMENT TYPE>  (1922) 
EI-B

>  <INSTRUMENT>  (1922) 
HITACHI M-80A

>  <ION MODE>  (1922) 
P

>  <INCHIKEY>  (1922) 
LPEKGGXMPWTOCB-UHFFFAOYSA-N

>  <FORMULA>  (1922) 
C4H8O3

>  <EXACT MASS>  (1922) 
104.04734411599999

>  <MW>  (1922) 
104

>  <ID>  (1922) 
JP009397

>  <CONTRIBUTOR>  (1922) 
University of Tokyo Team, {Faculty of Engineering, University of Tokyo

>  <COMMENT>  (1922) 
SMILES=COC(=O)C(C)O
InChI=InChI=1S/C4H8O3/c1-3(5)4(6)7-2/h3,5H,1-2H3
computed SMILES=O=C(OC)C(O)C
accession=JP009397
date=2016.01.19 (Created 2008.10.21, modified 2011.05.06)
author=GUNMA COLLEGE OF TECHNOLOGY
license=CC BY-NC-SA
exact mass=104.04734
ionization energy=70 eV
ion type=[M]+*
computed spectral entropy=1.8192599788458645
computed normalized entropy=0.6561593373921724
SPLASH=splash10-0002-9000000000-3061a851e855572fc251
submitter=submitter = University of Tokyo Team (Faculty of Engineering, University of Tokyo)
MoNA Rating=3.75

>  <NUM PEAKS>  (1922) 
16

>  <MASS SPECTRAL PEAKS>  (1922) 
15 11.73
19 4.23
26 2.02
27 9.25
29 14.42
30 2.38
31 2.48
33 17.18
42 2.18
43 13.78
44 2.32
45 99.99
46 2.29
55 1.02
59 2.93
61 3.29

$$$$

     RDKit          2D

  7  6  0  0  0  0  0  0  0  0999 V2000
    1.9486    2.6250    0.0000 C   0  0  0  0  0  0  0  0  0  0  0  0
    0.6495    3.3750    0.0000 C   0  0  0  0  0  0  0  0  0  0  0  0
   -3.2476    2.6250    0.0000 C   0  0  0  0  0  0  0  0  0  0  0  0
   -1.9486    3.3750    0.0000 C   0  0  0  0  0  0  0  0  0  0  0  0
   -4.5466    3.3750    0.0000 Cl  0  0  0  0  0  0  0  0  0  0  0  0
   -1.9486    4.8750    0.0000 O   0  0  0  0  0  0  0  0  0  0  0  0
   -0.6495    2.6250    0.0000 O   0  0  0  0  0  0  0  0  0  0  0  0
  2  1  1  0
  4  3  1  0
  5  3  1  0
  6  4  2  0
  7  2  1  0
  7  4  1  0
M  END
>  <NAME>  (1923) 
ETHYL CHLOROACETATE

>  <SYNONYMS>  (1923) 


>  <SPECTRUM TYPE>  (1923) 
MS1

>  <INSTRUMENT TYPE>  (1923) 
EI-B

>  <INSTRUMENT>  (1923) 
HITACHI M-80A

>  <ION MODE>  (1923) 
P

>  <INCHIKEY>  (1923) 
VEUUMBGHMNQHGO-UHFFFAOYSA-N

>  <FORMULA>  (1923) 
C4H7ClO2

>  <EXACT MASS>  (1923) 
122.013457144

>  <MW>  (1923) 
122

>  <ID>  (1923) 
JP009396

>  <CONTRIBUTOR>  (1923) 
University of Tokyo Team, {Faculty of Engineering, University of Tokyo

>  <COMMENT>  (1923) 
SMILES=CCOC(=O)CCl
InChI=InChI=1S/C4H7ClO2/c1-2-7-4(6)3-5/h2-3H2,1H3
computed SMILES=O=C(OCC)CCl
accession=JP009396
date=2016.01.19 (Created 2008.10.21, modified 2011.05.06)
author=GUNMA COLLEGE OF TECHNOLOGY
license=CC BY-NC-SA
exact mass=122.01346
ionization energy=70 eV
ion type=[M]+*
computed spectral entropy=2.2083321432670764
computed normalized entropy=0.6777982535189434
SPLASH=splash10-004i-9000000000-78ea053650de1feba7a8
submitter=submitter = University of Tokyo Team (Faculty of Engineering, University of Tokyo)
MoNA Rating=3.75

>  <NUM PEAKS>  (1923) 
26

>  <MASS SPECTRAL PEAKS>  (1923) 
15 3.59
18 1.49
26 4.24
27 25.56
29 99.99
30 2.18
31 2.29
41 1.11
42 11.84
43 4.48
45 4.63
47 1.35
48 2.31
49 18.82
50 1.31
51 6.07
60 1.03
73 1.56
76 1.26
77 27.81
78 1.08
79 8.99
94 3.54
95 1.77
96 1.18
106 1.62

$$$$

     RDKit          2D

  7  6  0  0  0  0  0  0  0  0999 V2000
    1.2990    2.2500    0.0000 C   0  0  0  0  0  0  0  0  0  0  0  0
   -3.8971    2.2500    0.0000 C   0  0  0  0  0  0  0  0  0  0  0  0
   -0.0000    0.0000    0.0000 C   0  0  0  0  0  0  0  0  0  0  0  0
    0.0000    3.0000    0.0000 C   0  0  0  0  0  0  0  0  0  0  0  0
   -2.5981    3.0000    0.0000 C   0  0  0  0  0  0  0  0  0  0  0  0
   -1.2990    0.7500    0.0000 C   0  0  0  0  0  0  0  0  0  0  0  0
   -1.2990    2.2500    0.0000 N   0  0  0  0  0  0  0  0  0  0  0  0
  4  1  1  0
  5  2  1  0
  6  3  1  0
  7  4  1  0
  7  5  1  0
  7  6  1  0
M  END
>  <NAME>  (1924) 
TRIETHYLAMINE

>  <SYNONYMS>  (1924) 


>  <SPECTRUM TYPE>  (1924) 
MS1

>  <INSTRUMENT TYPE>  (1924) 
EI-B

>  <INSTRUMENT>  (1924) 
HITACHI M-80A

>  <ION MODE>  (1924) 
P

>  <INCHIKEY>  (1924) 
ZMANZCXQSJIPKH-UHFFFAOYSA-N

>  <FORMULA>  (1924) 
C6H15N

>  <EXACT MASS>  (1924) 
101.12044947999999

>  <MW>  (1924) 
101

>  <ID>  (1924) 
JP009395

>  <CONTRIBUTOR>  (1924) 
University of Tokyo Team, {Faculty of Engineering, University of Tokyo

>  <COMMENT>  (1924) 
SMILES=CCN(CC)CC
InChI=InChI=1S/C6H15N/c1-4-7(5-2)6-3/h4-6H2,1-3H3
computed SMILES=N(CC)(CC)CC
accession=JP009395
date=2016.01.19 (Created 2008.10.21, modified 2011.05.06)
author=GUNMA COLLEGE OF TECHNOLOGY
license=CC BY-NC-SA
exact mass=101.12045
ionization energy=70 eV
ion type=[M]+*
computed spectral entropy=2.4708448910134106
computed normalized entropy=0.7774710633969636
SPLASH=splash10-000i-9000000000-5ac6f611cfc4eb91767d
submitter=submitter = University of Tokyo Team (Faculty of Engineering, University of Tokyo)
MoNA Rating=3.75

>  <NUM PEAKS>  (1924) 
24

>  <MASS SPECTRAL PEAKS>  (1924) 
15 6.43
18 3.19
26 2.76
27 18.75
28 11.13
29 19.41
30 34.44
39 1.34
41 3.95
42 16.1
43 2.34
44 12.65
54 1.71
56 7.85
57 2.16
58 25.39
70 3.43
71 1.38
72 2.95
86 99.99
87 5.9
100 5.81
101 19.15
102 1.59

$$$$

     RDKit          2D

  8  8  0  0  0  0  0  0  0  0999 V2000
   -2.9228    0.8825    0.0000 C   0  0  0  0  0  0  0  0  0  0  0  0
    2.2733   -0.6175    0.0000 C   0  0  0  0  0  0  0  0  0  0  0  0
    0.9738   -1.3683    0.0000 C   0  0  0  0  0  0  0  0  0  0  0  0
    2.2738    0.8833    0.0000 C   0  0  0  0  0  0  0  0  0  0  0  0
   -0.3252   -0.6183    0.0000 C   0  0  0  0  0  0  0  0  0  0  0  0
    0.9748    1.6333    0.0000 C   0  0  0  0  0  0  0  0  0  0  0  0
   -0.3248    0.8825    0.0000 C   0  0  0  0  0  0  0  0  0  0  0  0
   -1.6238    1.6325    0.0000 N   0  0  0  0  0  0  0  0  0  0  0  0
  3  2  2  0
  4  2  1  0
  5  3  1  0
  6  4  2  0
  7  5  2  0
  7  6  1  0
  8  1  1  0
  8  7  1  0
M  END
>  <NAME>  (1925) 
N-METHYLANILINE

>  <SYNONYMS>  (1925) 


>  <SPECTRUM TYPE>  (1925) 
MS1

>  <INSTRUMENT TYPE>  (1925) 
EI-B

>  <INSTRUMENT>  (1925) 
HITACHI M-80A

>  <ION MODE>  (1925) 
P

>  <INCHIKEY>  (1925) 
AFBPFSWMIHJQDM-UHFFFAOYSA-N

>  <FORMULA>  (1925) 
C7H9N

>  <EXACT MASS>  (1925) 
107.073499288

>  <MW>  (1925) 
107

>  <ID>  (1925) 
JP009394

>  <CONTRIBUTOR>  (1925) 
University of Tokyo Team, {Faculty of Engineering, University of Tokyo

>  <COMMENT>  (1925) 
SMILES=CNc(c1)cccc1
InChI=InChI=1S/C7H9N/c1-8-7-5-3-2-4-6-7/h2-6,8H,1H3
computed SMILES=C=1C=CC(=CC1)NC
accession=JP009394
date=2016.01.19 (Created 2008.10.21, modified 2011.05.06)
author=GUNMA COLLEGE OF TECHNOLOGY
license=CC BY-NC-SA
exact mass=107.0735
ionization energy=70 eV
ion type=[M]+*
computed spectral entropy=2.6631660174260485
computed normalized entropy=0.7269335894046
SPLASH=splash10-0a4i-8900000000-cbdbd95e115ae809ed94
submitter=submitter = University of Tokyo Team (Faculty of Engineering, University of Tokyo)
MoNA Rating=3.75

>  <NUM PEAKS>  (1925) 
39

>  <MASS SPECTRAL PEAKS>  (1925) 
15 4.87
26 1.87
27 4.64
28 5.9
29 1.42
30 5.44
37 2.46
38 5.71
39 15.96
40 2.07
41 1.75
42 1.26
49 1.05
50 10.25
51 19.84
52 7.62
53 5.21
54 1.59
61 1
62 1.99
63 5.31
64 4.07
65 12.62
66 2.51
74 3.16
75 1.87
76 1.98
77 27.07
78 10.03
79 14.88
80 1.99
91 1.79
92 3.06
93 1.42
104 3.57
105 1.41
106 99.13
107 99.99
108 8.11

$$$$

     RDKit          2D

  6  6  0  0  0  0  0  0  0  0999 V2000
    2.0279    0.1311    0.0000 C   0  0  0  0  0  0  0  0  0  0  0  0
    1.2779   -1.1679    0.0000 C   0  0  0  0  0  0  0  0  0  0  0  0
    0.9958    1.2235    0.0000 C   0  0  0  0  0  0  0  0  0  0  0  0
   -0.1745   -0.8836    0.0000 C   0  0  0  0  0  0  0  0  0  0  0  0
   -0.3540    0.6056    0.0000 C   0  0  0  0  0  0  0  0  0  0  0  0
   -1.6625    1.3389    0.0000 O   0  0  0  0  0  0  0  0  0  0  0  0
  2  1  1  0
  3  1  2  0
  4  2  1  0
  5  3  1  0
  5  4  1  0
  6  5  2  0
M  END
>  <NAME>  (1926) 
2-CYCLOPENTEN-1-ONE

>  <SYNONYMS>  (1926) 


>  <SPECTRUM TYPE>  (1926) 
MS1

>  <INSTRUMENT TYPE>  (1926) 
EI-B

>  <INSTRUMENT>  (1926) 
HITACHI M-80A

>  <ION MODE>  (1926) 
P

>  <INCHIKEY>  (1926) 
BZKFMUIJRXWWQK-UHFFFAOYSA-N

>  <FORMULA>  (1926) 
C5H6O

>  <EXACT MASS>  (1926) 
82.041864812

>  <MW>  (1926) 
82

>  <ID>  (1926) 
JP009393

>  <CONTRIBUTOR>  (1926) 
University of Tokyo Team, {Faculty of Engineering, University of Tokyo

>  <COMMENT>  (1926) 
SMILES=O=C(C1)C=CC1
InChI=InChI=1S/C5H6O/c6-5-3-1-2-4-5/h1,3H,2,4H2
computed SMILES=O=C1C=CCC1
accession=JP009393
date=2016.01.19 (Created 2008.10.21, modified 2011.05.06)
author=GUNMA COLLEGE OF TECHNOLOGY
license=CC BY-NC-SA
exact mass=82.04186
ionization energy=70 eV
ion type=[M]+*
computed spectral entropy=2.5973621288152677
computed normalized entropy=0.7880736318008817
SPLASH=splash10-0ugr-9000000000-2497ac0a9ea1814cf8fa
submitter=submitter = University of Tokyo Team (Faculty of Engineering, University of Tokyo)
MoNA Rating=3.75

>  <NUM PEAKS>  (1926) 
27

>  <MASS SPECTRAL PEAKS>  (1926) 
13 1.21
15 2.97
18 5.7
25 3.77
26 31.69
27 48.22
29 3.71
36 1.15
37 7.67
38 10.61
39 99.99
40 4.41
41 2.6
42 6.18
43 2.4
49 4.75
50 16.51
51 15.14
52 7.6
53 45.33
54 49.3
55 18.74
56 8.23
61 1.2
81 12.58
82 96.03
83 6.04

$$$$

     RDKit          2D

  5  4  0  0  0  0  0  0  0  0999 V2000
   -1.2990    0.7500    0.0000 C   0  0  0  0  0  0  0  0  0  0  0  0
    0.7500    0.2010    0.0000 C   0  0  0  0  0  0  0  0  0  0  0  0
    1.2990    2.2500    0.0000 C   0  0  0  0  0  0  0  0  0  0  0  0
    0.0000    1.5000    0.0000 C   0  0  0  0  0  0  0  0  0  0  0  0
   -0.7500    2.7990    0.0000 N   0  0  0  0  0  0  0  0  0  0  0  0
  4  1  1  0
  4  2  1  0
  4  3  1  0
  5  4  1  0
M  END
>  <NAME>  (1927) 
TERT-BUTYLAMINE

>  <SYNONYMS>  (1927) 


>  <SPECTRUM TYPE>  (1927) 
MS1

>  <INSTRUMENT TYPE>  (1927) 
EI-B

>  <INSTRUMENT>  (1927) 
HITACHI M-80A

>  <ION MODE>  (1927) 
P

>  <INCHIKEY>  (1927) 
YBRBMKDOPFTVDT-UHFFFAOYSA-N

>  <FORMULA>  (1927) 
C4H11N

>  <EXACT MASS>  (1927) 
73.089149352

>  <MW>  (1927) 
73

>  <ID>  (1927) 
JP009392

>  <CONTRIBUTOR>  (1927) 
University of Tokyo Team, {Faculty of Engineering, University of Tokyo

>  <COMMENT>  (1927) 
SMILES=CC(C)(C)N
InChI=InChI=1S/C4H11N/c1-4(2,3)5/h5H2,1-3H3
computed SMILES=NC(C)(C)C
accession=JP009392
date=2016.01.19 (Created 2008.10.21, modified 2011.05.06)
author=GUNMA COLLEGE OF TECHNOLOGY
license=CC BY-NC-SA
exact mass=73.08915
ionization energy=70 eV
ion type=[M]+*
computed spectral entropy=1.9385678283695043
computed normalized entropy=0.6842293865502278
SPLASH=splash10-0a4i-9000000000-e9a6fa0232bce8893f53
submitter=submitter = University of Tokyo Team (Faculty of Engineering, University of Tokyo)
MoNA Rating=3.75

>  <NUM PEAKS>  (1927) 
17

>  <MASS SPECTRAL PEAKS>  (1927) 
15 9.71
26 1.28
27 5.01
28 1.9
29 4.23
30 10.72
31 1.06
39 6.52
40 1.86
41 18.76
42 14.8
43 3.98
55 1.59
56 2.34
57 6.52
58 99.99
59 12.46

$$$$

     RDKit          2D

  6  5  0  0  0  0  0  0  0  0999 V2000
    0.0502    1.3125    0.0000 C   0  0  0  0  0  0  0  0  0  0  0  0
    0.8002    0.0135    0.0000 H   0  0  0  0  0  0  0  0  0  0  0  0
   -0.6998    2.6115    0.0000 H   0  0  0  0  0  0  0  0  0  0  0  0
   -1.2488    0.5625    0.0000 H   0  0  0  0  0  0  0  0  0  0  0  0
    1.3493    2.0625    0.0000 O   0  0  0  0  0  0  0  0  0  0  0  0
    1.3493    3.5625    0.0000 H   0  0  0  0  0  0  0  0  0  0  0  0
  1  2  1  0
  1  3  1  0
  1  4  1  0
  5  6  1  0
  5  1  1  0
M  ISO  4   2   2   3   2   4   2   6   2
M  END
>  <NAME>  (1928) 
METHANOL (D4)

>  <SYNONYMS>  (1928) 
METHYL ALCOHOL (D4)

>  <SPECTRUM TYPE>  (1928) 
MS1

>  <INSTRUMENT TYPE>  (1928) 
EI-B

>  <INSTRUMENT>  (1928) 
HITACHI M-80A

>  <ION MODE>  (1928) 
P

>  <INCHIKEY>  (1928) 
OKKJLVBELUTLKV-MZCSYVLQSA-N

>  <FORMULA>  (1928) 
CH4O

>  <EXACT MASS>  (1928) 
36.051321732

>  <MW>  (1928) 
36

>  <ID>  (1928) 
JP009391

>  <CONTRIBUTOR>  (1928) 
University of Tokyo Team, {Faculty of Engineering, University of Tokyo

>  <COMMENT>  (1928) 
SMILES=[2H]C([2H])([2H])O[2H]
InChI=InChI=1S/CH4O/c1-2/h2H,1H3/i1D3,2D
computed SMILES=[H]OC([H])([H])[H]
accession=JP009391
date=2016.01.19 (Created 2008.10.21, modified 2011.05.06)
author=GUNMA COLLEGE OF TECHNOLOGY
license=CC BY-NC-SA
exact mass=32.02621
ionization energy=70 eV
ion type=[M]+*
computed spectral entropy=1.6906612899257838
computed normalized entropy=0.6803721540485324
SPLASH=splash10-001i-9000000000-14ea8d185227ede9bff7
submitter=submitter = University of Tokyo Team (Faculty of Engineering, University of Tokyo)
MoNA Rating=3.75

>  <NUM PEAKS>  (1928) 
12

>  <MASS SPECTRAL PEAKS>  (1928) 
2 1.33
4 1.35
18 38.99
20 1.36
28 1
30 53.09
33 6.96
34 99.99
35 6.13
36 64.52
37 1.69
38 8.09

$$$$

     RDKit          2D

 11 11  0  0  0  0  0  0  0  0999 V2000
   -1.6700   -0.9600    0.0000 C   0  0  0  0  0  0  0  0  0  0  0  0
   -1.6700    0.5400    0.0000 C   0  0  0  0  0  0  0  0  0  0  0  0
   -0.3700   -1.7100    0.0000 C   0  0  0  0  0  0  0  0  0  0  0  0
   -0.3700    1.2900    0.0000 C   0  0  0  0  0  0  0  0  0  0  0  0
    0.9300   -0.9600    0.0000 C   0  0  0  0  0  0  0  0  0  0  0  0
    3.5281    0.5404    0.0000 C   0  0  0  0  0  0  0  0  0  0  0  0
    0.9300    0.5400    0.0000 C   0  0  0  0  0  0  0  0  0  0  0  0
    4.8270    1.2906    0.0000 C   0  0  0  0  0  0  0  0  0  0  0  0
    6.1262    0.5408    0.0000 Cl  0  0  0  0  0  0  0  0  0  0  0  0
    4.8268    2.7906    0.0000 O   0  0  0  0  0  0  0  0  0  0  0  0
    2.2289    1.2902    0.0000 O   0  0  0  0  0  0  0  0  0  0  0  0
  2  1  2  0
  3  1  1  0
  4  2  1  0
  5  3  2  0
  7  4  2  0
  7  5  1  0
  8  6  1  0
  9  8  1  0
 10  8  2  0
 11  6  1  0
 11  7  1  0
M  END
>  <NAME>  (1929) 
PHENOXYACETYL CHLORIDE

>  <SYNONYMS>  (1929) 


>  <SPECTRUM TYPE>  (1929) 
MS1

>  <INSTRUMENT TYPE>  (1929) 
EI-B

>  <INSTRUMENT>  (1929) 
HITACHI M-80A

>  <ION MODE>  (1929) 
P

>  <INCHIKEY>  (1929) 
PKUPAJQAJXVUEK-UHFFFAOYSA-N

>  <FORMULA>  (1929) 
C8H7ClO2

>  <EXACT MASS>  (1929) 
170.013457144

>  <MW>  (1929) 
170

>  <ID>  (1929) 
JP009390

>  <CONTRIBUTOR>  (1929) 
University of Tokyo Team, {Faculty of Engineering, University of Tokyo

>  <COMMENT>  (1929) 
SMILES=O=C(Cl)COc(c1)cccc1
InChI=InChI=1S/C8H7ClO2/c9-8(10)6-11-7-4-2-1-3-5-7/h1-5H,6H2
computed SMILES=O=C(Cl)COC=1C=CC=CC1
accession=JP009390
date=2016.01.19 (Created 2008.10.21, modified 2011.05.06)
author=GUNMA COLLEGE OF TECHNOLOGY
license=CC BY-NC-SA
exact mass=170.01346
ionization energy=70 eV
ion type=[M]+*
computed spectral entropy=3.0787508591288475
computed normalized entropy=0.8041366480423303
SPLASH=splash10-0570-9300000000-8b6666b03521d9c8b37f
submitter=submitter = University of Tokyo Team (Faculty of Engineering, University of Tokyo)
MoNA Rating=3.75

>  <NUM PEAKS>  (1929) 
46

>  <MASS SPECTRAL PEAKS>  (1929) 
26 3.24
27 5.22
28 35.34
29 7.52
30 3.29
35 11.65
36 60.58
37 3.88
38 19.46
39 31.01
40 4
41 1.04
42 6.64
43 2.28
48 1.03
49 6.57
50 13.87
51 32.4
52 2.8
53 1.5
54 2.47
55 1.99
61 1.73
62 3.44
63 7.76
64 3.35
65 25.26
66 8.9
74 3.56
75 2.51
76 3.04
77 84.27
78 7.85
79 18.19
80 1.19
93 2.47
94 27.59
95 1.89
105 1.45
107 99.99
108 7.86
142 8.47
144 2.81
170 26.35
171 2.41
172 8.69

$$$$

     RDKit          2D

  6  5  0  0  0  0  0  0  0  0999 V2000
    1.2990    2.2500    0.0000 C   0  0  0  0  0  0  0  0  0  0  0  0
    0.0000    3.0000    0.0000 C   0  0  0  0  0  0  0  0  0  0  0  0
   -2.5981    3.0000    0.0000 C   0  0  0  0  0  0  0  0  0  0  0  0
   -3.8971    2.2500    0.0000 Cl  0  0  0  0  0  0  0  0  0  0  0  0
   -2.5981    4.5000    0.0000 O   0  0  0  0  0  0  0  0  0  0  0  0
   -1.2990    2.2500    0.0000 O   0  0  0  0  0  0  0  0  0  0  0  0
  2  1  1  0
  4  3  1  0
  5  3  2  0
  6  2  1  0
  6  3  1  0
M  END
>  <NAME>  (1930) 
ETHYL CHLOROFORMATE

>  <SYNONYMS>  (1930) 


>  <SPECTRUM TYPE>  (1930) 
MS1

>  <INSTRUMENT TYPE>  (1930) 
EI-B

>  <INSTRUMENT>  (1930) 
HITACHI M-80A

>  <ION MODE>  (1930) 
P

>  <INCHIKEY>  (1930) 
RIFGWPKJUGCATF-UHFFFAOYSA-N

>  <FORMULA>  (1930) 
C3H5ClO2

>  <EXACT MASS>  (1930) 
107.99780708

>  <MW>  (1930) 
108

>  <ID>  (1930) 
JP009389

>  <CONTRIBUTOR>  (1930) 
University of Tokyo Team, {Faculty of Engineering, University of Tokyo

>  <COMMENT>  (1930) 
SMILES=CCOC(=O)Cl
InChI=InChI=1S/C3H5ClO2/c1-2-6-3(4)5/h2H2,1H3
computed SMILES=O=C(Cl)OCC
accession=JP009389
date=2016.01.19 (Created 2008.10.21, modified 2011.05.06)
author=GUNMA COLLEGE OF TECHNOLOGY
license=CC BY-NC-SA
exact mass=107.99781
ionization energy=70 eV
ion type=[M]+*
computed spectral entropy=1.943347346140967
computed normalized entropy=0.6723520394329776
SPLASH=splash10-004i-9000000000-9799a824c9ed6db1e8ae
submitter=submitter = University of Tokyo Team (Faculty of Engineering, University of Tokyo)
MoNA Rating=3.75

>  <NUM PEAKS>  (1930) 
18

>  <MASS SPECTRAL PEAKS>  (1930) 
15 6.19
18 2.18
25 1.24
26 9.85
27 35.57
29 99.99
30 2.88
35 4.8
36 1.7
37 1.54
42 1.05
43 3.12
44 8.03
45 7.2
63 21.33
64 2.5
65 6.93
93 2.66

$$$$

     RDKit          2D

  5  4  0  0  0  0  0  0  0  0999 V2000
   -0.0000   -0.0000    0.0000 C   0  0  0  0  0  0  0  0  0  0  0  0
   -1.2990    2.2500    0.0000 C   0  0  0  0  0  0  0  0  0  0  0  0
   -1.2990    3.7500    0.0000 Cl  0  0  0  0  0  0  0  0  0  0  0  0
   -2.5981    1.5000    0.0000 O   0  0  0  0  0  0  0  0  0  0  0  0
    0.0000    1.5000    0.0000 O   0  0  0  0  0  0  0  0  0  0  0  0
  3  2  1  0
  4  2  2  0
  5  1  1  0
  5  2  1  0
M  END
>  <NAME>  (1931) 
METHYL CHLOROFORMATE

>  <SYNONYMS>  (1931) 


>  <SPECTRUM TYPE>  (1931) 
MS1

>  <INSTRUMENT TYPE>  (1931) 
EI-B

>  <INSTRUMENT>  (1931) 
HITACHI M-80A

>  <ION MODE>  (1931) 
P

>  <INCHIKEY>  (1931) 
XMJHPCRAQCTCFT-UHFFFAOYSA-N

>  <FORMULA>  (1931) 
C2H3ClO2

>  <EXACT MASS>  (1931) 
93.982157016

>  <MW>  (1931) 
94

>  <ID>  (1931) 
JP009388

>  <CONTRIBUTOR>  (1931) 
University of Tokyo Team, {Faculty of Engineering, University of Tokyo

>  <COMMENT>  (1931) 
SMILES=COC(=O)Cl
InChI=InChI=1S/C2H3ClO2/c1-5-2(3)4/h1H3
computed SMILES=O=C(Cl)OC
accession=JP009388
date=2016.01.19 (Created 2008.10.21, modified 2011.05.06)
author=GUNMA COLLEGE OF TECHNOLOGY
license=CC BY-NC-SA
exact mass=93.98216
ionization energy=70 eV
ion type=[M]+*
computed spectral entropy=2.150413513453751
computed normalized entropy=0.6858292075708751
SPLASH=splash10-0aor-9000000000-41d68cc515056d55f728
submitter=submitter = University of Tokyo Team (Faculty of Engineering, University of Tokyo)
MoNA Rating=3.75

>  <NUM PEAKS>  (1931) 
23

>  <MASS SPECTRAL PEAKS>  (1931) 
12 1.44
13 2.05
14 6.09
15 75.81
16 2.22
18 2.39
28 6.28
29 23.82
30 4.44
31 4.8
35 10.01
36 2.19
37 3.26
44 10.42
47 1.05
49 1.04
50 3.96
52 1.23
59 99.99
60 2.34
63 25.22
65 8.32
94 2.07

$$$$

     RDKit          2D

 11 11  0  0  0  0  0  0  0  0999 V2000
   -3.5381    0.5444    0.0000 C   0  0  0  0  0  0  0  0  0  0  0  0
    1.6590    2.0456    0.0000 C   0  0  0  0  0  0  0  0  0  0  0  0
    0.3600    2.7956    0.0000 C   0  0  0  0  0  0  0  0  0  0  0  0
    0.3590   -0.2060    0.0000 C   0  0  0  0  0  0  0  0  0  0  0  0
    2.9576   -0.2052    0.0000 C   0  0  0  0  0  0  0  0  0  0  0  0
    1.6586    0.5448    0.0000 C   0  0  0  0  0  0  0  0  0  0  0  0
   -0.9395    2.0448    0.0000 C   0  0  0  0  0  0  0  0  0  0  0  0
   -0.9400    0.5440    0.0000 C   0  0  0  0  0  0  0  0  0  0  0  0
    4.2566    0.5448    0.0000 O   0  0  0  0  0  0  0  0  0  0  0  0
   -2.2386    2.7948    0.0000 O   0  0  0  0  0  0  0  0  0  0  0  0
   -2.2392   -0.2058    0.0000 O   0  0  0  0  0  0  0  0  0  0  0  0
  3  2  2  0
  6  2  1  0
  6  4  2  0
  6  5  1  0
  7  3  1  0
  8  4  1  0
  8  7  2  0
  9  5  2  0
 10  7  1  0
 11  1  1  0
 11  8  1  0
M  END
>  <NAME>  (1932) 
VANILLIN

>  <SYNONYMS>  (1932) 
4-HYDROXY-3-METHOXYBENZALDEHYDE

>  <SPECTRUM TYPE>  (1932) 
MS1

>  <INSTRUMENT TYPE>  (1932) 
EI-B

>  <INSTRUMENT>  (1932) 
HITACHI M-80A

>  <ION MODE>  (1932) 
P

>  <INCHIKEY>  (1932) 
MWOOGOJBHIARFG-UHFFFAOYSA-N

>  <FORMULA>  (1932) 
C8H8O3

>  <EXACT MASS>  (1932) 
152.04734411599998

>  <MW>  (1932) 
152

>  <ID>  (1932) 
JP009387

>  <CONTRIBUTOR>  (1932) 
University of Tokyo Team, {Faculty of Engineering, University of Tokyo

>  <COMMENT>  (1932) 
SMILES=O=Cc(c1)cc(OC)c(O)c1
InChI=InChI=1S/C8H8O3/c1-11-8-4-6(5-9)2-3-7(8)10/h2-5,10H,1H3
computed SMILES=O=CC1=CC=C(O)C(OC)=C1
accession=JP009387
date=2016.01.19 (Created 2008.10.21, modified 2011.05.06)
author=GUNMA COLLEGE OF TECHNOLOGY
license=CC BY-NC-SA
exact mass=152.04734
ionization energy=70 eV
ion type=[M]+*
computed spectral entropy=3.0638101358255083
computed normalized entropy=0.8002342916301994
SPLASH=splash10-0udi-9800000000-d8f749f48a78e7c9c3bf
submitter=submitter = University of Tokyo Team (Faculty of Engineering, University of Tokyo)
MoNA Rating=3.75

>  <NUM PEAKS>  (1932) 
46

>  <MASS SPECTRAL PEAKS>  (1932) 
15 11.57
26 3.45
27 11.95
29 19.6
31 2.39
37 3.51
38 6.53
39 13.32
41 4.32
49 2.2
50 12.44
51 21.29
52 21.41
53 14.26
54 1.7
55 5.91
61 2.73
62 6.02
63 10.23
64 2.49
65 11.25
66 2.11
67 3.88
74 1.55
75 1.2
77 5.79
79 7.52
80 5.83
81 39.21
82 2.2
91 1.49
92 2.02
93 2.36
95 2.97
108 7.96
109 23.2
110 1.63
121 1.03
123 12.89
124 2.19
136 1.93
137 6.41
151 87.18
152 99.99
153 9.73
154 1

$$$$

     RDKit          2D

 10 10  0  0  0  0  0  0  0  0999 V2000
   -2.5981   -0.4300    0.0000 C   0  0  0  0  0  0  0  0  0  0  0  0
   -1.2986   -1.1808    0.0000 C   0  0  0  0  0  0  0  0  0  0  0  0
   -2.5986    1.0708    0.0000 C   0  0  0  0  0  0  0  0  0  0  0  0
    0.0005   -0.4308    0.0000 C   0  0  0  0  0  0  0  0  0  0  0  0
   -1.2995    1.8208    0.0000 C   0  0  0  0  0  0  0  0  0  0  0  0
    0.0000    1.0700    0.0000 C   0  0  0  0  0  0  0  0  0  0  0  0
    1.2990    1.8200    0.0000 C   0  0  0  0  0  0  0  0  0  0  0  0
    2.0490    0.5210    0.0000 Cl  0  0  0  0  0  0  0  0  0  0  0  0
    2.5981    2.5700    0.0000 Cl  0  0  0  0  0  0  0  0  0  0  0  0
    0.5490    3.1190    0.0000 Cl  0  0  0  0  0  0  0  0  0  0  0  0
  2  1  2  0
  3  1  1  0
  4  2  1  0
  5  3  2  0
  6  4  2  0
  6  5  1  0
  7  6  1  0
  8  7  1  0
  9  7  1  0
 10  7  1  0
M  END
>  <NAME>  (1933) 
ALPHA,ALPHA,ALPHA-TRICHLOROTOLUENE

>  <SYNONYMS>  (1933) 


>  <SPECTRUM TYPE>  (1933) 
MS1

>  <INSTRUMENT TYPE>  (1933) 
EI-B

>  <INSTRUMENT>  (1933) 
HITACHI M-80A

>  <ION MODE>  (1933) 
P

>  <INCHIKEY>  (1933) 
XEMRAKSQROQPBR-UHFFFAOYSA-N

>  <FORMULA>  (1933) 
C7H5Cl3

>  <EXACT MASS>  (1933) 
193.9456832

>  <MW>  (1933) 
194

>  <ID>  (1933) 
JP009386

>  <CONTRIBUTOR>  (1933) 
University of Tokyo Team, {Faculty of Engineering, University of Tokyo

>  <COMMENT>  (1933) 
SMILES=c(c1)ccc(c1)C(Cl)(Cl)Cl
InChI=InChI=1S/C7H5Cl3/c8-7(9,10)6-4-2-1-3-5-6/h1-5H
computed SMILES=ClC(Cl)(Cl)C=1C=CC=CC1
accession=JP009386
date=2016.01.19 (Created 2008.10.21, modified 2011.05.06)
author=GUNMA COLLEGE OF TECHNOLOGY
license=CC BY-NC-SA
exact mass=193.94568
ionization energy=70 eV
ion type=[M]+*
computed spectral entropy=3.0275549289324823
computed normalized entropy=0.7739103079740544
SPLASH=splash10-08fr-7900000000-4bc1c2ead3b82090149d
submitter=submitter = University of Tokyo Team (Faculty of Engineering, University of Tokyo)
MoNA Rating=3.75

>  <NUM PEAKS>  (1933) 
50

>  <MASS SPECTRAL PEAKS>  (1933) 
26 3.5
27 2.84
35 4.56
36 1.52
37 4.6
38 5.15
39 11.58
43 2.53
44 3.3
47 1.78
49 2.86
50 10.02
51 7.68
60 1.72
61 7.47
62 13.42
63 17.45
64 1.12
72 2.71
73 5.89
74 2.57
75 2.74
77 2.36
80 3.9
81 2.49
84 2.05
85 2.89
86 3.49
87 3.74
88 1.33
89 25.75
90 1.97
96 1.23
97 4.29
99 3.51
105 1.14
107 1.08
123 8.51
124 6.62
125 3.38
126 2.15
133 2.12
135 1.28
159 99.99
160 7.94
161 64.4
162 5.05
163 10.56
194 2.92
196 2.8

$$$$

     RDKit          2D

  4  3  0  0  0  0  0  0  0  0999 V2000
    0.9743    0.5625    0.0000 C   0  0  0  0  0  0  0  0  0  0  0  0
   -1.6238    0.5625    0.0000 C   0  0  0  0  0  0  0  0  0  0  0  0
   -0.3248    1.3125    0.0000 C   0  0  0  0  0  0  0  0  0  0  0  0
   -0.3248    2.8125    0.0000 I   0  0  0  0  0  0  0  0  0  0  0  0
  3  1  1  0
  3  2  1  0
  4  3  1  0
M  END
>  <NAME>  (1934) 
ISOPROPYLIODIDE

>  <SYNONYMS>  (1934) 
2-IODOPROPANE

>  <SPECTRUM TYPE>  (1934) 
MS1

>  <INSTRUMENT TYPE>  (1934) 
EI-B

>  <INSTRUMENT>  (1934) 
HITACHI M-80A

>  <ION MODE>  (1934) 
P

>  <INCHIKEY>  (1934) 
FMKOJHQHASLBPH-UHFFFAOYSA-N

>  <FORMULA>  (1934) 
C3H7I

>  <EXACT MASS>  (1934) 
169.959248224

>  <MW>  (1934) 
170

>  <ID>  (1934) 
JP009385

>  <CONTRIBUTOR>  (1934) 
University of Tokyo Team, {Faculty of Engineering, University of Tokyo

>  <COMMENT>  (1934) 
SMILES=CC(C)I
InChI=InChI=1S/C3H7I/c1-3(2)4/h3H,1-2H3
computed SMILES=IC(C)C
accession=JP009385
date=2016.01.19 (Created 2008.10.21, modified 2011.05.06)
author=GUNMA COLLEGE OF TECHNOLOGY
license=CC BY-NC-SA
exact mass=169.95924
ionization energy=70 eV
ion type=[M]+*
computed spectral entropy=1.9568000661194653
computed normalized entropy=0.7225863336370291
SPLASH=splash10-0006-9100000000-5fcad140e69aa79e09df
submitter=submitter = University of Tokyo Team (Faculty of Engineering, University of Tokyo)
MoNA Rating=3.75

>  <NUM PEAKS>  (1934) 
15

>  <MASS SPECTRAL PEAKS>  (1934) 
15 3.04
26 3.8
27 40.37
37 2.2
38 4.23
39 22.76
40 3.51
41 47.29
42 4.34
43 99.99
44 3.29
45 1.08
127 13.16
128 2.03
170 22.12

$$$$

     RDKit          2D

  7  6  0  0  0  0  0  0  0  0999 V2000
    1.9486    2.6250    0.0000 C   0  0  0  0  0  0  0  0  0  0  0  0
    0.6495    3.3750    0.0000 C   0  0  0  0  0  0  0  0  0  0  0  0
   -3.2476    2.6250    0.0000 C   0  0  0  0  0  0  0  0  0  0  0  0
   -1.9486    3.3750    0.0000 C   0  0  0  0  0  0  0  0  0  0  0  0
   -4.5466    3.3750    0.0000 Br  0  0  0  0  0  0  0  0  0  0  0  0
   -1.9486    4.8750    0.0000 O   0  0  0  0  0  0  0  0  0  0  0  0
   -0.6495    2.6250    0.0000 O   0  0  0  0  0  0  0  0  0  0  0  0
  2  1  1  0
  4  3  1  0
  5  3  1  0
  6  4  2  0
  7  2  1  0
  7  4  1  0
M  END
>  <NAME>  (1935) 
ETHYL BROMOACETATE

>  <SYNONYMS>  (1935) 
BROMOACETIC ACID ETHYL ESTER

>  <SPECTRUM TYPE>  (1935) 
MS1

>  <INSTRUMENT TYPE>  (1935) 
EI-B

>  <INSTRUMENT>  (1935) 
HITACHI M-80A

>  <ION MODE>  (1935) 
P

>  <INCHIKEY>  (1935) 
PQJJJMRNHATNKG-UHFFFAOYSA-N

>  <FORMULA>  (1935) 
C4H7BrO2

>  <EXACT MASS>  (1935) 
165.962941564

>  <MW>  (1935) 
166

>  <ID>  (1935) 
JP009384

>  <CONTRIBUTOR>  (1935) 
University of Tokyo Team, {Faculty of Engineering, University of Tokyo

>  <COMMENT>  (1935) 
SMILES=CCOC(=O)CBr
InChI=InChI=1S/C4H7BrO2/c1-2-7-4(6)3-5/h2-3H2,1H3
computed SMILES=O=C(OCC)CBr
accession=JP009384
date=2016.01.19 (Created 2008.10.21, modified 2011.05.06)
author=GUNMA COLLEGE OF TECHNOLOGY
license=CC BY-NC-SA
exact mass=165.96294
ionization energy=70 eV
ion type=[M]+*
computed spectral entropy=2.675850529382704
computed normalized entropy=0.7792255387229642
SPLASH=splash10-004i-9200000000-02c73dfeab6459048fa0
submitter=submitter = University of Tokyo Team (Faculty of Engineering, University of Tokyo)
MoNA Rating=3.75

>  <NUM PEAKS>  (1935) 
31

>  <MASS SPECTRAL PEAKS>  (1935) 
15 7.57
26 5.29
27 31.24
28 9.67
29 99.99
30 2.21
31 3.99
41 3.48
42 22.77
43 18.01
45 7.34
60 2.78
73 2.04
79 1.49
81 1.46
87 3.59
93 9.6
94 3.91
95 8.86
96 3.01
107 1.9
109 1.91
121 16.31
122 1.2
123 15.92
138 6.74
139 2.23
140 6.6
141 2.2
166 4.41
168 4.39

$$$$

     RDKit          2D

  6  6  0  0  0  0  0  0  0  0999 V2000
   -1.6300   -0.8021    0.0000 C   0  0  0  0  0  0  0  0  0  0  0  0
    1.7671    1.0800    0.0000 C   0  0  0  0  0  0  0  0  0  0  0  0
    0.2671    1.0800    0.0000 C   0  0  0  0  0  0  0  0  0  0  0  0
    2.2271   -0.3400    0.0000 C   0  0  0  0  0  0  0  0  0  0  0  0
   -0.2029   -0.3400    0.0000 C   0  0  0  0  0  0  0  0  0  0  0  0
    1.0171   -1.2200    0.0000 O   0  0  0  0  0  0  0  0  0  0  0  0
  3  2  1  0
  4  2  2  0
  5  1  1  0
  5  3  2  0
  6  4  1  0
  6  5  1  0
M  END
>  <NAME>  (1936) 
2-METHYLFURAN

>  <SYNONYMS>  (1936) 


>  <SPECTRUM TYPE>  (1936) 
MS1

>  <INSTRUMENT TYPE>  (1936) 
EI-B

>  <INSTRUMENT>  (1936) 
HITACHI RMU-7M

>  <ION MODE>  (1936) 
P

>  <INCHIKEY>  (1936) 
VQKFNUFAXTZWDK-UHFFFAOYSA-N

>  <FORMULA>  (1936) 
C5H6O

>  <EXACT MASS>  (1936) 
82.041864812

>  <MW>  (1936) 
82

>  <ID>  (1936) 
JP009383

>  <CONTRIBUTOR>  (1936) 
University of Tokyo Team, {Faculty of Engineering, University of Tokyo

>  <COMMENT>  (1936) 
SMILES=Cc(c1)occ1
InChI=InChI=1S/C5H6O/c1-5-3-2-4-6-5/h2-4H,1H3
computed SMILES=O1C=CC=C1C
accession=JP009383
date=2016.01.19 (Created 2008.10.21, modified 2011.05.06)
author=GUNMA COLLEGE OF TECHNOLOGY
license=CC BY-NC-SA
exact mass=82.04186
ionization energy=70 eV
ion type=[M]+*
computed spectral entropy=2.517717317112016
computed normalized entropy=0.8404346874846459
SPLASH=splash10-0f89-9000000000-733dc14912326031365c
submitter=submitter = University of Tokyo Team (Faculty of Engineering, University of Tokyo)
MoNA Rating=3.75

>  <NUM PEAKS>  (1936) 
20

>  <MASS SPECTRAL PEAKS>  (1936) 
26 8.26
27 34.5
28 20.47
29 21.99
37 4.02
38 6.44
39 48.9
40 15.77
41 4.62
43 20.32
49 2.2
50 11.83
51 13.04
52 7.2
53 74.15
54 14.63
55 4.4
81 55.04
82 99.99
83 5.23

$$$$

     RDKit          2D

  7  6  0  0  0  0  0  0  0  0999 V2000
    1.6238    1.6875    0.0000 C   0  0  0  0  0  0  0  0  0  0  0  0
    0.3248    3.9375    0.0000 C   0  0  0  0  0  0  0  0  0  0  0  0
   -3.5724    1.6875    0.0000 C   0  0  0  0  0  0  0  0  0  0  0  0
   -2.2733    3.9375    0.0000 C   0  0  0  0  0  0  0  0  0  0  0  0
    0.3248    2.4375    0.0000 C   0  0  0  0  0  0  0  0  0  0  0  0
   -2.2733    2.4375    0.0000 C   0  0  0  0  0  0  0  0  0  0  0  0
   -0.9743    1.6875    0.0000 O   0  0  0  0  0  0  0  0  0  0  0  0
  5  1  1  0
  5  2  1  0
  6  3  1  0
  6  4  1  0
  7  5  1  0
  7  6  1  0
M  END
>  <NAME>  (1937) 
DIISOPROPYL ETHER

>  <SYNONYMS>  (1937) 
BIS(1-METHYLETHYL)ETHER

>  <SPECTRUM TYPE>  (1937) 
MS1

>  <INSTRUMENT TYPE>  (1937) 
EI-B

>  <INSTRUMENT>  (1937) 
HITACHI RMU-7M

>  <ION MODE>  (1937) 
P

>  <INCHIKEY>  (1937) 
ZAFNJMIOTHYJRJ-UHFFFAOYSA-N

>  <FORMULA>  (1937) 
C6H14O

>  <EXACT MASS>  (1937) 
102.104465068

>  <MW>  (1937) 
102

>  <ID>  (1937) 
JP009382

>  <CONTRIBUTOR>  (1937) 
University of Tokyo Team, {Faculty of Engineering, University of Tokyo

>  <COMMENT>  (1937) 
SMILES=CC(C)OC(C)C
InChI=InChI=1S/C6H14O/c1-5(2)7-6(3)4/h5-6H,1-4H3
computed SMILES=O(C(C)C)C(C)C
accession=JP009382
date=2016.01.19 (Created 2008.10.21, modified 2011.05.06)
author=GUNMA COLLEGE OF TECHNOLOGY
license=CC BY-NC-SA
exact mass=102.10447
ionization energy=70 eV
ion type=[M]+*
computed spectral entropy=1.7878195853131387
computed normalized entropy=0.6448196124338571
SPLASH=splash10-0005-9000000000-c2418649ec72e9cd2ec1
submitter=submitter = University of Tokyo Team (Faculty of Engineering, University of Tokyo)
MoNA Rating=3.75

>  <NUM PEAKS>  (1937) 
16

>  <MASS SPECTRAL PEAKS>  (1937) 
15 2.13
27 6.31
28 1.13
31 2.48
39 4.25
41 10.77
42 2.69
43 41.89
44 2.13
45 99.99
46 2.13
59 10.91
69 2.69
87 23.39
88 1.28
102 1.56

$$$$

     RDKit          2D

  4  3  0  0  0  0  0  0  0  0999 V2000
   -2.5981    2.2500    0.0000 C   0  0  0  0  0  0  0  0  0  0  0  0
   -1.2990    1.5000    0.0000 C   0  0  0  0  0  0  0  0  0  0  0  0
    0.0000    2.2500    0.0000 C   0  0  0  0  0  0  0  0  0  0  0  0
    1.2990    1.5000    0.0000 N   0  0  0  0  0  0  0  0  0  0  0  0
  2  1  2  0
  3  2  1  0
  4  3  1  0
M  END
>  <NAME>  (1938) 
3-AMINO-1-PROPENE

>  <SYNONYMS>  (1938) 
ALLYLAMINE

>  <SPECTRUM TYPE>  (1938) 
MS1

>  <INSTRUMENT TYPE>  (1938) 
EI-B

>  <INSTRUMENT>  (1938) 
HITACHI RMU-7M

>  <ION MODE>  (1938) 
P

>  <INCHIKEY>  (1938) 
VVJKKWFAADXIJK-UHFFFAOYSA-N

>  <FORMULA>  (1938) 
C3H7N

>  <EXACT MASS>  (1938) 
57.057849223999995

>  <MW>  (1938) 
57

>  <ID>  (1938) 
JP009381

>  <CONTRIBUTOR>  (1938) 
University of Tokyo Team, {Faculty of Engineering, University of Tokyo

>  <COMMENT>  (1938) 
SMILES=C=CCN
InChI=InChI=1S/C3H7N/c1-2-3-4/h2H,1,3-4H2
computed SMILES=C=CCN
accession=JP009381
date=2016.01.19 (Created 2008.10.21, modified 2011.05.06)
author=GUNMA COLLEGE OF TECHNOLOGY
license=CC BY-NC-SA
exact mass=57.05785
ionization energy=70 eV
ion type=[M]+*
computed spectral entropy=2.292377471775334
computed normalized entropy=0.7311056292591589
SPLASH=splash10-0a7i-9000000000-275fa9d59bf4f05055f2
submitter=submitter = University of Tokyo Team (Faculty of Engineering, University of Tokyo)
MoNA Rating=3.75

>  <NUM PEAKS>  (1938) 
23

>  <MASS SPECTRAL PEAKS>  (1938) 
14 4.24
15 2.74
25 2.26
26 10.38
26.5 1.65
27 15.1
28 62.59
29 18.87
30 99.99
31 2.36
37 2.97
38 5.28
39 21.13
40 3.06
41 9.67
42 3.35
51 2.41
52 4.72
54 6.84
55 2.74
56 98.31
57 38.77
58 1.46

$$$$

     RDKit          2D

  5  4  0  0  0  0  0  0  0  0999 V2000
   -1.2990    0.7500    0.0000 C   0  0  0  0  0  0  0  0  0  0  0  0
    0.7500    0.2010    0.0000 C   0  0  0  0  0  0  0  0  0  0  0  0
    1.2990    2.2500    0.0000 C   0  0  0  0  0  0  0  0  0  0  0  0
    0.0000    1.5000    0.0000 C   0  0  0  0  0  0  0  0  0  0  0  0
   -0.7500    2.7990    0.0000 Br  0  0  0  0  0  0  0  0  0  0  0  0
  4  1  1  0
  4  2  1  0
  4  3  1  0
  5  4  1  0
M  END
>  <NAME>  (1939) 
TERT-BUTYLBROMIDE

>  <SYNONYMS>  (1939) 
2-METHYL-2-BROMOPROPANE

>  <SPECTRUM TYPE>  (1939) 
MS1

>  <INSTRUMENT TYPE>  (1939) 
EI-B

>  <INSTRUMENT>  (1939) 
HITACHI RMU-7M

>  <ION MODE>  (1939) 
P

>  <INCHIKEY>  (1939) 
RKSOPLXZQNSWAS-UHFFFAOYSA-N

>  <FORMULA>  (1939) 
C4H9Br

>  <EXACT MASS>  (1939) 
135.988762388

>  <MW>  (1939) 
136

>  <ID>  (1939) 
JP009380

>  <CONTRIBUTOR>  (1939) 
University of Tokyo Team, {Faculty of Engineering, University of Tokyo

>  <COMMENT>  (1939) 
SMILES=CC(C)(C)Br
InChI=InChI=1S/C4H9Br/c1-4(2,3)5/h1-3H3
computed SMILES=BrC(C)(C)C
accession=JP009380
date=2016.01.19 (Created 2008.10.21, modified 2011.05.06)
author=GUNMA COLLEGE OF TECHNOLOGY
license=CC BY-NC-SA
exact mass=135.98876
ionization energy=70 eV
ion type=[M]+*
computed spectral entropy=2.3284105492784524
computed normalized entropy=0.7532767939659679
SPLASH=splash10-0a4l-9000000000-daeda0b9a146ab317d1b
submitter=submitter = University of Tokyo Team (Faculty of Engineering, University of Tokyo)
MoNA Rating=3.75

>  <NUM PEAKS>  (1939) 
22

>  <MASS SPECTRAL PEAKS>  (1939) 
15 1.92
26 2.57
27 13.55
28 10.59
29 24.86
36 6.66
37 2.57
38 6.09
39 33.92
40 6.58
41 99.99
42 4.33
50 4.01
51 3.45
53 4.01
54 1.68
55 14.92
56 37.13
57 65.12
58 2.89
136 1.68
138 1.68

$$$$

     RDKit          2D

  5  4  0  0  0  0  0  0  0  0999 V2000
   -3.8971    2.2500    0.0000 C   0  0  0  0  0  0  0  0  0  0  0  0
    1.2990    2.2500    0.0000 C   0  0  0  0  0  0  0  0  0  0  0  0
   -2.5981    1.5000    0.0000 C   0  0  0  0  0  0  0  0  0  0  0  0
    0.0000    1.5000    0.0000 C   0  0  0  0  0  0  0  0  0  0  0  0
   -1.2990    2.2500    0.0000 C   0  0  0  0  0  0  0  0  0  0  0  0
  3  1  1  0
  4  2  1  0
  5  3  1  0
  5  4  1  0
M  END
>  <NAME>  (1940) 
PENTANE

>  <SYNONYMS>  (1940) 


>  <SPECTRUM TYPE>  (1940) 
MS1

>  <INSTRUMENT TYPE>  (1940) 
EI-B

>  <INSTRUMENT>  (1940) 
HITACHI RMU-6M

>  <ION MODE>  (1940) 
P

>  <INCHIKEY>  (1940) 
OFBQJSOFQDEBGM-UHFFFAOYSA-N

>  <FORMULA>  (1940) 
C5H12

>  <EXACT MASS>  (1940) 
72.093900384

>  <MW>  (1940) 
72

>  <ID>  (1940) 
JP009345

>  <CONTRIBUTOR>  (1940) 
University of Tokyo Team, {Faculty of Engineering, University of Tokyo

>  <COMMENT>  (1940) 
SMILES=CCCCC
InChI=InChI=1S/C5H12/c1-3-5-4-2/h3-5H2,1-2H3
computed SMILES=CCCCC
accession=JP009345
date=2016.01.19 (Created 2008.10.21, modified 2011.05.06)
author=YAMAMOTO M, DEP. CHEMISTRY, FAC. SCIENCE, NARA WOMEN'S UNIV.
license=CC BY-NC-SA
exact mass=72.0939
ionization energy=70 eV
ion type=[M]+*
computed spectral entropy=1.7897410563584102
computed normalized entropy=0.6781743754764631
SPLASH=splash10-0006-9000000000-0165dd3056ca8d4d0cb5
submitter=submitter = University of Tokyo Team (Faculty of Engineering, University of Tokyo)
MoNA Rating=3.75

>  <NUM PEAKS>  (1940) 
14

>  <MASS SPECTRAL PEAKS>  (1940) 
26 1.6
27 21.9
28 3.4
29 1.86
39 10.6
40 1.8
41 37.3
42 6.09
43 99.99
44 2.7
55 2.8
56 0.22
57 14.5
72 14

$$$$

     RDKit          2D

  6  5  0  0  0  0  0  0  0  0999 V2000
   -4.5466    3.3750    0.0000 C   0  0  0  0  0  0  0  0  0  0  0  0
    1.9486    2.6250    0.0000 C   0  0  0  0  0  0  0  0  0  0  0  0
   -3.2476    2.6250    0.0000 C   0  0  0  0  0  0  0  0  0  0  0  0
    0.6495    3.3750    0.0000 C   0  0  0  0  0  0  0  0  0  0  0  0
   -1.9486    3.3750    0.0000 C   0  0  0  0  0  0  0  0  0  0  0  0
   -0.6495    2.6250    0.0000 C   0  0  0  0  0  0  0  0  0  0  0  0
  3  1  1  0
  4  2  1  0
  5  3  1  0
  6  4  1  0
  6  5  1  0
M  END
>  <NAME>  (1941) 
HEXANE

>  <SYNONYMS>  (1941) 


>  <SPECTRUM TYPE>  (1941) 
MS1

>  <INSTRUMENT TYPE>  (1941) 
EI-B

>  <INSTRUMENT>  (1941) 
HITACHI RMU-6M

>  <ION MODE>  (1941) 
P

>  <INCHIKEY>  (1941) 
VLKZOEOYAKHREP-UHFFFAOYSA-N

>  <FORMULA>  (1941) 
C6H14

>  <EXACT MASS>  (1941) 
86.109550448

>  <MW>  (1941) 
86

>  <ID>  (1941) 
JP009344

>  <CONTRIBUTOR>  (1941) 
University of Tokyo Team, {Faculty of Engineering, University of Tokyo

>  <COMMENT>  (1941) 
SMILES=CCCCCC
InChI=InChI=1S/C6H14/c1-3-5-6-4-2/h3-6H2,1-2H3
computed SMILES=CCCCCC
accession=JP009344
date=2016.01.19 (Created 2008.10.21, modified 2011.05.06)
author=YAMAMOTO M, DEP. CHEMISTRY, FAC. SCIENCE, NARA WOMEN'S UNIV.
license=CC BY-NC-SA
exact mass=86.10955
ionization energy=70 eV
ion type=[M]+*
computed spectral entropy=2.2097674037244843
computed normalized entropy=0.7047588837824272
SPLASH=splash10-052f-9000000000-d534432d96279fe04f73
submitter=submitter = University of Tokyo Team (Faculty of Engineering, University of Tokyo)
MoNA Rating=3.75

>  <NUM PEAKS>  (1941) 
23

>  <MASS SPECTRAL PEAKS>  (1941) 
26 2
27 26.2
28 6.2
29 4.04
30 1.4
37 1.3
39 14.9
40 0.25
41 62.4
42 36.6
43 70.6
44 0.24
51 1.2
53 2
55 6.9
56 4.9
57 99.99
58 4.5
69 1
70 0.1
72 6.3
86 25.7
87 1.9

$$$$

     RDKit          2D

 26 29  0  0  0  0  0  0  0  0999 V2000
   -6.0281   -0.0496    0.0000 C   0  0  0  0  0  0  0  0  0  0  0  0
    6.9576   -6.0504    0.0000 C   0  0  0  0  0  0  0  0  0  0  0  0
    8.2570   -3.8006    0.0000 C   0  0  0  0  0  0  0  0  0  0  0  0
    3.0600    2.2000    0.0000 C   0  0  0  0  0  0  0  0  0  0  0  0
    1.7600    2.9500    0.0000 C   0  0  0  0  0  0  0  0  0  0  0  0
    3.0600    0.7000    0.0000 C   0  0  0  0  0  0  0  0  0  0  0  0
    0.4600    2.2000    0.0000 C   0  0  0  0  0  0  0  0  0  0  0  0
   -3.4300   -1.5500    0.0000 C   0  0  0  0  0  0  0  0  0  0  0  0
   -2.1300   -2.3000    0.0000 C   0  0  0  0  0  0  0  0  0  0  0  0
    3.0589   -3.8002    0.0000 C   0  0  0  0  0  0  0  0  0  0  0  0
    4.3589   -1.5502    0.0000 C   0  0  0  0  0  0  0  0  0  0  0  0
    4.3589   -4.5502    0.0000 C   0  0  0  0  0  0  0  0  0  0  0  0
    5.6589   -2.3002    0.0000 C   0  0  0  0  0  0  0  0  0  0  0  0
   -2.1300    0.7000    0.0000 C   0  0  0  0  0  0  0  0  0  0  0  0
    0.4600   -2.3000    0.0000 C   0  0  0  0  0  0  0  0  0  0  0  0
   -4.7289    0.7002    0.0000 C   0  0  0  0  0  0  0  0  0  0  0  0
    3.0589   -2.3002    0.0000 C   0  0  0  0  0  0  0  0  0  0  0  0
   -3.4300   -0.0500    0.0000 C   0  0  0  0  0  0  0  0  0  0  0  0
   -0.8300   -1.5500    0.0000 C   0  0  0  0  0  0  0  0  0  0  0  0
    5.6589   -3.8002    0.0000 C   0  0  0  0  0  0  0  0  0  0  0  0
    1.7600   -0.0500    0.0000 C   0  0  0  0  0  0  0  0  0  0  0  0
    0.4600    0.7000    0.0000 C   0  0  0  0  0  0  0  0  0  0  0  0
    1.7600   -1.5500    0.0000 C   0  0  0  0  0  0  0  0  0  0  0  0
   -0.8300   -0.0500    0.0000 C   0  0  0  0  0  0  0  0  0  0  0  0
    6.9578   -4.5504    0.0000 N   0  0  0  0  0  0  0  0  0  0  0  0
   -4.7287    2.2002    0.0000 O   0  0  0  0  0  0  0  0  0  0  0  0
  5  4  2  0
  6  4  1  0
  7  5  1  0
  9  8  1  0
 12 10  2  0
 13 11  1  0
 16  1  1  0
 17 10  1  0
 17 11  2  0
 18  8  2  0
 18 14  1  0
 18 16  1  0
 19  9  2  0
 19 15  1  0
 20 12  1  0
 20 13  2  0
 21  6  2  0
 22  7  2  0
 22 21  1  0
 23 15  2  0
 23 17  1  0
 23 21  1  0
 24 14  2  0
 24 19  1  0
 24 22  1  0
 25  2  1  0
 25  3  1  0
 25 20  1  0
 26 16  2  0
M  END
>  <NAME>  (1942) 
4-(3-ACETYL-9-PHENANTHRYL)-N,N-DIMETHYLANILINE

>  <SYNONYMS>  (1942) 


>  <SPECTRUM TYPE>  (1942) 
MS1

>  <INSTRUMENT TYPE>  (1942) 
EI-B

>  <INSTRUMENT>  (1942) 
HITACHI RMU-6M

>  <ION MODE>  (1942) 
P

>  <INCHIKEY>  (1942) 
HXKAXPZIJRDBIK-UHFFFAOYSA-N

>  <FORMULA>  (1942) 
C24H21NO

>  <EXACT MASS>  (1942) 
339.162314292

>  <MW>  (1942) 
339

>  <ID>  (1942) 
JP009343

>  <CONTRIBUTOR>  (1942) 
University of Tokyo Team, {Faculty of Engineering, University of Tokyo

>  <COMMENT>  (1942) 
SMILES=CN(C)c(c4)ccc(c4)c(c1)c(c3)c(ccc3)c(c2)c(ccc(C(C)=O)2)1
InChI=InChI=1S/C24H21NO/c1-16(26)18-8-9-19-15-23(17-10-12-20(13-11-17)25(2)3)21-6-4-5-7-22(21)24(19)14-18/h4-15H,1-3H3
computed SMILES=O=C(C=1C=CC2=CC(C=3C=CC(=CC3)N(C)C)=C4C=CC=CC4=C2C1)C
accession=JP009343
date=2016.01.19 (Created 2008.10.21, modified 2011.05.06)
author=YAMAMOTO M, DEP. CHEMISTRY, FAC. SCIENCE, NARA WOMEN'S UNIV.
license=CC BY-NC-SA
exact mass=339.16231
ionization energy=70 eV
ion type=[M]+*
computed spectral entropy=2.9046839114254177
computed normalized entropy=0.7094380717799127
SPLASH=splash10-000i-0339000000-9b6e8b1b5df09e23d6d5
submitter=submitter = University of Tokyo Team (Faculty of Engineering, University of Tokyo)
MoNA Rating=3.75

>  <NUM PEAKS>  (1942) 
60

>  <MASS SPECTRAL PEAKS>  (1942) 
70 1.4
112 1.1
113 4.1
118.5 0.11
119.5 1.5
120 1.2
125 5.7
125.5 0.26
126 6.8
126.5 2
131.5 1.8
139 0.14
139.5 3.3
140 1.8
146.5 1.5
147 0.39
147.5 14.2
148 5.1
148.5 1.1
161.5 0.66
162 11.6
162.5 2.7
170 1.5
224 0.15
225 1.2
226 2.1
237 1.5
239 0.33
240 1.7
248 1.4
249 1.4
250 0.68
251 4.4
252 17
253 5.9
254 0.14
263 1.1
264 1.7
265 1.5
266 0.17
278 1.2
279 1.8
280 4.7
281 0.33
282 1.1
294 2.3
295 3.6
296 1.73
297 3.9
308 4.4
309 1.5
310 0.17
323 1.4
324 6.9
325 2.7
337 0.14
338 11
339 99.99
340 28
341 3.9

$$$$

     RDKit          2D

 19 21  0  0  0  0  0  0  0  0999 V2000
    2.4776    7.9817    0.0000 C   0  0  0  0  0  0  0  0  0  0  0  0
   -0.1205    7.9817    0.0000 C   0  0  0  0  0  0  0  0  0  0  0  0
   -2.7200   -1.0200    0.0000 C   0  0  0  0  0  0  0  0  0  0  0  0
   -2.7200    0.4800    0.0000 C   0  0  0  0  0  0  0  0  0  0  0  0
    2.4800   -1.0200    0.0000 C   0  0  0  0  0  0  0  0  0  0  0  0
   -1.4200   -1.7700    0.0000 C   0  0  0  0  0  0  0  0  0  0  0  0
    1.1800   -1.7700    0.0000 C   0  0  0  0  0  0  0  0  0  0  0  0
   -1.4200    1.2300    0.0000 C   0  0  0  0  0  0  0  0  0  0  0  0
    2.4800    0.4800    0.0000 C   0  0  0  0  0  0  0  0  0  0  0  0
    2.4789    3.4802    0.0000 C   0  0  0  0  0  0  0  0  0  0  0  0
   -0.1196    3.4806    0.0000 C   0  0  0  0  0  0  0  0  0  0  0  0
    2.4782    4.9810    0.0000 C   0  0  0  0  0  0  0  0  0  0  0  0
   -0.1204    4.9815    0.0000 C   0  0  0  0  0  0  0  0  0  0  0  0
   -0.1200   -1.0200    0.0000 C   0  0  0  0  0  0  0  0  0  0  0  0
    1.1800    2.7300    0.0000 C   0  0  0  0  0  0  0  0  0  0  0  0
    1.1786    5.7317    0.0000 C   0  0  0  0  0  0  0  0  0  0  0  0
   -0.1200    0.4800    0.0000 C   0  0  0  0  0  0  0  0  0  0  0  0
    1.1800    1.2300    0.0000 C   0  0  0  0  0  0  0  0  0  0  0  0
    1.1786    7.2317    0.0000 N   0  0  0  0  0  0  0  0  0  0  0  0
  4  3  2  0
  6  3  1  0
  7  5  2  0
  8  4  1  0
  9  5  1  0
 12 10  2  0
 13 11  1  0
 14  6  2  0
 14  7  1  0
 15 10  1  0
 15 11  2  0
 16 12  1  0
 16 13  2  0
 17  8  2  0
 17 14  1  0
 18  9  2  0
 18 15  1  0
 18 17  1  0
 19  1  1  0
 19  2  1  0
 19 16  1  0
M  END
>  <NAME>  (1943) 
4-(1-NAPHTHYL)-N,N-DIMETHYLANILINE

>  <SYNONYMS>  (1943) 


>  <SPECTRUM TYPE>  (1943) 
MS1

>  <INSTRUMENT TYPE>  (1943) 
EI-B

>  <INSTRUMENT>  (1943) 
HITACHI RMU-6M

>  <ION MODE>  (1943) 
P

>  <INCHIKEY>  (1943) 
VEXNITXCNXSHHK-UHFFFAOYSA-N

>  <FORMULA>  (1943) 
C18H17N

>  <EXACT MASS>  (1943) 
247.136099544

>  <MW>  (1943) 
247

>  <ID>  (1943) 
JP009342

>  <CONTRIBUTOR>  (1943) 
University of Tokyo Team, {Faculty of Engineering, University of Tokyo

>  <COMMENT>  (1943) 
SMILES=CN(C)c(c3)ccc(c3)c(c1)c(c2)c(ccc2)cc1
InChI=InChI=1S/C18H17N/c1-19(2)16-12-10-15(11-13-16)18-9-5-7-14-6-3-4-8-17(14)18/h3-13H,1-2H3
computed SMILES=C=1C=CC2=C(C1)C=CC=C2C3=CC=C(C=C3)N(C)C
accession=JP009342
date=2016.01.19 (Created 2008.10.21, modified 2011.05.06)
author=YAMAMOTO M, DEP. CHEMISTRY, FAC. SCIENCE, NARA WOMEN'S UNIV.
license=CC BY-NC-SA
exact mass=247.1361
ionization energy=70 eV
ion type=[M]+*
computed spectral entropy=2.7091881786495433
computed normalized entropy=0.6856545360411719
SPLASH=splash10-0002-0290000000-22022681dfdfad7a09ed
submitter=submitter = University of Tokyo Team (Faculty of Engineering, University of Tokyo)
MoNA Rating=3.75

>  <NUM PEAKS>  (1943) 
52

>  <MASS SPECTRAL PEAKS>  (1943) 
39 1.1
42 3.7
51 1.1
63 0.13
75 1.3
76 1
77 1.1
87 0.11
88 3.4
89 1.2
94.5 1.3
100 0.36
100.5 3.1
101 16.1
101.5 5
102 0.15
114 1.4
114.5 2.2
115 3.8
115.5 0.24
120 1.3
122 2.3
122.5 6.8
123 1.42
123.5 12.7
124 2.5
150 1.1
151 0.12
152 1.5
163 1.4
165 1.2
176 0.15
189 3.3
190 1.7
200 2.9
201 0.38
202 19.6
203 13.6
204 3.8
214 0.11
215 1.1
216 1.2
217 1.1
230 0.22
231 8.2
232 4.9
233 1.3
245 0.31
246 37.6
247 99.99
248 20.2
249 2.1

$$$$

     RDKit          2D

 17 19  0  0  0  0  0  0  0  0999 V2000
   -1.2990    3.7500    0.0000 C   0  0  0  0  0  0  0  0  0  0  0  0
   -0.0000   -3.0000    0.0000 C   0  0  0  0  0  0  0  0  0  0  0  0
    0.0000    3.0000    0.0000 C   0  0  0  0  0  0  0  0  0  0  0  0
    3.9000   -0.7500    0.0000 C   0  0  0  0  0  0  0  0  0  0  0  0
   -3.9000   -0.7500    0.0000 C   0  0  0  0  0  0  0  0  0  0  0  0
    3.9000    0.7500    0.0000 C   0  0  0  0  0  0  0  0  0  0  0  0
   -3.9000    0.7500    0.0000 C   0  0  0  0  0  0  0  0  0  0  0  0
    2.6000   -1.5000    0.0000 C   0  0  0  0  0  0  0  0  0  0  0  0
   -2.6000   -1.5000    0.0000 C   0  0  0  0  0  0  0  0  0  0  0  0
    2.6000    1.5000    0.0000 C   0  0  0  0  0  0  0  0  0  0  0  0
   -2.6000    1.5000    0.0000 C   0  0  0  0  0  0  0  0  0  0  0  0
   -0.0000   -1.5000    0.0000 C   0  0  0  0  0  0  0  0  0  0  0  0
   -0.0000    1.5000    0.0000 C   0  0  0  0  0  0  0  0  0  0  0  0
    1.3000   -0.7500    0.0000 C   0  0  0  0  0  0  0  0  0  0  0  0
   -1.3000   -0.7500    0.0000 C   0  0  0  0  0  0  0  0  0  0  0  0
    1.3000    0.7500    0.0000 C   0  0  0  0  0  0  0  0  0  0  0  0
   -1.3000    0.7500    0.0000 C   0  0  0  0  0  0  0  0  0  0  0  0
  3  1  2  0
  6  4  2  0
  7  5  1  0
  8  4  1  0
  9  5  2  0
 10  6  1  0
 11  7  2  0
 12  2  1  0
 13  3  1  0
 14  8  2  0
 14 12  1  0
 15  9  1  0
 15 12  2  0
 16 10  2  0
 16 13  1  0
 16 14  1  0
 17 11  1  0
 17 13  2  0
 17 15  1  0
M  END
>  <NAME>  (1944) 
9-METHYL-10-VINYLANTHRACENE

>  <SYNONYMS>  (1944) 


>  <SPECTRUM TYPE>  (1944) 
MS1

>  <INSTRUMENT TYPE>  (1944) 
EI-B

>  <INSTRUMENT>  (1944) 
HITACHI RMU-6M

>  <ION MODE>  (1944) 
P

>  <INCHIKEY>  (1944) 
DRRJFUPMBLRKSQ-UHFFFAOYSA-N

>  <FORMULA>  (1944) 
C17H14

>  <EXACT MASS>  (1944) 
218.109550448

>  <MW>  (1944) 
218

>  <ID>  (1944) 
JP009341

>  <CONTRIBUTOR>  (1944) 
University of Tokyo Team, {Faculty of Engineering, University of Tokyo

>  <COMMENT>  (1944) 
SMILES=C=Cc(c21)c(c3)c(ccc3)c(C)c(cccc2)1
InChI=InChI=1S/C17H14/c1-3-13-16-10-6-4-8-14(16)12(2)15-9-5-7-11-17(13)15/h3-11H,1H2,2H3
computed SMILES=C=CC=1C=2C=CC=CC2C(=C3C=CC=CC13)C
accession=JP009341
date=2016.01.19 (Created 2008.10.21, modified 2011.05.06)
author=YAMAMOTO M, DEP. CHEMISTRY, FAC. SCIENCE, NARA WOMEN'S UNIV.
license=CC BY-NC-SA
exact mass=218.10955
ionization energy=70 eV
ion type=[M]+*
computed spectral entropy=2.6586142288575862
computed normalized entropy=0.7477788905269191
SPLASH=splash10-0udi-0290000000-a38da0df124291bb1120
submitter=submitter = University of Tokyo Team (Faculty of Engineering, University of Tokyo)
MoNA Rating=3.75

>  <NUM PEAKS>  (1944) 
35

>  <MASS SPECTRAL PEAKS>  (1944) 
39 3.3
51 2.5
57 2.5
63 0.5
75 2.5
81 4.2
82 2.5
87 0.25
100 5
100.5 4.2
101 27.5
101.5 1.67
102 3.3
106.5 9.2
107 10.8
108 1.25
108.5 4.2
109 10
109.5 2.5
176 0.25
187 2.5
189 7.5
200 3.3
201 0.5
202 52.5
203 99.99
204 18.3
205 0.25
213 6.7
214 2.5
215 15.8
216 0.58
217 20.8
218 46.7
219 9.2

$$$$

     RDKit          2D

 23 25  0  0  0  0  0  0  0  0999 V2000
   -0.0000   -3.0000    0.0000 C   0  0  0  0  0  0  0  0  0  0  0  0
   -1.8481    7.2990    0.0000 C   0  0  0  0  0  0  0  0  0  0  0  0
   -3.8971    6.7500    0.0000 C   0  0  0  0  0  0  0  0  0  0  0  0
   -3.3481    4.7010    0.0000 C   0  0  0  0  0  0  0  0  0  0  0  0
    3.9000   -0.7500    0.0000 C   0  0  0  0  0  0  0  0  0  0  0  0
   -3.9000   -0.7500    0.0000 C   0  0  0  0  0  0  0  0  0  0  0  0
    3.9000    0.7500    0.0000 C   0  0  0  0  0  0  0  0  0  0  0  0
   -3.9000    0.7500    0.0000 C   0  0  0  0  0  0  0  0  0  0  0  0
    2.6000   -1.5000    0.0000 C   0  0  0  0  0  0  0  0  0  0  0  0
   -2.6000   -1.5000    0.0000 C   0  0  0  0  0  0  0  0  0  0  0  0
    2.6000    1.5000    0.0000 C   0  0  0  0  0  0  0  0  0  0  0  0
   -2.6000    1.5000    0.0000 C   0  0  0  0  0  0  0  0  0  0  0  0
    0.0000    3.0000    0.0000 C   0  0  0  0  0  0  0  0  0  0  0  0
   -0.0000   -1.5000    0.0000 C   0  0  0  0  0  0  0  0  0  0  0  0
    1.3000   -0.7500    0.0000 C   0  0  0  0  0  0  0  0  0  0  0  0
   -1.3000   -0.7500    0.0000 C   0  0  0  0  0  0  0  0  0  0  0  0
    1.3000    0.7500    0.0000 C   0  0  0  0  0  0  0  0  0  0  0  0
   -1.3000    0.7500    0.0000 C   0  0  0  0  0  0  0  0  0  0  0  0
   -0.0000    1.5000    0.0000 C   0  0  0  0  0  0  0  0  0  0  0  0
   -1.2990    5.2500    0.0000 C   0  0  0  0  0  0  0  0  0  0  0  0
   -2.5981    6.0000    0.0000 C   0  0  0  0  0  0  0  0  0  0  0  0
    0.0000    6.0000    0.0000 O   0  0  0  0  0  0  0  0  0  0  0  0
   -1.2990    3.7500    0.0000 O   0  0  0  0  0  0  0  0  0  0  0  0
  7  5  2  0
  8  6  1  0
  9  5  1  0
 10  6  2  0
 11  7  1  0
 12  8  2  0
 14  1  1  0
 15  9  2  0
 15 14  1  0
 16 10  1  0
 16 14  2  0
 17 11  2  0
 17 15  1  0
 18 12  1  0
 18 16  1  0
 19 13  1  0
 19 17  1  0
 19 18  2  0
 21  2  1  0
 21  3  1  0
 21  4  1  0
 21 20  1  0
 22 20  2  0
 23 13  1  0
 23 20  1  0
M  END
>  <NAME>  (1945) 
(10-METHYL-9-ANTHRYL)METHYL PIVALATE

>  <SYNONYMS>  (1945) 


>  <SPECTRUM TYPE>  (1945) 
MS1

>  <INSTRUMENT TYPE>  (1945) 
EI-B

>  <INSTRUMENT>  (1945) 
HITACHI RMU-6M

>  <ION MODE>  (1945) 
P

>  <INCHIKEY>  (1945) 
DJMFMJYBGUQQCQ-UHFFFAOYSA-N

>  <FORMULA>  (1945) 
C21H22O2

>  <EXACT MASS>  (1945) 
306.161979944

>  <MW>  (1945) 
306

>  <ID>  (1945) 
JP009340

>  <CONTRIBUTOR>  (1945) 
University of Tokyo Team, {Faculty of Engineering, University of Tokyo

>  <COMMENT>  (1945) 
SMILES=O=C(OCc(c21)c(c3)c(ccc3)c(C)c(cccc2)1)C(C)(C)C
InChI=InChI=1S/C21H22O2/c1-14-15-9-5-7-11-17(15)19(13-23-20(22)21(2,3)4)18-12-8-6-10-16(14)18/h5-12H,13H2,1-4H3
computed SMILES=O=C(OCC1=C2C=CC=CC2=C(C=3C=CC=CC31)C)C(C)(C)C
accession=JP009340
date=2016.01.19 (Created 2008.10.21, modified 2011.05.06)
author=YAMAMOTO M, DEP. CHEMISTRY, FAC. SCIENCE, NARA WOMEN'S UNIV.
license=CC BY-NC-SA
exact mass=306.16198
ionization energy=70 eV
ion type=[M]+*
computed spectral entropy=2.865517544927696
computed normalized entropy=0.7118676242682206
SPLASH=splash10-0pb9-2291000000-cae08c3f3d8d3ca36809
submitter=submitter = University of Tokyo Team (Faculty of Engineering, University of Tokyo)
MoNA Rating=3.75

>  <NUM PEAKS>  (1945) 
56

>  <MASS SPECTRAL PEAKS>  (1945) 
39 8.1
40 1.7
41 23.8
42 0.23
43 1.2
44 2.9
50 1.7
51 0.23
53 1.2
55 4.1
56 8.1
57 2.36
58 1.2
63 1.7
75 1.7
76 0.41
77 1.7
87 1.7
88 5.2
89 0.55
95 1.2
100 3.5
101 12.2
102 0.41
103 1.2
127 2.3
128 1.2
150 0.12
151 1.7
152 1.7
163 1.2
165 0.35
174 1.2
175 1.2
176 3.5
177 0.17
178 7
179 1.7
187 1.2
189 0.73
190 4.1
191 8.1
192 2.9
193 0.23
200 4.1
201 5.2
202 25
203 2.44
204 57
205 99.99
206 19.8
207 0.23
248 1.2
292 1.2
306 30.8
307 10

$$$$

     RDKit          2D

 12 13  0  0  0  0  0  0  0  0999 V2000
    0.0000    2.2500    0.0000 C   0  0  0  0  0  0  0  0  0  0  0  0
   -2.6000   -0.7500    0.0000 C   0  0  0  0  0  0  0  0  0  0  0  0
   -2.6000    0.7500    0.0000 C   0  0  0  0  0  0  0  0  0  0  0  0
   -1.3000   -1.5000    0.0000 C   0  0  0  0  0  0  0  0  0  0  0  0
    2.6000    0.7500    0.0000 C   0  0  0  0  0  0  0  0  0  0  0  0
   -1.3000    1.5000    0.0000 C   0  0  0  0  0  0  0  0  0  0  0  0
    1.3000    1.5000    0.0000 C   0  0  0  0  0  0  0  0  0  0  0  0
    1.3000   -1.5000    0.0000 C   0  0  0  0  0  0  0  0  0  0  0  0
    0.0000   -0.7500    0.0000 C   0  0  0  0  0  0  0  0  0  0  0  0
    2.6000   -0.7500    0.0000 C   0  0  0  0  0  0  0  0  0  0  0  0
    0.0000    0.7500    0.0000 C   0  0  0  0  0  0  0  0  0  0  0  0
    3.8989   -1.5002    0.0000 O   0  0  0  0  0  0  0  0  0  0  0  0
  3  2  1  0
  4  2  1  0
  6  3  1  0
  7  5  1  0
  9  4  1  0
  9  8  1  0
 10  5  1  0
 10  8  1  0
 11  1  1  0
 11  6  1  0
 11  7  1  0
 11  9  1  0
 12 10  2  0
M  END
>  <NAME>  (1946) 
1,4,4A,5,6,7,8,8A-OCTAHYDRO-4A-METHYL-2(3H)-NAPHTHALENONE

>  <SYNONYMS>  (1946) 


>  <SPECTRUM TYPE>  (1946) 
MS1

>  <INSTRUMENT TYPE>  (1946) 
EI-B

>  <INSTRUMENT>  (1946) 
HITACHI RMU-6M

>  <ION MODE>  (1946) 
P

>  <INCHIKEY>  (1946) 
QAFCUHJMKAQBFU-UHFFFAOYSA-N

>  <FORMULA>  (1946) 
C11H18O

>  <EXACT MASS>  (1946) 
166.135765196

>  <MW>  (1946) 
166

>  <ID>  (1946) 
JP009339

>  <CONTRIBUTOR>  (1946) 
University of Tokyo Team, {Faculty of Engineering, University of Tokyo

>  <COMMENT>  (1946) 
SMILES=O=C(C1)CC(C2)C(C)(CCC2)C1
InChI=InChI=1S/C11H18O/c1-11-6-3-2-4-9(11)8-10(12)5-7-11/h9H,2-8H2,1H3
computed SMILES=O=C1CCC2(C)CCCCC2C1
accession=JP009339
date=2016.01.19 (Created 2008.10.21, modified 2011.05.06)
author=YAMAMOTO M, DEP. CHEMISTRY, FAC. SCIENCE, NARA WOMEN'S UNIV.
license=CC BY-NC-SA
exact mass=166.13577
ionization energy=70 eV
ion type=[M]+*
computed spectral entropy=3.4509949257520387
computed normalized entropy=0.8361721726961246
SPLASH=splash10-014m-9200000000-93d919e3c9293fdd603d
submitter=submitter = University of Tokyo Team (Faculty of Engineering, University of Tokyo)
MoNA Rating=3.75

>  <NUM PEAKS>  (1946) 
62

>  <MASS SPECTRAL PEAKS>  (1946) 
15 2.3
26 2.6
27 44.4
28 1.48
29 33.9
38 2.2
39 54.2
40 1.2
41 99.99
42 7.4
43 10.1
50 0.31
51 9.3
52 7.1
53 34.8
54 1.64
55 65
56 10.3
57 11.5
63 0.25
65 9.5
66 6.6
67 68.9
68 3.17
69 52.5
70 6.3
71 6.3
77 1.34
78 3.2
79 21
80 7
81 5.75
82 17
83 7.7
84 25.8
85 0.28
91 9.3
92 3
93 18.8
94 3.95
95 64.4
96 35.3
97 12
98 1.28
105 3.6
106 1.5
107 6.1
109 5.7
110 22.4
111 53
112 4.9
119 0.27
122 9.3
123 13
124 5.8
133 0.72
137 12.6
138 3.2
148 4.5
151 0.95
166 60.5
167 7.6

$$$$

     RDKit          2D

 12 13  0  0  0  0  0  0  0  0999 V2000
    0.0000    2.2500    0.0000 C   0  0  0  0  0  0  0  0  0  0  0  0
   -2.6000   -0.7500    0.0000 C   0  0  0  0  0  0  0  0  0  0  0  0
   -2.6000    0.7500    0.0000 C   0  0  0  0  0  0  0  0  0  0  0  0
   -1.3000   -1.5000    0.0000 C   0  0  0  0  0  0  0  0  0  0  0  0
    2.6000    0.7500    0.0000 C   0  0  0  0  0  0  0  0  0  0  0  0
   -1.3000    1.5000    0.0000 C   0  0  0  0  0  0  0  0  0  0  0  0
    1.3000    1.5000    0.0000 C   0  0  0  0  0  0  0  0  0  0  0  0
    1.3000   -1.5000    0.0000 C   0  0  0  0  0  0  0  0  0  0  0  0
    0.0000   -0.7500    0.0000 C   0  0  0  0  0  0  0  0  0  0  0  0
    2.6000   -0.7500    0.0000 C   0  0  0  0  0  0  0  0  0  0  0  0
    0.0000    0.7500    0.0000 C   0  0  0  0  0  0  0  0  0  0  0  0
    3.8989   -1.5002    0.0000 O   0  0  0  0  0  0  0  0  0  0  0  0
  3  2  1  0
  4  2  1  0
  6  3  1  0
  7  5  1  0
  9  4  1  0
  9  8  2  0
 10  5  1  0
 10  8  1  0
 11  1  1  0
 11  6  1  0
 11  7  1  0
 11  9  1  0
 12 10  2  0
M  END
>  <NAME>  (1947) 
4,4A,5,6,7,8-HEXAHYDRO-4A-METHYL-2(3H)-NAPHTHALENONE

>  <SYNONYMS>  (1947) 


>  <SPECTRUM TYPE>  (1947) 
MS1

>  <INSTRUMENT TYPE>  (1947) 
EI-B

>  <INSTRUMENT>  (1947) 
HITACHI RMU-6M

>  <ION MODE>  (1947) 
P

>  <INCHIKEY>  (1947) 
OHERZLWVBJCXOF-UHFFFAOYSA-N

>  <FORMULA>  (1947) 
C11H16O

>  <EXACT MASS>  (1947) 
164.120115132

>  <MW>  (1947) 
164

>  <ID>  (1947) 
JP009338

>  <CONTRIBUTOR>  (1947) 
University of Tokyo Team, {Faculty of Engineering, University of Tokyo

>  <COMMENT>  (1947) 
SMILES=O=C(C1)C=C(C2)C(C)(CCC2)C1
InChI=InChI=1S/C11H16O/c1-11-6-3-2-4-9(11)8-10(12)5-7-11/h8H,2-7H2,1H3
computed SMILES=O=C1C=C2CCCCC2(C)CC1
accession=JP009338
date=2016.01.19 (Created 2008.10.21, modified 2011.05.06)
author=YAMAMOTO M, DEP. CHEMISTRY, FAC. SCIENCE, NARA WOMEN'S UNIV.
license=CC BY-NC-SA
exact mass=164.12012
ionization energy=70 eV
ion type=[M]+*
computed spectral entropy=3.412909775796741
computed normalized entropy=0.8269441838781929
SPLASH=splash10-022c-9600000000-eef9722199ac89858bae
submitter=submitter = University of Tokyo Team (Faculty of Engineering, University of Tokyo)
MoNA Rating=3.75

>  <NUM PEAKS>  (1947) 
62

>  <MASS SPECTRAL PEAKS>  (1947) 
26 3.3
27 39.1
28 34.4
29 1.96
31 2.4
38 3.9
39 64.8
40 1.23
41 50.3
42 3.8
43 4
50 0.71
51 23.2
52 14.1
53 29.7
55 0.5
56 17.2
62 2.3
63 9.3
64 0.34
65 23.4
66 10.3
67 22.6
68 0.58
69 1.9
77 41.2
78 12.8
79 7.08
80 24.2
81 11.8
82 4.4
89 0.22
91 44.9
92 8.6
93 49.1
94 2.4
95 8.2
96 2.2
97 2.2
103 0.31
105 10.9
106 3.9
107 63.6
108 3.34
109 6.8
115 2.7
117 2.8
119 0.24
120 3
121 61.6
122 99.99
123 1.35
128 1.9
131 5.5
135 14
136 9.77
137 11.4
146 2.8
149 13.7
150 0.24
164 85.9
165 12.4

$$$$

     RDKit          2D

 11 12  0  0  1  0  0  0  0  0999 V2000
    0.0000    2.2500    0.0000 C   0  0  0  0  0  0  0  0  0  0  0  0
   -2.6000   -0.7500    0.0000 C   0  0  0  0  0  0  0  0  0  0  0  0
    2.6000   -0.7500    0.0000 C   0  0  0  0  0  0  0  0  0  0  0  0
   -2.6000    0.7500    0.0000 C   0  0  0  0  0  0  0  0  0  0  0  0
    2.6000    0.7500    0.0000 C   0  0  0  0  0  0  0  0  0  0  0  0
   -1.3000   -1.5000    0.0000 C   0  0  0  0  0  0  0  0  0  0  0  0
    1.3000   -1.5000    0.0000 C   0  0  0  0  0  0  0  0  0  0  0  0
   -1.3000    1.5000    0.0000 C   0  0  0  0  0  0  0  0  0  0  0  0
    1.3000    1.5000    0.0000 C   0  0  0  0  0  0  0  0  0  0  0  0
    0.0000   -0.7500    0.0000 C   0  0  0  0  0  0  0  0  0  0  0  0
    0.0000    0.7500    0.0000 C   0  0  0  0  0  0  0  0  0  0  0  0
  4  2  1  0
  5  3  1  0
  6  2  1  0
  7  3  1  0
  8  4  1  0
  9  5  1  0
 10  6  1  6
 10  7  1  0
 11  1  1  6
 11  8  1  0
 11  9  1  0
 11 10  1  0
M  END
>  <NAME>  (1948) 
1-METHYLBICYCLO(4.4.0)DECANE(TRANS)

>  <SYNONYMS>  (1948) 
METHYLDECALIN(TRANS)

>  <SPECTRUM TYPE>  (1948) 
MS1

>  <INSTRUMENT TYPE>  (1948) 
EI-B

>  <INSTRUMENT>  (1948) 
HITACHI M-80

>  <ION MODE>  (1948) 
P

>  <INCHIKEY>  (1948) 
RAFDCSMAXTUJKJ-XYPYZODXSA-N

>  <FORMULA>  (1948) 
C11H20

>  <EXACT MASS>  (1948) 
152.15650064

>  <MW>  (1948) 
152

>  <ID>  (1948) 
JP009337

>  <CONTRIBUTOR>  (1948) 
University of Tokyo Team, {Faculty of Engineering, University of Tokyo

>  <COMMENT>  (1948) 
SMILES=C(C2)CC([H])(C1)C(C)(C2)CCC1
InChI=InChI=1S/C11H20/c1-11-8-4-2-6-10(11)7-3-5-9-11/h10H,2-9H2,1H3/t10-,11-
computed SMILES=CC12CCCCC2CCCC1
accession=JP009337
date=2016.01.19 (Created 2008.10.21, modified 2011.05.06)
author=YAMAMOTO M, DEP. CHEMISTRY, FAC. SCIENCE, NARA WOMEN'S UNIV.
license=CC BY-NC-SA
exact mass=152.1565
ionization energy=70 eV
ion type=[M]+*
computed spectral entropy=3.075577309951769
computed normalized entropy=0.8079458891395802
SPLASH=splash10-000t-9400000000-76cce0fd7e68f36ebe68
submitter=submitter = University of Tokyo Team (Faculty of Engineering, University of Tokyo)
MoNA Rating=3.75

>  <NUM PEAKS>  (1948) 
45

>  <MASS SPECTRAL PEAKS>  (1948) 
39 9.28
40 2.39
41 31.18
42 4.24
43 1.19
51 1.65
52 1.97
53 8.63
54 6.4
55 31.97
56 3.56
65 3.25
66 5
67 51.82
68 18.56
69 15.37
70 1.2
77 3.99
78 1.41
79 7.3
80 3.24
81 60.1
82 37.62
83 17.06
84 1.4
91 2.03
93 4.27
94 4.66
95 99.99
96 56.47
97 5.4
98 1.02
99 1.04
107 1.3
108 2.35
109 45.02
110 31.02
111 3.68
123 7.75
124 2.58
136 7.48
137 75.8
138 7.97
152 64.93
153 8.28

$$$$

     RDKit          2D

 11 12  0  0  1  0  0  0  0  0999 V2000
    0.0000    2.2500    0.0000 C   0  0  0  0  0  0  0  0  0  0  0  0
   -2.6000   -0.7500    0.0000 C   0  0  0  0  0  0  0  0  0  0  0  0
    2.6000   -0.7500    0.0000 C   0  0  0  0  0  0  0  0  0  0  0  0
   -2.6000    0.7500    0.0000 C   0  0  0  0  0  0  0  0  0  0  0  0
    2.6000    0.7500    0.0000 C   0  0  0  0  0  0  0  0  0  0  0  0
   -1.3000   -1.5000    0.0000 C   0  0  0  0  0  0  0  0  0  0  0  0
    1.3000   -1.5000    0.0000 C   0  0  0  0  0  0  0  0  0  0  0  0
   -1.3000    1.5000    0.0000 C   0  0  0  0  0  0  0  0  0  0  0  0
    1.3000    1.5000    0.0000 C   0  0  0  0  0  0  0  0  0  0  0  0
    0.0000   -0.7500    0.0000 C   0  0  0  0  0  0  0  0  0  0  0  0
    0.0000    0.7500    0.0000 C   0  0  0  0  0  0  0  0  0  0  0  0
  4  2  1  0
  5  3  1  0
  6  2  1  0
  7  3  1  0
  8  4  1  0
  9  5  1  0
 10  6  1  6
 10  7  1  0
 11  1  1  1
 11  8  1  0
 11  9  1  0
 11 10  1  0
M  END
>  <NAME>  (1949) 
1-METHYLBICYCLO(4.4.0)DECANE(CIS)

>  <SYNONYMS>  (1949) 
METHYLDECALIN(CIS)

>  <SPECTRUM TYPE>  (1949) 
MS1

>  <INSTRUMENT TYPE>  (1949) 
EI-B

>  <INSTRUMENT>  (1949) 
HITACHI M-80

>  <ION MODE>  (1949) 
P

>  <INCHIKEY>  (1949) 
RAFDCSMAXTUJKJ-PHIMTYICSA-N

>  <FORMULA>  (1949) 
C11H20

>  <EXACT MASS>  (1949) 
152.15650064

>  <MW>  (1949) 
152

>  <ID>  (1949) 
JP009336

>  <CONTRIBUTOR>  (1949) 
University of Tokyo Team, {Faculty of Engineering, University of Tokyo

>  <COMMENT>  (1949) 
SMILES=C(C2)CC([H])(C1)C(C)(C2)CCC1
InChI=InChI=1S/C11H20/c1-11-8-4-2-6-10(11)7-3-5-9-11/h10H,2-9H2,1H3/t10-,11+
computed SMILES=CC12CCCCC2CCCC1
accession=JP009336
date=2016.01.19 (Created 2008.10.21, modified 2011.05.06)
author=YAMAMOTO M, DEP. CHEMISTRY, FAC. SCIENCE, NARA WOMEN'S UNIV.
license=CC BY-NC-SA
exact mass=152.1565
ionization energy=70 eV
ion type=[M]+*
computed spectral entropy=2.938922646550993
computed normalized entropy=0.8022036833079648
SPLASH=splash10-001a-9500000000-53b87bebf80b9388101a
submitter=submitter = University of Tokyo Team (Faculty of Engineering, University of Tokyo)
MoNA Rating=3.75

>  <NUM PEAKS>  (1949) 
39

>  <MASS SPECTRAL PEAKS>  (1949) 
39 7.13
40 1.71
41 19.74
42 2.45
43 1.26
51 1.59
52 1.04
53 6.21
54 4.47
55 21.44
56 2.22
65 2.27
66 3.28
67 35.86
68 12.09
69 11.57
77 3
79 5.78
80 2.13
81 48.07
82 23.8
83 9.81
91 1.54
93 2.55
94 2.73
95 68.5
96 28.77
97 3.14
108 1.3
109 24.28
110 13.59
111 1.73
123 4.59
124 1.72
136 9.45
137 99.99
138 11.05
152 20.24
153 2.39

$$$$

     RDKit          2D

 13 14  0  0  0  0  0  0  0  0999 V2000
    0.0000    2.2500    0.0000 C   0  0  0  0  0  0  0  0  0  0  0  0
   -2.6000   -0.7500    0.0000 C   0  0  0  0  0  0  0  0  0  0  0  0
   -2.6000    0.7500    0.0000 C   0  0  0  0  0  0  0  0  0  0  0  0
   -1.3000   -1.5000    0.0000 C   0  0  0  0  0  0  0  0  0  0  0  0
    2.6000    0.7500    0.0000 C   0  0  0  0  0  0  0  0  0  0  0  0
   -1.3000    1.5000    0.0000 C   0  0  0  0  0  0  0  0  0  0  0  0
    1.3000    1.5000    0.0000 C   0  0  0  0  0  0  0  0  0  0  0  0
    1.3000   -1.5000    0.0000 C   0  0  0  0  0  0  0  0  0  0  0  0
    0.0000   -0.7500    0.0000 C   0  0  0  0  0  0  0  0  0  0  0  0
    2.6000   -0.7500    0.0000 C   0  0  0  0  0  0  0  0  0  0  0  0
    3.1127   -2.1596    0.0000 H   0  0  0  0  0  0  0  0  0  0  0  0
    0.0000    0.7500    0.0000 C   0  0  0  0  0  0  0  0  0  0  0  0
    4.0772   -0.4897    0.0000 O   0  0  0  0  0  0  0  0  0  0  0  0
 10 11  1  0
  3  2  1  0
  4  2  1  0
  6  3  1  0
  7  5  1  0
  9  4  1  0
  9  8  1  0
 10  5  1  0
 10  8  1  0
 12  1  1  0
 12  6  1  0
 12  7  1  0
 12  9  1  0
 13 10  1  0
M  ISO  1  11   2
M  END
>  <NAME>  (1950) 
4A-METHYLDECAHYDRO-2-NAPHTHOL-2-D

>  <SYNONYMS>  (1950) 


>  <SPECTRUM TYPE>  (1950) 
MS1

>  <INSTRUMENT TYPE>  (1950) 
EI-B

>  <INSTRUMENT>  (1950) 
HITACHI M-80

>  <ION MODE>  (1950) 
P

>  <INCHIKEY>  (1950) 
ZGVYVWSAAMJYCN-MMIHMFRQSA-N

>  <FORMULA>  (1950) 
C11H20O

>  <EXACT MASS>  (1950) 
169.157692006

>  <MW>  (1950) 
169

>  <ID>  (1950) 
JP009333

>  <CONTRIBUTOR>  (1950) 
University of Tokyo Team, {Faculty of Engineering, University of Tokyo

>  <COMMENT>  (1950) 
SMILES=[2H]C(O)(C1)CC(C2)C(C)(CCC2)C1
InChI=InChI=1S/C11H20O/c1-11-6-3-2-4-9(11)8-10(12)5-7-11/h9-10,12H,2-8H2,1H3/i10D
computed SMILES=[H]C1(O)CCC2(C)CCCCC2C1
accession=JP009333
date=2016.01.19 (Created 2008.10.21, modified 2011.05.06)
author=YAMAMOTO M, DEP. CHEMISTRY, FAC. SCIENCE, NARA WOMEN'S UNIV.
license=CC BY-NC-SA
exact mass=168.15142
ionization energy=70 eV
ion type=[M]+*
computed spectral entropy=3.658881632573039
computed normalized entropy=0.8701900385534043
SPLASH=splash10-00ko-9100000000-426d83413a52ac43ddda
submitter=submitter = University of Tokyo Team (Faculty of Engineering, University of Tokyo)
MoNA Rating=3.75

>  <NUM PEAKS>  (1950) 
67

>  <MASS SPECTRAL PEAKS>  (1950) 
38 1.37
39 49.64
40 13.38
41 99.99
42 19.84
43 16.96
44 10.44
45 18.45
46 2.48
51 5.63
52 3.26
53 25.87
54 14.59
55 48.26
56 14.58
57 6.37
58 15.77
59 3.49
60 2.47
63 1.86
64 1.15
65 7.2
66 7
67 49.64
68 27.39
69 21.54
70 6.42
71 5.44
72 2.06
77 9.13
78 5.31
79 14.62
80 13.48
81 27.05
82 22.28
83 7.9
84 5.04
85 1.28
91 6.79
92 3.85
93 13.7
94 22.39
95 29.99
96 13.51
97 3.06
98 1.25
99 1.38
105 1.41
106 1.63
107 3.99
108 17.94
109 22.23
110 11.33
111 3.26
112 4.19
113 1.17
121 1.82
122 9.06
123 4.74
124 1.11
135 1.38
136 35.64
137 4.34
140 1.21
151 22.7
152 3.33
169 1.98

$$$$

     RDKit          2D

 12 12  0  0  0  0  0  0  0  0999 V2000
   -4.1872    1.6700    0.0000 C   0  0  0  0  0  0  0  0  0  0  0  0
    4.9065    0.9204    0.0000 C   0  0  0  0  0  0  0  0  0  0  0  0
   -2.8882    0.9200    0.0000 C   0  0  0  0  0  0  0  0  0  0  0  0
   -1.5892    1.6700    0.0000 C   0  0  0  0  0  0  0  0  0  0  0  0
   -0.2906   -0.5808    0.0000 C   0  0  0  0  0  0  0  0  0  0  0  0
    1.0084   -1.3308    0.0000 C   0  0  0  0  0  0  0  0  0  0  0  0
    1.0094    1.6708    0.0000 C   0  0  0  0  0  0  0  0  0  0  0  0
   -0.2901    0.9200    0.0000 C   0  0  0  0  0  0  0  0  0  0  0  0
    2.3080   -0.5800    0.0000 C   0  0  0  0  0  0  0  0  0  0  0  0
    2.3084    0.9208    0.0000 C   0  0  0  0  0  0  0  0  0  0  0  0
    3.6070   -1.3300    0.0000 O   0  0  0  0  0  0  0  0  0  0  0  0
    3.6076    1.6706    0.0000 O   0  0  0  0  0  0  0  0  0  0  0  0
  3  1  2  0
  4  3  1  0
  6  5  2  0
  8  4  1  0
  8  5  1  0
  8  7  2  0
  9  6  1  0
 10  7  1  0
 10  9  2  0
 11  9  1  0
 12  2  1  0
 12 10  1  0
M  END
>  <NAME>  (1951) 
EUGENOL

>  <SYNONYMS>  (1951) 


>  <SPECTRUM TYPE>  (1951) 
MS1

>  <INSTRUMENT TYPE>  (1951) 
EI-B

>  <INSTRUMENT>  (1951) 
HITACHI RMU-6M

>  <ION MODE>  (1951) 
P

>  <INCHIKEY>  (1951) 
RRAFCDWBNXTKKO-UHFFFAOYSA-N

>  <FORMULA>  (1951) 
C10H12O2

>  <EXACT MASS>  (1951) 
164.083729624

>  <MW>  (1951) 
164

>  <ID>  (1951) 
JP009332

>  <CONTRIBUTOR>  (1951) 
University of Tokyo Team, {Faculty of Engineering, University of Tokyo

>  <COMMENT>  (1951) 
SMILES=C=CCc(c1)cc(OC)c(O)c1
InChI=InChI=1S/C10H12O2/c1-3-4-8-5-6-9(11)10(7-8)12-2/h3,5-7,11H,1,4H2,2H3
computed SMILES=OC1=CC=C(C=C1OC)CC=C
accession=JP009332
date=2016.01.19 (Created 2008.10.21, modified 2011.05.06)
author=YAMAMOTO M, DEP. CHEMISTRY, FAC. SCIENCE, NARA WOMEN'S UNIV.
license=CC BY-NC-SA
exact mass=164.08373
ionization energy=70 eV
ion type=[M]+*
computed spectral entropy=3.175476202280571
computed normalized entropy=0.766442901808857
SPLASH=splash10-03di-4900000000-1d96ae8b031e47e13112
submitter=submitter = University of Tokyo Team (Faculty of Engineering, University of Tokyo)
MoNA Rating=3.75

>  <NUM PEAKS>  (1951) 
63

>  <MASS SPECTRAL PEAKS>  (1951) 
26 1
27 7.1
28 2.6
29 0.15
31 0.9
38 2.2
39 15.2
40 0.28
41 7.5
43 4.2
45 1
50 0.46
51 12.9
52 5.4
53 4.8
55 2.19
56 1.1
62 2
63 5.1
64 0.18
65 9.8
66 4
67 1.3
69 0.1
74 1.3
75 1.2
76 1.3
77 2.58
78 6.9
79 6.2
81 2.2
89 0.18
91 17
92 2.4
93 4.6
94 0.57
95 1.1
102 1.7
103 20.6
104 1.45
105 6.3
106 1.1
107 3.2
109 0.13
115 2.2
119 1.9
120 1.1
121 1.51
122 6.3
131 20.6
132 9.7
133 1.63
134 1.8
135 1.8
137 19.3
138 0.16
147 4.8
149 34.6
150 3.3
163 0.44
164 99.99
165 11.1
166 1.1

$$$$

     RDKit          2D

 12 12  0  0  0  0  0  0  0  0999 V2000
   -4.1872    1.6700    0.0000 C   0  0  0  0  0  0  0  0  0  0  0  0
    4.9065    0.9204    0.0000 C   0  0  0  0  0  0  0  0  0  0  0  0
   -2.8882    0.9200    0.0000 C   0  0  0  0  0  0  0  0  0  0  0  0
   -1.5892    1.6700    0.0000 C   0  0  0  0  0  0  0  0  0  0  0  0
   -0.2906   -0.5808    0.0000 C   0  0  0  0  0  0  0  0  0  0  0  0
    1.0084   -1.3308    0.0000 C   0  0  0  0  0  0  0  0  0  0  0  0
    1.0094    1.6708    0.0000 C   0  0  0  0  0  0  0  0  0  0  0  0
   -0.2901    0.9200    0.0000 C   0  0  0  0  0  0  0  0  0  0  0  0
    2.3080   -0.5800    0.0000 C   0  0  0  0  0  0  0  0  0  0  0  0
    2.3084    0.9208    0.0000 C   0  0  0  0  0  0  0  0  0  0  0  0
    3.6070   -1.3300    0.0000 O   0  0  0  0  0  0  0  0  0  0  0  0
    3.6076    1.6706    0.0000 O   0  0  0  0  0  0  0  0  0  0  0  0
  3  1  1  0
  3  4  2  0
  6  5  2  0
  8  4  1  0
  8  5  1  0
  8  7  2  0
  9  6  1  0
 10  7  1  0
 10  9  2  0
 11  9  1  0
 12  2  1  0
 12 10  1  0
M  END
>  <NAME>  (1952) 
ISOEUGENOL

>  <SYNONYMS>  (1952) 


>  <SPECTRUM TYPE>  (1952) 
MS1

>  <INSTRUMENT TYPE>  (1952) 
EI-B

>  <INSTRUMENT>  (1952) 
HITACHI RMU-6M

>  <ION MODE>  (1952) 
P

>  <INCHIKEY>  (1952) 
BJIOGJUNALELMI-ONEGZZNKSA-N

>  <FORMULA>  (1952) 
C10H12O2

>  <EXACT MASS>  (1952) 
164.083729624

>  <MW>  (1952) 
164

>  <ID>  (1952) 
JP009331

>  <CONTRIBUTOR>  (1952) 
University of Tokyo Team, {Faculty of Engineering, University of Tokyo

>  <COMMENT>  (1952) 
SMILES=CC=Cc(c1)cc(OC)c(O)c1
InChI=InChI=1S/C10H12O2/c1-3-4-8-5-6-9(11)10(7-8)12-2/h3-7,11H,1-2H3/b4-3+
computed SMILES=OC1=CC=C(C=CC)C=C1OC
accession=JP009331
date=2016.01.19 (Created 2008.10.21, modified 2011.05.06)
author=YAMAMOTO M, DEP. CHEMISTRY, FAC. SCIENCE, NARA WOMEN'S UNIV.
license=CC BY-NC-SA
exact mass=164.08373
ionization energy=70 eV
ion type=[M]+*
computed spectral entropy=3.0664808902595344
computed normalized entropy=0.7617920434921062
SPLASH=splash10-03di-5900000000-d5e9036e83fd9c1033b0
submitter=submitter = University of Tokyo Team (Faculty of Engineering, University of Tokyo)
MoNA Rating=3.75

>  <NUM PEAKS>  (1952) 
56

>  <MASS SPECTRAL PEAKS>  (1952) 
27 5.7
28 2.3
29 1.3
38 0.2
39 10.8
40 1.6
41 4.2
43 0.37
50 3.4
51 9.6
52 3.7
53 0.37
55 21
62 2.1
63 5.2
64 0.17
65 7.8
66 2.2
74 1.4
75 0.16
76 1.3
77 22.1
78 5.4
79 0.51
81 2
82 2.7
89 2.3
91 1.53
92 2.3
93 4.4
94 1.7
102 0.16
103 17.6
104 9.6
105 4.3
106 0.1
107 3.2
109 1.3
115 1.6
118 0.1
119 1.7
120 1.2
121 12.9
122 0.2
131 16.7
132 5.4
133 12
134 0.15
135 1.1
137 5.3
147 3.3
149 3.44
150 3.3
163 4
164 99.99
165 11

$$$$

     RDKit          2D

 12 13  0  0  0  0  0  0  0  0999 V2000
    5.8467    1.3723    0.0000 C   0  0  0  0  0  0  0  0  0  0  0  0
    4.5481    0.6216    0.0000 C   0  0  0  0  0  0  0  0  0  0  0  0
    3.2486    1.3708    0.0000 C   0  0  0  0  0  0  0  0  0  0  0  0
    1.9500   -0.9000    0.0000 C   0  0  0  0  0  0  0  0  0  0  0  0
    0.6300   -1.6600    0.0000 C   0  0  0  0  0  0  0  0  0  0  0  0
    0.6300    1.3800    0.0000 C   0  0  0  0  0  0  0  0  0  0  0  0
   -2.9400   -0.2300    0.0000 C   0  0  0  0  0  0  0  0  0  0  0  0
    1.9500    0.6200    0.0000 C   0  0  0  0  0  0  0  0  0  0  0  0
   -0.6600   -0.9000    0.0000 C   0  0  0  0  0  0  0  0  0  0  0  0
   -0.6600    0.6200    0.0000 C   0  0  0  0  0  0  0  0  0  0  0  0
   -2.0600   -1.3400    0.0000 O   0  0  0  0  0  0  0  0  0  0  0  0
   -2.0900    1.0600    0.0000 O   0  0  0  0  0  0  0  0  0  0  0  0
  2  1  2  0
  3  2  1  0
  5  4  2  0
  8  3  1  0
  8  4  1  0
  8  6  2  0
  9  5  1  0
 10  6  1  0
 10  9  2  0
 11  7  1  0
 11  9  1  0
 12  7  1  0
 12 10  1  0
M  END
>  <NAME>  (1953) 
SAFROLE

>  <SYNONYMS>  (1953) 


>  <SPECTRUM TYPE>  (1953) 
MS1

>  <INSTRUMENT TYPE>  (1953) 
EI-B

>  <INSTRUMENT>  (1953) 
HITACHI RMU-6M

>  <ION MODE>  (1953) 
P

>  <INCHIKEY>  (1953) 
ZMQAAUBTXCXRIC-UHFFFAOYSA-N

>  <FORMULA>  (1953) 
C10H10O2

>  <EXACT MASS>  (1953) 
162.06807956

>  <MW>  (1953) 
162

>  <ID>  (1953) 
JP009330

>  <CONTRIBUTOR>  (1953) 
University of Tokyo Team, {Faculty of Engineering, University of Tokyo

>  <COMMENT>  (1953) 
SMILES=C=CCc(c1)cc(O2)c(OC2)c1
InChI=InChI=1S/C10H10O2/c1-2-3-8-4-5-9-10(6-8)12-7-11-9/h2,4-6H,1,3,7H2
computed SMILES=O1C2=CC=C(C=C2OC1)CC=C
accession=JP009330
date=2016.01.19 (Created 2008.10.21, modified 2011.05.06)
author=YAMAMOTO M, DEP. CHEMISTRY, FAC. SCIENCE, NARA WOMEN'S UNIV.
license=CC BY-NC-SA
exact mass=162.06808
ionization energy=70 eV
ion type=[M]+*
computed spectral entropy=2.9873271714015437
computed normalized entropy=0.7636271993432717
SPLASH=splash10-03di-6900000000-87b7efd770862a8f97a5
submitter=submitter = University of Tokyo Team (Faculty of Engineering, University of Tokyo)
MoNA Rating=3.75

>  <NUM PEAKS>  (1953) 
50

>  <MASS SPECTRAL PEAKS>  (1953) 
26 1.6
27 6.6
28 3.2
29 0.22
37 1.5
38 4
39 14.1
40 0.13
41 3
50 9.4
51 27.3
52 0.75
53 4.2
55 1.9
61 1.7
62 0.41
63 9.8
64 2.3
65 5.7
66 0.19
67 2
69 1.7
74 3.1
75 0.35
76 5.2
77 30.2
78 15.3
79 0.65
80 2.2
81 3.1
89 2.5
91 0.55
92 1.7
102 5.1
103 24.1
104 3.66
105 9.9
106 1.9
115 2.2
119 0.22
121 1.5
131 32.7
132 13.4
133 0.31
134 2
135 26.6
136 2.7
161 2.4
162 99.99
163 11.2

$$$$

     RDKit          2D

 12 13  0  0  0  0  0  0  0  0999 V2000
    5.8467    1.3723    0.0000 C   0  0  0  0  0  0  0  0  0  0  0  0
    4.5481    0.6216    0.0000 C   0  0  0  0  0  0  0  0  0  0  0  0
    3.2486    1.3708    0.0000 C   0  0  0  0  0  0  0  0  0  0  0  0
    1.9500   -0.9000    0.0000 C   0  0  0  0  0  0  0  0  0  0  0  0
    0.6300   -1.6600    0.0000 C   0  0  0  0  0  0  0  0  0  0  0  0
    0.6300    1.3800    0.0000 C   0  0  0  0  0  0  0  0  0  0  0  0
   -2.9400   -0.2300    0.0000 C   0  0  0  0  0  0  0  0  0  0  0  0
    1.9500    0.6200    0.0000 C   0  0  0  0  0  0  0  0  0  0  0  0
   -0.6600   -0.9000    0.0000 C   0  0  0  0  0  0  0  0  0  0  0  0
   -0.6600    0.6200    0.0000 C   0  0  0  0  0  0  0  0  0  0  0  0
   -2.0600   -1.3400    0.0000 O   0  0  0  0  0  0  0  0  0  0  0  0
   -2.0900    1.0600    0.0000 O   0  0  0  0  0  0  0  0  0  0  0  0
  2  1  1  0
  2  3  2  0
  5  4  2  0
  8  3  1  0
  8  4  1  0
  8  6  2  0
  9  5  1  0
 10  6  1  0
 10  9  2  0
 11  7  1  0
 11  9  1  0
 12  7  1  0
 12 10  1  0
M  END
>  <NAME>  (1954) 
ISOSAFROLE

>  <SYNONYMS>  (1954) 


>  <SPECTRUM TYPE>  (1954) 
MS1

>  <INSTRUMENT TYPE>  (1954) 
EI-B

>  <INSTRUMENT>  (1954) 
HITACHI RMU-6M

>  <ION MODE>  (1954) 
P

>  <INCHIKEY>  (1954) 
VHVOLFRBFDOUSH-NSCUHMNNSA-N

>  <FORMULA>  (1954) 
C10H10O2

>  <EXACT MASS>  (1954) 
162.06807956

>  <MW>  (1954) 
162

>  <ID>  (1954) 
JP009329

>  <CONTRIBUTOR>  (1954) 
University of Tokyo Team, {Faculty of Engineering, University of Tokyo

>  <COMMENT>  (1954) 
SMILES=CC=Cc(c1)cc(O2)c(OC2)c1
InChI=InChI=1S/C10H10O2/c1-2-3-8-4-5-9-10(6-8)12-7-11-9/h2-6H,7H2,1H3/b3-2+
computed SMILES=O1C2=CC=C(C=CC)C=C2OC1
accession=JP009329
date=2016.01.19 (Created 2008.10.21, modified 2011.05.06)
author=YAMAMOTO M, DEP. CHEMISTRY, FAC. SCIENCE, NARA WOMEN'S UNIV.
license=CC BY-NC-SA
exact mass=162.06808
ionization energy=70 eV
ion type=[M]+*
computed spectral entropy=2.642642976247279
computed normalized entropy=0.721331652502446
SPLASH=splash10-03di-4900000000-9e3ac55ccc5003e4dc01
submitter=submitter = University of Tokyo Team (Faculty of Engineering, University of Tokyo)
MoNA Rating=3.75

>  <NUM PEAKS>  (1954) 
39

>  <MASS SPECTRAL PEAKS>  (1954) 
27 4.2
28 1.8
29 1
38 0.26
39 10.7
41 2
50 6.9
51 1.52
52 4.8
53 2.1
55 1.1
62 0.34
63 8.9
64 1.2
65 3.9
66 0.1
74 2.1
75 2.7
76 4
77 1.93
78 13.2
79 3.7
80 1.2
81 0.47
89 2.1
91 5.9
102 4.3
103 2.46
104 30.5
105 5.9
119 1.4
131 2.67
132 9.6
133 1.6
135 12.2
161 2.41
162 99.99
163 10.1
164 1.4

$$$$

     RDKit          2D

  8  8  0  0  0  0  0  0  0  0999 V2000
    0.0000    1.5000    0.0000 C   0  0  0  0  0  0  0  0  0  0  0  0
    0.0000    0.0000    0.0000 C   0  0  0  0  0  0  0  0  0  0  0  0
   -1.1727    2.4352    0.0000 C   0  0  0  0  0  0  0  0  0  0  0  0
   -1.1727   -0.9352    0.0000 C   0  0  0  0  0  0  0  0  0  0  0  0
   -2.6351    2.1015    0.0000 C   0  0  0  0  0  0  0  0  0  0  0  0
   -2.6351   -0.6015    0.0000 C   0  0  0  0  0  0  0  0  0  0  0  0
   -3.2860    0.7500    0.0000 C   0  0  0  0  0  0  0  0  0  0  0  0
   -4.7860    0.7500    0.0000 O   0  0  0  0  0  0  0  0  0  0  0  0
  2  1  1  0
  3  1  1  0
  4  2  1  0
  5  3  1  0
  6  4  1  0
  7  5  1  0
  7  6  1  0
  8  7  1  0
M  END
>  <NAME>  (1955) 
CYCLOHEPTANOL

>  <SYNONYMS>  (1955) 


>  <SPECTRUM TYPE>  (1955) 
MS1

>  <INSTRUMENT TYPE>  (1955) 
EI-B

>  <INSTRUMENT>  (1955) 
HITACHI M-80B

>  <ION MODE>  (1955) 
P

>  <INCHIKEY>  (1955) 
QCRFMSUKWRQZEM-UHFFFAOYSA-N

>  <FORMULA>  (1955) 
C7H14O

>  <EXACT MASS>  (1955) 
114.104465068

>  <MW>  (1955) 
114

>  <ID>  (1955) 
JP009294

>  <CONTRIBUTOR>  (1955) 
University of Tokyo Team, {Faculty of Engineering, University of Tokyo

>  <COMMENT>  (1955) 
SMILES=OC(C1)CCCCC1
InChI=InChI=1S/C7H14O/c8-7-5-3-1-2-4-6-7/h7-8H,1-6H2
computed SMILES=OC1CCCCCC1
accession=JP009294
date=2016.01.19 (Created 2008.10.21, modified 2011.05.06)
author=SODA AROMATIC CO., LTD.
license=CC BY-NC-SA
exact mass=114.10447
ionization energy=70 eV
ion type=[M]+*
computed spectral entropy=2.7999719205325917
computed normalized entropy=0.7754183252762485
SPLASH=splash10-0a4l-9000000000-07fdc731db6a71872712
submitter=submitter = University of Tokyo Team (Faculty of Engineering, University of Tokyo)
MoNA Rating=3.75

>  <NUM PEAKS>  (1955) 
37

>  <MASS SPECTRAL PEAKS>  (1955) 
15 1.3
26 1.5
27 17.1
28 0.46
29 14.8
30 1
31 7
39 1.7
40 3
41 33
42 16.1
43 1.52
44 26
45 5.8
51 1.2
53 0.61
54 13.8
55 23.5
56 3.1
57 99.99
58 8.8
66 1.5
67 18.2
68 3.6
69 3.1
70 12.5
71 12.9
72 0.59
81 32.1
82 1.9
83 1.1
85 0.51
86 3.2
95 1.8
96 18.6
97 0.17
114 1.4

$$$$

     RDKit          2D

  7  6  0  0  0  0  0  0  0  0999 V2000
    1.9486    3.3750    0.0000 C   0  0  0  0  0  0  0  0  0  0  0  0
   -5.8457    3.3750    0.0000 C   0  0  0  0  0  0  0  0  0  0  0  0
    0.6495    4.1250    0.0000 C   0  0  0  0  0  0  0  0  0  0  0  0
   -4.5466    4.1250    0.0000 C   0  0  0  0  0  0  0  0  0  0  0  0
   -0.6495    3.3750    0.0000 C   0  0  0  0  0  0  0  0  0  0  0  0
   -1.9486    4.1250    0.0000 C   0  0  0  0  0  0  0  0  0  0  0  0
   -3.2476    3.3750    0.0000 O   0  0  0  0  0  0  0  0  0  0  0  0
  3  1  1  0
  4  2  1  0
  5  3  1  0
  6  5  1  0
  7  4  1  0
  7  6  1  0
M  END
>  <NAME>  (1956) 
BUTYL ETHYL ETHER

>  <SYNONYMS>  (1956) 


>  <SPECTRUM TYPE>  (1956) 
MS1

>  <INSTRUMENT TYPE>  (1956) 
EI-B

>  <INSTRUMENT>  (1956) 
HITACHI M-80B

>  <ION MODE>  (1956) 
P

>  <INCHIKEY>  (1956) 
PZHIWRCQKBBTOW-UHFFFAOYSA-N

>  <FORMULA>  (1956) 
C6H14O

>  <EXACT MASS>  (1956) 
102.104465068

>  <MW>  (1956) 
102

>  <ID>  (1956) 
JP009293

>  <CONTRIBUTOR>  (1956) 
University of Tokyo Team, {Faculty of Engineering, University of Tokyo

>  <COMMENT>  (1956) 
SMILES=CCCCOCC
InChI=InChI=1S/C6H14O/c1-3-5-6-7-4-2/h3-6H2,1-2H3
computed SMILES=O(CC)CCCC
accession=JP009293
author=SODA AROMATIC CO., LTD.
date=2016.01.19 (Created 2008.10.21, modified 2011.05.06)
license=CC BY-NC-SA
exact mass=102.10447
ionization energy=70 eV
ion type=[M]+*
computed spectral entropy=2.0775560527496943
computed normalized entropy=0.6625928512944319
SPLASH=splash10-0a7i-9000000000-83125b1763fd33f69b46
submitter=submitter = University of Tokyo Team (Faculty of Engineering, University of Tokyo)
MoNA Rating=3.75

>  <NUM PEAKS>  (1956) 
23

>  <MASS SPECTRAL PEAKS>  (1956) 
15 2.2
26 2.2
27 23.6
28 0.65
29 38.6
30 1.5
31 73.9
39 0.82
40 1
41 26
42 2.6
43 0.66
44 1.6
45 7.7
55 4.3
56 2.15
57 23.5
58 1.2
59 99.99
60 0.25
73 3.9
87 1.3
102 2.5

$$$$

     RDKit          2D

 12 11  0  0  0  0  0  0  0  0999 V2000
   -6.8200    5.0625    0.0000 C   0  0  0  0  0  0  0  0  0  0  0  0
   -5.5209    2.8125    0.0000 C   0  0  0  0  0  0  0  0  0  0  0  0
    3.5724    5.0625    0.0000 C   0  0  0  0  0  0  0  0  0  0  0  0
    2.2733    2.8125    0.0000 C   0  0  0  0  0  0  0  0  0  0  0  0
   -0.3248    2.8125    0.0000 C   0  0  0  0  0  0  0  0  0  0  0  0
   -4.2219    5.0625    0.0000 C   0  0  0  0  0  0  0  0  0  0  0  0
   -2.9228    4.3125    0.0000 C   0  0  0  0  0  0  0  0  0  0  0  0
   -5.5209    4.3125    0.0000 C   0  0  0  0  0  0  0  0  0  0  0  0
    2.2733    4.3125    0.0000 C   0  0  0  0  0  0  0  0  0  0  0  0
   -0.3248    4.3125    0.0000 C   0  0  0  0  0  0  0  0  0  0  0  0
   -1.6238    5.0625    0.0000 O   0  0  0  0  0  0  0  0  0  0  0  0
    0.9743    5.0625    0.0000 O   0  0  0  0  0  0  0  0  0  0  0  0
  7  6  1  0
  8  1  1  0
  8  2  1  0
  8  6  1  0
  9  3  1  0
  9  4  1  0
 10  5  1  0
 11  7  1  0
 11 10  1  0
 12  9  1  0
 12 10  1  0
M  END
>  <NAME>  (1957) 
ACETALDEHYDE ISOPENTYL ISOPROPYL ACETAL

>  <SYNONYMS>  (1957) 
ACETALDEHYDE ISOAMYL ISOPROPYL ACETAL

>  <SPECTRUM TYPE>  (1957) 
MS1

>  <INSTRUMENT TYPE>  (1957) 
EI-B

>  <INSTRUMENT>  (1957) 
HITACHI M-80B

>  <ION MODE>  (1957) 
P

>  <INCHIKEY>  (1957) 
FUVLXJQGLJXAQI-UHFFFAOYSA-N

>  <FORMULA>  (1957) 
C10H22O2

>  <EXACT MASS>  (1957) 
174.161979944

>  <MW>  (1957) 
174

>  <ID>  (1957) 
JP009292

>  <CONTRIBUTOR>  (1957) 
University of Tokyo Team, {Faculty of Engineering, University of Tokyo

>  <COMMENT>  (1957) 
SMILES=CC(C)CCOC(C)OC(C)C
InChI=InChI=1S/C10H22O2/c1-8(2)6-7-11-10(5)12-9(3)4/h8-10H,6-7H2,1-5H3
computed SMILES=O(CCC(C)C)C(OC(C)C)C
accession=JP009292
date=2016.01.19 (Created 2008.10.21, modified 2011.05.06)
author=SODA AROMATIC CO., LTD.
license=CC BY-NC-SA
exact mass=174.16198
ionization energy=70 eV
ion type=[M]+*
computed spectral entropy=2.3129610041482995
computed normalized entropy=0.6800431567479222
SPLASH=splash10-007a-9000000000-1b0ab547812b90ffc8fe
submitter=submitter = University of Tokyo Team (Faculty of Engineering, University of Tokyo)
MoNA Rating=3.75

>  <NUM PEAKS>  (1957) 
30

>  <MASS SPECTRAL PEAKS>  (1957) 
15 1.8
27 13.9
29 7.9
31 0.17
39 11.8
41 24.7
42 8
43 8.5
44 4.7
45 99.99
46 2.1
53 0.14
55 12.9
56 1.3
57 1.2
58 0.18
59 1.3
61 1.1
69 8.5
70 0.24
71 88.6
72 6.5
87 96.5
88 0.46
89 1.1
115 15.7
116 1.1
117 0.88
159 16.2
160 1.8

$$$$

     RDKit          2D

 11 10  0  0  0  0  0  0  0  0999 V2000
    2.5981    4.5000    0.0000 C   0  0  0  0  0  0  0  0  0  0  0  0
   -7.7942    4.5000    0.0000 C   0  0  0  0  0  0  0  0  0  0  0  0
   -6.4952    6.7500    0.0000 C   0  0  0  0  0  0  0  0  0  0  0  0
   -3.8971    6.7500    0.0000 C   0  0  0  0  0  0  0  0  0  0  0  0
    1.2990    5.2500    0.0000 C   0  0  0  0  0  0  0  0  0  0  0  0
    0.0000    4.5000    0.0000 C   0  0  0  0  0  0  0  0  0  0  0  0
   -1.2990    5.2500    0.0000 C   0  0  0  0  0  0  0  0  0  0  0  0
   -6.4952    5.2500    0.0000 C   0  0  0  0  0  0  0  0  0  0  0  0
   -3.8971    5.2500    0.0000 C   0  0  0  0  0  0  0  0  0  0  0  0
   -2.5981    4.5000    0.0000 O   0  0  0  0  0  0  0  0  0  0  0  0
   -5.1962    4.5000    0.0000 O   0  0  0  0  0  0  0  0  0  0  0  0
  5  1  1  0
  6  5  1  0
  7  6  1  0
  8  2  1  0
  8  3  1  0
  9  4  1  0
 10  7  1  0
 10  9  1  0
 11  8  1  0
 11  9  1  0
M  END
>  <NAME>  (1958) 
ACETALDEHYDE BUTYL ISOPROPYL ACETAL

>  <SYNONYMS>  (1958) 


>  <SPECTRUM TYPE>  (1958) 
MS1

>  <INSTRUMENT TYPE>  (1958) 
EI-B

>  <INSTRUMENT>  (1958) 
HITACHI M-80B

>  <ION MODE>  (1958) 
P

>  <INCHIKEY>  (1958) 
MDDRKDNGWLHURG-UHFFFAOYSA-N

>  <FORMULA>  (1958) 
C9H20O2

>  <EXACT MASS>  (1958) 
160.14632988

>  <MW>  (1958) 
160

>  <ID>  (1958) 
JP009291

>  <CONTRIBUTOR>  (1958) 
University of Tokyo Team, {Faculty of Engineering, University of Tokyo

>  <COMMENT>  (1958) 
SMILES=CCCCOC(C)OC(C)C
InChI=InChI=1S/C9H20O2/c1-5-6-7-10-9(4)11-8(2)3/h8-9H,5-7H2,1-4H3
computed SMILES=O(CCCC)C(OC(C)C)C
accession=JP009291
date=2016.01.19 (Created 2008.10.21, modified 2011.05.06)
author=SODA AROMATIC CO., LTD.
license=CC BY-NC-SA
exact mass=160.14633
ionization energy=70 eV
ion type=[M]+*
computed spectral entropy=2.182752320583137
computed normalized entropy=0.6781101351346822
SPLASH=splash10-0002-9100000000-d0824f08143fcf25283e
submitter=submitter = University of Tokyo Team (Faculty of Engineering, University of Tokyo)
MoNA Rating=3.75

>  <NUM PEAKS>  (1958) 
25

>  <MASS SPECTRAL PEAKS>  (1958) 
15 1.5
27 11.3
28 3.1
29 1.41
31 2.6
39 4.5
41 22.5
42 0.3
43 29.3
44 2.5
45 99.99
46 0.22
55 3
56 2.7
57 53.3
58 0.28
61 2.9
69 2.2
73 1.1
87 5.33
88 2.9
101 18.3
102 1.4
103 0.75
145 11.5

$$$$

     RDKit          2D

 10  9  0  0  0  0  0  0  0  0999 V2000
    2.2733    2.8125    0.0000 C   0  0  0  0  0  0  0  0  0  0  0  0
    0.9743    5.0625    0.0000 C   0  0  0  0  0  0  0  0  0  0  0  0
   -5.5209    2.8125    0.0000 C   0  0  0  0  0  0  0  0  0  0  0  0
   -4.2219    5.0625    0.0000 C   0  0  0  0  0  0  0  0  0  0  0  0
   -1.6238    5.0625    0.0000 C   0  0  0  0  0  0  0  0  0  0  0  0
    0.9743    3.5625    0.0000 C   0  0  0  0  0  0  0  0  0  0  0  0
   -4.2219    3.5625    0.0000 C   0  0  0  0  0  0  0  0  0  0  0  0
   -1.6238    3.5625    0.0000 C   0  0  0  0  0  0  0  0  0  0  0  0
   -0.3248    2.8125    0.0000 O   0  0  0  0  0  0  0  0  0  0  0  0
   -2.9228    2.8125    0.0000 O   0  0  0  0  0  0  0  0  0  0  0  0
  6  1  1  0
  6  2  1  0
  7  3  1  0
  7  4  1  0
  8  5  1  0
  9  6  1  0
  9  8  1  0
 10  7  1  0
 10  8  1  0
M  END
>  <NAME>  (1959) 
ACETALDEHYDE DIISOPROPYL ACETAL

>  <SYNONYMS>  (1959) 


>  <SPECTRUM TYPE>  (1959) 
MS1

>  <INSTRUMENT TYPE>  (1959) 
EI-B

>  <INSTRUMENT>  (1959) 
HITACHI M-80B

>  <ION MODE>  (1959) 
P

>  <INCHIKEY>  (1959) 
TWWSMHPNERSWRN-UHFFFAOYSA-N

>  <FORMULA>  (1959) 
C8H18O2

>  <EXACT MASS>  (1959) 
146.130679816

>  <MW>  (1959) 
146

>  <ID>  (1959) 
JP009290

>  <CONTRIBUTOR>  (1959) 
University of Tokyo Team, {Faculty of Engineering, University of Tokyo

>  <COMMENT>  (1959) 
SMILES=CC(C)OC(C)OC(C)C
InChI=InChI=1S/C8H18O2/c1-6(2)9-8(5)10-7(3)4/h6-8H,1-5H3
computed SMILES=O(C(OC(C)C)C)C(C)C
accession=JP009290
date=2016.01.19 (Created 2008.10.21, modified 2011.05.06)
author=SODA AROMATIC CO., LTD.
license=CC BY-NC-SA
exact mass=146.13068
ionization energy=70 eV
ion type=[M]+*
computed spectral entropy=1.8311848991537678
computed normalized entropy=0.6335464959312519
SPLASH=splash10-000b-9000000000-3fe7863153b24076f2a0
submitter=submitter = University of Tokyo Team (Faculty of Engineering, University of Tokyo)
MoNA Rating=3.75

>  <NUM PEAKS>  (1959) 
18

>  <MASS SPECTRAL PEAKS>  (1959) 
18 13.6
20 1.5
28 1.7
39 0.49
40 1.1
41 8.8
42 2.7
43 5.33
45 99.99
47 4.2
58 2.6
59 0.91
61 2.8
69 4.1
87 43.5
88 0.15
89 13
131 8.2

$$$$

     RDKit          2D

 11 10  0  0  0  0  0  0  0  0999 V2000
    2.5981    4.5000    0.0000 C   0  0  0  0  0  0  0  0  0  0  0  0
   -7.7942    4.5000    0.0000 C   0  0  0  0  0  0  0  0  0  0  0  0
   -6.4952    6.7500    0.0000 C   0  0  0  0  0  0  0  0  0  0  0  0
   -2.5981    3.0000    0.0000 C   0  0  0  0  0  0  0  0  0  0  0  0
    1.2990    5.2500    0.0000 C   0  0  0  0  0  0  0  0  0  0  0  0
    0.0000    4.5000    0.0000 C   0  0  0  0  0  0  0  0  0  0  0  0
   -5.1962    4.5000    0.0000 C   0  0  0  0  0  0  0  0  0  0  0  0
   -6.4952    5.2500    0.0000 C   0  0  0  0  0  0  0  0  0  0  0  0
   -2.5981    4.5000    0.0000 C   0  0  0  0  0  0  0  0  0  0  0  0
   -1.2990    5.2500    0.0000 O   0  0  0  0  0  0  0  0  0  0  0  0
   -3.8971    5.2500    0.0000 O   0  0  0  0  0  0  0  0  0  0  0  0
  5  1  1  0
  6  5  1  0
  8  2  1  0
  8  3  1  0
  8  7  1  0
  9  4  1  0
 10  6  1  0
 10  9  1  0
 11  7  1  0
 11  9  1  0
M  END
>  <NAME>  (1960) 
ACETALDEHYDE ISOBUTYL PROPYL ACETAL

>  <SYNONYMS>  (1960) 


>  <SPECTRUM TYPE>  (1960) 
MS1

>  <INSTRUMENT TYPE>  (1960) 
EI-B

>  <INSTRUMENT>  (1960) 
HITACHI M-80B

>  <ION MODE>  (1960) 
P

>  <INCHIKEY>  (1960) 
ZTFNAAOKRDLYDA-UHFFFAOYSA-N

>  <FORMULA>  (1960) 
C9H20O2

>  <EXACT MASS>  (1960) 
160.14632988

>  <MW>  (1960) 
160

>  <ID>  (1960) 
JP009289

>  <CONTRIBUTOR>  (1960) 
University of Tokyo Team, {Faculty of Engineering, University of Tokyo

>  <COMMENT>  (1960) 
SMILES=CCCOC(C)OCC(C)C
InChI=InChI=1S/C9H20O2/c1-5-6-10-9(4)11-7-8(2)3/h8-9H,5-7H2,1-4H3
computed SMILES=O(CCC)C(OCC(C)C)C
accession=JP009289
date=2016.01.19 (Created 2008.10.21, modified 2011.05.06)
author=SODA AROMATIC CO., LTD.
license=CC BY-NC-SA
exact mass=160.14633
ionization energy=70 eV
ion type=[M]+*
computed spectral entropy=2.3083961201272816
computed normalized entropy=0.7085106574310049
SPLASH=splash10-052n-9000000000-797c67ee6f0c92391d50
submitter=submitter = University of Tokyo Team (Faculty of Engineering, University of Tokyo)
MoNA Rating=3.75

>  <NUM PEAKS>  (1960) 
26

>  <MASS SPECTRAL PEAKS>  (1960) 
15 1.7
26 1
27 19.6
28 0.54
29 18.6
31 4.8
39 9.9
40 0.13
41 33.5
42 4.6
43 47.4
44 0.19
45 99.99
46 1.8
47 1.4
55 0.16
56 3.8
57 64.7
58 7.6
61 0.19
87 61.6
88 3.5
89 5.4
101 1.76
117 1.9
145 6.5

$$$$

     RDKit          2D

 12 11  0  0  0  0  0  0  0  0999 V2000
   -6.8200    5.0625    0.0000 C   0  0  0  0  0  0  0  0  0  0  0  0
   -5.5209    2.8125    0.0000 C   0  0  0  0  0  0  0  0  0  0  0  0
    3.5724    5.0625    0.0000 C   0  0  0  0  0  0  0  0  0  0  0  0
    2.2733    2.8125    0.0000 C   0  0  0  0  0  0  0  0  0  0  0  0
   -1.6238    6.5625    0.0000 C   0  0  0  0  0  0  0  0  0  0  0  0
   -4.2219    5.0625    0.0000 C   0  0  0  0  0  0  0  0  0  0  0  0
    0.9743    5.0625    0.0000 C   0  0  0  0  0  0  0  0  0  0  0  0
   -5.5209    4.3125    0.0000 C   0  0  0  0  0  0  0  0  0  0  0  0
    2.2733    4.3125    0.0000 C   0  0  0  0  0  0  0  0  0  0  0  0
   -1.6238    5.0625    0.0000 C   0  0  0  0  0  0  0  0  0  0  0  0
   -2.9228    4.3125    0.0000 O   0  0  0  0  0  0  0  0  0  0  0  0
   -0.3248    4.3125    0.0000 O   0  0  0  0  0  0  0  0  0  0  0  0
  8  1  1  0
  8  2  1  0
  8  6  1  0
  9  3  1  0
  9  4  1  0
  9  7  1  0
 10  5  1  0
 11  6  1  0
 11 10  1  0
 12  7  1  0
 12 10  1  0
M  END
>  <NAME>  (1961) 
ACETALDEHYDE DIISOBUTYL ACETAL

>  <SYNONYMS>  (1961) 


>  <SPECTRUM TYPE>  (1961) 
MS1

>  <INSTRUMENT TYPE>  (1961) 
EI-B

>  <INSTRUMENT>  (1961) 
HITACHI M-80B

>  <ION MODE>  (1961) 
P

>  <INCHIKEY>  (1961) 
KIELJSVPUISYCI-UHFFFAOYSA-N

>  <FORMULA>  (1961) 
C10H22O2

>  <EXACT MASS>  (1961) 
174.161979944

>  <MW>  (1961) 
174

>  <ID>  (1961) 
JP009288

>  <CONTRIBUTOR>  (1961) 
University of Tokyo Team, {Faculty of Engineering, University of Tokyo

>  <COMMENT>  (1961) 
computed SMILES=O(CC(C)C)C(OCC(C)C)C
SMILES=CC(C)COC(C)OCC(C)C
InChI=InChI=1S/C10H22O2/c1-8(2)6-11-10(5)12-7-9(3)4/h8-10H,6-7H2,1-5H3
accession=JP009288
date=2016.01.19 (Created 2008.10.21, modified 2011.05.06)
author=SODA AROMATIC CO., LTD.
license=CC BY-NC-SA
exact mass=174.16198
ionization energy=70 eV
ion type=[M]+*
computed spectral entropy=1.988718867727724
computed normalized entropy=0.6532120910282441
SPLASH=splash10-0a4i-9200000000-2617ab1b5764e58e8a4d
submitter=submitter = University of Tokyo Team (Faculty of Engineering, University of Tokyo)
MoNA Rating=3.75

>  <NUM PEAKS>  (1961) 
21

>  <MASS SPECTRAL PEAKS>  (1961) 
15 1.1
27 9.9
28 4
29 1.96
31 3.4
33 1
39 7.7
41 2.93
42 3.7
43 9.8
45 34.9
55 0.26
56 5.1
57 99.99
58 7.9
83 0.14
101 47.1
102 3.3
103 1.1
131 0.12
159 3.4

$$$$

     RDKit          2D

 13 12  0  0  0  0  0  0  0  0999 V2000
    0.9743    2.0625    0.0000 C   0  0  0  0  0  0  0  0  0  0  0  0
   -6.8200    5.0625    0.0000 C   0  0  0  0  0  0  0  0  0  0  0  0
   -5.5209    2.8125    0.0000 C   0  0  0  0  0  0  0  0  0  0  0  0
    3.5724    5.0625    0.0000 C   0  0  0  0  0  0  0  0  0  0  0  0
    2.2733    2.8125    0.0000 C   0  0  0  0  0  0  0  0  0  0  0  0
   -0.3248    2.8125    0.0000 C   0  0  0  0  0  0  0  0  0  0  0  0
   -4.2219    5.0625    0.0000 C   0  0  0  0  0  0  0  0  0  0  0  0
   -2.9228    4.3125    0.0000 C   0  0  0  0  0  0  0  0  0  0  0  0
   -5.5209    4.3125    0.0000 C   0  0  0  0  0  0  0  0  0  0  0  0
    2.2733    4.3125    0.0000 C   0  0  0  0  0  0  0  0  0  0  0  0
   -0.3248    4.3125    0.0000 C   0  0  0  0  0  0  0  0  0  0  0  0
   -1.6238    5.0625    0.0000 O   0  0  0  0  0  0  0  0  0  0  0  0
    0.9743    5.0625    0.0000 O   0  0  0  0  0  0  0  0  0  0  0  0
  6  1  1  0
  8  7  1  0
  9  2  1  0
  9  3  1  0
  9  7  1  0
 10  4  1  0
 10  5  1  0
 11  6  1  0
 12  8  1  0
 12 11  1  0
 13 10  1  0
 13 11  1  0
M  END
>  <NAME>  (1962) 
PROPANAL ISOPENTYL ISOPROPYL ACETAL

>  <SYNONYMS>  (1962) 
PROPANAL ISOAMYL ISOPROPYL ACETAL

>  <SPECTRUM TYPE>  (1962) 
MS1

>  <INSTRUMENT TYPE>  (1962) 
EI-B

>  <INSTRUMENT>  (1962) 
HITACHI M-80B

>  <ION MODE>  (1962) 
P

>  <INCHIKEY>  (1962) 
JWKHUAAWOAFUMW-UHFFFAOYSA-N

>  <FORMULA>  (1962) 
C11H24O2

>  <EXACT MASS>  (1962) 
188.177630008

>  <MW>  (1962) 
188

>  <ID>  (1962) 
JP009287

>  <CONTRIBUTOR>  (1962) 
University of Tokyo Team, {Faculty of Engineering, University of Tokyo

>  <COMMENT>  (1962) 
SMILES=CCC(OCCC(C)C)OC(C)C
InChI=InChI=1S/C11H24O2/c1-6-11(13-10(4)5)12-8-7-9(2)3/h9-11H,6-8H2,1-5H3
computed SMILES=O(CCC(C)C)C(OC(C)C)CC
accession=JP009287
date=2016.01.19 (Created 2008.10.21, modified 2011.05.06)
author=SODA AROMATIC CO., LTD.
license=CC BY-NC-SA
exact mass=188.17763
ionization energy=70 eV
ion type=[M]+*
computed spectral entropy=2.17456729719143
computed normalized entropy=0.667434887767924
SPLASH=splash10-05fu-9200000000-00a7e789767f58e23b2a
submitter=submitter = University of Tokyo Team (Faculty of Engineering, University of Tokyo)
MoNA Rating=3.75

>  <NUM PEAKS>  (1962) 
26

>  <MASS SPECTRAL PEAKS>  (1962) 
27 7.6
29 6.7
31 5.4
39 0.39
41 19
42 3.9
43 67.2
44 0.19
45 3.5
47 1
53 1
55 0.49
58 2.6
59 69.6
60 2.3
69 0.11
71 99.99
72 4.7
74 1
89 0.13
101 39.4
102 2.5
117 15.1
129 0.76
159 9.5
160 1.2

$$$$

     RDKit          2D

 15 15  0  0  0  0  0  0  0  0999 V2000
   -4.2216    6.1321    0.0000 C   0  0  0  0  0  0  0  0  0  0  0  0
   -6.8197    3.1321    0.0000 C   0  0  0  0  0  0  0  0  0  0  0  0
   -5.5207    5.3821    0.0000 C   0  0  0  0  0  0  0  0  0  0  0  0
   -2.9226    5.3821    0.0000 C   0  0  0  0  0  0  0  0  0  0  0  0
    3.5726    1.6321    0.0000 C   0  0  0  0  0  0  0  0  0  0  0  0
    3.5731    3.1329    0.0000 C   0  0  0  0  0  0  0  0  0  0  0  0
    2.2731    0.8813    0.0000 C   0  0  0  0  0  0  0  0  0  0  0  0
    2.2740    3.8829    0.0000 C   0  0  0  0  0  0  0  0  0  0  0  0
    0.9740    1.6313    0.0000 C   0  0  0  0  0  0  0  0  0  0  0  0
   -0.3245    3.8821    0.0000 C   0  0  0  0  0  0  0  0  0  0  0  0
   -5.5207    3.8821    0.0000 C   0  0  0  0  0  0  0  0  0  0  0  0
    0.9745    3.1321    0.0000 C   0  0  0  0  0  0  0  0  0  0  0  0
   -2.9226    3.8821    0.0000 C   0  0  0  0  0  0  0  0  0  0  0  0
   -1.6236    3.1321    0.0000 O   0  0  0  0  0  0  0  0  0  0  0  0
   -4.2216    3.1321    0.0000 O   0  0  0  0  0  0  0  0  0  0  0  0
  4  1  1  0
  6  5  2  0
  7  5  1  0
  8  6  1  0
  9  7  2  0
 11  2  1  0
 11  3  1  0
 12  8  2  0
 12  9  1  0
 12 10  1  0
 13  4  1  0
 14 10  1  0
 14 13  1  0
 15 11  1  0
 15 13  1  0
M  END
>  <NAME>  (1963) 
PROPANAL BENZYL ISOPROPYL ACETAL

>  <SYNONYMS>  (1963) 


>  <SPECTRUM TYPE>  (1963) 
MS1

>  <INSTRUMENT TYPE>  (1963) 
EI-B

>  <INSTRUMENT>  (1963) 
HITACHI M-80B

>  <ION MODE>  (1963) 
P

>  <INCHIKEY>  (1963) 
AMCIABLINRQKGJ-UHFFFAOYSA-N

>  <FORMULA>  (1963) 
C13H20O2

>  <EXACT MASS>  (1963) 
208.14632988

>  <MW>  (1963) 
208

>  <ID>  (1963) 
JP009286

>  <CONTRIBUTOR>  (1963) 
University of Tokyo Team, {Faculty of Engineering, University of Tokyo

>  <COMMENT>  (1963) 
SMILES=CCC(OC(C)C)OCc(c1)cccc1
InChI=InChI=1S/C13H20O2/c1-4-13(15-11(2)3)14-10-12-8-6-5-7-9-12/h5-9,11,13H,4,10H2,1-3H3
computed SMILES=O(CC=1C=CC=CC1)C(OC(C)C)CC
accession=JP009286
date=2016.01.19 (Created 2008.10.21, modified 2011.05.06)
author=SODA AROMATIC CO., LTD.
license=CC BY-NC-SA
exact mass=208.14633
ionization energy=70 eV
ion type=[M]+*
computed spectral entropy=1.861886237221629
computed normalized entropy=0.602348969746032
SPLASH=splash10-0006-9000000000-3b11ef8771d44a867ef2
submitter=submitter = University of Tokyo Team (Faculty of Engineering, University of Tokyo)
MoNA Rating=3.75

>  <NUM PEAKS>  (1963) 
22

>  <MASS SPECTRAL PEAKS>  (1963) 
27 4.8
29 3.1
31 1.9
39 0.45
41 5.5
43 8.1
51 2
57 0.14
59 22.9
63 1.3
65 8.5
77 0.35
79 2.3
89 1.6
90 2.1
91 99.99
92 8.5
101 3.4
107 1.9
108 0.1
148 2.1
179 5.6

$$$$

     RDKit          2D

 10  9  0  0  0  0  0  0  0  0999 V2000
   -0.3248    5.8125    0.0000 C   0  0  0  0  0  0  0  0  0  0  0  0
    2.2733    2.8125    0.0000 C   0  0  0  0  0  0  0  0  0  0  0  0
   -5.5209    2.8125    0.0000 C   0  0  0  0  0  0  0  0  0  0  0  0
   -4.2219    5.0625    0.0000 C   0  0  0  0  0  0  0  0  0  0  0  0
   -1.6238    5.0625    0.0000 C   0  0  0  0  0  0  0  0  0  0  0  0
    0.9743    3.5625    0.0000 C   0  0  0  0  0  0  0  0  0  0  0  0
   -4.2219    3.5625    0.0000 C   0  0  0  0  0  0  0  0  0  0  0  0
   -1.6238    3.5625    0.0000 C   0  0  0  0  0  0  0  0  0  0  0  0
   -0.3248    2.8125    0.0000 O   0  0  0  0  0  0  0  0  0  0  0  0
   -2.9228    2.8125    0.0000 O   0  0  0  0  0  0  0  0  0  0  0  0
  5  1  1  0
  6  2  1  0
  7  3  1  0
  7  4  1  0
  8  5  1  0
  9  6  1  0
  9  8  1  0
 10  7  1  0
 10  8  1  0
M  END
>  <NAME>  (1964) 
PROPANAL ETHYL ISOPROPYL ACETAL

>  <SYNONYMS>  (1964) 


>  <SPECTRUM TYPE>  (1964) 
MS1

>  <INSTRUMENT TYPE>  (1964) 
EI-B

>  <INSTRUMENT>  (1964) 
HITACHI M-80B

>  <ION MODE>  (1964) 
P

>  <INCHIKEY>  (1964) 
ITHBKLPXPKVPOR-UHFFFAOYSA-N

>  <FORMULA>  (1964) 
C8H18O2

>  <EXACT MASS>  (1964) 
146.130679816

>  <MW>  (1964) 
146

>  <ID>  (1964) 
JP009285

>  <CONTRIBUTOR>  (1964) 
University of Tokyo Team, {Faculty of Engineering, University of Tokyo

>  <COMMENT>  (1964) 
SMILES=CCOC(CC)OC(C)C
InChI=InChI=1S/C8H18O2/c1-5-8(9-6-2)10-7(3)4/h7-8H,5-6H2,1-4H3
computed SMILES=O(CC)C(OC(C)C)CC
accession=JP009285
date=2016.01.19 (Created 2008.10.21, modified 2011.05.06)
author=SODA AROMATIC CO., LTD.
license=CC BY-NC-SA
exact mass=146.13068
ionization energy=70 eV
ion type=[M]+*
computed spectral entropy=2.401366636976047
computed normalized entropy=0.7286060368295221
SPLASH=splash10-056r-9000000000-bc3640401f79c40c0f09
submitter=submitter = University of Tokyo Team (Faculty of Engineering, University of Tokyo)
MoNA Rating=3.75

>  <NUM PEAKS>  (1964) 
27

>  <MASS SPECTRAL PEAKS>  (1964) 
14 1.5
15 3.4
19 1.2
26 0.18
27 20
28 3.1
29 25.4
30 0.16
31 15.9
39 5.7
40 1.2
41 1.47
42 3.8
43 28
44 1.5
45 1.06
47 42
57 7.1
58 4.6
59 99.99
60 3
75 61.2
76 1.8
87 3.45
88 1.8
101 10.1
117 11.5

$$$$

     RDKit          2D

 11 10  0  0  0  0  0  0  0  0999 V2000
   -2.9228    5.8125    0.0000 C   0  0  0  0  0  0  0  0  0  0  0  0
    2.2733    2.8125    0.0000 C   0  0  0  0  0  0  0  0  0  0  0  0
    0.9743    5.0625    0.0000 C   0  0  0  0  0  0  0  0  0  0  0  0
   -5.5209    2.8125    0.0000 C   0  0  0  0  0  0  0  0  0  0  0  0
   -4.2219    5.0625    0.0000 C   0  0  0  0  0  0  0  0  0  0  0  0
   -1.6238    5.0625    0.0000 C   0  0  0  0  0  0  0  0  0  0  0  0
    0.9743    3.5625    0.0000 C   0  0  0  0  0  0  0  0  0  0  0  0
   -4.2219    3.5625    0.0000 C   0  0  0  0  0  0  0  0  0  0  0  0
   -1.6238    3.5625    0.0000 C   0  0  0  0  0  0  0  0  0  0  0  0
   -0.3248    2.8125    0.0000 O   0  0  0  0  0  0  0  0  0  0  0  0
   -2.9228    2.8125    0.0000 O   0  0  0  0  0  0  0  0  0  0  0  0
  6  1  1  0
  7  2  1  0
  7  3  1  0
  8  4  1  0
  8  5  1  0
  9  6  1  0
 10  7  1  0
 10  9  1  0
 11  8  1  0
 11  9  1  0
M  END
>  <NAME>  (1965) 
PROPANAL DIISOPROPYL ACETAL

>  <SYNONYMS>  (1965) 


>  <SPECTRUM TYPE>  (1965) 
MS1

>  <INSTRUMENT TYPE>  (1965) 
EI-B

>  <INSTRUMENT>  (1965) 
HITACHI M-80B

>  <ION MODE>  (1965) 
P

>  <INCHIKEY>  (1965) 
OMKOEKNZLXINHM-UHFFFAOYSA-N

>  <FORMULA>  (1965) 
C9H20O2

>  <EXACT MASS>  (1965) 
160.14632988

>  <MW>  (1965) 
160

>  <ID>  (1965) 
JP009284

>  <CONTRIBUTOR>  (1965) 
University of Tokyo Team, {Faculty of Engineering, University of Tokyo

>  <COMMENT>  (1965) 
SMILES=CCC(OC(C)C)OC(C)C
InChI=InChI=1S/C9H20O2/c1-6-9(10-7(2)3)11-8(4)5/h7-9H,6H2,1-5H3
computed SMILES=O(C(C)C)C(OC(C)C)CC
accession=JP009284
date=2016.01.19 (Created 2008.10.21, modified 2011.05.06)
author=SODA AROMATIC CO., LTD.
license=CC BY-NC-SA
exact mass=160.14633
ionization energy=70 eV
ion type=[M]+*
computed spectral entropy=2.2635111862092523
computed normalized entropy=0.7122318585652888
SPLASH=splash10-0a4l-9000000000-a775da7a22e30a7e3e6f
submitter=submitter = University of Tokyo Team (Faculty of Engineering, University of Tokyo)
MoNA Rating=3.75

>  <NUM PEAKS>  (1965) 
24

>  <MASS SPECTRAL PEAKS>  (1965) 
15 3
26 1.5
27 16.1
28 2.73
29 8.2
31 10.4
32 4.3
39 0.69
41 20.6
42 4.6
43 71.3
44 0.24
45 16.5
47 6.5
57 5.6
58 0.66
59 99.99
60 2.4
75 3.1
89 2.72
90 1.3
101 20.6
102 1.8
131 7.9

$$$$

     RDKit          2D

 18 19  0  0  0  0  0  0  0  0999 V2000
    0.9750   -1.7421    0.0000 C   0  0  0  0  0  0  0  0  0  0  0  0
    0.9750   -0.2421    0.0000 C   0  0  0  0  0  0  0  0  0  0  0  0
   -4.2212    4.2579    0.0000 C   0  0  0  0  0  0  0  0  0  0  0  0
    6.1712    4.2579    0.0000 C   0  0  0  0  0  0  0  0  0  0  0  0
   -4.2216    2.7571    0.0000 C   0  0  0  0  0  0  0  0  0  0  0  0
   -2.9216    5.0087    0.0000 C   0  0  0  0  0  0  0  0  0  0  0  0
    4.8716    5.0087    0.0000 C   0  0  0  0  0  0  0  0  0  0  0  0
    6.1716    2.7571    0.0000 C   0  0  0  0  0  0  0  0  0  0  0  0
   -2.9226    2.0071    0.0000 C   0  0  0  0  0  0  0  0  0  0  0  0
   -1.6226    4.2587    0.0000 C   0  0  0  0  0  0  0  0  0  0  0  0
    3.5726    4.2587    0.0000 C   0  0  0  0  0  0  0  0  0  0  0  0
    4.8726    2.0071    0.0000 C   0  0  0  0  0  0  0  0  0  0  0  0
   -0.3240    2.0079    0.0000 C   0  0  0  0  0  0  0  0  0  0  0  0
   -1.6231    2.7579    0.0000 C   0  0  0  0  0  0  0  0  0  0  0  0
    3.5731    2.7579    0.0000 C   0  0  0  0  0  0  0  0  0  0  0  0
    2.2740    2.0079    0.0000 C   0  0  0  0  0  0  0  0  0  0  0  0
    2.2740    0.5079    0.0000 O   0  0  0  0  0  0  0  0  0  0  0  0
    0.9750    2.7579    0.0000 O   0  0  0  0  0  0  0  0  0  0  0  0
  2  1  1  0
  5  3  2  0
  6  3  1  0
  7  4  2  0
  8  4  1  0
  9  5  1  0
 10  6  2  0
 11  7  1  0
 12  8  2  0
 14  9  2  0
 14 10  1  0
 14 13  1  0
 15 11  2  0
 15 12  1  0
 16 15  1  0
 17  2  1  0
 17 16  1  0
 18 13  1  0
 18 16  1  0
M  END
>  <NAME>  (1966) 
BENZALDEHYDE BENZYL ETHYL ACETAL

>  <SYNONYMS>  (1966) 


>  <SPECTRUM TYPE>  (1966) 
MS1

>  <INSTRUMENT TYPE>  (1966) 
EI-B

>  <INSTRUMENT>  (1966) 
HITACHI M-80B

>  <ION MODE>  (1966) 
P

>  <INCHIKEY>  (1966) 
PNNHDYOYZSRBLH-UHFFFAOYSA-N

>  <FORMULA>  (1966) 
C16H18O2

>  <EXACT MASS>  (1966) 
242.130679816

>  <MW>  (1966) 
242

>  <ID>  (1966) 
JP009283

>  <CONTRIBUTOR>  (1966) 
University of Tokyo Team, {Faculty of Engineering, University of Tokyo

>  <COMMENT>  (1966) 
SMILES=CCOC(OCc(c2)cccc2)c(c1)cccc1
InChI=InChI=1S/C16H18O2/c1-2-17-16(15-11-7-4-8-12-15)18-13-14-9-5-3-6-10-14/h3-12,16H,2,13H2,1H3
computed SMILES=O(CC=1C=CC=CC1)C(OCC)C=2C=CC=CC2
accession=JP009283
date=2016.01.19 (Created 2008.10.21, modified 2011.05.06)
author=SODA AROMATIC CO., LTD.
license=CC BY-NC-SA
exact mass=242.13068
ionization energy=70 eV
ion type=[M]+*
computed spectral entropy=2.3675631428793995
computed normalized entropy=0.7031051806603251
SPLASH=splash10-000f-9500000000-82830e1aedb8e6aa464f
submitter=submitter = University of Tokyo Team (Faculty of Engineering, University of Tokyo)
MoNA Rating=3.75

>  <NUM PEAKS>  (1966) 
29

>  <MASS SPECTRAL PEAKS>  (1966) 
27 2.7
29 6.5
39 4.2
41 0.15
50 2.1
51 12.3
52 2.9
63 0.26
64 1.3
65 12.8
77 26.5
78 0.4
79 27.8
80 1.7
89 2.7
90 0.23
91 99.99
92 15.1
105 11.7
106 0.17
107 34.9
108 2
135 63.7
136 1.8
137 1.5
151 4
167 1.5
196 0.22
197 6.2

$$$$

     RDKit          2D

 21 22  0  0  0  0  0  0  0  0999 V2000
   -5.5208    0.8823    0.0000 C   0  0  0  0  0  0  0  0  0  0  0  0
   -4.2218    3.1323    0.0000 C   0  0  0  0  0  0  0  0  0  0  0  0
    2.2734    8.3823    0.0000 C   0  0  0  0  0  0  0  0  0  0  0  0
    4.8715   -0.6177    0.0000 C   0  0  0  0  0  0  0  0  0  0  0  0
    0.9734    7.6323    0.0000 C   0  0  0  0  0  0  0  0  0  0  0  0
    3.5734    7.6323    0.0000 C   0  0  0  0  0  0  0  0  0  0  0  0
    4.8720    0.8831    0.0000 C   0  0  0  0  0  0  0  0  0  0  0  0
    3.5720   -1.3685    0.0000 C   0  0  0  0  0  0  0  0  0  0  0  0
    0.9734    6.1323    0.0000 C   0  0  0  0  0  0  0  0  0  0  0  0
    3.5734    6.1323    0.0000 C   0  0  0  0  0  0  0  0  0  0  0  0
    3.5730    1.6331    0.0000 C   0  0  0  0  0  0  0  0  0  0  0  0
    2.2730   -0.6185    0.0000 C   0  0  0  0  0  0  0  0  0  0  0  0
   -2.9227    0.8823    0.0000 C   0  0  0  0  0  0  0  0  0  0  0  0
   -1.6237    1.6323    0.0000 C   0  0  0  0  0  0  0  0  0  0  0  0
    2.2734    3.8823    0.0000 C   0  0  0  0  0  0  0  0  0  0  0  0
   -4.2218    1.6323    0.0000 C   0  0  0  0  0  0  0  0  0  0  0  0
    2.2734    5.3823    0.0000 C   0  0  0  0  0  0  0  0  0  0  0  0
    2.2734    0.8823    0.0000 C   0  0  0  0  0  0  0  0  0  0  0  0
    0.9744    1.6323    0.0000 C   0  0  0  0  0  0  0  0  0  0  0  0
   -0.3246    0.8823    0.0000 O   0  0  0  0  0  0  0  0  0  0  0  0
    0.9744    3.1323    0.0000 O   0  0  0  0  0  0  0  0  0  0  0  0
  5  3  2  0
  6  3  1  0
  7  4  2  0
  8  4  1  0
  9  5  1  0
 10  6  2  0
 11  7  1  0
 12  8  2  0
 14 13  1  0
 16  1  1  0
 16  2  1  0
 16 13  1  0
 17  9  2  0
 17 10  1  0
 17 15  1  0
 18 11  2  0
 18 12  1  0
 19 18  1  0
 20 14  1  0
 20 19  1  0
 21 15  1  0
 21 19  1  0
M  END
>  <NAME>  (1967) 
BENZALDEHYDE BENZYL ISOPENTYL ACETAL

>  <SYNONYMS>  (1967) 
BENZALDEHYDE BENZYL ISOAMYL ACETAL

>  <SPECTRUM TYPE>  (1967) 
MS1

>  <INSTRUMENT TYPE>  (1967) 
EI-B

>  <INSTRUMENT>  (1967) 
HITACHI M-80B

>  <ION MODE>  (1967) 
P

>  <INCHIKEY>  (1967) 
XFGJYOYWFTXAFO-UHFFFAOYSA-N

>  <FORMULA>  (1967) 
C19H24O2

>  <EXACT MASS>  (1967) 
284.177630008

>  <MW>  (1967) 
284

>  <ID>  (1967) 
JP009282

>  <CONTRIBUTOR>  (1967) 
University of Tokyo Team, {Faculty of Engineering, University of Tokyo

>  <COMMENT>  (1967) 
SMILES=CC(C)CCOC(OCc(c2)cccc2)c(c1)cccc1
InChI=InChI=1S/C19H24O2/c1-16(2)13-14-20-19(18-11-7-4-8-12-18)21-15-17-9-5-3-6-10-17/h3-12,16,19H,13-15H2,1-2H3
computed SMILES=O(CC=1C=CC=CC1)C(OCCC(C)C)C=2C=CC=CC2
accession=JP009282
date=2016.01.19 (Created 2008.10.21, modified 2011.05.06)
author=SODA AROMATIC CO., LTD.
license=CC BY-NC-SA
exact mass=284.17763
ionization energy=70 eV
ion type=[M]+*
computed spectral entropy=2.4291373767247286
computed normalized entropy=0.7009008894077583
SPLASH=splash10-0006-9200000000-9454d19949afa439e406
submitter=submitter = University of Tokyo Team (Faculty of Engineering, University of Tokyo)
MoNA Rating=3.75

>  <NUM PEAKS>  (1967) 
32

>  <MASS SPECTRAL PEAKS>  (1967) 
27 2.6
28 1.6
29 3.6
39 0.36
41 7.1
42 1.1
43 22
50 0.12
51 3.8
52 1
55 2.5
63 0.13
65 6.2
71 15.8
77 11.9
78 0.2
79 5
89 1.7
90 2.1
91 99.99
92 12.8
105 10.4
106 2
107 2.6
108 3
167 1.1
177 22.6
178 0.56
193 1.4
196 1.8
197 12.7
198 1.8

$$$$

     RDKit          2D

 12 11  0  0  0  0  0  0  0  0999 V2000
    0.0000    0.0000    0.0000 C   0  0  0  0  0  0  0  0  0  0  0  0
   -3.8971    6.7500    0.0000 C   0  0  0  0  0  0  0  0  0  0  0  0
   -1.2990    6.7500    0.0000 C   0  0  0  0  0  0  0  0  0  0  0  0
    2.5981    4.5000    0.0000 C   0  0  0  0  0  0  0  0  0  0  0  0
    1.2990    2.2500    0.0000 C   0  0  0  0  0  0  0  0  0  0  0  0
    0.0000    1.5000    0.0000 C   0  0  0  0  0  0  0  0  0  0  0  0
   -1.2990    2.2500    0.0000 C   0  0  0  0  0  0  0  0  0  0  0  0
   -2.5981    6.0000    0.0000 C   0  0  0  0  0  0  0  0  0  0  0  0
    1.2990    3.7500    0.0000 C   0  0  0  0  0  0  0  0  0  0  0  0
   -1.2990    3.7500    0.0000 C   0  0  0  0  0  0  0  0  0  0  0  0
   -2.5981    4.5000    0.0000 O   0  0  0  0  0  0  0  0  0  0  0  0
    0.0000    4.5000    0.0000 O   0  0  0  0  0  0  0  0  0  0  0  0
  6  1  1  0
  7  6  1  0
  8  2  1  0
  8  3  1  0
  9  4  1  0
  9  5  1  0
 10  7  1  0
 11  8  1  0
 11 10  1  0
 12  9  1  0
 12 10  1  0
M  END
>  <NAME>  (1968) 
BUTANAL DIISOPROPYL ACETAL

>  <SYNONYMS>  (1968) 


>  <SPECTRUM TYPE>  (1968) 
MS1

>  <INSTRUMENT TYPE>  (1968) 
EI-B

>  <INSTRUMENT>  (1968) 
HITACHI M-80B

>  <ION MODE>  (1968) 
P

>  <INCHIKEY>  (1968) 
QOJSNHMWGGZTDQ-UHFFFAOYSA-N

>  <FORMULA>  (1968) 
C10H22O2

>  <EXACT MASS>  (1968) 
174.161979944

>  <MW>  (1968) 
174

>  <ID>  (1968) 
JP009281

>  <CONTRIBUTOR>  (1968) 
University of Tokyo Team, {Faculty of Engineering, University of Tokyo

>  <COMMENT>  (1968) 
SMILES=CCCC(OC(C)C)OC(C)C
InChI=InChI=1S/C10H22O2/c1-6-7-10(11-8(2)3)12-9(4)5/h8-10H,6-7H2,1-5H3
computed SMILES=O(C(C)C)C(OC(C)C)CCC
accession=JP009281
date=2016.01.19 (Created 2008.10.21, modified 2011.05.06)
author=SODA AROMATIC CO., LTD.
license=CC BY-NC-SA
exact mass=174.16198
ionization energy=70 eV
ion type=[M]+*
computed spectral entropy=2.2502762249009223
computed normalized entropy=0.6827632302168583
SPLASH=splash10-0076-9000000000-39597eacc0661a1bbb60
submitter=submitter = University of Tokyo Team (Faculty of Engineering, University of Tokyo)
MoNA Rating=3.75

>  <NUM PEAKS>  (1968) 
27

>  <MASS SPECTRAL PEAKS>  (1968) 
15 1.7
27 15.4
29 4.3
31 0.42
39 6.2
40 1.3
41 22.3
42 0.42
43 99.99
44 5.3
45 14.3
47 0.62
55 36.5
56 1.7
57 3.1
59 0.43
71 3.1
72 3.1
73 89.4
74 0.35
85 1.2
89 74.4
90 2.6
115 3.17
116 2.3
131 21.2
132 1.6

$$$$

     RDKit          2D

 12 11  0  0  0  0  0  0  0  0999 V2000
    2.9228    5.4375    0.0000 C   0  0  0  0  0  0  0  0  0  0  0  0
   -8.7685    6.1875    0.0000 C   0  0  0  0  0  0  0  0  0  0  0  0
   -7.4695    3.9375    0.0000 C   0  0  0  0  0  0  0  0  0  0  0  0
   -2.2733    3.9375    0.0000 C   0  0  0  0  0  0  0  0  0  0  0  0
    1.6238    6.1875    0.0000 C   0  0  0  0  0  0  0  0  0  0  0  0
   -6.1704    6.1875    0.0000 C   0  0  0  0  0  0  0  0  0  0  0  0
    0.3248    5.4375    0.0000 C   0  0  0  0  0  0  0  0  0  0  0  0
   -4.8714    5.4375    0.0000 C   0  0  0  0  0  0  0  0  0  0  0  0
   -7.4695    5.4375    0.0000 C   0  0  0  0  0  0  0  0  0  0  0  0
   -2.2733    5.4375    0.0000 C   0  0  0  0  0  0  0  0  0  0  0  0
   -0.9743    6.1875    0.0000 O   0  0  0  0  0  0  0  0  0  0  0  0
   -3.5724    6.1875    0.0000 O   0  0  0  0  0  0  0  0  0  0  0  0
  5  1  1  0
  7  5  1  0
  8  6  1  0
  9  2  1  0
  9  3  1  0
  9  6  1  0
 10  4  1  0
 11  7  1  0
 11 10  1  0
 12  8  1  0
 12 10  1  0
M  END
>  <NAME>  (1969) 
ACETALDEHYDE ISOPENTYL PROPYL ACETAL

>  <SYNONYMS>  (1969) 
ACETALDEHYDE ISOAMYL PROPYL ACETAL

>  <SPECTRUM TYPE>  (1969) 
MS1

>  <INSTRUMENT TYPE>  (1969) 
EI-B

>  <INSTRUMENT>  (1969) 
HITACHI M-80B

>  <ION MODE>  (1969) 
P

>  <INCHIKEY>  (1969) 
VPJHYSGCDYPNSB-UHFFFAOYSA-N

>  <FORMULA>  (1969) 
C10H22O2

>  <EXACT MASS>  (1969) 
174.161979944

>  <MW>  (1969) 
174

>  <ID>  (1969) 
JP009280

>  <CONTRIBUTOR>  (1969) 
University of Tokyo Team, {Faculty of Engineering, University of Tokyo

>  <COMMENT>  (1969) 
SMILES=CCCOC(C)OCCC(C)C
InChI=InChI=1S/C10H22O2/c1-5-7-11-10(4)12-8-6-9(2)3/h9-10H,5-8H2,1-4H3
computed SMILES=O(CCC)C(OCCC(C)C)C
accession=JP009280
date=2016.01.19 (Created 2008.10.21, modified 2011.05.06)
author=SODA AROMATIC CO., LTD.
license=CC BY-NC-SA
exact mass=174.16198
ionization energy=70 eV
ion type=[M]+*
computed spectral entropy=2.4705217281162564
computed normalized entropy=0.7065683927993818
SPLASH=splash10-0076-9000000000-92c42b85d686b6dd1c5c
submitter=submitter = University of Tokyo Team (Faculty of Engineering, University of Tokyo)
MoNA Rating=3.75

>  <NUM PEAKS>  (1969) 
33

>  <MASS SPECTRAL PEAKS>  (1969) 
15 2.5
26 1.9
27 24.1
29 1.36
30 1
31 17.3
39 12.5
41 3.52
42 13.4
43 99.99
44 11.3
45 7.31
46 1.8
53 1.6
55 18.9
56 0.19
57 2.9
58 1.6
59 1.8
61 0.15
69 2.2
70 9.5
71 73.1
72 0.5
86 1.7
87 67.1
88 4
89 0.27
99 1.4
115 22.5
116 1.7
159 1.4
160 1.3

$$$$

     RDKit          2D

 13 12  0  0  0  0  0  0  0  0999 V2000
    3.2476    5.6250    0.0000 C   0  0  0  0  0  0  0  0  0  0  0  0
   -9.7428    5.6250    0.0000 C   0  0  0  0  0  0  0  0  0  0  0  0
   -8.4437    7.8750    0.0000 C   0  0  0  0  0  0  0  0  0  0  0  0
   -3.2476    7.8750    0.0000 C   0  0  0  0  0  0  0  0  0  0  0  0
    1.9486    6.3750    0.0000 C   0  0  0  0  0  0  0  0  0  0  0  0
    0.6495    5.6250    0.0000 C   0  0  0  0  0  0  0  0  0  0  0  0
   -7.1447    5.6250    0.0000 C   0  0  0  0  0  0  0  0  0  0  0  0
   -0.6495    6.3750    0.0000 C   0  0  0  0  0  0  0  0  0  0  0  0
   -5.8457    6.3750    0.0000 C   0  0  0  0  0  0  0  0  0  0  0  0
   -8.4437    6.3750    0.0000 C   0  0  0  0  0  0  0  0  0  0  0  0
   -3.2476    6.3750    0.0000 C   0  0  0  0  0  0  0  0  0  0  0  0
   -1.9486    5.6250    0.0000 O   0  0  0  0  0  0  0  0  0  0  0  0
   -4.5466    5.6250    0.0000 O   0  0  0  0  0  0  0  0  0  0  0  0
  5  1  1  0
  6  5  1  0
  8  6  1  0
  9  7  1  0
 10  2  1  0
 10  3  1  0
 10  7  1  0
 11  4  1  0
 12  8  1  0
 12 11  1  0
 13  9  1  0
 13 11  1  0
M  END
>  <NAME>  (1970) 
ACETALDEHYDE BUTYL ISOPENTYL ACETAL

>  <SYNONYMS>  (1970) 
ACETALDEHYDE BUTYL ISOAMYL ACETAL

>  <SPECTRUM TYPE>  (1970) 
MS1

>  <INSTRUMENT TYPE>  (1970) 
EI-B

>  <INSTRUMENT>  (1970) 
HITACHI M-80B

>  <ION MODE>  (1970) 
P

>  <INCHIKEY>  (1970) 
OOTKYVQGUQRYPB-UHFFFAOYSA-N

>  <FORMULA>  (1970) 
C11H24O2

>  <EXACT MASS>  (1970) 
188.177630008

>  <MW>  (1970) 
188

>  <ID>  (1970) 
JP009279

>  <CONTRIBUTOR>  (1970) 
University of Tokyo Team, {Faculty of Engineering, University of Tokyo

>  <COMMENT>  (1970) 
SMILES=CCCCOC(C)OCCC(C)C
InChI=InChI=1S/C11H24O2/c1-5-6-8-12-11(4)13-9-7-10(2)3/h10-11H,5-9H2,1-4H3
computed SMILES=O(CCCC)C(OCCC(C)C)C
accession=JP009279
date=2016.01.19 (Created 2008.10.21, modified 2011.05.06)
author=SODA AROMATIC CO., LTD.
license=CC BY-NC-SA
exact mass=188.17763
ionization energy=70 eV
ion type=[M]+*
computed spectral entropy=2.650178220484627
computed normalized entropy=0.7339347735390469
SPLASH=splash10-0kfx-9200000000-42385d3bca2dc26cd803
submitter=submitter = University of Tokyo Team (Faculty of Engineering, University of Tokyo)
MoNA Rating=3.75

>  <NUM PEAKS>  (1970) 
37

>  <MASS SPECTRAL PEAKS>  (1970) 
15 3.2
26 2.5
27 28
29 3.56
30 1.1
31 16.1
39 16.6
41 5.98
42 15
43 92.9
44 10.4
45 6.57
46 1.8
53 2.6
54 1
55 2.71
56 20.7
57 59.3
58 3.6
59 0.11
61 1.3
69 2.1
70 12.4
71 99.99
72 6.4
83 1.9
85 3
99 0.17
100 1.5
101 64
102 3.4
103 0.19
115 38.4
116 2.5
117 1.1
173 1.47
174 1.6

$$$$

     RDKit          2D

 18 18  0  0  0  0  0  0  0  0999 V2000
   -3.8971    7.8200    0.0000 C   0  0  0  0  0  0  0  0  0  0  0  0
    6.4952    3.3200    0.0000 C   0  0  0  0  0  0  0  0  0  0  0  0
    5.1962    1.0700    0.0000 C   0  0  0  0  0  0  0  0  0  0  0  0
   -2.5981    7.0700    0.0000 C   0  0  0  0  0  0  0  0  0  0  0  0
   -2.5981    5.5700    0.0000 C   0  0  0  0  0  0  0  0  0  0  0  0
    0.0000   -1.9300    0.0000 C   0  0  0  0  0  0  0  0  0  0  0  0
    1.3000   -1.1800    0.0000 C   0  0  0  0  0  0  0  0  0  0  0  0
   -1.3000   -1.1800    0.0000 C   0  0  0  0  0  0  0  0  0  0  0  0
    1.3000    0.3200    0.0000 C   0  0  0  0  0  0  0  0  0  0  0  0
   -1.3000    0.3200    0.0000 C   0  0  0  0  0  0  0  0  0  0  0  0
    3.8971    3.3200    0.0000 C   0  0  0  0  0  0  0  0  0  0  0  0
   -1.2990    4.8200    0.0000 C   0  0  0  0  0  0  0  0  0  0  0  0
    2.5981    2.5700    0.0000 C   0  0  0  0  0  0  0  0  0  0  0  0
    5.1962    2.5700    0.0000 C   0  0  0  0  0  0  0  0  0  0  0  0
    0.0000    1.0700    0.0000 C   0  0  0  0  0  0  0  0  0  0  0  0
    0.0000    2.5700    0.0000 C   0  0  0  0  0  0  0  0  0  0  0  0
   -1.2990    3.3200    0.0000 O   0  0  0  0  0  0  0  0  0  0  0  0
    1.2990    3.3200    0.0000 O   0  0  0  0  0  0  0  0  0  0  0  0
  4  1  1  0
  5  4  1  0
  7  6  2  0
  8  6  1  0
  9  7  1  0
 10  8  2  0
 12  5  1  0
 13 11  1  0
 14  2  1  0
 14  3  1  0
 14 11  1  0
 15  9  2  0
 15 10  1  0
 16 15  1  0
 17 12  1  0
 17 16  1  0
 18 13  1  0
 18 16  1  0
M  END
>  <NAME>  (1971) 
BENZALDEHYDE BUTYL ISOPENTYL ACETAL

>  <SYNONYMS>  (1971) 
BENZALDEHYDE BUTYL ISOAMYL ACETAL

>  <SPECTRUM TYPE>  (1971) 
MS1

>  <INSTRUMENT TYPE>  (1971) 
EI-B

>  <INSTRUMENT>  (1971) 
HITACHI M-80B

>  <ION MODE>  (1971) 
P

>  <INCHIKEY>  (1971) 
BRHOZUMENSVNBY-UHFFFAOYSA-N

>  <FORMULA>  (1971) 
C16H26O2

>  <EXACT MASS>  (1971) 
250.193280072

>  <MW>  (1971) 
250

>  <ID>  (1971) 
JP009278

>  <CONTRIBUTOR>  (1971) 
University of Tokyo Team, {Faculty of Engineering, University of Tokyo

>  <COMMENT>  (1971) 
SMILES=CCCCOC(OCCC(C)C)c(c1)cccc1
InChI=InChI=1S/C16H26O2/c1-4-5-12-17-16(18-13-11-14(2)3)15-9-7-6-8-10-15/h6-10,14,16H,4-5,11-13H2,1-3H3
computed SMILES=O(CCCC)C(OCCC(C)C)C=1C=CC=CC1
accession=JP009278
date=2016.01.19 (Created 2008.10.21, modified 2011.05.06)
author=SODA AROMATIC CO., LTD.
license=CC BY-NC-SA
exact mass=250.19328
ionization energy=70 eV
ion type=[M]+*
computed spectral entropy=2.4807799272518576
computed normalized entropy=0.7158017797166276
SPLASH=splash10-0a6r-4900000000-32744fc2397a89ff203c
submitter=submitter = University of Tokyo Team (Faculty of Engineering, University of Tokyo)
MoNA Rating=3.75

>  <NUM PEAKS>  (1971) 
32

>  <MASS SPECTRAL PEAKS>  (1971) 
27 8.3
28 1.5
29 18.4
31 0.1
39 5.3
41 22.5
42 2.2
43 3.64
44 1.5
51 3.7
53 1.1
55 0.72
56 1.8
57 11.2
70 1.2
71 3.01
72 1.4
77 13.6
78 3.1
79 2.12
80 1.2
89 1.2
90 1.6
91 0.33
105 15.6
106 4.4
107 99.99
108 0.92
163 54.4
164 7.8
177 35.9
178 5

$$$$

     RDKit          2D

 17 17  0  0  0  0  0  0  0  0999 V2000
   -5.5209    0.8825    0.0000 C   0  0  0  0  0  0  0  0  0  0  0  0
    3.5724    7.6325    0.0000 C   0  0  0  0  0  0  0  0  0  0  0  0
   -4.2219    1.6325    0.0000 C   0  0  0  0  0  0  0  0  0  0  0  0
    3.5724    6.1325    0.0000 C   0  0  0  0  0  0  0  0  0  0  0  0
   -2.9228    0.8825    0.0000 C   0  0  0  0  0  0  0  0  0  0  0  0
    2.2733    5.3825    0.0000 C   0  0  0  0  0  0  0  0  0  0  0  0
    4.8714   -0.6175    0.0000 C   0  0  0  0  0  0  0  0  0  0  0  0
    4.8719    0.8833    0.0000 C   0  0  0  0  0  0  0  0  0  0  0  0
    3.5719   -1.3683    0.0000 C   0  0  0  0  0  0  0  0  0  0  0  0
    3.5728    1.6333    0.0000 C   0  0  0  0  0  0  0  0  0  0  0  0
    2.2728   -0.6183    0.0000 C   0  0  0  0  0  0  0  0  0  0  0  0
   -1.6238    1.6325    0.0000 C   0  0  0  0  0  0  0  0  0  0  0  0
    2.2733    3.8825    0.0000 C   0  0  0  0  0  0  0  0  0  0  0  0
    2.2733    0.8825    0.0000 C   0  0  0  0  0  0  0  0  0  0  0  0
    0.9743    1.6325    0.0000 C   0  0  0  0  0  0  0  0  0  0  0  0
   -0.3248    0.8825    0.0000 O   0  0  0  0  0  0  0  0  0  0  0  0
    0.9743    3.1325    0.0000 O   0  0  0  0  0  0  0  0  0  0  0  0
  3  1  1  0
  4  2  1  0
  5  3  1  0
  6  4  1  0
  8  7  2  0
  9  7  1  0
 10  8  1  0
 11  9  2  0
 12  5  1  0
 13  6  1  0
 14 10  2  0
 14 11  1  0
 15 14  1  0
 16 12  1  0
 16 15  1  0
 17 13  1  0
 17 15  1  0
M  END
>  <NAME>  (1972) 
BENZALDEHYDE DIBUTYL ACETAL

>  <SYNONYMS>  (1972) 


>  <SPECTRUM TYPE>  (1972) 
MS1

>  <INSTRUMENT TYPE>  (1972) 
EI-B

>  <INSTRUMENT>  (1972) 
HITACHI M-80B

>  <ION MODE>  (1972) 
P

>  <INCHIKEY>  (1972) 
WSVMGQQPLZDDQN-UHFFFAOYSA-N

>  <FORMULA>  (1972) 
C15H24O2

>  <EXACT MASS>  (1972) 
236.177630008

>  <MW>  (1972) 
236

>  <ID>  (1972) 
JP009277

>  <CONTRIBUTOR>  (1972) 
University of Tokyo Team, {Faculty of Engineering, University of Tokyo

>  <COMMENT>  (1972) 
SMILES=CCCCOC(OCCCC)c(c1)cccc1
InChI=InChI=1S/C15H24O2/c1-3-5-12-16-15(17-13-6-4-2)14-10-8-7-9-11-14/h7-11,15H,3-6,12-13H2,1-2H3
computed SMILES=O(CCCC)C(OCCCC)C=1C=CC=CC1
accession=JP009277
date=2016.01.19 (Created 2008.10.21, modified 2011.05.06)
author=SODA AROMATIC CO., LTD.
license=CC BY-NC-SA
exact mass=236.17763
ionization energy=70 eV
ion type=[M]+*
computed spectral entropy=2.2284389817578303
computed normalized entropy=0.6687581674393273
SPLASH=splash10-0bt9-4900000000-2a8a45374211534418f4
submitter=submitter = University of Tokyo Team (Faculty of Engineering, University of Tokyo)
MoNA Rating=3.75

>  <NUM PEAKS>  (1972) 
28

>  <MASS SPECTRAL PEAKS>  (1972) 
18 2.7
27 7.9
28 1.4
29 2.56
39 4.5
41 22.2
42 1.3
43 0.28
51 4.5
52 1
55 2.1
56 0.18
57 21.1
77 14.8
78 3.3
79 2.32
80 1.2
89 1.1
90 1.6
91 0.22
103 1
105 12.8
106 2.2
107 99.99
108 8
123 1
163 67.5
164 8.5

$$$$

     RDKit          2D

 16 16  0  0  0  0  0  0  0  0999 V2000
    1.6238    6.5075    0.0000 C   0  0  0  0  0  0  0  0  0  0  0  0
   -6.1704    2.0075    0.0000 C   0  0  0  0  0  0  0  0  0  0  0  0
   -4.8714    4.2575    0.0000 C   0  0  0  0  0  0  0  0  0  0  0  0
    1.6238    5.0075    0.0000 C   0  0  0  0  0  0  0  0  0  0  0  0
    4.2219    0.5075    0.0000 C   0  0  0  0  0  0  0  0  0  0  0  0
    4.2224    2.0083    0.0000 C   0  0  0  0  0  0  0  0  0  0  0  0
    2.9224   -0.2433    0.0000 C   0  0  0  0  0  0  0  0  0  0  0  0
    2.9233    2.7583    0.0000 C   0  0  0  0  0  0  0  0  0  0  0  0
    1.6233    0.5067    0.0000 C   0  0  0  0  0  0  0  0  0  0  0  0
   -3.5724    2.0075    0.0000 C   0  0  0  0  0  0  0  0  0  0  0  0
   -2.2733    2.7575    0.0000 C   0  0  0  0  0  0  0  0  0  0  0  0
   -4.8714    2.7575    0.0000 C   0  0  0  0  0  0  0  0  0  0  0  0
    1.6238    2.0075    0.0000 C   0  0  0  0  0  0  0  0  0  0  0  0
    0.3248    2.7575    0.0000 C   0  0  0  0  0  0  0  0  0  0  0  0
    0.3248    4.2575    0.0000 O   0  0  0  0  0  0  0  0  0  0  0  0
   -0.9743    2.0075    0.0000 O   0  0  0  0  0  0  0  0  0  0  0  0
  4  1  1  0
  6  5  2  0
  7  5  1  0
  8  6  1  0
  9  7  2  0
 11 10  1  0
 12  2  1  0
 12  3  1  0
 12 10  1  0
 13  8  2  0
 13  9  1  0
 14 13  1  0
 15  4  1  0
 15 14  1  0
 16 11  1  0
 16 14  1  0
M  END
>  <NAME>  (1973) 
BENZALDEHYDE ETHYL ISOPENTYL ACETAL

>  <SYNONYMS>  (1973) 
BENZALDEHYDE ETHYL ISOAMYL ACETAL

>  <SPECTRUM TYPE>  (1973) 
MS1

>  <INSTRUMENT TYPE>  (1973) 
EI-B

>  <INSTRUMENT>  (1973) 
HITACHI M-80B

>  <ION MODE>  (1973) 
P

>  <INCHIKEY>  (1973) 
ZSTHUNZWLDCRMU-UHFFFAOYSA-N

>  <FORMULA>  (1973) 
C14H22O2

>  <EXACT MASS>  (1973) 
222.161979944

>  <MW>  (1973) 
222

>  <ID>  (1973) 
JP009276

>  <CONTRIBUTOR>  (1973) 
University of Tokyo Team, {Faculty of Engineering, University of Tokyo

>  <COMMENT>  (1973) 
SMILES=CCOC(OCCC(C)C)c(c1)cccc1
InChI=InChI=1S/C14H22O2/c1-4-15-14(16-11-10-12(2)3)13-8-6-5-7-9-13/h5-9,12,14H,4,10-11H2,1-3H3
computed SMILES=O(CC)C(OCCC(C)C)C=1C=CC=CC1
accession=JP009276
date=2016.01.19 (Created 2008.10.21, modified 2011.05.06)
author=SODA AROMATIC CO., LTD.
license=CC BY-NC-SA
exact mass=222.16198
ionization energy=70 eV
ion type=[M]+*
computed spectral entropy=2.301551850044872
computed normalized entropy=0.6526706030136814
SPLASH=splash10-052r-4900000000-378128eba21624d206d6
submitter=submitter = University of Tokyo Team (Faculty of Engineering, University of Tokyo)
MoNA Rating=3.75

>  <NUM PEAKS>  (1973) 
34

>  <MASS SPECTRAL PEAKS>  (1973) 
17 1
27 5.1
28 1.4
29 1.15
31 1
39 3.4
41 11
42 0.11
43 25.9
47 1
50 1.2
51 0.48
52 1.2
55 2.9
70 1.3
71 2.11
72 1.3
75 1.3
76 1
77 2.04
78 3.5
79 30.3
80 1.6
89 0.13
90 1.5
91 2.9
105 14.3
106 0.21
107 60.7
108 4.8
135 99.99
136 1.09
177 17.9
178 2

$$$$

     RDKit          2D

 19 19  0  0  0  0  0  0  0  0999 V2000
   -5.5209    0.8825    0.0000 C   0  0  0  0  0  0  0  0  0  0  0  0
   -4.2219    3.1325    0.0000 C   0  0  0  0  0  0  0  0  0  0  0  0
    3.5724    7.6325    0.0000 C   0  0  0  0  0  0  0  0  0  0  0  0
    4.8714    5.3825    0.0000 C   0  0  0  0  0  0  0  0  0  0  0  0
    4.8714   -0.6175    0.0000 C   0  0  0  0  0  0  0  0  0  0  0  0
    4.8719    0.8833    0.0000 C   0  0  0  0  0  0  0  0  0  0  0  0
    3.5719   -1.3683    0.0000 C   0  0  0  0  0  0  0  0  0  0  0  0
    3.5728    1.6333    0.0000 C   0  0  0  0  0  0  0  0  0  0  0  0
    2.2728   -0.6183    0.0000 C   0  0  0  0  0  0  0  0  0  0  0  0
   -2.9228    0.8825    0.0000 C   0  0  0  0  0  0  0  0  0  0  0  0
    2.2733    5.3825    0.0000 C   0  0  0  0  0  0  0  0  0  0  0  0
   -1.6238    1.6325    0.0000 C   0  0  0  0  0  0  0  0  0  0  0  0
    2.2733    3.8825    0.0000 C   0  0  0  0  0  0  0  0  0  0  0  0
   -4.2219    1.6325    0.0000 C   0  0  0  0  0  0  0  0  0  0  0  0
    3.5724    6.1325    0.0000 C   0  0  0  0  0  0  0  0  0  0  0  0
    2.2733    0.8825    0.0000 C   0  0  0  0  0  0  0  0  0  0  0  0
    0.9743    1.6325    0.0000 C   0  0  0  0  0  0  0  0  0  0  0  0
   -0.3248    0.8825    0.0000 O   0  0  0  0  0  0  0  0  0  0  0  0
    0.9743    3.1325    0.0000 O   0  0  0  0  0  0  0  0  0  0  0  0
  6  5  2  0
  7  5  1  0
  8  6  1  0
  9  7  2  0
 12 10  1  0
 13 11  1  0
 14  1  1  0
 14  2  1  0
 14 10  1  0
 15  3  1  0
 15  4  1  0
 15 11  1  0
 16  8  2  0
 16  9  1  0
 17 16  1  0
 18 12  1  0
 18 17  1  0
 19 13  1  0
 19 17  1  0
M  END
>  <NAME>  (1974) 
BENZALDEHYDE DIISOPENTYL ACETAL

>  <SYNONYMS>  (1974) 
BENZALDEHYDE DIISOAMYL ACETAL

>  <SPECTRUM TYPE>  (1974) 
MS1

>  <INSTRUMENT TYPE>  (1974) 
EI-B

>  <INSTRUMENT>  (1974) 
HITACHI M-80B

>  <ION MODE>  (1974) 
P

>  <INCHIKEY>  (1974) 
TVAMBUYNQKUINU-UHFFFAOYSA-N

>  <FORMULA>  (1974) 
C17H28O2

>  <EXACT MASS>  (1974) 
264.208930136

>  <MW>  (1974) 
264

>  <ID>  (1974) 
JP009275

>  <CONTRIBUTOR>  (1974) 
University of Tokyo Team, {Faculty of Engineering, University of Tokyo

>  <COMMENT>  (1974) 
SMILES=CC(C)CCOC(OCCC(C)C)c(c1)cccc1
InChI=InChI=1S/C17H28O2/c1-14(2)10-12-18-17(19-13-11-15(3)4)16-8-6-5-7-9-16/h5-9,14-15,17H,10-13H2,1-4H3
computed SMILES=O(CCC(C)C)C(OCCC(C)C)C=1C=CC=CC1
accession=JP009275
date=2016.01.19 (Created 2008.10.21, modified 2011.05.06)
author=SODA AROMATIC CO., LTD.
license=CC BY-NC-SA
exact mass=264.20893
ionization energy=70 eV
ion type=[M]+*
computed spectral entropy=2.3568380166511314
computed normalized entropy=0.6929436172561533
SPLASH=splash10-056r-9800000000-2a55d81be315a5e18138
submitter=submitter = University of Tokyo Team (Faculty of Engineering, University of Tokyo)
MoNA Rating=3.75

>  <NUM PEAKS>  (1974) 
30

>  <MASS SPECTRAL PEAKS>  (1974) 
27 9.4
29 14.6
39 5.1
41 2.17
42 3.8
43 77.6
44 2.7
51 0.28
53 1.3
55 12.4
56 1.4
57 0.13
69 1.4
70 2.6
71 67.4
72 0.26
77 13.5
78 2.8
79 15.5
80 0.1
89 1.2
90 1.7
91 4.6
92 0.13
105 18.3
106 5.3
107 91.5
108 0.9
177 99.99
178 14.2

$$$$

     RDKit          2D

 12 11  0  0  0  0  0  0  0  0999 V2000
    0.3248    6.9375    0.0000 C   0  0  0  0  0  0  0  0  0  0  0  0
    2.9228    3.9375    0.0000 C   0  0  0  0  0  0  0  0  0  0  0  0
   -7.4695    3.9375    0.0000 C   0  0  0  0  0  0  0  0  0  0  0  0
   -6.1704    6.1875    0.0000 C   0  0  0  0  0  0  0  0  0  0  0  0
   -0.9743    6.1875    0.0000 C   0  0  0  0  0  0  0  0  0  0  0  0
    1.6238    4.6875    0.0000 C   0  0  0  0  0  0  0  0  0  0  0  0
   -4.8714    3.9375    0.0000 C   0  0  0  0  0  0  0  0  0  0  0  0
   -3.5724    4.6875    0.0000 C   0  0  0  0  0  0  0  0  0  0  0  0
   -6.1704    4.6875    0.0000 C   0  0  0  0  0  0  0  0  0  0  0  0
   -0.9743    4.6875    0.0000 C   0  0  0  0  0  0  0  0  0  0  0  0
    0.3248    3.9375    0.0000 O   0  0  0  0  0  0  0  0  0  0  0  0
   -2.2733    3.9375    0.0000 O   0  0  0  0  0  0  0  0  0  0  0  0
  5  1  1  0
  6  2  1  0
  8  7  1  0
  9  3  1  0
  9  4  1  0
  9  7  1  0
 10  5  1  0
 11  6  1  0
 11 10  1  0
 12  8  1  0
 12 10  1  0
M  END
>  <NAME>  (1975) 
PROPANAL ETHYL ISOPENTYL ACETAL

>  <SYNONYMS>  (1975) 
PROPANAL ETHYL ISOAMYL ACETAL

>  <SPECTRUM TYPE>  (1975) 
MS1

>  <INSTRUMENT TYPE>  (1975) 
EI-B

>  <INSTRUMENT>  (1975) 
HITACHI M-80B

>  <ION MODE>  (1975) 
P

>  <INCHIKEY>  (1975) 
WMLCXIOXLJBRRH-UHFFFAOYSA-N

>  <FORMULA>  (1975) 
C10H22O2

>  <EXACT MASS>  (1975) 
174.161979944

>  <MW>  (1975) 
174

>  <ID>  (1975) 
JP009274

>  <CONTRIBUTOR>  (1975) 
University of Tokyo Team, {Faculty of Engineering, University of Tokyo

>  <COMMENT>  (1975) 
SMILES=CCOC(CC)OCCC(C)C
InChI=InChI=1S/C10H22O2/c1-5-10(11-6-2)12-8-7-9(3)4/h9-10H,5-8H2,1-4H3
computed SMILES=O(CC)C(OCCC(C)C)CC
accession=JP009274
date=2016.01.19 (Created 2008.10.21, modified 2011.05.06)
author=SODA AROMATIC CO., LTD.
license=CC BY-NC-SA
exact mass=174.16198
ionization energy=70 eV
ion type=[M]+*
computed spectral entropy=2.409280641431406
computed normalized entropy=0.701598607672339
SPLASH=splash10-0076-9000000000-e64a593314528744b175
submitter=submitter = University of Tokyo Team (Faculty of Engineering, University of Tokyo)
MoNA Rating=3.75

>  <NUM PEAKS>  (1975) 
31

>  <MASS SPECTRAL PEAKS>  (1975) 
15 1.3
27 17.3
28 3.2
29 2.69
30 1.4
31 17.4
39 6.4
40 0.14
41 24.3
42 4.1
43 80.6
44 0.25
45 2.6
47 13.1
53 1.4
55 1.3
56 1.4
57 5.4
58 2.9
59 5.76
60 1.7
69 1.1
70 1.3
71 99.99
72 4.5
75 16
87 78
88 0.35
129 6.3
145 16.5
146 1.3

$$$$

     RDKit          2D

 15 14  0  0  0  0  0  0  0  0999 V2000
   -0.9743    3.1875    0.0000 C   0  0  0  0  0  0  0  0  0  0  0  0
   -8.7685    6.1875    0.0000 C   0  0  0  0  0  0  0  0  0  0  0  0
   -7.4695    3.9375    0.0000 C   0  0  0  0  0  0  0  0  0  0  0  0
    4.2219    6.1875    0.0000 C   0  0  0  0  0  0  0  0  0  0  0  0
    2.9228    3.9375    0.0000 C   0  0  0  0  0  0  0  0  0  0  0  0
   -2.2733    3.9375    0.0000 C   0  0  0  0  0  0  0  0  0  0  0  0
   -6.1704    6.1875    0.0000 C   0  0  0  0  0  0  0  0  0  0  0  0
    1.6238    6.1875    0.0000 C   0  0  0  0  0  0  0  0  0  0  0  0
   -4.8714    5.4375    0.0000 C   0  0  0  0  0  0  0  0  0  0  0  0
    0.3248    5.4375    0.0000 C   0  0  0  0  0  0  0  0  0  0  0  0
   -7.4695    5.4375    0.0000 C   0  0  0  0  0  0  0  0  0  0  0  0
    2.9228    5.4375    0.0000 C   0  0  0  0  0  0  0  0  0  0  0  0
   -2.2733    5.4375    0.0000 C   0  0  0  0  0  0  0  0  0  0  0  0
   -3.5724    6.1875    0.0000 O   0  0  0  0  0  0  0  0  0  0  0  0
   -0.9743    6.1875    0.0000 O   0  0  0  0  0  0  0  0  0  0  0  0
  6  1  1  0
  9  7  1  0
 10  8  1  0
 11  2  1  0
 11  3  1  0
 11  7  1  0
 12  4  1  0
 12  5  1  0
 12  8  1  0
 13  6  1  0
 14  9  1  0
 14 13  1  0
 15 10  1  0
 15 13  1  0
M  END
>  <NAME>  (1976) 
PROPANAL DIISOAMYL ACETAL

>  <SYNONYMS>  (1976) 


>  <SPECTRUM TYPE>  (1976) 
MS1

>  <INSTRUMENT TYPE>  (1976) 
EI-B

>  <INSTRUMENT>  (1976) 
HITACHI M-80B

>  <ION MODE>  (1976) 
P

>  <INCHIKEY>  (1976) 
MQOHVHXEZYLDJW-UHFFFAOYSA-N

>  <FORMULA>  (1976) 
C13H28O2

>  <EXACT MASS>  (1976) 
216.208930136

>  <MW>  (1976) 
216

>  <ID>  (1976) 
JP009273

>  <CONTRIBUTOR>  (1976) 
University of Tokyo Team, {Faculty of Engineering, University of Tokyo

>  <COMMENT>  (1976) 
SMILES=CCC(OCCC(C)C)OCCC(C)C
InChI=InChI=1S/C13H28O2/c1-6-13(14-9-7-11(2)3)15-10-8-12(4)5/h11-13H,6-10H2,1-5H3
computed SMILES=O(CCC(C)C)C(OCCC(C)C)CC
accession=JP009273
date=2016.01.19 (Created 2008.10.21, modified 2011.05.06)
author=SODA AROMATIC CO., LTD.
license=CC BY-NC-SA
exact mass=216.20893
ionization energy=70 eV
ion type=[M]+*
computed spectral entropy=1.8850132917542257
computed normalized entropy=0.6098309292731391
SPLASH=splash10-00di-9000000000-b81106b6a64371445be2
submitter=submitter = University of Tokyo Team (Faculty of Engineering, University of Tokyo)
MoNA Rating=3.75

>  <NUM PEAKS>  (1976) 
22

>  <MASS SPECTRAL PEAKS>  (1976) 
27 6.7
28 1.5
29 10.2
31 0.28
39 4.3
41 14.7
42 3.5
43 5.91
44 1.5
55 9.5
56 1.2
57 0.41
58 1.3
59 4.3
69 1
70 0.18
71 99.99
72 5.3
117 1.2
129 2.37
130 1.6
187 6.3

$$$$

     RDKit          2D

 17 17  0  0  0  0  0  0  0  0999 V2000
   -0.3240    0.8829    0.0000 C   0  0  0  0  0  0  0  0  0  0  0  0
    4.8721    3.8829    0.0000 C   0  0  0  0  0  0  0  0  0  0  0  0
    3.5731    1.6329    0.0000 C   0  0  0  0  0  0  0  0  0  0  0  0
   -1.6231    1.6329    0.0000 C   0  0  0  0  0  0  0  0  0  0  0  0
   -8.1183    5.3829    0.0000 C   0  0  0  0  0  0  0  0  0  0  0  0
   -8.1187    3.8821    0.0000 C   0  0  0  0  0  0  0  0  0  0  0  0
   -6.8187    6.1337    0.0000 C   0  0  0  0  0  0  0  0  0  0  0  0
   -6.8197    3.1321    0.0000 C   0  0  0  0  0  0  0  0  0  0  0  0
   -5.5197    5.3837    0.0000 C   0  0  0  0  0  0  0  0  0  0  0  0
    2.2740    3.8829    0.0000 C   0  0  0  0  0  0  0  0  0  0  0  0
    0.9750    3.1329    0.0000 C   0  0  0  0  0  0  0  0  0  0  0  0
   -4.2212    3.1329    0.0000 C   0  0  0  0  0  0  0  0  0  0  0  0
    3.5731    3.1329    0.0000 C   0  0  0  0  0  0  0  0  0  0  0  0
   -5.5202    3.8829    0.0000 C   0  0  0  0  0  0  0  0  0  0  0  0
   -1.6231    3.1329    0.0000 C   0  0  0  0  0  0  0  0  0  0  0  0
   -0.3240    3.8829    0.0000 O   0  0  0  0  0  0  0  0  0  0  0  0
   -2.9221    3.8829    0.0000 O   0  0  0  0  0  0  0  0  0  0  0  0
  4  1  1  0
  6  5  2  0
  7  5  1  0
  8  6  1  0
  9  7  2  0
 11 10  1  0
 13  2  1  0
 13  3  1  0
 13 10  1  0
 14  8  2  0
 14  9  1  0
 14 12  1  0
 15  4  1  0
 16 11  1  0
 16 15  1  0
 17 12  1  0
 17 15  1  0
M  END
>  <NAME>  (1977) 
PROPANAL BENZYL ISOPENTYL ACETAL

>  <SYNONYMS>  (1977) 
PROPANAL BENZYL ISOAMYL ACETAL

>  <SPECTRUM TYPE>  (1977) 
MS1

>  <INSTRUMENT TYPE>  (1977) 
EI-B

>  <INSTRUMENT>  (1977) 
HITACHI M-80B

>  <ION MODE>  (1977) 
P

>  <INCHIKEY>  (1977) 
LCIWBVUWLVMMOZ-UHFFFAOYSA-N

>  <FORMULA>  (1977) 
C15H24O2

>  <EXACT MASS>  (1977) 
236.177630008

>  <MW>  (1977) 
236

>  <ID>  (1977) 
JP009272

>  <CONTRIBUTOR>  (1977) 
University of Tokyo Team, {Faculty of Engineering, University of Tokyo

>  <COMMENT>  (1977) 
SMILES=CC(C)CCOC(CC)OCc(c1)cccc1
InChI=InChI=1S/C15H24O2/c1-4-15(16-11-10-13(2)3)17-12-14-8-6-5-7-9-14/h5-9,13,15H,4,10-12H2,1-3H3
computed SMILES=O(CC=1C=CC=CC1)C(OCCC(C)C)CC
accession=JP009272
date=2016.01.19 (Created 2008.10.21, modified 2011.05.06)
author=SODA AROMATIC CO., LTD.
license=CC BY-NC-SA
exact mass=236.17763
ionization energy=70 eV
ion type=[M]+*
computed spectral entropy=1.6877698691889362
computed normalized entropy=0.5633914232217582
SPLASH=splash10-0006-9000000000-399f49abf108602ec5fb
submitter=submitter = University of Tokyo Team (Faculty of Engineering, University of Tokyo)
MoNA Rating=3.75

>  <NUM PEAKS>  (1977) 
20

>  <MASS SPECTRAL PEAKS>  (1977) 
27 3.1
29 4.1
39 3.6
41 0.58
42 1.1
43 13.2
51 1.2
55 0.16
57 1.4
65 6.1
71 11.9
77 0.17
79 1
89 1.1
90 1.5
91 99.99
92 10.8
148 3.3
149 1.8
207 3.6

$$$$

     RDKit          2D

 14 14  0  0  0  0  0  0  0  0999 V2000
   -4.2216    6.1321    0.0000 C   0  0  0  0  0  0  0  0  0  0  0  0
   -6.8197    3.1321    0.0000 C   0  0  0  0  0  0  0  0  0  0  0  0
   -2.9226    5.3821    0.0000 C   0  0  0  0  0  0  0  0  0  0  0  0
   -5.5207    3.8821    0.0000 C   0  0  0  0  0  0  0  0  0  0  0  0
    3.5726    1.6321    0.0000 C   0  0  0  0  0  0  0  0  0  0  0  0
    3.5731    3.1329    0.0000 C   0  0  0  0  0  0  0  0  0  0  0  0
    2.2731    0.8813    0.0000 C   0  0  0  0  0  0  0  0  0  0  0  0
    2.2740    3.8829    0.0000 C   0  0  0  0  0  0  0  0  0  0  0  0
    0.9740    1.6313    0.0000 C   0  0  0  0  0  0  0  0  0  0  0  0
   -0.3245    3.8821    0.0000 C   0  0  0  0  0  0  0  0  0  0  0  0
    0.9745    3.1321    0.0000 C   0  0  0  0  0  0  0  0  0  0  0  0
   -2.9226    3.8821    0.0000 C   0  0  0  0  0  0  0  0  0  0  0  0
   -4.2216    3.1321    0.0000 O   0  0  0  0  0  0  0  0  0  0  0  0
   -1.6236    3.1321    0.0000 O   0  0  0  0  0  0  0  0  0  0  0  0
  3  1  1  0
  4  2  1  0
  6  5  2  0
  7  5  1  0
  8  6  1  0
  9  7  2  0
 11  8  2  0
 11  9  1  0
 11 10  1  0
 12  3  1  0
 13  4  1  0
 13 12  1  0
 14 10  1  0
 14 12  1  0
M  END
>  <NAME>  (1978) 
PROPANAL BENZYL ETHYL ACETAL

>  <SYNONYMS>  (1978) 


>  <SPECTRUM TYPE>  (1978) 
MS1

>  <INSTRUMENT TYPE>  (1978) 
EI-B

>  <INSTRUMENT>  (1978) 
HITACHI M-80B

>  <ION MODE>  (1978) 
P

>  <INCHIKEY>  (1978) 
CJUFJTXKBQQYSD-UHFFFAOYSA-N

>  <FORMULA>  (1978) 
C12H18O2

>  <EXACT MASS>  (1978) 
194.130679816

>  <MW>  (1978) 
194

>  <ID>  (1978) 
JP009271

>  <CONTRIBUTOR>  (1978) 
University of Tokyo Team, {Faculty of Engineering, University of Tokyo

>  <COMMENT>  (1978) 
SMILES=CCOC(CC)OCc(c1)cccc1
InChI=InChI=1S/C12H18O2/c1-3-12(13-4-2)14-10-11-8-6-5-7-9-11/h5-9,12H,3-4,10H2,1-2H3
computed SMILES=O(CC=1C=CC=CC1)C(OCC)CC
accession=JP009271
date=2016.01.19 (Created 2008.10.21, modified 2011.05.06)
author=SODA AROMATIC CO., LTD.
license=CC BY-NC-SA
exact mass=194.13068
ionization energy=70 eV
ion type=[M]+*
computed spectral entropy=1.6978184274562027
computed normalized entropy=0.5766186494164837
SPLASH=splash10-0006-9000000000-688d150dba7b720e910c
submitter=submitter = University of Tokyo Team (Faculty of Engineering, University of Tokyo)
MoNA Rating=3.75

>  <NUM PEAKS>  (1978) 
19

>  <MASS SPECTRAL PEAKS>  (1978) 
27 3.2
29 7.3
31 3
39 0.3
41 2.2
51 2.3
57 1.3
59 1.64
63 1.5
65 8.9
77 2.6
79 0.13
87 9.1
89 1.9
90 2.4
91 99.99
92 9.7
148 2.5
165 6.4

$$$$

     RDKit          2D

 19 20  0  0  0  0  0  0  0  0999 V2000
   -3.8966    7.8200    0.0000 C   0  0  0  0  0  0  0  0  0  0  0  0
   -2.5976    7.0700    0.0000 C   0  0  0  0  0  0  0  0  0  0  0  0
    3.8976    3.3200    0.0000 C   0  0  0  0  0  0  0  0  0  0  0  0
   -9.0928    3.3200    0.0000 C   0  0  0  0  0  0  0  0  0  0  0  0
    3.8981    4.8208    0.0000 C   0  0  0  0  0  0  0  0  0  0  0  0
    2.5981    2.5692    0.0000 C   0  0  0  0  0  0  0  0  0  0  0  0
   -7.7933    2.5692    0.0000 C   0  0  0  0  0  0  0  0  0  0  0  0
   -9.0933    4.8208    0.0000 C   0  0  0  0  0  0  0  0  0  0  0  0
    2.5990    5.5708    0.0000 C   0  0  0  0  0  0  0  0  0  0  0  0
    1.2990    3.3192    0.0000 C   0  0  0  0  0  0  0  0  0  0  0  0
   -6.4942    3.3192    0.0000 C   0  0  0  0  0  0  0  0  0  0  0  0
   -7.7942    5.5708    0.0000 C   0  0  0  0  0  0  0  0  0  0  0  0
    0.0005    5.5700    0.0000 C   0  0  0  0  0  0  0  0  0  0  0  0
   -5.1957    5.5700    0.0000 C   0  0  0  0  0  0  0  0  0  0  0  0
    1.2995    4.8200    0.0000 C   0  0  0  0  0  0  0  0  0  0  0  0
   -6.4947    4.8200    0.0000 C   0  0  0  0  0  0  0  0  0  0  0  0
   -2.5976    5.5700    0.0000 C   0  0  0  0  0  0  0  0  0  0  0  0
   -1.2986    4.8200    0.0000 O   0  0  0  0  0  0  0  0  0  0  0  0
   -3.8966    4.8200    0.0000 O   0  0  0  0  0  0  0  0  0  0  0  0
  2  1  1  0
  5  3  2  0
  6  3  1  0
  7  4  2  0
  8  4  1  0
  9  5  1  0
 10  6  2  0
 11  7  1  0
 12  8  2  0
 15  9  2  0
 15 10  1  0
 15 13  1  0
 16 11  2  0
 16 12  1  0
 16 14  1  0
 17  2  1  0
 18 13  1  0
 18 17  1  0
 19 14  1  0
 19 17  1  0
M  END
>  <NAME>  (1979) 
PROPANAL DIBENZYL ACETAL

>  <SYNONYMS>  (1979) 


>  <SPECTRUM TYPE>  (1979) 
MS1

>  <INSTRUMENT TYPE>  (1979) 
EI-B

>  <INSTRUMENT>  (1979) 
HITACHI M-80B

>  <ION MODE>  (1979) 
P

>  <INCHIKEY>  (1979) 
ANNDAFXCWSPYIU-UHFFFAOYSA-N

>  <FORMULA>  (1979) 
C17H20O2

>  <EXACT MASS>  (1979) 
256.14632988

>  <MW>  (1979) 
256

>  <ID>  (1979) 
JP009270

>  <CONTRIBUTOR>  (1979) 
University of Tokyo Team, {Faculty of Engineering, University of Tokyo

>  <COMMENT>  (1979) 
SMILES=CCC(OCc(c2)cccc2)OCc(c1)cccc1
InChI=InChI=1S/C17H20O2/c1-2-17(18-13-15-9-5-3-6-10-15)19-14-16-11-7-4-8-12-16/h3-12,17H,2,13-14H2,1H3
computed SMILES=O(CC=1C=CC=CC1)C(OCC=2C=CC=CC2)CC
accession=JP009270
date=2016.01.19 (Created 2008.10.21, modified 2011.05.06)
author=SODA AROMATIC CO., LTD.
license=CC BY-NC-SA
exact mass=256.14633
ionization energy=70 eV
ion type=[M]+*
computed spectral entropy=1.5493503528999668
computed normalized entropy=0.5088976628001177
SPLASH=splash10-0006-9000000000-92263d5513182be9fc01
submitter=submitter = University of Tokyo Team (Faculty of Engineering, University of Tokyo)
MoNA Rating=3.75

>  <NUM PEAKS>  (1979) 
21

>  <MASS SPECTRAL PEAKS>  (1979) 
27 1.2
29 1.6
39 2.9
41 0.11
51 2.8
63 1.4
65 10.1
77 0.45
78 1.2
79 3
89 1.9
90 0.26
91 99.99
92 26.7
93 1.4
105 0.14
107 8.1
108 1.2
148 1.5
165 0.14
181 2.3

$$$$

     RDKit          2D

 13 12  0  0  0  0  0  0  0  0999 V2000
    2.5981    4.5000    0.0000 C   0  0  0  0  0  0  0  0  0  0  0  0
   -7.7942    4.5000    0.0000 C   0  0  0  0  0  0  0  0  0  0  0  0
   -5.1962    9.0000    0.0000 C   0  0  0  0  0  0  0  0  0  0  0  0
   -6.4952    6.7500    0.0000 C   0  0  0  0  0  0  0  0  0  0  0  0
    1.2990    5.2500    0.0000 C   0  0  0  0  0  0  0  0  0  0  0  0
   -6.4952    5.2500    0.0000 C   0  0  0  0  0  0  0  0  0  0  0  0
    0.0000    4.5000    0.0000 C   0  0  0  0  0  0  0  0  0  0  0  0
   -5.1962    4.5000    0.0000 C   0  0  0  0  0  0  0  0  0  0  0  0
   -1.2990    5.2500    0.0000 C   0  0  0  0  0  0  0  0  0  0  0  0
   -5.1962    7.5000    0.0000 C   0  0  0  0  0  0  0  0  0  0  0  0
   -3.8971    5.2500    0.0000 C   0  0  0  0  0  0  0  0  0  0  0  0
   -2.5981    4.5000    0.0000 O   0  0  0  0  0  0  0  0  0  0  0  0
   -3.8971    6.7500    0.0000 O   0  0  0  0  0  0  0  0  0  0  0  0
  5  1  1  0
  6  2  1  0
  7  5  1  0
  8  6  1  0
  9  7  1  0
 10  3  1  0
 10  4  1  0
 11  8  1  0
 12  9  1  0
 12 11  1  0
 13 10  1  0
 13 11  1  0
M  END
>  <NAME>  (1980) 
BUTANAL BUTYL ISOPROPYL ACETAL

>  <SYNONYMS>  (1980) 


>  <SPECTRUM TYPE>  (1980) 
MS1

>  <INSTRUMENT TYPE>  (1980) 
EI-B

>  <INSTRUMENT>  (1980) 
HITACHI M-80B

>  <ION MODE>  (1980) 
P

>  <INCHIKEY>  (1980) 
CNHSQHGCGGFGSB-UHFFFAOYSA-N

>  <FORMULA>  (1980) 
C11H24O2

>  <EXACT MASS>  (1980) 
188.177630008

>  <MW>  (1980) 
188

>  <ID>  (1980) 
JP009269

>  <CONTRIBUTOR>  (1980) 
University of Tokyo Team, {Faculty of Engineering, University of Tokyo

>  <COMMENT>  (1980) 
SMILES=CCCCOC(CCC)OC(C)C
InChI=InChI=1S/C11H24O2/c1-5-7-9-12-11(8-6-2)13-10(3)4/h10-11H,5-9H2,1-4H3
computed SMILES=O(CCCC)C(OC(C)C)CCC
accession=JP009269
date=2016.01.19 (Created 2008.10.21, modified 2011.05.06)
author=SODA AROMATIC CO., LTD.
license=CC BY-NC-SA
exact mass=188.17763
ionization energy=70 eV
ion type=[M]+*
computed spectral entropy=2.539571316910371
computed normalized entropy=0.7395401222210221
SPLASH=splash10-0abc-9200000000-3e7203fdd3b998039557
submitter=submitter = University of Tokyo Team (Faculty of Engineering, University of Tokyo)
MoNA Rating=3.75

>  <NUM PEAKS>  (1980) 
31

>  <MASS SPECTRAL PEAKS>  (1980) 
15 1.2
18 2.4
27 19.5
28 0.24
29 23.9
31 5.4
39 6.2
40 0.12
41 34.5
42 4
43 44.4
44 0.43
45 4.9
47 3.1
55 42.2
56 0.51
57 99.99
58 3.8
59 1.3
71 0.3
72 3.3
73 84.3
74 3.4
89 0.35
103 33.9
104 1.5
115 29.9
116 0.2
129 10.7
145 14.8
146 1.5

$$$$

     RDKit          2D

 14 13  0  0  0  0  0  0  0  0999 V2000
    3.2476    3.3750    0.0000 C   0  0  0  0  0  0  0  0  0  0  0  0
   -7.1447    3.3750    0.0000 C   0  0  0  0  0  0  0  0  0  0  0  0
   -5.8457    5.6250    0.0000 C   0  0  0  0  0  0  0  0  0  0  0  0
    0.6495    7.8750    0.0000 C   0  0  0  0  0  0  0  0  0  0  0  0
    1.9486    5.6250    0.0000 C   0  0  0  0  0  0  0  0  0  0  0  0
    1.9486    4.1250    0.0000 C   0  0  0  0  0  0  0  0  0  0  0  0
    0.6495    3.3750    0.0000 C   0  0  0  0  0  0  0  0  0  0  0  0
   -4.5466    3.3750    0.0000 C   0  0  0  0  0  0  0  0  0  0  0  0
   -3.2476    4.1250    0.0000 C   0  0  0  0  0  0  0  0  0  0  0  0
   -5.8457    4.1250    0.0000 C   0  0  0  0  0  0  0  0  0  0  0  0
    0.6495    6.3750    0.0000 C   0  0  0  0  0  0  0  0  0  0  0  0
   -0.6495    4.1250    0.0000 C   0  0  0  0  0  0  0  0  0  0  0  0
   -1.9486    3.3750    0.0000 O   0  0  0  0  0  0  0  0  0  0  0  0
   -0.6495    5.6250    0.0000 O   0  0  0  0  0  0  0  0  0  0  0  0
  6  1  1  0
  7  6  1  0
  9  8  1  0
 10  2  1  0
 10  3  1  0
 10  8  1  0
 11  4  1  0
 11  5  1  0
 12  7  1  0
 13  9  1  0
 13 12  1  0
 14 11  1  0
 14 12  1  0
M  END
>  <NAME>  (1981) 
BUTANAL ISOPENTYL ISOPROPYL ACETAL

>  <SYNONYMS>  (1981) 
BUTANAL ISOAMYL ISOPROPYL ACETAL

>  <SPECTRUM TYPE>  (1981) 
MS1

>  <INSTRUMENT TYPE>  (1981) 
EI-B

>  <INSTRUMENT>  (1981) 
HITACHI M-80B

>  <ION MODE>  (1981) 
P

>  <INCHIKEY>  (1981) 
IYAICXDFPSVBGK-UHFFFAOYSA-N

>  <FORMULA>  (1981) 
C12H26O2

>  <EXACT MASS>  (1981) 
202.193280072

>  <MW>  (1981) 
202

>  <ID>  (1981) 
JP009268

>  <CONTRIBUTOR>  (1981) 
University of Tokyo Team, {Faculty of Engineering, University of Tokyo

>  <COMMENT>  (1981) 
SMILES=CCCC(OCCC(C)C)OC(C)C
InChI=InChI=1S/C12H26O2/c1-6-7-12(14-11(4)5)13-9-8-10(2)3/h10-12H,6-9H2,1-5H3
computed SMILES=O(CCC(C)C)C(OC(C)C)CCC
accession=JP009268
date=2016.01.19 (Created 2008.10.21, modified 2011.05.06)
author=SODA AROMATIC CO., LTD.
license=CC BY-NC-SA
exact mass=202.19328
ionization energy=70 eV
ion type=[M]+*
computed spectral entropy=2.4103338783576755
computed normalized entropy=0.7086721550925551
SPLASH=splash10-00dl-9100000000-ab101162c687f869d2dc
submitter=submitter = University of Tokyo Team (Faculty of Engineering, University of Tokyo)
MoNA Rating=3.75

>  <NUM PEAKS>  (1981) 
30

>  <MASS SPECTRAL PEAKS>  (1981) 
27 16
28 1.6
29 8.7
31 0.4
39 5.3
40 1.2
41 24.7
42 0.52
43 86.1
44 4.3
45 4.3
47 0.12
53 1.4
55 32.7
56 1.9
57 0.3
59 1.1
69 1.5
70 2.5
71 99.99
72 5.6
73 50
74 2.9
89 0.22
115 28.3
116 2.2
117 20.3
118 0.11
143 5.5
159 10.3

$$$$

     RDKit          2D

 19 18  0  0  0  0  0  0  0  0999 V2000
    2.9228    7.6875    0.0000 C   0  0  0  0  0  0  0  0  0  0  0  0
  -11.3666    8.4375    0.0000 C   0  0  0  0  0  0  0  0  0  0  0  0
  -10.0675    6.1875    0.0000 C   0  0  0  0  0  0  0  0  0  0  0  0
   -7.4695    1.6875    0.0000 C   0  0  0  0  0  0  0  0  0  0  0  0
   -8.7685    3.9375    0.0000 C   0  0  0  0  0  0  0  0  0  0  0  0
    1.6238    8.4375    0.0000 C   0  0  0  0  0  0  0  0  0  0  0  0
    0.3248    7.6875    0.0000 C   0  0  0  0  0  0  0  0  0  0  0  0
   -0.9743    8.4375    0.0000 C   0  0  0  0  0  0  0  0  0  0  0  0
   -2.2733    7.6875    0.0000 C   0  0  0  0  0  0  0  0  0  0  0  0
   -3.5724    8.4375    0.0000 C   0  0  0  0  0  0  0  0  0  0  0  0
   -8.7685    8.4375    0.0000 C   0  0  0  0  0  0  0  0  0  0  0  0
   -6.1704    3.9375    0.0000 C   0  0  0  0  0  0  0  0  0  0  0  0
   -7.4695    7.6875    0.0000 C   0  0  0  0  0  0  0  0  0  0  0  0
   -6.1704    5.4375    0.0000 C   0  0  0  0  0  0  0  0  0  0  0  0
  -10.0675    7.6875    0.0000 C   0  0  0  0  0  0  0  0  0  0  0  0
   -7.4695    3.1875    0.0000 C   0  0  0  0  0  0  0  0  0  0  0  0
   -4.8714    7.6875    0.0000 C   0  0  0  0  0  0  0  0  0  0  0  0
   -6.1704    8.4375    0.0000 O   0  0  0  0  0  0  0  0  0  0  0  0
   -4.8714    6.1875    0.0000 O   0  0  0  0  0  0  0  0  0  0  0  0
  6  1  1  0
  7  6  1  0
  8  7  1  0
  9  8  1  0
 10  9  1  0
 13 11  1  0
 14 12  1  0
 15  2  1  0
 15  3  1  0
 15 11  1  0
 16  4  1  0
 16  5  1  0
 16 12  1  0
 17 10  1  0
 18 13  1  0
 18 17  1  0
 19 14  1  0
 19 17  1  0
M  END
>  <NAME>  (1982) 
HEPTANAL DIISOPENTYL ACETAL

>  <SYNONYMS>  (1982) 
HEPTANAL DIISOAMYL ACETAL

>  <SPECTRUM TYPE>  (1982) 
MS1

>  <INSTRUMENT TYPE>  (1982) 
EI-B

>  <INSTRUMENT>  (1982) 
HITACHI M-80B

>  <ION MODE>  (1982) 
P

>  <INCHIKEY>  (1982) 
FCNZGZQLIKHVGP-UHFFFAOYSA-N

>  <FORMULA>  (1982) 
C17H36O2

>  <EXACT MASS>  (1982) 
272.271530392

>  <MW>  (1982) 
272

>  <ID>  (1982) 
JP009267

>  <CONTRIBUTOR>  (1982) 
University of Tokyo Team, {Faculty of Engineering, University of Tokyo

>  <COMMENT>  (1982) 
SMILES=CCCCCCC(OCCC(C)C)OCCC(C)C
InChI=InChI=1S/C17H36O2/c1-6-7-8-9-10-17(18-13-11-15(2)3)19-14-12-16(4)5/h15-17H,6-14H2,1-5H3
computed SMILES=O(CCC(C)C)C(OCCC(C)C)CCCCCC
accession=JP009267
date=2016.01.19 (Created 2008.10.21, modified 2011.05.06)
author=SODA AROMATIC CO., LTD.
license=CC BY-NC-SA
exact mass=272.27153
ionization energy=70 eV
ion type=[M]+*
computed spectral entropy=1.880771873617626
computed normalized entropy=0.6177559574906581
SPLASH=splash10-00dl-9000000000-406855ea92733611c414
submitter=submitter = University of Tokyo Team (Faculty of Engineering, University of Tokyo)
MoNA Rating=3.75

>  <NUM PEAKS>  (1982) 
21

>  <MASS SPECTRAL PEAKS>  (1982) 
27 4.8
29 8.9
31 1
39 0.26
41 13.2
42 3.8
43 56.2
44 0.24
55 11.7
56 1.4
57 2.6
69 0.26
70 4.2
71 99.99
72 5.3
97 0.16
117 2.3
185 14.2
186 1.6
187 1.28
188 1.2

$$$$

     RDKit          2D

 15 14  0  0  0  0  0  0  0  0999 V2000
   -8.7685    6.1875    0.0000 C   0  0  0  0  0  0  0  0  0  0  0  0
   -3.5724    1.6875    0.0000 C   0  0  0  0  0  0  0  0  0  0  0  0
    4.2219    6.1875    0.0000 C   0  0  0  0  0  0  0  0  0  0  0  0
    2.9228    3.9375    0.0000 C   0  0  0  0  0  0  0  0  0  0  0  0
   -7.4695    5.4375    0.0000 C   0  0  0  0  0  0  0  0  0  0  0  0
   -3.5724    3.1875    0.0000 C   0  0  0  0  0  0  0  0  0  0  0  0
   -6.1704    6.1875    0.0000 C   0  0  0  0  0  0  0  0  0  0  0  0
   -2.2733    3.9375    0.0000 C   0  0  0  0  0  0  0  0  0  0  0  0
    1.6238    6.1875    0.0000 C   0  0  0  0  0  0  0  0  0  0  0  0
   -4.8714    5.4375    0.0000 C   0  0  0  0  0  0  0  0  0  0  0  0
    0.3248    5.4375    0.0000 C   0  0  0  0  0  0  0  0  0  0  0  0
    2.9228    5.4375    0.0000 C   0  0  0  0  0  0  0  0  0  0  0  0
   -2.2733    5.4375    0.0000 C   0  0  0  0  0  0  0  0  0  0  0  0
   -3.5724    6.1875    0.0000 O   0  0  0  0  0  0  0  0  0  0  0  0
   -0.9743    6.1875    0.0000 O   0  0  0  0  0  0  0  0  0  0  0  0
  5  1  1  0
  6  2  1  0
  7  5  1  0
  8  6  1  0
 10  7  1  0
 11  9  1  0
 12  3  1  0
 12  4  1  0
 12  9  1  0
 13  8  1  0
 14 10  1  0
 14 13  1  0
 15 11  1  0
 15 13  1  0
M  END
>  <NAME>  (1983) 
BUTANAL BUTYL ISOAMYL ACETAL

>  <SYNONYMS>  (1983) 


>  <SPECTRUM TYPE>  (1983) 
MS1

>  <INSTRUMENT TYPE>  (1983) 
EI-B

>  <INSTRUMENT>  (1983) 
HITACHI M-80B

>  <ION MODE>  (1983) 
P

>  <INCHIKEY>  (1983) 
BSNWVXDNGIOQGW-UHFFFAOYSA-N

>  <FORMULA>  (1983) 
C13H28O2

>  <EXACT MASS>  (1983) 
216.208930136

>  <MW>  (1983) 
216

>  <ID>  (1983) 
JP009266

>  <CONTRIBUTOR>  (1983) 
University of Tokyo Team, {Faculty of Engineering, University of Tokyo

>  <COMMENT>  (1983) 
SMILES=CCCCOC(CCC)OCCC(C)C
InChI=InChI=1S/C13H28O2/c1-5-7-10-14-13(8-6-2)15-11-9-12(3)4/h12-13H,5-11H2,1-4H3
computed SMILES=O(CCCC)C(OCCC(C)C)CCC
accession=JP009266
date=2016.01.19 (Created 2008.10.21, modified 2011.05.06)
author=SODA AROMATIC CO., LTD.
license=CC BY-NC-SA
exact mass=216.20893
ionization energy=70 eV
ion type=[M]+*
computed spectral entropy=2.4176161019777687
computed normalized entropy=0.7335363369816111
SPLASH=splash10-00di-9100000000-9cdc77b32764f8449160
submitter=submitter = University of Tokyo Team (Faculty of Engineering, University of Tokyo)
MoNA Rating=3.75

>  <NUM PEAKS>  (1983) 
27

>  <MASS SPECTRAL PEAKS>  (1983) 
27 12.6
28 2.7
29 23
31 0.36
39 5.9
41 29.6
42 3.1
43 6.32
44 3.2
45 1.3
53 1.3
55 2.57
56 4.8
57 33.6
69 1.1
70 0.17
71 99.99
72 6.2
73 32.9
74 0.17
103 2.8
117 1.4
129 21.4
130 0.15
143 12.7
144 1
173 11.2

$$$$

     RDKit          2D

 16 15  0  0  0  0  0  0  0  0999 V2000
   -0.9743    1.6875    0.0000 C   0  0  0  0  0  0  0  0  0  0  0  0
   -8.7685    6.1875    0.0000 C   0  0  0  0  0  0  0  0  0  0  0  0
   -7.4695    3.9375    0.0000 C   0  0  0  0  0  0  0  0  0  0  0  0
    4.2219    6.1875    0.0000 C   0  0  0  0  0  0  0  0  0  0  0  0
    2.9228    3.9375    0.0000 C   0  0  0  0  0  0  0  0  0  0  0  0
   -0.9743    3.1875    0.0000 C   0  0  0  0  0  0  0  0  0  0  0  0
   -2.2733    3.9375    0.0000 C   0  0  0  0  0  0  0  0  0  0  0  0
   -6.1704    6.1875    0.0000 C   0  0  0  0  0  0  0  0  0  0  0  0
    1.6238    6.1875    0.0000 C   0  0  0  0  0  0  0  0  0  0  0  0
   -4.8714    5.4375    0.0000 C   0  0  0  0  0  0  0  0  0  0  0  0
    0.3248    5.4375    0.0000 C   0  0  0  0  0  0  0  0  0  0  0  0
   -7.4695    5.4375    0.0000 C   0  0  0  0  0  0  0  0  0  0  0  0
    2.9228    5.4375    0.0000 C   0  0  0  0  0  0  0  0  0  0  0  0
   -2.2733    5.4375    0.0000 C   0  0  0  0  0  0  0  0  0  0  0  0
   -3.5724    6.1875    0.0000 O   0  0  0  0  0  0  0  0  0  0  0  0
   -0.9743    6.1875    0.0000 O   0  0  0  0  0  0  0  0  0  0  0  0
  6  1  1  0
  7  6  1  0
 10  8  1  0
 11  9  1  0
 12  2  1  0
 12  3  1  0
 12  8  1  0
 13  4  1  0
 13  5  1  0
 13  9  1  0
 14  7  1  0
 15 10  1  0
 15 14  1  0
 16 11  1  0
 16 14  1  0
M  END
>  <NAME>  (1984) 
BUTANAL DIISOPENTYL ACETAL

>  <SYNONYMS>  (1984) 
BUTANAL DIISOAMYL ACETAL

>  <SPECTRUM TYPE>  (1984) 
MS1

>  <INSTRUMENT TYPE>  (1984) 
EI-B

>  <INSTRUMENT>  (1984) 
HITACHI M-80B

>  <ION MODE>  (1984) 
P

>  <INCHIKEY>  (1984) 
KWZAGPSMWWHQMR-UHFFFAOYSA-N

>  <FORMULA>  (1984) 
C14H30O2

>  <EXACT MASS>  (1984) 
230.2245802

>  <MW>  (1984) 
230

>  <ID>  (1984) 
JP009265

>  <CONTRIBUTOR>  (1984) 
University of Tokyo Team, {Faculty of Engineering, University of Tokyo

>  <COMMENT>  (1984) 
SMILES=CCCC(OCCC(C)C)OCCC(C)C
InChI=InChI=1S/C14H30O2/c1-6-7-14(15-10-8-12(2)3)16-11-9-13(4)5/h12-14H,6-11H2,1-5H3
computed SMILES=O(CCC(C)C)C(OCCC(C)C)CCC
accession=JP009265
date=2016.01.19 (Created 2008.10.21, modified 2011.05.06)
author=SODA AROMATIC CO., LTD.
license=CC BY-NC-SA
exact mass=230.22458
ionization energy=70 eV
ion type=[M]+*
computed spectral entropy=1.8956427733724508
computed normalized entropy=0.6327811033405707
SPLASH=splash10-00dl-9100000000-c676e8d768c4f12290c3
submitter=submitter = University of Tokyo Team (Faculty of Engineering, University of Tokyo)
MoNA Rating=3.75

>  <NUM PEAKS>  (1984) 
20

>  <MASS SPECTRAL PEAKS>  (1984) 
27 7
29 8.3
31 1.8
39 0.27
41 13.7
42 2.4
43 57.9
44 0.26
55 12.4
56 1.5
57 1.3
69 0.11
70 2
71 99.99
72 5.6
73 0.19
117 1.5
143 20.2
144 1.6
187 6.9

$$$$

     RDKit          2D

 14 13  0  0  0  0  0  0  0  0999 V2000
    3.2476    5.6250    0.0000 C   0  0  0  0  0  0  0  0  0  0  0  0
   -9.7428    5.6250    0.0000 C   0  0  0  0  0  0  0  0  0  0  0  0
   -4.5466   10.1250    0.0000 C   0  0  0  0  0  0  0  0  0  0  0  0
    1.9486    6.3750    0.0000 C   0  0  0  0  0  0  0  0  0  0  0  0
   -8.4437    6.3750    0.0000 C   0  0  0  0  0  0  0  0  0  0  0  0
   -4.5466    8.6250    0.0000 C   0  0  0  0  0  0  0  0  0  0  0  0
    0.6495    5.6250    0.0000 C   0  0  0  0  0  0  0  0  0  0  0  0
   -7.1447    5.6250    0.0000 C   0  0  0  0  0  0  0  0  0  0  0  0
   -3.2476    7.8750    0.0000 C   0  0  0  0  0  0  0  0  0  0  0  0
   -0.6495    6.3750    0.0000 C   0  0  0  0  0  0  0  0  0  0  0  0
   -5.8457    6.3750    0.0000 C   0  0  0  0  0  0  0  0  0  0  0  0
   -3.2476    6.3750    0.0000 C   0  0  0  0  0  0  0  0  0  0  0  0
   -1.9486    5.6250    0.0000 O   0  0  0  0  0  0  0  0  0  0  0  0
   -4.5466    5.6250    0.0000 O   0  0  0  0  0  0  0  0  0  0  0  0
  4  1  1  0
  5  2  1  0
  6  3  1  0
  7  4  1  0
  8  5  1  0
  9  6  1  0
 10  7  1  0
 11  8  1  0
 12  9  1  0
 13 10  1  0
 13 12  1  0
 14 11  1  0
 14 12  1  0
M  END
>  <NAME>  (1985) 
BUTANAL DIBUTYL ACETAL

>  <SYNONYMS>  (1985) 


>  <SPECTRUM TYPE>  (1985) 
MS1

>  <INSTRUMENT TYPE>  (1985) 
EI-B

>  <INSTRUMENT>  (1985) 
HITACHI M-80B

>  <ION MODE>  (1985) 
P

>  <INCHIKEY>  (1985) 
WQRBJFZKPWPIJD-UHFFFAOYSA-N

>  <FORMULA>  (1985) 
C12H26O2

>  <EXACT MASS>  (1985) 
202.193280072

>  <MW>  (1985) 
202

>  <ID>  (1985) 
JP009264

>  <CONTRIBUTOR>  (1985) 
University of Tokyo Team, {Faculty of Engineering, University of Tokyo

>  <COMMENT>  (1985) 
SMILES=CCCCOC(CCC)OCCCC
InChI=InChI=1S/C12H26O2/c1-4-7-10-13-12(9-6-3)14-11-8-5-2/h12H,4-11H2,1-3H3
computed SMILES=O(CCCC)C(OCCCC)CCC
accession=JP009264
date=2016.01.19 (Created 2008.10.21, modified 2011.05.06)
author=SODA AROMATIC CO., LTD.
license=CC BY-NC-SA
exact mass=202.19328
ionization energy=70 eV
ion type=[M]+*
computed spectral entropy=2.2143671280194916
computed normalized entropy=0.7062258692010701
SPLASH=splash10-0a6r-9100000000-f9344d26549f52a6bd59
submitter=submitter = University of Tokyo Team (Faculty of Engineering, University of Tokyo)
MoNA Rating=3.75

>  <NUM PEAKS>  (1985) 
23

>  <MASS SPECTRAL PEAKS>  (1985) 
27 12.6
28 2.7
29 32.2
31 0.39
39 5.6
41 35.1
42 2
43 1.14
44 2.1
47 1.6
55 28.2
56 0.59
57 99.99
58 3
71 2.3
72 0.21
73 50.1
74 2.1
89 1.4
103 1.24
129 29.9
130 2.1
159 10.8

$$$$

     RDKit          2D

 16 15  0  0  0  0  0  0  0  0999 V2000
    3.5724    6.5625    0.0000 C   0  0  0  0  0  0  0  0  0  0  0  0
   -5.5209    2.8125    0.0000 C   0  0  0  0  0  0  0  0  0  0  0  0
  -10.7171    7.3125    0.0000 C   0  0  0  0  0  0  0  0  0  0  0  0
   -9.4180    5.0625    0.0000 C   0  0  0  0  0  0  0  0  0  0  0  0
    2.2733    7.3125    0.0000 C   0  0  0  0  0  0  0  0  0  0  0  0
   -5.5209    4.3125    0.0000 C   0  0  0  0  0  0  0  0  0  0  0  0
    0.9743    6.5625    0.0000 C   0  0  0  0  0  0  0  0  0  0  0  0
   -0.3248    7.3125    0.0000 C   0  0  0  0  0  0  0  0  0  0  0  0
   -1.6238    6.5625    0.0000 C   0  0  0  0  0  0  0  0  0  0  0  0
   -2.9228    7.3125    0.0000 C   0  0  0  0  0  0  0  0  0  0  0  0
   -8.1190    7.3125    0.0000 C   0  0  0  0  0  0  0  0  0  0  0  0
   -6.8200    6.5625    0.0000 C   0  0  0  0  0  0  0  0  0  0  0  0
   -9.4180    6.5625    0.0000 C   0  0  0  0  0  0  0  0  0  0  0  0
   -4.2219    6.5625    0.0000 C   0  0  0  0  0  0  0  0  0  0  0  0
   -4.2219    5.0625    0.0000 O   0  0  0  0  0  0  0  0  0  0  0  0
   -5.5209    7.3125    0.0000 O   0  0  0  0  0  0  0  0  0  0  0  0
  5  1  1  0
  6  2  1  0
  7  5  1  0
  8  7  1  0
  9  8  1  0
 10  9  1  0
 12 11  1  0
 13  3  1  0
 13  4  1  0
 13 11  1  0
 14 10  1  0
 15  6  1  0
 15 14  1  0
 16 12  1  0
 16 14  1  0
M  END
>  <NAME>  (1986) 
HEPTANAL ETHYL ISOPENTYL ACETAL

>  <SYNONYMS>  (1986) 
HEPTANAL ETHYL ISOAMYL ACETAL

>  <SPECTRUM TYPE>  (1986) 
MS1

>  <INSTRUMENT TYPE>  (1986) 
EI-B

>  <INSTRUMENT>  (1986) 
HITACHI M-80B

>  <ION MODE>  (1986) 
P

>  <INCHIKEY>  (1986) 
ZBRSUNZCGCABAB-UHFFFAOYSA-N

>  <FORMULA>  (1986) 
C14H30O2

>  <EXACT MASS>  (1986) 
230.2245802

>  <MW>  (1986) 
230

>  <ID>  (1986) 
JP009263

>  <CONTRIBUTOR>  (1986) 
University of Tokyo Team, {Faculty of Engineering, University of Tokyo

>  <COMMENT>  (1986) 
SMILES=CCCCCCC(OCC)OCCC(C)C
InChI=InChI=1S/C14H30O2/c1-5-7-8-9-10-14(15-6-2)16-12-11-13(3)4/h13-14H,5-12H2,1-4H3
computed SMILES=O(CC)C(OCCC(C)C)CCCCCC
accession=JP009263
date=2016.01.19 (Created 2008.10.21, modified 2011.05.06)
author=SODA AROMATIC CO., LTD.
license=CC BY-NC-SA
exact mass=230.22458
ionization energy=70 eV
ion type=[M]+*
computed spectral entropy=2.5681716224582303
computed normalized entropy=0.7626807242737998
SPLASH=splash10-00dl-9200000000-935412047c9dde0768c8
submitter=submitter = University of Tokyo Team (Faculty of Engineering, University of Tokyo)
MoNA Rating=3.75

>  <NUM PEAKS>  (1986) 
29

>  <MASS SPECTRAL PEAKS>  (1986) 
27 10.6
28 2.2
29 21.4
31 0.38
39 4.8
41 22.5
42 5.1
43 6.82
44 6
45 2.3
47 8.4
53 0.12
55 29.4
56 2.2
57 7.9
58 0.1
59 2
69 5.6
70 2.7
71 99.99
72 6.8
75 14.1
85 3.3
97 1.14
143 29.9
144 2.6
145 29.2
146 0.21
185 4.7

$$$$

     RDKit          2D

 14 13  0  0  0  0  0  0  0  0999 V2000
    2.5981    4.5000    0.0000 C   0  0  0  0  0  0  0  0  0  0  0  0
   -1.2990    0.7500    0.0000 C   0  0  0  0  0  0  0  0  0  0  0  0
    0.0000    3.0000    0.0000 C   0  0  0  0  0  0  0  0  0  0  0  0
   -7.7942    4.5000    0.0000 C   0  0  0  0  0  0  0  0  0  0  0  0
   -6.4952    6.7500    0.0000 C   0  0  0  0  0  0  0  0  0  0  0  0
    1.2990    5.2500    0.0000 C   0  0  0  0  0  0  0  0  0  0  0  0
    0.0000    4.5000    0.0000 C   0  0  0  0  0  0  0  0  0  0  0  0
   -2.5981    3.0000    0.0000 C   0  0  0  0  0  0  0  0  0  0  0  0
   -5.1962    4.5000    0.0000 C   0  0  0  0  0  0  0  0  0  0  0  0
   -1.2990    2.2500    0.0000 C   0  0  0  0  0  0  0  0  0  0  0  0
   -6.4952    5.2500    0.0000 C   0  0  0  0  0  0  0  0  0  0  0  0
   -2.5981    4.5000    0.0000 C   0  0  0  0  0  0  0  0  0  0  0  0
   -1.2990    5.2500    0.0000 O   0  0  0  0  0  0  0  0  0  0  0  0
   -3.8971    5.2500    0.0000 O   0  0  0  0  0  0  0  0  0  0  0  0
  6  1  1  0
  7  6  1  0
 10  2  1  0
 10  3  1  0
 10  8  1  0
 11  4  1  0
 11  5  1  0
 11  9  1  0
 12  8  1  0
 13  7  1  0
 13 12  1  0
 14  9  1  0
 14 12  1  0
M  END
>  <NAME>  (1987) 
ISOVALERALDEHYDE ISOBUTYL PROPYL ACETAL

>  <SYNONYMS>  (1987) 


>  <SPECTRUM TYPE>  (1987) 
MS1

>  <INSTRUMENT TYPE>  (1987) 
EI-B

>  <INSTRUMENT>  (1987) 
HITACHI M-80B

>  <ION MODE>  (1987) 
P

>  <INCHIKEY>  (1987) 
IRROWXSGAWXJDE-UHFFFAOYSA-N

>  <FORMULA>  (1987) 
C12H26O2

>  <EXACT MASS>  (1987) 
202.193280072

>  <MW>  (1987) 
202

>  <ID>  (1987) 
JP009262

>  <CONTRIBUTOR>  (1987) 
University of Tokyo Team, {Faculty of Engineering, University of Tokyo

>  <COMMENT>  (1987) 
SMILES=CCCOC(OCC(C)C)CC(C)C
InChI=InChI=1S/C12H26O2/c1-6-7-13-12(8-10(2)3)14-9-11(4)5/h10-12H,6-9H2,1-5H3
computed SMILES=O(CCC)C(OCC(C)C)CC(C)C
accession=JP009262
date=2016.01.19 (Created 2008.10.21, modified 2011.05.06)
author=SODA AROMATIC CO., LTD.
license=CC BY-NC-SA
exact mass=202.19328
ionization energy=70 eV
ion type=[M]+*
computed spectral entropy=2.4668593630159097
computed normalized entropy=0.711785153918712
SPLASH=splash10-052f-9000000000-37f23b798bf79b78b1a5
submitter=submitter = University of Tokyo Team (Faculty of Engineering, University of Tokyo)
MoNA Rating=3.75

>  <NUM PEAKS>  (1987) 
32

>  <MASS SPECTRAL PEAKS>  (1987) 
27 15.3
28 1.2
29 22.4
31 0.46
39 8.1
40 1.2
41 40
42 0.47
43 75.3
44 4.8
45 12.4
47 0.56
55 4.1
56 4
57 99.99
58 0.5
60 1.1
69 34.7
70 1.7
71 0.56
85 2.2
87 25.5
88 1.3
89 3.28
90 1.3
103 1.1
113 1
129 3.34
130 2.3
143 10
145 15.5
146 1.1

$$$$

     RDKit          2D

 13 12  0  0  0  0  0  0  0  0999 V2000
    2.2733    5.0625    0.0000 C   0  0  0  0  0  0  0  0  0  0  0  0
   -8.1190    5.0625    0.0000 C   0  0  0  0  0  0  0  0  0  0  0  0
   -4.2219    1.3125    0.0000 C   0  0  0  0  0  0  0  0  0  0  0  0
   -5.5209    3.5625    0.0000 C   0  0  0  0  0  0  0  0  0  0  0  0
    0.9743    5.8125    0.0000 C   0  0  0  0  0  0  0  0  0  0  0  0
   -6.8200    5.8125    0.0000 C   0  0  0  0  0  0  0  0  0  0  0  0
   -0.3248    5.0625    0.0000 C   0  0  0  0  0  0  0  0  0  0  0  0
   -5.5209    5.0625    0.0000 C   0  0  0  0  0  0  0  0  0  0  0  0
   -2.9228    3.5625    0.0000 C   0  0  0  0  0  0  0  0  0  0  0  0
   -4.2219    2.8125    0.0000 C   0  0  0  0  0  0  0  0  0  0  0  0
   -2.9228    5.0625    0.0000 C   0  0  0  0  0  0  0  0  0  0  0  0
   -1.6238    5.8125    0.0000 O   0  0  0  0  0  0  0  0  0  0  0  0
   -4.2219    5.8125    0.0000 O   0  0  0  0  0  0  0  0  0  0  0  0
  5  1  1  0
  6  2  1  0
  7  5  1  0
  8  6  1  0
 10  3  1  0
 10  4  1  0
 10  9  1  0
 11  9  1  0
 12  7  1  0
 12 11  1  0
 13  8  1  0
 13 11  1  0
M  END
>  <NAME>  (1988) 
ISOVALERALDEHYDE DIPROPYL ACETAL

>  <SYNONYMS>  (1988) 


>  <SPECTRUM TYPE>  (1988) 
MS1

>  <INSTRUMENT TYPE>  (1988) 
EI-B

>  <INSTRUMENT>  (1988) 
HITACHI M-80B

>  <ION MODE>  (1988) 
P

>  <INCHIKEY>  (1988) 
SALIHKDQCDUOSH-UHFFFAOYSA-N

>  <FORMULA>  (1988) 
C11H24O2

>  <EXACT MASS>  (1988) 
188.177630008

>  <MW>  (1988) 
188

>  <ID>  (1988) 
JP009261

>  <CONTRIBUTOR>  (1988) 
University of Tokyo Team, {Faculty of Engineering, University of Tokyo

>  <COMMENT>  (1988) 
SMILES=CCCOC(OCCC)CC(C)C
InChI=InChI=1S/C11H24O2/c1-5-7-12-11(9-10(3)4)13-8-6-2/h10-11H,5-9H2,1-4H3
computed SMILES=O(CCC)C(OCCC)CC(C)C
accession=JP009261
date=2016.01.19 (Created 2008.10.21, modified 2011.05.06)
author=SODA AROMATIC CO., LTD.
license=CC BY-NC-SA
exact mass=188.17763
ionization energy=70 eV
ion type=[M]+*
computed spectral entropy=2.415566498358761
computed normalized entropy=0.7600772760020542
SPLASH=splash10-0006-9100000000-a64ff374696dad41b532
submitter=submitter = University of Tokyo Team (Faculty of Engineering, University of Tokyo)
MoNA Rating=3.75

>  <NUM PEAKS>  (1988) 
24

>  <MASS SPECTRAL PEAKS>  (1988) 
27 16.8
29 8.5
31 4.9
39 0.63
41 27.3
42 4.4
43 99.99
44 0.61
45 12.9
47 8.3
57 4
59 0.11
69 32.6
70 1.6
71 5.9
85 0.13
87 21.2
89 33.9
90 1.4
113 0.16
129 31.3
130 2.3
131 25.8
132 1.8

$$$$

     RDKit          2D

 15 14  0  0  0  0  0  0  0  0999 V2000
    2.9228    5.4375    0.0000 C   0  0  0  0  0  0  0  0  0  0  0  0
   -8.7685    6.1875    0.0000 C   0  0  0  0  0  0  0  0  0  0  0  0
   -7.4695    3.9375    0.0000 C   0  0  0  0  0  0  0  0  0  0  0  0
   -0.9743    1.6875    0.0000 C   0  0  0  0  0  0  0  0  0  0  0  0
    0.3248    3.9375    0.0000 C   0  0  0  0  0  0  0  0  0  0  0  0
    1.6238    6.1875    0.0000 C   0  0  0  0  0  0  0  0  0  0  0  0
   -6.1704    6.1875    0.0000 C   0  0  0  0  0  0  0  0  0  0  0  0
    0.3248    5.4375    0.0000 C   0  0  0  0  0  0  0  0  0  0  0  0
   -4.8714    5.4375    0.0000 C   0  0  0  0  0  0  0  0  0  0  0  0
   -2.2733    3.9375    0.0000 C   0  0  0  0  0  0  0  0  0  0  0  0
   -7.4695    5.4375    0.0000 C   0  0  0  0  0  0  0  0  0  0  0  0
   -0.9743    3.1875    0.0000 C   0  0  0  0  0  0  0  0  0  0  0  0
   -2.2733    5.4375    0.0000 C   0  0  0  0  0  0  0  0  0  0  0  0
   -0.9743    6.1875    0.0000 O   0  0  0  0  0  0  0  0  0  0  0  0
   -3.5724    6.1875    0.0000 O   0  0  0  0  0  0  0  0  0  0  0  0
  6  1  1  0
  8  6  1  0
  9  7  1  0
 11  2  1  0
 11  3  1  0
 11  7  1  0
 12  4  1  0
 12  5  1  0
 12 10  1  0
 13 10  1  0
 14  8  1  0
 14 13  1  0
 15  9  1  0
 15 13  1  0
M  END
>  <NAME>  (1989) 
ISOVALERALDEHYDE ISOPENTYL PROPYL ACETAL

>  <SYNONYMS>  (1989) 
ISOVALERALDEHYDE ISOAMYL PROPYL ACETAL

>  <SPECTRUM TYPE>  (1989) 
MS1

>  <INSTRUMENT TYPE>  (1989) 
EI-B

>  <INSTRUMENT>  (1989) 
HITACHI M-80B

>  <ION MODE>  (1989) 
P

>  <INCHIKEY>  (1989) 
NAMDZBPRKJYRCO-UHFFFAOYSA-N

>  <FORMULA>  (1989) 
C13H28O2

>  <EXACT MASS>  (1989) 
216.208930136

>  <MW>  (1989) 
216

>  <ID>  (1989) 
JP009260

>  <CONTRIBUTOR>  (1989) 
University of Tokyo Team, {Faculty of Engineering, University of Tokyo

>  <COMMENT>  (1989) 
SMILES=CCCOC(OCCC(C)C)CC(C)C
InChI=InChI=1S/C13H28O2/c1-6-8-14-13(10-12(4)5)15-9-7-11(2)3/h11-13H,6-10H2,1-5H3
computed SMILES=O(CCC)C(OCCC(C)C)CC(C)C
accession=JP009260
date=2016.01.19 (Created 2008.10.21, modified 2011.05.06)
author=SODA AROMATIC CO., LTD.
license=CC BY-NC-SA
exact mass=216.20893
ionization energy=70 eV
ion type=[M]+*
computed spectral entropy=2.51837270580144
computed normalized entropy=0.7641072080289462
SPLASH=splash10-00fr-9200000000-667d1359e11ecd88b9b1
submitter=submitter = University of Tokyo Team (Faculty of Engineering, University of Tokyo)
MoNA Rating=3.75

>  <NUM PEAKS>  (1989) 
27

>  <MASS SPECTRAL PEAKS>  (1989) 
27 13.3
28 2
29 12.4
31 0.4
39 6.2
41 27.4
42 5.6
43 9.43
44 5.7
45 9.1
47 1.7
53 0.11
55 9.3
56 1.5
57 4.2
69 2.19
70 3.8
71 99.99
72 5.4
85 0.12
87 14.9
89 10
129 25.8
130 0.2
157 9.6
159 17.5
160 1.5

$$$$

     RDKit          2D

 15 14  0  0  0  0  0  0  0  0999 V2000
   -0.9743    0.1875    0.0000 C   0  0  0  0  0  0  0  0  0  0  0  0
    0.3248    2.4375    0.0000 C   0  0  0  0  0  0  0  0  0  0  0  0
    2.9228    3.9375    0.0000 C   0  0  0  0  0  0  0  0  0  0  0  0
    1.6238    6.1875    0.0000 C   0  0  0  0  0  0  0  0  0  0  0  0
   -7.4695    3.9375    0.0000 C   0  0  0  0  0  0  0  0  0  0  0  0
   -6.1704    6.1875    0.0000 C   0  0  0  0  0  0  0  0  0  0  0  0
   -2.2733    2.4375    0.0000 C   0  0  0  0  0  0  0  0  0  0  0  0
    0.3248    3.9375    0.0000 C   0  0  0  0  0  0  0  0  0  0  0  0
   -4.8714    3.9375    0.0000 C   0  0  0  0  0  0  0  0  0  0  0  0
   -0.9743    1.6875    0.0000 C   0  0  0  0  0  0  0  0  0  0  0  0
    1.6238    4.6875    0.0000 C   0  0  0  0  0  0  0  0  0  0  0  0
   -6.1704    4.6875    0.0000 C   0  0  0  0  0  0  0  0  0  0  0  0
   -2.2733    3.9375    0.0000 C   0  0  0  0  0  0  0  0  0  0  0  0
   -0.9743    4.6875    0.0000 O   0  0  0  0  0  0  0  0  0  0  0  0
   -3.5724    4.6875    0.0000 O   0  0  0  0  0  0  0  0  0  0  0  0
 10  1  1  0
 10  2  1  0
 10  7  1  0
 11  3  1  0
 11  4  1  0
 11  8  1  0
 12  5  1  0
 12  6  1  0
 12  9  1  0
 13  7  1  0
 14  8  1  0
 14 13  1  0
 15  9  1  0
 15 13  1  0
M  END
>  <NAME>  (1990) 
ISOVALERALDEHYDE DIISOBUTYL ACETAL

>  <SYNONYMS>  (1990) 


>  <SPECTRUM TYPE>  (1990) 
MS1

>  <INSTRUMENT TYPE>  (1990) 
EI-B

>  <INSTRUMENT>  (1990) 
HITACHI M-80B

>  <ION MODE>  (1990) 
P

>  <INCHIKEY>  (1990) 
XQJQKXSIFKNEPF-UHFFFAOYSA-N

>  <FORMULA>  (1990) 
C13H28O2

>  <EXACT MASS>  (1990) 
216.208930136

>  <MW>  (1990) 
216

>  <ID>  (1990) 
JP009259

>  <CONTRIBUTOR>  (1990) 
University of Tokyo Team, {Faculty of Engineering, University of Tokyo

>  <COMMENT>  (1990) 
SMILES=CC(C)COC(OCC(C)C)CC(C)C
InChI=InChI=1S/C13H28O2/c1-10(2)7-13(14-8-11(3)4)15-9-12(5)6/h10-13H,7-9H2,1-6H3
computed SMILES=O(CC(C)C)C(OCC(C)C)CC(C)C
accession=JP009259
date=2016.01.19 (Created 2008.10.21, modified 2011.05.06)
author=SODA AROMATIC CO., LTD.
license=CC BY-NC-SA
exact mass=216.20893
ionization energy=70 eV
ion type=[M]+*
computed spectral entropy=1.9801843037211102
computed normalized entropy=0.6610017594702867
SPLASH=splash10-0a4l-9100000000-f115376f2518d43c0683
submitter=submitter = University of Tokyo Team (Faculty of Engineering, University of Tokyo)
MoNA Rating=3.75

>  <NUM PEAKS>  (1990) 
20

>  <MASS SPECTRAL PEAKS>  (1990) 
27 3.7
29 13.9
31 1.3
39 0.31
41 20.3
42 1.8
43 10.3
45 0.32
55 2.3
56 3
57 99.99
58 0.49
69 12.5
71 2.3
85 2.1
87 1.26
103 8.3
143 20.4
144 1.8
159 6.9

$$$$

     RDKit          2D

 16 15  0  0  0  0  0  0  0  0999 V2000
    3.2476    4.8750    0.0000 C   0  0  0  0  0  0  0  0  0  0  0  0
    1.9486    7.1250    0.0000 C   0  0  0  0  0  0  0  0  0  0  0  0
   -4.5466    9.3750    0.0000 C   0  0  0  0  0  0  0  0  0  0  0  0
   -5.8457    7.1250    0.0000 C   0  0  0  0  0  0  0  0  0  0  0  0
   -8.4437    5.6250    0.0000 C   0  0  0  0  0  0  0  0  0  0  0  0
   -7.1447    3.3750    0.0000 C   0  0  0  0  0  0  0  0  0  0  0  0
    0.6495    4.8750    0.0000 C   0  0  0  0  0  0  0  0  0  0  0  0
   -0.6495    5.6250    0.0000 C   0  0  0  0  0  0  0  0  0  0  0  0
   -3.2476    7.1250    0.0000 C   0  0  0  0  0  0  0  0  0  0  0  0
   -5.8457    5.6250    0.0000 C   0  0  0  0  0  0  0  0  0  0  0  0
    1.9486    5.6250    0.0000 C   0  0  0  0  0  0  0  0  0  0  0  0
   -4.5466    7.8750    0.0000 C   0  0  0  0  0  0  0  0  0  0  0  0
   -7.1447    4.8750    0.0000 C   0  0  0  0  0  0  0  0  0  0  0  0
   -3.2476    5.6250    0.0000 C   0  0  0  0  0  0  0  0  0  0  0  0
   -1.9486    4.8750    0.0000 O   0  0  0  0  0  0  0  0  0  0  0  0
   -4.5466    4.8750    0.0000 O   0  0  0  0  0  0  0  0  0  0  0  0
  8  7  1  0
 11  1  1  0
 11  2  1  0
 11  7  1  0
 12  3  1  0
 12  4  1  0
 12  9  1  0
 13  5  1  0
 13  6  1  0
 13 10  1  0
 14  9  1  0
 15  8  1  0
 15 14  1  0
 16 10  1  0
 16 14  1  0
M  END
>  <NAME>  (1991) 
ISOVALERALDEHYDE ISOBUTYL ISOPENTYL ACETAL

>  <SYNONYMS>  (1991) 
ISOVALERALDEHYDE ISOAMYL ISOBUTYL ACETAL

>  <SPECTRUM TYPE>  (1991) 
MS1

>  <INSTRUMENT TYPE>  (1991) 
EI-B

>  <INSTRUMENT>  (1991) 
HITACHI M-80B

>  <ION MODE>  (1991) 
P

>  <INCHIKEY>  (1991) 
HSBMJOHFCSICMS-UHFFFAOYSA-N

>  <FORMULA>  (1991) 
C14H30O2

>  <EXACT MASS>  (1991) 
230.2245802

>  <MW>  (1991) 
230

>  <ID>  (1991) 
JP009258

>  <CONTRIBUTOR>  (1991) 
University of Tokyo Team, {Faculty of Engineering, University of Tokyo

>  <COMMENT>  (1991) 
SMILES=CC(C)CCOC(OCC(C)C)CC(C)C
InChI=InChI=1S/C14H30O2/c1-11(2)7-8-15-14(9-12(3)4)16-10-13(5)6/h11-14H,7-10H2,1-6H3
computed SMILES=O(CCC(C)C)C(OCC(C)C)CC(C)C
accession=JP009258
date=2016.01.19 (Created 2008.10.21, modified 2011.05.06)
author=SODA AROMATIC CO., LTD.
license=CC BY-NC-SA
exact mass=230.22458
ionization energy=70 eV
ion type=[M]+*
computed spectral entropy=2.4394551101710946
computed normalized entropy=0.71723420796559
SPLASH=splash10-0596-9100000000-bcedb450a7c51e4eaa09
submitter=submitter = University of Tokyo Team (Faculty of Engineering, University of Tokyo)
MoNA Rating=3.75

>  <NUM PEAKS>  (1991) 
30

>  <MASS SPECTRAL PEAKS>  (1991) 
27 10.5
28 1.1
29 21.3
31 0.23
39 6.9
40 1.2
41 34.9
42 0.47
43 65.6
44 3.6
45 5.4
53 0.12
55 10.7
56 5.3
57 87.9
58 0.42
69 15.3
70 2.8
71 99.99
72 0.62
85 2.6
87 12.6
103 1.2
117 0.94
143 15
144 1.5
157 19.7
158 0.19
173 12.2
174 1.2

$$$$

     RDKit          2D

 21 22  0  0  0  0  0  0  0  0999 V2000
    1.2988    9.3204    0.0000 C   0  0  0  0  0  0  0  0  0  0  0  0
    2.5978    7.0704    0.0000 C   0  0  0  0  0  0  0  0  0  0  0  0
   -5.1964    1.0704    0.0000 C   0  0  0  0  0  0  0  0  0  0  0  0
    6.4949    3.3204    0.0000 C   0  0  0  0  0  0  0  0  0  0  0  0
   -3.8969    0.3196    0.0000 C   0  0  0  0  0  0  0  0  0  0  0  0
   -5.1969    2.5712    0.0000 C   0  0  0  0  0  0  0  0  0  0  0  0
    6.4954    4.8212    0.0000 C   0  0  0  0  0  0  0  0  0  0  0  0
    5.1954    2.5696    0.0000 C   0  0  0  0  0  0  0  0  0  0  0  0
   -2.5978    1.0696    0.0000 C   0  0  0  0  0  0  0  0  0  0  0  0
   -3.8978    3.3212    0.0000 C   0  0  0  0  0  0  0  0  0  0  0  0
    5.1964    5.5712    0.0000 C   0  0  0  0  0  0  0  0  0  0  0  0
    3.8964    3.3196    0.0000 C   0  0  0  0  0  0  0  0  0  0  0  0
   -0.0002    7.0704    0.0000 C   0  0  0  0  0  0  0  0  0  0  0  0
   -1.2993    3.3204    0.0000 C   0  0  0  0  0  0  0  0  0  0  0  0
    2.5978    5.5704    0.0000 C   0  0  0  0  0  0  0  0  0  0  0  0
    1.2988    7.8204    0.0000 C   0  0  0  0  0  0  0  0  0  0  0  0
   -2.5983    2.5704    0.0000 C   0  0  0  0  0  0  0  0  0  0  0  0
    3.8969    4.8204    0.0000 C   0  0  0  0  0  0  0  0  0  0  0  0
   -0.0002    5.5704    0.0000 C   0  0  0  0  0  0  0  0  0  0  0  0
   -1.2993    4.8204    0.0000 O   0  0  0  0  0  0  0  0  0  0  0  0
    1.2988    4.8204    0.0000 O   0  0  0  0  0  0  0  0  0  0  0  0
  5  3  2  0
  6  3  1  0
  7  4  2  0
  8  4  1  0
  9  5  1  0
 10  6  2  0
 11  7  1  0
 12  8  2  0
 16  1  1  0
 16  2  1  0
 16 13  1  0
 17  9  2  0
 17 10  1  0
 17 14  1  0
 18 11  2  0
 18 12  1  0
 18 15  1  0
 19 13  1  0
 20 14  1  0
 20 19  1  0
 21 15  1  0
 21 19  1  0
M  END
>  <NAME>  (1992) 
ISOVALERALDEHYDE DIBENZYL ACETAL

>  <SYNONYMS>  (1992) 


>  <SPECTRUM TYPE>  (1992) 
MS1

>  <INSTRUMENT TYPE>  (1992) 
EI-B

>  <INSTRUMENT>  (1992) 
HITACHI M-80B

>  <ION MODE>  (1992) 
P

>  <INCHIKEY>  (1992) 
JEWZPHLVMXOYOT-UHFFFAOYSA-N

>  <FORMULA>  (1992) 
C19H24O2

>  <EXACT MASS>  (1992) 
284.177630008

>  <MW>  (1992) 
284

>  <ID>  (1992) 
JP009257

>  <CONTRIBUTOR>  (1992) 
University of Tokyo Team, {Faculty of Engineering, University of Tokyo

>  <COMMENT>  (1992) 
SMILES=CC(C)CC(OCc(c2)cccc2)OCc(c1)cccc1
InChI=InChI=1S/C19H24O2/c1-16(2)13-19(20-14-17-9-5-3-6-10-17)21-15-18-11-7-4-8-12-18/h3-12,16,19H,13-15H2,1-2H3
computed SMILES=O(CC=1C=CC=CC1)C(OCC=2C=CC=CC2)CC(C)C
accession=JP009257
date=2016.01.19 (Created 2008.10.21, modified 2011.05.06)
author=SODA AROMATIC CO., LTD.
license=CC BY-NC-SA
exact mass=284.17763
ionization energy=70 eV
ion type=[M]+*
computed spectral entropy=1.4339251244880673
computed normalized entropy=0.5061126538516033
SPLASH=splash10-0006-9000000000-2b831c0bbb5f6ed97f18
submitter=submitter = University of Tokyo Team (Faculty of Engineering, University of Tokyo)
MoNA Rating=3.75

>  <NUM PEAKS>  (1992) 
17

>  <MASS SPECTRAL PEAKS>  (1992) 
29 1.8
39 2.4
41 2.6
51 0.19
65 7.5
77 4.3
79 2.2
89 0.13
90 2.1
91 99.99
92 21.9
93 0.11
105 1.1
107 6.9
108 1.2
133 0.12
181 4.3

$$$$

     RDKit          2D

 19 19  0  0  0  0  0  0  0  0999 V2000
    4.8721    3.8829    0.0000 C   0  0  0  0  0  0  0  0  0  0  0  0
    3.5731    1.6329    0.0000 C   0  0  0  0  0  0  0  0  0  0  0  0
   -0.3240   -0.6171    0.0000 C   0  0  0  0  0  0  0  0  0  0  0  0
    0.9750    1.6329    0.0000 C   0  0  0  0  0  0  0  0  0  0  0  0
   -8.1183    5.3829    0.0000 C   0  0  0  0  0  0  0  0  0  0  0  0
   -8.1187    3.8821    0.0000 C   0  0  0  0  0  0  0  0  0  0  0  0
   -6.8187    6.1337    0.0000 C   0  0  0  0  0  0  0  0  0  0  0  0
   -6.8197    3.1321    0.0000 C   0  0  0  0  0  0  0  0  0  0  0  0
   -5.5197    5.3837    0.0000 C   0  0  0  0  0  0  0  0  0  0  0  0
    2.2740    3.8829    0.0000 C   0  0  0  0  0  0  0  0  0  0  0  0
    0.9750    3.1329    0.0000 C   0  0  0  0  0  0  0  0  0  0  0  0
   -1.6231    1.6329    0.0000 C   0  0  0  0  0  0  0  0  0  0  0  0
   -4.2212    3.1329    0.0000 C   0  0  0  0  0  0  0  0  0  0  0  0
    3.5731    3.1329    0.0000 C   0  0  0  0  0  0  0  0  0  0  0  0
   -0.3240    0.8829    0.0000 C   0  0  0  0  0  0  0  0  0  0  0  0
   -5.5202    3.8829    0.0000 C   0  0  0  0  0  0  0  0  0  0  0  0
   -1.6231    3.1329    0.0000 C   0  0  0  0  0  0  0  0  0  0  0  0
   -0.3240    3.8829    0.0000 O   0  0  0  0  0  0  0  0  0  0  0  0
   -2.9221    3.8829    0.0000 O   0  0  0  0  0  0  0  0  0  0  0  0
  6  5  2  0
  7  5  1  0
  8  6  1  0
  9  7  2  0
 11 10  1  0
 14  1  1  0
 14  2  1  0
 14 10  1  0
 15  3  1  0
 15  4  1  0
 15 12  1  0
 16  8  2  0
 16  9  1  0
 16 13  1  0
 17 12  1  0
 18 11  1  0
 18 17  1  0
 19 13  1  0
 19 17  1  0
M  END
>  <NAME>  (1993) 
ISOVALERALDEHYDE BENZYL 3-METHYLBUTYL ACETAL

>  <SYNONYMS>  (1993) 
ISOPENTANAL ISOAMYL BENZYL ACETAL

>  <SPECTRUM TYPE>  (1993) 
MS1

>  <INSTRUMENT TYPE>  (1993) 
EI-B

>  <INSTRUMENT>  (1993) 
HITACHI M-80B

>  <ION MODE>  (1993) 
P

>  <INCHIKEY>  (1993) 
GLRXEEABVKURPO-UHFFFAOYSA-N

>  <FORMULA>  (1993) 
C17H28O2

>  <EXACT MASS>  (1993) 
264.208930136

>  <MW>  (1993) 
264

>  <ID>  (1993) 
JP009256

>  <CONTRIBUTOR>  (1993) 
University of Tokyo Team, {Faculty of Engineering, University of Tokyo

>  <COMMENT>  (1993) 
SMILES=CC(C)CCOC(CC(C)C)OCc(c1)cccc1
InChI=InChI=1S/C17H28O2/c1-14(2)10-11-18-17(12-15(3)4)19-13-16-8-6-5-7-9-16/h5-9,14-15,17H,10-13H2,1-4H3
computed SMILES=O(CC=1C=CC=CC1)C(OCCC(C)C)CC(C)C
accession=JP009256
author=SODA AROMATIC CO., LTD.
date=2016.01.19 (Created 2008.10.21, modified 2011.05.06)
license=CC BY-NC-SA
exact mass=264.20893
ionization energy=70 eV
ion type=[M]+*
computed spectral entropy=1.4941145401687295
computed normalized entropy=0.49874768628646005
SPLASH=splash10-0006-9000000000-285c836e8513204494b4
submitter=submitter = University of Tokyo Team (Faculty of Engineering, University of Tokyo)
MoNA Rating=3.75

>  <NUM PEAKS>  (1993) 
20

>  <MASS SPECTRAL PEAKS>  (1993) 
27 2.1
29 4.1
39 2.2
41 0.73
42 1.1
43 13.4
55 1.7
57 0.13
65 4.8
69 1.4
71 11.9
77 0.14
79 1.1
90 1.3
91 99.99
92 1.04
133 1
176 1
177 1.3
207 4.4

$$$$

     RDKit          2D

 15 15  0  0  0  0  0  0  0  0999 V2000
  -10.4068   -1.5750    0.0000 C   0  0  0  0  0  0  0  0  0  0  0  0
    2.6027    1.4936    0.0000 C   0  0  0  0  0  0  0  0  0  0  0  0
   -9.1140   -0.8143    0.0000 C   0  0  0  0  0  0  0  0  0  0  0  0
   -7.8088   -1.5536    0.0000 C   0  0  0  0  0  0  0  0  0  0  0  0
   -6.5160   -0.7929    0.0000 C   0  0  0  0  0  0  0  0  0  0  0  0
   -5.2108   -1.5321    0.0000 C   0  0  0  0  0  0  0  0  0  0  0  0
    1.3000   -0.7500    0.0000 C   0  0  0  0  0  0  0  0  0  0  0  0
    0.0300    1.5000    0.0000 C   0  0  0  0  0  0  0  0  0  0  0  0
    0.0300   -1.5000    0.0000 C   0  0  0  0  0  0  0  0  0  0  0  0
   -1.3200    0.7500    0.0000 C   0  0  0  0  0  0  0  0  0  0  0  0
    1.3000    0.7500    0.0000 C   0  0  0  0  0  0  0  0  0  0  0  0
   -1.3200   -0.7500    0.0000 C   0  0  0  0  0  0  0  0  0  0  0  0
   -3.9180   -0.7714    0.0000 C   0  0  0  0  0  0  0  0  0  0  0  0
   -3.9304    0.7285    0.0000 O   0  0  0  0  0  0  0  0  0  0  0  0
   -2.6128   -1.5107    0.0000 O   0  0  0  0  0  0  0  0  0  0  0  0
  3  1  1  0
  4  3  1  0
  5  4  1  0
  5  6  2  0
  9  7  2  0
 10  8  1  0
 11  2  1  0
 11  7  1  0
 11  8  2  0
 12  9  1  0
 12 10  2  0
 13  6  1  0
 14 13  2  0
 15 12  1  0
 15 13  1  0
M  END
>  <NAME>  (1994) 
4-METHYLPHENYL TRANS-2-HEXENOATE

>  <SYNONYMS>  (1994) 
PARA-CRESYL TRANS-2-HEXENOATE

>  <SPECTRUM TYPE>  (1994) 
MS1

>  <INSTRUMENT TYPE>  (1994) 
EI-B

>  <INSTRUMENT>  (1994) 
HITACHI M-80B

>  <ION MODE>  (1994) 
P

>  <INCHIKEY>  (1994) 
ZSNJETLPYLDVIM-AATRIKPKSA-N

>  <FORMULA>  (1994) 
C13H16O2

>  <EXACT MASS>  (1994) 
204.115029752

>  <MW>  (1994) 
204

>  <ID>  (1994) 
JP009255

>  <CONTRIBUTOR>  (1994) 
University of Tokyo Team, {Faculty of Engineering, University of Tokyo

>  <COMMENT>  (1994) 
SMILES=CCCC=CC(=O)Oc(c1)ccc(C)c1
InChI=InChI=1S/C13H16O2/c1-3-4-5-6-13(14)15-12-9-7-11(2)8-10-12/h5-10H,3-4H2,1-2H3/b6-5+
computed SMILES=O=C(OC1=CC=C(C=C1)C)C=CCCC
accession=JP009255
date=2016.01.19 (Created 2008.10.21, modified 2011.05.06)
author=SODA AROMATIC CO., LTD.
license=CC BY-NC-SA
exact mass=204.11503
ionization energy=70 eV
ion type=[M]+*
computed spectral entropy=2.2902453500873197
computed normalized entropy=0.6441690969428984
SPLASH=splash10-052b-9000000000-295705077cfe074ed744
submitter=submitter = University of Tokyo Team (Faculty of Engineering, University of Tokyo)
MoNA Rating=3.75

>  <NUM PEAKS>  (1994) 
35

>  <MASS SPECTRAL PEAKS>  (1994) 
26 1.4
27 12.9
29 3.5
38 0.13
39 13.6
40 2.4
41 22.8
42 0.25
43 1
50 1.8
51 4.6
52 0.32
53 6.5
54 1.7
55 94.9
56 0.25
63 1.4
65 2.1
67 2
68 0.74
69 5.5
77 9.5
78 3.1
79 0.4
80 1
81 5.8
91 2.1
96 2.55
97 99.99
98 5.5
107 8.2
108 1.2
109 1.2
204 7.4
205 1

$$$$

     RDKit          2D

 26 25  0  0  0  0  0  0  0  0999 V2000
    7.7942   13.5000    0.0000 C   0  0  0  0  0  0  0  0  0  0  0  0
  -23.3827   13.5000    0.0000 C   0  0  0  0  0  0  0  0  0  0  0  0
    6.4952   14.2500    0.0000 C   0  0  0  0  0  0  0  0  0  0  0  0
    5.1962   13.5000    0.0000 C   0  0  0  0  0  0  0  0  0  0  0  0
    3.8971   14.2500    0.0000 C   0  0  0  0  0  0  0  0  0  0  0  0
    2.5981   13.5000    0.0000 C   0  0  0  0  0  0  0  0  0  0  0  0
    1.2990   14.2500    0.0000 C   0  0  0  0  0  0  0  0  0  0  0  0
    0.0000   13.5000    0.0000 C   0  0  0  0  0  0  0  0  0  0  0  0
   -1.2990   14.2500    0.0000 C   0  0  0  0  0  0  0  0  0  0  0  0
   -2.5981   13.5000    0.0000 C   0  0  0  0  0  0  0  0  0  0  0  0
   -3.8971   14.2500    0.0000 C   0  0  0  0  0  0  0  0  0  0  0  0
   -5.1962   13.5000    0.0000 C   0  0  0  0  0  0  0  0  0  0  0  0
   -6.4952   14.2500    0.0000 C   0  0  0  0  0  0  0  0  0  0  0  0
   -7.7942   13.5000    0.0000 C   0  0  0  0  0  0  0  0  0  0  0  0
   -9.0933   14.2500    0.0000 C   0  0  0  0  0  0  0  0  0  0  0  0
  -10.3923   13.5000    0.0000 C   0  0  0  0  0  0  0  0  0  0  0  0
  -11.6913   14.2500    0.0000 C   0  0  0  0  0  0  0  0  0  0  0  0
  -12.9904   13.5000    0.0000 C   0  0  0  0  0  0  0  0  0  0  0  0
  -14.2894   14.2500    0.0000 C   0  0  0  0  0  0  0  0  0  0  0  0
  -15.5885   13.5000    0.0000 C   0  0  0  0  0  0  0  0  0  0  0  0
  -16.8875   14.2500    0.0000 C   0  0  0  0  0  0  0  0  0  0  0  0
  -18.1865   13.5000    0.0000 C   0  0  0  0  0  0  0  0  0  0  0  0
  -19.4856   14.2500    0.0000 C   0  0  0  0  0  0  0  0  0  0  0  0
  -20.7846   13.5000    0.0000 C   0  0  0  0  0  0  0  0  0  0  0  0
  -20.7846   12.0000    0.0000 O   0  0  0  0  0  0  0  0  0  0  0  0
  -22.0836   14.2500    0.0000 O   0  0  0  0  0  0  0  0  0  0  0  0
  3  1  1  0
  4  3  1  0
  5  4  1  0
  6  5  1  0
  7  6  1  0
  8  7  1  0
  9  8  1  0
 10  9  1  0
 11 10  1  0
 12 11  1  0
 13 12  1  0
 14 13  1  0
 15 14  1  0
 16 15  1  0
 17 16  1  0
 18 17  1  0
 19 18  1  0
 20 19  1  0
 21 20  1  0
 22 21  1  0
 23 22  1  0
 24 23  1  0
 25 24  2  0
 26  2  1  0
 26 24  1  0
M  END
>  <NAME>  (1995) 
METHYL TRICOSANOATE

>  <SYNONYMS>  (1995) 


>  <SPECTRUM TYPE>  (1995) 
MS1

>  <INSTRUMENT TYPE>  (1995) 
EI-B

>  <INSTRUMENT>  (1995) 
HITACHI M-80B

>  <ION MODE>  (1995) 
P

>  <INCHIKEY>  (1995) 
VORKGRIRMPBCCZ-UHFFFAOYSA-N

>  <FORMULA>  (1995) 
C24H48O2

>  <EXACT MASS>  (1995) 
368.365430776

>  <MW>  (1995) 
368

>  <ID>  (1995) 
JP009254

>  <CONTRIBUTOR>  (1995) 
University of Tokyo Team, {Faculty of Engineering, University of Tokyo

>  <COMMENT>  (1995) 
SMILES=CCCCCCCCCCCCCCCCCCCCCCC(=O)OC
InChI=InChI=1S/C24H48O2/c1-3-4-5-6-7-8-9-10-11-12-13-14-15-16-17-18-19-20-21-22-23-24(25)26-2/h3-23H2,1-2H3
computed SMILES=O=C(OC)CCCCCCCCCCCCCCCCCCCCCC
accession=JP009254
date=2016.01.19 (Created 2008.10.21, modified 2011.05.06)
author=SODA AROMATIC CO., LTD.
license=CC BY-NC-SA
exact mass=368.36543
ionization energy=70 eV
ion type=[M]+*
computed spectral entropy=2.7788614228503143
computed normalized entropy=0.696633877301103
SPLASH=splash10-00du-9000000000-a6c375c666a6a1eea3fa
submitter=submitter = University of Tokyo Team (Faculty of Engineering, University of Tokyo)
MoNA Rating=3.75

>  <NUM PEAKS>  (1995) 
54

>  <MASS SPECTRAL PEAKS>  (1995) 
15 1.3
27 3.6
29 9.6
39 0.26
41 29.4
42 5.9
43 52.9
44 0.13
45 1.3
53 1.4
54 2.3
55 3.09
56 6.7
57 33.9
58 1.9
59 0.64
67 3.8
68 2.1
69 20.5
70 0.39
71 12.6
73 2.3
74 99.99
75 3.03
76 1.4
81 3.3
82 1.7
83 1.18
84 3.6
85 5.7
87 66.7
88 0.5
95 2.7
96 1.3
97 7.8
98 0.32
99 1.2
101 4.8
109 1.5
111 0.35
112 1
115 2.1
116 1.2
125 0.17
129 5.1
130 1.7
139 1.1
143 1.54
144 1.4
157 1.4
185 2
199 0.28
269 2
283 1.3

$$$$

     RDKit          2D

 25 24  0  0  0  0  0  0  0  0999 V2000
  -22.0836   13.5000    0.0000 C   0  0  0  0  0  0  0  0  0  0  0  0
    7.7942   12.7500    0.0000 C   0  0  0  0  0  0  0  0  0  0  0  0
  -20.7846   12.7500    0.0000 C   0  0  0  0  0  0  0  0  0  0  0  0
  -19.4856   13.5000    0.0000 C   0  0  0  0  0  0  0  0  0  0  0  0
  -18.1865   12.7500    0.0000 C   0  0  0  0  0  0  0  0  0  0  0  0
  -16.8875   13.5000    0.0000 C   0  0  0  0  0  0  0  0  0  0  0  0
  -15.5885   12.7500    0.0000 C   0  0  0  0  0  0  0  0  0  0  0  0
  -14.2894   13.5000    0.0000 C   0  0  0  0  0  0  0  0  0  0  0  0
  -12.9904   12.7500    0.0000 C   0  0  0  0  0  0  0  0  0  0  0  0
  -11.6913   13.5000    0.0000 C   0  0  0  0  0  0  0  0  0  0  0  0
  -10.3923   12.7500    0.0000 C   0  0  0  0  0  0  0  0  0  0  0  0
   -9.0933   13.5000    0.0000 C   0  0  0  0  0  0  0  0  0  0  0  0
   -7.7942   12.7500    0.0000 C   0  0  0  0  0  0  0  0  0  0  0  0
   -6.4952   13.5000    0.0000 C   0  0  0  0  0  0  0  0  0  0  0  0
   -5.1962   12.7500    0.0000 C   0  0  0  0  0  0  0  0  0  0  0  0
   -3.8971   13.5000    0.0000 C   0  0  0  0  0  0  0  0  0  0  0  0
   -2.5981   12.7500    0.0000 C   0  0  0  0  0  0  0  0  0  0  0  0
   -1.2990   13.5000    0.0000 C   0  0  0  0  0  0  0  0  0  0  0  0
    0.0000   12.7500    0.0000 C   0  0  0  0  0  0  0  0  0  0  0  0
    1.2990   13.5000    0.0000 C   0  0  0  0  0  0  0  0  0  0  0  0
    2.5981   12.7500    0.0000 C   0  0  0  0  0  0  0  0  0  0  0  0
    3.8971   13.5000    0.0000 C   0  0  0  0  0  0  0  0  0  0  0  0
    5.1962   12.7500    0.0000 C   0  0  0  0  0  0  0  0  0  0  0  0
    5.1962   11.2500    0.0000 O   0  0  0  0  0  0  0  0  0  0  0  0
    6.4952   13.5000    0.0000 O   0  0  0  0  0  0  0  0  0  0  0  0
  3  1  1  0
  4  3  1  0
  5  4  1  0
  6  5  1  0
  7  6  1  0
  8  7  1  0
  9  8  1  0
 10  9  1  0
 11 10  1  0
 12 11  1  0
 13 12  1  0
 14 13  1  0
 15 14  1  0
 16 15  1  0
 17 16  1  0
 18 17  1  0
 19 18  1  0
 20 19  1  0
 21 20  1  0
 22 21  1  0
 23 22  1  0
 24 23  2  0
 25  2  1  0
 25 23  1  0
M  END
>  <NAME>  (1996) 
METHYL DOCOSANOATE

>  <SYNONYMS>  (1996) 


>  <SPECTRUM TYPE>  (1996) 
MS1

>  <INSTRUMENT TYPE>  (1996) 
EI-B

>  <INSTRUMENT>  (1996) 
HITACHI M-80B

>  <ION MODE>  (1996) 
P

>  <INCHIKEY>  (1996) 
QSQLTHHMFHEFIY-UHFFFAOYSA-N

>  <FORMULA>  (1996) 
C23H46O2

>  <EXACT MASS>  (1996) 
354.349780712

>  <MW>  (1996) 
354

>  <ID>  (1996) 
JP009253

>  <CONTRIBUTOR>  (1996) 
University of Tokyo Team, {Faculty of Engineering, University of Tokyo

>  <COMMENT>  (1996) 
SMILES=CCCCCCCCCCCCCCCCCCCCCC(=O)OC
InChI=InChI=1S/C23H46O2/c1-3-4-5-6-7-8-9-10-11-12-13-14-15-16-17-18-19-20-21-22-23(24)25-2/h3-22H2,1-2H3
computed SMILES=O=C(OC)CCCCCCCCCCCCCCCCCCCCC
accession=JP009253
date=2016.01.19 (Created 2008.10.21, modified 2011.05.06)
author=SODA AROMATIC CO., LTD.
license=CC BY-NC-SA
exact mass=354.34978
ionization energy=70 eV
ion type=[M]+*
computed spectral entropy=2.9102945051894977
computed normalized entropy=0.7229913629380271
SPLASH=splash10-00du-9000000000-f3512c578e91df42b926
submitter=submitter = University of Tokyo Team (Faculty of Engineering, University of Tokyo)
MoNA Rating=3.75

>  <NUM PEAKS>  (1996) 
56

>  <MASS SPECTRAL PEAKS>  (1996) 
15 1.4
27 4.5
29 10.3
39 0.29
41 31.5
42 7
43 51.4
44 0.12
45 1.3
53 1.6
54 2.2
55 3.24
56 7.8
57 31.8
58 1.5
59 0.79
60 1.6
67 4.9
68 2.7
69 2.62
70 4.5
71 11.6
73 2.9
74 99.99
75 28.5
76 1.2
79 1.1
81 0.67
82 1.9
83 12.1
84 3.5
85 0.58
87 64.7
88 5.6
93 1.2
95 0.3
96 1.4
97 8.8
98 3.1
101 0.57
109 1.6
111 3
115 1.9
121 0.12
123 1
125 1.6
129 5.9
130 0.16
137 1
143 15
144 1.4
157 0.14
185 1.9
199 2.8
255 2.2
269 1.1

$$$$

     RDKit          2D

 24 23  0  0  0  0  0  0  0  0999 V2000
  -21.4341   12.3750    0.0000 C   0  0  0  0  0  0  0  0  0  0  0  0
    7.1447   12.3750    0.0000 C   0  0  0  0  0  0  0  0  0  0  0  0
  -20.1351   11.6250    0.0000 C   0  0  0  0  0  0  0  0  0  0  0  0
  -18.8361   12.3750    0.0000 C   0  0  0  0  0  0  0  0  0  0  0  0
  -17.5370   11.6250    0.0000 C   0  0  0  0  0  0  0  0  0  0  0  0
  -16.2380   12.3750    0.0000 C   0  0  0  0  0  0  0  0  0  0  0  0
  -14.9389   11.6250    0.0000 C   0  0  0  0  0  0  0  0  0  0  0  0
  -13.6399   12.3750    0.0000 C   0  0  0  0  0  0  0  0  0  0  0  0
  -12.3409   11.6250    0.0000 C   0  0  0  0  0  0  0  0  0  0  0  0
  -11.0418   12.3750    0.0000 C   0  0  0  0  0  0  0  0  0  0  0  0
   -9.7428   11.6250    0.0000 C   0  0  0  0  0  0  0  0  0  0  0  0
   -8.4437   12.3750    0.0000 C   0  0  0  0  0  0  0  0  0  0  0  0
   -7.1447   11.6250    0.0000 C   0  0  0  0  0  0  0  0  0  0  0  0
   -5.8457   12.3750    0.0000 C   0  0  0  0  0  0  0  0  0  0  0  0
   -4.5466   11.6250    0.0000 C   0  0  0  0  0  0  0  0  0  0  0  0
   -3.2476   12.3750    0.0000 C   0  0  0  0  0  0  0  0  0  0  0  0
   -1.9486   11.6250    0.0000 C   0  0  0  0  0  0  0  0  0  0  0  0
   -0.6495   12.3750    0.0000 C   0  0  0  0  0  0  0  0  0  0  0  0
    0.6495   11.6250    0.0000 C   0  0  0  0  0  0  0  0  0  0  0  0
    1.9486   12.3750    0.0000 C   0  0  0  0  0  0  0  0  0  0  0  0
    3.2476   11.6250    0.0000 C   0  0  0  0  0  0  0  0  0  0  0  0
    4.5466   12.3750    0.0000 C   0  0  0  0  0  0  0  0  0  0  0  0
    4.5466   13.8750    0.0000 O   0  0  0  0  0  0  0  0  0  0  0  0
    5.8457   11.6250    0.0000 O   0  0  0  0  0  0  0  0  0  0  0  0
  3  1  1  0
  4  3  1  0
  5  4  1  0
  6  5  1  0
  7  6  1  0
  8  7  1  0
  9  8  1  0
 10  9  1  0
 11 10  1  0
 12 11  1  0
 13 12  1  0
 14 13  1  0
 15 14  1  0
 16 15  1  0
 17 16  1  0
 18 17  1  0
 19 18  1  0
 20 19  1  0
 21 20  1  0
 22 21  1  0
 23 22  2  0
 24  2  1  0
 24 22  1  0
M  END
>  <NAME>  (1997) 
METHYL HENEICOSANOATE

>  <SYNONYMS>  (1997) 


>  <SPECTRUM TYPE>  (1997) 
MS1

>  <INSTRUMENT TYPE>  (1997) 
EI-B

>  <INSTRUMENT>  (1997) 
HITACHI M-80B

>  <ION MODE>  (1997) 
P

>  <INCHIKEY>  (1997) 
AJRICDSAJQHDSD-UHFFFAOYSA-N

>  <FORMULA>  (1997) 
C22H44O2

>  <EXACT MASS>  (1997) 
340.334130648

>  <MW>  (1997) 
340

>  <ID>  (1997) 
JP009252

>  <CONTRIBUTOR>  (1997) 
University of Tokyo Team, {Faculty of Engineering, University of Tokyo

>  <COMMENT>  (1997) 
SMILES=CCCCCCCCCCCCCCCCCCCCC(=O)OC
InChI=InChI=1S/C22H44O2/c1-3-4-5-6-7-8-9-10-11-12-13-14-15-16-17-18-19-20-21-22(23)24-2/h3-21H2,1-2H3
computed SMILES=O=C(OC)CCCCCCCCCCCCCCCCCCCC
accession=JP009252
date=2016.01.19 (Created 2008.10.21, modified 2011.05.06)
author=SODA AROMATIC CO., LTD.
license=CC BY-NC-SA
exact mass=340.33413
ionization energy=70 eV
ion type=[M]+*
computed spectral entropy=3.0033853585122623
computed normalized entropy=0.7335448477453622
SPLASH=splash10-00bi-9000000000-f3fe63207f6b3fba2016
submitter=submitter = University of Tokyo Team (Faculty of Engineering, University of Tokyo)
MoNA Rating=3.75

>  <NUM PEAKS>  (1997) 
60

>  <MASS SPECTRAL PEAKS>  (1997) 
14 4.7
15 1.6
18 3.4
27 0.39
28 99.9
29 12.92
32 42.1
39 0.3
40 4.4
41 32.3
42 7.2
43 5.27
44 1.4
45 1.2
53 1.5
54 0.21
55 32.3
56 7
57 29.9
58 0.16
59 8.5
60 1.1
67 3.8
68 0.22
69 19.8
70 3.5
71 10.3
73 0.25
74 99.99
75 26.4
76 1.2
81 0.37
82 1.7
83 11.6
84 3.3
85 0.43
87 64.7
88 4.9
95 2.5
96 0.12
97 8.1
98 2.9
101 4.7
109 0.12
111 3
115 1.9
116 1
125 0.15
129 5
130 1.6
143 14.9
144 0.14
157 1.3
185 2.4
199 3.1
241 0.26
255 1.7
297 6
298 1.2
309 2.4

$$$$

     RDKit          2D

 23 22  0  0  0  0  0  0  0  0999 V2000
  -20.1351   12.3750    0.0000 C   0  0  0  0  0  0  0  0  0  0  0  0
    7.1447   11.6250    0.0000 C   0  0  0  0  0  0  0  0  0  0  0  0
  -18.8361   11.6250    0.0000 C   0  0  0  0  0  0  0  0  0  0  0  0
  -17.5370   12.3750    0.0000 C   0  0  0  0  0  0  0  0  0  0  0  0
  -16.2380   11.6250    0.0000 C   0  0  0  0  0  0  0  0  0  0  0  0
  -14.9389   12.3750    0.0000 C   0  0  0  0  0  0  0  0  0  0  0  0
  -13.6399   11.6250    0.0000 C   0  0  0  0  0  0  0  0  0  0  0  0
  -12.3409   12.3750    0.0000 C   0  0  0  0  0  0  0  0  0  0  0  0
  -11.0418   11.6250    0.0000 C   0  0  0  0  0  0  0  0  0  0  0  0
   -9.7428   12.3750    0.0000 C   0  0  0  0  0  0  0  0  0  0  0  0
   -8.4437   11.6250    0.0000 C   0  0  0  0  0  0  0  0  0  0  0  0
   -7.1447   12.3750    0.0000 C   0  0  0  0  0  0  0  0  0  0  0  0
   -5.8457   11.6250    0.0000 C   0  0  0  0  0  0  0  0  0  0  0  0
   -4.5466   12.3750    0.0000 C   0  0  0  0  0  0  0  0  0  0  0  0
   -3.2476   11.6250    0.0000 C   0  0  0  0  0  0  0  0  0  0  0  0
   -1.9486   12.3750    0.0000 C   0  0  0  0  0  0  0  0  0  0  0  0
   -0.6495   11.6250    0.0000 C   0  0  0  0  0  0  0  0  0  0  0  0
    0.6495   12.3750    0.0000 C   0  0  0  0  0  0  0  0  0  0  0  0
    1.9486   11.6250    0.0000 C   0  0  0  0  0  0  0  0  0  0  0  0
    3.2476   12.3750    0.0000 C   0  0  0  0  0  0  0  0  0  0  0  0
    4.5466   11.6250    0.0000 C   0  0  0  0  0  0  0  0  0  0  0  0
    4.5466   10.1250    0.0000 O   0  0  0  0  0  0  0  0  0  0  0  0
    5.8457   12.3750    0.0000 O   0  0  0  0  0  0  0  0  0  0  0  0
  3  1  1  0
  4  3  1  0
  5  4  1  0
  6  5  1  0
  7  6  1  0
  8  7  1  0
  9  8  1  0
 10  9  1  0
 11 10  1  0
 12 11  1  0
 13 12  1  0
 14 13  1  0
 15 14  1  0
 16 15  1  0
 17 16  1  0
 18 17  1  0
 19 18  1  0
 20 19  1  0
 21 20  1  0
 22 21  2  0
 23  2  1  0
 23 21  1  0
M  END
>  <NAME>  (1998) 
METHYL EICOSANOATE

>  <SYNONYMS>  (1998) 


>  <SPECTRUM TYPE>  (1998) 
MS1

>  <INSTRUMENT TYPE>  (1998) 
EI-B

>  <INSTRUMENT>  (1998) 
HITACHI M-80B

>  <ION MODE>  (1998) 
P

>  <INCHIKEY>  (1998) 
QGBRLVONZXHAKJ-UHFFFAOYSA-N

>  <FORMULA>  (1998) 
C21H42O2

>  <EXACT MASS>  (1998) 
326.318480584

>  <MW>  (1998) 
326

>  <ID>  (1998) 
JP009251

>  <CONTRIBUTOR>  (1998) 
University of Tokyo Team, {Faculty of Engineering, University of Tokyo

>  <COMMENT>  (1998) 
SMILES=CCCCCCCCCCCCCCCCCCCC(=O)OC
InChI=InChI=1S/C21H42O2/c1-3-4-5-6-7-8-9-10-11-12-13-14-15-16-17-18-19-20-21(22)23-2/h3-20H2,1-2H3
computed SMILES=O=C(OC)CCCCCCCCCCCCCCCCCCC
accession=JP009251
date=2016.01.19 (Created 2008.10.21, modified 2011.05.06)
author=SODA AROMATIC CO., LTD.
license=CC BY-NC-SA
exact mass=326.31848
ionization energy=70 eV
ion type=[M]+*
computed spectral entropy=2.8858643620207447
computed normalized entropy=0.723458486755882
SPLASH=splash10-05fu-9000000000-e8cc3fd49c348f1662b3
submitter=submitter = University of Tokyo Team (Faculty of Engineering, University of Tokyo)
MoNA Rating=3.75

>  <NUM PEAKS>  (1998) 
54

>  <MASS SPECTRAL PEAKS>  (1998) 
15 2.3
27 6
39 4.7
41 4.47
42 7
43 62.2
53 1.6
54 0.29
55 38.4
56 7
57 29.8
59 1.04
67 4.4
68 2.3
69 18.2
70 0.26
71 7.3
72 1
73 1.9
74 99.99
75 24.1
79 1.4
81 2.8
82 0.18
83 9.4
84 2.2
85 4.1
87 6.65
88 4.9
95 2.7
96 1.2
97 0.71
98 3.4
101 5.1
109 1.5
111 0.31
115 2.3
116 1.1
125 1.8
129 0.49
130 1.6
135 1
143 11.7
144 0.13
157 1.1
171 1.6
185 2.1
199 0.29
227 2.3
241 1.8
283 5.3
284 0.12
295 2.8
297 1.5

$$$$

     RDKit          2D

 22 21  0  0  0  0  0  0  0  0999 V2000
    6.4952   11.2500    0.0000 C   0  0  0  0  0  0  0  0  0  0  0  0
  -19.4856   11.2500    0.0000 C   0  0  0  0  0  0  0  0  0  0  0  0
    5.1962   12.0000    0.0000 C   0  0  0  0  0  0  0  0  0  0  0  0
    3.8971   11.2500    0.0000 C   0  0  0  0  0  0  0  0  0  0  0  0
    2.5981   12.0000    0.0000 C   0  0  0  0  0  0  0  0  0  0  0  0
    1.2990   11.2500    0.0000 C   0  0  0  0  0  0  0  0  0  0  0  0
    0.0000   12.0000    0.0000 C   0  0  0  0  0  0  0  0  0  0  0  0
   -1.2990   11.2500    0.0000 C   0  0  0  0  0  0  0  0  0  0  0  0
   -2.5981   12.0000    0.0000 C   0  0  0  0  0  0  0  0  0  0  0  0
   -3.8971   11.2500    0.0000 C   0  0  0  0  0  0  0  0  0  0  0  0
   -5.1962   12.0000    0.0000 C   0  0  0  0  0  0  0  0  0  0  0  0
   -6.4952   11.2500    0.0000 C   0  0  0  0  0  0  0  0  0  0  0  0
   -7.7942   12.0000    0.0000 C   0  0  0  0  0  0  0  0  0  0  0  0
   -9.0933   11.2500    0.0000 C   0  0  0  0  0  0  0  0  0  0  0  0
  -10.3923   12.0000    0.0000 C   0  0  0  0  0  0  0  0  0  0  0  0
  -11.6913   11.2500    0.0000 C   0  0  0  0  0  0  0  0  0  0  0  0
  -12.9904   12.0000    0.0000 C   0  0  0  0  0  0  0  0  0  0  0  0
  -14.2894   11.2500    0.0000 C   0  0  0  0  0  0  0  0  0  0  0  0
  -15.5885   12.0000    0.0000 C   0  0  0  0  0  0  0  0  0  0  0  0
  -16.8875   11.2500    0.0000 C   0  0  0  0  0  0  0  0  0  0  0  0
  -16.8875    9.7500    0.0000 O   0  0  0  0  0  0  0  0  0  0  0  0
  -18.1865   12.0000    0.0000 O   0  0  0  0  0  0  0  0  0  0  0  0
  3  1  1  0
  4  3  1  0
  5  4  1  0
  6  5  1  0
  7  6  1  0
  8  7  1  0
  9  8  1  0
 10  9  1  0
 11 10  1  0
 12 11  1  0
 13 12  1  0
 14 13  1  0
 15 14  1  0
 16 15  1  0
 17 16  1  0
 18 17  1  0
 19 18  1  0
 20 19  1  0
 21 20  2  0
 22  2  1  0
 22 20  1  0
M  END
>  <NAME>  (1999) 
METHYL NONADECANOATE

>  <SYNONYMS>  (1999) 


>  <SPECTRUM TYPE>  (1999) 
MS1

>  <INSTRUMENT TYPE>  (1999) 
EI-B

>  <INSTRUMENT>  (1999) 
HITACHI M-80B

>  <ION MODE>  (1999) 
P

>  <INCHIKEY>  (1999) 
BDXAHSJUDUZLDU-UHFFFAOYSA-N

>  <FORMULA>  (1999) 
C20H40O2

>  <EXACT MASS>  (1999) 
312.30283052

>  <MW>  (1999) 
312

>  <ID>  (1999) 
JP009250

>  <CONTRIBUTOR>  (1999) 
University of Tokyo Team, {Faculty of Engineering, University of Tokyo

>  <COMMENT>  (1999) 
SMILES=CCCCCCCCCCCCCCCCCCC(=O)OC
InChI=InChI=1S/C20H40O2/c1-3-4-5-6-7-8-9-10-11-12-13-14-15-16-17-18-19-20(21)22-2/h3-19H2,1-2H3
computed SMILES=O=C(OC)CCCCCCCCCCCCCCCCCC
accession=JP009250
date=2016.01.19 (Created 2008.10.21, modified 2011.05.06)
author=SODA AROMATIC CO., LTD.
license=CC BY-NC-SA
exact mass=312.30283
ionization energy=70 eV
ion type=[M]+*
computed spectral entropy=2.8939893757278554
computed normalized entropy=0.7157933906877887
SPLASH=splash10-059f-9000000000-656c58a9685df137bf2c
submitter=submitter = University of Tokyo Team (Faculty of Engineering, University of Tokyo)
MoNA Rating=3.75

>  <NUM PEAKS>  (1999) 
57

>  <MASS SPECTRAL PEAKS>  (1999) 
15 2.8
27 6.7
31 1.4
39 0.45
41 51.1
42 9.8
43 62.5
45 0.1
53 2.6
54 2.9
55 38.8
56 0.69
57 29.2
59 11.8
67 4.5
68 0.22
69 19.3
70 4.4
71 8.5
73 0.28
74 99.99
75 22.9
79 1.4
81 0.24
82 1.8
83 9
84 1.9
85 0.28
87 63.7
88 5
95 2.3
96 0.13
97 6.9
98 3.6
99 1
101 0.56
109 1.5
111 2.7
112 1.1
115 0.21
116 1.3
125 1.4
129 4.8
130 0.15
143 11.6
144 1.3
157 1.7
171 0.14
185 2.2
199 2.5
213 2.4
227 0.17
255 1.1
269 5.3
270 1.6
281 0.3
283 1.2

$$$$

     RDKit          2D

 20 19  0  0  0  0  0  0  0  0999 V2000
    5.8457   10.1250    0.0000 C   0  0  0  0  0  0  0  0  0  0  0  0
  -17.5370   10.1250    0.0000 C   0  0  0  0  0  0  0  0  0  0  0  0
    4.5466   10.8750    0.0000 C   0  0  0  0  0  0  0  0  0  0  0  0
    3.2476   10.1250    0.0000 C   0  0  0  0  0  0  0  0  0  0  0  0
    1.9486   10.8750    0.0000 C   0  0  0  0  0  0  0  0  0  0  0  0
    0.6495   10.1250    0.0000 C   0  0  0  0  0  0  0  0  0  0  0  0
   -0.6495   10.8750    0.0000 C   0  0  0  0  0  0  0  0  0  0  0  0
   -1.9486   10.1250    0.0000 C   0  0  0  0  0  0  0  0  0  0  0  0
   -3.2476   10.8750    0.0000 C   0  0  0  0  0  0  0  0  0  0  0  0
   -4.5466   10.1250    0.0000 C   0  0  0  0  0  0  0  0  0  0  0  0
   -5.8457   10.8750    0.0000 C   0  0  0  0  0  0  0  0  0  0  0  0
   -7.1447   10.1250    0.0000 C   0  0  0  0  0  0  0  0  0  0  0  0
   -8.4437   10.8750    0.0000 C   0  0  0  0  0  0  0  0  0  0  0  0
   -9.7428   10.1250    0.0000 C   0  0  0  0  0  0  0  0  0  0  0  0
  -11.0418   10.8750    0.0000 C   0  0  0  0  0  0  0  0  0  0  0  0
  -12.3409   10.1250    0.0000 C   0  0  0  0  0  0  0  0  0  0  0  0
  -13.6399   10.8750    0.0000 C   0  0  0  0  0  0  0  0  0  0  0  0
  -14.9389   10.1250    0.0000 C   0  0  0  0  0  0  0  0  0  0  0  0
  -14.9389    8.6250    0.0000 O   0  0  0  0  0  0  0  0  0  0  0  0
  -16.2380   10.8750    0.0000 O   0  0  0  0  0  0  0  0  0  0  0  0
  3  1  1  0
  4  3  1  0
  5  4  1  0
  6  5  1  0
  7  6  1  0
  8  7  1  0
  9  8  1  0
 10  9  1  0
 11 10  1  0
 12 11  1  0
 13 12  1  0
 14 13  1  0
 15 14  1  0
 16 15  1  0
 17 16  1  0
 18 17  1  0
 19 18  2  0
 20  2  1  0
 20 18  1  0
M  END
>  <NAME>  (2000) 
METHYL HEPTADECANOATE

>  <SYNONYMS>  (2000) 


>  <SPECTRUM TYPE>  (2000) 
MS1

>  <INSTRUMENT TYPE>  (2000) 
EI-B

>  <INSTRUMENT>  (2000) 
HITACHI M-80B

>  <ION MODE>  (2000) 
P

>  <INCHIKEY>  (2000) 
HUEBIMLTDXKIPR-UHFFFAOYSA-N

>  <FORMULA>  (2000) 
C18H36O2

>  <EXACT MASS>  (2000) 
284.271530392

>  <MW>  (2000) 
284

>  <ID>  (2000) 
JP009249

>  <CONTRIBUTOR>  (2000) 
University of Tokyo Team, {Faculty of Engineering, University of Tokyo

>  <COMMENT>  (2000) 
SMILES=CCCCCCCCCCCCCCCCC(=O)OC
InChI=InChI=1S/C18H36O2/c1-3-4-5-6-7-8-9-10-11-12-13-14-15-16-17-18(19)20-2/h3-17H2,1-2H3
computed SMILES=O=C(OC)CCCCCCCCCCCCCCCC
accession=JP009249
date=2016.01.19 (Created 2008.10.21, modified 2011.05.06)
author=SODA AROMATIC CO., LTD.
license=CC BY-NC-SA
exact mass=284.27153
ionization energy=70 eV
ion type=[M]+*
computed spectral entropy=2.850646858914807
computed normalized entropy=0.7286886746216417
SPLASH=splash10-059f-9000000000-0e952678e45e6b7f15b7
submitter=submitter = University of Tokyo Team (Faculty of Engineering, University of Tokyo)
MoNA Rating=3.75

>  <NUM PEAKS>  (2000) 
50

>  <MASS SPECTRAL PEAKS>  (2000) 
15 2.5
27 7.9
29 4.2
39 0.46
41 43.7
42 10.2
43 54.8
45 0.16
53 1.8
54 2.2
55 36.4
56 0.67
57 23.2
58 1.1
59 12.5
67 0.31
68 1.5
69 17.3
70 2.9
71 0.52
73 2.8
74 99.99
75 18.7
79 0.11
81 2.6
82 1.2
83 9.5
84 0.27
85 2.8
87 61.7
88 4.8
95 0.16
97 5.4
98 2.2
101 4.6
111 0.21
115 1.6
125 1.2
129 4.4
130 0.11
143 11.7
144 1.3
157 1
185 0.29
199 2.7
241 5
253 3.1
255 0.13
284 10.1
285 1.9

$$$$

     RDKit          2D

 26 25  0  0  0  0  0  0  0  0999 V2000
    7.7942   13.5000    0.0000 C   0  0  0  0  0  0  0  0  0  0  0  0
    6.4952   14.2500    0.0000 C   0  0  0  0  0  0  0  0  0  0  0  0
    5.1962   13.5000    0.0000 C   0  0  0  0  0  0  0  0  0  0  0  0
    3.8971   14.2500    0.0000 C   0  0  0  0  0  0  0  0  0  0  0  0
    2.5981   13.5000    0.0000 C   0  0  0  0  0  0  0  0  0  0  0  0
    1.2990   14.2500    0.0000 C   0  0  0  0  0  0  0  0  0  0  0  0
    0.0000   13.5000    0.0000 C   0  0  0  0  0  0  0  0  0  0  0  0
   -1.2990   14.2500    0.0000 C   0  0  0  0  0  0  0  0  0  0  0  0
   -2.5981   13.5000    0.0000 C   0  0  0  0  0  0  0  0  0  0  0  0
   -3.8971   14.2500    0.0000 C   0  0  0  0  0  0  0  0  0  0  0  0
   -5.1962   13.5000    0.0000 C   0  0  0  0  0  0  0  0  0  0  0  0
   -6.4952   14.2500    0.0000 C   0  0  0  0  0  0  0  0  0  0  0  0
   -7.7942   13.5000    0.0000 C   0  0  0  0  0  0  0  0  0  0  0  0
   -9.0933   14.2500    0.0000 C   0  0  0  0  0  0  0  0  0  0  0  0
  -10.3923   13.5000    0.0000 C   0  0  0  0  0  0  0  0  0  0  0  0
  -11.6913   14.2500    0.0000 C   0  0  0  0  0  0  0  0  0  0  0  0
  -12.9904   13.5000    0.0000 C   0  0  0  0  0  0  0  0  0  0  0  0
  -14.2894   14.2500    0.0000 C   0  0  0  0  0  0  0  0  0  0  0  0
  -15.5885   13.5000    0.0000 C   0  0  0  0  0  0  0  0  0  0  0  0
  -16.8875   14.2500    0.0000 C   0  0  0  0  0  0  0  0  0  0  0  0
  -18.1865   13.5000    0.0000 C   0  0  0  0  0  0  0  0  0  0  0  0
  -19.4856   14.2500    0.0000 C   0  0  0  0  0  0  0  0  0  0  0  0
  -20.7846   13.5000    0.0000 C   0  0  0  0  0  0  0  0  0  0  0  0
  -22.0836   14.2500    0.0000 C   0  0  0  0  0  0  0  0  0  0  0  0
  -22.0836   15.7500    0.0000 O   0  0  0  0  0  0  0  0  0  0  0  0
  -23.3827   13.5000    0.0000 O   0  0  0  0  0  0  0  0  0  0  0  0
  2  1  1  0
  3  2  1  0
  4  3  1  0
  5  4  1  0
  6  5  1  0
  7  6  1  0
  8  7  1  0
  9  8  1  0
 10  9  1  0
 11 10  1  0
 12 11  1  0
 13 12  1  0
 14 13  1  0
 15 14  1  0
 16 15  1  0
 17 16  1  0
 18 17  1  0
 19 18  1  0
 20 19  1  0
 21 20  1  0
 22 21  1  0
 23 22  1  0
 24 23  1  0
 25 24  2  0
 26 24  1  0
M  END
>  <NAME>  (2001) 
TETRACOSANOIC ACID

>  <SYNONYMS>  (2001) 


>  <SPECTRUM TYPE>  (2001) 
MS1

>  <INSTRUMENT TYPE>  (2001) 
EI-B

>  <INSTRUMENT>  (2001) 
HITACHI M-80B

>  <ION MODE>  (2001) 
P

>  <INCHIKEY>  (2001) 
QZZGJDVWLFXDLK-UHFFFAOYSA-N

>  <FORMULA>  (2001) 
C24H48O2

>  <EXACT MASS>  (2001) 
368.365430776

>  <MW>  (2001) 
368

>  <ID>  (2001) 
JP009248

>  <CONTRIBUTOR>  (2001) 
University of Tokyo Team, {Faculty of Engineering, University of Tokyo

>  <COMMENT>  (2001) 
SMILES=CCCCCCCCCCCCCCCCCCCCCCCC(O)=O
InChI=InChI=1S/C24H48O2/c1-2-3-4-5-6-7-8-9-10-11-12-13-14-15-16-17-18-19-20-21-22-23-24(25)26/h2-23H2,1H3,(H,25,26)
computed SMILES=O=C(O)CCCCCCCCCCCCCCCCCCCCCCC
accession=JP009248
date=2016.01.19 (Created 2008.10.21, modified 2011.05.06)
author=SODA AROMATIC CO., LTD.
license=CC BY-NC-SA
exact mass=368.36543
ionization energy=70 eV
ion type=[M]+*
computed spectral entropy=3.3232651979911694
computed normalized entropy=0.7520672259885554
SPLASH=splash10-07bf-9000000000-2ae141518702212751a7
submitter=submitter = University of Tokyo Team (Faculty of Engineering, University of Tokyo)
MoNA Rating=3.75

>  <NUM PEAKS>  (2001) 
83

>  <MASS SPECTRAL PEAKS>  (2001) 
27 5.9
28 1.9
29 18.6
39 0.53
40 1
41 49.4
42 10
43 99.99
44 2.6
45 6.9
53 1.9
54 0.38
55 58.1
56 13.7
57 81.7
58 0.38
59 3.2
60 58.6
61 22.4
67 0.57
68 5.4
69 39.1
70 8.6
71 3.63
72 2.2
73 62.9
74 4.8
79 0.16
81 4.4
82 4.9
83 25.9
84 0.76
85 18.9
86 1.7
87 9.6
88 0.13
89 1.3
93 1.3
95 3.9
96 0.36
97 15.6
98 8.9
99 3.6
100 0.1
101 5
102 1.8
107 1.1
109 0.23
110 2
111 7.1
112 2.7
113 0.24
115 5.8
116 3.8
121 1.3
123 0.13
124 1.2
125 3.8
126 1.4
127 0.18
129 19.4
130 2.2
135 1.3
139 0.2
141 1.2
143 1.8
153 1.5
154 0.19
157 1.3
167 1.1
171 2.5
185 0.37
213 1.3
227 1.2
241 1.2
269 0.21
283 1.2
325 3.6
326 1.1
340 0.15
368 37.4
369 9.4
370 1.7

$$$$

     RDKit          2D

 24 23  0  0  0  0  0  0  0  0999 V2000
    7.1447   12.3750    0.0000 C   0  0  0  0  0  0  0  0  0  0  0  0
    5.8457   13.1250    0.0000 C   0  0  0  0  0  0  0  0  0  0  0  0
    4.5466   12.3750    0.0000 C   0  0  0  0  0  0  0  0  0  0  0  0
    3.2476   13.1250    0.0000 C   0  0  0  0  0  0  0  0  0  0  0  0
    1.9486   12.3750    0.0000 C   0  0  0  0  0  0  0  0  0  0  0  0
    0.6495   13.1250    0.0000 C   0  0  0  0  0  0  0  0  0  0  0  0
   -0.6495   12.3750    0.0000 C   0  0  0  0  0  0  0  0  0  0  0  0
   -1.9486   13.1250    0.0000 C   0  0  0  0  0  0  0  0  0  0  0  0
   -3.2476   12.3750    0.0000 C   0  0  0  0  0  0  0  0  0  0  0  0
   -4.5466   13.1250    0.0000 C   0  0  0  0  0  0  0  0  0  0  0  0
   -5.8457   12.3750    0.0000 C   0  0  0  0  0  0  0  0  0  0  0  0
   -7.1447   13.1250    0.0000 C   0  0  0  0  0  0  0  0  0  0  0  0
   -8.4437   12.3750    0.0000 C   0  0  0  0  0  0  0  0  0  0  0  0
   -9.7428   13.1250    0.0000 C   0  0  0  0  0  0  0  0  0  0  0  0
  -11.0418   12.3750    0.0000 C   0  0  0  0  0  0  0  0  0  0  0  0
  -12.3409   13.1250    0.0000 C   0  0  0  0  0  0  0  0  0  0  0  0
  -13.6399   12.3750    0.0000 C   0  0  0  0  0  0  0  0  0  0  0  0
  -14.9389   13.1250    0.0000 C   0  0  0  0  0  0  0  0  0  0  0  0
  -16.2380   12.3750    0.0000 C   0  0  0  0  0  0  0  0  0  0  0  0
  -17.5370   13.1250    0.0000 C   0  0  0  0  0  0  0  0  0  0  0  0
  -18.8361   12.3750    0.0000 C   0  0  0  0  0  0  0  0  0  0  0  0
  -20.1351   13.1250    0.0000 C   0  0  0  0  0  0  0  0  0  0  0  0
  -20.1351   14.6250    0.0000 O   0  0  0  0  0  0  0  0  0  0  0  0
  -21.4341   12.3750    0.0000 O   0  0  0  0  0  0  0  0  0  0  0  0
  2  1  1  0
  3  2  1  0
  4  3  1  0
  5  4  1  0
  6  5  1  0
  7  6  1  0
  8  7  1  0
  9  8  1  0
 10  9  1  0
 11 10  1  0
 12 11  1  0
 13 12  1  0
 14 13  1  0
 15 14  1  0
 16 15  1  0
 17 16  1  0
 18 17  1  0
 19 18  1  0
 20 19  1  0
 21 20  1  0
 22 21  1  0
 23 22  2  0
 24 22  1  0
M  END
>  <NAME>  (2002) 
DOCOSANOIC ACID

>  <SYNONYMS>  (2002) 
BEHENIC ACID

>  <SPECTRUM TYPE>  (2002) 
MS1

>  <INSTRUMENT TYPE>  (2002) 
EI-B

>  <INSTRUMENT>  (2002) 
HITACHI M-80B

>  <ION MODE>  (2002) 
P

>  <INCHIKEY>  (2002) 
UKMSUNONTOPOIO-UHFFFAOYSA-N

>  <FORMULA>  (2002) 
C22H44O2

>  <EXACT MASS>  (2002) 
340.334130648

>  <MW>  (2002) 
340

>  <ID>  (2002) 
JP009247

>  <CONTRIBUTOR>  (2002) 
University of Tokyo Team, {Faculty of Engineering, University of Tokyo

>  <COMMENT>  (2002) 
SMILES=CCCCCCCCCCCCCCCCCCCCCC(O)=O
InChI=InChI=1S/C22H44O2/c1-2-3-4-5-6-7-8-9-10-11-12-13-14-15-16-17-18-19-20-21-22(23)24/h2-21H2,1H3,(H,23,24)
computed SMILES=O=C(O)CCCCCCCCCCCCCCCCCCCCC
accession=JP009247
date=2016.01.19 (Created 2008.10.21, modified 2011.05.06)
author=SODA AROMATIC CO., LTD.
license=CC BY-NC-SA
exact mass=340.33413
ionization energy=70 eV
ion type=[M]+*
computed spectral entropy=3.3366318986242387
computed normalized entropy=0.7510451993614663
SPLASH=splash10-0596-9100000000-eb78c2ccaf4cc9882ed1
submitter=submitter = University of Tokyo Team (Faculty of Engineering, University of Tokyo)
MoNA Rating=3.75

>  <NUM PEAKS>  (2002) 
85

>  <MASS SPECTRAL PEAKS>  (2002) 
27 12.2
29 23.6
30 1.2
31 0.13
39 7
41 70.1
42 13.4
43 99.99
44 1.4
45 7.8
53 3.8
54 0.52
55 62.7
56 13.5
57 70.2
58 0.28
59 3.8
60 69.4
61 21.2
62 0.11
67 7.2
68 5.6
69 36.2
70 0.89
71 30.3
72 2
73 65.6
74 0.73
79 1.9
81 5.2
82 5.2
83 2.19
84 7.7
85 19.2
86 1.7
87 1.23
88 1.5
93 1.5
94 1
95 0.28
96 3.7
97 14
98 8.3
99 0.49
100 1.2
101 5
102 1.8
107 0.11
109 2.1
110 1.9
111 6.7
112 0.25
113 3.4
115 6.9
116 3.8
121 0.13
123 1.2
124 1.2
125 3.5
126 0.15
127 1.7
129 25.5
130 2.6
135 0.12
138 1
139 2
141 1.3
143 0.28
155 1.1
157 2.2
158 1
171 0.4
172 2.2
185 6.7
186 1.4
199 0.22
213 2
227 2.2
241 5.8
242 0.11
255 1.8
269 2.2
284 6.4
285 0.19
297 3.4

$$$$

     RDKit          2D

 14 14  0  0  0  0  0  0  0  0999 V2000
   -6.8197    3.1321    0.0000 C   0  0  0  0  0  0  0  0  0  0  0  0
    3.5726    1.6321    0.0000 C   0  0  0  0  0  0  0  0  0  0  0  0
    3.5731    3.1329    0.0000 C   0  0  0  0  0  0  0  0  0  0  0  0
    2.2731    0.8813    0.0000 C   0  0  0  0  0  0  0  0  0  0  0  0
    2.2740    3.8829    0.0000 C   0  0  0  0  0  0  0  0  0  0  0  0
    0.9740    1.6313    0.0000 C   0  0  0  0  0  0  0  0  0  0  0  0
   -0.3245    3.8821    0.0000 C   0  0  0  0  0  0  0  0  0  0  0  0
   -1.6236    3.1321    0.0000 C   0  0  0  0  0  0  0  0  0  0  0  0
   -5.5207    3.8821    0.0000 C   0  0  0  0  0  0  0  0  0  0  0  0
    0.9745    3.1321    0.0000 C   0  0  0  0  0  0  0  0  0  0  0  0
   -4.2216    3.1321    0.0000 C   0  0  0  0  0  0  0  0  0  0  0  0
   -5.5207    5.3821    0.0000 O   0  0  0  0  0  0  0  0  0  0  0  0
   -4.2216    1.6321    0.0000 O   0  0  0  0  0  0  0  0  0  0  0  0
   -2.9226    3.8821    0.0000 O   0  0  0  0  0  0  0  0  0  0  0  0
  3  2  2  0
  4  2  1  0
  5  3  1  0
  6  4  2  0
  8  7  1  0
  9  1  1  0
 10  5  2  0
 10  6  1  0
 10  7  1  0
 11  9  1  0
 12  9  1  0
 13 11  2  0
 14  8  1  0
 14 11  1  0
M  END
>  <NAME>  (2003) 
PHENYLETHYL LACTATE

>  <SYNONYMS>  (2003) 


>  <SPECTRUM TYPE>  (2003) 
MS1

>  <INSTRUMENT TYPE>  (2003) 
EI-B

>  <INSTRUMENT>  (2003) 
HITACHI M-80B

>  <ION MODE>  (2003) 
P

>  <INCHIKEY>  (2003) 
IYXFDAOFSCZADY-UHFFFAOYSA-N

>  <FORMULA>  (2003) 
C11H14O3

>  <EXACT MASS>  (2003) 
194.09429430799997

>  <MW>  (2003) 
194

>  <ID>  (2003) 
JP009246

>  <CONTRIBUTOR>  (2003) 
University of Tokyo Team, {Faculty of Engineering, University of Tokyo

>  <COMMENT>  (2003) 
SMILES=CC(O)C(=O)OCCc(c1)cccc1
InChI=InChI=1S/C11H14O3/c1-9(12)11(13)14-8-7-10-5-3-2-4-6-10/h2-6,9,12H,7-8H2,1H3
computed SMILES=O=C(OCCC=1C=CC=CC1)C(O)C
accession=JP009246
author=SODA AROMATIC CO., LTD.
date=2016.01.19 (Created 2008.10.21, modified 2011.05.06)
license=CC BY-NC-SA
exact mass=194.09429
ionization energy=70 eV
ion type=[M]+*
computed spectral entropy=2.1598735218558622
computed normalized entropy=0.6888462784855819
SPLASH=splash10-0udi-7900000000-b4302abf02cb02bf290b
submitter=submitter = University of Tokyo Team (Faculty of Engineering, University of Tokyo)
MoNA Rating=3.75

>  <NUM PEAKS>  (2003) 
23

>  <MASS SPECTRAL PEAKS>  (2003) 
15 1.2
19 1.1
27 6.6
29 0.43
39 4.3
43 8.5
45 42.5
50 0.14
51 6
52 1.2
63 1.8
65 0.57
77 10.9
78 6.3
79 7.6
89 0.1
91 16
92 6.9
103 6.5
104 99.99
105 38.8
106 2.5
122 1.8

$$$$

     RDKit          2D

 16 16  0  0  0  0  0  0  0  0999 V2000
   -4.8730    4.6877    0.0000 C   0  0  0  0  0  0  0  0  0  0  0  0
   -3.5741    5.4379    0.0000 C   0  0  0  0  0  0  0  0  0  0  0  0
   -2.2749    4.6881    0.0000 C   0  0  0  0  0  0  0  0  0  0  0  0
   -0.9760    5.4383    0.0000 C   0  0  0  0  0  0  0  0  0  0  0  0
    6.8193    2.4377    0.0000 C   0  0  0  0  0  0  0  0  0  0  0  0
    8.1184    3.1877    0.0000 C   0  0  0  0  0  0  0  0  0  0  0  0
    0.3232    4.6885    0.0000 C   0  0  0  0  0  0  0  0  0  0  0  0
    5.5198    3.1885    0.0000 C   0  0  0  0  0  0  0  0  0  0  0  0
    8.1179    4.6885    0.0000 C   0  0  0  0  0  0  0  0  0  0  0  0
    1.6221    5.4387    0.0000 C   0  0  0  0  0  0  0  0  0  0  0  0
    5.5193    4.6893    0.0000 C   0  0  0  0  0  0  0  0  0  0  0  0
    6.8184    5.4393    0.0000 C   0  0  0  0  0  0  0  0  0  0  0  0
    4.2202    5.4391    0.0000 C   0  0  0  0  0  0  0  0  0  0  0  0
    6.8186    6.9393    0.0000 O   0  0  0  0  0  0  0  0  0  0  0  0
    4.2199    6.9391    0.0000 O   0  0  0  0  0  0  0  0  0  0  0  0
    2.9212    4.6889    0.0000 O   0  0  0  0  0  0  0  0  0  0  0  0
  2  1  1  0
  3  2  1  0
  4  3  1  0
  6  5  2  0
  4  7  2  0
  8  5  1  0
  9  6  1  0
 10  7  1  0
 11  8  2  0
 12  9  2  0
 12 11  1  0
 13 11  1  0
 14 12  1  0
 15 13  2  0
 16 10  1  0
 16 13  1  0
M  END
>  <NAME>  (2004) 
TRANS-2-HEXENYL SALICYLATE

>  <SYNONYMS>  (2004) 


>  <SPECTRUM TYPE>  (2004) 
MS1

>  <INSTRUMENT TYPE>  (2004) 
EI-B

>  <INSTRUMENT>  (2004) 
HITACHI M-80B

>  <ION MODE>  (2004) 
P

>  <INCHIKEY>  (2004) 
DLWPCXLFHSLSMZ-QPJJXVBHSA-N

>  <FORMULA>  (2004) 
C13H16O3

>  <EXACT MASS>  (2004) 
220.109944372

>  <MW>  (2004) 
220

>  <ID>  (2004) 
JP009245

>  <CONTRIBUTOR>  (2004) 
University of Tokyo Team, {Faculty of Engineering, University of Tokyo

>  <COMMENT>  (2004) 
SMILES=CCCC=CCOC(=O)c(c1)c(O)ccc1
InChI=InChI=1S/C13H16O3/c1-2-3-4-7-10-16-13(15)11-8-5-6-9-12(11)14/h4-9,14H,2-3,10H2,1H3/b7-4+
computed SMILES=O=C(OCC=CCCC)C=1C=CC=CC1O
accession=JP009245
date=2016.01.19 (Created 2008.10.21, modified 2011.05.06)
author=SODA AROMATIC CO., LTD.
license=CC BY-NC-SA
exact mass=220.10994
ionization energy=70 eV
ion type=[M]+*
computed spectral entropy=2.6841840347929793
computed normalized entropy=0.7490358167185823
SPLASH=splash10-0613-9300000000-185d790c7be3e8b2b686
submitter=submitter = University of Tokyo Team (Faculty of Engineering, University of Tokyo)
MoNA Rating=3.75

>  <NUM PEAKS>  (2004) 
36

>  <MASS SPECTRAL PEAKS>  (2004) 
26 1.2
27 19.7
29 11.3
38 0.26
39 40.7
41 64.3
42 6
43 0.42
50 1.7
51 2.5
52 1.5
53 1.13
54 16.6
55 72.2
56 2.7
57 0.15
62 1.3
63 7.5
64 7.6
65 2.59
66 2.5
67 51.8
68 2.4
77 0.13
79 1.4
81 6
82 84.9
83 1.66
92 20.2
93 10.2
120 99.99
121 4.08
122 2.7
138 40.9
139 8.6
220 2.5

$$$$

     RDKit          2D

 16 17  0  0  0  0  0  0  0  0999 V2000
    7.4270    2.7908    0.0000 C   0  0  0  0  0  0  0  0  0  0  0  0
    7.4270    1.2908    0.0000 C   0  0  0  0  0  0  0  0  0  0  0  0
    6.1270    3.5408    0.0000 C   0  0  0  0  0  0  0  0  0  0  0  0
   -1.6700    0.5402    0.0000 C   0  0  0  0  0  0  0  0  0  0  0  0
   -1.6700   -0.9598    0.0000 C   0  0  0  0  0  0  0  0  0  0  0  0
    6.1270    0.5408    0.0000 C   0  0  0  0  0  0  0  0  0  0  0  0
    4.8270    2.7908    0.0000 C   0  0  0  0  0  0  0  0  0  0  0  0
   -0.3700    1.2902    0.0000 C   0  0  0  0  0  0  0  0  0  0  0  0
   -0.3700   -1.7098    0.0000 C   0  0  0  0  0  0  0  0  0  0  0  0
    4.8270    1.2908    0.0000 C   0  0  0  0  0  0  0  0  0  0  0  0
    0.9300    0.5402    0.0000 C   0  0  0  0  0  0  0  0  0  0  0  0
    0.9300   -0.9598    0.0000 C   0  0  0  0  0  0  0  0  0  0  0  0
    2.2289    1.2904    0.0000 C   0  0  0  0  0  0  0  0  0  0  0  0
    2.2289   -1.7100    0.0000 O   0  0  0  0  0  0  0  0  0  0  0  0
    2.2287    2.7904    0.0000 O   0  0  0  0  0  0  0  0  0  0  0  0
    3.5281    0.5406    0.0000 O   0  0  0  0  0  0  0  0  0  0  0  0
  2  1  1  0
  3  1  1  0
  5  4  2  0
  6  2  1  0
  7  3  1  0
  8  4  1  0
  9  5  1  0
 10  6  1  0
 10  7  1  0
 11  8  2  0
 12  9  2  0
 12 11  1  0
 13 11  1  0
 14 12  1  0
 15 13  2  0
 16 10  1  0
 16 13  1  0
M  END
>  <NAME>  (2005) 
CYCLOHEXYL SALICYLATE

>  <SYNONYMS>  (2005) 


>  <SPECTRUM TYPE>  (2005) 
MS1

>  <INSTRUMENT TYPE>  (2005) 
EI-B

>  <INSTRUMENT>  (2005) 
HITACHI M-80B

>  <ION MODE>  (2005) 
P

>  <INCHIKEY>  (2005) 
NUQDJSMHGCTKNL-UHFFFAOYSA-N

>  <FORMULA>  (2005) 
C13H16O3

>  <EXACT MASS>  (2005) 
220.109944372

>  <MW>  (2005) 
220

>  <ID>  (2005) 
JP009244

>  <CONTRIBUTOR>  (2005) 
University of Tokyo Team, {Faculty of Engineering, University of Tokyo

>  <COMMENT>  (2005) 
SMILES=C(C2)CCC(C2)OC(=O)c(c1)c(O)ccc1
InChI=InChI=1S/C13H16O3/c14-12-9-5-4-8-11(12)13(15)16-10-6-2-1-3-7-10/h4-5,8-10,14H,1-3,6-7H2
computed SMILES=O=C(OC1CCCCC1)C=2C=CC=CC2O
accession=JP009244
date=2016.01.19 (Created 2008.10.21, modified 2011.05.06)
author=SODA AROMATIC CO., LTD.
license=CC BY-NC-SA
exact mass=220.10994
ionization energy=70 eV
ion type=[M]+*
computed spectral entropy=2.481585803134769
computed normalized entropy=0.7296212258995757
SPLASH=splash10-00di-6900000000-39c38e95c3fd3f8a2f99
submitter=submitter = University of Tokyo Team (Faculty of Engineering, University of Tokyo)
MoNA Rating=3.75

>  <NUM PEAKS>  (2005) 
30

>  <MASS SPECTRAL PEAKS>  (2005) 
27 7.4
29 2.4
38 1.4
39 2.01
41 24.4
42 1.9
43 1.8
51 0.12
53 4.9
54 8.2
55 26.1
56 0.14
63 4
64 4.4
65 16.1
66 0.16
67 18.4
79 1.4
81 4.1
82 0.47
83 3.8
92 13.7
93 7
120 99.99
121 33.1
122 2.3
138 64.9
139 1.02
220 7
221 1.1

$$$$

     RDKit          2D

 16 16  0  0  0  0  0  0  0  0999 V2000
   -4.2232    4.3127    0.0000 C   0  0  0  0  0  0  0  0  0  0  0  0
   -1.6254    5.8131    0.0000 C   0  0  0  0  0  0  0  0  0  0  0  0
   -2.9241    3.5629    0.0000 C   0  0  0  0  0  0  0  0  0  0  0  0
    6.1702    1.3124    0.0000 C   0  0  0  0  0  0  0  0  0  0  0  0
    7.4692    2.0624    0.0000 C   0  0  0  0  0  0  0  0  0  0  0  0
    4.8706    2.0633    0.0000 C   0  0  0  0  0  0  0  0  0  0  0  0
    7.4687    3.5633    0.0000 C   0  0  0  0  0  0  0  0  0  0  0  0
   -0.3260    3.5633    0.0000 C   0  0  0  0  0  0  0  0  0  0  0  0
    0.9729    4.3135    0.0000 C   0  0  0  0  0  0  0  0  0  0  0  0
   -1.6252    4.3131    0.0000 C   0  0  0  0  0  0  0  0  0  0  0  0
    4.8702    3.5641    0.0000 C   0  0  0  0  0  0  0  0  0  0  0  0
    6.1692    4.3141    0.0000 C   0  0  0  0  0  0  0  0  0  0  0  0
    3.5710    4.3139    0.0000 C   0  0  0  0  0  0  0  0  0  0  0  0
    6.1694    5.8141    0.0000 O   0  0  0  0  0  0  0  0  0  0  0  0
    3.5708    5.8139    0.0000 O   0  0  0  0  0  0  0  0  0  0  0  0
    2.2721    3.5637    0.0000 O   0  0  0  0  0  0  0  0  0  0  0  0
  3  1  1  0
  5  4  2  0
  6  4  1  0
  7  5  1  0
  9  8  1  0
 10  2  1  0
 10  3  1  0
 10  8  1  0
 11  6  2  0
 12  7  2  0
 12 11  1  0
 13 11  1  0
 14 12  1  0
 15 13  2  0
 16  9  1  0
 16 13  1  0
M  END
>  <NAME>  (2006) 
3-METHYLPENTYL SALICYLATE

>  <SYNONYMS>  (2006) 


>  <SPECTRUM TYPE>  (2006) 
MS1

>  <INSTRUMENT TYPE>  (2006) 
EI-B

>  <INSTRUMENT>  (2006) 
HITACHI M-80B

>  <ION MODE>  (2006) 
P

>  <INCHIKEY>  (2006) 
GWYVTSFBLKXAMY-UHFFFAOYSA-N

>  <FORMULA>  (2006) 
C13H18O3

>  <EXACT MASS>  (2006) 
222.12559443599997

>  <MW>  (2006) 
222

>  <ID>  (2006) 
JP009243

>  <CONTRIBUTOR>  (2006) 
University of Tokyo Team, {Faculty of Engineering, University of Tokyo

>  <COMMENT>  (2006) 
SMILES=CCC(C)CCOC(=O)c(c1)c(O)ccc1
InChI=InChI=1S/C13H18O3/c1-3-10(2)8-9-16-13(15)11-6-4-5-7-12(11)14/h4-7,10,14H,3,8-9H2,1-2H3
computed SMILES=O=C(OCCC(C)CC)C=1C=CC=CC1O
accession=JP009243
date=2016.01.19 (Created 2008.10.21, modified 2011.05.06)
author=SODA AROMATIC CO., LTD.
license=CC BY-NC-SA
exact mass=222.12559
ionization energy=70 eV
ion type=[M]+*
computed spectral entropy=2.6972833017941253
computed normalized entropy=0.7854669051390731
SPLASH=splash10-00dl-9500000000-ef1a0f61fc4097ba16d2
submitter=submitter = University of Tokyo Team (Faculty of Engineering, University of Tokyo)
MoNA Rating=3.75

>  <NUM PEAKS>  (2006) 
31

>  <MASS SPECTRAL PEAKS>  (2006) 
27 11.8
29 14.9
38 1.6
39 2.12
41 29
42 3
43 65.3
51 0.12
53 3.9
54 1
55 15.4
56 0.86
57 14.5
63 5.5
64 6.8
65 2.35
66 1.6
69 23.1
70 1.2
81 0.14
84 41
85 15.2
92 20.9
93 1.07
120 99.99
121 42.9
122 3.1
138 4.44
139 10.9
222 18.4
223 2.5

$$$$

     RDKit          2D

 13 12  0  0  0  0  0  0  0  0999 V2000
    3.2476    5.6250    0.0000 C   0  0  0  0  0  0  0  0  0  0  0  0
   -9.7428    5.6250    0.0000 C   0  0  0  0  0  0  0  0  0  0  0  0
   -8.4437    7.8750    0.0000 C   0  0  0  0  0  0  0  0  0  0  0  0
    1.9486    6.3750    0.0000 C   0  0  0  0  0  0  0  0  0  0  0  0
    0.6495    5.6250    0.0000 C   0  0  0  0  0  0  0  0  0  0  0  0
   -0.6495    6.3750    0.0000 C   0  0  0  0  0  0  0  0  0  0  0  0
   -1.9486    5.6250    0.0000 C   0  0  0  0  0  0  0  0  0  0  0  0
   -7.1447    5.6250    0.0000 C   0  0  0  0  0  0  0  0  0  0  0  0
   -5.8457    6.3750    0.0000 C   0  0  0  0  0  0  0  0  0  0  0  0
   -8.4437    6.3750    0.0000 C   0  0  0  0  0  0  0  0  0  0  0  0
   -3.2476    6.3750    0.0000 C   0  0  0  0  0  0  0  0  0  0  0  0
   -3.2476    7.8750    0.0000 O   0  0  0  0  0  0  0  0  0  0  0  0
   -4.5466    5.6250    0.0000 O   0  0  0  0  0  0  0  0  0  0  0  0
  4  1  1  0
  4  5  2  0
  6  5  1  0
  6  7  2  0
  9  8  1  0
 10  2  1  0
 10  3  1  0
 10  8  1  0
 11  7  1  0
 12 11  2  0
 13  9  1  0
 13 11  1  0
M  END
>  <NAME>  (2007) 
3-METHYLBUTYL 2,4-HEXADIENOATE

>  <SYNONYMS>  (2007) 
ISOAMYL SORBATE

>  <SPECTRUM TYPE>  (2007) 
MS1

>  <INSTRUMENT TYPE>  (2007) 
EI-B

>  <INSTRUMENT>  (2007) 
HITACHI M-80B

>  <ION MODE>  (2007) 
P

>  <INCHIKEY>  (2007) 
QEBWFKHQSLXUSK-YTXTXJHMSA-N

>  <FORMULA>  (2007) 
C11H18O2

>  <EXACT MASS>  (2007) 
182.130679816

>  <MW>  (2007) 
182

>  <ID>  (2007) 
JP009242

>  <CONTRIBUTOR>  (2007) 
University of Tokyo Team, {Faculty of Engineering, University of Tokyo

>  <COMMENT>  (2007) 
SMILES=CC=CC=CC(=O)OCCC(C)C
InChI=InChI=1S/C11H18O2/c1-4-5-6-7-11(12)13-9-8-10(2)3/h4-7,10H,8-9H2,1-3H3/b5-4+,7-6+
computed SMILES=O=C(OCCC(C)C)C=CC=CC
accession=JP009242
date=2016.01.19 (Created 2008.10.21, modified 2011.05.06)
author=SODA AROMATIC CO., LTD.
license=CC BY-NC-SA
exact mass=182.13068
ionization energy=70 eV
ion type=[M]+*
computed spectral entropy=2.5872117515930437
computed normalized entropy=0.7336776071342442
SPLASH=splash10-0002-9100000000-7b10186e2c45f68a0fee
submitter=submitter = University of Tokyo Team (Faculty of Engineering, University of Tokyo)
MoNA Rating=3.75

>  <NUM PEAKS>  (2007) 
34

>  <MASS SPECTRAL PEAKS>  (2007) 
27 10.3
29 7.2
38 1.3
39 2.35
41 43.1
42 6.9
43 21.1
51 0.22
52 1.6
53 2.1
55 15.2
56 0.12
57 2
63 1.2
65 9.2
66 0.92
67 51.3
68 6.8
69 2.9
70 3.26
71 4.2
81 1.1
84 1.5
94 0.12
95 99.99
96 7.5
97 41.5
98 0.19
111 1.7
112 22.1
113 38.4
114 0.24
128 1
182 4.5

$$$$

     RDKit          2D

 11 10  0  0  0  0  0  0  0  0999 V2000
   -8.4437    5.6250    0.0000 C   0  0  0  0  0  0  0  0  0  0  0  0
    3.2476    4.8750    0.0000 C   0  0  0  0  0  0  0  0  0  0  0  0
   -7.1447    4.8750    0.0000 C   0  0  0  0  0  0  0  0  0  0  0  0
    1.9486    5.6250    0.0000 C   0  0  0  0  0  0  0  0  0  0  0  0
   -5.8457    5.6250    0.0000 C   0  0  0  0  0  0  0  0  0  0  0  0
   -4.5466    4.8750    0.0000 C   0  0  0  0  0  0  0  0  0  0  0  0
   -3.2476    5.6250    0.0000 C   0  0  0  0  0  0  0  0  0  0  0  0
    0.6495    4.8750    0.0000 C   0  0  0  0  0  0  0  0  0  0  0  0
   -1.9486    4.8750    0.0000 C   0  0  0  0  0  0  0  0  0  0  0  0
   -1.9486    3.3750    0.0000 O   0  0  0  0  0  0  0  0  0  0  0  0
   -0.6495    5.6250    0.0000 O   0  0  0  0  0  0  0  0  0  0  0  0
  3  1  1  0
  4  2  2  0
  3  5  2  0
  6  5  1  0
  6  7  2  0
  8  4  1  0
  9  7  1  0
 10  9  2  0
 11  8  1  0
 11  9  1  0
M  END
>  <NAME>  (2008) 
ALLYL 2,4-HEXADIENOATE

>  <SYNONYMS>  (2008) 
ALLYL SORBATE

>  <SPECTRUM TYPE>  (2008) 
MS1

>  <INSTRUMENT TYPE>  (2008) 
EI-B

>  <INSTRUMENT>  (2008) 
HITACHI M-80B

>  <ION MODE>  (2008) 
P

>  <INCHIKEY>  (2008) 
CVNZYQJBZIJLCL-TWTPFVCWSA-N

>  <FORMULA>  (2008) 
C9H12O2

>  <EXACT MASS>  (2008) 
152.083729624

>  <MW>  (2008) 
152

>  <ID>  (2008) 
JP009241

>  <CONTRIBUTOR>  (2008) 
University of Tokyo Team, {Faculty of Engineering, University of Tokyo

>  <COMMENT>  (2008) 
SMILES=CC=CC=CC(=O)OCC=C
InChI=InChI=1S/C9H12O2/c1-3-5-6-7-9(10)11-8-4-2/h3-7H,2,8H2,1H3/b5-3+,7-6+
computed SMILES=O=C(OCC=C)C=CC=CC
accession=JP009241
date=2016.01.19 (Created 2008.10.21, modified 2011.05.06)
author=SODA AROMATIC CO., LTD.
license=CC BY-NC-SA
exact mass=152.08373
ionization energy=70 eV
ion type=[M]+*
computed spectral entropy=2.741026220990549
computed normalized entropy=0.7159266008835665
SPLASH=splash10-014v-9100000000-e91fdbb9ce14515b74d7
submitter=submitter = University of Tokyo Team (Faculty of Engineering, University of Tokyo)
MoNA Rating=3.75

>  <NUM PEAKS>  (2008) 
46

>  <MASS SPECTRAL PEAKS>  (2008) 
26 2.4
27 12
29 3.8
37 0.14
38 6.4
39 56.2
41 82.4
42 0.25
43 11.8
50 1.8
51 4.8
52 0.23
53 2.7
54 1
55 9.1
57 0.18
62 1.2
63 2.7
65 16.1
66 1.23
67 70.7
68 21.1
69 3
77 0.17
79 8.9
80 2.6
81 4.9
82 0.16
83 6.6
84 1.6
85 1
91 0.33
93 7.2
94 2.1
95 99.99
96 0.85
97 6.4
107 7.5
109 1.4
110 0.13
111 6.2
123 1.3
137 13.7
138 0.1
152 27
153 2.3

$$$$

     RDKit          2D

 12 11  0  0  0  0  0  0  0  0999 V2000
    3.2476    5.6250    0.0000 C   0  0  0  0  0  0  0  0  0  0  0  0
   -9.7428    5.6250    0.0000 C   0  0  0  0  0  0  0  0  0  0  0  0
    1.9486    6.3750    0.0000 C   0  0  0  0  0  0  0  0  0  0  0  0
   -8.4437    6.3750    0.0000 C   0  0  0  0  0  0  0  0  0  0  0  0
    0.6495    5.6250    0.0000 C   0  0  0  0  0  0  0  0  0  0  0  0
   -7.1447    5.6250    0.0000 C   0  0  0  0  0  0  0  0  0  0  0  0
   -0.6495    6.3750    0.0000 C   0  0  0  0  0  0  0  0  0  0  0  0
   -1.9486    5.6250    0.0000 C   0  0  0  0  0  0  0  0  0  0  0  0
   -5.8457    6.3750    0.0000 C   0  0  0  0  0  0  0  0  0  0  0  0
   -3.2476    6.3750    0.0000 C   0  0  0  0  0  0  0  0  0  0  0  0
   -3.2476    7.8750    0.0000 O   0  0  0  0  0  0  0  0  0  0  0  0
   -4.5466    5.6250    0.0000 O   0  0  0  0  0  0  0  0  0  0  0  0
  3  1  1  0
  4  2  1  0
  3  5  2  0
  6  4  1  0
  7  5  1  0
  7  8  2  0
  9  6  1  0
 10  8  1  0
 11 10  2  0
 12  9  1  0
 12 10  1  0
M  END
>  <NAME>  (2009) 
BUTYL 2,4-HEXADIENOATE

>  <SYNONYMS>  (2009) 
BUTYL SORBATE

>  <SPECTRUM TYPE>  (2009) 
MS1

>  <INSTRUMENT TYPE>  (2009) 
EI-B

>  <INSTRUMENT>  (2009) 
HITACHI M-80B

>  <ION MODE>  (2009) 
P

>  <INCHIKEY>  (2009) 
SCVZKPKDMFXESQ-VSAQMIDASA-N

>  <FORMULA>  (2009) 
C10H16O2

>  <EXACT MASS>  (2009) 
168.115029752

>  <MW>  (2009) 
168

>  <ID>  (2009) 
JP009240

>  <CONTRIBUTOR>  (2009) 
University of Tokyo Team, {Faculty of Engineering, University of Tokyo

>  <COMMENT>  (2009) 
SMILES=CC=CC=CC(=O)OCCCC
InChI=InChI=1S/C10H16O2/c1-3-5-7-8-10(11)12-9-6-4-2/h3,5,7-8H,4,6,9H2,1-2H3/b5-3+,8-7+
computed SMILES=O=C(OCCCC)C=CC=CC
accession=JP009240
date=2016.01.19 (Created 2008.10.21, modified 2011.05.06)
author=SODA AROMATIC CO., LTD.
license=CC BY-NC-SA
exact mass=168.11503
ionization energy=70 eV
ion type=[M]+*
computed spectral entropy=2.5883948175936524
computed normalized entropy=0.7016750885440308
SPLASH=splash10-014m-9100000000-bc5aa2167740ca287051
submitter=submitter = University of Tokyo Team (Faculty of Engineering, University of Tokyo)
MoNA Rating=3.75

>  <NUM PEAKS>  (2009) 
40

>  <MASS SPECTRAL PEAKS>  (2009) 
14 2.4
15 1.3
26 2.4
27 2.22
29 20.5
31 1.1
38 2.7
39 4.38
41 74.7
42 3.1
43 8.1
50 0.15
51 3.5
52 2.4
53 2.6
55 0.75
56 6.9
57 6.3
63 1.8
65 1.35
66 18.2
67 89.5
68 10.7
69 0.24
71 1.1
81 2.1
83 1.2
84 0.34
94 1.8
95 99.99
96 7.8
97 8.77
98 4.5
111 3.5
112 41.8
113 1.41
114 7.6
153 1.2
168 11.8
169 1.4

$$$$

     RDKit          2D

 11 10  0  0  0  0  0  0  0  0999 V2000
    2.5981    4.5000    0.0000 C   0  0  0  0  0  0  0  0  0  0  0  0
   -7.7942    4.5000    0.0000 C   0  0  0  0  0  0  0  0  0  0  0  0
   -6.4952    6.7500    0.0000 C   0  0  0  0  0  0  0  0  0  0  0  0
    1.2990    5.2500    0.0000 C   0  0  0  0  0  0  0  0  0  0  0  0
    0.0000    4.5000    0.0000 C   0  0  0  0  0  0  0  0  0  0  0  0
   -1.2990    5.2500    0.0000 C   0  0  0  0  0  0  0  0  0  0  0  0
   -2.5981    4.5000    0.0000 C   0  0  0  0  0  0  0  0  0  0  0  0
   -6.4952    5.2500    0.0000 C   0  0  0  0  0  0  0  0  0  0  0  0
   -3.8971    5.2500    0.0000 C   0  0  0  0  0  0  0  0  0  0  0  0
   -3.8971    6.7500    0.0000 O   0  0  0  0  0  0  0  0  0  0  0  0
   -5.1962    4.5000    0.0000 O   0  0  0  0  0  0  0  0  0  0  0  0
  4  1  1  0
  4  5  2  0
  6  5  1  0
  6  7  2  0
  8  2  1  0
  8  3  1  0
  9  7  1  0
 10  9  2  0
 11  8  1  0
 11  9  1  0
M  END
>  <NAME>  (2010) 
ISOPROPYL 2,4-HEXADIENOATE

>  <SYNONYMS>  (2010) 
ISOPROPYL SORBATE

>  <SPECTRUM TYPE>  (2010) 
MS1

>  <INSTRUMENT TYPE>  (2010) 
EI-B

>  <INSTRUMENT>  (2010) 
HITACHI M-80B

>  <ION MODE>  (2010) 
P

>  <INCHIKEY>  (2010) 
PERLTXCUPZSJTA-YTXTXJHMSA-N

>  <FORMULA>  (2010) 
C9H14O2

>  <EXACT MASS>  (2010) 
154.099379688

>  <MW>  (2010) 
154

>  <ID>  (2010) 
JP009239

>  <CONTRIBUTOR>  (2010) 
University of Tokyo Team, {Faculty of Engineering, University of Tokyo

>  <COMMENT>  (2010) 
SMILES=CC=CC=CC(=O)OC(C)C
InChI=InChI=1S/C9H14O2/c1-4-5-6-7-9(10)11-8(2)3/h4-8H,1-3H3/b5-4+,7-6+
computed SMILES=O=C(OC(C)C)C=CC=CC
accession=JP009239
date=2016.01.19 (Created 2008.10.21, modified 2011.05.06)
author=SODA AROMATIC CO., LTD.
license=CC BY-NC-SA
exact mass=154.09938
ionization energy=70 eV
ion type=[M]+*
computed spectral entropy=2.7440871212234037
computed normalized entropy=0.7341705933023861
SPLASH=splash10-0005-9100000000-80735d3f2c93c626c64f
submitter=submitter = University of Tokyo Team (Faculty of Engineering, University of Tokyo)
MoNA Rating=3.75

>  <NUM PEAKS>  (2010) 
42

>  <MASS SPECTRAL PEAKS>  (2010) 
15 4.9
26 2.3
27 25.6
29 0.34
31 1.2
37 1.2
38 5.6
39 5.49
41 74.3
42 5.8
43 38.9
44 0.13
45 1.4
50 1.8
51 5.1
52 0.27
53 2.6
55 6.2
56 1.4
59 1.24
63 2.6
65 14.5
66 20.4
67 8.79
68 21.8
69 4.8
70 1.1
81 0.23
83 1.8
84 5
94 1.6
95 99.99
96 7.9
97 92.8
98 5.1
109 0.25
111 7.4
112 39.1
113 2.7
139 0.11
154 21.2
155 1.7

$$$$

     RDKit          2D

 11 10  0  0  0  0  0  0  0  0999 V2000
   -8.4437    5.6250    0.0000 C   0  0  0  0  0  0  0  0  0  0  0  0
    3.2476    4.8750    0.0000 C   0  0  0  0  0  0  0  0  0  0  0  0
   -7.1447    4.8750    0.0000 C   0  0  0  0  0  0  0  0  0  0  0  0
    1.9486    5.6250    0.0000 C   0  0  0  0  0  0  0  0  0  0  0  0
   -5.8457    5.6250    0.0000 C   0  0  0  0  0  0  0  0  0  0  0  0
   -4.5466    4.8750    0.0000 C   0  0  0  0  0  0  0  0  0  0  0  0
   -3.2476    5.6250    0.0000 C   0  0  0  0  0  0  0  0  0  0  0  0
    0.6495    4.8750    0.0000 C   0  0  0  0  0  0  0  0  0  0  0  0
   -1.9486    4.8750    0.0000 C   0  0  0  0  0  0  0  0  0  0  0  0
   -1.9486    3.3750    0.0000 O   0  0  0  0  0  0  0  0  0  0  0  0
   -0.6495    5.6250    0.0000 O   0  0  0  0  0  0  0  0  0  0  0  0
  3  1  1  0
  4  2  1  0
  3  5  2  0
  6  5  1  0
  6  7  2  0
  8  4  1  0
  9  7  1  0
 10  9  2  0
 11  8  1  0
 11  9  1  0
M  END
>  <NAME>  (2011) 
PROPYL 2,4-HEXADIENOATE

>  <SYNONYMS>  (2011) 
PROPYL SORBATE

>  <SPECTRUM TYPE>  (2011) 
MS1

>  <INSTRUMENT TYPE>  (2011) 
EI-B

>  <INSTRUMENT>  (2011) 
HITACHI M-80B

>  <ION MODE>  (2011) 
P

>  <INCHIKEY>  (2011) 
JAVXBQKCKGHZHM-TWTPFVCWSA-N

>  <FORMULA>  (2011) 
C9H14O2

>  <EXACT MASS>  (2011) 
154.099379688

>  <MW>  (2011) 
154

>  <ID>  (2011) 
JP009238

>  <CONTRIBUTOR>  (2011) 
University of Tokyo Team, {Faculty of Engineering, University of Tokyo

>  <COMMENT>  (2011) 
SMILES=CC=CC=CC(=O)OCCC
InChI=InChI=1S/C9H14O2/c1-3-5-6-7-9(10)11-8-4-2/h3,5-7H,4,8H2,1-2H3/b5-3+,7-6+
computed SMILES=O=C(OCCC)C=CC=CC
accession=JP009238
date=2016.01.19 (Created 2008.10.21, modified 2011.05.06)
author=SODA AROMATIC CO., LTD.
license=CC BY-NC-SA
exact mass=154.09938
ionization energy=70 eV
ion type=[M]+*
computed spectral entropy=2.512515740528875
computed normalized entropy=0.6765765401608762
SPLASH=splash10-0002-9100000000-87222008d88a3cbd548d
submitter=submitter = University of Tokyo Team (Faculty of Engineering, University of Tokyo)
MoNA Rating=3.75

>  <NUM PEAKS>  (2011) 
41

>  <MASS SPECTRAL PEAKS>  (2011) 
15 1.4
16 2.3
26 2.2
27 2.54
29 6.3
31 2
38 3.6
39 4.43
41 69.2
42 4.3
43 15.3
50 0.16
51 4.2
52 2.4
53 2.5
55 0.41
56 1.2
57 1.1
59 1.3
62 0.1
63 2.5
65 14.4
66 17.5
67 9.12
68 7.6
69 2.2
81 2
83 0.17
84 3.7
94 1.8
95 99.99
96 0.62
97 87.2
98 4.3
100 1.2
111 0.38
112 45.5
113 4
139 1.7
154 1.58
155 1.7

$$$$

     RDKit          2D

 10  9  0  0  0  0  0  0  0  0999 V2000
    2.5981    4.5000    0.0000 C   0  0  0  0  0  0  0  0  0  0  0  0
   -7.7942    4.5000    0.0000 C   0  0  0  0  0  0  0  0  0  0  0  0
    1.2990    5.2500    0.0000 C   0  0  0  0  0  0  0  0  0  0  0  0
   -6.4952    5.2500    0.0000 C   0  0  0  0  0  0  0  0  0  0  0  0
    0.0000    4.5000    0.0000 C   0  0  0  0  0  0  0  0  0  0  0  0
   -1.2990    5.2500    0.0000 C   0  0  0  0  0  0  0  0  0  0  0  0
   -2.5981    4.5000    0.0000 C   0  0  0  0  0  0  0  0  0  0  0  0
   -3.8971    5.2500    0.0000 C   0  0  0  0  0  0  0  0  0  0  0  0
   -3.8971    6.7500    0.0000 O   0  0  0  0  0  0  0  0  0  0  0  0
   -5.1962    4.5000    0.0000 O   0  0  0  0  0  0  0  0  0  0  0  0
  3  1  1  0
  4  2  1  0
  3  5  2  0
  6  5  1  0
  6  7  2  0
  8  7  1  0
  9  8  2  0
 10  4  1  0
 10  8  1  0
M  END
>  <NAME>  (2012) 
ETHYL 2,4-HEXADIENOATE

>  <SYNONYMS>  (2012) 
ETHYL SORBATE

>  <SPECTRUM TYPE>  (2012) 
MS1

>  <INSTRUMENT TYPE>  (2012) 
EI-B

>  <INSTRUMENT>  (2012) 
HITACHI M-80B

>  <ION MODE>  (2012) 
P

>  <INCHIKEY>  (2012) 
OZZYKXXGCOLLLO-TWTPFVCWSA-N

>  <FORMULA>  (2012) 
C8H12O2

>  <EXACT MASS>  (2012) 
140.083729624

>  <MW>  (2012) 
140

>  <ID>  (2012) 
JP009237

>  <CONTRIBUTOR>  (2012) 
University of Tokyo Team, {Faculty of Engineering, University of Tokyo

>  <COMMENT>  (2012) 
SMILES=CC=CC=CC(=O)OCC
InChI=InChI=1S/C8H12O2/c1-3-5-6-7-8(9)10-4-2/h3,5-7H,4H2,1-2H3/b5-3+,7-6+
computed SMILES=O=C(OCC)C=CC=CC
accession=JP009237
date=2016.01.19 (Created 2008.10.21, modified 2011.05.06)
author=SODA AROMATIC CO., LTD.
license=CC BY-NC-SA
exact mass=140.08373
ionization energy=70 eV
ion type=[M]+*
computed spectral entropy=2.7099301776813176
computed normalized entropy=0.7118913707122023
SPLASH=splash10-014j-9000000000-9a19a8aabe4950080f4a
submitter=submitter = University of Tokyo Team (Faculty of Engineering, University of Tokyo)
MoNA Rating=3.75

>  <NUM PEAKS>  (2012) 
45

>  <MASS SPECTRAL PEAKS>  (2012) 
15 2.9
26 3.9
27 26.9
29 1.66
30 1.3
31 1.4
37 1.3
38 0.52
39 53.3
41 60.1
42 3
43 1.12
45 2.2
50 2.6
51 5.4
52 0.37
53 3.3
55 7.9
56 1.4
58 0.1
62 1.6
63 3.6
64 1.2
65 1.86
66 25.2
67 99.99
68 10.9
69 0.36
70 1.2
79 1.4
81 2.7
83 0.32
84 3.6
93 1.3
94 2.5
95 9.6
96 6.2
97 73.4
98 3.6
111 0.57
112 9
125 28
126 2.2
140 4.01
141 3.3

$$$$

     RDKit          2D

  9  8  0  0  0  0  0  0  0  0999 V2000
   -6.4952    4.5000    0.0000 C   0  0  0  0  0  0  0  0  0  0  0  0
    2.5981    3.7500    0.0000 C   0  0  0  0  0  0  0  0  0  0  0  0
   -5.1962    3.7500    0.0000 C   0  0  0  0  0  0  0  0  0  0  0  0
   -3.8971    4.5000    0.0000 C   0  0  0  0  0  0  0  0  0  0  0  0
   -2.5981    3.7500    0.0000 C   0  0  0  0  0  0  0  0  0  0  0  0
   -1.2990    4.5000    0.0000 C   0  0  0  0  0  0  0  0  0  0  0  0
    0.0000    3.7500    0.0000 C   0  0  0  0  0  0  0  0  0  0  0  0
   -0.0000    2.2500    0.0000 O   0  0  0  0  0  0  0  0  0  0  0  0
    1.2990    4.5000    0.0000 O   0  0  0  0  0  0  0  0  0  0  0  0
  3  1  1  0
  3  4  2  0
  5  4  1  0
  5  6  2  0
  7  6  1  0
  8  7  2  0
  9  2  1  0
  9  7  1  0
M  END
>  <NAME>  (2013) 
METHYL 2,4-HEXADIENOATE

>  <SYNONYMS>  (2013) 
METHYL SORBATE

>  <SPECTRUM TYPE>  (2013) 
MS1

>  <INSTRUMENT TYPE>  (2013) 
EI-B

>  <INSTRUMENT>  (2013) 
HITACHI M-80B

>  <ION MODE>  (2013) 
P

>  <INCHIKEY>  (2013) 
KWKVAGQCDSHWFK-VNKDHWASSA-N

>  <FORMULA>  (2013) 
C7H10O2

>  <EXACT MASS>  (2013) 
126.06807956

>  <MW>  (2013) 
126

>  <ID>  (2013) 
JP009236

>  <CONTRIBUTOR>  (2013) 
University of Tokyo Team, {Faculty of Engineering, University of Tokyo

>  <COMMENT>  (2013) 
SMILES=CC=CC=CC(=O)OC
InChI=InChI=1S/C7H10O2/c1-3-4-5-6-7(8)9-2/h3-6H,1-2H3/b4-3+,6-5+
computed SMILES=O=C(OC)C=CC=CC
accession=JP009236
author=SODA AROMATIC CO., LTD.
date=2016.01.19 (Created 2008.10.21, modified 2011.05.06)
license=CC BY-NC-SA
exact mass=126.06808
ionization energy=70 eV
ion type=[M]+*
computed spectral entropy=2.7396280837452767
computed normalized entropy=0.7239669120145508
SPLASH=splash10-014i-9100000000-6c402f3f828ad7813f02
submitter=submitter = University of Tokyo Team (Faculty of Engineering, University of Tokyo)
MoNA Rating=3.75

>  <NUM PEAKS>  (2013) 
44

>  <MASS SPECTRAL PEAKS>  (2013) 
15 15.6
26 3
27 13.4
29 0.94
30 1.8
31 2.4
37 2.5
38 1.03
39 63.9
41 63.8
42 2.6
43 0.45
45 1.1
50 3.8
51 9.1
52 0.3
53 5.3
54 1
55 9.6
59 0.89
61 1.4
62 2.7
63 7.1
64 0.15
65 23.8
66 32.8
67 99.99
68 0.8
69 1.4
72 2.7
79 2
81 0.19
83 5.3
85 1
93 1.8
94 0.23
95 63.6
96 4.6
97 2.1
111 7.79
112 5.5
125 3.6
126 43.2
127 3

$$$$

     RDKit          2D

 18 18  0  0  0  0  0  0  0  0999 V2000
    5.5216    4.2579    0.0000 C   0  0  0  0  0  0  0  0  0  0  0  0
    1.6245    2.0079    0.0000 C   0  0  0  0  0  0  0  0  0  0  0  0
    4.2226    5.0079    0.0000 C   0  0  0  0  0  0  0  0  0  0  0  0
    0.3255    2.7579    0.0000 C   0  0  0  0  0  0  0  0  0  0  0  0
    2.9236    4.2579    0.0000 C   0  0  0  0  0  0  0  0  0  0  0  0
   -8.7678    6.5079    0.0000 C   0  0  0  0  0  0  0  0  0  0  0  0
   -8.7683    5.0071    0.0000 C   0  0  0  0  0  0  0  0  0  0  0  0
   -7.4683    7.2587    0.0000 C   0  0  0  0  0  0  0  0  0  0  0  0
   -7.4692    4.2571    0.0000 C   0  0  0  0  0  0  0  0  0  0  0  0
   -6.1692    6.5087    0.0000 C   0  0  0  0  0  0  0  0  0  0  0  0
    1.6245    5.0079    0.0000 C   0  0  0  0  0  0  0  0  0  0  0  0
   -4.8707    4.2579    0.0000 C   0  0  0  0  0  0  0  0  0  0  0  0
   -3.5716    5.0079    0.0000 C   0  0  0  0  0  0  0  0  0  0  0  0
   -6.1697    5.0079    0.0000 C   0  0  0  0  0  0  0  0  0  0  0  0
    0.3255    4.2579    0.0000 C   0  0  0  0  0  0  0  0  0  0  0  0
   -0.9736    5.0079    0.0000 C   0  0  0  0  0  0  0  0  0  0  0  0
   -0.9736    6.5079    0.0000 O   0  0  0  0  0  0  0  0  0  0  0  0
   -2.2726    4.2579    0.0000 O   0  0  0  0  0  0  0  0  0  0  0  0
  3  1  1  0
  4  2  1  0
  5  3  1  0
  7  6  2  0
  8  6  1  0
  9  7  1  0
 10  8  2  0
 11  5  1  0
 13 12  1  0
 14  9  2  0
 14 10  1  0
 14 12  1  0
 15  4  1  0
 15 11  1  0
 16 15  1  0
 17 16  2  0
 18 13  1  0
 18 16  1  0
M  END
>  <NAME>  (2014) 
PHENYLETHYL 2-ETHYLHEXANOATE

>  <SYNONYMS>  (2014) 


>  <SPECTRUM TYPE>  (2014) 
MS1

>  <INSTRUMENT TYPE>  (2014) 
EI-B

>  <INSTRUMENT>  (2014) 
HITACHI M-80B

>  <ION MODE>  (2014) 
P

>  <INCHIKEY>  (2014) 
DLUUSIFAGWCEES-UHFFFAOYSA-N

>  <FORMULA>  (2014) 
C16H24O2

>  <EXACT MASS>  (2014) 
248.177630008

>  <MW>  (2014) 
248

>  <ID>  (2014) 
JP009235

>  <CONTRIBUTOR>  (2014) 
University of Tokyo Team, {Faculty of Engineering, University of Tokyo

>  <COMMENT>  (2014) 
SMILES=CCCCC(CC)C(=O)OCCc(c1)cccc1
InChI=InChI=1S/C16H24O2/c1-3-5-11-15(4-2)16(17)18-13-12-14-9-7-6-8-10-14/h6-10,15H,3-5,11-13H2,1-2H3
computed SMILES=O=C(OCCC=1C=CC=CC1)C(CC)CCCC
accession=JP009235
date=2016.01.19 (Created 2008.10.21, modified 2011.05.06)
author=SODA AROMATIC CO., LTD.
license=CC BY-NC-SA
exact mass=248.17763
ionization energy=70 eV
ion type=[M]+*
computed spectral entropy=1.545460426584299
computed normalized entropy=0.5248743266609699
SPLASH=splash10-0udi-2900000000-6c1750c7b3051ce181e5
submitter=submitter = University of Tokyo Team (Faculty of Engineering, University of Tokyo)
MoNA Rating=3.75

>  <NUM PEAKS>  (2014) 
19

>  <MASS SPECTRAL PEAKS>  (2014) 
27 2.9
29 3.5
39 1.7
41 0.69
43 5.9
51 1.2
55 3.8
57 1.99
65 1.4
77 3.9
78 1.6
79 0.24
91 4
99 1.3
103 2.3
104 99.99
105 21.4
106 1.3
127 1.1

$$$$

     RDKit          2D

 12 11  0  0  0  0  0  0  0  0999 V2000
   -3.8971    3.7500    0.0000 C   0  0  0  0  0  0  0  0  0  0  0  0
    6.4952    6.7500    0.0000 C   0  0  0  0  0  0  0  0  0  0  0  0
   -2.5981    4.5000    0.0000 C   0  0  0  0  0  0  0  0  0  0  0  0
   -2.5981    6.0000    0.0000 C   0  0  0  0  0  0  0  0  0  0  0  0
   -1.2990    6.7500    0.0000 C   0  0  0  0  0  0  0  0  0  0  0  0
    0.0000    6.0000    0.0000 C   0  0  0  0  0  0  0  0  0  0  0  0
    1.2990    6.7500    0.0000 C   0  0  0  0  0  0  0  0  0  0  0  0
    5.1962    6.0000    0.0000 C   0  0  0  0  0  0  0  0  0  0  0  0
    3.8971    6.7500    0.0000 C   0  0  0  0  0  0  0  0  0  0  0  0
    5.1962    4.5000    0.0000 O   0  0  0  0  0  0  0  0  0  0  0  0
    3.8971    8.2500    0.0000 O   0  0  0  0  0  0  0  0  0  0  0  0
    2.5981    6.0000    0.0000 O   0  0  0  0  0  0  0  0  0  0  0  0
  3  1  1  0
  4  3  1  0
  4  5  2  0
  6  5  1  0
  7  6  1  0
  8  2  1  0
  9  8  1  0
 10  8  2  0
 11  9  2  0
 12  7  1  0
 12  9  1  0
M  END
>  <NAME>  (2015) 
CIS-3-HEXENYL 2-OXOPROPANOATE

>  <SYNONYMS>  (2015) 
CIS-3-HEXENYL PYRUVATE

>  <SPECTRUM TYPE>  (2015) 
MS1

>  <INSTRUMENT TYPE>  (2015) 
EI-B

>  <INSTRUMENT>  (2015) 
HITACHI M-80B

>  <ION MODE>  (2015) 
P

>  <INCHIKEY>  (2015) 
LKNXTZXOBHAYSR-PLNGDYQASA-N

>  <FORMULA>  (2015) 
C9H14O3

>  <EXACT MASS>  (2015) 
170.09429430799997

>  <MW>  (2015) 
170

>  <ID>  (2015) 
JP009234

>  <CONTRIBUTOR>  (2015) 
University of Tokyo Team, {Faculty of Engineering, University of Tokyo

>  <COMMENT>  (2015) 
SMILES=CCC=CCCOC(=O)C(C)=O
InChI=InChI=1S/C9H14O3/c1-3-4-5-6-7-12-9(11)8(2)10/h4-5H,3,6-7H2,1-2H3/b5-4-
computed SMILES=O=C(OCCC=CCC)C(=O)C
accession=JP009234
date=2016.01.19 (Created 2008.10.21, modified 2011.05.06)
author=SODA AROMATIC CO., LTD.
license=CC BY-NC-SA
exact mass=170.09429
ionization energy=70 eV
ion type=[M]+*
computed spectral entropy=2.2885523693409335
computed normalized entropy=0.7024200611104925
SPLASH=splash10-0006-9000000000-b62ed55a2a7c2b31d8e5
submitter=submitter = University of Tokyo Team (Faculty of Engineering, University of Tokyo)
MoNA Rating=3.75

>  <NUM PEAKS>  (2015) 
26

>  <MASS SPECTRAL PEAKS>  (2015) 
14 3
15 7.6
26 1.6
27 1.47
29 9.1
38 1.2
39 19.9
41 5.9
42 5.7
43 99.99
44 2.6
51 0.21
52 1.4
53 6.7
54 5.3
55 9.09
56 3.6
65 1.6
67 32.8
68 0.25
69 1.5
79 1.2
81 11.2
82 4.09
83 8.1
99 2.2

$$$$

     RDKit          2D

 11 10  0  0  0  0  0  0  0  0999 V2000
   -6.4952    4.5000    0.0000 C   0  0  0  0  0  0  0  0  0  0  0  0
   -5.1962    2.2500    0.0000 C   0  0  0  0  0  0  0  0  0  0  0  0
    2.5981    3.7500    0.0000 C   0  0  0  0  0  0  0  0  0  0  0  0
    0.0000    3.7500    0.0000 C   0  0  0  0  0  0  0  0  0  0  0  0
   -1.2990    4.5000    0.0000 C   0  0  0  0  0  0  0  0  0  0  0  0
   -5.1962    3.7500    0.0000 C   0  0  0  0  0  0  0  0  0  0  0  0
    1.2990    4.5000    0.0000 C   0  0  0  0  0  0  0  0  0  0  0  0
   -2.5981    3.7500    0.0000 C   0  0  0  0  0  0  0  0  0  0  0  0
    1.2990    6.0000    0.0000 O   0  0  0  0  0  0  0  0  0  0  0  0
   -2.5981    2.2500    0.0000 O   0  0  0  0  0  0  0  0  0  0  0  0
   -3.8971    4.5000    0.0000 O   0  0  0  0  0  0  0  0  0  0  0  0
  5  4  1  0
  6  1  1  0
  6  2  1  0
  7  3  1  0
  7  4  1  0
  8  5  1  0
  9  7  2  0
 10  8  2  0
 11  6  1  0
 11  8  1  0
M  END
>  <NAME>  (2016) 
ISOPROPYL 4-OXOPENTANOATE

>  <SYNONYMS>  (2016) 
ISOPROPYL LEVULINATE

>  <SPECTRUM TYPE>  (2016) 
MS1

>  <INSTRUMENT TYPE>  (2016) 
EI-B

>  <INSTRUMENT>  (2016) 
HITACHI M-80B

>  <ION MODE>  (2016) 
P

>  <INCHIKEY>  (2016) 
MGJRGGIHFUREHT-UHFFFAOYSA-N

>  <FORMULA>  (2016) 
C8H14O3

>  <EXACT MASS>  (2016) 
158.09429430799997

>  <MW>  (2016) 
158

>  <ID>  (2016) 
JP009233

>  <CONTRIBUTOR>  (2016) 
University of Tokyo Team, {Faculty of Engineering, University of Tokyo

>  <COMMENT>  (2016) 
SMILES=CC(=O)CCC(=O)OC(C)C
InChI=InChI=1S/C8H14O3/c1-6(2)11-8(10)5-4-7(3)9/h6H,4-5H2,1-3H3
computed SMILES=O=C(OC(C)C)CCC(=O)C
accession=JP009233
date=2016.01.19 (Created 2008.10.21, modified 2011.05.06)
author=SODA AROMATIC CO., LTD.
license=CC BY-NC-SA
exact mass=158.09429
ionization energy=70 eV
ion type=[M]+*
computed spectral entropy=2.3164820592403785
computed normalized entropy=0.6810783966052333
SPLASH=splash10-0007-9000000000-e81642cd3310f18e5d96
submitter=submitter = University of Tokyo Team (Faculty of Engineering, University of Tokyo)
MoNA Rating=3.75

>  <NUM PEAKS>  (2016) 
30

>  <MASS SPECTRAL PEAKS>  (2016) 
15 6.2
26 1.6
27 14.6
29 0.35
39 7.2
41 14.8
42 6.5
43 99.99
44 2.6
45 2.5
55 6.9
56 1.35
57 2.7
58 1.4
59 2.6
61 0.28
71 8.6
72 2.7
73 6.2
74 2.45
75 2.1
98 2.5
99 69.6
100 0.47
101 13.8
103 1.4
116 6.8
117 0.74
130 1.7
143 3.1

$$$$

     RDKit          2D

 11 10  0  0  0  0  0  0  0  0999 V2000
    2.5981    4.5000    0.0000 C   0  0  0  0  0  0  0  0  0  0  0  0
   -7.7942    4.5000    0.0000 C   0  0  0  0  0  0  0  0  0  0  0  0
    1.2990    5.2500    0.0000 C   0  0  0  0  0  0  0  0  0  0  0  0
   -5.1962    4.5000    0.0000 C   0  0  0  0  0  0  0  0  0  0  0  0
   -3.8971    5.2500    0.0000 C   0  0  0  0  0  0  0  0  0  0  0  0
    0.0000    4.5000    0.0000 C   0  0  0  0  0  0  0  0  0  0  0  0
   -6.4952    5.2500    0.0000 C   0  0  0  0  0  0  0  0  0  0  0  0
   -2.5981    4.5000    0.0000 C   0  0  0  0  0  0  0  0  0  0  0  0
   -6.4952    6.7500    0.0000 O   0  0  0  0  0  0  0  0  0  0  0  0
   -2.5981    3.0000    0.0000 O   0  0  0  0  0  0  0  0  0  0  0  0
   -1.2990    5.2500    0.0000 O   0  0  0  0  0  0  0  0  0  0  0  0
  3  1  1  0
  5  4  1  0
  6  3  1  0
  7  2  1  0
  7  4  1  0
  8  5  1  0
  9  7  2  0
 10  8  2  0
 11  6  1  0
 11  8  1  0
M  END
>  <NAME>  (2017) 
PROPYL 4-OXOPENTANOATE

>  <SYNONYMS>  (2017) 
PROPYL LEVULINATE

>  <SPECTRUM TYPE>  (2017) 
MS1

>  <INSTRUMENT TYPE>  (2017) 
EI-B

>  <INSTRUMENT>  (2017) 
HITACHI M-80B

>  <ION MODE>  (2017) 
P

>  <INCHIKEY>  (2017) 
QOSMNYMQXIVWKY-UHFFFAOYSA-N

>  <FORMULA>  (2017) 
C8H14O3

>  <EXACT MASS>  (2017) 
158.09429430799997

>  <MW>  (2017) 
158

>  <ID>  (2017) 
JP009232

>  <CONTRIBUTOR>  (2017) 
University of Tokyo Team, {Faculty of Engineering, University of Tokyo

>  <COMMENT>  (2017) 
SMILES=CCCOC(=O)CCC(C)=O
InChI=InChI=1S/C8H14O3/c1-3-6-11-8(10)5-4-7(2)9/h3-6H2,1-2H3
computed SMILES=O=C(OCCC)CCC(=O)C
accession=JP009232
date=2016.01.19 (Created 2008.10.21, modified 2011.05.06)
author=SODA AROMATIC CO., LTD.
license=CC BY-NC-SA
exact mass=158.09429
ionization energy=70 eV
ion type=[M]+*
computed spectral entropy=2.3549068380976235
computed normalized entropy=0.6993465846174504
SPLASH=splash10-0006-9100000000-34c91c962a120e792e12
submitter=submitter = University of Tokyo Team (Faculty of Engineering, University of Tokyo)
MoNA Rating=3.75

>  <NUM PEAKS>  (2017) 
29

>  <MASS SPECTRAL PEAKS>  (2017) 
15 4.6
26 2
27 17.7
29 0.6
31 1.8
39 5.8
41 11.6
42 0.73
43 99.99
44 1.8
45 1.3
55 0.69
56 6.1
57 2.6
58 1.2
59 0.11
61 1.1
71 8
72 1.3
73 0.61
74 26.8
75 10.3
98 4.9
99 6.53
100 3.4
101 14.4
116 7
117 0.73
143 5.2

$$$$

     RDKit          2D

 10  9  0  0  0  0  0  0  0  0999 V2000
    2.2733    4.3125    0.0000 C   0  0  0  0  0  0  0  0  0  0  0  0
   -6.8200    5.0625    0.0000 C   0  0  0  0  0  0  0  0  0  0  0  0
    0.9743    5.0625    0.0000 C   0  0  0  0  0  0  0  0  0  0  0  0
   -4.2219    5.0625    0.0000 C   0  0  0  0  0  0  0  0  0  0  0  0
   -2.9228    4.3125    0.0000 C   0  0  0  0  0  0  0  0  0  0  0  0
   -5.5209    4.3125    0.0000 C   0  0  0  0  0  0  0  0  0  0  0  0
   -1.6238    5.0625    0.0000 C   0  0  0  0  0  0  0  0  0  0  0  0
   -5.5209    2.8125    0.0000 O   0  0  0  0  0  0  0  0  0  0  0  0
   -1.6238    6.5625    0.0000 O   0  0  0  0  0  0  0  0  0  0  0  0
   -0.3248    4.3125    0.0000 O   0  0  0  0  0  0  0  0  0  0  0  0
  3  1  1  0
  5  4  1  0
  6  2  1  0
  6  4  1  0
  7  5  1  0
  8  6  2  0
  9  7  2  0
 10  3  1  0
 10  7  1  0
M  END
>  <NAME>  (2018) 
ETHYL 4-OXOPENTANOATE

>  <SYNONYMS>  (2018) 
ETHYL LEVULINATE

>  <SPECTRUM TYPE>  (2018) 
MS1

>  <INSTRUMENT TYPE>  (2018) 
EI-B

>  <INSTRUMENT>  (2018) 
HITACHI M-80B

>  <ION MODE>  (2018) 
P

>  <INCHIKEY>  (2018) 
GMEONFUTDYJSNV-UHFFFAOYSA-N

>  <FORMULA>  (2018) 
C7H12O3

>  <EXACT MASS>  (2018) 
144.07864424399997

>  <MW>  (2018) 
144

>  <ID>  (2018) 
JP009231

>  <CONTRIBUTOR>  (2018) 
University of Tokyo Team, {Faculty of Engineering, University of Tokyo

>  <COMMENT>  (2018) 
SMILES=CCOC(=O)CCC(C)=O
InChI=InChI=1S/C7H12O3/c1-3-10-7(9)5-4-6(2)8/h3-5H2,1-2H3
computed SMILES=O=C(OCC)CCC(=O)C
accession=JP009231
date=2016.01.19 (Created 2008.10.21, modified 2011.05.06)
author=SODA AROMATIC CO., LTD.
license=CC BY-NC-SA
exact mass=144.07864
ionization energy=70 eV
ion type=[M]+*
computed spectral entropy=2.481707871730461
computed normalized entropy=0.7160695278961279
SPLASH=splash10-0097-9100000000-e17c4b8e6a264be46500
submitter=submitter = University of Tokyo Team (Faculty of Engineering, University of Tokyo)
MoNA Rating=3.75

>  <NUM PEAKS>  (2018) 
32

>  <MASS SPECTRAL PEAKS>  (2018) 
15 1.9
26 2
27 10.9
28 0.7
29 15.6
30 1.3
31 1.1
39 0.16
41 1.3
42 5.8
43 99.99
44 0.22
45 8.4
55 11.6
56 7.5
57 0.79
58 1.7
61 1
71 12.4
72 0.13
73 15.4
74 22.6
75 5.3
98 1.13
99 83.4
100 4.9
101 22.7
102 1.88
103 1.4
129 28.3
130 1.8
144 6.8

$$$$

     RDKit          2D

 15 14  0  0  0  0  0  0  0  0999 V2000
  -10.3923    6.7500    0.0000 C   0  0  0  0  0  0  0  0  0  0  0  0
    3.8971    6.0000    0.0000 C   0  0  0  0  0  0  0  0  0  0  0  0
   -2.5981    8.2500    0.0000 C   0  0  0  0  0  0  0  0  0  0  0  0
   -9.0933    6.0000    0.0000 C   0  0  0  0  0  0  0  0  0  0  0  0
    2.5981    6.7500    0.0000 C   0  0  0  0  0  0  0  0  0  0  0  0
   -7.7942    6.7500    0.0000 C   0  0  0  0  0  0  0  0  0  0  0  0
    1.2990    6.0000    0.0000 C   0  0  0  0  0  0  0  0  0  0  0  0
   -6.4952    6.0000    0.0000 C   0  0  0  0  0  0  0  0  0  0  0  0
   -2.5981    6.7500    0.0000 C   0  0  0  0  0  0  0  0  0  0  0  0
    0.0000    6.7500    0.0000 C   0  0  0  0  0  0  0  0  0  0  0  0
   -3.8971    6.0000    0.0000 C   0  0  0  0  0  0  0  0  0  0  0  0
    0.0000    8.2500    0.0000 O   0  0  0  0  0  0  0  0  0  0  0  0
   -3.8971    4.5000    0.0000 O   0  0  0  0  0  0  0  0  0  0  0  0
   -5.1962    6.7500    0.0000 O   0  0  0  0  0  0  0  0  0  0  0  0
   -1.2990    6.0000    0.0000 O   0  0  0  0  0  0  0  0  0  0  0  0
  4  1  1  0
  5  2  1  0
  6  4  1  0
  7  5  1  0
  8  6  1  0
  9  3  1  0
 10  7  1  0
 11  9  1  0
 12 10  2  0
 13 11  2  0
 14  8  1  0
 14 11  1  0
 15  9  1  0
 15 10  1  0
M  END
>  <NAME>  (2019) 
BUTYL BUTYRYLLACTATE

>  <SYNONYMS>  (2019) 


>  <SPECTRUM TYPE>  (2019) 
MS1

>  <INSTRUMENT TYPE>  (2019) 
EI-B

>  <INSTRUMENT>  (2019) 
HITACHI M-80B

>  <ION MODE>  (2019) 
P

>  <INCHIKEY>  (2019) 
NORZZKKLCYMBBF-UHFFFAOYSA-N

>  <FORMULA>  (2019) 
C11H20O4

>  <EXACT MASS>  (2019) 
216.13615912

>  <MW>  (2019) 
216

>  <ID>  (2019) 
JP009230

>  <CONTRIBUTOR>  (2019) 
University of Tokyo Team, {Faculty of Engineering, University of Tokyo

>  <COMMENT>  (2019) 
SMILES=CCCCOC(=O)C(C)OC(=O)CCC
InChI=InChI=1S/C11H20O4/c1-4-6-8-14-11(13)9(3)15-10(12)7-5-2/h9H,4-8H2,1-3H3
computed SMILES=O=C(OC(C(=O)OCCCC)C)CCC
accession=JP009230
date=2016.01.19 (Created 2008.10.21, modified 2011.05.06)
author=SODA AROMATIC CO., LTD.
license=CC BY-NC-SA
exact mass=216.13616
ionization energy=70 eV
ion type=[M]+*
computed spectral entropy=1.7593823961012318
computed normalized entropy=0.5975272058785563
SPLASH=splash10-00di-9000000000-2c1d76adf09dcd7c622a
submitter=submitter = University of Tokyo Team (Faculty of Engineering, University of Tokyo)
MoNA Rating=3.75

>  <NUM PEAKS>  (2019) 
19

>  <MASS SPECTRAL PEAKS>  (2019) 
27 9.3
29 8
39 3.2
41 1.43
42 4.2
43 33
44 1.1
45 0.48
55 2.7
56 3.5
57 9
70 0.18
71 99.99
72 5.5
73 1.3
115 1.23
116 1.2
143 2.8
172 2.4

$$$$

     RDKit          2D

 15 14  0  0  0  0  0  0  0  0999 V2000
    3.8971    6.7500    0.0000 C   0  0  0  0  0  0  0  0  0  0  0  0
  -11.6913    6.7500    0.0000 C   0  0  0  0  0  0  0  0  0  0  0  0
    2.5981    7.5000    0.0000 C   0  0  0  0  0  0  0  0  0  0  0  0
    1.2990    6.7500    0.0000 C   0  0  0  0  0  0  0  0  0  0  0  0
    0.0000    7.5000    0.0000 C   0  0  0  0  0  0  0  0  0  0  0  0
   -1.2990    6.7500    0.0000 C   0  0  0  0  0  0  0  0  0  0  0  0
   -2.5981    7.5000    0.0000 C   0  0  0  0  0  0  0  0  0  0  0  0
   -3.8971    6.7500    0.0000 C   0  0  0  0  0  0  0  0  0  0  0  0
   -5.1962    7.5000    0.0000 C   0  0  0  0  0  0  0  0  0  0  0  0
   -6.4952    6.7500    0.0000 C   0  0  0  0  0  0  0  0  0  0  0  0
  -10.3923    7.5000    0.0000 C   0  0  0  0  0  0  0  0  0  0  0  0
   -9.0933    6.7500    0.0000 C   0  0  0  0  0  0  0  0  0  0  0  0
  -10.3923    9.0000    0.0000 O   0  0  0  0  0  0  0  0  0  0  0  0
   -9.0933    5.2500    0.0000 O   0  0  0  0  0  0  0  0  0  0  0  0
   -7.7942    7.5000    0.0000 O   0  0  0  0  0  0  0  0  0  0  0  0
  3  1  1  0
  4  3  1  0
  5  4  1  0
  6  5  1  0
  7  6  1  0
  8  7  1  0
  9  8  1  0
 10  9  1  0
 11  2  1  0
 12 11  1  0
 13 11  1  0
 14 12  2  0
 15 10  1  0
 15 12  1  0
M  END
>  <NAME>  (2020) 
NONYL LACTATE

>  <SYNONYMS>  (2020) 


>  <SPECTRUM TYPE>  (2020) 
MS1

>  <INSTRUMENT TYPE>  (2020) 
EI-B

>  <INSTRUMENT>  (2020) 
HITACHI M-80B

>  <ION MODE>  (2020) 
P

>  <INCHIKEY>  (2020) 
XYQKYLPARUIQOX-UHFFFAOYSA-N

>  <FORMULA>  (2020) 
C12H24O3

>  <EXACT MASS>  (2020) 
216.17254462799997

>  <MW>  (2020) 
216

>  <ID>  (2020) 
JP009229

>  <CONTRIBUTOR>  (2020) 
University of Tokyo Team, {Faculty of Engineering, University of Tokyo

>  <COMMENT>  (2020) 
SMILES=CCCCCCCCCOC(=O)C(C)O
InChI=InChI=1S/C12H24O3/c1-3-4-5-6-7-8-9-10-15-12(14)11(2)13/h11,13H,3-10H2,1-2H3
computed SMILES=O=C(OCCCCCCCCC)C(O)C
accession=JP009229
date=2016.01.19 (Created 2008.10.21, modified 2011.05.06)
author=SODA AROMATIC CO., LTD.
license=CC BY-NC-SA
exact mass=216.17254
ionization energy=70 eV
ion type=[M]+*
computed spectral entropy=2.737623398713463
computed normalized entropy=0.7234371592204927
SPLASH=splash10-052g-9000000000-6087fa7586102d199d0a
submitter=submitter = University of Tokyo Team (Faculty of Engineering, University of Tokyo)
MoNA Rating=3.75

>  <NUM PEAKS>  (2020) 
44

>  <MASS SPECTRAL PEAKS>  (2020) 
15 3.8
17 1.2
18 1.8
19 0.17
26 1.4
27 18
29 23.2
30 0.12
31 3.2
39 8.7
41 48.7
42 1.39
43 94.8
44 5.1
45 99.99
46 0.22
53 2.6
54 2.8
55 32.9
56 2.12
57 47.5
58 2
63 3.9
67 0.26
68 3.9
69 11.9
70 12
71 3.81
72 2.4
75 1.8
81 1.1
82 0.28
83 7.8
84 6.4
85 22.3
86 0.19
90 1.5
91 6
96 1.3
97 0.64
98 6.6
126 7.2
127 1.2
171 1.3

$$$$

     RDKit          2D

 12 11  0  0  0  0  0  0  0  0999 V2000
   -3.8971    3.7500    0.0000 C   0  0  0  0  0  0  0  0  0  0  0  0
    6.4952    6.7500    0.0000 C   0  0  0  0  0  0  0  0  0  0  0  0
   -2.5981    4.5000    0.0000 C   0  0  0  0  0  0  0  0  0  0  0  0
   -2.5981    6.0000    0.0000 C   0  0  0  0  0  0  0  0  0  0  0  0
   -1.2990    6.7500    0.0000 C   0  0  0  0  0  0  0  0  0  0  0  0
    0.0000    6.0000    0.0000 C   0  0  0  0  0  0  0  0  0  0  0  0
    1.2990    6.7500    0.0000 C   0  0  0  0  0  0  0  0  0  0  0  0
    5.1962    6.0000    0.0000 C   0  0  0  0  0  0  0  0  0  0  0  0
    3.8971    6.7500    0.0000 C   0  0  0  0  0  0  0  0  0  0  0  0
    5.1962    4.5000    0.0000 O   0  0  0  0  0  0  0  0  0  0  0  0
    3.8971    8.2500    0.0000 O   0  0  0  0  0  0  0  0  0  0  0  0
    2.5981    6.0000    0.0000 O   0  0  0  0  0  0  0  0  0  0  0  0
  3  1  1  0
  4  3  1  0
  4  5  2  0
  6  5  1  0
  7  6  1  0
  8  2  1  0
  9  8  1  0
 10  8  1  0
 11  9  2  0
 12  7  1  0
 12  9  1  0
M  END
>  <NAME>  (2021) 
CIS-3-HEXENYL LACTATE

>  <SYNONYMS>  (2021) 


>  <SPECTRUM TYPE>  (2021) 
MS1

>  <INSTRUMENT TYPE>  (2021) 
EI-B

>  <INSTRUMENT>  (2021) 
HITACHI M-80B

>  <ION MODE>  (2021) 
P

>  <INCHIKEY>  (2021) 
NNLLMULULOBXBY-PLNGDYQASA-N

>  <FORMULA>  (2021) 
C9H16O3

>  <EXACT MASS>  (2021) 
172.10994437199997

>  <MW>  (2021) 
172

>  <ID>  (2021) 
JP009228

>  <CONTRIBUTOR>  (2021) 
University of Tokyo Team, {Faculty of Engineering, University of Tokyo

>  <COMMENT>  (2021) 
SMILES=CCC=CCCOC(=O)C(C)O
InChI=InChI=1S/C9H16O3/c1-3-4-5-6-7-12-9(11)8(2)10/h4-5,8,10H,3,6-7H2,1-2H3/b5-4-
computed SMILES=O=C(OCCC=CCC)C(O)C
accession=JP009228
date=2016.01.19 (Created 2008.10.21, modified 2011.05.06)
author=SODA AROMATIC CO., LTD.
license=CC BY-NC-SA
exact mass=172.10994
ionization energy=70 eV
ion type=[M]+*
computed spectral entropy=2.3506642429672984
computed normalized entropy=0.6782583292247861
SPLASH=splash10-00l5-9000000000-4bdaed6e668e3ddff00c
submitter=submitter = University of Tokyo Team (Faculty of Engineering, University of Tokyo)
MoNA Rating=3.75

>  <NUM PEAKS>  (2021) 
32

>  <MASS SPECTRAL PEAKS>  (2021) 
15 2.4
19 2.6
26 1.4
27 1.9
29 13.5
30 1
31 1.7
39 1.82
41 37.8
42 6.2
43 14.8
44 0.21
45 99.99
46 1.8
51 1.8
53 0.77
54 10
55 44.6
56 3.8
57 0.12
65 1.4
66 1.2
67 82.3
68 0.54
69 2.2
70 2.3
75 2
79 0.12
81 7.1
82 82.6
83 13.6
99 3.6

$$$$

     RDKit          2D

 12 11  0  0  0  0  0  0  0  0999 V2000
    2.9228    5.4375    0.0000 C   0  0  0  0  0  0  0  0  0  0  0  0
   -8.7685    6.1875    0.0000 C   0  0  0  0  0  0  0  0  0  0  0  0
    1.6238    6.1875    0.0000 C   0  0  0  0  0  0  0  0  0  0  0  0
    0.3248    5.4375    0.0000 C   0  0  0  0  0  0  0  0  0  0  0  0
   -0.9743    6.1875    0.0000 C   0  0  0  0  0  0  0  0  0  0  0  0
   -2.2733    5.4375    0.0000 C   0  0  0  0  0  0  0  0  0  0  0  0
   -3.5724    6.1875    0.0000 C   0  0  0  0  0  0  0  0  0  0  0  0
   -7.4695    5.4375    0.0000 C   0  0  0  0  0  0  0  0  0  0  0  0
   -6.1704    6.1875    0.0000 C   0  0  0  0  0  0  0  0  0  0  0  0
   -7.4695    3.9375    0.0000 O   0  0  0  0  0  0  0  0  0  0  0  0
   -6.1704    7.6875    0.0000 O   0  0  0  0  0  0  0  0  0  0  0  0
   -4.8714    5.4375    0.0000 O   0  0  0  0  0  0  0  0  0  0  0  0
  3  1  1  0
  4  3  1  0
  5  4  1  0
  5  6  2  0
  7  6  1  0
  8  2  1  0
  9  8  1  0
 10  8  1  0
 11  9  2  0
 12  7  1  0
 12  9  1  0
M  END
>  <NAME>  (2022) 
TRANS-2-HEXENYL LACTATE

>  <SYNONYMS>  (2022) 


>  <SPECTRUM TYPE>  (2022) 
MS1

>  <INSTRUMENT TYPE>  (2022) 
EI-B

>  <INSTRUMENT>  (2022) 
HITACHI M-80B

>  <ION MODE>  (2022) 
P

>  <INCHIKEY>  (2022) 
CLRYHPFNHRAPPN-AATRIKPKSA-N

>  <FORMULA>  (2022) 
C9H16O3

>  <EXACT MASS>  (2022) 
172.10994437199997

>  <MW>  (2022) 
172

>  <ID>  (2022) 
JP009227

>  <CONTRIBUTOR>  (2022) 
University of Tokyo Team, {Faculty of Engineering, University of Tokyo

>  <COMMENT>  (2022) 
SMILES=CCCC=CCOC(=O)C(C)O
InChI=InChI=1S/C9H16O3/c1-3-4-5-6-7-12-9(11)8(2)10/h5-6,8,10H,3-4,7H2,1-2H3/b6-5+
computed SMILES=O=C(OCC=CCCC)C(O)C
accession=JP009227
date=2016.01.19 (Created 2008.10.21, modified 2011.05.06)
author=SODA AROMATIC CO., LTD.
license=CC BY-NC-SA
exact mass=172.10994
ionization energy=70 eV
ion type=[M]+*
computed spectral entropy=2.485386141220118
computed normalized entropy=0.7108196100047085
SPLASH=splash10-052b-9000000000-a889e0d37486c46bd9f3
submitter=submitter = University of Tokyo Team (Faculty of Engineering, University of Tokyo)
MoNA Rating=3.75

>  <NUM PEAKS>  (2022) 
33

>  <MASS SPECTRAL PEAKS>  (2022) 
15 2.8
18 1.4
19 2.2
26 0.17
27 19.2
29 14.7
31 1
38 0.11
39 18.2
41 45.1
42 4.1
43 1.35
44 6.4
45 99.99
46 1.9
50 0.13
51 2.1
52 1.2
53 6.6
54 0.94
55 48.5
56 6.8
57 10
65 0.18
67 20.3
68 1.2
71 1.5
81 0.26
82 8.5
83 32.2
84 2.8
99 0.12
100 1

$$$$

     RDKit          2D

 11 10  0  0  0  0  0  0  0  0999 V2000
   -6.4952    4.5000    0.0000 C   0  0  0  0  0  0  0  0  0  0  0  0
   -5.1962    2.2500    0.0000 C   0  0  0  0  0  0  0  0  0  0  0  0
    2.5981    3.7500    0.0000 C   0  0  0  0  0  0  0  0  0  0  0  0
   -3.8971    4.5000    0.0000 C   0  0  0  0  0  0  0  0  0  0  0  0
   -2.5981    3.7500    0.0000 C   0  0  0  0  0  0  0  0  0  0  0  0
   -5.1962    3.7500    0.0000 C   0  0  0  0  0  0  0  0  0  0  0  0
    1.2990    4.5000    0.0000 C   0  0  0  0  0  0  0  0  0  0  0  0
    0.0000    3.7500    0.0000 C   0  0  0  0  0  0  0  0  0  0  0  0
    1.2990    6.0000    0.0000 O   0  0  0  0  0  0  0  0  0  0  0  0
   -0.0000    2.2500    0.0000 O   0  0  0  0  0  0  0  0  0  0  0  0
   -1.2990    4.5000    0.0000 O   0  0  0  0  0  0  0  0  0  0  0  0
  5  4  1  0
  6  1  1  0
  6  2  1  0
  6  4  1  0
  7  3  1  0
  8  7  1  0
  9  7  1  0
 10  8  2  0
 11  5  1  0
 11  8  1  0
M  END
>  <NAME>  (2023) 
3-METHYLBUTYL LACTATE

>  <SYNONYMS>  (2023) 
ISOAMYL LACTATE

>  <SPECTRUM TYPE>  (2023) 
MS1

>  <INSTRUMENT TYPE>  (2023) 
EI-B

>  <INSTRUMENT>  (2023) 
HITACHI M-80B

>  <ION MODE>  (2023) 
P

>  <INCHIKEY>  (2023) 
CRORGGSWAKIXSA-UHFFFAOYSA-N

>  <FORMULA>  (2023) 
C8H16O3

>  <EXACT MASS>  (2023) 
160.10994437199997

>  <MW>  (2023) 
160

>  <ID>  (2023) 
JP009226

>  <CONTRIBUTOR>  (2023) 
University of Tokyo Team, {Faculty of Engineering, University of Tokyo

>  <COMMENT>  (2023) 
SMILES=CC(C)CCOC(=O)C(C)O
InChI=InChI=1S/C8H16O3/c1-6(2)4-5-11-8(10)7(3)9/h6-7,9H,4-5H2,1-3H3
computed SMILES=O=C(OCCC(C)C)C(O)C
computed spectral entropy=2.0101413733842146
accession=JP009226
date=2016.01.19 (Created 2008.10.21, modified 2011.05.06)
author=SODA AROMATIC CO., LTD.
license=CC BY-NC-SA
exact mass=160.10994
ionization energy=70 eV
ion type=[M]+*
computed normalized entropy=0.6325070249562564
SPLASH=splash10-0005-9000000000-b5e66780d59559b2e8b9
submitter=submitter = University of Tokyo Team (Faculty of Engineering, University of Tokyo)
MoNA Rating=3.75

>  <NUM PEAKS>  (2023) 
24

>  <MASS SPECTRAL PEAKS>  (2023) 
15 2.1
19 1.8
26 1.1
27 1.46
29 11.8
31 1.7
39 7.9
41 1.91
42 6.5
43 64.2
44 3.3
45 99.99
46 2.3
53 1.3
55 19.1
56 0.26
57 1.8
63 1
69 2.1
70 2.74
71 21
72 1.2
75 2.6
91 1.3

$$$$

     RDKit          2D

 12 11  0  0  0  0  0  0  0  0999 V2000
    2.9228    5.4375    0.0000 C   0  0  0  0  0  0  0  0  0  0  0  0
   -8.7685    6.1875    0.0000 C   0  0  0  0  0  0  0  0  0  0  0  0
    1.6238    6.1875    0.0000 C   0  0  0  0  0  0  0  0  0  0  0  0
    0.3248    5.4375    0.0000 C   0  0  0  0  0  0  0  0  0  0  0  0
   -0.9743    6.1875    0.0000 C   0  0  0  0  0  0  0  0  0  0  0  0
   -2.2733    5.4375    0.0000 C   0  0  0  0  0  0  0  0  0  0  0  0
   -3.5724    6.1875    0.0000 C   0  0  0  0  0  0  0  0  0  0  0  0
   -7.4695    5.4375    0.0000 C   0  0  0  0  0  0  0  0  0  0  0  0
   -6.1704    6.1875    0.0000 C   0  0  0  0  0  0  0  0  0  0  0  0
   -7.4695    3.9375    0.0000 O   0  0  0  0  0  0  0  0  0  0  0  0
   -6.1704    7.6875    0.0000 O   0  0  0  0  0  0  0  0  0  0  0  0
   -4.8714    5.4375    0.0000 O   0  0  0  0  0  0  0  0  0  0  0  0
  3  1  1  0
  4  3  1  0
  5  4  1  0
  6  5  1  0
  7  6  1  0
  8  2  1  0
  9  8  1  0
 10  8  1  0
 11  9  2  0
 12  7  1  0
 12  9  1  0
M  END
>  <NAME>  (2024) 
HEXYL LACTATE

>  <SYNONYMS>  (2024) 


>  <SPECTRUM TYPE>  (2024) 
MS1

>  <INSTRUMENT TYPE>  (2024) 
EI-B

>  <INSTRUMENT>  (2024) 
HITACHI M-80B

>  <ION MODE>  (2024) 
P

>  <INCHIKEY>  (2024) 
KDPXOGYCOOUWOS-UHFFFAOYSA-N

>  <FORMULA>  (2024) 
C9H18O3

>  <EXACT MASS>  (2024) 
174.12559443599997

>  <MW>  (2024) 
174

>  <ID>  (2024) 
JP009225

>  <CONTRIBUTOR>  (2024) 
University of Tokyo Team, {Faculty of Engineering, University of Tokyo

>  <COMMENT>  (2024) 
SMILES=CCCCCCOC(=O)C(C)O
InChI=InChI=1S/C9H18O3/c1-3-4-5-6-7-12-9(11)8(2)10/h8,10H,3-7H2,1-2H3
computed SMILES=O=C(OCCCCCC)C(O)C
accession=JP009225
date=2016.01.19 (Created 2008.10.21, modified 2011.05.06)
author=SODA AROMATIC CO., LTD.
license=CC BY-NC-SA
exact mass=174.12559
ionization energy=70 eV
ion type=[M]+*
computed spectral entropy=2.0141854572646207
computed normalized entropy=0.6516201209324299
SPLASH=splash10-0005-9000000000-0bf6b012463f8a59e474
submitter=submitter = University of Tokyo Team (Faculty of Engineering, University of Tokyo)
MoNA Rating=3.75

>  <NUM PEAKS>  (2024) 
22

>  <MASS SPECTRAL PEAKS>  (2024) 
15 1.1
19 1.4
27 12.2
29 1.04
31 1.2
39 5.4
41 18.5
42 0.68
43 55.3
44 3.4
45 99.99
46 0.19
55 9.1
56 11.2
57 7.5
63 0.17
69 3.6
75 1.9
84 13.8
85 0.98
91 2.3
113 1.2

$$$$

     RDKit          2D

 11 10  0  0  0  0  0  0  0  0999 V2000
    2.5981    4.5000    0.0000 C   0  0  0  0  0  0  0  0  0  0  0  0
   -7.7942    4.5000    0.0000 C   0  0  0  0  0  0  0  0  0  0  0  0
    1.2990    5.2500    0.0000 C   0  0  0  0  0  0  0  0  0  0  0  0
    0.0000    4.5000    0.0000 C   0  0  0  0  0  0  0  0  0  0  0  0
   -1.2990    5.2500    0.0000 C   0  0  0  0  0  0  0  0  0  0  0  0
   -2.5981    4.5000    0.0000 C   0  0  0  0  0  0  0  0  0  0  0  0
   -6.4952    5.2500    0.0000 C   0  0  0  0  0  0  0  0  0  0  0  0
   -5.1962    4.5000    0.0000 C   0  0  0  0  0  0  0  0  0  0  0  0
   -6.4952    6.7500    0.0000 O   0  0  0  0  0  0  0  0  0  0  0  0
   -5.1962    3.0000    0.0000 O   0  0  0  0  0  0  0  0  0  0  0  0
   -3.8971    5.2500    0.0000 O   0  0  0  0  0  0  0  0  0  0  0  0
  3  1  1  0
  4  3  1  0
  5  4  1  0
  6  5  1  0
  7  2  1  0
  8  7  1  0
  9  7  1  0
 10  8  2  0
 11  6  1  0
 11  8  1  0
M  END
>  <NAME>  (2025) 
PENTYL LACTATE

>  <SYNONYMS>  (2025) 
AMYL LACTATE

>  <SPECTRUM TYPE>  (2025) 
MS1

>  <INSTRUMENT TYPE>  (2025) 
EI-B

>  <INSTRUMENT>  (2025) 
HITACHI M-80B

>  <ION MODE>  (2025) 
P

>  <INCHIKEY>  (2025) 
GXOHBWLPQHTYPF-UHFFFAOYSA-N

>  <FORMULA>  (2025) 
C8H16O3

>  <EXACT MASS>  (2025) 
160.109944372

>  <MW>  (2025) 
160

>  <ID>  (2025) 
JP009224

>  <CONTRIBUTOR>  (2025) 
University of Tokyo Team, {Faculty of Engineering, University of Tokyo

>  <COMMENT>  (2025) 
SMILES=CCCCCOC(=O)C(C)O
InChI=InChI=1S/C8H16O3/c1-3-4-5-6-11-8(10)7(2)9/h7,9H,3-6H2,1-2H3
computed SMILES=O=C(OCCCCC)C(O)C
accession=JP009224
date=2016.01.19 (Created 2008.10.21, modified 2011.05.06)
author=SODA AROMATIC CO., LTD.
license=CC BY-NC-SA
exact mass=160.10994
ionization energy=70 eV
ion type=[M]+*
computed spectral entropy=1.9193920962050335
computed normalized entropy=0.6209530037737518
SPLASH=splash10-0005-9000000000-b2b013676cb89ef5f7b1
submitter=submitter = University of Tokyo Team (Faculty of Engineering, University of Tokyo)
MoNA Rating=3.75

>  <NUM PEAKS>  (2025) 
22

>  <MASS SPECTRAL PEAKS>  (2025) 
15 1.5
19 1.5
27 12.9
29 1.05
31 1.2
39 5.2
41 13.7
42 0.73
43 43.9
44 2.6
45 99.99
46 0.21
55 8
56 1.7
63 1
69 0.15
70 13.8
71 10.7
75 2.4
85 0.23
91 1.6
99 1.5

$$$$

     RDKit          2D

 10  9  0  0  0  0  0  0  0  0999 V2000
   -7.4695    3.9375    0.0000 C   0  0  0  0  0  0  0  0  0  0  0  0
    1.6238    3.1875    0.0000 C   0  0  0  0  0  0  0  0  0  0  0  0
   -6.1704    3.1875    0.0000 C   0  0  0  0  0  0  0  0  0  0  0  0
   -4.8714    3.9375    0.0000 C   0  0  0  0  0  0  0  0  0  0  0  0
   -3.5724    3.1875    0.0000 C   0  0  0  0  0  0  0  0  0  0  0  0
    0.3248    3.9375    0.0000 C   0  0  0  0  0  0  0  0  0  0  0  0
   -0.9743    3.1875    0.0000 C   0  0  0  0  0  0  0  0  0  0  0  0
    0.3248    5.4375    0.0000 O   0  0  0  0  0  0  0  0  0  0  0  0
   -0.9743    1.6875    0.0000 O   0  0  0  0  0  0  0  0  0  0  0  0
   -2.2733    3.9375    0.0000 O   0  0  0  0  0  0  0  0  0  0  0  0
  3  1  1  0
  4  3  1  0
  5  4  1  0
  6  2  1  0
  7  6  1  0
  8  6  1  0
  9  7  2  0
 10  5  1  0
 10  7  1  0
M  END
>  <NAME>  (2026) 
BUTYL LACTATE

>  <SYNONYMS>  (2026) 


>  <SPECTRUM TYPE>  (2026) 
MS1

>  <INSTRUMENT TYPE>  (2026) 
EI-B

>  <INSTRUMENT>  (2026) 
HITACHI M-80B

>  <ION MODE>  (2026) 
P

>  <INCHIKEY>  (2026) 
MRABAEUHTLLEML-UHFFFAOYSA-N

>  <FORMULA>  (2026) 
C7H14O3

>  <EXACT MASS>  (2026) 
146.09429430799997

>  <MW>  (2026) 
146

>  <ID>  (2026) 
JP009223

>  <CONTRIBUTOR>  (2026) 
University of Tokyo Team, {Faculty of Engineering, University of Tokyo

>  <COMMENT>  (2026) 
SMILES=CCCCOC(=O)C(C)O
InChI=InChI=1S/C7H14O3/c1-3-4-5-10-7(9)6(2)8/h6,8H,3-5H2,1-2H3
computed SMILES=O=C(OCCCC)C(O)C
accession=JP009223
date=2016.01.19 (Created 2008.10.21, modified 2011.05.06)
author=SODA AROMATIC CO., LTD.
license=CC BY-NC-SA
exact mass=146.09429
ionization energy=70 eV
ion type=[M]+*
computed spectral entropy=1.7967352479464707
computed normalized entropy=0.5997649602428963
SPLASH=splash10-0002-9000000000-9c99e5b0f34ee8b651db
submitter=submitter = University of Tokyo Team (Faculty of Engineering, University of Tokyo)
MoNA Rating=3.75

>  <NUM PEAKS>  (2026) 
20

>  <MASS SPECTRAL PEAKS>  (2026) 
15 1.6
19 1.6
26 1.2
27 1.1
29 16
30 1
31 1.5
32 0.14
39 4.5
41 18.2
42 1.7
43 0.83
44 1.6
45 99.99
46 2.1
55 0.27
56 8.8
57 20.7
75 4.5
85 5

$$$$

     RDKit          2D

  9  8  0  0  0  0  0  0  0  0999 V2000
    1.9486    3.3750    0.0000 C   0  0  0  0  0  0  0  0  0  0  0  0
   -5.8457    3.3750    0.0000 C   0  0  0  0  0  0  0  0  0  0  0  0
    0.6495    4.1250    0.0000 C   0  0  0  0  0  0  0  0  0  0  0  0
   -0.6495    3.3750    0.0000 C   0  0  0  0  0  0  0  0  0  0  0  0
   -4.5466    4.1250    0.0000 C   0  0  0  0  0  0  0  0  0  0  0  0
   -3.2476    3.3750    0.0000 C   0  0  0  0  0  0  0  0  0  0  0  0
   -4.5466    5.6250    0.0000 O   0  0  0  0  0  0  0  0  0  0  0  0
   -3.2476    1.8750    0.0000 O   0  0  0  0  0  0  0  0  0  0  0  0
   -1.9486    4.1250    0.0000 O   0  0  0  0  0  0  0  0  0  0  0  0
  3  1  1  0
  4  3  1  0
  5  2  1  0
  6  5  1  0
  7  5  1  0
  8  6  2  0
  9  4  1  0
  9  6  1  0
M  END
>  <NAME>  (2027) 
PROPYL LACTATE

>  <SYNONYMS>  (2027) 


>  <SPECTRUM TYPE>  (2027) 
MS1

>  <INSTRUMENT TYPE>  (2027) 
EI-B

>  <INSTRUMENT>  (2027) 
HITACHI M-80B

>  <ION MODE>  (2027) 
P

>  <INCHIKEY>  (2027) 
ILVGAIQLOCKNQA-UHFFFAOYSA-N

>  <FORMULA>  (2027) 
C6H12O3

>  <EXACT MASS>  (2027) 
132.07864424399997

>  <MW>  (2027) 
132

>  <ID>  (2027) 
JP009222

>  <CONTRIBUTOR>  (2027) 
University of Tokyo Team, {Faculty of Engineering, University of Tokyo

>  <COMMENT>  (2027) 
SMILES=CCCOC(=O)C(C)O
InChI=InChI=1S/C6H12O3/c1-3-4-9-6(8)5(2)7/h5,7H,3-4H2,1-2H3
computed SMILES=O=C(OCCC)C(O)C
accession=JP009222
date=2016.01.19 (Created 2008.10.21, modified 2011.05.06)
author=SODA AROMATIC CO., LTD.
license=CC BY-NC-SA
exact mass=132.07864
ionization energy=70 eV
ion type=[M]+*
computed spectral entropy=1.4614951656637147
computed normalized entropy=0.5271229569465589
SPLASH=splash10-0002-9000000000-ccffc76ca7f0a1d89b11
submitter=submitter = University of Tokyo Team (Faculty of Engineering, University of Tokyo)
MoNA Rating=3.75

>  <NUM PEAKS>  (2027) 
16

>  <MASS SPECTRAL PEAKS>  (2027) 
15 1.9
19 1.6
26 1.3
27 1.32
29 7.3
30 1.2
31 2.3
39 0.29
41 10.6
42 2
43 24.6
44 0.16
45 99.99
46 2.1
59 1.5
75 5.9

$$$$

     RDKit          2D

  8  7  0  0  0  0  0  0  0  0999 V2000
    1.6238    3.1875    0.0000 C   0  0  0  0  0  0  0  0  0  0  0  0
   -4.8714    3.9375    0.0000 C   0  0  0  0  0  0  0  0  0  0  0  0
    0.3248    3.9375    0.0000 C   0  0  0  0  0  0  0  0  0  0  0  0
   -3.5724    3.1875    0.0000 C   0  0  0  0  0  0  0  0  0  0  0  0
   -2.2733    3.9375    0.0000 C   0  0  0  0  0  0  0  0  0  0  0  0
   -3.5724    1.6875    0.0000 O   0  0  0  0  0  0  0  0  0  0  0  0
   -2.2733    5.4375    0.0000 O   0  0  0  0  0  0  0  0  0  0  0  0
   -0.9743    3.1875    0.0000 O   0  0  0  0  0  0  0  0  0  0  0  0
  3  1  1  0
  4  2  1  0
  5  4  1  0
  6  4  1  0
  7  5  2  0
  8  3  1  0
  8  5  1  0
M  END
>  <NAME>  (2028) 
ETHYL LACTATE

>  <SYNONYMS>  (2028) 


>  <SPECTRUM TYPE>  (2028) 
MS1

>  <INSTRUMENT TYPE>  (2028) 
EI-B

>  <INSTRUMENT>  (2028) 
HITACHI M-80B

>  <ION MODE>  (2028) 
P

>  <INCHIKEY>  (2028) 
LZCLXQDLBQLTDK-UHFFFAOYSA-N

>  <FORMULA>  (2028) 
C5H10O3

>  <EXACT MASS>  (2028) 
118.06299417999999

>  <MW>  (2028) 
118

>  <ID>  (2028) 
JP009221

>  <CONTRIBUTOR>  (2028) 
University of Tokyo Team, {Faculty of Engineering, University of Tokyo

>  <COMMENT>  (2028) 
SMILES=CCOC(=O)C(C)O
InChI=InChI=1S/C5H10O3/c1-3-8-5(7)4(2)6/h4,6H,3H2,1-2H3
computed SMILES=O=C(OCC)C(O)C
ionization energy=70 eV
accession=JP009221
date=2016.01.19 (Created 2008.10.21, modified 2011.05.06)
author=SODA AROMATIC CO., LTD.
license=CC BY-NC-SA
exact mass=118.06299
ion type=[M]+*
computed spectral entropy=1.256917716781543
computed normalized entropy=0.4762752603653313
SPLASH=splash10-0002-9000000000-8c06a8c923c7c832f778
submitter=submitter = University of Tokyo Team (Faculty of Engineering, University of Tokyo)
MoNA Rating=3.75

>  <NUM PEAKS>  (2028) 
14

>  <MASS SPECTRAL PEAKS>  (2028) 
15 2.7
19 3.8
26 1.7
27 1.21
29 15.2
30 1.4
31 1
42 0.13
43 9.9
44 1.4
45 99.99
46 0.27
47 1.4
75 6.2

$$$$

     RDKit          2D

 19 19  0  0  0  0  0  0  0  0999 V2000
  -12.6654    6.5071    0.0000 C   0  0  0  0  0  0  0  0  0  0  0  0
  -11.3663    7.2571    0.0000 C   0  0  0  0  0  0  0  0  0  0  0  0
  -10.0673    6.5071    0.0000 C   0  0  0  0  0  0  0  0  0  0  0  0
   -8.7683    7.2571    0.0000 C   0  0  0  0  0  0  0  0  0  0  0  0
   -7.4692    6.5071    0.0000 C   0  0  0  0  0  0  0  0  0  0  0  0
   -6.1702    7.2571    0.0000 C   0  0  0  0  0  0  0  0  0  0  0  0
   -4.8712    6.5071    0.0000 C   0  0  0  0  0  0  0  0  0  0  0  0
    5.5212    5.0071    0.0000 C   0  0  0  0  0  0  0  0  0  0  0  0
    5.5216    6.5079    0.0000 C   0  0  0  0  0  0  0  0  0  0  0  0
    4.2216    4.2563    0.0000 C   0  0  0  0  0  0  0  0  0  0  0  0
   -3.5721    7.2571    0.0000 C   0  0  0  0  0  0  0  0  0  0  0  0
    4.2226    7.2579    0.0000 C   0  0  0  0  0  0  0  0  0  0  0  0
    2.9226    5.0063    0.0000 C   0  0  0  0  0  0  0  0  0  0  0  0
   -2.2731    6.5071    0.0000 C   0  0  0  0  0  0  0  0  0  0  0  0
    1.6240    7.2571    0.0000 C   0  0  0  0  0  0  0  0  0  0  0  0
    2.9231    6.5071    0.0000 C   0  0  0  0  0  0  0  0  0  0  0  0
   -0.9740    7.2571    0.0000 C   0  0  0  0  0  0  0  0  0  0  0  0
   -0.9740    8.7571    0.0000 O   0  0  0  0  0  0  0  0  0  0  0  0
    0.3250    6.5071    0.0000 O   0  0  0  0  0  0  0  0  0  0  0  0
  2  1  1  0
  3  2  1  0
  4  3  1  0
  5  4  1  0
  6  5  1  0
  7  6  1  0
  9  8  2  0
 10  8  1  0
 11  7  1  0
 12  9  1  0
 13 10  2  0
 14 11  1  0
 16 12  2  0
 16 13  1  0
 16 15  1  0
 17 14  1  0
 18 17  2  0
 19 15  1  0
 19 17  1  0
M  END
>  <NAME>  (2029) 
BENZYL DECANOATE

>  <SYNONYMS>  (2029) 


>  <SPECTRUM TYPE>  (2029) 
MS1

>  <INSTRUMENT TYPE>  (2029) 
EI-B

>  <INSTRUMENT>  (2029) 
HITACHI M-80B

>  <ION MODE>  (2029) 
P

>  <INCHIKEY>  (2029) 
ZSAYVPCIKVBDRI-UHFFFAOYSA-N

>  <FORMULA>  (2029) 
C17H26O2

>  <EXACT MASS>  (2029) 
262.193280072

>  <MW>  (2029) 
262

>  <ID>  (2029) 
JP009220

>  <CONTRIBUTOR>  (2029) 
University of Tokyo Team, {Faculty of Engineering, University of Tokyo

>  <COMMENT>  (2029) 
SMILES=CCCCCCCCCC(=O)OCc(c1)cccc1
InChI=InChI=1S/C17H26O2/c1-2-3-4-5-6-7-11-14-17(18)19-15-16-12-9-8-10-13-16/h8-10,12-13H,2-7,11,14-15H2,1H3
computed SMILES=O=C(OCC=1C=CC=CC1)CCCCCCCCC
accession=JP009220
date=2016.01.19 (Created 2008.10.21, modified 2011.05.06)
author=SODA AROMATIC CO., LTD.
license=CC BY-NC-SA
exact mass=262.19328
ionization energy=70 eV
ion type=[M]+*
computed spectral entropy=2.76927695877084
computed normalized entropy=0.7318018457503805
SPLASH=splash10-0006-9200000000-4773fa1dcfc89b83f46c
submitter=submitter = University of Tokyo Team (Faculty of Engineering, University of Tokyo)
MoNA Rating=3.75

>  <NUM PEAKS>  (2029) 
44

>  <MASS SPECTRAL PEAKS>  (2029) 
27 8.9
29 13.1
39 7.8
41 2.55
42 4.7
43 26.8
51 3.5
53 0.17
54 1.1
55 12.8
56 3
57 1.22
63 1.9
65 12
67 1.2
68 0.12
69 10
70 1.2
71 7.5
73 0.11
77 4.9
78 1.5
79 5
81 0.15
83 3.2
84 1.6
85 3.8
89 0.27
90 5.9
91 99.99
92 18.6
93 0.14
95 1.8
97 2.7
105 1.9
107 0.41
108 41.2
109 2.8
111 2.7
135 0.22
153 4.1
155 4
171 3.7
262 1.4

$$$$

     RDKit          2D

 11 11  0  0  0  0  0  0  0  0999 V2000
   -3.5376    0.5451    0.0000 C   0  0  0  0  0  0  0  0  0  0  0  0
   -2.2386    2.7951    0.0000 C   0  0  0  0  0  0  0  0  0  0  0  0
    2.9576   -1.7049    0.0000 C   0  0  0  0  0  0  0  0  0  0  0  0
    0.3590   -1.7058    0.0000 C   0  0  0  0  0  0  0  0  0  0  0  0
   -0.9400   -0.9558    0.0000 C   0  0  0  0  0  0  0  0  0  0  0  0
    0.3600    1.2959    0.0000 C   0  0  0  0  0  0  0  0  0  0  0  0
   -2.2386    1.2951    0.0000 C   0  0  0  0  0  0  0  0  0  0  0  0
    1.6585   -0.9549    0.0000 C   0  0  0  0  0  0  0  0  0  0  0  0
   -0.9395    0.5451    0.0000 C   0  0  0  0  0  0  0  0  0  0  0  0
    1.6590    0.5459    0.0000 C   0  0  0  0  0  0  0  0  0  0  0  0
    2.9582    1.2957    0.0000 O   0  0  0  0  0  0  0  0  0  0  0  0
  5  4  2  0
  7  1  1  0
  7  2  1  0
  8  3  1  0
  8  4  1  0
  9  5  1  0
  9  6  2  0
  9  7  1  0
 10  6  1  0
 10  8  2  0
 11 10  1  0
M  END
>  <NAME>  (2030) 
CARVACROL

>  <SYNONYMS>  (2030) 


>  <SPECTRUM TYPE>  (2030) 
MS1

>  <INSTRUMENT TYPE>  (2030) 
EI-B

>  <INSTRUMENT>  (2030) 
HITACHI M-80B

>  <ION MODE>  (2030) 
P

>  <INCHIKEY>  (2030) 
RECUKUPTGUEGMW-UHFFFAOYSA-N

>  <FORMULA>  (2030) 
C10H14O

>  <EXACT MASS>  (2030) 
150.104465068

>  <MW>  (2030) 
150

>  <ID>  (2030) 
JP009219

>  <CONTRIBUTOR>  (2030) 
University of Tokyo Team, {Faculty of Engineering, University of Tokyo

>  <COMMENT>  (2030) 
SMILES=CC(C)c(c1)cc(O)c(C)c1
InChI=InChI=1S/C10H14O/c1-7(2)9-5-4-8(3)10(11)6-9/h4-7,11H,1-3H3
computed SMILES=OC1=CC(=CC=C1C)C(C)C
accession=JP009219
date=2016.01.19 (Created 2008.10.21, modified 2011.05.06)
author=SODA AROMATIC CO., LTD.
license=CC BY-NC-SA
exact mass=150.10447
ionization energy=70 eV
ion type=[M]+*
computed spectral entropy=2.934722541485825
computed normalized entropy=0.7665179988329534
SPLASH=splash10-000i-6900000000-b77d2bc899f0364b95e6
submitter=submitter = University of Tokyo Team (Faculty of Engineering, University of Tokyo)
MoNA Rating=3.75

>  <NUM PEAKS>  (2030) 
46

>  <MASS SPECTRAL PEAKS>  (2030) 
15 2.19
27 9.67
29 1.94
38 1.14
39 12.6
40 1.35
41 8.8
43 2.32
50 2.58
51 8.52
52 3.67
53 5.84
55 2.54
63 4.2
64 1.02
65 6.14
66 2.21
67 1.56
68 1.52
74 1.13
77 14.37
78 4.36
79 8.44
89 1.29
91 21.68
92 2.14
94 1.02
95 1.02
103 2.08
105 5.86
106 1.27
107 9.06
108 2.09
109 1.14
115 6.04
116 1.43
117 5.32
120 1.58
121 3.84
133 2.48
134 1.82
135 99.99
136 9.63
149 1.31
150 30.35
151 3.57

$$$$

     RDKit          2D

 10 10  0  0  0  0  0  0  0  0999 V2000
    3.8981   -0.7504    0.0000 C   0  0  0  0  0  0  0  0  0  0  0  0
    0.0000    3.0000    0.0000 C   0  0  0  0  0  0  0  0  0  0  0  0
    2.5989   -1.5002    0.0000 C   0  0  0  0  0  0  0  0  0  0  0  0
    1.3000    0.7500    0.0000 C   0  0  0  0  0  0  0  0  0  0  0  0
   -1.3000    0.7500    0.0000 C   0  0  0  0  0  0  0  0  0  0  0  0
   -0.0000   -1.5000    0.0000 C   0  0  0  0  0  0  0  0  0  0  0  0
    0.0000    1.5000    0.0000 C   0  0  0  0  0  0  0  0  0  0  0  0
    1.3000   -0.7500    0.0000 C   0  0  0  0  0  0  0  0  0  0  0  0
   -1.3000   -0.7500    0.0000 C   0  0  0  0  0  0  0  0  0  0  0  0
   -2.5989   -1.5002    0.0000 O   0  0  0  0  0  0  0  0  0  0  0  0
  3  1  1  0
  7  2  1  0
  7  4  2  0
  7  5  1  0
  8  3  1  0
  8  4  1  0
  8  6  2  0
  9  5  2  0
  9  6  1  0
 10  9  1  0
M  END
>  <NAME>  (2031) 
3-ETHYL-5-METHYLPHENOL

>  <SYNONYMS>  (2031) 


>  <SPECTRUM TYPE>  (2031) 
MS1

>  <INSTRUMENT TYPE>  (2031) 
EI-B

>  <INSTRUMENT>  (2031) 
HITACHI M-80B

>  <ION MODE>  (2031) 
P

>  <INCHIKEY>  (2031) 
XTCHLXABLZQNNN-UHFFFAOYSA-N

>  <FORMULA>  (2031) 
C9H12O

>  <EXACT MASS>  (2031) 
136.088815004

>  <MW>  (2031) 
136

>  <ID>  (2031) 
JP009218

>  <CONTRIBUTOR>  (2031) 
University of Tokyo Team, {Faculty of Engineering, University of Tokyo

>  <COMMENT>  (2031) 
SMILES=CCc(c1)cc(O)cc(C)1
InChI=InChI=1S/C9H12O/c1-3-8-4-7(2)5-9(10)6-8/h4-6,10H,3H2,1-2H3
computed SMILES=OC=1C=C(C=C(C1)CC)C
accession=JP009218
date=2016.01.19 (Created 2008.10.21, modified 2011.05.06)
author=SODA AROMATIC CO., LTD.
license=CC BY-NC-SA
exact mass=136.08882
ionization energy=70 eV
ion type=[M]+*
computed spectral entropy=2.882934986953548
computed normalized entropy=0.7618368173501052
SPLASH=splash10-00dr-7900000000-80e62eab57b0f556d76d
submitter=submitter = University of Tokyo Team (Faculty of Engineering, University of Tokyo)
MoNA Rating=3.75

>  <NUM PEAKS>  (2031) 
44

>  <MASS SPECTRAL PEAKS>  (2031) 
15 3.01
26 1.43
27 10.88
29 2.32
38 2.32
39 16.05
40 2.05
41 6.22
43 1.79
50 3.98
51 11.83
52 3.98
53 8.33
55 3.78
62 1.5
63 4.14
64 1.15
65 8.75
66 2.89
67 3.59
74 1.05
75 1.05
77 22.49
78 4.7
79 4.86
81 1.19
89 1.42
91 23.55
92 2.73
93 2.97
94 1.34
103 3.07
105 1.79
107 8.56
108 7.62
109 1.29
115 2.13
119 1.3
120 1.02
121 99.99
122 9.33
135 4.25
136 54.55
137 4.3

$$$$

     RDKit          2D

 10 10  0  0  0  0  0  0  0  0999 V2000
   -3.2538    2.6270    0.0000 C   0  0  0  0  0  0  0  0  0  0  0  0
   -1.9585    1.8706    0.0000 C   0  0  0  0  0  0  0  0  0  0  0  0
   -0.6558    2.6142    0.0000 C   0  0  0  0  0  0  0  0  0  0  0  0
    1.9386    2.6078    0.0000 C   0  0  0  0  0  0  0  0  0  0  0  0
    0.6251    0.3829    0.0000 C   0  0  0  0  0  0  0  0  0  0  0  0
    3.2231    1.8829    0.0000 C   0  0  0  0  0  0  0  0  0  0  0  0
    1.9496   -0.4112    0.0000 C   0  0  0  0  0  0  0  0  0  0  0  0
    0.6396    1.8578    0.0000 C   0  0  0  0  0  0  0  0  0  0  0  0
    3.2486    0.3388    0.0000 C   0  0  0  0  0  0  0  0  0  0  0  0
    4.5538   -0.4005    0.0000 O   0  0  0  0  0  0  0  0  0  0  0  0
  2  1  1  0
  3  2  1  0
  6  4  2  0
  7  5  1  0
  8  3  1  0
  8  4  1  0
  8  5  2  0
  9  6  1  0
  9  7  2  0
 10  9  1  0
M  END
>  <NAME>  (2032) 
P-PROPYLPHENOL

>  <SYNONYMS>  (2032) 


>  <SPECTRUM TYPE>  (2032) 
MS1

>  <INSTRUMENT TYPE>  (2032) 
EI-B

>  <INSTRUMENT>  (2032) 
HITACHI M-80B

>  <ION MODE>  (2032) 
P

>  <INCHIKEY>  (2032) 
KLSLBUSXWBJMEC-UHFFFAOYSA-N

>  <FORMULA>  (2032) 
C9H12O

>  <EXACT MASS>  (2032) 
136.088815004

>  <MW>  (2032) 
136

>  <ID>  (2032) 
JP009217

>  <CONTRIBUTOR>  (2032) 
University of Tokyo Team, {Faculty of Engineering, University of Tokyo

>  <COMMENT>  (2032) 
SMILES=CCCc(c1)ccc(O)c1
InChI=InChI=1S/C9H12O/c1-2-3-8-4-6-9(10)7-5-8/h4-7,10H,2-3H2,1H3
computed SMILES=OC1=CC=C(C=C1)CCC
accession=JP009217
date=2016.01.19 (Created 2008.10.21, modified 2011.05.06)
author=SODA AROMATIC CO., LTD.
license=CC BY-NC-SA
exact mass=136.08882
ionization energy=70 eV
ion type=[M]+*
computed spectral entropy=1.8543677768409585
computed normalized entropy=0.6190031710146872
SPLASH=splash10-0a4i-3900000000-858c711ebaae485560d5
submitter=submitter = University of Tokyo Team (Faculty of Engineering, University of Tokyo)
MoNA Rating=3.75

>  <NUM PEAKS>  (2032) 
20

>  <MASS SPECTRAL PEAKS>  (2032) 
27 5.35
29 1.91
39 6.42
41 1.55
50 1.4
51 4.63
52 1.98
53 3.33
55 1.62
63 2.07
65 2.65
77 12.95
78 4.21
79 1.85
91 1.94
94 1.06
107 99.99
108 7.75
136 19.36
137 1.63

$$$$

     RDKit          2D

 10 10  0  0  0  0  0  0  0  0999 V2000
   -2.9242    2.0631    0.0000 C   0  0  0  0  0  0  0  0  0  0  0  0
   -1.6250    1.3133    0.0000 C   0  0  0  0  0  0  0  0  0  0  0  0
    2.2730   -0.9380    0.0000 C   0  0  0  0  0  0  0  0  0  0  0  0
    3.5721   -0.1880    0.0000 C   0  0  0  0  0  0  0  0  0  0  0  0
   -0.3261    2.0635    0.0000 C   0  0  0  0  0  0  0  0  0  0  0  0
    0.9735   -0.1871    0.0000 C   0  0  0  0  0  0  0  0  0  0  0  0
    3.5716    1.3129    0.0000 C   0  0  0  0  0  0  0  0  0  0  0  0
    0.9730    1.3137    0.0000 C   0  0  0  0  0  0  0  0  0  0  0  0
    2.2721    2.0637    0.0000 C   0  0  0  0  0  0  0  0  0  0  0  0
    2.2723    3.5637    0.0000 O   0  0  0  0  0  0  0  0  0  0  0  0
  2  1  2  0
  4  3  2  0
  5  2  1  0
  6  3  1  0
  7  4  1  0
  8  5  1  0
  8  6  2  0
  9  7  2  0
  9  8  1  0
 10  9  1  0
M  END
>  <NAME>  (2033) 
O-ALLYLPHENOL

>  <SYNONYMS>  (2033) 


>  <SPECTRUM TYPE>  (2033) 
MS1

>  <INSTRUMENT TYPE>  (2033) 
EI-B

>  <INSTRUMENT>  (2033) 
HITACHI M-80B

>  <ION MODE>  (2033) 
P

>  <INCHIKEY>  (2033) 
QIRNGVVZBINFMX-UHFFFAOYSA-N

>  <FORMULA>  (2033) 
C9H10O

>  <EXACT MASS>  (2033) 
134.07316494

>  <MW>  (2033) 
134

>  <ID>  (2033) 
JP009216

>  <CONTRIBUTOR>  (2033) 
University of Tokyo Team, {Faculty of Engineering, University of Tokyo

>  <COMMENT>  (2033) 
SMILES=C=CCc(c1)c(O)ccc1
InChI=InChI=1S/C9H10O/c1-2-5-8-6-3-4-7-9(8)10/h2-4,6-7,10H,1,5H2
computed SMILES=OC=1C=CC=CC1CC=C
accession=JP009216
date=2016.01.19 (Created 2008.10.21, modified 2011.05.06)
author=SODA AROMATIC CO., LTD.
license=CC BY-NC-SA
exact mass=134.07316
ionization energy=70 eV
ion type=[M]+*
computed spectral entropy=3.3882023262632552
computed normalized entropy=0.8380310072293418
SPLASH=splash10-00o0-9700000000-2daf762a9425d8601edb
submitter=submitter = University of Tokyo Team (Faculty of Engineering, University of Tokyo)
MoNA Rating=3.75

>  <NUM PEAKS>  (2033) 
57

>  <MASS SPECTRAL PEAKS>  (2033) 
15 1.36
26 4.18
27 23.06
28 1.13
29 2.43
37 1.82
38 6.93
39 36.25
40 3.57
41 3.68
43 3.2
50 12.93
51 29.11
52 11.27
53 12.04
54 1.06
55 9.34
58 1.48
61 1.35
62 4.32
63 14.74
64 3.49
65 11.77
66 8.03
67 1.25
68 1.47
74 3.86
75 3.5
76 2.62
77 46.32
78 25.52
79 19.93
80 1.45
87 1.18
89 8.14
90 5.36
91 50.98
92 4.88
94 2.46
102 1.63
103 8.22
104 1.58
105 21.98
106 4.06
107 24.56
108 2.03
115 32.79
116 7.71
117 11.58
118 2.7
119 34.7
120 2.68
131 3.69
132 1.38
133 34.82
134 99.99
135 9.95

$$$$

     RDKit          2D

  9  9  0  0  0  0  0  0  0  0999 V2000
   -3.2458   -0.3738    0.0000 C   0  0  0  0  0  0  0  0  0  0  0  0
   -1.9469   -1.1240    0.0000 C   0  0  0  0  0  0  0  0  0  0  0  0
    0.6473    1.8688    0.0000 C   0  0  0  0  0  0  0  0  0  0  0  0
   -0.6473    1.1266    0.0000 C   0  0  0  0  0  0  0  0  0  0  0  0
    1.9463    1.1188    0.0000 C   0  0  0  0  0  0  0  0  0  0  0  0
    0.6513   -1.1242    0.0000 C   0  0  0  0  0  0  0  0  0  0  0  0
   -0.6477   -0.3742    0.0000 C   0  0  0  0  0  0  0  0  0  0  0  0
    1.9508   -0.3734    0.0000 C   0  0  0  0  0  0  0  0  0  0  0  0
    3.2511   -1.1212    0.0000 O   0  0  0  0  0  0  0  0  0  0  0  0
  2  1  1  0
  4  3  2  0
  5  3  1  0
  7  2  1  0
  7  4  1  0
  7  6  2  0
  8  5  2  0
  8  6  1  0
  9  8  1  0
M  END
>  <NAME>  (2034) 
M-ETHYLPHENOL

>  <SYNONYMS>  (2034) 


>  <SPECTRUM TYPE>  (2034) 
MS1

>  <INSTRUMENT TYPE>  (2034) 
EI-B

>  <INSTRUMENT>  (2034) 
HITACHI M-80B

>  <ION MODE>  (2034) 
P

>  <INCHIKEY>  (2034) 
HMNKTRSOROOSPP-UHFFFAOYSA-N

>  <FORMULA>  (2034) 
C8H10O

>  <EXACT MASS>  (2034) 
122.07316494

>  <MW>  (2034) 
122

>  <ID>  (2034) 
JP009215

>  <CONTRIBUTOR>  (2034) 
University of Tokyo Team, {Faculty of Engineering, University of Tokyo

>  <COMMENT>  (2034) 
SMILES=CCc(c1)cc(O)cc1
InChI=InChI=1S/C8H10O/c1-2-7-4-3-5-8(9)6-7/h3-6,9H,2H2,1H3
computed SMILES=OC1=CC=CC(=C1)CC
accession=JP009215
date=2016.01.19 (Created 2008.10.21, modified 2011.05.06)
author=SODA AROMATIC CO., LTD.
license=CC BY-NC-SA
exact mass=122.07316
ionization energy=70 eV
ion type=[M]+*
computed spectral entropy=2.4644362414946506
computed normalized entropy=0.7048279456490105
SPLASH=splash10-0ab9-5900000000-878073166afeb89cd11c
submitter=submitter = University of Tokyo Team (Faculty of Engineering, University of Tokyo)
MoNA Rating=3.75

>  <NUM PEAKS>  (2034) 
33

>  <MASS SPECTRAL PEAKS>  (2034) 
15 1.05
27 5.41
29 1.05
38 2.2
39 11.58
40 1.26
41 2.06
50 2.62
51 6.86
52 2.43
53 4.35
55 2.1
60 1.17
62 1.58
63 4.45
64 1.23
65 5.98
66 2.06
77 22.27
78 4.05
79 6.38
81 1.03
91 6.81
93 1.57
94 8.34
95 1.32
103 2.67
105 1.29
107 99.99
108 8.1
121 4.83
122 52.37
123 3.93

$$$$

     RDKit          2D

  9  9  0  0  0  0  0  0  0  0999 V2000
   -2.9239    1.3130    0.0000 C   0  0  0  0  0  0  0  0  0  0  0  0
   -1.6250    2.0632    0.0000 C   0  0  0  0  0  0  0  0  0  0  0  0
    0.9742   -0.9383    0.0000 C   0  0  0  0  0  0  0  0  0  0  0  0
    2.2732   -0.1883    0.0000 C   0  0  0  0  0  0  0  0  0  0  0  0
   -0.3253   -0.1874    0.0000 C   0  0  0  0  0  0  0  0  0  0  0  0
    2.2727    1.3126    0.0000 C   0  0  0  0  0  0  0  0  0  0  0  0
   -0.3258    1.3134    0.0000 C   0  0  0  0  0  0  0  0  0  0  0  0
    0.9732    2.0634    0.0000 C   0  0  0  0  0  0  0  0  0  0  0  0
    0.9735    3.5634    0.0000 O   0  0  0  0  0  0  0  0  0  0  0  0
  2  1  1  0
  4  3  2  0
  5  3  1  0
  6  4  1  0
  7  2  1  0
  7  5  2  0
  8  6  2  0
  8  7  1  0
  9  8  1  0
M  END
>  <NAME>  (2035) 
O-ETHYLPHENOL

>  <SYNONYMS>  (2035) 


>  <SPECTRUM TYPE>  (2035) 
MS1

>  <INSTRUMENT TYPE>  (2035) 
EI-B

>  <INSTRUMENT>  (2035) 
HITACHI M-80B

>  <ION MODE>  (2035) 
P

>  <INCHIKEY>  (2035) 
IXQGCWUGDFDQMF-UHFFFAOYSA-N

>  <FORMULA>  (2035) 
C8H10O

>  <EXACT MASS>  (2035) 
122.07316494

>  <MW>  (2035) 
122

>  <ID>  (2035) 
JP009214

>  <CONTRIBUTOR>  (2035) 
University of Tokyo Team, {Faculty of Engineering, University of Tokyo

>  <COMMENT>  (2035) 
SMILES=CCc(c1)c(O)ccc1
InChI=InChI=1S/C8H10O/c1-2-7-5-3-4-6-8(7)9/h3-6,9H,2H2,1H3
computed SMILES=OC=1C=CC=CC1CC
accession=JP009214
date=2016.01.19 (Created 2008.10.21, modified 2011.05.06)
author=SODA AROMATIC CO., LTD.
license=CC BY-NC-SA
exact mass=122.07316
ionization energy=70 eV
ion type=[M]+*
computed spectral entropy=2.4229979716666583
computed normalized entropy=0.6929766142563186
SPLASH=splash10-0a4i-6900000000-2d03bf115a58b10d9402
submitter=submitter = University of Tokyo Team (Faculty of Engineering, University of Tokyo)
MoNA Rating=3.75

>  <NUM PEAKS>  (2035) 
33

>  <MASS SPECTRAL PEAKS>  (2035) 
15 1.3
27 4.63
29 1.29
38 1.6
39 11.56
40 1.38
41 1.61
50 2.98
51 8.63
52 3.36
53 4.2
55 1.37
60 1.13
62 1.45
63 3.57
64 1.22
65 4.13
66 1.31
75 1.2
77 25.51
78 5.2
79 11.94
91 5.79
93 1.12
94 1.78
103 3.83
104 1.18
105 1.13
107 99.99
108 6.34
121 2.61
122 41.81
123 3.07

$$$$

     RDKit          2D

  8  8  0  0  0  0  0  0  0  0999 V2000
   -2.6070    1.5036    0.0000 C   0  0  0  0  0  0  0  0  0  0  0  0
   -0.0127    1.4972    0.0000 C   0  0  0  0  0  0  0  0  0  0  0  0
   -1.3262   -0.7277    0.0000 C   0  0  0  0  0  0  0  0  0  0  0  0
    1.2718    0.7723    0.0000 C   0  0  0  0  0  0  0  0  0  0  0  0
   -0.0017   -1.5218    0.0000 C   0  0  0  0  0  0  0  0  0  0  0  0
   -1.3117    0.7472    0.0000 C   0  0  0  0  0  0  0  0  0  0  0  0
    1.2973   -0.7718    0.0000 C   0  0  0  0  0  0  0  0  0  0  0  0
    2.6025   -1.5111    0.0000 O   0  0  0  0  0  0  0  0  0  0  0  0
  4  2  2  0
  5  3  1  0
  6  1  1  0
  6  2  1  0
  6  3  2  0
  7  4  1  0
  7  5  2  0
  8  7  1  0
M  END
>  <NAME>  (2036) 
P-CRESOL

>  <SYNONYMS>  (2036) 


>  <SPECTRUM TYPE>  (2036) 
MS1

>  <INSTRUMENT TYPE>  (2036) 
EI-B

>  <INSTRUMENT>  (2036) 
HITACHI M-80B

>  <ION MODE>  (2036) 
P

>  <INCHIKEY>  (2036) 
IWDCLRJOBJJRNH-UHFFFAOYSA-N

>  <FORMULA>  (2036) 
C7H8O

>  <EXACT MASS>  (2036) 
108.057514876

>  <MW>  (2036) 
108

>  <ID>  (2036) 
JP009213

>  <CONTRIBUTOR>  (2036) 
University of Tokyo Team, {Faculty of Engineering, University of Tokyo

>  <COMMENT>  (2036) 
SMILES=Cc(c1)ccc(O)c1
InChI=InChI=1S/C7H8O/c1-6-2-4-7(8)5-3-6/h2-5,8H,1H3
computed SMILES=OC1=CC=C(C=C1)C
accession=JP009213
date=2016.01.19 (Created 2008.10.21, modified 2011.05.06)
author=SODA AROMATIC CO., LTD.
license=CC BY-NC-SA
exact mass=108.05751
ionization energy=70 eV
ion type=[M]+*
computed spectral entropy=2.4811694749837847
computed normalized entropy=0.7036062982397002
SPLASH=splash10-0a4i-7900000000-15d473146e11e4b049b2
submitter=submitter = University of Tokyo Team (Faculty of Engineering, University of Tokyo)
MoNA Rating=3.75

>  <NUM PEAKS>  (2036) 
34

>  <MASS SPECTRAL PEAKS>  (2036) 
26 2.11
27 9.43
29 1.9
37 1.12
38 2.61
39 11.35
40 1.25
43 1
49 1.01
50 7.75
51 13.48
52 7.31
53 10.14
54 2.8
55 2.59
61 1.06
62 2.1
63 5.48
64 1.1
65 2.04
66 1.04
74 1.24
77 23.45
78 7.15
79 18.25
80 7.55
81 1.77
89 1.98
90 7.7
91 4.29
106 1.07
107 95.08
108 99.99
109 7.52

$$$$

     RDKit          2D

  7  7  0  0  0  0  0  0  0  0999 V2000
   -1.6700   -0.9600    0.0000 C   0  0  0  0  0  0  0  0  0  0  0  0
   -1.6700    0.5400    0.0000 C   0  0  0  0  0  0  0  0  0  0  0  0
   -0.3700   -1.7100    0.0000 C   0  0  0  0  0  0  0  0  0  0  0  0
   -0.3700    1.2900    0.0000 C   0  0  0  0  0  0  0  0  0  0  0  0
    0.9300   -0.9600    0.0000 C   0  0  0  0  0  0  0  0  0  0  0  0
    0.9300    0.5400    0.0000 C   0  0  0  0  0  0  0  0  0  0  0  0
    2.2289    1.2902    0.0000 O   0  0  0  0  0  0  0  0  0  0  0  0
  2  1  2  0
  3  1  1  0
  4  2  1  0
  5  3  2  0
  6  4  2  0
  6  5  1  0
  7  6  1  0
M  END
>  <NAME>  (2037) 
PHENOL

>  <SYNONYMS>  (2037) 


>  <SPECTRUM TYPE>  (2037) 
MS1

>  <INSTRUMENT TYPE>  (2037) 
EI-B

>  <INSTRUMENT>  (2037) 
HITACHI M-80B

>  <ION MODE>  (2037) 
P

>  <INCHIKEY>  (2037) 
ISWSIDIOOBJBQZ-UHFFFAOYSA-N

>  <FORMULA>  (2037) 
C6H6O

>  <EXACT MASS>  (2037) 
94.041864812

>  <MW>  (2037) 
94

>  <ID>  (2037) 
JP009212

>  <CONTRIBUTOR>  (2037) 
University of Tokyo Team, {Faculty of Engineering, University of Tokyo

>  <COMMENT>  (2037) 
SMILES=Oc(c1)cccc1
InChI=InChI=1S/C6H6O/c7-6-4-2-1-3-5-6/h1-5,7H
computed SMILES=OC=1C=CC=CC1
accession=JP009212
date=2016.01.19 (Created 2008.10.21, modified 2011.05.06)
author=SODA AROMATIC CO., LTD.
license=CC BY-NC-SA
exact mass=94.04186
ionization energy=70 eV
ion type=[M]+*
computed spectral entropy=2.1559048644667933
computed normalized entropy=0.6783726706827858
SPLASH=splash10-0006-9000000000-db80d8b605e20595c679
submitter=submitter = University of Tokyo Team (Faculty of Engineering, University of Tokyo)
MoNA Rating=3.75

>  <NUM PEAKS>  (2037) 
24

>  <MASS SPECTRAL PEAKS>  (2037) 
26 1.38
27 2.26
29 1.58
37 2.55
38 4.85
39 17.95
40 7.84
47 2.55
50 3.94
51 3.89
53 2.37
55 6.01
61 1.69
62 2.6
63 4.72
64 1.95
65 19.92
66 27.46
67 1.55
68 1.06
74 1.48
93 1.69
94 99.99
95 5.76

$$$$

     RDKit          2D

 16 16  0  0  0  0  0  0  0  0999 V2000
   -5.2000    0.0000    0.0000 C   0  0  0  0  0  0  0  0  0  0  0  0
   -5.2000    1.5000    0.0000 C   0  0  0  0  0  0  0  0  0  0  0  0
   -2.6000    0.0000    0.0000 C   0  0  0  0  0  0  0  0  0  0  0  0
   -3.9000    2.2500    0.0000 C   0  0  0  0  0  0  0  0  0  0  0  0
   -1.3000   -0.7500    0.0000 C   0  0  0  0  0  0  0  0  0  0  0  0
   -3.9000    3.7500    0.0000 C   0  0  0  0  0  0  0  0  0  0  0  0
    0.0000    0.0000    0.0000 C   0  0  0  0  0  0  0  0  0  0  0  0
   -2.6000    4.5000    0.0000 C   0  0  0  0  0  0  0  0  0  0  0  0
    1.3000   -0.7500    0.0000 C   0  0  0  0  0  0  0  0  0  0  0  0
   -1.3000    3.7500    0.0000 C   0  0  0  0  0  0  0  0  0  0  0  0
    2.6000   -0.0000    0.0000 C   0  0  0  0  0  0  0  0  0  0  0  0
    0.0000    4.5000    0.0000 C   0  0  0  0  0  0  0  0  0  0  0  0
    2.6000    1.5000    0.0000 C   0  0  0  0  0  0  0  0  0  0  0  0
    1.3000    3.7500    0.0000 C   0  0  0  0  0  0  0  0  0  0  0  0
    1.3000    2.2500    0.0000 C   0  0  0  0  0  0  0  0  0  0  0  0
    0.0011    1.4998    0.0000 O   0  0  0  0  0  0  0  0  0  0  0  0
  2  1  1  0
  3  1  1  0
  4  2  1  0
  5  3  1  0
  6  4  1  0
  7  5  1  0
  8  6  1  0
  9  7  1  0
 10  8  1  0
 11  9  1  0
 12 10  1  0
 13 11  1  0
 14 12  1  0
 15 13  1  0
 15 14  1  0
 16 15  2  0
M  END
>  <NAME>  (2038) 
CYCLOPENTADECANONE

>  <SYNONYMS>  (2038) 


>  <SPECTRUM TYPE>  (2038) 
MS1

>  <INSTRUMENT TYPE>  (2038) 
EI-B

>  <INSTRUMENT>  (2038) 
HITACHI M-80B

>  <ION MODE>  (2038) 
P

>  <INCHIKEY>  (2038) 
OSOIQJGOYGSIMF-UHFFFAOYSA-N

>  <FORMULA>  (2038) 
C15H28O

>  <EXACT MASS>  (2038) 
224.214015516

>  <MW>  (2038) 
224

>  <ID>  (2038) 
JP009211

>  <CONTRIBUTOR>  (2038) 
University of Tokyo Team, {Faculty of Engineering, University of Tokyo

>  <COMMENT>  (2038) 
SMILES=O=C(C1)CCCCCCCCCCCCC1
InChI=InChI=1S/C15H28O/c16-15-13-11-9-7-5-3-1-2-4-6-8-10-12-14-15/h1-14H2
computed SMILES=O=C1CCCCCCCCCCCCCC1
accession=JP009211
date=2016.01.19 (Created 2008.10.21, modified 2011.05.06)
author=SODA AROMATIC CO., LTD.
license=CC BY-NC-SA
exact mass=224.21402
ionization energy=70 eV
ion type=[M]+*
computed spectral entropy=3.674989300526205
computed normalized entropy=0.8460299077940587
SPLASH=splash10-0a4l-9100000000-f2196c24c51674809d3d
submitter=submitter = University of Tokyo Team (Faculty of Engineering, University of Tokyo)
MoNA Rating=3.75

>  <NUM PEAKS>  (2038) 
77

>  <MASS SPECTRAL PEAKS>  (2038) 
27 16.96
29 32.56
39 18.22
41 99.99
42 29.84
43 43.44
53 7.11
54 12.78
55 92.71
56 22.29
57 16.95
58 67.74
59 27.93
65 1.39
66 1.8
67 20.88
68 16.74
69 33.07
70 16.45
71 72.13
72 5.84
77 1.43
78 1.03
79 5.37
80 10.47
81 19.62
82 26.3
83 24.42
84 17.39
85 11.46
86 1.44
93 4.08
94 8.87
95 14.33
96 24.06
97 19.24
98 21.43
99 3.32
100 3.02
107 3.29
108 5.6
109 5.56
110 13.04
111 14.26
112 3.88
113 2.87
114 1.92
121 5.98
122 3.51
123 3.31
124 6.72
125 14.53
126 1.73
127 2.7
128 2.3
135 6.33
136 2.66
137 1.95
138 3
139 2.77
141 1.26
142 2.49
149 4.23
150 2.01
153 1.03
156 1.39
163 2.37
164 3.35
166 5.93
167 1.78
169 1.01
177 1.31
181 1.59
206 2.87
209 1.22
224 17.83
225 2.95

$$$$

     RDKit          2D

 11 11  0  0  0  0  0  0  0  0999 V2000
    2.9231    0.5071    0.0000 C   0  0  0  0  0  0  0  0  0  0  0  0
    2.9236    2.0079    0.0000 C   0  0  0  0  0  0  0  0  0  0  0  0
    1.6236   -0.2437    0.0000 C   0  0  0  0  0  0  0  0  0  0  0  0
    1.6245    2.7579    0.0000 C   0  0  0  0  0  0  0  0  0  0  0  0
    0.3245    0.5063    0.0000 C   0  0  0  0  0  0  0  0  0  0  0  0
   -0.9740    2.7571    0.0000 C   0  0  0  0  0  0  0  0  0  0  0  0
   -2.2731    2.0071    0.0000 C   0  0  0  0  0  0  0  0  0  0  0  0
    0.3250    2.0071    0.0000 C   0  0  0  0  0  0  0  0  0  0  0  0
   -3.5721    2.7571    0.0000 C   0  0  0  0  0  0  0  0  0  0  0  0
   -3.5721    4.2571    0.0000 O   0  0  0  0  0  0  0  0  0  0  0  0
   -4.8712    2.0071    0.0000 O   0  0  0  0  0  0  0  0  0  0  0  0
  2  1  2  0
  3  1  1  0
  4  2  1  0
  5  3  2  0
  7  6  1  0
  8  4  2  0
  8  5  1  0
  8  6  1  0
  9  7  1  0
 10  9  2  0
 11  9  1  0
M  END
>  <NAME>  (2039) 
3-PHENYLPROPIONIC ACID

>  <SYNONYMS>  (2039) 


>  <SPECTRUM TYPE>  (2039) 
MS1

>  <INSTRUMENT TYPE>  (2039) 
EI-B

>  <INSTRUMENT>  (2039) 
HITACHI M-80B

>  <ION MODE>  (2039) 
P

>  <INCHIKEY>  (2039) 
XMIIGOLPHOKFCH-UHFFFAOYSA-N

>  <FORMULA>  (2039) 
C9H10O2

>  <EXACT MASS>  (2039) 
150.06807956

>  <MW>  (2039) 
150

>  <ID>  (2039) 
JP009210

>  <CONTRIBUTOR>  (2039) 
University of Tokyo Team, {Faculty of Engineering, University of Tokyo

>  <COMMENT>  (2039) 
SMILES=OC(=O)CCc(c1)cccc1
InChI=InChI=1S/C9H10O2/c10-9(11)7-6-8-4-2-1-3-5-8/h1-5H,6-7H2,(H,10,11)
computed SMILES=O=C(O)CCC=1C=CC=CC1
exact mass=150.06808
accession=JP009210
date=2016.01.19 (Created 2008.10.21, modified 2011.05.06)
author=SODA AROMATIC CO., LTD.
license=CC BY-NC-SA
ionization energy=70 eV
ion type=[M]+*
computed spectral entropy=2.866706735403246
computed normalized entropy=0.7669770279803015
SPLASH=splash10-0udl-9300000000-faf8506e70502be88599
submitter=submitter = University of Tokyo Team (Faculty of Engineering, University of Tokyo)
MoNA Rating=3.75

>  <NUM PEAKS>  (2039) 
42

>  <MASS SPECTRAL PEAKS>  (2039) 
18 3.07
26 1.4
27 8.78
29 1.1
31 1.3
38 1.95
39 11.24
41 2.82
42 1.89
43 2.3
44 1.23
45 9.79
50 7.59
51 18.05
52 4.85
53 1.93
55 1.76
60 3.43
62 1.59
63 5.79
64 1.28
65 12.76
73 1.98
74 2.08
75 1.89
76 1.72
77 18.99
78 16.76
79 9.07
89 2.42
91 99.99
92 8.02
102 1.57
103 9.41
104 52.1
105 17.72
106 1.19
107 1.09
131 1.35
150 30.15
151 3.36
152 1.02

$$$$

     RDKit          2D

 10 10  0  0  0  0  0  0  0  0999 V2000
    2.5983    0.3196    0.0000 C   0  0  0  0  0  0  0  0  0  0  0  0
    2.5988    1.8204    0.0000 C   0  0  0  0  0  0  0  0  0  0  0  0
    1.2988   -0.4312    0.0000 C   0  0  0  0  0  0  0  0  0  0  0  0
    1.2998    2.5704    0.0000 C   0  0  0  0  0  0  0  0  0  0  0  0
   -0.0002    0.3188    0.0000 C   0  0  0  0  0  0  0  0  0  0  0  0
   -1.2988    2.5696    0.0000 C   0  0  0  0  0  0  0  0  0  0  0  0
    0.0002    1.8196    0.0000 C   0  0  0  0  0  0  0  0  0  0  0  0
   -2.5978    1.8196    0.0000 C   0  0  0  0  0  0  0  0  0  0  0  0
   -2.5978    0.3196    0.0000 O   0  0  0  0  0  0  0  0  0  0  0  0
   -3.8969    2.5696    0.0000 O   0  0  0  0  0  0  0  0  0  0  0  0
  2  1  2  0
  3  1  1  0
  4  2  1  0
  5  3  2  0
  7  4  2  0
  7  5  1  0
  7  6  1  0
  8  6  1  0
  9  8  2  0
 10  8  1  0
M  END
>  <NAME>  (2040) 
PHENYLACETIC ACID

>  <SYNONYMS>  (2040) 


>  <SPECTRUM TYPE>  (2040) 
MS1

>  <INSTRUMENT TYPE>  (2040) 
EI-B

>  <INSTRUMENT>  (2040) 
HITACHI M-80B

>  <ION MODE>  (2040) 
P

>  <INCHIKEY>  (2040) 
WLJVXDMOQOGPHL-UHFFFAOYSA-N

>  <FORMULA>  (2040) 
C8H8O2

>  <EXACT MASS>  (2040) 
136.052429496

>  <MW>  (2040) 
136

>  <ID>  (2040) 
JP009209

>  <CONTRIBUTOR>  (2040) 
University of Tokyo Team, {Faculty of Engineering, University of Tokyo

>  <COMMENT>  (2040) 
SMILES=OC(=O)Cc(c1)cccc1
InChI=InChI=1S/C8H8O2/c9-8(10)6-7-4-2-1-3-5-7/h1-5H,6H2,(H,9,10)
computed SMILES=O=C(O)CC=1C=CC=CC1
ion type=[M]+*
accession=JP009209
date=2016.01.19 (Created 2008.10.21, modified 2011.05.06)
author=SODA AROMATIC CO., LTD.
license=CC BY-NC-SA
exact mass=136.05243
ionization energy=70 eV
computed spectral entropy=2.0145305896060797
computed normalized entropy=0.6616901766414532
SPLASH=splash10-0006-9100000000-de65c7c0092343a4e599
submitter=submitter = University of Tokyo Team (Faculty of Engineering, University of Tokyo)
MoNA Rating=3.75

>  <NUM PEAKS>  (2040) 
21

>  <MASS SPECTRAL PEAKS>  (2040) 
27 1.19
38 2.03
39 11.11
41 1.38
45 3.56
50 3.11
51 5.05
52 1.73
62 2.05
63 6.51
64 1.82
65 15.59
66 1.07
77 2.33
89 4.25
90 2.93
91 99.99
92 20.12
93 1.02
136 30.07
137 2.35

$$$$

     RDKit          2D

  9  9  0  0  0  0  0  0  0  0999 V2000
    2.2733   -0.6175    0.0000 C   0  0  0  0  0  0  0  0  0  0  0  0
    2.2738    0.8833    0.0000 C   0  0  0  0  0  0  0  0  0  0  0  0
    0.9738   -1.3683    0.0000 C   0  0  0  0  0  0  0  0  0  0  0  0
    0.9748    1.6333    0.0000 C   0  0  0  0  0  0  0  0  0  0  0  0
   -0.3252   -0.6183    0.0000 C   0  0  0  0  0  0  0  0  0  0  0  0
   -0.3248    0.8825    0.0000 C   0  0  0  0  0  0  0  0  0  0  0  0
   -1.6238    1.6325    0.0000 C   0  0  0  0  0  0  0  0  0  0  0  0
   -1.6238    3.1325    0.0000 O   0  0  0  0  0  0  0  0  0  0  0  0
   -2.9228    0.8825    0.0000 O   0  0  0  0  0  0  0  0  0  0  0  0
  2  1  2  0
  3  1  1  0
  4  2  1  0
  5  3  2  0
  6  4  2  0
  6  5  1  0
  7  6  1  0
  8  7  2  0
  9  7  1  0
M  END
>  <NAME>  (2041) 
BENZOIC ACID

>  <SYNONYMS>  (2041) 


>  <SPECTRUM TYPE>  (2041) 
MS1

>  <INSTRUMENT TYPE>  (2041) 
EI-B

>  <INSTRUMENT>  (2041) 
HITACHI M-80B

>  <ION MODE>  (2041) 
P

>  <INCHIKEY>  (2041) 
WPYMKLBDIGXBTP-UHFFFAOYSA-N

>  <FORMULA>  (2041) 
C7H6O2

>  <EXACT MASS>  (2041) 
122.036779432

>  <MW>  (2041) 
122

>  <ID>  (2041) 
JP009208

>  <CONTRIBUTOR>  (2041) 
University of Tokyo Team, {Faculty of Engineering, University of Tokyo

>  <COMMENT>  (2041) 
SMILES=OC(=O)c(c1)cccc1
InChI=InChI=1S/C7H6O2/c8-7(9)6-4-2-1-3-5-6/h1-5H,(H,8,9)
computed SMILES=O=C(O)C=1C=CC=CC1
author=SODA AROMATIC CO., LTD.
accession=JP009208
date=2016.01.19 (Created 2008.10.21, modified 2011.05.06)
license=CC BY-NC-SA
exact mass=122.03678
ionization energy=70 eV
ion type=[M]+*
computed spectral entropy=2.3486876600625894
computed normalized entropy=0.7048449916236077
SPLASH=splash10-0pk9-9800000000-b93fc1120a1c74b88fa3
submitter=submitter = University of Tokyo Team (Faculty of Engineering, University of Tokyo)
MoNA Rating=3.75

>  <NUM PEAKS>  (2041) 
28

>  <MASS SPECTRAL PEAKS>  (2041) 
17 1.1
26 1.23
27 2.97
37 2.65
38 5.5
39 8.12
45 6.1
49 2.46
50 24.1
51 40.89
52 6.91
53 1.46
61 1.04
62 1.08
63 1.17
65 2.2
66 1.9
73 1.92
74 9.14
75 3.3
76 6.65
77 74.48
78 8.26
94 2.78
105 99.99
106 8.4
122 82.82
123 6.2

$$$$

     RDKit          2D

 10 10  0  0  0  0  0  0  0  0999 V2000
    2.5983    0.3196    0.0000 C   0  0  0  0  0  0  0  0  0  0  0  0
    2.5988    1.8204    0.0000 C   0  0  0  0  0  0  0  0  0  0  0  0
    1.2988   -0.4312    0.0000 C   0  0  0  0  0  0  0  0  0  0  0  0
    1.2998    2.5704    0.0000 C   0  0  0  0  0  0  0  0  0  0  0  0
   -0.0002    0.3188    0.0000 C   0  0  0  0  0  0  0  0  0  0  0  0
   -1.2988    2.5696    0.0000 C   0  0  0  0  0  0  0  0  0  0  0  0
    0.0002    1.8196    0.0000 C   0  0  0  0  0  0  0  0  0  0  0  0
   -2.5978    1.8196    0.0000 C   0  0  0  0  0  0  0  0  0  0  0  0
   -2.5978    0.3196    0.0000 O   0  0  0  0  0  0  0  0  0  0  0  0
   -3.8969    2.5696    0.0000 O   0  0  0  0  0  0  0  0  0  0  0  0
  2  1  1  0
  3  1  1  0
  4  2  1  0
  5  3  1  0
  7  4  1  0
  7  5  1  0
  7  6  1  0
  8  6  1  0
  9  8  2  0
 10  8  1  0
M  END
>  <NAME>  (2042) 
CYCLOHEXANEACETIC ACID

>  <SYNONYMS>  (2042) 


>  <SPECTRUM TYPE>  (2042) 
MS1

>  <INSTRUMENT TYPE>  (2042) 
EI-B

>  <INSTRUMENT>  (2042) 
HITACHI M-80B

>  <ION MODE>  (2042) 
P

>  <INCHIKEY>  (2042) 
LJOODBDWMQKMFB-UHFFFAOYSA-N

>  <FORMULA>  (2042) 
C8H14O2

>  <EXACT MASS>  (2042) 
142.099379688

>  <MW>  (2042) 
142

>  <ID>  (2042) 
JP009207

>  <CONTRIBUTOR>  (2042) 
University of Tokyo Team, {Faculty of Engineering, University of Tokyo

>  <COMMENT>  (2042) 
SMILES=OC(=O)CC(C1)CCCC1
InChI=InChI=1S/C8H14O2/c9-8(10)6-7-4-2-1-3-5-7/h7H,1-6H2,(H,9,10)
computed SMILES=O=C(O)CC1CCCCC1
accession=JP009207
date=2016.01.19 (Created 2008.10.21, modified 2011.05.06)
author=SODA AROMATIC CO., LTD.
license=CC BY-NC-SA
exact mass=142.09938
ionization energy=70 eV
ion type=[M]+*
computed spectral entropy=2.9337437110294657
computed normalized entropy=0.7619821405616843
SPLASH=splash10-03e9-9000000000-b41e00ae96a1ce010432
submitter=submitter = University of Tokyo Team (Faculty of Engineering, University of Tokyo)
MoNA Rating=3.75

>  <NUM PEAKS>  (2042) 
47

>  <MASS SPECTRAL PEAKS>  (2042) 
15 1.7
26 1.41
27 26.34
28 5.95
29 17.75
31 2.36
38 1.31
39 33.52
40 4.03
41 53.99
42 7.95
43 10.93
44 1.16
45 14.31
50 1.1
51 2.78
52 1.41
53 10.93
54 21.88
55 64.64
56 4.02
57 2.53
58 1
59 1.04
60 99.99
61 58.12
62 1.43
65 1.92
66 1.31
67 40.59
68 4.04
69 1.7
70 1.01
71 1.45
73 2.42
77 1.88
79 2.84
80 1.63
81 11.98
82 64.72
83 63.43
84 3.26
87 1.17
89 1.32
95 1.19
99 2.87
142 3.3

$$$$

     RDKit          2D

  6  5  0  0  0  0  0  0  0  0999 V2000
    1.2990    2.2500    0.0000 C   0  0  0  0  0  0  0  0  0  0  0  0
   -1.2990    2.2500    0.0000 C   0  0  0  0  0  0  0  0  0  0  0  0
   -2.5981    3.0000    0.0000 C   0  0  0  0  0  0  0  0  0  0  0  0
   -2.5981    4.5000    0.0000 O   0  0  0  0  0  0  0  0  0  0  0  0
   -3.8971    2.2500    0.0000 O   0  0  0  0  0  0  0  0  0  0  0  0
    0.0000    3.0000    0.0000 O   0  0  0  0  0  0  0  0  0  0  0  0
  3  2  1  0
  4  3  2  0
  5  3  1  0
  6  1  1  0
  6  2  1  0
M  END
>  <NAME>  (2043) 
METHOXYACETIC ACID

>  <SYNONYMS>  (2043) 


>  <SPECTRUM TYPE>  (2043) 
MS1

>  <INSTRUMENT TYPE>  (2043) 
EI-B

>  <INSTRUMENT>  (2043) 
HITACHI M-80B

>  <ION MODE>  (2043) 
P

>  <INCHIKEY>  (2043) 
RMIODHQZRUFFFF-UHFFFAOYSA-N

>  <FORMULA>  (2043) 
C3H6O3

>  <EXACT MASS>  (2043) 
90.03169405199999

>  <MW>  (2043) 
90

>  <ID>  (2043) 
JP009206

>  <CONTRIBUTOR>  (2043) 
University of Tokyo Team, {Faculty of Engineering, University of Tokyo

>  <COMMENT>  (2043) 
SMILES=COCC(O)=O
InChI=InChI=1S/C3H6O3/c1-6-2-3(4)5/h2H2,1H3,(H,4,5)
computed SMILES=O=C(O)COC
accession=JP009206
date=2016.01.19 (Created 2008.10.21, modified 2011.05.06)
author=SODA AROMATIC CO., LTD.
license=CC BY-NC-SA
exact mass=90.03169
ionization energy=70 eV
ion type=[M]+*
computed spectral entropy=1.8802923692931433
computed normalized entropy=0.6505365146045313
SPLASH=splash10-0002-9000000000-00eacd2cc9c79e884a7f
submitter=submitter = University of Tokyo Team (Faculty of Engineering, University of Tokyo)
MoNA Rating=3.75

>  <NUM PEAKS>  (2043) 
18

>  <MASS SPECTRAL PEAKS>  (2043) 
13 1.05
14 3.6
15 19.84
27 1.56
29 38.62
30 2.5
31 15.02
39 1.17
41 2.53
42 8.11
43 1.72
44 1.84
45 99.99
46 2.88
59 1.14
60 26.86
61 1.4
69 1.21

$$$$

     RDKit          2D

  6  5  0  0  0  0  0  0  0  0999 V2000
   -0.0000   -0.0000    0.0000 C   0  0  0  0  0  0  0  0  0  0  0  0
   -0.0000    1.5000    0.0000 C   0  0  0  0  0  0  0  0  0  0  0  0
   -1.2990    2.2500    0.0000 C   0  0  0  0  0  0  0  0  0  0  0  0
    1.2990    2.2500    0.0000 O   0  0  0  0  0  0  0  0  0  0  0  0
   -1.2990    3.7500    0.0000 O   0  0  0  0  0  0  0  0  0  0  0  0
   -2.5981    1.5000    0.0000 O   0  0  0  0  0  0  0  0  0  0  0  0
  2  1  1  0
  3  2  1  0
  4  2  2  0
  5  3  1  0
  6  3  2  0
M  END
>  <NAME>  (2044) 
PYRUVIC ACID

>  <SYNONYMS>  (2044) 


>  <SPECTRUM TYPE>  (2044) 
MS1

>  <INSTRUMENT TYPE>  (2044) 
EI-B

>  <INSTRUMENT>  (2044) 
HITACHI M-80B

>  <ION MODE>  (2044) 
P

>  <INCHIKEY>  (2044) 
LCTONWCANYUPML-UHFFFAOYSA-N

>  <FORMULA>  (2044) 
C3H4O3

>  <EXACT MASS>  (2044) 
88.01604398799999

>  <MW>  (2044) 
88

>  <ID>  (2044) 
JP009205

>  <CONTRIBUTOR>  (2044) 
University of Tokyo Team, {Faculty of Engineering, University of Tokyo

>  <COMMENT>  (2044) 
SMILES=CC(=O)C(O)=O
InChI=InChI=1S/C3H4O3/c1-2(4)3(5)6/h1H3,(H,5,6)
computed SMILES=O=C(O)C(=O)C
accession=JP009205
date=2016.01.19 (Created 2008.10.21, modified 2011.05.06)
author=SODA AROMATIC CO., LTD.
license=CC BY-NC-SA
exact mass=88.01604
ionization energy=70 eV
ion type=[M]+*
computed spectral entropy=1.5274445676336597
computed normalized entropy=0.595506715635638
SPLASH=splash10-0006-9000000000-a2cf85a5e1d2379d26df
submitter=submitter = University of Tokyo Team (Faculty of Engineering, University of Tokyo)
MoNA Rating=3.75

>  <NUM PEAKS>  (2044) 
13

>  <MASS SPECTRAL PEAKS>  (2044) 
13 1.16
14 4.1
15 17.16
26 1.42
28 2.25
29 6.12
41 2.49
42 9.65
43 99.99
44 6
45 16.27
56 1.15
88 1.39

$$$$

     RDKit          2D

 10  9  0  0  0  0  0  0  0  0999 V2000
    1.6238    3.9375    0.0000 C   0  0  0  0  0  0  0  0  0  0  0  0
   -6.1704    3.9375    0.0000 C   0  0  0  0  0  0  0  0  0  0  0  0
    0.3248    4.6875    0.0000 C   0  0  0  0  0  0  0  0  0  0  0  0
   -4.8714    4.6875    0.0000 C   0  0  0  0  0  0  0  0  0  0  0  0
   -0.9743    3.9375    0.0000 C   0  0  0  0  0  0  0  0  0  0  0  0
   -2.2733    4.6875    0.0000 C   0  0  0  0  0  0  0  0  0  0  0  0
   -3.5724    3.9375    0.0000 C   0  0  0  0  0  0  0  0  0  0  0  0
   -3.5724    2.4375    0.0000 C   0  0  0  0  0  0  0  0  0  0  0  0
   -2.2733    1.6875    0.0000 O   0  0  0  0  0  0  0  0  0  0  0  0
   -4.8714    1.6875    0.0000 O   0  0  0  0  0  0  0  0  0  0  0  0
  3  1  1  0
  4  2  1  0
  5  3  1  0
  6  5  1  0
  7  4  1  0
  7  6  1  0
  8  7  1  0
  9  8  2  0
 10  8  1  0
M  END
>  <NAME>  (2045) 
2-ETHYLHEXANOIC ACID

>  <SYNONYMS>  (2045) 


>  <SPECTRUM TYPE>  (2045) 
MS1

>  <INSTRUMENT TYPE>  (2045) 
EI-B

>  <INSTRUMENT>  (2045) 
HITACHI M-80B

>  <ION MODE>  (2045) 
P

>  <INCHIKEY>  (2045) 
OBETXYAYXDNJHR-UHFFFAOYSA-N

>  <FORMULA>  (2045) 
C8H16O2

>  <EXACT MASS>  (2045) 
144.115029752

>  <MW>  (2045) 
144

>  <ID>  (2045) 
JP009204

>  <CONTRIBUTOR>  (2045) 
University of Tokyo Team, {Faculty of Engineering, University of Tokyo

>  <COMMENT>  (2045) 
SMILES=CCCCC(CC)C(O)=O
InChI=InChI=1S/C8H16O2/c1-3-5-6-7(4-2)8(9)10/h7H,3-6H2,1-2H3,(H,9,10)
computed SMILES=O=C(O)C(CC)CCCC
accession=JP009204
date=2016.01.19 (Created 2008.10.21, modified 2011.05.06)
author=SODA AROMATIC CO., LTD.
license=CC BY-NC-SA
exact mass=144.11503
ionization energy=70 eV
ion type=[M]+*
computed spectral entropy=2.7826940841155854
computed normalized entropy=0.7595597816827651
SPLASH=splash10-0079-9000000000-ad0258cbd5d18520beb9
submitter=submitter = University of Tokyo Team (Faculty of Engineering, University of Tokyo)
MoNA Rating=3.75

>  <NUM PEAKS>  (2045) 
39

>  <MASS SPECTRAL PEAKS>  (2045) 
15 1.59
26 1.8
27 32.5
28 2.52
29 33.8
31 1.81
39 20.73
40 2.64
41 46.45
42 6.34
43 21.91
45 12.04
51 1.18
53 3.42
54 1.14
55 20.53
56 4.25
57 32.23
58 1.32
59 2.32
60 1.95
67 1.17
68 1.18
69 5.82
70 2.8
71 1.09
73 96.53
74 4.19
83 1.61
86 1.17
87 19.69
88 99.99
89 3.87
97 1.04
101 16.15
102 1.06
115 8.42
116 14.16
117 1.02

$$$$

     RDKit          2D

 14 13  0  0  0  0  0  0  0  0999 V2000
    3.8971    6.7500    0.0000 C   0  0  0  0  0  0  0  0  0  0  0  0
    2.5981    7.5000    0.0000 C   0  0  0  0  0  0  0  0  0  0  0  0
    1.2990    6.7500    0.0000 C   0  0  0  0  0  0  0  0  0  0  0  0
    0.0000    7.5000    0.0000 C   0  0  0  0  0  0  0  0  0  0  0  0
   -1.2990    6.7500    0.0000 C   0  0  0  0  0  0  0  0  0  0  0  0
   -2.5981    7.5000    0.0000 C   0  0  0  0  0  0  0  0  0  0  0  0
   -3.8971    6.7500    0.0000 C   0  0  0  0  0  0  0  0  0  0  0  0
   -5.1962    7.5000    0.0000 C   0  0  0  0  0  0  0  0  0  0  0  0
   -6.4952    6.7500    0.0000 C   0  0  0  0  0  0  0  0  0  0  0  0
   -7.7942    7.5000    0.0000 C   0  0  0  0  0  0  0  0  0  0  0  0
   -9.0933    6.7500    0.0000 C   0  0  0  0  0  0  0  0  0  0  0  0
  -10.3923    7.5000    0.0000 C   0  0  0  0  0  0  0  0  0  0  0  0
  -10.3923    9.0000    0.0000 O   0  0  0  0  0  0  0  0  0  0  0  0
  -11.6913    6.7500    0.0000 O   0  0  0  0  0  0  0  0  0  0  0  0
  2  1  1  0
  3  2  1  0
  4  3  1  0
  5  4  1  0
  6  5  1  0
  7  6  1  0
  8  7  1  0
  9  8  1  0
 10  9  1  0
 11 10  1  0
 12 11  1  0
 13 12  2  0
 14 12  1  0
M  END
>  <NAME>  (2046) 
DODECANOIC ACID

>  <SYNONYMS>  (2046) 


>  <SPECTRUM TYPE>  (2046) 
MS1

>  <INSTRUMENT TYPE>  (2046) 
EI-B

>  <INSTRUMENT>  (2046) 
HITACHI M-80B

>  <ION MODE>  (2046) 
P

>  <INCHIKEY>  (2046) 
POULHZVOKOAJMA-UHFFFAOYSA-N

>  <FORMULA>  (2046) 
C12H24O2

>  <EXACT MASS>  (2046) 
200.177630008

>  <MW>  (2046) 
200

>  <ID>  (2046) 
JP009203

>  <CONTRIBUTOR>  (2046) 
University of Tokyo Team, {Faculty of Engineering, University of Tokyo

>  <COMMENT>  (2046) 
SMILES=CCCCCCCCCCCC(O)=O
InChI=InChI=1S/C12H24O2/c1-2-3-4-5-6-7-8-9-10-11-12(13)14/h2-11H2,1H3,(H,13,14)
computed SMILES=O=C(O)CCCCCCCCCCC
accession=JP009203
date=2016.01.19 (Created 2008.10.21, modified 2011.05.06)
author=SODA AROMATIC CO., LTD.
license=CC BY-NC-SA
exact mass=200.17763
ionization energy=70 eV
ion type=[M]+*
computed spectral entropy=3.3749568783870245
computed normalized entropy=0.8084915606000785
SPLASH=splash10-06xx-9100000000-1ef5cd411f38c53a0a92
submitter=submitter = University of Tokyo Team (Faculty of Engineering, University of Tokyo)
MoNA Rating=3.75

>  <NUM PEAKS>  (2046) 
65

>  <MASS SPECTRAL PEAKS>  (2046) 
15 1.95
27 18.46
29 37.95
31 2.05
39 12.53
40 3.12
41 68.98
42 12.49
43 66.48
44 2.23
45 27
53 5.02
54 3.6
55 50.67
56 10.58
57 48.65
58 2.08
59 4.41
60 99.99
61 14.53
65 1.16
67 4.06
68 3.3
69 19.83
70 6.07
71 20.77
72 1.7
73 98.2
74 6.65
77 1.48
79 1.74
81 2.75
82 2.55
83 11.35
84 7.2
85 19.46
86 2.24
87 10.66
88 2.71
89 2.45
91 1.16
96 2.44
97 7.19
98 6.28
99 4.53
101 7.84
102 2.52
103 1.75
110 1.46
111 3.73
112 2.51
115 10.71
116 1.82
117 1.28
129 19.32
130 2.33
138 3.34
140 3.42
141 2.17
143 4.14
157 14.77
158 1.98
171 5.03
200 15.77
201 2.29

$$$$

     RDKit          2D

 13 12  0  0  0  0  0  0  0  0999 V2000
    3.5724    6.5625    0.0000 C   0  0  0  0  0  0  0  0  0  0  0  0
    2.2733    7.3125    0.0000 C   0  0  0  0  0  0  0  0  0  0  0  0
    0.9743    6.5625    0.0000 C   0  0  0  0  0  0  0  0  0  0  0  0
   -0.3248    7.3125    0.0000 C   0  0  0  0  0  0  0  0  0  0  0  0
   -1.6238    6.5625    0.0000 C   0  0  0  0  0  0  0  0  0  0  0  0
   -2.9228    7.3125    0.0000 C   0  0  0  0  0  0  0  0  0  0  0  0
   -4.2219    6.5625    0.0000 C   0  0  0  0  0  0  0  0  0  0  0  0
   -5.5209    7.3125    0.0000 C   0  0  0  0  0  0  0  0  0  0  0  0
   -6.8200    6.5625    0.0000 C   0  0  0  0  0  0  0  0  0  0  0  0
   -8.1190    7.3125    0.0000 C   0  0  0  0  0  0  0  0  0  0  0  0
   -9.4180    6.5625    0.0000 C   0  0  0  0  0  0  0  0  0  0  0  0
   -9.4180    5.0625    0.0000 O   0  0  0  0  0  0  0  0  0  0  0  0
  -10.7171    7.3125    0.0000 O   0  0  0  0  0  0  0  0  0  0  0  0
  2  1  1  0
  3  2  1  0
  4  3  1  0
  5  4  1  0
  6  5  1  0
  7  6  1  0
  8  7  1  0
  9  8  1  0
 10  9  1  0
 11 10  1  0
 12 11  2  0
 13 11  1  0
M  END
>  <NAME>  (2047) 
UNDECANOIC ACID

>  <SYNONYMS>  (2047) 


>  <SPECTRUM TYPE>  (2047) 
MS1

>  <INSTRUMENT TYPE>  (2047) 
EI-B

>  <INSTRUMENT>  (2047) 
HITACHI M-80B

>  <ION MODE>  (2047) 
P

>  <INCHIKEY>  (2047) 
ZDPHROOEEOARMN-UHFFFAOYSA-N

>  <FORMULA>  (2047) 
C11H22O2

>  <EXACT MASS>  (2047) 
186.161979944

>  <MW>  (2047) 
186

>  <ID>  (2047) 
JP009202

>  <CONTRIBUTOR>  (2047) 
University of Tokyo Team, {Faculty of Engineering, University of Tokyo

>  <COMMENT>  (2047) 
SMILES=CCCCCCCCCCC(O)=O
InChI=InChI=1S/C11H22O2/c1-2-3-4-5-6-7-8-9-10-11(12)13/h2-10H2,1H3,(H,12,13)
computed SMILES=O=C(O)CCCCCCCCCC
accession=JP009202
date=2016.01.19 (Created 2008.10.21, modified 2011.05.06)
author=SODA AROMATIC CO., LTD.
license=CC BY-NC-SA
exact mass=186.16198
ionization energy=70 eV
ion type=[M]+*
computed spectral entropy=3.1724717352349296
computed normalized entropy=0.7990525141000521
SPLASH=splash10-0706-9000000000-d7f6a00a2bcfd58539f5
submitter=submitter = University of Tokyo Team (Faculty of Engineering, University of Tokyo)
MoNA Rating=3.75

>  <NUM PEAKS>  (2047) 
53

>  <MASS SPECTRAL PEAKS>  (2047) 
15 1.05
26 1.22
27 33.2
28 4.37
29 46.33
30 1.02
31 2.05
39 20.36
40 2.59
41 76.89
42 16.45
43 69.96
44 1.48
45 12.93
53 3.53
54 3.25
55 48.08
56 11.69
57 35.42
58 1.28
59 3.29
60 99.99
61 15.71
67 3.12
68 2.33
69 20.75
70 6.77
71 28.85
72 1.4
73 90.02
74 7.38
81 1.73
82 2.29
83 10.33
84 7.63
85 16
86 1.01
87 13.35
88 1.44
96 1.1
97 6.6
98 3.84
101 5.74
111 1.06
115 6.58
124 2.15
126 2.91
127 1.25
129 15.32
130 1.23
143 12.16
157 2.03
186 6

$$$$

     RDKit          2D

 13 12  0  0  0  0  0  0  0  0999 V2000
    3.5724    6.5625    0.0000 C   0  0  0  0  0  0  0  0  0  0  0  0
    2.2733    7.3125    0.0000 C   0  0  0  0  0  0  0  0  0  0  0  0
    0.9743    6.5625    0.0000 C   0  0  0  0  0  0  0  0  0  0  0  0
   -0.3248    7.3125    0.0000 C   0  0  0  0  0  0  0  0  0  0  0  0
   -1.6238    6.5625    0.0000 C   0  0  0  0  0  0  0  0  0  0  0  0
   -2.9228    7.3125    0.0000 C   0  0  0  0  0  0  0  0  0  0  0  0
   -4.2219    6.5625    0.0000 C   0  0  0  0  0  0  0  0  0  0  0  0
   -5.5209    7.3125    0.0000 C   0  0  0  0  0  0  0  0  0  0  0  0
   -6.8200    6.5625    0.0000 C   0  0  0  0  0  0  0  0  0  0  0  0
   -8.1190    7.3125    0.0000 C   0  0  0  0  0  0  0  0  0  0  0  0
   -9.4180    6.5625    0.0000 C   0  0  0  0  0  0  0  0  0  0  0  0
   -9.4180    5.0625    0.0000 O   0  0  0  0  0  0  0  0  0  0  0  0
  -10.7171    7.3125    0.0000 O   0  0  0  0  0  0  0  0  0  0  0  0
  2  1  2  0
  3  2  1  0
  4  3  1  0
  5  4  1  0
  6  5  1  0
  7  6  1  0
  8  7  1  0
  9  8  1  0
 10  9  1  0
 11 10  1  0
 12 11  2  0
 13 11  1  0
M  END
>  <NAME>  (2048) 
10-UNDECENOIC ACID

>  <SYNONYMS>  (2048) 


>  <SPECTRUM TYPE>  (2048) 
MS1

>  <INSTRUMENT TYPE>  (2048) 
EI-B

>  <INSTRUMENT>  (2048) 
HITACHI M-80B

>  <ION MODE>  (2048) 
P

>  <INCHIKEY>  (2048) 
FRPZMMHWLSIFAZ-UHFFFAOYSA-N

>  <FORMULA>  (2048) 
C11H20O2

>  <EXACT MASS>  (2048) 
184.14632988

>  <MW>  (2048) 
184

>  <ID>  (2048) 
JP009201

>  <CONTRIBUTOR>  (2048) 
University of Tokyo Team, {Faculty of Engineering, University of Tokyo

>  <COMMENT>  (2048) 
SMILES=C=CCCCCCCCCC(O)=O
InChI=InChI=1S/C11H20O2/c1-2-3-4-5-6-7-8-9-10-11(12)13/h2H,1,3-10H2,(H,12,13)
computed SMILES=O=C(O)CCCCCCCCC=C
accession=JP009201
date=2016.01.19 (Created 2008.10.21, modified 2011.05.06)
author=SODA AROMATIC CO., LTD.
license=CC BY-NC-SA
exact mass=184.14633
ionization energy=70 eV
ion type=[M]+*
computed spectral entropy=3.528327215911412
computed normalized entropy=0.8421522615023054
SPLASH=splash10-0a7l-9000000000-830e35fcbdcb4ba9b574
submitter=submitter = University of Tokyo Team (Faculty of Engineering, University of Tokyo)
MoNA Rating=3.75

>  <NUM PEAKS>  (2048) 
66

>  <MASS SPECTRAL PEAKS>  (2048) 
26 1.4
27 24.4
28 5.17
29 28.55
31 2.21
39 27.69
40 3.55
41 79.93
42 15.7
43 21.91
45 13.79
51 1.32
53 8.64
54 16
55 99.99
56 19.6
57 7.72
58 1.65
59 5.13
60 26.24
61 2.31
65 1.07
66 1.21
67 14.63
68 23.96
69 44.46
70 11.37
71 3.92
73 24.22
74 2.29
79 2.33
80 2.42
81 12.81
82 26.26
83 32.15
84 21.26
85 2.51
86 1.02
87 5.5
93 1.1
94 2.41
95 7.05
96 22.53
97 13.49
98 10.23
99 2.29
100 7.48
101 5.18
102 1.02
109 2.83
110 5.53
111 3.04
112 1.53
113 1.96
114 6.35
115 1.41
119 1.17
122 4.62
123 5.23
124 12.44
125 3.16
127 1.73
137 3.24
138 1.83
148 1.74
166 3.03

$$$$

     RDKit          2D

 12 11  0  0  0  0  0  0  0  0999 V2000
    3.2476    5.6250    0.0000 C   0  0  0  0  0  0  0  0  0  0  0  0
    1.9486    6.3750    0.0000 C   0  0  0  0  0  0  0  0  0  0  0  0
    0.6495    5.6250    0.0000 C   0  0  0  0  0  0  0  0  0  0  0  0
   -0.6495    6.3750    0.0000 C   0  0  0  0  0  0  0  0  0  0  0  0
   -1.9486    5.6250    0.0000 C   0  0  0  0  0  0  0  0  0  0  0  0
   -3.2476    6.3750    0.0000 C   0  0  0  0  0  0  0  0  0  0  0  0
   -4.5466    5.6250    0.0000 C   0  0  0  0  0  0  0  0  0  0  0  0
   -5.8457    6.3750    0.0000 C   0  0  0  0  0  0  0  0  0  0  0  0
   -7.1447    5.6250    0.0000 C   0  0  0  0  0  0  0  0  0  0  0  0
   -8.4437    6.3750    0.0000 C   0  0  0  0  0  0  0  0  0  0  0  0
   -8.4437    7.8750    0.0000 O   0  0  0  0  0  0  0  0  0  0  0  0
   -9.7428    5.6250    0.0000 O   0  0  0  0  0  0  0  0  0  0  0  0
  2  1  1  0
  3  2  1  0
  4  3  1  0
  5  4  1  0
  6  5  1  0
  7  6  1  0
  8  7  1  0
  9  8  1  0
 10  9  1  0
 11 10  2  0
 12 10  1  0
M  END
>  <NAME>  (2049) 
DECANOIC ACID

>  <SYNONYMS>  (2049) 


>  <SPECTRUM TYPE>  (2049) 
MS1

>  <INSTRUMENT TYPE>  (2049) 
EI-B

>  <INSTRUMENT>  (2049) 
HITACHI M-80B

>  <ION MODE>  (2049) 
P

>  <INCHIKEY>  (2049) 
GHVNFZFCNZKVNT-UHFFFAOYSA-N

>  <FORMULA>  (2049) 
C10H20O2

>  <EXACT MASS>  (2049) 
172.14632988

>  <MW>  (2049) 
172

>  <ID>  (2049) 
JP009200

>  <CONTRIBUTOR>  (2049) 
University of Tokyo Team, {Faculty of Engineering, University of Tokyo

>  <COMMENT>  (2049) 
SMILES=CCCCCCCCCC(O)=O
InChI=InChI=1S/C10H20O2/c1-2-3-4-5-6-7-8-9-10(11)12/h2-9H2,1H3,(H,11,12)
computed SMILES=O=C(O)CCCCCCCCC
accession=JP009200
date=2016.01.19 (Created 2008.10.21, modified 2011.05.06)
author=SODA AROMATIC CO., LTD.
license=CC BY-NC-SA
exact mass=172.14633
ionization energy=70 eV
ion type=[M]+*
computed spectral entropy=3.133061476601396
computed normalized entropy=0.8137510040419837
SPLASH=splash10-076u-9000000000-96a2e9e00e464db3c086
submitter=submitter = University of Tokyo Team (Faculty of Engineering, University of Tokyo)
MoNA Rating=3.75

>  <NUM PEAKS>  (2049) 
47

>  <MASS SPECTRAL PEAKS>  (2049) 
26 1.07
27 26.69
28 2.43
29 34.77
31 1.59
39 18.15
40 2.83
41 59.41
42 13.4
43 48.27
44 1.24
45 12.72
53 5.07
54 3.18
55 39.19
56 9.35
57 41.47
58 1.64
59 3.58
60 99.99
61 15.44
67 3.09
68 2.26
69 18.25
70 7.7
71 32.42
72 1.48
73 87.57
74 7.38
81 1.62
82 1.77
83 10.46
84 6.09
87 12.63
88 1.05
97 3.45
98 3.53
101 4.65
110 4.16
111 1.03
112 7.49
113 2.16
115 7.51
129 29.66
130 1.88
143 4.27
172 6.04

$$$$

     RDKit          2D

 12 11  0  0  0  0  0  0  0  0999 V2000
    3.2476    5.6250    0.0000 C   0  0  0  0  0  0  0  0  0  0  0  0
    1.9486    6.3750    0.0000 C   0  0  0  0  0  0  0  0  0  0  0  0
    0.6495    5.6250    0.0000 C   0  0  0  0  0  0  0  0  0  0  0  0
   -0.6495    6.3750    0.0000 C   0  0  0  0  0  0  0  0  0  0  0  0
   -1.9486    5.6250    0.0000 C   0  0  0  0  0  0  0  0  0  0  0  0
   -3.2476    6.3750    0.0000 C   0  0  0  0  0  0  0  0  0  0  0  0
   -4.5466    5.6250    0.0000 C   0  0  0  0  0  0  0  0  0  0  0  0
   -5.8457    6.3750    0.0000 C   0  0  0  0  0  0  0  0  0  0  0  0
   -7.1447    5.6250    0.0000 C   0  0  0  0  0  0  0  0  0  0  0  0
   -8.4437    6.3750    0.0000 C   0  0  0  0  0  0  0  0  0  0  0  0
   -8.4437    7.8750    0.0000 O   0  0  0  0  0  0  0  0  0  0  0  0
   -9.7428    5.6250    0.0000 O   0  0  0  0  0  0  0  0  0  0  0  0
  2  1  1  0
  3  2  1  0
  4  3  1  0
  5  4  1  0
  6  5  1  0
  7  6  1  0
  7  8  2  0
  9  8  1  0
 10  9  1  0
 11 10  2  0
 12 10  1  0
M  END
>  <NAME>  (2050) 
TRANS-3-DECENOIC ACID

>  <SYNONYMS>  (2050) 


>  <SPECTRUM TYPE>  (2050) 
MS1

>  <INSTRUMENT TYPE>  (2050) 
EI-B

>  <INSTRUMENT>  (2050) 
HITACHI M-80B

>  <ION MODE>  (2050) 
P

>  <INCHIKEY>  (2050) 
CPVUNKGURQKKKX-BQYQJAHWSA-N

>  <FORMULA>  (2050) 
C10H18O2

>  <EXACT MASS>  (2050) 
170.130679816

>  <MW>  (2050) 
170

>  <ID>  (2050) 
JP009199

>  <CONTRIBUTOR>  (2050) 
University of Tokyo Team, {Faculty of Engineering, University of Tokyo

>  <COMMENT>  (2050) 
SMILES=CCCCCCC=CCC(O)=O
InChI=InChI=1S/C10H18O2/c1-2-3-4-5-6-7-8-9-10(11)12/h7-8H,2-6,9H2,1H3,(H,11,12)/b8-7+
computed SMILES=O=C(O)CC=CCCCCCC
accession=JP009199
date=2016.01.19 (Created 2008.10.21, modified 2011.05.06)
author=SODA AROMATIC CO., LTD.
license=CC BY-NC-SA
exact mass=170.13068
ionization energy=70 eV
ion type=[M]+*
computed spectral entropy=3.6224995041801877
computed normalized entropy=0.8526547160337155
SPLASH=splash10-052f-9100000000-da4cb32c01c3c46f868c
submitter=submitter = University of Tokyo Team (Faculty of Engineering, University of Tokyo)
MoNA Rating=3.75

>  <NUM PEAKS>  (2050) 
70

>  <MASS SPECTRAL PEAKS>  (2050) 
14 1.22
15 2.03
26 2.48
27 31.99
28 3.1
29 47.14
30 1.32
31 2.68
39 28.01
40 5.6
41 86.18
42 30.67
43 99.99
44 3.86
45 17.59
50 1.68
51 2.74
52 1.78
53 14.18
54 34.83
55 89.53
56 38.67
57 22.7
58 7.92
59 4.15
60 12.56
61 1.97
65 2.92
66 3.28
67 23.97
68 24.24
69 44.8
70 19.86
71 16.3
73 12.37
74 1.46
77 2.41
79 4.36
80 1.58
81 21.56
82 14.08
83 13.82
84 29.12
85 5.35
86 2.58
87 10.51
88 1.27
94 1.91
95 9.95
96 13.9
97 9.42
98 5.16
99 5.8
100 16.27
101 9.78
108 6.77
109 5.37
110 27.35
111 8.72
112 1.04
113 3.74
114 7.79
115 2.41
123 9.42
124 3.64
127 3.33
134 2.85
152 12.71
153 1.87
170 2.63

$$$$

     RDKit          2D

 12 11  0  0  0  0  0  0  0  0999 V2000
    3.2476    5.6250    0.0000 C   0  0  0  0  0  0  0  0  0  0  0  0
    1.9486    6.3750    0.0000 C   0  0  0  0  0  0  0  0  0  0  0  0
    0.6495    5.6250    0.0000 C   0  0  0  0  0  0  0  0  0  0  0  0
   -0.6495    6.3750    0.0000 C   0  0  0  0  0  0  0  0  0  0  0  0
   -1.9486    5.6250    0.0000 C   0  0  0  0  0  0  0  0  0  0  0  0
   -3.2476    6.3750    0.0000 C   0  0  0  0  0  0  0  0  0  0  0  0
   -4.5466    5.6250    0.0000 C   0  0  0  0  0  0  0  0  0  0  0  0
   -5.8457    6.3750    0.0000 C   0  0  0  0  0  0  0  0  0  0  0  0
   -7.1447    5.6250    0.0000 C   0  0  0  0  0  0  0  0  0  0  0  0
   -8.4437    6.3750    0.0000 C   0  0  0  0  0  0  0  0  0  0  0  0
   -8.4437    7.8750    0.0000 O   0  0  0  0  0  0  0  0  0  0  0  0
   -9.7428    5.6250    0.0000 O   0  0  0  0  0  0  0  0  0  0  0  0
  2  1  1  0
  3  2  1  0
  4  3  1  0
  5  4  1  0
  6  5  1  0
  7  6  1  0
  8  7  1  0
  8  9  2  0
 10  9  1  0
 11 10  2  0
 12 10  1  0
M  END
>  <NAME>  (2051) 
TRANS-2-DECENOIC ACID

>  <SYNONYMS>  (2051) 


>  <SPECTRUM TYPE>  (2051) 
MS1

>  <INSTRUMENT TYPE>  (2051) 
EI-B

>  <INSTRUMENT>  (2051) 
HITACHI M-80B

>  <ION MODE>  (2051) 
P

>  <INCHIKEY>  (2051) 
WXBXVVIUZANZAU-CMDGGOBGSA-N

>  <FORMULA>  (2051) 
C10H18O2

>  <EXACT MASS>  (2051) 
170.130679816

>  <MW>  (2051) 
170

>  <ID>  (2051) 
JP009198

>  <CONTRIBUTOR>  (2051) 
University of Tokyo Team, {Faculty of Engineering, University of Tokyo

>  <COMMENT>  (2051) 
SMILES=CCCCCCCC=CC(O)=O
InChI=InChI=1S/C10H18O2/c1-2-3-4-5-6-7-8-9-10(11)12/h8-9H,2-7H2,1H3,(H,11,12)/b9-8+
computed SMILES=O=C(O)C=CCCCCCCC
accession=JP009198
author=SODA AROMATIC CO., LTD.
date=2016.01.19 (Created 2008.10.21, modified 2011.05.06)
license=CC BY-NC-SA
exact mass=170.13068
ionization energy=70 eV
ion type=[M]+*
computed spectral entropy=3.4774032564980293
computed normalized entropy=0.821283841755604
SPLASH=splash10-0006-9000000000-b161a74b3c916296d9a6
submitter=submitter = University of Tokyo Team (Faculty of Engineering, University of Tokyo)
MoNA Rating=3.75

>  <NUM PEAKS>  (2051) 
69

>  <MASS SPECTRAL PEAKS>  (2051) 
15 1.53
26 2.51
27 42.29
28 2.88
29 56.27
31 2.59
38 1.65
39 39.17
40 6.37
41 81.14
42 21.11
43 99.99
44 2.16
45 13.31
50 1.06
51 2.92
52 1.81
53 11.28
54 8.99
55 45.11
56 42.67
57 14.85
58 1.95
59 1.53
60 4.27
65 2.06
66 1.78
67 9.55
68 15.93
69 29.95
70 15.76
71 4.77
73 56.25
74 2.57
77 1.66
79 2.64
80 1.18
81 11.71
82 6.13
83 6.58
84 19.86
85 3.84
86 17.22
87 6.69
88 1.28
89 1.48
94 1.06
95 5.05
96 6.78
97 5.82
98 13.16
99 10.85
100 5.87
101 4.14
102 2.49
108 3.96
109 3.48
110 12.78
111 3.89
113 4.73
114 5.53
115 1.62
123 5.92
124 2.24
127 2.99
134 1.27
141 1.09
152 4.56
153 1.36

$$$$

     RDKit          2D

 11 10  0  0  0  0  0  0  0  0999 V2000
    2.9228    5.4375    0.0000 C   0  0  0  0  0  0  0  0  0  0  0  0
    1.6238    6.1875    0.0000 C   0  0  0  0  0  0  0  0  0  0  0  0
    0.3248    5.4375    0.0000 C   0  0  0  0  0  0  0  0  0  0  0  0
   -0.9743    6.1875    0.0000 C   0  0  0  0  0  0  0  0  0  0  0  0
   -2.2733    5.4375    0.0000 C   0  0  0  0  0  0  0  0  0  0  0  0
   -3.5724    6.1875    0.0000 C   0  0  0  0  0  0  0  0  0  0  0  0
   -4.8714    5.4375    0.0000 C   0  0  0  0  0  0  0  0  0  0  0  0
   -6.1704    6.1875    0.0000 C   0  0  0  0  0  0  0  0  0  0  0  0
   -7.4695    5.4375    0.0000 C   0  0  0  0  0  0  0  0  0  0  0  0
   -7.4695    3.9375    0.0000 O   0  0  0  0  0  0  0  0  0  0  0  0
   -8.7685    6.1875    0.0000 O   0  0  0  0  0  0  0  0  0  0  0  0
  2  1  1  0
  3  2  1  0
  4  3  1  0
  5  4  1  0
  6  5  1  0
  7  6  1  0
  8  7  1  0
  9  8  1  0
 10  9  2  0
 11  9  1  0
M  END
>  <NAME>  (2052) 
NONANOIC ACID

>  <SYNONYMS>  (2052) 


>  <SPECTRUM TYPE>  (2052) 
MS1

>  <INSTRUMENT TYPE>  (2052) 
EI-B

>  <INSTRUMENT>  (2052) 
HITACHI M-80B

>  <ION MODE>  (2052) 
P

>  <INCHIKEY>  (2052) 
FBUKVWPVBMHYJY-UHFFFAOYSA-N

>  <FORMULA>  (2052) 
C9H18O2

>  <EXACT MASS>  (2052) 
158.130679816

>  <MW>  (2052) 
158

>  <ID>  (2052) 
JP009197

>  <CONTRIBUTOR>  (2052) 
University of Tokyo Team, {Faculty of Engineering, University of Tokyo

>  <COMMENT>  (2052) 
SMILES=CCCCCCCCC(O)=O
InChI=InChI=1S/C9H18O2/c1-2-3-4-5-6-7-8-9(10)11/h2-8H2,1H3,(H,10,11)
computed SMILES=O=C(O)CCCCCCCC
accession=JP009197
date=2016.01.19 (Created 2008.10.21, modified 2011.05.06)
author=SODA AROMATIC CO., LTD.
license=CC BY-NC-SA
exact mass=158.13068
ionization energy=70 eV
ion type=[M]+*
computed spectral entropy=3.0635319406992383
computed normalized entropy=0.7913647294643492
SPLASH=splash10-08ml-9000000000-f9b45b786372be8b75d6
submitter=submitter = University of Tokyo Team (Faculty of Engineering, University of Tokyo)
MoNA Rating=3.75

>  <NUM PEAKS>  (2052) 
48

>  <MASS SPECTRAL PEAKS>  (2052) 
14 1.19
27 21.56
28 2.48
29 24.31
30 1.48
31 1.56
39 12.15
40 1.74
41 42.02
42 8.78
43 31.52
44 1.27
45 15.73
51 1.26
53 2.92
54 2.14
55 28.92
56 8.46
57 49.22
58 2.74
59 3.47
60 99.99
61 10.87
67 2.11
68 1.76
69 12.78
70 4.93
71 2.18
73 74.92
74 5.45
81 1.94
83 4.72
84 3.96
85 1.14
87 8.8
88 1.01
89 1.08
96 3.43
97 2.57
98 11.75
99 3.71
101 4.81
102 1.29
115 18.45
116 1.96
129 14.14
130 1.17
158 4.18

$$$$

     RDKit          2D

 11 10  0  0  0  0  0  0  0  0999 V2000
    2.9228    5.4375    0.0000 C   0  0  0  0  0  0  0  0  0  0  0  0
    1.6238    6.1875    0.0000 C   0  0  0  0  0  0  0  0  0  0  0  0
    0.3248    5.4375    0.0000 C   0  0  0  0  0  0  0  0  0  0  0  0
   -0.9743    6.1875    0.0000 C   0  0  0  0  0  0  0  0  0  0  0  0
   -2.2733    5.4375    0.0000 C   0  0  0  0  0  0  0  0  0  0  0  0
   -3.5724    6.1875    0.0000 C   0  0  0  0  0  0  0  0  0  0  0  0
   -4.8714    5.4375    0.0000 C   0  0  0  0  0  0  0  0  0  0  0  0
   -6.1704    6.1875    0.0000 C   0  0  0  0  0  0  0  0  0  0  0  0
   -7.4695    5.4375    0.0000 C   0  0  0  0  0  0  0  0  0  0  0  0
   -7.4695    3.9375    0.0000 O   0  0  0  0  0  0  0  0  0  0  0  0
   -8.7685    6.1875    0.0000 O   0  0  0  0  0  0  0  0  0  0  0  0
  2  1  1  0
  3  2  1  0
  4  3  1  0
  5  4  1  0
  6  5  1  0
  7  6  1  0
  7  8  2  0
  9  8  1  0
 10  9  2  0
 11  9  1  0
M  END
>  <NAME>  (2053) 
TRANS-2-NONENOIC ACID

>  <SYNONYMS>  (2053) 


>  <SPECTRUM TYPE>  (2053) 
MS1

>  <INSTRUMENT TYPE>  (2053) 
EI-B

>  <INSTRUMENT>  (2053) 
HITACHI M-80B

>  <ION MODE>  (2053) 
P

>  <INCHIKEY>  (2053) 
ADLXTJMPCFOTOO-BQYQJAHWSA-N

>  <FORMULA>  (2053) 
C9H16O2

>  <EXACT MASS>  (2053) 
156.115029752

>  <MW>  (2053) 
156

>  <ID>  (2053) 
JP009196

>  <CONTRIBUTOR>  (2053) 
University of Tokyo Team, {Faculty of Engineering, University of Tokyo

>  <COMMENT>  (2053) 
SMILES=CCCCCCC=CC(O)=O
InChI=InChI=1S/C9H16O2/c1-2-3-4-5-6-7-8-9(10)11/h7-8H,2-6H2,1H3,(H,10,11)/b8-7+
computed SMILES=O=C(O)C=CCCCCCC
accession=JP009196
date=2016.01.19 (Created 2008.10.21, modified 2011.05.06)
author=SODA AROMATIC CO., LTD.
license=CC BY-NC-SA
exact mass=156.11503
ionization energy=70 eV
ion type=[M]+*
computed spectral entropy=3.4700854897596454
computed normalized entropy=0.8223910778745258
SPLASH=splash10-002f-9000000000-01a8f71e6d0af8fd1575
submitter=submitter = University of Tokyo Team (Faculty of Engineering, University of Tokyo)
MoNA Rating=3.75

>  <NUM PEAKS>  (2053) 
68

>  <MASS SPECTRAL PEAKS>  (2053) 
14 1.09
15 2.58
18 5.12
26 3.67
27 59.07
28 5.24
29 68.63
30 1.9
31 3.6
32 1.04
38 2.47
39 54.98
40 8.83
41 91.29
42 38.49
43 99.99
44 3.93
45 13.88
50 1.88
51 4.22
52 2.94
53 14.55
54 12.13
55 61.08
56 39.72
57 10.1
58 3.03
59 2.1
60 7.27
63 1.13
65 2.71
66 2.25
67 12.59
68 16.92
69 19.73
70 14.14
71 7.91
72 1.01
73 68.49
74 3.22
77 1.78
79 2.46
80 1.5
81 13.59
82 4.91
83 4.9
84 29.79
85 3.65
86 23.87
87 8.73
88 3.33
94 6.04
95 5.49
96 26.03
97 8.64
98 1.32
99 15.24
100 6.54
101 4.8
109 5.12
110 3.56
113 4.86
114 4.95
115 1.44
123 2.31
127 3.28
138 10.02
139 2.28

$$$$

     RDKit          2D

 10  9  0  0  0  0  0  0  0  0999 V2000
    2.5981    4.5000    0.0000 C   0  0  0  0  0  0  0  0  0  0  0  0
    1.2990    5.2500    0.0000 C   0  0  0  0  0  0  0  0  0  0  0  0
    0.0000    4.5000    0.0000 C   0  0  0  0  0  0  0  0  0  0  0  0
   -1.2990    5.2500    0.0000 C   0  0  0  0  0  0  0  0  0  0  0  0
   -2.5981    4.5000    0.0000 C   0  0  0  0  0  0  0  0  0  0  0  0
   -3.8971    5.2500    0.0000 C   0  0  0  0  0  0  0  0  0  0  0  0
   -5.1962    4.5000    0.0000 C   0  0  0  0  0  0  0  0  0  0  0  0
   -6.4952    5.2500    0.0000 C   0  0  0  0  0  0  0  0  0  0  0  0
   -6.4952    6.7500    0.0000 O   0  0  0  0  0  0  0  0  0  0  0  0
   -7.7942    4.5000    0.0000 O   0  0  0  0  0  0  0  0  0  0  0  0
  2  1  1  0
  3  2  1  0
  4  3  1  0
  5  4  1  0
  6  5  1  0
  7  6  1  0
  8  7  1  0
  9  8  2  0
 10  8  1  0
M  END
>  <NAME>  (2054) 
OCTANOIC ACID

>  <SYNONYMS>  (2054) 


>  <SPECTRUM TYPE>  (2054) 
MS1

>  <INSTRUMENT TYPE>  (2054) 
EI-B

>  <INSTRUMENT>  (2054) 
HITACHI M-80B

>  <ION MODE>  (2054) 
P

>  <INCHIKEY>  (2054) 
WWZKQHOCKIZLMA-UHFFFAOYSA-N

>  <FORMULA>  (2054) 
C8H16O2

>  <EXACT MASS>  (2054) 
144.115029752

>  <MW>  (2054) 
144

>  <ID>  (2054) 
JP009195

>  <CONTRIBUTOR>  (2054) 
University of Tokyo Team, {Faculty of Engineering, University of Tokyo

>  <COMMENT>  (2054) 
SMILES=CCCCCCCC(O)=O
InChI=InChI=1S/C8H16O2/c1-2-3-4-5-6-7-8(9)10/h2-7H2,1H3,(H,9,10)
computed SMILES=O=C(O)CCCCCCC
accession=JP009195
date=2016.01.19 (Created 2008.10.21, modified 2011.05.06)
author=SODA AROMATIC CO., LTD.
license=CC BY-NC-SA
exact mass=144.11503
ionization energy=70 eV
ion type=[M]+*
computed spectral entropy=2.89766986375812
computed normalized entropy=0.7909433888793302
SPLASH=splash10-03kc-9000000000-74cfce03769b41313952
submitter=submitter = University of Tokyo Team (Faculty of Engineering, University of Tokyo)
MoNA Rating=3.75

>  <NUM PEAKS>  (2054) 
39

>  <MASS SPECTRAL PEAKS>  (2054) 
26 1.32
27 23.45
28 2.1
29 22.9
31 1.25
39 16.41
40 2.21
41 39.41
42 8.72
43 38.86
44 1.08
45 13.41
53 2.3
54 1.38
55 25.15
56 6.18
57 6.85
58 1.15
59 2.58
60 99.99
61 10.62
67 1.49
69 8.29
70 1.39
73 62.59
74 5.49
82 2.24
83 3.4
84 18.61
85 20.41
86 1.35
87 8.28
88 1.13
97 1.55
98 1.53
101 17.86
102 1.41
115 5.94
144 1.74

$$$$

     RDKit          2D

 10  9  0  0  0  0  0  0  0  0999 V2000
    2.5981    4.5000    0.0000 C   0  0  0  0  0  0  0  0  0  0  0  0
    1.2990    5.2500    0.0000 C   0  0  0  0  0  0  0  0  0  0  0  0
    0.0000    4.5000    0.0000 C   0  0  0  0  0  0  0  0  0  0  0  0
   -1.2990    5.2500    0.0000 C   0  0  0  0  0  0  0  0  0  0  0  0
   -2.5981    4.5000    0.0000 C   0  0  0  0  0  0  0  0  0  0  0  0
   -3.8971    5.2500    0.0000 C   0  0  0  0  0  0  0  0  0  0  0  0
   -5.1962    4.5000    0.0000 C   0  0  0  0  0  0  0  0  0  0  0  0
   -6.4952    5.2500    0.0000 C   0  0  0  0  0  0  0  0  0  0  0  0
   -6.4952    6.7500    0.0000 O   0  0  0  0  0  0  0  0  0  0  0  0
   -7.7942    4.5000    0.0000 O   0  0  0  0  0  0  0  0  0  0  0  0
  2  1  1  0
  3  2  1  0
  4  3  1  0
  5  4  1  0
  5  6  2  0
  7  6  1  0
  8  7  1  0
  9  8  2  0
 10  8  1  0
M  END
>  <NAME>  (2055) 
TRANS-3-OCTENOIC ACID

>  <SYNONYMS>  (2055) 


>  <SPECTRUM TYPE>  (2055) 
MS1

>  <INSTRUMENT TYPE>  (2055) 
EI-B

>  <INSTRUMENT>  (2055) 
HITACHI M-80B

>  <ION MODE>  (2055) 
P

>  <INCHIKEY>  (2055) 
IWPOSDLLFZKGOW-AATRIKPKSA-N

>  <FORMULA>  (2055) 
C8H14O2

>  <EXACT MASS>  (2055) 
142.099379688

>  <MW>  (2055) 
142

>  <ID>  (2055) 
JP009194

>  <CONTRIBUTOR>  (2055) 
University of Tokyo Team, {Faculty of Engineering, University of Tokyo

>  <COMMENT>  (2055) 
SMILES=CCCCC=CCC(O)=O
InChI=InChI=1S/C8H14O2/c1-2-3-4-5-6-7-8(9)10/h5-6H,2-4,7H2,1H3,(H,9,10)/b6-5+
computed SMILES=O=C(O)CC=CCCCC
accession=JP009194
date=2016.01.19 (Created 2008.10.21, modified 2011.05.06)
author=SODA AROMATIC CO., LTD.
license=CC BY-NC-SA
exact mass=142.09938
ionization energy=70 eV
ion type=[M]+*
computed spectral entropy=3.4588893256381974
computed normalized entropy=0.8414000137009247
SPLASH=splash10-054o-9000000000-c26685cdb9b9b928f340
submitter=submitter = University of Tokyo Team (Faculty of Engineering, University of Tokyo)
MoNA Rating=3.75

>  <NUM PEAKS>  (2055) 
61

>  <MASS SPECTRAL PEAKS>  (2055) 
15 2.99
17 1.03
26 3.99
27 46.11
28 7.15
29 31.77
31 3.35
38 3.85
39 41.13
40 8.46
41 99.99
42 14.72
43 51.29
44 3.74
45 22.5
50 2.83
51 6.37
52 3.79
53 15.51
54 26.21
55 90.53
56 36.59
57 25.3
58 8.5
59 2.88
60 14.53
61 3.02
63 1.03
65 3.34
66 1.75
67 35.9
68 10.68
69 12.01
70 7
71 18.98
72 1.17
73 10.8
74 3.32
77 2.88
79 3.12
80 2.23
81 10.75
82 74.69
83 23.02
84 3.07
85 2.56
86 2.95
87 11.74
91 1.92
95 5.33
96 18.41
97 4.53
99 5.68
100 13.22
101 3.53
106 1.92
109 2.16
113 4.67
124 24.51
125 3.25
142 3.73

$$$$

     RDKit          2D

 10  9  0  0  0  0  0  0  0  0999 V2000
    2.5981    4.5000    0.0000 C   0  0  0  0  0  0  0  0  0  0  0  0
    1.2990    5.2500    0.0000 C   0  0  0  0  0  0  0  0  0  0  0  0
    0.0000    4.5000    0.0000 C   0  0  0  0  0  0  0  0  0  0  0  0
   -1.2990    5.2500    0.0000 C   0  0  0  0  0  0  0  0  0  0  0  0
   -2.5981    4.5000    0.0000 C   0  0  0  0  0  0  0  0  0  0  0  0
   -3.8971    5.2500    0.0000 C   0  0  0  0  0  0  0  0  0  0  0  0
   -5.1962    4.5000    0.0000 C   0  0  0  0  0  0  0  0  0  0  0  0
   -6.4952    5.2500    0.0000 C   0  0  0  0  0  0  0  0  0  0  0  0
   -6.4952    6.7500    0.0000 O   0  0  0  0  0  0  0  0  0  0  0  0
   -7.7942    4.5000    0.0000 O   0  0  0  0  0  0  0  0  0  0  0  0
  2  1  1  0
  3  2  1  0
  4  3  1  0
  5  4  1  0
  6  5  1  0
  6  7  2  0
  8  7  1  0
  9  8  2  0
 10  8  1  0
M  END
>  <NAME>  (2056) 
TRANS-2-OCTENOIC ACID

>  <SYNONYMS>  (2056) 


>  <SPECTRUM TYPE>  (2056) 
MS1

>  <INSTRUMENT TYPE>  (2056) 
EI-B

>  <INSTRUMENT>  (2056) 
HITACHI M-80B

>  <ION MODE>  (2056) 
P

>  <INCHIKEY>  (2056) 
CWMPPVPFLSZGCY-VOTSOKGWSA-N

>  <FORMULA>  (2056) 
C8H14O2

>  <EXACT MASS>  (2056) 
142.099379688

>  <MW>  (2056) 
142

>  <ID>  (2056) 
JP009193

>  <CONTRIBUTOR>  (2056) 
University of Tokyo Team, {Faculty of Engineering, University of Tokyo

>  <COMMENT>  (2056) 
SMILES=CCCCCC=CC(O)=O
InChI=InChI=1S/C8H14O2/c1-2-3-4-5-6-7-8(9)10/h6-7H,2-5H2,1H3,(H,9,10)/b7-6+
computed SMILES=O=C(O)C=CCCCCC
accession=JP009193
date=2016.01.19 (Created 2008.10.21, modified 2011.05.06)
author=SODA AROMATIC CO., LTD.
license=CC BY-NC-SA
exact mass=142.09938
ionization energy=70 eV
ion type=[M]+*
computed spectral entropy=3.4488499427490784
computed normalized entropy=0.8173583706265886
SPLASH=splash10-0096-9000000000-801c8e0537a0c78cb64f
submitter=submitter = University of Tokyo Team (Faculty of Engineering, University of Tokyo)
MoNA Rating=3.75

>  <NUM PEAKS>  (2056) 
68

>  <MASS SPECTRAL PEAKS>  (2056) 
15 2.99
16 1.53
18 1.59
26 4.11
27 50.11
28 6.01
29 78.67
30 2.13
31 3.26
38 3.5
39 56.87
40 9.1
41 99.99
42 41.8
43 30.4
44 2.64
45 15.12
46 1.06
50 2.38
51 5.38
52 2.77
53 13.86
54 7.42
55 63.98
56 25.14
57 23.14
58 3.75
59 1.61
60 8.33
61 1.56
63 1.04
65 3.19
66 2.5
67 15.07
68 27.41
69 12.44
70 57.61
71 10.17
72 1.57
73 87.12
74 6.04
77 1.85
79 1.87
80 1.54
81 8.21
82 31.8
83 10.53
84 2.35
85 2.76
86 28.4
87 13.43
88 1.61
89 1.2
91 1.16
95 4.7
96 16.16
97 3.72
99 26.4
100 10.12
101 2.69
109 1.37
110 1.75
113 5.37
114 1.82
124 11.66
125 2.35
127 1.96
142 1.23

$$$$

     RDKit          2D

  9  8  0  0  0  0  0  0  0  0999 V2000
    2.2733    2.8125    0.0000 C   0  0  0  0  0  0  0  0  0  0  0  0
    0.9743    5.0625    0.0000 C   0  0  0  0  0  0  0  0  0  0  0  0
   -1.6238    3.5625    0.0000 C   0  0  0  0  0  0  0  0  0  0  0  0
   -0.3248    2.8125    0.0000 C   0  0  0  0  0  0  0  0  0  0  0  0
   -2.9228    2.8125    0.0000 C   0  0  0  0  0  0  0  0  0  0  0  0
    0.9743    3.5625    0.0000 C   0  0  0  0  0  0  0  0  0  0  0  0
   -4.2219    3.5625    0.0000 C   0  0  0  0  0  0  0  0  0  0  0  0
   -4.2219    5.0625    0.0000 O   0  0  0  0  0  0  0  0  0  0  0  0
   -5.5209    2.8125    0.0000 O   0  0  0  0  0  0  0  0  0  0  0  0
  4  3  1  0
  5  3  1  0
  6  1  1  0
  6  2  1  0
  6  4  1  0
  7  5  1  0
  8  7  2  0
  9  7  1  0
M  END
>  <NAME>  (2057) 
5-METHYLHEXANOIC ACID

>  <SYNONYMS>  (2057) 


>  <SPECTRUM TYPE>  (2057) 
MS1

>  <INSTRUMENT TYPE>  (2057) 
EI-B

>  <INSTRUMENT>  (2057) 
HITACHI M-80B

>  <ION MODE>  (2057) 
P

>  <INCHIKEY>  (2057) 
MHPUGCYGQWGLJL-UHFFFAOYSA-N

>  <FORMULA>  (2057) 
C7H14O2

>  <EXACT MASS>  (2057) 
130.099379688

>  <MW>  (2057) 
130

>  <ID>  (2057) 
JP009192

>  <CONTRIBUTOR>  (2057) 
University of Tokyo Team, {Faculty of Engineering, University of Tokyo

>  <COMMENT>  (2057) 
SMILES=CC(C)CCCC(O)=O
InChI=InChI=1S/C7H14O2/c1-6(2)4-3-5-7(8)9/h6H,3-5H2,1-2H3,(H,8,9)
computed SMILES=O=C(O)CCCC(C)C
accession=JP009192
date=2016.01.19 (Created 2008.10.21, modified 2011.05.06)
author=SODA AROMATIC CO., LTD.
license=CC BY-NC-SA
exact mass=130.09938
ionization energy=70 eV
ion type=[M]+*
computed spectral entropy=2.8126226804619274
computed normalized entropy=0.7910962954450254
SPLASH=splash10-03kl-9000000000-af743c0a8f14eb41ed52
submitter=submitter = University of Tokyo Team (Faculty of Engineering, University of Tokyo)
MoNA Rating=3.75

>  <NUM PEAKS>  (2057) 
35

>  <MASS SPECTRAL PEAKS>  (2057) 
15 1.56
26 1.23
27 22.8
28 1.93
29 12.72
31 1.58
38 1.2
39 20.66
40 2.79
41 49.07
42 14.44
43 50.16
44 1.37
45 14.97
53 2.47
55 20.95
56 5.46
57 2.91
60 99.99
61 3.22
67 1.28
68 1.36
69 30.65
70 5.43
71 54.91
72 2.41
73 30.03
74 3.89
83 1.08
87 37.12
88 7.69
89 2.74
94 3.42
97 7.27
115 1.04

$$$$

     RDKit          2D

  9  8  0  0  0  0  0  0  0  0999 V2000
    1.9486    3.3750    0.0000 C   0  0  0  0  0  0  0  0  0  0  0  0
   -3.2476    1.8750    0.0000 C   0  0  0  0  0  0  0  0  0  0  0  0
    0.6495    4.1250    0.0000 C   0  0  0  0  0  0  0  0  0  0  0  0
   -0.6495    3.3750    0.0000 C   0  0  0  0  0  0  0  0  0  0  0  0
   -1.9486    4.1250    0.0000 C   0  0  0  0  0  0  0  0  0  0  0  0
   -3.2476    3.3750    0.0000 C   0  0  0  0  0  0  0  0  0  0  0  0
   -4.5466    4.1250    0.0000 C   0  0  0  0  0  0  0  0  0  0  0  0
   -4.5466    5.6250    0.0000 O   0  0  0  0  0  0  0  0  0  0  0  0
   -5.8457    3.3750    0.0000 O   0  0  0  0  0  0  0  0  0  0  0  0
  3  1  1  0
  4  3  1  0
  5  4  1  0
  6  2  1  0
  6  5  1  0
  7  6  1  0
  8  7  2  0
  9  7  1  0
M  END
>  <NAME>  (2058) 
2-METHYLHEXANOIC ACID

>  <SYNONYMS>  (2058) 


>  <SPECTRUM TYPE>  (2058) 
MS1

>  <INSTRUMENT TYPE>  (2058) 
EI-B

>  <INSTRUMENT>  (2058) 
HITACHI M-80B

>  <ION MODE>  (2058) 
P

>  <INCHIKEY>  (2058) 
CVKMFSAVYPAZTQ-UHFFFAOYSA-N

>  <FORMULA>  (2058) 
C7H14O2

>  <EXACT MASS>  (2058) 
130.099379688

>  <MW>  (2058) 
130

>  <ID>  (2058) 
JP009191

>  <CONTRIBUTOR>  (2058) 
University of Tokyo Team, {Faculty of Engineering, University of Tokyo

>  <COMMENT>  (2058) 
SMILES=CCCCC(C)C(O)=O
InChI=InChI=1S/C7H14O2/c1-3-4-5-6(2)7(8)9/h6H,3-5H2,1-2H3,(H,8,9)
computed SMILES=O=C(O)C(C)CCCC
accession=JP009191
date=2016.01.19 (Created 2008.10.21, modified 2011.05.06)
author=SODA AROMATIC CO., LTD.
license=CC BY-NC-SA
exact mass=130.09938
ionization energy=70 eV
ion type=[M]+*
computed spectral entropy=2.462111179234988
computed normalized entropy=0.7470367252187153
SPLASH=splash10-00di-9000000000-6c06450a5157b089542c
submitter=submitter = University of Tokyo Team (Faculty of Engineering, University of Tokyo)
MoNA Rating=3.75

>  <NUM PEAKS>  (2058) 
27

>  <MASS SPECTRAL PEAKS>  (2058) 
15 1.23
26 1.43
27 19.45
28 2.93
29 16.64
30 1.95
31 1.2
39 11.91
40 1.78
41 24.86
42 4.08
43 28.42
45 7.22
53 1.78
55 9.8
56 4.9
57 5.32
59 2.05
69 2.29
70 1.27
73 12.37
74 99.99
75 2.78
85 2.24
87 22.2
88 1.3
101 2.62

$$$$

     RDKit          2D

  9  8  0  0  0  0  0  0  0  0999 V2000
   -7.4695    3.9375    0.0000 C   0  0  0  0  0  0  0  0  0  0  0  0
   -6.1704    3.1875    0.0000 C   0  0  0  0  0  0  0  0  0  0  0  0
   -4.8714    3.9375    0.0000 C   0  0  0  0  0  0  0  0  0  0  0  0
   -3.5724    3.1875    0.0000 C   0  0  0  0  0  0  0  0  0  0  0  0
   -2.2733    3.9375    0.0000 C   0  0  0  0  0  0  0  0  0  0  0  0
   -0.9743    3.1875    0.0000 C   0  0  0  0  0  0  0  0  0  0  0  0
    0.3248    3.9375    0.0000 C   0  0  0  0  0  0  0  0  0  0  0  0
    0.3248    5.4375    0.0000 O   0  0  0  0  0  0  0  0  0  0  0  0
    1.6238    3.1875    0.0000 O   0  0  0  0  0  0  0  0  0  0  0  0
  2  1  1  0
  3  2  1  0
  4  3  1  0
  5  4  1  0
  6  5  1  0
  7  6  1  0
  8  7  2  0
  9  7  1  0
M  END
>  <NAME>  (2059) 
HEPTANOIC ACID

>  <SYNONYMS>  (2059) 


>  <SPECTRUM TYPE>  (2059) 
MS1

>  <INSTRUMENT TYPE>  (2059) 
EI-B

>  <INSTRUMENT>  (2059) 
HITACHI M-80B

>  <ION MODE>  (2059) 
P

>  <INCHIKEY>  (2059) 
MNWFXJYAOYHMED-UHFFFAOYSA-N

>  <FORMULA>  (2059) 
C7H14O2

>  <EXACT MASS>  (2059) 
130.099379688

>  <MW>  (2059) 
130

>  <ID>  (2059) 
JP009190

>  <CONTRIBUTOR>  (2059) 
University of Tokyo Team, {Faculty of Engineering, University of Tokyo

>  <COMMENT>  (2059) 
SMILES=CCCCCCC(O)=O
InChI=InChI=1S/C7H14O2/c1-2-3-4-5-6-7(8)9/h2-6H2,1H3,(H,8,9)
computed SMILES=O=C(O)CCCCCC
accession=JP009190
date=2016.01.19 (Created 2008.10.21, modified 2011.05.06)
author=SODA AROMATIC CO., LTD.
license=CC BY-NC-SA
exact mass=130.09938
ionization energy=70 eV
ion type=[M]+*
computed spectral entropy=2.724544868754696
computed normalized entropy=0.7934056554422089
SPLASH=splash10-03kc-9000000000-ebeb37b8d3c0ca55826d
submitter=submitter = University of Tokyo Team (Faculty of Engineering, University of Tokyo)
MoNA Rating=3.75

>  <NUM PEAKS>  (2059) 
31

>  <MASS SPECTRAL PEAKS>  (2059) 
15 1.42
26 1.79
27 19.55
28 2.93
29 16.31
31 2.15
39 9.77
40 2.05
41 30.56
42 6.67
43 26.4
45 10.51
53 1.95
54 1.05
55 17.05
56 3.53
57 2.55
59 3.28
60 99.99
61 9.58
68 1.9
69 3.89
70 12.84
71 11.21
73 48.16
74 4.89
83 2.57
84 3.19
87 19.87
88 1.45
101 5.22

$$$$

     RDKit          2D

  8  7  0  0  0  0  0  0  0  0999 V2000
    0.9743    2.8125    0.0000 C   0  0  0  0  0  0  0  0  0  0  0  0
   -4.2219    2.8125    0.0000 C   0  0  0  0  0  0  0  0  0  0  0  0
   -0.3248    3.5625    0.0000 C   0  0  0  0  0  0  0  0  0  0  0  0
   -2.9228    3.5625    0.0000 C   0  0  0  0  0  0  0  0  0  0  0  0
   -1.6238    2.8125    0.0000 C   0  0  0  0  0  0  0  0  0  0  0  0
   -1.6238    1.3125    0.0000 C   0  0  0  0  0  0  0  0  0  0  0  0
   -2.9228    0.5625    0.0000 O   0  0  0  0  0  0  0  0  0  0  0  0
   -0.3248    0.5625    0.0000 O   0  0  0  0  0  0  0  0  0  0  0  0
  3  1  1  0
  4  2  1  0
  5  3  1  0
  5  4  1  0
  6  5  1  0
  7  6  2  0
  8  6  1  0
M  END
>  <NAME>  (2060) 
2-ETHYLBUTYRIC ACID

>  <SYNONYMS>  (2060) 


>  <SPECTRUM TYPE>  (2060) 
MS1

>  <INSTRUMENT TYPE>  (2060) 
EI-B

>  <INSTRUMENT>  (2060) 
HITACHI M-80B

>  <ION MODE>  (2060) 
P

>  <INCHIKEY>  (2060) 
OXQGTIUCKGYOAA-UHFFFAOYSA-N

>  <FORMULA>  (2060) 
C6H12O2

>  <EXACT MASS>  (2060) 
116.083729624

>  <MW>  (2060) 
116

>  <ID>  (2060) 
JP009189

>  <CONTRIBUTOR>  (2060) 
University of Tokyo Team, {Faculty of Engineering, University of Tokyo

>  <COMMENT>  (2060) 
SMILES=CCC(CC)C(O)=O
InChI=InChI=1S/C6H12O2/c1-3-5(4-2)6(7)8/h5H,3-4H2,1-2H3,(H,7,8)
computed SMILES=O=C(O)C(CC)CC
accession=JP009189
date=2016.01.19 (Created 2008.10.21, modified 2011.05.06)
author=SODA AROMATIC CO., LTD.
license=CC BY-NC-SA
exact mass=116.08373
ionization energy=70 eV
ion type=[M]+*
computed spectral entropy=2.7012662311477373
computed normalized entropy=0.7725612439444551
SPLASH=splash10-007c-9000000000-dbe4308a7aba1f8b1fdf
submitter=submitter = University of Tokyo Team (Faculty of Engineering, University of Tokyo)
MoNA Rating=3.75

>  <NUM PEAKS>  (2060) 
33

>  <MASS SPECTRAL PEAKS>  (2060) 
15 3.29
26 4.11
27 43.88
28 3.57
29 34.59
31 2.38
38 2.31
39 30.88
40 3.37
41 44.5
42 6.68
43 93.1
44 2.77
45 19.96
51 1.56
53 3.63
54 1.13
55 24.54
56 2.08
57 2.1
59 1.99
60 2.3
68 1.78
69 8.79
70 3.84
71 22.91
72 1.2
73 71.65
74 3.06
87 34.42
88 99.99
89 4.13
101 4.47

$$$$

     RDKit          2D

  8  7  0  0  0  0  0  0  0  0999 V2000
    0.0000    0.0000    0.0000 C   0  0  0  0  0  0  0  0  0  0  0  0
    1.2990    2.2500    0.0000 C   0  0  0  0  0  0  0  0  0  0  0  0
   -1.2990    2.2500    0.0000 C   0  0  0  0  0  0  0  0  0  0  0  0
   -1.2990    3.7500    0.0000 C   0  0  0  0  0  0  0  0  0  0  0  0
    0.0000    1.5000    0.0000 C   0  0  0  0  0  0  0  0  0  0  0  0
   -2.5981    4.5000    0.0000 C   0  0  0  0  0  0  0  0  0  0  0  0
   -3.8971    3.7500    0.0000 O   0  0  0  0  0  0  0  0  0  0  0  0
   -2.5981    6.0000    0.0000 O   0  0  0  0  0  0  0  0  0  0  0  0
  4  3  1  0
  5  1  1  0
  5  2  1  0
  5  3  1  0
  6  4  1  0
  7  6  2  0
  8  6  1  0
M  END
>  <NAME>  (2061) 
4-METHYLVALERIC ACID

>  <SYNONYMS>  (2061) 


>  <SPECTRUM TYPE>  (2061) 
MS1

>  <INSTRUMENT TYPE>  (2061) 
EI-B

>  <INSTRUMENT>  (2061) 
HITACHI M-80B

>  <ION MODE>  (2061) 
P

>  <INCHIKEY>  (2061) 
FGKJLKRYENPLQH-UHFFFAOYSA-N

>  <FORMULA>  (2061) 
C6H12O2

>  <EXACT MASS>  (2061) 
116.083729624

>  <MW>  (2061) 
116

>  <ID>  (2061) 
JP009188

>  <CONTRIBUTOR>  (2061) 
University of Tokyo Team, {Faculty of Engineering, University of Tokyo

>  <COMMENT>  (2061) 
SMILES=CC(C)CCC(O)=O
InChI=InChI=1S/C6H12O2/c1-5(2)3-4-6(7)8/h5H,3-4H2,1-2H3,(H,7,8)
computed SMILES=O=C(O)CCC(C)C
accession=JP009188
date=2016.01.19 (Created 2008.10.21, modified 2011.05.06)
author=SODA AROMATIC CO., LTD.
license=CC BY-NC-SA
exact mass=116.08373
ionization energy=70 eV
ion type=[M]+*
computed spectral entropy=2.8933623154695387
computed normalized entropy=0.8138056430563497
SPLASH=splash10-0abc-9000000000-9da80434be2ce0d86913
submitter=submitter = University of Tokyo Team (Faculty of Engineering, University of Tokyo)
MoNA Rating=3.75

>  <NUM PEAKS>  (2061) 
35

>  <MASS SPECTRAL PEAKS>  (2061) 
15 4.48
26 3.63
27 39.74
28 2.09
29 25.72
30 3.56
31 4.35
38 2.42
39 29.6
40 1.16
41 58.4
42 13.53
43 56.02
44 2.26
45 22.1
50 2.08
51 2.49
53 4.74
54 1.43
55 57.06
56 15.46
57 99.99
58 4.27
59 16.33
60 33.65
61 2.02
69 4.21
70 3.46
73 57.04
74 62.33
75 5.09
83 15.2
87 5.2
97 1.23
101 3.9

$$$$

     RDKit          2D

  8  7  0  0  0  0  0  0  0  0999 V2000
    1.6238    3.1875    0.0000 C   0  0  0  0  0  0  0  0  0  0  0  0
   -0.9743    1.6875    0.0000 C   0  0  0  0  0  0  0  0  0  0  0  0
    0.3248    3.9375    0.0000 C   0  0  0  0  0  0  0  0  0  0  0  0
   -2.2733    3.9375    0.0000 C   0  0  0  0  0  0  0  0  0  0  0  0
   -0.9743    3.1875    0.0000 C   0  0  0  0  0  0  0  0  0  0  0  0
   -3.5724    3.1875    0.0000 C   0  0  0  0  0  0  0  0  0  0  0  0
   -3.5724    1.6875    0.0000 O   0  0  0  0  0  0  0  0  0  0  0  0
   -4.8714    3.9375    0.0000 O   0  0  0  0  0  0  0  0  0  0  0  0
  3  1  1  0
  5  2  1  0
  5  3  1  0
  5  4  1  0
  6  4  1  0
  7  6  2  0
  8  6  1  0
M  END
>  <NAME>  (2062) 
3-METHYLVALERIC ACID

>  <SYNONYMS>  (2062) 


>  <SPECTRUM TYPE>  (2062) 
MS1

>  <INSTRUMENT TYPE>  (2062) 
EI-B

>  <INSTRUMENT>  (2062) 
HITACHI M-80B

>  <ION MODE>  (2062) 
P

>  <INCHIKEY>  (2062) 
IGIDLTISMCAULB-UHFFFAOYSA-N

>  <FORMULA>  (2062) 
C6H12O2

>  <EXACT MASS>  (2062) 
116.083729624

>  <MW>  (2062) 
116

>  <ID>  (2062) 
JP009187

>  <CONTRIBUTOR>  (2062) 
University of Tokyo Team, {Faculty of Engineering, University of Tokyo

>  <COMMENT>  (2062) 
SMILES=CCC(C)CC(O)=O
InChI=InChI=1S/C6H12O2/c1-3-5(2)4-6(7)8/h5H,3-4H2,1-2H3,(H,7,8)
computed SMILES=O=C(O)CC(C)CC
accession=JP009187
date=2016.01.19 (Created 2008.10.21, modified 2011.05.06)
author=SODA AROMATIC CO., LTD.
license=CC BY-NC-SA
exact mass=116.08373
ionization energy=70 eV
ion type=[M]+*
computed spectral entropy=2.584074982003568
computed normalized entropy=0.7674036118216402
SPLASH=splash10-03di-9000000000-8a3d878b35fe05000f4b
submitter=submitter = University of Tokyo Team (Faculty of Engineering, University of Tokyo)
MoNA Rating=3.75

>  <NUM PEAKS>  (2062) 
29

>  <MASS SPECTRAL PEAKS>  (2062) 
15 1.13
18 3.19
26 1.2
27 13.89
29 15.18
31 1.87
38 1.03
39 11.4
40 1.74
41 28.68
42 6.87
43 13.07
45 13.87
51 1.13
53 1.72
55 11.97
56 14.78
57 21.27
58 1.5
59 4.3
60 99.99
61 14.21
69 2.72
70 1.28
73 3.87
83 1.79
87 17.14
88 1.08
101 1.31

$$$$

     RDKit          2D

  8  7  0  0  0  0  0  0  0  0999 V2000
    1.6238    3.1875    0.0000 C   0  0  0  0  0  0  0  0  0  0  0  0
   -2.2733    5.4375    0.0000 C   0  0  0  0  0  0  0  0  0  0  0  0
    0.3248    3.9375    0.0000 C   0  0  0  0  0  0  0  0  0  0  0  0
   -0.9743    3.1875    0.0000 C   0  0  0  0  0  0  0  0  0  0  0  0
   -2.2733    3.9375    0.0000 C   0  0  0  0  0  0  0  0  0  0  0  0
   -3.5724    3.1875    0.0000 C   0  0  0  0  0  0  0  0  0  0  0  0
   -3.5724    1.6875    0.0000 O   0  0  0  0  0  0  0  0  0  0  0  0
   -4.8714    3.9375    0.0000 O   0  0  0  0  0  0  0  0  0  0  0  0
  3  1  1  0
  4  3  1  0
  5  2  1  0
  5  4  1  0
  6  5  1  0
  7  6  2  0
  8  6  1  0
M  END
>  <NAME>  (2063) 
2-METHYLVALERIC ACID

>  <SYNONYMS>  (2063) 


>  <SPECTRUM TYPE>  (2063) 
MS1

>  <INSTRUMENT TYPE>  (2063) 
EI-B

>  <INSTRUMENT>  (2063) 
HITACHI M-80B

>  <ION MODE>  (2063) 
P

>  <INCHIKEY>  (2063) 
OVBFMEVBMNZIBR-UHFFFAOYSA-N

>  <FORMULA>  (2063) 
C6H12O2

>  <EXACT MASS>  (2063) 
116.083729624

>  <MW>  (2063) 
116

>  <ID>  (2063) 
JP009186

>  <CONTRIBUTOR>  (2063) 
University of Tokyo Team, {Faculty of Engineering, University of Tokyo

>  <COMMENT>  (2063) 
SMILES=CCCC(C)C(O)=O
InChI=InChI=1S/C6H12O2/c1-3-4-5(2)6(7)8/h5H,3-4H2,1-2H3,(H,7,8)
computed SMILES=O=C(O)C(C)CCC
accession=JP009186
date=2016.01.19 (Created 2008.10.21, modified 2011.05.06)
author=SODA AROMATIC CO., LTD.
license=CC BY-NC-SA
exact mass=116.08373
ionization energy=70 eV
ion type=[M]+*
computed spectral entropy=2.5029125110104258
computed normalized entropy=0.7511281205482869
SPLASH=splash10-00dl-9000000000-2befc58fc5f43a0d13c2
submitter=submitter = University of Tokyo Team (Faculty of Engineering, University of Tokyo)
MoNA Rating=3.75

>  <NUM PEAKS>  (2063) 
28

>  <MASS SPECTRAL PEAKS>  (2063) 
15 1.61
26 2.1
27 23.6
28 5.02
29 15.86
30 2.59
31 1.35
38 1.08
39 14.95
40 1.94
41 26.74
42 5.58
43 47.01
44 1.45
45 9.99
53 1.74
55 9.62
56 5.56
57 1.69
59 1.6
69 2.17
70 1.09
71 6.58
73 14.37
74 99.99
75 3.04
87 14.88
101 2.07

$$$$

     RDKit          2D

  8  7  0  0  0  0  0  0  0  0999 V2000
    1.9486    3.3750    0.0000 C   0  0  0  0  0  0  0  0  0  0  0  0
    0.6495    4.1250    0.0000 C   0  0  0  0  0  0  0  0  0  0  0  0
   -0.6495    3.3750    0.0000 C   0  0  0  0  0  0  0  0  0  0  0  0
   -1.9486    4.1250    0.0000 C   0  0  0  0  0  0  0  0  0  0  0  0
   -3.2476    3.3750    0.0000 C   0  0  0  0  0  0  0  0  0  0  0  0
   -4.5466    4.1250    0.0000 C   0  0  0  0  0  0  0  0  0  0  0  0
   -4.5466    5.6250    0.0000 O   0  0  0  0  0  0  0  0  0  0  0  0
   -5.8457    3.3750    0.0000 O   0  0  0  0  0  0  0  0  0  0  0  0
  2  1  1  0
  3  2  1  0
  4  3  1  0
  5  4  1  0
  6  5  1  0
  7  6  2  0
  8  6  1  0
M  END
>  <NAME>  (2064) 
HEXANOIC ACID

>  <SYNONYMS>  (2064) 


>  <SPECTRUM TYPE>  (2064) 
MS1

>  <INSTRUMENT TYPE>  (2064) 
EI-B

>  <INSTRUMENT>  (2064) 
HITACHI M-80B

>  <ION MODE>  (2064) 
P

>  <INCHIKEY>  (2064) 
FUZZWVXGSFPDMH-UHFFFAOYSA-N

>  <FORMULA>  (2064) 
C6H12O2

>  <EXACT MASS>  (2064) 
116.083729624

>  <MW>  (2064) 
116

>  <ID>  (2064) 
JP009185

>  <CONTRIBUTOR>  (2064) 
University of Tokyo Team, {Faculty of Engineering, University of Tokyo

>  <COMMENT>  (2064) 
SMILES=CCCCCC(O)=O
InChI=InChI=1S/C6H12O2/c1-2-3-4-5-6(7)8/h2-5H2,1H3,(H,7,8)
computed SMILES=O=C(O)CCCCC
accession=JP009185
date=2016.01.19 (Created 2008.10.21, modified 2011.05.06)
author=SODA AROMATIC CO., LTD.
license=CC BY-NC-SA
exact mass=116.08373
ionization energy=70 eV
ion type=[M]+*
computed spectral entropy=2.492134015659859
computed normalized entropy=0.7742249627669006
SPLASH=splash10-03di-9000000000-f4bf00b677d90d54ba69
submitter=submitter = University of Tokyo Team (Faculty of Engineering, University of Tokyo)
MoNA Rating=3.75

>  <NUM PEAKS>  (2064) 
25

>  <MASS SPECTRAL PEAKS>  (2064) 
15 1.25
18 1.78
26 1.79
27 20.15
28 2.66
29 12.93
31 2
39 10.15
40 1.83
41 26.73
42 8.72
43 14.14
45 12.24
53 1.5
55 8.92
56 7.42
57 7.73
59 1.83
60 99.99
61 7.54
69 2.56
70 2.8
73 43.43
74 5.23
87 9.35

$$$$

     RDKit          2D

  8  7  0  0  0  0  0  0  0  0999 V2000
    1.9486    3.3750    0.0000 C   0  0  0  0  0  0  0  0  0  0  0  0
    0.6495    4.1250    0.0000 C   0  0  0  0  0  0  0  0  0  0  0  0
   -0.6495    3.3750    0.0000 C   0  0  0  0  0  0  0  0  0  0  0  0
   -1.9486    4.1250    0.0000 C   0  0  0  0  0  0  0  0  0  0  0  0
   -3.2476    3.3750    0.0000 C   0  0  0  0  0  0  0  0  0  0  0  0
   -4.5466    4.1250    0.0000 C   0  0  0  0  0  0  0  0  0  0  0  0
   -4.5466    5.6250    0.0000 O   0  0  0  0  0  0  0  0  0  0  0  0
   -5.8457    3.3750    0.0000 O   0  0  0  0  0  0  0  0  0  0  0  0
  2  1  1  0
  3  2  1  0
  3  4  2  0
  5  4  1  0
  6  5  1  0
  7  6  2  0
  8  6  1  0
M  END
>  <NAME>  (2065) 
TRANS-3-HEXENOIC ACID

>  <SYNONYMS>  (2065) 


>  <SPECTRUM TYPE>  (2065) 
MS1

>  <INSTRUMENT TYPE>  (2065) 
EI-B

>  <INSTRUMENT>  (2065) 
HITACHI M-80B

>  <ION MODE>  (2065) 
P

>  <INCHIKEY>  (2065) 
XXHDAWYDNSXJQM-ONEGZZNKSA-N

>  <FORMULA>  (2065) 
C6H10O2

>  <EXACT MASS>  (2065) 
114.06807956

>  <MW>  (2065) 
114

>  <ID>  (2065) 
JP009184

>  <CONTRIBUTOR>  (2065) 
University of Tokyo Team, {Faculty of Engineering, University of Tokyo

>  <COMMENT>  (2065) 
SMILES=CCC=CCC(O)=O
InChI=InChI=1S/C6H10O2/c1-2-3-4-5-6(7)8/h3-4H,2,5H2,1H3,(H,7,8)/b4-3+
computed SMILES=O=C(O)CC=CCC
accession=JP009184
date=2016.01.19 (Created 2008.10.21, modified 2011.05.06)
author=SODA AROMATIC CO., LTD.
license=CC BY-NC-SA
exact mass=114.06808
ionization energy=70 eV
ion type=[M]+*
computed spectral entropy=3.1074149765688714
computed normalized entropy=0.7984477027568404
SPLASH=splash10-07do-9000000000-8b13420b30c228556186
submitter=submitter = University of Tokyo Team (Faculty of Engineering, University of Tokyo)
MoNA Rating=3.75

>  <NUM PEAKS>  (2065) 
49

>  <MASS SPECTRAL PEAKS>  (2065) 
15 2.8
18 1.14
26 4.26
27 35.93
28 3.95
29 22
31 2.15
37 1.81
38 4.47
39 48.46
40 6.35
41 99.99
42 19.37
43 14.87
44 1.77
45 24.12
50 3.68
51 4.99
52 2.76
53 17.48
54 8.47
55 77.77
56 3.81
57 18.34
58 2.41
59 1.68
60 43.71
61 1.77
62 1.23
63 1.41
65 2.32
66 1.2
67 9.63
68 44.8
69 36.25
70 2.7
71 5.14
72 2.32
73 16.04
74 1.01
81 3.58
85 1.05
86 1.18
95 1.03
96 4.81
97 1.7
99 6.82
114 36.56
115 2.31

$$$$

     RDKit          2D

  8  7  0  0  0  0  0  0  0  0999 V2000
    2.9228    5.0625    0.0000 C   0  0  0  0  0  0  0  0  0  0  0  0
    1.6238    4.3125    0.0000 C   0  0  0  0  0  0  0  0  0  0  0  0
    1.6238    2.8125    0.0000 C   0  0  0  0  0  0  0  0  0  0  0  0
    0.3248    2.0625    0.0000 C   0  0  0  0  0  0  0  0  0  0  0  0
   -0.9743    2.8125    0.0000 C   0  0  0  0  0  0  0  0  0  0  0  0
   -2.2733    2.0625    0.0000 C   0  0  0  0  0  0  0  0  0  0  0  0
   -2.2733    0.5625    0.0000 O   0  0  0  0  0  0  0  0  0  0  0  0
   -3.5724    2.8125    0.0000 O   0  0  0  0  0  0  0  0  0  0  0  0
  2  1  1  0
  3  2  1  0
  3  4  2  0
  5  4  1  0
  6  5  1  0
  7  6  2  0
  8  6  1  0
M  END
>  <NAME>  (2066) 
CIS-3-HEXENOIC ACID

>  <SYNONYMS>  (2066) 


>  <SPECTRUM TYPE>  (2066) 
MS1

>  <INSTRUMENT TYPE>  (2066) 
EI-B

>  <INSTRUMENT>  (2066) 
HITACHI M-80B

>  <ION MODE>  (2066) 
P

>  <INCHIKEY>  (2066) 
XXHDAWYDNSXJQM-ARJAWSKDSA-N

>  <FORMULA>  (2066) 
C6H10O2

>  <EXACT MASS>  (2066) 
114.06807956

>  <MW>  (2066) 
114

>  <ID>  (2066) 
JP009183

>  <CONTRIBUTOR>  (2066) 
University of Tokyo Team, {Faculty of Engineering, University of Tokyo

>  <COMMENT>  (2066) 
SMILES=CCC=CCC(O)=O
InChI=InChI=1S/C6H10O2/c1-2-3-4-5-6(7)8/h3-4H,2,5H2,1H3,(H,7,8)/b4-3-
computed SMILES=O=C(O)CC=CCC
accession=JP009183
date=2016.01.19 (Created 2008.10.21, modified 2011.05.06)
author=SODA AROMATIC CO., LTD.
license=CC BY-NC-SA
exact mass=114.06808
ionization energy=70 eV
ion type=[M]+*
computed spectral entropy=3.1277257990962526
computed normalized entropy=0.7995162080479491
SPLASH=splash10-07dx-9000000000-1796c6f6412740199482
submitter=submitter = University of Tokyo Team (Faculty of Engineering, University of Tokyo)
MoNA Rating=3.75

>  <NUM PEAKS>  (2066) 
50

>  <MASS SPECTRAL PEAKS>  (2066) 
15 2.96
17 1.06
26 4.17
27 39.51
28 3.27
29 25.17
31 2.64
37 2.19
38 5.19
39 51.92
40 7.65
41 99.99
42 21.45
43 15.57
44 1.83
45 23.1
50 3.56
51 5.56
52 2.61
53 19.24
54 9.41
55 80.67
56 4.11
57 17.84
58 2.61
59 1.8
60 46.24
61 1.85
62 1.42
63 1.63
65 2.36
66 1.52
67 9.78
68 48.92
69 31.2
70 2.6
71 5.52
72 2.57
73 16.42
81 3.95
85 1.09
86 1.28
87 1.06
95 1.19
96 5
97 2.01
99 6.47
100 1.08
114 32.65
115 2.37

$$$$

     RDKit          2D

  8  7  0  0  0  0  0  0  0  0999 V2000
    1.9486    3.3750    0.0000 C   0  0  0  0  0  0  0  0  0  0  0  0
    0.6495    4.1250    0.0000 C   0  0  0  0  0  0  0  0  0  0  0  0
   -0.6495    3.3750    0.0000 C   0  0  0  0  0  0  0  0  0  0  0  0
   -1.9486    4.1250    0.0000 C   0  0  0  0  0  0  0  0  0  0  0  0
   -3.2476    3.3750    0.0000 C   0  0  0  0  0  0  0  0  0  0  0  0
   -4.5466    4.1250    0.0000 C   0  0  0  0  0  0  0  0  0  0  0  0
   -4.5466    5.6250    0.0000 O   0  0  0  0  0  0  0  0  0  0  0  0
   -5.8457    3.3750    0.0000 O   0  0  0  0  0  0  0  0  0  0  0  0
  2  1  1  0
  3  2  1  0
  4  3  1  0
  4  5  2  0
  6  5  1  0
  7  6  2  0
  8  6  1  0
M  END
>  <NAME>  (2067) 
TRANS-2-HEXENOIC ACID

>  <SYNONYMS>  (2067) 


>  <SPECTRUM TYPE>  (2067) 
MS1

>  <INSTRUMENT TYPE>  (2067) 
EI-B

>  <INSTRUMENT>  (2067) 
HITACHI M-80B

>  <ION MODE>  (2067) 
P

>  <INCHIKEY>  (2067) 
NIONDZDPPYHYKY-SNAWJCMRSA-N

>  <FORMULA>  (2067) 
C6H10O2

>  <EXACT MASS>  (2067) 
114.06807956

>  <MW>  (2067) 
114

>  <ID>  (2067) 
JP009182

>  <CONTRIBUTOR>  (2067) 
University of Tokyo Team, {Faculty of Engineering, University of Tokyo

>  <COMMENT>  (2067) 
SMILES=CCCC=CC(O)=O
InChI=InChI=1S/C6H10O2/c1-2-3-4-5-6(7)8/h4-5H,2-3H2,1H3,(H,7,8)/b5-4+
computed SMILES=O=C(O)C=CCCC
accession=JP009182
date=2016.01.19 (Created 2008.10.21, modified 2011.05.06)
author=SODA AROMATIC CO., LTD.
license=CC BY-NC-SA
exact mass=114.06808
ionization energy=70 eV
ion type=[M]+*
computed spectral entropy=3.17497358414833
computed normalized entropy=0.8035377745031144
SPLASH=splash10-0096-9000000000-800bed3e63b70dd66688
submitter=submitter = University of Tokyo Team (Faculty of Engineering, University of Tokyo)
MoNA Rating=3.75

>  <NUM PEAKS>  (2067) 
52

>  <MASS SPECTRAL PEAKS>  (2067) 
15 2.89
18 1.03
26 5.72
27 45.76
28 3.54
29 39.66
30 1.09
31 3.49
37 2.25
38 6.36
39 55.89
40 13.97
41 58.57
42 63.4
43 19.37
44 2.17
45 18.96
50 2.97
51 4.62
52 1.94
53 11.05
54 4.01
55 37.83
56 4.38
57 8.59
58 3.58
59 6.57
60 14.82
61 1.32
62 1.05
63 1.31
65 1.91
66 1.51
67 6.05
68 32.9
69 15.41
70 1.67
71 5.22
72 1.22
73 99.99
74 3.13
81 7.84
85 2.21
86 4.64
87 1.01
95 1.53
96 4.65
97 3.05
99 26.79
100 1.75
114 17.73
115 1.42

$$$$

     RDKit          2D

  7  6  0  0  0  0  0  0  0  0999 V2000
   -3.8971    2.2500    0.0000 C   0  0  0  0  0  0  0  0  0  0  0  0
   -1.2990    3.7500    0.0000 C   0  0  0  0  0  0  0  0  0  0  0  0
   -2.5981    1.5000    0.0000 C   0  0  0  0  0  0  0  0  0  0  0  0
   -1.2990    2.2500    0.0000 C   0  0  0  0  0  0  0  0  0  0  0  0
    0.0000    1.5000    0.0000 C   0  0  0  0  0  0  0  0  0  0  0  0
   -0.0000    0.0000    0.0000 O   0  0  0  0  0  0  0  0  0  0  0  0
    1.2990    2.2500    0.0000 O   0  0  0  0  0  0  0  0  0  0  0  0
  3  1  1  0
  4  2  1  0
  4  3  1  0
  5  4  1  0
  6  5  2  0
  7  5  1  0
M  END
>  <NAME>  (2068) 
2-METHYLBUTYRIC ACID

>  <SYNONYMS>  (2068) 


>  <SPECTRUM TYPE>  (2068) 
MS1

>  <INSTRUMENT TYPE>  (2068) 
EI-B

>  <INSTRUMENT>  (2068) 
HITACHI M-80B

>  <ION MODE>  (2068) 
P

>  <INCHIKEY>  (2068) 
WLAMNBDJUVNPJU-UHFFFAOYSA-N

>  <FORMULA>  (2068) 
C5H10O2

>  <EXACT MASS>  (2068) 
102.06807956

>  <MW>  (2068) 
102

>  <ID>  (2068) 
JP009181

>  <CONTRIBUTOR>  (2068) 
University of Tokyo Team, {Faculty of Engineering, University of Tokyo

>  <COMMENT>  (2068) 
SMILES=CCC(C)C(O)=O
InChI=InChI=1S/C5H10O2/c1-3-4(2)5(6)7/h4H,3H2,1-2H3,(H,6,7)
computed SMILES=O=C(O)C(C)CC
accession=JP009181
date=2016.01.19 (Created 2008.10.21, modified 2011.05.06)
author=SODA AROMATIC CO., LTD.
license=CC BY-NC-SA
exact mass=102.06808
ionization energy=70 eV
ion type=[M]+*
computed spectral entropy=2.585064024712333
computed normalized entropy=0.7527879024522774
SPLASH=splash10-05i3-9000000000-0aaa78177c0a6f4e0f30
submitter=submitter = University of Tokyo Team (Faculty of Engineering, University of Tokyo)
MoNA Rating=3.75

>  <NUM PEAKS>  (2068) 
31

>  <MASS SPECTRAL PEAKS>  (2068) 
15 2.71
16 1.05
26 4.86
27 32.67
28 9.93
29 57.56
30 3.04
31 2.06
38 1.86
39 18.46
40 2.17
41 57.52
42 3.87
43 4.05
45 14.44
46 1.07
50 1.73
51 1.51
53 2.17
55 7.77
56 9.04
57 58.1
58 2.39
59 2.19
60 2.92
69 4.21
73 11.81
74 99.99
75 2.99
87 22.71
88 1.08

$$$$

     RDKit          2D

  7  6  0  0  0  0  0  0  0  0999 V2000
    1.6238    1.6875    0.0000 C   0  0  0  0  0  0  0  0  0  0  0  0
    0.3248    3.9375    0.0000 C   0  0  0  0  0  0  0  0  0  0  0  0
   -0.9743    1.6875    0.0000 C   0  0  0  0  0  0  0  0  0  0  0  0
    0.3248    2.4375    0.0000 C   0  0  0  0  0  0  0  0  0  0  0  0
   -2.2733    2.4375    0.0000 C   0  0  0  0  0  0  0  0  0  0  0  0
   -2.2733    3.9375    0.0000 O   0  0  0  0  0  0  0  0  0  0  0  0
   -3.5724    1.6875    0.0000 O   0  0  0  0  0  0  0  0  0  0  0  0
  4  1  1  0
  4  2  1  0
  4  3  1  0
  5  3  1  0
  6  5  2  0
  7  5  1  0
M  END
>  <NAME>  (2069) 
ISOVALERIC ACID

>  <SYNONYMS>  (2069) 


>  <SPECTRUM TYPE>  (2069) 
MS1

>  <INSTRUMENT TYPE>  (2069) 
EI-B

>  <INSTRUMENT>  (2069) 
HITACHI M-80B

>  <ION MODE>  (2069) 
P

>  <INCHIKEY>  (2069) 
GWYFCOCPABKNJV-UHFFFAOYSA-N

>  <FORMULA>  (2069) 
C5H10O2

>  <EXACT MASS>  (2069) 
102.06807956

>  <MW>  (2069) 
102

>  <ID>  (2069) 
JP009180

>  <CONTRIBUTOR>  (2069) 
University of Tokyo Team, {Faculty of Engineering, University of Tokyo

>  <COMMENT>  (2069) 
SMILES=CC(C)CC(O)=O
InChI=InChI=1S/C5H10O2/c1-4(2)3-5(6)7/h4H,3H2,1-2H3,(H,6,7)
computed SMILES=O=C(O)CC(C)C
accession=JP009180
date=2016.01.19 (Created 2008.10.21, modified 2011.05.06)
author=SODA AROMATIC CO., LTD.
license=CC BY-NC-SA
exact mass=102.06808
ionization energy=70 eV
ion type=[M]+*
computed spectral entropy=2.3535796692194437
computed normalized entropy=0.731180634877648
SPLASH=splash10-03dl-9000000000-43967f1315b6b575f330
submitter=submitter = University of Tokyo Team (Faculty of Engineering, University of Tokyo)
MoNA Rating=3.75

>  <NUM PEAKS>  (2069) 
25

>  <MASS SPECTRAL PEAKS>  (2069) 
14 1.12
15 2.94
26 1.55
27 24.26
29 6.92
31 2.56
37 1.24
38 2.09
39 22.97
40 2.77
41 37.83
42 9.64
43 33.45
44 1.21
45 18.61
55 2.23
56 2.84
57 2.51
59 3.29
60 99.99
61 4.73
69 3.48
74 1.15
85 1.09
87 15.29

$$$$

     RDKit          2D

  7  6  0  0  0  0  0  0  0  0999 V2000
    1.6238    3.1875    0.0000 C   0  0  0  0  0  0  0  0  0  0  0  0
    0.3248    3.9375    0.0000 C   0  0  0  0  0  0  0  0  0  0  0  0
   -0.9743    3.1875    0.0000 C   0  0  0  0  0  0  0  0  0  0  0  0
   -2.2733    3.9375    0.0000 C   0  0  0  0  0  0  0  0  0  0  0  0
   -3.5724    3.1875    0.0000 C   0  0  0  0  0  0  0  0  0  0  0  0
   -3.5724    1.6875    0.0000 O   0  0  0  0  0  0  0  0  0  0  0  0
   -4.8714    3.9375    0.0000 O   0  0  0  0  0  0  0  0  0  0  0  0
  2  1  1  0
  3  2  1  0
  4  3  1  0
  5  4  1  0
  6  5  2  0
  7  5  1  0
M  END
>  <NAME>  (2070) 
VALERIC ACID

>  <SYNONYMS>  (2070) 


>  <SPECTRUM TYPE>  (2070) 
MS1

>  <INSTRUMENT TYPE>  (2070) 
EI-B

>  <INSTRUMENT>  (2070) 
HITACHI M-80B

>  <ION MODE>  (2070) 
P

>  <INCHIKEY>  (2070) 
NQPDZGIKBAWPEJ-UHFFFAOYSA-N

>  <FORMULA>  (2070) 
C5H10O2

>  <EXACT MASS>  (2070) 
102.06807956

>  <MW>  (2070) 
102

>  <ID>  (2070) 
JP009179

>  <CONTRIBUTOR>  (2070) 
University of Tokyo Team, {Faculty of Engineering, University of Tokyo

>  <COMMENT>  (2070) 
SMILES=CCCCC(O)=O
InChI=InChI=1S/C5H10O2/c1-2-3-4-5(6)7/h2-4H2,1H3,(H,6,7)
computed SMILES=O=C(O)CCCC
accession=JP009179
date=2016.01.19 (Created 2008.10.21, modified 2011.05.06)
author=SODA AROMATIC CO., LTD.
license=CC BY-NC-SA
exact mass=102.06808
ionization energy=70 eV
ion type=[M]+*
computed spectral entropy=2.351254291024735
computed normalized entropy=0.7498831536922422
SPLASH=splash10-03di-9000000000-2160417549a364f722df
submitter=submitter = University of Tokyo Team (Faculty of Engineering, University of Tokyo)
MoNA Rating=3.75

>  <NUM PEAKS>  (2070) 
23

>  <MASS SPECTRAL PEAKS>  (2070) 
15 1.78
18 1.98
26 3.19
27 25.05
28 8.4
29 21.5
31 2.07
38 1.08
39 12.87
40 1.34
41 21.36
42 10.1
43 9.63
45 13.84
53 1.08
55 7.75
56 4.02
57 2.09
60 99.99
61 3.08
73 35.27
74 2.23
87 1.46

$$$$

     RDKit          2D

  6  5  0  0  0  0  0  0  0  0999 V2000
   -0.0000   -0.0000    0.0000 C   0  0  0  0  0  0  0  0  0  0  0  0
    1.2990    2.2500    0.0000 C   0  0  0  0  0  0  0  0  0  0  0  0
   -0.0000    1.5000    0.0000 C   0  0  0  0  0  0  0  0  0  0  0  0
   -1.2990    2.2500    0.0000 C   0  0  0  0  0  0  0  0  0  0  0  0
   -2.5981    1.5000    0.0000 O   0  0  0  0  0  0  0  0  0  0  0  0
   -1.2990    3.7500    0.0000 O   0  0  0  0  0  0  0  0  0  0  0  0
  3  1  1  0
  3  2  1  0
  4  3  1  0
  5  4  2  0
  6  4  1  0
M  END
>  <NAME>  (2071) 
ISOBUTRIC ACID

>  <SYNONYMS>  (2071) 


>  <SPECTRUM TYPE>  (2071) 
MS1

>  <INSTRUMENT TYPE>  (2071) 
EI-B

>  <INSTRUMENT>  (2071) 
HITACHI M-80B

>  <ION MODE>  (2071) 
P

>  <INCHIKEY>  (2071) 
KQNPFQTWMSNSAP-UHFFFAOYSA-N

>  <FORMULA>  (2071) 
C4H8O2

>  <EXACT MASS>  (2071) 
88.052429496

>  <MW>  (2071) 
88

>  <ID>  (2071) 
JP009178

>  <CONTRIBUTOR>  (2071) 
University of Tokyo Team, {Faculty of Engineering, University of Tokyo

>  <COMMENT>  (2071) 
computed SMILES=O=C(O)C(C)C
SMILES=CC(C)C(O)=O
InChI=InChI=1S/C4H8O2/c1-3(2)4(5)6/h3H,1-2H3,(H,5,6)
accession=JP009178
date=2016.01.19 (Created 2008.10.21, modified 2011.05.06)
author=SODA AROMATIC CO., LTD.
license=CC BY-NC-SA
exact mass=88.05243
ionization energy=70 eV
ion type=[M]+*
computed spectral entropy=2.1446751009364626
computed normalized entropy=0.7159101365196846
SPLASH=splash10-0006-9000000000-e8e4dc7f7f3f492ec19c
submitter=submitter = University of Tokyo Team (Faculty of Engineering, University of Tokyo)
MoNA Rating=3.75

>  <NUM PEAKS>  (2071) 
20

>  <MASS SPECTRAL PEAKS>  (2071) 
15 2.92
26 3.4
27 33.72
28 2.73
29 4.75
31 1.35
37 1.55
38 2.76
39 14.64
40 2.11
41 46.34
42 8.81
43 99.99
44 2.96
45 10.44
55 4.12
60 1.39
71 2.05
73 23.1
88 6.96

$$$$

     RDKit          2D

  6  5  0  0  0  0  0  0  0  0999 V2000
    1.2990    2.2500    0.0000 C   0  0  0  0  0  0  0  0  0  0  0  0
    0.0000    3.0000    0.0000 C   0  0  0  0  0  0  0  0  0  0  0  0
   -1.2990    2.2500    0.0000 C   0  0  0  0  0  0  0  0  0  0  0  0
   -2.5981    3.0000    0.0000 C   0  0  0  0  0  0  0  0  0  0  0  0
   -2.5981    4.5000    0.0000 O   0  0  0  0  0  0  0  0  0  0  0  0
   -3.8971    2.2500    0.0000 O   0  0  0  0  0  0  0  0  0  0  0  0
  2  1  1  0
  3  2  1  0
  4  3  1  0
  5  4  2  0
  6  4  1  0
M  END
>  <NAME>  (2072) 
BUTYRIC ACID

>  <SYNONYMS>  (2072) 


>  <SPECTRUM TYPE>  (2072) 
MS1

>  <INSTRUMENT TYPE>  (2072) 
EI-B

>  <INSTRUMENT>  (2072) 
HITACHI M-80B

>  <ION MODE>  (2072) 
P

>  <INCHIKEY>  (2072) 
FERIUCNNQQJTOY-UHFFFAOYSA-N

>  <FORMULA>  (2072) 
C4H8O2

>  <EXACT MASS>  (2072) 
88.052429496

>  <MW>  (2072) 
88

>  <ID>  (2072) 
JP009177

>  <CONTRIBUTOR>  (2072) 
University of Tokyo Team, {Faculty of Engineering, University of Tokyo

>  <COMMENT>  (2072) 
SMILES=CCCC(O)=O
InChI=InChI=1S/C4H8O2/c1-2-3-4(5)6/h2-3H2,1H3,(H,5,6)
computed SMILES=O=C(O)CCC
accession=JP009177
date=2016.01.19 (Created 2008.10.21, modified 2011.05.06)
author=SODA AROMATIC CO., LTD.
license=CC BY-NC-SA
exact mass=88.05243
ionization energy=70 eV
ion type=[M]+*
computed spectral entropy=2.3988402107197553
computed normalized entropy=0.7548142161132371
SPLASH=splash10-03dl-9000000000-032fc35b394786b5896a
submitter=submitter = University of Tokyo Team (Faculty of Engineering, University of Tokyo)
MoNA Rating=3.75

>  <NUM PEAKS>  (2072) 
24

>  <MASS SPECTRAL PEAKS>  (2072) 
14 1.08
15 2.62
26 4.02
27 32.6
28 5.92
29 14.17
31 1.73
37 1.75
38 2.96
39 16.99
40 2.21
41 24.41
42 21.65
43 16.5
45 19.5
55 5.81
60 99.99
61 2.03
69 1.37
71 2.23
73 30.27
74 1.23
87 1.21
88 1.97

$$$$

     RDKit          2D

  6  5  0  0  0  0  0  0  0  0999 V2000
    1.2990    2.2500    0.0000 C   0  0  0  0  0  0  0  0  0  0  0  0
    0.0000    3.0000    0.0000 C   0  0  0  0  0  0  0  0  0  0  0  0
   -1.2990    2.2500    0.0000 C   0  0  0  0  0  0  0  0  0  0  0  0
   -2.5981    3.0000    0.0000 C   0  0  0  0  0  0  0  0  0  0  0  0
   -2.5981    4.5000    0.0000 O   0  0  0  0  0  0  0  0  0  0  0  0
   -3.8971    2.2500    0.0000 O   0  0  0  0  0  0  0  0  0  0  0  0
  2  1  1  0
  2  3  2  0
  4  3  1  0
  5  4  2  0
  6  4  1  0
M  END
>  <NAME>  (2073) 
CROTONIC ACID

>  <SYNONYMS>  (2073) 


>  <SPECTRUM TYPE>  (2073) 
MS1

>  <INSTRUMENT TYPE>  (2073) 
EI-B

>  <INSTRUMENT>  (2073) 
HITACHI M-80B

>  <ION MODE>  (2073) 
P

>  <INCHIKEY>  (2073) 
LDHQCZJRKDOVOX-NSCUHMNNSA-N

>  <FORMULA>  (2073) 
C4H6O2

>  <EXACT MASS>  (2073) 
86.036779432

>  <MW>  (2073) 
86

>  <ID>  (2073) 
JP009176

>  <CONTRIBUTOR>  (2073) 
University of Tokyo Team, {Faculty of Engineering, University of Tokyo

>  <COMMENT>  (2073) 
SMILES=CC=CC(O)=O
InChI=InChI=1S/C4H6O2/c1-2-3-4(5)6/h2-3H,1H3,(H,5,6)/b3-2+
computed SMILES=O=C(O)C=CC
accession=JP009176
date=2016.01.19 (Created 2008.10.21, modified 2011.05.06)
author=SODA AROMATIC CO., LTD.
license=CC BY-NC-SA
exact mass=86.03678
ionization energy=70 eV
ion type=[M]+*
computed spectral entropy=2.658161791254966
computed normalized entropy=0.7669833668248127
SPLASH=splash10-000l-9000000000-c066ee0b8aa28cc564f5
submitter=submitter = University of Tokyo Team (Faculty of Engineering, University of Tokyo)
MoNA Rating=3.75

>  <NUM PEAKS>  (2073) 
32

>  <MASS SPECTRAL PEAKS>  (2073) 
14 1.29
15 5.87
18 2
25 1.41
26 8.59
27 17.52
28 1.72
29 9.82
30 1.2
31 2.55
36 1.48
37 13.25
38 24.6
39 99.99
40 27.32
41 88.95
42 13.81
43 6.99
44 1.98
45 28.28
53 2.84
55 2.09
57 6.71
58 1.76
60 2.17
68 36.18
69 38.11
70 1.33
71 11.89
85 2.4
86 90.05
87 4.62

$$$$

     RDKit          2D

  5  4  0  0  0  0  0  0  0  0999 V2000
   -0.0000   -0.0000    0.0000 C   0  0  0  0  0  0  0  0  0  0  0  0
    0.0000    1.5000    0.0000 C   0  0  0  0  0  0  0  0  0  0  0  0
   -1.2990    2.2500    0.0000 C   0  0  0  0  0  0  0  0  0  0  0  0
   -2.5981    1.5000    0.0000 O   0  0  0  0  0  0  0  0  0  0  0  0
   -1.2990    3.7500    0.0000 O   0  0  0  0  0  0  0  0  0  0  0  0
  2  1  1  0
  3  2  1  0
  4  3  2  0
  5  3  1  0
M  END
>  <NAME>  (2074) 
PROPIONIC ACID

>  <SYNONYMS>  (2074) 


>  <SPECTRUM TYPE>  (2074) 
MS1

>  <INSTRUMENT TYPE>  (2074) 
EI-B

>  <INSTRUMENT>  (2074) 
HITACHI M-80B

>  <ION MODE>  (2074) 
P

>  <INCHIKEY>  (2074) 
XBDQKXXYIPTUBI-UHFFFAOYSA-N

>  <FORMULA>  (2074) 
C3H6O2

>  <EXACT MASS>  (2074) 
74.036779432

>  <MW>  (2074) 
74

>  <ID>  (2074) 
JP009175

>  <CONTRIBUTOR>  (2074) 
University of Tokyo Team, {Faculty of Engineering, University of Tokyo

>  <COMMENT>  (2074) 
SMILES=CCC(O)=O
InChI=InChI=1S/C3H6O2/c1-2-3(4)5/h2H2,1H3,(H,4,5)
computed SMILES=O=C(O)CC
accession=JP009175
date=2016.01.19 (Created 2008.10.21, modified 2011.05.06)
author=SODA AROMATIC CO., LTD.
license=CC BY-NC-SA
exact mass=74.03678
ionization energy=70 eV
ion type=[M]+*
computed spectral entropy=2.4441420139384014
computed normalized entropy=0.7501748292033837
SPLASH=splash10-004i-9000000000-691dcd080b30c9898350
submitter=submitter = University of Tokyo Team (Faculty of Engineering, University of Tokyo)
MoNA Rating=3.75

>  <NUM PEAKS>  (2074) 
26

>  <MASS SPECTRAL PEAKS>  (2074) 
14 2.63
15 3.04
17 1.1
18 3.47
25 2.69
26 24.73
27 70.66
28 99.99
29 79.1
30 10.99
31 4.36
41 1.08
42 4.13
43 2.28
44 1.64
45 52.06
46 3.72
47 2.49
53 1.95
55 9.19
56 7.86
57 24.31
58 1.13
73 33.9
74 53.54
75 1.6

$$$$

     RDKit          2D

  4  3  0  0  0  0  0  0  0  0999 V2000
    0.9743    0.5625    0.0000 C   0  0  0  0  0  0  0  0  0  0  0  0
   -0.3248    1.3125    0.0000 C   0  0  0  0  0  0  0  0  0  0  0  0
   -0.3248    2.8125    0.0000 O   0  0  0  0  0  0  0  0  0  0  0  0
   -1.6238    0.5625    0.0000 O   0  0  0  0  0  0  0  0  0  0  0  0
  2  1  1  0
  3  2  2  0
  4  2  1  0
M  END
>  <NAME>  (2075) 
ACETIC ACID

>  <SYNONYMS>  (2075) 


>  <SPECTRUM TYPE>  (2075) 
MS1

>  <INSTRUMENT TYPE>  (2075) 
EI-B

>  <INSTRUMENT>  (2075) 
HITACHI M-80B

>  <ION MODE>  (2075) 
P

>  <INCHIKEY>  (2075) 
QTBSBXVTEAMEQO-UHFFFAOYSA-N

>  <FORMULA>  (2075) 
C2H4O2

>  <EXACT MASS>  (2075) 
60.021129368

>  <MW>  (2075) 
60

>  <ID>  (2075) 
JP009174

>  <CONTRIBUTOR>  (2075) 
University of Tokyo Team, {Faculty of Engineering, University of Tokyo

>  <COMMENT>  (2075) 
SMILES=CC(O)=O
InChI=InChI=1S/C2H4O2/c1-2(3)4/h1H3,(H,3,4)
computed SMILES=O=C(O)C
accession=JP009174
date=2016.01.19 (Created 2008.10.21, modified 2011.05.06)
author=SODA AROMATIC CO., LTD.
license=CC BY-NC-SA
exact mass=60.02113
ionization energy=70 eV
ion type=[M]+*
computed spectral entropy=1.8906394892833513
computed normalized entropy=0.6673127857631034
SPLASH=splash10-0007-9000000000-a9a21f72ec25efbc1650
submitter=submitter = University of Tokyo Team (Faculty of Engineering, University of Tokyo)
MoNA Rating=3.75

>  <NUM PEAKS>  (2075) 
17

>  <MASS SPECTRAL PEAKS>  (2075) 
13 2.97
14 6.75
15 27.87
16 2.28
17 1.26
28 2.2
29 10.41
31 3.68
40 1.07
41 3.58
42 12.14
43 99.99
44 3.72
45 86.74
46 1.08
60 50.22
61 1.02

$$$$

     RDKit          2D

 11 11  0  0  0  0  0  0  0  0999 V2000
   -3.9033    1.5020    0.0000 C   0  0  0  0  0  0  0  0  0  0  0  0
    5.1971   -0.7647    0.0000 C   0  0  0  0  0  0  0  0  0  0  0  0
   -2.6080    0.7456    0.0000 C   0  0  0  0  0  0  0  0  0  0  0  0
   -1.3052    1.4892    0.0000 C   0  0  0  0  0  0  0  0  0  0  0  0
    1.2891    1.4828    0.0000 C   0  0  0  0  0  0  0  0  0  0  0  0
   -0.0244   -0.7420    0.0000 C   0  0  0  0  0  0  0  0  0  0  0  0
    2.5736    0.7580    0.0000 C   0  0  0  0  0  0  0  0  0  0  0  0
    1.3001   -1.5362    0.0000 C   0  0  0  0  0  0  0  0  0  0  0  0
   -0.0099    0.7328    0.0000 C   0  0  0  0  0  0  0  0  0  0  0  0
    2.5991   -0.7862    0.0000 C   0  0  0  0  0  0  0  0  0  0  0  0
    3.9043   -1.5254    0.0000 O   0  0  0  0  0  0  0  0  0  0  0  0
  3  1  1  0
  4  3  1  0
  7  5  2  0
  8  6  1  0
  9  4  1  0
  9  5  1  0
  9  6  2  0
 10  7  1  0
 10  8  2  0
 11  2  1  0
 11 10  1  0
M  END
>  <NAME>  (2076) 
P-PROPYLANISOLE

>  <SYNONYMS>  (2076) 


>  <SPECTRUM TYPE>  (2076) 
MS1

>  <INSTRUMENT TYPE>  (2076) 
EI-B

>  <INSTRUMENT>  (2076) 
HITACHI M-80B

>  <ION MODE>  (2076) 
P

>  <INCHIKEY>  (2076) 
KBHWKXNXTURZCD-UHFFFAOYSA-N

>  <FORMULA>  (2076) 
C10H14O

>  <EXACT MASS>  (2076) 
150.104465068

>  <MW>  (2076) 
150

>  <ID>  (2076) 
JP009173

>  <CONTRIBUTOR>  (2076) 
University of Tokyo Team, {Faculty of Engineering, University of Tokyo

>  <COMMENT>  (2076) 
SMILES=CCCc(c1)ccc(OC)c1
InChI=InChI=1S/C10H14O/c1-3-4-9-5-7-10(11-2)8-6-9/h5-8H,3-4H2,1-2H3
computed SMILES=O(C1=CC=C(C=C1)CCC)C
accession=JP009173
date=2016.01.19 (Created 2008.10.21, modified 2011.05.06)
author=SODA AROMATIC CO., LTD.
license=CC BY-NC-SA
exact mass=150.10447
ionization energy=70 eV
ion type=[M]+*
computed spectral entropy=1.998470822458904
computed normalized entropy=0.6465361937321926
SPLASH=splash10-00di-4900000000-22bc0f8539c6db1ca5ad
submitter=submitter = University of Tokyo Team (Faculty of Engineering, University of Tokyo)
MoNA Rating=3.75

>  <NUM PEAKS>  (2076) 
22

>  <MASS SPECTRAL PEAKS>  (2076) 
15 1.82
27 4.61
29 2.87
39 4.52
41 2.29
50 1.41
51 4.62
52 2.5
53 1.41
63 2.24
64 1.07
65 4.94
77 8.98
78 9.93
79 1.55
89 1.72
90 1.24
91 7.33
121 99.99
122 8.08
150 18.17
151 1.68

$$$$

     RDKit          2D

 11 11  0  0  0  0  0  0  0  0999 V2000
   -3.9033    1.5020    0.0000 C   0  0  0  0  0  0  0  0  0  0  0  0
    5.1971   -0.7647    0.0000 C   0  0  0  0  0  0  0  0  0  0  0  0
   -2.6080    0.7456    0.0000 C   0  0  0  0  0  0  0  0  0  0  0  0
   -1.3052    1.4892    0.0000 C   0  0  0  0  0  0  0  0  0  0  0  0
    1.2891    1.4828    0.0000 C   0  0  0  0  0  0  0  0  0  0  0  0
   -0.0244   -0.7420    0.0000 C   0  0  0  0  0  0  0  0  0  0  0  0
    2.5736    0.7580    0.0000 C   0  0  0  0  0  0  0  0  0  0  0  0
    1.3001   -1.5362    0.0000 C   0  0  0  0  0  0  0  0  0  0  0  0
   -0.0099    0.7328    0.0000 C   0  0  0  0  0  0  0  0  0  0  0  0
    2.5991   -0.7862    0.0000 C   0  0  0  0  0  0  0  0  0  0  0  0
    3.9043   -1.5254    0.0000 O   0  0  0  0  0  0  0  0  0  0  0  0
  3  1  1  0
  3  4  2  0
  7  5  2  0
  8  6  1  0
  9  4  1  0
  9  5  1  0
  9  6  2  0
 10  7  1  0
 10  8  2  0
 11  2  1  0
 11 10  1  0
M  END
>  <NAME>  (2077) 
ANETHOLE

>  <SYNONYMS>  (2077) 


>  <SPECTRUM TYPE>  (2077) 
MS1

>  <INSTRUMENT TYPE>  (2077) 
EI-B

>  <INSTRUMENT>  (2077) 
HITACHI M-80B

>  <ION MODE>  (2077) 
P

>  <INCHIKEY>  (2077) 
RUVINXPYWBROJD-ONEGZZNKSA-N

>  <FORMULA>  (2077) 
C10H12O

>  <EXACT MASS>  (2077) 
148.088815004

>  <MW>  (2077) 
148

>  <ID>  (2077) 
JP009172

>  <CONTRIBUTOR>  (2077) 
University of Tokyo Team, {Faculty of Engineering, University of Tokyo

>  <COMMENT>  (2077) 
SMILES=CC=Cc(c1)ccc(OC)c1
InChI=InChI=1S/C10H12O/c1-3-4-9-5-7-10(11-2)8-6-9/h3-8H,1-2H3/b4-3+
computed SMILES=O(C1=CC=C(C=C1)C=CC)C
accession=JP009172
date=2016.01.19 (Created 2008.10.21, modified 2011.05.06)
author=SODA AROMATIC CO., LTD.
license=CC BY-NC-SA
exact mass=148.08882
ionization energy=70 eV
ion type=[M]+*
computed spectral entropy=3.064456355010984
computed normalized entropy=0.8004030771388313
SPLASH=splash10-0002-4900000000-719d9077568af9d0f6a4
submitter=submitter = University of Tokyo Team (Faculty of Engineering, University of Tokyo)
MoNA Rating=3.75

>  <NUM PEAKS>  (2077) 
46

>  <MASS SPECTRAL PEAKS>  (2077) 
15 4.39
27 4.55
38 1.17
39 7.08
41 2.44
50 3.72
51 8.04
52 3.22
53 3.3
55 3.95
62 1.93
63 6.37
64 1.81
65 5.31
74 2.86
75 1.77
76 1.77
77 21.84
78 7.52
79 14.6
89 3.74
90 1.21
91 11.94
92 1.61
93 1.41
102 2.59
103 12.03
104 3.4
105 20.08
106 1.51
107 1.38
115 12.57
116 4.69
117 23.25
118 2.55
119 1.82
121 15.95
122 1.19
131 2.75
132 2.48
133 21.36
134 1.75
146 1.47
147 39.77
148 99.99
149 8.94

$$$$

     RDKit          2D

 11 11  0  0  0  0  0  0  0  0999 V2000
   -3.9033    1.5020    0.0000 C   0  0  0  0  0  0  0  0  0  0  0  0
    5.1971   -0.7647    0.0000 C   0  0  0  0  0  0  0  0  0  0  0  0
   -2.6080    0.7456    0.0000 C   0  0  0  0  0  0  0  0  0  0  0  0
   -1.3052    1.4892    0.0000 C   0  0  0  0  0  0  0  0  0  0  0  0
    1.2891    1.4828    0.0000 C   0  0  0  0  0  0  0  0  0  0  0  0
   -0.0244   -0.7420    0.0000 C   0  0  0  0  0  0  0  0  0  0  0  0
    2.5736    0.7580    0.0000 C   0  0  0  0  0  0  0  0  0  0  0  0
    1.3001   -1.5362    0.0000 C   0  0  0  0  0  0  0  0  0  0  0  0
   -0.0099    0.7328    0.0000 C   0  0  0  0  0  0  0  0  0  0  0  0
    2.5991   -0.7862    0.0000 C   0  0  0  0  0  0  0  0  0  0  0  0
    3.9043   -1.5254    0.0000 O   0  0  0  0  0  0  0  0  0  0  0  0
  3  1  2  0
  4  3  1  0
  7  5  2  0
  8  6  1  0
  9  4  1  0
  9  5  1  0
  9  6  2  0
 10  7  1  0
 10  8  2  0
 11  2  1  0
 11 10  1  0
M  END
>  <NAME>  (2078) 
P-ALLYL ANISOLE

>  <SYNONYMS>  (2078) 


>  <SPECTRUM TYPE>  (2078) 
MS1

>  <INSTRUMENT TYPE>  (2078) 
EI-B

>  <INSTRUMENT>  (2078) 
HITACHI M-80B

>  <ION MODE>  (2078) 
P

>  <INCHIKEY>  (2078) 
ZFMSMUAANRJZFM-UHFFFAOYSA-N

>  <FORMULA>  (2078) 
C10H12O

>  <EXACT MASS>  (2078) 
148.088815004

>  <MW>  (2078) 
148

>  <ID>  (2078) 
JP009171

>  <CONTRIBUTOR>  (2078) 
University of Tokyo Team, {Faculty of Engineering, University of Tokyo

>  <COMMENT>  (2078) 
SMILES=C=CCc(c1)ccc(OC)c1
InChI=InChI=1S/C10H12O/c1-3-4-9-5-7-10(11-2)8-6-9/h3,5-8H,1,4H2,2H3
computed SMILES=O(C1=CC=C(C=C1)CC=C)C
accession=JP009171
date=2016.01.19 (Created 2008.10.21, modified 2011.05.06)
author=SODA AROMATIC CO., LTD.
license=CC BY-NC-SA
exact mass=148.08882
ionization energy=70 eV
ion type=[M]+*
computed spectral entropy=3.19723830582473
computed normalized entropy=0.8172851492407859
SPLASH=splash10-0002-5900000000-926e28a4944e333f20a8
submitter=submitter = University of Tokyo Team (Faculty of Engineering, University of Tokyo)
MoNA Rating=3.75

>  <NUM PEAKS>  (2078) 
50

>  <MASS SPECTRAL PEAKS>  (2078) 
15 6
26 1.18
27 7.13
29 1.55
38 2.05
39 13.41
41 3.75
43 1.19
50 5.67
51 14.01
52 5.95
53 3.5
55 5.14
62 2.58
63 6.96
64 2.72
65 6.32
66 1.06
74 1.93
75 2.04
76 2.23
77 24.65
78 17.68
79 12.04
89 4.22
90 1.41
91 19.59
92 2.29
93 1.25
102 2.38
103 12.21
104 3.61
105 21.61
106 2.07
107 1.96
115 16.34
116 7.15
117 29.66
118 2.83
119 2.13
121 36.25
122 2.5
131 2.68
132 2.86
133 21.65
134 1.56
146 1.61
147 43.21
148 99.99
149 8.5

$$$$

     RDKit          2D

  8  8  0  0  0  0  0  0  0  0999 V2000
    3.5281    0.5404    0.0000 C   0  0  0  0  0  0  0  0  0  0  0  0
   -1.6700   -0.9600    0.0000 C   0  0  0  0  0  0  0  0  0  0  0  0
   -1.6700    0.5400    0.0000 C   0  0  0  0  0  0  0  0  0  0  0  0
   -0.3700   -1.7100    0.0000 C   0  0  0  0  0  0  0  0  0  0  0  0
   -0.3700    1.2900    0.0000 C   0  0  0  0  0  0  0  0  0  0  0  0
    0.9300   -0.9600    0.0000 C   0  0  0  0  0  0  0  0  0  0  0  0
    0.9300    0.5400    0.0000 C   0  0  0  0  0  0  0  0  0  0  0  0
    2.2289    1.2902    0.0000 O   0  0  0  0  0  0  0  0  0  0  0  0
  3  2  2  0
  4  2  1  0
  5  3  1  0
  6  4  2  0
  7  5  2  0
  7  6  1  0
  8  1  1  0
  8  7  1  0
M  END
>  <NAME>  (2079) 
ANISOLE

>  <SYNONYMS>  (2079) 


>  <SPECTRUM TYPE>  (2079) 
MS1

>  <INSTRUMENT TYPE>  (2079) 
EI-B

>  <INSTRUMENT>  (2079) 
HITACHI M-80B

>  <ION MODE>  (2079) 
P

>  <INCHIKEY>  (2079) 
RDOXTESZEPMUJZ-UHFFFAOYSA-N

>  <FORMULA>  (2079) 
C7H8O

>  <EXACT MASS>  (2079) 
108.057514876

>  <MW>  (2079) 
108

>  <ID>  (2079) 
JP009170

>  <CONTRIBUTOR>  (2079) 
University of Tokyo Team, {Faculty of Engineering, University of Tokyo

>  <COMMENT>  (2079) 
SMILES=COc(c1)cccc1
InChI=InChI=1S/C7H8O/c1-8-7-5-3-2-4-6-7/h2-6H,1H3
computed SMILES=O(C=1C=CC=CC1)C
accession=JP009170
date=2016.01.19 (Created 2008.10.21, modified 2011.05.06)
author=SODA AROMATIC CO., LTD.
license=CC BY-NC-SA
exact mass=108.05751
ionization energy=70 eV
ion type=[M]+*
computed spectral entropy=2.5567235476762793
computed normalized entropy=0.74453496633212
SPLASH=splash10-0ar0-9300000000-03da541e1b0fc350901b
submitter=submitter = University of Tokyo Team (Faculty of Engineering, University of Tokyo)
MoNA Rating=3.75

>  <NUM PEAKS>  (2079) 
31

>  <MASS SPECTRAL PEAKS>  (2079) 
15 5.32
26 1.33
27 2.78
29 1.97
37 3.09
38 8.61
39 33.61
40 1.17
49 1
50 10.77
51 19.2
52 4.08
53 1.47
61 1.21
62 3.5
63 10.91
64 5.12
65 67.41
66 4.21
74 3.56
75 1.52
76 1.3
77 17.54
78 56.46
79 13.9
80 1.27
92 1.54
93 13.86
107 1.82
108 99.99
109 7.79

$$$$

     RDKit          2D

  8  8  0  0  0  0  0  0  0  0999 V2000
   -0.8441    1.1800    0.0000 C   0  0  0  0  0  0  0  0  0  0  0  0
    2.8520   -2.1829    0.0000 C   0  0  0  0  0  0  0  0  0  0  0  0
    1.3520   -2.1829    0.0000 C   0  0  0  0  0  0  0  0  0  0  0  0
    3.3120   -0.7529    0.0000 C   0  0  0  0  0  0  0  0  0  0  0  0
   -0.5341   -0.2876    0.0000 C   0  0  0  0  0  0  0  0  0  0  0  0
    0.8920   -0.7529    0.0000 C   0  0  0  0  0  0  0  0  0  0  0  0
   -1.6500   -1.2899    0.0000 O   0  0  0  0  0  0  0  0  0  0  0  0
    2.1020    0.1271    0.0000 S   0  0  0  0  0  0  0  0  0  0  0  0
  3  2  1  0
  4  2  2  0
  5  1  1  0
  6  3  2  0
  6  5  1  0
  7  5  2  0
  8  4  1  0
  8  6  1  0
M  END
>  <NAME>  (2080) 
2-ACETYLTHIOPHENE

>  <SYNONYMS>  (2080) 


>  <SPECTRUM TYPE>  (2080) 
MS1

>  <INSTRUMENT TYPE>  (2080) 
EI-B

>  <INSTRUMENT>  (2080) 
HITACHI M-80B

>  <ION MODE>  (2080) 
P

>  <INCHIKEY>  (2080) 
WYJOVVXUZNRJQY-UHFFFAOYSA-N

>  <FORMULA>  (2080) 
C6H6OS

>  <EXACT MASS>  (2080) 
126.013935812

>  <MW>  (2080) 
126

>  <ID>  (2080) 
JP009169

>  <CONTRIBUTOR>  (2080) 
University of Tokyo Team, {Faculty of Engineering, University of Tokyo

>  <COMMENT>  (2080) 
SMILES=CC(=O)c(c1)scc1
InChI=InChI=1S/C6H6OS/c1-5(7)6-3-2-4-8-6/h2-4H,1H3
computed SMILES=O=C(C=1SC=CC1)C
accession=JP009169
date=2016.01.19 (Created 2008.10.21, modified 2011.05.06)
author=SODA AROMATIC CO., LTD.
license=CC BY-NC-SA
exact mass=126.01394
ionization energy=70 eV
ion type=[M]+*
computed spectral entropy=2.323153973402103
computed normalized entropy=0.7048752920281982
SPLASH=splash10-03di-7900000000-857b33ff69870de2f340
submitter=submitter = University of Tokyo Team (Faculty of Engineering, University of Tokyo)
MoNA Rating=3.75

>  <NUM PEAKS>  (2080) 
27

>  <MASS SPECTRAL PEAKS>  (2080) 
15 3.62
26 1.16
27 1.31
37 2.53
38 3.77
39 32.52
42 1.95
43 18.09
45 11.43
49 1.37
50 2.76
51 1.68
53 1.94
57 9.72
58 3.7
69 2.85
81 2.63
82 3.04
83 12.82
84 2.14
97 1.09
111 99.99
112 6.74
113 3.59
126 41.99
127 2.54
128 1.54

$$$$

     RDKit          2D

 13 14  0  0  0  0  0  0  0  0999 V2000
    8.0963   -1.8816    0.0000 C   0  0  0  0  0  0  0  0  0  0  0  0
   -1.1700   -1.2200    0.0000 C   0  0  0  0  0  0  0  0  0  0  0  0
    7.3463   -0.5826    0.0000 C   0  0  0  0  0  0  0  0  0  0  0  0
    0.3300   -1.2200    0.0000 C   0  0  0  0  0  0  0  0  0  0  0  0
    7.0965   -2.9900    0.0000 C   0  0  0  0  0  0  0  0  0  0  0  0
   -1.6300    0.2000    0.0000 C   0  0  0  0  0  0  0  0  0  0  0  0
    4.7678    0.1193    0.0000 C   0  0  0  0  0  0  0  0  0  0  0  0
    2.2271    0.6621    0.0000 C   0  0  0  0  0  0  0  0  0  0  0  0
    5.8815   -0.8855    0.0000 C   0  0  0  0  0  0  0  0  0  0  0  0
    0.8000    0.2000    0.0000 C   0  0  0  0  0  0  0  0  0  0  0  0
    5.7294   -2.3821    0.0000 O   0  0  0  0  0  0  0  0  0  0  0  0
   -0.4200    1.0800    0.0000 O   0  0  0  0  0  0  0  0  0  0  0  0
    3.3407   -0.3428    0.0000 S   0  0  0  0  0  0  0  0  0  0  0  0
  3  1  1  0
  4  2  1  0
  5  1  2  0
  6  2  2  0
  9  3  2  0
  9  7  1  0
 10  4  2  0
 10  8  1  0
 11  5  1  0
 11  9  1  0
 12  6  1  0
 12 10  1  0
 13  7  1  0
 13  8  1  0
M  END
>  <NAME>  (2081) 
DIFURFURYL SULFIDE

>  <SYNONYMS>  (2081) 


>  <SPECTRUM TYPE>  (2081) 
MS1

>  <INSTRUMENT TYPE>  (2081) 
EI-B

>  <INSTRUMENT>  (2081) 
HITACHI M-80B

>  <ION MODE>  (2081) 
P

>  <INCHIKEY>  (2081) 
UYLKDZXJEKFFHJ-UHFFFAOYSA-N

>  <FORMULA>  (2081) 
C10H10O2S

>  <EXACT MASS>  (2081) 
194.04015056

>  <MW>  (2081) 
194

>  <ID>  (2081) 
JP009168

>  <CONTRIBUTOR>  (2081) 
University of Tokyo Team, {Faculty of Engineering, University of Tokyo

>  <COMMENT>  (2081) 
SMILES=c(c2)cc(o2)CSCc(c1)occ1
InChI=InChI=1S/C10H10O2S/c1-3-9(11-5-1)7-13-8-10-4-2-6-12-10/h1-6H,7-8H2
computed SMILES=O1C=CC=C1CSCC=2OC=CC2
accession=JP009168
date=2016.01.19 (Created 2008.10.21, modified 2011.05.06)
author=SODA AROMATIC CO., LTD.
license=CC BY-NC-SA
exact mass=194.04015
ionization energy=70 eV
ion type=[M]+*
computed spectral entropy=2.221477425266955
computed normalized entropy=0.7084935491130091
SPLASH=splash10-001i-9100000000-ee8816bbffcfcc47f2dd
submitter=submitter = University of Tokyo Team (Faculty of Engineering, University of Tokyo)
MoNA Rating=3.75

>  <NUM PEAKS>  (2081) 
23

>  <MASS SPECTRAL PEAKS>  (2081) 
26 1.15
27 13.36
29 1.75
38 1.35
39 5.73
41 1.93
45 14.35
50 3.39
51 6.67
52 4.53
53 26.3
54 1.14
58 1.61
59 1.74
69 1.72
81 99.99
82 9.05
85 6.45
112 1.71
113 13.47
126 5.62
194 12.22
195 1.19

$$$$

     RDKit          2D

  7  7  0  0  0  0  0  0  0  0999 V2000
   -1.8372   -1.0620    0.0000 C   0  0  0  0  0  0  0  0  0  0  0  0
   -1.0872    0.2371    0.0000 C   0  0  0  0  0  0  0  0  0  0  0  0
   -0.8287   -2.1754    0.0000 C   0  0  0  0  0  0  0  0  0  0  0  0
    1.4972    0.9228    0.0000 C   0  0  0  0  0  0  0  0  0  0  0  0
    0.3813   -0.0796    0.0000 C   0  0  0  0  0  0  0  0  0  0  0  0
    2.9232    0.4575    0.0000 O   0  0  0  0  0  0  0  0  0  0  0  0
    0.5384   -1.5675    0.0000 S   0  0  0  0  0  0  0  0  0  0  0  0
  2  1  1  0
  3  1  2  0
  5  2  2  0
  5  4  1  0
  6  4  2  0
  7  3  1  0
  7  5  1  0
M  END
>  <NAME>  (2082) 
2-FORMYLTHIOPHENE

>  <SYNONYMS>  (2082) 


>  <SPECTRUM TYPE>  (2082) 
MS1

>  <INSTRUMENT TYPE>  (2082) 
EI-B

>  <INSTRUMENT>  (2082) 
HITACHI M-80B

>  <ION MODE>  (2082) 
P

>  <INCHIKEY>  (2082) 
CNUDBTRUORMMPA-UHFFFAOYSA-N

>  <FORMULA>  (2082) 
C5H4OS

>  <EXACT MASS>  (2082) 
111.998285748

>  <MW>  (2082) 
112

>  <ID>  (2082) 
JP009167

>  <CONTRIBUTOR>  (2082) 
University of Tokyo Team, {Faculty of Engineering, University of Tokyo

>  <COMMENT>  (2082) 
SMILES=O=Cc(c1)scc1
InChI=InChI=1S/C5H4OS/c6-4-5-2-1-3-7-5/h1-4H
computed SMILES=O=CC=1SC=CC1
accession=JP009167
date=2016.01.19 (Created 2008.10.21, modified 2011.05.06)
author=SODA AROMATIC CO., LTD.
license=CC BY-NC-SA
exact mass=111.99829
ionization energy=70 eV
ion type=[M]+*
computed spectral entropy=2.3789866089124154
computed normalized entropy=0.7301768321318935
SPLASH=splash10-03di-7900000000-d6371ed8fe6f2eccb3cc
submitter=submitter = University of Tokyo Team (Faculty of Engineering, University of Tokyo)
MoNA Rating=3.75

>  <NUM PEAKS>  (2082) 
26

>  <MASS SPECTRAL PEAKS>  (2082) 
26 2.11
29 8.68
32 1.27
37 6.5
38 9.33
39 35.18
40 1.53
42 1.31
44 1.37
45 22.82
49 2.56
50 6.31
51 2.57
53 2.2
56 1.09
57 16.35
58 14.16
69 3.49
81 6.09
82 5.44
83 11.66
84 4.13
111 99.99
112 93.95
113 10.71
114 4.43

$$$$

     RDKit          2D

 12 12  0  0  0  0  0  0  0  0999 V2000
   -3.3589    1.0947    0.0000 C   0  0  0  0  0  0  0  0  0  0  0  0
   -3.9180   -0.9516    0.0000 C   0  0  0  0  0  0  0  0  0  0  0  0
   -1.8717   -1.5107    0.0000 C   0  0  0  0  0  0  0  0  0  0  0  0
    3.9054    2.0571    0.0000 C   0  0  0  0  0  0  0  0  0  0  0  0
   -1.3126    2.0356    0.0000 C   0  0  0  0  0  0  0  0  0  0  0  0
   -0.0426   -0.2144    0.0000 C   0  0  0  0  0  0  0  0  0  0  0  0
   -0.0426    2.7856    0.0000 C   0  0  0  0  0  0  0  0  0  0  0  0
    1.3074    0.5356    0.0000 C   0  0  0  0  0  0  0  0  0  0  0  0
   -1.3126    0.5356    0.0000 C   0  0  0  0  0  0  0  0  0  0  0  0
    1.3074    2.0356    0.0000 C   0  0  0  0  0  0  0  0  0  0  0  0
   -2.6153   -0.2080    0.0000 C   0  0  0  0  0  0  0  0  0  0  0  0
    2.6002    2.7963    0.0000 O   0  0  0  0  0  0  0  0  0  0  0  0
  7  5  2  0
  8  6  1  0
  9  5  1  0
  9  6  2  0
 10  7  1  0
 10  8  2  0
 11  1  1  0
 11  2  1  0
 11  3  1  0
 11  9  1  0
 12  4  1  0
 12 10  1  0
M  END
>  <NAME>  (2083) 
P-TERT-BUTYLPHENYL METHYL ETHER

>  <SYNONYMS>  (2083) 


>  <SPECTRUM TYPE>  (2083) 
MS1

>  <INSTRUMENT TYPE>  (2083) 
EI-B

>  <INSTRUMENT>  (2083) 
HITACHI M-80B

>  <ION MODE>  (2083) 
P

>  <INCHIKEY>  (2083) 
MCUPBIBNSTXCPQ-UHFFFAOYSA-N

>  <FORMULA>  (2083) 
C11H16O

>  <EXACT MASS>  (2083) 
164.120115132

>  <MW>  (2083) 
164

>  <ID>  (2083) 
JP009166

>  <CONTRIBUTOR>  (2083) 
University of Tokyo Team, {Faculty of Engineering, University of Tokyo

>  <COMMENT>  (2083) 
SMILES=COc(c1)ccc(c1)C(C)(C)C
InChI=InChI=1S/C11H16O/c1-11(2,3)9-5-7-10(12-4)8-6-9/h5-8H,1-4H3
computed SMILES=O(C1=CC=C(C=C1)C(C)(C)C)C
accession=JP009166
date=2016.01.19 (Created 2008.10.21, modified 2011.05.06)
author=SODA AROMATIC CO., LTD.
license=CC BY-NC-SA
exact mass=164.12012
ionization energy=70 eV
ion type=[M]+*
computed spectral entropy=2.4923462342957547
computed normalized entropy=0.7010132879231116
SPLASH=splash10-0002-3900000000-f59281d4602b73b08ce6
submitter=submitter = University of Tokyo Team (Faculty of Engineering, University of Tokyo)
MoNA Rating=3.75

>  <NUM PEAKS>  (2083) 
35

>  <MASS SPECTRAL PEAKS>  (2083) 
15 3.18
27 2.47
29 1.79
39 6.54
41 10.66
50 1.36
51 2.83
52 1.16
53 1.41
55 1.2
63 2.62
64 1.35
65 3.41
77 8.5
78 3.06
79 2.63
89 1.52
90 1.09
91 10.5
92 1.33
94 2.4
103 1.77
105 1.83
109 11.69
115 1.63
117 1.15
119 1.19
121 18.13
122 1.54
133 2.26
134 1.57
149 99.99
150 10.46
164 20.92
165 1.95

$$$$

     RDKit          2D

  7  6  0  0  0  0  0  0  0  0999 V2000
    1.6238    3.1875    0.0000 C   0  0  0  0  0  0  0  0  0  0  0  0
   -4.8714    3.9375    0.0000 C   0  0  0  0  0  0  0  0  0  0  0  0
    0.3248    3.9375    0.0000 C   0  0  0  0  0  0  0  0  0  0  0  0
   -0.9743    3.1875    0.0000 C   0  0  0  0  0  0  0  0  0  0  0  0
   -3.5724    3.1875    0.0000 C   0  0  0  0  0  0  0  0  0  0  0  0
   -3.5724    1.6875    0.0000 O   0  0  0  0  0  0  0  0  0  0  0  0
   -2.2733    3.9375    0.0000 S   0  0  0  0  0  0  0  0  0  0  0  0
  3  1  1  0
  4  3  1  0
  5  2  1  0
  6  5  2  0
  7  4  1  0
  7  5  1  0
M  END
>  <NAME>  (2084) 
S-PROPYL THIOACETATE

>  <SYNONYMS>  (2084) 


>  <SPECTRUM TYPE>  (2084) 
MS1

>  <INSTRUMENT TYPE>  (2084) 
EI-B

>  <INSTRUMENT>  (2084) 
HITACHI M-80B

>  <ION MODE>  (2084) 
P

>  <INCHIKEY>  (2084) 
SBWFWBJCYMBZEY-UHFFFAOYSA-N

>  <FORMULA>  (2084) 
C5H10OS

>  <EXACT MASS>  (2084) 
118.04523594

>  <MW>  (2084) 
118

>  <ID>  (2084) 
JP009165

>  <CONTRIBUTOR>  (2084) 
University of Tokyo Team, {Faculty of Engineering, University of Tokyo

>  <COMMENT>  (2084) 
SMILES=CCCSC(C)=O
InChI=InChI=1S/C5H10OS/c1-3-4-7-5(2)6/h3-4H2,1-2H3
computed SMILES=O=C(SCCC)C
accession=JP009165
date=2016.01.19 (Created 2008.10.21, modified 2011.05.06)
author=SODA AROMATIC CO., LTD.
license=CC BY-NC-SA
exact mass=118.04524
ionization energy=70 eV
ion type=[M]+*
computed spectral entropy=1.851660673017758
computed normalized entropy=0.6288670562097899
SPLASH=splash10-0006-9000000000-9d59c00678babcad2e23
submitter=submitter = University of Tokyo Team (Faculty of Engineering, University of Tokyo)
MoNA Rating=3.75

>  <NUM PEAKS>  (2084) 
19

>  <MASS SPECTRAL PEAKS>  (2084) 
15 3.56
27 6.71
29 1.2
39 5.68
41 8.46
42 6.84
43 99.99
44 2.1
45 5.43
46 2.4
47 5.75
58 1.46
59 1.55
61 1.13
74 3.58
75 2.48
76 3.39
77 3.17
118 11.82

$$$$

     RDKit          2D

  6  5  0  0  0  0  0  0  0  0999 V2000
    1.2990    2.2500    0.0000 C   0  0  0  0  0  0  0  0  0  0  0  0
   -3.8971    2.2500    0.0000 C   0  0  0  0  0  0  0  0  0  0  0  0
    0.0000    3.0000    0.0000 C   0  0  0  0  0  0  0  0  0  0  0  0
   -2.5981    3.0000    0.0000 C   0  0  0  0  0  0  0  0  0  0  0  0
   -2.5981    4.5000    0.0000 O   0  0  0  0  0  0  0  0  0  0  0  0
   -1.2990    2.2500    0.0000 S   0  0  0  0  0  0  0  0  0  0  0  0
  3  1  1  0
  4  2  1  0
  5  4  2  0
  6  3  1  0
  6  4  1  0
M  END
>  <NAME>  (2085) 
S-ETHYL THIOACETATE

>  <SYNONYMS>  (2085) 


>  <SPECTRUM TYPE>  (2085) 
MS1

>  <INSTRUMENT TYPE>  (2085) 
EI-B

>  <INSTRUMENT>  (2085) 
HITACHI M-80B

>  <ION MODE>  (2085) 
P

>  <INCHIKEY>  (2085) 
APTGPWJUOYMUCE-UHFFFAOYSA-N

>  <FORMULA>  (2085) 
C4H8OS

>  <EXACT MASS>  (2085) 
104.029585876

>  <MW>  (2085) 
104

>  <ID>  (2085) 
JP009164

>  <CONTRIBUTOR>  (2085) 
University of Tokyo Team, {Faculty of Engineering, University of Tokyo

>  <COMMENT>  (2085) 
SMILES=CCSC(C)=O
InChI=InChI=1S/C4H8OS/c1-3-6-4(2)5/h3H2,1-2H3
computed SMILES=O=C(SCC)C
accession=JP009164
date=2016.01.19 (Created 2008.10.21, modified 2011.05.06)
author=SODA AROMATIC CO., LTD.
license=CC BY-NC-SA
exact mass=104.02959
ionization energy=70 eV
ion type=[M]+*
computed spectral entropy=1.9295634712851908
computed normalized entropy=0.6337819841222928
SPLASH=splash10-0006-9100000000-ed6927b9e2dbf4a5f682
submitter=submitter = University of Tokyo Team (Faculty of Engineering, University of Tokyo)
MoNA Rating=3.75

>  <NUM PEAKS>  (2085) 
21

>  <MASS SPECTRAL PEAKS>  (2085) 
15 6.4
26 1.92
27 10.79
28 1.24
29 7.65
35 2.33
42 3.26
43 99.99
44 2.26
45 5.77
46 2.8
47 4.64
57 1.34
58 3
59 2.67
60 1.38
61 4.8
62 2.5
104 29.49
105 1.32
106 1.28

$$$$

     RDKit          2D

  6  5  0  0  0  0  0  0  0  0999 V2000
   -4.5466    3.3750    0.0000 C   0  0  0  0  0  0  0  0  0  0  0  0
   -3.2476    2.6250    0.0000 C   0  0  0  0  0  0  0  0  0  0  0  0
    0.6495    3.3750    0.0000 C   0  0  0  0  0  0  0  0  0  0  0  0
   -0.6495    2.6250    0.0000 C   0  0  0  0  0  0  0  0  0  0  0  0
    1.9486    2.6250    0.0000 O   0  0  0  0  0  0  0  0  0  0  0  0
   -1.9486    3.3750    0.0000 S   0  0  0  0  0  0  0  0  0  0  0  0
  2  1  1  0
  4  3  1  0
  5  3  1  0
  6  2  1  0
  6  4  1  0
M  END
>  <NAME>  (2086) 
2-(ETHYLTHIO)ETHANOL

>  <SYNONYMS>  (2086) 


>  <SPECTRUM TYPE>  (2086) 
MS1

>  <INSTRUMENT TYPE>  (2086) 
EI-B

>  <INSTRUMENT>  (2086) 
HITACHI M-80B

>  <ION MODE>  (2086) 
P

>  <INCHIKEY>  (2086) 
LNRIEBFNWGMXKP-UHFFFAOYSA-N

>  <FORMULA>  (2086) 
C4H10OS

>  <EXACT MASS>  (2086) 
106.04523594

>  <MW>  (2086) 
106

>  <ID>  (2086) 
JP009163

>  <CONTRIBUTOR>  (2086) 
University of Tokyo Team, {Faculty of Engineering, University of Tokyo

>  <COMMENT>  (2086) 
SMILES=OCCSCC
InChI=InChI=1S/C4H10OS/c1-2-6-4-3-5/h5H,2-4H2,1H3
computed SMILES=OCCSCC
accession=JP009163
date=2016.01.19 (Created 2008.10.21, modified 2011.05.06)
author=SODA AROMATIC CO., LTD.
license=CC BY-NC-SA
exact mass=106.04524
ionization energy=70 eV
ion type=[M]+*
computed spectral entropy=2.844160089303838
computed normalized entropy=0.8282384062436423
SPLASH=splash10-004j-9100000000-cea282d37595be14a5c8
submitter=submitter = University of Tokyo Team (Faculty of Engineering, University of Tokyo)
MoNA Rating=3.75

>  <NUM PEAKS>  (2086) 
31

>  <MASS SPECTRAL PEAKS>  (2086) 
14 1.06
15 4
19 1.46
26 6.11
27 31.65
28 3.96
29 26.17
31 16.57
35 6.3
41 6.78
42 2.31
43 7.76
44 6.51
45 29.39
46 14.77
47 63.17
48 8.31
49 2.94
57 2.11
58 6.86
59 14.68
60 13.67
61 21.15
62 11.52
63 13.33
75 99.99
76 6.35
77 6.19
106 48.31
107 2.45
108 1.91

$$$$

     RDKit          2D

  8  8  0  0  0  0  0  0  0  0999 V2000
    2.2733   -0.6175    0.0000 C   0  0  0  0  0  0  0  0  0  0  0  0
    2.2738    0.8833    0.0000 C   0  0  0  0  0  0  0  0  0  0  0  0
    0.9738   -1.3683    0.0000 C   0  0  0  0  0  0  0  0  0  0  0  0
    0.9748    1.6333    0.0000 C   0  0  0  0  0  0  0  0  0  0  0  0
   -0.3252   -0.6183    0.0000 C   0  0  0  0  0  0  0  0  0  0  0  0
   -1.6238    1.6325    0.0000 C   0  0  0  0  0  0  0  0  0  0  0  0
   -0.3248    0.8825    0.0000 C   0  0  0  0  0  0  0  0  0  0  0  0
   -2.9228    0.8825    0.0000 S   0  0  0  0  0  0  0  0  0  0  0  0
  2  1  2  0
  3  1  1  0
  4  2  1  0
  5  3  2  0
  7  4  2  0
  7  5  1  0
  7  6  1  0
  8  6  1  0
M  END
>  <NAME>  (2087) 
PHENYLMETHANETHIOL

>  <SYNONYMS>  (2087) 


>  <SPECTRUM TYPE>  (2087) 
MS1

>  <INSTRUMENT TYPE>  (2087) 
EI-B

>  <INSTRUMENT>  (2087) 
HITACHI M-80B

>  <ION MODE>  (2087) 
P

>  <INCHIKEY>  (2087) 
UENWRTRMUIOCKN-UHFFFAOYSA-N

>  <FORMULA>  (2087) 
C7H8S

>  <EXACT MASS>  (2087) 
124.034671256

>  <MW>  (2087) 
124

>  <ID>  (2087) 
JP009162

>  <CONTRIBUTOR>  (2087) 
University of Tokyo Team, {Faculty of Engineering, University of Tokyo

>  <COMMENT>  (2087) 
SMILES=SCc(c1)cccc1
InChI=InChI=1S/C7H8S/c8-6-7-4-2-1-3-5-7/h1-5,8H,6H2
computed SMILES=SCC=1C=CC=CC1
accession=JP009162
date=2016.01.19 (Created 2008.10.21, modified 2011.05.06)
author=SODA AROMATIC CO., LTD.
license=CC BY-NC-SA
exact mass=124.03467
ionization energy=70 eV
ion type=[M]+*
computed spectral entropy=2.2688750553933197
computed normalized entropy=0.688406358578046
SPLASH=splash10-0006-9100000000-b022260ca59a5bfe044e
submitter=submitter = University of Tokyo Team (Faculty of Engineering, University of Tokyo)
MoNA Rating=3.75

>  <NUM PEAKS>  (2087) 
27

>  <MASS SPECTRAL PEAKS>  (2087) 
27 1.65
33 1.7
38 2.82
39 11.45
41 1.2
45 12.95
47 1.13
50 4.95
51 8.84
52 1.64
61 1.41
62 4.11
63 7.98
64 1.67
65 14.73
69 1.38
77 4.68
78 1.53
79 1.11
89 4.55
90 1.57
91 99.99
92 8.11
121 1.65
124 30.4
125 2.61
126 1.2

$$$$

     RDKit          2D

  7  7  0  0  0  0  0  0  0  0999 V2000
   -1.6700   -0.9600    0.0000 C   0  0  0  0  0  0  0  0  0  0  0  0
   -0.3700   -1.7100    0.0000 C   0  0  0  0  0  0  0  0  0  0  0  0
   -1.6700    0.5400    0.0000 C   0  0  0  0  0  0  0  0  0  0  0  0
    0.9300   -0.9600    0.0000 C   0  0  0  0  0  0  0  0  0  0  0  0
   -0.3700    1.2900    0.0000 C   0  0  0  0  0  0  0  0  0  0  0  0
    0.9300    0.5400    0.0000 C   0  0  0  0  0  0  0  0  0  0  0  0
    2.2289    1.2902    0.0000 S   0  0  0  0  0  0  0  0  0  0  0  0
  2  1  2  0
  3  1  1  0
  4  2  1  0
  5  3  2  0
  6  4  2  0
  6  5  1  0
  7  6  1  0
M  END
>  <NAME>  (2088) 
BENZENETHIOL

>  <SYNONYMS>  (2088) 


>  <SPECTRUM TYPE>  (2088) 
MS1

>  <INSTRUMENT TYPE>  (2088) 
EI-B

>  <INSTRUMENT>  (2088) 
HITACHI M-80B

>  <ION MODE>  (2088) 
P

>  <INCHIKEY>  (2088) 
RMVRSNDYEFQCLF-UHFFFAOYSA-N

>  <FORMULA>  (2088) 
C6H6S

>  <EXACT MASS>  (2088) 
110.019021192

>  <MW>  (2088) 
110

>  <ID>  (2088) 
JP009161

>  <CONTRIBUTOR>  (2088) 
University of Tokyo Team, {Faculty of Engineering, University of Tokyo

>  <COMMENT>  (2088) 
SMILES=Sc(c1)cccc1
InChI=InChI=1S/C6H6S/c7-6-4-2-1-3-5-6/h1-5,7H
computed SMILES=SC=1C=CC=CC1
accession=JP009161
date=2016.01.19 (Created 2008.10.21, modified 2011.05.06)
author=SODA AROMATIC CO., LTD.
license=CC BY-NC-SA
exact mass=110.01902
ionization energy=70 eV
ion type=[M]+*
computed spectral entropy=2.9509322134652924
computed normalized entropy=0.7895112502802194
SPLASH=splash10-03xr-9400000000-963c74e11e0fee28cded
submitter=submitter = University of Tokyo Team (Faculty of Engineering, University of Tokyo)
MoNA Rating=3.75

>  <NUM PEAKS>  (2088) 
42

>  <MASS SPECTRAL PEAKS>  (2088) 
26 1.92
27 3.94
33 1.84
37 4.37
38 6.68
39 21.5
40 1.04
45 12.78
49 1.91
50 14.54
51 19.39
52 1.55
54 1.39
55 4.12
57 4.42
58 5.84
59 1.3
61 1.72
62 2.21
63 5.06
65 14.35
66 38.72
67 1.44
69 15.28
70 1.34
71 3.06
73 1.16
74 4.88
75 1.86
76 1.4
77 15.49
78 2.11
81 3.31
82 5.02
83 1.93
84 18.06
95 1.58
108 2.7
109 22.59
110 99.99
111 7.94
112 4.39

$$$$

     RDKit          2D

  7  7  0  0  0  0  0  0  0  0999 V2000
   -1.1700   -1.2200    0.0000 C   0  0  0  0  0  0  0  0  0  0  0  0
    0.3300   -1.2200    0.0000 C   0  0  0  0  0  0  0  0  0  0  0  0
   -1.6300    0.2000    0.0000 C   0  0  0  0  0  0  0  0  0  0  0  0
    2.2271    0.6621    0.0000 C   0  0  0  0  0  0  0  0  0  0  0  0
    0.8000    0.2000    0.0000 C   0  0  0  0  0  0  0  0  0  0  0  0
   -0.4200    1.0800    0.0000 O   0  0  0  0  0  0  0  0  0  0  0  0
    3.3407   -0.3428    0.0000 S   0  0  0  0  0  0  0  0  0  0  0  0
  2  1  1  0
  3  1  2  0
  5  2  2  0
  5  4  1  0
  6  3  1  0
  6  5  1  0
  7  4  1  0
M  END
>  <NAME>  (2089) 
FURFURYL MERCAPTAN

>  <SYNONYMS>  (2089) 


>  <SPECTRUM TYPE>  (2089) 
MS1

>  <INSTRUMENT TYPE>  (2089) 
EI-B

>  <INSTRUMENT>  (2089) 
HITACHI M-80B

>  <ION MODE>  (2089) 
P

>  <INCHIKEY>  (2089) 
ZFFTZDQKIXPDAF-UHFFFAOYSA-N

>  <FORMULA>  (2089) 
C5H6OS

>  <EXACT MASS>  (2089) 
114.013935812

>  <MW>  (2089) 
114

>  <ID>  (2089) 
JP009160

>  <CONTRIBUTOR>  (2089) 
University of Tokyo Team, {Faculty of Engineering, University of Tokyo

>  <COMMENT>  (2089) 
SMILES=SCc(c1)occ1
InChI=InChI=1S/C5H6OS/c7-4-5-2-1-3-6-5/h1-3,7H,4H2
computed SMILES=SCC=1OC=CC1
accession=JP009160
date=2016.01.19 (Created 2008.10.21, modified 2011.05.06)
author=SODA AROMATIC CO., LTD.
license=CC BY-NC-SA
exact mass=114.01394
ionization energy=70 eV
ion type=[M]+*
computed spectral entropy=2.544390372941928
computed normalized entropy=0.7556183066196914
SPLASH=splash10-0ue9-9100000000-01c988ea4c8eef60d16c
submitter=submitter = University of Tokyo Team (Faculty of Engineering, University of Tokyo)
MoNA Rating=3.75

>  <NUM PEAKS>  (2089) 
29

>  <MASS SPECTRAL PEAKS>  (2089) 
26 4.81
27 22.08
29 6.67
32 1.15
33 4.4
37 3.84
38 6.45
39 11.35
41 2.56
42 2.49
45 19.53
46 1.95
47 3.85
49 2.24
50 11.82
51 17.78
52 11.59
53 77.79
54 4.04
57 2.71
58 4.14
59 3.21
69 2.07
81 99.99
82 8.42
85 4.14
114 38.14
115 2.34
116 1.46

$$$$

     RDKit          2D

  7  7  0  0  0  0  0  0  0  0999 V2000
   -1.6700   -0.9600    0.0000 C   0  0  0  0  0  0  0  0  0  0  0  0
   -0.3700   -1.7100    0.0000 C   0  0  0  0  0  0  0  0  0  0  0  0
   -1.6700    0.5400    0.0000 C   0  0  0  0  0  0  0  0  0  0  0  0
    0.9300   -0.9600    0.0000 C   0  0  0  0  0  0  0  0  0  0  0  0
   -0.3700    1.2900    0.0000 C   0  0  0  0  0  0  0  0  0  0  0  0
    0.9300    0.5400    0.0000 C   0  0  0  0  0  0  0  0  0  0  0  0
    2.2289    1.2902    0.0000 S   0  0  0  0  0  0  0  0  0  0  0  0
  2  1  1  0
  3  1  1  0
  4  2  1  0
  5  3  1  0
  6  4  1  0
  6  5  1  0
  7  6  1  0
M  END
>  <NAME>  (2090) 
CYCLOHEXANETHIOL

>  <SYNONYMS>  (2090) 


>  <SPECTRUM TYPE>  (2090) 
MS1

>  <INSTRUMENT TYPE>  (2090) 
EI-B

>  <INSTRUMENT>  (2090) 
HITACHI M-80B

>  <ION MODE>  (2090) 
P

>  <INCHIKEY>  (2090) 
CMKBCTPCXZNQKX-UHFFFAOYSA-N

>  <FORMULA>  (2090) 
C6H12S

>  <EXACT MASS>  (2090) 
116.065971384

>  <MW>  (2090) 
116

>  <ID>  (2090) 
JP009159

>  <CONTRIBUTOR>  (2090) 
University of Tokyo Team, {Faculty of Engineering, University of Tokyo

>  <COMMENT>  (2090) 
SMILES=SC(C1)CCCC1
InChI=InChI=1S/C6H12S/c7-6-4-2-1-3-5-6/h6-7H,1-5H2
computed SMILES=SC1CCCCC1
accession=JP009159
date=2016.01.19 (Created 2008.10.21, modified 2011.05.06)
author=SODA AROMATIC CO., LTD.
license=CC BY-NC-SA
exact mass=116.06597
ionization energy=70 eV
ion type=[M]+*
computed spectral entropy=2.9090588292437367
computed normalized entropy=0.768740235206345
SPLASH=splash10-05o0-9000000000-80ad1bdf81528f9efd7a
submitter=submitter = University of Tokyo Team (Faculty of Engineering, University of Tokyo)
MoNA Rating=3.75

>  <NUM PEAKS>  (2090) 
44

>  <MASS SPECTRAL PEAKS>  (2090) 
26 1.47
27 16.46
28 3.07
29 10.89
33 1.91
38 1.05
39 24.01
40 2.45
41 55.49
42 3.13
43 3.45
45 15.4
46 1.53
47 9.31
50 1.49
51 2.79
52 1.37
53 11.25
54 28.63
55 99.99
56 4.79
58 3.07
59 6.74
60 10.99
61 3.04
65 1.91
66 1.35
67 72.72
68 4.38
69 1.82
71 1.96
73 10.06
74 1.41
77 2.07
79 4.52
81 10.8
82 62.27
83 66.35
84 3.42
85 1.07
87 1.49
116 54.19
117 3.74
118 2.15

$$$$

     RDKit          2D

  6  5  0  0  0  0  0  0  0  0999 V2000
   -4.5466    3.3750    0.0000 C   0  0  0  0  0  0  0  0  0  0  0  0
   -3.2476    2.6250    0.0000 C   0  0  0  0  0  0  0  0  0  0  0  0
   -1.9486    3.3750    0.0000 C   0  0  0  0  0  0  0  0  0  0  0  0
   -0.6495    2.6250    0.0000 C   0  0  0  0  0  0  0  0  0  0  0  0
    0.6495    3.3750    0.0000 C   0  0  0  0  0  0  0  0  0  0  0  0
    1.9486    2.6250    0.0000 S   0  0  0  0  0  0  0  0  0  0  0  0
  2  1  1  0
  3  2  1  0
  4  3  1  0
  5  4  1  0
  6  5  1  0
M  END
>  <NAME>  (2091) 
PENTANETHIOL

>  <SYNONYMS>  (2091) 


>  <SPECTRUM TYPE>  (2091) 
MS1

>  <INSTRUMENT TYPE>  (2091) 
EI-B

>  <INSTRUMENT>  (2091) 
HITACHI M-80B

>  <ION MODE>  (2091) 
P

>  <INCHIKEY>  (2091) 
ZRKMQKLGEQPLNS-UHFFFAOYSA-N

>  <FORMULA>  (2091) 
C5H12S

>  <EXACT MASS>  (2091) 
104.065971384

>  <MW>  (2091) 
104

>  <ID>  (2091) 
JP009158

>  <CONTRIBUTOR>  (2091) 
University of Tokyo Team, {Faculty of Engineering, University of Tokyo

>  <COMMENT>  (2091) 
SMILES=CCCCCS
InChI=InChI=1S/C5H12S/c1-2-3-4-5-6/h6H,2-5H2,1H3
computed SMILES=SCCCCC
accession=JP009158
date=2016.01.19 (Created 2008.10.21, modified 2011.05.06)
author=SODA AROMATIC CO., LTD.
license=CC BY-NC-SA
exact mass=104.06597
ionization energy=70 eV
ion type=[M]+*
computed spectral entropy=2.7996914263612207
computed normalized entropy=0.8078201873661364
SPLASH=splash10-0006-9000000000-29c734288b44fcc8d749
submitter=submitter = University of Tokyo Team (Faculty of Engineering, University of Tokyo)
MoNA Rating=3.75

>  <NUM PEAKS>  (2091) 
32

>  <MASS SPECTRAL PEAKS>  (2091) 
15 2.71
26 4.3
27 27.28
28 3.18
29 25.91
33 1.11
35 4.54
39 19.61
40 4.68
41 39.73
42 99.99
43 20.24
45 10.8
46 5.77
47 23.53
49 2.58
51 1.21
53 3.64
55 45.59
56 4.82
57 4.16
58 1.54
59 4.32
60 3.2
61 13.36
62 2.54
69 3.61
70 37.96
71 4.72
104 33.97
105 2.81
106 1.4

$$$$

     RDKit          2D

  6  5  0  0  0  0  0  0  0  0999 V2000
    0.0000    0.0000    0.0000 C   0  0  0  0  0  0  0  0  0  0  0  0
    1.2990    2.2500    0.0000 C   0  0  0  0  0  0  0  0  0  0  0  0
   -1.2990    2.2500    0.0000 C   0  0  0  0  0  0  0  0  0  0  0  0
   -1.2990    3.7500    0.0000 C   0  0  0  0  0  0  0  0  0  0  0  0
    0.0000    1.5000    0.0000 C   0  0  0  0  0  0  0  0  0  0  0  0
   -2.5981    4.5000    0.0000 S   0  0  0  0  0  0  0  0  0  0  0  0
  4  3  1  0
  5  1  1  0
  5  2  1  0
  5  3  1  0
  6  4  1  0
M  END
>  <NAME>  (2092) 
3-METHYL-1-BUTANETHIOL

>  <SYNONYMS>  (2092) 


>  <SPECTRUM TYPE>  (2092) 
MS1

>  <INSTRUMENT TYPE>  (2092) 
EI-B

>  <INSTRUMENT>  (2092) 
HITACHI M-80B

>  <ION MODE>  (2092) 
P

>  <INCHIKEY>  (2092) 
GIJGXNFNUUFEGH-UHFFFAOYSA-N

>  <FORMULA>  (2092) 
C5H12S

>  <EXACT MASS>  (2092) 
104.065971384

>  <MW>  (2092) 
104

>  <ID>  (2092) 
JP009157

>  <CONTRIBUTOR>  (2092) 
University of Tokyo Team, {Faculty of Engineering, University of Tokyo

>  <COMMENT>  (2092) 
SMILES=CC(C)CCS
InChI=InChI=1S/C5H12S/c1-5(2)3-4-6/h5-6H,3-4H2,1-2H3
computed SMILES=SCCC(C)C
accession=JP009157
date=2016.01.19 (Created 2008.10.21, modified 2011.05.06)
author=SODA AROMATIC CO., LTD.
license=CC BY-NC-SA
exact mass=104.06597
ionization energy=70 eV
ion type=[M]+*
computed spectral entropy=2.8632729147029505
computed normalized entropy=0.7815544519983286
SPLASH=splash10-0596-9000000000-008ee604b11d844c1846
submitter=submitter = University of Tokyo Team (Faculty of Engineering, University of Tokyo)
MoNA Rating=3.75

>  <NUM PEAKS>  (2092) 
39

>  <MASS SPECTRAL PEAKS>  (2092) 
15 2.41
26 2.24
27 30.95
28 5.12
29 20.84
33 1.7
34 1.53
35 4.7
38 1.7
39 25.11
40 3.17
41 46.89
42 36.3
43 37.31
44 1.19
45 12.1
46 4.99
47 34.12
48 1.47
49 1.52
50 1.3
51 1.84
53 4.38
54 2.03
55 99.99
56 6.93
57 6.48
58 3.47
59 4.68
60 5.84
61 31.2
62 2.22
63 1.44
69 3.41
70 90.2
71 6.64
104 39.16
105 2.71
106 1.55

$$$$

     RDKit          2D

  6  5  0  0  0  0  0  0  0  0999 V2000
    0.0000    0.0000    0.0000 C   0  0  0  0  0  0  0  0  0  0  0  0
   -0.5490    3.5490    0.0000 C   0  0  0  0  0  0  0  0  0  0  0  0
   -2.5981    3.0000    0.0000 C   0  0  0  0  0  0  0  0  0  0  0  0
    0.0000    1.5000    0.0000 C   0  0  0  0  0  0  0  0  0  0  0  0
   -1.2990    2.2500    0.0000 C   0  0  0  0  0  0  0  0  0  0  0  0
   -2.0490    0.9510    0.0000 S   0  0  0  0  0  0  0  0  0  0  0  0
  4  1  1  0
  5  2  1  0
  5  3  1  0
  5  4  1  0
  6  5  1  0
M  END
>  <NAME>  (2093) 
2-METHYL-2-BUTANETHIOL

>  <SYNONYMS>  (2093) 


>  <SPECTRUM TYPE>  (2093) 
MS1

>  <INSTRUMENT TYPE>  (2093) 
EI-B

>  <INSTRUMENT>  (2093) 
HITACHI M-80B

>  <ION MODE>  (2093) 
P

>  <INCHIKEY>  (2093) 
IQIBYAHJXQVQGB-UHFFFAOYSA-N

>  <FORMULA>  (2093) 
C5H12S

>  <EXACT MASS>  (2093) 
104.065971384

>  <MW>  (2093) 
104

>  <ID>  (2093) 
JP009156

>  <CONTRIBUTOR>  (2093) 
University of Tokyo Team, {Faculty of Engineering, University of Tokyo

>  <COMMENT>  (2093) 
SMILES=CCC(C)(C)S
InChI=InChI=1S/C5H12S/c1-4-5(2,3)6/h6H,4H2,1-3H3
computed SMILES=SC(C)(C)CC
accession=JP009156
date=2016.01.19 (Created 2008.10.21, modified 2011.05.06)
author=SODA AROMATIC CO., LTD.
license=CC BY-NC-SA
exact mass=104.06597
ionization energy=70 eV
ion type=[M]+*
computed spectral entropy=2.732058091113244
computed normalized entropy=0.8289421479848376
SPLASH=splash10-002f-9000000000-8fe8afd33a8a6e8b082d
submitter=submitter = University of Tokyo Team (Faculty of Engineering, University of Tokyo)
MoNA Rating=3.75

>  <NUM PEAKS>  (2093) 
27

>  <MASS SPECTRAL PEAKS>  (2093) 
14 3.78
26 4.33
27 24.17
29 26.46
39 27.71
40 4.56
41 49.98
42 9.29
43 99.99
45 6.89
47 11.5
50 3.82
51 4.68
53 7.5
55 41.05
58 5.35
59 11.61
61 3.83
69 4.13
70 6.74
71 68.26
72 5.38
75 25.84
89 4.01
104 34.78
105 3.3
106 3.4

$$$$

     RDKit          2D

  5  4  0  0  0  0  0  0  0  0999 V2000
   -1.2990    0.7500    0.0000 C   0  0  0  0  0  0  0  0  0  0  0  0
    0.7500    0.2010    0.0000 C   0  0  0  0  0  0  0  0  0  0  0  0
    1.2990    2.2500    0.0000 C   0  0  0  0  0  0  0  0  0  0  0  0
    0.0000    1.5000    0.0000 C   0  0  0  0  0  0  0  0  0  0  0  0
   -0.7500    2.7990    0.0000 S   0  0  0  0  0  0  0  0  0  0  0  0
  4  1  1  0
  4  2  1  0
  4  3  1  0
  5  4  1  0
M  END
>  <NAME>  (2094) 
TERT-BUTANETHIOL

>  <SYNONYMS>  (2094) 


>  <SPECTRUM TYPE>  (2094) 
MS1

>  <INSTRUMENT TYPE>  (2094) 
EI-B

>  <INSTRUMENT>  (2094) 
HITACHI M-80B

>  <ION MODE>  (2094) 
P

>  <INCHIKEY>  (2094) 
WMXCDAVJEZZYLT-UHFFFAOYSA-N

>  <FORMULA>  (2094) 
C4H10S

>  <EXACT MASS>  (2094) 
90.05032132

>  <MW>  (2094) 
90

>  <ID>  (2094) 
JP009155

>  <CONTRIBUTOR>  (2094) 
University of Tokyo Team, {Faculty of Engineering, University of Tokyo

>  <COMMENT>  (2094) 
SMILES=CC(C)(C)S
InChI=InChI=1S/C4H10S/c1-4(2,3)5/h5H,1-3H3
computed SMILES=SC(C)(C)C
accession=JP009155
date=2016.01.19 (Created 2008.10.21, modified 2011.05.06)
author=SODA AROMATIC CO., LTD.
license=CC BY-NC-SA
exact mass=90.05032
ionization energy=70 eV
ion type=[M]+*
computed spectral entropy=2.4558064284999186
computed normalized entropy=0.7451237814076606
SPLASH=splash10-054o-9000000000-2edc0ac235fad52ff9c3
submitter=submitter = University of Tokyo Team (Faculty of Engineering, University of Tokyo)
MoNA Rating=3.75

>  <NUM PEAKS>  (2094) 
27

>  <MASS SPECTRAL PEAKS>  (2094) 
15 5.41
26 2.82
27 20.32
28 3.14
29 55.83
33 5.24
37 1.56
38 4.12
39 37.1
40 4.12
41 99.99
42 4.64
45 6.9
47 10
49 2.92
50 2.45
51 2.18
53 2.45
55 6.19
56 3.06
57 97.55
58 4.75
59 10.74
75 19.4
90 35.93
91 1.35
92 1.36

$$$$

     RDKit          2D

  4  3  0  0  0  0  0  0  0  0999 V2000
   -2.5981    2.2500    0.0000 C   0  0  0  0  0  0  0  0  0  0  0  0
   -1.2990    1.5000    0.0000 C   0  0  0  0  0  0  0  0  0  0  0  0
    0.0000    2.2500    0.0000 C   0  0  0  0  0  0  0  0  0  0  0  0
    1.2990    1.5000    0.0000 S   0  0  0  0  0  0  0  0  0  0  0  0
  2  1  1  0
  3  2  1  0
  4  3  1  0
M  END
>  <NAME>  (2095) 
PROPANETHIOL

>  <SYNONYMS>  (2095) 


>  <SPECTRUM TYPE>  (2095) 
MS1

>  <INSTRUMENT TYPE>  (2095) 
EI-B

>  <INSTRUMENT>  (2095) 
HITACHI M-80B

>  <ION MODE>  (2095) 
P

>  <INCHIKEY>  (2095) 
SUVIGLJNEAMWEG-UHFFFAOYSA-N

>  <FORMULA>  (2095) 
C3H8S

>  <EXACT MASS>  (2095) 
76.034671256

>  <MW>  (2095) 
76

>  <ID>  (2095) 
JP009154

>  <CONTRIBUTOR>  (2095) 
University of Tokyo Team, {Faculty of Engineering, University of Tokyo

>  <COMMENT>  (2095) 
SMILES=CCCS
InChI=InChI=1S/C3H8S/c1-2-3-4/h4H,2-3H2,1H3
computed SMILES=SCCC
accession=JP009154
date=2016.01.19 (Created 2008.10.21, modified 2011.05.06)
author=SODA AROMATIC CO., LTD.
license=CC BY-NC-SA
exact mass=76.03467
ionization energy=70 eV
ion type=[M]+*
computed spectral entropy=2.7077927774932404
computed normalized entropy=0.7744278340292098
SPLASH=splash10-002g-9000000000-abd8f7bc9c83c0f98d25
submitter=submitter = University of Tokyo Team (Faculty of Engineering, University of Tokyo)
MoNA Rating=3.75

>  <NUM PEAKS>  (2095) 
33

>  <MASS SPECTRAL PEAKS>  (2095) 
15 5.35
26 8.34
27 58.44
28 4.04
29 7.96
32 1.75
33 6.51
34 2.45
35 7.8
37 3.01
38 6.72
39 38.48
40 8.19
41 76.74
42 83.05
43 86.94
44 2.61
45 31.83
46 26.15
47 99.99
48 11.65
49 3.93
57 2.5
58 7.02
59 5.92
60 1.09
61 11.96
69 2.13
71 1.36
75 1.07
76 94.42
77 3.41
78 3.26

$$$$

     RDKit          2D

 14 14  0  0  0  0  0  0  0  0999 V2000
    3.3491    0.2013    0.0000 C   0  0  0  0  0  0  0  0  0  0  0  0
    3.8978    2.2504    0.0000 C   0  0  0  0  0  0  0  0  0  0  0  0
    1.8487    2.7991    0.0000 C   0  0  0  0  0  0  0  0  0  0  0  0
   -3.8981   -0.7504    0.0000 C   0  0  0  0  0  0  0  0  0  0  0  0
   -2.5989   -1.5002    0.0000 C   0  0  0  0  0  0  0  0  0  0  0  0
   -1.3000    0.7500    0.0000 C   0  0  0  0  0  0  0  0  0  0  0  0
   -0.0000   -1.5000    0.0000 C   0  0  0  0  0  0  0  0  0  0  0  0
    0.0000    1.5000    0.0000 C   0  0  0  0  0  0  0  0  0  0  0  0
    1.3000   -0.7500    0.0000 C   0  0  0  0  0  0  0  0  0  0  0  0
   -5.1970   -1.5006    0.0000 C   0  0  0  0  0  0  0  0  0  0  0  0
   -1.3000   -0.7500    0.0000 C   0  0  0  0  0  0  0  0  0  0  0  0
    1.3000    0.7500    0.0000 C   0  0  0  0  0  0  0  0  0  0  0  0
    2.5989    1.5002    0.0000 C   0  0  0  0  0  0  0  0  0  0  0  0
   -6.4962   -0.7508    0.0000 O   0  0  0  0  0  0  0  0  0  0  0  0
  5  4  1  0
  8  6  2  0
  9  7  1  0
 10  4  1  0
 11  5  1  0
 11  6  1  0
 11  7  2  0
 12  8  1  0
 12  9  2  0
 13  1  1  0
 13  2  1  0
 13  3  1  0
 13 12  1  0
 14 10  2  0
M  END
>  <NAME>  (2096) 
3-(4-TERT-BUTYLPHENYL)PROPANAL

>  <SYNONYMS>  (2096) 


>  <SPECTRUM TYPE>  (2096) 
MS1

>  <INSTRUMENT TYPE>  (2096) 
EI-B

>  <INSTRUMENT>  (2096) 
HITACHI M-80B

>  <ION MODE>  (2096) 
P

>  <INCHIKEY>  (2096) 
FZJUFJKVIYFBSY-UHFFFAOYSA-N

>  <FORMULA>  (2096) 
C13H18O

>  <EXACT MASS>  (2096) 
190.135765196

>  <MW>  (2096) 
190

>  <ID>  (2096) 
JP009153

>  <CONTRIBUTOR>  (2096) 
University of Tokyo Team, {Faculty of Engineering, University of Tokyo

>  <COMMENT>  (2096) 
SMILES=O=CCCc(c1)ccc(c1)C(C)(C)C
InChI=InChI=1S/C13H18O/c1-13(2,3)12-8-6-11(7-9-12)5-4-10-14/h6-10H,4-5H2,1-3H3
computed SMILES=O=CCCC1=CC=C(C=C1)C(C)(C)C
accession=JP009153
date=2016.01.19 (Created 2008.10.21, modified 2011.05.06)
author=SODA AROMATIC CO., LTD.
license=CC BY-NC-SA
exact mass=190.13577
ionization energy=70 eV
ion type=[M]+*
computed spectral entropy=2.8910050252070936
computed normalized entropy=0.7686389812508008
SPLASH=splash10-004i-2900000000-aa0b595c8f722f9cd975
submitter=submitter = University of Tokyo Team (Faculty of Engineering, University of Tokyo)
MoNA Rating=3.75

>  <NUM PEAKS>  (2096) 
43

>  <MASS SPECTRAL PEAKS>  (2096) 
15 1.01
27 2.68
29 8.03
39 6.84
41 11.05
50 1.07
51 2.76
53 1.92
55 2.04
57 8.03
63 1.82
65 2.84
77 6.44
78 2.08
79 2.18
89 1.31
91 17.25
92 2.47
102 1.33
103 2.94
104 1.66
105 7.51
115 8.97
116 8.47
117 12.08
118 1.78
119 3.24
127 1.17
128 3.09
129 2.97
131 38.21
132 8.08
133 3.93
134 1.81
145 1.92
146 1.33
147 4.88
173 1.59
175 99.99
176 13.4
177 1
190 18.76
191 2.34

$$$$

     RDKit          2D

 10  9  0  0  0  0  0  0  0  0999 V2000
    0.5760    3.4486    0.0000 C   0  0  0  0  0  0  0  0  0  0  0  0
    1.3260   -0.8505    0.0000 C   0  0  0  0  0  0  0  0  0  0  0  0
   -0.1740    1.7476    0.0000 C   0  0  0  0  0  0  0  0  0  0  0  0
   -0.7231   -0.3014    0.0000 C   0  0  0  0  0  0  0  0  0  0  0  0
    3.1740    3.4486    0.0000 C   0  0  0  0  0  0  0  0  0  0  0  0
    3.1740    4.9486    0.0000 C   0  0  0  0  0  0  0  0  0  0  0  0
    1.8750    1.1986    0.0000 C   0  0  0  0  0  0  0  0  0  0  0  0
    1.8750    2.6986    0.0000 C   0  0  0  0  0  0  0  0  0  0  0  0
    0.5760    0.4486    0.0000 C   0  0  0  0  0  0  0  0  0  0  0  0
    4.4731    5.6986    0.0000 O   0  0  0  0  0  0  0  0  0  0  0  0
  6  5  1  0
  8  1  1  0
  8  5  1  0
  8  7  1  0
  9  2  1  0
  9  3  1  0
  9  4  1  0
  9  7  1  0
 10  6  2  0
M  END
>  <NAME>  (2097) 
3,5,5-TRIMETHYLHEXANAL

>  <SYNONYMS>  (2097) 


>  <SPECTRUM TYPE>  (2097) 
MS1

>  <INSTRUMENT TYPE>  (2097) 
EI-B

>  <INSTRUMENT>  (2097) 
HITACHI M-80B

>  <ION MODE>  (2097) 
P

>  <INCHIKEY>  (2097) 
WTPYRCJDOZVZON-UHFFFAOYSA-N

>  <FORMULA>  (2097) 
C9H18O

>  <EXACT MASS>  (2097) 
142.135765196

>  <MW>  (2097) 
142

>  <ID>  (2097) 
JP009152

>  <CONTRIBUTOR>  (2097) 
University of Tokyo Team, {Faculty of Engineering, University of Tokyo

>  <COMMENT>  (2097) 
SMILES=O=CCC(C)CC(C)(C)C
InChI=InChI=1S/C9H18O/c1-8(5-6-10)7-9(2,3)4/h6,8H,5,7H2,1-4H3
computed SMILES=O=CCC(C)CC(C)(C)C
accession=JP009152
date=2016.01.19 (Created 2008.10.21, modified 2011.05.06)
author=SODA AROMATIC CO., LTD.
license=CC BY-NC-SA
exact mass=142.13577
ionization energy=70 eV
ion type=[M]+*
computed spectral entropy=2.575602283794454
computed normalized entropy=0.7729424397360988
SPLASH=splash10-0a4i-9000000000-05710755b05579381479
submitter=submitter = University of Tokyo Team (Faculty of Engineering, University of Tokyo)
MoNA Rating=3.75

>  <NUM PEAKS>  (2097) 
28

>  <MASS SPECTRAL PEAKS>  (2097) 
15 1.52
18 1.88
27 10.48
29 16.9
39 12.27
41 39.75
42 2.9
43 14.99
44 3.46
45 1.17
53 2.28
55 14.99
56 14.88
57 99.99
58 5.28
67 3
69 2.42
71 2.87
81 1.25
82 1.13
83 39.33
84 3.42
85 6.9
98 17.26
99 1.59
100 7.48
109 12.5
110 1.1

$$$$

     RDKit          2D

  9  9  0  0  0  0  0  0  0  0999 V2000
    3.8981    1.5002    0.0000 C   0  0  0  0  0  0  0  0  0  0  0  0
    2.5992   -0.7500    0.0000 C   0  0  0  0  0  0  0  0  0  0  0  0
    1.2992    1.5000    0.0000 C   0  0  0  0  0  0  0  0  0  0  0  0
    1.2992   -1.5000    0.0000 C   0  0  0  0  0  0  0  0  0  0  0  0
   -0.0008    0.7500    0.0000 C   0  0  0  0  0  0  0  0  0  0  0  0
   -1.2998   -1.5002    0.0000 C   0  0  0  0  0  0  0  0  0  0  0  0
    2.5992    0.7500    0.0000 C   0  0  0  0  0  0  0  0  0  0  0  0
   -0.0008   -0.7500    0.0000 C   0  0  0  0  0  0  0  0  0  0  0  0
   -2.5989   -0.7504    0.0000 O   0  0  0  0  0  0  0  0  0  0  0  0
  4  2  2  0
  5  3  1  0
  7  1  1  0
  7  2  1  0
  7  3  2  0
  8  4  1  0
  8  5  2  0
  8  6  1  0
  9  6  1  0
M  END
>  <NAME>  (2098) 
P-METHYLBENZYL ALCOHOL

>  <SYNONYMS>  (2098) 


>  <SPECTRUM TYPE>  (2098) 
MS1

>  <INSTRUMENT TYPE>  (2098) 
EI-B

>  <INSTRUMENT>  (2098) 
HITACHI M-80B

>  <ION MODE>  (2098) 
P

>  <INCHIKEY>  (2098) 
KMTDMTZBNYGUNX-UHFFFAOYSA-N

>  <FORMULA>  (2098) 
C8H10O

>  <EXACT MASS>  (2098) 
122.07316494

>  <MW>  (2098) 
122

>  <ID>  (2098) 
JP009151

>  <CONTRIBUTOR>  (2098) 
University of Tokyo Team, {Faculty of Engineering, University of Tokyo

>  <COMMENT>  (2098) 
SMILES=OCc(c1)ccc(C)c1
InChI=InChI=1S/C8H10O/c1-7-2-4-8(6-9)5-3-7/h2-5,9H,6H2,1H3
computed SMILES=OCC1=CC=C(C=C1)C
accession=JP009151
date=2016.01.19 (Created 2008.10.21, modified 2011.05.06)
author=SODA AROMATIC CO., LTD.
license=CC BY-NC-SA
exact mass=122.07316
ionization energy=70 eV
ion type=[M]+*
computed spectral entropy=3.044491023404116
computed normalized entropy=0.7951883470193752
SPLASH=splash10-05dl-9600000000-717c741d4054d456793c
submitter=submitter = University of Tokyo Team (Faculty of Engineering, University of Tokyo)
MoNA Rating=3.75

>  <NUM PEAKS>  (2098) 
46

>  <MASS SPECTRAL PEAKS>  (2098) 
15 1.39
26 1.36
27 9.8
29 7.46
31 7.44
38 3.53
39 22.99
40 1.8
41 6.03
50 8.01
51 17.96
52 5.19
53 5.56
55 1.06
60 5.31
61 1.14
62 4.89
63 13.49
64 2.42
65 24.46
66 2.07
74 1.93
75 1.56
76 1.19
77 58
78 13.26
79 69.18
80 4.84
89 6.58
90 1.88
91 55.16
92 6.24
93 46.89
94 4.02
102 1.19
103 7.15
104 12.67
105 19.74
106 1.57
107 99.99
108 8.46
119 4.42
120 1.63
121 18.18
122 99.31
123 8.98

$$$$

     RDKit          2D

 12 12  0  0  0  0  0  0  0  0999 V2000
   -2.5476    4.3306    0.0000 C   0  0  0  0  0  0  0  0  0  0  0  0
   -4.5966    3.7816    0.0000 C   0  0  0  0  0  0  0  0  0  0  0  0
    3.1976    0.7816    0.0000 C   0  0  0  0  0  0  0  0  0  0  0  0
    3.1981    2.2824    0.0000 C   0  0  0  0  0  0  0  0  0  0  0  0
    1.8981    0.0308    0.0000 C   0  0  0  0  0  0  0  0  0  0  0  0
    1.8990    3.0324    0.0000 C   0  0  0  0  0  0  0  0  0  0  0  0
    0.5990    0.7808    0.0000 C   0  0  0  0  0  0  0  0  0  0  0  0
   -0.6995    3.0316    0.0000 C   0  0  0  0  0  0  0  0  0  0  0  0
   -1.9986    2.2816    0.0000 C   0  0  0  0  0  0  0  0  0  0  0  0
    0.5995    2.2816    0.0000 C   0  0  0  0  0  0  0  0  0  0  0  0
   -3.2976    3.0316    0.0000 C   0  0  0  0  0  0  0  0  0  0  0  0
   -4.0476    1.7326    0.0000 O   0  0  0  0  0  0  0  0  0  0  0  0
  4  3  2  0
  5  3  1  0
  6  4  1  0
  7  5  2  0
  9  8  1  0
 10  6  2  0
 10  7  1  0
 10  8  1  0
 11  1  1  0
 11  2  1  0
 11  9  1  0
 12 11  1  0
M  END
>  <NAME>  (2099) 
3-METHYL-1-PHENYL-3-BUTANOL

>  <SYNONYMS>  (2099) 


>  <SPECTRUM TYPE>  (2099) 
MS1

>  <INSTRUMENT TYPE>  (2099) 
EI-B

>  <INSTRUMENT>  (2099) 
HITACHI M-80B

>  <ION MODE>  (2099) 
P

>  <INCHIKEY>  (2099) 
YXVSKJDFNJFXAJ-UHFFFAOYSA-N

>  <FORMULA>  (2099) 
C11H16O

>  <EXACT MASS>  (2099) 
164.120115132

>  <MW>  (2099) 
164

>  <ID>  (2099) 
JP009150

>  <CONTRIBUTOR>  (2099) 
University of Tokyo Team, {Faculty of Engineering, University of Tokyo

>  <COMMENT>  (2099) 
SMILES=CC(C)(O)CCc(c1)cccc1
InChI=InChI=1S/C11H16O/c1-11(2,12)9-8-10-6-4-3-5-7-10/h3-7,12H,8-9H2,1-2H3
computed SMILES=OC(C)(C)CCC=1C=CC=CC1
accession=JP009150
date=2016.01.19 (Created 2008.10.21, modified 2011.05.06)
author=SODA AROMATIC CO., LTD.
license=CC BY-NC-SA
exact mass=164.12012
ionization energy=70 eV
ion type=[M]+*
computed spectral entropy=2.614811218802505
computed normalized entropy=0.7241403105970126
SPLASH=splash10-0537-9500000000-ad1fba1549481a617c70
submitter=submitter = University of Tokyo Team (Faculty of Engineering, University of Tokyo)
MoNA Rating=3.75

>  <NUM PEAKS>  (2099) 
37

>  <MASS SPECTRAL PEAKS>  (2099) 
15 1.15
27 3.12
29 1.59
31 7.14
39 6.41
41 5.15
43 12.6
50 1.69
51 6.49
52 1.39
53 1.33
55 1.1
58 2.96
59 99.99
60 3.12
63 2.77
65 10.22
77 9.49
78 9.99
79 4.45
89 1.99
91 88.25
92 6.76
103 3.55
104 3.74
105 7.42
106 4.5
115 1.15
116 1.18
117 1.32
129 1.25
131 59.79
132 5.45
145 1.55
146 55
147 7.78
149 9.94

$$$$

     RDKit          2D

 10 10  0  0  0  0  0  0  0  0999 V2000
   -2.2915    1.3193    0.0000 C   0  0  0  0  0  0  0  0  0  0  0  0
   -0.9814    3.5628    0.0000 C   0  0  0  0  0  0  0  0  0  0  0  0
    1.6056    2.0565    0.0000 C   0  0  0  0  0  0  0  0  0  0  0  0
    0.2920   -0.1684    0.0000 C   0  0  0  0  0  0  0  0  0  0  0  0
    2.8901    1.3316    0.0000 C   0  0  0  0  0  0  0  0  0  0  0  0
    1.6165   -0.9625    0.0000 C   0  0  0  0  0  0  0  0  0  0  0  0
   -0.9888    2.0629    0.0000 C   0  0  0  0  0  0  0  0  0  0  0  0
    0.3065    1.3065    0.0000 C   0  0  0  0  0  0  0  0  0  0  0  0
    2.9156   -0.2125    0.0000 C   0  0  0  0  0  0  0  0  0  0  0  0
    4.2207   -0.9518    0.0000 O   0  0  0  0  0  0  0  0  0  0  0  0
  5  3  1  0
  6  4  1  0
  7  1  1  0
  7  2  1  0
  8  3  1  0
  8  4  1  0
  8  7  1  0
  9  5  1  0
  9  6  1  0
 10  9  1  0
M  END
>  <NAME>  (2100) 
4-ISOPROPYLCYCLOHEXANOL

>  <SYNONYMS>  (2100) 


>  <SPECTRUM TYPE>  (2100) 
MS1

>  <INSTRUMENT TYPE>  (2100) 
EI-B

>  <INSTRUMENT>  (2100) 
HITACHI M-80B

>  <ION MODE>  (2100) 
P

>  <INCHIKEY>  (2100) 
DKKRDMLKVSKFMJ-UHFFFAOYSA-N

>  <FORMULA>  (2100) 
C9H18O

>  <EXACT MASS>  (2100) 
142.135765196

>  <MW>  (2100) 
142

>  <ID>  (2100) 
JP009149

>  <CONTRIBUTOR>  (2100) 
University of Tokyo Team, {Faculty of Engineering, University of Tokyo

>  <COMMENT>  (2100) 
SMILES=CC(C)C(C1)CCC(O)C1
InChI=InChI=1S/C9H18O/c1-7(2)8-3-5-9(10)6-4-8/h7-10H,3-6H2,1-2H3
computed SMILES=OC1CCC(CC1)C(C)C
accession=JP009149
date=2016.01.19 (Created 2008.10.21, modified 2011.05.06)
author=SODA AROMATIC CO., LTD.
license=CC BY-NC-SA
exact mass=142.13577
ionization energy=70 eV
ion type=[M]+*
computed spectral entropy=3.018553665274575
computed normalized entropy=0.8239396403943449
SPLASH=splash10-001i-9000000000-485acfe0bf3162c5c81f
submitter=submitter = University of Tokyo Team (Faculty of Engineering, University of Tokyo)
MoNA Rating=3.75

>  <NUM PEAKS>  (2100) 
39

>  <MASS SPECTRAL PEAKS>  (2100) 
27 13.51
29 10.47
31 3.81
39 12.71
40 1.22
41 28.11
42 3.78
43 36.48
44 6.96
45 1.1
51 1.03
53 6.4
54 7.62
55 27.49
56 5.68
57 20.36
58 2.19
65 1.17
66 6.12
67 14.89
68 5.33
69 10.16
70 3.78
71 1.23
77 1.13
79 4.95
80 14.15
81 99.99
82 25.56
83 5.21
84 1.59
85 9.6
95 4.24
96 4.4
98 2.08
99 1.36
109 13.55
124 15.3
125 1.22

$$$$

     RDKit          2D

 16 18  0  0  1  0  0  0  0  0999 V2000
   -2.5621    2.6271    0.0000 C   0  0  0  0  0  0  0  0  0  0  0  0
   -0.6698   -2.6389    0.0000 C   0  0  0  0  0  0  0  0  0  0  0  0
    1.1515   -3.0511    0.0000 C   0  0  0  0  0  0  0  0  0  0  0  0
    3.7828   -0.9552    0.0000 C   0  0  0  0  0  0  0  0  0  0  0  0
   -2.9800   -0.0200    0.0000 C   0  0  0  0  0  0  0  0  0  0  0  0
   -2.1000   -1.2300    0.0000 C   0  0  0  0  0  0  0  0  0  0  0  0
    1.9600    1.3300    0.0000 C   0  0  0  0  0  0  0  0  0  0  0  0
    0.5000    1.6700    0.0000 C   0  0  0  0  0  0  0  0  0  0  0  0
    1.0200    0.1600    0.0000 C   0  0  0  0  0  0  0  0  0  0  0  0
   -2.1000    1.2000    0.0000 C   0  0  0  0  0  0  0  0  0  0  0  0
   -0.6800   -0.7700    0.0000 C   0  0  0  0  0  0  0  0  0  0  0  0
    1.9600   -1.3700    0.0000 C   0  0  0  0  0  0  0  0  0  0  0  0
    0.5000   -1.7000    0.0000 C   0  0  0  0  0  0  0  0  0  0  0  0
    2.6100   -0.0200    0.0000 C   0  0  0  0  0  0  0  0  0  0  0  0
   -0.6800    0.7300    0.0000 C   0  0  0  0  0  0  0  0  0  0  0  0
    3.7828    0.9152    0.0000 O   0  0  0  0  0  0  0  0  0  0  0  0
  6  5  1  0
  8  7  1  0
 10  1  1  1
 10  5  1  0
 11  6  1  0
 12  9  1  0
 13  2  1  0
 13  3  1  0
 13 11  1  0
 12 13  1  1
 14  4  1  6
 14  7  1  0
 14 12  1  0
 15  8  1  0
 15  9  1  0
 15 10  1  0
 15 11  1  0
 14 16  1  0
M  END
>  <NAME>  (2101) 
CEDROL

>  <SYNONYMS>  (2101) 


>  <SPECTRUM TYPE>  (2101) 
MS1

>  <INSTRUMENT TYPE>  (2101) 
EI-B

>  <INSTRUMENT>  (2101) 
HITACHI M-80B

>  <ION MODE>  (2101) 
P

>  <INCHIKEY>  (2101) 
SVURIXNDRWRAFU-OWAXCYOXSA-N

>  <FORMULA>  (2101) 
C15H26O

>  <EXACT MASS>  (2101) 
222.198365452

>  <MW>  (2101) 
222

>  <ID>  (2101) 
JP009148

>  <CONTRIBUTOR>  (2101) 
University of Tokyo Team, {Faculty of Engineering, University of Tokyo

>  <COMMENT>  (2101) 
SMILES=[H]C(C)(C3)C(C2)(C1)C(C3)C(C)(C)C([H])(C(C)(O)C2)1
InChI=InChI=1S/C15H26O/c1-10-5-6-11-13(2,3)12-9-15(10,11)8-7-14(12,4)16/h10-12,16H,5-9H2,1-4H3/t10-,11?,12-,14-,15?/m1/s1
computed SMILES=OC1(C)CCC23CC1C(C)(C)C3CCC2C
accession=JP009148
date=2016.01.19 (Created 2008.10.21, modified 2011.05.06)
author=SODA AROMATIC CO., LTD.
license=CC BY-NC-SA
exact mass=222.19837
ionization energy=70 eV
ion type=[M]+*
computed spectral entropy=3.9022368301289854
computed normalized entropy=0.8569043307531037
SPLASH=splash10-0f6y-9600000000-bdf6fee547e3ab6e28dc
submitter=submitter = University of Tokyo Team (Faculty of Engineering, University of Tokyo)
MoNA Rating=3.75

>  <NUM PEAKS>  (2101) 
95

>  <MASS SPECTRAL PEAKS>  (2101) 
15 1.36
18 1.98
27 9.06
29 13.47
39 12.06
41 58.88
42 5.54
43 61.58
44 2.43
45 3.76
51 2.54
52 1.76
53 14.02
54 3.04
55 32.56
56 4.48
57 5.73
58 7.67
59 6.05
65 6.38
66 2.78
67 20.54
68 3.82
69 39.37
70 2.85
71 14.86
72 8.99
73 1.39
77 17.19
78 4.34
79 25.79
80 4.91
81 42.36
82 10.83
83 7.23
84 1.7
85 1
91 21.63
92 5.05
93 32.35
94 8.96
95 99.99
96 9.88
97 3.39
99 7.65
103 1.48
104 1.24
105 16.31
106 4.54
107 27.99
108 15.58
109 25
110 3.29
111 2.76
113 1.36
115 1.54
117 1.89
119 18.86
120 5.46
121 20.42
122 12.05
123 9.83
124 1.48
131 1.2
133 9.22
134 3.88
135 20.38
136 4.79
137 6.25
138 1.95
139 1.04
147 7.19
148 3.52
149 17.11
150 75.7
151 71.26
152 8.66
161 12.71
162 3.1
163 2.96
164 7.11
165 9.82
166 3.87
167 1.65
175 1.11
177 4.66
178 2.46
179 2.92
189 4.2
193 1.5
204 5.95
205 1.07
207 13.31
208 2.53
222 3.53

$$$$

     RDKit          2D

 17 16  0  0  0  0  0  0  0  0999 V2000
   -9.2440    6.6630    0.0000 C   0  0  0  0  0  0  0  0  0  0  0  0
   -7.9450    4.4130    0.0000 C   0  0  0  0  0  0  0  0  0  0  0  0
   -2.7488    4.4130    0.0000 C   0  0  0  0  0  0  0  0  0  0  0  0
    1.6974    4.6139    0.0000 C   0  0  0  0  0  0  0  0  0  0  0  0
    3.7464    5.1630    0.0000 C   0  0  0  0  0  0  0  0  0  0  0  0
   -7.9450    5.9130    0.0000 C   0  0  0  0  0  0  0  0  0  0  0  0
   -6.6459    3.6630    0.0000 C   0  0  0  0  0  0  0  0  0  0  0  0
   -0.1507    5.9130    0.0000 C   0  0  0  0  0  0  0  0  0  0  0  0
   -1.4498    6.6630    0.0000 C   0  0  0  0  0  0  0  0  0  0  0  0
    1.1483    6.6630    0.0000 C   0  0  0  0  0  0  0  0  0  0  0  0
   -4.0478    6.6630    0.0000 C   0  0  0  0  0  0  0  0  0  0  0  0
   -2.7488    5.9130    0.0000 C   0  0  0  0  0  0  0  0  0  0  0  0
   -5.3469    5.9130    0.0000 C   0  0  0  0  0  0  0  0  0  0  0  0
    2.4474    5.9130    0.0000 C   0  0  0  0  0  0  0  0  0  0  0  0
    3.1974    7.2120    0.0000 O   0  0  0  0  0  0  0  0  0  0  0  0
   -6.6459    6.6630    0.0000 O   0  0  0  0  0  0  0  0  0  0  0  0
   -5.3469    4.4130    0.0000 O   0  0  0  0  0  0  0  0  0  0  0  0
  6  1  1  0
  7  2  1  0
  9  8  1  0
 10  8  1  0
 12  3  1  0
 12  9  1  0
 12 11  1  0
 13 11  1  0
 14  4  1  0
 14  5  1  0
 14 10  1  0
 15 14  1  0
 16  6  1  0
 16 13  1  0
 17  7  1  0
 17 13  1  0
M  END
>  <NAME>  (2102) 
HYDROXYCITRONELLAL DIETHYL ACETAL

>  <SYNONYMS>  (2102) 


>  <SPECTRUM TYPE>  (2102) 
MS1

>  <INSTRUMENT TYPE>  (2102) 
EI-B

>  <INSTRUMENT>  (2102) 
HITACHI M-80B

>  <ION MODE>  (2102) 
P

>  <INCHIKEY>  (2102) 
XOJDKWNFMFCXNE-UHFFFAOYSA-N

>  <FORMULA>  (2102) 
C14H30O3

>  <EXACT MASS>  (2102) 
246.21949481999997

>  <MW>  (2102) 
246

>  <ID>  (2102) 
JP009147

>  <CONTRIBUTOR>  (2102) 
University of Tokyo Team, {Faculty of Engineering, University of Tokyo

>  <COMMENT>  (2102) 
SMILES=CCOC(OCC)CC(C)CCCC(C)(C)O
InChI=InChI=1S/C14H30O3/c1-6-16-13(17-7-2)11-12(3)9-8-10-14(4,5)15/h12-13,15H,6-11H2,1-5H3
computed SMILES=OC(C)(C)CCCC(C)CC(OCC)OCC
accession=JP009147
date=2016.01.19 (Created 2008.10.21, modified 2011.05.06)
author=SODA AROMATIC CO., LTD.
license=CC BY-NC-SA
exact mass=246.21949
ionization energy=70 eV
ion type=[M]+*
computed spectral entropy=3.0327528546580997
computed normalized entropy=0.7834139446938316
SPLASH=splash10-0udi-9400000000-59930f62eb5583d85584
submitter=submitter = University of Tokyo Team (Faculty of Engineering, University of Tokyo)
MoNA Rating=3.75

>  <NUM PEAKS>  (2102) 
48

>  <MASS SPECTRAL PEAKS>  (2102) 
16 1.02
27 3.69
29 9.75
31 4.32
39 1.88
41 6.36
42 1.89
43 25.77
44 3.45
45 3.61
47 26.43
53 1.27
55 6.16
56 1.72
57 4.98
58 1.8
59 24.48
67 1.51
69 7.85
70 1.28
71 13.2
72 2.49
73 2.25
75 33.48
76 1.17
79 1.31
81 16.1
82 1.58
83 3.35
85 3
95 6.05
96 5.98
97 3
99 21.29
100 1.11
103 99.99
104 4.67
109 1.24
110 1
111 5.37
112 1.24
113 1.73
121 2.17
137 7.62
138 1.15
139 6.01
183 4.88
185 1.88

$$$$

     RDKit          2D

  8  7  0  0  0  0  0  0  0  0999 V2000
    1.6740    0.1005    0.0000 C   0  0  0  0  0  0  0  0  0  0  0  0
   -0.9240    1.6005    0.0000 C   0  0  0  0  0  0  0  0  0  0  0  0
    2.4240    1.3995    0.0000 C   0  0  0  0  0  0  0  0  0  0  0  0
    1.8750    3.4486    0.0000 C   0  0  0  0  0  0  0  0  0  0  0  0
    0.3750    0.8505    0.0000 C   0  0  0  0  0  0  0  0  0  0  0  0
    1.1250    2.1495    0.0000 C   0  0  0  0  0  0  0  0  0  0  0  0
   -0.3750   -0.4486    0.0000 O   0  0  0  0  0  0  0  0  0  0  0  0
   -0.1740    2.8995    0.0000 O   0  0  0  0  0  0  0  0  0  0  0  0
  5  1  1  0
  5  2  1  0
  6  3  1  0
  6  4  1  0
  6  5  1  0
  7  5  1  0
  8  6  1  0
M  END
>  <NAME>  (2103) 
2,3-DIMETHYL-2,3-BUTANEDIOL

>  <SYNONYMS>  (2103) 


>  <SPECTRUM TYPE>  (2103) 
MS1

>  <INSTRUMENT TYPE>  (2103) 
EI-B

>  <INSTRUMENT>  (2103) 
HITACHI M-80B

>  <ION MODE>  (2103) 
P

>  <INCHIKEY>  (2103) 
IVDFJHOHABJVEH-UHFFFAOYSA-N

>  <FORMULA>  (2103) 
C6H14O2

>  <EXACT MASS>  (2103) 
118.099379688

>  <MW>  (2103) 
118

>  <ID>  (2103) 
JP009146

>  <CONTRIBUTOR>  (2103) 
University of Tokyo Team, {Faculty of Engineering, University of Tokyo

>  <COMMENT>  (2103) 
SMILES=CC(C)(O)C(C)(C)O
InChI=InChI=1S/C6H14O2/c1-5(2,7)6(3,4)8/h7-8H,1-4H3
computed SMILES=OC(C)(C)C(O)(C)C
accession=JP009146
date=2016.01.19 (Created 2008.10.21, modified 2011.05.06)
author=SODA AROMATIC CO., LTD.
license=CC BY-NC-SA
exact mass=118.09938
ionization energy=70 eV
ion type=[M]+*
computed spectral entropy=1.8588875984088034
computed normalized entropy=0.6561057614346459
SPLASH=splash10-0a4i-9000000000-779de644a5975c547ced
submitter=submitter = University of Tokyo Team (Faculty of Engineering, University of Tokyo)
MoNA Rating=3.75

>  <NUM PEAKS>  (2103) 
17

>  <MASS SPECTRAL PEAKS>  (2103) 
15 2.71
27 1.73
29 3.46
31 12.28
39 3.47
41 11.22
42 2.43
43 21.75
55 1.25
57 16.49
58 2.83
59 99.99
60 3.72
83 1.47
85 11.4
101 1.06
103 1.74

$$$$

     RDKit          2D

  7  6  0  0  0  0  0  0  0  0999 V2000
    0.6495    4.1250    0.0000 C   0  0  0  0  0  0  0  0  0  0  0  0
   -4.5466    4.1250    0.0000 C   0  0  0  0  0  0  0  0  0  0  0  0
   -0.6495    3.3750    0.0000 C   0  0  0  0  0  0  0  0  0  0  0  0
   -3.2476    3.3750    0.0000 C   0  0  0  0  0  0  0  0  0  0  0  0
    1.9486    3.3750    0.0000 O   0  0  0  0  0  0  0  0  0  0  0  0
   -5.8457    3.3750    0.0000 O   0  0  0  0  0  0  0  0  0  0  0  0
   -1.9486    4.1250    0.0000 O   0  0  0  0  0  0  0  0  0  0  0  0
  3  1  1  0
  4  2  1  0
  5  1  1  0
  6  2  1  0
  7  3  1  0
  7  4  1  0
M  END
>  <NAME>  (2104) 
DIETHYLENE GLYCOL

>  <SYNONYMS>  (2104) 


>  <SPECTRUM TYPE>  (2104) 
MS1

>  <INSTRUMENT TYPE>  (2104) 
EI-B

>  <INSTRUMENT>  (2104) 
HITACHI M-80B

>  <ION MODE>  (2104) 
P

>  <INCHIKEY>  (2104) 
MTHSVFCYNBDYFN-UHFFFAOYSA-N

>  <FORMULA>  (2104) 
C4H10O3

>  <EXACT MASS>  (2104) 
106.06299417999999

>  <MW>  (2104) 
106

>  <ID>  (2104) 
JP009145

>  <CONTRIBUTOR>  (2104) 
University of Tokyo Team, {Faculty of Engineering, University of Tokyo

>  <COMMENT>  (2104) 
SMILES=OCCOCCO
InChI=InChI=1S/C4H10O3/c5-1-3-7-4-2-6/h5-6H,1-4H2
computed SMILES=OCCOCCO
accession=JP009145
date=2016.01.19 (Created 2008.10.21, modified 2011.05.06)
author=SODA AROMATIC CO., LTD.
license=CC BY-NC-SA
exact mass=106.06299
ionization energy=70 eV
ion type=[M]+*
computed spectral entropy=1.9504882510855404
computed normalized entropy=0.7034899317883241
SPLASH=splash10-002b-9000000000-5ac5a9644a3af66863e8
submitter=submitter = University of Tokyo Team (Faculty of Engineering, University of Tokyo)
MoNA Rating=3.75

>  <NUM PEAKS>  (2104) 
16

>  <MASS SPECTRAL PEAKS>  (2104) 
15 3.82
19 5.52
27 12.51
28 2.8
29 13.57
30 1.22
31 13.57
42 1.47
43 11.32
44 9.24
45 99.99
46 2.12
47 1.42
58 1.12
75 24.03
76 11

$$$$

     RDKit          2D

  5  4  0  0  0  0  0  0  0  0999 V2000
    0.0000    0.0000    0.0000 C   0  0  0  0  0  0  0  0  0  0  0  0
   -1.2990    2.2500    0.0000 C   0  0  0  0  0  0  0  0  0  0  0  0
    0.0000    1.5000    0.0000 C   0  0  0  0  0  0  0  0  0  0  0  0
   -1.2990    3.7500    0.0000 O   0  0  0  0  0  0  0  0  0  0  0  0
    1.2990    2.2500    0.0000 O   0  0  0  0  0  0  0  0  0  0  0  0
  3  1  1  0
  3  2  1  0
  4  2  1  0
  5  3  1  0
M  END
>  <NAME>  (2105) 
1,2-PROPANEDIOL

>  <SYNONYMS>  (2105) 


>  <SPECTRUM TYPE>  (2105) 
MS1

>  <INSTRUMENT TYPE>  (2105) 
EI-B

>  <INSTRUMENT>  (2105) 
HITACHI M-80B

>  <ION MODE>  (2105) 
P

>  <INCHIKEY>  (2105) 
DNIAPMSPPWPWGF-UHFFFAOYSA-N

>  <FORMULA>  (2105) 
C3H8O2

>  <EXACT MASS>  (2105) 
76.052429496

>  <MW>  (2105) 
76

>  <ID>  (2105) 
JP009144

>  <CONTRIBUTOR>  (2105) 
University of Tokyo Team, {Faculty of Engineering, University of Tokyo

>  <COMMENT>  (2105) 
SMILES=OCC(C)O
InChI=InChI=1S/C3H8O2/c1-3(5)2-4/h3-5H,2H2,1H3
computed SMILES=OCC(O)C
accession=JP009144
date=2016.01.19 (Created 2008.10.21, modified 2011.05.06)
author=SODA AROMATIC CO., LTD.
license=CC BY-NC-SA
exact mass=76.05243
ionization energy=70 eV
ion type=[M]+*
computed spectral entropy=1.9206771515787346
computed normalized entropy=0.6645086903896237
SPLASH=splash10-0002-9000000000-6d2345a66e2cf8d2d379
submitter=submitter = University of Tokyo Team (Faculty of Engineering, University of Tokyo)
MoNA Rating=3.75

>  <NUM PEAKS>  (2105) 
18

>  <MASS SPECTRAL PEAKS>  (2105) 
15 5.94
19 5.75
26 1.59
27 13.2
28 2.33
29 15.7
30 1.19
31 16.52
33 1.34
39 1.33
41 1.44
42 2.47
43 18.09
44 6.57
45 99.99
46 2.32
57 1.63
61 5.38

$$$$

     RDKit          2D

  6  5  0  0  0  0  0  0  0  0999 V2000
   -0.0000   -0.0000    0.0000 C   0  0  0  0  0  0  0  0  0  0  0  0
   -1.2990    3.7500    0.0000 C   0  0  0  0  0  0  0  0  0  0  0  0
   -0.0000    1.5000    0.0000 C   0  0  0  0  0  0  0  0  0  0  0  0
   -1.2990    2.2500    0.0000 C   0  0  0  0  0  0  0  0  0  0  0  0
    1.2990    2.2500    0.0000 O   0  0  0  0  0  0  0  0  0  0  0  0
   -2.5981    1.5000    0.0000 O   0  0  0  0  0  0  0  0  0  0  0  0
  3  1  1  0
  4  2  1  0
  4  3  1  0
  5  3  1  0
  6  4  2  0
M  END
>  <NAME>  (2106) 
ACETOIN

>  <SYNONYMS>  (2106) 


>  <SPECTRUM TYPE>  (2106) 
MS1

>  <INSTRUMENT TYPE>  (2106) 
EI-B

>  <INSTRUMENT>  (2106) 
HITACHI M-80B

>  <ION MODE>  (2106) 
P

>  <INCHIKEY>  (2106) 
ROWKJAVDOGWPAT-UHFFFAOYSA-N

>  <FORMULA>  (2106) 
C4H8O2

>  <EXACT MASS>  (2106) 
88.052429496

>  <MW>  (2106) 
88

>  <ID>  (2106) 
JP009143

>  <CONTRIBUTOR>  (2106) 
University of Tokyo Team, {Faculty of Engineering, University of Tokyo

>  <COMMENT>  (2106) 
SMILES=CC(O)C(C)=O
InChI=InChI=1S/C4H8O2/c1-3(5)4(2)6/h3,5H,1-2H3
computed SMILES=O=C(C)C(O)C
accession=JP009143
date=2016.01.19 (Created 2008.10.21, modified 2011.05.06)
author=SODA AROMATIC CO., LTD.
license=CC BY-NC-SA
exact mass=88.05243
ionization energy=70 eV
ion type=[M]+*
computed spectral entropy=1.8500515962114863
computed normalized entropy=0.6400739251472954
SPLASH=splash10-0005-9000000000-62904abc1fc33ec40dfa
submitter=submitter = University of Tokyo Team (Faculty of Engineering, University of Tokyo)
MoNA Rating=3.75

>  <NUM PEAKS>  (2106) 
18

>  <MASS SPECTRAL PEAKS>  (2106) 
14 3.37
15 14.38
19 6.6
26 2.8
27 13.43
28 1.36
29 11.99
30 1.06
31 1.3
39 1
41 1.38
42 7.43
43 71.49
44 2.92
45 99.99
46 2.09
73 1.46
88 7.22

$$$$

     RDKit          2D

 10  9  0  0  0  0  0  0  0  0999 V2000
    1.0514   -0.9240    0.0000 C   0  0  0  0  0  0  0  0  0  0  0  0
   -0.4486    1.6740    0.0000 C   0  0  0  0  0  0  0  0  0  0  0  0
    4.9486    1.3260    0.0000 C   0  0  0  0  0  0  0  0  0  0  0  0
    5.4976    3.3750    0.0000 C   0  0  0  0  0  0  0  0  0  0  0  0
    1.6005    1.1250    0.0000 C   0  0  0  0  0  0  0  0  0  0  0  0
    2.8995    1.8750    0.0000 C   0  0  0  0  0  0  0  0  0  0  0  0
    0.3014    0.3750    0.0000 C   0  0  0  0  0  0  0  0  0  0  0  0
    4.1986    2.6250    0.0000 C   0  0  0  0  0  0  0  0  0  0  0  0
   -0.9976   -0.3750    0.0000 O   0  0  0  0  0  0  0  0  0  0  0  0
    3.4486    3.9240    0.0000 O   0  0  0  0  0  0  0  0  0  0  0  0
  6  5  3  0
  7  1  1  0
  7  2  1  0
  7  5  1  0
  8  3  1  0
  8  4  1  0
  8  6  1  0
  9  7  1  0
 10  8  1  0
M  END
>  <NAME>  (2107) 
2,5-DIMETHYL-3-HEXYN-2,5-DIOL

>  <SYNONYMS>  (2107) 


>  <SPECTRUM TYPE>  (2107) 
MS1

>  <INSTRUMENT TYPE>  (2107) 
EI-B

>  <INSTRUMENT>  (2107) 
HITACHI M-80B

>  <ION MODE>  (2107) 
P

>  <INCHIKEY>  (2107) 
IHJUECRFYCQBMW-UHFFFAOYSA-N

>  <FORMULA>  (2107) 
C8H14O2

>  <EXACT MASS>  (2107) 
142.099379688

>  <MW>  (2107) 
142

>  <ID>  (2107) 
JP009142

>  <CONTRIBUTOR>  (2107) 
University of Tokyo Team, {Faculty of Engineering, University of Tokyo

>  <COMMENT>  (2107) 
SMILES=CC(C)(O)C#CC(C)(C)O
InChI=InChI=1S/C8H14O2/c1-7(2,9)5-6-8(3,4)10/h9-10H,1-4H3
computed SMILES=OC(C#CC(O)(C)C)(C)C
accession=JP009142
date=2016.01.19 (Created 2008.10.21, modified 2011.05.06)
author=SODA AROMATIC CO., LTD.
license=CC BY-NC-SA
exact mass=142.09938
ionization energy=70 eV
ion type=[M]+*
computed spectral entropy=2.619743550718503
computed normalized entropy=0.7368458742745527
SPLASH=splash10-052f-9300000000-96255c0d4ee6fbbf84ca
submitter=submitter = University of Tokyo Team (Faculty of Engineering, University of Tokyo)
MoNA Rating=3.75

>  <NUM PEAKS>  (2107) 
35

>  <MASS SPECTRAL PEAKS>  (2107) 
15 6.98
27 6.57
29 4.07
31 3.72
38 1.7
39 12.45
41 16.03
42 2.5
43 99.99
44 2.77
50 1.67
51 4.49
52 1.19
53 9.71
54 1.11
55 5.8
56 3.15
57 2.2
59 9.27
65 3.87
66 2.37
67 6.57
68 1
69 12.37
77 2.05
79 6.54
81 49.73
82 4.47
83 1.78
95 1.59
109 81.02
110 6.82
111 1.9
127 20.24
128 1.18

$$$$

     RDKit          2D

  9  8  0  0  0  0  0  0  0  0999 V2000
    0.9926    2.4721    0.0000 C   0  0  0  0  0  0  0  0  0  0  0  0
   -4.2035    2.4721    0.0000 C   0  0  0  0  0  0  0  0  0  0  0  0
   -0.3064    3.2221    0.0000 C   0  0  0  0  0  0  0  0  0  0  0  0
   -2.9045    3.2221    0.0000 C   0  0  0  0  0  0  0  0  0  0  0  0
   -2.5697    1.3231    0.0000 C   0  0  0  0  0  0  0  0  0  0  0  0
   -0.6413    1.3231    0.0000 C   0  0  0  0  0  0  0  0  0  0  0  0
   -1.6055    2.4721    0.0000 C   0  0  0  0  0  0  0  0  0  0  0  0
   -4.0469    1.5836    0.0000 O   0  0  0  0  0  0  0  0  0  0  0  0
    0.8359    1.5836    0.0000 O   0  0  0  0  0  0  0  0  0  0  0  0
  3  1  1  0
  4  2  1  0
  7  3  1  0
  7  4  1  0
  7  5  1  0
  7  6  1  0
  8  5  1  0
  9  6  1  0
M  END
>  <NAME>  (2108) 
2,2-DIETHYL-1,3-PROPANEDIOL

>  <SYNONYMS>  (2108) 


>  <SPECTRUM TYPE>  (2108) 
MS1

>  <INSTRUMENT TYPE>  (2108) 
EI-B

>  <INSTRUMENT>  (2108) 
HITACHI M-80B

>  <ION MODE>  (2108) 
P

>  <INCHIKEY>  (2108) 
XRVCFZPJAHWYTB-UHFFFAOYSA-N

>  <FORMULA>  (2108) 
C7H16O2

>  <EXACT MASS>  (2108) 
132.115029752

>  <MW>  (2108) 
132

>  <ID>  (2108) 
JP009141

>  <CONTRIBUTOR>  (2108) 
University of Tokyo Team, {Faculty of Engineering, University of Tokyo

>  <COMMENT>  (2108) 
SMILES=CCC(CC)(CO)CO
InChI=InChI=1S/C7H16O2/c1-3-7(4-2,5-8)6-9/h8-9H,3-6H2,1-2H3
computed SMILES=OCC(CO)(CC)CC
accession=JP009141
date=2016.01.19 (Created 2008.10.21, modified 2011.05.06)
author=SODA AROMATIC CO., LTD.
license=CC BY-NC-SA
exact mass=132.11503
ionization energy=70 eV
ion type=[M]+*
computed spectral entropy=2.8685179619313983
computed normalized entropy=0.8068177608269703
SPLASH=splash10-0a59-9000000000-26466a90f5874f1b1bac
submitter=submitter = University of Tokyo Team (Faculty of Engineering, University of Tokyo)
MoNA Rating=3.75

>  <NUM PEAKS>  (2108) 
35

>  <MASS SPECTRAL PEAKS>  (2108) 
15 2.14
19 1.08
26 1.82
27 20.66
28 1.94
29 33.52
30 1.84
31 48.57
39 14.33
40 2.59
41 58.42
42 7.76
43 28.04
44 2.29
45 21.27
51 1.82
53 7.23
54 3.79
55 76.65
56 11.23
57 20.14
59 99.99
60 3.23
67 5.14
68 1.64
69 27.75
70 3.08
71 9.65
73 1
82 1.81
83 21.86
84 87.91
85 14.77
100 3.21
101 15.21

$$$$

     RDKit          2D

  6  5  0  0  0  0  0  0  0  0999 V2000
   -0.0000   -0.0000    0.0000 C   0  0  0  0  0  0  0  0  0  0  0  0
   -1.2990    3.7500    0.0000 C   0  0  0  0  0  0  0  0  0  0  0  0
   -0.0000    1.5000    0.0000 C   0  0  0  0  0  0  0  0  0  0  0  0
   -1.2990    2.2500    0.0000 C   0  0  0  0  0  0  0  0  0  0  0  0
    1.2990    2.2500    0.0000 O   0  0  0  0  0  0  0  0  0  0  0  0
   -2.5981    1.5000    0.0000 O   0  0  0  0  0  0  0  0  0  0  0  0
  3  1  1  0
  4  2  1  0
  4  3  1  0
  5  3  1  0
  6  4  1  0
M  END
>  <NAME>  (2109) 
2,3-BUTANEDIOL

>  <SYNONYMS>  (2109) 


>  <SPECTRUM TYPE>  (2109) 
MS1

>  <INSTRUMENT TYPE>  (2109) 
EI-B

>  <INSTRUMENT>  (2109) 
HITACHI M-80B

>  <ION MODE>  (2109) 
P

>  <INCHIKEY>  (2109) 
OWBTYPJTUOEWEK-UHFFFAOYSA-N

>  <FORMULA>  (2109) 
C4H10O2

>  <EXACT MASS>  (2109) 
90.06807956

>  <MW>  (2109) 
90

>  <ID>  (2109) 
JP009140

>  <CONTRIBUTOR>  (2109) 
University of Tokyo Team, {Faculty of Engineering, University of Tokyo

>  <COMMENT>  (2109) 
SMILES=CC(O)C(C)O
InChI=InChI=1S/C4H10O2/c1-3(5)4(2)6/h3-6H,1-2H3
computed SMILES=OC(C)C(O)C
accession=JP009140
date=2016.01.19 (Created 2008.10.21, modified 2011.05.06)
author=SODA AROMATIC CO., LTD.
license=CC BY-NC-SA
exact mass=90.06808
ionization energy=70 eV
ion type=[M]+*
computed spectral entropy=1.7552067062792973
computed normalized entropy=0.6330570027210485
SPLASH=splash10-0002-9000000000-e110e7ce89cc64b78ca2
submitter=submitter = University of Tokyo Team (Faculty of Engineering, University of Tokyo)
MoNA Rating=3.75

>  <NUM PEAKS>  (2109) 
16

>  <MASS SPECTRAL PEAKS>  (2109) 
15 3.11
19 5.11
26 1.12
27 9.78
28 4.43
29 10.68
31 2.18
42 1.53
43 13.33
44 4.6
45 99.99
46 3.21
47 4.98
55 1.62
57 8.81
75 2.15

$$$$

     RDKit          2D

  6  5  0  0  0  0  0  0  0  0999 V2000
    0.0000    0.0000    0.0000 C   0  0  0  0  0  0  0  0  0  0  0  0
   -1.2990    2.2500    0.0000 C   0  0  0  0  0  0  0  0  0  0  0  0
   -1.2990    3.7500    0.0000 C   0  0  0  0  0  0  0  0  0  0  0  0
    0.0000    1.5000    0.0000 C   0  0  0  0  0  0  0  0  0  0  0  0
   -2.5981    4.5000    0.0000 O   0  0  0  0  0  0  0  0  0  0  0  0
    1.2990    2.2500    0.0000 O   0  0  0  0  0  0  0  0  0  0  0  0
  3  2  1  0
  4  1  1  0
  4  2  1  0
  5  3  1  0
  6  4  1  0
M  END
>  <NAME>  (2110) 
1,3-BUTANEDIOL

>  <SYNONYMS>  (2110) 


>  <SPECTRUM TYPE>  (2110) 
MS1

>  <INSTRUMENT TYPE>  (2110) 
EI-B

>  <INSTRUMENT>  (2110) 
HITACHI M-80B

>  <ION MODE>  (2110) 
P

>  <INCHIKEY>  (2110) 
PUPZLCDOIYMWBV-UHFFFAOYSA-N

>  <FORMULA>  (2110) 
C4H10O2

>  <EXACT MASS>  (2110) 
90.06807956

>  <MW>  (2110) 
90

>  <ID>  (2110) 
JP009139

>  <CONTRIBUTOR>  (2110) 
University of Tokyo Team, {Faculty of Engineering, University of Tokyo

>  <COMMENT>  (2110) 
SMILES=OCCC(C)O
InChI=InChI=1S/C4H10O2/c1-4(6)2-3-5/h4-6H,2-3H2,1H3
computed SMILES=OCCC(O)C
accession=JP009139
date=2016.01.19 (Created 2008.10.21, modified 2011.05.06)
author=SODA AROMATIC CO., LTD.
license=CC BY-NC-SA
exact mass=90.06808
ionization energy=70 eV
ion type=[M]+*
computed spectral entropy=2.55745518992647
computed normalized entropy=0.8156465978900275
SPLASH=splash10-002g-9000000000-3c919c2dc91ea11f9690
submitter=submitter = University of Tokyo Team (Faculty of Engineering, University of Tokyo)
MoNA Rating=3.75

>  <NUM PEAKS>  (2110) 
23

>  <MASS SPECTRAL PEAKS>  (2110) 
15 7.2
19 20.71
26 3.11
27 23.27
28 25.94
29 26.87
30 1.13
31 30.49
39 8.41
40 1.56
41 12.79
42 14.35
43 99.99
44 21.83
45 90.33
46 5.21
47 1.82
55 4.82
57 24.89
71 1.86
72 29.22
73 1.66
75 8.36

$$$$

     RDKit          2D

  4  3  0  0  0  0  0  0  0  0999 V2000
    0.9743    0.5625    0.0000 C   0  0  0  0  0  0  0  0  0  0  0  0
   -1.6238    0.5625    0.0000 C   0  0  0  0  0  0  0  0  0  0  0  0
   -0.3248    2.8125    0.0000 O   0  0  0  0  0  0  0  0  0  0  0  0
   -0.3248    1.3125    0.0000 S   0  0  0  0  0  0  0  0  0  0  0  0
  4  1  1  0
  4  2  1  0
  4  3  2  0
M  END
>  <NAME>  (2111) 
DIMETHYL SULFOXIDE

>  <SYNONYMS>  (2111) 


>  <SPECTRUM TYPE>  (2111) 
MS1

>  <INSTRUMENT TYPE>  (2111) 
EI-B

>  <INSTRUMENT>  (2111) 
HITACHI M-80B

>  <ION MODE>  (2111) 
P

>  <INCHIKEY>  (2111) 
IAZDPXIOMUYVGZ-UHFFFAOYSA-N

>  <FORMULA>  (2111) 
C2H6OS

>  <EXACT MASS>  (2111) 
78.013935812

>  <MW>  (2111) 
78

>  <ID>  (2111) 
JP009138

>  <CONTRIBUTOR>  (2111) 
University of Tokyo Team, {Faculty of Engineering, University of Tokyo

>  <COMMENT>  (2111) 
SMILES=CS(C)=O
InChI=InChI=1S/C2H6OS/c1-4(2)3/h1-2H3
computed SMILES=O=S(C)C
accession=JP009138
date=2016.01.19 (Created 2008.10.21, modified 2011.05.06)
author=SODA AROMATIC CO., LTD.
license=CC BY-NC-SA
exact mass=78.01394
ionization energy=70 eV
ion type=[M]+*
computed spectral entropy=2.375246192173003
computed normalized entropy=0.73791171868839
SPLASH=splash10-03fs-9000000000-378b716bc39417224511
submitter=submitter = University of Tokyo Team (Faculty of Engineering, University of Tokyo)
MoNA Rating=3.75

>  <NUM PEAKS>  (2111) 
25

>  <MASS SPECTRAL PEAKS>  (2111) 
13 1.06
14 3.46
15 20.03
27 6.56
29 10.26
31 7.88
32 1.79
33 3.58
34 3.79
35 5.32
44 2.01
45 41.21
46 14.8
47 9.93
48 10.75
49 1.38
58 1.07
61 15.6
62 4.51
63 99.99
64 1.9
65 3.88
78 71.45
79 1.98
80 2.88

$$$$

     RDKit          2D

  8  7  0  0  0  0  0  0  0  0999 V2000
   -6.4952    4.5000    0.0000 C   0  0  0  0  0  0  0  0  0  0  0  0
    2.5981    3.7500    0.0000 C   0  0  0  0  0  0  0  0  0  0  0  0
   -5.1962    3.7500    0.0000 C   0  0  0  0  0  0  0  0  0  0  0  0
    1.2990    4.5000    0.0000 C   0  0  0  0  0  0  0  0  0  0  0  0
   -3.8971    4.5000    0.0000 C   0  0  0  0  0  0  0  0  0  0  0  0
    0.0000    3.7500    0.0000 C   0  0  0  0  0  0  0  0  0  0  0  0
   -2.5981    3.7500    0.0000 S   0  0  0  0  0  0  0  0  0  0  0  0
   -1.2990    4.5000    0.0000 S   0  0  0  0  0  0  0  0  0  0  0  0
  3  1  1  0
  4  2  1  0
  5  3  1  0
  6  4  1  0
  7  5  1  0
  8  6  1  0
  8  7  1  0
M  END
>  <NAME>  (2112) 
DIPROPYL DISULFIDE

>  <SYNONYMS>  (2112) 


>  <SPECTRUM TYPE>  (2112) 
MS1

>  <INSTRUMENT TYPE>  (2112) 
EI-B

>  <INSTRUMENT>  (2112) 
HITACHI M-80B

>  <ION MODE>  (2112) 
P

>  <INCHIKEY>  (2112) 
ALVPFGSHPUPROW-UHFFFAOYSA-N

>  <FORMULA>  (2112) 
C6H14S2

>  <EXACT MASS>  (2112) 
150.053692448

>  <MW>  (2112) 
150

>  <ID>  (2112) 
JP009137

>  <CONTRIBUTOR>  (2112) 
University of Tokyo Team, {Faculty of Engineering, University of Tokyo

>  <COMMENT>  (2112) 
SMILES=CCCSSCCC
InChI=InChI=1S/C6H14S2/c1-3-5-7-8-6-4-2/h3-6H2,1-2H3
computed SMILES=S(SCCC)CCC
accession=JP009137
date=2016.01.19 (Created 2008.10.21, modified 2011.05.06)
author=SODA AROMATIC CO., LTD.
license=CC BY-NC-SA
exact mass=150.05369
ionization energy=70 eV
ion type=[M]+*
computed spectral entropy=2.3105801957312946
computed normalized entropy=0.7091810106812925
SPLASH=splash10-0006-9300000000-338033b829d5247885cd
submitter=submitter = University of Tokyo Team (Faculty of Engineering, University of Tokyo)
MoNA Rating=3.75

>  <NUM PEAKS>  (2112) 
26

>  <MASS SPECTRAL PEAKS>  (2112) 
15 1.02
26 1.11
27 20.1
29 1.43
39 11.24
41 31.64
42 2.54
43 99.99
44 1.77
45 6.99
46 4.14
47 5.36
58 1.3
59 1.31
64 1.99
66 7.02
73 3.96
74 4.07
75 1.53
79 3.05
108 28.44
109 1.34
110 2.12
150 35.69
151 2.59
152 2.98

$$$$

     RDKit          2D

  8  7  0  0  0  0  0  0  0  0999 V2000
   -6.4952    4.5000    0.0000 C   0  0  0  0  0  0  0  0  0  0  0  0
    2.5981    3.7500    0.0000 C   0  0  0  0  0  0  0  0  0  0  0  0
   -5.1962    3.7500    0.0000 C   0  0  0  0  0  0  0  0  0  0  0  0
    1.2990    4.5000    0.0000 C   0  0  0  0  0  0  0  0  0  0  0  0
   -3.8971    4.5000    0.0000 C   0  0  0  0  0  0  0  0  0  0  0  0
    0.0000    3.7500    0.0000 C   0  0  0  0  0  0  0  0  0  0  0  0
   -2.5981    3.7500    0.0000 S   0  0  0  0  0  0  0  0  0  0  0  0
   -1.2990    4.5000    0.0000 S   0  0  0  0  0  0  0  0  0  0  0  0
  3  1  2  0
  4  2  2  0
  5  3  1  0
  6  4  1  0
  7  5  1  0
  8  6  1  0
  8  7  1  0
M  END
>  <NAME>  (2113) 
DIALLYL DISULFIDE

>  <SYNONYMS>  (2113) 


>  <SPECTRUM TYPE>  (2113) 
MS1

>  <INSTRUMENT TYPE>  (2113) 
EI-B

>  <INSTRUMENT>  (2113) 
HITACHI M-80B

>  <ION MODE>  (2113) 
P

>  <INCHIKEY>  (2113) 
PFRGXCVKLLPLIP-UHFFFAOYSA-N

>  <FORMULA>  (2113) 
C6H10S2

>  <EXACT MASS>  (2113) 
146.02239232

>  <MW>  (2113) 
146

>  <ID>  (2113) 
JP009136

>  <CONTRIBUTOR>  (2113) 
University of Tokyo Team, {Faculty of Engineering, University of Tokyo

>  <COMMENT>  (2113) 
SMILES=C=CCSSCC=C
InChI=InChI=1S/C6H10S2/c1-3-5-7-8-6-4-2/h3-4H,1-2,5-6H2
computed SMILES=S(SCC=C)CC=C
accession=JP009136
date=2016.01.19 (Created 2008.10.21, modified 2011.05.06)
author=SODA AROMATIC CO., LTD.
license=CC BY-NC-SA
exact mass=146.02239
ionization energy=70 eV
ion type=[M]+*
computed spectral entropy=2.317963736161015
computed normalized entropy=0.6883754363127418
SPLASH=splash10-0006-9000000000-4339fab2bebf0f0edead
submitter=submitter = University of Tokyo Team (Faculty of Engineering, University of Tokyo)
MoNA Rating=3.75

>  <NUM PEAKS>  (2113) 
29

>  <MASS SPECTRAL PEAKS>  (2113) 
15 1.86
26 1.05
27 4.88
37 1.44
38 4.04
39 42.81
40 3.14
41 99.99
42 2.88
45 20.31
46 3.59
47 5.27
53 1.09
58 1.1
61 1.07
64 4.03
69 1.33
71 4.43
72 3.18
73 5.82
74 1.21
79 2.06
81 12.49
85 2.74
103 3.07
104 1.32
105 5.93
113 2.54
146 9.53

$$$$

     RDKit          2D

  4  3  0  0  0  0  0  0  0  0999 V2000
   -2.5981    2.2500    0.0000 C   0  0  0  0  0  0  0  0  0  0  0  0
    1.2990    1.5000    0.0000 C   0  0  0  0  0  0  0  0  0  0  0  0
   -1.2990    1.5000    0.0000 S   0  0  0  0  0  0  0  0  0  0  0  0
    0.0000    2.2500    0.0000 S   0  0  0  0  0  0  0  0  0  0  0  0
  3  1  1  0
  4  2  1  0
  4  3  1  0
M  END
>  <NAME>  (2114) 
DIMETHYL DISULFIDE

>  <SYNONYMS>  (2114) 


>  <SPECTRUM TYPE>  (2114) 
MS1

>  <INSTRUMENT TYPE>  (2114) 
EI-B

>  <INSTRUMENT>  (2114) 
HITACHI M-80B

>  <ION MODE>  (2114) 
P

>  <INCHIKEY>  (2114) 
WQOXQRCZOLPYPM-UHFFFAOYSA-N

>  <FORMULA>  (2114) 
C2H6S2

>  <EXACT MASS>  (2114) 
93.991092192

>  <MW>  (2114) 
94

>  <ID>  (2114) 
JP009135

>  <CONTRIBUTOR>  (2114) 
University of Tokyo Team, {Faculty of Engineering, University of Tokyo

>  <COMMENT>  (2114) 
SMILES=CSSC
InChI=InChI=1S/C2H6S2/c1-3-4-2/h1-2H3
computed SMILES=S(SC)C
accession=JP009135
date=2016.01.19 (Created 2008.10.21, modified 2011.05.06)
author=SODA AROMATIC CO., LTD.
license=CC BY-NC-SA
exact mass=93.99109
ionization energy=70 eV
ion type=[M]+*
computed spectral entropy=2.2468970974103777
computed normalized entropy=0.763098543834135
SPLASH=splash10-0005-9000000000-61860690131d526ccbcd
submitter=submitter = University of Tokyo Team (Faculty of Engineering, University of Tokyo)
MoNA Rating=3.75

>  <NUM PEAKS>  (2114) 
19

>  <MASS SPECTRAL PEAKS>  (2114) 
14 2.59
15 9.27
32 2.97
44 3.75
45 67.08
46 35.01
47 24.03
48 11.29
49 3.7
61 14.06
64 12.77
66 1.13
78 3.01
79 58.38
80 1.74
81 5.16
94 99.99
95 4.02
96 9.42

$$$$

     RDKit          2D

 10 10  0  0  0  0  0  0  0  0999 V2000
   -1.6300    1.2517    0.0000 C   0  0  0  0  0  0  0  0  0  0  0  0
   -0.8297   -1.2200    0.0000 C   0  0  0  0  0  0  0  0  0  0  0  0
    5.4215    1.5862    0.0000 C   0  0  0  0  0  0  0  0  0  0  0  0
    3.9215    1.5862    0.0000 C   0  0  0  0  0  0  0  0  0  0  0  0
    5.8815    0.1662    0.0000 C   0  0  0  0  0  0  0  0  0  0  0  0
    2.0244   -0.2959    0.0000 C   0  0  0  0  0  0  0  0  0  0  0  0
   -0.5163    0.2469    0.0000 C   0  0  0  0  0  0  0  0  0  0  0  0
    3.4515    0.1662    0.0000 C   0  0  0  0  0  0  0  0  0  0  0  0
    4.6715   -0.7138    0.0000 O   0  0  0  0  0  0  0  0  0  0  0  0
    0.9107    0.7090    0.0000 S   0  0  0  0  0  0  0  0  0  0  0  0
  4  3  1  0
  5  3  2  0
  7  1  1  0
  7  2  1  0
  8  4  2  0
  8  6  1  0
  9  5  1  0
  9  8  1  0
 10  6  1  0
 10  7  1  0
M  END
>  <NAME>  (2115) 
FURFURYL ISOPROPYL SULFIDE

>  <SYNONYMS>  (2115) 


>  <SPECTRUM TYPE>  (2115) 
MS1

>  <INSTRUMENT TYPE>  (2115) 
EI-B

>  <INSTRUMENT>  (2115) 
HITACHI M-80B

>  <ION MODE>  (2115) 
P

>  <INCHIKEY>  (2115) 
WCHRNAKORAINOJ-UHFFFAOYSA-N

>  <FORMULA>  (2115) 
C8H12OS

>  <EXACT MASS>  (2115) 
156.060886004

>  <MW>  (2115) 
156

>  <ID>  (2115) 
JP009134

>  <CONTRIBUTOR>  (2115) 
University of Tokyo Team, {Faculty of Engineering, University of Tokyo

>  <COMMENT>  (2115) 
SMILES=CC(C)SCc(c1)occ1
InChI=InChI=1S/C8H12OS/c1-7(2)10-6-8-4-3-5-9-8/h3-5,7H,6H2,1-2H3
computed SMILES=O1C=CC=C1CSC(C)C
accession=JP009134
date=2016.01.19 (Created 2008.10.21, modified 2011.05.06)
author=SODA AROMATIC CO., LTD.
license=CC BY-NC-SA
exact mass=156.06089
ionization energy=70 eV
ion type=[M]+*
computed spectral entropy=2.0335805168648737
computed normalized entropy=0.6679472917222141
SPLASH=splash10-001i-9100000000-00f793439471b2cd53b7
submitter=submitter = University of Tokyo Team (Faculty of Engineering, University of Tokyo)
MoNA Rating=3.75

>  <NUM PEAKS>  (2115) 
21

>  <MASS SPECTRAL PEAKS>  (2115) 
26 1.1
27 11.07
29 1.3
38 1.22
39 7.57
41 8.25
43 5.45
45 7.53
47 1.8
50 1.55
51 3.84
52 2.36
53 14.3
58 1.66
59 3.92
81 99.99
82 6.4
85 2.16
113 1.57
156 18.85
157 1.82

$$$$

     RDKit          2D

  9  9  0  0  0  0  0  0  0  0999 V2000
   -3.5724    2.0075    0.0000 C   0  0  0  0  0  0  0  0  0  0  0  0
    2.9228   -0.2425    0.0000 C   0  0  0  0  0  0  0  0  0  0  0  0
    2.9233    1.2583    0.0000 C   0  0  0  0  0  0  0  0  0  0  0  0
    1.6233   -0.9933    0.0000 C   0  0  0  0  0  0  0  0  0  0  0  0
    1.6243    2.0083    0.0000 C   0  0  0  0  0  0  0  0  0  0  0  0
    0.3243   -0.2433    0.0000 C   0  0  0  0  0  0  0  0  0  0  0  0
   -0.9743    2.0075    0.0000 C   0  0  0  0  0  0  0  0  0  0  0  0
    0.3248    1.2575    0.0000 C   0  0  0  0  0  0  0  0  0  0  0  0
   -2.2733    1.2575    0.0000 S   0  0  0  0  0  0  0  0  0  0  0  0
  3  2  2  0
  4  2  1  0
  5  3  1  0
  6  4  2  0
  8  5  2  0
  8  6  1  0
  8  7  1  0
  9  1  1  0
  9  7  1  0
M  END
>  <NAME>  (2116) 
BENZYL METHYL SULFIDE

>  <SYNONYMS>  (2116) 


>  <SPECTRUM TYPE>  (2116) 
MS1

>  <INSTRUMENT TYPE>  (2116) 
EI-B

>  <INSTRUMENT>  (2116) 
HITACHI M-80B

>  <ION MODE>  (2116) 
P

>  <INCHIKEY>  (2116) 
OFQPKKGMNWASPN-UHFFFAOYSA-N

>  <FORMULA>  (2116) 
C8H10S

>  <EXACT MASS>  (2116) 
138.05032132

>  <MW>  (2116) 
138

>  <ID>  (2116) 
JP009133

>  <CONTRIBUTOR>  (2116) 
University of Tokyo Team, {Faculty of Engineering, University of Tokyo

>  <COMMENT>  (2116) 
SMILES=CSCc(c1)cccc1
InChI=InChI=1S/C8H10S/c1-9-7-8-5-3-2-4-6-8/h2-6H,7H2,1H3
computed SMILES=S(C)CC=1C=CC=CC1
accession=JP009133
date=2016.01.19 (Created 2008.10.21, modified 2011.05.06)
author=SODA AROMATIC CO., LTD.
license=CC BY-NC-SA
exact mass=138.05032
ionization energy=70 eV
ion type=[M]+*
computed spectral entropy=2.2553651544360065
computed normalized entropy=0.684307277978316
SPLASH=splash10-0006-9100000000-55d88a5b25c7e5156841
submitter=submitter = University of Tokyo Team (Faculty of Engineering, University of Tokyo)
MoNA Rating=3.75

>  <NUM PEAKS>  (2116) 
27

>  <MASS SPECTRAL PEAKS>  (2116) 
15 1.36
27 1.48
38 1.79
39 13.73
41 1.79
45 13.62
46 2.19
47 3.77
50 3.56
51 7
52 1.63
61 1.41
62 2.33
63 7.6
64 1.79
65 16.74
69 1.04
77 3.24
78 1.07
89 4.6
90 1.55
91 99.99
92 7.83
121 2.3
123 1.18
138 25.19
139 1.94

$$$$

     RDKit          2D

  8  8  0  0  0  0  0  0  0  0999 V2000
    3.5281    0.5404    0.0000 C   0  0  0  0  0  0  0  0  0  0  0  0
   -1.6700   -0.9600    0.0000 C   0  0  0  0  0  0  0  0  0  0  0  0
   -0.3700   -1.7100    0.0000 C   0  0  0  0  0  0  0  0  0  0  0  0
   -1.6700    0.5400    0.0000 C   0  0  0  0  0  0  0  0  0  0  0  0
    0.9300   -0.9600    0.0000 C   0  0  0  0  0  0  0  0  0  0  0  0
   -0.3700    1.2900    0.0000 C   0  0  0  0  0  0  0  0  0  0  0  0
    0.9300    0.5400    0.0000 C   0  0  0  0  0  0  0  0  0  0  0  0
    2.2289    1.2902    0.0000 S   0  0  0  0  0  0  0  0  0  0  0  0
  3  2  2  0
  4  2  1  0
  5  3  1  0
  6  4  2  0
  7  5  2  0
  7  6  1  0
  8  1  1  0
  8  7  1  0
M  END
>  <NAME>  (2117) 
METHYL PHENYL SULFIDE

>  <SYNONYMS>  (2117) 


>  <SPECTRUM TYPE>  (2117) 
MS1

>  <INSTRUMENT TYPE>  (2117) 
EI-B

>  <INSTRUMENT>  (2117) 
HITACHI M-80B

>  <ION MODE>  (2117) 
P

>  <INCHIKEY>  (2117) 
HNKJADCVZUBCPG-UHFFFAOYSA-N

>  <FORMULA>  (2117) 
C7H8S

>  <EXACT MASS>  (2117) 
124.034671256

>  <MW>  (2117) 
124

>  <ID>  (2117) 
JP009132

>  <CONTRIBUTOR>  (2117) 
University of Tokyo Team, {Faculty of Engineering, University of Tokyo

>  <COMMENT>  (2117) 
SMILES=CSc(c1)cccc1
InChI=InChI=1S/C7H8S/c1-8-7-5-3-2-4-6-7/h2-6H,1H3
computed SMILES=S(C=1C=CC=CC1)C
accession=JP009132
date=2016.01.19 (Created 2008.10.21, modified 2011.05.06)
author=SODA AROMATIC CO., LTD.
license=CC BY-NC-SA
exact mass=124.03467
ionization energy=70 eV
ion type=[M]+*
computed spectral entropy=3.011395511498767
computed normalized entropy=0.8006475111318208
SPLASH=splash10-0fk9-9500000000-e5cde2928e0b7e33c1cc
submitter=submitter = University of Tokyo Team (Faculty of Engineering, University of Tokyo)
MoNA Rating=3.75

>  <NUM PEAKS>  (2117) 
43

>  <MASS SPECTRAL PEAKS>  (2117) 
15 5.68
26 1.26
27 3.11
37 1.85
38 4.41
39 19.29
45 28.64
46 7.9
47 5.09
49 1.39
50 18.14
51 34.82
52 3.18
57 2.3
58 2.04
61 1.25
62 6.11
63 6.12
65 22.52
66 1.38
69 14.67
70 1.15
71 1.48
73 1.16
74 6.23
75 2.84
76 1.81
77 12.7
78 42.96
79 6.05
81 2.1
82 5.12
83 1.61
91 31.68
92 2.02
108 5.64
109 46.38
110 3.12
111 1.97
123 8.22
124 99.99
125 8.31
126 4.82

$$$$

     RDKit          2D

 17 16  0  0  0  0  0  0  0  0999 V2000
  -15.5885    9.0000    0.0000 C   0  0  0  0  0  0  0  0  0  0  0  0
    5.1962    9.0000    0.0000 C   0  0  0  0  0  0  0  0  0  0  0  0
  -14.2894    8.2500    0.0000 C   0  0  0  0  0  0  0  0  0  0  0  0
    3.8971    8.2500    0.0000 C   0  0  0  0  0  0  0  0  0  0  0  0
  -12.9904    9.0000    0.0000 C   0  0  0  0  0  0  0  0  0  0  0  0
    2.5981    9.0000    0.0000 C   0  0  0  0  0  0  0  0  0  0  0  0
  -11.6913    8.2500    0.0000 C   0  0  0  0  0  0  0  0  0  0  0  0
    1.2990    8.2500    0.0000 C   0  0  0  0  0  0  0  0  0  0  0  0
  -10.3923    9.0000    0.0000 C   0  0  0  0  0  0  0  0  0  0  0  0
    0.0000    9.0000    0.0000 C   0  0  0  0  0  0  0  0  0  0  0  0
   -9.0933    8.2500    0.0000 C   0  0  0  0  0  0  0  0  0  0  0  0
   -1.2990    8.2500    0.0000 C   0  0  0  0  0  0  0  0  0  0  0  0
   -7.7942    9.0000    0.0000 C   0  0  0  0  0  0  0  0  0  0  0  0
   -2.5981    9.0000    0.0000 C   0  0  0  0  0  0  0  0  0  0  0  0
   -6.4952    8.2500    0.0000 C   0  0  0  0  0  0  0  0  0  0  0  0
   -3.8971    8.2500    0.0000 C   0  0  0  0  0  0  0  0  0  0  0  0
   -5.1962    9.0000    0.0000 S   0  0  0  0  0  0  0  0  0  0  0  0
  3  1  1  0
  4  2  1  0
  5  3  1  0
  6  4  1  0
  7  5  1  0
  8  6  1  0
  9  7  1  0
 10  8  1  0
 11  9  1  0
 12 10  1  0
 13 11  1  0
 14 12  1  0
 15 13  1  0
 16 14  1  0
 17 15  1  0
 17 16  1  0
M  END
>  <NAME>  (2118) 
DIOCTYL SULFIDE

>  <SYNONYMS>  (2118) 


>  <SPECTRUM TYPE>  (2118) 
MS1

>  <INSTRUMENT TYPE>  (2118) 
EI-B

>  <INSTRUMENT>  (2118) 
HITACHI M-80B

>  <ION MODE>  (2118) 
P

>  <INCHIKEY>  (2118) 
LOXRGHGHQYWXJK-UHFFFAOYSA-N

>  <FORMULA>  (2118) 
C16H34S

>  <EXACT MASS>  (2118) 
258.23812208799995

>  <MW>  (2118) 
258

>  <ID>  (2118) 
JP009131

>  <CONTRIBUTOR>  (2118) 
University of Tokyo Team, {Faculty of Engineering, University of Tokyo

>  <COMMENT>  (2118) 
SMILES=CCCCCCCCSCCCCCCCC
InChI=InChI=1S/C16H34S/c1-3-5-7-9-11-13-15-17-16-14-12-10-8-6-4-2/h3-16H2,1-2H3
computed SMILES=S(CCCCCCCC)CCCCCCCC
accession=JP009131
date=2016.01.19 (Created 2008.10.21, modified 2011.05.06)
author=SODA AROMATIC CO., LTD.
license=CC BY-NC-SA
exact mass=258.23812
ionization energy=70 eV
ion type=[M]+*
computed spectral entropy=3.18849242762933
computed normalized entropy=0.7993244371021211
SPLASH=splash10-052f-9100000000-a02a38c940de11e6c89e
submitter=submitter = University of Tokyo Team (Faculty of Engineering, University of Tokyo)
MoNA Rating=3.75

>  <NUM PEAKS>  (2118) 
54

>  <MASS SPECTRAL PEAKS>  (2118) 
27 23.28
29 66.34
30 1.21
39 9.09
40 2.58
41 99.99
42 14.89
43 98.04
44 3.58
45 5.89
46 3.38
47 8.65
53 4.49
54 4.34
55 67.98
56 30.81
57 42.24
58 2.32
59 2.48
60 7.72
61 33.94
62 1.89
63 1.97
67 6.96
68 8.89
69 78.12
70 33.11
71 15.56
73 2.23
74 1.28
75 3.37
81 2.53
82 7
83 20.03
84 16.4
85 1.77
87 8.67
88 1.9
89 4.73
97 2.19
101 3.27
111 1.68
112 20.21
113 2
144 4.64
145 92.86
146 11.78
147 5.07
159 5.81
173 1.7
201 2.02
257 1.42
258 9.28
259 2.29

$$$$

     RDKit          2D

 10  9  0  0  0  0  0  0  0  0999 V2000
   -8.4437    5.6250    0.0000 C   0  0  0  0  0  0  0  0  0  0  0  0
    3.2476    4.8750    0.0000 C   0  0  0  0  0  0  0  0  0  0  0  0
   -7.1447    4.8750    0.0000 C   0  0  0  0  0  0  0  0  0  0  0  0
   -5.8457    5.6250    0.0000 C   0  0  0  0  0  0  0  0  0  0  0  0
   -4.5466    4.8750    0.0000 C   0  0  0  0  0  0  0  0  0  0  0  0
   -3.2476    5.6250    0.0000 C   0  0  0  0  0  0  0  0  0  0  0  0
   -1.9486    4.8750    0.0000 C   0  0  0  0  0  0  0  0  0  0  0  0
   -0.6495    5.6250    0.0000 C   0  0  0  0  0  0  0  0  0  0  0  0
    0.6495    4.8750    0.0000 C   0  0  0  0  0  0  0  0  0  0  0  0
    1.9486    5.6250    0.0000 S   0  0  0  0  0  0  0  0  0  0  0  0
  3  1  1  0
  4  3  1  0
  5  4  1  0
  6  5  1  0
  7  6  1  0
  8  7  1  0
  9  8  1  0
 10  2  1  0
 10  9  1  0
M  END
>  <NAME>  (2119) 
METHYL OCTYL SULFIDE

>  <SYNONYMS>  (2119) 


>  <SPECTRUM TYPE>  (2119) 
MS1

>  <INSTRUMENT TYPE>  (2119) 
EI-B

>  <INSTRUMENT>  (2119) 
HITACHI M-80B

>  <ION MODE>  (2119) 
P

>  <INCHIKEY>  (2119) 
AHCJTMBRROLNHV-UHFFFAOYSA-N

>  <FORMULA>  (2119) 
C9H20S

>  <EXACT MASS>  (2119) 
160.12857164

>  <MW>  (2119) 
160

>  <ID>  (2119) 
JP009130

>  <CONTRIBUTOR>  (2119) 
University of Tokyo Team, {Faculty of Engineering, University of Tokyo

>  <COMMENT>  (2119) 
SMILES=CCCCCCCCSC
InChI=InChI=1S/C9H20S/c1-3-4-5-6-7-8-9-10-2/h3-9H2,1-2H3
computed SMILES=S(C)CCCCCCCC
accession=JP009130
date=2016.01.19 (Created 2008.10.21, modified 2011.05.06)
author=SODA AROMATIC CO., LTD.
license=CC BY-NC-SA
exact mass=160.12857
ionization energy=70 eV
ion type=[M]+*
computed spectral entropy=3.4390356290275794
computed normalized entropy=0.8365704574395066
SPLASH=splash10-08fu-9100000000-e7b593934290979d6169
submitter=submitter = University of Tokyo Team (Faculty of Engineering, University of Tokyo)
MoNA Rating=3.75

>  <NUM PEAKS>  (2119) 
61

>  <MASS SPECTRAL PEAKS>  (2119) 
15 2.47
26 2.12
27 43.15
28 5.62
29 45.3
30 1.09
35 7.55
39 23.93
40 4.06
41 86.83
42 31.54
43 51.54
44 1.86
45 12.25
46 7.81
47 18.5
48 38.56
49 17.8
50 2.29
51 1.83
53 6.48
54 5.09
55 58.14
56 57.83
57 21.79
58 2.1
59 4.77
60 2.58
61 99.99
62 12.28
63 4.86
65 1.45
67 5.18
68 9.93
69 45.19
70 46.63
71 8.72
73 1.68
74 1.74
75 12.52
76 3.78
77 1.28
81 1.19
82 5.21
83 28.4
84 26.35
85 2.34
87 1.28
89 3.24
97 2.94
103 11.24
112 7.26
117 2
131 2.02
145 44.59
146 4.02
147 1.94
159 4.09
160 47.75
161 4.71
162 2.27

$$$$

     RDKit          2D

  9  8  0  0  0  0  0  0  0  0999 V2000
    2.0490    4.0981    0.0000 C   0  0  0  0  0  0  0  0  0  0  0  0
    2.0490    1.0981    0.0000 C   0  0  0  0  0  0  0  0  0  0  0  0
    3.5490    2.5981    0.0000 C   0  0  0  0  0  0  0  0  0  0  0  0
   -1.5000    2.0490    0.0000 C   0  0  0  0  0  0  0  0  0  0  0  0
   -0.9510    0.0000    0.0000 C   0  0  0  0  0  0  0  0  0  0  0  0
    1.0981    0.5490    0.0000 C   0  0  0  0  0  0  0  0  0  0  0  0
    2.0490    2.5981    0.0000 C   0  0  0  0  0  0  0  0  0  0  0  0
   -0.2010    1.2990    0.0000 C   0  0  0  0  0  0  0  0  0  0  0  0
    0.5490    2.5981    0.0000 S   0  0  0  0  0  0  0  0  0  0  0  0
  7  1  1  0
  7  2  1  0
  7  3  1  0
  8  4  1  0
  8  5  1  0
  8  6  1  0
  9  7  1  0
  9  8  1  0
M  END
>  <NAME>  (2120) 
DI-TERT-BUTYL SULFIDE

>  <SYNONYMS>  (2120) 


>  <SPECTRUM TYPE>  (2120) 
MS1

>  <INSTRUMENT TYPE>  (2120) 
EI-B

>  <INSTRUMENT>  (2120) 
HITACHI M-80B

>  <ION MODE>  (2120) 
P

>  <INCHIKEY>  (2120) 
LNMBCRKRCIMQLW-UHFFFAOYSA-N

>  <FORMULA>  (2120) 
C8H18S

>  <EXACT MASS>  (2120) 
146.112921576

>  <MW>  (2120) 
146

>  <ID>  (2120) 
JP009129

>  <CONTRIBUTOR>  (2120) 
University of Tokyo Team, {Faculty of Engineering, University of Tokyo

>  <COMMENT>  (2120) 
SMILES=CC(C)(C)SC(C)(C)C
InChI=InChI=1S/C8H18S/c1-7(2,3)9-8(4,5)6/h1-6H3
computed SMILES=S(C(C)(C)C)C(C)(C)C
accession=JP009129
date=2016.01.19 (Created 2008.10.21, modified 2011.05.06)
author=SODA AROMATIC CO., LTD.
license=CC BY-NC-SA
exact mass=146.11292
ionization energy=70 eV
ion type=[M]+*
computed spectral entropy=2.10190111119601
computed normalized entropy=0.690387787967078
SPLASH=splash10-0a4i-9000000000-0359c1005e31d2034386
submitter=submitter = University of Tokyo Team (Faculty of Engineering, University of Tokyo)
MoNA Rating=3.75

>  <NUM PEAKS>  (2120) 
21

>  <MASS SPECTRAL PEAKS>  (2120) 
27 4.16
29 13.63
39 9.16
40 1.03
41 28.58
42 1.31
45 1.79
47 1.64
49 1.45
55 3.32
56 9.32
57 99.99
58 4.16
59 6.95
75 8.82
88 2.18
89 2.36
90 4.81
91 2.7
146 13.78
147 1.32

$$$$

     RDKit          2D

  9  8  0  0  0  0  0  0  0  0999 V2000
    2.5981    4.5000    0.0000 C   0  0  0  0  0  0  0  0  0  0  0  0
   -7.7942    4.5000    0.0000 C   0  0  0  0  0  0  0  0  0  0  0  0
    1.2990    5.2500    0.0000 C   0  0  0  0  0  0  0  0  0  0  0  0
   -6.4952    5.2500    0.0000 C   0  0  0  0  0  0  0  0  0  0  0  0
    0.0000    4.5000    0.0000 C   0  0  0  0  0  0  0  0  0  0  0  0
   -5.1962    4.5000    0.0000 C   0  0  0  0  0  0  0  0  0  0  0  0
   -1.2990    5.2500    0.0000 C   0  0  0  0  0  0  0  0  0  0  0  0
   -3.8971    5.2500    0.0000 C   0  0  0  0  0  0  0  0  0  0  0  0
   -2.5981    4.5000    0.0000 S   0  0  0  0  0  0  0  0  0  0  0  0
  3  1  1  0
  4  2  1  0
  5  3  1  0
  6  4  1  0
  7  5  1  0
  8  6  1  0
  9  7  1  0
  9  8  1  0
M  END
>  <NAME>  (2121) 
DIBUTYL SULFIDE

>  <SYNONYMS>  (2121) 


>  <SPECTRUM TYPE>  (2121) 
MS1

>  <INSTRUMENT TYPE>  (2121) 
EI-B

>  <INSTRUMENT>  (2121) 
HITACHI M-80B

>  <ION MODE>  (2121) 
P

>  <INCHIKEY>  (2121) 
HTIRHQRTDBPHNZ-UHFFFAOYSA-N

>  <FORMULA>  (2121) 
C8H18S

>  <EXACT MASS>  (2121) 
146.112921576

>  <MW>  (2121) 
146

>  <ID>  (2121) 
JP009128

>  <CONTRIBUTOR>  (2121) 
University of Tokyo Team, {Faculty of Engineering, University of Tokyo

>  <COMMENT>  (2121) 
SMILES=CCCCSCCCC
InChI=InChI=1S/C8H18S/c1-3-5-7-9-8-6-4-2/h3-8H2,1-2H3
computed SMILES=S(CCCC)CCCC
accession=JP009128
date=2016.01.19 (Created 2008.10.21, modified 2011.05.06)
author=SODA AROMATIC CO., LTD.
license=CC BY-NC-SA
exact mass=146.11292
ionization energy=70 eV
ion type=[M]+*
computed spectral entropy=2.9185854389258847
computed normalized entropy=0.7859240069941738
SPLASH=splash10-0bvi-9000000000-85df5bd2cd49cd3fbdd7
submitter=submitter = University of Tokyo Team (Faculty of Engineering, University of Tokyo)
MoNA Rating=3.75

>  <NUM PEAKS>  (2121) 
41

>  <MASS SPECTRAL PEAKS>  (2121) 
15 1.46
26 2.32
27 29.36
28 6.75
29 51.67
30 1.25
35 1.65
39 16.59
40 1.82
41 48.73
42 3.13
43 4.09
45 10.96
46 7.81
47 20.16
48 2.01
49 1.82
53 2.96
54 1.44
55 26.59
56 95.56
57 31.79
58 2.33
59 4.26
60 4.57
61 99.99
62 3.44
63 3.74
73 1.28
75 3.61
88 2.15
89 12.76
90 25.66
91 12.51
92 1.54
103 13.56
104 1.36
117 4.47
146 33.32
147 3.14
148 1.8

$$$$

     RDKit          2D

  7  6  0  0  0  0  0  0  0  0999 V2000
    1.6238    1.6875    0.0000 C   0  0  0  0  0  0  0  0  0  0  0  0
    0.3248    3.9375    0.0000 C   0  0  0  0  0  0  0  0  0  0  0  0
   -3.5724    1.6875    0.0000 C   0  0  0  0  0  0  0  0  0  0  0  0
   -2.2733    3.9375    0.0000 C   0  0  0  0  0  0  0  0  0  0  0  0
    0.3248    2.4375    0.0000 C   0  0  0  0  0  0  0  0  0  0  0  0
   -2.2733    2.4375    0.0000 C   0  0  0  0  0  0  0  0  0  0  0  0
   -0.9743    1.6875    0.0000 S   0  0  0  0  0  0  0  0  0  0  0  0
  5  1  1  0
  5  2  1  0
  6  3  1  0
  6  4  1  0
  7  5  1  0
  7  6  1  0
M  END
>  <NAME>  (2122) 
DIISOPROPYL SULFIDE

>  <SYNONYMS>  (2122) 


>  <SPECTRUM TYPE>  (2122) 
MS1

>  <INSTRUMENT TYPE>  (2122) 
EI-B

>  <INSTRUMENT>  (2122) 
HITACHI M-80B

>  <ION MODE>  (2122) 
P

>  <INCHIKEY>  (2122) 
XYWDPYKBIRQXQS-UHFFFAOYSA-N

>  <FORMULA>  (2122) 
C6H14S

>  <EXACT MASS>  (2122) 
118.08162144799999

>  <MW>  (2122) 
118

>  <ID>  (2122) 
JP009127

>  <CONTRIBUTOR>  (2122) 
University of Tokyo Team, {Faculty of Engineering, University of Tokyo

>  <COMMENT>  (2122) 
SMILES=CC(C)SC(C)C
InChI=InChI=1S/C6H14S/c1-5(2)7-6(3)4/h5-6H,1-4H3
computed SMILES=S(C(C)C)C(C)C
accession=JP009127
date=2016.01.19 (Created 2008.10.21, modified 2011.05.06)
author=SODA AROMATIC CO., LTD.
license=CC BY-NC-SA
exact mass=118.08162
ionization energy=70 eV
ion type=[M]+*
computed spectral entropy=2.640793367345489
computed normalized entropy=0.7619718990163608
SPLASH=splash10-01ox-9100000000-42ef19203255107e712c
submitter=submitter = University of Tokyo Team (Faculty of Engineering, University of Tokyo)
MoNA Rating=3.75

>  <NUM PEAKS>  (2122) 
32

>  <MASS SPECTRAL PEAKS>  (2122) 
15 2.66
26 1.4
27 27.58
29 1.02
35 1.29
38 2.31
39 25.99
40 3.01
41 52.45
42 12.26
43 99.99
44 2.49
45 9.81
46 1.24
47 10.65
49 1.9
58 4.16
59 19.51
60 10.18
61 92.26
62 2.43
63 3.16
74 2.57
75 10.82
76 18.94
77 3.23
103 45.41
104 2.22
105 1.43
118 29.89
119 2.01
120 1.28

$$$$

     RDKit          2D

  7  6  0  0  0  0  0  0  0  0999 V2000
    1.9486    3.3750    0.0000 C   0  0  0  0  0  0  0  0  0  0  0  0
   -5.8457    3.3750    0.0000 C   0  0  0  0  0  0  0  0  0  0  0  0
    0.6495    4.1250    0.0000 C   0  0  0  0  0  0  0  0  0  0  0  0
   -4.5466    4.1250    0.0000 C   0  0  0  0  0  0  0  0  0  0  0  0
   -0.6495    3.3750    0.0000 C   0  0  0  0  0  0  0  0  0  0  0  0
   -3.2476    3.3750    0.0000 C   0  0  0  0  0  0  0  0  0  0  0  0
   -1.9486    4.1250    0.0000 S   0  0  0  0  0  0  0  0  0  0  0  0
  3  1  2  0
  4  2  1  0
  5  3  1  0
  6  4  1  0
  7  5  1  0
  7  6  1  0
M  END
>  <NAME>  (2123) 
ALLYL PROPYL SULFIDE

>  <SYNONYMS>  (2123) 


>  <SPECTRUM TYPE>  (2123) 
MS1

>  <INSTRUMENT TYPE>  (2123) 
EI-B

>  <INSTRUMENT>  (2123) 
HITACHI

>  <ION MODE>  (2123) 
P

>  <INCHIKEY>  (2123) 
JMLIYQJQKZYHDQ-UHFFFAOYSA-N

>  <FORMULA>  (2123) 
C6H12S

>  <EXACT MASS>  (2123) 
116.065971384

>  <MW>  (2123) 
116

>  <ID>  (2123) 
JP009126

>  <CONTRIBUTOR>  (2123) 
University of Tokyo Team, {Faculty of Engineering, University of Tokyo

>  <COMMENT>  (2123) 
SMILES=CCCSCC=C
InChI=InChI=1S/C6H12S/c1-3-5-7-6-4-2/h3H,1,4-6H2,2H3
computed SMILES=S(CC=C)CCC
accession=JP009126
date=2016.01.19 (Created 2008.10.21, modified 2011.05.06)
author=SODA AROMATIC CO., LTD.
license=CC BY-NC-SA
exact mass=116.06597
ionization energy=70 eV
ion type=[M]+*
computed spectral entropy=2.791266831547007
computed normalized entropy=0.7789178401132074
SPLASH=splash10-0077-9000000000-eacd0b0d3cfdc2f56ebe
submitter=submitter = University of Tokyo Team (Faculty of Engineering, University of Tokyo)
MoNA Rating=3.75

>  <NUM PEAKS>  (2123) 
36

>  <MASS SPECTRAL PEAKS>  (2123) 
15 3.67
26 2.26
27 23.77
28 1.34
29 4.47
37 1.71
38 4.61
39 46.81
40 4.17
41 99.99
42 5.72
43 13.41
45 49.26
46 12.71
47 20.66
48 1
53 4.89
55 1.38
58 3.6
59 8.43
60 1.59
61 1.87
69 1.67
71 5.15
72 3.91
73 24.7
74 78.33
75 11.32
76 3.66
85 3.96
87 29.97
88 1.71
89 1.97
116 42.22
117 2.68
118 1.74

$$$$

     RDKit          2D

  7  6  0  0  0  0  0  0  0  0999 V2000
    1.9486    3.3750    0.0000 C   0  0  0  0  0  0  0  0  0  0  0  0
   -5.8457    3.3750    0.0000 C   0  0  0  0  0  0  0  0  0  0  0  0
    0.6495    4.1250    0.0000 C   0  0  0  0  0  0  0  0  0  0  0  0
   -4.5466    4.1250    0.0000 C   0  0  0  0  0  0  0  0  0  0  0  0
   -0.6495    3.3750    0.0000 C   0  0  0  0  0  0  0  0  0  0  0  0
   -3.2476    3.3750    0.0000 C   0  0  0  0  0  0  0  0  0  0  0  0
   -1.9486    4.1250    0.0000 S   0  0  0  0  0  0  0  0  0  0  0  0
  3  1  2  0
  4  2  2  0
  5  3  1  0
  6  4  1  0
  7  5  1  0
  7  6  1  0
M  END
>  <NAME>  (2124) 
DIALLYL SULFIDE

>  <SYNONYMS>  (2124) 


>  <SPECTRUM TYPE>  (2124) 
MS1

>  <INSTRUMENT TYPE>  (2124) 
EI-B

>  <INSTRUMENT>  (2124) 
HITACHI M-80B

>  <ION MODE>  (2124) 
P

>  <INCHIKEY>  (2124) 
UBJVUCKUDDKUJF-UHFFFAOYSA-N

>  <FORMULA>  (2124) 
C6H10S

>  <EXACT MASS>  (2124) 
114.05032132

>  <MW>  (2124) 
114

>  <ID>  (2124) 
JP009125

>  <CONTRIBUTOR>  (2124) 
University of Tokyo Team, {Faculty of Engineering, University of Tokyo

>  <COMMENT>  (2124) 
SMILES=C=CCSCC=C
InChI=InChI=1S/C6H10S/c1-3-5-7-6-4-2/h3-4H,1-2,5-6H2
computed SMILES=S(CC=C)CC=C
accession=JP009125
date=2016.01.19 (Created 2008.10.21, modified 2011.05.06)
author=SODA AROMATIC CO., LTD.
license=CC BY-NC-SA
exact mass=114.05032
ionization energy=70 eV
ion type=[M]+*
computed spectral entropy=2.8793852757021052
computed normalized entropy=0.8465798813166667
SPLASH=splash10-0075-9000000000-0769cf2b720f4b1d3029
submitter=submitter = University of Tokyo Team (Faculty of Engineering, University of Tokyo)
MoNA Rating=3.75

>  <NUM PEAKS>  (2124) 
30

>  <MASS SPECTRAL PEAKS>  (2124) 
15 5.92
27 13.92
29 3.57
37 5.55
38 10.25
39 87.04
40 10.29
41 76.21
42 5.5
45 99.99
46 12.81
47 21.66
53 4.61
58 5.55
59 5.38
67 10.55
68 9.15
69 7.05
71 22.34
72 44.09
73 53.56
74 6.07
79 5.12
80 15.55
81 15.29
85 8.81
86 8.37
87 4.76
99 18.25
114 32.22

$$$$

     RDKit          2D

 15 15  0  0  0  0  0  0  0  0999 V2000
   -3.1900    1.5500    0.0000 C   0  0  0  0  0  0  0  0  0  0  0  0
   -2.4400    0.2500    0.0000 C   0  0  0  0  0  0  0  0  0  0  0  0
   -2.4400    2.8500    0.0000 C   0  0  0  0  0  0  0  0  0  0  0  0
   -0.9400    0.2500    0.0000 C   0  0  0  0  0  0  0  0  0  0  0  0
   -0.9400    2.8500    0.0000 C   0  0  0  0  0  0  0  0  0  0  0  0
   -0.1900   -1.0500    0.0000 C   0  0  0  0  0  0  0  0  0  0  0  0
   -0.1900    4.1500    0.0000 C   0  0  0  0  0  0  0  0  0  0  0  0
    1.3100   -1.0500    0.0000 C   0  0  0  0  0  0  0  0  0  0  0  0
    1.3100    4.1500    0.0000 C   0  0  0  0  0  0  0  0  0  0  0  0
    2.0600    0.2500    0.0000 C   0  0  0  0  0  0  0  0  0  0  0  0
    2.0600    2.8500    0.0000 C   0  0  0  0  0  0  0  0  0  0  0  0
    3.5600    2.8490    0.0000 C   0  0  0  0  0  0  0  0  0  0  0  0
    1.3100    1.5500    0.0000 C   0  0  0  0  0  0  0  0  0  0  0  0
    5.0600    2.8490    0.0000 O   0  0  0  0  0  0  0  0  0  0  0  0
    2.8100    1.5500    0.0000 O   0  0  0  0  0  0  0  0  0  0  0  0
  2  1  1  0
  3  1  1  0
  4  2  1  0
  5  3  1  0
  6  4  1  0
  7  5  1  0
  8  6  1  0
  9  7  1  0
 10  8  1  0
 11  9  1  0
 13 10  1  0
 13 11  1  0
 14 12  2  0
 15 12  1  0
 15 13  1  0
M  END
>  <NAME>  (2125) 
CYCLODODECYL FORMATE

>  <SYNONYMS>  (2125) 


>  <SPECTRUM TYPE>  (2125) 
MS1

>  <INSTRUMENT TYPE>  (2125) 
EI-B

>  <INSTRUMENT>  (2125) 
HITACHI M-80B

>  <ION MODE>  (2125) 
P

>  <INCHIKEY>  (2125) 
WGFQFIYJBLNXIF-UHFFFAOYSA-N

>  <FORMULA>  (2125) 
C13H24O2

>  <EXACT MASS>  (2125) 
212.177630008

>  <MW>  (2125) 
212

>  <ID>  (2125) 
JP009124

>  <CONTRIBUTOR>  (2125) 
University of Tokyo Team, {Faculty of Engineering, University of Tokyo

>  <COMMENT>  (2125) 
SMILES=O=COC(C1)CCCCCCCCCC1
InChI=InChI=1S/C13H24O2/c14-12-15-13-10-8-6-4-2-1-3-5-7-9-11-13/h12-13H,1-11H2
computed SMILES=O=COC1CCCCCCCCCCC1
accession=JP009124
date=2016.01.19 (Created 2008.10.21, modified 2011.05.06)
author=SODA AROMATIC CO., LTD.
license=CC BY-NC-SA
exact mass=212.17763
ionization energy=70 eV
ion type=[M]+*
computed spectral entropy=3.4448517043987033
computed normalized entropy=0.8483930683058953
SPLASH=splash10-05o1-9100000000-39dfaf8f6e62600edbac
submitter=submitter = University of Tokyo Team (Faculty of Engineering, University of Tokyo)
MoNA Rating=3.75

>  <NUM PEAKS>  (2125) 
58

>  <MASS SPECTRAL PEAKS>  (2125) 
27 16.12
28 3.41
29 31.49
30 1.01
31 4.39
39 18.07
40 3.13
41 76.42
42 18.81
43 31.18
44 10.14
45 3.93
47 1.46
53 8.56
54 30.49
55 77.53
56 18.18
57 40.54
58 3.2
65 1.74
66 6.57
67 62.99
68 48.47
69 40.07
70 13.22
71 9.55
72 1.6
77 1.35
79 4.84
80 4.58
81 54.81
82 99.99
83 35.94
84 6.74
85 5.45
93 1.56
94 3.82
95 39.53
96 86.66
97 25.63
98 6.5
99 1.66
108 1.76
109 26.25
110 26.17
111 6.55
112 2.1
122 1.05
123 13.76
124 13.47
125 2.06
137 5.93
138 14.81
139 1.55
140 1.62
151 1.23
166 25.41
167 3.76

$$$$

     RDKit          2D

 26 25  0  0  0  0  0  0  0  0999 V2000
    8.4437   13.8750    0.0000 C   0  0  0  0  0  0  0  0  0  0  0  0
  -24.0322   14.6250    0.0000 C   0  0  0  0  0  0  0  0  0  0  0  0
    7.1447   14.6250    0.0000 C   0  0  0  0  0  0  0  0  0  0  0  0
  -22.7332   13.8750    0.0000 C   0  0  0  0  0  0  0  0  0  0  0  0
    5.8457   13.8750    0.0000 C   0  0  0  0  0  0  0  0  0  0  0  0
  -21.4341   14.6250    0.0000 C   0  0  0  0  0  0  0  0  0  0  0  0
    4.5466   14.6250    0.0000 C   0  0  0  0  0  0  0  0  0  0  0  0
  -20.1351   13.8750    0.0000 C   0  0  0  0  0  0  0  0  0  0  0  0
    3.2476   13.8750    0.0000 C   0  0  0  0  0  0  0  0  0  0  0  0
  -18.8361   14.6250    0.0000 C   0  0  0  0  0  0  0  0  0  0  0  0
    1.9486   14.6250    0.0000 C   0  0  0  0  0  0  0  0  0  0  0  0
  -17.5370   13.8750    0.0000 C   0  0  0  0  0  0  0  0  0  0  0  0
    0.6495   13.8750    0.0000 C   0  0  0  0  0  0  0  0  0  0  0  0
  -16.2380   14.6250    0.0000 C   0  0  0  0  0  0  0  0  0  0  0  0
   -0.6495   14.6250    0.0000 C   0  0  0  0  0  0  0  0  0  0  0  0
  -14.9389   13.8750    0.0000 C   0  0  0  0  0  0  0  0  0  0  0  0
   -1.9486   13.8750    0.0000 C   0  0  0  0  0  0  0  0  0  0  0  0
  -13.6399   14.6250    0.0000 C   0  0  0  0  0  0  0  0  0  0  0  0
   -3.2476   14.6250    0.0000 C   0  0  0  0  0  0  0  0  0  0  0  0
  -12.3409   13.8750    0.0000 C   0  0  0  0  0  0  0  0  0  0  0  0
   -4.5466   13.8750    0.0000 C   0  0  0  0  0  0  0  0  0  0  0  0
  -11.0418   14.6250    0.0000 C   0  0  0  0  0  0  0  0  0  0  0  0
   -5.8457   14.6250    0.0000 C   0  0  0  0  0  0  0  0  0  0  0  0
   -9.7428   13.8750    0.0000 C   0  0  0  0  0  0  0  0  0  0  0  0
   -7.1447   13.8750    0.0000 C   0  0  0  0  0  0  0  0  0  0  0  0
   -8.4437   14.6250    0.0000 C   0  0  0  0  0  0  0  0  0  0  0  0
  3  1  1  0
  4  2  1  0
  5  3  1  0
  6  4  1  0
  7  5  1  0
  8  6  1  0
  9  7  1  0
 10  8  1  0
 11  9  1  0
 12 10  1  0
 13 11  1  0
 14 12  1  0
 15 13  1  0
 16 14  1  0
 17 15  1  0
 18 16  1  0
 19 17  1  0
 20 18  1  0
 21 19  1  0
 22 20  1  0
 23 21  1  0
 24 22  1  0
 25 23  1  0
 26 24  1  0
 26 25  1  0
M  END
>  <NAME>  (2126) 
HEXACOSANE

>  <SYNONYMS>  (2126) 


>  <SPECTRUM TYPE>  (2126) 
MS1

>  <INSTRUMENT TYPE>  (2126) 
EI-B

>  <INSTRUMENT>  (2126) 
HITACHI M-80B

>  <ION MODE>  (2126) 
P

>  <INCHIKEY>  (2126) 
HMSWAIKSFDFLKN-UHFFFAOYSA-N

>  <FORMULA>  (2126) 
C26H54

>  <EXACT MASS>  (2126) 
366.422551728

>  <MW>  (2126) 
366

>  <ID>  (2126) 
JP009123

>  <CONTRIBUTOR>  (2126) 
University of Tokyo Team, {Faculty of Engineering, University of Tokyo

>  <COMMENT>  (2126) 
SMILES=CCCCCCCCCCCCCCCCCCCCCCCCCC
cas=630-01-3
InChI=InChI=1S/C26H54/c1-3-5-7-9-11-13-15-17-19-21-23-25-26-24-22-20-18-16-14-12-10-8-6-4-2/h3-26H2,1-2H3
computed SMILES=CCCCCCCCCCCCCCCCCCCCCCCCCC
accession=JP009123
date=2016.01.19 (Created 2008.10.21, modified 2011.05.06)
author=SODA AROMATIC CO., LTD.
license=CC BY-NC-SA
exact mass=366.42255
ionization energy=70 eV
ion type=[M]+*
computed spectral entropy=2.7008065089003135
computed normalized entropy=0.732148215330892
SPLASH=splash10-0a4l-9000000000-e37e2b4f024d8a92f5a7
submitter=submitter = University of Tokyo Team (Faculty of Engineering, University of Tokyo)
MoNA Rating=3.75

>  <NUM PEAKS>  (2126) 
40

>  <MASS SPECTRAL PEAKS>  (2126) 
27 5.14
29 16.32
39 2.04
41 35.08
42 8.5
43 99.67
44 1.25
53 1.57
54 2.18
55 27.32
56 18.26
57 99.99
58 4.08
67 2.36
68 2.51
69 13.72
70 7.9
71 63.49
72 3.01
82 2.63
83 8.14
84 4.51
85 37.61
86 1.45
96 1
97 6.04
98 3.32
99 8.25
111 2.06
112 2.02
113 4.88
125 1.12
126 1.2
127 3.27
140 1.41
141 2.26
155 1.37
168 1.29
169 1.75
197 1.25

$$$$

     RDKit          2D

 25 24  0  0  0  0  0  0  0  0999 V2000
    7.7942   13.5000    0.0000 C   0  0  0  0  0  0  0  0  0  0  0  0
  -23.3827   13.5000    0.0000 C   0  0  0  0  0  0  0  0  0  0  0  0
    6.4952   14.2500    0.0000 C   0  0  0  0  0  0  0  0  0  0  0  0
  -22.0836   14.2500    0.0000 C   0  0  0  0  0  0  0  0  0  0  0  0
    5.1962   13.5000    0.0000 C   0  0  0  0  0  0  0  0  0  0  0  0
  -20.7846   13.5000    0.0000 C   0  0  0  0  0  0  0  0  0  0  0  0
    3.8971   14.2500    0.0000 C   0  0  0  0  0  0  0  0  0  0  0  0
  -19.4856   14.2500    0.0000 C   0  0  0  0  0  0  0  0  0  0  0  0
    2.5981   13.5000    0.0000 C   0  0  0  0  0  0  0  0  0  0  0  0
  -18.1865   13.5000    0.0000 C   0  0  0  0  0  0  0  0  0  0  0  0
    1.2990   14.2500    0.0000 C   0  0  0  0  0  0  0  0  0  0  0  0
  -16.8875   14.2500    0.0000 C   0  0  0  0  0  0  0  0  0  0  0  0
    0.0000   13.5000    0.0000 C   0  0  0  0  0  0  0  0  0  0  0  0
  -15.5885   13.5000    0.0000 C   0  0  0  0  0  0  0  0  0  0  0  0
   -1.2990   14.2500    0.0000 C   0  0  0  0  0  0  0  0  0  0  0  0
  -14.2894   14.2500    0.0000 C   0  0  0  0  0  0  0  0  0  0  0  0
   -2.5981   13.5000    0.0000 C   0  0  0  0  0  0  0  0  0  0  0  0
  -12.9904   13.5000    0.0000 C   0  0  0  0  0  0  0  0  0  0  0  0
   -3.8971   14.2500    0.0000 C   0  0  0  0  0  0  0  0  0  0  0  0
  -11.6913   14.2500    0.0000 C   0  0  0  0  0  0  0  0  0  0  0  0
   -5.1962   13.5000    0.0000 C   0  0  0  0  0  0  0  0  0  0  0  0
  -10.3923   13.5000    0.0000 C   0  0  0  0  0  0  0  0  0  0  0  0
   -6.4952   14.2500    0.0000 C   0  0  0  0  0  0  0  0  0  0  0  0
   -9.0933   14.2500    0.0000 C   0  0  0  0  0  0  0  0  0  0  0  0
   -7.7942   13.5000    0.0000 C   0  0  0  0  0  0  0  0  0  0  0  0
  3  1  1  0
  4  2  1  0
  5  3  1  0
  6  4  1  0
  7  5  1  0
  8  6  1  0
  9  7  1  0
 10  8  1  0
 11  9  1  0
 12 10  1  0
 13 11  1  0
 14 12  1  0
 15 13  1  0
 16 14  1  0
 17 15  1  0
 18 16  1  0
 19 17  1  0
 20 18  1  0
 21 19  1  0
 22 20  1  0
 23 21  1  0
 24 22  1  0
 25 23  1  0
 25 24  1  0
M  END
>  <NAME>  (2127) 
PENTACOSANE

>  <SYNONYMS>  (2127) 


>  <SPECTRUM TYPE>  (2127) 
MS1

>  <INSTRUMENT TYPE>  (2127) 
EI-B

>  <INSTRUMENT>  (2127) 
HITACHI M-80B

>  <ION MODE>  (2127) 
P

>  <INCHIKEY>  (2127) 
YKNWIILGEFFOPE-UHFFFAOYSA-N

>  <FORMULA>  (2127) 
C25H52

>  <EXACT MASS>  (2127) 
352.406901664

>  <MW>  (2127) 
352

>  <ID>  (2127) 
JP009122

>  <CONTRIBUTOR>  (2127) 
University of Tokyo Team, {Faculty of Engineering, University of Tokyo

>  <COMMENT>  (2127) 
SMILES=CCCCCCCCCCCCCCCCCCCCCCCCC
cas=629-99-2
InChI=InChI=1S/C25H52/c1-3-5-7-9-11-13-15-17-19-21-23-25-24-22-20-18-16-14-12-10-8-6-4-2/h3-25H2,1-2H3
computed SMILES=CCCCCCCCCCCCCCCCCCCCCCCCC
accession=JP009122
date=2016.01.19 (Created 2008.10.21, modified 2011.05.06)
author=SODA AROMATIC CO., LTD.
license=CC BY-NC-SA
exact mass=352.4069
ionization energy=70 eV
ion type=[M]+*
computed spectral entropy=2.636177481499065
computed normalized entropy=0.7356393329498662
SPLASH=splash10-0a4l-9000000000-ee53fcca7e980fdff3c3
submitter=submitter = University of Tokyo Team (Faculty of Engineering, University of Tokyo)
MoNA Rating=3.75

>  <NUM PEAKS>  (2127) 
36

>  <MASS SPECTRAL PEAKS>  (2127) 
27 3.97
29 14.5
39 2.38
41 31.69
42 9.54
43 88.68
44 1.27
53 1.03
54 2.28
55 23.94
56 12.09
57 99.99
58 2.57
67 2.15
68 2.32
69 13.16
70 10.15
71 56.48
72 2.16
82 2.04
83 10.07
84 4.45
85 31.77
86 1.28
97 4.69
98 2.61
99 7.15
111 1.72
112 1.62
113 3.67
126 1.71
127 2.39
140 1.02
141 1.77
155 1.69
169 1.43

$$$$

     RDKit          2D

 24 23  0  0  0  0  0  0  0  0999 V2000
  -22.0836   13.5000    0.0000 C   0  0  0  0  0  0  0  0  0  0  0  0
    7.7942   12.7500    0.0000 C   0  0  0  0  0  0  0  0  0  0  0  0
  -20.7846   12.7500    0.0000 C   0  0  0  0  0  0  0  0  0  0  0  0
    6.4952   13.5000    0.0000 C   0  0  0  0  0  0  0  0  0  0  0  0
  -19.4856   13.5000    0.0000 C   0  0  0  0  0  0  0  0  0  0  0  0
    5.1962   12.7500    0.0000 C   0  0  0  0  0  0  0  0  0  0  0  0
  -18.1865   12.7500    0.0000 C   0  0  0  0  0  0  0  0  0  0  0  0
    3.8971   13.5000    0.0000 C   0  0  0  0  0  0  0  0  0  0  0  0
  -16.8875   13.5000    0.0000 C   0  0  0  0  0  0  0  0  0  0  0  0
    2.5981   12.7500    0.0000 C   0  0  0  0  0  0  0  0  0  0  0  0
  -15.5885   12.7500    0.0000 C   0  0  0  0  0  0  0  0  0  0  0  0
    1.2990   13.5000    0.0000 C   0  0  0  0  0  0  0  0  0  0  0  0
  -14.2894   13.5000    0.0000 C   0  0  0  0  0  0  0  0  0  0  0  0
    0.0000   12.7500    0.0000 C   0  0  0  0  0  0  0  0  0  0  0  0
  -12.9904   12.7500    0.0000 C   0  0  0  0  0  0  0  0  0  0  0  0
   -1.2990   13.5000    0.0000 C   0  0  0  0  0  0  0  0  0  0  0  0
  -11.6913   13.5000    0.0000 C   0  0  0  0  0  0  0  0  0  0  0  0
   -2.5981   12.7500    0.0000 C   0  0  0  0  0  0  0  0  0  0  0  0
  -10.3923   12.7500    0.0000 C   0  0  0  0  0  0  0  0  0  0  0  0
   -3.8971   13.5000    0.0000 C   0  0  0  0  0  0  0  0  0  0  0  0
   -9.0933   13.5000    0.0000 C   0  0  0  0  0  0  0  0  0  0  0  0
   -5.1962   12.7500    0.0000 C   0  0  0  0  0  0  0  0  0  0  0  0
   -7.7942   12.7500    0.0000 C   0  0  0  0  0  0  0  0  0  0  0  0
   -6.4952   13.5000    0.0000 C   0  0  0  0  0  0  0  0  0  0  0  0
  3  1  1  0
  4  2  1  0
  5  3  1  0
  6  4  1  0
  7  5  1  0
  8  6  1  0
  9  7  1  0
 10  8  1  0
 11  9  1  0
 12 10  1  0
 13 11  1  0
 14 12  1  0
 15 13  1  0
 16 14  1  0
 17 15  1  0
 18 16  1  0
 19 17  1  0
 20 18  1  0
 21 19  1  0
 22 20  1  0
 23 21  1  0
 24 22  1  0
 24 23  1  0
M  END
>  <NAME>  (2128) 
TETRACOSANE

>  <SYNONYMS>  (2128) 


>  <SPECTRUM TYPE>  (2128) 
MS1

>  <INSTRUMENT TYPE>  (2128) 
EI-B

>  <INSTRUMENT>  (2128) 
HITACHI M-80B

>  <ION MODE>  (2128) 
P

>  <INCHIKEY>  (2128) 
POOSGDOYLQNASK-UHFFFAOYSA-N

>  <FORMULA>  (2128) 
C24H50

>  <EXACT MASS>  (2128) 
338.3912516

>  <MW>  (2128) 
338

>  <ID>  (2128) 
JP009121

>  <CONTRIBUTOR>  (2128) 
University of Tokyo Team, {Faculty of Engineering, University of Tokyo

>  <COMMENT>  (2128) 
SMILES=CCCCCCCCCCCCCCCCCCCCCCCC
cas=646-31-1
InChI=InChI=1S/C24H50/c1-3-5-7-9-11-13-15-17-19-21-23-24-22-20-18-16-14-12-10-8-6-4-2/h3-24H2,1-2H3
computed SMILES=CCCCCCCCCCCCCCCCCCCCCCCC
accession=JP009121
date=2016.01.19 (Created 2008.10.21, modified 2011.05.06)
author=SODA AROMATIC CO., LTD.
license=CC BY-NC-SA
exact mass=338.39125
ionization energy=70 eV
ion type=[M]+*
computed spectral entropy=2.69389324047933
computed normalized entropy=0.7353208436727908
SPLASH=splash10-0a4l-9000000000-eb1df71fee79807844a1
submitter=submitter = University of Tokyo Team (Faculty of Engineering, University of Tokyo)
MoNA Rating=3.75

>  <NUM PEAKS>  (2128) 
39

>  <MASS SPECTRAL PEAKS>  (2128) 
27 3.88
29 12.19
39 3.24
41 32.79
42 11.69
43 78.75
44 2.94
53 1.29
54 2.63
55 26.48
56 11.91
57 99.99
58 2.35
67 1.3
68 2
69 12.46
70 14.72
71 52.24
72 1.3
82 1.31
83 7.02
84 3.21
85 34.7
86 1.29
96 1.13
97 4.87
98 2.07
99 10.48
111 1.56
112 2.15
113 3.31
126 1.13
127 3.11
140 1.2
154 1.02
155 1.74
182 1.17
183 1.58
197 1.21

$$$$

     RDKit          2D

 23 22  0  0  0  0  0  0  0  0999 V2000
    7.1447   12.3750    0.0000 C   0  0  0  0  0  0  0  0  0  0  0  0
  -21.4341   12.3750    0.0000 C   0  0  0  0  0  0  0  0  0  0  0  0
    5.8457   13.1250    0.0000 C   0  0  0  0  0  0  0  0  0  0  0  0
  -20.1351   13.1250    0.0000 C   0  0  0  0  0  0  0  0  0  0  0  0
    4.5466   12.3750    0.0000 C   0  0  0  0  0  0  0  0  0  0  0  0
  -18.8361   12.3750    0.0000 C   0  0  0  0  0  0  0  0  0  0  0  0
    3.2476   13.1250    0.0000 C   0  0  0  0  0  0  0  0  0  0  0  0
  -17.5370   13.1250    0.0000 C   0  0  0  0  0  0  0  0  0  0  0  0
    1.9486   12.3750    0.0000 C   0  0  0  0  0  0  0  0  0  0  0  0
  -16.2380   12.3750    0.0000 C   0  0  0  0  0  0  0  0  0  0  0  0
    0.6495   13.1250    0.0000 C   0  0  0  0  0  0  0  0  0  0  0  0
  -14.9389   13.1250    0.0000 C   0  0  0  0  0  0  0  0  0  0  0  0
   -0.6495   12.3750    0.0000 C   0  0  0  0  0  0  0  0  0  0  0  0
  -13.6399   12.3750    0.0000 C   0  0  0  0  0  0  0  0  0  0  0  0
   -1.9486   13.1250    0.0000 C   0  0  0  0  0  0  0  0  0  0  0  0
  -12.3409   13.1250    0.0000 C   0  0  0  0  0  0  0  0  0  0  0  0
   -3.2476   12.3750    0.0000 C   0  0  0  0  0  0  0  0  0  0  0  0
  -11.0418   12.3750    0.0000 C   0  0  0  0  0  0  0  0  0  0  0  0
   -4.5466   13.1250    0.0000 C   0  0  0  0  0  0  0  0  0  0  0  0
   -9.7428   13.1250    0.0000 C   0  0  0  0  0  0  0  0  0  0  0  0
   -5.8457   12.3750    0.0000 C   0  0  0  0  0  0  0  0  0  0  0  0
   -8.4437   12.3750    0.0000 C   0  0  0  0  0  0  0  0  0  0  0  0
   -7.1447   13.1250    0.0000 C   0  0  0  0  0  0  0  0  0  0  0  0
  3  1  1  0
  4  2  1  0
  5  3  1  0
  6  4  1  0
  7  5  1  0
  8  6  1  0
  9  7  1  0
 10  8  1  0
 11  9  1  0
 12 10  1  0
 13 11  1  0
 14 12  1  0
 15 13  1  0
 16 14  1  0
 17 15  1  0
 18 16  1  0
 19 17  1  0
 20 18  1  0
 21 19  1  0
 22 20  1  0
 23 21  1  0
 23 22  1  0
M  END
>  <NAME>  (2129) 
TRICOSANE

>  <SYNONYMS>  (2129) 


>  <SPECTRUM TYPE>  (2129) 
MS1

>  <INSTRUMENT TYPE>  (2129) 
EI-B

>  <INSTRUMENT>  (2129) 
HITACHI M-80B

>  <ION MODE>  (2129) 
P

>  <INCHIKEY>  (2129) 
FIGVVZUWCLSUEI-UHFFFAOYSA-N

>  <FORMULA>  (2129) 
C23H48

>  <EXACT MASS>  (2129) 
324.375601536

>  <MW>  (2129) 
324

>  <ID>  (2129) 
JP009120

>  <CONTRIBUTOR>  (2129) 
University of Tokyo Team, {Faculty of Engineering, University of Tokyo

>  <COMMENT>  (2129) 
SMILES=CCCCCCCCCCCCCCCCCCCCCCC
cas=638-67-5
InChI=InChI=1S/C23H48/c1-3-5-7-9-11-13-15-17-19-21-23-22-20-18-16-14-12-10-8-6-4-2/h3-23H2,1-2H3
computed SMILES=CCCCCCCCCCCCCCCCCCCCCCC
accession=JP009120
date=2016.01.19 (Created 2008.10.21, modified 2011.05.06)
author=SODA AROMATIC CO., LTD.
license=CC BY-NC-SA
exact mass=324.3756
ionization energy=70 eV
ion type=[M]+*
computed spectral entropy=2.727231730936522
computed normalized entropy=0.7444208653668198
SPLASH=splash10-0a4l-9000000000-b55658471f93057544d6
submitter=submitter = University of Tokyo Team (Faculty of Engineering, University of Tokyo)
MoNA Rating=3.75

>  <NUM PEAKS>  (2129) 
39

>  <MASS SPECTRAL PEAKS>  (2129) 
27 5.96
29 17.99
39 2.42
41 32.66
42 9.52
43 91.28
44 1.99
53 1.29
54 2.13
55 26.13
56 14.33
57 99.99
58 3.33
67 1.79
68 1.98
69 13.86
70 10.44
71 58.87
72 2.76
82 1.53
83 8.68
84 5.23
85 36.96
86 1.71
97 5.72
98 3
99 10.68
111 1.88
112 2.23
113 5.74
126 1.51
127 3.41
140 1.5
141 2.4
154 1.16
155 1.82
169 1.6
183 1.09
197 1.04

$$$$

     RDKit          2D

 22 21  0  0  0  0  0  0  0  0999 V2000
  -20.1351   12.3750    0.0000 C   0  0  0  0  0  0  0  0  0  0  0  0
    7.1447   11.6250    0.0000 C   0  0  0  0  0  0  0  0  0  0  0  0
  -18.8361   11.6250    0.0000 C   0  0  0  0  0  0  0  0  0  0  0  0
    5.8457   12.3750    0.0000 C   0  0  0  0  0  0  0  0  0  0  0  0
  -17.5370   12.3750    0.0000 C   0  0  0  0  0  0  0  0  0  0  0  0
    4.5466   11.6250    0.0000 C   0  0  0  0  0  0  0  0  0  0  0  0
  -16.2380   11.6250    0.0000 C   0  0  0  0  0  0  0  0  0  0  0  0
    3.2476   12.3750    0.0000 C   0  0  0  0  0  0  0  0  0  0  0  0
  -14.9389   12.3750    0.0000 C   0  0  0  0  0  0  0  0  0  0  0  0
    1.9486   11.6250    0.0000 C   0  0  0  0  0  0  0  0  0  0  0  0
  -13.6399   11.6250    0.0000 C   0  0  0  0  0  0  0  0  0  0  0  0
    0.6495   12.3750    0.0000 C   0  0  0  0  0  0  0  0  0  0  0  0
  -12.3409   12.3750    0.0000 C   0  0  0  0  0  0  0  0  0  0  0  0
   -0.6495   11.6250    0.0000 C   0  0  0  0  0  0  0  0  0  0  0  0
  -11.0418   11.6250    0.0000 C   0  0  0  0  0  0  0  0  0  0  0  0
   -1.9486   12.3750    0.0000 C   0  0  0  0  0  0  0  0  0  0  0  0
   -9.7428   12.3750    0.0000 C   0  0  0  0  0  0  0  0  0  0  0  0
   -3.2476   11.6250    0.0000 C   0  0  0  0  0  0  0  0  0  0  0  0
   -8.4437   11.6250    0.0000 C   0  0  0  0  0  0  0  0  0  0  0  0
   -4.5466   12.3750    0.0000 C   0  0  0  0  0  0  0  0  0  0  0  0
   -7.1447   12.3750    0.0000 C   0  0  0  0  0  0  0  0  0  0  0  0
   -5.8457   11.6250    0.0000 C   0  0  0  0  0  0  0  0  0  0  0  0
  3  1  1  0
  4  2  1  0
  5  3  1  0
  6  4  1  0
  7  5  1  0
  8  6  1  0
  9  7  1  0
 10  8  1  0
 11  9  1  0
 12 10  1  0
 13 11  1  0
 14 12  1  0
 15 13  1  0
 16 14  1  0
 17 15  1  0
 18 16  1  0
 19 17  1  0
 20 18  1  0
 21 19  1  0
 22 20  1  0
 22 21  1  0
M  END
>  <NAME>  (2130) 
DOCOSANE

>  <SYNONYMS>  (2130) 


>  <SPECTRUM TYPE>  (2130) 
MS1

>  <INSTRUMENT TYPE>  (2130) 
EI-B

>  <INSTRUMENT>  (2130) 
HITACHI M-80B

>  <ION MODE>  (2130) 
P

>  <INCHIKEY>  (2130) 
HOWGUJZVBDQJKV-UHFFFAOYSA-N

>  <FORMULA>  (2130) 
C22H46

>  <EXACT MASS>  (2130) 
310.359951472

>  <MW>  (2130) 
310

>  <ID>  (2130) 
JP009119

>  <CONTRIBUTOR>  (2130) 
University of Tokyo Team, {Faculty of Engineering, University of Tokyo

>  <COMMENT>  (2130) 
SMILES=CCCCCCCCCCCCCCCCCCCCCC
cas=629-97-0
InChI=InChI=1S/C22H46/c1-3-5-7-9-11-13-15-17-19-21-22-20-18-16-14-12-10-8-6-4-2/h3-22H2,1-2H3
computed SMILES=CCCCCCCCCCCCCCCCCCCCCC
accession=JP009119
date=2016.01.19 (Created 2008.10.21, modified 2011.05.06)
author=SODA AROMATIC CO., LTD.
license=CC BY-NC-SA
exact mass=310.35995
ionization energy=70 eV
ion type=[M]+*
computed spectral entropy=2.7286588149358564
computed normalized entropy=0.7501289852997193
SPLASH=splash10-0a4l-9000000000-ff50dcb9226e5bfc0225
submitter=submitter = University of Tokyo Team (Faculty of Engineering, University of Tokyo)
MoNA Rating=3.75

>  <NUM PEAKS>  (2130) 
38

>  <MASS SPECTRAL PEAKS>  (2130) 
27 6.3
29 19.31
39 4.5
41 36.17
42 9.96
43 88.37
44 2.03
53 1.42
54 1.87
55 26.53
56 14.21
57 99.99
58 4.44
67 1.96
68 2.04
69 12.44
70 10.96
71 58.05
72 2.45
82 1.42
83 8.22
84 5.65
85 35.7
86 1.67
97 5.63
98 2.8
99 9.85
111 1.74
112 1.97
113 5.95
126 1.48
127 3.72
140 1.09
141 2.2
154 1.06
155 1.68
169 1.22
183 1.09

$$$$

     RDKit          2D

 21 20  0  0  0  0  0  0  0  0999 V2000
  -19.4856   11.2500    0.0000 C   0  0  0  0  0  0  0  0  0  0  0  0
    6.4952   11.2500    0.0000 C   0  0  0  0  0  0  0  0  0  0  0  0
  -18.1865   10.5000    0.0000 C   0  0  0  0  0  0  0  0  0  0  0  0
    5.1962   10.5000    0.0000 C   0  0  0  0  0  0  0  0  0  0  0  0
  -16.8875   11.2500    0.0000 C   0  0  0  0  0  0  0  0  0  0  0  0
    3.8971   11.2500    0.0000 C   0  0  0  0  0  0  0  0  0  0  0  0
  -15.5885   10.5000    0.0000 C   0  0  0  0  0  0  0  0  0  0  0  0
    2.5981   10.5000    0.0000 C   0  0  0  0  0  0  0  0  0  0  0  0
  -14.2894   11.2500    0.0000 C   0  0  0  0  0  0  0  0  0  0  0  0
    1.2990   11.2500    0.0000 C   0  0  0  0  0  0  0  0  0  0  0  0
  -12.9904   10.5000    0.0000 C   0  0  0  0  0  0  0  0  0  0  0  0
    0.0000   10.5000    0.0000 C   0  0  0  0  0  0  0  0  0  0  0  0
  -11.6913   11.2500    0.0000 C   0  0  0  0  0  0  0  0  0  0  0  0
   -1.2990   11.2500    0.0000 C   0  0  0  0  0  0  0  0  0  0  0  0
  -10.3923   10.5000    0.0000 C   0  0  0  0  0  0  0  0  0  0  0  0
   -2.5981   10.5000    0.0000 C   0  0  0  0  0  0  0  0  0  0  0  0
   -9.0933   11.2500    0.0000 C   0  0  0  0  0  0  0  0  0  0  0  0
   -3.8971   11.2500    0.0000 C   0  0  0  0  0  0  0  0  0  0  0  0
   -7.7942   10.5000    0.0000 C   0  0  0  0  0  0  0  0  0  0  0  0
   -5.1962   10.5000    0.0000 C   0  0  0  0  0  0  0  0  0  0  0  0
   -6.4952   11.2500    0.0000 C   0  0  0  0  0  0  0  0  0  0  0  0
  3  1  1  0
  4  2  1  0
  5  3  1  0
  6  4  1  0
  7  5  1  0
  8  6  1  0
  9  7  1  0
 10  8  1  0
 11  9  1  0
 12 10  1  0
 13 11  1  0
 14 12  1  0
 15 13  1  0
 16 14  1  0
 17 15  1  0
 18 16  1  0
 19 17  1  0
 20 18  1  0
 21 19  1  0
 21 20  1  0
M  END
>  <NAME>  (2131) 
HENICOSANE

>  <SYNONYMS>  (2131) 


>  <SPECTRUM TYPE>  (2131) 
MS1

>  <INSTRUMENT TYPE>  (2131) 
EI-B

>  <INSTRUMENT>  (2131) 
HITACHI M-80B

>  <ION MODE>  (2131) 
P

>  <INCHIKEY>  (2131) 
FNAZRRHPUDJQCJ-UHFFFAOYSA-N

>  <FORMULA>  (2131) 
C21H44

>  <EXACT MASS>  (2131) 
296.344301408

>  <MW>  (2131) 
296

>  <ID>  (2131) 
JP009118

>  <CONTRIBUTOR>  (2131) 
University of Tokyo Team, {Faculty of Engineering, University of Tokyo

>  <COMMENT>  (2131) 
SMILES=CCCCCCCCCCCCCCCCCCCCC
cas=629-94-7
InChI=InChI=1S/C21H44/c1-3-5-7-9-11-13-15-17-19-21-20-18-16-14-12-10-8-6-4-2/h3-21H2,1-2H3
computed SMILES=CCCCCCCCCCCCCCCCCCCCC
accession=JP009118
date=2016.01.19 (Created 2008.10.21, modified 2011.05.06)
author=SODA AROMATIC CO., LTD.
license=CC BY-NC-SA
exact mass=296.3443
ionization energy=70 eV
ion type=[M]+*
computed spectral entropy=2.736912819283896
computed normalized entropy=0.752398073641715
SPLASH=splash10-0a4l-9000000000-e59f7d9328ef554ce284
submitter=submitter = University of Tokyo Team (Faculty of Engineering, University of Tokyo)
MoNA Rating=3.75

>  <NUM PEAKS>  (2131) 
38

>  <MASS SPECTRAL PEAKS>  (2131) 
27 6.4
29 18.42
39 3.87
41 36.32
42 9.47
43 87.01
44 2.51
53 1.25
54 2.23
55 26.74
56 13.48
57 99.99
58 3.82
67 2.23
68 2
69 12.38
70 10.71
71 58.26
72 2.95
82 1.33
83 7.88
84 6.01
85 39
86 1.95
97 4.95
98 3.75
99 10.03
111 1.85
112 2.48
113 5.12
126 1.73
127 3.27
140 1.15
141 2.6
155 1.7
169 1.6
183 1
296 1.11

$$$$

     RDKit          2D

 11 11  0  0  0  0  0  0  0  0999 V2000
   -3.5281    1.9308    0.0000 C   0  0  0  0  0  0  0  0  0  0  0  0
    0.0342    3.0798    0.0000 C   0  0  0  0  0  0  0  0  0  0  0  0
   -1.8942    3.0798    0.0000 C   0  0  0  0  0  0  0  0  0  0  0  0
   -2.2290    1.1808    0.0000 C   0  0  0  0  0  0  0  0  0  0  0  0
    2.9671   -0.3192    0.0000 C   0  0  0  0  0  0  0  0  0  0  0  0
    2.9676    1.1816    0.0000 C   0  0  0  0  0  0  0  0  0  0  0  0
    1.6676   -1.0701    0.0000 C   0  0  0  0  0  0  0  0  0  0  0  0
    1.6686    1.9316    0.0000 C   0  0  0  0  0  0  0  0  0  0  0  0
    0.3686   -0.3201    0.0000 C   0  0  0  0  0  0  0  0  0  0  0  0
    0.3691    1.1808    0.0000 C   0  0  0  0  0  0  0  0  0  0  0  0
   -0.9300    1.9308    0.0000 C   0  0  0  0  0  0  0  0  0  0  0  0
  4  1  1  0
  6  5  2  0
  7  5  1  0
  8  6  1  0
  9  7  2  0
 10  8  2  0
 10  9  1  0
 11  2  1  0
 11  3  1  0
 11  4  1  0
 11 10  1  0
M  END
>  <NAME>  (2132) 
TERT-PENTYLBENZENE

>  <SYNONYMS>  (2132) 


>  <SPECTRUM TYPE>  (2132) 
MS1

>  <INSTRUMENT TYPE>  (2132) 
EI-B

>  <INSTRUMENT>  (2132) 
HITACHI M-80B

>  <ION MODE>  (2132) 
P

>  <INCHIKEY>  (2132) 
QHTJSSMHBLGUHV-UHFFFAOYSA-N

>  <FORMULA>  (2132) 
C11H16

>  <EXACT MASS>  (2132) 
148.125200512

>  <MW>  (2132) 
148

>  <ID>  (2132) 
JP009117

>  <CONTRIBUTOR>  (2132) 
University of Tokyo Team, {Faculty of Engineering, University of Tokyo

>  <COMMENT>  (2132) 
SMILES=CCC(C)(C)c(c1)cccc1
InChI=InChI=1S/C11H16/c1-4-11(2,3)10-8-6-5-7-9-10/h5-9H,4H2,1-3H3
computed SMILES=C=1C=CC(=CC1)C(C)(C)CC
accession=JP009117
date=2016.01.19 (Created 2008.10.21, modified 2011.05.06)
author=SODA AROMATIC CO., LTD.
license=CC BY-NC-SA
exact mass=148.1252
ionization energy=70 eV
ion type=[M]+*
computed spectral entropy=2.452441071816624
computed normalized entropy=0.7013973311094568
SPLASH=splash10-014l-8900000000-a9bc879220822760a7a7
submitter=submitter = University of Tokyo Team (Faculty of Engineering, University of Tokyo)
MoNA Rating=3.75

>  <NUM PEAKS>  (2132) 
33

>  <MASS SPECTRAL PEAKS>  (2132) 
27 5.22
28 1.41
29 4.31
39 5.81
41 14.89
43 1.4
50 2.03
51 5.29
52 1.57
53 1.59
55 3.14
63 2.28
65 3.4
76 1.18
77 8.23
78 4.5
79 7.01
89 1.22
91 63.99
92 4.23
102 1.31
103 5.72
104 2.02
105 3.57
115 4.67
116 1.27
117 3.23
118 2.31
119 99.99
120 8.76
133 2.29
148 13.62
149 1.35

$$$$

     RDKit          2D

 20 19  0  0  0  0  0  0  0  0999 V2000
    5.8457   10.1250    0.0000 C   0  0  0  0  0  0  0  0  0  0  0  0
  -17.5370   10.1250    0.0000 C   0  0  0  0  0  0  0  0  0  0  0  0
    4.5466   10.8750    0.0000 C   0  0  0  0  0  0  0  0  0  0  0  0
  -16.2380   10.8750    0.0000 C   0  0  0  0  0  0  0  0  0  0  0  0
    3.2476   10.1250    0.0000 C   0  0  0  0  0  0  0  0  0  0  0  0
  -14.9389   10.1250    0.0000 C   0  0  0  0  0  0  0  0  0  0  0  0
    1.9486   10.8750    0.0000 C   0  0  0  0  0  0  0  0  0  0  0  0
  -13.6399   10.8750    0.0000 C   0  0  0  0  0  0  0  0  0  0  0  0
    0.6495   10.1250    0.0000 C   0  0  0  0  0  0  0  0  0  0  0  0
  -12.3409   10.1250    0.0000 C   0  0  0  0  0  0  0  0  0  0  0  0
   -0.6495   10.8750    0.0000 C   0  0  0  0  0  0  0  0  0  0  0  0
  -11.0418   10.8750    0.0000 C   0  0  0  0  0  0  0  0  0  0  0  0
   -1.9486   10.1250    0.0000 C   0  0  0  0  0  0  0  0  0  0  0  0
   -9.7428   10.1250    0.0000 C   0  0  0  0  0  0  0  0  0  0  0  0
   -3.2476   10.8750    0.0000 C   0  0  0  0  0  0  0  0  0  0  0  0
   -8.4437   10.8750    0.0000 C   0  0  0  0  0  0  0  0  0  0  0  0
   -4.5466   10.1250    0.0000 C   0  0  0  0  0  0  0  0  0  0  0  0
   -7.1447   10.1250    0.0000 C   0  0  0  0  0  0  0  0  0  0  0  0
   -7.1447    8.6250    0.0000 O   0  0  0  0  0  0  0  0  0  0  0  0
   -5.8457   10.8750    0.0000 O   0  0  0  0  0  0  0  0  0  0  0  0
  3  1  1  0
  4  2  1  0
  5  3  1  0
  6  4  1  0
  7  5  1  0
  8  6  1  0
  9  7  1  0
 10  8  1  0
 11  9  1  0
 12 10  1  0
 13 11  1  0
 14 12  1  0
 15 13  1  0
 16 14  1  0
 17 15  1  0
 18 16  1  0
 19 18  2  0
 20 17  1  0
 20 18  1  0
M  END
>  <NAME>  (2133) 
NONYL NONANOATE

>  <SYNONYMS>  (2133) 


>  <SPECTRUM TYPE>  (2133) 
MS1

>  <INSTRUMENT TYPE>  (2133) 
EI-B

>  <INSTRUMENT>  (2133) 
HITACHI M-80B

>  <ION MODE>  (2133) 
P

>  <INCHIKEY>  (2133) 
WWDHABCVIVMHKP-UHFFFAOYSA-N

>  <FORMULA>  (2133) 
C18H36O2

>  <EXACT MASS>  (2133) 
284.271530392

>  <MW>  (2133) 
284

>  <ID>  (2133) 
JP009116

>  <CONTRIBUTOR>  (2133) 
University of Tokyo Team, {Faculty of Engineering, University of Tokyo

>  <COMMENT>  (2133) 
SMILES=CCCCCCCCCOC(=O)CCCCCCCC
InChI=InChI=1S/C18H36O2/c1-3-5-7-9-11-13-15-17-20-18(19)16-14-12-10-8-6-4-2/h3-17H2,1-2H3
computed SMILES=O=C(OCCCCCCCCC)CCCCCCCC
accession=JP009116
date=2016.01.19 (Created 2008.10.21, modified 2011.05.06)
author=SODA AROMATIC CO., LTD.
license=CC BY-NC-SA
exact mass=284.27153
ionization energy=70 eV
ion type=[M]+*
computed spectral entropy=3.41521710830583
computed normalized entropy=0.82750324793907
SPLASH=splash10-0a4l-9200000000-80ec55ae694288e7119a
submitter=submitter = University of Tokyo Team (Faculty of Engineering, University of Tokyo)
MoNA Rating=3.75

>  <NUM PEAKS>  (2133) 
62

>  <MASS SPECTRAL PEAKS>  (2133) 
27 12.03
29 29.73
31 1.33
39 6.7
41 69.01
42 23.74
43 99.99
44 1.75
45 1.87
53 3.1
54 5.25
55 60.21
56 46.11
57 73.72
58 3.19
59 1.58
60 10.49
61 27.24
67 5.97
68 10.51
69 37.66
70 41.3
71 49.33
72 2.3
73 17.19
74 1.5
79 1.16
81 4.85
82 13.28
83 32.56
84 33.69
85 16.95
86 1.24
87 4.48
89 2.99
95 1.53
96 6.24
97 35.09
98 32.59
99 2.67
101 3.09
103 1.9
111 2.94
112 3.11
115 6.59
116 2.93
123 1.25
126 54.81
127 6.21
129 5.56
139 1.26
140 1.61
141 34.68
142 2.95
145 3.38
158 8.33
159 87.98
160 7.26
171 2.29
173 1.39
199 1.13
284 1.36

$$$$

     RDKit          2D

 10  9  0  0  0  0  0  0  0  0999 V2000
   -6.4952    4.5000    0.0000 C   0  0  0  0  0  0  0  0  0  0  0  0
   -5.1962    2.2500    0.0000 C   0  0  0  0  0  0  0  0  0  0  0  0
    2.5981    3.7500    0.0000 C   0  0  0  0  0  0  0  0  0  0  0  0
    1.2990    6.0000    0.0000 C   0  0  0  0  0  0  0  0  0  0  0  0
   -3.8971    4.5000    0.0000 C   0  0  0  0  0  0  0  0  0  0  0  0
    0.0000    3.7500    0.0000 C   0  0  0  0  0  0  0  0  0  0  0  0
   -5.1962    3.7500    0.0000 C   0  0  0  0  0  0  0  0  0  0  0  0
    1.2990    4.5000    0.0000 C   0  0  0  0  0  0  0  0  0  0  0  0
   -2.5981    3.7500    0.0000 S   0  0  0  0  0  0  0  0  0  0  0  0
   -1.2990    4.5000    0.0000 S   0  0  0  0  0  0  0  0  0  0  0  0
  7  1  1  0
  7  2  1  0
  7  5  1  0
  8  3  1  0
  8  4  1  0
  8  6  1  0
  9  5  1  0
 10  6  1  0
 10  9  1  0
M  END
>  <NAME>  (2134) 
DIISOBUTYL DISULFIDE

>  <SYNONYMS>  (2134) 


>  <SPECTRUM TYPE>  (2134) 
MS1

>  <INSTRUMENT TYPE>  (2134) 
EI-B

>  <INSTRUMENT>  (2134) 
HITACHI M-80B

>  <ION MODE>  (2134) 
P

>  <INCHIKEY>  (2134) 
ONJROLGQWMBXAP-UHFFFAOYSA-N

>  <FORMULA>  (2134) 
C8H18S2

>  <EXACT MASS>  (2134) 
178.084992576

>  <MW>  (2134) 
178

>  <ID>  (2134) 
JP009115

>  <CONTRIBUTOR>  (2134) 
University of Tokyo Team, {Faculty of Engineering, University of Tokyo

>  <COMMENT>  (2134) 
SMILES=CC(C)CSSCC(C)C
cas=1518-72-5
InChI=InChI=1S/C8H18S2/c1-7(2)5-9-10-6-8(3)4/h7-8H,5-6H2,1-4H3
computed SMILES=S(SCC(C)C)CC(C)C
accession=JP009115
date=2016.01.19 (Created 2008.10.21, modified 2011.05.06)
author=SODA AROMATIC CO., LTD.
license=CC BY-NC-SA
exact mass=178.08499
ionization energy=70 eV
ion type=[M]+*
computed spectral entropy=2.2631091063513926
computed normalized entropy=0.7121053409292374
SPLASH=splash10-0a6r-9100000000-2d7fb1cacca5ff24bbda
submitter=submitter = University of Tokyo Team (Faculty of Engineering, University of Tokyo)
MoNA Rating=3.75

>  <NUM PEAKS>  (2134) 
24

>  <MASS SPECTRAL PEAKS>  (2134) 
27 10.97
29 27.31
39 10.81
40 1.12
41 38.42
42 1.8
43 8.66
45 6.1
46 3.01
47 2.96
53 1.48
55 6.56
56 1.64
57 99.99
58 4.27
59 1.14
73 1.25
79 2.03
87 4.67
88 1.85
122 9.18
178 17.39
179 1.52
180 1.56

$$$$

     RDKit          2D

 14 13  0  0  0  0  0  0  0  0999 V2000
    3.8971    6.7500    0.0000 C   0  0  0  0  0  0  0  0  0  0  0  0
  -11.6913    6.7500    0.0000 C   0  0  0  0  0  0  0  0  0  0  0  0
    2.5981    7.5000    0.0000 C   0  0  0  0  0  0  0  0  0  0  0  0
    1.2990    6.7500    0.0000 C   0  0  0  0  0  0  0  0  0  0  0  0
    0.0000    7.5000    0.0000 C   0  0  0  0  0  0  0  0  0  0  0  0
   -1.2990    6.7500    0.0000 C   0  0  0  0  0  0  0  0  0  0  0  0
   -2.5981    7.5000    0.0000 C   0  0  0  0  0  0  0  0  0  0  0  0
   -3.8971    6.7500    0.0000 C   0  0  0  0  0  0  0  0  0  0  0  0
   -5.1962    7.5000    0.0000 C   0  0  0  0  0  0  0  0  0  0  0  0
   -6.4952    6.7500    0.0000 C   0  0  0  0  0  0  0  0  0  0  0  0
   -7.7942    7.5000    0.0000 C   0  0  0  0  0  0  0  0  0  0  0  0
   -9.0933    6.7500    0.0000 C   0  0  0  0  0  0  0  0  0  0  0  0
   -9.0933    5.2500    0.0000 O   0  0  0  0  0  0  0  0  0  0  0  0
  -10.3923    7.5000    0.0000 O   0  0  0  0  0  0  0  0  0  0  0  0
  3  1  2  0
  4  3  1  0
  5  4  1  0
  6  5  1  0
  7  6  1  0
  8  7  1  0
  9  8  1  0
 10  9  1  0
 11 10  1  0
 12 11  1  0
 13 12  2  0
 14  2  1  0
 14 12  1  0
M  END
>  <NAME>  (2135) 
METHYL 10-UNDECENOATE

>  <SYNONYMS>  (2135) 


>  <SPECTRUM TYPE>  (2135) 
MS1

>  <INSTRUMENT TYPE>  (2135) 
EI-B

>  <INSTRUMENT>  (2135) 
HITACHI M-80B

>  <ION MODE>  (2135) 
P

>  <INCHIKEY>  (2135) 
KISVAASFGZJBCY-UHFFFAOYSA-N

>  <FORMULA>  (2135) 
C12H22O2

>  <EXACT MASS>  (2135) 
198.161979944

>  <MW>  (2135) 
198

>  <ID>  (2135) 
JP009114

>  <CONTRIBUTOR>  (2135) 
University of Tokyo Team, {Faculty of Engineering, University of Tokyo

>  <COMMENT>  (2135) 
SMILES=C=CCCCCCCCCC(=O)OC
cas=111-81-9
InChI=InChI=1S/C12H22O2/c1-3-4-5-6-7-8-9-10-11-12(13)14-2/h3H,1,4-11H2,2H3
computed SMILES=O=C(OC)CCCCCCCCC=C
accession=JP009114
date=2016.01.19 (Created 2008.10.21, modified 2011.05.06)
author=SODA AROMATIC CO., LTD.
license=CC BY-NC-SA
exact mass=198.16198
ionization energy=70 eV
ion type=[M]+*
computed spectral entropy=3.5911688028415494
computed normalized entropy=0.826733348776255
SPLASH=splash10-05fu-9100000000-e91d6f18ada053603952
submitter=submitter = University of Tokyo Team (Faculty of Engineering, University of Tokyo)
MoNA Rating=3.75

>  <NUM PEAKS>  (2135) 
77

>  <MASS SPECTRAL PEAKS>  (2135) 
14 1.53
15 8.04
18 1.13
26 1.19
27 13.63
29 18.95
30 1.33
31 2.77
39 21.74
41 74.1
42 13.84
43 26.23
44 1.49
45 4.01
51 1.38
53 8.32
54 12.08
55 88.37
56 8.86
57 6.05
59 29.93
60 1.07
65 1.56
66 1.33
67 17.24
68 14.48
69 35.57
70 4.11
71 3.64
72 1.57
73 6.53
74 99.99
75 7.21
77 1.3
79 3.44
80 3
81 12.53
82 19.85
83 28.29
84 23.52
85 4.3
87 49.35
88 5
93 2.03
94 2.84
95 7.36
96 28.98
97 13.37
98 11.89
99 2.2
100 1
101 5.17
107 2.03
108 1.13
109 3.38
110 6.3
111 3.43
112 1.25
113 2.84
114 3.77
115 4.38
119 1.53
122 4.76
123 7.52
124 24.67
125 6.03
127 1.87
128 2.35
129 1.7
137 4.58
138 3.52
141 1.67
148 2.18
149 5.77
155 1.24
166 8.4
167 3.13

$$$$

     RDKit          2D

 16 15  0  0  0  0  0  0  0  0999 V2000
   10.7171    9.5625    0.0000 C   0  0  0  0  0  0  0  0  0  0  0  0
   -6.1704    7.3125    0.0000 C   0  0  0  0  0  0  0  0  0  0  0  0
    2.9228    5.0625    0.0000 C   0  0  0  0  0  0  0  0  0  0  0  0
    9.4180    8.8125    0.0000 C   0  0  0  0  0  0  0  0  0  0  0  0
   -4.8714    6.5625    0.0000 C   0  0  0  0  0  0  0  0  0  0  0  0
    9.4180    7.3125    0.0000 C   0  0  0  0  0  0  0  0  0  0  0  0
   -3.5724    7.3125    0.0000 C   0  0  0  0  0  0  0  0  0  0  0  0
    8.1190    6.5625    0.0000 C   0  0  0  0  0  0  0  0  0  0  0  0
   -2.2733    6.5625    0.0000 C   0  0  0  0  0  0  0  0  0  0  0  0
    6.8200    7.3125    0.0000 C   0  0  0  0  0  0  0  0  0  0  0  0
   -0.9743    7.3125    0.0000 C   0  0  0  0  0  0  0  0  0  0  0  0
    5.5209    6.5625    0.0000 C   0  0  0  0  0  0  0  0  0  0  0  0
    0.3248    6.5625    0.0000 C   0  0  0  0  0  0  0  0  0  0  0  0
    2.9228    6.5625    0.0000 C   0  0  0  0  0  0  0  0  0  0  0  0
    4.2219    7.3125    0.0000 O   0  0  0  0  0  0  0  0  0  0  0  0
    1.6238    7.3125    0.0000 O   0  0  0  0  0  0  0  0  0  0  0  0
  4  1  1  0
  5  2  1  0
  6  4  1  0
  7  5  1  0
  6  8  2  0
  9  7  1  0
 10  8  1  0
  9 11  2  0
 12 10  1  0
 13 11  1  0
 14  3  1  0
 15 12  1  0
 15 14  1  0
 16 13  1  0
 16 14  1  0
M  END
>  <NAME>  (2136) 
ACETALDEHYDE 2E-HEXENYL 3Z-HEXENYL ACETAL

>  <SYNONYMS>  (2136) 


>  <SPECTRUM TYPE>  (2136) 
MS1

>  <INSTRUMENT TYPE>  (2136) 
EI-B

>  <INSTRUMENT>  (2136) 
HITACHI M-80B

>  <ION MODE>  (2136) 
P

>  <INCHIKEY>  (2136) 
LNXYMQIPQAMVLK-ZOEDNYEGSA-N

>  <FORMULA>  (2136) 
C14H26O2

>  <EXACT MASS>  (2136) 
226.193280072

>  <MW>  (2136) 
226

>  <ID>  (2136) 
JP009113

>  <CONTRIBUTOR>  (2136) 
University of Tokyo Team, {Faculty of Engineering, University of Tokyo

>  <COMMENT>  (2136) 
SMILES=CCCC([H])=C([H])COC(C)OCCC([H])=C([H])CC
InChI=InChI=1S/C14H26O2/c1-4-6-8-10-12-15-14(3)16-13-11-9-7-5-2/h6,8-9,11,14H,4-5,7,10,12-13H2,1-3H3/b8-6-,11-9+
computed SMILES=O(CC=CCCC)C(OCCC=CCC)C
accession=JP009113
date=2016.01.19 (Created 2008.10.21, modified 2011.05.06)
author=SODA AROMATIC CO., LTD.
license=CC BY-NC-SA
exact mass=226.19328
ionization energy=70 eV
ion type=[M]+*
computed spectral entropy=2.2183814597908005
computed normalized entropy=0.7176806832208344
SPLASH=splash10-053r-9000000000-75b23ff8c2fc0e1f6aea
submitter=submitter = University of Tokyo Team (Faculty of Engineering, University of Tokyo)
MoNA Rating=3.75

>  <NUM PEAKS>  (2136) 
22

>  <MASS SPECTRAL PEAKS>  (2136) 
27 5.94
29 6.62
31 1.03
39 7.5
41 31.35
42 2.91
43 5.71
45 3.49
53 3.63
54 5.46
55 54.38
56 4.79
57 3.08
67 8.31
68 1.61
69 3.83
81 1.85
82 8.54
83 99.99
84 7.03
113 1.07
127 8.18

$$$$

     RDKit          2D

 16 16  0  0  0  0  0  0  0  0999 V2000
    5.5216    4.2579    0.0000 C   0  0  0  0  0  0  0  0  0  0  0  0
   -2.2726    2.7579    0.0000 C   0  0  0  0  0  0  0  0  0  0  0  0
    4.2226    5.0079    0.0000 C   0  0  0  0  0  0  0  0  0  0  0  0
    2.9236    4.2579    0.0000 C   0  0  0  0  0  0  0  0  0  0  0  0
   -8.7678    6.5079    0.0000 C   0  0  0  0  0  0  0  0  0  0  0  0
   -8.7683    5.0071    0.0000 C   0  0  0  0  0  0  0  0  0  0  0  0
   -7.4683    7.2587    0.0000 C   0  0  0  0  0  0  0  0  0  0  0  0
    1.6245    5.0079    0.0000 C   0  0  0  0  0  0  0  0  0  0  0  0
   -7.4692    4.2571    0.0000 C   0  0  0  0  0  0  0  0  0  0  0  0
   -6.1692    6.5087    0.0000 C   0  0  0  0  0  0  0  0  0  0  0  0
    0.3255    4.2579    0.0000 C   0  0  0  0  0  0  0  0  0  0  0  0
   -4.8707    4.2579    0.0000 C   0  0  0  0  0  0  0  0  0  0  0  0
   -2.2726    4.2579    0.0000 C   0  0  0  0  0  0  0  0  0  0  0  0
   -6.1697    5.0079    0.0000 C   0  0  0  0  0  0  0  0  0  0  0  0
   -0.9736    5.0079    0.0000 O   0  0  0  0  0  0  0  0  0  0  0  0
   -3.5716    5.0079    0.0000 O   0  0  0  0  0  0  0  0  0  0  0  0
  3  1  1  0
  4  3  1  0
  6  5  2  0
  7  5  1  0
  8  4  1  0
  9  6  1  0
 10  7  2  0
 11  8  1  0
 13  2  1  0
 14  9  2  0
 14 10  1  0
 14 12  1  0
 15 11  1  0
 15 13  1  0
 16 12  1  0
 16 13  1  0
M  END
>  <NAME>  (2137) 
ACETALDEHYDE BENZYL PENTYL ACETAL

>  <SYNONYMS>  (2137) 


>  <SPECTRUM TYPE>  (2137) 
MS1

>  <INSTRUMENT TYPE>  (2137) 
EI-B

>  <INSTRUMENT>  (2137) 
HITACHI M-80B

>  <ION MODE>  (2137) 
P

>  <INCHIKEY>  (2137) 
YQAXOOYRJPMFQS-UHFFFAOYSA-N

>  <FORMULA>  (2137) 
C14H22O2

>  <EXACT MASS>  (2137) 
222.161979944

>  <MW>  (2137) 
222

>  <ID>  (2137) 
JP009112

>  <CONTRIBUTOR>  (2137) 
University of Tokyo Team, {Faculty of Engineering, University of Tokyo

>  <COMMENT>  (2137) 
SMILES=CCCCCOC(C)OCc(c1)cccc1
InChI=InChI=1S/C14H22O2/c1-3-4-8-11-15-13(2)16-12-14-9-6-5-7-10-14/h5-7,9-10,13H,3-4,8,11-12H2,1-2H3
computed SMILES=O(CC=1C=CC=CC1)C(OCCCCC)C
accession=JP009112
date=2016.01.19 (Created 2008.10.21, modified 2011.05.06)
author=SODA AROMATIC CO., LTD.
license=CC BY-NC-SA
exact mass=222.16198
ionization energy=70 eV
ion type=[M]+*
computed spectral entropy=2.435413967593173
computed normalized entropy=0.7232551253457751
SPLASH=splash10-0006-9100000000-6fd392c4587c1285d87b
submitter=submitter = University of Tokyo Team (Faculty of Engineering, University of Tokyo)
MoNA Rating=3.75

>  <NUM PEAKS>  (2137) 
29

>  <MASS SPECTRAL PEAKS>  (2137) 
27 4.88
29 5.86
31 1.11
39 4.78
41 7.94
42 2.4
43 21.35
44 1.08
45 9.81
51 1.96
55 2.96
63 1.13
65 8.68
71 21.83
72 1.04
77 3.4
78 1.05
79 2.13
89 1.66
90 2.57
91 99.99
92 19.96
105 1.86
107 1.49
108 1.44
115 3.53
133 2.82
134 19.57
135 6.38

$$$$

     RDKit          2D

 17 17  0  0  0  0  0  0  0  0999 V2000
   -6.4952   12.3200    0.0000 C   0  0  0  0  0  0  0  0  0  0  0  0
    1.2990    7.8200    0.0000 C   0  0  0  0  0  0  0  0  0  0  0  0
   -5.1962   11.5700    0.0000 C   0  0  0  0  0  0  0  0  0  0  0  0
   -5.1962   10.0700    0.0000 C   0  0  0  0  0  0  0  0  0  0  0  0
   -3.8971    9.3200    0.0000 C   0  0  0  0  0  0  0  0  0  0  0  0
    7.7942   11.5700    0.0000 C   0  0  0  0  0  0  0  0  0  0  0  0
    7.7947   10.0692    0.0000 C   0  0  0  0  0  0  0  0  0  0  0  0
    6.4947   12.3208    0.0000 C   0  0  0  0  0  0  0  0  0  0  0  0
   -2.5981   10.0700    0.0000 C   0  0  0  0  0  0  0  0  0  0  0  0
    6.4957    9.3192    0.0000 C   0  0  0  0  0  0  0  0  0  0  0  0
    5.1957   11.5708    0.0000 C   0  0  0  0  0  0  0  0  0  0  0  0
   -1.2990    9.3200    0.0000 C   0  0  0  0  0  0  0  0  0  0  0  0
    3.8971    9.3200    0.0000 C   0  0  0  0  0  0  0  0  0  0  0  0
    1.2990    9.3200    0.0000 C   0  0  0  0  0  0  0  0  0  0  0  0
    5.1962   10.0700    0.0000 C   0  0  0  0  0  0  0  0  0  0  0  0
    0.0000   10.0700    0.0000 O   0  0  0  0  0  0  0  0  0  0  0  0
    2.5981   10.0700    0.0000 O   0  0  0  0  0  0  0  0  0  0  0  0
  3  1  1  0
  4  3  1  0
  4  5  2  0
  7  6  2  0
  8  6  1  0
  9  5  1  0
 10  7  1  0
 11  8  2  0
 12  9  1  0
 14  2  1  0
 15 10  2  0
 15 11  1  0
 15 13  1  0
 16 12  1  0
 16 14  1  0
 17 13  1  0
 17 14  1  0
M  END
>  <NAME>  (2138) 
ACETALDEHYDE BENZYL CIS-3-HEXENYL ACETAL

>  <SYNONYMS>  (2138) 


>  <SPECTRUM TYPE>  (2138) 
MS1

>  <INSTRUMENT TYPE>  (2138) 
EI-B

>  <INSTRUMENT>  (2138) 
HITACHI M-80B

>  <ION MODE>  (2138) 
P

>  <INCHIKEY>  (2138) 
LDEPYAQXQFOODV-PLNGDYQASA-N

>  <FORMULA>  (2138) 
C15H22O2

>  <EXACT MASS>  (2138) 
234.161979944

>  <MW>  (2138) 
234

>  <ID>  (2138) 
JP009111

>  <CONTRIBUTOR>  (2138) 
University of Tokyo Team, {Faculty of Engineering, University of Tokyo

>  <COMMENT>  (2138) 
SMILES=CCC=CCCOC(C)OCc(c1)cccc1
InChI=InChI=1S/C15H22O2/c1-3-4-5-9-12-16-14(2)17-13-15-10-7-6-8-11-15/h4-8,10-11,14H,3,9,12-13H2,1-2H3/b5-4-
computed SMILES=O(CC=1C=CC=CC1)C(OCCC=CCC)C
accession=JP009111
date=2016.01.19 (Created 2008.10.21, modified 2011.05.06)
author=SODA AROMATIC CO., LTD.
license=CC BY-NC-SA
exact mass=234.16198
ionization energy=70 eV
ion type=[M]+*
computed spectral entropy=2.1614019456532176
computed normalized entropy=0.6633940770109147
SPLASH=splash10-0006-9000000000-393f9dc18b67137a37b1
submitter=submitter = University of Tokyo Team (Faculty of Engineering, University of Tokyo)
MoNA Rating=3.75

>  <NUM PEAKS>  (2138) 
26

>  <MASS SPECTRAL PEAKS>  (2138) 
27 3.05
29 2.36
39 5.29
41 11.39
43 3.56
51 1.57
53 1.31
55 11.55
56 1.23
65 6.34
67 3.87
68 1.05
69 1.62
77 2.66
79 1.4
82 6.25
83 7.91
89 1.18
90 1.3
91 99.99
92 9.8
105 1.05
113 1.54
127 2.59
135 13.91
136 1.23

$$$$

     RDKit          2D

 17 17  0  0  0  0  0  0  0  0999 V2000
    5.5216    5.0079    0.0000 C   0  0  0  0  0  0  0  0  0  0  0  0
   -3.5716    2.7579    0.0000 C   0  0  0  0  0  0  0  0  0  0  0  0
    4.2226    4.2579    0.0000 C   0  0  0  0  0  0  0  0  0  0  0  0
    2.9236    5.0079    0.0000 C   0  0  0  0  0  0  0  0  0  0  0  0
    1.6245    4.2579    0.0000 C   0  0  0  0  0  0  0  0  0  0  0  0
  -10.0668    6.5079    0.0000 C   0  0  0  0  0  0  0  0  0  0  0  0
  -10.0673    5.0071    0.0000 C   0  0  0  0  0  0  0  0  0  0  0  0
   -8.7673    7.2587    0.0000 C   0  0  0  0  0  0  0  0  0  0  0  0
    0.3255    5.0079    0.0000 C   0  0  0  0  0  0  0  0  0  0  0  0
   -8.7683    4.2571    0.0000 C   0  0  0  0  0  0  0  0  0  0  0  0
   -7.4683    6.5087    0.0000 C   0  0  0  0  0  0  0  0  0  0  0  0
   -0.9736    4.2579    0.0000 C   0  0  0  0  0  0  0  0  0  0  0  0
   -6.1697    4.2579    0.0000 C   0  0  0  0  0  0  0  0  0  0  0  0
   -3.5716    4.2579    0.0000 C   0  0  0  0  0  0  0  0  0  0  0  0
   -7.4687    5.0079    0.0000 C   0  0  0  0  0  0  0  0  0  0  0  0
   -2.2726    5.0079    0.0000 O   0  0  0  0  0  0  0  0  0  0  0  0
   -4.8707    5.0079    0.0000 O   0  0  0  0  0  0  0  0  0  0  0  0
  3  1  1  0
  4  3  1  0
  5  4  1  0
  7  6  2  0
  8  6  1  0
  5  9  2  0
 10  7  1  0
 11  8  2  0
 12  9  1  0
 14  2  1  0
 15 10  2  0
 15 11  1  0
 15 13  1  0
 16 12  1  0
 16 14  1  0
 17 13  1  0
 17 14  1  0
M  END
>  <NAME>  (2139) 
ACETALDEHYDE BENZYL (E)-2-HEXENYL ACETAL

>  <SYNONYMS>  (2139) 


>  <SPECTRUM TYPE>  (2139) 
MS1

>  <INSTRUMENT TYPE>  (2139) 
EI-B

>  <INSTRUMENT>  (2139) 
HITACHI M-80B

>  <ION MODE>  (2139) 
P

>  <INCHIKEY>  (2139) 
DUXYRRLZTBFRPL-WEVVVXLNSA-N

>  <FORMULA>  (2139) 
C15H22O2

>  <EXACT MASS>  (2139) 
234.161979944

>  <MW>  (2139) 
234

>  <ID>  (2139) 
JP009110

>  <CONTRIBUTOR>  (2139) 
University of Tokyo Team, {Faculty of Engineering, University of Tokyo

>  <COMMENT>  (2139) 
SMILES=CCCC=CCOC(C)OCc(c1)cccc1
InChI=InChI=1S/C15H22O2/c1-3-4-5-9-12-16-14(2)17-13-15-10-7-6-8-11-15/h5-11,14H,3-4,12-13H2,1-2H3/b9-5+
computed SMILES=O(CC=CCCC)C(OCC=1C=CC=CC1)C
accession=JP009110
date=2016.01.19 (Created 2008.10.21, modified 2011.05.06)
author=SODA AROMATIC CO., LTD.
license=CC BY-NC-SA
exact mass=234.16198
ionization energy=70 eV
ion type=[M]+*
computed spectral entropy=2.733234738741911
computed normalized entropy=0.7409390230124585
SPLASH=splash10-0006-9000000000-39ead0e2c3bd75007c12
submitter=submitter = University of Tokyo Team (Faculty of Engineering, University of Tokyo)
MoNA Rating=3.75

>  <NUM PEAKS>  (2139) 
40

>  <MASS SPECTRAL PEAKS>  (2139) 
27 5.32
29 4.39
39 7.32
41 15.45
42 3.07
43 5.81
45 1.25
51 2.49
53 1.82
54 2.35
55 21.32
56 3.33
57 2.45
63 1.21
65 7.66
67 3.24
69 1.1
77 4.52
78 1.06
79 4.43
81 2.34
82 2.06
83 19.32
84 3.21
89 1.46
90 2.05
91 99.99
92 23.89
93 1.16
99 6.99
105 2.05
107 7.29
108 1.74
117 1.13
127 5.15
133 1.11
134 2.08
135 2.06
146 1.67
147 1.37

$$$$

     RDKit          2D

 16 15  0  0  0  0  0  0  0  0999 V2000
    4.5466    7.8750    0.0000 C   0  0  0  0  0  0  0  0  0  0  0  0
  -13.6399    7.8750    0.0000 C   0  0  0  0  0  0  0  0  0  0  0  0
   -4.5466   10.1250    0.0000 C   0  0  0  0  0  0  0  0  0  0  0  0
    3.2476    8.6250    0.0000 C   0  0  0  0  0  0  0  0  0  0  0  0
  -12.3409    8.6250    0.0000 C   0  0  0  0  0  0  0  0  0  0  0  0
    1.9486    7.8750    0.0000 C   0  0  0  0  0  0  0  0  0  0  0  0
  -11.0418    7.8750    0.0000 C   0  0  0  0  0  0  0  0  0  0  0  0
    0.6495    8.6250    0.0000 C   0  0  0  0  0  0  0  0  0  0  0  0
   -9.7428    8.6250    0.0000 C   0  0  0  0  0  0  0  0  0  0  0  0
   -0.6495    7.8750    0.0000 C   0  0  0  0  0  0  0  0  0  0  0  0
   -8.4437    7.8750    0.0000 C   0  0  0  0  0  0  0  0  0  0  0  0
   -1.9486    8.6250    0.0000 C   0  0  0  0  0  0  0  0  0  0  0  0
   -7.1447    8.6250    0.0000 C   0  0  0  0  0  0  0  0  0  0  0  0
   -4.5466    8.6250    0.0000 C   0  0  0  0  0  0  0  0  0  0  0  0
   -3.2476    7.8750    0.0000 O   0  0  0  0  0  0  0  0  0  0  0  0
   -5.8457    7.8750    0.0000 O   0  0  0  0  0  0  0  0  0  0  0  0
  4  1  1  0
  5  2  1  0
  6  4  1  0
  7  5  1  0
  8  6  1  0
  9  7  1  0
  8 10  2  0
  9 11  2  0
 12 10  1  0
 13 11  1  0
 14  3  1  0
 15 12  1  0
 15 14  1  0
 16 13  1  0
 16 14  1  0
M  END
>  <NAME>  (2140) 
ACETALDEHYDE DI-TRANS-2-HEXENYL ACETAL

>  <SYNONYMS>  (2140) 


>  <SPECTRUM TYPE>  (2140) 
MS1

>  <INSTRUMENT TYPE>  (2140) 
EI-B

>  <INSTRUMENT>  (2140) 
HITACHI M-80B

>  <ION MODE>  (2140) 
P

>  <INCHIKEY>  (2140) 
FVXJKQGRPGCDDF-GFULKKFKSA-N

>  <FORMULA>  (2140) 
C14H26O2

>  <EXACT MASS>  (2140) 
226.193280072

>  <MW>  (2140) 
226

>  <ID>  (2140) 
JP009109

>  <CONTRIBUTOR>  (2140) 
University of Tokyo Team, {Faculty of Engineering, University of Tokyo

>  <COMMENT>  (2140) 
SMILES=CCCC=CCOC(C)OCC=CCCC
InChI=InChI=1S/C14H26O2/c1-4-6-8-10-12-15-14(3)16-13-11-9-7-5-2/h8-11,14H,4-7,12-13H2,1-3H3/b10-8+,11-9+
computed SMILES=O(CC=CCCC)C(OCC=CCCC)C
accession=JP009109
date=2016.01.19 (Created 2008.10.21, modified 2011.05.06)
author=SODA AROMATIC CO., LTD.
license=CC BY-NC-SA
exact mass=226.19328
ionization energy=70 eV
ion type=[M]+*
computed spectral entropy=2.6274584864172326
computed normalized entropy=0.7581242656991527
SPLASH=splash10-053r-9000000000-a5c0b0886655310e79a7
submitter=submitter = University of Tokyo Team (Faculty of Engineering, University of Tokyo)
MoNA Rating=3.75

>  <NUM PEAKS>  (2140) 
32

>  <MASS SPECTRAL PEAKS>  (2140) 
27 9.98
29 11.09
39 11.06
41 40.23
42 6.23
43 10.57
44 1.09
45 4.41
53 4.88
54 11.68
55 69.23
56 9.4
57 15.24
58 1.01
67 10.63
68 1.09
69 3.61
71 1.96
81 6.02
82 11.89
83 99.99
84 9.92
85 1.36
97 1.45
99 6.87
100 1.52
109 1.09
113 1.26
126 1.79
127 7.36
138 1.75
139 1.78

$$$$

     RDKit          2D

 15 14  0  0  0  0  0  0  0  0999 V2000
    4.5466    7.1250    0.0000 C   0  0  0  0  0  0  0  0  0  0  0  0
  -12.3409    7.8750    0.0000 C   0  0  0  0  0  0  0  0  0  0  0  0
   -4.5466    9.3750    0.0000 C   0  0  0  0  0  0  0  0  0  0  0  0
    3.2476    7.8750    0.0000 C   0  0  0  0  0  0  0  0  0  0  0  0
  -11.0418    7.1250    0.0000 C   0  0  0  0  0  0  0  0  0  0  0  0
    1.9486    7.1250    0.0000 C   0  0  0  0  0  0  0  0  0  0  0  0
   -9.7428    7.8750    0.0000 C   0  0  0  0  0  0  0  0  0  0  0  0
    0.6495    7.8750    0.0000 C   0  0  0  0  0  0  0  0  0  0  0  0
   -8.4437    7.1250    0.0000 C   0  0  0  0  0  0  0  0  0  0  0  0
   -0.6495    7.1250    0.0000 C   0  0  0  0  0  0  0  0  0  0  0  0
   -7.1447    7.8750    0.0000 C   0  0  0  0  0  0  0  0  0  0  0  0
   -1.9486    7.8750    0.0000 C   0  0  0  0  0  0  0  0  0  0  0  0
   -4.5466    7.8750    0.0000 C   0  0  0  0  0  0  0  0  0  0  0  0
   -5.8457    7.1250    0.0000 O   0  0  0  0  0  0  0  0  0  0  0  0
   -3.2476    7.1250    0.0000 O   0  0  0  0  0  0  0  0  0  0  0  0
  4  1  1  0
  5  2  1  0
  6  4  1  0
  7  5  1  0
  8  6  1  0
  9  7  1  0
  8 10  2  0
 11  9  1  0
 12 10  1  0
 13  3  1  0
 14 11  1  0
 14 13  1  0
 15 12  1  0
 15 13  1  0
M  END
>  <NAME>  (2141) 
ACETALDEHYDE TRANS-2-HEXENYL PENTYL ACETAL

>  <SYNONYMS>  (2141) 


>  <SPECTRUM TYPE>  (2141) 
MS1

>  <INSTRUMENT TYPE>  (2141) 
EI-B

>  <INSTRUMENT>  (2141) 
HITACHI M-80B

>  <ION MODE>  (2141) 
P

>  <INCHIKEY>  (2141) 
ZCEQBTCRZDAWBC-CSKARUKUSA-N

>  <FORMULA>  (2141) 
C13H26O2

>  <EXACT MASS>  (2141) 
214.193280072

>  <MW>  (2141) 
214

>  <ID>  (2141) 
JP009108

>  <CONTRIBUTOR>  (2141) 
University of Tokyo Team, {Faculty of Engineering, University of Tokyo

>  <COMMENT>  (2141) 
SMILES=CCCC=CCOC(C)OCCCCC
InChI=InChI=1S/C13H26O2/c1-4-6-8-10-12-15-13(3)14-11-9-7-5-2/h8,10,13H,4-7,9,11-12H2,1-3H3/b10-8+
computed SMILES=O(CC=CCCC)C(OCCCCC)C
accession=JP009108
date=2016.01.19 (Created 2008.10.21, modified 2011.05.06)
author=SODA AROMATIC CO., LTD.
license=CC BY-NC-SA
exact mass=214.19328
ionization energy=70 eV
ion type=[M]+*
computed spectral entropy=2.7768927297131247
computed normalized entropy=0.7810466603232717
SPLASH=splash10-059x-9000000000-b5dff7af8e3de9a6c84c
submitter=submitter = University of Tokyo Team (Faculty of Engineering, University of Tokyo)
MoNA Rating=3.75

>  <NUM PEAKS>  (2141) 
35

>  <MASS SPECTRAL PEAKS>  (2141) 
15 1.25
27 15.45
28 1.5
29 20.68
31 1.92
39 12.56
41 44.25
42 10.72
43 61.91
44 2.71
45 34.9
53 3.76
54 13.38
55 50.71
56 6.41
57 14.55
58 1.72
61 3.11
67 7.9
69 3.41
70 2.9
71 92.33
72 5.47
81 1.44
82 8.06
83 99.99
84 8.69
85 1.31
97 2.5
99 1.74
100 1.13
115 24.22
116 1.52
126 3.28
127 7.25

$$$$

     RDKit          2D

 15 14  0  0  0  0  0  0  0  0999 V2000
   -5.5209    5.4375    0.0000 C   0  0  0  0  0  0  0  0  0  0  0  0
   10.0675    8.4375    0.0000 C   0  0  0  0  0  0  0  0  0  0  0  0
    2.2733    9.9375    0.0000 C   0  0  0  0  0  0  0  0  0  0  0  0
   -4.2219    6.1875    0.0000 C   0  0  0  0  0  0  0  0  0  0  0  0
    8.7685    7.6875    0.0000 C   0  0  0  0  0  0  0  0  0  0  0  0
   -4.2219    7.6875    0.0000 C   0  0  0  0  0  0  0  0  0  0  0  0
    7.4695    8.4375    0.0000 C   0  0  0  0  0  0  0  0  0  0  0  0
   -2.9228    8.4375    0.0000 C   0  0  0  0  0  0  0  0  0  0  0  0
    6.1704    7.6875    0.0000 C   0  0  0  0  0  0  0  0  0  0  0  0
   -1.6238    7.6875    0.0000 C   0  0  0  0  0  0  0  0  0  0  0  0
    4.8714    8.4375    0.0000 C   0  0  0  0  0  0  0  0  0  0  0  0
   -0.3248    8.4375    0.0000 C   0  0  0  0  0  0  0  0  0  0  0  0
    2.2733    8.4375    0.0000 C   0  0  0  0  0  0  0  0  0  0  0  0
    3.5724    7.6875    0.0000 O   0  0  0  0  0  0  0  0  0  0  0  0
    0.9743    7.6875    0.0000 O   0  0  0  0  0  0  0  0  0  0  0  0
  4  1  1  0
  5  2  1  0
  6  4  1  0
  7  5  1  0
  6  8  2  0
  9  7  1  0
 10  8  1  0
 11  9  1  0
 12 10  1  0
 13  3  1  0
 14 11  1  0
 14 13  1  0
 15 12  1  0
 15 13  1  0
M  END
>  <NAME>  (2142) 
ACETALDEHYDE CIS-3-HEXENYL PENTYL ACETAL

>  <SYNONYMS>  (2142) 


>  <SPECTRUM TYPE>  (2142) 
MS1

>  <INSTRUMENT TYPE>  (2142) 
EI-B

>  <INSTRUMENT>  (2142) 
HITACHI M-80B

>  <ION MODE>  (2142) 
P

>  <INCHIKEY>  (2142) 
DTNQXBQAPPDECZ-VURMDHGXSA-N

>  <FORMULA>  (2142) 
C13H26O2

>  <EXACT MASS>  (2142) 
214.193280072

>  <MW>  (2142) 
214

>  <ID>  (2142) 
JP009107

>  <CONTRIBUTOR>  (2142) 
University of Tokyo Team, {Faculty of Engineering, University of Tokyo

>  <COMMENT>  (2142) 
SMILES=CCC=CCCOC(C)OCCCCC
InChI=InChI=1S/C13H26O2/c1-4-6-8-10-12-15-13(3)14-11-9-7-5-2/h6,8,13H,4-5,7,9-12H2,1-3H3/b8-6-
computed SMILES=O(CCC=CCC)C(OCCCCC)C
accession=JP009107
date=2016.01.19 (Created 2008.10.21, modified 2011.05.06)
author=SODA AROMATIC CO., LTD.
license=CC BY-NC-SA
exact mass=214.19328
ionization energy=70 eV
ion type=[M]+*
computed spectral entropy=2.72360565103475
computed normalized entropy=0.7931321489717366
SPLASH=splash10-00r6-9100000000-b496967bc1b431da984f
submitter=submitter = University of Tokyo Team (Faculty of Engineering, University of Tokyo)
MoNA Rating=3.75

>  <NUM PEAKS>  (2142) 
31

>  <MASS SPECTRAL PEAKS>  (2142) 
27 14.71
29 20.21
31 5.09
39 13.17
40 1
41 44.75
42 12.23
43 75.34
44 2.89
45 42.5
53 5.56
54 3.14
55 53.35
56 5.49
57 1.63
58 2.18
61 2.96
67 12.94
68 1.76
69 4.8
70 3.6
71 99.99
72 5.58
81 1.26
82 11.01
83 58.14
84 3.36
97 2.95
115 70.76
116 5.52
127 8.58

$$$$

     RDKit          2D

 13 13  0  0  0  0  0  0  0  0999 V2000
   -6.8197    3.1321    0.0000 C   0  0  0  0  0  0  0  0  0  0  0  0
   -2.9226    5.3821    0.0000 C   0  0  0  0  0  0  0  0  0  0  0  0
   -5.5207    3.8821    0.0000 C   0  0  0  0  0  0  0  0  0  0  0  0
    3.5726    1.6321    0.0000 C   0  0  0  0  0  0  0  0  0  0  0  0
    3.5731    3.1329    0.0000 C   0  0  0  0  0  0  0  0  0  0  0  0
    2.2731    0.8813    0.0000 C   0  0  0  0  0  0  0  0  0  0  0  0
    2.2740    3.8829    0.0000 C   0  0  0  0  0  0  0  0  0  0  0  0
    0.9740    1.6313    0.0000 C   0  0  0  0  0  0  0  0  0  0  0  0
   -0.3245    3.8821    0.0000 C   0  0  0  0  0  0  0  0  0  0  0  0
   -2.9226    3.8821    0.0000 C   0  0  0  0  0  0  0  0  0  0  0  0
    0.9745    3.1321    0.0000 C   0  0  0  0  0  0  0  0  0  0  0  0
   -4.2216    3.1321    0.0000 O   0  0  0  0  0  0  0  0  0  0  0  0
   -1.6236    3.1321    0.0000 O   0  0  0  0  0  0  0  0  0  0  0  0
  3  1  1  0
  5  4  2  0
  6  4  1  0
  7  5  1  0
  8  6  2  0
 10  2  1  0
 11  7  2  0
 11  8  1  0
 11  9  1  0
 12  3  1  0
 12 10  1  0
 13  9  1  0
 13 10  1  0
M  END
>  <NAME>  (2143) 
ACETALDEHYDE BENZYL ETHYL ACETAL

>  <SYNONYMS>  (2143) 


>  <SPECTRUM TYPE>  (2143) 
MS1

>  <INSTRUMENT TYPE>  (2143) 
EI-B

>  <INSTRUMENT>  (2143) 
HITACHI M-80B

>  <ION MODE>  (2143) 
P

>  <INCHIKEY>  (2143) 
QZLCHWYDADOBGM-UHFFFAOYSA-N

>  <FORMULA>  (2143) 
C11H16O2

>  <EXACT MASS>  (2143) 
180.115029752

>  <MW>  (2143) 
180

>  <ID>  (2143) 
JP009106

>  <CONTRIBUTOR>  (2143) 
University of Tokyo Team, {Faculty of Engineering, University of Tokyo

>  <COMMENT>  (2143) 
SMILES=CCOC(C)OCc(c1)cccc1
InChI=InChI=1S/C11H16O2/c1-3-12-10(2)13-9-11-7-5-4-6-8-11/h4-8,10H,3,9H2,1-2H3
computed SMILES=O(CC=1C=CC=CC1)C(OCC)C
accession=JP009106
date=2016.01.19 (Created 2008.10.21, modified 2011.05.06)
author=SODA AROMATIC CO., LTD.
license=CC BY-NC-SA
exact mass=180.11503
ionization energy=70 eV
ion type=[M]+*
computed spectral entropy=2.5659599515633023
computed normalized entropy=0.7472246688082851
SPLASH=splash10-0006-9100000000-1f7ed55933e9332506e1
submitter=submitter = University of Tokyo Team (Faculty of Engineering, University of Tokyo)
MoNA Rating=3.75

>  <NUM PEAKS>  (2143) 
31

>  <MASS SPECTRAL PEAKS>  (2143) 
15 1.71
29 7.32
31 2.36
39 4.48
41 1.37
43 9.45
44 6.15
45 40.33
46 1.08
50 2.01
51 4.54
52 1.47
63 2.45
65 11.82
72 2.6
73 26.46
74 1.18
77 8.4
78 1.76
79 5.2
89 3.95
90 3.71
91 99.99
92 17.62
105 3.21
106 1.82
107 3.63
108 3.61
133 2.16
134 22.84
135 4

$$$$

     RDKit          2D

 20 20  0  0  0  0  0  0  0  0999 V2000
   -3.8971   10.8200    0.0000 C   0  0  0  0  0  0  0  0  0  0  0  0
   -9.0933    4.8200    0.0000 C   0  0  0  0  0  0  0  0  0  0  0  0
   -3.8971    9.3200    0.0000 C   0  0  0  0  0  0  0  0  0  0  0  0
   -7.7942    4.0700    0.0000 C   0  0  0  0  0  0  0  0  0  0  0  0
   -2.5981    8.5700    0.0000 C   0  0  0  0  0  0  0  0  0  0  0  0
   -6.4952    4.8200    0.0000 C   0  0  0  0  0  0  0  0  0  0  0  0
    5.1962    2.5700    0.0000 C   0  0  0  0  0  0  0  0  0  0  0  0
   -2.5981    7.0700    0.0000 C   0  0  0  0  0  0  0  0  0  0  0  0
    5.1966    4.0708    0.0000 C   0  0  0  0  0  0  0  0  0  0  0  0
    3.8966    1.8192    0.0000 C   0  0  0  0  0  0  0  0  0  0  0  0
   -5.1962    4.0700    0.0000 C   0  0  0  0  0  0  0  0  0  0  0  0
    3.8976    4.8208    0.0000 C   0  0  0  0  0  0  0  0  0  0  0  0
    2.5976    2.5692    0.0000 C   0  0  0  0  0  0  0  0  0  0  0  0
   -1.2990    6.3200    0.0000 C   0  0  0  0  0  0  0  0  0  0  0  0
   -3.8971    4.8200    0.0000 C   0  0  0  0  0  0  0  0  0  0  0  0
    1.2990    4.8200    0.0000 C   0  0  0  0  0  0  0  0  0  0  0  0
    2.5981    4.0700    0.0000 C   0  0  0  0  0  0  0  0  0  0  0  0
   -1.2990    4.8200    0.0000 C   0  0  0  0  0  0  0  0  0  0  0  0
   -2.5981    4.0700    0.0000 O   0  0  0  0  0  0  0  0  0  0  0  0
    0.0000    4.0700    0.0000 O   0  0  0  0  0  0  0  0  0  0  0  0
  3  1  1  0
  4  2  1  0
  5  3  1  0
  6  4  1  0
  8  5  1  0
  9  7  2  0
 10  7  1  0
 11  6  1  0
 12  9  1  0
 13 10  2  0
 14  8  1  0
 15 11  1  0
 17 12  2  0
 17 13  1  0
 17 16  1  0
 18 14  1  0
 19 15  1  0
 19 18  1  0
 20 16  1  0
 20 18  1  0
M  END
>  <NAME>  (2144) 
HEXANAL BENZYL PENTYL ACETAL

>  <SYNONYMS>  (2144) 


>  <SPECTRUM TYPE>  (2144) 
MS1

>  <INSTRUMENT TYPE>  (2144) 
EI-B

>  <INSTRUMENT>  (2144) 
HITACHI M-80B

>  <ION MODE>  (2144) 
P

>  <INCHIKEY>  (2144) 
YLHBFFYCNURKLU-UHFFFAOYSA-N

>  <FORMULA>  (2144) 
C18H30O2

>  <EXACT MASS>  (2144) 
278.2245802

>  <MW>  (2144) 
278

>  <ID>  (2144) 
JP009105

>  <CONTRIBUTOR>  (2144) 
University of Tokyo Team, {Faculty of Engineering, University of Tokyo

>  <COMMENT>  (2144) 
SMILES=CCCCCOC(CCCCC)OCc(c1)cccc1
InChI=InChI=1S/C18H30O2/c1-3-5-8-14-18(19-15-11-6-4-2)20-16-17-12-9-7-10-13-17/h7,9-10,12-13,18H,3-6,8,11,14-16H2,1-2H3
computed SMILES=O(CC=1C=CC=CC1)C(OCCCCC)CCCCC
license=CC BY-NC-SA
exact mass=278.22458
accession=JP009105
date=2016.01.19 (Created 2008.10.21, modified 2011.05.06)
author=SODA AROMATIC CO., LTD.
ionization energy=70 eV
ion type=[M]+*
computed spectral entropy=1.8360532732409287
computed normalized entropy=0.5939916066976425
SPLASH=splash10-0006-9000000000-c28a8282f78e337ff709
submitter=submitter = University of Tokyo Team (Faculty of Engineering, University of Tokyo)
MoNA Rating=3.75

>  <NUM PEAKS>  (2144) 
22

>  <MASS SPECTRAL PEAKS>  (2144) 
27 2.19
29 3.72
39 1.91
41 5.86
42 1.54
43 13.08
51 1.05
55 3.39
57 5.05
65 3.16
71 2.58
77 1.34
79 1.53
82 1.01
83 4.68
90 1.14
91 99.99
92 10.17
101 2.27
107 1.98
108 1.34
207 3.39

$$$$

     RDKit          2D

 21 21  0  0  0  0  0  0  0  0999 V2000
   -6.4952   12.3200    0.0000 C   0  0  0  0  0  0  0  0  0  0  0  0
    3.8971    3.3200    0.0000 C   0  0  0  0  0  0  0  0  0  0  0  0
   -5.1962   11.5700    0.0000 C   0  0  0  0  0  0  0  0  0  0  0  0
    3.8971    4.8200    0.0000 C   0  0  0  0  0  0  0  0  0  0  0  0
   -5.1962   10.0700    0.0000 C   0  0  0  0  0  0  0  0  0  0  0  0
    2.5981    5.5700    0.0000 C   0  0  0  0  0  0  0  0  0  0  0  0
   -3.8971    9.3200    0.0000 C   0  0  0  0  0  0  0  0  0  0  0  0
    7.7942   11.5700    0.0000 C   0  0  0  0  0  0  0  0  0  0  0  0
    2.5981    7.0700    0.0000 C   0  0  0  0  0  0  0  0  0  0  0  0
    7.7947   10.0692    0.0000 C   0  0  0  0  0  0  0  0  0  0  0  0
    6.4947   12.3208    0.0000 C   0  0  0  0  0  0  0  0  0  0  0  0
   -2.5981   10.0700    0.0000 C   0  0  0  0  0  0  0  0  0  0  0  0
    6.4957    9.3192    0.0000 C   0  0  0  0  0  0  0  0  0  0  0  0
    5.1957   11.5708    0.0000 C   0  0  0  0  0  0  0  0  0  0  0  0
    1.2990    7.8200    0.0000 C   0  0  0  0  0  0  0  0  0  0  0  0
   -1.2990    9.3200    0.0000 C   0  0  0  0  0  0  0  0  0  0  0  0
    3.8971    9.3200    0.0000 C   0  0  0  0  0  0  0  0  0  0  0  0
    5.1962   10.0700    0.0000 C   0  0  0  0  0  0  0  0  0  0  0  0
    1.2990    9.3200    0.0000 C   0  0  0  0  0  0  0  0  0  0  0  0
    0.0000   10.0700    0.0000 O   0  0  0  0  0  0  0  0  0  0  0  0
    2.5981   10.0700    0.0000 O   0  0  0  0  0  0  0  0  0  0  0  0
  3  1  1  0
  4  2  1  0
  5  3  1  0
  6  4  1  0
  5  7  2  0
  9  6  1  0
 10  8  2  0
 11  8  1  0
 12  7  1  0
 13 10  1  0
 14 11  2  0
 15  9  1  0
 16 12  1  0
 18 13  2  0
 18 14  1  0
 18 17  1  0
 19 15  1  0
 20 16  1  0
 20 19  1  0
 21 17  1  0
 21 19  1  0
M  END
>  <NAME>  (2145) 
HEXANAL BENZYL CIS-3-HEXENYL ACETAL

>  <SYNONYMS>  (2145) 


>  <SPECTRUM TYPE>  (2145) 
MS1

>  <INSTRUMENT TYPE>  (2145) 
EI-B

>  <INSTRUMENT>  (2145) 
HITACHI M-80B

>  <ION MODE>  (2145) 
P

>  <INCHIKEY>  (2145) 
XKXIILVFTMECBU-ALCCZGGFSA-N

>  <FORMULA>  (2145) 
C19H30O2

>  <EXACT MASS>  (2145) 
290.2245802

>  <MW>  (2145) 
290

>  <ID>  (2145) 
JP009104

>  <CONTRIBUTOR>  (2145) 
University of Tokyo Team, {Faculty of Engineering, University of Tokyo

>  <COMMENT>  (2145) 
SMILES=CCC=CCCOC(CCCCC)OCc(c1)cccc1
InChI=InChI=1S/C19H30O2/c1-3-5-7-12-16-20-19(15-9-6-4-2)21-17-18-13-10-8-11-14-18/h5,7-8,10-11,13-14,19H,3-4,6,9,12,15-17H2,1-2H3/b7-5-
computed SMILES=O(CC=1C=CC=CC1)C(OCCC=CCC)CCCCC
accession=JP009104
date=2016.01.19 (Created 2008.10.21, modified 2011.05.06)
author=SODA AROMATIC CO., LTD.
license=CC BY-NC-SA
exact mass=290.22458
ionization energy=70 eV
ion type=[M]+*
computed spectral entropy=2.063839008600135
computed normalized entropy=0.6261957410234952
SPLASH=splash10-0006-9000000000-6e37e3f0d68a0f8997c2
submitter=submitter = University of Tokyo Team (Faculty of Engineering, University of Tokyo)
MoNA Rating=3.75

>  <NUM PEAKS>  (2145) 
27

>  <MASS SPECTRAL PEAKS>  (2145) 
27 2.25
29 1.96
39 2.77
41 11.68
42 1.09
43 2.57
51 1.05
53 1.34
55 13.56
56 1.43
57 1.26
65 3.43
67 3.17
69 1.52
77 1.63
79 1.83
81 1.01
82 4.39
83 9.09
91 99.99
92 8.79
99 2.14
107 1.42
108 1.19
113 2.79
173 1.52
191 4.98

$$$$

     RDKit          2D

 21 21  0  0  0  0  0  0  0  0999 V2000
   -9.7428    3.6950    0.0000 C   0  0  0  0  0  0  0  0  0  0  0  0
    1.9486   10.4450    0.0000 C   0  0  0  0  0  0  0  0  0  0  0  0
   -8.4437    4.4450    0.0000 C   0  0  0  0  0  0  0  0  0  0  0  0
    1.9486    8.9450    0.0000 C   0  0  0  0  0  0  0  0  0  0  0  0
   -7.1447    3.6950    0.0000 C   0  0  0  0  0  0  0  0  0  0  0  0
    0.6495    8.1950    0.0000 C   0  0  0  0  0  0  0  0  0  0  0  0
   -5.8457    4.4450    0.0000 C   0  0  0  0  0  0  0  0  0  0  0  0
    5.8457    2.1950    0.0000 C   0  0  0  0  0  0  0  0  0  0  0  0
    0.6495    6.6950    0.0000 C   0  0  0  0  0  0  0  0  0  0  0  0
    5.8462    3.6958    0.0000 C   0  0  0  0  0  0  0  0  0  0  0  0
    4.5462    1.4442    0.0000 C   0  0  0  0  0  0  0  0  0  0  0  0
   -4.5466    3.6950    0.0000 C   0  0  0  0  0  0  0  0  0  0  0  0
    4.5471    4.4458    0.0000 C   0  0  0  0  0  0  0  0  0  0  0  0
    3.2471    2.1942    0.0000 C   0  0  0  0  0  0  0  0  0  0  0  0
   -0.6495    5.9450    0.0000 C   0  0  0  0  0  0  0  0  0  0  0  0
   -3.2476    4.4450    0.0000 C   0  0  0  0  0  0  0  0  0  0  0  0
    1.9486    4.4450    0.0000 C   0  0  0  0  0  0  0  0  0  0  0  0
    3.2476    3.6950    0.0000 C   0  0  0  0  0  0  0  0  0  0  0  0
   -0.6495    4.4450    0.0000 C   0  0  0  0  0  0  0  0  0  0  0  0
   -1.9486    3.6950    0.0000 O   0  0  0  0  0  0  0  0  0  0  0  0
    0.6495    3.6950    0.0000 O   0  0  0  0  0  0  0  0  0  0  0  0
  3  1  1  0
  4  2  1  0
  5  3  1  0
  6  4  1  0
  7  5  1  0
  9  6  1  0
 10  8  2  0
 11  8  1  0
  7 12  2  0
 13 10  1  0
 14 11  2  0
 15  9  1  0
 16 12  1  0
 18 13  2  0
 18 14  1  0
 18 17  1  0
 19 15  1  0
 20 16  1  0
 20 19  1  0
 21 17  1  0
 21 19  1  0
M  END
>  <NAME>  (2146) 
HEXANAL BENZYL TRANS-2-HEXENYL ACETAL

>  <SYNONYMS>  (2146) 


>  <SPECTRUM TYPE>  (2146) 
MS1

>  <INSTRUMENT TYPE>  (2146) 
EI-B

>  <INSTRUMENT>  (2146) 
HITACHI M-80B

>  <ION MODE>  (2146) 
P

>  <INCHIKEY>  (2146) 
FQKZBNBSOLKMFF-KPKJPENVSA-N

>  <FORMULA>  (2146) 
C19H30O2

>  <EXACT MASS>  (2146) 
290.2245802

>  <MW>  (2146) 
290

>  <ID>  (2146) 
JP009103

>  <CONTRIBUTOR>  (2146) 
University of Tokyo Team, {Faculty of Engineering, University of Tokyo

>  <COMMENT>  (2146) 
SMILES=CCCC=CCOC(CCCCC)OCc(c1)cccc1
InChI=InChI=1S/C19H30O2/c1-3-5-7-12-16-20-19(15-9-6-4-2)21-17-18-13-10-8-11-14-18/h7-8,10-14,19H,3-6,9,15-17H2,1-2H3/b12-7+
computed SMILES=O(CC=CCCC)C(OCC=1C=CC=CC1)CCCCC
accession=JP009103
date=2016.01.19 (Created 2008.10.21, modified 2011.05.06)
author=SODA AROMATIC CO., LTD.
license=CC BY-NC-SA
exact mass=290.22458
ionization energy=70 eV
ion type=[M]+*
computed spectral entropy=2.4414476638910445
computed normalized entropy=0.7044528874571109
SPLASH=splash10-0006-9000000000-5528ec7a2e3375a75264
submitter=submitter = University of Tokyo Team (Faculty of Engineering, University of Tokyo)
MoNA Rating=3.75

>  <NUM PEAKS>  (2146) 
32

>  <MASS SPECTRAL PEAKS>  (2146) 
27 3.77
29 2.99
39 3.97
41 16.98
42 1.86
43 4.28
51 1.45
53 1.78
54 1.81
55 23.97
56 2.86
57 3.89
65 4.13
67 3.06
69 1.33
77 2.79
79 3.4
81 2.2
82 3.91
83 36.92
84 2.91
89 1.08
90 1.6
91 99.99
92 15.38
99 4.44
105 1.67
107 4.17
108 2.32
113 3
117 1.49
139 1.53

$$$$

     RDKit          2D

 22 23  0  0  0  0  0  0  0  0999 V2000
   -8.1185    3.1325    0.0000 C   0  0  0  0  0  0  0  0  0  0  0  0
   -6.8195    3.8825    0.0000 C   0  0  0  0  0  0  0  0  0  0  0  0
   -5.5204    3.1325    0.0000 C   0  0  0  0  0  0  0  0  0  0  0  0
    4.8719    1.6325    0.0000 C   0  0  0  0  0  0  0  0  0  0  0  0
   -2.9224   10.6325    0.0000 C   0  0  0  0  0  0  0  0  0  0  0  0
   -4.2214    3.8825    0.0000 C   0  0  0  0  0  0  0  0  0  0  0  0
    4.8724    3.1333    0.0000 C   0  0  0  0  0  0  0  0  0  0  0  0
    3.5724    0.8817    0.0000 C   0  0  0  0  0  0  0  0  0  0  0  0
   -4.2224    9.8825    0.0000 C   0  0  0  0  0  0  0  0  0  0  0  0
   -1.6224    9.8825    0.0000 C   0  0  0  0  0  0  0  0  0  0  0  0
    3.5733    3.8833    0.0000 C   0  0  0  0  0  0  0  0  0  0  0  0
    2.2733    1.6317    0.0000 C   0  0  0  0  0  0  0  0  0  0  0  0
   -4.2224    8.3825    0.0000 C   0  0  0  0  0  0  0  0  0  0  0  0
   -1.6224    8.3825    0.0000 C   0  0  0  0  0  0  0  0  0  0  0  0
   -2.9224    3.1325    0.0000 C   0  0  0  0  0  0  0  0  0  0  0  0
    0.9748    3.8825    0.0000 C   0  0  0  0  0  0  0  0  0  0  0  0
   -2.9224    6.1325    0.0000 C   0  0  0  0  0  0  0  0  0  0  0  0
    2.2738    3.1325    0.0000 C   0  0  0  0  0  0  0  0  0  0  0  0
   -2.9224    7.6325    0.0000 C   0  0  0  0  0  0  0  0  0  0  0  0
   -1.6233    3.8825    0.0000 C   0  0  0  0  0  0  0  0  0  0  0  0
   -0.3243    3.1325    0.0000 O   0  0  0  0  0  0  0  0  0  0  0  0
   -1.6233    5.3825    0.0000 O   0  0  0  0  0  0  0  0  0  0  0  0
  2  1  1  0
  3  2  1  0
  6  3  1  0
  7  4  2  0
  8  4  1  0
  9  5  2  0
 10  5  1  0
 11  7  1  0
 12  8  2  0
 13  9  1  0
 14 10  2  0
 15  6  1  0
 18 11  2  0
 18 12  1  0
 18 16  1  0
 19 13  2  0
 19 14  1  0
 19 17  1  0
 20 15  1  0
 21 16  1  0
 21 20  1  0
 22 17  1  0
 22 20  1  0
M  END
>  <NAME>  (2147) 
HEXANAL DIBENZYL ACETAL

>  <SYNONYMS>  (2147) 


>  <SPECTRUM TYPE>  (2147) 
MS1

>  <INSTRUMENT TYPE>  (2147) 
EI-B

>  <INSTRUMENT>  (2147) 
HITACHI M-80B

>  <ION MODE>  (2147) 
P

>  <INCHIKEY>  (2147) 
KSUZGVFZLVNEAN-UHFFFAOYSA-N

>  <FORMULA>  (2147) 
C20H26O2

>  <EXACT MASS>  (2147) 
298.193280072

>  <MW>  (2147) 
298

>  <ID>  (2147) 
JP009102

>  <CONTRIBUTOR>  (2147) 
University of Tokyo Team, {Faculty of Engineering, University of Tokyo

>  <COMMENT>  (2147) 
SMILES=CCCCCC(OCc(c2)cccc2)OCc(c1)cccc1
InChI=InChI=1S/C20H26O2/c1-2-3-6-15-20(21-16-18-11-7-4-8-12-18)22-17-19-13-9-5-10-14-19/h4-5,7-14,20H,2-3,6,15-17H2,1H3
computed SMILES=O(CC=1C=CC=CC1)C(OCC=2C=CC=CC2)CCCCC
accession=JP009102
date=2016.01.19 (Created 2008.10.21, modified 2011.05.06)
author=SODA AROMATIC CO., LTD.
license=CC BY-NC-SA
exact mass=298.19328
ionization energy=70 eV
ion type=[M]+*
computed spectral entropy=1.5062979812664483
computed normalized entropy=0.5211433363723593
SPLASH=splash10-0006-9000000000-b8542136bcd0cf56544d
submitter=submitter = University of Tokyo Team (Faculty of Engineering, University of Tokyo)
MoNA Rating=3.75

>  <NUM PEAKS>  (2147) 
18

>  <MASS SPECTRAL PEAKS>  (2147) 
27 1.57
29 1.07
39 2.27
41 1.73
43 1.81
51 1.75
65 5.67
77 2.8
79 2.84
89 1.26
90 1.18
91 99.99
92 18.67
93 1.11
105 1.46
107 5.81
108 1.92
181 2.99

$$$$

     RDKit          2D

 18 19  0  0  0  0  0  0  0  0999 V2000
   -2.5976    7.0700    0.0000 C   0  0  0  0  0  0  0  0  0  0  0  0
    3.8976    3.3200    0.0000 C   0  0  0  0  0  0  0  0  0  0  0  0
   -9.0928    3.3200    0.0000 C   0  0  0  0  0  0  0  0  0  0  0  0
    3.8981    4.8208    0.0000 C   0  0  0  0  0  0  0  0  0  0  0  0
    2.5981    2.5692    0.0000 C   0  0  0  0  0  0  0  0  0  0  0  0
   -7.7933    2.5692    0.0000 C   0  0  0  0  0  0  0  0  0  0  0  0
   -9.0933    4.8208    0.0000 C   0  0  0  0  0  0  0  0  0  0  0  0
    2.5990    5.5708    0.0000 C   0  0  0  0  0  0  0  0  0  0  0  0
    1.2990    3.3192    0.0000 C   0  0  0  0  0  0  0  0  0  0  0  0
   -6.4942    3.3192    0.0000 C   0  0  0  0  0  0  0  0  0  0  0  0
   -7.7942    5.5708    0.0000 C   0  0  0  0  0  0  0  0  0  0  0  0
    0.0005    5.5700    0.0000 C   0  0  0  0  0  0  0  0  0  0  0  0
   -5.1957    5.5700    0.0000 C   0  0  0  0  0  0  0  0  0  0  0  0
   -2.5976    5.5700    0.0000 C   0  0  0  0  0  0  0  0  0  0  0  0
    1.2995    4.8200    0.0000 C   0  0  0  0  0  0  0  0  0  0  0  0
   -6.4947    4.8200    0.0000 C   0  0  0  0  0  0  0  0  0  0  0  0
   -1.2986    4.8200    0.0000 O   0  0  0  0  0  0  0  0  0  0  0  0
   -3.8966    4.8200    0.0000 O   0  0  0  0  0  0  0  0  0  0  0  0
  4  2  2  0
  5  2  1  0
  6  3  2  0
  7  3  1  0
  8  4  1  0
  9  5  2  0
 10  6  1  0
 11  7  2  0
 14  1  1  0
 15  8  2  0
 15  9  1  0
 15 12  1  0
 16 10  2  0
 16 11  1  0
 16 13  1  0
 17 12  1  0
 17 14  1  0
 18 13  1  0
 18 14  1  0
M  END
>  <NAME>  (2148) 
ACETALDEHYDE DIBENZYL ACETAL

>  <SYNONYMS>  (2148) 


>  <SPECTRUM TYPE>  (2148) 
MS1

>  <INSTRUMENT TYPE>  (2148) 
EI-B

>  <INSTRUMENT>  (2148) 
HITACHI M-80B

>  <ION MODE>  (2148) 
P

>  <INCHIKEY>  (2148) 
RFRXYOZZAPXFFD-UHFFFAOYSA-N

>  <FORMULA>  (2148) 
C16H18O2

>  <EXACT MASS>  (2148) 
242.130679816

>  <MW>  (2148) 
242

>  <ID>  (2148) 
JP009101

>  <CONTRIBUTOR>  (2148) 
University of Tokyo Team, {Faculty of Engineering, University of Tokyo

>  <COMMENT>  (2148) 
SMILES=CC(OCc(c2)cccc2)OCc(c1)cccc1
InChI=InChI=1S/C16H18O2/c1-14(17-12-15-8-4-2-5-9-15)18-13-16-10-6-3-7-11-16/h2-11,14H,12-13H2,1H3
computed SMILES=O(CC=1C=CC=CC1)C(OCC=2C=CC=CC2)C
accession=JP009101
date=2016.01.19 (Created 2008.10.21, modified 2011.05.06)
author=SODA AROMATIC CO., LTD.
license=CC BY-NC-SA
exact mass=242.13068
ionization energy=70 eV
ion type=[M]+*
computed spectral entropy=1.9463708259664312
computed normalized entropy=0.6393025066426683
SPLASH=splash10-0006-9100000000-ef95786515ce4e679aab
submitter=submitter = University of Tokyo Team (Faculty of Engineering, University of Tokyo)
MoNA Rating=3.75

>  <NUM PEAKS>  (2148) 
21

>  <MASS SPECTRAL PEAKS>  (2148) 
39 4.62
41 1.08
43 1.56
51 5.04
52 1.1
63 1.71
65 11.26
77 7.24
78 1.59
79 6.44
89 2.22
90 2.93
91 99.99
92 48.22
93 2.61
105 2.02
107 13.52
108 2.23
133 1.82
134 4.7
151 1.49

$$$$

     RDKit          2D

  5  4  0  0  0  0  0  0  0  0999 V2000
   -3.8971    2.2500    0.0000 C   0  0  0  0  0  0  0  0  0  0  0  0
    1.2990    2.2500    0.0000 C   0  0  0  0  0  0  0  0  0  0  0  0
   -2.5981    1.5000    0.0000 C   0  0  0  0  0  0  0  0  0  0  0  0
   -1.2990    2.2500    0.0000 C   0  0  0  0  0  0  0  0  0  0  0  0
    0.0000    1.5000    0.0000 S   0  0  0  0  0  0  0  0  0  0  0  0
  3  1  2  0
  4  3  1  0
  5  2  1  0
  5  4  1  0
M  END
>  <NAME>  (2149) 
ALLYL METHYL SULFIDE

>  <SYNONYMS>  (2149) 


>  <SPECTRUM TYPE>  (2149) 
MS1

>  <INSTRUMENT TYPE>  (2149) 
EI-B

>  <INSTRUMENT>  (2149) 
HITACHI M-80B

>  <ION MODE>  (2149) 
P

>  <INCHIKEY>  (2149) 
NVLPQIPTCCLBEU-UHFFFAOYSA-N

>  <FORMULA>  (2149) 
C4H8S

>  <EXACT MASS>  (2149) 
88.034671256

>  <MW>  (2149) 
88

>  <ID>  (2149) 
JP009100

>  <CONTRIBUTOR>  (2149) 
University of Tokyo Team, {Faculty of Engineering, University of Tokyo

>  <COMMENT>  (2149) 
SMILES=C=CCSC
cas=10152-76-8
InChI=InChI=1S/C4H8S/c1-3-4-5-2/h3H,1,4H2,2H3
computed SMILES=S(C)CC=C
accession=JP009100
date=2016.01.19 (Created 2008.10.21, modified 2011.05.06)
author=SODA AROMATIC CO., LTD.
license=CC BY-NC-SA
exact mass=88.03467
ionization energy=70 eV
ion type=[M]+*
computed spectral entropy=2.6924841267218405
computed normalized entropy=0.7513520014720071
SPLASH=splash10-000j-9000000000-cda664188b696a90957d
submitter=submitter = University of Tokyo Team (Faculty of Engineering, University of Tokyo)
MoNA Rating=3.75

>  <NUM PEAKS>  (2149) 
36

>  <MASS SPECTRAL PEAKS>  (2149) 
14 1.15
15 4.66
26 2.77
27 13.33
35 4.93
37 4.27
38 10.12
39 64.48
40 4.91
41 56.98
42 3.91
44 1.65
45 80.64
46 29.36
47 31.02
48 5.74
49 2.53
53 2.84
54 1.69
55 1.69
57 1.25
58 2.17
59 3.67
60 2.54
61 21.25
69 3.91
71 5.88
72 5.32
73 79.92
74 2.99
75 3.26
85 1.62
87 4.03
88 99.99
89 4.53
90 4.75

$$$$

     RDKit          2D

 12 12  0  0  0  0  0  0  0  0999 V2000
   -1.8335    0.5083    0.0000 C   0  0  0  0  0  0  0  0  0  0  0  0
   -0.5353   -0.2431    0.0000 C   0  0  0  0  0  0  0  0  0  0  0  0
    7.5924    2.2989    0.0000 C   0  0  0  0  0  0  0  0  0  0  0  0
    0.7645    0.5056    0.0000 C   0  0  0  0  0  0  0  0  0  0  0  0
    6.1252    1.9870    0.0000 C   0  0  0  0  0  0  0  0  0  0  0  0
    8.3376    1.0055    0.0000 C   0  0  0  0  0  0  0  0  0  0  0  0
    4.6609   -0.2484    0.0000 C   0  0  0  0  0  0  0  0  0  0  0  0
    5.9607    0.5003    0.0000 C   0  0  0  0  0  0  0  0  0  0  0  0
    2.0628   -0.2457    0.0000 C   0  0  0  0  0  0  0  0  0  0  0  0
    2.0613   -1.7457    0.0000 O   0  0  0  0  0  0  0  0  0  0  0  0
    7.3370   -0.1068    0.0000 O   0  0  0  0  0  0  0  0  0  0  0  0
    3.3626    0.5030    0.0000 O   0  0  0  0  0  0  0  0  0  0  0  0
  2  1  1  0
  2  4  2  0
  5  3  1  0
  6  3  2  0
  8  5  2  0
  8  7  1  0
  9  4  1  0
 10  9  2  0
 11  6  1  0
 11  8  1  0
 12  7  1  0
 12  9  1  0
M  END
>  <NAME>  (2150) 
FURFURYL CROTONATE

>  <SYNONYMS>  (2150) 


>  <SPECTRUM TYPE>  (2150) 
MS1

>  <INSTRUMENT TYPE>  (2150) 
EI-B

>  <INSTRUMENT>  (2150) 
HITACHI M-80B

>  <ION MODE>  (2150) 
P

>  <INCHIKEY>  (2150) 
RNOSZJQXPVHHLQ-DUXPYHPUSA-N

>  <FORMULA>  (2150) 
C9H10O3

>  <EXACT MASS>  (2150) 
166.06299417999998

>  <MW>  (2150) 
166

>  <ID>  (2150) 
JP009099

>  <CONTRIBUTOR>  (2150) 
University of Tokyo Team, {Faculty of Engineering, University of Tokyo

>  <COMMENT>  (2150) 
SMILES=CC=CC(=O)OCc(c1)occ1
InChI=InChI=1S/C9H10O3/c1-2-4-9(10)12-7-8-5-3-6-11-8/h2-6H,7H2,1H3/b4-2+
computed SMILES=O=C(OCC=1OC=CC1)C=CC
accession=JP009099
date=2016.01.19 (Created 2008.10.21, modified 2011.05.06)
author=SODA AROMATIC CO., LTD.
license=CC BY-NC-SA
exact mass=166.06299
ionization energy=70 eV
ion type=[M]+*
computed spectral entropy=2.9688007292443586
computed normalized entropy=0.7710875104958973
SPLASH=splash10-0gc0-9000000000-9f3693cccd01d9dd0fdb
submitter=submitter = University of Tokyo Team (Faculty of Engineering, University of Tokyo)
MoNA Rating=3.75

>  <NUM PEAKS>  (2150) 
47

>  <MASS SPECTRAL PEAKS>  (2150) 
15 1.8
29 8.52
37 6.35
38 10.32
39 47.63
41 31
42 5.16
43 2.41
44 2.83
45 2
49 1.41
50 5.38
51 8.52
52 31.66
53 31.8
54 2.88
55 1.62
63 1.31
64 4.65
65 2.7
66 1.45
67 1.24
68 4.28
69 85.23
70 3.94
71 1.07
79 1.72
80 9.48
81 99.99
82 5.11
86 1.17
87 2.25
91 1.52
93 9.34
94 2.74
95 8.92
96 5.14
97 11.04
98 11.64
107 1.15
120 2.85
121 12.56
122 1.09
148 2.5
151 1.89
166 17.81
167 2.16

$$$$

     RDKit          2D

  9  9  0  0  0  0  0  0  0  0999 V2000
   -1.1700   -1.2200    0.0000 C   0  0  0  0  0  0  0  0  0  0  0  0
    0.3300   -1.2200    0.0000 C   0  0  0  0  0  0  0  0  0  0  0  0
   -1.6300    0.2000    0.0000 C   0  0  0  0  0  0  0  0  0  0  0  0
    2.2271    0.6621    0.0000 C   0  0  0  0  0  0  0  0  0  0  0  0
    4.7678    0.1193    0.0000 C   0  0  0  0  0  0  0  0  0  0  0  0
    0.8000    0.2000    0.0000 C   0  0  0  0  0  0  0  0  0  0  0  0
    5.8815   -0.8855    0.0000 O   0  0  0  0  0  0  0  0  0  0  0  0
    3.3407   -0.3428    0.0000 O   0  0  0  0  0  0  0  0  0  0  0  0
   -0.4200    1.0800    0.0000 O   0  0  0  0  0  0  0  0  0  0  0  0
  2  1  1  0
  3  1  2  0
  6  2  2  0
  6  4  1  0
  7  5  2  0
  8  4  1  0
  8  5  1  0
  9  3  1  0
  9  6  1  0
M  END
>  <NAME>  (2151) 
FURFURYL FORMATE

>  <SYNONYMS>  (2151) 


>  <SPECTRUM TYPE>  (2151) 
MS1

>  <INSTRUMENT TYPE>  (2151) 
EI-B

>  <INSTRUMENT>  (2151) 
HITACHI M-80B

>  <ION MODE>  (2151) 
P

>  <INCHIKEY>  (2151) 
FPRQARNPKWVCNI-UHFFFAOYSA-N

>  <FORMULA>  (2151) 
C6H6O3

>  <EXACT MASS>  (2151) 
126.03169405199999

>  <MW>  (2151) 
126

>  <ID>  (2151) 
JP009098

>  <CONTRIBUTOR>  (2151) 
University of Tokyo Team, {Faculty of Engineering, University of Tokyo

>  <COMMENT>  (2151) 
SMILES=O=COCc(c1)occ1
InChI=InChI=1S/C6H6O3/c7-5-8-4-6-2-1-3-9-6/h1-3,5H,4H2
computed SMILES=O=COCC=1OC=CC1
accession=JP009098
date=2016.01.19 (Created 2008.10.21, modified 2011.05.06)
author=SODA AROMATIC CO., LTD.
license=CC BY-NC-SA
exact mass=126.03169
ion type=[M]+*
ionization energy=70 eV
computed spectral entropy=2.590997063440735
computed normalized entropy=0.7861423877395671
SPLASH=splash10-0fai-9100000000-1d01d927f539431cd6e1
submitter=submitter = University of Tokyo Team (Faculty of Engineering, University of Tokyo)
MoNA Rating=3.75

>  <NUM PEAKS>  (2151) 
27

>  <MASS SPECTRAL PEAKS>  (2151) 
26 2.94
27 16.14
29 16.92
31 3.72
37 3.14
38 5.99
39 16.36
40 1.22
41 8.24
42 4.51
43 1.52
50 6.93
51 11.26
52 26.68
53 42.19
54 2.01
55 1.33
69 3.67
70 3.13
80 25.31
81 99.99
82 5.58
95 3.44
97 3.52
98 7.11
126 49.04
127 3.16

$$$$

     RDKit          2D

 11 11  0  0  0  0  0  0  0  0999 V2000
    4.2566    0.5448    0.0000 C   0  0  0  0  0  0  0  0  0  0  0  0
   -3.5381    0.5444    0.0000 C   0  0  0  0  0  0  0  0  0  0  0  0
    2.9576   -0.2052    0.0000 C   0  0  0  0  0  0  0  0  0  0  0  0
    1.6590    2.0456    0.0000 C   0  0  0  0  0  0  0  0  0  0  0  0
    0.3600    2.7956    0.0000 C   0  0  0  0  0  0  0  0  0  0  0  0
    0.3590   -0.2060    0.0000 C   0  0  0  0  0  0  0  0  0  0  0  0
    1.6586    0.5448    0.0000 C   0  0  0  0  0  0  0  0  0  0  0  0
   -0.9395    2.0448    0.0000 C   0  0  0  0  0  0  0  0  0  0  0  0
   -0.9400    0.5440    0.0000 C   0  0  0  0  0  0  0  0  0  0  0  0
   -2.2386    2.7948    0.0000 O   0  0  0  0  0  0  0  0  0  0  0  0
   -2.2392   -0.2058    0.0000 O   0  0  0  0  0  0  0  0  0  0  0  0
  3  1  2  0
  5  4  2  0
  7  3  1  0
  7  4  1  0
  7  6  2  0
  8  5  1  0
  9  6  1  0
  9  8  2  0
 10  8  1  0
 11  2  1  0
 11  9  1  0
M  END
>  <NAME>  (2152) 
4-VINYLGUAIACOL

>  <SYNONYMS>  (2152) 
2-METHOXY-4-VINYLPHENOL

>  <SPECTRUM TYPE>  (2152) 
MS1

>  <INSTRUMENT TYPE>  (2152) 
EI-B

>  <INSTRUMENT>  (2152) 
HITACHI M-80B

>  <ION MODE>  (2152) 
P

>  <INCHIKEY>  (2152) 
YOMSJEATGXXYPX-UHFFFAOYSA-N

>  <FORMULA>  (2152) 
C9H10O2

>  <EXACT MASS>  (2152) 
150.06807956

>  <MW>  (2152) 
150

>  <ID>  (2152) 
JP009097

>  <CONTRIBUTOR>  (2152) 
University of Tokyo Team, {Faculty of Engineering, University of Tokyo

>  <COMMENT>  (2152) 
SMILES=C=Cc(c1)cc(OC)c(O)c1
InChI=InChI=1S/C9H10O2/c1-3-7-4-5-8(10)9(6-7)11-2/h3-6,10H,1H2,2H3
computed SMILES=OC1=CC=C(C=C)C=C1OC
accession=JP009097
date=2016.01.19 (Created 2008.10.21, modified 2011.05.06)
author=SODA AROMATIC CO., LTD.
license=CC BY-NC-SA
exact mass=150.06808
ionization energy=70 eV
ion type=[M]+*
computed spectral entropy=2.7612005901677334
computed normalized entropy=0.7387492400775363
SPLASH=splash10-0udr-6900000000-c95e8007869a915d6fe6
submitter=submitter = University of Tokyo Team (Faculty of Engineering, University of Tokyo)
MoNA Rating=3.75

>  <NUM PEAKS>  (2152) 
42

>  <MASS SPECTRAL PEAKS>  (2152) 
15 5.79
26 1.76
27 5.77
29 2.54
31 1.28
38 1.93
39 10.05
42 1.05
50 5.36
51 10.85
52 6.86
53 8.2
54 1.17
55 5.15
62 2.88
63 7.47
64 2.42
65 5.19
66 1.14
69 1.06
74 1.72
75 3.95
76 1.55
77 31.44
78 9.02
79 9.42
81 1.44
89 4.7
90 1.19
91 4.2
92 1.04
103 1.37
105 1.92
107 36.17
108 2.97
118 1.1
135 68.21
136 4.94
149 1.37
150 99.99
151 9.65
152 1.35

$$$$

     RDKit          2D

 13 13  0  0  0  0  0  0  0  0999 V2000
   -5.8454    3.6946    0.0000 C   0  0  0  0  0  0  0  0  0  0  0  0
    3.2478    1.4446    0.0000 C   0  0  0  0  0  0  0  0  0  0  0  0
    3.2483    2.9454    0.0000 C   0  0  0  0  0  0  0  0  0  0  0  0
    1.9483    0.6938    0.0000 C   0  0  0  0  0  0  0  0  0  0  0  0
    1.9493    3.6954    0.0000 C   0  0  0  0  0  0  0  0  0  0  0  0
    0.6493    1.4438    0.0000 C   0  0  0  0  0  0  0  0  0  0  0  0
   -0.6493    3.6946    0.0000 C   0  0  0  0  0  0  0  0  0  0  0  0
   -4.5464    2.9446    0.0000 C   0  0  0  0  0  0  0  0  0  0  0  0
    0.6498    2.9446    0.0000 C   0  0  0  0  0  0  0  0  0  0  0  0
   -3.2474    3.6946    0.0000 C   0  0  0  0  0  0  0  0  0  0  0  0
   -4.5464    1.4446    0.0000 O   0  0  0  0  0  0  0  0  0  0  0  0
   -3.2474    5.1946    0.0000 O   0  0  0  0  0  0  0  0  0  0  0  0
   -1.9483    2.9446    0.0000 O   0  0  0  0  0  0  0  0  0  0  0  0
  3  2  2  0
  4  2  1  0
  5  3  1  0
  6  4  2  0
  8  1  1  0
  9  5  2  0
  9  6  1  0
  9  7  1  0
 10  8  1  0
 11  8  1  0
 12 10  2  0
 13  7  1  0
 13 10  1  0
M  END
>  <NAME>  (2153) 
BENZYL LACTATE

>  <SYNONYMS>  (2153) 


>  <SPECTRUM TYPE>  (2153) 
MS1

>  <INSTRUMENT TYPE>  (2153) 
EI-B

>  <INSTRUMENT>  (2153) 
HITACHI M-80B

>  <ION MODE>  (2153) 
P

>  <INCHIKEY>  (2153) 
ZYTLPUIDJRKAAM-UHFFFAOYSA-N

>  <FORMULA>  (2153) 
C10H12O3

>  <EXACT MASS>  (2153) 
180.07864424399997

>  <MW>  (2153) 
180

>  <ID>  (2153) 
JP009096

>  <CONTRIBUTOR>  (2153) 
University of Tokyo Team, {Faculty of Engineering, University of Tokyo

>  <COMMENT>  (2153) 
SMILES=CC(O)C(=O)OCc(c1)cccc1
InChI=InChI=1S/C10H12O3/c1-8(11)10(12)13-7-9-5-3-2-4-6-9/h2-6,8,11H,7H2,1H3
computed SMILES=O=C(OCC=1C=CC=CC1)C(O)C
accession=JP009096
date=2016.01.19 (Created 2008.10.21, modified 2011.05.06)
author=SODA AROMATIC CO., LTD.
license=CC BY-NC-SA
exact mass=180.07864
ionization energy=70 eV
ion type=[M]+*
computed spectral entropy=1.9362363770314597
computed normalized entropy=0.6092522280591682
SPLASH=splash10-0007-9000000000-689f88442c5d3b826fe4
submitter=submitter = University of Tokyo Team (Faculty of Engineering, University of Tokyo)
MoNA Rating=3.75

>  <NUM PEAKS>  (2153) 
24

>  <MASS SPECTRAL PEAKS>  (2153) 
27 2.15
29 2
39 3.51
41 1.31
43 2.29
45 63.2
46 1.73
50 1.63
51 3.77
52 1.33
56 1.25
63 2.54
65 10.3
77 6.22
78 1.19
79 3.04
89 2.82
90 2.77
91 99.99
92 15.94
105 1.1
107 1.77
108 1.68
180 3.51

$$$$

     RDKit          2D

  7  6  0  0  0  0  0  0  0  0999 V2000
    1.6238    1.6875    0.0000 C   0  0  0  0  0  0  0  0  0  0  0  0
   -3.5724    1.6875    0.0000 C   0  0  0  0  0  0  0  0  0  0  0  0
    0.3248    2.4375    0.0000 C   0  0  0  0  0  0  0  0  0  0  0  0
   -0.9743    1.6875    0.0000 C   0  0  0  0  0  0  0  0  0  0  0  0
    0.3248    3.9375    0.0000 O   0  0  0  0  0  0  0  0  0  0  0  0
   -0.9743    0.1875    0.0000 O   0  0  0  0  0  0  0  0  0  0  0  0
   -2.2733    2.4375    0.0000 O   0  0  0  0  0  0  0  0  0  0  0  0
  3  1  1  0
  4  3  1  0
  5  3  1  0
  6  4  2  0
  7  2  1  0
  7  4  1  0
M  END
>  <NAME>  (2154) 
METHYL LACTATE

>  <SYNONYMS>  (2154) 


>  <SPECTRUM TYPE>  (2154) 
MS1

>  <INSTRUMENT TYPE>  (2154) 
EI-B

>  <INSTRUMENT>  (2154) 
HITACHI M-80B

>  <ION MODE>  (2154) 
P

>  <INCHIKEY>  (2154) 
LPEKGGXMPWTOCB-UHFFFAOYSA-N

>  <FORMULA>  (2154) 
C4H8O3

>  <EXACT MASS>  (2154) 
104.04734411599999

>  <MW>  (2154) 
104

>  <ID>  (2154) 
JP009095

>  <CONTRIBUTOR>  (2154) 
University of Tokyo Team, {Faculty of Engineering, University of Tokyo

>  <COMMENT>  (2154) 
SMILES=COC(=O)C(C)O
cas=547-64-8
InChI=InChI=1S/C4H8O3/c1-3(5)4(6)7-2/h3,5H,1-2H3
computed SMILES=O=C(OC)C(O)C
accession=JP009095
date=2016.01.19 (Created 2008.10.21, modified 2011.05.06)
author=SODA AROMATIC CO., LTD.
license=CC BY-NC-SA
exact mass=104.04734
ionization energy=70 eV
ion type=[M]+*
computed spectral entropy=1.7848320986722592
computed normalized entropy=0.6175095275534375
SPLASH=splash10-0002-9000000000-ea6a67eb1868068b29fb
submitter=submitter = University of Tokyo Team (Faculty of Engineering, University of Tokyo)
MoNA Rating=3.75

>  <NUM PEAKS>  (2154) 
18

>  <MASS SPECTRAL PEAKS>  (2154) 
14 1.05
15 9.55
19 2.67
26 1.6
27 8.29
29 13.55
30 1.95
31 1.78
33 14.89
42 2.09
43 14.27
44 1.91
45 99.99
46 2.26
55 1.2
59 2.64
61 2.84
89 1.02

$$$$

     RDKit          2D

 20 19  0  0  0  0  0  0  0  0999 V2000
    4.5466    7.8750    0.0000 C   0  0  0  0  0  0  0  0  0  0  0  0
  -13.6399    7.8750    0.0000 C   0  0  0  0  0  0  0  0  0  0  0  0
   -7.1447   14.6250    0.0000 C   0  0  0  0  0  0  0  0  0  0  0  0
    3.2476    8.6250    0.0000 C   0  0  0  0  0  0  0  0  0  0  0  0
  -12.3409    8.6250    0.0000 C   0  0  0  0  0  0  0  0  0  0  0  0
   -7.1447   13.1250    0.0000 C   0  0  0  0  0  0  0  0  0  0  0  0
    1.9486    7.8750    0.0000 C   0  0  0  0  0  0  0  0  0  0  0  0
  -11.0418    7.8750    0.0000 C   0  0  0  0  0  0  0  0  0  0  0  0
   -5.8457   12.3750    0.0000 C   0  0  0  0  0  0  0  0  0  0  0  0
    0.6495    8.6250    0.0000 C   0  0  0  0  0  0  0  0  0  0  0  0
   -9.7428    8.6250    0.0000 C   0  0  0  0  0  0  0  0  0  0  0  0
   -5.8457   10.8750    0.0000 C   0  0  0  0  0  0  0  0  0  0  0  0
   -0.6495    7.8750    0.0000 C   0  0  0  0  0  0  0  0  0  0  0  0
   -8.4437    7.8750    0.0000 C   0  0  0  0  0  0  0  0  0  0  0  0
   -4.5466   10.1250    0.0000 C   0  0  0  0  0  0  0  0  0  0  0  0
   -1.9486    8.6250    0.0000 C   0  0  0  0  0  0  0  0  0  0  0  0
   -7.1447    8.6250    0.0000 C   0  0  0  0  0  0  0  0  0  0  0  0
   -4.5466    8.6250    0.0000 C   0  0  0  0  0  0  0  0  0  0  0  0
   -3.2476    7.8750    0.0000 O   0  0  0  0  0  0  0  0  0  0  0  0
   -5.8457    7.8750    0.0000 O   0  0  0  0  0  0  0  0  0  0  0  0
  4  1  1  0
  5  2  1  0
  6  3  1  0
  7  4  1  0
  8  5  1  0
  9  6  1  0
 10  7  1  0
 11  8  1  0
 12  9  1  0
 10 13  2  0
 11 14  2  0
 15 12  1  0
 16 13  1  0
 17 14  1  0
 18 15  1  0
 19 16  1  0
 19 18  1  0
 20 17  1  0
 20 18  1  0
M  END
>  <NAME>  (2155) 
HEXANAL DI-TRANS-2-HEXENYL ACETAL

>  <SYNONYMS>  (2155) 


>  <SPECTRUM TYPE>  (2155) 
MS1

>  <INSTRUMENT TYPE>  (2155) 
EI-B

>  <INSTRUMENT>  (2155) 
HITACHI M-80B

>  <ION MODE>  (2155) 
P

>  <INCHIKEY>  (2155) 
CKGRYWOADIIZMT-IFQMDVHZSA-N

>  <FORMULA>  (2155) 
C18H34O2

>  <EXACT MASS>  (2155) 
282.255880328

>  <MW>  (2155) 
282

>  <ID>  (2155) 
JP009094

>  <CONTRIBUTOR>  (2155) 
University of Tokyo Team, {Faculty of Engineering, University of Tokyo

>  <COMMENT>  (2155) 
SMILES=CCCC=CCOC(CCCCC)OCC=CCCC
InChI=InChI=1S/C18H34O2/c1-4-7-10-13-16-19-18(15-12-9-6-3)20-17-14-11-8-5-2/h10-11,13-14,18H,4-9,12,15-17H2,1-3H3/b13-10+,14-11+
computed SMILES=O(CC=CCCC)C(OCC=CCCC)CCCCC
accession=JP009094
date=2016.01.19 (Created 2008.10.21, modified 2011.05.06)
author=SODA AROMATIC CO., LTD.
license=CC BY-NC-SA
exact mass=282.25588
ionization energy=70 eV
ion type=[M]+*
computed spectral entropy=2.4410190675324017
computed normalized entropy=0.7325537973670336
SPLASH=splash10-053r-9000000000-f6a0207259ad5a0d8e51
submitter=submitter = University of Tokyo Team (Faculty of Engineering, University of Tokyo)
MoNA Rating=3.75

>  <NUM PEAKS>  (2155) 
28

>  <MASS SPECTRAL PEAKS>  (2155) 
27 7.17
29 8.58
39 6.73
41 33.34
42 4.05
43 9.36
44 1.36
53 2.34
54 6.87
55 57.05
56 6.13
57 12.02
67 7.94
69 2.27
71 1.97
81 3.99
82 9.51
83 99.99
84 8.37
95 2.14
97 1.15
99 4.43
100 1.22
109 2.26
111 1.03
113 3.01
139 4.4
165 1.38

$$$$

     RDKit          2D

 12 12  0  0  0  0  0  0  0  0999 V2000
   -5.5207    3.1321    0.0000 C   0  0  0  0  0  0  0  0  0  0  0  0
   -4.2216    2.3821    0.0000 C   0  0  0  0  0  0  0  0  0  0  0  0
    3.5726    0.8821    0.0000 C   0  0  0  0  0  0  0  0  0  0  0  0
    3.5731    2.3829    0.0000 C   0  0  0  0  0  0  0  0  0  0  0  0
    2.2731    0.1313    0.0000 C   0  0  0  0  0  0  0  0  0  0  0  0
    2.2740    3.1329    0.0000 C   0  0  0  0  0  0  0  0  0  0  0  0
    0.9740    0.8813    0.0000 C   0  0  0  0  0  0  0  0  0  0  0  0
   -2.9226    3.1321    0.0000 C   0  0  0  0  0  0  0  0  0  0  0  0
    0.9745    2.3821    0.0000 C   0  0  0  0  0  0  0  0  0  0  0  0
   -0.3245    3.1321    0.0000 C   0  0  0  0  0  0  0  0  0  0  0  0
   -0.3245    4.6321    0.0000 O   0  0  0  0  0  0  0  0  0  0  0  0
   -1.6236    2.3821    0.0000 S   0  0  0  0  0  0  0  0  0  0  0  0
  2  1  1  0
  4  3  2  0
  5  3  1  0
  6  4  1  0
  7  5  2  0
  8  2  1  0
  9  6  2  0
  9  7  1  0
 10  9  1  0
 11 10  2  0
 12  8  1  0
 12 10  1  0
M  END
>  <NAME>  (2156) 
S-PROPYL THIOBENZOATE

>  <SYNONYMS>  (2156) 


>  <SPECTRUM TYPE>  (2156) 
MS1

>  <INSTRUMENT TYPE>  (2156) 
EI-B

>  <INSTRUMENT>  (2156) 
HITACHI M-80B

>  <ION MODE>  (2156) 
P

>  <INCHIKEY>  (2156) 
YPACPXJQEYROHD-UHFFFAOYSA-N

>  <FORMULA>  (2156) 
C10H12OS

>  <EXACT MASS>  (2156) 
180.060886004

>  <MW>  (2156) 
180

>  <ID>  (2156) 
JP009093

>  <CONTRIBUTOR>  (2156) 
University of Tokyo Team, {Faculty of Engineering, University of Tokyo

>  <COMMENT>  (2156) 
SMILES=CCCSC(=O)c(c1)cccc1
InChI=InChI=1S/C10H12OS/c1-2-8-12-10(11)9-6-4-3-5-7-9/h3-7H,2,8H2,1H3
computed SMILES=O=C(SCCC)C=1C=CC=CC1
accession=JP009093
date=2016.01.19 (Created 2008.10.21, modified 2011.05.06)
author=SODA AROMATIC CO., LTD.
license=CC BY-NC-SA
exact mass=180.06089
ionization energy=70 eV
ion type=[M]+*
computed spectral entropy=1.5575019873488203
computed normalized entropy=0.5901736085346371
SPLASH=splash10-0a4i-5900000000-44a35b8b0ea75df1cfe6
submitter=submitter = University of Tokyo Team (Faculty of Engineering, University of Tokyo)
MoNA Rating=3.75

>  <NUM PEAKS>  (2156) 
14

>  <MASS SPECTRAL PEAKS>  (2156) 
27 3.15
39 2.62
41 2.65
45 1.59
47 1.28
50 2.95
51 14.63
75 1
76 1.44
77 39.79
78 2.56
105 99.99
106 8.05
180 5.73

$$$$

     RDKit          2D

 20 19  0  0  0  0  0  0  0  0999 V2000
    9.7428   10.1250    0.0000 C   0  0  0  0  0  0  0  0  0  0  0  0
   -7.1447    7.8750    0.0000 C   0  0  0  0  0  0  0  0  0  0  0  0
   -0.6495    1.1250    0.0000 C   0  0  0  0  0  0  0  0  0  0  0  0
    8.4437    9.3750    0.0000 C   0  0  0  0  0  0  0  0  0  0  0  0
   -5.8457    7.1250    0.0000 C   0  0  0  0  0  0  0  0  0  0  0  0
   -0.6495    2.6250    0.0000 C   0  0  0  0  0  0  0  0  0  0  0  0
    8.4437    7.8750    0.0000 C   0  0  0  0  0  0  0  0  0  0  0  0
   -4.5466    7.8750    0.0000 C   0  0  0  0  0  0  0  0  0  0  0  0
    0.6495    3.3750    0.0000 C   0  0  0  0  0  0  0  0  0  0  0  0
    7.1447    7.1250    0.0000 C   0  0  0  0  0  0  0  0  0  0  0  0
   -3.2476    7.1250    0.0000 C   0  0  0  0  0  0  0  0  0  0  0  0
    0.6495    4.8750    0.0000 C   0  0  0  0  0  0  0  0  0  0  0  0
    5.8457    7.8750    0.0000 C   0  0  0  0  0  0  0  0  0  0  0  0
   -1.9486    7.8750    0.0000 C   0  0  0  0  0  0  0  0  0  0  0  0
    1.9486    5.6250    0.0000 C   0  0  0  0  0  0  0  0  0  0  0  0
    4.5466    7.1250    0.0000 C   0  0  0  0  0  0  0  0  0  0  0  0
   -0.6495    7.1250    0.0000 C   0  0  0  0  0  0  0  0  0  0  0  0
    1.9486    7.1250    0.0000 C   0  0  0  0  0  0  0  0  0  0  0  0
    3.2476    7.8750    0.0000 O   0  0  0  0  0  0  0  0  0  0  0  0
    0.6495    7.8750    0.0000 O   0  0  0  0  0  0  0  0  0  0  0  0
  4  1  1  0
  5  2  1  0
  6  3  1  0
  7  4  1  0
  8  5  1  0
  9  6  1  0
  7 10  2  0
 11  8  1  0
 12  9  1  0
 13 10  1  0
 11 14  2  0
 15 12  1  0
 16 13  1  0
 17 14  1  0
 18 15  1  0
 19 16  1  0
 19 18  1  0
 20 17  1  0
 20 18  1  0
M  END
>  <NAME>  (2157) 
HEXANAL 2E-HEXENYL 3Z-HEXENYL ACETAL

>  <SYNONYMS>  (2157) 


>  <SPECTRUM TYPE>  (2157) 
MS1

>  <INSTRUMENT TYPE>  (2157) 
EI-B

>  <INSTRUMENT>  (2157) 
HITACHI M-80B

>  <ION MODE>  (2157) 
P

>  <INCHIKEY>  (2157) 
HNIIEWOWRPNMNR-BXHQFMRESA-N

>  <FORMULA>  (2157) 
C18H34O2

>  <EXACT MASS>  (2157) 
282.255880328

>  <MW>  (2157) 
282

>  <ID>  (2157) 
JP009092

>  <CONTRIBUTOR>  (2157) 
University of Tokyo Team, {Faculty of Engineering, University of Tokyo

>  <COMMENT>  (2157) 
SMILES=CCCC=CCOC(CCCCC)OCCC=CCC
InChI=InChI=1S/C18H34O2/c1-4-7-10-13-16-19-18(15-12-9-6-3)20-17-14-11-8-5-2/h7,10-11,14,18H,4-6,8-9,12-13,15-17H2,1-3H3/b10-7-,14-11+
computed SMILES=O(CC=CCCC)C(OCCC=CCC)CCCCC
accession=JP009092
date=2016.01.19 (Created 2008.10.21, modified 2011.05.06)
author=SODA AROMATIC CO., LTD.
license=CC BY-NC-SA
exact mass=282.25588
ionization energy=70 eV
ion type=[M]+*
computed spectral entropy=2.182544444161968
computed normalized entropy=0.6698832949521331
SPLASH=splash10-053r-9000000000-2c06d8b8e530cc5c6247
submitter=submitter = University of Tokyo Team (Faculty of Engineering, University of Tokyo)
MoNA Rating=3.75

>  <NUM PEAKS>  (2157) 
26

>  <MASS SPECTRAL PEAKS>  (2157) 
27 5.22
29 6.54
31 1.21
39 5.38
41 26.29
42 2.48
43 5.29
44 1.06
53 2
54 2.78
55 50.31
56 3.25
57 5.01
67 8.81
68 1.14
69 1.99
71 1.15
81 1.67
82 8.01
83 99.99
84 7.29
99 1.5
101 1.68
113 2.31
139 1.14
183 2.05

$$$$

     RDKit          2D

 19 18  0  0  0  0  0  0  0  0999 V2000
    4.5466    7.1250    0.0000 C   0  0  0  0  0  0  0  0  0  0  0  0
   -7.1447   13.8750    0.0000 C   0  0  0  0  0  0  0  0  0  0  0  0
  -12.3409    7.8750    0.0000 C   0  0  0  0  0  0  0  0  0  0  0  0
    3.2476    7.8750    0.0000 C   0  0  0  0  0  0  0  0  0  0  0  0
   -7.1447   12.3750    0.0000 C   0  0  0  0  0  0  0  0  0  0  0  0
  -11.0418    7.1250    0.0000 C   0  0  0  0  0  0  0  0  0  0  0  0
    1.9486    7.1250    0.0000 C   0  0  0  0  0  0  0  0  0  0  0  0
   -5.8457   11.6250    0.0000 C   0  0  0  0  0  0  0  0  0  0  0  0
   -9.7428    7.8750    0.0000 C   0  0  0  0  0  0  0  0  0  0  0  0
    0.6495    7.8750    0.0000 C   0  0  0  0  0  0  0  0  0  0  0  0
   -5.8457   10.1250    0.0000 C   0  0  0  0  0  0  0  0  0  0  0  0
   -8.4437    7.1250    0.0000 C   0  0  0  0  0  0  0  0  0  0  0  0
   -0.6495    7.1250    0.0000 C   0  0  0  0  0  0  0  0  0  0  0  0
   -4.5466    9.3750    0.0000 C   0  0  0  0  0  0  0  0  0  0  0  0
   -7.1447    7.8750    0.0000 C   0  0  0  0  0  0  0  0  0  0  0  0
   -1.9486    7.8750    0.0000 C   0  0  0  0  0  0  0  0  0  0  0  0
   -4.5466    7.8750    0.0000 C   0  0  0  0  0  0  0  0  0  0  0  0
   -5.8457    7.1250    0.0000 O   0  0  0  0  0  0  0  0  0  0  0  0
   -3.2476    7.1250    0.0000 O   0  0  0  0  0  0  0  0  0  0  0  0
  4  1  1  0
  5  2  1  0
  6  3  1  0
  7  4  1  0
  8  5  1  0
  9  6  1  0
 10  7  1  0
 11  8  1  0
 12  9  1  0
 10 13  2  0
 14 11  1  0
 15 12  1  0
 16 13  1  0
 17 14  1  0
 18 15  1  0
 18 17  1  0
 19 16  1  0
 19 17  1  0
M  END
>  <NAME>  (2158) 
HEXANAL TRANS-2-HEXENYL PENTYL ACETAL

>  <SYNONYMS>  (2158) 


>  <SPECTRUM TYPE>  (2158) 
MS1

>  <INSTRUMENT TYPE>  (2158) 
EI-B

>  <INSTRUMENT>  (2158) 
HITACHI M-80B

>  <ION MODE>  (2158) 
P

>  <INCHIKEY>  (2158) 
LZISIXHTZISKMZ-JLHYYAGUSA-N

>  <FORMULA>  (2158) 
C17H34O2

>  <EXACT MASS>  (2158) 
270.255880328

>  <MW>  (2158) 
270

>  <ID>  (2158) 
JP009091

>  <CONTRIBUTOR>  (2158) 
University of Tokyo Team, {Faculty of Engineering, University of Tokyo

>  <COMMENT>  (2158) 
SMILES=CCCC=CCOC(CCCCC)OCCCCC
InChI=InChI=1S/C17H34O2/c1-4-7-10-13-16-19-17(14-11-8-5-2)18-15-12-9-6-3/h10,13,17H,4-9,11-12,14-16H2,1-3H3/b13-10+
computed SMILES=O(CC=CCCC)C(OCCCCC)CCCCC
accession=JP009091
date=2016.01.19 (Created 2008.10.21, modified 2011.05.06)
author=SODA AROMATIC CO., LTD.
license=CC BY-NC-SA
exact mass=270.25588
ionization energy=70 eV
ion type=[M]+*
computed spectral entropy=2.5813388747088815
computed normalized entropy=0.7665910585347205
SPLASH=splash10-053u-9000000000-365e9efffdd78054569e
submitter=submitter = University of Tokyo Team (Faculty of Engineering, University of Tokyo)
MoNA Rating=3.75

>  <NUM PEAKS>  (2158) 
29

>  <MASS SPECTRAL PEAKS>  (2158) 
27 7.48
29 11.84
31 1.61
39 5.94
41 26.72
42 6.04
43 33.49
44 1.91
53 1.96
54 6.28
55 41.19
56 3.65
57 14.4
67 5.58
69 2.06
70 1.99
71 27.3
72 1.53
82 5.99
83 99.99
84 7.31
99 1.63
100 1.06
101 11.46
113 1.37
117 2.9
127 1.59
139 3.53
171 5.54

$$$$

     RDKit          2D

 19 18  0  0  0  0  0  0  0  0999 V2000
   -5.8457    4.8750    0.0000 C   0  0  0  0  0  0  0  0  0  0  0  0
    4.5466   13.8750    0.0000 C   0  0  0  0  0  0  0  0  0  0  0  0
    9.7428    7.8750    0.0000 C   0  0  0  0  0  0  0  0  0  0  0  0
   -4.5466    5.6250    0.0000 C   0  0  0  0  0  0  0  0  0  0  0  0
    4.5466   12.3750    0.0000 C   0  0  0  0  0  0  0  0  0  0  0  0
    8.4437    7.1250    0.0000 C   0  0  0  0  0  0  0  0  0  0  0  0
   -4.5466    7.1250    0.0000 C   0  0  0  0  0  0  0  0  0  0  0  0
    3.2476   11.6250    0.0000 C   0  0  0  0  0  0  0  0  0  0  0  0
    7.1447    7.8750    0.0000 C   0  0  0  0  0  0  0  0  0  0  0  0
   -3.2476    7.8750    0.0000 C   0  0  0  0  0  0  0  0  0  0  0  0
    3.2476   10.1250    0.0000 C   0  0  0  0  0  0  0  0  0  0  0  0
    5.8457    7.1250    0.0000 C   0  0  0  0  0  0  0  0  0  0  0  0
   -1.9486    7.1250    0.0000 C   0  0  0  0  0  0  0  0  0  0  0  0
    1.9486    9.3750    0.0000 C   0  0  0  0  0  0  0  0  0  0  0  0
    4.5466    7.8750    0.0000 C   0  0  0  0  0  0  0  0  0  0  0  0
   -0.6495    7.8750    0.0000 C   0  0  0  0  0  0  0  0  0  0  0  0
    1.9486    7.8750    0.0000 C   0  0  0  0  0  0  0  0  0  0  0  0
    3.2476    7.1250    0.0000 O   0  0  0  0  0  0  0  0  0  0  0  0
    0.6495    7.1250    0.0000 O   0  0  0  0  0  0  0  0  0  0  0  0
  4  1  1  0
  5  2  1  0
  6  3  1  0
  7  4  1  0
  8  5  1  0
  9  6  1  0
  7 10  2  0
 11  8  1  0
 12  9  1  0
 13 10  1  0
 14 11  1  0
 15 12  1  0
 16 13  1  0
 17 14  1  0
 18 15  1  0
 18 17  1  0
 19 16  1  0
 19 17  1  0
M  END
>  <NAME>  (2159) 
HEXANAL CIS-3-HEXENYL PENTYL ACETAL

>  <SYNONYMS>  (2159) 


>  <SPECTRUM TYPE>  (2159) 
MS1

>  <INSTRUMENT TYPE>  (2159) 
EI-B

>  <INSTRUMENT>  (2159) 
HITACHI M-80B

>  <ION MODE>  (2159) 
P

>  <INCHIKEY>  (2159) 
ZCGOMMOYYRGVQY-YFHOEESVSA-N

>  <FORMULA>  (2159) 
C17H34O2

>  <EXACT MASS>  (2159) 
270.255880328

>  <MW>  (2159) 
270

>  <ID>  (2159) 
JP009090

>  <CONTRIBUTOR>  (2159) 
University of Tokyo Team, {Faculty of Engineering, University of Tokyo

>  <COMMENT>  (2159) 
SMILES=CCC=CCCOC(CCCCC)OCCCCC
InChI=InChI=1S/C17H34O2/c1-4-7-10-13-16-19-17(14-11-8-5-2)18-15-12-9-6-3/h7,10,17H,4-6,8-9,11-16H2,1-3H3/b10-7-
computed SMILES=O(CCC=CCC)C(OCCCCC)CCCCC
accession=JP009090
date=2016.01.19 (Created 2008.10.21, modified 2011.05.06)
author=SODA AROMATIC CO., LTD.
license=CC BY-NC-SA
exact mass=270.25588
ionization energy=70 eV
ion type=[M]+*
computed spectral entropy=2.711661272384501
computed normalized entropy=0.7755342222818461
SPLASH=splash10-053u-9100000000-943389872f2f1e7374e7
submitter=submitter = University of Tokyo Team (Faculty of Engineering, University of Tokyo)
MoNA Rating=3.75

>  <NUM PEAKS>  (2159) 
33

>  <MASS SPECTRAL PEAKS>  (2159) 
27 8.3
29 17.56
31 3.25
39 8.08
41 36.38
42 9.3
43 48.63
44 1.95
45 1.17
53 2.81
54 2.28
55 61.39
56 4.67
57 11.93
67 11.1
68 1.16
69 2.63
70 2.46
71 25.07
72 1.66
81 1.48
82 11.74
83 99.99
84 6.16
99 1.29
101 26.58
102 1.42
113 1.34
117 5.54
125 1.45
171 26.21
172 2.77
183 1.86

$$$$

     RDKit          2D

 17 17  0  0  0  0  0  0  0  0999 V2000
    4.8721    3.8829    0.0000 C   0  0  0  0  0  0  0  0  0  0  0  0
   -0.3240   -0.6171    0.0000 C   0  0  0  0  0  0  0  0  0  0  0  0
    3.5731    3.1329    0.0000 C   0  0  0  0  0  0  0  0  0  0  0  0
   -0.3240    0.8829    0.0000 C   0  0  0  0  0  0  0  0  0  0  0  0
    2.2740    3.8829    0.0000 C   0  0  0  0  0  0  0  0  0  0  0  0
   -8.1183    5.3829    0.0000 C   0  0  0  0  0  0  0  0  0  0  0  0
    0.9750    3.1329    0.0000 C   0  0  0  0  0  0  0  0  0  0  0  0
   -8.1187    3.8821    0.0000 C   0  0  0  0  0  0  0  0  0  0  0  0
   -6.8187    6.1337    0.0000 C   0  0  0  0  0  0  0  0  0  0  0  0
   -6.8197    3.1321    0.0000 C   0  0  0  0  0  0  0  0  0  0  0  0
   -5.5197    5.3837    0.0000 C   0  0  0  0  0  0  0  0  0  0  0  0
   -0.3240    3.8829    0.0000 C   0  0  0  0  0  0  0  0  0  0  0  0
   -4.2212    3.1329    0.0000 C   0  0  0  0  0  0  0  0  0  0  0  0
   -5.5202    3.8829    0.0000 C   0  0  0  0  0  0  0  0  0  0  0  0
   -1.6231    3.1329    0.0000 C   0  0  0  0  0  0  0  0  0  0  0  0
   -1.6231    1.6329    0.0000 O   0  0  0  0  0  0  0  0  0  0  0  0
   -2.9221    3.8829    0.0000 O   0  0  0  0  0  0  0  0  0  0  0  0
  3  1  1  0
  4  2  1  0
  5  3  1  0
  7  5  1  0
  8  6  2  0
  9  6  1  0
 10  8  1  0
 11  9  2  0
 12  7  1  0
 14 10  2  0
 14 11  1  0
 14 13  1  0
 15 12  1  0
 16  4  1  0
 16 15  1  0
 17 13  1  0
 17 15  1  0
M  END
>  <NAME>  (2160) 
HEXANAL BENZYL ETHYL ACETAL

>  <SYNONYMS>  (2160) 


>  <SPECTRUM TYPE>  (2160) 
MS1

>  <INSTRUMENT TYPE>  (2160) 
EI-B

>  <INSTRUMENT>  (2160) 
HITACHI M-80B

>  <ION MODE>  (2160) 
P

>  <INCHIKEY>  (2160) 
ZESDQEHIQRRQEU-UHFFFAOYSA-N

>  <FORMULA>  (2160) 
C15H24O2

>  <EXACT MASS>  (2160) 
236.177630008

>  <MW>  (2160) 
236

>  <ID>  (2160) 
JP009089

>  <CONTRIBUTOR>  (2160) 
University of Tokyo Team, {Faculty of Engineering, University of Tokyo

>  <COMMENT>  (2160) 
SMILES=CCCCCC(OCC)OCc(c1)cccc1
InChI=InChI=1S/C15H24O2/c1-3-5-7-12-15(16-4-2)17-13-14-10-8-6-9-11-14/h6,8-11,15H,3-5,7,12-13H2,1-2H3
computed SMILES=O(CC=1C=CC=CC1)C(OCC)CCCCC
accession=JP009089
date=2016.01.19 (Created 2008.10.21, modified 2011.05.06)
ionization energy=70 eV
author=SODA AROMATIC CO., LTD.
license=CC BY-NC-SA
exact mass=236.17763
ion type=[M]+*
computed spectral entropy=1.792613190482836
computed normalized entropy=0.5983889836577976
SPLASH=splash10-0006-9000000000-458ff48878cbb9690f1b
submitter=submitter = University of Tokyo Team (Faculty of Engineering, University of Tokyo)
MoNA Rating=3.75

>  <NUM PEAKS>  (2160) 
20

>  <MASS SPECTRAL PEAKS>  (2160) 
27 3.1
29 5.27
39 2.05
41 3.93
43 3.58
51 1.24
55 5.91
57 3.47
65 5.12
77 1.62
79 1.23
83 5.58
85 1.33
89 1.09
90 1.44
91 99.99
92 10.11
107 1.56
129 4.54
165 6.37

$$$$

     RDKit          2D

 14 13  0  0  0  0  0  0  0  0999 V2000
    3.8971    6.7500    0.0000 C   0  0  0  0  0  0  0  0  0  0  0  0
  -11.6913    6.7500    0.0000 C   0  0  0  0  0  0  0  0  0  0  0  0
   -3.8971    5.2500    0.0000 C   0  0  0  0  0  0  0  0  0  0  0  0
    2.5981    7.5000    0.0000 C   0  0  0  0  0  0  0  0  0  0  0  0
  -10.3923    7.5000    0.0000 C   0  0  0  0  0  0  0  0  0  0  0  0
    1.2990    6.7500    0.0000 C   0  0  0  0  0  0  0  0  0  0  0  0
   -9.0933    6.7500    0.0000 C   0  0  0  0  0  0  0  0  0  0  0  0
    0.0000    7.5000    0.0000 C   0  0  0  0  0  0  0  0  0  0  0  0
   -7.7942    7.5000    0.0000 C   0  0  0  0  0  0  0  0  0  0  0  0
   -1.2990    6.7500    0.0000 C   0  0  0  0  0  0  0  0  0  0  0  0
   -6.4952    6.7500    0.0000 C   0  0  0  0  0  0  0  0  0  0  0  0
   -3.8971    6.7500    0.0000 C   0  0  0  0  0  0  0  0  0  0  0  0
   -2.5981    7.5000    0.0000 O   0  0  0  0  0  0  0  0  0  0  0  0
   -5.1962    7.5000    0.0000 O   0  0  0  0  0  0  0  0  0  0  0  0
  4  1  1  0
  5  2  1  0
  6  4  1  0
  7  5  1  0
  8  6  1  0
  9  7  1  0
 10  8  1  0
 11  9  1  0
 12  3  1  0
 13 10  1  0
 13 12  1  0
 14 11  1  0
 14 12  1  0
M  END
>  <NAME>  (2161) 
ACETALDEHYDE DIPENTYL ACETAL

>  <SYNONYMS>  (2161) 


>  <SPECTRUM TYPE>  (2161) 
MS1

>  <INSTRUMENT TYPE>  (2161) 
EI-B

>  <INSTRUMENT>  (2161) 
HITACHI M-80B

>  <ION MODE>  (2161) 
P

>  <INCHIKEY>  (2161) 
MIAGHUUTGZIIJW-UHFFFAOYSA-N

>  <FORMULA>  (2161) 
C12H26O2

>  <EXACT MASS>  (2161) 
202.193280072

>  <MW>  (2161) 
202

>  <ID>  (2161) 
JP009088

>  <CONTRIBUTOR>  (2161) 
University of Tokyo Team, {Faculty of Engineering, University of Tokyo

>  <COMMENT>  (2161) 
SMILES=CCCCCOC(C)OCCCCC
InChI=InChI=1S/C12H26O2/c1-4-6-8-10-13-12(3)14-11-9-7-5-2/h12H,4-11H2,1-3H3
computed SMILES=O(CCCCC)C(OCCCCC)C
accession=JP009088
date=2016.01.19 (Created 2008.10.21, modified 2011.05.06)
author=SODA AROMATIC CO., LTD.
license=CC BY-NC-SA
exact mass=202.19328
ionization energy=70 eV
ion type=[M]+*
computed spectral entropy=2.476685251014477
computed normalized entropy=0.769425534181918
SPLASH=splash10-00r6-9200000000-3abe379da7e0a05f5b20
submitter=submitter = University of Tokyo Team (Faculty of Engineering, University of Tokyo)
MoNA Rating=3.75

>  <NUM PEAKS>  (2161) 
25

>  <MASS SPECTRAL PEAKS>  (2161) 
27 13.58
29 20.76
31 6.61
39 7.49
41 26.14
42 19.66
43 79.32
44 4.72
45 31.54
53 1.15
55 17.08
56 1.92
57 2.1
58 1.13
61 1.23
69 1.91
70 9.04
71 99.99
72 5.76
97 2.24
99 4.02
115 66.29
116 5.39
117 3.48
187 8.62

$$$$

     RDKit          2D

 16 15  0  0  0  0  0  0  0  0999 V2000
   -4.8714    5.0625    0.0000 C   0  0  0  0  0  0  0  0  0  0  0  0
    9.4180    7.3125    0.0000 C   0  0  0  0  0  0  0  0  0  0  0  0
    4.2219   11.8125    0.0000 C   0  0  0  0  0  0  0  0  0  0  0  0
   -3.5724    5.8125    0.0000 C   0  0  0  0  0  0  0  0  0  0  0  0
    8.1190    8.0625    0.0000 C   0  0  0  0  0  0  0  0  0  0  0  0
    4.2219   10.3125    0.0000 C   0  0  0  0  0  0  0  0  0  0  0  0
   -3.5724    7.3125    0.0000 C   0  0  0  0  0  0  0  0  0  0  0  0
    6.8200    7.3125    0.0000 C   0  0  0  0  0  0  0  0  0  0  0  0
   -2.2733    8.0625    0.0000 C   0  0  0  0  0  0  0  0  0  0  0  0
    5.5209    8.0625    0.0000 C   0  0  0  0  0  0  0  0  0  0  0  0
   -0.9743    7.3125    0.0000 C   0  0  0  0  0  0  0  0  0  0  0  0
    4.2219    7.3125    0.0000 C   0  0  0  0  0  0  0  0  0  0  0  0
    0.3248    8.0625    0.0000 C   0  0  0  0  0  0  0  0  0  0  0  0
    2.9228    8.0625    0.0000 C   0  0  0  0  0  0  0  0  0  0  0  0
    2.9228    9.5625    0.0000 O   0  0  0  0  0  0  0  0  0  0  0  0
    1.6238    7.3125    0.0000 O   0  0  0  0  0  0  0  0  0  0  0  0
  4  1  1  0
  5  2  1  0
  6  3  1  0
  7  4  1  0
  8  5  1  0
  7  9  2  0
 10  8  1  0
 11  9  1  0
 12 10  1  0
 13 11  1  0
 14 12  1  0
 15  6  1  0
 15 14  1  0
 16 13  1  0
 16 14  1  0
M  END
>  <NAME>  (2162) 
HEXANAL ETHYL CIS-3-HEXENYL ACETAL

>  <SYNONYMS>  (2162) 


>  <SPECTRUM TYPE>  (2162) 
MS1

>  <INSTRUMENT TYPE>  (2162) 
EI-B

>  <INSTRUMENT>  (2162) 
HITACHI M-80B

>  <ION MODE>  (2162) 
P

>  <INCHIKEY>  (2162) 
PNXNUQGJDZBEHV-CLFYSBASSA-N

>  <FORMULA>  (2162) 
C14H28O2

>  <EXACT MASS>  (2162) 
228.208930136

>  <MW>  (2162) 
228

>  <ID>  (2162) 
JP009087

>  <CONTRIBUTOR>  (2162) 
University of Tokyo Team, {Faculty of Engineering, University of Tokyo

>  <COMMENT>  (2162) 
SMILES=CCC=CCCOC(OCC)CCCCC
InChI=InChI=1S/C14H28O2/c1-4-7-9-11-13-16-14(15-6-3)12-10-8-5-2/h7,9,14H,4-6,8,10-13H2,1-3H3/b9-7-
computed SMILES=O(CC)C(OCCC=CCC)CCCCC
accession=JP009087
date=2016.01.19 (Created 2008.10.21, modified 2011.05.06)
author=SODA AROMATIC CO., LTD.
license=CC BY-NC-SA
exact mass=228.20893
ionization energy=70 eV
ion type=[M]+*
computed spectral entropy=2.578962093670592
computed normalized entropy=0.7313381815806561
SPLASH=splash10-057i-9200000000-2970be37c01a7476c32b
submitter=submitter = University of Tokyo Team (Faculty of Engineering, University of Tokyo)
MoNA Rating=3.75

>  <NUM PEAKS>  (2162) 
34

>  <MASS SPECTRAL PEAKS>  (2162) 
27 11.74
29 19.66
31 3.61
39 9.15
41 34.48
42 3.59
43 9.94
44 2.85
45 2.34
47 3.22
53 3.47
54 2.18
55 73.24
56 5.14
57 9.37
58 1.18
59 3.85
67 11.45
68 1.07
69 1.85
71 1.45
72 1.3
75 9.86
81 1.62
82 7.68
83 99.99
84 7.29
85 3.31
101 2.1
129 76.28
130 7.04
145 1.22
157 1.2
183 1.14

$$$$

     RDKit          2D

 21 21  0  0  0  0  0  0  0  0999 V2000
   -9.7428    3.6950    0.0000 C   0  0  0  0  0  0  0  0  0  0  0  0
    1.9486   10.4450    0.0000 C   0  0  0  0  0  0  0  0  0  0  0  0
   -8.4437    4.4450    0.0000 C   0  0  0  0  0  0  0  0  0  0  0  0
    1.9486    8.9450    0.0000 C   0  0  0  0  0  0  0  0  0  0  0  0
   -7.1447    3.6950    0.0000 C   0  0  0  0  0  0  0  0  0  0  0  0
    0.6495    8.1950    0.0000 C   0  0  0  0  0  0  0  0  0  0  0  0
   -5.8457    4.4450    0.0000 C   0  0  0  0  0  0  0  0  0  0  0  0
    5.8457    2.1950    0.0000 C   0  0  0  0  0  0  0  0  0  0  0  0
    0.6495    6.6950    0.0000 C   0  0  0  0  0  0  0  0  0  0  0  0
    5.8462    3.6958    0.0000 C   0  0  0  0  0  0  0  0  0  0  0  0
    4.5462    1.4442    0.0000 C   0  0  0  0  0  0  0  0  0  0  0  0
   -4.5466    3.6950    0.0000 C   0  0  0  0  0  0  0  0  0  0  0  0
    4.5471    4.4458    0.0000 C   0  0  0  0  0  0  0  0  0  0  0  0
    3.2471    2.1942    0.0000 C   0  0  0  0  0  0  0  0  0  0  0  0
   -0.6495    5.9450    0.0000 C   0  0  0  0  0  0  0  0  0  0  0  0
   -3.2476    4.4450    0.0000 C   0  0  0  0  0  0  0  0  0  0  0  0
    1.9486    4.4450    0.0000 C   0  0  0  0  0  0  0  0  0  0  0  0
    3.2476    3.6950    0.0000 C   0  0  0  0  0  0  0  0  0  0  0  0
   -0.6495    4.4450    0.0000 C   0  0  0  0  0  0  0  0  0  0  0  0
   -1.9486    3.6950    0.0000 O   0  0  0  0  0  0  0  0  0  0  0  0
    0.6495    3.6950    0.0000 O   0  0  0  0  0  0  0  0  0  0  0  0
  3  1  1  0
  4  2  1  0
  5  3  1  0
  6  4  1  0
  7  5  1  0
  9  6  1  0
 10  8  2  0
 11  8  1  0
 12  7  1  0
 13 10  1  0
 14 11  2  0
 15  9  1  0
 16 12  1  0
 18 13  2  0
 18 14  1  0
 18 17  1  0
 19 15  1  0
 20 16  1  0
 20 19  1  0
 21 17  1  0
 21 19  1  0
M  END
>  <NAME>  (2163) 
HEXANAL BENZYL HEXYL ACETAL

>  <SYNONYMS>  (2163) 


>  <SPECTRUM TYPE>  (2163) 
MS1

>  <INSTRUMENT TYPE>  (2163) 
EI-B

>  <INSTRUMENT>  (2163) 
HITACHI M-80B

>  <ION MODE>  (2163) 
P

>  <INCHIKEY>  (2163) 
VTDFABSNRXBZMU-UHFFFAOYSA-N

>  <FORMULA>  (2163) 
C19H32O2

>  <EXACT MASS>  (2163) 
292.240230264

>  <MW>  (2163) 
292

>  <ID>  (2163) 
JP009086

>  <CONTRIBUTOR>  (2163) 
University of Tokyo Team, {Faculty of Engineering, University of Tokyo

>  <COMMENT>  (2163) 
SMILES=CCCCCCOC(CCCCC)OCc(c1)cccc1
InChI=InChI=1S/C19H32O2/c1-3-5-7-12-16-20-19(15-9-6-4-2)21-17-18-13-10-8-11-14-18/h8,10-11,13-14,19H,3-7,9,12,15-17H2,1-2H3
computed SMILES=O(CC=1C=CC=CC1)C(OCCCCCC)CCCCC
accession=JP009086
date=2016.01.19 (Created 2008.10.21, modified 2011.05.06)
author=SODA AROMATIC CO., LTD.
license=CC BY-NC-SA
exact mass=292.24023
ionization energy=70 eV
ion type=[M]+*
computed spectral entropy=1.875038306068144
computed normalized entropy=0.6066038672587548
SPLASH=splash10-0006-9000000000-0436fd6dd8c45fa06447
submitter=submitter = University of Tokyo Team (Faculty of Engineering, University of Tokyo)
MoNA Rating=3.75

>  <NUM PEAKS>  (2163) 
22

>  <MASS SPECTRAL PEAKS>  (2163) 
27 2.55
29 3.31
39 2.06
41 7.5
42 1.67
43 15.83
55 3.76
56 1.91
57 5.36
65 2.69
77 1.35
79 1.87
82 1.45
83 4.73
85 2.19
90 1.06
91 99.99
92 10.14
101 2.12
107 2.15
108 1.51
221 2.27

$$$$

     RDKit          2D

 20 19  0  0  0  0  0  0  0  0999 V2000
    9.7428   10.1250    0.0000 C   0  0  0  0  0  0  0  0  0  0  0  0
   -7.1447    7.8750    0.0000 C   0  0  0  0  0  0  0  0  0  0  0  0
   -0.6495    1.1250    0.0000 C   0  0  0  0  0  0  0  0  0  0  0  0
    8.4437    9.3750    0.0000 C   0  0  0  0  0  0  0  0  0  0  0  0
   -5.8457    7.1250    0.0000 C   0  0  0  0  0  0  0  0  0  0  0  0
   -0.6495    2.6250    0.0000 C   0  0  0  0  0  0  0  0  0  0  0  0
    8.4437    7.8750    0.0000 C   0  0  0  0  0  0  0  0  0  0  0  0
   -4.5466    7.8750    0.0000 C   0  0  0  0  0  0  0  0  0  0  0  0
    0.6495    3.3750    0.0000 C   0  0  0  0  0  0  0  0  0  0  0  0
    7.1447    7.1250    0.0000 C   0  0  0  0  0  0  0  0  0  0  0  0
   -3.2476    7.1250    0.0000 C   0  0  0  0  0  0  0  0  0  0  0  0
    0.6495    4.8750    0.0000 C   0  0  0  0  0  0  0  0  0  0  0  0
    5.8457    7.8750    0.0000 C   0  0  0  0  0  0  0  0  0  0  0  0
   -1.9486    7.8750    0.0000 C   0  0  0  0  0  0  0  0  0  0  0  0
    1.9486    5.6250    0.0000 C   0  0  0  0  0  0  0  0  0  0  0  0
    4.5466    7.1250    0.0000 C   0  0  0  0  0  0  0  0  0  0  0  0
   -0.6495    7.1250    0.0000 C   0  0  0  0  0  0  0  0  0  0  0  0
    1.9486    7.1250    0.0000 C   0  0  0  0  0  0  0  0  0  0  0  0
    3.2476    7.8750    0.0000 O   0  0  0  0  0  0  0  0  0  0  0  0
    0.6495    7.8750    0.0000 O   0  0  0  0  0  0  0  0  0  0  0  0
  4  1  1  0
  5  2  1  0
  6  3  1  0
  7  4  1  0
  8  5  1  0
  9  6  1  0
  7 10  2  0
 11  8  1  0
 12  9  1  0
 13 10  1  0
 14 11  1  0
 15 12  1  0
 16 13  1  0
 17 14  1  0
 18 15  1  0
 19 16  1  0
 19 18  1  0
 20 17  1  0
 20 18  1  0
M  END
>  <NAME>  (2164) 
HEXANAL CIS-3-HEXENYL HEXYL ACETAL

>  <SYNONYMS>  (2164) 


>  <SPECTRUM TYPE>  (2164) 
MS1

>  <INSTRUMENT TYPE>  (2164) 
EI-B

>  <INSTRUMENT>  (2164) 
HITACHI M-80B

>  <ION MODE>  (2164) 
P

>  <INCHIKEY>  (2164) 
ZSNIHKPCTYBURZ-YFHOEESVSA-N

>  <FORMULA>  (2164) 
C18H36O2

>  <EXACT MASS>  (2164) 
284.271530392

>  <MW>  (2164) 
284

>  <ID>  (2164) 
JP009085

>  <CONTRIBUTOR>  (2164) 
University of Tokyo Team, {Faculty of Engineering, University of Tokyo

>  <COMMENT>  (2164) 
SMILES=CCCCCCOC(CCCCC)OCCC=CCC
InChI=InChI=1S/C18H36O2/c1-4-7-10-13-16-19-18(15-12-9-6-3)20-17-14-11-8-5-2/h7,10,18H,4-6,8-9,11-17H2,1-3H3/b10-7-
computed SMILES=O(CCC=CCC)C(OCCCCCC)CCCCC
author=SODA AROMATIC CO., LTD.
accession=JP009085
date=2016.01.19 (Created 2008.10.21, modified 2011.05.06)
license=CC BY-NC-SA
exact mass=284.27153
ionization energy=70 eV
ion type=[M]+*
computed spectral entropy=2.775321022061503
computed normalized entropy=0.7744680772517968
SPLASH=splash10-053u-9100000000-75e691bbe9b9ca1513f5
submitter=submitter = University of Tokyo Team (Faculty of Engineering, University of Tokyo)
MoNA Rating=3.75

>  <NUM PEAKS>  (2164) 
36

>  <MASS SPECTRAL PEAKS>  (2164) 
27 8.94
29 13.23
31 3.23
39 8.23
41 38.58
42 8.69
43 62.78
44 2.25
53 3.02
54 2.45
55 58.97
56 11.2
57 16.8
58 1.18
67 12.29
68 1.05
69 3.32
70 1.44
71 2.91
81 1.46
82 14.14
83 99.99
84 7.77
85 28.35
86 1.7
100 1.12
101 27.26
102 1.53
113 2.28
117 1.78
125 1.52
131 2.84
183 2.19
184 1.26
185 25.44
186 3.38

$$$$

     RDKit          2D

 16 15  0  0  0  0  0  0  0  0999 V2000
    3.8971    6.7500    0.0000 C   0  0  0  0  0  0  0  0  0  0  0  0
  -11.6913    6.7500    0.0000 C   0  0  0  0  0  0  0  0  0  0  0  0
   -6.4952   11.2500    0.0000 C   0  0  0  0  0  0  0  0  0  0  0  0
    2.5981    7.5000    0.0000 C   0  0  0  0  0  0  0  0  0  0  0  0
  -10.3923    7.5000    0.0000 C   0  0  0  0  0  0  0  0  0  0  0  0
   -6.4952    9.7500    0.0000 C   0  0  0  0  0  0  0  0  0  0  0  0
    1.2990    6.7500    0.0000 C   0  0  0  0  0  0  0  0  0  0  0  0
   -9.0933    6.7500    0.0000 C   0  0  0  0  0  0  0  0  0  0  0  0
    0.0000    7.5000    0.0000 C   0  0  0  0  0  0  0  0  0  0  0  0
   -7.7942    7.5000    0.0000 C   0  0  0  0  0  0  0  0  0  0  0  0
   -1.2990    6.7500    0.0000 C   0  0  0  0  0  0  0  0  0  0  0  0
   -6.4952    6.7500    0.0000 C   0  0  0  0  0  0  0  0  0  0  0  0
   -2.5981    7.5000    0.0000 C   0  0  0  0  0  0  0  0  0  0  0  0
   -5.1962    7.5000    0.0000 C   0  0  0  0  0  0  0  0  0  0  0  0
   -5.1962    9.0000    0.0000 O   0  0  0  0  0  0  0  0  0  0  0  0
   -3.8971    6.7500    0.0000 O   0  0  0  0  0  0  0  0  0  0  0  0
  4  1  1  0
  5  2  1  0
  6  3  1  0
  7  4  1  0
  8  5  1  0
  9  7  1  0
 10  8  1  0
  9 11  2  0
 12 10  1  0
 13 11  1  0
 14 12  1  0
 15  6  1  0
 15 14  1  0
 16 13  1  0
 16 14  1  0
M  END
>  <NAME>  (2165) 
HEXANAL ETHYL TRANS-2-HEXENYL ACETAL

>  <SYNONYMS>  (2165) 


>  <SPECTRUM TYPE>  (2165) 
MS1

>  <INSTRUMENT TYPE>  (2165) 
EI-B

>  <INSTRUMENT>  (2165) 
HITACHI M-80B

>  <ION MODE>  (2165) 
P

>  <INCHIKEY>  (2165) 
WFWMTYHFABQEGD-PKNBQFBNSA-N

>  <FORMULA>  (2165) 
C14H28O2

>  <EXACT MASS>  (2165) 
228.208930136

>  <MW>  (2165) 
228

>  <ID>  (2165) 
JP009084

>  <CONTRIBUTOR>  (2165) 
University of Tokyo Team, {Faculty of Engineering, University of Tokyo

>  <COMMENT>  (2165) 
SMILES=CCCC=CCOC(OCC)CCCCC
InChI=InChI=1S/C14H28O2/c1-4-7-9-11-13-16-14(15-6-3)12-10-8-5-2/h9,11,14H,4-8,10,12-13H2,1-3H3/b11-9+
computed SMILES=O(CC=CCCC)C(OCC)CCCCC
accession=JP009084
date=2016.01.19 (Created 2008.10.21, modified 2011.05.06)
author=SODA AROMATIC CO., LTD.
license=CC BY-NC-SA
exact mass=228.20893
ionization energy=70 eV
ion type=[M]+*
computed spectral entropy=2.7982059605486342
computed normalized entropy=0.7935110267414346
SPLASH=splash10-003r-9000000000-ffb6e79eae319b221e42
submitter=submitter = University of Tokyo Team (Faculty of Engineering, University of Tokyo)
MoNA Rating=3.75

>  <NUM PEAKS>  (2165) 
34

>  <MASS SPECTRAL PEAKS>  (2165) 
27 12.93
29 17.7
31 3.15
39 9.68
41 34.67
42 4.57
43 19.22
44 3.57
45 2
47 7.19
53 2.83
54 8.77
55 56.04
56 4.02
57 11.49
58 1.09
59 2.33
67 16.08
69 1.56
71 3.45
72 1.41
73 1.19
75 12.42
81 1.77
82 20.52
83 99.99
84 7.42
85 6.8
99 6.46
101 1.11
129 23.39
130 1.68
139 2.77
157 1.59

$$$$

     RDKit          2D

 18 17  0  0  0  0  0  0  0  0999 V2000
   -7.1447    1.8750    0.0000 C   0  0  0  0  0  0  0  0  0  0  0  0
    3.2476    7.8750    0.0000 C   0  0  0  0  0  0  0  0  0  0  0  0
  -12.3409    7.8750    0.0000 C   0  0  0  0  0  0  0  0  0  0  0  0
   -7.1447    3.3750    0.0000 C   0  0  0  0  0  0  0  0  0  0  0  0
    1.9486    8.6250    0.0000 C   0  0  0  0  0  0  0  0  0  0  0  0
  -11.0418    8.6250    0.0000 C   0  0  0  0  0  0  0  0  0  0  0  0
   -5.8457    4.1250    0.0000 C   0  0  0  0  0  0  0  0  0  0  0  0
    0.6495    7.8750    0.0000 C   0  0  0  0  0  0  0  0  0  0  0  0
   -9.7428    7.8750    0.0000 C   0  0  0  0  0  0  0  0  0  0  0  0
   -5.8457    5.6250    0.0000 C   0  0  0  0  0  0  0  0  0  0  0  0
   -0.6495    8.6250    0.0000 C   0  0  0  0  0  0  0  0  0  0  0  0
   -8.4437    8.6250    0.0000 C   0  0  0  0  0  0  0  0  0  0  0  0
   -4.5466    6.3750    0.0000 C   0  0  0  0  0  0  0  0  0  0  0  0
   -1.9486    7.8750    0.0000 C   0  0  0  0  0  0  0  0  0  0  0  0
   -7.1447    7.8750    0.0000 C   0  0  0  0  0  0  0  0  0  0  0  0
   -4.5466    7.8750    0.0000 C   0  0  0  0  0  0  0  0  0  0  0  0
   -3.2476    8.6250    0.0000 O   0  0  0  0  0  0  0  0  0  0  0  0
   -5.8457    8.6250    0.0000 O   0  0  0  0  0  0  0  0  0  0  0  0
  4  1  1  0
  5  2  1  0
  6  3  1  0
  7  4  1  0
  8  5  1  0
  9  6  1  0
 10  7  1  0
 11  8  1  0
 12  9  1  0
 13 10  1  0
 14 11  1  0
 15 12  1  0
 16 13  1  0
 17 14  1  0
 17 16  1  0
 18 15  1  0
 18 16  1  0
M  END
>  <NAME>  (2166) 
HEXANAL DIPENTYL ACETAL

>  <SYNONYMS>  (2166) 


>  <SPECTRUM TYPE>  (2166) 
MS1

>  <INSTRUMENT TYPE>  (2166) 
EI-B

>  <INSTRUMENT>  (2166) 
HITACHI M-80B

>  <ION MODE>  (2166) 
P

>  <INCHIKEY>  (2166) 
MXIMWAJQWMYBAJ-UHFFFAOYSA-N

>  <FORMULA>  (2166) 
C16H34O2

>  <EXACT MASS>  (2166) 
258.255880328

>  <MW>  (2166) 
258

>  <ID>  (2166) 
JP009083

>  <CONTRIBUTOR>  (2166) 
University of Tokyo Team, {Faculty of Engineering, University of Tokyo

>  <COMMENT>  (2166) 
SMILES=CCCCCOC(CCCCC)OCCCCC
InChI=InChI=1S/C16H34O2/c1-4-7-10-13-16(17-14-11-8-5-2)18-15-12-9-6-3/h16H,4-15H2,1-3H3
computed SMILES=O(CCCCC)C(OCCCCC)CCCCC
accession=JP009083
date=2016.01.19 (Created 2008.10.21, modified 2011.05.06)
author=SODA AROMATIC CO., LTD.
license=CC BY-NC-SA
exact mass=258.25588
ionization energy=70 eV
ion type=[M]+*
computed spectral entropy=2.6039737562432044
computed normalized entropy=0.765605010248082
SPLASH=splash10-00dl-9200000000-ab031aa73eeb58d79349
submitter=submitter = University of Tokyo Team (Faculty of Engineering, University of Tokyo)
MoNA Rating=3.75

>  <NUM PEAKS>  (2166) 
30

>  <MASS SPECTRAL PEAKS>  (2166) 
27 7.74
28 1.33
29 21.94
31 2.33
39 4.04
40 1.13
41 23.75
42 11.62
43 78.89
44 3.91
45 1.22
53 1.07
55 19.43
56 2.43
57 4.94
69 2.55
70 3.12
71 99.99
72 4.35
81 1.11
83 27.82
84 1.56
99 2.1
101 23.35
102 1.56
117 17.57
171 33.89
172 3.45
187 22.53
188 2.4

$$$$

     RDKit          2D

 19 18  0  0  0  0  0  0  0  0999 V2000
    4.5466    7.1250    0.0000 C   0  0  0  0  0  0  0  0  0  0  0  0
   -7.1447   13.8750    0.0000 C   0  0  0  0  0  0  0  0  0  0  0  0
  -12.3409    7.8750    0.0000 C   0  0  0  0  0  0  0  0  0  0  0  0
    3.2476    7.8750    0.0000 C   0  0  0  0  0  0  0  0  0  0  0  0
   -7.1447   12.3750    0.0000 C   0  0  0  0  0  0  0  0  0  0  0  0
  -11.0418    7.1250    0.0000 C   0  0  0  0  0  0  0  0  0  0  0  0
    1.9486    7.1250    0.0000 C   0  0  0  0  0  0  0  0  0  0  0  0
   -5.8457   11.6250    0.0000 C   0  0  0  0  0  0  0  0  0  0  0  0
   -9.7428    7.8750    0.0000 C   0  0  0  0  0  0  0  0  0  0  0  0
    0.6495    7.8750    0.0000 C   0  0  0  0  0  0  0  0  0  0  0  0
   -5.8457   10.1250    0.0000 C   0  0  0  0  0  0  0  0  0  0  0  0
   -8.4437    7.1250    0.0000 C   0  0  0  0  0  0  0  0  0  0  0  0
   -0.6495    7.1250    0.0000 C   0  0  0  0  0  0  0  0  0  0  0  0
   -4.5466    9.3750    0.0000 C   0  0  0  0  0  0  0  0  0  0  0  0
   -7.1447    7.8750    0.0000 C   0  0  0  0  0  0  0  0  0  0  0  0
   -1.9486    7.8750    0.0000 C   0  0  0  0  0  0  0  0  0  0  0  0
   -4.5466    7.8750    0.0000 C   0  0  0  0  0  0  0  0  0  0  0  0
   -5.8457    7.1250    0.0000 O   0  0  0  0  0  0  0  0  0  0  0  0
   -3.2476    7.1250    0.0000 O   0  0  0  0  0  0  0  0  0  0  0  0
  4  1  1  0
  5  2  1  0
  6  3  1  0
  7  4  1  0
  8  5  1  0
  9  6  1  0
 10  7  1  0
 11  8  1  0
 12  9  1  0
 13 10  1  0
 14 11  1  0
 15 12  1  0
 16 13  1  0
 17 14  1  0
 18 15  1  0
 18 17  1  0
 19 16  1  0
 19 17  1  0
M  END
>  <NAME>  (2167) 
HEXANAL HEXYL PENTYL ACETAL

>  <SYNONYMS>  (2167) 


>  <SPECTRUM TYPE>  (2167) 
MS1

>  <INSTRUMENT TYPE>  (2167) 
EI-B

>  <INSTRUMENT>  (2167) 
HITACHI M-80B

>  <ION MODE>  (2167) 
P

>  <INCHIKEY>  (2167) 
GFNOERWAQBPPLQ-UHFFFAOYSA-N

>  <FORMULA>  (2167) 
C17H36O2

>  <EXACT MASS>  (2167) 
272.271530392

>  <MW>  (2167) 
272

>  <ID>  (2167) 
JP009082

>  <CONTRIBUTOR>  (2167) 
University of Tokyo Team, {Faculty of Engineering, University of Tokyo

>  <COMMENT>  (2167) 
SMILES=CCCCCCOC(CCCCC)OCCCCC
InChI=InChI=1S/C17H36O2/c1-4-7-10-13-16-19-17(14-11-8-5-2)18-15-12-9-6-3/h17H,4-16H2,1-3H3
computed SMILES=O(CCCCC)C(OCCCCCC)CCCCC
accession=JP009082
date=2016.01.19 (Created 2008.10.21, modified 2011.05.06)
author=SODA AROMATIC CO., LTD.
license=CC BY-NC-SA
exact mass=272.27153
ionization energy=70 eV
ion type=[M]+*
computed spectral entropy=2.988694874964042
computed normalized entropy=0.8157894321558463
SPLASH=splash10-0006-9100000000-ae705cbd4cd458e77d38
submitter=submitter = University of Tokyo Team (Faculty of Engineering, University of Tokyo)
MoNA Rating=3.75

>  <NUM PEAKS>  (2167) 
39

>  <MASS SPECTRAL PEAKS>  (2167) 
27 15.78
29 22.74
31 4.31
39 8.49
41 33.13
42 14.07
43 99.99
44 3.57
45 4.09
53 1.27
55 22.82
56 12.09
57 22.64
58 1.51
60 20.67
61 1.6
67 1.59
69 3.13
70 3.05
71 54.27
72 2.85
73 10.14
74 1.28
82 3.9
83 24.59
84 2.17
85 40.46
86 1.9
87 2.24
99 1.33
101 21.54
102 1.33
117 9.73
131 2.52
171 11.92
172 1.02
185 8.03
201 9.68
202 1.01

$$$$

     RDKit          2D

 15 14  0  0  0  0  0  0  0  0999 V2000
    4.2219    5.4375    0.0000 C   0  0  0  0  0  0  0  0  0  0  0  0
  -10.0675    6.1875    0.0000 C   0  0  0  0  0  0  0  0  0  0  0  0
   -0.9743    9.9375    0.0000 C   0  0  0  0  0  0  0  0  0  0  0  0
    2.9228    6.1875    0.0000 C   0  0  0  0  0  0  0  0  0  0  0  0
   -8.7685    5.4375    0.0000 C   0  0  0  0  0  0  0  0  0  0  0  0
   -0.9743    8.4375    0.0000 C   0  0  0  0  0  0  0  0  0  0  0  0
    1.6238    5.4375    0.0000 C   0  0  0  0  0  0  0  0  0  0  0  0
   -7.4695    6.1875    0.0000 C   0  0  0  0  0  0  0  0  0  0  0  0
    0.3248    6.1875    0.0000 C   0  0  0  0  0  0  0  0  0  0  0  0
   -6.1704    5.4375    0.0000 C   0  0  0  0  0  0  0  0  0  0  0  0
   -0.9743    5.4375    0.0000 C   0  0  0  0  0  0  0  0  0  0  0  0
   -4.8714    6.1875    0.0000 C   0  0  0  0  0  0  0  0  0  0  0  0
   -2.2733    6.1875    0.0000 C   0  0  0  0  0  0  0  0  0  0  0  0
   -2.2733    7.6875    0.0000 O   0  0  0  0  0  0  0  0  0  0  0  0
   -3.5724    5.4375    0.0000 O   0  0  0  0  0  0  0  0  0  0  0  0
  4  1  1  0
  5  2  1  0
  6  3  1  0
  7  4  1  0
  8  5  1  0
  9  7  1  0
 10  8  1  0
 11  9  1  0
 12 10  1  0
 13 11  1  0
 14  6  1  0
 14 13  1  0
 15 12  1  0
 15 13  1  0
M  END
>  <NAME>  (2168) 
HEXANAL ETHYL PENTYL ACETAL

>  <SYNONYMS>  (2168) 


>  <SPECTRUM TYPE>  (2168) 
MS1

>  <INSTRUMENT TYPE>  (2168) 
EI-B

>  <INSTRUMENT>  (2168) 
HITACHI M-80B

>  <ION MODE>  (2168) 
P

>  <INCHIKEY>  (2168) 
QPXFDYQXBUGQMT-UHFFFAOYSA-N

>  <FORMULA>  (2168) 
C13H28O2

>  <EXACT MASS>  (2168) 
216.208930136

>  <MW>  (2168) 
216

>  <ID>  (2168) 
JP009081

>  <CONTRIBUTOR>  (2168) 
University of Tokyo Team, {Faculty of Engineering, University of Tokyo

>  <COMMENT>  (2168) 
SMILES=CCCCCOC(OCC)CCCCC
InChI=InChI=1S/C13H28O2/c1-4-7-9-11-13(14-6-3)15-12-10-8-5-2/h13H,4-12H2,1-3H3
computed SMILES=O(CC)C(OCCCCC)CCCCC
accession=JP009081
date=2016.01.19 (Created 2008.10.21, modified 2011.05.06)
author=SODA AROMATIC CO., LTD.
license=CC BY-NC-SA
exact mass=216.20893
ionization energy=70 eV
ion type=[M]+*
computed spectral entropy=2.839990595316308
computed normalized entropy=0.8053602504597672
SPLASH=splash10-004i-9200000000-be59682a450c337f2118
submitter=submitter = University of Tokyo Team (Faculty of Engineering, University of Tokyo)
MoNA Rating=3.75

>  <NUM PEAKS>  (2168) 
34

>  <MASS SPECTRAL PEAKS>  (2168) 
27 14.22
29 29.21
31 4.93
39 5.62
41 24.81
42 10.8
43 62.43
44 6.75
45 3.3
47 30.51
53 1.18
55 29.18
56 2.76
57 14.73
58 1.03
59 3.16
67 1.08
69 1.19
70 2.44
71 20.23
72 3.37
75 99.99
76 2.8
82 1.51
83 32.93
84 2.07
85 3.2
99 1.81
101 10.99
129 47.01
130 3.23
145 30.57
146 2.53
171 6.14

$$$$

     RDKit          2D

 15 14  0  0  0  0  0  0  0  0999 V2000
    3.2476    5.6250    0.0000 C   0  0  0  0  0  0  0  0  0  0  0  0
   -9.7428    5.6250    0.0000 C   0  0  0  0  0  0  0  0  0  0  0  0
   -4.5466   10.1250    0.0000 C   0  0  0  0  0  0  0  0  0  0  0  0
   -5.8457    7.8750    0.0000 C   0  0  0  0  0  0  0  0  0  0  0  0
    1.9486    6.3750    0.0000 C   0  0  0  0  0  0  0  0  0  0  0  0
   -8.4437    6.3750    0.0000 C   0  0  0  0  0  0  0  0  0  0  0  0
    0.6495    5.6250    0.0000 C   0  0  0  0  0  0  0  0  0  0  0  0
   -7.1447    5.6250    0.0000 C   0  0  0  0  0  0  0  0  0  0  0  0
   -0.6495    6.3750    0.0000 C   0  0  0  0  0  0  0  0  0  0  0  0
   -5.8457    6.3750    0.0000 C   0  0  0  0  0  0  0  0  0  0  0  0
   -3.2476    7.8750    0.0000 C   0  0  0  0  0  0  0  0  0  0  0  0
   -4.5466    8.6250    0.0000 C   0  0  0  0  0  0  0  0  0  0  0  0
   -3.2476    6.3750    0.0000 C   0  0  0  0  0  0  0  0  0  0  0  0
   -1.9486    5.6250    0.0000 O   0  0  0  0  0  0  0  0  0  0  0  0
   -4.5466    5.6250    0.0000 O   0  0  0  0  0  0  0  0  0  0  0  0
  5  1  1  0
  6  2  1  0
  7  5  1  0
  8  6  1  0
  9  7  1  0
 10  8  1  0
 12  3  1  0
 12  4  1  0
 12 11  1  0
 13 11  1  0
 14  9  1  0
 14 13  1  0
 15 10  1  0
 15 13  1  0
M  END
>  <NAME>  (2169) 
ISOVALERALDEHYDE DIBUTYL ACETAL

>  <SYNONYMS>  (2169) 


>  <SPECTRUM TYPE>  (2169) 
MS1

>  <INSTRUMENT TYPE>  (2169) 
EI-B

>  <INSTRUMENT>  (2169) 
HITACHI M-80B

>  <ION MODE>  (2169) 
P

>  <INCHIKEY>  (2169) 
RLNQTYONQFCUOR-UHFFFAOYSA-N

>  <FORMULA>  (2169) 
C13H28O2

>  <EXACT MASS>  (2169) 
216.208930136

>  <MW>  (2169) 
216

>  <ID>  (2169) 
JP009080

>  <CONTRIBUTOR>  (2169) 
University of Tokyo Team, {Faculty of Engineering, University of Tokyo

>  <COMMENT>  (2169) 
SMILES=CCCCOC(OCCCC)CC(C)C
InChI=InChI=1S/C13H28O2/c1-5-7-9-14-13(11-12(3)4)15-10-8-6-2/h12-13H,5-11H2,1-4H3
computed SMILES=O(CCCC)C(OCCCC)CC(C)C
accession=JP009080
date=2016.01.19 (Created 2008.10.21, modified 2011.05.06)
author=SODA AROMATIC CO., LTD.
license=CC BY-NC-SA
exact mass=216.20893
ionization energy=70 eV
ion type=[M]+*
computed spectral entropy=2.646981797254677
computed normalized entropy=0.7943635479670789
SPLASH=splash10-0a4l-9200000000-e3efce3f26fd0ce711ce
submitter=submitter = University of Tokyo Team (Faculty of Engineering, University of Tokyo)
MoNA Rating=3.75

>  <NUM PEAKS>  (2169) 
28

>  <MASS SPECTRAL PEAKS>  (2169) 
27 10.17
29 28.32
31 4.12
39 6.33
41 34.46
42 3.24
43 13.55
44 2.97
45 8.15
47 1.33
53 1.01
55 5.25
56 7.36
57 99.99
58 4.4
69 28.8
70 1.43
71 11.56
85 2.85
87 26.85
88 1.19
103 18.81
127 1.41
142 1.05
143 33.4
144 3.23
159 17.92
160 1.48

$$$$

     RDKit          2D

 13 12  0  0  0  0  0  0  0  0999 V2000
    3.8971    6.0000    0.0000 C   0  0  0  0  0  0  0  0  0  0  0  0
  -10.3923    6.7500    0.0000 C   0  0  0  0  0  0  0  0  0  0  0  0
   -3.8971    4.5000    0.0000 C   0  0  0  0  0  0  0  0  0  0  0  0
    2.5981    6.7500    0.0000 C   0  0  0  0  0  0  0  0  0  0  0  0
   -9.0933    6.0000    0.0000 C   0  0  0  0  0  0  0  0  0  0  0  0
    1.2990    6.0000    0.0000 C   0  0  0  0  0  0  0  0  0  0  0  0
   -7.7942    6.7500    0.0000 C   0  0  0  0  0  0  0  0  0  0  0  0
    0.0000    6.7500    0.0000 C   0  0  0  0  0  0  0  0  0  0  0  0
   -6.4952    6.0000    0.0000 C   0  0  0  0  0  0  0  0  0  0  0  0
   -1.2990    6.0000    0.0000 C   0  0  0  0  0  0  0  0  0  0  0  0
   -3.8971    6.0000    0.0000 C   0  0  0  0  0  0  0  0  0  0  0  0
   -5.1962    6.7500    0.0000 O   0  0  0  0  0  0  0  0  0  0  0  0
   -2.5981    6.7500    0.0000 O   0  0  0  0  0  0  0  0  0  0  0  0
  4  1  1  0
  5  2  1  0
  6  4  1  0
  7  5  1  0
  8  6  1  0
  9  7  1  0
 10  8  1  0
 11  3  1  0
 12  9  1  0
 12 11  1  0
 13 10  1  0
 13 11  1  0
M  END
>  <NAME>  (2170) 
ACETALDEHYDE BUTYL PENTYL ACETAL

>  <SYNONYMS>  (2170) 


>  <SPECTRUM TYPE>  (2170) 
MS1

>  <INSTRUMENT TYPE>  (2170) 
EI-B

>  <INSTRUMENT>  (2170) 
HITACHI M-80B

>  <ION MODE>  (2170) 
P

>  <INCHIKEY>  (2170) 
PRLOXHKVPIRLDE-UHFFFAOYSA-N

>  <FORMULA>  (2170) 
C11H24O2

>  <EXACT MASS>  (2170) 
188.177630008

>  <MW>  (2170) 
188

>  <ID>  (2170) 
JP009079

>  <CONTRIBUTOR>  (2170) 
University of Tokyo Team, {Faculty of Engineering, University of Tokyo

>  <COMMENT>  (2170) 
SMILES=CCCCCOC(C)OCCCC
InChI=InChI=1S/C11H24O2/c1-4-6-8-10-13-11(3)12-9-7-5-2/h11H,4-10H2,1-3H3
computed SMILES=O(CCCC)C(OCCCCC)C
accession=JP009079
date=2016.01.19 (Created 2008.10.21, modified 2011.05.06)
author=SODA AROMATIC CO., LTD.
license=CC BY-NC-SA
exact mass=188.17763
ionization energy=70 eV
ion type=[M]+*
computed spectral entropy=2.777346948696716
computed normalized entropy=0.7691526132375864
SPLASH=splash10-0ki7-9200000000-ecde1a6960cabac8a0a8
submitter=submitter = University of Tokyo Team (Faculty of Engineering, University of Tokyo)
MoNA Rating=3.75

>  <NUM PEAKS>  (2170) 
37

>  <MASS SPECTRAL PEAKS>  (2170) 
15 1.8
26 1.39
27 22.87
29 43.84
30 1.3
31 7.67
39 12.28
40 1.11
41 50.59
42 18.37
43 77.24
44 5.26
45 99.99
46 2.17
53 1.87
55 15.15
56 9.38
57 86.28
58 5.38
59 1.15
61 2.88
69 1.91
70 4.4
71 88.86
72 5.97
83 2.07
85 2.31
97 1.91
99 1.39
101 85.53
102 5.92
103 7.38
115 53.87
116 3.95
117 1.69
173 19.12
174 1.73

$$$$

     RDKit          2D

 12 11  0  0  0  0  0  0  0  0999 V2000
    3.2476    5.6250    0.0000 C   0  0  0  0  0  0  0  0  0  0  0  0
   -9.7428    5.6250    0.0000 C   0  0  0  0  0  0  0  0  0  0  0  0
   -5.8457    7.8750    0.0000 C   0  0  0  0  0  0  0  0  0  0  0  0
    1.9486    6.3750    0.0000 C   0  0  0  0  0  0  0  0  0  0  0  0
   -8.4437    6.3750    0.0000 C   0  0  0  0  0  0  0  0  0  0  0  0
    0.6495    5.6250    0.0000 C   0  0  0  0  0  0  0  0  0  0  0  0
   -0.6495    6.3750    0.0000 C   0  0  0  0  0  0  0  0  0  0  0  0
   -1.9486    5.6250    0.0000 C   0  0  0  0  0  0  0  0  0  0  0  0
   -3.2476    6.3750    0.0000 C   0  0  0  0  0  0  0  0  0  0  0  0
   -5.8457    6.3750    0.0000 C   0  0  0  0  0  0  0  0  0  0  0  0
   -7.1447    5.6250    0.0000 O   0  0  0  0  0  0  0  0  0  0  0  0
   -4.5466    5.6250    0.0000 O   0  0  0  0  0  0  0  0  0  0  0  0
  4  1  1  0
  5  2  1  0
  6  4  1  0
  7  6  1  0
  7  8  2  0
  9  8  1  0
 10  3  1  0
 11  5  1  0
 11 10  1  0
 12  9  1  0
 12 10  1  0
M  END
>  <NAME>  (2171) 
ACETALDEHYDE ETHYL TRANS-2-HEXENYL ACETAL

>  <SYNONYMS>  (2171) 


>  <SPECTRUM TYPE>  (2171) 
MS1

>  <INSTRUMENT TYPE>  (2171) 
EI-B

>  <INSTRUMENT>  (2171) 
HITACHI M-80B

>  <ION MODE>  (2171) 
P

>  <INCHIKEY>  (2171) 
UMAFJFXCURZISP-BQYQJAHWSA-N

>  <FORMULA>  (2171) 
C10H20O2

>  <EXACT MASS>  (2171) 
172.14632988

>  <MW>  (2171) 
172

>  <ID>  (2171) 
JP009078

>  <CONTRIBUTOR>  (2171) 
University of Tokyo Team, {Faculty of Engineering, University of Tokyo

>  <COMMENT>  (2171) 
SMILES=CCCC=CCOC(C)OCC
InChI=InChI=1S/C10H20O2/c1-4-6-7-8-9-12-10(3)11-5-2/h7-8,10H,4-6,9H2,1-3H3/b8-7+
computed SMILES=O(CC=CCCC)C(OCC)C
accession=JP009078
date=2016.01.19 (Created 2008.10.21, modified 2011.05.06)
author=SODA AROMATIC CO., LTD.
computed spectral entropy=2.6923778480555915
license=CC BY-NC-SA
exact mass=172.14633
ionization energy=70 eV
ion type=[M]+*
computed normalized entropy=0.7513223438455026
SPLASH=splash10-00ea-9000000000-bf8ab628f031ed2a02fb
submitter=submitter = University of Tokyo Team (Faculty of Engineering, University of Tokyo)
MoNA Rating=3.75

>  <NUM PEAKS>  (2171) 
36

>  <MASS SPECTRAL PEAKS>  (2171) 
15 2.2
26 1.32
27 17.58
29 18.81
31 2.94
39 13.68
41 27.28
42 3.67
43 13.26
44 4.62
45 93.56
46 1.79
47 3.15
51 1.08
53 5.48
54 13.83
55 36.53
56 4.35
57 9.02
61 2.85
67 7.47
69 1.04
71 1.45
72 2.41
73 99.99
74 4.94
75 3.4
81 1.09
82 3.89
83 53.85
84 4.27
85 10.72
89 1.56
99 1.31
126 2.53
128 1.68

$$$$

     RDKit          2D

  9  8  0  0  0  0  0  0  0  0999 V2000
    1.9486    2.6250    0.0000 C   0  0  0  0  0  0  0  0  0  0  0  0
    0.6495    4.8750    0.0000 C   0  0  0  0  0  0  0  0  0  0  0  0
   -4.5466    3.3750    0.0000 C   0  0  0  0  0  0  0  0  0  0  0  0
    0.6495    3.3750    0.0000 C   0  0  0  0  0  0  0  0  0  0  0  0
   -3.2476    2.6250    0.0000 C   0  0  0  0  0  0  0  0  0  0  0  0
   -1.9486    3.3750    0.0000 C   0  0  0  0  0  0  0  0  0  0  0  0
   -3.2476    1.1250    0.0000 O   0  0  0  0  0  0  0  0  0  0  0  0
   -1.9486    4.8750    0.0000 O   0  0  0  0  0  0  0  0  0  0  0  0
   -0.6495    2.6250    0.0000 O   0  0  0  0  0  0  0  0  0  0  0  0
  4  1  1  0
  4  2  1  0
  5  3  1  0
  6  5  1  0
  7  5  2  0
  8  6  2  0
  9  4  1  0
  9  6  1  0
M  END
>  <NAME>  (2172) 
ISOPROPYL PYRUVATE

>  <SYNONYMS>  (2172) 


>  <SPECTRUM TYPE>  (2172) 
MS1

>  <INSTRUMENT TYPE>  (2172) 
EI-B

>  <INSTRUMENT>  (2172) 
HITACHI M-80B

>  <ION MODE>  (2172) 
P

>  <INCHIKEY>  (2172) 
WUBJISGMPZWFKY-UHFFFAOYSA-N

>  <FORMULA>  (2172) 
C6H10O3

>  <EXACT MASS>  (2172) 
130.06299418

>  <MW>  (2172) 
130

>  <ID>  (2172) 
JP009077

>  <CONTRIBUTOR>  (2172) 
University of Tokyo Team, {Faculty of Engineering, University of Tokyo

>  <COMMENT>  (2172) 
SMILES=CC(C)OC(=O)C(C)=O
InChI=InChI=1S/C6H10O3/c1-4(2)9-6(8)5(3)7/h4H,1-3H3
computed SMILES=O=C(OC(C)C)C(=O)C
accession=JP009077
date=2016.01.19 (Created 2008.10.21, modified 2011.05.06)
author=SODA AROMATIC CO., LTD.
license=CC BY-NC-SA
exact mass=130.06299
ionization energy=70 eV
ion type=[M]+*
computed spectral entropy=1.4619811620307857
computed normalized entropy=0.5699844161748558
SPLASH=splash10-0006-9000000000-a24ff788bb55ab4f0cc4
submitter=submitter = University of Tokyo Team (Faculty of Engineering, University of Tokyo)
MoNA Rating=3.75

>  <NUM PEAKS>  (2172) 
13

>  <MASS SPECTRAL PEAKS>  (2172) 
14 1.23
15 6.62
27 12.03
29 2.29
39 5.72
41 21.17
42 4.45
43 99.99
44 3.26
45 1.57
59 1.27
71 1.64
87 2.09

$$$$

     RDKit          2D

  9  8  0  0  0  0  0  0  0  0999 V2000
    1.9486    3.3750    0.0000 C   0  0  0  0  0  0  0  0  0  0  0  0
   -5.8457    3.3750    0.0000 C   0  0  0  0  0  0  0  0  0  0  0  0
    0.6495    4.1250    0.0000 C   0  0  0  0  0  0  0  0  0  0  0  0
   -0.6495    3.3750    0.0000 C   0  0  0  0  0  0  0  0  0  0  0  0
   -4.5466    4.1250    0.0000 C   0  0  0  0  0  0  0  0  0  0  0  0
   -3.2476    3.3750    0.0000 C   0  0  0  0  0  0  0  0  0  0  0  0
   -4.5466    5.6250    0.0000 O   0  0  0  0  0  0  0  0  0  0  0  0
   -3.2476    1.8750    0.0000 O   0  0  0  0  0  0  0  0  0  0  0  0
   -1.9486    4.1250    0.0000 O   0  0  0  0  0  0  0  0  0  0  0  0
  3  1  1  0
  4  3  1  0
  5  2  1  0
  6  5  1  0
  7  5  2  0
  8  6  2  0
  9  4  1  0
  9  6  1  0
M  END
>  <NAME>  (2173) 
PROPYL PYRUVATE

>  <SYNONYMS>  (2173) 


>  <SPECTRUM TYPE>  (2173) 
MS1

>  <INSTRUMENT TYPE>  (2173) 
EI-B

>  <INSTRUMENT>  (2173) 
HITACHI M-80B

>  <ION MODE>  (2173) 
P

>  <INCHIKEY>  (2173) 
ILPVOWZUBFRIAX-UHFFFAOYSA-N

>  <FORMULA>  (2173) 
C6H10O3

>  <EXACT MASS>  (2173) 
130.06299417999998

>  <MW>  (2173) 
130

>  <ID>  (2173) 
JP009076

>  <CONTRIBUTOR>  (2173) 
University of Tokyo Team, {Faculty of Engineering, University of Tokyo

>  <COMMENT>  (2173) 
SMILES=CCCOC(=O)C(C)=O
InChI=InChI=1S/C6H10O3/c1-3-4-9-6(8)5(2)7/h3-4H2,1-2H3
computed SMILES=O=C(OCCC)C(=O)C
accession=JP009076
date=2016.01.19 (Created 2008.10.21, modified 2011.05.06)
author=SODA AROMATIC CO., LTD.
license=CC BY-NC-SA
exact mass=130.06299
ionization energy=70 eV
ion type=[M]+*
computed spectral entropy=1.4021196163250835
computed normalized entropy=0.5642544424937271
SPLASH=splash10-0006-9000000000-58cade300c4fca5fe46b
submitter=submitter = University of Tokyo Team (Faculty of Engineering, University of Tokyo)
MoNA Rating=3.75

>  <NUM PEAKS>  (2173) 
12

>  <MASS SPECTRAL PEAKS>  (2173) 
14 1.31
15 6.19
26 1.21
27 15.93
29 3.5
39 4.94
41 18.93
42 4.7
43 99.99
44 2.39
71 1.13
73 1.13

$$$$

     RDKit          2D

 14 14  0  0  0  0  0  0  0  0999 V2000
   -2.9356    5.4356    0.0000 C   0  0  0  0  0  0  0  0  0  0  0  0
    6.1662    0.1908    0.0000 C   0  0  0  0  0  0  0  0  0  0  0  0
   -1.6353    4.6878    0.0000 C   0  0  0  0  0  0  0  0  0  0  0  0
    4.8670    0.9406    0.0000 C   0  0  0  0  0  0  0  0  0  0  0  0
   -1.6200   -1.3100    0.0000 C   0  0  0  0  0  0  0  0  0  0  0  0
   -0.3300   -2.0600    0.0000 C   0  0  0  0  0  0  0  0  0  0  0  0
   -1.6200    0.1900    0.0000 C   0  0  0  0  0  0  0  0  0  0  0  0
    0.9700   -1.3100    0.0000 C   0  0  0  0  0  0  0  0  0  0  0  0
   -1.6328    3.1878    0.0000 C   0  0  0  0  0  0  0  0  0  0  0  0
    3.5681    0.1904    0.0000 C   0  0  0  0  0  0  0  0  0  0  0  0
   -0.3300    0.9400    0.0000 C   0  0  0  0  0  0  0  0  0  0  0  0
    0.9700    0.1900    0.0000 C   0  0  0  0  0  0  0  0  0  0  0  0
   -0.3325    2.4400    0.0000 O   0  0  0  0  0  0  0  0  0  0  0  0
    2.2689    0.9402    0.0000 O   0  0  0  0  0  0  0  0  0  0  0  0
  3  1  2  0
  4  2  2  0
  6  5  2  0
  7  5  1  0
  8  6  1  0
  9  3  1  0
 10  4  1  0
 11  7  2  0
 12  8  2  0
 12 11  1  0
 13  9  1  0
 13 11  1  0
 14 10  1  0
 14 12  1  0
M  END
>  <NAME>  (2174) 
1,2-DI(2-PROPENYLOXY)BENZENE

>  <SYNONYMS>  (2174) 


>  <SPECTRUM TYPE>  (2174) 
MS1

>  <INSTRUMENT TYPE>  (2174) 
EI-B

>  <INSTRUMENT>  (2174) 
HITACHI M-80B

>  <ION MODE>  (2174) 
P

>  <INCHIKEY>  (2174) 
GZWLFCGQNCRLIN-UHFFFAOYSA-N

>  <FORMULA>  (2174) 
C12H14O2

>  <EXACT MASS>  (2174) 
190.099379688

>  <MW>  (2174) 
190

>  <ID>  (2174) 
JP009075

>  <CONTRIBUTOR>  (2174) 
University of Tokyo Team, {Faculty of Engineering, University of Tokyo

>  <COMMENT>  (2174) 
SMILES=C=CCOc(c1)c(OCC=C)ccc1
InChI=InChI=1S/C12H14O2/c1-3-9-13-11-7-5-6-8-12(11)14-10-4-2/h3-8H,1-2,9-10H2
computed SMILES=O(C=1C=CC=CC1OCC=C)CC=C
accession=JP009075
date=2016.01.19 (Created 2008.10.21, modified 2011.05.06)
author=SODA AROMATIC CO., LTD.
license=CC BY-NC-SA
exact mass=190.09938
ionization energy=70 eV
ion type=[M]+*
computed spectral entropy=2.464364980604079
computed normalized entropy=0.7176395349945861
SPLASH=splash10-0006-9300000000-1da18c231c4efe7ff294
submitter=submitter = University of Tokyo Team (Faculty of Engineering, University of Tokyo)
MoNA Rating=3.75

>  <NUM PEAKS>  (2174) 
31

>  <MASS SPECTRAL PEAKS>  (2174) 
26 1.25
27 3.11
38 1.57
39 19.52
40 1.05
41 99.99
42 3.11
50 1.63
51 4.77
52 11.51
53 2.44
55 2.27
63 2.23
64 1.51
65 2.68
77 3.85
79 1.54
80 4.65
81 7.36
91 2.29
93 3.63
103 1.78
109 9.8
110 1.15
119 9.76
121 9.63
122 1.08
149 12.52
150 1.07
190 18.41
191 1.93

$$$$

     RDKit          2D

 13 13  0  0  0  0  0  0  0  0999 V2000
   -7.4692    4.2571    0.0000 C   0  0  0  0  0  0  0  0  0  0  0  0
   -6.1702    3.5071    0.0000 C   0  0  0  0  0  0  0  0  0  0  0  0
   -4.8712    4.2571    0.0000 C   0  0  0  0  0  0  0  0  0  0  0  0
    4.2221    2.0071    0.0000 C   0  0  0  0  0  0  0  0  0  0  0  0
    4.2226    3.5079    0.0000 C   0  0  0  0  0  0  0  0  0  0  0  0
    2.9226    1.2563    0.0000 C   0  0  0  0  0  0  0  0  0  0  0  0
    2.9236    4.2579    0.0000 C   0  0  0  0  0  0  0  0  0  0  0  0
    1.6236    2.0063    0.0000 C   0  0  0  0  0  0  0  0  0  0  0  0
    0.3250    4.2571    0.0000 C   0  0  0  0  0  0  0  0  0  0  0  0
   -3.5721    3.5071    0.0000 C   0  0  0  0  0  0  0  0  0  0  0  0
   -0.9740    3.5071    0.0000 C   0  0  0  0  0  0  0  0  0  0  0  0
    1.6240    3.5071    0.0000 C   0  0  0  0  0  0  0  0  0  0  0  0
   -2.2731    4.2571    0.0000 O   0  0  0  0  0  0  0  0  0  0  0  0
  2  1  1  0
  3  2  1  0
  5  4  2  0
  6  4  1  0
  7  5  1  0
  8  6  2  0
 10  3  1  0
 11  9  1  0
 12  7  2  0
 12  8  1  0
 12  9  1  0
 13 10  1  0
 13 11  1  0
M  END
>  <NAME>  (2175) 
2-PHENYLETHYL BUTYL ETHER

>  <SYNONYMS>  (2175) 


>  <SPECTRUM TYPE>  (2175) 
MS1

>  <INSTRUMENT TYPE>  (2175) 
EI-B

>  <INSTRUMENT>  (2175) 
HITACHI M-80B

>  <ION MODE>  (2175) 
P

>  <INCHIKEY>  (2175) 
KLJOZKBZXLRMLU-UHFFFAOYSA-N

>  <FORMULA>  (2175) 
C12H18O

>  <EXACT MASS>  (2175) 
178.135765196

>  <MW>  (2175) 
178

>  <ID>  (2175) 
JP009074

>  <CONTRIBUTOR>  (2175) 
University of Tokyo Team, {Faculty of Engineering, University of Tokyo

>  <COMMENT>  (2175) 
SMILES=CCCCOCCc(c1)cccc1
InChI=InChI=1S/C12H18O/c1-2-3-10-13-11-9-12-7-5-4-6-8-12/h4-8H,2-3,9-11H2,1H3
computed SMILES=O(CCC=1C=CC=CC1)CCCC
accession=JP009074
date=2016.01.19 (Created 2008.10.21, modified 2011.05.06)
author=SODA AROMATIC CO., LTD.
license=CC BY-NC-SA
exact mass=178.13577
ionization energy=70 eV
ion type=[M]+*
computed spectral entropy=2.5799412747311647
computed normalized entropy=0.7661760073933058
SPLASH=splash10-0a4i-9100000000-4135c810cd4e90fd2053
submitter=submitter = University of Tokyo Team (Faculty of Engineering, University of Tokyo)
MoNA Rating=3.75

>  <NUM PEAKS>  (2175) 
29

>  <MASS SPECTRAL PEAKS>  (2175) 
27 8.2
29 14.91
31 1.06
39 6.14
41 20.69
43 1.62
45 1.24
50 1.1
51 4.66
52 1.06
55 1.2
57 99.99
58 3.34
63 1.59
65 6.37
77 10.25
78 6.15
79 6.5
87 14.4
89 1.16
91 23.94
92 11.45
103 4.61
104 3.5
105 15.99
106 16.3
107 1.13
160 1.59
178 4.86

$$$$

     RDKit          2D

 10  9  0  0  0  0  0  0  0  0999 V2000
   -7.4695    3.9375    0.0000 C   0  0  0  0  0  0  0  0  0  0  0  0
    1.6238    3.1875    0.0000 C   0  0  0  0  0  0  0  0  0  0  0  0
   -6.1704    3.1875    0.0000 C   0  0  0  0  0  0  0  0  0  0  0  0
   -4.8714    3.9375    0.0000 C   0  0  0  0  0  0  0  0  0  0  0  0
   -3.5724    3.1875    0.0000 C   0  0  0  0  0  0  0  0  0  0  0  0
    0.3248    3.9375    0.0000 C   0  0  0  0  0  0  0  0  0  0  0  0
   -0.9743    3.1875    0.0000 C   0  0  0  0  0  0  0  0  0  0  0  0
    0.3248    5.4375    0.0000 O   0  0  0  0  0  0  0  0  0  0  0  0
   -0.9743    1.6875    0.0000 O   0  0  0  0  0  0  0  0  0  0  0  0
   -2.2733    3.9375    0.0000 O   0  0  0  0  0  0  0  0  0  0  0  0
  3  1  1  0
  4  3  1  0
  5  4  1  0
  6  2  1  0
  7  6  1  0
  8  6  2  0
  9  7  2  0
 10  5  1  0
 10  7  1  0
M  END
>  <NAME>  (2176) 
BUTYL PYRUVATE

>  <SYNONYMS>  (2176) 


>  <SPECTRUM TYPE>  (2176) 
MS1

>  <INSTRUMENT TYPE>  (2176) 
EI-B

>  <INSTRUMENT>  (2176) 
HITACHI M-80B

>  <ION MODE>  (2176) 
P

>  <INCHIKEY>  (2176) 
ZAZUOXBHFXAWMD-UHFFFAOYSA-N

>  <FORMULA>  (2176) 
C7H12O3

>  <EXACT MASS>  (2176) 
144.07864424399997

>  <MW>  (2176) 
144

>  <ID>  (2176) 
JP009073

>  <CONTRIBUTOR>  (2176) 
University of Tokyo Team, {Faculty of Engineering, University of Tokyo

>  <COMMENT>  (2176) 
SMILES=CCCCOC(=O)C(C)=O
InChI=InChI=1S/C7H12O3/c1-3-4-5-10-7(9)6(2)8/h3-5H2,1-2H3
computed SMILES=O=C(OCCCC)C(=O)C
accession=JP009073
date=2016.01.19 (Created 2008.10.21, modified 2011.05.06)
author=SODA AROMATIC CO., LTD.
license=CC BY-NC-SA
exact mass=144.07864
ionization energy=70 eV
ion type=[M]+*
computed spectral entropy=1.9895896722360462
computed normalized entropy=0.7175927883847105
SPLASH=splash10-0006-9000000000-10bc201f1ae9225f32de
submitter=submitter = University of Tokyo Team (Faculty of Engineering, University of Tokyo)
MoNA Rating=3.75

>  <NUM PEAKS>  (2176) 
16

>  <MASS SPECTRAL PEAKS>  (2176) 
14 1.19
15 8.32
26 1.62
27 13.14
29 43.44
30 1.04
39 8.35
41 40.3
42 5.75
43 99.99
44 2.99
55 4.19
56 8.36
57 36.8
58 1.64
72 1.63

$$$$

     RDKit          2D

  6  6  0  0  0  0  0  0  0  0999 V2000
   -1.6300   -0.8021    0.0000 C   0  0  0  0  0  0  0  0  0  0  0  0
    1.7671    1.0800    0.0000 C   0  0  0  0  0  0  0  0  0  0  0  0
    0.2671    1.0800    0.0000 C   0  0  0  0  0  0  0  0  0  0  0  0
    2.2271   -0.3400    0.0000 C   0  0  0  0  0  0  0  0  0  0  0  0
   -0.2029   -0.3400    0.0000 C   0  0  0  0  0  0  0  0  0  0  0  0
    1.0171   -1.2200    0.0000 O   0  0  0  0  0  0  0  0  0  0  0  0
  3  2  1  0
  4  2  2  0
  5  1  1  0
  5  3  2  0
  6  4  1  0
  6  5  1  0
M  END
>  <NAME>  (2177) 
2-METHYLFURAN

>  <SYNONYMS>  (2177) 


>  <SPECTRUM TYPE>  (2177) 
MS1

>  <INSTRUMENT TYPE>  (2177) 
EI-B

>  <INSTRUMENT>  (2177) 
HITACHI M-80B

>  <ION MODE>  (2177) 
P

>  <INCHIKEY>  (2177) 
VQKFNUFAXTZWDK-UHFFFAOYSA-N

>  <FORMULA>  (2177) 
C5H6O

>  <EXACT MASS>  (2177) 
82.041864812

>  <MW>  (2177) 
82

>  <ID>  (2177) 
JP009072

>  <CONTRIBUTOR>  (2177) 
University of Tokyo Team, {Faculty of Engineering, University of Tokyo

>  <COMMENT>  (2177) 
SMILES=Cc(c1)occ1
cas=534-22-5
InChI=InChI=1S/C5H6O/c1-5-3-2-4-6-5/h2-4H,1H3
computed SMILES=O1C=CC=C1C
accession=JP009072
date=2016.01.19 (Created 2008.10.21, modified 2011.05.06)
author=SODA AROMATIC CO., LTD.
license=CC BY-NC-SA
exact mass=82.04186
ionization energy=70 eV
ion type=[M]+*
computed spectral entropy=2.4870779574803827
computed normalized entropy=0.7825789273078763
SPLASH=splash10-0f89-9000000000-f49da105df0c68de31e5
submitter=submitter = University of Tokyo Team (Faculty of Engineering, University of Tokyo)
MoNA Rating=3.75

>  <NUM PEAKS>  (2177) 
24

>  <MASS SPECTRAL PEAKS>  (2177) 
14 1.51
15 3.34
26 8.18
27 29.96
28 3.35
29 9.29
37 5.59
38 8.23
39 46.83
40 1.35
41 2.82
42 2.94
43 10.53
49 3.85
50 16.79
51 16.87
52 9.08
53 72.14
54 15.54
55 3.35
80 1.08
81 56.1
82 99.99
83 6.05

$$$$

     RDKit          2D

 12 12  0  0  0  0  0  0  0  0999 V2000
   -5.8454    3.6946    0.0000 C   0  0  0  0  0  0  0  0  0  0  0  0
   -4.5464    1.4446    0.0000 C   0  0  0  0  0  0  0  0  0  0  0  0
    3.2478    1.4446    0.0000 C   0  0  0  0  0  0  0  0  0  0  0  0
    3.2483    2.9454    0.0000 C   0  0  0  0  0  0  0  0  0  0  0  0
    1.9483    0.6938    0.0000 C   0  0  0  0  0  0  0  0  0  0  0  0
    1.9493    3.6954    0.0000 C   0  0  0  0  0  0  0  0  0  0  0  0
    0.6493    1.4438    0.0000 C   0  0  0  0  0  0  0  0  0  0  0  0
   -0.6493    3.6946    0.0000 C   0  0  0  0  0  0  0  0  0  0  0  0
   -1.9483    2.9446    0.0000 C   0  0  0  0  0  0  0  0  0  0  0  0
   -4.5464    2.9446    0.0000 C   0  0  0  0  0  0  0  0  0  0  0  0
    0.6498    2.9446    0.0000 C   0  0  0  0  0  0  0  0  0  0  0  0
   -3.2474    3.6946    0.0000 O   0  0  0  0  0  0  0  0  0  0  0  0
  4  3  2  0
  5  3  1  0
  6  4  1  0
  7  5  2  0
  9  8  1  0
 10  1  1  0
 10  2  1  0
 11  6  2  0
 11  7  1  0
 11  8  1  0
 12  9  1  0
 12 10  1  0
M  END
>  <NAME>  (2178) 
2-PHENYLETHYL ISOPROPYL ETHER

>  <SYNONYMS>  (2178) 


>  <SPECTRUM TYPE>  (2178) 
MS1

>  <INSTRUMENT TYPE>  (2178) 
EI-B

>  <INSTRUMENT>  (2178) 
HITACHI M-80B

>  <ION MODE>  (2178) 
P

>  <INCHIKEY>  (2178) 
FMPXLXBVYDFXIC-UHFFFAOYSA-N

>  <FORMULA>  (2178) 
C11H16O

>  <EXACT MASS>  (2178) 
164.120115132

>  <MW>  (2178) 
164

>  <ID>  (2178) 
JP009071

>  <CONTRIBUTOR>  (2178) 
University of Tokyo Team, {Faculty of Engineering, University of Tokyo

>  <COMMENT>  (2178) 
SMILES=CC(C)OCCc(c1)cccc1
InChI=InChI=1S/C11H16O/c1-10(2)12-9-8-11-6-4-3-5-7-11/h3-7,10H,8-9H2,1-2H3
computed SMILES=O(CCC=1C=CC=CC1)C(C)C
computed spectral entropy=2.814709934726128
computed normalized entropy=0.7530654718537868
author=SODA AROMATIC CO., LTD.
license=CC BY-NC-SA
exact mass=164.12012
accession=JP009071
date=2016.01.19 (Created 2008.10.21, modified 2011.05.06)
ionization energy=70 eV
ion type=[M]+*
SPLASH=splash10-0006-9200000000-c9dcf36692b2746b47c9
submitter=submitter = University of Tokyo Team (Faculty of Engineering, University of Tokyo)
MoNA Rating=3.75

>  <NUM PEAKS>  (2178) 
42

>  <MASS SPECTRAL PEAKS>  (2178) 
15 1.58
27 14.08
29 1.87
31 1.83
38 1.08
39 12.86
41 15.65
42 2.18
43 99.99
44 2.35
45 1.8
50 2.56
51 11
52 2.32
53 1.37
55 3.28
58 1.03
59 5.82
62 1.08
63 3.33
64 1.25
65 13.22
73 46.2
74 1.97
75 1.82
76 1.04
77 18.82
78 10.46
79 9.98
89 2.28
90 1.45
91 79.87
92 57.31
93 3.42
102 1.08
103 9.41
104 5.27
105 34.98
106 48.92
107 3.36
146 1.26
164 1.34

$$$$

     RDKit          2D

 12 12  0  0  0  0  0  0  0  0999 V2000
   -6.8197    3.1321    0.0000 C   0  0  0  0  0  0  0  0  0  0  0  0
   -5.5207    3.8821    0.0000 C   0  0  0  0  0  0  0  0  0  0  0  0
    3.5726    1.6321    0.0000 C   0  0  0  0  0  0  0  0  0  0  0  0
    3.5731    3.1329    0.0000 C   0  0  0  0  0  0  0  0  0  0  0  0
    2.2731    0.8813    0.0000 C   0  0  0  0  0  0  0  0  0  0  0  0
    2.2740    3.8829    0.0000 C   0  0  0  0  0  0  0  0  0  0  0  0
    0.9740    1.6313    0.0000 C   0  0  0  0  0  0  0  0  0  0  0  0
   -0.3245    3.8821    0.0000 C   0  0  0  0  0  0  0  0  0  0  0  0
   -4.2216    3.1321    0.0000 C   0  0  0  0  0  0  0  0  0  0  0  0
   -1.6236    3.1321    0.0000 C   0  0  0  0  0  0  0  0  0  0  0  0
    0.9745    3.1321    0.0000 C   0  0  0  0  0  0  0  0  0  0  0  0
   -2.9226    3.8821    0.0000 O   0  0  0  0  0  0  0  0  0  0  0  0
  2  1  2  0
  4  3  2  0
  5  3  1  0
  6  4  1  0
  7  5  2  0
  9  2  1  0
 10  8  1  0
 11  6  2  0
 11  7  1  0
 11  8  1  0
 12  9  1  0
 12 10  1  0
M  END
>  <NAME>  (2179) 
2-PHENYLETHYL ALLYL ETHER

>  <SYNONYMS>  (2179) 


>  <SPECTRUM TYPE>  (2179) 
MS1

>  <INSTRUMENT TYPE>  (2179) 
EI-B

>  <INSTRUMENT>  (2179) 
HITACHI M-80B

>  <ION MODE>  (2179) 
P

>  <INCHIKEY>  (2179) 
QNBZQCMSRGAZCR-UHFFFAOYSA-N

>  <FORMULA>  (2179) 
C11H14O

>  <EXACT MASS>  (2179) 
162.104465068

>  <MW>  (2179) 
162

>  <ID>  (2179) 
JP009070

>  <CONTRIBUTOR>  (2179) 
University of Tokyo Team, {Faculty of Engineering, University of Tokyo

>  <COMMENT>  (2179) 
SMILES=C=CCOCCc(c1)cccc1
InChI=InChI=1S/C11H14O/c1-2-9-12-10-8-11-6-4-3-5-7-11/h2-7H,1,8-10H2
computed SMILES=O(CC=C)CCC=1C=CC=CC1
accession=JP009070
date=2016.01.19 (Created 2008.10.21, modified 2011.05.06)
author=SODA AROMATIC CO., LTD.
license=CC BY-NC-SA
exact mass=162.10447
ionization energy=70 eV
ion type=[M]+*
computed spectral entropy=2.3828836719089628
computed normalized entropy=0.7497933638361548
SPLASH=splash10-0006-9200000000-fecf48a294c05d37ffd9
submitter=submitter = University of Tokyo Team (Faculty of Engineering, University of Tokyo)
MoNA Rating=3.75

>  <NUM PEAKS>  (2179) 
24

>  <MASS SPECTRAL PEAKS>  (2179) 
27 7.06
29 2.28
38 1.23
39 17.28
40 1.11
41 55.97
42 2.05
43 7.65
50 1.83
51 8.16
57 1.24
63 2.67
65 12.74
71 15.19
77 10.88
78 6.87
79 6.62
89 1.78
91 99.99
92 8.42
103 5.22
104 5.86
105 65.35
106 9.26

$$$$

     RDKit          2D

 11 11  0  0  0  0  0  0  0  0999 V2000
    2.5987    3.0002    0.0000 C   0  0  0  0  0  0  0  0  0  0  0  0
    3.8981    0.7504    0.0000 C   0  0  0  0  0  0  0  0  0  0  0  0
   -1.3000    0.7500    0.0000 C   0  0  0  0  0  0  0  0  0  0  0  0
   -0.0000   -1.5000    0.0000 C   0  0  0  0  0  0  0  0  0  0  0  0
    0.0000    1.5000    0.0000 C   0  0  0  0  0  0  0  0  0  0  0  0
    1.3000   -0.7500    0.0000 C   0  0  0  0  0  0  0  0  0  0  0  0
   -2.5989   -1.5002    0.0000 C   0  0  0  0  0  0  0  0  0  0  0  0
    2.5989    1.5002    0.0000 C   0  0  0  0  0  0  0  0  0  0  0  0
   -1.3000   -0.7500    0.0000 C   0  0  0  0  0  0  0  0  0  0  0  0
    1.3000    0.7500    0.0000 C   0  0  0  0  0  0  0  0  0  0  0  0
   -3.8981   -0.7504    0.0000 O   0  0  0  0  0  0  0  0  0  0  0  0
  5  3  1  0
  6  4  1  0
  8  1  2  0
  8  2  1  0
  9  3  2  0
  9  4  1  0
  9  7  1  0
 10  5  1  0
 10  6  1  0
 10  8  1  0
 11  7  1  0
M  END
>  <NAME>  (2180) 
PERILLYL ALCOHOL

>  <SYNONYMS>  (2180) 
(4-ISOPROPENYL-1-CYCLOHXENE)METHANOL

>  <SPECTRUM TYPE>  (2180) 
MS1

>  <INSTRUMENT TYPE>  (2180) 
EI-B

>  <INSTRUMENT>  (2180) 
HITACHI M-80B

>  <ION MODE>  (2180) 
P

>  <INCHIKEY>  (2180) 
NDTYTMIUWGWIMO-UHFFFAOYSA-N

>  <FORMULA>  (2180) 
C10H16O

>  <EXACT MASS>  (2180) 
152.120115132

>  <MW>  (2180) 
152

>  <ID>  (2180) 
JP009069

>  <CONTRIBUTOR>  (2180) 
University of Tokyo Team, {Faculty of Engineering, University of Tokyo

>  <COMMENT>  (2180) 
SMILES=OCC(C1)=C([H])CC(C(C)=C)C1
cas=536-59-4
InChI=InChI=1S/C10H16O/c1-8(2)10-5-3-9(7-11)4-6-10/h3,10-11H,1,4-7H2,2H3
computed SMILES=OCC1=CCC(C(=C)C)CC1
accession=JP009069
date=2016.01.19 (Created 2008.10.21, modified 2011.05.06)
author=SODA AROMATIC CO., LTD.
license=CC BY-NC-SA
exact mass=152.12012
ionization energy=70 eV
ion type=[M]+*
computed spectral entropy=3.6668697429210306
computed normalized entropy=0.857413143994668
SPLASH=splash10-00mo-9200000000-6d3cda5b991dc6f0a098
submitter=submitter = University of Tokyo Team (Faculty of Engineering, University of Tokyo)
MoNA Rating=3.75

>  <NUM PEAKS>  (2180) 
72

>  <MASS SPECTRAL PEAKS>  (2180) 
15 1.82
26 1.78
27 30.87
28 9.44
29 19.75
30 1.02
31 18.95
38 2.6
39 53.98
40 14.66
41 65.63
42 8.73
43 13.41
44 1.9
50 4.27
51 14.83
52 6.63
53 42.62
54 6.48
55 48.87
56 15.04
57 6.55
62 1.38
63 4.39
64 1.35
65 15.1
66 9.58
67 63.5
68 99.99
69 19.87
70 8.03
71 3.07
77 34.29
78 9.32
79 91.48
80 16.39
81 26.46
82 5.15
83 20.36
84 5.33
85 1.49
89 1.06
91 46.14
92 17.55
93 65.99
94 13.14
95 10.84
96 3.65
97 1.67
103 2.27
104 1.52
105 18.82
106 20.61
107 7.2
108 18.99
109 21.58
110 4.98
111 1.46
115 1.61
117 2.23
119 28.32
120 2.88
121 54.2
122 5.36
123 3.71
124 2.87
133 1.34
134 9.03
135 1.56
137 1.76
152 15.39
153 1.59

$$$$

     RDKit          2D

 16 15  0  0  0  0  0  0  0  0999 V2000
    4.5466    7.8750    0.0000 C   0  0  0  0  0  0  0  0  0  0  0  0
  -13.6399    7.8750    0.0000 C   0  0  0  0  0  0  0  0  0  0  0  0
    3.2476    8.6250    0.0000 C   0  0  0  0  0  0  0  0  0  0  0  0
  -12.3409    8.6250    0.0000 C   0  0  0  0  0  0  0  0  0  0  0  0
    1.9486    7.8750    0.0000 C   0  0  0  0  0  0  0  0  0  0  0  0
    0.6495    8.6250    0.0000 C   0  0  0  0  0  0  0  0  0  0  0  0
   -0.6495    7.8750    0.0000 C   0  0  0  0  0  0  0  0  0  0  0  0
   -1.9486    8.6250    0.0000 C   0  0  0  0  0  0  0  0  0  0  0  0
   -3.2476    7.8750    0.0000 C   0  0  0  0  0  0  0  0  0  0  0  0
   -4.5466    8.6250    0.0000 C   0  0  0  0  0  0  0  0  0  0  0  0
   -5.8457    7.8750    0.0000 C   0  0  0  0  0  0  0  0  0  0  0  0
   -7.1447    8.6250    0.0000 C   0  0  0  0  0  0  0  0  0  0  0  0
  -11.0418    7.8750    0.0000 C   0  0  0  0  0  0  0  0  0  0  0  0
   -8.4437    7.8750    0.0000 C   0  0  0  0  0  0  0  0  0  0  0  0
   -8.4437    6.3750    0.0000 O   0  0  0  0  0  0  0  0  0  0  0  0
   -9.7428    8.6250    0.0000 O   0  0  0  0  0  0  0  0  0  0  0  0
  3  1  1  0
  4  2  2  0
  5  3  1  0
  6  5  1  0
  7  6  1  0
  8  7  1  0
  9  8  1  0
 10  9  1  0
 11 10  1  0
 12 11  1  0
 13  4  1  0
 14 12  1  0
 15 14  2  0
 16 13  1  0
 16 14  1  0
M  END
>  <NAME>  (2181) 
ALLYL UNDECANOATE

>  <SYNONYMS>  (2181) 


>  <SPECTRUM TYPE>  (2181) 
MS1

>  <INSTRUMENT TYPE>  (2181) 
EI-B

>  <INSTRUMENT>  (2181) 
HITACHI M-80B

>  <ION MODE>  (2181) 
P

>  <INCHIKEY>  (2181) 
PSGSIXPTLRADTD-UHFFFAOYSA-N

>  <FORMULA>  (2181) 
C14H26O2

>  <EXACT MASS>  (2181) 
226.193280072

>  <MW>  (2181) 
226

>  <ID>  (2181) 
JP009068

>  <CONTRIBUTOR>  (2181) 
University of Tokyo Team, {Faculty of Engineering, University of Tokyo

>  <COMMENT>  (2181) 
SMILES=CCCCCCCCCCC(=O)OCC=C
InChI=InChI=1S/C14H26O2/c1-3-5-6-7-8-9-10-11-12-14(15)16-13-4-2/h4H,2-3,5-13H2,1H3
computed SMILES=O=C(OCC=C)CCCCCCCCCC
accession=JP009068
date=2016.01.19 (Created 2008.10.21, modified 2011.05.06)
author=SODA AROMATIC CO., LTD.
license=CC BY-NC-SA
exact mass=226.19328
ionization energy=70 eV
ion type=[M]+*
computed spectral entropy=3.2934266799217466
computed normalized entropy=0.8043843476950372
SPLASH=splash10-052f-9200000000-a2a5c3db02fe4caa426e
submitter=submitter = University of Tokyo Team (Faculty of Engineering, University of Tokyo)
MoNA Rating=3.75

>  <NUM PEAKS>  (2181) 
60

>  <MASS SPECTRAL PEAKS>  (2181) 
15 1.27
26 1.52
27 14.95
29 22.26
30 1.01
31 1.04
39 20.63
41 99.99
42 13.12
43 64.36
44 1.28
45 1.59
53 2.77
54 11.14
55 46.37
56 18.02
57 50.07
58 9.22
59 1.79
60 1.37
67 6.28
68 2.62
69 24.77
70 3.6
71 21.98
72 1.72
73 3.1
79 1.34
81 7.45
82 4.87
83 21.1
84 4.9
85 17.16
87 1.41
93 1.37
95 8.69
96 1.49
97 8.3
98 4.15
99 4.24
100 46.51
101 6.33
107 1.27
109 3.9
111 3.65
112 1.15
113 23.65
114 1.91
115 1.19
123 1.01
125 3.1
127 1.97
141 1.11
149 3.46
155 1.6
167 2.07
169 32.45
170 3.49
183 2.62
197 1.19

$$$$

     RDKit          2D

 14 14  0  0  0  0  0  0  0  0999 V2000
   -6.8197    3.1321    0.0000 C   0  0  0  0  0  0  0  0  0  0  0  0
   -5.5207    5.3821    0.0000 C   0  0  0  0  0  0  0  0  0  0  0  0
    3.5726    1.6321    0.0000 C   0  0  0  0  0  0  0  0  0  0  0  0
    3.5731    3.1329    0.0000 C   0  0  0  0  0  0  0  0  0  0  0  0
    2.2731    0.8813    0.0000 C   0  0  0  0  0  0  0  0  0  0  0  0
    2.2740    3.8829    0.0000 C   0  0  0  0  0  0  0  0  0  0  0  0
    0.9740    1.6313    0.0000 C   0  0  0  0  0  0  0  0  0  0  0  0
   -4.2216    3.1321    0.0000 C   0  0  0  0  0  0  0  0  0  0  0  0
   -2.9226    3.8821    0.0000 C   0  0  0  0  0  0  0  0  0  0  0  0
   -5.5207    3.8821    0.0000 C   0  0  0  0  0  0  0  0  0  0  0  0
    0.9745    3.1321    0.0000 C   0  0  0  0  0  0  0  0  0  0  0  0
   -0.3245    3.8821    0.0000 C   0  0  0  0  0  0  0  0  0  0  0  0
   -0.3245    5.3821    0.0000 O   0  0  0  0  0  0  0  0  0  0  0  0
   -1.6236    3.1321    0.0000 O   0  0  0  0  0  0  0  0  0  0  0  0
  4  3  2  0
  5  3  1  0
  6  4  1  0
  7  5  2  0
  9  8  1  0
 10  1  1  0
 10  2  1  0
 10  8  2  0
 11  6  2  0
 11  7  1  0
 12 11  1  0
 13 12  2  0
 14  9  1  0
 14 12  1  0
M  END
>  <NAME>  (2182) 
3-METHYL-2-BUTENYL BENZOATE

>  <SYNONYMS>  (2182) 


>  <SPECTRUM TYPE>  (2182) 
MS1

>  <INSTRUMENT TYPE>  (2182) 
EI-B

>  <INSTRUMENT>  (2182) 
HITACHI M-80B

>  <ION MODE>  (2182) 
P

>  <INCHIKEY>  (2182) 
INVWRXWYYVMFQC-UHFFFAOYSA-N

>  <FORMULA>  (2182) 
C12H14O2

>  <EXACT MASS>  (2182) 
190.099379688

>  <MW>  (2182) 
190

>  <ID>  (2182) 
JP009067

>  <CONTRIBUTOR>  (2182) 
University of Tokyo Team, {Faculty of Engineering, University of Tokyo

>  <COMMENT>  (2182) 
SMILES=CC(C)=CCOC(=O)c(c1)cccc1
InChI=InChI=1S/C12H14O2/c1-10(2)8-9-14-12(13)11-6-4-3-5-7-11/h3-8H,9H2,1-2H3
computed SMILES=O=C(OCC=C(C)C)C=1C=CC=CC1
accession=JP009067
date=2016.01.19 (Created 2008.10.21, modified 2011.05.06)
author=SODA AROMATIC CO., LTD.
license=CC BY-NC-SA
exact mass=190.09938
ionization energy=70 eV
ion type=[M]+*
computed spectral entropy=2.712390597146816
computed normalized entropy=0.7629043767969474
SPLASH=splash10-066r-9200000000-ff260d9f3b3a70eb5fad
submitter=submitter = University of Tokyo Team (Faculty of Engineering, University of Tokyo)
MoNA Rating=3.75

>  <NUM PEAKS>  (2182) 
35

>  <MASS SPECTRAL PEAKS>  (2182) 
26 1.92
27 14.68
29 5.68
37 1.72
38 3.86
39 25.41
41 45.15
42 5.85
43 1.9
50 8.01
51 22.43
52 3.32
53 25.86
54 2.01
55 1.92
62 1.06
63 1.25
65 2.66
66 2.19
67 37.01
68 71.83
69 37.82
70 2.18
74 1.52
76 2.03
77 41.03
78 3.58
79 1.83
85 5.55
105 99.99
106 6.63
122 1.79
123 2.53
131 1.34
190 2.32

$$$$

     RDKit          2D

 12 11  0  0  0  0  0  0  0  0999 V2000
    2.2733    4.3125    0.0000 C   0  0  0  0  0  0  0  0  0  0  0  0
    0.9743    2.0625    0.0000 C   0  0  0  0  0  0  0  0  0  0  0  0
   -6.8200    5.0625    0.0000 C   0  0  0  0  0  0  0  0  0  0  0  0
   -5.5209    2.8125    0.0000 C   0  0  0  0  0  0  0  0  0  0  0  0
    0.9743    5.0625    0.0000 C   0  0  0  0  0  0  0  0  0  0  0  0
   -0.3248    2.8125    0.0000 C   0  0  0  0  0  0  0  0  0  0  0  0
   -4.2219    5.0625    0.0000 C   0  0  0  0  0  0  0  0  0  0  0  0
   -5.5209    4.3125    0.0000 C   0  0  0  0  0  0  0  0  0  0  0  0
   -0.3248    4.3125    0.0000 C   0  0  0  0  0  0  0  0  0  0  0  0
   -1.6238    5.0625    0.0000 C   0  0  0  0  0  0  0  0  0  0  0  0
   -1.6238    6.5625    0.0000 O   0  0  0  0  0  0  0  0  0  0  0  0
   -2.9228    4.3125    0.0000 O   0  0  0  0  0  0  0  0  0  0  0  0
  5  1  1  0
  6  2  1  0
  8  3  1  0
  8  4  1  0
  8  7  1  0
  9  5  1  0
  9  6  1  0
 10  9  1  0
 11 10  2  0
 12  7  1  0
 12 10  1  0
M  END
>  <NAME>  (2183) 
ISOBUTYL 2-ETHYLBUTYRATE

>  <SYNONYMS>  (2183) 


>  <SPECTRUM TYPE>  (2183) 
MS1

>  <INSTRUMENT TYPE>  (2183) 
EI-B

>  <INSTRUMENT>  (2183) 
HITACHI M-80B

>  <ION MODE>  (2183) 
P

>  <INCHIKEY>  (2183) 
SAWRJLRKAZYKPM-UHFFFAOYSA-N

>  <FORMULA>  (2183) 
C10H20O2

>  <EXACT MASS>  (2183) 
172.14632988

>  <MW>  (2183) 
172

>  <ID>  (2183) 
JP009066

>  <CONTRIBUTOR>  (2183) 
University of Tokyo Team, {Faculty of Engineering, University of Tokyo

>  <COMMENT>  (2183) 
SMILES=CCC(CC)C(=O)OCC(C)C
InChI=InChI=1S/C10H20O2/c1-5-9(6-2)10(11)12-7-8(3)4/h8-9H,5-7H2,1-4H3
computed SMILES=O=C(OCC(C)C)C(CC)CC
accession=JP009066
date=2016.01.19 (Created 2008.10.21, modified 2011.05.06)
author=SODA AROMATIC CO., LTD.
license=CC BY-NC-SA
exact mass=172.14633
ionization energy=70 eV
ion type=[M]+*
computed spectral entropy=2.8124359776041077
computed normalized entropy=0.8043557544673337
SPLASH=splash10-0597-9100000000-e7c7a670d084df982638
submitter=submitter = University of Tokyo Team (Faculty of Engineering, University of Tokyo)
MoNA Rating=3.75

>  <NUM PEAKS>  (2183) 
33

>  <MASS SPECTRAL PEAKS>  (2183) 
15 1.12
26 1.12
27 28.03
29 47.78
31 1.87
39 22.02
40 1.3
41 65.9
42 10.78
43 91.12
44 3.04
45 2.54
53 3.38
55 25.83
56 68.37
57 65.25
58 3.03
69 4.1
70 7.75
71 99.99
72 6.31
73 9.9
87 17.48
88 33.72
89 3.8
99 94.48
100 6.42
101 3.44
116 2.54
117 64.46
118 4.31
129 1.32
144 8.46

$$$$

     RDKit          2D

 16 16  0  0  0  0  0  0  0  0999 V2000
    5.5216    4.2579    0.0000 C   0  0  0  0  0  0  0  0  0  0  0  0
    4.2226    5.0079    0.0000 C   0  0  0  0  0  0  0  0  0  0  0  0
    2.9236    4.2579    0.0000 C   0  0  0  0  0  0  0  0  0  0  0  0
    1.6245    5.0079    0.0000 C   0  0  0  0  0  0  0  0  0  0  0  0
   -8.7678    6.5079    0.0000 C   0  0  0  0  0  0  0  0  0  0  0  0
   -8.7683    5.0071    0.0000 C   0  0  0  0  0  0  0  0  0  0  0  0
   -7.4683    7.2587    0.0000 C   0  0  0  0  0  0  0  0  0  0  0  0
    0.3255    4.2579    0.0000 C   0  0  0  0  0  0  0  0  0  0  0  0
   -7.4692    4.2571    0.0000 C   0  0  0  0  0  0  0  0  0  0  0  0
   -6.1692    6.5087    0.0000 C   0  0  0  0  0  0  0  0  0  0  0  0
   -0.9736    5.0079    0.0000 C   0  0  0  0  0  0  0  0  0  0  0  0
   -4.8707    4.2579    0.0000 C   0  0  0  0  0  0  0  0  0  0  0  0
   -6.1697    5.0079    0.0000 C   0  0  0  0  0  0  0  0  0  0  0  0
   -2.2726    4.2579    0.0000 C   0  0  0  0  0  0  0  0  0  0  0  0
   -2.2726    2.7579    0.0000 O   0  0  0  0  0  0  0  0  0  0  0  0
   -3.5716    5.0079    0.0000 O   0  0  0  0  0  0  0  0  0  0  0  0
  2  1  1  0
  3  2  1  0
  4  3  1  0
  6  5  2  0
  7  5  1  0
  8  4  1  0
  9  6  1  0
 10  7  2  0
 11  8  1  0
 13  9  2  0
 13 10  1  0
 13 12  1  0
 14 11  1  0
 15 14  2  0
 16 12  1  0
 16 14  1  0
M  END
>  <NAME>  (2184) 
BENZYL HEPTANOATE

>  <SYNONYMS>  (2184) 


>  <SPECTRUM TYPE>  (2184) 
MS1

>  <INSTRUMENT TYPE>  (2184) 
EI-B

>  <INSTRUMENT>  (2184) 
HITACHI M-80B

>  <ION MODE>  (2184) 
P

>  <INCHIKEY>  (2184) 
UEDDAJQIHUEZCJ-UHFFFAOYSA-N

>  <FORMULA>  (2184) 
C14H20O2

>  <EXACT MASS>  (2184) 
220.14632988

>  <MW>  (2184) 
220

>  <ID>  (2184) 
JP009065

>  <CONTRIBUTOR>  (2184) 
University of Tokyo Team, {Faculty of Engineering, University of Tokyo

>  <COMMENT>  (2184) 
SMILES=CCCCCCC(=O)OCc(c1)cccc1
InChI=InChI=1S/C14H20O2/c1-2-3-4-8-11-14(15)16-12-13-9-6-5-7-10-13/h5-7,9-10H,2-4,8,11-12H2,1H3
computed SMILES=O=C(OCC=1C=CC=CC1)CCCCCC
accession=JP009065
date=2016.01.19 (Created 2008.10.21, modified 2011.05.06)
author=SODA AROMATIC CO., LTD.
license=CC BY-NC-SA
exact mass=220.14633
ionization energy=70 eV
ion type=[M]+*
computed spectral entropy=2.8672801041132754
computed normalized entropy=0.8001297477022928
SPLASH=splash10-0006-9200000000-51f5bd61cbb4775a4ecb
submitter=submitter = University of Tokyo Team (Faculty of Engineering, University of Tokyo)
MoNA Rating=3.75

>  <NUM PEAKS>  (2184) 
36

>  <MASS SPECTRAL PEAKS>  (2184) 
27 9.89
28 4.54
29 11.07
39 10.09
41 17.79
42 3.53
43 29.1
50 1.2
51 4.94
52 1.52
53 1.28
55 7.2
56 1.37
57 3.8
63 2.24
65 13.36
69 6.07
77 7.59
78 1.76
79 7.06
83 8.51
85 5.72
87 1
89 3.86
90 9.54
91 99.99
92 20.03
93 1.18
105 2.08
107 4.87
108 45.54
109 3.4
111 5.9
113 9.11
129 5.9
220 2.68

$$$$

     RDKit          2D

 13 12  0  0  0  0  0  0  0  0999 V2000
  -10.3923    6.7500    0.0000 C   0  0  0  0  0  0  0  0  0  0  0  0
    3.8971    6.0000    0.0000 C   0  0  0  0  0  0  0  0  0  0  0  0
   -9.0933    6.0000    0.0000 C   0  0  0  0  0  0  0  0  0  0  0  0
    2.5981    6.7500    0.0000 C   0  0  0  0  0  0  0  0  0  0  0  0
   -7.7942    6.7500    0.0000 C   0  0  0  0  0  0  0  0  0  0  0  0
    1.2990    6.0000    0.0000 C   0  0  0  0  0  0  0  0  0  0  0  0
   -6.4952    6.0000    0.0000 C   0  0  0  0  0  0  0  0  0  0  0  0
   -3.8971    6.0000    0.0000 C   0  0  0  0  0  0  0  0  0  0  0  0
   -2.5981    6.7500    0.0000 C   0  0  0  0  0  0  0  0  0  0  0  0
    0.0000    6.7500    0.0000 C   0  0  0  0  0  0  0  0  0  0  0  0
    0.0000    8.2500    0.0000 O   0  0  0  0  0  0  0  0  0  0  0  0
   -5.1962    6.7500    0.0000 O   0  0  0  0  0  0  0  0  0  0  0  0
   -1.2990    6.0000    0.0000 O   0  0  0  0  0  0  0  0  0  0  0  0
  3  1  1  0
  4  2  1  0
  5  3  1  0
  6  4  1  0
  7  5  1  0
  9  8  1  0
 10  6  1  0
 11 10  2  0
 12  7  1  0
 12  8  1  0
 13  9  1  0
 13 10  1  0
M  END
>  <NAME>  (2185) 
2-BUTOXYETHYL BUTYRATE

>  <SYNONYMS>  (2185) 


>  <SPECTRUM TYPE>  (2185) 
MS1

>  <INSTRUMENT TYPE>  (2185) 
EI-B

>  <INSTRUMENT>  (2185) 
HITACHI M-80B

>  <ION MODE>  (2185) 
P

>  <INCHIKEY>  (2185) 
JWIUNFHJMLAEPS-UHFFFAOYSA-N

>  <FORMULA>  (2185) 
C10H20O3

>  <EXACT MASS>  (2185) 
188.14124449999997

>  <MW>  (2185) 
188

>  <ID>  (2185) 
JP009064

>  <CONTRIBUTOR>  (2185) 
University of Tokyo Team, {Faculty of Engineering, University of Tokyo

>  <COMMENT>  (2185) 
SMILES=CCCCOCCOC(=O)CCC
InChI=InChI=1S/C10H20O3/c1-3-5-7-12-8-9-13-10(11)6-4-2/h3-9H2,1-2H3
computed SMILES=O=C(OCCOCCCC)CCC
accession=JP009064
date=2016.01.19 (Created 2008.10.21, modified 2011.05.06)
author=SODA AROMATIC CO., LTD.
license=CC BY-NC-SA
exact mass=188.14124
ionization energy=70 eV
ion type=[M]+*
computed spectral entropy=2.8955136588076393
computed normalized entropy=0.7959986462631131
SPLASH=splash10-0a4l-9000000000-cbfe3567b914a69dfb7a
submitter=submitter = University of Tokyo Team (Faculty of Engineering, University of Tokyo)
MoNA Rating=3.75

>  <NUM PEAKS>  (2185) 
38

>  <MASS SPECTRAL PEAKS>  (2185) 
15 1.96
26 1.6
27 25.88
28 4.95
29 33
30 1.27
31 2.59
39 10.61
40 1.2
41 48.99
42 10.87
43 68.4
44 13.93
45 15.6
55 7.81
56 76.58
57 99.99
58 8
60 1.77
63 1.09
69 1.1
70 1.9
71 83.68
72 5.42
73 4.47
74 1.83
85 34.79
86 5.89
87 13.18
88 8.2
89 10.58
99 1.13
100 13.25
101 4.35
102 1.07
115 16.84
116 9.6
117 4.96

$$$$

     RDKit          2D

 11 10  0  0  0  0  0  0  0  0999 V2000
   -7.4695    3.9375    0.0000 C   0  0  0  0  0  0  0  0  0  0  0  0
    1.6238    3.1875    0.0000 C   0  0  0  0  0  0  0  0  0  0  0  0
    0.3248    5.4375    0.0000 C   0  0  0  0  0  0  0  0  0  0  0  0
   -4.8714    5.4375    0.0000 C   0  0  0  0  0  0  0  0  0  0  0  0
   -6.1704    3.1875    0.0000 C   0  0  0  0  0  0  0  0  0  0  0  0
   -3.5724    3.1875    0.0000 C   0  0  0  0  0  0  0  0  0  0  0  0
    0.3248    3.9375    0.0000 C   0  0  0  0  0  0  0  0  0  0  0  0
   -4.8714    3.9375    0.0000 C   0  0  0  0  0  0  0  0  0  0  0  0
   -0.9743    3.1875    0.0000 C   0  0  0  0  0  0  0  0  0  0  0  0
   -0.9743    1.6875    0.0000 O   0  0  0  0  0  0  0  0  0  0  0  0
   -2.2733    3.9375    0.0000 O   0  0  0  0  0  0  0  0  0  0  0  0
  5  1  1  0
  7  2  1  0
  7  3  1  0
  8  4  1  0
  8  5  1  0
  8  6  1  0
  9  7  1  0
 10  9  2  0
 11  6  1  0
 11  9  1  0
M  END
>  <NAME>  (2186) 
2-METHYLBUTYL ISOBUTYRATE

>  <SYNONYMS>  (2186) 


>  <SPECTRUM TYPE>  (2186) 
MS1

>  <INSTRUMENT TYPE>  (2186) 
EI-B

>  <INSTRUMENT>  (2186) 
HITACHI M-80B

>  <ION MODE>  (2186) 
P

>  <INCHIKEY>  (2186) 
DUAXUBMIVRZGCO-UHFFFAOYSA-N

>  <FORMULA>  (2186) 
C9H18O2

>  <EXACT MASS>  (2186) 
158.130679816

>  <MW>  (2186) 
158

>  <ID>  (2186) 
JP009063

>  <CONTRIBUTOR>  (2186) 
University of Tokyo Team, {Faculty of Engineering, University of Tokyo

>  <COMMENT>  (2186) 
SMILES=CCC(C)COC(=O)C(C)C
cas=2445-69-4
InChI=InChI=1S/C9H18O2/c1-5-8(4)6-11-9(10)7(2)3/h7-8H,5-6H2,1-4H3
computed SMILES=O=C(OCC(C)CC)C(C)C
accession=JP009063
date=2016.01.19 (Created 2008.10.21, modified 2011.05.06)
author=SODA AROMATIC CO., LTD.
license=CC BY-NC-SA
exact mass=158.13068
ionization energy=70 eV
ion type=[M]+*
computed spectral entropy=2.0819591086134914
computed normalized entropy=0.6735459444601
SPLASH=splash10-00dl-9000000000-fe6158430ffd9a69ec68
submitter=submitter = University of Tokyo Team (Faculty of Engineering, University of Tokyo)
MoNA Rating=3.75

>  <NUM PEAKS>  (2186) 
22

>  <MASS SPECTRAL PEAKS>  (2186) 
31 1.56
32 1.93
39 7.65
41 24.45
42 9.53
43 99.99
44 2.29
45 2.11
53 1.45
55 14.62
56 2.1
57 5.71
69 1.54
70 60.76
71 89.11
72 3.36
73 1.65
85 4.35
87 1.44
88 1.65
89 7.14
101 4.42

$$$$

     RDKit          2D

 10  9  0  0  0  0  0  0  0  0999 V2000
   -6.4952    4.5000    0.0000 C   0  0  0  0  0  0  0  0  0  0  0  0
    2.5981    3.7500    0.0000 C   0  0  0  0  0  0  0  0  0  0  0  0
   -3.8971    6.0000    0.0000 C   0  0  0  0  0  0  0  0  0  0  0  0
   -5.1962    3.7500    0.0000 C   0  0  0  0  0  0  0  0  0  0  0  0
    1.2990    4.5000    0.0000 C   0  0  0  0  0  0  0  0  0  0  0  0
   -2.5981    3.7500    0.0000 C   0  0  0  0  0  0  0  0  0  0  0  0
   -3.8971    4.5000    0.0000 C   0  0  0  0  0  0  0  0  0  0  0  0
    0.0000    3.7500    0.0000 C   0  0  0  0  0  0  0  0  0  0  0  0
   -0.0000    2.2500    0.0000 O   0  0  0  0  0  0  0  0  0  0  0  0
   -1.2990    4.5000    0.0000 O   0  0  0  0  0  0  0  0  0  0  0  0
  4  1  1  0
  5  2  1  0
  7  3  1  0
  7  4  1  0
  7  6  1  0
  8  5  1  0
  9  8  2  0
 10  6  1  0
 10  8  1  0
M  END
>  <NAME>  (2187) 
2-METHYLBUTYL PROPIONATE

>  <SYNONYMS>  (2187) 


>  <SPECTRUM TYPE>  (2187) 
MS1

>  <INSTRUMENT TYPE>  (2187) 
EI-B

>  <INSTRUMENT>  (2187) 
HITACHI M-80B

>  <ION MODE>  (2187) 
P

>  <INCHIKEY>  (2187) 
MVJLYXCJBPXRCY-UHFFFAOYSA-N

>  <FORMULA>  (2187) 
C8H16O2

>  <EXACT MASS>  (2187) 
144.115029752

>  <MW>  (2187) 
144

>  <ID>  (2187) 
JP009062

>  <CONTRIBUTOR>  (2187) 
University of Tokyo Team, {Faculty of Engineering, University of Tokyo

>  <COMMENT>  (2187) 
SMILES=CCC(C)COC(=O)CC
InChI=InChI=1S/C8H16O2/c1-4-7(3)6-10-8(9)5-2/h7H,4-6H2,1-3H3
computed SMILES=O=C(OCC(C)CC)CC
accession=JP009062
date=2016.01.19 (Created 2008.10.21, modified 2011.05.06)
author=SODA AROMATIC CO., LTD.
license=CC BY-NC-SA
exact mass=144.11503
ionization energy=70 eV
ion type=[M]+*
computed spectral entropy=2.323616080939579
computed normalized entropy=0.7410685272946725
SPLASH=splash10-0a6r-9000000000-cfabe23a13a6a4a0e5d6
submitter=submitter = University of Tokyo Team (Faculty of Engineering, University of Tokyo)
MoNA Rating=3.75

>  <NUM PEAKS>  (2187) 
23

>  <MASS SPECTRAL PEAKS>  (2187) 
26 1.81
27 17.86
28 4.84
29 43.63
30 1.06
31 2.45
39 6.23
40 1
41 12.89
42 8.76
43 15.51
45 1.81
55 14.29
56 3.36
57 99.99
58 3.07
70 36.83
71 5.6
75 3.64
85 2.71
86 1.67
87 7.73
88 1.82

$$$$

     RDKit          2D

 13 12  0  0  0  0  0  0  0  0999 V2000
   -9.7428    5.6250    0.0000 C   0  0  0  0  0  0  0  0  0  0  0  0
    3.2476    5.6250    0.0000 C   0  0  0  0  0  0  0  0  0  0  0  0
    0.6495    7.1250    0.0000 C   0  0  0  0  0  0  0  0  0  0  0  0
   -8.4437    4.8750    0.0000 C   0  0  0  0  0  0  0  0  0  0  0  0
    1.9486    4.8750    0.0000 C   0  0  0  0  0  0  0  0  0  0  0  0
   -7.1447    5.6250    0.0000 C   0  0  0  0  0  0  0  0  0  0  0  0
   -5.8457    4.8750    0.0000 C   0  0  0  0  0  0  0  0  0  0  0  0
   -4.5466    5.6250    0.0000 C   0  0  0  0  0  0  0  0  0  0  0  0
   -0.6495    4.8750    0.0000 C   0  0  0  0  0  0  0  0  0  0  0  0
    0.6495    5.6250    0.0000 C   0  0  0  0  0  0  0  0  0  0  0  0
   -3.2476    4.8750    0.0000 C   0  0  0  0  0  0  0  0  0  0  0  0
   -3.2476    3.3750    0.0000 O   0  0  0  0  0  0  0  0  0  0  0  0
   -1.9486    5.6250    0.0000 O   0  0  0  0  0  0  0  0  0  0  0  0
  4  1  1  0
  5  2  1  0
  6  4  1  0
  7  6  1  0
  8  7  1  0
 10  3  1  0
 10  5  1  0
 10  9  1  0
 11  8  1  0
 12 11  2  0
 13  9  1  0
 13 11  1  0
M  END
>  <NAME>  (2188) 
2-METHYLBUTYL HEXANOATE

>  <SYNONYMS>  (2188) 


>  <SPECTRUM TYPE>  (2188) 
MS1

>  <INSTRUMENT TYPE>  (2188) 
EI-B

>  <INSTRUMENT>  (2188) 
HITACHI M-80B

>  <ION MODE>  (2188) 
P

>  <INCHIKEY>  (2188) 
ZWMQVDONBUJJLL-UHFFFAOYSA-N

>  <FORMULA>  (2188) 
C11H22O2

>  <EXACT MASS>  (2188) 
186.161979944

>  <MW>  (2188) 
186

>  <ID>  (2188) 
JP009061

>  <CONTRIBUTOR>  (2188) 
University of Tokyo Team, {Faculty of Engineering, University of Tokyo

>  <COMMENT>  (2188) 
SMILES=CCCCCC(=O)OCC(C)CC
cas=2601-13-0
InChI=InChI=1S/C11H22O2/c1-4-6-7-8-11(12)13-9-10(3)5-2/h10H,4-9H2,1-3H3
computed SMILES=O=C(OCC(C)CC)CCCCC
accession=JP009061
date=2016.01.19 (Created 2008.10.21, modified 2011.05.06)
author=SODA AROMATIC CO., LTD.
license=CC BY-NC-SA
exact mass=186.16198
ionization energy=70 eV
ion type=[M]+*
computed spectral entropy=2.5899113892470633
computed normalized entropy=0.7541994873668627
SPLASH=splash10-00dm-9000000000-20aa570a85d13750ee19
submitter=submitter = University of Tokyo Team (Faculty of Engineering, University of Tokyo)
MoNA Rating=3.75

>  <NUM PEAKS>  (2188) 
31

>  <MASS SPECTRAL PEAKS>  (2188) 
27 15.45
29 25.43
31 1.65
39 10.8
41 31.05
42 15.97
43 72.17
44 1.85
45 2.82
53 1.95
55 26.11
56 4.78
57 6.38
60 11.21
61 2.08
69 4.41
70 99.99
71 53.1
72 3.36
73 6.7
74 1.16
85 1.08
87 5.15
99 94.44
100 6.35
101 1.01
115 1.19
116 3.64
117 10.21
129 1.17
130 1.14

$$$$

     RDKit          2D

 15 15  0  0  0  0  0  0  0  0999 V2000
   -6.8197    3.1321    0.0000 C   0  0  0  0  0  0  0  0  0  0  0  0
   -4.2216    7.6321    0.0000 C   0  0  0  0  0  0  0  0  0  0  0  0
   -5.5207    3.8821    0.0000 C   0  0  0  0  0  0  0  0  0  0  0  0
   -4.2216    6.1321    0.0000 C   0  0  0  0  0  0  0  0  0  0  0  0
    3.5726    1.6321    0.0000 C   0  0  0  0  0  0  0  0  0  0  0  0
    3.5731    3.1329    0.0000 C   0  0  0  0  0  0  0  0  0  0  0  0
    2.2731    0.8813    0.0000 C   0  0  0  0  0  0  0  0  0  0  0  0
    2.2740    3.8829    0.0000 C   0  0  0  0  0  0  0  0  0  0  0  0
    0.9740    1.6313    0.0000 C   0  0  0  0  0  0  0  0  0  0  0  0
   -0.3245    3.8821    0.0000 C   0  0  0  0  0  0  0  0  0  0  0  0
   -1.6236    3.1321    0.0000 C   0  0  0  0  0  0  0  0  0  0  0  0
    0.9745    3.1321    0.0000 C   0  0  0  0  0  0  0  0  0  0  0  0
   -2.9226    3.8821    0.0000 C   0  0  0  0  0  0  0  0  0  0  0  0
   -4.2216    3.1321    0.0000 O   0  0  0  0  0  0  0  0  0  0  0  0
   -2.9226    5.3821    0.0000 O   0  0  0  0  0  0  0  0  0  0  0  0
  3  1  1  0
  4  2  1  0
  6  5  2  0
  7  5  1  0
  8  6  1  0
  9  7  2  0
 11 10  1  0
 12  8  2  0
 12  9  1  0
 12 10  1  0
 13 11  1  0
 14  3  1  0
 14 13  1  0
 15  4  1  0
 15 13  1  0
M  END
>  <NAME>  (2189) 
3-PHENYLPROPANAL DIETHYL ACETAL

>  <SYNONYMS>  (2189) 


>  <SPECTRUM TYPE>  (2189) 
MS1

>  <INSTRUMENT TYPE>  (2189) 
EI-B

>  <INSTRUMENT>  (2189) 
HITACHI M-80B

>  <ION MODE>  (2189) 
P

>  <INCHIKEY>  (2189) 
PUAHZQALAWRSNP-UHFFFAOYSA-N

>  <FORMULA>  (2189) 
C13H20O2

>  <EXACT MASS>  (2189) 
208.14632988

>  <MW>  (2189) 
208

>  <ID>  (2189) 
JP009060

>  <CONTRIBUTOR>  (2189) 
University of Tokyo Team, {Faculty of Engineering, University of Tokyo

>  <COMMENT>  (2189) 
SMILES=CCOC(OCC)CCc(c1)cccc1
InChI=InChI=1S/C13H20O2/c1-3-14-13(15-4-2)11-10-12-8-6-5-7-9-12/h5-9,13H,3-4,10-11H2,1-2H3
computed SMILES=O(CC)C(OCC)CCC=1C=CC=CC1
accession=JP009060
date=2016.01.19 (Created 2008.10.21, modified 2011.05.06)
author=SODA AROMATIC CO., LTD.
license=CC BY-NC-SA
exact mass=208.14633
ionization energy=70 eV
ion type=[M]+*
computed spectral entropy=3.166919160333277
computed normalized entropy=0.7976539834573304
SPLASH=splash10-0f97-9600000000-1b05e5ce19f044de251b
submitter=submitter = University of Tokyo Team (Faculty of Engineering, University of Tokyo)
MoNA Rating=3.75

>  <NUM PEAKS>  (2189) 
53

>  <MASS SPECTRAL PEAKS>  (2189) 
15 1.72
29 32.32
30 1.19
31 12.4
39 7.85
41 1.94
43 6.56
44 7.47
45 7.39
46 1.49
47 61.19
50 2.36
51 9.94
52 2.09
53 1.3
55 5.29
57 4.23
59 1.25
63 3.39
64 1.03
65 13.44
72 1.99
74 1.02
75 49.25
76 2.46
77 19.68
78 15.05
79 10.7
89 3.3
90 1.57
91 99.99
92 19.36
93 1.14
102 1.66
103 92.2
104 8.98
105 39.54
106 3.27
107 1.35
115 7.99
116 5
117 29.91
118 9.92
119 6.66
130 1.76
131 1.11
133 15.44
134 3.09
135 1.41
161 1.4
162 32.99
163 17.15
164 1.81

$$$$

     RDKit          2D

  8  7  0  0  0  0  0  0  0  0999 V2000
   -6.4952    4.5000    0.0000 C   0  0  0  0  0  0  0  0  0  0  0  0
    1.2990    4.5000    0.0000 C   0  0  0  0  0  0  0  0  0  0  0  0
    0.0000    3.7500    0.0000 C   0  0  0  0  0  0  0  0  0  0  0  0
   -3.8971    4.5000    0.0000 C   0  0  0  0  0  0  0  0  0  0  0  0
   -2.5981    3.7500    0.0000 C   0  0  0  0  0  0  0  0  0  0  0  0
    2.5981    3.7500    0.0000 O   0  0  0  0  0  0  0  0  0  0  0  0
   -5.1962    3.7500    0.0000 O   0  0  0  0  0  0  0  0  0  0  0  0
   -1.2990    4.5000    0.0000 O   0  0  0  0  0  0  0  0  0  0  0  0
  3  2  1  0
  5  4  1  0
  6  2  1  0
  7  1  1  0
  7  4  1  0
  8  3  1  0
  8  5  1  0
M  END
>  <NAME>  (2190) 
DIETHYLENE GLYCOL MONOMETHYL ETHER

>  <SYNONYMS>  (2190) 
2-(2-METHOXYETHOXY)ETHNOL

>  <SPECTRUM TYPE>  (2190) 
MS1

>  <INSTRUMENT TYPE>  (2190) 
EI-B

>  <INSTRUMENT>  (2190) 
HITACHI M-80B

>  <ION MODE>  (2190) 
P

>  <INCHIKEY>  (2190) 
SBASXUCJHJRPEV-UHFFFAOYSA-N

>  <FORMULA>  (2190) 
C5H12O3

>  <EXACT MASS>  (2190) 
120.07864424399999

>  <MW>  (2190) 
120

>  <ID>  (2190) 
JP009059

>  <CONTRIBUTOR>  (2190) 
University of Tokyo Team, {Faculty of Engineering, University of Tokyo

>  <COMMENT>  (2190) 
SMILES=COCCOCCO
cas=111-77-3
InChI=InChI=1S/C5H12O3/c1-7-4-5-8-3-2-6/h6H,2-5H2,1H3
computed SMILES=OCCOCCOC
accession=JP009059
date=2016.01.19 (Created 2008.10.21, modified 2011.05.06)
author=SODA AROMATIC CO., LTD.
license=CC BY-NC-SA
exact mass=120.07864
ionization energy=70 eV
ion type=[M]+*
computed spectral entropy=2.3050884810920214
computed normalized entropy=0.7571264552136715
SPLASH=splash10-052b-9000000000-49842954017a6ce3cb74
submitter=submitter = University of Tokyo Team (Faculty of Engineering, University of Tokyo)
MoNA Rating=3.75

>  <NUM PEAKS>  (2190) 
21

>  <MASS SPECTRAL PEAKS>  (2190) 
15 10.13
19 2.44
26 1.31
27 8.39
28 2.28
29 20.3
30 1.14
31 23.65
33 1.37
42 1.52
43 12.97
44 4.08
45 99.99
46 1.7
58 23.08
59 42.25
60 4.84
75 9.68
87 1.37
89 10.79
90 12.51

$$$$

     RDKit          2D

 17 18  0  0  0  0  0  0  0  0999 V2000
   -5.8464   -0.3756    0.0000 C   0  0  0  0  0  0  0  0  0  0  0  0
   -4.5477   -2.6258    0.0000 C   0  0  0  0  0  0  0  0  0  0  0  0
    1.9483   -0.3752    0.0000 C   0  0  0  0  0  0  0  0  0  0  0  0
    0.6492   -5.6252    0.0000 C   0  0  0  0  0  0  0  0  0  0  0  0
    1.9492   -4.8752    0.0000 C   0  0  0  0  0  0  0  0  0  0  0  0
   -0.6508   -4.8752    0.0000 C   0  0  0  0  0  0  0  0  0  0  0  0
    1.9492   -3.3752    0.0000 C   0  0  0  0  0  0  0  0  0  0  0  0
   -0.6508   -3.3752    0.0000 C   0  0  0  0  0  0  0  0  0  0  0  0
   -3.2479    1.1248    0.0000 C   0  0  0  0  0  0  0  0  0  0  0  0
   -1.9483    1.8757    0.0000 C   0  0  0  0  0  0  0  0  0  0  0  0
   -4.5475   -1.1258    0.0000 C   0  0  0  0  0  0  0  0  0  0  0  0
    0.6492   -1.1252    0.0000 C   0  0  0  0  0  0  0  0  0  0  0  0
    0.6492   -2.6252    0.0000 C   0  0  0  0  0  0  0  0  0  0  0  0
   -3.2483   -0.3760    0.0000 C   0  0  0  0  0  0  0  0  0  0  0  0
   -0.6498   -0.3752    0.0000 C   0  0  0  0  0  0  0  0  0  0  0  0
   -0.6493    1.1257    0.0000 O   0  0  0  0  0  0  0  0  0  0  0  0
   -1.9493   -1.1260    0.0000 O   0  0  0  0  0  0  0  0  0  0  0  0
  5  4  2  0
  6  4  1  0
  7  5  1  0
  8  6  2  0
 10  9  1  0
 11  1  1  0
 11  2  1  0
 12  3  1  0
 13  7  2  0
 13  8  1  0
 13 12  1  0
 14  9  1  0
 14 11  1  0
 15 12  1  0
 16 10  1  0
 16 15  1  0
 17 14  1  0
 17 15  1  0
M  END
>  <NAME>  (2191) 
2-(1-PHENYLETHYL)-6-ISOPROPYL-1,3-DIOXANE

>  <SYNONYMS>  (2191) 


>  <SPECTRUM TYPE>  (2191) 
MS1

>  <INSTRUMENT TYPE>  (2191) 
EI-B

>  <INSTRUMENT>  (2191) 
HITACHI M-80B

>  <ION MODE>  (2191) 
P

>  <INCHIKEY>  (2191) 
YWNRQAFPFQOIDO-UHFFFAOYSA-N

>  <FORMULA>  (2191) 
C15H22O2

>  <EXACT MASS>  (2191) 
234.161979944

>  <MW>  (2191) 
234

>  <ID>  (2191) 
JP009058

>  <CONTRIBUTOR>  (2191) 
University of Tokyo Team, {Faculty of Engineering, University of Tokyo

>  <COMMENT>  (2191) 
SMILES=CC(C)C(C2)OC(OC2)C(C)c(c1)cccc1
InChI=InChI=1S/C15H22O2/c1-11(2)14-9-10-16-15(17-14)12(3)13-7-5-4-6-8-13/h4-8,11-12,14-15H,9-10H2,1-3H3
computed SMILES=O1CCC(OC1C(C=2C=CC=CC2)C)C(C)C
accession=JP009058
date=2016.01.19 (Created 2008.10.21, modified 2011.05.06)
author=SODA AROMATIC CO., LTD.
license=CC BY-NC-SA
exact mass=234.16198
ionization energy=70 eV
ion type=[M]+*
computed spectral entropy=2.3797097919842485
computed normalized entropy=0.7220350668840181
SPLASH=splash10-001i-9300000000-3829cc06a3846c69f107
submitter=submitter = University of Tokyo Team (Faculty of Engineering, University of Tokyo)
MoNA Rating=3.75

>  <NUM PEAKS>  (2191) 
27

>  <MASS SPECTRAL PEAKS>  (2191) 
27 2.95
29 2.38
39 3.49
41 8.67
42 1.84
43 18.08
45 8.54
51 1.95
53 1.08
55 12.94
56 2.5
57 3.61
59 2.76
65 1.32
77 7.52
78 1.95
79 4.37
83 99.99
84 7.01
85 1.45
91 3.02
103 3.13
104 1.69
105 26.94
106 3.05
129 29.62
130 2.33

$$$$

     RDKit          2D

 10 10  0  0  0  0  0  0  0  0999 V2000
   -6.0284    0.0637    0.0000 C   0  0  0  0  0  0  0  0  0  0  0  0
   -4.6006   -0.3962    0.0000 C   0  0  0  0  0  0  0  0  0  0  0  0
   -3.4884    0.6102    0.0000 C   0  0  0  0  0  0  0  0  0  0  0  0
    0.2615    3.2525    0.0000 C   0  0  0  0  0  0  0  0  0  0  0  0
   -2.0607    0.1503    0.0000 C   0  0  0  0  0  0  0  0  0  0  0  0
   -1.1142    2.6496    0.0000 C   0  0  0  0  0  0  0  0  0  0  0  0
    1.2613    2.1441    0.0000 C   0  0  0  0  0  0  0  0  0  0  0  0
   -0.9485    1.1567    0.0000 C   0  0  0  0  0  0  0  0  0  0  0  0
    0.5113    0.8451    0.0000 C   0  0  0  0  0  0  0  0  0  0  0  0
    1.1208   -0.5255    0.0000 O   0  0  0  0  0  0  0  0  0  0  0  0
  2  1  1  0
  3  2  1  0
  5  3  1  0
  6  4  1  0
  7  4  1  0
  8  5  1  0
  8  6  2  0
  9  7  1  0
  9  8  1  0
 10  9  2  0
M  END
>  <NAME>  (2192) 
2-BUTYL-2-CYCLOPENTENONE

>  <SYNONYMS>  (2192) 


>  <SPECTRUM TYPE>  (2192) 
MS1

>  <INSTRUMENT TYPE>  (2192) 
EI-B

>  <INSTRUMENT>  (2192) 
HITACHI M-80B

>  <ION MODE>  (2192) 
P

>  <INCHIKEY>  (2192) 
LQANWSYLRLMKDX-UHFFFAOYSA-N

>  <FORMULA>  (2192) 
C9H14O

>  <EXACT MASS>  (2192) 
138.104465068

>  <MW>  (2192) 
138

>  <ID>  (2192) 
JP009057

>  <CONTRIBUTOR>  (2192) 
University of Tokyo Team, {Faculty of Engineering, University of Tokyo

>  <COMMENT>  (2192) 
SMILES=CCCCC(=C1)C(=O)CC1
InChI=InChI=1S/C9H14O/c1-2-3-5-8-6-4-7-9(8)10/h6H,2-5,7H2,1H3
computed SMILES=O=C1C(=CCC1)CCCC
accession=JP009057
date=2016.01.19 (Created 2008.10.21, modified 2011.05.06)
author=SODA AROMATIC CO., LTD.
license=CC BY-NC-SA
exact mass=138.10447
ionization energy=70 eV
ion type=[M]+*
computed spectral entropy=3.2133348840035825
computed normalized entropy=0.8392885494447834
SPLASH=splash10-000b-9200000000-39594487bd2c2ffeb15b
submitter=submitter = University of Tokyo Team (Faculty of Engineering, University of Tokyo)
MoNA Rating=3.75

>  <NUM PEAKS>  (2192) 
46

>  <MASS SPECTRAL PEAKS>  (2192) 
15 1.12
26 2.21
27 29.02
29 8.55
38 2.16
39 32.94
40 4.18
41 42.95
42 3.81
43 7.99
50 2.86
51 9.27
52 5.34
53 22.13
54 9.4
55 11.65
56 1.2
63 2.63
65 10.76
66 8.43
67 43.24
68 21.63
69 2.86
77 7.65
78 2.31
79 15.54
80 2.15
81 26.95
82 3.63
83 2.02
91 2.9
93 1.64
94 1.9
95 27.19
96 99.99
97 18.39
98 1.06
105 1.56
109 37.95
110 16.15
111 1.09
123 19.47
124 1.49
137 5.58
138 38.4
139 3.82

$$$$

     RDKit          2D

  6  6  0  0  0  0  0  0  0  0999 V2000
    0.0000    1.5000    0.0000 C   0  0  0  0  0  0  0  0  0  0  0  0
    1.3000    0.7500    0.0000 C   0  0  0  0  0  0  0  0  0  0  0  0
   -1.3000    0.7500    0.0000 C   0  0  0  0  0  0  0  0  0  0  0  0
    1.3000   -0.7500    0.0000 C   0  0  0  0  0  0  0  0  0  0  0  0
   -1.3000   -0.7500    0.0000 C   0  0  0  0  0  0  0  0  0  0  0  0
   -0.0000   -1.5000    0.0000 O   0  0  0  0  0  0  0  0  0  0  0  0
  2  1  1  0
  3  1  1  0
  4  2  2  0
  5  3  1  0
  6  4  1  0
  6  5  1  0
M  END
>  <NAME>  (2193) 
3,4-DIHYDRO-2H-PYRAN

>  <SYNONYMS>  (2193) 


>  <SPECTRUM TYPE>  (2193) 
MS1

>  <INSTRUMENT TYPE>  (2193) 
EI-B

>  <INSTRUMENT>  (2193) 
HITACHI M-80B

>  <ION MODE>  (2193) 
P

>  <INCHIKEY>  (2193) 
BUDQDWGNQVEFAC-UHFFFAOYSA-N

>  <FORMULA>  (2193) 
C5H8O

>  <EXACT MASS>  (2193) 
84.057514876

>  <MW>  (2193) 
84

>  <ID>  (2193) 
JP009056

>  <CONTRIBUTOR>  (2193) 
University of Tokyo Team, {Faculty of Engineering, University of Tokyo

>  <COMMENT>  (2193) 
SMILES=C(C1)C=COC1
cas=110-87-2
InChI=InChI=1S/C5H8O/c1-2-4-6-5-3-1/h2,4H,1,3,5H2
computed SMILES=O1C=CCCC1
accession=JP009056
date=2016.01.19 (Created 2008.10.21, modified 2011.05.06)
author=SODA AROMATIC CO., LTD.
license=CC BY-NC-SA
exact mass=84.05751
ionization energy=70 eV
ion type=[M]+*
computed spectral entropy=2.5780732923474465
computed normalized entropy=0.7736839934268903
SPLASH=splash10-0a59-9000000000-04131115fe3268287dfd
submitter=submitter = University of Tokyo Team (Faculty of Engineering, University of Tokyo)
MoNA Rating=3.75

>  <NUM PEAKS>  (2193) 
28

>  <MASS SPECTRAL PEAKS>  (2193) 
29 25.74
30 1.16
31 3.4
37 1.69
38 3.44
39 31.99
40 2.82
41 24.95
42 3.37
43 5.79
44 1.13
45 2.08
49 1.19
50 7.03
51 7.55
52 2.47
53 16.05
54 26.98
55 99.99
56 32.05
57 10.99
65 1.26
66 1.51
69 13.6
81 1.12
83 35.34
84 77.59
85 3.7

$$$$

     RDKit          2D

  6  5  0  0  0  0  0  0  0  0999 V2000
    0.0000    0.0000    0.0000 C   0  0  0  0  0  0  0  0  0  0  0  0
    1.2990    2.2500    0.0000 C   0  0  0  0  0  0  0  0  0  0  0  0
   -1.2990    2.2500    0.0000 C   0  0  0  0  0  0  0  0  0  0  0  0
   -1.2990    3.7500    0.0000 C   0  0  0  0  0  0  0  0  0  0  0  0
    0.0000    1.5000    0.0000 C   0  0  0  0  0  0  0  0  0  0  0  0
   -2.5981    4.5000    0.0000 N   0  0  0  0  0  0  0  0  0  0  0  0
  4  3  1  0
  5  1  1  0
  5  2  1  0
  5  3  1  0
  6  4  1  0
M  END
>  <NAME>  (2194) 
ISOPENTYLAMINE

>  <SYNONYMS>  (2194) 


>  <SPECTRUM TYPE>  (2194) 
MS1

>  <INSTRUMENT TYPE>  (2194) 
EI-B

>  <INSTRUMENT>  (2194) 
HITACHI M-80B

>  <ION MODE>  (2194) 
P

>  <INCHIKEY>  (2194) 
BMFVGAAISNGQNM-UHFFFAOYSA-N

>  <FORMULA>  (2194) 
C5H13N

>  <EXACT MASS>  (2194) 
87.10479941599999

>  <MW>  (2194) 
87

>  <ID>  (2194) 
JP009055

>  <CONTRIBUTOR>  (2194) 
University of Tokyo Team, {Faculty of Engineering, University of Tokyo

>  <COMMENT>  (2194) 
SMILES=NCCC(C)C
cas=107-85-7
InChI=InChI=1S/C5H13N/c1-5(2)3-4-6/h5H,3-4,6H2,1-2H3
computed SMILES=NCCC(C)C
accession=JP009055
date=2016.01.19 (Created 2008.10.21, modified 2011.05.06)
author=SODA AROMATIC CO., LTD.
license=CC BY-NC-SA
exact mass=87.1048
ionization energy=70 eV
ion type=[M]+*
computed spectral entropy=1.324318448810261
computed normalized entropy=0.5329449494302916
SPLASH=splash10-001i-9000000000-a38f41cef45a48b3b69d
submitter=submitter = University of Tokyo Team (Faculty of Engineering, University of Tokyo)
MoNA Rating=3.75

>  <NUM PEAKS>  (2194) 
12

>  <MASS SPECTRAL PEAKS>  (2194) 
30 99.99
31 2.16
39 5.83
41 6.55
42 4.22
43 3.53
44 4.46
45 1.99
55 3.4
58 1.21
70 6.64
87 4.42

$$$$

     RDKit          2D

  5  4  0  0  0  0  0  0  0  0999 V2000
    0.0000    0.0000    0.0000 C   0  0  0  0  0  0  0  0  0  0  0  0
    1.2990    2.2500    0.0000 C   0  0  0  0  0  0  0  0  0  0  0  0
   -1.2990    2.2500    0.0000 C   0  0  0  0  0  0  0  0  0  0  0  0
    0.0000    1.5000    0.0000 C   0  0  0  0  0  0  0  0  0  0  0  0
   -1.2990    3.7500    0.0000 N   0  0  0  0  0  0  0  0  0  0  0  0
  4  1  1  0
  4  2  1  0
  4  3  1  0
  5  3  1  0
M  END
>  <NAME>  (2195) 
ISOBUTYLAMINE

>  <SYNONYMS>  (2195) 


>  <SPECTRUM TYPE>  (2195) 
MS1

>  <INSTRUMENT TYPE>  (2195) 
EI-B

>  <INSTRUMENT>  (2195) 
HITACHI M-80B

>  <ION MODE>  (2195) 
P

>  <INCHIKEY>  (2195) 
KDSNLYIMUZNERS-UHFFFAOYSA-N

>  <FORMULA>  (2195) 
C4H11N

>  <EXACT MASS>  (2195) 
73.089149352

>  <MW>  (2195) 
73

>  <ID>  (2195) 
JP009054

>  <CONTRIBUTOR>  (2195) 
University of Tokyo Team, {Faculty of Engineering, University of Tokyo

>  <COMMENT>  (2195) 
SMILES=NCC(C)C
cas=78-81-9
InChI=InChI=1S/C4H11N/c1-4(2)3-5/h4H,3,5H2,1-2H3
computed SMILES=NCC(C)C
accession=JP009054
date=2016.01.19 (Created 2008.10.21, modified 2011.05.06)
author=SODA AROMATIC CO., LTD.
license=CC BY-NC-SA
exact mass=73.08915
ionization energy=70 eV
ion type=[M]+*
computed spectral entropy=1.322923865075691
computed normalized entropy=0.515769974649696
SPLASH=splash10-001i-9000000000-8b23a8ba6fd943667323
submitter=submitter = University of Tokyo Team (Faculty of Engineering, University of Tokyo)
MoNA Rating=3.75

>  <NUM PEAKS>  (2195) 
13

>  <MASS SPECTRAL PEAKS>  (2195) 
27 3.84
28 7.88
29 2.16
30 99.99
31 1.93
39 4.75
41 6.92
42 1.57
43 1.42
55 1.92
56 2.12
58 1.76
73 8.61

$$$$

     RDKit          2D

  5  4  0  0  0  0  0  0  0  0999 V2000
   -3.8971    2.2500    0.0000 C   0  0  0  0  0  0  0  0  0  0  0  0
   -2.5981    1.5000    0.0000 C   0  0  0  0  0  0  0  0  0  0  0  0
   -1.2990    2.2500    0.0000 C   0  0  0  0  0  0  0  0  0  0  0  0
    0.0000    1.5000    0.0000 C   0  0  0  0  0  0  0  0  0  0  0  0
    1.2990    2.2500    0.0000 N   0  0  0  0  0  0  0  0  0  0  0  0
  2  1  1  0
  3  2  1  0
  4  3  1  0
  5  4  1  0
M  END
>  <NAME>  (2196) 
BUTYLAMINE

>  <SYNONYMS>  (2196) 


>  <SPECTRUM TYPE>  (2196) 
MS1

>  <INSTRUMENT TYPE>  (2196) 
EI-B

>  <INSTRUMENT>  (2196) 
HITACHI M-80B

>  <ION MODE>  (2196) 
P

>  <INCHIKEY>  (2196) 
HQABUPZFAYXKJW-UHFFFAOYSA-N

>  <FORMULA>  (2196) 
C4H11N

>  <EXACT MASS>  (2196) 
73.089149352

>  <MW>  (2196) 
73

>  <ID>  (2196) 
JP009053

>  <CONTRIBUTOR>  (2196) 
University of Tokyo Team, {Faculty of Engineering, University of Tokyo

>  <COMMENT>  (2196) 
SMILES=CCCCN
cas=109-73-9
InChI=InChI=1S/C4H11N/c1-2-3-4-5/h2-5H2,1H3
computed SMILES=NCCCC
accession=JP009053
date=2016.01.19 (Created 2008.10.21, modified 2011.05.06)
author=SODA AROMATIC CO., LTD.
license=CC BY-NC-SA
exact mass=73.08915
ionization energy=70 eV
ion type=[M]+*
computed spectral entropy=1.0575959884119084
computed normalized entropy=0.44105178420810764
SPLASH=splash10-001i-9000000000-ffebea123990592a7025
submitter=submitter = University of Tokyo Team (Faculty of Engineering, University of Tokyo)
MoNA Rating=3.75

>  <NUM PEAKS>  (2196) 
11

>  <MASS SPECTRAL PEAKS>  (2196) 
29 2.78
30 99.99
31 2.18
39 3.73
41 3.76
42 2.9
43 1.57
44 2.2
55 1.03
56 1.42
73 10.79

$$$$

     RDKit          2D

  4  3  0  0  0  0  0  0  0  0999 V2000
    0.9743    0.5625    0.0000 C   0  0  0  0  0  0  0  0  0  0  0  0
   -1.6238    0.5625    0.0000 C   0  0  0  0  0  0  0  0  0  0  0  0
   -0.3248    2.8125    0.0000 C   0  0  0  0  0  0  0  0  0  0  0  0
   -0.3248    1.3125    0.0000 N   0  0  0  0  0  0  0  0  0  0  0  0
  4  1  1  0
  4  2  1  0
  4  3  1  0
M  END
>  <NAME>  (2197) 
TRIMETHYLAMINE

>  <SYNONYMS>  (2197) 


>  <SPECTRUM TYPE>  (2197) 
MS1

>  <INSTRUMENT TYPE>  (2197) 
EI-B

>  <INSTRUMENT>  (2197) 
HITACHI M-80B

>  <ION MODE>  (2197) 
P

>  <INCHIKEY>  (2197) 
GETQZCLCWQTVFV-UHFFFAOYSA-N

>  <FORMULA>  (2197) 
C3H9N

>  <EXACT MASS>  (2197) 
59.073499287999994

>  <MW>  (2197) 
59

>  <ID>  (2197) 
JP009052

>  <CONTRIBUTOR>  (2197) 
University of Tokyo Team, {Faculty of Engineering, University of Tokyo

>  <COMMENT>  (2197) 
SMILES=CN(C)C
cas=75-50-3
InChI=InChI=1S/C3H9N/c1-4(2)3/h1-3H3
computed SMILES=N(C)(C)C
accession=JP009052
date=2016.01.19 (Created 2008.10.21, modified 2011.05.06)
author=SODA AROMATIC CO., LTD.
license=CC BY-NC-SA
exact mass=59.0735
ionization energy=70 eV
ion type=[M]+*
computed spectral entropy=2.1627879787959032
computed normalized entropy=0.6897757832906728
SPLASH=splash10-0a4i-9000000000-55145d7583823742b4d0
submitter=submitter = University of Tokyo Team (Faculty of Engineering, University of Tokyo)
MoNA Rating=3.75

>  <NUM PEAKS>  (2197) 
23

>  <MASS SPECTRAL PEAKS>  (2197) 
15 8.14
17 1.29
18 1.64
26 1.73
27 3.63
28 4.78
29 5.86
30 15.51
32 1.07
38 1.69
39 2.44
40 4.73
41 5.16
42 36.49
43 8.7
44 3.82
45 1.21
54 1.5
56 2.82
57 5.82
58 99.99
59 43.57
60 1.78

$$$$

     RDKit          2D

  3  2  0  0  0  0  0  0  0  0999 V2000
   -1.2990    0.0000    0.0000 C   0  0  0  0  0  0  0  0  0  0  0  0
    0.0000    2.2500    0.0000 C   0  0  0  0  0  0  0  0  0  0  0  0
   -0.0000    0.7500    0.0000 N   0  0  0  0  0  0  0  0  0  0  0  0
  3  1  1  0
  3  2  1  0
M  END
>  <NAME>  (2198) 
DIMETHYLAMINE

>  <SYNONYMS>  (2198) 


>  <SPECTRUM TYPE>  (2198) 
MS1

>  <INSTRUMENT TYPE>  (2198) 
EI-B

>  <INSTRUMENT>  (2198) 
HITACHI M-80B

>  <ION MODE>  (2198) 
P

>  <INCHIKEY>  (2198) 
ROSDSFDQCJNGOL-UHFFFAOYSA-N

>  <FORMULA>  (2198) 
C2H7N

>  <EXACT MASS>  (2198) 
45.057849223999995

>  <MW>  (2198) 
45

>  <ID>  (2198) 
JP009051

>  <CONTRIBUTOR>  (2198) 
University of Tokyo Team, {Faculty of Engineering, University of Tokyo

>  <COMMENT>  (2198) 
SMILES=CNC
cas=124-40-3
InChI=InChI=1S/C2H7N/c1-3-2/h3H,1-2H3
computed SMILES=N(C)C
accession=JP009051
date=2016.01.19 (Created 2008.10.21, modified 2011.05.06)
author=SODA AROMATIC CO., LTD.
license=CC BY-NC-SA
exact mass=45.05785
ionization energy=70 eV
ion type=[M]+*
computed spectral entropy=1.6011701856094496
computed normalized entropy=0.6242502141227794
SPLASH=splash10-0006-9000000000-cfb8e10b3b28eba99793
submitter=submitter = University of Tokyo Team (Faculty of Engineering, University of Tokyo)
MoNA Rating=3.75

>  <NUM PEAKS>  (2198) 
13

>  <MASS SPECTRAL PEAKS>  (2198) 
15 3.57
29 2.34
30 6.84
31 1.95
38 1.27
39 1.84
40 4.81
41 4.04
42 14.42
43 12.26
44 99.99
45 57.57
46 1.86

$$$$

     RDKit          2D

  6  5  0  0  0  0  0  0  0  0999 V2000
    1.2990    3.0000    0.0000 C   0  0  0  0  0  0  0  0  0  0  0  0
    0.0000    3.7500    0.0000 C   0  0  0  0  0  0  0  0  0  0  0  0
   -1.2990    3.0000    0.0000 C   0  0  0  0  0  0  0  0  0  0  0  0
   -3.8971    3.0000    0.0000 C   0  0  0  0  0  0  0  0  0  0  0  0
   -2.5981    3.7500    0.0000 N   0  0  0  0  0  0  0  0  0  0  0  0
   -5.1962    2.2500    0.0000 S   0  0  0  0  0  0  0  0  0  0  0  0
  2  1  2  0
  3  2  1  0
  5  3  1  0
  5  4  2  0
  6  4  2  0
M  END
>  <NAME>  (2199) 
ALLYL ISOTHIOCYANATE

>  <SYNONYMS>  (2199) 


>  <SPECTRUM TYPE>  (2199) 
MS1

>  <INSTRUMENT TYPE>  (2199) 
EI-B

>  <INSTRUMENT>  (2199) 
HITACHI M-80B

>  <ION MODE>  (2199) 
P

>  <INCHIKEY>  (2199) 
ZOJBYZNEUISWFT-UHFFFAOYSA-N

>  <FORMULA>  (2199) 
C4H5NS

>  <EXACT MASS>  (2199) 
99.01427016

>  <MW>  (2199) 
99

>  <ID>  (2199) 
JP009050

>  <CONTRIBUTOR>  (2199) 
University of Tokyo Team, {Faculty of Engineering, University of Tokyo

>  <COMMENT>  (2199) 
SMILES=C=CCN=C=S
cas=57-06-7
InChI=InChI=1S/C4H5NS/c1-2-3-5-4-6/h2H,1,3H2
computed SMILES=S=C=NCC=C
accession=JP009050
date=2016.01.19 (Created 2008.10.21, modified 2011.05.06)
author=SODA AROMATIC CO., LTD.
license=CC BY-NC-SA
exact mass=99.01427
ionization energy=70 eV
ion type=[M]+*
computed spectral entropy=2.332314014498832
computed normalized entropy=0.7076545682694505
SPLASH=splash10-000e-9000000000-74e6764518eaef9083ea
submitter=submitter = University of Tokyo Team (Faculty of Engineering, University of Tokyo)
MoNA Rating=3.75

>  <NUM PEAKS>  (2199) 
27

>  <MASS SPECTRAL PEAKS>  (2199) 
32 4.01
37 6.63
38 12.07
39 76.42
40 8.02
41 88.01
42 2.76
44 7.9
45 12.31
46 1.91
51 1.24
52 1.23
54 1.14
58 5.94
59 5.73
60 2.06
67 1.18
69 1.47
70 7.97
71 9.66
72 31.94
73 1.56
74 1.09
98 5.83
99 99.99
100 5.78
101 4.48

$$$$

     RDKit          2D

 10 10  0  0  0  0  0  0  0  0999 V2000
    5.8815   -0.8855    0.0000 C   0  0  0  0  0  0  0  0  0  0  0  0
    4.7678    0.1193    0.0000 C   0  0  0  0  0  0  0  0  0  0  0  0
   -1.1700   -1.2200    0.0000 C   0  0  0  0  0  0  0  0  0  0  0  0
    0.3300   -1.2200    0.0000 C   0  0  0  0  0  0  0  0  0  0  0  0
   -1.6300    0.2000    0.0000 C   0  0  0  0  0  0  0  0  0  0  0  0
    0.8000    0.2000    0.0000 C   0  0  0  0  0  0  0  0  0  0  0  0
    2.2271    0.6621    0.0000 C   0  0  0  0  0  0  0  0  0  0  0  0
    2.5404    2.1290    0.0000 O   0  0  0  0  0  0  0  0  0  0  0  0
    3.3407   -0.3428    0.0000 O   0  0  0  0  0  0  0  0  0  0  0  0
   -0.4200    1.0800    0.0000 O   0  0  0  0  0  0  0  0  0  0  0  0
  2  1  1  0
  4  3  1  0
  5  3  2  0
  6  4  2  0
  7  6  1  0
  8  7  2  0
  9  2  1  0
  9  7  1  0
 10  5  1  0
 10  6  1  0
M  END
>  <NAME>  (2200) 
ETHYL 2-FUROATE

>  <SYNONYMS>  (2200) 


>  <SPECTRUM TYPE>  (2200) 
MS1

>  <INSTRUMENT TYPE>  (2200) 
EI-B

>  <INSTRUMENT>  (2200) 
HITACHI M-80B

>  <ION MODE>  (2200) 
P

>  <INCHIKEY>  (2200) 
NHXSTXWKZVAVOQ-UHFFFAOYSA-N

>  <FORMULA>  (2200) 
C7H8O3

>  <EXACT MASS>  (2200) 
140.04734411599998

>  <MW>  (2200) 
140

>  <ID>  (2200) 
JP009049

>  <CONTRIBUTOR>  (2200) 
University of Tokyo Team, {Faculty of Engineering, University of Tokyo

>  <COMMENT>  (2200) 
SMILES=CCOC(=O)c(c1)occ1
cas=614-99-3
InChI=InChI=1S/C7H8O3/c1-2-9-7(8)6-4-3-5-10-6/h3-5H,2H2,1H3
computed SMILES=O=C(OCC)C=1OC=CC1
accession=JP009049
date=2016.01.19 (Created 2008.10.21, modified 2011.05.06)
author=SODA AROMATIC CO., LTD.
license=CC BY-NC-SA
exact mass=140.04734
ionization energy=70 eV
ion type=[M]+*
computed spectral entropy=2.13953697909862
computed normalized entropy=0.7027496176702457
SPLASH=splash10-0002-9200000000-5c100f35c0f33369946d
submitter=submitter = University of Tokyo Team (Faculty of Engineering, University of Tokyo)
MoNA Rating=3.75

>  <NUM PEAKS>  (2200) 
21

>  <MASS SPECTRAL PEAKS>  (2200) 
26 1.7
27 7.41
29 8.47
37 2.7
38 8.22
39 25.04
41 1.11
42 1.03
45 4.49
53 1.33
66 1.19
67 2.23
68 10.31
84 2.63
95 99.99
96 17.07
97 1.79
112 40.8
113 2.42
140 18.31
141 1.25

$$$$

     RDKit          2D

  9  9  0  0  0  0  0  0  0  0999 V2000
    4.7678    0.1193    0.0000 C   0  0  0  0  0  0  0  0  0  0  0  0
   -1.1700   -1.2200    0.0000 C   0  0  0  0  0  0  0  0  0  0  0  0
    0.3300   -1.2200    0.0000 C   0  0  0  0  0  0  0  0  0  0  0  0
   -1.6300    0.2000    0.0000 C   0  0  0  0  0  0  0  0  0  0  0  0
    0.8000    0.2000    0.0000 C   0  0  0  0  0  0  0  0  0  0  0  0
    2.2271    0.6621    0.0000 C   0  0  0  0  0  0  0  0  0  0  0  0
    2.5404    2.1290    0.0000 O   0  0  0  0  0  0  0  0  0  0  0  0
    3.3407   -0.3428    0.0000 O   0  0  0  0  0  0  0  0  0  0  0  0
   -0.4200    1.0800    0.0000 O   0  0  0  0  0  0  0  0  0  0  0  0
  3  2  1  0
  4  2  2  0
  5  3  2  0
  6  5  1  0
  7  6  2  0
  8  1  1  0
  8  6  1  0
  9  4  1  0
  9  5  1  0
M  END
>  <NAME>  (2201) 
METHYL 2-FUROATE

>  <SYNONYMS>  (2201) 


>  <SPECTRUM TYPE>  (2201) 
MS1

>  <INSTRUMENT TYPE>  (2201) 
EI-B

>  <INSTRUMENT>  (2201) 
HITACHI M-80B

>  <ION MODE>  (2201) 
P

>  <INCHIKEY>  (2201) 
HDJLSECJEQSPKW-UHFFFAOYSA-N

>  <FORMULA>  (2201) 
C6H6O3

>  <EXACT MASS>  (2201) 
126.03169405199999

>  <MW>  (2201) 
126

>  <ID>  (2201) 
JP009048

>  <CONTRIBUTOR>  (2201) 
University of Tokyo Team, {Faculty of Engineering, University of Tokyo

>  <COMMENT>  (2201) 
SMILES=COC(=O)c(c1)occ1
cas=611-13-2
InChI=InChI=1S/C6H6O3/c1-8-6(7)5-3-2-4-9-5/h2-4H,1H3
computed SMILES=O=C(OC)C=1OC=CC1
accession=JP009048
date=2016.01.19 (Created 2008.10.21, modified 2011.05.06)
author=SODA AROMATIC CO., LTD.
license=CC BY-NC-SA
exact mass=126.03169
ionization energy=70 eV
ion type=[M]+*
computed spectral entropy=1.8335993466855394
computed normalized entropy=0.6343818374492333
SPLASH=splash10-0002-9100000000-aa000da7d8c856d2def3
submitter=submitter = University of Tokyo Team (Faculty of Engineering, University of Tokyo)
MoNA Rating=3.75

>  <NUM PEAKS>  (2201) 
18

>  <MASS SPECTRAL PEAKS>  (2201) 
15 3.37
27 1.38
29 5.15
37 4.69
38 10.65
39 23.92
41 1.08
51 1
53 1.76
59 1.24
66 1.32
67 3.02
68 4.72
81 1.03
95 99.99
96 9.02
126 34.53
127 2.18

$$$$

     RDKit          2D

 11 11  0  0  0  0  0  0  0  0999 V2000
    7.3934    0.5249    0.0000 C   0  0  0  0  0  0  0  0  0  0  0  0
    6.0936   -0.2237    0.0000 C   0  0  0  0  0  0  0  0  0  0  0  0
   -0.7342   -2.0170    0.0000 C   0  0  0  0  0  0  0  0  0  0  0  0
    0.7330   -1.7051    0.0000 C   0  0  0  0  0  0  0  0  0  0  0  0
    4.7954    0.5276    0.0000 C   0  0  0  0  0  0  0  0  0  0  0  0
   -1.4794   -0.7237    0.0000 C   0  0  0  0  0  0  0  0  0  0  0  0
    0.8975   -0.2184    0.0000 C   0  0  0  0  0  0  0  0  0  0  0  0
    2.1973    0.5302    0.0000 C   0  0  0  0  0  0  0  0  0  0  0  0
    2.1988    2.0302    0.0000 O   0  0  0  0  0  0  0  0  0  0  0  0
   -0.4788    0.3887    0.0000 O   0  0  0  0  0  0  0  0  0  0  0  0
    3.4955   -0.2211    0.0000 O   0  0  0  0  0  0  0  0  0  0  0  0
  2  1  2  0
  4  3  1  0
  5  2  1  0
  6  3  2  0
  7  4  2  0
  8  7  1  0
  9  8  2  0
 10  6  1  0
 10  7  1  0
 11  5  1  0
 11  8  1  0
M  END
>  <NAME>  (2202) 
ALLYL 2-FUROATE

>  <SYNONYMS>  (2202) 


>  <SPECTRUM TYPE>  (2202) 
MS1

>  <INSTRUMENT TYPE>  (2202) 
EI-B

>  <INSTRUMENT>  (2202) 
HITACHI M-80B

>  <ION MODE>  (2202) 
P

>  <INCHIKEY>  (2202) 
SJRQTHAMRUOPBJ-UHFFFAOYSA-N

>  <FORMULA>  (2202) 
C8H8O3

>  <EXACT MASS>  (2202) 
152.04734411599998

>  <MW>  (2202) 
152

>  <ID>  (2202) 
JP009047

>  <CONTRIBUTOR>  (2202) 
University of Tokyo Team, {Faculty of Engineering, University of Tokyo

>  <COMMENT>  (2202) 
SMILES=C=CCOC(=O)c(c1)occ1
cas=4208-49-5
InChI=InChI=1S/C8H8O3/c1-2-5-11-8(9)7-4-3-6-10-7/h2-4,6H,1,5H2
computed SMILES=O=C(OCC=C)C=1OC=CC1
accession=JP009047
date=2016.01.19 (Created 2008.10.21, modified 2011.05.06)
author=SODA AROMATIC CO., LTD.
license=CC BY-NC-SA
exact mass=152.04734
ionization energy=70 eV
ion type=[M]+*
computed spectral entropy=1.9480203352156145
computed normalized entropy=0.6212801558743594
SPLASH=splash10-0002-9000000000-1ca056e42ef08abc1140
submitter=submitter = University of Tokyo Team (Faculty of Engineering, University of Tokyo)
MoNA Rating=3.75

>  <NUM PEAKS>  (2202) 
23

>  <MASS SPECTRAL PEAKS>  (2202) 
26 1.24
27 3.26
29 2.54
37 2.23
38 6.06
39 26.3
41 12.8
53 1.02
57 2.33
66 1.12
67 1.65
68 4.97
77 1.07
79 3.84
80 1.11
81 1.08
95 99.99
96 7.66
107 1.09
108 3.41
112 1.2
123 1.89
152 8.38

$$$$

     RDKit          2D

 13 13  0  0  0  0  0  0  0  0999 V2000
    9.9412    0.2499    0.0000 C   0  0  0  0  0  0  0  0  0  0  0  0
    8.6414   -0.4987    0.0000 C   0  0  0  0  0  0  0  0  0  0  0  0
   -0.7846   -2.2893    0.0000 C   0  0  0  0  0  0  0  0  0  0  0  0
    0.6827   -1.9774    0.0000 C   0  0  0  0  0  0  0  0  0  0  0  0
    2.1470    0.2579    0.0000 C   0  0  0  0  0  0  0  0  0  0  0  0
    3.4452   -0.4934    0.0000 C   0  0  0  0  0  0  0  0  0  0  0  0
    7.3431    0.2526    0.0000 C   0  0  0  0  0  0  0  0  0  0  0  0
   -1.5297   -0.9960    0.0000 C   0  0  0  0  0  0  0  0  0  0  0  0
    0.8472   -0.4908    0.0000 C   0  0  0  0  0  0  0  0  0  0  0  0
    4.7450    0.2553    0.0000 C   0  0  0  0  0  0  0  0  0  0  0  0
    4.7466    1.7553    0.0000 O   0  0  0  0  0  0  0  0  0  0  0  0
   -0.5291    0.1164    0.0000 O   0  0  0  0  0  0  0  0  0  0  0  0
    6.0433   -0.4961    0.0000 O   0  0  0  0  0  0  0  0  0  0  0  0
  2  1  1  0
  4  3  1  0
  5  6  2  0
  7  2  1  0
  8  3  2  0
  9  4  2  0
  9  5  1  0
 10  6  1  0
 11 10  2  0
 12  8  1  0
 12  9  1  0
 13  7  1  0
 13 10  1  0
M  END
>  <NAME>  (2203) 
PROPYL 3-(2-FURYL)ACRYLATE

>  <SYNONYMS>  (2203) 


>  <SPECTRUM TYPE>  (2203) 
MS1

>  <INSTRUMENT TYPE>  (2203) 
EI-B

>  <INSTRUMENT>  (2203) 
HITACHI M-80B

>  <ION MODE>  (2203) 
P

>  <INCHIKEY>  (2203) 
RRFBKGHLBNBFGL-AATRIKPKSA-N

>  <FORMULA>  (2203) 
C10H12O3

>  <EXACT MASS>  (2203) 
180.07864424399997

>  <MW>  (2203) 
180

>  <ID>  (2203) 
JP009046

>  <CONTRIBUTOR>  (2203) 
University of Tokyo Team, {Faculty of Engineering, University of Tokyo

>  <COMMENT>  (2203) 
SMILES=CCCOC(=O)C=Cc(c1)occ1
InChI=InChI=1S/C10H12O3/c1-2-7-13-10(11)6-5-9-4-3-8-12-9/h3-6,8H,2,7H2,1H3/b6-5+
computed SMILES=O=C(OCCC)C=CC=1OC=CC1
accession=JP009046
date=2016.01.19 (Created 2008.10.21, modified 2011.05.06)
author=SODA AROMATIC CO., LTD.
license=CC BY-NC-SA
exact mass=180.07864
ionization energy=70 eV
ion type=[M]+*
computed spectral entropy=2.819644053794802
computed normalized entropy=0.7496660552651456
SPLASH=splash10-00dr-6900000000-84d4b50350f22c04ed86
submitter=submitter = University of Tokyo Team (Faculty of Engineering, University of Tokyo)
MoNA Rating=3.75

>  <NUM PEAKS>  (2203) 
43

>  <MASS SPECTRAL PEAKS>  (2203) 
26 1.38
27 4.91
28 12.76
29 3.27
31 5.76
32 7.12
38 2.49
39 14.15
41 4.53
42 2.83
43 4.34
44 1.1
53 1.64
54 1.08
55 1.84
58 1.29
59 2.02
60 1.03
62 1.21
63 6.29
64 3.67
65 27.72
66 6.96
81 2.76
82 4.19
84 1.31
92 6.1
93 4.16
94 19.3
95 1.89
96 1.25
109 2.16
110 9.94
111 1.17
120 1.26
121 99.99
122 6.93
123 1.18
138 62.2
139 4.64
151 1.81
180 28.34
181 2.79

$$$$

     RDKit          2D

 12 12  0  0  0  0  0  0  0  0999 V2000
   -1.8335    0.5083    0.0000 C   0  0  0  0  0  0  0  0  0  0  0  0
   -0.5353   -0.2431    0.0000 C   0  0  0  0  0  0  0  0  0  0  0  0
    7.5924    2.2989    0.0000 C   0  0  0  0  0  0  0  0  0  0  0  0
    6.1252    1.9870    0.0000 C   0  0  0  0  0  0  0  0  0  0  0  0
    4.6609   -0.2484    0.0000 C   0  0  0  0  0  0  0  0  0  0  0  0
    3.3626    0.5030    0.0000 C   0  0  0  0  0  0  0  0  0  0  0  0
    8.3376    1.0055    0.0000 C   0  0  0  0  0  0  0  0  0  0  0  0
    5.9607    0.5003    0.0000 C   0  0  0  0  0  0  0  0  0  0  0  0
    2.0628   -0.2457    0.0000 C   0  0  0  0  0  0  0  0  0  0  0  0
    2.0613   -1.7457    0.0000 O   0  0  0  0  0  0  0  0  0  0  0  0
    0.7645    0.5056    0.0000 O   0  0  0  0  0  0  0  0  0  0  0  0
    7.3370   -0.1068    0.0000 O   0  0  0  0  0  0  0  0  0  0  0  0
  2  1  1  0
  4  3  1  0
  5  6  2  0
  7  3  2  0
  8  4  2  0
  8  5  1  0
  9  6  1  0
 10  9  2  0
 11  2  1  0
 11  9  1  0
 12  7  1  0
 12  8  1  0
M  END
>  <NAME>  (2204) 
ETHYL 3-(2-FURYL)ACRYLATE

>  <SYNONYMS>  (2204) 


>  <SPECTRUM TYPE>  (2204) 
MS1

>  <INSTRUMENT TYPE>  (2204) 
EI-B

>  <INSTRUMENT>  (2204) 
HITACHI M-80B

>  <ION MODE>  (2204) 
P

>  <INCHIKEY>  (2204) 
MWZBTMXISMOMAE-AATRIKPKSA-N

>  <FORMULA>  (2204) 
C9H10O3

>  <EXACT MASS>  (2204) 
166.06299417999998

>  <MW>  (2204) 
166

>  <ID>  (2204) 
JP009045

>  <CONTRIBUTOR>  (2204) 
University of Tokyo Team, {Faculty of Engineering, University of Tokyo

>  <COMMENT>  (2204) 
SMILES=CCOC(=O)C=Cc(c1)occ1
InChI=InChI=1S/C9H10O3/c1-2-11-9(10)6-5-8-4-3-7-12-8/h3-7H,2H2,1H3/b6-5+
computed SMILES=O=C(OCC)C=CC=1OC=CC1
accession=JP009045
date=2016.01.19 (Created 2008.10.21, modified 2011.05.06)
author=SODA AROMATIC CO., LTD.
license=CC BY-NC-SA
exact mass=166.06299
ionization energy=70 eV
ion type=[M]+*
computed spectral entropy=2.639540373041738
computed normalized entropy=0.7485168786957901
SPLASH=splash10-00xr-6900000000-4b5cde75189715149acf
submitter=submitter = University of Tokyo Team (Faculty of Engineering, University of Tokyo)
MoNA Rating=3.75

>  <NUM PEAKS>  (2204) 
34

>  <MASS SPECTRAL PEAKS>  (2204) 
26 1.05
27 3.5
29 5.21
31 1.77
32 2.39
38 2.92
39 17.53
43 1.27
45 1.62
51 1.32
53 2.05
55 2.39
62 2.36
63 9.57
64 4.11
65 33.29
66 6.75
81 2.91
82 4
84 1.08
92 7.05
93 4.49
94 26.81
95 1.87
109 4.66
110 11.44
120 1.31
121 99.99
122 6.73
137 1.27
138 26.97
139 1.79
166 44.27
167 3.47

$$$$

     RDKit          2D

 16 17  0  0  0  0  0  0  0  0999 V2000
   10.0025    1.7233    0.0000 C   0  0  0  0  0  0  0  0  0  0  0  0
    8.7037    2.4754    0.0000 C   0  0  0  0  0  0  0  0  0  0  0  0
   10.0014    0.2225    0.0000 C   0  0  0  0  0  0  0  0  0  0  0  0
   -0.7248   -2.3160    0.0000 C   0  0  0  0  0  0  0  0  0  0  0  0
    7.4039    1.7268    0.0000 C   0  0  0  0  0  0  0  0  0  0  0  0
    8.7016   -0.5262    0.0000 C   0  0  0  0  0  0  0  0  0  0  0  0
    0.7424   -2.0041    0.0000 C   0  0  0  0  0  0  0  0  0  0  0  0
    6.1031   -0.5227    0.0000 C   0  0  0  0  0  0  0  0  0  0  0  0
   -1.4700   -1.0226    0.0000 C   0  0  0  0  0  0  0  0  0  0  0  0
    4.8048    0.2286    0.0000 C   0  0  0  0  0  0  0  0  0  0  0  0
    7.4029    0.2259    0.0000 C   0  0  0  0  0  0  0  0  0  0  0  0
    0.9069   -0.5174    0.0000 C   0  0  0  0  0  0  0  0  0  0  0  0
    2.2067    0.2313    0.0000 C   0  0  0  0  0  0  0  0  0  0  0  0
    2.2082    1.7313    0.0000 O   0  0  0  0  0  0  0  0  0  0  0  0
   -0.4694    0.0897    0.0000 O   0  0  0  0  0  0  0  0  0  0  0  0
    3.5050   -0.5201    0.0000 O   0  0  0  0  0  0  0  0  0  0  0  0
  2  1  2  0
  3  1  1  0
  5  2  1  0
  6  3  2  0
  7  4  1  0
  9  4  2  0
 10  8  1  0
 11  5  2  0
 11  6  1  0
 11  8  1  0
 12  7  2  0
 13 12  1  0
 14 13  2  0
 15  9  1  0
 15 12  1  0
 16 10  1  0
 16 13  1  0
M  END
>  <NAME>  (2205) 
PHENYLETHYL 2-FUROATE

>  <SYNONYMS>  (2205) 


>  <SPECTRUM TYPE>  (2205) 
MS1

>  <INSTRUMENT TYPE>  (2205) 
EI-B

>  <INSTRUMENT>  (2205) 
HITACHI M-80B

>  <ION MODE>  (2205) 
P

>  <INCHIKEY>  (2205) 
QKPSYARWSBJEDY-UHFFFAOYSA-N

>  <FORMULA>  (2205) 
C13H12O3

>  <EXACT MASS>  (2205) 
216.07864424399997

>  <MW>  (2205) 
216

>  <ID>  (2205) 
JP009044

>  <CONTRIBUTOR>  (2205) 
University of Tokyo Team, {Faculty of Engineering, University of Tokyo

>  <COMMENT>  (2205) 
SMILES=O=C(OCCc(c2)cccc2)c(c1)occ1
InChI=InChI=1S/C13H12O3/c14-13(12-7-4-9-15-12)16-10-8-11-5-2-1-3-6-11/h1-7,9H,8,10H2
computed SMILES=O=C(OCCC=1C=CC=CC1)C=2OC=CC2
accession=JP009044
date=2016.01.19 (Created 2008.10.21, modified 2011.05.06)
author=SODA AROMATIC CO., LTD.
license=CC BY-NC-SA
exact mass=216.07864
ionization energy=70 eV
ion type=[M]+*
computed spectral entropy=1.9001606667108513
computed normalized entropy=0.6574104737633939
SPLASH=splash10-0udj-8900000000-25d5d3ade6100e5acda9
submitter=submitter = University of Tokyo Team (Faculty of Engineering, University of Tokyo)
MoNA Rating=3.75

>  <NUM PEAKS>  (2205) 
18

>  <MASS SPECTRAL PEAKS>  (2205) 
27 1.66
38 2.49
39 17.01
50 1.11
51 4.96
52 1.09
63 1.44
65 5.07
67 1.42
77 6.44
78 4.33
79 2.44
91 10.42
95 51.89
96 2.44
103 4.78
104 99.99
105 12.33

$$$$

     RDKit          2D

 14 14  0  0  0  0  0  0  0  0999 V2000
   11.2516   -0.6172    0.0000 C   0  0  0  0  0  0  0  0  0  0  0  0
    9.9534    0.1342    0.0000 C   0  0  0  0  0  0  0  0  0  0  0  0
    8.6535   -0.6145    0.0000 C   0  0  0  0  0  0  0  0  0  0  0  0
    7.3553    0.1368    0.0000 C   0  0  0  0  0  0  0  0  0  0  0  0
    6.0555   -0.6118    0.0000 C   0  0  0  0  0  0  0  0  0  0  0  0
   -0.7724   -2.4051    0.0000 C   0  0  0  0  0  0  0  0  0  0  0  0
    0.6948   -2.0932    0.0000 C   0  0  0  0  0  0  0  0  0  0  0  0
    4.7572    0.1395    0.0000 C   0  0  0  0  0  0  0  0  0  0  0  0
   -1.5176   -1.1118    0.0000 C   0  0  0  0  0  0  0  0  0  0  0  0
    0.8593   -0.6065    0.0000 C   0  0  0  0  0  0  0  0  0  0  0  0
    2.1591    0.1421    0.0000 C   0  0  0  0  0  0  0  0  0  0  0  0
    2.1607    1.6421    0.0000 O   0  0  0  0  0  0  0  0  0  0  0  0
   -0.5170    0.0006    0.0000 O   0  0  0  0  0  0  0  0  0  0  0  0
    3.4574   -0.6092    0.0000 O   0  0  0  0  0  0  0  0  0  0  0  0
  2  1  1  0
  3  2  1  0
  4  3  1  0
  5  4  1  0
  7  6  1  0
  8  5  1  0
  9  6  2  0
 10  7  2  0
 11 10  1  0
 12 11  2  0
 13  9  1  0
 13 10  1  0
 14  8  1  0
 14 11  1  0
M  END
>  <NAME>  (2206) 
HEXYL 2-FUROATE

>  <SYNONYMS>  (2206) 


>  <SPECTRUM TYPE>  (2206) 
MS1

>  <INSTRUMENT TYPE>  (2206) 
EI-B

>  <INSTRUMENT>  (2206) 
HITACHI M-80B

>  <ION MODE>  (2206) 
P

>  <INCHIKEY>  (2206) 
KMLFVAGUWNPADU-UHFFFAOYSA-N

>  <FORMULA>  (2206) 
C11H16O3

>  <EXACT MASS>  (2206) 
196.10994437199997

>  <MW>  (2206) 
196

>  <ID>  (2206) 
JP009043

>  <CONTRIBUTOR>  (2206) 
University of Tokyo Team, {Faculty of Engineering, University of Tokyo

>  <COMMENT>  (2206) 
SMILES=CCCCCCOC(=O)c(c1)occ1
InChI=InChI=1S/C11H16O3/c1-2-3-4-5-8-14-11(12)10-7-6-9-13-10/h6-7,9H,2-5,8H2,1H3
computed SMILES=O=C(OCCCCCC)C=1OC=CC1
accession=JP009043
date=2016.01.19 (Created 2008.10.21, modified 2011.05.06)
author=SODA AROMATIC CO., LTD.
license=CC BY-NC-SA
exact mass=196.10994
ionization energy=70 eV
ion type=[M]+*
computed spectral entropy=2.5288153570055707
computed normalized entropy=0.7672756449476068
SPLASH=splash10-03dj-9500000000-d4f648bf12a127d40665
submitter=submitter = University of Tokyo Team (Faculty of Engineering, University of Tokyo)
MoNA Rating=3.75

>  <NUM PEAKS>  (2206) 
27

>  <MASS SPECTRAL PEAKS>  (2206) 
27 9.93
29 9.02
37 1.16
38 5.24
39 28.46
41 20.19
42 12.55
43 18.73
53 1.91
54 1.37
55 19.81
56 22.9
57 1.99
66 1.3
67 3.63
68 4.35
69 9.37
83 1.78
84 8.84
95 99.99
96 7.27
97 1.17
112 63.97
113 96.6
114 5.93
196 9.98
197 1.21

$$$$

     RDKit          2D

 11 11  0  0  0  0  0  0  0  0999 V2000
    7.3934    0.5249    0.0000 C   0  0  0  0  0  0  0  0  0  0  0  0
    6.0936   -0.2237    0.0000 C   0  0  0  0  0  0  0  0  0  0  0  0
   -0.7342   -2.0170    0.0000 C   0  0  0  0  0  0  0  0  0  0  0  0
    0.7330   -1.7051    0.0000 C   0  0  0  0  0  0  0  0  0  0  0  0
    4.7954    0.5276    0.0000 C   0  0  0  0  0  0  0  0  0  0  0  0
   -1.4794   -0.7237    0.0000 C   0  0  0  0  0  0  0  0  0  0  0  0
    0.8975   -0.2184    0.0000 C   0  0  0  0  0  0  0  0  0  0  0  0
    2.1973    0.5302    0.0000 C   0  0  0  0  0  0  0  0  0  0  0  0
    2.1988    2.0302    0.0000 O   0  0  0  0  0  0  0  0  0  0  0  0
   -0.4788    0.3887    0.0000 O   0  0  0  0  0  0  0  0  0  0  0  0
    3.4955   -0.2211    0.0000 O   0  0  0  0  0  0  0  0  0  0  0  0
  2  1  1  0
  4  3  1  0
  5  2  1  0
  6  3  2  0
  7  4  2  0
  8  7  1  0
  9  8  2  0
 10  6  1  0
 10  7  1  0
 11  5  1  0
 11  8  1  0
M  END
>  <NAME>  (2207) 
PROPYL 2-FUROATE

>  <SYNONYMS>  (2207) 


>  <SPECTRUM TYPE>  (2207) 
MS1

>  <INSTRUMENT TYPE>  (2207) 
EI-B

>  <INSTRUMENT>  (2207) 
HITACHI M-80B

>  <ION MODE>  (2207) 
P

>  <INCHIKEY>  (2207) 
HSCVIIISAAEVQT-UHFFFAOYSA-N

>  <FORMULA>  (2207) 
C8H10O3

>  <EXACT MASS>  (2207) 
154.06299417999998

>  <MW>  (2207) 
154

>  <ID>  (2207) 
JP009042

>  <CONTRIBUTOR>  (2207) 
University of Tokyo Team, {Faculty of Engineering, University of Tokyo

>  <COMMENT>  (2207) 
computed SMILES=O=C(OCCC)C=1OC=CC1
SMILES=CCCOC(=O)c(c1)occ1
cas=615-10-1
InChI=InChI=1S/C8H10O3/c1-2-5-11-8(9)7-4-3-6-10-7/h3-4,6H,2,5H2,1H3
accession=JP009042
date=2016.01.19 (Created 2008.10.21, modified 2011.05.06)
author=SODA AROMATIC CO., LTD.
license=CC BY-NC-SA
exact mass=154.06299
ionization energy=70 eV
ion type=[M]+*
computed spectral entropy=2.1397115220131004
computed normalized entropy=0.6922297426515039
SPLASH=splash10-01ot-9400000000-b53ecd36fdd710dc8fbd
submitter=submitter = University of Tokyo Team (Faculty of Engineering, University of Tokyo)
MoNA Rating=3.75

>  <NUM PEAKS>  (2207) 
22

>  <MASS SPECTRAL PEAKS>  (2207) 
26 1.21
27 8.4
29 3.2
37 1.96
38 7.01
39 26.54
41 8.47
42 2.1
43 4.64
53 1.05
59 2.8
66 1.17
67 2.27
68 3.5
84 2.92
95 99.99
96 9.33
97 1.51
112 61.1
113 18.14
114 1.12
154 10.37

$$$$

     RDKit          2D

  8  8  0  0  0  0  0  0  0  0999 V2000
    3.5281    0.5404    0.0000 C   0  0  0  0  0  0  0  0  0  0  0  0
    2.2289    1.2902    0.0000 C   0  0  0  0  0  0  0  0  0  0  0  0
   -1.6700   -0.9600    0.0000 C   0  0  0  0  0  0  0  0  0  0  0  0
   -1.6700    0.5400    0.0000 C   0  0  0  0  0  0  0  0  0  0  0  0
    0.9300   -0.9600    0.0000 C   0  0  0  0  0  0  0  0  0  0  0  0
    0.9300    0.5400    0.0000 C   0  0  0  0  0  0  0  0  0  0  0  0
   -0.3700   -1.7100    0.0000 N   0  0  0  0  0  0  0  0  0  0  0  0
   -0.3700    1.2900    0.0000 N   0  0  0  0  0  0  0  0  0  0  0  0
  2  1  1  0
  4  3  2  0
  6  2  1  0
  6  5  1  0
  7  3  1  0
  7  5  2  0
  8  4  1  0
  8  6  2  0
M  END
>  <NAME>  (2208) 
2-ETHYLPYRAZINE

>  <SYNONYMS>  (2208) 


>  <SPECTRUM TYPE>  (2208) 
MS1

>  <INSTRUMENT TYPE>  (2208) 
EI-B

>  <INSTRUMENT>  (2208) 
HITACHI M-80B

>  <ION MODE>  (2208) 
P

>  <INCHIKEY>  (2208) 
KVFIJIWMDBAGDP-UHFFFAOYSA-N

>  <FORMULA>  (2208) 
C6H8N2

>  <EXACT MASS>  (2208) 
108.06874825599999

>  <MW>  (2208) 
108

>  <ID>  (2208) 
JP009041

>  <CONTRIBUTOR>  (2208) 
University of Tokyo Team, {Faculty of Engineering, University of Tokyo

>  <COMMENT>  (2208) 
SMILES=CCc(c1)nccn1
cas=13925-00-3
InChI=InChI=1S/C6H8N2/c1-2-6-5-7-3-4-8-6/h3-5H,2H2,1H3
computed SMILES=N=1C=CN=C(C1)CC
exact mass=108.06875
accession=JP009041
date=2016.01.19 (Created 2008.10.21, modified 2011.05.06)
author=SODA AROMATIC CO., LTD.
license=CC BY-NC-SA
ionization energy=70 eV
ion type=[M]+*
computed spectral entropy=2.6137465813482565
computed normalized entropy=0.7930448889349924
SPLASH=splash10-0a4i-9700000000-f6a542b90b45a0c8ac2d
submitter=submitter = University of Tokyo Team (Faculty of Engineering, University of Tokyo)
MoNA Rating=3.75

>  <NUM PEAKS>  (2208) 
27

>  <MASS SPECTRAL PEAKS>  (2208) 
26 16.46
27 12.33
28 13.59
29 1.97
37 1.95
38 6.04
39 18.45
40 6.01
41 5.59
42 1.99
50 4.24
51 8.35
52 20.09
53 20.93
54 8.4
55 4.03
56 9.98
64 1.19
65 1.03
66 4.2
79 5.07
80 25.33
81 9.67
93 1.78
107 99.99
108 68.84
109 5.06

$$$$

     RDKit          2D

  7  7  0  0  0  0  0  0  0  0999 V2000
    2.2289    1.2902    0.0000 C   0  0  0  0  0  0  0  0  0  0  0  0
   -1.6700   -0.9600    0.0000 C   0  0  0  0  0  0  0  0  0  0  0  0
   -1.6700    0.5400    0.0000 C   0  0  0  0  0  0  0  0  0  0  0  0
    0.9300   -0.9600    0.0000 C   0  0  0  0  0  0  0  0  0  0  0  0
    0.9300    0.5400    0.0000 C   0  0  0  0  0  0  0  0  0  0  0  0
   -0.3700   -1.7100    0.0000 N   0  0  0  0  0  0  0  0  0  0  0  0
   -0.3700    1.2900    0.0000 N   0  0  0  0  0  0  0  0  0  0  0  0
  3  2  2  0
  5  1  1  0
  5  4  1  0
  6  2  1  0
  6  4  2  0
  7  3  1  0
  7  5  2  0
M  END
>  <NAME>  (2209) 
2-METHYLPYRAZINE

>  <SYNONYMS>  (2209) 


>  <SPECTRUM TYPE>  (2209) 
MS1

>  <INSTRUMENT TYPE>  (2209) 
EI-B

>  <INSTRUMENT>  (2209) 
HITACHI M-80B

>  <ION MODE>  (2209) 
P

>  <INCHIKEY>  (2209) 
CAWHJQAVHZEVTJ-UHFFFAOYSA-N

>  <FORMULA>  (2209) 
C5H6N2

>  <EXACT MASS>  (2209) 
94.053098192

>  <MW>  (2209) 
94

>  <ID>  (2209) 
JP009040

>  <CONTRIBUTOR>  (2209) 
University of Tokyo Team, {Faculty of Engineering, University of Tokyo

>  <COMMENT>  (2209) 
SMILES=Cc(c1)nccn1
cas=109-08-0
InChI=InChI=1S/C5H6N2/c1-5-4-6-2-3-7-5/h2-4H,1H3
computed SMILES=N=1C=CN=C(C1)C
accession=JP009040
date=2016.01.19 (Created 2008.10.21, modified 2011.05.06)
author=SODA AROMATIC CO., LTD.
license=CC BY-NC-SA
exact mass=94.0531
ionization energy=70 eV
ion type=[M]+*
computed spectral entropy=2.518416906232146
computed normalized entropy=0.792439977631348
SPLASH=splash10-0006-9000000000-a2eaa2efdc4e61c4335c
submitter=submitter = University of Tokyo Team (Faculty of Engineering, University of Tokyo)
MoNA Rating=3.75

>  <NUM PEAKS>  (2209) 
24

>  <MASS SPECTRAL PEAKS>  (2209) 
15 2.79
25 1.33
26 35.2
27 7.18
28 13.28
37 8.53
38 16.42
39 36.79
40 30.04
41 12.67
42 18.87
51 5.58
52 11.46
53 21.03
63 1.07
64 2.42
65 1.34
66 3.64
67 60.42
68 2.54
79 1.18
93 1.22
94 99.99
95 6.52

$$$$

     RDKit          2D

  6  6  0  0  0  0  0  0  0  0999 V2000
    1.3000   -0.7500    0.0000 C   0  0  0  0  0  0  0  0  0  0  0  0
    1.3000    0.7500    0.0000 C   0  0  0  0  0  0  0  0  0  0  0  0
   -1.3000   -0.7500    0.0000 C   0  0  0  0  0  0  0  0  0  0  0  0
   -1.3000    0.7500    0.0000 C   0  0  0  0  0  0  0  0  0  0  0  0
   -0.0000   -1.5000    0.0000 N   0  0  0  0  0  0  0  0  0  0  0  0
    0.0000    1.5000    0.0000 N   0  0  0  0  0  0  0  0  0  0  0  0
  2  1  2  0
  4  3  1  0
  5  1  1  0
  5  3  2  0
  6  2  1  0
  6  4  2  0
M  END
>  <NAME>  (2210) 
PYRAZINE

>  <SYNONYMS>  (2210) 


>  <SPECTRUM TYPE>  (2210) 
MS1

>  <INSTRUMENT TYPE>  (2210) 
EI-B

>  <INSTRUMENT>  (2210) 
HITACHI M-80B

>  <ION MODE>  (2210) 
P

>  <INCHIKEY>  (2210) 
KYQCOXFCLRTKLS-UHFFFAOYSA-N

>  <FORMULA>  (2210) 
C4H4N2

>  <EXACT MASS>  (2210) 
80.037448128

>  <MW>  (2210) 
80

>  <ID>  (2210) 
JP009039

>  <CONTRIBUTOR>  (2210) 
University of Tokyo Team, {Faculty of Engineering, University of Tokyo

>  <COMMENT>  (2210) 
SMILES=c(c1)nccn1
cas=290-37-9
InChI=InChI=1S/C4H4N2/c1-2-6-4-3-5-1/h1-4H
computed SMILES=N=1C=CN=CC1
accession=JP009039
date=2016.01.19 (Created 2008.10.21, modified 2011.05.06)
author=SODA AROMATIC CO., LTD.
license=CC BY-NC-SA
exact mass=80.03745
ionization energy=70 eV
ion type=[M]+*
computed spectral entropy=1.711791100303417
computed normalized entropy=0.6321120264338884
SPLASH=splash10-0f89-9000000000-0df782a68a2c1241b0fa
submitter=submitter = University of Tokyo Team (Faculty of Engineering, University of Tokyo)
MoNA Rating=3.75

>  <NUM PEAKS>  (2210) 
15

>  <MASS SPECTRAL PEAKS>  (2210) 
27 4.74
28 14.6
38 2
39 4.49
40 1.65
50 2.44
51 12.01
52 13.93
53 52.96
54 2.17
76 1
77 1.13
79 1.01
80 99.99
81 4.47

$$$$

     RDKit          2D

  9  9  0  0  0  0  0  0  0  0999 V2000
    2.5989    1.5002    0.0000 C   0  0  0  0  0  0  0  0  0  0  0  0
   -2.5989   -1.5002    0.0000 C   0  0  0  0  0  0  0  0  0  0  0  0
   -2.5989    1.5002    0.0000 C   0  0  0  0  0  0  0  0  0  0  0  0
    1.3000   -0.7500    0.0000 C   0  0  0  0  0  0  0  0  0  0  0  0
    1.3000    0.7500    0.0000 C   0  0  0  0  0  0  0  0  0  0  0  0
   -1.3000   -0.7500    0.0000 C   0  0  0  0  0  0  0  0  0  0  0  0
   -1.3000    0.7500    0.0000 C   0  0  0  0  0  0  0  0  0  0  0  0
   -0.0000   -1.5000    0.0000 N   0  0  0  0  0  0  0  0  0  0  0  0
    0.0000    1.5000    0.0000 N   0  0  0  0  0  0  0  0  0  0  0  0
  5  1  1  0
  5  4  2  0
  6  2  1  0
  7  3  1  0
  7  6  1  0
  8  4  1  0
  8  6  2  0
  9  5  1  0
  9  7  2  0
M  END
>  <NAME>  (2211) 
2,3,5-TRIMETHYLPYRAZINE

>  <SYNONYMS>  (2211) 


>  <SPECTRUM TYPE>  (2211) 
MS1

>  <INSTRUMENT TYPE>  (2211) 
EI-B

>  <INSTRUMENT>  (2211) 
HITACHI M-80B

>  <ION MODE>  (2211) 
P

>  <INCHIKEY>  (2211) 
IAEGWXHKWJGQAZ-UHFFFAOYSA-N

>  <FORMULA>  (2211) 
C7H10N2

>  <EXACT MASS>  (2211) 
122.08439831999999

>  <MW>  (2211) 
122

>  <ID>  (2211) 
JP009038

>  <CONTRIBUTOR>  (2211) 
University of Tokyo Team, {Faculty of Engineering, University of Tokyo

>  <COMMENT>  (2211) 
SMILES=Cc(c1)nc(C)c(C)n1
cas=14667-55-1
InChI=InChI=1S/C7H10N2/c1-5-4-8-6(2)7(3)9-5/h4H,1-3H3
computed SMILES=N=1C=C(N=C(C1C)C)C
accession=JP009038
date=2016.01.19 (Created 2008.10.21, modified 2011.05.06)
author=SODA AROMATIC CO., LTD.
license=CC BY-NC-SA
exact mass=122.0844
ionization energy=70 eV
ion type=[M]+*
computed spectral entropy=2.2679897219586063
computed normalized entropy=0.7233276688684711
SPLASH=splash10-0006-9200000000-40504210dd3941e2c04a
submitter=submitter = University of Tokyo Team (Faculty of Engineering, University of Tokyo)
MoNA Rating=3.75

>  <NUM PEAKS>  (2211) 
23

>  <MASS SPECTRAL PEAKS>  (2211) 
15 2.86
26 2.25
27 11.15
28 5.43
37 1.07
38 5.1
39 25.23
40 12.87
41 4.82
42 99.99
43 2
50 1.89
51 5.03
52 6.53
53 8.2
54 9.38
66 1.26
80 2.11
81 13.49
107 1
121 1.38
122 47.56
123 4.17

$$$$

     RDKit          2D

 10 11  0  0  0  0  0  0  0  0999 V2000
   -2.6000    0.7500    0.0000 C   0  0  0  0  0  0  0  0  0  0  0  0
   -2.6000   -0.7500    0.0000 C   0  0  0  0  0  0  0  0  0  0  0  0
   -1.3000    1.5000    0.0000 C   0  0  0  0  0  0  0  0  0  0  0  0
   -1.3000   -1.5000    0.0000 C   0  0  0  0  0  0  0  0  0  0  0  0
    2.6000    0.7500    0.0000 C   0  0  0  0  0  0  0  0  0  0  0  0
    2.6000   -0.7500    0.0000 C   0  0  0  0  0  0  0  0  0  0  0  0
    0.0000    0.7500    0.0000 C   0  0  0  0  0  0  0  0  0  0  0  0
    0.0000   -0.7500    0.0000 C   0  0  0  0  0  0  0  0  0  0  0  0
    1.3000    1.5000    0.0000 N   0  0  0  0  0  0  0  0  0  0  0  0
    1.3000   -1.5000    0.0000 N   0  0  0  0  0  0  0  0  0  0  0  0
  2  1  2  0
  3  1  1  0
  4  2  1  0
  6  5  1  0
  7  3  2  0
  8  4  2  0
  8  7  1  0
  9  5  2  0
  9  7  1  0
 10  6  2  0
 10  8  1  0
M  END
>  <NAME>  (2212) 
QUINOXALINE

>  <SYNONYMS>  (2212) 


>  <SPECTRUM TYPE>  (2212) 
MS1

>  <INSTRUMENT TYPE>  (2212) 
EI-B

>  <INSTRUMENT>  (2212) 
HITACHI M-80B

>  <ION MODE>  (2212) 
P

>  <INCHIKEY>  (2212) 
XSCHRSMBECNVNS-UHFFFAOYSA-N

>  <FORMULA>  (2212) 
C8H6N2

>  <EXACT MASS>  (2212) 
130.053098192

>  <MW>  (2212) 
130

>  <ID>  (2212) 
JP009037

>  <CONTRIBUTOR>  (2212) 
University of Tokyo Team, {Faculty of Engineering, University of Tokyo

>  <COMMENT>  (2212) 
SMILES=c(c2)cc(n1)c(c2)ncc1
cas=91-19-0
InChI=InChI=1S/C8H6N2/c1-2-4-8-7(3-1)9-5-6-10-8/h1-6H
computed SMILES=N1=CC=NC2=CC=CC=C12
accession=JP009037
date=2016.01.19 (Created 2008.10.21, modified 2011.05.06)
author=SODA AROMATIC CO., LTD.
license=CC BY-NC-SA
exact mass=130.0531
ionization energy=70 eV
ion type=[M]+*
computed spectral entropy=2.3320139462713096
computed normalized entropy=0.7157596219317224
SPLASH=splash10-0fai-8900000000-c9e91790e5de9878169c
submitter=submitter = University of Tokyo Team (Faculty of Engineering, University of Tokyo)
MoNA Rating=3.75

>  <NUM PEAKS>  (2212) 
26

>  <MASS SPECTRAL PEAKS>  (2212) 
26 3.24
27 1.71
28 4.72
37 3.38
38 3.43
39 2.43
49 1.7
50 27.86
51 11.14
52 8.09
53 1.1
62 1.28
63 1.65
64 2.56
65 2.74
73 1.15
74 6.83
75 13.64
76 56.52
77 6.73
102 3.91
103 55.92
104 3.7
129 1.65
130 99.99
131 9.86

$$$$

     RDKit          2D

 10 11  0  0  0  0  0  0  0  0999 V2000
   -2.6000    0.7500    0.0000 C   0  0  0  0  0  0  0  0  0  0  0  0
   -2.6000   -0.7500    0.0000 C   0  0  0  0  0  0  0  0  0  0  0  0
   -1.3000    1.5000    0.0000 C   0  0  0  0  0  0  0  0  0  0  0  0
   -1.3000   -1.5000    0.0000 C   0  0  0  0  0  0  0  0  0  0  0  0
    1.3000    1.5000    0.0000 C   0  0  0  0  0  0  0  0  0  0  0  0
    2.6000    0.7500    0.0000 C   0  0  0  0  0  0  0  0  0  0  0  0
    1.3000   -1.5000    0.0000 C   0  0  0  0  0  0  0  0  0  0  0  0
    0.0000    0.7500    0.0000 C   0  0  0  0  0  0  0  0  0  0  0  0
    0.0000   -0.7500    0.0000 C   0  0  0  0  0  0  0  0  0  0  0  0
    2.6000   -0.7500    0.0000 N   0  0  0  0  0  0  0  0  0  0  0  0
  2  1  2  0
  3  1  1  0
  4  2  1  0
  6  5  2  0
  8  3  2  0
  8  5  1  0
  9  4  2  0
  9  7  1  0
  9  8  1  0
 10  6  1  0
 10  7  2  0
M  END
>  <NAME>  (2213) 
ISOQUINOLINE

>  <SYNONYMS>  (2213) 


>  <SPECTRUM TYPE>  (2213) 
MS1

>  <INSTRUMENT TYPE>  (2213) 
EI-B

>  <INSTRUMENT>  (2213) 
HITACHI M-80B

>  <ION MODE>  (2213) 
P

>  <INCHIKEY>  (2213) 
AWJUIBRHMBBTKR-UHFFFAOYSA-N

>  <FORMULA>  (2213) 
C9H7N

>  <EXACT MASS>  (2213) 
129.057849224

>  <MW>  (2213) 
129

>  <ID>  (2213) 
JP009036

>  <CONTRIBUTOR>  (2213) 
University of Tokyo Team, {Faculty of Engineering, University of Tokyo

>  <COMMENT>  (2213) 
SMILES=c(c2)cc(c1)c(c2)cnc1
cas=119-65-3
InChI=InChI=1S/C9H7N/c1-2-4-9-7-10-6-5-8(9)3-1/h1-7H
computed SMILES=N=1C=CC=2C=CC=CC2C1
accession=JP009036
date=2016.01.19 (Created 2008.10.21, modified 2011.05.06)
author=SODA AROMATIC CO., LTD.
license=CC BY-NC-SA
exact mass=129.05785
ionization energy=70 eV
ion type=[M]+*
computed spectral entropy=2.439503003141191
computed normalized entropy=0.740177108977695
SPLASH=splash10-004i-5900000000-938e708f6f6371c89a90
submitter=submitter = University of Tokyo Team (Faculty of Engineering, University of Tokyo)
MoNA Rating=3.75

>  <NUM PEAKS>  (2213) 
27

>  <MASS SPECTRAL PEAKS>  (2213) 
27 1.07
28 1.21
37 1.31
38 2.08
39 4.18
49 1.17
50 12.19
51 17.4
52 4.03
61 1.57
62 2.85
63 6.64
64 2.37
74 8.91
75 11.86
76 10.2
77 4.15
78 2.3
87 1.07
98 1.13
101 6.5
102 26.67
103 8.2
127 1.02
128 17.44
129 99.99
130 10.98

$$$$

     RDKit          2D

  8  8  0  0  0  0  0  0  0  0999 V2000
    3.8981   -0.7504    0.0000 C   0  0  0  0  0  0  0  0  0  0  0  0
   -0.0000    1.5000    0.0000 C   0  0  0  0  0  0  0  0  0  0  0  0
   -1.3000    0.7500    0.0000 C   0  0  0  0  0  0  0  0  0  0  0  0
    1.3000    0.7500    0.0000 C   0  0  0  0  0  0  0  0  0  0  0  0
   -1.3000   -0.7500    0.0000 C   0  0  0  0  0  0  0  0  0  0  0  0
    1.3000   -0.7500    0.0000 C   0  0  0  0  0  0  0  0  0  0  0  0
   -0.0000   -1.5000    0.0000 N   0  0  0  0  0  0  0  0  0  0  0  0
    2.5989   -1.5002    0.0000 O   0  0  0  0  0  0  0  0  0  0  0  0
  3  2  2  0
  4  2  1  0
  5  3  1  0
  6  4  2  0
  7  5  2  0
  7  6  1  0
  8  1  1  0
  8  6  1  0
M  END
>  <NAME>  (2214) 
2-METHOXYPYRIDINE

>  <SYNONYMS>  (2214) 


>  <SPECTRUM TYPE>  (2214) 
MS1

>  <INSTRUMENT TYPE>  (2214) 
EI-B

>  <INSTRUMENT>  (2214) 
HITACHI M-80B

>  <ION MODE>  (2214) 
P

>  <INCHIKEY>  (2214) 
IWTFOFMTUOBLHG-UHFFFAOYSA-N

>  <FORMULA>  (2214) 
C6H7NO

>  <EXACT MASS>  (2214) 
109.052763844

>  <MW>  (2214) 
109

>  <ID>  (2214) 
JP009035

>  <CONTRIBUTOR>  (2214) 
University of Tokyo Team, {Faculty of Engineering, University of Tokyo

>  <COMMENT>  (2214) 
SMILES=COc(c1)nccc1
cas=1628-89-3
InChI=InChI=1S/C6H7NO/c1-8-6-4-2-3-5-7-6/h2-5H,1H3
computed SMILES=N=1C=CC=CC1OC
accession=JP009035
date=2016.01.19 (Created 2008.10.21, modified 2011.05.06)
author=SODA AROMATIC CO., LTD.
license=CC BY-NC-SA
exact mass=109.05276
ionization energy=70 eV
ion type=[M]+*
computed spectral entropy=2.7007515783610465
computed normalized entropy=0.7792721817549045
SPLASH=splash10-0pdi-9300000000-b6ad8290f43d79efbb0c
submitter=submitter = University of Tokyo Team (Faculty of Engineering, University of Tokyo)
MoNA Rating=3.75

>  <NUM PEAKS>  (2214) 
32

>  <MASS SPECTRAL PEAKS>  (2214) 
15 6.97
26 5.29
27 7.76
28 4.8
29 4.47
37 6.72
38 19.41
39 41.98
40 5.53
41 1.82
42 3.93
49 2.03
50 11.86
51 24.55
52 54.64
53 11.34
54 1.32
55 1.42
64 4.34
65 3.43
66 9.06
67 1.08
75 1.4
76 2.17
78 21.23
79 99.99
80 30.96
81 2.16
93 1.47
108 81.41
109 71.39
110 5.11

$$$$

     RDKit          2D

  8  8  0  0  0  0  0  0  0  0999 V2000
   -2.9228    0.8825    0.0000 C   0  0  0  0  0  0  0  0  0  0  0  0
   -1.6238    1.6325    0.0000 C   0  0  0  0  0  0  0  0  0  0  0  0
    0.9748    1.6333    0.0000 C   0  0  0  0  0  0  0  0  0  0  0  0
   -0.3252   -0.6183    0.0000 C   0  0  0  0  0  0  0  0  0  0  0  0
    2.2738    0.8833    0.0000 C   0  0  0  0  0  0  0  0  0  0  0  0
    0.9738   -1.3683    0.0000 C   0  0  0  0  0  0  0  0  0  0  0  0
   -0.3248    0.8825    0.0000 C   0  0  0  0  0  0  0  0  0  0  0  0
    2.2733   -0.6175    0.0000 N   0  0  0  0  0  0  0  0  0  0  0  0
  2  1  1  0
  5  3  2  0
  6  4  1  0
  7  2  1  0
  7  3  1  0
  7  4  2  0
  8  5  1  0
  8  6  2  0
M  END
>  <NAME>  (2215) 
4-ETHYLPYRIDINE

>  <SYNONYMS>  (2215) 


>  <SPECTRUM TYPE>  (2215) 
MS1

>  <INSTRUMENT TYPE>  (2215) 
EI-B

>  <INSTRUMENT>  (2215) 
HITACHI M-80B

>  <ION MODE>  (2215) 
P

>  <INCHIKEY>  (2215) 
VJXRKZJMGVSXPX-UHFFFAOYSA-N

>  <FORMULA>  (2215) 
C7H9N

>  <EXACT MASS>  (2215) 
107.073499288

>  <MW>  (2215) 
107

>  <ID>  (2215) 
JP009034

>  <CONTRIBUTOR>  (2215) 
University of Tokyo Team, {Faculty of Engineering, University of Tokyo

>  <COMMENT>  (2215) 
SMILES=CCc(c1)ccnc1
cas=536-75-4
InChI=InChI=1S/C7H9N/c1-2-7-3-5-8-6-4-7/h3-6H,2H2,1H3
computed SMILES=N=1C=CC(=CC1)CC
accession=JP009034
date=2016.01.19 (Created 2008.10.21, modified 2011.05.06)
author=SODA AROMATIC CO., LTD.
license=CC BY-NC-SA
exact mass=107.0735
ionization energy=70 eV
ion type=[M]+*
computed spectral entropy=2.7818643486513177
computed normalized entropy=0.7762940273031822
SPLASH=splash10-0a4i-9600000000-8f4501cc7cb4f728840d
submitter=submitter = University of Tokyo Team (Faculty of Engineering, University of Tokyo)
MoNA Rating=3.75

>  <NUM PEAKS>  (2215) 
36

>  <MASS SPECTRAL PEAKS>  (2215) 
15 1.55
26 4.41
27 11.2
28 6.92
29 1.2
37 1.77
38 5.26
39 25.04
40 2.26
41 4.63
49 1.42
50 14.42
51 25.34
52 15.38
53 6.81
54 7.25
62 1.77
63 6.69
64 2.79
65 26.93
66 3.88
67 1
74 1.05
75 1.32
76 1.53
77 10.12
78 7.62
79 24.53
80 11.1
92 45.53
93 2.47
104 1.74
105 1.04
106 83.53
107 99.99
108 7.99

$$$$

     RDKit          2D

  7  7  0  0  0  0  0  0  0  0999 V2000
    2.2289    1.2902    0.0000 C   0  0  0  0  0  0  0  0  0  0  0  0
   -1.6700    0.5400    0.0000 C   0  0  0  0  0  0  0  0  0  0  0  0
   -0.3700    1.2900    0.0000 C   0  0  0  0  0  0  0  0  0  0  0  0
   -1.6700   -0.9600    0.0000 C   0  0  0  0  0  0  0  0  0  0  0  0
    0.9300   -0.9600    0.0000 C   0  0  0  0  0  0  0  0  0  0  0  0
    0.9300    0.5400    0.0000 C   0  0  0  0  0  0  0  0  0  0  0  0
   -0.3700   -1.7100    0.0000 N   0  0  0  0  0  0  0  0  0  0  0  0
  3  2  2  0
  4  2  1  0
  6  1  1  0
  6  3  1  0
  6  5  2  0
  7  4  2  0
  7  5  1  0
M  END
>  <NAME>  (2216) 
3-METHYLPYRIDINE

>  <SYNONYMS>  (2216) 
3-PICOLINE

>  <SPECTRUM TYPE>  (2216) 
MS1

>  <INSTRUMENT TYPE>  (2216) 
EI-B

>  <INSTRUMENT>  (2216) 
HITACHI M-80B

>  <ION MODE>  (2216) 
P

>  <INCHIKEY>  (2216) 
ITQTTZVARXURQS-UHFFFAOYSA-N

>  <FORMULA>  (2216) 
C6H7N

>  <EXACT MASS>  (2216) 
93.057849224

>  <MW>  (2216) 
93

>  <ID>  (2216) 
JP009033

>  <CONTRIBUTOR>  (2216) 
University of Tokyo Team, {Faculty of Engineering, University of Tokyo

>  <COMMENT>  (2216) 
SMILES=Cc(c1)cncc1
cas=108-99-6
InChI=InChI=1S/C6H7N/c1-6-3-2-4-7-5-6/h2-5H,1H3
computed SMILES=N=1C=CC=C(C1)C
accession=JP009033
date=2016.01.19 (Created 2008.10.21, modified 2011.05.06)
author=SODA AROMATIC CO., LTD.
license=CC BY-NC-SA
exact mass=93.05785
ionization energy=70 eV
ion type=[M]+*
computed spectral entropy=2.5275534705322555
computed normalized entropy=0.7757761137633885
SPLASH=splash10-00kf-9000000000-759c5b98b6c617c91a18
submitter=submitter = University of Tokyo Team (Faculty of Engineering, University of Tokyo)
MoNA Rating=3.75

>  <NUM PEAKS>  (2216) 
26

>  <MASS SPECTRAL PEAKS>  (2216) 
26 2.85
27 3.61
28 4.73
37 4.21
38 10.75
39 35.1
40 12.74
41 2.96
49 1.03
50 4.79
51 6.3
52 3.41
53 2.46
54 1.92
61 2.65
62 4.74
63 10.81
64 4.35
65 24.82
66 38.56
67 11.85
78 3.49
91 1.03
92 28.5
93 99.99
94 7.17

$$$$

     RDKit          2D

  6  6  0  0  0  0  0  0  0  0999 V2000
    0.0000    1.5000    0.0000 C   0  0  0  0  0  0  0  0  0  0  0  0
   -1.3000    0.7500    0.0000 C   0  0  0  0  0  0  0  0  0  0  0  0
    1.3000    0.7500    0.0000 C   0  0  0  0  0  0  0  0  0  0  0  0
   -1.3000   -0.7500    0.0000 C   0  0  0  0  0  0  0  0  0  0  0  0
    1.3000   -0.7500    0.0000 C   0  0  0  0  0  0  0  0  0  0  0  0
   -0.0000   -1.5000    0.0000 N   0  0  0  0  0  0  0  0  0  0  0  0
  2  1  2  0
  3  1  1  0
  4  2  1  0
  5  3  2  0
  6  4  2  0
  6  5  1  0
M  END
>  <NAME>  (2217) 
PYRIDINE

>  <SYNONYMS>  (2217) 


>  <SPECTRUM TYPE>  (2217) 
MS1

>  <INSTRUMENT TYPE>  (2217) 
EI-B

>  <INSTRUMENT>  (2217) 
HITACHI M-80B

>  <ION MODE>  (2217) 
P

>  <INCHIKEY>  (2217) 
JUJWROOIHBZHMG-UHFFFAOYSA-N

>  <FORMULA>  (2217) 
C5H5N

>  <EXACT MASS>  (2217) 
79.04219916

>  <MW>  (2217) 
79

>  <ID>  (2217) 
JP009032

>  <CONTRIBUTOR>  (2217) 
University of Tokyo Team, {Faculty of Engineering, University of Tokyo

>  <COMMENT>  (2217) 
SMILES=c(c1)ccnc1
cas=110-86-1
InChI=InChI=1S/C5H5N/c1-2-4-6-5-3-1/h1-5H
computed SMILES=N=1C=CC=CC1
accession=JP009032
date=2016.01.19 (Created 2008.10.21, modified 2011.05.06)
author=SODA AROMATIC CO., LTD.
license=CC BY-NC-SA
exact mass=79.0422
ionization energy=70 eV
ion type=[M]+*
computed spectral entropy=2.10992640050146
computed normalized entropy=0.729984437032151
SPLASH=splash10-0ufr-9000000000-b315c8dbb33ca0192ce6
submitter=submitter = University of Tokyo Team (Faculty of Engineering, University of Tokyo)
MoNA Rating=3.75

>  <NUM PEAKS>  (2217) 
18

>  <MASS SPECTRAL PEAKS>  (2217) 
25 1.29
26 12.41
27 3.79
28 4.89
37 4.17
38 5.03
39 10.26
40 1.24
49 6.19
50 28.99
51 36.13
52 72.1
53 8.18
75 1.64
76 1.38
78 11.32
79 99.99
80 5.61

$$$$

     RDKit          2D

  6  6  0  0  0  0  0  0  0  0999 V2000
    0.0000    1.5000    0.0000 C   0  0  0  0  0  0  0  0  0  0  0  0
   -1.3000    0.7500    0.0000 C   0  0  0  0  0  0  0  0  0  0  0  0
    1.3000    0.7500    0.0000 C   0  0  0  0  0  0  0  0  0  0  0  0
   -1.3000   -0.7500    0.0000 C   0  0  0  0  0  0  0  0  0  0  0  0
    1.3000   -0.7500    0.0000 C   0  0  0  0  0  0  0  0  0  0  0  0
   -0.0000   -1.5000    0.0000 N   0  0  0  0  0  0  0  0  0  0  0  0
  2  1  1  0
  3  1  1  0
  4  2  1  0
  5  3  1  0
  6  4  1  0
  6  5  1  0
M  END
>  <NAME>  (2218) 
PIPERIDINE

>  <SYNONYMS>  (2218) 


>  <SPECTRUM TYPE>  (2218) 
MS1

>  <INSTRUMENT TYPE>  (2218) 
EI-B

>  <INSTRUMENT>  (2218) 
HITACHI M-80B

>  <ION MODE>  (2218) 
P

>  <INCHIKEY>  (2218) 
NQRYJNQNLNOLGT-UHFFFAOYSA-N

>  <FORMULA>  (2218) 
C5H11N

>  <EXACT MASS>  (2218) 
85.08914935199999

>  <MW>  (2218) 
85

>  <ID>  (2218) 
JP009031

>  <CONTRIBUTOR>  (2218) 
University of Tokyo Team, {Faculty of Engineering, University of Tokyo

>  <COMMENT>  (2218) 
SMILES=C(C1)CCNC1
cas=110-89-4
InChI=InChI=1S/C5H11N/c1-2-4-6-5-3-1/h6H,1-5H2
computed SMILES=N1CCCCC1
accession=JP009031
date=2016.01.19 (Created 2008.10.21, modified 2011.05.06)
author=SODA AROMATIC CO., LTD.
license=CC BY-NC-SA
exact mass=85.08915
ionization energy=70 eV
ion type=[M]+*
computed spectral entropy=2.806108599295235
computed normalized entropy=0.8171575583130198
SPLASH=splash10-0563-9000000000-c08d3d67e81c397678d2
submitter=submitter = University of Tokyo Team (Faculty of Engineering, University of Tokyo)
MoNA Rating=3.75

>  <NUM PEAKS>  (2218) 
31

>  <MASS SPECTRAL PEAKS>  (2218) 
15 5.91
26 5.65
27 29.73
28 63.63
29 49.36
30 41.78
38 1.82
39 20.28
40 2.75
41 21.7
42 36.76
43 32.93
44 44.99
45 1.05
50 1.63
51 2.32
52 2.2
53 3.44
54 4.64
55 9.52
56 57.97
57 50.49
58 1.68
67 2.21
68 2.28
70 9.66
80 1.24
82 1.87
84 99.99
85 53.05
86 2.45

$$$$

     RDKit          2D

 12 11  0  0  0  0  0  0  0  0999 V2000
   -6.8200    5.0625    0.0000 C   0  0  0  0  0  0  0  0  0  0  0  0
   -5.5209    2.8125    0.0000 C   0  0  0  0  0  0  0  0  0  0  0  0
    3.5724    5.0625    0.0000 C   0  0  0  0  0  0  0  0  0  0  0  0
   -4.2219    5.0625    0.0000 C   0  0  0  0  0  0  0  0  0  0  0  0
   -2.9228    4.3125    0.0000 C   0  0  0  0  0  0  0  0  0  0  0  0
    0.9743    5.0625    0.0000 C   0  0  0  0  0  0  0  0  0  0  0  0
   -5.5209    4.3125    0.0000 C   0  0  0  0  0  0  0  0  0  0  0  0
    2.2733    4.3125    0.0000 C   0  0  0  0  0  0  0  0  0  0  0  0
   -0.3248    4.3125    0.0000 C   0  0  0  0  0  0  0  0  0  0  0  0
    2.2733    2.8125    0.0000 O   0  0  0  0  0  0  0  0  0  0  0  0
   -0.3248    2.8125    0.0000 O   0  0  0  0  0  0  0  0  0  0  0  0
   -1.6238    5.0625    0.0000 O   0  0  0  0  0  0  0  0  0  0  0  0
  5  4  1  0
  7  1  1  0
  7  2  1  0
  7  4  1  0
  8  3  1  0
  8  6  1  0
  9  6  1  0
 10  8  2  0
 11  9  2  0
 12  5  1  0
 12  9  1  0
M  END
>  <NAME>  (2219) 
ISOPENTYL ACETOACETATE

>  <SYNONYMS>  (2219) 


>  <SPECTRUM TYPE>  (2219) 
MS1

>  <INSTRUMENT TYPE>  (2219) 
EI-B

>  <INSTRUMENT>  (2219) 
HITACHI M-80B

>  <ION MODE>  (2219) 
P

>  <INCHIKEY>  (2219) 
XHRGPLDMNNGHCX-UHFFFAOYSA-N

>  <FORMULA>  (2219) 
C9H16O3

>  <EXACT MASS>  (2219) 
172.109944372

>  <MW>  (2219) 
172

>  <ID>  (2219) 
JP009030

>  <CONTRIBUTOR>  (2219) 
University of Tokyo Team, {Faculty of Engineering, University of Tokyo

>  <COMMENT>  (2219) 
SMILES=CC(C)CCOC(=O)CC(C)=O
InChI=InChI=1S/C9H16O3/c1-7(2)4-5-12-9(11)6-8(3)10/h7H,4-6H2,1-3H3
computed SMILES=O=C(OCCC(C)C)CC(=O)C
date=2016.01.19 (Created 2008.10.21, modified 2011.05.06)
author=SODA AROMATIC CO., LTD.
license=CC BY-NC-SA
exact mass=172.10994
ionization energy=70 eV
ion type=[M]+*
computed spectral entropy=2.5090100290900983
computed normalized entropy=0.7529579956538073
accession=JP009030
SPLASH=splash10-006x-9000000000-ea4087a7ea2378ba8ee9
submitter=submitter = University of Tokyo Team (Faculty of Engineering, University of Tokyo)
MoNA Rating=3.75

>  <NUM PEAKS>  (2219) 
28

>  <MASS SPECTRAL PEAKS>  (2219) 
15 4.25
26 1.62
27 12.62
29 10.77
31 4.57
39 7.94
41 21.42
42 16.99
43 99.99
44 2.87
45 1.57
53 1.46
55 29.77
56 2.74
57 3.62
58 5.35
59 1.09
60 1.6
61 1.28
69 3.73
70 55.44
71 17.9
73 1.2
84 2.63
85 19.52
87 1.59
102 1.43
103 9.04

$$$$

     RDKit          2D

 11 10  0  0  0  0  0  0  0  0999 V2000
    2.5981    4.5000    0.0000 C   0  0  0  0  0  0  0  0  0  0  0  0
   -7.7942    4.5000    0.0000 C   0  0  0  0  0  0  0  0  0  0  0  0
    1.2990    5.2500    0.0000 C   0  0  0  0  0  0  0  0  0  0  0  0
    0.0000    4.5000    0.0000 C   0  0  0  0  0  0  0  0  0  0  0  0
   -1.2990    5.2500    0.0000 C   0  0  0  0  0  0  0  0  0  0  0  0
   -5.1962    4.5000    0.0000 C   0  0  0  0  0  0  0  0  0  0  0  0
   -6.4952    5.2500    0.0000 C   0  0  0  0  0  0  0  0  0  0  0  0
   -3.8971    5.2500    0.0000 C   0  0  0  0  0  0  0  0  0  0  0  0
   -6.4952    6.7500    0.0000 O   0  0  0  0  0  0  0  0  0  0  0  0
   -3.8971    6.7500    0.0000 O   0  0  0  0  0  0  0  0  0  0  0  0
   -2.5981    4.5000    0.0000 O   0  0  0  0  0  0  0  0  0  0  0  0
  3  1  1  0
  4  3  1  0
  5  4  1  0
  7  2  1  0
  7  6  1  0
  8  6  1  0
  9  7  2  0
 10  8  2  0
 11  5  1  0
 11  8  1  0
M  END
>  <NAME>  (2220) 
BUTYL ACETOACETATE

>  <SYNONYMS>  (2220) 


>  <SPECTRUM TYPE>  (2220) 
MS1

>  <INSTRUMENT TYPE>  (2220) 
EI-B

>  <INSTRUMENT>  (2220) 
HITACHI M-80B

>  <ION MODE>  (2220) 
P

>  <INCHIKEY>  (2220) 
REIYHFWZISXFKU-UHFFFAOYSA-N

>  <FORMULA>  (2220) 
C8H14O3

>  <EXACT MASS>  (2220) 
158.09429430799997

>  <MW>  (2220) 
158

>  <ID>  (2220) 
JP009029

>  <CONTRIBUTOR>  (2220) 
University of Tokyo Team, {Faculty of Engineering, University of Tokyo

>  <COMMENT>  (2220) 
SMILES=CCCCOC(=O)CC(C)=O
cas=591-60-6
InChI=InChI=1S/C8H14O3/c1-3-4-5-11-8(10)6-7(2)9/h3-6H2,1-2H3
computed SMILES=O=C(OCCCC)CC(=O)C
accession=JP009029
date=2016.01.19 (Created 2008.10.21, modified 2011.05.06)
author=SODA AROMATIC CO., LTD.
license=CC BY-NC-SA
exact mass=158.09429
ionization energy=70 eV
ion type=[M]+*
computed spectral entropy=2.538411150250332
computed normalized entropy=0.7886017629630896
SPLASH=splash10-0006-9000000000-5e338755179443d54e95
submitter=submitter = University of Tokyo Team (Faculty of Engineering, University of Tokyo)
MoNA Rating=3.75

>  <NUM PEAKS>  (2220) 
25

>  <MASS SPECTRAL PEAKS>  (2220) 
15 4.25
26 2.01
27 14.5
29 18.92
31 4.58
32 2.39
39 6.84
41 24.21
42 15.27
43 99.99
44 1.99
55 3.3
56 34.67
57 19.42
58 4.19
60 12.82
61 3.68
69 2.63
73 1.59
84 4.63
85 26.27
86 1.04
87 1.91
102 3.24
103 18.26

$$$$

     RDKit          2D

  9  8  0  0  0  0  0  0  0  0999 V2000
    1.9486    3.3750    0.0000 C   0  0  0  0  0  0  0  0  0  0  0  0
   -5.8457    3.3750    0.0000 C   0  0  0  0  0  0  0  0  0  0  0  0
    0.6495    4.1250    0.0000 C   0  0  0  0  0  0  0  0  0  0  0  0
   -3.2476    3.3750    0.0000 C   0  0  0  0  0  0  0  0  0  0  0  0
   -4.5466    4.1250    0.0000 C   0  0  0  0  0  0  0  0  0  0  0  0
   -1.9486    4.1250    0.0000 C   0  0  0  0  0  0  0  0  0  0  0  0
   -4.5466    5.6250    0.0000 O   0  0  0  0  0  0  0  0  0  0  0  0
   -1.9486    5.6250    0.0000 O   0  0  0  0  0  0  0  0  0  0  0  0
   -0.6495    3.3750    0.0000 O   0  0  0  0  0  0  0  0  0  0  0  0
  3  1  1  0
  5  2  1  0
  5  4  1  0
  6  4  1  0
  7  5  2  0
  8  6  2  0
  9  3  1  0
  9  6  1  0
M  END
>  <NAME>  (2221) 
ETHYL ACETOACETATE

>  <SYNONYMS>  (2221) 


>  <SPECTRUM TYPE>  (2221) 
MS1

>  <INSTRUMENT TYPE>  (2221) 
EI-B

>  <INSTRUMENT>  (2221) 
HITACHI M-80B

>  <ION MODE>  (2221) 
P

>  <INCHIKEY>  (2221) 
XYIBRDXRRQCHLP-UHFFFAOYSA-N

>  <FORMULA>  (2221) 
C6H10O3

>  <EXACT MASS>  (2221) 
130.06299417999998

>  <MW>  (2221) 
130

>  <ID>  (2221) 
JP009028

>  <CONTRIBUTOR>  (2221) 
University of Tokyo Team, {Faculty of Engineering, University of Tokyo

>  <COMMENT>  (2221) 
SMILES=CCOC(=O)CC(C)=O
cas=141-97-9
InChI=InChI=1S/C6H10O3/c1-3-9-6(8)4-5(2)7/h3-4H2,1-2H3
computed SMILES=O=C(OCC)CC(=O)C
accession=JP009028
date=2016.01.19 (Created 2008.10.21, modified 2011.05.06)
author=SODA AROMATIC CO., LTD.
license=CC BY-NC-SA
exact mass=130.06299
ionization energy=70 eV
ion type=[M]+*
computed spectral entropy=2.348770791069015
computed normalized entropy=0.7296866728821971
SPLASH=splash10-0006-9000000000-4a1188d69a9a3efd5ef8
submitter=submitter = University of Tokyo Team (Faculty of Engineering, University of Tokyo)
MoNA Rating=3.75

>  <NUM PEAKS>  (2221) 
25

>  <MASS SPECTRAL PEAKS>  (2221) 
14 1.24
15 6.35
26 2.46
27 14.3
29 21.44
31 5.33
39 1.39
41 1.52
42 15.7
43 99.99
44 2.05
45 4.88
58 2.38
60 10.03
61 4.07
69 4.74
70 1.37
73 1.33
84 2.56
85 14.88
87 3.69
88 17.95
102 3.42
115 1.36
130 5.73

$$$$

     RDKit          2D

 14 13  0  0  0  0  0  0  0  0999 V2000
    3.5724    6.5625    0.0000 C   0  0  0  0  0  0  0  0  0  0  0  0
  -10.7171    7.3125    0.0000 C   0  0  0  0  0  0  0  0  0  0  0  0
    2.2733    7.3125    0.0000 C   0  0  0  0  0  0  0  0  0  0  0  0
    0.9743    6.5625    0.0000 C   0  0  0  0  0  0  0  0  0  0  0  0
   -0.3248    7.3125    0.0000 C   0  0  0  0  0  0  0  0  0  0  0  0
   -1.6238    6.5625    0.0000 C   0  0  0  0  0  0  0  0  0  0  0  0
   -8.1190    7.3125    0.0000 C   0  0  0  0  0  0  0  0  0  0  0  0
   -6.8200    6.5625    0.0000 C   0  0  0  0  0  0  0  0  0  0  0  0
   -2.9228    7.3125    0.0000 C   0  0  0  0  0  0  0  0  0  0  0  0
   -9.4180    6.5625    0.0000 C   0  0  0  0  0  0  0  0  0  0  0  0
   -5.5209    7.3125    0.0000 C   0  0  0  0  0  0  0  0  0  0  0  0
   -9.4180    5.0625    0.0000 O   0  0  0  0  0  0  0  0  0  0  0  0
   -5.5209    8.8125    0.0000 O   0  0  0  0  0  0  0  0  0  0  0  0
   -4.2219    6.5625    0.0000 O   0  0  0  0  0  0  0  0  0  0  0  0
  3  1  1  0
  4  3  1  0
  5  4  1  0
  6  5  1  0
  8  7  1  0
  9  6  1  0
 10  2  1  0
 10  7  1  0
 11  8  1  0
 12 10  2  0
 13 11  2  0
 14  9  1  0
 14 11  1  0
M  END
>  <NAME>  (2222) 
HEXYL LEVULINATE

>  <SYNONYMS>  (2222) 


>  <SPECTRUM TYPE>  (2222) 
MS1

>  <INSTRUMENT TYPE>  (2222) 
EI-B

>  <INSTRUMENT>  (2222) 
HITACHI M-80B

>  <ION MODE>  (2222) 
P

>  <INCHIKEY>  (2222) 
HBBVKEXMLPMFQQ-UHFFFAOYSA-N

>  <FORMULA>  (2222) 
C11H20O3

>  <EXACT MASS>  (2222) 
200.14124449999997

>  <MW>  (2222) 
200

>  <ID>  (2222) 
JP009027

>  <CONTRIBUTOR>  (2222) 
University of Tokyo Team, {Faculty of Engineering, University of Tokyo

>  <COMMENT>  (2222) 
SMILES=CCCCCCOC(=O)CCC(C)=O
InChI=InChI=1S/C11H20O3/c1-3-4-5-6-9-14-11(13)8-7-10(2)12/h3-9H2,1-2H3
computed SMILES=O=C(OCCCCCC)CCC(=O)C
accession=JP009027
date=2016.01.19 (Created 2008.10.21, modified 2011.05.06)
author=SODA AROMATIC CO., LTD.
license=CC BY-NC-SA
exact mass=200.14124
ionization energy=70 eV
ion type=[M]+*
computed spectral entropy=2.6064633822413454
computed normalized entropy=0.7740523891694467
SPLASH=splash10-0007-9000000000-30250a27cf1d4371cebd
submitter=submitter = University of Tokyo Team (Faculty of Engineering, University of Tokyo)
MoNA Rating=3.75

>  <NUM PEAKS>  (2222) 
29

>  <MASS SPECTRAL PEAKS>  (2222) 
15 2.54
26 1.2
27 12.83
29 9.69
31 1.05
39 5.47
41 19.94
42 8.67
43 99.99
44 2.32
53 1.42
55 12.68
56 13.74
57 6.92
58 1.3
69 3.1
71 7.41
72 2.38
73 2.49
74 26.88
75 10.15
84 8.44
85 10.53
98 3.86
99 78.71
100 3.94
101 11.94
117 13.21
158 1.67

$$$$

     RDKit          2D

 13 12  0  0  0  0  0  0  0  0999 V2000
    3.2476    4.8750    0.0000 C   0  0  0  0  0  0  0  0  0  0  0  0
    1.9486    7.1250    0.0000 C   0  0  0  0  0  0  0  0  0  0  0  0
   -8.4437    5.6250    0.0000 C   0  0  0  0  0  0  0  0  0  0  0  0
   -5.8457    5.6250    0.0000 C   0  0  0  0  0  0  0  0  0  0  0  0
   -4.5466    4.8750    0.0000 C   0  0  0  0  0  0  0  0  0  0  0  0
    0.6495    4.8750    0.0000 C   0  0  0  0  0  0  0  0  0  0  0  0
   -0.6495    5.6250    0.0000 C   0  0  0  0  0  0  0  0  0  0  0  0
    1.9486    5.6250    0.0000 C   0  0  0  0  0  0  0  0  0  0  0  0
   -7.1447    4.8750    0.0000 C   0  0  0  0  0  0  0  0  0  0  0  0
   -3.2476    5.6250    0.0000 C   0  0  0  0  0  0  0  0  0  0  0  0
   -7.1447    3.3750    0.0000 O   0  0  0  0  0  0  0  0  0  0  0  0
   -3.2476    7.1250    0.0000 O   0  0  0  0  0  0  0  0  0  0  0  0
   -1.9486    4.8750    0.0000 O   0  0  0  0  0  0  0  0  0  0  0  0
  5  4  1  0
  7  6  1  0
  8  1  1  0
  8  2  1  0
  8  6  1  0
  9  3  1  0
  9  4  1  0
 10  5  1  0
 11  9  2  0
 12 10  2  0
 13  7  1  0
 13 10  1  0
M  END
>  <NAME>  (2223) 
ISOPENTYL LEVULINATE

>  <SYNONYMS>  (2223) 


>  <SPECTRUM TYPE>  (2223) 
MS1

>  <INSTRUMENT TYPE>  (2223) 
EI-B

>  <INSTRUMENT>  (2223) 
HITACHI M-80B

>  <ION MODE>  (2223) 
P

>  <INCHIKEY>  (2223) 
NYIALINCMIXBSP-UHFFFAOYSA-N

>  <FORMULA>  (2223) 
C10H18O3

>  <EXACT MASS>  (2223) 
186.12559443599997

>  <MW>  (2223) 
186

>  <ID>  (2223) 
JP009026

>  <CONTRIBUTOR>  (2223) 
University of Tokyo Team, {Faculty of Engineering, University of Tokyo

>  <COMMENT>  (2223) 
SMILES=CC(C)CCOC(=O)CCC(C)=O
InChI=InChI=1S/C10H18O3/c1-8(2)6-7-13-10(12)5-4-9(3)11/h8H,4-7H2,1-3H3
computed SMILES=O=C(OCCC(C)C)CCC(=O)C
accession=JP009026
date=2016.01.19 (Created 2008.10.21, modified 2011.05.06)
author=SODA AROMATIC CO., LTD.
license=CC BY-NC-SA
exact mass=186.12559
ionization energy=70 eV
ion type=[M]+*
computed spectral entropy=2.461211369654759
computed normalized entropy=0.7467637112265756
SPLASH=splash10-006y-9000000000-0260b458dec69db6a257
submitter=submitter = University of Tokyo Team (Faculty of Engineering, University of Tokyo)
MoNA Rating=3.75

>  <NUM PEAKS>  (2223) 
27

>  <MASS SPECTRAL PEAKS>  (2223) 
15 2.77
26 1.29
27 13.38
29 9.45
39 7.57
41 16.56
42 7.42
43 99.99
44 2.3
45 1.09
53 1.58
55 18.86
56 7.14
57 3.01
58 1.57
69 1.77
70 34.63
71 44.8
72 4.32
73 1.57
74 6.58
98 2.9
99 78.76
100 5.12
101 5.2
117 8.31
144 2.83

$$$$

     RDKit          2D

 13 12  0  0  0  0  0  0  0  0999 V2000
    3.2476    5.6250    0.0000 C   0  0  0  0  0  0  0  0  0  0  0  0
   -9.7428    5.6250    0.0000 C   0  0  0  0  0  0  0  0  0  0  0  0
    1.9486    6.3750    0.0000 C   0  0  0  0  0  0  0  0  0  0  0  0
    0.6495    5.6250    0.0000 C   0  0  0  0  0  0  0  0  0  0  0  0
   -0.6495    6.3750    0.0000 C   0  0  0  0  0  0  0  0  0  0  0  0
   -7.1447    5.6250    0.0000 C   0  0  0  0  0  0  0  0  0  0  0  0
   -5.8457    6.3750    0.0000 C   0  0  0  0  0  0  0  0  0  0  0  0
   -1.9486    5.6250    0.0000 C   0  0  0  0  0  0  0  0  0  0  0  0
   -8.4437    6.3750    0.0000 C   0  0  0  0  0  0  0  0  0  0  0  0
   -4.5466    5.6250    0.0000 C   0  0  0  0  0  0  0  0  0  0  0  0
   -8.4437    7.8750    0.0000 O   0  0  0  0  0  0  0  0  0  0  0  0
   -4.5466    4.1250    0.0000 O   0  0  0  0  0  0  0  0  0  0  0  0
   -3.2476    6.3750    0.0000 O   0  0  0  0  0  0  0  0  0  0  0  0
  3  1  1  0
  4  3  1  0
  5  4  1  0
  7  6  1  0
  8  5  1  0
  9  2  1  0
  9  6  1  0
 10  7  1  0
 11  9  2  0
 12 10  2  0
 13  8  1  0
 13 10  1  0
M  END
>  <NAME>  (2224) 
PENTYL LEVULINATE

>  <SYNONYMS>  (2224) 


>  <SPECTRUM TYPE>  (2224) 
MS1

>  <INSTRUMENT TYPE>  (2224) 
EI-B

>  <INSTRUMENT>  (2224) 
HITACHI M-80B

>  <ION MODE>  (2224) 
P

>  <INCHIKEY>  (2224) 
NLDFWNCRMVSDMC-UHFFFAOYSA-N

>  <FORMULA>  (2224) 
C10H18O3

>  <EXACT MASS>  (2224) 
186.12559443599997

>  <MW>  (2224) 
186

>  <ID>  (2224) 
JP009025

>  <CONTRIBUTOR>  (2224) 
University of Tokyo Team, {Faculty of Engineering, University of Tokyo

>  <COMMENT>  (2224) 
SMILES=CCCCCOC(=O)CCC(C)=O
InChI=InChI=1S/C10H18O3/c1-3-4-5-8-13-10(12)7-6-9(2)11/h3-8H2,1-2H3
computed SMILES=O=C(OCCCCC)CCC(=O)C
accession=JP009025
date=2016.01.19 (Created 2008.10.21, modified 2011.05.06)
author=SODA AROMATIC CO., LTD.
license=CC BY-NC-SA
exact mass=186.12559
ionization energy=70 eV
ion type=[M]+*
computed spectral entropy=2.6023954147444193
computed normalized entropy=0.757834918937793
SPLASH=splash10-006y-9000000000-57c4dda3455331e66dad
submitter=submitter = University of Tokyo Team (Faculty of Engineering, University of Tokyo)
MoNA Rating=3.75

>  <NUM PEAKS>  (2224) 
31

>  <MASS SPECTRAL PEAKS>  (2224) 
15 2.77
26 1.44
27 14.09
29 11.61
31 1.03
39 6.14
41 16.2
42 10.04
43 99.99
44 2.55
45 1.08
53 1.27
55 11.97
56 5.94
57 2.65
58 1.3
61 1.1
69 1.27
70 11.32
71 16.06
72 2.56
73 3.26
74 32.2
75 9.84
98 4.48
99 75.04
100 4.45
101 14.52
117 10.67
144 2.89
171 1.33

$$$$

     RDKit          2D

 12 11  0  0  0  0  0  0  0  0999 V2000
   -6.8200    5.0625    0.0000 C   0  0  0  0  0  0  0  0  0  0  0  0
   -5.5209    2.8125    0.0000 C   0  0  0  0  0  0  0  0  0  0  0  0
    3.5724    5.0625    0.0000 C   0  0  0  0  0  0  0  0  0  0  0  0
    0.9743    5.0625    0.0000 C   0  0  0  0  0  0  0  0  0  0  0  0
   -0.3248    4.3125    0.0000 C   0  0  0  0  0  0  0  0  0  0  0  0
   -4.2219    5.0625    0.0000 C   0  0  0  0  0  0  0  0  0  0  0  0
   -5.5209    4.3125    0.0000 C   0  0  0  0  0  0  0  0  0  0  0  0
    2.2733    4.3125    0.0000 C   0  0  0  0  0  0  0  0  0  0  0  0
   -1.6238    5.0625    0.0000 C   0  0  0  0  0  0  0  0  0  0  0  0
    2.2733    2.8125    0.0000 O   0  0  0  0  0  0  0  0  0  0  0  0
   -1.6238    6.5625    0.0000 O   0  0  0  0  0  0  0  0  0  0  0  0
   -2.9228    4.3125    0.0000 O   0  0  0  0  0  0  0  0  0  0  0  0
  5  4  1  0
  7  1  1  0
  7  2  1  0
  7  6  1  0
  8  3  1  0
  8  4  1  0
  9  5  1  0
 10  8  2  0
 11  9  2  0
 12  6  1  0
 12  9  1  0
M  END
>  <NAME>  (2225) 
ISOBUTYL LEVULINATE

>  <SYNONYMS>  (2225) 


>  <SPECTRUM TYPE>  (2225) 
MS1

>  <INSTRUMENT TYPE>  (2225) 
EI-B

>  <INSTRUMENT>  (2225) 
HITACHI M-80B

>  <ION MODE>  (2225) 
P

>  <INCHIKEY>  (2225) 
WETOYPNHZMSVFZ-UHFFFAOYSA-N

>  <FORMULA>  (2225) 
C9H16O3

>  <EXACT MASS>  (2225) 
172.109944372

>  <MW>  (2225) 
172

>  <ID>  (2225) 
JP009024

>  <CONTRIBUTOR>  (2225) 
University of Tokyo Team, {Faculty of Engineering, University of Tokyo

>  <COMMENT>  (2225) 
SMILES=CC(C)COC(=O)CCC(C)=O
InChI=InChI=1S/C9H16O3/c1-7(2)6-12-9(11)5-4-8(3)10/h7H,4-6H2,1-3H3
computed SMILES=O=C(OCC(C)C)CCC(=O)C
accession=JP009024
date=2016.01.19 (Created 2008.10.21, modified 2011.05.06)
author=SODA AROMATIC CO., LTD.
license=CC BY-NC-SA
exact mass=172.10994
ionization energy=70 eV
ion type=[M]+*
computed spectral entropy=2.4673084478992346
computed normalized entropy=0.7572852489501545
SPLASH=splash10-0007-9000000000-4e4a38b1475d3f910215
submitter=submitter = University of Tokyo Team (Faculty of Engineering, University of Tokyo)
MoNA Rating=3.75

>  <NUM PEAKS>  (2225) 
26

>  <MASS SPECTRAL PEAKS>  (2225) 
15 3.96
26 1.48
27 13.67
29 13.15
31 1.23
39 8.99
41 22.23
42 5.92
43 87.42
44 1.66
55 6.65
56 16.74
57 34.98
58 2.39
71 9.63
72 1.83
73 3.1
74 16.76
75 1.91
98 3.09
99 99.99
100 6.25
101 8.97
117 11.29
130 3.3
157 1.17

$$$$

     RDKit          2D

 12 11  0  0  0  0  0  0  0  0999 V2000
    2.9228    5.4375    0.0000 C   0  0  0  0  0  0  0  0  0  0  0  0
   -8.7685    6.1875    0.0000 C   0  0  0  0  0  0  0  0  0  0  0  0
    1.6238    6.1875    0.0000 C   0  0  0  0  0  0  0  0  0  0  0  0
    0.3248    5.4375    0.0000 C   0  0  0  0  0  0  0  0  0  0  0  0
   -6.1704    6.1875    0.0000 C   0  0  0  0  0  0  0  0  0  0  0  0
   -4.8714    5.4375    0.0000 C   0  0  0  0  0  0  0  0  0  0  0  0
   -0.9743    6.1875    0.0000 C   0  0  0  0  0  0  0  0  0  0  0  0
   -7.4695    5.4375    0.0000 C   0  0  0  0  0  0  0  0  0  0  0  0
   -3.5724    6.1875    0.0000 C   0  0  0  0  0  0  0  0  0  0  0  0
   -7.4695    3.9375    0.0000 O   0  0  0  0  0  0  0  0  0  0  0  0
   -3.5724    7.6875    0.0000 O   0  0  0  0  0  0  0  0  0  0  0  0
   -2.2733    5.4375    0.0000 O   0  0  0  0  0  0  0  0  0  0  0  0
  3  1  1  0
  4  3  1  0
  6  5  1  0
  7  4  1  0
  8  2  1  0
  8  5  1  0
  9  6  1  0
 10  8  2  0
 11  9  2  0
 12  7  1  0
 12  9  1  0
M  END
>  <NAME>  (2226) 
BUTYL LEVULINATE

>  <SYNONYMS>  (2226) 


>  <SPECTRUM TYPE>  (2226) 
MS1

>  <INSTRUMENT TYPE>  (2226) 
EI-B

>  <INSTRUMENT>  (2226) 
HITACHI M-80B

>  <ION MODE>  (2226) 
P

>  <INCHIKEY>  (2226) 
ISBWNEKJSSLXOD-UHFFFAOYSA-N

>  <FORMULA>  (2226) 
C9H16O3

>  <EXACT MASS>  (2226) 
172.10994437199997

>  <MW>  (2226) 
172

>  <ID>  (2226) 
JP009023

>  <CONTRIBUTOR>  (2226) 
University of Tokyo Team, {Faculty of Engineering, University of Tokyo

>  <COMMENT>  (2226) 
SMILES=CCCCOC(=O)CCC(C)=O
cas=2052-15-5
InChI=InChI=1S/C9H16O3/c1-3-4-7-12-9(11)6-5-8(2)10/h3-7H2,1-2H3
computed SMILES=O=C(OCCCC)CCC(=O)C
accession=JP009023
date=2016.01.19 (Created 2008.10.21, modified 2011.05.06)
author=SODA AROMATIC CO., LTD.
license=CC BY-NC-SA
exact mass=172.10994
ionization energy=70 eV
ion type=[M]+*
computed spectral entropy=2.644538467618024
computed normalized entropy=0.785359707355634
SPLASH=splash10-0007-9000000000-dd754b510d9a5b964618
submitter=submitter = University of Tokyo Team (Faculty of Engineering, University of Tokyo)
MoNA Rating=3.75

>  <NUM PEAKS>  (2226) 
29

>  <MASS SPECTRAL PEAKS>  (2226) 
15 4.23
26 1.91
27 15.78
29 20.41
31 1.35
39 7.46
41 20.03
42 5.89
43 99.99
44 1.97
45 1.38
53 1.21
55 9.61
56 16.3
57 18.18
58 2.04
61 1.53
71 9.39
72 2.36
73 5.91
74 37.65
75 8.6
98 5.04
99 78.89
100 5.39
101 18.59
117 8.77
130 6.19
157 2.69

$$$$

     RDKit          2D

 11 10  0  0  0  0  0  0  0  0999 V2000
    2.5981    4.5000    0.0000 C   0  0  0  0  0  0  0  0  0  0  0  0
   -7.7942    4.5000    0.0000 C   0  0  0  0  0  0  0  0  0  0  0  0
    1.2990    5.2500    0.0000 C   0  0  0  0  0  0  0  0  0  0  0  0
   -5.1962    4.5000    0.0000 C   0  0  0  0  0  0  0  0  0  0  0  0
   -3.8971    5.2500    0.0000 C   0  0  0  0  0  0  0  0  0  0  0  0
    0.0000    4.5000    0.0000 C   0  0  0  0  0  0  0  0  0  0  0  0
   -6.4952    5.2500    0.0000 C   0  0  0  0  0  0  0  0  0  0  0  0
   -2.5981    4.5000    0.0000 C   0  0  0  0  0  0  0  0  0  0  0  0
   -6.4952    6.7500    0.0000 O   0  0  0  0  0  0  0  0  0  0  0  0
   -2.5981    3.0000    0.0000 O   0  0  0  0  0  0  0  0  0  0  0  0
   -1.2990    5.2500    0.0000 O   0  0  0  0  0  0  0  0  0  0  0  0
  3  1  2  0
  5  4  1  0
  6  3  1  0
  7  2  1  0
  7  4  1  0
  8  5  1  0
  9  7  2  0
 10  8  2  0
 11  6  1  0
 11  8  1  0
M  END
>  <NAME>  (2227) 
ALLYL LEVULINATE

>  <SYNONYMS>  (2227) 


>  <SPECTRUM TYPE>  (2227) 
MS1

>  <INSTRUMENT TYPE>  (2227) 
EI-B

>  <INSTRUMENT>  (2227) 
HITACHI M-80B

>  <ION MODE>  (2227) 
P

>  <INCHIKEY>  (2227) 
NETFSRNRGBJVMU-UHFFFAOYSA-N

>  <FORMULA>  (2227) 
C8H12O3

>  <EXACT MASS>  (2227) 
156.07864424399997

>  <MW>  (2227) 
156

>  <ID>  (2227) 
JP009022

>  <CONTRIBUTOR>  (2227) 
University of Tokyo Team, {Faculty of Engineering, University of Tokyo

>  <COMMENT>  (2227) 
SMILES=C=CCOC(=O)CCC(C)=O
InChI=InChI=1S/C8H12O3/c1-3-6-11-8(10)5-4-7(2)9/h3H,1,4-6H2,2H3
computed SMILES=O=C(OCC=C)CCC(=O)C
accession=JP009022
date=2016.01.19 (Created 2008.10.21, modified 2011.05.06)
author=SODA AROMATIC CO., LTD.
license=CC BY-NC-SA
exact mass=156.07864
ionization energy=70 eV
ion type=[M]+*
computed spectral entropy=2.346860284417951
computed normalized entropy=0.7120680967632784
SPLASH=splash10-0006-9000000000-bc7dba27fb5eb2aad6ca
submitter=submitter = University of Tokyo Team (Faculty of Engineering, University of Tokyo)
MoNA Rating=3.75

>  <NUM PEAKS>  (2227) 
27

>  <MASS SPECTRAL PEAKS>  (2227) 
15 5.73
26 3.09
27 11.13
29 4.25
38 1.62
39 17.39
41 48.46
42 6.3
43 99.99
44 2.11
45 1.05
54 1.01
55 11.09
56 5.14
57 7.27
58 5.38
60 6.05
68 3.87
69 1.14
71 9.25
72 2.91
73 2.01
99 66.11
100 4.98
101 1.45
114 1.2
141 1.25

$$$$

     RDKit          2D

  9  8  0  0  0  0  0  0  0  0999 V2000
    2.2733    2.8125    0.0000 C   0  0  0  0  0  0  0  0  0  0  0  0
   -5.5209    2.8125    0.0000 C   0  0  0  0  0  0  0  0  0  0  0  0
   -0.3248    2.8125    0.0000 C   0  0  0  0  0  0  0  0  0  0  0  0
   -1.6238    3.5625    0.0000 C   0  0  0  0  0  0  0  0  0  0  0  0
    0.9743    3.5625    0.0000 C   0  0  0  0  0  0  0  0  0  0  0  0
   -2.9228    2.8125    0.0000 C   0  0  0  0  0  0  0  0  0  0  0  0
    0.9743    5.0625    0.0000 O   0  0  0  0  0  0  0  0  0  0  0  0
   -2.9228    1.3125    0.0000 O   0  0  0  0  0  0  0  0  0  0  0  0
   -4.2219    3.5625    0.0000 O   0  0  0  0  0  0  0  0  0  0  0  0
  4  3  1  0
  5  1  1  0
  5  3  1  0
  6  4  1  0
  7  5  2  0
  8  6  2  0
  9  2  1  0
  9  6  1  0
M  END
>  <NAME>  (2228) 
METHYL LEVULINATE

>  <SYNONYMS>  (2228) 


>  <SPECTRUM TYPE>  (2228) 
MS1

>  <INSTRUMENT TYPE>  (2228) 
EI-B

>  <INSTRUMENT>  (2228) 
HITACHI M-80B

>  <ION MODE>  (2228) 
P

>  <INCHIKEY>  (2228) 
UAGJVSRUFNSIHR-UHFFFAOYSA-N

>  <FORMULA>  (2228) 
C6H10O3

>  <EXACT MASS>  (2228) 
130.06299417999998

>  <MW>  (2228) 
130

>  <ID>  (2228) 
JP009021

>  <CONTRIBUTOR>  (2228) 
University of Tokyo Team, {Faculty of Engineering, University of Tokyo

>  <COMMENT>  (2228) 
SMILES=COC(=O)CCC(C)=O
cas=624-45-3
InChI=InChI=1S/C6H10O3/c1-5(7)3-4-6(8)9-2/h3-4H2,1-2H3
computed SMILES=O=C(OC)CCC(=O)C
accession=JP009021
date=2016.01.19 (Created 2008.10.21, modified 2011.05.06)
author=SODA AROMATIC CO., LTD.
license=CC BY-NC-SA
exact mass=130.06299
ionization energy=70 eV
ion type=[M]+*
computed spectral entropy=2.37529405157454
computed normalized entropy=0.757550130217881
SPLASH=splash10-0006-9000000000-bb7c3071a74cb6e1f66a
submitter=submitter = University of Tokyo Team (Faculty of Engineering, University of Tokyo)
MoNA Rating=3.75

>  <NUM PEAKS>  (2228) 
23

>  <MASS SPECTRAL PEAKS>  (2228) 
15 12.91
26 2.46
27 10.14
29 4.65
31 1.44
39 2.07
41 1.83
42 7.16
43 99.99
44 2.13
45 2.44
55 16.8
56 4.14
57 8.82
59 12.1
71 6.18
87 5.05
88 9.27
98 5.39
99 21.74
100 1.31
115 18.07
130 1.97

$$$$

     RDKit          2D

  8  7  0  0  0  0  0  0  0  0999 V2000
    1.6238    3.1875    0.0000 C   0  0  0  0  0  0  0  0  0  0  0  0
   -4.8714    3.9375    0.0000 C   0  0  0  0  0  0  0  0  0  0  0  0
    0.3248    3.9375    0.0000 C   0  0  0  0  0  0  0  0  0  0  0  0
   -3.5724    3.1875    0.0000 C   0  0  0  0  0  0  0  0  0  0  0  0
   -2.2733    3.9375    0.0000 C   0  0  0  0  0  0  0  0  0  0  0  0
   -3.5724    1.6875    0.0000 O   0  0  0  0  0  0  0  0  0  0  0  0
   -2.2733    5.4375    0.0000 O   0  0  0  0  0  0  0  0  0  0  0  0
   -0.9743    3.1875    0.0000 O   0  0  0  0  0  0  0  0  0  0  0  0
  3  1  1  0
  4  2  1  0
  5  4  1  0
  6  4  2  0
  7  5  2  0
  8  3  1  0
  8  5  1  0
M  END
>  <NAME>  (2229) 
ETHYL PYRUVATE

>  <SYNONYMS>  (2229) 


>  <SPECTRUM TYPE>  (2229) 
MS1

>  <INSTRUMENT TYPE>  (2229) 
EI-B

>  <INSTRUMENT>  (2229) 
HITACHI M-80B

>  <ION MODE>  (2229) 
P

>  <INCHIKEY>  (2229) 
XXRCUYVCPSWGCC-UHFFFAOYSA-N

>  <FORMULA>  (2229) 
C5H8O3

>  <EXACT MASS>  (2229) 
116.04734411599999

>  <MW>  (2229) 
116

>  <ID>  (2229) 
JP009020

>  <CONTRIBUTOR>  (2229) 
University of Tokyo Team, {Faculty of Engineering, University of Tokyo

>  <COMMENT>  (2229) 
SMILES=CCOC(=O)C(C)=O
cas=617-35-6
InChI=InChI=1S/C5H8O3/c1-3-8-5(7)4(2)6/h3H2,1-2H3
computed SMILES=O=C(OCC)C(=O)C
accession=JP009020
date=2016.01.19 (Created 2008.10.21, modified 2011.05.06)
author=SODA AROMATIC CO., LTD.
license=CC BY-NC-SA
exact mass=116.04734
ionization energy=70 eV
ion type=[M]+*
computed spectral entropy=1.253349670276293
computed normalized entropy=0.5443228456962541
SPLASH=splash10-0006-9000000000-ceddbed69eabcd4ec028
submitter=submitter = University of Tokyo Team (Faculty of Engineering, University of Tokyo)
MoNA Rating=3.75

>  <NUM PEAKS>  (2229) 
10

>  <MASS SPECTRAL PEAKS>  (2229) 
15 7.6
26 1.92
27 10.77
29 17.16
42 5.28
43 99.99
44 3.08
45 2.12
61 1.23
116 1.36

$$$$

     RDKit          2D

 18 17  0  0  0  0  0  0  0  0999 V2000
    5.1962    8.2500    0.0000 C   0  0  0  0  0  0  0  0  0  0  0  0
  -14.2894    9.0000    0.0000 C   0  0  0  0  0  0  0  0  0  0  0  0
    3.8971    9.0000    0.0000 C   0  0  0  0  0  0  0  0  0  0  0  0
  -12.9904    8.2500    0.0000 C   0  0  0  0  0  0  0  0  0  0  0  0
    2.5981    8.2500    0.0000 C   0  0  0  0  0  0  0  0  0  0  0  0
  -11.6913    9.0000    0.0000 C   0  0  0  0  0  0  0  0  0  0  0  0
   -3.8971    9.0000    0.0000 C   0  0  0  0  0  0  0  0  0  0  0  0
   -5.1962    8.2500    0.0000 C   0  0  0  0  0  0  0  0  0  0  0  0
   -2.5981    8.2500    0.0000 C   0  0  0  0  0  0  0  0  0  0  0  0
   -6.4952    9.0000    0.0000 C   0  0  0  0  0  0  0  0  0  0  0  0
    1.2990    9.0000    0.0000 C   0  0  0  0  0  0  0  0  0  0  0  0
  -10.3923    8.2500    0.0000 C   0  0  0  0  0  0  0  0  0  0  0  0
   -1.2990    9.0000    0.0000 C   0  0  0  0  0  0  0  0  0  0  0  0
   -7.7942    8.2500    0.0000 C   0  0  0  0  0  0  0  0  0  0  0  0
   -1.2990   10.5000    0.0000 O   0  0  0  0  0  0  0  0  0  0  0  0
   -7.7942    6.7500    0.0000 O   0  0  0  0  0  0  0  0  0  0  0  0
    0.0000    8.2500    0.0000 O   0  0  0  0  0  0  0  0  0  0  0  0
   -9.0933    9.0000    0.0000 O   0  0  0  0  0  0  0  0  0  0  0  0
  3  1  1  0
  4  2  1  0
  5  3  1  0
  6  4  1  0
  8  7  1  0
  9  7  1  0
 10  8  1  0
 11  5  1  0
 12  6  1  0
 13  9  1  0
 14 10  1  0
 15 13  2  0
 16 14  2  0
 17 11  1  0
 17 13  1  0
 18 12  1  0
 18 14  1  0
M  END
>  <NAME>  (2230) 
DIBUTYL ADIPATE

>  <SYNONYMS>  (2230) 


>  <SPECTRUM TYPE>  (2230) 
MS1

>  <INSTRUMENT TYPE>  (2230) 
EI-B

>  <INSTRUMENT>  (2230) 
HITACHI M-80B

>  <ION MODE>  (2230) 
P

>  <INCHIKEY>  (2230) 
XTJFFFGAUHQWII-UHFFFAOYSA-N

>  <FORMULA>  (2230) 
C14H26O4

>  <EXACT MASS>  (2230) 
258.183109312

>  <MW>  (2230) 
258

>  <ID>  (2230) 
JP009019

>  <CONTRIBUTOR>  (2230) 
University of Tokyo Team, {Faculty of Engineering, University of Tokyo

>  <COMMENT>  (2230) 
SMILES=CCCCOC(=O)CCCCC(=O)OCCCC
cas=105-99-7
InChI=InChI=1S/C14H26O4/c1-3-5-11-17-13(15)9-7-8-10-14(16)18-12-6-4-2/h3-12H2,1-2H3
computed SMILES=O=C(OCCCC)CCCCC(=O)OCCCC
accession=JP009019
date=2016.01.19 (Created 2008.10.21, modified 2011.05.06)
author=SODA AROMATIC CO., LTD.
license=CC BY-NC-SA
exact mass=258.18311
ionization energy=70 eV
ion type=[M]+*
computed spectral entropy=3.2276039170818036
computed normalized entropy=0.8129386925089209
SPLASH=splash10-0570-9800000000-3b60744c05ba28ab9a9e
submitter=submitter = University of Tokyo Team (Faculty of Engineering, University of Tokyo)
MoNA Rating=3.75

>  <NUM PEAKS>  (2230) 
53

>  <MASS SPECTRAL PEAKS>  (2230) 
26 1.44
27 19.1
28 13.74
29 55.97
30 1.4
31 2.86
39 11.45
40 1.96
41 61.23
42 9.52
43 18.97
44 1.71
45 3.45
53 2.34
54 3.33
55 58.88
56 49.31
57 42.57
58 2.44
59 8.72
60 8.28
61 3.02
68 1.88
69 3.36
73 11.04
74 1.61
82 1.41
83 19.96
84 7.75
85 1.83
87 34.3
88 1.47
99 2
100 25.87
101 35.84
102 4.99
103 1.5
110 1.86
111 54.01
112 8.44
128 3.02
129 98.7
130 6.94
143 26.84
144 1.94
156 27
157 3.41
158 2.53
184 1.75
185 99.99
186 10.48
187 1.27
203 2.02

$$$$

     RDKit          2D

 16 15  0  0  0  0  0  0  0  0999 V2000
    4.5466    7.1250    0.0000 C   0  0  0  0  0  0  0  0  0  0  0  0
  -12.3409    7.8750    0.0000 C   0  0  0  0  0  0  0  0  0  0  0  0
    3.2476    7.8750    0.0000 C   0  0  0  0  0  0  0  0  0  0  0  0
  -11.0418    7.1250    0.0000 C   0  0  0  0  0  0  0  0  0  0  0  0
   -3.2476    7.1250    0.0000 C   0  0  0  0  0  0  0  0  0  0  0  0
   -4.5466    7.8750    0.0000 C   0  0  0  0  0  0  0  0  0  0  0  0
   -1.9486    7.8750    0.0000 C   0  0  0  0  0  0  0  0  0  0  0  0
   -5.8457    7.1250    0.0000 C   0  0  0  0  0  0  0  0  0  0  0  0
    1.9486    7.1250    0.0000 C   0  0  0  0  0  0  0  0  0  0  0  0
   -9.7428    7.8750    0.0000 C   0  0  0  0  0  0  0  0  0  0  0  0
   -0.6495    7.1250    0.0000 C   0  0  0  0  0  0  0  0  0  0  0  0
   -7.1447    7.8750    0.0000 C   0  0  0  0  0  0  0  0  0  0  0  0
   -0.6495    5.6250    0.0000 O   0  0  0  0  0  0  0  0  0  0  0  0
   -7.1447    9.3750    0.0000 O   0  0  0  0  0  0  0  0  0  0  0  0
    0.6495    7.8750    0.0000 O   0  0  0  0  0  0  0  0  0  0  0  0
   -8.4437    7.1250    0.0000 O   0  0  0  0  0  0  0  0  0  0  0  0
  3  1  2  0
  4  2  2  0
  6  5  1  0
  7  5  1  0
  8  6  1  0
  9  3  1  0
 10  4  1  0
 11  7  1  0
 12  8  1  0
 13 11  2  0
 14 12  2  0
 15  9  1  0
 15 11  1  0
 16 10  1  0
 16 12  1  0
M  END
>  <NAME>  (2231) 
DIALLYL ADIPATE

>  <SYNONYMS>  (2231) 


>  <SPECTRUM TYPE>  (2231) 
MS1

>  <INSTRUMENT TYPE>  (2231) 
EI-B

>  <INSTRUMENT>  (2231) 
HITACHI M-80B

>  <ION MODE>  (2231) 
P

>  <INCHIKEY>  (2231) 
FPODCVUTIPDRTE-UHFFFAOYSA-N

>  <FORMULA>  (2231) 
C12H18O4

>  <EXACT MASS>  (2231) 
226.120509056

>  <MW>  (2231) 
226

>  <ID>  (2231) 
JP009018

>  <CONTRIBUTOR>  (2231) 
University of Tokyo Team, {Faculty of Engineering, University of Tokyo

>  <COMMENT>  (2231) 
SMILES=C=CCOC(=O)CCCCC(=O)OCC=C
cas=2998-04-1
InChI=InChI=1S/C12H18O4/c1-3-9-15-11(13)7-5-6-8-12(14)16-10-4-2/h3-4H,1-2,5-10H2
computed SMILES=O=C(OCC=C)CCCCC(=O)OCC=C
accession=JP009018
date=2016.01.19 (Created 2008.10.21, modified 2011.05.06)
author=SODA AROMATIC CO., LTD.
license=CC BY-NC-SA
exact mass=226.12051
ionization energy=70 eV
ion type=[M]+*
computed spectral entropy=3.026100591751355
computed normalized entropy=0.7903849638480954
SPLASH=splash10-01ox-9500000000-eef5608754f745558d0f
submitter=submitter = University of Tokyo Team (Faculty of Engineering, University of Tokyo)
MoNA Rating=3.75

>  <NUM PEAKS>  (2231) 
46

>  <MASS SPECTRAL PEAKS>  (2231) 
29 8.32
30 1.06
31 4.52
38 1.61
39 25.56
40 1.22
41 99.99
42 7.76
43 9.1
44 1.52
45 1.1
53 1.57
54 1.83
55 34.7
56 8.95
57 14.7
58 3.96
59 3.92
67 2.24
68 1.48
69 2.17
71 1
79 1.09
80 1.78
81 11.77
82 1.21
83 12.59
84 8.15
85 4.7
95 4.33
99 6.39
100 4.94
101 10.17
109 1.54
111 63.69
112 16.48
113 4.38
127 6.27
129 7.28
140 3.75
141 6.35
142 1.47
153 7.23
168 1.39
169 29.8
170 3.41

$$$$

     RDKit          2D

 12 11  0  0  0  0  0  0  0  0999 V2000
   -5.1962    1.5000    0.0000 C   0  0  0  0  0  0  0  0  0  0  0  0
    3.8971    6.7500    0.0000 C   0  0  0  0  0  0  0  0  0  0  0  0
   -3.8971    2.2500    0.0000 C   0  0  0  0  0  0  0  0  0  0  0  0
    2.5981    6.0000    0.0000 C   0  0  0  0  0  0  0  0  0  0  0  0
   -2.5981    6.0000    0.0000 C   0  0  0  0  0  0  0  0  0  0  0  0
   -1.2990    6.7500    0.0000 C   0  0  0  0  0  0  0  0  0  0  0  0
   -2.5981    4.5000    0.0000 C   0  0  0  0  0  0  0  0  0  0  0  0
    0.0000    6.0000    0.0000 C   0  0  0  0  0  0  0  0  0  0  0  0
   -1.2990    3.7500    0.0000 O   0  0  0  0  0  0  0  0  0  0  0  0
    0.0000    4.5000    0.0000 O   0  0  0  0  0  0  0  0  0  0  0  0
   -3.8971    3.7500    0.0000 O   0  0  0  0  0  0  0  0  0  0  0  0
    1.2990    6.7500    0.0000 O   0  0  0  0  0  0  0  0  0  0  0  0
  3  1  1  0
  4  2  1  0
  5  6  2  0
  7  5  1  0
  8  6  1  0
  9  7  2  0
 10  8  2  0
 11  3  1  0
 11  7  1  0
 12  4  1  0
 12  8  1  0
M  END
>  <NAME>  (2232) 
DIETHYL MALEATE

>  <SYNONYMS>  (2232) 


>  <SPECTRUM TYPE>  (2232) 
MS1

>  <INSTRUMENT TYPE>  (2232) 
EI-B

>  <INSTRUMENT>  (2232) 
HITACHI M-80B

>  <ION MODE>  (2232) 
P

>  <INCHIKEY>  (2232) 
IEPRKVQEAMIZSS-WAYWQWQTSA-N

>  <FORMULA>  (2232) 
C8H12O4

>  <EXACT MASS>  (2232) 
172.073558864

>  <MW>  (2232) 
172

>  <ID>  (2232) 
JP009017

>  <CONTRIBUTOR>  (2232) 
University of Tokyo Team, {Faculty of Engineering, University of Tokyo

>  <COMMENT>  (2232) 
SMILES=CCOC(=O)C=CC(=O)OCC
cas=141-05-9
InChI=InChI=1S/C8H12O4/c1-3-11-7(9)5-6-8(10)12-4-2/h5-6H,3-4H2,1-2H3/b6-5-
computed SMILES=O=C(OCC)C=CC(=O)OCC
ionization energy=70 eV
ion type=[M]+*
computed spectral entropy=2.1757255211735624
accession=JP009017
date=2016.01.19 (Created 2008.10.21, modified 2011.05.06)
author=SODA AROMATIC CO., LTD.
license=CC BY-NC-SA
exact mass=172.07356
computed normalized entropy=0.7146360605574931
SPLASH=splash10-002b-9400000000-1575d42a342b7e2bc810
submitter=submitter = University of Tokyo Team (Faculty of Engineering, University of Tokyo)
MoNA Rating=3.75

>  <NUM PEAKS>  (2232) 
21

>  <MASS SPECTRAL PEAKS>  (2232) 
26 4.06
27 7.88
28 2.44
29 11.38
31 2.24
32 1.02
43 2.06
45 5.44
53 2.13
54 8.34
55 4.67
71 3.66
72 1.5
82 6.47
99 99.99
100 10.35
125 1.07
126 17.13
127 33.25
128 8.27
143 3.69

$$$$

     RDKit          2D

 16 15  0  0  0  0  0  0  0  0999 V2000
    3.8971    6.0000    0.0000 C   0  0  0  0  0  0  0  0  0  0  0  0
    2.5981    8.2500    0.0000 C   0  0  0  0  0  0  0  0  0  0  0  0
  -10.3923    6.7500    0.0000 C   0  0  0  0  0  0  0  0  0  0  0  0
   -9.0933    4.5000    0.0000 C   0  0  0  0  0  0  0  0  0  0  0  0
   -2.5981    6.7500    0.0000 C   0  0  0  0  0  0  0  0  0  0  0  0
   -3.8971    6.0000    0.0000 C   0  0  0  0  0  0  0  0  0  0  0  0
   -1.2990    6.0000    0.0000 C   0  0  0  0  0  0  0  0  0  0  0  0
   -5.1962    6.7500    0.0000 C   0  0  0  0  0  0  0  0  0  0  0  0
    2.5981    6.7500    0.0000 C   0  0  0  0  0  0  0  0  0  0  0  0
   -9.0933    6.0000    0.0000 C   0  0  0  0  0  0  0  0  0  0  0  0
    0.0000    6.7500    0.0000 C   0  0  0  0  0  0  0  0  0  0  0  0
   -6.4952    6.0000    0.0000 C   0  0  0  0  0  0  0  0  0  0  0  0
    0.0000    8.2500    0.0000 O   0  0  0  0  0  0  0  0  0  0  0  0
   -6.4952    4.5000    0.0000 O   0  0  0  0  0  0  0  0  0  0  0  0
    1.2990    6.0000    0.0000 O   0  0  0  0  0  0  0  0  0  0  0  0
   -7.7942    6.7500    0.0000 O   0  0  0  0  0  0  0  0  0  0  0  0
  6  5  1  0
  7  5  1  0
  8  6  1  0
  9  1  1  0
  9  2  1  0
 10  3  1  0
 10  4  1  0
 11  7  1  0
 12  8  1  0
 13 11  2  0
 14 12  2  0
 15  9  1  0
 15 11  1  0
 16 10  1  0
 16 12  1  0
M  END
>  <NAME>  (2233) 
DIISOPROPYL ADIPATE

>  <SYNONYMS>  (2233) 


>  <SPECTRUM TYPE>  (2233) 
MS1

>  <INSTRUMENT TYPE>  (2233) 
EI-B

>  <INSTRUMENT>  (2233) 
HITACHI M-80B

>  <ION MODE>  (2233) 
P

>  <INCHIKEY>  (2233) 
ZDQWESQEGGJUCH-UHFFFAOYSA-N

>  <FORMULA>  (2233) 
C12H22O4

>  <EXACT MASS>  (2233) 
230.151809184

>  <MW>  (2233) 
230

>  <ID>  (2233) 
JP009016

>  <CONTRIBUTOR>  (2233) 
University of Tokyo Team, {Faculty of Engineering, University of Tokyo

>  <COMMENT>  (2233) 
SMILES=CC(C)OC(=O)CCCCC(=O)OC(C)C
InChI=InChI=1S/C12H22O4/c1-9(2)15-11(13)7-5-6-8-12(14)16-10(3)4/h9-10H,5-8H2,1-4H3
computed SMILES=O=C(OC(C)C)CCCCC(=O)OC(C)C
accession=JP009016
date=2016.01.19 (Created 2008.10.21, modified 2011.05.06)
author=SODA AROMATIC CO., LTD.
license=CC BY-NC-SA
exact mass=230.15181
ionization energy=70 eV
ion type=[M]+*
computed spectral entropy=2.9478782737494282
computed normalized entropy=0.8163791991579057
SPLASH=splash10-004i-5900000000-94c538c8026f18458559
submitter=submitter = University of Tokyo Team (Faculty of Engineering, University of Tokyo)
MoNA Rating=3.75

>  <NUM PEAKS>  (2233) 
37

>  <MASS SPECTRAL PEAKS>  (2233) 
27 4.19
29 1.8
39 4.05
41 16.46
42 6.18
43 37.78
44 1.02
45 9.7
55 20.94
56 3.77
57 1.25
58 1.11
59 8.18
60 6.25
69 2.22
73 10.78
74 1.11
83 10.01
84 3.46
87 16.41
100 25.58
101 17.26
102 13.91
103 1.43
111 21.02
112 2.72
128 17.75
129 99.99
130 6.16
142 9.41
144 2.46
146 2.73
147 1.6
170 2.19
171 29.51
172 2.33
188 2.07

$$$$

     RDKit          2D

 16 15  0  0  0  0  0  0  0  0999 V2000
    4.5466    7.1250    0.0000 C   0  0  0  0  0  0  0  0  0  0  0  0
  -12.3409    7.8750    0.0000 C   0  0  0  0  0  0  0  0  0  0  0  0
    3.2476    7.8750    0.0000 C   0  0  0  0  0  0  0  0  0  0  0  0
  -11.0418    7.1250    0.0000 C   0  0  0  0  0  0  0  0  0  0  0  0
   -3.2476    7.1250    0.0000 C   0  0  0  0  0  0  0  0  0  0  0  0
   -4.5466    7.8750    0.0000 C   0  0  0  0  0  0  0  0  0  0  0  0
   -1.9486    7.8750    0.0000 C   0  0  0  0  0  0  0  0  0  0  0  0
   -5.8457    7.1250    0.0000 C   0  0  0  0  0  0  0  0  0  0  0  0
    1.9486    7.1250    0.0000 C   0  0  0  0  0  0  0  0  0  0  0  0
   -9.7428    7.8750    0.0000 C   0  0  0  0  0  0  0  0  0  0  0  0
   -0.6495    7.1250    0.0000 C   0  0  0  0  0  0  0  0  0  0  0  0
   -7.1447    7.8750    0.0000 C   0  0  0  0  0  0  0  0  0  0  0  0
   -0.6495    5.6250    0.0000 O   0  0  0  0  0  0  0  0  0  0  0  0
   -7.1447    9.3750    0.0000 O   0  0  0  0  0  0  0  0  0  0  0  0
    0.6495    7.8750    0.0000 O   0  0  0  0  0  0  0  0  0  0  0  0
   -8.4437    7.1250    0.0000 O   0  0  0  0  0  0  0  0  0  0  0  0
  3  1  1  0
  4  2  1  0
  6  5  1  0
  7  5  1  0
  8  6  1  0
  9  3  1  0
 10  4  1  0
 11  7  1  0
 12  8  1  0
 13 11  2  0
 14 12  2  0
 15  9  1  0
 15 11  1  0
 16 10  1  0
 16 12  1  0
M  END
>  <NAME>  (2234) 
DIPROPYL ADIPATE

>  <SYNONYMS>  (2234) 


>  <SPECTRUM TYPE>  (2234) 
MS1

>  <INSTRUMENT TYPE>  (2234) 
EI-B

>  <INSTRUMENT>  (2234) 
HITACHI M-80B

>  <ION MODE>  (2234) 
P

>  <INCHIKEY>  (2234) 
NKOUWLLFHNBUDW-UHFFFAOYSA-N

>  <FORMULA>  (2234) 
C12H22O4

>  <EXACT MASS>  (2234) 
230.151809184

>  <MW>  (2234) 
230

>  <ID>  (2234) 
JP009015

>  <CONTRIBUTOR>  (2234) 
University of Tokyo Team, {Faculty of Engineering, University of Tokyo

>  <COMMENT>  (2234) 
SMILES=CCCOC(=O)CCCCC(=O)OCCC
cas=106-19-4
InChI=InChI=1S/C12H22O4/c1-3-9-15-11(13)7-5-6-8-12(14)16-10-4-2/h3-10H2,1-2H3
computed SMILES=O=C(OCCC)CCCCC(=O)OCCC
accession=JP009015
date=2016.01.19 (Created 2008.10.21, modified 2011.05.06)
author=SODA AROMATIC CO., LTD.
license=CC BY-NC-SA
exact mass=230.15181
ionization energy=70 eV
ion type=[M]+*
computed spectral entropy=3.0980562398070464
computed normalized entropy=0.7960429831025521
SPLASH=splash10-024l-5900000000-fc76702babe73dc56312
submitter=submitter = University of Tokyo Team (Faculty of Engineering, University of Tokyo)
MoNA Rating=3.75

>  <NUM PEAKS>  (2234) 
49

>  <MASS SPECTRAL PEAKS>  (2234) 
26 1.08
27 8.05
28 5.2
29 3.34
31 11.38
32 2.47
39 4.84
41 19.35
42 11.37
43 29.21
45 1.86
54 1.77
55 26.23
56 8.14
57 2.89
58 2.36
59 7.64
60 8.42
61 7.62
68 1.35
69 2.37
73 7.02
74 1.63
82 1.57
83 11.98
84 4.23
85 1.3
87 23.01
88 1.23
99 1.66
100 15.75
101 26.81
102 3.99
103 1.32
110 2.41
111 54.5
112 5.9
115 2.22
128 2.19
129 74.04
130 4.74
142 26.82
143 3.15
144 1.76
170 3.28
171 99.99
172 8.79
173 1.15
189 1.08

$$$$

     RDKit          2D

 14 13  0  0  0  0  0  0  0  0999 V2000
    3.8971    6.0000    0.0000 C   0  0  0  0  0  0  0  0  0  0  0  0
  -10.3923    6.7500    0.0000 C   0  0  0  0  0  0  0  0  0  0  0  0
    2.5981    6.7500    0.0000 C   0  0  0  0  0  0  0  0  0  0  0  0
   -9.0933    6.0000    0.0000 C   0  0  0  0  0  0  0  0  0  0  0  0
   -2.5981    6.7500    0.0000 C   0  0  0  0  0  0  0  0  0  0  0  0
   -3.8971    6.0000    0.0000 C   0  0  0  0  0  0  0  0  0  0  0  0
   -1.2990    6.0000    0.0000 C   0  0  0  0  0  0  0  0  0  0  0  0
   -5.1962    6.7500    0.0000 C   0  0  0  0  0  0  0  0  0  0  0  0
    0.0000    6.7500    0.0000 C   0  0  0  0  0  0  0  0  0  0  0  0
   -6.4952    6.0000    0.0000 C   0  0  0  0  0  0  0  0  0  0  0  0
    0.0000    8.2500    0.0000 O   0  0  0  0  0  0  0  0  0  0  0  0
   -6.4952    4.5000    0.0000 O   0  0  0  0  0  0  0  0  0  0  0  0
    1.2990    6.0000    0.0000 O   0  0  0  0  0  0  0  0  0  0  0  0
   -7.7942    6.7500    0.0000 O   0  0  0  0  0  0  0  0  0  0  0  0
  3  1  1  0
  4  2  1  0
  6  5  1  0
  7  5  1  0
  8  6  1  0
  9  7  1  0
 10  8  1  0
 11  9  2  0
 12 10  2  0
 13  3  1  0
 13  9  1  0
 14  4  1  0
 14 10  1  0
M  END
>  <NAME>  (2235) 
DIETHYL ADIPATE

>  <SYNONYMS>  (2235) 


>  <SPECTRUM TYPE>  (2235) 
MS1

>  <INSTRUMENT TYPE>  (2235) 
EI-B

>  <INSTRUMENT>  (2235) 
HITACHI M-80B

>  <ION MODE>  (2235) 
P

>  <INCHIKEY>  (2235) 
VIZORQUEIQEFRT-UHFFFAOYSA-N

>  <FORMULA>  (2235) 
C10H18O4

>  <EXACT MASS>  (2235) 
202.120509056

>  <MW>  (2235) 
202

>  <ID>  (2235) 
JP009014

>  <CONTRIBUTOR>  (2235) 
University of Tokyo Team, {Faculty of Engineering, University of Tokyo

>  <COMMENT>  (2235) 
SMILES=CCOC(=O)CCCCC(=O)OCC
cas=141-28-6
InChI=InChI=1S/C10H18O4/c1-3-13-9(11)7-5-6-8-10(12)14-4-2/h3-8H2,1-2H3
computed SMILES=O=C(OCC)CCCCC(=O)OCC
accession=JP009014
date=2016.01.19 (Created 2008.10.21, modified 2011.05.06)
author=SODA AROMATIC CO., LTD.
license=CC BY-NC-SA
exact mass=202.12051
ionization energy=70 eV
ion type=[M]+*
computed spectral entropy=3.1919057595100826
computed normalized entropy=0.8159220319208601
SPLASH=splash10-0bvi-7900000000-4940c26e9caf839d0016
submitter=submitter = University of Tokyo Team (Faculty of Engineering, University of Tokyo)
MoNA Rating=3.75

>  <NUM PEAKS>  (2235) 
50

>  <MASS SPECTRAL PEAKS>  (2235) 
26 1.5
27 13.51
28 3.59
29 36.28
30 1.39
31 4.69
39 3.81
41 11.74
42 9.85
43 16.92
45 12.99
46 1.29
53 1.9
54 3.36
55 49.1
56 13.42
57 3.56
58 1.35
59 6.86
60 14.34
61 6.73
68 2.34
69 4.84
70 4.67
73 24.77
74 3.14
82 2.14
83 21.9
84 5.17
85 1.9
86 1.25
87 10.02
88 18.01
99 3.76
100 6.32
101 33.47
102 3.11
110 3.62
111 99.99
112 6.62
114 1.5
115 53.86
116 2.81
127 1.13
128 61.19
129 17.8
130 3.08
156 9.35
157 89.53
158 5.99

$$$$

     RDKit          2D

 12 11  0  0  0  0  0  0  0  0999 V2000
   -8.4437    5.6250    0.0000 C   0  0  0  0  0  0  0  0  0  0  0  0
    3.2476    4.8750    0.0000 C   0  0  0  0  0  0  0  0  0  0  0  0
   -3.2476    5.6250    0.0000 C   0  0  0  0  0  0  0  0  0  0  0  0
   -1.9486    4.8750    0.0000 C   0  0  0  0  0  0  0  0  0  0  0  0
   -4.5466    4.8750    0.0000 C   0  0  0  0  0  0  0  0  0  0  0  0
   -0.6495    5.6250    0.0000 C   0  0  0  0  0  0  0  0  0  0  0  0
   -5.8457    5.6250    0.0000 C   0  0  0  0  0  0  0  0  0  0  0  0
    0.6495    4.8750    0.0000 C   0  0  0  0  0  0  0  0  0  0  0  0
   -5.8457    7.1250    0.0000 O   0  0  0  0  0  0  0  0  0  0  0  0
    0.6495    3.3750    0.0000 O   0  0  0  0  0  0  0  0  0  0  0  0
   -7.1447    4.8750    0.0000 O   0  0  0  0  0  0  0  0  0  0  0  0
    1.9486    5.6250    0.0000 O   0  0  0  0  0  0  0  0  0  0  0  0
  4  3  1  0
  5  3  1  0
  6  4  1  0
  7  5  1  0
  8  6  1  0
  9  7  2  0
 10  8  2  0
 11  1  1  0
 11  7  1  0
 12  2  1  0
 12  8  1  0
M  END
>  <NAME>  (2236) 
DIMETHYL ADIPATE

>  <SYNONYMS>  (2236) 


>  <SPECTRUM TYPE>  (2236) 
MS1

>  <INSTRUMENT TYPE>  (2236) 
EI-B

>  <INSTRUMENT>  (2236) 
HITACHI M-80B

>  <ION MODE>  (2236) 
P

>  <INCHIKEY>  (2236) 
UDSFAEKRVUSQDD-UHFFFAOYSA-N

>  <FORMULA>  (2236) 
C8H14O4

>  <EXACT MASS>  (2236) 
174.089208928

>  <MW>  (2236) 
174

>  <ID>  (2236) 
JP009013

>  <CONTRIBUTOR>  (2236) 
University of Tokyo Team, {Faculty of Engineering, University of Tokyo

>  <COMMENT>  (2236) 
SMILES=COC(=O)CCCCC(=O)OC
cas=627-93-0
InChI=InChI=1S/C8H14O4/c1-11-7(9)5-3-4-6-8(10)12-2/h3-6H2,1-2H3
computed SMILES=O=C(OC)CCCCC(=O)OC
accession=JP009013
date=2016.01.19 (Created 2008.10.21, modified 2011.05.06)
author=SODA AROMATIC CO., LTD.
license=CC BY-NC-SA
exact mass=174.08921
ionization energy=70 eV
ion type=[M]+*
computed spectral entropy=3.1154202078206414
computed normalized entropy=0.7963706255044578
SPLASH=splash10-08fu-9700000000-533cdf131d0e41342a94
submitter=submitter = University of Tokyo Team (Faculty of Engineering, University of Tokyo)
MoNA Rating=3.75

>  <NUM PEAKS>  (2236) 
50

>  <MASS SPECTRAL PEAKS>  (2236) 
15 4.18
26 1.41
27 7.83
29 9.88
30 1.39
31 5.65
39 8.12
41 22.15
42 13.95
43 24.56
44 1.2
45 5.08
51 1
53 4.17
54 6.94
55 66.47
56 7.72
57 3.61
58 1.4
59 92.4
60 2.87
68 3.63
69 7.49
71 4.2
72 7
73 33.37
74 48.2
75 1.77
81 1.47
82 8
83 25.05
84 2.37
85 1.24
87 16.74
88 3.2
97 4.52
99 2.61
100 2.83
101 79.83
102 3.67
110 3.6
111 72.51
112 4.47
113 2.24
114 99.99
115 23.7
116 1.57
142 17.35
143 70.19
144 4.49

$$$$

     RDKit          2D

 16 15  0  0  0  0  0  0  0  0999 V2000
    4.5466    7.1250    0.0000 C   0  0  0  0  0  0  0  0  0  0  0  0
  -12.3409    7.8750    0.0000 C   0  0  0  0  0  0  0  0  0  0  0  0
    3.2476    7.8750    0.0000 C   0  0  0  0  0  0  0  0  0  0  0  0
  -11.0418    7.1250    0.0000 C   0  0  0  0  0  0  0  0  0  0  0  0
    1.9486    7.1250    0.0000 C   0  0  0  0  0  0  0  0  0  0  0  0
   -9.7428    7.8750    0.0000 C   0  0  0  0  0  0  0  0  0  0  0  0
   -3.2476    7.1250    0.0000 C   0  0  0  0  0  0  0  0  0  0  0  0
   -4.5466    7.8750    0.0000 C   0  0  0  0  0  0  0  0  0  0  0  0
    0.6495    7.8750    0.0000 C   0  0  0  0  0  0  0  0  0  0  0  0
   -8.4437    7.1250    0.0000 C   0  0  0  0  0  0  0  0  0  0  0  0
   -1.9486    7.8750    0.0000 C   0  0  0  0  0  0  0  0  0  0  0  0
   -5.8457    7.1250    0.0000 C   0  0  0  0  0  0  0  0  0  0  0  0
   -1.9486    9.3750    0.0000 O   0  0  0  0  0  0  0  0  0  0  0  0
   -5.8457    5.6250    0.0000 O   0  0  0  0  0  0  0  0  0  0  0  0
   -0.6495    7.1250    0.0000 O   0  0  0  0  0  0  0  0  0  0  0  0
   -7.1447    7.8750    0.0000 O   0  0  0  0  0  0  0  0  0  0  0  0
  3  1  1  0
  4  2  1  0
  5  3  1  0
  6  4  1  0
  8  7  1  0
  9  5  1  0
 10  6  1  0
 11  7  1  0
 12  8  1  0
 13 11  2  0
 14 12  2  0
 15  9  1  0
 15 11  1  0
 16 10  1  0
 16 12  1  0
M  END
>  <NAME>  (2237) 
DIBUTYL SUCCINATE

>  <SYNONYMS>  (2237) 


>  <SPECTRUM TYPE>  (2237) 
MS1

>  <INSTRUMENT TYPE>  (2237) 
EI-B

>  <INSTRUMENT>  (2237) 
HITACHI M-80B

>  <ION MODE>  (2237) 
P

>  <INCHIKEY>  (2237) 
YUXIBTJKHLUKBD-UHFFFAOYSA-N

>  <FORMULA>  (2237) 
C12H22O4

>  <EXACT MASS>  (2237) 
230.151809184

>  <MW>  (2237) 
230

>  <ID>  (2237) 
JP009012

>  <CONTRIBUTOR>  (2237) 
University of Tokyo Team, {Faculty of Engineering, University of Tokyo

>  <COMMENT>  (2237) 
SMILES=CCCCOC(=O)CCC(=O)OCCCC
cas=141-03-7
InChI=InChI=1S/C12H22O4/c1-3-5-9-15-11(13)7-8-12(14)16-10-6-4-2/h3-10H2,1-2H3
computed SMILES=O=C(OCCCC)CCC(=O)OCCCC
accession=JP009012
date=2016.01.19 (Created 2008.10.21, modified 2011.05.06)
author=SODA AROMATIC CO., LTD.
license=CC BY-NC-SA
exact mass=230.15181
ionization energy=70 eV
ion type=[M]+*
computed spectral entropy=1.8599075793115627
computed normalized entropy=0.6434838612820335
SPLASH=splash10-0udi-3900000000-d36f8861e8991054528c
submitter=submitter = University of Tokyo Team (Faculty of Engineering, University of Tokyo)
MoNA Rating=3.75

>  <NUM PEAKS>  (2237) 
18

>  <MASS SPECTRAL PEAKS>  (2237) 
27 2.23
29 6.46
39 1.37
41 9.34
43 1.78
55 5.12
56 11.4
57 12.9
73 2.57
74 2.83
100 1.82
101 99.99
102 4.41
119 2.6
130 1.39
157 17.65
158 1.22
175 3.33

$$$$

     RDKit          2D

 12 11  0  0  0  0  0  0  0  0999 V2000
    3.2476    4.8750    0.0000 C   0  0  0  0  0  0  0  0  0  0  0  0
   -8.4437    5.6250    0.0000 C   0  0  0  0  0  0  0  0  0  0  0  0
    1.9486    5.6250    0.0000 C   0  0  0  0  0  0  0  0  0  0  0  0
   -7.1447    4.8750    0.0000 C   0  0  0  0  0  0  0  0  0  0  0  0
   -1.9486    4.8750    0.0000 C   0  0  0  0  0  0  0  0  0  0  0  0
   -3.2476    5.6250    0.0000 C   0  0  0  0  0  0  0  0  0  0  0  0
   -0.6495    5.6250    0.0000 C   0  0  0  0  0  0  0  0  0  0  0  0
   -4.5466    4.8750    0.0000 C   0  0  0  0  0  0  0  0  0  0  0  0
   -0.6495    7.1250    0.0000 O   0  0  0  0  0  0  0  0  0  0  0  0
   -4.5466    3.3750    0.0000 O   0  0  0  0  0  0  0  0  0  0  0  0
    0.6495    4.8750    0.0000 O   0  0  0  0  0  0  0  0  0  0  0  0
   -5.8457    5.6250    0.0000 O   0  0  0  0  0  0  0  0  0  0  0  0
  3  1  1  0
  4  2  1  0
  6  5  1  0
  7  5  1  0
  8  6  1  0
  9  7  2  0
 10  8  2  0
 11  3  1  0
 11  7  1  0
 12  4  1  0
 12  8  1  0
M  END
>  <NAME>  (2238) 
DIETHYL SUCCINATE

>  <SYNONYMS>  (2238) 


>  <SPECTRUM TYPE>  (2238) 
MS1

>  <INSTRUMENT TYPE>  (2238) 
EI-B

>  <INSTRUMENT>  (2238) 
HITACHI M-80B

>  <ION MODE>  (2238) 
P

>  <INCHIKEY>  (2238) 
DKMROQRQHGEIOW-UHFFFAOYSA-N

>  <FORMULA>  (2238) 
C8H14O4

>  <EXACT MASS>  (2238) 
174.089208928

>  <MW>  (2238) 
174

>  <ID>  (2238) 
JP009011

>  <CONTRIBUTOR>  (2238) 
University of Tokyo Team, {Faculty of Engineering, University of Tokyo

>  <COMMENT>  (2238) 
SMILES=CCOC(=O)CCC(=O)OCC
cas=123-25-1
InChI=InChI=1S/C8H14O4/c1-3-11-7(9)5-6-8(10)12-4-2/h3-6H2,1-2H3
computed SMILES=O=C(OCC)CCC(=O)OCC
accession=JP009011
date=2016.01.19 (Created 2008.10.21, modified 2011.05.06)
author=SODA AROMATIC CO., LTD.
license=CC BY-NC-SA
exact mass=174.08921
ionization energy=70 eV
ion type=[M]+*
computed spectral entropy=2.2188991648274063
computed normalized entropy=0.7288168210994083
SPLASH=splash10-0ufr-3900000000-7f6aa2df583c7cd0c94b
submitter=submitter = University of Tokyo Team (Faculty of Engineering, University of Tokyo)
MoNA Rating=3.75

>  <NUM PEAKS>  (2238) 
21

>  <MASS SPECTRAL PEAKS>  (2238) 
26 1.09
27 8.38
29 17.54
31 1.94
42 1.34
43 2.76
45 7.06
55 14.26
56 8.33
57 2.68
73 13.4
74 8.83
75 1.73
100 5.33
101 99.99
102 12.74
103 1.04
128 15.69
129 69.72
130 5.38
147 2

$$$$

     RDKit          2D

 10  9  0  0  0  0  0  0  0  0999 V2000
   -6.4952    4.5000    0.0000 C   0  0  0  0  0  0  0  0  0  0  0  0
    2.5981    3.7500    0.0000 C   0  0  0  0  0  0  0  0  0  0  0  0
   -2.5981    3.7500    0.0000 C   0  0  0  0  0  0  0  0  0  0  0  0
   -1.2990    4.5000    0.0000 C   0  0  0  0  0  0  0  0  0  0  0  0
   -3.8971    4.5000    0.0000 C   0  0  0  0  0  0  0  0  0  0  0  0
    0.0000    3.7500    0.0000 C   0  0  0  0  0  0  0  0  0  0  0  0
   -3.8971    6.0000    0.0000 O   0  0  0  0  0  0  0  0  0  0  0  0
   -0.0000    2.2500    0.0000 O   0  0  0  0  0  0  0  0  0  0  0  0
   -5.1962    3.7500    0.0000 O   0  0  0  0  0  0  0  0  0  0  0  0
    1.2990    4.5000    0.0000 O   0  0  0  0  0  0  0  0  0  0  0  0
  4  3  1  0
  5  3  1  0
  6  4  1  0
  7  5  2  0
  8  6  2  0
  9  1  1  0
  9  5  1  0
 10  2  1  0
 10  6  1  0
M  END
>  <NAME>  (2239) 
DIMETHYL SUCCINATE

>  <SYNONYMS>  (2239) 


>  <SPECTRUM TYPE>  (2239) 
MS1

>  <INSTRUMENT TYPE>  (2239) 
EI-B

>  <INSTRUMENT>  (2239) 
HITACHI M-80B

>  <ION MODE>  (2239) 
P

>  <INCHIKEY>  (2239) 
MUXOBHXGJLMRAB-UHFFFAOYSA-N

>  <FORMULA>  (2239) 
C6H10O4

>  <EXACT MASS>  (2239) 
146.0579088

>  <MW>  (2239) 
146

>  <ID>  (2239) 
JP009010

>  <CONTRIBUTOR>  (2239) 
University of Tokyo Team, {Faculty of Engineering, University of Tokyo

>  <COMMENT>  (2239) 
SMILES=COC(=O)CCC(=O)OC
cas=106-65-0
InChI=InChI=1S/C6H10O4/c1-9-5(7)3-4-6(8)10-2/h3-4H2,1-2H3
computed SMILES=O=C(OC)CCC(=O)OC
accession=JP009010
date=2016.01.19 (Created 2008.10.21, modified 2011.05.06)
author=SODA AROMATIC CO., LTD.
license=CC BY-NC-SA
exact mass=146.05791
ionization energy=70 eV
ion type=[M]+*
computed spectral entropy=1.9476559943381604
computed normalized entropy=0.6874371103835643
SPLASH=splash10-066r-8900000000-cbb2443772e2180e08e1
submitter=submitter = University of Tokyo Team (Faculty of Engineering, University of Tokyo)
MoNA Rating=3.75

>  <NUM PEAKS>  (2239) 
17

>  <MASS SPECTRAL PEAKS>  (2239) 
15 2
26 1.31
27 4
29 2.93
31 1.55
41 1.44
42 1.98
43 1.5
45 4.17
55 41.29
56 4.62
57 4.33
59 33.68
87 14.21
114 26.45
115 99.99
116 6.29

$$$$

     RDKit          2D

 15 14  0  0  0  0  0  0  0  0999 V2000
   -3.0492    1.9414    0.0000 C   0  0  0  0  0  0  0  0  0  0  0  0
   -0.1567    3.6114    0.0000 C   0  0  0  0  0  0  0  0  0  0  0  0
    2.5981    4.5000    0.0000 C   0  0  0  0  0  0  0  0  0  0  0  0
   -7.7942    4.5000    0.0000 C   0  0  0  0  0  0  0  0  0  0  0  0
   -3.5623    3.3509    0.0000 C   0  0  0  0  0  0  0  0  0  0  0  0
   -1.6339    3.3509    0.0000 C   0  0  0  0  0  0  0  0  0  0  0  0
    1.2990    5.2500    0.0000 C   0  0  0  0  0  0  0  0  0  0  0  0
   -6.4952    5.2500    0.0000 C   0  0  0  0  0  0  0  0  0  0  0  0
   -1.2990    5.2500    0.0000 C   0  0  0  0  0  0  0  0  0  0  0  0
   -3.8971    5.2500    0.0000 C   0  0  0  0  0  0  0  0  0  0  0  0
   -2.5981    4.5000    0.0000 C   0  0  0  0  0  0  0  0  0  0  0  0
   -1.2990    6.7500    0.0000 O   0  0  0  0  0  0  0  0  0  0  0  0
   -3.8971    6.7500    0.0000 O   0  0  0  0  0  0  0  0  0  0  0  0
    0.0000    4.5000    0.0000 O   0  0  0  0  0  0  0  0  0  0  0  0
   -5.1962    4.5000    0.0000 O   0  0  0  0  0  0  0  0  0  0  0  0
  5  1  1  0
  6  2  1  0
  7  3  1  0
  8  4  1  0
 11  5  1  0
 11  6  1  0
 11  9  1  0
 11 10  1  0
 12  9  2  0
 13 10  2  0
 14  7  1  0
 14  9  1  0
 15  8  1  0
 15 10  1  0
M  END
>  <NAME>  (2240) 
DIETHYL DIETHYLMALONATE

>  <SYNONYMS>  (2240) 


>  <SPECTRUM TYPE>  (2240) 
MS1

>  <INSTRUMENT TYPE>  (2240) 
EI-B

>  <INSTRUMENT>  (2240) 
HITACHI M-80B

>  <ION MODE>  (2240) 
P

>  <INCHIKEY>  (2240) 
ZKBBUZRGPULIRN-UHFFFAOYSA-N

>  <FORMULA>  (2240) 
C11H20O4

>  <EXACT MASS>  (2240) 
216.13615912

>  <MW>  (2240) 
216

>  <ID>  (2240) 
JP009009

>  <CONTRIBUTOR>  (2240) 
University of Tokyo Team, {Faculty of Engineering, University of Tokyo

>  <COMMENT>  (2240) 
SMILES=CCOC(=O)C(CC)(CC)C(=O)OCC
InChI=InChI=1S/C11H20O4/c1-5-11(6-2,9(12)14-7-3)10(13)15-8-4/h5-8H2,1-4H3
computed SMILES=O=C(OCC)C(C(=O)OCC)(CC)CC
accession=JP009009
date=2016.01.19 (Created 2008.10.21, modified 2011.05.06)
author=SODA AROMATIC CO., LTD.
license=CC BY-NC-SA
exact mass=216.13616
ionization energy=70 eV
ion type=[M]+*
computed spectral entropy=3.4512317202313985
computed normalized entropy=0.8429265460643915
SPLASH=splash10-004i-9600000000-bebdad332459d93d6f69
submitter=submitter = University of Tokyo Team (Faculty of Engineering, University of Tokyo)
MoNA Rating=3.75

>  <NUM PEAKS>  (2240) 
60

>  <MASS SPECTRAL PEAKS>  (2240) 
15 1.26
26 2.12
27 26.16
28 3.22
29 99.99
30 2.31
31 2.19
39 8.42
40 1.92
41 30.77
42 4.01
43 15.34
45 24.2
53 4.81
54 1.58
55 24.21
56 1.29
57 7.94
59 4.49
67 2.68
68 1.82
69 34.46
70 3.38
71 4.81
73 21.25
81 1.22
83 15.82
84 1.05
85 1.36
86 3.28
87 8.28
95 1.33
96 1.89
97 8.9
98 8.61
99 15.27
100 1.37
101 29.92
102 1.43
113 4.73
114 8.64
115 30.85
116 6.64
127 4.87
129 27.69
130 1.67
141 6.19
142 19.45
143 26.17
144 8.84
145 1.25
157 2.17
170 2.46
171 24.45
172 1.89
173 15.69
174 1.43
187 2.16
188 46.16
189 3.89

$$$$

     RDKit          2D

 15 14  0  0  0  0  0  0  0  0999 V2000
    1.9486    5.6250    0.0000 C   0  0  0  0  0  0  0  0  0  0  0  0
   -8.4437    5.6250    0.0000 C   0  0  0  0  0  0  0  0  0  0  0  0
   -5.8457    1.1250    0.0000 C   0  0  0  0  0  0  0  0  0  0  0  0
    0.6495    6.3750    0.0000 C   0  0  0  0  0  0  0  0  0  0  0  0
   -7.1447    6.3750    0.0000 C   0  0  0  0  0  0  0  0  0  0  0  0
   -4.5466    1.8750    0.0000 C   0  0  0  0  0  0  0  0  0  0  0  0
   -0.6495    5.6250    0.0000 C   0  0  0  0  0  0  0  0  0  0  0  0
   -1.9486    6.3750    0.0000 C   0  0  0  0  0  0  0  0  0  0  0  0
   -3.2476    5.6250    0.0000 C   0  0  0  0  0  0  0  0  0  0  0  0
   -4.5466    6.3750    0.0000 C   0  0  0  0  0  0  0  0  0  0  0  0
   -3.2476    4.1250    0.0000 C   0  0  0  0  0  0  0  0  0  0  0  0
   -4.5466    7.8750    0.0000 O   0  0  0  0  0  0  0  0  0  0  0  0
   -1.9486    3.3750    0.0000 O   0  0  0  0  0  0  0  0  0  0  0  0
   -5.8457    5.6250    0.0000 O   0  0  0  0  0  0  0  0  0  0  0  0
   -4.5466    3.3750    0.0000 O   0  0  0  0  0  0  0  0  0  0  0  0
  4  1  1  0
  5  2  1  0
  6  3  1  0
  7  4  1  0
  8  7  1  0
  9  8  1  0
 10  9  1  0
 11  9  1  0
 12 10  2  0
 13 11  2  0
 14  5  1  0
 14 10  1  0
 15  6  1  0
 15 11  1  0
M  END
>  <NAME>  (2241) 
DIETHYL BUTYLMALONATE

>  <SYNONYMS>  (2241) 


>  <SPECTRUM TYPE>  (2241) 
MS1

>  <INSTRUMENT TYPE>  (2241) 
EI-B

>  <INSTRUMENT>  (2241) 
HITACHI M-80B

>  <ION MODE>  (2241) 
P

>  <INCHIKEY>  (2241) 
RPNFNBGRHCUORR-UHFFFAOYSA-N

>  <FORMULA>  (2241) 
C11H20O4

>  <EXACT MASS>  (2241) 
216.13615912

>  <MW>  (2241) 
216

>  <ID>  (2241) 
JP009008

>  <CONTRIBUTOR>  (2241) 
University of Tokyo Team, {Faculty of Engineering, University of Tokyo

>  <COMMENT>  (2241) 
SMILES=CCCCC(C(=O)OCC)C(=O)OCC
cas=133-08-4
InChI=InChI=1S/C11H20O4/c1-4-7-8-9(10(12)14-5-2)11(13)15-6-3/h9H,4-8H2,1-3H3
computed SMILES=O=C(OCC)C(C(=O)OCC)CCCC
license=CC BY-NC-SA
accession=JP009008
date=2016.01.19 (Created 2008.10.21, modified 2011.05.06)
author=SODA AROMATIC CO., LTD.
exact mass=216.13616
ionization energy=70 eV
ion type=[M]+*
computed spectral entropy=3.418600367461502
computed normalized entropy=0.8101893885080185
SPLASH=splash10-0200-9600000000-e596ab5322e0dc486bbb
submitter=submitter = University of Tokyo Team (Faculty of Engineering, University of Tokyo)
MoNA Rating=3.75

>  <NUM PEAKS>  (2241) 
68

>  <MASS SPECTRAL PEAKS>  (2241) 
15 1.6
26 2.29
27 33.95
28 5.34
29 82.94
30 1.86
31 2.83
39 7.81
40 1.58
41 25.81
42 8.35
43 14.36
44 1.18
45 12.09
53 2.57
54 1.4
55 42.86
56 3.89
57 6.19
58 2.32
59 1.55
60 2.15
67 1.91
68 3.69
69 26.02
70 4.97
71 2.16
73 41.15
74 1.79
80 1.04
81 1.89
83 1.82
85 2.41
86 14.21
87 6.72
88 15.51
89 1.01
95 1.7
96 3.36
97 17.3
98 3.24
99 5.33
101 25.02
102 2.09
104 5.27
105 3.37
113 2.6
114 15.53
115 18.78
116 1.24
123 1.27
124 3.32
127 3.83
128 1.53
129 2.25
132 10.76
133 24.61
134 1.59
142 3.28
143 4.35
144 2.19
160 99.99
161 6.25
162 1.2
171 36.79
172 2.91
173 9.6
174 1.33

$$$$

     RDKit          2D

 13 12  0  0  0  0  0  0  0  0999 V2000
   -3.8971    2.2500    0.0000 C   0  0  0  0  0  0  0  0  0  0  0  0
    2.5981    4.5000    0.0000 C   0  0  0  0  0  0  0  0  0  0  0  0
   -7.7942    4.5000    0.0000 C   0  0  0  0  0  0  0  0  0  0  0  0
   -2.5981    3.0000    0.0000 C   0  0  0  0  0  0  0  0  0  0  0  0
    1.2990    5.2500    0.0000 C   0  0  0  0  0  0  0  0  0  0  0  0
   -6.4952    5.2500    0.0000 C   0  0  0  0  0  0  0  0  0  0  0  0
   -2.5981    4.5000    0.0000 C   0  0  0  0  0  0  0  0  0  0  0  0
   -1.2990    5.2500    0.0000 C   0  0  0  0  0  0  0  0  0  0  0  0
   -3.8971    5.2500    0.0000 C   0  0  0  0  0  0  0  0  0  0  0  0
   -1.2990    6.7500    0.0000 O   0  0  0  0  0  0  0  0  0  0  0  0
   -3.8971    6.7500    0.0000 O   0  0  0  0  0  0  0  0  0  0  0  0
    0.0000    4.5000    0.0000 O   0  0  0  0  0  0  0  0  0  0  0  0
   -5.1962    4.5000    0.0000 O   0  0  0  0  0  0  0  0  0  0  0  0
  4  1  1  0
  5  2  1  0
  6  3  1  0
  7  4  1  0
  8  7  1  0
  9  7  1  0
 10  8  2  0
 11  9  2  0
 12  5  1  0
 12  8  1  0
 13  6  1  0
 13  9  1  0
M  END
>  <NAME>  (2242) 
DIETHYL ETHYLMALONATE

>  <SYNONYMS>  (2242) 


>  <SPECTRUM TYPE>  (2242) 
MS1

>  <INSTRUMENT TYPE>  (2242) 
EI-B

>  <INSTRUMENT>  (2242) 
HITACHI M-80B

>  <ION MODE>  (2242) 
P

>  <INCHIKEY>  (2242) 
VQAZCUCWHIIFGE-UHFFFAOYSA-N

>  <FORMULA>  (2242) 
C9H16O4

>  <EXACT MASS>  (2242) 
188.104858992

>  <MW>  (2242) 
188

>  <ID>  (2242) 
JP009007

>  <CONTRIBUTOR>  (2242) 
University of Tokyo Team, {Faculty of Engineering, University of Tokyo

>  <COMMENT>  (2242) 
SMILES=CCOC(=O)C(CC)C(=O)OCC
cas=133-13-1
InChI=InChI=1S/C9H16O4/c1-4-7(8(10)12-5-2)9(11)13-6-3/h7H,4-6H2,1-3H3
computed SMILES=O=C(OCC)C(C(=O)OCC)CC
accession=JP009007
date=2016.01.19 (Created 2008.10.21, modified 2011.05.06)
author=SODA AROMATIC CO., LTD.
license=CC BY-NC-SA
exact mass=188.10486
ionization energy=70 eV
ion type=[M]+*
computed spectral entropy=3.0750945154615192
computed normalized entropy=0.8031816503581175
SPLASH=splash10-00bc-9400000000-defa2f0e55db86b37aff
submitter=submitter = University of Tokyo Team (Faculty of Engineering, University of Tokyo)
MoNA Rating=3.75

>  <NUM PEAKS>  (2242) 
46

>  <MASS SPECTRAL PEAKS>  (2242) 
15 1.65
26 2.69
27 33.11
28 3.9
29 99.99
30 2.14
31 3.81
39 8.98
40 1.87
41 15.72
42 5.54
43 31.07
44 1.15
45 14.13
55 30.98
56 1.03
59 1.34
60 1.12
68 1.99
69 13.02
70 16.77
71 6.81
73 49.84
74 1.82
85 1.12
86 8.38
87 14.88
88 13.15
89 2.15
99 3.12
101 21.68
102 1.06
104 1.77
105 1.34
114 4.8
115 7.11
116 7.55
129 2.17
132 3.67
133 6.33
142 3.46
143 53.97
144 3.93
160 50.53
161 5.24
173 1.14

$$$$

     RDKit          2D

 15 14  0  0  0  0  0  0  0  0999 V2000
   -1.2353    2.0858    0.0000 C   0  0  0  0  0  0  0  0  0  0  0  0
    0.2647    4.6839    0.0000 C   0  0  0  0  0  0  0  0  0  0  0  0
   -1.7844    4.1349    0.0000 C   0  0  0  0  0  0  0  0  0  0  0  0
    8.0589    2.0858    0.0000 C   0  0  0  0  0  0  0  0  0  0  0  0
    8.6079    4.1349    0.0000 C   0  0  0  0  0  0  0  0  0  0  0  0
    6.5589    4.6839    0.0000 C   0  0  0  0  0  0  0  0  0  0  0  0
    3.4118    2.6349    0.0000 C   0  0  0  0  0  0  0  0  0  0  0  0
    2.1127    3.3849    0.0000 C   0  0  0  0  0  0  0  0  0  0  0  0
    4.7108    3.3849    0.0000 C   0  0  0  0  0  0  0  0  0  0  0  0
   -0.4853    3.3849    0.0000 C   0  0  0  0  0  0  0  0  0  0  0  0
    7.3089    3.3849    0.0000 C   0  0  0  0  0  0  0  0  0  0  0  0
    2.1127    4.8849    0.0000 O   0  0  0  0  0  0  0  0  0  0  0  0
    4.7108    4.8849    0.0000 O   0  0  0  0  0  0  0  0  0  0  0  0
    0.8137    2.6349    0.0000 O   0  0  0  0  0  0  0  0  0  0  0  0
    6.0099    2.6349    0.0000 O   0  0  0  0  0  0  0  0  0  0  0  0
  8  7  1  0
  9  7  1  0
 10  1  1  0
 10  2  1  0
 10  3  1  0
 11  4  1  0
 11  5  1  0
 11  6  1  0
 12  8  2  0
 13  9  2  0
 14  8  1  0
 14 10  1  0
 15  9  1  0
 15 11  1  0
M  END
>  <NAME>  (2243) 
DI-TERT-BUTYL MALONATE

>  <SYNONYMS>  (2243) 


>  <SPECTRUM TYPE>  (2243) 
MS1

>  <INSTRUMENT TYPE>  (2243) 
EI-B

>  <INSTRUMENT>  (2243) 
HITACHI M-80B

>  <ION MODE>  (2243) 
P

>  <INCHIKEY>  (2243) 
CLPHAYNBNTVRDI-UHFFFAOYSA-N

>  <FORMULA>  (2243) 
C11H20O4

>  <EXACT MASS>  (2243) 
216.13615912

>  <MW>  (2243) 
216

>  <ID>  (2243) 
JP009006

>  <CONTRIBUTOR>  (2243) 
University of Tokyo Team, {Faculty of Engineering, University of Tokyo

>  <COMMENT>  (2243) 
SMILES=O=C(CC(=O)OC(C)(C)C)OC(C)(C)C
cas=541-16-2
InChI=InChI=1S/C11H20O4/c1-10(2,3)14-8(12)7-9(13)15-11(4,5)6/h7H2,1-6H3
computed SMILES=O=C(OC(C)(C)C)CC(=O)OC(C)(C)C
ion type=[M]+*
accession=JP009006
date=2016.01.19 (Created 2008.10.21, modified 2011.05.06)
author=SODA AROMATIC CO., LTD.
license=CC BY-NC-SA
exact mass=216.13616
ionization energy=70 eV
computed spectral entropy=2.482766322824483
computed normalized entropy=0.7533037658609714
SPLASH=splash10-0a4l-9000000000-1cf9c357da30947c55e2
submitter=submitter = University of Tokyo Team (Faculty of Engineering, University of Tokyo)
MoNA Rating=3.75

>  <NUM PEAKS>  (2243) 
27

>  <MASS SPECTRAL PEAKS>  (2243) 
27 13.97
29 12.12
31 1.44
37 2
38 4.94
39 36.59
41 80.61
42 9.17
43 12.4
44 11.16
45 1.67
50 3.76
51 3.06
53 3.72
54 1.18
55 12.28
56 37.05
57 99.99
58 5.02
59 26.95
60 1.43
69 1.07
87 1.25
105 10.62
115 1.67
145 6.92
161 1.06

$$$$

     RDKit          2D

 15 14  0  0  0  0  0  0  0  0999 V2000
    3.8971    6.7500    0.0000 C   0  0  0  0  0  0  0  0  0  0  0  0
  -11.6913    6.7500    0.0000 C   0  0  0  0  0  0  0  0  0  0  0  0
    2.5981    7.5000    0.0000 C   0  0  0  0  0  0  0  0  0  0  0  0
  -10.3923    7.5000    0.0000 C   0  0  0  0  0  0  0  0  0  0  0  0
    1.2990    6.7500    0.0000 C   0  0  0  0  0  0  0  0  0  0  0  0
   -9.0933    6.7500    0.0000 C   0  0  0  0  0  0  0  0  0  0  0  0
    0.0000    7.5000    0.0000 C   0  0  0  0  0  0  0  0  0  0  0  0
   -7.7942    7.5000    0.0000 C   0  0  0  0  0  0  0  0  0  0  0  0
   -3.8971    6.7500    0.0000 C   0  0  0  0  0  0  0  0  0  0  0  0
   -2.5981    7.5000    0.0000 C   0  0  0  0  0  0  0  0  0  0  0  0
   -5.1962    7.5000    0.0000 C   0  0  0  0  0  0  0  0  0  0  0  0
   -2.5981    9.0000    0.0000 O   0  0  0  0  0  0  0  0  0  0  0  0
   -5.1962    9.0000    0.0000 O   0  0  0  0  0  0  0  0  0  0  0  0
   -1.2990    6.7500    0.0000 O   0  0  0  0  0  0  0  0  0  0  0  0
   -6.4952    6.7500    0.0000 O   0  0  0  0  0  0  0  0  0  0  0  0
  3  1  1  0
  4  2  1  0
  5  3  1  0
  6  4  1  0
  7  5  1  0
  8  6  1  0
 10  9  1  0
 11  9  1  0
 12 10  2  0
 13 11  2  0
 14  7  1  0
 14 10  1  0
 15  8  1  0
 15 11  1  0
M  END
>  <NAME>  (2244) 
DIBUTYL MALONATE

>  <SYNONYMS>  (2244) 


>  <SPECTRUM TYPE>  (2244) 
MS1

>  <INSTRUMENT TYPE>  (2244) 
EI-B

>  <INSTRUMENT>  (2244) 
HITACHI M-80B

>  <ION MODE>  (2244) 
P

>  <INCHIKEY>  (2244) 
NFKGQHYUYGYHIS-UHFFFAOYSA-N

>  <FORMULA>  (2244) 
C11H20O4

>  <EXACT MASS>  (2244) 
216.13615912

>  <MW>  (2244) 
216

>  <ID>  (2244) 
JP009005

>  <CONTRIBUTOR>  (2244) 
University of Tokyo Team, {Faculty of Engineering, University of Tokyo

>  <COMMENT>  (2244) 
SMILES=CCCCOC(=O)CC(=O)OCCCC
cas=1190-39-2
InChI=InChI=1S/C11H20O4/c1-3-5-7-14-10(12)9-11(13)15-8-6-4-2/h3-9H2,1-2H3
computed SMILES=O=C(OCCCC)CC(=O)OCCCC
accession=JP009005
date=2016.01.19 (Created 2008.10.21, modified 2011.05.06)
author=SODA AROMATIC CO., LTD.
license=CC BY-NC-SA
exact mass=216.13616
ionization energy=70 eV
ion type=[M]+*
computed spectral entropy=2.571122809179529
computed normalized entropy=0.7635571506023149
SPLASH=splash10-0a4i-9300000000-1f00b573142085b01e28
submitter=submitter = University of Tokyo Team (Faculty of Engineering, University of Tokyo)
MoNA Rating=3.75

>  <NUM PEAKS>  (2244) 
29

>  <MASS SPECTRAL PEAKS>  (2244) 
29 26.1
30 1.01
31 10.57
39 10.59
41 46.7
42 22.08
43 17.16
44 1.99
45 1.37
53 1.11
55 10.1
56 51.77
57 76.96
58 2.6
60 4.87
61 1.89
69 3.6
71 2.75
72 1.65
73 3.98
83 2.45
87 36.51
88 1.18
105 99.99
106 3.13
116 1.01
143 26.71
144 1.87
161 5.67

$$$$

     RDKit          2D

 13 12  0  0  0  0  0  0  0  0999 V2000
    3.2476    5.6250    0.0000 C   0  0  0  0  0  0  0  0  0  0  0  0
   -9.7428    5.6250    0.0000 C   0  0  0  0  0  0  0  0  0  0  0  0
    1.9486    6.3750    0.0000 C   0  0  0  0  0  0  0  0  0  0  0  0
   -8.4437    6.3750    0.0000 C   0  0  0  0  0  0  0  0  0  0  0  0
    0.6495    5.6250    0.0000 C   0  0  0  0  0  0  0  0  0  0  0  0
   -7.1447    5.6250    0.0000 C   0  0  0  0  0  0  0  0  0  0  0  0
   -3.2476    6.3750    0.0000 C   0  0  0  0  0  0  0  0  0  0  0  0
   -1.9486    5.6250    0.0000 C   0  0  0  0  0  0  0  0  0  0  0  0
   -4.5466    5.6250    0.0000 C   0  0  0  0  0  0  0  0  0  0  0  0
   -1.9486    4.1250    0.0000 O   0  0  0  0  0  0  0  0  0  0  0  0
   -4.5466    4.1250    0.0000 O   0  0  0  0  0  0  0  0  0  0  0  0
   -0.6495    6.3750    0.0000 O   0  0  0  0  0  0  0  0  0  0  0  0
   -5.8457    6.3750    0.0000 O   0  0  0  0  0  0  0  0  0  0  0  0
  3  1  1  0
  4  2  1  0
  5  3  1  0
  6  4  1  0
  8  7  1  0
  9  7  1  0
 10  8  2  0
 11  9  2  0
 12  5  1  0
 12  8  1  0
 13  6  1  0
 13  9  1  0
M  END
>  <NAME>  (2245) 
DIPROPYL MALONATE

>  <SYNONYMS>  (2245) 


>  <SPECTRUM TYPE>  (2245) 
MS1

>  <INSTRUMENT TYPE>  (2245) 
EI-B

>  <INSTRUMENT>  (2245) 
HITACHI M-80B

>  <ION MODE>  (2245) 
P

>  <INCHIKEY>  (2245) 
LWIWFCDNJNZEKB-UHFFFAOYSA-N

>  <FORMULA>  (2245) 
C9H16O4

>  <EXACT MASS>  (2245) 
188.104858992

>  <MW>  (2245) 
188

>  <ID>  (2245) 
JP009004

>  <CONTRIBUTOR>  (2245) 
University of Tokyo Team, {Faculty of Engineering, University of Tokyo

>  <COMMENT>  (2245) 
SMILES=CCCOC(=O)CC(=O)OCCC
InChI=InChI=1S/C9H16O4/c1-3-5-12-8(10)7-9(11)13-6-4-2/h3-7H2,1-2H3
computed SMILES=O=C(OCCC)CC(=O)OCCC
accession=JP009004
date=2016.01.19 (Created 2008.10.21, modified 2011.05.06)
author=SODA AROMATIC CO., LTD.
license=CC BY-NC-SA
exact mass=188.10486
ionization energy=70 eV
ion type=[M]+*
computed spectral entropy=2.431007602678729
computed normalized entropy=0.786468526188477
SPLASH=splash10-0006-9400000000-fed9a401809145c541bd
submitter=submitter = University of Tokyo Team (Faculty of Engineering, University of Tokyo)
MoNA Rating=3.75

>  <NUM PEAKS>  (2245) 
22

>  <MASS SPECTRAL PEAKS>  (2245) 
15 1.88
26 1.54
27 25.1
29 6.74
31 12.72
39 8.05
41 26.97
42 28.15
43 99.99
44 1.31
57 4.5
59 4.79
60 9.78
61 7.9
69 3.44
87 30.24
102 1.77
105 59.52
106 1.68
129 50.41
130 3.19
147 6.78

$$$$

     RDKit          2D

 11 10  0  0  0  0  0  0  0  0999 V2000
    2.5981    4.5000    0.0000 C   0  0  0  0  0  0  0  0  0  0  0  0
   -7.7942    4.5000    0.0000 C   0  0  0  0  0  0  0  0  0  0  0  0
    1.2990    5.2500    0.0000 C   0  0  0  0  0  0  0  0  0  0  0  0
   -6.4952    5.2500    0.0000 C   0  0  0  0  0  0  0  0  0  0  0  0
   -2.5981    4.5000    0.0000 C   0  0  0  0  0  0  0  0  0  0  0  0
   -1.2990    5.2500    0.0000 C   0  0  0  0  0  0  0  0  0  0  0  0
   -3.8971    5.2500    0.0000 C   0  0  0  0  0  0  0  0  0  0  0  0
   -1.2990    6.7500    0.0000 O   0  0  0  0  0  0  0  0  0  0  0  0
   -3.8971    6.7500    0.0000 O   0  0  0  0  0  0  0  0  0  0  0  0
    0.0000    4.5000    0.0000 O   0  0  0  0  0  0  0  0  0  0  0  0
   -5.1962    4.5000    0.0000 O   0  0  0  0  0  0  0  0  0  0  0  0
  3  1  1  0
  4  2  1  0
  6  5  1  0
  7  5  1  0
  8  6  2  0
  9  7  2  0
 10  3  1  0
 10  6  1  0
 11  4  1  0
 11  7  1  0
M  END
>  <NAME>  (2246) 
DIETHYL MALONATE

>  <SYNONYMS>  (2246) 


>  <SPECTRUM TYPE>  (2246) 
MS1

>  <INSTRUMENT TYPE>  (2246) 
EI-B

>  <INSTRUMENT>  (2246) 
HITACHI M-80B

>  <ION MODE>  (2246) 
P

>  <INCHIKEY>  (2246) 
IYXGSMUGOJNHAZ-UHFFFAOYSA-N

>  <FORMULA>  (2246) 
C7H12O4

>  <EXACT MASS>  (2246) 
160.073558864

>  <MW>  (2246) 
160

>  <ID>  (2246) 
JP009003

>  <CONTRIBUTOR>  (2246) 
University of Tokyo Team, {Faculty of Engineering, University of Tokyo

>  <COMMENT>  (2246) 
SMILES=CCOC(=O)CC(=O)OCC
cas=105-53-3
InChI=InChI=1S/C7H12O4/c1-3-10-6(8)5-7(9)11-4-2/h3-5H2,1-2H3
computed SMILES=O=C(OCC)CC(=O)OCC
accession=JP009003
date=2016.01.19 (Created 2008.10.21, modified 2011.05.06)
author=SODA AROMATIC CO., LTD.
license=CC BY-NC-SA
exact mass=160.07356
ionization energy=70 eV
ion type=[M]+*
computed spectral entropy=2.6098705282858297
computed normalized entropy=0.760011721906554
SPLASH=splash10-00ou-9300000000-baedf40984817543fb55
submitter=submitter = University of Tokyo Team (Faculty of Engineering, University of Tokyo)
MoNA Rating=3.75

>  <NUM PEAKS>  (2246) 
31

>  <MASS SPECTRAL PEAKS>  (2246) 
14 1.32
15 3.77
26 3.39
27 30.31
28 4.67
29 99.99
30 2.63
31 9.65
41 3.25
42 39.4
43 59.82
44 1.75
45 17.05
59 1.94
60 20.36
61 6.73
69 4.22
70 3.21
73 2.42
86 1.73
87 10.62
88 27.29
89 1.57
105 3.27
114 1
115 79.91
116 3.07
132 1.88
133 41.19
134 2.01
160 3.4

$$$$

     RDKit          2D

  9  8  0  0  0  0  0  0  0  0999 V2000
    1.9486    3.3750    0.0000 C   0  0  0  0  0  0  0  0  0  0  0  0
   -5.8457    3.3750    0.0000 C   0  0  0  0  0  0  0  0  0  0  0  0
   -1.9486    4.1250    0.0000 C   0  0  0  0  0  0  0  0  0  0  0  0
   -0.6495    3.3750    0.0000 C   0  0  0  0  0  0  0  0  0  0  0  0
   -3.2476    3.3750    0.0000 C   0  0  0  0  0  0  0  0  0  0  0  0
   -0.6495    1.8750    0.0000 O   0  0  0  0  0  0  0  0  0  0  0  0
   -3.2476    1.8750    0.0000 O   0  0  0  0  0  0  0  0  0  0  0  0
    0.6495    4.1250    0.0000 O   0  0  0  0  0  0  0  0  0  0  0  0
   -4.5466    4.1250    0.0000 O   0  0  0  0  0  0  0  0  0  0  0  0
  4  3  1  0
  5  3  1  0
  6  4  2  0
  7  5  2  0
  8  1  1  0
  8  4  1  0
  9  2  1  0
  9  5  1  0
M  END
>  <NAME>  (2247) 
DIMETHYL MALONATE

>  <SYNONYMS>  (2247) 


>  <SPECTRUM TYPE>  (2247) 
MS1

>  <INSTRUMENT TYPE>  (2247) 
EI-B

>  <INSTRUMENT>  (2247) 
HITACHI M-80B

>  <ION MODE>  (2247) 
P

>  <INCHIKEY>  (2247) 
BEPAFCGSDWSTEL-UHFFFAOYSA-N

>  <FORMULA>  (2247) 
C5H8O4

>  <EXACT MASS>  (2247) 
132.042258736

>  <MW>  (2247) 
132

>  <ID>  (2247) 
JP009002

>  <CONTRIBUTOR>  (2247) 
University of Tokyo Team, {Faculty of Engineering, University of Tokyo

>  <COMMENT>  (2247) 
SMILES=COC(=O)CC(=O)OC
cas=108-59-8
InChI=InChI=1S/C5H8O4/c1-8-4(6)3-5(7)9-2/h3H2,1-2H3
computed SMILES=O=C(OC)CC(=O)OC
accession=JP009002
date=2016.01.19 (Created 2008.10.21, modified 2011.05.06)
author=SODA AROMATIC CO., LTD.
license=CC BY-NC-SA
exact mass=132.04226
ionization energy=70 eV
ion type=[M]+*
computed spectral entropy=2.4291638520355554
computed normalized entropy=0.7747307712113621
SPLASH=splash10-0pbc-9200000000-c4cd9445b26712b886f0
submitter=submitter = University of Tokyo Team (Faculty of Engineering, University of Tokyo)
MoNA Rating=3.75

>  <NUM PEAKS>  (2247) 
23

>  <MASS SPECTRAL PEAKS>  (2247) 
14 4.96
15 42.75
27 5.44
29 26.86
30 3.05
31 5.35
41 5.22
42 44.99
43 22.92
44 1.16
45 14.08
57 26.2
58 5.12
59 99.99
60 1.53
69 10.66
74 46.85
75 1.23
100 3.63
101 96.68
102 3.66
104 2.19
132 2.64

$$$$

     RDKit          2D

 16 15  0  0  0  0  0  0  0  0999 V2000
    4.5466    7.1250    0.0000 C   0  0  0  0  0  0  0  0  0  0  0  0
  -12.3409    7.8750    0.0000 C   0  0  0  0  0  0  0  0  0  0  0  0
    3.2476    7.8750    0.0000 C   0  0  0  0  0  0  0  0  0  0  0  0
  -11.0418    7.1250    0.0000 C   0  0  0  0  0  0  0  0  0  0  0  0
    1.9486    7.1250    0.0000 C   0  0  0  0  0  0  0  0  0  0  0  0
   -9.7428    7.8750    0.0000 C   0  0  0  0  0  0  0  0  0  0  0  0
   -3.2476    7.1250    0.0000 C   0  0  0  0  0  0  0  0  0  0  0  0
   -4.5466    7.8750    0.0000 C   0  0  0  0  0  0  0  0  0  0  0  0
    0.6495    7.8750    0.0000 C   0  0  0  0  0  0  0  0  0  0  0  0
   -8.4437    7.1250    0.0000 C   0  0  0  0  0  0  0  0  0  0  0  0
   -1.9486    7.8750    0.0000 C   0  0  0  0  0  0  0  0  0  0  0  0
   -5.8457    7.1250    0.0000 C   0  0  0  0  0  0  0  0  0  0  0  0
   -1.9486    9.3750    0.0000 O   0  0  0  0  0  0  0  0  0  0  0  0
   -5.8457    5.6250    0.0000 O   0  0  0  0  0  0  0  0  0  0  0  0
   -0.6495    7.1250    0.0000 O   0  0  0  0  0  0  0  0  0  0  0  0
   -7.1447    7.8750    0.0000 O   0  0  0  0  0  0  0  0  0  0  0  0
  3  1  1  0
  4  2  1  0
  5  3  1  0
  6  4  1  0
  7  8  2  0
  9  5  1  0
 10  6  1  0
 11  7  1  0
 12  8  1  0
 13 11  2  0
 14 12  2  0
 15  9  1  0
 15 11  1  0
 16 10  1  0
 16 12  1  0
M  END
>  <NAME>  (2248) 
DIBUTYL FUMARATE

>  <SYNONYMS>  (2248) 


>  <SPECTRUM TYPE>  (2248) 
MS1

>  <INSTRUMENT TYPE>  (2248) 
EI-B

>  <INSTRUMENT>  (2248) 
HITACHI M-80B

>  <ION MODE>  (2248) 
P

>  <INCHIKEY>  (2248) 
JBSLOWBPDRZSMB-BQYQJAHWSA-N

>  <FORMULA>  (2248) 
C12H20O4

>  <EXACT MASS>  (2248) 
228.13615912

>  <MW>  (2248) 
228

>  <ID>  (2248) 
JP009001

>  <CONTRIBUTOR>  (2248) 
University of Tokyo Team, {Faculty of Engineering, University of Tokyo

>  <COMMENT>  (2248) 
SMILES=CCCCOC(=O)C=CC(=O)OCCCC
cas=105-75-9
InChI=InChI=1S/C12H20O4/c1-3-5-9-15-11(13)7-8-12(14)16-10-6-4-2/h7-8H,3-6,9-10H2,1-2H3/b8-7+
computed SMILES=O=C(OCCCC)C=CC(=O)OCCCC
accession=JP009001
date=2016.01.19 (Created 2008.10.21, modified 2011.05.06)
author=SODA AROMATIC CO., LTD.
license=CC BY-NC-SA
exact mass=228.13616
ionization energy=70 eV
ion type=[M]+*
computed spectral entropy=2.8002032413455002
computed normalized entropy=0.7940774126180129
SPLASH=splash10-0aor-9400000000-5e930279227a33a98e53
submitter=submitter = University of Tokyo Team (Faculty of Engineering, University of Tokyo)
MoNA Rating=3.75

>  <NUM PEAKS>  (2248) 
34

>  <MASS SPECTRAL PEAKS>  (2248) 
26 3.51
27 14.37
31 9.95
40 2.21
41 36.67
42 7.38
43 15.43
44 5.11
45 3.01
53 6.75
54 13.81
55 19.77
56 96.93
57 33.98
58 2.2
71 5.56
72 4.69
73 1.71
80 1.48
81 8.1
82 11.18
97 2.66
98 3.01
99 36.49
100 14.65
101 1.93
109 2.55
117 98.81
118 4.6
126 2.13
127 8.8
157 2.1
173 34.42
174 3.22

$$$$

     RDKit          2D

 14 13  0  0  0  0  0  0  0  0999 V2000
    3.8971    6.0000    0.0000 C   0  0  0  0  0  0  0  0  0  0  0  0
  -10.3923    6.7500    0.0000 C   0  0  0  0  0  0  0  0  0  0  0  0
    2.5981    6.7500    0.0000 C   0  0  0  0  0  0  0  0  0  0  0  0
   -9.0933    6.0000    0.0000 C   0  0  0  0  0  0  0  0  0  0  0  0
   -2.5981    6.7500    0.0000 C   0  0  0  0  0  0  0  0  0  0  0  0
   -3.8971    6.0000    0.0000 C   0  0  0  0  0  0  0  0  0  0  0  0
    1.2990    6.0000    0.0000 C   0  0  0  0  0  0  0  0  0  0  0  0
   -7.7942    6.7500    0.0000 C   0  0  0  0  0  0  0  0  0  0  0  0
   -1.2990    6.0000    0.0000 C   0  0  0  0  0  0  0  0  0  0  0  0
   -5.1962    6.7500    0.0000 C   0  0  0  0  0  0  0  0  0  0  0  0
   -1.2990    4.5000    0.0000 O   0  0  0  0  0  0  0  0  0  0  0  0
   -5.1962    8.2500    0.0000 O   0  0  0  0  0  0  0  0  0  0  0  0
    0.0000    6.7500    0.0000 O   0  0  0  0  0  0  0  0  0  0  0  0
   -6.4952    6.0000    0.0000 O   0  0  0  0  0  0  0  0  0  0  0  0
  3  1  2  0
  4  2  2  0
  5  6  2  0
  7  3  1  0
  8  4  1  0
  9  5  1  0
 10  6  1  0
 11  9  2  0
 12 10  2  0
 13  7  1  0
 13  9  1  0
 14  8  1  0
 14 10  1  0
M  END
>  <NAME>  (2249) 
DIALLYL FUMARATE

>  <SYNONYMS>  (2249) 


>  <SPECTRUM TYPE>  (2249) 
MS1

>  <INSTRUMENT TYPE>  (2249) 
EI-B

>  <INSTRUMENT>  (2249) 
HITACHI M-80B

>  <ION MODE>  (2249) 
P

>  <INCHIKEY>  (2249) 
ZPOLOEWJWXZUSP-AATRIKPKSA-N

>  <FORMULA>  (2249) 
C10H12O4

>  <EXACT MASS>  (2249) 
196.073558864

>  <MW>  (2249) 
196

>  <ID>  (2249) 
JP009000

>  <CONTRIBUTOR>  (2249) 
University of Tokyo Team, {Faculty of Engineering, University of Tokyo

>  <COMMENT>  (2249) 
SMILES=C=CCOC(=O)C=CC(=O)OCC=C
cas=2807-54-7
InChI=InChI=1S/C10H12O4/c1-3-7-13-9(11)5-6-10(12)14-8-4-2/h3-6H,1-2,7-8H2/b6-5+
computed SMILES=O=C(OCC=C)C=CC(=O)OCC=C
accession=JP009000
date=2016.01.19 (Created 2008.10.21, modified 2011.05.06)
author=SODA AROMATIC CO., LTD.
license=CC BY-NC-SA
exact mass=196.07356
ionization energy=70 eV
ion type=[M]+*
computed spectral entropy=2.876843221664385
computed normalized entropy=0.7696890082504557
SPLASH=splash10-000i-9400000000-19036641226a4176d0bc
submitter=submitter = University of Tokyo Team (Faculty of Engineering, University of Tokyo)
MoNA Rating=3.75

>  <NUM PEAKS>  (2249) 
42

>  <MASS SPECTRAL PEAKS>  (2249) 
26 5.33
27 7.93
28 14.46
29 5.54
30 1.09
31 2.4
37 1.31
38 2.32
39 25.87
41 58.82
42 2.41
43 1.87
45 1.67
53 5.34
54 10.58
55 39.8
56 4.87
57 13.96
58 2.72
65 4.57
66 1.67
67 9.63
68 1.33
69 2.07
71 1.83
81 3.07
82 10.11
83 8.88
93 3.43
97 3.05
98 1.15
99 35.87
100 2
109 1.5
111 35.72
112 2.8
127 1.53
138 1.5
139 99.99
140 7.02
151 1.98
196 2.27

$$$$

     RDKit          2D

 12 11  0  0  0  0  0  0  0  0999 V2000
    3.2476    4.8750    0.0000 C   0  0  0  0  0  0  0  0  0  0  0  0
   -8.4437    5.6250    0.0000 C   0  0  0  0  0  0  0  0  0  0  0  0
    1.9486    5.6250    0.0000 C   0  0  0  0  0  0  0  0  0  0  0  0
   -7.1447    4.8750    0.0000 C   0  0  0  0  0  0  0  0  0  0  0  0
   -1.9486    4.8750    0.0000 C   0  0  0  0  0  0  0  0  0  0  0  0
   -3.2476    5.6250    0.0000 C   0  0  0  0  0  0  0  0  0  0  0  0
   -0.6495    5.6250    0.0000 C   0  0  0  0  0  0  0  0  0  0  0  0
   -4.5466    4.8750    0.0000 C   0  0  0  0  0  0  0  0  0  0  0  0
   -0.6495    7.1250    0.0000 O   0  0  0  0  0  0  0  0  0  0  0  0
   -4.5466    3.3750    0.0000 O   0  0  0  0  0  0  0  0  0  0  0  0
    0.6495    4.8750    0.0000 O   0  0  0  0  0  0  0  0  0  0  0  0
   -5.8457    5.6250    0.0000 O   0  0  0  0  0  0  0  0  0  0  0  0
  3  1  1  0
  4  2  1  0
  5  6  2  0
  7  5  1  0
  8  6  1  0
  9  7  2  0
 10  8  2  0
 11  3  1  0
 11  7  1  0
 12  4  1  0
 12  8  1  0
M  END
>  <NAME>  (2250) 
DIETHYL FUMARATE

>  <SYNONYMS>  (2250) 


>  <SPECTRUM TYPE>  (2250) 
MS1

>  <INSTRUMENT TYPE>  (2250) 
EI-B

>  <INSTRUMENT>  (2250) 
HITACHI M-80B

>  <ION MODE>  (2250) 
P

>  <INCHIKEY>  (2250) 
IEPRKVQEAMIZSS-AATRIKPKSA-N

>  <FORMULA>  (2250) 
C8H12O4

>  <EXACT MASS>  (2250) 
172.073558864

>  <MW>  (2250) 
172

>  <ID>  (2250) 
JP008999

>  <CONTRIBUTOR>  (2250) 
University of Tokyo Team, {Faculty of Engineering, University of Tokyo

>  <COMMENT>  (2250) 
SMILES=CCOC(=O)C=CC(=O)OCC
cas=623-91-6
InChI=InChI=1S/C8H12O4/c1-3-11-7(9)5-6-8(10)12-4-2/h5-6H,3-4H2,1-2H3/b6-5+
computed SMILES=O=C(OCC)C=CC(=O)OCC
accession=JP008999
date=2016.01.19 (Created 2008.10.21, modified 2011.05.06)
author=SODA AROMATIC CO., LTD.
license=CC BY-NC-SA
exact mass=172.07356
ionization energy=70 eV
ion type=[M]+*
computed spectral entropy=2.6414170727043427
computed normalized entropy=0.8014404778191085
SPLASH=splash10-004i-9500000000-eca24e878a62598f55c6
submitter=submitter = University of Tokyo Team (Faculty of Engineering, University of Tokyo)
MoNA Rating=3.75

>  <NUM PEAKS>  (2250) 
27

>  <MASS SPECTRAL PEAKS>  (2250) 
15 2.11
26 12.47
27 25.93
29 37.66
30 1.47
31 1.75
42 1.31
43 6.87
45 11.73
53 12.97
54 17.05
55 22.47
56 1.02
71 12.94
72 2.42
81 6.3
82 13.97
98 2.14
99 59.75
100 11.5
117 3.3
125 1.88
126 27.37
127 99.99
128 9.7
143 3.61
145 2.27

$$$$

     RDKit          2D

 12 12  0  0  0  0  0  0  0  0999 V2000
    2.9223    3.1883    0.0000 C   0  0  0  0  0  0  0  0  0  0  0  0
   -3.5733    0.9379    0.0000 C   0  0  0  0  0  0  0  0  0  0  0  0
    1.6239   -2.0632    0.0000 C   0  0  0  0  0  0  0  0  0  0  0  0
    2.9229   -1.3132    0.0000 C   0  0  0  0  0  0  0  0  0  0  0  0
    0.3244   -1.3123    0.0000 C   0  0  0  0  0  0  0  0  0  0  0  0
    2.9224    0.1877    0.0000 C   0  0  0  0  0  0  0  0  0  0  0  0
    0.3239    0.1885    0.0000 C   0  0  0  0  0  0  0  0  0  0  0  0
    1.6229    0.9385    0.0000 C   0  0  0  0  0  0  0  0  0  0  0  0
   -0.9753    0.9383    0.0000 C   0  0  0  0  0  0  0  0  0  0  0  0
   -0.9755    2.4383    0.0000 O   0  0  0  0  0  0  0  0  0  0  0  0
    1.6232    2.4385    0.0000 O   0  0  0  0  0  0  0  0  0  0  0  0
   -2.2742    0.1881    0.0000 O   0  0  0  0  0  0  0  0  0  0  0  0
  4  3  2  0
  5  3  1  0
  6  4  1  0
  7  5  2  0
  8  6  2  0
  8  7  1  0
  9  7  1  0
 10  9  2  0
 11  1  1  0
 11  8  1  0
 12  2  1  0
 12  9  1  0
M  END
>  <NAME>  (2251) 
METHYL ORTHO-METHOXYBENZOATE

>  <SYNONYMS>  (2251) 
METHYL 2-METHOXYBENZOATE

>  <SPECTRUM TYPE>  (2251) 
MS1

>  <INSTRUMENT TYPE>  (2251) 
EI-B

>  <INSTRUMENT>  (2251) 
HITACHI M-80B

>  <ION MODE>  (2251) 
P

>  <INCHIKEY>  (2251) 
PFYHAAAQPNMZHO-UHFFFAOYSA-N

>  <FORMULA>  (2251) 
C9H10O3

>  <EXACT MASS>  (2251) 
166.06299417999998

>  <MW>  (2251) 
166

>  <ID>  (2251) 
JP008998

>  <CONTRIBUTOR>  (2251) 
University of Tokyo Team, {Faculty of Engineering, University of Tokyo

>  <COMMENT>  (2251) 
SMILES=COC(=O)c(c1)c(OC)ccc1
cas=606-45-1
InChI=InChI=1S/C9H10O3/c1-11-8-6-4-3-5-7(8)9(10)12-2/h3-6H,1-2H3
computed SMILES=O=C(OC)C=1C=CC=CC1OC
accession=JP008998
date=2016.01.19 (Created 2008.10.21, modified 2011.05.06)
author=SODA AROMATIC CO., LTD.
license=CC BY-NC-SA
exact mass=166.06299
ionization energy=70 eV
ion type=[M]+*
computed spectral entropy=2.9722280271549613
computed normalized entropy=0.7902339507949538
SPLASH=splash10-002r-8900000000-57666b6c4d6c08c15eee
submitter=submitter = University of Tokyo Team (Faculty of Engineering, University of Tokyo)
MoNA Rating=3.75

>  <NUM PEAKS>  (2251) 
43

>  <MASS SPECTRAL PEAKS>  (2251) 
15 10.01
27 1.43
29 5.68
30 1.5
31 1.36
37 1.52
38 7.27
39 5.8
45 2.29
50 10.36
51 14.35
52 1.82
53 3.3
59 2.1
61 1.33
62 3.42
63 17.33
64 16.1
65 2.86
74 2.85
75 2.25
76 7.02
77 57.93
78 5.36
79 6.45
91 2.7
92 27.62
93 2.43
95 1.27
104 1.51
105 17.66
106 2.33
107 2.66
120 3.48
121 2.06
133 38.58
134 7.5
135 99.99
136 9.27
137 8.77
151 1.69
166 29.46
167 2.43

$$$$

     RDKit          2D

 18 19  0  0  0  0  0  0  0  0999 V2000
    4.2228    2.7576    0.0000 C   0  0  0  0  0  0  0  0  0  0  0  0
    4.2233    4.2584    0.0000 C   0  0  0  0  0  0  0  0  0  0  0  0
    2.9233    2.0067    0.0000 C   0  0  0  0  0  0  0  0  0  0  0  0
   -6.1701    7.2594    0.0000 C   0  0  0  0  0  0  0  0  0  0  0  0
   -7.4693    6.5096    0.0000 C   0  0  0  0  0  0  0  0  0  0  0  0
    2.9242    5.0084    0.0000 C   0  0  0  0  0  0  0  0  0  0  0  0
    1.6242    2.7567    0.0000 C   0  0  0  0  0  0  0  0  0  0  0  0
   -4.8707    6.5084    0.0000 C   0  0  0  0  0  0  0  0  0  0  0  0
   -7.4690    5.0088    0.0000 C   0  0  0  0  0  0  0  0  0  0  0  0
    0.3257    5.0076    0.0000 C   0  0  0  0  0  0  0  0  0  0  0  0
   -0.9733    4.2576    0.0000 C   0  0  0  0  0  0  0  0  0  0  0  0
    1.6247    4.2576    0.0000 C   0  0  0  0  0  0  0  0  0  0  0  0
   -4.8705    5.0076    0.0000 C   0  0  0  0  0  0  0  0  0  0  0  0
   -6.1696    4.2578    0.0000 C   0  0  0  0  0  0  0  0  0  0  0  0
   -3.5714    4.2576    0.0000 C   0  0  0  0  0  0  0  0  0  0  0  0
   -6.1701    2.7578    0.0000 O   0  0  0  0  0  0  0  0  0  0  0  0
   -3.5714    2.7576    0.0000 O   0  0  0  0  0  0  0  0  0  0  0  0
   -2.2724    5.0076    0.0000 O   0  0  0  0  0  0  0  0  0  0  0  0
  2  1  2  0
  3  1  1  0
  5  4  2  0
  6  2  1  0
  7  3  2  0
  8  4  1  0
  9  5  1  0
 11 10  1  0
 12  6  2  0
 12  7  1  0
 12 10  1  0
 13  8  2  0
 14  9  2  0
 14 13  1  0
 15 13  1  0
 16 14  1  0
 17 15  2  0
 18 11  1  0
 18 15  1  0
M  END
>  <NAME>  (2252) 
PHENYLETHYL SALICYLATE

>  <SYNONYMS>  (2252) 


>  <SPECTRUM TYPE>  (2252) 
MS1

>  <INSTRUMENT TYPE>  (2252) 
EI-B

>  <INSTRUMENT>  (2252) 
HITACHI M-80B

>  <ION MODE>  (2252) 
P

>  <INCHIKEY>  (2252) 
YNMSDIQQNIRGDP-UHFFFAOYSA-N

>  <FORMULA>  (2252) 
C15H14O3

>  <EXACT MASS>  (2252) 
242.094294308

>  <MW>  (2252) 
242

>  <ID>  (2252) 
JP008997

>  <CONTRIBUTOR>  (2252) 
University of Tokyo Team, {Faculty of Engineering, University of Tokyo

>  <COMMENT>  (2252) 
SMILES=Oc(c2)c(ccc2)C(=O)OCCc(c1)cccc1
InChI=InChI=1S/C15H14O3/c16-14-9-5-4-8-13(14)15(17)18-11-10-12-6-2-1-3-7-12/h1-9,16H,10-11H2
computed SMILES=O=C(OCCC=1C=CC=CC1)C=2C=CC=CC2O
accession=JP008997
date=2016.01.19 (Created 2008.10.21, modified 2011.05.06)
author=SODA AROMATIC CO., LTD.
license=CC BY-NC-SA
exact mass=242.09429
ionization energy=70 eV
ion type=[M]+*
computed spectral entropy=2.588230246247829
computed normalized entropy=0.7767321118329987
SPLASH=splash10-0pb9-4900000000-eadf56160c35c6a08145
submitter=submitter = University of Tokyo Team (Faculty of Engineering, University of Tokyo)
MoNA Rating=3.75

>  <NUM PEAKS>  (2252) 
28

>  <MASS SPECTRAL PEAKS>  (2252) 
27 2.69
38 1.63
39 13.79
50 1.89
51 6.45
52 1.45
53 2.46
62 1.2
63 6.18
64 4.91
65 21.58
66 1.42
77 14.5
78 6.25
79 12.29
89 1.24
91 12.78
92 13.36
93 8.66
103 8.83
104 84.35
105 99.99
106 8.47
120 16.82
121 32.29
122 2.26
138 8.47
242 6.08

$$$$

     RDKit          2D

 17 18  0  0  0  0  0  0  0  0999 V2000
   -7.1453    3.6965    0.0000 C   0  0  0  0  0  0  0  0  0  0  0  0
   -7.1458    2.1957    0.0000 C   0  0  0  0  0  0  0  0  0  0  0  0
   -5.8458    4.4473    0.0000 C   0  0  0  0  0  0  0  0  0  0  0  0
    3.2489    2.1961    0.0000 C   0  0  0  0  0  0  0  0  0  0  0  0
    3.2491    3.6961    0.0000 C   0  0  0  0  0  0  0  0  0  0  0  0
   -5.8468    1.4457    0.0000 C   0  0  0  0  0  0  0  0  0  0  0  0
   -4.5468    3.6973    0.0000 C   0  0  0  0  0  0  0  0  0  0  0  0
    1.9488    1.4463    0.0000 C   0  0  0  0  0  0  0  0  0  0  0  0
    1.9492    4.4463    0.0000 C   0  0  0  0  0  0  0  0  0  0  0  0
   -3.2482    1.4465    0.0000 C   0  0  0  0  0  0  0  0  0  0  0  0
   -4.5473    2.1965    0.0000 C   0  0  0  0  0  0  0  0  0  0  0  0
    0.6489    2.1965    0.0000 C   0  0  0  0  0  0  0  0  0  0  0  0
    0.6491    3.6965    0.0000 C   0  0  0  0  0  0  0  0  0  0  0  0
   -0.6502    1.4465    0.0000 C   0  0  0  0  0  0  0  0  0  0  0  0
   -0.6497    4.4469    0.0000 O   0  0  0  0  0  0  0  0  0  0  0  0
   -0.6502   -0.0535    0.0000 O   0  0  0  0  0  0  0  0  0  0  0  0
   -1.9492    2.1965    0.0000 O   0  0  0  0  0  0  0  0  0  0  0  0
  2  1  2  0
  3  1  1  0
  5  4  2  0
  6  2  1  0
  7  3  2  0
  8  4  1  0
  9  5  1  0
 11  6  2  0
 11  7  1  0
 11 10  1  0
 12  8  2  0
 13  9  2  0
 13 12  1  0
 14 12  1  0
 15 13  1  0
 16 14  2  0
 17 10  1  0
 17 14  1  0
M  END
>  <NAME>  (2253) 
BENZYL SALICYLATE

>  <SYNONYMS>  (2253) 


>  <SPECTRUM TYPE>  (2253) 
MS1

>  <INSTRUMENT TYPE>  (2253) 
EI-B

>  <INSTRUMENT>  (2253) 
HITACHI M-80B

>  <ION MODE>  (2253) 
P

>  <INCHIKEY>  (2253) 
ZCTQGTTXIYCGGC-UHFFFAOYSA-N

>  <FORMULA>  (2253) 
C14H12O3

>  <EXACT MASS>  (2253) 
228.07864424399997

>  <MW>  (2253) 
228

>  <ID>  (2253) 
JP008996

>  <CONTRIBUTOR>  (2253) 
University of Tokyo Team, {Faculty of Engineering, University of Tokyo

>  <COMMENT>  (2253) 
SMILES=Oc(c2)c(ccc2)C(=O)OCc(c1)cccc1
cas=118-58-1
InChI=InChI=1S/C14H12O3/c15-13-9-5-4-8-12(13)14(16)17-10-11-6-2-1-3-7-11/h1-9,15H,10H2
computed SMILES=O=C(OCC=1C=CC=CC1)C=2C=CC=CC2O
accession=JP008996
date=2016.01.19 (Created 2008.10.21, modified 2011.05.06)
author=SODA AROMATIC CO., LTD.
license=CC BY-NC-SA
exact mass=228.07864
ionization energy=70 eV
ion type=[M]+*
computed spectral entropy=1.255604910447838
computed normalized entropy=0.5052925873714249
SPLASH=splash10-0006-9000000000-f1bb87f256bac665a791
submitter=submitter = University of Tokyo Team (Faculty of Engineering, University of Tokyo)
MoNA Rating=3.75

>  <NUM PEAKS>  (2253) 
12

>  <MASS SPECTRAL PEAKS>  (2253) 
53 1.05
63 2.67
64 1.63
65 12.38
77 1.56
89 1.58
91 99.99
92 9.82
93 1.29
121 2.49
228 10.79
229 1.49

$$$$

     RDKit          2D

 16 17  0  0  0  0  0  0  0  0999 V2000
    7.4270    2.7908    0.0000 C   0  0  0  0  0  0  0  0  0  0  0  0
    7.4270    1.2908    0.0000 C   0  0  0  0  0  0  0  0  0  0  0  0
    6.1270    3.5408    0.0000 C   0  0  0  0  0  0  0  0  0  0  0  0
   -1.6700    0.5402    0.0000 C   0  0  0  0  0  0  0  0  0  0  0  0
   -1.6700   -0.9598    0.0000 C   0  0  0  0  0  0  0  0  0  0  0  0
    6.1270    0.5408    0.0000 C   0  0  0  0  0  0  0  0  0  0  0  0
    4.8270    2.7908    0.0000 C   0  0  0  0  0  0  0  0  0  0  0  0
   -0.3700    1.2902    0.0000 C   0  0  0  0  0  0  0  0  0  0  0  0
   -0.3700   -1.7098    0.0000 C   0  0  0  0  0  0  0  0  0  0  0  0
    4.8270    1.2908    0.0000 C   0  0  0  0  0  0  0  0  0  0  0  0
    0.9300    0.5402    0.0000 C   0  0  0  0  0  0  0  0  0  0  0  0
    0.9300   -0.9598    0.0000 C   0  0  0  0  0  0  0  0  0  0  0  0
    2.2289    1.2904    0.0000 C   0  0  0  0  0  0  0  0  0  0  0  0
    2.2289   -1.7100    0.0000 O   0  0  0  0  0  0  0  0  0  0  0  0
    2.2287    2.7904    0.0000 O   0  0  0  0  0  0  0  0  0  0  0  0
    3.5281    0.5406    0.0000 O   0  0  0  0  0  0  0  0  0  0  0  0
  2  1  2  0
  3  1  1  0
  5  4  2  0
  6  2  1  0
  7  3  2  0
  8  4  1  0
  9  5  1  0
 10  6  2  0
 10  7  1  0
 11  8  2  0
 12  9  2  0
 12 11  1  0
 13 11  1  0
 14 12  1  0
 15 13  2  0
 16 10  1  0
 16 13  1  0
M  END
>  <NAME>  (2254) 
PHENYL SALICYLATE

>  <SYNONYMS>  (2254) 
SALOL

>  <SPECTRUM TYPE>  (2254) 
MS1

>  <INSTRUMENT TYPE>  (2254) 
EI-B

>  <INSTRUMENT>  (2254) 
HITACHI M-80B

>  <ION MODE>  (2254) 
P

>  <INCHIKEY>  (2254) 
ZQBAKBUEJOMQEX-UHFFFAOYSA-N

>  <FORMULA>  (2254) 
C13H10O3

>  <EXACT MASS>  (2254) 
214.06299417999998

>  <MW>  (2254) 
214

>  <ID>  (2254) 
JP008995

>  <CONTRIBUTOR>  (2254) 
University of Tokyo Team, {Faculty of Engineering, University of Tokyo

>  <COMMENT>  (2254) 
SMILES=Oc(c2)c(ccc2)C(=O)Oc(c1)cccc1
cas=118-55-8
InChI=InChI=1S/C13H10O3/c14-12-9-5-4-8-11(12)13(15)16-10-6-2-1-3-7-10/h1-9,14H
computed SMILES=O=C(OC=1C=CC=CC1)C=2C=CC=CC2O
accession=JP008995
date=2016.01.19 (Created 2008.10.21, modified 2011.05.06)
author=SODA AROMATIC CO., LTD.
license=CC BY-NC-SA
exact mass=214.06299
ionization energy=70 eV
ion type=[M]+*
computed spectral entropy=1.7040043811012633
computed normalized entropy=0.6014387814020732
SPLASH=splash10-00di-4900000000-fcc0d5e766dfb52cf2d9
submitter=submitter = University of Tokyo Team (Faculty of Engineering, University of Tokyo)
MoNA Rating=3.75

>  <NUM PEAKS>  (2254) 
17

>  <MASS SPECTRAL PEAKS>  (2254) 
40 1.75
50 1.58
51 2.47
53 2.32
62 1.28
63 4.45
64 3.45
65 18.1
66 2.54
92 4.53
93 7.9
94 2.94
120 2.44
121 99.99
122 6.69
214 7.68
215 1.28

$$$$

     RDKit          2D

 20 21  0  0  0  0  0  0  0  0999 V2000
    3.6060   -5.8308    0.0000 C   0  0  0  0  0  0  0  0  0  0  0  0
    4.9051   -3.5808    0.0000 C   0  0  0  0  0  0  0  0  0  0  0  0
   -1.5901   -1.3308    0.0000 C   0  0  0  0  0  0  0  0  0  0  0  0
    7.5060    0.9188    0.0000 C   0  0  0  0  0  0  0  0  0  0  0  0
    7.5065    2.4188    0.0000 C   0  0  0  0  0  0  0  0  0  0  0  0
    6.2058    0.1692    0.0000 C   0  0  0  0  0  0  0  0  0  0  0  0
    6.2068    3.1692    0.0000 C   0  0  0  0  0  0  0  0  0  0  0  0
   -0.2916   -3.5817    0.0000 C   0  0  0  0  0  0  0  0  0  0  0  0
    1.0075   -4.3317    0.0000 C   0  0  0  0  0  0  0  0  0  0  0  0
    1.0084   -1.3300    0.0000 C   0  0  0  0  0  0  0  0  0  0  0  0
    3.6060   -4.3308    0.0000 C   0  0  0  0  0  0  0  0  0  0  0  0
   -0.2911   -2.0808    0.0000 C   0  0  0  0  0  0  0  0  0  0  0  0
    2.3070   -3.5808    0.0000 C   0  0  0  0  0  0  0  0  0  0  0  0
    4.9060    0.9196    0.0000 C   0  0  0  0  0  0  0  0  0  0  0  0
    4.9065    2.4196    0.0000 C   0  0  0  0  0  0  0  0  0  0  0  0
    2.3075   -2.0800    0.0000 C   0  0  0  0  0  0  0  0  0  0  0  0
    3.6069    0.1698    0.0000 C   0  0  0  0  0  0  0  0  0  0  0  0
    3.6078    3.1702    0.0000 O   0  0  0  0  0  0  0  0  0  0  0  0
    2.3080    0.9200    0.0000 O   0  0  0  0  0  0  0  0  0  0  0  0
    3.6066   -1.3302    0.0000 O   0  0  0  0  0  0  0  0  0  0  0  0
  5  4  2  0
  6  4  1  0
  7  5  1  0
  9  8  1  0
 11  1  1  0
 11  2  1  0
 12  3  1  0
 12  8  1  0
 12 10  1  0
 13  9  1  0
 13 11  1  0
 14  6  2  0
 15  7  2  0
 15 14  1  0
 16 10  1  0
 16 13  1  0
 17 14  1  0
 18 15  1  0
 19 17  2  0
 20 16  1  0
 20 17  1  0
M  END
>  <NAME>  (2255) 
MENTHYL SALICYLATE

>  <SYNONYMS>  (2255) 


>  <SPECTRUM TYPE>  (2255) 
MS1

>  <INSTRUMENT TYPE>  (2255) 
EI-B

>  <INSTRUMENT>  (2255) 
HITACHI M-80B

>  <ION MODE>  (2255) 
P

>  <INCHIKEY>  (2255) 
SJOXEWUZWQYCGL-UHFFFAOYSA-N

>  <FORMULA>  (2255) 
C17H24O3

>  <EXACT MASS>  (2255) 
276.17254462799997

>  <MW>  (2255) 
276

>  <ID>  (2255) 
JP008994

>  <CONTRIBUTOR>  (2255) 
University of Tokyo Team, {Faculty of Engineering, University of Tokyo

>  <COMMENT>  (2255) 
SMILES=CC(C1)CC(OC(=O)c(c2)c(O)ccc2)C(C1)C(C)C
InChI=InChI=1S/C17H24O3/c1-11(2)13-9-8-12(3)10-16(13)20-17(19)14-6-4-5-7-15(14)18/h4-7,11-13,16,18H,8-10H2,1-3H3
computed SMILES=O=C(OC1CC(C)CCC1C(C)C)C=2C=CC=CC2O
accession=JP008994
date=2016.01.19 (Created 2008.10.21, modified 2011.05.06)
author=SODA AROMATIC CO., LTD.
license=CC BY-NC-SA
exact mass=276.17254
ionization energy=70 eV
ion type=[M]+*
computed spectral entropy=3.227903662321278
computed normalized entropy=0.8338248655200303
SPLASH=splash10-008l-9300000000-a48ed66b887fd4c13167
submitter=submitter = University of Tokyo Team (Faculty of Engineering, University of Tokyo)
MoNA Rating=3.75

>  <NUM PEAKS>  (2255) 
48

>  <MASS SPECTRAL PEAKS>  (2255) 
38 1.14
39 21.72
41 46.94
42 3.16
43 37.15
51 1.38
53 9.51
54 5.48
55 66.19
56 3.91
57 24.04
63 3.26
64 4.25
65 29.5
66 2.63
67 20.9
68 5.25
69 42.88
70 3.09
71 3.99
77 3.08
79 5.15
80 5.48
81 62.95
82 20.69
83 86.27
84 5.02
91 1.73
92 14.82
93 15.59
94 8.68
95 57.93
96 14.61
97 16.13
98 1.21
109 4.55
110 1.49
120 57.93
121 68.61
122 4.5
123 23.37
124 2.18
137 1.35
138 99.99
139 15.89
140 1.3
276 6.63
277 1.27

$$$$

     RDKit          2D

 18 18  0  0  0  0  0  0  0  0999 V2000
   -4.8730    4.6877    0.0000 C   0  0  0  0  0  0  0  0  0  0  0  0
   -0.9755    2.4383    0.0000 C   0  0  0  0  0  0  0  0  0  0  0  0
   -3.5741    5.4379    0.0000 C   0  0  0  0  0  0  0  0  0  0  0  0
    0.3234    3.1885    0.0000 C   0  0  0  0  0  0  0  0  0  0  0  0
   -2.2749    4.6881    0.0000 C   0  0  0  0  0  0  0  0  0  0  0  0
    6.8193    2.4377    0.0000 C   0  0  0  0  0  0  0  0  0  0  0  0
    8.1184    3.1877    0.0000 C   0  0  0  0  0  0  0  0  0  0  0  0
   -0.9760    5.4383    0.0000 C   0  0  0  0  0  0  0  0  0  0  0  0
    5.5198    3.1885    0.0000 C   0  0  0  0  0  0  0  0  0  0  0  0
    8.1179    4.6885    0.0000 C   0  0  0  0  0  0  0  0  0  0  0  0
    1.6221    5.4387    0.0000 C   0  0  0  0  0  0  0  0  0  0  0  0
    0.3232    4.6885    0.0000 C   0  0  0  0  0  0  0  0  0  0  0  0
    5.5193    4.6893    0.0000 C   0  0  0  0  0  0  0  0  0  0  0  0
    6.8184    5.4393    0.0000 C   0  0  0  0  0  0  0  0  0  0  0  0
    4.2202    5.4391    0.0000 C   0  0  0  0  0  0  0  0  0  0  0  0
    6.8186    6.9393    0.0000 O   0  0  0  0  0  0  0  0  0  0  0  0
    4.2199    6.9391    0.0000 O   0  0  0  0  0  0  0  0  0  0  0  0
    2.9212    4.6889    0.0000 O   0  0  0  0  0  0  0  0  0  0  0  0
  3  1  1  0
  4  2  1  0
  5  3  1  0
  7  6  2  0
  8  5  1  0
  9  6  1  0
 10  7  1  0
 12  4  1  0
 12  8  1  0
 12 11  1  0
 13  9  2  0
 14 10  2  0
 14 13  1  0
 15 13  1  0
 16 14  1  0
 17 15  2  0
 18 11  1  0
 18 15  1  0
M  END
>  <NAME>  (2256) 
2-ETHYLHEXYL SALICYLATE

>  <SYNONYMS>  (2256) 


>  <SPECTRUM TYPE>  (2256) 
MS1

>  <INSTRUMENT TYPE>  (2256) 
EI-B

>  <INSTRUMENT>  (2256) 
HITACHI M-80B

>  <ION MODE>  (2256) 
P

>  <INCHIKEY>  (2256) 
FMRHJJZUHUTGKE-UHFFFAOYSA-N

>  <FORMULA>  (2256) 
C15H22O3

>  <EXACT MASS>  (2256) 
250.15689456399997

>  <MW>  (2256) 
250

>  <ID>  (2256) 
JP008993

>  <CONTRIBUTOR>  (2256) 
University of Tokyo Team, {Faculty of Engineering, University of Tokyo

>  <COMMENT>  (2256) 
SMILES=CCCCC(CC)COC(=O)c(c1)c(O)ccc1
InChI=InChI=1S/C15H22O3/c1-3-5-8-12(4-2)11-18-15(17)13-9-6-7-10-14(13)16/h6-7,9-10,12,16H,3-5,8,11H2,1-2H3
computed SMILES=O=C(OCC(CC)CCCC)C=1C=CC=CC1O
accession=JP008993
date=2016.01.19 (Created 2008.10.21, modified 2011.05.06)
author=SODA AROMATIC CO., LTD.
license=CC BY-NC-SA
exact mass=250.15689
ionization energy=70 eV
ion type=[M]+*
computed spectral entropy=2.817576950422536
computed normalized entropy=0.8129808587395283
SPLASH=splash10-00di-9800000000-e6bf91bd63e14169eb92
submitter=submitter = University of Tokyo Team (Faculty of Engineering, University of Tokyo)
MoNA Rating=3.75

>  <NUM PEAKS>  (2256) 
32

>  <MASS SPECTRAL PEAKS>  (2256) 
41 31.7
42 4.91
43 31.2
53 3.02
54 1.01
55 19.19
56 7.9
57 33.88
58 1.25
63 2.49
64 3.18
65 18.42
66 1.22
67 1.24
69 7.36
70 27.19
71 20.82
72 1.05
83 15.16
84 4.24
92 14.85
93 9.86
112 17.1
113 1.62
120 99.99
121 46.95
122 3.16
138 74.94
139 12.56
140 1.04
250 10.02
251 1.61

$$$$

     RDKit          2D

 16 16  0  0  0  0  0  0  0  0999 V2000
   -4.8730    4.6877    0.0000 C   0  0  0  0  0  0  0  0  0  0  0  0
   -3.5741    5.4379    0.0000 C   0  0  0  0  0  0  0  0  0  0  0  0
   -2.2749    4.6881    0.0000 C   0  0  0  0  0  0  0  0  0  0  0  0
   -0.9760    5.4383    0.0000 C   0  0  0  0  0  0  0  0  0  0  0  0
    6.8193    2.4377    0.0000 C   0  0  0  0  0  0  0  0  0  0  0  0
    8.1184    3.1877    0.0000 C   0  0  0  0  0  0  0  0  0  0  0  0
    0.3232    4.6885    0.0000 C   0  0  0  0  0  0  0  0  0  0  0  0
    5.5198    3.1885    0.0000 C   0  0  0  0  0  0  0  0  0  0  0  0
    8.1179    4.6885    0.0000 C   0  0  0  0  0  0  0  0  0  0  0  0
    1.6221    5.4387    0.0000 C   0  0  0  0  0  0  0  0  0  0  0  0
    5.5193    4.6893    0.0000 C   0  0  0  0  0  0  0  0  0  0  0  0
    6.8184    5.4393    0.0000 C   0  0  0  0  0  0  0  0  0  0  0  0
    4.2202    5.4391    0.0000 C   0  0  0  0  0  0  0  0  0  0  0  0
    6.8186    6.9393    0.0000 O   0  0  0  0  0  0  0  0  0  0  0  0
    4.2199    6.9391    0.0000 O   0  0  0  0  0  0  0  0  0  0  0  0
    2.9212    4.6889    0.0000 O   0  0  0  0  0  0  0  0  0  0  0  0
  2  1  1  0
  3  2  1  0
  4  3  1  0
  6  5  2  0
  7  4  1  0
  8  5  1  0
  9  6  1  0
 10  7  1  0
 11  8  2  0
 12  9  2  0
 12 11  1  0
 13 11  1  0
 14 12  1  0
 15 13  2  0
 16 10  1  0
 16 13  1  0
M  END
>  <NAME>  (2257) 
HEXYL  SALICYLATE

>  <SYNONYMS>  (2257) 


>  <SPECTRUM TYPE>  (2257) 
MS1

>  <INSTRUMENT TYPE>  (2257) 
EI-B

>  <INSTRUMENT>  (2257) 
HITACHI M-80B

>  <ION MODE>  (2257) 
P

>  <INCHIKEY>  (2257) 
DUKPKQFHJQGTGU-UHFFFAOYSA-N

>  <FORMULA>  (2257) 
C13H18O3

>  <EXACT MASS>  (2257) 
222.12559443599997

>  <MW>  (2257) 
222

>  <ID>  (2257) 
JP008992

>  <CONTRIBUTOR>  (2257) 
University of Tokyo Team, {Faculty of Engineering, University of Tokyo

>  <COMMENT>  (2257) 
SMILES=CCCCCCOC(=O)c(c1)c(O)ccc1
InChI=InChI=1S/C13H18O3/c1-2-3-4-7-10-16-13(15)11-8-5-6-9-12(11)14/h5-6,8-9,14H,2-4,7,10H2,1H3
computed SMILES=O=C(OCCCCCC)C=1C=CC=CC1O
accession=JP008992
date=2016.01.19 (Created 2008.10.21, modified 2011.05.06)
author=SODA AROMATIC CO., LTD.
license=CC BY-NC-SA
exact mass=222.12559
ionization energy=70 eV
ion type=[M]+*
computed spectral entropy=2.4509828083125123
computed normalized entropy=0.7712213005668846
SPLASH=splash10-00di-6900000000-f18343c179237dba8858
submitter=submitter = University of Tokyo Team (Faculty of Engineering, University of Tokyo)
MoNA Rating=3.75

>  <NUM PEAKS>  (2257) 
24

>  <MASS SPECTRAL PEAKS>  (2257) 
27 7.84
29 5.12
39 10.77
41 14.09
42 2.82
43 23.71
53 2.13
55 7.23
56 2.74
57 1.71
63 2.56
64 3.03
65 12.5
69 2.35
84 1.31
92 14.1
93 6.46
120 99.99
121 28.2
122 1.94
138 42.02
139 5.79
222 13
223 1.54

$$$$

     RDKit          2D

 16 16  0  0  0  0  0  0  0  0999 V2000
    1.9486    5.2490    0.0000 C   0  0  0  0  0  0  0  0  0  0  0  0
    3.2477    4.4992    0.0000 C   0  0  0  0  0  0  0  0  0  0  0  0
    3.2480    2.9992    0.0000 C   0  0  0  0  0  0  0  0  0  0  0  0
    4.5471    2.2494    0.0000 C   0  0  0  0  0  0  0  0  0  0  0  0
   12.3415    5.2525    0.0000 C   0  0  0  0  0  0  0  0  0  0  0  0
   13.6407    4.5029    0.0000 C   0  0  0  0  0  0  0  0  0  0  0  0
    5.8460    2.9996    0.0000 C   0  0  0  0  0  0  0  0  0  0  0  0
   11.0422    4.5012    0.0000 C   0  0  0  0  0  0  0  0  0  0  0  0
   13.6407    3.0021    0.0000 C   0  0  0  0  0  0  0  0  0  0  0  0
    7.1452    2.2498    0.0000 C   0  0  0  0  0  0  0  0  0  0  0  0
   11.0422    3.0004    0.0000 C   0  0  0  0  0  0  0  0  0  0  0  0
   12.3415    2.2508    0.0000 C   0  0  0  0  0  0  0  0  0  0  0  0
    9.7433    2.2502    0.0000 C   0  0  0  0  0  0  0  0  0  0  0  0
   12.3422    0.7508    0.0000 O   0  0  0  0  0  0  0  0  0  0  0  0
    9.7435    0.7502    0.0000 O   0  0  0  0  0  0  0  0  0  0  0  0
    8.4441    3.0000    0.0000 O   0  0  0  0  0  0  0  0  0  0  0  0
  2  1  1  0
  3  2  1  0
  3  4  2  0
  6  5  2  0
  7  4  1  0
  8  5  1  0
  9  6  1  0
 10  7  1  0
 11  8  2  0
 12  9  2  0
 12 11  1  0
 13 11  1  0
 14 12  1  0
 15 13  2  0
 16 10  1  0
 16 13  1  0
M  END
>  <NAME>  (2258) 
CIS-3-HEXENYL SALICYLATE

>  <SYNONYMS>  (2258) 


>  <SPECTRUM TYPE>  (2258) 
MS1

>  <INSTRUMENT TYPE>  (2258) 
EI-B

>  <INSTRUMENT>  (2258) 
HITACHI M-80B

>  <ION MODE>  (2258) 
P

>  <INCHIKEY>  (2258) 
IEPWIPZLLIOZLU-ARJAWSKDSA-N

>  <FORMULA>  (2258) 
C13H16O3

>  <EXACT MASS>  (2258) 
220.10994437199997

>  <MW>  (2258) 
220

>  <ID>  (2258) 
JP008991

>  <CONTRIBUTOR>  (2258) 
University of Tokyo Team, {Faculty of Engineering, University of Tokyo

>  <COMMENT>  (2258) 
SMILES=CCC=CCCOC(=O)c(c1)c(O)ccc1
InChI=InChI=1S/C13H16O3/c1-2-3-4-7-10-16-13(15)11-8-5-6-9-12(11)14/h3-6,8-9,14H,2,7,10H2,1H3/b4-3-
computed SMILES=O=C(OCCC=CCC)C=1C=CC=CC1O
accession=JP008991
date=2016.01.19 (Created 2008.10.21, modified 2011.05.06)
author=SODA AROMATIC CO., LTD.
license=CC BY-NC-SA
exact mass=220.10994
ionization energy=70 eV
ion type=[M]+*
computed spectral entropy=2.9115886822496355
computed normalized entropy=0.7947426475887394
SPLASH=splash10-00yi-9300000000-fd064cad5f590089b816
submitter=submitter = University of Tokyo Team (Faculty of Engineering, University of Tokyo)
MoNA Rating=3.75

>  <NUM PEAKS>  (2258) 
39

>  <MASS SPECTRAL PEAKS>  (2258) 
26 1.27
27 17.24
29 6.37
38 3.58
39 46.76
41 68.05
42 4.28
43 4.95
50 1.94
51 3.13
52 1.66
53 13.61
54 8.34
55 95.43
56 3.49
62 1.53
63 9.66
64 9.37
65 43.23
66 3.77
67 67.76
68 3.77
69 1.23
77 1.42
79 2.04
81 7.22
82 94.81
83 30.99
84 1.67
92 24.97
93 18.69
94 1.37
120 99.99
121 92.92
122 7.49
138 48.42
139 8.87
220 8.56
221 1.16

$$$$

     RDKit          2D

 15 15  0  0  0  0  0  0  0  0999 V2000
   -3.2489    3.0002    0.0000 C   0  0  0  0  0  0  0  0  0  0  0  0
   -1.9502    5.2504    0.0000 C   0  0  0  0  0  0  0  0  0  0  0  0
    5.8453    0.7498    0.0000 C   0  0  0  0  0  0  0  0  0  0  0  0
    7.1443    1.4998    0.0000 C   0  0  0  0  0  0  0  0  0  0  0  0
    4.5458    1.5006    0.0000 C   0  0  0  0  0  0  0  0  0  0  0  0
    7.1439    3.0006    0.0000 C   0  0  0  0  0  0  0  0  0  0  0  0
   -0.6508    3.0006    0.0000 C   0  0  0  0  0  0  0  0  0  0  0  0
    0.6481    3.7508    0.0000 C   0  0  0  0  0  0  0  0  0  0  0  0
   -1.9500    3.7504    0.0000 C   0  0  0  0  0  0  0  0  0  0  0  0
    4.5453    3.0015    0.0000 C   0  0  0  0  0  0  0  0  0  0  0  0
    5.8443    3.7515    0.0000 C   0  0  0  0  0  0  0  0  0  0  0  0
    3.2462    3.7512    0.0000 C   0  0  0  0  0  0  0  0  0  0  0  0
    5.8446    5.2515    0.0000 O   0  0  0  0  0  0  0  0  0  0  0  0
    3.2459    5.2512    0.0000 O   0  0  0  0  0  0  0  0  0  0  0  0
    1.9472    3.0010    0.0000 O   0  0  0  0  0  0  0  0  0  0  0  0
  4  3  2  0
  5  3  1  0
  6  4  1  0
  8  7  1  0
  9  1  1  0
  9  2  1  0
  9  7  1  0
 10  5  2  0
 11  6  2  0
 11 10  1  0
 12 10  1  0
 13 11  1  0
 14 12  2  0
 15  8  1  0
 15 12  1  0
M  END
>  <NAME>  (2259) 
ISOPENTYL SALICYLATE

>  <SYNONYMS>  (2259) 


>  <SPECTRUM TYPE>  (2259) 
MS1

>  <INSTRUMENT TYPE>  (2259) 
EI-B

>  <INSTRUMENT>  (2259) 
HITACHI M-80B

>  <ION MODE>  (2259) 
P

>  <INCHIKEY>  (2259) 
PMGCQNGBLMMXEW-UHFFFAOYSA-N

>  <FORMULA>  (2259) 
C12H16O3

>  <EXACT MASS>  (2259) 
208.10994437199997

>  <MW>  (2259) 
208

>  <ID>  (2259) 
JP008990

>  <CONTRIBUTOR>  (2259) 
University of Tokyo Team, {Faculty of Engineering, University of Tokyo

>  <COMMENT>  (2259) 
SMILES=CC(C)CCOC(=O)c(c1)c(O)ccc1
cas=87-20-7
InChI=InChI=1S/C12H16O3/c1-9(2)7-8-15-12(14)10-5-3-4-6-11(10)13/h3-6,9,13H,7-8H2,1-2H3
computed SMILES=O=C(OCCC(C)C)C=1C=CC=CC1O
accession=JP008990
date=2016.01.19 (Created 2008.10.21, modified 2011.05.06)
author=SODA AROMATIC CO., LTD.
license=CC BY-NC-SA
exact mass=208.10994
ionization energy=70 eV
ion type=[M]+*
computed spectral entropy=2.6928756607986526
computed normalized entropy=0.8265180694841944
SPLASH=splash10-00di-9700000000-e62a29f19910b38602dc
submitter=submitter = University of Tokyo Team (Faculty of Engineering, University of Tokyo)
MoNA Rating=3.75

>  <NUM PEAKS>  (2259) 
26

>  <MASS SPECTRAL PEAKS>  (2259) 
27 8.63
29 5.31
38 1.57
39 17.1
41 15.91
42 4.3
43 43.4
53 3.62
55 14.34
63 5.38
64 5.93
65 18.84
66 1.36
69 1.72
70 21.13
71 11.21
81 1.37
92 18.89
93 8.22
120 99.99
121 37.39
122 2.49
138 36.47
139 7.62
208 19.14
209 2.11

$$$$

     RDKit          2D

 15 15  0  0  0  0  0  0  0  0999 V2000
   -4.2236    4.3129    0.0000 C   0  0  0  0  0  0  0  0  0  0  0  0
   -2.9244    3.5631    0.0000 C   0  0  0  0  0  0  0  0  0  0  0  0
   -1.6255    4.3133    0.0000 C   0  0  0  0  0  0  0  0  0  0  0  0
    6.1698    1.3127    0.0000 C   0  0  0  0  0  0  0  0  0  0  0  0
    7.4688    2.0627    0.0000 C   0  0  0  0  0  0  0  0  0  0  0  0
   -0.3264    3.5635    0.0000 C   0  0  0  0  0  0  0  0  0  0  0  0
    4.8703    2.0635    0.0000 C   0  0  0  0  0  0  0  0  0  0  0  0
    7.4684    3.5635    0.0000 C   0  0  0  0  0  0  0  0  0  0  0  0
    0.9726    4.3137    0.0000 C   0  0  0  0  0  0  0  0  0  0  0  0
    4.8698    3.5643    0.0000 C   0  0  0  0  0  0  0  0  0  0  0  0
    6.1688    4.3143    0.0000 C   0  0  0  0  0  0  0  0  0  0  0  0
    3.5706    4.3141    0.0000 C   0  0  0  0  0  0  0  0  0  0  0  0
    6.1691    5.8143    0.0000 O   0  0  0  0  0  0  0  0  0  0  0  0
    3.5704    5.8141    0.0000 O   0  0  0  0  0  0  0  0  0  0  0  0
    2.2717    3.5639    0.0000 O   0  0  0  0  0  0  0  0  0  0  0  0
  2  1  1  0
  3  2  1  0
  5  4  2  0
  6  3  1  0
  7  4  1  0
  8  5  1  0
  9  6  1  0
 10  7  2  0
 11  8  2  0
 11 10  1  0
 12 10  1  0
 13 11  1  0
 14 12  2  0
 15  9  1  0
 15 12  1  0
M  END
>  <NAME>  (2260) 
AMYL SALICYLATE

>  <SYNONYMS>  (2260) 


>  <SPECTRUM TYPE>  (2260) 
MS1

>  <INSTRUMENT TYPE>  (2260) 
EI-B

>  <INSTRUMENT>  (2260) 
HITACHI M-80B

>  <ION MODE>  (2260) 
P

>  <INCHIKEY>  (2260) 
RANVDUNFZBMTBK-UHFFFAOYSA-N

>  <FORMULA>  (2260) 
C12H16O3

>  <EXACT MASS>  (2260) 
208.109944372

>  <MW>  (2260) 
208

>  <ID>  (2260) 
JP008989

>  <CONTRIBUTOR>  (2260) 
University of Tokyo Team, {Faculty of Engineering, University of Tokyo

>  <COMMENT>  (2260) 
SMILES=CCCCCOC(=O)c(c1)c(O)ccc1
InChI=InChI=1S/C12H16O3/c1-2-3-6-9-15-12(14)10-7-4-5-8-11(10)13/h4-5,7-8,13H,2-3,6,9H2,1H3
computed SMILES=O=C(OCCCCC)C=1C=CC=CC1O
accession=JP008989
date=2016.01.19 (Created 2008.10.21, modified 2011.05.06)
author=SODA AROMATIC CO., LTD.
license=CC BY-NC-SA
exact mass=208.10994
ionization energy=70 eV
ion type=[M]+*
computed spectral entropy=2.301027695682143
computed normalized entropy=0.7557926547595961
SPLASH=splash10-00di-5900000000-88d42e919ce3ddaf593c
submitter=submitter = University of Tokyo Team (Faculty of Engineering, University of Tokyo)
MoNA Rating=3.75

>  <NUM PEAKS>  (2260) 
21

>  <MASS SPECTRAL PEAKS>  (2260) 
38 1.14
39 13.09
41 12.2
42 2.96
43 17.19
53 2.28
55 6.44
63 2.96
64 3.97
65 13.83
66 1.08
70 1.77
92 16.63
93 6.3
120 99.99
121 26.52
122 1.76
138 29.65
139 3.01
208 12.46
209 1.4

$$$$

     RDKit          2D

 14 14  0  0  0  0  0  0  0  0999 V2000
   -3.5739    3.1880    0.0000 C   0  0  0  0  0  0  0  0  0  0  0  0
   -2.2745    0.9382    0.0000 C   0  0  0  0  0  0  0  0  0  0  0  0
    4.2214    0.1873    0.0000 C   0  0  0  0  0  0  0  0  0  0  0  0
    5.5205    0.9373    0.0000 C   0  0  0  0  0  0  0  0  0  0  0  0
    2.9219    0.9382    0.0000 C   0  0  0  0  0  0  0  0  0  0  0  0
    5.5200    2.4382    0.0000 C   0  0  0  0  0  0  0  0  0  0  0  0
   -0.9758    3.1884    0.0000 C   0  0  0  0  0  0  0  0  0  0  0  0
   -2.2747    2.4382    0.0000 C   0  0  0  0  0  0  0  0  0  0  0  0
    2.9214    2.4390    0.0000 C   0  0  0  0  0  0  0  0  0  0  0  0
    4.2205    3.1890    0.0000 C   0  0  0  0  0  0  0  0  0  0  0  0
    1.6223    3.1888    0.0000 C   0  0  0  0  0  0  0  0  0  0  0  0
    4.2207    4.6890    0.0000 O   0  0  0  0  0  0  0  0  0  0  0  0
    1.6220    4.6888    0.0000 O   0  0  0  0  0  0  0  0  0  0  0  0
    0.3233    2.4386    0.0000 O   0  0  0  0  0  0  0  0  0  0  0  0
  4  3  2  0
  5  3  1  0
  6  4  1  0
  8  1  1  0
  8  2  1  0
  8  7  1  0
  9  5  2  0
 10  6  2  0
 10  9  1  0
 11  9  1  0
 12 10  1  0
 13 11  2  0
 14  7  1  0
 14 11  1  0
M  END
>  <NAME>  (2261) 
ISOBUTYL SALICYLATE

>  <SYNONYMS>  (2261) 


>  <SPECTRUM TYPE>  (2261) 
MS1

>  <INSTRUMENT TYPE>  (2261) 
EI-B

>  <INSTRUMENT>  (2261) 
HITACHI M-80B

>  <ION MODE>  (2261) 
P

>  <INCHIKEY>  (2261) 
PTXDBYSCVQQBNF-UHFFFAOYSA-N

>  <FORMULA>  (2261) 
C11H14O3

>  <EXACT MASS>  (2261) 
194.094294308

>  <MW>  (2261) 
194

>  <ID>  (2261) 
JP008988

>  <CONTRIBUTOR>  (2261) 
University of Tokyo Team, {Faculty of Engineering, University of Tokyo

>  <COMMENT>  (2261) 
SMILES=CC(C)COC(=O)c(c1)c(O)ccc1
cas=87-19-4
InChI=InChI=1S/C11H14O3/c1-8(2)7-14-11(13)9-5-3-4-6-10(9)12/h3-6,8,12H,7H2,1-2H3
computed SMILES=O=C(OCC(C)C)C=1C=CC=CC1O
accession=JP008988
date=2016.01.19 (Created 2008.10.21, modified 2011.05.06)
author=SODA AROMATIC CO., LTD.
license=CC BY-NC-SA
exact mass=194.09429
ionization energy=70 eV
ion type=[M]+*
computed spectral entropy=2.392277433607489
computed normalized entropy=0.7629666230778164
SPLASH=splash10-00di-5900000000-246d919341a3efd623a4
submitter=submitter = University of Tokyo Team (Faculty of Engineering, University of Tokyo)
MoNA Rating=3.75

>  <NUM PEAKS>  (2261) 
23

>  <MASS SPECTRAL PEAKS>  (2261) 
27 5.68
29 6.1
38 1.62
39 15.63
41 13.66
43 2.61
53 2.35
55 1.47
56 1.7
57 9.94
63 3.93
64 5
65 15.8
66 1.22
92 17.23
93 7.43
120 99.99
121 33.67
122 2.55
138 29.65
139 2.52
194 12.61
195 1.5

$$$$

     RDKit          2D

 14 14  0  0  0  0  0  0  0  0999 V2000
   -4.2233    3.5628    0.0000 C   0  0  0  0  0  0  0  0  0  0  0  0
   -2.9244    4.3130    0.0000 C   0  0  0  0  0  0  0  0  0  0  0  0
   -1.6252    3.5632    0.0000 C   0  0  0  0  0  0  0  0  0  0  0  0
    4.8709    1.3123    0.0000 C   0  0  0  0  0  0  0  0  0  0  0  0
    6.1700    2.0623    0.0000 C   0  0  0  0  0  0  0  0  0  0  0  0
    3.5714    2.0632    0.0000 C   0  0  0  0  0  0  0  0  0  0  0  0
    6.1695    3.5632    0.0000 C   0  0  0  0  0  0  0  0  0  0  0  0
   -0.3263    4.3134    0.0000 C   0  0  0  0  0  0  0  0  0  0  0  0
    3.5709    3.5640    0.0000 C   0  0  0  0  0  0  0  0  0  0  0  0
    4.8700    4.3140    0.0000 C   0  0  0  0  0  0  0  0  0  0  0  0
    2.2718    4.3138    0.0000 C   0  0  0  0  0  0  0  0  0  0  0  0
    4.8702    5.8140    0.0000 O   0  0  0  0  0  0  0  0  0  0  0  0
    2.2715    5.8138    0.0000 O   0  0  0  0  0  0  0  0  0  0  0  0
    0.9729    3.5636    0.0000 O   0  0  0  0  0  0  0  0  0  0  0  0
  2  1  1  0
  3  2  1  0
  5  4  2  0
  6  4  1  0
  7  5  1  0
  8  3  1  0
  9  6  2  0
 10  7  2  0
 10  9  1  0
 11  9  1  0
 12 10  1  0
 13 11  2  0
 14  8  1  0
 14 11  1  0
M  END
>  <NAME>  (2262) 
BUTYL SALICYLATE

>  <SYNONYMS>  (2262) 


>  <SPECTRUM TYPE>  (2262) 
MS1

>  <INSTRUMENT TYPE>  (2262) 
EI-B

>  <INSTRUMENT>  (2262) 
HITACHI M-80B

>  <ION MODE>  (2262) 
P

>  <INCHIKEY>  (2262) 
YFDUWSBGVPBWKF-UHFFFAOYSA-N

>  <FORMULA>  (2262) 
C11H14O3

>  <EXACT MASS>  (2262) 
194.09429430799997

>  <MW>  (2262) 
194

>  <ID>  (2262) 
JP008987

>  <CONTRIBUTOR>  (2262) 
University of Tokyo Team, {Faculty of Engineering, University of Tokyo

>  <COMMENT>  (2262) 
SMILES=CCCCOC(=O)c(c1)c(O)ccc1
cas=2052-14-4
InChI=InChI=1S/C11H14O3/c1-2-3-8-14-11(13)9-6-4-5-7-10(9)12/h4-7,12H,2-3,8H2,1H3
computed SMILES=O=C(OCCCC)C=1C=CC=CC1O
accession=JP008987
date=2016.01.19 (Created 2008.10.21, modified 2011.05.06)
author=SODA AROMATIC CO., LTD.
license=CC BY-NC-SA
exact mass=194.09429
ionization energy=70 eV
ion type=[M]+*
computed spectral entropy=2.1626978999945794
computed normalized entropy=0.7103570245360917
SPLASH=splash10-00di-4900000000-ecc73d6f1204d08019f2
submitter=submitter = University of Tokyo Team (Faculty of Engineering, University of Tokyo)
MoNA Rating=3.75

>  <NUM PEAKS>  (2262) 
21

>  <MASS SPECTRAL PEAKS>  (2262) 
38 1.19
39 12.06
41 9.43
53 2.14
55 1.44
56 1.35
57 2.37
63 3.46
64 3.97
65 13.42
66 1.15
81 1.04
92 19.2
93 6.2
120 99.99
121 26.08
122 1.91
138 20.07
139 1.96
194 15.45
195 1.65

$$$$

     RDKit          2D

 13 13  0  0  0  0  0  0  0  0999 V2000
    3.2474    5.2504    0.0000 C   0  0  0  0  0  0  0  0  0  0  0  0
    4.5468    3.0006    0.0000 C   0  0  0  0  0  0  0  0  0  0  0  0
   -1.9500    0.7500    0.0000 C   0  0  0  0  0  0  0  0  0  0  0  0
   -1.9500   -0.7500    0.0000 C   0  0  0  0  0  0  0  0  0  0  0  0
   -0.6500    1.5000    0.0000 C   0  0  0  0  0  0  0  0  0  0  0  0
   -0.6500   -1.5000    0.0000 C   0  0  0  0  0  0  0  0  0  0  0  0
    3.2476    3.7504    0.0000 C   0  0  0  0  0  0  0  0  0  0  0  0
    0.6500    0.7500    0.0000 C   0  0  0  0  0  0  0  0  0  0  0  0
    0.6500   -0.7500    0.0000 C   0  0  0  0  0  0  0  0  0  0  0  0
    1.9489    1.5002    0.0000 C   0  0  0  0  0  0  0  0  0  0  0  0
    1.9489   -1.5002    0.0000 O   0  0  0  0  0  0  0  0  0  0  0  0
    3.2481    0.7504    0.0000 O   0  0  0  0  0  0  0  0  0  0  0  0
    1.9487    3.0002    0.0000 O   0  0  0  0  0  0  0  0  0  0  0  0
  4  3  2  0
  5  3  1  0
  6  4  1  0
  7  1  1  0
  7  2  1  0
  8  5  2  0
  9  6  2  0
  9  8  1  0
 10  8  1  0
 11  9  1  0
 12 10  2  0
 13  7  1  0
 13 10  1  0
M  END
>  <NAME>  (2263) 
ISOPROPYL SALICYLATE

>  <SYNONYMS>  (2263) 


>  <SPECTRUM TYPE>  (2263) 
MS1

>  <INSTRUMENT TYPE>  (2263) 
EI-B

>  <INSTRUMENT>  (2263) 
HITACHI M-80B

>  <ION MODE>  (2263) 
P

>  <INCHIKEY>  (2263) 
YEULQIJMIOWCHB-UHFFFAOYSA-N

>  <FORMULA>  (2263) 
C10H12O3

>  <EXACT MASS>  (2263) 
180.07864424399997

>  <MW>  (2263) 
180

>  <ID>  (2263) 
JP008986

>  <CONTRIBUTOR>  (2263) 
University of Tokyo Team, {Faculty of Engineering, University of Tokyo

>  <COMMENT>  (2263) 
SMILES=CC(C)OC(=O)c(c1)c(O)ccc1
cas=607-85-2
InChI=InChI=1S/C10H12O3/c1-7(2)13-10(12)8-5-3-4-6-9(8)11/h3-7,11H,1-2H3
computed SMILES=O=C(OC(C)C)C=1C=CC=CC1O
accession=JP008986
date=2016.01.19 (Created 2008.10.21, modified 2011.05.06)
author=SODA AROMATIC CO., LTD.
license=CC BY-NC-SA
exact mass=180.07864
ionization energy=70 eV
ion type=[M]+*
computed spectral entropy=2.3174691249006663
computed normalized entropy=0.7497370741002966
SPLASH=splash10-00di-5900000000-a9be86146f9d22494aae
submitter=submitter = University of Tokyo Team (Faculty of Engineering, University of Tokyo)
MoNA Rating=3.75

>  <NUM PEAKS>  (2263) 
22

>  <MASS SPECTRAL PEAKS>  (2263) 
27 6.4
29 1.37
38 2.18
39 16.17
41 7.97
43 8.25
53 2.37
62 1.06
63 5.78
64 7.05
65 14.03
66 1.15
81 1.26
92 28.11
93 6.64
120 99.99
121 28.27
122 2.08
138 28.42
139 1.64
180 14.1
181 1.25

$$$$

     RDKit          2D

 13 13  0  0  0  0  0  0  0  0999 V2000
   -3.5739    3.1880    0.0000 C   0  0  0  0  0  0  0  0  0  0  0  0
   -2.2747    2.4382    0.0000 C   0  0  0  0  0  0  0  0  0  0  0  0
    4.2214    0.1873    0.0000 C   0  0  0  0  0  0  0  0  0  0  0  0
    5.5205    0.9373    0.0000 C   0  0  0  0  0  0  0  0  0  0  0  0
    2.9219    0.9382    0.0000 C   0  0  0  0  0  0  0  0  0  0  0  0
    5.5200    2.4382    0.0000 C   0  0  0  0  0  0  0  0  0  0  0  0
   -0.9758    3.1884    0.0000 C   0  0  0  0  0  0  0  0  0  0  0  0
    2.9214    2.4390    0.0000 C   0  0  0  0  0  0  0  0  0  0  0  0
    4.2205    3.1890    0.0000 C   0  0  0  0  0  0  0  0  0  0  0  0
    1.6223    3.1888    0.0000 C   0  0  0  0  0  0  0  0  0  0  0  0
    4.2207    4.6890    0.0000 O   0  0  0  0  0  0  0  0  0  0  0  0
    1.6220    4.6888    0.0000 O   0  0  0  0  0  0  0  0  0  0  0  0
    0.3233    2.4386    0.0000 O   0  0  0  0  0  0  0  0  0  0  0  0
  2  1  1  0
  4  3  2  0
  5  3  1  0
  6  4  1  0
  7  2  1  0
  8  5  2  0
  9  6  2  0
  9  8  1  0
 10  8  1  0
 11  9  1  0
 12 10  2  0
 13  7  1  0
 13 10  1  0
M  END
>  <NAME>  (2264) 
PROPYL SALICYLATE

>  <SYNONYMS>  (2264) 


>  <SPECTRUM TYPE>  (2264) 
MS1

>  <INSTRUMENT TYPE>  (2264) 
EI-B

>  <INSTRUMENT>  (2264) 
HITACHI M-80B

>  <ION MODE>  (2264) 
P

>  <INCHIKEY>  (2264) 
LZFIOSVZIQOVFW-UHFFFAOYSA-N

>  <FORMULA>  (2264) 
C10H12O3

>  <EXACT MASS>  (2264) 
180.078644244

>  <MW>  (2264) 
180

>  <ID>  (2264) 
JP008985

>  <CONTRIBUTOR>  (2264) 
University of Tokyo Team, {Faculty of Engineering, University of Tokyo

>  <COMMENT>  (2264) 
SMILES=CCCOC(=O)c(c1)c(O)ccc1
InChI=InChI=1S/C10H12O3/c1-2-7-13-10(12)8-5-3-4-6-9(8)11/h3-6,11H,2,7H2,1H3
computed SMILES=O=C(OCCC)C=1C=CC=CC1O
accession=JP008985
date=2016.01.19 (Created 2008.10.21, modified 2011.05.06)
author=SODA AROMATIC CO., LTD.
license=CC BY-NC-SA
exact mass=180.07864
ionization energy=70 eV
ion type=[M]+*
computed spectral entropy=2.3141980864071225
computed normalized entropy=0.748678842599791
SPLASH=splash10-00di-6900000000-43c71bc96fc885196550
submitter=submitter = University of Tokyo Team (Faculty of Engineering, University of Tokyo)
MoNA Rating=3.75

>  <NUM PEAKS>  (2264) 
22

>  <MASS SPECTRAL PEAKS>  (2264) 
27 9.26
29 1.87
38 2.08
39 15.21
41 7.42
42 1.03
43 6.13
53 2.88
62 1.17
63 4.53
64 6.5
65 15.4
66 1.19
81 1.14
92 26.97
93 6.93
120 99.99
121 26.17
122 1.95
138 14.75
180 19.07
181 1.94

$$$$

     RDKit          2D

 12 12  0  0  0  0  0  0  0  0999 V2000
   -3.5732    2.4377    0.0000 C   0  0  0  0  0  0  0  0  0  0  0  0
   -2.2743    3.1879    0.0000 C   0  0  0  0  0  0  0  0  0  0  0  0
    2.9229    0.1868    0.0000 C   0  0  0  0  0  0  0  0  0  0  0  0
    4.2220    0.9368    0.0000 C   0  0  0  0  0  0  0  0  0  0  0  0
    1.6234    0.9377    0.0000 C   0  0  0  0  0  0  0  0  0  0  0  0
    4.2215    2.4377    0.0000 C   0  0  0  0  0  0  0  0  0  0  0  0
    1.6229    2.4385    0.0000 C   0  0  0  0  0  0  0  0  0  0  0  0
    2.9220    3.1885    0.0000 C   0  0  0  0  0  0  0  0  0  0  0  0
    0.3238    3.1883    0.0000 C   0  0  0  0  0  0  0  0  0  0  0  0
    2.9222    4.6885    0.0000 O   0  0  0  0  0  0  0  0  0  0  0  0
    0.3235    4.6883    0.0000 O   0  0  0  0  0  0  0  0  0  0  0  0
   -0.9752    2.4381    0.0000 O   0  0  0  0  0  0  0  0  0  0  0  0
  2  1  1  0
  4  3  2  0
  5  3  1  0
  6  4  1  0
  7  5  2  0
  8  6  2  0
  8  7  1  0
  9  7  1  0
 10  8  1  0
 11  9  2  0
 12  2  1  0
 12  9  1  0
M  END
>  <NAME>  (2265) 
ETHYL SALICYLATE

>  <SYNONYMS>  (2265) 


>  <SPECTRUM TYPE>  (2265) 
MS1

>  <INSTRUMENT TYPE>  (2265) 
EI-B

>  <INSTRUMENT>  (2265) 
HITACHI M-80B

>  <ION MODE>  (2265) 
P

>  <INCHIKEY>  (2265) 
GYCKQBWUSACYIF-UHFFFAOYSA-N

>  <FORMULA>  (2265) 
C9H10O3

>  <EXACT MASS>  (2265) 
166.06299417999998

>  <MW>  (2265) 
166

>  <ID>  (2265) 
JP008984

>  <CONTRIBUTOR>  (2265) 
University of Tokyo Team, {Faculty of Engineering, University of Tokyo

>  <COMMENT>  (2265) 
SMILES=CCOC(=O)c(c1)c(O)ccc1
cas=118-61-6
InChI=InChI=1S/C9H10O3/c1-2-12-9(11)7-5-3-4-6-8(7)10/h3-6,10H,2H2,1H3
computed SMILES=O=C(OCC)C=1C=CC=CC1O
accession=JP008984
date=2016.01.19 (Created 2008.10.21, modified 2011.05.06)
author=SODA AROMATIC CO., LTD.
license=CC BY-NC-SA
exact mass=166.06299
ionization energy=70 eV
ion type=[M]+*
computed spectral entropy=2.1681854257495576
computed normalized entropy=0.7237580757433066
SPLASH=splash10-00di-6900000000-8e32263351a87a3cac48
submitter=submitter = University of Tokyo Team (Faculty of Engineering, University of Tokyo)
MoNA Rating=3.75

>  <NUM PEAKS>  (2265) 
20

>  <MASS SPECTRAL PEAKS>  (2265) 
37 1.07
38 2.66
39 17.73
50 1.43
51 1
53 3.58
62 2.11
63 9.84
64 10.14
65 17.4
66 1.64
81 2.04
92 42.83
93 8.89
120 99.99
121 28.19
122 2.24
138 1.05
166 31.11
167 2.62

$$$$

     RDKit          2D

 11 11  0  0  0  0  0  0  0  0999 V2000
    3.2476    3.7504    0.0000 C   0  0  0  0  0  0  0  0  0  0  0  0
   -1.9500    0.7500    0.0000 C   0  0  0  0  0  0  0  0  0  0  0  0
   -1.9500   -0.7500    0.0000 C   0  0  0  0  0  0  0  0  0  0  0  0
   -0.6500    1.5000    0.0000 C   0  0  0  0  0  0  0  0  0  0  0  0
   -0.6500   -1.5000    0.0000 C   0  0  0  0  0  0  0  0  0  0  0  0
    0.6500    0.7500    0.0000 C   0  0  0  0  0  0  0  0  0  0  0  0
    0.6500   -0.7500    0.0000 C   0  0  0  0  0  0  0  0  0  0  0  0
    1.9489    1.5002    0.0000 C   0  0  0  0  0  0  0  0  0  0  0  0
    1.9489   -1.5002    0.0000 O   0  0  0  0  0  0  0  0  0  0  0  0
    3.2481    0.7504    0.0000 O   0  0  0  0  0  0  0  0  0  0  0  0
    1.9487    3.0002    0.0000 O   0  0  0  0  0  0  0  0  0  0  0  0
  3  2  2  0
  4  2  1  0
  5  3  1  0
  6  4  2  0
  7  5  2  0
  7  6  1  0
  8  6  1  0
  9  7  1  0
 10  8  2  0
 11  1  1  0
 11  8  1  0
M  END
>  <NAME>  (2266) 
METHYL SALICY LATE

>  <SYNONYMS>  (2266) 


>  <SPECTRUM TYPE>  (2266) 
MS1

>  <INSTRUMENT TYPE>  (2266) 
EI-B

>  <INSTRUMENT>  (2266) 
HITACHI M-80B

>  <ION MODE>  (2266) 
P

>  <INCHIKEY>  (2266) 
OSWPMRLSEDHDFF-UHFFFAOYSA-N

>  <FORMULA>  (2266) 
C8H8O3

>  <EXACT MASS>  (2266) 
152.04734411599998

>  <MW>  (2266) 
152

>  <ID>  (2266) 
JP008983

>  <CONTRIBUTOR>  (2266) 
University of Tokyo Team, {Faculty of Engineering, University of Tokyo

>  <COMMENT>  (2266) 
SMILES=COC(=O)c(c1)c(O)ccc1
cas=119-36-8
InChI=InChI=1S/C8H8O3/c1-11-8(10)6-4-2-3-5-7(6)9/h2-5,9H,1H3
computed SMILES=O=C(OC)C=1C=CC=CC1O
accession=JP008983
date=2016.01.19 (Created 2008.10.21, modified 2011.05.06)
author=SODA AROMATIC CO., LTD.
license=CC BY-NC-SA
exact mass=152.04734
ionization energy=70 eV
ion type=[M]+*
computed spectral entropy=2.491246043277462
computed normalized entropy=0.7476269945827769
SPLASH=splash10-00dl-9700000000-8449a003796d4c61d429
submitter=submitter = University of Tokyo Team (Faculty of Engineering, University of Tokyo)
MoNA Rating=3.75

>  <NUM PEAKS>  (2266) 
28

>  <MASS SPECTRAL PEAKS>  (2266) 
15 6.01
27 1.98
29 4.06
30 1
31 1.58
37 2.29
38 7.14
39 25.07
50 2.94
51 1.94
53 8.83
61 1.62
62 4.2
63 15.77
64 15.64
65 25.24
66 2.37
74 1.33
76 1.38
77 1.07
81 1.57
92 64.72
93 13.69
120 99.99
121 30.11
122 1.79
152 44.49
153 3.16

$$$$

     RDKit          2D

 17 18  0  0  0  0  0  0  0  0999 V2000
    4.5476    2.1949    0.0000 C   0  0  0  0  0  0  0  0  0  0  0  0
   -7.1444    5.9470    0.0000 C   0  0  0  0  0  0  0  0  0  0  0  0
    4.5481    3.6958    0.0000 C   0  0  0  0  0  0  0  0  0  0  0  0
    3.2481    1.4441    0.0000 C   0  0  0  0  0  0  0  0  0  0  0  0
   -5.8453    6.6968    0.0000 C   0  0  0  0  0  0  0  0  0  0  0  0
   -7.1442    4.4462    0.0000 C   0  0  0  0  0  0  0  0  0  0  0  0
    3.2491    4.4458    0.0000 C   0  0  0  0  0  0  0  0  0  0  0  0
    1.9491    2.1941    0.0000 C   0  0  0  0  0  0  0  0  0  0  0  0
   -4.5459    5.9458    0.0000 C   0  0  0  0  0  0  0  0  0  0  0  0
   -5.8448    3.6952    0.0000 C   0  0  0  0  0  0  0  0  0  0  0  0
    0.6505    4.4449    0.0000 C   0  0  0  0  0  0  0  0  0  0  0  0
   -0.6485    3.6949    0.0000 C   0  0  0  0  0  0  0  0  0  0  0  0
    1.9495    3.6949    0.0000 C   0  0  0  0  0  0  0  0  0  0  0  0
   -4.5456    4.4449    0.0000 C   0  0  0  0  0  0  0  0  0  0  0  0
   -1.9476    4.4449    0.0000 C   0  0  0  0  0  0  0  0  0  0  0  0
   -1.9476    5.9449    0.0000 O   0  0  0  0  0  0  0  0  0  0  0  0
   -3.2466    3.6949    0.0000 O   0  0  0  0  0  0  0  0  0  0  0  0
  3  1  2  0
  4  1  1  0
  5  2  1  0
  6  2  1  0
  7  3  1  0
  8  4  2  0
  9  5  1  0
 10  6  1  0
 11 12  2  0
 13  7  2  0
 13  8  1  0
 13 11  1  0
 14  9  1  0
 14 10  1  0
 15 12  1  0
 16 15  2  0
 17 14  1  0
 17 15  1  0
M  END
>  <NAME>  (2267) 
CYCLOHEXYL CINNAMATE

>  <SYNONYMS>  (2267) 


>  <SPECTRUM TYPE>  (2267) 
MS1

>  <INSTRUMENT TYPE>  (2267) 
EI-B

>  <INSTRUMENT>  (2267) 
HITACHI M-80B

>  <ION MODE>  (2267) 
P

>  <INCHIKEY>  (2267) 
GCFAUZGWPDYAJN-VAWYXSNFSA-N

>  <FORMULA>  (2267) 
C15H18O2

>  <EXACT MASS>  (2267) 
230.130679816

>  <MW>  (2267) 
230

>  <ID>  (2267) 
JP008982

>  <CONTRIBUTOR>  (2267) 
University of Tokyo Team, {Faculty of Engineering, University of Tokyo

>  <COMMENT>  (2267) 
SMILES=O=C(C=Cc(c2)cccc2)OC(C1)CCCC1
InChI=InChI=1S/C15H18O2/c16-15(17-14-9-5-2-6-10-14)12-11-13-7-3-1-4-8-13/h1,3-4,7-8,11-12,14H,2,5-6,9-10H2/b12-11+
computed SMILES=O=C(OC1CCCCC1)C=CC=2C=CC=CC2
accession=JP008982
date=2016.01.19 (Created 2008.10.21, modified 2011.05.06)
author=SODA AROMATIC CO., LTD.
license=CC BY-NC-SA
exact mass=230.13068
ionization energy=70 eV
ion type=[M]+*
computed spectral entropy=2.9450331821280535
computed normalized entropy=0.7879329857625683
SPLASH=splash10-000t-5900000000-787411443511e76756e9
submitter=submitter = University of Tokyo Team (Faculty of Engineering, University of Tokyo)
MoNA Rating=3.75

>  <NUM PEAKS>  (2267) 
42

>  <MASS SPECTRAL PEAKS>  (2267) 
27 10.11
29 2.88
39 12.01
41 27.08
42 2.51
43 2.25
50 3.24
51 13.46
52 2.05
55 24.02
56 1.27
63 2.24
65 1.17
67 21.27
68 1.07
74 1.26
75 1.83
76 3.22
77 34.01
78 2.8
79 1.64
81 4.6
82 13.36
83 3.06
91 3.08
99 2.42
101 1.2
102 10.8
103 45.47
104 14.2
105 1.02
120 1.8
130 1.38
131 99.99
132 10.98
139 1.04
146 1.12
147 28.52
148 40.63
149 54.9
150 4.98
230 3.06

$$$$

     RDKit          2D

  6  5  0  0  0  0  0  0  0  0999 V2000
    0.0000    1.5000    0.0000 C   0  0  0  0  0  0  0  0  0  0  0  0
    0.0000    0.0000    0.0000 H   0  0  0  0  0  0  0  0  0  0  0  0
    1.2990    2.2500    0.0000 H   0  0  0  0  0  0  0  0  0  0  0  0
   -2.5981    4.5000    0.0000 C   0  0  0  0  0  0  0  0  0  0  0  0
   -1.2990    2.2500    0.0000 C   0  0  0  0  0  0  0  0  0  0  0  0
   -1.2990    3.7500    0.0000 C   0  0  0  0  0  0  0  0  0  0  0  0
  1  2  1  0
  1  3  1  0
  5  1  1  0
  6  4  1  0
  6  5  1  0
M  ISO  2   2   2   3   2
M  END
>  <NAME>  (2268) 
BUTANE (1-D1)

>  <SYNONYMS>  (2268) 


>  <SPECTRUM TYPE>  (2268) 
MS1

>  <INSTRUMENT TYPE>  (2268) 
EI-B

>  <INSTRUMENT>  (2268) 
HITACHI RMU-6M

>  <ION MODE>  (2268) 
P

>  <INCHIKEY>  (2268) 
IJDNQMDRQITEOD-DICFDUPASA-N

>  <FORMULA>  (2268) 
C4H10

>  <EXACT MASS>  (2268) 
60.090803812

>  <MW>  (2268) 
60

>  <ID>  (2268) 
JP008981

>  <CONTRIBUTOR>  (2268) 
University of Tokyo Team, {Faculty of Engineering, University of Tokyo

>  <COMMENT>  (2268) 
SMILES=CCCC([2H])([H])[2H]
InChI=InChI=1S/C4H10/c1-3-4-2/h3-4H2,1-2H3/i1D2
computed SMILES=[H]C([H])CCC
accession=JP008981
date=2016.01.19 (Created 2008.10.21, modified 2011.05.06)
author=YAMAMOTO M, DEP. CHEMISTRY, FAC. SCIENCE, NARA WOMEN'S UNIV.
license=CC BY-NC-SA
exact mass=58.07825
ionization energy=70 eV
ion type=[M]+*
computed spectral entropy=2.2433742548459716
computed normalized entropy=0.7619021045160401
SPLASH=splash10-0006-9000000000-5d0a15a022bf60e47d87
submitter=submitter = University of Tokyo Team (Faculty of Engineering, University of Tokyo)
MoNA Rating=3.75

>  <NUM PEAKS>  (2268) 
19

>  <MASS SPECTRAL PEAKS>  (2268) 
26 4.1
27 26.5
28 31
29 4.14
30 20.3
38 1.6
39 10.4
40 0.7
41 19.1
42 26.2
43 23
44 99.99
45 3.2
50 1.3
51 1.4
52 0.1
56 4
58 3.4
59 18.6

$$$$

     RDKit          2D

  6  5  0  0  0  0  0  0  0  0999 V2000
    0.0000    1.5000    0.0000 C   0  0  0  0  0  0  0  0  0  0  0  0
    0.0000    0.0000    0.0000 H   0  0  0  0  0  0  0  0  0  0  0  0
    1.2990    2.2500    0.0000 H   0  0  0  0  0  0  0  0  0  0  0  0
   -2.5981    4.5000    0.0000 C   0  0  0  0  0  0  0  0  0  0  0  0
   -1.2990    2.2500    0.0000 C   0  0  0  0  0  0  0  0  0  0  0  0
   -1.2990    3.7500    0.0000 C   0  0  0  0  0  0  0  0  0  0  0  0
  1  2  1  0
  1  3  1  0
  5  1  1  0
  6  4  1  0
  6  5  1  0
M  ISO  2   2   2   3   2
M  END
>  <NAME>  (2269) 
BUTANE (1-D1)

>  <SYNONYMS>  (2269) 


>  <SPECTRUM TYPE>  (2269) 
MS1

>  <INSTRUMENT TYPE>  (2269) 
EI-B

>  <INSTRUMENT>  (2269) 
HITACHI RMU-6M

>  <ION MODE>  (2269) 
P

>  <INCHIKEY>  (2269) 
IJDNQMDRQITEOD-DICFDUPASA-N

>  <FORMULA>  (2269) 
C4H10

>  <EXACT MASS>  (2269) 
60.090803812

>  <MW>  (2269) 
60

>  <ID>  (2269) 
JP008980

>  <CONTRIBUTOR>  (2269) 
University of Tokyo Team, {Faculty of Engineering, University of Tokyo

>  <COMMENT>  (2269) 
SMILES=CCCC([2H])([H])[2H]
InChI=InChI=1S/C4H10/c1-3-4-2/h3-4H2,1-2H3/i1D2
computed SMILES=[H]C([H])CCC
accession=JP008980
date=2016.01.19 (Created 2008.10.21, modified 2011.05.06)
author=YAMAMOTO M, DEP. CHEMISTRY, FAC. SCIENCE, NARA WOMEN'S UNIV.
license=CC BY-NC-SA
exact mass=58.07825
ionization energy=70 eV
ion type=[M]+*
computed spectral entropy=2.2433742548459716
computed normalized entropy=0.7619021045160401
SPLASH=splash10-0006-9000000000-5d0a15a022bf60e47d87
submitter=submitter = University of Tokyo Team (Faculty of Engineering, University of Tokyo)
MoNA Rating=3.75

>  <NUM PEAKS>  (2269) 
19

>  <MASS SPECTRAL PEAKS>  (2269) 
26 4.1
27 26.5
28 31
29 4.14
30 20.3
38 1.6
39 10.4
40 0.7
41 19.1
42 26.2
43 23
44 99.99
45 3.2
50 1.3
51 1.4
52 0.1
56 4
58 3.4
59 18.6

$$$$

     RDKit          2D

 17 17  0  0  0  0  0  0  0  0999 V2000
   -1.6700    0.5394    0.0000 C   0  0  0  0  0  0  0  0  0  0  0  0
    4.4901    1.6894    0.0000 C   0  0  0  0  0  0  0  0  0  0  0  0
   -0.3708   -0.2104    0.0000 C   0  0  0  0  0  0  0  0  0  0  0  0
    8.7242    2.0406    0.0000 C   0  0  0  0  0  0  0  0  0  0  0  0
    7.4242    2.7906    0.0000 C   0  0  0  0  0  0  0  0  0  0  0  0
    8.7242    0.5406    0.0000 C   0  0  0  0  0  0  0  0  0  0  0  0
    6.1242    2.0406    0.0000 C   0  0  0  0  0  0  0  0  0  0  0  0
    7.4242   -0.2094    0.0000 C   0  0  0  0  0  0  0  0  0  0  0  0
    2.5618    1.6891    0.0000 C   0  0  0  0  0  0  0  0  0  0  0  0
    1.0846    1.4284    0.0000 C   0  0  0  0  0  0  0  0  0  0  0  0
    6.1242    0.5406    0.0000 C   0  0  0  0  0  0  0  0  0  0  0  0
    2.2272   -0.2100    0.0000 C   0  0  0  0  0  0  0  0  0  0  0  0
    3.5262    0.5402    0.0000 C   0  0  0  0  0  0  0  0  0  0  0  0
    0.1203    2.5773    0.0000 Br  0  0  0  0  0  0  0  0  0  0  0  0
    2.2275   -1.7100    0.0000 O   0  0  0  0  0  0  0  0  0  0  0  0
    0.9281    0.5398    0.0000 O   0  0  0  0  0  0  0  0  0  0  0  0
    4.8253   -0.2096    0.0000 S   0  0  0  0  0  0  0  0  0  0  0  0
  3  1  1  0
  5  4  2  0
  6  4  1  0
  7  5  1  0
  8  6  2  0
 10  9  1  0
 11  7  2  0
 11  8  1  0
 13  2  1  0
 13  9  1  0
 13 12  1  0
 14 10  1  0
 15 12  2  0
 16  3  1  0
 16 12  1  0
 17 11  1  0
 17 13  1  0
M  END
>  <NAME>  (2270) 
ETHYL 4-BROMO-2-METHYL-2-PHENYLTHIOBUTYRATE

>  <SYNONYMS>  (2270) 


>  <SPECTRUM TYPE>  (2270) 
MS1

>  <INSTRUMENT TYPE>  (2270) 
EI-B

>  <INSTRUMENT>  (2270) 
JEOL JMS-DX-300

>  <ION MODE>  (2270) 
P

>  <INCHIKEY>  (2270) 
ZFYZGJXPPJKWJM-UHFFFAOYSA-N

>  <FORMULA>  (2270) 
C13H17BrO2S

>  <EXACT MASS>  (2270) 
316.013262884

>  <MW>  (2270) 
316

>  <ID>  (2270) 
JP008979

>  <CONTRIBUTOR>  (2270) 
University of Tokyo Team, {Faculty of Engineering, University of Tokyo

>  <COMMENT>  (2270) 
SMILES=CCOC(=O)C(C)(CCBr)Sc(c1)cccc1
InChI=InChI=1S/C13H17BrO2S/c1-3-16-12(15)13(2,9-10-14)17-11-7-5-4-6-8-11/h4-8H,3,9-10H2,1-2H3
computed SMILES=O=C(OCC)C(SC=1C=CC=CC1)(C)CCBr
accession=JP008979
date=2016.01.19 (Created 2008.10.21, modified 2011.05.06)
author=YAMAMOTO M, DEP. CHEMISTRY, FAC. SCIENCE, NARA WOMEN'S UNIV.
license=CC BY-NC-SA
exact mass=316.01326
ionization energy=70 eV
ion type=[M]+*
computed spectral entropy=3.495132064724341
computed normalized entropy=0.8607760423299221
SPLASH=splash10-08fv-9751000000-cb9de0b1b4f3317354e1
submitter=submitter = University of Tokyo Team (Faculty of Engineering, University of Tokyo)
MoNA Rating=3.75

>  <NUM PEAKS>  (2270) 
58

>  <MASS SPECTRAL PEAKS>  (2270) 
31 7.63
36 2.61
39 20.66
40 3.66
41 18.43
43 10.46
44 4.5
50 2.86
51 7.93
53 14.46
54 2.72
55 34.32
56 2.34
57 3.02
59 13.9
65 17.34
66 10.39
69 14.34
71 4.6
73 2.05
77 5.85
79 2.03
80 10.73
81 5.01
82 9.76
83 2.32
84 3.19
87 2.64
91 3.13
98 4.81
99 13.12
105 2.69
108 8.83
109 28.7
110 99.99
111 10.27
112 5.07
130 7.11
131 9.24
133 2.21
135 14.75
136 2.77
137 3.23
138 2.26
149 4.73
163 8.49
179 3.52
208 25.52
209 10.03
243 56.98
244 6.86
245 60.79
246 7.7
247 3.1
316 15.68
317 3.73
318 16.38
319 2.95

$$$$

     RDKit          2D

 10 10  0  0  0  0  0  0  0  0999 V2000
   -2.5989   -1.5002    0.0000 C   0  0  0  0  0  0  0  0  0  0  0  0
   -1.3000    0.7500    0.0000 C   0  0  0  0  0  0  0  0  0  0  0  0
   -0.0000   -1.5000    0.0000 C   0  0  0  0  0  0  0  0  0  0  0  0
    0.0000    1.5000    0.0000 C   0  0  0  0  0  0  0  0  0  0  0  0
    1.3000   -0.7500    0.0000 C   0  0  0  0  0  0  0  0  0  0  0  0
   -1.3000   -0.7500    0.0000 C   0  0  0  0  0  0  0  0  0  0  0  0
    1.3000    0.7500    0.0000 C   0  0  0  0  0  0  0  0  0  0  0  0
    2.5989    1.5002    0.0000 C   0  0  0  0  0  0  0  0  0  0  0  0
    3.8981    0.7504    0.0000 O   0  0  0  0  0  0  0  0  0  0  0  0
    2.5987    3.0002    0.0000 O   0  0  0  0  0  0  0  0  0  0  0  0
  4  2  2  0
  5  3  1  0
  6  1  1  0
  6  2  1  0
  6  3  2  0
  7  4  1  0
  7  5  2  0
  8  7  1  0
  9  8  1  0
 10  8  2  0
M  END
>  <NAME>  (2271) 
4-TOLUIC ACID

>  <SYNONYMS>  (2271) 


>  <SPECTRUM TYPE>  (2271) 
MS1

>  <INSTRUMENT TYPE>  (2271) 
EI-B

>  <INSTRUMENT>  (2271) 
HITACHI M-80

>  <ION MODE>  (2271) 
P

>  <INCHIKEY>  (2271) 
LPNBBFKOUUSUDB-UHFFFAOYSA-N

>  <FORMULA>  (2271) 
C8H8O2

>  <EXACT MASS>  (2271) 
136.052429496

>  <MW>  (2271) 
136

>  <ID>  (2271) 
JP008978

>  <CONTRIBUTOR>  (2271) 
University of Tokyo Team, {Faculty of Engineering, University of Tokyo

>  <COMMENT>  (2271) 
SMILES=Cc(c1)ccc(c1)C(O)=O
cas=99-94-5
InChI=InChI=1S/C8H8O2/c1-6-2-4-7(5-3-6)8(9)10/h2-5H,1H3,(H,9,10)
computed SMILES=O=C(O)C1=CC=C(C=C1)C
accession=JP008978
date=2016.01.19 (Created 2008.10.21, modified 2011.05.06)
author=YAMAMOTO M, DEP. CHEMISTRY, FAC. SCIENCE, NARA WOMEN'S UNIV.
license=CC BY-NC-SA
exact mass=136.05243
ionization energy=70 eV
ion type=[M]+*
computed spectral entropy=3.1294790967458583
computed normalized entropy=0.7740389348122219
SPLASH=splash10-00ko-9400000000-c8a3887fcb4e16259702
submitter=submitter = University of Tokyo Team (Faculty of Engineering, University of Tokyo)
MoNA Rating=3.75

>  <NUM PEAKS>  (2271) 
57

>  <MASS SPECTRAL PEAKS>  (2271) 
18 1.5
26 1.3
27 6.4
28 17.4
29 1.1
32 4.3
37 2.6
38 5.9
39 28.4
40 3
41 5.8
43 3.5
44 1.9
45 7.2
45.5 3.9
49 1.3
50 9.9
51 13.6
52 3.3
53 3.6
54 1.1
55 1.1
59 6.3
59.5 1.1
61 3.1
62 7.6
63 17.7
64 4.5
65 33.1
66 2.6
73 0.8
74 2.6
75 2.1
76 1.5
77 6.9
78 1.4
79 2.2
85 1.1
86 1.9
87 1.6
89 10.2
90 8.9
91 99.99
92 22.8
93 1.9
105 2
106 0.8
107 5.3
108 1.4
118 2.7
119 62.8
120 8.2
121 1.6
135 2.8
136 67.8
137 8.6
138 0.8

$$$$

     RDKit          2D

  9  9  0  0  0  0  0  0  0  0999 V2000
    0.4278    4.4596    0.0000 C   0  0  0  0  0  0  0  0  0  0  0  0
   -2.6304    0.8291    0.0000 C   0  0  0  0  0  0  0  0  0  0  0  0
    0.4935    0.5858    0.0000 C   0  0  0  0  0  0  0  0  0  0  0  0
    0.7433    2.9932    0.0000 C   0  0  0  0  0  0  0  0  0  0  0  0
   -0.2565    1.8848    0.0000 C   0  0  0  0  0  0  0  0  0  0  0  0
    1.9533    0.8974    0.0000 C   0  0  0  0  0  0  0  0  0  0  0  0
   -1.7482    2.0423    0.0000 N   0  0  0  0  0  0  0  0  0  0  0  0
    3.0655   -0.1091    0.0000 O   0  0  0  0  0  0  0  0  0  0  0  0
    2.1190    2.3903    0.0000 O   0  0  0  0  0  0  0  0  0  0  0  0
  4  1  1  0
  5  3  2  0
  5  4  1  0
  6  3  1  0
  7  2  1  0
  7  5  1  0
  8  6  2  0
  9  4  1  0
  9  6  1  0
M  END
>  <NAME>  (2272) 
3-METHYLAMINO-2-METHYL-2-BUTEN-4-OLIDE

>  <SYNONYMS>  (2272) 


>  <SPECTRUM TYPE>  (2272) 
MS1

>  <INSTRUMENT TYPE>  (2272) 
EI-B

>  <INSTRUMENT>  (2272) 
JEOL JMS-HX-100

>  <ION MODE>  (2272) 
P

>  <INCHIKEY>  (2272) 
USTBRJZDDHHMQT-UHFFFAOYSA-N

>  <FORMULA>  (2272) 
C6H9NO2

>  <EXACT MASS>  (2272) 
127.063328528

>  <MW>  (2272) 
127

>  <ID>  (2272) 
JP008977

>  <CONTRIBUTOR>  (2272) 
University of Tokyo Team, {Faculty of Engineering, University of Tokyo

>  <COMMENT>  (2272) 
SMILES=CNC(=C1)C(C)OC(=O)1
InChI=InChI=1S/C6H9NO2/c1-4-5(7-2)3-6(8)9-4/h3-4,7H,1-2H3
computed SMILES=O=C1OC(C(=C1)NC)C
accession=JP008977
date=2016.01.19 (Created 2008.10.21, modified 2011.05.06)
author=YAMAMOTO M, DEP. CHEMISTRY, FAC. SCIENCE, NARA WOMEN'S UNIV.
license=CC BY-NC-SA
exact mass=127.06333
ionization energy=70 eV
ion type=[M]+*
computed spectral entropy=3.085387665540235
computed normalized entropy=0.7505430153013708
SPLASH=splash10-0059-9300000000-93b326ab0156a0d63656
submitter=submitter = University of Tokyo Team (Faculty of Engineering, University of Tokyo)
MoNA Rating=3.75

>  <NUM PEAKS>  (2272) 
61

>  <MASS SPECTRAL PEAKS>  (2272) 
35 0.16
37 1.6
38 2.94
39 11.13
40 4.55
41 13.3
42 21.11
43 2.64
44 3.14
45 0.22
46 0.12
48 0.25
49 0.4
50 2.83
51 4.12
52 10.57
53 8.16
54 35.3
55 15.23
56 5.44
58 2.51
59 0.2
60 0.16
63 0.21
64 0.45
65 0.73
66 4.05
67 5.58
68 16.2
69 24.19
70 14.43
71 0.92
72 14.66
73 0.73
74 0.04
78 0.15
79 0.1
80 3.66
81 16.87
82 52.38
83 6.06
84 2.15
86 0.45
87 0.17
98 27.76
99 3.18
100 0.27
107 0.04
108 1.66
109 6.7
110 2.38
112 2.02
113 0.05
115 0.05
124 0.49
125 0.66
126 22.87
127 99.99
128 10.42
129 0.94
130 0.13

$$$$

     RDKit          2D

 12 13  0  0  0  0  0  0  0  0999 V2000
   -4.8635    0.7201    0.0000 C   0  0  0  0  0  0  0  0  0  0  0  0
   -3.3718   -3.6232    0.0000 C   0  0  0  0  0  0  0  0  0  0  0  0
   -2.0718   -2.8732    0.0000 C   0  0  0  0  0  0  0  0  0  0  0  0
   -4.6718   -2.8732    0.0000 C   0  0  0  0  0  0  0  0  0  0  0  0
   -2.0718   -1.3732    0.0000 C   0  0  0  0  0  0  0  0  0  0  0  0
   -4.6718   -1.3732    0.0000 C   0  0  0  0  0  0  0  0  0  0  0  0
   -2.3846    3.0941    0.0000 C   0  0  0  0  0  0  0  0  0  0  0  0
   -1.2699    2.0904    0.0000 C   0  0  0  0  0  0  0  0  0  0  0  0
   -3.3718   -0.6232    0.0000 C   0  0  0  0  0  0  0  0  0  0  0  0
   -3.3718    0.8768    0.0000 C   0  0  0  0  0  0  0  0  0  0  0  0
   -3.6836    2.3441    0.0000 O   0  0  0  0  0  0  0  0  0  0  0  0
   -1.8800    0.7201    0.0000 O   0  0  0  0  0  0  0  0  0  0  0  0
  3  2  1  0
  4  2  1  0
  5  3  1  0
  6  4  1  0
  8  7  1  0
  9  5  2  0
  9  6  1  0
 10  1  1  0
 10  9  1  0
 11  7  1  0
 11 10  1  0
 12  8  1  0
 12 10  1  0
M  END
>  <NAME>  (2273) 
1-ACETYLCYCLOHEXENE ETHYLENEACETAL

>  <SYNONYMS>  (2273) 


>  <SPECTRUM TYPE>  (2273) 
MS1

>  <INSTRUMENT TYPE>  (2273) 
EI-B

>  <INSTRUMENT>  (2273) 
JEOL JMS-DX-300

>  <ION MODE>  (2273) 
P

>  <INCHIKEY>  (2273) 
SKSVOXIMUGXIMZ-UHFFFAOYSA-N

>  <FORMULA>  (2273) 
C10H16O2

>  <EXACT MASS>  (2273) 
168.115029752

>  <MW>  (2273) 
168

>  <ID>  (2273) 
JP008973

>  <CONTRIBUTOR>  (2273) 
University of Tokyo Team, {Faculty of Engineering, University of Tokyo

>  <COMMENT>  (2273) 
SMILES=[H]C(C2)=C(CCC2)C(C)(O1)OCC1
InChI=InChI=1S/C10H16O2/c1-10(11-7-8-12-10)9-5-3-2-4-6-9/h5H,2-4,6-8H2,1H3
computed SMILES=O1CCOC1(C2=CCCCC2)C
accession=JP008973
date=2016.01.19 (Created 2008.10.21, modified 2011.05.06)
author=YAMAMOTO M, DEP. CHEMISTRY, FAC. SCIENCE, NARA WOMEN'S UNIV.
license=CC BY-NC-SA
exact mass=168.11503
ionization energy=70 eV
ion type=[M]+*
computed spectral entropy=2.5361804353035415
computed normalized entropy=0.7317869873624063
SPLASH=splash10-000i-9200000000-f73cdc34e982cffb2844
submitter=submitter = University of Tokyo Team (Faculty of Engineering, University of Tokyo)
MoNA Rating=3.75

>  <NUM PEAKS>  (2273) 
32

>  <MASS SPECTRAL PEAKS>  (2273) 
39 10.78
41 11.22
42 3.08
43 8.55
44 2.18
45 3.32
50 1.34
51 3.99
52 2.7
53 9.47
54 1.48
55 3.39
65 3.05
66 1.82
67 3.51
73 2.42
77 6.45
78 1.72
79 9.16
80 0.19
81 16.48
82 1.29
86 2.78
87 99.99
88 4.96
91 2.72
93 1.78
95 3.04
109 8.16
125 1.99
153 40.39
154 4.1

$$$$

     RDKit          2D

 14 14  0  0  0  0  0  0  0  0999 V2000
   -1.9498    2.7991    0.0000 C   0  0  0  0  0  0  0  0  0  0  0  0
   -1.4013   -1.1526    0.0000 C   0  0  0  0  0  0  0  0  0  0  0  0
   -1.9500   -3.2017    0.0000 C   0  0  0  0  0  0  0  0  0  0  0  0
    0.0991   -3.7504    0.0000 C   0  0  0  0  0  0  0  0  0  0  0  0
    3.2478   -1.7013    0.0000 C   0  0  0  0  0  0  0  0  0  0  0  0
    3.2478   -0.2013    0.0000 C   0  0  0  0  0  0  0  0  0  0  0  0
    1.9478   -2.4513    0.0000 C   0  0  0  0  0  0  0  0  0  0  0  0
    1.9478    0.5487    0.0000 C   0  0  0  0  0  0  0  0  0  0  0  0
   -0.6508    2.0489    0.0000 C   0  0  0  0  0  0  0  0  0  0  0  0
    0.6478   -1.7013    0.0000 C   0  0  0  0  0  0  0  0  0  0  0  0
    0.6478   -0.2013    0.0000 C   0  0  0  0  0  0  0  0  0  0  0  0
   -0.6511   -2.4515    0.0000 C   0  0  0  0  0  0  0  0  0  0  0  0
    0.6483    2.7987    0.0000 O   0  0  0  0  0  0  0  0  0  0  0  0
   -0.6511    0.5489    0.0000 O   0  0  0  0  0  0  0  0  0  0  0  0
  6  5  1  0
  7  5  1  0
  8  6  1  0
  9  1  1  0
 10  7  1  0
 11  8  1  0
 11 10  1  0
 12  2  1  0
 12  3  1  0
 12  4  1  0
 12 10  1  0
 13  9  2  0
 14  9  1  0
 14 11  1  0
M  END
>  <NAME>  (2274) 
TERT-BUTYLCYCLOHEXYL ACETATE

>  <SYNONYMS>  (2274) 


>  <SPECTRUM TYPE>  (2274) 
MS1

>  <INSTRUMENT TYPE>  (2274) 
EI-B

>  <INSTRUMENT>  (2274) 
HITACHI RMU-6M

>  <ION MODE>  (2274) 
P

>  <INCHIKEY>  (2274) 
FINOAUDUYKVGDS-UHFFFAOYSA-N

>  <FORMULA>  (2274) 
C12H22O2

>  <EXACT MASS>  (2274) 
198.161979944

>  <MW>  (2274) 
198

>  <ID>  (2274) 
JP008962

>  <CONTRIBUTOR>  (2274) 
University of Tokyo Team, {Faculty of Engineering, University of Tokyo

>  <COMMENT>  (2274) 
SMILES=CC(=O)OC(C1)C(CCC1)C(C)(C)C
InChI=InChI=1S/C12H22O2/c1-9(13)14-11-8-6-5-7-10(11)12(2,3)4/h10-11H,5-8H2,1-4H3
computed SMILES=O=C(OC1CCCCC1C(C)(C)C)C
accession=JP008962
date=2016.01.19 (Created 2008.10.21, modified 2011.05.06)
author=YAMAMOTO M, DEP. CHEMISTRY, FAC. SCIENCE, NARA WOMEN'S UNIV.
license=CC BY-NC-SA
exact mass=198.16198
ionization energy=70 eV
ion type=[M]+*
computed spectral entropy=2.7784874816951985
computed normalized entropy=0.7139300555691328
SPLASH=splash10-053r-9000000000-5100216c41146d7384ed
submitter=submitter = University of Tokyo Team (Faculty of Engineering, University of Tokyo)
MoNA Rating=3.75

>  <NUM PEAKS>  (2274) 
49

>  <MASS SPECTRAL PEAKS>  (2274) 
15 4.3
27 7.8
29 16.2
39 0.8
40 1.6
41 32.9
42 2.6
43 5.65
44 1.5
53 4.4
54 9.2
55 1.27
56 7.7
57 99.99
58 4.9
59 0.12
61 14.1
65 1.3
66 1.3
67 4.05
68 3.3
69 7.1
70 1.6
71 0.14
77 1.9
79 3.4
80 15.3
81 1.76
82 80.3
83 12.3
84 1.3
85 0.13
91 1.3
93 1.1
95 5
96 0.17
97 1.4
98 1.3
99 2.7
109 0.16
110 1.2
117 8.7
123 15.5
124 0.17
138 6.2
139 1.4
141 2.1
142 0.2
143 1.4

$$$$

     RDKit          2D

 13 13  0  0  0  0  0  0  0  0999 V2000
   -3.8986    0.3754    0.0000 C   0  0  0  0  0  0  0  0  0  0  0  0
    2.5974    4.1258    0.0000 C   0  0  0  0  0  0  0  0  0  0  0  0
   -2.5994   -0.3744    0.0000 C   0  0  0  0  0  0  0  0  0  0  0  0
    1.2987   -2.6256    0.0000 C   0  0  0  0  0  0  0  0  0  0  0  0
    2.5977   -1.8756    0.0000 C   0  0  0  0  0  0  0  0  0  0  0  0
   -1.3005    0.3758    0.0000 C   0  0  0  0  0  0  0  0  0  0  0  0
   -0.0008   -1.8748    0.0000 C   0  0  0  0  0  0  0  0  0  0  0  0
    2.5972   -0.3748    0.0000 C   0  0  0  0  0  0  0  0  0  0  0  0
    2.5971    2.6258    0.0000 C   0  0  0  0  0  0  0  0  0  0  0  0
   -0.0013   -0.3740    0.0000 C   0  0  0  0  0  0  0  0  0  0  0  0
    1.2977    0.3760    0.0000 C   0  0  0  0  0  0  0  0  0  0  0  0
    3.8960    1.8756    0.0000 O   0  0  0  0  0  0  0  0  0  0  0  0
    1.2980    1.8760    0.0000 O   0  0  0  0  0  0  0  0  0  0  0  0
  3  1  1  0
  5  4  1  0
  6  3  1  0
  7  4  1  0
  8  5  1  0
  9  2  1  0
 10  6  1  0
 10  7  1  0
 11  8  1  0
 11 10  1  0
 12  9  2  0
 13  9  1  0
 13 11  1  0
M  END
>  <NAME>  (2275) 
2-PROPYLCYCLOHEXYL ACETATE

>  <SYNONYMS>  (2275) 


>  <SPECTRUM TYPE>  (2275) 
MS1

>  <INSTRUMENT TYPE>  (2275) 
EI-B

>  <INSTRUMENT>  (2275) 
HITACHI RMU-6M

>  <ION MODE>  (2275) 
P

>  <INCHIKEY>  (2275) 
AZQJVKFEQQZYBC-UHFFFAOYSA-N

>  <FORMULA>  (2275) 
C11H20O2

>  <EXACT MASS>  (2275) 
184.14632988

>  <MW>  (2275) 
184

>  <ID>  (2275) 
JP008961

>  <CONTRIBUTOR>  (2275) 
University of Tokyo Team, {Faculty of Engineering, University of Tokyo

>  <COMMENT>  (2275) 
SMILES=CCCC(C1)C(CCC1)OC(C)=O
InChI=InChI=1S/C11H20O2/c1-3-6-10-7-4-5-8-11(10)13-9(2)12/h10-11H,3-8H2,1-2H3
computed SMILES=O=C(OC1CCCCC1CCC)C
accession=JP008961
date=2016.01.19 (Created 2008.10.21, modified 2011.05.06)
author=YAMAMOTO M, DEP. CHEMISTRY, FAC. SCIENCE, NARA WOMEN'S UNIV.
license=CC BY-NC-SA
exact mass=184.14633
ionization energy=70 eV
ion type=[M]+*
computed spectral entropy=2.966042917353004
computed normalized entropy=0.7506605840091966
SPLASH=splash10-000x-9100000000-6486087f1e64e80a3577
submitter=submitter = University of Tokyo Team (Faculty of Engineering, University of Tokyo)
MoNA Rating=3.75

>  <NUM PEAKS>  (2275) 
52

>  <MASS SPECTRAL PEAKS>  (2275) 
15 6.2
27 13.4
29 14.2
31 0.14
39 11.6
40 2.3
41 34.8
42 0.49
43 99.99
44 3.5
45 1.3
51 0.19
53 6.1
54 9.9
55 26
56 0.41
57 8.6
58 2.4
59 1.3
61 0.13
65 2.1
66 3.8
67 26.1
68 1.29
69 12.9
70 1.9
71 6.8
72 0.17
77 2.9
79 4.3
80 4.6
81 5.23
82 81.5
83 12.3
84 1.2
85 0.2
86 1.6
91 1.3
93 1.3
94 0.21
95 31.5
96 19.5
97 2.8
98 0.17
99 3.4
100 2.3
107 3.8
123 0.24
124 55.6
125 6.5
141 1.2
142 2.3

$$$$

     RDKit          2D

 12 12  0  0  0  0  0  0  0  0999 V2000
   -1.6244    2.4383    0.0000 C   0  0  0  0  0  0  0  0  0  0  0  0
    4.8713    0.1879    0.0000 C   0  0  0  0  0  0  0  0  0  0  0  0
   -0.3252    1.6885    0.0000 C   0  0  0  0  0  0  0  0  0  0  0  0
   -1.6250   -2.0632    0.0000 C   0  0  0  0  0  0  0  0  0  0  0  0
   -0.3259   -2.8132    0.0000 C   0  0  0  0  0  0  0  0  0  0  0  0
   -1.6245   -0.5623    0.0000 C   0  0  0  0  0  0  0  0  0  0  0  0
    0.9736   -2.0623    0.0000 C   0  0  0  0  0  0  0  0  0  0  0  0
    3.5721   -0.5619    0.0000 C   0  0  0  0  0  0  0  0  0  0  0  0
   -0.3250    0.1885    0.0000 C   0  0  0  0  0  0  0  0  0  0  0  0
    0.9741   -0.5615    0.0000 C   0  0  0  0  0  0  0  0  0  0  0  0
    3.5719   -2.0619    0.0000 O   0  0  0  0  0  0  0  0  0  0  0  0
    2.2732    0.1883    0.0000 O   0  0  0  0  0  0  0  0  0  0  0  0
  3  1  1  0
  5  4  1  0
  6  4  1  0
  7  5  1  0
  8  2  1  0
  9  3  1  0
  9  6  1  0
 10  7  1  0
 10  9  1  0
 11  8  2  0
 12  8  1  0
 12 10  1  0
M  END
>  <NAME>  (2276) 
2-ETHYLCYCLOHEXYL ACETATE

>  <SYNONYMS>  (2276) 


>  <SPECTRUM TYPE>  (2276) 
MS1

>  <INSTRUMENT TYPE>  (2276) 
EI-B

>  <INSTRUMENT>  (2276) 
HITACHI RMU-6M

>  <ION MODE>  (2276) 
P

>  <INCHIKEY>  (2276) 
FTTKPCQDOGXTPC-UHFFFAOYSA-N

>  <FORMULA>  (2276) 
C10H18O2

>  <EXACT MASS>  (2276) 
170.130679816

>  <MW>  (2276) 
170

>  <ID>  (2276) 
JP008960

>  <CONTRIBUTOR>  (2276) 
University of Tokyo Team, {Faculty of Engineering, University of Tokyo

>  <COMMENT>  (2276) 
SMILES=CCC(C1)C(CCC1)OC(C)=O
InChI=InChI=1S/C10H18O2/c1-3-9-6-4-5-7-10(9)12-8(2)11/h9-10H,3-7H2,1-2H3
computed SMILES=O=C(OC1CCCCC1CC)C
accession=JP008960
date=2016.01.19 (Created 2008.10.21, modified 2011.05.06)
author=YAMAMOTO M, DEP. CHEMISTRY, FAC. SCIENCE, NARA WOMEN'S UNIV.
license=CC BY-NC-SA
computed spectral entropy=2.810564511619434
exact mass=170.13068
ionization energy=70 eV
ion type=[M]+*
computed normalized entropy=0.7221722218222376
SPLASH=splash10-01po-9200000000-2dfbe544c3fd60e21872
submitter=submitter = University of Tokyo Team (Faculty of Engineering, University of Tokyo)
MoNA Rating=3.75

>  <NUM PEAKS>  (2276) 
49

>  <MASS SPECTRAL PEAKS>  (2276) 
15 6
27 12.3
29 12.6
31 0.15
39 11.4
40 2.2
41 30.7
42 0.52
43 99.99
44 3.7
45 1.5
51 0.15
52 1.1
53 5.8
54 5.6
55 1.91
56 2.8
57 8.4
58 2.4
59 0.21
61 1
65 1.6
66 5.1
67 2.96
68 15
69 16.1
70 1.9
71 0.49
72 2.3
77 1.8
79 2.9
80 0.43
81 65
82 29
83 4.4
84 0.13
85 3.9
86 5.4
93 1.3
95 1.29
96 1.7
97 1.1
98 1.3
99 0.23
109 4.8
110 70.5
111 9.2
127 0.16
128 3.5

$$$$

     RDKit          2D

 11 11  0  0  0  0  0  0  0  0999 V2000
   -4.5648    2.6125    0.0000 C   0  0  0  0  0  0  0  0  0  0  0  0
    1.9623   -2.6414    0.0000 C   0  0  0  0  0  0  0  0  0  0  0  0
   -1.9705    2.6061    0.0000 C   0  0  0  0  0  0  0  0  0  0  0  0
   -3.2840    0.3812    0.0000 C   0  0  0  0  0  0  0  0  0  0  0  0
   -0.6859    1.8812    0.0000 C   0  0  0  0  0  0  0  0  0  0  0  0
   -1.9595   -0.4129    0.0000 C   0  0  0  0  0  0  0  0  0  0  0  0
   -3.2695    1.8561    0.0000 C   0  0  0  0  0  0  0  0  0  0  0  0
    0.6571   -1.9021    0.0000 C   0  0  0  0  0  0  0  0  0  0  0  0
   -0.6605    0.3371    0.0000 C   0  0  0  0  0  0  0  0  0  0  0  0
   -0.6357   -2.6628    0.0000 O   0  0  0  0  0  0  0  0  0  0  0  0
    0.6447   -0.4022    0.0000 O   0  0  0  0  0  0  0  0  0  0  0  0
  5  3  1  0
  6  4  1  0
  7  1  1  0
  7  3  1  0
  7  4  1  0
  8  2  1  0
  9  5  1  0
  9  6  1  0
 10  8  2  0
 11  8  1  0
 11  9  1  0
M  END
>  <NAME>  (2277) 
4-METHYLCYCLOHEXYL ACETATE

>  <SYNONYMS>  (2277) 


>  <SPECTRUM TYPE>  (2277) 
MS1

>  <INSTRUMENT TYPE>  (2277) 
EI-B

>  <INSTRUMENT>  (2277) 
HITACHI RMU-6M

>  <ION MODE>  (2277) 
P

>  <INCHIKEY>  (2277) 
VJBFCCCTSQEGMH-UHFFFAOYSA-N

>  <FORMULA>  (2277) 
C9H16O2

>  <EXACT MASS>  (2277) 
156.115029752

>  <MW>  (2277) 
156

>  <ID>  (2277) 
JP008959

>  <CONTRIBUTOR>  (2277) 
University of Tokyo Team, {Faculty of Engineering, University of Tokyo

>  <COMMENT>  (2277) 
SMILES=CC(=O)OC(C1)CCC(C)C1
InChI=InChI=1S/C9H16O2/c1-7-3-5-9(6-4-7)11-8(2)10/h7,9H,3-6H2,1-2H3
computed SMILES=O=C(OC1CCC(C)CC1)C
license=CC BY-NC-SA
accession=JP008959
date=2016.01.19 (Created 2008.10.21, modified 2011.05.06)
author=YAMAMOTO M, DEP. CHEMISTRY, FAC. SCIENCE, NARA WOMEN'S UNIV.
exact mass=156.11503
ionization energy=70 eV
ion type=[M]+*
computed spectral entropy=2.444965442211289
computed normalized entropy=0.7054679037246236
SPLASH=splash10-000y-9000000000-597bc76202a7dec0e76a
submitter=submitter = University of Tokyo Team (Faculty of Engineering, University of Tokyo)
MoNA Rating=3.75

>  <NUM PEAKS>  (2277) 
32

>  <MASS SPECTRAL PEAKS>  (2277) 
15 6.3
27 12.1
29 13.3
39 1.21
40 1.8
41 22.9
42 2.8
43 99.99
44 3
51 1
53 4.7
54 2.26
55 33.9
56 3.5
57 7.1
58 0.57
61 4.7
66 1.1
67 13.3
68 1.54
69 3.7
70 3
71 2
77 0.11
79 1.8
81 77.1
82 5.1
95 0.78
96 66.6
97 8.7
113 1.8
114 0.8

$$$$

     RDKit          2D

 11 11  0  0  0  0  0  0  0  0999 V2000
    3.8910    2.2482    0.0000 C   0  0  0  0  0  0  0  0  0  0  0  0
   -3.9051    2.2411    0.0000 C   0  0  0  0  0  0  0  0  0  0  0  0
    1.2969   -0.7445    0.0000 C   0  0  0  0  0  0  0  0  0  0  0  0
    2.5914   -0.0024    0.0000 C   0  0  0  0  0  0  0  0  0  0  0  0
   -0.0022    0.0055    0.0000 C   0  0  0  0  0  0  0  0  0  0  0  0
    1.2928    2.2485    0.0000 C   0  0  0  0  0  0  0  0  0  0  0  0
    2.5919    1.4985    0.0000 C   0  0  0  0  0  0  0  0  0  0  0  0
   -2.6048    1.4933    0.0000 C   0  0  0  0  0  0  0  0  0  0  0  0
   -0.0067    1.4976    0.0000 C   0  0  0  0  0  0  0  0  0  0  0  0
   -2.6023   -0.0067    0.0000 O   0  0  0  0  0  0  0  0  0  0  0  0
   -1.3070    2.2454    0.0000 O   0  0  0  0  0  0  0  0  0  0  0  0
  4  3  1  0
  5  3  1  0
  7  1  1  0
  7  4  1  0
  7  6  1  0
  8  2  1  0
  9  5  1  0
  9  6  1  0
 10  8  2  0
 11  8  1  0
 11  9  1  0
M  END
>  <NAME>  (2278) 
3-METHYLCYCLOHEXYL ACETATE

>  <SYNONYMS>  (2278) 


>  <SPECTRUM TYPE>  (2278) 
MS1

>  <INSTRUMENT TYPE>  (2278) 
EI-B

>  <INSTRUMENT>  (2278) 
HITACHI RMU-6M

>  <ION MODE>  (2278) 
P

>  <INCHIKEY>  (2278) 
POTQUGZZORQESZ-UHFFFAOYSA-N

>  <FORMULA>  (2278) 
C9H16O2

>  <EXACT MASS>  (2278) 
156.115029752

>  <MW>  (2278) 
156

>  <ID>  (2278) 
JP008958

>  <CONTRIBUTOR>  (2278) 
University of Tokyo Team, {Faculty of Engineering, University of Tokyo

>  <COMMENT>  (2278) 
SMILES=CC(=O)OC(C1)CC(C)CC1
InChI=InChI=1S/C9H16O2/c1-7-4-3-5-9(6-7)11-8(2)10/h7,9H,3-6H2,1-2H3
computed SMILES=O=C(OC1CCCC(C)C1)C
accession=JP008958
date=2016.01.19 (Created 2008.10.21, modified 2011.05.06)
author=YAMAMOTO M, DEP. CHEMISTRY, FAC. SCIENCE, NARA WOMEN'S UNIV.
license=CC BY-NC-SA
exact mass=156.11503
ionization energy=70 eV
ion type=[M]+*
computed spectral entropy=2.5504180094922093
computed normalized entropy=0.7011292372203353
SPLASH=splash10-000y-9000000000-842c7eb71f2d274569ba
submitter=submitter = University of Tokyo Team (Faculty of Engineering, University of Tokyo)
MoNA Rating=3.75

>  <NUM PEAKS>  (2278) 
38

>  <MASS SPECTRAL PEAKS>  (2278) 
15 7.3
27 12.3
29 9.7
39 1.28
40 3
41 23.7
42 4.9
43 99.99
44 3.7
51 1.3
53 4.9
54 1.41
55 34.9
56 3.3
57 3.5
58 0.43
59 1
61 3
65 1.3
66 0.15
67 13.5
68 19
70 4.9
71 0.81
72 1.6
73 1
77 1.3
79 0.2
80 1.3
81 80.9
82 5.4
85 0.14
95 7.6
96 72
97 10.7
98 0.1
113 2.3
114 0.9

$$$$

     RDKit          2D

 11 11  0  0  0  0  0  0  0  0999 V2000
    1.9489    1.5002    0.0000 C   0  0  0  0  0  0  0  0  0  0  0  0
    3.2476   -3.7504    0.0000 C   0  0  0  0  0  0  0  0  0  0  0  0
   -1.9500    0.7500    0.0000 C   0  0  0  0  0  0  0  0  0  0  0  0
   -1.9500   -0.7500    0.0000 C   0  0  0  0  0  0  0  0  0  0  0  0
   -0.6500    1.5000    0.0000 C   0  0  0  0  0  0  0  0  0  0  0  0
   -0.6500   -1.5000    0.0000 C   0  0  0  0  0  0  0  0  0  0  0  0
    0.6500    0.7500    0.0000 C   0  0  0  0  0  0  0  0  0  0  0  0
    1.9487   -3.0002    0.0000 C   0  0  0  0  0  0  0  0  0  0  0  0
    0.6500   -0.7500    0.0000 C   0  0  0  0  0  0  0  0  0  0  0  0
    0.6495   -3.7500    0.0000 O   0  0  0  0  0  0  0  0  0  0  0  0
    1.9489   -1.5002    0.0000 O   0  0  0  0  0  0  0  0  0  0  0  0
  4  3  1  0
  5  3  1  0
  6  4  1  0
  7  1  1  0
  7  5  1  0
  8  2  1  0
  9  6  1  0
  9  7  1  0
 10  8  2  0
 11  8  1  0
 11  9  1  0
M  END
>  <NAME>  (2279) 
2-METHYLCYCLOHEXYL ACETATE

>  <SYNONYMS>  (2279) 


>  <SPECTRUM TYPE>  (2279) 
MS1

>  <INSTRUMENT TYPE>  (2279) 
EI-B

>  <INSTRUMENT>  (2279) 
HITACHI RMU-6M

>  <ION MODE>  (2279) 
P

>  <INCHIKEY>  (2279) 
AKIIJALHGMKJEJ-UHFFFAOYSA-N

>  <FORMULA>  (2279) 
C9H16O2

>  <EXACT MASS>  (2279) 
156.115029752

>  <MW>  (2279) 
156

>  <ID>  (2279) 
JP008957

>  <CONTRIBUTOR>  (2279) 
University of Tokyo Team, {Faculty of Engineering, University of Tokyo

>  <COMMENT>  (2279) 
SMILES=CC(=O)OC(C1)C(C)CCC1
InChI=InChI=1S/C9H16O2/c1-7-5-3-4-6-9(7)11-8(2)10/h7,9H,3-6H2,1-2H3
computed SMILES=O=C(OC1CCCCC1C)C
accession=JP008957
date=2016.01.19 (Created 2008.10.21, modified 2011.05.06)
author=YAMAMOTO M, DEP. CHEMISTRY, FAC. SCIENCE, NARA WOMEN'S UNIV.
license=CC BY-NC-SA
exact mass=156.11503
ionization energy=70 eV
ion type=[M]+*
computed spectral entropy=2.7506614320608884
computed normalized entropy=0.745663138705516
SPLASH=splash10-0006-9000000000-600b6cce25b2ab4e95da
submitter=submitter = University of Tokyo Team (Faculty of Engineering, University of Tokyo)
MoNA Rating=3.75

>  <NUM PEAKS>  (2279) 
40

>  <MASS SPECTRAL PEAKS>  (2279) 
15 6.7
27 12.8
29 10.4
39 1.15
40 2.2
41 23
42 4.4
43 99.99
44 3.9
45 2.7
51 1.4
53 0.44
54 6.1
55 25.4
56 3.8
57 0.77
58 3.8
61 1.6
66 2.5
67 1.97
68 25.7
69 7.7
70 1.6
71 0.57
72 7.8
77 1.2
79 1.8
80 0.13
81 45
82 4.1
83 1.2
84 0.13
85 2.2
86 1.4
95 8.7
96 6.8
97 10
112 1.5
113 2.3
114 5.5

$$$$

     RDKit          2D

 14 13  0  0  0  0  0  0  0  0999 V2000
    3.3750    0.8505    0.0000 C   0  0  0  0  0  0  0  0  0  0  0  0
    4.6740    1.6005    0.0000 H   0  0  0  0  0  0  0  0  0  0  0  0
    2.0760    0.1005    0.0000 H   0  0  0  0  0  0  0  0  0  0  0  0
    4.1250   -0.4486    0.0000 H   0  0  0  0  0  0  0  0  0  0  0  0
    0.3750    3.4486    0.0000 C   0  0  0  0  0  0  0  0  0  0  0  0
    1.6740    4.1986    0.0000 H   0  0  0  0  0  0  0  0  0  0  0  0
   -0.3750    4.7476    0.0000 H   0  0  0  0  0  0  0  0  0  0  0  0
   -0.9240    2.6986    0.0000 H   0  0  0  0  0  0  0  0  0  0  0  0
    2.6250    2.1495    0.0000 C   0  0  0  0  0  0  0  0  0  0  0  0
    4.0345    2.6625    0.0000 H   0  0  0  0  0  0  0  0  0  0  0  0
    2.3645    3.6267    0.0000 H   0  0  0  0  0  0  0  0  0  0  0  0
    1.1250    2.1495    0.0000 C   0  0  0  0  0  0  0  0  0  0  0  0
   -0.2845    1.6365    0.0000 H   0  0  0  0  0  0  0  0  0  0  0  0
    1.3855    0.6723    0.0000 H   0  0  0  0  0  0  0  0  0  0  0  0
  1  2  1  0
  1  3  1  0
  1  4  1  0
  5  6  1  0
  5  7  1  0
  5  8  1  0
  9 10  1  0
  9 11  1  0
 12 13  1  0
 12 14  1  0
  9  1  1  0
 12  5  1  0
 12  9  1  0
M  ISO  8   2   2   3   2   4   2   6   2   7   2   8   2  10   2  11   2
M  ISO  2  13   2  14   2
M  END
>  <NAME>  (2280) 
BUTANE (D10)

>  <SYNONYMS>  (2280) 


>  <SPECTRUM TYPE>  (2280) 
MS1

>  <INSTRUMENT TYPE>  (2280) 
EI-B

>  <INSTRUMENT>  (2280) 
HITACHI RMU-6M

>  <ION MODE>  (2280) 
P

>  <INCHIKEY>  (2280) 
IJDNQMDRQITEOD-MWUKXHIBSA-N

>  <FORMULA>  (2280) 
C4H10

>  <EXACT MASS>  (2280) 
68.14101778

>  <MW>  (2280) 
68

>  <ID>  (2280) 
JP008956

>  <CONTRIBUTOR>  (2280) 
University of Tokyo Team, {Faculty of Engineering, University of Tokyo

>  <COMMENT>  (2280) 
SMILES=[2H]C([2H])([2H])C([2H])([2H])C([2H])([2H])C([2H])([2H])[2H]
InChI=InChI=1S/C4H10/c1-3-4-2/h3-4H2,1-2H3/i1D3,2D3,3D2,4D2
computed SMILES=[H]C([H])(C([H])([H])C([H])([H])[H])C([H])([H])[H]
accession=JP008956
date=2016.01.19 (Created 2008.10.21, modified 2011.05.06)
author=YAMAMOTO M, DEP. CHEMISTRY, FAC. SCIENCE, NARA WOMEN'S UNIV.
license=CC BY-NC-SA
exact mass=58.07825
ionization energy=70 eV
ion type=[M]+*
computed spectral entropy=2.0466685362134127
computed normalized entropy=0.6722461660502108
SPLASH=splash10-0udi-9000000000-7f105779e8c3a49c8430
submitter=submitter = University of Tokyo Team (Faculty of Engineering, University of Tokyo)
MoNA Rating=3.75

>  <NUM PEAKS>  (2280) 
21

>  <MASS SPECTRAL PEAKS>  (2280) 
18 2
28 24.7
29 1.7
30 2.91
31 2.2
32 22.6
33 3.4
34 3.2
40 1.7
42 9.3
44 2.2
45 0.22
46 24.6
47 2.3
48 12.2
49 1.17
50 99.99
51 3.2
66 1.6
67 0.16
68 10.8

$$$$

     RDKit          2D

  5  4  0  0  0  0  0  0  0  0999 V2000
    0.0000    0.0000    0.0000 C   0  0  0  0  0  0  0  0  0  0  0  0
   -1.2990    3.7500    0.0000 C   0  0  0  0  0  0  0  0  0  0  0  0
    0.0000    1.5000    0.0000 C   0  0  0  0  0  0  0  0  0  0  0  0
    1.2990    2.2500    0.0000 H   0  0  0  0  0  0  0  0  0  0  0  0
   -1.2990    2.2500    0.0000 C   0  0  0  0  0  0  0  0  0  0  0  0
  3  4  1  0
  3  1  1  0
  5  2  1  0
  5  3  1  0
M  ISO  1   4   2
M  END
>  <NAME>  (2281) 
BUTANE (2-D1)

>  <SYNONYMS>  (2281) 


>  <SPECTRUM TYPE>  (2281) 
MS1

>  <INSTRUMENT TYPE>  (2281) 
EI-B

>  <INSTRUMENT>  (2281) 
HITACHI RMU-6M

>  <ION MODE>  (2281) 
P

>  <INCHIKEY>  (2281) 
IJDNQMDRQITEOD-WFVSFCRTSA-N

>  <FORMULA>  (2281) 
C4H10

>  <EXACT MASS>  (2281) 
59.08452706599999

>  <MW>  (2281) 
59

>  <ID>  (2281) 
JP008955

>  <CONTRIBUTOR>  (2281) 
University of Tokyo Team, {Faculty of Engineering, University of Tokyo

>  <COMMENT>  (2281) 
SMILES=CCC([H])([2H])C
InChI=InChI=1S/C4H10/c1-3-4-2/h3-4H2,1-2H3/i3D
computed SMILES=[H]C(C)CC
accession=JP008955
date=2016.01.19 (Created 2008.10.21, modified 2011.05.06)
author=YAMAMOTO M, DEP. CHEMISTRY, FAC. SCIENCE, NARA WOMEN'S UNIV.
license=CC BY-NC-SA
exact mass=58.07825
ionization energy=70 eV
ion type=[M]+*
computed spectral entropy=2.2429694677833787
computed normalized entropy=0.7256352837685766
SPLASH=splash10-0006-9000000000-4328d076a4cc5022d4a7
submitter=submitter = University of Tokyo Team (Faculty of Engineering, University of Tokyo)
MoNA Rating=3.75

>  <NUM PEAKS>  (2281) 
22

>  <MASS SPECTRAL PEAKS>  (2281) 
15 2
26 6.2
27 42.2
28 4.79
29 54.2
30 36.3
37 1.5
38 0.3
39 17.4
40 9.1
41 33
42 3.77
43 95.1
44 99.99
45 2.9
50 0.22
51 1
54 1.2
56 2.2
57 0.58
59 28.7
60 1.2

$$$$

     RDKit          2D

  4  3  0  0  0  0  0  0  0  0999 V2000
   -2.5981    2.2500    0.0000 C   0  0  0  0  0  0  0  0  0  0  0  0
    1.2990    1.5000    0.0000 C   0  0  0  0  0  0  0  0  0  0  0  0
   -1.2990    1.5000    0.0000 C   0  0  0  0  0  0  0  0  0  0  0  0
    0.0000    2.2500    0.0000 C   0  0  0  0  0  0  0  0  0  0  0  0
  3  1  1  0
  4  2  1  0
  4  3  1  0
M  END
>  <NAME>  (2282) 
BUTANE

>  <SYNONYMS>  (2282) 


>  <SPECTRUM TYPE>  (2282) 
MS1

>  <INSTRUMENT TYPE>  (2282) 
EI-B

>  <INSTRUMENT>  (2282) 
HITACHI RMU-6M

>  <ION MODE>  (2282) 
P

>  <INCHIKEY>  (2282) 
IJDNQMDRQITEOD-UHFFFAOYSA-N

>  <FORMULA>  (2282) 
C4H10

>  <EXACT MASS>  (2282) 
58.078250319999995

>  <MW>  (2282) 
58

>  <ID>  (2282) 
JP008954

>  <CONTRIBUTOR>  (2282) 
University of Tokyo Team, {Faculty of Engineering, University of Tokyo

>  <COMMENT>  (2282) 
SMILES=CCCC
InChI=InChI=1S/C4H10/c1-3-4-2/h3-4H2,1-2H3
computed SMILES=CCCC
accession=JP008954
date=2016.01.19 (Created 2008.10.21, modified 2011.05.06)
author=YAMAMOTO M, DEP. CHEMISTRY, FAC. SCIENCE, NARA WOMEN'S UNIV.
license=CC BY-NC-SA
exact mass=58.07825
ionization energy=70 eV
ion type=[M]+*
computed spectral entropy=1.9388249497809924
computed normalized entropy=0.6584700730764903
SPLASH=splash10-0006-9000000000-8ea252b3301613570d5c
submitter=submitter = University of Tokyo Team (Faculty of Engineering, University of Tokyo)
MoNA Rating=3.75

>  <NUM PEAKS>  (2282) 
19

>  <MASS SPECTRAL PEAKS>  (2282) 
14 1
15 1.3
26 4.1
27 2.71
28 26.4
29 36.7
38 1.7
39 1.09
40 1.1
41 28.2
42 28.2
43 99.99
44 3.2
50 1.1
51 1.1
55 0.1
57 2.6
58 13.9
59 0.8

$$$$

     RDKit          2D

  6  6  0  0  0  0  0  0  0  0999 V2000
    2.1595   -0.2383    0.0000 C   0  0  0  0  0  0  0  0  0  0  0  0
   -0.0732    1.1914    0.0000 C   0  0  0  0  0  0  0  0  0  0  0  0
   -1.5429    0.8971    0.0000 C   0  0  0  0  0  0  0  0  0  0  0  0
   -0.3229   -1.2161    0.0000 C   0  0  0  0  0  0  0  0  0  0  0  0
    0.6668   -0.0904    0.0000 C   0  0  0  0  0  0  0  0  0  0  0  0
   -1.6900   -0.6082    0.0000 O   0  0  0  0  0  0  0  0  0  0  0  0
  3  2  1  0
  5  1  1  0
  5  2  1  0
  5  4  1  0
  6  3  1  0
  6  4  1  0
M  END
>  <NAME>  (2283) 
3-METHYLTETRAHYDROFURAN

>  <SYNONYMS>  (2283) 


>  <SPECTRUM TYPE>  (2283) 
MS1

>  <INSTRUMENT TYPE>  (2283) 
EI-B

>  <INSTRUMENT>  (2283) 
HITACHI RMU-6M

>  <ION MODE>  (2283) 
P

>  <INCHIKEY>  (2283) 
LJPCNSSTRWGCMZ-UHFFFAOYSA-N

>  <FORMULA>  (2283) 
C5H10O

>  <EXACT MASS>  (2283) 
86.07316494

>  <MW>  (2283) 
86

>  <ID>  (2283) 
JP008953

>  <CONTRIBUTOR>  (2283) 
University of Tokyo Team, {Faculty of Engineering, University of Tokyo

>  <COMMENT>  (2283) 
SMILES=CC(C1)COC1
InChI=InChI=1S/C5H10O/c1-5-2-3-6-4-5/h5H,2-4H2,1H3
computed SMILES=O1CCC(C)C1
accession=JP008953
license=CC BY-NC-SA
date=2016.01.19 (Created 2008.10.21, modified 2011.05.06)
author=YAMAMOTO M, DEP. CHEMISTRY, FAC. SCIENCE, NARA WOMEN'S UNIV.
exact mass=86.07316
ionization energy=70 eV
ion type=[M]+*
computed spectral entropy=2.0992011293530384
computed normalized entropy=0.775170684981629
SPLASH=splash10-0a4l-9000000000-3e96b0618bf1dcea9bb2
submitter=submitter = University of Tokyo Team (Faculty of Engineering, University of Tokyo)
MoNA Rating=3.75

>  <NUM PEAKS>  (2283) 
15

>  <MASS SPECTRAL PEAKS>  (2283) 
27 28.5
28 5.1
29 35
39 2.95
41 94.7
42 8.9
43 9.1
44 0.96
55 26.4
56 99.99
57 14.4
71 0.85
85 11.9
86 54.8
87 2.7

$$$$

     RDKit          2D

  6  6  0  0  0  0  0  0  0  0999 V2000
   -0.2055    1.5881    0.0000 C   0  0  0  0  0  0  0  0  0  0  0  0
    1.2542    1.2765    0.0000 C   0  0  0  0  0  0  0  0  0  0  0  0
    0.0442   -0.8193    0.0000 C   0  0  0  0  0  0  0  0  0  0  0  0
   -0.9555    0.2891    0.0000 C   0  0  0  0  0  0  0  0  0  0  0  0
   -2.4472    0.1316    0.0000 O   0  0  0  0  0  0  0  0  0  0  0  0
    1.4200   -0.2164    0.0000 O   0  0  0  0  0  0  0  0  0  0  0  0
  2  1  1  0
  4  1  1  0
  4  3  1  0
  5  4  1  0
  6  2  1  0
  6  3  1  0
M  END
>  <NAME>  (2284) 
3-HYDROXYTETRAHYDROFURAN

>  <SYNONYMS>  (2284) 


>  <SPECTRUM TYPE>  (2284) 
MS1

>  <INSTRUMENT TYPE>  (2284) 
EI-B

>  <INSTRUMENT>  (2284) 
HITACHI RMU-6M

>  <ION MODE>  (2284) 
P

>  <INCHIKEY>  (2284) 
XDPCNPCKDGQBAN-UHFFFAOYSA-N

>  <FORMULA>  (2284) 
C4H8O2

>  <EXACT MASS>  (2284) 
88.052429496

>  <MW>  (2284) 
88

>  <ID>  (2284) 
JP008952

>  <CONTRIBUTOR>  (2284) 
University of Tokyo Team, {Faculty of Engineering, University of Tokyo

>  <COMMENT>  (2284) 
SMILES=OC(C1)COC1
InChI=InChI=1S/C4H8O2/c5-4-1-2-6-3-4/h4-5H,1-3H2
computed SMILES=OC1COCC1
accession=JP008952
date=2016.01.19 (Created 2008.10.21, modified 2011.05.06)
author=YAMAMOTO M, DEP. CHEMISTRY, FAC. SCIENCE, NARA WOMEN'S UNIV.
license=CC BY-NC-SA
exact mass=88.05243
ionization energy=70 eV
ion type=[M]+*
computed spectral entropy=2.614809999214588
computed normalized entropy=0.7544746837467521
SPLASH=splash10-0a4i-9000000000-ece2550529c83fa8c0bf
submitter=submitter = University of Tokyo Team (Faculty of Engineering, University of Tokyo)
MoNA Rating=3.75

>  <NUM PEAKS>  (2284) 
32

>  <MASS SPECTRAL PEAKS>  (2284) 
14 2.9
15 9.6
26 5.9
27 2.04
28 20.9
29 31.7
30 21.6
31 5.72
32 9.6
33 1.5
37 1.8
38 0.3
39 16.5
40 10.2
41 15.5
42 0.87
43 24.9
44 16.3
45 5.2
55 0.24
56 2.8
57 99.99
58 76.1
59 0.45
60 4.8
61 1
69 1.7
70 1.66
71 1.9
87 1.6
88 14.5
89 1

$$$$

     RDKit          2D

  7  7  0  0  0  0  0  0  0  0999 V2000
    3.3407   -0.3428    0.0000 C   0  0  0  0  0  0  0  0  0  0  0  0
    2.2271    0.6621    0.0000 C   0  0  0  0  0  0  0  0  0  0  0  0
   -1.1700   -1.2200    0.0000 C   0  0  0  0  0  0  0  0  0  0  0  0
    0.3300   -1.2200    0.0000 C   0  0  0  0  0  0  0  0  0  0  0  0
   -1.6300    0.2000    0.0000 C   0  0  0  0  0  0  0  0  0  0  0  0
    0.8000    0.2000    0.0000 C   0  0  0  0  0  0  0  0  0  0  0  0
   -0.4200    1.0800    0.0000 O   0  0  0  0  0  0  0  0  0  0  0  0
  2  1  1  0
  4  3  1  0
  5  3  1  0
  6  2  1  0
  6  4  1  0
  7  5  1  0
  7  6  1  0
M  END
>  <NAME>  (2285) 
2-ETHYLTETRAHYDROFURAN

>  <SYNONYMS>  (2285) 


>  <SPECTRUM TYPE>  (2285) 
MS1

>  <INSTRUMENT TYPE>  (2285) 
EI-B

>  <INSTRUMENT>  (2285) 
HITACHI RMU-6M

>  <ION MODE>  (2285) 
P

>  <INCHIKEY>  (2285) 
IHMXVSZXHFTOFN-UHFFFAOYSA-N

>  <FORMULA>  (2285) 
C6H12O

>  <EXACT MASS>  (2285) 
100.088815004

>  <MW>  (2285) 
100

>  <ID>  (2285) 
JP008951

>  <CONTRIBUTOR>  (2285) 
University of Tokyo Team, {Faculty of Engineering, University of Tokyo

>  <COMMENT>  (2285) 
SMILES=CCC(C1)OCC1
InChI=InChI=1S/C6H12O/c1-2-6-4-3-5-7-6/h6H,2-5H2,1H3
computed SMILES=O1CCCC1CC
accession=JP008951
date=2016.01.19 (Created 2008.10.21, modified 2011.05.06)
author=YAMAMOTO M, DEP. CHEMISTRY, FAC. SCIENCE, NARA WOMEN'S UNIV.
license=CC BY-NC-SA
exact mass=100.08882
ionization energy=70 eV
ion type=[M]+*
computed spectral entropy=2.2024355175403674
computed normalized entropy=0.7024205327349691
SPLASH=splash10-00dl-9000000000-bdb562318e1e8fa23165
submitter=submitter = University of Tokyo Team (Faculty of Engineering, University of Tokyo)
MoNA Rating=3.75

>  <NUM PEAKS>  (2285) 
23

>  <MASS SPECTRAL PEAKS>  (2285) 
15 2.5
26 2.3
27 22.2
28 0.39
29 17
31 4.6
38 1.8
39 1.62
40 3.3
41 31.3
42 22.9
43 5.87
44 2.3
53 2
55 8
57 0.82
58 1.6
59 3.7
70 7.3
71 99.99
73 4.5
99 1.2
100 4.8

$$$$

     RDKit          2D

  6  6  0  0  0  0  0  0  0  0999 V2000
   -1.6300   -0.8021    0.0000 C   0  0  0  0  0  0  0  0  0  0  0  0
    1.7671    1.0800    0.0000 C   0  0  0  0  0  0  0  0  0  0  0  0
    0.2671    1.0800    0.0000 C   0  0  0  0  0  0  0  0  0  0  0  0
    2.2271   -0.3400    0.0000 C   0  0  0  0  0  0  0  0  0  0  0  0
   -0.2029   -0.3400    0.0000 C   0  0  0  0  0  0  0  0  0  0  0  0
    1.0171   -1.2200    0.0000 O   0  0  0  0  0  0  0  0  0  0  0  0
  3  2  1  0
  4  2  1  0
  5  1  1  0
  5  3  1  0
  6  4  1  0
  6  5  1  0
M  END
>  <NAME>  (2286) 
2-METHYLTETRAHYDROFURAN

>  <SYNONYMS>  (2286) 


>  <SPECTRUM TYPE>  (2286) 
MS1

>  <INSTRUMENT TYPE>  (2286) 
EI-B

>  <INSTRUMENT>  (2286) 
HITACHI RMU-6M

>  <ION MODE>  (2286) 
P

>  <INCHIKEY>  (2286) 
JWUJQDFVADABEY-UHFFFAOYSA-N

>  <FORMULA>  (2286) 
C5H10O

>  <EXACT MASS>  (2286) 
86.07316494

>  <MW>  (2286) 
86

>  <ID>  (2286) 
JP008950

>  <CONTRIBUTOR>  (2286) 
University of Tokyo Team, {Faculty of Engineering, University of Tokyo

>  <COMMENT>  (2286) 
SMILES=CC(C1)OCC1
InChI=InChI=1S/C5H10O/c1-5-3-2-4-6-5/h5H,2-4H2,1H3
computed SMILES=O1CCCC1C
accession=JP008950
date=2016.01.19 (Created 2008.10.21, modified 2011.05.06)
author=YAMAMOTO M, DEP. CHEMISTRY, FAC. SCIENCE, NARA WOMEN'S UNIV.
license=CC BY-NC-SA
exact mass=86.07316
ionization energy=70 eV
ion type=[M]+*
computed spectral entropy=2.501542112218277
computed normalized entropy=0.7284657639233488
SPLASH=splash10-006x-9000000000-41022bbc836da7b6c5df
submitter=submitter = University of Tokyo Team (Faculty of Engineering, University of Tokyo)
MoNA Rating=3.75

>  <NUM PEAKS>  (2286) 
31

>  <MASS SPECTRAL PEAKS>  (2286) 
14 1.5
15 7.4
26 5.6
27 3.26
28 10.6
29 14.5
31 3
37 0.13
38 3
39 23.9
40 8.1
41 6.76
42 52.3
43 58.8
44 2.7
45 2.47
50 2
51 1.9
53 2.7
54 0.13
55 6.9
56 23.2
57 3
58 0.2
67 1.3
70 1.7
71 99.99
72 0.45
85 4.9
86 19.8
87 1.7

$$$$

     RDKit          2D

  5  5  0  0  0  0  0  0  0  0999 V2000
   -0.7500    1.0300    0.0000 C   0  0  0  0  0  0  0  0  0  0  0  0
    0.7500    1.0300    0.0000 C   0  0  0  0  0  0  0  0  0  0  0  0
   -1.2100   -0.3900    0.0000 C   0  0  0  0  0  0  0  0  0  0  0  0
    1.2100   -0.3900    0.0000 C   0  0  0  0  0  0  0  0  0  0  0  0
   -0.0000   -1.2800    0.0000 O   0  0  0  0  0  0  0  0  0  0  0  0
  2  1  1  0
  3  1  1  0
  4  2  1  0
  5  3  1  0
  5  4  1  0
M  END
>  <NAME>  (2287) 
TETRAHYDROFURAN

>  <SYNONYMS>  (2287) 


>  <SPECTRUM TYPE>  (2287) 
MS1

>  <INSTRUMENT TYPE>  (2287) 
EI-B

>  <INSTRUMENT>  (2287) 
HITACHI RMU-6M

>  <ION MODE>  (2287) 
P

>  <INCHIKEY>  (2287) 
WYURNTSHIVDZCO-UHFFFAOYSA-N

>  <FORMULA>  (2287) 
C4H8O

>  <EXACT MASS>  (2287) 
72.057514876

>  <MW>  (2287) 
72

>  <ID>  (2287) 
JP008949

>  <CONTRIBUTOR>  (2287) 
University of Tokyo Team, {Faculty of Engineering, University of Tokyo

>  <COMMENT>  (2287) 
SMILES=C(C1)COC1
InChI=InChI=1S/C4H8O/c1-2-4-5-3-1/h1-4H2
computed SMILES=O1CCCC1
accession=JP008949
date=2016.01.19 (Created 2008.10.21, modified 2011.05.06)
author=YAMAMOTO M, DEP. CHEMISTRY, FAC. SCIENCE, NARA WOMEN'S UNIV.
license=CC BY-NC-SA
exact mass=72.05751
ionization energy=70 eV
ion type=[M]+*
computed spectral entropy=2.118855535910002
computed normalized entropy=0.7196126497788187
SPLASH=splash10-0006-9000000000-5fecd52ae1047ea6ca80
submitter=submitter = University of Tokyo Team (Faculty of Engineering, University of Tokyo)
MoNA Rating=3.75

>  <NUM PEAKS>  (2287) 
19

>  <MASS SPECTRAL PEAKS>  (2287) 
14 1.8
15 4.7
26 4
27 2.48
28 3.2
29 12.7
31 3.7
37 0.19
38 3.6
39 20.9
40 11.2
41 5.3
42 99.99
43 17
44 4.2
45 0.12
71 27
72 29.5
73 1.6

$$$$

     RDKit          2D

  7  7  0  0  0  0  0  0  0  0999 V2000
   -1.8037    1.1774    0.0000 C   0  0  0  0  0  0  0  0  0  0  0  0
   -1.1855   -0.1893    0.0000 C   0  0  0  0  0  0  0  0  0  0  0  0
    1.0472   -1.6190    0.0000 C   0  0  0  0  0  0  0  0  0  0  0  0
    2.5169   -1.3247    0.0000 C   0  0  0  0  0  0  0  0  0  0  0  0
    1.2969    0.7884    0.0000 C   0  0  0  0  0  0  0  0  0  0  0  0
    0.3072   -0.3373    0.0000 C   0  0  0  0  0  0  0  0  0  0  0  0
    2.6640    0.1805    0.0000 O   0  0  0  0  0  0  0  0  0  0  0  0
  2  1  1  0
  4  3  1  0
  6  2  1  0
  6  3  1  0
  6  5  1  0
  7  4  1  0
  7  5  1  0
M  END
>  <NAME>  (2288) 
3-ETHYLTETRAHYDROFURAN

>  <SYNONYMS>  (2288) 


>  <SPECTRUM TYPE>  (2288) 
MS1

>  <INSTRUMENT TYPE>  (2288) 
EI-B

>  <INSTRUMENT>  (2288) 
HITACHI RMU-6M

>  <ION MODE>  (2288) 
P

>  <INCHIKEY>  (2288) 
AIUUAKHKOQFCKF-UHFFFAOYSA-N

>  <FORMULA>  (2288) 
C6H12O

>  <EXACT MASS>  (2288) 
100.088815004

>  <MW>  (2288) 
100

>  <ID>  (2288) 
JP008948

>  <CONTRIBUTOR>  (2288) 
University of Tokyo Team, {Faculty of Engineering, University of Tokyo

>  <COMMENT>  (2288) 
SMILES=CCC(C1)COC1
InChI=InChI=1S/C6H12O/c1-2-6-3-4-7-5-6/h6H,2-5H2,1H3
computed SMILES=O1CCC(C1)CC
accession=JP008948
date=2016.01.19 (Created 2008.10.21, modified 2011.05.06)
author=YAMAMOTO M, DEP. CHEMISTRY, FAC. SCIENCE, NARA WOMEN'S UNIV.
license=CC BY-NC-SA
exact mass=100.08882
ionization energy=70 eV
ion type=[M]+*
computed spectral entropy=2.804014304895787
computed normalized entropy=0.7708447805142026
SPLASH=splash10-05mo-9000000000-fb9e96ae921b56721506
submitter=submitter = University of Tokyo Team (Faculty of Engineering, University of Tokyo)
MoNA Rating=3.75

>  <NUM PEAKS>  (2288) 
38

>  <MASS SPECTRAL PEAKS>  (2288) 
15 4.2
26 4.5
27 36.9
28 0.7
29 22.9
31 3.7
37 1.7
38 0.44
39 45.3
40 14
41 53.2
42 99.99
43 15.8
44 8.8
45 9.4
50 0.25
51 3.5
52 2.1
53 20.4
54 0.57
55 81.4
56 4.3
57 4.9
65 0.21
66 2.6
67 37.9
68 40.6
69 0.55
70 69.2
71 4.5
72 2.3
81 0.17
82 5.5
83 1.5
98 3.6
99 0.63
100 20.9
101 1.5

$$$$

     RDKit          2D

 11 11  0  0  0  0  0  0  0  0999 V2000
    0.0000    2.7800    0.0000 C   0  0  0  0  0  0  0  0  0  0  0  0
   -2.2174   -1.3410    0.0000 C   0  0  0  0  0  0  0  0  0  0  0  0
   -0.5936   -2.5218    0.0000 C   0  0  0  0  0  0  0  0  0  0  0  0
    1.2100    0.3900    0.0000 C   0  0  0  0  0  0  0  0  0  0  0  0
    2.5795   -0.2220    0.0000 H   0  0  0  0  0  0  0  0  0  0  0  0
    1.9647    1.6863    0.0000 H   0  0  0  0  0  0  0  0  0  0  0  0
   -1.2100    0.3900    0.0000 C   0  0  0  0  0  0  0  0  0  0  0  0
    0.0000    1.2800    0.0000 C   0  0  0  0  0  0  0  0  0  0  0  0
    0.7500   -1.0300    0.0000 C   0  0  0  0  0  0  0  0  0  0  0  0
   -0.7500   -1.0300    0.0000 C   0  0  0  0  0  0  0  0  0  0  0  0
    1.6322   -2.2431    0.0000 O   0  0  0  0  0  0  0  0  0  0  0  0
  4  5  1  0
  4  6  1  0
  8  1  1  0
  8  4  1  0
  8  7  1  0
  9  4  1  0
 10  2  1  0
 10  3  1  0
 10  7  1  0
 10  9  1  0
 11  9  2  0
M  ISO  2   5   2   6   2
M  END
>  <NAME>  (2289) 
2,2,4-TRIMETHYLCYCLOPENTANONE (5,5-D2)

>  <SYNONYMS>  (2289) 


>  <SPECTRUM TYPE>  (2289) 
MS1

>  <INSTRUMENT TYPE>  (2289) 
EI-B

>  <INSTRUMENT>  (2289) 
HITACHI RMU-6M

>  <ION MODE>  (2289) 
P

>  <INCHIKEY>  (2289) 
PJXIBUIXCXSNCM-APZFVMQVSA-N

>  <FORMULA>  (2289) 
C8H14O

>  <EXACT MASS>  (2289) 
128.11701856

>  <MW>  (2289) 
128

>  <ID>  (2289) 
JP008947

>  <CONTRIBUTOR>  (2289) 
University of Tokyo Team, {Faculty of Engineering, University of Tokyo

>  <COMMENT>  (2289) 
SMILES=CC(C1)C([2H])([2H])C(=O)C(C)(C)1
InChI=InChI=1S/C8H14O/c1-6-4-7(9)8(2,3)5-6/h6H,4-5H2,1-3H3/i4D2
computed SMILES=[H]C1([H])C(=O)C(C)(C)CC1C
accession=JP008947
date=2016.01.19 (Created 2008.10.21, modified 2011.05.06)
author=YAMAMOTO M, DEP. CHEMISTRY, FAC. SCIENCE, NARA WOMEN'S UNIV.
license=CC BY-NC-SA
exact mass=126.10447
ionization energy=70 eV
ion type=[M]+*
computed spectral entropy=2.785105305667054
computed normalized entropy=0.7404831489944488
SPLASH=splash10-0a4i-9100000000-85a74e1774e66f35c46f
submitter=submitter = University of Tokyo Team (Faculty of Engineering, University of Tokyo)
MoNA Rating=3.75

>  <NUM PEAKS>  (2289) 
43

>  <MASS SPECTRAL PEAKS>  (2289) 
27 9.8
28 5.5
29 6.9
30 0.2
31 1.1
38 1.2
39 16.1
40 0.86
41 36.1
42 9.8
43 9.2
44 0.84
45 1.8
51 1.5
52 1
53 0.27
54 2
55 9.6
56 99.99
57 1.37
58 3.7
67 2.5
68 1.2
69 1.36
70 14.2
71 1.7
72 1.6
73 0.23
82 10.7
83 13.1
84 6.8
85 0.36
94 1.4
95 4.1
99 1.6
109 0.11
110 4.4
112 4.7
113 21.3
114 0.18
127 3.1
128 18.5
129 1.7

$$$$

     RDKit          2D

 11 11  0  0  0  0  0  0  0  0999 V2000
    0.0000    2.7800    0.0000 C   0  0  0  0  0  0  0  0  0  0  0  0
    2.2174   -1.3410    0.0000 C   0  0  0  0  0  0  0  0  0  0  0  0
    1.2100    0.3900    0.0000 C   0  0  0  0  0  0  0  0  0  0  0  0
   -1.2100    0.3900    0.0000 C   0  0  0  0  0  0  0  0  0  0  0  0
   -1.9647    1.6863    0.0000 H   0  0  0  0  0  0  0  0  0  0  0  0
   -2.5795   -0.2220    0.0000 H   0  0  0  0  0  0  0  0  0  0  0  0
    0.0000    1.2800    0.0000 C   0  0  0  0  0  0  0  0  0  0  0  0
    0.7500   -1.0300    0.0000 C   0  0  0  0  0  0  0  0  0  0  0  0
    0.5936   -2.5218    0.0000 H   0  0  0  0  0  0  0  0  0  0  0  0
   -0.7500   -1.0300    0.0000 C   0  0  0  0  0  0  0  0  0  0  0  0
   -1.6322   -2.2431    0.0000 O   0  0  0  0  0  0  0  0  0  0  0  0
  4  5  1  0
  4  6  1  0
  8  9  1  0
  7  1  1  0
  7  3  1  0
  7  4  1  0
  8  2  1  0
  8  3  1  0
 10  4  1  0
 10  8  1  0
 11 10  2  0
M  ISO  3   5   2   6   2   9   2
M  END
>  <NAME>  (2290) 
2,4-DIMETHYLCYCLOPENTANONE (2,5,5-D3)

>  <SYNONYMS>  (2290) 


>  <SPECTRUM TYPE>  (2290) 
MS1

>  <INSTRUMENT TYPE>  (2290) 
EI-B

>  <INSTRUMENT>  (2290) 
HITACHI RMU-6M

>  <ION MODE>  (2290) 
P

>  <INCHIKEY>  (2290) 
UKJQTRVEZWBIRE-HRMNUFNHSA-N

>  <FORMULA>  (2290) 
C7H12O

>  <EXACT MASS>  (2290) 
115.107645242

>  <MW>  (2290) 
115

>  <ID>  (2290) 
JP008946

>  <CONTRIBUTOR>  (2290) 
University of Tokyo Team, {Faculty of Engineering, University of Tokyo

>  <COMMENT>  (2290) 
SMILES=CC(C1)C([2H])([2H])C(=O)C([2H])(C)1
InChI=InChI=1S/C7H12O/c1-5-3-6(2)7(8)4-5/h5-6H,3-4H2,1-2H3/i4D2,6D
computed SMILES=[H]C1(C(=O)C([H])([H])C(C)C1)C
accession=JP008946
date=2016.01.19 (Created 2008.10.21, modified 2011.05.06)
author=YAMAMOTO M, DEP. CHEMISTRY, FAC. SCIENCE, NARA WOMEN'S UNIV.
license=CC BY-NC-SA
exact mass=112.08882
ionization energy=70 eV
ion type=[M]+*
computed spectral entropy=2.9976129870662014
computed normalized entropy=0.7550107277588844
SPLASH=splash10-0006-9000000000-0f23aa9b94bc89b92ec5
submitter=submitter = University of Tokyo Team (Faculty of Engineering, University of Tokyo)
MoNA Rating=3.75

>  <NUM PEAKS>  (2290) 
53

>  <MASS SPECTRAL PEAKS>  (2290) 
26 2.1
27 15.6
28 23
29 1.49
30 9.3
31 4.1
37 1.2
38 0.27
39 20
40 28.9
41 33.6
42 5.15
43 99.99
44 80.4
45 11.2
46 0.12
50 1.2
51 2.5
52 2.6
53 0.31
54 4.8
55 9.7
56 40.1
57 3.03
58 18.7
59 3.6
66 1.5
67 0.16
68 2.9
69 28.3
70 88.1
71 2.75
72 17.9
73 2.6
80 1
81 0.2
82 2
83 1
84 1.5
85 0.65
86 13.4
87 3.7
95 1
96 0.44
97 2.2
98 1.7
99 4.2
100 3.09
101 2.6
113 1.5
114 7
115 4.99
116 5

$$$$

     RDKit          2D

 11 11  0  0  0  0  0  0  0  0999 V2000
    2.4514    0.6951    0.0000 C   0  0  0  0  0  0  0  0  0  0  0  0
   -0.0400    1.6460    0.0000 C   0  0  0  0  0  0  0  0  0  0  0  0
   -1.4158    1.0431    0.0000 C   0  0  0  0  0  0  0  0  0  0  0  0
   -1.8765    2.4706    0.0000 H   0  0  0  0  0  0  0  0  0  0  0  0
   -2.8824    0.7284    0.0000 H   0  0  0  0  0  0  0  0  0  0  0  0
    0.2097   -0.7614    0.0000 C   0  0  0  0  0  0  0  0  0  0  0  0
   -0.2546   -2.1877    0.0000 H   0  0  0  0  0  0  0  0  0  0  0  0
    1.5799   -1.3719    0.0000 H   0  0  0  0  0  0  0  0  0  0  0  0
    0.9597    0.5377    0.0000 C   0  0  0  0  0  0  0  0  0  0  0  0
   -1.2500   -0.4498    0.0000 C   0  0  0  0  0  0  0  0  0  0  0  0
   -2.3622   -1.4562    0.0000 O   0  0  0  0  0  0  0  0  0  0  0  0
  3  4  1  0
  3  5  1  0
  6  7  1  0
  6  8  1  0
  3  2  1  0
  9  1  1  0
  9  2  1  0
  9  6  1  0
 10  3  1  0
 10  6  1  0
 11 10  2  0
M  ISO  4   4   2   5   2   7   2   8   2
M  END
>  <NAME>  (2291) 
3-METHYLCYCLOPENTANONE (2,2,5,5-D4)

>  <SYNONYMS>  (2291) 


>  <SPECTRUM TYPE>  (2291) 
MS1

>  <INSTRUMENT TYPE>  (2291) 
EI-B

>  <INSTRUMENT>  (2291) 
HITACHI RMU-6M

>  <ION MODE>  (2291) 
P

>  <INCHIKEY>  (2291) 
AOKRXIIIYJGNNU-KHORGVISSA-N

>  <FORMULA>  (2291) 
C6H10O

>  <EXACT MASS>  (2291) 
102.098271924

>  <MW>  (2291) 
102

>  <ID>  (2291) 
JP008945

>  <CONTRIBUTOR>  (2291) 
University of Tokyo Team, {Faculty of Engineering, University of Tokyo

>  <COMMENT>  (2291) 
SMILES=CC(C1)C([2H])([2H])C(=O)C([2H])([2H])1
InChI=InChI=1S/C6H10O/c1-5-2-3-6(7)4-5/h5H,2-4H2,1H3/i3D2,4D2
computed SMILES=[H]C1([H])C(=O)C([H])([H])C(C)C1
accession=JP008945
date=2016.01.19 (Created 2008.10.21, modified 2011.05.06)
author=YAMAMOTO M, DEP. CHEMISTRY, FAC. SCIENCE, NARA WOMEN'S UNIV.
license=CC BY-NC-SA
exact mass=98.07316
ionization energy=70 eV
ion type=[M]+*
computed spectral entropy=2.9142507607471946
computed normalized entropy=0.7900097568916612
SPLASH=splash10-0596-9100000000-70bfccdcd6575ab1802c
submitter=submitter = University of Tokyo Team (Faculty of Engineering, University of Tokyo)
MoNA Rating=3.75

>  <NUM PEAKS>  (2291) 
40

>  <MASS SPECTRAL PEAKS>  (2291) 
26 2.5
27 13.4
28 22.2
29 3.09
30 43.6
31 9.8
32 4
37 0.13
38 2.8
39 12.1
40 22.1
41 2.61
42 39.2
43 48.8
44 99.4
45 0.88
46 3
51 2.7
52 3
53 0.25
54 3.3
55 12.5
56 65.4
57 2.94
58 53.7
59 16.9
60 1.5
69 0.67
70 99.99
71 6.7
72 9.9
73 1.55
74 10
85 1.7
86 3.9
87 0.57
100 4.3
101 28.4
102 49.4
103 3.4

$$$$

     RDKit          2D

 10 10  0  0  0  0  0  0  0  0999 V2000
   -1.5498   -2.3970    0.0000 C   0  0  0  0  0  0  0  0  0  0  0  0
   -0.1851    1.1908    0.0000 C   0  0  0  0  0  0  0  0  0  0  0  0
   -1.5608    0.5879    0.0000 C   0  0  0  0  0  0  0  0  0  0  0  0
    0.8147    0.0824    0.0000 C   0  0  0  0  0  0  0  0  0  0  0  0
    2.0285   -0.7989    0.0000 H   0  0  0  0  0  0  0  0  0  0  0  0
    1.8177    1.1977    0.0000 H   0  0  0  0  0  0  0  0  0  0  0  0
   -1.3951   -0.9050    0.0000 C   0  0  0  0  0  0  0  0  0  0  0  0
   -2.8950   -0.9104    0.0000 H   0  0  0  0  0  0  0  0  0  0  0  0
    0.0647   -1.2166    0.0000 C   0  0  0  0  0  0  0  0  0  0  0  0
    0.6742   -2.5872    0.0000 O   0  0  0  0  0  0  0  0  0  0  0  0
  4  5  1  0
  4  6  1  0
  7  8  1  0
  3  2  1  0
  4  2  1  0
  7  1  1  0
  7  3  1  0
  9  4  1  0
  9  7  1  0
 10  9  2  0
M  ISO  3   5   2   6   2   8   2
M  END
>  <NAME>  (2292) 
2-METHYLCYCLOPENTANONE (2,5,5-D3)

>  <SYNONYMS>  (2292) 


>  <SPECTRUM TYPE>  (2292) 
MS1

>  <INSTRUMENT TYPE>  (2292) 
EI-B

>  <INSTRUMENT>  (2292) 
HITACHI RMU-6M

>  <ION MODE>  (2292) 
P

>  <INCHIKEY>  (2292) 
ZIXLDMFVRPABBX-AFBAWBIXSA-N

>  <FORMULA>  (2292) 
C6H10O

>  <EXACT MASS>  (2292) 
101.091995178

>  <MW>  (2292) 
101

>  <ID>  (2292) 
JP008944

>  <CONTRIBUTOR>  (2292) 
University of Tokyo Team, {Faculty of Engineering, University of Tokyo

>  <COMMENT>  (2292) 
SMILES=[2H]C([2H])(C1)C(=O)C([2H])(C)C1
InChI=InChI=1S/C6H10O/c1-5-3-2-4-6(5)7/h5H,2-4H2,1H3/i4D2,5D
computed SMILES=[H]C1(C(=O)C([H])([H])CC1)C
accession=JP008944
date=2016.01.19 (Created 2008.10.21, modified 2011.05.06)
author=YAMAMOTO M, DEP. CHEMISTRY, FAC. SCIENCE, NARA WOMEN'S UNIV.
license=CC BY-NC-SA
exact mass=98.07316
ionization energy=70 eV
ion type=[M]+*
computed spectral entropy=2.8583176667025545
computed normalized entropy=0.774847132376441
SPLASH=splash10-0006-9100000000-e63dd085d61c104055e9
submitter=submitter = University of Tokyo Team (Faculty of Engineering, University of Tokyo)
MoNA Rating=3.75

>  <NUM PEAKS>  (2292) 
40

>  <MASS SPECTRAL PEAKS>  (2292) 
26 2
27 9.2
28 16
29 1.18
30 18.2
31 3.4
32 1
38 0.18
39 8.9
40 14.3
41 16.7
42 2.92
43 99.99
44 21.5
45 6.4
46 0.15
50 1
51 1.4
52 1.6
53 0.14
54 2.3
55 6.6
56 25.3
57 1.83
58 15.1
59 1.5
69 20
70 0.87
71 18.4
72 7.4
73 7.1
82 0.22
83 4.1
84 1.1
85 3.5
86 0.93
99 1.2
100 6.4
101 42.1
102 3.1

$$$$

     RDKit          2D

 10 10  0  0  0  0  0  0  0  0999 V2000
    0.7700   -1.4900    0.0000 C   0  0  0  0  0  0  0  0  0  0  0  0
   -0.7300   -1.4900    0.0000 C   0  0  0  0  0  0  0  0  0  0  0  0
    1.2000   -0.0500    0.0000 C   0  0  0  0  0  0  0  0  0  0  0  0
    2.5819   -0.6333    0.0000 H   0  0  0  0  0  0  0  0  0  0  0  0
    1.9305    1.2601    0.0000 H   0  0  0  0  0  0  0  0  0  0  0  0
   -1.2100   -0.0900    0.0000 C   0  0  0  0  0  0  0  0  0  0  0  0
   -1.9800    1.1973    0.0000 H   0  0  0  0  0  0  0  0  0  0  0  0
   -2.5705   -0.7217    0.0000 H   0  0  0  0  0  0  0  0  0  0  0  0
   -0.0100    0.8100    0.0000 C   0  0  0  0  0  0  0  0  0  0  0  0
   -0.0292    2.3099    0.0000 O   0  0  0  0  0  0  0  0  0  0  0  0
  3  4  1  0
  3  5  1  0
  6  7  1  0
  6  8  1  0
  2  1  1  0
  3  1  1  0
  6  2  1  0
  9  3  1  0
  9  6  1  0
 10  9  2  0
M  ISO  4   4   2   5   2   7   2   8   2
M  END
>  <NAME>  (2293) 
CYCLOPENTANONE (2,2,5,5-D4)

>  <SYNONYMS>  (2293) 


>  <SPECTRUM TYPE>  (2293) 
MS1

>  <INSTRUMENT TYPE>  (2293) 
EI-B

>  <INSTRUMENT>  (2293) 
HITACHI RMU-6M

>  <ION MODE>  (2293) 
P

>  <INCHIKEY>  (2293) 
BGTOWKSIORTVQH-KHORGVISSA-N

>  <FORMULA>  (2293) 
C5H8O

>  <EXACT MASS>  (2293) 
88.08262186

>  <MW>  (2293) 
88

>  <ID>  (2293) 
JP008943

>  <CONTRIBUTOR>  (2293) 
University of Tokyo Team, {Faculty of Engineering, University of Tokyo

>  <COMMENT>  (2293) 
SMILES=[2H]C([2H])(C1)C(=O)C([2H])([2H])C1
InChI=InChI=1S/C5H8O/c6-5-3-1-2-4-5/h1-4H2/i3D2,4D2
computed SMILES=[H]C1([H])C(=O)C([H])([H])CC1
accession=JP008943
date=2016.01.19 (Created 2008.10.21, modified 2011.05.06)
author=YAMAMOTO M, DEP. CHEMISTRY, FAC. SCIENCE, NARA WOMEN'S UNIV.
license=CC BY-NC-SA
exact mass=84.05751
ionization energy=70 eV
ion type=[M]+*
computed spectral entropy=2.4620257907489904
computed normalized entropy=0.755663855265653
SPLASH=splash10-0a5c-9000000000-b716805bbbc2ee7bbdd9
submitter=submitter = University of Tokyo Team (Faculty of Engineering, University of Tokyo)
MoNA Rating=3.75

>  <NUM PEAKS>  (2293) 
26

>  <MASS SPECTRAL PEAKS>  (2293) 
26 2.8
27 9.3
28 14.7
29 1.62
30 65.8
31 6.9
32 4.4
38 0.21
39 6.2
40 9.3
41 12.8
42 1.26
43 25.5
44 20.7
45 3.2
46 0.21
55 5.1
56 99.99
57 5.8
58 2.8
59 9.7
60 10.4
86 3
87 0.85
88 49.5
89 3.4

$$$$

     RDKit          2D

  2  1  0  0  0  0  0  0  0  0999 V2000
    0.0000    0.0000    0.0000 C   0  0  0  0  0  0  0  0  0  0  0  0
    1.5000    0.0000    0.0000 I   0  0  0  0  0  0  0  0  0  0  0  0
  2  1  1  0
M  END
>  <NAME>  (2294) 
METHYL IODIDE

>  <SYNONYMS>  (2294) 


>  <SPECTRUM TYPE>  (2294) 
MS1

>  <INSTRUMENT TYPE>  (2294) 
EI-B

>  <INSTRUMENT>  (2294) 
HITACHI RMU-6M

>  <ION MODE>  (2294) 
P

>  <INCHIKEY>  (2294) 
INQOMBQAUSQDDS-UHFFFAOYSA-N

>  <FORMULA>  (2294) 
CH3I

>  <EXACT MASS>  (2294) 
141.927948096

>  <MW>  (2294) 
142

>  <ID>  (2294) 
JP008923

>  <CONTRIBUTOR>  (2294) 
University of Tokyo Team, {Faculty of Engineering, University of Tokyo

>  <COMMENT>  (2294) 
SMILES=CI
InChI=InChI=1S/CH3I/c1-2/h1H3
computed SMILES=IC
accession=JP008923
date=2016.01.19 (Created 2008.10.21, modified 2011.05.06)
author=YAMAMOTO M, DEP. CHEMISTRY, FAC. SCIENCE, NARA WOMEN'S UNIV.
license=CC BY-NC-SA
exact mass=141.92794
ionization energy=70 eV
ion type=[M]+*
computed spectral entropy=1.2030898893873008
computed normalized entropy=0.5224953001944983
SPLASH=splash10-0006-3900000000-01af917e6a69759330f0
submitter=submitter = University of Tokyo Team (Faculty of Engineering, University of Tokyo)
MoNA Rating=3.75

>  <NUM PEAKS>  (2294) 
10

>  <MASS SPECTRAL PEAKS>  (2294) 
14 2.6
15 48.9
63.5 1.3
127 4.11
128 2.8
139 5
140 4.2
141 1.47
142 99.99
143 1.4

$$$$

     RDKit          2D

  5  4  0  0  0  0  0  0  0  0999 V2000
   -0.0000   -0.0000    0.0000 C   0  0  0  0  0  0  0  0  0  0  0  0
   -1.2990    3.7500    0.0000 C   0  0  0  0  0  0  0  0  0  0  0  0
    0.0000    1.5000    0.0000 C   0  0  0  0  0  0  0  0  0  0  0  0
   -1.2990    2.2500    0.0000 C   0  0  0  0  0  0  0  0  0  0  0  0
   -2.5981    1.5000    0.0000 Br  0  0  0  0  0  0  0  0  0  0  0  0
  3  1  1  0
  4  2  1  0
  4  3  1  0
  5  4  1  0
M  END
>  <NAME>  (2295) 
SEC-BUTYL BROMIDE

>  <SYNONYMS>  (2295) 


>  <SPECTRUM TYPE>  (2295) 
MS1

>  <INSTRUMENT TYPE>  (2295) 
EI-B

>  <INSTRUMENT>  (2295) 
HITACHI RMU-6M

>  <ION MODE>  (2295) 
P

>  <INCHIKEY>  (2295) 
UPSXAPQYNGXVBF-UHFFFAOYSA-N

>  <FORMULA>  (2295) 
C4H9Br

>  <EXACT MASS>  (2295) 
135.988762388

>  <MW>  (2295) 
136

>  <ID>  (2295) 
JP008922

>  <CONTRIBUTOR>  (2295) 
University of Tokyo Team, {Faculty of Engineering, University of Tokyo

>  <COMMENT>  (2295) 
SMILES=CCC(C)Br
InChI=InChI=1S/C4H9Br/c1-3-4(2)5/h4H,3H2,1-2H3
computed SMILES=BrC(C)CC
accession=JP008922
date=2016.01.19 (Created 2008.10.21, modified 2011.05.06)
author=YAMAMOTO M, DEP. CHEMISTRY, FAC. SCIENCE, NARA WOMEN'S UNIV.
license=CC BY-NC-SA
exact mass=135.98876
ionization energy=70 eV
ion type=[M]+*
computed spectral entropy=1.7926708819538197
computed normalized entropy=0.5799567327217203
SPLASH=splash10-0a6u-9000000000-615dd4e1e3d4c1a514a7
submitter=submitter = University of Tokyo Team (Faculty of Engineering, University of Tokyo)
MoNA Rating=3.75

>  <NUM PEAKS>  (2295) 
22

>  <MASS SPECTRAL PEAKS>  (2295) 
15 1.2
26 4.2
27 19.9
28 0.57
29 48.2
30 1.3
38 2
39 1.31
40 1.6
41 54.6
42 2.5
50 0.18
51 1.3
53 1.6
55 4.7
56 0.89
57 99.99
58 4.1
107 1.2
109 0.1
136 1.2
138 1.2

$$$$

     RDKit          2D

  3  2  0  0  0  0  0  0  0  0999 V2000
   -1.2990    0.0000    0.0000 C   0  0  0  0  0  0  0  0  0  0  0  0
   -0.0000    0.7500    0.0000 C   0  0  0  0  0  0  0  0  0  0  0  0
    0.0000    2.2500    0.0000 Br  0  0  0  0  0  0  0  0  0  0  0  0
  2  1  1  0
  3  2  1  0
M  END
>  <NAME>  (2296) 
ETHYL BROMIDE

>  <SYNONYMS>  (2296) 


>  <SPECTRUM TYPE>  (2296) 
MS1

>  <INSTRUMENT TYPE>  (2296) 
EI-B

>  <INSTRUMENT>  (2296) 
HITACHI RMU-6M

>  <ION MODE>  (2296) 
P

>  <INCHIKEY>  (2296) 
RDHPKYGYEGBMSE-UHFFFAOYSA-N

>  <FORMULA>  (2296) 
C2H5Br

>  <EXACT MASS>  (2296) 
107.95746226

>  <MW>  (2296) 
108

>  <ID>  (2296) 
JP008921

>  <CONTRIBUTOR>  (2296) 
University of Tokyo Team, {Faculty of Engineering, University of Tokyo

>  <COMMENT>  (2296) 
SMILES=CCBr
InChI=InChI=1S/C2H5Br/c1-2-3/h2H2,1H3
computed SMILES=BrCC
accession=JP008921
date=2016.01.19 (Created 2008.10.21, modified 2011.05.06)
author=YAMAMOTO M, DEP. CHEMISTRY, FAC. SCIENCE, NARA WOMEN'S UNIV.
license=CC BY-NC-SA
exact mass=107.95746
ionization energy=70 eV
ion type=[M]+*
computed spectral entropy=1.8210439811005124
computed normalized entropy=0.6184689151262504
SPLASH=splash10-004i-9200000000-a13892a99e7919e54596
submitter=submitter = University of Tokyo Team (Faculty of Engineering, University of Tokyo)
MoNA Rating=3.75

>  <NUM PEAKS>  (2296) 
19

>  <MASS SPECTRAL PEAKS>  (2296) 
14 3.3
15 2.9
25 4
26 2.63
27 81.3
28 19
29 99.99
30 0.24
79 4.3
80 1.7
81 4.1
82 0.16
93 3.4
95 2.9
107 1.2
108 5.71
109 1.7
110 56.3
111 1.6

$$$$

     RDKit          2D

  9  9  0  0  0  0  0  0  0  0999 V2000
    0.9742   -0.9383    0.0000 C   0  0  0  0  0  0  0  0  0  0  0  0
    2.2732   -0.1883    0.0000 C   0  0  0  0  0  0  0  0  0  0  0  0
   -0.3253   -0.1874    0.0000 C   0  0  0  0  0  0  0  0  0  0  0  0
    2.2727    1.3126    0.0000 C   0  0  0  0  0  0  0  0  0  0  0  0
   -1.6250    2.0632    0.0000 C   0  0  0  0  0  0  0  0  0  0  0  0
   -0.3258    1.3134    0.0000 C   0  0  0  0  0  0  0  0  0  0  0  0
    0.9732    2.0634    0.0000 C   0  0  0  0  0  0  0  0  0  0  0  0
   -2.9239    1.3130    0.0000 O   0  0  0  0  0  0  0  0  0  0  0  0
    0.9735    3.5634    0.0000 O   0  0  0  0  0  0  0  0  0  0  0  0
  2  1  2  0
  3  1  1  0
  4  2  1  0
  6  3  2  0
  6  5  1  0
  7  4  2  0
  7  6  1  0
  8  5  2  0
  9  7  1  0
M  END
>  <NAME>  (2297) 
SALICYLALDEHYDE

>  <SYNONYMS>  (2297) 


>  <SPECTRUM TYPE>  (2297) 
MS1

>  <INSTRUMENT TYPE>  (2297) 
EI-B

>  <INSTRUMENT>  (2297) 
HITACHI RMU-6M

>  <ION MODE>  (2297) 
P

>  <INCHIKEY>  (2297) 
SMQUZDBALVYZAC-UHFFFAOYSA-N

>  <FORMULA>  (2297) 
C7H6O2

>  <EXACT MASS>  (2297) 
122.036779432

>  <MW>  (2297) 
122

>  <ID>  (2297) 
JP008920

>  <CONTRIBUTOR>  (2297) 
University of Tokyo Team, {Faculty of Engineering, University of Tokyo

>  <COMMENT>  (2297) 
SMILES=O=Cc(c1)c(O)ccc1
InChI=InChI=1S/C7H6O2/c8-5-6-3-1-2-4-7(6)9/h1-5,9H
computed SMILES=O=CC=1C=CC=CC1O
accession=JP008920
date=2016.01.19 (Created 2008.10.21, modified 2011.05.06)
author=YAMAMOTO M, DEP. CHEMISTRY, FAC. SCIENCE, NARA WOMEN'S UNIV.
license=CC BY-NC-SA
exact mass=122.03678
ionization energy=70 eV
ion type=[M]+*
computed spectral entropy=2.8992133533095306
computed normalized entropy=0.753013560316969
SPLASH=splash10-00dr-9500000000-e18d8d6fc6476767e239
submitter=submitter = University of Tokyo Team (Faculty of Engineering, University of Tokyo)
MoNA Rating=3.75

>  <NUM PEAKS>  (2297) 
47

>  <MASS SPECTRAL PEAKS>  (2297) 
25 1
26 2.9
27 5.7
28 0.34
29 8.6
31 1.4
37 8.4
38 1.58
39 53.9
40 9.8
41 1.4
42 0.14
43 1.9
46 1.4
47 4.5
49 0.27
50 13.7
51 8.7
52 1.2
53 0.98
54 1
55 3.9
60 1
61 0.6
62 7.9
63 14.9
64 6.8
65 4.54
66 15.4
67 1.7
68 1.4
70 0.1
73 1.7
74 4.8
75 3.3
76 2.71
77 3.3
92 4.3
93 24.3
94 1.03
104 17.1
105 1.7
120 5
121 9.52
122 99.99
123 7.7
124 1

$$$$

     RDKit          2D

 15 15  0  0  0  0  0  0  0  0999 V2000
   -3.2489    3.0002    0.0000 C   0  0  0  0  0  0  0  0  0  0  0  0
   -1.9502    5.2504    0.0000 C   0  0  0  0  0  0  0  0  0  0  0  0
    5.8453    0.7498    0.0000 C   0  0  0  0  0  0  0  0  0  0  0  0
    7.1443    1.4998    0.0000 C   0  0  0  0  0  0  0  0  0  0  0  0
    4.5458    1.5006    0.0000 C   0  0  0  0  0  0  0  0  0  0  0  0
    7.1439    3.0006    0.0000 C   0  0  0  0  0  0  0  0  0  0  0  0
   -0.6508    3.0006    0.0000 C   0  0  0  0  0  0  0  0  0  0  0  0
    0.6481    3.7508    0.0000 C   0  0  0  0  0  0  0  0  0  0  0  0
   -1.9500    3.7504    0.0000 C   0  0  0  0  0  0  0  0  0  0  0  0
    4.5453    3.0015    0.0000 C   0  0  0  0  0  0  0  0  0  0  0  0
    5.8443    3.7515    0.0000 C   0  0  0  0  0  0  0  0  0  0  0  0
    3.2462    3.7512    0.0000 C   0  0  0  0  0  0  0  0  0  0  0  0
    5.8446    5.2515    0.0000 O   0  0  0  0  0  0  0  0  0  0  0  0
    3.2459    5.2512    0.0000 O   0  0  0  0  0  0  0  0  0  0  0  0
    1.9472    3.0010    0.0000 O   0  0  0  0  0  0  0  0  0  0  0  0
  4  3  2  0
  5  3  1  0
  6  4  1  0
  8  7  1  0
  9  1  1  0
  9  2  1  0
  9  7  1  0
 10  5  2  0
 11  6  2  0
 11 10  1  0
 12 10  1  0
 13 11  1  0
 14 12  2  0
 15  8  1  0
 15 12  1  0
M  END
>  <NAME>  (2298) 
ISOPENTYL SALICYLATE

>  <SYNONYMS>  (2298) 


>  <SPECTRUM TYPE>  (2298) 
MS1

>  <INSTRUMENT TYPE>  (2298) 
EI-B

>  <INSTRUMENT>  (2298) 
HITACHI RMU-6M

>  <ION MODE>  (2298) 
P

>  <INCHIKEY>  (2298) 
PMGCQNGBLMMXEW-UHFFFAOYSA-N

>  <FORMULA>  (2298) 
C12H16O3

>  <EXACT MASS>  (2298) 
208.10994437199997

>  <MW>  (2298) 
208

>  <ID>  (2298) 
JP008919

>  <CONTRIBUTOR>  (2298) 
University of Tokyo Team, {Faculty of Engineering, University of Tokyo

>  <COMMENT>  (2298) 
SMILES=CC(C)CCOC(=O)c(c1)c(O)ccc1
InChI=InChI=1S/C12H16O3/c1-9(2)7-8-15-12(14)10-5-3-4-6-11(10)13/h3-6,9,13H,7-8H2,1-2H3
computed SMILES=O=C(OCCC(C)C)C=1C=CC=CC1O
accession=JP008919
date=2016.01.19 (Created 2008.10.21, modified 2011.05.06)
author=YAMAMOTO M, DEP. CHEMISTRY, FAC. SCIENCE, NARA WOMEN'S UNIV.
license=CC BY-NC-SA
exact mass=208.10994
ionization energy=70 eV
ion type=[M]+*
computed spectral entropy=2.747104679258911
computed normalized entropy=0.7790198024514039
SPLASH=splash10-00dl-9600000000-5a35db6cf062e262bd0f
submitter=submitter = University of Tokyo Team (Faculty of Engineering, University of Tokyo)
MoNA Rating=3.75

>  <NUM PEAKS>  (2298) 
34

>  <MASS SPECTRAL PEAKS>  (2298) 
27 11.7
28 1.9
29 13
38 0.28
39 24.2
40 1.6
41 17.2
42 0.46
43 50
44 1.6
50 1.3
51 0.13
53 3.2
55 15.8
56 1.3
62 0.14
63 6.3
64 7.6
65 24.4
66 0.16
69 2.1
70 22.5
71 11.4
81 0.19
92 20.9
93 10.1
94 1.3
120 99.99
121 38.8
122 3.6
138 41.3
139 0.76
208 19.3
209 2.7

$$$$

     RDKit          2D

 14 14  0  0  0  0  0  0  0  0999 V2000
   -3.5739    3.1880    0.0000 C   0  0  0  0  0  0  0  0  0  0  0  0
   -2.2745    0.9382    0.0000 C   0  0  0  0  0  0  0  0  0  0  0  0
    4.2214    0.1873    0.0000 C   0  0  0  0  0  0  0  0  0  0  0  0
    5.5205    0.9373    0.0000 C   0  0  0  0  0  0  0  0  0  0  0  0
    2.9219    0.9382    0.0000 C   0  0  0  0  0  0  0  0  0  0  0  0
    5.5200    2.4382    0.0000 C   0  0  0  0  0  0  0  0  0  0  0  0
   -0.9758    3.1884    0.0000 C   0  0  0  0  0  0  0  0  0  0  0  0
   -2.2747    2.4382    0.0000 C   0  0  0  0  0  0  0  0  0  0  0  0
    2.9214    2.4390    0.0000 C   0  0  0  0  0  0  0  0  0  0  0  0
    4.2205    3.1890    0.0000 C   0  0  0  0  0  0  0  0  0  0  0  0
    1.6223    3.1888    0.0000 C   0  0  0  0  0  0  0  0  0  0  0  0
    4.2207    4.6890    0.0000 O   0  0  0  0  0  0  0  0  0  0  0  0
    1.6220    4.6888    0.0000 O   0  0  0  0  0  0  0  0  0  0  0  0
    0.3233    2.4386    0.0000 O   0  0  0  0  0  0  0  0  0  0  0  0
  4  3  2  0
  5  3  1  0
  6  4  1  0
  8  1  1  0
  8  2  1  0
  8  7  1  0
  9  5  2  0
 10  6  2  0
 10  9  1  0
 11  9  1  0
 12 10  1  0
 13 11  2  0
 14  7  1  0
 14 11  1  0
M  END
>  <NAME>  (2299) 
ISOBUTYL SALICYLATE

>  <SYNONYMS>  (2299) 


>  <SPECTRUM TYPE>  (2299) 
MS1

>  <INSTRUMENT TYPE>  (2299) 
EI-B

>  <INSTRUMENT>  (2299) 
HITACHI RMU-6M

>  <ION MODE>  (2299) 
P

>  <INCHIKEY>  (2299) 
PTXDBYSCVQQBNF-UHFFFAOYSA-N

>  <FORMULA>  (2299) 
C11H14O3

>  <EXACT MASS>  (2299) 
194.09429430799997

>  <MW>  (2299) 
194

>  <ID>  (2299) 
JP008918

>  <CONTRIBUTOR>  (2299) 
University of Tokyo Team, {Faculty of Engineering, University of Tokyo

>  <COMMENT>  (2299) 
SMILES=CC(C)COC(=O)c(c1)c(O)ccc1
InChI=InChI=1S/C11H14O3/c1-8(2)7-14-11(13)9-5-3-4-6-10(9)12/h3-6,8,12H,7H2,1-2H3
computed SMILES=O=C(OCC(C)C)C=1C=CC=CC1O
accession=JP008918
date=2016.01.19 (Created 2008.10.21, modified 2011.05.06)
author=YAMAMOTO M, DEP. CHEMISTRY, FAC. SCIENCE, NARA WOMEN'S UNIV.
license=CC BY-NC-SA
exact mass=194.09429
ionization energy=70 eV
ion type=[M]+*
computed spectral entropy=2.2991784945891784
computed normalized entropy=0.6695361274457315
SPLASH=splash10-00di-5900000000-196c123516f5814e3d7c
submitter=submitter = University of Tokyo Team (Faculty of Engineering, University of Tokyo)
MoNA Rating=3.75

>  <NUM PEAKS>  (2299) 
31

>  <MASS SPECTRAL PEAKS>  (2299) 
15 1.1
27 7.2
28 1.9
29 1.55
38 2.8
39 21
40 1.4
41 1.63
42 1.1
43 2.1
50 1.1
51 0.11
53 3.2
55 2.1
56 2.4
57 1.27
62 1.4
63 5.4
64 6.2
65 1.96
66 1.5
81 1.2
92 20.2
93 0.87
120 99.99
121 33.7
122 2.9
138 3.18
139 3
194 15.4
195 2.2

$$$$

     RDKit          2D

 14 14  0  0  0  0  0  0  0  0999 V2000
   -4.2233    3.5628    0.0000 C   0  0  0  0  0  0  0  0  0  0  0  0
   -2.9244    4.3130    0.0000 C   0  0  0  0  0  0  0  0  0  0  0  0
   -1.6252    3.5632    0.0000 C   0  0  0  0  0  0  0  0  0  0  0  0
    4.8709    1.3123    0.0000 C   0  0  0  0  0  0  0  0  0  0  0  0
    6.1700    2.0623    0.0000 C   0  0  0  0  0  0  0  0  0  0  0  0
    3.5714    2.0632    0.0000 C   0  0  0  0  0  0  0  0  0  0  0  0
    6.1695    3.5632    0.0000 C   0  0  0  0  0  0  0  0  0  0  0  0
   -0.3263    4.3134    0.0000 C   0  0  0  0  0  0  0  0  0  0  0  0
    3.5709    3.5640    0.0000 C   0  0  0  0  0  0  0  0  0  0  0  0
    4.8700    4.3140    0.0000 C   0  0  0  0  0  0  0  0  0  0  0  0
    2.2718    4.3138    0.0000 C   0  0  0  0  0  0  0  0  0  0  0  0
    4.8702    5.8140    0.0000 O   0  0  0  0  0  0  0  0  0  0  0  0
    2.2715    5.8138    0.0000 O   0  0  0  0  0  0  0  0  0  0  0  0
    0.9729    3.5636    0.0000 O   0  0  0  0  0  0  0  0  0  0  0  0
  2  1  1  0
  3  2  1  0
  5  4  2  0
  6  4  1  0
  7  5  1  0
  8  3  1  0
  9  6  2  0
 10  7  2  0
 10  9  1  0
 11  9  1  0
 12 10  1  0
 13 11  2  0
 14  8  1  0
 14 11  1  0
M  END
>  <NAME>  (2300) 
BUTYL SALICYLATE

>  <SYNONYMS>  (2300) 


>  <SPECTRUM TYPE>  (2300) 
MS1

>  <INSTRUMENT TYPE>  (2300) 
EI-B

>  <INSTRUMENT>  (2300) 
HITACHI RMU-6M

>  <ION MODE>  (2300) 
P

>  <INCHIKEY>  (2300) 
YFDUWSBGVPBWKF-UHFFFAOYSA-N

>  <FORMULA>  (2300) 
C11H14O3

>  <EXACT MASS>  (2300) 
194.09429430799997

>  <MW>  (2300) 
194

>  <ID>  (2300) 
JP008917

>  <CONTRIBUTOR>  (2300) 
University of Tokyo Team, {Faculty of Engineering, University of Tokyo

>  <COMMENT>  (2300) 
SMILES=CCCCOC(=O)c(c1)c(O)ccc1
InChI=InChI=1S/C11H14O3/c1-2-3-8-14-11(13)9-6-4-5-7-10(9)12/h4-7,12H,2-3,8H2,1H3
computed SMILES=O=C(OCCCC)C=1C=CC=CC1O
accession=JP008917
date=2016.01.19 (Created 2008.10.21, modified 2011.05.06)
author=YAMAMOTO M, DEP. CHEMISTRY, FAC. SCIENCE, NARA WOMEN'S UNIV.
license=CC BY-NC-SA
exact mass=194.09429
ionization energy=70 eV
ion type=[M]+*
computed spectral entropy=2.3486926056477095
computed normalized entropy=0.7048464758017562
SPLASH=splash10-00di-5900000000-8c363d7b843ec30dd80a
submitter=submitter = University of Tokyo Team (Faculty of Engineering, University of Tokyo)
MoNA Rating=3.75

>  <NUM PEAKS>  (2300) 
28

>  <MASS SPECTRAL PEAKS>  (2300) 
27 7.5
28 1.8
29 14.7
38 0.24
39 17.6
40 1.1
41 11.4
50 0.11
51 1.1
53 2.8
55 1.9
56 0.21
57 3.9
62 1.3
63 5.2
64 0.63
65 16.4
66 1.1
81 1.6
92 2.23
93 7.8
120 99.99
121 27.4
123 0.25
138 24.1
139 2.4
194 18.3
195 2.4

$$$$

     RDKit          2D

 12 12  0  0  0  0  0  0  0  0999 V2000
   -3.5732    2.4377    0.0000 C   0  0  0  0  0  0  0  0  0  0  0  0
   -2.2743    3.1879    0.0000 C   0  0  0  0  0  0  0  0  0  0  0  0
    2.9229    0.1868    0.0000 C   0  0  0  0  0  0  0  0  0  0  0  0
    4.2220    0.9368    0.0000 C   0  0  0  0  0  0  0  0  0  0  0  0
    1.6234    0.9377    0.0000 C   0  0  0  0  0  0  0  0  0  0  0  0
    4.2215    2.4377    0.0000 C   0  0  0  0  0  0  0  0  0  0  0  0
    1.6229    2.4385    0.0000 C   0  0  0  0  0  0  0  0  0  0  0  0
    2.9220    3.1885    0.0000 C   0  0  0  0  0  0  0  0  0  0  0  0
    0.3238    3.1883    0.0000 C   0  0  0  0  0  0  0  0  0  0  0  0
    2.9222    4.6885    0.0000 O   0  0  0  0  0  0  0  0  0  0  0  0
    0.3235    4.6883    0.0000 O   0  0  0  0  0  0  0  0  0  0  0  0
   -0.9752    2.4381    0.0000 O   0  0  0  0  0  0  0  0  0  0  0  0
  2  1  1  0
  4  3  2  0
  5  3  1  0
  6  4  1  0
  7  5  2  0
  8  6  2  0
  8  7  1  0
  9  7  1  0
 10  8  1  0
 11  9  2  0
 12  2  1  0
 12  9  1  0
M  END
>  <NAME>  (2301) 
ETHYL SALICYLATE

>  <SYNONYMS>  (2301) 


>  <SPECTRUM TYPE>  (2301) 
MS1

>  <INSTRUMENT TYPE>  (2301) 
EI-B

>  <INSTRUMENT>  (2301) 
HITACHI RMU-6M

>  <ION MODE>  (2301) 
P

>  <INCHIKEY>  (2301) 
GYCKQBWUSACYIF-UHFFFAOYSA-N

>  <FORMULA>  (2301) 
C9H10O3

>  <EXACT MASS>  (2301) 
166.06299417999998

>  <MW>  (2301) 
166

>  <ID>  (2301) 
JP008916

>  <CONTRIBUTOR>  (2301) 
University of Tokyo Team, {Faculty of Engineering, University of Tokyo

>  <COMMENT>  (2301) 
SMILES=CCOC(=O)c(c1)c(O)ccc1
InChI=InChI=1S/C9H10O3/c1-2-12-9(11)7-5-3-4-6-8(7)10/h3-6,10H,2H2,1H3
computed SMILES=O=C(OCC)C=1C=CC=CC1O
accession=JP008916
date=2016.01.19 (Created 2008.10.21, modified 2011.05.06)
author=YAMAMOTO M, DEP. CHEMISTRY, FAC. SCIENCE, NARA WOMEN'S UNIV.
license=CC BY-NC-SA
exact mass=166.06299
ionization energy=70 eV
ion type=[M]+*
computed spectral entropy=2.271342772948085
computed normalized entropy=0.6553709909382378
SPLASH=splash10-00xu-8900000000-86cbf27957a874eacf48
submitter=submitter = University of Tokyo Team (Faculty of Engineering, University of Tokyo)
MoNA Rating=3.75

>  <NUM PEAKS>  (2301) 
32

>  <MASS SPECTRAL PEAKS>  (2301) 
15 1.4
26 1.7
27 9
28 0.11
29 7.6
37 1.7
38 5.6
39 2.24
40 1.2
43 1.1
50 2.2
51 0.16
53 5.1
61 1.6
62 3
63 1.09
64 12.8
65 22.1
66 1.6
73 0.11
76 1.2
81 2.5
92 52.3
93 1.09
94 1.2
101 1.2
118 1.6
120 99.99
121 2.97
123 2.5
166 31.9
167 3.3

$$$$

     RDKit          2D

 11 11  0  0  0  0  0  0  0  0999 V2000
    3.2476    3.7504    0.0000 C   0  0  0  0  0  0  0  0  0  0  0  0
   -1.9500    0.7500    0.0000 C   0  0  0  0  0  0  0  0  0  0  0  0
   -1.9500   -0.7500    0.0000 C   0  0  0  0  0  0  0  0  0  0  0  0
   -0.6500    1.5000    0.0000 C   0  0  0  0  0  0  0  0  0  0  0  0
   -0.6500   -1.5000    0.0000 C   0  0  0  0  0  0  0  0  0  0  0  0
    0.6500    0.7500    0.0000 C   0  0  0  0  0  0  0  0  0  0  0  0
    0.6500   -0.7500    0.0000 C   0  0  0  0  0  0  0  0  0  0  0  0
    1.9489    1.5002    0.0000 C   0  0  0  0  0  0  0  0  0  0  0  0
    1.9489   -1.5002    0.0000 O   0  0  0  0  0  0  0  0  0  0  0  0
    3.2481    0.7504    0.0000 O   0  0  0  0  0  0  0  0  0  0  0  0
    1.9487    3.0002    0.0000 O   0  0  0  0  0  0  0  0  0  0  0  0
  3  2  2  0
  4  2  1  0
  5  3  1  0
  6  4  2  0
  7  5  2  0
  7  6  1  0
  8  6  1  0
  9  7  1  0
 10  8  2  0
 11  1  1  0
 11  8  1  0
M  END
>  <NAME>  (2302) 
METHYL SALICYLATE

>  <SYNONYMS>  (2302) 


>  <SPECTRUM TYPE>  (2302) 
MS1

>  <INSTRUMENT TYPE>  (2302) 
EI-B

>  <INSTRUMENT>  (2302) 
HITACHI RMU-6M

>  <ION MODE>  (2302) 
P

>  <INCHIKEY>  (2302) 
OSWPMRLSEDHDFF-UHFFFAOYSA-N

>  <FORMULA>  (2302) 
C8H8O3

>  <EXACT MASS>  (2302) 
152.04734411599998

>  <MW>  (2302) 
152

>  <ID>  (2302) 
JP008915

>  <CONTRIBUTOR>  (2302) 
University of Tokyo Team, {Faculty of Engineering, University of Tokyo

>  <COMMENT>  (2302) 
SMILES=COC(=O)c(c1)c(O)ccc1
InChI=InChI=1S/C8H8O3/c1-11-8(10)6-4-2-3-5-7(6)9/h2-5,9H,1H3
computed SMILES=O=C(OC)C=1C=CC=CC1O
accession=JP008915
date=2016.01.19 (Created 2008.10.21, modified 2011.05.06)
author=YAMAMOTO M, DEP. CHEMISTRY, FAC. SCIENCE, NARA WOMEN'S UNIV.
license=CC BY-NC-SA
exact mass=152.04734
ionization energy=70 eV
ion type=[M]+*
computed spectral entropy=2.4281223893123673
computed normalized entropy=0.6885632856772818
SPLASH=splash10-00dl-9800000000-aeff759175e190d33827
submitter=submitter = University of Tokyo Team (Faculty of Engineering, University of Tokyo)
MoNA Rating=3.75

>  <NUM PEAKS>  (2302) 
34

>  <MASS SPECTRAL PEAKS>  (2302) 
15 5.7
26 1.4
27 3.3
28 0.11
29 3
37 3.3
38 9.4
39 3.19
40 1.5
50 3.6
51 3
52 0.15
53 8.6
55 1.1
61 2.6
62 0.56
63 16.3
64 18
65 27.8
66 0.23
75 1.8
76 1.5
77 2.1
78 0.14
81 2.4
91 1.4
92 71.9
93 1.56
94 1.1
120 99.99
121 31.4
123 0.27
152 43.1
153 4.1

$$$$

     RDKit          2D

 10  9  0  0  0  0  0  0  0  0999 V2000
   -2.9228    1.3125    0.0000 C   0  0  0  0  0  0  0  0  0  0  0  0
    2.2733    2.8125    0.0000 C   0  0  0  0  0  0  0  0  0  0  0  0
    0.9743    5.0625    0.0000 C   0  0  0  0  0  0  0  0  0  0  0  0
   -5.5209    2.8125    0.0000 C   0  0  0  0  0  0  0  0  0  0  0  0
   -4.2219    5.0625    0.0000 C   0  0  0  0  0  0  0  0  0  0  0  0
   -1.6238    3.5625    0.0000 C   0  0  0  0  0  0  0  0  0  0  0  0
   -0.3248    2.8125    0.0000 C   0  0  0  0  0  0  0  0  0  0  0  0
   -2.9228    2.8125    0.0000 C   0  0  0  0  0  0  0  0  0  0  0  0
    0.9743    3.5625    0.0000 N   0  0  0  0  0  0  0  0  0  0  0  0
   -4.2219    3.5625    0.0000 N   0  0  0  0  0  0  0  0  0  0  0  0
  7  6  1  0
  8  1  1  0
  8  6  1  0
  9  2  1  0
  9  3  1  0
  9  7  1  0
 10  4  1  0
 10  5  1  0
 10  8  1  0
M  END
>  <NAME>  (2303) 
N,N,N',N'-TETRAMETHYL-1,3-DIAMINOBUTANE

>  <SYNONYMS>  (2303) 


>  <SPECTRUM TYPE>  (2303) 
MS1

>  <INSTRUMENT TYPE>  (2303) 
EI-B

>  <INSTRUMENT>  (2303) 
HITACHI RMU-6M

>  <ION MODE>  (2303) 
P

>  <INCHIKEY>  (2303) 
AXFVIWBTKYFOCY-UHFFFAOYSA-N

>  <FORMULA>  (2303) 
C8H20N2

>  <EXACT MASS>  (2303) 
144.16264864

>  <MW>  (2303) 
144

>  <ID>  (2303) 
JP008914

>  <CONTRIBUTOR>  (2303) 
University of Tokyo Team, {Faculty of Engineering, University of Tokyo

>  <COMMENT>  (2303) 
SMILES=CN(C)CCC(C)N(C)C
InChI=InChI=1S/C8H20N2/c1-8(10(4)5)6-7-9(2)3/h8H,6-7H2,1-5H3
computed SMILES=N(C)(C)CCC(N(C)C)C
accession=JP008914
date=2016.01.19 (Created 2008.10.21, modified 2011.05.06)
author=YAMAMOTO M, DEP. CHEMISTRY, FAC. SCIENCE, NARA WOMEN'S UNIV.
license=CC BY-NC-SA
exact mass=144.16265
ionization energy=70 eV
ion type=[M]+*
computed spectral entropy=2.4118700952676395
computed normalized entropy=0.7238061433212651
SPLASH=splash10-05fr-9000000000-8e1cad5e61b3faab039b
submitter=submitter = University of Tokyo Team (Faculty of Engineering, University of Tokyo)
MoNA Rating=3.75

>  <NUM PEAKS>  (2303) 
28

>  <MASS SPECTRAL PEAKS>  (2303) 
15 6.1
27 3.6
28 4.3
29 0.5
30 6.8
39 2.5
41 3.6
42 2.73
43 6.5
44 14
45 3.1
55 0.36
56 12.8
57 8.6
58 89.8
59 0.36
68 1.6
70 8.3
71 10.4
72 99.99
73 5.4
84 51.8
85 4.1
86 0.36
98 7.2
99 42.3
100 3.2
144 5.8

$$$$

     RDKit          2D

 12 11  0  0  0  0  0  0  0  0999 V2000
    3.2476    4.8750    0.0000 C   0  0  0  0  0  0  0  0  0  0  0  0
    1.9486    7.1250    0.0000 C   0  0  0  0  0  0  0  0  0  0  0  0
   -8.4437    5.6250    0.0000 C   0  0  0  0  0  0  0  0  0  0  0  0
   -7.1447    3.3750    0.0000 C   0  0  0  0  0  0  0  0  0  0  0  0
   -1.9486    4.8750    0.0000 C   0  0  0  0  0  0  0  0  0  0  0  0
   -3.2476    5.6250    0.0000 C   0  0  0  0  0  0  0  0  0  0  0  0
   -0.6495    5.6250    0.0000 C   0  0  0  0  0  0  0  0  0  0  0  0
   -4.5466    4.8750    0.0000 C   0  0  0  0  0  0  0  0  0  0  0  0
    0.6495    4.8750    0.0000 C   0  0  0  0  0  0  0  0  0  0  0  0
   -5.8457    5.6250    0.0000 C   0  0  0  0  0  0  0  0  0  0  0  0
    1.9486    5.6250    0.0000 N   0  0  0  0  0  0  0  0  0  0  0  0
   -7.1447    4.8750    0.0000 N   0  0  0  0  0  0  0  0  0  0  0  0
  6  5  1  0
  7  5  1  0
  8  6  1  0
  9  7  1  0
 10  8  1  0
 11  1  1  0
 11  2  1  0
 11  9  1  0
 12  3  1  0
 12  4  1  0
 12 10  1  0
M  END
>  <NAME>  (2304) 
N,N,N',N'-TETRAMETHYL-1,6-DIAMINOHEXANE

>  <SYNONYMS>  (2304) 


>  <SPECTRUM TYPE>  (2304) 
MS1

>  <INSTRUMENT TYPE>  (2304) 
EI-B

>  <INSTRUMENT>  (2304) 
HITACHI RMU-6M

>  <ION MODE>  (2304) 
P

>  <INCHIKEY>  (2304) 
TXXWBTOATXBWDR-UHFFFAOYSA-N

>  <FORMULA>  (2304) 
C10H24N2

>  <EXACT MASS>  (2304) 
172.19394876799998

>  <MW>  (2304) 
172

>  <ID>  (2304) 
JP008913

>  <CONTRIBUTOR>  (2304) 
University of Tokyo Team, {Faculty of Engineering, University of Tokyo

>  <COMMENT>  (2304) 
SMILES=CN(C)CCCCCCN(C)C
InChI=InChI=1S/C10H24N2/c1-11(2)9-7-5-6-8-10-12(3)4/h5-10H2,1-4H3
computed SMILES=N(C)(C)CCCCCCN(C)C
accession=JP008913
date=2016.01.19 (Created 2008.10.21, modified 2011.05.06)
license=CC BY-NC-SA
author=YAMAMOTO M, DEP. CHEMISTRY, FAC. SCIENCE, NARA WOMEN'S UNIV.
exact mass=172.19395
ionization energy=70 eV
ion type=[M]+*
computed spectral entropy=1.626185222305649
computed normalized entropy=0.5052028443415442
SPLASH=splash10-0a4i-9000000000-a6a8bae13b1fbfdce177
submitter=submitter = University of Tokyo Team (Faculty of Engineering, University of Tokyo)
MoNA Rating=3.75

>  <NUM PEAKS>  (2304) 
25

>  <MASS SPECTRAL PEAKS>  (2304) 
15 1.4
27 1.1
28 2
29 0.2
30 3.1
41 2.9
42 8.3
43 0.23
44 4.1
45 3.5
46 1.3
55 0.16
56 2
57 1.7
58 99.99
59 0.38
70 1.4
71 1.6
84 5.7
112 0.2
114 4.4
126 1.6
127 2.1
128 0.44
172 3.3

$$$$

     RDKit          2D

 10 11  0  0  0  0  0  0  0  0999 V2000
   -2.6000   -0.7500    0.0000 C   0  0  0  0  0  0  0  0  0  0  0  0
   -2.6000    0.7500    0.0000 C   0  0  0  0  0  0  0  0  0  0  0  0
    2.6000   -0.7500    0.0000 C   0  0  0  0  0  0  0  0  0  0  0  0
    2.6000    0.7500    0.0000 C   0  0  0  0  0  0  0  0  0  0  0  0
   -1.3000   -1.5000    0.0000 C   0  0  0  0  0  0  0  0  0  0  0  0
   -1.3000    1.5000    0.0000 C   0  0  0  0  0  0  0  0  0  0  0  0
    1.3000   -1.5000    0.0000 C   0  0  0  0  0  0  0  0  0  0  0  0
    1.3000    1.5000    0.0000 C   0  0  0  0  0  0  0  0  0  0  0  0
    0.0000   -0.7500    0.0000 C   0  0  0  0  0  0  0  0  0  0  0  0
    0.0000    0.7500    0.0000 C   0  0  0  0  0  0  0  0  0  0  0  0
  2  1  2  0
  4  3  1  0
  5  1  1  0
  6  2  1  0
  7  3  1  0
  8  4  1  0
  9  5  2  0
  9  7  1  0
 10  6  2  0
 10  8  1  0
 10  9  1  0
M  END
>  <NAME>  (2305) 
1,2,3,4-TETRAHYDRONAPHTHALENE

>  <SYNONYMS>  (2305) 
TETRALINE

>  <SPECTRUM TYPE>  (2305) 
MS1

>  <INSTRUMENT TYPE>  (2305) 
EI-B

>  <INSTRUMENT>  (2305) 
HITACHI RMU-6M

>  <ION MODE>  (2305) 
P

>  <INCHIKEY>  (2305) 
CXWXQJXEFPUFDZ-UHFFFAOYSA-N

>  <FORMULA>  (2305) 
C10H12

>  <EXACT MASS>  (2305) 
132.093900384

>  <MW>  (2305) 
132

>  <ID>  (2305) 
JP008912

>  <CONTRIBUTOR>  (2305) 
University of Tokyo Team, {Faculty of Engineering, University of Tokyo

>  <COMMENT>  (2305) 
SMILES=C(C2)Cc(c1)c(C2)ccc1
InChI=InChI=1S/C10H12/c1-2-6-10-8-4-3-7-9(10)5-1/h1-2,5-6H,3-4,7-8H2
computed SMILES=C=1C=CC2=C(C1)CCCC2
accession=JP008912
date=2016.01.19 (Created 2008.10.21, modified 2011.05.06)
author=YAMAMOTO M, DEP. CHEMISTRY, FAC. SCIENCE, NARA WOMEN'S UNIV.
license=CC BY-NC-SA
exact mass=132.0939
ionization energy=70 eV
ion type=[M]+*
computed spectral entropy=2.802708230918788
computed normalized entropy=0.7320372792001103
SPLASH=splash10-0udi-4900000000-4f3b43b03b3ec779e310
submitter=submitter = University of Tokyo Team (Faculty of Engineering, University of Tokyo)
MoNA Rating=3.75

>  <NUM PEAKS>  (2305) 
46

>  <MASS SPECTRAL PEAKS>  (2305) 
27 5.2
38 1.5
39 11
40 0.11
41 2
50 5.6
51 12.4
52 0.34
53 3.8
57.5 2.4
58 1.5
62 0.26
63 8.3
63.5 1.4
64 5.9
64.5 0.16
65 9.8
66 1.2
74 2.7
75 0.29
76 2.3
77 11.2
78 11.4
79 0.2
87 1.1
89 3.5
90 1
91 4.53
92 3.5
101 1
102 4.4
103 1.05
104 99.99
105 9.5
115 13.2
116 0.6
117 14.4
118 1.9
126 1.1
127 0.41
128 7.8
129 4.9
130 1.6
131 1.33
132 50.9
133 5.7

$$$$

     RDKit          2D

  9  8  0  0  0  0  0  0  0  0999 V2000
    2.2733    2.8125    0.0000 C   0  0  0  0  0  0  0  0  0  0  0  0
    0.9743    5.0625    0.0000 C   0  0  0  0  0  0  0  0  0  0  0  0
   -5.5209    2.8125    0.0000 C   0  0  0  0  0  0  0  0  0  0  0  0
   -4.2219    5.0625    0.0000 C   0  0  0  0  0  0  0  0  0  0  0  0
   -1.6238    3.5625    0.0000 C   0  0  0  0  0  0  0  0  0  0  0  0
   -0.3248    2.8125    0.0000 C   0  0  0  0  0  0  0  0  0  0  0  0
   -2.9228    2.8125    0.0000 C   0  0  0  0  0  0  0  0  0  0  0  0
    0.9743    3.5625    0.0000 N   0  0  0  0  0  0  0  0  0  0  0  0
   -4.2219    3.5625    0.0000 N   0  0  0  0  0  0  0  0  0  0  0  0
  6  5  1  0
  7  5  1  0
  8  1  1  0
  8  2  1  0
  8  6  1  0
  9  3  1  0
  9  4  1  0
  9  7  1  0
M  END
>  <NAME>  (2306) 
N,N,N',N'-TETRAMETHYL-1,3-DIAMINOPROPANE

>  <SYNONYMS>  (2306) 


>  <SPECTRUM TYPE>  (2306) 
MS1

>  <INSTRUMENT TYPE>  (2306) 
EI-B

>  <INSTRUMENT>  (2306) 
HITACHI RMU-6M

>  <ION MODE>  (2306) 
P

>  <INCHIKEY>  (2306) 
DMQSHEKGGUOYJS-UHFFFAOYSA-N

>  <FORMULA>  (2306) 
C7H18N2

>  <EXACT MASS>  (2306) 
130.146998576

>  <MW>  (2306) 
130

>  <ID>  (2306) 
JP008911

>  <CONTRIBUTOR>  (2306) 
University of Tokyo Team, {Faculty of Engineering, University of Tokyo

>  <COMMENT>  (2306) 
SMILES=CN(C)CCCN(C)C
InChI=InChI=1S/C7H18N2/c1-8(2)6-5-7-9(3)4/h5-7H2,1-4H3
computed SMILES=N(C)(C)CCCN(C)C
accession=JP008911
date=2016.01.19 (Created 2008.10.21, modified 2011.05.06)
author=YAMAMOTO M, DEP. CHEMISTRY, FAC. SCIENCE, NARA WOMEN'S UNIV.
license=CC BY-NC-SA
exact mass=130.147
ionization energy=70 eV
ion type=[M]+*
computed spectral entropy=2.0742742222999984
computed normalized entropy=0.6813134948846233
SPLASH=splash10-0a4i-9000000000-767f2fa77b6acd700e7f
submitter=submitter = University of Tokyo Team (Faculty of Engineering, University of Tokyo)
MoNA Rating=3.75

>  <NUM PEAKS>  (2306) 
21

>  <MASS SPECTRAL PEAKS>  (2306) 
15 5.1
27 1.9
28 3.5
29 0.23
30 6.3
39 1.9
41 3.4
42 2.14
43 6.5
44 13.3
56 3.3
57 0.61
58 99.99
59 4.3
70 27.4
71 0.4
72 6.3
84 14.9
85 34.6
86 0.25
130 4.1

$$$$

     RDKit          2D

 12 11  0  0  0  0  0  0  0  0999 V2000
    3.2476    5.6250    0.0000 C   0  0  0  0  0  0  0  0  0  0  0  0
   -9.7428    5.6250    0.0000 C   0  0  0  0  0  0  0  0  0  0  0  0
    1.9486    6.3750    0.0000 C   0  0  0  0  0  0  0  0  0  0  0  0
   -8.4437    6.3750    0.0000 C   0  0  0  0  0  0  0  0  0  0  0  0
    0.6495    5.6250    0.0000 C   0  0  0  0  0  0  0  0  0  0  0  0
   -7.1447    5.6250    0.0000 C   0  0  0  0  0  0  0  0  0  0  0  0
   -0.6495    6.3750    0.0000 C   0  0  0  0  0  0  0  0  0  0  0  0
   -5.8457    6.3750    0.0000 C   0  0  0  0  0  0  0  0  0  0  0  0
   -1.9486    5.6250    0.0000 C   0  0  0  0  0  0  0  0  0  0  0  0
   -4.5466    5.6250    0.0000 C   0  0  0  0  0  0  0  0  0  0  0  0
   -3.2476    6.3750    0.0000 C   0  0  0  0  0  0  0  0  0  0  0  0
   -3.2476    7.8750    0.0000 O   0  0  0  0  0  0  0  0  0  0  0  0
  3  1  1  0
  4  2  1  0
  5  3  1  0
  6  4  1  0
  7  5  1  0
  8  6  1  0
  9  7  1  0
 10  8  1  0
 11  9  1  0
 11 10  1  0
 12 11  2  0
M  END
>  <NAME>  (2307) 
6-UNDECANONE

>  <SYNONYMS>  (2307) 
DIPENTYL KETONE

>  <SPECTRUM TYPE>  (2307) 
MS1

>  <INSTRUMENT TYPE>  (2307) 
EI-B

>  <INSTRUMENT>  (2307) 
HITACHI RMU-6M

>  <ION MODE>  (2307) 
P

>  <INCHIKEY>  (2307) 
ZPQAKYPOZRXKFA-UHFFFAOYSA-N

>  <FORMULA>  (2307) 
C11H22O

>  <EXACT MASS>  (2307) 
170.167065324

>  <MW>  (2307) 
170

>  <ID>  (2307) 
JP008910

>  <CONTRIBUTOR>  (2307) 
University of Tokyo Team, {Faculty of Engineering, University of Tokyo

>  <COMMENT>  (2307) 
SMILES=CCCCCC(=O)CCCCC
InChI=InChI=1S/C11H22O/c1-3-5-7-9-11(12)10-8-6-4-2/h3-10H2,1-2H3
computed SMILES=O=C(CCCCC)CCCCC
accession=JP008910
date=2016.01.19 (Created 2008.10.21, modified 2011.05.06)
author=YAMAMOTO M, DEP. CHEMISTRY, FAC. SCIENCE, NARA WOMEN'S UNIV.
license=CC BY-NC-SA
exact mass=170.16707
ionization energy=70 eV
ion type=[M]+*
computed spectral entropy=2.6041528546935777
computed normalized entropy=0.7159013533550113
SPLASH=splash10-05bg-9000000000-22e85b5da08a296e5364
submitter=submitter = University of Tokyo Team (Faculty of Engineering, University of Tokyo)
MoNA Rating=3.75

>  <NUM PEAKS>  (2307) 
38

>  <MASS SPECTRAL PEAKS>  (2307) 
15 1.3
26 1.1
27 21.5
28 0.55
29 31
39 11.5
40 2.1
41 3.09
42 7.1
43 99.99
44 3.2
53 0.31
54 1.2
55 14.5
56 2.6
57 0.36
58 50.7
59 16.2
67 1.8
69 0.19
70 1.8
71 49.8
72 10.5
81 0.19
83 1.2
85 6.5
86 1.6
96 0.19
98 1.3
99 58.5
100 4.4
114 1.21
115 3.2
127 6.9
128 1.3
141 0.12
170 8.4
171 1.6

$$$$

     RDKit          2D

 13 13  0  0  0  0  0  0  0  0999 V2000
    8.4306   -2.4575    0.0000 C   0  0  0  0  0  0  0  0  0  0  0  0
    7.1336   -3.2111    0.0000 C   0  0  0  0  0  0  0  0  0  0  0  0
    5.8325   -2.4646    0.0000 C   0  0  0  0  0  0  0  0  0  0  0  0
    4.5356   -3.2182    0.0000 C   0  0  0  0  0  0  0  0  0  0  0  0
    3.2345   -2.4717    0.0000 C   0  0  0  0  0  0  0  0  0  0  0  0
    1.9375   -3.2253    0.0000 C   0  0  0  0  0  0  0  0  0  0  0  0
    0.6364   -2.4789    0.0000 C   0  0  0  0  0  0  0  0  0  0  0  0
   -0.8088   -4.7208    0.0000 C   0  0  0  0  0  0  0  0  0  0  0  0
   -2.2853   -5.0376    0.0000 C   0  0  0  0  0  0  0  0  0  0  0  0
   -0.6606   -3.2324    0.0000 C   0  0  0  0  0  0  0  0  0  0  0  0
   -3.0287   -3.7324    0.0000 C   0  0  0  0  0  0  0  0  0  0  0  0
   -4.5201   -3.5719    0.0000 O   0  0  0  0  0  0  0  0  0  0  0  0
   -2.0309   -2.6223    0.0000 O   0  0  0  0  0  0  0  0  0  0  0  0
  2  1  1  0
  3  2  1  0
  4  3  1  0
  5  4  1  0
  6  5  1  0
  7  6  1  0
  9  8  1  0
 10  7  1  0
 10  8  1  0
 11  9  1  0
 12 11  2  0
 13 10  1  0
 13 11  1  0
M  END
>  <NAME>  (2308) 
GAMMA-UNDECALACTONE

>  <SYNONYMS>  (2308) 


>  <SPECTRUM TYPE>  (2308) 
MS1

>  <INSTRUMENT TYPE>  (2308) 
EI-B

>  <INSTRUMENT>  (2308) 
HITACHI RMU-6M

>  <ION MODE>  (2308) 
P

>  <INCHIKEY>  (2308) 
PHXATPHONSXBIL-UHFFFAOYSA-N

>  <FORMULA>  (2308) 
C11H20O2

>  <EXACT MASS>  (2308) 
184.14632988

>  <MW>  (2308) 
184

>  <ID>  (2308) 
JP008909

>  <CONTRIBUTOR>  (2308) 
University of Tokyo Team, {Faculty of Engineering, University of Tokyo

>  <COMMENT>  (2308) 
SMILES=CCCCCCCC(C1)OC(=O)C1
InChI=InChI=1S/C11H20O2/c1-2-3-4-5-6-7-10-8-9-11(12)13-10/h10H,2-9H2,1H3
computed SMILES=O=C1OC(CC1)CCCCCCC
accession=JP008909
date=2016.01.19 (Created 2008.10.21, modified 2011.05.06)
author=YAMAMOTO M, DEP. CHEMISTRY, FAC. SCIENCE, NARA WOMEN'S UNIV.
license=CC BY-NC-SA
exact mass=184.14633
ionization energy=70 eV
ion type=[M]+*
computed spectral entropy=2.781921585787632
computed normalized entropy=0.711120967828554
SPLASH=splash10-000i-9100000000-7b954a533af11294131f
submitter=submitter = University of Tokyo Team (Faculty of Engineering, University of Tokyo)
MoNA Rating=3.75

>  <NUM PEAKS>  (2308) 
50

>  <MASS SPECTRAL PEAKS>  (2308) 
26 1.1
27 14.5
28 9.4
29 3.38
39 8.1
40 1.6
41 23.8
42 0.72
43 13.4
44 1.1
53 2.3
54 0.32
55 16.1
56 8.1
57 7.2
58 0.14
60 1.6
67 3
68 3.3
69 0.84
70 4.1
71 1.7
72 2.5
73 0.1
81 2.8
82 2.8
83 3.7
84 0.39
85 99.99
86 4.7
87 1.4
95 0.17
96 2.2
97 1.5
98 1.7
99 0.13
100 5.3
101 2.4
110 1.8
111 0.12
114 3
122 1.7
123 1.3
124 0.19
125 1.9
127 2.3
128 10.9
129 0.11
148 1.2
166 1.4

$$$$

     RDKit          2D

 13 12  0  0  0  0  0  0  0  0999 V2000
    3.5724    6.5625    0.0000 C   0  0  0  0  0  0  0  0  0  0  0  0
    2.2733    7.3125    0.0000 C   0  0  0  0  0  0  0  0  0  0  0  0
    0.9743    6.5625    0.0000 C   0  0  0  0  0  0  0  0  0  0  0  0
   -0.3248    7.3125    0.0000 C   0  0  0  0  0  0  0  0  0  0  0  0
   -1.6238    6.5625    0.0000 C   0  0  0  0  0  0  0  0  0  0  0  0
   -2.9228    7.3125    0.0000 C   0  0  0  0  0  0  0  0  0  0  0  0
   -4.2219    6.5625    0.0000 C   0  0  0  0  0  0  0  0  0  0  0  0
   -5.5209    7.3125    0.0000 C   0  0  0  0  0  0  0  0  0  0  0  0
   -6.8200    6.5625    0.0000 C   0  0  0  0  0  0  0  0  0  0  0  0
   -8.1190    7.3125    0.0000 C   0  0  0  0  0  0  0  0  0  0  0  0
   -9.4180    6.5625    0.0000 C   0  0  0  0  0  0  0  0  0  0  0  0
   -9.4180    5.0625    0.0000 O   0  0  0  0  0  0  0  0  0  0  0  0
  -10.7171    7.3125    0.0000 O   0  0  0  0  0  0  0  0  0  0  0  0
  2  1  2  0
  3  2  1  0
  4  3  1  0
  5  4  1  0
  6  5  1  0
  7  6  1  0
  8  7  1  0
  9  8  1  0
 10  9  1  0
 11 10  1  0
 12 11  2  0
 13 11  1  0
M  END
>  <NAME>  (2309) 
10-UNDECENOIC ACID

>  <SYNONYMS>  (2309) 


>  <SPECTRUM TYPE>  (2309) 
MS1

>  <INSTRUMENT TYPE>  (2309) 
EI-B

>  <INSTRUMENT>  (2309) 
HITACHI RMU-6M

>  <ION MODE>  (2309) 
P

>  <INCHIKEY>  (2309) 
FRPZMMHWLSIFAZ-UHFFFAOYSA-N

>  <FORMULA>  (2309) 
C11H20O2

>  <EXACT MASS>  (2309) 
184.14632988

>  <MW>  (2309) 
184

>  <ID>  (2309) 
JP008908

>  <CONTRIBUTOR>  (2309) 
University of Tokyo Team, {Faculty of Engineering, University of Tokyo

>  <COMMENT>  (2309) 
SMILES=C=CCCCCCCCCC(O)=O
InChI=InChI=1S/C11H20O2/c1-2-3-4-5-6-7-8-9-10-11(12)13/h2H,1,3-10H2,(H,12,13)
computed SMILES=O=C(O)CCCCCCCCC=C
accession=JP008908
date=2016.01.19 (Created 2008.10.21, modified 2011.05.06)
author=YAMAMOTO M, DEP. CHEMISTRY, FAC. SCIENCE, NARA WOMEN'S UNIV.
license=CC BY-NC-SA
exact mass=184.14633
ionization energy=70 eV
ion type=[M]+*
computed spectral entropy=3.389511394034738
computed normalized entropy=0.7850655994646161
SPLASH=splash10-0a6u-9100000000-50cef3280113666a9e23
submitter=submitter = University of Tokyo Team (Faculty of Engineering, University of Tokyo)
MoNA Rating=3.75

>  <NUM PEAKS>  (2309) 
75

>  <MASS SPECTRAL PEAKS>  (2309) 
15 1.3
26 1.6
27 31.9
28 0.79
29 36.4
30 1.9
31 3.9
39 3.53
40 5.8
41 91.6
42 17
43 1.78
45 10.2
51 1.8
52 1.3
53 1.13
54 16.5
55 99.99
56 19.1
57 0.6
58 1.8
59 6.5
60 26.7
61 0.31
65 1.8
66 1.6
67 16.2
68 2.28
69 45.8
70 11.5
71 4.2
73 2.17
74 2.6
77 1.6
79 3.7
80 0.31
81 13.9
82 25.1
83 30.4
84 1.6
85 2.9
86 1
87 6.3
88 0.1
93 1.9
94 3.1
95 7.9
96 2.02
97 12.3
98 9.9
99 3.1
100 0.73
101 6.8
102 1
107 1
109 0.31
110 7.1
111 3.9
112 2.1
113 0.26
114 8.1
115 2.6
119 1.8
122 0.92
123 8.9
124 14.9
125 5
127 0.21
128 1
137 4.2
138 2.9
141 0.13
148 3.1
166 6.8
167 1

$$$$

     RDKit          2D

 11 12  0  0  0  0  0  0  0  0999 V2000
   -2.7200   -1.0200    0.0000 C   0  0  0  0  0  0  0  0  0  0  0  0
   -2.7200    0.4800    0.0000 C   0  0  0  0  0  0  0  0  0  0  0  0
    2.4800   -1.0200    0.0000 C   0  0  0  0  0  0  0  0  0  0  0  0
   -1.4200   -1.7700    0.0000 C   0  0  0  0  0  0  0  0  0  0  0  0
    1.1800   -1.7700    0.0000 C   0  0  0  0  0  0  0  0  0  0  0  0
   -1.4200    1.2300    0.0000 C   0  0  0  0  0  0  0  0  0  0  0  0
    2.4800    0.4800    0.0000 C   0  0  0  0  0  0  0  0  0  0  0  0
   -0.1200   -1.0200    0.0000 C   0  0  0  0  0  0  0  0  0  0  0  0
   -0.1200    0.4800    0.0000 C   0  0  0  0  0  0  0  0  0  0  0  0
    1.1800    1.2300    0.0000 C   0  0  0  0  0  0  0  0  0  0  0  0
    1.1800    2.7300    0.0000 O   0  0  0  0  0  0  0  0  0  0  0  0
  2  1  2  0
  4  1  1  0
  5  3  1  0
  6  2  1  0
  7  3  1  0
  8  4  2  0
  8  5  1  0
  9  6  2  0
  9  8  1  0
 10  7  1  0
 10  9  1  0
 11 10  2  0
M  END
>  <NAME>  (2310) 
ALPHA-TETRALONE

>  <SYNONYMS>  (2310) 
1,2,3,4-TETRAHYDRO-1-NAPHTHALENONE

>  <SPECTRUM TYPE>  (2310) 
MS1

>  <INSTRUMENT TYPE>  (2310) 
EI-B

>  <INSTRUMENT>  (2310) 
HITACHI RMU-6M

>  <ION MODE>  (2310) 
P

>  <INCHIKEY>  (2310) 
XHLHPRDBBAGVEG-UHFFFAOYSA-N

>  <FORMULA>  (2310) 
C10H10O

>  <EXACT MASS>  (2310) 
146.07316494

>  <MW>  (2310) 
146

>  <ID>  (2310) 
JP008907

>  <CONTRIBUTOR>  (2310) 
University of Tokyo Team, {Faculty of Engineering, University of Tokyo

>  <COMMENT>  (2310) 
SMILES=O=C(C1)c(c2)c(ccc2)CC1
InChI=InChI=1S/C10H10O/c11-10-7-3-5-8-4-1-2-6-9(8)10/h1-2,4,6H,3,5,7H2
computed SMILES=O=C1C=2C=CC=CC2CCC1
accession=JP008907
date=2016.01.19 (Created 2008.10.21, modified 2011.05.06)
author=YAMAMOTO M, DEP. CHEMISTRY, FAC. SCIENCE, NARA WOMEN'S UNIV.
license=CC BY-NC-SA
exact mass=146.07316
ionization energy=70 eV
ion type=[M]+*
computed spectral entropy=2.75448559671962
computed normalized entropy=0.7041077194325341
SPLASH=splash10-014m-7900000000-f5226cbbcd0f300e6e49
submitter=submitter = University of Tokyo Team (Faculty of Engineering, University of Tokyo)
MoNA Rating=3.75

>  <NUM PEAKS>  (2310) 
50

>  <MASS SPECTRAL PEAKS>  (2310) 
26 1
27 5.1
28 1.3
37 0.12
38 3.3
39 14.6
40 1.9
41 0.19
45 1.1
50 7.8
51 12
52 0.21
55 2.4
57 1.4
57.5 3.1
58 0.34
59 1.4
61 1.6
62 5.6
63 1.62
64 5.3
65 6.8
72 1.4
74 0.35
75 3.2
76 2.6
77 5.6
78 0.21
86 1.6
87 2.1
88 1.3
89 2.33
90 67.5
91 13.3
92 1.1
102 0.24
103 3.4
104 3.7
115 13.4
116 0.46
117 9.3
118 99.99
119 8.7
128 0.31
129 1.8
131 12
132 1.4
145 0.63
146 57.6
147 6.6

$$$$

     RDKit          2D

  7  6  0  0  0  0  0  0  0  0999 V2000
    1.6238    3.1875    0.0000 C   0  0  0  0  0  0  0  0  0  0  0  0
    0.3248    3.9375    0.0000 C   0  0  0  0  0  0  0  0  0  0  0  0
   -0.9743    3.1875    0.0000 C   0  0  0  0  0  0  0  0  0  0  0  0
   -2.2733    3.9375    0.0000 C   0  0  0  0  0  0  0  0  0  0  0  0
   -3.5724    3.1875    0.0000 C   0  0  0  0  0  0  0  0  0  0  0  0
   -3.5724    1.6875    0.0000 O   0  0  0  0  0  0  0  0  0  0  0  0
   -4.8714    3.9375    0.0000 O   0  0  0  0  0  0  0  0  0  0  0  0
  2  1  1  0
  3  2  1  0
  4  3  1  0
  5  4  1  0
  6  5  2  0
  7  5  1  0
M  END
>  <NAME>  (2311) 
VALERIC ACID

>  <SYNONYMS>  (2311) 


>  <SPECTRUM TYPE>  (2311) 
MS1

>  <INSTRUMENT TYPE>  (2311) 
EI-B

>  <INSTRUMENT>  (2311) 
HITACHI RMU-6M

>  <ION MODE>  (2311) 
P

>  <INCHIKEY>  (2311) 
NQPDZGIKBAWPEJ-UHFFFAOYSA-N

>  <FORMULA>  (2311) 
C5H10O2

>  <EXACT MASS>  (2311) 
102.06807956

>  <MW>  (2311) 
102

>  <ID>  (2311) 
JP008906

>  <CONTRIBUTOR>  (2311) 
University of Tokyo Team, {Faculty of Engineering, University of Tokyo

>  <COMMENT>  (2311) 
SMILES=CCCCC(O)=O
InChI=InChI=1S/C5H10O2/c1-2-3-4-5(6)7/h2-4H2,1H3,(H,6,7)
computed SMILES=O=C(O)CCCC
accession=JP008906
date=2016.01.19 (Created 2008.10.21, modified 2011.05.06)
author=YAMAMOTO M, DEP. CHEMISTRY, FAC. SCIENCE, NARA WOMEN'S UNIV.
license=CC BY-NC-SA
exact mass=102.06808
ionization energy=70 eV
ion type=[M]+*
computed spectral entropy=2.243127267715178
computed normalized entropy=0.673166145975007
SPLASH=splash10-03fr-9000000000-5ef705125c3c70ad3df3
submitter=submitter = University of Tokyo Team (Faculty of Engineering, University of Tokyo)
MoNA Rating=3.75

>  <NUM PEAKS>  (2311) 
28

>  <MASS SPECTRAL PEAKS>  (2311) 
15 1.9
26 4.2
27 26.9
28 1.18
29 23.8
30 1.4
31 2.4
38 0.18
39 12.7
40 1.4
41 22
42 1.04
43 9.1
45 9.8
50 1.3
51 0.12
53 1.3
55 6.7
56 3.3
57 0.28
59 1.2
60 99.99
61 4.1
73 3.69
74 3.7
85 1.4
87 2.4
102 0.8

$$$$

     RDKit          2D

  8  7  0  0  0  0  0  0  0  0999 V2000
    1.9486    3.3750    0.0000 C   0  0  0  0  0  0  0  0  0  0  0  0
   -5.8457    3.3750    0.0000 C   0  0  0  0  0  0  0  0  0  0  0  0
    0.6495    4.1250    0.0000 C   0  0  0  0  0  0  0  0  0  0  0  0
   -0.6495    3.3750    0.0000 C   0  0  0  0  0  0  0  0  0  0  0  0
   -1.9486    4.1250    0.0000 C   0  0  0  0  0  0  0  0  0  0  0  0
   -3.2476    3.3750    0.0000 C   0  0  0  0  0  0  0  0  0  0  0  0
   -3.2476    1.8750    0.0000 O   0  0  0  0  0  0  0  0  0  0  0  0
   -4.5466    4.1250    0.0000 O   0  0  0  0  0  0  0  0  0  0  0  0
  3  1  1  0
  4  3  1  0
  5  4  1  0
  6  5  1  0
  7  6  2  0
  8  2  1  0
  8  6  1  0
M  END
>  <NAME>  (2312) 
METHYL VALERATE

>  <SYNONYMS>  (2312) 


>  <SPECTRUM TYPE>  (2312) 
MS1

>  <INSTRUMENT TYPE>  (2312) 
EI-B

>  <INSTRUMENT>  (2312) 
HITACHI RMU-6M

>  <ION MODE>  (2312) 
P

>  <INCHIKEY>  (2312) 
HNBDRPTVWVGKBR-UHFFFAOYSA-N

>  <FORMULA>  (2312) 
C6H12O2

>  <EXACT MASS>  (2312) 
116.083729624

>  <MW>  (2312) 
116

>  <ID>  (2312) 
JP008905

>  <CONTRIBUTOR>  (2312) 
University of Tokyo Team, {Faculty of Engineering, University of Tokyo

>  <COMMENT>  (2312) 
SMILES=CCCCC(=O)OC
InChI=InChI=1S/C6H12O2/c1-3-4-5-6(7)8-2/h3-5H2,1-2H3
computed SMILES=O=C(OC)CCCC
ionization energy=70 eV
ion type=[M]+*
accession=JP008905
date=2016.01.19 (Created 2008.10.21, modified 2011.05.06)
author=YAMAMOTO M, DEP. CHEMISTRY, FAC. SCIENCE, NARA WOMEN'S UNIV.
license=CC BY-NC-SA
exact mass=116.08373
computed spectral entropy=2.5273094328536145
computed normalized entropy=0.7359693797206595
SPLASH=splash10-00fr-9000000000-d6018f997a3de662f274
submitter=submitter = University of Tokyo Team (Faculty of Engineering, University of Tokyo)
MoNA Rating=3.75

>  <NUM PEAKS>  (2312) 
31

>  <MASS SPECTRAL PEAKS>  (2312) 
15 20.5
26 4.1
27 28.6
28 1.26
29 38.1
31 4.7
38 1.4
39 1.5
40 1.9
41 35.1
42 7.1
43 3.83
44 3
45 2.5
50 1
51 0.13
53 2
55 10.6
56 4.9
57 3.73
58 1.6
59 16.9
73 1.7
74 99.99
75 3.7
85 33.7
86 1.9
87 2.89
88 2.9
101 2.1
116 1.5

$$$$

     RDKit          2D

 12 11  0  0  0  0  0  0  0  0999 V2000
    3.8971    6.0000    0.0000 C   0  0  0  0  0  0  0  0  0  0  0  0
    2.5981    6.7500    0.0000 C   0  0  0  0  0  0  0  0  0  0  0  0
    1.2990    6.0000    0.0000 C   0  0  0  0  0  0  0  0  0  0  0  0
    0.0000    6.7500    0.0000 C   0  0  0  0  0  0  0  0  0  0  0  0
   -1.2990    6.0000    0.0000 C   0  0  0  0  0  0  0  0  0  0  0  0
   -2.5981    6.7500    0.0000 C   0  0  0  0  0  0  0  0  0  0  0  0
   -3.8971    6.0000    0.0000 C   0  0  0  0  0  0  0  0  0  0  0  0
   -5.1962    6.7500    0.0000 C   0  0  0  0  0  0  0  0  0  0  0  0
   -6.4952    6.0000    0.0000 C   0  0  0  0  0  0  0  0  0  0  0  0
   -7.7942    6.7500    0.0000 C   0  0  0  0  0  0  0  0  0  0  0  0
   -9.0933    6.0000    0.0000 C   0  0  0  0  0  0  0  0  0  0  0  0
  -10.3923    6.7500    0.0000 O   0  0  0  0  0  0  0  0  0  0  0  0
  2  1  1  0
  3  2  1  0
  4  3  1  0
  5  4  1  0
  6  5  1  0
  7  6  1  0
  8  7  1  0
  9  8  1  0
 10  9  1  0
 11 10  1  0
 12 11  1  0
M  END
>  <NAME>  (2313) 
1-UNDECANOL

>  <SYNONYMS>  (2313) 


>  <SPECTRUM TYPE>  (2313) 
MS1

>  <INSTRUMENT TYPE>  (2313) 
EI-B

>  <INSTRUMENT>  (2313) 
HITACHI RMU-6M

>  <ION MODE>  (2313) 
P

>  <INCHIKEY>  (2313) 
KJIOQYGWTQBHNH-UHFFFAOYSA-N

>  <FORMULA>  (2313) 
C11H24O

>  <EXACT MASS>  (2313) 
172.182715388

>  <MW>  (2313) 
172

>  <ID>  (2313) 
JP008904

>  <CONTRIBUTOR>  (2313) 
University of Tokyo Team, {Faculty of Engineering, University of Tokyo

>  <COMMENT>  (2313) 
SMILES=CCCCCCCCCCCO
InChI=InChI=1S/C11H24O/c1-2-3-4-5-6-7-8-9-10-11-12/h12H,2-11H2,1H3
computed SMILES=OCCCCCCCCCCC
accession=JP008904
date=2016.01.19 (Created 2008.10.21, modified 2011.05.06)
author=YAMAMOTO M, DEP. CHEMISTRY, FAC. SCIENCE, NARA WOMEN'S UNIV.
license=CC BY-NC-SA
exact mass=172.18272
ionization energy=70 eV
ion type=[M]+*
computed spectral entropy=3.0571196497746542
computed normalized entropy=0.8128043060029854
SPLASH=splash10-052f-9000000000-20374066c5383835f838
submitter=submitter = University of Tokyo Team (Faculty of Engineering, University of Tokyo)
MoNA Rating=3.75

>  <NUM PEAKS>  (2313) 
43

>  <MASS SPECTRAL PEAKS>  (2313) 
27 28.4
28 7.8
29 49.3
30 0.16
31 29.5
32 1.6
39 19
40 0.39
41 97.3
42 37.4
43 99.99
44 0.36
45 3.2
53 5.9
54 9.6
55 9.33
56 75.1
57 50.3
58 2.3
65 0.1
67 9.4
68 27.8
69 66.7
70 6.44
71 14.3
73 2
81 3.3
82 2.42
83 49.6
84 41.9
85 8.4
96 0.59
97 33
98 18.5
99 1.7
110 0.21
111 12.4
112 7.7
125 5.8
126 1.8
127 1.8
154 8.6
155 1.1

$$$$

     RDKit          2D

 11 10  0  0  0  0  0  0  0  0999 V2000
    3.2476    5.6250    0.0000 C   0  0  0  0  0  0  0  0  0  0  0  0
   -9.7428    5.6250    0.0000 C   0  0  0  0  0  0  0  0  0  0  0  0
    1.9486    6.3750    0.0000 C   0  0  0  0  0  0  0  0  0  0  0  0
   -8.4437    6.3750    0.0000 C   0  0  0  0  0  0  0  0  0  0  0  0
    0.6495    5.6250    0.0000 C   0  0  0  0  0  0  0  0  0  0  0  0
   -7.1447    5.6250    0.0000 C   0  0  0  0  0  0  0  0  0  0  0  0
   -0.6495    6.3750    0.0000 C   0  0  0  0  0  0  0  0  0  0  0  0
   -5.8457    6.3750    0.0000 C   0  0  0  0  0  0  0  0  0  0  0  0
   -1.9486    5.6250    0.0000 C   0  0  0  0  0  0  0  0  0  0  0  0
   -4.5466    5.6250    0.0000 C   0  0  0  0  0  0  0  0  0  0  0  0
   -3.2476    6.3750    0.0000 C   0  0  0  0  0  0  0  0  0  0  0  0
  3  1  1  0
  4  2  1  0
  5  3  1  0
  6  4  1  0
  7  5  1  0
  8  6  1  0
  9  7  1  0
 10  8  1  0
 11  9  1  0
 11 10  1  0
M  END
>  <NAME>  (2314) 
UNDECANE

>  <SYNONYMS>  (2314) 


>  <SPECTRUM TYPE>  (2314) 
MS1

>  <INSTRUMENT TYPE>  (2314) 
EI-B

>  <INSTRUMENT>  (2314) 
HITACHI RMU-6M

>  <ION MODE>  (2314) 
P

>  <INCHIKEY>  (2314) 
RSJKGSCJYJTIGS-UHFFFAOYSA-N

>  <FORMULA>  (2314) 
C11H24

>  <EXACT MASS>  (2314) 
156.187800768

>  <MW>  (2314) 
156

>  <ID>  (2314) 
JP008903

>  <CONTRIBUTOR>  (2314) 
University of Tokyo Team, {Faculty of Engineering, University of Tokyo

>  <COMMENT>  (2314) 
SMILES=CCCCCCCCCCC
InChI=InChI=1S/C11H24/c1-3-5-7-9-11-10-8-6-4-2/h3-11H2,1-2H3
computed SMILES=CCCCCCCCCCC
accession=JP008903
date=2016.01.19 (Created 2008.10.21, modified 2011.05.06)
author=YAMAMOTO M, DEP. CHEMISTRY, FAC. SCIENCE, NARA WOMEN'S UNIV.
license=CC BY-NC-SA
exact mass=156.1878
ionization energy=70 eV
ion type=[M]+*
computed spectral entropy=2.4977039009176463
computed normalized entropy=0.7143424851825795
SPLASH=splash10-052f-9000000000-f52ef10aa893b46474af
submitter=submitter = University of Tokyo Team (Faculty of Engineering, University of Tokyo)
MoNA Rating=3.75

>  <NUM PEAKS>  (2314) 
33

>  <MASS SPECTRAL PEAKS>  (2314) 
27 19
28 3.7
29 32.9
30 0.1
39 11.1
40 2.5
41 48.2
42 1.55
43 99.99
44 3.7
53 2.6
54 0.2
55 16.7
56 17.4
57 99.1
58 0.41
67 1.2
69 4.9
70 12.4
71 4.31
72 2.5
83 2
84 9
85 2.56
86 1.8
98 6.9
99 7.4
112 0.31
113 6.7
126 1.4
127 3.9
156 1.34
157 1.8

$$$$

     RDKit          2D

  7  7  0  0  0  0  0  0  0  0999 V2000
   -1.1700   -1.2200    0.0000 C   0  0  0  0  0  0  0  0  0  0  0  0
    0.3300   -1.2200    0.0000 C   0  0  0  0  0  0  0  0  0  0  0  0
   -1.6300    0.2000    0.0000 C   0  0  0  0  0  0  0  0  0  0  0  0
    2.2271    0.6621    0.0000 C   0  0  0  0  0  0  0  0  0  0  0  0
    0.8000    0.2000    0.0000 C   0  0  0  0  0  0  0  0  0  0  0  0
    3.3407   -0.3428    0.0000 O   0  0  0  0  0  0  0  0  0  0  0  0
   -0.4200    1.0800    0.0000 O   0  0  0  0  0  0  0  0  0  0  0  0
  2  1  1  0
  3  1  1  0
  5  2  1  0
  5  4  1  0
  6  4  1  0
  7  3  1  0
  7  5  1  0
M  END
>  <NAME>  (2315) 
TETRAHYDROFURFURYL ALCOHOL

>  <SYNONYMS>  (2315) 


>  <SPECTRUM TYPE>  (2315) 
MS1

>  <INSTRUMENT TYPE>  (2315) 
EI-B

>  <INSTRUMENT>  (2315) 
HITACHI RMU-6M

>  <ION MODE>  (2315) 
P

>  <INCHIKEY>  (2315) 
BSYVTEYKTMYBMK-UHFFFAOYSA-N

>  <FORMULA>  (2315) 
C5H10O2

>  <EXACT MASS>  (2315) 
102.06807956

>  <MW>  (2315) 
102

>  <ID>  (2315) 
JP008902

>  <CONTRIBUTOR>  (2315) 
University of Tokyo Team, {Faculty of Engineering, University of Tokyo

>  <COMMENT>  (2315) 
SMILES=OCC(C1)OCC1
InChI=InChI=1S/C5H10O2/c6-4-5-2-1-3-7-5/h5-6H,1-4H2
computed SMILES=OCC1OCCC1
accession=JP008902
date=2016.01.19 (Created 2008.10.21, modified 2011.05.06)
author=YAMAMOTO M, DEP. CHEMISTRY, FAC. SCIENCE, NARA WOMEN'S UNIV.
license=CC BY-NC-SA
exact mass=102.06808
ionization energy=70 eV
ion type=[M]+*
computed spectral entropy=2.1384339786014652
computed normalized entropy=0.7023873275181063
SPLASH=splash10-00dl-9000000000-c623d7fe47c3ac9514e4
submitter=submitter = University of Tokyo Team (Faculty of Engineering, University of Tokyo)
MoNA Rating=3.75

>  <NUM PEAKS>  (2315) 
21

>  <MASS SPECTRAL PEAKS>  (2315) 
15 4
26 2.4
27 28.7
28 0.27
29 14.7
31 21.4
38 1.6
39 1.42
40 3
41 41.4
42 12.9
43 7.2
44 8.2
45 1.3
53 1.8
55 0.18
57 3.9
61 1.9
70 4.9
71 99.99
72 4.3

$$$$

     RDKit          2D

 10 10  0  0  0  0  0  0  0  0999 V2000
   -0.0000   -3.0000    0.0000 C   0  0  0  0  0  0  0  0  0  0  0  0
    2.5989    1.5002    0.0000 C   0  0  0  0  0  0  0  0  0  0  0  0
   -2.5989    1.5002    0.0000 C   0  0  0  0  0  0  0  0  0  0  0  0
    0.0000    3.0000    0.0000 C   0  0  0  0  0  0  0  0  0  0  0  0
    1.3000   -0.7500    0.0000 C   0  0  0  0  0  0  0  0  0  0  0  0
   -1.3000   -0.7500    0.0000 C   0  0  0  0  0  0  0  0  0  0  0  0
   -0.0000   -1.5000    0.0000 C   0  0  0  0  0  0  0  0  0  0  0  0
    1.3000    0.7500    0.0000 C   0  0  0  0  0  0  0  0  0  0  0  0
   -1.3000    0.7500    0.0000 C   0  0  0  0  0  0  0  0  0  0  0  0
   -0.0000    1.5000    0.0000 C   0  0  0  0  0  0  0  0  0  0  0  0
  7  1  1  0
  7  5  2  0
  7  6  1  0
  8  2  1  0
  8  5  1  0
  9  3  1  0
  9  6  2  0
 10  4  1  0
 10  8  2  0
 10  9  1  0
M  END
>  <NAME>  (2316) 
1,2,3,5-TETRAMETHYLBENZENE

>  <SYNONYMS>  (2316) 


>  <SPECTRUM TYPE>  (2316) 
MS1

>  <INSTRUMENT TYPE>  (2316) 
EI-B

>  <INSTRUMENT>  (2316) 
HITACHI RMU-6M

>  <ION MODE>  (2316) 
P

>  <INCHIKEY>  (2316) 
BFIMMTCNYPIMRN-UHFFFAOYSA-N

>  <FORMULA>  (2316) 
C10H14

>  <EXACT MASS>  (2316) 
134.109550448

>  <MW>  (2316) 
134

>  <ID>  (2316) 
JP008901

>  <CONTRIBUTOR>  (2316) 
University of Tokyo Team, {Faculty of Engineering, University of Tokyo

>  <COMMENT>  (2316) 
SMILES=Cc(c1)cc(C)c(C)c(C)1
InChI=InChI=1S/C10H14/c1-7-5-8(2)10(4)9(3)6-7/h5-6H,1-4H3
computed SMILES=C=1C(=CC(=C(C1C)C)C)C
accession=JP008901
date=2016.01.19 (Created 2008.10.21, modified 2011.05.06)
author=YAMAMOTO M, DEP. CHEMISTRY, FAC. SCIENCE, NARA WOMEN'S UNIV.
license=CC BY-NC-SA
exact mass=134.10955
ionization energy=70 eV
ion type=[M]+*
computed spectral entropy=2.5143658185665205
computed normalized entropy=0.6816069350714166
SPLASH=splash10-0159-3900000000-7c2a123567f711eb34db
submitter=submitter = University of Tokyo Team (Faculty of Engineering, University of Tokyo)
MoNA Rating=3.75

>  <NUM PEAKS>  (2316) 
40

>  <MASS SPECTRAL PEAKS>  (2316) 
27 5.6
29 1
38 1.1
39 1.1
40 1.5
41 8.3
50 2.6
51 0.76
52 2.6
53 4.1
57.5 1.1
58 0.1
62 1.5
63 4.1
64 2.2
65 0.69
66 2.1
67 1.7
74 1.1
75 0.12
77 9.5
78 3.2
79 4.3
89 0.15
91 16
92 1.8
93 1.8
102 0.12
103 4.1
104 2.8
105 4.3
115 0.65
116 2.5
117 6.9
118 2.6
119 99.99
120 10.1
133 10.7
134 54.7
135 6.6

$$$$

     RDKit          2D

 10 10  0  0  0  0  0  0  0  0999 V2000
    2.5989    0.0004    0.0000 C   0  0  0  0  0  0  0  0  0  0  0  0
   -2.5989   -3.0000    0.0000 C   0  0  0  0  0  0  0  0  0  0  0  0
    0.0000    1.5002    0.0000 C   0  0  0  0  0  0  0  0  0  0  0  0
   -2.5989    0.0004    0.0000 C   0  0  0  0  0  0  0  0  0  0  0  0
    1.3000   -2.2498    0.0000 C   0  0  0  0  0  0  0  0  0  0  0  0
   -0.0000   -2.9998    0.0000 C   0  0  0  0  0  0  0  0  0  0  0  0
    1.3000   -0.7498    0.0000 C   0  0  0  0  0  0  0  0  0  0  0  0
   -1.3000   -2.2498    0.0000 C   0  0  0  0  0  0  0  0  0  0  0  0
    0.0000    0.0002    0.0000 C   0  0  0  0  0  0  0  0  0  0  0  0
   -1.3000   -0.7498    0.0000 C   0  0  0  0  0  0  0  0  0  0  0  0
  6  5  2  0
  7  1  1  0
  7  5  1  0
  8  2  1  0
  8  6  1  0
  9  3  1  0
  9  7  2  0
 10  4  1  0
 10  8  2  0
 10  9  1  0
M  END
>  <NAME>  (2317) 
1,2,3,4-TETRAMETHYLBENZENE

>  <SYNONYMS>  (2317) 


>  <SPECTRUM TYPE>  (2317) 
MS1

>  <INSTRUMENT TYPE>  (2317) 
EI-B

>  <INSTRUMENT>  (2317) 
HITACHI RMU-6M

>  <ION MODE>  (2317) 
P

>  <INCHIKEY>  (2317) 
UOHMMEJUHBCKEE-UHFFFAOYSA-N

>  <FORMULA>  (2317) 
C10H14

>  <EXACT MASS>  (2317) 
134.109550448

>  <MW>  (2317) 
134

>  <ID>  (2317) 
JP008900

>  <CONTRIBUTOR>  (2317) 
University of Tokyo Team, {Faculty of Engineering, University of Tokyo

>  <COMMENT>  (2317) 
SMILES=Cc(c1)c(C)c(C)c(C)c1
InChI=InChI=1S/C10H14/c1-7-5-6-8(2)10(4)9(7)3/h5-6H,1-4H3
computed SMILES=C=1C=C(C(=C(C1C)C)C)C
accession=JP008900
date=2016.01.19 (Created 2008.10.21, modified 2011.05.06)
author=YAMAMOTO M, DEP. CHEMISTRY, FAC. SCIENCE, NARA WOMEN'S UNIV.
license=CC BY-NC-SA
exact mass=134.10955
ionization energy=70 eV
ion type=[M]+*
computed spectral entropy=2.6097409777930936
computed normalized entropy=0.6855719373089354
SPLASH=splash10-014i-4900000000-28da1a5b7cbbccda1f38
submitter=submitter = University of Tokyo Team (Faculty of Engineering, University of Tokyo)
MoNA Rating=3.75

>  <NUM PEAKS>  (2317) 
45

>  <MASS SPECTRAL PEAKS>  (2317) 
27 6.1
29 1.3
38 1
39 0.99
40 1.6
41 8
50 2.5
51 0.71
52 2.2
53 4.9
55 1.2
57.5 0.14
58 1.2
62 1.2
63 4.1
64 0.2
65 6.6
66 2
67 1.4
74 0.1
75 1.2
77 9.7
78 3.5
79 0.43
89 1.8
91 16.8
92 2.2
93 0.19
102 1.4
103 4.6
104 3.2
105 0.48
106 1.2
115 6.8
116 2.6
117 0.68
118 2.5
119 99.99
120 10.6
128 0.1
131 1.2
132 1
133 9.3
134 5.3
135 7

$$$$

     RDKit          2D

 10 10  0  0  0  0  0  0  0  0999 V2000
   -1.6300    1.2517    0.0000 C   0  0  0  0  0  0  0  0  0  0  0  0
    5.4215    1.5862    0.0000 C   0  0  0  0  0  0  0  0  0  0  0  0
    3.9215    1.5862    0.0000 C   0  0  0  0  0  0  0  0  0  0  0  0
    5.8815    0.1662    0.0000 C   0  0  0  0  0  0  0  0  0  0  0  0
    2.0244   -0.2959    0.0000 C   0  0  0  0  0  0  0  0  0  0  0  0
   -0.5163    0.2469    0.0000 C   0  0  0  0  0  0  0  0  0  0  0  0
    3.4515    0.1662    0.0000 C   0  0  0  0  0  0  0  0  0  0  0  0
   -0.8297   -1.2200    0.0000 O   0  0  0  0  0  0  0  0  0  0  0  0
    4.6715   -0.7138    0.0000 O   0  0  0  0  0  0  0  0  0  0  0  0
    0.9107    0.7090    0.0000 O   0  0  0  0  0  0  0  0  0  0  0  0
  3  2  1  0
  4  2  1  0
  6  1  1  0
  7  3  1  0
  7  5  1  0
  8  6  2  0
  9  4  1  0
  9  7  1  0
 10  5  1  0
 10  6  1  0
M  END
>  <NAME>  (2318) 
TETRAHYDROFURFURYL ACETATE

>  <SYNONYMS>  (2318) 


>  <SPECTRUM TYPE>  (2318) 
MS1

>  <INSTRUMENT TYPE>  (2318) 
EI-B

>  <INSTRUMENT>  (2318) 
HITACHI RMU-6M

>  <ION MODE>  (2318) 
P

>  <INCHIKEY>  (2318) 
AAQDYYFAFXGBFZ-UHFFFAOYSA-N

>  <FORMULA>  (2318) 
C7H12O3

>  <EXACT MASS>  (2318) 
144.07864424399997

>  <MW>  (2318) 
144

>  <ID>  (2318) 
JP008899

>  <CONTRIBUTOR>  (2318) 
University of Tokyo Team, {Faculty of Engineering, University of Tokyo

>  <COMMENT>  (2318) 
SMILES=CC(=O)OCC(C1)OCC1
InChI=InChI=1S/C7H12O3/c1-6(8)10-5-7-3-2-4-9-7/h7H,2-5H2,1H3
computed SMILES=O=C(OCC1OCCC1)C
accession=JP008899
date=2016.01.19 (Created 2008.10.21, modified 2011.05.06)
author=YAMAMOTO M, DEP. CHEMISTRY, FAC. SCIENCE, NARA WOMEN'S UNIV.
license=CC BY-NC-SA
exact mass=144.07864
ionization energy=70 eV
ion type=[M]+*
computed spectral entropy=2.0473129684691003
computed normalized entropy=0.6283770123375029
SPLASH=splash10-00di-9000000000-b13249bb1064320d2085
submitter=submitter = University of Tokyo Team (Faculty of Engineering, University of Tokyo)
MoNA Rating=3.75

>  <NUM PEAKS>  (2318) 
26

>  <MASS SPECTRAL PEAKS>  (2318) 
14 1.4
15 9.5
26 1.4
27 1.54
28 2.4
29 7
31 3.4
39 0.89
40 1.9
41 22
42 9.5
43 6.15
44 2.4
53 1.4
54 2.4
55 0.34
56 1.4
57 1.1
70 2.3
71 99.99
72 5.1
73 1.5
74 1.1
93 0.12
94 13.6
95 1.8

$$$$

     RDKit          2D

  8  8  0  0  0  0  0  0  0  0999 V2000
   -0.0000    1.5000    0.0000 C   0  0  0  0  0  0  0  0  0  0  0  0
    1.3000    0.7500    0.0000 C   0  0  0  0  0  0  0  0  0  0  0  0
   -1.3000    0.7500    0.0000 C   0  0  0  0  0  0  0  0  0  0  0  0
    1.3000   -0.7500    0.0000 C   0  0  0  0  0  0  0  0  0  0  0  0
   -2.5989   -1.5002    0.0000 C   0  0  0  0  0  0  0  0  0  0  0  0
   -1.3000   -0.7500    0.0000 C   0  0  0  0  0  0  0  0  0  0  0  0
   -3.8981   -0.7504    0.0000 O   0  0  0  0  0  0  0  0  0  0  0  0
   -0.0000   -1.5000    0.0000 O   0  0  0  0  0  0  0  0  0  0  0  0
  2  1  1  0
  3  1  1  0
  4  2  1  0
  6  3  1  0
  6  5  1  0
  7  5  1  0
  8  4  1  0
  8  6  1  0
M  END
>  <NAME>  (2319) 
TETRAHYDROPYRAN-2-METHANOL

>  <SYNONYMS>  (2319) 


>  <SPECTRUM TYPE>  (2319) 
MS1

>  <INSTRUMENT TYPE>  (2319) 
EI-B

>  <INSTRUMENT>  (2319) 
HITACHI RMU-6M

>  <ION MODE>  (2319) 
P

>  <INCHIKEY>  (2319) 
ROTONRWJLXYJBD-UHFFFAOYSA-N

>  <FORMULA>  (2319) 
C6H12O2

>  <EXACT MASS>  (2319) 
116.083729624

>  <MW>  (2319) 
116

>  <ID>  (2319) 
JP008898

>  <CONTRIBUTOR>  (2319) 
University of Tokyo Team, {Faculty of Engineering, University of Tokyo

>  <COMMENT>  (2319) 
SMILES=OCC(C1)OCCC1
InChI=InChI=1S/C6H12O2/c7-5-6-3-1-2-4-8-6/h6-7H,1-5H2
computed SMILES=OCC1OCCCC1
accession=JP008898
date=2016.01.19 (Created 2008.10.21, modified 2011.05.06)
author=YAMAMOTO M, DEP. CHEMISTRY, FAC. SCIENCE, NARA WOMEN'S UNIV.
license=CC BY-NC-SA
exact mass=116.08373
ionization energy=70 eV
ion type=[M]+*
computed spectral entropy=2.319631574582823
computed normalized entropy=0.6888707413010815
SPLASH=splash10-002r-9000000000-f0198f34ec8d423a4645
submitter=submitter = University of Tokyo Team (Faculty of Engineering, University of Tokyo)
MoNA Rating=3.75

>  <NUM PEAKS>  (2319) 
29

>  <MASS SPECTRAL PEAKS>  (2319) 
15 2.9
26 2.7
27 20.1
28 1.09
29 37.2
30 1.5
31 24.3
32 0.35
38 1
39 13.4
40 2.5
41 5.49
42 3.2
43 27.7
44 3.4
45 0.18
51 1.3
53 3.1
54 1.2
55 1.5
56 5
57 26.8
58 1.5
59 0.1
60 1.5
84 5
85 99.99
86 0.59
116 0.6

$$$$

     RDKit          2D

  6  6  0  0  0  0  0  0  0  0999 V2000
    0.0000    1.5000    0.0000 C   0  0  0  0  0  0  0  0  0  0  0  0
    1.3000    0.7500    0.0000 C   0  0  0  0  0  0  0  0  0  0  0  0
   -1.3000    0.7500    0.0000 C   0  0  0  0  0  0  0  0  0  0  0  0
    1.3000   -0.7500    0.0000 C   0  0  0  0  0  0  0  0  0  0  0  0
   -1.3000   -0.7500    0.0000 C   0  0  0  0  0  0  0  0  0  0  0  0
   -0.0000   -1.5000    0.0000 O   0  0  0  0  0  0  0  0  0  0  0  0
  2  1  1  0
  3  1  1  0
  4  2  1  0
  5  3  1  0
  6  4  1  0
  6  5  1  0
M  END
>  <NAME>  (2320) 
TETRAHYDROPYRAN

>  <SYNONYMS>  (2320) 


>  <SPECTRUM TYPE>  (2320) 
MS1

>  <INSTRUMENT TYPE>  (2320) 
EI-B

>  <INSTRUMENT>  (2320) 
HITACHI RMU-6M

>  <ION MODE>  (2320) 
P

>  <INCHIKEY>  (2320) 
DHXVGJBLRPWPCS-UHFFFAOYSA-N

>  <FORMULA>  (2320) 
C5H10O

>  <EXACT MASS>  (2320) 
86.07316494

>  <MW>  (2320) 
86

>  <ID>  (2320) 
JP008897

>  <CONTRIBUTOR>  (2320) 
University of Tokyo Team, {Faculty of Engineering, University of Tokyo

>  <COMMENT>  (2320) 
SMILES=C(C1)CCOC1
InChI=InChI=1S/C5H10O/c1-2-4-6-5-3-1/h1-5H2
computed SMILES=O1CCCCC1
accession=JP008897
date=2016.01.19 (Created 2008.10.21, modified 2011.05.06)
author=YAMAMOTO M, DEP. CHEMISTRY, FAC. SCIENCE, NARA WOMEN'S UNIV.
license=CC BY-NC-SA
exact mass=86.07316
ionization energy=70 eV
ion type=[M]+*
computed spectral entropy=2.4490585548213395
computed normalized entropy=0.7004299323734833
SPLASH=splash10-054y-9000000000-ee80206a469b752e3bd2
submitter=submitter = University of Tokyo Team (Faculty of Engineering, University of Tokyo)
MoNA Rating=3.75

>  <NUM PEAKS>  (2320) 
33

>  <MASS SPECTRAL PEAKS>  (2320) 
14 1
15 3.6
26 7
27 3.16
28 48.4
29 26.6
30 3.1
31 0.52
37 1.1
38 2.3
39 21
40 0.59
41 99.99
42 4.3
43 6
44 0.2
45 51.5
46 1.3
50 2.3
51 0.23
52 1
53 3.7
54 2.9
55 2
56 57.2
57 6.3
58 1.7
67 0.4
68 1.1
71 2.6
85 44.9
86 3.75
87 2.3

$$$$

     RDKit          2D

  5  4  0  0  0  0  0  0  0  0999 V2000
   -3.8971    2.2500    0.0000 C   0  0  0  0  0  0  0  0  0  0  0  0
   -2.5981    1.5000    0.0000 C   0  0  0  0  0  0  0  0  0  0  0  0
   -1.2990    2.2500    0.0000 C   0  0  0  0  0  0  0  0  0  0  0  0
    0.0000    1.5000    0.0000 C   0  0  0  0  0  0  0  0  0  0  0  0
    1.2990    2.2500    0.0000 O   0  0  0  0  0  0  0  0  0  0  0  0
  2  1  1  0
  2  3  2  0
  4  3  1  0
  5  4  1  0
M  END
>  <NAME>  (2321) 
TRANS-CROTONYL ALCOHOL

>  <SYNONYMS>  (2321) 
TRANS-BUT-2-EN-1-OL

>  <SPECTRUM TYPE>  (2321) 
MS1

>  <INSTRUMENT TYPE>  (2321) 
EI-B

>  <INSTRUMENT>  (2321) 
HITACHI RMU-7M

>  <ION MODE>  (2321) 
P

>  <INCHIKEY>  (2321) 
WCASXYBKJHWFMY-NSCUHMNNSA-N

>  <FORMULA>  (2321) 
C4H8O

>  <EXACT MASS>  (2321) 
72.057514876

>  <MW>  (2321) 
72

>  <ID>  (2321) 
JP008896

>  <CONTRIBUTOR>  (2321) 
University of Tokyo Team, {Faculty of Engineering, University of Tokyo

>  <COMMENT>  (2321) 
SMILES=CC=CCO
InChI=InChI=1S/C4H8O/c1-2-3-4-5/h2-3,5H,4H2,1H3/b3-2+
computed SMILES=OCC=CC
accession=JP008896
date=2016.01.19 (Created 2008.10.21, modified 2011.05.06)
author=TAJIMA S, GUNMA COLLEGE OF TECHNOLOGY
license=CC BY-NC-SA
exact mass=72.05751
ionization energy=70 eV
ion type=[M]+*
computed spectral entropy=2.736200220048408
computed normalized entropy=0.8301989240643485
SPLASH=splash10-0a6u-9000000000-6a6e999935ce0da214db
submitter=submitter = University of Tokyo Team (Faculty of Engineering, University of Tokyo)
MoNA Rating=3.75

>  <NUM PEAKS>  (2321) 
27

>  <MASS SPECTRAL PEAKS>  (2321) 
15 3.67
26 7.7
27 35.52
28 4.71
29 49.02
30 1.84
31 26.11
37 4.14
38 7.93
39 44.17
40 5.33
41 29.9
42 6.75
43 31.32
44 9.77
45 4.14
50 5.39
51 4.74
53 14.8
54 8.41
55 9.71
57 99.99
58 3.61
69 2.84
71 7.04
72 30.2
73 1.36

$$$$

     RDKit          2D

 22 24  0  0  0  0  0  0  0  0999 V2000
   -0.5550    1.6487    0.0000 C   0  0  0  0  0  0  0  0  0  0  0  0
    8.5422    3.9001    0.0000 C   0  0  0  0  0  0  0  0  0  0  0  0
    6.1853   -4.0795    0.0000 C   0  0  0  0  0  0  0  0  0  0  0  0
   -0.5545    0.1487    0.0000 C   0  0  0  0  0  0  0  0  0  0  0  0
    0.7448    2.3991    0.0000 C   0  0  0  0  0  0  0  0  0  0  0  0
    8.5422    2.4001    0.0000 C   0  0  0  0  0  0  0  0  0  0  0  0
    7.2422    4.6501    0.0000 C   0  0  0  0  0  0  0  0  0  0  0  0
    4.7072   -3.8189    0.0000 C   0  0  0  0  0  0  0  0  0  0  0  0
    7.1491   -2.9301    0.0000 C   0  0  0  0  0  0  0  0  0  0  0  0
    0.7457   -0.6009    0.0000 C   0  0  0  0  0  0  0  0  0  0  0  0
    2.0450    1.6495    0.0000 C   0  0  0  0  0  0  0  0  0  0  0  0
    7.2422    1.6501    0.0000 C   0  0  0  0  0  0  0  0  0  0  0  0
    5.9422    3.9001    0.0000 C   0  0  0  0  0  0  0  0  0  0  0  0
    4.1930   -2.4089    0.0000 C   0  0  0  0  0  0  0  0  0  0  0  0
    6.6349   -1.5201    0.0000 C   0  0  0  0  0  0  0  0  0  0  0  0
    2.0455    0.1495    0.0000 C   0  0  0  0  0  0  0  0  0  0  0  0
    5.9422    2.4001    0.0000 C   0  0  0  0  0  0  0  0  0  0  0  0
    5.1568   -1.2595    0.0000 C   0  0  0  0  0  0  0  0  0  0  0  0
    6.1207    0.4106    0.0000 O   0  0  0  0  0  0  0  0  0  0  0  0
    3.3446   -0.6003    0.0000 O   0  0  0  0  0  0  0  0  0  0  0  0
    4.6433    1.6499    0.0000 O   0  0  0  0  0  0  0  0  0  0  0  0
    4.6436    0.1499    0.0000 P   0  0  0  0  0  0  0  0  0  0  0  0
  4  1  2  0
  5  1  1  0
  6  2  2  0
  7  2  1  0
  8  3  2  0
  9  3  1  0
 10  4  1  0
 11  5  2  0
 12  6  1  0
 13  7  2  0
 14  8  1  0
 15  9  2  0
 16 10  2  0
 16 11  1  0
 17 12  2  0
 17 13  1  0
 18 14  2  0
 18 15  1  0
 20 16  1  0
 21 17  1  0
 22 18  1  0
 22 19  2  0
 22 20  1  0
 22 21  1  0
M  END
>  <NAME>  (2322) 
TRIPHENYLPHOSPHITE

>  <SYNONYMS>  (2322) 
PHOSPHONIC ACID TRIPHENYL ESTER

>  <SPECTRUM TYPE>  (2322) 
MS1

>  <INSTRUMENT TYPE>  (2322) 
EI-B

>  <INSTRUMENT>  (2322) 
HITACHI RMU-7M

>  <ION MODE>  (2322) 
P

>  <INCHIKEY>  (2322) 
CDOMXXVCZQOOMT-UHFFFAOYSA-N

>  <FORMULA>  (2322) 
C18H15O3P

>  <EXACT MASS>  (2322) 
310.07588097

>  <MW>  (2322) 
310

>  <ID>  (2322) 
JP008895

>  <CONTRIBUTOR>  (2322) 
University of Tokyo Team, {Faculty of Engineering, University of Tokyo

>  <COMMENT>  (2322) 
SMILES=c(c3)ccc(c3)OP(=O)(Oc(c2)cccc2)c(c1)cccc1
InChI=InChI=1S/C18H15O3P/c19-22(18-14-8-3-9-15-18,20-16-10-4-1-5-11-16)21-17-12-6-2-7-13-17/h1-15H
computed SMILES=O=P(OC=1C=CC=CC1)(OC=2C=CC=CC2)C=3C=CC=CC3
accession=JP008895
date=2016.01.19 (Created 2008.10.21, modified 2011.05.06)
author=TAJIMA S, GUNMA COLLEGE OF TECHNOLOGY
license=CC BY-NC-SA
exact mass=310.07588
ionization energy=70 eV
ion type=[M]+*
computed spectral entropy=2.6264135987439063
computed normalized entropy=0.757822774846234
SPLASH=splash10-0006-9000000000-8920391dfdb4c66992a9
submitter=submitter = University of Tokyo Team (Faculty of Engineering, University of Tokyo)
MoNA Rating=3.75

>  <NUM PEAKS>  (2322) 
32

>  <MASS SPECTRAL PEAKS>  (2322) 
15 1.54
19 2.63
26 2.37
27 3.85
28 2.95
29 3.85
31 2.95
37 4.17
38 7.76
39 22.37
40 11.22
41 1.92
43 1.92
47 3.97
50 5.26
51 6.41
53 2.76
55 7.69
61 2.12
62 3.21
63 5.83
64 2.44
65 21.73
66 28.97
67 2.5
74 2.05
77 6.28
93 1.99
94 99.99
95 7.12
217 5.83
310 1.79

$$$$

     RDKit          2D

 16 15  0  0  0  0  0  0  0  0999 V2000
    3.8188    4.6357    0.0000 C   0  0  0  0  0  0  0  0  0  0  0  0
   -9.1716    4.6357    0.0000 C   0  0  0  0  0  0  0  0  0  0  0  0
   -1.7741   10.5029    0.0000 C   0  0  0  0  0  0  0  0  0  0  0  0
    2.5197    5.3857    0.0000 C   0  0  0  0  0  0  0  0  0  0  0  0
   -7.8726    5.3857    0.0000 C   0  0  0  0  0  0  0  0  0  0  0  0
   -1.2611    9.0934    0.0000 C   0  0  0  0  0  0  0  0  0  0  0  0
    1.2207    4.6357    0.0000 C   0  0  0  0  0  0  0  0  0  0  0  0
   -6.5735    4.6357    0.0000 C   0  0  0  0  0  0  0  0  0  0  0  0
   -2.2253    7.9443    0.0000 C   0  0  0  0  0  0  0  0  0  0  0  0
   -0.0783    5.3857    0.0000 C   0  0  0  0  0  0  0  0  0  0  0  0
   -5.2745    5.3857    0.0000 C   0  0  0  0  0  0  0  0  0  0  0  0
   -1.7122    6.5348    0.0000 C   0  0  0  0  0  0  0  0  0  0  0  0
   -3.6406    6.5348    0.0000 O   0  0  0  0  0  0  0  0  0  0  0  0
   -1.3774    4.6357    0.0000 O   0  0  0  0  0  0  0  0  0  0  0  0
   -3.9755    4.6357    0.0000 O   0  0  0  0  0  0  0  0  0  0  0  0
   -2.6764    5.3857    0.0000 P   0  0  0  0  0  0  0  0  0  0  0  0
  4  1  1  0
  5  2  1  0
  6  3  1  0
  7  4  1  0
  8  5  1  0
  9  6  1  0
 10  7  1  0
 11  8  1  0
 12  9  1  0
 14 10  1  0
 15 11  1  0
 16 12  1  0
 16 13  2  0
 16 14  1  0
 16 15  1  0
M  END
>  <NAME>  (2323) 
TRIBUTYLPHOSPHITE

>  <SYNONYMS>  (2323) 
PHOSPHONIC ACID TRIBUTYL ESTER

>  <SPECTRUM TYPE>  (2323) 
MS1

>  <INSTRUMENT TYPE>  (2323) 
EI-B

>  <INSTRUMENT>  (2323) 
HITACHI RMU-7M

>  <ION MODE>  (2323) 
P

>  <INCHIKEY>  (2323) 
JPGXOMADPRULAC-UHFFFAOYSA-N

>  <FORMULA>  (2323) 
C12H27O3P

>  <EXACT MASS>  (2323) 
250.169781354

>  <MW>  (2323) 
250

>  <ID>  (2323) 
JP008894

>  <CONTRIBUTOR>  (2323) 
University of Tokyo Team, {Faculty of Engineering, University of Tokyo

>  <COMMENT>  (2323) 
SMILES=CCCCOP(=O)(CCCC)OCCCC
InChI=InChI=1S/C12H27O3P/c1-4-7-10-14-16(13,12-9-6-3)15-11-8-5-2/h4-12H2,1-3H3
computed SMILES=O=P(OCCCC)(OCCCC)CCCC
accession=JP008894
date=2016.01.19 (Created 2008.10.21, modified 2011.05.06)
author=TAJIMA S, GUNMA COLLEGE OF TECHNOLOGY
license=CC BY-NC-SA
exact mass=250.16978
ionization energy=70 eV
ion type=[M]+*
computed spectral entropy=2.7939838936755885
computed normalized entropy=0.7626414302669864
SPLASH=splash10-056u-9000000000-2d33bf5229df5f6a0f20
submitter=submitter = University of Tokyo Team (Faculty of Engineering, University of Tokyo)
MoNA Rating=3.75

>  <NUM PEAKS>  (2323) 
39

>  <MASS SPECTRAL PEAKS>  (2323) 
15 3.37
26 3.95
27 48.7
28 16.17
29 99.99
30 2.79
31 5.17
38 1.44
39 28.08
40 3.64
41 96.05
42 6.42
43 11.77
47 7.64
50 1.57
51 2.79
53 3.19
54 1.57
55 14.73
56 14.6
57 55.53
58 2.52
65 10.33
77 5.35
78 1.75
79 1.8
82 7.05
83 77.45
96 2.47
97 4
99 3.41
109 4.04
111 1.71
121 3.55
123 5.17
137 2.07
139 15.23
177 3.41
195 4.49

$$$$

     RDKit          2D

  6  5  0  0  0  0  0  0  0  0999 V2000
   -4.5466    3.3750    0.0000 C   0  0  0  0  0  0  0  0  0  0  0  0
   -3.2476    2.6250    0.0000 C   0  0  0  0  0  0  0  0  0  0  0  0
    0.6495    3.3750    0.0000 C   0  0  0  0  0  0  0  0  0  0  0  0
   -0.6495    2.6250    0.0000 C   0  0  0  0  0  0  0  0  0  0  0  0
    1.9486    2.6250    0.0000 N   0  0  0  0  0  0  0  0  0  0  0  0
   -1.9486    3.3750    0.0000 O   0  0  0  0  0  0  0  0  0  0  0  0
  2  1  1  0
  4  3  1  0
  5  3  1  0
  6  2  1  0
  6  4  1  0
M  END
>  <NAME>  (2324) 
2-ETHOXYETHYLAMINE

>  <SYNONYMS>  (2324) 
2-AMINOETHYL ETHYL ETHER

>  <SPECTRUM TYPE>  (2324) 
MS1

>  <INSTRUMENT TYPE>  (2324) 
EI-B

>  <INSTRUMENT>  (2324) 
HITACHI RMU-7M

>  <ION MODE>  (2324) 
P

>  <INCHIKEY>  (2324) 
BPGIOCZAQDIBPI-UHFFFAOYSA-N

>  <FORMULA>  (2324) 
C4H11NO

>  <EXACT MASS>  (2324) 
89.084063972

>  <MW>  (2324) 
89

>  <ID>  (2324) 
JP008893

>  <CONTRIBUTOR>  (2324) 
University of Tokyo Team, {Faculty of Engineering, University of Tokyo

>  <COMMENT>  (2324) 
SMILES=CCOCCN
InChI=InChI=1S/C4H11NO/c1-2-6-4-3-5/h2-5H2,1H3
computed SMILES=O(CC)CCN
accession=JP008893
date=2016.01.19 (Created 2008.10.21, modified 2011.05.06)
author=TAJIMA S, GUNMA COLLEGE OF TECHNOLOGY
license=CC BY-NC-SA
exact mass=89.08406
ionization energy=70 eV
ion type=[M]+*
computed spectral entropy=2.0537358109969324
computed normalized entropy=0.7248786312917289
SPLASH=splash10-001i-9000000000-ac64281c63a912ef06f4
submitter=submitter = University of Tokyo Team (Faculty of Engineering, University of Tokyo)
MoNA Rating=3.75

>  <NUM PEAKS>  (2324) 
17

>  <MASS SPECTRAL PEAKS>  (2324) 
14 1.57
15 5.33
17 1.21
18 7.26
26 4
27 14.16
28 14.32
29 13.01
30 99.99
31 10.29
41 3.45
42 9.99
43 6.05
44 8.1
45 19.07
59 1.21
60 1

$$$$

     RDKit          2D

  5  4  0  0  0  0  0  0  0  0999 V2000
   -1.2990    0.7500    0.0000 C   0  0  0  0  0  0  0  0  0  0  0  0
    0.7500    0.2010    0.0000 C   0  0  0  0  0  0  0  0  0  0  0  0
    1.2990    2.2500    0.0000 C   0  0  0  0  0  0  0  0  0  0  0  0
    0.0000    1.5000    0.0000 C   0  0  0  0  0  0  0  0  0  0  0  0
   -0.7500    2.7990    0.0000 O   0  0  0  0  0  0  0  0  0  0  0  0
  4  1  1  0
  4  2  1  0
  4  3  1  0
  5  4  1  0
M  END
>  <NAME>  (2325) 
TERT-BUTANOL

>  <SYNONYMS>  (2325) 
1,1-DIMETHYL ETHANOL

>  <SPECTRUM TYPE>  (2325) 
MS1

>  <INSTRUMENT TYPE>  (2325) 
EI-B

>  <INSTRUMENT>  (2325) 
HITACHI RMU-7M

>  <ION MODE>  (2325) 
P

>  <INCHIKEY>  (2325) 
DKGAVHZHDRPRBM-UHFFFAOYSA-N

>  <FORMULA>  (2325) 
C4H10O

>  <EXACT MASS>  (2325) 
74.07316494

>  <MW>  (2325) 
74

>  <ID>  (2325) 
JP008892

>  <CONTRIBUTOR>  (2325) 
University of Tokyo Team, {Faculty of Engineering, University of Tokyo

>  <COMMENT>  (2325) 
SMILES=CC(C)(C)O
InChI=InChI=1S/C4H10O/c1-4(2,3)5/h5H,1-3H3
computed SMILES=OC(C)(C)C
accession=JP008892
date=2016.01.19 (Created 2008.10.21, modified 2011.05.06)
author=TAJIMA S, GUNMA COLLEGE OF TECHNOLOGY
license=CC BY-NC-SA
exact mass=74.07316
ionization energy=70 eV
ion type=[M]+*
computed spectral entropy=2.0981385212355805
computed normalized entropy=0.7003758445832181
SPLASH=splash10-0a4i-9000000000-6712497b9eeb1353c71a
submitter=submitter = University of Tokyo Team (Faculty of Engineering, University of Tokyo)
MoNA Rating=3.75

>  <NUM PEAKS>  (2325) 
20

>  <MASS SPECTRAL PEAKS>  (2325) 
14 2
15 11.8
26 1.94
27 7.99
28 1.94
29 8.43
31 29.21
38 1.81
39 9.11
40 1.19
41 21.1
42 3.12
43 15.04
44 1.19
55 2.75
56 1.31
57 9.74
58 1
59 99.99
60 3.68

$$$$

     RDKit          2D

  5  4  0  0  0  0  0  0  0  0999 V2000
   -1.2990    0.7500    0.0000 C   0  0  0  0  0  0  0  0  0  0  0  0
    0.7500    0.2010    0.0000 C   0  0  0  0  0  0  0  0  0  0  0  0
    1.2990    2.2500    0.0000 C   0  0  0  0  0  0  0  0  0  0  0  0
   -0.7500    2.7990    0.0000 C   0  0  0  0  0  0  0  0  0  0  0  0
    0.0000    1.5000    0.0000 Si  0  0  0  0  0  4  0  0  0  0  0  0
  5  1  1  0
  5  2  1  0
  5  3  1  0
  5  4  1  0
M  END
>  <NAME>  (2326) 
TETRAMETHYLSILANE

>  <SYNONYMS>  (2326) 


>  <SPECTRUM TYPE>  (2326) 
MS1

>  <INSTRUMENT TYPE>  (2326) 
EI-B

>  <INSTRUMENT>  (2326) 
HITACHI RMU-7M

>  <ION MODE>  (2326) 
P

>  <INCHIKEY>  (2326) 
CZDYPVPMEAXLPK-UHFFFAOYSA-N

>  <FORMULA>  (2326) 
C4H12Si

>  <EXACT MASS>  (2326) 
88.070826914

>  <MW>  (2326) 
88

>  <ID>  (2326) 
JP008891

>  <CONTRIBUTOR>  (2326) 
University of Tokyo Team, {Faculty of Engineering, University of Tokyo

>  <COMMENT>  (2326) 
SMILES=C[Si](C)(C)C
InChI=InChI=1S/C4H12Si/c1-5(2,3)4/h1-4H3
computed SMILES=C[Si](C)(C)C
accession=JP008891
date=2016.01.19 (Created 2008.10.21, modified 2011.05.06)
author=TAJIMA S, GUNMA COLLEGE OF TECHNOLOGY
license=CC BY-NC-SA
exact mass=88.07083
ionization energy=70 eV
ion type=[M]+*
computed spectral entropy=1.6205946261779254
computed normalized entropy=0.5606872616820472
SPLASH=splash10-00di-9000000000-c242e467cf90a192a2e5
submitter=submitter = University of Tokyo Team (Faculty of Engineering, University of Tokyo)
MoNA Rating=3.75

>  <NUM PEAKS>  (2326) 
18

>  <MASS SPECTRAL PEAKS>  (2326) 
15 6.92
27 1.31
28 1.12
29 2.87
31 1.87
42 2.37
43 9.66
44 2.43
45 12.59
53 1.75
55 1.75
57 1.25
58 1.62
59 1.87
73 99.99
74 8.29
75 3.62
88 1

$$$$

     RDKit          2D

  4  3  0  0  0  0  0  0  0  0999 V2000
   -2.5981    2.2500    0.0000 C   0  0  0  0  0  0  0  0  0  0  0  0
   -1.2990    1.5000    0.0000 C   0  0  0  0  0  0  0  0  0  0  0  0
    0.0000    2.2500    0.0000 C   0  0  0  0  0  0  0  0  0  0  0  0
    1.2990    1.5000    0.0000 Cl  0  0  0  0  0  0  0  0  0  0  0  0
  2  1  2  0
  3  2  1  0
  4  3  1  0
M  END
>  <NAME>  (2327) 
3-CHLOROPROPENE

>  <SYNONYMS>  (2327) 
ALLYL CHLORIDE

>  <SPECTRUM TYPE>  (2327) 
MS1

>  <INSTRUMENT TYPE>  (2327) 
EI-B

>  <INSTRUMENT>  (2327) 
HITACHI RMU-7M

>  <ION MODE>  (2327) 
P

>  <INCHIKEY>  (2327) 
OSDWBNJEKMUWAV-UHFFFAOYSA-N

>  <FORMULA>  (2327) 
C3H5Cl

>  <EXACT MASS>  (2327) 
76.00797784

>  <MW>  (2327) 
76

>  <ID>  (2327) 
JP008890

>  <CONTRIBUTOR>  (2327) 
University of Tokyo Team, {Faculty of Engineering, University of Tokyo

>  <COMMENT>  (2327) 
SMILES=C=CCCl
InChI=InChI=1S/C3H5Cl/c1-2-3-4/h2H,1,3H2
computed SMILES=ClCC=C
accession=JP008890
date=2016.01.19 (Created 2008.10.21, modified 2011.05.06)
author=TAJIMA S, GUNMA COLLEGE OF TECHNOLOGY
license=CC BY-NC-SA
exact mass=76.00798
ionization energy=70 eV
ion type=[M]+*
computed spectral entropy=2.0934010916616126
computed normalized entropy=0.6875958822714335
SPLASH=splash10-000f-9000000000-7c6965a473a2f3372248
submitter=submitter = University of Tokyo Team (Faculty of Engineering, University of Tokyo)
MoNA Rating=3.75

>  <NUM PEAKS>  (2327) 
21

>  <MASS SPECTRAL PEAKS>  (2327) 
14 1.66
15 2.69
25 1.27
26 4.69
27 8.36
28 1.37
35 2.44
36 2.54
37 8.7
38 11.05
39 57.33
40 9.53
41 99.99
42 4.2
49 3.91
51 1.22
61 1
75 3.96
76 29.18
77 2.2
78 9.43

$$$$

     RDKit          2D

  2  1  0  0  0  0  0  0  0  0999 V2000
    0.0000    0.0000    0.0000 C   0  0  0  0  0  0  0  0  0  0  0  0
    1.5000    0.0000    0.0000 O   0  0  0  0  0  0  0  0  0  0  0  0
  2  1  1  0
M  END
>  <NAME>  (2328) 
METHANOL

>  <SYNONYMS>  (2328) 
METHYL ALCOHOL

>  <SPECTRUM TYPE>  (2328) 
MS1

>  <INSTRUMENT TYPE>  (2328) 
EI-B

>  <INSTRUMENT>  (2328) 
HITACHI RMU-7M

>  <ION MODE>  (2328) 
P

>  <INCHIKEY>  (2328) 
OKKJLVBELUTLKV-UHFFFAOYSA-N

>  <FORMULA>  (2328) 
CH4O

>  <EXACT MASS>  (2328) 
32.026214748

>  <MW>  (2328) 
32

>  <ID>  (2328) 
JP008889

>  <CONTRIBUTOR>  (2328) 
University of Tokyo Team, {Faculty of Engineering, University of Tokyo

>  <COMMENT>  (2328) 
SMILES=CO
InChI=InChI=1S/CH4O/c1-2/h2H,1H3
computed SMILES=OC
accession=JP008889
date=2016.01.19 (Created 2008.10.21, modified 2011.05.06)
author=TAJIMA S, GUNMA COLLEGE OF TECHNOLOGY
license=CC BY-NC-SA
exact mass=32.02621
ionization energy=70 eV
ion type=[M]+*
computed spectral entropy=1.6442394852705196
computed normalized entropy=0.6616906455664231
SPLASH=splash10-001i-9000000000-2173f5595be586c5c940
submitter=submitter = University of Tokyo Team (Faculty of Engineering, University of Tokyo)
MoNA Rating=3.75

>  <NUM PEAKS>  (2328) 
12

>  <MASS SPECTRAL PEAKS>  (2328) 
12 1.3
13 2.53
14 5.13
15 24.73
17 1.53
18 1.38
28 4.98
29 51.23
30 6.97
31 99.99
32 73.74
33 1.61

$$$$

     RDKit          2D

  8  7  0  0  0  0  0  0  0  0999 V2000
    1.9486    3.3750    0.0000 C   0  0  0  0  0  0  0  0  0  0  0  0
   -5.8457    3.3750    0.0000 C   0  0  0  0  0  0  0  0  0  0  0  0
    0.6495    4.1250    0.0000 C   0  0  0  0  0  0  0  0  0  0  0  0
   -4.5466    4.1250    0.0000 C   0  0  0  0  0  0  0  0  0  0  0  0
   -1.9486    5.6250    0.0000 O   0  0  0  0  0  0  0  0  0  0  0  0
   -0.6495    3.3750    0.0000 O   0  0  0  0  0  0  0  0  0  0  0  0
   -3.2476    3.3750    0.0000 O   0  0  0  0  0  0  0  0  0  0  0  0
   -1.9486    4.1250    0.0000 P   0  0  0  0  0  0  0  0  0  0  0  0
  3  1  1  0
  4  2  1  0
  6  3  1  0
  7  4  1  0
  8  5  2  0
  8  6  1  0
  8  7  1  0
M  END
>  <NAME>  (2329) 
DIETHYLPHOSPHITE

>  <SYNONYMS>  (2329) 
PHOSPHONIC ACID DIETHYL ESTER

>  <SPECTRUM TYPE>  (2329) 
MS1

>  <INSTRUMENT TYPE>  (2329) 
EI-B

>  <INSTRUMENT>  (2329) 
HITACHI RMU-7M

>  <ION MODE>  (2329) 
P

>  <INCHIKEY>  (2329) 
MJUJXFBTEFXVKU-UHFFFAOYSA-N

>  <FORMULA>  (2329) 
C4H11O3P

>  <EXACT MASS>  (2329) 
138.044580842

>  <MW>  (2329) 
138

>  <ID>  (2329) 
JP008888

>  <CONTRIBUTOR>  (2329) 
University of Tokyo Team, {Faculty of Engineering, University of Tokyo

>  <COMMENT>  (2329) 
SMILES=CCOP(=O)OCC
InChI=InChI=1S/C4H11O3P/c1-3-6-8(5)7-4-2/h8H,3-4H2,1-2H3
computed SMILES=O=P(OCC)OCC
accession=JP008888
date=2016.01.19 (Created 2008.10.21, modified 2011.05.06)
author=TAJIMA S, GUNMA COLLEGE OF TECHNOLOGY
license=CC BY-NC-SA
exact mass=138.04458
ionization energy=70 eV
ion type=[M]+*
computed spectral entropy=2.8531474972766886
computed normalized entropy=0.8388656044073407
SPLASH=splash10-02e9-9100000000-989d0651b62e458f81dc
submitter=submitter = University of Tokyo Team (Faculty of Engineering, University of Tokyo)
MoNA Rating=3.75

>  <NUM PEAKS>  (2329) 
30

>  <MASS SPECTRAL PEAKS>  (2329) 
15 15.89
19 2.86
26 10.17
27 43.87
28 29.24
29 52.77
30 3.37
31 16.59
42 2.8
43 12.08
44 2.23
45 32.99
47 20.22
65 79.47
66 26.19
67 2.54
81 9.09
82 14.49
83 99.99
91 1.84
92 9.54
93 26.64
94 12.91
95 9.85
109 11.38
110 8.46
111 83.6
123 4.39
137 1.27
139 2.29

$$$$

     RDKit          2D

 10 10  0  0  0  0  0  0  0  0999 V2000
    1.8487   -2.7991    0.0000 C   0  0  0  0  0  0  0  0  0  0  0  0
    3.8978   -2.2504    0.0000 C   0  0  0  0  0  0  0  0  0  0  0  0
    3.3491   -0.2013    0.0000 C   0  0  0  0  0  0  0  0  0  0  0  0
   -1.3000    0.7500    0.0000 C   0  0  0  0  0  0  0  0  0  0  0  0
    0.0000    1.5000    0.0000 C   0  0  0  0  0  0  0  0  0  0  0  0
   -1.3000   -0.7500    0.0000 C   0  0  0  0  0  0  0  0  0  0  0  0
    1.3000    0.7500    0.0000 C   0  0  0  0  0  0  0  0  0  0  0  0
    0.0000   -1.5000    0.0000 C   0  0  0  0  0  0  0  0  0  0  0  0
    1.3000   -0.7500    0.0000 C   0  0  0  0  0  0  0  0  0  0  0  0
    2.5989   -1.5002    0.0000 Si  0  0  0  0  0  4  0  0  0  0  0  0
  5  4  2  0
  6  4  1  0
  7  5  1  0
  8  6  2  0
  9  7  2  0
  9  8  1  0
 10  1  1  0
 10  2  1  0
 10  3  1  0
 10  9  1  0
M  END
>  <NAME>  (2330) 
TRIMETHYLPHENYLSILANE

>  <SYNONYMS>  (2330) 


>  <SPECTRUM TYPE>  (2330) 
MS1

>  <INSTRUMENT TYPE>  (2330) 
EI-B

>  <INSTRUMENT>  (2330) 
HITACHI RMU-7M

>  <ION MODE>  (2330) 
P

>  <INCHIKEY>  (2330) 
KXFSUVJPEQYUGN-UHFFFAOYSA-N

>  <FORMULA>  (2330) 
C9H14Si

>  <EXACT MASS>  (2330) 
150.086476978

>  <MW>  (2330) 
150

>  <ID>  (2330) 
JP008887

>  <CONTRIBUTOR>  (2330) 
University of Tokyo Team, {Faculty of Engineering, University of Tokyo

>  <COMMENT>  (2330) 
SMILES=c(c1)ccc(c1)[Si](C)(C)C
InChI=InChI=1S/C9H14Si/c1-10(2,3)9-7-5-4-6-8-9/h4-8H,1-3H3
computed SMILES=C=1C=CC(=CC1)[Si](C)(C)C
accession=JP008887
date=2016.01.19 (Created 2008.10.21, modified 2011.05.06)
author=TAJIMA S, GUNMA COLLEGE OF TECHNOLOGY
license=CC BY-NC-SA
exact mass=150.08648
ionization energy=70 eV
ion type=[M]+*
computed spectral entropy=2.5420381314890705
computed normalized entropy=0.7149899496546492
SPLASH=splash10-000i-5900000000-5ebbdad87cc2c0dcc693
submitter=submitter = University of Tokyo Team (Faculty of Engineering, University of Tokyo)
MoNA Rating=3.75

>  <NUM PEAKS>  (2330) 
35

>  <MASS SPECTRAL PEAKS>  (2330) 
15 3.26
27 2.76
28 1.29
29 2.46
39 2.64
43 14
44 1.54
45 3.62
50 3.62
51 8.11
53 6.39
55 2.4
58 2.46
65 2.15
66 1.23
67 2.27
67.5 1.23
73 2.52
74 1.35
77 5.22
78 1.6
79 2.46
91 4.67
92 2.21
93 2.95
105 7.99
107 4.55
109 1.17
121 3.01
123 1.78
135 99.99
136 13.82
137 4.24
150 11.43
151 1.66

$$$$

     RDKit          2D

 10 10  0  0  0  0  0  0  0  0999 V2000
   -1.3000    0.7500    0.0000 C   0  0  0  0  0  0  0  0  0  0  0  0
    0.0000    1.5000    0.0000 C   0  0  0  0  0  0  0  0  0  0  0  0
   -1.3000   -0.7500    0.0000 C   0  0  0  0  0  0  0  0  0  0  0  0
    1.3000    0.7500    0.0000 C   0  0  0  0  0  0  0  0  0  0  0  0
    0.0000   -1.5000    0.0000 C   0  0  0  0  0  0  0  0  0  0  0  0
    1.3000   -0.7500    0.0000 C   0  0  0  0  0  0  0  0  0  0  0  0
    1.8487   -2.7991    0.0000 Cl  0  0  0  0  0  0  0  0  0  0  0  0
    3.8978   -2.2504    0.0000 Cl  0  0  0  0  0  0  0  0  0  0  0  0
    3.3491   -0.2013    0.0000 Cl  0  0  0  0  0  0  0  0  0  0  0  0
    2.5989   -1.5002    0.0000 Si  0  0  0  0  0  4  0  0  0  0  0  0
  2  1  2  0
  3  1  1  0
  4  2  1  0
  5  3  2  0
  6  4  2  0
  6  5  1  0
 10  6  1  0
 10  7  1  0
 10  8  1  0
 10  9  1  0
M  END
>  <NAME>  (2331) 
TRICHLOROPHENYLSILANE

>  <SYNONYMS>  (2331) 


>  <SPECTRUM TYPE>  (2331) 
MS1

>  <INSTRUMENT TYPE>  (2331) 
EI-B

>  <INSTRUMENT>  (2331) 
HITACHI RMU-7M

>  <ION MODE>  (2331) 
P

>  <INCHIKEY>  (2331) 
ORVMIVQULIKXCP-UHFFFAOYSA-N

>  <FORMULA>  (2331) 
C6H5Cl3Si

>  <EXACT MASS>  (2331) 
209.92260972999998

>  <MW>  (2331) 
210

>  <ID>  (2331) 
JP008886

>  <CONTRIBUTOR>  (2331) 
University of Tokyo Team, {Faculty of Engineering, University of Tokyo

>  <COMMENT>  (2331) 
SMILES=c(c1)ccc(c1)[Si](Cl)(Cl)Cl
InChI=InChI=1S/C6H5Cl3Si/c7-10(8,9)6-4-2-1-3-5-6/h1-5H
computed SMILES=Cl[Si](Cl)(Cl)C=1C=CC=CC1
accession=JP008886
date=2016.01.19 (Created 2008.10.21, modified 2011.05.06)
author=TAJIMA S, GUNMA COLLEGE OF TECHNOLOGY
license=CC BY-NC-SA
exact mass=209.92261
ionization energy=70 eV
ion type=[M]+*
computed spectral entropy=3.2318714903043952
computed normalized entropy=0.8304267008097422
SPLASH=splash10-03fr-7960000000-9a4d07f466170df12ca2
submitter=submitter = University of Tokyo Team (Faculty of Engineering, University of Tokyo)
MoNA Rating=3.75

>  <NUM PEAKS>  (2331) 
49

>  <MASS SPECTRAL PEAKS>  (2331) 
26 2.21
27 5.67
28 1.29
35 2.01
36 4.22
37 2.77
38 4.7
39 6.85
49 2.49
50 35.89
51 62.24
52 5.26
53 5.74
63 32.78
65 12.1
73 2.7
74 11.41
75 8.64
76 13.14
77 49.65
78 5.46
91 4.36
98 5.53
100 3.87
112 17.29
114 5.88
123 5.46
125 3.46
133 24.2
135 24.34
137 8.51
139 4.22
142 5.33
144 3.46
147 2.77
149 2.49
174 11.13
175 99.99
176 18.67
177 67.29
178 9.34
179 12.59
210 85.13
211 10.37
212 84.37
213 9.75
214 29.46
215 3.46
216 3.6

$$$$

     RDKit          2D

 17 18  0  0  0  0  0  0  0  0999 V2000
    5.1970   -1.5006    0.0000 C   0  0  0  0  0  0  0  0  0  0  0  0
    5.0402   -2.3892    0.0000 C   0  0  0  0  0  0  0  0  0  0  0  0
   -1.3000    0.7500    0.0000 C   0  0  0  0  0  0  0  0  0  0  0  0
   -0.2941   -4.9491    0.0000 C   0  0  0  0  0  0  0  0  0  0  0  0
    0.0000    1.5000    0.0000 C   0  0  0  0  0  0  0  0  0  0  0  0
   -1.3000   -0.7500    0.0000 C   0  0  0  0  0  0  0  0  0  0  0  0
   -0.8070   -3.5387    0.0000 C   0  0  0  0  0  0  0  0  0  0  0  0
    1.1831   -5.2096    0.0000 C   0  0  0  0  0  0  0  0  0  0  0  0
    1.3000    0.7500    0.0000 C   0  0  0  0  0  0  0  0  0  0  0  0
    0.0000   -1.5000    0.0000 C   0  0  0  0  0  0  0  0  0  0  0  0
    0.1573   -2.3886    0.0000 C   0  0  0  0  0  0  0  0  0  0  0  0
    2.1474   -4.0596    0.0000 C   0  0  0  0  0  0  0  0  0  0  0  0
    1.3000   -0.7500    0.0000 C   0  0  0  0  0  0  0  0  0  0  0  0
    1.6346   -2.6491    0.0000 C   0  0  0  0  0  0  0  0  0  0  0  0
    3.8981   -0.7504    0.0000 O   0  0  0  0  0  0  0  0  0  0  0  0
    3.5629   -2.6494    0.0000 O   0  0  0  0  0  0  0  0  0  0  0  0
    2.5989   -1.5002    0.0000 Si  0  0  0  0  0  4  0  0  0  0  0  0
  5  3  2  0
  6  3  1  0
  7  4  2  0
  8  4  1  0
  9  5  1  0
 10  6  2  0
 11  7  1  0
 12  8  2  0
 13  9  2  0
 13 10  1  0
 14 11  2  0
 14 12  1  0
 15  1  1  0
 16  2  1  0
 17 13  1  0
 17 14  1  0
 17 15  1  0
 17 16  1  0
M  END
>  <NAME>  (2332) 
DIMETHOXYDIPHENYLSILANE

>  <SYNONYMS>  (2332) 


>  <SPECTRUM TYPE>  (2332) 
MS1

>  <INSTRUMENT TYPE>  (2332) 
EI-B

>  <INSTRUMENT>  (2332) 
HITACHI RMU-7M

>  <ION MODE>  (2332) 
P

>  <INCHIKEY>  (2332) 
AHUXYBVKTIBBJW-UHFFFAOYSA-N

>  <FORMULA>  (2332) 
C14H16O2Si

>  <EXACT MASS>  (2332) 
244.091956282

>  <MW>  (2332) 
244

>  <ID>  (2332) 
JP008885

>  <CONTRIBUTOR>  (2332) 
University of Tokyo Team, {Faculty of Engineering, University of Tokyo

>  <COMMENT>  (2332) 
SMILES=CO[Si](OC)(c(c2)cccc2)c(c1)cccc1
InChI=InChI=1S/C14H16O2Si/c1-15-17(16-2,13-9-5-3-6-10-13)14-11-7-4-8-12-14/h3-12H,1-2H3
computed SMILES=O(C)[Si](OC)(C=1C=CC=CC1)C=2C=CC=CC2
accession=JP008885
date=2016.01.19 (Created 2008.10.21, modified 2011.05.06)
author=TAJIMA S, GUNMA COLLEGE OF TECHNOLOGY
license=CC BY-NC-SA
exact mass=244.09196
ionization energy=70 eV
ion type=[M]+*
computed spectral entropy=3.075735559618103
computed normalized entropy=0.8033490842048004
SPLASH=splash10-014i-3910000000-58934656335e8b1a8d1d
submitter=submitter = University of Tokyo Team (Faculty of Engineering, University of Tokyo)
MoNA Rating=3.75

>  <NUM PEAKS>  (2332) 
46

>  <MASS SPECTRAL PEAKS>  (2332) 
15 3.27
29 3.5
31 2.28
39 1.99
45 2.63
50 4.67
51 14.31
52 1.34
53 1.75
59 18.05
60 1.99
75 1.52
76 1.52
77 12.97
78 6.13
79 1.75
90 1.81
91 16.36
92 1.87
105 7.59
106 1.75
107 21.2
108 2.45
127 2.57
136 6.43
137 26.4
138 3.62
139 1.52
152 3.04
153 5.55
154 27.45
155 4.85
165 2.75
166 31.07
167 99.99
168 14.6
169 4.79
181 4.61
183 4.67
206 2.63
208 2.45
211 2.04
213 4.67
244 39.25
245 7.89
246 2.34

$$$$

     RDKit          2D

 11 12  0  0  0  0  0  0  0  0999 V2000
   -2.6000   -0.7500    0.0000 C   0  0  0  0  0  0  0  0  0  0  0  0
   -2.6000    0.7500    0.0000 C   0  0  0  0  0  0  0  0  0  0  0  0
    2.6000   -0.7500    0.0000 C   0  0  0  0  0  0  0  0  0  0  0  0
   -1.3000   -1.5000    0.0000 C   0  0  0  0  0  0  0  0  0  0  0  0
    1.3000   -1.5000    0.0000 C   0  0  0  0  0  0  0  0  0  0  0  0
   -1.3000    1.5000    0.0000 C   0  0  0  0  0  0  0  0  0  0  0  0
    2.6000    0.7500    0.0000 C   0  0  0  0  0  0  0  0  0  0  0  0
    0.0000   -0.7500    0.0000 C   0  0  0  0  0  0  0  0  0  0  0  0
    0.0000    0.7500    0.0000 C   0  0  0  0  0  0  0  0  0  0  0  0
    1.3000    1.5000    0.0000 C   0  0  0  0  0  0  0  0  0  0  0  0
    1.3000    3.0000    0.0000 Br  0  0  0  0  0  0  0  0  0  0  0  0
  2  1  2  0
  4  1  1  0
  5  3  2  0
  6  2  1  0
  7  3  1  0
  8  4  2  0
  8  5  1  0
  9  6  2  0
  9  8  1  0
 10  7  2  0
 10  9  1  0
 11 10  1  0
M  END
>  <NAME>  (2333) 
1-BROMONAPHTHALENE

>  <SYNONYMS>  (2333) 


>  <SPECTRUM TYPE>  (2333) 
MS1

>  <INSTRUMENT TYPE>  (2333) 
EI-B

>  <INSTRUMENT>  (2333) 
HITACHI RMU-7M

>  <ION MODE>  (2333) 
P

>  <INCHIKEY>  (2333) 
DLKQHBOKULLWDQ-UHFFFAOYSA-N

>  <FORMULA>  (2333) 
C10H7Br

>  <EXACT MASS>  (2333) 
205.973112324

>  <MW>  (2333) 
206

>  <ID>  (2333) 
JP008884

>  <CONTRIBUTOR>  (2333) 
University of Tokyo Team, {Faculty of Engineering, University of Tokyo

>  <COMMENT>  (2333) 
SMILES=c(c2)cc(c1)c(c2)c(Br)cc1
InChI=InChI=1S/C10H7Br/c11-10-7-3-5-8-4-1-2-6-9(8)10/h1-7H
computed SMILES=BrC1=CC=CC=2C=CC=CC12
accession=JP008884
date=2016.01.19 (Created 2008.10.21, modified 2011.05.06)
author=TAJIMA S, GUNMA COLLEGE OF TECHNOLOGY
license=CC BY-NC-SA
exact mass=205.97311
ionization energy=70 eV
ion type=[M]+*
computed spectral entropy=3.0327918654796746
computed normalized entropy=0.8063362150887391
SPLASH=splash10-0a6r-9670000000-be4fa1fac9eb01e938d9
submitter=submitter = University of Tokyo Team (Faculty of Engineering, University of Tokyo)
MoNA Rating=3.75

>  <NUM PEAKS>  (2333) 
43

>  <MASS SPECTRAL PEAKS>  (2333) 
26 3.88
27 4.79
37 4.3
38 7.82
39 10.01
43 1.41
49 2.68
50 20.16
51 14.73
52 2.26
61 7.96
62 14.38
63 19.03
63.5 4.58
64 2.11
73 3.88
74 26.07
75 20.08
76 9.51
77 15.43
79 2.04
81 2.11
85 3.88
86 7.47
87 12.68
88 2.26
97 1.83
98 10.22
99 7.75
100 5.71
101 11.84
102 1.41
103 5
104 5.07
122 1.76
125 2.82
126 31.22
127 99.99
128 11.98
206 94.36
207 10.5
208 92.18
209 9.94

$$$$

     RDKit          2D

 10  9  0  0  0  0  0  0  0  0999 V2000
    2.5981    3.7500    0.0000 C   0  0  0  0  0  0  0  0  0  0  0  0
    1.2990    4.5000    0.0000 C   0  0  0  0  0  0  0  0  0  0  0  0
   -2.5981    3.7500    0.0000 C   0  0  0  0  0  0  0  0  0  0  0  0
   -5.1962    3.7500    0.0000 C   0  0  0  0  0  0  0  0  0  0  0  0
   -3.8971    4.5000    0.0000 C   0  0  0  0  0  0  0  0  0  0  0  0
   -1.2990    4.5000    0.0000 C   0  0  0  0  0  0  0  0  0  0  0  0
   -6.4952    4.5000    0.0000 Cl  0  0  0  0  0  0  0  0  0  0  0  0
   -3.8971    6.0000    0.0000 O   0  0  0  0  0  0  0  0  0  0  0  0
   -1.2990    6.0000    0.0000 O   0  0  0  0  0  0  0  0  0  0  0  0
    0.0000    3.7500    0.0000 O   0  0  0  0  0  0  0  0  0  0  0  0
  2  1  1  0
  5  3  1  0
  5  4  1  0
  6  3  1  0
  7  4  1  0
  8  5  2  0
  9  6  2  0
 10  2  1  0
 10  6  1  0
M  END
>  <NAME>  (2334) 
4-CHLOROACETOACETIC ACID ETHYL ESTER

>  <SYNONYMS>  (2334) 
ETHYL 4-CHLOROACETOACETATE

>  <SPECTRUM TYPE>  (2334) 
MS1

>  <INSTRUMENT TYPE>  (2334) 
EI-B

>  <INSTRUMENT>  (2334) 
HITACHI RMU-7M

>  <ION MODE>  (2334) 
P

>  <INCHIKEY>  (2334) 
OHLRLMWUFVDREV-UHFFFAOYSA-N

>  <FORMULA>  (2334) 
C6H9ClO3

>  <EXACT MASS>  (2334) 
164.02402182799997

>  <MW>  (2334) 
164

>  <ID>  (2334) 
JP008883

>  <CONTRIBUTOR>  (2334) 
University of Tokyo Team, {Faculty of Engineering, University of Tokyo

>  <COMMENT>  (2334) 
SMILES=CCOC(=O)CC(=O)CCl
InChI=InChI=1S/C6H9ClO3/c1-2-10-6(9)3-5(8)4-7/h2-4H2,1H3
computed SMILES=O=C(OCC)CC(=O)CCl
accession=JP008883
date=2016.01.19 (Created 2008.10.21, modified 2011.05.06)
author=TAJIMA S, GUNMA COLLEGE OF TECHNOLOGY
license=CC BY-NC-SA
exact mass=164.02402
ionization energy=70 eV
ion type=[M]+*
computed spectral entropy=3.0940623014223823
computed normalized entropy=0.8278051881009801
SPLASH=splash10-00ou-9100000000-1656628067e06103cf34
submitter=submitter = University of Tokyo Team (Faculty of Engineering, University of Tokyo)
MoNA Rating=3.75

>  <NUM PEAKS>  (2334) 
42

>  <MASS SPECTRAL PEAKS>  (2334) 
14 6.75
15 10.17
25 3.42
26 15.25
27 55.17
28 10.42
29 99.99
30 3.75
31 39.83
37 3.33
38 3.42
39 6.25
41 21.25
42 46.33
43 98.83
44 9.42
45 20.5
46 6.83
49 26.08
51 8.33
53 2.33
55 6.17
60 2.58
69 75.42
70 4.58
73 3
76 2.67
77 26.17
79 8.33
83 2.75
87 10.67
92 4.08
94 1.5
111 8.33
115 66
116 4.25
118 13.67
119 24.33
120 5.92
121 8.17
164 5.83
166 2.33

$$$$

     RDKit          2D

  8  8  0  0  0  0  0  0  0  0999 V2000
    1.9458   -1.5018    0.0000 C   0  0  0  0  0  0  0  0  0  0  0  0
    0.6513   -2.2440    0.0000 C   0  0  0  0  0  0  0  0  0  0  0  0
    1.9463   -0.0009    0.0000 C   0  0  0  0  0  0  0  0  0  0  0  0
   -0.6478   -1.4940    0.0000 C   0  0  0  0  0  0  0  0  0  0  0  0
    0.6472    0.7491    0.0000 C   0  0  0  0  0  0  0  0  0  0  0  0
   -0.6523   -0.0018    0.0000 C   0  0  0  0  0  0  0  0  0  0  0  0
    0.6470    2.2491    0.0000 N   0  0  0  0  0  0  0  0  0  0  0  0
   -1.9526    0.7460    0.0000 S   0  0  0  0  0  0  0  0  0  0  0  0
  2  1  2  0
  3  1  1  0
  4  2  1  0
  5  3  2  0
  6  4  2  0
  6  5  1  0
  7  5  1  0
  8  6  1  0
M  END
>  <NAME>  (2335) 
ORTHO-AMINOTHIOPHENOL

>  <SYNONYMS>  (2335) 
2-MERCAPTOANILINE

>  <SPECTRUM TYPE>  (2335) 
MS1

>  <INSTRUMENT TYPE>  (2335) 
EI-B

>  <INSTRUMENT>  (2335) 
HITACHI RMU-7M

>  <ION MODE>  (2335) 
P

>  <INCHIKEY>  (2335) 
VRVRGVPWCUEOGV-UHFFFAOYSA-N

>  <FORMULA>  (2335) 
C6H7NS

>  <EXACT MASS>  (2335) 
125.029920224

>  <MW>  (2335) 
125

>  <ID>  (2335) 
JP008882

>  <CONTRIBUTOR>  (2335) 
University of Tokyo Team, {Faculty of Engineering, University of Tokyo

>  <COMMENT>  (2335) 
SMILES=Nc(c1)c(S)ccc1
InChI=InChI=1S/C6H7NS/c7-5-3-1-2-4-6(5)8/h1-4,8H,7H2
computed SMILES=SC=1C=CC=CC1N
accession=JP008882
date=2016.01.19 (Created 2008.10.21, modified 2011.05.06)
author=TAJIMA S, GUNMA COLLEGE OF TECHNOLOGY
license=CC BY-NC-SA
exact mass=125.02992
ionization energy=70 eV
ion type=[M]+*
computed spectral entropy=3.406325758376878
computed normalized entropy=0.8752525804006308
SPLASH=splash10-0059-9300000000-543f4389ce662bdf4484
submitter=submitter = University of Tokyo Team (Faculty of Engineering, University of Tokyo)
MoNA Rating=3.75

>  <NUM PEAKS>  (2335) 
49

>  <MASS SPECTRAL PEAKS>  (2335) 
27 5.79
28 5.17
29 2.67
37 5.88
38 10.87
39 24.96
40 4.37
41 9.63
42 4.1
43 3.12
44 3.39
45 19.43
50 7.22
51 10.7
52 14.53
53 20.68
54 6.24
57 5.88
58 4.63
60 4.01
61 3.57
61.5 2.67
62 5.88
62.5 4.28
63 13.28
64 6.95
65 16.93
66 8.47
67 2.94
69 15.15
70 8.2
71 3.92
80 41.8
81 21.21
82 4.37
91 3.74
92 4.55
93 26.74
94 4.46
95 3.12
96 3.48
97 16.49
98 9.89
99 3.65
108 4.1
124 20.23
125 99.99
126 10.7
127 4.99

$$$$

     RDKit          2D

  7  7  0  0  0  0  0  0  0  0999 V2000
   -1.3000    0.7500    0.0000 C   0  0  0  0  0  0  0  0  0  0  0  0
    0.0000    1.5000    0.0000 C   0  0  0  0  0  0  0  0  0  0  0  0
   -1.3000   -0.7500    0.0000 C   0  0  0  0  0  0  0  0  0  0  0  0
    1.3000    0.7500    0.0000 C   0  0  0  0  0  0  0  0  0  0  0  0
    0.0000   -1.5000    0.0000 C   0  0  0  0  0  0  0  0  0  0  0  0
    1.3000   -0.7500    0.0000 C   0  0  0  0  0  0  0  0  0  0  0  0
    2.5989   -1.5002    0.0000 Si  0  0  0  0  0  4  0  0  0  0  0  0
  2  1  2  0
  3  1  1  0
  4  2  1  0
  5  3  2  0
  6  4  2  0
  6  5  1  0
  7  6  1  0
M  END
>  <NAME>  (2336) 
PHENYLSILANE

>  <SYNONYMS>  (2336) 


>  <SPECTRUM TYPE>  (2336) 
MS1

>  <INSTRUMENT TYPE>  (2336) 
EI-B

>  <INSTRUMENT>  (2336) 
HITACHI RMU-7M

>  <ION MODE>  (2336) 
P

>  <INCHIKEY>  (2336) 
PARWUHTVGZSQPD-UHFFFAOYSA-N

>  <FORMULA>  (2336) 
C6H8Si

>  <EXACT MASS>  (2336) 
108.039526786

>  <MW>  (2336) 
108

>  <ID>  (2336) 
JP008881

>  <CONTRIBUTOR>  (2336) 
University of Tokyo Team, {Faculty of Engineering, University of Tokyo

>  <COMMENT>  (2336) 
SMILES=[SiH3]c(c1)cccc1
InChI=InChI=1S/C6H8Si/c7-6-4-2-1-3-5-6/h1-5H,7H3
computed SMILES=C=1C=CC(=CC1)[SiH3]
accession=JP008881
date=2016.01.19 (Created 2008.10.21, modified 2011.05.06)
author=TAJIMA S, GUNMA COLLEGE OF TECHNOLOGY
license=CC BY-NC-SA
exact mass=108.03953
ionization energy=70 eV
ion type=[M]+*
computed spectral entropy=3.1399974548088236
computed normalized entropy=0.8026531159075254
SPLASH=splash10-0a4i-9600000000-81530d0f38e34c21583d
submitter=submitter = University of Tokyo Team (Faculty of Engineering, University of Tokyo)
MoNA Rating=3.75

>  <NUM PEAKS>  (2336) 
50

>  <MASS SPECTRAL PEAKS>  (2336) 
26 2.65
27 7.16
28 7.5
29 21.31
30 5.57
31 9.17
37 2.65
38 3.45
39 11.56
41 2.12
42 2.6
43 3.82
45 2.81
46 1.33
49 2.6
50 23.28
51 38.76
52 12.14
53 99.99
53.5 2.27
54 23.59
55 29.96
56 3.18
57 1.59
63 1.33
65 5.78
66 10.13
67 10.07
68 1.54
73 1.59
74 5.36
75 2.6
76 3.55
77 32.29
78 24.97
79 26.09
80 9.12
81 18.35
82 7.32
83 1.38
93 6.63
101 2.39
103 6.36
104 2.39
105 67.6
106 93.32
107 95.97
108 94.43
109 12.78
110 3.61

$$$$

     RDKit          2D

  8  8  0  0  1  0  0  0  0  0999 V2000
    0.6513   -2.2440    0.0000 C   0  0  0  0  0  0  0  0  0  0  0  0
    1.9458   -1.5018    0.0000 C   0  0  0  0  0  0  0  0  0  0  0  0
   -0.6478   -1.4940    0.0000 C   0  0  0  0  0  0  0  0  0  0  0  0
    1.9463   -0.0009    0.0000 C   0  0  0  0  0  0  0  0  0  0  0  0
   -0.6523   -0.0018    0.0000 C   0  0  0  0  0  0  0  0  0  0  0  0
    0.6472    0.7491    0.0000 C   0  0  0  0  0  0  0  0  0  0  0  0
   -1.9526    0.7460    0.0000 O   0  0  0  0  0  0  0  0  0  0  0  0
    0.6470    2.2491    0.0000 O   0  0  0  0  0  0  0  0  0  0  0  0
  2  1  1  0
  3  1  1  0
  4  2  1  0
  5  3  1  0
  6  4  1  0
  6  5  1  0
  5  7  1  1
  6  8  1  6
M  END
>  <NAME>  (2337) 
TRANS-1,2-CYCLOHEXANEDIOL

>  <SYNONYMS>  (2337) 


>  <SPECTRUM TYPE>  (2337) 
MS1

>  <INSTRUMENT TYPE>  (2337) 
EI-B

>  <INSTRUMENT>  (2337) 
HITACHI RMU-7M

>  <ION MODE>  (2337) 
P

>  <INCHIKEY>  (2337) 
PFURGBBHAOXLIO-PHDIDXHHSA-N

>  <FORMULA>  (2337) 
C6H12O2

>  <EXACT MASS>  (2337) 
116.083729624

>  <MW>  (2337) 
116

>  <ID>  (2337) 
JP008880

>  <CONTRIBUTOR>  (2337) 
University of Tokyo Team, {Faculty of Engineering, University of Tokyo

>  <COMMENT>  (2337) 
SMILES=OC(C1)C(O)CCC1
InChI=InChI=1S/C6H12O2/c7-5-3-1-2-4-6(5)8/h5-8H,1-4H2/t5-,6-/m1/s1
computed SMILES=OC1CCCCC1O
accession=JP008880
date=2016.01.19 (Created 2008.10.21, modified 2011.05.06)
author=TAJIMA S, GUNMA COLLEGE OF TECHNOLOGY
license=CC BY-NC-SA
exact mass=116.08373
ionization energy=70 eV
ion type=[M]+*
computed spectral entropy=3.17048909761603
computed normalized entropy=0.8654116960104873
SPLASH=splash10-05i3-9000000000-fb5f696297452fa045c1
submitter=submitter = University of Tokyo Team (Faculty of Engineering, University of Tokyo)
MoNA Rating=3.75

>  <NUM PEAKS>  (2337) 
39

>  <MASS SPECTRAL PEAKS>  (2337) 
14 1.99
15 7.69
19 2.95
26 5.96
27 40.42
28 13.13
29 41.83
30 5.25
31 22.36
38 3.59
39 33.57
40 5.57
41 36.58
42 24.92
43 29.79
44 29.21
45 5.96
50 2.31
51 3.52
53 5.38
54 6.6
55 21.01
56 8.97
57 56.89
58 3.97
60 3.59
67 5.7
68 3.72
69 22.17
70 99.99
71 6.66
79 3.84
80 9.03
81 4.61
83 33.18
97 7.05
98 30.62
99 4.16
116 8.33

$$$$

     RDKit          2D

  4  3  0  0  0  0  0  0  0  0999 V2000
   -2.5981    2.2500    0.0000 C   0  0  0  0  0  0  0  0  0  0  0  0
   -1.2990    1.5000    0.0000 C   0  0  0  0  0  0  0  0  0  0  0  0
    0.0000    2.2500    0.0000 C   0  0  0  0  0  0  0  0  0  0  0  0
    1.2990    1.5000    0.0000 Br  0  0  0  0  0  0  0  0  0  0  0  0
  2  1  2  0
  3  2  1  0
  4  3  1  0
M  END
>  <NAME>  (2338) 
3-BROMOPROPENE

>  <SYNONYMS>  (2338) 
ALLYL BROMIDE

>  <SPECTRUM TYPE>  (2338) 
MS1

>  <INSTRUMENT TYPE>  (2338) 
EI-B

>  <INSTRUMENT>  (2338) 
HITACHI RMU-7M

>  <ION MODE>  (2338) 
P

>  <INCHIKEY>  (2338) 
BHELZAPQIKSEDF-UHFFFAOYSA-N

>  <FORMULA>  (2338) 
C3H5Br

>  <EXACT MASS>  (2338) 
119.95746226

>  <MW>  (2338) 
120

>  <ID>  (2338) 
JP008879

>  <CONTRIBUTOR>  (2338) 
University of Tokyo Team, {Faculty of Engineering, University of Tokyo

>  <COMMENT>  (2338) 
SMILES=C=CCBr
InChI=InChI=1S/C3H5Br/c1-2-3-4/h2H,1,3H2
computed SMILES=BrCC=C
accession=JP008879
date=2016.01.19 (Created 2008.10.21, modified 2011.05.06)
author=TAJIMA S, GUNMA COLLEGE OF TECHNOLOGY
license=CC BY-NC-SA
exact mass=119.95746
ionization energy=70 eV
ion type=[M]+*
computed spectral entropy=2.095485803209536
computed normalized entropy=0.6683111684798866
SPLASH=splash10-000f-9000000000-2b5f82cc0bbf5d1d2aac
submitter=submitter = University of Tokyo Team (Faculty of Engineering, University of Tokyo)
MoNA Rating=3.75

>  <NUM PEAKS>  (2338) 
23

>  <MASS SPECTRAL PEAKS>  (2338) 
14 2.76
15 4.48
25 1.72
26 5.95
27 6.98
28 6.47
29 1.81
36 1.47
37 8.53
38 13.88
39 71.55
40 7.41
41 99.99
42 3.53
43 2.33
55 1.64
57 1.47
79 3.1
81 3.02
93 1.12
95 1.03
120 9.4
122 8.97

$$$$

     RDKit          2D

  6  5  0  0  0  0  0  0  0  0999 V2000
   -0.0000   -0.0000    0.0000 C   0  0  0  0  0  0  0  0  0  0  0  0
   -1.2990    3.7500    0.0000 C   0  0  0  0  0  0  0  0  0  0  0  0
   -0.0000    1.5000    0.0000 C   0  0  0  0  0  0  0  0  0  0  0  0
   -1.2990    2.2500    0.0000 C   0  0  0  0  0  0  0  0  0  0  0  0
    1.2990    2.2500    0.0000 O   0  0  0  0  0  0  0  0  0  0  0  0
   -2.5981    1.5000    0.0000 O   0  0  0  0  0  0  0  0  0  0  0  0
  3  1  1  0
  4  2  1  0
  4  3  1  0
  5  3  2  0
  6  4  2  0
M  END
>  <NAME>  (2339) 
2,3-BUTANEDIONE

>  <SYNONYMS>  (2339) 
DIACETYL

>  <SPECTRUM TYPE>  (2339) 
MS1

>  <INSTRUMENT TYPE>  (2339) 
EI-B

>  <INSTRUMENT>  (2339) 
HITACHI RMU-7M

>  <ION MODE>  (2339) 
P

>  <INCHIKEY>  (2339) 
QSJXEFYPDANLFS-UHFFFAOYSA-N

>  <FORMULA>  (2339) 
C4H6O2

>  <EXACT MASS>  (2339) 
86.036779432

>  <MW>  (2339) 
86

>  <ID>  (2339) 
JP008878

>  <CONTRIBUTOR>  (2339) 
University of Tokyo Team, {Faculty of Engineering, University of Tokyo

>  <COMMENT>  (2339) 
SMILES=CC(=O)C(C)=O
InChI=InChI=1S/C4H6O2/c1-3(5)4(2)6/h1-2H3
computed SMILES=O=C(C(=O)C)C
accession=JP008878
date=2016.01.19 (Created 2008.10.21, modified 2011.05.06)
author=TAJIMA S, GUNMA COLLEGE OF TECHNOLOGY
license=CC BY-NC-SA
exact mass=86.03678
ionization energy=70 eV
ion type=[M]+*
computed spectral entropy=1.6980822933340816
computed normalized entropy=0.5993485442585818
SPLASH=splash10-0006-9000000000-622030119adee3079d84
submitter=submitter = University of Tokyo Team (Faculty of Engineering, University of Tokyo)
MoNA Rating=3.75

>  <NUM PEAKS>  (2339) 
17

>  <MASS SPECTRAL PEAKS>  (2339) 
14 3.17
15 12.69
18 2.06
26 1.59
27 1.67
28 1.19
29 1.43
39 4.84
41 19.98
42 8.88
43 99.99
44 2.38
51 1.19
53 2.22
69 2.38
86 11.02
87 1.27

$$$$

     RDKit          2D

 11 10  0  0  0  0  0  0  0  0999 V2000
    2.0490    2.5981    0.0000 C   0  0  0  0  0  0  0  0  0  0  0  0
    2.0490    4.0981    0.0000 H   0  0  0  0  0  0  0  0  0  0  0  0
    2.0490    1.0981    0.0000 H   0  0  0  0  0  0  0  0  0  0  0  0
    3.5490    2.5981    0.0000 H   0  0  0  0  0  0  0  0  0  0  0  0
   -0.2010    1.2990    0.0000 C   0  0  0  0  0  0  0  0  0  0  0  0
   -1.5000    2.0490    0.0000 H   0  0  0  0  0  0  0  0  0  0  0  0
   -0.9510    0.0000    0.0000 H   0  0  0  0  0  0  0  0  0  0  0  0
    1.0981    0.5490    0.0000 H   0  0  0  0  0  0  0  0  0  0  0  0
    0.5490    2.5981    0.0000 C   0  0  0  0  0  0  0  0  0  0  0  0
    0.8095    4.0753    0.0000 H   0  0  0  0  0  0  0  0  0  0  0  0
   -0.8605    3.1111    0.0000 Cl  0  0  0  0  0  0  0  0  0  0  0  0
  1  2  1  0
  1  3  1  0
  1  4  1  0
  5  6  1  0
  5  7  1  0
  5  8  1  0
  9 10  1  0
  9  1  1  0
  9  5  1  0
 11  9  1  0
M  ISO  7   2   2   3   2   4   2   6   2   7   2   8   2  10   2
M  END
>  <NAME>  (2340) 
2-CHLOROPROPANE (1,1,1,2,3,3,3-D7)

>  <SYNONYMS>  (2340) 
ISOPROPYLCHLORIDE (1,1,1,2,3,3,3-D7)

>  <SPECTRUM TYPE>  (2340) 
MS1

>  <INSTRUMENT TYPE>  (2340) 
EI-B

>  <INSTRUMENT>  (2340) 
HITACHI RMU-7M

>  <ION MODE>  (2340) 
P

>  <INCHIKEY>  (2340) 
ULYZAYCEDJDHCC-YYWVXINBSA-N

>  <FORMULA>  (2340) 
C3H7Cl

>  <EXACT MASS>  (2340) 
85.067565126

>  <MW>  (2340) 
85

>  <ID>  (2340) 
JP008877

>  <CONTRIBUTOR>  (2340) 
University of Tokyo Team, {Faculty of Engineering, University of Tokyo

>  <COMMENT>  (2340) 
SMILES=[2H]C([2H])([2H])C([2H])(Cl)C([2H])([2H])[2H]
InChI=InChI=1S/C3H7Cl/c1-3(2)4/h3H,1-2H3/i1D3,2D3,3D
computed SMILES=[H]C(Cl)(C([H])([H])[H])C([H])([H])[H]
accession=JP008877
date=2016.01.19 (Created 2008.10.21, modified 2011.05.06)
author=TAJIMA S, GUNMA COLLEGE OF TECHNOLOGY
license=CC BY-NC-SA
exact mass=78.02363
ionization energy=70 eV
ion type=[M]+*
computed spectral entropy=2.453065941367974
computed normalized entropy=0.7529138295139736
SPLASH=splash10-0uea-9000000000-bd5bb5da355f25d5fc8b
submitter=submitter = University of Tokyo Team (Faculty of Engineering, University of Tokyo)
MoNA Rating=3.75

>  <NUM PEAKS>  (2340) 
26

>  <MASS SPECTRAL PEAKS>  (2340) 
16 2.12
18 7.35
28 13.51
29 2.65
30 58.28
32 3.44
35 2.19
37 1.46
38 3.31
40 6.09
42 21.52
44 3.05
45 2.65
46 36.42
47 1.99
48 6.49
49 14.24
50 99.99
51 3.31
63 1.52
65 2.65
67 17.55
69 5.63
84 1.46
85 15.5
87 5.23

$$$$

     RDKit          2D

 10  9  0  0  0  0  0  0  0  0999 V2000
    0.4118    1.0613    0.0000 C   0  0  0  0  0  0  0  0  0  0  0  0
    1.1618   -0.2377    0.0000 H   0  0  0  0  0  0  0  0  0  0  0  0
   -0.3382    2.3603    0.0000 H   0  0  0  0  0  0  0  0  0  0  0  0
   -0.8873    0.3113    0.0000 H   0  0  0  0  0  0  0  0  0  0  0  0
    1.7108    3.3113    0.0000 C   0  0  0  0  0  0  0  0  0  0  0  0
    3.2108    3.3113    0.0000 H   0  0  0  0  0  0  0  0  0  0  0  0
    1.7108    4.8113    0.0000 H   0  0  0  0  0  0  0  0  0  0  0  0
    0.2108    3.3113    0.0000 H   0  0  0  0  0  0  0  0  0  0  0  0
    1.7108    1.8113    0.0000 C   0  0  0  0  0  0  0  0  0  0  0  0
    3.0099    1.0613    0.0000 O   0  0  0  0  0  0  0  0  0  0  0  0
  1  2  1  0
  1  3  1  0
  1  4  1  0
  5  6  1  0
  5  7  1  0
  5  8  1  0
  9  1  1  0
  9  5  1  0
 10  9  2  0
M  ISO  6   2   2   3   2   4   2   6   2   7   2   8   2
M  END
>  <NAME>  (2341) 
ACETONE (1,1,1,3,3,3-D6)

>  <SYNONYMS>  (2341) 


>  <SPECTRUM TYPE>  (2341) 
MS1

>  <INSTRUMENT TYPE>  (2341) 
EI-B

>  <INSTRUMENT>  (2341) 
HITACHI RMU-7M

>  <ION MODE>  (2341) 
P

>  <INCHIKEY>  (2341) 
CSCPPACGZOOCGX-WFGJKAKNSA-N

>  <FORMULA>  (2341) 
C3H6O

>  <EXACT MASS>  (2341) 
64.079525288

>  <MW>  (2341) 
64

>  <ID>  (2341) 
JP008876

>  <CONTRIBUTOR>  (2341) 
University of Tokyo Team, {Faculty of Engineering, University of Tokyo

>  <COMMENT>  (2341) 
SMILES=[2H]C([2H])([2H])C(=O)C([2H])([2H])[2H]
InChI=InChI=1S/C3H6O/c1-3(2)4/h1-2H3/i1D3,2D3
computed SMILES=[H]C([H])([H])C(=O)C([H])([H])[H]
accession=JP008876
date=2016.01.19 (Created 2008.10.21, modified 2011.05.06)
author=TAJIMA S, GUNMA COLLEGE OF TECHNOLOGY
license=CC BY-NC-SA
exact mass=58.04186
ionization energy=70 eV
ion type=[M]+*
computed spectral entropy=1.7174054454660204
computed normalized entropy=0.6341852321522751
SPLASH=splash10-0002-9000000000-ac4e03d64a5d08cb0e2d
submitter=submitter = University of Tokyo Team (Faculty of Engineering, University of Tokyo)
MoNA Rating=3.75

>  <NUM PEAKS>  (2341) 
15

>  <MASS SPECTRAL PEAKS>  (2341) 
16 3.6
18 20.15
26 1.1
28 5.45
30 7.95
32 1.45
34 1.85
38 2.4
40 3
42 6.2
44 6.5
45 2.7
46 99.99
47 2.15
64 20.95

$$$$

     RDKit          2D

  8  7  0  0  0  0  0  0  0  0999 V2000
    1.9486    3.3750    0.0000 C   0  0  0  0  0  0  0  0  0  0  0  0
   -0.6495    3.3750    0.0000 C   0  0  0  0  0  0  0  0  0  0  0  0
   -1.9486    4.1250    0.0000 C   0  0  0  0  0  0  0  0  0  0  0  0
   -4.5466    4.1250    0.0000 C   0  0  0  0  0  0  0  0  0  0  0  0
   -5.8457    3.3750    0.0000 Cl  0  0  0  0  0  0  0  0  0  0  0  0
   -4.5466    5.6250    0.0000 O   0  0  0  0  0  0  0  0  0  0  0  0
    0.6495    4.1250    0.0000 O   0  0  0  0  0  0  0  0  0  0  0  0
   -3.2476    3.3750    0.0000 O   0  0  0  0  0  0  0  0  0  0  0  0
  3  2  1  0
  5  4  1  0
  6  4  2  0
  7  1  1  0
  7  2  1  0
  8  3  1  0
  8  4  1  0
M  END
>  <NAME>  (2342) 
CHLOROFORMIC ACID 2-METHOXYETHYL ESTER

>  <SYNONYMS>  (2342) 
2-METHOXYETHYL CHLOROFORMATE

>  <SPECTRUM TYPE>  (2342) 
MS1

>  <INSTRUMENT TYPE>  (2342) 
EI-B

>  <INSTRUMENT>  (2342) 
HITACHI RMU-7M

>  <ION MODE>  (2342) 
P

>  <INCHIKEY>  (2342) 
NDYYWMXJZWHRLZ-UHFFFAOYSA-N

>  <FORMULA>  (2342) 
C4H7ClO3

>  <EXACT MASS>  (2342) 
138.008371764

>  <MW>  (2342) 
138

>  <ID>  (2342) 
JP008875

>  <CONTRIBUTOR>  (2342) 
University of Tokyo Team, {Faculty of Engineering, University of Tokyo

>  <COMMENT>  (2342) 
SMILES=COCCOC(=O)Cl
InChI=InChI=1S/C4H7ClO3/c1-7-2-3-8-4(5)6/h2-3H2,1H3
computed SMILES=O=C(Cl)OCCOC
accession=JP008875
date=2016.01.19 (Created 2008.10.21, modified 2011.05.06)
author=TAJIMA S, GUNMA COLLEGE OF TECHNOLOGY
license=CC BY-NC-SA
exact mass=138.00837
ionization energy=70 eV
ion type=[M]+*
computed spectral entropy=2.6944230236704403
computed normalized entropy=0.8175231764237755
SPLASH=splash10-054k-9000000000-a405e05850a548ba5b00
submitter=submitter = University of Tokyo Team (Faculty of Engineering, University of Tokyo)
MoNA Rating=3.75

>  <NUM PEAKS>  (2342) 
27

>  <MASS SPECTRAL PEAKS>  (2342) 
14 3.38
15 34.57
26 7.53
27 33.93
28 13.07
29 50.89
30 8.35
31 17.22
33 2.04
35 1.98
42 5.1
43 23.92
44 5.48
45 99.99
46 2.49
49 7.59
50 2.23
51 2.87
58 31.25
59 39.6
62 11.67
63 23.66
64 4.53
65 7.65
77 2.61
89 2.42
103 1.4

$$$$

     RDKit          2D

  7  6  0  0  0  0  0  0  0  0999 V2000
   -3.5724    3.9375    0.0000 C   0  0  0  0  0  0  0  0  0  0  0  0
    0.3248    3.1875    0.0000 C   0  0  0  0  0  0  0  0  0  0  0  0
   -0.9743    3.9375    0.0000 C   0  0  0  0  0  0  0  0  0  0  0  0
    1.6238    3.9375    0.0000 C   0  0  0  0  0  0  0  0  0  0  0  0
   -2.2733    3.1875    0.0000 C   0  0  0  0  0  0  0  0  0  0  0  0
    2.9228    3.1875    0.0000 O   0  0  0  0  0  0  0  0  0  0  0  0
   -2.2733    1.6875    0.0000 O   0  0  0  0  0  0  0  0  0  0  0  0
  3  2  1  0
  4  2  1  0
  5  1  1  0
  5  3  1  0
  6  4  1  0
  7  5  2  0
M  END
>  <NAME>  (2343) 
5-HYDROXY-2-PENTANONE

>  <SYNONYMS>  (2343) 
3-ACETYLPROPANOL

>  <SPECTRUM TYPE>  (2343) 
MS1

>  <INSTRUMENT TYPE>  (2343) 
EI-B

>  <INSTRUMENT>  (2343) 
HITACHI RMU-7M

>  <ION MODE>  (2343) 
P

>  <INCHIKEY>  (2343) 
JSHPTIGHEWEXRW-UHFFFAOYSA-N

>  <FORMULA>  (2343) 
C5H10O2

>  <EXACT MASS>  (2343) 
102.06807956

>  <MW>  (2343) 
102

>  <ID>  (2343) 
JP008874

>  <CONTRIBUTOR>  (2343) 
University of Tokyo Team, {Faculty of Engineering, University of Tokyo

>  <COMMENT>  (2343) 
SMILES=OCCCC(C)=O
InChI=InChI=1S/C5H10O2/c1-5(7)3-2-4-6/h6H,2-4H2,1H3
computed SMILES=O=C(C)CCCO
accession=JP008874
date=2016.01.19 (Created 2008.10.21, modified 2011.05.06)
author=TAJIMA S, GUNMA COLLEGE OF TECHNOLOGY
license=CC BY-NC-SA
exact mass=102.06808
ionization energy=70 eV
ion type=[M]+*
computed spectral entropy=2.7220444238417905
computed normalized entropy=0.8083769770393843
SPLASH=splash10-0006-9000000000-4bde53f9dab9fdcbca77
submitter=submitter = University of Tokyo Team (Faculty of Engineering, University of Tokyo)
MoNA Rating=3.75

>  <NUM PEAKS>  (2343) 
29

>  <MASS SPECTRAL PEAKS>  (2343) 
15 4.52
17 3.98
18 17.23
26 3.33
27 13.19
28 7.31
29 7.84
31 2.14
37 1.66
38 3.09
39 30.24
40 3.09
41 20.74
42 10.7
43 99.99
44 3.86
50 3.39
51 3.74
52 2.02
53 11.05
54 12.83
55 13.67
56 2.55
58 3.92
68 1.84
69 7.78
83 17.23
84 30.07
85 3.27

$$$$

     RDKit          2D

  6  5  0  0  0  0  0  0  0  0999 V2000
    1.2990    2.2500    0.0000 C   0  0  0  0  0  0  0  0  0  0  0  0
   -3.8971    2.2500    0.0000 C   0  0  0  0  0  0  0  0  0  0  0  0
   -1.2990    0.7500    0.0000 O   0  0  0  0  0  0  0  0  0  0  0  0
    0.0000    3.0000    0.0000 O   0  0  0  0  0  0  0  0  0  0  0  0
   -2.5981    3.0000    0.0000 O   0  0  0  0  0  0  0  0  0  0  0  0
   -1.2990    2.2500    0.0000 P   0  0  0  0  0  0  0  0  0  0  0  0
  4  1  1  0
  5  2  1  0
  6  3  2  0
  6  4  1  0
  6  5  1  0
M  END
>  <NAME>  (2344) 
DIMETHYL PHOSPHITE

>  <SYNONYMS>  (2344) 
PHOSPHONIC ACID DIMETHYL ESTER

>  <SPECTRUM TYPE>  (2344) 
MS1

>  <INSTRUMENT TYPE>  (2344) 
EI-B

>  <INSTRUMENT>  (2344) 
HITACHI RMU-7M

>  <ION MODE>  (2344) 
P

>  <INCHIKEY>  (2344) 
HZCDANOFLILNSA-UHFFFAOYSA-N

>  <FORMULA>  (2344) 
C2H7O3P

>  <EXACT MASS>  (2344) 
110.01328071399999

>  <MW>  (2344) 
110

>  <ID>  (2344) 
JP008873

>  <CONTRIBUTOR>  (2344) 
University of Tokyo Team, {Faculty of Engineering, University of Tokyo

>  <COMMENT>  (2344) 
SMILES=COP(=O)OC
InChI=InChI=1S/C2H7O3P/c1-4-6(3)5-2/h6H,1-2H3
computed SMILES=O=P(OC)OC
accession=JP008873
date=2016.01.19 (Created 2008.10.21, modified 2011.05.06)
author=TAJIMA S, GUNMA COLLEGE OF TECHNOLOGY
license=CC BY-NC-SA
exact mass=110.01328
ionization energy=70 eV
ion type=[M]+*
computed spectral entropy=1.984088623833612
computed normalized entropy=0.7002962300724799
SPLASH=splash10-003r-9000000000-717167cbc38c96c51ef7
submitter=submitter = University of Tokyo Team (Faculty of Engineering, University of Tokyo)
MoNA Rating=3.75

>  <NUM PEAKS>  (2344) 
17

>  <MASS SPECTRAL PEAKS>  (2344) 
15 14.54
29 7.33
31 13.65
32 1.12
47 29.39
48 3.16
49 7.08
65 5.69
77 2.53
79 94.82
80 99.99
81 2.47
93 2.15
95 14.22
109 7.27
110 5.75
111 1.9

$$$$

     RDKit          2D

  6  5  0  0  0  0  0  0  0  0999 V2000
   -4.5466    3.3750    0.0000 C   0  0  0  0  0  0  0  0  0  0  0  0
   -3.2476    2.6250    0.0000 C   0  0  0  0  0  0  0  0  0  0  0  0
   -1.9486    3.3750    0.0000 C   0  0  0  0  0  0  0  0  0  0  0  0
    0.6495    3.3750    0.0000 C   0  0  0  0  0  0  0  0  0  0  0  0
    1.9486    2.6250    0.0000 O   0  0  0  0  0  0  0  0  0  0  0  0
   -0.6495    2.6250    0.0000 O   0  0  0  0  0  0  0  0  0  0  0  0
  2  1  1  0
  3  2  1  0
  5  4  2  0
  6  3  1  0
  6  4  1  0
M  END
>  <NAME>  (2345) 
PROPYL FORMATE

>  <SYNONYMS>  (2345) 
FORMIC ACID PROPYL ESTER

>  <SPECTRUM TYPE>  (2345) 
MS1

>  <INSTRUMENT TYPE>  (2345) 
EI-B

>  <INSTRUMENT>  (2345) 
HITACHI RMU-7M

>  <ION MODE>  (2345) 
P

>  <INCHIKEY>  (2345) 
KFNNIILCVOLYIR-UHFFFAOYSA-N

>  <FORMULA>  (2345) 
C4H8O2

>  <EXACT MASS>  (2345) 
88.052429496

>  <MW>  (2345) 
88

>  <ID>  (2345) 
JP008872

>  <CONTRIBUTOR>  (2345) 
University of Tokyo Team, {Faculty of Engineering, University of Tokyo

>  <COMMENT>  (2345) 
SMILES=CCCOC=O
InChI=InChI=1S/C4H8O2/c1-2-3-6-4-5/h4H,2-3H2,1H3
computed SMILES=O=COCCC
accession=JP008872
date=2016.01.19 (Created 2008.10.21, modified 2011.05.06)
author=TAJIMA S, GUNMA COLLEGE OF TECHNOLOGY
license=CC BY-NC-SA
exact mass=88.05243
ionization energy=70 eV
ion type=[M]+*
computed spectral entropy=1.9815039835498534
computed normalized entropy=0.6993839654563397
SPLASH=splash10-000x-9000000000-172df0b26fbf2ba1be88
submitter=submitter = University of Tokyo Team (Faculty of Engineering, University of Tokyo)
MoNA Rating=3.75

>  <NUM PEAKS>  (2345) 
17

>  <MASS SPECTRAL PEAKS>  (2345) 
15 1.61
26 2.5
27 17.75
28 6.24
29 13.65
30 1.96
31 97.23
39 7.85
40 2.94
41 23.19
42 99.99
43 14.18
45 2.77
47 10.08
57 5.35
59 5.17
73 1.25

$$$$

     RDKit          2D

  5  4  0  0  0  0  0  0  0  0999 V2000
   -3.8971    2.2500    0.0000 C   0  0  0  0  0  0  0  0  0  0  0  0
   -2.5981    1.5000    0.0000 C   0  0  0  0  0  0  0  0  0  0  0  0
    0.0000    1.5000    0.0000 C   0  0  0  0  0  0  0  0  0  0  0  0
    1.2990    2.2500    0.0000 O   0  0  0  0  0  0  0  0  0  0  0  0
   -1.2990    2.2500    0.0000 O   0  0  0  0  0  0  0  0  0  0  0  0
  2  1  1  0
  4  3  2  0
  5  2  1  0
  5  3  1  0
M  END
>  <NAME>  (2346) 
ETHYL FORMATE

>  <SYNONYMS>  (2346) 
FORMIC ACID ETHYL ESTER

>  <SPECTRUM TYPE>  (2346) 
MS1

>  <INSTRUMENT TYPE>  (2346) 
EI-B

>  <INSTRUMENT>  (2346) 
HITACHI RMU-7M

>  <ION MODE>  (2346) 
P

>  <INCHIKEY>  (2346) 
WBJINCZRORDGAQ-UHFFFAOYSA-N

>  <FORMULA>  (2346) 
C3H6O2

>  <EXACT MASS>  (2346) 
74.036779432

>  <MW>  (2346) 
74

>  <ID>  (2346) 
JP008871

>  <CONTRIBUTOR>  (2346) 
University of Tokyo Team, {Faculty of Engineering, University of Tokyo

>  <COMMENT>  (2346) 
SMILES=CCOC=O
InChI=InChI=1S/C3H6O2/c1-2-5-3-4/h3H,2H2,1H3
computed SMILES=O=COCC
accession=JP008871
date=2016.01.19 (Created 2008.10.21, modified 2011.05.06)
author=TAJIMA S, GUNMA COLLEGE OF TECHNOLOGY
license=CC BY-NC-SA
exact mass=74.03678
ionization energy=70 eV
ion type=[M]+*
computed spectral entropy=1.9943014471446312
computed normalized entropy=0.7364344450974084
SPLASH=splash10-0059-9000000000-639550e9e1c74fbbccb1
submitter=submitter = University of Tokyo Team (Faculty of Engineering, University of Tokyo)
MoNA Rating=3.75

>  <NUM PEAKS>  (2346) 
15

>  <MASS SPECTRAL PEAKS>  (2346) 
14 2
15 4.3
26 7.92
27 36.53
28 99.99
29 40.51
30 3.51
31 98.52
43 7.92
45 32.02
47 10.03
56 3.21
59 1.51
73 1.8
74 11.02

$$$$

     RDKit          2D

  4  3  0  0  0  0  0  0  0  0999 V2000
   -2.5981    2.2500    0.0000 C   0  0  0  0  0  0  0  0  0  0  0  0
    0.0000    2.2500    0.0000 C   0  0  0  0  0  0  0  0  0  0  0  0
    1.2990    1.5000    0.0000 O   0  0  0  0  0  0  0  0  0  0  0  0
   -1.2990    1.5000    0.0000 O   0  0  0  0  0  0  0  0  0  0  0  0
  3  2  2  0
  4  1  1  0
  4  2  1  0
M  END
>  <NAME>  (2347) 
METHYL FORMATE

>  <SYNONYMS>  (2347) 
FORMIC ACID METHYL ESTER

>  <SPECTRUM TYPE>  (2347) 
MS1

>  <INSTRUMENT TYPE>  (2347) 
EI-B

>  <INSTRUMENT>  (2347) 
HITACHI RMU-7M

>  <ION MODE>  (2347) 
P

>  <INCHIKEY>  (2347) 
TZIHFWKZFHZASV-UHFFFAOYSA-N

>  <FORMULA>  (2347) 
C2H4O2

>  <EXACT MASS>  (2347) 
60.021129368

>  <MW>  (2347) 
60

>  <ID>  (2347) 
JP008870

>  <CONTRIBUTOR>  (2347) 
University of Tokyo Team, {Faculty of Engineering, University of Tokyo

>  <COMMENT>  (2347) 
SMILES=COC=O
InChI=InChI=1S/C2H4O2/c1-4-2-3/h2H,1H3
computed SMILES=O=COC
accession=JP008870
date=2016.01.19 (Created 2008.10.21, modified 2011.05.06)
author=TAJIMA S, GUNMA COLLEGE OF TECHNOLOGY
license=CC BY-NC-SA
exact mass=60.02113
ionization energy=70 eV
ion type=[M]+*
computed spectral entropy=1.6816668887052675
computed normalized entropy=0.7303386501641075
SPLASH=splash10-001i-9000000000-92e3b6b29615dad4af76
submitter=submitter = University of Tokyo Team (Faculty of Engineering, University of Tokyo)
MoNA Rating=3.75

>  <NUM PEAKS>  (2347) 
10

>  <MASS SPECTRAL PEAKS>  (2347) 
14 1.43
15 13.47
28 6.37
29 40.64
30 5.42
31 99.99
32 49.48
44 1.59
60 47.65
61 1.67

$$$$

     RDKit          2D

 10 10  0  0  0  0  0  0  0  0999 V2000
   -1.6700   -0.9600    0.0000 C   0  0  0  0  0  0  0  0  0  0  0  0
   -1.6700    0.5400    0.0000 C   0  0  0  0  0  0  0  0  0  0  0  0
   -0.3700   -1.7100    0.0000 C   0  0  0  0  0  0  0  0  0  0  0  0
   -0.3700    1.2900    0.0000 C   0  0  0  0  0  0  0  0  0  0  0  0
    0.9300   -0.9600    0.0000 C   0  0  0  0  0  0  0  0  0  0  0  0
    0.9300    0.5400    0.0000 C   0  0  0  0  0  0  0  0  0  0  0  0
    3.5281    0.5404    0.0000 C   0  0  0  0  0  0  0  0  0  0  0  0
    4.8270    1.2906    0.0000 Cl  0  0  0  0  0  0  0  0  0  0  0  0
    3.5283   -0.9596    0.0000 O   0  0  0  0  0  0  0  0  0  0  0  0
    2.2289    1.2902    0.0000 O   0  0  0  0  0  0  0  0  0  0  0  0
  2  1  2  0
  3  1  1  0
  4  2  1  0
  5  3  2  0
  6  4  2  0
  6  5  1  0
  8  7  1  0
  9  7  2  0
 10  6  1  0
 10  7  1  0
M  END
>  <NAME>  (2348) 
PHENYL CHLOROFORMATE

>  <SYNONYMS>  (2348) 
CHLOROFORMIC ACID PHENYL ESTER

>  <SPECTRUM TYPE>  (2348) 
MS1

>  <INSTRUMENT TYPE>  (2348) 
EI-B

>  <INSTRUMENT>  (2348) 
HITACHI RMU-7M

>  <ION MODE>  (2348) 
P

>  <INCHIKEY>  (2348) 
AHWALFGBDFAJAI-UHFFFAOYSA-N

>  <FORMULA>  (2348) 
C7H5ClO2

>  <EXACT MASS>  (2348) 
155.99780708

>  <MW>  (2348) 
156

>  <ID>  (2348) 
JP008869

>  <CONTRIBUTOR>  (2348) 
University of Tokyo Team, {Faculty of Engineering, University of Tokyo

>  <COMMENT>  (2348) 
SMILES=O=C(Cl)Oc(c1)cccc1
InChI=InChI=1S/C7H5ClO2/c8-7(9)10-6-4-2-1-3-5-6/h1-5H
computed SMILES=O=C(Cl)OC=1C=CC=CC1
accession=JP008869
date=2016.01.19 (Created 2008.10.21, modified 2011.05.06)
author=TAJIMA S, GUNMA COLLEGE OF TECHNOLOGY
license=CC BY-NC-SA
exact mass=155.99781
ionization energy=70 eV
ion type=[M]+*
computed spectral entropy=2.624663379754393
computed normalized entropy=0.7794573189504813
SPLASH=splash10-05r0-9200000000-70c5973f97ae8a7ddf19
submitter=submitter = University of Tokyo Team (Faculty of Engineering, University of Tokyo)
MoNA Rating=3.75

>  <NUM PEAKS>  (2348) 
29

>  <MASS SPECTRAL PEAKS>  (2348) 
27 1.83
35 1.83
37 4.02
38 10.96
38.5 3.65
39 31.96
44 3.56
50 7.21
51 12.15
61 2.01
62 3.74
63 29.04
64 4.2
65 57.99
66 3.74
74 2.1
77 99.99
78 6.48
93 26.94
94 3.84
112 12.79
114 4.47
121 5.57
128 3.2
130 1.1
156 39.73
157 3.47
158 13.33
159 1

$$$$

     RDKit          2D

  9  9  0  0  0  0  0  0  0  0999 V2000
   -2.8539    0.1433    0.0000 C   0  0  0  0  0  0  0  0  0  0  0  0
    2.3428    0.1427    0.0000 C   0  0  0  0  0  0  0  0  0  0  0  0
   -0.2548   -2.8581    0.0000 C   0  0  0  0  0  0  0  0  0  0  0  0
   -1.5543   -2.1073    0.0000 C   0  0  0  0  0  0  0  0  0  0  0  0
    1.0443   -2.1081    0.0000 C   0  0  0  0  0  0  0  0  0  0  0  0
   -1.5548   -0.6065    0.0000 C   0  0  0  0  0  0  0  0  0  0  0  0
    1.0438   -0.6073    0.0000 C   0  0  0  0  0  0  0  0  0  0  0  0
   -0.2557    0.1435    0.0000 C   0  0  0  0  0  0  0  0  0  0  0  0
   -0.2555    1.6435    0.0000 N   0  0  0  0  0  0  0  0  0  0  0  0
  4  3  2  0
  5  3  1  0
  6  1  1  0
  6  4  1  0
  7  2  1  0
  7  5  2  0
  8  6  2  0
  8  7  1  0
  9  8  1  0
M  END
>  <NAME>  (2349) 
2,6-XYLIDINE

>  <SYNONYMS>  (2349) 
2,6-DIMETHYLANILINE

>  <SPECTRUM TYPE>  (2349) 
MS1

>  <INSTRUMENT TYPE>  (2349) 
EI-B

>  <INSTRUMENT>  (2349) 
HITACHI RMU-7M

>  <ION MODE>  (2349) 
P

>  <INCHIKEY>  (2349) 
UFFBMTHBGFGIHF-UHFFFAOYSA-N

>  <FORMULA>  (2349) 
C8H11N

>  <EXACT MASS>  (2349) 
121.08914935199999

>  <MW>  (2349) 
121

>  <ID>  (2349) 
JP008868

>  <CONTRIBUTOR>  (2349) 
University of Tokyo Team, {Faculty of Engineering, University of Tokyo

>  <COMMENT>  (2349) 
SMILES=Cc(c1)c(N)c(C)cc1
InChI=InChI=1S/C8H11N/c1-6-4-3-5-7(2)8(6)9/h3-5H,9H2,1-2H3
computed SMILES=NC=1C(=CC=CC1C)C
accession=JP008868
date=2016.01.19 (Created 2008.10.21, modified 2011.05.06)
author=TAJIMA S, GUNMA COLLEGE OF TECHNOLOGY
license=CC BY-NC-SA
exact mass=121.08915
ionization energy=70 eV
ion type=[M]+*
computed spectral entropy=2.541156683742858
computed normalized entropy=0.7147420280078883
SPLASH=splash10-00di-3900000000-4aea984cccfc0b0c5460
submitter=submitter = University of Tokyo Team (Faculty of Engineering, University of Tokyo)
MoNA Rating=3.75

>  <NUM PEAKS>  (2349) 
35

>  <MASS SPECTRAL PEAKS>  (2349) 
27 2.52
28 2.67
30 1.6
39 5.34
41 2.29
42 2.67
50 1.68
51 4.2
52 3.36
53 4.27
54 1.91
58.5 2.21
59.5 2.44
60.5 2.37
63 2.75
66 1.6
77 13.59
78 7.33
79 4.96
80 2.44
89 1.22
91 9.16
92 2.37
93 3.97
94 1.53
103 7.33
104 4.58
105 2.6
106 54.35
107 4.81
118 2.67
119 2.29
120 54.2
121 99.99
122 10.08

$$$$

     RDKit          2D

  9  9  0  0  0  0  0  0  0  0999 V2000
    2.5989    0.0004    0.0000 C   0  0  0  0  0  0  0  0  0  0  0  0
    0.0000    1.5002    0.0000 C   0  0  0  0  0  0  0  0  0  0  0  0
    1.3000   -2.2498    0.0000 C   0  0  0  0  0  0  0  0  0  0  0  0
   -0.0000   -2.9998    0.0000 C   0  0  0  0  0  0  0  0  0  0  0  0
   -1.3000   -0.7498    0.0000 C   0  0  0  0  0  0  0  0  0  0  0  0
    1.3000   -0.7498    0.0000 C   0  0  0  0  0  0  0  0  0  0  0  0
    0.0000    0.0002    0.0000 C   0  0  0  0  0  0  0  0  0  0  0  0
   -1.3000   -2.2498    0.0000 C   0  0  0  0  0  0  0  0  0  0  0  0
   -2.5989   -3.0000    0.0000 N   0  0  0  0  0  0  0  0  0  0  0  0
  4  3  2  0
  6  1  1  0
  6  3  1  0
  7  2  1  0
  7  5  1  0
  7  6  2  0
  8  4  1  0
  8  5  2  0
  9  8  1  0
M  END
>  <NAME>  (2350) 
3,4-XYLIDINE

>  <SYNONYMS>  (2350) 
3,4-DIMETHYLANILINE

>  <SPECTRUM TYPE>  (2350) 
MS1

>  <INSTRUMENT TYPE>  (2350) 
EI-B

>  <INSTRUMENT>  (2350) 
HITACHI RMU-7M

>  <ION MODE>  (2350) 
P

>  <INCHIKEY>  (2350) 
DOLQYFPDPKPQSS-UHFFFAOYSA-N

>  <FORMULA>  (2350) 
C8H11N

>  <EXACT MASS>  (2350) 
121.08914935199999

>  <MW>  (2350) 
121

>  <ID>  (2350) 
JP008867

>  <CONTRIBUTOR>  (2350) 
University of Tokyo Team, {Faculty of Engineering, University of Tokyo

>  <COMMENT>  (2350) 
SMILES=Nc(c1)cc(C)c(C)c1
InChI=InChI=1S/C8H11N/c1-6-3-4-8(9)5-7(6)2/h3-5H,9H2,1-2H3
computed SMILES=NC1=CC=C(C(=C1)C)C
accession=JP008867
date=2016.01.19 (Created 2008.10.21, modified 2011.05.06)
author=TAJIMA S, GUNMA COLLEGE OF TECHNOLOGY
license=CC BY-NC-SA
exact mass=121.08915
ionization energy=70 eV
ion type=[M]+*
computed spectral entropy=2.430392426054143
computed normalized entropy=0.6835877624414635
SPLASH=splash10-00di-2900000000-42d06b34b7a8ae4224ac
submitter=submitter = University of Tokyo Team (Faculty of Engineering, University of Tokyo)
MoNA Rating=3.75

>  <NUM PEAKS>  (2350) 
35

>  <MASS SPECTRAL PEAKS>  (2350) 
27 2.37
28 2.92
30 1.1
39 5.5
41 2.86
42 2.37
50 1.98
51 4.51
52 3.3
53 4.18
54 1.65
58.5 2.2
59.5 1.93
60.5 1.38
63 2.15
65 4.02
66 1.76
77 11.83
78 3.58
79 3.41
80 2.48
91 8.14
92 2.15
93 5.23
94 1.87
103 2.75
104 2.48
105 1.6
106 56.71
107 6.05
118 3.74
119 3.58
120 81.02
121 99.99
122 11.66

$$$$

     RDKit          2D

  6  5  0  0  0  0  0  0  0  0999 V2000
    0.0000    0.0000    0.0000 C   0  0  0  0  0  0  0  0  0  0  0  0
    1.2990    2.2500    0.0000 C   0  0  0  0  0  0  0  0  0  0  0  0
   -1.2990    3.7500    0.0000 C   0  0  0  0  0  0  0  0  0  0  0  0
    0.0000    1.5000    0.0000 C   0  0  0  0  0  0  0  0  0  0  0  0
   -2.5981    4.5000    0.0000 O   0  0  0  0  0  0  0  0  0  0  0  0
   -1.2990    2.2500    0.0000 O   0  0  0  0  0  0  0  0  0  0  0  0
  4  1  1  0
  4  2  1  0
  5  3  2  0
  6  3  1  0
  6  4  1  0
M  END
>  <NAME>  (2351) 
ISOPROPYL FORMATE

>  <SYNONYMS>  (2351) 
FORMIC ACID ISOPROPYL ESTER

>  <SPECTRUM TYPE>  (2351) 
MS1

>  <INSTRUMENT TYPE>  (2351) 
EI-B

>  <INSTRUMENT>  (2351) 
HITACHI RMU-7M

>  <ION MODE>  (2351) 
P

>  <INCHIKEY>  (2351) 
RMOUBSOVHSONPZ-UHFFFAOYSA-N

>  <FORMULA>  (2351) 
C4H8O2

>  <EXACT MASS>  (2351) 
88.052429496

>  <MW>  (2351) 
88

>  <ID>  (2351) 
JP008865

>  <CONTRIBUTOR>  (2351) 
University of Tokyo Team, {Faculty of Engineering, University of Tokyo

>  <COMMENT>  (2351) 
SMILES=O=COC(C)C
InChI=InChI=1S/C4H8O2/c1-4(2)6-3-5/h3-4H,1-2H3
computed SMILES=O=COC(C)C
accession=JP008865
date=2016.01.19 (Created 2008.10.21, modified 2011.05.06)
author=TAJIMA S, GUNMA COLLEGE OF TECHNOLOGY
license=CC BY-NC-SA
exact mass=88.05243
ionization energy=70 eV
ion type=[M]+*
computed spectral entropy=2.208849349984928
computed normalized entropy=0.7796269047718775
SPLASH=splash10-0007-9000000000-f684de40bfbe24a368ed
submitter=submitter = University of Tokyo Team (Faculty of Engineering, University of Tokyo)
MoNA Rating=3.75

>  <NUM PEAKS>  (2351) 
17

>  <MASS SPECTRAL PEAKS>  (2351) 
15 5.04
19 4.97
27 20.78
28 2.61
29 9.57
31 4.35
39 9.48
40 2.61
41 30.26
42 48.26
43 40.17
44 3.04
45 99.99
46 2.61
47 6.96
59 5.13
73 20.43

$$$$

     RDKit          2D

 10 10  0  0  0  0  0  0  0  0999 V2000
    2.9231    0.5071    0.0000 C   0  0  0  0  0  0  0  0  0  0  0  0
    2.9236    2.0079    0.0000 C   0  0  0  0  0  0  0  0  0  0  0  0
    1.6236   -0.2437    0.0000 C   0  0  0  0  0  0  0  0  0  0  0  0
    1.6245    2.7579    0.0000 C   0  0  0  0  0  0  0  0  0  0  0  0
    0.3245    0.5063    0.0000 C   0  0  0  0  0  0  0  0  0  0  0  0
   -0.9740    2.7571    0.0000 C   0  0  0  0  0  0  0  0  0  0  0  0
   -3.5721    2.7571    0.0000 C   0  0  0  0  0  0  0  0  0  0  0  0
    0.3250    2.0071    0.0000 C   0  0  0  0  0  0  0  0  0  0  0  0
   -4.8712    2.0071    0.0000 O   0  0  0  0  0  0  0  0  0  0  0  0
   -2.2731    2.0071    0.0000 O   0  0  0  0  0  0  0  0  0  0  0  0
  2  1  2  0
  3  1  1  0
  4  2  1  0
  5  3  2  0
  8  4  2  0
  8  5  1  0
  8  6  1  0
  9  7  2  0
 10  6  1  0
 10  7  1  0
M  END
>  <NAME>  (2352) 
BENZYL FORMATE

>  <SYNONYMS>  (2352) 
FORMIC ACID BENZYL ESTER

>  <SPECTRUM TYPE>  (2352) 
MS1

>  <INSTRUMENT TYPE>  (2352) 
EI-B

>  <INSTRUMENT>  (2352) 
HITACHI RMU-7M

>  <ION MODE>  (2352) 
P

>  <INCHIKEY>  (2352) 
UYWQUFXKFGHYNT-UHFFFAOYSA-N

>  <FORMULA>  (2352) 
C8H8O2

>  <EXACT MASS>  (2352) 
136.052429496

>  <MW>  (2352) 
136

>  <ID>  (2352) 
JP008864

>  <CONTRIBUTOR>  (2352) 
University of Tokyo Team, {Faculty of Engineering, University of Tokyo

>  <COMMENT>  (2352) 
SMILES=O=COCc(c1)cccc1
InChI=InChI=1S/C8H8O2/c9-7-10-6-8-4-2-1-3-5-8/h1-5,7H,6H2
computed SMILES=O=COCC=1C=CC=CC1
accession=JP008864
date=2016.01.19 (Created 2008.10.21, modified 2011.05.06)
author=TAJIMA S, GUNMA COLLEGE OF TECHNOLOGY
license=CC BY-NC-SA
exact mass=136.05243
ionization energy=70 eV
ion type=[M]+*
computed spectral entropy=2.7445302515659176
computed normalized entropy=0.8069306022529846
SPLASH=splash10-0006-9300000000-6a77c8d351ff84dc23ee
submitter=submitter = University of Tokyo Team (Faculty of Engineering, University of Tokyo)
MoNA Rating=3.75

>  <NUM PEAKS>  (2352) 
30

>  <MASS SPECTRAL PEAKS>  (2352) 
27 4.45
29 7.48
31 2.35
38 3.59
39 16.39
40 1.3
41 4.45
43 3.09
50 9.09
51 20.47
52 5.32
53 2.84
62 3.83
63 10.02
64 3.09
65 22.63
77 27.21
78 5.75
79 35.81
80 4.21
89 20.1
90 89.67
91 99.99
92 7.48
105 2.97
107 30.86
108 34.51
109 2.66
136 70.44
137 6.18

$$$$

     RDKit          2D

 10 10  0  0  0  0  0  0  0  0999 V2000
   -2.5981   -0.4300    0.0000 C   0  0  0  0  0  0  0  0  0  0  0  0
   -1.2986   -1.1808    0.0000 C   0  0  0  0  0  0  0  0  0  0  0  0
   -2.5986    1.0708    0.0000 C   0  0  0  0  0  0  0  0  0  0  0  0
    0.0005   -0.4308    0.0000 C   0  0  0  0  0  0  0  0  0  0  0  0
   -1.2995    1.8208    0.0000 C   0  0  0  0  0  0  0  0  0  0  0  0
    0.0000    1.0700    0.0000 C   0  0  0  0  0  0  0  0  0  0  0  0
    1.2990    1.8200    0.0000 C   0  0  0  0  0  0  0  0  0  0  0  0
    2.0490    0.5210    0.0000 F   0  0  0  0  0  0  0  0  0  0  0  0
    2.5981    2.5700    0.0000 F   0  0  0  0  0  0  0  0  0  0  0  0
    0.5490    3.1190    0.0000 F   0  0  0  0  0  0  0  0  0  0  0  0
  2  1  2  0
  3  1  1  0
  4  2  1  0
  5  3  2  0
  6  4  2  0
  6  5  1  0
  7  6  1  0
  8  7  1  0
  9  7  1  0
 10  7  1  0
M  END
>  <NAME>  (2353) 
ALPHA,ALPHA,ALPHA-TRIFLUOROTOLUENE

>  <SYNONYMS>  (2353) 


>  <SPECTRUM TYPE>  (2353) 
MS1

>  <INSTRUMENT TYPE>  (2353) 
EI-B

>  <INSTRUMENT>  (2353) 
HITACHI RMU-7M

>  <ION MODE>  (2353) 
P

>  <INCHIKEY>  (2353) 
GETTZEONDQJALK-UHFFFAOYSA-N

>  <FORMULA>  (2353) 
C7H5F3

>  <EXACT MASS>  (2353) 
146.03433482

>  <MW>  (2353) 
146

>  <ID>  (2353) 
JP008863

>  <CONTRIBUTOR>  (2353) 
University of Tokyo Team, {Faculty of Engineering, University of Tokyo

>  <COMMENT>  (2353) 
SMILES=FC(F)(F)c(c1)cccc1
InChI=InChI=1S/C7H5F3/c8-7(9,10)6-4-2-1-3-5-6/h1-5H
computed SMILES=FC(F)(F)C=1C=CC=CC1
accession=JP008863
date=2016.01.19 (Created 2008.10.21, modified 2011.05.06)
author=TAJIMA S, GUNMA COLLEGE OF TECHNOLOGY
license=CC BY-NC-SA
exact mass=146.03433
ionization energy=70 eV
ion type=[M]+*
computed spectral entropy=2.879776549935095
computed normalized entropy=0.7975192512272524
SPLASH=splash10-0002-8900000000-44c6b8ce8cad5a8c0baa
submitter=submitter = University of Tokyo Team (Faculty of Engineering, University of Tokyo)
MoNA Rating=3.75

>  <NUM PEAKS>  (2353) 
37

>  <MASS SPECTRAL PEAKS>  (2353) 
27 3.31
29 4.22
31 1.88
38 2.64
39 4.89
41 5.95
43 9.71
50 13.1
51 19.13
55 5.27
57 9.79
63 3.69
63.5 2.86
69 6.48
70 4.07
71 4.67
73 2.26
74 6.4
75 9.86
76 3.24
77 16.87
83 2.86
85 3.01
95 4.97
96 37.95
97 4.14
99 2.64
101 2.18
115 1.51
125 4.37
126 4.59
127 50.83
128 6.02
144 2.26
145 38.55
146 99.99
147 7.68

$$$$

     RDKit          2D

  8  7  0  0  0  0  0  0  0  0999 V2000
    1.9486    3.3750    0.0000 C   0  0  0  0  0  0  0  0  0  0  0  0
   -5.8457    3.3750    0.0000 C   0  0  0  0  0  0  0  0  0  0  0  0
    0.6495    4.1250    0.0000 C   0  0  0  0  0  0  0  0  0  0  0  0
   -3.2476    3.3750    0.0000 C   0  0  0  0  0  0  0  0  0  0  0  0
   -1.9486    4.1250    0.0000 C   0  0  0  0  0  0  0  0  0  0  0  0
   -4.5466    4.1250    0.0000 C   0  0  0  0  0  0  0  0  0  0  0  0
   -4.5466    5.6250    0.0000 O   0  0  0  0  0  0  0  0  0  0  0  0
   -0.6495    3.3750    0.0000 O   0  0  0  0  0  0  0  0  0  0  0  0
  3  1  1  0
  5  4  1  0
  6  2  1  0
  6  4  1  0
  7  6  2  0
  8  3  1  0
  8  5  1  0
M  END
>  <NAME>  (2354) 
4-ETHOXY-2-BUTANONE

>  <SYNONYMS>  (2354) 
ACETYLETHYL ETHYL ETHER

>  <SPECTRUM TYPE>  (2354) 
MS1

>  <INSTRUMENT TYPE>  (2354) 
EI-B

>  <INSTRUMENT>  (2354) 
HITACHI RMU-7M

>  <ION MODE>  (2354) 
P

>  <INCHIKEY>  (2354) 
YFBGSHHKHHCVDI-UHFFFAOYSA-N

>  <FORMULA>  (2354) 
C6H12O2

>  <EXACT MASS>  (2354) 
116.083729624

>  <MW>  (2354) 
116

>  <ID>  (2354) 
JP008862

>  <CONTRIBUTOR>  (2354) 
University of Tokyo Team, {Faculty of Engineering, University of Tokyo

>  <COMMENT>  (2354) 
SMILES=CCOCCC(C)=O
InChI=InChI=1S/C6H12O2/c1-3-8-5-4-6(2)7/h3-5H2,1-2H3
computed SMILES=O=C(C)CCOCC
accession=JP008862
date=2016.01.19 (Created 2008.10.21, modified 2011.05.06)
author=TAJIMA S, GUNMA COLLEGE OF TECHNOLOGY
license=CC BY-NC-SA
exact mass=116.08373
ionization energy=70 eV
ion type=[M]+*
computed spectral entropy=2.5022778748726493
computed normalized entropy=0.8218950347903353
SPLASH=splash10-054o-9000000000-0252426f964acc0d81ec
submitter=submitter = University of Tokyo Team (Faculty of Engineering, University of Tokyo)
MoNA Rating=3.75

>  <NUM PEAKS>  (2354) 
21

>  <MASS SPECTRAL PEAKS>  (2354) 
15 16.58
26 9.09
27 46.07
28 5.79
29 12.16
31 54.36
39 3.99
41 3.44
42 11.06
43 99.99
44 10.14
45 27.15
46 8.91
55 65.72
59 7.68
70 27.15
71 6.14
72 11.55
73 2.33
87 4.79
101 2.58

$$$$

     RDKit          2D

 10 11  0  0  0  0  0  0  0  0999 V2000
   -2.6000    0.7500    0.0000 C   0  0  0  0  0  0  0  0  0  0  0  0
   -2.6000   -0.7500    0.0000 C   0  0  0  0  0  0  0  0  0  0  0  0
    2.6000    0.7500    0.0000 C   0  0  0  0  0  0  0  0  0  0  0  0
   -1.3000    1.5000    0.0000 C   0  0  0  0  0  0  0  0  0  0  0  0
    1.3000    1.5000    0.0000 C   0  0  0  0  0  0  0  0  0  0  0  0
   -1.3000   -1.5000    0.0000 C   0  0  0  0  0  0  0  0  0  0  0  0
    2.6000   -0.7500    0.0000 C   0  0  0  0  0  0  0  0  0  0  0  0
   -0.0000    0.7500    0.0000 C   0  0  0  0  0  0  0  0  0  0  0  0
   -0.0000   -0.7500    0.0000 C   0  0  0  0  0  0  0  0  0  0  0  0
    1.3000   -1.5000    0.0000 N   0  0  0  0  0  0  0  0  0  0  0  0
  2  1  2  0
  4  1  1  0
  5  3  2  0
  6  2  1  0
  7  3  1  0
  8  4  2  0
  8  5  1  0
  9  6  2  0
  9  8  1  0
 10  7  2  0
 10  9  1  0
M  END
>  <NAME>  (2355) 
QUINOLINE

>  <SYNONYMS>  (2355) 


>  <SPECTRUM TYPE>  (2355) 
MS1

>  <INSTRUMENT TYPE>  (2355) 
EI-B

>  <INSTRUMENT>  (2355) 
HITACHI RMU-7M

>  <ION MODE>  (2355) 
P

>  <INCHIKEY>  (2355) 
SMWDFEZZVXVKRB-UHFFFAOYSA-N

>  <FORMULA>  (2355) 
C9H7N

>  <EXACT MASS>  (2355) 
129.057849224

>  <MW>  (2355) 
129

>  <ID>  (2355) 
JP008861

>  <CONTRIBUTOR>  (2355) 
University of Tokyo Team, {Faculty of Engineering, University of Tokyo

>  <COMMENT>  (2355) 
SMILES=c(c2)cc(c1)c(c2)ncc1
InChI=InChI=1S/C9H7N/c1-2-6-9-8(4-1)5-3-7-10-9/h1-7H
computed SMILES=N=1C=CC=C2C=CC=CC12
accession=JP008861
date=2016.01.19 (Created 2008.10.21, modified 2011.05.06)
author=TAJIMA S, GUNMA COLLEGE OF TECHNOLOGY
license=CC BY-NC-SA
exact mass=129.05785
ionization energy=70 eV
ion type=[M]+*
computed spectral entropy=2.4252156607207627
computed normalized entropy=0.7278111692470062
SPLASH=splash10-004i-4900000000-06d1e2a8216798421e17
submitter=submitter = University of Tokyo Team (Faculty of Engineering, University of Tokyo)
MoNA Rating=3.75

>  <NUM PEAKS>  (2355) 
28

>  <MASS SPECTRAL PEAKS>  (2355) 
26 1.29
27 2.9
38 1.81
39 3.35
41 1.61
43 2.9
50 7.29
51 13.23
52 3.1
55 1.29
57 2.45
62 1.87
63 3.87
64 1.74
64.5 4.39
71 1.29
74 4
75 6.52
76 8.39
77 3.42
78 2.45
101 5.81
102 21.61
103 6.52
127 3.81
128 15.87
129 99.99
130 10.06

$$$$

     RDKit          2D

  9  8  0  0  0  0  0  0  0  0999 V2000
    1.9931    3.2978    0.0000 C   0  0  0  0  0  0  0  0  0  0  0  0
   -5.8011    3.2978    0.0000 C   0  0  0  0  0  0  0  0  0  0  0  0
   -0.9398    5.1969    0.0000 C   0  0  0  0  0  0  0  0  0  0  0  0
   -2.8682    5.1969    0.0000 C   0  0  0  0  0  0  0  0  0  0  0  0
    0.6941    4.0478    0.0000 C   0  0  0  0  0  0  0  0  0  0  0  0
   -4.5021    4.0478    0.0000 C   0  0  0  0  0  0  0  0  0  0  0  0
   -0.6050    3.2978    0.0000 O   0  0  0  0  0  0  0  0  0  0  0  0
   -3.2031    3.2978    0.0000 O   0  0  0  0  0  0  0  0  0  0  0  0
   -1.9040    4.0478    0.0000 Si  0  0  0  0  0  4  0  0  0  0  0  0
  5  1  1  0
  6  2  1  0
  7  5  1  0
  8  6  1  0
  9  3  1  0
  9  4  1  0
  9  7  1  0
  9  8  1  0
M  END
>  <NAME>  (2356) 
DIETHOXYDIMETHYLSILANE

>  <SYNONYMS>  (2356) 


>  <SPECTRUM TYPE>  (2356) 
MS1

>  <INSTRUMENT TYPE>  (2356) 
EI-B

>  <INSTRUMENT>  (2356) 
HITACHI RMU-7M

>  <ION MODE>  (2356) 
P

>  <INCHIKEY>  (2356) 
YYLGKUPAFFKGRQ-UHFFFAOYSA-N

>  <FORMULA>  (2356) 
C6H16O2Si

>  <EXACT MASS>  (2356) 
148.091956282

>  <MW>  (2356) 
148

>  <ID>  (2356) 
JP008860

>  <CONTRIBUTOR>  (2356) 
University of Tokyo Team, {Faculty of Engineering, University of Tokyo

>  <COMMENT>  (2356) 
SMILES=CCO[Si](C)(C)OCC
InChI=InChI=1S/C6H16O2Si/c1-5-7-9(3,4)8-6-2/h5-6H2,1-4H3
computed SMILES=O(CC)[Si](OCC)(C)C
accession=JP008860
date=2016.01.19 (Created 2008.10.21, modified 2011.05.06)
author=TAJIMA S, GUNMA COLLEGE OF TECHNOLOGY
license=CC BY-NC-SA
exact mass=148.09196
ionization energy=70 eV
ion type=[M]+*
computed spectral entropy=2.4303351542969205
computed normalized entropy=0.7373954637637481
SPLASH=splash10-001i-7900000000-bb7c11e05563dad8e3f1
submitter=submitter = University of Tokyo Team (Faculty of Engineering, University of Tokyo)
MoNA Rating=3.75

>  <NUM PEAKS>  (2356) 
27

>  <MASS SPECTRAL PEAKS>  (2356) 
27 1.72
28 2.07
29 1.38
43 3.45
45 9.52
47 4.14
58 1.72
59 12.41
61 7.24
63 1.93
66 2.07
73 2.76
75 15.03
76 1.73
77 32.76
78 1.93
89 37.24
90 2.76
91 1.72
103 25.52
104 2.48
105 18.62
106 1.38
133 99.99
134 10.34
135 4.28
147 1.03

$$$$

     RDKit          2D

  7  7  0  0  0  0  0  0  0  0999 V2000
    0.0000    1.5000    0.0000 C   0  0  0  0  0  0  0  0  0  0  0  0
    0.0000    0.0000    0.0000 C   0  0  0  0  0  0  0  0  0  0  0  0
   -1.1727    2.4352    0.0000 C   0  0  0  0  0  0  0  0  0  0  0  0
   -1.1727   -0.9352    0.0000 C   0  0  0  0  0  0  0  0  0  0  0  0
   -2.6351    2.1015    0.0000 C   0  0  0  0  0  0  0  0  0  0  0  0
   -2.6351   -0.6015    0.0000 C   0  0  0  0  0  0  0  0  0  0  0  0
   -3.2860    0.7500    0.0000 C   0  0  0  0  0  0  0  0  0  0  0  0
  2  1  2  0
  3  1  1  0
  4  2  1  0
  5  3  1  0
  6  4  1  0
  7  5  1  0
  7  6  1  0
M  END
>  <NAME>  (2357) 
CYCLOHEPTENE

>  <SYNONYMS>  (2357) 


>  <SPECTRUM TYPE>  (2357) 
MS1

>  <INSTRUMENT TYPE>  (2357) 
EI-B

>  <INSTRUMENT>  (2357) 
HITACHI RMU-7M

>  <ION MODE>  (2357) 
P

>  <INCHIKEY>  (2357) 
ZXIJMRYMVAMXQP-UHFFFAOYSA-N

>  <FORMULA>  (2357) 
C7H12

>  <EXACT MASS>  (2357) 
96.093900384

>  <MW>  (2357) 
96

>  <ID>  (2357) 
JP008859

>  <CONTRIBUTOR>  (2357) 
University of Tokyo Team, {Faculty of Engineering, University of Tokyo

>  <COMMENT>  (2357) 
SMILES=C(C1)CCC=CC1
InChI=InChI=1S/C7H12/c1-2-4-6-7-5-3-1/h1-2H,3-7H2
computed SMILES=C1=CCCCCC1
accession=JP008859
date=2016.01.19 (Created 2008.10.21, modified 2011.05.06)
author=TAJIMA S, GUNMA COLLEGE OF TECHNOLOGY
license=CC BY-NC-SA
exact mass=96.0939
ionization energy=70 eV
ion type=[M]+*
computed spectral entropy=2.778986835182424
computed normalized entropy=0.82528740434237
SPLASH=splash10-0gb9-9000000000-e6bbb469d3fdcc39a452
submitter=submitter = University of Tokyo Team (Faculty of Engineering, University of Tokyo)
MoNA Rating=3.75

>  <NUM PEAKS>  (2357) 
29

>  <MASS SPECTRAL PEAKS>  (2357) 
27 20.46
28 2.82
29 18.79
39 39.14
40 7.72
41 27.66
42 7.52
50 2.61
51 5.22
52 2.61
53 20.25
54 97.6
55 56.37
56 5.74
65 6.78
66 8.77
67 99.99
68 58.56
69 5.32
70 2.92
77 6.68
79 11.06
81 70.98
82 5.22
91 9.5
92 5.22
95 7.62
96 57.41
97 5.11

$$$$

     RDKit          2D

 12 11  0  0  0  0  0  0  0  0999 V2000
    2.2841    2.8734    0.0000 C   0  0  0  0  0  0  0  0  0  0  0  0
   -5.5102    2.8734    0.0000 C   0  0  0  0  0  0  0  0  0  0  0  0
   -3.0284    7.3311    0.0000 C   0  0  0  0  0  0  0  0  0  0  0  0
    0.8283    4.5120    0.0000 C   0  0  0  0  0  0  0  0  0  0  0  0
    0.9850    3.6234    0.0000 C   0  0  0  0  0  0  0  0  0  0  0  0
   -4.2111    3.6234    0.0000 C   0  0  0  0  0  0  0  0  0  0  0  0
   -2.0642    6.1820    0.0000 C   0  0  0  0  0  0  0  0  0  0  0  0
   -0.6489    4.7725    0.0000 C   0  0  0  0  0  0  0  0  0  0  0  0
   -0.3140    2.8734    0.0000 O   0  0  0  0  0  0  0  0  0  0  0  0
   -2.9121    2.8734    0.0000 O   0  0  0  0  0  0  0  0  0  0  0  0
   -2.5772    4.7725    0.0000 O   0  0  0  0  0  0  0  0  0  0  0  0
   -1.6131    3.6234    0.0000 Si  0  0  0  0  0  4  0  0  0  0  0  0
  5  1  1  0
  6  2  1  0
  7  3  1  0
  8  4  2  0
  9  5  1  0
 10  6  1  0
 11  7  1  0
 12  8  1  0
 12  9  1  0
 12 10  1  0
 12 11  1  0
M  END
>  <NAME>  (2358) 
VINYLTRIETHOXYSILANE

>  <SYNONYMS>  (2358) 


>  <SPECTRUM TYPE>  (2358) 
MS1

>  <INSTRUMENT TYPE>  (2358) 
EI-B

>  <INSTRUMENT>  (2358) 
HITACHI RMU-7M

>  <ION MODE>  (2358) 
P

>  <INCHIKEY>  (2358) 
FWDBOZPQNFPOLF-UHFFFAOYSA-N

>  <FORMULA>  (2358) 
C8H18O3Si

>  <EXACT MASS>  (2358) 
190.102520966

>  <MW>  (2358) 
190

>  <ID>  (2358) 
JP008858

>  <CONTRIBUTOR>  (2358) 
University of Tokyo Team, {Faculty of Engineering, University of Tokyo

>  <COMMENT>  (2358) 
SMILES=CCO[Si](C=C)(OCC)OCC
InChI=InChI=1S/C8H18O3Si/c1-5-9-12(8-4,10-6-2)11-7-3/h8H,4-7H2,1-3H3
computed SMILES=O(CC)[Si](OCC)(OCC)C=C
accession=JP008858
date=2016.01.19 (Created 2008.10.21, modified 2011.05.06)
author=TAJIMA S, GUNMA COLLEGE OF TECHNOLOGY
license=CC BY-NC-SA
exact mass=190.10252
ionization energy=70 eV
ion type=[M]+*
computed spectral entropy=3.3266034242833515
computed normalized entropy=0.8738897743687455
SPLASH=splash10-0002-3900000000-386fdcd39290e1b5e9d9
submitter=submitter = University of Tokyo Team (Faculty of Engineering, University of Tokyo)
MoNA Rating=3.75

>  <NUM PEAKS>  (2358) 
45

>  <MASS SPECTRAL PEAKS>  (2358) 
27 5.92
29 14.09
31 3.67
41 2.84
43 5.51
44 2.07
45 19.06
47 2.96
55 3.08
57 3.43
61 7.93
62 5.03
63 20.13
71 5.62
73 11.78
77 9.3
79 13.08
80 2.37
87 5.92
89 23.51
90 3.08
91 8.88
101 28.6
102 3.49
103 4.62
105 6.04
107 7.82
115 12.2
116 1.69
117 15.39
118 4.62
119 20.66
131 27.71
132 2.96
133 12.91
135 36.41
136 3.61
145 99.99
146 21.2
147 15.69
161 7.76
163 26.23
175 36.41
176 4.85
189 3.32

$$$$

     RDKit          2D

  4  3  0  0  0  0  0  0  0  0999 V2000
    0.9743    0.5625    0.0000 C   0  0  0  0  0  0  0  0  0  0  0  0
   -1.6238    0.5625    0.0000 C   0  0  0  0  0  0  0  0  0  0  0  0
   -0.3248    1.3125    0.0000 C   0  0  0  0  0  0  0  0  0  0  0  0
   -0.3248    2.8125    0.0000 Cl  0  0  0  0  0  0  0  0  0  0  0  0
  3  1  1  0
  3  2  1  0
  4  3  1  0
M  END
>  <NAME>  (2359) 
2-CHLOROPROPANE

>  <SYNONYMS>  (2359) 


>  <SPECTRUM TYPE>  (2359) 
MS1

>  <INSTRUMENT TYPE>  (2359) 
EI-B

>  <INSTRUMENT>  (2359) 
HITACHI RMU-7M

>  <ION MODE>  (2359) 
P

>  <INCHIKEY>  (2359) 
ULYZAYCEDJDHCC-UHFFFAOYSA-N

>  <FORMULA>  (2359) 
C3H7Cl

>  <EXACT MASS>  (2359) 
78.023627904

>  <MW>  (2359) 
78

>  <ID>  (2359) 
JP008857

>  <CONTRIBUTOR>  (2359) 
University of Tokyo Team, {Faculty of Engineering, University of Tokyo

>  <COMMENT>  (2359) 
SMILES=CC(C)Cl
InChI=InChI=1S/C3H7Cl/c1-3(2)4/h3H,1-2H3
computed SMILES=ClC(C)C
accession=JP008857
date=2016.01.19 (Created 2008.10.21, modified 2011.05.06)
author=TAJIMA S, GUNMA COLLEGE OF TECHNOLOGY
license=CC BY-NC-SA
exact mass=78.02363
ionization energy=70 eV
ion type=[M]+*
computed spectral entropy=2.216273488013438
computed normalized entropy=0.706833862666426
SPLASH=splash10-0006-9000000000-057ae889807deff47ba1
submitter=submitter = University of Tokyo Team (Faculty of Engineering, University of Tokyo)
MoNA Rating=3.75

>  <NUM PEAKS>  (2359) 
23

>  <MASS SPECTRAL PEAKS>  (2359) 
15 1.22
26 2.1
27 25.36
28 5.32
29 2.33
37 1.75
38 2.62
39 8.75
40 2.92
41 19.94
42 5.25
43 99.99
44 4.02
55 2.62
57 4.2
62 2.22
63 20.99
64 1.22
65 6.76
78 15.63
79 1
80 5.13
81 1

$$$$

     RDKit          2D

  6  5  0  0  0  0  0  0  0  0999 V2000
    1.2990    3.0000    0.0000 C   0  0  0  0  0  0  0  0  0  0  0  0
   -2.5981    3.7500    0.0000 C   0  0  0  0  0  0  0  0  0  0  0  0
   -3.8971    3.0000    0.0000 C   0  0  0  0  0  0  0  0  0  0  0  0
   -1.2990    3.0000    0.0000 C   0  0  0  0  0  0  0  0  0  0  0  0
   -5.1962    2.2500    0.0000 N   0  0  0  0  0  0  0  0  0  0  0  0
    0.0000    3.7500    0.0000 O   0  0  0  0  0  0  0  0  0  0  0  0
  3  2  1  0
  4  2  1  0
  5  3  3  0
  6  1  1  0
  6  4  1  0
M  END
>  <NAME>  (2360) 
3-METHOXYPROPIONITRILE

>  <SYNONYMS>  (2360) 
1-METHOXY-2-CYANOETHANE

>  <SPECTRUM TYPE>  (2360) 
MS1

>  <INSTRUMENT TYPE>  (2360) 
EI-B

>  <INSTRUMENT>  (2360) 
HITACHI RMU-7M

>  <ION MODE>  (2360) 
P

>  <INCHIKEY>  (2360) 
OOWFYDWAMOKVSF-UHFFFAOYSA-N

>  <FORMULA>  (2360) 
C4H7NO

>  <EXACT MASS>  (2360) 
85.052763844

>  <MW>  (2360) 
85

>  <ID>  (2360) 
JP008856

>  <CONTRIBUTOR>  (2360) 
University of Tokyo Team, {Faculty of Engineering, University of Tokyo

>  <COMMENT>  (2360) 
SMILES=N#CCCOC
InChI=InChI=1S/C4H7NO/c1-6-4-2-3-5/h2,4H2,1H3
computed SMILES=N#CCCOC
accession=JP008856
date=2016.01.19 (Created 2008.10.21, modified 2011.05.06)
author=TAJIMA S, GUNMA COLLEGE OF TECHNOLOGY
license=CC BY-NC-SA
exact mass=85.05276
ionization energy=70 eV
ion type=[M]+*
computed spectral entropy=2.2244337010186674
computed normalized entropy=0.7094363911494236
SPLASH=splash10-0002-9000000000-319115042fdc22f0d382
submitter=submitter = University of Tokyo Team (Faculty of Engineering, University of Tokyo)
MoNA Rating=3.75

>  <NUM PEAKS>  (2360) 
23

>  <MASS SPECTRAL PEAKS>  (2360) 
15 16.55
26 4.27
27 6.91
28 7
29 17.24
31 4.95
39 2.39
40 2.73
41 5.89
43 7
45 99.99
46 2.56
51 2.39
52 3.5
53 2.13
54 7.68
55 6.06
56 3.41
57 5.97
69 2.05
71 2.82
83 1.54
85 1.79

$$$$

     RDKit          2D

  5  5  0  0  0  0  0  0  0  0999 V2000
    0.0000    1.5000    0.0000 C   0  0  0  0  0  0  0  0  0  0  0  0
    0.0000    0.0000    0.0000 C   0  0  0  0  0  0  0  0  0  0  0  0
   -2.3083    0.7500    0.0000 C   0  0  0  0  0  0  0  0  0  0  0  0
   -1.4266    1.9635    0.0000 O   0  0  0  0  0  0  0  0  0  0  0  0
   -1.4266   -0.4635    0.0000 O   0  0  0  0  0  0  0  0  0  0  0  0
  2  1  1  0
  4  1  1  0
  4  3  1  0
  5  2  1  0
  5  3  1  0
M  END
>  <NAME>  (2361) 
1,3-DIOXOLANE

>  <SYNONYMS>  (2361) 
1,3-DIOXACYCLOPENTANE

>  <SPECTRUM TYPE>  (2361) 
MS1

>  <INSTRUMENT TYPE>  (2361) 
EI-B

>  <INSTRUMENT>  (2361) 
HITACHI RMU-7M

>  <ION MODE>  (2361) 
P

>  <INCHIKEY>  (2361) 
WNXJIVFYUVYPPR-UHFFFAOYSA-N

>  <FORMULA>  (2361) 
C3H6O2

>  <EXACT MASS>  (2361) 
74.036779432

>  <MW>  (2361) 
74

>  <ID>  (2361) 
JP008855

>  <CONTRIBUTOR>  (2361) 
University of Tokyo Team, {Faculty of Engineering, University of Tokyo

>  <COMMENT>  (2361) 
SMILES=C(C1)OCO1
InChI=InChI=1S/C3H6O2/c1-2-5-3-4-1/h1-3H2
computed SMILES=O1COCC1
accession=JP008855
date=2016.01.19 (Created 2008.10.21, modified 2011.05.06)
author=TAJIMA S, GUNMA COLLEGE OF TECHNOLOGY
license=CC BY-NC-SA
exact mass=74.03678
ionization energy=70 eV
ion type=[M]+*
computed spectral entropy=2.1106449452046325
computed normalized entropy=0.7302330364385108
SPLASH=splash10-00dl-9000000000-40ce4f986bb39df796b5
submitter=submitter = University of Tokyo Team (Faculty of Engineering, University of Tokyo)
MoNA Rating=3.75

>  <NUM PEAKS>  (2361) 
18

>  <MASS SPECTRAL PEAKS>  (2361) 
14 3.48
15 16.04
29 38.07
30 2.14
31 7.43
41 4.33
42 4.39
43 23.96
44 57.06
45 26.52
55 3.16
56 1.34
57 4.81
69 1.87
71 2.19
73 99.99
74 6.52
75 1

$$$$

     RDKit          2D

  6  5  0  0  0  0  0  0  0  0999 V2000
    0.0000    0.0000    0.0000 C   0  0  0  0  0  0  0  0  0  0  0  0
   -1.2990    2.2500    0.0000 C   0  0  0  0  0  0  0  0  0  0  0  0
   -1.2990    3.7500    0.0000 C   0  0  0  0  0  0  0  0  0  0  0  0
    0.0000    1.5000    0.0000 C   0  0  0  0  0  0  0  0  0  0  0  0
   -2.5981    4.5000    0.0000 O   0  0  0  0  0  0  0  0  0  0  0  0
    1.2990    2.2500    0.0000 O   0  0  0  0  0  0  0  0  0  0  0  0
  3  2  1  0
  4  1  1  0
  4  2  1  0
  5  3  1  0
  6  4  2  0
M  END
>  <NAME>  (2362) 
4-HYDROXY-2-BUTANONE

>  <SYNONYMS>  (2362) 
HYDROXYETHYL METHYL KETONE

>  <SPECTRUM TYPE>  (2362) 
MS1

>  <INSTRUMENT TYPE>  (2362) 
EI-B

>  <INSTRUMENT>  (2362) 
HITACHI RMU-7M

>  <ION MODE>  (2362) 
P

>  <INCHIKEY>  (2362) 
LVSQXDHWDCMMRJ-UHFFFAOYSA-N

>  <FORMULA>  (2362) 
C4H8O2

>  <EXACT MASS>  (2362) 
88.052429496

>  <MW>  (2362) 
88

>  <ID>  (2362) 
JP008854

>  <CONTRIBUTOR>  (2362) 
University of Tokyo Team, {Faculty of Engineering, University of Tokyo

>  <COMMENT>  (2362) 
SMILES=OCCC(C)=O
InChI=InChI=1S/C4H8O2/c1-4(6)2-3-5/h5H,2-3H2,1H3
computed SMILES=O=C(C)CCO
accession=JP008854
date=2016.01.19 (Created 2008.10.21, modified 2011.05.06)
author=TAJIMA S, GUNMA COLLEGE OF TECHNOLOGY
license=CC BY-NC-SA
exact mass=88.05243
ionization energy=70 eV
ion type=[M]+*
computed spectral entropy=2.454490322268073
computed normalized entropy=0.7625302918818169
SPLASH=splash10-0006-9000000000-7280da5a63dca61cb6f6
submitter=submitter = University of Tokyo Team (Faculty of Engineering, University of Tokyo)
MoNA Rating=3.75

>  <NUM PEAKS>  (2362) 
25

>  <MASS SPECTRAL PEAKS>  (2362) 
14 1.68
15 9.25
26 2.35
27 10.72
28 6.7
29 7.37
30 1.21
31 13.27
39 3.42
41 5.29
42 10.32
43 99.99
44 3.69
45 8.04
55 14.41
57 4.02
58 4.96
61 10.66
69 2.01
70 19.37
71 3.62
73 5.7
74 1.27
87 1.27
88 4.83

$$$$

     RDKit          2D

  6  6  0  0  0  0  0  0  0  0999 V2000
   -1.3000   -0.7500    0.0000 C   0  0  0  0  0  0  0  0  0  0  0  0
    0.0000    1.5000    0.0000 C   0  0  0  0  0  0  0  0  0  0  0  0
    1.3000   -0.7500    0.0000 C   0  0  0  0  0  0  0  0  0  0  0  0
   -1.3000    0.7500    0.0000 O   0  0  0  0  0  0  0  0  0  0  0  0
   -0.0000   -1.5000    0.0000 O   0  0  0  0  0  0  0  0  0  0  0  0
    1.3000    0.7500    0.0000 O   0  0  0  0  0  0  0  0  0  0  0  0
  4  1  1  0
  4  2  1  0
  5  1  1  0
  5  3  1  0
  6  2  1  0
  6  3  1  0
M  END
>  <NAME>  (2363) 
1,3,5-TRIOXANE

>  <SYNONYMS>  (2363) 


>  <SPECTRUM TYPE>  (2363) 
MS1

>  <INSTRUMENT TYPE>  (2363) 
EI-B

>  <INSTRUMENT>  (2363) 
HITACHI RMU-7M

>  <ION MODE>  (2363) 
P

>  <INCHIKEY>  (2363) 
BGJSXRVXTHVRSN-UHFFFAOYSA-N

>  <FORMULA>  (2363) 
C3H6O3

>  <EXACT MASS>  (2363) 
90.03169405199999

>  <MW>  (2363) 
90

>  <ID>  (2363) 
JP008853

>  <CONTRIBUTOR>  (2363) 
University of Tokyo Team, {Faculty of Engineering, University of Tokyo

>  <COMMENT>  (2363) 
SMILES=C(O1)OCOC1
InChI=InChI=1S/C3H6O3/c1-4-2-6-3-5-1/h1-3H2
computed SMILES=O1COCOC1
accession=JP008853
date=2016.01.19 (Created 2008.10.21, modified 2011.05.06)
author=TAJIMA S, GUNMA COLLEGE OF TECHNOLOGY
license=CC BY-NC-SA
exact mass=90.03169
ionization energy=70 eV
ion type=[M]+*
computed spectral entropy=1.6448433013241366
computed normalized entropy=0.6619336390219996
SPLASH=splash10-001i-9000000000-da09301d959dfad0cdf5
submitter=submitter = University of Tokyo Team (Faculty of Engineering, University of Tokyo)
MoNA Rating=3.75

>  <NUM PEAKS>  (2363) 
12

>  <MASS SPECTRAL PEAKS>  (2363) 
18 3.74
28 7.56
29 14.81
30 4.66
31 99.99
32 7.63
41 1.53
43 2.21
55 1.45
57 1.76
61 35.27
89 18.93

$$$$

     RDKit          2D

  8  7  0  0  0  0  0  0  0  0999 V2000
   -1.9486    5.6250    0.0000 C   0  0  0  0  0  0  0  0  0  0  0  0
   -0.6495    3.3750    0.0000 C   0  0  0  0  0  0  0  0  0  0  0  0
   -3.2476    3.3750    0.0000 C   0  0  0  0  0  0  0  0  0  0  0  0
    0.6495    4.1250    0.0000 C   0  0  0  0  0  0  0  0  0  0  0  0
   -4.5466    4.1250    0.0000 C   0  0  0  0  0  0  0  0  0  0  0  0
   -1.9486    4.1250    0.0000 C   0  0  0  0  0  0  0  0  0  0  0  0
    1.9486    3.3750    0.0000 O   0  0  0  0  0  0  0  0  0  0  0  0
   -5.8457    3.3750    0.0000 O   0  0  0  0  0  0  0  0  0  0  0  0
  4  2  1  0
  5  3  1  0
  6  1  1  0
  6  2  1  0
  6  3  1  0
  7  4  1  0
  8  5  1  0
M  END
>  <NAME>  (2364) 
3-METHYL-1,5-PENTANEDIOL

>  <SYNONYMS>  (2364) 


>  <SPECTRUM TYPE>  (2364) 
MS1

>  <INSTRUMENT TYPE>  (2364) 
EI-B

>  <INSTRUMENT>  (2364) 
HITACHI RMU-7M

>  <ION MODE>  (2364) 
P

>  <INCHIKEY>  (2364) 
SXFJDZNJHVPHPH-UHFFFAOYSA-N

>  <FORMULA>  (2364) 
C6H14O2

>  <EXACT MASS>  (2364) 
118.099379688

>  <MW>  (2364) 
118

>  <ID>  (2364) 
JP008852

>  <CONTRIBUTOR>  (2364) 
University of Tokyo Team, {Faculty of Engineering, University of Tokyo

>  <COMMENT>  (2364) 
SMILES=OCCC(C)CCO
InChI=InChI=1S/C6H14O2/c1-6(2-4-7)3-5-8/h6-8H,2-5H2,1H3
computed SMILES=OCCC(C)CCO
accession=JP008852
date=2016.01.19 (Created 2008.10.21, modified 2011.05.06)
author=TAJIMA S, GUNMA COLLEGE OF TECHNOLOGY
license=CC BY-NC-SA
exact mass=118.09938
ionization energy=70 eV
ion type=[M]+*
computed spectral entropy=3.086416349164962
computed normalized entropy=0.8752412941387816
SPLASH=splash10-05mo-9000000000-f69f7bc748cd2950ac3b
submitter=submitter = University of Tokyo Team (Faculty of Engineering, University of Tokyo)
MoNA Rating=3.75

>  <NUM PEAKS>  (2364) 
34

>  <MASS SPECTRAL PEAKS>  (2364) 
15 3.9
18 18.19
19 4.16
27 25.97
29 40.26
30 3.9
31 61.04
39 22.08
40 4.16
41 89.61
42 63.64
43 74.03
44 20.78
45 18.19
53 7.79
54 11.04
55 99.99
56 48.05
57 50.65
58 10.39
67 81.82
68 7.79
69 46.75
70 65.58
71 39.61
72 6.49
77 4.68
81 9.09
82 28.57
83 8.44
85 5.32
87 5.19
88 3.77
101 4.94

$$$$

     RDKit          2D

  5  4  0  0  0  0  0  0  0  0999 V2000
   -0.0000   -0.0000    0.0000 C   0  0  0  0  0  0  0  0  0  0  0  0
   -1.2990    3.7500    0.0000 C   0  0  0  0  0  0  0  0  0  0  0  0
    0.0000    1.5000    0.0000 C   0  0  0  0  0  0  0  0  0  0  0  0
   -1.2990    2.2500    0.0000 C   0  0  0  0  0  0  0  0  0  0  0  0
   -2.5981    1.5000    0.0000 N   0  0  0  0  0  0  0  0  0  0  0  0
  3  1  1  0
  4  2  1  0
  4  3  1  0
  5  4  1  0
M  END
>  <NAME>  (2365) 
1-METHYLPROPYLAMINE

>  <SYNONYMS>  (2365) 
SEC-BUTYLAMINE

>  <SPECTRUM TYPE>  (2365) 
MS1

>  <INSTRUMENT TYPE>  (2365) 
EI-B

>  <INSTRUMENT>  (2365) 
HITACHI RMU-7M

>  <ION MODE>  (2365) 
P

>  <INCHIKEY>  (2365) 
BHRZNVHARXXAHW-UHFFFAOYSA-N

>  <FORMULA>  (2365) 
C4H11N

>  <EXACT MASS>  (2365) 
73.08914935199999

>  <MW>  (2365) 
73

>  <ID>  (2365) 
JP008851

>  <CONTRIBUTOR>  (2365) 
University of Tokyo Team, {Faculty of Engineering, University of Tokyo

>  <COMMENT>  (2365) 
SMILES=CCC(C)N
InChI=InChI=1S/C4H11N/c1-3-4(2)5/h4H,3,5H2,1-2H3
computed SMILES=NC(C)CC
accession=JP008851
date=2016.01.19 (Created 2008.10.21, modified 2011.05.06)
author=TAJIMA S, GUNMA COLLEGE OF TECHNOLOGY
license=CC BY-NC-SA
exact mass=73.08915
ionization energy=70 eV
ion type=[M]+*
computed spectral entropy=1.7745123120354935
computed normalized entropy=0.6263249874063433
SPLASH=splash10-0006-9000000000-52793056741c356b2517
submitter=submitter = University of Tokyo Team (Faculty of Engineering, University of Tokyo)
MoNA Rating=3.75

>  <NUM PEAKS>  (2365) 
17

>  <MASS SPECTRAL PEAKS>  (2365) 
15 2.44
27 5.18
28 5.24
29 3.96
30 4.65
39 2.21
41 10.06
42 6.86
43 3.81
44 99.99
45 8.38
55 2.97
56 2.44
57 2.21
58 9.15
59 1.14
72 1.75

$$$$

     RDKit          2D

  8  7  0  0  0  0  0  0  0  0999 V2000
    1.8983    1.9620    0.0000 C   0  0  0  0  0  0  0  0  0  0  0  0
   -1.2488    4.0111    0.0000 C   0  0  0  0  0  0  0  0  0  0  0  0
   -3.2978    3.4620    0.0000 C   0  0  0  0  0  0  0  0  0  0  0  0
   -0.6998    1.9620    0.0000 C   0  0  0  0  0  0  0  0  0  0  0  0
    0.5993    2.7120    0.0000 C   0  0  0  0  0  0  0  0  0  0  0  0
   -1.9988    2.7120    0.0000 C   0  0  0  0  0  0  0  0  0  0  0  0
    0.5993    4.2120    0.0000 O   0  0  0  0  0  0  0  0  0  0  0  0
   -2.7488    1.4130    0.0000 O   0  0  0  0  0  0  0  0  0  0  0  0
  5  1  1  0
  5  4  1  0
  6  2  1  0
  6  3  1  0
  6  4  1  0
  7  5  1  0
  8  6  1  0
M  END
>  <NAME>  (2366) 
2-METHYL-2,4-PENTANEDIOL

>  <SYNONYMS>  (2366) 
2,4-DIHYDROXY-2-METHYLPENTANE

>  <SPECTRUM TYPE>  (2366) 
MS1

>  <INSTRUMENT TYPE>  (2366) 
EI-B

>  <INSTRUMENT>  (2366) 
HITACHI RMU-7M

>  <ION MODE>  (2366) 
P

>  <INCHIKEY>  (2366) 
SVTBMSDMJJWYQN-UHFFFAOYSA-N

>  <FORMULA>  (2366) 
C6H14O2

>  <EXACT MASS>  (2366) 
118.099379688

>  <MW>  (2366) 
118

>  <ID>  (2366) 
JP008850

>  <CONTRIBUTOR>  (2366) 
University of Tokyo Team, {Faculty of Engineering, University of Tokyo

>  <COMMENT>  (2366) 
SMILES=CC(O)CC(C)(C)O
InChI=InChI=1S/C6H14O2/c1-5(7)4-6(2,3)8/h5,7-8H,4H2,1-3H3
computed SMILES=OC(C)CC(O)(C)C
accession=JP008850
date=2016.01.19 (Created 2008.10.21, modified 2011.05.06)
author=TAJIMA S, GUNMA COLLEGE OF TECHNOLOGY
license=CC BY-NC-SA
exact mass=118.09938
ionization energy=70 eV
ion type=[M]+*
computed spectral entropy=2.3552582503127155
computed normalized entropy=0.7619624401320677
SPLASH=splash10-0a4l-9000000000-a819b17eccffc876dbbd
submitter=submitter = University of Tokyo Team (Faculty of Engineering, University of Tokyo)
MoNA Rating=3.75

>  <NUM PEAKS>  (2366) 
22

>  <MASS SPECTRAL PEAKS>  (2366) 
15 3.17
27 4.33
28 1.67
29 5.92
31 9.67
39 4.5
40 1.58
41 17.92
42 14.17
43 64.17
44 3.92
45 17.08
55 3.08
56 27.5
57 13.17
58 3.17
59 99.99
60 4.83
61 9.58
67 1
85 9.08
103 4.42

$$$$

     RDKit          2D

  9  8  0  0  0  0  0  0  0  0999 V2000
    0.9926    2.4721    0.0000 C   0  0  0  0  0  0  0  0  0  0  0  0
   -4.2035    2.4721    0.0000 C   0  0  0  0  0  0  0  0  0  0  0  0
   -4.0469    1.5836    0.0000 C   0  0  0  0  0  0  0  0  0  0  0  0
    0.8359    1.5836    0.0000 C   0  0  0  0  0  0  0  0  0  0  0  0
   -0.3064    3.2221    0.0000 C   0  0  0  0  0  0  0  0  0  0  0  0
   -2.9045    3.2221    0.0000 O   0  0  0  0  0  0  0  0  0  0  0  0
   -2.5697    1.3231    0.0000 O   0  0  0  0  0  0  0  0  0  0  0  0
   -0.6413    1.3231    0.0000 O   0  0  0  0  0  0  0  0  0  0  0  0
   -1.6055    2.4721    0.0000 Si  0  0  0  0  0  4  0  0  0  0  0  0
  5  1  2  0
  6  2  1  0
  7  3  1  0
  8  4  1  0
  9  5  1  0
  9  6  1  0
  9  7  1  0
  9  8  1  0
M  END
>  <NAME>  (2367) 
TRIMETHOXYVINYLSILANE

>  <SYNONYMS>  (2367) 


>  <SPECTRUM TYPE>  (2367) 
MS1

>  <INSTRUMENT TYPE>  (2367) 
EI-B

>  <INSTRUMENT>  (2367) 
HITACHI RMU-7M

>  <ION MODE>  (2367) 
P

>  <INCHIKEY>  (2367) 
NKSJNEHGWDZZQF-UHFFFAOYSA-N

>  <FORMULA>  (2367) 
C5H12O3Si

>  <EXACT MASS>  (2367) 
148.055570774

>  <MW>  (2367) 
148

>  <ID>  (2367) 
JP008849

>  <CONTRIBUTOR>  (2367) 
University of Tokyo Team, {Faculty of Engineering, University of Tokyo

>  <COMMENT>  (2367) 
SMILES=C=C[Si](OC)(OC)OC
InChI=InChI=1S/C5H12O3Si/c1-5-9(6-2,7-3)8-4/h5H,1H2,2-4H3
computed SMILES=O(C)[Si](OC)(OC)C=C
accession=JP008849
date=2016.01.19 (Created 2008.10.21, modified 2011.05.06)
author=TAJIMA S, GUNMA COLLEGE OF TECHNOLOGY
license=CC BY-NC-SA
exact mass=148.05557
ionization energy=70 eV
ion type=[M]+*
computed spectral entropy=2.895496844532563
computed normalized entropy=0.790350244984003
SPLASH=splash10-00dl-6900000000-b5bf9b21021459eb629a
submitter=submitter = University of Tokyo Team (Faculty of Engineering, University of Tokyo)
MoNA Rating=3.75

>  <NUM PEAKS>  (2367) 
39

>  <MASS SPECTRAL PEAKS>  (2367) 
15 3.84
27 2.4
29 2.8
31 3.6
45 8.09
47 3.2
55 2
57 2.08
59 21.86
60 5.6
61 17.77
73 1.84
77 3.44
85 2.8
86 4
87 16.49
88 1.68
90 13.61
91 82.31
92 6.81
93 4.16
105 11.93
106 1.68
107 31.63
108 2.64
109 1.52
115 1.92
116 2.24
117 22.58
118 34.43
119 6.57
120 16.49
121 99.99
122 9.21
123 4.24
130 1.68
133 19.54
134 2.56
147 3.84

$$$$

     RDKit          2D

 14 14  0  0  0  0  0  0  0  0999 V2000
   -6.8197    3.1321    0.0000 C   0  0  0  0  0  0  0  0  0  0  0  0
   -5.5207    5.3821    0.0000 C   0  0  0  0  0  0  0  0  0  0  0  0
    3.5726    1.6321    0.0000 C   0  0  0  0  0  0  0  0  0  0  0  0
    3.5731    3.1329    0.0000 C   0  0  0  0  0  0  0  0  0  0  0  0
    2.2731    0.8813    0.0000 C   0  0  0  0  0  0  0  0  0  0  0  0
    2.2740    3.8829    0.0000 C   0  0  0  0  0  0  0  0  0  0  0  0
    0.9740    1.6313    0.0000 C   0  0  0  0  0  0  0  0  0  0  0  0
   -0.3245    3.8821    0.0000 C   0  0  0  0  0  0  0  0  0  0  0  0
   -4.2216    3.1321    0.0000 C   0  0  0  0  0  0  0  0  0  0  0  0
   -5.5207    3.8821    0.0000 C   0  0  0  0  0  0  0  0  0  0  0  0
    0.9745    3.1321    0.0000 C   0  0  0  0  0  0  0  0  0  0  0  0
   -1.6236    3.1321    0.0000 C   0  0  0  0  0  0  0  0  0  0  0  0
   -1.6236    1.6321    0.0000 O   0  0  0  0  0  0  0  0  0  0  0  0
   -2.9226    3.8821    0.0000 O   0  0  0  0  0  0  0  0  0  0  0  0
  4  3  2  0
  5  3  1  0
  6  4  1  0
  7  5  2  0
 10  1  1  0
 10  2  1  0
 10  9  1  0
 11  6  2  0
 11  7  1  0
 11  8  1  0
 12  8  1  0
 13 12  2  0
 14  9  1  0
 14 12  1  0
M  END
>  <NAME>  (2368) 
ISOBUTYL PHENYLACETATE

>  <SYNONYMS>  (2368) 
PHENYLACETIC ACID ISOBUTYL ESTER

>  <SPECTRUM TYPE>  (2368) 
MS1

>  <INSTRUMENT TYPE>  (2368) 
EI-B

>  <INSTRUMENT>  (2368) 
HITACHI RMU-7M

>  <ION MODE>  (2368) 
P

>  <INCHIKEY>  (2368) 
RJASFPFZACBKBE-UHFFFAOYSA-N

>  <FORMULA>  (2368) 
C12H16O2

>  <EXACT MASS>  (2368) 
192.115029752

>  <MW>  (2368) 
192

>  <ID>  (2368) 
JP008848

>  <CONTRIBUTOR>  (2368) 
University of Tokyo Team, {Faculty of Engineering, University of Tokyo

>  <COMMENT>  (2368) 
SMILES=CC(C)COC(=O)Cc(c1)cccc1
InChI=InChI=1S/C12H16O2/c1-10(2)9-14-12(13)8-11-6-4-3-5-7-11/h3-7,10H,8-9H2,1-2H3
computed SMILES=O=C(OCC(C)C)CC=1C=CC=CC1
accession=JP008848
date=2016.01.19 (Created 2008.10.21, modified 2011.05.06)
author=TAJIMA S, GUNMA COLLEGE OF TECHNOLOGY
license=CC BY-NC-SA
exact mass=192.11503
ionization energy=70 eV
ion type=[M]+*
computed spectral entropy=2.4736109592754927
computed normalized entropy=0.7592196641225438
SPLASH=splash10-0006-9100000000-0292ab122c6decdbfa95
submitter=submitter = University of Tokyo Team (Faculty of Engineering, University of Tokyo)
MoNA Rating=3.75

>  <NUM PEAKS>  (2368) 
26

>  <MASS SPECTRAL PEAKS>  (2368) 
27 5.27
28 2.97
29 27.67
39 10.39
41 34.87
42 1.85
43 5.12
51 3.12
55 2.23
56 6.31
57 69.14
58 3.12
62 1.04
63 3.78
65 14.61
71 2.15
89 3.56
90 3.12
91 99.99
92 30.04
93 2
119 8.09
136 32.12
137 11.13
138 1.04
192 2.82

$$$$

     RDKit          2D

  7  6  0  0  0  0  0  0  0  0999 V2000
    1.9486    2.6250    0.0000 C   0  0  0  0  0  0  0  0  0  0  0  0
   -4.5466    3.3750    0.0000 C   0  0  0  0  0  0  0  0  0  0  0  0
    0.6495    3.3750    0.0000 C   0  0  0  0  0  0  0  0  0  0  0  0
   -0.6495    2.6250    0.0000 C   0  0  0  0  0  0  0  0  0  0  0  0
   -1.9486    3.3750    0.0000 C   0  0  0  0  0  0  0  0  0  0  0  0
   -1.9486    4.8750    0.0000 O   0  0  0  0  0  0  0  0  0  0  0  0
   -3.2476    2.6250    0.0000 O   0  0  0  0  0  0  0  0  0  0  0  0
  3  1  1  0
  4  3  1  0
  5  4  1  0
  6  5  2  0
  7  2  1  0
  7  5  1  0
M  END
>  <NAME>  (2369) 
METHYL BUTYRATE

>  <SYNONYMS>  (2369) 
BUTANOIC ACID METHYL ESTER

>  <SPECTRUM TYPE>  (2369) 
MS1

>  <INSTRUMENT TYPE>  (2369) 
EI-B

>  <INSTRUMENT>  (2369) 
HITACHI RMU-7M

>  <ION MODE>  (2369) 
P

>  <INCHIKEY>  (2369) 
UUIQMZJEGPQKFD-UHFFFAOYSA-N

>  <FORMULA>  (2369) 
C5H10O2

>  <EXACT MASS>  (2369) 
102.06807956

>  <MW>  (2369) 
102

>  <ID>  (2369) 
JP008847

>  <CONTRIBUTOR>  (2369) 
University of Tokyo Team, {Faculty of Engineering, University of Tokyo

>  <COMMENT>  (2369) 
SMILES=CCCC(=O)OC
InChI=InChI=1S/C5H10O2/c1-3-4-5(6)7-2/h3-4H2,1-2H3
computed SMILES=O=C(OC)CCC
accession=JP008847
date=2016.01.19 (Created 2008.10.21, modified 2011.05.06)
author=TAJIMA S, GUNMA COLLEGE OF TECHNOLOGY
license=CC BY-NC-SA
exact mass=102.06808
ionization energy=70 eV
ion type=[M]+*
computed spectral entropy=2.488084678662877
computed normalized entropy=0.7388969678594801
SPLASH=splash10-00dl-9000000000-ba948fad382703d250d8
submitter=submitter = University of Tokyo Team (Faculty of Engineering, University of Tokyo)
MoNA Rating=3.75

>  <NUM PEAKS>  (2369) 
29

>  <MASS SPECTRAL PEAKS>  (2369) 
15 16.68
26 2.4
27 22.58
28 3.59
29 7.61
31 3.51
33 1.25
38 1.65
39 11.77
40 2
41 29.14
42 14.32
43 99.99
44 5
45 3.71
55 8.76
57 1.05
59 24.29
69 1.65
70 1.05
71 65.2
72 3
74 81.87
75 2.95
77 1
87 20.23
88 1
101 1
102 1.9

$$$$

     RDKit          2D

  7  6  0  0  0  0  0  0  0  0999 V2000
    1.6238    1.6875    0.0000 C   0  0  0  0  0  0  0  0  0  0  0  0
    0.3248    3.9375    0.0000 C   0  0  0  0  0  0  0  0  0  0  0  0
   -3.5724    1.6875    0.0000 C   0  0  0  0  0  0  0  0  0  0  0  0
   -2.2733    3.9375    0.0000 C   0  0  0  0  0  0  0  0  0  0  0  0
   -0.9743    1.6875    0.0000 O   0  0  0  0  0  0  0  0  0  0  0  0
    0.3248    2.4375    0.0000 Si  0  0  0  0  0  4  0  0  0  0  0  0
   -2.2733    2.4375    0.0000 Si  0  0  0  0  0  4  0  0  0  0  0  0
  6  1  1  0
  6  2  1  0
  6  5  1  0
  7  3  1  0
  7  4  1  0
  7  5  1  0
M  END
>  <NAME>  (2370) 
1,1,3,3-TETRAMETHYLDISILOXANE

>  <SYNONYMS>  (2370) 


>  <SPECTRUM TYPE>  (2370) 
MS1

>  <INSTRUMENT TYPE>  (2370) 
EI-B

>  <INSTRUMENT>  (2370) 
HITACHI RMU-7M

>  <ION MODE>  (2370) 
P

>  <INCHIKEY>  (2370) 
NVYQDQZEMGUESH-UHFFFAOYSA-N

>  <FORMULA>  (2370) 
C4H14OSi2

>  <EXACT MASS>  (2370) 
134.058318128

>  <MW>  (2370) 
134

>  <ID>  (2370) 
JP008846

>  <CONTRIBUTOR>  (2370) 
University of Tokyo Team, {Faculty of Engineering, University of Tokyo

>  <COMMENT>  (2370) 
SMILES=C[SiH](C)O[SiH](C)C
InChI=InChI=1S/C4H14OSi2/c1-6(2)5-7(3)4/h6-7H,1-4H3
computed SMILES=O([SiH](C)C)[SiH](C)C
accession=JP008846
date=2016.01.19 (Created 2008.10.21, modified 2011.05.06)
author=TAJIMA S, GUNMA COLLEGE OF TECHNOLOGY
license=CC BY-NC-SA
exact mass=134.05832
ionization energy=70 eV
ion type=[M]+*
computed spectral entropy=2.3862652816242993
computed normalized entropy=0.7508574143198329
SPLASH=splash10-01c0-5900000000-8346a815fe001ddf1841
submitter=submitter = University of Tokyo Team (Faculty of Engineering, University of Tokyo)
MoNA Rating=3.75

>  <NUM PEAKS>  (2370) 
24

>  <MASS SPECTRAL PEAKS>  (2370) 
31 4.95
42 1.77
43 9.34
44 3.96
45 14.72
51 4.18
52 4.25
57 1.77
59 28.31
60 2.05
66 2.41
73 43.17
74 3.54
75 3.89
87 2.41
89 2.41
103 8.7
117 4.25
119 99.99
120 13.45
121 8.49
133 67.94
134 9.55
135 5.1

$$$$

     RDKit          2D

  9  8  0  0  0  0  0  0  0  0999 V2000
    2.0490    4.0981    0.0000 C   0  0  0  0  0  0  0  0  0  0  0  0
    2.0490    1.0981    0.0000 C   0  0  0  0  0  0  0  0  0  0  0  0
    3.5490    2.5981    0.0000 C   0  0  0  0  0  0  0  0  0  0  0  0
   -1.5000    2.0490    0.0000 C   0  0  0  0  0  0  0  0  0  0  0  0
   -0.9510    0.0000    0.0000 C   0  0  0  0  0  0  0  0  0  0  0  0
    1.0981    0.5490    0.0000 C   0  0  0  0  0  0  0  0  0  0  0  0
    0.5490    2.5981    0.0000 O   0  0  0  0  0  0  0  0  0  0  0  0
    2.0490    2.5981    0.0000 Si  0  0  0  0  0  4  0  0  0  0  0  0
   -0.2010    1.2990    0.0000 Si  0  0  0  0  0  4  0  0  0  0  0  0
  8  1  1  0
  8  2  1  0
  8  3  1  0
  8  7  1  0
  9  4  1  0
  9  5  1  0
  9  6  1  0
  9  7  1  0
M  END
>  <NAME>  (2371) 
HEXAMETHYLDISILOXANE

>  <SYNONYMS>  (2371) 


>  <SPECTRUM TYPE>  (2371) 
MS1

>  <INSTRUMENT TYPE>  (2371) 
EI-B

>  <INSTRUMENT>  (2371) 
HITACHI RMU-7M

>  <ION MODE>  (2371) 
P

>  <INCHIKEY>  (2371) 
UQEAIHBTYFGYIE-UHFFFAOYSA-N

>  <FORMULA>  (2371) 
C6H18OSi2

>  <EXACT MASS>  (2371) 
162.089618256

>  <MW>  (2371) 
162

>  <ID>  (2371) 
JP008845

>  <CONTRIBUTOR>  (2371) 
University of Tokyo Team, {Faculty of Engineering, University of Tokyo

>  <COMMENT>  (2371) 
SMILES=C[Si](C)(C)O[Si](C)(C)C
InChI=InChI=1S/C6H18OSi2/c1-8(2,3)7-9(4,5)6/h1-6H3
computed SMILES=O([Si](C)(C)C)[Si](C)(C)C
accession=JP008845
date=2016.01.19 (Created 2008.10.21, modified 2011.05.06)
author=TAJIMA S, GUNMA COLLEGE OF TECHNOLOGY
license=CC BY-NC-SA
exact mass=162.08962
ionization energy=70 eV
ion type=[M]+*
computed spectral entropy=1.7621861834603623
computed normalized entropy=0.5984794373151624
SPLASH=splash10-0002-3900000000-6ab2723d315964c5ef48
submitter=submitter = University of Tokyo Team (Faculty of Engineering, University of Tokyo)
MoNA Rating=3.75

>  <NUM PEAKS>  (2371) 
19

>  <MASS SPECTRAL PEAKS>  (2371) 
43 1.97
44 1.04
45 5.57
52 3.48
59 6.03
66 10.43
66.5 1.45
73 14.49
74 1.16
75 1.28
87 1
117 1
131 4.29
132 1
133 1.16
147 99.99
148 15.48
149 7.65
150 1

$$$$

     RDKit          2D

  9  8  0  0  0  0  0  0  0  0999 V2000
    2.0490    4.0981    0.0000 C   0  0  0  0  0  0  0  0  0  0  0  0
    2.0490    1.0981    0.0000 C   0  0  0  0  0  0  0  0  0  0  0  0
    3.5490    2.5981    0.0000 C   0  0  0  0  0  0  0  0  0  0  0  0
   -1.5000    2.0490    0.0000 C   0  0  0  0  0  0  0  0  0  0  0  0
   -0.9510    0.0000    0.0000 C   0  0  0  0  0  0  0  0  0  0  0  0
    1.0981    0.5490    0.0000 C   0  0  0  0  0  0  0  0  0  0  0  0
    0.5490    2.5981    0.0000 N   0  0  0  0  0  0  0  0  0  0  0  0
    2.0490    2.5981    0.0000 Si  0  0  0  0  0  4  0  0  0  0  0  0
   -0.2010    1.2990    0.0000 Si  0  0  0  0  0  4  0  0  0  0  0  0
  8  1  1  0
  8  2  1  0
  8  3  1  0
  8  7  1  0
  9  4  1  0
  9  5  1  0
  9  6  1  0
  9  7  1  0
M  END
>  <NAME>  (2372) 
1,1,1,3,3,3-HEXAMETHYLDISILAZANE

>  <SYNONYMS>  (2372) 


>  <SPECTRUM TYPE>  (2372) 
MS1

>  <INSTRUMENT TYPE>  (2372) 
EI-B

>  <INSTRUMENT>  (2372) 
HITACHI RMU-7M

>  <ION MODE>  (2372) 
P

>  <INCHIKEY>  (2372) 
FFUAGWLWBBFQJT-UHFFFAOYSA-N

>  <FORMULA>  (2372) 
C6H19NSi2

>  <EXACT MASS>  (2372) 
161.105602668

>  <MW>  (2372) 
161

>  <ID>  (2372) 
JP008844

>  <CONTRIBUTOR>  (2372) 
University of Tokyo Team, {Faculty of Engineering, University of Tokyo

>  <COMMENT>  (2372) 
SMILES=C[Si](C)(C)N[Si](C)(C)C
InChI=InChI=1S/C6H19NSi2/c1-8(2,3)7-9(4,5)6/h7H,1-6H3
computed SMILES=N([Si](C)(C)C)[Si](C)(C)C
accession=JP008844
date=2016.01.19 (Created 2008.10.21, modified 2011.05.06)
author=TAJIMA S, GUNMA COLLEGE OF TECHNOLOGY
license=CC BY-NC-SA
exact mass=161.1056
ionization energy=70 eV
ion type=[M]+*
computed spectral entropy=2.511460503898437
computed normalized entropy=0.7063894899916862
SPLASH=splash10-0002-3900000000-028d6343d15c02cc8de4
submitter=submitter = University of Tokyo Team (Faculty of Engineering, University of Tokyo)
MoNA Rating=3.75

>  <NUM PEAKS>  (2372) 
35

>  <MASS SPECTRAL PEAKS>  (2372) 
15 1
43 3.6
44 1.8
45 7.3
46 1.42
47 1.63
51.5 4.09
52 1.31
57.5 2.89
58 1.04
58.5 1
59 5.61
60 1
65.5 11.88
66 4.09
66.5 1.25
72 1.42
73 12.81
74 6.76
75 10.08
85 1.04
86 1.58
100 4.52
102 1
113 1.74
114 1.04
116 1.31
130 22.34
131 4.31
132 2.18
146 99.99
147 38.64
148 11.06
149 2.45
161 2.18

$$$$

     RDKit          2D

  7  6  0  0  0  0  0  0  0  0999 V2000
   -3.8971    2.2500    0.0000 C   0  0  0  0  0  0  0  0  0  0  0  0
   -1.2990    3.7500    0.0000 C   0  0  0  0  0  0  0  0  0  0  0  0
    1.2990    2.2500    0.0000 C   0  0  0  0  0  0  0  0  0  0  0  0
   -2.5981    1.5000    0.0000 C   0  0  0  0  0  0  0  0  0  0  0  0
   -1.2990    2.2500    0.0000 C   0  0  0  0  0  0  0  0  0  0  0  0
    0.0000    1.5000    0.0000 C   0  0  0  0  0  0  0  0  0  0  0  0
   -0.0000    0.0000    0.0000 O   0  0  0  0  0  0  0  0  0  0  0  0
  4  1  1  0
  5  2  1  0
  5  4  1  0
  6  3  1  0
  6  5  1  0
  7  6  2  0
M  END
>  <NAME>  (2373) 
3-METHYL-2-PENTANONE

>  <SYNONYMS>  (2373) 


>  <SPECTRUM TYPE>  (2373) 
MS1

>  <INSTRUMENT TYPE>  (2373) 
EI-B

>  <INSTRUMENT>  (2373) 
HITACHI RMU-7M

>  <ION MODE>  (2373) 
P

>  <INCHIKEY>  (2373) 
UIHCLUNTQKBZGK-UHFFFAOYSA-N

>  <FORMULA>  (2373) 
C6H12O

>  <EXACT MASS>  (2373) 
100.088815004

>  <MW>  (2373) 
100

>  <ID>  (2373) 
JP008843

>  <CONTRIBUTOR>  (2373) 
University of Tokyo Team, {Faculty of Engineering, University of Tokyo

>  <COMMENT>  (2373) 
SMILES=CCC(C)C(C)=O
InChI=InChI=1S/C6H12O/c1-4-5(2)6(3)7/h5H,4H2,1-3H3
computed SMILES=O=C(C)C(C)CC
accession=JP008843
date=2016.01.19 (Created 2008.10.21, modified 2011.05.06)
author=TAJIMA S, GUNMA COLLEGE OF TECHNOLOGY
license=CC BY-NC-SA
exact mass=100.08882
ionization energy=70 eV
ion type=[M]+*
computed spectral entropy=2.1991795240868286
computed normalized entropy=0.7341041599414453
SPLASH=splash10-0006-9000000000-378713dba02a64b13065
submitter=submitter = University of Tokyo Team (Faculty of Engineering, University of Tokyo)
MoNA Rating=3.75

>  <NUM PEAKS>  (2373) 
20

>  <MASS SPECTRAL PEAKS>  (2373) 
15 5.52
27 8.55
28 2.27
29 29.42
31 4.07
39 5.52
41 31.34
42 2.97
43 99.99
44 2.79
45 3.49
55 3.43
56 10.93
57 32.67
58 1.4
72 20.06
73 1.05
85 3.26
100 5.58
101 1.1

$$$$

     RDKit          2D

  8  7  0  0  0  0  0  0  0  0999 V2000
    1.9486    3.3750    0.0000 C   0  0  0  0  0  0  0  0  0  0  0  0
   -5.8457    3.3750    0.0000 C   0  0  0  0  0  0  0  0  0  0  0  0
    0.6495    4.1250    0.0000 C   0  0  0  0  0  0  0  0  0  0  0  0
   -4.5466    4.1250    0.0000 C   0  0  0  0  0  0  0  0  0  0  0  0
   -0.6495    3.3750    0.0000 C   0  0  0  0  0  0  0  0  0  0  0  0
   -1.9486    4.1250    0.0000 C   0  0  0  0  0  0  0  0  0  0  0  0
   -3.2476    3.3750    0.0000 C   0  0  0  0  0  0  0  0  0  0  0  0
   -3.2476    1.8750    0.0000 O   0  0  0  0  0  0  0  0  0  0  0  0
  3  1  1  0
  4  2  1  0
  5  3  1  0
  6  5  1  0
  7  4  1  0
  7  6  1  0
  8  7  2  0
M  END
>  <NAME>  (2374) 
3-HEPTANONE

>  <SYNONYMS>  (2374) 
BUTYL ETHYL KETONE

>  <SPECTRUM TYPE>  (2374) 
MS1

>  <INSTRUMENT TYPE>  (2374) 
EI-B

>  <INSTRUMENT>  (2374) 
HITACHI RMU-7M

>  <ION MODE>  (2374) 
P

>  <INCHIKEY>  (2374) 
NGAZZOYFWWSOGK-UHFFFAOYSA-N

>  <FORMULA>  (2374) 
C7H14O

>  <EXACT MASS>  (2374) 
114.104465068

>  <MW>  (2374) 
114

>  <ID>  (2374) 
JP008842

>  <CONTRIBUTOR>  (2374) 
University of Tokyo Team, {Faculty of Engineering, University of Tokyo

>  <COMMENT>  (2374) 
SMILES=CCCCC(=O)CC
InChI=InChI=1S/C7H14O/c1-3-5-6-7(8)4-2/h3-6H2,1-2H3
computed SMILES=O=C(CC)CCCC
accession=JP008842
date=2016.01.19 (Created 2008.10.21, modified 2011.05.06)
author=TAJIMA S, GUNMA COLLEGE OF TECHNOLOGY
license=CC BY-NC-SA
exact mass=114.10447
ionization energy=70 eV
ion type=[M]+*
computed spectral entropy=2.1155970369944304
computed normalized entropy=0.7467129298373278
SPLASH=splash10-0a6r-9000000000-884a26b430e5a2b0ca43
submitter=submitter = University of Tokyo Team (Faculty of Engineering, University of Tokyo)
MoNA Rating=3.75

>  <NUM PEAKS>  (2374) 
17

>  <MASS SPECTRAL PEAKS>  (2374) 
27 11.15
28 6.24
29 45.26
39 4.38
41 18.82
42 2.28
43 10.79
55 3.24
56 1.92
57 99.99
58 3.84
72 20.68
73 1.14
85 29.2
86 1.74
114 11.03
115 3.6

$$$$

     RDKit          2D

 21 23  0  0  0  0  0  0  0  0999 V2000
   -0.3185    5.9559    0.0000 C   0  0  0  0  0  0  0  0  0  0  0  0
    4.8381    0.6104    0.0000 C   0  0  0  0  0  0  0  0  0  0  0  0
    4.5029    2.5094    0.0000 C   0  0  0  0  0  0  0  0  0  0  0  0
   -2.9500   -0.8900    0.0000 C   0  0  0  0  0  0  0  0  0  0  0  0
   -2.9500    0.6100    0.0000 C   0  0  0  0  0  0  0  0  0  0  0  0
   -1.6500   -1.6400    0.0000 C   0  0  0  0  0  0  0  0  0  0  0  0
   -1.6500    1.3600    0.0000 C   0  0  0  0  0  0  0  0  0  0  0  0
    0.1323    3.3967    0.0000 C   0  0  0  0  0  0  0  0  0  0  0  0
    0.9400   -1.6400    0.0000 C   0  0  0  0  0  0  0  0  0  0  0  0
    2.2400   -0.8900    0.0000 C   0  0  0  0  0  0  0  0  0  0  0  0
    1.0966    2.2478    0.0000 C   0  0  0  0  0  0  0  0  0  0  0  0
    2.1237    5.0683    0.0000 C   0  0  0  0  0  0  0  0  0  0  0  0
    0.9400    1.3600    0.0000 C   0  0  0  0  0  0  0  0  0  0  0  0
    0.6458    4.8069    0.0000 C   0  0  0  0  0  0  0  0  0  0  0  0
   -0.3500   -0.8900    0.0000 C   0  0  0  0  0  0  0  0  0  0  0  0
   -0.3500    0.6100    0.0000 C   0  0  0  0  0  0  0  0  0  0  0  0
    2.2400    0.6100    0.0000 C   0  0  0  0  0  0  0  0  0  0  0  0
    2.5746    2.5091    0.0000 C   0  0  0  0  0  0  0  0  0  0  0  0
    3.0881    3.9194    0.0000 C   0  0  0  0  0  0  0  0  0  0  0  0
    3.5389    1.3602    0.0000 C   0  0  0  0  0  0  0  0  0  0  0  0
    4.5653    4.1798    0.0000 O   0  0  0  0  0  0  0  0  0  0  0  0
  5  4  2  0
  6  4  1  0
  7  5  1  0
 10  9  2  0
 11  8  1  0
 14  1  1  0
 14  8  1  0
 14 12  1  0
 15  6  2  0
 15  9  1  0
 16  7  2  0
 16 13  1  0
 16 15  1  0
 17 10  1  0
 17 13  2  0
 18 11  1  0
 19 12  1  0
 19 18  1  0
 20  2  1  0
 20  3  1  0
 20 17  1  0
 20 18  1  0
 21 19  1  0
M  END
>  <NAME>  (2375) 
8-(2-NAPHTHYL)MENTHOL

>  <SYNONYMS>  (2375) 


>  <SPECTRUM TYPE>  (2375) 
MS1

>  <INSTRUMENT TYPE>  (2375) 
EI-B

>  <INSTRUMENT>  (2375) 
JEOL JMS-DX-300

>  <ION MODE>  (2375) 
P

>  <INCHIKEY>  (2375) 
AKVNKXYVBBUSEZ-UHFFFAOYSA-N

>  <FORMULA>  (2375) 
C20H26O

>  <EXACT MASS>  (2375) 
282.19836545199996

>  <MW>  (2375) 
282

>  <ID>  (2375) 
JP008841

>  <CONTRIBUTOR>  (2375) 
University of Tokyo Team, {Faculty of Engineering, University of Tokyo

>  <COMMENT>  (2375) 
SMILES=CC(C3)CC(O)C(C3)C(C)(C)c(c1)cc(c2)c(ccc2)c1
InChI=InChI=1S/C20H26O/c1-14-8-11-18(19(21)12-14)20(2,3)17-10-9-15-6-4-5-7-16(15)13-17/h4-7,9-10,13-14,18-19,21H,8,11-12H2,1-3H3
computed SMILES=OC1CC(C)CCC1C(C=2C=CC=3C=CC=CC3C2)(C)C
accession=JP008841
date=2016.01.19 (Created 2008.10.21, modified 2011.05.06)
author=HISAHIRO HAGIWARA, CHEMICAL RESEARCH INSTITUTE OF NON-AQUEOUSSOLUTIONS TOHOKU UNIV.
license=CC BY-NC-SA
exact mass=282.19837
ionization energy=70 eV
ion type=[M]+*
computed spectral entropy=2.6988763701505976
computed normalized entropy=0.7049175126783866
SPLASH=splash10-0006-9600000000-f9efbf5c7c0af8aadcaa
submitter=submitter = University of Tokyo Team (Faculty of Engineering, University of Tokyo)
MoNA Rating=3.75

>  <NUM PEAKS>  (2375) 
46

>  <MASS SPECTRAL PEAKS>  (2375) 
37 1.56
38 1.35
39 3.33
40 3.19
41 2.99
42 4.16
43 99.99
44 3.58
45 2.56
58 45.78
59 2.77
67 4.17
69 2.25
71 1.04
77 1.13
81 2.19
82 9.56
91 1.09
95 3.48
107 1.51
109 3.3
124 1.38
126 1.26
127 1.85
128 4.08
129 3.18
134 1.16
141 19.81
142 1.21
148 1.91
150 4.32
152 1.88
153 4.87
155 5.41
156 1.8
164 1.45
168 10.19
170 58.03
171 4.2
178 1.18
182 1.06
264 1.51
280 3.05
281 1.26
282 5.41
283 1.78

$$$$

     RDKit          2D

 15 16  0  0  1  0  0  0  0  0999 V2000
   -3.7989   -1.3902    0.0000 C   0  0  0  0  0  0  0  0  0  0  0  0
    1.4000    3.1100    0.0000 C   0  0  0  0  0  0  0  0  0  0  0  0
    2.6990   -3.6400    0.0000 C   0  0  0  0  0  0  0  0  0  0  0  0
   -2.5000    0.8600    0.0000 C   0  0  0  0  0  0  0  0  0  0  0  0
    2.7000    0.8600    0.0000 C   0  0  0  0  0  0  0  0  0  0  0  0
   -1.2000    1.6100    0.0000 C   0  0  0  0  0  0  0  0  0  0  0  0
    2.7000   -0.6400    0.0000 C   0  0  0  0  0  0  0  0  0  0  0  0
   -1.2000   -1.3900    0.0000 C   0  0  0  0  0  0  0  0  0  0  0  0
   -2.5000   -0.6400    0.0000 C   0  0  0  0  0  0  0  0  0  0  0  0
    1.4000    1.6100    0.0000 C   0  0  0  0  0  0  0  0  0  0  0  0
    1.4000   -2.8900    0.0000 C   0  0  0  0  0  0  0  0  0  0  0  0
    0.1000    0.8600    0.0000 C   0  0  0  0  0  0  0  0  0  0  0  0
    1.4000   -1.3900    0.0000 C   0  0  0  0  0  0  0  0  0  0  0  0
    0.1000   -0.6400    0.0000 C   0  0  0  0  0  0  0  0  0  0  0  0
    0.1010   -3.6400    0.0000 O   0  0  0  0  0  0  0  0  0  0  0  0
  6  4  1  0
  7  5  1  0
  9  1  1  0
  9  4  1  0
  9  8  2  0
 10  2  2  0
 10  5  1  0
 11  3  1  0
 12  6  1  6
 12 10  1  0
 13  7  1  0
 13 11  1  6
 14  8  1  1
 14 12  1  0
 14 13  1  0
 15 11  2  0
M  END
>  <NAME>  (2376) 
KHUSITONE

>  <SYNONYMS>  (2376) 


>  <SPECTRUM TYPE>  (2376) 
MS1

>  <INSTRUMENT TYPE>  (2376) 
EI-B

>  <INSTRUMENT>  (2376) 
JEOL JMS-DX-300

>  <ION MODE>  (2376) 
P

>  <INCHIKEY>  (2376) 
YXIJNEOZFSAIAQ-MCIONIFRSA-N

>  <FORMULA>  (2376) 
C14H20O

>  <EXACT MASS>  (2376) 
204.15141526

>  <MW>  (2376) 
204

>  <ID>  (2376) 
JP008840

>  <CONTRIBUTOR>  (2376) 
University of Tokyo Team, {Faculty of Engineering, University of Tokyo

>  <COMMENT>  (2376) 
SMILES=CC(C2)=CC([H])(C(C(C)=O)1)C([H])(C2)C(=C)CC1
InChI=InChI=1S/C14H20O/c1-9-4-6-12-10(2)5-7-13(11(3)15)14(12)8-9/h8,12-14H,2,4-7H2,1,3H3/t12-,13-,14+/m1/s1
computed SMILES=O=C(C)C1CCC(=C)C2CCC(=CC12)C
accession=JP008840
date=2016.01.19 (Created 2008.10.21, modified 2011.05.06)
author=HISAHIRO HAGIWARA, CHEMICAL RESEARCH INSTITUTE OF NON-AQUEOUSSOLUTIONS TOHOKU UNIV.
license=CC BY-NC-SA
exact mass=204.15142
ionization energy=70 eV
ion type=[M]+*
computed spectral entropy=3.315688610930584
computed normalized entropy=0.9050451258090413
SPLASH=splash10-03dl-7900000000-84e5d659ea41adde7984
submitter=submitter = University of Tokyo Team (Faculty of Engineering, University of Tokyo)
MoNA Rating=3.75

>  <NUM PEAKS>  (2376) 
39

>  <MASS SPECTRAL PEAKS>  (2376) 
39 7.47
41 16.68
43 47.35
53 6.76
55 14.62
57 9.56
65 5.93
67 8.97
69 10.67
71 10.41
77 12.64
79 15.33
81 25.87
86 5.46
91 23.61
93 15.84
95 7.21
99 17.73
105 42.36
106 6.21
107 7.11
109 5.01
117 7.11
119 22.47
121 5.38
129 5.09
131 10.76
133 10.71
134 5.46
145 9.69
147 7.13
149 15.05
159 14.92
160 6.27
161 99.99
162 15.99
167 6.18
175 12.95
204 22.19

$$$$

     RDKit          2D

 15 16  0  0  1  0  0  0  0  0999 V2000
    2.6990   -3.6400    0.0000 C   0  0  0  0  0  0  0  0  0  0  0  0
    1.4000    3.1100    0.0000 C   0  0  0  0  0  0  0  0  0  0  0  0
    1.4000   -2.8900    0.0000 C   0  0  0  0  0  0  0  0  0  0  0  0
    2.7000    0.8600    0.0000 C   0  0  0  0  0  0  0  0  0  0  0  0
   -2.5000    0.8600    0.0000 C   0  0  0  0  0  0  0  0  0  0  0  0
    2.7000   -0.6400    0.0000 C   0  0  0  0  0  0  0  0  0  0  0  0
   -1.2000    1.6100    0.0000 C   0  0  0  0  0  0  0  0  0  0  0  0
   -1.2000   -1.3900    0.0000 C   0  0  0  0  0  0  0  0  0  0  0  0
   -3.7989   -1.3902    0.0000 C   0  0  0  0  0  0  0  0  0  0  0  0
    1.4000    1.6100    0.0000 C   0  0  0  0  0  0  0  0  0  0  0  0
   -2.5000   -0.6400    0.0000 C   0  0  0  0  0  0  0  0  0  0  0  0
    1.4000   -1.3900    0.0000 C   0  0  0  0  0  0  0  0  0  0  0  0
    0.1000    0.8600    0.0000 C   0  0  0  0  0  0  0  0  0  0  0  0
    0.1000   -0.6400    0.0000 C   0  0  0  0  0  0  0  0  0  0  0  0
   -5.0981   -0.6404    0.0000 O   0  0  0  0  0  0  0  0  0  0  0  0
  3  1  2  0
  6  4  1  0
  7  5  1  0
 10  2  2  0
 10  4  1  0
 11  5  1  0
 11  8  2  0
 11  9  1  0
 12  3  1  6
 12  6  1  0
 13  7  1  6
 13 10  1  0
 14  8  1  1
 14 12  1  0
 14 13  1  0
 15  9  2  0
M  END
>  <NAME>  (2377) 
KHUSILAL

>  <SYNONYMS>  (2377) 


>  <SPECTRUM TYPE>  (2377) 
MS1

>  <INSTRUMENT TYPE>  (2377) 
EI-B

>  <INSTRUMENT>  (2377) 
JEOL JMS-DX-300

>  <ION MODE>  (2377) 
P

>  <INCHIKEY>  (2377) 
CYPSKZONDWFFBC-BFHYXJOUSA-N

>  <FORMULA>  (2377) 
C14H18O

>  <EXACT MASS>  (2377) 
202.135765196

>  <MW>  (2377) 
202

>  <ID>  (2377) 
JP008839

>  <CONTRIBUTOR>  (2377) 
University of Tokyo Team, {Faculty of Engineering, University of Tokyo

>  <COMMENT>  (2377) 
SMILES=O=CC(C2)=CC([H])(C(C=C)1)C([H])(C2)C(=C)CC1
InChI=InChI=1S/C14H18O/c1-3-12-6-4-10(2)13-7-5-11(9-15)8-14(12)13/h3,8-9,12-14H,1-2,4-7H2/t12-,13+,14+/m0/s1
computed SMILES=O=CC1=CC2C(C=C)CCC(=C)C2CC1
accession=JP008839
date=2016.01.19 (Created 2008.10.21, modified 2011.05.06)
author=HISAHIRO HAGIWARA, CHEMICAL RESEARCH INSTITUTE OF NON-AQUEOUSSOLUTIONS TOHOKU UNIV.
license=CC BY-NC-SA
exact mass=202.13577
ionization energy=70 eV
ion type=[M]+*
computed spectral entropy=3.7330341933108797
computed normalized entropy=0.9155119345109304
SPLASH=splash10-00nf-8900000000-d003875f2762a0f1c0c2
submitter=submitter = University of Tokyo Team (Faculty of Engineering, University of Tokyo)
MoNA Rating=3.75

>  <NUM PEAKS>  (2377) 
59

>  <MASS SPECTRAL PEAKS>  (2377) 
39 46.9
41 54.93
51 20.38
52 9.72
53 26.6
54 13.24
55 16.57
63 0.86
65 26.72
66 7.94
67 26.98
71 6.71
77 59.9
78 21.03
79 76.75
80 15.56
81 16.5
91 99.99
92 22.46
93 22.32
94 5.94
103 12
104 8.52
105 46.97
106 9.51
107 29.26
115 19.54
116 8.05
117 44.92
118 9.23
119 39.17
120 12.23
121 5.9
128 13.65
129 17.11
130 9.41
131 35.7
132 61.13
133 33.9
134 11.94
141 5.64
143 9.49
144 5.1
145 13.87
146 7.04
148 8.02
155 6
156 8.95
157 5.94
159 31.42
160 7.16
169 12.21
171 6.22
173 12.04
174 7.47
177 20.57
184 7.85
202 28.26
203 1.37

$$$$

     RDKit          2D

 17 18  0  0  0  0  0  0  0  0999 V2000
   -9.0951    1.2510    0.0000 C   0  0  0  0  0  0  0  0  0  0  0  0
   -7.7964   -0.9992    0.0000 C   0  0  0  0  0  0  0  0  0  0  0  0
   -1.3000   -1.7500    0.0000 C   0  0  0  0  0  0  0  0  0  0  0  0
    1.3000   -1.7500    0.0000 C   0  0  0  0  0  0  0  0  0  0  0  0
   -2.6000   -1.0000    0.0000 C   0  0  0  0  0  0  0  0  0  0  0  0
    2.6000   -1.0000    0.0000 C   0  0  0  0  0  0  0  0  0  0  0  0
   -6.4970    1.2506    0.0000 C   0  0  0  0  0  0  0  0  0  0  0  0
   -5.1981    0.5004    0.0000 C   0  0  0  0  0  0  0  0  0  0  0  0
   -1.3000    1.2500    0.0000 C   0  0  0  0  0  0  0  0  0  0  0  0
   -7.7962    0.5008    0.0000 C   0  0  0  0  0  0  0  0  0  0  0  0
    0.0000   -1.0000    0.0000 C   0  0  0  0  0  0  0  0  0  0  0  0
   -2.6000    0.5000    0.0000 C   0  0  0  0  0  0  0  0  0  0  0  0
    0.0000    0.5000    0.0000 C   0  0  0  0  0  0  0  0  0  0  0  0
    2.6000    0.5000    0.0000 C   0  0  0  0  0  0  0  0  0  0  0  0
    3.8989    1.2502    0.0000 O   0  0  0  0  0  0  0  0  0  0  0  0
   -3.8989    1.2502    0.0000 O   0  0  0  0  0  0  0  0  0  0  0  0
    1.3000    1.2500    0.0000 O   0  0  0  0  0  0  0  0  0  0  0  0
  5  3  2  0
  6  4  2  0
  8  7  1  0
 10  1  1  0
 10  2  1  0
 10  7  2  0
 11  3  1  0
 11  4  1  0
 12  5  1  0
 12  9  2  0
 13  9  1  0
 13 11  2  0
 14  6  1  0
 15 14  2  0
 16  8  1  0
 16 12  1  0
 17 13  1  0
 17 14  1  0
M  END
>  <NAME>  (2378) 
7-(3-METHYL-2-BUTENYLOXY)COUMARIN

>  <SYNONYMS>  (2378) 


>  <SPECTRUM TYPE>  (2378) 
MS1

>  <INSTRUMENT TYPE>  (2378) 
EI-B

>  <INSTRUMENT>  (2378) 
JEOL JMS-DX-300

>  <ION MODE>  (2378) 
P

>  <INCHIKEY>  (2378) 
SMHJTSOVVRGDEO-UHFFFAOYSA-N

>  <FORMULA>  (2378) 
C14H14O3

>  <EXACT MASS>  (2378) 
230.09429430799997

>  <MW>  (2378) 
230

>  <ID>  (2378) 
JP008838

>  <CONTRIBUTOR>  (2378) 
University of Tokyo Team, {Faculty of Engineering, University of Tokyo

>  <COMMENT>  (2378) 
SMILES=CC(C)=CCOc(c1)cc(O2)c(C=CC(=O)2)c1
InChI=InChI=1S/C14H14O3/c1-10(2)7-8-16-12-5-3-11-4-6-14(15)17-13(11)9-12/h3-7,9H,8H2,1-2H3
computed SMILES=O=C1OC=2C=C(OCC=C(C)C)C=CC2C=C1
accession=JP008838
date=2016.01.19 (Created 2008.10.21, modified 2011.05.06)
author=HISAHIRO HAGIWARA, CHEMICAL RESEARCH INSTITUTE OF NON-AQUEOUSSOLUTIONS TOHOKU UNIV.
license=CC BY-NC-SA
exact mass=230.09429
ionization energy=70 eV
ion type=[M]+*
computed spectral entropy=2.8392651292781657
computed normalized entropy=0.7863001037315224
SPLASH=splash10-02t9-9500000000-6962d0cb1e7a78d48dfe
submitter=submitter = University of Tokyo Team (Faculty of Engineering, University of Tokyo)
MoNA Rating=3.75

>  <NUM PEAKS>  (2378) 
37

>  <MASS SPECTRAL PEAKS>  (2378) 
38 4.82
39 27.06
41 68.91
42 0.83
44 2.11
50 6.52
51 13.7
52 5.03
53 30.2
54 2.36
55 1.99
62 2.81
63 7.47
64 2.75
65 6.08
66 2.28
67 43.13
68 33.74
69 62.47
70 3.37
77 8.71
78 9.12
79 2.13
89 3.85
105 10.55
106 3.21
133 3.46
134 55.13
135 4.49
155 3.04
161 2.05
162 99.99
163 10.7
164 2.32
175 2.71
213 3.62
230 5.34

$$$$

     RDKit          2D

 19 20  0  0  0  0  0  0  0  0999 V2000
   11.7031    0.7269    0.0000 C   0  0  0  0  0  0  0  0  0  0  0  0
   -3.9180    0.7286    0.0000 C   0  0  0  0  0  0  0  0  0  0  0  0
    6.4851    0.7054    0.0000 C   0  0  0  0  0  0  0  0  0  0  0  0
    7.7551   -1.5446    0.0000 C   0  0  0  0  0  0  0  0  0  0  0  0
   -0.0100   -1.5190    0.0000 C   0  0  0  0  0  0  0  0  0  0  0  0
    1.3036    0.7059    0.0000 C   0  0  0  0  0  0  0  0  0  0  0  0
    7.7551    1.4554    0.0000 C   0  0  0  0  0  0  0  0  0  0  0  0
    9.1051   -0.7946    0.0000 C   0  0  0  0  0  0  0  0  0  0  0  0
   -1.2945   -0.7941    0.0000 C   0  0  0  0  0  0  0  0  0  0  0  0
   -0.0210    1.5000    0.0000 C   0  0  0  0  0  0  0  0  0  0  0  0
    5.1824   -1.5382    0.0000 C   0  0  0  0  0  0  0  0  0  0  0  0
    2.5844   -1.5254    0.0000 C   0  0  0  0  0  0  0  0  0  0  0  0
    6.4851   -0.7946    0.0000 C   0  0  0  0  0  0  0  0  0  0  0  0
    1.2890   -0.7690    0.0000 C   0  0  0  0  0  0  0  0  0  0  0  0
    9.1051    0.7054    0.0000 C   0  0  0  0  0  0  0  0  0  0  0  0
   -1.3200    0.7500    0.0000 C   0  0  0  0  0  0  0  0  0  0  0  0
   10.3979    1.4661    0.0000 O   0  0  0  0  0  0  0  0  0  0  0  0
   -2.6252    1.4893    0.0000 O   0  0  0  0  0  0  0  0  0  0  0  0
    3.8871   -0.7818    0.0000 O   0  0  0  0  0  0  0  0  0  0  0  0
  7  3  2  0
  8  4  1  0
  9  5  2  0
 10  6  1  0
 13  3  1  0
 13  4  2  0
 13 11  1  0
 14  5  1  0
 14  6  2  0
 14 12  1  0
 15  7  1  0
 15  8  2  0
 16  9  1  0
 16 10  2  0
 17  1  1  0
 17 15  1  0
 18  2  1  0
 18 16  1  0
 19 11  1  0
 19 12  1  0
M  END
>  <NAME>  (2379) 
BIS(4-METHOXYBENZYL) ETHER

>  <SYNONYMS>  (2379) 


>  <SPECTRUM TYPE>  (2379) 
MS1

>  <INSTRUMENT TYPE>  (2379) 
EI-B

>  <INSTRUMENT>  (2379) 
JEOL JMS-DX-300

>  <ION MODE>  (2379) 
P

>  <INCHIKEY>  (2379) 
SDTORDSXCYSNTD-UHFFFAOYSA-N

>  <FORMULA>  (2379) 
C16H18O3

>  <EXACT MASS>  (2379) 
258.125594436

>  <MW>  (2379) 
258

>  <ID>  (2379) 
JP008837

>  <CONTRIBUTOR>  (2379) 
University of Tokyo Team, {Faculty of Engineering, University of Tokyo

>  <COMMENT>  (2379) 
SMILES=COc(c1)ccc(COCc(c2)ccc(OC)c2)c1
InChI=InChI=1S/C16H18O3/c1-17-15-7-3-13(4-8-15)11-19-12-14-5-9-16(18-2)10-6-14/h3-10H,11-12H2,1-2H3
computed SMILES=O(C1=CC=C(C=C1)COCC2=CC=C(OC)C=C2)C
accession=JP008837
date=2016.01.19 (Created 2008.10.21, modified 2011.05.06)
author=HISAHIRO HAGIWARA, CHEMICAL RESEARCH INSTITUTE OF NON-AQUEOUSSOLUTIONS TOHOKU UNIV.
license=CC BY-NC-SA
exact mass=258.12559
ionization energy=70 eV
ion type=[M]+*
computed spectral entropy=3.4811774436818825
computed normalized entropy=0.8370462390757285
SPLASH=splash10-0a6u-1690000000-c9509a0cc0e7f1846c26
submitter=submitter = University of Tokyo Team (Faculty of Engineering, University of Tokyo)
MoNA Rating=3.75

>  <NUM PEAKS>  (2379) 
64

>  <MASS SPECTRAL PEAKS>  (2379) 
41 5.98
55 2.16
65 4.25
76 5.32
77 8.14
78 3.87
79 2.31
82 2.38
90 3.3
91 21.69
98 2.93
99 2.16
113 4.09
115 6.16
119 4.58
121 48.61
122 5.06
127 2.99
128 3.04
133 8.58
135 13.86
139 4.25
141 3.63
148 4.51
149 3.48
151 3.1
152 11.88
153 10.58
154 2.53
155 2.22
165 14.61
166 5.08
167 3.61
168 2.13
169 3.17
170 2.82
178 2.71
179 2.73
180 3.96
181 7.99
183 3.92
185 4.86
193 2.24
194 4.97
195 14.52
196 4.62
197 5.76
205 2.24
209 12.23
210 6
211 5.02
212 0.44
213 2.16
225 30.66
226 10.43
227 42.46
228 9.86
239 2.29
241 50.73
242 10.78
243 2.05
256 99.99
257 18.61
258 2.07

$$$$

     RDKit          2D

 35 38  0  0  0  0  0  0  0  0999 V2000
   -4.5819    0.6569    0.0000 C   0  0  0  0  0  0  0  0  0  0  0  0
    6.5917   -3.5976    0.0000 C   0  0  0  0  0  0  0  0  0  0  0  0
    5.6634   10.6787    0.0000 C   0  0  0  0  0  0  0  0  0  0  0  0
   10.8670    1.6452    0.0000 C   0  0  0  0  0  0  0  0  0  0  0  0
    0.5605   -0.2281    0.0000 C   0  0  0  0  0  0  0  0  0  0  0  0
   -0.2995    2.2082    0.0000 C   0  0  0  0  0  0  0  0  0  0  0  0
    4.7869    1.2984    0.0000 C   0  0  0  0  0  0  0  0  0  0  0  0
    3.1069   -0.6646    0.0000 C   0  0  0  0  0  0  0  0  0  0  0  0
    3.0730    6.1491    0.0000 C   0  0  0  0  0  0  0  0  0  0  0  0
    5.6566    6.1240    0.0000 C   0  0  0  0  0  0  0  0  0  0  0  0
    6.9590    3.8927    0.0000 C   0  0  0  0  0  0  0  0  0  0  0  0
    5.6455    1.6679    0.0000 C   0  0  0  0  0  0  0  0  0  0  0  0
   -0.8204   -0.7462    0.0000 C   0  0  0  0  0  0  0  0  0  0  0  0
   -1.7592    1.7040    0.0000 C   0  0  0  0  0  0  0  0  0  0  0  0
    5.9260    0.3615    0.0000 C   0  0  0  0  0  0  0  0  0  0  0  0
    4.2734   -1.6766    0.0000 C   0  0  0  0  0  0  0  0  0  0  0  0
    3.0585    7.6240    0.0000 C   0  0  0  0  0  0  0  0  0  0  0  0
    5.6820    7.6681    0.0000 C   0  0  0  0  0  0  0  0  0  0  0  0
    8.2436    3.1679    0.0000 C   0  0  0  0  0  0  0  0  0  0  0  0
    6.9700    0.8738    0.0000 C   0  0  0  0  0  0  0  0  0  0  0  0
    0.8210    1.2491    0.0000 C   0  0  0  0  0  0  0  0  0  0  0  0
    3.3773    0.7854    0.0000 C   0  0  0  0  0  0  0  0  0  0  0  0
    4.3720    5.3991    0.0000 C   0  0  0  0  0  0  0  0  0  0  0  0
    5.6600    3.1427    0.0000 C   0  0  0  0  0  0  0  0  0  0  0  0
   -2.0197    0.2268    0.0000 C   0  0  0  0  0  0  0  0  0  0  0  0
    5.6830   -1.1636    0.0000 C   0  0  0  0  0  0  0  0  0  0  0  0
    4.3830    8.4181    0.0000 C   0  0  0  0  0  0  0  0  0  0  0  0
    8.2690    1.6238    0.0000 C   0  0  0  0  0  0  0  0  0  0  0  0
    2.2330    1.7552    0.0000 C   0  0  0  0  0  0  0  0  0  0  0  0
    4.3647    3.8991    0.0000 C   0  0  0  0  0  0  0  0  0  0  0  0
   -3.4250   -0.2978    0.0000 O   0  0  0  0  0  0  0  0  0  0  0  0
    6.8399   -2.1183    0.0000 O   0  0  0  0  0  0  0  0  0  0  0  0
    4.3706    9.9180    0.0000 O   0  0  0  0  0  0  0  0  0  0  0  0
    9.5742    0.8845    0.0000 O   0  0  0  0  0  0  0  0  0  0  0  0
    2.5008    3.2311    0.0000 O   0  0  0  0  0  0  0  0  0  0  0  0
 13  5  2  0
 14  6  1  0
 15  7  2  0
 16  8  1  0
 17  9  2  0
 18 10  1  0
 19 11  2  0
 20 12  1  0
 21  5  1  0
 21  6  2  0
 22  7  1  0
 22  8  2  0
 23  9  1  0
 23 10  2  0
 24 11  1  0
 24 12  2  0
 25 13  1  0
 25 14  2  0
 26 15  1  0
 26 16  2  0
 27 17  1  0
 27 18  2  0
 28 19  1  0
 28 20  2  0
 29 21  1  0
 29 22  1  0
 30 23  1  0
 30 24  1  0
 31  1  1  0
 31 25  1  0
 32  2  1  0
 32 26  1  0
 33  3  1  0
 33 27  1  0
 34  4  1  0
 34 28  1  0
 35 29  1  0
 35 30  1  0
M  END
>  <NAME>  (2380) 
BIS(DI-4-METHOXYPHENYLMETHYL) ETHER

>  <SYNONYMS>  (2380) 


>  <SPECTRUM TYPE>  (2380) 
MS1

>  <INSTRUMENT TYPE>  (2380) 
EI-B

>  <INSTRUMENT>  (2380) 
JEOL JMS-DX-300

>  <ION MODE>  (2380) 
P

>  <INCHIKEY>  (2380) 
JDGODNFIWJDHSS-UHFFFAOYSA-N

>  <FORMULA>  (2380) 
C30H30O5

>  <EXACT MASS>  (2380) 
470.20932406

>  <MW>  (2380) 
470

>  <ID>  (2380) 
JP008836

>  <CONTRIBUTOR>  (2380) 
University of Tokyo Team, {Faculty of Engineering, University of Tokyo

>  <COMMENT>  (2380) 
SMILES=c(c1)c(ccc(C(c(c4)ccc(c4)OC)OC(c(c3)ccc(c3)OC)c(c2)ccc(c2)OC)1)OC
InChI=InChI=1S/C30H30O5/c1-31-25-13-5-21(6-14-25)29(22-7-15-26(32-2)16-8-22)35-30(23-9-17-27(33-3)18-10-23)24-11-19-28(34-4)20-12-24/h5-20,29-30H,1-4H3
computed SMILES=O(C1=CC=C(C=C1)C(OC(C2=CC=C(OC)C=C2)C3=CC=C(OC)C=C3)C4=CC=C(OC)C=C4)C
accession=JP008836
date=2016.01.19 (Created 2008.10.21, modified 2011.05.06)
author=HISAHIRO HAGIWARA, CHEMICAL RESEARCH INSTITUTE OF NON-AQUEOUSSOLUTIONS TOHOKU UNIV.
license=CC BY-NC-SA
exact mass=470.20932
ionization energy=70 eV
ion type=[M]+*
computed spectral entropy=2.3996497938496026
computed normalized entropy=0.6645539588277078
SPLASH=splash10-004i-0190000000-48cc0361659f87399f8b
submitter=submitter = University of Tokyo Team (Faculty of Engineering, University of Tokyo)
MoNA Rating=3.75

>  <NUM PEAKS>  (2380) 
37

>  <MASS SPECTRAL PEAKS>  (2380) 
64 0.94
77 3.84
91 0.94
92 2.18
107 1.44
108 0.89
115 1.71
121 2.18
135 9.26
136 1.29
141 2.82
152 1.45
153 1.94
165 0.93
168 0.79
169 3.74
181 1.08
183 1.39
184 2.6
195 0.11
196 1.48
197 7.05
198 1.57
211 1.77
212 5.75
213 2.1
226 6.22
227 99.99
228 38.77
229 6.2
242 1.97
243 33.49
244 6.74
245 0.85
362 6.18
363 1.61
470 0.88

$$$$

     RDKit          2D

 21 22  0  0  0  0  0  0  0  0999 V2000
    3.8980    0.7372    0.0000 C   0  0  0  0  0  0  0  0  0  0  0  0
    3.9202    5.2372    0.0000 C   0  0  0  0  0  0  0  0  0  0  0  0
   -3.9180   -0.7714    0.0000 C   0  0  0  0  0  0  0  0  0  0  0  0
   10.4152    1.4832    0.0000 C   0  0  0  0  0  0  0  0  0  0  0  0
    1.3000   -0.7500    0.0000 C   0  0  0  0  0  0  0  0  0  0  0  0
    0.0300    1.5000    0.0000 C   0  0  0  0  0  0  0  0  0  0  0  0
    6.5072    3.7308    0.0000 C   0  0  0  0  0  0  0  0  0  0  0  0
    5.1936    1.5059    0.0000 C   0  0  0  0  0  0  0  0  0  0  0  0
    0.0300   -1.5000    0.0000 C   0  0  0  0  0  0  0  0  0  0  0  0
   -1.3200    0.7500    0.0000 C   0  0  0  0  0  0  0  0  0  0  0  0
    7.7917    3.0059    0.0000 C   0  0  0  0  0  0  0  0  0  0  0  0
    6.5181    0.7118    0.0000 C   0  0  0  0  0  0  0  0  0  0  0  0
    2.6027    1.4936    0.0000 C   0  0  0  0  0  0  0  0  0  0  0  0
    3.9128    3.7372    0.0000 C   0  0  0  0  0  0  0  0  0  0  0  0
    1.3000    0.7500    0.0000 C   0  0  0  0  0  0  0  0  0  0  0  0
    5.2081    2.9808    0.0000 C   0  0  0  0  0  0  0  0  0  0  0  0
   -1.3200   -0.7500    0.0000 C   0  0  0  0  0  0  0  0  0  0  0  0
    7.8172    1.4618    0.0000 C   0  0  0  0  0  0  0  0  0  0  0  0
   -2.6128   -1.5107    0.0000 O   0  0  0  0  0  0  0  0  0  0  0  0
    9.1224    0.7225    0.0000 O   0  0  0  0  0  0  0  0  0  0  0  0
    2.6101    2.9936    0.0000 O   0  0  0  0  0  0  0  0  0  0  0  0
  9  5  2  0
 10  6  1  0
 11  7  2  0
 12  8  1  0
 13  1  1  0
 14  2  1  0
 15  5  1  0
 15  6  2  0
 15 13  1  0
 16  7  1  0
 16  8  2  0
 16 14  1  0
 17  9  1  0
 17 10  2  0
 18 11  1  0
 18 12  2  0
 19  3  1  0
 19 17  1  0
 20  4  1  0
 20 18  1  0
 21 13  1  0
 21 14  1  0
M  END
>  <NAME>  (2381) 
BIS(1-(4-METHOXYPHENYL)ETHYL) ETHER

>  <SYNONYMS>  (2381) 


>  <SPECTRUM TYPE>  (2381) 
MS1

>  <INSTRUMENT TYPE>  (2381) 
EI-B

>  <INSTRUMENT>  (2381) 
JEOL JMS-DX-300

>  <ION MODE>  (2381) 
P

>  <INCHIKEY>  (2381) 
ADAKWJDMGHHKIK-UHFFFAOYSA-N

>  <FORMULA>  (2381) 
C18H22O3

>  <EXACT MASS>  (2381) 
286.15689456399997

>  <MW>  (2381) 
286

>  <ID>  (2381) 
JP008835

>  <CONTRIBUTOR>  (2381) 
University of Tokyo Team, {Faculty of Engineering, University of Tokyo

>  <COMMENT>  (2381) 
SMILES=COc(c2)ccc(c2)C(C)OC(C)c(c1)ccc(OC)c1
InChI=InChI=1S/C18H22O3/c1-13(15-5-9-17(19-3)10-6-15)21-14(2)16-7-11-18(20-4)12-8-16/h5-14H,1-4H3
computed SMILES=O(C1=CC=C(C=C1)C(OC(C2=CC=C(OC)C=C2)C)C)C
license=CC BY-NC-SA
accession=JP008835
date=2016.01.19 (Created 2008.10.21, modified 2011.05.06)
author=HISAHIRO HAGIWARA, CHEMICAL RESEARCH INSTITUTE OF NON-AQUEOUSSOLUTIONS TOHOKU UNIV.
exact mass=286.15689
ionization energy=70 eV
ion type=[M]+*
computed spectral entropy=2.74209235834808
computed normalized entropy=0.8416240361046049
SPLASH=splash10-0019-3900000000-6f40881cde6ead765a8a
submitter=submitter = University of Tokyo Team (Faculty of Engineering, University of Tokyo)
MoNA Rating=3.75

>  <NUM PEAKS>  (2381) 
26

>  <MASS SPECTRAL PEAKS>  (2381) 
39 8.02
43 9.33
51 6.19
63 5.78
65 15.77
77 15.98
78 5.39
79 7.94
89 5.35
91 28.37
92 5.76
94 7.87
103 7.2
105 10.2
109 13.1
119 43.15
120 6.74
121 10.75
134 82.24
135 99.99
136 24.88
137 25.37
151 5.18
152 9.05
178 7.77
286 4.46

$$$$

     RDKit          2D

 11 11  0  0  0  0  0  0  0  0999 V2000
   -2.6300   -1.5107    0.0000 C   0  0  0  0  0  0  0  0  0  0  0  0
    3.8980    2.2543    0.0000 C   0  0  0  0  0  0  0  0  0  0  0  0
   -1.3199    2.2329    0.0000 C   0  0  0  0  0  0  0  0  0  0  0  0
   -0.0499   -0.0171    0.0000 C   0  0  0  0  0  0  0  0  0  0  0  0
   -0.0499    2.9829    0.0000 C   0  0  0  0  0  0  0  0  0  0  0  0
    1.3001    0.7329    0.0000 C   0  0  0  0  0  0  0  0  0  0  0  0
   -2.6227   -0.0107    0.0000 C   0  0  0  0  0  0  0  0  0  0  0  0
   -1.3199    0.7329    0.0000 C   0  0  0  0  0  0  0  0  0  0  0  0
    1.3001    2.2329    0.0000 C   0  0  0  0  0  0  0  0  0  0  0  0
   -3.9180    0.7457    0.0000 Cl  0  0  0  0  0  0  0  0  0  0  0  0
    2.5929    2.9936    0.0000 O   0  0  0  0  0  0  0  0  0  0  0  0
  5  3  2  0
  6  4  1  0
  7  1  1  0
  8  3  1  0
  8  4  2  0
  8  7  1  0
  9  5  1  0
  9  6  2  0
 10  7  1  0
 11  2  1  0
 11  9  1  0
M  END
>  <NAME>  (2382) 
1-CHLORO-1-(4-METHOXYPHENYL)ETHANE

>  <SYNONYMS>  (2382) 


>  <SPECTRUM TYPE>  (2382) 
MS1

>  <INSTRUMENT TYPE>  (2382) 
EI-B

>  <INSTRUMENT>  (2382) 
JEOL JMS-DX-300

>  <ION MODE>  (2382) 
P

>  <INCHIKEY>  (2382) 
ZVBHVYBULNCPQB-UHFFFAOYSA-N

>  <FORMULA>  (2382) 
C9H11ClO

>  <EXACT MASS>  (2382) 
170.049842652

>  <MW>  (2382) 
170

>  <ID>  (2382) 
JP008834

>  <CONTRIBUTOR>  (2382) 
University of Tokyo Team, {Faculty of Engineering, University of Tokyo

>  <COMMENT>  (2382) 
SMILES=COc(c1)ccc(c1)C(C)Cl
InChI=InChI=1S/C9H11ClO/c1-7(10)8-3-5-9(11-2)6-4-8/h3-7H,1-2H3
computed SMILES=ClC(C1=CC=C(OC)C=C1)C
accession=JP008834
date=2016.01.19 (Created 2008.10.21, modified 2011.05.06)
author=HISAHIRO HAGIWARA, CHEMICAL RESEARCH INSTITUTE OF NON-AQUEOUSSOLUTIONS TOHOKU UNIV.
license=CC BY-NC-SA
exact mass=170.04984
ionization energy=70 eV
ion type=[M]+*
computed spectral entropy=3.0089147628403166
computed normalized entropy=0.8050242718408714
SPLASH=splash10-000i-5900000000-62a9627913b1e5148e5d
submitter=submitter = University of Tokyo Team (Faculty of Engineering, University of Tokyo)
MoNA Rating=3.75

>  <NUM PEAKS>  (2382) 
42

>  <MASS SPECTRAL PEAKS>  (2382) 
36 11.3
38 4.28
39 10.58
41 0.26
43 2.24
50 3.91
51 7.83
52 1.91
53 1.68
62 2.46
63 7.46
64 3.21
65 14.42
66 1.95
67 1.59
68 2.08
75 1.78
77 11.76
78 3.13
79 8.33
89 4.01
90 1.89
91 26.97
92 5.39
94 1.57
102 1.82
103 10.79
104 2.87
105 18.19
106 1.82
109 3
119 19.76
120 7.51
134 40.21
135 99.99
136 11.96
137 6.47
155 3.41
165 4.01
170 14.25
171 1.59
172 4.8

$$$$

     RDKit          2D

 19 20  0  0  0  0  0  0  0  0999 V2000
   -5.8541   -2.6319    0.0000 C   0  0  0  0  0  0  0  0  0  0  0  0
    7.1415   -7.1254    0.0000 C   0  0  0  0  0  0  0  0  0  0  0  0
   -1.9525   -4.8698    0.0000 C   0  0  0  0  0  0  0  0  0  0  0  0
    7.1287   -2.6276    0.0000 C   0  0  0  0  0  0  0  0  0  0  0  0
   -0.6579   -4.1276    0.0000 C   0  0  0  0  0  0  0  0  0  0  0  0
    5.8387   -1.8776    0.0000 C   0  0  0  0  0  0  0  0  0  0  0  0
   -3.2515   -4.1198    0.0000 C   0  0  0  0  0  0  0  0  0  0  0  0
    7.1287   -4.1276    0.0000 C   0  0  0  0  0  0  0  0  0  0  0  0
   -1.9565   -1.8767    0.0000 C   0  0  0  0  0  0  0  0  0  0  0  0
    4.5387   -4.1276    0.0000 C   0  0  0  0  0  0  0  0  0  0  0  0
    0.6417   -1.8770    0.0000 C   0  0  0  0  0  0  0  0  0  0  0  0
    3.2398   -1.8774    0.0000 C   0  0  0  0  0  0  0  0  0  0  0  0
   -0.6575   -2.6267    0.0000 C   0  0  0  0  0  0  0  0  0  0  0  0
    4.5387   -2.6276    0.0000 C   0  0  0  0  0  0  0  0  0  0  0  0
   -3.2560   -2.6276    0.0000 C   0  0  0  0  0  0  0  0  0  0  0  0
    5.8387   -4.8776    0.0000 C   0  0  0  0  0  0  0  0  0  0  0  0
   -4.5563   -1.8798    0.0000 O   0  0  0  0  0  0  0  0  0  0  0  0
    5.8412   -6.3776    0.0000 O   0  0  0  0  0  0  0  0  0  0  0  0
    1.9406   -2.6272    0.0000 O   0  0  0  0  0  0  0  0  0  0  0  0
  5  3  2  0
  6  4  2  0
  7  3  1  0
  8  4  1  0
 13  5  1  0
 13  9  2  0
 13 11  1  0
 14  6  1  0
 14 10  2  0
 14 12  1  0
 15  7  2  0
 15  9  1  0
 16  8  2  0
 16 10  1  0
 17  1  1  0
 17 15  1  0
 18  2  1  0
 18 16  1  0
 19 11  1  0
 19 12  1  0
M  END
>  <NAME>  (2383) 
BIS(3-METHOXYBENZYL) ETHER

>  <SYNONYMS>  (2383) 


>  <SPECTRUM TYPE>  (2383) 
MS1

>  <INSTRUMENT TYPE>  (2383) 
EI-B

>  <INSTRUMENT>  (2383) 
JEOL JMS-DX-300

>  <ION MODE>  (2383) 
P

>  <INCHIKEY>  (2383) 
QBMDJGYKNWADIS-UHFFFAOYSA-N

>  <FORMULA>  (2383) 
C16H18O3

>  <EXACT MASS>  (2383) 
258.125594436

>  <MW>  (2383) 
258

>  <ID>  (2383) 
JP008833

>  <CONTRIBUTOR>  (2383) 
University of Tokyo Team, {Faculty of Engineering, University of Tokyo

>  <COMMENT>  (2383) 
SMILES=COc(c2)cc(cc2)COCc(c1)cc(OC)cc1
InChI=InChI=1S/C16H18O3/c1-17-15-7-3-5-13(9-15)11-19-12-14-6-4-8-16(10-14)18-2/h3-10H,11-12H2,1-2H3
computed SMILES=O(C1=CC=CC(=C1)COCC=2C=CC=C(OC)C2)C
accession=JP008833
date=2016.01.19 (Created 2008.10.21, modified 2011.05.06)
author=HISAHIRO HAGIWARA, CHEMICAL RESEARCH INSTITUTE OF NON-AQUEOUSSOLUTIONS TOHOKU UNIV.
license=CC BY-NC-SA
exact mass=258.12559
ionization energy=70 eV
ion type=[M]+*
computed spectral entropy=2.4926621822165447
computed normalized entropy=0.7650670117129934
SPLASH=splash10-00di-3900000000-e9be678f65385bf6e529
submitter=submitter = University of Tokyo Team (Faculty of Engineering, University of Tokyo)
MoNA Rating=3.75

>  <NUM PEAKS>  (2383) 
26

>  <MASS SPECTRAL PEAKS>  (2383) 
41 6.08
43 8.2
55 6.87
57 0.64
60 4.24
65 4.2
69 6.37
71 7.23
73 5.38
77 7.72
78 4.84
83 0.47
91 17.07
92 4.46
107 5.96
109 4.11
121 45.57
122 99.99
123 11.02
125 0.54
137 3.55
149 12.58
156 6.31
167 5.96
169 5.08
227 4.73

$$$$

     RDKit          2D

 19 20  0  0  0  0  0  0  0  0999 V2000
   -0.6498   -0.7489    0.0000 C   0  0  0  0  0  0  0  0  0  0  0  0
    5.8461    6.0019    0.0000 C   0  0  0  0  0  0  0  0  0  0  0  0
   -4.5485    3.0013    0.0000 C   0  0  0  0  0  0  0  0  0  0  0  0
    4.5476    0.7505    0.0000 C   0  0  0  0  0  0  0  0  0  0  0  0
   -4.5485    1.5013    0.0000 C   0  0  0  0  0  0  0  0  0  0  0  0
    5.8467    1.5005    0.0000 C   0  0  0  0  0  0  0  0  0  0  0  0
   -3.2485    3.7513    0.0000 C   0  0  0  0  0  0  0  0  0  0  0  0
    3.2481    1.5013    0.0000 C   0  0  0  0  0  0  0  0  0  0  0  0
   -3.2485    0.7513    0.0000 C   0  0  0  0  0  0  0  0  0  0  0  0
    5.8462    3.0013    0.0000 C   0  0  0  0  0  0  0  0  0  0  0  0
   -0.6496    3.7515    0.0000 C   0  0  0  0  0  0  0  0  0  0  0  0
    1.9485    3.7519    0.0000 C   0  0  0  0  0  0  0  0  0  0  0  0
   -1.9485    3.0013    0.0000 C   0  0  0  0  0  0  0  0  0  0  0  0
    3.2476    3.0021    0.0000 C   0  0  0  0  0  0  0  0  0  0  0  0
   -1.9485    1.5013    0.0000 C   0  0  0  0  0  0  0  0  0  0  0  0
    4.5467    3.7521    0.0000 C   0  0  0  0  0  0  0  0  0  0  0  0
   -0.6496    0.7511    0.0000 O   0  0  0  0  0  0  0  0  0  0  0  0
    4.5469    5.2521    0.0000 O   0  0  0  0  0  0  0  0  0  0  0  0
    0.6495    3.0017    0.0000 O   0  0  0  0  0  0  0  0  0  0  0  0
  5  3  2  0
  6  4  2  0
  7  3  1  0
  8  4  1  0
  9  5  1  0
 10  6  1  0
 13  7  2  0
 13 11  1  0
 14  8  2  0
 14 12  1  0
 15  9  2  0
 15 13  1  0
 16 10  2  0
 16 14  1  0
 17  1  1  0
 17 15  1  0
 18  2  1  0
 18 16  1  0
 19 11  1  0
 19 12  1  0
M  END
>  <NAME>  (2384) 
BIS(2-METHOXYBENZYL) ETHER

>  <SYNONYMS>  (2384) 


>  <SPECTRUM TYPE>  (2384) 
MS1

>  <INSTRUMENT TYPE>  (2384) 
EI-B

>  <INSTRUMENT>  (2384) 
JEOL JMS-DX-300

>  <ION MODE>  (2384) 
P

>  <INCHIKEY>  (2384) 
UCXQVIZWEKJYRY-UHFFFAOYSA-N

>  <FORMULA>  (2384) 
C16H18O3

>  <EXACT MASS>  (2384) 
258.125594436

>  <MW>  (2384) 
258

>  <ID>  (2384) 
JP008832

>  <CONTRIBUTOR>  (2384) 
University of Tokyo Team, {Faculty of Engineering, University of Tokyo

>  <COMMENT>  (2384) 
SMILES=COc(c2)c(ccc2)COCc(c1)c(OC)ccc1
InChI=InChI=1S/C16H18O3/c1-17-15-9-5-3-7-13(15)11-19-12-14-8-4-6-10-16(14)18-2/h3-10H,11-12H2,1-2H3
computed SMILES=O(C=1C=CC=CC1COCC=2C=CC=CC2OC)C
accession=JP008832
date=2016.01.19 (Created 2008.10.21, modified 2011.05.06)
author=HISAHIRO HAGIWARA, CHEMICAL RESEARCH INSTITUTE OF NON-AQUEOUSSOLUTIONS TOHOKU UNIV.
license=CC BY-NC-SA
exact mass=258.12559
ionization energy=70 eV
ion type=[M]+*
computed spectral entropy=2.7028508759102428
computed normalized entropy=0.743034187295662
SPLASH=splash10-00di-4910000000-c391fb1080f905b9d589
submitter=submitter = University of Tokyo Team (Faculty of Engineering, University of Tokyo)
MoNA Rating=3.75

>  <NUM PEAKS>  (2384) 
38

>  <MASS SPECTRAL PEAKS>  (2384) 
39 3.11
50 1.55
51 3.4
52 1.18
53 1
63 1.57
64 1.5
65 6.26
76 2.53
77 10.87
78 4.45
79 2.92
89 1.08
90 2.32
91 35.15
92 4.81
93 4.11
94 2.38
104 1.92
105 0.54
106 2.43
107 6.17
108 1.22
109 4.05
118 2.23
119 3.66
120 1.49
121 99.99
122 20.3
123 2.48
135 7.65
136 6.81
137 9.53
138 7.5
150 1.08
256 7.38
257 10.67
258 3.11

$$$$

     RDKit          2D

 19 20  0  0  0  0  0  0  0  0999 V2000
    3.8981   -0.7504    0.0000 C   0  0  0  0  0  0  0  0  0  0  0  0
    2.5987   -3.0002    0.0000 C   0  0  0  0  0  0  0  0  0  0  0  0
   -9.0952   -0.7508    0.0000 C   0  0  0  0  0  0  0  0  0  0  0  0
   -7.7965   -3.0010    0.0000 C   0  0  0  0  0  0  0  0  0  0  0  0
   -1.3000   -0.7500    0.0000 C   0  0  0  0  0  0  0  0  0  0  0  0
    0.0000    1.5000    0.0000 C   0  0  0  0  0  0  0  0  0  0  0  0
   -5.1971    1.5004    0.0000 C   0  0  0  0  0  0  0  0  0  0  0  0
   -3.8986   -0.7504    0.0000 C   0  0  0  0  0  0  0  0  0  0  0  0
    0.0000   -1.5000    0.0000 C   0  0  0  0  0  0  0  0  0  0  0  0
    1.3000    0.7500    0.0000 C   0  0  0  0  0  0  0  0  0  0  0  0
   -6.4966    0.7496    0.0000 C   0  0  0  0  0  0  0  0  0  0  0  0
   -5.1981   -1.5012    0.0000 C   0  0  0  0  0  0  0  0  0  0  0  0
   -2.5989    1.5002    0.0000 C   0  0  0  0  0  0  0  0  0  0  0  0
   -1.3000    0.7500    0.0000 C   0  0  0  0  0  0  0  0  0  0  0  0
   -3.8981    0.7504    0.0000 C   0  0  0  0  0  0  0  0  0  0  0  0
    1.3000   -0.7500    0.0000 C   0  0  0  0  0  0  0  0  0  0  0  0
   -6.4971   -0.7512    0.0000 C   0  0  0  0  0  0  0  0  0  0  0  0
    2.5989   -1.5002    0.0000 N   0  0  0  0  0  0  0  0  0  0  0  0
   -7.7963   -1.5010    0.0000 N   0  0  0  0  0  0  0  0  0  0  0  0
  9  5  2  0
 10  6  1  0
 11  7  2  0
 12  8  1  0
 14  5  1  0
 14  6  2  0
 14 13  1  0
 15  7  1  0
 15  8  2  0
 15 13  1  0
 16  9  1  0
 16 10  2  0
 17 11  1  0
 17 12  2  0
 18  1  1  0
 18  2  1  0
 18 16  1  0
 19  3  1  0
 19  4  1  0
 19 17  1  0
M  END
>  <NAME>  (2385) 
4,4'-METHYLENEBIS(N,N-DIMETHYLANILINE)

>  <SYNONYMS>  (2385) 


>  <SPECTRUM TYPE>  (2385) 
MS1

>  <INSTRUMENT TYPE>  (2385) 
EI-B

>  <INSTRUMENT>  (2385) 
JEOL JMS-DX-300

>  <ION MODE>  (2385) 
P

>  <INCHIKEY>  (2385) 
JNRLEMMIVRBKJE-UHFFFAOYSA-N

>  <FORMULA>  (2385) 
C17H22N2

>  <EXACT MASS>  (2385) 
254.17829870399999

>  <MW>  (2385) 
254

>  <ID>  (2385) 
JP008831

>  <CONTRIBUTOR>  (2385) 
University of Tokyo Team, {Faculty of Engineering, University of Tokyo

>  <COMMENT>  (2385) 
SMILES=CN(C)c(c2)ccc(c2)Cc(c1)ccc(N(C)C)c1
cas=101-61-1
InChI=InChI=1S/C17H22N2/c1-18(2)16-9-5-14(6-10-16)13-15-7-11-17(12-8-15)19(3)4/h5-12H,13H2,1-4H3
computed SMILES=C=1C=C(C=CC1N(C)C)CC2=CC=C(C=C2)N(C)C
accession=JP008831
date=2016.01.19 (Created 2008.10.21, modified 2011.05.06)
author=HISAHIRO HAGIWARA, CHEMICAL RESEARCH INSTITUTE OF NON-AQUEOUSSOLUTIONS TOHOKU UNIV.
license=CC BY-NC-SA
exact mass=254.1783
ionization energy=70 eV
ion type=[M]+*
computed spectral entropy=2.816616201203342
computed normalized entropy=0.7399175022141999
SPLASH=splash10-0udi-0590000000-f38b47966708b4a62b10
submitter=submitter = University of Tokyo Team (Faculty of Engineering, University of Tokyo)
MoNA Rating=3.75

>  <NUM PEAKS>  (2385) 
45

>  <MASS SPECTRAL PEAKS>  (2385) 
42 1.9
77 1.47
89 1.47
90 1.36
91 3.14
92 2.12
97 1.54
104 3.23
105 4.6
110 1.09
111 1.22
112 1.14
117 1.54
118 15.45
119 7.14
120 4.24
125 1.77
126 28.78
127 19.55
128 3.77
132 4.99
133 3.96
134 23.63
135 2.78
152 1.09
165 4.09
166 2.17
194 2.65
195 1.4
208 2.48
209 2.92
210 21.51
211 4.16
221 1.21
223 1.67
224 1.02
237 13.33
238 4.89
239 4
240 1.16
252 1.47
253 69.56
254 99.99
255 20.04
256 1.98

$$$$

     RDKit          2D

 20 21  0  0  0  0  0  0  0  0999 V2000
   -0.0084    0.0027    0.0000 C   0  0  0  0  0  0  0  0  0  0  0  0
    9.1177    3.7549    0.0000 C   0  0  0  0  0  0  0  0  0  0  0  0
   -6.5034    3.7566    0.0000 C   0  0  0  0  0  0  0  0  0  0  0  0
    3.8997    3.7335    0.0000 C   0  0  0  0  0  0  0  0  0  0  0  0
    5.1697    1.4835    0.0000 C   0  0  0  0  0  0  0  0  0  0  0  0
   -2.5954    1.5091    0.0000 C   0  0  0  0  0  0  0  0  0  0  0  0
   -1.2819    3.7339    0.0000 C   0  0  0  0  0  0  0  0  0  0  0  0
    5.1697    4.4835    0.0000 C   0  0  0  0  0  0  0  0  0  0  0  0
    6.5197    2.2335    0.0000 C   0  0  0  0  0  0  0  0  0  0  0  0
   -3.8799    2.2339    0.0000 C   0  0  0  0  0  0  0  0  0  0  0  0
   -2.6064    4.5281    0.0000 C   0  0  0  0  0  0  0  0  0  0  0  0
    2.5970    1.4899    0.0000 C   0  0  0  0  0  0  0  0  0  0  0  0
   -0.0011    1.5027    0.0000 C   0  0  0  0  0  0  0  0  0  0  0  0
    3.8997    2.2335    0.0000 C   0  0  0  0  0  0  0  0  0  0  0  0
   -1.2964    2.2591    0.0000 C   0  0  0  0  0  0  0  0  0  0  0  0
    6.5197    3.7335    0.0000 C   0  0  0  0  0  0  0  0  0  0  0  0
   -3.9054    3.7781    0.0000 C   0  0  0  0  0  0  0  0  0  0  0  0
    7.8125    4.4942    0.0000 O   0  0  0  0  0  0  0  0  0  0  0  0
   -5.2106    4.5173    0.0000 O   0  0  0  0  0  0  0  0  0  0  0  0
    1.3017    2.2463    0.0000 O   0  0  0  0  0  0  0  0  0  0  0  0
  8  4  2  0
  9  5  1  0
 10  6  2  0
 11  7  1  0
 13  1  1  0
 14  4  1  0
 14  5  2  0
 14 12  1  0
 15  6  1  0
 15  7  2  0
 15 13  1  0
 16  8  1  0
 16  9  2  0
 17 10  1  0
 17 11  2  0
 18  2  1  0
 18 16  1  0
 19  3  1  0
 19 17  1  0
 20 12  1  0
 20 13  1  0
M  END
>  <NAME>  (2386) 
2-(4-METHOXYBENZYLOXY)-2-(4-METHOXYPHENYL)ETHANE

>  <SYNONYMS>  (2386) 


>  <SPECTRUM TYPE>  (2386) 
MS1

>  <INSTRUMENT TYPE>  (2386) 
EI-B

>  <INSTRUMENT>  (2386) 
JEOL JMS-DX-300

>  <ION MODE>  (2386) 
P

>  <INCHIKEY>  (2386) 
PIHQWXYOLCJTFL-UHFFFAOYSA-N

>  <FORMULA>  (2386) 
C17H20O3

>  <EXACT MASS>  (2386) 
272.14124449999997

>  <MW>  (2386) 
272

>  <ID>  (2386) 
JP008830

>  <CONTRIBUTOR>  (2386) 
University of Tokyo Team, {Faculty of Engineering, University of Tokyo

>  <COMMENT>  (2386) 
SMILES=COc(c2)ccc(c2)COC(C)c(c1)ccc(OC)c1
InChI=InChI=1S/C17H20O3/c1-13(15-6-10-17(19-3)11-7-15)20-12-14-4-8-16(18-2)9-5-14/h4-11,13H,12H2,1-3H3
computed SMILES=O(C1=CC=C(C=C1)COC(C2=CC=C(OC)C=C2)C)C
accession=JP008830
date=2016.01.19 (Created 2008.10.21, modified 2011.05.06)
author=HISAHIRO HAGIWARA, CHEMICAL RESEARCH INSTITUTE OF NON-AQUEOUSSOLUTIONS TOHOKU UNIV.
license=CC BY-NC-SA
exact mass=272.14124
ionization energy=70 eV
ion type=[M]+*
computed spectral entropy=2.893910438853914
computed normalized entropy=0.7899172221958304
SPLASH=splash10-00dr-2900000000-047817f29ddf8fbc6b85
submitter=submitter = University of Tokyo Team (Faculty of Engineering, University of Tokyo)
MoNA Rating=3.75

>  <NUM PEAKS>  (2386) 
39

>  <MASS SPECTRAL PEAKS>  (2386) 
39 3.74
41 1.58
43 6.34
51 3.52
52 1.7
63 2.62
64 2.23
65 5.54
77 13.4
78 6.07
79 4.53
89 1.96
90 1.84
91 10.86
92 4.45
94 2.41
103 4.39
105 7.81
106 1.78
107 3.69
109 5.51
114 1.65
119 6.54
120 4.96
121 99.99
122 26.11
123 2.75
133 2.26
134 14.4
135 61.73
136 26.74
137 9.15
138 4.62
151 4.27
163 3.66
164 23.76
165 2.88
272 13.67
273 2.69

$$$$

     RDKit          2D

 23 24  0  0  0  0  0  0  0  0999 V2000
   11.7048    3.7790    0.0000 C   0  0  0  0  0  0  0  0  0  0  0  0
   -9.1122    3.7378    0.0000 C   0  0  0  0  0  0  0  0  0  0  0  0
    5.1989    6.0051    0.0000 C   0  0  0  0  0  0  0  0  0  0  0  0
    3.8853    3.7803    0.0000 C   0  0  0  0  0  0  0  0  0  0  0  0
   -1.2963    3.7807    0.0000 C   0  0  0  0  0  0  0  0  0  0  0  0
   -2.5663    6.0307    0.0000 C   0  0  0  0  0  0  0  0  0  0  0  0
    6.4834    5.2803    0.0000 C   0  0  0  0  0  0  0  0  0  0  0  0
    5.2098    2.9861    0.0000 C   0  0  0  0  0  0  0  0  0  0  0  0
   -2.5663    3.0307    0.0000 C   0  0  0  0  0  0  0  0  0  0  0  0
   -3.9163    5.2807    0.0000 C   0  0  0  0  0  0  0  0  0  0  0  0
    2.6045    6.0115    0.0000 C   0  0  0  0  0  0  0  0  0  0  0  0
    0.0064    6.0243    0.0000 C   0  0  0  0  0  0  0  0  0  0  0  0
    9.1068    3.7576    0.0000 C   0  0  0  0  0  0  0  0  0  0  0  0
   -6.5143    3.7593    0.0000 C   0  0  0  0  0  0  0  0  0  0  0  0
    3.8998    5.2551    0.0000 C   0  0  0  0  0  0  0  0  0  0  0  0
   -1.2963    5.2807    0.0000 C   0  0  0  0  0  0  0  0  0  0  0  0
    6.5089    3.7361    0.0000 C   0  0  0  0  0  0  0  0  0  0  0  0
   -3.9163    3.7807    0.0000 C   0  0  0  0  0  0  0  0  0  0  0  0
   10.4120    3.0183    0.0000 O   0  0  0  0  0  0  0  0  0  0  0  0
   -7.8071    2.9986    0.0000 O   0  0  0  0  0  0  0  0  0  0  0  0
    1.3018    5.2679    0.0000 O   0  0  0  0  0  0  0  0  0  0  0  0
    7.8140    2.9969    0.0000 O   0  0  0  0  0  0  0  0  0  0  0  0
   -5.2091    3.0200    0.0000 O   0  0  0  0  0  0  0  0  0  0  0  0
  7  3  2  0
  8  4  1  0
  9  5  2  0
 10  6  1  0
 15  3  1  0
 15  4  2  0
 15 11  1  0
 16  5  1  0
 16  6  2  0
 16 12  1  0
 17  7  1  0
 17  8  2  0
 18  9  1  0
 18 10  2  0
 19  1  1  0
 19 13  1  0
 20  2  1  0
 20 14  1  0
 21 11  1  0
 21 12  1  0
 22 13  1  0
 22 17  1  0
 23 14  1  0
 23 18  1  0
M  END
>  <NAME>  (2387) 
BIS(4-METHOXYMETHYLOXY)BENZYL ETHER

>  <SYNONYMS>  (2387) 


>  <SPECTRUM TYPE>  (2387) 
MS1

>  <INSTRUMENT TYPE>  (2387) 
EI-B

>  <INSTRUMENT>  (2387) 
JEOL JMS-DX-300

>  <ION MODE>  (2387) 
P

>  <INCHIKEY>  (2387) 
NWHIUNAHUVUFJR-UHFFFAOYSA-N

>  <FORMULA>  (2387) 
C18H22O5

>  <EXACT MASS>  (2387) 
318.146723804

>  <MW>  (2387) 
318

>  <ID>  (2387) 
JP008829

>  <CONTRIBUTOR>  (2387) 
University of Tokyo Team, {Faculty of Engineering, University of Tokyo

>  <COMMENT>  (2387) 
SMILES=COCOc(c1)ccc(COCc(c2)ccc(OCOC)c2)c1
InChI=InChI=1S/C18H22O5/c1-19-13-22-17-7-3-15(4-8-17)11-21-12-16-5-9-18(10-6-16)23-14-20-2/h3-10H,11-14H2,1-2H3
computed SMILES=O(C1=CC=C(C=C1)COCC2=CC=C(OCOC)C=C2)COC
accession=JP008829
date=2016.01.19 (Created 2008.10.21, modified 2011.05.06)
author=HISAHIRO HAGIWARA, CHEMICAL RESEARCH INSTITUTE OF NON-AQUEOUSSOLUTIONS TOHOKU UNIV.
license=CC BY-NC-SA
exact mass=318.14672
ionization energy=70 eV
ion type=[M]+*
computed spectral entropy=2.550889272790888
computed normalized entropy=0.7174794784289739
SPLASH=splash10-0002-7900000000-4650d17afbc92fbd47b3
submitter=submitter = University of Tokyo Team (Faculty of Engineering, University of Tokyo)
MoNA Rating=3.75

>  <NUM PEAKS>  (2387) 
35

>  <MASS SPECTRAL PEAKS>  (2387) 
30 1.94
45 99.99
46 3.06
51 0.19
52 1.72
77 3.74
78 3.4
89 0.26
90 3.42
91 2.17
106 6.34
107 24.08
108 7.15
109 1.6
110 1.58
119 1.73
120 14.01
121 20.01
122 4.19
123 1.74
135 3.25
136 3.28
137 2.31
148 1.81
151 25
152 18.08
153 2.31
154 1.62
167 7.46
168 2.67
180 3.38
182 0.22
274 1.87
318 1.78
348 1.79

$$$$

     RDKit          2D

 14 14  0  0  0  0  0  0  0  0999 V2000
   -1.6700    0.5394    0.0000 C   0  0  0  0  0  0  0  0  0  0  0  0
    3.5259    2.0402    0.0000 C   0  0  0  0  0  0  0  0  0  0  0  0
   -0.3708   -0.2104    0.0000 C   0  0  0  0  0  0  0  0  0  0  0  0
    8.7242    2.0406    0.0000 C   0  0  0  0  0  0  0  0  0  0  0  0
    7.4242    2.7906    0.0000 C   0  0  0  0  0  0  0  0  0  0  0  0
    8.7242    0.5406    0.0000 C   0  0  0  0  0  0  0  0  0  0  0  0
    6.1242    2.0406    0.0000 C   0  0  0  0  0  0  0  0  0  0  0  0
    7.4242   -0.2094    0.0000 C   0  0  0  0  0  0  0  0  0  0  0  0
    3.5262    0.5402    0.0000 C   0  0  0  0  0  0  0  0  0  0  0  0
    6.1242    0.5406    0.0000 C   0  0  0  0  0  0  0  0  0  0  0  0
    2.2272   -0.2100    0.0000 C   0  0  0  0  0  0  0  0  0  0  0  0
    2.2275   -1.7100    0.0000 O   0  0  0  0  0  0  0  0  0  0  0  0
    0.9281    0.5398    0.0000 O   0  0  0  0  0  0  0  0  0  0  0  0
    4.8253   -0.2096    0.0000 S   0  0  0  0  0  0  0  0  0  0  0  0
  3  1  1  0
  5  4  2  0
  6  4  1  0
  7  5  1  0
  8  6  2  0
  9  2  1  0
 10  7  2  0
 10  8  1  0
 11  9  1  0
 12 11  2  0
 13  3  1  0
 13 11  1  0
 14  9  1  0
 14 10  1  0
M  END
>  <NAME>  (2388) 
ETHYL 2-PHENYLTHIOPROPIONATE

>  <SYNONYMS>  (2388) 


>  <SPECTRUM TYPE>  (2388) 
MS1

>  <INSTRUMENT TYPE>  (2388) 
EI-B

>  <INSTRUMENT>  (2388) 
JEOL JMS-DX-300

>  <ION MODE>  (2388) 
P

>  <INCHIKEY>  (2388) 
AFQJVOVRMATZLA-UHFFFAOYSA-N

>  <FORMULA>  (2388) 
C11H14O2S

>  <EXACT MASS>  (2388) 
210.071450688

>  <MW>  (2388) 
210

>  <ID>  (2388) 
JP008826

>  <CONTRIBUTOR>  (2388) 
University of Tokyo Team, {Faculty of Engineering, University of Tokyo

>  <COMMENT>  (2388) 
SMILES=CCOC(=O)C(C)Sc(c1)cccc1
InChI=InChI=1S/C11H14O2S/c1-3-13-11(12)9(2)14-10-7-5-4-6-8-10/h4-9H,3H2,1-2H3
computed SMILES=O=C(OCC)C(SC=1C=CC=CC1)C
accession=JP008826
date=2016.01.19 (Created 2008.10.21, modified 2011.05.06)
author=HISAHIRO HAGIWARA, CHEMICAL RESEARCH INSTITUTE OF NON-AQUEOUSSOLUTIONS TOHOKU UNIV.
license=CC BY-NC-SA
exact mass=210.07145
ionization energy=70 eV
ion type=[M]+*
computed spectral entropy=2.0130944744018504
computed normalized entropy=0.6420341852888108
SPLASH=splash10-000i-1920000000-c759c900a72718ea9e0d
submitter=submitter = University of Tokyo Team (Faculty of Engineering, University of Tokyo)
MoNA Rating=3.75

>  <NUM PEAKS>  (2388) 
23

>  <MASS SPECTRAL PEAKS>  (2388) 
31 1.3
39 3.11
40 1.53
45 1.35
50 1.07
51 2.45
56 1.18
59 0.1
65 5.14
66 1.12
77 4.48
78 1.74
91 1.32
103 4.83
104 3.83
109 20.61
135 4.96
137 99.99
138 9.94
139 5.77
210 36.7
211 4.7
212 2.3

$$$$

     RDKit          2D

  7  7  0  0  0  0  0  0  0  0999 V2000
   -0.3829   -2.2600    0.0000 C   0  0  0  0  0  0  0  0  0  0  0  0
   -1.1300    1.5500    0.0000 C   0  0  0  0  0  0  0  0  0  0  0  0
    0.3700    1.5500    0.0000 C   0  0  0  0  0  0  0  0  0  0  0  0
   -1.5900    0.1200    0.0000 C   0  0  0  0  0  0  0  0  0  0  0  0
    0.8400    0.1200    0.0000 C   0  0  0  0  0  0  0  0  0  0  0  0
   -0.3800   -0.7600    0.0000 N   0  0  0  0  0  0  0  0  0  0  0  0
    2.2666   -0.3436    0.0000 O   0  0  0  0  0  0  0  0  0  0  0  0
  3  2  1  0
  4  2  1  0
  5  3  1  0
  6  1  1  0
  6  4  1  0
  6  5  1  0
  7  5  2  0
M  END
>  <NAME>  (2389) 
1-METHYL-2-PYRROLIDINONE

>  <SYNONYMS>  (2389) 


>  <SPECTRUM TYPE>  (2389) 
MS1

>  <INSTRUMENT TYPE>  (2389) 
EI-B

>  <INSTRUMENT>  (2389) 
JEOL JMS-DX-300

>  <ION MODE>  (2389) 
P

>  <INCHIKEY>  (2389) 
SECXISVLQFMRJM-UHFFFAOYSA-N

>  <FORMULA>  (2389) 
C5H9NO

>  <EXACT MASS>  (2389) 
99.068413908

>  <MW>  (2389) 
99

>  <ID>  (2389) 
JP008824

>  <CONTRIBUTOR>  (2389) 
University of Tokyo Team, {Faculty of Engineering, University of Tokyo

>  <COMMENT>  (2389) 
SMILES=CN(C1)C(=O)CC1
cas=108-27-0
InChI=InChI=1S/C5H9NO/c1-6-4-2-3-5(6)7/h2-4H2,1H3
computed SMILES=O=C1N(C)CCC1
accession=JP008824
date=2016.01.19 (Created 2008.10.21, modified 2011.05.06)
author=HISAHIRO HAGIWARA, CHEMICAL RESEARCH INSTITUTE OF NON-AQUEOUSSOLUTIONS TOHOKU UNIV.
license=CC BY-NC-SA
exact mass=99.06841
ionization energy=70 eV
ion type=[M]+*
computed spectral entropy=2.2639104971193706
computed normalized entropy=0.7688766903093626
SPLASH=splash10-0005-9000000000-47ce7569060cdb946f8c
submitter=submitter = University of Tokyo Team (Faculty of Engineering, University of Tokyo)
MoNA Rating=3.75

>  <NUM PEAKS>  (2389) 
19

>  <MASS SPECTRAL PEAKS>  (2389) 
30 5.17
39 8.78
40 2.71
41 33.02
42 42.95
43 14.65
44 67.7
45 0.24
55 3.43
56 6.69
57 2.42
58 5.53
68 4.04
69 4.37
70 9.48
71 12.87
98 70.96
99 99.99
100 8.45

$$$$

     RDKit          2D

 12 13  0  0  0  0  0  0  0  0999 V2000
    3.2476   -0.0550    0.0000 C   0  0  0  0  0  0  0  0  0  0  0  0
   -3.2476    3.6950    0.0000 C   0  0  0  0  0  0  0  0  0  0  0  0
    3.2481    1.4458    0.0000 C   0  0  0  0  0  0  0  0  0  0  0  0
    1.9481   -0.8058    0.0000 C   0  0  0  0  0  0  0  0  0  0  0  0
   -3.2481    2.1942    0.0000 C   0  0  0  0  0  0  0  0  0  0  0  0
   -1.9481    4.4458    0.0000 C   0  0  0  0  0  0  0  0  0  0  0  0
    1.9490    2.1958    0.0000 C   0  0  0  0  0  0  0  0  0  0  0  0
    0.6490   -0.0558    0.0000 C   0  0  0  0  0  0  0  0  0  0  0  0
   -1.9490    1.4442    0.0000 C   0  0  0  0  0  0  0  0  0  0  0  0
   -0.6490    3.6958    0.0000 C   0  0  0  0  0  0  0  0  0  0  0  0
    0.6495    1.4450    0.0000 C   0  0  0  0  0  0  0  0  0  0  0  0
   -0.6495    2.1950    0.0000 C   0  0  0  0  0  0  0  0  0  0  0  0
  3  1  2  0
  4  1  1  0
  5  2  2  0
  6  2  1  0
  7  3  1  0
  8  4  2  0
  9  5  1  0
 10  6  2  0
 11  7  2  0
 11  8  1  0
 12  9  2  0
 12 10  1  0
 12 11  1  0
M  END
>  <NAME>  (2390) 
BIPHENYL

>  <SYNONYMS>  (2390) 


>  <SPECTRUM TYPE>  (2390) 
MS1

>  <INSTRUMENT TYPE>  (2390) 
EI-B

>  <INSTRUMENT>  (2390) 
JEOL JMS-DX-300

>  <ION MODE>  (2390) 
P

>  <INCHIKEY>  (2390) 
ZUOUZKKEUPVFJK-UHFFFAOYSA-N

>  <FORMULA>  (2390) 
C12H10

>  <EXACT MASS>  (2390) 
154.07825032

>  <MW>  (2390) 
154

>  <ID>  (2390) 
JP008823

>  <CONTRIBUTOR>  (2390) 
University of Tokyo Team, {Faculty of Engineering, University of Tokyo

>  <COMMENT>  (2390) 
SMILES=c(c2)ccc(c2)c(c1)cccc1
InChI=InChI=1S/C12H10/c1-3-7-11(8-4-1)12-9-5-2-6-10-12/h1-10H
computed SMILES=C=1C=CC(=CC1)C=2C=CC=CC2
accession=JP008823
date=2016.01.19 (Created 2008.10.21, modified 2011.05.06)
author=HISAHIRO HAGIWARA, CHEMICAL RESEARCH INSTITUTE OF NON-AQUEOUSSOLUTIONS TOHOKU UNIV.
license=CC BY-NC-SA
exact mass=154.07825
ionization energy=70 eV
ion type=[M]+*
computed spectral entropy=2.0042240585591515
computed normalized entropy=0.7594469570887807
SPLASH=splash10-0udi-2900000000-931304319dd9f132e118
submitter=submitter = University of Tokyo Team (Faculty of Engineering, University of Tokyo)
MoNA Rating=3.75

>  <NUM PEAKS>  (2390) 
14

>  <MASS SPECTRAL PEAKS>  (2390) 
51 6.38
63 5.76
64 6.74
76 18.06
77 9.62
115 4.88
126 2.92
127 3.26
128 3.45
151 7.54
152 24.91
153 36.53
154 99.99
155 13.44

$$$$

     RDKit          2D

 26 27  0  0  0  0  0  0  0  0999 V2000
    6.4962    0.7508    0.0000 C   0  0  0  0  0  0  0  0  0  0  0  0
    2.5989    1.5002    0.0000 C   0  0  0  0  0  0  0  0  0  0  0  0
    7.7951    1.5010    0.0000 C   0  0  0  0  0  0  0  0  0  0  0  0
    1.3000    0.7500    0.0000 C   0  0  0  0  0  0  0  0  0  0  0  0
    9.0951    0.7510    0.0000 C   0  0  0  0  0  0  0  0  0  0  0  0
    7.7951    3.0010    0.0000 C   0  0  0  0  0  0  0  0  0  0  0  0
    0.0000    1.5000    0.0000 C   0  0  0  0  0  0  0  0  0  0  0  0
    1.3000   -0.7500    0.0000 C   0  0  0  0  0  0  0  0  0  0  0  0
   10.3951    1.5010    0.0000 C   0  0  0  0  0  0  0  0  0  0  0  0
    9.0951    3.7510    0.0000 C   0  0  0  0  0  0  0  0  0  0  0  0
   -1.3000    0.7500    0.0000 C   0  0  0  0  0  0  0  0  0  0  0  0
   -0.0000   -1.5000    0.0000 C   0  0  0  0  0  0  0  0  0  0  0  0
   10.3951    3.0010    0.0000 C   0  0  0  0  0  0  0  0  0  0  0  0
   -1.3000   -0.7500    0.0000 C   0  0  0  0  0  0  0  0  0  0  0  0
    9.0951   -0.7490    0.0000 F   0  0  0  0  0  0  0  0  0  0  0  0
    6.4962    3.7512    0.0000 F   0  0  0  0  0  0  0  0  0  0  0  0
    0.0000    3.0000    0.0000 F   0  0  0  0  0  0  0  0  0  0  0  0
    2.5989   -1.5002    0.0000 F   0  0  0  0  0  0  0  0  0  0  0  0
   11.6940    0.7508    0.0000 F   0  0  0  0  0  0  0  0  0  0  0  0
    9.0951    5.2510    0.0000 F   0  0  0  0  0  0  0  0  0  0  0  0
   -2.5989    1.5002    0.0000 F   0  0  0  0  0  0  0  0  0  0  0  0
   -0.0000   -3.0000    0.0000 F   0  0  0  0  0  0  0  0  0  0  0  0
   11.6940    3.7512    0.0000 F   0  0  0  0  0  0  0  0  0  0  0  0
   -2.5989   -1.5002    0.0000 F   0  0  0  0  0  0  0  0  0  0  0  0
    5.1970    1.5006    0.0000 N   0  0  0  0  0  0  0  0  0  0  0  0
    3.8981    0.7504    0.0000 O   0  0  0  0  0  0  0  0  0  0  0  0
  3  1  1  0
  4  2  1  0
  5  3  2  0
  6  3  1  0
  7  4  2  0
  8  4  1  0
  9  5  1  0
 10  6  2  0
 11  7  1  0
 12  8  2  0
 13  9  2  0
 13 10  1  0
 14 11  2  0
 14 12  1  0
 15  5  1  0
 16  6  1  0
 17  7  1  0
 18  8  1  0
 19  9  1  0
 20 10  1  0
 21 11  1  0
 22 12  1  0
 23 13  1  0
 24 14  1  0
  1 25  2  0
 26  2  1  0
 26 25  1  0
M  END
>  <NAME>  (2391) 
2,3,4,5,6-PENTAFLUOROBENZALDEHYDE 2',3',4',5',6'-PENTAFLUOROBENZYLOXIME

>  <SYNONYMS>  (2391) 


>  <SPECTRUM TYPE>  (2391) 
MS1

>  <INSTRUMENT TYPE>  (2391) 
EI-B

>  <INSTRUMENT>  (2391) 
HP 5970

>  <ION MODE>  (2391) 
P

>  <INCHIKEY>  (2391) 
CBUMHWYKQJKMTE-WDOSQBGKSA-N

>  <FORMULA>  (2391) 
C14H3F10NO

>  <EXACT MASS>  (2391) 
391.005495916

>  <MW>  (2391) 
391

>  <ID>  (2391) 
JP008822

>  <CONTRIBUTOR>  (2391) 
University of Tokyo Team, {Faculty of Engineering, University of Tokyo

>  <COMMENT>  (2391) 
SMILES=Fc(c(F)1)c(F)c(F)c(C=NOCc(c(F)2)c(F)c(F)c(F)c(F)2)c(F)1
InChI=InChI=1S/C14H3F10NO/c15-5-3(6(16)10(20)13(23)9(5)19)1-25-26-2-4-7(17)11(21)14(24)12(22)8(4)18/h1H,2H2/b25-1+
computed SMILES=FC=1C(F)=C(F)C(C=NOCC=2C(F)=C(F)C(F)=C(F)C2F)=C(F)C1F
accession=JP008822
date=2016.01.19 (Created 2008.10.21, modified 2011.05.06)
author=UOEH
license=CC BY-NC-SA
exact mass=391.0055
ionization energy=70 eV
ion type=[M]+*
computed spectral entropy=2.3737510961658606
computed normalized entropy=0.5821531080514453
SPLASH=splash10-001i-1900000000-4f822ec68de35f42add7
submitter=submitter = University of Tokyo Team (Faculty of Engineering, University of Tokyo)
MoNA Rating=3.75

>  <NUM PEAKS>  (2391) 
59

>  <MASS SPECTRAL PEAKS>  (2391) 
44 0.87
51 0.86
55 0.42
56 0.2
61 0.41
62 0.49
68 0.52
69 2.95
74 0.87
75 1.91
79 1.45
80 1.08
81 1.52
86 0.78
92 0.36
93 5.39
98 2.45
99 3.86
100 0.41
105 0.35
106 0.11
111 0.9
112 0.94
113 0.2
117 10.44
118 0.88
119 1.84
123 0.14
124 3.02
129 0.21
130 2.03
131 1.56
137 0.57
141 0.23
143 1.07
144 0.25
148 0.87
149 0.53
150 0.9
155 1.59
161 7.14
162 2.87
167 5.81
168 1.85
169 0.36
174 2.32
177 0.31
178 0.11
179 0.57
181 99.99
182 7.2
183 0.13
193 2.15
194 1.01
195 2.87
196 0.59
197 0.28
361 0.39
391 0.88

$$$$

     RDKit          2D

 13 13  0  0  0  0  0  0  0  0999 V2000
   -1.2998   -1.5002    0.0000 C   0  0  0  0  0  0  0  0  0  0  0  0
   -0.0008   -0.7500    0.0000 C   0  0  0  0  0  0  0  0  0  0  0  0
    1.2992   -1.5000    0.0000 C   0  0  0  0  0  0  0  0  0  0  0  0
   -0.0008    0.7500    0.0000 C   0  0  0  0  0  0  0  0  0  0  0  0
    2.5992   -0.7500    0.0000 C   0  0  0  0  0  0  0  0  0  0  0  0
    1.2992    1.5000    0.0000 C   0  0  0  0  0  0  0  0  0  0  0  0
    2.5992    0.7500    0.0000 C   0  0  0  0  0  0  0  0  0  0  0  0
    1.2992   -3.0000    0.0000 F   0  0  0  0  0  0  0  0  0  0  0  0
   -1.2998    1.5002    0.0000 F   0  0  0  0  0  0  0  0  0  0  0  0
    3.8981   -1.5002    0.0000 F   0  0  0  0  0  0  0  0  0  0  0  0
    1.2992    3.0000    0.0000 F   0  0  0  0  0  0  0  0  0  0  0  0
    3.8981    1.5002    0.0000 F   0  0  0  0  0  0  0  0  0  0  0  0
   -2.5989   -0.7504    0.0000 O   0  0  0  0  0  0  0  0  0  0  0  0
  2  1  1  0
  3  2  2  0
  4  2  1  0
  5  3  1  0
  6  4  2  0
  7  5  2  0
  7  6  1  0
  8  3  1  0
  9  4  1  0
 10  5  1  0
 11  6  1  0
 12  7  1  0
 13  1  1  0
M  END
>  <NAME>  (2392) 
PENTAFLUOROBENZYL ALCOHOL

>  <SYNONYMS>  (2392) 


>  <SPECTRUM TYPE>  (2392) 
MS1

>  <INSTRUMENT TYPE>  (2392) 
EI-B

>  <INSTRUMENT>  (2392) 
HP 5970

>  <ION MODE>  (2392) 
P

>  <INCHIKEY>  (2392) 
PGJYYCIOYBZTPU-UHFFFAOYSA-N

>  <FORMULA>  (2392) 
C7H3F5O

>  <EXACT MASS>  (2392) 
198.010405816

>  <MW>  (2392) 
198

>  <ID>  (2392) 
JP008821

>  <CONTRIBUTOR>  (2392) 
University of Tokyo Team, {Faculty of Engineering, University of Tokyo

>  <COMMENT>  (2392) 
SMILES=OCc(c(F)1)c(F)c(F)c(F)c(F)1
InChI=InChI=1S/C7H3F5O/c8-3-2(1-13)4(9)6(11)7(12)5(3)10/h13H,1H2
computed SMILES=FC=1C(F)=C(F)C(=C(F)C1F)CO
accession=JP008821
author=UOEH
date=2016.01.19 (Created 2008.10.21, modified 2011.05.06)
license=CC BY-NC-SA
exact mass=198.01041
ionization energy=70 eV
ion type=[M]+*
computed spectral entropy=3.0282998134542374
computed normalized entropy=0.8903628556759372
SPLASH=splash10-002b-2900000000-f69d5361bdcb5633af4f
submitter=submitter = University of Tokyo Team (Faculty of Engineering, University of Tokyo)
MoNA Rating=3.75

>  <NUM PEAKS>  (2392) 
30

>  <MASS SPECTRAL PEAKS>  (2392) 
49 15.39
51 2.02
69 14.79
74 7.33
75 18.65
79 9.61
80 7.35
81 22.74
93 20.89
98 14.01
99 55.01
101 5.15
117 33.51
119 32.02
131 9.05
149 23.63
150 47.64
151 19.38
161 28.07
167 6.46
168 9.51
169 15.83
177 80.2
178 43.92
179 2.22
181 67.41
195 13.79
197 44.52
198 99.99
199 1.93

$$$$

     RDKit          2D

 13 13  0  0  0  0  0  0  0  0999 V2000
   -1.2998   -1.5002    0.0000 C   0  0  0  0  0  0  0  0  0  0  0  0
   -0.0008   -0.7500    0.0000 C   0  0  0  0  0  0  0  0  0  0  0  0
    1.2992   -1.5000    0.0000 C   0  0  0  0  0  0  0  0  0  0  0  0
   -0.0008    0.7500    0.0000 C   0  0  0  0  0  0  0  0  0  0  0  0
    2.5992   -0.7500    0.0000 C   0  0  0  0  0  0  0  0  0  0  0  0
    1.2992    1.5000    0.0000 C   0  0  0  0  0  0  0  0  0  0  0  0
    2.5992    0.7500    0.0000 C   0  0  0  0  0  0  0  0  0  0  0  0
    1.2992   -3.0000    0.0000 F   0  0  0  0  0  0  0  0  0  0  0  0
   -1.2998    1.5002    0.0000 F   0  0  0  0  0  0  0  0  0  0  0  0
    3.8981   -1.5002    0.0000 F   0  0  0  0  0  0  0  0  0  0  0  0
    1.2992    3.0000    0.0000 F   0  0  0  0  0  0  0  0  0  0  0  0
    3.8981    1.5002    0.0000 F   0  0  0  0  0  0  0  0  0  0  0  0
   -2.5989   -0.7504    0.0000 O   0  0  0  0  0  0  0  0  0  0  0  0
  2  1  1  0
  3  2  2  0
  4  2  1  0
  5  3  1  0
  6  4  2  0
  7  5  2  0
  7  6  1  0
  8  3  1  0
  9  4  1  0
 10  5  1  0
 11  6  1  0
 12  7  1  0
 13  1  2  0
M  END
>  <NAME>  (2393) 
PENTAFLUOROBENZALDEHYDE

>  <SYNONYMS>  (2393) 


>  <SPECTRUM TYPE>  (2393) 
MS1

>  <INSTRUMENT TYPE>  (2393) 
EI-B

>  <INSTRUMENT>  (2393) 
HP 5970

>  <ION MODE>  (2393) 
P

>  <INCHIKEY>  (2393) 
QJXCFMJTJYCLFG-UHFFFAOYSA-N

>  <FORMULA>  (2393) 
C7HF5O

>  <EXACT MASS>  (2393) 
195.994755752

>  <MW>  (2393) 
196

>  <ID>  (2393) 
JP008820

>  <CONTRIBUTOR>  (2393) 
University of Tokyo Team, {Faculty of Engineering, University of Tokyo

>  <COMMENT>  (2393) 
SMILES=O=Cc(c(F)1)c(F)c(F)c(F)c(F)1
InChI=InChI=1S/C7HF5O/c8-3-2(1-13)4(9)6(11)7(12)5(3)10/h1H
computed SMILES=O=CC=1C(F)=C(F)C(F)=C(F)C1F
accession=JP008820
date=2016.01.19 (Created 2008.10.21, modified 2011.05.06)
author=UOEH
license=CC BY-NC-SA
exact mass=195.99476
ionization energy=70 eV
ion type=[M]+*
computed spectral entropy=2.6817673373309474
computed normalized entropy=0.7604915375528296
SPLASH=splash10-0002-3900000000-969027231d52c835802b
submitter=submitter = University of Tokyo Team (Faculty of Engineering, University of Tokyo)
MoNA Rating=3.75

>  <NUM PEAKS>  (2393) 
34

>  <MASS SPECTRAL PEAKS>  (2393) 
43 1.53
55 5.06
56 3.38
57 0.9
60 0.42
61 2.78
68 2.88
69 4.92
74 6.49
75 8.19
79 19.65
80 5.21
86 4.6
87 0.44
93 21.13
98 22.41
99 51.69
100 2.74
110 2.78
117 58.77
118 9.77
124 1.45
129 2.73
130 0.59
137 10.79
148 13.17
149 5.2
161 0.51
167 49.98
168 26.12
169 0.74
195 94.81
196 99.99
197 8.04

$$$$

     RDKit          2D

 13 13  0  0  0  0  0  0  0  0999 V2000
    2.5989    1.5002    0.0000 C   0  0  0  0  0  0  0  0  0  0  0  0
    1.3000    0.7500    0.0000 C   0  0  0  0  0  0  0  0  0  0  0  0
    0.0000    1.5000    0.0000 C   0  0  0  0  0  0  0  0  0  0  0  0
    1.3000   -0.7500    0.0000 C   0  0  0  0  0  0  0  0  0  0  0  0
   -1.3000    0.7500    0.0000 C   0  0  0  0  0  0  0  0  0  0  0  0
   -0.0000   -1.5000    0.0000 C   0  0  0  0  0  0  0  0  0  0  0  0
   -1.3000   -0.7500    0.0000 C   0  0  0  0  0  0  0  0  0  0  0  0
    0.0000    3.0000    0.0000 F   0  0  0  0  0  0  0  0  0  0  0  0
    2.5989   -1.5002    0.0000 F   0  0  0  0  0  0  0  0  0  0  0  0
   -2.5989    1.5002    0.0000 F   0  0  0  0  0  0  0  0  0  0  0  0
   -0.0000   -3.0000    0.0000 F   0  0  0  0  0  0  0  0  0  0  0  0
   -2.5989   -1.5002    0.0000 F   0  0  0  0  0  0  0  0  0  0  0  0
    3.8978    2.2504    0.0000 N   0  0  0  0  0  0  0  0  0  0  0  0
  2  1  1  0
  3  2  2  0
  4  2  1  0
  5  3  1  0
  6  4  2  0
  7  5  2  0
  7  6  1  0
  8  3  1  0
  9  4  1  0
 10  5  1  0
 11  6  1  0
 12  7  1  0
 13  1  3  0
M  END
>  <NAME>  (2394) 
PENTAFLUOROBENZONITRILE

>  <SYNONYMS>  (2394) 


>  <SPECTRUM TYPE>  (2394) 
MS1

>  <INSTRUMENT TYPE>  (2394) 
EI-B

>  <INSTRUMENT>  (2394) 
HP 5970

>  <ION MODE>  (2394) 
P

>  <INCHIKEY>  (2394) 
YXWJGZQOGXGSSC-UHFFFAOYSA-N

>  <FORMULA>  (2394) 
C7F5N

>  <EXACT MASS>  (2394) 
192.9950901

>  <MW>  (2394) 
193

>  <ID>  (2394) 
JP008819

>  <CONTRIBUTOR>  (2394) 
University of Tokyo Team, {Faculty of Engineering, University of Tokyo

>  <COMMENT>  (2394) 
SMILES=N#Cc(c(F)1)c(F)c(F)c(F)c(F)1
InChI=InChI=1S/C7F5N/c8-3-2(1-13)4(9)6(11)7(12)5(3)10
computed SMILES=N#CC=1C(F)=C(F)C(F)=C(F)C1F
accession=JP008819
date=2016.01.19 (Created 2008.10.21, modified 2011.05.06)
author=UOEH
license=CC BY-NC-SA
exact mass=192.99509
ionization energy=70 eV
ion type=[M]+*
computed spectral entropy=2.3417475587364516
computed normalized entropy=0.6640692414713741
SPLASH=splash10-0006-2900000000-ca1269f2acbd19ad12a4
submitter=submitter = University of Tokyo Team (Faculty of Engineering, University of Tokyo)
MoNA Rating=3.75

>  <NUM PEAKS>  (2394) 
34

>  <MASS SPECTRAL PEAKS>  (2394) 
43 1.79
50 0.17
55 2.98
56 1.38
57 1.94
60 0.65
62 1.87
69 7.11
74 5.93
79 4.72
81 1.74
86 4.02
93 18.62
94 0.64
96 3.41
98 3.67
100 4.08
105 4.01
110 0.47
112 0.66
117 7.04
118 0.18
124 33.95
125 2.13
131 0.4
143 3.39
148 5.3
162 9.87
163 0.42
167 0.22
174 2.55
191 0.14
193 99.99
194 7.66

$$$$

     RDKit          2D

 20 20  0  0  0  0  0  0  0  0999 V2000
   12.9912    1.5019    0.0000 C   0  0  0  0  0  0  0  0  0  0  0  0
   11.6923    0.7517    0.0000 C   0  0  0  0  0  0  0  0  0  0  0  0
   10.3931    1.5015    0.0000 C   0  0  0  0  0  0  0  0  0  0  0  0
    9.0942    0.7512    0.0000 C   0  0  0  0  0  0  0  0  0  0  0  0
    7.7951    1.5010    0.0000 C   0  0  0  0  0  0  0  0  0  0  0  0
    6.4962    0.7508    0.0000 C   0  0  0  0  0  0  0  0  0  0  0  0
    2.5989    1.5002    0.0000 C   0  0  0  0  0  0  0  0  0  0  0  0
    1.3000    0.7500    0.0000 C   0  0  0  0  0  0  0  0  0  0  0  0
   -0.0000    1.5000    0.0000 C   0  0  0  0  0  0  0  0  0  0  0  0
    1.3000   -0.7500    0.0000 C   0  0  0  0  0  0  0  0  0  0  0  0
   -1.3000    0.7500    0.0000 C   0  0  0  0  0  0  0  0  0  0  0  0
    0.0000   -1.5000    0.0000 C   0  0  0  0  0  0  0  0  0  0  0  0
   -1.3000   -0.7500    0.0000 C   0  0  0  0  0  0  0  0  0  0  0  0
    0.0000    3.0000    0.0000 F   0  0  0  0  0  0  0  0  0  0  0  0
    2.5989   -1.5002    0.0000 F   0  0  0  0  0  0  0  0  0  0  0  0
   -2.5989    1.5002    0.0000 F   0  0  0  0  0  0  0  0  0  0  0  0
   -0.0000   -3.0000    0.0000 F   0  0  0  0  0  0  0  0  0  0  0  0
   -2.5989   -1.5002    0.0000 F   0  0  0  0  0  0  0  0  0  0  0  0
    5.1970    1.5006    0.0000 N   0  0  0  0  0  0  0  0  0  0  0  0
    3.8981    0.7504    0.0000 O   0  0  0  0  0  0  0  0  0  0  0  0
  2  1  1  0
  3  2  1  0
  4  3  1  0
  4  5  2  0
  6  5  1  0
  8  7  1  0
  9  8  2  0
 10  8  1  0
 11  9  1  0
 12 10  2  0
 13 11  2  0
 13 12  1  0
 14  9  1  0
 15 10  1  0
 16 11  1  0
 17 12  1  0
 18 13  1  0
  6 19  2  0
 20  7  1  0
 20 19  1  0
M  END
>  <NAME>  (2395) 
2-HEXENAL O-2,3,4,5,6-PENTAFLUOROBENZYLOXIME

>  <SYNONYMS>  (2395) 


>  <SPECTRUM TYPE>  (2395) 
MS1

>  <INSTRUMENT TYPE>  (2395) 
EI-B

>  <INSTRUMENT>  (2395) 
HP 5970

>  <ION MODE>  (2395) 
P

>  <INCHIKEY>  (2395) 
UFLHMANGSVRSPF-QZRSKMOPSA-N

>  <FORMULA>  (2395) 
C13H12F5NO

>  <EXACT MASS>  (2395) 
293.08390510399994

>  <MW>  (2395) 
293

>  <ID>  (2395) 
JP008818

>  <CONTRIBUTOR>  (2395) 
University of Tokyo Team, {Faculty of Engineering, University of Tokyo

>  <COMMENT>  (2395) 
SMILES=CCCC=CC=NOCc(c(F)1)c(F)c(F)c(F)c(F)1
InChI=InChI=1S/C13H12F5NO/c1-2-3-4-5-6-19-20-7-8-9(14)11(16)13(18)12(17)10(8)15/h4-6H,2-3,7H2,1H3/b5-4+,19-6+
computed SMILES=FC=1C(F)=C(F)C(=C(F)C1F)CON=CC=CCCC
accession=JP008818
date=2016.01.19 (Created 2008.10.21, modified 2011.05.06)
author=UOEH
license=CC BY-NC-SA
exact mass=293.08391
ionization energy=70 eV
ion type=[M]+*
computed spectral entropy=2.1243461469756735
computed normalized entropy=0.6520206268245532
SPLASH=splash10-001i-5910000000-7578d910e46c4c7bd626
submitter=submitter = University of Tokyo Team (Faculty of Engineering, University of Tokyo)
MoNA Rating=3.75

>  <NUM PEAKS>  (2395) 
26

>  <MASS SPECTRAL PEAKS>  (2395) 
42 9.72
43 16.02
44 10.45
51 0.72
52 0.6
53 5.58
54 8.18
55 2.41
57 1
67 2.88
69 0.85
70 1.32
71 4.67
80 3.55
81 0.95
93 1.99
99 2.92
112 2.28
117 3.19
150 0.65
161 2.17
167 1.03
181 99.99
182 6.5
195 0.95
250 17.18

$$$$

     RDKit          2D

 21 21  0  0  0  0  0  0  0  0999 V2000
   14.2904    0.7521    0.0000 C   0  0  0  0  0  0  0  0  0  0  0  0
   12.9912    1.5019    0.0000 C   0  0  0  0  0  0  0  0  0  0  0  0
   11.6923    0.7517    0.0000 C   0  0  0  0  0  0  0  0  0  0  0  0
   10.3931    1.5015    0.0000 C   0  0  0  0  0  0  0  0  0  0  0  0
    9.0942    0.7512    0.0000 C   0  0  0  0  0  0  0  0  0  0  0  0
    7.7951    1.5010    0.0000 C   0  0  0  0  0  0  0  0  0  0  0  0
    6.4962    0.7508    0.0000 C   0  0  0  0  0  0  0  0  0  0  0  0
    2.5989    1.5002    0.0000 C   0  0  0  0  0  0  0  0  0  0  0  0
    1.3000    0.7500    0.0000 C   0  0  0  0  0  0  0  0  0  0  0  0
   -0.0000    1.5000    0.0000 C   0  0  0  0  0  0  0  0  0  0  0  0
    1.3000   -0.7500    0.0000 C   0  0  0  0  0  0  0  0  0  0  0  0
   -1.3000    0.7500    0.0000 C   0  0  0  0  0  0  0  0  0  0  0  0
    0.0000   -1.5000    0.0000 C   0  0  0  0  0  0  0  0  0  0  0  0
   -1.3000   -0.7500    0.0000 C   0  0  0  0  0  0  0  0  0  0  0  0
    0.0000    3.0000    0.0000 F   0  0  0  0  0  0  0  0  0  0  0  0
    2.5989   -1.5002    0.0000 F   0  0  0  0  0  0  0  0  0  0  0  0
   -2.5989    1.5002    0.0000 F   0  0  0  0  0  0  0  0  0  0  0  0
   -0.0000   -3.0000    0.0000 F   0  0  0  0  0  0  0  0  0  0  0  0
   -2.5989   -1.5002    0.0000 F   0  0  0  0  0  0  0  0  0  0  0  0
    5.1970    1.5006    0.0000 N   0  0  0  0  0  0  0  0  0  0  0  0
    3.8981    0.7504    0.0000 O   0  0  0  0  0  0  0  0  0  0  0  0
  2  1  1  0
  3  2  1  0
  4  3  1  0
  5  4  1  0
  5  6  2  0
  7  6  1  0
  9  8  1  0
 10  9  2  0
 11  9  1  0
 12 10  1  0
 13 11  2  0
 14 12  2  0
 14 13  1  0
 15 10  1  0
 16 11  1  0
 17 12  1  0
 18 13  1  0
 19 14  1  0
  7 20  2  0
 21  8  1  0
 21 20  1  0
M  END
>  <NAME>  (2396) 
2-HEPTENAL O-2,3,4,5,6-PENTAFLUOROBENZYLOXIME

>  <SYNONYMS>  (2396) 


>  <SPECTRUM TYPE>  (2396) 
MS1

>  <INSTRUMENT TYPE>  (2396) 
EI-B

>  <INSTRUMENT>  (2396) 
HP 5970

>  <ION MODE>  (2396) 
P

>  <INCHIKEY>  (2396) 
PEYJSQOBEFLESI-RGQKVHTQSA-N

>  <FORMULA>  (2396) 
C14H14F5NO

>  <EXACT MASS>  (2396) 
307.099555168

>  <MW>  (2396) 
307

>  <ID>  (2396) 
JP008817

>  <CONTRIBUTOR>  (2396) 
University of Tokyo Team, {Faculty of Engineering, University of Tokyo

>  <COMMENT>  (2396) 
SMILES=CCCCC=CC=NOCc(c(F)1)c(F)c(F)c(F)c(F)1
InChI=InChI=1S/C14H14F5NO/c1-2-3-4-5-6-7-20-21-8-9-10(15)12(17)14(19)13(18)11(9)16/h5-7H,2-4,8H2,1H3/b6-5+,20-7+
computed SMILES=FC=1C(F)=C(F)C(=C(F)C1F)CON=CC=CCCCC
accession=JP008817
date=2016.01.19 (Created 2008.10.21, modified 2011.05.06)
author=UOEH
license=CC BY-NC-SA
exact mass=307.09956
ionization energy=70 eV
ion type=[M]+*
computed spectral entropy=2.0726660485065023
computed normalized entropy=0.6705394959084495
SPLASH=splash10-001i-6910000000-91ef3473ff6e6afb3d20
submitter=submitter = University of Tokyo Team (Faculty of Engineering, University of Tokyo)
MoNA Rating=3.75

>  <NUM PEAKS>  (2396) 
22

>  <MASS SPECTRAL PEAKS>  (2396) 
42 2.71
43 10.02
44 12.18
51 0.88
53 5.24
54 5.7
55 5.34
56 2.84
57 11.5
67 4.32
69 2.95
80 2.61
81 1.32
84 1.49
85 2.72
99 3.04
117 1.34
126 1.57
161 1.43
181 99.99
182 6.23
250 17.17

$$$$

     RDKit          2D

 18 18  0  0  0  0  0  0  0  0999 V2000
   10.3931    1.5015    0.0000 C   0  0  0  0  0  0  0  0  0  0  0  0
    9.0942    0.7512    0.0000 C   0  0  0  0  0  0  0  0  0  0  0  0
    7.7951    1.5010    0.0000 C   0  0  0  0  0  0  0  0  0  0  0  0
    6.4962    0.7508    0.0000 C   0  0  0  0  0  0  0  0  0  0  0  0
    2.5989    1.5002    0.0000 C   0  0  0  0  0  0  0  0  0  0  0  0
    1.3000    0.7500    0.0000 C   0  0  0  0  0  0  0  0  0  0  0  0
   -0.0000    1.5000    0.0000 C   0  0  0  0  0  0  0  0  0  0  0  0
    1.3000   -0.7500    0.0000 C   0  0  0  0  0  0  0  0  0  0  0  0
   -1.3000    0.7500    0.0000 C   0  0  0  0  0  0  0  0  0  0  0  0
    0.0000   -1.5000    0.0000 C   0  0  0  0  0  0  0  0  0  0  0  0
   -1.3000   -0.7500    0.0000 C   0  0  0  0  0  0  0  0  0  0  0  0
    0.0000    3.0000    0.0000 F   0  0  0  0  0  0  0  0  0  0  0  0
    2.5989   -1.5002    0.0000 F   0  0  0  0  0  0  0  0  0  0  0  0
   -2.5989    1.5002    0.0000 F   0  0  0  0  0  0  0  0  0  0  0  0
   -0.0000   -3.0000    0.0000 F   0  0  0  0  0  0  0  0  0  0  0  0
   -2.5989   -1.5002    0.0000 F   0  0  0  0  0  0  0  0  0  0  0  0
    5.1970    1.5006    0.0000 N   0  0  0  0  0  0  0  0  0  0  0  0
    3.8981    0.7504    0.0000 O   0  0  0  0  0  0  0  0  0  0  0  0
  2  1  1  0
  2  3  2  0
  4  3  1  0
  6  5  1  0
  7  6  2  0
  8  6  1  0
  9  7  1  0
 10  8  2  0
 11  9  2  0
 11 10  1  0
 12  7  1  0
 13  8  1  0
 14  9  1  0
 15 10  1  0
 16 11  1  0
  4 17  2  0
 18  5  1  0
 18 17  1  0
M  END
>  <NAME>  (2397) 
CROTONALDEHYDE O-2,3,4,5,6-PENTAFLUOROBENZYLOXIME

>  <SYNONYMS>  (2397) 


>  <SPECTRUM TYPE>  (2397) 
MS1

>  <INSTRUMENT TYPE>  (2397) 
EI-B

>  <INSTRUMENT>  (2397) 
HP 5970

>  <ION MODE>  (2397) 
P

>  <INCHIKEY>  (2397) 
QNPFFCQTVXPCLD-GFJWLWTISA-N

>  <FORMULA>  (2397) 
C11H8F5NO

>  <EXACT MASS>  (2397) 
265.052604976

>  <MW>  (2397) 
265

>  <ID>  (2397) 
JP008816

>  <CONTRIBUTOR>  (2397) 
University of Tokyo Team, {Faculty of Engineering, University of Tokyo

>  <COMMENT>  (2397) 
SMILES=CC=CC=NOCc(c(F)1)c(F)c(F)c(F)c(F)1
InChI=InChI=1S/C11H8F5NO/c1-2-3-4-17-18-5-6-7(12)9(14)11(16)10(15)8(6)13/h2-4H,5H2,1H3/b3-2+,17-4+
computed SMILES=FC=1C(F)=C(F)C(=C(F)C1F)CON=CC=CC
accession=JP008816
date=2016.01.19 (Created 2008.10.21, modified 2011.05.06)
author=UOEH
license=CC BY-NC-SA
exact mass=265.0526
ionization energy=70 eV
ion type=[M]+*
computed spectral entropy=1.7068644948024592
computed normalized entropy=0.6024482760478598
SPLASH=splash10-001i-2910000000-5ed9f12747c2890172f4
submitter=submitter = University of Tokyo Team (Faculty of Engineering, University of Tokyo)
MoNA Rating=3.75

>  <NUM PEAKS>  (2397) 
17

>  <MASS SPECTRAL PEAKS>  (2397) 
42 2.94
43 17.02
44 7.2
51 1.43
53 1.07
93 2.1
98 0.96
99 2.24
117 3.84
119 0.9
161 5.09
167 1.15
181 99.99
182 8.05
195 2.35
250 18.98
265 3.68

$$$$

     RDKit          2D

 17 17  0  0  0  0  0  0  0  0999 V2000
    9.0942    0.7512    0.0000 C   0  0  0  0  0  0  0  0  0  0  0  0
    7.7951    1.5010    0.0000 C   0  0  0  0  0  0  0  0  0  0  0  0
    6.4962    0.7508    0.0000 C   0  0  0  0  0  0  0  0  0  0  0  0
    2.5989    1.5002    0.0000 C   0  0  0  0  0  0  0  0  0  0  0  0
    1.3000    0.7500    0.0000 C   0  0  0  0  0  0  0  0  0  0  0  0
   -0.0000    1.5000    0.0000 C   0  0  0  0  0  0  0  0  0  0  0  0
    1.3000   -0.7500    0.0000 C   0  0  0  0  0  0  0  0  0  0  0  0
   -1.3000    0.7500    0.0000 C   0  0  0  0  0  0  0  0  0  0  0  0
    0.0000   -1.5000    0.0000 C   0  0  0  0  0  0  0  0  0  0  0  0
   -1.3000   -0.7500    0.0000 C   0  0  0  0  0  0  0  0  0  0  0  0
    0.0000    3.0000    0.0000 F   0  0  0  0  0  0  0  0  0  0  0  0
    2.5989   -1.5002    0.0000 F   0  0  0  0  0  0  0  0  0  0  0  0
   -2.5989    1.5002    0.0000 F   0  0  0  0  0  0  0  0  0  0  0  0
   -0.0000   -3.0000    0.0000 F   0  0  0  0  0  0  0  0  0  0  0  0
   -2.5989   -1.5002    0.0000 F   0  0  0  0  0  0  0  0  0  0  0  0
    5.1970    1.5006    0.0000 N   0  0  0  0  0  0  0  0  0  0  0  0
    3.8981    0.7504    0.0000 O   0  0  0  0  0  0  0  0  0  0  0  0
  2  1  2  0
  3  2  1  0
  5  4  1  0
  6  5  2  0
  7  5  1  0
  8  6  1  0
  9  7  2  0
 10  8  2  0
 10  9  1  0
 11  6  1  0
 12  7  1  0
 13  8  1  0
 14  9  1  0
 15 10  1  0
  3 16  2  0
 17  4  1  0
 17 16  1  0
M  END
>  <NAME>  (2398) 
ACROLEIN O-2,3,4,5,6-PENTAFLUOROBENZYLOXIME

>  <SYNONYMS>  (2398) 


>  <SPECTRUM TYPE>  (2398) 
MS1

>  <INSTRUMENT TYPE>  (2398) 
EI-B

>  <INSTRUMENT>  (2398) 
HP 5970

>  <ION MODE>  (2398) 
P

>  <INCHIKEY>  (2398) 
ICDUEGOPUWNJNF-HQYXKAPLSA-N

>  <FORMULA>  (2398) 
C10H6F5NO

>  <EXACT MASS>  (2398) 
251.036954912

>  <MW>  (2398) 
251

>  <ID>  (2398) 
JP008815

>  <CONTRIBUTOR>  (2398) 
University of Tokyo Team, {Faculty of Engineering, University of Tokyo

>  <COMMENT>  (2398) 
SMILES=C=CC=NOCc(c(F)1)c(F)c(F)c(F)c(F)1
InChI=InChI=1S/C10H6F5NO/c1-2-3-16-17-4-5-6(11)8(13)10(15)9(14)7(5)12/h2-3H,1,4H2/b16-3+
computed SMILES=FC=1C(F)=C(F)C(=C(F)C1F)CON=CC=C
accession=JP008815
date=2016.01.19 (Created 2008.10.21, modified 2011.05.06)
author=UOEH
license=CC BY-NC-SA
exact mass=251.03695
ionization energy=70 eV
ion type=[M]+*
computed spectral entropy=2.111362271803315
computed normalized entropy=0.6038489077134392
SPLASH=splash10-001i-2900000000-798e0302bb63189e9d93
submitter=submitter = University of Tokyo Team (Faculty of Engineering, University of Tokyo)
MoNA Rating=3.75

>  <NUM PEAKS>  (2398) 
33

>  <MASS SPECTRAL PEAKS>  (2398) 
42 4.93
43 0.86
44 10.1
49 0.36
51 1.47
52 2.12
53 1.08
55 0.36
56 0.34
57 0.39
69 2.44
70 0.66
75 1.85
81 2.06
93 3.43
98 1.1
99 5.13
112 0.59
117 5.95
119 2.28
131 1.21
155 0.41
161 6.13
162 0.73
167 3.28
168 0.4
181 99.99
182 9.93
195 3.35
197 0.37
221 2.53
250 5.19
251 6.53

$$$$

     RDKit          2D

 31 32  0  0  0  0  0  0  0  0999 V2000
    7.7948    3.0010    0.0000 C   0  0  0  0  0  0  0  0  0  0  0  0
    6.4962    0.7508    0.0000 C   0  0  0  0  0  0  0  0  0  0  0  0
    2.5989    1.5002    0.0000 C   0  0  0  0  0  0  0  0  0  0  0  0
   11.6923    0.7517    0.0000 C   0  0  0  0  0  0  0  0  0  0  0  0
    7.7951    1.5010    0.0000 C   0  0  0  0  0  0  0  0  0  0  0  0
    1.3000    0.7500    0.0000 C   0  0  0  0  0  0  0  0  0  0  0  0
   12.9912    1.5019    0.0000 C   0  0  0  0  0  0  0  0  0  0  0  0
   -0.0000    1.5000    0.0000 C   0  0  0  0  0  0  0  0  0  0  0  0
    1.3000   -0.7500    0.0000 C   0  0  0  0  0  0  0  0  0  0  0  0
   14.2912    0.7519    0.0000 C   0  0  0  0  0  0  0  0  0  0  0  0
   12.9912    3.0019    0.0000 C   0  0  0  0  0  0  0  0  0  0  0  0
   -1.3000    0.7500    0.0000 C   0  0  0  0  0  0  0  0  0  0  0  0
   -0.0000   -1.5000    0.0000 C   0  0  0  0  0  0  0  0  0  0  0  0
   15.5912    1.5019    0.0000 C   0  0  0  0  0  0  0  0  0  0  0  0
   14.2912    3.7519    0.0000 C   0  0  0  0  0  0  0  0  0  0  0  0
   -1.3000   -0.7500    0.0000 C   0  0  0  0  0  0  0  0  0  0  0  0
   15.5912    3.0019    0.0000 C   0  0  0  0  0  0  0  0  0  0  0  0
    0.0000    3.0000    0.0000 F   0  0  0  0  0  0  0  0  0  0  0  0
    2.5989   -1.5002    0.0000 F   0  0  0  0  0  0  0  0  0  0  0  0
   14.2912   -0.7481    0.0000 F   0  0  0  0  0  0  0  0  0  0  0  0
   11.6923    3.7521    0.0000 F   0  0  0  0  0  0  0  0  0  0  0  0
   -2.5989    1.5002    0.0000 F   0  0  0  0  0  0  0  0  0  0  0  0
   -0.0000   -3.0000    0.0000 F   0  0  0  0  0  0  0  0  0  0  0  0
   16.8901    0.7517    0.0000 F   0  0  0  0  0  0  0  0  0  0  0  0
   14.2912    5.2519    0.0000 F   0  0  0  0  0  0  0  0  0  0  0  0
   -2.5989   -1.5002    0.0000 F   0  0  0  0  0  0  0  0  0  0  0  0
   16.8901    3.7521    0.0000 F   0  0  0  0  0  0  0  0  0  0  0  0
    5.1970    1.5006    0.0000 N   0  0  0  0  0  0  0  0  0  0  0  0
    9.0942    0.7512    0.0000 N   0  0  0  0  0  0  0  0  0  0  0  0
    3.8981    0.7504    0.0000 O   0  0  0  0  0  0  0  0  0  0  0  0
   10.3931    1.5015    0.0000 O   0  0  0  0  0  0  0  0  0  0  0  0
  5  1  1  0
  5  2  1  0
  6  3  1  0
  7  4  1  0
  8  6  2  0
  9  6  1  0
 10  7  2  0
 11  7  1  0
 12  8  1  0
 13  9  2  0
 14 10  1  0
 15 11  2  0
 16 12  2  0
 16 13  1  0
 17 14  2  0
 17 15  1  0
 18  8  1  0
 19  9  1  0
 20 10  1  0
 21 11  1  0
 22 12  1  0
 23 13  1  0
 24 14  1  0
 25 15  1  0
 26 16  1  0
 27 17  1  0
 28  2  2  3
 29  5  2  3
 30  3  1  0
 30 28  1  0
 31  4  1  0
 31 29  1  0
M  END
>  <NAME>  (2399) 
PYRUVALDEHYDE BIS(O-2,3,4,5,6-PENTAFLUOROBENZYLOXIME)

>  <SYNONYMS>  (2399) 


>  <SPECTRUM TYPE>  (2399) 
MS1

>  <INSTRUMENT TYPE>  (2399) 
EI-B

>  <INSTRUMENT>  (2399) 
HP 5970

>  <ION MODE>  (2399) 
P

>  <INCHIKEY>  (2399) 
ULNZDMZUVMUJSZ-UHFFFAOYSA-N

>  <FORMULA>  (2399) 
C17H8F10N2O2

>  <EXACT MASS>  (2399) 
462.042609696

>  <MW>  (2399) 
462

>  <ID>  (2399) 
JP008814

>  <CONTRIBUTOR>  (2399) 
University of Tokyo Team, {Faculty of Engineering, University of Tokyo

>  <COMMENT>  (2399) 
SMILES=CC(C=NOCc(c(F)2)c(F)c(F)c(F)c(F)2)=NOCc(c(F)1)c(F)c(F)c(F)c(F)1
InChI=InChI=1S/C17H8F10N2O2/c1-5(29-31-4-7-10(20)14(24)17(27)15(25)11(7)21)2-28-30-3-6-8(18)12(22)16(26)13(23)9(6)19/h2H,3-4H2,1H3
computed SMILES=FC=1C(F)=C(F)C(=C(F)C1F)CON=CC(=NOCC=2C(F)=C(F)C(F)=C(F)C2F)C
computed InChI=InChI=1S/C17H8F10N2O2/c1-5(29-31-4-7-10(20)14(24)17(27)15(25)11(7)21)2-28-30-3-6-8(18)12(22)16(26)13(23)9(6)19/h2H,3-4H2,1H3/b28-2+,29-5?
accession=JP008814
date=2016.01.19 (Created 2008.10.21, modified 2011.05.06)
author=UOEH
license=CC BY-NC-SA
exact mass=462.04261
ionization energy=70 eV
ion type=[M]+*
computed spectral entropy=1.98952379728016
computed normalized entropy=0.4879228761598986
SPLASH=splash10-001i-1900000000-cfef677c3ba9a1b7e8f8
submitter=submitter = University of Tokyo Team (Faculty of Engineering, University of Tokyo)
MoNA Rating=3.75

>  <NUM PEAKS>  (2399) 
59

>  <MASS SPECTRAL PEAKS>  (2399) 
42 2.31
43 1.07
44 2.99
51 0.76
53 0.24
54 1.08
55 0.59
56 0.09
57 0.83
62 0.21
68 0.16
69 1.82
70 0.07
71 0.55
72 0.28
74 0.13
75 1.17
79 0.46
80 0.37
81 1.54
84 0.86
86 0.29
93 1.62
98 0.69
99 2.69
100 0.06
105 0.11
111 0.31
112 0.79
117 2.74
118 0.38
119 1.68
130 0.1
131 1.36
137 0.35
143 0.62
148 0.26
149 1.3
150 0.75
155 0.77
161 3.78
162 1.03
163 0.08
167 2.2
168 1.08
169 0.23
177 0.26
181 99.99
182 7.19
195 2.42
196 0.66
197 0.49
198 0.24
248 0.25
249 0.23
265 4.34
266 0.44
267 0.54
432 0.21

$$$$

     RDKit          2D

 30 31  0  0  0  0  0  0  0  0999 V2000
    7.1455    1.8759    0.0000 C   0  0  0  0  0  0  0  0  0  0  0  0
    7.1457    0.3759    0.0000 C   0  0  0  0  0  0  0  0  0  0  0  0
   11.0425    2.6266    0.0000 C   0  0  0  0  0  0  0  0  0  0  0  0
    3.2487   -0.3747    0.0000 C   0  0  0  0  0  0  0  0  0  0  0  0
   12.3416    1.8768    0.0000 C   0  0  0  0  0  0  0  0  0  0  0  0
    1.9496    0.3751    0.0000 C   0  0  0  0  0  0  0  0  0  0  0  0
   13.6414    2.6272    0.0000 C   0  0  0  0  0  0  0  0  0  0  0  0
   12.3421    0.3768    0.0000 C   0  0  0  0  0  0  0  0  0  0  0  0
    0.6498   -0.3753    0.0000 C   0  0  0  0  0  0  0  0  0  0  0  0
    1.9491    1.8751    0.0000 C   0  0  0  0  0  0  0  0  0  0  0  0
   14.9416    1.8776    0.0000 C   0  0  0  0  0  0  0  0  0  0  0  0
   13.6424   -0.3728    0.0000 C   0  0  0  0  0  0  0  0  0  0  0  0
   -0.6504    0.3743    0.0000 C   0  0  0  0  0  0  0  0  0  0  0  0
    0.6489    2.6247    0.0000 C   0  0  0  0  0  0  0  0  0  0  0  0
   14.9421    0.3776    0.0000 C   0  0  0  0  0  0  0  0  0  0  0  0
   -0.6509    1.8743    0.0000 C   0  0  0  0  0  0  0  0  0  0  0  0
   13.6409    4.1272    0.0000 F   0  0  0  0  0  0  0  0  0  0  0  0
   11.0434   -0.3739    0.0000 F   0  0  0  0  0  0  0  0  0  0  0  0
    0.6503   -1.8753    0.0000 F   0  0  0  0  0  0  0  0  0  0  0  0
    3.2478    2.6257    0.0000 F   0  0  0  0  0  0  0  0  0  0  0  0
   16.2403    2.6282    0.0000 F   0  0  0  0  0  0  0  0  0  0  0  0
   13.6428   -1.8728    0.0000 F   0  0  0  0  0  0  0  0  0  0  0  0
   -1.9491   -0.3764    0.0000 F   0  0  0  0  0  0  0  0  0  0  0  0
    0.6484    4.1247    0.0000 F   0  0  0  0  0  0  0  0  0  0  0  0
   16.2413   -0.3722    0.0000 F   0  0  0  0  0  0  0  0  0  0  0  0
   -1.9501    2.6241    0.0000 F   0  0  0  0  0  0  0  0  0  0  0  0
    8.4444    2.6261    0.0000 N   0  0  0  0  0  0  0  0  0  0  0  0
    5.8468   -0.3743    0.0000 N   0  0  0  0  0  0  0  0  0  0  0  0
    9.7436    1.8764    0.0000 O   0  0  0  0  0  0  0  0  0  0  0  0
    4.5477    0.3755    0.0000 O   0  0  0  0  0  0  0  0  0  0  0  0
  2  1  1  0
  5  3  1  0
  6  4  1  0
  7  5  2  0
  8  5  1  0
  9  6  2  0
 10  6  1  0
 11  7  1  0
 12  8  2  0
 13  9  1  0
 14 10  2  0
 15 11  2  0
 15 12  1  0
 16 13  2  0
 16 14  1  0
 17  7  1  0
 18  8  1  0
 19  9  1  0
 20 10  1  0
 21 11  1  0
 22 12  1  0
 23 13  1  0
 24 14  1  0
 25 15  1  0
 26 16  1  0
  1 27  2  0
  2 28  2  0
 29  3  1  0
 29 27  1  0
 30  4  1  0
 30 28  1  0
M  END
>  <NAME>  (2400) 
GLYOXAL BIS(O-2,3,4,5,6-PENTAFLUOROBENZYLOXIME)

>  <SYNONYMS>  (2400) 


>  <SPECTRUM TYPE>  (2400) 
MS1

>  <INSTRUMENT TYPE>  (2400) 
EI-B

>  <INSTRUMENT>  (2400) 
HP 5970

>  <ION MODE>  (2400) 
P

>  <INCHIKEY>  (2400) 
VNVBOBJSRGZDCW-OFELNDECSA-N

>  <FORMULA>  (2400) 
C16H6F10N2O2

>  <EXACT MASS>  (2400) 
448.026959632

>  <MW>  (2400) 
448

>  <ID>  (2400) 
JP008813

>  <CONTRIBUTOR>  (2400) 
University of Tokyo Team, {Faculty of Engineering, University of Tokyo

>  <COMMENT>  (2400) 
SMILES=C(C=NOCc(c(F)2)c(F)c(F)c(F)c(F)2)=NOCc(c(F)1)c(F)c(F)c(F)c(F)1
InChI=InChI=1S/C16H6F10N2O2/c17-7-5(8(18)12(22)15(25)11(7)21)3-29-27-1-2-28-30-4-6-9(19)13(23)16(26)14(24)10(6)20/h1-2H,3-4H2/b27-1-,28-2-
computed SMILES=FC=1C(F)=C(F)C(=C(F)C1F)CON=CC=NOCC=2C(F)=C(F)C(F)=C(F)C2F
accession=JP008813
date=2016.01.19 (Created 2008.10.21, modified 2011.05.06)
author=UOEH
license=CC BY-NC-SA
exact mass=448.02696
ionization energy=70 eV
ion type=[M]+*
computed spectral entropy=2.4257700873910046
computed normalized entropy=0.5653870222210327
SPLASH=splash10-001i-2900000000-c32b2ccf9723ef4f0a45
submitter=submitter = University of Tokyo Team (Faculty of Engineering, University of Tokyo)
MoNA Rating=3.75

>  <NUM PEAKS>  (2400) 
73

>  <MASS SPECTRAL PEAKS>  (2400) 
42 0.25
43 2.81
44 2.7
51 1.12
53 0.22
54 0.16
55 2.71
56 0.9
57 2.37
61 0.1
62 0.23
67 1.14
68 0.66
69 3.69
70 0.64
71 1.13
74 0.28
75 1.26
79 1.19
80 0.56
81 2.96
82 0.23
83 0.95
85 0.56
86 0.13
91 0.74
93 2.46
95 1.44
97 0.9
98 0.98
99 3.23
105 0.72
107 0.45
109 0.76
111 1
112 0.95
113 0.3
117 3.84
118 0.71
119 2.51
123 0.63
124 0.16
129 0.38
130 0.33
131 1.86
137 0.93
143 0.84
148 0.49
149 0.97
150 1.08
151 0.36
155 1.08
161 0.43
162 1
167 2.65
168 1.38
169 0.4
177 0.67
178 0.33
179 0.17
181 99.99
182 7.15
183 0.16
195 2.86
196 0.67
197 0.79
198 0.68
235 0.36
251 0.63
253 0.17
418 0.08
448 1.96
449 0.11

$$$$

     RDKit          2D

 21 22  0  0  0  0  0  0  0  0999 V2000
    4.8723    3.1326    0.0000 C   0  0  0  0  0  0  0  0  0  0  0  0
    4.8728    4.6334    0.0000 C   0  0  0  0  0  0  0  0  0  0  0  0
    3.5728    2.3817    0.0000 C   0  0  0  0  0  0  0  0  0  0  0  0
    3.5738    5.3834    0.0000 C   0  0  0  0  0  0  0  0  0  0  0  0
    2.2738    3.1317    0.0000 C   0  0  0  0  0  0  0  0  0  0  0  0
    0.9752    5.3826    0.0000 C   0  0  0  0  0  0  0  0  0  0  0  0
   -2.9219    4.6326    0.0000 C   0  0  0  0  0  0  0  0  0  0  0  0
    2.2742    4.6326    0.0000 C   0  0  0  0  0  0  0  0  0  0  0  0
   -4.2209    5.3826    0.0000 C   0  0  0  0  0  0  0  0  0  0  0  0
   -4.2212    6.8834    0.0000 C   0  0  0  0  0  0  0  0  0  0  0  0
   -5.5201    4.6328    0.0000 C   0  0  0  0  0  0  0  0  0  0  0  0
   -5.5206    7.6344    0.0000 C   0  0  0  0  0  0  0  0  0  0  0  0
   -6.8195    5.3838    0.0000 C   0  0  0  0  0  0  0  0  0  0  0  0
   -6.8197    6.8846    0.0000 C   0  0  0  0  0  0  0  0  0  0  0  0
   -2.9220    7.6332    0.0000 F   0  0  0  0  0  0  0  0  0  0  0  0
   -5.5206    3.1328    0.0000 F   0  0  0  0  0  0  0  0  0  0  0  0
   -5.5201    9.1344    0.0000 F   0  0  0  0  0  0  0  0  0  0  0  0
   -8.1187    4.6340    0.0000 F   0  0  0  0  0  0  0  0  0  0  0  0
   -8.1188    7.6346    0.0000 F   0  0  0  0  0  0  0  0  0  0  0  0
   -0.3238    4.6326    0.0000 N   0  0  0  0  0  0  0  0  0  0  0  0
   -1.6229    5.3826    0.0000 O   0  0  0  0  0  0  0  0  0  0  0  0
  2  1  2  0
  3  1  1  0
  4  2  1  0
  5  3  2  0
  8  4  2  0
  8  5  1  0
  8  6  1  0
  9  7  1  0
 10  9  2  0
 11  9  1  0
 12 10  1  0
 13 11  2  0
 14 12  2  0
 14 13  1  0
 15 10  1  0
 16 11  1  0
 17 12  1  0
 18 13  1  0
 19 14  1  0
  6 20  2  0
 21  7  1  0
 21 20  1  0
M  END
>  <NAME>  (2401) 
BENZALDEHYDE O-2,3,4,5,6-PENTAFLUOROBENZYLOXIME

>  <SYNONYMS>  (2401) 


>  <SPECTRUM TYPE>  (2401) 
MS1

>  <INSTRUMENT TYPE>  (2401) 
EI-B

>  <INSTRUMENT>  (2401) 
HP 5970

>  <ION MODE>  (2401) 
P

>  <INCHIKEY>  (2401) 
UKSAZCDAGVHMRF-CGOBSMCZSA-N

>  <FORMULA>  (2401) 
C14H8F5NO

>  <EXACT MASS>  (2401) 
301.052604976

>  <MW>  (2401) 
301

>  <ID>  (2401) 
JP008812

>  <CONTRIBUTOR>  (2401) 
University of Tokyo Team, {Faculty of Engineering, University of Tokyo

>  <COMMENT>  (2401) 
SMILES=c(c2)ccc(c2)C=NOCc(c(F)1)c(F)c(F)c(F)c(F)1
InChI=InChI=1S/C14H8F5NO/c15-10-9(11(16)13(18)14(19)12(10)17)7-21-20-6-8-4-2-1-3-5-8/h1-6H,7H2/b20-6+
computed SMILES=FC=1C(F)=C(F)C(=C(F)C1F)CON=CC=2C=CC=CC2
accession=JP008812
date=2016.01.19 (Created 2008.10.21, modified 2011.05.06)
author=UOEH
license=CC BY-NC-SA
exact mass=301.0526
ionization energy=70 eV
ion type=[M]+*
computed spectral entropy=2.813081553571731
computed normalized entropy=0.6988411869815971
SPLASH=splash10-001i-7901000000-9dd18da2d981e1de5425
submitter=submitter = University of Tokyo Team (Faculty of Engineering, University of Tokyo)
MoNA Rating=3.75

>  <NUM PEAKS>  (2401) 
56

>  <MASS SPECTRAL PEAKS>  (2401) 
43 0.17
44 3.09
49 0.23
50 6.45
51 15.31
52 2.26
53 0.21
57 0.18
62 1.3
63 4.59
64 2.79
65 14.74
66 1.3
69 1.75
74 1.95
75 3.18
76 4.87
77 14.33
78 1.54
79 0.5
80 0.46
81 1.18
88 0.19
89 8.99
90 3.35
92 3.78
93 2.82
98 0.61
99 3.85
102 0.9
103 6.54
104 1.88
112 0.58
117 3.83
119 1.49
120 0.81
131 0.97
137 0.19
143 0.41
150 0.52
155 0.78
161 3.91
167 2.31
168 0.74
177 0.28
181 99.99
182 7.22
195 2.46
198 0.25
258 1.18
271 6.9
272 0.81
284 0.32
300 2.66
301 13.64
302 1.69

$$$$

     RDKit          2D

 18 18  0  0  0  0  0  0  0  0999 V2000
   10.3928    6.0026    0.0000 C   0  0  0  0  0  0  0  0  0  0  0  0
   10.3932    3.0026    0.0000 C   0  0  0  0  0  0  0  0  0  0  0  0
    9.0938    5.2523    0.0000 C   0  0  0  0  0  0  0  0  0  0  0  0
    5.1971    3.0017    0.0000 C   0  0  0  0  0  0  0  0  0  0  0  0
    9.0941    3.7523    0.0000 C   0  0  0  0  0  0  0  0  0  0  0  0
    3.8979    3.7515    0.0000 C   0  0  0  0  0  0  0  0  0  0  0  0
    2.5982    3.0011    0.0000 C   0  0  0  0  0  0  0  0  0  0  0  0
    3.8974    5.2515    0.0000 C   0  0  0  0  0  0  0  0  0  0  0  0
    1.2979    3.7507    0.0000 C   0  0  0  0  0  0  0  0  0  0  0  0
    2.5972    6.0011    0.0000 C   0  0  0  0  0  0  0  0  0  0  0  0
    1.2974    5.2507    0.0000 C   0  0  0  0  0  0  0  0  0  0  0  0
    2.5986    1.5011    0.0000 F   0  0  0  0  0  0  0  0  0  0  0  0
    5.1961    6.0021    0.0000 F   0  0  0  0  0  0  0  0  0  0  0  0
   -0.0008    3.0001    0.0000 F   0  0  0  0  0  0  0  0  0  0  0  0
    2.5967    7.5011    0.0000 F   0  0  0  0  0  0  0  0  0  0  0  0
   -0.0017    6.0005    0.0000 F   0  0  0  0  0  0  0  0  0  0  0  0
    7.7952    3.0021    0.0000 N   0  0  0  0  0  0  0  0  0  0  0  0
    6.4960    3.7519    0.0000 O   0  0  0  0  0  0  0  0  0  0  0  0
  3  1  1  0
  5  2  1  0
  5  3  1  0
  6  4  1  0
  7  6  2  0
  8  6  1  0
  9  7  1  0
 10  8  2  0
 11  9  2  0
 11 10  1  0
 12  7  1  0
 13  8  1  0
 14  9  1  0
 15 10  1  0
 16 11  1  0
  5 17  2  0
 18  4  1  0
 18 17  1  0
M  END
>  <NAME>  (2402) 
METHYL ETHYL KETONE O-2,3,4,5,6-PENTAFLUOROBENZYLOXIME

>  <SYNONYMS>  (2402) 


>  <SPECTRUM TYPE>  (2402) 
MS1

>  <INSTRUMENT TYPE>  (2402) 
EI-B

>  <INSTRUMENT>  (2402) 
HP 5970

>  <ION MODE>  (2402) 
P

>  <INCHIKEY>  (2402) 
LNDQFOSWZJYEIC-ZWSORDCHSA-N

>  <FORMULA>  (2402) 
C11H10F5NO

>  <EXACT MASS>  (2402) 
267.06825504

>  <MW>  (2402) 
267

>  <ID>  (2402) 
JP008810

>  <CONTRIBUTOR>  (2402) 
University of Tokyo Team, {Faculty of Engineering, University of Tokyo

>  <COMMENT>  (2402) 
SMILES=CCC(C)=NOCc(c(F)1)c(F)c(F)c(F)c(F)1
InChI=InChI=1S/C11H10F5NO/c1-3-5(2)17-18-4-6-7(12)9(14)11(16)10(15)8(6)13/h3-4H2,1-2H3/b17-5-
computed SMILES=FC=1C(F)=C(F)C(=C(F)C1F)CON=C(C)CC
accession=JP008810
date=2016.01.19 (Created 2008.10.21, modified 2011.05.06)
author=UOEH
license=CC BY-NC-SA
exact mass=267.06825
ionization energy=70 eV
ion type=[M]+*
computed spectral entropy=2.5337409422796515
computed normalized entropy=0.6294458563984293
SPLASH=splash10-001i-4910000000-b46d0436bc0343a256d2
submitter=submitter = University of Tokyo Team (Faculty of Engineering, University of Tokyo)
MoNA Rating=3.75

>  <NUM PEAKS>  (2402) 
56

>  <MASS SPECTRAL PEAKS>  (2402) 
41 7.68
42 12.54
43 1.25
44 0.96
51 0.7
52 0.18
53 0.51
54 0.91
55 3.35
56 22.42
57 1.23
68 2.92
69 1.78
70 0.44
71 0.48
75 1.07
79 0.23
81 1.13
86 4.41
93 1.62
98 0.58
99 2.87
111 0.2
112 0.5
117 2.82
118 0.22
119 1.75
130 0.19
131 1.13
137 0.67
143 0.42
148 0.23
149 0.26
150 0.89
155 1.01
161 3.38
162 0.65
167 3.18
168 1.43
169 0.88
177 0.65
181 99.99
182 7.5
190 0.56
195 8.57
196 1.55
197 1.02
217 0.18
220 0.89
234 1.28
237 0.88
250 17.49
251 2.15
252 0.7
267 3.63
268 0.24

$$$$

     RDKit          2D

 17 17  0  0  0  0  0  0  0  0999 V2000
    7.7951    1.5010    0.0000 C   0  0  0  0  0  0  0  0  0  0  0  0
    6.4964   -0.7492    0.0000 C   0  0  0  0  0  0  0  0  0  0  0  0
    2.5989    1.5002    0.0000 C   0  0  0  0  0  0  0  0  0  0  0  0
    6.4962    0.7508    0.0000 C   0  0  0  0  0  0  0  0  0  0  0  0
    1.3000    0.7500    0.0000 C   0  0  0  0  0  0  0  0  0  0  0  0
   -0.0000    1.5000    0.0000 C   0  0  0  0  0  0  0  0  0  0  0  0
    1.3000   -0.7500    0.0000 C   0  0  0  0  0  0  0  0  0  0  0  0
   -1.3000    0.7500    0.0000 C   0  0  0  0  0  0  0  0  0  0  0  0
    0.0000   -1.5000    0.0000 C   0  0  0  0  0  0  0  0  0  0  0  0
   -1.3000   -0.7500    0.0000 C   0  0  0  0  0  0  0  0  0  0  0  0
    0.0000    3.0000    0.0000 F   0  0  0  0  0  0  0  0  0  0  0  0
    2.5989   -1.5002    0.0000 F   0  0  0  0  0  0  0  0  0  0  0  0
   -2.5989    1.5002    0.0000 F   0  0  0  0  0  0  0  0  0  0  0  0
   -0.0000   -3.0000    0.0000 F   0  0  0  0  0  0  0  0  0  0  0  0
   -2.5989   -1.5002    0.0000 F   0  0  0  0  0  0  0  0  0  0  0  0
    5.1970    1.5006    0.0000 N   0  0  0  0  0  0  0  0  0  0  0  0
    3.8981    0.7504    0.0000 O   0  0  0  0  0  0  0  0  0  0  0  0
  4  1  1  0
  4  2  1  0
  5  3  1  0
  6  5  2  0
  7  5  1  0
  8  6  1  0
  9  7  2  0
 10  8  2  0
 10  9  1  0
 11  6  1  0
 12  7  1  0
 13  8  1  0
 14  9  1  0
 15 10  1  0
 16  4  2  0
 17  3  1  0
 17 16  1  0
M  END
>  <NAME>  (2403) 
ACETONE O-2,3,4,5,6-PENTAFLUOROBENZYLOXIME

>  <SYNONYMS>  (2403) 


>  <SPECTRUM TYPE>  (2403) 
MS1

>  <INSTRUMENT TYPE>  (2403) 
EI-B

>  <INSTRUMENT>  (2403) 
HP 5970

>  <ION MODE>  (2403) 
P

>  <INCHIKEY>  (2403) 
DLIFNTQMBOCKTL-UHFFFAOYSA-N

>  <FORMULA>  (2403) 
C10H8F5NO

>  <EXACT MASS>  (2403) 
253.052604976

>  <MW>  (2403) 
253

>  <ID>  (2403) 
JP008809

>  <CONTRIBUTOR>  (2403) 
University of Tokyo Team, {Faculty of Engineering, University of Tokyo

>  <COMMENT>  (2403) 
SMILES=CC(C)=NOCc(c(F)1)c(F)c(F)c(F)c(F)1
InChI=InChI=1S/C10H8F5NO/c1-4(2)16-17-3-5-6(11)8(13)10(15)9(14)7(5)12/h3H2,1-2H3
computed SMILES=FC=1C(F)=C(F)C(=C(F)C1F)CON=C(C)C
accession=JP008809
date=2016.01.19 (Created 2008.10.21, modified 2011.05.06)
author=UOEH
license=CC BY-NC-SA
exact mass=253.0526
ionization energy=70 eV
ion type=[M]+*
computed spectral entropy=2.4797378088246815
computed normalized entropy=0.5627174479890303
SPLASH=splash10-001i-2910000000-6d03966b1e1e7cbb4cd5
submitter=submitter = University of Tokyo Team (Faculty of Engineering, University of Tokyo)
MoNA Rating=3.75

>  <NUM PEAKS>  (2403) 
82

>  <MASS SPECTRAL PEAKS>  (2403) 
41 5.22
42 4.34
43 0.26
44 0.19
50 0.11
51 0.77
52 0.26
54 1.08
55 0.64
56 2.51
57 0.35
61 0.24
62 0.28
68 0.23
69 1.66
70 0.42
72 6.68
73 0.23
74 0.31
75 1.05
79 0.41
80 0.35
81 1.1
86 0.21
87 0.1
92 0.16
93 1.68
98 0.73
99 2.38
100 0.22
105 0.18
106 0.09
110 0.08
111 0.34
112 0.73
113 0.23
117 2.99
118 0.37
119 1.45
120 0.1
123 0.1
124 0.12
129 0.18
130 0.33
131 1.23
132 0.1
137 0.59
141 0.15
143 0.65
148 0.45
149 0.38
150 0.69
155 1.06
161 3.81
162 0.74
163 0.31
164 0.11
167 2.67
168 1.22
169 0.55
176 0.63
177 0.22
178 0.15
181 99.99
182 7.3
183 0.23
194 0.26
195 3.55
196 0.6
197 0.48
203 0.21
206 5.11
207 0.52
223 5.71
224 0.62
233 0.7
234 0.36
236 3.94
237 0.47
238 0.25
253 6.55
254 0.74

$$$$

     RDKit          2D

 28 28  0  0  0  0  0  0  0  0999 V2000
   23.3835    1.5035    0.0000 C   0  0  0  0  0  0  0  0  0  0  0  0
   22.0846    0.7533    0.0000 C   0  0  0  0  0  0  0  0  0  0  0  0
   20.7855    1.5031    0.0000 C   0  0  0  0  0  0  0  0  0  0  0  0
   19.4865    0.7529    0.0000 C   0  0  0  0  0  0  0  0  0  0  0  0
   18.1874    1.5027    0.0000 C   0  0  0  0  0  0  0  0  0  0  0  0
   16.8885    0.7525    0.0000 C   0  0  0  0  0  0  0  0  0  0  0  0
   15.5893    1.5023    0.0000 C   0  0  0  0  0  0  0  0  0  0  0  0
   14.2904    0.7521    0.0000 C   0  0  0  0  0  0  0  0  0  0  0  0
   12.9912    1.5019    0.0000 C   0  0  0  0  0  0  0  0  0  0  0  0
   11.6923    0.7517    0.0000 C   0  0  0  0  0  0  0  0  0  0  0  0
   10.3931    1.5015    0.0000 C   0  0  0  0  0  0  0  0  0  0  0  0
    9.0942    0.7512    0.0000 C   0  0  0  0  0  0  0  0  0  0  0  0
    7.7951    1.5010    0.0000 C   0  0  0  0  0  0  0  0  0  0  0  0
    6.4962    0.7508    0.0000 C   0  0  0  0  0  0  0  0  0  0  0  0
    2.5989    1.5002    0.0000 C   0  0  0  0  0  0  0  0  0  0  0  0
    1.3000    0.7500    0.0000 C   0  0  0  0  0  0  0  0  0  0  0  0
   -0.0000    1.5000    0.0000 C   0  0  0  0  0  0  0  0  0  0  0  0
    1.3000   -0.7500    0.0000 C   0  0  0  0  0  0  0  0  0  0  0  0
   -1.3000    0.7500    0.0000 C   0  0  0  0  0  0  0  0  0  0  0  0
   -0.0000   -1.5000    0.0000 C   0  0  0  0  0  0  0  0  0  0  0  0
   -1.3000   -0.7500    0.0000 C   0  0  0  0  0  0  0  0  0  0  0  0
   -0.0000    3.0000    0.0000 F   0  0  0  0  0  0  0  0  0  0  0  0
    2.5989   -1.5002    0.0000 F   0  0  0  0  0  0  0  0  0  0  0  0
   -2.5989    1.5002    0.0000 F   0  0  0  0  0  0  0  0  0  0  0  0
   -0.0000   -3.0000    0.0000 F   0  0  0  0  0  0  0  0  0  0  0  0
   -2.5989   -1.5002    0.0000 F   0  0  0  0  0  0  0  0  0  0  0  0
    5.1970    1.5006    0.0000 N   0  0  0  0  0  0  0  0  0  0  0  0
    3.8981    0.7504    0.0000 O   0  0  0  0  0  0  0  0  0  0  0  0
  2  1  1  0
  3  2  1  0
  4  3  1  0
  5  4  1  0
  6  5  1  0
  7  6  1  0
  8  7  1  0
  9  8  1  0
 10  9  1  0
 11 10  1  0
 12 11  1  0
 13 12  1  0
 14 13  1  0
 16 15  1  0
 17 16  2  0
 18 16  1  0
 19 17  1  0
 20 18  2  0
 21 19  2  0
 21 20  1  0
 22 17  1  0
 23 18  1  0
 24 19  1  0
 25 20  1  0
 26 21  1  0
 14 27  2  0
 28 15  1  0
 28 27  1  0
M  END
>  <NAME>  (2404) 
TETRADECANAL O-2,3,4,5,6-PENTAFLUOROBENZYLOXIME

>  <SYNONYMS>  (2404) 


>  <SPECTRUM TYPE>  (2404) 
MS1

>  <INSTRUMENT TYPE>  (2404) 
EI-B

>  <INSTRUMENT>  (2404) 
HP 5970

>  <ION MODE>  (2404) 
P

>  <INCHIKEY>  (2404) 
XGPWCYWECONRBN-MZJWZYIUSA-N

>  <FORMULA>  (2404) 
C21H30F5NO

>  <EXACT MASS>  (2404) 
407.22475568

>  <MW>  (2404) 
407

>  <ID>  (2404) 
JP008808

>  <CONTRIBUTOR>  (2404) 
University of Tokyo Team, {Faculty of Engineering, University of Tokyo

>  <COMMENT>  (2404) 
SMILES=CCCCCCCCCCCCCC=NOCc(c(F)1)c(F)c(F)c(F)c(F)1
InChI=InChI=1S/C21H30F5NO/c1-2-3-4-5-6-7-8-9-10-11-12-13-14-27-28-15-16-17(22)19(24)21(26)20(25)18(16)23/h14H,2-13,15H2,1H3/b27-14+
computed SMILES=FC=1C(F)=C(F)C(=C(F)C1F)CON=CCCCCCCCCCCCCC
accession=JP008808
date=2016.01.19 (Created 2008.10.21, modified 2011.05.06)
author=UOEH
license=CC BY-NC-SA
exact mass=407.22476
ionization energy=70 eV
ion type=[M]+*
computed spectral entropy=3.450750695657805
computed normalized entropy=0.8122289184895629
SPLASH=splash10-001u-9640000000-eb1ad779360798f25f91
submitter=submitter = University of Tokyo Team (Faculty of Engineering, University of Tokyo)
MoNA Rating=3.75

>  <NUM PEAKS>  (2404) 
70

>  <MASS SPECTRAL PEAKS>  (2404) 
41 34.16
42 7.19
43 35.88
44 2.6
46 1.51
53 2.31
54 4.57
55 20.55
56 8.16
57 17.99
58 2.95
67 4.99
68 2.79
69 12.49
70 5.76
71 6.34
72 1.95
79 2.91
80 1.34
81 4.97
82 6.09
83 8.27
84 3.11
85 2.78
86 1.7
93 2.88
95 3.39
96 7.5
97 9.88
98 4.61
99 4.13
100 1.75
110 6.31
111 4.51
112 1.56
117 3.17
119 2.39
124 4.03
131 1.51
138 1.91
149 1.7
150 2.65
151 1.27
152 1.88
161 3.6
166 1.83
167 2.9
168 1.71
176 1.47
177 6.02
178 2.53
179 1.22
181 99.99
182 7.14
194 1.93
195 3.79
196 1.96
197 3.55
198 5.65
202 2.06
207 9.59
208 2.52
210 1.91
219 1.87
222 6.45
226 14.95
227 2.55
239 61.55
240 6.89
252 2.75

$$$$

     RDKit          2D

 27 27  0  0  0  0  0  0  0  0999 V2000
   -2.5989   -0.7533    0.0000 C   0  0  0  0  0  0  0  0  0  0  0  0
   -1.2998   -1.5031    0.0000 C   0  0  0  0  0  0  0  0  0  0  0  0
   -0.0008   -0.7529    0.0000 C   0  0  0  0  0  0  0  0  0  0  0  0
    1.2983   -1.5027    0.0000 C   0  0  0  0  0  0  0  0  0  0  0  0
    2.5972   -0.7525    0.0000 C   0  0  0  0  0  0  0  0  0  0  0  0
    3.8964   -1.5023    0.0000 C   0  0  0  0  0  0  0  0  0  0  0  0
    5.1953   -0.7521    0.0000 C   0  0  0  0  0  0  0  0  0  0  0  0
    6.4945   -1.5019    0.0000 C   0  0  0  0  0  0  0  0  0  0  0  0
    7.7934   -0.7517    0.0000 C   0  0  0  0  0  0  0  0  0  0  0  0
    9.0925   -1.5015    0.0000 C   0  0  0  0  0  0  0  0  0  0  0  0
   10.3915   -0.7512    0.0000 C   0  0  0  0  0  0  0  0  0  0  0  0
   11.6906   -1.5010    0.0000 C   0  0  0  0  0  0  0  0  0  0  0  0
   12.9895   -0.7508    0.0000 C   0  0  0  0  0  0  0  0  0  0  0  0
   16.8868   -1.5002    0.0000 C   0  0  0  0  0  0  0  0  0  0  0  0
   18.1857   -0.7500    0.0000 C   0  0  0  0  0  0  0  0  0  0  0  0
   19.4857   -1.5000    0.0000 C   0  0  0  0  0  0  0  0  0  0  0  0
   18.1857    0.7500    0.0000 C   0  0  0  0  0  0  0  0  0  0  0  0
   20.7857   -0.7500    0.0000 C   0  0  0  0  0  0  0  0  0  0  0  0
   19.4857    1.5000    0.0000 C   0  0  0  0  0  0  0  0  0  0  0  0
   20.7857    0.7500    0.0000 C   0  0  0  0  0  0  0  0  0  0  0  0
   19.4857   -3.0000    0.0000 F   0  0  0  0  0  0  0  0  0  0  0  0
   16.8868    1.5002    0.0000 F   0  0  0  0  0  0  0  0  0  0  0  0
   22.0846   -1.5002    0.0000 F   0  0  0  0  0  0  0  0  0  0  0  0
   19.4857    3.0000    0.0000 F   0  0  0  0  0  0  0  0  0  0  0  0
   22.0846    1.5002    0.0000 F   0  0  0  0  0  0  0  0  0  0  0  0
   14.2887   -1.5006    0.0000 N   0  0  0  0  0  0  0  0  0  0  0  0
   15.5876   -0.7504    0.0000 O   0  0  0  0  0  0  0  0  0  0  0  0
  2  1  1  0
  3  2  1  0
  4  3  1  0
  5  4  1  0
  6  5  1  0
  7  6  1  0
  8  7  1  0
  9  8  1  0
 10  9  1  0
 11 10  1  0
 12 11  1  0
 13 12  1  0
 15 14  1  0
 16 15  2  0
 17 15  1  0
 18 16  1  0
 19 17  2  0
 20 18  2  0
 20 19  1  0
 21 16  1  0
 22 17  1  0
 23 18  1  0
 24 19  1  0
 25 20  1  0
 13 26  2  0
 27 14  1  0
 27 26  1  0
M  END
>  <NAME>  (2405) 
TRIDECANAL O-2,3,4,5,6-PENTAFLUOROBENZYLOXIME

>  <SYNONYMS>  (2405) 


>  <SPECTRUM TYPE>  (2405) 
MS1

>  <INSTRUMENT TYPE>  (2405) 
EI-B

>  <INSTRUMENT>  (2405) 
HP 5970

>  <ION MODE>  (2405) 
P

>  <INCHIKEY>  (2405) 
RBTHWMFPSLXCNJ-LGJNPRDNSA-N

>  <FORMULA>  (2405) 
C20H28F5NO

>  <EXACT MASS>  (2405) 
393.20910561599993

>  <MW>  (2405) 
393

>  <ID>  (2405) 
JP008807

>  <CONTRIBUTOR>  (2405) 
University of Tokyo Team, {Faculty of Engineering, University of Tokyo

>  <COMMENT>  (2405) 
SMILES=CCCCCCCCCCCCC=NOCc(c(F)1)c(F)c(F)c(F)c(F)1
InChI=InChI=1S/C20H28F5NO/c1-2-3-4-5-6-7-8-9-10-11-12-13-26-27-14-15-16(21)18(23)20(25)19(24)17(15)22/h13H,2-12,14H2,1H3/b26-13+
computed SMILES=FC=1C(F)=C(F)C(=C(F)C1F)CON=CCCCCCCCCCCCC
accession=JP008807
date=2016.01.19 (Created 2008.10.21, modified 2011.05.06)
author=UOEH
license=CC BY-NC-SA
exact mass=393.20911
ionization energy=70 eV
ion type=[M]+*
computed spectral entropy=3.441933376728437
computed normalized entropy=0.7810648202435934
SPLASH=splash10-001u-9740000000-15f38fa673bc4a96fe8c
submitter=submitter = University of Tokyo Team (Faculty of Engineering, University of Tokyo)
MoNA Rating=3.75

>  <NUM PEAKS>  (2405) 
82

>  <MASS SPECTRAL PEAKS>  (2405) 
41 32.56
42 6.28
43 32.12
44 2.33
46 1.52
49 0.77
51 0.9
53 2.06
54 4.28
55 18.31
56 7.18
57 15.86
58 3.36
59 1.1
67 3.95
68 2.38
69 10.93
70 4.13
71 5.15
72 1.67
75 1.22
79 2.02
80 1.28
81 4.1
82 5.54
83 6.34
84 2.68
85 1.85
86 1.59
93 2.15
95 3.12
96 5.82
97 7.67
98 3.32
99 3.57
100 1.67
109 1.53
110 4.43
111 3.04
112 1.24
117 2.33
123 0.77
124 2.4
125 0.92
130 0.69
131 1.33
137 0.62
138 1.42
149 1.14
150 2.27
151 0.85
152 1.3
161 3.34
166 0.89
167 2.15
168 1.33
169 1.19
176 1.43
177 4.43
178 2.04
179 1.22
181 99.99
182 7.3
184 0.94
189 0.76
190 0.7
194 2.59
195 3.54
196 2.4
197 2.55
198 3.94
202 1.82
207 8.25
208 1.01
212 12.25
213 1.74
219 1.45
222 6.08
226 1.19
239 52.05
240 5.16
252 2.53

$$$$

     RDKit          2D

 26 26  0  0  0  0  0  0  0  0999 V2000
   20.7855    1.5031    0.0000 C   0  0  0  0  0  0  0  0  0  0  0  0
   19.4865    0.7529    0.0000 C   0  0  0  0  0  0  0  0  0  0  0  0
   18.1874    1.5027    0.0000 C   0  0  0  0  0  0  0  0  0  0  0  0
   16.8885    0.7525    0.0000 C   0  0  0  0  0  0  0  0  0  0  0  0
   15.5893    1.5023    0.0000 C   0  0  0  0  0  0  0  0  0  0  0  0
   14.2904    0.7521    0.0000 C   0  0  0  0  0  0  0  0  0  0  0  0
   12.9912    1.5019    0.0000 C   0  0  0  0  0  0  0  0  0  0  0  0
   11.6923    0.7517    0.0000 C   0  0  0  0  0  0  0  0  0  0  0  0
   10.3931    1.5015    0.0000 C   0  0  0  0  0  0  0  0  0  0  0  0
    9.0942    0.7512    0.0000 C   0  0  0  0  0  0  0  0  0  0  0  0
    7.7951    1.5010    0.0000 C   0  0  0  0  0  0  0  0  0  0  0  0
    6.4962    0.7508    0.0000 C   0  0  0  0  0  0  0  0  0  0  0  0
    3.8976    3.7504    0.0000 C   0  0  0  0  0  0  0  0  0  0  0  0
    3.8974    5.2504    0.0000 C   0  0  0  0  0  0  0  0  0  0  0  0
    2.5976    6.0008    0.0000 C   0  0  0  0  0  0  0  0  0  0  0  0
    5.1962    6.0008    0.0000 C   0  0  0  0  0  0  0  0  0  0  0  0
    2.5966    7.5017    0.0000 C   0  0  0  0  0  0  0  0  0  0  0  0
    5.1952    7.5017    0.0000 C   0  0  0  0  0  0  0  0  0  0  0  0
    3.8954    8.2521    0.0000 C   0  0  0  0  0  0  0  0  0  0  0  0
    1.2988    5.2504    0.0000 F   0  0  0  0  0  0  0  0  0  0  0  0
    6.4956    5.2515    0.0000 F   0  0  0  0  0  0  0  0  0  0  0  0
    1.2972    8.2510    0.0000 F   0  0  0  0  0  0  0  0  0  0  0  0
    6.4940    8.2521    0.0000 F   0  0  0  0  0  0  0  0  0  0  0  0
    3.8952    9.7521    0.0000 F   0  0  0  0  0  0  0  0  0  0  0  0
    5.1970    1.5006    0.0000 N   0  0  0  0  0  0  0  0  0  0  0  0
    5.1968    3.0006    0.0000 O   0  0  0  0  0  0  0  0  0  0  0  0
  2  1  1  0
  3  2  1  0
  4  3  1  0
  5  4  1  0
  6  5  1  0
  7  6  1  0
  8  7  1  0
  9  8  1  0
 10  9  1  0
 11 10  1  0
 12 11  1  0
 14 13  1  0
 15 14  2  0
 16 14  1  0
 17 15  1  0
 18 16  2  0
 19 17  2  0
 19 18  1  0
 20 15  1  0
 21 16  1  0
 22 17  1  0
 23 18  1  0
 24 19  1  0
 12 25  2  0
 26 13  1  0
 26 25  1  0
M  END
>  <NAME>  (2406) 
DODECANAL O-2,3,4,5,6-PENTAFLUOROBENZYLOXIME

>  <SYNONYMS>  (2406) 


>  <SPECTRUM TYPE>  (2406) 
MS1

>  <INSTRUMENT TYPE>  (2406) 
EI-B

>  <INSTRUMENT>  (2406) 
HP 5970

>  <ION MODE>  (2406) 
P

>  <INCHIKEY>  (2406) 
KVESFPFADCWDQR-ROTLSHHCSA-N

>  <FORMULA>  (2406) 
C19H26F5NO

>  <EXACT MASS>  (2406) 
379.193455552

>  <MW>  (2406) 
379

>  <ID>  (2406) 
JP008806

>  <CONTRIBUTOR>  (2406) 
University of Tokyo Team, {Faculty of Engineering, University of Tokyo

>  <COMMENT>  (2406) 
SMILES=CCCCCCCCCCCC=NOCc(c(F)1)c(F)c(F)c(F)c(F)1
InChI=InChI=1S/C19H26F5NO/c1-2-3-4-5-6-7-8-9-10-11-12-25-26-13-14-15(20)17(22)19(24)18(23)16(14)21/h12H,2-11,13H2,1H3/b25-12-
computed SMILES=FC=1C(F)=C(F)C(=C(F)C1F)CON=CCCCCCCCCCCC
ionization energy=70 eV
ion type=[M]+*
accession=JP008806
date=2016.01.19 (Created 2008.10.21, modified 2011.05.06)
author=UOEH
license=CC BY-NC-SA
exact mass=379.19346
computed spectral entropy=3.2776311724406613
computed normalized entropy=0.7741022028807997
SPLASH=splash10-001l-9830000000-f02b600a2eee8ade6fd7
submitter=submitter = University of Tokyo Team (Faculty of Engineering, University of Tokyo)
MoNA Rating=3.75

>  <NUM PEAKS>  (2406) 
69

>  <MASS SPECTRAL PEAKS>  (2406) 
41 30.26
42 5.57
43 28.27
44 1.99
46 1.61
51 0.77
53 2.19
54 4.04
55 16.52
56 5.45
57 12.48
58 3.03
59 0.97
67 3.45
68 2.47
69 8.93
70 3.12
71 4.32
72 1.6
79 1.78
80 1.03
81 3.76
82 4.87
83 5.93
84 1.73
85 1.81
86 1.66
93 1.79
95 2.75
96 4.95
97 5.91
98 2.94
99 3.31
100 1.27
109 1.45
110 3.22
111 2.61
112 1.18
117 2.13
118 2.02
124 1.93
131 1.26
138 1.36
149 1.18
150 1.96
161 3.03
167 2.24
168 1.17
176 1.25
177 3.92
178 1.45
179 0.75
181 99.99
182 8.69
194 1.15
195 2.87
196 1.6
197 1.89
198 11.57
199 1.48
202 1.78
207 7.32
208 0.76
219 1.22
222 5.69
226 1.15
239 46.07
240 4.94
252 2.9

$$$$

     RDKit          2D

 25 25  0  0  0  0  0  0  0  0999 V2000
   19.4865    0.7529    0.0000 C   0  0  0  0  0  0  0  0  0  0  0  0
   18.1874    1.5027    0.0000 C   0  0  0  0  0  0  0  0  0  0  0  0
   16.8885    0.7525    0.0000 C   0  0  0  0  0  0  0  0  0  0  0  0
   15.5893    1.5023    0.0000 C   0  0  0  0  0  0  0  0  0  0  0  0
   14.2904    0.7521    0.0000 C   0  0  0  0  0  0  0  0  0  0  0  0
   12.9912    1.5019    0.0000 C   0  0  0  0  0  0  0  0  0  0  0  0
   11.6923    0.7517    0.0000 C   0  0  0  0  0  0  0  0  0  0  0  0
   10.3931    1.5015    0.0000 C   0  0  0  0  0  0  0  0  0  0  0  0
    9.0942    0.7512    0.0000 C   0  0  0  0  0  0  0  0  0  0  0  0
    7.7951    1.5010    0.0000 C   0  0  0  0  0  0  0  0  0  0  0  0
    6.4962    0.7508    0.0000 C   0  0  0  0  0  0  0  0  0  0  0  0
    3.8976    3.7504    0.0000 C   0  0  0  0  0  0  0  0  0  0  0  0
    3.8974    5.2504    0.0000 C   0  0  0  0  0  0  0  0  0  0  0  0
    2.5976    6.0008    0.0000 C   0  0  0  0  0  0  0  0  0  0  0  0
    5.1962    6.0008    0.0000 C   0  0  0  0  0  0  0  0  0  0  0  0
    2.5966    7.5017    0.0000 C   0  0  0  0  0  0  0  0  0  0  0  0
    5.1952    7.5017    0.0000 C   0  0  0  0  0  0  0  0  0  0  0  0
    3.8954    8.2521    0.0000 C   0  0  0  0  0  0  0  0  0  0  0  0
    1.2988    5.2504    0.0000 F   0  0  0  0  0  0  0  0  0  0  0  0
    6.4956    5.2515    0.0000 F   0  0  0  0  0  0  0  0  0  0  0  0
    1.2972    8.2510    0.0000 F   0  0  0  0  0  0  0  0  0  0  0  0
    6.4940    8.2521    0.0000 F   0  0  0  0  0  0  0  0  0  0  0  0
    3.8952    9.7521    0.0000 F   0  0  0  0  0  0  0  0  0  0  0  0
    5.1970    1.5006    0.0000 N   0  0  0  0  0  0  0  0  0  0  0  0
    5.1968    3.0006    0.0000 O   0  0  0  0  0  0  0  0  0  0  0  0
  2  1  1  0
  3  2  1  0
  4  3  1  0
  5  4  1  0
  6  5  1  0
  7  6  1  0
  8  7  1  0
  9  8  1  0
 10  9  1  0
 11 10  1  0
 13 12  1  0
 14 13  2  0
 15 13  1  0
 16 14  1  0
 17 15  2  0
 18 16  2  0
 18 17  1  0
 19 14  1  0
 20 15  1  0
 21 16  1  0
 22 17  1  0
 23 18  1  0
 11 24  2  0
 25 12  1  0
 25 24  1  0
M  END
>  <NAME>  (2407) 
UNDECANAL O-2,3,4,5,6-PENTAFLUOROBENZYLOXIME

>  <SYNONYMS>  (2407) 


>  <SPECTRUM TYPE>  (2407) 
MS1

>  <INSTRUMENT TYPE>  (2407) 
EI-B

>  <INSTRUMENT>  (2407) 
HP 5970

>  <ION MODE>  (2407) 
P

>  <INCHIKEY>  (2407) 
XJDXRHQPJGTNHN-MYKKPKGFSA-N

>  <FORMULA>  (2407) 
C18H24F5NO

>  <EXACT MASS>  (2407) 
365.177805488

>  <MW>  (2407) 
365

>  <ID>  (2407) 
JP008805

>  <CONTRIBUTOR>  (2407) 
University of Tokyo Team, {Faculty of Engineering, University of Tokyo

>  <COMMENT>  (2407) 
SMILES=CCCCCCCCCCC=NOCc(c(F)1)c(F)c(F)c(F)c(F)1
InChI=InChI=1S/C18H24F5NO/c1-2-3-4-5-6-7-8-9-10-11-24-25-12-13-14(19)16(21)18(23)17(22)15(13)20/h11H,2-10,12H2,1H3/b24-11-
computed SMILES=FC=1C(F)=C(F)C(=C(F)C1F)CON=CCCCCCCCCCC
accession=JP008805
date=2016.01.19 (Created 2008.10.21, modified 2011.05.06)
author=UOEH
license=CC BY-NC-SA
exact mass=365.17781
ionization energy=70 eV
ion type=[M]+*
computed spectral entropy=3.1738414620108304
computed normalized entropy=0.8032512515199393
SPLASH=splash10-001l-9830000000-9dec79c43e9711920c31
submitter=submitter = University of Tokyo Team (Faculty of Engineering, University of Tokyo)
MoNA Rating=3.75

>  <NUM PEAKS>  (2407) 
52

>  <MASS SPECTRAL PEAKS>  (2407) 
41 26.95
42 4.67
43 25.25
44 2.1
54 5.02
55 14.88
56 6.02
57 11.11
58 2.14
67 3
68 2.52
69 9.56
70 2.62
71 3.29
79 2.19
81 3.86
82 5.59
83 7.61
85 2.04
86 1.95
93 2.31
95 2.98
96 5.45
97 6.31
98 3.18
99 4.21
110 3.99
111 2.23
117 2.55
119 2.22
124 2.94
149 1.65
150 3.01
161 4.25
167 2.45
168 2.53
177 4.58
178 2.44
181 99.99
182 7.78
184 7.14
194 1.62
195 3.84
196 1.85
197 2.47
198 4.77
202 1.6
207 7.42
222 4.72
239 38.06
240 4.08
252 1.98

$$$$

     RDKit          2D

 24 24  0  0  0  0  0  0  0  0999 V2000
   18.1874    1.5027    0.0000 C   0  0  0  0  0  0  0  0  0  0  0  0
   16.8885    0.7525    0.0000 C   0  0  0  0  0  0  0  0  0  0  0  0
   15.5893    1.5023    0.0000 C   0  0  0  0  0  0  0  0  0  0  0  0
   14.2904    0.7521    0.0000 C   0  0  0  0  0  0  0  0  0  0  0  0
   12.9912    1.5019    0.0000 C   0  0  0  0  0  0  0  0  0  0  0  0
   11.6923    0.7517    0.0000 C   0  0  0  0  0  0  0  0  0  0  0  0
   10.3931    1.5015    0.0000 C   0  0  0  0  0  0  0  0  0  0  0  0
    9.0942    0.7512    0.0000 C   0  0  0  0  0  0  0  0  0  0  0  0
    7.7951    1.5010    0.0000 C   0  0  0  0  0  0  0  0  0  0  0  0
    6.4962    0.7508    0.0000 C   0  0  0  0  0  0  0  0  0  0  0  0
    2.5989    1.5002    0.0000 C   0  0  0  0  0  0  0  0  0  0  0  0
    1.3000    0.7500    0.0000 C   0  0  0  0  0  0  0  0  0  0  0  0
   -0.0000    1.5000    0.0000 C   0  0  0  0  0  0  0  0  0  0  0  0
    1.3000   -0.7500    0.0000 C   0  0  0  0  0  0  0  0  0  0  0  0
   -1.3000    0.7500    0.0000 C   0  0  0  0  0  0  0  0  0  0  0  0
    0.0000   -1.5000    0.0000 C   0  0  0  0  0  0  0  0  0  0  0  0
   -1.3000   -0.7500    0.0000 C   0  0  0  0  0  0  0  0  0  0  0  0
    0.0000    3.0000    0.0000 F   0  0  0  0  0  0  0  0  0  0  0  0
    2.5989   -1.5002    0.0000 F   0  0  0  0  0  0  0  0  0  0  0  0
   -2.5989    1.5002    0.0000 F   0  0  0  0  0  0  0  0  0  0  0  0
   -0.0000   -3.0000    0.0000 F   0  0  0  0  0  0  0  0  0  0  0  0
   -2.5989   -1.5002    0.0000 F   0  0  0  0  0  0  0  0  0  0  0  0
    5.1970    1.5006    0.0000 N   0  0  0  0  0  0  0  0  0  0  0  0
    3.8981    0.7504    0.0000 O   0  0  0  0  0  0  0  0  0  0  0  0
  2  1  1  0
  3  2  1  0
  4  3  1  0
  5  4  1  0
  6  5  1  0
  7  6  1  0
  8  7  1  0
  9  8  1  0
 10  9  1  0
 12 11  1  0
 13 12  2  0
 14 12  1  0
 15 13  1  0
 16 14  2  0
 17 15  2  0
 17 16  1  0
 18 13  1  0
 19 14  1  0
 20 15  1  0
 21 16  1  0
 22 17  1  0
 10 23  2  0
 24 11  1  0
 24 23  1  0
M  END
>  <NAME>  (2408) 
DECANAL O-2,3,4,5,6-PENTAFLUOROBENZYLOXIME

>  <SYNONYMS>  (2408) 


>  <SPECTRUM TYPE>  (2408) 
MS1

>  <INSTRUMENT TYPE>  (2408) 
EI-B

>  <INSTRUMENT>  (2408) 
HP 5970

>  <ION MODE>  (2408) 
P

>  <INCHIKEY>  (2408) 
NUGDFCWVLOJWOP-AUEPDCJTSA-N

>  <FORMULA>  (2408) 
C17H22F5NO

>  <EXACT MASS>  (2408) 
351.162155424

>  <MW>  (2408) 
351

>  <ID>  (2408) 
JP008804

>  <CONTRIBUTOR>  (2408) 
University of Tokyo Team, {Faculty of Engineering, University of Tokyo

>  <COMMENT>  (2408) 
SMILES=CCCCCCCCCC=NOCc(c(F)1)c(F)c(F)c(F)c(F)1
InChI=InChI=1S/C17H22F5NO/c1-2-3-4-5-6-7-8-9-10-23-24-11-12-13(18)15(20)17(22)16(21)14(12)19/h10H,2-9,11H2,1H3/b23-10+
computed SMILES=FC=1C(F)=C(F)C(=C(F)C1F)CON=CCCCCCCCCC
accession=JP008804
date=2016.01.19 (Created 2008.10.21, modified 2011.05.06)
author=UOEH
license=CC BY-NC-SA
exact mass=351.16216
ionization energy=70 eV
ion type=[M]+*
computed spectral entropy=3.0514563517824476
computed normalized entropy=0.7685722909609397
SPLASH=splash10-001l-9830000000-4feacf9a1a4883f63d8b
submitter=submitter = University of Tokyo Team (Faculty of Engineering, University of Tokyo)
MoNA Rating=3.75

>  <NUM PEAKS>  (2408) 
53

>  <MASS SPECTRAL PEAKS>  (2408) 
41 28.77
42 4.83
43 25.78
44 0.87
54 4.7
55 15.59
56 5.48
57 10.94
58 2.16
67 3.02
68 1.77
69 9.65
70 2.9
71 3.38
79 1.49
81 3.79
82 5.87
83 6.67
84 0.6
85 0.84
86 0.81
93 0.96
95 2.68
96 6.25
97 5.8
98 3.2
99 3.83
110 3.86
111 0.92
117 2.71
119 0.92
124 2.06
149 0.68
150 1.25
161 3.89
167 1.01
168 1.87
177 4.46
178 1.69
181 99.99
182 6.86
184 6.56
194 0.67
195 4.08
196 1.48
197 2.53
198 4.72
202 0.66
207 7.44
222 4.71
239 39.19
240 3.05
252 1.58

$$$$

     RDKit          2D

 23 23  0  0  0  0  0  0  0  0999 V2000
   16.8885    0.7525    0.0000 C   0  0  0  0  0  0  0  0  0  0  0  0
   15.5893    1.5023    0.0000 C   0  0  0  0  0  0  0  0  0  0  0  0
   14.2904    0.7521    0.0000 C   0  0  0  0  0  0  0  0  0  0  0  0
   12.9912    1.5019    0.0000 C   0  0  0  0  0  0  0  0  0  0  0  0
   11.6923    0.7517    0.0000 C   0  0  0  0  0  0  0  0  0  0  0  0
   10.3931    1.5015    0.0000 C   0  0  0  0  0  0  0  0  0  0  0  0
    9.0942    0.7512    0.0000 C   0  0  0  0  0  0  0  0  0  0  0  0
    7.7951    1.5010    0.0000 C   0  0  0  0  0  0  0  0  0  0  0  0
    6.4962    0.7508    0.0000 C   0  0  0  0  0  0  0  0  0  0  0  0
    3.8976    3.7504    0.0000 C   0  0  0  0  0  0  0  0  0  0  0  0
    3.8974    5.2504    0.0000 C   0  0  0  0  0  0  0  0  0  0  0  0
    2.5976    6.0008    0.0000 C   0  0  0  0  0  0  0  0  0  0  0  0
    5.1962    6.0008    0.0000 C   0  0  0  0  0  0  0  0  0  0  0  0
    2.5966    7.5017    0.0000 C   0  0  0  0  0  0  0  0  0  0  0  0
    5.1952    7.5017    0.0000 C   0  0  0  0  0  0  0  0  0  0  0  0
    3.8954    8.2521    0.0000 C   0  0  0  0  0  0  0  0  0  0  0  0
    1.2988    5.2504    0.0000 F   0  0  0  0  0  0  0  0  0  0  0  0
    6.4956    5.2515    0.0000 F   0  0  0  0  0  0  0  0  0  0  0  0
    1.2972    8.2510    0.0000 F   0  0  0  0  0  0  0  0  0  0  0  0
    6.4940    8.2521    0.0000 F   0  0  0  0  0  0  0  0  0  0  0  0
    3.8952    9.7521    0.0000 F   0  0  0  0  0  0  0  0  0  0  0  0
    5.1970    1.5006    0.0000 N   0  0  0  0  0  0  0  0  0  0  0  0
    5.1968    3.0006    0.0000 O   0  0  0  0  0  0  0  0  0  0  0  0
  2  1  1  0
  3  2  1  0
  4  3  1  0
  5  4  1  0
  6  5  1  0
  7  6  1  0
  8  7  1  0
  9  8  1  0
 11 10  1  0
 12 11  2  0
 13 11  1  0
 14 12  1  0
 15 13  2  0
 16 14  2  0
 16 15  1  0
 17 12  1  0
 18 13  1  0
 19 14  1  0
 20 15  1  0
 21 16  1  0
  9 22  2  0
 23 10  1  0
 23 22  1  0
M  END
>  <NAME>  (2409) 
NONANAL O-2,3,4,5,6-PENTAFLUOROBENZYLOXIME

>  <SYNONYMS>  (2409) 


>  <SPECTRUM TYPE>  (2409) 
MS1

>  <INSTRUMENT TYPE>  (2409) 
EI-B

>  <INSTRUMENT>  (2409) 
HP 5970

>  <ION MODE>  (2409) 
P

>  <INCHIKEY>  (2409) 
DYTJHXNVXCBNHN-AFPJDJCSSA-N

>  <FORMULA>  (2409) 
C16H20F5NO

>  <EXACT MASS>  (2409) 
337.14650536

>  <MW>  (2409) 
337

>  <ID>  (2409) 
JP008803

>  <CONTRIBUTOR>  (2409) 
University of Tokyo Team, {Faculty of Engineering, University of Tokyo

>  <COMMENT>  (2409) 
SMILES=CCCCCCCCC=NOCc(c(F)1)c(F)c(F)c(F)c(F)1
InChI=InChI=1S/C16H20F5NO/c1-2-3-4-5-6-7-8-9-22-23-10-11-12(17)14(19)16(21)15(20)13(11)18/h9H,2-8,10H2,1H3/b22-9-
computed SMILES=FC=1C(F)=C(F)C(=C(F)C1F)CON=CCCCCCCCC
accession=JP008803
date=2016.01.19 (Created 2008.10.21, modified 2011.05.06)
author=UOEH
license=CC BY-NC-SA
exact mass=337.14651
ionization energy=70 eV
ion type=[M]+*
computed spectral entropy=3.101503304891047
computed normalized entropy=0.7161612274853173
SPLASH=splash10-001i-8930000000-b74673754b6453d0aedc
submitter=submitter = University of Tokyo Team (Faculty of Engineering, University of Tokyo)
MoNA Rating=3.75

>  <NUM PEAKS>  (2409) 
76

>  <MASS SPECTRAL PEAKS>  (2409) 
41 27.31
42 4.89
43 22.05
44 1.72
46 0.6
51 0.4
53 1.64
54 4.24
55 12.56
56 4.24
57 8
58 2.47
59 0.33
67 2.75
68 1.92
69 9.47
70 2.12
71 2.99
72 0.99
79 1.47
80 0.65
81 3.41
82 5.08
83 4.88
84 1.55
85 1.09
86 1.27
93 1.64
95 1.87
96 4.26
97 2.73
98 2.14
99 2.94
100 0.8
110 2.54
111 0.81
112 0.73
117 2.28
119 1.85
124 0.88
131 0.73
137 0.43
143 0.27
149 0.8
150 1.85
154 0.37
155 0.33
161 3.48
162 0.36
167 1.51
168 1.23
169 0.4
170 5.8
171 0.31
176 0.96
177 3.75
178 1.52
179 0.33
181 99.99
182 0.74
189 0.35
194 0.92
195 3.29
196 0.97
197 1.89
198 3.29
202 1.26
207 0.61
208 0.37
219 0.82
222 4.79
223 0.3
226 0.34
239 38.24
240 3.91
252 1.7

$$$$

     RDKit          2D

 22 22  0  0  0  0  0  0  0  0999 V2000
   15.5893    1.5023    0.0000 C   0  0  0  0  0  0  0  0  0  0  0  0
   14.2904    0.7521    0.0000 C   0  0  0  0  0  0  0  0  0  0  0  0
   12.9912    1.5019    0.0000 C   0  0  0  0  0  0  0  0  0  0  0  0
   11.6923    0.7517    0.0000 C   0  0  0  0  0  0  0  0  0  0  0  0
   10.3931    1.5015    0.0000 C   0  0  0  0  0  0  0  0  0  0  0  0
    9.0942    0.7512    0.0000 C   0  0  0  0  0  0  0  0  0  0  0  0
    7.7951    1.5010    0.0000 C   0  0  0  0  0  0  0  0  0  0  0  0
    6.4962    0.7508    0.0000 C   0  0  0  0  0  0  0  0  0  0  0  0
    3.8976    3.7504    0.0000 C   0  0  0  0  0  0  0  0  0  0  0  0
    3.8974    5.2504    0.0000 C   0  0  0  0  0  0  0  0  0  0  0  0
    2.5976    6.0008    0.0000 C   0  0  0  0  0  0  0  0  0  0  0  0
    5.1962    6.0008    0.0000 C   0  0  0  0  0  0  0  0  0  0  0  0
    2.5966    7.5017    0.0000 C   0  0  0  0  0  0  0  0  0  0  0  0
    5.1952    7.5017    0.0000 C   0  0  0  0  0  0  0  0  0  0  0  0
    3.8954    8.2521    0.0000 C   0  0  0  0  0  0  0  0  0  0  0  0
    1.2988    5.2504    0.0000 F   0  0  0  0  0  0  0  0  0  0  0  0
    6.4956    5.2515    0.0000 F   0  0  0  0  0  0  0  0  0  0  0  0
    1.2972    8.2510    0.0000 F   0  0  0  0  0  0  0  0  0  0  0  0
    6.4940    8.2521    0.0000 F   0  0  0  0  0  0  0  0  0  0  0  0
    3.8952    9.7521    0.0000 F   0  0  0  0  0  0  0  0  0  0  0  0
    5.1970    1.5006    0.0000 N   0  0  0  0  0  0  0  0  0  0  0  0
    5.1968    3.0006    0.0000 O   0  0  0  0  0  0  0  0  0  0  0  0
  2  1  1  0
  3  2  1  0
  4  3  1  0
  5  4  1  0
  6  5  1  0
  7  6  1  0
  8  7  1  0
 10  9  1  0
 11 10  2  0
 12 10  1  0
 13 11  1  0
 14 12  2  0
 15 13  2  0
 15 14  1  0
 16 11  1  0
 17 12  1  0
 18 13  1  0
 19 14  1  0
 20 15  1  0
  8 21  2  0
 22  9  1  0
 22 21  1  0
M  END
>  <NAME>  (2410) 
OCTANAL O-2,3,4,5,6-PENTAFLUOROBENZYLOXIME

>  <SYNONYMS>  (2410) 


>  <SPECTRUM TYPE>  (2410) 
MS1

>  <INSTRUMENT TYPE>  (2410) 
EI-B

>  <INSTRUMENT>  (2410) 
HP 5970

>  <ION MODE>  (2410) 
P

>  <INCHIKEY>  (2410) 
RLSQIXNUITTXKZ-WNFQYIGGSA-N

>  <FORMULA>  (2410) 
C15H18F5NO

>  <EXACT MASS>  (2410) 
323.130855296

>  <MW>  (2410) 
323

>  <ID>  (2410) 
JP008802

>  <CONTRIBUTOR>  (2410) 
University of Tokyo Team, {Faculty of Engineering, University of Tokyo

>  <COMMENT>  (2410) 
SMILES=CCCCCCCC=NOCc(c(F)1)c(F)c(F)c(F)c(F)1
InChI=InChI=1S/C15H18F5NO/c1-2-3-4-5-6-7-8-21-22-9-10-11(16)13(18)15(20)14(19)12(10)17/h8H,2-7,9H2,1H3/b21-8-
computed SMILES=FC=1C(F)=C(F)C(=C(F)C1F)CON=CCCCCCCC
accession=JP008802
date=2016.01.19 (Created 2008.10.21, modified 2011.05.06)
author=UOEH
license=CC BY-NC-SA
exact mass=323.13086
ionization energy=70 eV
ion type=[M]+*
computed spectral entropy=2.914404045884468
computed normalized entropy=0.693131296314975
SPLASH=splash10-001i-6920000000-ce2f69f257e756174b77
submitter=submitter = University of Tokyo Team (Faculty of Engineering, University of Tokyo)
MoNA Rating=3.75

>  <NUM PEAKS>  (2410) 
67

>  <MASS SPECTRAL PEAKS>  (2410) 
41 22.74
42 3.79
43 14.45
44 0.78
46 0.64
51 0.54
53 0.99
54 3.57
55 10.87
56 3.05
57 6.66
58 2.23
67 2.24
68 0.96
69 6.67
70 0.86
71 0.53
72 0.65
75 0.7
79 1.02
80 0.3
81 2.03
82 5.68
83 2.73
84 0.34
86 0.66
93 1.34
96 2.52
97 0.77
98 0.97
99 3.17
109 0.92
110 0.62
111 0.77
112 0.29
114 0.32
117 2.6
119 1.5
131 0.86
142 2.85
143 0.62
149 0.63
150 1.78
155 0.31
161 3.55
162 0.27
167 2.11
168 0.8
169 0.26
176 0.92
177 3.36
178 1.27
179 0.57
181 99.99
182 7.16
194 0.99
195 3.42
196 1.16
197 1.11
198 3.02
202 0.86
207 5.99
219 0.3
222 4.21
239 32
240 2.62
252 1.44

$$$$

     RDKit          2D

 21 21  0  0  0  0  0  0  0  0999 V2000
   14.2904    0.7521    0.0000 C   0  0  0  0  0  0  0  0  0  0  0  0
   12.9912    1.5019    0.0000 C   0  0  0  0  0  0  0  0  0  0  0  0
   11.6923    0.7517    0.0000 C   0  0  0  0  0  0  0  0  0  0  0  0
   10.3931    1.5015    0.0000 C   0  0  0  0  0  0  0  0  0  0  0  0
    9.0942    0.7512    0.0000 C   0  0  0  0  0  0  0  0  0  0  0  0
    7.7951    1.5010    0.0000 C   0  0  0  0  0  0  0  0  0  0  0  0
    6.4962    0.7508    0.0000 C   0  0  0  0  0  0  0  0  0  0  0  0
    3.8976    3.7504    0.0000 C   0  0  0  0  0  0  0  0  0  0  0  0
    3.8974    5.2504    0.0000 C   0  0  0  0  0  0  0  0  0  0  0  0
    2.5976    6.0008    0.0000 C   0  0  0  0  0  0  0  0  0  0  0  0
    5.1962    6.0008    0.0000 C   0  0  0  0  0  0  0  0  0  0  0  0
    2.5966    7.5017    0.0000 C   0  0  0  0  0  0  0  0  0  0  0  0
    5.1952    7.5017    0.0000 C   0  0  0  0  0  0  0  0  0  0  0  0
    3.8954    8.2521    0.0000 C   0  0  0  0  0  0  0  0  0  0  0  0
    1.2988    5.2504    0.0000 F   0  0  0  0  0  0  0  0  0  0  0  0
    6.4956    5.2515    0.0000 F   0  0  0  0  0  0  0  0  0  0  0  0
    1.2972    8.2510    0.0000 F   0  0  0  0  0  0  0  0  0  0  0  0
    6.4940    8.2521    0.0000 F   0  0  0  0  0  0  0  0  0  0  0  0
    3.8952    9.7521    0.0000 F   0  0  0  0  0  0  0  0  0  0  0  0
    5.1970    1.5006    0.0000 N   0  0  0  0  0  0  0  0  0  0  0  0
    5.1968    3.0006    0.0000 O   0  0  0  0  0  0  0  0  0  0  0  0
  2  1  1  0
  3  2  1  0
  4  3  1  0
  5  4  1  0
  6  5  1  0
  7  6  1  0
  9  8  1  0
 10  9  2  0
 11  9  1  0
 12 10  1  0
 13 11  2  0
 14 12  2  0
 14 13  1  0
 15 10  1  0
 16 11  1  0
 17 12  1  0
 18 13  1  0
 19 14  1  0
  7 20  2  0
 21  8  1  0
 21 20  1  0
M  END
>  <NAME>  (2411) 
HEPTANAL O-2,3,4,5,6-PENTAFLUOROBENZYLOXIME

>  <SYNONYMS>  (2411) 


>  <SPECTRUM TYPE>  (2411) 
MS1

>  <INSTRUMENT TYPE>  (2411) 
EI-B

>  <INSTRUMENT>  (2411) 
HP 5970

>  <ION MODE>  (2411) 
P

>  <INCHIKEY>  (2411) 
OZZBQOMRSSEYJF-SCDVKCJHSA-N

>  <FORMULA>  (2411) 
C14H16F5NO

>  <EXACT MASS>  (2411) 
309.115205232

>  <MW>  (2411) 
309

>  <ID>  (2411) 
JP008801

>  <CONTRIBUTOR>  (2411) 
University of Tokyo Team, {Faculty of Engineering, University of Tokyo

>  <COMMENT>  (2411) 
SMILES=CCCCCCC=NOCc(c(F)1)c(F)c(F)c(F)c(F)1
InChI=InChI=1S/C14H16F5NO/c1-2-3-4-5-6-7-20-21-8-9-10(15)12(17)14(19)13(18)11(9)16/h7H,2-6,8H2,1H3/b20-7-
computed SMILES=FC=1C(F)=C(F)C(=C(F)C1F)CON=CCCCCCC
accession=JP008801
date=2016.01.19 (Created 2008.10.21, modified 2011.05.06)
author=UOEH
license=CC BY-NC-SA
exact mass=309.11521
ionization energy=70 eV
ion type=[M]+*
computed spectral entropy=3.014605414582922
computed normalized entropy=0.6940010248655345
SPLASH=splash10-001i-5920000000-74fca531d030c6ca1992
submitter=submitter = University of Tokyo Team (Faculty of Engineering, University of Tokyo)
MoNA Rating=3.75

>  <NUM PEAKS>  (2411) 
77

>  <MASS SPECTRAL PEAKS>  (2411) 
41 21.17
42 3.56
43 16.45
44 1.57
45 0.42
46 0.96
51 0.9
52 0.44
53 1.36
54 2.25
55 7.63
56 2.54
57 2.82
58 2.76
59 0.42
60 0.53
67 1.15
68 1.53
69 3.89
70 1.03
71 1.31
72 1.08
75 1.01
79 0.61
80 0.59
81 1.46
82 3.45
83 1.83
84 0.59
86 0.98
93 1.79
95 1.87
96 0.6
97 1.47
98 1.04
99 2.44
100 1.4
111 0.54
112 0.99
117 2.31
119 1.78
128 4.47
129 0.54
131 1.17
137 0.57
143 0.79
149 0.82
150 1.24
155 0.94
161 3.77
162 0.84
163 0.5
167 2.25
168 1.02
169 0.64
176 0.54
177 2.36
178 1.05
179 0.68
181 99.99
182 7.16
189 0.54
190 0.62
194 0.9
195 3
196 0.99
197 1.37
198 1.58
202 1.39
207 6.53
208 0.82
219 0.88
222 3.58
239 29.95
240 2.94
252 1.21
281 0.78

$$$$

     RDKit          2D

 20 20  0  0  0  0  0  0  0  0999 V2000
   12.9912    1.5019    0.0000 C   0  0  0  0  0  0  0  0  0  0  0  0
   11.6923    0.7517    0.0000 C   0  0  0  0  0  0  0  0  0  0  0  0
   10.3931    1.5015    0.0000 C   0  0  0  0  0  0  0  0  0  0  0  0
    9.0942    0.7512    0.0000 C   0  0  0  0  0  0  0  0  0  0  0  0
    7.7951    1.5010    0.0000 C   0  0  0  0  0  0  0  0  0  0  0  0
    6.4962    0.7508    0.0000 C   0  0  0  0  0  0  0  0  0  0  0  0
    3.8976    3.7504    0.0000 C   0  0  0  0  0  0  0  0  0  0  0  0
    3.8974    5.2504    0.0000 C   0  0  0  0  0  0  0  0  0  0  0  0
    2.5976    6.0008    0.0000 C   0  0  0  0  0  0  0  0  0  0  0  0
    5.1962    6.0008    0.0000 C   0  0  0  0  0  0  0  0  0  0  0  0
    2.5966    7.5017    0.0000 C   0  0  0  0  0  0  0  0  0  0  0  0
    5.1952    7.5017    0.0000 C   0  0  0  0  0  0  0  0  0  0  0  0
    3.8954    8.2521    0.0000 C   0  0  0  0  0  0  0  0  0  0  0  0
    1.2988    5.2504    0.0000 F   0  0  0  0  0  0  0  0  0  0  0  0
    6.4956    5.2515    0.0000 F   0  0  0  0  0  0  0  0  0  0  0  0
    1.2972    8.2510    0.0000 F   0  0  0  0  0  0  0  0  0  0  0  0
    6.4940    8.2521    0.0000 F   0  0  0  0  0  0  0  0  0  0  0  0
    3.8952    9.7521    0.0000 F   0  0  0  0  0  0  0  0  0  0  0  0
    5.1970    1.5006    0.0000 N   0  0  0  0  0  0  0  0  0  0  0  0
    5.1968    3.0006    0.0000 O   0  0  0  0  0  0  0  0  0  0  0  0
  2  1  1  0
  3  2  1  0
  4  3  1  0
  5  4  1  0
  6  5  1  0
  8  7  1  0
  9  8  2  0
 10  8  1  0
 11  9  1  0
 12 10  2  0
 13 11  2  0
 13 12  1  0
 14  9  1  0
 15 10  1  0
 16 11  1  0
 17 12  1  0
 18 13  1  0
  6 19  2  0
 20  7  1  0
 20 19  1  0
M  END
>  <NAME>  (2412) 
HEXANAL O-2,3,4,5,6-PENTAFLUOROBENZYLOXIME

>  <SYNONYMS>  (2412) 


>  <SPECTRUM TYPE>  (2412) 
MS1

>  <INSTRUMENT TYPE>  (2412) 
EI-B

>  <INSTRUMENT>  (2412) 
HP 5970

>  <ION MODE>  (2412) 
P

>  <INCHIKEY>  (2412) 
GPAVMFOMYSGJDM-SWNXQHNESA-N

>  <FORMULA>  (2412) 
C13H14F5NO

>  <EXACT MASS>  (2412) 
295.099555168

>  <MW>  (2412) 
295

>  <ID>  (2412) 
JP008800

>  <CONTRIBUTOR>  (2412) 
University of Tokyo Team, {Faculty of Engineering, University of Tokyo

>  <COMMENT>  (2412) 
SMILES=CCCCCC=NOCc(c(F)1)c(F)c(F)c(F)c(F)1
InChI=InChI=1S/C13H14F5NO/c1-2-3-4-5-6-19-20-7-8-9(14)11(16)13(18)12(17)10(8)15/h6H,2-5,7H2,1H3/b19-6-
computed SMILES=FC=1C(F)=C(F)C(=C(F)C1F)CON=CCCCCC
accession=JP008800
date=2016.01.19 (Created 2008.10.21, modified 2011.05.06)
author=UOEH
license=CC BY-NC-SA
exact mass=295.09956
ionization energy=70 eV
ion type=[M]+*
computed spectral entropy=2.5162859849970416
computed normalized entropy=0.6050388853356055
SPLASH=splash10-001i-3920000000-f356f6363e8b091d8378
submitter=submitter = University of Tokyo Team (Faculty of Engineering, University of Tokyo)
MoNA Rating=3.75

>  <NUM PEAKS>  (2412) 
64

>  <MASS SPECTRAL PEAKS>  (2412) 
41 13.65
42 2.82
43 9.3
44 0.56
51 0.58
53 0.79
54 1.96
55 5
56 1.09
57 2.23
58 1.05
68 1.26
69 2.3
70 0.19
71 0.87
72 0.15
75 0.58
79 0.43
81 1.44
82 0.57
83 0.91
86 0.48
93 1.07
98 0.69
99 2.1
112 0.23
114 1.94
117 2.03
119 1.33
131 0.78
137 0.16
143 0.25
148 0.16
149 0.24
150 0.74
155 0.61
161 3.22
162 0.58
167 2.11
168 1.02
169 0.26
176 1.53
177 1.7
178 0.27
179 0.45
181 99.99
182 7.49
189 0.47
194 0.18
195 3.44
196 0.74
197 0.76
198 1.21
207 1.9
209 0.29
222 2.94
223 0.67
239 19.5
240 1.8
252 2.35
253 0.22
267 0.21
278 0.57
295 0.33

$$$$

     RDKit          2D

 18 18  0  0  0  0  0  0  0  0999 V2000
   10.3931    1.5015    0.0000 C   0  0  0  0  0  0  0  0  0  0  0  0
    9.0942    0.7512    0.0000 C   0  0  0  0  0  0  0  0  0  0  0  0
    7.7951    1.5010    0.0000 C   0  0  0  0  0  0  0  0  0  0  0  0
    6.4962    0.7508    0.0000 C   0  0  0  0  0  0  0  0  0  0  0  0
    2.5989    1.5002    0.0000 C   0  0  0  0  0  0  0  0  0  0  0  0
    1.3000    0.7500    0.0000 C   0  0  0  0  0  0  0  0  0  0  0  0
   -0.0000    1.5000    0.0000 C   0  0  0  0  0  0  0  0  0  0  0  0
    1.3000   -0.7500    0.0000 C   0  0  0  0  0  0  0  0  0  0  0  0
   -1.3000    0.7500    0.0000 C   0  0  0  0  0  0  0  0  0  0  0  0
    0.0000   -1.5000    0.0000 C   0  0  0  0  0  0  0  0  0  0  0  0
   -1.3000   -0.7500    0.0000 C   0  0  0  0  0  0  0  0  0  0  0  0
    0.0000    3.0000    0.0000 F   0  0  0  0  0  0  0  0  0  0  0  0
    2.5989   -1.5002    0.0000 F   0  0  0  0  0  0  0  0  0  0  0  0
   -2.5989    1.5002    0.0000 F   0  0  0  0  0  0  0  0  0  0  0  0
   -0.0000   -3.0000    0.0000 F   0  0  0  0  0  0  0  0  0  0  0  0
   -2.5989   -1.5002    0.0000 F   0  0  0  0  0  0  0  0  0  0  0  0
    5.1970    1.5006    0.0000 N   0  0  0  0  0  0  0  0  0  0  0  0
    3.8981    0.7504    0.0000 O   0  0  0  0  0  0  0  0  0  0  0  0
  2  1  1  0
  3  2  1  0
  4  3  1  0
  6  5  1  0
  7  6  2  0
  8  6  1  0
  9  7  1  0
 10  8  2  0
 11  9  2  0
 11 10  1  0
 12  7  1  0
 13  8  1  0
 14  9  1  0
 15 10  1  0
 16 11  1  0
  4 17  2  0
 18  5  1  0
 18 17  1  0
M  END
>  <NAME>  (2413) 
BUTYRALDEHYDE O-2,3,4,5,6-PENTAFLUOROBENZYLOXIME

>  <SYNONYMS>  (2413) 


>  <SPECTRUM TYPE>  (2413) 
MS1

>  <INSTRUMENT TYPE>  (2413) 
EI-B

>  <INSTRUMENT>  (2413) 
HP 5970

>  <ION MODE>  (2413) 
P

>  <INCHIKEY>  (2413) 
MDJOICYRBFIYJJ-HAVNEIBRSA-N

>  <FORMULA>  (2413) 
C11H10F5NO

>  <EXACT MASS>  (2413) 
267.06825504

>  <MW>  (2413) 
267

>  <ID>  (2413) 
JP008798

>  <CONTRIBUTOR>  (2413) 
University of Tokyo Team, {Faculty of Engineering, University of Tokyo

>  <COMMENT>  (2413) 
SMILES=CCCC=NOCc(c(F)1)c(F)c(F)c(F)c(F)1
InChI=InChI=1S/C11H10F5NO/c1-2-3-4-17-18-5-6-7(12)9(14)11(16)10(15)8(6)13/h4H,2-3,5H2,1H3/b17-4+
computed SMILES=FC=1C(F)=C(F)C(=C(F)C1F)CON=CCCC
accession=JP008798
date=2016.01.19 (Created 2008.10.21, modified 2011.05.06)
author=UOEH
license=CC BY-NC-SA
exact mass=267.06825
ionization energy=70 eV
ion type=[M]+*
computed spectral entropy=2.3330500646391656
computed normalized entropy=0.5631122854339661
SPLASH=splash10-001i-2910000000-80fad4928f823ddb34ae
submitter=submitter = University of Tokyo Team (Faculty of Engineering, University of Tokyo)
MoNA Rating=3.75

>  <NUM PEAKS>  (2413) 
63

>  <MASS SPECTRAL PEAKS>  (2413) 
41 12.14
42 2.48
43 7.29
44 1.46
45 0.73
51 0.74
53 0.23
54 0.33
55 1.16
56 0.65
57 0.53
58 0.42
62 0.18
68 0.45
69 2.18
70 0.28
74 0.11
75 0.85
79 0.37
80 0.35
81 0.99
86 2.33
93 1.36
98 0.52
99 2.14
111 0.21
112 0.64
117 2.36
118 0.21
119 1.29
130 0.2
131 1.17
137 0.44
143 0.64
148 0.35
149 0.5
150 0.85
151 0.2
155 0.88
161 3.39
162 0.68
163 0.24
167 1.94
168 1.04
169 0.44
176 0.3
177 0.99
178 0.47
179 0.49
181 99.99
182 7.59
183 0.11
195 5.33
196 1.03
197 0.54
198 0.8
207 0.53
222 0.62
239 16.51
240 1.54
250 1.41
252 0.34
267 0.63

$$$$

     RDKit          2D

 17 17  0  0  0  0  0  0  0  0999 V2000
    9.0942    0.7512    0.0000 C   0  0  0  0  0  0  0  0  0  0  0  0
    7.7951    1.5010    0.0000 C   0  0  0  0  0  0  0  0  0  0  0  0
    6.4962    0.7508    0.0000 C   0  0  0  0  0  0  0  0  0  0  0  0
    2.5989    1.5002    0.0000 C   0  0  0  0  0  0  0  0  0  0  0  0
    1.3000    0.7500    0.0000 C   0  0  0  0  0  0  0  0  0  0  0  0
   -0.0000    1.5000    0.0000 C   0  0  0  0  0  0  0  0  0  0  0  0
    1.3000   -0.7500    0.0000 C   0  0  0  0  0  0  0  0  0  0  0  0
   -1.3000    0.7500    0.0000 C   0  0  0  0  0  0  0  0  0  0  0  0
    0.0000   -1.5000    0.0000 C   0  0  0  0  0  0  0  0  0  0  0  0
   -1.3000   -0.7500    0.0000 C   0  0  0  0  0  0  0  0  0  0  0  0
    0.0000    3.0000    0.0000 F   0  0  0  0  0  0  0  0  0  0  0  0
    2.5989   -1.5002    0.0000 F   0  0  0  0  0  0  0  0  0  0  0  0
   -2.5989    1.5002    0.0000 F   0  0  0  0  0  0  0  0  0  0  0  0
   -0.0000   -3.0000    0.0000 F   0  0  0  0  0  0  0  0  0  0  0  0
   -2.5989   -1.5002    0.0000 F   0  0  0  0  0  0  0  0  0  0  0  0
    5.1970    1.5006    0.0000 N   0  0  0  0  0  0  0  0  0  0  0  0
    3.8981    0.7504    0.0000 O   0  0  0  0  0  0  0  0  0  0  0  0
  2  1  1  0
  3  2  1  0
  5  4  1  0
  6  5  2  0
  7  5  1  0
  8  6  1  0
  9  7  2  0
 10  8  2  0
 10  9  1  0
 11  6  1  0
 12  7  1  0
 13  8  1  0
 14  9  1  0
 15 10  1  0
  3 16  2  0
 17  4  1  0
 17 16  1  0
M  END
>  <NAME>  (2414) 
PROPYRALDEHYDE O-2,3,4,5,6-PENTAFLUOROBENZYLOXIME

>  <SYNONYMS>  (2414) 


>  <SPECTRUM TYPE>  (2414) 
MS1

>  <INSTRUMENT TYPE>  (2414) 
EI-B

>  <INSTRUMENT>  (2414) 
HP 5970

>  <ION MODE>  (2414) 
P

>  <INCHIKEY>  (2414) 
BOPZGAUHLLBMFA-HQYXKAPLSA-N

>  <FORMULA>  (2414) 
C10H8F5NO

>  <EXACT MASS>  (2414) 
253.052604976

>  <MW>  (2414) 
253

>  <ID>  (2414) 
JP008797

>  <CONTRIBUTOR>  (2414) 
University of Tokyo Team, {Faculty of Engineering, University of Tokyo

>  <COMMENT>  (2414) 
SMILES=CCC=NOCc(c(F)1)c(F)c(F)c(F)c(F)1
InChI=InChI=1S/C10H8F5NO/c1-2-3-16-17-4-5-6(11)8(13)10(15)9(14)7(5)12/h3H,2,4H2,1H3/b16-3+
computed SMILES=FC=1C(F)=C(F)C(=C(F)C1F)CON=CCC
accession=JP008797
date=2016.01.19 (Created 2008.10.21, modified 2011.05.06)
author=UOEH
license=CC BY-NC-SA
exact mass=253.0526
ionization energy=70 eV
ion type=[M]+*
computed spectral entropy=2.272340738037844
computed normalized entropy=0.542369449979731
SPLASH=splash10-001i-1910000000-352313446d1354af92f4
submitter=submitter = University of Tokyo Team (Faculty of Engineering, University of Tokyo)
MoNA Rating=3.75

>  <NUM PEAKS>  (2414) 
66

>  <MASS SPECTRAL PEAKS>  (2414) 
41 2.65
42 1.59
43 0.25
44 3.1
45 0.41
49 0.15
50 0.1
51 0.91
52 0.25
54 1.36
55 0.27
56 0.49
57 0.29
61 0.25
62 0.27
68 0.21
69 1.83
72 1.11
74 0.36
75 1.24
79 0.57
80 0.44
81 1.35
86 0.25
92 0.19
93 2
98 0.94
99 3.31
100 0.14
111 0.33
112 0.88
113 0.22
117 3.67
118 0.36
119 2.04
129 0.21
130 0.36
131 1.45
137 0.66
143 0.79
148 0.64
149 0.71
150 1.19
151 0.17
155 1.15
161 4.77
162 1
163 0.16
167 3.09
168 1.4
169 0.65
177 1.01
178 0.55
179 0.33
181 99.99
182 0.73
183 0.13
195 3.89
196 0.61
197 0.67
198 0.42
223 3.21
224 0.22
236 14.3
237 1.57
253 1.14

$$$$

     RDKit          2D

 16 16  0  0  0  0  0  0  0  0999 V2000
    7.7951    1.5010    0.0000 C   0  0  0  0  0  0  0  0  0  0  0  0
    6.4962    0.7508    0.0000 C   0  0  0  0  0  0  0  0  0  0  0  0
    2.5989    1.5002    0.0000 C   0  0  0  0  0  0  0  0  0  0  0  0
    1.3000    0.7500    0.0000 C   0  0  0  0  0  0  0  0  0  0  0  0
   -0.0000    1.5000    0.0000 C   0  0  0  0  0  0  0  0  0  0  0  0
    1.3000   -0.7500    0.0000 C   0  0  0  0  0  0  0  0  0  0  0  0
   -1.3000    0.7500    0.0000 C   0  0  0  0  0  0  0  0  0  0  0  0
    0.0000   -1.5000    0.0000 C   0  0  0  0  0  0  0  0  0  0  0  0
   -1.3000   -0.7500    0.0000 C   0  0  0  0  0  0  0  0  0  0  0  0
    0.0000    3.0000    0.0000 F   0  0  0  0  0  0  0  0  0  0  0  0
    2.5989   -1.5002    0.0000 F   0  0  0  0  0  0  0  0  0  0  0  0
   -2.5989    1.5002    0.0000 F   0  0  0  0  0  0  0  0  0  0  0  0
   -0.0000   -3.0000    0.0000 F   0  0  0  0  0  0  0  0  0  0  0  0
   -2.5989   -1.5002    0.0000 F   0  0  0  0  0  0  0  0  0  0  0  0
    5.1970    1.5006    0.0000 N   0  0  0  0  0  0  0  0  0  0  0  0
    3.8981    0.7504    0.0000 O   0  0  0  0  0  0  0  0  0  0  0  0
  2  1  1  0
  4  3  1  0
  5  4  2  0
  6  4  1  0
  7  5  1  0
  8  6  2  0
  9  7  2  0
  9  8  1  0
 10  5  1  0
 11  6  1  0
 12  7  1  0
 13  8  1  0
 14  9  1  0
  2 15  2  0
 16  3  1  0
 16 15  1  0
M  END
>  <NAME>  (2415) 
ACETALDEHYDE O-2,3,4,5,6-PENTAFLUOROBENZYLOXIME

>  <SYNONYMS>  (2415) 


>  <SPECTRUM TYPE>  (2415) 
MS1

>  <INSTRUMENT TYPE>  (2415) 
EI-B

>  <INSTRUMENT>  (2415) 
HP 5970

>  <ION MODE>  (2415) 
P

>  <INCHIKEY>  (2415) 
AKDRYEADQPNLOH-RSSMCMFDSA-N

>  <FORMULA>  (2415) 
C9H6F5NO

>  <EXACT MASS>  (2415) 
239.036954912

>  <MW>  (2415) 
239

>  <ID>  (2415) 
JP008796

>  <CONTRIBUTOR>  (2415) 
University of Tokyo Team, {Faculty of Engineering, University of Tokyo

>  <COMMENT>  (2415) 
SMILES=CC=NOCc(c(F)1)c(F)c(F)c(F)c(F)1
InChI=InChI=1S/C9H6F5NO/c1-2-15-16-3-4-5(10)7(12)9(14)8(13)6(4)11/h2H,3H2,1H3/b15-2+
computed SMILES=FC=1C(F)=C(F)C(=C(F)C1F)CON=CC
accession=JP008796
date=2016.01.19 (Created 2008.10.21, modified 2011.05.06)
author=UOEH
license=CC BY-NC-SA
exact mass=239.03695
ionization energy=70 eV
ion type=[M]+*
computed spectral entropy=2.0930457836987726
computed normalized entropy=0.5133112356397941
SPLASH=splash10-001i-1900000000-a71c1412bd3f5006d93c
submitter=submitter = University of Tokyo Team (Faculty of Engineering, University of Tokyo)
MoNA Rating=3.75

>  <NUM PEAKS>  (2415) 
59

>  <MASS SPECTRAL PEAKS>  (2415) 
41 2.42
42 2.32
44 0.33
49 0.11
51 0.86
56 0.17
57 0.43
58 1.52
61 0.23
62 0.32
68 0.25
69 2.14
74 0.36
75 1.29
79 0.65
80 0.53
81 1.52
86 0.23
92 0.21
93 2.13
98 1.1
99 3.01
100 0.13
105 0.12
111 0.47
112 1
113 0.24
117 3.71
118 0.43
119 1.67
129 0.21
130 0.38
131 1.77
137 0.68
143 0.81
148 0.53
149 0.48
150 1.13
155 1.36
161 4.98
162 1.13
163 0.11
167 2.94
168 1.31
169 0.42
177 0.61
178 0.41
179 0.46
181 99.99
182 7.27
183 0.16
192 0.39
195 3.13
196 0.78
197 0.4
198 0.45
209 1.16
210 1.14
239 1.09

$$$$

     RDKit          2D

 15 15  0  0  0  0  0  0  0  0999 V2000
    6.4962    0.7508    0.0000 C   0  0  0  0  0  0  0  0  0  0  0  0
    2.5989    1.5002    0.0000 C   0  0  0  0  0  0  0  0  0  0  0  0
    1.3000    0.7500    0.0000 C   0  0  0  0  0  0  0  0  0  0  0  0
    0.0000    1.5000    0.0000 C   0  0  0  0  0  0  0  0  0  0  0  0
    1.3000   -0.7500    0.0000 C   0  0  0  0  0  0  0  0  0  0  0  0
   -1.3000    0.7500    0.0000 C   0  0  0  0  0  0  0  0  0  0  0  0
   -0.0000   -1.5000    0.0000 C   0  0  0  0  0  0  0  0  0  0  0  0
   -1.3000   -0.7500    0.0000 C   0  0  0  0  0  0  0  0  0  0  0  0
    0.0000    3.0000    0.0000 F   0  0  0  0  0  0  0  0  0  0  0  0
    2.5989   -1.5002    0.0000 F   0  0  0  0  0  0  0  0  0  0  0  0
   -2.5989    1.5002    0.0000 F   0  0  0  0  0  0  0  0  0  0  0  0
   -0.0000   -3.0000    0.0000 F   0  0  0  0  0  0  0  0  0  0  0  0
   -2.5989   -1.5002    0.0000 F   0  0  0  0  0  0  0  0  0  0  0  0
    5.1970    1.5006    0.0000 N   0  0  0  0  0  0  0  0  0  0  0  0
    3.8981    0.7504    0.0000 O   0  0  0  0  0  0  0  0  0  0  0  0
  3  2  1  0
  4  3  2  0
  5  3  1  0
  6  4  1  0
  7  5  2  0
  8  6  2  0
  8  7  1  0
  9  4  1  0
 10  5  1  0
 11  6  1  0
 12  7  1  0
 13  8  1  0
 14  1  2  0
 15  2  1  0
 15 14  1  0
M  END
>  <NAME>  (2416) 
FORMALDEHYDE O-2,3,4,5,6-PENTAFLUOROBENZYLOXIME

>  <SYNONYMS>  (2416) 


>  <SPECTRUM TYPE>  (2416) 
MS1

>  <INSTRUMENT TYPE>  (2416) 
EI-B

>  <INSTRUMENT>  (2416) 
HP 5970

>  <ION MODE>  (2416) 
P

>  <INCHIKEY>  (2416) 
SRTQFRQWTUMMTC-UHFFFAOYSA-N

>  <FORMULA>  (2416) 
C8H4F5NO

>  <EXACT MASS>  (2416) 
225.021304848

>  <MW>  (2416) 
225

>  <ID>  (2416) 
JP008795

>  <CONTRIBUTOR>  (2416) 
University of Tokyo Team, {Faculty of Engineering, University of Tokyo

>  <COMMENT>  (2416) 
SMILES=C=NOCc(c(F)1)c(F)c(F)c(F)c(F)1
InChI=InChI=1S/C8H4F5NO/c1-14-15-2-3-4(9)6(11)8(13)7(12)5(3)10/h1-2H2
computed SMILES=FC=1C(F)=C(F)C(=C(F)C1F)CON=C
accession=JP008795
date=2016.01.19 (Created 2008.10.21, modified 2011.05.06)
author=UOEH
license=CC BY-NC-SA
exact mass=225.0213
ionization energy=70 eV
ion type=[M]+*
computed spectral entropy=2.337351252285782
computed normalized entropy=0.5620141767480511
SPLASH=splash10-001i-1900000000-f686f67591265a2e3c97
submitter=submitter = University of Tokyo Team (Faculty of Engineering, University of Tokyo)
MoNA Rating=3.75

>  <NUM PEAKS>  (2416) 
64

>  <MASS SPECTRAL PEAKS>  (2416) 
43 0.62
44 3.06
49 0.18
50 0.11
51 1.17
55 0.28
56 0.31
57 0.41
61 0.49
62 0.51
68 0.47
69 2.94
74 0.75
75 1.9
79 1.23
80 0.8
81 2
86 0.49
92 0.35
93 3.28
98 1.66
99 4.54
100 0.26
105 0.31
110 0.17
111 0.68
112 1.22
113 0.36
117 5.71
118 0.66
119 2.52
120 0.11
123 0.18
124 0.13
129 0.37
130 0.66
131 2.45
132 0.14
137 0.93
141 0.16
143 1.02
148 0.8
149 0.89
150 1.46
151 0.2
155 1.82
161 7.22
162 1.69
163 0.15
167 4.28
168 1.81
169 0.57
176 0.1
177 0.64
178 0.47
179 0.37
181 99.99
182 7.46
183 0.18
195 11.38
196 1.38
197 0.61
198 0.57
225 0.13

$$$$

     RDKit          2D

  5  4  0  0  0  0  0  0  0  0999 V2000
    0.0000    0.0000    0.0000 C   0  0  0  0  0  0  0  0  0  0  0  0
   -1.2990    2.2500    0.0000 C   0  0  0  0  0  0  0  0  0  0  0  0
    0.0000    1.5000    0.0000 C   0  0  0  0  0  0  0  0  0  0  0  0
   -1.2990    3.7500    0.0000 Br  0  0  0  0  0  0  0  0  0  0  0  0
    1.2990    2.2500    0.0000 Br  0  0  0  0  0  0  0  0  0  0  0  0
  3  1  1  0
  3  2  1  0
  4  2  1  0
  5  3  1  0
M  END
>  <NAME>  (2417) 
1,2-DIBROMOPROPANE

>  <SYNONYMS>  (2417) 


>  <SPECTRUM TYPE>  (2417) 
MS1

>  <INSTRUMENT TYPE>  (2417) 
EI-B

>  <INSTRUMENT>  (2417) 
HP 5970

>  <ION MODE>  (2417) 
P

>  <INCHIKEY>  (2417) 
XFNJYAKDBJUJAJ-UHFFFAOYSA-N

>  <FORMULA>  (2417) 
C3H6Br2

>  <EXACT MASS>  (2417) 
199.883624392

>  <MW>  (2417) 
200

>  <ID>  (2417) 
JP008794

>  <CONTRIBUTOR>  (2417) 
University of Tokyo Team, {Faculty of Engineering, University of Tokyo

>  <COMMENT>  (2417) 
SMILES=CC(Br)CBr
InChI=InChI=1S/C3H6Br2/c1-3(5)2-4/h3H,2H2,1H3
computed SMILES=BrCC(Br)C
accession=JP008794
date=2016.01.19 (Created 2008.10.21, modified 2011.05.06)
author=UOEH
license=CC BY-NC-SA
exact mass=199.88363
ionization energy=70 eV
ion type=[M]+*
computed spectral entropy=2.2734043356454032
computed normalized entropy=0.5841493598121885
SPLASH=splash10-0076-9300000000-0ea9c767a7764678a1f1
submitter=submitter = University of Tokyo Team (Faculty of Engineering, University of Tokyo)
MoNA Rating=3.75

>  <NUM PEAKS>  (2417) 
49

>  <MASS SPECTRAL PEAKS>  (2417) 
36 1.35
37 8.55
38 14.78
39 66.26
40 8.57
41 99.99
42 8.16
43 0.22
79 7.9
80 3.77
81 7.86
82 3.44
83 0.28
91 0.73
92 0.59
93 4.62
94 0.7
95 4.11
96 0.1
104 0.33
105 1.66
106 0.77
107 2.41
108 0.42
109 0.78
110 0.02
115 0.03
116 0.09
117 0.2
118 0.1
119 0.62
121 38.34
123 37.72
124 1.27
125 0.02
158 0.25
160 0.46
161 0.03
162 0.24
171 0.03
184 0.02
185 0.1
186 0.04
187 0.2
189 0.1
200 0.25
201 0.04
202 0.43
204 0.18

$$$$

     RDKit          2D

  6  6  0  0  0  0  0  0  0  0999 V2000
   -1.3000    0.7500    0.0000 C   0  0  0  0  0  0  0  0  0  0  0  0
    0.0000    1.5000    0.0000 C   0  0  0  0  0  0  0  0  0  0  0  0
   -1.3000   -0.7500    0.0000 C   0  0  0  0  0  0  0  0  0  0  0  0
    1.3000    0.7500    0.0000 C   0  0  0  0  0  0  0  0  0  0  0  0
   -0.0000   -1.5000    0.0000 C   0  0  0  0  0  0  0  0  0  0  0  0
    1.3000   -0.7500    0.0000 C   0  0  0  0  0  0  0  0  0  0  0  0
  2  1  2  0
  3  1  1  0
  4  2  1  0
  5  3  2  0
  6  4  2  0
  6  5  1  0
M  END
>  <NAME>  (2418) 
BENZENE

>  <SYNONYMS>  (2418) 


>  <SPECTRUM TYPE>  (2418) 
MS1

>  <INSTRUMENT TYPE>  (2418) 
EI-B

>  <INSTRUMENT>  (2418) 
HP 5970

>  <ION MODE>  (2418) 
P

>  <INCHIKEY>  (2418) 
UHOVQNZJYSORNB-UHFFFAOYSA-N

>  <FORMULA>  (2418) 
C6H6

>  <EXACT MASS>  (2418) 
78.046950192

>  <MW>  (2418) 
78

>  <ID>  (2418) 
JP008793

>  <CONTRIBUTOR>  (2418) 
University of Tokyo Team, {Faculty of Engineering, University of Tokyo

>  <COMMENT>  (2418) 
SMILES=c(c1)cccc1
InChI=InChI=1S/C6H6/c1-2-4-6-5-3-1/h1-6H
computed SMILES=C=1C=CC=CC1
accession=JP008793
date=2016.01.19 (Created 2008.10.21, modified 2011.05.06)
author=UOEH
license=CC BY-NC-SA
exact mass=78.04695
ionization energy=70 eV
ion type=[M]+*
computed spectral entropy=2.321312793926065
computed normalized entropy=0.7883718461651462
SPLASH=splash10-0fb9-9000000000-2aae37aac9f2a02d5e8b
submitter=submitter = University of Tokyo Team (Faculty of Engineering, University of Tokyo)
MoNA Rating=3.75

>  <NUM PEAKS>  (2418) 
19

>  <MASS SPECTRAL PEAKS>  (2418) 
36 1.82
37 6.5
38 7.38
39 15.17
49 6.91
50 19.13
51 25.18
52 20.47
61 2.61
62 9.85
63 6.45
64 3.76
73 2.58
74 7.34
75 2.37
76 5.9
77 22.89
78 99.99
79 7.4

$$$$

     RDKit          2D

  6  5  0  0  0  0  0  0  0  0999 V2000
   -0.0000    1.5000    0.0000 C   0  0  0  0  0  0  0  0  0  0  0  0
   -1.2990    2.2500    0.0000 C   0  0  0  0  0  0  0  0  0  0  0  0
   -0.0000   -0.0000    0.0000 Cl  0  0  0  0  0  0  0  0  0  0  0  0
    1.2990    2.2500    0.0000 Cl  0  0  0  0  0  0  0  0  0  0  0  0
   -1.2990    3.7500    0.0000 Cl  0  0  0  0  0  0  0  0  0  0  0  0
   -2.5981    1.5000    0.0000 Cl  0  0  0  0  0  0  0  0  0  0  0  0
  2  1  2  0
  3  1  1  0
  4  1  1  0
  5  2  1  0
  6  2  1  0
M  END
>  <NAME>  (2419) 
TETRACHLOROETHYLENE

>  <SYNONYMS>  (2419) 


>  <SPECTRUM TYPE>  (2419) 
MS1

>  <INSTRUMENT TYPE>  (2419) 
EI-B

>  <INSTRUMENT>  (2419) 
HP 5970

>  <ION MODE>  (2419) 
P

>  <INCHIKEY>  (2419) 
CYTYCFOTNPOANT-UHFFFAOYSA-N

>  <FORMULA>  (2419) 
C2Cl4

>  <EXACT MASS>  (2419) 
163.87541072

>  <MW>  (2419) 
164

>  <ID>  (2419) 
JP008792

>  <CONTRIBUTOR>  (2419) 
University of Tokyo Team, {Faculty of Engineering, University of Tokyo

>  <COMMENT>  (2419) 
SMILES=ClC(Cl)=C(Cl)Cl
InChI=InChI=1S/C2Cl4/c3-1(4)2(5)6
computed SMILES=ClC(Cl)=C(Cl)Cl
accession=JP008792
date=2016.01.19 (Created 2008.10.21, modified 2011.05.06)
author=UOEH
license=CC BY-NC-SA
exact mass=163.87541
ionization energy=70 eV
ion type=[M]+*
computed spectral entropy=2.634053377265057
computed normalized entropy=0.7533383900821028
SPLASH=splash10-02u0-4900000000-9854a27a57b089103a95
submitter=submitter = University of Tokyo Team (Faculty of Engineering, University of Tokyo)
MoNA Rating=3.75

>  <NUM PEAKS>  (2419) 
33

>  <MASS SPECTRAL PEAKS>  (2419) 
34 0.2
35 20.96
36 2.41
37 6.85
44 0.72
47 32.12
49 10.6
59 18.46
60 0.18
61 6.61
64 0.16
70 0.17
82 10.49
83 1.62
84 6.3
86 0.22
94 39.09
95 0.3
96 25.09
98 4.48
119 0.22
129 69.95
130 0.36
131 67.4
132 1.71
133 22.62
135 2.49
164 79.53
166 99.99
167 2.19
168 50.12
169 0.43
170 10.89

$$$$

     RDKit          2D

  5  4  0  0  0  0  0  0  0  0999 V2000
    0.0000    1.5000    0.0000 C   0  0  0  0  0  0  0  0  0  0  0  0
   -1.2990    2.2500    0.0000 C   0  0  0  0  0  0  0  0  0  0  0  0
   -0.0000   -0.0000    0.0000 Cl  0  0  0  0  0  0  0  0  0  0  0  0
   -1.2990    3.7500    0.0000 Cl  0  0  0  0  0  0  0  0  0  0  0  0
   -2.5981    1.5000    0.0000 Cl  0  0  0  0  0  0  0  0  0  0  0  0
  2  1  2  0
  3  1  1  0
  4  2  1  0
  5  2  1  0
M  END
>  <NAME>  (2420) 
TRICHLOROETHYLENE

>  <SYNONYMS>  (2420) 


>  <SPECTRUM TYPE>  (2420) 
MS1

>  <INSTRUMENT TYPE>  (2420) 
EI-B

>  <INSTRUMENT>  (2420) 
HP 5970

>  <ION MODE>  (2420) 
P

>  <INCHIKEY>  (2420) 
XSTXAVWGXDQKEL-UHFFFAOYSA-N

>  <FORMULA>  (2420) 
C2HCl3

>  <EXACT MASS>  (2420) 
129.914383072

>  <MW>  (2420) 
130

>  <ID>  (2420) 
JP008791

>  <CONTRIBUTOR>  (2420) 
University of Tokyo Team, {Faculty of Engineering, University of Tokyo

>  <COMMENT>  (2420) 
SMILES=ClC=C(Cl)Cl
InChI=InChI=1S/C2HCl3/c3-1-2(4)5/h1H
computed SMILES=ClC=C(Cl)Cl
accession=JP008791
date=2016.01.19 (Created 2008.10.21, modified 2011.05.06)
author=UOEH
license=CC BY-NC-SA
exact mass=129.91438
ionization energy=70 eV
ion type=[M]+*
computed spectral entropy=3.1203559707494377
computed normalized entropy=0.8924207701243237
SPLASH=splash10-03ea-9200000000-655b220bf877474e22b4
submitter=submitter = University of Tokyo Team (Faculty of Engineering, University of Tokyo)
MoNA Rating=3.75

>  <NUM PEAKS>  (2420) 
33

>  <MASS SPECTRAL PEAKS>  (2420) 
35 26.73
36 11.23
37 18.29
38 18.64
39 52.34
40 10.74
41 60.29
42 7.8
47 16.2
48 9.16
49 18.39
51 5.64
59 13.38
60 51.77
61 18.19
62 80.88
63 92.92
64 23.56
65 30.48
66 4.24
75 4.91
76 34.66
77 9.78
78 12.76
93 12.04
95 88.24
96 12.66
97 64.55
99 11.29
130 99.99
132 88
134 29.98
136 5.61

$$$$

     RDKit          2D

 12 13  0  0  0  0  0  0  0  0999 V2000
   -2.7200   -1.0200    0.0000 C   0  0  0  0  0  0  0  0  0  0  0  0
   -2.7200    0.4800    0.0000 C   0  0  0  0  0  0  0  0  0  0  0  0
    2.4800   -1.0200    0.0000 C   0  0  0  0  0  0  0  0  0  0  0  0
   -1.4200   -1.7700    0.0000 C   0  0  0  0  0  0  0  0  0  0  0  0
    1.1800   -1.7700    0.0000 C   0  0  0  0  0  0  0  0  0  0  0  0
    2.4800    0.4800    0.0000 C   0  0  0  0  0  0  0  0  0  0  0  0
   -1.4200    1.2300    0.0000 C   0  0  0  0  0  0  0  0  0  0  0  0
    1.1800    2.7300    0.0000 C   0  0  0  0  0  0  0  0  0  0  0  0
   -0.1200   -1.0200    0.0000 C   0  0  0  0  0  0  0  0  0  0  0  0
    1.1800    1.2300    0.0000 C   0  0  0  0  0  0  0  0  0  0  0  0
   -0.1200    0.4800    0.0000 C   0  0  0  0  0  0  0  0  0  0  0  0
    2.4790    3.4800    0.0000 O   0  0  0  0  0  0  0  0  0  0  0  0
  2  1  2  0
  4  1  1  0
  5  3  2  0
  6  3  1  0
  7  2  1  0
  9  4  2  0
  9  5  1  0
 10  6  2  0
 10  8  1  0
 11  7  2  0
 11  9  1  0
 11 10  1  0
 12  8  2  0
M  END
>  <NAME>  (2421) 
1-NAPHTHALDEHYDE

>  <SYNONYMS>  (2421) 


>  <SPECTRUM TYPE>  (2421) 
MS1

>  <INSTRUMENT TYPE>  (2421) 
EI-B

>  <INSTRUMENT>  (2421) 
HP 5970

>  <ION MODE>  (2421) 
P

>  <INCHIKEY>  (2421) 
SQAINHDHICKHLX-UHFFFAOYSA-N

>  <FORMULA>  (2421) 
C11H8O

>  <EXACT MASS>  (2421) 
156.057514876

>  <MW>  (2421) 
156

>  <ID>  (2421) 
JP008790

>  <CONTRIBUTOR>  (2421) 
University of Tokyo Team, {Faculty of Engineering, University of Tokyo

>  <COMMENT>  (2421) 
SMILES=O=Cc(c1)c(c2)c(ccc2)cc1
InChI=InChI=1S/C11H8O/c12-8-10-6-3-5-9-4-1-2-7-11(9)10/h1-8H
computed SMILES=O=CC1=CC=CC=2C=CC=CC12
accession=JP008790
date=2016.01.19 (Created 2008.10.21, modified 2011.05.06)
author=UOEH
license=CC BY-NC-SA
exact mass=156.05751
ionization energy=70 eV
ion type=[M]+*
computed spectral entropy=2.7530078551788986
computed normalized entropy=0.8016942671140949
SPLASH=splash10-056r-3900000000-de63e9b7d2191c00b8c9
submitter=submitter = University of Tokyo Team (Faculty of Engineering, University of Tokyo)
MoNA Rating=3.75

>  <NUM PEAKS>  (2421) 
31

>  <MASS SPECTRAL PEAKS>  (2421) 
37 2
38 2.5
39 4.4
50 12.46
51 17.63
52 3.04
61 3.27
62 6.52
63 17.92
64 10.29
74 15.09
75 18.77
76 10.1
77 20.42
78 7.82
85 1.48
86 3.8
87 6.24
97 1.72
98 6.42
99 3.61
100 2.38
101 11.45
102 12.5
126 28
127 93.95
128 94.72
129 10.46
155 57.5
156 99.99
157 12.33

$$$$

     RDKit          2D

 11 11  0  0  0  0  0  0  0  0999 V2000
    0.0000    3.0000    0.0000 C   0  0  0  0  0  0  0  0  0  0  0  0
   -2.5989   -1.5002    0.0000 C   0  0  0  0  0  0  0  0  0  0  0  0
    2.5989   -1.5002    0.0000 C   0  0  0  0  0  0  0  0  0  0  0  0
   -1.3000    0.7500    0.0000 C   0  0  0  0  0  0  0  0  0  0  0  0
    1.3000    0.7500    0.0000 C   0  0  0  0  0  0  0  0  0  0  0  0
   -0.0000   -3.0000    0.0000 C   0  0  0  0  0  0  0  0  0  0  0  0
    0.0000    1.5000    0.0000 C   0  0  0  0  0  0  0  0  0  0  0  0
   -1.3000   -0.7500    0.0000 C   0  0  0  0  0  0  0  0  0  0  0  0
    1.3000   -0.7500    0.0000 C   0  0  0  0  0  0  0  0  0  0  0  0
    0.0000   -1.5000    0.0000 C   0  0  0  0  0  0  0  0  0  0  0  0
    1.2990   -3.7500    0.0000 O   0  0  0  0  0  0  0  0  0  0  0  0
  7  1  1  0
  7  4  2  0
  7  5  1  0
  8  2  1  0
  8  4  1  0
  9  3  1  0
  9  5  2  0
 10  6  1  0
 10  8  2  0
 10  9  1  0
 11  6  2  0
M  END
>  <NAME>  (2422) 
MESITYLALDEHYDE

>  <SYNONYMS>  (2422) 
2,4,6-TRIMETHYLBENZALDEHYDE

>  <SPECTRUM TYPE>  (2422) 
MS1

>  <INSTRUMENT TYPE>  (2422) 
EI-B

>  <INSTRUMENT>  (2422) 
HP 5970

>  <ION MODE>  (2422) 
P

>  <INCHIKEY>  (2422) 
HIKRJHFHGKZKRI-UHFFFAOYSA-N

>  <FORMULA>  (2422) 
C10H12O

>  <EXACT MASS>  (2422) 
148.088815004

>  <MW>  (2422) 
148

>  <ID>  (2422) 
JP008789

>  <CONTRIBUTOR>  (2422) 
University of Tokyo Team, {Faculty of Engineering, University of Tokyo

>  <COMMENT>  (2422) 
InChI=InChI=1S/C10H12O/c1-7-4-8(2)10(6-11)9(3)5-7/h4-6H,1-3H3
SMILES=O=Cc(c(C)1)c(C)cc(C)c1
cas=487-68-3
computed SMILES=O=CC=1C(=CC(=CC1C)C)C
accession=JP008789
date=2016.01.19 (Created 2008.10.21, modified 2011.05.06)
author=UOEH
license=CC BY-NC-SA
exact mass=148.08882
ionization energy=70 eV
ion type=[M]+*
computed spectral entropy=2.901452291150023
computed normalized entropy=0.7919758342855373
SPLASH=splash10-0002-5900000000-65fb57ab90261d73ba23
submitter=submitter = University of Tokyo Team (Faculty of Engineering, University of Tokyo)
MoNA Rating=3.75

>  <NUM PEAKS>  (2422) 
39

>  <MASS SPECTRAL PEAKS>  (2422) 
38 3.27
39 18.31
40 3.3
41 12.04
50 5.88
51 15.47
52 4.85
53 5.87
57 2.48
61 1.3
62 2.95
63 9.57
64 2.74
65 10.38
66 2.45
73 2.24
74 2.77
75 2.57
76 1.67
77 19.61
78 7.92
79 7.35
89 3.44
91 29.57
92 2.51
93 2.46
102 2.41
103 8.93
104 4.77
105 19.56
106 2.45
115 8.91
116 2.54
117 9.91
119 71.45
120 10.38
147 99.99
148 72.22
149 6.73

$$$$

     RDKit          2D

 10 10  0  0  0  0  0  0  0  0999 V2000
   -3.9008    0.7413    0.0000 C   0  0  0  0  0  0  0  0  0  0  0  0
    0.0072   -1.5063    0.0000 C   0  0  0  0  0  0  0  0  0  0  0  0
    1.3207    0.7186    0.0000 C   0  0  0  0  0  0  0  0  0  0  0  0
   -1.2773   -0.7814    0.0000 C   0  0  0  0  0  0  0  0  0  0  0  0
   -0.0038    1.5127    0.0000 C   0  0  0  0  0  0  0  0  0  0  0  0
    2.6016   -1.5127    0.0000 C   0  0  0  0  0  0  0  0  0  0  0  0
    1.3062   -0.7563    0.0000 C   0  0  0  0  0  0  0  0  0  0  0  0
   -1.3028    0.7627    0.0000 C   0  0  0  0  0  0  0  0  0  0  0  0
    3.9043   -0.7691    0.0000 O   0  0  0  0  0  0  0  0  0  0  0  0
   -2.6080    1.5020    0.0000 O   0  0  0  0  0  0  0  0  0  0  0  0
  4  2  2  0
  5  3  1  0
  7  2  1  0
  7  3  2  0
  7  6  1  0
  8  4  1  0
  8  5  2  0
  9  6  2  0
 10  1  1  0
 10  8  1  0
M  END
>  <NAME>  (2423) 
ANISALDEHYDE

>  <SYNONYMS>  (2423) 
4-METHOXYBENZALDEHYDE

>  <SPECTRUM TYPE>  (2423) 
MS1

>  <INSTRUMENT TYPE>  (2423) 
EI-B

>  <INSTRUMENT>  (2423) 
HP 5970

>  <ION MODE>  (2423) 
P

>  <INCHIKEY>  (2423) 
ZRSNZINYAWTAHE-UHFFFAOYSA-N

>  <FORMULA>  (2423) 
C8H8O2

>  <EXACT MASS>  (2423) 
136.052429496

>  <MW>  (2423) 
136

>  <ID>  (2423) 
JP008788

>  <CONTRIBUTOR>  (2423) 
University of Tokyo Team, {Faculty of Engineering, University of Tokyo

>  <COMMENT>  (2423) 
SMILES=O=Cc(c1)ccc(OC)c1
cas=123-11-5
InChI=InChI=1S/C8H8O2/c1-10-8-4-2-7(6-9)3-5-8/h2-6H,1H3
computed SMILES=O=CC1=CC=C(OC)C=C1
accession=JP008788
date=2016.01.19 (Created 2008.10.21, modified 2011.05.06)
author=UOEH
license=CC BY-NC-SA
exact mass=136.05243
ionization energy=70 eV
ion type=[M]+*
computed spectral entropy=3.379615183597692
computed normalized entropy=0.9042038298585301
SPLASH=splash10-002r-9400000000-bc00e3079ed91b21f4ba
submitter=submitter = University of Tokyo Team (Faculty of Engineering, University of Tokyo)
MoNA Rating=3.75

>  <NUM PEAKS>  (2423) 
42

>  <MASS SPECTRAL PEAKS>  (2423) 
37 8.03
38 21.15
39 54.14
40 3.01
41 3.84
43 2.88
49 4.43
50 35.41
51 42.49
52 6.29
53 9.94
61 6.41
62 12.14
63 36.59
64 26.03
65 48.02
66 6.13
73 4.02
74 12.99
75 8.68
76 47.52
77 90.69
78 40.35
79 36.89
89 4.12
90 25.82
91 26.68
92 40.46
93 14.7
94 13.5
104 28.17
105 21.62
107 14.82
108 3.51
118 37.81
119 30.33
120 8.28
121 18
135 51
136 99.99
137 10.22
149 7.84

$$$$

     RDKit          2D

  9  9  0  0  0  0  0  0  0  0999 V2000
    3.8981    1.5002    0.0000 C   0  0  0  0  0  0  0  0  0  0  0  0
    2.5992   -0.7500    0.0000 C   0  0  0  0  0  0  0  0  0  0  0  0
    1.2992    1.5000    0.0000 C   0  0  0  0  0  0  0  0  0  0  0  0
    1.2992   -1.5000    0.0000 C   0  0  0  0  0  0  0  0  0  0  0  0
   -0.0008    0.7500    0.0000 C   0  0  0  0  0  0  0  0  0  0  0  0
   -1.2998   -1.5002    0.0000 C   0  0  0  0  0  0  0  0  0  0  0  0
    2.5992    0.7500    0.0000 C   0  0  0  0  0  0  0  0  0  0  0  0
   -0.0008   -0.7500    0.0000 C   0  0  0  0  0  0  0  0  0  0  0  0
   -2.5989   -0.7504    0.0000 O   0  0  0  0  0  0  0  0  0  0  0  0
  4  2  2  0
  5  3  1  0
  7  1  1  0
  7  2  1  0
  7  3  2  0
  8  4  1  0
  8  5  2  0
  8  6  1  0
  9  6  2  0
M  END
>  <NAME>  (2424) 
TOLUALDEHYDE

>  <SYNONYMS>  (2424) 
4-METHYLBENZALDEHYDE

>  <SPECTRUM TYPE>  (2424) 
MS1

>  <INSTRUMENT TYPE>  (2424) 
EI-B

>  <INSTRUMENT>  (2424) 
HP 5970

>  <ION MODE>  (2424) 
P

>  <INCHIKEY>  (2424) 
FXLOVSHXALFLKQ-UHFFFAOYSA-N

>  <FORMULA>  (2424) 
C8H8O

>  <EXACT MASS>  (2424) 
120.057514876

>  <MW>  (2424) 
120

>  <ID>  (2424) 
JP008787

>  <CONTRIBUTOR>  (2424) 
University of Tokyo Team, {Faculty of Engineering, University of Tokyo

>  <COMMENT>  (2424) 
SMILES=O=Cc(c1)ccc(C)c1
cas=104-87-0
InChI=InChI=1S/C8H8O/c1-7-2-4-8(6-9)5-3-7/h2-6H,1H3
computed SMILES=O=CC1=CC=C(C=C1)C
accession=JP008787
date=2016.01.19 (Created 2008.10.21, modified 2011.05.06)
author=UOEH
license=CC BY-NC-SA
exact mass=120.05751
ionization energy=70 eV
ion type=[M]+*
computed spectral entropy=2.3878191383046796
computed normalized entropy=0.7724963905657111
SPLASH=splash10-00r6-9500000000-8499fc6c52a970ddef6f
submitter=submitter = University of Tokyo Team (Faculty of Engineering, University of Tokyo)
MoNA Rating=3.75

>  <NUM PEAKS>  (2424) 
22

>  <MASS SPECTRAL PEAKS>  (2424) 
37 3.07
38 5.84
39 25.67
41 5.37
43 3.47
44 2.98
50 8.56
51 12.98
52 2.77
53 2.89
61 3.27
62 8.56
63 16.8
64 5.25
65 28.25
74 2.41
89 9.72
91 99.99
92 10.02
119 74.19
120 74.79
121 8.3

$$$$

     RDKit          2D

 23 25  0  0  0  0  0  0  0  0999 V2000
    3.9000    0.7500    0.0000 C   0  0  0  0  0  0  0  0  0  0  0  0
    5.1989    1.5002    0.0000 H   0  0  0  0  0  0  0  0  0  0  0  0
   -3.9000    0.7500    0.0000 C   0  0  0  0  0  0  0  0  0  0  0  0
   -5.1989    1.5002    0.0000 H   0  0  0  0  0  0  0  0  0  0  0  0
    3.9000   -0.7500    0.0000 C   0  0  0  0  0  0  0  0  0  0  0  0
    5.1989   -1.5002    0.0000 H   0  0  0  0  0  0  0  0  0  0  0  0
   -3.9000   -0.7500    0.0000 C   0  0  0  0  0  0  0  0  0  0  0  0
   -5.1989   -1.5002    0.0000 H   0  0  0  0  0  0  0  0  0  0  0  0
    2.6000    1.5000    0.0000 C   0  0  0  0  0  0  0  0  0  0  0  0
    2.6000    3.0000    0.0000 H   0  0  0  0  0  0  0  0  0  0  0  0
   -2.6000    1.5000    0.0000 C   0  0  0  0  0  0  0  0  0  0  0  0
   -2.6000    3.0000    0.0000 H   0  0  0  0  0  0  0  0  0  0  0  0
    2.6000   -1.5000    0.0000 C   0  0  0  0  0  0  0  0  0  0  0  0
    2.6000   -3.0000    0.0000 H   0  0  0  0  0  0  0  0  0  0  0  0
   -2.6000   -1.5000    0.0000 C   0  0  0  0  0  0  0  0  0  0  0  0
   -2.6000   -3.0000    0.0000 H   0  0  0  0  0  0  0  0  0  0  0  0
    0.0000    1.5000    0.0000 C   0  0  0  0  0  0  0  0  0  0  0  0
    0.0000    3.0000    0.0000 H   0  0  0  0  0  0  0  0  0  0  0  0
    1.3000    0.7500    0.0000 C   0  0  0  0  0  0  0  0  0  0  0  0
   -1.3000    0.7500    0.0000 C   0  0  0  0  0  0  0  0  0  0  0  0
    1.3000   -0.7500    0.0000 C   0  0  0  0  0  0  0  0  0  0  0  0
   -1.3000   -0.7500    0.0000 C   0  0  0  0  0  0  0  0  0  0  0  0
    0.0000   -1.5000    0.0000 N   0  0  0  0  0  0  0  0  0  0  0  0
  1  2  1  0
  3  4  1  0
  5  6  1  0
  7  8  1  0
  9 10  1  0
 11 12  1  0
 13 14  1  0
 15 16  1  0
 17 18  1  0
  5  1  2  0
  7  3  1  0
  9  1  1  0
 11  3  2  0
 13  5  1  0
 15  7  2  0
 19  9  2  0
 19 17  1  0
 20 11  1  0
 20 17  2  0
 21 13  2  0
 21 19  1  0
 22 15  1  0
 22 20  1  0
 23 21  1  0
 23 22  2  0
M  ISO  8   2   2   4   2   6   2   8   2  10   2  12   2  14   2  16   2
M  ISO  1  18   2
M  END
>  <NAME>  (2425) 
ACRIDINE (1,2,3,4,5,6,7,8,9-D9)

>  <SYNONYMS>  (2425) 


>  <SPECTRUM TYPE>  (2425) 
MS1

>  <INSTRUMENT TYPE>  (2425) 
EI-B

>  <INSTRUMENT>  (2425) 
HP 5970

>  <ION MODE>  (2425) 
P

>  <INCHIKEY>  (2425) 
DZBUGLKDJFMEHC-LOIXRAQWSA-N

>  <FORMULA>  (2425) 
C13H9N

>  <EXACT MASS>  (2425) 
188.129990002

>  <MW>  (2425) 
188

>  <ID>  (2425) 
JP008786

>  <CONTRIBUTOR>  (2425) 
University of Tokyo Team, {Faculty of Engineering, University of Tokyo

>  <COMMENT>  (2425) 
SMILES=[2H]c(c([2H])3)c([2H])c(n1)c(c([2H])3)c([2H])c(c([2H])2)c(c([2H])c([2H])c([2H])2)1
InChI=InChI=1S/C13H9N/c1-3-7-12-10(5-1)9-11-6-2-4-8-13(11)14-12/h1-9H/i1D,2D,3D,4D,5D,6D,7D,8D,9D
computed SMILES=[H]C=1C=2C(N=C3C1C([H])=C([H])C([H])=C3[H])=C([H])C([H])=C([H])C2[H]
accession=JP008786
author=UOEH
date=2016.01.19 (Created 2008.10.21, modified 2011.05.06)
license=CC BY-NC-SA
exact mass=179.0735
ionization energy=70 eV
ion type=[M]+*
computed spectral entropy=2.469982066944733
computed normalized entropy=0.7126861758131676
SPLASH=splash10-000i-2900000000-810da35b7e1a93e931e6
submitter=submitter = University of Tokyo Team (Faculty of Engineering, University of Tokyo)
MoNA Rating=3.75

>  <NUM PEAKS>  (2425) 
32

>  <MASS SPECTRAL PEAKS>  (2425) 
40 1.35
42 3.52
52 4.52
54 3.72
64 1.9
66 6.11
76 2.52
78 4.66
79 2.46
80 4.85
82 1.16
88 0.93
90 1.27
93 9.89
102 1.03
106 1.32
118 1.44
130 1.4
132 3.8
156 2.82
157 1.39
158 9.78
159 2.58
160 8.99
161 1.32
184 4.39
185 3.91
186 19.93
187 17.5
188 99.99
189 14.39
190 1.1

$$$$

     RDKit          2D

 24 26  0  0  0  0  0  0  0  0999 V2000
    3.9000   -0.7500    0.0000 C   0  0  0  0  0  0  0  0  0  0  0  0
    5.1989   -1.5002    0.0000 H   0  0  0  0  0  0  0  0  0  0  0  0
    3.9000    0.7500    0.0000 C   0  0  0  0  0  0  0  0  0  0  0  0
    5.1989    1.5002    0.0000 H   0  0  0  0  0  0  0  0  0  0  0  0
   -3.9000   -0.7500    0.0000 C   0  0  0  0  0  0  0  0  0  0  0  0
   -5.1989   -1.5002    0.0000 H   0  0  0  0  0  0  0  0  0  0  0  0
   -3.9000    0.7500    0.0000 C   0  0  0  0  0  0  0  0  0  0  0  0
   -5.1989    1.5002    0.0000 H   0  0  0  0  0  0  0  0  0  0  0  0
    2.6000   -1.5000    0.0000 C   0  0  0  0  0  0  0  0  0  0  0  0
    2.6000   -3.0000    0.0000 H   0  0  0  0  0  0  0  0  0  0  0  0
    2.6000    1.5000    0.0000 C   0  0  0  0  0  0  0  0  0  0  0  0
    2.6000    3.0000    0.0000 H   0  0  0  0  0  0  0  0  0  0  0  0
   -2.6000   -1.5000    0.0000 C   0  0  0  0  0  0  0  0  0  0  0  0
   -2.6000   -3.0000    0.0000 H   0  0  0  0  0  0  0  0  0  0  0  0
   -2.6000    1.5000    0.0000 C   0  0  0  0  0  0  0  0  0  0  0  0
   -2.6000    3.0000    0.0000 H   0  0  0  0  0  0  0  0  0  0  0  0
   -0.0000   -1.5000    0.0000 C   0  0  0  0  0  0  0  0  0  0  0  0
   -0.0000   -3.0000    0.0000 H   0  0  0  0  0  0  0  0  0  0  0  0
   -0.0000    1.5000    0.0000 C   0  0  0  0  0  0  0  0  0  0  0  0
    0.0000    3.0000    0.0000 H   0  0  0  0  0  0  0  0  0  0  0  0
    1.3000   -0.7500    0.0000 C   0  0  0  0  0  0  0  0  0  0  0  0
    1.3000    0.7500    0.0000 C   0  0  0  0  0  0  0  0  0  0  0  0
   -1.3000   -0.7500    0.0000 C   0  0  0  0  0  0  0  0  0  0  0  0
   -1.3000    0.7500    0.0000 C   0  0  0  0  0  0  0  0  0  0  0  0
  1  2  1  0
  3  4  1  0
  5  6  1  0
  7  8  1  0
  9 10  1  0
 11 12  1  0
 13 14  1  0
 15 16  1  0
 17 18  1  0
 19 20  1  0
  3  1  2  0
  7  5  1  0
  9  1  1  0
 11  3  1  0
 13  5  2  0
 15  7  2  0
 21  9  2  0
 21 17  1  0
 22 11  2  0
 22 19  1  0
 22 21  1  0
 23 13  1  0
 23 17  2  0
 24 15  1  0
 24 19  2  0
 24 23  1  0
M  ISO  8   2   2   4   2   6   2   8   2  10   2  12   2  14   2  16   2
M  ISO  2  18   2  20   2
M  END
>  <NAME>  (2426) 
ANTHRACENE (1,2,3,4,5,6,7,8,9,10-D10)

>  <SYNONYMS>  (2426) 


>  <SPECTRUM TYPE>  (2426) 
MS1

>  <INSTRUMENT TYPE>  (2426) 
EI-B

>  <INSTRUMENT>  (2426) 
HP 5970

>  <ION MODE>  (2426) 
P

>  <INCHIKEY>  (2426) 
MWPLVEDNUUSJAV-LHNTUAQVSA-N

>  <FORMULA>  (2426) 
C14H10

>  <EXACT MASS>  (2426) 
188.14101778

>  <MW>  (2426) 
188

>  <ID>  (2426) 
JP008785

>  <CONTRIBUTOR>  (2426) 
University of Tokyo Team, {Faculty of Engineering, University of Tokyo

>  <COMMENT>  (2426) 
SMILES=[2H]c(c([2H])3)c([2H])c(c([2H])1)c(c([2H])3)c([2H])c(c([2H])2)c(c([2H])c([2H])c([2H])2)1
InChI=InChI=1S/C14H10/c1-2-6-12-10-14-8-4-3-7-13(14)9-11(12)5-1/h1-10H/i1D,2D,3D,4D,5D,6D,7D,8D,9D,10D
computed SMILES=[H]C=1C=2C(C([H])=C3C1C([H])=C([H])C([H])=C3[H])=C([H])C([H])=C([H])C2[H]
accession=JP008785
date=2016.01.19 (Created 2008.10.21, modified 2011.05.06)
author=UOEH
license=CC BY-NC-SA
exact mass=178.07825
ionization energy=70 eV
ion type=[M]+*
computed spectral entropy=2.515145063894686
computed normalized entropy=0.7257174621594437
SPLASH=splash10-000i-3900000000-ed716f06921a89f3fbc0
submitter=submitter = University of Tokyo Team (Faculty of Engineering, University of Tokyo)
MoNA Rating=3.75

>  <NUM PEAKS>  (2426) 
32

>  <MASS SPECTRAL PEAKS>  (2426) 
40 1.08
42 2.36
52 2.71
54 2.28
64 2.23
66 7.14
76 2.78
78 5.26
80 15.41
82 1.14
88 1.36
90 2.1
92 6.91
94 14.56
100 1.51
132 1.6
146 1.21
156 4.31
157 1.44
158 7.4
159 2.18
160 8.78
180 1.02
182 1.51
183 2.17
184 13.75
185 2.81
186 6.49
187 16.45
188 99.99
189 15.04
190 0.94

$$$$

     RDKit          2D

 13 14  0  0  0  0  0  0  0  0999 V2000
   -3.5723   -0.6174    0.0000 C   0  0  0  0  0  0  0  0  0  0  0  0
   -2.2728   -1.3683    0.0000 C   0  0  0  0  0  0  0  0  0  0  0  0
   -3.5728    0.8834    0.0000 C   0  0  0  0  0  0  0  0  0  0  0  0
    2.9184    1.6360    0.0000 C   0  0  0  0  0  0  0  0  0  0  0  0
    2.9254    3.1282    0.0000 C   0  0  0  0  0  0  0  0  0  0  0  0
   -0.9738   -0.6183    0.0000 C   0  0  0  0  0  0  0  0  0  0  0  0
   -2.2738    1.6334    0.0000 C   0  0  0  0  0  0  0  0  0  0  0  0
    1.6181    0.8882    0.0000 C   0  0  0  0  0  0  0  0  0  0  0  0
    1.6271    3.8812    0.0000 C   0  0  0  0  0  0  0  0  0  0  0  0
   -0.9742    0.8826    0.0000 C   0  0  0  0  0  0  0  0  0  0  0  0
    0.3248    1.6326    0.0000 C   0  0  0  0  0  0  0  0  0  0  0  0
    0.3268    3.1334    0.0000 C   0  0  0  0  0  0  0  0  0  0  0  0
   -0.9711    3.8854    0.0000 F   0  0  0  0  0  0  0  0  0  0  0  0
  2  1  2  0
  3  1  1  0
  5  4  2  0
  6  2  1  0
  7  3  2  0
  8  4  1  0
  9  5  1  0
 10  6  2  0
 10  7  1  0
 11  8  2  0
 11 10  1  0
 12  9  2  0
 12 11  1  0
 13 12  1  0
M  END
>  <NAME>  (2427) 
2-FLUOROBIPHENYL

>  <SYNONYMS>  (2427) 


>  <SPECTRUM TYPE>  (2427) 
MS1

>  <INSTRUMENT TYPE>  (2427) 
EI-B

>  <INSTRUMENT>  (2427) 
HP 5970

>  <ION MODE>  (2427) 
P

>  <INCHIKEY>  (2427) 
KLECYOQFQXJYBC-UHFFFAOYSA-N

>  <FORMULA>  (2427) 
C12H9F

>  <EXACT MASS>  (2427) 
172.068828508

>  <MW>  (2427) 
172

>  <ID>  (2427) 
JP008784

>  <CONTRIBUTOR>  (2427) 
University of Tokyo Team, {Faculty of Engineering, University of Tokyo

>  <COMMENT>  (2427) 
SMILES=Fc(c2)c(ccc2)c(c1)cccc1
InChI=InChI=1S/C12H9F/c13-12-9-5-4-8-11(12)10-6-2-1-3-7-10/h1-9H
computed SMILES=FC=1C=CC=CC1C=2C=CC=CC2
accession=JP008784
date=2016.01.19 (Created 2008.10.21, modified 2011.05.06)
author=UOEH
license=CC BY-NC-SA
exact mass=172.06883
ionization energy=70 eV
ion type=[M]+*
computed spectral entropy=2.7821306933633725
computed normalized entropy=0.7351985398476643
SPLASH=splash10-00di-2900000000-c5315b909ebc965a4dcb
submitter=submitter = University of Tokyo Team (Faculty of Engineering, University of Tokyo)
MoNA Rating=3.75

>  <NUM PEAKS>  (2427) 
44

>  <MASS SPECTRAL PEAKS>  (2427) 
39 3.59
50 5.48
51 5.62
52 1.34
57 1.95
60 1.16
61 1.11
62 2.18
63 5
70 1.4
72 1.52
73 4.54
74 4.75
75 5.25
77 1
81 1.28
83 1.78
85 9.32
86 5.57
87 1.37
94 2.2
96 1.11
98 1.42
99 2.08
100 1.24
107 1.51
120 3.48
125 12.09
126 1.78
133 4.73
145 1.39
146 6.13
150 3
151 5.66
152 5.19
153 1.77
157 1.53
168 1.53
169 4.2
170 23.47
171 36.8
172 99.99
173 12.48
174 0.7

$$$$

     RDKit          2D

 18 19  0  0  0  0  0  0  0  0999 V2000
   -2.6000   -0.7500    0.0000 C   0  0  0  0  0  0  0  0  0  0  0  0
   -3.8989   -1.5002    0.0000 H   0  0  0  0  0  0  0  0  0  0  0  0
   -2.6000    0.7500    0.0000 C   0  0  0  0  0  0  0  0  0  0  0  0
   -3.8989    1.5002    0.0000 H   0  0  0  0  0  0  0  0  0  0  0  0
    2.6000   -0.7500    0.0000 C   0  0  0  0  0  0  0  0  0  0  0  0
    3.8989   -1.5002    0.0000 H   0  0  0  0  0  0  0  0  0  0  0  0
    2.6000    0.7500    0.0000 C   0  0  0  0  0  0  0  0  0  0  0  0
    3.8989    1.5002    0.0000 H   0  0  0  0  0  0  0  0  0  0  0  0
   -1.3000   -1.5000    0.0000 C   0  0  0  0  0  0  0  0  0  0  0  0
   -1.3000   -3.0000    0.0000 H   0  0  0  0  0  0  0  0  0  0  0  0
   -1.3000    1.5000    0.0000 C   0  0  0  0  0  0  0  0  0  0  0  0
   -1.3000    3.0000    0.0000 H   0  0  0  0  0  0  0  0  0  0  0  0
    1.3000   -1.5000    0.0000 C   0  0  0  0  0  0  0  0  0  0  0  0
    1.3000   -3.0000    0.0000 H   0  0  0  0  0  0  0  0  0  0  0  0
    1.3000    1.5000    0.0000 C   0  0  0  0  0  0  0  0  0  0  0  0
    1.3000    3.0000    0.0000 H   0  0  0  0  0  0  0  0  0  0  0  0
    0.0000   -0.7500    0.0000 C   0  0  0  0  0  0  0  0  0  0  0  0
    0.0000    0.7500    0.0000 C   0  0  0  0  0  0  0  0  0  0  0  0
  1  2  1  0
  3  4  1  0
  5  6  1  0
  7  8  1  0
  9 10  1  0
 11 12  1  0
 13 14  1  0
 15 16  1  0
  3  1  2  0
  7  5  1  0
  9  1  1  0
 11  3  1  0
 13  5  2  0
 15  7  2  0
 17  9  2  0
 17 13  1  0
 18 11  2  0
 18 15  1  0
 18 17  1  0
M  ISO  8   2   2   4   2   6   2   8   2  10   2  12   2  14   2  16   2
M  END
>  <NAME>  (2428) 
NAPHTHALENE (1,2,3,4,5,6,7,8-D8)

>  <SYNONYMS>  (2428) 


>  <SPECTRUM TYPE>  (2428) 
MS1

>  <INSTRUMENT TYPE>  (2428) 
EI-B

>  <INSTRUMENT>  (2428) 
HP 5970

>  <ION MODE>  (2428) 
P

>  <INCHIKEY>  (2428) 
UFWIBTONFRDIAS-PGRXLJNUSA-N

>  <FORMULA>  (2428) 
C10H8

>  <EXACT MASS>  (2428) 
136.112814224

>  <MW>  (2428) 
136

>  <ID>  (2428) 
JP008783

>  <CONTRIBUTOR>  (2428) 
University of Tokyo Team, {Faculty of Engineering, University of Tokyo

>  <COMMENT>  (2428) 
SMILES=[2H]c(c([2H])1)c([2H])c(c([2H])2)c(c([2H])c([2H])c([2H])2)c([2H])1
InChI=InChI=1S/C10H8/c1-2-6-10-8-4-3-7-9(10)5-1/h1-8H/i1D,2D,3D,4D,5D,6D,7D,8D
computed SMILES=[H]C=1C=2C(C([H])=C([H])C1[H])=C([H])C([H])=C([H])C2[H]
accession=JP008783
date=2016.01.19 (Created 2008.10.21, modified 2011.05.06)
author=UOEH
license=CC BY-NC-SA
exact mass=128.0626
ionization energy=70 eV
ion type=[M]+*
computed spectral entropy=2.579706354802584
computed normalized entropy=0.6561090434254911
SPLASH=splash10-000i-4900000000-b2e474b4d7508faeddc3
submitter=submitter = University of Tokyo Team (Faculty of Engineering, University of Tokyo)
MoNA Rating=3.75

>  <NUM PEAKS>  (2428) 
51

>  <MASS SPECTRAL PEAKS>  (2428) 
38 0.94
39 0.26
40 2.09
42 4.04
43 0.2
44 0.24
50 0.76
51 0.55
52 6.74
54 12.44
55 0.63
56 1.34
58 0.26
62 1.15
63 0.34
64 2.78
66 7.7
68 8.94
70 0.24
74 0.57
76 4.8
77 0.58
78 4.8
79 0.62
80 3.98
81 0.61
82 3.84
83 0.68
84 2.94
85 0.25
86 0.32
88 0.8
90 1.25
94 0.88
100 0.92
102 0.41
104 0.44
106 2.92
107 1.53
108 12.08
109 1.2
118 0.27
130 0.35
131 0.49
132 4.78
133 1.98
134 10.32
135 13.32
136 99.99
137 9.91
138 0.55

$$$$

     RDKit          2D

 12 12  0  0  0  0  0  0  0  0999 V2000
   -1.6700   -0.9600    0.0000 C   0  0  0  0  0  0  0  0  0  0  0  0
   -2.9689   -1.7102    0.0000 H   0  0  0  0  0  0  0  0  0  0  0  0
   -1.6700    0.5400    0.0000 C   0  0  0  0  0  0  0  0  0  0  0  0
   -2.9689    1.2902    0.0000 H   0  0  0  0  0  0  0  0  0  0  0  0
   -0.3700   -1.7100    0.0000 C   0  0  0  0  0  0  0  0  0  0  0  0
   -0.3700   -3.2100    0.0000 H   0  0  0  0  0  0  0  0  0  0  0  0
   -0.3700    1.2900    0.0000 C   0  0  0  0  0  0  0  0  0  0  0  0
   -0.3700    2.7900    0.0000 H   0  0  0  0  0  0  0  0  0  0  0  0
    0.9300   -0.9600    0.0000 C   0  0  0  0  0  0  0  0  0  0  0  0
    2.2289   -1.7102    0.0000 H   0  0  0  0  0  0  0  0  0  0  0  0
    0.9300    0.5400    0.0000 C   0  0  0  0  0  0  0  0  0  0  0  0
    2.2289    1.2902    0.0000 O   0  0  0  0  0  0  0  0  0  0  0  0
  1  2  1  0
  3  4  1  0
  5  6  1  0
  7  8  1  0
  9 10  1  0
  3  1  2  0
  5  1  1  0
  7  3  1  0
  9  5  2  0
 11  7  2  0
 11  9  1  0
 12 11  1  0
M  ISO  5   2   2   4   2   6   2   8   2  10   2
M  END
>  <NAME>  (2429) 
PHENOL (2,3,4,5,6-D5)

>  <SYNONYMS>  (2429) 


>  <SPECTRUM TYPE>  (2429) 
MS1

>  <INSTRUMENT TYPE>  (2429) 
EI-B

>  <INSTRUMENT>  (2429) 
HP 5970

>  <ION MODE>  (2429) 
P

>  <INCHIKEY>  (2429) 
ISWSIDIOOBJBQZ-RALIUCGRSA-N

>  <FORMULA>  (2429) 
C6H6O

>  <EXACT MASS>  (2429) 
99.073248542

>  <MW>  (2429) 
99

>  <ID>  (2429) 
JP008782

>  <CONTRIBUTOR>  (2429) 
University of Tokyo Team, {Faculty of Engineering, University of Tokyo

>  <COMMENT>  (2429) 
SMILES=[2H]c(c([2H])1)c([2H])c([2H])c(O)c([2H])1
InChI=InChI=1S/C6H6O/c7-6-4-2-1-3-5-6/h1-5,7H/i1D,2D,3D,4D,5D
computed SMILES=[H]C=1C(O)=C([H])C([H])=C([H])C1[H]
accession=JP008782
date=2016.01.19 (Created 2008.10.21, modified 2011.05.06)
author=UOEH
license=CC BY-NC-SA
exact mass=94.04186
ionization energy=70 eV
ion type=[M]+*
computed spectral entropy=2.7350825668646173
computed normalized entropy=0.7271834740865072
SPLASH=splash10-006w-9000000000-c8b41f2899ca8cc9d4bc
submitter=submitter = University of Tokyo Team (Faculty of Engineering, University of Tokyo)
MoNA Rating=3.75

>  <NUM PEAKS>  (2429) 
43

>  <MASS SPECTRAL PEAKS>  (2429) 
34 0.56
35 1.15
38 6.26
39 2.03
40 11.78
41 10.02
42 29.15
43 13.57
44 6.38
45 0.84
46 0.37
48 1.15
49 5.75
52 8.55
53 2.04
54 8.96
55 0.67
56 1.25
57 2.08
58 7.87
60 0.6
61 0.32
62 2.09
64 3.32
65 1.06
66 5.82
67 0.92
68 2.79
69 14.13
70 18.79
71 40.24
72 2.68
74 0.41
76 1.89
78 0.56
80 0.54
81 0.65
82 1.44
96 0.45
98 8.91
99 99.99
100 6.19
101 0.44

$$$$

     RDKit          2D

  7  6  0  0  0  0  0  0  0  0999 V2000
    1.9486    3.3750    0.0000 C   0  0  0  0  0  0  0  0  0  0  0  0
    0.6495    4.1250    0.0000 C   0  0  0  0  0  0  0  0  0  0  0  0
   -0.6495    3.3750    0.0000 C   0  0  0  0  0  0  0  0  0  0  0  0
   -1.9486    4.1250    0.0000 C   0  0  0  0  0  0  0  0  0  0  0  0
   -3.2476    3.3750    0.0000 C   0  0  0  0  0  0  0  0  0  0  0  0
   -4.5466    4.1250    0.0000 C   0  0  0  0  0  0  0  0  0  0  0  0
   -5.8457    3.3750    0.0000 O   0  0  0  0  0  0  0  0  0  0  0  0
  2  1  1  0
  3  2  1  0
  4  3  1  0
  5  4  1  0
  6  5  1  0
  7  6  1  0
M  END
>  <NAME>  (2430) 
1-HEXANOL

>  <SYNONYMS>  (2430) 


>  <SPECTRUM TYPE>  (2430) 
MS1

>  <INSTRUMENT TYPE>  (2430) 
EI-B

>  <INSTRUMENT>  (2430) 
HP 5970

>  <ION MODE>  (2430) 
P

>  <INCHIKEY>  (2430) 
ZSIAUFGUXNUGDI-UHFFFAOYSA-N

>  <FORMULA>  (2430) 
C6H14O

>  <EXACT MASS>  (2430) 
102.104465068

>  <MW>  (2430) 
102

>  <ID>  (2430) 
JP008781

>  <CONTRIBUTOR>  (2430) 
University of Tokyo Team, {Faculty of Engineering, University of Tokyo

>  <COMMENT>  (2430) 
SMILES=CCCCCCO
cas=111-27-3
InChI=InChI=1S/C6H14O/c1-2-3-4-5-6-7/h7H,2-6H2,1H3
computed SMILES=OCCCCCC
accession=JP008781
date=2016.01.19 (Created 2008.10.21, modified 2011.05.06)
author=UOEH
license=CC BY-NC-SA
exact mass=102.10447
ionization energy=70 eV
ion type=[M]+*
computed spectral entropy=2.243025567599824
computed normalized entropy=0.6731356256047706
SPLASH=splash10-052f-9000000000-003fe1ca0e7fdfcbdd97
submitter=submitter = University of Tokyo Team (Faculty of Engineering, University of Tokyo)
MoNA Rating=3.75

>  <NUM PEAKS>  (2430) 
28

>  <MASS SPECTRAL PEAKS>  (2430) 
37 0.39
38 0.75
39 22.22
40 5.45
41 58.94
42 48
43 65.18
44 5.88
45 3.62
50 0.66
51 1.1
52 0.37
53 3.36
54 1.5
55 52.85
56 99.99
57 8.49
58 0.11
59 0.08
65 0.11
67 1.09
68 0.14
69 28.17
70 2.41
71 0.98
73 0.99
83 0.81
84 4.23

$$$$

     RDKit          2D

  7  6  0  0  0  0  0  0  0  0999 V2000
    1.9486    2.6250    0.0000 C   0  0  0  0  0  0  0  0  0  0  0  0
   -0.6495    1.1250    0.0000 C   0  0  0  0  0  0  0  0  0  0  0  0
    0.6495    3.3750    0.0000 C   0  0  0  0  0  0  0  0  0  0  0  0
   -1.9486    3.3750    0.0000 C   0  0  0  0  0  0  0  0  0  0  0  0
   -3.2476    2.6250    0.0000 C   0  0  0  0  0  0  0  0  0  0  0  0
   -0.6495    2.6250    0.0000 C   0  0  0  0  0  0  0  0  0  0  0  0
   -4.5466    3.3750    0.0000 O   0  0  0  0  0  0  0  0  0  0  0  0
  3  1  1  0
  5  4  1  0
  6  2  1  0
  6  3  1  0
  6  4  1  0
  7  5  1  0
M  END
>  <NAME>  (2431) 
3-METHYL-1-PENTANOL

>  <SYNONYMS>  (2431) 


>  <SPECTRUM TYPE>  (2431) 
MS1

>  <INSTRUMENT TYPE>  (2431) 
EI-B

>  <INSTRUMENT>  (2431) 
HP 5970

>  <ION MODE>  (2431) 
P

>  <INCHIKEY>  (2431) 
IWTBVKIGCDZRPL-UHFFFAOYSA-N

>  <FORMULA>  (2431) 
C6H14O

>  <EXACT MASS>  (2431) 
102.104465068

>  <MW>  (2431) 
102

>  <ID>  (2431) 
JP008780

>  <CONTRIBUTOR>  (2431) 
University of Tokyo Team, {Faculty of Engineering, University of Tokyo

>  <COMMENT>  (2431) 
computed SMILES=OCCC(C)CC
SMILES=OCCC(C)CC
InChI=InChI=1S/C6H14O/c1-3-6(2)4-5-7/h6-7H,3-5H2,1-2H3
accession=JP008780
date=2016.01.19 (Created 2008.10.21, modified 2011.05.06)
author=UOEH
license=CC BY-NC-SA
exact mass=102.10447
ionization energy=70 eV
ion type=[M]+*
computed spectral entropy=2.291240287026492
computed normalized entropy=0.6876049414224042
SPLASH=splash10-0a4l-9000000000-23b0c8a98b639e229c8a
submitter=submitter = University of Tokyo Team (Faculty of Engineering, University of Tokyo)
MoNA Rating=3.75

>  <NUM PEAKS>  (2431) 
28

>  <MASS SPECTRAL PEAKS>  (2431) 
37 0.31
39 17.62
41 68.54
42 3.71
43 61.98
44 5.11
45 9.68
46 3.17
50 0.61
51 1.43
52 0.14
53 3.67
55 49.6
56 99.99
57 26.19
58 0.43
59 2.11
63 0.61
67 1.27
69 43.89
70 2.46
71 3.62
72 0.27
73 0.87
74 0.68
83 0.81
84 11.01
85 1.04

$$$$

     RDKit          2D

 16 18  0  0  0  0  0  0  0  0999 V2000
    3.9000   -0.7500    0.0000 C   0  0  0  0  0  0  0  0  0  0  0  0
    3.9000    0.7500    0.0000 C   0  0  0  0  0  0  0  0  0  0  0  0
   -3.9000   -0.7500    0.0000 C   0  0  0  0  0  0  0  0  0  0  0  0
   -3.9000    0.7500    0.0000 C   0  0  0  0  0  0  0  0  0  0  0  0
    2.6000   -1.5000    0.0000 C   0  0  0  0  0  0  0  0  0  0  0  0
    2.6000    1.5000    0.0000 C   0  0  0  0  0  0  0  0  0  0  0  0
   -2.6000   -1.5000    0.0000 C   0  0  0  0  0  0  0  0  0  0  0  0
   -2.6000    1.5000    0.0000 C   0  0  0  0  0  0  0  0  0  0  0  0
    1.3000   -0.7500    0.0000 C   0  0  0  0  0  0  0  0  0  0  0  0
    1.3000    0.7500    0.0000 C   0  0  0  0  0  0  0  0  0  0  0  0
   -1.3000   -0.7500    0.0000 C   0  0  0  0  0  0  0  0  0  0  0  0
   -1.3000    0.7500    0.0000 C   0  0  0  0  0  0  0  0  0  0  0  0
   -0.0000   -1.5000    0.0000 C   0  0  0  0  0  0  0  0  0  0  0  0
   -0.0000    1.5000    0.0000 C   0  0  0  0  0  0  0  0  0  0  0  0
   -0.0000   -3.0000    0.0000 Br  0  0  0  0  0  0  0  0  0  0  0  0
    0.0000    3.0000    0.0000 Br  0  0  0  0  0  0  0  0  0  0  0  0
  2  1  2  0
  4  3  1  0
  5  1  1  0
  6  2  1  0
  7  3  2  0
  8  4  2  0
  9  5  2  0
 10  6  2  0
 10  9  1  0
 11  7  1  0
 12  8  1  0
 12 11  1  0
 13  9  1  0
 13 11  2  0
 14 10  1  0
 14 12  2  0
 15 13  1  0
 16 14  1  0
M  END
>  <NAME>  (2432) 
9,10-DIBROMOANTHRACENE

>  <SYNONYMS>  (2432) 


>  <SPECTRUM TYPE>  (2432) 
MS1

>  <INSTRUMENT TYPE>  (2432) 
EI-B

>  <INSTRUMENT>  (2432) 
HP 5970

>  <ION MODE>  (2432) 
P

>  <INCHIKEY>  (2432) 
BRUOAURMAFDGLP-UHFFFAOYSA-N

>  <FORMULA>  (2432) 
C14H8Br2

>  <EXACT MASS>  (2432) 
333.899274456

>  <MW>  (2432) 
334

>  <ID>  (2432) 
JP008779

>  <CONTRIBUTOR>  (2432) 
University of Tokyo Team, {Faculty of Engineering, University of Tokyo

>  <COMMENT>  (2432) 
SMILES=c(c3)cc(c(Br)1)c(c3)c(Br)c(c2)c(ccc2)1
cas=523-27-3
InChI=InChI=1S/C14H8Br2/c15-13-9-5-1-2-6-10(9)14(16)12-8-4-3-7-11(12)13/h1-8H
computed SMILES=BrC=1C=2C=CC=CC2C(Br)=C3C=CC=CC13
author=UOEH
accession=JP008779
date=2016.01.19 (Created 2008.10.21, modified 2011.05.06)
license=CC BY-NC-SA
exact mass=333.89928
ionization energy=70 eV
ion type=[M]+*
computed spectral entropy=2.838201048504441
computed normalized entropy=0.8930626100168051
SPLASH=splash10-002r-7908000000-ea2eaf25e408bd2ba03c
submitter=submitter = University of Tokyo Team (Faculty of Engineering, University of Tokyo)
MoNA Rating=3.75

>  <NUM PEAKS>  (2432) 
24

>  <MASS SPECTRAL PEAKS>  (2432) 
43 6.1
44 12.03
62 13.79
63 9.68
74 17.08
75 21.53
86 10.52
87 21.06
88 51.64
89 5.76
98 13.18
111 7.24
149 9.45
150 17.46
168 15.75
174 18.78
175 24.89
176 99.99
177 16.42
334 47.69
336 79.33
337 17.46
338 42.15
339 8.19

$$$$

     RDKit          2D

 14 15  0  0  0  0  0  0  0  0999 V2000
   -1.3000    0.7500    0.0000 C   0  0  0  0  0  0  0  0  0  0  0  0
   -0.0000   -1.5000    0.0000 C   0  0  0  0  0  0  0  0  0  0  0  0
   -2.5989   -3.0002    0.0000 C   0  0  0  0  0  0  0  0  0  0  0  0
   -3.8989   -0.7502    0.0000 C   0  0  0  0  0  0  0  0  0  0  0  0
    0.0000    1.5000    0.0000 C   0  0  0  0  0  0  0  0  0  0  0  0
    1.3000   -0.7500    0.0000 C   0  0  0  0  0  0  0  0  0  0  0  0
   -3.8989   -3.7502    0.0000 C   0  0  0  0  0  0  0  0  0  0  0  0
   -5.1989   -1.5002    0.0000 C   0  0  0  0  0  0  0  0  0  0  0  0
   -1.3000   -0.7500    0.0000 C   0  0  0  0  0  0  0  0  0  0  0  0
   -2.5989   -1.5002    0.0000 C   0  0  0  0  0  0  0  0  0  0  0  0
    1.3000    0.7500    0.0000 C   0  0  0  0  0  0  0  0  0  0  0  0
   -5.1989   -3.0002    0.0000 C   0  0  0  0  0  0  0  0  0  0  0  0
    2.5989    1.5002    0.0000 Br  0  0  0  0  0  0  0  0  0  0  0  0
   -6.4978   -3.7504    0.0000 Br  0  0  0  0  0  0  0  0  0  0  0  0
  5  1  2  0
  6  2  1  0
  7  3  2  0
  8  4  1  0
  9  1  1  0
  9  2  2  0
 10  3  1  0
 10  4  2  0
 10  9  1  0
 11  5  1  0
 11  6  2  0
 12  7  1  0
 12  8  2  0
 13 11  1  0
 14 12  1  0
M  END
>  <NAME>  (2433) 
4,4'-DIBROMOBIPHENYL

>  <SYNONYMS>  (2433) 


>  <SPECTRUM TYPE>  (2433) 
MS1

>  <INSTRUMENT TYPE>  (2433) 
EI-B

>  <INSTRUMENT>  (2433) 
HP 5970

>  <ION MODE>  (2433) 
P

>  <INCHIKEY>  (2433) 
HQJQYILBCQPYBI-UHFFFAOYSA-N

>  <FORMULA>  (2433) 
C12H8Br2

>  <EXACT MASS>  (2433) 
309.899274456

>  <MW>  (2433) 
310

>  <ID>  (2433) 
JP008778

>  <CONTRIBUTOR>  (2433) 
University of Tokyo Team, {Faculty of Engineering, University of Tokyo

>  <COMMENT>  (2433) 
SMILES=Brc(c2)ccc(c2)c(c1)ccc(Br)c1
cas=92-86-4
InChI=InChI=1S/C12H8Br2/c13-11-5-1-9(2-6-11)10-3-7-12(14)8-4-10/h1-8H
computed SMILES=BrC=1C=CC(=CC1)C2=CC=C(Br)C=C2
accession=JP008778
date=2016.01.19 (Created 2008.10.21, modified 2011.05.06)
author=UOEH
license=CC BY-NC-SA
exact mass=309.89928
ionization energy=70 eV
ion type=[M]+*
computed spectral entropy=2.696650828601206
computed normalized entropy=0.8724082147986623
SPLASH=splash10-0ik9-7709000000-7a9c40cb5dbdb65c71e5
submitter=submitter = University of Tokyo Team (Faculty of Engineering, University of Tokyo)
MoNA Rating=3.75

>  <NUM PEAKS>  (2433) 
22

>  <MASS SPECTRAL PEAKS>  (2433) 
44 8.66
50 21.48
51 16.04
62 10.85
63 17.94
74 14.34
75 21.07
76 41.87
98 9.32
102 7.13
115.5 5.98
125 6.61
126 11.38
150 12.78
151 24.61
152 99.99
153 13.75
310 47.49
311 8.21
312 94.71
313 11.09
314 44.96

$$$$

     RDKit          2D

 22 23  0  0  0  0  0  0  0  0999 V2000
    2.5989    1.5002    0.0000 C   0  0  0  0  0  0  0  0  0  0  0  0
    1.3000    0.7500    0.0000 C   0  0  0  0  0  0  0  0  0  0  0  0
    3.8989    0.7502    0.0000 C   0  0  0  0  0  0  0  0  0  0  0  0
    2.5989    3.0002    0.0000 C   0  0  0  0  0  0  0  0  0  0  0  0
    0.0000    1.5000    0.0000 C   0  0  0  0  0  0  0  0  0  0  0  0
    1.3000   -0.7500    0.0000 C   0  0  0  0  0  0  0  0  0  0  0  0
    5.1989    1.5002    0.0000 C   0  0  0  0  0  0  0  0  0  0  0  0
    3.8989    3.7502    0.0000 C   0  0  0  0  0  0  0  0  0  0  0  0
   -1.3000    0.7500    0.0000 C   0  0  0  0  0  0  0  0  0  0  0  0
   -0.0000   -1.5000    0.0000 C   0  0  0  0  0  0  0  0  0  0  0  0
    5.1989    3.0002    0.0000 C   0  0  0  0  0  0  0  0  0  0  0  0
   -1.3000   -0.7500    0.0000 C   0  0  0  0  0  0  0  0  0  0  0  0
    3.8989   -0.7498    0.0000 F   0  0  0  0  0  0  0  0  0  0  0  0
    1.3000    3.7504    0.0000 F   0  0  0  0  0  0  0  0  0  0  0  0
    0.0000    3.0000    0.0000 F   0  0  0  0  0  0  0  0  0  0  0  0
    2.5989   -1.5002    0.0000 F   0  0  0  0  0  0  0  0  0  0  0  0
    6.4978    0.7500    0.0000 F   0  0  0  0  0  0  0  0  0  0  0  0
    3.8989    5.2502    0.0000 F   0  0  0  0  0  0  0  0  0  0  0  0
   -2.5989    1.5002    0.0000 F   0  0  0  0  0  0  0  0  0  0  0  0
   -0.0000   -3.0000    0.0000 F   0  0  0  0  0  0  0  0  0  0  0  0
    6.4978    3.7504    0.0000 F   0  0  0  0  0  0  0  0  0  0  0  0
   -2.5989   -1.5002    0.0000 F   0  0  0  0  0  0  0  0  0  0  0  0
  2  1  1  0
  3  1  2  0
  4  1  1  0
  5  2  2  0
  6  2  1  0
  7  3  1  0
  8  4  2  0
  9  5  1  0
 10  6  2  0
 11  7  2  0
 11  8  1  0
 12  9  2  0
 12 10  1  0
 13  3  1  0
 14  4  1  0
 15  5  1  0
 16  6  1  0
 17  7  1  0
 18  8  1  0
 19  9  1  0
 20 10  1  0
 21 11  1  0
 22 12  1  0
M  END
>  <NAME>  (2434) 
DECAFLUOROBIPHENYL

>  <SYNONYMS>  (2434) 


>  <SPECTRUM TYPE>  (2434) 
MS1

>  <INSTRUMENT TYPE>  (2434) 
EI-B

>  <INSTRUMENT>  (2434) 
HP 5970

>  <ION MODE>  (2434) 
P

>  <INCHIKEY>  (2434) 
ONUFSRWQCKNVSL-UHFFFAOYSA-N

>  <FORMULA>  (2434) 
C12F10

>  <EXACT MASS>  (2434) 
333.9840322

>  <MW>  (2434) 
334

>  <ID>  (2434) 
JP008777

>  <CONTRIBUTOR>  (2434) 
University of Tokyo Team, {Faculty of Engineering, University of Tokyo

>  <COMMENT>  (2434) 
SMILES=Fc(c(F)2)c(F)c(F)c(c(F)2)c(c(F)1)c(F)c(F)c(F)c(F)1
cas=434-90-2
InChI=InChI=1S/C12F10/c13-3-1(4(14)8(18)11(21)7(3)17)2-5(15)9(19)12(22)10(20)6(2)16
computed SMILES=FC=1C(F)=C(F)C(=C(F)C1F)C=2C(F)=C(F)C(F)=C(F)C2F
accession=JP008777
date=2016.01.19 (Created 2008.10.21, modified 2011.05.06)
author=UOEH
license=CC BY-NC-SA
exact mass=333.98403
ionization energy=70 eV
ion type=[M]+*
computed spectral entropy=2.9174746135286758
computed normalized entropy=0.7154991593980646
SPLASH=splash10-001i-1469000000-af49bd422b83230152df
submitter=submitter = University of Tokyo Team (Faculty of Engineering, University of Tokyo)
MoNA Rating=3.75

>  <NUM PEAKS>  (2434) 
59

>  <MASS SPECTRAL PEAKS>  (2434) 
44 1.39
55 0.72
69 4.09
74 2.39
79 2.28
86 0.89
93 9.34
98 3.43
103 1.92
110 1.23
117 8.4
122 2.47
124 2.12
127 0.95
129 1.01
132 2.1
134 1.76
141 5.55
142 1.14
146 1.49
148 2.41
153 1.05
158 0.77
160 1.61
165 5.76
166 0.25
167 7.42
172 1.1
177 1.2
179 1.64
184 1.34
189 0.28
191 0.93
196 2.55
203 4.33
204 0.15
210 1.16
215 3.73
222 0.69
227 2.72
234 9.07
235 0.76
241 2.98
242 0.16
246 2.77
253 2.2
258 0.39
265 38.22
266 4.14
272 1.63
284 4.09
296 10.36
297 1.09
303 1.35
315 10.79
316 1.31
334 99.99
335 13.02
336 0.55

$$$$

     RDKit          2D

  8  8  0  0  0  0  0  0  0  0999 V2000
   -1.3000    0.7500    0.0000 C   0  0  0  0  0  0  0  0  0  0  0  0
    0.0000    1.5000    0.0000 C   0  0  0  0  0  0  0  0  0  0  0  0
   -1.3000   -0.7500    0.0000 C   0  0  0  0  0  0  0  0  0  0  0  0
    1.3000   -0.7500    0.0000 C   0  0  0  0  0  0  0  0  0  0  0  0
    1.3000    0.7500    0.0000 C   0  0  0  0  0  0  0  0  0  0  0  0
   -0.0000   -1.5000    0.0000 C   0  0  0  0  0  0  0  0  0  0  0  0
    2.5989    1.5002    0.0000 Br  0  0  0  0  0  0  0  0  0  0  0  0
   -0.0000   -3.0000    0.0000 Br  0  0  0  0  0  0  0  0  0  0  0  0
  2  1  2  0
  3  1  1  0
  5  2  1  0
  5  4  2  0
  6  3  2  0
  6  4  1  0
  7  5  1  0
  8  6  1  0
M  END
>  <NAME>  (2435) 
1,3-DIBROMOBENZENE

>  <SYNONYMS>  (2435) 


>  <SPECTRUM TYPE>  (2435) 
MS1

>  <INSTRUMENT TYPE>  (2435) 
EI-B

>  <INSTRUMENT>  (2435) 
HP 5970

>  <ION MODE>  (2435) 
P

>  <INCHIKEY>  (2435) 
JSRLURSZEMLAFO-UHFFFAOYSA-N

>  <FORMULA>  (2435) 
C6H4Br2

>  <EXACT MASS>  (2435) 
233.867974328

>  <MW>  (2435) 
234

>  <ID>  (2435) 
JP008776

>  <CONTRIBUTOR>  (2435) 
University of Tokyo Team, {Faculty of Engineering, University of Tokyo

>  <COMMENT>  (2435) 
SMILES=Brc(c1)cc(Br)cc1
cas=108-36-1
InChI=InChI=1S/C6H4Br2/c7-5-2-1-3-6(8)4-5/h1-4H
computed SMILES=BrC1=CC=CC(Br)=C1
accession=JP008776
date=2016.01.19 (Created 2008.10.21, modified 2011.05.06)
author=UOEH
license=CC BY-NC-SA
exact mass=233.86798
ionization energy=70 eV
ion type=[M]+*
computed spectral entropy=2.636240221019327
computed normalized entropy=0.8799986047791314
SPLASH=splash10-0550-9460000000-e1704a5f18fb48e87971
submitter=submitter = University of Tokyo Team (Faculty of Engineering, University of Tokyo)
MoNA Rating=3.75

>  <NUM PEAKS>  (2435) 
20

>  <MASS SPECTRAL PEAKS>  (2435) 
49 11.09
50 74.12
51 6.95
73 14.8
74 52.57
75 56.28
76 44.38
77 12.38
78 9.63
79 8.69
81 12.48
117 7.03
118 7.4
155 57.84
156 7.67
157 61.92
234 62.77
236 99.99
237 7.28
238 50.74

$$$$

     RDKit          2D

  8  8  0  0  0  0  0  0  0  0999 V2000
    2.2733   -0.6175    0.0000 C   0  0  0  0  0  0  0  0  0  0  0  0
    2.2738    0.8833    0.0000 C   0  0  0  0  0  0  0  0  0  0  0  0
    0.9738   -1.3683    0.0000 C   0  0  0  0  0  0  0  0  0  0  0  0
    0.9748    1.6333    0.0000 C   0  0  0  0  0  0  0  0  0  0  0  0
   -0.3252   -0.6183    0.0000 C   0  0  0  0  0  0  0  0  0  0  0  0
   -1.6238    1.6325    0.0000 C   0  0  0  0  0  0  0  0  0  0  0  0
   -0.3248    0.8825    0.0000 C   0  0  0  0  0  0  0  0  0  0  0  0
   -2.9228    0.8825    0.0000 O   0  0  0  0  0  0  0  0  0  0  0  0
  2  1  2  0
  3  1  1  0
  4  2  1  0
  5  3  2  0
  7  4  2  0
  7  5  1  0
  7  6  1  0
  8  6  2  0
M  END
>  <NAME>  (2436) 
BENZALDEHYDE

>  <SYNONYMS>  (2436) 


>  <SPECTRUM TYPE>  (2436) 
MS1

>  <INSTRUMENT TYPE>  (2436) 
EI-B

>  <INSTRUMENT>  (2436) 
HP 5970

>  <ION MODE>  (2436) 
P

>  <INCHIKEY>  (2436) 
HUMNYLRZRPPJDN-UHFFFAOYSA-N

>  <FORMULA>  (2436) 
C7H6O

>  <EXACT MASS>  (2436) 
106.041864812

>  <MW>  (2436) 
106

>  <ID>  (2436) 
JP008775

>  <CONTRIBUTOR>  (2436) 
University of Tokyo Team, {Faculty of Engineering, University of Tokyo

>  <COMMENT>  (2436) 
SMILES=O=Cc(c1)cccc1
cas=100-52-7
InChI=InChI=1S/C7H6O/c8-6-7-4-2-1-3-5-7/h1-6H
computed SMILES=O=CC=1C=CC=CC1
accession=JP008775
date=2016.01.19 (Created 2008.10.21, modified 2011.05.06)
author=UOEH
license=CC BY-NC-SA
exact mass=106.04186
ionization energy=70 eV
ion type=[M]+*
computed spectral entropy=2.244395800026992
computed normalized entropy=0.762249045032807
SPLASH=splash10-0pdi-9500000000-eee2fac3cee7076204ca
submitter=submitter = University of Tokyo Team (Faculty of Engineering, University of Tokyo)
MoNA Rating=3.75

>  <NUM PEAKS>  (2436) 
19

>  <MASS SPECTRAL PEAKS>  (2436) 
37 6.88
38 8.25
39 10.54
49 5.52
50 37.84
51 58.08
52 14.22
53 1.94
61 1.56
62 2.15
63 2.91
73 2.61
74 10.38
75 4.56
77 99.99
78 17.78
105 83.82
106 86.21
107 6.16

$$$$

     RDKit          2D

  7  6  0  0  0  0  0  0  0  0999 V2000
    1.6238    3.1875    0.0000 C   0  0  0  0  0  0  0  0  0  0  0  0
   -4.8714    3.9375    0.0000 C   0  0  0  0  0  0  0  0  0  0  0  0
    0.3248    3.9375    0.0000 C   0  0  0  0  0  0  0  0  0  0  0  0
   -0.9743    3.1875    0.0000 C   0  0  0  0  0  0  0  0  0  0  0  0
   -2.2733    3.9375    0.0000 C   0  0  0  0  0  0  0  0  0  0  0  0
   -3.5724    3.1875    0.0000 C   0  0  0  0  0  0  0  0  0  0  0  0
   -3.5724    1.6875    0.0000 O   0  0  0  0  0  0  0  0  0  0  0  0
  3  1  1  0
  4  3  1  0
  5  4  1  0
  6  2  1  0
  6  5  1  0
  7  6  2  0
M  END
>  <NAME>  (2437) 
2-HEXANONE

>  <SYNONYMS>  (2437) 


>  <SPECTRUM TYPE>  (2437) 
MS1

>  <INSTRUMENT TYPE>  (2437) 
EI-B

>  <INSTRUMENT>  (2437) 
HP 5970

>  <ION MODE>  (2437) 
P

>  <INCHIKEY>  (2437) 
QQZOPKMRPOGIEB-UHFFFAOYSA-N

>  <FORMULA>  (2437) 
C6H12O

>  <EXACT MASS>  (2437) 
100.088815004

>  <MW>  (2437) 
100

>  <ID>  (2437) 
JP008774

>  <CONTRIBUTOR>  (2437) 
University of Tokyo Team, {Faculty of Engineering, University of Tokyo

>  <COMMENT>  (2437) 
SMILES=CCCCC(C)=O
cas=591-78-6
InChI=InChI=1S/C6H12O/c1-3-4-5-6(2)7/h3-5H2,1-2H3
computed SMILES=O=C(C)CCCC
accession=JP008774
date=2016.01.19 (Created 2008.10.21, modified 2011.05.06)
author=UOEH
license=CC BY-NC-SA
exact mass=100.08882
ionization energy=70 eV
ion type=[M]+*
computed spectral entropy=1.7019593821514085
computed normalized entropy=0.600716986499425
SPLASH=splash10-0006-9000000000-858b1e62ef5dfd041baf
submitter=submitter = University of Tokyo Team (Faculty of Engineering, University of Tokyo)
MoNA Rating=3.75

>  <NUM PEAKS>  (2437) 
17

>  <MASS SPECTRAL PEAKS>  (2437) 
38 0.78
39 9
40 0.82
41 17.07
43 99.99
44 2.53
45 0.51
50 0.29
53 0.35
55 1.46
57 13.67
58 41.16
59 2.24
71 4.32
72 0.57
85 5.1
100 5.72

$$$$

     RDKit          2D

 12 11  0  0  0  0  0  0  0  0999 V2000
    3.8971    6.0000    0.0000 C   0  0  0  0  0  0  0  0  0  0  0  0
    2.5981    6.7500    0.0000 C   0  0  0  0  0  0  0  0  0  0  0  0
    1.2990    6.0000    0.0000 C   0  0  0  0  0  0  0  0  0  0  0  0
    0.0000    6.7500    0.0000 C   0  0  0  0  0  0  0  0  0  0  0  0
   -1.2990    6.0000    0.0000 C   0  0  0  0  0  0  0  0  0  0  0  0
   -2.5981    6.7500    0.0000 C   0  0  0  0  0  0  0  0  0  0  0  0
   -3.8971    6.0000    0.0000 C   0  0  0  0  0  0  0  0  0  0  0  0
   -5.1962    6.7500    0.0000 C   0  0  0  0  0  0  0  0  0  0  0  0
   -6.4952    6.0000    0.0000 C   0  0  0  0  0  0  0  0  0  0  0  0
   -7.7942    6.7500    0.0000 C   0  0  0  0  0  0  0  0  0  0  0  0
   -9.0933    6.0000    0.0000 C   0  0  0  0  0  0  0  0  0  0  0  0
  -10.3923    6.7500    0.0000 O   0  0  0  0  0  0  0  0  0  0  0  0
  2  1  2  0
  3  2  1  0
  4  3  1  0
  5  4  1  0
  6  5  1  0
  7  6  1  0
  8  7  1  0
  9  8  1  0
 10  9  1  0
 11 10  1  0
 12 11  2  0
M  END
>  <NAME>  (2438) 
10-UNDECENAL

>  <SYNONYMS>  (2438) 
10-UNDECENYL ALDEHYDE

>  <SPECTRUM TYPE>  (2438) 
MS1

>  <INSTRUMENT TYPE>  (2438) 
EI-B

>  <INSTRUMENT>  (2438) 
HP 5970

>  <ION MODE>  (2438) 
P

>  <INCHIKEY>  (2438) 
OFHHDSQXFXLTKC-UHFFFAOYSA-N

>  <FORMULA>  (2438) 
C11H20O

>  <EXACT MASS>  (2438) 
168.15141526

>  <MW>  (2438) 
168

>  <ID>  (2438) 
JP008773

>  <CONTRIBUTOR>  (2438) 
University of Tokyo Team, {Faculty of Engineering, University of Tokyo

>  <COMMENT>  (2438) 
SMILES=C=CCCCCCCCCC=O
cas=112-45-8
InChI=InChI=1S/C11H20O/c1-2-3-4-5-6-7-8-9-10-11-12/h2,11H,1,3-10H2
computed SMILES=O=CCCCCCCCCC=C
accession=JP008773
date=2016.01.19 (Created 2008.10.21, modified 2011.05.06)
author=UOEH
license=CC BY-NC-SA
exact mass=168.15142
ionization energy=70 eV
ion type=[M]+*
computed spectral entropy=3.3630572807560077
computed normalized entropy=0.8354691811144116
SPLASH=splash10-05mo-9000000000-b85716e58a562f12a6f5
submitter=submitter = University of Tokyo Team (Faculty of Engineering, University of Tokyo)
MoNA Rating=3.75

>  <NUM PEAKS>  (2438) 
56

>  <MASS SPECTRAL PEAKS>  (2438) 
36 0.49
39 39.59
41 99.99
42 17.59
43 30.35
44 14.7
45 2.91
50 0.82
51 1.95
52 1.66
53 11.27
54 29.06
55 82.49
56 14.23
57 27.23
58 3.59
59 1.03
65 3
66 4.36
67 46.45
68 25.86
69 24.43
70 15.86
71 6.96
72 1.86
73 0.54
77 1.46
79 16.98
80 11.73
81 22.7
82 25.3
83 19.82
84 10.87
85 2.75
86 2.33
91 1.19
93 11.67
94 7.99
95 10.9
96 6.09
97 12.19
98 14.54
99 1.38
100 0.86
107 5.63
108 4.13
109 3.77
110 0.85
111 6.85
112 3.47
121 10
122 2.52
124 3.24
125 2.19
135 1.66
150 1.01

$$$$

     RDKit          2D

 15 14  0  0  0  0  0  0  0  0999 V2000
    4.5466    7.8750    0.0000 C   0  0  0  0  0  0  0  0  0  0  0  0
    3.2476    8.6250    0.0000 C   0  0  0  0  0  0  0  0  0  0  0  0
    1.9486    7.8750    0.0000 C   0  0  0  0  0  0  0  0  0  0  0  0
    0.6495    8.6250    0.0000 C   0  0  0  0  0  0  0  0  0  0  0  0
   -0.6495    7.8750    0.0000 C   0  0  0  0  0  0  0  0  0  0  0  0
   -1.9486    8.6250    0.0000 C   0  0  0  0  0  0  0  0  0  0  0  0
   -3.2476    7.8750    0.0000 C   0  0  0  0  0  0  0  0  0  0  0  0
   -4.5466    8.6250    0.0000 C   0  0  0  0  0  0  0  0  0  0  0  0
   -5.8457    7.8750    0.0000 C   0  0  0  0  0  0  0  0  0  0  0  0
   -7.1447    8.6250    0.0000 C   0  0  0  0  0  0  0  0  0  0  0  0
   -8.4437    7.8750    0.0000 C   0  0  0  0  0  0  0  0  0  0  0  0
   -9.7428    8.6250    0.0000 C   0  0  0  0  0  0  0  0  0  0  0  0
  -11.0418    7.8750    0.0000 C   0  0  0  0  0  0  0  0  0  0  0  0
  -12.3409    8.6250    0.0000 C   0  0  0  0  0  0  0  0  0  0  0  0
  -13.6399    7.8750    0.0000 O   0  0  0  0  0  0  0  0  0  0  0  0
  2  1  1  0
  3  2  1  0
  4  3  1  0
  5  4  1  0
  6  5  1  0
  7  6  1  0
  8  7  1  0
  9  8  1  0
 10  9  1  0
 11 10  1  0
 12 11  1  0
 13 12  1  0
 14 13  1  0
 15 14  2  0
M  END
>  <NAME>  (2439) 
TETRADECANAL

>  <SYNONYMS>  (2439) 


>  <SPECTRUM TYPE>  (2439) 
MS1

>  <INSTRUMENT TYPE>  (2439) 
EI-B

>  <INSTRUMENT>  (2439) 
HP 5970

>  <ION MODE>  (2439) 
P

>  <INCHIKEY>  (2439) 
UHUFTBALEZWWIH-UHFFFAOYSA-N

>  <FORMULA>  (2439) 
C14H28O

>  <EXACT MASS>  (2439) 
212.21401551600002

>  <MW>  (2439) 
212

>  <ID>  (2439) 
JP008772

>  <CONTRIBUTOR>  (2439) 
University of Tokyo Team, {Faculty of Engineering, University of Tokyo

>  <COMMENT>  (2439) 
SMILES=CCCCCCCCCCCCCC=O
cas=124-25-4
InChI=InChI=1S/C14H28O/c1-2-3-4-5-6-7-8-9-10-11-12-13-14-15/h14H,2-13H2,1H3
computed SMILES=O=CCCCCCCCCCCCCC
accession=JP008772
date=2016.01.19 (Created 2008.10.21, modified 2011.05.06)
author=UOEH
license=CC BY-NC-SA
exact mass=212.21402
ionization energy=70 eV
ion type=[M]+*
computed spectral entropy=3.226737939345011
computed normalized entropy=0.8870547109151421
SPLASH=splash10-052f-9000000000-f8f83eee05782910ff11
submitter=submitter = University of Tokyo Team (Faculty of Engineering, University of Tokyo)
MoNA Rating=3.75

>  <NUM PEAKS>  (2439) 
38

>  <MASS SPECTRAL PEAKS>  (2439) 
39 19
40 6.51
41 99.99
42 19.73
43 79.6
44 28.7
45 9.07
53 7.09
54 11.23
55 59.2
56 23.25
57 75.19
58 6.61
66 7.58
67 31.84
68 28.62
69 32.71
70 18.13
71 24.49
72 5.92
81 26.08
82 46.86
83 22.08
84 10.6
85 9.78
95 19.96
96 29.33
97 16.2
98 4.78
99 3.56
109 8.7
110 8.8
111 7.45
123 4.13
124 6.11
125 3.57
138 5.17
168 3.9

$$$$

     RDKit          2D

 14 13  0  0  0  0  0  0  0  0999 V2000
    4.5466    7.1250    0.0000 C   0  0  0  0  0  0  0  0  0  0  0  0
    3.2476    7.8750    0.0000 C   0  0  0  0  0  0  0  0  0  0  0  0
    1.9486    7.1250    0.0000 C   0  0  0  0  0  0  0  0  0  0  0  0
    0.6495    7.8750    0.0000 C   0  0  0  0  0  0  0  0  0  0  0  0
   -0.6495    7.1250    0.0000 C   0  0  0  0  0  0  0  0  0  0  0  0
   -1.9486    7.8750    0.0000 C   0  0  0  0  0  0  0  0  0  0  0  0
   -3.2476    7.1250    0.0000 C   0  0  0  0  0  0  0  0  0  0  0  0
   -4.5466    7.8750    0.0000 C   0  0  0  0  0  0  0  0  0  0  0  0
   -5.8457    7.1250    0.0000 C   0  0  0  0  0  0  0  0  0  0  0  0
   -7.1447    7.8750    0.0000 C   0  0  0  0  0  0  0  0  0  0  0  0
   -8.4437    7.1250    0.0000 C   0  0  0  0  0  0  0  0  0  0  0  0
   -9.7428    7.8750    0.0000 C   0  0  0  0  0  0  0  0  0  0  0  0
  -11.0418    7.1250    0.0000 C   0  0  0  0  0  0  0  0  0  0  0  0
  -12.3409    7.8750    0.0000 O   0  0  0  0  0  0  0  0  0  0  0  0
  2  1  1  0
  3  2  1  0
  4  3  1  0
  5  4  1  0
  6  5  1  0
  7  6  1  0
  8  7  1  0
  9  8  1  0
 10  9  1  0
 11 10  1  0
 12 11  1  0
 13 12  1  0
 14 13  2  0
M  END
>  <NAME>  (2440) 
TRIDECANAL

>  <SYNONYMS>  (2440) 


>  <SPECTRUM TYPE>  (2440) 
MS1

>  <INSTRUMENT TYPE>  (2440) 
EI-B

>  <INSTRUMENT>  (2440) 
HP 5970

>  <ION MODE>  (2440) 
P

>  <INCHIKEY>  (2440) 
BGEHHAVMRVXCGR-UHFFFAOYSA-N

>  <FORMULA>  (2440) 
C13H26O

>  <EXACT MASS>  (2440) 
198.198365452

>  <MW>  (2440) 
198

>  <ID>  (2440) 
JP008771

>  <CONTRIBUTOR>  (2440) 
University of Tokyo Team, {Faculty of Engineering, University of Tokyo

>  <COMMENT>  (2440) 
SMILES=CCCCCCCCCCCCC=O
cas=10486-19-8
InChI=InChI=1S/C13H26O/c1-2-3-4-5-6-7-8-9-10-11-12-13-14/h13H,2-12H2,1H3
computed SMILES=O=CCCCCCCCCCCCC
accession=JP008771
date=2016.01.19 (Created 2008.10.21, modified 2011.05.06)
author=UOEH
license=CC BY-NC-SA
exact mass=198.19837
ionization energy=70 eV
ion type=[M]+*
computed spectral entropy=3.2291853548105376
computed normalized entropy=0.8814333336582438
SPLASH=splash10-052f-9000000000-588dc92dd3c8395a37bd
submitter=submitter = University of Tokyo Team (Faculty of Engineering, University of Tokyo)
MoNA Rating=3.75

>  <NUM PEAKS>  (2440) 
39

>  <MASS SPECTRAL PEAKS>  (2440) 
39 20.79
41 99.99
42 22.51
43 84.18
44 31.81
45 10.92
53 6.73
54 15.39
55 66.29
56 28
57 82.14
58 5.87
66 7.35
67 32.51
68 33.32
69 36.45
70 27.32
71 30.05
72 6.69
79 3.66
80 2.83
81 31.05
82 48.37
83 24.29
84 9.75
85 10.76
95 20.18
96 26.51
97 12.56
98 5.18
99 3.63
109 8.73
110 9.21
111 6.12
112 2.74
123 6.12
124 7.28
125 3
154 4.17

$$$$

     RDKit          2D

 13 12  0  0  0  0  0  0  0  0999 V2000
    3.8971    6.7500    0.0000 C   0  0  0  0  0  0  0  0  0  0  0  0
    2.5981    7.5000    0.0000 C   0  0  0  0  0  0  0  0  0  0  0  0
    1.2990    6.7500    0.0000 C   0  0  0  0  0  0  0  0  0  0  0  0
    0.0000    7.5000    0.0000 C   0  0  0  0  0  0  0  0  0  0  0  0
   -1.2990    6.7500    0.0000 C   0  0  0  0  0  0  0  0  0  0  0  0
   -2.5981    7.5000    0.0000 C   0  0  0  0  0  0  0  0  0  0  0  0
   -3.8971    6.7500    0.0000 C   0  0  0  0  0  0  0  0  0  0  0  0
   -5.1962    7.5000    0.0000 C   0  0  0  0  0  0  0  0  0  0  0  0
   -6.4952    6.7500    0.0000 C   0  0  0  0  0  0  0  0  0  0  0  0
   -7.7942    7.5000    0.0000 C   0  0  0  0  0  0  0  0  0  0  0  0
   -9.0933    6.7500    0.0000 C   0  0  0  0  0  0  0  0  0  0  0  0
  -10.3923    7.5000    0.0000 C   0  0  0  0  0  0  0  0  0  0  0  0
  -11.6913    6.7500    0.0000 O   0  0  0  0  0  0  0  0  0  0  0  0
  2  1  1  0
  3  2  1  0
  4  3  1  0
  5  4  1  0
  6  5  1  0
  7  6  1  0
  8  7  1  0
  9  8  1  0
 10  9  1  0
 11 10  1  0
 12 11  1  0
 13 12  2  0
M  END
>  <NAME>  (2441) 
DODECANAL

>  <SYNONYMS>  (2441) 


>  <SPECTRUM TYPE>  (2441) 
MS1

>  <INSTRUMENT TYPE>  (2441) 
EI-B

>  <INSTRUMENT>  (2441) 
HP 5970

>  <ION MODE>  (2441) 
P

>  <INCHIKEY>  (2441) 
HFJRKMMYBMWEAD-UHFFFAOYSA-N

>  <FORMULA>  (2441) 
C12H24O

>  <EXACT MASS>  (2441) 
184.182715388

>  <MW>  (2441) 
184

>  <ID>  (2441) 
JP008770

>  <CONTRIBUTOR>  (2441) 
University of Tokyo Team, {Faculty of Engineering, University of Tokyo

>  <COMMENT>  (2441) 
SMILES=CCCCCCCCCCCC=O
cas=112-54-9
InChI=InChI=1S/C12H24O/c1-2-3-4-5-6-7-8-9-10-11-12-13/h12H,2-11H2,1H3
computed SMILES=O=CCCCCCCCCCCC
accession=JP008770
date=2016.01.19 (Created 2008.10.21, modified 2011.05.06)
author=UOEH
license=CC BY-NC-SA
exact mass=184.18272
ionization energy=70 eV
ion type=[M]+*
computed spectral entropy=3.2137320165664156
computed normalized entropy=0.8968089946668428
SPLASH=splash10-052f-9000000000-d6c6fff4af8756f0fdb0
submitter=submitter = University of Tokyo Team (Faculty of Engineering, University of Tokyo)
MoNA Rating=3.75

>  <NUM PEAKS>  (2441) 
36

>  <MASS SPECTRAL PEAKS>  (2441) 
39 29.53
41 99.99
42 26.25
43 78.93
44 34.89
45 10.4
53 7.48
54 12.56
55 66.69
56 37.55
57 77.67
58 4.34
66 7.32
67 35.75
68 33.76
69 30.85
70 24.25
71 27.28
72 6.25
80 3.57
81 28.42
82 44.35
83 20.69
84 10.32
85 14.07
95 19.45
96 22.83
97 13.35
98 6.54
109 8.26
110 13.43
111 7.48
123 4.06
124 4.22
138 5.56
140 7.19

$$$$

     RDKit          2D

 12 11  0  0  0  0  0  0  0  0999 V2000
    3.8971    6.0000    0.0000 C   0  0  0  0  0  0  0  0  0  0  0  0
    2.5981    6.7500    0.0000 C   0  0  0  0  0  0  0  0  0  0  0  0
    1.2990    6.0000    0.0000 C   0  0  0  0  0  0  0  0  0  0  0  0
    0.0000    6.7500    0.0000 C   0  0  0  0  0  0  0  0  0  0  0  0
   -1.2990    6.0000    0.0000 C   0  0  0  0  0  0  0  0  0  0  0  0
   -2.5981    6.7500    0.0000 C   0  0  0  0  0  0  0  0  0  0  0  0
   -3.8971    6.0000    0.0000 C   0  0  0  0  0  0  0  0  0  0  0  0
   -5.1962    6.7500    0.0000 C   0  0  0  0  0  0  0  0  0  0  0  0
   -6.4952    6.0000    0.0000 C   0  0  0  0  0  0  0  0  0  0  0  0
   -7.7942    6.7500    0.0000 C   0  0  0  0  0  0  0  0  0  0  0  0
   -9.0933    6.0000    0.0000 C   0  0  0  0  0  0  0  0  0  0  0  0
  -10.3923    6.7500    0.0000 O   0  0  0  0  0  0  0  0  0  0  0  0
  2  1  1  0
  3  2  1  0
  4  3  1  0
  5  4  1  0
  6  5  1  0
  7  6  1  0
  8  7  1  0
  9  8  1  0
 10  9  1  0
 11 10  1  0
 12 11  2  0
M  END
>  <NAME>  (2442) 
UNDECANAL

>  <SYNONYMS>  (2442) 


>  <SPECTRUM TYPE>  (2442) 
MS1

>  <INSTRUMENT TYPE>  (2442) 
EI-B

>  <INSTRUMENT>  (2442) 
HP 5970

>  <ION MODE>  (2442) 
P

>  <INCHIKEY>  (2442) 
KMPQYAYAQWNLME-UHFFFAOYSA-N

>  <FORMULA>  (2442) 
C11H22O

>  <EXACT MASS>  (2442) 
170.167065324

>  <MW>  (2442) 
170

>  <ID>  (2442) 
JP008769

>  <CONTRIBUTOR>  (2442) 
University of Tokyo Team, {Faculty of Engineering, University of Tokyo

>  <COMMENT>  (2442) 
SMILES=CCCCCCCCCCC=O
cas=112-45-8
InChI=InChI=1S/C11H22O/c1-2-3-4-5-6-7-8-9-10-11-12/h11H,2-10H2,1H3
computed SMILES=O=CCCCCCCCCCC
accession=JP008769
date=2016.01.19 (Created 2008.10.21, modified 2011.05.06)
author=UOEH
license=CC BY-NC-SA
exact mass=170.16707
ionization energy=70 eV
ion type=[M]+*
computed spectral entropy=3.223611822989603
computed normalized entropy=0.8995660071433679
SPLASH=splash10-052f-9000000000-0e1bd3711b82727e6689
submitter=submitter = University of Tokyo Team (Faculty of Engineering, University of Tokyo)
MoNA Rating=3.75

>  <NUM PEAKS>  (2442) 
36

>  <MASS SPECTRAL PEAKS>  (2442) 
39 31.9
40 7.92
41 99.99
42 24.48
43 94.19
44 38.09
45 16.86
46 3.89
51 3.12
53 10.52
54 15.1
55 56.83
56 34.81
57 70.05
58 4.95
66 6.83
67 30.37
68 38.93
69 27.08
70 22.86
71 32.25
72 7.85
81 23.36
82 45.21
83 16.91
84 13.83
85 13.68
95 17.96
96 21.64
97 16.45
98 7.94
109 7.02
110 6.94
123 4.73
124 5.98
126 9.34

$$$$

     RDKit          2D

 11 10  0  0  0  0  0  0  0  0999 V2000
    3.2476    5.6250    0.0000 C   0  0  0  0  0  0  0  0  0  0  0  0
    1.9486    6.3750    0.0000 C   0  0  0  0  0  0  0  0  0  0  0  0
    0.6495    5.6250    0.0000 C   0  0  0  0  0  0  0  0  0  0  0  0
   -0.6495    6.3750    0.0000 C   0  0  0  0  0  0  0  0  0  0  0  0
   -1.9486    5.6250    0.0000 C   0  0  0  0  0  0  0  0  0  0  0  0
   -3.2476    6.3750    0.0000 C   0  0  0  0  0  0  0  0  0  0  0  0
   -4.5466    5.6250    0.0000 C   0  0  0  0  0  0  0  0  0  0  0  0
   -5.8457    6.3750    0.0000 C   0  0  0  0  0  0  0  0  0  0  0  0
   -7.1447    5.6250    0.0000 C   0  0  0  0  0  0  0  0  0  0  0  0
   -8.4437    6.3750    0.0000 C   0  0  0  0  0  0  0  0  0  0  0  0
   -9.7428    5.6250    0.0000 O   0  0  0  0  0  0  0  0  0  0  0  0
  2  1  1  0
  3  2  1  0
  4  3  1  0
  5  4  1  0
  6  5  1  0
  7  6  1  0
  8  7  1  0
  9  8  1  0
 10  9  1  0
 11 10  2  0
M  END
>  <NAME>  (2443) 
DECANAL

>  <SYNONYMS>  (2443) 


>  <SPECTRUM TYPE>  (2443) 
MS1

>  <INSTRUMENT TYPE>  (2443) 
EI-B

>  <INSTRUMENT>  (2443) 
HP 5970

>  <ION MODE>  (2443) 
P

>  <INCHIKEY>  (2443) 
KSMVZQYAVGTKIV-UHFFFAOYSA-N

>  <FORMULA>  (2443) 
C10H20O

>  <EXACT MASS>  (2443) 
156.15141526

>  <MW>  (2443) 
156

>  <ID>  (2443) 
JP008768

>  <CONTRIBUTOR>  (2443) 
University of Tokyo Team, {Faculty of Engineering, University of Tokyo

>  <COMMENT>  (2443) 
SMILES=CCCCCCCCCC=O
cas=112-31-2
InChI=InChI=1S/C10H20O/c1-2-3-4-5-6-7-8-9-10-11/h10H,2-9H2,1H3
computed SMILES=O=CCCCCCCCCC
accession=JP008768
date=2016.01.19 (Created 2008.10.21, modified 2011.05.06)
author=UOEH
license=CC BY-NC-SA
exact mass=156.15142
ionization energy=70 eV
ion type=[M]+*
computed spectral entropy=3.158828305678483
computed normalized entropy=0.8506172086978927
SPLASH=splash10-052f-9000000000-68c403b2d9fe194c1c55
submitter=submitter = University of Tokyo Team (Faculty of Engineering, University of Tokyo)
MoNA Rating=3.75

>  <NUM PEAKS>  (2443) 
41

>  <MASS SPECTRAL PEAKS>  (2443) 
39 34.46
41 99.99
42 29.68
43 80.3
44 43.28
45 13.16
51 1.36
52 1.12
53 7.91
54 13.2
55 56.91
56 33.72
57 71.08
58 5
65 1.57
66 5.74
67 25.91
68 29.6
69 22.19
70 31.85
71 30.08
72 6.15
77 0.9
79 3.1
80 2.07
81 22.93
82 31.59
83 22.75
84 10.16
85 2.83
95 14.88
96 11.84
97 3.87
99 2.44
100 1.22
109 6.35
110 9.06
112 12.37
113 1.86
128 2.52
138 1.23

$$$$

     RDKit          2D

 10  9  0  0  0  0  0  0  0  0999 V2000
   -8.4437    5.6250    0.0000 C   0  0  0  0  0  0  0  0  0  0  0  0
   -7.1447    4.8750    0.0000 C   0  0  0  0  0  0  0  0  0  0  0  0
   -5.8457    5.6250    0.0000 C   0  0  0  0  0  0  0  0  0  0  0  0
   -4.5466    4.8750    0.0000 C   0  0  0  0  0  0  0  0  0  0  0  0
   -3.2476    5.6250    0.0000 C   0  0  0  0  0  0  0  0  0  0  0  0
   -1.9486    4.8750    0.0000 C   0  0  0  0  0  0  0  0  0  0  0  0
   -0.6495    5.6250    0.0000 C   0  0  0  0  0  0  0  0  0  0  0  0
    0.6495    4.8750    0.0000 C   0  0  0  0  0  0  0  0  0  0  0  0
    1.9486    5.6250    0.0000 C   0  0  0  0  0  0  0  0  0  0  0  0
    3.2476    4.8750    0.0000 O   0  0  0  0  0  0  0  0  0  0  0  0
  2  1  1  0
  3  2  1  0
  4  3  1  0
  5  4  1  0
  6  5  1  0
  7  6  1  0
  8  7  1  0
  9  8  1  0
 10  9  2  0
M  END
>  <NAME>  (2444) 
NONANAL

>  <SYNONYMS>  (2444) 


>  <SPECTRUM TYPE>  (2444) 
MS1

>  <INSTRUMENT TYPE>  (2444) 
EI-B

>  <INSTRUMENT>  (2444) 
HP 5970

>  <ION MODE>  (2444) 
P

>  <INCHIKEY>  (2444) 
GYHFUZHODSMOHU-UHFFFAOYSA-N

>  <FORMULA>  (2444) 
C9H18O

>  <EXACT MASS>  (2444) 
142.135765196

>  <MW>  (2444) 
142

>  <ID>  (2444) 
JP008767

>  <CONTRIBUTOR>  (2444) 
University of Tokyo Team, {Faculty of Engineering, University of Tokyo

>  <COMMENT>  (2444) 
SMILES=CCCCCCCCC=O
cas=124-19-6
InChI=InChI=1S/C9H18O/c1-2-3-4-5-6-7-8-9-10/h9H,2-8H2,1H3
computed SMILES=O=CCCCCCCCC
accession=JP008767
date=2016.01.19 (Created 2008.10.21, modified 2011.05.06)
author=UOEH
license=CC BY-NC-SA
exact mass=142.13577
ionization energy=70 eV
ion type=[M]+*
computed spectral entropy=3.047634764679434
computed normalized entropy=0.8504586740073009
SPLASH=splash10-052f-9000000000-858f5f7c138a343dc472
submitter=submitter = University of Tokyo Team (Faculty of Engineering, University of Tokyo)
MoNA Rating=3.75

>  <NUM PEAKS>  (2444) 
36

>  <MASS SPECTRAL PEAKS>  (2444) 
39 36.76
40 8.18
41 99.99
42 27.94
43 67.13
44 49.68
45 14.2
51 2.16
52 1.47
53 7.79
54 12.59
55 49.28
56 50.5
57 81.16
58 5.2
65 1.9
66 3.37
67 18.39
68 25.62
69 24.6
70 30.07
71 11.86
72 5.1
79 2.19
81 18.29
82 22.67
83 6.73
85 2.17
86 1.96
95 14.51
96 13.48
97 1.86
98 19.41
99 3.2
114 4.23
124 2.13

$$$$

     RDKit          2D

  9  8  0  0  0  0  0  0  0  0999 V2000
    2.5981    4.5000    0.0000 C   0  0  0  0  0  0  0  0  0  0  0  0
    1.2990    5.2500    0.0000 C   0  0  0  0  0  0  0  0  0  0  0  0
    0.0000    4.5000    0.0000 C   0  0  0  0  0  0  0  0  0  0  0  0
   -1.2990    5.2500    0.0000 C   0  0  0  0  0  0  0  0  0  0  0  0
   -2.5981    4.5000    0.0000 C   0  0  0  0  0  0  0  0  0  0  0  0
   -3.8971    5.2500    0.0000 C   0  0  0  0  0  0  0  0  0  0  0  0
   -5.1962    4.5000    0.0000 C   0  0  0  0  0  0  0  0  0  0  0  0
   -6.4952    5.2500    0.0000 C   0  0  0  0  0  0  0  0  0  0  0  0
   -7.7942    4.5000    0.0000 O   0  0  0  0  0  0  0  0  0  0  0  0
  2  1  1  0
  3  2  1  0
  4  3  1  0
  5  4  1  0
  6  5  1  0
  7  6  1  0
  8  7  1  0
  9  8  2  0
M  END
>  <NAME>  (2445) 
OCTANAL

>  <SYNONYMS>  (2445) 


>  <SPECTRUM TYPE>  (2445) 
MS1

>  <INSTRUMENT TYPE>  (2445) 
EI-B

>  <INSTRUMENT>  (2445) 
HP 5970

>  <ION MODE>  (2445) 
P

>  <INCHIKEY>  (2445) 
NUJGJRNETVAIRJ-UHFFFAOYSA-N

>  <FORMULA>  (2445) 
C8H16O

>  <EXACT MASS>  (2445) 
128.120115132

>  <MW>  (2445) 
128

>  <ID>  (2445) 
JP008766

>  <CONTRIBUTOR>  (2445) 
University of Tokyo Team, {Faculty of Engineering, University of Tokyo

>  <COMMENT>  (2445) 
SMILES=CCCCCCCC=O
cas=124-13-0
InChI=InChI=1S/C8H16O/c1-2-3-4-5-6-7-8-9/h8H,2-7H2,1H3
computed SMILES=O=CCCCCCCC
accession=JP008766
date=2016.01.19 (Created 2008.10.21, modified 2011.05.06)
author=UOEH
license=CC BY-NC-SA
exact mass=128.12012
ionization energy=70 eV
ion type=[M]+*
computed spectral entropy=2.9292606073519973
computed normalized entropy=0.888775969941514
SPLASH=splash10-052f-9000000000-b395bc62397f2d3ead7d
submitter=submitter = University of Tokyo Team (Faculty of Engineering, University of Tokyo)
MoNA Rating=3.75

>  <NUM PEAKS>  (2445) 
27

>  <MASS SPECTRAL PEAKS>  (2445) 
38 5.09
39 45.81
40 9.4
41 99.99
42 39.53
43 79.38
44 62.3
45 17.13
53 8.31
54 8.79
55 52.5
56 52.64
57 57.26
58 6.37
66 5.44
67 17.42
68 20.56
69 29.92
71 11.3
72 10.96
81 20.32
82 22.93
83 5.23
84 34.77
85 8.79
100 7.77
110 5.44

$$$$

     RDKit          2D

  8  7  0  0  0  0  0  0  0  0999 V2000
   -6.4952    4.5000    0.0000 C   0  0  0  0  0  0  0  0  0  0  0  0
   -5.1962    3.7500    0.0000 C   0  0  0  0  0  0  0  0  0  0  0  0
   -3.8971    4.5000    0.0000 C   0  0  0  0  0  0  0  0  0  0  0  0
   -2.5981    3.7500    0.0000 C   0  0  0  0  0  0  0  0  0  0  0  0
   -1.2990    4.5000    0.0000 C   0  0  0  0  0  0  0  0  0  0  0  0
    0.0000    3.7500    0.0000 C   0  0  0  0  0  0  0  0  0  0  0  0
    1.2990    4.5000    0.0000 C   0  0  0  0  0  0  0  0  0  0  0  0
    2.5981    3.7500    0.0000 O   0  0  0  0  0  0  0  0  0  0  0  0
  2  1  1  0
  3  2  1  0
  4  3  1  0
  5  4  1  0
  6  5  1  0
  7  6  1  0
  8  7  2  0
M  END
>  <NAME>  (2446) 
HEPTANAL

>  <SYNONYMS>  (2446) 


>  <SPECTRUM TYPE>  (2446) 
MS1

>  <INSTRUMENT TYPE>  (2446) 
EI-B

>  <INSTRUMENT>  (2446) 
HP 5970

>  <ION MODE>  (2446) 
P

>  <INCHIKEY>  (2446) 
FXHGMKSSBGDXIY-UHFFFAOYSA-N

>  <FORMULA>  (2446) 
C7H14O

>  <EXACT MASS>  (2446) 
114.104465068

>  <MW>  (2446) 
114

>  <ID>  (2446) 
JP008765

>  <CONTRIBUTOR>  (2446) 
University of Tokyo Team, {Faculty of Engineering, University of Tokyo

>  <COMMENT>  (2446) 
SMILES=CCCCCCC=O
cas=111-71-7
InChI=InChI=1S/C7H14O/c1-2-3-4-5-6-7-8/h7H,2-6H2,1H3
computed SMILES=O=CCCCCCC
author=UOEH
accession=JP008765
date=2016.01.19 (Created 2008.10.21, modified 2011.05.06)
license=CC BY-NC-SA
exact mass=114.10447
ionization energy=70 eV
ion type=[M]+*
computed spectral entropy=2.816514394992286
computed normalized entropy=0.7635148911822626
SPLASH=splash10-0006-9000000000-a85809c1e2c6b7471781
submitter=submitter = University of Tokyo Team (Faculty of Engineering, University of Tokyo)
MoNA Rating=3.75

>  <NUM PEAKS>  (2446) 
40

>  <MASS SPECTRAL PEAKS>  (2446) 
37 1.4
38 4.51
39 51.08
40 9.34
41 99.99
42 55.55
43 87.81
44 90.95
45 18.93
46 0.59
50 2.09
51 3.22
52 1.38
53 6.93
54 8.33
55 57.23
56 7.81
57 50.52
58 5.24
63 0.59
65 1.12
66 1.33
67 9.07
68 14.87
70 71.86
71 21.74
72 9.07
73 0.71
76 0.91
77 0.49
79 0.81
81 19.88
82 1.61
83 0.73
85 3.44
86 12.6
87 0.75
95 1.42
96 9.19
114 0.76

$$$$

     RDKit          2D

  7  6  0  0  0  0  0  0  0  0999 V2000
    1.9486    3.3750    0.0000 C   0  0  0  0  0  0  0  0  0  0  0  0
    0.6495    4.1250    0.0000 C   0  0  0  0  0  0  0  0  0  0  0  0
   -0.6495    3.3750    0.0000 C   0  0  0  0  0  0  0  0  0  0  0  0
   -1.9486    4.1250    0.0000 C   0  0  0  0  0  0  0  0  0  0  0  0
   -3.2476    3.3750    0.0000 C   0  0  0  0  0  0  0  0  0  0  0  0
   -4.5466    4.1250    0.0000 C   0  0  0  0  0  0  0  0  0  0  0  0
   -5.8457    3.3750    0.0000 O   0  0  0  0  0  0  0  0  0  0  0  0
  2  1  1  0
  3  2  1  0
  4  3  1  0
  4  5  2  0
  6  5  1  0
  7  6  2  0
M  END
>  <NAME>  (2447) 
2-HEXENAL

>  <SYNONYMS>  (2447) 


>  <SPECTRUM TYPE>  (2447) 
MS1

>  <INSTRUMENT TYPE>  (2447) 
EI-B

>  <INSTRUMENT>  (2447) 
HP 5970

>  <ION MODE>  (2447) 
P

>  <INCHIKEY>  (2447) 
MBDOYVRWFFCFHM-SNAWJCMRSA-N

>  <FORMULA>  (2447) 
C6H10O

>  <EXACT MASS>  (2447) 
98.07316494

>  <MW>  (2447) 
98

>  <ID>  (2447) 
JP008764

>  <CONTRIBUTOR>  (2447) 
University of Tokyo Team, {Faculty of Engineering, University of Tokyo

>  <COMMENT>  (2447) 
SMILES=CCCC=CC=O
cas=6728-26-3
InChI=InChI=1S/C6H10O/c1-2-3-4-5-6-7/h4-6H,2-3H2,1H3/b5-4+
computed SMILES=O=CC=CCCC
accession=JP008764
date=2016.01.19 (Created 2008.10.21, modified 2011.05.06)
author=UOEH
license=CC BY-NC-SA
exact mass=98.07316
ionization energy=70 eV
ion type=[M]+*
computed spectral entropy=2.777996981675738
computed normalized entropy=0.8249934433847758
SPLASH=splash10-052f-9000000000-f330c324a8f7835bccc7
submitter=submitter = University of Tokyo Team (Faculty of Engineering, University of Tokyo)
MoNA Rating=3.75

>  <NUM PEAKS>  (2447) 
29

>  <MASS SPECTRAL PEAKS>  (2447) 
37 4.5
38 10.31
39 70.85
40 14.29
41 99.99
42 59.06
43 24.47
44 2.69
50 5.91
51 6.08
53 11.79
54 9.65
55 72.81
56 17.93
57 33.75
62 2.37
63 2.39
65 2.45
67 5.23
68 6.1
69 57.17
70 14.41
79 5.35
80 7.76
81 3.15
83 35.92
84 2.18
97 6.36
98 12.81

$$$$

     RDKit          2D

 15 14  0  0  0  0  0  0  0  0999 V2000
   -7.3825    3.7868    0.0000 C   0  0  0  0  0  0  0  0  0  0  0  0
   -3.4853    7.5368    0.0000 C   0  0  0  0  0  0  0  0  0  0  0  0
   -0.8873    1.5368    0.0000 C   0  0  0  0  0  0  0  0  0  0  0  0
    1.1618    2.4877    0.0000 C   0  0  0  0  0  0  0  0  0  0  0  0
    1.7108    4.5368    0.0000 C   0  0  0  0  0  0  0  0  0  0  0  0
   -0.3382    5.0858    0.0000 C   0  0  0  0  0  0  0  0  0  0  0  0
   -6.0834    3.0368    0.0000 C   0  0  0  0  0  0  0  0  0  0  0  0
   -3.4853    6.0368    0.0000 C   0  0  0  0  0  0  0  0  0  0  0  0
   -4.7844    3.7868    0.0000 C   0  0  0  0  0  0  0  0  0  0  0  0
   -3.4853    3.0368    0.0000 C   0  0  0  0  0  0  0  0  0  0  0  0
   -0.8873    3.0368    0.0000 C   0  0  0  0  0  0  0  0  0  0  0  0
   -2.1863    5.2868    0.0000 C   0  0  0  0  0  0  0  0  0  0  0  0
    0.4118    3.7868    0.0000 C   0  0  0  0  0  0  0  0  0  0  0  0
   -2.1863    3.7868    0.0000 N   0  0  0  0  0  0  0  0  0  0  0  0
   -0.8873    6.0368    0.0000 O   0  0  0  0  0  0  0  0  0  0  0  0
  7  1  1  0
  8  2  1  0
  9  7  1  0
  9 10  2  0
 11  3  1  0
 12  8  1  0
 13  4  1  0
 13  5  1  0
 13  6  1  0
 13 11  1  0
 14 10  1  0
 14 11  1  0
 14 12  1  0
 15 12  2  0
M  END
>  <NAME>  (2448) 
N-1-BUTENYL-N-(1,2,2-TRIMETHYLPROPYL)PROPIONAMIDE

>  <SYNONYMS>  (2448) 


>  <SPECTRUM TYPE>  (2448) 
MS1

>  <INSTRUMENT TYPE>  (2448) 
EI-B

>  <INSTRUMENT>  (2448) 
SHIMADZU LKB-9000B

>  <ION MODE>  (2448) 
P

>  <INCHIKEY>  (2448) 
HVLRNHJPLZLMAS-MDZDMXLPSA-N

>  <FORMULA>  (2448) 
C13H25NO

>  <EXACT MASS>  (2448) 
211.19361442

>  <MW>  (2448) 
211

>  <ID>  (2448) 
JP008763

>  <CONTRIBUTOR>  (2448) 
University of Tokyo Team, {Faculty of Engineering, University of Tokyo

>  <COMMENT>  (2448) 
SMILES=CCC=CN(C(=O)CC)C(C)C(C)(C)C
InChI=InChI=1S/C13H25NO/c1-7-9-10-14(12(15)8-2)11(3)13(4,5)6/h9-11H,7-8H2,1-6H3/b10-9+
computed SMILES=O=C(N(C=CCC)C(C)C(C)(C)C)CC
accession=JP008763
date=2016.01.19 (Created 2008.10.21, modified 2011.05.06)
author=TSUNODA T, FACULTY OF PHARMACEUTICAL SCIENCES, TOKUSHIMA BUNRI UNIV.
license=CC BY-NC-SA
exact mass=211.19361
ionization energy=70 eV
ion type=[M]+*
computed spectral entropy=2.914223335548398
computed normalized entropy=0.8842134650558188
SPLASH=splash10-0pbd-9100000000-592765e02bef7bfe5448
submitter=submitter = University of Tokyo Team (Faculty of Engineering, University of Tokyo)
MoNA Rating=3.75

>  <NUM PEAKS>  (2448) 
27

>  <MASS SPECTRAL PEAKS>  (2448) 
27 13.3
29 58.8
39 18
41 65.2
42 24.7
43 47.2
44 8
53 12.5
54 8
55 45.6
56 28.2
57 99.99
68 8.3
69 8.3
70 20.8
71 6.8
82 32.1
85 6.8
96 10.3
98 90.4
99 46
140 20.1
154 94.7
155 14.4
182 6.1
211 7.7
212 10.4

$$$$

     RDKit          2D

 15 14  0  0  0  0  0  0  0  0999 V2000
    2.2733    5.0625    0.0000 C   0  0  0  0  0  0  0  0  0  0  0  0
   -8.1190    5.0625    0.0000 C   0  0  0  0  0  0  0  0  0  0  0  0
   -0.3248    0.5625    0.0000 C   0  0  0  0  0  0  0  0  0  0  0  0
    0.9743    5.8125    0.0000 C   0  0  0  0  0  0  0  0  0  0  0  0
   -6.8200    5.8125    0.0000 C   0  0  0  0  0  0  0  0  0  0  0  0
   -0.3248    5.0625    0.0000 C   0  0  0  0  0  0  0  0  0  0  0  0
   -5.5209    5.0625    0.0000 C   0  0  0  0  0  0  0  0  0  0  0  0
   -1.6238    5.8125    0.0000 C   0  0  0  0  0  0  0  0  0  0  0  0
   -4.2219    5.8125    0.0000 C   0  0  0  0  0  0  0  0  0  0  0  0
   -1.6238    2.8125    0.0000 C   0  0  0  0  0  0  0  0  0  0  0  0
   -1.6238    1.3125    0.0000 C   0  0  0  0  0  0  0  0  0  0  0  0
   -2.9228    3.5625    0.0000 C   0  0  0  0  0  0  0  0  0  0  0  0
   -2.9228    5.0625    0.0000 N   0  0  0  0  0  0  0  0  0  0  0  0
   -2.9228    0.5625    0.0000 O   0  0  0  0  0  0  0  0  0  0  0  0
   -4.2219    2.8125    0.0000 O   0  0  0  0  0  0  0  0  0  0  0  0
  4  1  1  0
  5  2  1  0
  4  6  2  0
  7  5  1  0
  8  6  1  0
  9  7  1  0
 11  3  1  0
 11 10  1  0
 12 10  1  0
 13  8  1  0
 13  9  1  0
 13 12  1  0
 14 11  2  0
 15 12  2  0
M  END
>  <NAME>  (2449) 
N-2-BUTENYL-N-BUTYL-3-OXOBUTANAMIDE

>  <SYNONYMS>  (2449) 


>  <SPECTRUM TYPE>  (2449) 
MS1

>  <INSTRUMENT TYPE>  (2449) 
EI-B

>  <INSTRUMENT>  (2449) 
SHIMADZU LKB-9000B

>  <ION MODE>  (2449) 
P

>  <INCHIKEY>  (2449) 
ONPFXSVFNBDDME-GQCTYLIASA-N

>  <FORMULA>  (2449) 
C12H21NO2

>  <EXACT MASS>  (2449) 
211.157228912

>  <MW>  (2449) 
211

>  <ID>  (2449) 
JP008762

>  <CONTRIBUTOR>  (2449) 
University of Tokyo Team, {Faculty of Engineering, University of Tokyo

>  <COMMENT>  (2449) 
SMILES=CCCCN(CC=CC)C(=O)CC(C)=O
InChI=InChI=1S/C12H21NO2/c1-4-6-8-13(9-7-5-2)12(15)10-11(3)14/h4,6H,5,7-10H2,1-3H3/b6-4+
computed SMILES=O=C(N(CC=CC)CCCC)CC(=O)C
accession=JP008762
date=2016.01.19 (Created 2008.10.21, modified 2011.05.06)
author=TSUNODA T, FACULTY OF PHARMACEUTICAL SCIENCES, TOKUSHIMA BUNRI UNIV.
license=CC BY-NC-SA
exact mass=211.15723
ionization energy=70 eV
ion type=[M]+*
computed spectral entropy=2.8542212854697593
computed normalized entropy=0.8760395071666658
SPLASH=splash10-001l-9100000000-212771459baf10826021
submitter=submitter = University of Tokyo Team (Faculty of Engineering, University of Tokyo)
MoNA Rating=3.75

>  <NUM PEAKS>  (2449) 
26

>  <MASS SPECTRAL PEAKS>  (2449) 
27 13.3
29 20.3
30 47.2
39 13.5
41 20.1
42 15.8
43 41.8
44 7.1
53 6.3
54 5.1
55 62.6
56 10.9
57 10.4
68 7.1
69 13.9
70 18.5
72 9.2
82 6.1
84 99.99
85 12.6
112 8.7
126 36.8
127 12.3
128 6.3
168 7.7
212 5.1

$$$$

     RDKit          2D

 13 12  0  0  0  0  0  0  0  0999 V2000
    2.5981    4.5000    0.0000 C   0  0  0  0  0  0  0  0  0  0  0  0
   -7.7942    4.5000    0.0000 C   0  0  0  0  0  0  0  0  0  0  0  0
   -1.2990    2.2500    0.0000 C   0  0  0  0  0  0  0  0  0  0  0  0
    1.2990    5.2500    0.0000 C   0  0  0  0  0  0  0  0  0  0  0  0
   -6.4952    5.2500    0.0000 C   0  0  0  0  0  0  0  0  0  0  0  0
    0.0000    4.5000    0.0000 C   0  0  0  0  0  0  0  0  0  0  0  0
   -5.1962    4.5000    0.0000 C   0  0  0  0  0  0  0  0  0  0  0  0
   -1.2990    5.2500    0.0000 C   0  0  0  0  0  0  0  0  0  0  0  0
   -3.8971    5.2500    0.0000 C   0  0  0  0  0  0  0  0  0  0  0  0
   -2.5981    3.0000    0.0000 C   0  0  0  0  0  0  0  0  0  0  0  0
   -2.5981    4.5000    0.0000 N   0  0  0  0  0  0  0  0  0  0  0  0
   -3.8971    2.2500    0.0000 O   0  0  0  0  0  0  0  0  0  0  0  0
    0.0000    3.0000    0.0000 H   0  0  0  0  0  0  0  0  0  0  0  0
  4  1  1  0
  5  2  1  0
  4  6  2  0
  7  5  1  0
  8  6  1  0
  9  7  1  0
 10  3  1  0
 11  8  1  0
 11  9  1  0
 11 10  1  0
 12 10  2  0
 13  6  1  0
M  ISO  1  13   2
M  END
>  <NAME>  (2450) 
N-2-BUTENYL-N-BUTYLACETOAMIDE (2-D)

>  <SYNONYMS>  (2450) 


>  <SPECTRUM TYPE>  (2450) 
MS1

>  <INSTRUMENT TYPE>  (2450) 
EI-B

>  <INSTRUMENT>  (2450) 
SHIMADZU LKB-9000B

>  <ION MODE>  (2450) 
P

>  <INCHIKEY>  (2450) 
WJCKRGOUNCVHKN-DRXCQHCBSA-N

>  <FORMULA>  (2450) 
C10H19NO

>  <EXACT MASS>  (2450) 
170.152940974

>  <MW>  (2450) 
170

>  <ID>  (2450) 
JP008761

>  <CONTRIBUTOR>  (2450) 
University of Tokyo Team, {Faculty of Engineering, University of Tokyo

>  <COMMENT>  (2450) 
SMILES=CCCCN(CC([2H])=CC)C(C)=O
InChI=InChI=1S/C10H19NO/c1-4-6-8-11(10(3)12)9-7-5-2/h4,6H,5,7-9H2,1-3H3/b6-4+/i6D
computed SMILES=[H]C(=CC)CN(C(=O)C)CCCC
accession=JP008761
date=2016.01.19 (Created 2008.10.21, modified 2011.05.06)
author=TSUNODA T, FACULTY OF PHARMACEUTICAL SCIENCES, TOKUSHIMA BUNRI UNIV.
license=CC BY-NC-SA
exact mass=169.14666
ionization energy=70 eV
ion type=[M]+*
computed spectral entropy=2.5839716986816526
computed normalized entropy=0.8487280851225545
SPLASH=splash10-00di-4900000000-2ecf55e4adc3714ebc67
submitter=submitter = University of Tokyo Team (Faculty of Engineering, University of Tokyo)
MoNA Rating=3.75

>  <NUM PEAKS>  (2450) 
21

>  <MASS SPECTRAL PEAKS>  (2450) 
27 7.5
29 7.5
30 6.9
31 6.5
39 6.7
41 6.5
43 19.7
44 11.5
55 10
70 14.4
84 16.6
112 5.9
126 14.3
127 9.6
128 5.4
140 12.4
141 8.2
169 32
170 99.99
171 55.2
172 11.1

$$$$

     RDKit          2D

 17 17  0  0  1  0  0  0  0  0999 V2000
   -7.4692    4.2571    0.0000 C   0  0  0  0  0  0  0  0  0  0  0  0
   -4.8712    5.7571    0.0000 C   0  0  0  0  0  0  0  0  0  0  0  0
   -3.5721    2.0071    0.0000 C   0  0  0  0  0  0  0  0  0  0  0  0
    0.3250    5.7571    0.0000 C   0  0  0  0  0  0  0  0  0  0  0  0
   -6.1702    3.5071    0.0000 C   0  0  0  0  0  0  0  0  0  0  0  0
    4.2221    2.0071    0.0000 C   0  0  0  0  0  0  0  0  0  0  0  0
    4.2226    3.5079    0.0000 C   0  0  0  0  0  0  0  0  0  0  0  0
    2.9226    1.2563    0.0000 C   0  0  0  0  0  0  0  0  0  0  0  0
    2.9236    4.2579    0.0000 C   0  0  0  0  0  0  0  0  0  0  0  0
    1.6236    2.0063    0.0000 C   0  0  0  0  0  0  0  0  0  0  0  0
   -4.8712    4.2571    0.0000 C   0  0  0  0  0  0  0  0  0  0  0  0
   -3.5721    3.5071    0.0000 C   0  0  0  0  0  0  0  0  0  0  0  0
    0.3250    4.2571    0.0000 C   0  0  0  0  0  0  0  0  0  0  0  0
    1.6240    3.5071    0.0000 C   0  0  0  0  0  0  0  0  0  0  0  0
   -2.2731    4.2571    0.0000 C   0  0  0  0  0  0  0  0  0  0  0  0
   -0.9740    3.5071    0.0000 N   0  0  0  0  0  0  0  0  0  0  0  0
   -2.2731    5.7571    0.0000 O   0  0  0  0  0  0  0  0  0  0  0  0
  5  1  2  0
  7  6  2  0
  8  6  1  0
  9  7  1  0
 10  8  2  0
 11  2  1  6
 11  5  1  0
 12  3  1  1
 12 11  1  0
 13  4  1  6
 14  9  2  0
 14 10  1  0
 14 13  1  0
 15 12  1  0
 16 13  1  0
 16 15  2  3
 17 15  1  0
M  END
>  <NAME>  (2451) 
N-1'(S)-PHENYLETHYL-2(R),3(S)-DIMETHYL-4-PENTENAMIDE

>  <SYNONYMS>  (2451) 


>  <SPECTRUM TYPE>  (2451) 
MS1

>  <INSTRUMENT TYPE>  (2451) 
EI-B

>  <INSTRUMENT>  (2451) 
SHIMADZU LKB-9000B

>  <ION MODE>  (2451) 
P

>  <INCHIKEY>  (2451) 
WBTKZEUGXDCOIT-RWMBFGLXSA-N

>  <FORMULA>  (2451) 
C15H21NO

>  <EXACT MASS>  (2451) 
231.162314292

>  <MW>  (2451) 
231

>  <ID>  (2451) 
JP008760

>  <CONTRIBUTOR>  (2451) 
University of Tokyo Team, {Faculty of Engineering, University of Tokyo

>  <COMMENT>  (2451) 
SMILES=C=CC([H])(C)C([H])(C)C(=O)NC([H])(C)c(c1)cccc1
InChI=InChI=1S/C15H21NO/c1-5-11(2)12(3)15(17)16-13(4)14-9-7-6-8-10-14/h5-13H,1H2,2-4H3,(H,16,17)/t11-,12-,13+/m0/s1
computed SMILES=OC(=NC(C=1C=CC=CC1)C)C(C)C(C=C)C
accession=JP008760
date=2016.01.19 (Created 2008.10.21, modified 2011.05.06)
author=TSUNODA T, FACULTY OF PHARMACEUTICAL SCIENCES, TOKUSHIMA BUNRI UNIV.
license=CC BY-NC-SA
exact mass=231.16231
ionization energy=70 eV
ion type=[M]+*
computed spectral entropy=2.7631543164931043
computed normalized entropy=0.8812500123443191
SPLASH=splash10-0a4i-5910000000-64afed50b7de1076fc75
submitter=submitter = University of Tokyo Team (Faculty of Engineering, University of Tokyo)
MoNA Rating=3.75

>  <NUM PEAKS>  (2451) 
23

>  <MASS SPECTRAL PEAKS>  (2451) 
27 5.8
29 6.4
39 5.6
41 13.9
42 7.3
55 35.6
73 8.9
77 17.9
79 13.7
83 12.7
84 5.1
91 15.4
103 8.2
104 15.8
105 99.99
106 26.3
112 9.4
120 18
133 5.6
176 30.8
177 9.3
216 14.1
231 13.7

$$$$

     RDKit          2D

 21 21  0  0  0  0  0  0  0  0999 V2000
    5.5216    5.0079    0.0000 C   0  0  0  0  0  0  0  0  0  0  0  0
   -6.1697    2.7579    0.0000 C   0  0  0  0  0  0  0  0  0  0  0  0
    1.2897    6.1570    0.0000 C   0  0  0  0  0  0  0  0  0  0  0  0
   -0.6387    6.1570    0.0000 C   0  0  0  0  0  0  0  0  0  0  0  0
    4.2226    4.2579    0.0000 C   0  0  0  0  0  0  0  0  0  0  0  0
  -10.0668    6.5079    0.0000 C   0  0  0  0  0  0  0  0  0  0  0  0
  -10.0673    5.0071    0.0000 C   0  0  0  0  0  0  0  0  0  0  0  0
   -8.7673    7.2587    0.0000 C   0  0  0  0  0  0  0  0  0  0  0  0
   -8.7683    4.2571    0.0000 C   0  0  0  0  0  0  0  0  0  0  0  0
   -7.4683    6.5087    0.0000 C   0  0  0  0  0  0  0  0  0  0  0  0
   -0.9736    4.2579    0.0000 C   0  0  0  0  0  0  0  0  0  0  0  0
   -6.1697    4.2579    0.0000 C   0  0  0  0  0  0  0  0  0  0  0  0
   -7.4687    5.0079    0.0000 C   0  0  0  0  0  0  0  0  0  0  0  0
    1.6245    4.2579    0.0000 C   0  0  0  0  0  0  0  0  0  0  0  0
   -3.5716    4.2579    0.0000 C   0  0  0  0  0  0  0  0  0  0  0  0
    0.3255    5.0079    0.0000 C   0  0  0  0  0  0  0  0  0  0  0  0
   -4.8707    5.0079    0.0000 N   0  0  0  0  0  0  0  0  0  0  0  0
    1.6245    2.7579    0.0000 O   0  0  0  0  0  0  0  0  0  0  0  0
   -3.5716    2.7579    0.0000 O   0  0  0  0  0  0  0  0  0  0  0  0
    2.9236    5.0079    0.0000 O   0  0  0  0  0  0  0  0  0  0  0  0
   -2.2726    5.0079    0.0000 O   0  0  0  0  0  0  0  0  0  0  0  0
  5  1  1  0
  7  6  2  0
  8  6  1  0
  9  7  1  0
 10  8  2  0
 12  2  1  0
 13  9  2  0
 13 10  1  0
 13 12  1  0
 16  3  1  0
 16  4  1  0
 16 11  1  0
 16 14  1  0
 17 12  1  0
 17 15  2  3
 18 14  2  0
 19 15  1  0
 20  5  1  0
 20 14  1  0
 21 11  1  0
 21 15  1  0
M  END
>  <NAME>  (2452) 
ETHYL 2,2-DIMETHYL-3-(1-PHENYLETHYLAMINOCARBONYLOXY)PROPIONATE

>  <SYNONYMS>  (2452) 


>  <SPECTRUM TYPE>  (2452) 
MS1

>  <INSTRUMENT TYPE>  (2452) 
EI-B

>  <INSTRUMENT>  (2452) 
SHIMADZU LKB-9000B

>  <ION MODE>  (2452) 
P

>  <INCHIKEY>  (2452) 
ZLDKFUYLNNFVFL-UHFFFAOYSA-N

>  <FORMULA>  (2452) 
C16H23NO4

>  <EXACT MASS>  (2452) 
293.162708216

>  <MW>  (2452) 
293

>  <ID>  (2452) 
JP008759

>  <CONTRIBUTOR>  (2452) 
University of Tokyo Team, {Faculty of Engineering, University of Tokyo

>  <COMMENT>  (2452) 
SMILES=CCOC(=O)C(C)(C)COC(=O)NC(C)c(c1)cccc1
InChI=InChI=1S/C16H23NO4/c1-5-20-14(18)16(3,4)11-21-15(19)17-12(2)13-9-7-6-8-10-13/h6-10,12H,5,11H2,1-4H3,(H,17,19)
computed SMILES=O=C(OCC)C(C)(C)COC(O)=NC(C=1C=CC=CC1)C
accession=JP008759
date=2016.01.19 (Created 2008.10.21, modified 2011.05.06)
author=TSUNODA T, FACULTY OF PHARMACEUTICAL SCIENCES, TOKUSHIMA BUNRI UNIV.
license=CC BY-NC-SA
exact mass=293.16271
ionization energy=70 eV
ion type=[M]+*
computed spectral entropy=3.210921269526054
computed normalized entropy=0.8892257722842394
SPLASH=splash10-0ae9-6900000000-61b8f5639ee229bf9168
submitter=submitter = University of Tokyo Team (Faculty of Engineering, University of Tokyo)
MoNA Rating=3.75

>  <NUM PEAKS>  (2452) 
37

>  <MASS SPECTRAL PEAKS>  (2452) 
27 15.1
29 64.9
39 10.6
41 24.7
42 18.3
43 15.6
44 5.4
45 8.5
51 8.3
55 22.8
56 21.4
57 9.9
59 8.1
73 35.4
77 25.3
78 10
79 17.8
88 5.8
101 28
103 9.9
104 22.9
105 99.99
106 38.3
116 9.9
119 7.5
120 48
121 5.3
129 11.5
132 90
133 7.7
147 26.4
150 7.5
164 26.6
248 6.4
278 6.2
293 4.1
294 1.1

$$$$

     RDKit          2D

 10 10  0  0  0  0  0  0  0  0999 V2000
   -3.8981   -3.0002    0.0000 C   0  0  0  0  0  0  0  0  0  0  0  0
   -1.2992   -3.0000    0.0000 C   0  0  0  0  0  0  0  0  0  0  0  0
   -2.5992   -0.7500    0.0000 C   0  0  0  0  0  0  0  0  0  0  0  0
    0.0008   -2.2500    0.0000 C   0  0  0  0  0  0  0  0  0  0  0  0
   -1.2992    0.0000    0.0000 C   0  0  0  0  0  0  0  0  0  0  0  0
   -2.5992   -2.2500    0.0000 C   0  0  0  0  0  0  0  0  0  0  0  0
    0.0008   -0.7500    0.0000 C   0  0  0  0  0  0  0  0  0  0  0  0
    2.5989   -0.7496    0.0000 N   0  0  0  0  0  0  0  0  0  0  0  0
    1.2995    1.5002    0.0000 O   0  0  0  0  0  0  0  0  0  0  0  0
    1.2998    0.0002    0.0000 S   0  0  0  0  0  0  0  0  0  0  0  0
  4  2  2  0
  5  3  1  0
  6  1  1  0
  6  2  1  0
  6  3  2  0
  7  4  1  0
  7  5  2  0
 10  7  1  0
 10  8  1  0
 10  9  2  0
M  END
>  <NAME>  (2453) 
PARA-TOLENESULFINAMIDE

>  <SYNONYMS>  (2453) 


>  <SPECTRUM TYPE>  (2453) 
MS1

>  <INSTRUMENT TYPE>  (2453) 
EI-B

>  <INSTRUMENT>  (2453) 
SHIMADZU LKB-9000B

>  <ION MODE>  (2453) 
P

>  <INCHIKEY>  (2453) 
YNJDSRPIGAUCEE-UHFFFAOYSA-N

>  <FORMULA>  (2453) 
C7H9NOS

>  <EXACT MASS>  (2453) 
155.040484908

>  <MW>  (2453) 
155

>  <ID>  (2453) 
JP008758

>  <CONTRIBUTOR>  (2453) 
University of Tokyo Team, {Faculty of Engineering, University of Tokyo

>  <COMMENT>  (2453) 
SMILES=Cc(c1)ccc(c1)S(N)=O
InChI=InChI=1S/C7H9NOS/c1-6-2-4-7(5-3-6)10(8)9/h2-5H,8H2,1H3
computed SMILES=O=S(N)C1=CC=C(C=C1)C
accession=JP008758
date=2016.01.19 (Created 2008.10.21, modified 2011.05.06)
author=TSUNODA T, FACULTY OF PHARMACEUTICAL SCIENCES, TOKUSHIMA BUNRI UNIV.
license=CC BY-NC-SA
exact mass=155.04048
ionization energy=70 eV
ion type=[M]+*
computed spectral entropy=2.866413625329707
computed normalized entropy=0.8697073738375805
SPLASH=splash10-052r-9800000000-4f3bfa59d0b1bb73e974
submitter=submitter = University of Tokyo Team (Faculty of Engineering, University of Tokyo)
MoNA Rating=3.75

>  <NUM PEAKS>  (2453) 
27

>  <MASS SPECTRAL PEAKS>  (2453) 
39 24.6
41 5.7
45 7.5
48 5.3
50 8.5
51 14.2
62 7.3
63 21.7
64 14.6
65 39.9
67 11
77 31.5
78 10.7
79 12.3
89 14.9
90 6.8
91 58.4
92 7.1
106 14.6
107 65.7
108 52.9
109 10.9
111 11.9
139 99.99
140 9.9
141 5
155 1.69

$$$$

     RDKit          2D

 22 22  0  0  0  0  0  0  0  0999 V2000
   -3.8971    7.8200    0.0000 C   0  0  0  0  0  0  0  0  0  0  0  0
   -7.7942    2.5700    0.0000 C   0  0  0  0  0  0  0  0  0  0  0  0
   -2.9329    4.4691    0.0000 C   0  0  0  0  0  0  0  0  0  0  0  0
   -4.8613    4.4691    0.0000 C   0  0  0  0  0  0  0  0  0  0  0  0
   -2.5981    7.0700    0.0000 C   0  0  0  0  0  0  0  0  0  0  0  0
   -2.5981    5.5700    0.0000 C   0  0  0  0  0  0  0  0  0  0  0  0
    0.0000   -1.9300    0.0000 C   0  0  0  0  0  0  0  0  0  0  0  0
    1.3000   -1.1800    0.0000 C   0  0  0  0  0  0  0  0  0  0  0  0
   -1.3000   -1.1800    0.0000 C   0  0  0  0  0  0  0  0  0  0  0  0
    1.3000    0.3200    0.0000 C   0  0  0  0  0  0  0  0  0  0  0  0
   -1.3000    0.3200    0.0000 C   0  0  0  0  0  0  0  0  0  0  0  0
   -1.2990    4.8200    0.0000 C   0  0  0  0  0  0  0  0  0  0  0  0
   -6.4952    3.3200    0.0000 C   0  0  0  0  0  0  0  0  0  0  0  0
    0.0000    1.0700    0.0000 C   0  0  0  0  0  0  0  0  0  0  0  0
    0.0000    2.5700    0.0000 C   0  0  0  0  0  0  0  0  0  0  0  0
   -2.5981    2.5700    0.0000 C   0  0  0  0  0  0  0  0  0  0  0  0
   -3.8971    3.3200    0.0000 C   0  0  0  0  0  0  0  0  0  0  0  0
   -1.2990    3.3200    0.0000 N   0  0  0  0  0  0  0  0  0  0  0  0
   -6.4952    4.8200    0.0000 O   0  0  0  0  0  0  0  0  0  0  0  0
    1.2990    3.3200    0.0000 O   0  0  0  0  0  0  0  0  0  0  0  0
   -2.5981    1.0700    0.0000 O   0  0  0  0  0  0  0  0  0  0  0  0
   -5.1962    2.5700    0.0000 O   0  0  0  0  0  0  0  0  0  0  0  0
  5  1  1  0
  6  5  1  0
  8  7  2  0
  9  7  1  0
 10  8  1  0
 11  9  2  0
 12  6  1  0
 13  2  1  0
 14 10  2  0
 14 11  1  0
 15 14  1  0
 17  3  1  0
 17  4  1  0
 17 16  1  0
 18 12  1  0
 18 15  1  0
 18 16  1  0
 19 13  2  0
 20 15  2  0
 21 16  2  0
 22 13  1  0
 22 17  1  0
M  END
>  <NAME>  (2454) 
N-(2-ACETOXY-2-METHYLPROPIONYL)-N-BUTYLBENZAMIDE

>  <SYNONYMS>  (2454) 


>  <SPECTRUM TYPE>  (2454) 
MS1

>  <INSTRUMENT TYPE>  (2454) 
EI-B

>  <INSTRUMENT>  (2454) 
SHIMADZU LKB-9000B

>  <ION MODE>  (2454) 
P

>  <INCHIKEY>  (2454) 
QSFHHPHMJZXYCC-UHFFFAOYSA-N

>  <FORMULA>  (2454) 
C17H23NO4

>  <EXACT MASS>  (2454) 
305.162708216

>  <MW>  (2454) 
305

>  <ID>  (2454) 
JP008757

>  <CONTRIBUTOR>  (2454) 
University of Tokyo Team, {Faculty of Engineering, University of Tokyo

>  <COMMENT>  (2454) 
SMILES=CCCCN(C(=O)c(c1)cccc1)C(=O)C(C)(C)OC(C)=O
InChI=InChI=1S/C17H23NO4/c1-5-6-12-18(15(20)14-10-8-7-9-11-14)16(21)17(3,4)22-13(2)19/h7-11H,5-6,12H2,1-4H3
computed SMILES=O=C(OC(C(=O)N(C(=O)C=1C=CC=CC1)CCCC)(C)C)C
accession=JP008757
date=2016.01.19 (Created 2008.10.21, modified 2011.05.06)
author=TSUNODA T, FACULTY OF PHARMACEUTICAL SCIENCES, TOKUSHIMA BUNRI UNIV.
license=CC BY-NC-SA
exact mass=305.16271
ionization energy=70 eV
ion type=[M]+*
computed spectral entropy=2.078778954355661
computed normalized entropy=0.767629401223645
SPLASH=splash10-0a4i-5910000000-2909a1519ff79d85cb4d
submitter=submitter = University of Tokyo Team (Faculty of Engineering, University of Tokyo)
MoNA Rating=3.75

>  <NUM PEAKS>  (2454) 
15

>  <MASS SPECTRAL PEAKS>  (2454) 
41 5.1
43 54.9
51 5.3
59 13.1
77 26.2
101 16.7
105 99.99
106 7
129 5.8
135 10.9
160 7
177 10.5
205 20.1
305 0.3
306 0.6

$$$$

     RDKit          2D

 13 12  0  0  0  0  0  0  0  0999 V2000
   -8.4437    5.6250    0.0000 C   0  0  0  0  0  0  0  0  0  0  0  0
    3.2476    4.8750    0.0000 C   0  0  0  0  0  0  0  0  0  0  0  0
    0.6495    3.3750    0.0000 C   0  0  0  0  0  0  0  0  0  0  0  0
   -7.1447    4.8750    0.0000 C   0  0  0  0  0  0  0  0  0  0  0  0
    1.9486    5.6250    0.0000 C   0  0  0  0  0  0  0  0  0  0  0  0
   -5.8457    5.6250    0.0000 C   0  0  0  0  0  0  0  0  0  0  0  0
   -4.5466    4.8750    0.0000 C   0  0  0  0  0  0  0  0  0  0  0  0
    0.6495    4.8750    0.0000 C   0  0  0  0  0  0  0  0  0  0  0  0
   -0.6495    5.6250    0.0000 C   0  0  0  0  0  0  0  0  0  0  0  0
   -1.9486    4.8750    0.0000 C   0  0  0  0  0  0  0  0  0  0  0  0
   -3.2476    5.6250    0.0000 N   0  0  0  0  0  0  0  0  0  0  0  0
   -0.6495    7.1250    0.0000 O   0  0  0  0  0  0  0  0  0  0  0  0
   -1.9486    3.3750    0.0000 O   0  0  0  0  0  0  0  0  0  0  0  0
  4  1  1  0
  5  2  2  0
  6  4  1  0
  7  6  1  0
  8  3  1  0
  8  5  1  0
  9  8  1  0
 10  9  1  0
 11  7  1  0
 11 10  2  3
 12  9  1  0
 13 10  1  0
M  END
>  <NAME>  (2455) 
N-BUTYL-2-HYDROXY-3-METHYL-4-PENTENAMIDE

>  <SYNONYMS>  (2455) 


>  <SPECTRUM TYPE>  (2455) 
MS1

>  <INSTRUMENT TYPE>  (2455) 
EI-B

>  <INSTRUMENT>  (2455) 
SHIMADZU LKB-9000B

>  <ION MODE>  (2455) 
P

>  <INCHIKEY>  (2455) 
PYKIEYOLXBNQDR-UHFFFAOYSA-N

>  <FORMULA>  (2455) 
C10H19NO2

>  <EXACT MASS>  (2455) 
185.141578848

>  <MW>  (2455) 
185

>  <ID>  (2455) 
JP008756

>  <CONTRIBUTOR>  (2455) 
University of Tokyo Team, {Faculty of Engineering, University of Tokyo

>  <COMMENT>  (2455) 
SMILES=CCCCNC(=O)C(O)C(C)C=C
InChI=InChI=1S/C10H19NO2/c1-4-6-7-11-10(13)9(12)8(3)5-2/h5,8-9,12H,2,4,6-7H2,1,3H3,(H,11,13)
computed SMILES=OC(=NCCCC)C(O)C(C=C)C
accession=JP008756
date=2016.01.19 (Created 2008.10.21, modified 2011.05.06)
author=TSUNODA T, FACULTY OF PHARMACEUTICAL SCIENCES, TOKUSHIMA BUNRI UNIV.
license=CC BY-NC-SA
exact mass=185.14158
ionization energy=70 eV
ion type=[M]+*
computed spectral entropy=3.0246617216248324
computed normalized entropy=0.8650522466927686
SPLASH=splash10-053u-9200000000-93585647421fd5449873
submitter=submitter = University of Tokyo Team (Faculty of Engineering, University of Tokyo)
MoNA Rating=3.75

>  <NUM PEAKS>  (2455) 
33

>  <MASS SPECTRAL PEAKS>  (2455) 
27 13.4
29 37.3
30 44.3
39 18.7
41 51.9
42 6.9
43 55.9
44 8.2
46 10.4
53 7.7
55 25.8
56 12
57 99.99
58 11.4
59 15.2
67 7.2
68 6.7
69 5.5
71 6.4
72 8.2
73 5
74 24.7
85 5
95 14.8
96 5.9
100 15.7
102 16
110 5
130 92.6
131 20.2
167 8.8
185 3.2
186 4.1

$$$$

     RDKit          2D

 19 19  0  0  0  0  0  0  0  0999 V2000
   10.0236   -1.7085    0.0000 C   0  0  0  0  0  0  0  0  0  0  0  0
   11.3223    0.5417    0.0000 C   0  0  0  0  0  0  0  0  0  0  0  0
    8.7245   -0.9588    0.0000 C   0  0  0  0  0  0  0  0  0  0  0  0
   10.0231    1.2915    0.0000 C   0  0  0  0  0  0  0  0  0  0  0  0
    7.4256   -1.7090    0.0000 C   0  0  0  0  0  0  0  0  0  0  0  0
    8.7242    0.5412    0.0000 C   0  0  0  0  0  0  0  0  0  0  0  0
   -0.3700   -1.7100    0.0000 C   0  0  0  0  0  0  0  0  0  0  0  0
   -1.6700   -0.9600    0.0000 C   0  0  0  0  0  0  0  0  0  0  0  0
    0.9300   -0.9600    0.0000 C   0  0  0  0  0  0  0  0  0  0  0  0
    6.1264   -0.9592    0.0000 C   0  0  0  0  0  0  0  0  0  0  0  0
    7.4251    1.2910    0.0000 C   0  0  0  0  0  0  0  0  0  0  0  0
   -1.6700    0.5400    0.0000 C   0  0  0  0  0  0  0  0  0  0  0  0
    3.5281    0.5404    0.0000 C   0  0  0  0  0  0  0  0  0  0  0  0
    4.8270    1.2906    0.0000 C   0  0  0  0  0  0  0  0  0  0  0  0
    0.9300    0.5400    0.0000 C   0  0  0  0  0  0  0  0  0  0  0  0
    6.1262    0.5408    0.0000 N   0  0  0  0  0  0  0  0  0  0  0  0
    4.8268    2.7906    0.0000 O   0  0  0  0  0  0  0  0  0  0  0  0
   -0.3700    1.2900    0.0000 O   0  0  0  0  0  0  0  0  0  0  0  0
    2.2289    1.2902    0.0000 O   0  0  0  0  0  0  0  0  0  0  0  0
  3  1  1  0
  4  2  1  0
  3  5  2  0
  6  4  1  0
  8  7  1  0
  9  7  1  0
 10  5  1  0
 11  6  1  0
 12  8  1  0
 14 13  1  0
 15  9  1  0
 16 10  1  0
 16 11  1  0
 16 14  1  0
 17 14  2  0
 18 12  1  0
 18 15  1  0
 19 13  1  0
 19 15  1  0
M  END
>  <NAME>  (2456) 
N-2-BUTENYL-N-BUTYL-2-OXANYLOXYACETAMIDE

>  <SYNONYMS>  (2456) 


>  <SPECTRUM TYPE>  (2456) 
MS1

>  <INSTRUMENT TYPE>  (2456) 
EI-B

>  <INSTRUMENT>  (2456) 
SHIMADZU LKB-9000B

>  <ION MODE>  (2456) 
P

>  <INCHIKEY>  (2456) 
AWBUGUYQGYOYJN-HWKANZROSA-N

>  <FORMULA>  (2456) 
C15H27NO3

>  <EXACT MASS>  (2456) 
269.199093724

>  <MW>  (2456) 
269

>  <ID>  (2456) 
JP008755

>  <CONTRIBUTOR>  (2456) 
University of Tokyo Team, {Faculty of Engineering, University of Tokyo

>  <COMMENT>  (2456) 
SMILES=CCCCN(CC=CC)C(=O)COC(C1)OCCC1
InChI=InChI=1S/C15H27NO3/c1-3-5-10-16(11-6-4-2)14(17)13-19-15-9-7-8-12-18-15/h3,5,15H,4,6-13H2,1-2H3/b5-3+
computed SMILES=O=C(N(CC=CC)CCCC)COC1OCCCC1
accession=JP008755
date=2016.01.19 (Created 2008.10.21, modified 2011.05.06)
author=TSUNODA T, FACULTY OF PHARMACEUTICAL SCIENCES, TOKUSHIMA BUNRI UNIV.
license=CC BY-NC-SA
exact mass=269.19909
ionization energy=70 eV
ion type=[M]+*
computed spectral entropy=2.733808573281479
computed normalized entropy=0.8602146845895845
SPLASH=splash10-000i-6900000000-4c0d81876ba4e1d0ada1
submitter=submitter = University of Tokyo Team (Faculty of Engineering, University of Tokyo)
MoNA Rating=3.75

>  <NUM PEAKS>  (2456) 
24

>  <MASS SPECTRAL PEAKS>  (2456) 
41 10.2
55 45.2
56 6.8
57 14.2
67 9.5
70 6.8
84 16
85 98.8
86 10.8
112 7.9
126 23.6
127 12.7
128 5.4
140 26.5
142 5.4
154 30.4
156 10.2
168 5
169 10.5
184 10.5
185 19.4
186 99.99
187 19.9
271 18.9

$$$$

     RDKit          2D

 20 20  0  0  0  0  0  0  0  0999 V2000
   -3.8971    7.8200    0.0000 C   0  0  0  0  0  0  0  0  0  0  0  0
   -7.7942    2.5700    0.0000 C   0  0  0  0  0  0  0  0  0  0  0  0
   -2.5981    7.0700    0.0000 C   0  0  0  0  0  0  0  0  0  0  0  0
   -2.5981    5.5700    0.0000 C   0  0  0  0  0  0  0  0  0  0  0  0
    0.0000   -1.9300    0.0000 C   0  0  0  0  0  0  0  0  0  0  0  0
    1.3000   -1.1800    0.0000 C   0  0  0  0  0  0  0  0  0  0  0  0
   -1.3000   -1.1800    0.0000 C   0  0  0  0  0  0  0  0  0  0  0  0
    1.3000    0.3200    0.0000 C   0  0  0  0  0  0  0  0  0  0  0  0
   -1.3000    0.3200    0.0000 C   0  0  0  0  0  0  0  0  0  0  0  0
   -1.2990    4.8200    0.0000 C   0  0  0  0  0  0  0  0  0  0  0  0
   -3.8971    3.3200    0.0000 C   0  0  0  0  0  0  0  0  0  0  0  0
   -6.4952    3.3200    0.0000 C   0  0  0  0  0  0  0  0  0  0  0  0
    0.0000    1.0700    0.0000 C   0  0  0  0  0  0  0  0  0  0  0  0
   -2.5981    2.5700    0.0000 C   0  0  0  0  0  0  0  0  0  0  0  0
    0.0000    2.5700    0.0000 C   0  0  0  0  0  0  0  0  0  0  0  0
   -1.2990    3.3200    0.0000 N   0  0  0  0  0  0  0  0  0  0  0  0
   -6.4952    4.8200    0.0000 O   0  0  0  0  0  0  0  0  0  0  0  0
   -2.5981    1.0700    0.0000 O   0  0  0  0  0  0  0  0  0  0  0  0
    1.2990    3.3200    0.0000 O   0  0  0  0  0  0  0  0  0  0  0  0
   -5.1962    2.5700    0.0000 O   0  0  0  0  0  0  0  0  0  0  0  0
  3  1  1  0
  4  3  1  0
  6  5  2  0
  7  5  1  0
  8  6  1  0
  9  7  2  0
 10  4  1  0
 12  2  1  0
 13  8  2  0
 13  9  1  0
 14 11  1  0
 15 13  1  0
 16 10  1  0
 16 14  1  0
 16 15  1  0
 17 12  2  0
 18 14  2  0
 19 15  2  0
 20 11  1  0
 20 12  1  0
M  END
>  <NAME>  (2457) 
N-(ACETOXYACETYL)-N-BUTYLBENZAMIDE

>  <SYNONYMS>  (2457) 


>  <SPECTRUM TYPE>  (2457) 
MS1

>  <INSTRUMENT TYPE>  (2457) 
EI-B

>  <INSTRUMENT>  (2457) 
SHIMADZU LKB-9000B

>  <ION MODE>  (2457) 
P

>  <INCHIKEY>  (2457) 
SYAZCNUTZALLGP-UHFFFAOYSA-N

>  <FORMULA>  (2457) 
C15H19NO4

>  <EXACT MASS>  (2457) 
277.131408088

>  <MW>  (2457) 
277

>  <ID>  (2457) 
JP008754

>  <CONTRIBUTOR>  (2457) 
University of Tokyo Team, {Faculty of Engineering, University of Tokyo

>  <COMMENT>  (2457) 
SMILES=CCCCN(C(=O)COC(C)=O)C(=O)c(c1)cccc1
InChI=InChI=1S/C15H19NO4/c1-3-4-10-16(14(18)11-20-12(2)17)15(19)13-8-6-5-7-9-13/h5-9H,3-4,10-11H2,1-2H3
computed SMILES=O=C(OCC(=O)N(C(=O)C=1C=CC=CC1)CCCC)C
accession=JP008754
date=2016.01.19 (Created 2008.10.21, modified 2011.05.06)
author=TSUNODA T, FACULTY OF PHARMACEUTICAL SCIENCES, TOKUSHIMA BUNRI UNIV.
license=CC BY-NC-SA
exact mass=277.13141
ionization energy=70 eV
ion type=[M]+*
computed spectral entropy=2.63923536927544
computed normalized entropy=0.7920388323154486
SPLASH=splash10-0a6u-9510000000-df12766f01ac2e57130b
submitter=submitter = University of Tokyo Team (Faculty of Engineering, University of Tokyo)
MoNA Rating=3.75

>  <NUM PEAKS>  (2457) 
28

>  <MASS SPECTRAL PEAKS>  (2457) 
27 9.1
28 8.8
29 8.9
39 5.4
41 8.4
42 5.4
43 85.9
50 6.2
51 27.7
72 5.2
73 7.1
76 6
77 98.3
78 9
101 5.7
104 7
105 99.99
106 28.8
148 11.8
160 6.1
162 7.7
178 6.6
204 11.8
216 15.8
217 13.1
218 8.7
277 0.3
278 0.6

$$$$

     RDKit          2D

  6  5  0  0  0  0  0  0  0  0999 V2000
    0.0000    0.0000    0.0000 C   0  0  0  0  0  0  0  0  0  0  0  0
    1.2990    2.2500    0.0000 C   0  0  0  0  0  0  0  0  0  0  0  0
   -2.5981    4.5000    0.0000 C   0  0  0  0  0  0  0  0  0  0  0  0
   -1.2990    2.2500    0.0000 C   0  0  0  0  0  0  0  0  0  0  0  0
    0.0000    1.5000    0.0000 C   0  0  0  0  0  0  0  0  0  0  0  0
   -1.2990    3.7500    0.0000 S   0  0  0  0  0  0  0  0  0  0  0  0
  5  1  1  0
  5  2  1  0
  5  4  1  0
  6  3  1  0
  6  4  1  0
M  END
>  <NAME>  (2458) 
ISOBUTYL METHYL SULFIDE

>  <SYNONYMS>  (2458) 


>  <SPECTRUM TYPE>  (2458) 
MS1

>  <INSTRUMENT TYPE>  (2458) 
EI-B

>  <INSTRUMENT>  (2458) 
HITACHI M-80B

>  <ION MODE>  (2458) 
P

>  <INCHIKEY>  (2458) 
UYVGFIKOUAFDOZ-UHFFFAOYSA-N

>  <FORMULA>  (2458) 
C5H12S

>  <EXACT MASS>  (2458) 
104.065971384

>  <MW>  (2458) 
104

>  <ID>  (2458) 
JP008753

>  <CONTRIBUTOR>  (2458) 
University of Tokyo Team, {Faculty of Engineering, University of Tokyo

>  <COMMENT>  (2458) 
SMILES=CC(C)CSC
InChI=InChI=1S/C5H12S/c1-5(2)4-6-3/h5H,4H2,1-3H3
computed SMILES=S(C)CC(C)C
accession=JP008753
date=2016.01.19 (Created 2008.10.21, modified 2011.05.06)
author=SODA AROMATIC CO., LTD.
license=CC BY-NC-SA
exact mass=104.06597
ionization energy=70 eV
ion type=[M]+*
computed spectral entropy=2.8072916728606816
computed normalized entropy=0.8100131549529975
SPLASH=splash10-08fr-9100000000-a03106d837acefb88ab5
submitter=submitter = University of Tokyo Team (Faculty of Engineering, University of Tokyo)
MoNA Rating=3.75

>  <NUM PEAKS>  (2458) 
32

>  <MASS SPECTRAL PEAKS>  (2458) 
15 4.75
27 18.17
28 2.3
29 15.01
35 6.39
38 1.85
39 22.06
40 2.32
41 43.43
42 2.28
43 9.91
45 16.85
46 11.27
47 18.51
48 4.37
49 4.36
53 1.84
55 8.68
56 45.62
57 23.39
58 1.43
59 2.14
61 99.99
62 21.1
63 5.27
71 1.4
73 1.55
75 6.75
89 4.57
104 46.96
105 2.95
106 1.71

$$$$

     RDKit          2D

  5  4  0  0  0  0  0  0  0  0999 V2000
   -3.8971    2.2500    0.0000 C   0  0  0  0  0  0  0  0  0  0  0  0
    1.2990    2.2500    0.0000 C   0  0  0  0  0  0  0  0  0  0  0  0
   -2.5981    1.5000    0.0000 C   0  0  0  0  0  0  0  0  0  0  0  0
   -1.2990    2.2500    0.0000 C   0  0  0  0  0  0  0  0  0  0  0  0
    0.0000    1.5000    0.0000 S   0  0  0  0  0  0  0  0  0  0  0  0
  3  1  1  0
  4  3  1  0
  5  2  1  0
  5  4  1  0
M  END
>  <NAME>  (2459) 
METHYL PROPYL SULFIDE

>  <SYNONYMS>  (2459) 


>  <SPECTRUM TYPE>  (2459) 
MS1

>  <INSTRUMENT TYPE>  (2459) 
EI-B

>  <INSTRUMENT>  (2459) 
HITACHI M-80B

>  <ION MODE>  (2459) 
P

>  <INCHIKEY>  (2459) 
ZOASGOXWEHUTKZ-UHFFFAOYSA-N

>  <FORMULA>  (2459) 
C4H10S

>  <EXACT MASS>  (2459) 
90.05032132

>  <MW>  (2459) 
90

>  <ID>  (2459) 
JP008752

>  <CONTRIBUTOR>  (2459) 
University of Tokyo Team, {Faculty of Engineering, University of Tokyo

>  <COMMENT>  (2459) 
SMILES=CCCSC
InChI=InChI=1S/C4H10S/c1-3-4-5-2/h3-4H2,1-2H3
computed SMILES=S(C)CCC
accession=JP008752
date=2016.01.19 (Created 2008.10.21, modified 2011.05.06)
author=SODA AROMATIC CO., LTD.
license=CC BY-NC-SA
exact mass=90.05032
ionization energy=70 eV
ion type=[M]+*
computed spectral entropy=2.6862597745186414
computed normalized entropy=0.8150463398922102
SPLASH=splash10-01ow-9000000000-a40c801d9aee15105a44
submitter=submitter = University of Tokyo Team (Faculty of Engineering, University of Tokyo)
MoNA Rating=3.75

>  <NUM PEAKS>  (2459) 
27

>  <MASS SPECTRAL PEAKS>  (2459) 
15 5.05
26 2.7
27 28.81
29 2.35
35 11.24
37 1.31
38 2.36
39 21.23
40 2.52
41 34.99
42 9.6
43 18.08
45 25.11
46 11.98
47 23.27
48 40.89
49 18.77
50 1.71
58 2.44
59 3.02
61 99.99
62 4.13
63 3.85
75 9.77
90 45.43
91 1.97
92 1.83

$$$$

     RDKit          2D

  5  4  0  0  0  0  0  0  0  0999 V2000
   -3.8971    2.2500    0.0000 C   0  0  0  0  0  0  0  0  0  0  0  0
    1.2990    2.2500    0.0000 C   0  0  0  0  0  0  0  0  0  0  0  0
   -2.5981    1.5000    0.0000 C   0  0  0  0  0  0  0  0  0  0  0  0
    0.0000    1.5000    0.0000 C   0  0  0  0  0  0  0  0  0  0  0  0
   -1.2990    2.2500    0.0000 S   0  0  0  0  0  0  0  0  0  0  0  0
  3  1  1  0
  4  2  1  0
  5  3  1  0
  5  4  1  0
M  END
>  <NAME>  (2460) 
DIETHYL SULFIDE

>  <SYNONYMS>  (2460) 


>  <SPECTRUM TYPE>  (2460) 
MS1

>  <INSTRUMENT TYPE>  (2460) 
EI-B

>  <INSTRUMENT>  (2460) 
HITACHI M-80B

>  <ION MODE>  (2460) 
P

>  <INCHIKEY>  (2460) 
LJSQFQKUNVCTIA-UHFFFAOYSA-N

>  <FORMULA>  (2460) 
C4H10S

>  <EXACT MASS>  (2460) 
90.05032132

>  <MW>  (2460) 
90

>  <ID>  (2460) 
JP008751

>  <CONTRIBUTOR>  (2460) 
University of Tokyo Team, {Faculty of Engineering, University of Tokyo

>  <COMMENT>  (2460) 
SMILES=CCSCC
InChI=InChI=1S/C4H10S/c1-3-5-4-2/h3-4H2,1-2H3
computed SMILES=S(CC)CC
accession=JP008751
date=2016.01.19 (Created 2008.10.21, modified 2011.05.06)
author=SODA AROMATIC CO., LTD.
license=CC BY-NC-SA
exact mass=90.05032
ionization energy=70 eV
ion type=[M]+*
computed spectral entropy=2.7193256730378055
computed normalized entropy=0.8075695781824814
SPLASH=splash10-004j-9000000000-87e7e650df07337181fe
submitter=submitter = University of Tokyo Team (Faculty of Engineering, University of Tokyo)
MoNA Rating=3.75

>  <NUM PEAKS>  (2460) 
29

>  <MASS SPECTRAL PEAKS>  (2460) 
15 2.33
26 13.88
27 75.12
28 13.35
29 49.68
33 1.56
34 5.12
35 16.86
41 8.06
45 28.66
46 19.09
47 81.13
48 2.12
49 3.23
57 3.95
58 12.81
59 15.38
60 12.18
61 57.12
62 50.92
63 3.17
64 2.21
75 99.99
76 2.9
77 3.52
89 2.33
90 68.99
91 2.87
92 2.18

$$$$

     RDKit          2D

  3  2  0  0  0  0  0  0  0  0999 V2000
   -1.2990    0.0000    0.0000 C   0  0  0  0  0  0  0  0  0  0  0  0
    0.0000    2.2500    0.0000 C   0  0  0  0  0  0  0  0  0  0  0  0
   -0.0000    0.7500    0.0000 S   0  0  0  0  0  0  0  0  0  0  0  0
  3  1  1  0
  3  2  1  0
M  END
>  <NAME>  (2461) 
DIMETHYL SULFIDE

>  <SYNONYMS>  (2461) 


>  <SPECTRUM TYPE>  (2461) 
MS1

>  <INSTRUMENT TYPE>  (2461) 
EI-B

>  <INSTRUMENT>  (2461) 
HITACHI M-80B

>  <ION MODE>  (2461) 
P

>  <INCHIKEY>  (2461) 
QMMFVYPAHWMCMS-UHFFFAOYSA-N

>  <FORMULA>  (2461) 
C2H6S

>  <EXACT MASS>  (2461) 
62.019021192

>  <MW>  (2461) 
62

>  <ID>  (2461) 
JP008750

>  <CONTRIBUTOR>  (2461) 
University of Tokyo Team, {Faculty of Engineering, University of Tokyo

>  <COMMENT>  (2461) 
SMILES=CSC
InChI=InChI=1S/C2H6S/c1-3-2/h1-2H3
computed SMILES=S(C)C
accession=JP008750
date=2016.01.19 (Created 2008.10.21, modified 2011.05.06)
author=SODA AROMATIC CO., LTD.
license=CC BY-NC-SA
exact mass=62.01902
ionization energy=70 eV
ion type=[M]+*
computed spectral entropy=2.2026636427316877
computed normalized entropy=0.7125957265124476
SPLASH=splash10-01ot-9000000000-b8e506cefc1462c55765
submitter=submitter = University of Tokyo Team (Faculty of Engineering, University of Tokyo)
MoNA Rating=3.75

>  <NUM PEAKS>  (2461) 
22

>  <MASS SPECTRAL PEAKS>  (2461) 
13 1
14 2.6
15 8.65
27 18.17
32 1.3
33 1.02
34 1.13
35 28.26
37 1.05
44 4.89
45 64.56
46 42.74
47 99.99
48 3.16
49 3.91
57 2.55
58 3.25
59 2.58
61 31.79
62 91.89
63 3
64 3.77

$$$$

     RDKit          2D

  4  3  0  0  0  0  0  0  0  0999 V2000
   -2.5981    2.2500    0.0000 C   0  0  0  0  0  0  0  0  0  0  0  0
    1.2990    1.5000    0.0000 C   0  0  0  0  0  0  0  0  0  0  0  0
   -1.2990    1.5000    0.0000 C   0  0  0  0  0  0  0  0  0  0  0  0
    0.0000    2.2500    0.0000 S   0  0  0  0  0  0  0  0  0  0  0  0
  3  1  1  0
  4  2  1  0
  4  3  1  0
M  END
>  <NAME>  (2462) 
METHYL ETHYL SULFIDE

>  <SYNONYMS>  (2462) 


>  <SPECTRUM TYPE>  (2462) 
MS1

>  <INSTRUMENT TYPE>  (2462) 
EI-B

>  <INSTRUMENT>  (2462) 
HITACHI M-80B

>  <ION MODE>  (2462) 
P

>  <INCHIKEY>  (2462) 
WXEHBUMAEPOYKP-UHFFFAOYSA-N

>  <FORMULA>  (2462) 
C3H8S

>  <EXACT MASS>  (2462) 
76.034671256

>  <MW>  (2462) 
76

>  <ID>  (2462) 
JP008749

>  <CONTRIBUTOR>  (2462) 
University of Tokyo Team, {Faculty of Engineering, University of Tokyo

>  <COMMENT>  (2462) 
SMILES=CCSC
InChI=InChI=1S/C3H8S/c1-3-4-2/h3H2,1-2H3
computed SMILES=S(C)CC
accession=JP008749
date=2016.01.19 (Created 2008.10.21, modified 2011.05.06)
author=SODA AROMATIC CO., LTD.
license=CC BY-NC-SA
exact mass=76.03467
ionization energy=70 eV
ion type=[M]+*
computed spectral entropy=2.477041215783127
computed normalized entropy=0.7602725047819915
SPLASH=splash10-01r2-9000000000-a9039cc3178f977b148a
submitter=submitter = University of Tokyo Team (Faculty of Engineering, University of Tokyo)
MoNA Rating=3.75

>  <NUM PEAKS>  (2462) 
26

>  <MASS SPECTRAL PEAKS>  (2462) 
14 1.23
15 3.35
26 5.65
27 34.62
28 2.01
29 16.25
35 16.5
41 4.68
44 1.27
45 30.47
46 10.68
47 38.51
48 51.57
49 4.93
50 1.91
57 2.31
58 4.68
59 5.44
60 2.59
61 99.99
62 2.62
63 3.78
75 3.06
76 63.59
77 2.35
78 2.34

$$$$

     RDKit          2D

  7  7  0  0  0  0  0  0  0  0999 V2000
   -1.8372   -1.0620    0.0000 C   0  0  0  0  0  0  0  0  0  0  0  0
   -1.0872    0.2371    0.0000 C   0  0  0  0  0  0  0  0  0  0  0  0
   -0.8287   -2.1754    0.0000 C   0  0  0  0  0  0  0  0  0  0  0  0
    1.4972    0.9228    0.0000 C   0  0  0  0  0  0  0  0  0  0  0  0
    0.3813   -0.0796    0.0000 C   0  0  0  0  0  0  0  0  0  0  0  0
    2.9232    0.4575    0.0000 O   0  0  0  0  0  0  0  0  0  0  0  0
    0.5384   -1.5675    0.0000 S   0  0  0  0  0  0  0  0  0  0  0  0
  2  1  1  0
  3  1  2  0
  5  2  2  0
  5  4  1  0
  6  4  1  0
  7  3  1  0
  7  5  1  0
M  END
>  <NAME>  (2463) 
2-THIOPHENEMETHANOL

>  <SYNONYMS>  (2463) 


>  <SPECTRUM TYPE>  (2463) 
MS1

>  <INSTRUMENT TYPE>  (2463) 
EI-B

>  <INSTRUMENT>  (2463) 
HITACHI M-80B

>  <ION MODE>  (2463) 
P

>  <INCHIKEY>  (2463) 
ZPHGMBGIFODUMF-UHFFFAOYSA-N

>  <FORMULA>  (2463) 
C5H6OS

>  <EXACT MASS>  (2463) 
114.013935812

>  <MW>  (2463) 
114

>  <ID>  (2463) 
JP008748

>  <CONTRIBUTOR>  (2463) 
University of Tokyo Team, {Faculty of Engineering, University of Tokyo

>  <COMMENT>  (2463) 
SMILES=OCc(c1)scc1
InChI=InChI=1S/C5H6OS/c6-4-5-2-1-3-7-5/h1-3,6H,4H2
computed SMILES=OCC=1SC=CC1
exact mass=114.01394
accession=JP008748
date=2016.01.19 (Created 2008.10.21, modified 2011.05.06)
author=SODA AROMATIC CO., LTD.
license=CC BY-NC-SA
ionization energy=70 eV
ion type=[M]+*
computed spectral entropy=3.064182568526841
computed normalized entropy=0.764643823433185
SPLASH=splash10-01p2-9200000000-47c937806f652ce016bb
submitter=submitter = University of Tokyo Team (Faculty of Engineering, University of Tokyo)
MoNA Rating=3.75

>  <NUM PEAKS>  (2463) 
55

>  <MASS SPECTRAL PEAKS>  (2463) 
15 1.12
25 1.15
26 3.69
27 8.68
29 10.98
30 1.14
31 8.37
32 1.54
37 5.84
38 8.76
39 39.93
40 1.71
41 6.4
42 1.07
44 1.44
45 73.27
46 2.26
47 4.29
49 2.59
50 7.97
51 8.89
52 3.8
53 20.87
54 1.33
55 2.8
56 1.2
57 15.76
58 18.12
59 5.61
60 1.68
61 2.07
62 2.29
63 2.55
68 1.48
69 9.19
70 3.64
71 4.08
81 31.77
82 4.2
83 3.26
84 3.45
85 93.43
86 6.28
87 4.6
93 1.22
95 2.34
96 2.62
97 73.12
98 4.35
99 2.71
111 4.63
113 4.45
114 99.99
115 6.84
116 4.34

$$$$

     RDKit          2D

  9  8  0  0  0  0  0  0  0  0999 V2000
    1.9486    3.3750    0.0000 C   0  0  0  0  0  0  0  0  0  0  0  0
   -3.2476    6.3750    0.0000 C   0  0  0  0  0  0  0  0  0  0  0  0
    0.6495    4.1250    0.0000 C   0  0  0  0  0  0  0  0  0  0  0  0
   -0.6495    3.3750    0.0000 C   0  0  0  0  0  0  0  0  0  0  0  0
   -3.2476    3.3750    0.0000 C   0  0  0  0  0  0  0  0  0  0  0  0
   -4.5466    4.1250    0.0000 C   0  0  0  0  0  0  0  0  0  0  0  0
   -1.9486    4.1250    0.0000 C   0  0  0  0  0  0  0  0  0  0  0  0
   -5.8457    3.3750    0.0000 O   0  0  0  0  0  0  0  0  0  0  0  0
   -1.9486    5.6250    0.0000 S   0  0  0  0  0  0  0  0  0  0  0  0
  3  1  1  0
  4  3  1  0
  6  5  1  0
  7  4  1  0
  7  5  1  0
  8  6  1  0
  9  2  1  0
  9  7  1  0
M  END
>  <NAME>  (2464) 
3-(METHYLTHIO)HEXANOL

>  <SYNONYMS>  (2464) 


>  <SPECTRUM TYPE>  (2464) 
MS1

>  <INSTRUMENT TYPE>  (2464) 
EI-B

>  <INSTRUMENT>  (2464) 
HITACHI M-80B

>  <ION MODE>  (2464) 
P

>  <INCHIKEY>  (2464) 
JSASXSHMJYRPCM-UHFFFAOYSA-N

>  <FORMULA>  (2464) 
C7H16OS

>  <EXACT MASS>  (2464) 
148.092186132

>  <MW>  (2464) 
148

>  <ID>  (2464) 
JP008747

>  <CONTRIBUTOR>  (2464) 
University of Tokyo Team, {Faculty of Engineering, University of Tokyo

>  <COMMENT>  (2464) 
SMILES=CCCC(SC)CCO
InChI=InChI=1S/C7H16OS/c1-3-4-7(9-2)5-6-8/h7-8H,3-6H2,1-2H3
computed SMILES=OCCC(SC)CCC
accession=JP008747
date=2016.01.19 (Created 2008.10.21, modified 2011.05.06)
author=SODA AROMATIC CO., LTD.
license=CC BY-NC-SA
exact mass=148.09219
ionization energy=70 eV
ion type=[M]+*
computed spectral entropy=3.4942430452065594
computed normalized entropy=0.8281162849685382
SPLASH=splash10-0a7l-9100000000-e71355bc4f59e4a54158
submitter=submitter = University of Tokyo Team (Faculty of Engineering, University of Tokyo)
MoNA Rating=3.75

>  <NUM PEAKS>  (2464) 
68

>  <MASS SPECTRAL PEAKS>  (2464) 
14 1.15
15 3.88
19 1
26 1.66
27 39.47
28 3.96
29 28.86
31 43.2
35 2.52
38 1.56
39 27.34
40 3.82
41 84.63
42 16.98
43 22.36
44 14.58
45 23.67
46 5.11
47 25.37
48 10.2
49 15.59
50 1.58
51 2.49
53 9.03
54 5.64
55 99.99
56 17.33
57 66.15
58 6.94
59 8.63
60 2.33
61 73.14
62 2.75
63 3.39
65 1.83
67 33.43
68 2.47
69 9.66
70 5.33
71 16.17
72 9.05
73 3.82
74 1.62
75 63.94
76 2.54
77 3.84
79 1.27
81 5.17
82 51.77
83 22.14
84 1.77
85 2.19
87 3.08
88 1.08
89 3.53
100 8.08
101 3.06
102 1.4
103 20.35
104 1.28
105 24.93
106 1.52
115 2.78
117 1.34
133 3.63
148 61.69
149 4.51
150 2.72

$$$$

     RDKit          2D

  6  5  0  0  0  0  0  0  0  0999 V2000
   -4.5466    3.3750    0.0000 C   0  0  0  0  0  0  0  0  0  0  0  0
   -0.6495    2.6250    0.0000 C   0  0  0  0  0  0  0  0  0  0  0  0
    0.6495    3.3750    0.0000 C   0  0  0  0  0  0  0  0  0  0  0  0
   -1.9486    3.3750    0.0000 C   0  0  0  0  0  0  0  0  0  0  0  0
    1.9486    2.6250    0.0000 O   0  0  0  0  0  0  0  0  0  0  0  0
   -3.2476    2.6250    0.0000 S   0  0  0  0  0  0  0  0  0  0  0  0
  3  2  1  0
  4  2  1  0
  5  3  1  0
  6  1  1  0
  6  4  1  0
M  END
>  <NAME>  (2465) 
3-(METHYLTHIO)PROPANOL

>  <SYNONYMS>  (2465) 


>  <SPECTRUM TYPE>  (2465) 
MS1

>  <INSTRUMENT TYPE>  (2465) 
EI-B

>  <INSTRUMENT>  (2465) 
HITACHI M-80B

>  <ION MODE>  (2465) 
P

>  <INCHIKEY>  (2465) 
CZUGFKJYCPYHHV-UHFFFAOYSA-N

>  <FORMULA>  (2465) 
C4H10OS

>  <EXACT MASS>  (2465) 
106.04523594

>  <MW>  (2465) 
106

>  <ID>  (2465) 
JP008746

>  <CONTRIBUTOR>  (2465) 
University of Tokyo Team, {Faculty of Engineering, University of Tokyo

>  <COMMENT>  (2465) 
SMILES=OCCCSC
InChI=InChI=1S/C4H10OS/c1-6-4-2-3-5/h5H,2-4H2,1H3
computed SMILES=OCCCSC
accession=JP008746
date=2016.01.19 (Created 2008.10.21, modified 2011.05.06)
author=SODA AROMATIC CO., LTD.
license=CC BY-NC-SA
exact mass=106.04524
ionization energy=70 eV
ion type=[M]+*
computed spectral entropy=3.14132706840799
computed normalized entropy=0.8158978286995431
SPLASH=splash10-0a4j-9100000000-a11a6dbaea6cd0cb9f50
submitter=submitter = University of Tokyo Team (Faculty of Engineering, University of Tokyo)
MoNA Rating=3.75

>  <NUM PEAKS>  (2465) 
47

>  <MASS SPECTRAL PEAKS>  (2465) 
14 1.37
15 6.64
26 4.87
27 37.97
28 11.36
29 26.1
30 11.2
31 78.94
34 1.18
35 16.63
37 1.63
38 1.69
39 14.61
40 4
41 38.53
42 3.06
43 6.47
44 1.87
45 54.24
46 29.13
47 60.91
48 43.6
49 50.43
50 2.2
51 1.85
55 2.2
56 1
57 67.41
58 74.52
59 27.83
60 5.34
61 99.99
62 12.19
63 4.61
71 1.12
72 1.63
73 32.23
74 1.71
75 18.33
76 1.41
77 1.4
87 1.46
88 9.01
89 1.12
106 93.41
107 4.41
108 3.62

$$$$

     RDKit          2D

 14 13  0  0  0  0  0  0  0  0999 V2000
    4.5466    7.1250    0.0000 C   0  0  0  0  0  0  0  0  0  0  0  0
    3.2476    7.8750    0.0000 C   0  0  0  0  0  0  0  0  0  0  0  0
    1.9486    7.1250    0.0000 C   0  0  0  0  0  0  0  0  0  0  0  0
    0.6495    7.8750    0.0000 C   0  0  0  0  0  0  0  0  0  0  0  0
   -0.6495    7.1250    0.0000 C   0  0  0  0  0  0  0  0  0  0  0  0
   -1.9486    7.8750    0.0000 C   0  0  0  0  0  0  0  0  0  0  0  0
   -3.2476    7.1250    0.0000 C   0  0  0  0  0  0  0  0  0  0  0  0
   -4.5466    7.8750    0.0000 C   0  0  0  0  0  0  0  0  0  0  0  0
   -5.8457    7.1250    0.0000 C   0  0  0  0  0  0  0  0  0  0  0  0
   -7.1447    7.8750    0.0000 C   0  0  0  0  0  0  0  0  0  0  0  0
   -8.4437    7.1250    0.0000 C   0  0  0  0  0  0  0  0  0  0  0  0
   -9.7428    7.8750    0.0000 C   0  0  0  0  0  0  0  0  0  0  0  0
  -11.0418    7.1250    0.0000 C   0  0  0  0  0  0  0  0  0  0  0  0
  -12.3409    7.8750    0.0000 S   0  0  0  0  0  0  0  0  0  0  0  0
  2  1  1  0
  3  2  1  0
  4  3  1  0
  5  4  1  0
  6  5  1  0
  7  6  1  0
  8  7  1  0
  9  8  1  0
 10  9  1  0
 11 10  1  0
 12 11  1  0
 13 12  1  0
 14 13  1  0
M  END
>  <NAME>  (2466) 
TRIDECANETHIOL

>  <SYNONYMS>  (2466) 


>  <SPECTRUM TYPE>  (2466) 
MS1

>  <INSTRUMENT TYPE>  (2466) 
EI-B

>  <INSTRUMENT>  (2466) 
HITACHI M-80B

>  <ION MODE>  (2466) 
P

>  <INCHIKEY>  (2466) 
IPBROXKVGHZHJV-UHFFFAOYSA-N

>  <FORMULA>  (2466) 
C13H28S

>  <EXACT MASS>  (2466) 
216.191171896

>  <MW>  (2466) 
216

>  <ID>  (2466) 
JP008745

>  <CONTRIBUTOR>  (2466) 
University of Tokyo Team, {Faculty of Engineering, University of Tokyo

>  <COMMENT>  (2466) 
SMILES=CCCCCCCCCCCCCS
InChI=InChI=1S/C13H28S/c1-2-3-4-5-6-7-8-9-10-11-12-13-14/h14H,2-13H2,1H3
computed SMILES=SCCCCCCCCCCCCC
accession=JP008745
date=2016.01.19 (Created 2008.10.21, modified 2011.05.06)
author=SODA AROMATIC CO., LTD.
license=CC BY-NC-SA
exact mass=216.19117
ionization energy=70 eV
ion type=[M]+*
computed spectral entropy=3.4459389980296447
computed normalized entropy=0.8138526969711679
SPLASH=splash10-0a4l-9000000000-b404a156eb62b7742119
submitter=submitter = University of Tokyo Team (Faculty of Engineering, University of Tokyo)
MoNA Rating=3.75

>  <NUM PEAKS>  (2466) 
69

>  <MASS SPECTRAL PEAKS>  (2466) 
27 24
28 4.08
29 45.98
30 1.14
35 2.44
39 12.7
40 2.8
41 97.82
42 24.41
43 95.56
44 2.68
45 4.38
46 2.04
47 28.47
48 1.25
49 1.14
53 6.07
54 9.51
55 99.99
56 57.76
57 63.35
58 3.04
59 2.14
60 3.8
61 12.03
62 1.1
65 1.02
67 10.99
68 29.5
69 74.73
70 53.5
71 23.71
72 1.37
73 1.51
81 3.82
82 27.51
83 66.04
84 32.5
85 9.45
87 2.65
88 3.37
89 23.3
90 1.33
91 1.04
95 1.27
96 10.27
97 46.44
98 20.81
99 2.61
101 1.08
103 1.96
110 3.33
111 21.56
112 10.7
113 1.55
124 1.61
125 8.65
126 5.58
139 2.07
140 2.79
153 1.67
154 7.05
155 1
182 10.23
183 1.96
215 1.87
216 21.74
217 3.21
218 1.18

$$$$

     RDKit          2D

  9  8  0  0  0  0  0  0  0  0999 V2000
   -6.3212    3.8505    0.0000 C   0  0  0  0  0  0  0  0  0  0  0  0
   -0.5760    1.8014    0.0000 C   0  0  0  0  0  0  0  0  0  0  0  0
    1.4731    2.3505    0.0000 C   0  0  0  0  0  0  0  0  0  0  0  0
   -5.0221    3.1005    0.0000 C   0  0  0  0  0  0  0  0  0  0  0  0
   -3.7231    3.8505    0.0000 C   0  0  0  0  0  0  0  0  0  0  0  0
   -2.4240    3.1005    0.0000 C   0  0  0  0  0  0  0  0  0  0  0  0
   -1.1250    3.8505    0.0000 C   0  0  0  0  0  0  0  0  0  0  0  0
    0.1740    3.1005    0.0000 C   0  0  0  0  0  0  0  0  0  0  0  0
    0.9240    4.3995    0.0000 S   0  0  0  0  0  0  0  0  0  0  0  0
  4  1  1  0
  5  4  1  0
  6  5  1  0
  7  6  1  0
  8  2  1  0
  8  3  1  0
  8  7  1  0
  9  8  1  0
M  END
>  <NAME>  (2467) 
2-METHYLHEPTANE-2-THIOL

>  <SYNONYMS>  (2467) 


>  <SPECTRUM TYPE>  (2467) 
MS1

>  <INSTRUMENT TYPE>  (2467) 
EI-B

>  <INSTRUMENT>  (2467) 
HITACHI M-80B

>  <ION MODE>  (2467) 
P

>  <INCHIKEY>  (2467) 
KSTAKRCVPORMCA-UHFFFAOYSA-N

>  <FORMULA>  (2467) 
C8H18S

>  <EXACT MASS>  (2467) 
146.112921576

>  <MW>  (2467) 
146

>  <ID>  (2467) 
JP008744

>  <CONTRIBUTOR>  (2467) 
University of Tokyo Team, {Faculty of Engineering, University of Tokyo

>  <COMMENT>  (2467) 
SMILES=CCCCCC(C)(C)S
InChI=InChI=1S/C8H18S/c1-4-5-6-7-8(2,3)9/h9H,4-7H2,1-3H3
computed SMILES=SC(C)(C)CCCCC
accession=JP008744
date=2016.01.19 (Created 2008.10.21, modified 2011.05.06)
author=SODA AROMATIC CO., LTD.
license=CC BY-NC-SA
exact mass=146.11292
ionization energy=70 eV
ion type=[M]+*
computed spectral entropy=2.439614480984122
computed normalized entropy=0.7321322786565251
SPLASH=splash10-0a4i-9000000000-81fb4d03ffa2bf3fb9c8
submitter=submitter = University of Tokyo Team (Faculty of Engineering, University of Tokyo)
MoNA Rating=3.75

>  <NUM PEAKS>  (2467) 
28

>  <MASS SPECTRAL PEAKS>  (2467) 
15 1.07
27 7.63
28 1.02
29 14.09
39 11.24
40 1.4
41 35.07
42 1.49
43 6.69
45 1.26
47 2.52
53 2.15
55 14.94
56 10.83
57 99.99
58 4.63
59 4.8
69 1.54
71 1.02
74 3.97
75 40.14
76 1.62
77 1.63
88 3.03
89 7.8
97 3.37
113 10.7
146 2.46

$$$$

     RDKit          2D

  6  5  0  0  0  0  0  0  0  0999 V2000
    1.2990    2.2500    0.0000 C   0  0  0  0  0  0  0  0  0  0  0  0
   -1.2990    0.7500    0.0000 C   0  0  0  0  0  0  0  0  0  0  0  0
    0.0000    3.0000    0.0000 C   0  0  0  0  0  0  0  0  0  0  0  0
   -2.5981    3.0000    0.0000 C   0  0  0  0  0  0  0  0  0  0  0  0
   -1.2990    2.2500    0.0000 C   0  0  0  0  0  0  0  0  0  0  0  0
   -3.8971    2.2500    0.0000 S   0  0  0  0  0  0  0  0  0  0  0  0
  3  1  1  0
  5  2  1  0
  5  3  1  0
  5  4  1  0
  6  4  1  0
M  END
>  <NAME>  (2468) 
2-METHYLBUTANETHIOL

>  <SYNONYMS>  (2468) 


>  <SPECTRUM TYPE>  (2468) 
MS1

>  <INSTRUMENT TYPE>  (2468) 
EI-B

>  <INSTRUMENT>  (2468) 
HITACHI M-80B

>  <ION MODE>  (2468) 
P

>  <INCHIKEY>  (2468) 
WGQKBCSACFQGQY-UHFFFAOYSA-N

>  <FORMULA>  (2468) 
C5H12S

>  <EXACT MASS>  (2468) 
104.065971384

>  <MW>  (2468) 
104

>  <ID>  (2468) 
JP008743

>  <CONTRIBUTOR>  (2468) 
University of Tokyo Team, {Faculty of Engineering, University of Tokyo

>  <COMMENT>  (2468) 
SMILES=CCC(C)CS
InChI=InChI=1S/C5H12S/c1-3-5(2)4-6/h5-6H,3-4H2,1-2H3
computed SMILES=SCC(C)CC
accession=JP008743
date=2016.01.19 (Created 2008.10.21, modified 2011.05.06)
author=SODA AROMATIC CO., LTD.
license=CC BY-NC-SA
exact mass=104.06597
ionization energy=70 eV
ion type=[M]+*
computed spectral entropy=2.8890068159254603
computed normalized entropy=0.7885787370269963
SPLASH=splash10-0a6u-9000000000-4003a7b64aa50746bc0b
submitter=submitter = University of Tokyo Team (Faculty of Engineering, University of Tokyo)
MoNA Rating=3.75

>  <NUM PEAKS>  (2468) 
39

>  <MASS SPECTRAL PEAKS>  (2468) 
15 3.11
26 2.57
27 32.58
28 3.7
29 60.92
30 1.24
33 1.66
34 1.27
35 1.18
37 1.05
38 2.15
39 33.83
40 3.5
41 99.99
42 26.59
43 18.72
45 16.32
46 5.5
47 36.92
48 5.25
49 3.85
50 1.41
51 2.11
53 3.8
54 1.59
55 48.21
56 27.7
57 51.14
58 2.34
59 2.45
61 2.51
69 1.81
70 55.63
71 4.74
74 1.69
75 10.53
104 32.52
105 1.69
106 1.23

$$$$

     RDKit          2D

  5  4  0  0  0  0  0  0  0  0999 V2000
   -3.8971    2.2500    0.0000 C   0  0  0  0  0  0  0  0  0  0  0  0
   -2.5981    1.5000    0.0000 C   0  0  0  0  0  0  0  0  0  0  0  0
   -1.2990    2.2500    0.0000 C   0  0  0  0  0  0  0  0  0  0  0  0
    0.0000    1.5000    0.0000 C   0  0  0  0  0  0  0  0  0  0  0  0
    1.2990    2.2500    0.0000 S   0  0  0  0  0  0  0  0  0  0  0  0
  2  1  1  0
  3  2  1  0
  4  3  1  0
  5  4  1  0
M  END
>  <NAME>  (2469) 
BUTANETHIOL

>  <SYNONYMS>  (2469) 


>  <SPECTRUM TYPE>  (2469) 
MS1

>  <INSTRUMENT TYPE>  (2469) 
EI-B

>  <INSTRUMENT>  (2469) 
HITACHI M-80B

>  <ION MODE>  (2469) 
P

>  <INCHIKEY>  (2469) 
WQAQPCDUOCURKW-UHFFFAOYSA-N

>  <FORMULA>  (2469) 
C4H10S

>  <EXACT MASS>  (2469) 
90.05032132

>  <MW>  (2469) 
90

>  <ID>  (2469) 
JP008742

>  <CONTRIBUTOR>  (2469) 
University of Tokyo Team, {Faculty of Engineering, University of Tokyo

>  <COMMENT>  (2469) 
SMILES=CCCCS
InChI=InChI=1S/C4H10S/c1-2-3-4-5/h5H,2-4H2,1H3
computed SMILES=SCCCC
accession=JP008742
date=2016.01.19 (Created 2008.10.21, modified 2011.05.06)
author=SODA AROMATIC CO., LTD.
license=CC BY-NC-SA
exact mass=90.05032
ionization energy=70 eV
ion type=[M]+*
computed spectral entropy=2.7859413177904413
computed normalized entropy=0.7835917242441094
SPLASH=splash10-054o-9000000000-a6dc170a091918ad8ebd
submitter=submitter = University of Tokyo Team (Faculty of Engineering, University of Tokyo)
MoNA Rating=3.75

>  <NUM PEAKS>  (2469) 
35

>  <MASS SPECTRAL PEAKS>  (2469) 
15 2.3
26 5.68
27 44.66
28 14.98
29 31.36
33 2.14
34 1.77
35 7.26
37 1
38 1.84
39 21.14
40 4.01
41 82.96
42 4.97
43 11.34
45 16.02
46 9.69
47 37.82
48 6.02
49 2.22
50 1.67
51 1.45
53 1.86
54 1.01
55 12.43
56 99.99
57 16.71
58 4.66
59 4.82
60 2.16
61 19.67
62 1.13
90 51.4
91 2.42
92 1.91

$$$$

     RDKit          2D

  3  2  0  0  0  0  0  0  0  0999 V2000
   -1.2990    0.0000    0.0000 C   0  0  0  0  0  0  0  0  0  0  0  0
   -0.0000    0.7500    0.0000 C   0  0  0  0  0  0  0  0  0  0  0  0
    0.0000    2.2500    0.0000 S   0  0  0  0  0  0  0  0  0  0  0  0
  2  1  1  0
  3  2  1  0
M  END
>  <NAME>  (2470) 
ETHANETHIOL

>  <SYNONYMS>  (2470) 


>  <SPECTRUM TYPE>  (2470) 
MS1

>  <INSTRUMENT TYPE>  (2470) 
EI-B

>  <INSTRUMENT>  (2470) 
HITACHI M-80B

>  <ION MODE>  (2470) 
P

>  <INCHIKEY>  (2470) 
DNJIEGIFACGWOD-UHFFFAOYSA-N

>  <FORMULA>  (2470) 
C2H6S

>  <EXACT MASS>  (2470) 
62.019021192

>  <MW>  (2470) 
62

>  <ID>  (2470) 
JP008741

>  <CONTRIBUTOR>  (2470) 
University of Tokyo Team, {Faculty of Engineering, University of Tokyo

>  <COMMENT>  (2470) 
SMILES=CCS
InChI=InChI=1S/C2H6S/c1-2-3/h3H,2H2,1H3
computed SMILES=SCC
accession=JP008741
date=2016.01.19 (Created 2008.10.21, modified 2011.05.06)
author=SODA AROMATIC CO., LTD.
license=CC BY-NC-SA
exact mass=62.01902
ionization energy=70 eV
ion type=[M]+*
computed spectral entropy=2.549979898146798
computed normalized entropy=0.7736972434677076
SPLASH=splash10-004j-9000000000-0ec9d334fa1f93950072
submitter=submitter = University of Tokyo Team (Faculty of Engineering, University of Tokyo)
MoNA Rating=3.75

>  <NUM PEAKS>  (2470) 
27

>  <MASS SPECTRAL PEAKS>  (2470) 
14 1.3
15 2.79
25 2.29
26 25.49
27 90.3
28 42.36
29 99.99
30 1.64
32 5.69
33 11.35
34 22.21
35 13.62
44 1.5
45 29.2
46 16.28
47 86.2
48 1.81
49 2.83
56 1.42
57 9.15
58 13.26
59 9.18
60 1.21
61 14.55
62 98.6
63 4.15
64 3.73

$$$$

     RDKit          2D

 16 16  0  0  0  0  0  0  0  0999 V2000
   12.9912   -1.5019    0.0000 C   0  0  0  0  0  0  0  0  0  0  0  0
   11.6923   -0.7517    0.0000 C   0  0  0  0  0  0  0  0  0  0  0  0
   10.3931   -1.5015    0.0000 C   0  0  0  0  0  0  0  0  0  0  0  0
    9.0942   -0.7512    0.0000 C   0  0  0  0  0  0  0  0  0  0  0  0
    7.7951   -1.5010    0.0000 C   0  0  0  0  0  0  0  0  0  0  0  0
    6.4962   -0.7508    0.0000 C   0  0  0  0  0  0  0  0  0  0  0  0
    5.1970   -1.5006    0.0000 C   0  0  0  0  0  0  0  0  0  0  0  0
    3.8981   -0.7504    0.0000 C   0  0  0  0  0  0  0  0  0  0  0  0
   -0.0000    1.5000    0.0000 C   0  0  0  0  0  0  0  0  0  0  0  0
    2.5989   -1.5002    0.0000 C   0  0  0  0  0  0  0  0  0  0  0  0
    1.3000    0.7500    0.0000 C   0  0  0  0  0  0  0  0  0  0  0  0
   -1.3000    0.7500    0.0000 C   0  0  0  0  0  0  0  0  0  0  0  0
    1.3000   -0.7500    0.0000 C   0  0  0  0  0  0  0  0  0  0  0  0
   -1.3000   -0.7500    0.0000 C   0  0  0  0  0  0  0  0  0  0  0  0
   -2.5989   -1.5002    0.0000 O   0  0  0  0  0  0  0  0  0  0  0  0
   -0.0000   -1.5000    0.0000 O   0  0  0  0  0  0  0  0  0  0  0  0
  2  1  1  0
  3  2  1  0
  4  3  1  0
  5  4  1  0
  6  5  1  0
  7  6  1  0
  8  7  1  0
 10  8  1  0
 11  9  1  0
 12  9  1  0
 13 10  1  0
 13 11  1  0
 14 12  1  0
 15 14  2  0
 16 13  1  0
 16 14  1  0
M  END
>  <NAME>  (2471) 
DELTA-TETRADECALACTONE

>  <SYNONYMS>  (2471) 


>  <SPECTRUM TYPE>  (2471) 
MS1

>  <INSTRUMENT TYPE>  (2471) 
EI-B

>  <INSTRUMENT>  (2471) 
HITACHI M-80B

>  <ION MODE>  (2471) 
P

>  <INCHIKEY>  (2471) 
SKQYTJLYRIFFCO-UHFFFAOYSA-N

>  <FORMULA>  (2471) 
C14H26O2

>  <EXACT MASS>  (2471) 
226.193280072

>  <MW>  (2471) 
226

>  <ID>  (2471) 
JP008740

>  <CONTRIBUTOR>  (2471) 
University of Tokyo Team, {Faculty of Engineering, University of Tokyo

>  <COMMENT>  (2471) 
SMILES=CCCCCCCCCC(C1)OC(=O)CC1
InChI=InChI=1S/C14H26O2/c1-2-3-4-5-6-7-8-10-13-11-9-12-14(15)16-13/h13H,2-12H2,1H3
computed SMILES=O=C1OC(CCC1)CCCCCCCCC
accession=JP008740
date=2016.01.19 (Created 2008.10.21, modified 2011.05.06)
author=SODA AROMATIC CO., LTD.
license=CC BY-NC-SA
exact mass=226.19328
ionization energy=70 eV
ion type=[M]+*
computed spectral entropy=3.309749640217999
computed normalized entropy=0.7988515601810103
SPLASH=splash10-006y-9100000000-b53603437a251aaca7a3
submitter=submitter = University of Tokyo Team (Faculty of Engineering, University of Tokyo)
MoNA Rating=3.75

>  <NUM PEAKS>  (2471) 
63

>  <MASS SPECTRAL PEAKS>  (2471) 
27 14.82
28 2.61
29 23.45
39 9.86
40 2.69
41 51.66
42 31.38
43 45.9
44 2.34
53 3.6
54 4.8
55 43.97
56 13.55
57 12.12
58 2.3
60 2.53
67 5.87
68 7.79
69 20.09
70 33.66
71 40.22
72 1.85
73 3.67
79 1.4
81 5.02
82 4.75
83 11.2
84 8.32
85 2.76
86 2.69
87 1.38
95 3.45
96 5.31
97 8.79
98 5.88
99 99.99
100 5.59
101 2.28
109 1.72
110 3.26
111 2.94
112 3.67
113 1.36
114 10.35
115 2.42
123 1.59
124 2.41
125 1.75
126 1.01
127 1.79
128 1.05
134 1.64
137 1.74
138 1.18
139 1.16
142 1.27
151 1.56
155 1.57
164 4.18
165 1.64
166 1.87
190 1.02
208 3.04

$$$$

     RDKit          2D

 15 15  0  0  0  0  0  0  0  0999 V2000
   11.6923   -0.7517    0.0000 C   0  0  0  0  0  0  0  0  0  0  0  0
   10.3931   -1.5015    0.0000 C   0  0  0  0  0  0  0  0  0  0  0  0
    9.0942   -0.7512    0.0000 C   0  0  0  0  0  0  0  0  0  0  0  0
    7.7951   -1.5010    0.0000 C   0  0  0  0  0  0  0  0  0  0  0  0
    6.4962   -0.7508    0.0000 C   0  0  0  0  0  0  0  0  0  0  0  0
    5.1970   -1.5006    0.0000 C   0  0  0  0  0  0  0  0  0  0  0  0
    3.8981   -0.7504    0.0000 C   0  0  0  0  0  0  0  0  0  0  0  0
    0.0000    1.5000    0.0000 C   0  0  0  0  0  0  0  0  0  0  0  0
    2.5989   -1.5002    0.0000 C   0  0  0  0  0  0  0  0  0  0  0  0
    1.3000    0.7500    0.0000 C   0  0  0  0  0  0  0  0  0  0  0  0
   -1.3000    0.7500    0.0000 C   0  0  0  0  0  0  0  0  0  0  0  0
    1.3000   -0.7500    0.0000 C   0  0  0  0  0  0  0  0  0  0  0  0
   -1.3000   -0.7500    0.0000 C   0  0  0  0  0  0  0  0  0  0  0  0
   -2.5989   -1.5002    0.0000 O   0  0  0  0  0  0  0  0  0  0  0  0
   -0.0000   -1.5000    0.0000 O   0  0  0  0  0  0  0  0  0  0  0  0
  2  1  1  0
  3  2  1  0
  4  3  1  0
  5  4  1  0
  6  5  1  0
  7  6  1  0
  9  7  1  0
 10  8  1  0
 11  8  1  0
 12  9  1  0
 12 10  1  0
 13 11  1  0
 14 13  2  0
 15 12  1  0
 15 13  1  0
M  END
>  <NAME>  (2472) 
DELTA-TRIDECALACTONE

>  <SYNONYMS>  (2472) 


>  <SPECTRUM TYPE>  (2472) 
MS1

>  <INSTRUMENT TYPE>  (2472) 
EI-B

>  <INSTRUMENT>  (2472) 
HITACHI M-80B

>  <ION MODE>  (2472) 
P

>  <INCHIKEY>  (2472) 
RZZLMGATMUAJPX-UHFFFAOYSA-N

>  <FORMULA>  (2472) 
C13H24O2

>  <EXACT MASS>  (2472) 
212.177630008

>  <MW>  (2472) 
212

>  <ID>  (2472) 
JP008739

>  <CONTRIBUTOR>  (2472) 
University of Tokyo Team, {Faculty of Engineering, University of Tokyo

>  <COMMENT>  (2472) 
SMILES=CCCCCCCCC(C1)OC(=O)CC1
InChI=InChI=1S/C13H24O2/c1-2-3-4-5-6-7-9-12-10-8-11-13(14)15-12/h12H,2-11H2,1H3
computed SMILES=O=C1OC(CCC1)CCCCCCCC
accession=JP008739
date=2016.01.19 (Created 2008.10.21, modified 2011.05.06)
author=SODA AROMATIC CO., LTD.
license=CC BY-NC-SA
exact mass=212.17763
ionization energy=70 eV
ion type=[M]+*
computed spectral entropy=3.1818890696786255
computed normalized entropy=0.7940165997188077
SPLASH=splash10-006y-9000000000-c87bb6f0150dea0c3ff2
submitter=submitter = University of Tokyo Team (Faculty of Engineering, University of Tokyo)
MoNA Rating=3.75

>  <NUM PEAKS>  (2472) 
55

>  <MASS SPECTRAL PEAKS>  (2472) 
27 18.7
28 2.41
29 22.95
39 12.63
40 2.3
41 49.85
42 33.02
43 38.65
44 2.03
53 3.04
54 4.98
55 38.85
56 16.54
57 13.82
58 2.04
60 1.9
67 5.08
68 6.59
69 18.77
70 31.88
71 37.03
72 1.46
73 2.67
81 3.62
82 3.48
83 7.01
84 5.97
85 1.41
86 2.28
87 1.13
95 2.27
96 4.63
97 6.06
98 6.28
99 99.99
100 5.06
109 1.29
110 3.13
111 2.63
112 1.42
114 12.65
115 2.2
123 1.5
124 1.35
125 1.28
127 1.1
134 1.02
137 1.2
141 2.05
142 1.3
150 3.91
151 1.39
152 2.16
176 1.3
194 2.01

$$$$

     RDKit          2D

 14 14  0  0  0  0  0  0  0  0999 V2000
   10.3931   -1.5015    0.0000 C   0  0  0  0  0  0  0  0  0  0  0  0
    9.0942   -0.7512    0.0000 C   0  0  0  0  0  0  0  0  0  0  0  0
    7.7951   -1.5010    0.0000 C   0  0  0  0  0  0  0  0  0  0  0  0
    6.4962   -0.7508    0.0000 C   0  0  0  0  0  0  0  0  0  0  0  0
    5.1970   -1.5006    0.0000 C   0  0  0  0  0  0  0  0  0  0  0  0
    3.8981   -0.7504    0.0000 C   0  0  0  0  0  0  0  0  0  0  0  0
   -0.0000    1.5000    0.0000 C   0  0  0  0  0  0  0  0  0  0  0  0
    2.5989   -1.5002    0.0000 C   0  0  0  0  0  0  0  0  0  0  0  0
    1.3000    0.7500    0.0000 C   0  0  0  0  0  0  0  0  0  0  0  0
   -1.3000    0.7500    0.0000 C   0  0  0  0  0  0  0  0  0  0  0  0
    1.3000   -0.7500    0.0000 C   0  0  0  0  0  0  0  0  0  0  0  0
   -1.3000   -0.7500    0.0000 C   0  0  0  0  0  0  0  0  0  0  0  0
   -2.5989   -1.5002    0.0000 O   0  0  0  0  0  0  0  0  0  0  0  0
   -0.0000   -1.5000    0.0000 O   0  0  0  0  0  0  0  0  0  0  0  0
  2  1  1  0
  3  2  1  0
  4  3  1  0
  5  4  1  0
  6  5  1  0
  8  6  1  0
  9  7  1  0
 10  7  1  0
 11  8  1  0
 11  9  1  0
 12 10  1  0
 13 12  2  0
 14 11  1  0
 14 12  1  0
M  END
>  <NAME>  (2473) 
DELTA-DODECALACTONE

>  <SYNONYMS>  (2473) 


>  <SPECTRUM TYPE>  (2473) 
MS1

>  <INSTRUMENT TYPE>  (2473) 
EI-B

>  <INSTRUMENT>  (2473) 
HITACHI M-80B

>  <ION MODE>  (2473) 
P

>  <INCHIKEY>  (2473) 
QRPLZGZHJABGRS-UHFFFAOYSA-N

>  <FORMULA>  (2473) 
C12H22O2

>  <EXACT MASS>  (2473) 
198.161979944

>  <MW>  (2473) 
198

>  <ID>  (2473) 
JP008738

>  <CONTRIBUTOR>  (2473) 
University of Tokyo Team, {Faculty of Engineering, University of Tokyo

>  <COMMENT>  (2473) 
SMILES=CCCCCCCC(C1)OC(=O)CC1
InChI=InChI=1S/C12H22O2/c1-2-3-4-5-6-8-11-9-7-10-12(13)14-11/h11H,2-10H2,1H3
computed SMILES=O=C1OC(CCC1)CCCCCCC
accession=JP008738
date=2016.01.19 (Created 2008.10.21, modified 2011.05.06)
author=SODA AROMATIC CO., LTD.
license=CC BY-NC-SA
exact mass=198.16198
ionization energy=70 eV
ion type=[M]+*
computed spectral entropy=3.152152053026595
computed normalized entropy=0.7939345825598105
SPLASH=splash10-006y-9000000000-6dde1f4e9eb6e77e2909
submitter=submitter = University of Tokyo Team (Faculty of Engineering, University of Tokyo)
MoNA Rating=3.75

>  <NUM PEAKS>  (2473) 
53

>  <MASS SPECTRAL PEAKS>  (2473) 
26 1.04
27 22.19
28 2.55
29 23.44
39 13.5
40 2.86
41 44.86
42 31.68
43 35.78
44 2.18
53 3.04
54 4.47
55 36.32
56 15.75
57 8.55
58 1.81
60 2.18
67 4.55
68 5.69
69 13.9
70 30.28
71 38.74
72 2
73 2.64
79 1.09
81 3.55
82 2.62
83 5.5
84 7.12
85 1.48
86 2.55
87 1.01
95 2.13
96 4.78
97 5.31
98 4.1
99 99.99
100 5.77
101 1.3
109 1.13
110 2.25
111 2.1
114 10.67
115 2.3
123 1.24
124 1.08
127 2.86
136 3.11
137 1.45
138 2.41
142 1.36
162 2.1
180 2.07

$$$$

     RDKit          2D

 13 13  0  0  0  0  0  0  0  0999 V2000
    9.0942   -0.7512    0.0000 C   0  0  0  0  0  0  0  0  0  0  0  0
    7.7951   -1.5010    0.0000 C   0  0  0  0  0  0  0  0  0  0  0  0
    6.4962   -0.7508    0.0000 C   0  0  0  0  0  0  0  0  0  0  0  0
    5.1970   -1.5006    0.0000 C   0  0  0  0  0  0  0  0  0  0  0  0
    3.8981   -0.7504    0.0000 C   0  0  0  0  0  0  0  0  0  0  0  0
   -0.0000    1.5000    0.0000 C   0  0  0  0  0  0  0  0  0  0  0  0
    2.5989   -1.5002    0.0000 C   0  0  0  0  0  0  0  0  0  0  0  0
    1.3000    0.7500    0.0000 C   0  0  0  0  0  0  0  0  0  0  0  0
   -1.3000    0.7500    0.0000 C   0  0  0  0  0  0  0  0  0  0  0  0
    1.3000   -0.7500    0.0000 C   0  0  0  0  0  0  0  0  0  0  0  0
   -1.3000   -0.7500    0.0000 C   0  0  0  0  0  0  0  0  0  0  0  0
   -2.5989   -1.5002    0.0000 O   0  0  0  0  0  0  0  0  0  0  0  0
   -0.0000   -1.5000    0.0000 O   0  0  0  0  0  0  0  0  0  0  0  0
  2  1  1  0
  3  2  1  0
  4  3  1  0
  5  4  1  0
  7  5  1  0
  8  6  1  0
  9  6  1  0
 10  7  1  0
 10  8  1  0
 11  9  1  0
 12 11  2  0
 13 10  1  0
 13 11  1  0
M  END
>  <NAME>  (2474) 
DELTA-UNDECALACTONE

>  <SYNONYMS>  (2474) 


>  <SPECTRUM TYPE>  (2474) 
MS1

>  <INSTRUMENT TYPE>  (2474) 
EI-B

>  <INSTRUMENT>  (2474) 
HITACHI M-80B

>  <ION MODE>  (2474) 
P

>  <INCHIKEY>  (2474) 
YZRXRLLRSPQHDK-UHFFFAOYSA-N

>  <FORMULA>  (2474) 
C11H20O2

>  <EXACT MASS>  (2474) 
184.14632988

>  <MW>  (2474) 
184

>  <ID>  (2474) 
JP008737

>  <CONTRIBUTOR>  (2474) 
University of Tokyo Team, {Faculty of Engineering, University of Tokyo

>  <COMMENT>  (2474) 
SMILES=CCCCCCC(C1)OC(=O)CC1
InChI=InChI=1S/C11H20O2/c1-2-3-4-5-7-10-8-6-9-11(12)13-10/h10H,2-9H2,1H3
computed SMILES=O=C1OC(CCC1)CCCCCC
accession=JP008737
date=2016.01.19 (Created 2008.10.21, modified 2011.05.06)
author=SODA AROMATIC CO., LTD.
license=CC BY-NC-SA
exact mass=184.14633
ionization energy=70 eV
ion type=[M]+*
computed spectral entropy=3.091748823662474
computed normalized entropy=0.7787207819931716
SPLASH=splash10-006y-9000000000-1835014547e93eed9e19
submitter=submitter = University of Tokyo Team (Faculty of Engineering, University of Tokyo)
MoNA Rating=3.75

>  <NUM PEAKS>  (2474) 
53

>  <MASS SPECTRAL PEAKS>  (2474) 
26 1.41
27 21.68
28 1.85
29 20.01
31 1.19
39 11.65
40 2.98
41 46.5
42 34.26
43 38.16
44 3.55
51 1.13
53 3.47
54 4.19
55 34.06
56 8.63
57 4.11
58 1.09
60 2.13
67 3.05
68 6.01
69 9.66
70 34.12
71 41.9
72 2.2
73 1.92
81 2.15
82 3.26
83 5.47
84 4.97
85 2.07
86 2.95
87 1.13
95 2.03
96 4.1
97 4.43
98 2.86
99 99.99
100 5.72
101 1.39
110 1.3
112 1.51
113 3.06
114 10.94
115 2.11
122 3.07
123 1.5
124 2.26
125 1.14
141 1.06
142 1.38
148 2.54
166 2.37

$$$$

     RDKit          2D

 12 12  0  0  0  0  0  0  0  0999 V2000
    7.7951   -1.5010    0.0000 C   0  0  0  0  0  0  0  0  0  0  0  0
    6.4962   -0.7508    0.0000 C   0  0  0  0  0  0  0  0  0  0  0  0
    5.1970   -1.5006    0.0000 C   0  0  0  0  0  0  0  0  0  0  0  0
    3.8981   -0.7504    0.0000 C   0  0  0  0  0  0  0  0  0  0  0  0
   -0.0000    1.5000    0.0000 C   0  0  0  0  0  0  0  0  0  0  0  0
    2.5989   -1.5002    0.0000 C   0  0  0  0  0  0  0  0  0  0  0  0
    1.3000    0.7500    0.0000 C   0  0  0  0  0  0  0  0  0  0  0  0
   -1.3000    0.7500    0.0000 C   0  0  0  0  0  0  0  0  0  0  0  0
    1.3000   -0.7500    0.0000 C   0  0  0  0  0  0  0  0  0  0  0  0
   -1.3000   -0.7500    0.0000 C   0  0  0  0  0  0  0  0  0  0  0  0
   -2.5989   -1.5002    0.0000 O   0  0  0  0  0  0  0  0  0  0  0  0
   -0.0000   -1.5000    0.0000 O   0  0  0  0  0  0  0  0  0  0  0  0
  2  1  1  0
  3  2  1  0
  4  3  1  0
  6  4  1  0
  7  5  1  0
  8  5  1  0
  9  6  1  0
  9  7  1  0
 10  8  1  0
 11 10  2  0
 12  9  1  0
 12 10  1  0
M  END
>  <NAME>  (2475) 
DELTA-DECALACTONE

>  <SYNONYMS>  (2475) 


>  <SPECTRUM TYPE>  (2475) 
MS1

>  <INSTRUMENT TYPE>  (2475) 
EI-B

>  <INSTRUMENT>  (2475) 
HITACHI M-80B

>  <ION MODE>  (2475) 
P

>  <INCHIKEY>  (2475) 
GHBSPIPJMLAMEP-UHFFFAOYSA-N

>  <FORMULA>  (2475) 
C10H18O2

>  <EXACT MASS>  (2475) 
170.130679816

>  <MW>  (2475) 
170

>  <ID>  (2475) 
JP008736

>  <CONTRIBUTOR>  (2475) 
University of Tokyo Team, {Faculty of Engineering, University of Tokyo

>  <COMMENT>  (2475) 
SMILES=CCCCCC(C1)OC(=O)CC1
InChI=InChI=1S/C10H18O2/c1-2-3-4-6-9-7-5-8-10(11)12-9/h9H,2-8H2,1H3
computed SMILES=O=C1OC(CCC1)CCCCC
accession=JP008736
date=2016.01.19 (Created 2008.10.21, modified 2011.05.06)
author=SODA AROMATIC CO., LTD.
license=CC BY-NC-SA
exact mass=170.13068
ionization energy=70 eV
ion type=[M]+*
computed spectral entropy=2.8850570304629906
computed normalized entropy=0.7768953930718783
SPLASH=splash10-006y-9000000000-ac2a38db48be894bcefb
submitter=submitter = University of Tokyo Team (Faculty of Engineering, University of Tokyo)
MoNA Rating=3.75

>  <NUM PEAKS>  (2475) 
41

>  <MASS SPECTRAL PEAKS>  (2475) 
15 1.29
26 1.29
27 23.44
28 3.99
29 19.03
39 15.81
40 3.05
41 36.84
42 37.32
43 31.15
44 2.69
53 2.92
54 2.77
55 33.78
56 15.08
57 3.92
58 1.03
60 1.67
67 1.9
68 5.4
69 8.68
70 29.78
71 41.07
72 2.3
73 1.22
81 1.58
82 1.55
83 2.82
84 3.37
86 2.41
96 2.45
97 2.64
98 2.12
99 99.99
108 1.97
110 1.92
111 1.11
114 11.05
115 1.19
134 1.85
152 2.98

$$$$

     RDKit          2D

 11 11  0  0  0  0  0  0  0  0999 V2000
    6.4962   -0.7508    0.0000 C   0  0  0  0  0  0  0  0  0  0  0  0
    5.1970   -1.5006    0.0000 C   0  0  0  0  0  0  0  0  0  0  0  0
    3.8981   -0.7504    0.0000 C   0  0  0  0  0  0  0  0  0  0  0  0
   -0.0000    1.5000    0.0000 C   0  0  0  0  0  0  0  0  0  0  0  0
    2.5989   -1.5002    0.0000 C   0  0  0  0  0  0  0  0  0  0  0  0
    1.3000    0.7500    0.0000 C   0  0  0  0  0  0  0  0  0  0  0  0
   -1.3000    0.7500    0.0000 C   0  0  0  0  0  0  0  0  0  0  0  0
    1.3000   -0.7500    0.0000 C   0  0  0  0  0  0  0  0  0  0  0  0
   -1.3000   -0.7500    0.0000 C   0  0  0  0  0  0  0  0  0  0  0  0
   -2.5989   -1.5002    0.0000 O   0  0  0  0  0  0  0  0  0  0  0  0
   -0.0000   -1.5000    0.0000 O   0  0  0  0  0  0  0  0  0  0  0  0
  2  1  1  0
  3  2  1  0
  5  3  1  0
  6  4  1  0
  7  4  1  0
  8  5  1  0
  8  6  1  0
  9  7  1  0
 10  9  2  0
 11  8  1  0
 11  9  1  0
M  END
>  <NAME>  (2476) 
DELTA-NONALACTONE

>  <SYNONYMS>  (2476) 


>  <SPECTRUM TYPE>  (2476) 
MS1

>  <INSTRUMENT TYPE>  (2476) 
EI-B

>  <INSTRUMENT>  (2476) 
HITACHI M-80B

>  <ION MODE>  (2476) 
P

>  <INCHIKEY>  (2476) 
PXRBWNLUQYZAAX-UHFFFAOYSA-N

>  <FORMULA>  (2476) 
C9H16O2

>  <EXACT MASS>  (2476) 
156.115029752

>  <MW>  (2476) 
156

>  <ID>  (2476) 
JP008735

>  <CONTRIBUTOR>  (2476) 
University of Tokyo Team, {Faculty of Engineering, University of Tokyo

>  <COMMENT>  (2476) 
SMILES=CCCCC(C1)OC(=O)CC1
InChI=InChI=1S/C9H16O2/c1-2-3-5-8-6-4-7-9(10)11-8/h8H,2-7H2,1H3
computed SMILES=O=C1OC(CCC1)CCCC
accession=JP008735
date=2016.01.19 (Created 2008.10.21, modified 2011.05.06)
author=SODA AROMATIC CO., LTD.
license=CC BY-NC-SA
exact mass=156.11503
ionization energy=70 eV
ion type=[M]+*
computed spectral entropy=2.938849567030433
computed normalized entropy=0.7813595332958005
SPLASH=splash10-006y-9000000000-726e12b176464d011270
submitter=submitter = University of Tokyo Team (Faculty of Engineering, University of Tokyo)
MoNA Rating=3.75

>  <NUM PEAKS>  (2476) 
43

>  <MASS SPECTRAL PEAKS>  (2476) 
15 2.31
17 1.15
26 2.36
27 24.55
28 1.17
29 21.37
39 14.95
40 3.29
41 38.72
42 41.72
43 28.78
44 3.58
53 2.99
54 4.04
55 30.82
56 14.49
57 7.05
58 1.63
60 2.08
67 2.17
68 3.96
69 8.6
70 29.46
71 48.03
72 2.85
81 1.42
83 2.69
84 3.95
85 3.44
86 3.14
95 1.13
96 3.05
97 1.54
99 99.99
100 5.74
101 1.15
113 1.23
114 10.72
115 1.24
127 1.15
128 1.07
138 4.61
156 1.85

$$$$

     RDKit          2D

 10 10  0  0  0  0  0  0  0  0999 V2000
   -2.5989    1.5000    0.0000 C   0  0  0  0  0  0  0  0  0  0  0  0
   -1.3000    0.7498    0.0000 C   0  0  0  0  0  0  0  0  0  0  0  0
    2.5981   -1.5006    0.0000 C   0  0  0  0  0  0  0  0  0  0  0  0
   -0.0008    1.4996    0.0000 C   0  0  0  0  0  0  0  0  0  0  0  0
    1.2981   -0.7506    0.0000 C   0  0  0  0  0  0  0  0  0  0  0  0
    3.8981   -0.7506    0.0000 C   0  0  0  0  0  0  0  0  0  0  0  0
    1.2981    0.7494    0.0000 C   0  0  0  0  0  0  0  0  0  0  0  0
    3.8981    0.7494    0.0000 C   0  0  0  0  0  0  0  0  0  0  0  0
    5.1970    1.4996    0.0000 O   0  0  0  0  0  0  0  0  0  0  0  0
    2.5981    1.4994    0.0000 O   0  0  0  0  0  0  0  0  0  0  0  0
  2  1  1  0
  4  2  1  0
  5  3  1  0
  6  3  1  0
  7  4  1  0
  7  5  1  0
  8  6  1  0
  9  8  2  0
 10  7  1  0
 10  8  1  0
M  END
>  <NAME>  (2477) 
DELTA-OCTALACTONE

>  <SYNONYMS>  (2477) 


>  <SPECTRUM TYPE>  (2477) 
MS1

>  <INSTRUMENT TYPE>  (2477) 
EI-B

>  <INSTRUMENT>  (2477) 
HITACHI M-80B

>  <ION MODE>  (2477) 
P

>  <INCHIKEY>  (2477) 
FYTRVXSHONWYNE-UHFFFAOYSA-N

>  <FORMULA>  (2477) 
C8H14O2

>  <EXACT MASS>  (2477) 
142.099379688

>  <MW>  (2477) 
142

>  <ID>  (2477) 
JP008734

>  <CONTRIBUTOR>  (2477) 
University of Tokyo Team, {Faculty of Engineering, University of Tokyo

>  <COMMENT>  (2477) 
SMILES=CCCC(C1)OC(=O)CC1
InChI=InChI=1S/C8H14O2/c1-2-4-7-5-3-6-8(9)10-7/h7H,2-6H2,1H3
computed SMILES=O=C1OC(CCC)CCC1
accession=JP008734
date=2016.01.19 (Created 2008.10.21, modified 2011.05.06)
author=SODA AROMATIC CO., LTD.
license=CC BY-NC-SA
exact mass=142.09938
ionization energy=70 eV
ion type=[M]+*
computed spectral entropy=2.7001649057591774
computed normalized entropy=0.7722462652495148
SPLASH=splash10-006y-9000000000-b4b0181c1887ad4c1088
submitter=submitter = University of Tokyo Team (Faculty of Engineering, University of Tokyo)
MoNA Rating=3.75

>  <NUM PEAKS>  (2477) 
33

>  <MASS SPECTRAL PEAKS>  (2477) 
15 2.76
26 2.82
27 29.52
28 3.32
29 14.32
31 1.58
38 1.72
39 21.87
40 4.41
41 39.55
42 55.89
43 34.58
44 3.73
51 1.52
53 2.91
54 2.77
55 38.29
56 7.63
57 2.23
67 2.26
68 2.24
69 5.16
70 40.58
71 56.37
72 3.12
73 1.2
83 1.28
86 1.57
99 99.99
100 4.96
114 7.27
124 2.73
142 1.69

$$$$

     RDKit          2D

  8  8  0  0  0  0  0  0  0  0999 V2000
   -2.5989    1.5000    0.0000 C   0  0  0  0  0  0  0  0  0  0  0  0
   -0.0000   -1.5002    0.0000 C   0  0  0  0  0  0  0  0  0  0  0  0
   -1.3000   -0.7502    0.0000 C   0  0  0  0  0  0  0  0  0  0  0  0
    1.3000   -0.7502    0.0000 C   0  0  0  0  0  0  0  0  0  0  0  0
   -1.3000    0.7498    0.0000 C   0  0  0  0  0  0  0  0  0  0  0  0
    1.3000    0.7498    0.0000 C   0  0  0  0  0  0  0  0  0  0  0  0
    2.5989    1.5000    0.0000 O   0  0  0  0  0  0  0  0  0  0  0  0
   -0.0000    1.4998    0.0000 O   0  0  0  0  0  0  0  0  0  0  0  0
  3  2  1  0
  4  2  1  0
  5  1  1  0
  5  3  1  0
  6  4  1  0
  7  6  2  0
  8  5  1  0
  8  6  1  0
M  END
>  <NAME>  (2478) 
DELTA-HEXALACTONE

>  <SYNONYMS>  (2478) 


>  <SPECTRUM TYPE>  (2478) 
MS1

>  <INSTRUMENT TYPE>  (2478) 
EI-B

>  <INSTRUMENT>  (2478) 
HITACHI M-80B

>  <ION MODE>  (2478) 
P

>  <INCHIKEY>  (2478) 
RZTOWFMDBDPERY-UHFFFAOYSA-N

>  <FORMULA>  (2478) 
C6H10O2

>  <EXACT MASS>  (2478) 
114.06807956

>  <MW>  (2478) 
114

>  <ID>  (2478) 
JP008733

>  <CONTRIBUTOR>  (2478) 
University of Tokyo Team, {Faculty of Engineering, University of Tokyo

>  <COMMENT>  (2478) 
SMILES=CC(C1)OC(=O)CC1
InChI=InChI=1S/C6H10O2/c1-5-3-2-4-6(7)8-5/h5H,2-4H2,1H3
computed SMILES=O=C1OC(C)CCC1
accession=JP008733
date=2016.01.19 (Created 2008.10.21, modified 2011.05.06)
author=SODA AROMATIC CO., LTD.
license=CC BY-NC-SA
exact mass=114.06808
ionization energy=70 eV
ion type=[M]+*
computed spectral entropy=2.189409770424048
computed normalized entropy=0.7574837957929915
SPLASH=splash10-0006-9000000000-ec974c9bdaa10e2a4003
submitter=submitter = University of Tokyo Team (Faculty of Engineering, University of Tokyo)
MoNA Rating=3.75

>  <NUM PEAKS>  (2478) 
18

>  <MASS SPECTRAL PEAKS>  (2478) 
15 3.31
26 2.55
27 12.48
28 2.72
29 6.16
39 13.41
40 4.7
41 19.82
42 99.99
43 22.94
44 1.69
53 2.33
55 19.39
70 51.07
71 12.36
85 1.61
99 4.96
114 5.44

$$$$

     RDKit          2D

 14 14  0  0  0  0  0  0  0  0999 V2000
    9.0501   -3.6466    0.0000 C   0  0  0  0  0  0  0  0  0  0  0  0
    7.7490   -2.9001    0.0000 C   0  0  0  0  0  0  0  0  0  0  0  0
    6.4520   -3.6537    0.0000 C   0  0  0  0  0  0  0  0  0  0  0  0
    5.1509   -2.9073    0.0000 C   0  0  0  0  0  0  0  0  0  0  0  0
    3.8540   -3.6608    0.0000 C   0  0  0  0  0  0  0  0  0  0  0  0
    2.5529   -2.9144    0.0000 C   0  0  0  0  0  0  0  0  0  0  0  0
    1.2559   -3.6679    0.0000 C   0  0  0  0  0  0  0  0  0  0  0  0
   -0.0452   -2.9215    0.0000 C   0  0  0  0  0  0  0  0  0  0  0  0
   -1.4904   -5.1634    0.0000 C   0  0  0  0  0  0  0  0  0  0  0  0
   -2.9669   -5.4803    0.0000 C   0  0  0  0  0  0  0  0  0  0  0  0
   -1.3422   -3.6750    0.0000 C   0  0  0  0  0  0  0  0  0  0  0  0
   -3.7103   -4.1751    0.0000 C   0  0  0  0  0  0  0  0  0  0  0  0
   -5.2017   -4.0146    0.0000 O   0  0  0  0  0  0  0  0  0  0  0  0
   -2.7125   -3.0649    0.0000 O   0  0  0  0  0  0  0  0  0  0  0  0
  2  1  1  0
  3  2  1  0
  4  3  1  0
  5  4  1  0
  6  5  1  0
  7  6  1  0
  8  7  1  0
 10  9  1  0
 11  8  1  0
 11  9  1  0
 12 10  1  0
 13 12  2  0
 14 11  1  0
 14 12  1  0
M  END
>  <NAME>  (2479) 
GAMMA-DODECALACTONE

>  <SYNONYMS>  (2479) 


>  <SPECTRUM TYPE>  (2479) 
MS1

>  <INSTRUMENT TYPE>  (2479) 
EI-B

>  <INSTRUMENT>  (2479) 
HITACHI M-80B

>  <ION MODE>  (2479) 
P

>  <INCHIKEY>  (2479) 
WGPCZPLRVAWXPW-UHFFFAOYSA-N

>  <FORMULA>  (2479) 
C12H22O2

>  <EXACT MASS>  (2479) 
198.161979944

>  <MW>  (2479) 
198

>  <ID>  (2479) 
JP008732

>  <CONTRIBUTOR>  (2479) 
University of Tokyo Team, {Faculty of Engineering, University of Tokyo

>  <COMMENT>  (2479) 
SMILES=CCCCCCCCC(C1)OC(=O)C1
InChI=InChI=1S/C12H22O2/c1-2-3-4-5-6-7-8-11-9-10-12(13)14-11/h11H,2-10H2,1H3
computed SMILES=O=C1OC(CC1)CCCCCCCC
accession=JP008732
date=2016.01.19 (Created 2008.10.21, modified 2011.05.06)
author=SODA AROMATIC CO., LTD.
license=CC BY-NC-SA
exact mass=198.16198
ionization energy=70 eV
ion type=[M]+*
computed spectral entropy=2.8658219658969735
computed normalized entropy=0.7619434961568159
SPLASH=splash10-000i-9000000000-a490bf6e0f9a2e81e23b
submitter=submitter = University of Tokyo Team (Faculty of Engineering, University of Tokyo)
MoNA Rating=3.75

>  <NUM PEAKS>  (2479) 
43

>  <MASS SPECTRAL PEAKS>  (2479) 
27 9.57
28 4.97
29 27.54
39 5.25
41 23.09
42 4.93
43 14.11
53 1.6
54 3.06
55 16.65
56 11.62
57 8.23
58 1.37
60 1.41
67 2.52
68 2.93
69 7.27
70 4.65
71 2.64
72 2.11
73 1.65
81 2.5
82 1.77
83 4.8
84 4.34
85 99.99
86 3.79
87 1.29
95 1.91
96 3.28
97 2.84
98 3.02
100 4.29
110 2.12
111 1.34
114 2.41
123 1.14
128 6.59
136 2.05
138 1.73
139 1.2
141 1.28
180 1.12

$$$$

     RDKit          2D

 13 13  0  0  0  0  0  0  0  0999 V2000
    8.4306   -2.4575    0.0000 C   0  0  0  0  0  0  0  0  0  0  0  0
    7.1336   -3.2111    0.0000 C   0  0  0  0  0  0  0  0  0  0  0  0
    5.8325   -2.4646    0.0000 C   0  0  0  0  0  0  0  0  0  0  0  0
    4.5356   -3.2182    0.0000 C   0  0  0  0  0  0  0  0  0  0  0  0
    3.2345   -2.4717    0.0000 C   0  0  0  0  0  0  0  0  0  0  0  0
    1.9375   -3.2253    0.0000 C   0  0  0  0  0  0  0  0  0  0  0  0
    0.6364   -2.4789    0.0000 C   0  0  0  0  0  0  0  0  0  0  0  0
   -0.8088   -4.7208    0.0000 C   0  0  0  0  0  0  0  0  0  0  0  0
   -2.2853   -5.0376    0.0000 C   0  0  0  0  0  0  0  0  0  0  0  0
   -0.6606   -3.2324    0.0000 C   0  0  0  0  0  0  0  0  0  0  0  0
   -3.0287   -3.7324    0.0000 C   0  0  0  0  0  0  0  0  0  0  0  0
   -4.5201   -3.5719    0.0000 O   0  0  0  0  0  0  0  0  0  0  0  0
   -2.0309   -2.6223    0.0000 O   0  0  0  0  0  0  0  0  0  0  0  0
  2  1  1  0
  3  2  1  0
  4  3  1  0
  5  4  1  0
  6  5  1  0
  7  6  1  0
  9  8  1  0
 10  7  1  0
 10  8  1  0
 11  9  1  0
 12 11  2  0
 13 10  1  0
 13 11  1  0
M  END
>  <NAME>  (2480) 
GAMMA-UNDECALACTONE

>  <SYNONYMS>  (2480) 


>  <SPECTRUM TYPE>  (2480) 
MS1

>  <INSTRUMENT TYPE>  (2480) 
EI-B

>  <INSTRUMENT>  (2480) 
HITACHI M-80B

>  <ION MODE>  (2480) 
P

>  <INCHIKEY>  (2480) 
PHXATPHONSXBIL-UHFFFAOYSA-N

>  <FORMULA>  (2480) 
C11H20O2

>  <EXACT MASS>  (2480) 
184.14632988

>  <MW>  (2480) 
184

>  <ID>  (2480) 
JP008731

>  <CONTRIBUTOR>  (2480) 
University of Tokyo Team, {Faculty of Engineering, University of Tokyo

>  <COMMENT>  (2480) 
SMILES=CCCCCCCC(C1)OC(=O)C1
InChI=InChI=1S/C11H20O2/c1-2-3-4-5-6-7-10-8-9-11(12)13-10/h10H,2-9H2,1H3
computed SMILES=O=C1OC(CC1)CCCCCCC
accession=JP008731
date=2016.01.19 (Created 2008.10.21, modified 2011.05.06)
author=SODA AROMATIC CO., LTD.
license=CC BY-NC-SA
exact mass=184.14633
ionization energy=70 eV
ion type=[M]+*
computed spectral entropy=2.7349830167841276
computed normalized entropy=0.7317348230580761
SPLASH=splash10-000i-9000000000-3cc053772b2ab360bfdb
submitter=submitter = University of Tokyo Team (Faculty of Engineering, University of Tokyo)
MoNA Rating=3.75

>  <NUM PEAKS>  (2480) 
42

>  <MASS SPECTRAL PEAKS>  (2480) 
27 11.42
28 4.21
29 25.64
39 5.66
40 1.1
41 18.15
42 4.98
43 10.26
44 1.13
53 1.67
54 2.17
55 13.39
56 10.89
57 7.41
60 1.15
67 2.03
68 2.2
69 5.57
70 2.98
71 1.58
72 2.07
73 1.41
81 1.75
82 1.93
83 2.59
84 3.86
85 99.99
86 3.69
87 1.08
95 1.4
96 1.7
97 1.37
98 1.32
100 3.9
101 1.72
110 1.28
114 1.88
122 1.17
124 1.49
125 1.4
127 1.73
128 7.33

$$$$

     RDKit          2D

 12 12  0  0  0  0  0  0  0  0999 V2000
    7.2193   -3.0815    0.0000 C   0  0  0  0  0  0  0  0  0  0  0  0
    6.0034   -2.2032    0.0000 C   0  0  0  0  0  0  0  0  0  0  0  0
    4.6347   -2.8170    0.0000 C   0  0  0  0  0  0  0  0  0  0  0  0
    3.4188   -1.9387    0.0000 C   0  0  0  0  0  0  0  0  0  0  0  0
    2.0502   -2.5525    0.0000 C   0  0  0  0  0  0  0  0  0  0  0  0
    0.8342   -1.6742    0.0000 C   0  0  0  0  0  0  0  0  0  0  0  0
   -0.8374   -3.7528    0.0000 C   0  0  0  0  0  0  0  0  0  0  0  0
   -2.3389   -3.9135    0.0000 C   0  0  0  0  0  0  0  0  0  0  0  0
   -0.5344   -2.2880    0.0000 C   0  0  0  0  0  0  0  0  0  0  0  0
   -2.9418   -2.5378    0.0000 C   0  0  0  0  0  0  0  0  0  0  0  0
   -4.4083   -2.2223    0.0000 O   0  0  0  0  0  0  0  0  0  0  0  0
   -1.8335   -1.5380    0.0000 O   0  0  0  0  0  0  0  0  0  0  0  0
  2  1  1  0
  3  2  1  0
  4  3  1  0
  5  4  1  0
  6  5  1  0
  8  7  1  0
  9  6  1  0
  9  7  1  0
 10  8  1  0
 11 10  2  0
 12  9  1  0
 12 10  1  0
M  END
>  <NAME>  (2481) 
GAMMA-DECALACTONE

>  <SYNONYMS>  (2481) 


>  <SPECTRUM TYPE>  (2481) 
MS1

>  <INSTRUMENT TYPE>  (2481) 
EI-B

>  <INSTRUMENT>  (2481) 
HITACHI M-80B

>  <ION MODE>  (2481) 
P

>  <INCHIKEY>  (2481) 
IFYYFLINQYPWGJ-UHFFFAOYSA-N

>  <FORMULA>  (2481) 
C10H18O2

>  <EXACT MASS>  (2481) 
170.130679816

>  <MW>  (2481) 
170

>  <ID>  (2481) 
JP008730

>  <CONTRIBUTOR>  (2481) 
University of Tokyo Team, {Faculty of Engineering, University of Tokyo

>  <COMMENT>  (2481) 
SMILES=CCCCCCC(C1)OC(=O)C1
InChI=InChI=1S/C10H18O2/c1-2-3-4-5-6-9-7-8-10(11)12-9/h9H,2-8H2,1H3
computed SMILES=O=C1OC(CC1)CCCCCC
accession=JP008730
date=2016.01.19 (Created 2008.10.21, modified 2011.05.06)
author=SODA AROMATIC CO., LTD.
license=CC BY-NC-SA
exact mass=170.13068
ionization energy=70 eV
ion type=[M]+*
computed spectral entropy=2.4490706504347064
computed normalized entropy=0.7004333917148844
SPLASH=splash10-000i-9000000000-4b166790a11e7c302d92
submitter=submitter = University of Tokyo Team (Faculty of Engineering, University of Tokyo)
MoNA Rating=3.75

>  <NUM PEAKS>  (2481) 
33

>  <MASS SPECTRAL PEAKS>  (2481) 
26 1.03
27 11.36
28 5.9
29 23.41
39 5.03
40 1.02
41 15.67
42 4.09
43 10.45
53 1.37
54 1.62
55 10.9
56 6.57
57 4.87
58 1.25
67 1.13
68 1.5
69 3.07
70 3.13
71 1.05
72 1.55
81 1.3
83 1.47
84 2.4
85 99.99
86 3.68
97 1.11
100 3.56
110 1.59
111 1.24
113 1.8
114 1.42
128 7.83

$$$$

     RDKit          2D

 11 11  0  0  0  0  0  0  0  0999 V2000
    6.6495   -1.8301    0.0000 C   0  0  0  0  0  0  0  0  0  0  0  0
    5.2809   -2.4440    0.0000 C   0  0  0  0  0  0  0  0  0  0  0  0
    4.0649   -1.5656    0.0000 C   0  0  0  0  0  0  0  0  0  0  0  0
    2.6963   -2.1795    0.0000 C   0  0  0  0  0  0  0  0  0  0  0  0
    1.4804   -1.3011    0.0000 C   0  0  0  0  0  0  0  0  0  0  0  0
   -0.1912   -3.3797    0.0000 C   0  0  0  0  0  0  0  0  0  0  0  0
   -1.6928   -3.5405    0.0000 C   0  0  0  0  0  0  0  0  0  0  0  0
    0.1117   -1.9150    0.0000 C   0  0  0  0  0  0  0  0  0  0  0  0
   -2.2957   -2.1647    0.0000 C   0  0  0  0  0  0  0  0  0  0  0  0
   -3.7621   -1.8492    0.0000 O   0  0  0  0  0  0  0  0  0  0  0  0
   -1.1873   -1.1650    0.0000 O   0  0  0  0  0  0  0  0  0  0  0  0
  2  1  1  0
  3  2  1  0
  4  3  1  0
  5  4  1  0
  7  6  1  0
  8  5  1  0
  8  6  1  0
  9  7  1  0
 10  9  2  0
 11  8  1  0
 11  9  1  0
M  END
>  <NAME>  (2482) 
GAMMA-NONALACTONE

>  <SYNONYMS>  (2482) 


>  <SPECTRUM TYPE>  (2482) 
MS1

>  <INSTRUMENT TYPE>  (2482) 
EI-B

>  <INSTRUMENT>  (2482) 
HITACHI M-80B

>  <ION MODE>  (2482) 
P

>  <INCHIKEY>  (2482) 
OALYTRUKMRCXNH-UHFFFAOYSA-N

>  <FORMULA>  (2482) 
C9H16O2

>  <EXACT MASS>  (2482) 
156.115029752

>  <MW>  (2482) 
156

>  <ID>  (2482) 
JP008729

>  <CONTRIBUTOR>  (2482) 
University of Tokyo Team, {Faculty of Engineering, University of Tokyo

>  <COMMENT>  (2482) 
SMILES=CCCCCC(C1)OC(=O)C1
InChI=InChI=1S/C9H16O2/c1-2-3-4-5-8-6-7-9(10)11-8/h8H,2-7H2,1H3
computed SMILES=O=C1OC(CC1)CCCCC
accession=JP008729
date=2016.01.19 (Created 2008.10.21, modified 2011.05.06)
author=SODA AROMATIC CO., LTD.
license=CC BY-NC-SA
exact mass=156.11503
ionization energy=70 eV
ion type=[M]+*
computed spectral entropy=2.3782298740593983
computed normalized entropy=0.6925564169118573
SPLASH=splash10-000i-9000000000-b49a9ba5068e6a6f37e2
submitter=submitter = University of Tokyo Team (Faculty of Engineering, University of Tokyo)
MoNA Rating=3.75

>  <NUM PEAKS>  (2482) 
31

>  <MASS SPECTRAL PEAKS>  (2482) 
26 1.2
27 13.16
28 5.41
29 23.83
39 5.77
41 12.21
42 4.42
43 7.41
44 1.29
53 1.28
54 1.6
55 8
56 8.1
57 5.14
67 1.21
69 2.08
70 2.25
71 1.62
72 1.95
83 1.62
84 1.96
85 99.99
86 4.14
96 1.49
97 1.1
99 2.09
100 4.17
101 1.59
114 2.41
128 2.26
138 1.14

$$$$

     RDKit          2D

 10 10  0  0  0  0  0  0  0  0999 V2000
    5.3954   -1.7640    0.0000 C   0  0  0  0  0  0  0  0  0  0  0  0
    4.1795   -0.8856    0.0000 C   0  0  0  0  0  0  0  0  0  0  0  0
    2.8108   -1.4995    0.0000 C   0  0  0  0  0  0  0  0  0  0  0  0
    1.5949   -0.6211    0.0000 C   0  0  0  0  0  0  0  0  0  0  0  0
   -0.0767   -2.6997    0.0000 C   0  0  0  0  0  0  0  0  0  0  0  0
   -1.5783   -2.8605    0.0000 C   0  0  0  0  0  0  0  0  0  0  0  0
    0.2263   -1.2350    0.0000 C   0  0  0  0  0  0  0  0  0  0  0  0
   -2.1812   -1.4847    0.0000 C   0  0  0  0  0  0  0  0  0  0  0  0
   -3.6476   -1.1692    0.0000 O   0  0  0  0  0  0  0  0  0  0  0  0
   -1.0728   -0.4850    0.0000 O   0  0  0  0  0  0  0  0  0  0  0  0
  2  1  1  0
  3  2  1  0
  4  3  1  0
  6  5  1  0
  7  4  1  0
  7  5  1  0
  8  6  1  0
  9  8  2  0
 10  7  1  0
 10  8  1  0
M  END
>  <NAME>  (2483) 
GAMMA-OCTALACTONE

>  <SYNONYMS>  (2483) 


>  <SPECTRUM TYPE>  (2483) 
MS1

>  <INSTRUMENT TYPE>  (2483) 
EI-B

>  <INSTRUMENT>  (2483) 
HITACHI M-80B

>  <ION MODE>  (2483) 
P

>  <INCHIKEY>  (2483) 
IPBFYZQJXZJBFQ-UHFFFAOYSA-N

>  <FORMULA>  (2483) 
C8H14O2

>  <EXACT MASS>  (2483) 
142.099379688

>  <MW>  (2483) 
142

>  <ID>  (2483) 
JP008728

>  <CONTRIBUTOR>  (2483) 
University of Tokyo Team, {Faculty of Engineering, University of Tokyo

>  <COMMENT>  (2483) 
SMILES=CCCCC(C1)OC(=O)C1
InChI=InChI=1S/C8H14O2/c1-2-3-4-7-5-6-8(9)10-7/h7H,2-6H2,1H3
computed SMILES=O=C1OC(CC1)CCCC
accession=JP008728
date=2016.01.19 (Created 2008.10.21, modified 2011.05.06)
author=SODA AROMATIC CO., LTD.
license=CC BY-NC-SA
exact mass=142.09938
ionization energy=70 eV
ion type=[M]+*
computed spectral entropy=2.2370279982762686
computed normalized entropy=0.6643396099490476
SPLASH=splash10-000i-9000000000-b38e079f829f45a525dd
submitter=submitter = University of Tokyo Team (Faculty of Engineering, University of Tokyo)
MoNA Rating=3.75

>  <NUM PEAKS>  (2483) 
29

>  <MASS SPECTRAL PEAKS>  (2483) 
26 1.44
27 12.89
28 5.62
29 24.29
39 6.02
40 1.04
41 9.42
42 4.41
43 2.01
44 1.82
53 1.37
54 1.36
55 6.42
56 7.64
57 6.73
58 1.46
67 1.02
69 2.1
70 2.76
72 1.57
82 1.08
84 1.1
85 99.99
86 3.86
87 1.41
96 1.04
100 4.17
114 1.48
124 1.47

$$$$

     RDKit          2D

  9  9  0  0  0  0  0  0  0  0999 V2000
   -3.2165   -1.1686    0.0000 C   0  0  0  0  0  0  0  0  0  0  0  0
   -1.8478   -0.5547    0.0000 C   0  0  0  0  0  0  0  0  0  0  0  0
   -0.6319   -1.4331    0.0000 C   0  0  0  0  0  0  0  0  0  0  0  0
    1.0397    0.6455    0.0000 C   0  0  0  0  0  0  0  0  0  0  0  0
    2.5413    0.8063    0.0000 C   0  0  0  0  0  0  0  0  0  0  0  0
    0.7368   -0.8192    0.0000 C   0  0  0  0  0  0  0  0  0  0  0  0
    3.1442   -0.5695    0.0000 C   0  0  0  0  0  0  0  0  0  0  0  0
    4.6106   -0.8850    0.0000 O   0  0  0  0  0  0  0  0  0  0  0  0
    2.0358   -1.5692    0.0000 O   0  0  0  0  0  0  0  0  0  0  0  0
  2  1  1  0
  3  2  1  0
  5  4  1  0
  6  3  1  0
  6  4  1  0
  7  5  1  0
  8  7  2  0
  9  6  1  0
  9  7  1  0
M  END
>  <NAME>  (2484) 
GAMMA-HEPTALACTONE

>  <SYNONYMS>  (2484) 


>  <SPECTRUM TYPE>  (2484) 
MS1

>  <INSTRUMENT TYPE>  (2484) 
EI-B

>  <INSTRUMENT>  (2484) 
HITACHI M-80B

>  <ION MODE>  (2484) 
P

>  <INCHIKEY>  (2484) 
VLSVVMPLPMNWBH-UHFFFAOYSA-N

>  <FORMULA>  (2484) 
C7H12O2

>  <EXACT MASS>  (2484) 
128.083729624

>  <MW>  (2484) 
128

>  <ID>  (2484) 
JP008727

>  <CONTRIBUTOR>  (2484) 
University of Tokyo Team, {Faculty of Engineering, University of Tokyo

>  <COMMENT>  (2484) 
SMILES=CCCC(C1)OC(=O)C1
InChI=InChI=1S/C7H12O2/c1-2-3-6-4-5-7(8)9-6/h6H,2-5H2,1H3
computed SMILES=O=C1OC(CC1)CCC
accession=JP008727
date=2016.01.19 (Created 2008.10.21, modified 2011.05.06)
author=SODA AROMATIC CO., LTD.
license=CC BY-NC-SA
exact mass=128.08373
ionization energy=70 eV
ion type=[M]+*
computed spectral entropy=2.2943641235241072
computed normalized entropy=0.7127842912728862
SPLASH=splash10-000i-9000000000-c224bc120cc60670620f
submitter=submitter = University of Tokyo Team (Faculty of Engineering, University of Tokyo)
MoNA Rating=3.75

>  <NUM PEAKS>  (2484) 
25

>  <MASS SPECTRAL PEAKS>  (2484) 
15 1.5
26 2.81
27 19.98
28 9.24
29 28.18
39 7.89
40 1.2
41 10.87
42 6.17
43 7.57
44 2.56
53 1.42
55 6.89
56 13.85
57 6.27
58 1.03
69 1.72
71 3.44
72 1.04
73 1
84 1.85
85 99.99
86 4.06
100 3.07
110 2.1

$$$$

     RDKit          2D

  8  8  0  0  0  0  0  0  0  0999 V2000
    3.5715   -0.4465    0.0000 C   0  0  0  0  0  0  0  0  0  0  0  0
    2.3556    0.4319    0.0000 C   0  0  0  0  0  0  0  0  0  0  0  0
    0.6840   -1.6467    0.0000 C   0  0  0  0  0  0  0  0  0  0  0  0
   -0.8176   -1.8075    0.0000 C   0  0  0  0  0  0  0  0  0  0  0  0
    0.9869   -0.1820    0.0000 C   0  0  0  0  0  0  0  0  0  0  0  0
   -1.4205   -0.4317    0.0000 C   0  0  0  0  0  0  0  0  0  0  0  0
   -2.8869   -0.1162    0.0000 O   0  0  0  0  0  0  0  0  0  0  0  0
   -0.3121    0.5680    0.0000 O   0  0  0  0  0  0  0  0  0  0  0  0
  2  1  1  0
  4  3  1  0
  5  2  1  0
  5  3  1  0
  6  4  1  0
  7  6  2  0
  8  5  1  0
  8  6  1  0
M  END
>  <NAME>  (2485) 
GAMMA-HEXALACTONE

>  <SYNONYMS>  (2485) 


>  <SPECTRUM TYPE>  (2485) 
MS1

>  <INSTRUMENT TYPE>  (2485) 
EI-B

>  <INSTRUMENT>  (2485) 
HITACHI M-80B

>  <ION MODE>  (2485) 
P

>  <INCHIKEY>  (2485) 
JBFHTYHTHYHCDJ-UHFFFAOYSA-N

>  <FORMULA>  (2485) 
C6H10O2

>  <EXACT MASS>  (2485) 
114.06807956

>  <MW>  (2485) 
114

>  <ID>  (2485) 
JP008726

>  <CONTRIBUTOR>  (2485) 
University of Tokyo Team, {Faculty of Engineering, University of Tokyo

>  <COMMENT>  (2485) 
SMILES=CCC(C1)OC(=O)C1
InChI=InChI=1S/C6H10O2/c1-2-5-3-4-6(7)8-5/h5H,2-4H2,1H3
computed SMILES=O=C1OC(CC)CC1
accession=JP008726
date=2016.01.19 (Created 2008.10.21, modified 2011.05.06)
author=SODA AROMATIC CO., LTD.
license=CC BY-NC-SA
exact mass=114.06808
ionization energy=70 eV
ion type=[M]+*
computed spectral entropy=2.3981659958732426
computed normalized entropy=0.7648446562873302
SPLASH=splash10-002r-9000000000-043fff98e80d69a0aef2
submitter=submitter = University of Tokyo Team (Faculty of Engineering, University of Tokyo)
MoNA Rating=3.75

>  <NUM PEAKS>  (2485) 
23

>  <MASS SPECTRAL PEAKS>  (2485) 
15 1.51
26 4.86
27 21.93
28 19.02
29 41.11
30 1.55
31 1.44
38 1.11
39 10.44
40 1.79
41 9.91
42 19.04
43 1.77
53 1.43
55 11.97
56 18
57 16.55
58 1.62
59 1.4
70 12.93
85 99.99
86 9.54
114 1.66

$$$$

     RDKit          2D

  7  7  0  0  0  0  0  0  0  0999 V2000
    3.0017    0.8049    0.0000 C   0  0  0  0  0  0  0  0  0  0  0  0
    1.3301   -1.2737    0.0000 C   0  0  0  0  0  0  0  0  0  0  0  0
   -0.1714   -1.4344    0.0000 C   0  0  0  0  0  0  0  0  0  0  0  0
    1.6331    0.1911    0.0000 C   0  0  0  0  0  0  0  0  0  0  0  0
   -0.7743   -0.0587    0.0000 C   0  0  0  0  0  0  0  0  0  0  0  0
   -2.2408    0.2569    0.0000 O   0  0  0  0  0  0  0  0  0  0  0  0
    0.3340    0.9411    0.0000 O   0  0  0  0  0  0  0  0  0  0  0  0
  3  2  1  0
  4  1  1  0
  4  2  1  0
  5  3  1  0
  6  5  2  0
  7  4  1  0
  7  5  1  0
M  END
>  <NAME>  (2486) 
GAMMA-VALEROLACTONE

>  <SYNONYMS>  (2486) 


>  <SPECTRUM TYPE>  (2486) 
MS1

>  <INSTRUMENT TYPE>  (2486) 
EI-B

>  <INSTRUMENT>  (2486) 
HITACHI M-80B

>  <ION MODE>  (2486) 
P

>  <INCHIKEY>  (2486) 
GAEKPEKOJKCEMS-UHFFFAOYSA-N

>  <FORMULA>  (2486) 
C5H8O2

>  <EXACT MASS>  (2486) 
100.052429496

>  <MW>  (2486) 
100

>  <ID>  (2486) 
JP008725

>  <CONTRIBUTOR>  (2486) 
University of Tokyo Team, {Faculty of Engineering, University of Tokyo

>  <COMMENT>  (2486) 
SMILES=CC(C1)OC(=O)C1
InChI=InChI=1S/C5H8O2/c1-4-2-3-5(6)7-4/h4H,2-3H2,1H3
computed SMILES=O=C1OC(C)CC1
accession=JP008725
date=2016.01.19 (Created 2008.10.21, modified 2011.05.06)
author=SODA AROMATIC CO., LTD.
license=CC BY-NC-SA
exact mass=100.05243
ionization energy=70 eV
ion type=[M]+*
computed spectral entropy=2.644141875838336
computed normalized entropy=0.7774150039319833
SPLASH=splash10-056u-9000000000-7c79f68cacbc95c0ea48
submitter=submitter = University of Tokyo Team (Faculty of Engineering, University of Tokyo)
MoNA Rating=3.75

>  <NUM PEAKS>  (2486) 
30

>  <MASS SPECTRAL PEAKS>  (2486) 
14 3.65
15 8.93
25 1.34
26 14.18
27 34.19
28 67.66
29 48.12
30 1.4
31 1.65
37 1.73
38 3.54
39 16.8
40 4.37
41 65.15
42 8.8
43 38.21
44 4.44
45 4.5
50 2.74
51 3.06
53 3.17
54 2.06
55 9.84
56 99.99
57 11.34
71 1.83
85 57.58
86 1.58
99 3.41
100 7.08

$$$$

     RDKit          2D

  6  6  0  0  0  0  0  0  0  0999 V2000
   -1.1900   -1.1800    0.0000 C   0  0  0  0  0  0  0  0  0  0  0  0
    0.3100   -1.1800    0.0000 C   0  0  0  0  0  0  0  0  0  0  0  0
   -1.6500    0.2500    0.0000 C   0  0  0  0  0  0  0  0  0  0  0  0
    0.7700    0.2500    0.0000 C   0  0  0  0  0  0  0  0  0  0  0  0
    2.1960    0.7153    0.0000 O   0  0  0  0  0  0  0  0  0  0  0  0
   -0.4400    1.1300    0.0000 O   0  0  0  0  0  0  0  0  0  0  0  0
  2  1  1  0
  3  1  1  0
  4  2  1  0
  5  4  2  0
  6  3  1  0
  6  4  1  0
M  END
>  <NAME>  (2487) 
GAMMA-BUTYROLACTONE

>  <SYNONYMS>  (2487) 


>  <SPECTRUM TYPE>  (2487) 
MS1

>  <INSTRUMENT TYPE>  (2487) 
EI-B

>  <INSTRUMENT>  (2487) 
HITACHI M-80B

>  <ION MODE>  (2487) 
P

>  <INCHIKEY>  (2487) 
YEJRWHAVMIAJKC-UHFFFAOYSA-N

>  <FORMULA>  (2487) 
C4H6O2

>  <EXACT MASS>  (2487) 
86.036779432

>  <MW>  (2487) 
86

>  <ID>  (2487) 
JP008724

>  <CONTRIBUTOR>  (2487) 
University of Tokyo Team, {Faculty of Engineering, University of Tokyo

>  <COMMENT>  (2487) 
SMILES=O=C(C1)OCC1
InChI=InChI=1S/C4H6O2/c5-4-2-1-3-6-4/h1-3H2
computed SMILES=O=C1OCCC1
accession=JP008724
date=2016.01.19 (Created 2008.10.21, modified 2011.05.06)
author=SODA AROMATIC CO., LTD.
license=CC BY-NC-SA
exact mass=86.03678
ionization energy=70 eV
ion type=[M]+*
computed spectral entropy=2.4609335700998676
computed normalized entropy=0.7743523871747745
SPLASH=splash10-002f-9000000000-d3df175d3315ed446e14
submitter=submitter = University of Tokyo Team (Faculty of Engineering, University of Tokyo)
MoNA Rating=3.75

>  <NUM PEAKS>  (2487) 
24

>  <MASS SPECTRAL PEAKS>  (2487) 
13 1.02
14 2.64
15 2.1
26 15.16
27 31.8
28 70.11
29 28.31
30 3.18
31 2.5
37 3.06
38 3.81
39 14.38
40 11.36
41 40.86
42 99.99
43 3.03
44 2.17
53 2.27
55 5.71
56 19.91
57 5.12
85 7.09
86 21.52
87 1.47

$$$$

     RDKit          2D

 11 12  0  0  0  0  0  0  0  0999 V2000
   -2.9400   -0.8900    0.0000 C   0  0  0  0  0  0  0  0  0  0  0  0
   -2.9400    0.6100    0.0000 C   0  0  0  0  0  0  0  0  0  0  0  0
   -1.6400   -1.6400    0.0000 C   0  0  0  0  0  0  0  0  0  0  0  0
   -1.6400    1.3700    0.0000 C   0  0  0  0  0  0  0  0  0  0  0  0
    0.9500   -1.6200    0.0000 C   0  0  0  0  0  0  0  0  0  0  0  0
    2.2300   -0.8800    0.0000 C   0  0  0  0  0  0  0  0  0  0  0  0
   -0.3600   -0.8700    0.0000 C   0  0  0  0  0  0  0  0  0  0  0  0
   -0.3600    0.5900    0.0000 C   0  0  0  0  0  0  0  0  0  0  0  0
    2.2300    0.6000    0.0000 C   0  0  0  0  0  0  0  0  0  0  0  0
    3.5314    1.3458    0.0000 O   0  0  0  0  0  0  0  0  0  0  0  0
    0.9500    1.3500    0.0000 O   0  0  0  0  0  0  0  0  0  0  0  0
  2  1  2  0
  3  1  1  0
  4  2  1  0
  6  5  1  0
  7  3  2  0
  7  5  1  0
  8  4  2  0
  8  7  1  0
  9  6  1  0
 10  9  2  0
 11  8  1  0
 11  9  1  0
M  END
>  <NAME>  (2488) 
3,4-DIHYDROCOUMARIN

>  <SYNONYMS>  (2488) 


>  <SPECTRUM TYPE>  (2488) 
MS1

>  <INSTRUMENT TYPE>  (2488) 
EI-B

>  <INSTRUMENT>  (2488) 
HITACHI M-80B

>  <ION MODE>  (2488) 
P

>  <INCHIKEY>  (2488) 
VMUXSMXIQBNMGZ-UHFFFAOYSA-N

>  <FORMULA>  (2488) 
C9H8O2

>  <EXACT MASS>  (2488) 
148.052429496

>  <MW>  (2488) 
148

>  <ID>  (2488) 
JP008723

>  <CONTRIBUTOR>  (2488) 
University of Tokyo Team, {Faculty of Engineering, University of Tokyo

>  <COMMENT>  (2488) 
SMILES=O=C(C1)Oc(c2)c(ccc2)C1
InChI=InChI=1S/C9H8O2/c10-9-6-5-7-3-1-2-4-8(7)11-9/h1-4H,5-6H2
computed SMILES=O=C1OC=2C=CC=CC2CC1
accession=JP008723
date=2016.01.19 (Created 2008.10.21, modified 2011.05.06)
author=SODA AROMATIC CO., LTD.
license=CC BY-NC-SA
exact mass=148.05243
ionization energy=70 eV
ion type=[M]+*
computed spectral entropy=3.1617215313308895
computed normalized entropy=0.7963448532685284
SPLASH=splash10-0ffw-9500000000-19f4cacfc3593f445e42
submitter=submitter = University of Tokyo Team (Faculty of Engineering, University of Tokyo)
MoNA Rating=3.75

>  <NUM PEAKS>  (2488) 
53

>  <MASS SPECTRAL PEAKS>  (2488) 
14 1.44
15 1.22
26 4.57
27 14.75
28 1.7
29 1.57
37 3.25
38 10.82
39 37.77
40 4.19
41 2.38
42 9.64
43 1.37
45 2.3
46 2.05
49 1.49
50 16.88
51 33.56
52 18.87
53 5.2
55 4.53
60 3.36
61 2.83
62 7.14
63 20.59
64 4.78
65 18.02
66 3.2
74 3.62
75 2.85
76 3.15
77 16.28
78 64.19
79 4.79
89 6.2
90 4.11
91 74.08
92 22.21
93 1.52
94 2.11
102 2.84
103 4.7
105 2.27
106 11.41
107 4.25
118 1.5
119 21.06
120 96.34
121 8.27
131 1.84
147 3.67
148 99.99
149 10.83

$$$$

     RDKit          2D

 19 19  0  0  0  0  0  0  0  0999 V2000
   -3.9000   -2.2500    0.0000 C   0  0  0  0  0  0  0  0  0  0  0  0
   -3.9000   -0.7500    0.0000 C   0  0  0  0  0  0  0  0  0  0  0  0
   -2.6000   -3.0000    0.0000 C   0  0  0  0  0  0  0  0  0  0  0  0
   -5.2000    0.0000    0.0000 C   0  0  0  0  0  0  0  0  0  0  0  0
   -0.0000   -3.0000    0.0000 C   0  0  0  0  0  0  0  0  0  0  0  0
   -5.2000    1.5000    0.0000 C   0  0  0  0  0  0  0  0  0  0  0  0
    1.3000   -2.2500    0.0000 C   0  0  0  0  0  0  0  0  0  0  0  0
   -3.9000    2.2500    0.0000 C   0  0  0  0  0  0  0  0  0  0  0  0
    1.3000   -0.7500    0.0000 C   0  0  0  0  0  0  0  0  0  0  0  0
   -3.9000    3.7500    0.0000 C   0  0  0  0  0  0  0  0  0  0  0  0
    2.6000   -0.0000    0.0000 C   0  0  0  0  0  0  0  0  0  0  0  0
    0.0000    4.5000    0.0000 C   0  0  0  0  0  0  0  0  0  0  0  0
    1.3000    3.7500    0.0000 C   0  0  0  0  0  0  0  0  0  0  0  0
   -2.6000    4.5000    0.0000 C   0  0  0  0  0  0  0  0  0  0  0  0
    2.6000    1.5000    0.0000 C   0  0  0  0  0  0  0  0  0  0  0  0
   -2.6000    6.0000    0.0000 O   0  0  0  0  0  0  0  0  0  0  0  0
    3.8989    2.2502    0.0000 O   0  0  0  0  0  0  0  0  0  0  0  0
   -1.3000    3.7500    0.0000 O   0  0  0  0  0  0  0  0  0  0  0  0
    1.3000    2.2500    0.0000 O   0  0  0  0  0  0  0  0  0  0  0  0
  2  1  1  0
  3  1  1  0
  4  2  1  0
  5  3  1  0
  6  4  1  0
  7  5  1  0
  8  6  1  0
  9  7  1  0
 10  8  1  0
 11  9  1  0
 13 12  1  0
 14 10  1  0
 15 11  1  0
 16 14  2  0
 17 15  2  0
 18 12  1  0
 18 14  1  0
 19 13  1  0
 19 15  1  0
M  END
>  <NAME>  (2489) 
ETHYLENE TRIDECANEDIOATE

>  <SYNONYMS>  (2489) 


>  <SPECTRUM TYPE>  (2489) 
MS1

>  <INSTRUMENT TYPE>  (2489) 
EI-B

>  <INSTRUMENT>  (2489) 
HITACHI M-80B

>  <ION MODE>  (2489) 
P

>  <INCHIKEY>  (2489) 
XRHCAGNSDHCHFJ-UHFFFAOYSA-N

>  <FORMULA>  (2489) 
C15H26O4

>  <EXACT MASS>  (2489) 
270.183109312

>  <MW>  (2489) 
270

>  <ID>  (2489) 
JP008722

>  <CONTRIBUTOR>  (2489) 
University of Tokyo Team, {Faculty of Engineering, University of Tokyo

>  <COMMENT>  (2489) 
SMILES=O=C(C1)OCCOC(=O)CCCCCCCCCC1
InChI=InChI=1S/C15H26O4/c16-14-10-8-6-4-2-1-3-5-7-9-11-15(17)19-13-12-18-14/h1-13H2
computed SMILES=O=C1OCCOC(=O)CCCCCCCCCCC1
accession=JP008722
date=2016.01.19 (Created 2008.10.21, modified 2011.05.06)
author=SODA AROMATIC CO., LTD.
license=CC BY-NC-SA
exact mass=270.18311
ionization energy=70 eV
ion type=[M]+*
computed spectral entropy=3.696683276198656
computed normalized entropy=0.8155768630744238
SPLASH=splash10-052g-9100000000-c138c1e80c441c9c94e9
submitter=submitter = University of Tokyo Team (Faculty of Engineering, University of Tokyo)
MoNA Rating=3.75

>  <NUM PEAKS>  (2489) 
93

>  <MASS SPECTRAL PEAKS>  (2489) 
15 3.36
26 1.79
27 28.31
28 11.07
29 37.16
30 1.2
31 4.04
39 22.4
41 99.99
42 33.51
43 34.77
44 4.16
45 10.62
51 1.08
53 6.55
54 7.93
55 90.94
56 16.13
57 9.22
58 5.51
59 2.36
60 3.7
61 2.4
65 1.06
66 1.16
67 18.41
68 7.77
69 31.37
70 6.7
71 6.28
73 3.25
74 1.24
77 1.09
79 4.08
80 2.9
81 11.68
82 4.94
83 19.5
84 32.19
85 4.87
86 48
87 13.08
91 1.1
93 3.1
94 2.68
95 6.23
96 4.68
97 14.07
98 60.15
99 32.04
100 2.86
101 1.56
104 1.99
105 1.25
107 3.1
108 1.72
109 2.61
110 2.23
111 6.51
112 18.1
113 3.16
117 1.68
121 2.01
122 1.3
123 2.43
124 2.29
125 7.6
126 1.97
127 1.58
135 1.16
137 1.7
138 1.5
139 1.86
141 2.05
149 2.68
152 1.76
155 3.83
159 1.89
163 1.21
166 1.38
167 1.02
173 2.81
180 2.19
181 1.26
187 8.13
188 1.09
208 2.38
209 1.07
211 7.81
212 1.04
227 20.13
228 2.28
270 1.74

$$$$

     RDKit          2D

 18 18  0  0  0  0  0  0  0  0999 V2000
    1.3000   -0.7500    0.0000 C   0  0  0  0  0  0  0  0  0  0  0  0
    0.0000    0.0000    0.0000 C   0  0  0  0  0  0  0  0  0  0  0  0
    2.6000   -0.0000    0.0000 C   0  0  0  0  0  0  0  0  0  0  0  0
   -1.3000   -0.7500    0.0000 C   0  0  0  0  0  0  0  0  0  0  0  0
    2.6000    1.5000    0.0000 C   0  0  0  0  0  0  0  0  0  0  0  0
   -2.6000    0.0000    0.0000 C   0  0  0  0  0  0  0  0  0  0  0  0
    1.3000    2.2500    0.0000 C   0  0  0  0  0  0  0  0  0  0  0  0
   -3.9000   -0.7500    0.0000 C   0  0  0  0  0  0  0  0  0  0  0  0
    1.3000    3.7500    0.0000 C   0  0  0  0  0  0  0  0  0  0  0  0
   -5.2000    0.0000    0.0000 C   0  0  0  0  0  0  0  0  0  0  0  0
   -2.6000    4.5000    0.0000 C   0  0  0  0  0  0  0  0  0  0  0  0
   -3.9000    3.7500    0.0000 C   0  0  0  0  0  0  0  0  0  0  0  0
    0.0000    4.5000    0.0000 C   0  0  0  0  0  0  0  0  0  0  0  0
   -5.2000    1.5000    0.0000 C   0  0  0  0  0  0  0  0  0  0  0  0
    0.0000    6.0000    0.0000 O   0  0  0  0  0  0  0  0  0  0  0  0
   -6.4989    2.2502    0.0000 O   0  0  0  0  0  0  0  0  0  0  0  0
   -1.3000    3.7500    0.0000 O   0  0  0  0  0  0  0  0  0  0  0  0
   -3.9000    2.2500    0.0000 O   0  0  0  0  0  0  0  0  0  0  0  0
  2  1  1  0
  3  1  1  0
  4  2  1  0
  5  3  1  0
  6  4  1  0
  7  5  1  0
  8  6  1  0
  9  7  1  0
 10  8  1  0
 12 11  1  0
 13  9  1  0
 14 10  1  0
 15 13  2  0
 16 14  2  0
 17 11  1  0
 17 13  1  0
 18 12  1  0
 18 14  1  0
M  END
>  <NAME>  (2490) 
ETHYLENE DODECANEDIOATE

>  <SYNONYMS>  (2490) 


>  <SPECTRUM TYPE>  (2490) 
MS1

>  <INSTRUMENT TYPE>  (2490) 
EI-B

>  <INSTRUMENT>  (2490) 
HITACHI M-80B

>  <ION MODE>  (2490) 
P

>  <INCHIKEY>  (2490) 
GJJSUPSPZIZYPM-UHFFFAOYSA-N

>  <FORMULA>  (2490) 
C14H24O4

>  <EXACT MASS>  (2490) 
256.167459248

>  <MW>  (2490) 
256

>  <ID>  (2490) 
JP008721

>  <CONTRIBUTOR>  (2490) 
University of Tokyo Team, {Faculty of Engineering, University of Tokyo

>  <COMMENT>  (2490) 
SMILES=O=C(C1)OCCOC(=O)CCCCCCCCC1
InChI=InChI=1S/C14H24O4/c15-13-9-7-5-3-1-2-4-6-8-10-14(16)18-12-11-17-13/h1-12H2
computed SMILES=O=C1OCCOC(=O)CCCCCCCCCC1
accession=JP008721
date=2016.01.19 (Created 2008.10.21, modified 2011.05.06)
author=SODA AROMATIC CO., LTD.
license=CC BY-NC-SA
exact mass=256.16746
ionization energy=70 eV
ion type=[M]+*
computed spectral entropy=3.741508050903502
computed normalized entropy=0.8178676354604454
SPLASH=splash10-052f-9100000000-8523f4d0bacbd3e98cab
submitter=submitter = University of Tokyo Team (Faculty of Engineering, University of Tokyo)
MoNA Rating=3.75

>  <NUM PEAKS>  (2490) 
97

>  <MASS SPECTRAL PEAKS>  (2490) 
15 3.27
26 1.92
27 30.36
28 15.37
29 35.69
30 1.33
31 3.87
39 24.86
40 1.07
41 99.99
42 34.16
43 33.13
44 3.9
45 11.77
53 7.32
54 8.51
55 86.73
56 16.56
57 7.42
58 4.34
59 2.29
60 3.41
61 2.42
65 1.04
66 1.04
67 16.48
68 8.03
69 33.43
70 7.01
71 5.13
73 3.16
74 1.19
79 3.82
80 2.86
81 9.98
82 4.92
83 19.84
84 32
85 3.92
86 47.35
87 13.2
91 1.18
93 3.9
94 2.52
95 4.56
96 4.68
97 14.7
98 65.59
99 29.57
100 2.75
101 1.73
104 2.38
105 1.08
106 1
107 2.11
108 2.22
109 3.42
110 3.55
111 13.99
112 16.44
113 3.6
115 1.32
117 1.25
121 1.44
122 1.18
123 2.64
124 2
125 5.31
126 1.8
127 1.27
129 1.41
135 5.82
137 1.83
138 2.87
141 1.68
145 1.41
148 1.29
149 2.57
150 1.23
151 1.13
152 2.43
153 1.78
155 3.51
159 3.26
166 5.14
167 2.21
168 1
173 9.69
174 1.21
194 3.11
195 1.57
196 1.18
197 7.08
198 1.08
213 22.69
214 2.71
256 1.45

$$$$

     RDKit          2D

 18 18  0  0  0  0  0  0  0  0999 V2000
   -3.9000   -0.7500    0.0000 C   0  0  0  0  0  0  0  0  0  0  0  0
   -5.2000    0.0000    0.0000 C   0  0  0  0  0  0  0  0  0  0  0  0
   -3.9000   -2.2500    0.0000 C   0  0  0  0  0  0  0  0  0  0  0  0
   -5.2000    1.5000    0.0000 C   0  0  0  0  0  0  0  0  0  0  0  0
   -2.6000   -3.0000    0.0000 C   0  0  0  0  0  0  0  0  0  0  0  0
   -3.9000    2.2500    0.0000 C   0  0  0  0  0  0  0  0  0  0  0  0
   -0.0000   -3.0000    0.0000 C   0  0  0  0  0  0  0  0  0  0  0  0
   -3.9000    3.7500    0.0000 C   0  0  0  0  0  0  0  0  0  0  0  0
    1.3000   -2.2500    0.0000 C   0  0  0  0  0  0  0  0  0  0  0  0
   -2.6000    4.5000    0.0000 C   0  0  0  0  0  0  0  0  0  0  0  0
    1.3000   -0.7500    0.0000 C   0  0  0  0  0  0  0  0  0  0  0  0
   -1.3000    3.7500    0.0000 C   0  0  0  0  0  0  0  0  0  0  0  0
    2.6000   -0.0000    0.0000 C   0  0  0  0  0  0  0  0  0  0  0  0
    0.0000    4.5000    0.0000 C   0  0  0  0  0  0  0  0  0  0  0  0
    2.6000    1.5000    0.0000 C   0  0  0  0  0  0  0  0  0  0  0  0
    1.3000    3.7500    0.0000 C   0  0  0  0  0  0  0  0  0  0  0  0
    2.5989    4.5002    0.0000 O   0  0  0  0  0  0  0  0  0  0  0  0
    1.3000    2.2500    0.0000 O   0  0  0  0  0  0  0  0  0  0  0  0
  2  1  1  0
  3  1  1  0
  4  2  1  0
  5  3  1  0
  6  4  1  0
  7  5  1  0
  8  6  1  0
  9  7  1  0
 10  8  1  0
 11  9  1  0
 12 10  1  0
 13 11  1  0
 14 12  1  0
 15 13  1  0
 16 14  1  0
 17 16  2  0
 18 15  1  0
 18 16  1  0
M  END
>  <NAME>  (2491) 
CYCLOHEXADECANOLIDE

>  <SYNONYMS>  (2491) 


>  <SPECTRUM TYPE>  (2491) 
MS1

>  <INSTRUMENT TYPE>  (2491) 
EI-B

>  <INSTRUMENT>  (2491) 
HITACHI M-80B

>  <ION MODE>  (2491) 
P

>  <INCHIKEY>  (2491) 
LOKPJYNMYCVCRM-UHFFFAOYSA-N

>  <FORMULA>  (2491) 
C16H30O2

>  <EXACT MASS>  (2491) 
254.2245802

>  <MW>  (2491) 
254

>  <ID>  (2491) 
JP008720

>  <CONTRIBUTOR>  (2491) 
University of Tokyo Team, {Faculty of Engineering, University of Tokyo

>  <COMMENT>  (2491) 
SMILES=O=C(C1)OCCCCCCCCCCCCCC1
InChI=InChI=1S/C16H30O2/c17-16-14-12-10-8-6-4-2-1-3-5-7-9-11-13-15-18-16/h1-15H2
computed SMILES=O=C1OCCCCCCCCCCCCCCC1
accession=JP008720
date=2016.01.19 (Created 2008.10.21, modified 2011.05.06)
author=SODA AROMATIC CO., LTD.
license=CC BY-NC-SA
exact mass=254.22458
ionization energy=70 eV
ion type=[M]+*
computed spectral entropy=3.8802838870353358
computed normalized entropy=0.8425929401787736
SPLASH=splash10-0536-9200000000-49fcef62c52ad36c82ba
submitter=submitter = University of Tokyo Team (Faculty of Engineering, University of Tokyo)
MoNA Rating=3.75

>  <NUM PEAKS>  (2491) 
100

>  <MASS SPECTRAL PEAKS>  (2491) 
27 11.4
28 4.72
29 31.21
31 2.46
39 10.9
40 3.11
41 86.51
42 26.23
43 44.8
44 2.03
45 2.8
53 5.72
54 11.06
55 99.99
56 28.32
57 21.58
58 6.37
59 3.37
60 8.39
61 3.7
65 1.23
66 2.16
67 18.86
68 19.47
69 60.25
70 19.38
71 14.07
72 1.49
73 12.91
74 1.53
79 3.25
80 3.1
81 17.42
82 33.96
83 45.74
84 22.51
85 6.05
87 4.99
93 2.22
94 3.3
95 13.97
96 29.59
97 36.03
98 20.5
99 3.42
100 3.69
101 5.97
102 1.64
107 1.66
108 2.62
109 8.24
110 12.49
111 13.14
112 6.66
113 3.81
114 6.27
115 3.87
116 4.59
121 1.32
122 1.94
123 7.1
124 7.97
125 6.63
126 3.23
127 4.78
128 1.56
129 5.72
133 1.56
134 1.91
135 1.87
136 1.73
137 5.05
138 6.09
139 4.06
140 1.76
141 1.8
143 1.7
147 1.36
148 1.31
149 1.29
151 3.64
152 5.33
153 2.56
154 1.28
155 1.41
158 1.3
165 2.82
166 3.41
167 1.43
172 1.79
179 1.77
185 2.03
192 3.13
193 1.9
194 6.19
208 2.14
236 9.42
237 2.01
254 8.62
255 1.89

$$$$

     RDKit          2D

 17 17  0  0  0  0  0  0  0  0999 V2000
    1.8700    3.4200    0.0000 C   0  0  0  0  0  0  0  0  0  0  0  0
    1.8700    1.9200    0.0000 C   0  0  0  0  0  0  0  0  0  0  0  0
    0.5700    4.1700    0.0000 C   0  0  0  0  0  0  0  0  0  0  0  0
    3.1700    1.1700    0.0000 C   0  0  0  0  0  0  0  0  0  0  0  0
   -0.7300    3.4200    0.0000 C   0  0  0  0  0  0  0  0  0  0  0  0
    3.1700   -0.3300    0.0000 C   0  0  0  0  0  0  0  0  0  0  0  0
   -0.7300    1.9200    0.0000 C   0  0  0  0  0  0  0  0  0  0  0  0
    1.8700   -1.0800    0.0000 C   0  0  0  0  0  0  0  0  0  0  0  0
   -2.0300    1.1700    0.0000 C   0  0  0  0  0  0  0  0  0  0  0  0
    1.8700   -2.5800    0.0000 C   0  0  0  0  0  0  0  0  0  0  0  0
   -2.0300   -0.3300    0.0000 C   0  0  0  0  0  0  0  0  0  0  0  0
    0.5700   -3.3300    0.0000 C   0  0  0  0  0  0  0  0  0  0  0  0
   -3.3300   -1.0800    0.0000 C   0  0  0  0  0  0  0  0  0  0  0  0
   -0.7300   -2.5800    0.0000 C   0  0  0  0  0  0  0  0  0  0  0  0
   -3.3300   -2.5800    0.0000 C   0  0  0  0  0  0  0  0  0  0  0  0
   -4.6289   -3.3302    0.0000 O   0  0  0  0  0  0  0  0  0  0  0  0
   -2.0300   -3.3300    0.0000 O   0  0  0  0  0  0  0  0  0  0  0  0
  2  1  1  0
  3  1  1  0
  4  2  1  0
  5  3  1  0
  6  4  1  0
  7  5  1  0
  8  6  1  0
  9  7  1  0
 10  8  1  0
 11  9  1  0
 12 10  1  0
 13 11  1  0
 14 12  1  0
 15 13  1  0
 16 15  2  0
 17 14  1  0
 17 15  1  0
M  END
>  <NAME>  (2492) 
CYCLOPENTADECANOLIDE

>  <SYNONYMS>  (2492) 


>  <SPECTRUM TYPE>  (2492) 
MS1

>  <INSTRUMENT TYPE>  (2492) 
EI-B

>  <INSTRUMENT>  (2492) 
HITACHI M-80B

>  <ION MODE>  (2492) 
P

>  <INCHIKEY>  (2492) 
FKUPPRZPSYCDRS-UHFFFAOYSA-N

>  <FORMULA>  (2492) 
C15H28O2

>  <EXACT MASS>  (2492) 
240.208930136

>  <MW>  (2492) 
240

>  <ID>  (2492) 
JP008719

>  <CONTRIBUTOR>  (2492) 
University of Tokyo Team, {Faculty of Engineering, University of Tokyo

>  <COMMENT>  (2492) 
SMILES=O=C(C1)OCCCCCCCCCCCCC1
InChI=InChI=1S/C15H28O2/c16-15-13-11-9-7-5-3-1-2-4-6-8-10-12-14-17-15/h1-14H2
computed SMILES=O=C1OCCCCCCCCCCCCCC1
accession=JP008719
date=2016.01.19 (Created 2008.10.21, modified 2011.05.06)
author=SODA AROMATIC CO., LTD.
license=CC BY-NC-SA
exact mass=240.20893
ionization energy=70 eV
ion type=[M]+*
computed spectral entropy=3.733108605276117
computed normalized entropy=0.8296147790184477
SPLASH=splash10-052f-9100000000-d4c22e0ccf95d372054e
submitter=submitter = University of Tokyo Team (Faculty of Engineering, University of Tokyo)
MoNA Rating=3.75

>  <NUM PEAKS>  (2492) 
90

>  <MASS SPECTRAL PEAKS>  (2492) 
27 19.08
29 33.72
30 1.13
31 2.7
39 17.99
41 99.99
42 29.71
43 40.8
44 1.58
45 2.79
53 7.31
54 14.16
55 98.81
56 29.3
57 21.49
58 5.47
59 3
60 7.71
61 3.14
65 1.15
66 1.66
67 21.32
68 23.75
69 55.28
70 18.32
71 13.37
72 1.29
73 13.35
74 1.51
79 3.21
80 2.64
81 19.4
82 30.35
83 40.37
84 22.7
85 4.75
87 3.94
93 1.8
94 2.9
95 13.3
96 26.59
97 26.68
98 22.53
99 2.81
100 3.3
101 4.76
102 1.05
107 1.25
108 1.9
109 6.99
110 14.42
111 11.29
112 5.23
113 2.57
114 6.1
115 3.47
116 3.62
121 1.42
122 1.64
123 6.23
124 6.94
125 5.31
126 1.9
127 3.23
128 1.37
129 3.78
133 1.12
134 1.15
135 1.41
136 1.18
137 4.12
138 6.27
139 3.02
140 1.14
141 1.53
151 2.92
152 3.81
153 1.5
155 1.02
158 1.1
165 1.67
172 1.52
178 2.75
179 1.67
180 5.74
181 1.42
194 1.52
222 5.7
223 1.14
240 4.15

$$$$

     RDKit          2D

 16 16  0  0  0  0  0  0  0  0999 V2000
   -9.0933    3.3200    0.0000 C   0  0  0  0  0  0  0  0  0  0  0  0
   -7.7942    2.5700    0.0000 C   0  0  0  0  0  0  0  0  0  0  0  0
   -6.4952    3.3200    0.0000 C   0  0  0  0  0  0  0  0  0  0  0  0
   -5.1962    2.5700    0.0000 C   0  0  0  0  0  0  0  0  0  0  0  0
    0.0000   -1.9300    0.0000 C   0  0  0  0  0  0  0  0  0  0  0  0
   -3.8971    3.3200    0.0000 C   0  0  0  0  0  0  0  0  0  0  0  0
    1.3000   -1.1800    0.0000 C   0  0  0  0  0  0  0  0  0  0  0  0
   -1.3000   -1.1800    0.0000 C   0  0  0  0  0  0  0  0  0  0  0  0
    1.3000    0.3200    0.0000 C   0  0  0  0  0  0  0  0  0  0  0  0
   -1.3000    0.3200    0.0000 C   0  0  0  0  0  0  0  0  0  0  0  0
   -2.5981    2.5700    0.0000 C   0  0  0  0  0  0  0  0  0  0  0  0
    0.0000    2.5700    0.0000 C   0  0  0  0  0  0  0  0  0  0  0  0
   -1.2990    4.8200    0.0000 C   0  0  0  0  0  0  0  0  0  0  0  0
    0.0000    1.0700    0.0000 C   0  0  0  0  0  0  0  0  0  0  0  0
   -1.2990    3.3200    0.0000 C   0  0  0  0  0  0  0  0  0  0  0  0
    0.0000    5.5700    0.0000 O   0  0  0  0  0  0  0  0  0  0  0  0
  2  1  1  0
  3  2  1  0
  4  3  1  0
  6  4  1  0
  7  5  2  0
  8  5  1  0
  9  7  1  0
 10  8  2  0
 11  6  1  0
 14  9  2  0
 14 10  1  0
 14 12  1  0
 15 11  1  0
 12 15  2  0
 15 13  1  0
 16 13  2  0
M  END
>  <NAME>  (2493) 
ALPHA-HEXYLCINNAMALDEHYDE

>  <SYNONYMS>  (2493) 


>  <SPECTRUM TYPE>  (2493) 
MS1

>  <INSTRUMENT TYPE>  (2493) 
EI-B

>  <INSTRUMENT>  (2493) 
HITACHI M-80B

>  <ION MODE>  (2493) 
P

>  <INCHIKEY>  (2493) 
GUUHFMWKWLOQMM-NTCAYCPXSA-N

>  <FORMULA>  (2493) 
C15H20O

>  <EXACT MASS>  (2493) 
216.15141526

>  <MW>  (2493) 
216

>  <ID>  (2493) 
JP008718

>  <CONTRIBUTOR>  (2493) 
University of Tokyo Team, {Faculty of Engineering, University of Tokyo

>  <COMMENT>  (2493) 
SMILES=CCCCCCC(C=O)=Cc(c1)cccc1
InChI=InChI=1S/C15H20O/c1-2-3-4-6-11-15(13-16)12-14-9-7-5-8-10-14/h5,7-10,12-13H,2-4,6,11H2,1H3/b15-12+
computed SMILES=O=CC(=CC=1C=CC=CC1)CCCCCC
accession=JP008718
date=2016.01.19 (Created 2008.10.21, modified 2011.05.06)
author=SODA AROMATIC CO., LTD.
license=CC BY-NC-SA
exact mass=216.15142
ionization energy=70 eV
ion type=[M]+*
computed spectral entropy=3.5606827939343937
computed normalized entropy=0.8661620160535964
SPLASH=splash10-014l-5910000000-b22a42c164a28ba714e4
submitter=submitter = University of Tokyo Team (Faculty of Engineering, University of Tokyo)
MoNA Rating=3.75

>  <NUM PEAKS>  (2493) 
61

>  <MASS SPECTRAL PEAKS>  (2493) 
16 1.61
17 1.86
27 21.72
29 25.58
39 25.17
40 2.29
41 33.89
42 5.91
43 27.18
50 1.43
51 13.02
52 2.3
53 7.13
55 15.16
57 4.53
63 8.29
65 13.4
67 7.58
69 4.55
76 2.12
77 19.55
78 14.99
79 4.88
82 13.1
83 11.66
89 7.98
91 96.95
92 11.9
95 7.63
102 7.49
103 9.56
104 15.02
105 9.63
115 78.81
116 35.62
117 99.79
118 19.23
125 3.86
127 9.42
128 20.83
129 99.99
130 17.11
131 42.25
132 5.08
133 2.41
141 15.37
142 5.22
143 4.93
145 52.56
146 12.06
155 5.78
158 3.67
159 14.85
160 4.01
173 15.92
174 10.3
185 1.79
187 1.1
215 24.93
216 50.43
217 8

$$$$

     RDKit          2D

 15 15  0  0  0  0  0  0  0  0999 V2000
    3.8974    2.7991    0.0000 C   0  0  0  0  0  0  0  0  0  0  0  0
   -4.6488    1.0972    0.0000 C   0  0  0  0  0  0  0  0  0  0  0  0
   -5.1975   -0.9519    0.0000 C   0  0  0  0  0  0  0  0  0  0  0  0
   -3.1483   -1.5006    0.0000 C   0  0  0  0  0  0  0  0  0  0  0  0
    0.0004    0.5485    0.0000 C   0  0  0  0  0  0  0  0  0  0  0  0
   -1.2996    2.7985    0.0000 C   0  0  0  0  0  0  0  0  0  0  0  0
   -1.2996   -0.2015    0.0000 C   0  0  0  0  0  0  0  0  0  0  0  0
   -2.5996    2.0485    0.0000 C   0  0  0  0  0  0  0  0  0  0  0  0
    1.2993    2.7987    0.0000 C   0  0  0  0  0  0  0  0  0  0  0  0
    2.5987    0.5489    0.0000 C   0  0  0  0  0  0  0  0  0  0  0  0
    2.5984    2.0489    0.0000 C   0  0  0  0  0  0  0  0  0  0  0  0
    0.0004    2.0485    0.0000 C   0  0  0  0  0  0  0  0  0  0  0  0
   -2.5996    0.5485    0.0000 C   0  0  0  0  0  0  0  0  0  0  0  0
   -3.8986   -0.2017    0.0000 C   0  0  0  0  0  0  0  0  0  0  0  0
    3.8978   -0.2009    0.0000 O   0  0  0  0  0  0  0  0  0  0  0  0
  7  5  2  0
  8  6  1  0
 11  1  1  0
 11  9  1  0
 11 10  1  0
 12  5  1  0
 12  6  2  0
 12  9  1  0
 13  7  1  0
 13  8  2  0
 14  2  1  0
 14  3  1  0
 14  4  1  0
 14 13  1  0
 15 10  2  0
M  END
>  <NAME>  (2494) 
2-METHYL-3-(4-T-BUTYLPHENYL)PROPIONALDEHYDE

>  <SYNONYMS>  (2494) 
LILY ALDEHYDE

>  <SPECTRUM TYPE>  (2494) 
MS1

>  <INSTRUMENT TYPE>  (2494) 
EI-B

>  <INSTRUMENT>  (2494) 
HITACHI M-80B

>  <ION MODE>  (2494) 
P

>  <INCHIKEY>  (2494) 
SDQFDHOLCGWZPU-UHFFFAOYSA-N

>  <FORMULA>  (2494) 
C14H20O

>  <EXACT MASS>  (2494) 
204.15141526

>  <MW>  (2494) 
204

>  <ID>  (2494) 
JP008717

>  <CONTRIBUTOR>  (2494) 
University of Tokyo Team, {Faculty of Engineering, University of Tokyo

>  <COMMENT>  (2494) 
SMILES=O=CC(C)Cc(c1)ccc(c1)C(C)(C)C
InChI=InChI=1S/C14H20O/c1-11(10-15)9-12-5-7-13(8-6-12)14(2,3)4/h5-8,10-11H,9H2,1-4H3
computed SMILES=O=CC(C)CC1=CC=C(C=C1)C(C)(C)C
accession=JP008717
date=2016.01.19 (Created 2008.10.21, modified 2011.05.06)
author=SODA AROMATIC CO., LTD.
license=CC BY-NC-SA
exact mass=204.15142
ionization energy=70 eV
ion type=[M]+*
computed spectral entropy=3.1910763282239474
computed normalized entropy=0.807613135382498
SPLASH=splash10-000l-3900000000-63ac003c22ef7601bf05
submitter=submitter = University of Tokyo Team (Faculty of Engineering, University of Tokyo)
MoNA Rating=3.75

>  <NUM PEAKS>  (2494) 
52

>  <MASS SPECTRAL PEAKS>  (2494) 
27 4.18
29 8.99
39 5.53
41 16.83
43 2.82
51 2.88
52 1.02
53 2.34
55 2.45
57 14.23
63 2.22
64 1.94
65 5.03
66 1.03
77 4.98
78 2.6
79 2.37
89 2.25
90 1.08
91 25.7
92 3.65
102 1.32
103 3.01
104 3.21
105 9
107 1.02
115 12.85
116 4.54
117 24.84
118 2.76
119 16.22
120 1.82
127 1.86
128 4.59
129 3.95
130 5.08
131 29.98
132 17.84
133 3.14
134 1.08
143 1.01
145 8.7
146 1.88
147 41.21
148 7.86
159 1.32
161 2.22
187 1.59
189 99.99
190 14.34
204 23.16
205 3.05

$$$$

     RDKit          2D

 15 15  0  0  0  0  0  0  0  0999 V2000
   -7.7942    2.5700    0.0000 C   0  0  0  0  0  0  0  0  0  0  0  0
   -6.4952    3.3200    0.0000 C   0  0  0  0  0  0  0  0  0  0  0  0
   -5.1962    2.5700    0.0000 C   0  0  0  0  0  0  0  0  0  0  0  0
    0.0000   -1.9300    0.0000 C   0  0  0  0  0  0  0  0  0  0  0  0
   -3.8971    3.3200    0.0000 C   0  0  0  0  0  0  0  0  0  0  0  0
    1.3000   -1.1800    0.0000 C   0  0  0  0  0  0  0  0  0  0  0  0
   -1.3000   -1.1800    0.0000 C   0  0  0  0  0  0  0  0  0  0  0  0
    1.3000    0.3200    0.0000 C   0  0  0  0  0  0  0  0  0  0  0  0
   -1.3000    0.3200    0.0000 C   0  0  0  0  0  0  0  0  0  0  0  0
   -2.5981    2.5700    0.0000 C   0  0  0  0  0  0  0  0  0  0  0  0
    0.0000    2.5700    0.0000 C   0  0  0  0  0  0  0  0  0  0  0  0
   -1.2990    4.8200    0.0000 C   0  0  0  0  0  0  0  0  0  0  0  0
    0.0000    1.0700    0.0000 C   0  0  0  0  0  0  0  0  0  0  0  0
   -1.2990    3.3200    0.0000 C   0  0  0  0  0  0  0  0  0  0  0  0
   -2.5981    5.5700    0.0000 O   0  0  0  0  0  0  0  0  0  0  0  0
  2  1  1  0
  3  2  1  0
  5  3  1  0
  6  4  2  0
  7  4  1  0
  8  6  1  0
  9  7  2  0
 10  5  1  0
 13  8  2  0
 13  9  1  0
 13 11  1  0
 14 10  1  0
 11 14  2  0
 14 12  1  0
 15 12  2  0
M  END
>  <NAME>  (2495) 
ALPHA-AMYLCINNAMALDEHYDE

>  <SYNONYMS>  (2495) 


>  <SPECTRUM TYPE>  (2495) 
MS1

>  <INSTRUMENT TYPE>  (2495) 
EI-B

>  <INSTRUMENT>  (2495) 
HITACHI M-80B

>  <ION MODE>  (2495) 
P

>  <INCHIKEY>  (2495) 
HMKKIXGYKWDQSV-SDNWHVSQSA-N

>  <FORMULA>  (2495) 
C14H18O

>  <EXACT MASS>  (2495) 
202.135765196

>  <MW>  (2495) 
202

>  <ID>  (2495) 
JP008716

>  <CONTRIBUTOR>  (2495) 
University of Tokyo Team, {Faculty of Engineering, University of Tokyo

>  <COMMENT>  (2495) 
SMILES=CCCCCC(C=O)=Cc(c1)cccc1
InChI=InChI=1S/C14H18O/c1-2-3-5-10-14(12-15)11-13-8-6-4-7-9-13/h4,6-9,11-12H,2-3,5,10H2,1H3/b14-11+
computed SMILES=O=CC(=CC=1C=CC=CC1)CCCCC
accession=JP008716
date=2016.01.19 (Created 2008.10.21, modified 2011.05.06)
author=SODA AROMATIC CO., LTD.
license=CC BY-NC-SA
exact mass=202.13577
ionization energy=70 eV
ion type=[M]+*
computed spectral entropy=3.5760689382351196
computed normalized entropy=0.8232571653057749
SPLASH=splash10-016u-6910000000-76423c557f3f4dd7528d
submitter=submitter = University of Tokyo Team (Faculty of Engineering, University of Tokyo)
MoNA Rating=3.75

>  <NUM PEAKS>  (2495) 
77

>  <MASS SPECTRAL PEAKS>  (2495) 
14 1.6
27 24.43
29 31.64
39 25.26
40 1.03
41 32.12
42 2.77
43 7.03
50 3.77
51 14.16
52 4.12
53 7.17
54 2.72
55 9.15
57 3.95
62 2.12
63 8.87
64 2.19
65 14.4
67 6.11
68 2.03
69 3.01
75 2.78
76 3.75
77 17.61
78 13.88
79 3.83
81 3.52
82 2.17
83 2.07
85 1.93
87 1.09
89 8.15
90 1.44
91 99.69
92 9.72
93 2.07
95 6.68
96 1.23
102 7.42
103 8.14
104 11.75
105 7.99
111 6.93
114 1.95
115 85.28
116 30.56
117 99.99
118 15.85
119 1.23
120 1.51
127 8.58
128 16.52
129 91.3
130 12.79
131 39.14
132 6.16
133 1.94
141 12.27
142 3.63
143 3.15
144 2.71
145 53.16
146 10.23
147 1.25
155 5.61
156 1.41
157 1.36
158 2.88
159 8.95
160 1.95
171 3.13
173 14.62
174 3
201 23.11
202 51.37
203 6.72

$$$$

     RDKit          2D

 14 14  0  0  0  0  0  0  0  0999 V2000
    3.8981    0.7504    0.0000 C   0  0  0  0  0  0  0  0  0  0  0  0
    2.5987    3.0002    0.0000 C   0  0  0  0  0  0  0  0  0  0  0  0
   -5.1970   -1.5006    0.0000 C   0  0  0  0  0  0  0  0  0  0  0  0
   -1.3000    0.7500    0.0000 C   0  0  0  0  0  0  0  0  0  0  0  0
    0.0000   -1.5000    0.0000 C   0  0  0  0  0  0  0  0  0  0  0  0
    0.0000    1.5000    0.0000 C   0  0  0  0  0  0  0  0  0  0  0  0
    1.3000   -0.7500    0.0000 C   0  0  0  0  0  0  0  0  0  0  0  0
   -2.5989   -1.5002    0.0000 C   0  0  0  0  0  0  0  0  0  0  0  0
   -3.8983    0.7496    0.0000 C   0  0  0  0  0  0  0  0  0  0  0  0
    2.5989    1.5002    0.0000 C   0  0  0  0  0  0  0  0  0  0  0  0
   -3.8981   -0.7504    0.0000 C   0  0  0  0  0  0  0  0  0  0  0  0
   -1.3000   -0.7500    0.0000 C   0  0  0  0  0  0  0  0  0  0  0  0
    1.3000    0.7500    0.0000 C   0  0  0  0  0  0  0  0  0  0  0  0
   -5.1975    1.4994    0.0000 O   0  0  0  0  0  0  0  0  0  0  0  0
  6  4  2  0
  7  5  1  0
 10  1  1  0
 10  2  1  0
 11  3  1  0
 11  8  1  0
 11  9  1  0
 12  4  1  0
 12  5  2  0
 12  8  1  0
 13  6  1  0
 13  7  2  0
 13 10  1  0
 14  9  2  0
M  END
>  <NAME>  (2496) 
2-METHYL-3-(4-ISOPROPYLPHENYL)PROPIONALDEHYDE

>  <SYNONYMS>  (2496) 
CYCLAMEN ALDEHYDE

>  <SPECTRUM TYPE>  (2496) 
MS1

>  <INSTRUMENT TYPE>  (2496) 
EI-B

>  <INSTRUMENT>  (2496) 
HITACHI M-80B

>  <ION MODE>  (2496) 
P

>  <INCHIKEY>  (2496) 
ZFNVDHOSLNRHNN-UHFFFAOYSA-N

>  <FORMULA>  (2496) 
C13H18O

>  <EXACT MASS>  (2496) 
190.135765196

>  <MW>  (2496) 
190

>  <ID>  (2496) 
JP008715

>  <CONTRIBUTOR>  (2496) 
University of Tokyo Team, {Faculty of Engineering, University of Tokyo

>  <COMMENT>  (2496) 
SMILES=O=CC(C)Cc(c1)ccc(C(C)C)c1
InChI=InChI=1S/C13H18O/c1-10(2)13-6-4-12(5-7-13)8-11(3)9-14/h4-7,9-11H,8H2,1-3H3
computed SMILES=O=CC(C)CC1=CC=C(C=C1)C(C)C
accession=JP008715
date=2016.01.19 (Created 2008.10.21, modified 2011.05.06)
author=SODA AROMATIC CO., LTD.
license=CC BY-NC-SA
exact mass=190.13577
ionization energy=70 eV
ion type=[M]+*
computed spectral entropy=3.4428244937732324
computed normalized entropy=0.837492126376779
SPLASH=splash10-00lu-4900000000-390e75a8bec4be806299
submitter=submitter = University of Tokyo Team (Faculty of Engineering, University of Tokyo)
MoNA Rating=3.75

>  <NUM PEAKS>  (2496) 
61

>  <MASS SPECTRAL PEAKS>  (2496) 
15 2.13
27 9.78
29 9.3
32 4.43
39 9.07
41 13.37
42 1.14
43 11.2
44 2.77
50 2.15
51 5.91
52 2.17
53 3.4
55 2.88
58 1.63
63 4
64 2.06
65 5.38
67 1.35
69 1.68
75 1.69
76 1.57
77 8.44
78 4.36
79 4.53
89 3.94
90 1.15
91 33.14
92 7.52
93 2.91
102 2.22
103 6.09
104 3.24
105 32.79
106 4.24
115 14.99
116 5.53
117 28.69
118 12.05
119 7.65
120 7.73
121 1.28
127 2.26
128 4.24
129 5.88
130 2.69
131 8.71
132 6.4
133 99.99
134 10.96
135 1.24
145 3.92
146 1.62
147 16.53
148 3.21
157 1.44
160 1.14
175 19.59
176 3.23
190 28.04
191 4.64

$$$$

     RDKit          2D

 14 14  0  0  0  0  0  0  0  0999 V2000
   -6.4952    3.3200    0.0000 C   0  0  0  0  0  0  0  0  0  0  0  0
   -5.1962    2.5700    0.0000 C   0  0  0  0  0  0  0  0  0  0  0  0
   -3.8971    3.3200    0.0000 C   0  0  0  0  0  0  0  0  0  0  0  0
    0.0000   -1.9300    0.0000 C   0  0  0  0  0  0  0  0  0  0  0  0
    1.3000   -1.1800    0.0000 C   0  0  0  0  0  0  0  0  0  0  0  0
   -1.3000   -1.1800    0.0000 C   0  0  0  0  0  0  0  0  0  0  0  0
   -2.5981    2.5700    0.0000 C   0  0  0  0  0  0  0  0  0  0  0  0
    1.3000    0.3200    0.0000 C   0  0  0  0  0  0  0  0  0  0  0  0
   -1.3000    0.3200    0.0000 C   0  0  0  0  0  0  0  0  0  0  0  0
    0.0000    2.5700    0.0000 C   0  0  0  0  0  0  0  0  0  0  0  0
   -1.2990    4.8200    0.0000 C   0  0  0  0  0  0  0  0  0  0  0  0
    0.0000    1.0700    0.0000 C   0  0  0  0  0  0  0  0  0  0  0  0
   -1.2990    3.3200    0.0000 C   0  0  0  0  0  0  0  0  0  0  0  0
   -2.5981    5.5700    0.0000 O   0  0  0  0  0  0  0  0  0  0  0  0
  2  1  1  0
  3  2  1  0
  5  4  2  0
  6  4  1  0
  7  3  1  0
  8  5  1  0
  9  6  2  0
 12  8  2  0
 12  9  1  0
 12 10  1  0
 13  7  1  0
 10 13  2  0
 13 11  1  0
 14 11  2  0
M  END
>  <NAME>  (2497) 
ALPHA-BUTYLCINNAMALDEHYDE

>  <SYNONYMS>  (2497) 


>  <SPECTRUM TYPE>  (2497) 
MS1

>  <INSTRUMENT TYPE>  (2497) 
EI-B

>  <INSTRUMENT>  (2497) 
HITACHI M-80B

>  <ION MODE>  (2497) 
P

>  <INCHIKEY>  (2497) 
GFBCBQNBXRPRQD-JLHYYAGUSA-N

>  <FORMULA>  (2497) 
C13H16O

>  <EXACT MASS>  (2497) 
188.120115132

>  <MW>  (2497) 
188

>  <ID>  (2497) 
JP008714

>  <CONTRIBUTOR>  (2497) 
University of Tokyo Team, {Faculty of Engineering, University of Tokyo

>  <COMMENT>  (2497) 
SMILES=CCCCC(C=O)=Cc(c1)cccc1
InChI=InChI=1S/C13H16O/c1-2-3-7-13(11-14)10-12-8-5-4-6-9-12/h4-6,8-11H,2-3,7H2,1H3/b13-10+
computed SMILES=O=CC(=CC=1C=CC=CC1)CCCC
accession=JP008714
date=2016.01.19 (Created 2008.10.21, modified 2011.05.06)
author=SODA AROMATIC CO., LTD.
license=CC BY-NC-SA
exact mass=188.12012
ionization energy=70 eV
ion type=[M]+*
computed spectral entropy=3.518572737968255
computed normalized entropy=0.8254367767373754
SPLASH=splash10-014r-4900000000-2a9aef18b1630a173707
submitter=submitter = University of Tokyo Team (Faculty of Engineering, University of Tokyo)
MoNA Rating=3.75

>  <NUM PEAKS>  (2497) 
71

>  <MASS SPECTRAL PEAKS>  (2497) 
27 19.78
29 10.17
39 21.2
41 15.81
42 2.4
43 5.18
50 4.86
51 14.55
52 3.85
53 6.02
54 1.38
55 5.61
62 1.84
63 10.03
64 2.32
65 12.06
66 1.15
67 4.42
68 1.07
69 2
71 1.48
74 2.63
75 3.95
76 3.64
77 17.58
78 13.48
79 4.38
81 3.4
87 1.42
89 9.06
90 1.1
91 75.68
92 7.24
95 4.68
97 7.8
101 1.54
102 7.47
103 8.22
104 9.96
105 5.46
110 1.65
113 1.49
114 1.82
115 82.28
116 30.38
117 99.99
118 16.53
119 2.35
127 8.83
128 15.88
129 76.84
130 10.35
131 36.64
132 6.64
133 2.02
141 13.43
142 3.04
143 1.26
144 2.74
145 39.02
146 8.11
147 1.18
155 3.64
157 5.33
158 2.66
159 7.58
160 2.78
173 2.82
187 34.11
188 57.86
189 7.65

$$$$

     RDKit          2D

 11 12  0  0  0  0  0  0  0  0999 V2000
    1.9500   -0.9000    0.0000 C   0  0  0  0  0  0  0  0  0  0  0  0
    0.6300   -1.6600    0.0000 C   0  0  0  0  0  0  0  0  0  0  0  0
    0.6300    1.3800    0.0000 C   0  0  0  0  0  0  0  0  0  0  0  0
    3.2486    1.3708    0.0000 C   0  0  0  0  0  0  0  0  0  0  0  0
   -2.9400   -0.2300    0.0000 C   0  0  0  0  0  0  0  0  0  0  0  0
    1.9500    0.6200    0.0000 C   0  0  0  0  0  0  0  0  0  0  0  0
   -0.6600   -0.9000    0.0000 C   0  0  0  0  0  0  0  0  0  0  0  0
   -0.6600    0.6200    0.0000 C   0  0  0  0  0  0  0  0  0  0  0  0
    4.5481    0.6216    0.0000 O   0  0  0  0  0  0  0  0  0  0  0  0
   -2.0600   -1.3400    0.0000 O   0  0  0  0  0  0  0  0  0  0  0  0
   -2.0900    1.0600    0.0000 O   0  0  0  0  0  0  0  0  0  0  0  0
  2  1  2  0
  6  1  1  0
  6  3  2  0
  6  4  1  0
  7  2  1  0
  8  3  1  0
  8  7  2  0
  9  4  2  0
 10  5  1  0
 10  7  1  0
 11  5  1  0
 11  8  1  0
M  END
>  <NAME>  (2498) 
3,4-METHYLENEDIOXYBENZALDEHYDE

>  <SYNONYMS>  (2498) 
HELIOTROPINE

>  <SPECTRUM TYPE>  (2498) 
MS1

>  <INSTRUMENT TYPE>  (2498) 
EI-B

>  <INSTRUMENT>  (2498) 
HITACHI M-80B

>  <ION MODE>  (2498) 
P

>  <INCHIKEY>  (2498) 
SATCULPHIDQDRE-UHFFFAOYSA-N

>  <FORMULA>  (2498) 
C8H6O3

>  <EXACT MASS>  (2498) 
150.03169405199998

>  <MW>  (2498) 
150

>  <ID>  (2498) 
JP008713

>  <CONTRIBUTOR>  (2498) 
University of Tokyo Team, {Faculty of Engineering, University of Tokyo

>  <COMMENT>  (2498) 
SMILES=O=Cc(c1)cc(O2)c(OC2)c1
InChI=InChI=1S/C8H6O3/c9-4-6-1-2-7-8(3-6)11-5-10-7/h1-4H,5H2
computed SMILES=O=CC1=CC=C2OCOC2=C1
accession=JP008713
date=2016.01.19 (Created 2008.10.21, modified 2011.05.06)
author=SODA AROMATIC CO., LTD.
license=CC BY-NC-SA
exact mass=150.03169
ionization energy=70 eV
ion type=[M]+*
computed spectral entropy=2.458691682583962
computed normalized entropy=0.7378573779238679
SPLASH=splash10-0f6t-5900000000-f62030c087954cb17793
submitter=submitter = University of Tokyo Team (Faculty of Engineering, University of Tokyo)
MoNA Rating=3.75

>  <NUM PEAKS>  (2498) 
28

>  <MASS SPECTRAL PEAKS>  (2498) 
26 1.13
29 8.72
30 1.01
37 4.09
38 7.18
39 7
49 1.53
50 5.23
51 4.96
52 1.11
53 5.7
61 7.26
62 13.94
63 34.8
64 6.73
65 21.91
66 3.03
74 2.55
79 1.47
91 9.28
92 1.84
119 6.27
120 1.36
121 27.68
122 2.56
149 99.99
150 87.61
151 6.45

$$$$

     RDKit          2D

 11 11  0  0  0  0  0  0  0  0999 V2000
    3.8981    0.7504    0.0000 C   0  0  0  0  0  0  0  0  0  0  0  0
    2.5987    3.0002    0.0000 C   0  0  0  0  0  0  0  0  0  0  0  0
   -1.3000    0.7500    0.0000 C   0  0  0  0  0  0  0  0  0  0  0  0
   -0.0000   -1.5000    0.0000 C   0  0  0  0  0  0  0  0  0  0  0  0
    0.0000    1.5000    0.0000 C   0  0  0  0  0  0  0  0  0  0  0  0
    1.3000   -0.7500    0.0000 C   0  0  0  0  0  0  0  0  0  0  0  0
   -2.5989   -1.5002    0.0000 C   0  0  0  0  0  0  0  0  0  0  0  0
    2.5989    1.5002    0.0000 C   0  0  0  0  0  0  0  0  0  0  0  0
   -1.3000   -0.7500    0.0000 C   0  0  0  0  0  0  0  0  0  0  0  0
    1.3000    0.7500    0.0000 C   0  0  0  0  0  0  0  0  0  0  0  0
   -3.8981   -0.7504    0.0000 O   0  0  0  0  0  0  0  0  0  0  0  0
  5  3  2  0
  6  4  1  0
  8  1  1  0
  8  2  1  0
  9  3  1  0
  9  4  2  0
  9  7  1  0
 10  5  1  0
 10  6  2  0
 10  8  1  0
 11  7  2  0
M  END
>  <NAME>  (2499) 
4-ISOPROPYLBENZALDEHYDE

>  <SYNONYMS>  (2499) 
CUMINIC ALDEHYDE

>  <SPECTRUM TYPE>  (2499) 
MS1

>  <INSTRUMENT TYPE>  (2499) 
EI-B

>  <INSTRUMENT>  (2499) 
HITACHI M-80B

>  <ION MODE>  (2499) 
P

>  <INCHIKEY>  (2499) 
WTWBUQJHJGUZCY-UHFFFAOYSA-N

>  <FORMULA>  (2499) 
C10H12O

>  <EXACT MASS>  (2499) 
148.088815004

>  <MW>  (2499) 
148

>  <ID>  (2499) 
JP008712

>  <CONTRIBUTOR>  (2499) 
University of Tokyo Team, {Faculty of Engineering, University of Tokyo

>  <COMMENT>  (2499) 
SMILES=O=Cc(c1)ccc(C(C)C)c1
InChI=InChI=1S/C10H12O/c1-8(2)10-5-3-9(7-11)4-6-10/h3-8H,1-2H3
computed SMILES=O=CC1=CC=C(C=C1)C(C)C
accession=JP008712
date=2016.01.19 (Created 2008.10.21, modified 2011.05.06)
author=SODA AROMATIC CO., LTD.
license=CC BY-NC-SA
exact mass=148.08882
ionization energy=70 eV
ion type=[M]+*
computed spectral entropy=3.038153286181944
computed normalized entropy=0.7981146987279282
SPLASH=splash10-0561-6900000000-5b0379bb7c7e6a17d117
submitter=submitter = University of Tokyo Team (Faculty of Engineering, University of Tokyo)
MoNA Rating=3.75

>  <NUM PEAKS>  (2499) 
45

>  <MASS SPECTRAL PEAKS>  (2499) 
15 2.28
27 13.94
29 9.86
32 1.04
38 2.02
39 16.88
41 14.84
43 1.05
50 8.91
51 24.13
52 4.01
53 3.39
62 2.53
63 7.44
64 1.35
65 6
66 1.38
74 3.61
75 3.88
76 4.52
77 42.02
78 10.86
79 24.89
80 1.47
89 2.75
90 1.3
91 27.3
92 1.99
102 3.48
103 22.3
104 6.9
105 74.57
106 5.51
115 4.42
116 1.01
117 1.75
119 26.11
120 2.4
131 3.03
132 1.46
133 99.99
134 8.24
147 7.67
148 65.68
149 6.6

$$$$

     RDKit          2D

 11 11  0  0  0  0  0  0  0  0999 V2000
   -2.2731    0.5071    0.0000 C   0  0  0  0  0  0  0  0  0  0  0  0
    2.9231    0.5071    0.0000 C   0  0  0  0  0  0  0  0  0  0  0  0
    2.9236    2.0079    0.0000 C   0  0  0  0  0  0  0  0  0  0  0  0
    1.6236   -0.2437    0.0000 C   0  0  0  0  0  0  0  0  0  0  0  0
    1.6245    2.7579    0.0000 C   0  0  0  0  0  0  0  0  0  0  0  0
    0.3245    0.5063    0.0000 C   0  0  0  0  0  0  0  0  0  0  0  0
   -0.9740    2.7571    0.0000 C   0  0  0  0  0  0  0  0  0  0  0  0
   -3.5721    2.7571    0.0000 C   0  0  0  0  0  0  0  0  0  0  0  0
   -2.2731    2.0071    0.0000 C   0  0  0  0  0  0  0  0  0  0  0  0
    0.3250    2.0071    0.0000 C   0  0  0  0  0  0  0  0  0  0  0  0
   -4.8712    2.0071    0.0000 O   0  0  0  0  0  0  0  0  0  0  0  0
  3  2  2  0
  4  2  1  0
  5  3  1  0
  6  4  2  0
  9  1  1  0
  7  9  2  0
  9  8  1  0
 10  5  2  0
 10  6  1  0
 10  7  1  0
 11  8  2  0
M  END
>  <NAME>  (2500) 
ALPHA-METHYLCINNAMALDEHYDE

>  <SYNONYMS>  (2500) 


>  <SPECTRUM TYPE>  (2500) 
MS1

>  <INSTRUMENT TYPE>  (2500) 
EI-B

>  <INSTRUMENT>  (2500) 
HITACHI M-80B

>  <ION MODE>  (2500) 
P

>  <INCHIKEY>  (2500) 
VLUMOWNVWOXZAU-VQHVLOKHSA-N

>  <FORMULA>  (2500) 
C10H10O

>  <EXACT MASS>  (2500) 
146.07316494

>  <MW>  (2500) 
146

>  <ID>  (2500) 
JP008711

>  <CONTRIBUTOR>  (2500) 
University of Tokyo Team, {Faculty of Engineering, University of Tokyo

>  <COMMENT>  (2500) 
SMILES=O=CC(C)=Cc(c1)cccc1
InChI=InChI=1S/C10H10O/c1-9(8-11)7-10-5-3-2-4-6-10/h2-8H,1H3/b9-7+
computed SMILES=O=CC(=CC=1C=CC=CC1)C
accession=JP008711
date=2016.01.19 (Created 2008.10.21, modified 2011.05.06)
author=SODA AROMATIC CO., LTD.
license=CC BY-NC-SA
exact mass=146.07316
ionization energy=70 eV
ion type=[M]+*
computed spectral entropy=3.0373734547459272
computed normalized entropy=0.7804505917759075
SPLASH=splash10-00kb-6900000000-1f699bf3fa26740328df
submitter=submitter = University of Tokyo Team (Faculty of Engineering, University of Tokyo)
MoNA Rating=3.75

>  <NUM PEAKS>  (2500) 
49

>  <MASS SPECTRAL PEAKS>  (2500) 
18 1.01
26 1.31
27 5.8
29 12.2
37 1.07
38 4.1
39 30.16
40 2.38
41 3.78
50 11.11
51 26.37
52 5.14
53 1.73
58 2.23
61 2.04
62 6.64
63 17.83
64 3.16
65 14.2
68 1.07
74 5
75 4.62
76 3.99
77 11.09
78 41.92
79 2.97
86 2
87 2.65
88 1.28
89 10.28
90 2.46
91 46.49
92 3.82
102 5.34
103 9.94
105 2.72
113 1.58
114 1.53
115 66.11
116 15.05
117 83.66
118 11.32
127 1.48
128 2.31
129 1.29
131 7.69
145 99.99
146 87.68
147 7.78

$$$$

     RDKit          2D

 10 10  0  0  0  0  0  0  0  0999 V2000
   -3.5794    0.1813    0.0000 C   0  0  0  0  0  0  0  0  0  0  0  0
    0.3223   -2.0565    0.0000 C   0  0  0  0  0  0  0  0  0  0  0  0
    1.6168   -1.3143    0.0000 C   0  0  0  0  0  0  0  0  0  0  0  0
   -0.9768   -1.3065    0.0000 C   0  0  0  0  0  0  0  0  0  0  0  0
    0.3182    0.9365    0.0000 C   0  0  0  0  0  0  0  0  0  0  0  0
    2.9164    0.9363    0.0000 C   0  0  0  0  0  0  0  0  0  0  0  0
    1.6173    0.1865    0.0000 C   0  0  0  0  0  0  0  0  0  0  0  0
   -0.9813    0.1857    0.0000 C   0  0  0  0  0  0  0  0  0  0  0  0
    4.2153    0.1861    0.0000 O   0  0  0  0  0  0  0  0  0  0  0  0
   -2.2816    0.9335    0.0000 O   0  0  0  0  0  0  0  0  0  0  0  0
  3  2  2  0
  4  2  1  0
  7  3  1  0
  7  5  2  0
  7  6  1  0
  8  4  2  0
  8  5  1  0
  9  6  2  0
 10  1  1  0
 10  8  1  0
M  END
>  <NAME>  (2501) 
M-METHOXYBENZALDEHYDE

>  <SYNONYMS>  (2501) 


>  <SPECTRUM TYPE>  (2501) 
MS1

>  <INSTRUMENT TYPE>  (2501) 
EI-B

>  <INSTRUMENT>  (2501) 
HITACHI M-80B

>  <ION MODE>  (2501) 
P

>  <INCHIKEY>  (2501) 
WMPDAIZRQDCGFH-UHFFFAOYSA-N

>  <FORMULA>  (2501) 
C8H8O2

>  <EXACT MASS>  (2501) 
136.052429496

>  <MW>  (2501) 
136

>  <ID>  (2501) 
JP008710

>  <CONTRIBUTOR>  (2501) 
University of Tokyo Team, {Faculty of Engineering, University of Tokyo

>  <COMMENT>  (2501) 
SMILES=O=Cc(c1)cc(OC)cc1
InChI=InChI=1S/C8H8O2/c1-10-8-4-2-3-7(5-8)6-9/h2-6H,1H3
computed SMILES=O=CC=1C=CC=C(OC)C1
accession=JP008710
date=2016.01.19 (Created 2008.10.21, modified 2011.05.06)
author=SODA AROMATIC CO., LTD.
license=CC BY-NC-SA
exact mass=136.05243
ionization energy=70 eV
ion type=[M]+*
computed spectral entropy=2.771095807208897
computed normalized entropy=0.7794161807179081
SPLASH=splash10-000i-9800000000-8c6402d697d352358d8e
submitter=submitter = University of Tokyo Team (Faculty of Engineering, University of Tokyo)
MoNA Rating=3.75

>  <NUM PEAKS>  (2501) 
35

>  <MASS SPECTRAL PEAKS>  (2501) 
15 2.77
18 2.21
27 2.24
29 9.17
37 2.56
38 7.53
39 21.58
49 1.16
50 12.34
51 12.7
52 2.01
53 2.74
61 1.99
62 5.27
63 22.21
64 14.18
65 26.76
66 1.65
73 1.04
74 5.18
75 3.07
76 5.41
77 40.31
78 9.55
79 3.74
92 20.84
93 3.54
105 2.33
106 1.56
107 35.94
108 5.49
119 1.1
135 88.41
136 99.99
137 7.95

$$$$

     RDKit          2D

 10 10  0  0  0  0  0  0  0  0999 V2000
    1.9487   -3.0002    0.0000 C   0  0  0  0  0  0  0  0  0  0  0  0
   -1.9500    0.7500    0.0000 C   0  0  0  0  0  0  0  0  0  0  0  0
   -1.9500   -0.7500    0.0000 C   0  0  0  0  0  0  0  0  0  0  0  0
   -0.6500    1.5000    0.0000 C   0  0  0  0  0  0  0  0  0  0  0  0
   -0.6500   -1.5000    0.0000 C   0  0  0  0  0  0  0  0  0  0  0  0
    1.9489    1.5002    0.0000 C   0  0  0  0  0  0  0  0  0  0  0  0
    0.6500    0.7500    0.0000 C   0  0  0  0  0  0  0  0  0  0  0  0
    0.6500   -0.7500    0.0000 C   0  0  0  0  0  0  0  0  0  0  0  0
    1.9487    3.0002    0.0000 O   0  0  0  0  0  0  0  0  0  0  0  0
    1.9489   -1.5002    0.0000 O   0  0  0  0  0  0  0  0  0  0  0  0
  3  2  2  0
  4  2  1  0
  5  3  1  0
  7  4  2  0
  7  6  1  0
  8  5  2  0
  8  7  1  0
  9  6  2  0
 10  1  1  0
 10  8  1  0
M  END
>  <NAME>  (2502) 
O-METHOXYBENZALDEHYDE

>  <SYNONYMS>  (2502) 


>  <SPECTRUM TYPE>  (2502) 
MS1

>  <INSTRUMENT TYPE>  (2502) 
EI-B

>  <INSTRUMENT>  (2502) 
HITACHI M-80B

>  <ION MODE>  (2502) 
P

>  <INCHIKEY>  (2502) 
PKZJLOCLABXVMC-UHFFFAOYSA-N

>  <FORMULA>  (2502) 
C8H8O2

>  <EXACT MASS>  (2502) 
136.052429496

>  <MW>  (2502) 
136

>  <ID>  (2502) 
JP008709

>  <CONTRIBUTOR>  (2502) 
University of Tokyo Team, {Faculty of Engineering, University of Tokyo

>  <COMMENT>  (2502) 
SMILES=O=Cc(c1)c(OC)ccc1
InChI=InChI=1S/C8H8O2/c1-10-8-5-3-2-4-7(8)6-9/h2-6H,1H3
computed SMILES=O=CC=1C=CC=CC1OC
accession=JP008709
date=2016.01.19 (Created 2008.10.21, modified 2011.05.06)
author=SODA AROMATIC CO., LTD.
license=CC BY-NC-SA
exact mass=136.05243
ionization energy=70 eV
ion type=[M]+*
computed spectral entropy=3.3361487395055667
computed normalized entropy=0.8664989202034236
SPLASH=splash10-002r-9500000000-ab1452f1184986cd6973
submitter=submitter = University of Tokyo Team (Faculty of Engineering, University of Tokyo)
MoNA Rating=3.75

>  <NUM PEAKS>  (2502) 
47

>  <MASS SPECTRAL PEAKS>  (2502) 
15 4.7
26 1.3
27 3.49
28 2.91
29 10.26
31 3.03
37 4.29
38 11.43
39 36.15
49 1.77
50 23.93
51 28.99
52 3.95
53 6.47
61 3.46
62 7.32
63 27.23
64 14.83
65 34.04
66 3.18
73 1.82
74 8.45
75 5.45
76 39.03
77 69.5
78 32.13
79 20.87
80 1.59
89 1.64
90 15.49
91 14.72
92 28.73
93 8.36
94 8.18
104 22.37
105 16.52
106 1.23
107 11.24
108 1.59
118 22.41
119 26.39
120 5.43
121 14.73
122 1.23
135 48.43
136 99.99
137 7.75

$$$$

     RDKit          2D

 10 10  0  0  0  0  0  0  0  0999 V2000
   -3.9008    0.7413    0.0000 C   0  0  0  0  0  0  0  0  0  0  0  0
    0.0072   -1.5063    0.0000 C   0  0  0  0  0  0  0  0  0  0  0  0
    1.3207    0.7186    0.0000 C   0  0  0  0  0  0  0  0  0  0  0  0
   -1.2773   -0.7814    0.0000 C   0  0  0  0  0  0  0  0  0  0  0  0
   -0.0038    1.5127    0.0000 C   0  0  0  0  0  0  0  0  0  0  0  0
    2.6016   -1.5127    0.0000 C   0  0  0  0  0  0  0  0  0  0  0  0
    1.3062   -0.7563    0.0000 C   0  0  0  0  0  0  0  0  0  0  0  0
   -1.3028    0.7627    0.0000 C   0  0  0  0  0  0  0  0  0  0  0  0
    3.9043   -0.7691    0.0000 O   0  0  0  0  0  0  0  0  0  0  0  0
   -2.6080    1.5020    0.0000 O   0  0  0  0  0  0  0  0  0  0  0  0
  4  2  2  0
  5  3  1  0
  7  2  1  0
  7  3  2  0
  7  6  1  0
  8  4  1  0
  8  5  2  0
  9  6  2  0
 10  1  1  0
 10  8  1  0
M  END
>  <NAME>  (2503) 
4-METHOXYBENZALDEHYDE

>  <SYNONYMS>  (2503) 
ANISALDEHYDE

>  <SPECTRUM TYPE>  (2503) 
MS1

>  <INSTRUMENT TYPE>  (2503) 
EI-B

>  <INSTRUMENT>  (2503) 
HITACHI M-80B

>  <ION MODE>  (2503) 
P

>  <INCHIKEY>  (2503) 
ZRSNZINYAWTAHE-UHFFFAOYSA-N

>  <FORMULA>  (2503) 
C8H8O2

>  <EXACT MASS>  (2503) 
136.052429496

>  <MW>  (2503) 
136

>  <ID>  (2503) 
JP008708

>  <CONTRIBUTOR>  (2503) 
University of Tokyo Team, {Faculty of Engineering, University of Tokyo

>  <COMMENT>  (2503) 
SMILES=O=Cc(c1)ccc(OC)c1
InChI=InChI=1S/C8H8O2/c1-10-8-4-2-7(6-9)3-5-8/h2-6H,1H3
computed SMILES=O=CC1=CC=C(OC)C=C1
accession=JP008708
date=2016.01.19 (Created 2008.10.21, modified 2011.05.06)
author=SODA AROMATIC CO., LTD.
license=CC BY-NC-SA
exact mass=136.05243
ionization energy=70 eV
ion type=[M]+*
computed spectral entropy=2.5703525910058196
computed normalized entropy=0.7557199134822619
SPLASH=splash10-000i-8900000000-d51f38f91dea18a7ca2b
submitter=submitter = University of Tokyo Team (Faculty of Engineering, University of Tokyo)
MoNA Rating=3.75

>  <NUM PEAKS>  (2503) 
30

>  <MASS SPECTRAL PEAKS>  (2503) 
15 3.39
27 1.9
29 6.22
37 2.47
38 6.62
39 16.43
50 9.44
51 10.6
52 1.46
53 2.04
61 1.71
62 4.09
63 13.55
64 11.79
65 12.63
66 1.57
74 4.31
75 2.63
76 3.6
77 34.65
78 4.25
79 2.31
92 21
93 3.01
105 1.12
107 9.68
108 1.52
135 99.99
136 73.7
137 5.4

$$$$

     RDKit          2D

 10 10  0  0  0  0  0  0  0  0999 V2000
   -0.9743   -0.6175    0.0000 C   0  0  0  0  0  0  0  0  0  0  0  0
    2.9228    3.1325    0.0000 C   0  0  0  0  0  0  0  0  0  0  0  0
    1.6233    3.8833    0.0000 C   0  0  0  0  0  0  0  0  0  0  0  0
    2.9233    1.6317    0.0000 C   0  0  0  0  0  0  0  0  0  0  0  0
    0.3243    3.1333    0.0000 C   0  0  0  0  0  0  0  0  0  0  0  0
    1.6243    0.8817    0.0000 C   0  0  0  0  0  0  0  0  0  0  0  0
   -2.2733    1.6325    0.0000 C   0  0  0  0  0  0  0  0  0  0  0  0
   -0.9743    0.8825    0.0000 C   0  0  0  0  0  0  0  0  0  0  0  0
    0.3248    1.6325    0.0000 C   0  0  0  0  0  0  0  0  0  0  0  0
   -3.5724    0.8825    0.0000 O   0  0  0  0  0  0  0  0  0  0  0  0
  3  2  2  0
  4  2  1  0
  5  3  1  0
  6  4  2  0
  8  1  1  0
  8  7  1  0
  9  5  2  0
  9  6  1  0
  9  8  1  0
 10  7  2  0
M  END
>  <NAME>  (2504) 
2-PHENYLPROPIONALDEHYDE

>  <SYNONYMS>  (2504) 
HYDRATROPALDEHYDE

>  <SPECTRUM TYPE>  (2504) 
MS1

>  <INSTRUMENT TYPE>  (2504) 
EI-B

>  <INSTRUMENT>  (2504) 
HITACHI M-80B

>  <ION MODE>  (2504) 
P

>  <INCHIKEY>  (2504) 
IQVAERDLDAZARL-UHFFFAOYSA-N

>  <FORMULA>  (2504) 
C9H10O

>  <EXACT MASS>  (2504) 
134.07316494

>  <MW>  (2504) 
134

>  <ID>  (2504) 
JP008707

>  <CONTRIBUTOR>  (2504) 
University of Tokyo Team, {Faculty of Engineering, University of Tokyo

>  <COMMENT>  (2504) 
computed SMILES=O=CC(C=1C=CC=CC1)C
SMILES=O=CC(C)c(c1)cccc1
InChI=InChI=1S/C9H10O/c1-8(7-10)9-5-3-2-4-6-9/h2-8H,1H3
accession=JP008707
date=2016.01.19 (Created 2008.10.21, modified 2011.05.06)
author=SODA AROMATIC CO., LTD.
license=CC BY-NC-SA
exact mass=134.07316
ionization energy=70 eV
ion type=[M]+*
computed spectral entropy=2.291101922516356
computed normalized entropy=0.7209135039306485
SPLASH=splash10-0a4i-6900000000-1cec9c93971f4a126413
submitter=submitter = University of Tokyo Team (Faculty of Engineering, University of Tokyo)
MoNA Rating=3.75

>  <NUM PEAKS>  (2504) 
24

>  <MASS SPECTRAL PEAKS>  (2504) 
27 5.36
29 4.3
39 5.68
50 4.3
51 11.82
52 2.37
53 1.5
62 1.49
63 3.62
65 2.47
74 1.48
75 1.27
76 1.05
77 22.26
78 5.34
79 18.39
89 1.69
91 8.79
102 1.34
103 10.83
104 3.21
105 99.99
106 10.28
134 10.02

$$$$

     RDKit          2D

 10 10  0  0  0  0  0  0  0  0999 V2000
    2.9231    0.5071    0.0000 C   0  0  0  0  0  0  0  0  0  0  0  0
    2.9236    2.0079    0.0000 C   0  0  0  0  0  0  0  0  0  0  0  0
    1.6236   -0.2437    0.0000 C   0  0  0  0  0  0  0  0  0  0  0  0
   -2.2731    2.0071    0.0000 C   0  0  0  0  0  0  0  0  0  0  0  0
    1.6245    2.7579    0.0000 C   0  0  0  0  0  0  0  0  0  0  0  0
    0.3245    0.5063    0.0000 C   0  0  0  0  0  0  0  0  0  0  0  0
   -0.9740    2.7571    0.0000 C   0  0  0  0  0  0  0  0  0  0  0  0
   -3.5721    2.7571    0.0000 C   0  0  0  0  0  0  0  0  0  0  0  0
    0.3250    2.0071    0.0000 C   0  0  0  0  0  0  0  0  0  0  0  0
   -4.8712    2.0071    0.0000 O   0  0  0  0  0  0  0  0  0  0  0  0
  2  1  2  0
  3  1  1  0
  5  2  1  0
  6  3  2  0
  7  4  1  0
  8  4  1  0
  9  5  2  0
  9  6  1  0
  9  7  1  0
 10  8  2  0
M  END
>  <NAME>  (2505) 
3-PHENYLPROPANAL

>  <SYNONYMS>  (2505) 


>  <SPECTRUM TYPE>  (2505) 
MS1

>  <INSTRUMENT TYPE>  (2505) 
EI-B

>  <INSTRUMENT>  (2505) 
HITACHI M-80B

>  <ION MODE>  (2505) 
P

>  <INCHIKEY>  (2505) 
YGCZTXZTJXYWCO-UHFFFAOYSA-N

>  <FORMULA>  (2505) 
C9H10O

>  <EXACT MASS>  (2505) 
134.07316494

>  <MW>  (2505) 
134

>  <ID>  (2505) 
JP008706

>  <CONTRIBUTOR>  (2505) 
University of Tokyo Team, {Faculty of Engineering, University of Tokyo

>  <COMMENT>  (2505) 
SMILES=O=CCCc(c1)cccc1
InChI=InChI=1S/C9H10O/c10-8-4-7-9-5-2-1-3-6-9/h1-3,5-6,8H,4,7H2
computed SMILES=O=CCCC=1C=CC=CC1
accession=JP008706
date=2016.01.19 (Created 2008.10.21, modified 2011.05.06)
author=SODA AROMATIC CO., LTD.
license=CC BY-NC-SA
exact mass=134.07316
ionization energy=70 eV
ion type=[M]+*
computed spectral entropy=2.9564578764019536
computed normalized entropy=0.781265782745869
SPLASH=splash10-002f-9200000000-79841a7270e9c9570f25
submitter=submitter = University of Tokyo Team (Faculty of Engineering, University of Tokyo)
MoNA Rating=3.75

>  <NUM PEAKS>  (2505) 
44

>  <MASS SPECTRAL PEAKS>  (2505) 
15 1.2
26 1.9
27 12.27
29 11.71
38 2.77
39 19.11
41 2.35
42 1.14
50 8.72
51 26.54
52 5.23
53 2.85
55 3.29
56 2.56
57 1.01
62 2.93
63 8.64
64 1.8
65 19.13
66 1.34
74 2.89
75 2.47
76 2.24
77 32.15
78 53.27
79 20.82
80 1.31
89 4.23
90 1.86
91 99.99
92 73.4
93 4
102 2.12
103 12.5
104 4.25
105 32.7
106 3.67
107 1.18
115 4.46
116 3.62
117 1.43
133 6.2
134 54.93
135 4.26

$$$$

     RDKit          2D

 10 10  0  0  0  0  0  0  0  0999 V2000
    2.9231    0.5071    0.0000 C   0  0  0  0  0  0  0  0  0  0  0  0
    2.9236    2.0079    0.0000 C   0  0  0  0  0  0  0  0  0  0  0  0
    1.6236   -0.2437    0.0000 C   0  0  0  0  0  0  0  0  0  0  0  0
   -2.2731    2.0071    0.0000 C   0  0  0  0  0  0  0  0  0  0  0  0
    1.6245    2.7579    0.0000 C   0  0  0  0  0  0  0  0  0  0  0  0
    0.3245    0.5063    0.0000 C   0  0  0  0  0  0  0  0  0  0  0  0
   -0.9740    2.7571    0.0000 C   0  0  0  0  0  0  0  0  0  0  0  0
   -3.5721    2.7571    0.0000 C   0  0  0  0  0  0  0  0  0  0  0  0
    0.3250    2.0071    0.0000 C   0  0  0  0  0  0  0  0  0  0  0  0
   -4.8712    2.0071    0.0000 O   0  0  0  0  0  0  0  0  0  0  0  0
  2  1  2  0
  3  1  1  0
  5  2  1  0
  6  3  2  0
  4  7  2  0
  8  4  1  0
  9  5  2  0
  9  6  1  0
  9  7  1  0
 10  8  2  0
M  END
>  <NAME>  (2506) 
CINNAMALDEHYDE

>  <SYNONYMS>  (2506) 


>  <SPECTRUM TYPE>  (2506) 
MS1

>  <INSTRUMENT TYPE>  (2506) 
EI-B

>  <INSTRUMENT>  (2506) 
HITACHI M-80B

>  <ION MODE>  (2506) 
P

>  <INCHIKEY>  (2506) 
KJPRLNWUNMBNBZ-QPJJXVBHSA-N

>  <FORMULA>  (2506) 
C9H8O

>  <EXACT MASS>  (2506) 
132.057514876

>  <MW>  (2506) 
132

>  <ID>  (2506) 
JP008705

>  <CONTRIBUTOR>  (2506) 
University of Tokyo Team, {Faculty of Engineering, University of Tokyo

>  <COMMENT>  (2506) 
SMILES=O=CC=Cc(c1)cccc1
InChI=InChI=1S/C9H8O/c10-8-4-7-9-5-2-1-3-6-9/h1-8H/b7-4+
computed SMILES=O=CC=CC=1C=CC=CC1
accession=JP008705
date=2016.01.19 (Created 2008.10.21, modified 2011.05.06)
author=SODA AROMATIC CO., LTD.
license=CC BY-NC-SA
exact mass=132.05751
ionization energy=70 eV
ion type=[M]+*
computed spectral entropy=2.7992778979662196
computed normalized entropy=0.7640864733157976
SPLASH=splash10-0ugi-8900000000-14f14e29c81360ebdd4b
submitter=submitter = University of Tokyo Team (Faculty of Engineering, University of Tokyo)
MoNA Rating=3.75

>  <NUM PEAKS>  (2506) 
39

>  <MASS SPECTRAL PEAKS>  (2506) 
15 1.32
26 2.7
27 6.45
29 10.28
37 1.88
38 3.99
39 10.49
49 1.43
50 19.29
51 48.35
52 9.56
53 2.34
54 1.5
55 1.17
61 2.1
62 5.18
63 10.12
64 1.38
65 1.79
66 1.46
73 1.56
74 8.84
75 7.79
76 8.05
77 54.98
78 43.29
79 2.33
87 1.26
89 1.66
91 2.36
101 1.71
102 10.82
103 63.66
104 35.15
105 3.84
130 1.54
131 99.99
132 75.18
133 6.36

$$$$

     RDKit          2D

  9  9  0  0  0  0  0  0  0  0999 V2000
    3.8981    1.5002    0.0000 C   0  0  0  0  0  0  0  0  0  0  0  0
    2.5992   -0.7500    0.0000 C   0  0  0  0  0  0  0  0  0  0  0  0
    1.2992    1.5000    0.0000 C   0  0  0  0  0  0  0  0  0  0  0  0
    1.2992   -1.5000    0.0000 C   0  0  0  0  0  0  0  0  0  0  0  0
   -0.0008    0.7500    0.0000 C   0  0  0  0  0  0  0  0  0  0  0  0
   -1.2998   -1.5002    0.0000 C   0  0  0  0  0  0  0  0  0  0  0  0
    2.5992    0.7500    0.0000 C   0  0  0  0  0  0  0  0  0  0  0  0
   -0.0008   -0.7500    0.0000 C   0  0  0  0  0  0  0  0  0  0  0  0
   -2.5989   -0.7504    0.0000 O   0  0  0  0  0  0  0  0  0  0  0  0
  4  2  2  0
  5  3  1  0
  7  1  1  0
  7  2  1  0
  7  3  2  0
  8  4  1  0
  8  5  2  0
  8  6  1  0
  9  6  2  0
M  END
>  <NAME>  (2507) 
P-METHYLBENZALDEHYDE

>  <SYNONYMS>  (2507) 


>  <SPECTRUM TYPE>  (2507) 
MS1

>  <INSTRUMENT TYPE>  (2507) 
EI-B

>  <INSTRUMENT>  (2507) 
HITACHI M-80B

>  <ION MODE>  (2507) 
P

>  <INCHIKEY>  (2507) 
FXLOVSHXALFLKQ-UHFFFAOYSA-N

>  <FORMULA>  (2507) 
C8H8O

>  <EXACT MASS>  (2507) 
120.057514876

>  <MW>  (2507) 
120

>  <ID>  (2507) 
JP008704

>  <CONTRIBUTOR>  (2507) 
University of Tokyo Team, {Faculty of Engineering, University of Tokyo

>  <COMMENT>  (2507) 
SMILES=O=Cc(c1)ccc(C)c1
InChI=InChI=1S/C8H8O/c1-7-2-4-8(6-9)5-3-7/h2-6H,1H3
computed SMILES=O=CC1=CC=C(C=C1)C
accession=JP008704
date=2016.01.19 (Created 2008.10.21, modified 2011.05.06)
author=SODA AROMATIC CO., LTD.
license=CC BY-NC-SA
exact mass=120.05751
ionization energy=70 eV
ion type=[M]+*
computed spectral entropy=2.362007937502455
computed normalized entropy=0.7014554279633765
SPLASH=splash10-01bc-9700000000-ff0e14ae428ad7d54394
submitter=submitter = University of Tokyo Team (Faculty of Engineering, University of Tokyo)
MoNA Rating=3.75

>  <NUM PEAKS>  (2507) 
29

>  <MASS SPECTRAL PEAKS>  (2507) 
27 2.25
29 5.74
37 1.35
38 3.6
39 19.58
40 1
41 2.66
50 8.16
51 10.62
52 1.86
53 1.06
61 2.28
62 7.39
63 15.9
64 3.21
65 26.42
66 1.6
74 2.3
75 1.47
77 1.29
86 1.41
87 1.04
89 9.79
90 3.82
91 92.09
92 10.76
119 99.99
120 82.84
121 7.59

$$$$

     RDKit          2D

  9  9  0  0  0  0  0  0  0  0999 V2000
    3.2511   -1.1212    0.0000 C   0  0  0  0  0  0  0  0  0  0  0  0
    0.6473    1.8688    0.0000 C   0  0  0  0  0  0  0  0  0  0  0  0
    1.9463    1.1188    0.0000 C   0  0  0  0  0  0  0  0  0  0  0  0
   -0.6473    1.1266    0.0000 C   0  0  0  0  0  0  0  0  0  0  0  0
    0.6513   -1.1242    0.0000 C   0  0  0  0  0  0  0  0  0  0  0  0
   -1.9469   -1.1240    0.0000 C   0  0  0  0  0  0  0  0  0  0  0  0
    1.9508   -0.3734    0.0000 C   0  0  0  0  0  0  0  0  0  0  0  0
   -0.6477   -0.3742    0.0000 C   0  0  0  0  0  0  0  0  0  0  0  0
   -3.2458   -0.3738    0.0000 O   0  0  0  0  0  0  0  0  0  0  0  0
  3  2  2  0
  4  2  1  0
  7  1  1  0
  7  3  1  0
  7  5  2  0
  8  4  2  0
  8  5  1  0
  8  6  1  0
  9  6  2  0
M  END
>  <NAME>  (2508) 
M-METHYLBENZALDEHYDE

>  <SYNONYMS>  (2508) 


>  <SPECTRUM TYPE>  (2508) 
MS1

>  <INSTRUMENT TYPE>  (2508) 
EI-B

>  <INSTRUMENT>  (2508) 
HITACHI M-80B

>  <ION MODE>  (2508) 
P

>  <INCHIKEY>  (2508) 
OVWYEQOVUDKZNU-UHFFFAOYSA-N

>  <FORMULA>  (2508) 
C8H8O

>  <EXACT MASS>  (2508) 
120.057514876

>  <MW>  (2508) 
120

>  <ID>  (2508) 
JP008703

>  <CONTRIBUTOR>  (2508) 
University of Tokyo Team, {Faculty of Engineering, University of Tokyo

>  <COMMENT>  (2508) 
SMILES=O=Cc(c1)cc(C)cc1
InChI=InChI=1S/C8H8O/c1-7-3-2-4-8(5-7)6-9/h2-6H,1H3
computed SMILES=O=CC1=CC=CC(=C1)C
accession=JP008703
date=2016.01.19 (Created 2008.10.21, modified 2011.05.06)
author=SODA AROMATIC CO., LTD.
license=CC BY-NC-SA
exact mass=120.05751
ionization energy=70 eV
ion type=[M]+*
computed spectral entropy=2.371735642088052
computed normalized entropy=0.6973237292476663
SPLASH=splash10-01bc-9600000000-7f4acd144c76cb1a232a
submitter=submitter = University of Tokyo Team (Faculty of Engineering, University of Tokyo)
MoNA Rating=3.75

>  <NUM PEAKS>  (2508) 
30

>  <MASS SPECTRAL PEAKS>  (2508) 
27 2.11
29 5.7
37 1.72
38 3.57
39 19.99
40 1.08
41 2.84
50 6.75
51 10.33
52 2.23
53 1.01
61 2.16
62 5.99
63 16.09
64 3.25
65 28.36
66 1.61
74 2.32
75 1.44
77 1.08
85 1.01
86 1.44
87 1.13
89 10.2
90 3.75
91 99.99
92 11.4
119 86.15
120 85.48
121 6.29

$$$$

     RDKit          2D

  9  9  0  0  0  0  0  0  0  0999 V2000
   -0.3325    2.4400    0.0000 C   0  0  0  0  0  0  0  0  0  0  0  0
   -1.6200   -1.3100    0.0000 C   0  0  0  0  0  0  0  0  0  0  0  0
   -0.3300   -2.0600    0.0000 C   0  0  0  0  0  0  0  0  0  0  0  0
   -1.6200    0.1900    0.0000 C   0  0  0  0  0  0  0  0  0  0  0  0
    0.9700   -1.3100    0.0000 C   0  0  0  0  0  0  0  0  0  0  0  0
    2.2689    0.9402    0.0000 C   0  0  0  0  0  0  0  0  0  0  0  0
   -0.3300    0.9400    0.0000 C   0  0  0  0  0  0  0  0  0  0  0  0
    0.9700    0.1900    0.0000 C   0  0  0  0  0  0  0  0  0  0  0  0
    3.5681    0.1904    0.0000 O   0  0  0  0  0  0  0  0  0  0  0  0
  3  2  2  0
  4  2  1  0
  5  3  1  0
  7  1  1  0
  7  4  2  0
  8  5  2  0
  8  6  1  0
  8  7  1  0
  9  6  2  0
M  END
>  <NAME>  (2509) 
O-METHYLBENZALDEHYDE

>  <SYNONYMS>  (2509) 


>  <SPECTRUM TYPE>  (2509) 
MS1

>  <INSTRUMENT TYPE>  (2509) 
EI-B

>  <INSTRUMENT>  (2509) 
HITACHI M-80B

>  <ION MODE>  (2509) 
P

>  <INCHIKEY>  (2509) 
BTFQKIATRPGRBS-UHFFFAOYSA-N

>  <FORMULA>  (2509) 
C8H8O

>  <EXACT MASS>  (2509) 
120.057514876

>  <MW>  (2509) 
120

>  <ID>  (2509) 
JP008702

>  <CONTRIBUTOR>  (2509) 
University of Tokyo Team, {Faculty of Engineering, University of Tokyo

>  <COMMENT>  (2509) 
SMILES=O=Cc(c1)c(C)ccc1
InChI=InChI=1S/C8H8O/c1-7-4-2-3-5-8(7)6-9/h2-6H,1H3
computed SMILES=O=CC=1C=CC=CC1C
accession=JP008702
date=2016.01.19 (Created 2008.10.21, modified 2011.05.06)
author=SODA AROMATIC CO., LTD.
license=CC BY-NC-SA
exact mass=120.05751
ionization energy=70 eV
ion type=[M]+*
computed spectral entropy=2.289550367073736
computed normalized entropy=0.6799373986344802
SPLASH=splash10-00r6-9700000000-72d2bc27d082e353fdb5
submitter=submitter = University of Tokyo Team (Faculty of Engineering, University of Tokyo)
MoNA Rating=3.75

>  <NUM PEAKS>  (2509) 
29

>  <MASS SPECTRAL PEAKS>  (2509) 
27 1.83
29 3.68
37 1.36
38 3.12
39 16.24
41 1.68
50 5.5
51 7.31
52 1.61
53 1.23
60 1.15
61 2.22
62 5.6
63 15.4
64 3.07
65 24.34
66 1.52
74 2.17
75 1.2
77 1.53
86 1.41
87 1.06
89 8.08
90 4.37
91 99.99
92 11.14
119 86.03
120 89.03
121 6.65

$$$$

     RDKit          2D

  8  8  0  0  0  0  0  0  0  0999 V2000
    2.6360    0.5353    0.0000 C   0  0  0  0  0  0  0  0  0  0  0  0
    0.7500   -1.3600    0.0000 C   0  0  0  0  0  0  0  0  0  0  0  0
   -0.7500   -1.3600    0.0000 C   0  0  0  0  0  0  0  0  0  0  0  0
   -2.6360    0.5353    0.0000 C   0  0  0  0  0  0  0  0  0  0  0  0
    1.2100    0.0700    0.0000 C   0  0  0  0  0  0  0  0  0  0  0  0
   -1.2100    0.0700    0.0000 C   0  0  0  0  0  0  0  0  0  0  0  0
   -3.7520   -0.4670    0.0000 O   0  0  0  0  0  0  0  0  0  0  0  0
    0.0000    0.9500    0.0000 O   0  0  0  0  0  0  0  0  0  0  0  0
  3  2  1  0
  5  1  1  0
  5  2  2  0
  6  3  2  0
  6  4  1  0
  7  4  2  0
  8  5  1  0
  8  6  1  0
M  END
>  <NAME>  (2510) 
5-METHYLFURFURAL

>  <SYNONYMS>  (2510) 


>  <SPECTRUM TYPE>  (2510) 
MS1

>  <INSTRUMENT TYPE>  (2510) 
EI-B

>  <INSTRUMENT>  (2510) 
HITACHI M-80B

>  <ION MODE>  (2510) 
P

>  <INCHIKEY>  (2510) 
OUDFNZMQXZILJD-UHFFFAOYSA-N

>  <FORMULA>  (2510) 
C6H6O2

>  <EXACT MASS>  (2510) 
110.036779432

>  <MW>  (2510) 
110

>  <ID>  (2510) 
JP008701

>  <CONTRIBUTOR>  (2510) 
University of Tokyo Team, {Faculty of Engineering, University of Tokyo

>  <COMMENT>  (2510) 
SMILES=O=Cc(c1)oc(C)c1
InChI=InChI=1S/C6H6O2/c1-5-2-3-6(4-7)8-5/h2-4H,1H3
computed SMILES=O=CC=1OC(=CC1)C
accession=JP008701
date=2016.01.19 (Created 2008.10.21, modified 2011.05.06)
author=SODA AROMATIC CO., LTD.
license=CC BY-NC-SA
exact mass=110.03678
ionization energy=70 eV
ion type=[M]+*
computed spectral entropy=2.4215001035131904
computed normalized entropy=0.7522813041762307
SPLASH=splash10-114i-9700000000-9e971b7e848b7697026f
submitter=submitter = University of Tokyo Team (Faculty of Engineering, University of Tokyo)
MoNA Rating=3.75

>  <NUM PEAKS>  (2510) 
25

>  <MASS SPECTRAL PEAKS>  (2510) 
15 2.32
26 4.62
27 25.46
28 4.06
29 13.15
37 4.58
38 6.34
39 15.56
41 1.45
42 2.39
43 11.45
49 2.89
50 16.41
51 19.36
52 10.77
53 66.36
54 5.33
55 1.03
79 1.99
80 1.44
81 12.31
95 1.02
109 87.05
110 99.99
111 5.88

$$$$

     RDKit          2D

  7  7  0  0  0  0  0  0  0  0999 V2000
   -1.1700   -1.2200    0.0000 C   0  0  0  0  0  0  0  0  0  0  0  0
    0.3300   -1.2200    0.0000 C   0  0  0  0  0  0  0  0  0  0  0  0
   -1.6300    0.2000    0.0000 C   0  0  0  0  0  0  0  0  0  0  0  0
    2.2271    0.6621    0.0000 C   0  0  0  0  0  0  0  0  0  0  0  0
    0.8000    0.2000    0.0000 C   0  0  0  0  0  0  0  0  0  0  0  0
    3.3407   -0.3428    0.0000 O   0  0  0  0  0  0  0  0  0  0  0  0
   -0.4200    1.0800    0.0000 O   0  0  0  0  0  0  0  0  0  0  0  0
  2  1  1  0
  3  1  2  0
  5  2  2  0
  5  4  1  0
  6  4  2  0
  7  3  1  0
  7  5  1  0
M  END
>  <NAME>  (2511) 
FURFURAL

>  <SYNONYMS>  (2511) 


>  <SPECTRUM TYPE>  (2511) 
MS1

>  <INSTRUMENT TYPE>  (2511) 
EI-B

>  <INSTRUMENT>  (2511) 
HITACHI M-80B

>  <ION MODE>  (2511) 
P

>  <INCHIKEY>  (2511) 
HYBBIBNJHNGZAN-UHFFFAOYSA-N

>  <FORMULA>  (2511) 
C5H4O2

>  <EXACT MASS>  (2511) 
96.021129368

>  <MW>  (2511) 
96

>  <ID>  (2511) 
JP008700

>  <CONTRIBUTOR>  (2511) 
University of Tokyo Team, {Faculty of Engineering, University of Tokyo

>  <COMMENT>  (2511) 
SMILES=O=Cc(c1)occ1
InChI=InChI=1S/C5H4O2/c6-4-5-2-1-3-7-5/h1-4H
computed SMILES=O=CC=1OC=CC1
accession=JP008700
date=2016.01.19 (Created 2008.10.21, modified 2011.05.06)
author=SODA AROMATIC CO., LTD.
license=CC BY-NC-SA
exact mass=96.02113
ionization energy=70 eV
ion type=[M]+*
computed spectral entropy=2.035468896516952
computed normalized entropy=0.6794562099176409
SPLASH=splash10-000b-9000000000-0ba2bcde82e913fd4d05
submitter=submitter = University of Tokyo Team (Faculty of Engineering, University of Tokyo)
MoNA Rating=3.75

>  <NUM PEAKS>  (2511) 
20

>  <MASS SPECTRAL PEAKS>  (2511) 
25 1.32
26 2.21
29 24.7
36 1.94
37 14.91
38 24.49
39 76.07
40 5.16
41 2.32
42 5.21
49 2.03
50 3.17
51 3.12
53 2.16
66 1.32
67 4.68
68 1.56
95 89.21
96 99.99
97 4.93

$$$$

     RDKit          2D

 13 12  0  0  0  0  0  0  0  0999 V2000
   -0.6495    7.1250    0.0000 C   0  0  0  0  0  0  0  0  0  0  0  0
   -4.8815    6.7741    0.0000 C   0  0  0  0  0  0  0  0  0  0  0  0
   -6.8099    6.7741    0.0000 C   0  0  0  0  0  0  0  0  0  0  0  0
   -8.4437    5.6250    0.0000 C   0  0  0  0  0  0  0  0  0  0  0  0
   -3.2476    5.6250    0.0000 C   0  0  0  0  0  0  0  0  0  0  0  0
   -1.9486    4.8750    0.0000 C   0  0  0  0  0  0  0  0  0  0  0  0
    0.6495    4.8750    0.0000 C   0  0  0  0  0  0  0  0  0  0  0  0
   -4.5466    4.8750    0.0000 C   0  0  0  0  0  0  0  0  0  0  0  0
    1.9486    5.6250    0.0000 C   0  0  0  0  0  0  0  0  0  0  0  0
   -0.6495    5.6250    0.0000 C   0  0  0  0  0  0  0  0  0  0  0  0
   -5.8457    5.6250    0.0000 C   0  0  0  0  0  0  0  0  0  0  0  0
    3.2476    4.8750    0.0000 O   0  0  0  0  0  0  0  0  0  0  0  0
   -7.1447    4.8750    0.0000 O   0  0  0  0  0  0  0  0  0  0  0  0
  6  5  1  0
  8  5  1  0
  9  7  1  0
 10  1  1  0
 10  6  1  0
 10  7  1  0
 11  2  1  0
 11  3  1  0
 11  8  1  0
 12  9  2  0
 13  4  1  0
 13 11  1  0
M  END
>  <NAME>  (2512) 
METHOXYCITRONELLAL

>  <SYNONYMS>  (2512) 
3,7-DIMETHYL-7-METHOXYOCTANAL

>  <SPECTRUM TYPE>  (2512) 
MS1

>  <INSTRUMENT TYPE>  (2512) 
EI-B

>  <INSTRUMENT>  (2512) 
HITACHI M-80B

>  <ION MODE>  (2512) 
P

>  <INCHIKEY>  (2512) 
IDWULKZGRNHZNR-UHFFFAOYSA-N

>  <FORMULA>  (2512) 
C11H22O2

>  <EXACT MASS>  (2512) 
186.161979944

>  <MW>  (2512) 
186

>  <ID>  (2512) 
JP008699

>  <CONTRIBUTOR>  (2512) 
University of Tokyo Team, {Faculty of Engineering, University of Tokyo

>  <COMMENT>  (2512) 
SMILES=O=CCC(C)CCCC(C)(C)OC
InChI=InChI=1S/C11H22O2/c1-10(7-9-12)6-5-8-11(2,3)13-4/h9-10H,5-8H2,1-4H3
computed SMILES=O=CCC(C)CCCC(OC)(C)C
accession=JP008699
date=2016.01.19 (Created 2008.10.21, modified 2011.05.06)
author=SODA AROMATIC CO., LTD.
license=CC BY-NC-SA
exact mass=186.16198
ionization energy=70 eV
ion type=[M]+*
computed spectral entropy=1.7687084948413907
computed normalized entropy=0.5904094002175572
SPLASH=splash10-00di-9000000000-449028fc7b4e21f48c8d
submitter=submitter = University of Tokyo Team (Faculty of Engineering, University of Tokyo)
MoNA Rating=3.75

>  <NUM PEAKS>  (2512) 
20

>  <MASS SPECTRAL PEAKS>  (2512) 
27 2.79
29 3.87
39 2.87
41 9.98
42 2.85
43 7.88
45 1.53
53 1.04
55 7.1
56 1.64
57 1.09
59 2.89
69 5.48
72 1.24
73 99.99
74 4.82
81 3.73
85 2.59
95 2.03
171 1.51

$$$$

     RDKit          2D

 11 10  0  0  0  0  0  0  0  0999 V2000
   -6.8200    5.0625    0.0000 C   0  0  0  0  0  0  0  0  0  0  0  0
   -5.5209    2.8125    0.0000 C   0  0  0  0  0  0  0  0  0  0  0  0
   -0.3248    2.8125    0.0000 C   0  0  0  0  0  0  0  0  0  0  0  0
   -2.9228    4.3125    0.0000 C   0  0  0  0  0  0  0  0  0  0  0  0
   -4.2219    5.0625    0.0000 C   0  0  0  0  0  0  0  0  0  0  0  0
   -1.6238    5.0625    0.0000 C   0  0  0  0  0  0  0  0  0  0  0  0
    0.9743    5.0625    0.0000 C   0  0  0  0  0  0  0  0  0  0  0  0
    2.2733    4.3125    0.0000 C   0  0  0  0  0  0  0  0  0  0  0  0
   -5.5209    4.3125    0.0000 C   0  0  0  0  0  0  0  0  0  0  0  0
   -0.3248    4.3125    0.0000 C   0  0  0  0  0  0  0  0  0  0  0  0
    3.5724    5.0625    0.0000 O   0  0  0  0  0  0  0  0  0  0  0  0
  5  4  1  0
  6  4  1  0
  8  7  1  0
  9  1  1  0
  9  2  1  0
  9  5  2  0
 10  3  1  0
 10  6  1  0
 10  7  1  0
 11  8  2  0
M  END
>  <NAME>  (2513) 
CITRONELLAL

>  <SYNONYMS>  (2513) 
3,7-DIMETHYL-6-OCTENAL

>  <SPECTRUM TYPE>  (2513) 
MS1

>  <INSTRUMENT TYPE>  (2513) 
EI-B

>  <INSTRUMENT>  (2513) 
HITACHI M-80B

>  <ION MODE>  (2513) 
P

>  <INCHIKEY>  (2513) 
NEHNMFOYXAPHSD-UHFFFAOYSA-N

>  <FORMULA>  (2513) 
C10H18O

>  <EXACT MASS>  (2513) 
154.135765196

>  <MW>  (2513) 
154

>  <ID>  (2513) 
JP008698

>  <CONTRIBUTOR>  (2513) 
University of Tokyo Team, {Faculty of Engineering, University of Tokyo

>  <COMMENT>  (2513) 
SMILES=O=CCC(C)CCC=C(C)C
InChI=InChI=1S/C10H18O/c1-9(2)5-4-6-10(3)7-8-11/h5,8,10H,4,6-7H2,1-3H3
computed SMILES=O=CCC(C)CCC=C(C)C
accession=JP008698
date=2016.01.19 (Created 2008.10.21, modified 2011.05.06)
author=SODA AROMATIC CO., LTD.
license=CC BY-NC-SA
exact mass=154.13577
ionization energy=70 eV
ion type=[M]+*
computed spectral entropy=3.2817210607492115
computed normalized entropy=0.8346557979162817
SPLASH=splash10-066u-9100000000-95b49c5f5088a3eddc72
submitter=submitter = University of Tokyo Team (Faculty of Engineering, University of Tokyo)
MoNA Rating=3.75

>  <NUM PEAKS>  (2513) 
51

>  <MASS SPECTRAL PEAKS>  (2513) 
15 1.54
27 19.77
29 17.43
39 24.59
40 3.54
41 99.99
42 9.82
43 15.75
44 2.03
51 2.48
52 1.13
53 12.93
54 2.78
55 40.87
56 25.99
57 8.88
59 1.76
65 2.17
66 1.05
67 20.09
68 10.4
69 83.62
70 12.99
71 11.15
72 2.06
77 2.21
79 3.56
80 1.82
81 10.42
82 4.34
83 11.54
84 12.6
85 2.61
91 1.21
93 5.08
94 1.64
95 42.55
96 4.57
97 8.77
98 6.04
107 1.57
109 12.6
110 14.31
111 16.16
112 6.12
121 20.43
122 1.52
123 2.06
136 5.2
139 4.89
154 8.86

$$$$

     RDKit          2D

 11 10  0  0  0  0  0  0  0  0999 V2000
   -6.8200    5.0625    0.0000 C   0  0  0  0  0  0  0  0  0  0  0  0
   -5.5209    2.8125    0.0000 C   0  0  0  0  0  0  0  0  0  0  0  0
   -0.3248    2.8125    0.0000 C   0  0  0  0  0  0  0  0  0  0  0  0
   -2.9228    4.3125    0.0000 C   0  0  0  0  0  0  0  0  0  0  0  0
   -4.2219    5.0625    0.0000 C   0  0  0  0  0  0  0  0  0  0  0  0
   -1.6238    5.0625    0.0000 C   0  0  0  0  0  0  0  0  0  0  0  0
    0.9743    5.0625    0.0000 C   0  0  0  0  0  0  0  0  0  0  0  0
    2.2733    4.3125    0.0000 C   0  0  0  0  0  0  0  0  0  0  0  0
   -5.5209    4.3125    0.0000 C   0  0  0  0  0  0  0  0  0  0  0  0
   -0.3248    4.3125    0.0000 C   0  0  0  0  0  0  0  0  0  0  0  0
    3.5724    5.0625    0.0000 O   0  0  0  0  0  0  0  0  0  0  0  0
  5  4  1  0
  6  4  1  0
  8  7  1  0
  9  1  1  0
  9  2  1  0
  9  5  2  0
 10  3  1  0
 10  6  1  0
  7 10  2  0
 11  8  2  0
M  END
>  <NAME>  (2514) 
GERANAL

>  <SYNONYMS>  (2514) 
TRANS-3,7-DIMETHYL-2,6-OCTADIENAL

>  <SPECTRUM TYPE>  (2514) 
MS1

>  <INSTRUMENT TYPE>  (2514) 
EI-B

>  <INSTRUMENT>  (2514) 
HITACHI M-80B

>  <ION MODE>  (2514) 
P

>  <INCHIKEY>  (2514) 
WTEVQBCEXWBHNA-JXMROGBWSA-N

>  <FORMULA>  (2514) 
C10H16O

>  <EXACT MASS>  (2514) 
152.120115132

>  <MW>  (2514) 
152

>  <ID>  (2514) 
JP008697

>  <CONTRIBUTOR>  (2514) 
University of Tokyo Team, {Faculty of Engineering, University of Tokyo

>  <COMMENT>  (2514) 
SMILES=O=CC=C(C)CCC=C(C)C
InChI=InChI=1S/C10H16O/c1-9(2)5-4-6-10(3)7-8-11/h5,7-8H,4,6H2,1-3H3/b10-7+
computed SMILES=O=CC=C(C)CCC=C(C)C
accession=JP008697
date=2016.01.19 (Created 2008.10.21, modified 2011.05.06)
author=SODA AROMATIC CO., LTD.
license=CC BY-NC-SA
exact mass=152.12012
ionization energy=70 eV
ion type=[M]+*
computed spectral entropy=2.7082719318455832
computed normalized entropy=0.7292902583277721
SPLASH=splash10-00kf-9000000000-90723459c49195367705
submitter=submitter = University of Tokyo Team (Faculty of Engineering, University of Tokyo)
MoNA Rating=3.75

>  <NUM PEAKS>  (2514) 
41

>  <MASS SPECTRAL PEAKS>  (2514) 
27 14.26
29 7.66
39 23.59
40 2.12
41 87.5
42 3.89
43 3.69
50 1.15
51 2.86
52 1.32
53 10.37
54 2.33
55 5.49
56 2.85
59 3.1
65 2.4
67 6.92
68 2.19
69 99.99
70 5.33
77 2.95
79 2.69
80 1.57
81 5.24
82 3.68
83 7.19
84 25.02
85 1.41
91 2.77
93 1.46
94 13.03
95 3.22
107 1.12
108 1.22
109 6.37
110 1.04
119 1.85
123 5.49
134 1.19
137 4.45
152 4.39

$$$$

     RDKit          2D

 11 10  0  0  0  0  0  0  0  0999 V2000
    3.8971    6.7500    0.0000 C   0  0  0  0  0  0  0  0  0  0  0  0
    2.5981    4.5000    0.0000 C   0  0  0  0  0  0  0  0  0  0  0  0
   -2.5981    4.5000    0.0000 C   0  0  0  0  0  0  0  0  0  0  0  0
    0.0000    6.0000    0.0000 C   0  0  0  0  0  0  0  0  0  0  0  0
    1.2990    6.7500    0.0000 C   0  0  0  0  0  0  0  0  0  0  0  0
   -1.2990    6.7500    0.0000 C   0  0  0  0  0  0  0  0  0  0  0  0
   -3.8971    6.7500    0.0000 C   0  0  0  0  0  0  0  0  0  0  0  0
   -3.8971    8.2500    0.0000 C   0  0  0  0  0  0  0  0  0  0  0  0
    2.5981    6.0000    0.0000 C   0  0  0  0  0  0  0  0  0  0  0  0
   -2.5981    6.0000    0.0000 C   0  0  0  0  0  0  0  0  0  0  0  0
   -5.1962    9.0000    0.0000 O   0  0  0  0  0  0  0  0  0  0  0  0
  5  4  1  0
  6  4  1  0
  8  7  1  0
  9  1  1  0
  9  2  1  0
  9  5  2  0
 10  3  1  0
 10  6  1  0
  7 10  2  0
 11  8  2  0
M  END
>  <NAME>  (2515) 
NERAL

>  <SYNONYMS>  (2515) 
CIS-3,7-DIMETHYL-2,6-OCTADIENAL

>  <SPECTRUM TYPE>  (2515) 
MS1

>  <INSTRUMENT TYPE>  (2515) 
EI-B

>  <INSTRUMENT>  (2515) 
HITACHI M-80B

>  <ION MODE>  (2515) 
P

>  <INCHIKEY>  (2515) 
WTEVQBCEXWBHNA-YFHOEESVSA-N

>  <FORMULA>  (2515) 
C10H16O

>  <EXACT MASS>  (2515) 
152.120115132

>  <MW>  (2515) 
152

>  <ID>  (2515) 
JP008696

>  <CONTRIBUTOR>  (2515) 
University of Tokyo Team, {Faculty of Engineering, University of Tokyo

>  <COMMENT>  (2515) 
SMILES=O=CC=C(C)CCC=C(C)C
InChI=InChI=1S/C10H16O/c1-9(2)5-4-6-10(3)7-8-11/h5,7-8H,4,6H2,1-3H3/b10-7-
computed SMILES=O=CC=C(C)CCC=C(C)C
accession=JP008696
date=2016.01.19 (Created 2008.10.21, modified 2011.05.06)
author=SODA AROMATIC CO., LTD.
license=CC BY-NC-SA
exact mass=152.12012
ionization energy=70 eV
ion type=[M]+*
computed spectral entropy=3.1323765035606
computed normalized entropy=0.788953702086389
SPLASH=splash10-00kf-9000000000-e44752a8e465ab2ae91d
submitter=submitter = University of Tokyo Team (Faculty of Engineering, University of Tokyo)
MoNA Rating=3.75

>  <NUM PEAKS>  (2515) 
53

>  <MASS SPECTRAL PEAKS>  (2515) 
27 17.49
29 9.44
32 1.01
38 1.11
39 31.93
40 3.27
41 99.99
42 4.13
43 7.28
50 1.29
51 3.73
52 1.86
53 12.9
54 4.38
55 9.29
56 4.01
57 1.25
59 11.88
63 1.14
65 3.35
66 1.41
67 13.94
68 3.14
69 80.5
70 5.95
71 1.11
77 4.63
78 1.28
79 5.73
80 4.22
81 11
82 11.43
83 10.23
84 15.32
85 1.14
91 5.29
92 1.73
93 2.72
94 16.36
95 11.48
96 3.85
97 1.73
105 1.77
107 2.65
108 1.6
109 14.14
110 2.64
119 5.32
121 1.5
123 2.15
134 2.83
137 3.23
152 1.14

$$$$

     RDKit          2D

 11 11  0  0  0  0  0  0  0  0999 V2000
    2.5987    3.0002    0.0000 C   0  0  0  0  0  0  0  0  0  0  0  0
    3.8981    0.7504    0.0000 C   0  0  0  0  0  0  0  0  0  0  0  0
   -1.3000    0.7500    0.0000 C   0  0  0  0  0  0  0  0  0  0  0  0
   -0.0000   -1.5000    0.0000 C   0  0  0  0  0  0  0  0  0  0  0  0
    0.0000    1.5000    0.0000 C   0  0  0  0  0  0  0  0  0  0  0  0
    1.3000   -0.7500    0.0000 C   0  0  0  0  0  0  0  0  0  0  0  0
   -2.5989   -1.5002    0.0000 C   0  0  0  0  0  0  0  0  0  0  0  0
    2.5989    1.5002    0.0000 C   0  0  0  0  0  0  0  0  0  0  0  0
   -1.3000   -0.7500    0.0000 C   0  0  0  0  0  0  0  0  0  0  0  0
    1.3000    0.7500    0.0000 C   0  0  0  0  0  0  0  0  0  0  0  0
   -3.8981   -0.7504    0.0000 O   0  0  0  0  0  0  0  0  0  0  0  0
  5  3  1  0
  6  4  1  0
  8  1  2  0
  8  2  1  0
  9  3  2  0
  9  4  1  0
  9  7  1  0
 10  5  1  0
 10  6  1  0
 10  8  1  0
 11  7  2  0
M  END
>  <NAME>  (2516) 
PERILLA ALDEHYDE

>  <SYNONYMS>  (2516) 


>  <SPECTRUM TYPE>  (2516) 
MS1

>  <INSTRUMENT TYPE>  (2516) 
EI-B

>  <INSTRUMENT>  (2516) 
HITACHI M-80B

>  <ION MODE>  (2516) 
P

>  <INCHIKEY>  (2516) 
RUMOYJJNUMEFDD-UHFFFAOYSA-N

>  <FORMULA>  (2516) 
C10H14O

>  <EXACT MASS>  (2516) 
150.104465068

>  <MW>  (2516) 
150

>  <ID>  (2516) 
JP008695

>  <CONTRIBUTOR>  (2516) 
University of Tokyo Team, {Faculty of Engineering, University of Tokyo

>  <COMMENT>  (2516) 
SMILES=O=CC(C1)=CCC(C(C)=C)C1
InChI=InChI=1S/C10H14O/c1-8(2)10-5-3-9(7-11)4-6-10/h3,7,10H,1,4-6H2,2H3
computed SMILES=O=CC1=CCC(C(=C)C)CC1
accession=JP008695
date=2016.01.19 (Created 2008.10.21, modified 2011.05.06)
author=SODA AROMATIC CO., LTD.
license=CC BY-NC-SA
exact mass=150.10447
ionization energy=70 eV
ion type=[M]+*
computed spectral entropy=3.4071648881534835
computed normalized entropy=0.8709470479661944
SPLASH=splash10-016r-9200000000-489825eb61952c9dac22
submitter=submitter = University of Tokyo Team (Faculty of Engineering, University of Tokyo)
MoNA Rating=3.75

>  <NUM PEAKS>  (2516) 
50

>  <MASS SPECTRAL PEAKS>  (2516) 
26 1.43
27 23.08
29 13.82
38 2.71
39 50.24
40 6.99
41 41.28
42 5.18
43 6.06
50 4.63
51 13.68
52 6.75
53 45.46
54 4.51
55 12.56
63 3.72
65 10.38
66 8.89
67 59.89
68 99.99
69 6.88
77 32.91
78 8.02
79 67.17
80 11.26
81 11.98
82 2.38
91 22.48
92 7.54
93 28.34
94 11.55
95 13.48
103 2.53
104 1.35
105 11.26
106 13.31
107 39.72
108 15.45
109 6.51
115 2.16
117 7.41
119 4.05
121 16.19
122 21.72
123 2.06
132 3.62
135 17.19
145 1.02
150 17.92
151 2.34

$$$$

     RDKit          2D

 11 12  0  0  0  0  0  0  0  0999 V2000
    1.3259   -2.1785    0.0000 C   0  0  0  0  0  0  0  0  0  0  0  0
    2.2869   -0.5080    0.0000 C   0  0  0  0  0  0  0  0  0  0  0  0
   -1.7800    0.7300    0.0000 C   0  0  0  0  0  0  0  0  0  0  0  0
   -1.7800   -0.7700    0.0000 C   0  0  0  0  0  0  0  0  0  0  0  0
   -0.4800   -0.0200    0.0000 C   0  0  0  0  0  0  0  0  0  0  0  0
   -0.4775    2.9800    0.0000 C   0  0  0  0  0  0  0  0  0  0  0  0
   -0.4800    1.4800    0.0000 C   0  0  0  0  0  0  0  0  0  0  0  0
   -0.4800   -1.5200    0.0000 C   0  0  0  0  0  0  0  0  0  0  0  0
    0.8100    0.7300    0.0000 C   0  0  0  0  0  0  0  0  0  0  0  0
    0.8100   -0.7700    0.0000 C   0  0  0  0  0  0  0  0  0  0  0  0
   -1.7753    3.7322    0.0000 O   0  0  0  0  0  0  0  0  0  0  0  0
  4  3  1  0
  7  3  2  0
  7  6  1  0
  8  4  1  0
  8  5  1  0
  9  5  1  0
  9  7  1  0
 10  1  1  0
 10  2  1  0
 10  8  1  0
 10  9  1  0
 11  6  2  0
M  END
>  <NAME>  (2517) 
MYRTENAL

>  <SYNONYMS>  (2517) 


>  <SPECTRUM TYPE>  (2517) 
MS1

>  <INSTRUMENT TYPE>  (2517) 
EI-B

>  <INSTRUMENT>  (2517) 
HITACHI M-80B

>  <ION MODE>  (2517) 
P

>  <INCHIKEY>  (2517) 
KMRMUZKLFIEVAO-UHFFFAOYSA-N

>  <FORMULA>  (2517) 
C10H14O

>  <EXACT MASS>  (2517) 
150.104465068

>  <MW>  (2517) 
150

>  <ID>  (2517) 
JP008694

>  <CONTRIBUTOR>  (2517) 
University of Tokyo Team, {Faculty of Engineering, University of Tokyo

>  <COMMENT>  (2517) 
SMILES=O=CC(=C2)C([H])(C1)C(C)(C)C([H])(C2)1
InChI=InChI=1S/C10H14O/c1-10(2)8-4-3-7(6-11)9(10)5-8/h3,6,8-9H,4-5H2,1-2H3
computed SMILES=O=CC1=CCC2CC1C2(C)C
accession=JP008694
date=2016.01.19 (Created 2008.10.21, modified 2011.05.06)
author=SODA AROMATIC CO., LTD.
license=CC BY-NC-SA
exact mass=150.10447
ionization energy=70 eV
ion type=[M]+*
computed spectral entropy=3.2863480272798062
computed normalized entropy=0.8358325964223204
SPLASH=splash10-0a6r-9400000000-fcdf2367f56405b75648
submitter=submitter = University of Tokyo Team (Faculty of Engineering, University of Tokyo)
MoNA Rating=3.75

>  <NUM PEAKS>  (2517) 
51

>  <MASS SPECTRAL PEAKS>  (2517) 
15 1.19
27 20.8
29 13.06
38 1.61
39 30.92
40 3.32
41 33.22
42 1.84
43 13.21
50 3.63
51 13.89
52 4.92
53 18.09
54 2.15
55 6.12
59 2.19
63 3.51
65 10.89
66 13.76
67 10.62
68 2.92
69 3.2
77 37.96
78 9.57
79 99.99
80 11.61
81 6.41
82 1.65
83 1.04
90 1.36
91 32.05
92 5.51
93 12.04
94 11.19
95 4.55
96 1.68
103 2.41
104 1.09
105 24.63
106 32.54
107 67.97
108 34.93
109 5.98
115 1.88
117 5.87
119 1.7
121 6.19
122 2.22
135 13.61
136 1.1
150 2.46

$$$$

     RDKit          2D

 13 12  0  0  0  0  0  0  0  0999 V2000
    3.8971    6.0000    0.0000 C   0  0  0  0  0  0  0  0  0  0  0  0
   -9.0933    6.0000    0.0000 C   0  0  0  0  0  0  0  0  0  0  0  0
    2.5981    6.7500    0.0000 C   0  0  0  0  0  0  0  0  0  0  0  0
    1.2990    6.0000    0.0000 C   0  0  0  0  0  0  0  0  0  0  0  0
    0.0000    6.7500    0.0000 C   0  0  0  0  0  0  0  0  0  0  0  0
   -1.2990    6.0000    0.0000 C   0  0  0  0  0  0  0  0  0  0  0  0
   -2.5981    6.7500    0.0000 C   0  0  0  0  0  0  0  0  0  0  0  0
   -3.8971    6.0000    0.0000 C   0  0  0  0  0  0  0  0  0  0  0  0
   -5.1962    6.7500    0.0000 C   0  0  0  0  0  0  0  0  0  0  0  0
   -6.4952    6.0000    0.0000 C   0  0  0  0  0  0  0  0  0  0  0  0
   -7.7942    8.2500    0.0000 C   0  0  0  0  0  0  0  0  0  0  0  0
   -7.7942    6.7500    0.0000 C   0  0  0  0  0  0  0  0  0  0  0  0
   -9.0933    9.0000    0.0000 O   0  0  0  0  0  0  0  0  0  0  0  0
  3  1  1  0
  4  3  1  0
  5  4  1  0
  6  5  1  0
  7  6  1  0
  8  7  1  0
  9  8  1  0
 10  9  1  0
 12  2  1  0
 12 10  1  0
 12 11  1  0
 13 11  2  0
M  END
>  <NAME>  (2518) 
2-METHYLUNDECANAL

>  <SYNONYMS>  (2518) 


>  <SPECTRUM TYPE>  (2518) 
MS1

>  <INSTRUMENT TYPE>  (2518) 
EI-B

>  <INSTRUMENT>  (2518) 
HITACHI M-80B

>  <ION MODE>  (2518) 
P

>  <INCHIKEY>  (2518) 
NFAVNWJJYQAGNB-UHFFFAOYSA-N

>  <FORMULA>  (2518) 
C12H24O

>  <EXACT MASS>  (2518) 
184.182715388

>  <MW>  (2518) 
184

>  <ID>  (2518) 
JP008693

>  <CONTRIBUTOR>  (2518) 
University of Tokyo Team, {Faculty of Engineering, University of Tokyo

>  <COMMENT>  (2518) 
SMILES=CCCCCCCCCC(C)C=O
InChI=InChI=1S/C12H24O/c1-3-4-5-6-7-8-9-10-12(2)11-13/h11-12H,3-10H2,1-2H3
computed SMILES=O=CC(C)CCCCCCCCC
accession=JP008693
date=2016.01.19 (Created 2008.10.21, modified 2011.05.06)
author=SODA AROMATIC CO., LTD.
license=CC BY-NC-SA
exact mass=184.18272
ionization energy=70 eV
ion type=[M]+*
computed spectral entropy=2.405133735955808
computed normalized entropy=0.7217845509216205
SPLASH=splash10-0a4i-9000000000-131946dcf67c5d7db311
submitter=submitter = University of Tokyo Team (Faculty of Engineering, University of Tokyo)
MoNA Rating=3.75

>  <NUM PEAKS>  (2518) 
28

>  <MASS SPECTRAL PEAKS>  (2518) 
27 9.39
29 15.99
39 4.96
41 25.58
42 4.16
43 29.02
53 1.66
54 1.44
55 13.25
56 3.55
57 20.04
58 99.99
59 3.08
67 2.21
68 1.95
69 3.72
70 1.75
71 12.81
72 1.01
81 2.87
82 2.55
83 1.74
85 2.86
95 2.09
96 1.03
97 1.2
126 3.41
142 1.21

$$$$

     RDKit          2D

 15 14  0  0  0  0  0  0  0  0999 V2000
    4.5466    7.8750    0.0000 C   0  0  0  0  0  0  0  0  0  0  0  0
    3.2476    8.6250    0.0000 C   0  0  0  0  0  0  0  0  0  0  0  0
    1.9486    7.8750    0.0000 C   0  0  0  0  0  0  0  0  0  0  0  0
    0.6495    8.6250    0.0000 C   0  0  0  0  0  0  0  0  0  0  0  0
   -0.6495    7.8750    0.0000 C   0  0  0  0  0  0  0  0  0  0  0  0
   -1.9486    8.6250    0.0000 C   0  0  0  0  0  0  0  0  0  0  0  0
   -3.2476    7.8750    0.0000 C   0  0  0  0  0  0  0  0  0  0  0  0
   -4.5466    8.6250    0.0000 C   0  0  0  0  0  0  0  0  0  0  0  0
   -5.8457    7.8750    0.0000 C   0  0  0  0  0  0  0  0  0  0  0  0
   -7.1447    8.6250    0.0000 C   0  0  0  0  0  0  0  0  0  0  0  0
   -8.4437    7.8750    0.0000 C   0  0  0  0  0  0  0  0  0  0  0  0
   -9.7428    8.6250    0.0000 C   0  0  0  0  0  0  0  0  0  0  0  0
  -11.0418    7.8750    0.0000 C   0  0  0  0  0  0  0  0  0  0  0  0
  -12.3409    8.6250    0.0000 C   0  0  0  0  0  0  0  0  0  0  0  0
  -13.6399    7.8750    0.0000 O   0  0  0  0  0  0  0  0  0  0  0  0
  2  1  1  0
  3  2  1  0
  4  3  1  0
  5  4  1  0
  6  5  1  0
  7  6  1  0
  8  7  1  0
  9  8  1  0
 10  9  1  0
 11 10  1  0
 12 11  1  0
 13 12  1  0
 14 13  1  0
 15 14  2  0
M  END
>  <NAME>  (2519) 
TETRADECANAL

>  <SYNONYMS>  (2519) 


>  <SPECTRUM TYPE>  (2519) 
MS1

>  <INSTRUMENT TYPE>  (2519) 
EI-B

>  <INSTRUMENT>  (2519) 
HITACHI M-80B

>  <ION MODE>  (2519) 
P

>  <INCHIKEY>  (2519) 
UHUFTBALEZWWIH-UHFFFAOYSA-N

>  <FORMULA>  (2519) 
C14H28O

>  <EXACT MASS>  (2519) 
212.21401551600002

>  <MW>  (2519) 
212

>  <ID>  (2519) 
JP008692

>  <CONTRIBUTOR>  (2519) 
University of Tokyo Team, {Faculty of Engineering, University of Tokyo

>  <COMMENT>  (2519) 
SMILES=CCCCCCCCCCCCCC=O
InChI=InChI=1S/C14H28O/c1-2-3-4-5-6-7-8-9-10-11-12-13-14-15/h14H,2-13H2,1H3
computed SMILES=O=CCCCCCCCCCCCCC
accession=JP008692
date=2016.01.19 (Created 2008.10.21, modified 2011.05.06)
author=SODA AROMATIC CO., LTD.
license=CC BY-NC-SA
exact mass=212.21402
ionization energy=70 eV
ion type=[M]+*
computed spectral entropy=3.4136358637584068
computed normalized entropy=0.8271201141712061
SPLASH=splash10-0536-9000000000-e2a96717d418d3033297
submitter=submitter = University of Tokyo Team (Faculty of Engineering, University of Tokyo)
MoNA Rating=3.75

>  <NUM PEAKS>  (2519) 
62

>  <MASS SPECTRAL PEAKS>  (2519) 
20 1.02
26 1.49
27 16.68
29 41.49
31 1.54
39 11.16
41 92.9
42 14.88
43 99.99
44 35.38
45 11.17
53 4.68
54 11.84
55 72.85
56 31.58
57 84.32
58 4.52
59 1.31
65 1.16
66 6.1
67 37.07
68 49.72
69 42.98
70 19.05
71 31.59
72 6.09
73 1.05
79 2.24
80 1.91
81 28.46
82 68.43
83 38.18
84 12.51
85 11.35
86 2.21
93 1.23
94 1.92
95 19.36
96 38.48
97 16.35
98 6.65
99 4.13
109 9.89
110 9.34
111 7.28
112 4.1
113 1.56
123 4.84
124 6.73
125 3.87
126 2.4
137 3.97
138 4.66
139 1.73
140 2.05
151 1.55
152 2.03
166 4.22
168 5.89
169 1.13
184 1.1
194 2.09

$$$$

     RDKit          2D

 14 13  0  0  0  0  0  0  0  0999 V2000
    4.5466    7.1250    0.0000 C   0  0  0  0  0  0  0  0  0  0  0  0
    3.2476    7.8750    0.0000 C   0  0  0  0  0  0  0  0  0  0  0  0
    1.9486    7.1250    0.0000 C   0  0  0  0  0  0  0  0  0  0  0  0
    0.6495    7.8750    0.0000 C   0  0  0  0  0  0  0  0  0  0  0  0
   -0.6495    7.1250    0.0000 C   0  0  0  0  0  0  0  0  0  0  0  0
   -1.9486    7.8750    0.0000 C   0  0  0  0  0  0  0  0  0  0  0  0
   -3.2476    7.1250    0.0000 C   0  0  0  0  0  0  0  0  0  0  0  0
   -4.5466    7.8750    0.0000 C   0  0  0  0  0  0  0  0  0  0  0  0
   -5.8457    7.1250    0.0000 C   0  0  0  0  0  0  0  0  0  0  0  0
   -7.1447    7.8750    0.0000 C   0  0  0  0  0  0  0  0  0  0  0  0
   -8.4437    7.1250    0.0000 C   0  0  0  0  0  0  0  0  0  0  0  0
   -9.7428    7.8750    0.0000 C   0  0  0  0  0  0  0  0  0  0  0  0
  -11.0418    7.1250    0.0000 C   0  0  0  0  0  0  0  0  0  0  0  0
  -12.3409    7.8750    0.0000 O   0  0  0  0  0  0  0  0  0  0  0  0
  2  1  1  0
  3  2  1  0
  4  3  1  0
  5  4  1  0
  6  5  1  0
  7  6  1  0
  8  7  1  0
  9  8  1  0
 10  9  1  0
 11 10  1  0
 12 11  1  0
 13 12  1  0
 14 13  2  0
M  END
>  <NAME>  (2520) 
TRIDECANAL

>  <SYNONYMS>  (2520) 


>  <SPECTRUM TYPE>  (2520) 
MS1

>  <INSTRUMENT TYPE>  (2520) 
EI-B

>  <INSTRUMENT>  (2520) 
HITACHI M-80B

>  <ION MODE>  (2520) 
P

>  <INCHIKEY>  (2520) 
BGEHHAVMRVXCGR-UHFFFAOYSA-N

>  <FORMULA>  (2520) 
C13H26O

>  <EXACT MASS>  (2520) 
198.198365452

>  <MW>  (2520) 
198

>  <ID>  (2520) 
JP008691

>  <CONTRIBUTOR>  (2520) 
University of Tokyo Team, {Faculty of Engineering, University of Tokyo

>  <COMMENT>  (2520) 
SMILES=CCCCCCCCCCCCC=O
InChI=InChI=1S/C13H26O/c1-2-3-4-5-6-7-8-9-10-11-12-13-14/h13H,2-12H2,1H3
computed SMILES=O=CCCCCCCCCCCCC
accession=JP008691
date=2016.01.19 (Created 2008.10.21, modified 2011.05.06)
author=SODA AROMATIC CO., LTD.
license=CC BY-NC-SA
exact mass=198.19837
ionization energy=70 eV
ion type=[M]+*
computed spectral entropy=3.440378406794639
computed normalized entropy=0.8402757399898609
SPLASH=splash10-05mo-9000000000-62219af33beb40e81666
submitter=submitter = University of Tokyo Team (Faculty of Engineering, University of Tokyo)
MoNA Rating=3.75

>  <NUM PEAKS>  (2520) 
60

>  <MASS SPECTRAL PEAKS>  (2520) 
17 1.61
18 8.05
27 24.08
29 45.22
30 1.26
31 1.39
39 12.13
41 94.37
42 21.94
43 99.99
44 38.35
45 10.88
53 5.13
54 12.22
55 72.62
56 36.94
57 82.37
58 5.07
59 1.04
65 1.13
66 6.2
67 38.77
68 49.9
69 45.16
70 31.03
71 32.16
72 6.25
77 1.31
79 2.27
80 2.07
81 34.8
82 70.62
83 35.52
84 12.28
85 11.76
86 2.22
93 1.13
94 1.81
95 27.25
96 36.39
97 20.69
98 7.07
99 4.24
109 9.59
110 10.23
111 7.27
112 5.06
113 1.88
123 6.19
124 7.94
125 3.31
126 3.13
137 3.17
138 2.99
151 1.13
152 4.97
154 8.08
155 1.45
170 1.48
180 1.83

$$$$

     RDKit          2D

 13 12  0  0  0  0  0  0  0  0999 V2000
    3.8971    6.7500    0.0000 C   0  0  0  0  0  0  0  0  0  0  0  0
    2.5981    7.5000    0.0000 C   0  0  0  0  0  0  0  0  0  0  0  0
    1.2990    6.7500    0.0000 C   0  0  0  0  0  0  0  0  0  0  0  0
    0.0000    7.5000    0.0000 C   0  0  0  0  0  0  0  0  0  0  0  0
   -1.2990    6.7500    0.0000 C   0  0  0  0  0  0  0  0  0  0  0  0
   -2.5981    7.5000    0.0000 C   0  0  0  0  0  0  0  0  0  0  0  0
   -3.8971    6.7500    0.0000 C   0  0  0  0  0  0  0  0  0  0  0  0
   -5.1962    7.5000    0.0000 C   0  0  0  0  0  0  0  0  0  0  0  0
   -6.4952    6.7500    0.0000 C   0  0  0  0  0  0  0  0  0  0  0  0
   -7.7942    7.5000    0.0000 C   0  0  0  0  0  0  0  0  0  0  0  0
   -9.0933    6.7500    0.0000 C   0  0  0  0  0  0  0  0  0  0  0  0
  -10.3923    7.5000    0.0000 C   0  0  0  0  0  0  0  0  0  0  0  0
  -11.6913    6.7500    0.0000 O   0  0  0  0  0  0  0  0  0  0  0  0
  2  1  1  0
  3  2  1  0
  4  3  1  0
  5  4  1  0
  6  5  1  0
  7  6  1  0
  8  7  1  0
  9  8  1  0
 10  9  1  0
 11 10  1  0
 12 11  1  0
 13 12  2  0
M  END
>  <NAME>  (2521) 
DODECANAL

>  <SYNONYMS>  (2521) 


>  <SPECTRUM TYPE>  (2521) 
MS1

>  <INSTRUMENT TYPE>  (2521) 
EI-B

>  <INSTRUMENT>  (2521) 
HITACHI M-80B

>  <ION MODE>  (2521) 
P

>  <INCHIKEY>  (2521) 
HFJRKMMYBMWEAD-UHFFFAOYSA-N

>  <FORMULA>  (2521) 
C12H24O

>  <EXACT MASS>  (2521) 
184.182715388

>  <MW>  (2521) 
184

>  <ID>  (2521) 
JP008690

>  <CONTRIBUTOR>  (2521) 
University of Tokyo Team, {Faculty of Engineering, University of Tokyo

>  <COMMENT>  (2521) 
SMILES=CCCCCCCCCCCC=O
InChI=InChI=1S/C12H24O/c1-2-3-4-5-6-7-8-9-10-11-12-13/h12H,2-11H2,1H3
computed SMILES=O=CCCCCCCCCCCC
accession=JP008690
date=2016.01.19 (Created 2008.10.21, modified 2011.05.06)
author=SODA AROMATIC CO., LTD.
license=CC BY-NC-SA
exact mass=184.18272
ionization energy=70 eV
ion type=[M]+*
computed spectral entropy=3.387330104416225
computed normalized entropy=0.8531690309354771
SPLASH=splash10-052f-9000000000-7f7646c6c5dfd05b37e1
submitter=submitter = University of Tokyo Team (Faculty of Engineering, University of Tokyo)
MoNA Rating=3.75

>  <NUM PEAKS>  (2521) 
53

>  <MASS SPECTRAL PEAKS>  (2521) 
15 1.45
26 1.46
27 34.88
28 3.77
29 58.16
30 1.17
31 1.57
39 23.12
40 2.14
41 99.99
42 24.32
43 98.31
44 43.05
45 14.59
53 6.63
54 16.42
55 67.69
56 38.45
57 82.36
58 4.71
66 5.79
67 32.91
68 40.09
69 37.6
70 28.2
71 27.11
72 6.29
79 2.16
80 1.45
81 26.54
82 52.61
83 25.46
84 13.72
85 16.04
86 1.5
94 1.15
95 22.19
96 28.21
97 15.41
98 7.52
99 3.8
109 9.07
110 10.22
111 6.43
112 3.77
123 3.93
124 3.71
137 1.97
138 5.84
140 10.48
141 1.5
156 1.9
166 1.77

$$$$

     RDKit          2D

 12 11  0  0  0  0  0  0  0  0999 V2000
    3.8971    6.0000    0.0000 C   0  0  0  0  0  0  0  0  0  0  0  0
    2.5981    6.7500    0.0000 C   0  0  0  0  0  0  0  0  0  0  0  0
    1.2990    6.0000    0.0000 C   0  0  0  0  0  0  0  0  0  0  0  0
    0.0000    6.7500    0.0000 C   0  0  0  0  0  0  0  0  0  0  0  0
   -1.2990    6.0000    0.0000 C   0  0  0  0  0  0  0  0  0  0  0  0
   -2.5981    6.7500    0.0000 C   0  0  0  0  0  0  0  0  0  0  0  0
   -3.8971    6.0000    0.0000 C   0  0  0  0  0  0  0  0  0  0  0  0
   -5.1962    6.7500    0.0000 C   0  0  0  0  0  0  0  0  0  0  0  0
   -6.4952    6.0000    0.0000 C   0  0  0  0  0  0  0  0  0  0  0  0
   -7.7942    6.7500    0.0000 C   0  0  0  0  0  0  0  0  0  0  0  0
   -9.0933    6.0000    0.0000 C   0  0  0  0  0  0  0  0  0  0  0  0
  -10.3923    6.7500    0.0000 O   0  0  0  0  0  0  0  0  0  0  0  0
  2  1  1  0
  3  2  1  0
  4  3  1  0
  5  4  1  0
  6  5  1  0
  7  6  1  0
  8  7  1  0
  9  8  1  0
 10  9  1  0
 11 10  1  0
 12 11  2  0
M  END
>  <NAME>  (2522) 
UNDECANAL

>  <SYNONYMS>  (2522) 


>  <SPECTRUM TYPE>  (2522) 
MS1

>  <INSTRUMENT TYPE>  (2522) 
EI-B

>  <INSTRUMENT>  (2522) 
HITACHI M-80B

>  <ION MODE>  (2522) 
P

>  <INCHIKEY>  (2522) 
KMPQYAYAQWNLME-UHFFFAOYSA-N

>  <FORMULA>  (2522) 
C11H22O

>  <EXACT MASS>  (2522) 
170.167065324

>  <MW>  (2522) 
170

>  <ID>  (2522) 
JP008689

>  <CONTRIBUTOR>  (2522) 
University of Tokyo Team, {Faculty of Engineering, University of Tokyo

>  <COMMENT>  (2522) 
SMILES=CCCCCCCCCCC=O
InChI=InChI=1S/C11H22O/c1-2-3-4-5-6-7-8-9-10-11-12/h11H,2-10H2,1H3
computed SMILES=O=CCCCCCCCCCC
accession=JP008689
date=2016.01.19 (Created 2008.10.21, modified 2011.05.06)
author=SODA AROMATIC CO., LTD.
license=CC BY-NC-SA
exact mass=170.16707
ionization energy=70 eV
ion type=[M]+*
computed spectral entropy=3.299761841322082
computed normalized entropy=0.8668385627014644
SPLASH=splash10-052f-9000000000-2fcad3720d90d5be38ab
submitter=submitter = University of Tokyo Team (Faculty of Engineering, University of Tokyo)
MoNA Rating=3.75

>  <NUM PEAKS>  (2522) 
45

>  <MASS SPECTRAL PEAKS>  (2522) 
15 1.96
27 44.07
29 57.74
30 1.34
39 24.05
41 98.93
42 23.21
43 99.99
44 43.04
45 13.39
51 1.78
53 7.03
54 14.85
55 64.49
56 38.73
57 74.18
58 5.02
66 5.04
67 24.53
68 35.42
69 31.25
70 22.73
71 28.01
72 6.24
79 2.15
80 1.65
81 21.12
82 48.62
83 19.28
84 15.94
85 13.43
86 2.27
95 17.77
96 18.15
97 14.87
98 6.5
99 2.57
109 7.32
110 8.16
111 1.53
123 3.28
124 7.78
126 14.82
127 1.23
142 2.93

$$$$

     RDKit          2D

 12 11  0  0  0  0  0  0  0  0999 V2000
    3.8971    6.0000    0.0000 C   0  0  0  0  0  0  0  0  0  0  0  0
    2.5981    6.7500    0.0000 C   0  0  0  0  0  0  0  0  0  0  0  0
    1.2990    6.0000    0.0000 C   0  0  0  0  0  0  0  0  0  0  0  0
    0.0000    6.7500    0.0000 C   0  0  0  0  0  0  0  0  0  0  0  0
   -1.2990    6.0000    0.0000 C   0  0  0  0  0  0  0  0  0  0  0  0
   -2.5981    6.7500    0.0000 C   0  0  0  0  0  0  0  0  0  0  0  0
   -3.8971    6.0000    0.0000 C   0  0  0  0  0  0  0  0  0  0  0  0
   -5.1962    6.7500    0.0000 C   0  0  0  0  0  0  0  0  0  0  0  0
   -6.4952    6.0000    0.0000 C   0  0  0  0  0  0  0  0  0  0  0  0
   -7.7942    6.7500    0.0000 C   0  0  0  0  0  0  0  0  0  0  0  0
   -9.0933    6.0000    0.0000 C   0  0  0  0  0  0  0  0  0  0  0  0
  -10.3923    6.7500    0.0000 O   0  0  0  0  0  0  0  0  0  0  0  0
  2  1  2  0
  3  2  1  0
  4  3  1  0
  5  4  1  0
  6  5  1  0
  7  6  1  0
  8  7  1  0
  9  8  1  0
 10  9  1  0
 11 10  1  0
 12 11  2  0
M  END
>  <NAME>  (2523) 
10-UNDECENAL

>  <SYNONYMS>  (2523) 


>  <SPECTRUM TYPE>  (2523) 
MS1

>  <INSTRUMENT TYPE>  (2523) 
EI-B

>  <INSTRUMENT>  (2523) 
HITACHI M-80B

>  <ION MODE>  (2523) 
P

>  <INCHIKEY>  (2523) 
OFHHDSQXFXLTKC-UHFFFAOYSA-N

>  <FORMULA>  (2523) 
C11H20O

>  <EXACT MASS>  (2523) 
168.15141526

>  <MW>  (2523) 
168

>  <ID>  (2523) 
JP008688

>  <CONTRIBUTOR>  (2523) 
University of Tokyo Team, {Faculty of Engineering, University of Tokyo

>  <COMMENT>  (2523) 
SMILES=C=CCCCCCCCCC=O
InChI=InChI=1S/C11H20O/c1-2-3-4-5-6-7-8-9-10-11-12/h2,11H,1,3-10H2
computed SMILES=O=CCCCCCCCCC=C
accession=JP008688
date=2016.01.19 (Created 2008.10.21, modified 2011.05.06)
author=SODA AROMATIC CO., LTD.
license=CC BY-NC-SA
exact mass=168.15142
ionization energy=70 eV
ion type=[M]+*
computed spectral entropy=3.413850084486152
computed normalized entropy=0.8480874086961283
SPLASH=splash10-05ox-9000000000-b6e70773800029ee6739
submitter=submitter = University of Tokyo Team (Faculty of Engineering, University of Tokyo)
MoNA Rating=3.75

>  <NUM PEAKS>  (2523) 
56

>  <MASS SPECTRAL PEAKS>  (2523) 
15 1.4
26 1.27
27 30.76
29 37.83
31 1.7
39 36.15
40 5.28
41 99.99
42 16.63
43 26.88
44 10.85
45 2.64
51 1.59
52 1.01
53 11.94
54 30.89
55 85.2
56 14.46
57 24.25
58 2.73
59 1.19
65 1.37
66 2.23
67 41.03
68 28.85
69 25.15
70 15.9
71 7
72 1.47
77 1.22
79 12.46
80 11.58
81 23.13
82 25.25
83 19.71
84 11.78
85 2.27
86 2.19
93 10.32
94 7.09
95 12.2
96 7.69
97 11.13
98 16.93
99 1.14
107 4.87
108 3.73
109 5.25
111 6.79
112 4.09
121 8.55
122 1.82
124 4.72
125 1.85
135 1.13
150 1.41

$$$$

     RDKit          2D

 11 10  0  0  0  0  0  0  0  0999 V2000
    3.2476    5.6250    0.0000 C   0  0  0  0  0  0  0  0  0  0  0  0
    1.9486    6.3750    0.0000 C   0  0  0  0  0  0  0  0  0  0  0  0
    0.6495    5.6250    0.0000 C   0  0  0  0  0  0  0  0  0  0  0  0
   -0.6495    6.3750    0.0000 C   0  0  0  0  0  0  0  0  0  0  0  0
   -1.9486    5.6250    0.0000 C   0  0  0  0  0  0  0  0  0  0  0  0
   -3.2476    6.3750    0.0000 C   0  0  0  0  0  0  0  0  0  0  0  0
   -4.5466    5.6250    0.0000 C   0  0  0  0  0  0  0  0  0  0  0  0
   -5.8457    6.3750    0.0000 C   0  0  0  0  0  0  0  0  0  0  0  0
   -7.1447    5.6250    0.0000 C   0  0  0  0  0  0  0  0  0  0  0  0
   -8.4437    6.3750    0.0000 C   0  0  0  0  0  0  0  0  0  0  0  0
   -9.7428    5.6250    0.0000 O   0  0  0  0  0  0  0  0  0  0  0  0
  2  1  1  0
  3  2  1  0
  4  3  1  0
  5  4  1  0
  6  5  1  0
  7  6  1  0
  8  7  1  0
  9  8  1  0
 10  9  1  0
 11 10  2  0
M  END
>  <NAME>  (2524) 
DECANAL

>  <SYNONYMS>  (2524) 


>  <SPECTRUM TYPE>  (2524) 
MS1

>  <INSTRUMENT TYPE>  (2524) 
EI-B

>  <INSTRUMENT>  (2524) 
HITACHI M-80B

>  <ION MODE>  (2524) 
P

>  <INCHIKEY>  (2524) 
KSMVZQYAVGTKIV-UHFFFAOYSA-N

>  <FORMULA>  (2524) 
C10H20O

>  <EXACT MASS>  (2524) 
156.15141526

>  <MW>  (2524) 
156

>  <ID>  (2524) 
JP008687

>  <CONTRIBUTOR>  (2524) 
University of Tokyo Team, {Faculty of Engineering, University of Tokyo

>  <COMMENT>  (2524) 
SMILES=CCCCCCCCCC=O
InChI=InChI=1S/C10H20O/c1-2-3-4-5-6-7-8-9-10-11/h10H,2-9H2,1H3
computed SMILES=O=CCCCCCCCCC
accession=JP008687
date=2016.01.19 (Created 2008.10.21, modified 2011.05.06)
author=SODA AROMATIC CO., LTD.
license=CC BY-NC-SA
exact mass=156.15142
ionization energy=70 eV
ion type=[M]+*
computed spectral entropy=3.287772426449764
computed normalized entropy=0.8539341257954596
SPLASH=splash10-052f-9000000000-87164b5c9889aeaf6447
submitter=submitter = University of Tokyo Team (Faculty of Engineering, University of Tokyo)
MoNA Rating=3.75

>  <NUM PEAKS>  (2524) 
47

>  <MASS SPECTRAL PEAKS>  (2524) 
15 2.24
26 1.98
27 46.56
29 62.7
30 1.55
31 1.5
39 31.24
40 4.1
41 99.99
42 32.06
43 91.73
44 52.86
45 15.51
51 1.54
53 7.4
54 15.28
55 63.13
56 38.27
57 79.56
58 5.34
65 1.01
66 3.8
67 27.08
68 36.52
69 26.91
70 41.86
71 35.72
72 6.53
79 1.45
80 1.13
81 23.78
82 35.24
83 25.56
84 13.79
85 3.73
86 1.36
95 19.04
96 16.01
97 4.49
99 2.34
109 6.71
110 14.43
111 1.21
112 23.89
113 2.67
128 4.22
138 2.52

$$$$

     RDKit          2D

 11 10  0  0  0  0  0  0  0  0999 V2000
    3.2476    5.6250    0.0000 C   0  0  0  0  0  0  0  0  0  0  0  0
    1.9486    6.3750    0.0000 C   0  0  0  0  0  0  0  0  0  0  0  0
    0.6495    5.6250    0.0000 C   0  0  0  0  0  0  0  0  0  0  0  0
   -0.6495    6.3750    0.0000 C   0  0  0  0  0  0  0  0  0  0  0  0
   -1.9486    5.6250    0.0000 C   0  0  0  0  0  0  0  0  0  0  0  0
   -3.2476    6.3750    0.0000 C   0  0  0  0  0  0  0  0  0  0  0  0
   -4.5466    5.6250    0.0000 C   0  0  0  0  0  0  0  0  0  0  0  0
   -5.8457    6.3750    0.0000 C   0  0  0  0  0  0  0  0  0  0  0  0
   -7.1447    5.6250    0.0000 C   0  0  0  0  0  0  0  0  0  0  0  0
   -8.4437    6.3750    0.0000 C   0  0  0  0  0  0  0  0  0  0  0  0
   -9.7428    5.6250    0.0000 O   0  0  0  0  0  0  0  0  0  0  0  0
  2  1  1  0
  3  2  1  0
  4  3  1  0
  5  4  1  0
  6  5  1  0
  7  6  1  0
  8  7  1  0
  8  9  2  0
 10  9  1  0
 11 10  2  0
M  END
>  <NAME>  (2525) 
TRANS-2-DECENAL

>  <SYNONYMS>  (2525) 


>  <SPECTRUM TYPE>  (2525) 
MS1

>  <INSTRUMENT TYPE>  (2525) 
EI-B

>  <INSTRUMENT>  (2525) 
HITACHI M-80B

>  <ION MODE>  (2525) 
P

>  <INCHIKEY>  (2525) 
MMFCJPPRCYDLLZ-CMDGGOBGSA-N

>  <FORMULA>  (2525) 
C10H18O

>  <EXACT MASS>  (2525) 
154.135765196

>  <MW>  (2525) 
154

>  <ID>  (2525) 
JP008686

>  <CONTRIBUTOR>  (2525) 
University of Tokyo Team, {Faculty of Engineering, University of Tokyo

>  <COMMENT>  (2525) 
SMILES=CCCCCCCC=CC=O
InChI=InChI=1S/C10H18O/c1-2-3-4-5-6-7-8-9-10-11/h8-10H,2-7H2,1H3/b9-8+
computed SMILES=O=CC=CCCCCCCC
accession=JP008686
date=2016.01.19 (Created 2008.10.21, modified 2011.05.06)
author=SODA AROMATIC CO., LTD.
license=CC BY-NC-SA
exact mass=154.13577
ionization energy=70 eV
ion type=[M]+*
computed spectral entropy=3.314483742827849
computed normalized entropy=0.8197976041503623
SPLASH=splash10-054o-9000000000-9813bb4d7d8bd9566af9
submitter=submitter = University of Tokyo Team (Faculty of Engineering, University of Tokyo)
MoNA Rating=3.75

>  <NUM PEAKS>  (2525) 
57

>  <MASS SPECTRAL PEAKS>  (2525) 
15 1.62
26 2.57
27 49.05
28 1.34
29 54.14
30 1.26
38 1.87
39 49.31
40 6.93
41 99.99
42 22.34
43 90.99
44 3.3
50 1.11
51 3.63
52 1.87
53 14.59
54 14.27
55 72.14
56 31.66
57 47.1
58 2.58
65 2.49
66 3.09
67 17.49
68 18.62
69 33.27
70 75.14
71 7.52
72 5.68
77 2.76
78 1.11
79 8.13
80 4
81 19.68
82 7.64
83 42.47
84 14.75
85 2.33
86 7.7
91 1.16
93 5.46
94 3.91
95 6.86
96 2.23
97 16.58
98 19.38
99 1.4
107 6.27
108 3.27
110 9.98
111 6.26
112 3.53
121 3.36
123 1.94
125 1.67
136 3.41

$$$$

     RDKit          2D

 10  9  0  0  0  0  0  0  0  0999 V2000
   -8.4437    5.6250    0.0000 C   0  0  0  0  0  0  0  0  0  0  0  0
   -7.1447    4.8750    0.0000 C   0  0  0  0  0  0  0  0  0  0  0  0
   -5.8457    5.6250    0.0000 C   0  0  0  0  0  0  0  0  0  0  0  0
   -4.5466    4.8750    0.0000 C   0  0  0  0  0  0  0  0  0  0  0  0
   -3.2476    5.6250    0.0000 C   0  0  0  0  0  0  0  0  0  0  0  0
   -1.9486    4.8750    0.0000 C   0  0  0  0  0  0  0  0  0  0  0  0
   -0.6495    5.6250    0.0000 C   0  0  0  0  0  0  0  0  0  0  0  0
    0.6495    4.8750    0.0000 C   0  0  0  0  0  0  0  0  0  0  0  0
    1.9486    5.6250    0.0000 C   0  0  0  0  0  0  0  0  0  0  0  0
    3.2476    4.8750    0.0000 O   0  0  0  0  0  0  0  0  0  0  0  0
  2  1  1  0
  3  2  1  0
  4  3  1  0
  5  4  1  0
  6  5  1  0
  7  6  1  0
  8  7  1  0
  9  8  1  0
 10  9  2  0
M  END
>  <NAME>  (2526) 
NONANAL

>  <SYNONYMS>  (2526) 


>  <SPECTRUM TYPE>  (2526) 
MS1

>  <INSTRUMENT TYPE>  (2526) 
EI-B

>  <INSTRUMENT>  (2526) 
HITACHI M-80B

>  <ION MODE>  (2526) 
P

>  <INCHIKEY>  (2526) 
GYHFUZHODSMOHU-UHFFFAOYSA-N

>  <FORMULA>  (2526) 
C9H18O

>  <EXACT MASS>  (2526) 
142.135765196

>  <MW>  (2526) 
142

>  <ID>  (2526) 
JP008685

>  <CONTRIBUTOR>  (2526) 
University of Tokyo Team, {Faculty of Engineering, University of Tokyo

>  <COMMENT>  (2526) 
SMILES=CCCCCCCCC=O
InChI=InChI=1S/C9H18O/c1-2-3-4-5-6-7-8-9-10/h9H,2-8H2,1H3
computed SMILES=O=CCCCCCCCC
accession=JP008685
date=2016.01.19 (Created 2008.10.21, modified 2011.05.06)
author=SODA AROMATIC CO., LTD.
license=CC BY-NC-SA
exact mass=142.13577
ionization energy=70 eV
ion type=[M]+*
computed spectral entropy=3.1700575249073286
computed normalized entropy=0.848137435529486
SPLASH=splash10-052f-9000000000-373d544eb5629e680bc4
submitter=submitter = University of Tokyo Team (Faculty of Engineering, University of Tokyo)
MoNA Rating=3.75

>  <NUM PEAKS>  (2526) 
42

>  <MASS SPECTRAL PEAKS>  (2526) 
15 2.44
26 2.44
27 50.8
28 3.37
29 59.51
30 1.8
31 2.18
39 33.49
40 4.01
41 99.99
42 28.73
43 73.68
44 61.6
45 17.04
51 1.67
53 5.7
54 13.77
55 52.53
56 59.88
57 90.11
58 5.61
66 2.34
67 18.79
68 26.58
69 30.47
70 33.49
71 14.61
72 5.61
79 1.44
81 20.93
82 25.31
83 6.72
85 2.65
86 1.78
95 18.46
96 17.75
97 1.58
98 32.02
99 5.01
109 1.41
114 5.86
124 3.07

$$$$

     RDKit          2D

 10  9  0  0  0  0  0  0  0  0999 V2000
   -8.4437    5.6250    0.0000 C   0  0  0  0  0  0  0  0  0  0  0  0
   -7.1447    4.8750    0.0000 C   0  0  0  0  0  0  0  0  0  0  0  0
   -5.8457    5.6250    0.0000 C   0  0  0  0  0  0  0  0  0  0  0  0
   -4.5466    4.8750    0.0000 C   0  0  0  0  0  0  0  0  0  0  0  0
   -3.2476    5.6250    0.0000 C   0  0  0  0  0  0  0  0  0  0  0  0
   -1.9486    4.8750    0.0000 C   0  0  0  0  0  0  0  0  0  0  0  0
   -0.6495    5.6250    0.0000 C   0  0  0  0  0  0  0  0  0  0  0  0
    0.6495    4.8750    0.0000 C   0  0  0  0  0  0  0  0  0  0  0  0
    1.9486    5.6250    0.0000 C   0  0  0  0  0  0  0  0  0  0  0  0
    3.2476    4.8750    0.0000 O   0  0  0  0  0  0  0  0  0  0  0  0
  2  1  1  0
  3  2  1  0
  4  3  1  0
  5  4  1  0
  6  5  1  0
  7  6  1  0
  7  8  2  0
  9  8  1  0
 10  9  2  0
M  END
>  <NAME>  (2527) 
TRANS-2-NONENAL

>  <SYNONYMS>  (2527) 


>  <SPECTRUM TYPE>  (2527) 
MS1

>  <INSTRUMENT TYPE>  (2527) 
EI-B

>  <INSTRUMENT>  (2527) 
HITACHI M-80B

>  <ION MODE>  (2527) 
P

>  <INCHIKEY>  (2527) 
BSAIUMLZVGUGKX-BQYQJAHWSA-N

>  <FORMULA>  (2527) 
C9H16O

>  <EXACT MASS>  (2527) 
140.120115132

>  <MW>  (2527) 
140

>  <ID>  (2527) 
JP008684

>  <CONTRIBUTOR>  (2527) 
University of Tokyo Team, {Faculty of Engineering, University of Tokyo

>  <COMMENT>  (2527) 
SMILES=CCCCCCC=CC=O
InChI=InChI=1S/C9H16O/c1-2-3-4-5-6-7-8-9-10/h7-9H,2-6H2,1H3/b8-7+
computed SMILES=O=CC=CCCCCCC
accession=JP008684
date=2016.01.19 (Created 2008.10.21, modified 2011.05.06)
author=SODA AROMATIC CO., LTD.
license=CC BY-NC-SA
exact mass=140.12012
ionization energy=70 eV
ion type=[M]+*
computed spectral entropy=3.2396857200165017
computed normalized entropy=0.8281356514318194
SPLASH=splash10-054o-9000000000-17c8fee9e98238a754e9
submitter=submitter = University of Tokyo Team (Faculty of Engineering, University of Tokyo)
MoNA Rating=3.75

>  <NUM PEAKS>  (2527) 
50

>  <MASS SPECTRAL PEAKS>  (2527) 
15 2.41
26 3.72
27 56.28
28 6.35
29 56.41
30 1.18
38 2.51
39 57.17
40 7.23
41 99.99
42 30.34
43 88.19
44 2.89
50 1.78
51 4.28
52 2.32
53 15.19
54 15.76
55 71.05
56 27.21
57 43.55
58 5.97
65 2.61
66 2.66
67 17.09
68 11.11
69 35.24
70 65.18
71 7.59
72 8.11
77 2.42
79 5.65
80 2.94
81 15.96
82 4.7
83 43.94
84 22.67
85 2.66
93 7.65
94 4.17
95 2.08
96 18.35
97 11.73
98 10.38
99 1.08
107 2.65
109 2.24
111 4.59
112 1.79
122 3

$$$$

     RDKit          2D

  9  8  0  0  0  0  0  0  0  0999 V2000
    1.6238    3.9375    0.0000 C   0  0  0  0  0  0  0  0  0  0  0  0
   -6.1704    3.9375    0.0000 C   0  0  0  0  0  0  0  0  0  0  0  0
    0.3248    4.6875    0.0000 C   0  0  0  0  0  0  0  0  0  0  0  0
   -4.8714    4.6875    0.0000 C   0  0  0  0  0  0  0  0  0  0  0  0
   -0.9743    3.9375    0.0000 C   0  0  0  0  0  0  0  0  0  0  0  0
   -2.2733    4.6875    0.0000 C   0  0  0  0  0  0  0  0  0  0  0  0
   -3.5724    2.4375    0.0000 C   0  0  0  0  0  0  0  0  0  0  0  0
   -3.5724    3.9375    0.0000 C   0  0  0  0  0  0  0  0  0  0  0  0
   -4.8714    1.6875    0.0000 O   0  0  0  0  0  0  0  0  0  0  0  0
  3  1  1  0
  4  2  1  0
  5  3  1  0
  6  5  1  0
  8  4  1  0
  8  6  1  0
  8  7  1  0
  9  7  2  0
M  END
>  <NAME>  (2528) 
2-ETHYLHEXANAL

>  <SYNONYMS>  (2528) 


>  <SPECTRUM TYPE>  (2528) 
MS1

>  <INSTRUMENT TYPE>  (2528) 
EI-B

>  <INSTRUMENT>  (2528) 
HITACHI M-80B

>  <ION MODE>  (2528) 
P

>  <INCHIKEY>  (2528) 
LGYNIFWIKSEESD-UHFFFAOYSA-N

>  <FORMULA>  (2528) 
C8H16O

>  <EXACT MASS>  (2528) 
128.120115132

>  <MW>  (2528) 
128

>  <ID>  (2528) 
JP008683

>  <CONTRIBUTOR>  (2528) 
University of Tokyo Team, {Faculty of Engineering, University of Tokyo

>  <COMMENT>  (2528) 
SMILES=CCCCC(CC)C=O
InChI=InChI=1S/C8H16O/c1-3-5-6-8(4-2)7-9/h7-8H,3-6H2,1-2H3
computed SMILES=O=CC(CC)CCCC
accession=JP008683
date=2016.01.19 (Created 2008.10.21, modified 2011.05.06)
author=SODA AROMATIC CO., LTD.
license=CC BY-NC-SA
exact mass=128.12012
ionization energy=70 eV
ion type=[M]+*
computed spectral entropy=2.313391209665458
computed normalized entropy=0.710043788656518
SPLASH=splash10-0adl-9000000000-d67f0da9f8a00bcaccea
submitter=submitter = University of Tokyo Team (Faculty of Engineering, University of Tokyo)
MoNA Rating=3.75

>  <NUM PEAKS>  (2528) 
26

>  <MASS SPECTRAL PEAKS>  (2528) 
15 1.38
26 1.31
27 25.88
29 30.05
31 1.05
39 17.65
40 1.2
41 48.81
42 7.01
43 41.34
44 2.54
51 1.08
53 3.02
54 2.9
55 14.38
56 3.38
57 91.39
58 4.19
67 1.51
69 1.67
70 1.04
71 4.15
72 99.99
73 3.88
82 2.04
85 2.17

$$$$

     RDKit          2D

  9  8  0  0  0  0  0  0  0  0999 V2000
    2.5981    4.5000    0.0000 C   0  0  0  0  0  0  0  0  0  0  0  0
    1.2990    5.2500    0.0000 C   0  0  0  0  0  0  0  0  0  0  0  0
    0.0000    4.5000    0.0000 C   0  0  0  0  0  0  0  0  0  0  0  0
   -1.2990    5.2500    0.0000 C   0  0  0  0  0  0  0  0  0  0  0  0
   -2.5981    4.5000    0.0000 C   0  0  0  0  0  0  0  0  0  0  0  0
   -3.8971    5.2500    0.0000 C   0  0  0  0  0  0  0  0  0  0  0  0
   -5.1962    4.5000    0.0000 C   0  0  0  0  0  0  0  0  0  0  0  0
   -6.4952    5.2500    0.0000 C   0  0  0  0  0  0  0  0  0  0  0  0
   -7.7942    4.5000    0.0000 O   0  0  0  0  0  0  0  0  0  0  0  0
  2  1  1  0
  3  2  1  0
  4  3  1  0
  5  4  1  0
  6  5  1  0
  7  6  1  0
  8  7  1  0
  9  8  2  0
M  END
>  <NAME>  (2529) 
OCTANAL

>  <SYNONYMS>  (2529) 


>  <SPECTRUM TYPE>  (2529) 
MS1

>  <INSTRUMENT TYPE>  (2529) 
EI-B

>  <INSTRUMENT>  (2529) 
HITACHI M-80B

>  <ION MODE>  (2529) 
P

>  <INCHIKEY>  (2529) 
NUJGJRNETVAIRJ-UHFFFAOYSA-N

>  <FORMULA>  (2529) 
C8H16O

>  <EXACT MASS>  (2529) 
128.120115132

>  <MW>  (2529) 
128

>  <ID>  (2529) 
JP008682

>  <CONTRIBUTOR>  (2529) 
University of Tokyo Team, {Faculty of Engineering, University of Tokyo

>  <COMMENT>  (2529) 
SMILES=CCCCCCCC=O
InChI=InChI=1S/C8H16O/c1-2-3-4-5-6-7-8-9/h8H,2-7H2,1H3
computed SMILES=O=CCCCCCCC
accession=JP008682
date=2016.01.19 (Created 2008.10.21, modified 2011.05.06)
author=SODA AROMATIC CO., LTD.
license=CC BY-NC-SA
exact mass=128.12012
ionization energy=70 eV
ion type=[M]+*
computed spectral entropy=3.0997850529777624
computed normalized entropy=0.8293362895999961
SPLASH=splash10-052f-9000000000-5116ccc02f51ccb0e86a
submitter=submitter = University of Tokyo Team (Faculty of Engineering, University of Tokyo)
MoNA Rating=3.75

>  <NUM PEAKS>  (2529) 
42

>  <MASS SPECTRAL PEAKS>  (2529) 
15 3.66
26 3.52
27 59.32
28 12.84
29 66.79
30 1.6
31 2.19
38 1.81
39 40.07
40 4.5
41 99.99
42 43.42
43 98.48
44 77.89
45 19.45
51 2.17
52 1.2
53 6.42
54 7.63
55 56.51
56 63.84
57 63.6
58 4.78
65 1.17
66 3.19
67 14.83
68 24.45
69 27.65
70 2.89
71 8.52
72 6.11
79 1.13
81 19.84
82 21.17
83 2.19
84 51.69
85 13.48
86 2.12
95 5.58
99 2.6
100 9.65
110 7.52

$$$$

     RDKit          2D

  9  8  0  0  0  0  0  0  0  0999 V2000
    1.6238    3.9375    0.0000 C   0  0  0  0  0  0  0  0  0  0  0  0
   -4.8714    1.6875    0.0000 C   0  0  0  0  0  0  0  0  0  0  0  0
    0.3248    4.6875    0.0000 C   0  0  0  0  0  0  0  0  0  0  0  0
   -3.5724    2.4375    0.0000 C   0  0  0  0  0  0  0  0  0  0  0  0
   -0.9743    3.9375    0.0000 C   0  0  0  0  0  0  0  0  0  0  0  0
   -2.2733    4.6875    0.0000 C   0  0  0  0  0  0  0  0  0  0  0  0
   -4.8714    4.6875    0.0000 C   0  0  0  0  0  0  0  0  0  0  0  0
   -3.5724    3.9375    0.0000 C   0  0  0  0  0  0  0  0  0  0  0  0
   -6.1704    3.9375    0.0000 O   0  0  0  0  0  0  0  0  0  0  0  0
  3  1  1  0
  4  2  1  0
  5  3  1  0
  6  5  1  0
  8  4  1  0
  6  8  2  0
  8  7  1  0
  9  7  2  0
M  END
>  <NAME>  (2530) 
2-ETHYL-2-HEXENAL

>  <SYNONYMS>  (2530) 


>  <SPECTRUM TYPE>  (2530) 
MS1

>  <INSTRUMENT TYPE>  (2530) 
EI-B

>  <INSTRUMENT>  (2530) 
HITACHI M-80B

>  <ION MODE>  (2530) 
P

>  <INCHIKEY>  (2530) 
PYLMCYQHBRSDND-SOFGYWHQSA-N

>  <FORMULA>  (2530) 
C8H14O

>  <EXACT MASS>  (2530) 
126.104465068

>  <MW>  (2530) 
126

>  <ID>  (2530) 
JP008681

>  <CONTRIBUTOR>  (2530) 
University of Tokyo Team, {Faculty of Engineering, University of Tokyo

>  <COMMENT>  (2530) 
SMILES=CCCC=C(CC)C=O
InChI=InChI=1S/C8H14O/c1-3-5-6-8(4-2)7-9/h6-7H,3-5H2,1-2H3/b8-6+
computed SMILES=O=CC(=CCCC)CC
accession=JP008681
date=2016.01.19 (Created 2008.10.21, modified 2011.05.06)
author=SODA AROMATIC CO., LTD.
license=CC BY-NC-SA
exact mass=126.10447
ion type=[M]+*
ionization energy=70 eV
computed spectral entropy=3.142892321888239
computed normalized entropy=0.80339310825302
SPLASH=splash10-056u-9000000000-a2b1bf5f5659fd1dc002
submitter=submitter = University of Tokyo Team (Faculty of Engineering, University of Tokyo)
MoNA Rating=3.75

>  <NUM PEAKS>  (2530) 
50

>  <MASS SPECTRAL PEAKS>  (2530) 
15 1.98
26 2.15
27 41.6
28 2.78
29 30.34
31 1.06
38 2.41
39 42.22
40 4.89
41 82.48
42 12.16
43 25.56
44 1.52
45 1.17
50 2.81
51 5.82
52 2.62
53 19.78
54 3.09
55 99.99
56 13.43
57 11.99
63 1.82
65 3.34
66 2.17
67 19.84
68 3.64
69 18.68
70 4.39
71 3.82
72 1.4
77 5.56
78 1.11
79 5.6
81 4.36
82 1.01
83 15.07
84 4.25
85 7.04
91 2.66
93 13.02
95 3.18
96 1
97 40.56
98 3.36
111 19.27
112 1.08
125 1.61
126 37.07
127 2.85

$$$$

     RDKit          2D

  8  7  0  0  0  0  0  0  0  0999 V2000
   -6.4952    4.5000    0.0000 C   0  0  0  0  0  0  0  0  0  0  0  0
   -5.1962    3.7500    0.0000 C   0  0  0  0  0  0  0  0  0  0  0  0
   -3.8971    4.5000    0.0000 C   0  0  0  0  0  0  0  0  0  0  0  0
   -2.5981    3.7500    0.0000 C   0  0  0  0  0  0  0  0  0  0  0  0
   -1.2990    4.5000    0.0000 C   0  0  0  0  0  0  0  0  0  0  0  0
    0.0000    3.7500    0.0000 C   0  0  0  0  0  0  0  0  0  0  0  0
    1.2990    4.5000    0.0000 C   0  0  0  0  0  0  0  0  0  0  0  0
    2.5981    3.7500    0.0000 O   0  0  0  0  0  0  0  0  0  0  0  0
  2  1  1  0
  3  2  1  0
  4  3  1  0
  5  4  1  0
  6  5  1  0
  7  6  1  0
  8  7  2  0
M  END
>  <NAME>  (2531) 
HEPTANAL

>  <SYNONYMS>  (2531) 


>  <SPECTRUM TYPE>  (2531) 
MS1

>  <INSTRUMENT TYPE>  (2531) 
EI-B

>  <INSTRUMENT>  (2531) 
HITACHI M-80B

>  <ION MODE>  (2531) 
P

>  <INCHIKEY>  (2531) 
FXHGMKSSBGDXIY-UHFFFAOYSA-N

>  <FORMULA>  (2531) 
C7H14O

>  <EXACT MASS>  (2531) 
114.104465068

>  <MW>  (2531) 
114

>  <ID>  (2531) 
JP008680

>  <CONTRIBUTOR>  (2531) 
University of Tokyo Team, {Faculty of Engineering, University of Tokyo

>  <COMMENT>  (2531) 
SMILES=CCCCCCC=O
InChI=InChI=1S/C7H14O/c1-2-3-4-5-6-7-8/h7H,2-6H2,1H3
computed SMILES=O=CCCCCCC
computed spectral entropy=2.9118310975195616
accession=JP008680
date=2016.01.19 (Created 2008.10.21, modified 2011.05.06)
author=SODA AROMATIC CO., LTD.
license=CC BY-NC-SA
exact mass=114.10447
ionization energy=70 eV
ion type=[M]+*
computed normalized entropy=0.8063963701094685
SPLASH=splash10-0006-9000000000-aedf02ade0aa5bd82d71
submitter=submitter = University of Tokyo Team (Faculty of Engineering, University of Tokyo)
MoNA Rating=3.75

>  <NUM PEAKS>  (2531) 
37

>  <MASS SPECTRAL PEAKS>  (2531) 
15 4.06
26 4.64
27 61.85
28 6.16
29 61.41
30 1.74
31 2.18
38 2.07
39 38.34
40 4.26
41 89.16
42 53.62
43 79.7
44 99.99
45 21.66
50 1.3
51 2.49
52 1.09
53 5.14
54 5.91
55 53.57
56 6.01
57 46.36
58 4.38
67 6.73
68 15.54
69 4.11
70 78.96
71 22.56
72 6.78
81 16.64
82 1.14
85 2.94
86 13.28
95 1.3
96 8.84
114 1.1

$$$$

     RDKit          2D

  8  7  0  0  0  0  0  0  0  0999 V2000
   -3.5724    2.0625    0.0000 C   0  0  0  0  0  0  0  0  0  0  0  0
   -2.2733    2.8125    0.0000 C   0  0  0  0  0  0  0  0  0  0  0  0
   -2.2733    4.3125    0.0000 C   0  0  0  0  0  0  0  0  0  0  0  0
   -0.9743    5.0625    0.0000 C   0  0  0  0  0  0  0  0  0  0  0  0
    0.3248    4.3125    0.0000 C   0  0  0  0  0  0  0  0  0  0  0  0
    1.6238    5.0625    0.0000 C   0  0  0  0  0  0  0  0  0  0  0  0
    2.9228    4.3125    0.0000 C   0  0  0  0  0  0  0  0  0  0  0  0
    4.2219    5.0625    0.0000 O   0  0  0  0  0  0  0  0  0  0  0  0
  2  1  1  0
  3  2  1  0
  3  4  2  0
  5  4  1  0
  6  5  1  0
  7  6  1  0
  8  7  2  0
M  END
>  <NAME>  (2532) 
CIS-4-HEPTENAL

>  <SYNONYMS>  (2532) 


>  <SPECTRUM TYPE>  (2532) 
MS1

>  <INSTRUMENT TYPE>  (2532) 
EI-B

>  <INSTRUMENT>  (2532) 
HITACHI M-80B

>  <ION MODE>  (2532) 
P

>  <INCHIKEY>  (2532) 
VVGOCOMZRGWHPI-ARJAWSKDSA-N

>  <FORMULA>  (2532) 
C7H12O

>  <EXACT MASS>  (2532) 
112.088815004

>  <MW>  (2532) 
112

>  <ID>  (2532) 
JP008679

>  <CONTRIBUTOR>  (2532) 
University of Tokyo Team, {Faculty of Engineering, University of Tokyo

>  <COMMENT>  (2532) 
SMILES=CCC=CCCC=O
InChI=InChI=1S/C7H12O/c1-2-3-4-5-6-7-8/h3-4,7H,2,5-6H2,1H3/b4-3-
computed SMILES=O=CCCC=CCC
accession=JP008679
date=2016.01.19 (Created 2008.10.21, modified 2011.05.06)
author=SODA AROMATIC CO., LTD.
license=CC BY-NC-SA
exact mass=112.08882
ionization energy=70 eV
ion type=[M]+*
computed spectral entropy=3.0227786349372296
computed normalized entropy=0.8194300389962992
SPLASH=splash10-069u-9000000000-a21983533c6d768fcdeb
submitter=submitter = University of Tokyo Team (Faculty of Engineering, University of Tokyo)
MoNA Rating=3.75

>  <NUM PEAKS>  (2532) 
40

>  <MASS SPECTRAL PEAKS>  (2532) 
15 2.93
26 3.36
27 36.49
29 31.4
31 1.56
37 1.06
38 3.32
39 49.63
40 8.51
41 99.99
42 27.66
43 11.39
44 1.28
50 3.89
51 7.92
52 3
53 22.59
54 6.48
55 68.46
56 28.27
57 13.28
58 1.11
63 1.65
65 3.3
66 2.72
67 35.26
68 68.54
69 17.12
70 9.96
71 1.14
77 3.29
79 10.36
81 3.82
83 32.71
84 49.33
85 2.23
94 11.86
95 1.17
97 2.68
112 2.82

$$$$

     RDKit          2D

  8  7  0  0  0  0  0  0  0  0999 V2000
   -6.4952    4.5000    0.0000 C   0  0  0  0  0  0  0  0  0  0  0  0
   -5.1962    3.7500    0.0000 C   0  0  0  0  0  0  0  0  0  0  0  0
   -3.8971    4.5000    0.0000 C   0  0  0  0  0  0  0  0  0  0  0  0
   -2.5981    3.7500    0.0000 C   0  0  0  0  0  0  0  0  0  0  0  0
   -1.2990    4.5000    0.0000 C   0  0  0  0  0  0  0  0  0  0  0  0
    0.0000    3.7500    0.0000 C   0  0  0  0  0  0  0  0  0  0  0  0
    1.2990    4.5000    0.0000 C   0  0  0  0  0  0  0  0  0  0  0  0
    2.5981    3.7500    0.0000 O   0  0  0  0  0  0  0  0  0  0  0  0
  2  1  1  0
  3  2  1  0
  4  3  1  0
  5  4  1  0
  5  6  2  0
  7  6  1  0
  8  7  2  0
M  END
>  <NAME>  (2533) 
TRANS-2-HEPTENAL

>  <SYNONYMS>  (2533) 


>  <SPECTRUM TYPE>  (2533) 
MS1

>  <INSTRUMENT TYPE>  (2533) 
EI-B

>  <INSTRUMENT>  (2533) 
HITACHI M-80B

>  <ION MODE>  (2533) 
P

>  <INCHIKEY>  (2533) 
NDFKTBCGKNOHPJ-AATRIKPKSA-N

>  <FORMULA>  (2533) 
C7H12O

>  <EXACT MASS>  (2533) 
112.088815004

>  <MW>  (2533) 
112

>  <ID>  (2533) 
JP008678

>  <CONTRIBUTOR>  (2533) 
University of Tokyo Team, {Faculty of Engineering, University of Tokyo

>  <COMMENT>  (2533) 
SMILES=CCCCC=CC=O
InChI=InChI=1S/C7H12O/c1-2-3-4-5-6-7-8/h5-7H,2-4H2,1H3/b6-5+
computed SMILES=O=CC=CCCCC
accession=JP008678
date=2016.01.19 (Created 2008.10.21, modified 2011.05.06)
author=SODA AROMATIC CO., LTD.
license=CC BY-NC-SA
exact mass=112.08882
ionization energy=70 eV
ion type=[M]+*
computed spectral entropy=3.031146039625372
computed normalized entropy=0.8162346078597661
SPLASH=splash10-0a6u-9000000000-1e3da23b690c3ef7c024
submitter=submitter = University of Tokyo Team (Faculty of Engineering, University of Tokyo)
MoNA Rating=3.75

>  <NUM PEAKS>  (2533) 
41

>  <MASS SPECTRAL PEAKS>  (2533) 
15 3.14
26 5.34
27 66.48
28 9.53
29 35.18
31 1.07
37 1.77
38 5.1
39 61.57
40 8.96
41 99.99
42 21.82
43 36.55
44 1.9
50 4.06
51 7.22
52 2.61
53 14.46
54 4.85
55 59.16
56 45.37
57 50.13
58 2.23
63 1.25
65 1.84
66 1.38
67 4.8
68 28.46
69 31.51
70 35.44
71 5.28
77 1.57
79 4.49
81 4.12
82 1.28
83 65.23
84 13.37
94 3.61
97 5
111 1.4
112 4.75

$$$$

     RDKit          2D

  7  6  0  0  0  0  0  0  0  0999 V2000
    1.9486    3.3750    0.0000 C   0  0  0  0  0  0  0  0  0  0  0  0
    0.6495    4.1250    0.0000 C   0  0  0  0  0  0  0  0  0  0  0  0
   -0.6495    3.3750    0.0000 C   0  0  0  0  0  0  0  0  0  0  0  0
   -1.9486    4.1250    0.0000 C   0  0  0  0  0  0  0  0  0  0  0  0
   -3.2476    3.3750    0.0000 C   0  0  0  0  0  0  0  0  0  0  0  0
   -4.5466    4.1250    0.0000 C   0  0  0  0  0  0  0  0  0  0  0  0
   -5.8457    3.3750    0.0000 O   0  0  0  0  0  0  0  0  0  0  0  0
  2  1  1  0
  3  2  1  0
  4  3  1  0
  5  4  1  0
  6  5  1  0
  7  6  2  0
M  END
>  <NAME>  (2534) 
HEXANAL

>  <SYNONYMS>  (2534) 


>  <SPECTRUM TYPE>  (2534) 
MS1

>  <INSTRUMENT TYPE>  (2534) 
EI-B

>  <INSTRUMENT>  (2534) 
HITACHI M-80B

>  <ION MODE>  (2534) 
P

>  <INCHIKEY>  (2534) 
JARKCYVAAOWBJS-UHFFFAOYSA-N

>  <FORMULA>  (2534) 
C6H12O

>  <EXACT MASS>  (2534) 
100.088815004

>  <MW>  (2534) 
100

>  <ID>  (2534) 
JP008677

>  <CONTRIBUTOR>  (2534) 
University of Tokyo Team, {Faculty of Engineering, University of Tokyo

>  <COMMENT>  (2534) 
SMILES=CCCCCC=O
InChI=InChI=1S/C6H12O/c1-2-3-4-5-6-7/h6H,2-5H2,1H3
computed SMILES=O=CCCCCC
accession=JP008677
date=2016.01.19 (Created 2008.10.21, modified 2011.05.06)
author=SODA AROMATIC CO., LTD.
license=CC BY-NC-SA
exact mass=100.08882
ionization energy=70 eV
ion type=[M]+*
computed spectral entropy=2.7392981362619664
computed normalized entropy=0.7977019054363851
SPLASH=splash10-052f-9000000000-89f4d5edf8639a778ef4
submitter=submitter = University of Tokyo Team (Faculty of Engineering, University of Tokyo)
MoNA Rating=3.75

>  <NUM PEAKS>  (2534) 
31

>  <MASS SPECTRAL PEAKS>  (2534) 
15 4.45
26 4.87
27 53.04
28 6.12
29 47.33
30 1.42
31 1.95
37 1.16
38 2.61
39 37.8
40 4.67
41 83.43
42 15.06
43 59.64
44 99.99
45 20.35
50 1.36
51 1.69
53 3.27
54 2.88
55 16.92
56 83.13
57 52.43
58 9.28
67 10.77
69 1.25
71 8.25
72 20.55
81 1.41
82 15.37
83 1.52

$$$$

     RDKit          2D

  7  6  0  0  0  0  0  0  0  0999 V2000
    1.9486    2.6250    0.0000 C   0  0  0  0  0  0  0  0  0  0  0  0
   -1.9486    4.8750    0.0000 C   0  0  0  0  0  0  0  0  0  0  0  0
    0.6495    3.3750    0.0000 C   0  0  0  0  0  0  0  0  0  0  0  0
   -0.6495    2.6250    0.0000 C   0  0  0  0  0  0  0  0  0  0  0  0
   -3.2476    2.6250    0.0000 C   0  0  0  0  0  0  0  0  0  0  0  0
   -1.9486    3.3750    0.0000 C   0  0  0  0  0  0  0  0  0  0  0  0
   -4.5466    3.3750    0.0000 O   0  0  0  0  0  0  0  0  0  0  0  0
  3  1  1  0
  4  3  1  0
  6  2  1  0
  4  6  2  0
  6  5  1  0
  7  5  2  0
M  END
>  <NAME>  (2535) 
2-METHYL-2-PENTENAL

>  <SYNONYMS>  (2535) 


>  <SPECTRUM TYPE>  (2535) 
MS1

>  <INSTRUMENT TYPE>  (2535) 
EI-B

>  <INSTRUMENT>  (2535) 
HITACHI M-80B

>  <ION MODE>  (2535) 
P

>  <INCHIKEY>  (2535) 
IDEYZABHVQLHAF-GQCTYLIASA-N

>  <FORMULA>  (2535) 
C6H10O

>  <EXACT MASS>  (2535) 
98.07316494

>  <MW>  (2535) 
98

>  <ID>  (2535) 
JP008676

>  <CONTRIBUTOR>  (2535) 
University of Tokyo Team, {Faculty of Engineering, University of Tokyo

>  <COMMENT>  (2535) 
SMILES=CCC=C(C)C=O
InChI=InChI=1S/C6H10O/c1-3-4-6(2)5-7/h4-5H,3H2,1-2H3/b6-4+
computed SMILES=O=CC(=CCC)C
accession=JP008676
date=2016.01.19 (Created 2008.10.21, modified 2011.05.06)
author=SODA AROMATIC CO., LTD.
license=CC BY-NC-SA
exact mass=98.07316
ionization energy=70 eV
ion type=[M]+*
computed spectral entropy=2.735641389708922
computed normalized entropy=0.7893392533167307
SPLASH=splash10-0006-9000000000-25bfcbbae5ab1359a2bc
submitter=submitter = University of Tokyo Team (Faculty of Engineering, University of Tokyo)
MoNA Rating=3.75

>  <NUM PEAKS>  (2535) 
32

>  <MASS SPECTRAL PEAKS>  (2535) 
15 2.03
26 3.22
27 26.38
28 3.93
29 15.11
37 1.65
38 4.92
39 42.96
40 5.21
41 99.99
42 11.83
43 12.56
50 4.21
51 5.68
52 1.95
53 12.83
54 3.44
55 26.89
56 4.66
57 1.93
58 1.75
62 1.22
63 1.54
65 2.09
67 5.04
69 35.32
70 2.87
79 4.76
83 16.03
97 5.32
98 51.72
99 3.63

$$$$

     RDKit          2D

  7  6  0  0  0  0  0  0  0  0999 V2000
    2.9228    5.0625    0.0000 C   0  0  0  0  0  0  0  0  0  0  0  0
    1.6238    4.3125    0.0000 C   0  0  0  0  0  0  0  0  0  0  0  0
    1.6238    2.8125    0.0000 C   0  0  0  0  0  0  0  0  0  0  0  0
    0.3248    2.0625    0.0000 C   0  0  0  0  0  0  0  0  0  0  0  0
   -0.9743    2.8125    0.0000 C   0  0  0  0  0  0  0  0  0  0  0  0
   -2.2733    2.0625    0.0000 C   0  0  0  0  0  0  0  0  0  0  0  0
   -3.5724    2.8125    0.0000 O   0  0  0  0  0  0  0  0  0  0  0  0
  2  1  1  0
  3  2  1  0
  3  4  2  0
  5  4  1  0
  6  5  1  0
  7  6  2  0
M  END
>  <NAME>  (2536) 
CIS-3-HEXENAL

>  <SYNONYMS>  (2536) 


>  <SPECTRUM TYPE>  (2536) 
MS1

>  <INSTRUMENT TYPE>  (2536) 
EI-B

>  <INSTRUMENT>  (2536) 
HITACHI M-80B

>  <ION MODE>  (2536) 
P

>  <INCHIKEY>  (2536) 
GXANMBISFKBPEX-ARJAWSKDSA-N

>  <FORMULA>  (2536) 
C6H10O

>  <EXACT MASS>  (2536) 
98.07316494

>  <MW>  (2536) 
98

>  <ID>  (2536) 
JP008675

>  <CONTRIBUTOR>  (2536) 
University of Tokyo Team, {Faculty of Engineering, University of Tokyo

>  <COMMENT>  (2536) 
SMILES=CCC=CCC=O
InChI=InChI=1S/C6H10O/c1-2-3-4-5-6-7/h3-4,6H,2,5H2,1H3/b4-3-
computed SMILES=O=CCC=CCC
accession=JP008675
date=2016.01.19 (Created 2008.10.21, modified 2011.05.06)
author=SODA AROMATIC CO., LTD.
license=CC BY-NC-SA
exact mass=98.07316
ionization energy=70 eV
ion type=[M]+*
computed spectral entropy=2.545232367047356
computed normalized entropy=0.755868357149238
SPLASH=splash10-0006-9000000000-e5a3c79d27472fedbaa8
submitter=submitter = University of Tokyo Team (Faculty of Engineering, University of Tokyo)
MoNA Rating=3.75

>  <NUM PEAKS>  (2536) 
29

>  <MASS SPECTRAL PEAKS>  (2536) 
15 1.84
26 2.48
27 24.44
28 1.78
29 16
37 1.2
38 3.11
39 33.82
40 3.37
41 99.99
42 17.55
43 9.49
50 2.17
51 2.73
52 1.06
53 8.93
54 3.22
55 22.95
56 3.22
57 1.29
65 1.25
67 2.73
68 30.86
70 8.01
79 1.09
80 5.73
83 7.2
97 1.11
98 5.64

$$$$

     RDKit          2D

  7  6  0  0  0  0  0  0  0  0999 V2000
    1.9486    3.3750    0.0000 C   0  0  0  0  0  0  0  0  0  0  0  0
    0.6495    4.1250    0.0000 C   0  0  0  0  0  0  0  0  0  0  0  0
   -0.6495    3.3750    0.0000 C   0  0  0  0  0  0  0  0  0  0  0  0
   -1.9486    4.1250    0.0000 C   0  0  0  0  0  0  0  0  0  0  0  0
   -3.2476    3.3750    0.0000 C   0  0  0  0  0  0  0  0  0  0  0  0
   -4.5466    4.1250    0.0000 C   0  0  0  0  0  0  0  0  0  0  0  0
   -5.8457    3.3750    0.0000 O   0  0  0  0  0  0  0  0  0  0  0  0
  2  1  1  0
  3  2  1  0
  4  3  1  0
  4  5  2  0
  6  5  1  0
  7  6  2  0
M  END
>  <NAME>  (2537) 
TRANS-2-HEXENAL

>  <SYNONYMS>  (2537) 


>  <SPECTRUM TYPE>  (2537) 
MS1

>  <INSTRUMENT TYPE>  (2537) 
EI-B

>  <INSTRUMENT>  (2537) 
HITACHI M-80B

>  <ION MODE>  (2537) 
P

>  <INCHIKEY>  (2537) 
MBDOYVRWFFCFHM-SNAWJCMRSA-N

>  <FORMULA>  (2537) 
C6H10O

>  <EXACT MASS>  (2537) 
98.07316494

>  <MW>  (2537) 
98

>  <ID>  (2537) 
JP008674

>  <CONTRIBUTOR>  (2537) 
University of Tokyo Team, {Faculty of Engineering, University of Tokyo

>  <COMMENT>  (2537) 
SMILES=CCCC=CC=O
InChI=InChI=1S/C6H10O/c1-2-3-4-5-6-7/h4-6H,2-3H2,1H3/b5-4+
computed SMILES=O=CC=CCCC
accession=JP008674
date=2016.01.19 (Created 2008.10.21, modified 2011.05.06)
author=SODA AROMATIC CO., LTD.
license=CC BY-NC-SA
exact mass=98.07316
ionization energy=70 eV
ion type=[M]+*
computed spectral entropy=2.9928048103081695
computed normalized entropy=0.811304583827079
SPLASH=splash10-054o-9000000000-b289f8b06100232f2fe2
submitter=submitter = University of Tokyo Team (Faculty of Engineering, University of Tokyo)
MoNA Rating=3.75

>  <NUM PEAKS>  (2537) 
40

>  <MASS SPECTRAL PEAKS>  (2537) 
15 3.73
26 7.42
27 53.3
28 7.51
29 43.78
31 1.8
37 3.19
38 9.58
39 72.71
40 12.42
41 99.99
42 56.99
43 17.52
44 2.03
50 4.57
51 5.98
52 2.56
53 11.66
54 9.27
55 63.95
56 12.63
57 39.75
58 1.59
62 1.29
63 1.79
65 2.53
66 1
67 3.46
68 5.9
69 53.36
70 16.06
71 1.37
79 5.09
80 6.18
81 2.22
83 46.74
84 2.41
97 7.51
98 20.47
99 1.43

$$$$

     RDKit          2D

  6  5  0  0  0  0  0  0  0  0999 V2000
   -4.5466    3.3750    0.0000 C   0  0  0  0  0  0  0  0  0  0  0  0
   -3.2476    2.6250    0.0000 C   0  0  0  0  0  0  0  0  0  0  0  0
   -1.9486    3.3750    0.0000 C   0  0  0  0  0  0  0  0  0  0  0  0
   -0.6495    2.6250    0.0000 C   0  0  0  0  0  0  0  0  0  0  0  0
    0.6495    3.3750    0.0000 C   0  0  0  0  0  0  0  0  0  0  0  0
    1.9486    2.6250    0.0000 O   0  0  0  0  0  0  0  0  0  0  0  0
  2  1  1  0
  3  2  1  0
  4  3  1  0
  5  4  1  0
  6  5  2  0
M  END
>  <NAME>  (2538) 
PENTANAL

>  <SYNONYMS>  (2538) 


>  <SPECTRUM TYPE>  (2538) 
MS1

>  <INSTRUMENT TYPE>  (2538) 
EI-B

>  <INSTRUMENT>  (2538) 
HITACHI M-80B

>  <ION MODE>  (2538) 
P

>  <INCHIKEY>  (2538) 
HGBOYTHUEUWSSQ-UHFFFAOYSA-N

>  <FORMULA>  (2538) 
C5H10O

>  <EXACT MASS>  (2538) 
86.07316494

>  <MW>  (2538) 
86

>  <ID>  (2538) 
JP008673

>  <CONTRIBUTOR>  (2538) 
University of Tokyo Team, {Faculty of Engineering, University of Tokyo

>  <COMMENT>  (2538) 
SMILES=CCCCC=O
InChI=InChI=1S/C5H10O/c1-2-3-4-5-6/h5H,2-4H2,1H3
computed SMILES=O=CCCCC
accession=JP008673
date=2016.01.19 (Created 2008.10.21, modified 2011.05.06)
author=SODA AROMATIC CO., LTD.
license=CC BY-NC-SA
exact mass=86.07316
ionization energy=70 eV
ion type=[M]+*
computed spectral entropy=2.3466519807468633
computed normalized entropy=0.7833316753512521
SPLASH=splash10-002f-9000000000-d38a485c600fbb15d429
submitter=submitter = University of Tokyo Team (Faculty of Engineering, University of Tokyo)
MoNA Rating=3.75

>  <NUM PEAKS>  (2538) 
20

>  <MASS SPECTRAL PEAKS>  (2538) 
15 3.42
26 5.56
27 38.31
28 3.03
29 53.5
31 2.35
38 2.68
39 17.29
41 44.81
42 10.89
43 16.85
44 99.99
45 10.21
50 1.67
51 1.86
53 2.56
55 4.95
57 20.07
58 30.28
71 1.6

$$$$

     RDKit          2D

 13 14  0  0  0  0  0  0  0  0999 V2000
   -3.1045   -0.7778    0.0000 C   0  0  0  0  0  0  0  0  0  0  0  0
   -7.0017    2.9722    0.0000 C   0  0  0  0  0  0  0  0  0  0  0  0
   -7.0021    1.4714    0.0000 C   0  0  0  0  0  0  0  0  0  0  0  0
   -5.7021    3.7230    0.0000 C   0  0  0  0  0  0  0  0  0  0  0  0
   -5.7031    0.7214    0.0000 C   0  0  0  0  0  0  0  0  0  0  0  0
   -4.4031    2.9730    0.0000 C   0  0  0  0  0  0  0  0  0  0  0  0
   -0.1815    3.2759    0.0000 C   0  0  0  0  0  0  0  0  0  0  0  0
    0.5685    1.9768    0.0000 C   0  0  0  0  0  0  0  0  0  0  0  0
   -3.1045    0.7222    0.0000 C   0  0  0  0  0  0  0  0  0  0  0  0
   -4.4036    1.4722    0.0000 C   0  0  0  0  0  0  0  0  0  0  0  0
   -1.8055    1.4722    0.0000 C   0  0  0  0  0  0  0  0  0  0  0  0
   -1.6487    2.9640    0.0000 O   0  0  0  0  0  0  0  0  0  0  0  0
   -0.4352    0.8621    0.0000 O   0  0  0  0  0  0  0  0  0  0  0  0
  3  2  2  0
  4  2  1  0
  5  3  1  0
  6  4  2  0
  8  7  1  0
  9  1  1  0
 10  5  2  0
 10  6  1  0
 10  9  1  0
 11  9  1  0
 12  7  1  0
 12 11  1  0
 13  8  1  0
 13 11  1  0
M  END
>  <NAME>  (2539) 
2-PHENYLPROPANAL ETHYLENE GLYCOL ACETAL

>  <SYNONYMS>  (2539) 


>  <SPECTRUM TYPE>  (2539) 
MS1

>  <INSTRUMENT TYPE>  (2539) 
EI-B

>  <INSTRUMENT>  (2539) 
HITACHI M-80B

>  <ION MODE>  (2539) 
P

>  <INCHIKEY>  (2539) 
SATZAQAJSHXNSJ-UHFFFAOYSA-N

>  <FORMULA>  (2539) 
C11H14O2

>  <EXACT MASS>  (2539) 
178.099379688

>  <MW>  (2539) 
178

>  <ID>  (2539) 
JP008672

>  <CONTRIBUTOR>  (2539) 
University of Tokyo Team, {Faculty of Engineering, University of Tokyo

>  <COMMENT>  (2539) 
SMILES=CC(c(c2)cccc2)C(O1)OCC1
InChI=InChI=1S/C11H14O2/c1-9(11-12-7-8-13-11)10-5-3-2-4-6-10/h2-6,9,11H,7-8H2,1H3
computed SMILES=O1CCOC1C(C=2C=CC=CC2)C
accession=JP008672
date=2016.01.19 (Created 2008.10.21, modified 2011.05.06)
author=SODA AROMATIC CO., LTD.
license=CC BY-NC-SA
exact mass=178.09938
ionization energy=70 eV
ion type=[M]+*
computed spectral entropy=1.6322216699037981
computed normalized entropy=0.5647099427417098
SPLASH=splash10-00di-9100000000-a0eb98b64abb483fd18b
submitter=submitter = University of Tokyo Team (Faculty of Engineering, University of Tokyo)
MoNA Rating=3.75

>  <NUM PEAKS>  (2539) 
18

>  <MASS SPECTRAL PEAKS>  (2539) 
27 3.05
29 1.76
39 1.75
43 1.23
45 18.68
51 3.49
65 1.01
73 99.99
74 3.74
77 6.66
78 1.85
79 2.83
91 3.07
103 3
104 1.34
105 9.67
117 1.3
118 1.35

$$$$

     RDKit          2D

 11 11  0  0  0  0  0  0  0  0999 V2000
    0.6709   -0.6434    0.0000 C   0  0  0  0  0  0  0  0  0  0  0  0
   -0.6282   -1.3934    0.0000 C   0  0  0  0  0  0  0  0  0  0  0  0
   -1.9272   -0.6434    0.0000 C   0  0  0  0  0  0  0  0  0  0  0  0
   -3.2262   -1.3934    0.0000 C   0  0  0  0  0  0  0  0  0  0  0  0
   -4.5253   -0.6434    0.0000 C   0  0  0  0  0  0  0  0  0  0  0  0
   -5.8243   -1.3934    0.0000 C   0  0  0  0  0  0  0  0  0  0  0  0
   -9.4974   -0.1388    0.0000 C   0  0  0  0  0  0  0  0  0  0  0  0
   -8.7474    1.1603    0.0000 C   0  0  0  0  0  0  0  0  0  0  0  0
   -7.1234   -0.6434    0.0000 C   0  0  0  0  0  0  0  0  0  0  0  0
   -8.4937   -1.2535    0.0000 O   0  0  0  0  0  0  0  0  0  0  0  0
   -7.2801    0.8484    0.0000 O   0  0  0  0  0  0  0  0  0  0  0  0
  2  1  1  0
  3  2  1  0
  4  3  1  0
  5  4  1  0
  6  5  1  0
  8  7  1  0
  9  6  1  0
 10  7  1  0
 10  9  1  0
 11  8  1  0
 11  9  1  0
M  END
>  <NAME>  (2540) 
HEPTANAL ETHYLENE GLYCOL ACETAL

>  <SYNONYMS>  (2540) 


>  <SPECTRUM TYPE>  (2540) 
MS1

>  <INSTRUMENT TYPE>  (2540) 
EI-B

>  <INSTRUMENT>  (2540) 
HITACHI M-80B

>  <ION MODE>  (2540) 
P

>  <INCHIKEY>  (2540) 
DDSSJDFXTAYRNO-UHFFFAOYSA-N

>  <FORMULA>  (2540) 
C9H18O2

>  <EXACT MASS>  (2540) 
158.130679816

>  <MW>  (2540) 
158

>  <ID>  (2540) 
JP008671

>  <CONTRIBUTOR>  (2540) 
University of Tokyo Team, {Faculty of Engineering, University of Tokyo

>  <COMMENT>  (2540) 
SMILES=CCCCCCC(O1)OCC1
InChI=InChI=1S/C9H18O2/c1-2-3-4-5-6-9-10-7-8-11-9/h9H,2-8H2,1H3
computed SMILES=O1CCOC1CCCCCC
accession=JP008671
date=2016.01.19 (Created 2008.10.21, modified 2011.05.06)
author=SODA AROMATIC CO., LTD.
license=CC BY-NC-SA
exact mass=158.13068
ionization energy=70 eV
ion type=[M]+*
computed spectral entropy=1.5287038903430734
computed normalized entropy=0.5513633803964044
SPLASH=splash10-00di-9000000000-6a14e14b68129ce406f0
submitter=submitter = University of Tokyo Team (Faculty of Engineering, University of Tokyo)
MoNA Rating=3.75

>  <NUM PEAKS>  (2540) 
16

>  <MASS SPECTRAL PEAKS>  (2540) 
15 1.01
27 7.4
29 5.2
31 1.12
39 4.09
41 7.54
42 1.68
43 4.68
44 1.16
45 18.24
55 1.96
57 1.14
71 1.22
73 99.99
74 3.46
157 1.21

$$$$

     RDKit          2D

 12 12  0  0  0  0  0  0  0  0999 V2000
    0.7425    0.9229    0.0000 C   0  0  0  0  0  0  0  0  0  0  0  0
   -5.7527   -1.3271    0.0000 C   0  0  0  0  0  0  0  0  0  0  0  0
   -0.5565    1.6729    0.0000 C   0  0  0  0  0  0  0  0  0  0  0  0
   -4.4537   -0.5771    0.0000 C   0  0  0  0  0  0  0  0  0  0  0  0
   -1.8556    0.9229    0.0000 C   0  0  0  0  0  0  0  0  0  0  0  0
   -3.1546    1.6729    0.0000 C   0  0  0  0  0  0  0  0  0  0  0  0
   -8.1267    2.1775    0.0000 C   0  0  0  0  0  0  0  0  0  0  0  0
   -7.3767    3.4766    0.0000 C   0  0  0  0  0  0  0  0  0  0  0  0
   -4.4537    0.9229    0.0000 C   0  0  0  0  0  0  0  0  0  0  0  0
   -5.7527    1.6729    0.0000 C   0  0  0  0  0  0  0  0  0  0  0  0
   -7.1230    1.0628    0.0000 O   0  0  0  0  0  0  0  0  0  0  0  0
   -5.9095    3.1647    0.0000 O   0  0  0  0  0  0  0  0  0  0  0  0
  3  1  1  0
  4  2  1  0
  5  3  1  0
  6  5  1  0
  8  7  1  0
  9  4  1  0
  9  6  1  0
 10  9  1  0
 11  7  1  0
 11 10  1  0
 12  8  1  0
 12 10  1  0
M  END
>  <NAME>  (2541) 
2-ETHYLHEXANAL ETHYLENE GLYCOL ACETAL

>  <SYNONYMS>  (2541) 


>  <SPECTRUM TYPE>  (2541) 
MS1

>  <INSTRUMENT TYPE>  (2541) 
EI-B

>  <INSTRUMENT>  (2541) 
HITACHI M-80B

>  <ION MODE>  (2541) 
P

>  <INCHIKEY>  (2541) 
LQSZQAHPRJMRET-UHFFFAOYSA-N

>  <FORMULA>  (2541) 
C10H20O2

>  <EXACT MASS>  (2541) 
172.14632988

>  <MW>  (2541) 
172

>  <ID>  (2541) 
JP008670

>  <CONTRIBUTOR>  (2541) 
University of Tokyo Team, {Faculty of Engineering, University of Tokyo

>  <COMMENT>  (2541) 
SMILES=CCCCC(CC)C(O1)OCC1
InChI=InChI=1S/C10H20O2/c1-3-5-6-9(4-2)10-11-7-8-12-10/h9-10H,3-8H2,1-2H3
computed SMILES=O1CCOC1C(CC)CCCC
accession=JP008670
date=2016.01.19 (Created 2008.10.21, modified 2011.05.06)
author=SODA AROMATIC CO., LTD.
license=CC BY-NC-SA
exact mass=172.14633
ionization energy=70 eV
ion type=[M]+*
computed spectral entropy=1.1764034302938124
computed normalized entropy=0.49059833581511525
SPLASH=splash10-00di-9000000000-09456ce1d0bece760616
submitter=submitter = University of Tokyo Team (Faculty of Engineering, University of Tokyo)
MoNA Rating=3.75

>  <NUM PEAKS>  (2541) 
11

>  <MASS SPECTRAL PEAKS>  (2541) 
27 3.73
29 3.68
39 1.72
41 5.87
43 2.61
45 11.65
55 2.92
57 2
70 1.1
73 99.99
74 3.63

$$$$

     RDKit          2D

 13 13  0  0  0  0  0  0  0  0999 V2000
   -4.5466    1.4450    0.0000 C   0  0  0  0  0  0  0  0  0  0  0  0
   -1.9486    5.9450    0.0000 C   0  0  0  0  0  0  0  0  0  0  0  0
   -3.2476    2.1950    0.0000 C   0  0  0  0  0  0  0  0  0  0  0  0
   -1.9486    4.4450    0.0000 C   0  0  0  0  0  0  0  0  0  0  0  0
    3.2476   -0.0550    0.0000 C   0  0  0  0  0  0  0  0  0  0  0  0
    3.2481    1.4458    0.0000 C   0  0  0  0  0  0  0  0  0  0  0  0
    1.9481   -0.8058    0.0000 C   0  0  0  0  0  0  0  0  0  0  0  0
    1.9490    2.1958    0.0000 C   0  0  0  0  0  0  0  0  0  0  0  0
    0.6490   -0.0558    0.0000 C   0  0  0  0  0  0  0  0  0  0  0  0
    0.6495    1.4450    0.0000 C   0  0  0  0  0  0  0  0  0  0  0  0
   -0.6495    2.1950    0.0000 C   0  0  0  0  0  0  0  0  0  0  0  0
   -1.9486    1.4450    0.0000 O   0  0  0  0  0  0  0  0  0  0  0  0
   -0.6495    3.6950    0.0000 O   0  0  0  0  0  0  0  0  0  0  0  0
  3  1  1  0
  4  2  1  0
  6  5  2  0
  7  5  1  0
  8  6  1  0
  9  7  2  0
 10  8  2  0
 10  9  1  0
 11 10  1  0
 12  3  1  0
 12 11  1  0
 13  4  1  0
 13 11  1  0
M  END
>  <NAME>  (2542) 
BENZALDEHYDE DIETHYL ACETAL

>  <SYNONYMS>  (2542) 


>  <SPECTRUM TYPE>  (2542) 
MS1

>  <INSTRUMENT TYPE>  (2542) 
EI-B

>  <INSTRUMENT>  (2542) 
HITACHI M-80B

>  <ION MODE>  (2542) 
P

>  <INCHIKEY>  (2542) 
MAQMEXSLUSZDQM-UHFFFAOYSA-N

>  <FORMULA>  (2542) 
C11H16O2

>  <EXACT MASS>  (2542) 
180.115029752

>  <MW>  (2542) 
180

>  <ID>  (2542) 
JP008669

>  <CONTRIBUTOR>  (2542) 
University of Tokyo Team, {Faculty of Engineering, University of Tokyo

>  <COMMENT>  (2542) 
SMILES=CCOC(OCC)c(c1)cccc1
InChI=InChI=1S/C11H16O2/c1-3-12-11(13-4-2)10-8-6-5-7-9-10/h5-9,11H,3-4H2,1-2H3
computed SMILES=O(CC)C(OCC)C=1C=CC=CC1
accession=JP008669
date=2016.01.19 (Created 2008.10.21, modified 2011.05.06)
author=SODA AROMATIC CO., LTD.
license=CC BY-NC-SA
exact mass=180.11503
ionization energy=70 eV
ion type=[M]+*
computed spectral entropy=2.409921570252205
computed normalized entropy=0.7396716279363713
SPLASH=splash10-0550-6900000000-dfa47991c27d1a7e71c0
submitter=submitter = University of Tokyo Team (Faculty of Engineering, University of Tokyo)
MoNA Rating=3.75

>  <NUM PEAKS>  (2542) 
26

>  <MASS SPECTRAL PEAKS>  (2542) 
27 8.33
29 14.25
39 1.83
43 1.77
47 8.56
50 3.29
51 10.68
52 2.68
63 1.35
75 5.93
76 1.1
77 30.84
78 5.6
79 44.65
80 2.95
89 1.82
90 1.52
91 2.06
103 4.84
105 17.9
106 2.98
107 63
108 4.81
123 1.36
135 99.99
136 10.29

$$$$

     RDKit          2D

 17 17  0  0  0  0  0  0  0  0999 V2000
    5.5216    5.0079    0.0000 C   0  0  0  0  0  0  0  0  0  0  0  0
   -3.5716    2.7579    0.0000 C   0  0  0  0  0  0  0  0  0  0  0  0
    4.2226    4.2579    0.0000 C   0  0  0  0  0  0  0  0  0  0  0  0
    2.9236    5.0079    0.0000 C   0  0  0  0  0  0  0  0  0  0  0  0
    1.6245    4.2579    0.0000 C   0  0  0  0  0  0  0  0  0  0  0  0
  -10.0668    6.5079    0.0000 C   0  0  0  0  0  0  0  0  0  0  0  0
  -10.0673    5.0071    0.0000 C   0  0  0  0  0  0  0  0  0  0  0  0
   -8.7673    7.2587    0.0000 C   0  0  0  0  0  0  0  0  0  0  0  0
    0.3255    5.0079    0.0000 C   0  0  0  0  0  0  0  0  0  0  0  0
   -8.7683    4.2571    0.0000 C   0  0  0  0  0  0  0  0  0  0  0  0
   -7.4683    6.5087    0.0000 C   0  0  0  0  0  0  0  0  0  0  0  0
   -0.9736    4.2579    0.0000 C   0  0  0  0  0  0  0  0  0  0  0  0
   -6.1697    4.2579    0.0000 C   0  0  0  0  0  0  0  0  0  0  0  0
   -3.5716    4.2579    0.0000 C   0  0  0  0  0  0  0  0  0  0  0  0
   -7.4687    5.0079    0.0000 C   0  0  0  0  0  0  0  0  0  0  0  0
   -2.2726    5.0079    0.0000 O   0  0  0  0  0  0  0  0  0  0  0  0
   -4.8707    5.0079    0.0000 O   0  0  0  0  0  0  0  0  0  0  0  0
  3  1  1  0
  4  3  1  0
  5  4  1  0
  7  6  2  0
  8  6  1  0
  9  5  1  0
 10  7  1  0
 11  8  2  0
 12  9  1  0
 14  2  1  0
 15 10  2  0
 15 11  1  0
 15 13  1  0
 16 12  1  0
 16 14  1  0
 17 13  1  0
 17 14  1  0
M  END
>  <NAME>  (2543) 
ACETALDEHYDE BENZYL HEXYL ACETAL

>  <SYNONYMS>  (2543) 


>  <SPECTRUM TYPE>  (2543) 
MS1

>  <INSTRUMENT TYPE>  (2543) 
EI-B

>  <INSTRUMENT>  (2543) 
HITACHI M-80B

>  <ION MODE>  (2543) 
P

>  <INCHIKEY>  (2543) 
NDKDGYQWVJSTOP-UHFFFAOYSA-N

>  <FORMULA>  (2543) 
C15H24O2

>  <EXACT MASS>  (2543) 
236.177630008

>  <MW>  (2543) 
236

>  <ID>  (2543) 
JP008668

>  <CONTRIBUTOR>  (2543) 
University of Tokyo Team, {Faculty of Engineering, University of Tokyo

>  <COMMENT>  (2543) 
SMILES=CCCCCCOC(C)OCc(c1)cccc1
InChI=InChI=1S/C15H24O2/c1-3-4-5-9-12-16-14(2)17-13-15-10-7-6-8-11-15/h6-8,10-11,14H,3-5,9,12-13H2,1-2H3
computed SMILES=O(CC=1C=CC=CC1)C(OCCCCCC)C
accession=JP008668
date=2016.01.19 (Created 2008.10.21, modified 2011.05.06)
author=SODA AROMATIC CO., LTD.
license=CC BY-NC-SA
exact mass=236.17763
ionization energy=70 eV
ion type=[M]+*
computed spectral entropy=3.006852356642274
computed normalized entropy=0.7945828955534902
SPLASH=splash10-0006-9100000000-ca401fd08b77f936762c
submitter=submitter = University of Tokyo Team (Faculty of Engineering, University of Tokyo)
MoNA Rating=3.75

>  <NUM PEAKS>  (2543) 
44

>  <MASS SPECTRAL PEAKS>  (2543) 
15 1.06
26 1.24
27 11.77
29 10.76
31 3.92
38 1
39 7.43
41 20.37
42 6.86
43 59.87
44 3.84
45 5.11
50 2.24
51 5.59
52 1.51
53 1.89
55 10.93
56 13.83
57 5.98
63 1.8
65 6.55
69 4.56
77 11.63
78 2.05
79 12.92
80 1.04
82 2.58
83 1.53
84 2.34
85 18.42
89 2.05
90 2.46
91 99.99
92 17.67
93 1
105 4.03
106 2.4
107 6.4
108 10.23
113 2.99
129 1.68
133 2.22
134 18.13
135 5.14

$$$$

     RDKit          2D

 16 16  0  0  0  0  0  0  0  0999 V2000
    4.8721    3.8829    0.0000 C   0  0  0  0  0  0  0  0  0  0  0  0
    3.5731    1.6329    0.0000 C   0  0  0  0  0  0  0  0  0  0  0  0
   -1.6231    1.6329    0.0000 C   0  0  0  0  0  0  0  0  0  0  0  0
   -8.1183    5.3829    0.0000 C   0  0  0  0  0  0  0  0  0  0  0  0
   -8.1187    3.8821    0.0000 C   0  0  0  0  0  0  0  0  0  0  0  0
   -6.8187    6.1337    0.0000 C   0  0  0  0  0  0  0  0  0  0  0  0
   -6.8197    3.1321    0.0000 C   0  0  0  0  0  0  0  0  0  0  0  0
   -5.5197    5.3837    0.0000 C   0  0  0  0  0  0  0  0  0  0  0  0
    2.2740    3.8829    0.0000 C   0  0  0  0  0  0  0  0  0  0  0  0
    0.9750    3.1329    0.0000 C   0  0  0  0  0  0  0  0  0  0  0  0
   -4.2212    3.1329    0.0000 C   0  0  0  0  0  0  0  0  0  0  0  0
    3.5731    3.1329    0.0000 C   0  0  0  0  0  0  0  0  0  0  0  0
   -1.6231    3.1329    0.0000 C   0  0  0  0  0  0  0  0  0  0  0  0
   -5.5202    3.8829    0.0000 C   0  0  0  0  0  0  0  0  0  0  0  0
   -0.3240    3.8829    0.0000 O   0  0  0  0  0  0  0  0  0  0  0  0
   -2.9221    3.8829    0.0000 O   0  0  0  0  0  0  0  0  0  0  0  0
  5  4  2  0
  6  4  1  0
  7  5  1  0
  8  6  2  0
 10  9  1  0
 12  1  1  0
 12  2  1  0
 12  9  1  0
 13  3  1  0
 14  7  2  0
 14  8  1  0
 14 11  1  0
 15 10  1  0
 15 13  1  0
 16 11  1  0
 16 13  1  0
M  END
>  <NAME>  (2544) 
ACETALDEHYDE BENZYL ISOAMYL ACETAL

>  <SYNONYMS>  (2544) 


>  <SPECTRUM TYPE>  (2544) 
MS1

>  <INSTRUMENT TYPE>  (2544) 
EI-B

>  <INSTRUMENT>  (2544) 
HITACHI M-80B

>  <ION MODE>  (2544) 
P

>  <INCHIKEY>  (2544) 
UROVAOQFAZWTNI-UHFFFAOYSA-N

>  <FORMULA>  (2544) 
C14H22O2

>  <EXACT MASS>  (2544) 
222.161979944

>  <MW>  (2544) 
222

>  <ID>  (2544) 
JP008667

>  <CONTRIBUTOR>  (2544) 
University of Tokyo Team, {Faculty of Engineering, University of Tokyo

>  <COMMENT>  (2544) 
SMILES=CC(C)CCOC(C)OCc(c1)cccc1
InChI=InChI=1S/C14H22O2/c1-12(2)9-10-15-13(3)16-11-14-7-5-4-6-8-14/h4-8,12-13H,9-11H2,1-3H3
computed SMILES=O(CC=1C=CC=CC1)C(OCCC(C)C)C
accession=JP008667
date=2016.01.19 (Created 2008.10.21, modified 2011.05.06)
author=SODA AROMATIC CO., LTD.
license=CC BY-NC-SA
exact mass=222.16198
ionization energy=70 eV
ion type=[M]+*
computed spectral entropy=2.8188204399545014
computed normalized entropy=0.774915099238922
SPLASH=splash10-0006-9100000000-7ccd91e6ad7a48d02362
submitter=submitter = University of Tokyo Team (Faculty of Engineering, University of Tokyo)
MoNA Rating=3.75

>  <NUM PEAKS>  (2544) 
38

>  <MASS SPECTRAL PEAKS>  (2544) 
15 1.58
27 7.77
29 6.24
31 2.51
39 7.36
41 13.33
42 4.48
43 44.07
44 3.58
45 3.2
50 2.25
51 4.94
52 1.18
53 1.33
55 8.43
57 1.86
63 1.84
65 7.35
69 1.29
70 7.04
71 29.19
72 1.53
77 7.98
78 2.15
79 8.05
89 2.13
90 2.41
91 99.99
92 18.99
93 1.04
105 4
106 2.34
107 5.63
108 6.85
115 2.38
133 1.99
134 18.4
135 5.02

$$$$

     RDKit          2D

 20 20  0  0  0  0  0  0  0  0999 V2000
   -2.9381    6.9356    0.0000 C   0  0  0  0  0  0  0  0  0  0  0  0
    8.7642    0.1912    0.0000 C   0  0  0  0  0  0  0  0  0  0  0  0
    7.4648    2.4410    0.0000 C   0  0  0  0  0  0  0  0  0  0  0  0
   -2.9356    5.4356    0.0000 C   0  0  0  0  0  0  0  0  0  0  0  0
    7.4651    0.9410    0.0000 C   0  0  0  0  0  0  0  0  0  0  0  0
    6.1657    3.1908    0.0000 C   0  0  0  0  0  0  0  0  0  0  0  0
   -1.6353    4.6878    0.0000 C   0  0  0  0  0  0  0  0  0  0  0  0
   -1.6328    3.1878    0.0000 C   0  0  0  0  0  0  0  0  0  0  0  0
   -1.6200   -1.3100    0.0000 C   0  0  0  0  0  0  0  0  0  0  0  0
   -0.3300   -2.0600    0.0000 C   0  0  0  0  0  0  0  0  0  0  0  0
   -0.3325    2.4400    0.0000 C   0  0  0  0  0  0  0  0  0  0  0  0
   -1.6200    0.1900    0.0000 C   0  0  0  0  0  0  0  0  0  0  0  0
    0.9700   -1.3100    0.0000 C   0  0  0  0  0  0  0  0  0  0  0  0
    2.2689    0.9402    0.0000 C   0  0  0  0  0  0  0  0  0  0  0  0
    3.5681    0.1904    0.0000 C   0  0  0  0  0  0  0  0  0  0  0  0
   -0.3300    0.9400    0.0000 C   0  0  0  0  0  0  0  0  0  0  0  0
    0.9700    0.1900    0.0000 C   0  0  0  0  0  0  0  0  0  0  0  0
    4.8670    0.9406    0.0000 C   0  0  0  0  0  0  0  0  0  0  0  0
    6.1662    0.1908    0.0000 O   0  0  0  0  0  0  0  0  0  0  0  0
    4.8668    2.4406    0.0000 O   0  0  0  0  0  0  0  0  0  0  0  0
  4  1  1  0
  5  2  1  0
  6  3  1  0
  7  4  1  0
  8  7  1  0
 10  9  2  0
 11  8  1  0
 12  9  1  0
 13 10  1  0
 14 15  2  0
 16 11  1  0
 16 12  2  0
 17 13  2  0
 17 14  1  0
 17 16  1  0
 18 15  1  0
 19  5  1  0
 19 18  1  0
 20  6  1  0
 20 18  1  0
M  END
>  <NAME>  (2545) 
2-AMYLCINNAMIC ALDEHYDE DIETHYL ACETAL

>  <SYNONYMS>  (2545) 


>  <SPECTRUM TYPE>  (2545) 
MS1

>  <INSTRUMENT TYPE>  (2545) 
EI-B

>  <INSTRUMENT>  (2545) 
HITACHI M-80B

>  <ION MODE>  (2545) 
P

>  <INCHIKEY>  (2545) 
PQARPKGSMQTPKR-CCEZHUSRSA-N

>  <FORMULA>  (2545) 
C18H28O2

>  <EXACT MASS>  (2545) 
276.208930136

>  <MW>  (2545) 
276

>  <ID>  (2545) 
JP008666

>  <CONTRIBUTOR>  (2545) 
University of Tokyo Team, {Faculty of Engineering, University of Tokyo

>  <COMMENT>  (2545) 
SMILES=CCCCCc(c1)c(ccc1)C([H])=C([H])C(OCC)OCC
InChI=InChI=1S/C18H28O2/c1-4-7-8-11-16-12-9-10-13-17(16)14-15-18(19-5-2)20-6-3/h9-10,12-15,18H,4-8,11H2,1-3H3/b15-14+
computed SMILES=O(CC)C(OCC)C=CC=1C=CC=CC1CCCCC
accession=JP008666
date=2016.01.19 (Created 2008.10.21, modified 2011.05.06)
author=SODA AROMATIC CO., LTD.
license=CC BY-NC-SA
exact mass=276.20893
ionization energy=70 eV
ion type=[M]+*
computed spectral entropy=3.584014295887251
computed normalized entropy=0.792609878771955
SPLASH=splash10-0ke9-9850000000-05f0fee1ad3bd033f490
submitter=submitter = University of Tokyo Team (Faculty of Engineering, University of Tokyo)
MoNA Rating=3.75

>  <NUM PEAKS>  (2545) 
92

>  <MASS SPECTRAL PEAKS>  (2545) 
15 1.01
19 1.61
27 21.5
29 68.43
30 1.25
31 4.22
39 6.32
41 25.13
42 1.3
43 15.32
45 2.95
47 72.15
51 3.26
53 3.13
55 11.6
57 4.1
59 3.85
63 1.99
65 4.47
67 2.32
69 5.41
71 3.06
75 57.79
76 1.2
77 8.29
78 4.43
79 5.31
81 3.48
83 1.61
85 1.38
89 2.42
91 74.5
92 4.77
93 1
95 2.24
99 2.56
102 2.97
103 86.01
104 7.36
105 15.6
106 1.25
107 4.71
113 1.05
114 1.05
115 37.72
116 15.45
117 42.69
118 4.83
119 6.41
120 1.21
127 4.65
128 11.43
129 44.08
130 7.79
131 25.17
132 2.54
133 3.32
135 7.57
136 1.03
141 3.92
142 1.56
143 4.71
144 1.39
145 10.96
146 1.5
147 4.59
149 5.24
155 1.57
157 2.11
158 1.06
159 2.46
161 3.18
173 6.85
174 2.27
175 3.8
177 5.78
178 1.21
185 2.06
201 3.89
202 1.7
203 4.91
204 1.31
205 93.07
206 14.37
207 1.25
230 1.26
231 99.99
232 19.15
233 1.71
247 1.27
276 9.75
277 2.44

$$$$

     RDKit          2D

 13 13  0  0  0  0  0  0  0  0999 V2000
   -1.2988    4.8196    0.0000 C   0  0  0  0  0  0  0  0  0  0  0  0
   -5.1959    2.5696    0.0000 C   0  0  0  0  0  0  0  0  0  0  0  0
   -3.8969    0.3196    0.0000 C   0  0  0  0  0  0  0  0  0  0  0  0
    2.5983    1.0696    0.0000 C   0  0  0  0  0  0  0  0  0  0  0  0
    2.5988    2.5704    0.0000 C   0  0  0  0  0  0  0  0  0  0  0  0
    1.2988    0.3188    0.0000 C   0  0  0  0  0  0  0  0  0  0  0  0
    1.2998    3.3204    0.0000 C   0  0  0  0  0  0  0  0  0  0  0  0
   -0.0002    1.0688    0.0000 C   0  0  0  0  0  0  0  0  0  0  0  0
   -1.2988    3.3196    0.0000 C   0  0  0  0  0  0  0  0  0  0  0  0
    0.0002    2.5696    0.0000 C   0  0  0  0  0  0  0  0  0  0  0  0
   -2.5978    2.5696    0.0000 C   0  0  0  0  0  0  0  0  0  0  0  0
   -3.8969    3.3196    0.0000 O   0  0  0  0  0  0  0  0  0  0  0  0
   -2.5978    1.0696    0.0000 O   0  0  0  0  0  0  0  0  0  0  0  0
  5  4  2  0
  6  4  1  0
  7  5  1  0
  8  6  2  0
  9  1  1  0
 10  7  2  0
 10  8  1  0
 10  9  1  0
 11  9  1  0
 12  2  1  0
 12 11  1  0
 13  3  1  0
 13 11  1  0
M  END
>  <NAME>  (2546) 
2-PHENYLPROPANAL DIMETHYL ACETAL

>  <SYNONYMS>  (2546) 


>  <SPECTRUM TYPE>  (2546) 
MS1

>  <INSTRUMENT TYPE>  (2546) 
EI-B

>  <INSTRUMENT>  (2546) 
HITACHI M-80B

>  <ION MODE>  (2546) 
P

>  <INCHIKEY>  (2546) 
UFOUDYPOSJJEDJ-UHFFFAOYSA-N

>  <FORMULA>  (2546) 
C11H16O2

>  <EXACT MASS>  (2546) 
180.115029752

>  <MW>  (2546) 
180

>  <ID>  (2546) 
JP008665

>  <CONTRIBUTOR>  (2546) 
University of Tokyo Team, {Faculty of Engineering, University of Tokyo

>  <COMMENT>  (2546) 
SMILES=COC(OC)C(C)c(c1)cccc1
InChI=InChI=1S/C11H16O2/c1-9(11(12-2)13-3)10-7-5-4-6-8-10/h4-9,11H,1-3H3
computed SMILES=O(C)C(OC)C(C=1C=CC=CC1)C
accession=JP008665
date=2016.01.19 (Created 2008.10.21, modified 2011.05.06)
author=SODA AROMATIC CO., LTD.
license=CC BY-NC-SA
exact mass=180.11503
ionization energy=70 eV
ion type=[M]+*
computed spectral entropy=1.7051564269662391
computed normalized entropy=0.5791108048192469
SPLASH=splash10-004i-9100000000-b9de4d0d90a10aed6bd7
submitter=submitter = University of Tokyo Team (Faculty of Engineering, University of Tokyo)
MoNA Rating=3.75

>  <NUM PEAKS>  (2546) 
19

>  <MASS SPECTRAL PEAKS>  (2546) 
15 2.41
27 1.35
29 1.71
31 4.36
39 1.59
43 1.68
47 11.23
51 3
65 1.23
75 99.99
76 3.78
78 1.56
79 2.7
91 5.19
103 2.33
105 7.21
115 1.41
117 3.92
149 7.05

$$$$

     RDKit          2D

 12 12  0  0  0  0  0  0  0  0999 V2000
   -5.1959    2.5696    0.0000 C   0  0  0  0  0  0  0  0  0  0  0  0
   -3.8969    0.3196    0.0000 C   0  0  0  0  0  0  0  0  0  0  0  0
    2.5983    1.0696    0.0000 C   0  0  0  0  0  0  0  0  0  0  0  0
    2.5988    2.5704    0.0000 C   0  0  0  0  0  0  0  0  0  0  0  0
    1.2988    0.3188    0.0000 C   0  0  0  0  0  0  0  0  0  0  0  0
    1.2998    3.3204    0.0000 C   0  0  0  0  0  0  0  0  0  0  0  0
   -0.0002    1.0688    0.0000 C   0  0  0  0  0  0  0  0  0  0  0  0
   -1.2988    3.3196    0.0000 C   0  0  0  0  0  0  0  0  0  0  0  0
    0.0002    2.5696    0.0000 C   0  0  0  0  0  0  0  0  0  0  0  0
   -2.5978    2.5696    0.0000 C   0  0  0  0  0  0  0  0  0  0  0  0
   -3.8969    3.3196    0.0000 O   0  0  0  0  0  0  0  0  0  0  0  0
   -2.5978    1.0696    0.0000 O   0  0  0  0  0  0  0  0  0  0  0  0
  4  3  2  0
  5  3  1  0
  6  4  1  0
  7  5  2  0
  9  6  2  0
  9  7  1  0
  9  8  1  0
 10  8  1  0
 11  1  1  0
 11 10  1  0
 12  2  1  0
 12 10  1  0
M  END
>  <NAME>  (2547) 
PHENYLACETALDEHYDE DIMETHYL ACETAL

>  <SYNONYMS>  (2547) 


>  <SPECTRUM TYPE>  (2547) 
MS1

>  <INSTRUMENT TYPE>  (2547) 
EI-B

>  <INSTRUMENT>  (2547) 
HITACHI M-80B

>  <ION MODE>  (2547) 
P

>  <INCHIKEY>  (2547) 
WNJSKZBEWNVKGU-UHFFFAOYSA-N

>  <FORMULA>  (2547) 
C10H14O2

>  <EXACT MASS>  (2547) 
166.099379688

>  <MW>  (2547) 
166

>  <ID>  (2547) 
JP008664

>  <CONTRIBUTOR>  (2547) 
University of Tokyo Team, {Faculty of Engineering, University of Tokyo

>  <COMMENT>  (2547) 
SMILES=COC(OC)Cc(c1)cccc1
InChI=InChI=1S/C10H14O2/c1-11-10(12-2)8-9-6-4-3-5-7-9/h3-7,10H,8H2,1-2H3
computed SMILES=O(C)C(OC)CC=1C=CC=CC1
accession=JP008664
date=2016.01.19 (Created 2008.10.21, modified 2011.05.06)
author=SODA AROMATIC CO., LTD.
license=CC BY-NC-SA
exact mass=166.09938
ionization energy=70 eV
ion type=[M]+*
computed spectral entropy=1.9888976427235237
computed normalized entropy=0.653270811237885
SPLASH=splash10-004i-9100000000-d5f5d18ae8fc6a82df92
submitter=submitter = University of Tokyo Team (Faculty of Engineering, University of Tokyo)
MoNA Rating=3.75

>  <NUM PEAKS>  (2547) 
21

>  <MASS SPECTRAL PEAKS>  (2547) 
15 2.15
29 1.56
31 5.2
39 3.91
47 12.78
51 3.19
63 1.89
65 6.98
75 99.99
76 3.97
77 3.86
89 1.47
91 20.13
92 1.98
103 8.91
104 1.03
105 3.09
117 1.04
134 1.36
135 14.9
136 1.29

$$$$

     RDKit          2D

 11 11  0  0  0  0  0  0  0  0999 V2000
   -2.2733   -1.3675    0.0000 C   0  0  0  0  0  0  0  0  0  0  0  0
   -3.5724    0.8825    0.0000 C   0  0  0  0  0  0  0  0  0  0  0  0
    2.9228    3.1325    0.0000 C   0  0  0  0  0  0  0  0  0  0  0  0
    1.6233    3.8833    0.0000 C   0  0  0  0  0  0  0  0  0  0  0  0
    2.9233    1.6317    0.0000 C   0  0  0  0  0  0  0  0  0  0  0  0
    0.3243    3.1333    0.0000 C   0  0  0  0  0  0  0  0  0  0  0  0
    1.6243    0.8817    0.0000 C   0  0  0  0  0  0  0  0  0  0  0  0
    0.3248    1.6325    0.0000 C   0  0  0  0  0  0  0  0  0  0  0  0
   -0.9743    0.8825    0.0000 C   0  0  0  0  0  0  0  0  0  0  0  0
   -0.9743   -0.6175    0.0000 O   0  0  0  0  0  0  0  0  0  0  0  0
   -2.2733    1.6325    0.0000 O   0  0  0  0  0  0  0  0  0  0  0  0
  4  3  2  0
  5  3  1  0
  6  4  1  0
  7  5  2  0
  8  6  2  0
  8  7  1  0
  9  8  1  0
 10  1  1  0
 10  9  1  0
 11  2  1  0
 11  9  1  0
M  END
>  <NAME>  (2548) 
BENZALDEHYDE DIMETHYL ACETAL

>  <SYNONYMS>  (2548) 


>  <SPECTRUM TYPE>  (2548) 
MS1

>  <INSTRUMENT TYPE>  (2548) 
EI-B

>  <INSTRUMENT>  (2548) 
HITACHI M-80B

>  <ION MODE>  (2548) 
P

>  <INCHIKEY>  (2548) 
HEVMDQBCAHEHDY-UHFFFAOYSA-N

>  <FORMULA>  (2548) 
C9H12O2

>  <EXACT MASS>  (2548) 
152.083729624

>  <MW>  (2548) 
152

>  <ID>  (2548) 
JP008663

>  <CONTRIBUTOR>  (2548) 
University of Tokyo Team, {Faculty of Engineering, University of Tokyo

>  <COMMENT>  (2548) 
SMILES=COC(OC)c(c1)cccc1
InChI=InChI=1S/C9H12O2/c1-10-9(11-2)8-6-4-3-5-7-8/h3-7,9H,1-2H3
computed SMILES=O(C)C(OC)C=1C=CC=CC1
exact mass=152.08373
ionization energy=70 eV
ion type=[M]+*
computed spectral entropy=2.1497642166123123
computed normalized entropy=0.6764404668302764
accession=JP008663
date=2016.01.19 (Created 2008.10.21, modified 2011.05.06)
author=SODA AROMATIC CO., LTD.
license=CC BY-NC-SA
SPLASH=splash10-00di-7900000000-8b224c0b098080453d7d
submitter=submitter = University of Tokyo Team (Faculty of Engineering, University of Tokyo)
MoNA Rating=3.75

>  <NUM PEAKS>  (2548) 
24

>  <MASS SPECTRAL PEAKS>  (2548) 
15 2.86
29 3.84
31 1.27
39 2.71
47 2.73
50 3.81
51 10.25
52 2.45
59 2.64
63 1.9
65 1.45
74 1.22
75 11.16
76 1.09
77 31.13
78 4.95
89 2.02
91 13.9
92 1.13
105 12.14
106 1.28
121 99.99
122 9.31
152 1.46

$$$$

     RDKit          2D

 13 13  0  0  0  0  0  0  0  0999 V2000
   -5.5207    3.1321    0.0000 C   0  0  0  0  0  0  0  0  0  0  0  0
   -4.2216    5.3821    0.0000 C   0  0  0  0  0  0  0  0  0  0  0  0
    3.5726    0.8821    0.0000 C   0  0  0  0  0  0  0  0  0  0  0  0
    3.5731    2.3829    0.0000 C   0  0  0  0  0  0  0  0  0  0  0  0
    2.2731    0.1313    0.0000 C   0  0  0  0  0  0  0  0  0  0  0  0
    2.2740    3.1329    0.0000 C   0  0  0  0  0  0  0  0  0  0  0  0
    0.9740    0.8813    0.0000 C   0  0  0  0  0  0  0  0  0  0  0  0
   -0.3245    3.1321    0.0000 C   0  0  0  0  0  0  0  0  0  0  0  0
   -1.6236    2.3821    0.0000 C   0  0  0  0  0  0  0  0  0  0  0  0
    0.9745    2.3821    0.0000 C   0  0  0  0  0  0  0  0  0  0  0  0
   -2.9226    3.1321    0.0000 C   0  0  0  0  0  0  0  0  0  0  0  0
   -4.2216    2.3821    0.0000 O   0  0  0  0  0  0  0  0  0  0  0  0
   -2.9226    4.6321    0.0000 O   0  0  0  0  0  0  0  0  0  0  0  0
  4  3  2  0
  5  3  1  0
  6  4  1  0
  7  5  2  0
  9  8  1  0
 10  6  2  0
 10  7  1  0
 10  8  1  0
 11  9  1  0
 12  1  1  0
 12 11  1  0
 13  2  1  0
 13 11  1  0
M  END
>  <NAME>  (2549) 
3-PHENYLPROPANAL DIMETHYL ACETAL

>  <SYNONYMS>  (2549) 


>  <SPECTRUM TYPE>  (2549) 
MS1

>  <INSTRUMENT TYPE>  (2549) 
EI-B

>  <INSTRUMENT>  (2549) 
HITACHI M-80B

>  <ION MODE>  (2549) 
P

>  <INCHIKEY>  (2549) 
PQAOFUQAZBGCQK-UHFFFAOYSA-N

>  <FORMULA>  (2549) 
C11H16O2

>  <EXACT MASS>  (2549) 
180.115029752

>  <MW>  (2549) 
180

>  <ID>  (2549) 
JP008662

>  <CONTRIBUTOR>  (2549) 
University of Tokyo Team, {Faculty of Engineering, University of Tokyo

>  <COMMENT>  (2549) 
SMILES=COC(OC)CCc(c1)cccc1
InChI=InChI=1S/C11H16O2/c1-12-11(13-2)9-8-10-6-4-3-5-7-10/h3-7,11H,8-9H2,1-2H3
computed SMILES=O(C)C(OC)CCC=1C=CC=CC1
accession=JP008662
date=2016.01.19 (Created 2008.10.21, modified 2011.05.06)
author=SODA AROMATIC CO., LTD.
license=CC BY-NC-SA
exact mass=180.11503
ionization energy=70 eV
ion type=[M]+*
computed spectral entropy=2.715999948162783
computed normalized entropy=0.7466489668981687
SPLASH=splash10-004l-9300000000-f71185a80e44685294ef
submitter=submitter = University of Tokyo Team (Faculty of Engineering, University of Tokyo)
MoNA Rating=3.75

>  <NUM PEAKS>  (2549) 
38

>  <MASS SPECTRAL PEAKS>  (2549) 
15 2.82
27 2.21
29 3.36
31 5.01
39 5.56
41 1.73
43 3.65
45 3.28
47 12.72
50 1.43
51 5.65
52 1.26
57 1.04
58 6.4
63 2.32
65 9.82
75 99.99
76 4.03
77 7.5
78 3.93
79 2.16
89 3.27
90 1.1
91 66.03
92 6.98
102 3.02
103 3.25
104 1.86
105 5.7
115 3.73
116 4.8
117 17.17
118 3.04
121 1.81
133 1.77
147 4.38
148 29.67
149 8.57

$$$$

     RDKit          2D

 16 15  0  0  0  0  0  0  0  0999 V2000
    3.5724    5.0625    0.0000 C   0  0  0  0  0  0  0  0  0  0  0  0
    2.2733    7.3125    0.0000 C   0  0  0  0  0  0  0  0  0  0  0  0
   -9.4180    5.0625    0.0000 C   0  0  0  0  0  0  0  0  0  0  0  0
   -8.1190    7.3125    0.0000 C   0  0  0  0  0  0  0  0  0  0  0  0
   -2.9228    7.3125    0.0000 C   0  0  0  0  0  0  0  0  0  0  0  0
    2.2733    5.8125    0.0000 C   0  0  0  0  0  0  0  0  0  0  0  0
    0.9743    8.0625    0.0000 C   0  0  0  0  0  0  0  0  0  0  0  0
   -5.5209    5.8125    0.0000 C   0  0  0  0  0  0  0  0  0  0  0  0
   -6.8200    5.0625    0.0000 C   0  0  0  0  0  0  0  0  0  0  0  0
   -4.2219    5.0625    0.0000 C   0  0  0  0  0  0  0  0  0  0  0  0
   -1.6238    5.0625    0.0000 C   0  0  0  0  0  0  0  0  0  0  0  0
   -8.1190    5.8125    0.0000 C   0  0  0  0  0  0  0  0  0  0  0  0
   -2.9228    5.8125    0.0000 C   0  0  0  0  0  0  0  0  0  0  0  0
   -0.3248    5.8125    0.0000 C   0  0  0  0  0  0  0  0  0  0  0  0
    0.9743    5.0625    0.0000 O   0  0  0  0  0  0  0  0  0  0  0  0
   -0.3248    7.3125    0.0000 O   0  0  0  0  0  0  0  0  0  0  0  0
  6  1  1  0
  7  2  1  0
  9  8  1  0
 10  8  1  0
 12  3  1  0
 12  4  1  0
 12  9  2  0
 13  5  1  0
 13 10  1  0
 13 11  1  0
 14 11  1  0
 15  6  1  0
 15 14  1  0
 16  7  1  0
 16 14  1  0
M  END
>  <NAME>  (2550) 
CITRONELLAL DIETHYL ACETAL

>  <SYNONYMS>  (2550) 


>  <SPECTRUM TYPE>  (2550) 
MS1

>  <INSTRUMENT TYPE>  (2550) 
EI-B

>  <INSTRUMENT>  (2550) 
HITACHI M-80B

>  <ION MODE>  (2550) 
P

>  <INCHIKEY>  (2550) 
HYNXWFKVWMABRM-UHFFFAOYSA-N

>  <FORMULA>  (2550) 
C14H28O2

>  <EXACT MASS>  (2550) 
228.208930136

>  <MW>  (2550) 
228

>  <ID>  (2550) 
JP008661

>  <CONTRIBUTOR>  (2550) 
University of Tokyo Team, {Faculty of Engineering, University of Tokyo

>  <COMMENT>  (2550) 
SMILES=CCOC(OCC)CC(C)CCC=C(C)C
InChI=InChI=1S/C14H28O2/c1-6-15-14(16-7-2)11-13(5)10-8-9-12(3)4/h9,13-14H,6-8,10-11H2,1-5H3
computed SMILES=O(CC)C(OCC)CC(C)CCC=C(C)C
accession=JP008661
date=2016.01.19 (Created 2008.10.21, modified 2011.05.06)
author=SODA AROMATIC CO., LTD.
license=CC BY-NC-SA
exact mass=228.20893
ionization energy=70 eV
ion type=[M]+*
computed spectral entropy=3.6602127340770947
computed normalized entropy=0.8329173020890092
SPLASH=splash10-0fdk-9400000000-1a6a8d0e34318736d26d
submitter=submitter = University of Tokyo Team (Faculty of Engineering, University of Tokyo)
MoNA Rating=3.75

>  <NUM PEAKS>  (2550) 
81

>  <MASS SPECTRAL PEAKS>  (2550) 
19 1.76
26 1.1
27 19.32
29 50.13
30 1.31
31 6.86
39 10.61
40 2.9
41 81.12
42 6.03
43 24.1
44 10.95
45 8.98
47 96.76
48 1.68
51 1.57
53 11.23
54 2.62
55 33.22
56 8.27
57 21.47
58 1.36
59 8.26
60 1.32
61 1.13
65 1.61
66 1.65
67 27.15
68 7.08
69 61.49
70 5.78
71 26.14
72 5.35
73 76.95
76 2.39
77 2.88
79 3.65
80 9.08
81 72.99
82 26.57
83 22.73
84 3.71
85 5.28
87 4.15
91 1.48
92 1.04
93 7.86
94 2.87
95 48.56
96 5.12
97 10.16
98 2.44
99 33.34
100 29.57
101 3.87
103 99.99
104 4.95
105 1.06
107 3.66
108 1.26
109 10.57
110 7.2
111 6.53
112 10.81
113 2.73
115 2.59
121 93.71
122 8.73
123 8.66
125 5.62
126 2.06
136 13.42
137 14.47
138 10.61
139 24.43
140 2.34
143 10.21
144 1.22
167 5.35
182 9.01
183 3.93

$$$$

     RDKit          2D

 14 13  0  0  0  0  0  0  0  0999 V2000
   -7.4695    6.1875    0.0000 C   0  0  0  0  0  0  0  0  0  0  0  0
   -6.1704    3.9375    0.0000 C   0  0  0  0  0  0  0  0  0  0  0  0
   -0.9743    3.9375    0.0000 C   0  0  0  0  0  0  0  0  0  0  0  0
    4.2219    5.4375    0.0000 C   0  0  0  0  0  0  0  0  0  0  0  0
    2.9228    3.1875    0.0000 C   0  0  0  0  0  0  0  0  0  0  0  0
   -3.5724    5.4375    0.0000 C   0  0  0  0  0  0  0  0  0  0  0  0
   -4.8714    6.1875    0.0000 C   0  0  0  0  0  0  0  0  0  0  0  0
   -2.2733    6.1875    0.0000 C   0  0  0  0  0  0  0  0  0  0  0  0
    0.3248    6.1875    0.0000 C   0  0  0  0  0  0  0  0  0  0  0  0
   -6.1704    5.4375    0.0000 C   0  0  0  0  0  0  0  0  0  0  0  0
   -0.9743    5.4375    0.0000 C   0  0  0  0  0  0  0  0  0  0  0  0
    1.6238    5.4375    0.0000 C   0  0  0  0  0  0  0  0  0  0  0  0
    2.9228    6.1875    0.0000 O   0  0  0  0  0  0  0  0  0  0  0  0
    1.6238    3.9375    0.0000 O   0  0  0  0  0  0  0  0  0  0  0  0
  7  6  1  0
  8  6  1  0
 10  1  1  0
 10  2  1  0
 10  7  2  0
 11  3  1  0
 11  8  1  0
 11  9  1  0
 12  9  1  0
 13  4  1  0
 13 12  1  0
 14  5  1  0
 14 12  1  0
M  END
>  <NAME>  (2551) 
CITRONELLAL DIMETHYL ACETAL

>  <SYNONYMS>  (2551) 
3,7-DIMETHYL-6-OCTENAL DIMETHYL ACETAL

>  <SPECTRUM TYPE>  (2551) 
MS1

>  <INSTRUMENT TYPE>  (2551) 
EI-B

>  <INSTRUMENT>  (2551) 
HITACHI M-80B

>  <ION MODE>  (2551) 
P

>  <INCHIKEY>  (2551) 
SEXUFKWNUNQRSS-UHFFFAOYSA-N

>  <FORMULA>  (2551) 
C12H24O2

>  <EXACT MASS>  (2551) 
200.177630008

>  <MW>  (2551) 
200

>  <ID>  (2551) 
JP008660

>  <CONTRIBUTOR>  (2551) 
University of Tokyo Team, {Faculty of Engineering, University of Tokyo

>  <COMMENT>  (2551) 
SMILES=COC(OC)CC(C)CCC=C(C)C
InChI=InChI=1S/C12H24O2/c1-10(2)7-6-8-11(3)9-12(13-4)14-5/h7,11-12H,6,8-9H2,1-5H3
computed SMILES=O(C)C(OC)CC(C)CCC=C(C)C
accession=JP008660
date=2016.01.19 (Created 2008.10.21, modified 2011.05.06)
author=SODA AROMATIC CO., LTD.
license=CC BY-NC-SA
exact mass=200.17763
ionization energy=70 eV
ion type=[M]+*
computed spectral entropy=3.458571722808988
computed normalized entropy=0.8316107121758877
SPLASH=splash10-00bl-9200000000-4d27dcac94e54119d8e9
submitter=submitter = University of Tokyo Team (Faculty of Engineering, University of Tokyo)
MoNA Rating=3.75

>  <NUM PEAKS>  (2551) 
64

>  <MASS SPECTRAL PEAKS>  (2551) 
15 4.46
27 8.6
29 9.75
31 8.8
33 1.03
39 14.97
41 56.91
42 3.67
43 8.53
45 9.15
47 14.37
51 1.18
53 10.6
54 1.92
55 25.23
56 2.59
57 1.87
58 8.4
59 3.93
65 1.71
67 16.47
68 4.77
69 33.43
70 2.23
71 6.59
73 3.12
75 99.99
76 2.61
77 2.31
79 3.25
80 2.32
81 27.45
82 4.8
83 4.47
84 1.02
85 50.66
86 19.45
87 1.54
91 1.37
93 6.51
94 1.61
95 31.05
96 2.07
97 4.11
98 16.27
99 4.78
101 1.13
107 2.47
108 1.17
109 6.85
110 4.06
111 14.05
112 3.59
115 7.66
121 55.14
122 4.16
123 3.09
125 5.98
136 7.81
137 5.67
139 1.58
153 3.16
168 8.15
169 3.25

$$$$

     RDKit          2D

 14 13  0  0  0  0  0  0  0  0999 V2000
    3.8971    6.7500    0.0000 C   0  0  0  0  0  0  0  0  0  0  0  0
    2.5981    4.5000    0.0000 C   0  0  0  0  0  0  0  0  0  0  0  0
   -2.5981    4.5000    0.0000 C   0  0  0  0  0  0  0  0  0  0  0  0
   -5.1962   10.5000    0.0000 C   0  0  0  0  0  0  0  0  0  0  0  0
   -2.5981   10.5000    0.0000 C   0  0  0  0  0  0  0  0  0  0  0  0
    0.0000    6.0000    0.0000 C   0  0  0  0  0  0  0  0  0  0  0  0
    1.2990    6.7500    0.0000 C   0  0  0  0  0  0  0  0  0  0  0  0
   -1.2990    6.7500    0.0000 C   0  0  0  0  0  0  0  0  0  0  0  0
   -3.8971    6.7500    0.0000 C   0  0  0  0  0  0  0  0  0  0  0  0
    2.5981    6.0000    0.0000 C   0  0  0  0  0  0  0  0  0  0  0  0
   -2.5981    6.0000    0.0000 C   0  0  0  0  0  0  0  0  0  0  0  0
   -3.8971    8.2500    0.0000 C   0  0  0  0  0  0  0  0  0  0  0  0
   -5.1962    9.0000    0.0000 O   0  0  0  0  0  0  0  0  0  0  0  0
   -2.5981    9.0000    0.0000 O   0  0  0  0  0  0  0  0  0  0  0  0
  7  6  1  0
  8  6  1  0
 10  1  1  0
 10  2  1  0
 10  7  2  0
 11  3  1  0
 11  8  1  0
  9 11  2  0
 12  9  1  0
 13  4  1  0
 13 12  1  0
 14  5  1  0
 14 12  1  0
M  END
>  <NAME>  (2552) 
NERAL DIMETHYL ACETAL

>  <SYNONYMS>  (2552) 
CIS-3,7-DIMETHYL-2,6-OCTADIENAL DIMETHYL ACETAL

>  <SPECTRUM TYPE>  (2552) 
MS1

>  <INSTRUMENT TYPE>  (2552) 
EI-B

>  <INSTRUMENT>  (2552) 
HITACHI M-80B

>  <ION MODE>  (2552) 
P

>  <INCHIKEY>  (2552) 
ZSKAJFSSXURRGL-LUAWRHEFSA-N

>  <FORMULA>  (2552) 
C12H22O2

>  <EXACT MASS>  (2552) 
198.161979944

>  <MW>  (2552) 
198

>  <ID>  (2552) 
JP008659

>  <CONTRIBUTOR>  (2552) 
University of Tokyo Team, {Faculty of Engineering, University of Tokyo

>  <COMMENT>  (2552) 
SMILES=COC(OC)C=C(C)CCC=C(C)C
InChI=InChI=1S/C12H22O2/c1-10(2)7-6-8-11(3)9-12(13-4)14-5/h7,9,12H,6,8H2,1-5H3/b11-9-
computed SMILES=O(C)C(OC)C=C(C)CCC=C(C)C
accession=JP008659
date=2016.01.19 (Created 2008.10.21, modified 2011.05.06)
author=SODA AROMATIC CO., LTD.
license=CC BY-NC-SA
exact mass=198.16198
ionization energy=70 eV
ion type=[M]+*
computed spectral entropy=3.640594491950301
computed normalized entropy=0.8308015435468117
SPLASH=splash10-00xu-9200000000-3a4f5968d8c2a3615e4d
submitter=submitter = University of Tokyo Team (Faculty of Engineering, University of Tokyo)
MoNA Rating=3.75

>  <NUM PEAKS>  (2552) 
80

>  <MASS SPECTRAL PEAKS>  (2552) 
15 7.39
27 19.47
29 20.66
30 1.37
31 20.58
38 1.23
39 31.89
40 3.17
41 99.99
42 4.23
43 12.16
45 26.26
47 1.73
50 1.5
51 5.62
52 2.8
53 22.49
54 3.94
55 20.02
56 1.57
57 1.35
58 1.75
59 4.38
63 1.49
65 5.73
66 2.2
67 15.97
68 3.7
69 75.6
70 3.42
71 5.2
73 46.3
74 1.86
75 14.84
77 11.22
78 2.45
79 12.09
80 3.66
81 6.66
82 3.6
83 28.27
84 3.01
85 4.59
86 29.17
87 3.35
91 21.04
92 3.48
93 14.81
94 2.9
95 4.99
97 2.79
98 24.38
99 3.54
103 1.24
105 5.4
106 1.52
107 5.7
108 2.95
109 6.14
110 3.75
111 3.58
115 5.19
117 1.59
119 18.91
120 1.71
121 4.94
122 1.3
123 81.96
124 5.84
125 1.14
128 2.27
129 2.09
134 4.76
135 4.02
136 1.38
137 1.43
141 3.7
151 8.18
166 7.58
167 1.35

$$$$

     RDKit          2D

 14 13  0  0  0  0  0  0  0  0999 V2000
   -7.4695    6.1875    0.0000 C   0  0  0  0  0  0  0  0  0  0  0  0
   -6.1704    3.9375    0.0000 C   0  0  0  0  0  0  0  0  0  0  0  0
   -0.9743    3.9375    0.0000 C   0  0  0  0  0  0  0  0  0  0  0  0
    4.2219    5.4375    0.0000 C   0  0  0  0  0  0  0  0  0  0  0  0
    2.9228    3.1875    0.0000 C   0  0  0  0  0  0  0  0  0  0  0  0
   -3.5724    5.4375    0.0000 C   0  0  0  0  0  0  0  0  0  0  0  0
   -4.8714    6.1875    0.0000 C   0  0  0  0  0  0  0  0  0  0  0  0
   -2.2733    6.1875    0.0000 C   0  0  0  0  0  0  0  0  0  0  0  0
    0.3248    6.1875    0.0000 C   0  0  0  0  0  0  0  0  0  0  0  0
   -6.1704    5.4375    0.0000 C   0  0  0  0  0  0  0  0  0  0  0  0
   -0.9743    5.4375    0.0000 C   0  0  0  0  0  0  0  0  0  0  0  0
    1.6238    5.4375    0.0000 C   0  0  0  0  0  0  0  0  0  0  0  0
    2.9228    6.1875    0.0000 O   0  0  0  0  0  0  0  0  0  0  0  0
    1.6238    3.9375    0.0000 O   0  0  0  0  0  0  0  0  0  0  0  0
  7  6  1  0
  8  6  1  0
 10  1  1  0
 10  2  1  0
 10  7  2  0
 11  3  1  0
 11  8  1  0
  9 11  2  0
 12  9  1  0
 13  4  1  0
 13 12  1  0
 14  5  1  0
 14 12  1  0
M  END
>  <NAME>  (2553) 
GERANIAL DIMETHYL ACETAL

>  <SYNONYMS>  (2553) 
TRANS-3,7-DIMETHYL-2,6-OCTADIENAL DIMETHYLACETAL

>  <SPECTRUM TYPE>  (2553) 
MS1

>  <INSTRUMENT TYPE>  (2553) 
EI-B

>  <INSTRUMENT>  (2553) 
HITACHI M-80B

>  <ION MODE>  (2553) 
P

>  <INCHIKEY>  (2553) 
ZSKAJFSSXURRGL-PKNBQFBNSA-N

>  <FORMULA>  (2553) 
C12H22O2

>  <EXACT MASS>  (2553) 
198.161979944

>  <MW>  (2553) 
198

>  <ID>  (2553) 
JP008658

>  <CONTRIBUTOR>  (2553) 
University of Tokyo Team, {Faculty of Engineering, University of Tokyo

>  <COMMENT>  (2553) 
SMILES=COC(OC)C=C(C)CCC=C(C)C
InChI=InChI=1S/C12H22O2/c1-10(2)7-6-8-11(3)9-12(13-4)14-5/h7,9,12H,6,8H2,1-5H3/b11-9+
computed SMILES=O(C)C(OC)C=C(C)CCC=C(C)C
accession=JP008658
date=2016.01.19 (Created 2008.10.21, modified 2011.05.06)
author=SODA AROMATIC CO., LTD.
license=CC BY-NC-SA
exact mass=198.16198
ionization energy=70 eV
ion type=[M]+*
computed spectral entropy=3.6367823007656055
computed normalized entropy=0.8299315827951972
SPLASH=splash10-00xu-9200000000-39059b47f392d0dbcad5
submitter=submitter = University of Tokyo Team (Faculty of Engineering, University of Tokyo)
MoNA Rating=3.75

>  <NUM PEAKS>  (2553) 
80

>  <MASS SPECTRAL PEAKS>  (2553) 
15 10.16
27 19.52
29 21.7
30 1.57
31 20.84
32 1.1
38 1.17
39 32.04
40 3.49
41 99.99
42 4.06
43 11.55
45 28.34
47 2.04
50 1.45
51 5.12
52 2.65
53 22.93
54 3.96
55 20.26
56 1.39
57 1.47
58 1.68
59 4.44
63 1.28
65 8.01
66 2.35
67 15.85
68 3.23
69 90.46
70 3.57
71 5.44
73 53.08
74 2.08
75 27.58
77 11.65
78 2.34
79 12.82
80 3.26
81 7.32
82 3.23
83 25.9
84 2.16
85 5.76
86 26.41
87 2.24
91 22.14
92 3.37
93 14.39
94 2.28
95 4.46
96 1.21
97 2.62
98 25.15
99 4.84
103 1.29
105 5.34
106 1.58
107 4.98
108 3.46
109 7.08
110 3.25
111 4.19
115 4.44
117 1.43
119 17.23
120 1.81
121 4.43
122 1.14
123 67.66
124 5.24
125 1.62
129 5.18
134 3.45
135 3.33
136 1.04
137 1.33
151 8.08
166 8.75
167 5.38

$$$$

     RDKit          2D

 20 19  0  0  0  0  0  0  0  0999 V2000
    4.5466    7.8750    0.0000 C   0  0  0  0  0  0  0  0  0  0  0  0
  -13.6399    7.8750    0.0000 C   0  0  0  0  0  0  0  0  0  0  0  0
   -7.1447   14.6250    0.0000 C   0  0  0  0  0  0  0  0  0  0  0  0
    3.2476    8.6250    0.0000 C   0  0  0  0  0  0  0  0  0  0  0  0
  -12.3409    8.6250    0.0000 C   0  0  0  0  0  0  0  0  0  0  0  0
   -7.1447   13.1250    0.0000 C   0  0  0  0  0  0  0  0  0  0  0  0
    1.9486    7.8750    0.0000 C   0  0  0  0  0  0  0  0  0  0  0  0
  -11.0418    7.8750    0.0000 C   0  0  0  0  0  0  0  0  0  0  0  0
   -5.8457   12.3750    0.0000 C   0  0  0  0  0  0  0  0  0  0  0  0
    0.6495    8.6250    0.0000 C   0  0  0  0  0  0  0  0  0  0  0  0
   -9.7428    8.6250    0.0000 C   0  0  0  0  0  0  0  0  0  0  0  0
   -5.8457   10.8750    0.0000 C   0  0  0  0  0  0  0  0  0  0  0  0
   -0.6495    7.8750    0.0000 C   0  0  0  0  0  0  0  0  0  0  0  0
   -8.4437    7.8750    0.0000 C   0  0  0  0  0  0  0  0  0  0  0  0
   -4.5466   10.1250    0.0000 C   0  0  0  0  0  0  0  0  0  0  0  0
   -1.9486    8.6250    0.0000 C   0  0  0  0  0  0  0  0  0  0  0  0
   -7.1447    8.6250    0.0000 C   0  0  0  0  0  0  0  0  0  0  0  0
   -4.5466    8.6250    0.0000 C   0  0  0  0  0  0  0  0  0  0  0  0
   -3.2476    7.8750    0.0000 O   0  0  0  0  0  0  0  0  0  0  0  0
   -5.8457    7.8750    0.0000 O   0  0  0  0  0  0  0  0  0  0  0  0
  4  1  1  0
  5  2  1  0
  6  3  1  0
  7  4  1  0
  8  5  1  0
  9  6  1  0
 10  7  1  0
 11  8  1  0
 12  9  1  0
 13 10  1  0
 14 11  1  0
 15 12  1  0
 16 13  1  0
 17 14  1  0
 18 15  1  0
 19 16  1  0
 19 18  1  0
 20 17  1  0
 20 18  1  0
M  END
>  <NAME>  (2554) 
HEXANAL DIHEXYL ACETAL

>  <SYNONYMS>  (2554) 


>  <SPECTRUM TYPE>  (2554) 
MS1

>  <INSTRUMENT TYPE>  (2554) 
EI-B

>  <INSTRUMENT>  (2554) 
HITACHI M-80B

>  <ION MODE>  (2554) 
P

>  <INCHIKEY>  (2554) 
JAMIQGJXDPTFJL-UHFFFAOYSA-N

>  <FORMULA>  (2554) 
C18H38O2

>  <EXACT MASS>  (2554) 
286.287180456

>  <MW>  (2554) 
286

>  <ID>  (2554) 
JP008657

>  <CONTRIBUTOR>  (2554) 
University of Tokyo Team, {Faculty of Engineering, University of Tokyo

>  <COMMENT>  (2554) 
SMILES=CCCCCCOC(CCCCC)OCCCCCC
InChI=InChI=1S/C18H38O2/c1-4-7-10-13-16-19-18(15-12-9-6-3)20-17-14-11-8-5-2/h18H,4-17H2,1-3H3
computed SMILES=O(CCCCCC)C(OCCCCCC)CCCCC
accession=JP008657
date=2016.01.19 (Created 2008.10.21, modified 2011.05.06)
author=SODA AROMATIC CO., LTD.
license=CC BY-NC-SA
exact mass=286.28718
ionization energy=70 eV
ion type=[M]+*
computed spectral entropy=2.6589327402652296
computed normalized entropy=0.7742989655850743
SPLASH=splash10-000f-9100000000-73516d92d4f0236c340f
submitter=submitter = University of Tokyo Team (Faculty of Engineering, University of Tokyo)
MoNA Rating=3.75

>  <NUM PEAKS>  (2554) 
31

>  <MASS SPECTRAL PEAKS>  (2554) 
27 10.22
29 15.95
31 3.71
39 4.33
41 26.88
42 11.27
43 99.99
44 3.49
45 1.17
53 1.03
55 21.13
56 15.56
57 24.25
58 1.47
67 1.45
69 3.89
71 2.89
82 5.3
83 21.27
84 2.51
85 85.09
86 5.67
101 21.85
102 1.26
113 1.18
131 7.75
184 1.22
185 20.84
186 2.27
215 9.83
216 1.09

$$$$

     RDKit          2D

 17 16  0  0  0  0  0  0  0  0999 V2000
    4.5466    7.8750    0.0000 C   0  0  0  0  0  0  0  0  0  0  0  0
  -13.6399    7.8750    0.0000 C   0  0  0  0  0  0  0  0  0  0  0  0
   -5.8457   10.8750    0.0000 C   0  0  0  0  0  0  0  0  0  0  0  0
    3.2476    8.6250    0.0000 C   0  0  0  0  0  0  0  0  0  0  0  0
  -12.3409    8.6250    0.0000 C   0  0  0  0  0  0  0  0  0  0  0  0
   -4.5466   10.1250    0.0000 C   0  0  0  0  0  0  0  0  0  0  0  0
    1.9486    7.8750    0.0000 C   0  0  0  0  0  0  0  0  0  0  0  0
  -11.0418    7.8750    0.0000 C   0  0  0  0  0  0  0  0  0  0  0  0
    0.6495    8.6250    0.0000 C   0  0  0  0  0  0  0  0  0  0  0  0
   -9.7428    8.6250    0.0000 C   0  0  0  0  0  0  0  0  0  0  0  0
   -0.6495    7.8750    0.0000 C   0  0  0  0  0  0  0  0  0  0  0  0
   -8.4437    7.8750    0.0000 C   0  0  0  0  0  0  0  0  0  0  0  0
   -1.9486    8.6250    0.0000 C   0  0  0  0  0  0  0  0  0  0  0  0
   -7.1447    8.6250    0.0000 C   0  0  0  0  0  0  0  0  0  0  0  0
   -4.5466    8.6250    0.0000 C   0  0  0  0  0  0  0  0  0  0  0  0
   -3.2476    7.8750    0.0000 O   0  0  0  0  0  0  0  0  0  0  0  0
   -5.8457    7.8750    0.0000 O   0  0  0  0  0  0  0  0  0  0  0  0
  4  1  1  0
  5  2  1  0
  6  3  1  0
  7  4  1  0
  8  5  1  0
  9  7  1  0
 10  8  1  0
 11  9  1  0
 12 10  1  0
 13 11  1  0
 14 12  1  0
 15  6  1  0
 16 13  1  0
 16 15  1  0
 17 14  1  0
 17 15  1  0
M  END
>  <NAME>  (2555) 
PROPANAL DIHEXYL ACETAL

>  <SYNONYMS>  (2555) 


>  <SPECTRUM TYPE>  (2555) 
MS1

>  <INSTRUMENT TYPE>  (2555) 
EI-B

>  <INSTRUMENT>  (2555) 
HITACHI M-80B

>  <ION MODE>  (2555) 
P

>  <INCHIKEY>  (2555) 
GAGIWYOKONINOF-UHFFFAOYSA-N

>  <FORMULA>  (2555) 
C15H32O2

>  <EXACT MASS>  (2555) 
244.240230264

>  <MW>  (2555) 
244

>  <ID>  (2555) 
JP008656

>  <CONTRIBUTOR>  (2555) 
University of Tokyo Team, {Faculty of Engineering, University of Tokyo

>  <COMMENT>  (2555) 
SMILES=CCCCCCOC(CC)OCCCCCC
InChI=InChI=1S/C15H32O2/c1-4-7-9-11-13-16-15(6-3)17-14-12-10-8-5-2/h15H,4-14H2,1-3H3
computed SMILES=O(CCCCCC)C(OCCCCCC)CC
accession=JP008656
date=2016.01.19 (Created 2008.10.21, modified 2011.05.06)
author=SODA AROMATIC CO., LTD.
license=CC BY-NC-SA
exact mass=244.24023
ionization energy=70 eV
ion type=[M]+*
computed spectral entropy=2.396167563276917
computed normalized entropy=0.7642072981999917
SPLASH=splash10-000f-9100000000-739aad222e2e2ec7f572
submitter=submitter = University of Tokyo Team (Faculty of Engineering, University of Tokyo)
MoNA Rating=3.75

>  <NUM PEAKS>  (2555) 
23

>  <MASS SPECTRAL PEAKS>  (2555) 
27 9.75
29 16.14
31 4.47
39 4.6
41 24.61
42 9.08
43 94.38
44 2.49
55 11.19
56 10.45
57 15.47
58 6.23
59 39.16
60 1.03
69 2.26
71 1.25
75 1.13
85 99.99
86 6.31
131 5.78
143 35.9
144 2.74
215 6.3

$$$$

     RDKit          2D

 16 15  0  0  0  0  0  0  0  0999 V2000
    4.5466    7.8750    0.0000 C   0  0  0  0  0  0  0  0  0  0  0  0
  -13.6399    7.8750    0.0000 C   0  0  0  0  0  0  0  0  0  0  0  0
   -4.5466   10.1250    0.0000 C   0  0  0  0  0  0  0  0  0  0  0  0
    3.2476    8.6250    0.0000 C   0  0  0  0  0  0  0  0  0  0  0  0
  -12.3409    8.6250    0.0000 C   0  0  0  0  0  0  0  0  0  0  0  0
    1.9486    7.8750    0.0000 C   0  0  0  0  0  0  0  0  0  0  0  0
  -11.0418    7.8750    0.0000 C   0  0  0  0  0  0  0  0  0  0  0  0
    0.6495    8.6250    0.0000 C   0  0  0  0  0  0  0  0  0  0  0  0
   -9.7428    8.6250    0.0000 C   0  0  0  0  0  0  0  0  0  0  0  0
   -0.6495    7.8750    0.0000 C   0  0  0  0  0  0  0  0  0  0  0  0
   -8.4437    7.8750    0.0000 C   0  0  0  0  0  0  0  0  0  0  0  0
   -1.9486    8.6250    0.0000 C   0  0  0  0  0  0  0  0  0  0  0  0
   -7.1447    8.6250    0.0000 C   0  0  0  0  0  0  0  0  0  0  0  0
   -4.5466    8.6250    0.0000 C   0  0  0  0  0  0  0  0  0  0  0  0
   -3.2476    7.8750    0.0000 O   0  0  0  0  0  0  0  0  0  0  0  0
   -5.8457    7.8750    0.0000 O   0  0  0  0  0  0  0  0  0  0  0  0
  4  1  1  0
  5  2  1  0
  6  4  1  0
  7  5  1  0
  8  6  1  0
  9  7  1  0
 10  8  1  0
 11  9  1  0
 12 10  1  0
 13 11  1  0
 14  3  1  0
 15 12  1  0
 15 14  1  0
 16 13  1  0
 16 14  1  0
M  END
>  <NAME>  (2556) 
ACETALDEHYDE DIHEXYL ACETAL

>  <SYNONYMS>  (2556) 


>  <SPECTRUM TYPE>  (2556) 
MS1

>  <INSTRUMENT TYPE>  (2556) 
EI-B

>  <INSTRUMENT>  (2556) 
HITACHI M-80B

>  <ION MODE>  (2556) 
P

>  <INCHIKEY>  (2556) 
VSFOOCQEJQKBSO-UHFFFAOYSA-N

>  <FORMULA>  (2556) 
C14H30O2

>  <EXACT MASS>  (2556) 
230.2245802

>  <MW>  (2556) 
230

>  <ID>  (2556) 
JP008655

>  <CONTRIBUTOR>  (2556) 
University of Tokyo Team, {Faculty of Engineering, University of Tokyo

>  <COMMENT>  (2556) 
SMILES=CCCCCCOC(C)OCCCCCC
InChI=InChI=1S/C14H30O2/c1-4-6-8-10-12-15-14(3)16-13-11-9-7-5-2/h14H,4-13H2,1-3H3
computed SMILES=O(CCCCCC)C(OCCCCCC)C
accession=JP008655
date=2016.01.19 (Created 2008.10.21, modified 2011.05.06)
author=SODA AROMATIC CO., LTD.
license=CC BY-NC-SA
exact mass=230.22458
ionization energy=70 eV
ion type=[M]+*
computed spectral entropy=2.368860881864254
computed normalized entropy=0.7270689662568356
SPLASH=splash10-002o-9200000000-09f4b144ce6965a79fa2
submitter=submitter = University of Tokyo Team (Faculty of Engineering, University of Tokyo)
MoNA Rating=3.75

>  <NUM PEAKS>  (2556) 
26

>  <MASS SPECTRAL PEAKS>  (2556) 
27 9
28 2.34
29 15.59
31 2.09
39 3.59
40 1.06
41 24.25
42 9.25
43 83.64
44 2.71
45 17.7
53 1.03
55 10.85
56 8.68
57 12.67
58 1.09
69 2.09
71 1.79
83 1
85 99.99
86 6.7
111 1.06
129 63.06
130 4.25
131 2.94
215 8.01

$$$$

     RDKit          2D

 16 15  0  0  0  0  0  0  0  0999 V2000
   11.3666    6.1875    0.0000 C   0  0  0  0  0  0  0  0  0  0  0  0
   -4.2219    6.1875    0.0000 C   0  0  0  0  0  0  0  0  0  0  0  0
    3.5724   10.6875    0.0000 C   0  0  0  0  0  0  0  0  0  0  0  0
   10.0675    6.9375    0.0000 C   0  0  0  0  0  0  0  0  0  0  0  0
   -2.9228    6.9375    0.0000 C   0  0  0  0  0  0  0  0  0  0  0  0
   10.0675    8.4375    0.0000 C   0  0  0  0  0  0  0  0  0  0  0  0
   -2.9228    8.4375    0.0000 C   0  0  0  0  0  0  0  0  0  0  0  0
    8.7685    9.1875    0.0000 C   0  0  0  0  0  0  0  0  0  0  0  0
   -1.6238    9.1875    0.0000 C   0  0  0  0  0  0  0  0  0  0  0  0
    7.4695    8.4375    0.0000 C   0  0  0  0  0  0  0  0  0  0  0  0
   -0.3248    8.4375    0.0000 C   0  0  0  0  0  0  0  0  0  0  0  0
    6.1704    9.1875    0.0000 C   0  0  0  0  0  0  0  0  0  0  0  0
    0.9743    9.1875    0.0000 C   0  0  0  0  0  0  0  0  0  0  0  0
    3.5724    9.1875    0.0000 C   0  0  0  0  0  0  0  0  0  0  0  0
    4.8714    8.4375    0.0000 O   0  0  0  0  0  0  0  0  0  0  0  0
    2.2733    8.4375    0.0000 O   0  0  0  0  0  0  0  0  0  0  0  0
  4  1  1  0
  5  2  1  0
  6  4  1  0
  7  5  1  0
  6  8  2  0
  7  9  2  0
 10  8  1  0
 11  9  1  0
 12 10  1  0
 13 11  1  0
 14  3  1  0
 15 12  1  0
 15 14  1  0
 16 13  1  0
 16 14  1  0
M  END
>  <NAME>  (2557) 
ACETALDEHYDE DI-CIS-3-HEXENYL ACETAL

>  <SYNONYMS>  (2557) 


>  <SPECTRUM TYPE>  (2557) 
MS1

>  <INSTRUMENT TYPE>  (2557) 
EI-B

>  <INSTRUMENT>  (2557) 
HITACHI M-80B

>  <ION MODE>  (2557) 
P

>  <INCHIKEY>  (2557) 
KCPFRJBAXWUXIG-VRHVFUOLSA-N

>  <FORMULA>  (2557) 
C14H26O2

>  <EXACT MASS>  (2557) 
226.193280072

>  <MW>  (2557) 
226

>  <ID>  (2557) 
JP008654

>  <CONTRIBUTOR>  (2557) 
University of Tokyo Team, {Faculty of Engineering, University of Tokyo

>  <COMMENT>  (2557) 
SMILES=CCC=CCCOC(C)OCCC=CCC
InChI=InChI=1S/C14H26O2/c1-4-6-8-10-12-15-14(3)16-13-11-9-7-5-2/h6-9,14H,4-5,10-13H2,1-3H3/b8-6-,9-7-
computed SMILES=O(CCC=CCC)C(OCCC=CCC)C
accession=JP008654
date=2016.01.19 (Created 2008.10.21, modified 2011.05.06)
author=SODA AROMATIC CO., LTD.
license=CC BY-NC-SA
exact mass=226.19328
ionization energy=70 eV
ion type=[M]+*
computed spectral entropy=2.107907983930304
computed normalized entropy=0.6819408066169169
SPLASH=splash10-053r-9100000000-38ccc0731acd50b42f5e
submitter=submitter = University of Tokyo Team (Faculty of Engineering, University of Tokyo)
MoNA Rating=3.75

>  <NUM PEAKS>  (2557) 
22

>  <MASS SPECTRAL PEAKS>  (2557) 
27 2.78
29 3.79
39 4.77
40 1.38
41 23.13
42 1.84
43 3.7
45 1.98
53 3.16
54 2.72
55 55.2
56 3.08
58 1.87
67 8.12
68 1.33
69 3.41
81 1.24
82 6.37
83 99.99
84 6.66
127 34.27
128 2.92

$$$$

     RDKit          2D

 15 14  0  0  0  0  0  0  0  0999 V2000
    3.8971    6.7500    0.0000 C   0  0  0  0  0  0  0  0  0  0  0  0
  -11.6913    6.7500    0.0000 C   0  0  0  0  0  0  0  0  0  0  0  0
  -10.3923    9.0000    0.0000 C   0  0  0  0  0  0  0  0  0  0  0  0
   -5.1962    9.0000    0.0000 C   0  0  0  0  0  0  0  0  0  0  0  0
    2.5981    7.5000    0.0000 C   0  0  0  0  0  0  0  0  0  0  0  0
    1.2990    6.7500    0.0000 C   0  0  0  0  0  0  0  0  0  0  0  0
    0.0000    7.5000    0.0000 C   0  0  0  0  0  0  0  0  0  0  0  0
   -1.2990    6.7500    0.0000 C   0  0  0  0  0  0  0  0  0  0  0  0
   -9.0933    6.7500    0.0000 C   0  0  0  0  0  0  0  0  0  0  0  0
   -2.5981    7.5000    0.0000 C   0  0  0  0  0  0  0  0  0  0  0  0
   -7.7942    7.5000    0.0000 C   0  0  0  0  0  0  0  0  0  0  0  0
  -10.3923    7.5000    0.0000 C   0  0  0  0  0  0  0  0  0  0  0  0
   -5.1962    7.5000    0.0000 C   0  0  0  0  0  0  0  0  0  0  0  0
   -3.8971    6.7500    0.0000 O   0  0  0  0  0  0  0  0  0  0  0  0
   -6.4952    6.7500    0.0000 O   0  0  0  0  0  0  0  0  0  0  0  0
  5  1  1  0
  6  5  1  0
  7  6  1  0
  8  7  1  0
 10  8  1  0
 11  9  1  0
 12  2  1  0
 12  3  1  0
 12  9  1  0
 13  4  1  0
 14 10  1  0
 14 13  1  0
 15 11  1  0
 15 13  1  0
M  END
>  <NAME>  (2558) 
ACETALDEHYDE HEXYL ISOAMYL ACETAL

>  <SYNONYMS>  (2558) 
ACETALDEHYDE HEXYL 3-METHYLBUTYL ACETAL

>  <SPECTRUM TYPE>  (2558) 
MS1

>  <INSTRUMENT TYPE>  (2558) 
EI-B

>  <INSTRUMENT>  (2558) 
HITACHI M-80B

>  <ION MODE>  (2558) 
P

>  <INCHIKEY>  (2558) 
PUXHYFFHRDAFHP-UHFFFAOYSA-N

>  <FORMULA>  (2558) 
C13H28O2

>  <EXACT MASS>  (2558) 
216.208930136

>  <MW>  (2558) 
216

>  <ID>  (2558) 
JP008653

>  <CONTRIBUTOR>  (2558) 
University of Tokyo Team, {Faculty of Engineering, University of Tokyo

>  <COMMENT>  (2558) 
SMILES=CCCCCCOC(C)OCCC(C)C
InChI=InChI=1S/C13H28O2/c1-5-6-7-8-10-14-13(4)15-11-9-12(2)3/h12-13H,5-11H2,1-4H3
computed SMILES=O(CCCCCC)C(OCCC(C)C)C
accession=JP008653
date=2016.01.19 (Created 2008.10.21, modified 2011.05.06)
author=SODA AROMATIC CO., LTD.
license=CC BY-NC-SA
exact mass=216.20893
ionization energy=70 eV
ion type=[M]+*
computed spectral entropy=2.717906071284894
computed normalized entropy=0.7991027177483775
SPLASH=splash10-006x-9100000000-d2dd67a93bb3771e285b
submitter=submitter = University of Tokyo Team (Faculty of Engineering, University of Tokyo)
MoNA Rating=3.75

>  <NUM PEAKS>  (2558) 
30

>  <MASS SPECTRAL PEAKS>  (2558) 
15 1.48
27 15.42
29 16.54
31 5.86
39 7.34
41 28.59
42 14.99
43 99.99
44 5.35
45 13.16
53 1.41
54 1.07
55 21.82
56 16.06
57 9.43
69 4.35
70 6.55
71 65.51
72 3.2
82 1.15
84 1.71
85 38.12
86 2.24
113 1.68
115 30.73
116 2.33
117 1.49
129 22.58
130 1.68
201 5.83

$$$$

     RDKit          2D

 14 13  0  0  0  0  0  0  0  0999 V2000
    3.5724    6.5625    0.0000 C   0  0  0  0  0  0  0  0  0  0  0  0
  -10.7171    7.3125    0.0000 C   0  0  0  0  0  0  0  0  0  0  0  0
   -9.4180    5.0625    0.0000 C   0  0  0  0  0  0  0  0  0  0  0  0
   -5.5209    8.8125    0.0000 C   0  0  0  0  0  0  0  0  0  0  0  0
    2.2733    7.3125    0.0000 C   0  0  0  0  0  0  0  0  0  0  0  0
    0.9743    6.5625    0.0000 C   0  0  0  0  0  0  0  0  0  0  0  0
   -0.3248    7.3125    0.0000 C   0  0  0  0  0  0  0  0  0  0  0  0
   -1.6238    6.5625    0.0000 C   0  0  0  0  0  0  0  0  0  0  0  0
   -2.9228    7.3125    0.0000 C   0  0  0  0  0  0  0  0  0  0  0  0
   -8.1190    7.3125    0.0000 C   0  0  0  0  0  0  0  0  0  0  0  0
   -9.4180    6.5625    0.0000 C   0  0  0  0  0  0  0  0  0  0  0  0
   -5.5209    7.3125    0.0000 C   0  0  0  0  0  0  0  0  0  0  0  0
   -4.2219    6.5625    0.0000 O   0  0  0  0  0  0  0  0  0  0  0  0
   -6.8200    6.5625    0.0000 O   0  0  0  0  0  0  0  0  0  0  0  0
  5  1  1  0
  6  5  1  0
  7  6  1  0
  8  7  1  0
  9  8  1  0
 11  2  1  0
 11  3  1  0
 11 10  1  0
 12  4  1  0
 13  9  1  0
 13 12  1  0
 14 10  1  0
 14 12  1  0
M  END
>  <NAME>  (2559) 
ACETALDEHYDE HEXYL ISOBUTYL ACETAL

>  <SYNONYMS>  (2559) 
ACETALDEHYDE HEXYL 2-METHYLPROPYL ACETAL

>  <SPECTRUM TYPE>  (2559) 
MS1

>  <INSTRUMENT TYPE>  (2559) 
EI-B

>  <INSTRUMENT>  (2559) 
HITACHI M-80B

>  <ION MODE>  (2559) 
P

>  <INCHIKEY>  (2559) 
IXOVHJJQWYROLC-UHFFFAOYSA-N

>  <FORMULA>  (2559) 
C12H26O2

>  <EXACT MASS>  (2559) 
202.193280072

>  <MW>  (2559) 
202

>  <ID>  (2559) 
JP008652

>  <CONTRIBUTOR>  (2559) 
University of Tokyo Team, {Faculty of Engineering, University of Tokyo

>  <COMMENT>  (2559) 
SMILES=CCCCCCOC(C)OCC(C)C
InChI=InChI=1S/C12H26O2/c1-5-6-7-8-9-13-12(4)14-10-11(2)3/h11-12H,5-10H2,1-4H3
computed SMILES=O(CCCCCC)C(OCC(C)C)C
accession=JP008652
date=2016.01.19 (Created 2008.10.21, modified 2011.05.06)
author=SODA AROMATIC CO., LTD.
license=CC BY-NC-SA
exact mass=202.19328
ionization energy=70 eV
ion type=[M]+*
computed spectral entropy=2.7360671506932146
computed normalized entropy=0.7758897967447701
SPLASH=splash10-054o-9100000000-21121da3b58b3be9e0c9
submitter=submitter = University of Tokyo Team (Faculty of Engineering, University of Tokyo)
MoNA Rating=3.75

>  <NUM PEAKS>  (2559) 
34

>  <MASS SPECTRAL PEAKS>  (2559) 
15 1.65
26 1.05
27 17.19
29 28.89
31 9.93
33 2.45
39 12.11
41 49.38
42 14.61
43 84.83
44 4.95
45 37.45
53 1.41
55 14.41
56 25.13
57 99.99
58 5.08
59 1.31
61 1.19
69 4.08
71 1.39
82 1.48
83 2.26
84 1.93
85 66.31
86 3.61
101 43.26
102 2.82
103 1.03
113 1.62
129 42.01
130 3.16
131 2.08
187 4.77

$$$$

     RDKit          2D

 13 12  0  0  0  0  0  0  0  0999 V2000
    3.2476    4.8750    0.0000 C   0  0  0  0  0  0  0  0  0  0  0  0
    1.9486    7.1250    0.0000 C   0  0  0  0  0  0  0  0  0  0  0  0
   -8.4437    5.6250    0.0000 C   0  0  0  0  0  0  0  0  0  0  0  0
   -7.1447    3.3750    0.0000 C   0  0  0  0  0  0  0  0  0  0  0  0
   -3.2476    7.1250    0.0000 C   0  0  0  0  0  0  0  0  0  0  0  0
    0.6495    4.8750    0.0000 C   0  0  0  0  0  0  0  0  0  0  0  0
   -0.6495    5.6250    0.0000 C   0  0  0  0  0  0  0  0  0  0  0  0
   -5.8457    5.6250    0.0000 C   0  0  0  0  0  0  0  0  0  0  0  0
    1.9486    5.6250    0.0000 C   0  0  0  0  0  0  0  0  0  0  0  0
   -7.1447    4.8750    0.0000 C   0  0  0  0  0  0  0  0  0  0  0  0
   -3.2476    5.6250    0.0000 C   0  0  0  0  0  0  0  0  0  0  0  0
   -1.9486    4.8750    0.0000 O   0  0  0  0  0  0  0  0  0  0  0  0
   -4.5466    4.8750    0.0000 O   0  0  0  0  0  0  0  0  0  0  0  0
  7  6  1  0
  9  1  1  0
  9  2  1  0
  9  6  1  0
 10  3  1  0
 10  4  1  0
 10  8  1  0
 11  5  1  0
 12  7  1  0
 12 11  1  0
 13  8  1  0
 13 11  1  0
M  END
>  <NAME>  (2560) 
ACETALDEHYDE ISOAMYL ISOBUTYL ACETAL

>  <SYNONYMS>  (2560) 
ACETALDEHYDE 3-METHYLBUTYL 2-METHYLPROPYLACETAL

>  <SPECTRUM TYPE>  (2560) 
MS1

>  <INSTRUMENT TYPE>  (2560) 
EI-B

>  <INSTRUMENT>  (2560) 
HITACHI M-80B

>  <ION MODE>  (2560) 
P

>  <INCHIKEY>  (2560) 
PFGKDSOUFDQBLI-UHFFFAOYSA-N

>  <FORMULA>  (2560) 
C11H24O2

>  <EXACT MASS>  (2560) 
188.177630008

>  <MW>  (2560) 
188

>  <ID>  (2560) 
JP008651

>  <CONTRIBUTOR>  (2560) 
University of Tokyo Team, {Faculty of Engineering, University of Tokyo

>  <COMMENT>  (2560) 
SMILES=CC(C)CCOC(C)OCC(C)C
InChI=InChI=1S/C11H24O2/c1-9(2)6-7-12-11(5)13-8-10(3)4/h9-11H,6-8H2,1-5H3
computed SMILES=O(CCC(C)C)C(OCC(C)C)C
accession=JP008651
date=2016.01.19 (Created 2008.10.21, modified 2011.05.06)
author=SODA AROMATIC CO., LTD.
license=CC BY-NC-SA
exact mass=188.17763
ionization energy=70 eV
ion type=[M]+*
computed spectral entropy=2.6838806910399797
computed normalized entropy=0.7744042726602046
SPLASH=splash10-0596-9200000000-7a2ede783e3fc5f38233
submitter=submitter = University of Tokyo Team (Faculty of Engineering, University of Tokyo)
MoNA Rating=3.75

>  <NUM PEAKS>  (2560) 
32

>  <MASS SPECTRAL PEAKS>  (2560) 
15 2.12
26 1.3
27 17.12
29 25.58
31 6.81
33 2
39 13.65
41 44.47
42 12.47
43 81.56
44 5.26
45 35.67
46 1.02
53 1.98
55 18.49
56 12.19
57 96.77
58 6.05
59 1.16
69 1.05
70 6.34
71 99.99
72 5.64
83 1.42
99 1.23
100 1.15
101 46.15
102 2.5
115 55.53
116 3.78
117 2.63
173 8.06

$$$$

     RDKit          2D

 16 15  0  0  0  0  0  0  0  0999 V2000
    3.8971    6.7500    0.0000 C   0  0  0  0  0  0  0  0  0  0  0  0
  -11.6913    6.7500    0.0000 C   0  0  0  0  0  0  0  0  0  0  0  0
   -6.4952   11.2500    0.0000 C   0  0  0  0  0  0  0  0  0  0  0  0
    2.5981    7.5000    0.0000 C   0  0  0  0  0  0  0  0  0  0  0  0
  -10.3923    7.5000    0.0000 C   0  0  0  0  0  0  0  0  0  0  0  0
   -6.4952    9.7500    0.0000 C   0  0  0  0  0  0  0  0  0  0  0  0
    1.2990    6.7500    0.0000 C   0  0  0  0  0  0  0  0  0  0  0  0
   -9.0933    6.7500    0.0000 C   0  0  0  0  0  0  0  0  0  0  0  0
    0.0000    7.5000    0.0000 C   0  0  0  0  0  0  0  0  0  0  0  0
   -7.7942    7.5000    0.0000 C   0  0  0  0  0  0  0  0  0  0  0  0
   -1.2990    6.7500    0.0000 C   0  0  0  0  0  0  0  0  0  0  0  0
   -6.4952    6.7500    0.0000 C   0  0  0  0  0  0  0  0  0  0  0  0
   -2.5981    7.5000    0.0000 C   0  0  0  0  0  0  0  0  0  0  0  0
   -5.1962    7.5000    0.0000 C   0  0  0  0  0  0  0  0  0  0  0  0
   -5.1962    9.0000    0.0000 O   0  0  0  0  0  0  0  0  0  0  0  0
   -3.8971    6.7500    0.0000 O   0  0  0  0  0  0  0  0  0  0  0  0
  4  1  1  0
  5  2  1  0
  6  3  1  0
  7  4  1  0
  8  5  1  0
  9  7  1  0
 10  8  1  0
 11  9  1  0
 12 10  1  0
 13 11  1  0
 14 12  1  0
 15  6  1  0
 15 14  1  0
 16 13  1  0
 16 14  1  0
M  END
>  <NAME>  (2561) 
HEXANAL ETHYL HEXYL ACETAL

>  <SYNONYMS>  (2561) 


>  <SPECTRUM TYPE>  (2561) 
MS1

>  <INSTRUMENT TYPE>  (2561) 
EI-B

>  <INSTRUMENT>  (2561) 
HITACHI M-80B

>  <ION MODE>  (2561) 
P

>  <INCHIKEY>  (2561) 
DQPCKTBYQXJOFX-UHFFFAOYSA-N

>  <FORMULA>  (2561) 
C14H30O2

>  <EXACT MASS>  (2561) 
230.2245802

>  <MW>  (2561) 
230

>  <ID>  (2561) 
JP008650

>  <CONTRIBUTOR>  (2561) 
University of Tokyo Team, {Faculty of Engineering, University of Tokyo

>  <COMMENT>  (2561) 
SMILES=CCCCCCOC(OCC)CCCCC
InChI=InChI=1S/C14H30O2/c1-4-7-9-11-13-16-14(15-6-3)12-10-8-5-2/h14H,4-13H2,1-3H3
computed SMILES=O(CC)C(OCCCCCC)CCCCC
accession=JP008650
date=2016.01.19 (Created 2008.10.21, modified 2011.05.06)
author=SODA AROMATIC CO., LTD.
license=CC BY-NC-SA
exact mass=230.22458
ionization energy=70 eV
ion type=[M]+*
computed spectral entropy=2.9316656089791406
computed normalized entropy=0.8002228137955003
SPLASH=splash10-004l-9100000000-c8b2afb69f5145e80c63
submitter=submitter = University of Tokyo Team (Faculty of Engineering, University of Tokyo)
MoNA Rating=3.75

>  <NUM PEAKS>  (2561) 
39

>  <MASS SPECTRAL PEAKS>  (2561) 
27 18.91
29 30.55
31 9.14
39 7.88
41 36.56
42 11.55
43 92.4
44 7
45 3.94
47 24.95
53 1.76
54 1.02
55 32.36
56 14
57 37.77
58 2.39
59 3.21
67 2.19
69 2.76
71 3.88
72 2.8
75 99.99
76 2.84
81 1.05
82 5.19
83 31.8
84 2.76
85 25.4
86 1.53
99 1.64
100 1.3
101 9.91
128 1.71
129 47.28
130 3.49
159 22.29
160 1.97
184 1.2
185 4.44

$$$$

     RDKit          2D

 12 11  0  0  0  0  0  0  0  0999 V2000
    3.2476    5.6250    0.0000 C   0  0  0  0  0  0  0  0  0  0  0  0
   -9.7428    5.6250    0.0000 C   0  0  0  0  0  0  0  0  0  0  0  0
   -5.8457    7.8750    0.0000 C   0  0  0  0  0  0  0  0  0  0  0  0
    1.9486    6.3750    0.0000 C   0  0  0  0  0  0  0  0  0  0  0  0
   -8.4437    6.3750    0.0000 C   0  0  0  0  0  0  0  0  0  0  0  0
    0.6495    5.6250    0.0000 C   0  0  0  0  0  0  0  0  0  0  0  0
   -0.6495    6.3750    0.0000 C   0  0  0  0  0  0  0  0  0  0  0  0
   -1.9486    5.6250    0.0000 C   0  0  0  0  0  0  0  0  0  0  0  0
   -3.2476    6.3750    0.0000 C   0  0  0  0  0  0  0  0  0  0  0  0
   -5.8457    6.3750    0.0000 C   0  0  0  0  0  0  0  0  0  0  0  0
   -7.1447    5.6250    0.0000 O   0  0  0  0  0  0  0  0  0  0  0  0
   -4.5466    5.6250    0.0000 O   0  0  0  0  0  0  0  0  0  0  0  0
  4  1  1  0
  5  2  1  0
  6  4  1  0
  7  6  1  0
  8  7  1  0
  9  8  1  0
 10  3  1  0
 11  5  1  0
 11 10  1  0
 12  9  1  0
 12 10  1  0
M  END
>  <NAME>  (2562) 
ACETALDEHYDE ETHYL HEXYL ACETAL

>  <SYNONYMS>  (2562) 


>  <SPECTRUM TYPE>  (2562) 
MS1

>  <INSTRUMENT TYPE>  (2562) 
EI-B

>  <INSTRUMENT>  (2562) 
HITACHI M-80B

>  <ION MODE>  (2562) 
P

>  <INCHIKEY>  (2562) 
YJYLJPSYBMNHTG-UHFFFAOYSA-N

>  <FORMULA>  (2562) 
C10H22O2

>  <EXACT MASS>  (2562) 
174.161979944

>  <MW>  (2562) 
174

>  <ID>  (2562) 
JP008649

>  <CONTRIBUTOR>  (2562) 
University of Tokyo Team, {Faculty of Engineering, University of Tokyo

>  <COMMENT>  (2562) 
SMILES=CCCCCCOC(C)OCC
InChI=InChI=1S/C10H22O2/c1-4-6-7-8-9-12-10(3)11-5-2/h10H,4-9H2,1-3H3
computed SMILES=O(CC)C(OCCCCCC)C
accession=JP008649
date=2016.01.19 (Created 2008.10.21, modified 2011.05.06)
author=SODA AROMATIC CO., LTD.
license=CC BY-NC-SA
exact mass=174.16198
ionization energy=70 eV
ion type=[M]+*
computed spectral entropy=2.5991688175814582
computed normalized entropy=0.7718860916333267
SPLASH=splash10-00fv-9000000000-1d0c7482cc053b1dc6fd
submitter=submitter = University of Tokyo Team (Faculty of Engineering, University of Tokyo)
MoNA Rating=3.75

>  <NUM PEAKS>  (2562) 
29

>  <MASS SPECTRAL PEAKS>  (2562) 
15 1.69
26 1.06
27 13.81
29 17.18
31 5.22
39 4.05
41 18.09
42 7.11
43 53.66
44 7.65
45 62.24
46 1.72
47 5.55
55 8.72
56 9.46
57 6.43
61 1.59
69 2.6
72 2.48
73 99.99
74 3.95
75 20.98
84 1.19
85 23.92
86 1.47
103 1.08
113 1.34
129 9.47
159 9.25

$$$$

     RDKit          2D

 12 11  0  0  0  0  0  0  0  0999 V2000
    3.2476    5.6250    0.0000 C   0  0  0  0  0  0  0  0  0  0  0  0
   -9.7428    5.6250    0.0000 C   0  0  0  0  0  0  0  0  0  0  0  0
   -5.8457    7.8750    0.0000 C   0  0  0  0  0  0  0  0  0  0  0  0
    1.9486    6.3750    0.0000 C   0  0  0  0  0  0  0  0  0  0  0  0
   -8.4437    6.3750    0.0000 C   0  0  0  0  0  0  0  0  0  0  0  0
    0.6495    5.6250    0.0000 C   0  0  0  0  0  0  0  0  0  0  0  0
   -0.6495    6.3750    0.0000 C   0  0  0  0  0  0  0  0  0  0  0  0
   -1.9486    5.6250    0.0000 C   0  0  0  0  0  0  0  0  0  0  0  0
   -3.2476    6.3750    0.0000 C   0  0  0  0  0  0  0  0  0  0  0  0
   -5.8457    6.3750    0.0000 C   0  0  0  0  0  0  0  0  0  0  0  0
   -7.1447    5.6250    0.0000 O   0  0  0  0  0  0  0  0  0  0  0  0
   -4.5466    5.6250    0.0000 O   0  0  0  0  0  0  0  0  0  0  0  0
  4  1  1  0
  5  2  1  0
  6  4  1  0
  6  7  2  0
  8  7  1  0
  9  8  1  0
 10  3  1  0
 11  5  1  0
 11 10  1  0
 12  9  1  0
 12 10  1  0
M  END
>  <NAME>  (2563) 
1-ETHOXY-1-(TRANS-3-HEXENYLOXY)ETHANE

>  <SYNONYMS>  (2563) 
ACETALDEHYDE ETHYL TRANS-3-HEXENYL ACETAL

>  <SPECTRUM TYPE>  (2563) 
MS1

>  <INSTRUMENT TYPE>  (2563) 
EI-B

>  <INSTRUMENT>  (2563) 
HITACHI M-80B

>  <ION MODE>  (2563) 
P

>  <INCHIKEY>  (2563) 
PAEBAEDUARAOSG-VOTSOKGWSA-N

>  <FORMULA>  (2563) 
C10H20O2

>  <EXACT MASS>  (2563) 
172.14632988

>  <MW>  (2563) 
172

>  <ID>  (2563) 
JP008648

>  <CONTRIBUTOR>  (2563) 
University of Tokyo Team, {Faculty of Engineering, University of Tokyo

>  <COMMENT>  (2563) 
SMILES=CCOC(C)OCCC([H])=C([H])CC
InChI=InChI=1S/C10H20O2/c1-4-6-7-8-9-12-10(3)11-5-2/h6-7,10H,4-5,8-9H2,1-3H3/b7-6+
computed SMILES=O(CC)C(OCCC=CCC)C
accession=JP008648
date=2016.01.19 (Created 2008.10.21, modified 2011.05.06)
author=SODA AROMATIC CO., LTD.
license=CC BY-NC-SA
exact mass=172.14633
ionization energy=70 eV
ion type=[M]+*
computed spectral entropy=2.448414598027162
computed normalized entropy=0.7271159772252612
SPLASH=splash10-00dj-9000000000-6cf806fbe71972cdc865
submitter=submitter = University of Tokyo Team (Faculty of Engineering, University of Tokyo)
MoNA Rating=3.75

>  <NUM PEAKS>  (2563) 
29

>  <MASS SPECTRAL PEAKS>  (2563) 
15 2.1
26 1.01
27 12.44
29 13.15
31 6.21
39 9.21
41 24.74
42 2.56
43 9.91
44 5.42
45 77.24
46 1.6
53 2.99
54 2.2
55 30.68
56 2.09
57 1.1
67 9
69 2.18
70 2.32
72 1.77
73 99.99
74 3.32
82 5.44
83 21.79
84 1.31
89 2.38
103 3.13
127 1.55

$$$$

     RDKit          2D

 15 14  0  0  0  0  0  0  0  0999 V2000
   -0.6495    0.3750    0.0000 C   0  0  0  0  0  0  0  0  0  0  0  0
   -9.7428    5.6250    0.0000 C   0  0  0  0  0  0  0  0  0  0  0  0
    3.2476    5.6250    0.0000 C   0  0  0  0  0  0  0  0  0  0  0  0
   -1.9486    1.1250    0.0000 C   0  0  0  0  0  0  0  0  0  0  0  0
   -8.4437    4.8750    0.0000 C   0  0  0  0  0  0  0  0  0  0  0  0
    1.9486    4.8750    0.0000 C   0  0  0  0  0  0  0  0  0  0  0  0
   -1.9486    2.6250    0.0000 C   0  0  0  0  0  0  0  0  0  0  0  0
   -7.1447    5.6250    0.0000 C   0  0  0  0  0  0  0  0  0  0  0  0
    0.6495    5.6250    0.0000 C   0  0  0  0  0  0  0  0  0  0  0  0
   -3.2476    3.3750    0.0000 C   0  0  0  0  0  0  0  0  0  0  0  0
   -5.8457    4.8750    0.0000 C   0  0  0  0  0  0  0  0  0  0  0  0
   -0.6495    4.8750    0.0000 C   0  0  0  0  0  0  0  0  0  0  0  0
   -3.2476    4.8750    0.0000 C   0  0  0  0  0  0  0  0  0  0  0  0
   -4.5466    5.6250    0.0000 O   0  0  0  0  0  0  0  0  0  0  0  0
   -1.9486    5.6250    0.0000 O   0  0  0  0  0  0  0  0  0  0  0  0
  4  1  1  0
  5  2  1  0
  6  3  1  0
  7  4  1  0
  8  5  1  0
  9  6  1  0
 10  7  1  0
 11  8  1  0
 12  9  1  0
 13 10  1  0
 14 11  1  0
 14 13  1  0
 15 12  1  0
 15 13  1  0
M  END
>  <NAME>  (2564) 
VALERALDEHYDE DIBUTYL ACETAL

>  <SYNONYMS>  (2564) 
PENTANAL DIBUTYL ACETAL

>  <SPECTRUM TYPE>  (2564) 
MS1

>  <INSTRUMENT TYPE>  (2564) 
EI-B

>  <INSTRUMENT>  (2564) 
HITACHI M-80B

>  <ION MODE>  (2564) 
P

>  <INCHIKEY>  (2564) 
LDJYPEMHNQONGS-UHFFFAOYSA-N

>  <FORMULA>  (2564) 
C13H28O2

>  <EXACT MASS>  (2564) 
216.208930136

>  <MW>  (2564) 
216

>  <ID>  (2564) 
JP008647

>  <CONTRIBUTOR>  (2564) 
University of Tokyo Team, {Faculty of Engineering, University of Tokyo

>  <COMMENT>  (2564) 
SMILES=CCCCOC(CCCC)OCCCC
InChI=InChI=1S/C13H28O2/c1-4-7-10-13(14-11-8-5-2)15-12-9-6-3/h13H,4-12H2,1-3H3
computed SMILES=O(CCCC)C(OCCCC)CCCC
accession=JP008647
date=2016.01.19 (Created 2008.10.21, modified 2011.05.06)
author=SODA AROMATIC CO., LTD.
license=CC BY-NC-SA
exact mass=216.20893
ionization energy=70 eV
ion type=[M]+*
computed spectral entropy=2.433873709598399
computed normalized entropy=0.7658377861182826
SPLASH=splash10-0a4l-9200000000-ff04dd88736c97af0a14
submitter=submitter = University of Tokyo Team (Faculty of Engineering, University of Tokyo)
MoNA Rating=3.75

>  <NUM PEAKS>  (2564) 
24

>  <MASS SPECTRAL PEAKS>  (2564) 
27 8.26
29 28.07
31 2.76
39 3.68
41 30.69
42 2.33
43 5.55
44 2.15
45 2.04
47 1.34
55 4.16
56 5.9
57 99.99
58 5.07
69 29.43
70 1.58
85 1.48
87 34.6
88 1.8
103 18.09
143 31.36
144 2.74
159 15.8
160 1.42

$$$$

     RDKit          2D

 11 10  0  0  0  0  0  0  0  0999 V2000
    2.5981    4.5000    0.0000 C   0  0  0  0  0  0  0  0  0  0  0  0
   -7.7942    4.5000    0.0000 C   0  0  0  0  0  0  0  0  0  0  0  0
   -6.4952    6.7500    0.0000 C   0  0  0  0  0  0  0  0  0  0  0  0
   -1.2990    6.7500    0.0000 C   0  0  0  0  0  0  0  0  0  0  0  0
    1.2990    5.2500    0.0000 C   0  0  0  0  0  0  0  0  0  0  0  0
   -5.1962    4.5000    0.0000 C   0  0  0  0  0  0  0  0  0  0  0  0
   -3.8971    5.2500    0.0000 C   0  0  0  0  0  0  0  0  0  0  0  0
   -6.4952    5.2500    0.0000 C   0  0  0  0  0  0  0  0  0  0  0  0
   -1.2990    5.2500    0.0000 C   0  0  0  0  0  0  0  0  0  0  0  0
    0.0000    4.5000    0.0000 O   0  0  0  0  0  0  0  0  0  0  0  0
   -2.5981    4.5000    0.0000 O   0  0  0  0  0  0  0  0  0  0  0  0
  5  1  1  0
  7  6  1  0
  8  2  1  0
  8  3  1  0
  8  6  1  0
  9  4  1  0
 10  5  1  0
 10  9  1  0
 11  7  1  0
 11  9  1  0
M  END
>  <NAME>  (2565) 
ACETALDEHYDE ETHYL ISOAMYL ACETAL

>  <SYNONYMS>  (2565) 
ACETALDEHYDE ETHYL 3-METHYLBUTYL ACETAL

>  <SPECTRUM TYPE>  (2565) 
MS1

>  <INSTRUMENT TYPE>  (2565) 
EI-B

>  <INSTRUMENT>  (2565) 
HITACHI M-80B

>  <ION MODE>  (2565) 
P

>  <INCHIKEY>  (2565) 
RGNYZOOSNYMRQE-UHFFFAOYSA-N

>  <FORMULA>  (2565) 
C9H20O2

>  <EXACT MASS>  (2565) 
160.14632988

>  <MW>  (2565) 
160

>  <ID>  (2565) 
JP008646

>  <CONTRIBUTOR>  (2565) 
University of Tokyo Team, {Faculty of Engineering, University of Tokyo

>  <COMMENT>  (2565) 
SMILES=CCOC(C)OCCC(C)C
InChI=InChI=1S/C9H20O2/c1-5-10-9(4)11-7-6-8(2)3/h8-9H,5-7H2,1-4H3
computed SMILES=O(CC)C(OCCC(C)C)C
accession=JP008646
date=2016.01.19 (Created 2008.10.21, modified 2011.05.06)
author=SODA AROMATIC CO., LTD.
license=CC BY-NC-SA
exact mass=160.14633
ionization energy=70 eV
ion type=[M]+*
computed spectral entropy=2.454841771570064
computed normalized entropy=0.7448310918817301
SPLASH=splash10-00dj-9000000000-c6b8b96d0fecd87e6509
submitter=submitter = University of Tokyo Team (Faculty of Engineering, University of Tokyo)
MoNA Rating=3.75

>  <NUM PEAKS>  (2565) 
27

>  <MASS SPECTRAL PEAKS>  (2565) 
15 2.49
26 1.22
27 16.37
29 17.64
31 8.27
39 6.54
41 17.34
42 4.48
43 59.17
44 8.81
45 78.01
46 1.81
47 3.38
53 1.15
55 12.23
56 1.1
57 1.37
61 1.44
69 1.01
70 3.47
71 53.05
72 3.94
73 99.99
74 3.27
75 3.7
115 10.12
145 10.18

$$$$

     RDKit          2D

 16 15  0  0  0  0  0  0  0  0999 V2000
    3.8971    6.0000    0.0000 C   0  0  0  0  0  0  0  0  0  0  0  0
  -10.3923    6.7500    0.0000 C   0  0  0  0  0  0  0  0  0  0  0  0
   -7.7942   11.2500    0.0000 C   0  0  0  0  0  0  0  0  0  0  0  0
    2.5981    6.7500    0.0000 C   0  0  0  0  0  0  0  0  0  0  0  0
   -9.0933    6.0000    0.0000 C   0  0  0  0  0  0  0  0  0  0  0  0
   -6.4952   10.5000    0.0000 C   0  0  0  0  0  0  0  0  0  0  0  0
    1.2990    6.0000    0.0000 C   0  0  0  0  0  0  0  0  0  0  0  0
    0.0000    6.7500    0.0000 C   0  0  0  0  0  0  0  0  0  0  0  0
   -1.2990    6.0000    0.0000 C   0  0  0  0  0  0  0  0  0  0  0  0
   -2.5981    6.7500    0.0000 C   0  0  0  0  0  0  0  0  0  0  0  0
   -3.8971    6.0000    0.0000 C   0  0  0  0  0  0  0  0  0  0  0  0
   -7.7942    6.7500    0.0000 C   0  0  0  0  0  0  0  0  0  0  0  0
   -6.4952    9.0000    0.0000 C   0  0  0  0  0  0  0  0  0  0  0  0
   -5.1962    6.7500    0.0000 C   0  0  0  0  0  0  0  0  0  0  0  0
   -6.4952    6.0000    0.0000 O   0  0  0  0  0  0  0  0  0  0  0  0
   -5.1962    8.2500    0.0000 O   0  0  0  0  0  0  0  0  0  0  0  0
  4  1  1  0
  5  2  2  0
  6  3  2  0
  7  4  1  0
  8  7  1  0
  9  8  1  0
 10  9  1  0
 11 10  1  0
 12  5  1  0
 13  6  1  0
 14 11  1  0
 15 12  1  0
 15 14  1  0
 16 13  1  0
 16 14  1  0
M  END
>  <NAME>  (2566) 
OCTANAL DIALLYL ACETAL

>  <SYNONYMS>  (2566) 


>  <SPECTRUM TYPE>  (2566) 
MS1

>  <INSTRUMENT TYPE>  (2566) 
EI-B

>  <INSTRUMENT>  (2566) 
HITACHI M-80B

>  <ION MODE>  (2566) 
P

>  <INCHIKEY>  (2566) 
GPLKLPLXSJSSJE-UHFFFAOYSA-N

>  <FORMULA>  (2566) 
C14H26O2

>  <EXACT MASS>  (2566) 
226.193280072

>  <MW>  (2566) 
226

>  <ID>  (2566) 
JP008645

>  <CONTRIBUTOR>  (2566) 
University of Tokyo Team, {Faculty of Engineering, University of Tokyo

>  <COMMENT>  (2566) 
SMILES=CCCCCCCC(OCC=C)OCC=C
InChI=InChI=1S/C14H26O2/c1-4-7-8-9-10-11-14(15-12-5-2)16-13-6-3/h5-6,14H,2-4,7-13H2,1H3
computed SMILES=O(CC=C)C(OCC=C)CCCCCCC
accession=JP008645
date=2016.01.19 (Created 2008.10.21, modified 2011.05.06)
author=SODA AROMATIC CO., LTD.
license=CC BY-NC-SA
exact mass=226.19328
ionization energy=70 eV
ion type=[M]+*
computed spectral entropy=2.6312344827966805
computed normalized entropy=0.7525321872014219
SPLASH=splash10-002f-9200000000-a7e283353a85169fc51c
submitter=submitter = University of Tokyo Team (Faculty of Engineering, University of Tokyo)
MoNA Rating=3.75

>  <NUM PEAKS>  (2566) 
33

>  <MASS SPECTRAL PEAKS>  (2566) 
27 9.76
29 12.96
31 2.23
39 14.75
41 99.99
42 7.38
43 14.13
44 1.52
53 1.54
54 1.24
55 19.07
56 2.89
57 23.31
58 1.55
59 1.23
67 6.88
68 1.26
69 5.45
70 1.06
71 2.36
79 1.29
81 45.31
82 3.47
83 3.81
84 2.49
85 1.16
97 3.69
109 8.54
111 1.06
127 45.67
128 3
169 12.17
170 1.18

$$$$

     RDKit          2D

 14 13  0  0  0  0  0  0  0  0999 V2000
    3.2476    5.6250    0.0000 C   0  0  0  0  0  0  0  0  0  0  0  0
   -9.7428    5.6250    0.0000 C   0  0  0  0  0  0  0  0  0  0  0  0
   -7.1447   10.1250    0.0000 C   0  0  0  0  0  0  0  0  0  0  0  0
    1.9486    6.3750    0.0000 C   0  0  0  0  0  0  0  0  0  0  0  0
   -8.4437    6.3750    0.0000 C   0  0  0  0  0  0  0  0  0  0  0  0
   -7.1447    8.6250    0.0000 C   0  0  0  0  0  0  0  0  0  0  0  0
    0.6495    5.6250    0.0000 C   0  0  0  0  0  0  0  0  0  0  0  0
   -0.6495    6.3750    0.0000 C   0  0  0  0  0  0  0  0  0  0  0  0
   -1.9486    5.6250    0.0000 C   0  0  0  0  0  0  0  0  0  0  0  0
   -3.2476    6.3750    0.0000 C   0  0  0  0  0  0  0  0  0  0  0  0
   -4.5466    5.6250    0.0000 C   0  0  0  0  0  0  0  0  0  0  0  0
   -5.8457    6.3750    0.0000 C   0  0  0  0  0  0  0  0  0  0  0  0
   -7.1447    5.6250    0.0000 O   0  0  0  0  0  0  0  0  0  0  0  0
   -5.8457    7.8750    0.0000 O   0  0  0  0  0  0  0  0  0  0  0  0
  4  1  1  0
  5  2  1  0
  6  3  1  0
  7  4  1  0
  8  7  1  0
  9  8  1  0
 10  9  1  0
 11 10  1  0
 12 11  1  0
 13  5  1  0
 13 12  1  0
 14  6  1  0
 14 12  1  0
M  END
>  <NAME>  (2567) 
OCTANAL DIETHYL ACETAL

>  <SYNONYMS>  (2567) 


>  <SPECTRUM TYPE>  (2567) 
MS1

>  <INSTRUMENT TYPE>  (2567) 
EI-B

>  <INSTRUMENT>  (2567) 
HITACHI M-80B

>  <ION MODE>  (2567) 
P

>  <INCHIKEY>  (2567) 
BRKIPAWFUDCCOO-UHFFFAOYSA-N

>  <FORMULA>  (2567) 
C12H26O2

>  <EXACT MASS>  (2567) 
202.193280072

>  <MW>  (2567) 
202

>  <ID>  (2567) 
JP008644

>  <CONTRIBUTOR>  (2567) 
University of Tokyo Team, {Faculty of Engineering, University of Tokyo

>  <COMMENT>  (2567) 
SMILES=CCCCCCCC(OCC)OCC
InChI=InChI=1S/C12H26O2/c1-4-7-8-9-10-11-12(13-5-2)14-6-3/h12H,4-11H2,1-3H3
computed SMILES=O(CC)C(OCC)CCCCCCC
accession=JP008644
date=2016.01.19 (Created 2008.10.21, modified 2011.05.06)
author=SODA AROMATIC CO., LTD.
license=CC BY-NC-SA
exact mass=202.19328
ionization energy=70 eV
ion type=[M]+*
computed spectral entropy=2.908829304540611
computed normalized entropy=0.7885400812695593
SPLASH=splash10-0zi0-9300000000-c52b707990b9a8be9219
submitter=submitter = University of Tokyo Team (Faculty of Engineering, University of Tokyo)
MoNA Rating=3.75

>  <NUM PEAKS>  (2567) 
40

>  <MASS SPECTRAL PEAKS>  (2567) 
15 1.1
26 1.09
27 15.79
29 30.49
30 1.06
31 10.52
39 4.37
41 18.51
42 3.42
43 13.22
44 6.71
45 6.92
46 1.22
47 40.65
53 1.3
55 15.83
56 1.93
57 40.53
58 1.97
59 3.21
67 3
68 2.13
69 29.1
70 2.01
71 1.63
72 3.67
75 31.59
81 2.04
82 1.88
83 2.36
85 27.36
86 1.44
99 1.57
103 99.99
104 5.82
111 2.64
113 1.76
156 2.97
157 24.31
158 2.05

$$$$

     RDKit          2D

 14 13  0  0  0  0  0  0  0  0999 V2000
    3.2476    5.6250    0.0000 C   0  0  0  0  0  0  0  0  0  0  0  0
   -9.7428    5.6250    0.0000 C   0  0  0  0  0  0  0  0  0  0  0  0
   -7.1447   10.1250    0.0000 C   0  0  0  0  0  0  0  0  0  0  0  0
    1.9486    6.3750    0.0000 C   0  0  0  0  0  0  0  0  0  0  0  0
   -8.4437    6.3750    0.0000 C   0  0  0  0  0  0  0  0  0  0  0  0
   -7.1447    8.6250    0.0000 C   0  0  0  0  0  0  0  0  0  0  0  0
    0.6495    5.6250    0.0000 C   0  0  0  0  0  0  0  0  0  0  0  0
   -0.6495    6.3750    0.0000 C   0  0  0  0  0  0  0  0  0  0  0  0
   -1.9486    5.6250    0.0000 C   0  0  0  0  0  0  0  0  0  0  0  0
   -3.2476    6.3750    0.0000 C   0  0  0  0  0  0  0  0  0  0  0  0
   -4.5466    5.6250    0.0000 C   0  0  0  0  0  0  0  0  0  0  0  0
   -5.8457    6.3750    0.0000 C   0  0  0  0  0  0  0  0  0  0  0  0
   -7.1447    5.6250    0.0000 O   0  0  0  0  0  0  0  0  0  0  0  0
   -5.8457    7.8750    0.0000 O   0  0  0  0  0  0  0  0  0  0  0  0
  4  1  1  0
  5  2  1  0
  6  3  1  0
  7  4  1  0
  8  7  1  0
  9  8  1  0
 10  9  1  0
 10 11  2  0
 12 11  1  0
 13  5  1  0
 13 12  1  0
 14  6  1  0
 14 12  1  0
M  END
>  <NAME>  (2568) 
TRANS-2-OCTENAL DIETHYL ACETAL

>  <SYNONYMS>  (2568) 


>  <SPECTRUM TYPE>  (2568) 
MS1

>  <INSTRUMENT TYPE>  (2568) 
EI-B

>  <INSTRUMENT>  (2568) 
HITACHI M-80B

>  <ION MODE>  (2568) 
P

>  <INCHIKEY>  (2568) 
VTQPINQQQFJLGG-ZHACJKMWSA-N

>  <FORMULA>  (2568) 
C12H24O2

>  <EXACT MASS>  (2568) 
200.177630008

>  <MW>  (2568) 
200

>  <ID>  (2568) 
JP008643

>  <CONTRIBUTOR>  (2568) 
University of Tokyo Team, {Faculty of Engineering, University of Tokyo

>  <COMMENT>  (2568) 
SMILES=CCCCCC=CC(OCC)OCC
InChI=InChI=1S/C12H24O2/c1-4-7-8-9-10-11-12(13-5-2)14-6-3/h10-12H,4-9H2,1-3H3/b11-10+
computed SMILES=O(CC)C(OCC)C=CCCCCC
accession=JP008643
date=2016.01.19 (Created 2008.10.21, modified 2011.05.06)
author=SODA AROMATIC CO., LTD.
license=CC BY-NC-SA
exact mass=200.17763
ionization energy=70 eV
ion type=[M]+*
computed spectral entropy=3.2628575940849083
computed normalized entropy=0.8035718234710112
SPLASH=splash10-0a4i-9400000000-7dff7aafcf5923c4de15
submitter=submitter = University of Tokyo Team (Faculty of Engineering, University of Tokyo)
MoNA Rating=3.75

>  <NUM PEAKS>  (2568) 
58

>  <MASS SPECTRAL PEAKS>  (2568) 
27 14.2
29 34.73
31 3.66
39 7.17
40 1.34
41 22.02
42 3.71
43 13.77
44 1.24
45 4.31
47 15.54
51 1
53 4.29
54 1.45
55 23.36
56 2.39
57 61.29
58 2.38
59 4.06
60 1.1
65 1.07
67 15.74
68 1.99
69 11.76
70 13.34
71 3.94
73 13.31
75 9.54
77 1
79 1.76
81 3.94
82 1.43
83 12.6
84 1.73
85 54.36
86 3.47
87 2.96
95 1.43
97 1.67
98 5.48
99 2.77
101 5.31
103 16.33
109 16.29
110 2.01
111 3.13
115 1.23
116 2.04
127 2.26
129 26.33
130 2.35
143 3.72
154 1.45
155 99.99
156 10.1
157 1.19
199 1
200 1.05

$$$$

     RDKit          2D

 13 12  0  0  0  0  0  0  0  0999 V2000
    7.4695    6.1875    0.0000 C   0  0  0  0  0  0  0  0  0  0  0  0
   -2.9228    3.1875    0.0000 C   0  0  0  0  0  0  0  0  0  0  0  0
   -0.3248    7.6875    0.0000 C   0  0  0  0  0  0  0  0  0  0  0  0
    6.1704    5.4375    0.0000 C   0  0  0  0  0  0  0  0  0  0  0  0
   -1.6238    3.9375    0.0000 C   0  0  0  0  0  0  0  0  0  0  0  0
   -0.3248    6.1875    0.0000 C   0  0  0  0  0  0  0  0  0  0  0  0
    6.1704    3.9375    0.0000 C   0  0  0  0  0  0  0  0  0  0  0  0
    4.8714    3.1875    0.0000 C   0  0  0  0  0  0  0  0  0  0  0  0
    3.5724    3.9375    0.0000 C   0  0  0  0  0  0  0  0  0  0  0  0
    2.2733    3.1875    0.0000 C   0  0  0  0  0  0  0  0  0  0  0  0
    0.9743    3.9375    0.0000 C   0  0  0  0  0  0  0  0  0  0  0  0
   -0.3248    3.1875    0.0000 O   0  0  0  0  0  0  0  0  0  0  0  0
    0.9743    5.4375    0.0000 O   0  0  0  0  0  0  0  0  0  0  0  0
  4  1  1  0
  5  2  1  0
  6  3  1  0
  7  4  1  0
  7  8  2  0
  9  8  1  0
 10  9  1  0
 11 10  1  0
 12  5  1  0
 12 11  1  0
 13  6  1  0
 13 11  1  0
M  END
>  <NAME>  (2569) 
CIS-4-HEPTENAL DIETHYL ACETAL

>  <SYNONYMS>  (2569) 


>  <SPECTRUM TYPE>  (2569) 
MS1

>  <INSTRUMENT TYPE>  (2569) 
EI-B

>  <INSTRUMENT>  (2569) 
HITACHI M-80B

>  <ION MODE>  (2569) 
P

>  <INCHIKEY>  (2569) 
BOALWZNGHWYCRG-FPLPWBNLSA-N

>  <FORMULA>  (2569) 
C11H22O2

>  <EXACT MASS>  (2569) 
186.161979944

>  <MW>  (2569) 
186

>  <ID>  (2569) 
JP008642

>  <CONTRIBUTOR>  (2569) 
University of Tokyo Team, {Faculty of Engineering, University of Tokyo

>  <COMMENT>  (2569) 
SMILES=CCC=CCCC(OCC)OCC
InChI=InChI=1S/C11H22O2/c1-4-7-8-9-10-11(12-5-2)13-6-3/h7-8,11H,4-6,9-10H2,1-3H3/b8-7-
computed SMILES=O(CC)C(OCC)CCC=CCC
accession=JP008642
date=2016.01.19 (Created 2008.10.21, modified 2011.05.06)
author=SODA AROMATIC CO., LTD.
license=CC BY-NC-SA
exact mass=186.16198
ionization energy=70 eV
ion type=[M]+*
computed spectral entropy=3.456751874388581
computed normalized entropy=0.8250684333756441
SPLASH=splash10-0fba-9100000000-cf38b6f752351324c139
submitter=submitter = University of Tokyo Team (Faculty of Engineering, University of Tokyo)
MoNA Rating=3.75

>  <NUM PEAKS>  (2569) 
66

>  <MASS SPECTRAL PEAKS>  (2569) 
15 2.96
19 2.08
26 3.46
27 37.98
29 60.34
30 2.29
31 25.59
39 26.35
41 67.46
42 6.46
43 26.18
44 15.58
45 21.24
46 3.3
47 88.9
51 2.74
52 1.24
53 11
54 3.65
55 41.95
56 3.93
57 21.7
58 3.19
59 5.09
60 1.31
61 1.23
65 2.56
66 2.1
67 14.51
68 33.56
69 48.25
70 6.86
71 2.31
72 17.39
73 6.93
74 1.13
75 68
76 2.14
77 3.18
79 6.8
81 6.04
83 40.34
84 4.64
85 3.18
86 1.7
91 1.28
93 2.44
94 21.84
95 51.49
96 5.85
97 4.02
98 1.31
101 3.22
103 99.99
104 4.36
111 33.7
112 3.35
113 3.63
116 1.12
125 1.09
129 8.52
130 1
140 11.83
141 13.75
142 1.49
143 1

$$$$

     RDKit          2D

 12 11  0  0  0  0  0  0  0  0999 V2000
    2.5981    4.5000    0.0000 C   0  0  0  0  0  0  0  0  0  0  0  0
   -7.7942    4.5000    0.0000 C   0  0  0  0  0  0  0  0  0  0  0  0
   -5.1962    9.0000    0.0000 C   0  0  0  0  0  0  0  0  0  0  0  0
    1.2990    5.2500    0.0000 C   0  0  0  0  0  0  0  0  0  0  0  0
   -6.4952    5.2500    0.0000 C   0  0  0  0  0  0  0  0  0  0  0  0
   -5.1962    7.5000    0.0000 C   0  0  0  0  0  0  0  0  0  0  0  0
    0.0000    4.5000    0.0000 C   0  0  0  0  0  0  0  0  0  0  0  0
   -1.2990    5.2500    0.0000 C   0  0  0  0  0  0  0  0  0  0  0  0
   -2.5981    4.5000    0.0000 C   0  0  0  0  0  0  0  0  0  0  0  0
   -3.8971    5.2500    0.0000 C   0  0  0  0  0  0  0  0  0  0  0  0
   -5.1962    4.5000    0.0000 O   0  0  0  0  0  0  0  0  0  0  0  0
   -3.8971    6.7500    0.0000 O   0  0  0  0  0  0  0  0  0  0  0  0
  4  1  1  0
  5  2  1  0
  6  3  1  0
  7  4  1  0
  8  7  1  0
  9  8  1  0
 10  9  1  0
 11  5  1  0
 11 10  1  0
 12  6  1  0
 12 10  1  0
M  END
>  <NAME>  (2570) 
HEXANAL DIETHYL ACETAL

>  <SYNONYMS>  (2570) 


>  <SPECTRUM TYPE>  (2570) 
MS1

>  <INSTRUMENT TYPE>  (2570) 
EI-B

>  <INSTRUMENT>  (2570) 
HITACHI M-80B

>  <ION MODE>  (2570) 
P

>  <INCHIKEY>  (2570) 
WNHOMUCDFNTSEV-UHFFFAOYSA-N

>  <FORMULA>  (2570) 
C10H22O2

>  <EXACT MASS>  (2570) 
174.161979944

>  <MW>  (2570) 
174

>  <ID>  (2570) 
JP008641

>  <CONTRIBUTOR>  (2570) 
University of Tokyo Team, {Faculty of Engineering, University of Tokyo

>  <COMMENT>  (2570) 
SMILES=CCCCCC(OCC)OCC
InChI=InChI=1S/C10H22O2/c1-4-7-8-9-10(11-5-2)12-6-3/h10H,4-9H2,1-3H3
computed SMILES=O(CC)C(OCC)CCCCC
accession=JP008641
date=2016.01.19 (Created 2008.10.21, modified 2011.05.06)
author=SODA AROMATIC CO., LTD.
license=CC BY-NC-SA
exact mass=174.16198
ionization energy=70 eV
ion type=[M]+*
computed spectral entropy=2.76730952881233
computed normalized entropy=0.7783512277706626
SPLASH=splash10-0fb9-9300000000-861aea6444feccb324ea
submitter=submitter = University of Tokyo Team (Faculty of Engineering, University of Tokyo)
MoNA Rating=3.75

>  <NUM PEAKS>  (2570) 
35

>  <MASS SPECTRAL PEAKS>  (2570) 
15 1.72
18 2.32
19 1.93
26 1.44
27 23.03
28 3.07
29 45.54
30 1.32
31 6.28
39 4.8
41 20.37
42 4.83
43 13.3
44 13.19
45 6.1
47 65.98
53 1.4
55 35.11
56 2.68
57 9.03
58 1.76
59 4.65
70 1.23
71 1.15
72 6.19
75 40.87
76 1.21
83 34.27
84 1.77
85 3.34
101 1.42
103 99.99
104 4.41
129 38.83
130 3.03

$$$$

     RDKit          2D

 12 11  0  0  0  0  0  0  0  0999 V2000
    2.5981    4.5000    0.0000 C   0  0  0  0  0  0  0  0  0  0  0  0
   -7.7942    4.5000    0.0000 C   0  0  0  0  0  0  0  0  0  0  0  0
   -5.1962    9.0000    0.0000 C   0  0  0  0  0  0  0  0  0  0  0  0
    1.2990    5.2500    0.0000 C   0  0  0  0  0  0  0  0  0  0  0  0
   -6.4952    5.2500    0.0000 C   0  0  0  0  0  0  0  0  0  0  0  0
   -5.1962    7.5000    0.0000 C   0  0  0  0  0  0  0  0  0  0  0  0
    0.0000    4.5000    0.0000 C   0  0  0  0  0  0  0  0  0  0  0  0
   -1.2990    5.2500    0.0000 C   0  0  0  0  0  0  0  0  0  0  0  0
   -2.5981    4.5000    0.0000 C   0  0  0  0  0  0  0  0  0  0  0  0
   -3.8971    5.2500    0.0000 C   0  0  0  0  0  0  0  0  0  0  0  0
   -5.1962    4.5000    0.0000 O   0  0  0  0  0  0  0  0  0  0  0  0
   -3.8971    6.7500    0.0000 O   0  0  0  0  0  0  0  0  0  0  0  0
  4  1  1  0
  5  2  1  0
  6  3  1  0
  7  4  1  0
  8  7  1  0
  8  9  2  0
 10  9  1  0
 11  5  1  0
 11 10  1  0
 12  6  1  0
 12 10  1  0
M  END
>  <NAME>  (2571) 
TRANS-2-HEXENAL DIETHYL ACETAL

>  <SYNONYMS>  (2571) 


>  <SPECTRUM TYPE>  (2571) 
MS1

>  <INSTRUMENT TYPE>  (2571) 
EI-B

>  <INSTRUMENT>  (2571) 
HITACHI M-80B

>  <ION MODE>  (2571) 
P

>  <INCHIKEY>  (2571) 
WMQKYHTZGYIHHD-CMDGGOBGSA-N

>  <FORMULA>  (2571) 
C10H20O2

>  <EXACT MASS>  (2571) 
172.14632988

>  <MW>  (2571) 
172

>  <ID>  (2571) 
JP008640

>  <CONTRIBUTOR>  (2571) 
University of Tokyo Team, {Faculty of Engineering, University of Tokyo

>  <COMMENT>  (2571) 
SMILES=CCCC=CC(OCC)OCC
InChI=InChI=1S/C10H20O2/c1-4-7-8-9-10(11-5-2)12-6-3/h8-10H,4-7H2,1-3H3/b9-8+
computed SMILES=O(CC)C(OCC)C=CCCC
accession=JP008640
date=2016.01.19 (Created 2008.10.21, modified 2011.05.06)
author=SODA AROMATIC CO., LTD.
license=CC BY-NC-SA
exact mass=172.14633
ionization energy=70 eV
ion type=[M]+*
computed spectral entropy=2.9313005032544543
computed normalized entropy=0.7700447599785287
SPLASH=splash10-056r-9200000000-df0ab4050243adc6680b
submitter=submitter = University of Tokyo Team (Faculty of Engineering, University of Tokyo)
MoNA Rating=3.75

>  <NUM PEAKS>  (2571) 
45

>  <MASS SPECTRAL PEAKS>  (2571) 
15 1.58
26 1.27
27 23.03
28 1.55
29 42.12
30 1.22
31 3.25
39 8.06
40 1.85
41 22.03
42 4.82
43 14.19
44 1.11
45 3.72
47 17.09
51 1.15
53 3.66
55 13.99
56 1.18
57 99.99
58 2.77
67 1.69
68 1.03
69 9.48
70 7.38
71 3.24
73 9.85
75 7.41
81 6.94
83 3.99
85 24.62
86 1.28
87 2.39
97 1.7
98 2.36
99 8.75
101 2.68
103 7.63
115 2.12
116 1.67
127 80.49
128 5.92
129 8.28
130 1.17
143 1.88

$$$$

     RDKit          2D

 11 10  0  0  0  0  0  0  0  0999 V2000
    2.5981    2.2500    0.0000 C   0  0  0  0  0  0  0  0  0  0  0  0
    0.0000    6.7500    0.0000 C   0  0  0  0  0  0  0  0  0  0  0  0
   -5.1962    2.2500    0.0000 C   0  0  0  0  0  0  0  0  0  0  0  0
   -3.8971    4.5000    0.0000 C   0  0  0  0  0  0  0  0  0  0  0  0
    1.2990    3.0000    0.0000 C   0  0  0  0  0  0  0  0  0  0  0  0
    0.0000    5.2500    0.0000 C   0  0  0  0  0  0  0  0  0  0  0  0
   -2.5981    2.2500    0.0000 C   0  0  0  0  0  0  0  0  0  0  0  0
   -3.8971    3.0000    0.0000 C   0  0  0  0  0  0  0  0  0  0  0  0
   -1.2990    3.0000    0.0000 C   0  0  0  0  0  0  0  0  0  0  0  0
    0.0000    2.2500    0.0000 O   0  0  0  0  0  0  0  0  0  0  0  0
   -1.2990    4.5000    0.0000 O   0  0  0  0  0  0  0  0  0  0  0  0
  5  1  1  0
  6  2  1  0
  8  3  1  0
  8  4  1  0
  8  7  1  0
  9  7  1  0
 10  5  1  0
 10  9  1  0
 11  6  1  0
 11  9  1  0
M  END
>  <NAME>  (2572) 
ISOVALERALDEHYDE DIETHYL ACETAL

>  <SYNONYMS>  (2572) 
3-METHYLBUTANAL DIETHYL ACETAL

>  <SPECTRUM TYPE>  (2572) 
MS1

>  <INSTRUMENT TYPE>  (2572) 
EI-B

>  <INSTRUMENT>  (2572) 
HITACHI M-80B

>  <ION MODE>  (2572) 
P

>  <INCHIKEY>  (2572) 
DDGBOLJFAMEBOE-UHFFFAOYSA-N

>  <FORMULA>  (2572) 
C9H20O2

>  <EXACT MASS>  (2572) 
160.14632988

>  <MW>  (2572) 
160

>  <ID>  (2572) 
JP008639

>  <CONTRIBUTOR>  (2572) 
University of Tokyo Team, {Faculty of Engineering, University of Tokyo

>  <COMMENT>  (2572) 
SMILES=CCOC(OCC)CC(C)C
InChI=InChI=1S/C9H20O2/c1-5-10-9(11-6-2)7-8(3)4/h8-9H,5-7H2,1-4H3
computed SMILES=O(CC)C(OCC)CC(C)C
accession=JP008639
date=2016.01.19 (Created 2008.10.21, modified 2011.05.06)
author=SODA AROMATIC CO., LTD.
license=CC BY-NC-SA
exact mass=160.14633
ionization energy=70 eV
ion type=[M]+*
computed spectral entropy=2.904499196827115
computed normalized entropy=0.8105159332793878
SPLASH=splash10-0fvj-9200000000-6411138c03f16d03262b
submitter=submitter = University of Tokyo Team (Faculty of Engineering, University of Tokyo)
MoNA Rating=3.75

>  <NUM PEAKS>  (2572) 
36

>  <MASS SPECTRAL PEAKS>  (2572) 
15 3.11
19 2.17
26 2
27 29.95
29 45.34
30 1.62
31 15.01
39 12.26
41 29.9
42 3.56
43 38.64
44 12.83
45 34.13
46 1.65
47 88.92
53 2.84
55 2.7
57 7.5
59 21.14
61 1.8
68 1
69 45.99
70 2.2
71 33.37
72 3.94
73 3.72
75 55.87
76 1.54
85 1.39
87 4
99 14.02
103 99.99
104 4.39
114 3.74
115 45.14
116 2.74

$$$$

     RDKit          2D

 11 10  0  0  0  0  0  0  0  0999 V2000
   -8.4437    3.3750    0.0000 C   0  0  0  0  0  0  0  0  0  0  0  0
    0.6495    2.6250    0.0000 C   0  0  0  0  0  0  0  0  0  0  0  0
   -1.9486    7.1250    0.0000 C   0  0  0  0  0  0  0  0  0  0  0  0
   -7.1447    2.6250    0.0000 C   0  0  0  0  0  0  0  0  0  0  0  0
   -0.6495    3.3750    0.0000 C   0  0  0  0  0  0  0  0  0  0  0  0
   -1.9486    5.6250    0.0000 C   0  0  0  0  0  0  0  0  0  0  0  0
   -5.8457    3.3750    0.0000 C   0  0  0  0  0  0  0  0  0  0  0  0
   -4.5466    2.6250    0.0000 C   0  0  0  0  0  0  0  0  0  0  0  0
   -3.2476    3.3750    0.0000 C   0  0  0  0  0  0  0  0  0  0  0  0
   -1.9486    2.6250    0.0000 O   0  0  0  0  0  0  0  0  0  0  0  0
   -3.2476    4.8750    0.0000 O   0  0  0  0  0  0  0  0  0  0  0  0
  4  1  1  0
  5  2  1  0
  6  3  1  0
  7  4  1  0
  8  7  1  0
  9  8  1  0
 10  5  1  0
 10  9  1  0
 11  6  1  0
 11  9  1  0
M  END
>  <NAME>  (2573) 
VALERALDEHYDE DIETHYL ACETAL

>  <SYNONYMS>  (2573) 


>  <SPECTRUM TYPE>  (2573) 
MS1

>  <INSTRUMENT TYPE>  (2573) 
EI-B

>  <INSTRUMENT>  (2573) 
HITACHI M-80B

>  <ION MODE>  (2573) 
P

>  <INCHIKEY>  (2573) 
XCWKYQWOLSOBCC-UHFFFAOYSA-N

>  <FORMULA>  (2573) 
C9H20O2

>  <EXACT MASS>  (2573) 
160.14632988

>  <MW>  (2573) 
160

>  <ID>  (2573) 
JP008638

>  <CONTRIBUTOR>  (2573) 
University of Tokyo Team, {Faculty of Engineering, University of Tokyo

>  <COMMENT>  (2573) 
SMILES=CCCCC(OCC)OCC
InChI=InChI=1S/C9H20O2/c1-4-7-8-9(10-5-2)11-6-3/h9H,4-8H2,1-3H3
computed SMILES=O(CC)C(OCC)CCCC
accession=JP008638
date=2016.01.19 (Created 2008.10.21, modified 2011.05.06)
author=SODA AROMATIC CO., LTD.
license=CC BY-NC-SA
exact mass=160.14633
ionization energy=70 eV
ion type=[M]+*
computed spectral entropy=2.8288656027039063
computed normalized entropy=0.7834200807495975
SPLASH=splash10-0gdj-9300000000-7ff997e019a72bfc9e85
submitter=submitter = University of Tokyo Team (Faculty of Engineering, University of Tokyo)
MoNA Rating=3.75

>  <NUM PEAKS>  (2573) 
37

>  <MASS SPECTRAL PEAKS>  (2573) 
15 1.95
19 1.68
26 2.1
27 27.43
29 48.84
30 1.87
31 14.13
39 7.85
41 27.47
42 2.68
43 11.32
44 10.02
45 13.83
46 1.24
47 74.27
53 1.08
55 3.29
57 38.22
58 6.37
59 5.36
60 1
67 1.13
69 67.6
70 3.4
71 1.25
72 2.41
75 50.36
76 1.29
85 16.62
86 1.31
87 11.38
88 1.85
103 99.99
104 5.55
114 3.65
115 61.83
116 3.92

$$$$

     RDKit          2D

 12 11  0  0  0  0  0  0  0  0999 V2000
   -3.8971    2.2500    0.0000 C   0  0  0  0  0  0  0  0  0  0  0  0
    5.1962    4.5000    0.0000 C   0  0  0  0  0  0  0  0  0  0  0  0
    2.5981    9.0000    0.0000 C   0  0  0  0  0  0  0  0  0  0  0  0
   -2.5981    3.0000    0.0000 C   0  0  0  0  0  0  0  0  0  0  0  0
    3.8971    5.2500    0.0000 C   0  0  0  0  0  0  0  0  0  0  0  0
    2.5981    7.5000    0.0000 C   0  0  0  0  0  0  0  0  0  0  0  0
   -2.5981    4.5000    0.0000 C   0  0  0  0  0  0  0  0  0  0  0  0
   -1.2990    5.2500    0.0000 C   0  0  0  0  0  0  0  0  0  0  0  0
    0.0000    4.5000    0.0000 C   0  0  0  0  0  0  0  0  0  0  0  0
    1.2990    5.2500    0.0000 C   0  0  0  0  0  0  0  0  0  0  0  0
    2.5981    4.5000    0.0000 O   0  0  0  0  0  0  0  0  0  0  0  0
    1.2990    6.7500    0.0000 O   0  0  0  0  0  0  0  0  0  0  0  0
  4  1  1  0
  5  2  1  0
  6  3  1  0
  7  4  1  0
  7  8  2  0
  9  8  1  0
 10  9  1  0
 11  5  1  0
 11 10  1  0
 12  6  1  0
 12 10  1  0
M  END
>  <NAME>  (2574) 
CIS-3-HEXENAL DIETHYL ACETAL

>  <SYNONYMS>  (2574) 


>  <SPECTRUM TYPE>  (2574) 
MS1

>  <INSTRUMENT TYPE>  (2574) 
EI-B

>  <INSTRUMENT>  (2574) 
HITACHI M-80B

>  <ION MODE>  (2574) 
P

>  <INCHIKEY>  (2574) 
IOBHVJHSBREPFR-FPLPWBNLSA-N

>  <FORMULA>  (2574) 
C10H20O2

>  <EXACT MASS>  (2574) 
172.14632988

>  <MW>  (2574) 
172

>  <ID>  (2574) 
JP008637

>  <CONTRIBUTOR>  (2574) 
University of Tokyo Team, {Faculty of Engineering, University of Tokyo

>  <COMMENT>  (2574) 
SMILES=CCC=CCC(OCC)OCC
InChI=InChI=1S/C10H20O2/c1-4-7-8-9-10(11-5-2)12-6-3/h7-8,10H,4-6,9H2,1-3H3/b8-7-
computed SMILES=O(CC)C(OCC)CC=CCC
accession=JP008637
date=2016.01.19 (Created 2008.10.21, modified 2011.05.06)
author=SODA AROMATIC CO., LTD.
license=CC BY-NC-SA
exact mass=172.14633
ionization energy=70 eV
ion type=[M]+*
computed spectral entropy=2.7277988499224626
computed normalized entropy=0.7672382008021256
SPLASH=splash10-0fba-9200000000-c08490ba12f429228ca6
submitter=submitter = University of Tokyo Team (Faculty of Engineering, University of Tokyo)
MoNA Rating=3.75

>  <NUM PEAKS>  (2574) 
35

>  <MASS SPECTRAL PEAKS>  (2574) 
15 1.31
19 1.88
26 1.14
27 20.4
28 3.41
29 39.98
31 4.42
39 11.1
40 29.55
41 29.55
42 3.53
43 10.03
44 2.79
45 4.97
47 99.99
53 4.67
54 1.66
55 20
56 1.2
57 9.67
59 1.93
67 2.31
69 6.9
70 1.08
72 1.13
75 55.98
76 1.49
81 16.98
82 1.12
83 4.64
85 4.52
103 85.86
104 4.64
127 17.07
128 1.3

$$$$

     RDKit          2D

  9  8  0  0  0  0  0  0  0  0999 V2000
   -3.2476    6.3750    0.0000 C   0  0  0  0  0  0  0  0  0  0  0  0
    1.9486    3.3750    0.0000 C   0  0  0  0  0  0  0  0  0  0  0  0
   -5.8457    3.3750    0.0000 C   0  0  0  0  0  0  0  0  0  0  0  0
   -1.9486    5.6250    0.0000 C   0  0  0  0  0  0  0  0  0  0  0  0
    0.6495    4.1250    0.0000 C   0  0  0  0  0  0  0  0  0  0  0  0
   -4.5466    4.1250    0.0000 C   0  0  0  0  0  0  0  0  0  0  0  0
   -1.9486    4.1250    0.0000 C   0  0  0  0  0  0  0  0  0  0  0  0
   -0.6495    3.3750    0.0000 O   0  0  0  0  0  0  0  0  0  0  0  0
   -3.2476    3.3750    0.0000 O   0  0  0  0  0  0  0  0  0  0  0  0
  4  1  1  0
  5  2  1  0
  6  3  1  0
  7  4  1  0
  8  5  1  0
  8  7  1  0
  9  6  1  0
  9  7  1  0
M  END
>  <NAME>  (2575) 
PROPANAL DIETHYL ACETAL

>  <SYNONYMS>  (2575) 


>  <SPECTRUM TYPE>  (2575) 
MS1

>  <INSTRUMENT TYPE>  (2575) 
EI-B

>  <INSTRUMENT>  (2575) 
HITACHI M-80B

>  <ION MODE>  (2575) 
P

>  <INCHIKEY>  (2575) 
MBNMGGKBGCIEGF-UHFFFAOYSA-N

>  <FORMULA>  (2575) 
C7H16O2

>  <EXACT MASS>  (2575) 
132.115029752

>  <MW>  (2575) 
132

>  <ID>  (2575) 
JP008636

>  <CONTRIBUTOR>  (2575) 
University of Tokyo Team, {Faculty of Engineering, University of Tokyo

>  <COMMENT>  (2575) 
SMILES=CCOC(CC)OCC
InChI=InChI=1S/C7H16O2/c1-4-7(8-5-2)9-6-3/h7H,4-6H2,1-3H3
computed SMILES=O(CC)C(OCC)CC
accession=JP008636
date=2016.01.19 (Created 2008.10.21, modified 2011.05.06)
author=SODA AROMATIC CO., LTD.
license=CC BY-NC-SA
exact mass=132.11503
ionization energy=70 eV
ion type=[M]+*
computed spectral entropy=2.5171171581662963
computed normalized entropy=0.781986412374066
SPLASH=splash10-0a71-9100000000-0dfc839fd0b04b6474be
submitter=submitter = University of Tokyo Team (Faculty of Engineering, University of Tokyo)
MoNA Rating=3.75

>  <NUM PEAKS>  (2575) 
25

>  <MASS SPECTRAL PEAKS>  (2575) 
15 2.44
19 1.63
26 2.56
27 22.83
29 38.72
30 3.03
31 30.05
39 2.75
41 11.24
42 1.57
43 4.8
45 8.43
47 62.24
57 17.45
58 9.71
59 99.99
60 2.83
75 36.15
76 1.15
78 1.28
86 4.45
87 67.39
88 3.65
103 48.17
104 2.14

$$$$

     RDKit          2D

  8  7  0  0  0  0  0  0  0  0999 V2000
    1.9486    3.3750    0.0000 C   0  0  0  0  0  0  0  0  0  0  0  0
   -5.8457    3.3750    0.0000 C   0  0  0  0  0  0  0  0  0  0  0  0
   -1.9486    5.6250    0.0000 C   0  0  0  0  0  0  0  0  0  0  0  0
    0.6495    4.1250    0.0000 C   0  0  0  0  0  0  0  0  0  0  0  0
   -4.5466    4.1250    0.0000 C   0  0  0  0  0  0  0  0  0  0  0  0
   -1.9486    4.1250    0.0000 C   0  0  0  0  0  0  0  0  0  0  0  0
   -0.6495    3.3750    0.0000 O   0  0  0  0  0  0  0  0  0  0  0  0
   -3.2476    3.3750    0.0000 O   0  0  0  0  0  0  0  0  0  0  0  0
  4  1  1  0
  5  2  1  0
  6  3  1  0
  7  4  1  0
  7  6  1  0
  8  5  1  0
  8  6  1  0
M  END
>  <NAME>  (2576) 
ACETALDEHYDE DIETHYL ACETAL

>  <SYNONYMS>  (2576) 


>  <SPECTRUM TYPE>  (2576) 
MS1

>  <INSTRUMENT TYPE>  (2576) 
EI-B

>  <INSTRUMENT>  (2576) 
HITACHI M-80B

>  <ION MODE>  (2576) 
P

>  <INCHIKEY>  (2576) 
DHKHKXVYLBGOIT-UHFFFAOYSA-N

>  <FORMULA>  (2576) 
C6H14O2

>  <EXACT MASS>  (2576) 
118.099379688

>  <MW>  (2576) 
118

>  <ID>  (2576) 
JP008635

>  <CONTRIBUTOR>  (2576) 
University of Tokyo Team, {Faculty of Engineering, University of Tokyo

>  <COMMENT>  (2576) 
SMILES=CCOC(C)OCC
InChI=InChI=1S/C6H14O2/c1-4-7-6(3)8-5-2/h6H,4-5H2,1-3H3
computed SMILES=O(CC)C(OCC)C
accession=JP008635
date=2016.01.19 (Created 2008.10.21, modified 2011.05.06)
author=SODA AROMATIC CO., LTD.
license=CC BY-NC-SA
exact mass=118.09938
ionization energy=70 eV
ion type=[M]+*
computed spectral entropy=2.132107837794585
computed normalized entropy=0.7241134399050024
SPLASH=splash10-0002-9000000000-1f9d4f5641ee98603aa4
submitter=submitter = University of Tokyo Team (Faculty of Engineering, University of Tokyo)
MoNA Rating=3.75

>  <NUM PEAKS>  (2576) 
19

>  <MASS SPECTRAL PEAKS>  (2576) 
15 4.56
19 1.44
26 2.07
27 14.14
29 16.43
30 1.11
31 5.57
42 1.38
43 18.92
44 7.02
45 99.99
46 2.79
47 19.54
61 3.37
72 1.54
73 59.64
74 2.7
75 6.23
103 15.33

$$$$

     RDKit          2D

 16 15  0  0  0  0  0  0  0  0999 V2000
    3.5724    7.3125    0.0000 C   0  0  0  0  0  0  0  0  0  0  0  0
   -8.1190    9.5625    0.0000 C   0  0  0  0  0  0  0  0  0  0  0  0
  -12.0161    7.3125    0.0000 C   0  0  0  0  0  0  0  0  0  0  0  0
  -10.7171    5.0625    0.0000 C   0  0  0  0  0  0  0  0  0  0  0  0
    2.2733    8.0625    0.0000 C   0  0  0  0  0  0  0  0  0  0  0  0
    0.9743    7.3125    0.0000 C   0  0  0  0  0  0  0  0  0  0  0  0
   -0.3248    8.0625    0.0000 C   0  0  0  0  0  0  0  0  0  0  0  0
   -1.6238    7.3125    0.0000 C   0  0  0  0  0  0  0  0  0  0  0  0
   -2.9228    8.0625    0.0000 C   0  0  0  0  0  0  0  0  0  0  0  0
   -4.2219    7.3125    0.0000 C   0  0  0  0  0  0  0  0  0  0  0  0
   -5.5209    8.0625    0.0000 C   0  0  0  0  0  0  0  0  0  0  0  0
   -6.8200    7.3125    0.0000 C   0  0  0  0  0  0  0  0  0  0  0  0
   -8.1190    8.0625    0.0000 C   0  0  0  0  0  0  0  0  0  0  0  0
   -9.4180    7.3125    0.0000 C   0  0  0  0  0  0  0  0  0  0  0  0
  -10.7171    8.0625    0.0000 O   0  0  0  0  0  0  0  0  0  0  0  0
   -9.4180    5.8125    0.0000 O   0  0  0  0  0  0  0  0  0  0  0  0
  5  1  1  0
  6  5  1  0
  7  6  1  0
  8  7  1  0
  9  8  1  0
 10  9  1  0
 11 10  1  0
 12 11  1  0
 13  2  1  0
 13 12  1  0
 14 13  1  0
 15  3  1  0
 15 14  1  0
 16  4  1  0
 16 14  1  0
M  END
>  <NAME>  (2577) 
2-METHYLUNDECANAL DIMETHYL ACETAL

>  <SYNONYMS>  (2577) 


>  <SPECTRUM TYPE>  (2577) 
MS1

>  <INSTRUMENT TYPE>  (2577) 
EI-B

>  <INSTRUMENT>  (2577) 
HITACHI M-80B

>  <ION MODE>  (2577) 
P

>  <INCHIKEY>  (2577) 
NJXYRZMLVYMJHM-UHFFFAOYSA-N

>  <FORMULA>  (2577) 
C14H30O2

>  <EXACT MASS>  (2577) 
230.2245802

>  <MW>  (2577) 
230

>  <ID>  (2577) 
JP008634

>  <CONTRIBUTOR>  (2577) 
University of Tokyo Team, {Faculty of Engineering, University of Tokyo

>  <COMMENT>  (2577) 
SMILES=CCCCCCCCCC(C)C(OC)OC
InChI=InChI=1S/C14H30O2/c1-5-6-7-8-9-10-11-12-13(2)14(15-3)16-4/h13-14H,5-12H2,1-4H3
computed SMILES=O(C)C(OC)C(C)CCCCCCCCC
accession=JP008634
date=2016.01.19 (Created 2008.10.21, modified 2011.05.06)
author=SODA AROMATIC CO., LTD.
license=CC BY-NC-SA
exact mass=230.22458
ionization energy=70 eV
ion type=[M]+*
computed spectral entropy=1.7436532990134221
computed normalized entropy=0.564098787164505
SPLASH=splash10-004i-9000000000-ce4f91c50e5d17394c68
submitter=submitter = University of Tokyo Team (Faculty of Engineering, University of Tokyo)
MoNA Rating=3.75

>  <NUM PEAKS>  (2577) 
22

>  <MASS SPECTRAL PEAKS>  (2577) 
27 1.46
29 4.18
31 1.79
39 1.04
41 7.67
42 1.56
43 4.94
45 3.57
47 4.82
55 5.22
56 1
57 1.64
59 1.29
69 2.72
71 1.58
72 3.32
75 99.99
76 3.25
83 1.12
85 6.08
97 1.15
199 1.64

$$$$

     RDKit          2D

 16 15  0  0  0  0  0  0  0  0999 V2000
    4.5466    7.1250    0.0000 C   0  0  0  0  0  0  0  0  0  0  0  0
  -12.3409    7.8750    0.0000 C   0  0  0  0  0  0  0  0  0  0  0  0
  -11.0418   10.1250    0.0000 C   0  0  0  0  0  0  0  0  0  0  0  0
    3.2476    7.8750    0.0000 C   0  0  0  0  0  0  0  0  0  0  0  0
    1.9486    7.1250    0.0000 C   0  0  0  0  0  0  0  0  0  0  0  0
    0.6495    7.8750    0.0000 C   0  0  0  0  0  0  0  0  0  0  0  0
   -0.6495    7.1250    0.0000 C   0  0  0  0  0  0  0  0  0  0  0  0
   -1.9486    7.8750    0.0000 C   0  0  0  0  0  0  0  0  0  0  0  0
   -3.2476    7.1250    0.0000 C   0  0  0  0  0  0  0  0  0  0  0  0
   -4.5466    7.8750    0.0000 C   0  0  0  0  0  0  0  0  0  0  0  0
   -5.8457    7.1250    0.0000 C   0  0  0  0  0  0  0  0  0  0  0  0
   -7.1447    7.8750    0.0000 C   0  0  0  0  0  0  0  0  0  0  0  0
   -8.4437    7.1250    0.0000 C   0  0  0  0  0  0  0  0  0  0  0  0
   -9.7428    7.8750    0.0000 C   0  0  0  0  0  0  0  0  0  0  0  0
  -11.0418    7.1250    0.0000 O   0  0  0  0  0  0  0  0  0  0  0  0
   -9.7428    9.3750    0.0000 O   0  0  0  0  0  0  0  0  0  0  0  0
  4  1  1  0
  5  4  1  0
  6  5  1  0
  7  6  1  0
  8  7  1  0
  9  8  1  0
 10  9  1  0
 11 10  1  0
 12 11  1  0
 13 12  1  0
 14 13  1  0
 15  2  1  0
 15 14  1  0
 16  3  1  0
 16 14  1  0
M  END
>  <NAME>  (2578) 
DODECANAL DIMETHYL ACETAL

>  <SYNONYMS>  (2578) 


>  <SPECTRUM TYPE>  (2578) 
MS1

>  <INSTRUMENT TYPE>  (2578) 
EI-B

>  <INSTRUMENT>  (2578) 
HITACHI M-80B

>  <ION MODE>  (2578) 
P

>  <INCHIKEY>  (2578) 
AJUWUYJULVYGRA-UHFFFAOYSA-N

>  <FORMULA>  (2578) 
C14H30O2

>  <EXACT MASS>  (2578) 
230.2245802

>  <MW>  (2578) 
230

>  <ID>  (2578) 
JP008633

>  <CONTRIBUTOR>  (2578) 
University of Tokyo Team, {Faculty of Engineering, University of Tokyo

>  <COMMENT>  (2578) 
SMILES=CCCCCCCCCCCC(OC)OC
InChI=InChI=1S/C14H30O2/c1-4-5-6-7-8-9-10-11-12-13-14(15-2)16-3/h14H,4-13H2,1-3H3
computed SMILES=O(C)C(OC)CCCCCCCCCCC
accession=JP008633
date=2016.01.19 (Created 2008.10.21, modified 2011.05.06)
author=SODA AROMATIC CO., LTD.
license=CC BY-NC-SA
exact mass=230.22458
ionization energy=70 eV
ion type=[M]+*
computed spectral entropy=2.1063662874834788
computed normalized entropy=0.6390990735039348
SPLASH=splash10-004i-9000000000-2befc0e83f7324116d00
submitter=submitter = University of Tokyo Team (Faculty of Engineering, University of Tokyo)
MoNA Rating=3.75

>  <NUM PEAKS>  (2578) 
27

>  <MASS SPECTRAL PEAKS>  (2578) 
27 2.72
29 5.59
31 2.7
39 1.58
41 9.55
42 1.85
43 6.02
45 3.94
47 4.42
55 8.71
56 1.25
57 2.22
58 1
59 1.47
67 1.15
69 3.12
71 2.8
72 3.72
75 99.99
76 3.32
81 1.07
83 1.35
85 26.19
86 1.18
97 1.43
198 1.54
199 2.45

$$$$

     RDKit          2D

 14 13  0  0  0  0  0  0  0  0999 V2000
    3.8971    6.0000    0.0000 C   0  0  0  0  0  0  0  0  0  0  0  0
  -10.3923    6.7500    0.0000 C   0  0  0  0  0  0  0  0  0  0  0  0
   -9.0933    9.0000    0.0000 C   0  0  0  0  0  0  0  0  0  0  0  0
    2.5981    6.7500    0.0000 C   0  0  0  0  0  0  0  0  0  0  0  0
    1.2990    6.0000    0.0000 C   0  0  0  0  0  0  0  0  0  0  0  0
    0.0000    6.7500    0.0000 C   0  0  0  0  0  0  0  0  0  0  0  0
   -1.2990    6.0000    0.0000 C   0  0  0  0  0  0  0  0  0  0  0  0
   -2.5981    6.7500    0.0000 C   0  0  0  0  0  0  0  0  0  0  0  0
   -3.8971    6.0000    0.0000 C   0  0  0  0  0  0  0  0  0  0  0  0
   -5.1962    6.7500    0.0000 C   0  0  0  0  0  0  0  0  0  0  0  0
   -6.4952    6.0000    0.0000 C   0  0  0  0  0  0  0  0  0  0  0  0
   -7.7942    6.7500    0.0000 C   0  0  0  0  0  0  0  0  0  0  0  0
   -9.0933    6.0000    0.0000 O   0  0  0  0  0  0  0  0  0  0  0  0
   -7.7942    8.2500    0.0000 O   0  0  0  0  0  0  0  0  0  0  0  0
  4  1  1  0
  5  4  1  0
  6  5  1  0
  7  6  1  0
  8  7  1  0
  9  8  1  0
 10  9  1  0
 11 10  1  0
 12 11  1  0
 13  2  1  0
 13 12  1  0
 14  3  1  0
 14 12  1  0
M  END
>  <NAME>  (2579) 
DECANAL DIMETHYL ACETAL

>  <SYNONYMS>  (2579) 


>  <SPECTRUM TYPE>  (2579) 
MS1

>  <INSTRUMENT TYPE>  (2579) 
EI-B

>  <INSTRUMENT>  (2579) 
HITACHI M-80B

>  <ION MODE>  (2579) 
P

>  <INCHIKEY>  (2579) 
NCRNCSZWOOYBQF-UHFFFAOYSA-N

>  <FORMULA>  (2579) 
C12H26O2

>  <EXACT MASS>  (2579) 
202.193280072

>  <MW>  (2579) 
202

>  <ID>  (2579) 
JP008632

>  <CONTRIBUTOR>  (2579) 
University of Tokyo Team, {Faculty of Engineering, University of Tokyo

>  <COMMENT>  (2579) 
SMILES=CCCCCCCCCC(OC)OC
InChI=InChI=1S/C12H26O2/c1-4-5-6-7-8-9-10-11-12(13-2)14-3/h12H,4-11H2,1-3H3
computed SMILES=O(C)C(OC)CCCCCCCCC
accession=JP008632
date=2016.01.19 (Created 2008.10.21, modified 2011.05.06)
author=SODA AROMATIC CO., LTD.
license=CC BY-NC-SA
exact mass=202.19328
ionization energy=70 eV
ion type=[M]+*
computed spectral entropy=2.2836046295895427
computed normalized entropy=0.6928755039863502
SPLASH=splash10-004i-9000000000-362896b800f5af033836
submitter=submitter = University of Tokyo Team (Faculty of Engineering, University of Tokyo)
MoNA Rating=3.75

>  <NUM PEAKS>  (2579) 
27

>  <MASS SPECTRAL PEAKS>  (2579) 
15 1.11
27 4.01
29 6.16
31 3.43
39 2.66
41 13.59
42 1.65
43 6.32
45 6.2
47 5.09
55 7.3
57 2.54
58 5.74
67 1.76
68 1.62
69 4.8
71 23.58
72 1.11
75 99.99
76 3.22
81 1.56
82 1.66
83 5.95
85 1.22
95 1.26
97 2.46
171 5.69

$$$$

     RDKit          2D

 13 12  0  0  0  0  0  0  0  0999 V2000
    2.9228    6.1875    0.0000 C   0  0  0  0  0  0  0  0  0  0  0  0
  -10.0675    6.1875    0.0000 C   0  0  0  0  0  0  0  0  0  0  0  0
   -8.7685    3.9375    0.0000 C   0  0  0  0  0  0  0  0  0  0  0  0
    1.6238    6.9375    0.0000 C   0  0  0  0  0  0  0  0  0  0  0  0
    0.3248    6.1875    0.0000 C   0  0  0  0  0  0  0  0  0  0  0  0
   -0.9743    6.9375    0.0000 C   0  0  0  0  0  0  0  0  0  0  0  0
   -2.2733    6.1875    0.0000 C   0  0  0  0  0  0  0  0  0  0  0  0
   -3.5724    6.9375    0.0000 C   0  0  0  0  0  0  0  0  0  0  0  0
   -4.8714    6.1875    0.0000 C   0  0  0  0  0  0  0  0  0  0  0  0
   -6.1704    6.9375    0.0000 C   0  0  0  0  0  0  0  0  0  0  0  0
   -7.4695    6.1875    0.0000 C   0  0  0  0  0  0  0  0  0  0  0  0
   -8.7685    6.9375    0.0000 O   0  0  0  0  0  0  0  0  0  0  0  0
   -7.4695    4.6875    0.0000 O   0  0  0  0  0  0  0  0  0  0  0  0
  4  1  1  0
  5  4  1  0
  6  5  1  0
  7  6  1  0
  8  7  1  0
  9  8  1  0
 10  9  1  0
 11 10  1  0
 12  2  1  0
 12 11  1  0
 13  3  1  0
 13 11  1  0
M  END
>  <NAME>  (2580) 
NONANAL DIMETHYL ACETAL

>  <SYNONYMS>  (2580) 


>  <SPECTRUM TYPE>  (2580) 
MS1

>  <INSTRUMENT TYPE>  (2580) 
EI-B

>  <INSTRUMENT>  (2580) 
HITACHI M-80B

>  <ION MODE>  (2580) 
P

>  <INCHIKEY>  (2580) 
LYLVOCPDQAOQKL-UHFFFAOYSA-N

>  <FORMULA>  (2580) 
C11H24O2

>  <EXACT MASS>  (2580) 
188.177630008

>  <MW>  (2580) 
188

>  <ID>  (2580) 
JP008631

>  <CONTRIBUTOR>  (2580) 
University of Tokyo Team, {Faculty of Engineering, University of Tokyo

>  <COMMENT>  (2580) 
SMILES=CCCCCCCCC(OC)OC
InChI=InChI=1S/C11H24O2/c1-4-5-6-7-8-9-10-11(12-2)13-3/h11H,4-10H2,1-3H3
computed SMILES=O(C)C(OC)CCCCCCCC
accession=JP008631
date=2016.01.19 (Created 2008.10.21, modified 2011.05.06)
author=SODA AROMATIC CO., LTD.
license=CC BY-NC-SA
exact mass=188.17763
ionization energy=70 eV
ion type=[M]+*
computed spectral entropy=2.1824190871516955
computed normalized entropy=0.6960367128296466
SPLASH=splash10-004i-9000000000-323f734751d631abb1c2
submitter=submitter = University of Tokyo Team (Faculty of Engineering, University of Tokyo)
MoNA Rating=3.75

>  <NUM PEAKS>  (2580) 
23

>  <MASS SPECTRAL PEAKS>  (2580) 
15 1.16
27 4.51
29 6.17
31 3.69
39 3.05
41 13.37
42 1.43
43 4.93
45 7.02
47 5.66
55 7.01
57 2.71
58 5.44
67 1.41
68 1.06
69 8.84
71 20.19
75 99.99
76 3.19
81 1.28
82 1.22
83 4.64
157 6.32

$$$$

     RDKit          2D

 12 11  0  0  0  0  0  0  0  0999 V2000
   -8.4437    5.6250    0.0000 C   0  0  0  0  0  0  0  0  0  0  0  0
    3.2476    4.8750    0.0000 C   0  0  0  0  0  0  0  0  0  0  0  0
    1.9486    2.6250    0.0000 C   0  0  0  0  0  0  0  0  0  0  0  0
   -7.1447    4.8750    0.0000 C   0  0  0  0  0  0  0  0  0  0  0  0
   -5.8457    5.6250    0.0000 C   0  0  0  0  0  0  0  0  0  0  0  0
   -4.5466    4.8750    0.0000 C   0  0  0  0  0  0  0  0  0  0  0  0
   -3.2476    5.6250    0.0000 C   0  0  0  0  0  0  0  0  0  0  0  0
   -1.9486    4.8750    0.0000 C   0  0  0  0  0  0  0  0  0  0  0  0
   -0.6495    5.6250    0.0000 C   0  0  0  0  0  0  0  0  0  0  0  0
    0.6495    4.8750    0.0000 C   0  0  0  0  0  0  0  0  0  0  0  0
    1.9486    5.6250    0.0000 O   0  0  0  0  0  0  0  0  0  0  0  0
    0.6495    3.3750    0.0000 O   0  0  0  0  0  0  0  0  0  0  0  0
  4  1  1  0
  5  4  1  0
  6  5  1  0
  7  6  1  0
  8  7  1  0
  9  8  1  0
 10  9  1  0
 11  2  1  0
 11 10  1  0
 12  3  1  0
 12 10  1  0
M  END
>  <NAME>  (2581) 
OCTANAL DIMETHYL ACETAL

>  <SYNONYMS>  (2581) 


>  <SPECTRUM TYPE>  (2581) 
MS1

>  <INSTRUMENT TYPE>  (2581) 
EI-B

>  <INSTRUMENT>  (2581) 
HITACHI M-80B

>  <ION MODE>  (2581) 
P

>  <INCHIKEY>  (2581) 
BZOOCKAFKVYAOZ-UHFFFAOYSA-N

>  <FORMULA>  (2581) 
C10H22O2

>  <EXACT MASS>  (2581) 
174.161979944

>  <MW>  (2581) 
174

>  <ID>  (2581) 
JP008630

>  <CONTRIBUTOR>  (2581) 
University of Tokyo Team, {Faculty of Engineering, University of Tokyo

>  <COMMENT>  (2581) 
SMILES=CCCCCCCC(OC)OC
InChI=InChI=1S/C10H22O2/c1-4-5-6-7-8-9-10(11-2)12-3/h10H,4-9H2,1-3H3
computed SMILES=O(C)C(OC)CCCCCCC
accession=JP008630
date=2016.01.19 (Created 2008.10.21, modified 2011.05.06)
author=SODA AROMATIC CO., LTD.
license=CC BY-NC-SA
exact mass=174.16198
ionization energy=70 eV
ion type=[M]+*
computed spectral entropy=1.8627900305978917
computed normalized entropy=0.6444811209869328
SPLASH=splash10-004i-9000000000-62ad737f155339544622
submitter=submitter = University of Tokyo Team (Faculty of Engineering, University of Tokyo)
MoNA Rating=3.75

>  <NUM PEAKS>  (2581) 
18

>  <MASS SPECTRAL PEAKS>  (2581) 
27 2.83
29 3.91
31 2.03
39 1.75
41 8.78
43 3.9
45 7.89
47 6.28
55 6.75
57 1.29
58 3.42
67 1.04
69 11.88
71 7
75 99.99
76 3.16
111 1.15
143 8.25

$$$$

     RDKit          2D

 11 10  0  0  0  0  0  0  0  0999 V2000
    2.2733    5.0625    0.0000 C   0  0  0  0  0  0  0  0  0  0  0  0
   -8.1190    5.0625    0.0000 C   0  0  0  0  0  0  0  0  0  0  0  0
   -6.8200    2.8125    0.0000 C   0  0  0  0  0  0  0  0  0  0  0  0
    0.9743    5.8125    0.0000 C   0  0  0  0  0  0  0  0  0  0  0  0
   -0.3248    5.0625    0.0000 C   0  0  0  0  0  0  0  0  0  0  0  0
   -1.6238    5.8125    0.0000 C   0  0  0  0  0  0  0  0  0  0  0  0
   -2.9228    5.0625    0.0000 C   0  0  0  0  0  0  0  0  0  0  0  0
   -4.2219    5.8125    0.0000 C   0  0  0  0  0  0  0  0  0  0  0  0
   -5.5209    5.0625    0.0000 C   0  0  0  0  0  0  0  0  0  0  0  0
   -6.8200    5.8125    0.0000 O   0  0  0  0  0  0  0  0  0  0  0  0
   -5.5209    3.5625    0.0000 O   0  0  0  0  0  0  0  0  0  0  0  0
  4  1  1  0
  5  4  1  0
  6  5  1  0
  7  6  1  0
  8  7  1  0
  9  8  1  0
 10  2  1  0
 10  9  1  0
 11  3  1  0
 11  9  1  0
M  END
>  <NAME>  (2582) 
HEPTANAL DIMETHYL ACETAL

>  <SYNONYMS>  (2582) 


>  <SPECTRUM TYPE>  (2582) 
MS1

>  <INSTRUMENT TYPE>  (2582) 
EI-B

>  <INSTRUMENT>  (2582) 
HITACHI M-80B

>  <ION MODE>  (2582) 
P

>  <INCHIKEY>  (2582) 
BBMCNYFBAIUERL-UHFFFAOYSA-N

>  <FORMULA>  (2582) 
C9H20O2

>  <EXACT MASS>  (2582) 
160.14632988

>  <MW>  (2582) 
160

>  <ID>  (2582) 
JP008629

>  <CONTRIBUTOR>  (2582) 
University of Tokyo Team, {Faculty of Engineering, University of Tokyo

>  <COMMENT>  (2582) 
SMILES=CCCCCCC(OC)OC
InChI=InChI=1S/C9H20O2/c1-4-5-6-7-8-9(10-2)11-3/h9H,4-8H2,1-3H3
computed SMILES=O(C)C(OC)CCCCCC
accession=JP008629
date=2016.01.19 (Created 2008.10.21, modified 2011.05.06)
author=SODA AROMATIC CO., LTD.
license=CC BY-NC-SA
exact mass=160.14633
ionization energy=70 eV
ion type=[M]+*
computed spectral entropy=2.199062683217223
computed normalized entropy=0.7013448380945485
SPLASH=splash10-004i-9000000000-7e9df771ae8c3f98881f
submitter=submitter = University of Tokyo Team (Faculty of Engineering, University of Tokyo)
MoNA Rating=3.75

>  <NUM PEAKS>  (2582) 
23

>  <MASS SPECTRAL PEAKS>  (2582) 
15 1.82
27 3.98
29 5.34
31 3.69
39 2.98
41 12.02
42 1.43
43 5.59
45 10.79
47 7.35
55 14.9
56 1.22
57 1.1
58 5.19
59 1.09
69 1.88
71 17.4
75 99.99
76 3.19
85 1.22
97 6.61
128 1.23
129 11.72

$$$$

     RDKit          2D

 10  9  0  0  0  0  0  0  0  0999 V2000
   -6.4952    4.5000    0.0000 C   0  0  0  0  0  0  0  0  0  0  0  0
    2.5981    3.7500    0.0000 C   0  0  0  0  0  0  0  0  0  0  0  0
    1.2990    1.5000    0.0000 C   0  0  0  0  0  0  0  0  0  0  0  0
   -5.1962    3.7500    0.0000 C   0  0  0  0  0  0  0  0  0  0  0  0
   -3.8971    4.5000    0.0000 C   0  0  0  0  0  0  0  0  0  0  0  0
   -2.5981    3.7500    0.0000 C   0  0  0  0  0  0  0  0  0  0  0  0
   -1.2990    4.5000    0.0000 C   0  0  0  0  0  0  0  0  0  0  0  0
    0.0000    3.7500    0.0000 C   0  0  0  0  0  0  0  0  0  0  0  0
    1.2990    4.5000    0.0000 O   0  0  0  0  0  0  0  0  0  0  0  0
   -0.0000    2.2500    0.0000 O   0  0  0  0  0  0  0  0  0  0  0  0
  4  1  1  0
  5  4  1  0
  6  5  1  0
  7  6  1  0
  8  7  1  0
  9  2  1  0
  9  8  1  0
 10  3  1  0
 10  8  1  0
M  END
>  <NAME>  (2583) 
HEXANAL DIMETHYL ACETAL

>  <SYNONYMS>  (2583) 


>  <SPECTRUM TYPE>  (2583) 
MS1

>  <INSTRUMENT TYPE>  (2583) 
EI-B

>  <INSTRUMENT>  (2583) 
HITACHI M-80B

>  <ION MODE>  (2583) 
P

>  <INCHIKEY>  (2583) 
ZQUJUCJLDXTKKW-UHFFFAOYSA-N

>  <FORMULA>  (2583) 
C8H18O2

>  <EXACT MASS>  (2583) 
146.130679816

>  <MW>  (2583) 
146

>  <ID>  (2583) 
JP008628

>  <CONTRIBUTOR>  (2583) 
University of Tokyo Team, {Faculty of Engineering, University of Tokyo

>  <COMMENT>  (2583) 
SMILES=CCCCCC(OC)OC
InChI=InChI=1S/C8H18O2/c1-4-5-6-7-8(9-2)10-3/h8H,4-7H2,1-3H3
computed SMILES=O(C)C(OC)CCCCC
license=CC BY-NC-SA
exact mass=146.13068
accession=JP008628
date=2016.01.19 (Created 2008.10.21, modified 2011.05.06)
author=SODA AROMATIC CO., LTD.
ionization energy=70 eV
ion type=[M]+*
computed spectral entropy=2.3044881511379525
computed normalized entropy=0.7692570432550769
SPLASH=splash10-004i-9000000000-418af211949e27265ed4
submitter=submitter = University of Tokyo Team (Faculty of Engineering, University of Tokyo)
MoNA Rating=3.75

>  <NUM PEAKS>  (2583) 
20

>  <MASS SPECTRAL PEAKS>  (2583) 
15 4.5
27 8.96
29 10.14
31 7.44
39 5.35
41 14.85
42 1.45
43 5.3
45 18.27
47 11.11
53 1.1
55 13.12
57 1.43
58 7.95
59 1.63
71 11.28
75 99.99
76 3.35
83 8.63
115 11.76

$$$$

     RDKit          2D

  8  7  0  0  0  0  0  0  0  0999 V2000
    1.9486    2.6250    0.0000 C   0  0  0  0  0  0  0  0  0  0  0  0
   -4.5466    3.3750    0.0000 C   0  0  0  0  0  0  0  0  0  0  0  0
   -3.2476    5.6250    0.0000 C   0  0  0  0  0  0  0  0  0  0  0  0
   -0.6495    2.6250    0.0000 C   0  0  0  0  0  0  0  0  0  0  0  0
   -1.9486    3.3750    0.0000 C   0  0  0  0  0  0  0  0  0  0  0  0
    0.6495    3.3750    0.0000 O   0  0  0  0  0  0  0  0  0  0  0  0
   -3.2476    2.6250    0.0000 O   0  0  0  0  0  0  0  0  0  0  0  0
   -1.9486    4.8750    0.0000 O   0  0  0  0  0  0  0  0  0  0  0  0
  5  4  1  0
  6  1  1  0
  6  4  1  0
  7  2  1  0
  7  5  1  0
  8  3  1  0
  8  5  1  0
M  END
>  <NAME>  (2584) 
METHOXYACETALDEHYDE DIMETHYL ACETAL

>  <SYNONYMS>  (2584) 


>  <SPECTRUM TYPE>  (2584) 
MS1

>  <INSTRUMENT TYPE>  (2584) 
EI-B

>  <INSTRUMENT>  (2584) 
HITACHI M-80B

>  <ION MODE>  (2584) 
P

>  <INCHIKEY>  (2584) 
DYOZNCVZPFIXLU-UHFFFAOYSA-N

>  <FORMULA>  (2584) 
C5H12O3

>  <EXACT MASS>  (2584) 
120.078644244

>  <MW>  (2584) 
120

>  <ID>  (2584) 
JP008627

>  <CONTRIBUTOR>  (2584) 
University of Tokyo Team, {Faculty of Engineering, University of Tokyo

>  <COMMENT>  (2584) 
SMILES=COCC(OC)OC
InChI=InChI=1S/C5H12O3/c1-6-4-5(7-2)8-3/h5H,4H2,1-3H3
computed SMILES=O(C)CC(OC)OC
accession=JP008627
date=2016.01.19 (Created 2008.10.21, modified 2011.05.06)
author=SODA AROMATIC CO., LTD.
license=CC BY-NC-SA
exact mass=120.07864
ionization energy=70 eV
ion type=[M]+*
computed spectral entropy=1.9259042989781772
computed normalized entropy=0.7111774730742842
SPLASH=splash10-004i-9000000000-52cd10bdee39d140e84d
submitter=submitter = University of Tokyo Team (Faculty of Engineering, University of Tokyo)
MoNA Rating=3.75

>  <NUM PEAKS>  (2584) 
15

>  <MASS SPECTRAL PEAKS>  (2584) 
15 6.65
27 1.29
29 11.04
31 16.94
42 1.45
43 6.03
45 14.63
47 18.56
58 2.19
59 16.2
73 1.06
74 1.32
75 99.99
76 3.76
89 14.98

$$$$

     RDKit          2D

  6  5  0  0  0  0  0  0  0  0999 V2000
   -1.2990    0.7500    0.0000 C   0  0  0  0  0  0  0  0  0  0  0  0
    1.2990    2.2500    0.0000 C   0  0  0  0  0  0  0  0  0  0  0  0
   -3.8971    2.2500    0.0000 C   0  0  0  0  0  0  0  0  0  0  0  0
   -1.2990    2.2500    0.0000 C   0  0  0  0  0  0  0  0  0  0  0  0
    0.0000    3.0000    0.0000 O   0  0  0  0  0  0  0  0  0  0  0  0
   -2.5981    3.0000    0.0000 O   0  0  0  0  0  0  0  0  0  0  0  0
  4  1  1  0
  5  2  1  0
  5  4  1  0
  6  3  1  0
  6  4  1  0
M  END
>  <NAME>  (2585) 
ACETALDEHYDE DIMETHYL ACETAL

>  <SYNONYMS>  (2585) 


>  <SPECTRUM TYPE>  (2585) 
MS1

>  <INSTRUMENT TYPE>  (2585) 
EI-B

>  <INSTRUMENT>  (2585) 
HITACHI M-80B

>  <ION MODE>  (2585) 
P

>  <INCHIKEY>  (2585) 
SPEUIVXLLWOEMJ-UHFFFAOYSA-N

>  <FORMULA>  (2585) 
C4H10O2

>  <EXACT MASS>  (2585) 
90.06807956

>  <MW>  (2585) 
90

>  <ID>  (2585) 
JP008626

>  <CONTRIBUTOR>  (2585) 
University of Tokyo Team, {Faculty of Engineering, University of Tokyo

>  <COMMENT>  (2585) 
SMILES=COC(C)OC
InChI=InChI=1S/C4H10O2/c1-4(5-2)6-3/h4H,1-3H3
computed SMILES=O(C)C(OC)C
accession=JP008626
date=2016.01.19 (Created 2008.10.21, modified 2011.05.06)
author=SODA AROMATIC CO., LTD.
license=CC BY-NC-SA
exact mass=90.06808
ionization energy=70 eV
ion type=[M]+*
computed spectral entropy=2.0595068389105378
computed normalized entropy=0.7125404658705929
SPLASH=splash10-0a6r-9000000000-888c99470f47c81f0c57
submitter=submitter = University of Tokyo Team (Faculty of Engineering, University of Tokyo)
MoNA Rating=3.75

>  <NUM PEAKS>  (2585) 
18

>  <MASS SPECTRAL PEAKS>  (2585) 
14 1.26
15 15.82
26 1.96
27 7.14
29 32.02
30 1.88
31 36.42
33 1.18
41 1.55
42 2.32
43 25.2
45 1.44
47 11.07
58 2.37
59 99.99
60 2.71
75 34.44
89 1.23

$$$$

     RDKit          2D

 14 14  0  0  0  0  0  0  0  0999 V2000
   -5.4764    3.0553    0.0000 C   0  0  0  0  0  0  0  0  0  0  0  0
    0.6840    4.2044    0.0000 C   0  0  0  0  0  0  0  0  0  0  0  0
   -1.2444    4.2044    0.0000 C   0  0  0  0  0  0  0  0  0  0  0  0
   -4.1773    2.3053    0.0000 C   0  0  0  0  0  0  0  0  0  0  0  0
    3.6169    0.8053    0.0000 C   0  0  0  0  0  0  0  0  0  0  0  0
    3.6174    2.3062    0.0000 C   0  0  0  0  0  0  0  0  0  0  0  0
    2.3174    0.0545    0.0000 C   0  0  0  0  0  0  0  0  0  0  0  0
    2.3183    3.0562    0.0000 C   0  0  0  0  0  0  0  0  0  0  0  0
    1.0183    0.8045    0.0000 C   0  0  0  0  0  0  0  0  0  0  0  0
   -1.5793    2.3053    0.0000 C   0  0  0  0  0  0  0  0  0  0  0  0
    1.0188    2.3053    0.0000 C   0  0  0  0  0  0  0  0  0  0  0  0
   -2.8783    3.0553    0.0000 C   0  0  0  0  0  0  0  0  0  0  0  0
   -0.2802    3.0553    0.0000 C   0  0  0  0  0  0  0  0  0  0  0  0
   -2.8783    4.5553    0.0000 O   0  0  0  0  0  0  0  0  0  0  0  0
  4  1  1  0
  6  5  2  0
  7  5  1  0
  8  6  1  0
  9  7  2  0
 11  8  2  0
 11  9  1  0
 12  4  1  0
 12 10  1  0
 13  2  1  0
 13  3  1  0
 13 10  1  0
 13 11  1  0
 14 12  2  0
M  END
>  <NAME>  (2586) 
5-METHYL-5-PHENYL-3-HEXANONE

>  <SYNONYMS>  (2586) 


>  <SPECTRUM TYPE>  (2586) 
MS1

>  <INSTRUMENT TYPE>  (2586) 
EI-B

>  <INSTRUMENT>  (2586) 
HITACHI M-80B

>  <ION MODE>  (2586) 
P

>  <INCHIKEY>  (2586) 
VEZKFOIEZCNFBT-UHFFFAOYSA-N

>  <FORMULA>  (2586) 
C13H18O

>  <EXACT MASS>  (2586) 
190.135765196

>  <MW>  (2586) 
190

>  <ID>  (2586) 
JP008625

>  <CONTRIBUTOR>  (2586) 
University of Tokyo Team, {Faculty of Engineering, University of Tokyo

>  <COMMENT>  (2586) 
SMILES=CCC(=O)CC(C)(C)c(c1)cccc1
InChI=InChI=1S/C13H18O/c1-4-12(14)10-13(2,3)11-8-6-5-7-9-11/h5-9H,4,10H2,1-3H3
computed SMILES=O=C(CC)CC(C=1C=CC=CC1)(C)C
accession=JP008625
date=2016.01.19 (Created 2008.10.21, modified 2011.05.06)
author=SODA AROMATIC CO., LTD.
license=CC BY-NC-SA
exact mass=190.13577
ionization energy=70 eV
ion type=[M]+*
computed spectral entropy=2.5513550668523113
computed normalized entropy=0.7501343734439403
SPLASH=splash10-014l-8900000000-17537446a7eead6f74a2
submitter=submitter = University of Tokyo Team (Faculty of Engineering, University of Tokyo)
MoNA Rating=3.75

>  <NUM PEAKS>  (2586) 
30

>  <MASS SPECTRAL PEAKS>  (2586) 
27 7.76
29 21.87
39 6.17
41 10.99
42 1.77
50 1.15
51 5.21
52 1.04
53 1.12
55 2.58
57 34.12
58 1.09
63 1.41
65 3.42
77 8.48
78 3.91
79 4.7
91 38.62
92 2.64
102 1.06
103 6.13
104 1.02
105 2.15
115 4.36
117 5.19
118 17.58
119 99.99
120 9.71
190 12.28
191 1.43

$$$$

     RDKit          2D

 13 13  0  0  0  0  0  0  0  0999 V2000
   -4.8268    1.9303    0.0000 C   0  0  0  0  0  0  0  0  0  0  0  0
    0.0344    3.8294    0.0000 C   0  0  0  0  0  0  0  0  0  0  0  0
   -1.8939    3.8294    0.0000 C   0  0  0  0  0  0  0  0  0  0  0  0
    2.9674    0.4303    0.0000 C   0  0  0  0  0  0  0  0  0  0  0  0
    2.9679    1.9312    0.0000 C   0  0  0  0  0  0  0  0  0  0  0  0
    1.6679   -0.3205    0.0000 C   0  0  0  0  0  0  0  0  0  0  0  0
    1.6688    2.6812    0.0000 C   0  0  0  0  0  0  0  0  0  0  0  0
    0.3688    0.4295    0.0000 C   0  0  0  0  0  0  0  0  0  0  0  0
   -2.2288    1.9303    0.0000 C   0  0  0  0  0  0  0  0  0  0  0  0
   -3.5278    2.6803    0.0000 C   0  0  0  0  0  0  0  0  0  0  0  0
    0.3693    1.9303    0.0000 C   0  0  0  0  0  0  0  0  0  0  0  0
   -0.9297    2.6803    0.0000 C   0  0  0  0  0  0  0  0  0  0  0  0
   -3.5278    4.1803    0.0000 O   0  0  0  0  0  0  0  0  0  0  0  0
  5  4  2  0
  6  4  1  0
  7  5  1  0
  8  6  2  0
 10  1  1  0
 10  9  1  0
 11  7  2  0
 11  8  1  0
 12  2  1  0
 12  3  1  0
 12  9  1  0
 12 11  1  0
 13 10  2  0
M  END
>  <NAME>  (2587) 
4-PHENYL-4-METHYL-2-PENTANONE

>  <SYNONYMS>  (2587) 


>  <SPECTRUM TYPE>  (2587) 
MS1

>  <INSTRUMENT TYPE>  (2587) 
EI-B

>  <INSTRUMENT>  (2587) 
HITACHI M-80B

>  <ION MODE>  (2587) 
P

>  <INCHIKEY>  (2587) 
PFDVPCSDZXZDMF-UHFFFAOYSA-N

>  <FORMULA>  (2587) 
C12H16O

>  <EXACT MASS>  (2587) 
176.120115132

>  <MW>  (2587) 
176

>  <ID>  (2587) 
JP008624

>  <CONTRIBUTOR>  (2587) 
University of Tokyo Team, {Faculty of Engineering, University of Tokyo

>  <COMMENT>  (2587) 
SMILES=CC(=O)CC(C)(C)c(c1)cccc1
InChI=InChI=1S/C12H16O/c1-10(13)9-12(2,3)11-7-5-4-6-8-11/h4-8H,9H2,1-3H3
computed SMILES=O=C(C)CC(C=1C=CC=CC1)(C)C
accession=JP008624
date=2016.01.19 (Created 2008.10.21, modified 2011.05.06)
author=SODA AROMATIC CO., LTD.
license=CC BY-NC-SA
exact mass=176.12012
ionization energy=70 eV
ion type=[M]+*
computed spectral entropy=2.617746694376449
computed normalized entropy=0.7304961238754482
SPLASH=splash10-00kf-9700000000-482f6e75a87a2ee4a39f
submitter=submitter = University of Tokyo Team (Faculty of Engineering, University of Tokyo)
MoNA Rating=3.75

>  <NUM PEAKS>  (2587) 
36

>  <MASS SPECTRAL PEAKS>  (2587) 
15 2.9
27 4.26
29 2.37
39 8.61
41 13.48
42 2.09
43 78.44
44 1.27
50 2.11
51 7.9
52 1.62
53 1.5
55 3.4
63 2.95
65 4.64
75 1.01
76 1.09
77 12.64
78 6.07
79 6.51
89 1.27
91 54.1
92 4.57
102 1.62
103 7.77
104 1.15
105 1.99
115 6.39
116 1.51
117 7.47
118 22.14
119 99.99
120 9.3
161 1.23
176 15.41
177 1.59

$$$$

     RDKit          2D

 17 17  0  0  0  0  0  0  0  0999 V2000
   -5.2000    0.0000    0.0000 C   0  0  0  0  0  0  0  0  0  0  0  0
   -5.2000    1.5000    0.0000 C   0  0  0  0  0  0  0  0  0  0  0  0
   -3.9000   -0.7500    0.0000 C   0  0  0  0  0  0  0  0  0  0  0  0
   -3.9000    2.2500    0.0000 C   0  0  0  0  0  0  0  0  0  0  0  0
   -2.6000    0.0000    0.0000 C   0  0  0  0  0  0  0  0  0  0  0  0
   -3.9000    3.7500    0.0000 C   0  0  0  0  0  0  0  0  0  0  0  0
   -1.3000   -0.7500    0.0000 C   0  0  0  0  0  0  0  0  0  0  0  0
   -2.6000    4.5000    0.0000 C   0  0  0  0  0  0  0  0  0  0  0  0
    0.0000    0.0000    0.0000 C   0  0  0  0  0  0  0  0  0  0  0  0
   -1.3000    3.7500    0.0000 C   0  0  0  0  0  0  0  0  0  0  0  0
    1.3000   -0.7500    0.0000 C   0  0  0  0  0  0  0  0  0  0  0  0
    0.0000    4.5000    0.0000 C   0  0  0  0  0  0  0  0  0  0  0  0
    2.6000   -0.0000    0.0000 C   0  0  0  0  0  0  0  0  0  0  0  0
    1.3000    3.7500    0.0000 C   0  0  0  0  0  0  0  0  0  0  0  0
    2.6000    1.5000    0.0000 C   0  0  0  0  0  0  0  0  0  0  0  0
    1.3000    2.2500    0.0000 C   0  0  0  0  0  0  0  0  0  0  0  0
    0.0011    1.4998    0.0000 O   0  0  0  0  0  0  0  0  0  0  0  0
  2  1  1  0
  3  1  1  0
  4  2  1  0
  5  3  1  0
  6  4  1  0
  7  5  1  0
  6  8  2  0
  9  7  1  0
 10  8  1  0
 11  9  1  0
 12 10  1  0
 13 11  1  0
 14 12  1  0
 15 13  1  0
 16 14  1  0
 16 15  1  0
 17 16  2  0
M  END
>  <NAME>  (2588) 
5-CYCLOHEXADECENONE

>  <SYNONYMS>  (2588) 


>  <SPECTRUM TYPE>  (2588) 
MS1

>  <INSTRUMENT TYPE>  (2588) 
EI-B

>  <INSTRUMENT>  (2588) 
HITACHI M-80B

>  <ION MODE>  (2588) 
P

>  <INCHIKEY>  (2588) 
ABRIMXGLNHCLIP-VURMDHGXSA-N

>  <FORMULA>  (2588) 
C16H28O

>  <EXACT MASS>  (2588) 
236.21401551600002

>  <MW>  (2588) 
236

>  <ID>  (2588) 
JP008623

>  <CONTRIBUTOR>  (2588) 
University of Tokyo Team, {Faculty of Engineering, University of Tokyo

>  <COMMENT>  (2588) 
SMILES=O=C(C1)CCCC=CCCCCCCCCC1
InChI=InChI=1S/C16H28O/c17-16-14-12-10-8-6-4-2-1-3-5-7-9-11-13-15-16/h6,8H,1-5,7,9-15H2/b8-6-
computed SMILES=O=C1CCCC=CCCCCCCCCCC1
accession=JP008623
date=2016.01.19 (Created 2008.10.21, modified 2011.05.06)
author=SODA AROMATIC CO., LTD.
license=CC BY-NC-SA
exact mass=236.21402
ionization energy=70 eV
ion type=[M]+*
computed spectral entropy=3.826784283798684
computed normalized entropy=0.8504324769624791
SPLASH=splash10-05nf-9100000000-a8132656cf02452a93ff
submitter=submitter = University of Tokyo Team (Faculty of Engineering, University of Tokyo)
MoNA Rating=3.75

>  <NUM PEAKS>  (2588) 
90

>  <MASS SPECTRAL PEAKS>  (2588) 
15 1.1
27 17.12
29 24.87
31 1.08
39 21.96
41 99.99
42 16.2
43 35.23
51 1.85
52 1.81
53 16.18
54 38.32
55 80.31
56 9.13
57 7.79
58 15.14
59 3.83
65 4.5
66 4.8
67 58.65
68 44.26
69 23.32
70 7.23
71 26.19
72 2.22
77 4.72
78 2.39
79 16.63
80 17.18
81 45.22
82 31.21
83 18.04
84 20.39
85 5.1
91 4.13
92 2.61
93 9.51
94 12.25
95 31.83
96 17.89
97 22.56
98 14.17
99 2.84
105 2.05
106 1.41
107 6.48
108 8.82
109 13.23
110 8.59
111 10.58
112 4.49
113 1.35
119 2.36
120 1.71
121 7.85
122 7.01
123 8.44
124 5.54
125 5.3
126 1.94
133 2.84
134 1.98
135 6.89
136 4.21
137 5.3
138 2.54
139 2.6
140 1.36
147 2.63
148 1.46
149 3.46
150 1.89
151 3.05
152 2.82
153 1.27
154 1.47
161 2.07
163 1.37
164 1.21
165 2.96
175 1.85
176 1.23
178 2.37
179 1.69
189 1.44
193 2.39
194 1.09
207 2.16
236 30.59
237 5.04

$$$$

     RDKit          2D

 12 13  0  0  0  0  0  0  0  0999 V2000
   -1.9087    3.1302    0.0000 C   0  0  0  0  0  0  0  0  0  0  0  0
   -2.0872   -0.3597    0.0000 C   0  0  0  0  0  0  0  0  0  0  0  0
   -1.1227   -2.0296    0.0000 C   0  0  0  0  0  0  0  0  0  0  0  0
    1.9900    0.8800    0.0000 C   0  0  0  0  0  0  0  0  0  0  0  0
    1.9900   -0.6200    0.0000 C   0  0  0  0  0  0  0  0  0  0  0  0
    1.2400    0.1300    0.0000 C   0  0  0  0  0  0  0  0  0  0  0  0
   -1.9089    1.6302    0.0000 C   0  0  0  0  0  0  0  0  0  0  0  0
    0.6900    1.6300    0.0000 C   0  0  0  0  0  0  0  0  0  0  0  0
    0.6900   -1.3700    0.0000 C   0  0  0  0  0  0  0  0  0  0  0  0
   -0.6100    0.8800    0.0000 C   0  0  0  0  0  0  0  0  0  0  0  0
   -0.6100   -0.6200    0.0000 C   0  0  0  0  0  0  0  0  0  0  0  0
   -3.2081    0.8804    0.0000 O   0  0  0  0  0  0  0  0  0  0  0  0
  5  4  1  0
  7  1  1  0
  8  4  1  0
  8  6  1  0
  9  5  1  0
  9  6  1  0
 10  7  1  0
 10  8  1  0
 11  2  1  0
 11  3  1  0
 11  9  1  0
 11 10  1  0
 12  7  2  0
M  END
>  <NAME>  (2589) 
2-ACETYL-3,3-DIMETHYLNORBORNANE

>  <SYNONYMS>  (2589) 


>  <SPECTRUM TYPE>  (2589) 
MS1

>  <INSTRUMENT TYPE>  (2589) 
EI-B

>  <INSTRUMENT>  (2589) 
HITACHI M-80B

>  <ION MODE>  (2589) 
P

>  <INCHIKEY>  (2589) 
NGTMQRCBACIUES-UHFFFAOYSA-N

>  <FORMULA>  (2589) 
C11H18O

>  <EXACT MASS>  (2589) 
166.135765196

>  <MW>  (2589) 
166

>  <ID>  (2589) 
JP008622

>  <CONTRIBUTOR>  (2589) 
University of Tokyo Team, {Faculty of Engineering, University of Tokyo

>  <COMMENT>  (2589) 
SMILES=CC(=O)C(C21)C(C)(C)C(CC2)C1
InChI=InChI=1S/C11H18O/c1-7(12)10-8-4-5-9(6-8)11(10,2)3/h8-10H,4-6H2,1-3H3
computed SMILES=O=C(C)C1C2CCC(C2)C1(C)C
accession=JP008622
date=2016.01.19 (Created 2008.10.21, modified 2011.05.06)
author=SODA AROMATIC CO., LTD.
license=CC BY-NC-SA
exact mass=166.13577
ionization energy=70 eV
ion type=[M]+*
computed spectral entropy=3.284926852305995
computed normalized entropy=0.8090070082929051
SPLASH=splash10-052f-9300000000-c788ea2dc609ab8d5ed5
submitter=submitter = University of Tokyo Team (Faculty of Engineering, University of Tokyo)
MoNA Rating=3.75

>  <NUM PEAKS>  (2589) 
58

>  <MASS SPECTRAL PEAKS>  (2589) 
15 3.71
27 13.44
29 7.74
39 23.66
41 41.44
42 2.98
43 99.99
44 1.54
45 2.3
50 1.09
51 3.77
52 2.16
53 14.44
54 2.91
55 21.53
56 1.61
57 3.39
63 1.19
65 5.35
66 5.06
67 49.62
68 3.77
69 15.61
70 1.3
71 2.36
77 10.79
78 2.13
79 16.63
80 4.15
81 47.11
82 5.41
83 12.88
84 6.91
85 5.58
91 5.74
92 1.11
93 21.32
94 2.3
95 11.61
96 2.93
97 3.86
98 1.4
99 68.39
100 4.43
105 2.77
106 1.96
107 8.47
108 64.49
109 16.62
110 2.28
121 1.16
123 75.4
124 5.97
133 2.46
148 11.28
149 1.37
151 5.7
166 3.71

$$$$

     RDKit          2D

 13 13  0  0  0  0  0  0  0  0999 V2000
   -4.8268    1.9303    0.0000 C   0  0  0  0  0  0  0  0  0  0  0  0
    0.0344    3.8294    0.0000 C   0  0  0  0  0  0  0  0  0  0  0  0
   -1.8939    3.8294    0.0000 C   0  0  0  0  0  0  0  0  0  0  0  0
    2.9674    0.4303    0.0000 C   0  0  0  0  0  0  0  0  0  0  0  0
    2.9679    1.9312    0.0000 C   0  0  0  0  0  0  0  0  0  0  0  0
    1.6679   -0.3205    0.0000 C   0  0  0  0  0  0  0  0  0  0  0  0
    1.6688    2.6812    0.0000 C   0  0  0  0  0  0  0  0  0  0  0  0
    0.3688    0.4295    0.0000 C   0  0  0  0  0  0  0  0  0  0  0  0
   -2.2288    1.9303    0.0000 C   0  0  0  0  0  0  0  0  0  0  0  0
   -3.5278    2.6803    0.0000 C   0  0  0  0  0  0  0  0  0  0  0  0
    0.3693    1.9303    0.0000 C   0  0  0  0  0  0  0  0  0  0  0  0
   -0.9297    2.6803    0.0000 C   0  0  0  0  0  0  0  0  0  0  0  0
   -3.5278    4.1803    0.0000 O   0  0  0  0  0  0  0  0  0  0  0  0
  5  4  1  0
  6  4  1  0
  7  5  1  0
  8  6  1  0
 10  1  1  0
 10  9  1  0
 11  7  1  0
 11  8  1  0
 12  2  1  0
 12  3  1  0
 12  9  1  0
 12 11  1  0
 13 10  2  0
M  END
>  <NAME>  (2590) 
4-CYCLOHEXYL-4-METHYL-2-PENTANONE

>  <SYNONYMS>  (2590) 


>  <SPECTRUM TYPE>  (2590) 
MS1

>  <INSTRUMENT TYPE>  (2590) 
EI-B

>  <INSTRUMENT>  (2590) 
HITACHI M-80B

>  <ION MODE>  (2590) 
P

>  <INCHIKEY>  (2590) 
OAFJAALOFJVHMK-UHFFFAOYSA-N

>  <FORMULA>  (2590) 
C12H22O

>  <EXACT MASS>  (2590) 
182.167065324

>  <MW>  (2590) 
182

>  <ID>  (2590) 
JP008621

>  <CONTRIBUTOR>  (2590) 
University of Tokyo Team, {Faculty of Engineering, University of Tokyo

>  <COMMENT>  (2590) 
SMILES=CC(=O)CC(C)(C)C(C1)CCCC1
InChI=InChI=1S/C12H22O/c1-10(13)9-12(2,3)11-7-5-4-6-8-11/h11H,4-9H2,1-3H3
computed SMILES=O=C(C)CC(C)(C)C1CCCCC1
accession=JP008621
date=2016.01.19 (Created 2008.10.21, modified 2011.05.06)
author=SODA AROMATIC CO., LTD.
license=CC BY-NC-SA
exact mass=182.16707
ionization energy=70 eV
ion type=[M]+*
computed spectral entropy=2.906191821633692
computed normalized entropy=0.7989341541403632
SPLASH=splash10-0006-9200000000-c2513f2e2687e901af85
submitter=submitter = University of Tokyo Team (Faculty of Engineering, University of Tokyo)
MoNA Rating=3.75

>  <NUM PEAKS>  (2590) 
38

>  <MASS SPECTRAL PEAKS>  (2590) 
27 6.7
29 7.37
39 9.74
41 30.37
42 2.24
43 99.99
44 1.78
53 5.64
54 3.98
55 24.97
56 6.95
57 6.63
58 4.64
59 1.03
65 1.07
66 1.39
67 13.86
68 3.71
69 11.68
77 1.45
79 2.16
80 4.89
81 25.04
82 13.51
83 14.07
85 24.6
86 1.08
95 4.07
96 1.06
98 1.15
99 13.55
100 4.05
109 16.2
110 1.14
123 1.02
124 58.38
125 10.92
149 1.38

$$$$

     RDKit          2D

 12 12  0  0  0  0  0  0  0  0999 V2000
   -3.1275    2.5540    0.0000 C   0  0  0  0  0  0  0  0  0  0  0  0
    0.4404    3.6856    0.0000 C   0  0  0  0  0  0  0  0  0  0  0  0
   -1.4880    3.6951    0.0000 C   0  0  0  0  0  0  0  0  0  0  0  0
   -1.8322    1.7977    0.0000 C   0  0  0  0  0  0  0  0  0  0  0  0
    2.0649    2.5349    0.0000 C   0  0  0  0  0  0  0  0  0  0  0  0
    0.7513    0.3100    0.0000 C   0  0  0  0  0  0  0  0  0  0  0  0
    3.3494    1.8100    0.0000 C   0  0  0  0  0  0  0  0  0  0  0  0
    2.0759   -0.4841    0.0000 C   0  0  0  0  0  0  0  0  0  0  0  0
    0.7659    1.7849    0.0000 C   0  0  0  0  0  0  0  0  0  0  0  0
    3.3749    0.2659    0.0000 C   0  0  0  0  0  0  0  0  0  0  0  0
   -0.5295    2.5413    0.0000 C   0  0  0  0  0  0  0  0  0  0  0  0
    4.6801   -0.4734    0.0000 O   0  0  0  0  0  0  0  0  0  0  0  0
  4  1  1  0
  7  5  1  0
  8  6  1  0
  9  5  1  0
  9  6  1  0
 10  7  1  0
 10  8  1  0
 11  2  1  0
 11  3  1  0
 11  4  1  0
 11  9  1  0
 12 10  2  0
M  END
>  <NAME>  (2591) 
4-TERT-AMYLCYCLOHEXANONE

>  <SYNONYMS>  (2591) 
4-(1,1-DIMETHYLPROPYL)CYCLOHEXANONE

>  <SPECTRUM TYPE>  (2591) 
MS1

>  <INSTRUMENT TYPE>  (2591) 
EI-B

>  <INSTRUMENT>  (2591) 
HITACHI M-80B

>  <ION MODE>  (2591) 
P

>  <INCHIKEY>  (2591) 
DCSKAMGZSIRJAQ-UHFFFAOYSA-N

>  <FORMULA>  (2591) 
C11H20O

>  <EXACT MASS>  (2591) 
168.15141526

>  <MW>  (2591) 
168

>  <ID>  (2591) 
JP008620

>  <CONTRIBUTOR>  (2591) 
University of Tokyo Team, {Faculty of Engineering, University of Tokyo

>  <COMMENT>  (2591) 
SMILES=CCC(C)(C)C(C1)CCC(=O)C1
InChI=InChI=1S/C11H20O/c1-4-11(2,3)9-5-7-10(12)8-6-9/h9H,4-8H2,1-3H3
computed SMILES=O=C1CCC(CC1)C(C)(C)CC
accession=JP008620
date=2016.01.19 (Created 2008.10.21, modified 2011.05.06)
author=SODA AROMATIC CO., LTD.
license=CC BY-NC-SA
exact mass=168.15142
ionization energy=70 eV
ion type=[M]+*
computed spectral entropy=2.9152084114960477
computed normalized entropy=0.765817410745007
SPLASH=splash10-006y-9000000000-d0a2fa7b15363d59135b
submitter=submitter = University of Tokyo Team (Faculty of Engineering, University of Tokyo)
MoNA Rating=3.75

>  <NUM PEAKS>  (2591) 
45

>  <MASS SPECTRAL PEAKS>  (2591) 
15 1.48
26 1.51
27 25.04
29 26.23
39 23.91
40 2.55
41 58.85
42 8.49
43 96.87
44 1.94
51 1.87
52 1.23
53 8.89
54 4.14
55 51.69
56 5.43
57 6.41
65 2.07
66 1.1
67 9.21
68 4.74
69 25.74
70 16.35
71 99.99
72 4.99
77 1.73
79 4.95
80 1.23
81 4.29
82 1.61
83 30.12
84 1.8
93 2.99
95 3.85
96 2.07
97 16.2
98 93.57
99 7.77
111 1.29
121 2.26
135 1.45
138 4.6
153 1.82
168 8.85
169 1.21

$$$$

     RDKit          2D

 11 11  0  0  0  0  0  0  0  0999 V2000
    2.6991    0.2013    0.0000 C   0  0  0  0  0  0  0  0  0  0  0  0
    3.2478    2.2504    0.0000 C   0  0  0  0  0  0  0  0  0  0  0  0
    1.1987    2.7991    0.0000 C   0  0  0  0  0  0  0  0  0  0  0  0
   -1.9500    0.7500    0.0000 C   0  0  0  0  0  0  0  0  0  0  0  0
   -1.9500   -0.7500    0.0000 C   0  0  0  0  0  0  0  0  0  0  0  0
   -0.6500    1.5000    0.0000 C   0  0  0  0  0  0  0  0  0  0  0  0
   -0.6500   -1.5000    0.0000 C   0  0  0  0  0  0  0  0  0  0  0  0
    0.6500    0.7500    0.0000 C   0  0  0  0  0  0  0  0  0  0  0  0
    0.6500   -0.7500    0.0000 C   0  0  0  0  0  0  0  0  0  0  0  0
    1.9489    1.5002    0.0000 C   0  0  0  0  0  0  0  0  0  0  0  0
    1.9489   -1.5002    0.0000 O   0  0  0  0  0  0  0  0  0  0  0  0
  5  4  1  0
  6  4  1  0
  7  5  1  0
  8  6  1  0
  9  7  1  0
  9  8  1  0
 10  1  1  0
 10  2  1  0
 10  3  1  0
 10  8  1  0
 11  9  2  0
M  END
>  <NAME>  (2592) 
2-TERT-BUTYLCYCLOHEXANONE

>  <SYNONYMS>  (2592) 
2-(1,1-DIMETHYLETHYL)CYCLOHEXANONE

>  <SPECTRUM TYPE>  (2592) 
MS1

>  <INSTRUMENT TYPE>  (2592) 
EI-B

>  <INSTRUMENT>  (2592) 
HITACHI M-80B

>  <ION MODE>  (2592) 
P

>  <INCHIKEY>  (2592) 
ZRYDPLOWJSFQAE-UHFFFAOYSA-N

>  <FORMULA>  (2592) 
C10H18O

>  <EXACT MASS>  (2592) 
154.135765196

>  <MW>  (2592) 
154

>  <ID>  (2592) 
JP008619

>  <CONTRIBUTOR>  (2592) 
University of Tokyo Team, {Faculty of Engineering, University of Tokyo

>  <COMMENT>  (2592) 
SMILES=O=C(C1)C(CCC1)C(C)(C)C
InChI=InChI=1S/C10H18O/c1-10(2,3)8-6-4-5-7-9(8)11/h8H,4-7H2,1-3H3
computed SMILES=O=C1CCCCC1C(C)(C)C
accession=JP008619
date=2016.01.19 (Created 2008.10.21, modified 2011.05.06)
author=SODA AROMATIC CO., LTD.
license=CC BY-NC-SA
exact mass=154.13577
ionization energy=70 eV
ion type=[M]+*
computed spectral entropy=2.8227702747545718
computed normalized entropy=0.7817320534676727
SPLASH=splash10-052b-9000000000-c37003efcd68c1a2d11d
submitter=submitter = University of Tokyo Team (Faculty of Engineering, University of Tokyo)
MoNA Rating=3.75

>  <NUM PEAKS>  (2592) 
37

>  <MASS SPECTRAL PEAKS>  (2592) 
15 1.03
27 11.65
29 12.5
39 14.67
40 1.01
41 39.68
42 6.97
43 8.23
51 1.44
53 5.54
54 1.35
55 26.23
56 5.16
57 31.03
58 1.18
65 1.1
67 6.72
68 1.44
69 23
70 20.5
71 1.95
77 1.27
79 1.76
81 2.11
83 20.58
84 1.58
93 1.17
95 9.28
96 1.28
97 9.55
98 99.99
99 7.13
110 1.75
111 1.63
121 1.08
139 11.07
154 2.15

$$$$

     RDKit          2D

 11 10  0  0  0  0  0  0  0  0999 V2000
   -8.4437    5.6250    0.0000 C   0  0  0  0  0  0  0  0  0  0  0  0
    3.2476    4.8750    0.0000 C   0  0  0  0  0  0  0  0  0  0  0  0
   -7.1447    4.8750    0.0000 C   0  0  0  0  0  0  0  0  0  0  0  0
    1.9486    5.6250    0.0000 C   0  0  0  0  0  0  0  0  0  0  0  0
   -5.8457    5.6250    0.0000 C   0  0  0  0  0  0  0  0  0  0  0  0
   -4.5466    4.8750    0.0000 C   0  0  0  0  0  0  0  0  0  0  0  0
   -3.2476    5.6250    0.0000 C   0  0  0  0  0  0  0  0  0  0  0  0
    0.6495    4.8750    0.0000 C   0  0  0  0  0  0  0  0  0  0  0  0
   -1.9486    4.8750    0.0000 C   0  0  0  0  0  0  0  0  0  0  0  0
   -1.9486    3.3750    0.0000 O   0  0  0  0  0  0  0  0  0  0  0  0
   -0.6495    5.6250    0.0000 O   0  0  0  0  0  0  0  0  0  0  0  0
  3  1  1  0
  4  2  2  0
  5  3  1  0
  6  5  1  0
  7  6  1  0
  8  4  1  0
  9  7  1  0
 10  9  2  0
 11  8  1  0
 11  9  1  0
M  END
>  <NAME>  (2593) 
ALLYL HEXANOATE

>  <SYNONYMS>  (2593) 


>  <SPECTRUM TYPE>  (2593) 
MS1

>  <INSTRUMENT TYPE>  (2593) 
EI-B

>  <INSTRUMENT>  (2593) 
HITACHI M-80B

>  <ION MODE>  (2593) 
P

>  <INCHIKEY>  (2593) 
RCSBILYQLVXLJG-UHFFFAOYSA-N

>  <FORMULA>  (2593) 
C9H16O2

>  <EXACT MASS>  (2593) 
156.115029752

>  <MW>  (2593) 
156

>  <ID>  (2593) 
JP008618

>  <CONTRIBUTOR>  (2593) 
University of Tokyo Team, {Faculty of Engineering, University of Tokyo

>  <COMMENT>  (2593) 
SMILES=CCCCCC(=O)OCC=C
InChI=InChI=1S/C9H16O2/c1-3-5-6-7-9(10)11-8-4-2/h4H,2-3,5-8H2,1H3
computed SMILES=O=C(OCC=C)CCCCC
accession=JP008618
date=2016.01.19 (Created 2008.10.21, modified 2011.05.06)
author=SODA AROMATIC CO., LTD.
license=CC BY-NC-SA
exact mass=156.11503
ionization energy=70 eV
ion type=[M]+*
computed spectral entropy=2.763028702553047
computed normalized entropy=0.7710378401804805
SPLASH=splash10-0006-9000000000-149d79e35c1f7b309b58
submitter=submitter = University of Tokyo Team (Faculty of Engineering, University of Tokyo)
MoNA Rating=3.75

>  <NUM PEAKS>  (2593) 
36

>  <MASS SPECTRAL PEAKS>  (2593) 
15 1.49
26 2.36
27 25.62
29 26.55
31 1.69
38 1.91
39 36.55
40 4.69
41 96.82
42 17.79
43 99.99
44 3.58
45 2.22
53 2.03
54 7.5
55 30.68
56 9.06
57 11.83
58 6.78
60 1.42
67 1.2
69 26.97
70 4.71
71 57.32
72 3.74
73 7.97
81 1.56
82 2.42
85 1.48
97 5.99
98 1.04
99 94.66
100 29.05
101 1.66
113 8.91
127 2.09

$$$$

     RDKit          2D

 11 11  0  0  0  0  0  0  0  0999 V2000
   -3.8969    2.5696    0.0000 C   0  0  0  0  0  0  0  0  0  0  0  0
    2.5983    0.3196    0.0000 C   0  0  0  0  0  0  0  0  0  0  0  0
    2.5988    1.8204    0.0000 C   0  0  0  0  0  0  0  0  0  0  0  0
    1.2988   -0.4312    0.0000 C   0  0  0  0  0  0  0  0  0  0  0  0
    1.2998    2.5704    0.0000 C   0  0  0  0  0  0  0  0  0  0  0  0
   -0.0002    0.3188    0.0000 C   0  0  0  0  0  0  0  0  0  0  0  0
   -2.5978    1.8196    0.0000 C   0  0  0  0  0  0  0  0  0  0  0  0
    0.0002    1.8196    0.0000 C   0  0  0  0  0  0  0  0  0  0  0  0
   -1.2988    2.5696    0.0000 C   0  0  0  0  0  0  0  0  0  0  0  0
   -2.5978    0.3196    0.0000 O   0  0  0  0  0  0  0  0  0  0  0  0
   -1.2988    4.0696    0.0000 O   0  0  0  0  0  0  0  0  0  0  0  0
  3  2  2  0
  4  2  1  0
  5  3  1  0
  6  4  2  0
  7  1  1  0
  8  5  2  0
  8  6  1  0
  9  7  1  0
  9  8  1  0
 10  7  2  0
 11  9  2  0
M  END
>  <NAME>  (2594) 
1-PHENYL-1,2-PROPANEDIONE

>  <SYNONYMS>  (2594) 


>  <SPECTRUM TYPE>  (2594) 
MS1

>  <INSTRUMENT TYPE>  (2594) 
EI-B

>  <INSTRUMENT>  (2594) 
HITACHI M-80B

>  <ION MODE>  (2594) 
P

>  <INCHIKEY>  (2594) 
BVQVLAIMHVDZEL-UHFFFAOYSA-N

>  <FORMULA>  (2594) 
C9H8O2

>  <EXACT MASS>  (2594) 
148.052429496

>  <MW>  (2594) 
148

>  <ID>  (2594) 
JP008617

>  <CONTRIBUTOR>  (2594) 
University of Tokyo Team, {Faculty of Engineering, University of Tokyo

>  <COMMENT>  (2594) 
SMILES=CC(=O)C(=O)c(c1)cccc1
InChI=InChI=1S/C9H8O2/c1-7(10)9(11)8-5-3-2-4-6-8/h2-6H,1H3
computed SMILES=O=C(C=1C=CC=CC1)C(=O)C
accession=JP008617
date=2016.01.19 (Created 2008.10.21, modified 2011.05.06)
author=SODA AROMATIC CO., LTD.
license=CC BY-NC-SA
exact mass=148.05243
ionization energy=70 eV
ion type=[M]+*
computed spectral entropy=1.8592987946730226
computed normalized entropy=0.6562508956742125
SPLASH=splash10-0a6r-9500000000-0ad1ba839fdf36b66932
submitter=submitter = University of Tokyo Team (Faculty of Engineering, University of Tokyo)
MoNA Rating=3.75

>  <NUM PEAKS>  (2594) 
17

>  <MASS SPECTRAL PEAKS>  (2594) 
15 5.19
27 1.96
38 1.33
39 1.84
42 1.5
43 18.42
50 12.2
51 33.51
52 1.49
74 3.8
75 1.73
76 2.58
77 78.91
78 5.44
105 99.99
106 7.94
148 1.62

$$$$

     RDKit          2D

 15 15  0  0  0  0  0  0  0  0999 V2000
   -4.5417    2.6398    0.0000 C   0  0  0  0  0  0  0  0  0  0  0  0
   -3.2538    0.3834    0.0000 C   0  0  0  0  0  0  0  0  0  0  0  0
    7.1567    0.3603    0.0000 C   0  0  0  0  0  0  0  0  0  0  0  0
    3.2487    2.6078    0.0000 C   0  0  0  0  0  0  0  0  0  0  0  0
    1.9352    0.3830    0.0000 C   0  0  0  0  0  0  0  0  0  0  0  0
    0.6544    2.6142    0.0000 C   0  0  0  0  0  0  0  0  0  0  0  0
    4.5332    1.8830    0.0000 C   0  0  0  0  0  0  0  0  0  0  0  0
    3.2597   -0.4112    0.0000 C   0  0  0  0  0  0  0  0  0  0  0  0
   -0.6484    1.8706    0.0000 C   0  0  0  0  0  0  0  0  0  0  0  0
   -3.2464    1.8834    0.0000 C   0  0  0  0  0  0  0  0  0  0  0  0
    1.9497    1.8578    0.0000 C   0  0  0  0  0  0  0  0  0  0  0  0
    4.5587    0.3388    0.0000 C   0  0  0  0  0  0  0  0  0  0  0  0
   -1.9437    2.6270    0.0000 C   0  0  0  0  0  0  0  0  0  0  0  0
   -1.9363    4.1270    0.0000 O   0  0  0  0  0  0  0  0  0  0  0  0
    5.8639   -0.4004    0.0000 O   0  0  0  0  0  0  0  0  0  0  0  0
  7  4  2  0
  8  5  1  0
  6  9  2  0
 10  1  1  0
 10  2  1  0
 11  4  1  0
 11  5  2  0
 11  6  1  0
 12  7  1  0
 12  8  2  0
 13  9  1  0
 13 10  1  0
 14 13  2  0
 15  3  1  0
 15 12  1  0
M  END
>  <NAME>  (2595) 
ISOPROPYL P-METHOXYSTYRYL KETONE

>  <SYNONYMS>  (2595) 
5-(4-METHOXYPHENYL)-2-METHYL-4-PENTEN-3-ONE

>  <SPECTRUM TYPE>  (2595) 
MS1

>  <INSTRUMENT TYPE>  (2595) 
EI-B

>  <INSTRUMENT>  (2595) 
HITACHI M-80B

>  <ION MODE>  (2595) 
P

>  <INCHIKEY>  (2595) 
ZIXVMEYRFPMOAV-RMKNXTFCSA-N

>  <FORMULA>  (2595) 
C13H16O2

>  <EXACT MASS>  (2595) 
204.115029752

>  <MW>  (2595) 
204

>  <ID>  (2595) 
JP008616

>  <CONTRIBUTOR>  (2595) 
University of Tokyo Team, {Faculty of Engineering, University of Tokyo

>  <COMMENT>  (2595) 
SMILES=COc(c1)ccc(C=CC(=O)C(C)C)c1
InChI=InChI=1S/C13H16O2/c1-10(2)13(14)9-6-11-4-7-12(15-3)8-5-11/h4-10H,1-3H3/b9-6+
computed SMILES=O=C(C=CC1=CC=C(OC)C=C1)C(C)C
accession=JP008616
date=2016.01.19 (Created 2008.10.21, modified 2011.05.06)
author=SODA AROMATIC CO., LTD.
license=CC BY-NC-SA
exact mass=204.11503
ionization energy=70 eV
ion type=[M]+*
computed spectral entropy=2.3851191717221227
computed normalized entropy=0.6945626263857092
SPLASH=splash10-03di-4900000000-d7d829dc70b2b49b3982
submitter=submitter = University of Tokyo Team (Faculty of Engineering, University of Tokyo)
MoNA Rating=3.75

>  <NUM PEAKS>  (2595) 
31

>  <MASS SPECTRAL PEAKS>  (2595) 
15 1.65
27 6
39 4.64
41 5.65
43 4.66
50 1.36
51 2.85
53 1.03
62 1.22
63 4.52
64 3.14
65 1.43
75 1.31
76 1.62
77 6.33
79 2.61
89 6.42
90 7.22
91 1.53
92 2.82
101 1.05
102 2.8
103 3
117 1.19
118 6.15
133 20.99
134 1.77
161 99.99
162 10.45
204 7.54
205 1.13

$$$$

     RDKit          2D

 14 14  0  0  0  0  0  0  0  0999 V2000
   -4.5473    2.6302    0.0000 C   0  0  0  0  0  0  0  0  0  0  0  0
    7.1512    0.3507    0.0000 C   0  0  0  0  0  0  0  0  0  0  0  0
   -3.2519    1.8738    0.0000 C   0  0  0  0  0  0  0  0  0  0  0  0
    0.6488    2.6046    0.0000 C   0  0  0  0  0  0  0  0  0  0  0  0
    3.2432    2.5982    0.0000 C   0  0  0  0  0  0  0  0  0  0  0  0
    1.9296    0.3734    0.0000 C   0  0  0  0  0  0  0  0  0  0  0  0
   -0.6539    1.8610    0.0000 C   0  0  0  0  0  0  0  0  0  0  0  0
    4.5277    1.8734    0.0000 C   0  0  0  0  0  0  0  0  0  0  0  0
    3.2542   -0.4208    0.0000 C   0  0  0  0  0  0  0  0  0  0  0  0
    1.9442    1.8482    0.0000 C   0  0  0  0  0  0  0  0  0  0  0  0
   -1.9492    2.6174    0.0000 C   0  0  0  0  0  0  0  0  0  0  0  0
    4.5532    0.3292    0.0000 C   0  0  0  0  0  0  0  0  0  0  0  0
   -1.9418    4.1174    0.0000 O   0  0  0  0  0  0  0  0  0  0  0  0
    5.8584   -0.4100    0.0000 O   0  0  0  0  0  0  0  0  0  0  0  0
  3  1  1  0
  4  7  2  0
  8  5  2  0
  9  6  1  0
 10  4  1  0
 10  5  1  0
 10  6  2  0
 11  3  1  0
 11  7  1  0
 12  8  1  0
 12  9  2  0
 13 11  2  0
 14  2  1  0
 14 12  1  0
M  END
>  <NAME>  (2596) 
ALPHA-METHYLANISALACETONE

>  <SYNONYMS>  (2596) 
5-(4-METHOXYPHENYL)-4-PENTEN-3-ONE

>  <SPECTRUM TYPE>  (2596) 
MS1

>  <INSTRUMENT TYPE>  (2596) 
EI-B

>  <INSTRUMENT>  (2596) 
HITACHI M-80B

>  <ION MODE>  (2596) 
P

>  <INCHIKEY>  (2596) 
SLDQOBRACOQXGE-QPJJXVBHSA-N

>  <FORMULA>  (2596) 
C12H14O2

>  <EXACT MASS>  (2596) 
190.099379688

>  <MW>  (2596) 
190

>  <ID>  (2596) 
JP008615

>  <CONTRIBUTOR>  (2596) 
University of Tokyo Team, {Faculty of Engineering, University of Tokyo

>  <COMMENT>  (2596) 
SMILES=CCC(=O)C=Cc(c1)ccc(OC)c1
InChI=InChI=1S/C12H14O2/c1-3-11(13)7-4-10-5-8-12(14-2)9-6-10/h4-9H,3H2,1-2H3/b7-4+
computed SMILES=O=C(C=CC1=CC=C(OC)C=C1)CC
accession=JP008615
date=2016.01.19 (Created 2008.10.21, modified 2011.05.06)
author=SODA AROMATIC CO., LTD.
license=CC BY-NC-SA
exact mass=190.09938
ionization energy=70 eV
ion type=[M]+*
computed spectral entropy=2.794216713414348
computed normalized entropy=0.72574275130992
SPLASH=splash10-03di-3900000000-9e477ebf4e87fe2634e2
submitter=submitter = University of Tokyo Team (Faculty of Engineering, University of Tokyo)
MoNA Rating=3.75

>  <NUM PEAKS>  (2596) 
47

>  <MASS SPECTRAL PEAKS>  (2596) 
15 2.02
26 1.16
27 5.54
29 5.27
38 1.19
39 3.01
44 1.82
50 1.9
51 3.13
53 1.06
55 2.01
57 1.9
62 1.8
63 6.18
64 3.32
65 1.43
75 1.77
76 1.74
77 7.19
78 1.39
79 2.16
89 7.96
90 8.07
91 2.32
92 3.74
101 1.14
102 3.16
103 3.84
108 1.1
115 1.76
117 1.73
118 7.1
119 1.33
132 1.01
133 29.08
134 2.67
146 1.22
157 1.72
159 1.07
161 99.99
162 8.55
173 1.53
187 2.38
188 3.9
189 1.39
190 19.26
191 2.01

$$$$

     RDKit          2D

 13 13  0  0  0  0  0  0  0  0999 V2000
    4.5813   -0.0176    0.0000 C   0  0  0  0  0  0  0  0  0  0  0  0
   -1.9139    3.7324    0.0000 C   0  0  0  0  0  0  0  0  0  0  0  0
   -3.2134   -0.0180    0.0000 C   0  0  0  0  0  0  0  0  0  0  0  0
    1.9837    1.4833    0.0000 C   0  0  0  0  0  0  0  0  0  0  0  0
    0.6847    2.2333    0.0000 C   0  0  0  0  0  0  0  0  0  0  0  0
    0.6837   -0.7684    0.0000 C   0  0  0  0  0  0  0  0  0  0  0  0
    3.2823   -0.7676    0.0000 C   0  0  0  0  0  0  0  0  0  0  0  0
    1.9832   -0.0176    0.0000 C   0  0  0  0  0  0  0  0  0  0  0  0
   -0.6148    1.4824    0.0000 C   0  0  0  0  0  0  0  0  0  0  0  0
   -0.6153   -0.0184    0.0000 C   0  0  0  0  0  0  0  0  0  0  0  0
    3.2823   -2.2676    0.0000 O   0  0  0  0  0  0  0  0  0  0  0  0
   -1.9139    2.2324    0.0000 O   0  0  0  0  0  0  0  0  0  0  0  0
   -1.9145   -0.7682    0.0000 O   0  0  0  0  0  0  0  0  0  0  0  0
  5  4  2  0
  7  1  1  0
  8  4  1  0
  8  6  2  0
  8  7  1  0
  9  5  1  0
 10  6  1  0
 10  9  2  0
 11  7  2  0
 12  2  1  0
 12  9  1  0
 13  3  1  0
 13 10  1  0
M  END
>  <NAME>  (2597) 
3,4-DIMETHOXYACETOPHENONE

>  <SYNONYMS>  (2597) 


>  <SPECTRUM TYPE>  (2597) 
MS1

>  <INSTRUMENT TYPE>  (2597) 
EI-B

>  <INSTRUMENT>  (2597) 
HITACHI M-80B

>  <ION MODE>  (2597) 
P

>  <INCHIKEY>  (2597) 
IQZLUWLMQNGTIW-UHFFFAOYSA-N

>  <FORMULA>  (2597) 
C10H12O3

>  <EXACT MASS>  (2597) 
180.07864424399997

>  <MW>  (2597) 
180

>  <ID>  (2597) 
JP008614

>  <CONTRIBUTOR>  (2597) 
University of Tokyo Team, {Faculty of Engineering, University of Tokyo

>  <COMMENT>  (2597) 
SMILES=COc(c1)c(OC)cc(C(C)=O)c1
InChI=InChI=1S/C10H12O3/c1-7(11)8-4-5-9(12-2)10(6-8)13-3/h4-6H,1-3H3
computed SMILES=O=C(C1=CC=C(OC)C(OC)=C1)C
accession=JP008614
date=2016.01.19 (Created 2008.10.21, modified 2011.05.06)
author=SODA AROMATIC CO., LTD.
license=CC BY-NC-SA
exact mass=180.07864
ionization energy=70 eV
ion type=[M]+*
computed spectral entropy=2.8104398875995265
computed normalized entropy=0.7618681831593194
SPLASH=splash10-014i-6900000000-fab3be00362e31d8eccf
submitter=submitter = University of Tokyo Team (Faculty of Engineering, University of Tokyo)
MoNA Rating=3.75

>  <NUM PEAKS>  (2597) 
40

>  <MASS SPECTRAL PEAKS>  (2597) 
14 1.23
15 7.95
29 1.26
38 1.26
39 3.32
41 1.5
43 24.03
50 5.23
51 14.05
52 2.05
53 3.86
62 2.07
63 6.27
64 1.97
65 3.75
66 4.56
74 1.21
75 1.5
76 4.4
77 15.28
78 2.2
79 16.82
80 1.38
91 2.93
92 6.17
94 6.54
95 1.2
105 1.37
107 5.85
109 4.5
119 3.45
120 1.71
121 1.72
122 8.07
137 10.27
165 99.99
166 9.2
167 1.01
180 49.18
181 4.88

$$$$

     RDKit          2D

 13 13  0  0  0  0  0  0  0  0999 V2000
   -3.5850    1.3225    0.0000 C   0  0  0  0  0  0  0  0  0  0  0  0
    6.8181   -0.2006    0.0000 C   0  0  0  0  0  0  0  0  0  0  0  0
   -0.9870    1.3097    0.0000 C   0  0  0  0  0  0  0  0  0  0  0  0
    0.3158    2.0533    0.0000 C   0  0  0  0  0  0  0  0  0  0  0  0
    2.9101    2.0469    0.0000 C   0  0  0  0  0  0  0  0  0  0  0  0
    1.5966   -0.1779    0.0000 C   0  0  0  0  0  0  0  0  0  0  0  0
    4.1946    1.3221    0.0000 C   0  0  0  0  0  0  0  0  0  0  0  0
    2.9211   -0.9721    0.0000 C   0  0  0  0  0  0  0  0  0  0  0  0
   -2.2823    2.0661    0.0000 C   0  0  0  0  0  0  0  0  0  0  0  0
    1.6111    1.2969    0.0000 C   0  0  0  0  0  0  0  0  0  0  0  0
    4.2201   -0.2221    0.0000 C   0  0  0  0  0  0  0  0  0  0  0  0
   -2.2749    3.5661    0.0000 O   0  0  0  0  0  0  0  0  0  0  0  0
    5.5253   -0.9613    0.0000 O   0  0  0  0  0  0  0  0  0  0  0  0
  4  3  1  0
  7  5  2  0
  8  6  1  0
  9  1  1  0
  9  3  1  0
 10  4  1  0
 10  5  1  0
 10  6  2  0
 11  7  1  0
 11  8  2  0
 12  9  2  0
 13  2  1  0
 13 11  1  0
M  END
>  <NAME>  (2598) 
ANISYLACETONE

>  <SYNONYMS>  (2598) 
4-(4-METHOXYPHENYL)-2-BUTANONE

>  <SPECTRUM TYPE>  (2598) 
MS1

>  <INSTRUMENT TYPE>  (2598) 
EI-B

>  <INSTRUMENT>  (2598) 
HITACHI M-80B

>  <ION MODE>  (2598) 
P

>  <INCHIKEY>  (2598) 
PCBSXBYCASFXTM-UHFFFAOYSA-N

>  <FORMULA>  (2598) 
C11H14O2

>  <EXACT MASS>  (2598) 
178.099379688

>  <MW>  (2598) 
178

>  <ID>  (2598) 
JP008613

>  <CONTRIBUTOR>  (2598) 
University of Tokyo Team, {Faculty of Engineering, University of Tokyo

>  <COMMENT>  (2598) 
SMILES=COc(c1)ccc(CCC(C)=O)c1
InChI=InChI=1S/C11H14O2/c1-9(12)3-4-10-5-7-11(13-2)8-6-10/h5-8H,3-4H2,1-2H3
computed SMILES=O=C(C)CCC1=CC=C(OC)C=C1
accession=JP008613
date=2016.01.19 (Created 2008.10.21, modified 2011.05.06)
author=SODA AROMATIC CO., LTD.
license=CC BY-NC-SA
exact mass=178.09938
ionization energy=70 eV
ion type=[M]+*
computed spectral entropy=2.4940028139091
computed normalized entropy=0.7132839755287368
SPLASH=splash10-00di-5900000000-47c1f7655edcdfde74c6
submitter=submitter = University of Tokyo Team (Faculty of Engineering, University of Tokyo)
MoNA Rating=3.75

>  <NUM PEAKS>  (2598) 
33

>  <MASS SPECTRAL PEAKS>  (2598) 
15 3.11
27 2.34
39 4.36
41 1.79
42 1.41
43 28.19
50 1.69
51 4.09
52 2.29
53 1.23
55 2.34
63 3
64 1.8
65 5.07
77 8.04
78 5.95
79 2.68
89 1.96
90 1.17
91 8.85
92 2.37
103 2.63
105 3.13
108 8.12
119 1.65
120 1.64
121 99.99
122 7.33
134 1.4
135 5.93
163 2.6
178 28.34
179 2.98

$$$$

     RDKit          2D

 11 11  0  0  0  0  0  0  0  0999 V2000
   -2.6300   -1.5107    0.0000 C   0  0  0  0  0  0  0  0  0  0  0  0
    3.8980    2.2543    0.0000 C   0  0  0  0  0  0  0  0  0  0  0  0
   -1.3199    2.2329    0.0000 C   0  0  0  0  0  0  0  0  0  0  0  0
   -0.0499   -0.0171    0.0000 C   0  0  0  0  0  0  0  0  0  0  0  0
   -0.0499    2.9829    0.0000 C   0  0  0  0  0  0  0  0  0  0  0  0
    1.3001    0.7329    0.0000 C   0  0  0  0  0  0  0  0  0  0  0  0
   -2.6227   -0.0107    0.0000 C   0  0  0  0  0  0  0  0  0  0  0  0
   -1.3199    0.7329    0.0000 C   0  0  0  0  0  0  0  0  0  0  0  0
    1.3001    2.2329    0.0000 C   0  0  0  0  0  0  0  0  0  0  0  0
   -3.9180    0.7457    0.0000 O   0  0  0  0  0  0  0  0  0  0  0  0
    2.5929    2.9936    0.0000 O   0  0  0  0  0  0  0  0  0  0  0  0
  5  3  2  0
  6  4  1  0
  7  1  1  0
  8  3  1  0
  8  4  2  0
  8  7  1  0
  9  5  1  0
  9  6  2  0
 10  7  2  0
 11  2  1  0
 11  9  1  0
M  END
>  <NAME>  (2599) 
P-METHOXYACETOPHENONE

>  <SYNONYMS>  (2599) 


>  <SPECTRUM TYPE>  (2599) 
MS1

>  <INSTRUMENT TYPE>  (2599) 
EI-B

>  <INSTRUMENT>  (2599) 
HITACHI M-80B

>  <ION MODE>  (2599) 
P

>  <INCHIKEY>  (2599) 
NTPLXRHDUXRPNE-UHFFFAOYSA-N

>  <FORMULA>  (2599) 
C9H10O2

>  <EXACT MASS>  (2599) 
150.06807956

>  <MW>  (2599) 
150

>  <ID>  (2599) 
JP008612

>  <CONTRIBUTOR>  (2599) 
University of Tokyo Team, {Faculty of Engineering, University of Tokyo

>  <COMMENT>  (2599) 
SMILES=COc(c1)ccc(c1)C(C)=O
InChI=InChI=1S/C9H10O2/c1-7(10)8-3-5-9(11-2)6-4-8/h3-6H,1-2H3
computed SMILES=O=C(C1=CC=C(OC)C=C1)C
accession=JP008612
date=2016.01.19 (Created 2008.10.21, modified 2011.05.06)
author=SODA AROMATIC CO., LTD.
license=CC BY-NC-SA
exact mass=150.06808
ionization energy=70 eV
ion type=[M]+*
computed spectral entropy=2.477402207828874
computed normalized entropy=0.7357245495828103
SPLASH=splash10-000i-8900000000-1c868f73005d65c19187
submitter=submitter = University of Tokyo Team (Faculty of Engineering, University of Tokyo)
MoNA Rating=3.75

>  <NUM PEAKS>  (2599) 
29

>  <MASS SPECTRAL PEAKS>  (2599) 
15 4.2
27 1.33
38 3.38
39 3.89
43 15.59
50 5.07
51 5.07
52 1.63
53 2.21
61 1.22
62 3.09
63 9.51
64 11.81
65 2.42
74 2.38
75 1.95
76 3.14
77 32.27
78 4.08
79 2.05
91 1.27
92 21.76
93 1.43
107 9.58
108 1.01
135 99.99
136 7.07
150 34.01
151 2.47

$$$$

     RDKit          2D

 16 17  0  0  0  0  0  0  0  0999 V2000
    3.2481    2.1950    0.0000 C   0  0  0  0  0  0  0  0  0  0  0  0
   -7.1442    2.1950    0.0000 C   0  0  0  0  0  0  0  0  0  0  0  0
    3.2486    3.6958    0.0000 C   0  0  0  0  0  0  0  0  0  0  0  0
    1.9486    1.4442    0.0000 C   0  0  0  0  0  0  0  0  0  0  0  0
   -5.8447    1.4442    0.0000 C   0  0  0  0  0  0  0  0  0  0  0  0
   -7.1447    3.6958    0.0000 C   0  0  0  0  0  0  0  0  0  0  0  0
    1.9495    4.4458    0.0000 C   0  0  0  0  0  0  0  0  0  0  0  0
    0.6495    2.1942    0.0000 C   0  0  0  0  0  0  0  0  0  0  0  0
   -4.5457    2.1942    0.0000 C   0  0  0  0  0  0  0  0  0  0  0  0
   -5.8457    4.4458    0.0000 C   0  0  0  0  0  0  0  0  0  0  0  0
   -0.6490    4.4450    0.0000 C   0  0  0  0  0  0  0  0  0  0  0  0
   -1.9481    3.6950    0.0000 C   0  0  0  0  0  0  0  0  0  0  0  0
    0.6500    3.6950    0.0000 C   0  0  0  0  0  0  0  0  0  0  0  0
   -4.5462    3.6950    0.0000 C   0  0  0  0  0  0  0  0  0  0  0  0
   -3.2471    4.4450    0.0000 C   0  0  0  0  0  0  0  0  0  0  0  0
   -3.2471    5.9450    0.0000 O   0  0  0  0  0  0  0  0  0  0  0  0
  3  1  2  0
  4  1  1  0
  5  2  2  0
  6  2  1  0
  7  3  1  0
  8  4  2  0
  9  5  1  0
 10  6  2  0
 12 11  1  0
 13  7  2  0
 13  8  1  0
 13 11  1  0
 14  9  2  0
 14 10  1  0
 15 12  1  0
 15 14  1  0
 16 15  2  0
M  END
>  <NAME>  (2600) 
BENZYLACETOPHENONE

>  <SYNONYMS>  (2600) 
3-PHENYLPROPIOPHENONE

>  <SPECTRUM TYPE>  (2600) 
MS1

>  <INSTRUMENT TYPE>  (2600) 
EI-B

>  <INSTRUMENT>  (2600) 
HITACHI M-80B

>  <ION MODE>  (2600) 
P

>  <INCHIKEY>  (2600) 
QGGZBXOADPVUPN-UHFFFAOYSA-N

>  <FORMULA>  (2600) 
C15H14O

>  <EXACT MASS>  (2600) 
210.104465068

>  <MW>  (2600) 
210

>  <ID>  (2600) 
JP008611

>  <CONTRIBUTOR>  (2600) 
University of Tokyo Team, {Faculty of Engineering, University of Tokyo

>  <COMMENT>  (2600) 
SMILES=O=C(CCc(c2)cccc2)c(c1)cccc1
InChI=InChI=1S/C15H14O/c16-15(14-9-5-2-6-10-14)12-11-13-7-3-1-4-8-13/h1-10H,11-12H2
computed SMILES=O=C(C=1C=CC=CC1)CCC=2C=CC=CC2
accession=JP008611
date=2016.01.19 (Created 2008.10.21, modified 2011.05.06)
author=SODA AROMATIC CO., LTD.
license=CC BY-NC-SA
exact mass=210.10447
ionization energy=70 eV
ion type=[M]+*
computed spectral entropy=2.0321697373762255
computed normalized entropy=0.6674839088707141
SPLASH=splash10-0a4i-7930000000-932c5f7279d2b7703686
submitter=submitter = University of Tokyo Team (Faculty of Engineering, University of Tokyo)
MoNA Rating=3.75

>  <NUM PEAKS>  (2600) 
21

>  <MASS SPECTRAL PEAKS>  (2600) 
18 1.71
27 2.4
39 2.95
50 2.93
51 10.54
52 1.47
63 1.61
65 3.42
76 1.57
77 43.43
78 4.69
79 2.53
89 1.03
91 9.02
103 2.96
104 4.27
105 99.99
106 6.79
209 1.71
210 32.89
211 4.9

$$$$

     RDKit          2D

 15 16  0  0  0  0  0  0  0  0999 V2000
    4.8791   -2.0600    0.0000 C   0  0  0  0  0  0  0  0  0  0  0  0
   -1.6198    1.6892    0.0000 C   0  0  0  0  0  0  0  0  0  0  0  0
   -1.6200    0.1883    0.0000 C   0  0  0  0  0  0  0  0  0  0  0  0
   -0.3204    2.4402    0.0000 C   0  0  0  0  0  0  0  0  0  0  0  0
    6.1666    1.6900    0.0000 C   0  0  0  0  0  0  0  0  0  0  0  0
    4.8766    2.4400    0.0000 C   0  0  0  0  0  0  0  0  0  0  0  0
    6.1666    0.1900    0.0000 C   0  0  0  0  0  0  0  0  0  0  0  0
   -0.3208   -0.5615    0.0000 C   0  0  0  0  0  0  0  0  0  0  0  0
    0.9788    1.6904    0.0000 C   0  0  0  0  0  0  0  0  0  0  0  0
    3.5766    1.6900    0.0000 C   0  0  0  0  0  0  0  0  0  0  0  0
    4.8766   -0.5600    0.0000 C   0  0  0  0  0  0  0  0  0  0  0  0
    0.9786    0.1896    0.0000 C   0  0  0  0  0  0  0  0  0  0  0  0
    3.5766    0.1900    0.0000 C   0  0  0  0  0  0  0  0  0  0  0  0
    2.2777   -0.5602    0.0000 C   0  0  0  0  0  0  0  0  0  0  0  0
    2.2780   -2.0602    0.0000 O   0  0  0  0  0  0  0  0  0  0  0  0
  3  2  2  0
  4  2  1  0
  6  5  2  0
  7  5  1  0
  8  3  1  0
  9  4  2  0
 10  6  1  0
 11  1  1  0
 11  7  2  0
 12  8  2  0
 12  9  1  0
 13 10  2  0
 13 11  1  0
 14 12  1  0
 14 13  1  0
 15 14  2  0
M  END
>  <NAME>  (2601) 
O-METHYLBENZOPHENONE

>  <SYNONYMS>  (2601) 
2-METHYLBENZOPHENONE

>  <SPECTRUM TYPE>  (2601) 
MS1

>  <INSTRUMENT TYPE>  (2601) 
EI-B

>  <INSTRUMENT>  (2601) 
HITACHI M-80B

>  <ION MODE>  (2601) 
P

>  <INCHIKEY>  (2601) 
CKGKXGQVRVAKEA-UHFFFAOYSA-N

>  <FORMULA>  (2601) 
C14H12O

>  <EXACT MASS>  (2601) 
196.088815004

>  <MW>  (2601) 
196

>  <ID>  (2601) 
JP008610

>  <CONTRIBUTOR>  (2601) 
University of Tokyo Team, {Faculty of Engineering, University of Tokyo

>  <COMMENT>  (2601) 
SMILES=Cc(c2)c(ccc2)C(=O)c(c1)cccc1
InChI=InChI=1S/C14H12O/c1-11-7-5-6-10-13(11)14(15)12-8-3-2-4-9-12/h2-10H,1H3
computed SMILES=O=C(C=1C=CC=CC1)C=2C=CC=CC2C
accession=JP008610
date=2016.01.19 (Created 2008.10.21, modified 2011.05.06)
author=SODA AROMATIC CO., LTD.
license=CC BY-NC-SA
exact mass=196.08882
ionization energy=70 eV
ion type=[M]+*
computed spectral entropy=2.8740055660836408
computed normalized entropy=0.7844840195660066
SPLASH=splash10-0002-6900000000-38e3003e4c9bf2997f9a
submitter=submitter = University of Tokyo Team (Faculty of Engineering, University of Tokyo)
MoNA Rating=3.75

>  <NUM PEAKS>  (2601) 
39

>  <MASS SPECTRAL PEAKS>  (2601) 
14 2.97
17 2.26
18 1.67
27 1.87
32 3.58
39 13.15
40 2.1
41 4.12
50 7.29
51 23.2
52 1.24
62 2.89
63 9.31
64 1.47
65 22.03
74 1.13
75 2.21
76 3.98
77 41.8
78 3.22
89 8.9
90 5.24
91 38.11
92 2.27
105 25.25
119 27.96
120 1.49
152 3.75
165 7.51
166 1.02
167 1.18
177 3.82
178 7.72
179 6.31
181 5.48
194 4.69
195 99.99
196 67.21
197 8.83

$$$$

     RDKit          2D

 10 10  0  0  0  0  0  0  0  0999 V2000
   -1.6328    3.1878    0.0000 C   0  0  0  0  0  0  0  0  0  0  0  0
    3.5681    0.1904    0.0000 C   0  0  0  0  0  0  0  0  0  0  0  0
   -1.6200   -1.3100    0.0000 C   0  0  0  0  0  0  0  0  0  0  0  0
   -0.3300   -2.0600    0.0000 C   0  0  0  0  0  0  0  0  0  0  0  0
   -1.6200    0.1900    0.0000 C   0  0  0  0  0  0  0  0  0  0  0  0
    0.9700   -1.3100    0.0000 C   0  0  0  0  0  0  0  0  0  0  0  0
   -0.3300    0.9400    0.0000 C   0  0  0  0  0  0  0  0  0  0  0  0
    0.9700    0.1900    0.0000 C   0  0  0  0  0  0  0  0  0  0  0  0
   -0.3325    2.4400    0.0000 O   0  0  0  0  0  0  0  0  0  0  0  0
    2.2689    0.9402    0.0000 O   0  0  0  0  0  0  0  0  0  0  0  0
  4  3  2  0
  5  3  1  0
  6  4  1  0
  7  5  2  0
  8  6  2  0
  8  7  1  0
  9  1  1  0
  9  7  1  0
 10  2  1  0
 10  8  1  0
M  END
>  <NAME>  (2602) 
1,2-DIMETHOXYBENZENE

>  <SYNONYMS>  (2602) 
PYROCATECHOL DIMETHYL ETHER

>  <SPECTRUM TYPE>  (2602) 
MS1

>  <INSTRUMENT TYPE>  (2602) 
EI-B

>  <INSTRUMENT>  (2602) 
HITACHI M-80B

>  <ION MODE>  (2602) 
P

>  <INCHIKEY>  (2602) 
ABDKAPXRBAPSQN-UHFFFAOYSA-N

>  <FORMULA>  (2602) 
C8H10O2

>  <EXACT MASS>  (2602) 
138.06807956

>  <MW>  (2602) 
138

>  <ID>  (2602) 
JP008609

>  <CONTRIBUTOR>  (2602) 
University of Tokyo Team, {Faculty of Engineering, University of Tokyo

>  <COMMENT>  (2602) 
SMILES=COc(c1)c(OC)ccc1
InChI=InChI=1S/C8H10O2/c1-9-7-5-3-4-6-8(7)10-2/h3-6H,1-2H3
computed SMILES=O(C=1C=CC=CC1OC)C
accession=JP008609
date=2016.01.19 (Created 2008.10.21, modified 2011.05.06)
author=SODA AROMATIC CO., LTD.
license=CC BY-NC-SA
exact mass=138.06808
ionization energy=70 eV
ion type=[M]+*
computed spectral entropy=2.78537125181451
computed normalized entropy=0.7713748468391025
SPLASH=splash10-000j-9500000000-f6904476f7cfb2482f90
submitter=submitter = University of Tokyo Team (Faculty of Engineering, University of Tokyo)
MoNA Rating=3.75

>  <NUM PEAKS>  (2602) 
37

>  <MASS SPECTRAL PEAKS>  (2602) 
15 9
26 2.96
27 1.51
29 2.24
31 1.56
37 1.18
38 3.66
39 6.08
41 16.59
50 7.75
51 15
52 22.85
53 3.73
54 1.18
55 2.8
62 2.39
63 9.92
64 4.6
65 18.18
66 1.54
67 7.49
74 1.25
76 1.06
77 35.09
78 2.77
79 2.51
80 8.45
92 3.77
93 2.98
95 54.22
96 3.06
121 1.36
122 1.61
123 39.55
124 2.63
138 99.99
139 8.88

$$$$

     RDKit          2D

 15 15  0  0  0  0  0  0  0  0999 V2000
   -3.9180    3.0020    0.0000 C   0  0  0  0  0  0  0  0  0  0  0  0
   -1.3421   -1.5107    0.0000 C   0  0  0  0  0  0  0  0  0  0  0  0
    6.4961    4.4979    0.0000 C   0  0  0  0  0  0  0  0  0  0  0  0
   -2.6227    2.2457    0.0000 C   0  0  0  0  0  0  0  0  0  0  0  0
   -1.3347   -0.0107    0.0000 C   0  0  0  0  0  0  0  0  0  0  0  0
    1.2781    4.4765    0.0000 C   0  0  0  0  0  0  0  0  0  0  0  0
    2.5481    2.2265    0.0000 C   0  0  0  0  0  0  0  0  0  0  0  0
    2.5481    5.2265    0.0000 C   0  0  0  0  0  0  0  0  0  0  0  0
    3.8981    2.9765    0.0000 C   0  0  0  0  0  0  0  0  0  0  0  0
    1.2781    2.9765    0.0000 C   0  0  0  0  0  0  0  0  0  0  0  0
    3.8981    4.4765    0.0000 C   0  0  0  0  0  0  0  0  0  0  0  0
   -0.0246    2.2329    0.0000 C   0  0  0  0  0  0  0  0  0  0  0  0
    5.1909    5.2372    0.0000 O   0  0  0  0  0  0  0  0  0  0  0  0
   -1.3199    2.9893    0.0000 O   0  0  0  0  0  0  0  0  0  0  0  0
   -0.0320    0.7329    0.0000 O   0  0  0  0  0  0  0  0  0  0  0  0
  4  1  1  0
  5  2  1  0
  8  6  2  0
  9  7  1  0
 10  6  1  0
 10  7  2  0
 11  8  1  0
 11  9  2  0
 12 10  1  0
 13  3  1  0
 13 11  1  0
 14  4  1  0
 14 12  1  0
 15  5  1  0
 15 12  1  0
M  END
>  <NAME>  (2603) 
PARA-ANISALDEHYDE DIETHYL ACETAL

>  <SYNONYMS>  (2603) 


>  <SPECTRUM TYPE>  (2603) 
MS1

>  <INSTRUMENT TYPE>  (2603) 
EI-B

>  <INSTRUMENT>  (2603) 
HITACHI M-80B

>  <ION MODE>  (2603) 
P

>  <INCHIKEY>  (2603) 
FTTLMNXOYOVHAG-UHFFFAOYSA-N

>  <FORMULA>  (2603) 
C12H18O3

>  <EXACT MASS>  (2603) 
210.125594436

>  <MW>  (2603) 
210

>  <ID>  (2603) 
JP008608

>  <CONTRIBUTOR>  (2603) 
University of Tokyo Team, {Faculty of Engineering, University of Tokyo

>  <COMMENT>  (2603) 
SMILES=CCOC(OCC)c(c1)ccc(OC)c1
InChI=InChI=1S/C12H18O3/c1-4-14-12(15-5-2)10-6-8-11(13-3)9-7-10/h6-9,12H,4-5H2,1-3H3
computed SMILES=O(C1=CC=C(C=C1)C(OCC)OCC)C
accession=JP008608
date=2016.01.19 (Created 2008.10.21, modified 2011.05.06)
author=SODA AROMATIC CO., LTD.
license=CC BY-NC-SA
exact mass=210.12559
ionization energy=70 eV
ion type=[M]+*
computed spectral entropy=2.4622642429349684
computed normalized entropy=0.7042067547831251
SPLASH=splash10-014r-3900000000-583a2a2090f1339e40c5
submitter=submitter = University of Tokyo Team (Faculty of Engineering, University of Tokyo)
MoNA Rating=3.75

>  <NUM PEAKS>  (2603) 
33

>  <MASS SPECTRAL PEAKS>  (2603) 
27 5.22
29 14.52
31 1.65
39 2.44
47 4.1
51 2.79
63 1.9
64 1.96
65 3.63
66 3.08
75 1.91
77 16.15
78 2.36
79 2.21
91 1.33
92 3.62
93 1.27
94 7.4
105 1.17
107 1.95
108 1.01
109 19.72
110 1.48
121 2.04
122 1.15
135 15.24
136 3.31
137 60.83
138 4.65
153 1.12
165 99.99
166 10.17
210 3.66

$$$$

     RDKit          2D

 14 14  0  0  0  0  0  0  0  0999 V2000
   -6.1702    4.2571    0.0000 C   0  0  0  0  0  0  0  0  0  0  0  0
   -3.5721   -0.2429    0.0000 C   0  0  0  0  0  0  0  0  0  0  0  0
   -4.8712    3.5071    0.0000 C   0  0  0  0  0  0  0  0  0  0  0  0
   -3.5721    1.2571    0.0000 C   0  0  0  0  0  0  0  0  0  0  0  0
    2.9231    2.0071    0.0000 C   0  0  0  0  0  0  0  0  0  0  0  0
    2.9236    3.5079    0.0000 C   0  0  0  0  0  0  0  0  0  0  0  0
    1.6236    1.2563    0.0000 C   0  0  0  0  0  0  0  0  0  0  0  0
    1.6245    4.2579    0.0000 C   0  0  0  0  0  0  0  0  0  0  0  0
    0.3245    2.0063    0.0000 C   0  0  0  0  0  0  0  0  0  0  0  0
   -0.9740    4.2571    0.0000 C   0  0  0  0  0  0  0  0  0  0  0  0
    0.3250    3.5071    0.0000 C   0  0  0  0  0  0  0  0  0  0  0  0
   -2.2731    3.5071    0.0000 C   0  0  0  0  0  0  0  0  0  0  0  0
   -3.5721    4.2571    0.0000 O   0  0  0  0  0  0  0  0  0  0  0  0
   -2.2731    2.0071    0.0000 O   0  0  0  0  0  0  0  0  0  0  0  0
  3  1  1  0
  4  2  1  0
  6  5  2  0
  7  5  1  0
  8  6  1  0
  9  7  2  0
 11  8  2  0
 11  9  1  0
 11 10  1  0
 12 10  1  0
 13  3  1  0
 13 12  1  0
 14  4  1  0
 14 12  1  0
M  END
>  <NAME>  (2604) 
PHENYLACETALDEHYDE DIETHYL ACETAL

>  <SYNONYMS>  (2604) 


>  <SPECTRUM TYPE>  (2604) 
MS1

>  <INSTRUMENT TYPE>  (2604) 
EI-B

>  <INSTRUMENT>  (2604) 
HITACHI M-80B

>  <ION MODE>  (2604) 
P

>  <INCHIKEY>  (2604) 
FYERTDTXGGOMGT-UHFFFAOYSA-N

>  <FORMULA>  (2604) 
C12H18O2

>  <EXACT MASS>  (2604) 
194.130679816

>  <MW>  (2604) 
194

>  <ID>  (2604) 
JP008607

>  <CONTRIBUTOR>  (2604) 
University of Tokyo Team, {Faculty of Engineering, University of Tokyo

>  <COMMENT>  (2604) 
SMILES=CCOC(OCC)Cc(c1)cccc1
InChI=InChI=1S/C12H18O2/c1-3-13-12(14-4-2)10-11-8-6-5-7-9-11/h5-9,12H,3-4,10H2,1-2H3
computed SMILES=O(CC)C(OCC)CC=1C=CC=CC1
accession=JP008607
date=2016.01.19 (Created 2008.10.21, modified 2011.05.06)
author=SODA AROMATIC CO., LTD.
license=CC BY-NC-SA
exact mass=194.13068
ionization energy=70 eV
ion type=[M]+*
computed spectral entropy=2.5653159382747748
computed normalized entropy=0.7002245863625337
SPLASH=splash10-0f95-9500000000-2d490d3461d03d9fd6fe
submitter=submitter = University of Tokyo Team (Faculty of Engineering, University of Tokyo)
MoNA Rating=3.75

>  <NUM PEAKS>  (2604) 
39

>  <MASS SPECTRAL PEAKS>  (2604) 
19 1.27
26 1.02
27 6.71
29 19.23
31 2.12
39 4.75
41 2.19
43 1.89
44 1.29
45 2.3
47 87.72
48 1.1
50 1.13
51 3.96
52 1.07
63 2.81
64 1.05
65 11.88
75 52.36
76 2
77 6.16
78 1.89
79 2.58
89 2.47
90 1.66
91 53.13
92 6.55
93 1.61
103 99.99
104 5.49
105 1.52
119 1.45
120 2.69
121 23.81
122 1.88
131 3.61
148 2.17
149 15.06
150 1.55

$$$$

     RDKit          2D

 20 19  0  0  0  0  0  0  0  0999 V2000
    4.5466    7.8750    0.0000 C   0  0  0  0  0  0  0  0  0  0  0  0
  -13.6399    7.8750    0.0000 C   0  0  0  0  0  0  0  0  0  0  0  0
   -7.1447   14.6250    0.0000 C   0  0  0  0  0  0  0  0  0  0  0  0
    3.2476    8.6250    0.0000 C   0  0  0  0  0  0  0  0  0  0  0  0
  -12.3409    8.6250    0.0000 C   0  0  0  0  0  0  0  0  0  0  0  0
   -7.1447   13.1250    0.0000 C   0  0  0  0  0  0  0  0  0  0  0  0
    1.9486    7.8750    0.0000 C   0  0  0  0  0  0  0  0  0  0  0  0
  -11.0418    7.8750    0.0000 C   0  0  0  0  0  0  0  0  0  0  0  0
   -5.8457   12.3750    0.0000 C   0  0  0  0  0  0  0  0  0  0  0  0
    0.6495    8.6250    0.0000 C   0  0  0  0  0  0  0  0  0  0  0  0
   -9.7428    8.6250    0.0000 C   0  0  0  0  0  0  0  0  0  0  0  0
   -5.8457   10.8750    0.0000 C   0  0  0  0  0  0  0  0  0  0  0  0
   -0.6495    7.8750    0.0000 C   0  0  0  0  0  0  0  0  0  0  0  0
   -8.4437    7.8750    0.0000 C   0  0  0  0  0  0  0  0  0  0  0  0
   -4.5466   10.1250    0.0000 C   0  0  0  0  0  0  0  0  0  0  0  0
   -1.9486    8.6250    0.0000 C   0  0  0  0  0  0  0  0  0  0  0  0
   -7.1447    8.6250    0.0000 C   0  0  0  0  0  0  0  0  0  0  0  0
   -4.5466    8.6250    0.0000 C   0  0  0  0  0  0  0  0  0  0  0  0
   -3.2476    7.8750    0.0000 O   0  0  0  0  0  0  0  0  0  0  0  0
   -5.8457    7.8750    0.0000 O   0  0  0  0  0  0  0  0  0  0  0  0
  4  1  1  0
  5  2  1  0
  6  3  1  0
  7  4  1  0
  8  5  1  0
  9  6  1  0
 10  7  1  0
 11  8  1  0
 12  9  1  0
 10 13  2  0
 14 11  1  0
 15 12  1  0
 16 13  1  0
 17 14  1  0
 18 15  1  0
 19 16  1  0
 19 18  1  0
 20 17  1  0
 20 18  1  0
M  END
>  <NAME>  (2605) 
HEXANAL TRANS-2-HEXENYL HEXYL ACETAL

>  <SYNONYMS>  (2605) 


>  <SPECTRUM TYPE>  (2605) 
MS1

>  <INSTRUMENT TYPE>  (2605) 
EI-B

>  <INSTRUMENT>  (2605) 
HITACHI M-80B

>  <ION MODE>  (2605) 
P

>  <INCHIKEY>  (2605) 
QXRVBRBGBSCHQO-JLHYYAGUSA-N

>  <FORMULA>  (2605) 
C18H36O2

>  <EXACT MASS>  (2605) 
284.271530392

>  <MW>  (2605) 
284

>  <ID>  (2605) 
JP008606

>  <CONTRIBUTOR>  (2605) 
University of Tokyo Team, {Faculty of Engineering, University of Tokyo

>  <COMMENT>  (2605) 
SMILES=CCCCCCOC(CCCCC)OCC=CCCC
InChI=InChI=1S/C18H36O2/c1-4-7-10-13-16-19-18(15-12-9-6-3)20-17-14-11-8-5-2/h10,13,18H,4-9,11-12,14-17H2,1-3H3/b13-10+
computed SMILES=O(CC=CCCC)C(OCCCCCC)CCCCC
accession=JP008606
date=2016.01.19 (Created 2008.10.21, modified 2011.05.06)
author=SODA AROMATIC CO., LTD.
license=CC BY-NC-SA
exact mass=284.27153
ionization energy=70 eV
ion type=[M]+*
computed spectral entropy=2.752193959868175
computed normalized entropy=0.7460785840531751
SPLASH=splash10-053u-9000000000-bccc801630b6fe874155
submitter=submitter = University of Tokyo Team (Faculty of Engineering, University of Tokyo)
MoNA Rating=3.75

>  <NUM PEAKS>  (2605) 
40

>  <MASS SPECTRAL PEAKS>  (2605) 
27 6.89
29 6.83
31 1.49
39 5.58
41 32.19
42 4.47
43 43.14
44 1.57
45 1.72
51 1.27
53 2.32
54 6.87
55 42.91
56 8.24
57 18.35
58 2.27
67 5.21
68 1.27
69 2.05
70 1.44
71 2.44
81 2.26
82 7.7
83 99.99
84 6.84
85 19.9
86 2.16
98 1.13
99 1.72
100 1.78
101 10.11
102 1.21
111 1.55
113 2.06
117 1.68
131 1.62
139 3.7
141 1.8
184 1.29
185 4.79

$$$$

     RDKit          2D

 20 19  0  0  0  0  0  0  0  0999 V2000
   -9.0933   15.7500    0.0000 C   0  0  0  0  0  0  0  0  0  0  0  0
    6.4952   15.7500    0.0000 C   0  0  0  0  0  0  0  0  0  0  0  0
    1.2990    6.7500    0.0000 C   0  0  0  0  0  0  0  0  0  0  0  0
   -7.7942   15.0000    0.0000 C   0  0  0  0  0  0  0  0  0  0  0  0
    5.1962   15.0000    0.0000 C   0  0  0  0  0  0  0  0  0  0  0  0
    1.2990    8.2500    0.0000 C   0  0  0  0  0  0  0  0  0  0  0  0
   -7.7942   13.5000    0.0000 C   0  0  0  0  0  0  0  0  0  0  0  0
    5.1962   13.5000    0.0000 C   0  0  0  0  0  0  0  0  0  0  0  0
    0.0000    9.0000    0.0000 C   0  0  0  0  0  0  0  0  0  0  0  0
   -6.4952   12.7500    0.0000 C   0  0  0  0  0  0  0  0  0  0  0  0
    3.8971   12.7500    0.0000 C   0  0  0  0  0  0  0  0  0  0  0  0
    0.0000   10.5000    0.0000 C   0  0  0  0  0  0  0  0  0  0  0  0
   -5.1962   13.5000    0.0000 C   0  0  0  0  0  0  0  0  0  0  0  0
    2.5981   13.5000    0.0000 C   0  0  0  0  0  0  0  0  0  0  0  0
   -1.2990   11.2500    0.0000 C   0  0  0  0  0  0  0  0  0  0  0  0
   -3.8971   12.7500    0.0000 C   0  0  0  0  0  0  0  0  0  0  0  0
    1.2990   12.7500    0.0000 C   0  0  0  0  0  0  0  0  0  0  0  0
   -1.2990   12.7500    0.0000 C   0  0  0  0  0  0  0  0  0  0  0  0
   -2.5981   13.5000    0.0000 O   0  0  0  0  0  0  0  0  0  0  0  0
   -0.0000   13.5000    0.0000 O   0  0  0  0  0  0  0  0  0  0  0  0
  4  1  1  0
  5  2  1  0
  6  3  1  0
  7  4  1  0
  8  5  1  0
  9  6  1  0
  7 10  2  0
  8 11  2  0
 12  9  1  0
 13 10  1  0
 14 11  1  0
 15 12  1  0
 16 13  1  0
 17 14  1  0
 18 15  1  0
 19 16  1  0
 19 18  1  0
 20 17  1  0
 20 18  1  0
M  END
>  <NAME>  (2606) 
HEXANAL DI-CIS-3-HEXENYL ACETAL

>  <SYNONYMS>  (2606) 


>  <SPECTRUM TYPE>  (2606) 
MS1

>  <INSTRUMENT TYPE>  (2606) 
EI-B

>  <INSTRUMENT>  (2606) 
HITACHI M-80B

>  <ION MODE>  (2606) 
P

>  <INCHIKEY>  (2606) 
UDANAIGXCGUZTC-DEFDFUCDSA-N

>  <FORMULA>  (2606) 
C18H34O2

>  <EXACT MASS>  (2606) 
282.255880328

>  <MW>  (2606) 
282

>  <ID>  (2606) 
JP008605

>  <CONTRIBUTOR>  (2606) 
University of Tokyo Team, {Faculty of Engineering, University of Tokyo

>  <COMMENT>  (2606) 
SMILES=CCC=CCCOC(CCCCC)OCCC=CCC
InChI=InChI=1S/C18H34O2/c1-4-7-10-13-16-19-18(15-12-9-6-3)20-17-14-11-8-5-2/h7-8,10-11,18H,4-6,9,12-17H2,1-3H3/b10-7-,11-8-
computed SMILES=O(CCC=CCC)C(OCCC=CCC)CCCCC
accession=JP008605
date=2016.01.19 (Created 2008.10.21, modified 2011.05.06)
author=SODA AROMATIC CO., LTD.
license=CC BY-NC-SA
exact mass=282.25588
ionization energy=70 eV
ion type=[M]+*
computed spectral entropy=2.2655383775098166
computed normalized entropy=0.6953564300723857
SPLASH=splash10-053r-9000000000-272f0839cc2bab2e900e
submitter=submitter = University of Tokyo Team (Faculty of Engineering, University of Tokyo)
MoNA Rating=3.75

>  <NUM PEAKS>  (2606) 
26

>  <MASS SPECTRAL PEAKS>  (2606) 
27 5.48
29 6.21
31 2.37
39 5.89
41 31.7
42 3.52
43 4.99
53 3.26
54 2.86
55 60.83
56 4.07
57 3.23
67 11.52
68 1.09
69 2.77
70 1.23
71 1.4
81 1.35
82 8.94
83 99.99
84 6.49
101 1.9
113 1.17
125 3.91
183 10.27
184 1.14

$$$$

     RDKit          2D

 12 11  0  0  0  0  0  0  0  0999 V2000
    3.2476    5.6250    0.0000 C   0  0  0  0  0  0  0  0  0  0  0  0
   -9.7428    5.6250    0.0000 C   0  0  0  0  0  0  0  0  0  0  0  0
   -3.2476    7.8750    0.0000 C   0  0  0  0  0  0  0  0  0  0  0  0
    1.9486    6.3750    0.0000 C   0  0  0  0  0  0  0  0  0  0  0  0
   -8.4437    6.3750    0.0000 C   0  0  0  0  0  0  0  0  0  0  0  0
    0.6495    5.6250    0.0000 C   0  0  0  0  0  0  0  0  0  0  0  0
   -7.1447    5.6250    0.0000 C   0  0  0  0  0  0  0  0  0  0  0  0
   -0.6495    6.3750    0.0000 C   0  0  0  0  0  0  0  0  0  0  0  0
   -5.8457    6.3750    0.0000 C   0  0  0  0  0  0  0  0  0  0  0  0
   -3.2476    6.3750    0.0000 C   0  0  0  0  0  0  0  0  0  0  0  0
   -1.9486    5.6250    0.0000 O   0  0  0  0  0  0  0  0  0  0  0  0
   -4.5466    5.6250    0.0000 O   0  0  0  0  0  0  0  0  0  0  0  0
  4  1  1  0
  5  2  1  0
  6  4  1  0
  7  5  1  0
  8  6  1  0
  9  7  1  0
 10  3  1  0
 11  8  1  0
 11 10  1  0
 12  9  1  0
 12 10  1  0
M  END
>  <NAME>  (2607) 
ACETALDEHYDE DIBUTYL ACETAL

>  <SYNONYMS>  (2607) 
1,1-DIBUTOXYETHANE

>  <SPECTRUM TYPE>  (2607) 
MS1

>  <INSTRUMENT TYPE>  (2607) 
EI-B

>  <INSTRUMENT>  (2607) 
HITACHI M-80B

>  <ION MODE>  (2607) 
P

>  <INCHIKEY>  (2607) 
SWTCCCJQNPGXLQ-UHFFFAOYSA-N

>  <FORMULA>  (2607) 
C10H22O2

>  <EXACT MASS>  (2607) 
174.161979944

>  <MW>  (2607) 
174

>  <ID>  (2607) 
JP008604

>  <CONTRIBUTOR>  (2607) 
University of Tokyo Team, {Faculty of Engineering, University of Tokyo

>  <COMMENT>  (2607) 
SMILES=CCCCOC(C)OCCCC
InChI=InChI=1S/C10H22O2/c1-4-6-8-11-10(3)12-9-7-5-2/h10H,4-9H2,1-3H3
computed SMILES=O(CCCC)C(OCCCC)C
accession=JP008604
date=2016.01.19 (Created 2008.10.21, modified 2011.05.06)
computed normalized entropy=0.7356335702304843
author=SODA AROMATIC CO., LTD.
license=CC BY-NC-SA
exact mass=174.16198
ionization energy=70 eV
ion type=[M]+*
computed spectral entropy=2.451281500558307
SPLASH=splash10-0pba-9200000000-fda0e8e84e9701e91907
submitter=submitter = University of Tokyo Team (Faculty of Engineering, University of Tokyo)
MoNA Rating=3.75

>  <NUM PEAKS>  (2607) 
28

>  <MASS SPECTRAL PEAKS>  (2607) 
15 1.71
18 1.24
26 1.4
27 17.37
29 35.27
31 9.13
39 8.04
41 42.43
42 3.72
43 13.04
44 4.2
45 81.12
46 1.62
53 1.12
55 6.54
56 20.34
57 99.99
58 4.8
61 1.93
72 1.01
83 2.58
85 3.26
100 1.33
101 81.29
102 4.52
103 4.14
159 13.84
160 1.19

$$$$

     RDKit          2D

  9  8  0  0  0  0  0  0  0  0999 V2000
   -3.5724    3.9375    0.0000 C   0  0  0  0  0  0  0  0  0  0  0  0
    2.9228    3.1875    0.0000 C   0  0  0  0  0  0  0  0  0  0  0  0
    1.6238    0.9375    0.0000 C   0  0  0  0  0  0  0  0  0  0  0  0
   -0.9743    3.9375    0.0000 C   0  0  0  0  0  0  0  0  0  0  0  0
   -2.2733    3.1875    0.0000 C   0  0  0  0  0  0  0  0  0  0  0  0
    0.3248    3.1875    0.0000 C   0  0  0  0  0  0  0  0  0  0  0  0
   -2.2733    1.6875    0.0000 O   0  0  0  0  0  0  0  0  0  0  0  0
    1.6238    3.9375    0.0000 O   0  0  0  0  0  0  0  0  0  0  0  0
    0.3248    1.6875    0.0000 O   0  0  0  0  0  0  0  0  0  0  0  0
  5  1  1  0
  5  4  1  0
  6  4  1  0
  7  5  2  0
  8  2  1  0
  8  6  1  0
  9  3  1  0
  9  6  1  0
M  END
>  <NAME>  (2608) 
1,1-DIMETHOXY-3-BUTANONE

>  <SYNONYMS>  (2608) 


>  <SPECTRUM TYPE>  (2608) 
MS1

>  <INSTRUMENT TYPE>  (2608) 
EI-B

>  <INSTRUMENT>  (2608) 
HITACHI M-80B

>  <ION MODE>  (2608) 
P

>  <INCHIKEY>  (2608) 
PJCCSZUMZMCWSX-UHFFFAOYSA-N

>  <FORMULA>  (2608) 
C6H12O3

>  <EXACT MASS>  (2608) 
132.078644244

>  <MW>  (2608) 
132

>  <ID>  (2608) 
JP008603

>  <CONTRIBUTOR>  (2608) 
University of Tokyo Team, {Faculty of Engineering, University of Tokyo

>  <COMMENT>  (2608) 
SMILES=COC(OC)CC(C)=O
InChI=InChI=1S/C6H12O3/c1-5(7)4-6(8-2)9-3/h6H,4H2,1-3H3
computed SMILES=O=C(C)CC(OC)OC
accession=JP008603
date=2016.01.19 (Created 2008.10.21, modified 2011.05.06)
author=SODA AROMATIC CO., LTD.
license=CC BY-NC-SA
exact mass=132.07864
ionization energy=70 eV
ion type=[M]+*
computed spectral entropy=2.2030227113757648
computed normalized entropy=0.7127118907675477
SPLASH=splash10-002f-9000000000-248141bca8e1165eafd7
submitter=submitter = University of Tokyo Team (Faculty of Engineering, University of Tokyo)
MoNA Rating=3.75

>  <NUM PEAKS>  (2608) 
22

>  <MASS SPECTRAL PEAKS>  (2608) 
14 1.84
15 13.54
26 1.29
27 6.03
28 1.01
29 10.56
31 10.98
33 1.16
39 1.45
41 1.01
42 5.91
43 99.99
44 2.15
45 1.38
47 11.47
58 7.45
59 5.78
75 45.99
76 1.14
85 10.84
101 9.29
117 7.7

$$$$

     RDKit          2D

 12 12  0  0  0  0  0  0  0  0999 V2000
    5.1978   -0.7723    0.0000 C   0  0  0  0  0  0  0  0  0  0  0  0
   -3.9026    1.4945    0.0000 C   0  0  0  0  0  0  0  0  0  0  0  0
    0.0053   -0.7531    0.0000 C   0  0  0  0  0  0  0  0  0  0  0  0
    1.3189    1.4718    0.0000 C   0  0  0  0  0  0  0  0  0  0  0  0
   -1.2792   -0.0282    0.0000 C   0  0  0  0  0  0  0  0  0  0  0  0
   -0.0056    2.2659    0.0000 C   0  0  0  0  0  0  0  0  0  0  0  0
    2.5997   -0.7595    0.0000 C   0  0  0  0  0  0  0  0  0  0  0  0
    3.9024   -0.0159    0.0000 C   0  0  0  0  0  0  0  0  0  0  0  0
    1.3044   -0.0031    0.0000 C   0  0  0  0  0  0  0  0  0  0  0  0
   -1.3047    1.5159    0.0000 C   0  0  0  0  0  0  0  0  0  0  0  0
    3.9098    1.4841    0.0000 O   0  0  0  0  0  0  0  0  0  0  0  0
   -2.6098    2.2552    0.0000 O   0  0  0  0  0  0  0  0  0  0  0  0
  5  3  2  0
  6  4  1  0
  8  1  1  0
  8  7  1  0
  9  3  1  0
  9  4  2  0
  9  7  1  0
 10  5  1  0
 10  6  2  0
 11  8  2  0
 12  2  1  0
 12 10  1  0
M  END
>  <NAME>  (2609) 
4-METHOXYPHENYLACETONE

>  <SYNONYMS>  (2609) 


>  <SPECTRUM TYPE>  (2609) 
MS1

>  <INSTRUMENT TYPE>  (2609) 
EI-B

>  <INSTRUMENT>  (2609) 
HITACHI M-80B

>  <ION MODE>  (2609) 
P

>  <INCHIKEY>  (2609) 
WFWKNGZODAOLEO-UHFFFAOYSA-N

>  <FORMULA>  (2609) 
C10H12O2

>  <EXACT MASS>  (2609) 
164.083729624

>  <MW>  (2609) 
164

>  <ID>  (2609) 
JP008602

>  <CONTRIBUTOR>  (2609) 
University of Tokyo Team, {Faculty of Engineering, University of Tokyo

>  <COMMENT>  (2609) 
SMILES=COc(c1)ccc(CC(C)=O)c1
InChI=InChI=1S/C10H12O2/c1-8(11)7-9-3-5-10(12-2)6-4-9/h3-6H,7H2,1-2H3
computed SMILES=O=C(C)CC1=CC=C(OC)C=C1
accession=JP008602
date=2016.01.19 (Created 2008.10.21, modified 2011.05.06)
author=SODA AROMATIC CO., LTD.
license=CC BY-NC-SA
exact mass=164.08373
ionization energy=70 eV
ion type=[M]+*
computed spectral entropy=1.9938448709431065
computed normalized entropy=0.6450396269313156
SPLASH=splash10-00di-5900000000-44778fdb56d419362f0b
submitter=submitter = University of Tokyo Team (Faculty of Engineering, University of Tokyo)
MoNA Rating=3.75

>  <NUM PEAKS>  (2609) 
22

>  <MASS SPECTRAL PEAKS>  (2609) 
15 2.86
27 1.16
39 3.18
41 1.42
43 14.48
50 2.25
51 5.33
52 4.12
53 1.17
63 2.51
65 1.82
77 10.03
78 12.74
79 1.24
89 1.95
90 1.33
91 4.3
106 1.38
121 99.99
122 9.02
164 11.42
165 1.12

$$$$

     RDKit          2D

  7  7  0  0  0  0  0  0  0  0999 V2000
   -0.0000    1.5000    0.0000 C   0  0  0  0  0  0  0  0  0  0  0  0
   -1.3000    0.7500    0.0000 C   0  0  0  0  0  0  0  0  0  0  0  0
    1.3000    0.7500    0.0000 C   0  0  0  0  0  0  0  0  0  0  0  0
   -1.3000   -0.7500    0.0000 C   0  0  0  0  0  0  0  0  0  0  0  0
    1.3000   -0.7500    0.0000 C   0  0  0  0  0  0  0  0  0  0  0  0
   -0.0000   -1.5000    0.0000 N   0  0  0  0  0  0  0  0  0  0  0  0
    2.5989   -1.5002    0.0000 O   0  0  0  0  0  0  0  0  0  0  0  0
  2  1  1  0
  3  1  1  0
  4  2  1  0
  5  3  1  0
  6  4  1  0
  6  5  2  0
  7  5  1  0
M  END
>  <NAME>  (2610) 
DELTA-VALEROLACTAM

>  <SYNONYMS>  (2610) 
2-PIPERIDONE

>  <SPECTRUM TYPE>  (2610) 
MS1

>  <INSTRUMENT TYPE>  (2610) 
EI-B

>  <INSTRUMENT>  (2610) 
HITACHI M-80B

>  <ION MODE>  (2610) 
P

>  <INCHIKEY>  (2610) 
XUWHAWMETYGRKB-UHFFFAOYSA-N

>  <FORMULA>  (2610) 
C5H9NO

>  <EXACT MASS>  (2610) 
99.068413908

>  <MW>  (2610) 
99

>  <ID>  (2610) 
JP008601

>  <CONTRIBUTOR>  (2610) 
University of Tokyo Team, {Faculty of Engineering, University of Tokyo

>  <COMMENT>  (2610) 
SMILES=O=C(C1)NCCC1
InChI=InChI=1S/C5H9NO/c7-5-3-1-2-4-6-5/h1-4H2,(H,6,7)
computed SMILES=OC1=NCCCC1
accession=JP008601
date=2016.01.19 (Created 2008.10.21, modified 2011.05.06)
author=SODA AROMATIC CO., LTD.
license=CC BY-NC-SA
exact mass=99.06841
ionization energy=70 eV
ion type=[M]+*
computed spectral entropy=2.744807470883118
computed normalized entropy=0.7993062604595942
SPLASH=splash10-0006-9000000000-a80b6b7cda436e704e7b
submitter=submitter = University of Tokyo Team (Faculty of Engineering, University of Tokyo)
MoNA Rating=3.75

>  <NUM PEAKS>  (2610) 
31

>  <MASS SPECTRAL PEAKS>  (2610) 
14 1.1
15 6.84
18 2.62
26 9.11
27 34.07
28 69.12
29 13.97
30 92.3
37 2.44
38 4.61
39 28.89
40 7.09
41 65.97
42 77.98
43 73.25
44 5.05
50 1.72
51 1.68
52 2.23
53 3.19
54 4.8
55 30.5
56 12.6
58 5.66
68 2.5
70 21.05
71 9.3
82 1.85
98 13.97
99 99.99
100 6.05

$$$$

     RDKit          2D

  8  7  0  0  0  0  0  0  0  0999 V2000
    1.9486    2.6250    0.0000 C   0  0  0  0  0  0  0  0  0  0  0  0
   -4.5466    3.3750    0.0000 C   0  0  0  0  0  0  0  0  0  0  0  0
    0.6495    3.3750    0.0000 C   0  0  0  0  0  0  0  0  0  0  0  0
   -3.2476    2.6250    0.0000 C   0  0  0  0  0  0  0  0  0  0  0  0
   -0.6495    2.6250    0.0000 C   0  0  0  0  0  0  0  0  0  0  0  0
   -1.9486    3.3750    0.0000 C   0  0  0  0  0  0  0  0  0  0  0  0
   -0.6495    1.1250    0.0000 O   0  0  0  0  0  0  0  0  0  0  0  0
   -1.9486    4.8750    0.0000 O   0  0  0  0  0  0  0  0  0  0  0  0
  3  1  1  0
  4  2  1  0
  5  3  1  0
  6  4  1  0
  6  5  1  0
  7  5  1  0
  8  6  2  0
M  END
>  <NAME>  (2611) 
4-HYDROXY-3-HEXANONE

>  <SYNONYMS>  (2611) 


>  <SPECTRUM TYPE>  (2611) 
MS1

>  <INSTRUMENT TYPE>  (2611) 
EI-B

>  <INSTRUMENT>  (2611) 
HITACHI M-80B

>  <ION MODE>  (2611) 
P

>  <INCHIKEY>  (2611) 
SKCYVGUCBRYGTE-UHFFFAOYSA-N

>  <FORMULA>  (2611) 
C6H12O2

>  <EXACT MASS>  (2611) 
116.083729624

>  <MW>  (2611) 
116

>  <ID>  (2611) 
JP008600

>  <CONTRIBUTOR>  (2611) 
University of Tokyo Team, {Faculty of Engineering, University of Tokyo

>  <COMMENT>  (2611) 
SMILES=CCC(O)C(=O)CC
InChI=InChI=1S/C6H12O2/c1-3-5(7)6(8)4-2/h5,7H,3-4H2,1-2H3
computed SMILES=O=C(CC)C(O)CC
accession=JP008600
date=2016.01.19 (Created 2008.10.21, modified 2011.05.06)
author=SODA AROMATIC CO., LTD.
license=CC BY-NC-SA
exact mass=116.08373
ionization energy=70 eV
ion type=[M]+*
computed spectral entropy=2.1782299778583845
computed normalized entropy=0.7271110296095447
SPLASH=splash10-0a4i-9000000000-1305f4ba1ce44486bae5
submitter=submitter = University of Tokyo Team (Faculty of Engineering, University of Tokyo)
MoNA Rating=3.75

>  <NUM PEAKS>  (2611) 
20

>  <MASS SPECTRAL PEAKS>  (2611) 
15 1.62
26 3.99
27 21.99
28 1.67
29 37.46
30 2.8
31 55.56
39 6.5
41 23.89
42 2.7
43 4.58
45 1.09
55 1.76
56 1.2
57 40.79
58 21.48
59 99.99
60 3.46
87 1.01
116 1.56

$$$$

     RDKit          2D

  8  7  0  0  0  0  0  0  0  0999 V2000
    1.8983    1.9620    0.0000 C   0  0  0  0  0  0  0  0  0  0  0  0
   -1.2488    4.0111    0.0000 C   0  0  0  0  0  0  0  0  0  0  0  0
   -3.2978    3.4620    0.0000 C   0  0  0  0  0  0  0  0  0  0  0  0
   -0.6998    1.9620    0.0000 C   0  0  0  0  0  0  0  0  0  0  0  0
    0.5993    2.7120    0.0000 C   0  0  0  0  0  0  0  0  0  0  0  0
   -1.9988    2.7120    0.0000 C   0  0  0  0  0  0  0  0  0  0  0  0
    0.5993    4.2120    0.0000 O   0  0  0  0  0  0  0  0  0  0  0  0
   -2.7488    1.4130    0.0000 O   0  0  0  0  0  0  0  0  0  0  0  0
  5  1  1  0
  5  4  1  0
  6  2  1  0
  6  3  1  0
  6  4  1  0
  7  5  2  0
  8  6  1  0
M  END
>  <NAME>  (2612) 
3-HYDROXY-3-METHYL-2-PENTANONE

>  <SYNONYMS>  (2612) 
DIACETONE ALCOHOL

>  <SPECTRUM TYPE>  (2612) 
MS1

>  <INSTRUMENT TYPE>  (2612) 
EI-B

>  <INSTRUMENT>  (2612) 
HITACHI M-80B

>  <ION MODE>  (2612) 
P

>  <INCHIKEY>  (2612) 
SWXVUIWOUIDPGS-UHFFFAOYSA-N

>  <FORMULA>  (2612) 
C6H12O2

>  <EXACT MASS>  (2612) 
116.083729624

>  <MW>  (2612) 
116

>  <ID>  (2612) 
JP008599

>  <CONTRIBUTOR>  (2612) 
University of Tokyo Team, {Faculty of Engineering, University of Tokyo

>  <COMMENT>  (2612) 
SMILES=CC(=O)CC(C)(C)O
InChI=InChI=1S/C6H12O2/c1-5(7)4-6(2,3)8/h8H,4H2,1-3H3
computed SMILES=O=C(C)CC(O)(C)C
accession=JP008599
date=2016.01.19 (Created 2008.10.21, modified 2011.05.06)
author=SODA AROMATIC CO., LTD.
license=CC BY-NC-SA
exact mass=116.08373
ionization energy=70 eV
ion type=[M]+*
computed spectral entropy=1.9791550264598663
computed normalized entropy=0.6721671056739501
SPLASH=splash10-052f-9000000000-8448b11a23b1992dae6d
submitter=submitter = University of Tokyo Team (Faculty of Engineering, University of Tokyo)
MoNA Rating=3.75

>  <NUM PEAKS>  (2612) 
19

>  <MASS SPECTRAL PEAKS>  (2612) 
15 8.39
26 1.34
27 5.85
29 3.42
31 8.35
39 5.26
41 6.43
42 4.84
43 99.99
44 1.86
55 1.36
56 3.57
57 1.15
58 14.94
59 40.2
60 1.16
83 1.09
98 2.24
101 11.95

$$$$

     RDKit          2D

  8  7  0  0  0  0  0  0  0  0999 V2000
    0.0000    0.0000    0.0000 C   0  0  0  0  0  0  0  0  0  0  0  0
    1.2990    2.2500    0.0000 C   0  0  0  0  0  0  0  0  0  0  0  0
   -2.5981    6.0000    0.0000 C   0  0  0  0  0  0  0  0  0  0  0  0
   -1.2990    2.2500    0.0000 C   0  0  0  0  0  0  0  0  0  0  0  0
   -1.2990    3.7500    0.0000 C   0  0  0  0  0  0  0  0  0  0  0  0
    0.0000    1.5000    0.0000 C   0  0  0  0  0  0  0  0  0  0  0  0
   -2.5981    4.5000    0.0000 C   0  0  0  0  0  0  0  0  0  0  0  0
   -3.8971    3.7500    0.0000 O   0  0  0  0  0  0  0  0  0  0  0  0
  5  4  1  0
  6  1  1  0
  6  2  1  0
  6  4  1  0
  7  3  1  0
  7  5  1  0
  8  7  2  0
M  END
>  <NAME>  (2613) 
5-METHYL-2-HEXANONE

>  <SYNONYMS>  (2613) 
ISOPENTYL METHYL KETONE

>  <SPECTRUM TYPE>  (2613) 
MS1

>  <INSTRUMENT TYPE>  (2613) 
EI-B

>  <INSTRUMENT>  (2613) 
HITACHI M-80B

>  <ION MODE>  (2613) 
P

>  <INCHIKEY>  (2613) 
FFWSICBKRCICMR-UHFFFAOYSA-N

>  <FORMULA>  (2613) 
C7H14O

>  <EXACT MASS>  (2613) 
114.104465068

>  <MW>  (2613) 
114

>  <ID>  (2613) 
JP008598

>  <CONTRIBUTOR>  (2613) 
University of Tokyo Team, {Faculty of Engineering, University of Tokyo

>  <COMMENT>  (2613) 
SMILES=CC(C)CCC(C)=O
InChI=InChI=1S/C7H14O/c1-6(2)4-5-7(3)8/h6H,4-5H2,1-3H3
computed SMILES=O=C(C)CCC(C)C
accession=JP008598
date=2016.01.19 (Created 2008.10.21, modified 2011.05.06)
author=SODA AROMATIC CO., LTD.
license=CC BY-NC-SA
exact mass=114.10447
ionization energy=70 eV
ion type=[M]+*
computed spectral entropy=2.074242668472737
computed normalized entropy=0.7176387130154257
SPLASH=splash10-0006-9000000000-40a76a6003700e807547
submitter=submitter = University of Tokyo Team (Faculty of Engineering, University of Tokyo)
MoNA Rating=3.75

>  <NUM PEAKS>  (2613) 
18

>  <MASS SPECTRAL PEAKS>  (2613) 
15 6.24
26 1.05
27 12.04
29 6.51
39 9.31
41 14.37
42 3.36
43 99.99
44 1.89
53 1.32
55 4.07
56 3.03
57 11.98
58 38.6
59 9.59
71 7.95
81 3.32
114 1.82

$$$$

     RDKit          2D

 11 10  0  0  0  0  0  0  0  0999 V2000
    2.5981    4.5000    0.0000 C   0  0  0  0  0  0  0  0  0  0  0  0
   -7.7942    4.5000    0.0000 C   0  0  0  0  0  0  0  0  0  0  0  0
    1.2990    5.2500    0.0000 C   0  0  0  0  0  0  0  0  0  0  0  0
    0.0000    4.5000    0.0000 C   0  0  0  0  0  0  0  0  0  0  0  0
   -1.2990    5.2500    0.0000 C   0  0  0  0  0  0  0  0  0  0  0  0
   -2.5981    4.5000    0.0000 C   0  0  0  0  0  0  0  0  0  0  0  0
   -3.8971    5.2500    0.0000 C   0  0  0  0  0  0  0  0  0  0  0  0
   -6.4952    5.2500    0.0000 C   0  0  0  0  0  0  0  0  0  0  0  0
   -5.1962    4.5000    0.0000 C   0  0  0  0  0  0  0  0  0  0  0  0
   -6.4952    6.7500    0.0000 O   0  0  0  0  0  0  0  0  0  0  0  0
   -5.1962    3.0000    0.0000 O   0  0  0  0  0  0  0  0  0  0  0  0
  3  1  1  0
  4  3  1  0
  5  4  1  0
  6  5  1  0
  7  6  1  0
  8  2  1  0
  9  7  1  0
  9  8  1  0
 10  8  2  0
 11  9  2  0
M  END
>  <NAME>  (2614) 
2,3-NONANEDIONE

>  <SYNONYMS>  (2614) 


>  <SPECTRUM TYPE>  (2614) 
MS1

>  <INSTRUMENT TYPE>  (2614) 
EI-B

>  <INSTRUMENT>  (2614) 
HITACHI M-80B

>  <ION MODE>  (2614) 
P

>  <INCHIKEY>  (2614) 
WNVKJGIJHKADAE-UHFFFAOYSA-N

>  <FORMULA>  (2614) 
C9H16O2

>  <EXACT MASS>  (2614) 
156.115029752

>  <MW>  (2614) 
156

>  <ID>  (2614) 
JP008597

>  <CONTRIBUTOR>  (2614) 
University of Tokyo Team, {Faculty of Engineering, University of Tokyo

>  <COMMENT>  (2614) 
SMILES=CCCCCCC(=O)C(C)=O
InChI=InChI=1S/C9H16O2/c1-3-4-5-6-7-9(11)8(2)10/h3-7H2,1-2H3
computed SMILES=O=C(C(=O)CCCCCC)C
accession=JP008597
date=2016.01.19 (Created 2008.10.21, modified 2011.05.06)
author=SODA AROMATIC CO., LTD.
license=CC BY-NC-SA
exact mass=156.11503
ionization energy=70 eV
ion type=[M]+*
computed spectral entropy=1.9973016210660677
computed normalized entropy=0.7049598383602832
SPLASH=splash10-0006-9000000000-2cbbffc2c3b98a8f3a86
submitter=submitter = University of Tokyo Team (Faculty of Engineering, University of Tokyo)
MoNA Rating=3.75

>  <NUM PEAKS>  (2614) 
17

>  <MASS SPECTRAL PEAKS>  (2614) 
15 4.93
27 12.46
29 11.37
39 7.02
41 19.91
42 4.98
43 99.99
44 2.45
53 1.05
55 6.19
56 1.11
57 10.61
69 1.29
85 11.78
95 1.36
113 20.46
114 1.2

$$$$

     RDKit          2D

 13 12  0  0  0  0  0  0  0  0999 V2000
    3.8971    6.0000    0.0000 C   0  0  0  0  0  0  0  0  0  0  0  0
  -10.3923    6.7500    0.0000 C   0  0  0  0  0  0  0  0  0  0  0  0
    2.5981    6.7500    0.0000 C   0  0  0  0  0  0  0  0  0  0  0  0
   -9.0933    6.0000    0.0000 C   0  0  0  0  0  0  0  0  0  0  0  0
    1.2990    6.0000    0.0000 C   0  0  0  0  0  0  0  0  0  0  0  0
    0.0000    6.7500    0.0000 C   0  0  0  0  0  0  0  0  0  0  0  0
   -1.2990    6.0000    0.0000 C   0  0  0  0  0  0  0  0  0  0  0  0
   -2.5981    6.7500    0.0000 C   0  0  0  0  0  0  0  0  0  0  0  0
   -3.8971    6.0000    0.0000 C   0  0  0  0  0  0  0  0  0  0  0  0
   -5.1962    6.7500    0.0000 C   0  0  0  0  0  0  0  0  0  0  0  0
   -6.4952    6.0000    0.0000 C   0  0  0  0  0  0  0  0  0  0  0  0
   -7.7942    6.7500    0.0000 C   0  0  0  0  0  0  0  0  0  0  0  0
   -7.7942    8.2500    0.0000 O   0  0  0  0  0  0  0  0  0  0  0  0
  3  1  1  0
  4  2  1  0
  5  3  1  0
  6  5  1  0
  7  6  1  0
  8  7  1  0
  9  8  1  0
 10  9  1  0
 11 10  1  0
 12  4  1  0
 12 11  1  0
 13 12  2  0
M  END
>  <NAME>  (2615) 
3-DODECANONE

>  <SYNONYMS>  (2615) 


>  <SPECTRUM TYPE>  (2615) 
MS1

>  <INSTRUMENT TYPE>  (2615) 
EI-B

>  <INSTRUMENT>  (2615) 
HITACHI M-80B

>  <ION MODE>  (2615) 
P

>  <INCHIKEY>  (2615) 
PERIHWAPLOBAJM-UHFFFAOYSA-N

>  <FORMULA>  (2615) 
C12H24O

>  <EXACT MASS>  (2615) 
184.182715388

>  <MW>  (2615) 
184

>  <ID>  (2615) 
JP008596

>  <CONTRIBUTOR>  (2615) 
University of Tokyo Team, {Faculty of Engineering, University of Tokyo

>  <COMMENT>  (2615) 
SMILES=CCCCCCCCCC(=O)CC
InChI=InChI=1S/C12H24O/c1-3-5-6-7-8-9-10-11-12(13)4-2/h3-11H2,1-2H3
computed SMILES=O=C(CC)CCCCCCCCC
accession=JP008596
date=2016.01.19 (Created 2008.10.21, modified 2011.05.06)
author=SODA AROMATIC CO., LTD.
license=CC BY-NC-SA
exact mass=184.18272
ionization energy=70 eV
ion type=[M]+*
computed spectral entropy=2.70618366487031
computed normalized entropy=0.7611585752132044
SPLASH=splash10-05i3-9000000000-2e9e147fc157b6a88b7e
submitter=submitter = University of Tokyo Team (Faculty of Engineering, University of Tokyo)
MoNA Rating=3.75

>  <NUM PEAKS>  (2615) 
35

>  <MASS SPECTRAL PEAKS>  (2615) 
26 1.11
27 21.67
29 62.99
30 1.23
39 9.79
41 38.54
42 9.46
43 56.38
44 1.34
53 2.78
54 1.86
55 19.21
56 5.02
57 89.02
58 2.48
67 3.62
68 1.6
69 5.26
70 1.97
71 27.99
72 99.99
73 24.16
81 4.74
82 1.07
83 1.87
84 1.1
85 29.72
86 1.82
95 4.81
96 1.4
99 2.09
110 2.1
155 25.54
156 2.25
184 1.83

$$$$

     RDKit          2D

 17 16  0  0  0  0  0  0  0  0999 V2000
    4.8714    8.8125    0.0000 C   0  0  0  0  0  0  0  0  0  0  0  0
  -14.6142    9.5625    0.0000 C   0  0  0  0  0  0  0  0  0  0  0  0
    3.5724    9.5625    0.0000 C   0  0  0  0  0  0  0  0  0  0  0  0
    2.2733    8.8125    0.0000 C   0  0  0  0  0  0  0  0  0  0  0  0
    0.9743    9.5625    0.0000 C   0  0  0  0  0  0  0  0  0  0  0  0
   -0.3248    8.8125    0.0000 C   0  0  0  0  0  0  0  0  0  0  0  0
   -1.6238    9.5625    0.0000 C   0  0  0  0  0  0  0  0  0  0  0  0
   -2.9228    8.8125    0.0000 C   0  0  0  0  0  0  0  0  0  0  0  0
   -4.2219    9.5625    0.0000 C   0  0  0  0  0  0  0  0  0  0  0  0
   -5.5209    8.8125    0.0000 C   0  0  0  0  0  0  0  0  0  0  0  0
   -6.8200    9.5625    0.0000 C   0  0  0  0  0  0  0  0  0  0  0  0
   -8.1190    8.8125    0.0000 C   0  0  0  0  0  0  0  0  0  0  0  0
   -9.4180    9.5625    0.0000 C   0  0  0  0  0  0  0  0  0  0  0  0
  -10.7171    8.8125    0.0000 C   0  0  0  0  0  0  0  0  0  0  0  0
  -12.0161    9.5625    0.0000 C   0  0  0  0  0  0  0  0  0  0  0  0
  -13.3151    8.8125    0.0000 C   0  0  0  0  0  0  0  0  0  0  0  0
  -13.3151    7.3125    0.0000 O   0  0  0  0  0  0  0  0  0  0  0  0
  3  1  1  0
  4  3  1  0
  5  4  1  0
  6  5  1  0
  7  6  1  0
  8  7  1  0
  9  8  1  0
 10  9  1  0
 11 10  1  0
 12 11  1  0
 13 12  1  0
 14 13  1  0
 15 14  1  0
 16  2  1  0
 16 15  1  0
 17 16  2  0
M  END
>  <NAME>  (2616) 
2-HEXADECANONE

>  <SYNONYMS>  (2616) 


>  <SPECTRUM TYPE>  (2616) 
MS1

>  <INSTRUMENT TYPE>  (2616) 
EI-B

>  <INSTRUMENT>  (2616) 
HITACHI M-80B

>  <ION MODE>  (2616) 
P

>  <INCHIKEY>  (2616) 
XCXKZBWAKKPFCJ-UHFFFAOYSA-N

>  <FORMULA>  (2616) 
C16H32O

>  <EXACT MASS>  (2616) 
240.245315644

>  <MW>  (2616) 
240

>  <ID>  (2616) 
JP008595

>  <CONTRIBUTOR>  (2616) 
University of Tokyo Team, {Faculty of Engineering, University of Tokyo

>  <COMMENT>  (2616) 
SMILES=CCCCCCCCCCCCCCC(C)=O
InChI=InChI=1S/C16H32O/c1-3-4-5-6-7-8-9-10-11-12-13-14-15-16(2)17/h3-15H2,1-2H3
computed SMILES=O=C(C)CCCCCCCCCCCCCC
accession=JP008595
date=2016.01.19 (Created 2008.10.21, modified 2011.05.06)
author=SODA AROMATIC CO., LTD.
license=CC BY-NC-SA
exact mass=240.24532
ionization energy=70 eV
ion type=[M]+*
computed spectral entropy=2.629113827794001
computed normalized entropy=0.717638757511155
SPLASH=splash10-0a4l-9000000000-5d631cf5b1a8da2be734
submitter=submitter = University of Tokyo Team (Faculty of Engineering, University of Tokyo)
MoNA Rating=3.75

>  <NUM PEAKS>  (2616) 
39

>  <MASS SPECTRAL PEAKS>  (2616) 
15 1.09
27 6.05
29 13.54
39 4.02
41 27.2
42 5.28
43 78.09
44 1.51
53 1.3
54 1.76
55 16.33
56 4.82
57 15.91
58 99.99
59 52.42
60 1.62
67 2.5
68 1.94
69 6.8
70 2.44
71 33.9
72 1.94
81 2.12
82 5.48
83 4.27
84 1.47
85 8.01
95 2
96 4.6
97 2.58
100 1.06
109 1.12
110 1.27
111 1.16
113 1.04
127 1.22
180 1.37
182 1.9
240 2.38

$$$$

     RDKit          2D

 15 14  0  0  0  0  0  0  0  0999 V2000
    4.2219    7.6875    0.0000 C   0  0  0  0  0  0  0  0  0  0  0  0
  -12.6656    8.4375    0.0000 C   0  0  0  0  0  0  0  0  0  0  0  0
    2.9228    8.4375    0.0000 C   0  0  0  0  0  0  0  0  0  0  0  0
    1.6238    7.6875    0.0000 C   0  0  0  0  0  0  0  0  0  0  0  0
    0.3248    8.4375    0.0000 C   0  0  0  0  0  0  0  0  0  0  0  0
   -0.9743    7.6875    0.0000 C   0  0  0  0  0  0  0  0  0  0  0  0
   -2.2733    8.4375    0.0000 C   0  0  0  0  0  0  0  0  0  0  0  0
   -3.5724    7.6875    0.0000 C   0  0  0  0  0  0  0  0  0  0  0  0
   -4.8714    8.4375    0.0000 C   0  0  0  0  0  0  0  0  0  0  0  0
   -6.1704    7.6875    0.0000 C   0  0  0  0  0  0  0  0  0  0  0  0
   -7.4695    8.4375    0.0000 C   0  0  0  0  0  0  0  0  0  0  0  0
   -8.7685    7.6875    0.0000 C   0  0  0  0  0  0  0  0  0  0  0  0
  -10.0675    8.4375    0.0000 C   0  0  0  0  0  0  0  0  0  0  0  0
  -11.3666    7.6875    0.0000 C   0  0  0  0  0  0  0  0  0  0  0  0
  -11.3666    6.1875    0.0000 O   0  0  0  0  0  0  0  0  0  0  0  0
  3  1  1  0
  4  3  1  0
  5  4  1  0
  6  5  1  0
  7  6  1  0
  8  7  1  0
  9  8  1  0
 10  9  1  0
 11 10  1  0
 12 11  1  0
 13 12  1  0
 14  2  1  0
 14 13  1  0
 15 14  2  0
M  END
>  <NAME>  (2617) 
2-TETRADECANONE

>  <SYNONYMS>  (2617) 


>  <SPECTRUM TYPE>  (2617) 
MS1

>  <INSTRUMENT TYPE>  (2617) 
EI-B

>  <INSTRUMENT>  (2617) 
HITACHI M-80B

>  <ION MODE>  (2617) 
P

>  <INCHIKEY>  (2617) 
POQLVOYRGNFGRM-UHFFFAOYSA-N

>  <FORMULA>  (2617) 
C14H28O

>  <EXACT MASS>  (2617) 
212.214015516

>  <MW>  (2617) 
212

>  <ID>  (2617) 
JP008594

>  <CONTRIBUTOR>  (2617) 
University of Tokyo Team, {Faculty of Engineering, University of Tokyo

>  <COMMENT>  (2617) 
SMILES=CCCCCCCCCCCCC(C)=O
InChI=InChI=1S/C14H28O/c1-3-4-5-6-7-8-9-10-11-12-13-14(2)15/h3-13H2,1-2H3
computed SMILES=O=C(C)CCCCCCCCCCCC
accession=JP008594
date=2016.01.19 (Created 2008.10.21, modified 2011.05.06)
author=SODA AROMATIC CO., LTD.
license=CC BY-NC-SA
exact mass=212.21402
ionization energy=70 eV
ion type=[M]+*
computed spectral entropy=2.5622714811758684
computed normalized entropy=0.7095900663384378
SPLASH=splash10-0a4l-9000000000-c05a27adb85136b8c278
submitter=submitter = University of Tokyo Team (Faculty of Engineering, University of Tokyo)
MoNA Rating=3.75

>  <NUM PEAKS>  (2617) 
37

>  <MASS SPECTRAL PEAKS>  (2617) 
15 1.47
27 7.93
29 15.22
39 5.54
41 27.53
42 6.23
43 83.2
44 1.73
53 1.57
54 1.61
55 14.76
56 4.59
57 14.39
58 99.99
59 42.8
60 1.23
67 2.12
68 1.56
69 4.86
70 2.2
71 30.87
72 1.8
81 1.73
82 4.16
83 2.14
84 1.31
85 7.3
95 1.76
96 2.6
97 2.08
110 1.01
111 1.05
113 1.02
127 1.04
152 1.51
154 2.13
212 1.9

$$$$

     RDKit          2D

  9  8  0  0  0  0  0  0  0  0999 V2000
    2.5981    4.5000    0.0000 C   0  0  0  0  0  0  0  0  0  0  0  0
    1.2990    5.2500    0.0000 C   0  0  0  0  0  0  0  0  0  0  0  0
    0.0000    4.5000    0.0000 C   0  0  0  0  0  0  0  0  0  0  0  0
   -1.2990    5.2500    0.0000 C   0  0  0  0  0  0  0  0  0  0  0  0
   -2.5981    4.5000    0.0000 C   0  0  0  0  0  0  0  0  0  0  0  0
   -3.8971    5.2500    0.0000 C   0  0  0  0  0  0  0  0  0  0  0  0
   -5.1962    4.5000    0.0000 C   0  0  0  0  0  0  0  0  0  0  0  0
   -6.4952    5.2500    0.0000 C   0  0  0  0  0  0  0  0  0  0  0  0
   -7.7942    4.5000    0.0000 O   0  0  0  0  0  0  0  0  0  0  0  0
  2  1  1  0
  3  2  1  0
  4  3  1  0
  5  4  1  0
  6  5  1  0
  6  7  2  0
  8  7  1  0
  9  8  2  0
M  END
>  <NAME>  (2618) 
TRANS-2-OCTENAL

>  <SYNONYMS>  (2618) 


>  <SPECTRUM TYPE>  (2618) 
MS1

>  <INSTRUMENT TYPE>  (2618) 
EI-B

>  <INSTRUMENT>  (2618) 
HITACHI M-80B

>  <ION MODE>  (2618) 
P

>  <INCHIKEY>  (2618) 
LVBXEMGDVWVTGY-VOTSOKGWSA-N

>  <FORMULA>  (2618) 
C8H14O

>  <EXACT MASS>  (2618) 
126.104465068

>  <MW>  (2618) 
126

>  <ID>  (2618) 
JP008593

>  <CONTRIBUTOR>  (2618) 
University of Tokyo Team, {Faculty of Engineering, University of Tokyo

>  <COMMENT>  (2618) 
SMILES=CCCCCC=CC=O
InChI=InChI=1S/C8H14O/c1-2-3-4-5-6-7-8-9/h6-8H,2-5H2,1H3/b7-6+
computed SMILES=O=CC=CCCCCC
accession=JP008593
date=2016.01.19 (Created 2008.10.21, modified 2011.05.06)
author=SODA AROMATIC CO., LTD.
license=CC BY-NC-SA
exact mass=126.10447
ionization energy=70 eV
ion type=[M]+*
computed spectral entropy=3.1164496946946247
computed normalized entropy=0.8186829547062524
SPLASH=splash10-05bf-9000000000-99a25373b09ae940cc4d
submitter=submitter = University of Tokyo Team (Faculty of Engineering, University of Tokyo)
MoNA Rating=3.75

>  <NUM PEAKS>  (2618) 
45

>  <MASS SPECTRAL PEAKS>  (2618) 
15 2.45
26 4.17
27 52.26
28 6.37
29 65.98
30 1.57
37 1.12
38 3.9
39 57.47
40 7.42
41 99.99
42 37.9
43 15.51
44 1.25
50 2.46
51 4.63
52 2.01
53 13.23
54 5.03
55 73.26
56 13.78
57 49.61
58 13.77
63 1.17
65 2.13
66 1.82
67 18.78
68 13.42
69 33.74
70 70.14
71 8.28
77 1.9
79 4.93
80 2.17
81 3.74
82 25.82
83 49.34
84 13.84
85 1.72
93 5.65
95 3.29
97 11.14
98 6.81
108 3.38
111 1.78

$$$$

     RDKit          2D

  6  5  0  0  0  0  0  0  0  0999 V2000
    0.0000    0.0000    0.0000 C   0  0  0  0  0  0  0  0  0  0  0  0
   -0.5490    3.5490    0.0000 C   0  0  0  0  0  0  0  0  0  0  0  0
   -2.5981    3.0000    0.0000 C   0  0  0  0  0  0  0  0  0  0  0  0
    0.0000    1.5000    0.0000 C   0  0  0  0  0  0  0  0  0  0  0  0
   -1.2990    2.2500    0.0000 C   0  0  0  0  0  0  0  0  0  0  0  0
   -2.0490    0.9510    0.0000 O   0  0  0  0  0  0  0  0  0  0  0  0
  4  1  1  0
  5  2  1  0
  5  3  1  0
  5  4  1  0
  6  5  1  0
M  END
>  <NAME>  (2619) 
2-METHYL-2-BUTANOL

>  <SYNONYMS>  (2619) 
1,1-DIMETHYLPROPANOL

>  <SPECTRUM TYPE>  (2619) 
MS1

>  <INSTRUMENT TYPE>  (2619) 
EI-B

>  <INSTRUMENT>  (2619) 
HITACHI M-80B

>  <ION MODE>  (2619) 
P

>  <INCHIKEY>  (2619) 
MSXVEPNJUHWQHW-UHFFFAOYSA-N

>  <FORMULA>  (2619) 
C5H12O

>  <EXACT MASS>  (2619) 
88.088815004

>  <MW>  (2619) 
88

>  <ID>  (2619) 
JP008592

>  <CONTRIBUTOR>  (2619) 
University of Tokyo Team, {Faculty of Engineering, University of Tokyo

>  <COMMENT>  (2619) 
SMILES=CCC(C)(C)O
InChI=InChI=1S/C5H12O/c1-4-5(2,3)6/h6H,4H2,1-3H3
computed SMILES=OC(C)(C)CC
accession=JP008592
date=2016.01.19 (Created 2008.10.21, modified 2011.05.06)
author=SODA AROMATIC CO., LTD.
license=CC BY-NC-SA
exact mass=88.08882
ionization energy=70 eV
ion type=[M]+*
computed spectral entropy=2.274727403144791
computed normalized entropy=0.7471540938439412
SPLASH=splash10-0a4i-9000000000-3c51f1bef3465a1ccd85
submitter=submitter = University of Tokyo Team (Faculty of Engineering, University of Tokyo)
MoNA Rating=3.75

>  <NUM PEAKS>  (2619) 
21

>  <MASS SPECTRAL PEAKS>  (2619) 
15 3.77
26 1.52
27 13.04
29 9.82
31 22.72
39 7.95
41 14.59
42 3
43 29.07
44 1.18
45 11.21
53 1.61
55 34.05
56 1.58
57 2
58 1.43
59 99.99
60 3.11
71 6.2
73 61.47
74 2.38

$$$$

     RDKit          2D

 14 14  0  0  0  0  0  0  0  0999 V2000
   -6.8197    3.1321    0.0000 C   0  0  0  0  0  0  0  0  0  0  0  0
   -5.5207    5.3821    0.0000 C   0  0  0  0  0  0  0  0  0  0  0  0
   -0.3245    5.3821    0.0000 C   0  0  0  0  0  0  0  0  0  0  0  0
    3.5726    1.6321    0.0000 C   0  0  0  0  0  0  0  0  0  0  0  0
    3.5731    3.1329    0.0000 C   0  0  0  0  0  0  0  0  0  0  0  0
    2.2731    0.8813    0.0000 C   0  0  0  0  0  0  0  0  0  0  0  0
    2.2740    3.8829    0.0000 C   0  0  0  0  0  0  0  0  0  0  0  0
    0.9740    1.6313    0.0000 C   0  0  0  0  0  0  0  0  0  0  0  0
   -4.2216    3.1321    0.0000 C   0  0  0  0  0  0  0  0  0  0  0  0
   -2.9226    3.8821    0.0000 C   0  0  0  0  0  0  0  0  0  0  0  0
   -5.5207    3.8821    0.0000 C   0  0  0  0  0  0  0  0  0  0  0  0
   -0.3245    3.8821    0.0000 C   0  0  0  0  0  0  0  0  0  0  0  0
    0.9745    3.1321    0.0000 C   0  0  0  0  0  0  0  0  0  0  0  0
   -1.6236    3.1321    0.0000 O   0  0  0  0  0  0  0  0  0  0  0  0
  5  4  2  0
  6  4  1  0
  7  5  1  0
  8  6  2  0
 10  9  1  0
 11  1  1  0
 11  2  1  0
 11  9  1  0
 12  3  1  0
 13  7  2  0
 13  8  1  0
 13 12  1  0
 14 10  1  0
 14 12  1  0
M  END
>  <NAME>  (2620) 
1-PHENYLETHYL 3-METHYLBUTYL ETHER

>  <SYNONYMS>  (2620) 


>  <SPECTRUM TYPE>  (2620) 
MS1

>  <INSTRUMENT TYPE>  (2620) 
EI-B

>  <INSTRUMENT>  (2620) 
HITACHI M-80B

>  <ION MODE>  (2620) 
P

>  <INCHIKEY>  (2620) 
IZFQCPDKIZRKSB-UHFFFAOYSA-N

>  <FORMULA>  (2620) 
C13H20O

>  <EXACT MASS>  (2620) 
192.15141526

>  <MW>  (2620) 
192

>  <ID>  (2620) 
JP008591

>  <CONTRIBUTOR>  (2620) 
University of Tokyo Team, {Faculty of Engineering, University of Tokyo

>  <COMMENT>  (2620) 
SMILES=CC(C)CCOC(C)c(c1)cccc1
InChI=InChI=1S/C13H20O/c1-11(2)9-10-14-12(3)13-7-5-4-6-8-13/h4-8,11-12H,9-10H2,1-3H3
computed SMILES=O(CCC(C)C)C(C=1C=CC=CC1)C
accession=JP008591
date=2016.01.19 (Created 2008.10.21, modified 2011.05.06)
author=SODA AROMATIC CO., LTD.
license=CC BY-NC-SA
exact mass=192.15142
ionization energy=70 eV
ion type=[M]+*
computed spectral entropy=2.922891152521568
computed normalized entropy=0.7820089657533694
SPLASH=splash10-0a4i-7900000000-d4ea86735245c1b82204
submitter=submitter = University of Tokyo Team (Faculty of Engineering, University of Tokyo)
MoNA Rating=3.75

>  <NUM PEAKS>  (2620) 
42

>  <MASS SPECTRAL PEAKS>  (2620) 
27 8.82
29 5.61
31 1.12
38 1.01
39 7.8
41 14.65
42 2.82
43 44.71
44 1.85
45 1.43
50 4.86
51 12.81
52 3.5
53 1.68
55 4.42
57 1.35
62 1.02
63 3.02
65 1.89
69 1.35
70 1.74
71 36.5
72 1.89
74 1.7
75 1.58
76 1.7
77 26.95
78 18.91
79 18.83
80 1.09
89 1.24
91 6.02
102 2.4
103 20.82
104 40.32
105 99.99
106 22.63
107 63.35
108 3.85
121 1.38
177 45.8
178 4.99

$$$$

     RDKit          2D

 11 11  0  0  0  0  0  0  0  0999 V2000
    2.6027    1.4936    0.0000 C   0  0  0  0  0  0  0  0  0  0  0  0
    1.3000   -0.7500    0.0000 C   0  0  0  0  0  0  0  0  0  0  0  0
    0.0300    1.5000    0.0000 C   0  0  0  0  0  0  0  0  0  0  0  0
    0.0300   -1.5000    0.0000 C   0  0  0  0  0  0  0  0  0  0  0  0
   -1.3200    0.7500    0.0000 C   0  0  0  0  0  0  0  0  0  0  0  0
   -5.2108   -1.5321    0.0000 C   0  0  0  0  0  0  0  0  0  0  0  0
   -3.9180   -0.7714    0.0000 C   0  0  0  0  0  0  0  0  0  0  0  0
    1.3000    0.7500    0.0000 C   0  0  0  0  0  0  0  0  0  0  0  0
   -1.3200   -0.7500    0.0000 C   0  0  0  0  0  0  0  0  0  0  0  0
   -6.5160   -0.7929    0.0000 O   0  0  0  0  0  0  0  0  0  0  0  0
   -2.6128   -1.5107    0.0000 O   0  0  0  0  0  0  0  0  0  0  0  0
  4  2  2  0
  5  3  1  0
  7  6  1  0
  8  1  1  0
  8  2  1  0
  8  3  2  0
  9  4  1  0
  9  5  2  0
 10  6  1  0
 11  7  1  0
 11  9  1  0
M  END
>  <NAME>  (2621) 
ETHYLENE GLYCOL MONO-PARA-TOLYL ETHER

>  <SYNONYMS>  (2621) 
2-(PARA-METHYLPHENOXY)ETHANOL

>  <SPECTRUM TYPE>  (2621) 
MS1

>  <INSTRUMENT TYPE>  (2621) 
EI-B

>  <INSTRUMENT>  (2621) 
HITACHI M-80B

>  <ION MODE>  (2621) 
P

>  <INCHIKEY>  (2621) 
FFWXHQFJNOGDJE-UHFFFAOYSA-N

>  <FORMULA>  (2621) 
C9H12O2

>  <EXACT MASS>  (2621) 
152.083729624

>  <MW>  (2621) 
152

>  <ID>  (2621) 
JP008590

>  <CONTRIBUTOR>  (2621) 
University of Tokyo Team, {Faculty of Engineering, University of Tokyo

>  <COMMENT>  (2621) 
SMILES=OCCOc(c1)ccc(C)c1
InChI=InChI=1S/C9H12O2/c1-8-2-4-9(5-3-8)11-7-6-10/h2-5,10H,6-7H2,1H3
computed SMILES=OCCOC1=CC=C(C=C1)C
accession=JP008590
date=2016.01.19 (Created 2008.10.21, modified 2011.05.06)
author=SODA AROMATIC CO., LTD.
license=CC BY-NC-SA
exact mass=152.08373
ionization energy=70 eV
ion type=[M]+*
computed spectral entropy=2.699207343326013
computed normalized entropy=0.7788266097095025
SPLASH=splash10-0a4i-6900000000-3d9fd380d648a1ac2172
submitter=submitter = University of Tokyo Team (Faculty of Engineering, University of Tokyo)
MoNA Rating=3.75

>  <NUM PEAKS>  (2621) 
32

>  <MASS SPECTRAL PEAKS>  (2621) 
15 1.33
19 1.42
27 9.05
29 3.91
31 6.03
39 8.12
41 1.54
43 2.81
45 11.53
50 3
51 8.44
52 3.81
53 3.95
62 1.21
63 4.85
64 1.24
65 11.98
77 13.9
78 4.06
79 9.25
80 6.73
89 2.9
90 7.03
91 23.25
92 1.66
93 2.03
107 48.36
108 99.99
109 11.26
121 4.34
152 39.61
153 3.06

$$$$

     RDKit          2D

 11 11  0  0  0  0  0  0  0  0999 V2000
    3.5726    0.8821    0.0000 C   0  0  0  0  0  0  0  0  0  0  0  0
    3.5731    2.3829    0.0000 C   0  0  0  0  0  0  0  0  0  0  0  0
    2.2731    0.1313    0.0000 C   0  0  0  0  0  0  0  0  0  0  0  0
    2.2740    3.1329    0.0000 C   0  0  0  0  0  0  0  0  0  0  0  0
    0.9740    0.8813    0.0000 C   0  0  0  0  0  0  0  0  0  0  0  0
   -4.2216    2.3821    0.0000 C   0  0  0  0  0  0  0  0  0  0  0  0
   -2.9226    3.1321    0.0000 C   0  0  0  0  0  0  0  0  0  0  0  0
   -0.3245    3.1321    0.0000 C   0  0  0  0  0  0  0  0  0  0  0  0
    0.9745    2.3821    0.0000 C   0  0  0  0  0  0  0  0  0  0  0  0
   -5.5207    3.1321    0.0000 O   0  0  0  0  0  0  0  0  0  0  0  0
   -1.6236    2.3821    0.0000 O   0  0  0  0  0  0  0  0  0  0  0  0
  2  1  2  0
  3  1  1  0
  4  2  1  0
  5  3  2  0
  7  6  1  0
  9  4  2  0
  9  5  1  0
  9  8  1  0
 10  6  1  0
 11  7  1  0
 11  8  1  0
M  END
>  <NAME>  (2622) 
ETHYLENE GLYCOL MONOBENZYL ETHER

>  <SYNONYMS>  (2622) 
2-BENZYLOXYETHANOL

>  <SPECTRUM TYPE>  (2622) 
MS1

>  <INSTRUMENT TYPE>  (2622) 
EI-B

>  <INSTRUMENT>  (2622) 
HITACHI M-80B

>  <ION MODE>  (2622) 
P

>  <INCHIKEY>  (2622) 
CUZKCNWZBXLAJX-UHFFFAOYSA-N

>  <FORMULA>  (2622) 
C9H12O2

>  <EXACT MASS>  (2622) 
152.083729624

>  <MW>  (2622) 
152

>  <ID>  (2622) 
JP008589

>  <CONTRIBUTOR>  (2622) 
University of Tokyo Team, {Faculty of Engineering, University of Tokyo

>  <COMMENT>  (2622) 
SMILES=OCCOCc(c1)cccc1
InChI=InChI=1S/C9H12O2/c10-6-7-11-8-9-4-2-1-3-5-9/h1-5,10H,6-8H2
computed SMILES=OCCOCC=1C=CC=CC1
accession=JP008589
date=2016.01.19 (Created 2008.10.21, modified 2011.05.06)
author=SODA AROMATIC CO., LTD.
license=CC BY-NC-SA
exact mass=152.08373
ionization energy=70 eV
ion type=[M]+*
computed spectral entropy=2.189020570466643
computed normalized entropy=0.6800574764502679
SPLASH=splash10-0006-9100000000-27d8a665c2b8f5edeccc
submitter=submitter = University of Tokyo Team (Faculty of Engineering, University of Tokyo)
MoNA Rating=3.75

>  <NUM PEAKS>  (2622) 
25

>  <MASS SPECTRAL PEAKS>  (2622) 
27 2.18
29 2.5
31 7.33
39 6.48
41 1.38
43 1.13
45 2.37
50 1.73
51 5.63
52 1.29
63 2.65
65 12.82
77 5.39
78 1.26
79 6.08
89 2.57
90 1.54
91 99.99
92 23.67
93 1.18
105 2.04
107 18.12
108 1.54
152 13.62
153 1.2

$$$$

     RDKit          2D

 12 12  0  0  0  0  0  0  0  0999 V2000
   -6.8197    3.1321    0.0000 C   0  0  0  0  0  0  0  0  0  0  0  0
   -5.5207    3.8821    0.0000 C   0  0  0  0  0  0  0  0  0  0  0  0
   -4.2216    3.1321    0.0000 C   0  0  0  0  0  0  0  0  0  0  0  0
    3.5726    1.6321    0.0000 C   0  0  0  0  0  0  0  0  0  0  0  0
    3.5731    3.1329    0.0000 C   0  0  0  0  0  0  0  0  0  0  0  0
    2.2731    0.8813    0.0000 C   0  0  0  0  0  0  0  0  0  0  0  0
    2.2740    3.8829    0.0000 C   0  0  0  0  0  0  0  0  0  0  0  0
    0.9740    1.6313    0.0000 C   0  0  0  0  0  0  0  0  0  0  0  0
   -2.9226    3.8821    0.0000 C   0  0  0  0  0  0  0  0  0  0  0  0
   -0.3245    3.8821    0.0000 C   0  0  0  0  0  0  0  0  0  0  0  0
    0.9745    3.1321    0.0000 C   0  0  0  0  0  0  0  0  0  0  0  0
   -1.6236    3.1321    0.0000 O   0  0  0  0  0  0  0  0  0  0  0  0
  2  1  1  0
  3  2  1  0
  5  4  2  0
  6  4  1  0
  7  5  1  0
  8  6  2  0
  9  3  1  0
 11  7  2  0
 11  8  1  0
 11 10  1  0
 12  9  1  0
 12 10  1  0
M  END
>  <NAME>  (2623) 
BENZYL BUTYL ETHER

>  <SYNONYMS>  (2623) 


>  <SPECTRUM TYPE>  (2623) 
MS1

>  <INSTRUMENT TYPE>  (2623) 
EI-B

>  <INSTRUMENT>  (2623) 
HITACHI M-80B

>  <ION MODE>  (2623) 
P

>  <INCHIKEY>  (2623) 
MAYUYFCAPVDYBQ-UHFFFAOYSA-N

>  <FORMULA>  (2623) 
C11H16O

>  <EXACT MASS>  (2623) 
164.120115132

>  <MW>  (2623) 
164

>  <ID>  (2623) 
JP008588

>  <CONTRIBUTOR>  (2623) 
University of Tokyo Team, {Faculty of Engineering, University of Tokyo

>  <COMMENT>  (2623) 
SMILES=CCCCOCc(c1)cccc1
InChI=InChI=1S/C11H16O/c1-2-3-9-12-10-11-7-5-4-6-8-11/h4-8H,2-3,9-10H2,1H3
computed SMILES=O(CC=1C=CC=CC1)CCCC
computed spectral entropy=2.0198457113424353
computed normalized entropy=0.6634359748232955
accession=JP008588
date=2016.01.19 (Created 2008.10.21, modified 2011.05.06)
author=SODA AROMATIC CO., LTD.
license=CC BY-NC-SA
exact mass=164.12012
ionization energy=70 eV
ion type=[M]+*
SPLASH=splash10-0006-9000000000-4c4bbf1c0ee9e3e9d307
submitter=submitter = University of Tokyo Team (Faculty of Engineering, University of Tokyo)
MoNA Rating=3.75

>  <NUM PEAKS>  (2623) 
21

>  <MASS SPECTRAL PEAKS>  (2623) 
27 5.63
29 6.35
39 7.22
41 7.97
43 1.66
50 1.18
51 3.53
57 1.93
63 1.86
65 11.22
77 4.52
78 1.59
79 7.79
89 2
90 1.43
91 99.99
92 59.29
93 3.51
105 1.45
107 7.01
108 6.03

$$$$

     RDKit          2D

  9  9  0  0  0  0  0  0  0  0999 V2000
   -3.5724    2.0075    0.0000 C   0  0  0  0  0  0  0  0  0  0  0  0
    2.9228   -0.2425    0.0000 C   0  0  0  0  0  0  0  0  0  0  0  0
    2.9233    1.2583    0.0000 C   0  0  0  0  0  0  0  0  0  0  0  0
    1.6233   -0.9933    0.0000 C   0  0  0  0  0  0  0  0  0  0  0  0
    1.6243    2.0083    0.0000 C   0  0  0  0  0  0  0  0  0  0  0  0
    0.3243   -0.2433    0.0000 C   0  0  0  0  0  0  0  0  0  0  0  0
   -0.9743    2.0075    0.0000 C   0  0  0  0  0  0  0  0  0  0  0  0
    0.3248    1.2575    0.0000 C   0  0  0  0  0  0  0  0  0  0  0  0
   -2.2733    1.2575    0.0000 O   0  0  0  0  0  0  0  0  0  0  0  0
  3  2  2  0
  4  2  1  0
  5  3  1  0
  6  4  2  0
  8  5  2  0
  8  6  1  0
  8  7  1  0
  9  1  1  0
  9  7  1  0
M  END
>  <NAME>  (2624) 
BENZYL METHYL ETHER

>  <SYNONYMS>  (2624) 


>  <SPECTRUM TYPE>  (2624) 
MS1

>  <INSTRUMENT TYPE>  (2624) 
EI-B

>  <INSTRUMENT>  (2624) 
HITACHI M-80B

>  <ION MODE>  (2624) 
P

>  <INCHIKEY>  (2624) 
GQKZBCPTCWJTAS-UHFFFAOYSA-N

>  <FORMULA>  (2624) 
C8H10O

>  <EXACT MASS>  (2624) 
122.07316494

>  <MW>  (2624) 
122

>  <ID>  (2624) 
JP008587

>  <CONTRIBUTOR>  (2624) 
University of Tokyo Team, {Faculty of Engineering, University of Tokyo

>  <COMMENT>  (2624) 
SMILES=COCc(c1)cccc1
InChI=InChI=1S/C8H10O/c1-9-7-8-5-3-2-4-6-8/h2-6H,7H2,1H3
computed SMILES=O(C)CC=1C=CC=CC1
accession=JP008587
date=2016.01.19 (Created 2008.10.21, modified 2011.05.06)
author=SODA AROMATIC CO., LTD.
license=CC BY-NC-SA
exact mass=122.07316
ionization energy=70 eV
ion type=[M]+*
computed spectral entropy=2.648948913816521
computed normalized entropy=0.7713916086689888
SPLASH=splash10-006x-9300000000-4fd9754dab9f2307278e
submitter=submitter = University of Tokyo Team (Faculty of Engineering, University of Tokyo)
MoNA Rating=3.75

>  <NUM PEAKS>  (2624) 
31

>  <MASS SPECTRAL PEAKS>  (2624) 
15 4.97
27 2.65
29 10.37
30 1.48
38 2.66
39 16.2
41 2.51
45 6.99
50 7.86
51 17.85
52 3.54
53 1.25
62 2.44
63 8.74
64 1.79
65 18.34
74 1.4
75 1.01
77 30.31
78 3.8
79 10.55
89 6.3
90 2.71
91 99.99
92 21.39
93 1.33
105 3.3
107 1.82
121 49.66
122 56.81
123 4.48

$$$$

     RDKit          2D

  9  9  0  0  0  0  0  0  0  0999 V2000
    2.5989    3.0000    0.0000 C   0  0  0  0  0  0  0  0  0  0  0  0
   -0.0000   -1.5002    0.0000 C   0  0  0  0  0  0  0  0  0  0  0  0
   -2.5989    3.0000    0.0000 C   0  0  0  0  0  0  0  0  0  0  0  0
    1.3000    2.2498    0.0000 C   0  0  0  0  0  0  0  0  0  0  0  0
   -0.0000   -0.0002    0.0000 C   0  0  0  0  0  0  0  0  0  0  0  0
   -1.3000    2.2498    0.0000 C   0  0  0  0  0  0  0  0  0  0  0  0
    1.3000    0.7498    0.0000 O   0  0  0  0  0  0  0  0  0  0  0  0
   -0.0000    2.9998    0.0000 O   0  0  0  0  0  0  0  0  0  0  0  0
   -1.3000    0.7498    0.0000 O   0  0  0  0  0  0  0  0  0  0  0  0
  4  1  1  0
  5  2  1  0
  6  3  1  0
  7  4  1  0
  7  5  1  0
  8  4  1  0
  8  6  1  0
  9  5  1  0
  9  6  1  0
M  END
>  <NAME>  (2625) 
PARAACETALDEHYDE

>  <SYNONYMS>  (2625) 
PARALDEHYDE

>  <SPECTRUM TYPE>  (2625) 
MS1

>  <INSTRUMENT TYPE>  (2625) 
EI-B

>  <INSTRUMENT>  (2625) 
HITACHI M-80B

>  <ION MODE>  (2625) 
P

>  <INCHIKEY>  (2625) 
SQYNKIJPMDEDEG-UHFFFAOYSA-N

>  <FORMULA>  (2625) 
C6H12O3

>  <EXACT MASS>  (2625) 
132.078644244

>  <MW>  (2625) 
132

>  <ID>  (2625) 
JP008586

>  <CONTRIBUTOR>  (2625) 
University of Tokyo Team, {Faculty of Engineering, University of Tokyo

>  <COMMENT>  (2625) 
SMILES=CC(O1)OC(C)OC(C)1
InChI=InChI=1S/C6H12O3/c1-4-7-5(2)9-6(3)8-4/h4-6H,1-3H3
computed SMILES=O1C(OC(OC1C)C)C
accession=JP008586
date=2016.01.19 (Created 2008.10.21, modified 2011.05.06)
author=SODA AROMATIC CO., LTD.
license=CC BY-NC-SA
exact mass=132.07864
ionization energy=70 eV
ion type=[M]+*
computed spectral entropy=1.6403539140497043
computed normalized entropy=0.660126976677233
SPLASH=splash10-0005-9000000000-a3f03c0baa80a3369e84
submitter=submitter = University of Tokyo Team (Faculty of Engineering, University of Tokyo)
MoNA Rating=3.75

>  <NUM PEAKS>  (2625) 
12

>  <MASS SPECTRAL PEAKS>  (2625) 
15 3.6
27 3.59
29 7.17
42 2.51
43 51.17
44 3.25
45 99.99
46 2.22
87 9.25
89 16.12
117 8.1
131 3.16

$$$$

     RDKit          2D

 19 18  0  0  0  0  0  0  0  0999 V2000
    5.8457   10.1250    0.0000 C   0  0  0  0  0  0  0  0  0  0  0  0
    4.5466   10.8750    0.0000 C   0  0  0  0  0  0  0  0  0  0  0  0
    3.2476   10.1250    0.0000 C   0  0  0  0  0  0  0  0  0  0  0  0
    1.9486   10.8750    0.0000 C   0  0  0  0  0  0  0  0  0  0  0  0
    0.6495   10.1250    0.0000 C   0  0  0  0  0  0  0  0  0  0  0  0
   -0.6495   10.8750    0.0000 C   0  0  0  0  0  0  0  0  0  0  0  0
   -1.9486   10.1250    0.0000 C   0  0  0  0  0  0  0  0  0  0  0  0
   -3.2476   10.8750    0.0000 C   0  0  0  0  0  0  0  0  0  0  0  0
   -4.5466   10.1250    0.0000 C   0  0  0  0  0  0  0  0  0  0  0  0
   -5.8457   10.8750    0.0000 C   0  0  0  0  0  0  0  0  0  0  0  0
   -7.1447   10.1250    0.0000 C   0  0  0  0  0  0  0  0  0  0  0  0
   -8.4437   10.8750    0.0000 C   0  0  0  0  0  0  0  0  0  0  0  0
   -9.7428   10.1250    0.0000 C   0  0  0  0  0  0  0  0  0  0  0  0
  -11.0418   10.8750    0.0000 C   0  0  0  0  0  0  0  0  0  0  0  0
  -12.3409   10.1250    0.0000 C   0  0  0  0  0  0  0  0  0  0  0  0
  -13.6399   10.8750    0.0000 C   0  0  0  0  0  0  0  0  0  0  0  0
  -14.9389   10.1250    0.0000 C   0  0  0  0  0  0  0  0  0  0  0  0
  -16.2380   10.8750    0.0000 C   0  0  0  0  0  0  0  0  0  0  0  0
  -17.5370   10.1250    0.0000 O   0  0  0  0  0  0  0  0  0  0  0  0
  2  1  1  0
  3  2  1  0
  4  3  1  0
  5  4  1  0
  6  5  1  0
  7  6  1  0
  8  7  1  0
  9  8  1  0
 10  9  1  0
 11 10  1  0
 12 11  1  0
 13 12  1  0
 14 13  1  0
 15 14  1  0
 16 15  1  0
 17 16  1  0
 18 17  1  0
 19 18  1  0
M  END
>  <NAME>  (2626) 
OCTADECANOL

>  <SYNONYMS>  (2626) 


>  <SPECTRUM TYPE>  (2626) 
MS1

>  <INSTRUMENT TYPE>  (2626) 
EI-B

>  <INSTRUMENT>  (2626) 
HITACHI M-80B

>  <ION MODE>  (2626) 
P

>  <INCHIKEY>  (2626) 
GLDOVTGHNKAZLK-UHFFFAOYSA-N

>  <FORMULA>  (2626) 
C18H38O

>  <EXACT MASS>  (2626) 
270.292265836

>  <MW>  (2626) 
270

>  <ID>  (2626) 
JP008585

>  <CONTRIBUTOR>  (2626) 
University of Tokyo Team, {Faculty of Engineering, University of Tokyo

>  <COMMENT>  (2626) 
SMILES=CCCCCCCCCCCCCCCCCCO
InChI=InChI=1S/C18H38O/c1-2-3-4-5-6-7-8-9-10-11-12-13-14-15-16-17-18-19/h19H,2-18H2,1H3
computed SMILES=OCCCCCCCCCCCCCCCCCC
accession=JP008585
date=2016.01.19 (Created 2008.10.21, modified 2011.05.06)
author=SODA AROMATIC CO., LTD.
license=CC BY-NC-SA
exact mass=270.29227
ionization energy=70 eV
ion type=[M]+*
computed spectral entropy=3.2559042083967236
computed normalized entropy=0.8240200909615506
SPLASH=splash10-0a5c-9100000000-ef18c1dfe45ef2070173
submitter=submitter = University of Tokyo Team (Faculty of Engineering, University of Tokyo)
MoNA Rating=3.75

>  <NUM PEAKS>  (2626) 
52

>  <MASS SPECTRAL PEAKS>  (2626) 
27 7.91
29 24.41
31 15.42
39 5.8
41 70.66
42 15.82
43 99.99
44 2.26
45 1.75
53 2.7
54 8.22
55 96.57
56 50.07
57 92.15
58 3.66
67 12.31
68 36.29
69 85.53
70 48.75
71 40.18
72 2
73 1.74
81 7.28
82 41.53
83 98.85
84 30.82
85 19.5
95 3.74
96 12.62
97 74.41
98 19
99 4.73
109 1
110 5.94
111 36.09
112 12.49
113 2.91
124 3.38
125 15.82
126 7.75
127 1.08
138 2.42
139 6.46
140 5.33
153 3.51
154 3.76
167 2.04
168 2.76
182 1.99
196 1.57
224 4.66
252 2.83

$$$$

     RDKit          2D

  9  9  0  0  0  0  0  0  0  0999 V2000
   -2.6324   -0.3599    0.0000 C   0  0  0  0  0  0  0  0  0  0  0  0
   -1.6683    0.7893    0.0000 C   0  0  0  0  0  0  0  0  0  0  0  0
    2.4070    2.0290    0.0000 C   0  0  0  0  0  0  0  0  0  0  0  0
    2.4074    0.5282    0.0000 C   0  0  0  0  0  0  0  0  0  0  0  0
    1.1074    2.7798    0.0000 C   0  0  0  0  0  0  0  0  0  0  0  0
    1.1084   -0.2218    0.0000 C   0  0  0  0  0  0  0  0  0  0  0  0
   -0.1916    2.0298    0.0000 C   0  0  0  0  0  0  0  0  0  0  0  0
   -0.1911    0.5290    0.0000 C   0  0  0  0  0  0  0  0  0  0  0  0
   -0.7043   -0.8805    0.0000 O   0  0  0  0  0  0  0  0  0  0  0  0
  2  1  2  0
  4  3  1  0
  5  3  1  0
  6  4  1  0
  7  5  1  0
  8  2  1  0
  8  6  1  0
  8  7  1  0
  9  8  1  0
M  END
>  <NAME>  (2627) 
1-VINYLCYCLOHEXANOL

>  <SYNONYMS>  (2627) 


>  <SPECTRUM TYPE>  (2627) 
MS1

>  <INSTRUMENT TYPE>  (2627) 
EI-B

>  <INSTRUMENT>  (2627) 
HITACHI M-80B

>  <ION MODE>  (2627) 
P

>  <INCHIKEY>  (2627) 
ZXKHOVDDJMJXQP-UHFFFAOYSA-N

>  <FORMULA>  (2627) 
C8H14O

>  <EXACT MASS>  (2627) 
126.104465068

>  <MW>  (2627) 
126

>  <ID>  (2627) 
JP008584

>  <CONTRIBUTOR>  (2627) 
University of Tokyo Team, {Faculty of Engineering, University of Tokyo

>  <COMMENT>  (2627) 
SMILES=C=CC(O)(C1)CCCC1
InChI=InChI=1S/C8H14O/c1-2-8(9)6-4-3-5-7-8/h2,9H,1,3-7H2
computed SMILES=OC1(C=C)CCCCC1
accession=JP008584
date=2016.01.19 (Created 2008.10.21, modified 2011.05.06)
author=SODA AROMATIC CO., LTD.
license=CC BY-NC-SA
exact mass=126.10447
ionization energy=70 eV
ion type=[M]+*
computed spectral entropy=3.064611887229477
computed normalized entropy=0.8004437004833513
SPLASH=splash10-001i-9000000000-6d0de085d89286a7a23f
submitter=submitter = University of Tokyo Team (Faculty of Engineering, University of Tokyo)
MoNA Rating=3.75

>  <NUM PEAKS>  (2627) 
46

>  <MASS SPECTRAL PEAKS>  (2627) 
15 1.17
26 1.74
27 22.11
29 9.95
31 2.29
38 1
39 17.13
40 2.31
41 19.71
42 8.35
43 14.51
44 1.15
50 1.21
51 2.4
52 1.51
53 7.32
54 2.11
55 49.71
56 3.9
57 7.03
58 2.69
65 2.14
67 5.91
68 6.47
69 6.32
70 42.68
71 7.22
72 2.53
77 2.34
79 5.96
80 1.4
81 8.05
82 5.52
83 99.99
84 12.97
85 1.07
91 1.29
93 2.74
95 1.02
97 12.28
98 13.88
99 5.45
108 1.82
111 23.25
112 1.47
126 5.62

$$$$

     RDKit          2D

 10 10  0  0  0  0  0  0  0  0999 V2000
   -0.2900    3.1700    0.0000 C   0  0  0  0  0  0  0  0  0  0  0  0
    3.6081   -0.5804    0.0000 C   0  0  0  0  0  0  0  0  0  0  0  0
   -1.5900    0.9200    0.0000 C   0  0  0  0  0  0  0  0  0  0  0  0
   -1.5900   -0.5800    0.0000 C   0  0  0  0  0  0  0  0  0  0  0  0
    1.0100    0.9200    0.0000 C   0  0  0  0  0  0  0  0  0  0  0  0
   -0.2900    1.6700    0.0000 C   0  0  0  0  0  0  0  0  0  0  0  0
   -0.2900   -1.3300    0.0000 C   0  0  0  0  0  0  0  0  0  0  0  0
    1.0100   -0.5800    0.0000 C   0  0  0  0  0  0  0  0  0  0  0  0
   -0.2900   -2.8300    0.0000 O   0  0  0  0  0  0  0  0  0  0  0  0
    2.3089   -1.3302    0.0000 O   0  0  0  0  0  0  0  0  0  0  0  0
  4  3  2  0
  6  1  1  0
  6  3  1  0
  6  5  2  0
  7  4  1  0
  8  5  1  0
  8  7  2  0
  9  7  1  0
 10  2  1  0
 10  8  1  0
M  END
>  <NAME>  (2628) 
CREOSOL

>  <SYNONYMS>  (2628) 
2-METHOXY-4-METHYLPHENOL

>  <SPECTRUM TYPE>  (2628) 
MS1

>  <INSTRUMENT TYPE>  (2628) 
EI-B

>  <INSTRUMENT>  (2628) 
HITACHI M-80B

>  <ION MODE>  (2628) 
P

>  <INCHIKEY>  (2628) 
PETRWTHZSKVLRE-UHFFFAOYSA-N

>  <FORMULA>  (2628) 
C8H10O2

>  <EXACT MASS>  (2628) 
138.06807956

>  <MW>  (2628) 
138

>  <ID>  (2628) 
JP008583

>  <CONTRIBUTOR>  (2628) 
University of Tokyo Team, {Faculty of Engineering, University of Tokyo

>  <COMMENT>  (2628) 
SMILES=COc(c1)c(O)ccc(C)1
InChI=InChI=1S/C8H10O2/c1-6-3-4-7(9)8(5-6)10-2/h3-5,9H,1-2H3
computed SMILES=OC1=CC=C(C=C1OC)C
accession=JP008583
date=2016.01.19 (Created 2008.10.21, modified 2011.05.06)
author=SODA AROMATIC CO., LTD.
license=CC BY-NC-SA
exact mass=138.06808
ionization energy=70 eV
ion type=[M]+*
computed spectral entropy=2.7688860898978858
computed normalized entropy=0.7557907733920797
SPLASH=splash10-0079-8900000000-c42e8911b7e5bb460b86
submitter=submitter = University of Tokyo Team (Faculty of Engineering, University of Tokyo)
MoNA Rating=3.75

>  <NUM PEAKS>  (2628) 
39

>  <MASS SPECTRAL PEAKS>  (2628) 
15 4.03
26 1.07
27 4.49
28 2.28
29 2.11
32 1.46
38 2.67
39 16
40 3.04
41 10.18
43 2.21
50 4.53
51 12.44
52 3.8
53 5.29
55 18.23
62 1.69
63 3.28
65 9.22
66 8.95
67 16.72
68 1.42
69 1.26
77 16.34
78 4.66
79 2.55
91 1.59
94 5.02
95 34.86
96 2.25
106 2.03
107 3.12
109 1.62
122 1.97
123 86.06
124 6.26
137 5.17
138 99.99
139 10.22

$$$$

     RDKit          2D

 14 13  0  0  0  0  0  0  0  0999 V2000
   -3.2476    7.1250    0.0000 C   0  0  0  0  0  0  0  0  0  0  0  0
   -4.5466    7.8750    0.0000 C   0  0  0  0  0  0  0  0  0  0  0  0
   -1.9486    7.8750    0.0000 C   0  0  0  0  0  0  0  0  0  0  0  0
   -5.8457    7.1250    0.0000 C   0  0  0  0  0  0  0  0  0  0  0  0
   -0.6495    7.1250    0.0000 C   0  0  0  0  0  0  0  0  0  0  0  0
   -7.1447    7.8750    0.0000 C   0  0  0  0  0  0  0  0  0  0  0  0
    0.6495    7.8750    0.0000 C   0  0  0  0  0  0  0  0  0  0  0  0
   -8.4437    7.1250    0.0000 C   0  0  0  0  0  0  0  0  0  0  0  0
    1.9486    7.1250    0.0000 C   0  0  0  0  0  0  0  0  0  0  0  0
   -9.7428    7.8750    0.0000 C   0  0  0  0  0  0  0  0  0  0  0  0
    3.2476    7.8750    0.0000 C   0  0  0  0  0  0  0  0  0  0  0  0
  -11.0418    7.1250    0.0000 C   0  0  0  0  0  0  0  0  0  0  0  0
    4.5466    7.1250    0.0000 O   0  0  0  0  0  0  0  0  0  0  0  0
  -12.3409    7.8750    0.0000 O   0  0  0  0  0  0  0  0  0  0  0  0
  2  1  1  0
  3  1  1  0
  4  2  1  0
  5  3  1  0
  6  4  1  0
  7  5  1  0
  8  6  1  0
  9  7  1  0
 10  8  1  0
 11  9  1  0
 12 10  1  0
 13 11  1  0
 14 12  1  0
M  END
>  <NAME>  (2629) 
1,12-DODECANEDIOL

>  <SYNONYMS>  (2629) 
1,12-DIHYDROXYDODECANE

>  <SPECTRUM TYPE>  (2629) 
MS1

>  <INSTRUMENT TYPE>  (2629) 
EI-B

>  <INSTRUMENT>  (2629) 
HITACHI M-80B

>  <ION MODE>  (2629) 
P

>  <INCHIKEY>  (2629) 
GHLKSLMMWAKNBM-UHFFFAOYSA-N

>  <FORMULA>  (2629) 
C12H26O2

>  <EXACT MASS>  (2629) 
202.193280072

>  <MW>  (2629) 
202

>  <ID>  (2629) 
JP008582

>  <CONTRIBUTOR>  (2629) 
University of Tokyo Team, {Faculty of Engineering, University of Tokyo

>  <COMMENT>  (2629) 
SMILES=OCCCCCCCCCCCCO
InChI=InChI=1S/C12H26O2/c13-11-9-7-5-3-1-2-4-6-8-10-12-14/h13-14H,1-12H2
computed SMILES=OCCCCCCCCCCCCO
accession=JP008582
date=2016.01.19 (Created 2008.10.21, modified 2011.05.06)
author=SODA AROMATIC CO., LTD.
license=CC BY-NC-SA
exact mass=202.19328
ionization energy=70 eV
ion type=[M]+*
computed spectral entropy=3.1601972506136575
computed normalized entropy=0.8687621713546885
SPLASH=splash10-05o3-9000000000-5ae7ecc08ed83bbd0832
submitter=submitter = University of Tokyo Team (Faculty of Engineering, University of Tokyo)
MoNA Rating=3.75

>  <NUM PEAKS>  (2629) 
38

>  <MASS SPECTRAL PEAKS>  (2629) 
16 1.17
18 9.69
27 11.59
29 15.79
31 38.24
39 8.95
41 65.32
42 15.6
43 27.07
44 2.02
45 4.42
53 4.4
54 24.18
55 99.99
56 18.09
57 16.83
66 3.62
67 36.93
68 46.15
69 37.02
70 12.13
71 7.33
73 1.8
81 28.99
82 63.01
83 23.91
84 5.92
85 4.87
95 23.81
96 24.56
97 11.82
98 3.39
109 10.4
110 9.6
111 3.96
123 3.6
124 1.1
138 1.88

$$$$

     RDKit          2D

 14 15  0  0  0  0  0  0  0  0999 V2000
    2.5986    1.0700    0.0000 C   0  0  0  0  0  0  0  0  0  0  0  0
   -5.1957    1.0700    0.0000 C   0  0  0  0  0  0  0  0  0  0  0  0
    2.5990    2.5708    0.0000 C   0  0  0  0  0  0  0  0  0  0  0  0
    1.2990    0.3192    0.0000 C   0  0  0  0  0  0  0  0  0  0  0  0
   -3.8962    0.3192    0.0000 C   0  0  0  0  0  0  0  0  0  0  0  0
   -5.1962    2.5708    0.0000 C   0  0  0  0  0  0  0  0  0  0  0  0
    1.3000    3.3208    0.0000 C   0  0  0  0  0  0  0  0  0  0  0  0
    0.0000    1.0692    0.0000 C   0  0  0  0  0  0  0  0  0  0  0  0
   -2.5971    1.0692    0.0000 C   0  0  0  0  0  0  0  0  0  0  0  0
   -3.8971    3.3208    0.0000 C   0  0  0  0  0  0  0  0  0  0  0  0
    0.0005    2.5700    0.0000 C   0  0  0  0  0  0  0  0  0  0  0  0
   -2.5976    2.5700    0.0000 C   0  0  0  0  0  0  0  0  0  0  0  0
   -1.2986    3.3200    0.0000 C   0  0  0  0  0  0  0  0  0  0  0  0
   -1.2986    4.8200    0.0000 O   0  0  0  0  0  0  0  0  0  0  0  0
  3  1  2  0
  4  1  1  0
  5  2  2  0
  6  2  1  0
  7  3  1  0
  8  4  2  0
  9  5  1  0
 10  6  2  0
 11  7  2  0
 11  8  1  0
 12  9  2  0
 12 10  1  0
 13 11  1  0
 13 12  1  0
 14 13  1  0
M  END
>  <NAME>  (2630) 
DIPHENYLMETHANOL

>  <SYNONYMS>  (2630) 
DIPHENYL CARBINOL

>  <SPECTRUM TYPE>  (2630) 
MS1

>  <INSTRUMENT TYPE>  (2630) 
EI-B

>  <INSTRUMENT>  (2630) 
HITACHI M-80B

>  <ION MODE>  (2630) 
P

>  <INCHIKEY>  (2630) 
QILSFLSDHQAZET-UHFFFAOYSA-N

>  <FORMULA>  (2630) 
C13H12O

>  <EXACT MASS>  (2630) 
184.088815004

>  <MW>  (2630) 
184

>  <ID>  (2630) 
JP008581

>  <CONTRIBUTOR>  (2630) 
University of Tokyo Team, {Faculty of Engineering, University of Tokyo

>  <COMMENT>  (2630) 
SMILES=c(c2)ccc(c2)C(O)c(c1)cccc1
InChI=InChI=1S/C13H12O/c14-13(11-7-3-1-4-8-11)12-9-5-2-6-10-12/h1-10,13-14H
computed SMILES=OC(C=1C=CC=CC1)C=2C=CC=CC2
accession=JP008581
date=2016.01.19 (Created 2008.10.21, modified 2011.05.06)
author=SODA AROMATIC CO., LTD.
license=CC BY-NC-SA
exact mass=184.08882
ionization energy=70 eV
ion type=[M]+*
computed spectral entropy=2.4715644947277764
computed normalized entropy=0.7585915475140167
SPLASH=splash10-0a6r-7900000000-79eb32b1737e049f0afe
submitter=submitter = University of Tokyo Team (Faculty of Engineering, University of Tokyo)
MoNA Rating=3.75

>  <NUM PEAKS>  (2630) 
26

>  <MASS SPECTRAL PEAKS>  (2630) 
14 2.62
27 2.52
32 4.39
39 4.64
50 4.74
51 17.1
52 3.64
53 1.19
63 2.01
75 1.21
76 1.85
77 47.27
78 34.5
79 26.67
105 99.99
106 9.24
107 11.34
152 2.54
155 1.54
165 8.7
166 2.55
167 3.05
182 1.3
183 14.6
184 30.94
185 5.02

$$$$

     RDKit          2D

 10 10  0  0  0  0  0  0  0  0999 V2000
    2.9228   -0.2425    0.0000 C   0  0  0  0  0  0  0  0  0  0  0  0
    2.9233    1.2583    0.0000 C   0  0  0  0  0  0  0  0  0  0  0  0
    1.6233   -0.9933    0.0000 C   0  0  0  0  0  0  0  0  0  0  0  0
    1.6243    2.0083    0.0000 C   0  0  0  0  0  0  0  0  0  0  0  0
    0.3243   -0.2433    0.0000 C   0  0  0  0  0  0  0  0  0  0  0  0
   -2.2733    1.2575    0.0000 C   0  0  0  0  0  0  0  0  0  0  0  0
    0.3248    1.2575    0.0000 C   0  0  0  0  0  0  0  0  0  0  0  0
   -0.9743    2.0075    0.0000 C   0  0  0  0  0  0  0  0  0  0  0  0
   -3.5724    2.0075    0.0000 O   0  0  0  0  0  0  0  0  0  0  0  0
   -0.9743    3.5075    0.0000 O   0  0  0  0  0  0  0  0  0  0  0  0
  2  1  2  0
  3  1  1  0
  4  2  1  0
  5  3  2  0
  7  4  2  0
  7  5  1  0
  8  6  1  0
  8  7  1  0
  9  6  1  0
 10  8  1  0
M  END
>  <NAME>  (2631) 
PHENYLETHYLENE GLYCOL

>  <SYNONYMS>  (2631) 
STYRENE GLYCOL

>  <SPECTRUM TYPE>  (2631) 
MS1

>  <INSTRUMENT TYPE>  (2631) 
EI-B

>  <INSTRUMENT>  (2631) 
HITACHI M-80B

>  <ION MODE>  (2631) 
P

>  <INCHIKEY>  (2631) 
PWMWNFMRSKOCEY-UHFFFAOYSA-N

>  <FORMULA>  (2631) 
C8H10O2

>  <EXACT MASS>  (2631) 
138.06807956

>  <MW>  (2631) 
138

>  <ID>  (2631) 
JP008580

>  <CONTRIBUTOR>  (2631) 
University of Tokyo Team, {Faculty of Engineering, University of Tokyo

>  <COMMENT>  (2631) 
SMILES=OCC(O)c(c1)cccc1
InChI=InChI=1S/C8H10O2/c9-6-8(10)7-4-2-1-3-5-7/h1-5,8-10H,6H2
computed SMILES=OCC(O)C=1C=CC=CC1
accession=JP008580
date=2016.01.19 (Created 2008.10.21, modified 2011.05.06)
author=SODA AROMATIC CO., LTD.
license=CC BY-NC-SA
exact mass=138.06808
ionization energy=70 eV
ion type=[M]+*
computed spectral entropy=2.4625712351472435
computed normalized entropy=0.7042945544537617
SPLASH=splash10-056r-9300000000-61822d25222e868a93ae
submitter=submitter = University of Tokyo Team (Faculty of Engineering, University of Tokyo)
MoNA Rating=3.75

>  <NUM PEAKS>  (2631) 
33

>  <MASS SPECTRAL PEAKS>  (2631) 
15 1.16
27 4.74
28 3.45
29 11.31
30 1.67
31 10.26
32 1.03
38 1.77
39 7.21
41 1.29
43 1.85
50 6.6
51 23.68
52 5.18
53 3.32
62 1.3
63 3.91
65 2.85
74 1.93
75 1.55
76 1.33
77 64.59
78 12.31
79 88.58
80 4.95
89 2.39
90 1.04
91 5.52
105 8.5
106 3.83
107 99.99
108 6.55
138 4.06

$$$$

     RDKit          2D

  9  9  0  0  0  0  0  0  0  0999 V2000
    0.6396    2.6142    0.0000 C   0  0  0  0  0  0  0  0  0  0  0  0
   -0.6740    0.3893    0.0000 C   0  0  0  0  0  0  0  0  0  0  0  0
    1.9241    1.8893    0.0000 C   0  0  0  0  0  0  0  0  0  0  0  0
    0.6506   -0.4048    0.0000 C   0  0  0  0  0  0  0  0  0  0  0  0
   -1.9548    2.6206    0.0000 C   0  0  0  0  0  0  0  0  0  0  0  0
   -0.6594    1.8642    0.0000 C   0  0  0  0  0  0  0  0  0  0  0  0
    1.9496    0.3452    0.0000 C   0  0  0  0  0  0  0  0  0  0  0  0
   -3.2575    1.8770    0.0000 O   0  0  0  0  0  0  0  0  0  0  0  0
    3.2548   -0.3941    0.0000 O   0  0  0  0  0  0  0  0  0  0  0  0
  3  1  2  0
  4  2  1  0
  6  1  1  0
  6  2  2  0
  6  5  1  0
  7  3  1  0
  7  4  2  0
  8  5  1  0
  9  7  1  0
M  END
>  <NAME>  (2632) 
PARA-HYDROXYBENZYL ALCOHOL

>  <SYNONYMS>  (2632) 
PARA-HYDROXYMETHYLPHENOL

>  <SPECTRUM TYPE>  (2632) 
MS1

>  <INSTRUMENT TYPE>  (2632) 
EI-B

>  <INSTRUMENT>  (2632) 
HITACHI M-80B

>  <ION MODE>  (2632) 
P

>  <INCHIKEY>  (2632) 
BVJSUAQZOZWCKN-UHFFFAOYSA-N

>  <FORMULA>  (2632) 
C7H8O2

>  <EXACT MASS>  (2632) 
124.052429496

>  <MW>  (2632) 
124

>  <ID>  (2632) 
JP008579

>  <CONTRIBUTOR>  (2632) 
University of Tokyo Team, {Faculty of Engineering, University of Tokyo

>  <COMMENT>  (2632) 
SMILES=OCc(c1)ccc(O)c1
InChI=InChI=1S/C7H8O2/c8-5-6-1-3-7(9)4-2-6/h1-4,8-9H,5H2
computed SMILES=OC1=CC=C(C=C1)CO
accession=JP008579
date=2016.01.19 (Created 2008.10.21, modified 2011.05.06)
author=SODA AROMATIC CO., LTD.
license=CC BY-NC-SA
exact mass=124.05243
ionization energy=70 eV
ion type=[M]+*
computed spectral entropy=3.0776586493517435
computed normalized entropy=0.8727577988319108
SPLASH=splash10-05i1-9400000000-f08047b4457dc23151d9
submitter=submitter = University of Tokyo Team (Faculty of Engineering, University of Tokyo)
MoNA Rating=3.75

>  <NUM PEAKS>  (2632) 
34

>  <MASS SPECTRAL PEAKS>  (2632) 
26 4.81
27 18.22
29 13
31 8.64
38 14.39
39 57.13
41 25.07
44 4.39
50 20.43
51 39.49
52 20.7
53 15.35
55 11.81
62 4.08
63 15.48
64 2.31
65 29.45
66 13.58
67 16.63
74 1.47
77 93.83
78 52.54
79 16.01
93 4.84
94 3.04
95 94.01
96 5.49
105 20.27
106 41.09
107 53.14
121 7.36
123 62.53
124 99.99
125 6.86

$$$$

     RDKit          2D

 11 11  0  0  0  0  0  0  0  0999 V2000
   -4.8712    2.0071    0.0000 C   0  0  0  0  0  0  0  0  0  0  0  0
    2.9231    0.5071    0.0000 C   0  0  0  0  0  0  0  0  0  0  0  0
    2.9236    2.0079    0.0000 C   0  0  0  0  0  0  0  0  0  0  0  0
    1.6236   -0.2437    0.0000 C   0  0  0  0  0  0  0  0  0  0  0  0
    1.6245    2.7579    0.0000 C   0  0  0  0  0  0  0  0  0  0  0  0
    0.3245    0.5063    0.0000 C   0  0  0  0  0  0  0  0  0  0  0  0
   -2.2731    2.0071    0.0000 C   0  0  0  0  0  0  0  0  0  0  0  0
   -0.9740    2.7571    0.0000 C   0  0  0  0  0  0  0  0  0  0  0  0
   -3.5721    2.7571    0.0000 C   0  0  0  0  0  0  0  0  0  0  0  0
    0.3250    2.0071    0.0000 C   0  0  0  0  0  0  0  0  0  0  0  0
   -3.5721    4.2571    0.0000 O   0  0  0  0  0  0  0  0  0  0  0  0
  3  2  2  0
  4  2  1  0
  5  3  1  0
  6  4  2  0
  8  7  1  0
  9  1  1  0
  9  7  1  0
 10  5  2  0
 10  6  1  0
 10  8  1  0
 11  9  1  0
M  END
>  <NAME>  (2633) 
1-PHENYL-3-BUTANOL

>  <SYNONYMS>  (2633) 


>  <SPECTRUM TYPE>  (2633) 
MS1

>  <INSTRUMENT TYPE>  (2633) 
EI-B

>  <INSTRUMENT>  (2633) 
HITACHI M-80B

>  <ION MODE>  (2633) 
P

>  <INCHIKEY>  (2633) 
GDWRKZLROIFUML-UHFFFAOYSA-N

>  <FORMULA>  (2633) 
C10H14O

>  <EXACT MASS>  (2633) 
150.104465068

>  <MW>  (2633) 
150

>  <ID>  (2633) 
JP008578

>  <CONTRIBUTOR>  (2633) 
University of Tokyo Team, {Faculty of Engineering, University of Tokyo

>  <COMMENT>  (2633) 
SMILES=CC(O)CCc(c1)cccc1
InChI=InChI=1S/C10H14O/c1-9(11)7-8-10-5-3-2-4-6-10/h2-6,9,11H,7-8H2,1H3
computed SMILES=OC(C)CCC=1C=CC=CC1
accession=JP008578
date=2016.01.19 (Created 2008.10.21, modified 2011.05.06)
author=SODA AROMATIC CO., LTD.
license=CC BY-NC-SA
exact mass=150.10447
ionization energy=70 eV
ion type=[M]+*
computed spectral entropy=2.915402893400616
computed normalized entropy=0.7572184744568567
SPLASH=splash10-00kf-9600000000-1f41f661aea293fbf718
submitter=submitter = University of Tokyo Team (Faculty of Engineering, University of Tokyo)
MoNA Rating=3.75

>  <NUM PEAKS>  (2633) 
47

>  <MASS SPECTRAL PEAKS>  (2633) 
15 1.35
19 1.13
27 6.79
29 2.92
31 2.39
39 9.28
41 2.54
43 9.51
44 1.79
45 34.72
50 2.88
51 10.92
52 2.8
53 1.55
54 1.79
57 1.31
59 1.47
62 1.2
63 4.04
64 1.37
65 15.06
66 1.03
74 1.01
75 1.01
76 1.2
77 15.6
78 27.94
79 10.04
89 2.89
90 1.18
91 95.72
92 47.17
93 2.91
102 1.23
103 7.73
104 7.58
105 13.3
106 2.48
115 5.63
116 1.48
117 99.99
118 10.01
131 9.81
132 60.19
133 7
150 11.01
151 1.08

$$$$

     RDKit          2D

 12 13  0  0  0  0  0  0  0  0999 V2000
    3.2476   -0.0550    0.0000 C   0  0  0  0  0  0  0  0  0  0  0  0
   -3.2476    3.6950    0.0000 C   0  0  0  0  0  0  0  0  0  0  0  0
    3.2481    1.4458    0.0000 C   0  0  0  0  0  0  0  0  0  0  0  0
    1.9481   -0.8058    0.0000 C   0  0  0  0  0  0  0  0  0  0  0  0
   -3.2481    2.1942    0.0000 C   0  0  0  0  0  0  0  0  0  0  0  0
   -1.9481    4.4458    0.0000 C   0  0  0  0  0  0  0  0  0  0  0  0
    1.9490    2.1958    0.0000 C   0  0  0  0  0  0  0  0  0  0  0  0
    0.6490   -0.0558    0.0000 C   0  0  0  0  0  0  0  0  0  0  0  0
   -1.9490    1.4442    0.0000 C   0  0  0  0  0  0  0  0  0  0  0  0
   -0.6490    3.6958    0.0000 C   0  0  0  0  0  0  0  0  0  0  0  0
    0.6495    1.4450    0.0000 C   0  0  0  0  0  0  0  0  0  0  0  0
   -0.6495    2.1950    0.0000 C   0  0  0  0  0  0  0  0  0  0  0  0
  3  1  2  0
  4  1  1  0
  5  2  2  0
  6  2  1  0
  7  3  1  0
  8  4  2  0
  9  5  1  0
 10  6  2  0
 11  7  2  0
 11  8  1  0
 12  9  2  0
 12 10  1  0
 12 11  1  0
M  END
>  <NAME>  (2634) 
BIPHENYL

>  <SYNONYMS>  (2634) 
DIPHENYL

>  <SPECTRUM TYPE>  (2634) 
MS1

>  <INSTRUMENT TYPE>  (2634) 
EI-B

>  <INSTRUMENT>  (2634) 
HITACHI M-80B

>  <ION MODE>  (2634) 
P

>  <INCHIKEY>  (2634) 
ZUOUZKKEUPVFJK-UHFFFAOYSA-N

>  <FORMULA>  (2634) 
C12H10

>  <EXACT MASS>  (2634) 
154.07825032

>  <MW>  (2634) 
154

>  <ID>  (2634) 
JP008577

>  <CONTRIBUTOR>  (2634) 
University of Tokyo Team, {Faculty of Engineering, University of Tokyo

>  <COMMENT>  (2634) 
SMILES=c(c2)ccc(c2)c(c1)cccc1
InChI=InChI=1S/C12H10/c1-3-7-11(8-4-1)12-9-5-2-6-10-12/h1-10H
computed SMILES=C=1C=CC(=CC1)C=2C=CC=CC2
accession=JP008577
date=2016.01.19 (Created 2008.10.21, modified 2011.05.06)
author=SODA AROMATIC CO., LTD.
license=CC BY-NC-SA
exact mass=154.07825
ionization energy=70 eV
ion type=[M]+*
computed spectral entropy=2.5260443404668598
computed normalized entropy=0.7288623286114342
SPLASH=splash10-0udi-3900000000-b083707713188a3b56af
submitter=submitter = University of Tokyo Team (Faculty of Engineering, University of Tokyo)
MoNA Rating=3.75

>  <NUM PEAKS>  (2634) 
32

>  <MASS SPECTRAL PEAKS>  (2634) 
27 1.49
32 1.23
38 1.05
39 4.09
50 5.83
51 9.88
52 2
62 2.08
63 7.36
64 3.94
65 1.2
74 3.6
75 3.79
76 13.65
77 8.56
78 1.2
86 1.13
87 1.67
89 1.84
101 1.09
102 3.29
115 5.22
126 3.09
127 3.06
128 5
139 1.61
150 1.93
151 6.89
152 23.31
153 33.86
154 99.99
155 13.77

$$$$

     RDKit          2D

 10 11  0  0  0  0  0  0  0  0999 V2000
   -2.6000   -0.7500    0.0000 C   0  0  0  0  0  0  0  0  0  0  0  0
   -2.6000    0.7500    0.0000 C   0  0  0  0  0  0  0  0  0  0  0  0
    2.6000   -0.7500    0.0000 C   0  0  0  0  0  0  0  0  0  0  0  0
    2.6000    0.7500    0.0000 C   0  0  0  0  0  0  0  0  0  0  0  0
   -1.3000   -1.5000    0.0000 C   0  0  0  0  0  0  0  0  0  0  0  0
   -1.3000    1.5000    0.0000 C   0  0  0  0  0  0  0  0  0  0  0  0
    1.3000   -1.5000    0.0000 C   0  0  0  0  0  0  0  0  0  0  0  0
    1.3000    1.5000    0.0000 C   0  0  0  0  0  0  0  0  0  0  0  0
    0.0000   -0.7500    0.0000 C   0  0  0  0  0  0  0  0  0  0  0  0
    0.0000    0.7500    0.0000 C   0  0  0  0  0  0  0  0  0  0  0  0
  2  1  2  0
  4  3  1  0
  5  1  1  0
  6  2  1  0
  7  3  2  0
  8  4  2  0
  9  5  2  0
  9  7  1  0
 10  6  2  0
 10  8  1  0
 10  9  1  0
M  END
>  <NAME>  (2635) 
NAPHTHALENE

>  <SYNONYMS>  (2635) 


>  <SPECTRUM TYPE>  (2635) 
MS1

>  <INSTRUMENT TYPE>  (2635) 
EI-B

>  <INSTRUMENT>  (2635) 
HITACHI M-80B

>  <ION MODE>  (2635) 
P

>  <INCHIKEY>  (2635) 
UFWIBTONFRDIAS-UHFFFAOYSA-N

>  <FORMULA>  (2635) 
C10H8

>  <EXACT MASS>  (2635) 
128.062600256

>  <MW>  (2635) 
128

>  <ID>  (2635) 
JP008576

>  <CONTRIBUTOR>  (2635) 
University of Tokyo Team, {Faculty of Engineering, University of Tokyo

>  <COMMENT>  (2635) 
SMILES=c(c2)cc(c1)c(c2)ccc1
InChI=InChI=1S/C10H8/c1-2-6-10-8-4-3-7-9(10)5-1/h1-8H
computed SMILES=C=1C=CC=2C=CC=CC2C1
accession=JP008576
date=2016.01.19 (Created 2008.10.21, modified 2011.05.06)
author=SODA AROMATIC CO., LTD.
license=CC BY-NC-SA
exact mass=128.0626
ionization energy=70 eV
ion type=[M]+*
computed spectral entropy=2.183056372665681
computed normalized entropy=0.68691610941866
SPLASH=splash10-004i-4900000000-c780f74ca6838fbab7d8
submitter=submitter = University of Tokyo Team (Faculty of Engineering, University of Tokyo)
MoNA Rating=3.75

>  <NUM PEAKS>  (2635) 
24

>  <MASS SPECTRAL PEAKS>  (2635) 
27 1
38 1.23
39 3.31
50 5.48
51 10.75
52 1.44
61 1.37
62 2.8
63 7.52
64 5.06
74 4.98
75 5.23
76 3.41
77 3.62
78 2.88
86 1.17
87 1.88
98 1.53
101 2.74
102 10.61
126 5.64
127 11.82
128 99.99
129 12

$$$$

     RDKit          2D

 11 12  0  0  0  0  0  0  0  0999 V2000
   -2.7200   -1.0200    0.0000 C   0  0  0  0  0  0  0  0  0  0  0  0
   -2.7200    0.4800    0.0000 C   0  0  0  0  0  0  0  0  0  0  0  0
    2.4800   -1.0200    0.0000 C   0  0  0  0  0  0  0  0  0  0  0  0
   -1.4200   -1.7700    0.0000 C   0  0  0  0  0  0  0  0  0  0  0  0
    1.1800   -1.7700    0.0000 C   0  0  0  0  0  0  0  0  0  0  0  0
   -1.4200    1.2300    0.0000 C   0  0  0  0  0  0  0  0  0  0  0  0
    2.4800    0.4800    0.0000 C   0  0  0  0  0  0  0  0  0  0  0  0
   -0.1200   -1.0200    0.0000 C   0  0  0  0  0  0  0  0  0  0  0  0
   -0.1200    0.4800    0.0000 C   0  0  0  0  0  0  0  0  0  0  0  0
    1.1800    1.2300    0.0000 C   0  0  0  0  0  0  0  0  0  0  0  0
    1.1800    2.7300    0.0000 O   0  0  0  0  0  0  0  0  0  0  0  0
  2  1  2  0
  4  1  1  0
  5  3  2  0
  6  2  1  0
  7  3  1  0
  8  4  2  0
  8  5  1  0
  9  6  2  0
  9  8  1  0
 10  7  2  0
 10  9  1  0
 11 10  1  0
M  END
>  <NAME>  (2636) 
1-NAPHTHOL

>  <SYNONYMS>  (2636) 


>  <SPECTRUM TYPE>  (2636) 
MS1

>  <INSTRUMENT TYPE>  (2636) 
EI-B

>  <INSTRUMENT>  (2636) 
HITACHI M-80B

>  <ION MODE>  (2636) 
P

>  <INCHIKEY>  (2636) 
KJCVRFUGPWSIIH-UHFFFAOYSA-N

>  <FORMULA>  (2636) 
C10H8O

>  <EXACT MASS>  (2636) 
144.057514876

>  <MW>  (2636) 
144

>  <ID>  (2636) 
JP008575

>  <CONTRIBUTOR>  (2636) 
University of Tokyo Team, {Faculty of Engineering, University of Tokyo

>  <COMMENT>  (2636) 
SMILES=Oc(c1)c(c2)c(ccc2)cc1
InChI=InChI=1S/C10H8O/c11-10-7-3-5-8-4-1-2-6-9(8)10/h1-7,11H
computed SMILES=OC1=CC=CC=2C=CC=CC12
accession=JP008575
date=2016.01.19 (Created 2008.10.21, modified 2011.05.06)
author=SODA AROMATIC CO., LTD.
license=CC BY-NC-SA
exact mass=144.05751
ionization energy=70 eV
ion type=[M]+*
computed spectral entropy=2.5027924563195025
computed normalized entropy=0.6984175329621064
SPLASH=splash10-014l-3900000000-61210a72d0e1913d7c72
submitter=submitter = University of Tokyo Team (Faculty of Engineering, University of Tokyo)
MoNA Rating=3.75

>  <NUM PEAKS>  (2636) 
36

>  <MASS SPECTRAL PEAKS>  (2636) 
26 1.02
27 2.01
29 1.76
37 1
38 2.49
39 7.66
50 5.22
51 5.27
52 1.04
53 1.53
57 4.92
58 5.02
61 1.96
62 6.09
63 13.97
64 2.27
65 4.47
72 6.5
74 4.31
75 3.72
76 1.86
77 2.03
85 1.09
86 2.62
87 3.95
88 3.1
89 11.39
90 1.98
113 2.95
114 4.56
115 89.27
116 42.36
117 3.16
143 1.64
144 99.99
145 9.94

$$$$

     RDKit          2D

 13 15  0  0  0  0  0  0  0  0999 V2000
    3.6900    0.1600    0.0000 C   0  0  0  0  0  0  0  0  0  0  0  0
   -3.6800    0.1600    0.0000 C   0  0  0  0  0  0  0  0  0  0  0  0
    3.2200   -1.2700    0.0000 C   0  0  0  0  0  0  0  0  0  0  0  0
   -3.2200   -1.2700    0.0000 C   0  0  0  0  0  0  0  0  0  0  0  0
    2.6800    1.2700    0.0000 C   0  0  0  0  0  0  0  0  0  0  0  0
   -2.6800    1.2700    0.0000 C   0  0  0  0  0  0  0  0  0  0  0  0
    1.7500   -1.5800    0.0000 C   0  0  0  0  0  0  0  0  0  0  0  0
   -1.7500   -1.5800    0.0000 C   0  0  0  0  0  0  0  0  0  0  0  0
   -0.0000    1.8400    0.0000 C   0  0  0  0  0  0  0  0  0  0  0  0
    1.2100    0.9600    0.0000 C   0  0  0  0  0  0  0  0  0  0  0  0
   -1.2100    0.9600    0.0000 C   0  0  0  0  0  0  0  0  0  0  0  0
    0.7500   -0.4700    0.0000 C   0  0  0  0  0  0  0  0  0  0  0  0
   -0.7500   -0.4700    0.0000 C   0  0  0  0  0  0  0  0  0  0  0  0
  3  1  2  0
  4  2  2  0
  5  1  1  0
  6  2  1  0
  7  3  1  0
  8  4  1  0
 10  5  2  0
 10  9  1  0
 11  6  2  0
 11  9  1  0
 12  7  2  0
 12 10  1  0
 13  8  2  0
 13 11  1  0
 13 12  1  0
M  END
>  <NAME>  (2637) 
FLUORENE

>  <SYNONYMS>  (2637) 


>  <SPECTRUM TYPE>  (2637) 
MS1

>  <INSTRUMENT TYPE>  (2637) 
EI-B

>  <INSTRUMENT>  (2637) 
HITACHI M-80B

>  <ION MODE>  (2637) 
P

>  <INCHIKEY>  (2637) 
NIHNNTQXNPWCJQ-UHFFFAOYSA-N

>  <FORMULA>  (2637) 
C13H10

>  <EXACT MASS>  (2637) 
166.07825032

>  <MW>  (2637) 
166

>  <ID>  (2637) 
JP008574

>  <CONTRIBUTOR>  (2637) 
University of Tokyo Team, {Faculty of Engineering, University of Tokyo

>  <COMMENT>  (2637) 
SMILES=c(c3)cc(C1)c(c3)c(c2)c(ccc2)1
InChI=InChI=1S/C13H10/c1-3-7-12-10(5-1)9-11-6-2-4-8-13(11)12/h1-8H,9H2
computed SMILES=C=1C=CC2=C(C1)C=3C=CC=CC3C2
accession=JP008574
date=2016.01.19 (Created 2008.10.21, modified 2011.05.06)
author=SODA AROMATIC CO., LTD.
license=CC BY-NC-SA
exact mass=166.07825
ionization energy=70 eV
ion type=[M]+*
computed spectral entropy=2.7282686377532874
computed normalized entropy=0.7209650946927726
SPLASH=splash10-014i-4900000000-aff7675602d75a9d711e
submitter=submitter = University of Tokyo Team (Faculty of Engineering, University of Tokyo)
MoNA Rating=3.75

>  <NUM PEAKS>  (2637) 
44

>  <MASS SPECTRAL PEAKS>  (2637) 
17 1.06
27 2.17
38 2.61
39 7.65
41 1.05
50 6.05
51 5.27
52 1.2
61 1.57
62 6.39
63 12.25
64 1.34
65 1.44
69 1.13
70 7.52
74 5.97
75 4.24
76 1.53
77 1.23
81 2.67
82 7.87
83 11.44
85 1.07
86 4.7
87 6.43
88 1.93
89 4.47
98 2.32
99 1.17
110 1.9
111 1.88
113 3.29
115 6.46
126 1.35
137 1.91
138 1.1
139 12.26
140 1.28
162 1.83
163 14.01
164 10.29
165 89.2
166 99.99
167 11.74

$$$$

     RDKit          2D

 10 10  0  0  0  0  0  0  0  0999 V2000
    6.1262    0.5406    0.0000 C   0  0  0  0  0  0  0  0  0  0  0  0
    6.1262   -0.9594    0.0000 C   0  0  0  0  0  0  0  0  0  0  0  0
    4.8262    1.2906    0.0000 C   0  0  0  0  0  0  0  0  0  0  0  0
    4.8262   -1.7094    0.0000 C   0  0  0  0  0  0  0  0  0  0  0  0
    3.5262    0.5406    0.0000 C   0  0  0  0  0  0  0  0  0  0  0  0
   -0.3708   -1.7100    0.0000 C   0  0  0  0  0  0  0  0  0  0  0  0
    0.9281   -0.9598    0.0000 C   0  0  0  0  0  0  0  0  0  0  0  0
    3.5262   -0.9594    0.0000 C   0  0  0  0  0  0  0  0  0  0  0  0
   -1.6700   -0.9602    0.0000 O   0  0  0  0  0  0  0  0  0  0  0  0
    2.2272   -1.7096    0.0000 O   0  0  0  0  0  0  0  0  0  0  0  0
  2  1  2  0
  3  1  1  0
  4  2  1  0
  5  3  2  0
  7  6  1  0
  8  4  2  0
  8  5  1  0
  9  6  1  0
 10  7  1  0
 10  8  1  0
M  END
>  <NAME>  (2638) 
2-PHENOXYETHANOL

>  <SYNONYMS>  (2638) 


>  <SPECTRUM TYPE>  (2638) 
MS1

>  <INSTRUMENT TYPE>  (2638) 
EI-B

>  <INSTRUMENT>  (2638) 
HITACHI M-80B

>  <ION MODE>  (2638) 
P

>  <INCHIKEY>  (2638) 
QCDWFXQBSFUVSP-UHFFFAOYSA-N

>  <FORMULA>  (2638) 
C8H10O2

>  <EXACT MASS>  (2638) 
138.06807956

>  <MW>  (2638) 
138

>  <ID>  (2638) 
JP008573

>  <CONTRIBUTOR>  (2638) 
University of Tokyo Team, {Faculty of Engineering, University of Tokyo

>  <COMMENT>  (2638) 
SMILES=OCCOc(c1)cccc1
InChI=InChI=1S/C8H10O2/c9-6-7-10-8-4-2-1-3-5-8/h1-5,9H,6-7H2
computed SMILES=OCCOC=1C=CC=CC1
accession=JP008573
date=2016.01.19 (Created 2008.10.21, modified 2011.05.06)
author=SODA AROMATIC CO., LTD.
license=CC BY-NC-SA
exact mass=138.06808
ionization energy=70 eV
ion type=[M]+*
computed spectral entropy=2.842240720336528
computed normalized entropy=0.781353511788795
SPLASH=splash10-0006-9100000000-ab2d6abdcb42c8020070
submitter=submitter = University of Tokyo Team (Faculty of Engineering, University of Tokyo)
MoNA Rating=3.75

>  <NUM PEAKS>  (2638) 
38

>  <MASS SPECTRAL PEAKS>  (2638) 
14 1.26
15 2.61
16 1.28
17 4.55
18 24.65
19 1.46
27 5.77
29 7.73
31 6.24
32 5.28
38 3.71
39 12.3
41 1.22
42 1.52
43 5.57
44 2.67
45 10.93
50 4.77
51 14.76
52 1.59
55 2.3
63 4.48
64 1.5
65 10.1
66 13.84
74 1.66
77 36.61
78 4.33
79 4.65
91 1.61
93 1.62
94 99.99
95 11.75
107 8.39
108 1.06
136 1.14
138 24.05
139 2.56

$$$$

     RDKit          2D

 11 11  0  0  0  0  0  0  0  0999 V2000
   -5.5207    3.1321    0.0000 C   0  0  0  0  0  0  0  0  0  0  0  0
   -4.2216    2.3821    0.0000 C   0  0  0  0  0  0  0  0  0  0  0  0
   -2.9226    3.1321    0.0000 C   0  0  0  0  0  0  0  0  0  0  0  0
    3.5726    0.8821    0.0000 C   0  0  0  0  0  0  0  0  0  0  0  0
   -1.6236    2.3821    0.0000 C   0  0  0  0  0  0  0  0  0  0  0  0
    3.5731    2.3829    0.0000 C   0  0  0  0  0  0  0  0  0  0  0  0
    2.2731    0.1313    0.0000 C   0  0  0  0  0  0  0  0  0  0  0  0
   -0.3245    3.1321    0.0000 C   0  0  0  0  0  0  0  0  0  0  0  0
    2.2740    3.1329    0.0000 C   0  0  0  0  0  0  0  0  0  0  0  0
    0.9740    0.8813    0.0000 C   0  0  0  0  0  0  0  0  0  0  0  0
    0.9745    2.3821    0.0000 C   0  0  0  0  0  0  0  0  0  0  0  0
  2  1  1  0
  3  2  1  0
  5  3  1  0
  6  4  2  0
  7  4  1  0
  8  5  1  0
  9  6  1  0
 10  7  2  0
 11  8  1  0
 11  9  2  0
 11 10  1  0
M  END
>  <NAME>  (2639) 
PENTYL BENZENE

>  <SYNONYMS>  (2639) 


>  <SPECTRUM TYPE>  (2639) 
MS1

>  <INSTRUMENT TYPE>  (2639) 
EI-B

>  <INSTRUMENT>  (2639) 
HITACHI M-80B

>  <ION MODE>  (2639) 
P

>  <INCHIKEY>  (2639) 
PWATWSYOIIXYMA-UHFFFAOYSA-N

>  <FORMULA>  (2639) 
C11H16

>  <EXACT MASS>  (2639) 
148.125200512

>  <MW>  (2639) 
148

>  <ID>  (2639) 
JP008572

>  <CONTRIBUTOR>  (2639) 
University of Tokyo Team, {Faculty of Engineering, University of Tokyo

>  <COMMENT>  (2639) 
SMILES=CCCCCc(c1)cccc1
InChI=InChI=1S/C11H16/c1-2-3-5-8-11-9-6-4-7-10-11/h4,6-7,9-10H,2-3,5,8H2,1H3
computed SMILES=C=1C=CC(=CC1)CCCCC
accession=JP008572
date=2016.01.19 (Created 2008.10.21, modified 2011.05.06)
author=SODA AROMATIC CO., LTD.
license=CC BY-NC-SA
exact mass=148.1252
ionization energy=70 eV
ion type=[M]+*
computed spectral entropy=2.291648281732716
computed normalized entropy=0.680560425171174
SPLASH=splash10-0006-9100000000-2d0366b3b374b5ee38c0
submitter=submitter = University of Tokyo Team (Faculty of Engineering, University of Tokyo)
MoNA Rating=3.75

>  <NUM PEAKS>  (2639) 
29

>  <MASS SPECTRAL PEAKS>  (2639) 
27 5.65
29 6.77
39 7.3
41 8.33
43 1.09
50 1.52
51 4.29
52 1.34
57 2.54
63 2.45
65 12.89
77 5.39
78 5.75
79 2.62
89 2.13
90 1.26
91 99.99
92 66.52
93 4.25
103 2.4
104 1.8
105 8.06
106 1.66
115 1.47
117 1.14
119 1.43
133 1.49
148 23.23
149 2.29

$$$$

     RDKit          2D

  6  5  0  0  0  0  0  0  0  0999 V2000
   -0.0000   -0.0000    0.0000 C   0  0  0  0  0  0  0  0  0  0  0  0
    1.2990    2.2500    0.0000 C   0  0  0  0  0  0  0  0  0  0  0  0
   -2.5981    1.5000    0.0000 C   0  0  0  0  0  0  0  0  0  0  0  0
   -1.2990    3.7500    0.0000 C   0  0  0  0  0  0  0  0  0  0  0  0
   -0.0000    1.5000    0.0000 C   0  0  0  0  0  0  0  0  0  0  0  0
   -1.2990    2.2500    0.0000 C   0  0  0  0  0  0  0  0  0  0  0  0
  5  1  2  0
  5  2  1  0
  6  3  2  0
  6  4  1  0
  6  5  1  0
M  END
>  <NAME>  (2640) 
2,3-DIMETHYL-1,3-BUTADIENE

>  <SYNONYMS>  (2640) 


>  <SPECTRUM TYPE>  (2640) 
MS1

>  <INSTRUMENT TYPE>  (2640) 
EI-B

>  <INSTRUMENT>  (2640) 
HITACHI M-80B

>  <ION MODE>  (2640) 
P

>  <INCHIKEY>  (2640) 
SDJHPPZKZZWAKF-UHFFFAOYSA-N

>  <FORMULA>  (2640) 
C6H10

>  <EXACT MASS>  (2640) 
82.07825032

>  <MW>  (2640) 
82

>  <ID>  (2640) 
JP008571

>  <CONTRIBUTOR>  (2640) 
University of Tokyo Team, {Faculty of Engineering, University of Tokyo

>  <COMMENT>  (2640) 
SMILES=CC(=C)C(C)=C
InChI=InChI=1S/C6H10/c1-5(2)6(3)4/h1,3H2,2,4H3
computed SMILES=C=C(C(=C)C)C
accession=JP008571
date=2016.01.19 (Created 2008.10.21, modified 2011.05.06)
author=SODA AROMATIC CO., LTD.
license=CC BY-NC-SA
exact mass=82.07825
ionization energy=70 eV
ion type=[M]+*
computed spectral entropy=2.676230317126711
computed normalized entropy=0.7793361354495656
SPLASH=splash10-014u-9000000000-0da5b0a1646eced62e3e
submitter=submitter = University of Tokyo Team (Faculty of Engineering, University of Tokyo)
MoNA Rating=3.75

>  <NUM PEAKS>  (2640) 
31

>  <MASS SPECTRAL PEAKS>  (2640) 
15 4.59
26 2.91
27 23.3
28 2.09
29 3.77
37 3.76
38 11.58
39 89.82
40 17.55
41 71.71
42 12.88
43 3.4
50 6.25
51 10.48
52 4.57
53 19.86
54 30.13
55 5.06
56 1.83
61 1.16
62 1.93
63 3.56
65 13.69
66 3.77
67 99.99
68 4.66
77 2.25
79 5.26
81 10.96
82 54.34
83 3.11

$$$$

     RDKit          2D

  6  5  0  0  0  0  0  0  0  0999 V2000
   -0.0000    1.5000    0.0000 C   0  0  0  0  0  0  0  0  0  0  0  0
   -1.2990    2.2500    0.0000 C   0  0  0  0  0  0  0  0  0  0  0  0
   -0.0000   -0.0000    0.0000 Cl  0  0  0  0  0  0  0  0  0  0  0  0
    1.2990    2.2500    0.0000 Cl  0  0  0  0  0  0  0  0  0  0  0  0
   -1.2990    3.7500    0.0000 Cl  0  0  0  0  0  0  0  0  0  0  0  0
   -2.5981    1.5000    0.0000 Cl  0  0  0  0  0  0  0  0  0  0  0  0
  2  1  1  0
  3  1  1  0
  4  1  1  0
  5  2  1  0
  6  2  1  0
M  END
>  <NAME>  (2641) 
1,1,2,2-TETRACHLOROETHANE

>  <SYNONYMS>  (2641) 


>  <SPECTRUM TYPE>  (2641) 
MS1

>  <INSTRUMENT TYPE>  (2641) 
EI-B

>  <INSTRUMENT>  (2641) 
HITACHI M-80B

>  <ION MODE>  (2641) 
P

>  <INCHIKEY>  (2641) 
QPFMBZIOSGYJDE-UHFFFAOYSA-N

>  <FORMULA>  (2641) 
C2H2Cl4

>  <EXACT MASS>  (2641) 
165.891060784

>  <MW>  (2641) 
166

>  <ID>  (2641) 
JP008570

>  <CONTRIBUTOR>  (2641) 
University of Tokyo Team, {Faculty of Engineering, University of Tokyo

>  <COMMENT>  (2641) 
SMILES=ClC(Cl)C(Cl)Cl
InChI=InChI=1S/C2H2Cl4/c3-1(4)2(5)6/h1-2H
computed SMILES=ClC(Cl)C(Cl)Cl
accession=JP008570
date=2016.01.19 (Created 2008.10.21, modified 2011.05.06)
author=SODA AROMATIC CO., LTD.
license=CC BY-NC-SA
exact mass=165.89106
ionization energy=70 eV
ion type=[M]+*
computed spectral entropy=2.6035960950363988
computed normalized entropy=0.7446276174916714
SPLASH=splash10-001r-9100000000-b52fc89aeb135702ad1c
submitter=submitter = University of Tokyo Team (Faculty of Engineering, University of Tokyo)
MoNA Rating=3.75

>  <NUM PEAKS>  (2641) 
33

>  <MASS SPECTRAL PEAKS>  (2641) 
25 2.79
26 7.88
35 7.3
36 1.02
37 2.15
47 3.74
48 3.28
49 1.61
50 1
59 1.17
60 10.61
61 10.73
62 3.33
63 2.75
83 99.99
84 1.86
85 63.88
86 1.01
87 10.4
94 1.28
95 14.6
96 10.31
97 9.64
98 5.92
99 1.39
130 2.04
131 9.86
132 2.23
133 9.54
135 2.49
166 7.69
168 10.38
170 3.89

$$$$

     RDKit          2D

  6  5  0  0  0  0  0  0  0  0999 V2000
    1.2990    2.2500    0.0000 C   0  0  0  0  0  0  0  0  0  0  0  0
   -3.8971    2.2500    0.0000 C   0  0  0  0  0  0  0  0  0  0  0  0
   -2.5981    4.5000    0.0000 C   0  0  0  0  0  0  0  0  0  0  0  0
    0.0000    3.0000    0.0000 C   0  0  0  0  0  0  0  0  0  0  0  0
   -1.2990    2.2500    0.0000 C   0  0  0  0  0  0  0  0  0  0  0  0
   -2.5981    3.0000    0.0000 C   0  0  0  0  0  0  0  0  0  0  0  0
  4  1  1  0
  5  4  1  0
  6  2  1  0
  6  3  1  0
  6  5  1  0
M  END
>  <NAME>  (2642) 
2-METHYLPENTANE

>  <SYNONYMS>  (2642) 
ISOHEXANE

>  <SPECTRUM TYPE>  (2642) 
MS1

>  <INSTRUMENT TYPE>  (2642) 
EI-B

>  <INSTRUMENT>  (2642) 
HITACHI M-80B

>  <ION MODE>  (2642) 
P

>  <INCHIKEY>  (2642) 
AFABGHUZZDYHJO-UHFFFAOYSA-N

>  <FORMULA>  (2642) 
C6H14

>  <EXACT MASS>  (2642) 
86.109550448

>  <MW>  (2642) 
86

>  <ID>  (2642) 
JP008569

>  <CONTRIBUTOR>  (2642) 
University of Tokyo Team, {Faculty of Engineering, University of Tokyo

>  <COMMENT>  (2642) 
SMILES=CCCC(C)C
InChI=InChI=1S/C6H14/c1-4-5-6(2)3/h6H,4-5H2,1-3H3
computed SMILES=CCCC(C)C
accession=JP008569
date=2016.01.19 (Created 2008.10.21, modified 2011.05.06)
author=SODA AROMATIC CO., LTD.
license=CC BY-NC-SA
exact mass=86.10955
ionization energy=70 eV
ion type=[M]+*
computed spectral entropy=2.265785118341482
computed normalized entropy=0.7563376535158347
SPLASH=splash10-0006-9000000000-b52721b6aaea54e0c25b
submitter=submitter = University of Tokyo Team (Faculty of Engineering, University of Tokyo)
MoNA Rating=3.75

>  <NUM PEAKS>  (2642) 
20

>  <MASS SPECTRAL PEAKS>  (2642) 
15 1.21
27 16.72
28 1.4
29 11.75
38 1.05
39 16
40 2.6
41 34.02
42 53.4
43 99.99
44 3.41
53 1.64
55 7.64
56 6.12
57 14.36
70 11.01
71 44.23
72 2.45
85 1.12
86 5.82

$$$$

     RDKit          2D

  7  6  0  0  0  0  0  0  0  0999 V2000
    1.9486    3.3750    0.0000 C   0  0  0  0  0  0  0  0  0  0  0  0
   -5.8457    3.3750    0.0000 C   0  0  0  0  0  0  0  0  0  0  0  0
    0.6495    4.1250    0.0000 C   0  0  0  0  0  0  0  0  0  0  0  0
   -4.5466    4.1250    0.0000 C   0  0  0  0  0  0  0  0  0  0  0  0
   -0.6495    3.3750    0.0000 C   0  0  0  0  0  0  0  0  0  0  0  0
   -3.2476    3.3750    0.0000 C   0  0  0  0  0  0  0  0  0  0  0  0
   -1.9486    4.1250    0.0000 C   0  0  0  0  0  0  0  0  0  0  0  0
  3  1  1  0
  4  2  1  0
  5  3  1  0
  6  4  1  0
  7  5  1  0
  7  6  1  0
M  END
>  <NAME>  (2643) 
HEPTANE

>  <SYNONYMS>  (2643) 


>  <SPECTRUM TYPE>  (2643) 
MS1

>  <INSTRUMENT TYPE>  (2643) 
EI-B

>  <INSTRUMENT>  (2643) 
HITACHI M-80B

>  <ION MODE>  (2643) 
P

>  <INCHIKEY>  (2643) 
IMNFDUFMRHMDMM-UHFFFAOYSA-N

>  <FORMULA>  (2643) 
C7H16

>  <EXACT MASS>  (2643) 
100.12520051199999

>  <MW>  (2643) 
100

>  <ID>  (2643) 
JP008568

>  <CONTRIBUTOR>  (2643) 
University of Tokyo Team, {Faculty of Engineering, University of Tokyo

>  <COMMENT>  (2643) 
SMILES=CCCCCCC
InChI=InChI=1S/C7H16/c1-3-5-7-6-4-2/h3-7H2,1-2H3
computed SMILES=CCCCCCC
accession=JP008568
date=2016.01.19 (Created 2008.10.21, modified 2011.05.06)
author=SODA AROMATIC CO., LTD.
license=CC BY-NC-SA
exact mass=100.1252
ionization energy=70 eV
ion type=[M]+*
computed spectral entropy=2.49652683770373
computed normalized entropy=0.8076650111975446
SPLASH=splash10-0006-9000000000-701ce932ab165d8e8bb5
submitter=submitter = University of Tokyo Team (Faculty of Engineering, University of Tokyo)
MoNA Rating=3.75

>  <NUM PEAKS>  (2643) 
22

>  <MASS SPECTRAL PEAKS>  (2643) 
15 1.59
26 1.66
27 33.02
28 13.17
29 44.16
39 20.54
40 2.37
41 55.47
42 23.79
43 99.99
44 2.69
51 1.51
53 2.19
55 9.05
56 24.67
57 46.32
58 1.75
70 17.72
71 38.96
72 1.91
85 1.25
100 9.03

$$$$

     RDKit          2D

 10 10  0  0  0  0  0  0  0  0999 V2000
    1.9487    3.0002    0.0000 C   0  0  0  0  0  0  0  0  0  0  0  0
   -1.9500    0.7500    0.0000 C   0  0  0  0  0  0  0  0  0  0  0  0
   -1.9500   -0.7500    0.0000 C   0  0  0  0  0  0  0  0  0  0  0  0
   -0.6500    1.5000    0.0000 C   0  0  0  0  0  0  0  0  0  0  0  0
   -0.6500   -1.5000    0.0000 C   0  0  0  0  0  0  0  0  0  0  0  0
    1.9489    1.5002    0.0000 C   0  0  0  0  0  0  0  0  0  0  0  0
    0.6500    0.7500    0.0000 C   0  0  0  0  0  0  0  0  0  0  0  0
    0.6500   -0.7500    0.0000 C   0  0  0  0  0  0  0  0  0  0  0  0
    3.2481    0.7504    0.0000 O   0  0  0  0  0  0  0  0  0  0  0  0
    1.9489   -1.5002    0.0000 O   0  0  0  0  0  0  0  0  0  0  0  0
  3  2  2  0
  4  2  1  0
  5  3  1  0
  6  1  1  0
  7  4  2  0
  7  6  1  0
  8  5  2  0
  8  7  1  0
  9  6  2  0
 10  8  1  0
M  END
>  <NAME>  (2644) 
ORTHO-HYDROXYACETOPHENONE

>  <SYNONYMS>  (2644) 


>  <SPECTRUM TYPE>  (2644) 
MS1

>  <INSTRUMENT TYPE>  (2644) 
EI-B

>  <INSTRUMENT>  (2644) 
HITACHI M-80B

>  <ION MODE>  (2644) 
P

>  <INCHIKEY>  (2644) 
JECYUBVRTQDVAT-UHFFFAOYSA-N

>  <FORMULA>  (2644) 
C8H8O2

>  <EXACT MASS>  (2644) 
136.052429496

>  <MW>  (2644) 
136

>  <ID>  (2644) 
JP008567

>  <CONTRIBUTOR>  (2644) 
University of Tokyo Team, {Faculty of Engineering, University of Tokyo

>  <COMMENT>  (2644) 
SMILES=CC(=O)c(c1)c(O)ccc1
InChI=InChI=1S/C8H8O2/c1-6(9)7-4-2-3-5-8(7)10/h2-5,10H,1H3
computed SMILES=O=C(C=1C=CC=CC1O)C
accession=JP008567
date=2016.01.19 (Created 2008.10.21, modified 2011.05.06)
author=SODA AROMATIC CO., LTD.
license=CC BY-NC-SA
exact mass=136.05243
ionization energy=70 eV
ion type=[M]+*
computed spectral entropy=2.4552958417755812
computed normalized entropy=0.7218916064717436
SPLASH=splash10-00dr-7900000000-46e56b157939e4c29b8b
submitter=submitter = University of Tokyo Team (Faculty of Engineering, University of Tokyo)
MoNA Rating=3.75

>  <NUM PEAKS>  (2644) 
30

>  <MASS SPECTRAL PEAKS>  (2644) 
15 2.59
27 2.03
29 1.37
37 1.61
38 4.58
39 19.01
40 1.16
42 1.44
43 17.07
50 4.02
51 4.92
52 1.23
53 5.44
61 1.39
62 3.46
63 8.23
64 4.2
65 25.19
66 2.98
74 1.29
77 3.65
89 1.17
90 1.3
92 2.39
93 19.04
94 2.19
121 99.99
122 7.52
136 48.98
137 4.45

$$$$

     RDKit          2D

  9  9  0  0  0  0  0  0  0  0999 V2000
   -2.7872    0.5824    0.0000 C   0  0  0  0  0  0  0  0  0  0  0  0
   -1.3100    0.3221    0.0000 C   0  0  0  0  0  0  0  0  0  0  0  0
    2.7653    1.5618    0.0000 C   0  0  0  0  0  0  0  0  0  0  0  0
    2.7658    0.0609    0.0000 C   0  0  0  0  0  0  0  0  0  0  0  0
    1.4658    2.3126    0.0000 C   0  0  0  0  0  0  0  0  0  0  0  0
    1.4668   -0.6891    0.0000 C   0  0  0  0  0  0  0  0  0  0  0  0
    0.1668    1.5626    0.0000 C   0  0  0  0  0  0  0  0  0  0  0  0
    0.1673    0.0618    0.0000 C   0  0  0  0  0  0  0  0  0  0  0  0
   -0.3459   -1.3477    0.0000 O   0  0  0  0  0  0  0  0  0  0  0  0
  2  1  3  0
  4  3  1  0
  5  3  1  0
  6  4  1  0
  7  5  1  0
  8  2  1  0
  8  6  1  0
  8  7  1  0
  9  8  1  0
M  END
>  <NAME>  (2645) 
1-ETHYNYLCYCLOHEXANOL

>  <SYNONYMS>  (2645) 


>  <SPECTRUM TYPE>  (2645) 
MS1

>  <INSTRUMENT TYPE>  (2645) 
EI-B

>  <INSTRUMENT>  (2645) 
HITACHI M-80B

>  <ION MODE>  (2645) 
P

>  <INCHIKEY>  (2645) 
QYLFHLNFIHBCPR-UHFFFAOYSA-N

>  <FORMULA>  (2645) 
C8H12O

>  <EXACT MASS>  (2645) 
124.088815004

>  <MW>  (2645) 
124

>  <ID>  (2645) 
JP008566

>  <CONTRIBUTOR>  (2645) 
University of Tokyo Team, {Faculty of Engineering, University of Tokyo

>  <COMMENT>  (2645) 
SMILES=C#CC(O)(C1)CCCC1
InChI=InChI=1S/C8H12O/c1-2-8(9)6-4-3-5-7-8/h1,9H,3-7H2
computed SMILES=C#CC1(O)CCCCC1
accession=JP008566
date=2016.01.19 (Created 2008.10.21, modified 2011.05.06)
author=SODA AROMATIC CO., LTD.
license=CC BY-NC-SA
exact mass=124.08882
ionization energy=70 eV
ion type=[M]+*
computed spectral entropy=3.1581233373612525
computed normalized entropy=0.8157993678092669
SPLASH=splash10-00l2-9000000000-bf0c06da1e3bfab1c0ae
submitter=submitter = University of Tokyo Team (Faculty of Engineering, University of Tokyo)
MoNA Rating=3.75

>  <NUM PEAKS>  (2645) 
48

>  <MASS SPECTRAL PEAKS>  (2645) 
15 2.12
26 3.88
27 28.27
28 9.67
29 11.58
31 2.19
32 1.61
37 1.18
38 3.64
39 44.97
40 12.38
41 29.07
42 7.92
43 10.79
50 5.6
51 12.17
52 3.63
53 40.38
54 7.01
55 26.09
56 3.54
57 2.31
62 1.79
63 3.64
64 1.75
65 4.81
66 4.25
67 20.34
68 82.09
69 10.52
70 2.7
77 6.21
78 3.73
79 5.22
80 2.54
81 99.99
82 15.31
83 4.31
91 6.1
93 1.56
94 1.16
95 68.93
96 35.95
97 4.01
105 1.51
109 21.94
110 1.78
123 7.67

$$$$

     RDKit          2D

  8  8  0  0  0  0  0  0  0  0999 V2000
   -0.6520   -2.2491    0.0000 C   0  0  0  0  0  0  0  0  0  0  0  0
   -1.9467    1.4939    0.0000 C   0  0  0  0  0  0  0  0  0  0  0  0
   -1.9512    0.0017    0.0000 C   0  0  0  0  0  0  0  0  0  0  0  0
   -0.6477    2.2439    0.0000 C   0  0  0  0  0  0  0  0  0  0  0  0
    0.6473    0.0009    0.0000 C   0  0  0  0  0  0  0  0  0  0  0  0
   -0.6517   -0.7491    0.0000 C   0  0  0  0  0  0  0  0  0  0  0  0
    0.6468    1.5017    0.0000 C   0  0  0  0  0  0  0  0  0  0  0  0
    1.9446    2.2539    0.0000 O   0  0  0  0  0  0  0  0  0  0  0  0
  3  2  1  0
  4  2  1  0
  6  1  1  0
  6  3  1  0
  6  5  2  0
  7  4  1  0
  7  5  1  0
  8  7  2  0
M  END
>  <NAME>  (2646) 
3-METHYL-2-CYCLOHEXEN-1-ONE

>  <SYNONYMS>  (2646) 


>  <SPECTRUM TYPE>  (2646) 
MS1

>  <INSTRUMENT TYPE>  (2646) 
EI-B

>  <INSTRUMENT>  (2646) 
HITACHI M-80B

>  <ION MODE>  (2646) 
P

>  <INCHIKEY>  (2646) 
IITQJMYAYSNIMI-UHFFFAOYSA-N

>  <FORMULA>  (2646) 
C7H10O

>  <EXACT MASS>  (2646) 
110.07316494

>  <MW>  (2646) 
110

>  <ID>  (2646) 
JP008565

>  <CONTRIBUTOR>  (2646) 
University of Tokyo Team, {Faculty of Engineering, University of Tokyo

>  <COMMENT>  (2646) 
SMILES=CC(C1)=CC(=O)CC1
InChI=InChI=1S/C7H10O/c1-6-3-2-4-7(8)5-6/h5H,2-4H2,1H3
computed SMILES=O=C1C=C(C)CCC1
accession=JP008565
date=2016.01.19 (Created 2008.10.21, modified 2011.05.06)
author=SODA AROMATIC CO., LTD.
license=CC BY-NC-SA
exact mass=110.07316
ionization energy=70 eV
ion type=[M]+*
computed spectral entropy=2.361979542427686
computed normalized entropy=0.7088339071672092
SPLASH=splash10-001i-9100000000-1f14f50705992aa13677
submitter=submitter = University of Tokyo Team (Faculty of Engineering, University of Tokyo)
MoNA Rating=3.75

>  <NUM PEAKS>  (2646) 
28

>  <MASS SPECTRAL PEAKS>  (2646) 
15 1.16
26 1.75
27 11.21
28 3.13
29 1.37
37 1.14
38 3.88
39 32.16
40 3.92
41 7.96
42 4.87
50 3.19
51 4.43
52 2.55
53 9.29
54 26.99
55 2.73
63 1.08
65 1.77
66 1.23
67 8.09
77 1.39
79 1.61
81 1.09
82 99.99
83 5.56
110 35.33
111 2.29

$$$$

     RDKit          2D

 18 17  0  0  0  0  0  0  0  0999 V2000
  -15.5885    9.0000    0.0000 C   0  0  0  0  0  0  0  0  0  0  0  0
    5.1962    9.0000    0.0000 C   0  0  0  0  0  0  0  0  0  0  0  0
  -14.2894    8.2500    0.0000 C   0  0  0  0  0  0  0  0  0  0  0  0
    3.8971    8.2500    0.0000 C   0  0  0  0  0  0  0  0  0  0  0  0
  -12.9904    9.0000    0.0000 C   0  0  0  0  0  0  0  0  0  0  0  0
  -11.6913    8.2500    0.0000 C   0  0  0  0  0  0  0  0  0  0  0  0
  -10.3923    9.0000    0.0000 C   0  0  0  0  0  0  0  0  0  0  0  0
   -9.0933    8.2500    0.0000 C   0  0  0  0  0  0  0  0  0  0  0  0
   -7.7942    9.0000    0.0000 C   0  0  0  0  0  0  0  0  0  0  0  0
   -6.4952    8.2500    0.0000 C   0  0  0  0  0  0  0  0  0  0  0  0
   -5.1962    9.0000    0.0000 C   0  0  0  0  0  0  0  0  0  0  0  0
   -3.8971    8.2500    0.0000 C   0  0  0  0  0  0  0  0  0  0  0  0
   -2.5981    9.0000    0.0000 C   0  0  0  0  0  0  0  0  0  0  0  0
    2.5981    9.0000    0.0000 C   0  0  0  0  0  0  0  0  0  0  0  0
   -1.2990    8.2500    0.0000 C   0  0  0  0  0  0  0  0  0  0  0  0
    1.2990    8.2500    0.0000 C   0  0  0  0  0  0  0  0  0  0  0  0
    1.2990    6.7500    0.0000 O   0  0  0  0  0  0  0  0  0  0  0  0
    0.0000    9.0000    0.0000 O   0  0  0  0  0  0  0  0  0  0  0  0
  3  1  1  0
  4  2  1  0
  5  3  1  0
  6  5  1  0
  7  6  1  0
  8  7  1  0
  9  8  1  0
 10  9  1  0
 11 10  1  0
 12 11  1  0
 13 12  1  0
 14  4  1  0
 15 13  1  0
 16 14  1  0
 17 16  2  0
 18 15  1  0
 18 16  1  0
M  END
>  <NAME>  (2647) 
DODECYL BUTYRATE

>  <SYNONYMS>  (2647) 
BUTYRIC ACID DODECYL ESTER

>  <SPECTRUM TYPE>  (2647) 
MS1

>  <INSTRUMENT TYPE>  (2647) 
EI-B

>  <INSTRUMENT>  (2647) 
HITACHI M-80B

>  <ION MODE>  (2647) 
P

>  <INCHIKEY>  (2647) 
JEPXJYKYHMEESP-UHFFFAOYSA-N

>  <FORMULA>  (2647) 
C16H32O2

>  <EXACT MASS>  (2647) 
256.240230264

>  <MW>  (2647) 
256

>  <ID>  (2647) 
JP008564

>  <CONTRIBUTOR>  (2647) 
University of Tokyo Team, {Faculty of Engineering, University of Tokyo

>  <COMMENT>  (2647) 
SMILES=CCCCCCCCCCCCOC(=O)CCC
InChI=InChI=1S/C16H32O2/c1-3-5-6-7-8-9-10-11-12-13-15-18-16(17)14-4-2/h3-15H2,1-2H3
computed SMILES=O=C(OCCCCCCCCCCCC)CCC
accession=JP008564
date=2016.01.19 (Created 2008.10.21, modified 2011.05.06)
author=SODA AROMATIC CO., LTD.
license=CC BY-NC-SA
exact mass=256.24023
ionization energy=70 eV
ion type=[M]+*
computed spectral entropy=3.2056101676139135
computed normalized entropy=0.8112914302246051
SPLASH=splash10-059f-9000000000-c02c4e78a0b037a0f45b
submitter=submitter = University of Tokyo Team (Faculty of Engineering, University of Tokyo)
MoNA Rating=3.75

>  <NUM PEAKS>  (2647) 
52

>  <MASS SPECTRAL PEAKS>  (2647) 
27 13.29
28 1.63
29 22.81
39 6.27
40 1.33
41 52.04
42 17.07
43 99.99
44 3.01
45 1.17
53 2.31
54 5.15
55 44.73
56 33.25
57 38.28
58 1.83
60 3.04
61 1.93
67 5.15
68 10.93
69 34.77
70 31.76
71 81.95
72 3.67
73 2.36
81 2.27
82 13.35
83 31.86
84 21.2
85 9.68
86 1.44
88 6.69
89 95.04
90 3.31
95 1.08
96 4.52
97 25.12
98 13.12
99 2.19
101 1.64
110 1.85
111 14.06
112 6.1
125 5
126 3.58
139 1.61
140 7.63
141 1
144 3.22
168 12.89
169 1.59
213 1.52

$$$$

     RDKit          2D

 11 10  0  0  0  0  0  0  0  0999 V2000
    2.5981    4.5000    0.0000 C   0  0  0  0  0  0  0  0  0  0  0  0
   -7.7942    4.5000    0.0000 C   0  0  0  0  0  0  0  0  0  0  0  0
   -1.2990    6.7500    0.0000 C   0  0  0  0  0  0  0  0  0  0  0  0
    1.2990    5.2500    0.0000 C   0  0  0  0  0  0  0  0  0  0  0  0
   -6.4952    5.2500    0.0000 C   0  0  0  0  0  0  0  0  0  0  0  0
    0.0000    4.5000    0.0000 C   0  0  0  0  0  0  0  0  0  0  0  0
   -5.1962    4.5000    0.0000 C   0  0  0  0  0  0  0  0  0  0  0  0
   -1.2990    5.2500    0.0000 C   0  0  0  0  0  0  0  0  0  0  0  0
   -3.8971    5.2500    0.0000 C   0  0  0  0  0  0  0  0  0  0  0  0
   -3.8971    6.7500    0.0000 O   0  0  0  0  0  0  0  0  0  0  0  0
   -2.5981    4.5000    0.0000 O   0  0  0  0  0  0  0  0  0  0  0  0
  4  1  1  0
  5  2  1  0
  6  4  1  0
  7  5  1  0
  8  3  1  0
  8  6  1  0
  9  7  1  0
 10  9  2  0
 11  8  1  0
 11  9  1  0
M  END
>  <NAME>  (2648) 
2-PENTYL BUTYRATE

>  <SYNONYMS>  (2648) 
1-METHYLBUTYL BUTYRATE

>  <SPECTRUM TYPE>  (2648) 
MS1

>  <INSTRUMENT TYPE>  (2648) 
EI-B

>  <INSTRUMENT>  (2648) 
HITACHI M-80B

>  <ION MODE>  (2648) 
P

>  <INCHIKEY>  (2648) 
DJOCFLQKCMWABC-UHFFFAOYSA-N

>  <FORMULA>  (2648) 
C9H18O2

>  <EXACT MASS>  (2648) 
158.130679816

>  <MW>  (2648) 
158

>  <ID>  (2648) 
JP008563

>  <CONTRIBUTOR>  (2648) 
University of Tokyo Team, {Faculty of Engineering, University of Tokyo

>  <COMMENT>  (2648) 
SMILES=CCCC(C)OC(=O)CCC
InChI=InChI=1S/C9H18O2/c1-4-6-8(3)11-9(10)7-5-2/h8H,4-7H2,1-3H3
computed SMILES=O=C(OC(C)CCC)CCC
accession=JP008563
date=2016.01.19 (Created 2008.10.21, modified 2011.05.06)
author=SODA AROMATIC CO., LTD.
license=CC BY-NC-SA
exact mass=158.13068
ionization energy=70 eV
ion type=[M]+*
computed spectral entropy=2.2858460760299932
computed normalized entropy=0.7630341657060619
SPLASH=splash10-00dl-9000000000-20b64b354a214dfa86bc
submitter=submitter = University of Tokyo Team (Faculty of Engineering, University of Tokyo)
MoNA Rating=3.75

>  <NUM PEAKS>  (2648) 
20

>  <MASS SPECTRAL PEAKS>  (2648) 
27 12.43
29 8.11
39 7.16
40 1.09
41 17.2
42 10.2
43 56.47
44 1.83
45 3.79
55 12.19
60 3.5
70 21.84
71 99.99
72 4.3
73 2.37
87 2.82
88 7.21
89 13.63
114 1.69
115 10.91

$$$$

     RDKit          2D

 12 12  0  0  0  0  0  0  0  0999 V2000
    7.4251    1.2910    0.0000 C   0  0  0  0  0  0  0  0  0  0  0  0
    6.1262    0.5408    0.0000 C   0  0  0  0  0  0  0  0  0  0  0  0
   -1.6700   -0.9600    0.0000 C   0  0  0  0  0  0  0  0  0  0  0  0
   -1.6700    0.5400    0.0000 C   0  0  0  0  0  0  0  0  0  0  0  0
   -0.3700   -1.7100    0.0000 C   0  0  0  0  0  0  0  0  0  0  0  0
    4.8270    1.2906    0.0000 C   0  0  0  0  0  0  0  0  0  0  0  0
   -0.3700    1.2900    0.0000 C   0  0  0  0  0  0  0  0  0  0  0  0
    0.9300   -0.9600    0.0000 C   0  0  0  0  0  0  0  0  0  0  0  0
    0.9300    0.5400    0.0000 C   0  0  0  0  0  0  0  0  0  0  0  0
    3.5281    0.5404    0.0000 C   0  0  0  0  0  0  0  0  0  0  0  0
    3.5283   -0.9596    0.0000 O   0  0  0  0  0  0  0  0  0  0  0  0
    2.2289    1.2902    0.0000 O   0  0  0  0  0  0  0  0  0  0  0  0
  2  1  1  0
  4  3  2  0
  5  3  1  0
  6  2  1  0
  7  4  1  0
  8  5  2  0
  9  7  2  0
  9  8  1  0
 10  6  1  0
 11 10  2  0
 12  9  1  0
 12 10  1  0
M  END
>  <NAME>  (2649) 
PHENYL BUTYRATE

>  <SYNONYMS>  (2649) 
BUTYRIC ACID PHENYL ESTER

>  <SPECTRUM TYPE>  (2649) 
MS1

>  <INSTRUMENT TYPE>  (2649) 
EI-B

>  <INSTRUMENT>  (2649) 
HITACHI M-80B

>  <ION MODE>  (2649) 
P

>  <INCHIKEY>  (2649) 
IGVPBCZDHMIOJH-UHFFFAOYSA-N

>  <FORMULA>  (2649) 
C10H12O2

>  <EXACT MASS>  (2649) 
164.083729624

>  <MW>  (2649) 
164

>  <ID>  (2649) 
JP008562

>  <CONTRIBUTOR>  (2649) 
University of Tokyo Team, {Faculty of Engineering, University of Tokyo

>  <COMMENT>  (2649) 
SMILES=CCCC(=O)Oc(c1)cccc1
InChI=InChI=1S/C10H12O2/c1-2-6-10(11)12-9-7-4-3-5-8-9/h3-5,7-8H,2,6H2,1H3
computed SMILES=O=C(OC=1C=CC=CC1)CCC
accession=JP008562
date=2016.01.19 (Created 2008.10.21, modified 2011.05.06)
author=SODA AROMATIC CO., LTD.
license=CC BY-NC-SA
exact mass=164.08373
ionization energy=70 eV
ion type=[M]+*
computed spectral entropy=2.4281700243012576
computed normalized entropy=0.7367385350128152
SPLASH=splash10-0006-9000000000-1fad10cfe43dc1f09a35
submitter=submitter = University of Tokyo Team (Faculty of Engineering, University of Tokyo)
MoNA Rating=3.75

>  <NUM PEAKS>  (2649) 
27

>  <MASS SPECTRAL PEAKS>  (2649) 
26 1.15
27 15.55
28 1.88
29 1.74
38 2.68
39 23.51
40 2.47
41 15.34
42 2.91
43 71.6
44 1.99
50 1.75
51 5.91
55 7.51
63 2.9
64 1.48
65 15.33
66 7.18
70 2.24
71 48.57
72 1.86
77 8.87
93 1.61
94 99.99
95 8.07
164 15.74
165 1.5

$$$$

     RDKit          2D

 13 12  0  0  0  0  0  0  0  0999 V2000
    2.5981    4.5000    0.0000 C   0  0  0  0  0  0  0  0  0  0  0  0
   -1.2990    2.2500    0.0000 C   0  0  0  0  0  0  0  0  0  0  0  0
   -7.7942    4.5000    0.0000 C   0  0  0  0  0  0  0  0  0  0  0  0
   -6.4952    6.7500    0.0000 C   0  0  0  0  0  0  0  0  0  0  0  0
    1.2990    5.2500    0.0000 C   0  0  0  0  0  0  0  0  0  0  0  0
   -2.5981    3.0000    0.0000 C   0  0  0  0  0  0  0  0  0  0  0  0
    0.0000    4.5000    0.0000 C   0  0  0  0  0  0  0  0  0  0  0  0
   -1.2990    5.2500    0.0000 C   0  0  0  0  0  0  0  0  0  0  0  0
   -6.4952    5.2500    0.0000 C   0  0  0  0  0  0  0  0  0  0  0  0
   -2.5981    4.5000    0.0000 C   0  0  0  0  0  0  0  0  0  0  0  0
   -5.1962    4.5000    0.0000 C   0  0  0  0  0  0  0  0  0  0  0  0
   -5.1962    3.0000    0.0000 O   0  0  0  0  0  0  0  0  0  0  0  0
   -3.8971    5.2500    0.0000 O   0  0  0  0  0  0  0  0  0  0  0  0
  5  1  1  0
  6  2  1  0
  7  5  1  0
  8  7  1  0
  9  3  1  0
  9  4  1  0
 10  6  1  0
 10  8  1  0
 11  9  1  0
 12 11  2  0
 13 10  1  0
 13 11  1  0
M  END
>  <NAME>  (2650) 
3-HEPTYL ISOBUTYRATE

>  <SYNONYMS>  (2650) 
1-ETHYLPENTYL 2-METHYLPROPIONATE

>  <SPECTRUM TYPE>  (2650) 
MS1

>  <INSTRUMENT TYPE>  (2650) 
EI-B

>  <INSTRUMENT>  (2650) 
HITACHI M-80B

>  <ION MODE>  (2650) 
P

>  <INCHIKEY>  (2650) 
BEOJRFPSYLJBFR-UHFFFAOYSA-N

>  <FORMULA>  (2650) 
C11H22O2

>  <EXACT MASS>  (2650) 
186.161979944

>  <MW>  (2650) 
186

>  <ID>  (2650) 
JP008561

>  <CONTRIBUTOR>  (2650) 
University of Tokyo Team, {Faculty of Engineering, University of Tokyo

>  <COMMENT>  (2650) 
SMILES=CCCCC(CC)OC(=O)C(C)C
InChI=InChI=1S/C11H22O2/c1-5-7-8-10(6-2)13-11(12)9(3)4/h9-10H,5-8H2,1-4H3
computed SMILES=O=C(OC(CC)CCCC)C(C)C
accession=JP008561
date=2016.01.19 (Created 2008.10.21, modified 2011.05.06)
author=SODA AROMATIC CO., LTD.
license=CC BY-NC-SA
exact mass=186.16198
ionization energy=70 eV
ion type=[M]+*
computed spectral entropy=2.4965315416497997
computed normalized entropy=0.7574803132402732
SPLASH=splash10-0596-9000000000-9bcc05cf9304d5f2cba9
submitter=submitter = University of Tokyo Team (Faculty of Engineering, University of Tokyo)
MoNA Rating=3.75

>  <NUM PEAKS>  (2650) 
27

>  <MASS SPECTRAL PEAKS>  (2650) 
27 15.01
28 1.73
29 14.87
31 1.54
39 7.41
41 27.87
42 6.96
43 73.11
44 3.89
45 1
54 1.21
55 9.66
56 12.54
57 52.61
58 2.51
59 5.02
69 9.02
70 5.56
71 99.99
72 4.67
73 1.05
85 1.68
89 6.97
98 13.35
99 2.86
129 6.89
157 2.59

$$$$

     RDKit          2D

 11 10  0  0  0  0  0  0  0  0999 V2000
    2.5981    4.5000    0.0000 C   0  0  0  0  0  0  0  0  0  0  0  0
   -7.7942    4.5000    0.0000 C   0  0  0  0  0  0  0  0  0  0  0  0
   -5.1962    3.0000    0.0000 C   0  0  0  0  0  0  0  0  0  0  0  0
    1.2990    5.2500    0.0000 C   0  0  0  0  0  0  0  0  0  0  0  0
   -6.4952    5.2500    0.0000 C   0  0  0  0  0  0  0  0  0  0  0  0
    0.0000    4.5000    0.0000 C   0  0  0  0  0  0  0  0  0  0  0  0
   -3.8971    5.2500    0.0000 C   0  0  0  0  0  0  0  0  0  0  0  0
   -5.1962    4.5000    0.0000 C   0  0  0  0  0  0  0  0  0  0  0  0
   -1.2990    5.2500    0.0000 C   0  0  0  0  0  0  0  0  0  0  0  0
   -1.2990    6.7500    0.0000 O   0  0  0  0  0  0  0  0  0  0  0  0
   -2.5981    4.5000    0.0000 O   0  0  0  0  0  0  0  0  0  0  0  0
  4  1  1  0
  5  2  1  0
  6  4  1  0
  8  3  1  0
  8  5  1  0
  8  7  1  0
  9  6  1  0
 10  9  2  0
 11  7  1  0
 11  9  1  0
M  END
>  <NAME>  (2651) 
2-METHYLBUTYL BUTYRATE

>  <SYNONYMS>  (2651) 
BUTYRIC ACID 2-METHYLBUTYL ESTER

>  <SPECTRUM TYPE>  (2651) 
MS1

>  <INSTRUMENT TYPE>  (2651) 
EI-B

>  <INSTRUMENT>  (2651) 
HITACHI M-80B

>  <ION MODE>  (2651) 
P

>  <INCHIKEY>  (2651) 
MBZKQDXXFMITAC-UHFFFAOYSA-N

>  <FORMULA>  (2651) 
C9H18O2

>  <EXACT MASS>  (2651) 
158.130679816

>  <MW>  (2651) 
158

>  <ID>  (2651) 
JP008560

>  <CONTRIBUTOR>  (2651) 
University of Tokyo Team, {Faculty of Engineering, University of Tokyo

>  <COMMENT>  (2651) 
SMILES=CCCC(=O)OCC(C)CC
InChI=InChI=1S/C9H18O2/c1-4-6-9(10)11-7-8(3)5-2/h8H,4-7H2,1-3H3
computed SMILES=O=C(OCC(C)CC)CCC
accession=JP008560
author=SODA AROMATIC CO., LTD.
date=2016.01.19 (Created 2008.10.21, modified 2011.05.06)
license=CC BY-NC-SA
exact mass=158.13068
ionization energy=70 eV
ion type=[M]+*
computed spectral entropy=2.280276131157381
computed normalized entropy=0.7377045658754819
SPLASH=splash10-00dl-9000000000-a1dedd594d776b76155e
submitter=submitter = University of Tokyo Team (Faculty of Engineering, University of Tokyo)
MoNA Rating=3.75

>  <NUM PEAKS>  (2651) 
22

>  <MASS SPECTRAL PEAKS>  (2651) 
27 13.97
29 11.85
39 8.28
41 20.44
42 12.11
43 53.68
44 1.74
45 1.78
55 14.13
56 3.17
60 2.95
69 1.46
70 45.93
71 99.99
72 4.25
73 1.93
85 2.12
87 1.73
88 3.28
89 6.46
100 1.5
101 5.47

$$$$

     RDKit          2D

 17 17  0  0  0  0  0  0  0  0999 V2000
    4.8721    3.8829    0.0000 C   0  0  0  0  0  0  0  0  0  0  0  0
   -2.5873    1.9838    0.0000 C   0  0  0  0  0  0  0  0  0  0  0  0
   -0.6589    1.9838    0.0000 C   0  0  0  0  0  0  0  0  0  0  0  0
    3.5731    3.1329    0.0000 C   0  0  0  0  0  0  0  0  0  0  0  0
   -8.1183    5.3829    0.0000 C   0  0  0  0  0  0  0  0  0  0  0  0
   -8.1187    3.8821    0.0000 C   0  0  0  0  0  0  0  0  0  0  0  0
   -6.8187    6.1337    0.0000 C   0  0  0  0  0  0  0  0  0  0  0  0
    2.2740    3.8829    0.0000 C   0  0  0  0  0  0  0  0  0  0  0  0
   -6.8197    3.1321    0.0000 C   0  0  0  0  0  0  0  0  0  0  0  0
   -5.5197    5.3837    0.0000 C   0  0  0  0  0  0  0  0  0  0  0  0
   -4.2212    3.1329    0.0000 C   0  0  0  0  0  0  0  0  0  0  0  0
   -2.9221    3.8829    0.0000 C   0  0  0  0  0  0  0  0  0  0  0  0
   -5.5202    3.8829    0.0000 C   0  0  0  0  0  0  0  0  0  0  0  0
    0.9750    3.1329    0.0000 C   0  0  0  0  0  0  0  0  0  0  0  0
   -1.6231    3.1329    0.0000 C   0  0  0  0  0  0  0  0  0  0  0  0
    0.9750    1.6329    0.0000 O   0  0  0  0  0  0  0  0  0  0  0  0
   -0.3240    3.8829    0.0000 O   0  0  0  0  0  0  0  0  0  0  0  0
  4  1  1  0
  6  5  2  0
  7  5  1  0
  8  4  1  0
  9  6  1  0
 10  7  2  0
 12 11  1  0
 13  9  2  0
 13 10  1  0
 13 11  1  0
 14  8  1  0
 15  2  1  0
 15  3  1  0
 15 12  1  0
 16 14  2  0
 17 14  1  0
 17 15  1  0
M  END
>  <NAME>  (2652) 
1,1-DIMETHYL-3-PHENYLPROPYL BUTYRATE

>  <SYNONYMS>  (2652) 
DIMETHYL PHENYLETHYL CARBINYL BUTYRATE

>  <SPECTRUM TYPE>  (2652) 
MS1

>  <INSTRUMENT TYPE>  (2652) 
EI-B

>  <INSTRUMENT>  (2652) 
HITACHI M-80B

>  <ION MODE>  (2652) 
P

>  <INCHIKEY>  (2652) 
AIDHEBLAMCYZRU-UHFFFAOYSA-N

>  <FORMULA>  (2652) 
C15H22O2

>  <EXACT MASS>  (2652) 
234.161979944

>  <MW>  (2652) 
234

>  <ID>  (2652) 
JP008559

>  <CONTRIBUTOR>  (2652) 
University of Tokyo Team, {Faculty of Engineering, University of Tokyo

>  <COMMENT>  (2652) 
SMILES=CCCC(=O)OC(C)(C)CCc(c1)cccc1
InChI=InChI=1S/C15H22O2/c1-4-8-14(16)17-15(2,3)12-11-13-9-6-5-7-10-13/h5-7,9-10H,4,8,11-12H2,1-3H3
computed SMILES=O=C(OC(C)(C)CCC=1C=CC=CC1)CCC
accession=JP008559
date=2016.01.19 (Created 2008.10.21, modified 2011.05.06)
author=SODA AROMATIC CO., LTD.
license=CC BY-NC-SA
exact mass=234.16198
ionization energy=70 eV
ion type=[M]+*
computed spectral entropy=2.7168859445396314
computed normalized entropy=0.7268930167742966
SPLASH=splash10-000x-9600000000-0f4c61b474acfb1cf00c
submitter=submitter = University of Tokyo Team (Faculty of Engineering, University of Tokyo)
MoNA Rating=3.75

>  <NUM PEAKS>  (2652) 
42

>  <MASS SPECTRAL PEAKS>  (2652) 
18 1.11
27 12.76
28 1.46
29 2.98
39 7.99
40 1.37
41 17.82
42 2.57
43 43.07
44 1.22
51 3.46
52 1.2
53 1.69
55 2.01
56 3.9
59 2.63
60 1.15
63 1.93
65 11.65
68 2.19
71 41.97
72 1.62
77 5.27
78 2.93
79 2.82
89 2.21
90 1.15
91 84.82
92 5.73
103 2.73
104 3.36
105 9.45
115 1.82
116 1.36
117 2.37
129 2.03
131 99.99
132 11.46
145 2.31
146 51.69
147 12.03
148 1.09

$$$$

     RDKit          2D

 12 12  0  0  0  0  0  0  0  0999 V2000
   -5.5207    3.1321    0.0000 C   0  0  0  0  0  0  0  0  0  0  0  0
    3.5726    0.8821    0.0000 C   0  0  0  0  0  0  0  0  0  0  0  0
    3.5731    2.3829    0.0000 C   0  0  0  0  0  0  0  0  0  0  0  0
    2.2731    0.1313    0.0000 C   0  0  0  0  0  0  0  0  0  0  0  0
    2.2740    3.1329    0.0000 C   0  0  0  0  0  0  0  0  0  0  0  0
    0.9740    0.8813    0.0000 C   0  0  0  0  0  0  0  0  0  0  0  0
   -0.3245    3.1321    0.0000 C   0  0  0  0  0  0  0  0  0  0  0  0
   -1.6236    2.3821    0.0000 C   0  0  0  0  0  0  0  0  0  0  0  0
    0.9745    2.3821    0.0000 C   0  0  0  0  0  0  0  0  0  0  0  0
   -2.9226    3.1321    0.0000 C   0  0  0  0  0  0  0  0  0  0  0  0
   -2.9226    4.6321    0.0000 O   0  0  0  0  0  0  0  0  0  0  0  0
   -4.2216    2.3821    0.0000 O   0  0  0  0  0  0  0  0  0  0  0  0
  3  2  2  0
  4  2  1  0
  5  3  1  0
  6  4  2  0
  8  7  1  0
  9  5  2  0
  9  6  1  0
  9  7  1  0
 10  8  1  0
 11 10  2  0
 12  1  1  0
 12 10  1  0
M  END
>  <NAME>  (2653) 
METHYL 3-PHENYLPROPIONATE

>  <SYNONYMS>  (2653) 
3-PHENYLPROPIONIC ACID METHYL ESTER

>  <SPECTRUM TYPE>  (2653) 
MS1

>  <INSTRUMENT TYPE>  (2653) 
EI-B

>  <INSTRUMENT>  (2653) 
HITACHI M-80B

>  <ION MODE>  (2653) 
P

>  <INCHIKEY>  (2653) 
RPUSRLKKXPQSGP-UHFFFAOYSA-N

>  <FORMULA>  (2653) 
C10H12O2

>  <EXACT MASS>  (2653) 
164.083729624

>  <MW>  (2653) 
164

>  <ID>  (2653) 
JP008558

>  <CONTRIBUTOR>  (2653) 
University of Tokyo Team, {Faculty of Engineering, University of Tokyo

>  <COMMENT>  (2653) 
SMILES=COC(=O)CCc(c1)cccc1
InChI=InChI=1S/C10H12O2/c1-12-10(11)8-7-9-5-3-2-4-6-9/h2-6H,7-8H2,1H3
computed SMILES=O=C(OC)CCC=1C=CC=CC1
accession=JP008558
date=2016.01.19 (Created 2008.10.21, modified 2011.05.06)
author=SODA AROMATIC CO., LTD.
license=CC BY-NC-SA
exact mass=164.08373
ionization energy=70 eV
ion type=[M]+*
computed spectral entropy=2.766342226008462
computed normalized entropy=0.755096404323086
SPLASH=splash10-0udl-9800000000-ef5836e3dba1d1460b3b
submitter=submitter = University of Tokyo Team (Faculty of Engineering, University of Tokyo)
MoNA Rating=3.75

>  <NUM PEAKS>  (2653) 
39

>  <MASS SPECTRAL PEAKS>  (2653) 
15 9.02
27 7.71
28 1.05
29 2.93
31 1.11
38 1.21
39 10.04
41 1.27
42 2.57
50 5.32
51 16.27
52 3.21
53 1.5
55 1.58
59 3.33
62 1.24
63 4.42
64 1
65 10.37
74 1.57
75 1.32
76 1.64
77 19.7
78 14.64
79 10.82
89 2.2
90 1.06
91 64.29
92 4.13
102 1.7
103 11.53
104 99.99
105 34.7
106 2.09
107 4.2
131 1.72
133 8.81
164 23.92
165 1.97

$$$$

     RDKit          2D

 15 15  0  0  0  0  0  0  0  0999 V2000
   -6.8197    3.1321    0.0000 C   0  0  0  0  0  0  0  0  0  0  0  0
   -2.5877    1.9830    0.0000 C   0  0  0  0  0  0  0  0  0  0  0  0
   -0.6594    1.9830    0.0000 C   0  0  0  0  0  0  0  0  0  0  0  0
   -5.5207    3.8821    0.0000 C   0  0  0  0  0  0  0  0  0  0  0  0
    3.5726    1.6321    0.0000 C   0  0  0  0  0  0  0  0  0  0  0  0
    3.5731    3.1329    0.0000 C   0  0  0  0  0  0  0  0  0  0  0  0
    2.2731    0.8813    0.0000 C   0  0  0  0  0  0  0  0  0  0  0  0
    2.2740    3.8829    0.0000 C   0  0  0  0  0  0  0  0  0  0  0  0
    0.9740    1.6313    0.0000 C   0  0  0  0  0  0  0  0  0  0  0  0
   -0.3245    3.8821    0.0000 C   0  0  0  0  0  0  0  0  0  0  0  0
    0.9745    3.1321    0.0000 C   0  0  0  0  0  0  0  0  0  0  0  0
   -4.2216    3.1321    0.0000 C   0  0  0  0  0  0  0  0  0  0  0  0
   -1.6236    3.1321    0.0000 C   0  0  0  0  0  0  0  0  0  0  0  0
   -4.2216    1.6321    0.0000 O   0  0  0  0  0  0  0  0  0  0  0  0
   -2.9226    3.8821    0.0000 O   0  0  0  0  0  0  0  0  0  0  0  0
  4  1  1  0
  6  5  2  0
  7  5  1  0
  8  6  1  0
  9  7  2  0
 11  8  2  0
 11  9  1  0
 11 10  1  0
 12  4  1  0
 13  2  1  0
 13  3  1  0
 13 10  1  0
 14 12  2  0
 15 12  1  0
 15 13  1  0
M  END
>  <NAME>  (2654) 
1,1-DIMETHYL-2-PHENYLETHYL PROPIONATE

>  <SYNONYMS>  (2654) 
DIMETHYL BENZYL CARBINYL PROPIONATE

>  <SPECTRUM TYPE>  (2654) 
MS1

>  <INSTRUMENT TYPE>  (2654) 
EI-B

>  <INSTRUMENT>  (2654) 
HITACHI M-80B

>  <ION MODE>  (2654) 
P

>  <INCHIKEY>  (2654) 
BLKIYRRGHOQSPP-UHFFFAOYSA-N

>  <FORMULA>  (2654) 
C13H18O2

>  <EXACT MASS>  (2654) 
206.130679816

>  <MW>  (2654) 
206

>  <ID>  (2654) 
JP008557

>  <CONTRIBUTOR>  (2654) 
University of Tokyo Team, {Faculty of Engineering, University of Tokyo

>  <COMMENT>  (2654) 
SMILES=CCC(=O)OC(C)(C)Cc(c1)cccc1
InChI=InChI=1S/C13H18O2/c1-4-12(14)15-13(2,3)10-11-8-6-5-7-9-11/h5-9H,4,10H2,1-3H3
computed SMILES=O=C(OC(C)(C)CC=1C=CC=CC1)CC
accession=JP008557
date=2016.01.19 (Created 2008.10.21, modified 2011.05.06)
author=SODA AROMATIC CO., LTD.
license=CC BY-NC-SA
exact mass=206.13068
ionization energy=70 eV
ion type=[M]+*
computed spectral entropy=2.224069053439692
computed normalized entropy=0.6909458998875044
SPLASH=splash10-0a4i-9200000000-26d966d0e8a9b49aecbd
submitter=submitter = University of Tokyo Team (Faculty of Engineering, University of Tokyo)
MoNA Rating=3.75

>  <NUM PEAKS>  (2654) 
25

>  <MASS SPECTRAL PEAKS>  (2654) 
27 5.42
28 1.47
29 22.31
39 4
41 2.2
43 6.01
51 2.15
55 2.55
57 99.99
58 2.9
59 3.05
63 1.48
65 6.16
77 1.46
78 1.02
89 1.3
91 25.24
92 2.5
105 1.47
115 6.07
116 1.02
117 6.65
132 23.19
133 7.5
148 2.1

$$$$

     RDKit          2D

 11 10  0  0  0  0  0  0  0  0999 V2000
   -7.4695    3.9375    0.0000 C   0  0  0  0  0  0  0  0  0  0  0  0
   -0.9743    6.1875    0.0000 C   0  0  0  0  0  0  0  0  0  0  0  0
    1.6238    3.1875    0.0000 C   0  0  0  0  0  0  0  0  0  0  0  0
   -6.1704    3.1875    0.0000 C   0  0  0  0  0  0  0  0  0  0  0  0
   -2.2733    5.4375    0.0000 C   0  0  0  0  0  0  0  0  0  0  0  0
   -4.8714    3.9375    0.0000 C   0  0  0  0  0  0  0  0  0  0  0  0
   -3.5724    3.1875    0.0000 C   0  0  0  0  0  0  0  0  0  0  0  0
    0.3248    3.9375    0.0000 C   0  0  0  0  0  0  0  0  0  0  0  0
   -2.2733    3.9375    0.0000 C   0  0  0  0  0  0  0  0  0  0  0  0
    0.3248    5.4375    0.0000 O   0  0  0  0  0  0  0  0  0  0  0  0
   -0.9743    3.1875    0.0000 O   0  0  0  0  0  0  0  0  0  0  0  0
  4  1  1  0
  5  2  1  0
  6  4  1  0
  7  6  1  0
  8  3  1  0
  9  5  1  0
  9  7  1  0
 10  8  2  0
 11  8  1  0
 11  9  1  0
M  END
>  <NAME>  (2655) 
1-ETHYLPENTYL ACETATE

>  <SYNONYMS>  (2655) 
3-HEPTYL ACETATE

>  <SPECTRUM TYPE>  (2655) 
MS1

>  <INSTRUMENT TYPE>  (2655) 
EI-B

>  <INSTRUMENT>  (2655) 
HITACHI M-80B

>  <ION MODE>  (2655) 
P

>  <INCHIKEY>  (2655) 
QICIMADZMWGDTQ-UHFFFAOYSA-N

>  <FORMULA>  (2655) 
C9H18O2

>  <EXACT MASS>  (2655) 
158.130679816

>  <MW>  (2655) 
158

>  <ID>  (2655) 
JP008556

>  <CONTRIBUTOR>  (2655) 
University of Tokyo Team, {Faculty of Engineering, University of Tokyo

>  <COMMENT>  (2655) 
SMILES=CCCCC(CC)OC(C)=O
InChI=InChI=1S/C9H18O2/c1-4-6-7-9(5-2)11-8(3)10/h9H,4-7H2,1-3H3
computed SMILES=O=C(OC(CC)CCCC)C
accession=JP008556
date=2016.01.19 (Created 2008.10.21, modified 2011.05.06)
author=SODA AROMATIC CO., LTD.
license=CC BY-NC-SA
exact mass=158.13068
ionization energy=70 eV
ion type=[M]+*
computed spectral entropy=2.103617643960406
computed normalized entropy=0.6909515981538998
SPLASH=splash10-0006-9100000000-a8948f9763f7c40c7da0
submitter=submitter = University of Tokyo Team (Faculty of Engineering, University of Tokyo)
MoNA Rating=3.75

>  <NUM PEAKS>  (2655) 
21

>  <MASS SPECTRAL PEAKS>  (2655) 
15 1.73
27 6.89
29 8.77
31 1
39 3.07
41 10.63
42 2.4
43 99.99
44 2.73
55 5.89
56 9.17
57 6.82
58 2.44
59 1.77
61 1.55
69 6.66
70 2.89
73 1.32
98 6.19
101 13.91
129 8.44

$$$$

     RDKit          2D

 12 11  0  0  0  0  0  0  0  0999 V2000
    2.5981    4.5000    0.0000 C   0  0  0  0  0  0  0  0  0  0  0  0
   -3.8971    2.2500    0.0000 C   0  0  0  0  0  0  0  0  0  0  0  0
   -7.7942    4.5000    0.0000 C   0  0  0  0  0  0  0  0  0  0  0  0
    1.2990    5.2500    0.0000 C   0  0  0  0  0  0  0  0  0  0  0  0
   -2.5981    3.0000    0.0000 C   0  0  0  0  0  0  0  0  0  0  0  0
   -6.4952    5.2500    0.0000 C   0  0  0  0  0  0  0  0  0  0  0  0
    0.0000    4.5000    0.0000 C   0  0  0  0  0  0  0  0  0  0  0  0
   -1.2990    5.2500    0.0000 C   0  0  0  0  0  0  0  0  0  0  0  0
   -2.5981    4.5000    0.0000 C   0  0  0  0  0  0  0  0  0  0  0  0
   -5.1962    4.5000    0.0000 C   0  0  0  0  0  0  0  0  0  0  0  0
   -5.1962    3.0000    0.0000 O   0  0  0  0  0  0  0  0  0  0  0  0
   -3.8971    5.2500    0.0000 O   0  0  0  0  0  0  0  0  0  0  0  0
  4  1  1  0
  5  2  1  0
  6  3  1  0
  7  4  1  0
  8  7  1  0
  9  5  1  0
  9  8  1  0
 10  6  1  0
 11 10  2  0
 12  9  1  0
 12 10  1  0
M  END
>  <NAME>  (2656) 
1-ETHYLPENTYL PROPIONATE

>  <SYNONYMS>  (2656) 
3-HEPTYL PROPIONATE

>  <SPECTRUM TYPE>  (2656) 
MS1

>  <INSTRUMENT TYPE>  (2656) 
EI-B

>  <INSTRUMENT>  (2656) 
HITACHI M-80B

>  <ION MODE>  (2656) 
P

>  <INCHIKEY>  (2656) 
WTSWAVWDIUHBBL-UHFFFAOYSA-N

>  <FORMULA>  (2656) 
C10H20O2

>  <EXACT MASS>  (2656) 
172.14632988

>  <MW>  (2656) 
172

>  <ID>  (2656) 
JP008555

>  <CONTRIBUTOR>  (2656) 
University of Tokyo Team, {Faculty of Engineering, University of Tokyo

>  <COMMENT>  (2656) 
SMILES=CCCCC(CC)OC(=O)CC
InChI=InChI=1S/C10H20O2/c1-4-7-8-9(5-2)12-10(11)6-3/h9H,4-8H2,1-3H3
computed SMILES=O=C(OC(CC)CCCC)CC
accession=JP008555
date=2016.01.19 (Created 2008.10.21, modified 2011.05.06)
author=SODA AROMATIC CO., LTD.
license=CC BY-NC-SA
exact mass=172.14633
ionization energy=70 eV
ion type=[M]+*
computed spectral entropy=2.0545681176589086
computed normalized entropy=0.6858316865617197
SPLASH=splash10-0a4i-9000000000-737c01f4d3a6d91e3445
submitter=submitter = University of Tokyo Team (Faculty of Engineering, University of Tokyo)
MoNA Rating=3.75

>  <NUM PEAKS>  (2656) 
20

>  <MASS SPECTRAL PEAKS>  (2656) 
27 8.13
28 2.15
29 24.76
39 2.64
41 10.2
42 2.51
43 5.15
44 1.08
55 5.98
56 9.3
57 99.99
58 3.8
69 5.41
70 3.88
72 1.11
75 2.52
85 1.46
98 6.41
115 7.11
143 3.94

$$$$

     RDKit          2D

 13 12  0  0  0  0  0  0  0  0999 V2000
   -8.4437    5.6250    0.0000 C   0  0  0  0  0  0  0  0  0  0  0  0
   -0.6495    2.6250    0.0000 C   0  0  0  0  0  0  0  0  0  0  0  0
    3.2476    4.8750    0.0000 C   0  0  0  0  0  0  0  0  0  0  0  0
   -7.1447    4.8750    0.0000 C   0  0  0  0  0  0  0  0  0  0  0  0
   -1.9486    3.3750    0.0000 C   0  0  0  0  0  0  0  0  0  0  0  0
    1.9486    5.6250    0.0000 C   0  0  0  0  0  0  0  0  0  0  0  0
   -5.8457    5.6250    0.0000 C   0  0  0  0  0  0  0  0  0  0  0  0
   -4.5466    4.8750    0.0000 C   0  0  0  0  0  0  0  0  0  0  0  0
   -3.2476    5.6250    0.0000 C   0  0  0  0  0  0  0  0  0  0  0  0
   -1.9486    4.8750    0.0000 C   0  0  0  0  0  0  0  0  0  0  0  0
    0.6495    4.8750    0.0000 C   0  0  0  0  0  0  0  0  0  0  0  0
    0.6495    3.3750    0.0000 O   0  0  0  0  0  0  0  0  0  0  0  0
   -0.6495    5.6250    0.0000 O   0  0  0  0  0  0  0  0  0  0  0  0
  4  1  1  0
  5  2  1  0
  6  3  1  0
  7  4  1  0
  8  7  1  0
  9  8  1  0
 10  5  1  0
 10  9  1  0
 11  6  1  0
 12 11  2  0
 13 10  1  0
 13 11  1  0
M  END
>  <NAME>  (2657) 
1-ETHYLHEXYL PROPIONATE

>  <SYNONYMS>  (2657) 
3-OCTYL PROPIONATE

>  <SPECTRUM TYPE>  (2657) 
MS1

>  <INSTRUMENT TYPE>  (2657) 
EI-B

>  <INSTRUMENT>  (2657) 
HITACHI M-80B

>  <ION MODE>  (2657) 
P

>  <INCHIKEY>  (2657) 
SBHJWJMMXVWHCU-UHFFFAOYSA-N

>  <FORMULA>  (2657) 
C11H22O2

>  <EXACT MASS>  (2657) 
186.161979944

>  <MW>  (2657) 
186

>  <ID>  (2657) 
JP008554

>  <CONTRIBUTOR>  (2657) 
University of Tokyo Team, {Faculty of Engineering, University of Tokyo

>  <COMMENT>  (2657) 
SMILES=CCCCCC(CC)OC(=O)CC
InChI=InChI=1S/C11H22O2/c1-4-7-8-9-10(5-2)13-11(12)6-3/h10H,4-9H2,1-3H3
computed SMILES=O=C(OC(CC)CCCCC)CC
accession=JP008554
date=2016.01.19 (Created 2008.10.21, modified 2011.05.06)
author=SODA AROMATIC CO., LTD.
license=CC BY-NC-SA
exact mass=186.16198
ionization energy=70 eV
ion type=[M]+*
computed spectral entropy=2.2557678668479832
computed normalized entropy=0.7194297649755113
SPLASH=splash10-0a4i-9000000000-b451f0970c1620564026
submitter=submitter = University of Tokyo Team (Faculty of Engineering, University of Tokyo)
MoNA Rating=3.75

>  <NUM PEAKS>  (2657) 
23

>  <MASS SPECTRAL PEAKS>  (2657) 
27 8.94
28 2.08
29 27.16
31 1.09
39 3.06
41 11.88
42 3.75
43 8.61
55 7.89
56 6.87
57 99.99
58 3.86
69 3.49
70 6.28
71 5.67
72 1.65
75 3.71
83 3.93
84 1.94
99 1.33
112 5.76
115 7.51
157 2.89

$$$$

     RDKit          2D

 12 11  0  0  0  0  0  0  0  0999 V2000
    2.9228    5.4375    0.0000 C   0  0  0  0  0  0  0  0  0  0  0  0
   -4.8714    3.9375    0.0000 C   0  0  0  0  0  0  0  0  0  0  0  0
   -8.7685    6.1875    0.0000 C   0  0  0  0  0  0  0  0  0  0  0  0
    1.6238    6.1875    0.0000 C   0  0  0  0  0  0  0  0  0  0  0  0
    0.3248    5.4375    0.0000 C   0  0  0  0  0  0  0  0  0  0  0  0
   -0.9743    6.1875    0.0000 C   0  0  0  0  0  0  0  0  0  0  0  0
   -2.2733    5.4375    0.0000 C   0  0  0  0  0  0  0  0  0  0  0  0
   -3.5724    6.1875    0.0000 C   0  0  0  0  0  0  0  0  0  0  0  0
   -4.8714    5.4375    0.0000 C   0  0  0  0  0  0  0  0  0  0  0  0
   -7.4695    5.4375    0.0000 C   0  0  0  0  0  0  0  0  0  0  0  0
   -7.4695    3.9375    0.0000 O   0  0  0  0  0  0  0  0  0  0  0  0
   -6.1704    6.1875    0.0000 O   0  0  0  0  0  0  0  0  0  0  0  0
  4  1  1  0
  5  4  1  0
  6  5  1  0
  7  6  1  0
  8  7  1  0
  9  2  1  0
  9  8  1  0
 10  3  1  0
 11 10  2  0
 12  9  1  0
 12 10  1  0
M  END
>  <NAME>  (2658) 
1-METHYLHEPTYL ACETATE

>  <SYNONYMS>  (2658) 
ACETIC ACID 1-METHYLHEPTYL ESTER

>  <SPECTRUM TYPE>  (2658) 
MS1

>  <INSTRUMENT TYPE>  (2658) 
EI-B

>  <INSTRUMENT>  (2658) 
HITACHI M-80B

>  <ION MODE>  (2658) 
P

>  <INCHIKEY>  (2658) 
SJFUDWKNZGXSLV-UHFFFAOYSA-N

>  <FORMULA>  (2658) 
C10H20O2

>  <EXACT MASS>  (2658) 
172.14632988

>  <MW>  (2658) 
172

>  <ID>  (2658) 
JP008553

>  <CONTRIBUTOR>  (2658) 
University of Tokyo Team, {Faculty of Engineering, University of Tokyo

>  <COMMENT>  (2658) 
SMILES=CCCCCCC(C)OC(C)=O
InChI=InChI=1S/C10H20O2/c1-4-5-6-7-8-9(2)12-10(3)11/h9H,4-8H2,1-3H3
computed SMILES=O=C(OC(C)CCCCCC)C
accession=JP008553
date=2016.01.19 (Created 2008.10.21, modified 2011.05.06)
author=SODA AROMATIC CO., LTD.
license=CC BY-NC-SA
exact mass=172.14633
ionization energy=70 eV
ion type=[M]+*
computed spectral entropy=2.5157733187834785
computed normalized entropy=0.7633185200193019
SPLASH=splash10-0006-9000000000-d8a2a75a383822ce4738
submitter=submitter = University of Tokyo Team (Faculty of Engineering, University of Tokyo)
MoNA Rating=3.75

>  <NUM PEAKS>  (2658) 
27

>  <MASS SPECTRAL PEAKS>  (2658) 
15 3.75
27 9.27
28 2.24
29 11
39 5.88
41 17.87
42 8.2
43 99.99
44 3.78
45 5.6
53 1.07
55 11.86
56 9.21
57 6.88
58 5.86
59 2.15
61 3.36
69 5.03
70 10.39
71 3.55
82 1.06
83 4.43
84 2.52
87 18.84
97 1.45
102 1.45
112 4.44

$$$$

     RDKit          2D

 13 12  0  0  0  0  0  0  0  0999 V2000
   -0.0000   -0.0000    0.0000 C   0  0  0  0  0  0  0  0  0  0  0  0
    1.2990    2.2500    0.0000 C   0  0  0  0  0  0  0  0  0  0  0  0
   -5.1962    4.5000    0.0000 C   0  0  0  0  0  0  0  0  0  0  0  0
   -3.8971    2.2500    0.0000 C   0  0  0  0  0  0  0  0  0  0  0  0
    1.2990    6.7500    0.0000 C   0  0  0  0  0  0  0  0  0  0  0  0
   -1.2990    2.2500    0.0000 C   0  0  0  0  0  0  0  0  0  0  0  0
   -2.5981    4.5000    0.0000 C   0  0  0  0  0  0  0  0  0  0  0  0
   -0.0000    1.5000    0.0000 C   0  0  0  0  0  0  0  0  0  0  0  0
   -3.8971    3.7500    0.0000 C   0  0  0  0  0  0  0  0  0  0  0  0
    0.0000    6.0000    0.0000 C   0  0  0  0  0  0  0  0  0  0  0  0
   -1.2990    3.7500    0.0000 C   0  0  0  0  0  0  0  0  0  0  0  0
   -1.2990    6.7500    0.0000 O   0  0  0  0  0  0  0  0  0  0  0  0
    0.0000    4.5000    0.0000 O   0  0  0  0  0  0  0  0  0  0  0  0
  8  1  1  0
  8  2  1  0
  8  6  1  0
  9  3  1  0
  9  4  1  0
  9  7  1  0
 10  5  1  0
 11  6  1  0
 11  7  1  0
 12 10  2  0
 13 10  1  0
 13 11  1  0
M  END
>  <NAME>  (2659) 
DIISOBUTYL CARBINYL ACETATE

>  <SYNONYMS>  (2659) 
1-(2-METHYLPROPYL)-3-METHYLBUTYL ACETATE

>  <SPECTRUM TYPE>  (2659) 
MS1

>  <INSTRUMENT TYPE>  (2659) 
EI-B

>  <INSTRUMENT>  (2659) 
HITACHI M-80B

>  <ION MODE>  (2659) 
P

>  <INCHIKEY>  (2659) 
XLJDNKNPKUBQMX-UHFFFAOYSA-N

>  <FORMULA>  (2659) 
C11H22O2

>  <EXACT MASS>  (2659) 
186.161979944

>  <MW>  (2659) 
186

>  <ID>  (2659) 
JP008552

>  <CONTRIBUTOR>  (2659) 
University of Tokyo Team, {Faculty of Engineering, University of Tokyo

>  <COMMENT>  (2659) 
SMILES=CC(C)CC(CC(C)C)OC(C)=O
InChI=InChI=1S/C11H22O2/c1-8(2)6-11(7-9(3)4)13-10(5)12/h8-9,11H,6-7H2,1-5H3
computed SMILES=O=C(OC(CC(C)C)CC(C)C)C
accession=JP008552
date=2016.01.19 (Created 2008.10.21, modified 2011.05.06)
author=SODA AROMATIC CO., LTD.
license=CC BY-NC-SA
exact mass=186.16198
ionization energy=70 eV
ion type=[M]+*
computed spectral entropy=2.3666153338311835
computed normalized entropy=0.6828608411620054
SPLASH=splash10-0006-9100000000-6e37007092ffa9442bb0
submitter=submitter = University of Tokyo Team (Faculty of Engineering, University of Tokyo)
MoNA Rating=3.75

>  <NUM PEAKS>  (2659) 
32

>  <MASS SPECTRAL PEAKS>  (2659) 
15 1.37
18 1.59
27 3.92
29 4.2
39 3.03
41 12.19
42 2.34
43 99.99
44 3.1
45 1.29
55 6.58
56 11.28
57 6.76
58 2.02
59 1.16
61 1.43
67 1.3
68 1.35
69 20.43
70 6.23
71 2.77
83 2.56
84 1.18
85 2.18
86 1.23
87 1
98 1.27
101 1.5
111 1.84
126 5.03
129 16.58
130 1.03

$$$$

     RDKit          2D

  8  7  0  0  0  0  0  0  0  0999 V2000
    0.0000    0.0000    0.0000 C   0  0  0  0  0  0  0  0  0  0  0  0
   -2.5981    6.0000    0.0000 C   0  0  0  0  0  0  0  0  0  0  0  0
   -1.2990    2.2500    0.0000 C   0  0  0  0  0  0  0  0  0  0  0  0
    0.0000    1.5000    0.0000 C   0  0  0  0  0  0  0  0  0  0  0  0
   -2.5981    4.5000    0.0000 C   0  0  0  0  0  0  0  0  0  0  0  0
    1.2990    2.2500    0.0000 O   0  0  0  0  0  0  0  0  0  0  0  0
   -3.8971    3.7500    0.0000 O   0  0  0  0  0  0  0  0  0  0  0  0
   -1.2990    3.7500    0.0000 O   0  0  0  0  0  0  0  0  0  0  0  0
  4  1  1  0
  4  3  1  0
  5  2  1  0
  6  4  2  0
  7  5  2  0
  8  3  1  0
  8  5  1  0
M  END
>  <NAME>  (2660) 
ACETOL ACETATE

>  <SYNONYMS>  (2660) 
ACETYLMETHYL ACETATE

>  <SPECTRUM TYPE>  (2660) 
MS1

>  <INSTRUMENT TYPE>  (2660) 
EI-B

>  <INSTRUMENT>  (2660) 
HITACHI M-80B

>  <ION MODE>  (2660) 
P

>  <INCHIKEY>  (2660) 
DBERHVIZRVGDFO-UHFFFAOYSA-N

>  <FORMULA>  (2660) 
C5H8O3

>  <EXACT MASS>  (2660) 
116.04734411599999

>  <MW>  (2660) 
116

>  <ID>  (2660) 
JP008551

>  <CONTRIBUTOR>  (2660) 
University of Tokyo Team, {Faculty of Engineering, University of Tokyo

>  <COMMENT>  (2660) 
SMILES=CC(=O)COC(C)=O
InChI=InChI=1S/C5H8O3/c1-4(6)3-8-5(2)7/h3H2,1-2H3
computed SMILES=O=C(OCC(=O)C)C
accession=JP008551
date=2016.01.19 (Created 2008.10.21, modified 2011.05.06)
author=SODA AROMATIC CO., LTD.
license=CC BY-NC-SA
exact mass=116.04734
ionization energy=70 eV
ion type=[M]+*
computed spectral entropy=1.271990642186524
computed normalized entropy=0.5118866909125314
SPLASH=splash10-0006-9000000000-081dd10fc4cec8f7a8d2
submitter=submitter = University of Tokyo Team (Faculty of Engineering, University of Tokyo)
MoNA Rating=3.75

>  <NUM PEAKS>  (2660) 
12

>  <MASS SPECTRAL PEAKS>  (2660) 
14 1.22
15 7.58
18 1.3
27 2.31
29 3.53
42 5.93
43 99.99
44 2.34
73 3.68
74 1.09
86 9.15
116 5.08

$$$$

     RDKit          2D

  9  8  0  0  0  0  0  0  0  0999 V2000
    1.9486    2.6250    0.0000 C   0  0  0  0  0  0  0  0  0  0  0  0
   -0.6495    1.1250    0.0000 C   0  0  0  0  0  0  0  0  0  0  0  0
   -4.5466    3.3750    0.0000 C   0  0  0  0  0  0  0  0  0  0  0  0
    0.6495    3.3750    0.0000 C   0  0  0  0  0  0  0  0  0  0  0  0
   -0.6495    2.6250    0.0000 C   0  0  0  0  0  0  0  0  0  0  0  0
   -3.2476    2.6250    0.0000 C   0  0  0  0  0  0  0  0  0  0  0  0
    0.6495    4.8750    0.0000 O   0  0  0  0  0  0  0  0  0  0  0  0
   -3.2476    1.1250    0.0000 O   0  0  0  0  0  0  0  0  0  0  0  0
   -1.9486    3.3750    0.0000 O   0  0  0  0  0  0  0  0  0  0  0  0
  4  1  1  0
  5  2  1  0
  5  4  1  0
  6  3  1  0
  7  4  2  0
  8  6  2  0
  9  5  1  0
  9  6  1  0
M  END
>  <NAME>  (2661) 
ACETOIN ACETATE

>  <SYNONYMS>  (2661) 
1-ACETYLETHYL ACETATE

>  <SPECTRUM TYPE>  (2661) 
MS1

>  <INSTRUMENT TYPE>  (2661) 
EI-B

>  <INSTRUMENT>  (2661) 
HITACHI M-80B

>  <ION MODE>  (2661) 
P

>  <INCHIKEY>  (2661) 
ZKPTYCJWRHHBOW-UHFFFAOYSA-N

>  <FORMULA>  (2661) 
C6H10O3

>  <EXACT MASS>  (2661) 
130.06299417999998

>  <MW>  (2661) 
130

>  <ID>  (2661) 
JP008550

>  <CONTRIBUTOR>  (2661) 
University of Tokyo Team, {Faculty of Engineering, University of Tokyo

>  <COMMENT>  (2661) 
SMILES=CC(=O)OC(C)C(C)=O
InChI=InChI=1S/C6H10O3/c1-4(7)5(2)9-6(3)8/h5H,1-3H3
computed SMILES=O=C(OC(C(=O)C)C)C
accession=JP008550
date=2016.01.19 (Created 2008.10.21, modified 2011.05.06)
author=SODA AROMATIC CO., LTD.
license=CC BY-NC-SA
exact mass=130.06299
ionization energy=70 eV
ion type=[M]+*
computed spectral entropy=1.0508474594958084
computed normalized entropy=0.45637725298108045
SPLASH=splash10-0006-9000000000-e7ac49abd7363a6c2ff9
submitter=submitter = University of Tokyo Team (Faculty of Engineering, University of Tokyo)
MoNA Rating=3.75

>  <NUM PEAKS>  (2661) 
10

>  <MASS SPECTRAL PEAKS>  (2661) 
15 4.45
27 2.25
42 2.65
43 99.99
44 2.36
45 3.74
86 1.41
87 14.37
88 1.1
130 2.56

$$$$

     RDKit          2D

  9  8  0  0  0  0  0  0  0  0999 V2000
   -7.4695    3.9375    0.0000 C   0  0  0  0  0  0  0  0  0  0  0  0
    1.6238    3.1875    0.0000 C   0  0  0  0  0  0  0  0  0  0  0  0
   -6.1704    3.1875    0.0000 C   0  0  0  0  0  0  0  0  0  0  0  0
   -3.5724    3.1875    0.0000 C   0  0  0  0  0  0  0  0  0  0  0  0
   -2.2733    3.9375    0.0000 C   0  0  0  0  0  0  0  0  0  0  0  0
    0.3248    3.9375    0.0000 C   0  0  0  0  0  0  0  0  0  0  0  0
    0.3248    5.4375    0.0000 O   0  0  0  0  0  0  0  0  0  0  0  0
   -4.8714    3.9375    0.0000 O   0  0  0  0  0  0  0  0  0  0  0  0
   -0.9743    3.1875    0.0000 O   0  0  0  0  0  0  0  0  0  0  0  0
  3  1  1  0
  5  4  1  0
  6  2  1  0
  7  6  2  0
  8  3  1  0
  8  4  1  0
  9  5  1  0
  9  6  1  0
M  END
>  <NAME>  (2662) 
2-ETHOXYETHYL ACETATE

>  <SYNONYMS>  (2662) 
ACETIC ACID 2-ETHOXYETHYL ESTER

>  <SPECTRUM TYPE>  (2662) 
MS1

>  <INSTRUMENT TYPE>  (2662) 
EI-B

>  <INSTRUMENT>  (2662) 
HITACHI M-80B

>  <ION MODE>  (2662) 
P

>  <INCHIKEY>  (2662) 
SVONRAPFKPVNKG-UHFFFAOYSA-N

>  <FORMULA>  (2662) 
C6H12O3

>  <EXACT MASS>  (2662) 
132.07864424399997

>  <MW>  (2662) 
132

>  <ID>  (2662) 
JP008549

>  <CONTRIBUTOR>  (2662) 
University of Tokyo Team, {Faculty of Engineering, University of Tokyo

>  <COMMENT>  (2662) 
SMILES=CCOCCOC(C)=O
InChI=InChI=1S/C6H12O3/c1-3-8-4-5-9-6(2)7/h3-5H2,1-2H3
computed SMILES=O=C(OCCOCC)C
accession=JP008549
date=2016.01.19 (Created 2008.10.21, modified 2011.05.06)
author=SODA AROMATIC CO., LTD.
license=CC BY-NC-SA
exact mass=132.07864
ionization energy=70 eV
ion type=[M]+*
computed spectral entropy=2.3147076452014375
computed normalized entropy=0.7602859537249089
SPLASH=splash10-0006-9000000000-391f2e28a3aa1dd252cd
submitter=submitter = University of Tokyo Team (Faculty of Engineering, University of Tokyo)
MoNA Rating=3.75

>  <NUM PEAKS>  (2662) 
21

>  <MASS SPECTRAL PEAKS>  (2662) 
15 7.69
26 1.55
27 10.09
28 3.47
29 17.64
31 34.87
41 1.65
42 4.21
43 99.99
44 20.16
45 10.48
58 1.89
59 38.52
60 1.48
61 3.43
72 33.25
73 4.16
74 1.76
87 8.38
88 6.41
89 1.25

$$$$

     RDKit          2D

  9  8  0  0  0  0  0  0  0  0999 V2000
    1.6238    3.1875    0.0000 C   0  0  0  0  0  0  0  0  0  0  0  0
   -4.8714    3.9375    0.0000 C   0  0  0  0  0  0  0  0  0  0  0  0
   -1.9385    2.0384    0.0000 C   0  0  0  0  0  0  0  0  0  0  0  0
   -0.0101    2.0384    0.0000 C   0  0  0  0  0  0  0  0  0  0  0  0
    0.3248    3.9375    0.0000 C   0  0  0  0  0  0  0  0  0  0  0  0
   -3.5724    3.1875    0.0000 C   0  0  0  0  0  0  0  0  0  0  0  0
   -0.9743    3.1875    0.0000 C   0  0  0  0  0  0  0  0  0  0  0  0
   -3.5724    1.6875    0.0000 O   0  0  0  0  0  0  0  0  0  0  0  0
   -2.2733    3.9375    0.0000 O   0  0  0  0  0  0  0  0  0  0  0  0
  5  1  2  0
  6  2  1  0
  7  3  1  0
  7  4  1  0
  7  5  1  0
  8  6  2  0
  9  6  1  0
  9  7  1  0
M  END
>  <NAME>  (2663) 
1,1-DIMETHYL-2-PROPENYL ACETATE

>  <SYNONYMS>  (2663) 
DIMETHYL VINYL CARBINYL ACETATE

>  <SPECTRUM TYPE>  (2663) 
MS1

>  <INSTRUMENT TYPE>  (2663) 
EI-B

>  <INSTRUMENT>  (2663) 
HITACHI M-80B

>  <ION MODE>  (2663) 
P

>  <INCHIKEY>  (2663) 
ZJVWGOLNVKJRDF-UHFFFAOYSA-N

>  <FORMULA>  (2663) 
C7H12O2

>  <EXACT MASS>  (2663) 
128.083729624

>  <MW>  (2663) 
128

>  <ID>  (2663) 
JP008548

>  <CONTRIBUTOR>  (2663) 
University of Tokyo Team, {Faculty of Engineering, University of Tokyo

>  <COMMENT>  (2663) 
SMILES=C=CC(C)(C)OC(C)=O
InChI=InChI=1S/C7H12O2/c1-5-7(3,4)9-6(2)8/h5H,1H2,2-4H3
computed SMILES=O=C(OC(C=C)(C)C)C
accession=JP008548
date=2016.01.19 (Created 2008.10.21, modified 2011.05.06)
author=SODA AROMATIC CO., LTD.
license=CC BY-NC-SA
exact mass=128.08373
ionization energy=70 eV
ion type=[M]+*
computed spectral entropy=2.5437393547051017
computed normalized entropy=0.7478952466622162
SPLASH=splash10-00kf-9000000000-d4f70bf5df428344a151
submitter=submitter = University of Tokyo Team (Faculty of Engineering, University of Tokyo)
MoNA Rating=3.75

>  <NUM PEAKS>  (2663) 
30

>  <MASS SPECTRAL PEAKS>  (2663) 
15 10.06
18 1.37
26 1.79
27 15.57
28 1.3
29 2.84
31 1.31
38 1.17
39 14.74
40 3.41
41 47.03
42 5.54
43 99.99
44 2.14
45 1.02
50 1.34
51 2.33
53 9.75
54 1.5
55 3.17
57 2.34
59 4.85
67 10.85
68 28.72
69 33.08
70 1.67
71 35.67
72 1.3
85 11.75
113 2.75

$$$$

     RDKit          2D

 10  9  0  0  0  0  0  0  0  0999 V2000
   -6.4952    4.5000    0.0000 C   0  0  0  0  0  0  0  0  0  0  0  0
    2.5981    3.7500    0.0000 C   0  0  0  0  0  0  0  0  0  0  0  0
   -3.8971    6.0000    0.0000 C   0  0  0  0  0  0  0  0  0  0  0  0
   -0.0000    2.2500    0.0000 C   0  0  0  0  0  0  0  0  0  0  0  0
   -5.1962    3.7500    0.0000 C   0  0  0  0  0  0  0  0  0  0  0  0
    1.2990    4.5000    0.0000 C   0  0  0  0  0  0  0  0  0  0  0  0
   -3.8971    4.5000    0.0000 C   0  0  0  0  0  0  0  0  0  0  0  0
    0.0000    3.7500    0.0000 C   0  0  0  0  0  0  0  0  0  0  0  0
   -2.5981    3.7500    0.0000 S   0  0  0  0  0  0  0  0  0  0  0  0
   -1.2990    4.5000    0.0000 S   0  0  0  0  0  0  0  0  0  0  0  0
  5  1  1  0
  6  2  1  0
  7  3  1  0
  7  5  1  0
  8  4  1  0
  8  6  1  0
  9  7  1  0
 10  8  1  0
 10  9  1  0
M  END
>  <NAME>  (2664) 
DI-SEC-BUTYL DISULFIDE

>  <SYNONYMS>  (2664) 
DI-SEC-BUTYL DISULFANE

>  <SPECTRUM TYPE>  (2664) 
MS1

>  <INSTRUMENT TYPE>  (2664) 
EI-B

>  <INSTRUMENT>  (2664) 
HITACHI M-80B

>  <ION MODE>  (2664) 
P

>  <INCHIKEY>  (2664) 
QTWKINKGAHTPFJ-UHFFFAOYSA-N

>  <FORMULA>  (2664) 
C8H18S2

>  <EXACT MASS>  (2664) 
178.084992576

>  <MW>  (2664) 
178

>  <ID>  (2664) 
JP008547

>  <CONTRIBUTOR>  (2664) 
University of Tokyo Team, {Faculty of Engineering, University of Tokyo

>  <COMMENT>  (2664) 
SMILES=CCC(C)SSC(C)CC
InChI=InChI=1S/C8H18S2/c1-5-7(3)9-10-8(4)6-2/h7-8H,5-6H2,1-4H3
computed SMILES=S(SC(C)CC)C(C)CC
accession=JP008547
date=2016.01.19 (Created 2008.10.21, modified 2011.05.06)
author=SODA AROMATIC CO., LTD.
license=CC BY-NC-SA
exact mass=178.08499
ionization energy=70 eV
ion type=[M]+*
computed spectral entropy=2.2582653778288804
computed normalized entropy=0.6931241451796388
SPLASH=splash10-0a6r-9200000000-433b24eb442935834bae
submitter=submitter = University of Tokyo Team (Faculty of Engineering, University of Tokyo)
MoNA Rating=3.75

>  <NUM PEAKS>  (2664) 
26

>  <MASS SPECTRAL PEAKS>  (2664) 
27 8.93
28 1.83
29 31.33
39 7.59
41 28.83
42 1.09
45 2.76
47 1.2
53 1.41
55 5.59
56 4.27
57 99.99
58 4.02
59 5.33
60 1.73
61 2.57
64 1.01
66 1.51
88 1.25
93 1.66
122 28.57
123 1.54
124 2.31
178 19.76
179 1.79
180 1.59

$$$$

     RDKit          2D

 15 15  0  0  0  0  0  0  0  0999 V2000
   -7.7940    4.8196    0.0000 C   0  0  0  0  0  0  0  0  0  0  0  0
   -6.4949    2.5696    0.0000 C   0  0  0  0  0  0  0  0  0  0  0  0
    3.8974    2.5696    0.0000 C   0  0  0  0  0  0  0  0  0  0  0  0
    3.8978    4.0704    0.0000 C   0  0  0  0  0  0  0  0  0  0  0  0
    2.5978    1.8188    0.0000 C   0  0  0  0  0  0  0  0  0  0  0  0
    2.5988    4.8204    0.0000 C   0  0  0  0  0  0  0  0  0  0  0  0
    1.2988    2.5688    0.0000 C   0  0  0  0  0  0  0  0  0  0  0  0
   -5.1959    4.8196    0.0000 C   0  0  0  0  0  0  0  0  0  0  0  0
   -3.8969    4.0696    0.0000 C   0  0  0  0  0  0  0  0  0  0  0  0
    0.0002    4.8196    0.0000 C   0  0  0  0  0  0  0  0  0  0  0  0
   -6.4949    4.0696    0.0000 C   0  0  0  0  0  0  0  0  0  0  0  0
    1.2993    4.0696    0.0000 C   0  0  0  0  0  0  0  0  0  0  0  0
   -1.2988    4.0696    0.0000 C   0  0  0  0  0  0  0  0  0  0  0  0
   -1.2988    2.5696    0.0000 O   0  0  0  0  0  0  0  0  0  0  0  0
   -2.5978    4.8196    0.0000 O   0  0  0  0  0  0  0  0  0  0  0  0
  4  3  2  0
  5  3  1  0
  6  4  1  0
  7  5  2  0
  9  8  1  0
 11  1  1  0
 11  2  1  0
 11  8  1  0
 12  6  2  0
 12  7  1  0
 12 10  1  0
 13 10  1  0
 14 13  2  0
 15  9  1  0
 15 13  1  0
M  END
>  <NAME>  (2665) 
3-METHYLBUTYL PHENYLACETATE

>  <SYNONYMS>  (2665) 
ISOPENTYL PHENYLACETATE

>  <SPECTRUM TYPE>  (2665) 
MS1

>  <INSTRUMENT TYPE>  (2665) 
EI-B

>  <INSTRUMENT>  (2665) 
HITACHI M-80B

>  <ION MODE>  (2665) 
P

>  <INCHIKEY>  (2665) 
QWBQBUWZZBUFHN-UHFFFAOYSA-N

>  <FORMULA>  (2665) 
C13H18O2

>  <EXACT MASS>  (2665) 
206.130679816

>  <MW>  (2665) 
206

>  <ID>  (2665) 
JP008546

>  <CONTRIBUTOR>  (2665) 
University of Tokyo Team, {Faculty of Engineering, University of Tokyo

>  <COMMENT>  (2665) 
SMILES=CC(C)CCOC(=O)Cc(c1)cccc1
InChI=InChI=1S/C13H18O2/c1-11(2)8-9-15-13(14)10-12-6-4-3-5-7-12/h3-7,11H,8-10H2,1-2H3
computed SMILES=O=C(OCCC(C)C)CC=1C=CC=CC1
accession=JP008546
date=2016.01.19 (Created 2008.10.21, modified 2011.05.06)
author=SODA AROMATIC CO., LTD.
license=CC BY-NC-SA
exact mass=206.13068
ionization energy=70 eV
ion type=[M]+*
computed spectral entropy=2.4937174106850093
computed normalized entropy=0.7405697439702011
SPLASH=splash10-0006-9000000000-47d6d9280e951b61b4bf
submitter=submitter = University of Tokyo Team (Faculty of Engineering, University of Tokyo)
MoNA Rating=3.75

>  <NUM PEAKS>  (2665) 
29

>  <MASS SPECTRAL PEAKS>  (2665) 
27 8.26
28 2.45
29 9.85
39 11.42
40 1.21
41 18.44
42 3.68
43 99.99
44 3.78
51 3.36
52 1.04
53 1.08
55 12.85
63 3.92
64 1.33
65 17.14
69 2.19
70 47.36
71 23.01
72 1.14
89 4.67
90 3.87
91 96.96
92 19.19
93 1.04
119 3.17
136 16.3
137 4.89
206 1.47

$$$$

     RDKit          2D

 17 18  0  0  0  0  0  0  0  0999 V2000
    2.6027    1.4936    0.0000 C   0  0  0  0  0  0  0  0  0  0  0  0
   -9.1263    0.6856    0.0000 C   0  0  0  0  0  0  0  0  0  0  0  0
   -9.1144   -0.8151    0.0000 C   0  0  0  0  0  0  0  0  0  0  0  0
   -7.8331    1.4472    0.0000 C   0  0  0  0  0  0  0  0  0  0  0  0
   -7.8093   -1.5544    0.0000 C   0  0  0  0  0  0  0  0  0  0  0  0
   -6.5279    0.7079    0.0000 C   0  0  0  0  0  0  0  0  0  0  0  0
    1.3000   -0.7500    0.0000 C   0  0  0  0  0  0  0  0  0  0  0  0
    0.0300    1.5000    0.0000 C   0  0  0  0  0  0  0  0  0  0  0  0
    0.0300   -1.5000    0.0000 C   0  0  0  0  0  0  0  0  0  0  0  0
   -1.3200    0.7500    0.0000 C   0  0  0  0  0  0  0  0  0  0  0  0
   -5.2108   -1.5321    0.0000 C   0  0  0  0  0  0  0  0  0  0  0  0
    1.3000    0.7500    0.0000 C   0  0  0  0  0  0  0  0  0  0  0  0
   -6.5160   -0.7929    0.0000 C   0  0  0  0  0  0  0  0  0  0  0  0
   -1.3200   -0.7500    0.0000 C   0  0  0  0  0  0  0  0  0  0  0  0
   -3.9180   -0.7714    0.0000 C   0  0  0  0  0  0  0  0  0  0  0  0
   -3.9304    0.7285    0.0000 O   0  0  0  0  0  0  0  0  0  0  0  0
   -2.6128   -1.5107    0.0000 O   0  0  0  0  0  0  0  0  0  0  0  0
  3  2  2  0
  4  2  1  0
  5  3  1  0
  6  4  2  0
  9  7  2  0
 10  8  1  0
 12  1  1  0
 12  7  1  0
 12  8  2  0
 13  5  2  0
 13  6  1  0
 13 11  1  0
 14  9  1  0
 14 10  2  0
 15 11  1  0
 16 15  2  0
 17 14  1  0
 17 15  1  0
M  END
>  <NAME>  (2666) 
PARA-CRESYL PHENYLACETATE

>  <SYNONYMS>  (2666) 
PHENYLACETIC ACID PARA-CRESYL ESTER

>  <SPECTRUM TYPE>  (2666) 
MS1

>  <INSTRUMENT TYPE>  (2666) 
EI-B

>  <INSTRUMENT>  (2666) 
HITACHI M-80B

>  <ION MODE>  (2666) 
P

>  <INCHIKEY>  (2666) 
OJEQSSJFSNLMLB-UHFFFAOYSA-N

>  <FORMULA>  (2666) 
C15H14O2

>  <EXACT MASS>  (2666) 
226.099379688

>  <MW>  (2666) 
226

>  <ID>  (2666) 
JP008545

>  <CONTRIBUTOR>  (2666) 
University of Tokyo Team, {Faculty of Engineering, University of Tokyo

>  <COMMENT>  (2666) 
SMILES=Cc(c2)ccc(c2)OC(=O)Cc(c1)cccc1
InChI=InChI=1S/C15H14O2/c1-12-7-9-14(10-8-12)17-15(16)11-13-5-3-2-4-6-13/h2-10H,11H2,1H3
computed SMILES=O=C(OC1=CC=C(C=C1)C)CC=2C=CC=CC2
accession=JP008545
date=2016.01.19 (Created 2008.10.21, modified 2011.05.06)
author=SODA AROMATIC CO., LTD.
license=CC BY-NC-SA
exact mass=226.09938
ionization energy=70 eV
ion type=[M]+*
computed spectral entropy=2.2397427816306634
computed normalized entropy=0.7047529403822111
SPLASH=splash10-014l-9700000000-76bc90418ec85695d94a
submitter=submitter = University of Tokyo Team (Faculty of Engineering, University of Tokyo)
MoNA Rating=3.75

>  <NUM PEAKS>  (2666) 
24

>  <MASS SPECTRAL PEAKS>  (2666) 
27 2.59
28 1.89
39 7.6
41 2.14
50 2.21
51 5.66
52 3.05
53 2.67
63 4.77
64 1.49
65 14.74
77 9.23
78 3.54
79 3.58
89 5.08
90 9.46
91 84.76
92 6.22
107 6.88
108 27.86
109 2.17
118 99.99
119 8
226 2.25

$$$$

     RDKit          2D

 17 18  0  0  0  0  0  0  0  0999 V2000
   -0.9736   -2.8671    0.0000 C   0  0  0  0  0  0  0  0  0  0  0  0
    4.2226    3.1329    0.0000 C   0  0  0  0  0  0  0  0  0  0  0  0
   -3.5716    3.1329    0.0000 C   0  0  0  0  0  0  0  0  0  0  0  0
    2.9231    3.8837    0.0000 C   0  0  0  0  0  0  0  0  0  0  0  0
    4.2231    1.6321    0.0000 C   0  0  0  0  0  0  0  0  0  0  0  0
   -3.5721    1.6321    0.0000 C   0  0  0  0  0  0  0  0  0  0  0  0
   -2.2721    3.8837    0.0000 C   0  0  0  0  0  0  0  0  0  0  0  0
    1.6240    3.1337    0.0000 C   0  0  0  0  0  0  0  0  0  0  0  0
    2.9240    0.8821    0.0000 C   0  0  0  0  0  0  0  0  0  0  0  0
   -2.2731    0.8821    0.0000 C   0  0  0  0  0  0  0  0  0  0  0  0
   -0.9731    3.1337    0.0000 C   0  0  0  0  0  0  0  0  0  0  0  0
   -0.9736   -1.3671    0.0000 C   0  0  0  0  0  0  0  0  0  0  0  0
    1.6245    1.6329    0.0000 C   0  0  0  0  0  0  0  0  0  0  0  0
   -0.9736    1.6329    0.0000 C   0  0  0  0  0  0  0  0  0  0  0  0
    0.3255    0.8829    0.0000 C   0  0  0  0  0  0  0  0  0  0  0  0
   -2.2726   -0.6171    0.0000 O   0  0  0  0  0  0  0  0  0  0  0  0
    0.3255   -0.6171    0.0000 O   0  0  0  0  0  0  0  0  0  0  0  0
  4  2  2  0
  5  2  1  0
  6  3  2  0
  7  3  1  0
  8  4  1  0
  9  5  2  0
 10  6  1  0
 11  7  2  0
 12  1  1  0
 13  8  2  0
 13  9  1  0
 14 10  2  0
 14 11  1  0
 15 13  1  0
 15 14  1  0
 16 12  2  0
 17 12  1  0
 17 15  1  0
M  END
>  <NAME>  (2667) 
DIPHENYLMETHYL ACETATE

>  <SYNONYMS>  (2667) 
ALPHA-PHENYLBENZYL ACETATE

>  <SPECTRUM TYPE>  (2667) 
MS1

>  <INSTRUMENT TYPE>  (2667) 
EI-B

>  <INSTRUMENT>  (2667) 
HITACHI M-80B

>  <ION MODE>  (2667) 
P

>  <INCHIKEY>  (2667) 
QBKMWJRMLACRJD-UHFFFAOYSA-N

>  <FORMULA>  (2667) 
C15H14O2

>  <EXACT MASS>  (2667) 
226.099379688

>  <MW>  (2667) 
226

>  <ID>  (2667) 
JP008544

>  <CONTRIBUTOR>  (2667) 
University of Tokyo Team, {Faculty of Engineering, University of Tokyo

>  <COMMENT>  (2667) 
SMILES=CC(=O)OC(c(c2)cccc2)c(c1)cccc1
InChI=InChI=1S/C15H14O2/c1-12(16)17-15(13-8-4-2-5-9-13)14-10-6-3-7-11-14/h2-11,15H,1H3
computed SMILES=O=C(OC(C=1C=CC=CC1)C=2C=CC=CC2)C
accession=JP008544
date=2016.01.19 (Created 2008.10.21, modified 2011.05.06)
author=SODA AROMATIC CO., LTD.
license=CC BY-NC-SA
exact mass=226.09938
ionization energy=70 eV
ion type=[M]+*
computed spectral entropy=1.4274571837167684
computed normalized entropy=0.5271162193137245
SPLASH=splash10-0006-9000000000-c8776d5c7623a6af3f84
submitter=submitter = University of Tokyo Team (Faculty of Engineering, University of Tokyo)
MoNA Rating=3.75

>  <NUM PEAKS>  (2667) 
15

>  <MASS SPECTRAL PEAKS>  (2667) 
39 5.79
41 1.95
50 1.13
51 3.9
52 1.24
63 3.31
64 1.03
65 14.85
77 2.95
89 3.02
90 2.14
91 99.99
92 7.68
108 1.12
226 1.97

$$$$

     RDKit          2D

 15 15  0  0  0  0  0  0  0  0999 V2000
   -6.8197    3.1321    0.0000 C   0  0  0  0  0  0  0  0  0  0  0  0
   -1.9584    5.0312    0.0000 C   0  0  0  0  0  0  0  0  0  0  0  0
   -3.8868    5.0312    0.0000 C   0  0  0  0  0  0  0  0  0  0  0  0
    3.5726    1.6321    0.0000 C   0  0  0  0  0  0  0  0  0  0  0  0
    3.5731    3.1329    0.0000 C   0  0  0  0  0  0  0  0  0  0  0  0
    2.2731    0.8813    0.0000 C   0  0  0  0  0  0  0  0  0  0  0  0
    2.2740    3.8829    0.0000 C   0  0  0  0  0  0  0  0  0  0  0  0
    0.9740    1.6313    0.0000 C   0  0  0  0  0  0  0  0  0  0  0  0
   -0.3245    3.8821    0.0000 C   0  0  0  0  0  0  0  0  0  0  0  0
   -1.6236    3.1321    0.0000 C   0  0  0  0  0  0  0  0  0  0  0  0
   -5.5207    3.8821    0.0000 C   0  0  0  0  0  0  0  0  0  0  0  0
    0.9745    3.1321    0.0000 C   0  0  0  0  0  0  0  0  0  0  0  0
   -2.9226    3.8821    0.0000 C   0  0  0  0  0  0  0  0  0  0  0  0
   -5.5207    5.3821    0.0000 O   0  0  0  0  0  0  0  0  0  0  0  0
   -4.2216    3.1321    0.0000 O   0  0  0  0  0  0  0  0  0  0  0  0
  5  4  2  0
  6  4  1  0
  7  5  1  0
  8  6  2  0
 10  9  1  0
 11  1  1  0
 12  7  2  0
 12  8  1  0
 12  9  1  0
 13  2  1  0
 13  3  1  0
 13 10  1  0
 14 11  2  0
 15 11  1  0
 15 13  1  0
M  END
>  <NAME>  (2668) 
1,1-DIMETHYL-3-PHENYLPROPYL ACETATE

>  <SYNONYMS>  (2668) 
DIMETHYL PHENYLETHYL CARBINYL ACETATE

>  <SPECTRUM TYPE>  (2668) 
MS1

>  <INSTRUMENT TYPE>  (2668) 
EI-B

>  <INSTRUMENT>  (2668) 
HITACHI M-80B

>  <ION MODE>  (2668) 
P

>  <INCHIKEY>  (2668) 
ZXFNOEJFYLQUSB-UHFFFAOYSA-N

>  <FORMULA>  (2668) 
C13H18O2

>  <EXACT MASS>  (2668) 
206.130679816

>  <MW>  (2668) 
206

>  <ID>  (2668) 
JP008543

>  <CONTRIBUTOR>  (2668) 
University of Tokyo Team, {Faculty of Engineering, University of Tokyo

>  <COMMENT>  (2668) 
SMILES=CC(=O)OC(C)(C)CCc(c1)cccc1
InChI=InChI=1S/C13H18O2/c1-11(14)15-13(2,3)10-9-12-7-5-4-6-8-12/h4-8H,9-10H2,1-3H3
computed SMILES=O=C(OC(C)(C)CCC=1C=CC=CC1)C
accession=JP008543
date=2016.01.19 (Created 2008.10.21, modified 2011.05.06)
author=SODA AROMATIC CO., LTD.
license=CC BY-NC-SA
exact mass=206.13068
ionization energy=70 eV
ion type=[M]+*
computed spectral entropy=2.7397305916445873
computed normalized entropy=0.7239940004824202
SPLASH=splash10-000x-9600000000-3b359589af1982a1b9a8
submitter=submitter = University of Tokyo Team (Faculty of Engineering, University of Tokyo)
MoNA Rating=3.75

>  <NUM PEAKS>  (2668) 
44

>  <MASS SPECTRAL PEAKS>  (2668) 
15 3.77
18 3.27
27 4.4
28 1.33
29 2.38
31 1.51
39 9.06
41 8.84
42 1.31
43 75.56
44 1.53
50 1.51
51 6.22
52 1.36
53 1.59
55 1.68
56 2.45
59 12.36
63 2.63
65 14.48
66 1.04
68 2.12
77 9.05
78 3.64
79 3.35
89 2.21
91 70.05
92 5.13
101 1.62
103 3.66
104 4.15
105 9.44
115 2.24
116 1.76
117 2.27
128 1.42
129 2.47
130 1.07
131 99.99
132 11.39
145 2.27
146 42.45
147 6.27
149 4.44

$$$$

     RDKit          2D

 14 14  0  0  0  0  0  0  0  0999 V2000
   -5.8454    3.6946    0.0000 C   0  0  0  0  0  0  0  0  0  0  0  0
   -2.9125    1.7955    0.0000 C   0  0  0  0  0  0  0  0  0  0  0  0
   -0.9841    1.7955    0.0000 C   0  0  0  0  0  0  0  0  0  0  0  0
    3.2478    1.4446    0.0000 C   0  0  0  0  0  0  0  0  0  0  0  0
    3.2483    2.9454    0.0000 C   0  0  0  0  0  0  0  0  0  0  0  0
    1.9483    0.6938    0.0000 C   0  0  0  0  0  0  0  0  0  0  0  0
    1.9493    3.6954    0.0000 C   0  0  0  0  0  0  0  0  0  0  0  0
    0.6493    1.4438    0.0000 C   0  0  0  0  0  0  0  0  0  0  0  0
   -0.6493    3.6946    0.0000 C   0  0  0  0  0  0  0  0  0  0  0  0
   -4.5464    2.9446    0.0000 C   0  0  0  0  0  0  0  0  0  0  0  0
    0.6498    2.9446    0.0000 C   0  0  0  0  0  0  0  0  0  0  0  0
   -1.9483    2.9446    0.0000 C   0  0  0  0  0  0  0  0  0  0  0  0
   -4.5464    1.4446    0.0000 O   0  0  0  0  0  0  0  0  0  0  0  0
   -3.2474    3.6946    0.0000 O   0  0  0  0  0  0  0  0  0  0  0  0
  5  4  2  0
  6  4  1  0
  7  5  1  0
  8  6  2  0
 10  1  1  0
 11  7  2  0
 11  8  1  0
 11  9  1  0
 12  2  1  0
 12  3  1  0
 12  9  1  0
 13 10  2  0
 14 10  1  0
 14 12  1  0
M  END
>  <NAME>  (2669) 
1,1-DIMETHYL-2-PHENYLETHYL ACETATE

>  <SYNONYMS>  (2669) 
DIMETHYL BENZYL CARBINYL ACETATE

>  <SPECTRUM TYPE>  (2669) 
MS1

>  <INSTRUMENT TYPE>  (2669) 
EI-B

>  <INSTRUMENT>  (2669) 
HITACHI M-80B

>  <ION MODE>  (2669) 
P

>  <INCHIKEY>  (2669) 
FLUWAIIVLCVEKF-UHFFFAOYSA-N

>  <FORMULA>  (2669) 
C12H16O2

>  <EXACT MASS>  (2669) 
192.115029752

>  <MW>  (2669) 
192

>  <ID>  (2669) 
JP008542

>  <CONTRIBUTOR>  (2669) 
University of Tokyo Team, {Faculty of Engineering, University of Tokyo

>  <COMMENT>  (2669) 
SMILES=CC(=O)OC(C)(C)Cc(c1)cccc1
InChI=InChI=1S/C12H16O2/c1-10(13)14-12(2,3)9-11-7-5-4-6-8-11/h4-8H,9H2,1-3H3
computed SMILES=O=C(OC(C)(C)CC=1C=CC=CC1)C
accession=JP008542
date=2016.01.19 (Created 2008.10.21, modified 2011.05.06)
author=SODA AROMATIC CO., LTD.
license=CC BY-NC-SA
exact mass=192.11503
ionization energy=70 eV
ion type=[M]+*
computed spectral entropy=2.2827336802212765
computed normalized entropy=0.7006341443791269
SPLASH=splash10-0006-9200000000-c6be4e527c151768a762
submitter=submitter = University of Tokyo Team (Faculty of Engineering, University of Tokyo)
MoNA Rating=3.75

>  <NUM PEAKS>  (2669) 
26

>  <MASS SPECTRAL PEAKS>  (2669) 
15 2.37
27 1.62
29 1.63
31 1.18
39 5.44
41 2.34
43 99.99
44 2.09
51 2.51
55 2.02
59 23.9
63 1.84
65 7.84
77 1.48
78 1.03
89 1.59
91 27.14
92 5.87
101 7.84
105 1.33
115 2.36
117 7.95
132 22.32
133 5.24
134 4.18
135 5.39

$$$$

     RDKit          2D

 11 11  0  0  0  0  0  0  0  0999 V2000
    2.6360    0.5353    0.0000 C   0  0  0  0  0  0  0  0  0  0  0  0
   -6.2939   -1.0041    0.0000 C   0  0  0  0  0  0  0  0  0  0  0  0
    0.7500   -1.3600    0.0000 C   0  0  0  0  0  0  0  0  0  0  0  0
   -0.7500   -1.3600    0.0000 C   0  0  0  0  0  0  0  0  0  0  0  0
   -2.6360    0.5353    0.0000 C   0  0  0  0  0  0  0  0  0  0  0  0
    1.2100    0.0700    0.0000 C   0  0  0  0  0  0  0  0  0  0  0  0
   -5.1780   -0.0018    0.0000 C   0  0  0  0  0  0  0  0  0  0  0  0
   -1.2100    0.0700    0.0000 C   0  0  0  0  0  0  0  0  0  0  0  0
   -5.4880    1.4658    0.0000 O   0  0  0  0  0  0  0  0  0  0  0  0
   -3.7520   -0.4670    0.0000 O   0  0  0  0  0  0  0  0  0  0  0  0
    0.0000    0.9500    0.0000 O   0  0  0  0  0  0  0  0  0  0  0  0
  4  3  1  0
  6  1  1  0
  6  3  2  0
  7  2  1  0
  8  4  2  0
  8  5  1  0
  9  7  2  0
 10  5  1  0
 10  7  1  0
 11  6  1  0
 11  8  1  0
M  END
>  <NAME>  (2670) 
5-METHYL-2-FURFURYL ACETATE

>  <SYNONYMS>  (2670) 


>  <SPECTRUM TYPE>  (2670) 
MS1

>  <INSTRUMENT TYPE>  (2670) 
EI-B

>  <INSTRUMENT>  (2670) 
HITACHI M-80B

>  <ION MODE>  (2670) 
P

>  <INCHIKEY>  (2670) 
WCAYUXKMYBPHIN-UHFFFAOYSA-N

>  <FORMULA>  (2670) 
C8H10O3

>  <EXACT MASS>  (2670) 
154.06299417999998

>  <MW>  (2670) 
154

>  <ID>  (2670) 
JP008541

>  <CONTRIBUTOR>  (2670) 
University of Tokyo Team, {Faculty of Engineering, University of Tokyo

>  <COMMENT>  (2670) 
SMILES=CC(=O)OCc(c1)oc(C)c1
InChI=InChI=1S/C8H10O3/c1-6-3-4-8(11-6)5-10-7(2)9/h3-4H,5H2,1-2H3
computed SMILES=O=C(OCC=1OC(=CC1)C)C
accession=JP008541
date=2016.01.19 (Created 2008.10.21, modified 2011.05.06)
author=SODA AROMATIC CO., LTD.
license=CC BY-NC-SA
exact mass=154.06299
ionization energy=70 eV
ion type=[M]+*
computed spectral entropy=2.6336747628875474
computed normalized entropy=0.7599179039464562
SPLASH=splash10-0005-9100000000-5fb77e65edbb7363cf5a
submitter=submitter = University of Tokyo Team (Faculty of Engineering, University of Tokyo)
MoNA Rating=3.75

>  <NUM PEAKS>  (2670) 
32

>  <MASS SPECTRAL PEAKS>  (2670) 
15 7.13
26 1.31
27 6.45
29 3.2
38 1
39 6.65
40 1.37
41 7.43
42 3.75
43 46.91
50 4.39
51 7.69
52 6.8
53 6.46
55 4.25
65 3.07
66 1.77
67 3.75
69 1.11
79 23.91
80 2.79
83 1.79
84 1
94 20.36
95 99.99
96 6.41
97 3.49
109 2.39
111 4.37
112 13.79
154 21.62
155 1.6

$$$$

     RDKit          2D

 14 14  0  0  0  0  0  0  0  0999 V2000
   -1.9498    2.7991    0.0000 C   0  0  0  0  0  0  0  0  0  0  0  0
   -1.4013   -1.1526    0.0000 C   0  0  0  0  0  0  0  0  0  0  0  0
   -1.9500   -3.2017    0.0000 C   0  0  0  0  0  0  0  0  0  0  0  0
    0.0991   -3.7504    0.0000 C   0  0  0  0  0  0  0  0  0  0  0  0
    3.2478   -1.7013    0.0000 C   0  0  0  0  0  0  0  0  0  0  0  0
    3.2478   -0.2013    0.0000 C   0  0  0  0  0  0  0  0  0  0  0  0
    1.9478   -2.4513    0.0000 C   0  0  0  0  0  0  0  0  0  0  0  0
    1.9478    0.5487    0.0000 C   0  0  0  0  0  0  0  0  0  0  0  0
   -0.6508    2.0489    0.0000 C   0  0  0  0  0  0  0  0  0  0  0  0
    0.6478   -1.7013    0.0000 C   0  0  0  0  0  0  0  0  0  0  0  0
    0.6478   -0.2013    0.0000 C   0  0  0  0  0  0  0  0  0  0  0  0
   -0.6511   -2.4515    0.0000 C   0  0  0  0  0  0  0  0  0  0  0  0
    0.6483    2.7987    0.0000 O   0  0  0  0  0  0  0  0  0  0  0  0
   -0.6511    0.5489    0.0000 O   0  0  0  0  0  0  0  0  0  0  0  0
  6  5  1  0
  7  5  1  0
  8  6  1  0
  9  1  1  0
 10  7  1  0
 11  8  1  0
 11 10  1  0
 12  2  1  0
 12  3  1  0
 12  4  1  0
 12 10  1  0
 13  9  2  0
 14  9  1  0
 14 11  1  0
M  END
>  <NAME>  (2671) 
2-TERT-BUTYLCYCLOHEXYL ACETATE

>  <SYNONYMS>  (2671) 
2-(1,1-DIMETHYLETHYL)CYCLOHEXYL ACETATE

>  <SPECTRUM TYPE>  (2671) 
MS1

>  <INSTRUMENT TYPE>  (2671) 
EI-B

>  <INSTRUMENT>  (2671) 
HITACHI M-80B

>  <ION MODE>  (2671) 
P

>  <INCHIKEY>  (2671) 
FINOAUDUYKVGDS-UHFFFAOYSA-N

>  <FORMULA>  (2671) 
C12H22O2

>  <EXACT MASS>  (2671) 
198.161979944

>  <MW>  (2671) 
198

>  <ID>  (2671) 
JP008540

>  <CONTRIBUTOR>  (2671) 
University of Tokyo Team, {Faculty of Engineering, University of Tokyo

>  <COMMENT>  (2671) 
SMILES=CC(=O)OC(C1)C(CCC1)C(C)(C)C
InChI=InChI=1S/C12H22O2/c1-9(13)14-11-8-6-5-7-10(11)12(2,3)4/h10-11H,5-8H2,1-4H3
computed SMILES=O=C(OC1CCCCC1C(C)(C)C)C
accession=JP008540
date=2016.01.19 (Created 2008.10.21, modified 2011.05.06)
author=SODA AROMATIC CO., LTD.
license=CC BY-NC-SA
exact mass=198.16198
ionization energy=70 eV
ion type=[M]+*
computed spectral entropy=2.7594860081937407
computed normalized entropy=0.7700492324962044
SPLASH=splash10-0a5c-9000000000-bd6cda624657021ec943
submitter=submitter = University of Tokyo Team (Faculty of Engineering, University of Tokyo)
MoNA Rating=3.75

>  <NUM PEAKS>  (2671) 
36

>  <MASS SPECTRAL PEAKS>  (2671) 
15 2.73
27 5.68
28 2.03
29 14.39
39 7.68
40 1.14
41 31.22
42 2.37
43 62.48
44 1.58
53 4.7
54 9.69
55 12.94
56 7.43
57 99.99
58 4.85
61 14.35
67 40.44
68 2.42
69 6.23
70 1.87
71 1.53
77 1.56
79 2.71
80 12.85
81 17.27
82 78.8
83 11.28
95 4.25
99 2.17
117 5.11
123 13.05
124 1.12
138 2.08
141 1.49
142 1.02

$$$$

     RDKit          2D

 14 13  0  0  0  0  0  0  0  0999 V2000
    2.9228    5.4375    0.0000 C   0  0  0  0  0  0  0  0  0  0  0  0
   -4.4202    2.8789    0.0000 C   0  0  0  0  0  0  0  0  0  0  0  0
   -8.7685    6.1875    0.0000 C   0  0  0  0  0  0  0  0  0  0  0  0
   -5.8356    4.2884    0.0000 C   0  0  0  0  0  0  0  0  0  0  0  0
    1.6238    6.1875    0.0000 C   0  0  0  0  0  0  0  0  0  0  0  0
   -3.9072    4.2884    0.0000 C   0  0  0  0  0  0  0  0  0  0  0  0
    0.3248    5.4375    0.0000 C   0  0  0  0  0  0  0  0  0  0  0  0
   -0.9743    6.1875    0.0000 C   0  0  0  0  0  0  0  0  0  0  0  0
   -2.2733    5.4375    0.0000 C   0  0  0  0  0  0  0  0  0  0  0  0
   -3.5724    6.1875    0.0000 C   0  0  0  0  0  0  0  0  0  0  0  0
   -7.4695    5.4375    0.0000 C   0  0  0  0  0  0  0  0  0  0  0  0
   -4.8714    5.4375    0.0000 C   0  0  0  0  0  0  0  0  0  0  0  0
   -7.4695    3.9375    0.0000 O   0  0  0  0  0  0  0  0  0  0  0  0
   -6.1704    6.1875    0.0000 O   0  0  0  0  0  0  0  0  0  0  0  0
  5  1  1  0
  6  2  1  0
  7  5  1  0
  8  7  1  0
  9  8  1  0
 10  9  1  0
 11  3  1  0
 12  4  1  0
 12  6  1  0
 12 10  1  0
 13 11  2  0
 14 11  1  0
 14 12  1  0
M  END
>  <NAME>  (2672) 
1-ETHYL-1-METHYLHEPTYL ACETATE

>  <SYNONYMS>  (2672) 
ETHYL HEXYL METHYL CARBINYL ACETATE

>  <SPECTRUM TYPE>  (2672) 
MS1

>  <INSTRUMENT TYPE>  (2672) 
EI-B

>  <INSTRUMENT>  (2672) 
HITACHI M-80B

>  <ION MODE>  (2672) 
P

>  <INCHIKEY>  (2672) 
HVPKIOUHNVOKDK-UHFFFAOYSA-N

>  <FORMULA>  (2672) 
C12H24O2

>  <EXACT MASS>  (2672) 
200.177630008

>  <MW>  (2672) 
200

>  <ID>  (2672) 
JP008539

>  <CONTRIBUTOR>  (2672) 
University of Tokyo Team, {Faculty of Engineering, University of Tokyo

>  <COMMENT>  (2672) 
SMILES=CCCCCCC(C)(CC)OC(C)=O
InChI=InChI=1S/C12H24O2/c1-5-7-8-9-10-12(4,6-2)14-11(3)13/h5-10H2,1-4H3
computed SMILES=O=C(OC(C)(CC)CCCCCC)C
accession=JP008539
date=2016.01.19 (Created 2008.10.21, modified 2011.05.06)
author=SODA AROMATIC CO., LTD.
license=CC BY-NC-SA
exact mass=200.17763
ionization energy=70 eV
ion type=[M]+*
computed spectral entropy=2.902915841672496
computed normalized entropy=0.7980335624244979
SPLASH=splash10-006x-9200000000-0c5ef419b07427da5489
submitter=submitter = University of Tokyo Team (Faculty of Engineering, University of Tokyo)
MoNA Rating=3.75

>  <NUM PEAKS>  (2672) 
38

>  <MASS SPECTRAL PEAKS>  (2672) 
15 2.09
27 9.92
28 1.48
29 16.72
39 6.08
41 22.82
42 4.9
43 99.99
44 2.16
45 3.81
53 2.18
54 1.08
55 27.64
56 4.54
57 12.81
58 4.37
59 1.53
67 1.95
68 1.27
69 18.32
70 23.75
71 10.61
72 1.36
73 47.58
74 2.01
83 8.26
84 1.53
85 5.12
111 7.7
112 1.03
115 31.22
116 1.92
129 36.15
130 4.35
140 5.53
141 2.18
143 5.86
171 3.47

$$$$

     RDKit          2D

 16 15  0  0  0  0  0  0  0  0999 V2000
    4.5466    7.8750    0.0000 C   0  0  0  0  0  0  0  0  0  0  0  0
  -13.6399    7.8750    0.0000 C   0  0  0  0  0  0  0  0  0  0  0  0
    3.2476    8.6250    0.0000 C   0  0  0  0  0  0  0  0  0  0  0  0
    1.9486    7.8750    0.0000 C   0  0  0  0  0  0  0  0  0  0  0  0
    0.6495    8.6250    0.0000 C   0  0  0  0  0  0  0  0  0  0  0  0
   -0.6495    7.8750    0.0000 C   0  0  0  0  0  0  0  0  0  0  0  0
   -1.9486    8.6250    0.0000 C   0  0  0  0  0  0  0  0  0  0  0  0
   -3.2476    7.8750    0.0000 C   0  0  0  0  0  0  0  0  0  0  0  0
   -4.5466    8.6250    0.0000 C   0  0  0  0  0  0  0  0  0  0  0  0
   -5.8457    7.8750    0.0000 C   0  0  0  0  0  0  0  0  0  0  0  0
   -7.1447    8.6250    0.0000 C   0  0  0  0  0  0  0  0  0  0  0  0
   -8.4437    7.8750    0.0000 C   0  0  0  0  0  0  0  0  0  0  0  0
   -9.7428    8.6250    0.0000 C   0  0  0  0  0  0  0  0  0  0  0  0
  -12.3409    8.6250    0.0000 C   0  0  0  0  0  0  0  0  0  0  0  0
  -12.3409   10.1250    0.0000 O   0  0  0  0  0  0  0  0  0  0  0  0
  -11.0418    7.8750    0.0000 O   0  0  0  0  0  0  0  0  0  0  0  0
  3  1  2  0
  4  3  1  0
  5  4  1  0
  6  5  1  0
  7  6  1  0
  8  7  1  0
  9  8  1  0
 10  9  1  0
 11 10  1  0
 12 11  1  0
 13 12  1  0
 14  2  1  0
 15 14  2  0
 16 13  1  0
 16 14  1  0
M  END
>  <NAME>  (2673) 
11-DODECENYL ACETATE

>  <SYNONYMS>  (2673) 
ACETIC ACID 11-DODECENYL ESTER

>  <SPECTRUM TYPE>  (2673) 
MS1

>  <INSTRUMENT TYPE>  (2673) 
EI-B

>  <INSTRUMENT>  (2673) 
HITACHI M-80B

>  <ION MODE>  (2673) 
P

>  <INCHIKEY>  (2673) 
ANBOMSJGDBBKMR-UHFFFAOYSA-N

>  <FORMULA>  (2673) 
C14H26O2

>  <EXACT MASS>  (2673) 
226.193280072

>  <MW>  (2673) 
226

>  <ID>  (2673) 
JP008538

>  <CONTRIBUTOR>  (2673) 
University of Tokyo Team, {Faculty of Engineering, University of Tokyo

>  <COMMENT>  (2673) 
SMILES=C=CCCCCCCCCCCOC(C)=O
InChI=InChI=1S/C14H26O2/c1-3-4-5-6-7-8-9-10-11-12-13-16-14(2)15/h3H,1,4-13H2,2H3
computed SMILES=O=C(OCCCCCCCCCCC=C)C
accession=JP008538
date=2016.01.19 (Created 2008.10.21, modified 2011.05.06)
author=SODA AROMATIC CO., LTD.
license=CC BY-NC-SA
exact mass=226.19328
ionization energy=70 eV
ion type=[M]+*
computed spectral entropy=3.072939528954918
computed normalized entropy=0.807252951164664
SPLASH=splash10-00kf-9000000000-bf191117f05af0eef16d
submitter=submitter = University of Tokyo Team (Faculty of Engineering, University of Tokyo)
MoNA Rating=3.75

>  <NUM PEAKS>  (2673) 
45

>  <MASS SPECTRAL PEAKS>  (2673) 
15 3.06
27 7.85
28 1.42
29 15.42
31 1.08
39 11.49
40 2.33
41 53.1
42 10.59
43 99.99
44 2.61
53 5.13
54 37.8
55 60.74
56 8.71
57 5.5
58 1.01
61 10.54
65 1.05
66 2.79
67 34.48
68 42.12
69 29.86
70 3.6
71 1.57
72 1.14
73 3.06
79 1.8
80 1.75
81 29.67
82 40.92
83 15.64
84 1.49
94 1.11
95 20.06
96 21.87
97 4.42
109 8.17
110 7.98
111 1.25
123 3.25
124 3.72
137 1.55
138 2.3
166 1.9

$$$$

     RDKit          2D

 11 11  0  0  1  0  0  0  0  0999 V2000
   -2.2386    2.7951    0.0000 C   0  0  0  0  0  0  0  0  0  0  0  0
   -3.5376    0.5451    0.0000 C   0  0  0  0  0  0  0  0  0  0  0  0
    2.9576   -1.7049    0.0000 C   0  0  0  0  0  0  0  0  0  0  0  0
    0.3590   -1.7058    0.0000 C   0  0  0  0  0  0  0  0  0  0  0  0
   -0.9400   -0.9558    0.0000 C   0  0  0  0  0  0  0  0  0  0  0  0
    0.3600    1.2959    0.0000 C   0  0  0  0  0  0  0  0  0  0  0  0
   -2.2386    1.2951    0.0000 C   0  0  0  0  0  0  0  0  0  0  0  0
    1.6585   -0.9549    0.0000 C   0  0  0  0  0  0  0  0  0  0  0  0
   -0.9395    0.5451    0.0000 C   0  0  0  0  0  0  0  0  0  0  0  0
    1.6590    0.5459    0.0000 C   0  0  0  0  0  0  0  0  0  0  0  0
    2.9582    1.2957    0.0000 O   0  0  0  0  0  0  0  0  0  0  0  0
  5  4  1  0
  7  1  2  0
  7  2  1  0
  8  3  1  0
  8  4  2  0
  9  5  1  0
  9  6  1  0
  9  7  1  6
 10  6  1  0
 10  8  1  0
 10 11  1  6
M  END
>  <NAME>  (2674) 
L-CIS-CARVEOL

>  <SYNONYMS>  (2674) 


>  <SPECTRUM TYPE>  (2674) 
MS1

>  <INSTRUMENT TYPE>  (2674) 
EI-B

>  <INSTRUMENT>  (2674) 
HITACHI M-80B

>  <ION MODE>  (2674) 
P

>  <INCHIKEY>  (2674) 
BAVONGHXFVOKBV-UWVGGRQHSA-N

>  <FORMULA>  (2674) 
C10H16O

>  <EXACT MASS>  (2674) 
152.120115132

>  <MW>  (2674) 
152

>  <ID>  (2674) 
JP008537

>  <CONTRIBUTOR>  (2674) 
University of Tokyo Team, {Faculty of Engineering, University of Tokyo

>  <COMMENT>  (2674) 
SMILES=CC(=C)C(C1)CC(O)C(C)=C1
InChI=InChI=1S/C10H16O/c1-7(2)9-5-4-8(3)10(11)6-9/h4,9-11H,1,5-6H2,2-3H3/t9-,10-/m0/s1
computed SMILES=OC1C(=CCC(C(=C)C)C1)C
accession=JP008537
date=2016.01.19 (Created 2008.10.21, modified 2011.05.06)
author=SODA AROMATIC CO., LTD.
license=CC BY-NC-SA
exact mass=152.12012
ionization energy=70 eV
ion type=[M]+*
computed spectral entropy=3.6746354996952597
computed normalized entropy=0.862048196367443
SPLASH=splash10-001i-9200000000-d4716ca54826ec99b28b
submitter=submitter = University of Tokyo Team (Faculty of Engineering, University of Tokyo)
MoNA Rating=3.75

>  <NUM PEAKS>  (2674) 
71

>  <MASS SPECTRAL PEAKS>  (2674) 
15 1.58
18 2.32
26 1.24
27 23.13
28 3.92
29 15.04
31 2.76
38 2.31
39 37.55
40 5.78
41 49.58
42 4.36
43 28.18
44 3.55
45 2.31
50 2.6
51 9.12
52 3.3
53 22.91
54 4.59
55 42.02
56 19.11
57 3.72
59 2.25
62 1.03
63 3.42
64 1.01
65 9.63
66 4.3
67 20.82
68 7.2
69 33.75
70 2.25
71 2.5
72 2.3
77 18.45
78 4
79 21.69
80 20.84
81 22.06
82 9.12
83 39.67
84 99.99
85 4.98
91 21.04
92 12.76
93 21.81
94 18.67
95 21.78
96 5.5
97 5.16
103 1.49
105 8.6
106 4.21
107 4.9
108 6.66
109 51.68
110 5.94
111 1.68
115 1.12
117 1.25
119 22.16
120 1.91
121 2.29
123 10.5
124 2.14
134 48.13
135 5.15
137 9.78
138 1.02
152 3.19

$$$$

     RDKit          2D

 16 15  0  0  0  0  0  0  0  0999 V2000
    4.5466    7.8750    0.0000 C   0  0  0  0  0  0  0  0  0  0  0  0
  -13.6399    7.8750    0.0000 C   0  0  0  0  0  0  0  0  0  0  0  0
    3.2476    8.6250    0.0000 C   0  0  0  0  0  0  0  0  0  0  0  0
    1.9486    7.8750    0.0000 C   0  0  0  0  0  0  0  0  0  0  0  0
    0.6495    8.6250    0.0000 C   0  0  0  0  0  0  0  0  0  0  0  0
   -0.6495    7.8750    0.0000 C   0  0  0  0  0  0  0  0  0  0  0  0
   -1.9486    8.6250    0.0000 C   0  0  0  0  0  0  0  0  0  0  0  0
   -3.2476    7.8750    0.0000 C   0  0  0  0  0  0  0  0  0  0  0  0
   -4.5466    8.6250    0.0000 C   0  0  0  0  0  0  0  0  0  0  0  0
   -5.8457    7.8750    0.0000 C   0  0  0  0  0  0  0  0  0  0  0  0
   -7.1447    8.6250    0.0000 C   0  0  0  0  0  0  0  0  0  0  0  0
   -8.4437    7.8750    0.0000 C   0  0  0  0  0  0  0  0  0  0  0  0
   -9.7428    8.6250    0.0000 C   0  0  0  0  0  0  0  0  0  0  0  0
  -12.3409    8.6250    0.0000 C   0  0  0  0  0  0  0  0  0  0  0  0
  -12.3409   10.1250    0.0000 O   0  0  0  0  0  0  0  0  0  0  0  0
  -11.0418    7.8750    0.0000 O   0  0  0  0  0  0  0  0  0  0  0  0
  3  1  1  0
  4  3  1  0
  5  4  1  0
  6  5  1  0
  7  6  1  0
  8  7  1  0
  9  8  1  0
 10  9  1  0
 11 10  1  0
 11 12  2  0
 13 12  1  0
 14  2  1  0
 15 14  2  0
 16 13  1  0
 16 14  1  0
M  END
>  <NAME>  (2675) 
TRANS-2-DODECENYL ACETATE

>  <SYNONYMS>  (2675) 
ACETIC ACID TRANS-2-DODECENYL ESTER

>  <SPECTRUM TYPE>  (2675) 
MS1

>  <INSTRUMENT TYPE>  (2675) 
EI-B

>  <INSTRUMENT>  (2675) 
HITACHI M-80B

>  <ION MODE>  (2675) 
P

>  <INCHIKEY>  (2675) 
AMIUTTABDVIFDZ-VAWYXSNFSA-N

>  <FORMULA>  (2675) 
C14H26O2

>  <EXACT MASS>  (2675) 
226.193280072

>  <MW>  (2675) 
226

>  <ID>  (2675) 
JP008536

>  <CONTRIBUTOR>  (2675) 
University of Tokyo Team, {Faculty of Engineering, University of Tokyo

>  <COMMENT>  (2675) 
SMILES=CCCCCCCCCC=CCOC(C)=O
InChI=InChI=1S/C14H26O2/c1-3-4-5-6-7-8-9-10-11-12-13-16-14(2)15/h11-12H,3-10,13H2,1-2H3/b12-11+
computed SMILES=O=C(OCC=CCCCCCCCCC)C
accession=JP008536
date=2016.01.19 (Created 2008.10.21, modified 2011.05.06)
author=SODA AROMATIC CO., LTD.
license=CC BY-NC-SA
exact mass=226.19328
ionization energy=70 eV
ion type=[M]+*
computed spectral entropy=3.2261066587360627
computed normalized entropy=0.8246645416603284
SPLASH=splash10-0006-9100000000-7cff861bfa886e930e3c
submitter=submitter = University of Tokyo Team (Faculty of Engineering, University of Tokyo)
MoNA Rating=3.75

>  <NUM PEAKS>  (2675) 
50

>  <MASS SPECTRAL PEAKS>  (2675) 
15 1.59
27 6.87
29 13.05
39 7.35
41 24.21
42 5.49
43 99.99
44 2.3
53 4.78
54 24.75
55 21.46
56 5.29
57 12.94
58 2.22
61 1.38
66 1.97
67 16.36
68 14.23
69 12.14
70 4.81
71 7.08
72 2.56
73 1.17
79 1.83
80 1.39
81 16.32
82 20.45
83 8.33
84 2.09
85 1.93
86 1.45
95 10.92
96 16.71
97 4.88
99 2.29
100 3.89
109 5.93
110 4.95
111 1.39
113 2.22
114 4.16
115 1.69
123 1.85
124 3.12
137 1.22
138 7.84
155 1.67
166 3.21
183 1.13
184 4.28

$$$$

     RDKit          2D

 14 13  0  0  0  0  0  0  0  0999 V2000
    3.8971    6.7500    0.0000 C   0  0  0  0  0  0  0  0  0  0  0  0
  -11.6913    6.7500    0.0000 C   0  0  0  0  0  0  0  0  0  0  0  0
    2.5981    7.5000    0.0000 C   0  0  0  0  0  0  0  0  0  0  0  0
    1.2990    6.7500    0.0000 C   0  0  0  0  0  0  0  0  0  0  0  0
    0.0000    7.5000    0.0000 C   0  0  0  0  0  0  0  0  0  0  0  0
   -1.2990    6.7500    0.0000 C   0  0  0  0  0  0  0  0  0  0  0  0
   -2.5981    7.5000    0.0000 C   0  0  0  0  0  0  0  0  0  0  0  0
   -3.8971    6.7500    0.0000 C   0  0  0  0  0  0  0  0  0  0  0  0
   -5.1962    7.5000    0.0000 C   0  0  0  0  0  0  0  0  0  0  0  0
   -6.4952    6.7500    0.0000 C   0  0  0  0  0  0  0  0  0  0  0  0
   -7.7942    7.5000    0.0000 C   0  0  0  0  0  0  0  0  0  0  0  0
  -10.3923    7.5000    0.0000 C   0  0  0  0  0  0  0  0  0  0  0  0
  -10.3923    9.0000    0.0000 O   0  0  0  0  0  0  0  0  0  0  0  0
   -9.0933    6.7500    0.0000 O   0  0  0  0  0  0  0  0  0  0  0  0
  3  1  1  0
  4  3  1  0
  5  4  1  0
  6  5  1  0
  7  6  1  0
  8  7  1  0
  9  8  1  0
  9 10  2  0
 11 10  1  0
 12  2  1  0
 13 12  2  0
 14 11  1  0
 14 12  1  0
M  END
>  <NAME>  (2676) 
TRANS-2-DECENYL ACETATE

>  <SYNONYMS>  (2676) 
ACETIC ACID TRANS-2-DECENYL ESTER

>  <SPECTRUM TYPE>  (2676) 
MS1

>  <INSTRUMENT TYPE>  (2676) 
EI-B

>  <INSTRUMENT>  (2676) 
HITACHI M-80B

>  <ION MODE>  (2676) 
P

>  <INCHIKEY>  (2676) 
LUMRROIRFJRWNX-MDZDMXLPSA-N

>  <FORMULA>  (2676) 
C12H22O2

>  <EXACT MASS>  (2676) 
198.161979944

>  <MW>  (2676) 
198

>  <ID>  (2676) 
JP008535

>  <CONTRIBUTOR>  (2676) 
University of Tokyo Team, {Faculty of Engineering, University of Tokyo

>  <COMMENT>  (2676) 
SMILES=CCCCCCCC=CCOC(C)=O
InChI=InChI=1S/C12H22O2/c1-3-4-5-6-7-8-9-10-11-14-12(2)13/h9-10H,3-8,11H2,1-2H3/b10-9+
computed SMILES=O=C(OCC=CCCCCCCC)C
accession=JP008535
date=2016.01.19 (Created 2008.10.21, modified 2011.05.06)
author=SODA AROMATIC CO., LTD.
license=CC BY-NC-SA
exact mass=198.16198
ionization energy=70 eV
ion type=[M]+*
computed spectral entropy=3.0928793052210066
computed normalized entropy=0.8173161507285639
SPLASH=splash10-0006-9000000000-2bf61755f9bb11b3e414
submitter=submitter = University of Tokyo Team (Faculty of Engineering, University of Tokyo)
MoNA Rating=3.75

>  <NUM PEAKS>  (2676) 
44

>  <MASS SPECTRAL PEAKS>  (2676) 
15 2.28
27 9.25
29 11.2
39 8.59
40 1.24
41 23.99
42 4.93
43 99.99
44 2.4
53 5.61
54 26.33
55 22.34
56 5.45
57 9.68
58 1.86
61 1.51
66 1.72
67 16.67
68 13.49
69 8.19
70 2.66
71 6.13
72 2.3
73 1.19
79 1.5
81 13.24
82 13.14
83 6.89
84 1.56
85 1.46
86 1.44
95 9.08
96 13.29
97 2.58
99 2.22
100 4.01
109 5.02
110 9.76
113 2.09
114 3.65
127 1.36
138 5
155 1.18
156 5.14

$$$$

     RDKit          2D

 13 12  0  0  0  0  0  0  0  0999 V2000
    3.5724    6.5625    0.0000 C   0  0  0  0  0  0  0  0  0  0  0  0
  -10.7171    7.3125    0.0000 C   0  0  0  0  0  0  0  0  0  0  0  0
    2.2733    7.3125    0.0000 C   0  0  0  0  0  0  0  0  0  0  0  0
    0.9743    6.5625    0.0000 C   0  0  0  0  0  0  0  0  0  0  0  0
   -0.3248    7.3125    0.0000 C   0  0  0  0  0  0  0  0  0  0  0  0
   -1.6238    6.5625    0.0000 C   0  0  0  0  0  0  0  0  0  0  0  0
   -2.9228    7.3125    0.0000 C   0  0  0  0  0  0  0  0  0  0  0  0
   -4.2219    6.5625    0.0000 C   0  0  0  0  0  0  0  0  0  0  0  0
   -5.5209    7.3125    0.0000 C   0  0  0  0  0  0  0  0  0  0  0  0
   -6.8200    6.5625    0.0000 C   0  0  0  0  0  0  0  0  0  0  0  0
   -9.4180    6.5625    0.0000 C   0  0  0  0  0  0  0  0  0  0  0  0
   -9.4180    5.0625    0.0000 O   0  0  0  0  0  0  0  0  0  0  0  0
   -8.1190    7.3125    0.0000 O   0  0  0  0  0  0  0  0  0  0  0  0
  3  1  1  0
  4  3  1  0
  5  4  1  0
  6  5  1  0
  7  6  1  0
  8  7  1  0
  8  9  2  0
 10  9  1  0
 11  2  1  0
 12 11  2  0
 13 10  1  0
 13 11  1  0
M  END
>  <NAME>  (2677) 
TRANS-2-NONENYL ACETATE

>  <SYNONYMS>  (2677) 
ACETIC ACID TRANS-2-NONENYL ESTER

>  <SPECTRUM TYPE>  (2677) 
MS1

>  <INSTRUMENT TYPE>  (2677) 
EI-B

>  <INSTRUMENT>  (2677) 
HITACHI M-80B

>  <ION MODE>  (2677) 
P

>  <INCHIKEY>  (2677) 
WFCCNPHGLLPSDJ-CMDGGOBGSA-N

>  <FORMULA>  (2677) 
C11H20O2

>  <EXACT MASS>  (2677) 
184.14632988

>  <MW>  (2677) 
184

>  <ID>  (2677) 
JP008534

>  <CONTRIBUTOR>  (2677) 
University of Tokyo Team, {Faculty of Engineering, University of Tokyo

>  <COMMENT>  (2677) 
SMILES=CCCCCCC=CCOC(C)=O
InChI=InChI=1S/C11H20O2/c1-3-4-5-6-7-8-9-10-13-11(2)12/h8-9H,3-7,10H2,1-2H3/b9-8+
computed SMILES=O=C(OCC=CCCCCCC)C
accession=JP008534
author=SODA AROMATIC CO., LTD.
date=2016.01.19 (Created 2008.10.21, modified 2011.05.06)
license=CC BY-NC-SA
exact mass=184.14633
ionization energy=70 eV
ion type=[M]+*
computed spectral entropy=3.0223587067404254
computed normalized entropy=0.808621150450566
SPLASH=splash10-0006-9000000000-363b5158324756197ef1
submitter=submitter = University of Tokyo Team (Faculty of Engineering, University of Tokyo)
MoNA Rating=3.75

>  <NUM PEAKS>  (2677) 
42

>  <MASS SPECTRAL PEAKS>  (2677) 
15 2.28
27 9.51
29 12.08
39 10.25
40 1.47
41 22.86
42 5.5
43 99.99
44 2.71
53 4.82
54 30.11
55 19.04
56 4.32
57 9.24
58 1.88
61 1.62
66 1.76
67 16.07
68 13.83
69 9.79
70 2.91
71 6.13
72 2.76
73 1.02
79 1.46
81 12.94
82 16.36
83 5.18
84 1.02
85 1.38
86 1.54
95 10.95
96 11.5
97 1.07
99 2.47
100 3.68
109 1.31
113 2.72
114 2.7
124 7.19
141 1.59
142 5.63

$$$$

     RDKit          2D

 11 10  0  0  0  0  0  0  0  0999 V2000
    2.9228    5.4375    0.0000 C   0  0  0  0  0  0  0  0  0  0  0  0
   -8.7685    6.1875    0.0000 C   0  0  0  0  0  0  0  0  0  0  0  0
    1.6238    6.1875    0.0000 C   0  0  0  0  0  0  0  0  0  0  0  0
    0.3248    5.4375    0.0000 C   0  0  0  0  0  0  0  0  0  0  0  0
   -0.9743    6.1875    0.0000 C   0  0  0  0  0  0  0  0  0  0  0  0
   -2.2733    5.4375    0.0000 C   0  0  0  0  0  0  0  0  0  0  0  0
   -3.5724    6.1875    0.0000 C   0  0  0  0  0  0  0  0  0  0  0  0
   -4.8714    5.4375    0.0000 C   0  0  0  0  0  0  0  0  0  0  0  0
   -7.4695    5.4375    0.0000 C   0  0  0  0  0  0  0  0  0  0  0  0
   -7.4695    3.9375    0.0000 O   0  0  0  0  0  0  0  0  0  0  0  0
   -6.1704    6.1875    0.0000 O   0  0  0  0  0  0  0  0  0  0  0  0
  3  1  1  0
  4  3  1  0
  5  4  1  0
  6  5  1  0
  6  7  2  0
  8  7  1  0
  9  2  1  0
 10  9  2  0
 11  8  1  0
 11  9  1  0
M  END
>  <NAME>  (2678) 
TRANS-2-HEPTENYL ACETATE

>  <SYNONYMS>  (2678) 
ACETIC ACID TRANS-2-HEPTENYL ESTER

>  <SPECTRUM TYPE>  (2678) 
MS1

>  <INSTRUMENT TYPE>  (2678) 
EI-B

>  <INSTRUMENT>  (2678) 
HITACHI M-80B

>  <ION MODE>  (2678) 
P

>  <INCHIKEY>  (2678) 
AWCPMVVOGVEPRC-VOTSOKGWSA-N

>  <FORMULA>  (2678) 
C9H16O2

>  <EXACT MASS>  (2678) 
156.115029752

>  <MW>  (2678) 
156

>  <ID>  (2678) 
JP008533

>  <CONTRIBUTOR>  (2678) 
University of Tokyo Team, {Faculty of Engineering, University of Tokyo

>  <COMMENT>  (2678) 
SMILES=CCCCC=CCOC(C)=O
InChI=InChI=1S/C9H16O2/c1-3-4-5-6-7-8-11-9(2)10/h6-7H,3-5,8H2,1-2H3/b7-6+
computed SMILES=O=C(OCC=CCCCC)C
accession=JP008533
date=2016.01.19 (Created 2008.10.21, modified 2011.05.06)
author=SODA AROMATIC CO., LTD.
license=CC BY-NC-SA
exact mass=156.11503
ionization energy=70 eV
ion type=[M]+*
computed spectral entropy=2.714348174543015
computed normalized entropy=0.7831953301318436
SPLASH=splash10-0006-9000000000-0d9b135bf773498753dd
submitter=submitter = University of Tokyo Team (Faculty of Engineering, University of Tokyo)
MoNA Rating=3.75

>  <NUM PEAKS>  (2678) 
32

>  <MASS SPECTRAL PEAKS>  (2678) 
15 3.59
27 10.79
29 6.16
39 12.19
40 1.54
41 18.51
42 4.77
43 99.99
44 3.14
53 5.16
54 29.61
55 22.11
56 1.93
57 9.59
58 1.79
61 1.58
67 13.12
68 6.41
69 1.95
70 2.7
71 5.66
72 3.26
81 16.22
85 1.56
86 1.26
95 2.11
96 15.72
97 2.99
99 1.78
100 1.88
113 2.9
114 11.15

$$$$

     RDKit          2D

  8  7  0  0  0  0  0  0  0  0999 V2000
    1.6238    3.1875    0.0000 C   0  0  0  0  0  0  0  0  0  0  0  0
   -0.9743    1.6875    0.0000 C   0  0  0  0  0  0  0  0  0  0  0  0
   -4.8714    3.9375    0.0000 C   0  0  0  0  0  0  0  0  0  0  0  0
    0.3248    3.9375    0.0000 C   0  0  0  0  0  0  0  0  0  0  0  0
   -0.9743    3.1875    0.0000 C   0  0  0  0  0  0  0  0  0  0  0  0
   -3.5724    3.1875    0.0000 C   0  0  0  0  0  0  0  0  0  0  0  0
   -3.5724    1.6875    0.0000 O   0  0  0  0  0  0  0  0  0  0  0  0
   -2.2733    3.9375    0.0000 O   0  0  0  0  0  0  0  0  0  0  0  0
  4  1  1  0
  5  2  1  0
  5  4  1  0
  6  3  1  0
  7  6  2  0
  8  5  1  0
  8  6  1  0
M  END
>  <NAME>  (2679) 
SEC-BUTYL ACETATE

>  <SYNONYMS>  (2679) 
ACETIC ACID 1-METHYLPROPYL ESTER

>  <SPECTRUM TYPE>  (2679) 
MS1

>  <INSTRUMENT TYPE>  (2679) 
EI-B

>  <INSTRUMENT>  (2679) 
HITACHI M-80B

>  <ION MODE>  (2679) 
P

>  <INCHIKEY>  (2679) 
DCKVNWZUADLDEH-UHFFFAOYSA-N

>  <FORMULA>  (2679) 
C6H12O2

>  <EXACT MASS>  (2679) 
116.083729624

>  <MW>  (2679) 
116

>  <ID>  (2679) 
JP008532

>  <CONTRIBUTOR>  (2679) 
University of Tokyo Team, {Faculty of Engineering, University of Tokyo

>  <COMMENT>  (2679) 
SMILES=CCC(C)OC(C)=O
InChI=InChI=1S/C6H12O2/c1-4-5(2)8-6(3)7/h5H,4H2,1-3H3
computed SMILES=O=C(OC(C)CC)C
accession=JP008532
date=2016.01.19 (Created 2008.10.21, modified 2011.05.06)
author=SODA AROMATIC CO., LTD.
license=CC BY-NC-SA
exact mass=116.08373
ionization energy=70 eV
ion type=[M]+*
computed spectral entropy=1.9750492588083648
computed normalized entropy=0.6971057308309699
SPLASH=splash10-0006-9000000000-e1a3e83cd1aa51bf49ee
submitter=submitter = University of Tokyo Team (Faculty of Engineering, University of Tokyo)
MoNA Rating=3.75

>  <NUM PEAKS>  (2679) 
17

>  <MASS SPECTRAL PEAKS>  (2679) 
15 3.71
27 6.01
28 1.47
29 8.61
39 3.58
41 11.66
42 2.39
43 99.99
44 2.85
45 2.63
55 2.38
56 19.36
57 8.08
61 5.2
73 5.37
87 18.85
101 3.77

$$$$

     RDKit          2D

 15 14  0  0  0  0  0  0  0  0999 V2000
    4.2219    7.6875    0.0000 C   0  0  0  0  0  0  0  0  0  0  0  0
  -12.6656    8.4375    0.0000 C   0  0  0  0  0  0  0  0  0  0  0  0
    2.9228    8.4375    0.0000 C   0  0  0  0  0  0  0  0  0  0  0  0
    1.6238    7.6875    0.0000 C   0  0  0  0  0  0  0  0  0  0  0  0
    0.3248    8.4375    0.0000 C   0  0  0  0  0  0  0  0  0  0  0  0
   -0.9743    7.6875    0.0000 C   0  0  0  0  0  0  0  0  0  0  0  0
   -2.2733    8.4375    0.0000 C   0  0  0  0  0  0  0  0  0  0  0  0
   -3.5724    7.6875    0.0000 C   0  0  0  0  0  0  0  0  0  0  0  0
   -4.8714    8.4375    0.0000 C   0  0  0  0  0  0  0  0  0  0  0  0
   -6.1704    7.6875    0.0000 C   0  0  0  0  0  0  0  0  0  0  0  0
   -7.4695    8.4375    0.0000 C   0  0  0  0  0  0  0  0  0  0  0  0
   -8.7685    7.6875    0.0000 C   0  0  0  0  0  0  0  0  0  0  0  0
  -11.3666    7.6875    0.0000 C   0  0  0  0  0  0  0  0  0  0  0  0
  -11.3666    6.1875    0.0000 O   0  0  0  0  0  0  0  0  0  0  0  0
  -10.0675    8.4375    0.0000 O   0  0  0  0  0  0  0  0  0  0  0  0
  3  1  1  0
  4  3  1  0
  5  4  1  0
  6  5  1  0
  7  6  1  0
  8  7  1  0
  9  8  1  0
 10  9  1  0
 11 10  1  0
 12 11  1  0
 13  2  1  0
 14 13  2  0
 15 12  1  0
 15 13  1  0
M  END
>  <NAME>  (2680) 
UNDECYL ACETATE

>  <SYNONYMS>  (2680) 
ACETIC ACID UNDECYL ESTER

>  <SPECTRUM TYPE>  (2680) 
MS1

>  <INSTRUMENT TYPE>  (2680) 
EI-B

>  <INSTRUMENT>  (2680) 
HITACHI M-80B

>  <ION MODE>  (2680) 
P

>  <INCHIKEY>  (2680) 
CKQGCFFDQIFZFA-UHFFFAOYSA-N

>  <FORMULA>  (2680) 
C13H26O2

>  <EXACT MASS>  (2680) 
214.193280072

>  <MW>  (2680) 
214

>  <ID>  (2680) 
JP008531

>  <CONTRIBUTOR>  (2680) 
University of Tokyo Team, {Faculty of Engineering, University of Tokyo

>  <COMMENT>  (2680) 
SMILES=CCCCCCCCCCCOC(C)=O
InChI=InChI=1S/C13H26O2/c1-3-4-5-6-7-8-9-10-11-12-15-13(2)14/h3-12H2,1-2H3
computed SMILES=O=C(OCCCCCCCCCCC)C
accession=JP008531
date=2016.01.19 (Created 2008.10.21, modified 2011.05.06)
author=SODA AROMATIC CO., LTD.
license=CC BY-NC-SA
exact mass=214.19328
ionization energy=70 eV
ion type=[M]+*
computed spectral entropy=3.1230794285766272
computed normalized entropy=0.8466200827174458
SPLASH=splash10-052f-9000000000-d3b2c7d92e9063a1785c
submitter=submitter = University of Tokyo Team (Faculty of Engineering, University of Tokyo)
MoNA Rating=3.75

>  <NUM PEAKS>  (2680) 
40

>  <MASS SPECTRAL PEAKS>  (2680) 
15 2.52
27 8.93
28 1.84
29 14.87
39 5.54
40 1.19
41 33.79
42 12.67
43 99.99
44 2.91
53 2.3
54 4.56
55 36.57
56 31.73
57 23.07
58 2.68
61 31.84
67 4.42
68 10.86
69 32.54
70 29.35
71 9.39
73 4.35
81 1.86
82 13.5
83 28.13
84 20.43
85 3.71
96 3.73
97 20.63
98 11.61
99 1.04
110 1.42
111 7.78
112 3.85
116 3.64
125 3.29
126 10.56
127 1.14
154 6.12

$$$$

     RDKit          2D

 11 11  0  0  0  0  0  0  0  0999 V2000
   -2.5989   -1.5002    0.0000 C   0  0  0  0  0  0  0  0  0  0  0  0
   -1.3000    0.7500    0.0000 C   0  0  0  0  0  0  0  0  0  0  0  0
   -0.0000   -1.5000    0.0000 C   0  0  0  0  0  0  0  0  0  0  0  0
    0.0000    1.5000    0.0000 C   0  0  0  0  0  0  0  0  0  0  0  0
    1.3000   -0.7500    0.0000 C   0  0  0  0  0  0  0  0  0  0  0  0
    2.5989    1.5002    0.0000 C   0  0  0  0  0  0  0  0  0  0  0  0
    5.1970    1.5006    0.0000 C   0  0  0  0  0  0  0  0  0  0  0  0
   -1.3000   -0.7500    0.0000 C   0  0  0  0  0  0  0  0  0  0  0  0
    1.3000    0.7500    0.0000 C   0  0  0  0  0  0  0  0  0  0  0  0
    6.4962    0.7508    0.0000 O   0  0  0  0  0  0  0  0  0  0  0  0
    3.8981    0.7504    0.0000 O   0  0  0  0  0  0  0  0  0  0  0  0
  4  2  2  0
  5  3  1  0
  8  1  1  0
  8  2  1  0
  8  3  2  0
  9  4  1  0
  9  5  2  0
  9  6  1  0
 10  7  2  0
 11  6  1  0
 11  7  1  0
M  END
>  <NAME>  (2681) 
PARA-METHYLBENZYL FORMATE

>  <SYNONYMS>  (2681) 
FORMIC ACID PARA-METHYLBENZYL ESTER

>  <SPECTRUM TYPE>  (2681) 
MS1

>  <INSTRUMENT TYPE>  (2681) 
EI-B

>  <INSTRUMENT>  (2681) 
HITACHI M-80B

>  <ION MODE>  (2681) 
P

>  <INCHIKEY>  (2681) 
MWCCNIVWHAWABQ-UHFFFAOYSA-N

>  <FORMULA>  (2681) 
C9H10O2

>  <EXACT MASS>  (2681) 
150.06807956

>  <MW>  (2681) 
150

>  <ID>  (2681) 
JP008530

>  <CONTRIBUTOR>  (2681) 
University of Tokyo Team, {Faculty of Engineering, University of Tokyo

>  <COMMENT>  (2681) 
SMILES=O=COCc(c1)ccc(C)c1
InChI=InChI=1S/C9H10O2/c1-8-2-4-9(5-3-8)6-11-7-10/h2-5,7H,6H2,1H3
computed SMILES=O=COCC1=CC=C(C=C1)C
accession=JP008530
date=2016.01.19 (Created 2008.10.21, modified 2011.05.06)
author=SODA AROMATIC CO., LTD.
license=CC BY-NC-SA
exact mass=150.06808
ionization energy=70 eV
ion type=[M]+*
computed spectral entropy=2.896645626415261
computed normalized entropy=0.7852372685111314
SPLASH=splash10-0zfr-5900000000-5fcd73d048c2ef5274d1
submitter=submitter = University of Tokyo Team (Faculty of Engineering, University of Tokyo)
MoNA Rating=3.75

>  <NUM PEAKS>  (2681) 
40

>  <MASS SPECTRAL PEAKS>  (2681) 
27 6.9
29 13.38
31 1.56
38 1.6
39 14.07
40 1.24
41 3.12
50 5.49
51 12.19
52 3.97
53 4.19
62 2.59
63 8.66
64 1.72
65 13.37
66 1.12
74 1.42
75 1.13
76 1.27
77 29.92
78 24.93
79 19.88
80 1.01
89 4.31
90 1.36
91 19.61
92 1.82
93 6.46
102 1.86
103 24.14
104 80.54
105 99.99
106 8.37
107 18.56
108 1.19
119 3.17
121 5.48
122 9.63
150 65.28
151 6.84

$$$$

     RDKit          2D

 10  9  0  0  0  0  0  0  0  0999 V2000
    0.0000    0.0000    0.0000 C   0  0  0  0  0  0  0  0  0  0  0  0
   -3.8971    6.7500    0.0000 C   0  0  0  0  0  0  0  0  0  0  0  0
    0.0000    1.5000    0.0000 C   0  0  0  0  0  0  0  0  0  0  0  0
   -2.5981    6.0000    0.0000 C   0  0  0  0  0  0  0  0  0  0  0  0
   -1.2990    2.2500    0.0000 C   0  0  0  0  0  0  0  0  0  0  0  0
   -1.2990    3.7500    0.0000 C   0  0  0  0  0  0  0  0  0  0  0  0
   -5.1962    4.5000    0.0000 C   0  0  0  0  0  0  0  0  0  0  0  0
   -2.5981    4.5000    0.0000 C   0  0  0  0  0  0  0  0  0  0  0  0
   -6.4952    3.7500    0.0000 O   0  0  0  0  0  0  0  0  0  0  0  0
   -3.8971    3.7500    0.0000 O   0  0  0  0  0  0  0  0  0  0  0  0
  3  1  1  0
  4  2  1  0
  5  3  1  0
  6  5  1  0
  8  4  1  0
  8  6  1  0
  9  7  2  0
 10  7  1  0
 10  8  1  0
M  END
>  <NAME>  (2682) 
3-HEPTYL FORMATE

>  <SYNONYMS>  (2682) 
FORMIC ACID 1-ETHYLPENTYL ESTER

>  <SPECTRUM TYPE>  (2682) 
MS1

>  <INSTRUMENT TYPE>  (2682) 
EI-B

>  <INSTRUMENT>  (2682) 
HITACHI M-80B

>  <ION MODE>  (2682) 
P

>  <INCHIKEY>  (2682) 
RJJVYSJFEOFICB-UHFFFAOYSA-N

>  <FORMULA>  (2682) 
C8H16O2

>  <EXACT MASS>  (2682) 
144.115029752

>  <MW>  (2682) 
144

>  <ID>  (2682) 
JP008529

>  <CONTRIBUTOR>  (2682) 
University of Tokyo Team, {Faculty of Engineering, University of Tokyo

>  <COMMENT>  (2682) 
SMILES=CCCCC(CC)OC=O
InChI=InChI=1S/C8H16O2/c1-3-5-6-8(4-2)10-7-9/h7-8H,3-6H2,1-2H3
computed SMILES=O=COC(CC)CCCC
accession=JP008529
date=2016.01.19 (Created 2008.10.21, modified 2011.05.06)
author=SODA AROMATIC CO., LTD.
license=CC BY-NC-SA
exact mass=144.11503
ionization energy=70 eV
ion type=[M]+*
computed spectral entropy=2.9070630046026276
computed normalized entropy=0.8050759045014751
SPLASH=splash10-0aor-9000000000-de59c75b0a313afa42b0
submitter=submitter = University of Tokyo Team (Faculty of Engineering, University of Tokyo)
MoNA Rating=3.75

>  <NUM PEAKS>  (2682) 
37

>  <MASS SPECTRAL PEAKS>  (2682) 
15 1.45
18 4.77
26 1.52
27 24.62
28 3.39
29 30.06
30 1.5
31 31.58
39 14.75
40 1.73
41 70.05
42 7.62
43 23.63
44 3.88
45 8.08
46 1.02
53 2.4
54 2.89
55 22.84
56 36.43
57 32.33
58 6.62
59 87.51
60 2.61
67 1.69
68 2.31
69 99.99
70 24.95
71 1.56
83 3.24
85 1.89
86 2.45
87 38.15
88 1.77
98 30.17
99 3.93
115 13.42

$$$$

     RDKit          2D

 17 17  0  0  0  0  0  0  0  0999 V2000
   -6.4952   12.3200    0.0000 C   0  0  0  0  0  0  0  0  0  0  0  0
   -5.1962   11.5700    0.0000 C   0  0  0  0  0  0  0  0  0  0  0  0
   -5.1962   10.0700    0.0000 C   0  0  0  0  0  0  0  0  0  0  0  0
   -3.8971    9.3200    0.0000 C   0  0  0  0  0  0  0  0  0  0  0  0
    7.7942   11.5700    0.0000 C   0  0  0  0  0  0  0  0  0  0  0  0
    7.7947   10.0692    0.0000 C   0  0  0  0  0  0  0  0  0  0  0  0
    6.4947   12.3208    0.0000 C   0  0  0  0  0  0  0  0  0  0  0  0
   -2.5981   10.0700    0.0000 C   0  0  0  0  0  0  0  0  0  0  0  0
    6.4957    9.3192    0.0000 C   0  0  0  0  0  0  0  0  0  0  0  0
    5.1957   11.5708    0.0000 C   0  0  0  0  0  0  0  0  0  0  0  0
    3.8971    9.3200    0.0000 C   0  0  0  0  0  0  0  0  0  0  0  0
    2.5981   10.0700    0.0000 C   0  0  0  0  0  0  0  0  0  0  0  0
   -1.2990    9.3200    0.0000 C   0  0  0  0  0  0  0  0  0  0  0  0
    5.1962   10.0700    0.0000 C   0  0  0  0  0  0  0  0  0  0  0  0
    1.2990    9.3200    0.0000 C   0  0  0  0  0  0  0  0  0  0  0  0
    1.2990    7.8200    0.0000 O   0  0  0  0  0  0  0  0  0  0  0  0
    0.0000   10.0700    0.0000 O   0  0  0  0  0  0  0  0  0  0  0  0
  2  1  1  0
  3  2  1  0
  3  4  2  0
  6  5  2  0
  7  5  1  0
  8  4  1  0
  9  6  1  0
 10  7  2  0
 11 12  2  0
 13  8  1  0
 14  9  2  0
 14 10  1  0
 14 11  1  0
 15 12  1  0
 16 15  2  0
 17 13  1  0
 17 15  1  0
M  END
>  <NAME>  (2683) 
CIS-3-HEXENYL 3-PHENYLPROPENOATE

>  <SYNONYMS>  (2683) 
CIS-3-HEXENYL CINNAMATE

>  <SPECTRUM TYPE>  (2683) 
MS1

>  <INSTRUMENT TYPE>  (2683) 
EI-B

>  <INSTRUMENT>  (2683) 
HITACHI M-80B

>  <ION MODE>  (2683) 
P

>  <INCHIKEY>  (2683) 
FKWGVMQNGUQXDN-FECXASIGSA-N

>  <FORMULA>  (2683) 
C15H18O2

>  <EXACT MASS>  (2683) 
230.130679816

>  <MW>  (2683) 
230

>  <ID>  (2683) 
JP008528

>  <CONTRIBUTOR>  (2683) 
University of Tokyo Team, {Faculty of Engineering, University of Tokyo

>  <COMMENT>  (2683) 
SMILES=CCC=CCCOC(=O)C=Cc(c1)cccc1
InChI=InChI=1S/C15H18O2/c1-2-3-4-8-13-17-15(16)12-11-14-9-6-5-7-10-14/h3-7,9-12H,2,8,13H2,1H3/b4-3-,12-11+
computed SMILES=O=C(OCCC=CCC)C=CC=1C=CC=CC1
accession=JP008528
date=2016.01.19 (Created 2008.10.21, modified 2011.05.06)
author=SODA AROMATIC CO., LTD.
license=CC BY-NC-SA
exact mass=230.13068
ionization energy=70 eV
ion type=[M]+*
computed spectral entropy=2.5894195240768827
computed normalized entropy=0.7471485412333557
SPLASH=splash10-001i-9500000000-066414433e78dcbf98fe
submitter=submitter = University of Tokyo Team (Faculty of Engineering, University of Tokyo)
MoNA Rating=3.75

>  <NUM PEAKS>  (2683) 
32

>  <MASS SPECTRAL PEAKS>  (2683) 
27 8.06
29 2.14
39 10.6
41 20.51
42 1.67
50 2.81
51 12.28
52 1.79
53 5.04
55 7.43
63 1.75
65 1.21
67 48.58
68 2.22
74 1.18
75 1.72
76 2.82
77 33.49
78 2.19
79 1.31
81 3.21
82 99.99
83 6.02
92 1.13
102 9.21
103 45.81
104 3.52
131 90.4
132 8.36
147 6.77
148 5.52
149 11.26

$$$$

     RDKit          2D

 16 16  0  0  0  0  0  0  0  0999 V2000
    4.8721    3.8829    0.0000 C   0  0  0  0  0  0  0  0  0  0  0  0
    3.5731    1.6329    0.0000 C   0  0  0  0  0  0  0  0  0  0  0  0
   -8.1183    5.3829    0.0000 C   0  0  0  0  0  0  0  0  0  0  0  0
   -8.1187    3.8821    0.0000 C   0  0  0  0  0  0  0  0  0  0  0  0
   -6.8187    6.1337    0.0000 C   0  0  0  0  0  0  0  0  0  0  0  0
   -6.8197    3.1321    0.0000 C   0  0  0  0  0  0  0  0  0  0  0  0
   -5.5197    5.3837    0.0000 C   0  0  0  0  0  0  0  0  0  0  0  0
   -4.2212    3.1329    0.0000 C   0  0  0  0  0  0  0  0  0  0  0  0
   -2.9221    3.8829    0.0000 C   0  0  0  0  0  0  0  0  0  0  0  0
    2.2740    3.8829    0.0000 C   0  0  0  0  0  0  0  0  0  0  0  0
    0.9750    3.1329    0.0000 C   0  0  0  0  0  0  0  0  0  0  0  0
    3.5731    3.1329    0.0000 C   0  0  0  0  0  0  0  0  0  0  0  0
   -5.5202    3.8829    0.0000 C   0  0  0  0  0  0  0  0  0  0  0  0
   -1.6231    3.1329    0.0000 C   0  0  0  0  0  0  0  0  0  0  0  0
   -1.6231    1.6329    0.0000 O   0  0  0  0  0  0  0  0  0  0  0  0
   -0.3240    3.8829    0.0000 O   0  0  0  0  0  0  0  0  0  0  0  0
  4  3  2  0
  5  3  1  0
  6  4  1  0
  7  5  2  0
  8  9  2  0
 11 10  1  0
 12  1  1  0
 12  2  1  0
 12 10  1  0
 13  6  2  0
 13  7  1  0
 13  8  1  0
 14  9  1  0
 15 14  2  0
 16 11  1  0
 16 14  1  0
M  END
>  <NAME>  (2684) 
3-METHYLBUTYL 3-PHENYLPROPENOATE

>  <SYNONYMS>  (2684) 
ISOAMYL CINNAMATE

>  <SPECTRUM TYPE>  (2684) 
MS1

>  <INSTRUMENT TYPE>  (2684) 
EI-B

>  <INSTRUMENT>  (2684) 
HITACHI M-80B

>  <ION MODE>  (2684) 
P

>  <INCHIKEY>  (2684) 
JFHCDEYLWGVZMX-CMDGGOBGSA-N

>  <FORMULA>  (2684) 
C14H18O2

>  <EXACT MASS>  (2684) 
218.130679816

>  <MW>  (2684) 
218

>  <ID>  (2684) 
JP008527

>  <CONTRIBUTOR>  (2684) 
University of Tokyo Team, {Faculty of Engineering, University of Tokyo

>  <COMMENT>  (2684) 
SMILES=CC(C)CCOC(=O)C=Cc(c1)cccc1
InChI=InChI=1S/C14H18O2/c1-12(2)10-11-16-14(15)9-8-13-6-4-3-5-7-13/h3-9,12H,10-11H2,1-2H3/b9-8+
computed SMILES=O=C(OCCC(C)C)C=CC=1C=CC=CC1
accession=JP008527
date=2016.01.19 (Created 2008.10.21, modified 2011.05.06)
author=SODA AROMATIC CO., LTD.
license=CC BY-NC-SA
exact mass=218.13068
ionization energy=70 eV
ion type=[M]+*
computed spectral entropy=2.8879236331995957
computed normalized entropy=0.7939120907082023
SPLASH=splash10-000t-5900000000-fcac44db117af2817d1b
submitter=submitter = University of Tokyo Team (Faculty of Engineering, University of Tokyo)
MoNA Rating=3.75

>  <NUM PEAKS>  (2684) 
38

>  <MASS SPECTRAL PEAKS>  (2684) 
14 2.01
27 10.15
29 4.26
39 8.2
41 15.53
42 5.65
43 18.38
50 2.92
51 12.51
52 1.81
53 1.79
55 16.96
63 1.95
69 2.98
70 46.91
71 2.81
74 1.22
75 2.17
76 3.29
77 36.86
78 2.75
91 2.2
101 1.08
102 13.15
103 49.86
104 10.45
105 1.12
107 1.09
120 2.02
130 1.7
131 99.99
132 10.27
147 34.31
148 51.8
149 35.52
150 3.1
218 7.38
219 1.01

$$$$

     RDKit          2D

 16 16  0  0  0  0  0  0  0  0999 V2000
    5.5216    4.2579    0.0000 C   0  0  0  0  0  0  0  0  0  0  0  0
    4.2226    5.0079    0.0000 C   0  0  0  0  0  0  0  0  0  0  0  0
    2.9236    4.2579    0.0000 C   0  0  0  0  0  0  0  0  0  0  0  0
   -8.7678    6.5079    0.0000 C   0  0  0  0  0  0  0  0  0  0  0  0
   -8.7683    5.0071    0.0000 C   0  0  0  0  0  0  0  0  0  0  0  0
   -7.4683    7.2587    0.0000 C   0  0  0  0  0  0  0  0  0  0  0  0
    1.6245    5.0079    0.0000 C   0  0  0  0  0  0  0  0  0  0  0  0
   -7.4692    4.2571    0.0000 C   0  0  0  0  0  0  0  0  0  0  0  0
   -6.1692    6.5087    0.0000 C   0  0  0  0  0  0  0  0  0  0  0  0
   -4.8707    4.2579    0.0000 C   0  0  0  0  0  0  0  0  0  0  0  0
   -3.5716    5.0079    0.0000 C   0  0  0  0  0  0  0  0  0  0  0  0
    0.3255    4.2579    0.0000 C   0  0  0  0  0  0  0  0  0  0  0  0
   -6.1697    5.0079    0.0000 C   0  0  0  0  0  0  0  0  0  0  0  0
   -2.2726    4.2579    0.0000 C   0  0  0  0  0  0  0  0  0  0  0  0
   -2.2726    2.7579    0.0000 O   0  0  0  0  0  0  0  0  0  0  0  0
   -0.9736    5.0079    0.0000 O   0  0  0  0  0  0  0  0  0  0  0  0
  2  1  1  0
  3  2  1  0
  5  4  2  0
  6  4  1  0
  7  3  1  0
  8  5  1  0
  9  6  2  0
 10 11  2  0
 12  7  1  0
 13  8  2  0
 13  9  1  0
 13 10  1  0
 14 11  1  0
 15 14  2  0
 16 12  1  0
 16 14  1  0
M  END
>  <NAME>  (2685) 
PENTYL 3-PHENYLPROPENOATE

>  <SYNONYMS>  (2685) 
AMYL CINNAMATE

>  <SPECTRUM TYPE>  (2685) 
MS1

>  <INSTRUMENT TYPE>  (2685) 
EI-B

>  <INSTRUMENT>  (2685) 
HITACHI M-80B

>  <ION MODE>  (2685) 
P

>  <INCHIKEY>  (2685) 
QDRJCWZGTMRXCL-ZHACJKMWSA-N

>  <FORMULA>  (2685) 
C14H18O2

>  <EXACT MASS>  (2685) 
218.130679816

>  <MW>  (2685) 
218

>  <ID>  (2685) 
JP008526

>  <CONTRIBUTOR>  (2685) 
University of Tokyo Team, {Faculty of Engineering, University of Tokyo

>  <COMMENT>  (2685) 
SMILES=CCCCCOC(=O)C=Cc(c1)cccc1
InChI=InChI=1S/C14H18O2/c1-2-3-7-12-16-14(15)11-10-13-8-5-4-6-9-13/h4-6,8-11H,2-3,7,12H2,1H3/b11-10+
computed SMILES=O=C(OCCCCC)C=CC=1C=CC=CC1
accession=JP008526
date=2016.01.19 (Created 2008.10.21, modified 2011.05.06)
author=SODA AROMATIC CO., LTD.
license=CC BY-NC-SA
exact mass=218.13068
ionization energy=70 eV
ion type=[M]+*
computed spectral entropy=2.797063673686796
computed normalized entropy=0.7634820821540541
SPLASH=splash10-000t-3900000000-8731a1cf399f3af91eeb
submitter=submitter = University of Tokyo Team (Faculty of Engineering, University of Tokyo)
MoNA Rating=3.75

>  <NUM PEAKS>  (2685) 
39

>  <MASS SPECTRAL PEAKS>  (2685) 
14 2.62
27 10.11
29 7.3
39 5.27
41 14.44
42 6.98
43 10.49
50 2.98
51 12.13
52 1.72
53 1.32
55 5.08
63 2.32
69 2.56
70 3.72
74 1.56
75 1.97
76 3.4
77 37.01
78 3.22
91 2.94
101 1.47
102 13.89
103 50.54
104 11.7
105 1.45
107 1.11
120 2.38
130 2.14
131 99.99
132 11.09
133 1.19
146 1.77
147 47.28
148 93.11
149 22.57
150 2.94
218 15.72
219 2.17

$$$$

     RDKit          2D

 15 15  0  0  0  0  0  0  0  0999 V2000
   -7.7940    4.8196    0.0000 C   0  0  0  0  0  0  0  0  0  0  0  0
   -6.4949    2.5696    0.0000 C   0  0  0  0  0  0  0  0  0  0  0  0
    3.8974    2.5696    0.0000 C   0  0  0  0  0  0  0  0  0  0  0  0
    3.8978    4.0704    0.0000 C   0  0  0  0  0  0  0  0  0  0  0  0
    2.5978    1.8188    0.0000 C   0  0  0  0  0  0  0  0  0  0  0  0
    2.5988    4.8204    0.0000 C   0  0  0  0  0  0  0  0  0  0  0  0
    1.2988    2.5688    0.0000 C   0  0  0  0  0  0  0  0  0  0  0  0
    0.0002    4.8196    0.0000 C   0  0  0  0  0  0  0  0  0  0  0  0
   -1.2988    4.0696    0.0000 C   0  0  0  0  0  0  0  0  0  0  0  0
   -5.1959    4.8196    0.0000 C   0  0  0  0  0  0  0  0  0  0  0  0
   -6.4949    4.0696    0.0000 C   0  0  0  0  0  0  0  0  0  0  0  0
    1.2993    4.0696    0.0000 C   0  0  0  0  0  0  0  0  0  0  0  0
   -2.5978    4.8196    0.0000 C   0  0  0  0  0  0  0  0  0  0  0  0
   -2.5978    6.3196    0.0000 O   0  0  0  0  0  0  0  0  0  0  0  0
   -3.8969    4.0696    0.0000 O   0  0  0  0  0  0  0  0  0  0  0  0
  4  3  2  0
  5  3  1  0
  6  4  1  0
  7  5  2  0
  8  9  2  0
 11  1  1  0
 11  2  1  0
 11 10  1  0
 12  6  2  0
 12  7  1  0
 12  8  1  0
 13  9  1  0
 14 13  2  0
 15 10  1  0
 15 13  1  0
M  END
>  <NAME>  (2686) 
2-METHYLPROPYL 3-PHENYLPROPENOATE

>  <SYNONYMS>  (2686) 
ISOBUTYL CINNAMATE

>  <SPECTRUM TYPE>  (2686) 
MS1

>  <INSTRUMENT TYPE>  (2686) 
EI-B

>  <INSTRUMENT>  (2686) 
HITACHI M-80B

>  <ION MODE>  (2686) 
P

>  <INCHIKEY>  (2686) 
IQZUZPKOFSOVET-CMDGGOBGSA-N

>  <FORMULA>  (2686) 
C13H16O2

>  <EXACT MASS>  (2686) 
204.115029752

>  <MW>  (2686) 
204

>  <ID>  (2686) 
JP008525

>  <CONTRIBUTOR>  (2686) 
University of Tokyo Team, {Faculty of Engineering, University of Tokyo

>  <COMMENT>  (2686) 
SMILES=CC(C)COC(=O)C=Cc(c1)cccc1
InChI=InChI=1S/C13H16O2/c1-11(2)10-15-13(14)9-8-12-6-4-3-5-7-12/h3-9,11H,10H2,1-2H3/b9-8+
computed SMILES=O=C(OCC(C)C)C=CC=1C=CC=CC1
accession=JP008525
date=2016.01.19 (Created 2008.10.21, modified 2011.05.06)
author=SODA AROMATIC CO., LTD.
license=CC BY-NC-SA
exact mass=204.11503
ionization energy=70 eV
ion type=[M]+*
computed spectral entropy=2.5493558074351017
computed normalized entropy=0.7495465629781353
SPLASH=splash10-001j-3900000000-845254dc895cdbf67b44
submitter=submitter = University of Tokyo Team (Faculty of Engineering, University of Tokyo)
MoNA Rating=3.75

>  <NUM PEAKS>  (2686) 
30

>  <MASS SPECTRAL PEAKS>  (2686) 
14 2.15
27 5.53
29 4.42
39 5.81
41 9.97
43 4.47
50 2.47
51 10
52 1.61
56 3.04
57 2.07
63 1.78
74 1.15
75 1.8
76 2.76
77 27.38
78 1.92
91 1.51
102 9.51
103 38.21
104 6.72
120 1.17
130 1.07
131 99.99
132 10.78
147 25.28
148 52.45
149 13.95
150 1.14
204 5

$$$$

     RDKit          2D

 15 15  0  0  0  0  0  0  0  0999 V2000
    4.8721    3.8829    0.0000 C   0  0  0  0  0  0  0  0  0  0  0  0
    3.5731    3.1329    0.0000 C   0  0  0  0  0  0  0  0  0  0  0  0
    2.2740    3.8829    0.0000 C   0  0  0  0  0  0  0  0  0  0  0  0
   -8.1183    5.3829    0.0000 C   0  0  0  0  0  0  0  0  0  0  0  0
   -8.1187    3.8821    0.0000 C   0  0  0  0  0  0  0  0  0  0  0  0
   -6.8187    6.1337    0.0000 C   0  0  0  0  0  0  0  0  0  0  0  0
   -6.8197    3.1321    0.0000 C   0  0  0  0  0  0  0  0  0  0  0  0
   -5.5197    5.3837    0.0000 C   0  0  0  0  0  0  0  0  0  0  0  0
   -4.2212    3.1329    0.0000 C   0  0  0  0  0  0  0  0  0  0  0  0
   -2.9221    3.8829    0.0000 C   0  0  0  0  0  0  0  0  0  0  0  0
    0.9750    3.1329    0.0000 C   0  0  0  0  0  0  0  0  0  0  0  0
   -5.5202    3.8829    0.0000 C   0  0  0  0  0  0  0  0  0  0  0  0
   -1.6231    3.1329    0.0000 C   0  0  0  0  0  0  0  0  0  0  0  0
   -1.6231    1.6329    0.0000 O   0  0  0  0  0  0  0  0  0  0  0  0
   -0.3240    3.8829    0.0000 O   0  0  0  0  0  0  0  0  0  0  0  0
  2  1  1  0
  3  2  1  0
  5  4  2  0
  6  4  1  0
  7  5  1  0
  8  6  2  0
  9 10  2  0
 11  3  1  0
 12  7  2  0
 12  8  1  0
 12  9  1  0
 13 10  1  0
 14 13  2  0
 15 11  1  0
 15 13  1  0
M  END
>  <NAME>  (2687) 
BUTYL CINNAMATE

>  <SYNONYMS>  (2687) 


>  <SPECTRUM TYPE>  (2687) 
MS1

>  <INSTRUMENT TYPE>  (2687) 
EI-B

>  <INSTRUMENT>  (2687) 
HITACHI M-80B

>  <ION MODE>  (2687) 
P

>  <INCHIKEY>  (2687) 
OHHIVLJVBNCSHV-MDZDMXLPSA-N

>  <FORMULA>  (2687) 
C13H16O2

>  <EXACT MASS>  (2687) 
204.115029752

>  <MW>  (2687) 
204

>  <ID>  (2687) 
JP008524

>  <CONTRIBUTOR>  (2687) 
University of Tokyo Team, {Faculty of Engineering, University of Tokyo

>  <COMMENT>  (2687) 
SMILES=CCCCOC(=O)C=Cc(c1)cccc1
InChI=InChI=1S/C13H16O2/c1-2-3-11-15-13(14)10-9-12-7-5-4-6-8-12/h4-10H,2-3,11H2,1H3/b10-9+
computed SMILES=O=C(OCCCC)C=CC=1C=CC=CC1
accession=JP008524
date=2016.01.19 (Created 2008.10.21, modified 2011.05.06)
author=SODA AROMATIC CO., LTD.
license=CC BY-NC-SA
exact mass=204.11503
ionization energy=70 eV
ion type=[M]+*
computed spectral entropy=2.702219049998902
computed normalized entropy=0.7540685835368016
SPLASH=splash10-0f7k-3900000000-d8f6db7350cbe26a7677
submitter=submitter = University of Tokyo Team (Faculty of Engineering, University of Tokyo)
MoNA Rating=3.75

>  <NUM PEAKS>  (2687) 
36

>  <MASS SPECTRAL PEAKS>  (2687) 
26 1.02
27 9.53
29 7.24
39 5.02
42 11.81
43 1.89
50 3.42
51 14.32
52 1.88
53 1.18
55 2.27
56 4.03
57 1.52
63 2.25
74 1.53
75 2.24
76 3.78
77 36.88
78 3.07
91 2.78
101 1.12
102 12.58
103 48.44
104 10.48
105 1.32
120 2.29
130 1.81
131 99.99
132 10.16
133 1.23
147 39.36
148 69.31
149 11.66
150 1.09
204 17.6
205 2.41

$$$$

     RDKit          2D

 14 14  0  0  0  0  0  0  0  0999 V2000
   -6.8197    3.1321    0.0000 C   0  0  0  0  0  0  0  0  0  0  0  0
   -5.5207    5.3821    0.0000 C   0  0  0  0  0  0  0  0  0  0  0  0
    3.5726    1.6321    0.0000 C   0  0  0  0  0  0  0  0  0  0  0  0
    3.5731    3.1329    0.0000 C   0  0  0  0  0  0  0  0  0  0  0  0
    2.2731    0.8813    0.0000 C   0  0  0  0  0  0  0  0  0  0  0  0
    2.2740    3.8829    0.0000 C   0  0  0  0  0  0  0  0  0  0  0  0
    0.9740    1.6313    0.0000 C   0  0  0  0  0  0  0  0  0  0  0  0
   -0.3245    3.8821    0.0000 C   0  0  0  0  0  0  0  0  0  0  0  0
   -1.6236    3.1321    0.0000 C   0  0  0  0  0  0  0  0  0  0  0  0
   -5.5207    3.8821    0.0000 C   0  0  0  0  0  0  0  0  0  0  0  0
    0.9745    3.1321    0.0000 C   0  0  0  0  0  0  0  0  0  0  0  0
   -2.9226    3.8821    0.0000 C   0  0  0  0  0  0  0  0  0  0  0  0
   -2.9226    5.3821    0.0000 O   0  0  0  0  0  0  0  0  0  0  0  0
   -4.2216    3.1321    0.0000 O   0  0  0  0  0  0  0  0  0  0  0  0
  4  3  2  0
  5  3  1  0
  6  4  1  0
  7  5  2  0
  8  9  2  0
 10  1  1  0
 10  2  1  0
 11  6  2  0
 11  7  1  0
 11  8  1  0
 12  9  1  0
 13 12  2  0
 14 10  1  0
 14 12  1  0
M  END
>  <NAME>  (2688) 
1-METHYLETHYL 3-PHENYLPROPENOATE

>  <SYNONYMS>  (2688) 
ISOPROPYL CINNAMATE

>  <SPECTRUM TYPE>  (2688) 
MS1

>  <INSTRUMENT TYPE>  (2688) 
EI-B

>  <INSTRUMENT>  (2688) 
HITACHI M-80B

>  <ION MODE>  (2688) 
P

>  <INCHIKEY>  (2688) 
RGACABDFLVLVCT-CMDGGOBGSA-N

>  <FORMULA>  (2688) 
C12H14O2

>  <EXACT MASS>  (2688) 
190.099379688

>  <MW>  (2688) 
190

>  <ID>  (2688) 
JP008523

>  <CONTRIBUTOR>  (2688) 
University of Tokyo Team, {Faculty of Engineering, University of Tokyo

>  <COMMENT>  (2688) 
SMILES=CC(C)OC(=O)C([H])=C([H])c(c1)cccc1
InChI=InChI=1S/C12H14O2/c1-10(2)14-12(13)9-8-11-6-4-3-5-7-11/h3-10H,1-2H3/b9-8+
computed SMILES=O=C(OC(C)C)C=CC=1C=CC=CC1
accession=JP008523
date=2016.01.19 (Created 2008.10.21, modified 2011.05.06)
author=SODA AROMATIC CO., LTD.
license=CC BY-NC-SA
exact mass=190.09938
ionization energy=70 eV
ion type=[M]+*
computed spectral entropy=2.9180550763431445
computed normalized entropy=0.7965077043062483
SPLASH=splash10-0uea-3900000000-0086a638ccdd7dbf65b6
submitter=submitter = University of Tokyo Team (Faculty of Engineering, University of Tokyo)
MoNA Rating=3.75

>  <NUM PEAKS>  (2688) 
39

>  <MASS SPECTRAL PEAKS>  (2688) 
15 1.56
27 11.02
29 1.15
39 7.79
41 14.04
42 1.47
43 19.23
50 6.72
51 18.74
52 2.29
59 8.34
63 3.18
74 2.26
75 2.95
76 4.89
77 40.66
78 3.4
91 6.25
92 1.23
101 1.37
102 17.44
103 46.29
104 29.74
105 2.62
107 1
119 1.52
120 3.91
130 3.1
131 99.99
132 13.21
133 1.01
145 9.83
146 2.21
147 64.32
148 41.17
149 3.67
175 2.44
190 29.35
191 3.38

$$$$

     RDKit          2D

 14 14  0  0  0  0  0  0  0  0999 V2000
   -7.4692    4.2571    0.0000 C   0  0  0  0  0  0  0  0  0  0  0  0
   -6.1702    3.5071    0.0000 C   0  0  0  0  0  0  0  0  0  0  0  0
    4.2221    2.0071    0.0000 C   0  0  0  0  0  0  0  0  0  0  0  0
    4.2226    3.5079    0.0000 C   0  0  0  0  0  0  0  0  0  0  0  0
    2.9226    1.2563    0.0000 C   0  0  0  0  0  0  0  0  0  0  0  0
    2.9236    4.2579    0.0000 C   0  0  0  0  0  0  0  0  0  0  0  0
    1.6236    2.0063    0.0000 C   0  0  0  0  0  0  0  0  0  0  0  0
    0.3250    4.2571    0.0000 C   0  0  0  0  0  0  0  0  0  0  0  0
   -0.9740    3.5071    0.0000 C   0  0  0  0  0  0  0  0  0  0  0  0
   -4.8712    4.2571    0.0000 C   0  0  0  0  0  0  0  0  0  0  0  0
    1.6240    3.5071    0.0000 C   0  0  0  0  0  0  0  0  0  0  0  0
   -2.2731    4.2571    0.0000 C   0  0  0  0  0  0  0  0  0  0  0  0
   -2.2731    5.7571    0.0000 O   0  0  0  0  0  0  0  0  0  0  0  0
   -3.5721    3.5071    0.0000 O   0  0  0  0  0  0  0  0  0  0  0  0
  2  1  1  0
  4  3  2  0
  5  3  1  0
  6  4  1  0
  7  5  2  0
  8  9  2  0
 10  2  1  0
 11  6  2  0
 11  7  1  0
 11  8  1  0
 12  9  1  0
 13 12  2  0
 14 10  1  0
 14 12  1  0
M  END
>  <NAME>  (2689) 
PROPYL CINNAMATE

>  <SYNONYMS>  (2689) 


>  <SPECTRUM TYPE>  (2689) 
MS1

>  <INSTRUMENT TYPE>  (2689) 
EI-B

>  <INSTRUMENT>  (2689) 
HITACHI M-80B

>  <ION MODE>  (2689) 
P

>  <INCHIKEY>  (2689) 
OLLPXZHNCXACMM-CMDGGOBGSA-N

>  <FORMULA>  (2689) 
C12H14O2

>  <EXACT MASS>  (2689) 
190.099379688

>  <MW>  (2689) 
190

>  <ID>  (2689) 
JP008522

>  <CONTRIBUTOR>  (2689) 
University of Tokyo Team, {Faculty of Engineering, University of Tokyo

>  <COMMENT>  (2689) 
computed SMILES=O=C(OCCC)C=CC=1C=CC=CC1
SMILES=CCCOC(=O)C=Cc(c1)cccc1
InChI=InChI=1S/C12H14O2/c1-2-10-14-12(13)9-8-11-6-4-3-5-7-11/h3-9H,2,10H2,1H3/b9-8+
accession=JP008522
date=2016.01.19 (Created 2008.10.21, modified 2011.05.06)
author=SODA AROMATIC CO., LTD.
license=CC BY-NC-SA
exact mass=190.09938
ionization energy=70 eV
ion type=[M]+*
computed spectral entropy=2.665084505256834
computed normalized entropy=0.7622132823699839
SPLASH=splash10-0f8a-3900000000-38ffea49b62d2233a8d1
submitter=submitter = University of Tokyo Team (Faculty of Engineering, University of Tokyo)
MoNA Rating=3.75

>  <NUM PEAKS>  (2689) 
33

>  <MASS SPECTRAL PEAKS>  (2689) 
26 1
27 12.51
29 3.3
39 4.64
41 7.65
42 1.58
43 3.6
50 4
51 16.41
52 2.17
63 2.68
74 1.96
75 2.61
76 3.76
77 37.27
78 3.03
91 3.08
101 1.25
102 14.32
103 49.72
104 12.18
105 1.39
120 1.89
130 1.84
131 99.99
132 10.57
133 1.5
146 1.15
147 33.19
148 49.21
149 4.62
190 16.51
191 1.77

$$$$

     RDKit          2D

 14 14  0  0  0  0  0  0  0  0999 V2000
   -7.4692    4.2571    0.0000 C   0  0  0  0  0  0  0  0  0  0  0  0
   -6.1702    3.5071    0.0000 C   0  0  0  0  0  0  0  0  0  0  0  0
    4.2221    2.0071    0.0000 C   0  0  0  0  0  0  0  0  0  0  0  0
    4.2226    3.5079    0.0000 C   0  0  0  0  0  0  0  0  0  0  0  0
    2.9226    1.2563    0.0000 C   0  0  0  0  0  0  0  0  0  0  0  0
    2.9236    4.2579    0.0000 C   0  0  0  0  0  0  0  0  0  0  0  0
    1.6236    2.0063    0.0000 C   0  0  0  0  0  0  0  0  0  0  0  0
    0.3250    4.2571    0.0000 C   0  0  0  0  0  0  0  0  0  0  0  0
   -0.9740    3.5071    0.0000 C   0  0  0  0  0  0  0  0  0  0  0  0
   -4.8712    4.2571    0.0000 C   0  0  0  0  0  0  0  0  0  0  0  0
    1.6240    3.5071    0.0000 C   0  0  0  0  0  0  0  0  0  0  0  0
   -2.2731    4.2571    0.0000 C   0  0  0  0  0  0  0  0  0  0  0  0
   -2.2731    5.7571    0.0000 O   0  0  0  0  0  0  0  0  0  0  0  0
   -3.5721    3.5071    0.0000 O   0  0  0  0  0  0  0  0  0  0  0  0
  2  1  2  0
  4  3  2  0
  5  3  1  0
  6  4  1  0
  7  5  2  0
  8  9  2  0
 10  2  1  0
 11  6  2  0
 11  7  1  0
 11  8  1  0
 12  9  1  0
 13 12  2  0
 14 10  1  0
 14 12  1  0
M  END
>  <NAME>  (2690) 
ALLYL CINNAMATE

>  <SYNONYMS>  (2690) 
2-PROPENYL 3-PHENYLPROPENOATE

>  <SPECTRUM TYPE>  (2690) 
MS1

>  <INSTRUMENT TYPE>  (2690) 
EI-B

>  <INSTRUMENT>  (2690) 
HITACHI M-80B

>  <ION MODE>  (2690) 
P

>  <INCHIKEY>  (2690) 
KCMITHMNVLRGJU-CMDGGOBGSA-N

>  <FORMULA>  (2690) 
C12H12O2

>  <EXACT MASS>  (2690) 
188.083729624

>  <MW>  (2690) 
188

>  <ID>  (2690) 
JP008521

>  <CONTRIBUTOR>  (2690) 
University of Tokyo Team, {Faculty of Engineering, University of Tokyo

>  <COMMENT>  (2690) 
SMILES=C=CCOC(=O)C=Cc(c1)cccc1
InChI=InChI=1S/C12H12O2/c1-2-10-14-12(13)9-8-11-6-4-3-5-7-11/h2-9H,1,10H2/b9-8+
computed SMILES=O=C(OCC=C)C=CC=1C=CC=CC1
accession=JP008521
date=2016.01.19 (Created 2008.10.21, modified 2011.05.06)
author=SODA AROMATIC CO., LTD.
license=CC BY-NC-SA
exact mass=188.08373
ionization energy=70 eV
ion type=[M]+*
computed spectral entropy=2.891106994835523
computed normalized entropy=0.7735052292190947
SPLASH=splash10-0ue9-4900000000-c9ecf6a54baed4395aa3
submitter=submitter = University of Tokyo Team (Faculty of Engineering, University of Tokyo)
MoNA Rating=3.75

>  <NUM PEAKS>  (2690) 
42

>  <MASS SPECTRAL PEAKS>  (2690) 
26 1.95
27 7.68
29 3.3
38 1.92
39 18.09
41 16.98
50 7.68
51 22.1
52 2.61
53 1.16
55 1.36
62 1.26
63 3.39
69 2.67
74 2.67
75 3.16
76 5.81
77 46.7
78 3.76
91 5.81
97 2.06
101 1.4
102 13
103 59.88
104 39.46
105 4.54
115 1.3
116 1.55
128 4.96
129 8.29
130 1.32
131 99.99
132 11.5
133 1.43
141 1.04
142 3.73
143 15.6
144 2.11
147 5.01
173 2.7
188 11.96
189 1.47

$$$$

     RDKit          2D

 13 13  0  0  0  0  0  0  0  0999 V2000
   -6.8197    3.1321    0.0000 C   0  0  0  0  0  0  0  0  0  0  0  0
   -5.5207    3.8821    0.0000 C   0  0  0  0  0  0  0  0  0  0  0  0
    3.5726    1.6321    0.0000 C   0  0  0  0  0  0  0  0  0  0  0  0
    3.5731    3.1329    0.0000 C   0  0  0  0  0  0  0  0  0  0  0  0
    2.2731    0.8813    0.0000 C   0  0  0  0  0  0  0  0  0  0  0  0
    2.2740    3.8829    0.0000 C   0  0  0  0  0  0  0  0  0  0  0  0
    0.9740    1.6313    0.0000 C   0  0  0  0  0  0  0  0  0  0  0  0
   -0.3245    3.8821    0.0000 C   0  0  0  0  0  0  0  0  0  0  0  0
   -1.6236    3.1321    0.0000 C   0  0  0  0  0  0  0  0  0  0  0  0
    0.9745    3.1321    0.0000 C   0  0  0  0  0  0  0  0  0  0  0  0
   -2.9226    3.8821    0.0000 C   0  0  0  0  0  0  0  0  0  0  0  0
   -2.9226    5.3821    0.0000 O   0  0  0  0  0  0  0  0  0  0  0  0
   -4.2216    3.1321    0.0000 O   0  0  0  0  0  0  0  0  0  0  0  0
  2  1  1  0
  4  3  2  0
  5  3  1  0
  6  4  1  0
  7  5  2  0
  8  9  2  0
 10  6  2  0
 10  7  1  0
 10  8  1  0
 11  9  1  0
 12 11  2  0
 13  2  1  0
 13 11  1  0
M  END
>  <NAME>  (2691) 
ETHYL CINNAMATE

>  <SYNONYMS>  (2691) 


>  <SPECTRUM TYPE>  (2691) 
MS1

>  <INSTRUMENT TYPE>  (2691) 
EI-B

>  <INSTRUMENT>  (2691) 
HITACHI M-80B

>  <ION MODE>  (2691) 
P

>  <INCHIKEY>  (2691) 
KBEBGUQPQBELIU-CMDGGOBGSA-N

>  <FORMULA>  (2691) 
C11H12O2

>  <EXACT MASS>  (2691) 
176.083729624

>  <MW>  (2691) 
176

>  <ID>  (2691) 
JP008520

>  <CONTRIBUTOR>  (2691) 
University of Tokyo Team, {Faculty of Engineering, University of Tokyo

>  <COMMENT>  (2691) 
SMILES=CCOC(=O)C=Cc(c1)cccc1
InChI=InChI=1S/C11H12O2/c1-2-13-11(12)9-8-10-6-4-3-5-7-10/h3-9H,2H2,1H3/b9-8+
computed SMILES=O=C(OCC)C=CC=1C=CC=CC1
accession=JP008520
date=2016.01.19 (Created 2008.10.21, modified 2011.05.06)
author=SODA AROMATIC CO., LTD.
license=CC BY-NC-SA
exact mass=176.08373
ionization energy=70 eV
ion type=[M]+*
computed spectral entropy=2.6445264756647044
computed normalized entropy=0.7563336927421247
SPLASH=splash10-0fai-3900000000-19a7e46c9f2c6098429e
submitter=submitter = University of Tokyo Team (Faculty of Engineering, University of Tokyo)
MoNA Rating=3.75

>  <NUM PEAKS>  (2691) 
33

>  <MASS SPECTRAL PEAKS>  (2691) 
26 1.34
27 8.51
29 5.6
39 2.35
43 1.05
50 6.34
51 19.05
52 2.29
53 1.02
62 1.18
63 2.9
69 1.19
74 2.33
75 3.04
76 5.54
77 36.71
78 3.82
91 3.03
101 1.15
102 13.71
103 47.49
104 15.49
105 1.64
130 2.84
131 99.99
132 11.26
133 1.28
147 11.64
148 11.29
158 1.62
175 2.73
176 31.09
177 3.26

$$$$

     RDKit          2D

 12 12  0  0  0  0  0  0  0  0999 V2000
   -5.5207    3.1321    0.0000 C   0  0  0  0  0  0  0  0  0  0  0  0
    3.5726    0.8821    0.0000 C   0  0  0  0  0  0  0  0  0  0  0  0
    3.5731    2.3829    0.0000 C   0  0  0  0  0  0  0  0  0  0  0  0
    2.2731    0.1313    0.0000 C   0  0  0  0  0  0  0  0  0  0  0  0
    2.2740    3.1329    0.0000 C   0  0  0  0  0  0  0  0  0  0  0  0
    0.9740    0.8813    0.0000 C   0  0  0  0  0  0  0  0  0  0  0  0
   -0.3245    3.1321    0.0000 C   0  0  0  0  0  0  0  0  0  0  0  0
   -1.6236    2.3821    0.0000 C   0  0  0  0  0  0  0  0  0  0  0  0
    0.9745    2.3821    0.0000 C   0  0  0  0  0  0  0  0  0  0  0  0
   -2.9226    3.1321    0.0000 C   0  0  0  0  0  0  0  0  0  0  0  0
   -2.9226    4.6321    0.0000 O   0  0  0  0  0  0  0  0  0  0  0  0
   -4.2216    2.3821    0.0000 O   0  0  0  0  0  0  0  0  0  0  0  0
  3  2  2  0
  4  2  1  0
  5  3  1  0
  6  4  2  0
  7  8  2  0
  9  5  2  0
  9  6  1  0
  9  7  1  0
 10  8  1  0
 11 10  2  0
 12  1  1  0
 12 10  1  0
M  END
>  <NAME>  (2692) 
METHYL CINNAMATE

>  <SYNONYMS>  (2692) 


>  <SPECTRUM TYPE>  (2692) 
MS1

>  <INSTRUMENT TYPE>  (2692) 
EI-B

>  <INSTRUMENT>  (2692) 
HITACHI M-80B

>  <ION MODE>  (2692) 
P

>  <INCHIKEY>  (2692) 
CCRCUPLGCSFEDV-BQYQJAHWSA-N

>  <FORMULA>  (2692) 
C10H10O2

>  <EXACT MASS>  (2692) 
162.06807956

>  <MW>  (2692) 
162

>  <ID>  (2692) 
JP008519

>  <CONTRIBUTOR>  (2692) 
University of Tokyo Team, {Faculty of Engineering, University of Tokyo

>  <COMMENT>  (2692) 
SMILES=COC(=O)C=Cc(c1)cccc1
InChI=InChI=1S/C10H10O2/c1-12-10(11)8-7-9-5-3-2-4-6-9/h2-8H,1H3/b8-7+
computed SMILES=O=C(OC)C=CC=1C=CC=CC1
accession=JP008519
date=2016.01.19 (Created 2008.10.21, modified 2011.05.06)
author=SODA AROMATIC CO., LTD.
license=CC BY-NC-SA
exact mass=162.06808
ionization energy=70 eV
ion type=[M]+*
computed spectral entropy=2.678226731364382
computed normalized entropy=0.7473733995440371
SPLASH=splash10-0w30-4900000000-7f967019a24723339f54
submitter=submitter = University of Tokyo Team (Faculty of Engineering, University of Tokyo)
MoNA Rating=3.75

>  <NUM PEAKS>  (2692) 
36

>  <MASS SPECTRAL PEAKS>  (2692) 
15 6.57
26 1.03
27 2.15
29 4.64
30 1.14
38 1.53
39 3.68
50 10.84
51 28.22
52 3.49
53 1.35
59 1.4
62 2.11
63 6.22
65 1.48
74 4.58
75 6
76 7.23
77 44.73
78 3.66
85 1.16
91 3.76
101 1.58
102 16.8
103 61.84
104 8.04
105 1
117 2.4
121 1.43
130 1.87
131 99.99
132 10.07
147 1.38
161 18.63
162 49.6
163 5.41

$$$$

     RDKit          2D

 14 14  0  0  0  0  0  0  0  0999 V2000
   10.0231    1.2915    0.0000 C   0  0  0  0  0  0  0  0  0  0  0  0
    8.7242    0.5412    0.0000 C   0  0  0  0  0  0  0  0  0  0  0  0
   -1.6700   -0.9600    0.0000 C   0  0  0  0  0  0  0  0  0  0  0  0
   -1.6700    0.5400    0.0000 C   0  0  0  0  0  0  0  0  0  0  0  0
   -0.3700   -1.7100    0.0000 C   0  0  0  0  0  0  0  0  0  0  0  0
   -0.3700    1.2900    0.0000 C   0  0  0  0  0  0  0  0  0  0  0  0
    0.9300   -0.9600    0.0000 C   0  0  0  0  0  0  0  0  0  0  0  0
    7.4251    1.2910    0.0000 C   0  0  0  0  0  0  0  0  0  0  0  0
    3.5281    0.5404    0.0000 C   0  0  0  0  0  0  0  0  0  0  0  0
    0.9300    0.5400    0.0000 C   0  0  0  0  0  0  0  0  0  0  0  0
    4.8270    1.2906    0.0000 C   0  0  0  0  0  0  0  0  0  0  0  0
    4.8268    2.7906    0.0000 O   0  0  0  0  0  0  0  0  0  0  0  0
    6.1262    0.5408    0.0000 O   0  0  0  0  0  0  0  0  0  0  0  0
    2.2289    1.2902    0.0000 O   0  0  0  0  0  0  0  0  0  0  0  0
  2  1  2  0
  4  3  2  0
  5  3  1  0
  6  4  1  0
  7  5  2  0
  8  2  1  0
 10  6  2  0
 10  7  1  0
 11  9  1  0
 12 11  2  0
 13  8  1  0
 13 11  1  0
 14  9  1  0
 14 10  1  0
M  END
>  <NAME>  (2693) 
2-PROPENYL PHENOXYACETATE

>  <SYNONYMS>  (2693) 
ALLYL PHENOXYACETATE

>  <SPECTRUM TYPE>  (2693) 
MS1

>  <INSTRUMENT TYPE>  (2693) 
EI-B

>  <INSTRUMENT>  (2693) 
HITACHI M-80B

>  <ION MODE>  (2693) 
P

>  <INCHIKEY>  (2693) 
VUFZVGQUAVDKMC-UHFFFAOYSA-N

>  <FORMULA>  (2693) 
C11H12O3

>  <EXACT MASS>  (2693) 
192.07864424399997

>  <MW>  (2693) 
192

>  <ID>  (2693) 
JP008518

>  <CONTRIBUTOR>  (2693) 
University of Tokyo Team, {Faculty of Engineering, University of Tokyo

>  <COMMENT>  (2693) 
SMILES=C=CCOC(=O)COc(c1)cccc1
InChI=InChI=1S/C11H12O3/c1-2-8-13-11(12)9-14-10-6-4-3-5-7-10/h2-7H,1,8-9H2
computed SMILES=O=C(OCC=C)COC=1C=CC=CC1
accession=JP008518
date=2016.01.19 (Created 2008.10.21, modified 2011.05.06)
author=SODA AROMATIC CO., LTD.
license=CC BY-NC-SA
exact mass=192.07864
ionization energy=70 eV
ion type=[M]+*
computed spectral entropy=2.576316322605602
computed normalized entropy=0.7305878978117332
SPLASH=splash10-056u-9400000000-59e1f1260e32b874c5f0
submitter=submitter = University of Tokyo Team (Faculty of Engineering, University of Tokyo)
MoNA Rating=3.75

>  <NUM PEAKS>  (2693) 
34

>  <MASS SPECTRAL PEAKS>  (2693) 
15 1.03
26 1.65
27 6.56
28 2.61
29 4.31
38 3.73
39 28.05
40 2.48
41 40.15
42 5.33
43 1.24
50 5.89
51 25.45
52 1.89
55 1.94
57 1.45
63 3.12
64 1.43
65 9.97
66 1.97
74 1.18
75 1.45
76 2.17
77 99.99
78 9.09
79 24.67
80 1.6
91 1.01
94 7.75
105 1.39
107 88.14
108 8.46
192 31.84
193 3.51

$$$$

     RDKit          2D

 14 14  0  0  0  0  0  0  0  0999 V2000
    7.4614    0.9233    0.0000 C   0  0  0  0  0  0  0  0  0  0  0  0
    6.1754   -1.3341    0.0000 C   0  0  0  0  0  0  0  0  0  0  0  0
   -0.3006   -2.0967    0.0000 C   0  0  0  0  0  0  0  0  0  0  0  0
   -1.5835   -1.3690    0.0000 C   0  0  0  0  0  0  0  0  0  0  0  0
    0.9765   -1.3443    0.0000 C   0  0  0  0  0  0  0  0  0  0  0  0
   -1.6197    0.1306    0.0000 C   0  0  0  0  0  0  0  0  0  0  0  0
    4.8634    0.9083    0.0000 C   0  0  0  0  0  0  0  0  0  0  0  0
    6.1667    0.1659    0.0000 C   0  0  0  0  0  0  0  0  0  0  0  0
    0.9706    0.1359    0.0000 C   0  0  0  0  0  0  0  0  0  0  0  0
   -0.3123    0.8636    0.0000 C   0  0  0  0  0  0  0  0  0  0  0  0
    2.2653    0.8933    0.0000 C   0  0  0  0  0  0  0  0  0  0  0  0
   -0.3085    2.3636    0.0000 N   0  0  0  0  0  0  0  0  0  0  0  0
    2.2567    2.3933    0.0000 O   0  0  0  0  0  0  0  0  0  0  0  0
    3.5687    0.1509    0.0000 O   0  0  0  0  0  0  0  0  0  0  0  0
  4  3  2  0
  5  3  1  0
  6  4  1  0
  8  1  1  0
  8  2  1  0
  8  7  1  0
  9  5  2  0
 10  6  2  0
 10  9  1  0
 11  9  1  0
 12 10  1  0
 13 11  2  0
 14  7  1  0
 14 11  1  0
M  END
>  <NAME>  (2694) 
2-METHYLPROPYL 2-AMINOBENZOATE

>  <SYNONYMS>  (2694) 
ISOBUTYL ANTHRANILATE

>  <SPECTRUM TYPE>  (2694) 
MS1

>  <INSTRUMENT TYPE>  (2694) 
EI-B

>  <INSTRUMENT>  (2694) 
HITACHI M-80B

>  <ION MODE>  (2694) 
P

>  <INCHIKEY>  (2694) 
ILCLJQFCMRCPNM-UHFFFAOYSA-N

>  <FORMULA>  (2694) 
C11H15NO2

>  <EXACT MASS>  (2694) 
193.11027872

>  <MW>  (2694) 
193

>  <ID>  (2694) 
JP008517

>  <CONTRIBUTOR>  (2694) 
University of Tokyo Team, {Faculty of Engineering, University of Tokyo

>  <COMMENT>  (2694) 
SMILES=CC(C)COC(=O)c(c1)c(N)ccc1
InChI=InChI=1S/C11H15NO2/c1-8(2)7-14-11(13)9-5-3-4-6-10(9)12/h3-6,8H,7,12H2,1-2H3
computed SMILES=O=C(OCC(C)C)C=1C=CC=CC1N
accession=JP008517
date=2016.01.19 (Created 2008.10.21, modified 2011.05.06)
author=SODA AROMATIC CO., LTD.
license=CC BY-NC-SA
exact mass=193.11028
ionization energy=70 eV
ion type=[M]+*
computed spectral entropy=2.394879889929626
computed normalized entropy=0.7440112698437773
SPLASH=splash10-014l-4900000000-f08f03c20e688b33bece
submitter=submitter = University of Tokyo Team (Faculty of Engineering, University of Tokyo)
MoNA Rating=3.75

>  <NUM PEAKS>  (2694) 
25

>  <MASS SPECTRAL PEAKS>  (2694) 
27 4.23
29 3.82
38 1.35
39 10.99
41 10.76
42 1.18
43 2.79
52 2.56
53 1.07
57 3.25
63 2.84
64 3.62
65 22.96
66 2.91
90 1.37
91 4.32
92 29.97
93 4.76
119 99.99
120 40.92
121 2.93
137 48.14
138 3.36
193 35.68
194 3.89

$$$$

     RDKit          2D

 14 14  0  0  0  0  0  0  0  0999 V2000
   -1.6211    0.2101    0.0000 C   0  0  0  0  0  0  0  0  0  0  0  0
   -0.3178   -0.5324    0.0000 C   0  0  0  0  0  0  0  0  0  0  0  0
    0.9769    0.2251    0.0000 C   0  0  0  0  0  0  0  0  0  0  0  0
    7.4442    2.4876    0.0000 C   0  0  0  0  0  0  0  0  0  0  0  0
    8.7271    1.7599    0.0000 C   0  0  0  0  0  0  0  0  0  0  0  0
    6.1671    1.7352    0.0000 C   0  0  0  0  0  0  0  0  0  0  0  0
    8.7633    0.2603    0.0000 C   0  0  0  0  0  0  0  0  0  0  0  0
    2.2802   -0.5174    0.0000 C   0  0  0  0  0  0  0  0  0  0  0  0
    6.1730    0.2551    0.0000 C   0  0  0  0  0  0  0  0  0  0  0  0
    7.4559   -0.4726    0.0000 C   0  0  0  0  0  0  0  0  0  0  0  0
    4.8783   -0.5024    0.0000 C   0  0  0  0  0  0  0  0  0  0  0  0
    7.4521   -1.9726    0.0000 N   0  0  0  0  0  0  0  0  0  0  0  0
    4.8869   -2.0024    0.0000 O   0  0  0  0  0  0  0  0  0  0  0  0
    3.5749    0.2401    0.0000 O   0  0  0  0  0  0  0  0  0  0  0  0
  2  1  1  0
  3  2  1  0
  5  4  2  0
  6  4  1  0
  7  5  1  0
  8  3  1  0
  9  6  2  0
 10  7  2  0
 10  9  1  0
 11  9  1  0
 12 10  1  0
 13 11  2  0
 14  8  1  0
 14 11  1  0
M  END
>  <NAME>  (2695) 
BUTYL 2-AMINOBENZOATE

>  <SYNONYMS>  (2695) 
BUTYL ANTHRANILATE

>  <SPECTRUM TYPE>  (2695) 
MS1

>  <INSTRUMENT TYPE>  (2695) 
EI-B

>  <INSTRUMENT>  (2695) 
HITACHI M-80B

>  <ION MODE>  (2695) 
P

>  <INCHIKEY>  (2695) 
HUIYGGQINIVDNW-UHFFFAOYSA-N

>  <FORMULA>  (2695) 
C11H15NO2

>  <EXACT MASS>  (2695) 
193.11027872

>  <MW>  (2695) 
193

>  <ID>  (2695) 
JP008516

>  <CONTRIBUTOR>  (2695) 
University of Tokyo Team, {Faculty of Engineering, University of Tokyo

>  <COMMENT>  (2695) 
SMILES=CCCCOC(=O)c(c1)c(N)ccc1
InChI=InChI=1S/C11H15NO2/c1-2-3-8-14-11(13)9-6-4-5-7-10(9)12/h4-7H,2-3,8,12H2,1H3
computed SMILES=O=C(OCCCC)C=1C=CC=CC1N
accession=JP008516
date=2016.01.19 (Created 2008.10.21, modified 2011.05.06)
author=SODA AROMATIC CO., LTD.
license=CC BY-NC-SA
exact mass=193.11028
ionization energy=70 eV
ion type=[M]+*
computed spectral entropy=2.4322742947764273
computed normalized entropy=0.7653345174805086
SPLASH=splash10-014l-5900000000-4452e06b242602a8f0eb
submitter=submitter = University of Tokyo Team (Faculty of Engineering, University of Tokyo)
MoNA Rating=3.75

>  <NUM PEAKS>  (2695) 
24

>  <MASS SPECTRAL PEAKS>  (2695) 
27 7.48
29 10.12
38 1.16
39 10.46
41 9.09
42 1.01
52 3.15
55 1.23
57 1.32
63 3.54
64 4.73
65 23.81
66 3.39
90 1.25
91 5.63
92 31.24
93 5.89
119 99.99
120 33.97
121 3.03
137 29.17
138 2.46
193 36.12
194 4.52

$$$$

     RDKit          2D

 13 13  0  0  0  0  0  0  0  0999 V2000
    7.4614    0.9233    0.0000 C   0  0  0  0  0  0  0  0  0  0  0  0
    6.1667    0.1659    0.0000 C   0  0  0  0  0  0  0  0  0  0  0  0
   -0.3006   -2.0967    0.0000 C   0  0  0  0  0  0  0  0  0  0  0  0
   -1.5835   -1.3690    0.0000 C   0  0  0  0  0  0  0  0  0  0  0  0
    0.9765   -1.3443    0.0000 C   0  0  0  0  0  0  0  0  0  0  0  0
   -1.6197    0.1306    0.0000 C   0  0  0  0  0  0  0  0  0  0  0  0
    4.8634    0.9083    0.0000 C   0  0  0  0  0  0  0  0  0  0  0  0
    0.9706    0.1359    0.0000 C   0  0  0  0  0  0  0  0  0  0  0  0
   -0.3123    0.8636    0.0000 C   0  0  0  0  0  0  0  0  0  0  0  0
    2.2653    0.8933    0.0000 C   0  0  0  0  0  0  0  0  0  0  0  0
   -0.3085    2.3636    0.0000 N   0  0  0  0  0  0  0  0  0  0  0  0
    2.2567    2.3933    0.0000 O   0  0  0  0  0  0  0  0  0  0  0  0
    3.5687    0.1509    0.0000 O   0  0  0  0  0  0  0  0  0  0  0  0
  2  1  2  0
  4  3  2  0
  5  3  1  0
  6  4  1  0
  7  2  1  0
  8  5  2  0
  9  6  2  0
  9  8  1  0
 10  8  1  0
 11  9  1  0
 12 10  2  0
 13  7  1  0
 13 10  1  0
M  END
>  <NAME>  (2696) 
2-PROPENYL 2-AMINOBENZOATE

>  <SYNONYMS>  (2696) 
ALLYL ANTHRANILATE

>  <SPECTRUM TYPE>  (2696) 
MS1

>  <INSTRUMENT TYPE>  (2696) 
EI-B

>  <INSTRUMENT>  (2696) 
HITACHI M-80B

>  <ION MODE>  (2696) 
P

>  <INCHIKEY>  (2696) 
UCANFCXAKYMFGA-UHFFFAOYSA-N

>  <FORMULA>  (2696) 
C10H11NO2

>  <EXACT MASS>  (2696) 
177.078978592

>  <MW>  (2696) 
177

>  <ID>  (2696) 
JP008515

>  <CONTRIBUTOR>  (2696) 
University of Tokyo Team, {Faculty of Engineering, University of Tokyo

>  <COMMENT>  (2696) 
SMILES=C=CCOC(=O)c(c1)c(N)ccc1
InChI=InChI=1S/C10H11NO2/c1-2-7-13-10(12)8-5-3-4-6-9(8)11/h2-6H,1,7,11H2
computed SMILES=O=C(OCC=C)C=1C=CC=CC1N
accession=JP008515
date=2016.01.19 (Created 2008.10.21, modified 2011.05.06)
author=SODA AROMATIC CO., LTD.
license=CC BY-NC-SA
exact mass=177.07898
ionization energy=70 eV
ion type=[M]+*
computed spectral entropy=2.849423718509929
computed normalized entropy=0.7575836517234865
SPLASH=splash10-01dl-7900000000-b1419121142cd4687b33
submitter=submitter = University of Tokyo Team (Faculty of Engineering, University of Tokyo)
MoNA Rating=3.75

>  <NUM PEAKS>  (2696) 
43

>  <MASS SPECTRAL PEAKS>  (2696) 
15 1.32
26 2.03
27 7.35
29 2.61
37 1.55
38 6.27
39 38.24
41 29.22
42 2.5
50 1.67
51 1.88
52 8.04
53 1.84
54 1.71
55 1.03
56 8
62 2.13
63 9.47
64 10.39
65 48.28
66 7.9
76 1.44
77 2.3
78 1.61
90 2.52
91 10.63
92 55.59
93 19.08
94 1.06
103 1.4
104 2.47
105 1.69
119 99.99
120 80.11
121 8.27
130 13.14
131 3.03
132 12.26
133 1.34
158 3.1
159 1.69
177 87.7
178 9.33

$$$$

     RDKit          2D

 20 20  0  0  0  0  0  0  0  0999 V2000
   -4.2384    7.6835    0.0000 C   0  0  0  0  0  0  0  0  0  0  0  0
    8.7642    0.1912    0.0000 C   0  0  0  0  0  0  0  0  0  0  0  0
   -2.9381    6.9356    0.0000 C   0  0  0  0  0  0  0  0  0  0  0  0
    7.4651    0.9410    0.0000 C   0  0  0  0  0  0  0  0  0  0  0  0
   -2.9356    5.4356    0.0000 C   0  0  0  0  0  0  0  0  0  0  0  0
    6.1662    0.1908    0.0000 C   0  0  0  0  0  0  0  0  0  0  0  0
   -1.6200   -1.3100    0.0000 C   0  0  0  0  0  0  0  0  0  0  0  0
   -0.3300   -2.0600    0.0000 C   0  0  0  0  0  0  0  0  0  0  0  0
   -1.6200    0.1900    0.0000 C   0  0  0  0  0  0  0  0  0  0  0  0
    0.9700   -1.3100    0.0000 C   0  0  0  0  0  0  0  0  0  0  0  0
   -1.6353    4.6878    0.0000 C   0  0  0  0  0  0  0  0  0  0  0  0
    4.8670    0.9406    0.0000 C   0  0  0  0  0  0  0  0  0  0  0  0
   -0.3300    0.9400    0.0000 C   0  0  0  0  0  0  0  0  0  0  0  0
    0.9700    0.1900    0.0000 C   0  0  0  0  0  0  0  0  0  0  0  0
   -0.3325    2.4400    0.0000 C   0  0  0  0  0  0  0  0  0  0  0  0
    2.2689    0.9402    0.0000 C   0  0  0  0  0  0  0  0  0  0  0  0
    0.9653    3.1922    0.0000 O   0  0  0  0  0  0  0  0  0  0  0  0
    2.2687    2.4402    0.0000 O   0  0  0  0  0  0  0  0  0  0  0  0
   -1.6328    3.1878    0.0000 O   0  0  0  0  0  0  0  0  0  0  0  0
    3.5681    0.1904    0.0000 O   0  0  0  0  0  0  0  0  0  0  0  0
  3  1  1  0
  4  2  1  0
  5  3  1  0
  6  4  1  0
  8  7  2  0
  9  7  1  0
 10  8  1  0
 11  5  1  0
 12  6  1  0
 13  9  2  0
 14 10  2  0
 14 13  1  0
 15 13  1  0
 16 14  1  0
 17 15  2  0
 18 16  2  0
 19 11  1  0
 19 15  1  0
 20 12  1  0
 20 16  1  0
M  END
>  <NAME>  (2697) 
DIBUTYL PHTHALATE

>  <SYNONYMS>  (2697) 


>  <SPECTRUM TYPE>  (2697) 
MS1

>  <INSTRUMENT TYPE>  (2697) 
EI-B

>  <INSTRUMENT>  (2697) 
HITACHI M-80B

>  <ION MODE>  (2697) 
P

>  <INCHIKEY>  (2697) 
DOIRQSBPFJWKBE-UHFFFAOYSA-N

>  <FORMULA>  (2697) 
C16H22O4

>  <EXACT MASS>  (2697) 
278.151809184

>  <MW>  (2697) 
278

>  <ID>  (2697) 
JP008514

>  <CONTRIBUTOR>  (2697) 
University of Tokyo Team, {Faculty of Engineering, University of Tokyo

>  <COMMENT>  (2697) 
SMILES=CCCCOC(=O)c(c1)c(ccc1)C(=O)OCCCC
InChI=InChI=1S/C16H22O4/c1-3-5-11-19-15(17)13-9-7-8-10-14(13)16(18)20-12-6-4-2/h7-10H,3-6,11-12H2,1-2H3
computed SMILES=O=C(OCCCC)C=1C=CC=CC1C(=O)OCCCC
accession=JP008514
date=2016.01.19 (Created 2008.10.21, modified 2011.05.06)
author=SODA AROMATIC CO., LTD.
license=CC BY-NC-SA
exact mass=278.15181
ionization energy=70 eV
ion type=[M]+*
computed spectral entropy=2.1922278262136436
computed normalized entropy=0.6991650040610949
SPLASH=splash10-0002-5900000000-bb309d93583ab774d1f9
submitter=submitter = University of Tokyo Team (Faculty of Engineering, University of Tokyo)
MoNA Rating=3.75

>  <NUM PEAKS>  (2697) 
23

>  <MASS SPECTRAL PEAKS>  (2697) 
27 6.08
29 8.05
31 3.48
39 4.21
41 14.63
42 1.69
43 3.81
50 2.33
55 2.24
56 9.73
57 6.77
65 3.94
76 6.8
77 1.44
93 1.97
104 7.2
105 2.39
121 1.59
122 1.31
149 99.99
150 9.59
205 4.29
223 4.97

$$$$

     RDKit          2D

 18 18  0  0  0  0  0  0  0  0999 V2000
   -2.9381    6.9356    0.0000 C   0  0  0  0  0  0  0  0  0  0  0  0
    7.4651    0.9410    0.0000 C   0  0  0  0  0  0  0  0  0  0  0  0
   -2.9356    5.4356    0.0000 C   0  0  0  0  0  0  0  0  0  0  0  0
    6.1662    0.1908    0.0000 C   0  0  0  0  0  0  0  0  0  0  0  0
   -1.6200   -1.3100    0.0000 C   0  0  0  0  0  0  0  0  0  0  0  0
   -0.3300   -2.0600    0.0000 C   0  0  0  0  0  0  0  0  0  0  0  0
   -1.6200    0.1900    0.0000 C   0  0  0  0  0  0  0  0  0  0  0  0
    0.9700   -1.3100    0.0000 C   0  0  0  0  0  0  0  0  0  0  0  0
   -1.6353    4.6878    0.0000 C   0  0  0  0  0  0  0  0  0  0  0  0
    4.8670    0.9406    0.0000 C   0  0  0  0  0  0  0  0  0  0  0  0
   -0.3300    0.9400    0.0000 C   0  0  0  0  0  0  0  0  0  0  0  0
    0.9700    0.1900    0.0000 C   0  0  0  0  0  0  0  0  0  0  0  0
   -0.3325    2.4400    0.0000 C   0  0  0  0  0  0  0  0  0  0  0  0
    2.2689    0.9402    0.0000 C   0  0  0  0  0  0  0  0  0  0  0  0
    0.9653    3.1922    0.0000 O   0  0  0  0  0  0  0  0  0  0  0  0
    2.2687    2.4402    0.0000 O   0  0  0  0  0  0  0  0  0  0  0  0
   -1.6328    3.1878    0.0000 O   0  0  0  0  0  0  0  0  0  0  0  0
    3.5681    0.1904    0.0000 O   0  0  0  0  0  0  0  0  0  0  0  0
  3  1  2  0
  4  2  2  0
  6  5  2  0
  7  5  1  0
  8  6  1  0
  9  3  1  0
 10  4  1  0
 11  7  2  0
 12  8  2  0
 12 11  1  0
 13 11  1  0
 14 12  1  0
 15 13  2  0
 16 14  2  0
 17  9  1  0
 17 13  1  0
 18 10  1  0
 18 14  1  0
M  END
>  <NAME>  (2698) 
DIALLYL PHTHALATE

>  <SYNONYMS>  (2698) 


>  <SPECTRUM TYPE>  (2698) 
MS1

>  <INSTRUMENT TYPE>  (2698) 
EI-B

>  <INSTRUMENT>  (2698) 
HITACHI M-80B

>  <ION MODE>  (2698) 
P

>  <INCHIKEY>  (2698) 
QUDWYFHPNIMBFC-UHFFFAOYSA-N

>  <FORMULA>  (2698) 
C14H14O4

>  <EXACT MASS>  (2698) 
246.089208928

>  <MW>  (2698) 
246

>  <ID>  (2698) 
JP008513

>  <CONTRIBUTOR>  (2698) 
University of Tokyo Team, {Faculty of Engineering, University of Tokyo

>  <COMMENT>  (2698) 
SMILES=C=CCOC(=O)c(c1)c(ccc1)C(=O)OCC=C
InChI=InChI=1S/C14H14O4/c1-3-9-17-13(15)11-7-5-6-8-12(11)14(16)18-10-4-2/h3-8H,1-2,9-10H2
computed SMILES=O=C(OCC=C)C=1C=CC=CC1C(=O)OCC=C
accession=JP008513
date=2016.01.19 (Created 2008.10.21, modified 2011.05.06)
author=SODA AROMATIC CO., LTD.
license=CC BY-NC-SA
exact mass=246.08921
ionization energy=70 eV
ion type=[M]+*
computed spectral entropy=2.317459687260374
computed normalized entropy=0.7031475711569184
SPLASH=splash10-0006-9400000000-d4992c723061604dda77
submitter=submitter = University of Tokyo Team (Faculty of Engineering, University of Tokyo)
MoNA Rating=3.75

>  <NUM PEAKS>  (2698) 
27

>  <MASS SPECTRAL PEAKS>  (2698) 
27 2.86
29 2.3
39 16.61
41 99.99
42 3.84
43 1.29
50 5.98
51 1.63
57 1.13
65 4.84
74 1.16
75 1.48
76 10.91
77 2.93
93 2.36
98 6.29
104 11.21
105 2.88
115 1.1
121 1.76
132 9.12
149 37.82
150 3.33
172 1.69
188 4.4
189 12.13
190 1.42

$$$$

     RDKit          2D

 16 16  0  0  0  0  0  0  0  0999 V2000
   -2.9356    5.4356    0.0000 C   0  0  0  0  0  0  0  0  0  0  0  0
    6.1662    0.1908    0.0000 C   0  0  0  0  0  0  0  0  0  0  0  0
   -1.6353    4.6878    0.0000 C   0  0  0  0  0  0  0  0  0  0  0  0
    4.8670    0.9406    0.0000 C   0  0  0  0  0  0  0  0  0  0  0  0
   -1.6200   -1.3100    0.0000 C   0  0  0  0  0  0  0  0  0  0  0  0
   -0.3300   -2.0600    0.0000 C   0  0  0  0  0  0  0  0  0  0  0  0
   -1.6200    0.1900    0.0000 C   0  0  0  0  0  0  0  0  0  0  0  0
    0.9700   -1.3100    0.0000 C   0  0  0  0  0  0  0  0  0  0  0  0
   -0.3300    0.9400    0.0000 C   0  0  0  0  0  0  0  0  0  0  0  0
    0.9700    0.1900    0.0000 C   0  0  0  0  0  0  0  0  0  0  0  0
   -0.3325    2.4400    0.0000 C   0  0  0  0  0  0  0  0  0  0  0  0
    2.2689    0.9402    0.0000 C   0  0  0  0  0  0  0  0  0  0  0  0
    0.9653    3.1922    0.0000 O   0  0  0  0  0  0  0  0  0  0  0  0
    2.2687    2.4402    0.0000 O   0  0  0  0  0  0  0  0  0  0  0  0
   -1.6328    3.1878    0.0000 O   0  0  0  0  0  0  0  0  0  0  0  0
    3.5681    0.1904    0.0000 O   0  0  0  0  0  0  0  0  0  0  0  0
  3  1  1  0
  4  2  1  0
  6  5  2  0
  7  5  1  0
  8  6  1  0
  9  7  2  0
 10  8  2  0
 10  9  1  0
 11  9  1  0
 12 10  1  0
 13 11  2  0
 14 12  2  0
 15  3  1  0
 15 11  1  0
 16  4  1  0
 16 12  1  0
M  END
>  <NAME>  (2699) 
DIETHYL PHTHALATE

>  <SYNONYMS>  (2699) 


>  <SPECTRUM TYPE>  (2699) 
MS1

>  <INSTRUMENT TYPE>  (2699) 
EI-B

>  <INSTRUMENT>  (2699) 
HITACHI M-80B

>  <ION MODE>  (2699) 
P

>  <INCHIKEY>  (2699) 
FLKPEMZONWLCSK-UHFFFAOYSA-N

>  <FORMULA>  (2699) 
C12H14O4

>  <EXACT MASS>  (2699) 
222.089208928

>  <MW>  (2699) 
222

>  <ID>  (2699) 
JP008512

>  <CONTRIBUTOR>  (2699) 
University of Tokyo Team, {Faculty of Engineering, University of Tokyo

>  <COMMENT>  (2699) 
SMILES=CCOC(=O)c(c1)c(ccc1)C(=O)OCC
InChI=InChI=1S/C12H14O4/c1-3-15-11(13)9-7-5-6-8-10(9)12(14)16-4-2/h5-8H,3-4H2,1-2H3
computed SMILES=O=C(OCC)C=1C=CC=CC1C(=O)OCC
accession=JP008512
date=2016.01.19 (Created 2008.10.21, modified 2011.05.06)
author=SODA AROMATIC CO., LTD.
license=CC BY-NC-SA
exact mass=222.08921
ionization energy=70 eV
ion type=[M]+*
computed spectral entropy=2.181589587247554
computed normalized entropy=0.6777489117141947
SPLASH=splash10-0002-1900000000-40ef56b72df55d26c8ce
submitter=submitter = University of Tokyo Team (Faculty of Engineering, University of Tokyo)
MoNA Rating=3.75

>  <NUM PEAKS>  (2699) 
25

>  <MASS SPECTRAL PEAKS>  (2699) 
27 2.22
29 2.7
39 1.18
50 3.37
51 1.6
65 6.89
66 1.61
74 1.06
75 1.47
76 8.24
77 3.14
93 4.87
104 6.5
105 7.21
106 1.23
121 4.31
122 2.75
132 1.45
149 99.99
150 12.55
151 1.14
176 6.06
177 25.93
178 4.61
222 3.6

$$$$

     RDKit          2D

 14 14  0  0  0  0  0  0  0  0999 V2000
   -1.6353    4.6878    0.0000 C   0  0  0  0  0  0  0  0  0  0  0  0
    4.8670    0.9406    0.0000 C   0  0  0  0  0  0  0  0  0  0  0  0
   -1.6200   -1.3100    0.0000 C   0  0  0  0  0  0  0  0  0  0  0  0
   -0.3300   -2.0600    0.0000 C   0  0  0  0  0  0  0  0  0  0  0  0
   -1.6200    0.1900    0.0000 C   0  0  0  0  0  0  0  0  0  0  0  0
    0.9700   -1.3100    0.0000 C   0  0  0  0  0  0  0  0  0  0  0  0
   -0.3300    0.9400    0.0000 C   0  0  0  0  0  0  0  0  0  0  0  0
    0.9700    0.1900    0.0000 C   0  0  0  0  0  0  0  0  0  0  0  0
   -0.3325    2.4400    0.0000 C   0  0  0  0  0  0  0  0  0  0  0  0
    2.2689    0.9402    0.0000 C   0  0  0  0  0  0  0  0  0  0  0  0
    0.9653    3.1922    0.0000 O   0  0  0  0  0  0  0  0  0  0  0  0
    2.2687    2.4402    0.0000 O   0  0  0  0  0  0  0  0  0  0  0  0
   -1.6328    3.1878    0.0000 O   0  0  0  0  0  0  0  0  0  0  0  0
    3.5681    0.1904    0.0000 O   0  0  0  0  0  0  0  0  0  0  0  0
  4  3  2  0
  5  3  1  0
  6  4  1  0
  7  5  2  0
  8  6  2  0
  8  7  1  0
  9  7  1  0
 10  8  1  0
 11  9  2  0
 12 10  2  0
 13  1  1  0
 13  9  1  0
 14  2  1  0
 14 10  1  0
M  END
>  <NAME>  (2700) 
DIMETHYL PHTHALATE

>  <SYNONYMS>  (2700) 


>  <SPECTRUM TYPE>  (2700) 
MS1

>  <INSTRUMENT TYPE>  (2700) 
EI-B

>  <INSTRUMENT>  (2700) 
HITACHI M-80B

>  <ION MODE>  (2700) 
P

>  <INCHIKEY>  (2700) 
NIQCNGHVCWTJSM-UHFFFAOYSA-N

>  <FORMULA>  (2700) 
C10H10O4

>  <EXACT MASS>  (2700) 
194.0579088

>  <MW>  (2700) 
194

>  <ID>  (2700) 
JP008511

>  <CONTRIBUTOR>  (2700) 
University of Tokyo Team, {Faculty of Engineering, University of Tokyo

>  <COMMENT>  (2700) 
SMILES=COC(=O)c(c1)c(ccc1)C(=O)OC
InChI=InChI=1S/C10H10O4/c1-13-9(11)7-5-3-4-6-8(7)10(12)14-2/h3-6H,1-2H3
computed SMILES=O=C(OC)C=1C=CC=CC1C(=O)OC
accession=JP008511
date=2016.01.19 (Created 2008.10.21, modified 2011.05.06)
author=SODA AROMATIC CO., LTD.
license=CC BY-NC-SA
exact mass=194.05791
ionization energy=70 eV
ion type=[M]+*
computed spectral entropy=1.8464459247811589
computed normalized entropy=0.6388264484445229
SPLASH=splash10-03di-3900000000-cbc240470004eaf36e39
submitter=submitter = University of Tokyo Team (Faculty of Engineering, University of Tokyo)
MoNA Rating=3.75

>  <NUM PEAKS>  (2700) 
18

>  <MASS SPECTRAL PEAKS>  (2700) 
50 5.96
51 1.65
63 1.04
64 1.44
74 2.25
75 2.09
76 8.86
77 16.35
78 1.06
92 7.49
104 4.85
105 2.46
120 1.71
133 2.95
135 5.93
163 99.99
164 9.89
194 8.14

$$$$

     RDKit          2D

 13 13  0  0  0  0  0  0  0  0999 V2000
   -4.5510    1.8802    0.0000 C   0  0  0  0  0  0  0  0  0  0  0  0
    5.8522    0.3571    0.0000 C   0  0  0  0  0  0  0  0  0  0  0  0
   -3.2482    2.6238    0.0000 C   0  0  0  0  0  0  0  0  0  0  0  0
    1.9442    2.6046    0.0000 C   0  0  0  0  0  0  0  0  0  0  0  0
    0.6306    0.3798    0.0000 C   0  0  0  0  0  0  0  0  0  0  0  0
    3.2287    1.8798    0.0000 C   0  0  0  0  0  0  0  0  0  0  0  0
    1.9551   -0.4144    0.0000 C   0  0  0  0  0  0  0  0  0  0  0  0
    0.6451    1.8546    0.0000 C   0  0  0  0  0  0  0  0  0  0  0  0
    3.2542    0.3356    0.0000 C   0  0  0  0  0  0  0  0  0  0  0  0
   -0.6502    2.6110    0.0000 C   0  0  0  0  0  0  0  0  0  0  0  0
   -0.6428    4.1110    0.0000 O   0  0  0  0  0  0  0  0  0  0  0  0
    4.5594   -0.4036    0.0000 O   0  0  0  0  0  0  0  0  0  0  0  0
   -1.9529    1.8674    0.0000 O   0  0  0  0  0  0  0  0  0  0  0  0
  3  1  1  0
  6  4  2  0
  7  5  1  0
  8  4  1  0
  8  5  2  0
  9  6  1  0
  9  7  2  0
 10  8  1  0
 11 10  2  0
 12  2  1  0
 12  9  1  0
 13  3  1  0
 13 10  1  0
M  END
>  <NAME>  (2701) 
ETHYL 4-METHOXYBENZOATE

>  <SYNONYMS>  (2701) 
ETHYL ANISATE

>  <SPECTRUM TYPE>  (2701) 
MS1

>  <INSTRUMENT TYPE>  (2701) 
EI-B

>  <INSTRUMENT>  (2701) 
HITACHI M-80B

>  <ION MODE>  (2701) 
P

>  <INCHIKEY>  (2701) 
FHUODBDRWMIBQP-UHFFFAOYSA-N

>  <FORMULA>  (2701) 
C10H12O3

>  <EXACT MASS>  (2701) 
180.07864424399997

>  <MW>  (2701) 
180

>  <ID>  (2701) 
JP008510

>  <CONTRIBUTOR>  (2701) 
University of Tokyo Team, {Faculty of Engineering, University of Tokyo

>  <COMMENT>  (2701) 
SMILES=CCOC(=O)c(c1)ccc(OC)c1
InChI=InChI=1S/C10H12O3/c1-3-13-10(11)8-4-6-9(12-2)7-5-8/h4-7H,3H2,1-2H3
computed SMILES=O=C(OCC)C1=CC=C(OC)C=C1
accession=JP008510
date=2016.01.19 (Created 2008.10.21, modified 2011.05.06)
author=SODA AROMATIC CO., LTD.
license=CC BY-NC-SA
exact mass=180.07864
ionization energy=70 eV
ion type=[M]+*
computed spectral entropy=2.209430793271668
computed normalized entropy=0.6781354596120627
SPLASH=splash10-000i-3900000000-83ce4033728cb10b804b
submitter=submitter = University of Tokyo Team (Faculty of Engineering, University of Tokyo)
MoNA Rating=3.75

>  <NUM PEAKS>  (2701) 
26

>  <MASS SPECTRAL PEAKS>  (2701) 
27 3.06
29 2.61
38 1.58
39 1.17
50 2.38
51 1.73
53 1.01
62 1.14
63 6.57
64 8.17
65 1.77
74 1.12
75 1.21
76 2
77 14.45
78 1.25
92 13.15
107 6.72
108 1.21
135 99.99
136 12.08
152 16.63
153 1.39
165 1.61
180 26.81
181 2.7

$$$$

     RDKit          2D

 12 12  0  0  0  0  0  0  0  0999 V2000
    5.1971   -0.7647    0.0000 C   0  0  0  0  0  0  0  0  0  0  0  0
   -3.9033    1.5020    0.0000 C   0  0  0  0  0  0  0  0  0  0  0  0
    1.2891    1.4828    0.0000 C   0  0  0  0  0  0  0  0  0  0  0  0
   -0.0244   -0.7420    0.0000 C   0  0  0  0  0  0  0  0  0  0  0  0
    2.5736    0.7580    0.0000 C   0  0  0  0  0  0  0  0  0  0  0  0
    1.3001   -1.5362    0.0000 C   0  0  0  0  0  0  0  0  0  0  0  0
   -0.0099    0.7328    0.0000 C   0  0  0  0  0  0  0  0  0  0  0  0
    2.5991   -0.7862    0.0000 C   0  0  0  0  0  0  0  0  0  0  0  0
   -1.3052    1.4892    0.0000 C   0  0  0  0  0  0  0  0  0  0  0  0
   -1.2979    2.9892    0.0000 O   0  0  0  0  0  0  0  0  0  0  0  0
    3.9043   -1.5254    0.0000 O   0  0  0  0  0  0  0  0  0  0  0  0
   -2.6080    0.7456    0.0000 O   0  0  0  0  0  0  0  0  0  0  0  0
  5  3  2  0
  6  4  1  0
  7  3  1  0
  7  4  2  0
  8  5  1  0
  8  6  2  0
  9  7  1  0
 10  9  2  0
 11  1  1  0
 11  8  1  0
 12  2  1  0
 12  9  1  0
M  END
>  <NAME>  (2702) 
METHYL 4-METHOXYBENZOATE

>  <SYNONYMS>  (2702) 
METHYL ANISATE

>  <SPECTRUM TYPE>  (2702) 
MS1

>  <INSTRUMENT TYPE>  (2702) 
EI-B

>  <INSTRUMENT>  (2702) 
HITACHI M-80B

>  <ION MODE>  (2702) 
P

>  <INCHIKEY>  (2702) 
DDIZAANNODHTRB-UHFFFAOYSA-N

>  <FORMULA>  (2702) 
C9H10O3

>  <EXACT MASS>  (2702) 
166.06299417999998

>  <MW>  (2702) 
166

>  <ID>  (2702) 
JP008509

>  <CONTRIBUTOR>  (2702) 
University of Tokyo Team, {Faculty of Engineering, University of Tokyo

>  <COMMENT>  (2702) 
SMILES=COc(c1)ccc(c1)C(=O)OC
InChI=InChI=1S/C9H10O3/c1-11-8-5-3-7(4-6-8)9(10)12-2/h3-6H,1-2H3
computed SMILES=O=C(OC)C1=CC=C(OC)C=C1
accession=JP008509
date=2016.01.19 (Created 2008.10.21, modified 2011.05.06)
author=SODA AROMATIC CO., LTD.
license=CC BY-NC-SA
exact mass=166.06299
ionization energy=70 eV
ion type=[M]+*
computed spectral entropy=2.1346398801009037
computed normalized entropy=0.6631631651054163
SPLASH=splash10-000i-4900000000-d64fd9a65666e73ced8a
submitter=submitter = University of Tokyo Team (Faculty of Engineering, University of Tokyo)
MoNA Rating=3.75

>  <NUM PEAKS>  (2702) 
25

>  <MASS SPECTRAL PEAKS>  (2702) 
15 2.2
29 2.16
38 2.31
39 1.3
50 2.92
51 2.04
53 1.06
62 1.64
63 8.21
64 8.45
65 1.12
74 1.64
75 1.53
76 2.37
77 16.62
78 1.28
79 1.11
92 14.88
107 8.04
123 1.23
135 99.99
136 10.31
165 1.27
166 39.28
167 3.56

$$$$

     RDKit          2D

 17 18  0  0  0  0  0  0  0  0999 V2000
    4.5466    2.1950    0.0000 C   0  0  0  0  0  0  0  0  0  0  0  0
   -7.1447    5.9450    0.0000 C   0  0  0  0  0  0  0  0  0  0  0  0
    4.5471    3.6958    0.0000 C   0  0  0  0  0  0  0  0  0  0  0  0
    3.2471    1.4442    0.0000 C   0  0  0  0  0  0  0  0  0  0  0  0
   -7.1452    4.4442    0.0000 C   0  0  0  0  0  0  0  0  0  0  0  0
   -5.8452    6.6958    0.0000 C   0  0  0  0  0  0  0  0  0  0  0  0
    3.2481    4.4458    0.0000 C   0  0  0  0  0  0  0  0  0  0  0  0
    1.9481    2.1942    0.0000 C   0  0  0  0  0  0  0  0  0  0  0  0
   -5.8462    3.6942    0.0000 C   0  0  0  0  0  0  0  0  0  0  0  0
   -4.5462    5.9458    0.0000 C   0  0  0  0  0  0  0  0  0  0  0  0
    0.6495    4.4450    0.0000 C   0  0  0  0  0  0  0  0  0  0  0  0
   -3.2476    3.6950    0.0000 C   0  0  0  0  0  0  0  0  0  0  0  0
    1.9486    3.6950    0.0000 C   0  0  0  0  0  0  0  0  0  0  0  0
   -4.5466    4.4450    0.0000 C   0  0  0  0  0  0  0  0  0  0  0  0
   -0.6495    3.6950    0.0000 C   0  0  0  0  0  0  0  0  0  0  0  0
   -0.6495    2.1950    0.0000 O   0  0  0  0  0  0  0  0  0  0  0  0
   -1.9486    4.4450    0.0000 O   0  0  0  0  0  0  0  0  0  0  0  0
  3  1  2  0
  4  1  1  0
  5  2  2  0
  6  2  1  0
  7  3  1  0
  8  4  2  0
  9  5  1  0
 10  6  2  0
 13  7  2  0
 13  8  1  0
 13 11  1  0
 14  9  2  0
 14 10  1  0
 14 12  1  0
 15 11  1  0
 16 15  2  0
 17 12  1  0
 17 15  1  0
M  END
>  <NAME>  (2703) 
BENZYL PHENYLACETATE

>  <SYNONYMS>  (2703) 


>  <SPECTRUM TYPE>  (2703) 
MS1

>  <INSTRUMENT TYPE>  (2703) 
EI-B

>  <INSTRUMENT>  (2703) 
HITACHI M-80B

>  <ION MODE>  (2703) 
P

>  <INCHIKEY>  (2703) 
MIYFJEKZLFWKLZ-UHFFFAOYSA-N

>  <FORMULA>  (2703) 
C15H14O2

>  <EXACT MASS>  (2703) 
226.099379688

>  <MW>  (2703) 
226

>  <ID>  (2703) 
JP008508

>  <CONTRIBUTOR>  (2703) 
University of Tokyo Team, {Faculty of Engineering, University of Tokyo

>  <COMMENT>  (2703) 
SMILES=O=C(OCc(c2)cccc2)Cc(c1)cccc1
InChI=InChI=1S/C15H14O2/c16-15(11-13-7-3-1-4-8-13)17-12-14-9-5-2-6-10-14/h1-10H,11-12H2
computed SMILES=O=C(OCC=1C=CC=CC1)CC=2C=CC=CC2
accession=JP008508
date=2016.01.19 (Created 2008.10.21, modified 2011.05.06)
author=SODA AROMATIC CO., LTD.
license=CC BY-NC-SA
exact mass=226.09938
ionization energy=70 eV
ion type=[M]+*
computed spectral entropy=1.2960670839167598
computed normalized entropy=0.5215757638329527
SPLASH=splash10-0006-9000000000-43beb664c9482065b76e
submitter=submitter = University of Tokyo Team (Faculty of Engineering, University of Tokyo)
MoNA Rating=3.75

>  <NUM PEAKS>  (2703) 
12

>  <MASS SPECTRAL PEAKS>  (2703) 
39 4.86
41 1.14
51 3.5
63 2.12
65 11.75
77 2.41
89 2.18
90 1.76
91 99.99
92 9.23
108 1.92
226 5.06

$$$$

     RDKit          2D

 18 18  0  0  0  0  0  0  0  0999 V2000
  -11.3663    6.5071    0.0000 C   0  0  0  0  0  0  0  0  0  0  0  0
  -10.0673    5.7571    0.0000 C   0  0  0  0  0  0  0  0  0  0  0  0
   -8.7683    6.5071    0.0000 C   0  0  0  0  0  0  0  0  0  0  0  0
   -7.4692    5.7571    0.0000 C   0  0  0  0  0  0  0  0  0  0  0  0
   -6.1702    6.5071    0.0000 C   0  0  0  0  0  0  0  0  0  0  0  0
   -4.8712    5.7571    0.0000 C   0  0  0  0  0  0  0  0  0  0  0  0
    5.5212    4.2571    0.0000 C   0  0  0  0  0  0  0  0  0  0  0  0
    5.5216    5.7579    0.0000 C   0  0  0  0  0  0  0  0  0  0  0  0
    4.2216    3.5063    0.0000 C   0  0  0  0  0  0  0  0  0  0  0  0
   -3.5721    6.5071    0.0000 C   0  0  0  0  0  0  0  0  0  0  0  0
    4.2226    6.5079    0.0000 C   0  0  0  0  0  0  0  0  0  0  0  0
    2.9226    4.2563    0.0000 C   0  0  0  0  0  0  0  0  0  0  0  0
   -2.2731    5.7571    0.0000 C   0  0  0  0  0  0  0  0  0  0  0  0
    1.6240    6.5071    0.0000 C   0  0  0  0  0  0  0  0  0  0  0  0
    2.9231    5.7571    0.0000 C   0  0  0  0  0  0  0  0  0  0  0  0
    0.3250    5.7571    0.0000 C   0  0  0  0  0  0  0  0  0  0  0  0
    0.3250    4.2571    0.0000 O   0  0  0  0  0  0  0  0  0  0  0  0
   -0.9740    6.5071    0.0000 O   0  0  0  0  0  0  0  0  0  0  0  0
  2  1  1  0
  3  2  1  0
  4  3  1  0
  5  4  1  0
  6  5  1  0
  8  7  2  0
  9  7  1  0
 10  6  1  0
 11  8  1  0
 12  9  2  0
 13 10  1  0
 15 11  2  0
 15 12  1  0
 15 14  1  0
 16 14  1  0
 17 16  2  0
 18 13  1  0
 18 16  1  0
M  END
>  <NAME>  (2704) 
OCTYL PHENYLACETATE

>  <SYNONYMS>  (2704) 


>  <SPECTRUM TYPE>  (2704) 
MS1

>  <INSTRUMENT TYPE>  (2704) 
EI-B

>  <INSTRUMENT>  (2704) 
HITACHI M-80B

>  <ION MODE>  (2704) 
P

>  <INCHIKEY>  (2704) 
VGYPAVUJUMQTGE-UHFFFAOYSA-N

>  <FORMULA>  (2704) 
C16H24O2

>  <EXACT MASS>  (2704) 
248.177630008

>  <MW>  (2704) 
248

>  <ID>  (2704) 
JP008507

>  <CONTRIBUTOR>  (2704) 
University of Tokyo Team, {Faculty of Engineering, University of Tokyo

>  <COMMENT>  (2704) 
SMILES=CCCCCCCCOC(=O)Cc(c1)cccc1
InChI=InChI=1S/C16H24O2/c1-2-3-4-5-6-10-13-18-16(17)14-15-11-8-7-9-12-15/h7-9,11-12H,2-6,10,13-14H2,1H3
computed SMILES=O=C(OCCCCCCCC)CC=1C=CC=CC1
accession=JP008507
date=2016.01.19 (Created 2008.10.21, modified 2011.05.06)
author=SODA AROMATIC CO., LTD.
license=CC BY-NC-SA
exact mass=248.17763
ionization energy=70 eV
ion type=[M]+*
computed spectral entropy=2.8404941775772863
computed normalized entropy=0.7808733739494281
SPLASH=splash10-0006-9100000000-c9aa0ac707d694f5661f
submitter=submitter = University of Tokyo Team (Faculty of Engineering, University of Tokyo)
MoNA Rating=3.75

>  <NUM PEAKS>  (2704) 
38

>  <MASS SPECTRAL PEAKS>  (2704) 
27 9.74
29 17.22
39 9.62
41 37.35
42 9.86
43 60.05
51 2.15
53 1.56
54 1.04
55 16.23
56 7.2
57 62.68
58 2.23
63 2.55
64 1.05
65 15.54
67 1.03
68 1.26
69 7.88
70 4.78
71 40.9
72 1.74
77 1
83 3.27
84 2.9
89 3.3
90 3.29
91 99.99
92 22.8
93 1.31
112 3.88
118 1
119 2.26
136 35.38
137 16.82
138 1.15
157 13.86
158 1.15

$$$$

     RDKit          2D

 17 17  0  0  0  0  0  0  0  0999 V2000
    5.5216    5.0079    0.0000 C   0  0  0  0  0  0  0  0  0  0  0  0
    4.2226    4.2579    0.0000 C   0  0  0  0  0  0  0  0  0  0  0  0
    2.9236    5.0079    0.0000 C   0  0  0  0  0  0  0  0  0  0  0  0
    1.6245    4.2579    0.0000 C   0  0  0  0  0  0  0  0  0  0  0  0
    0.3255    5.0079    0.0000 C   0  0  0  0  0  0  0  0  0  0  0  0
  -10.0668    6.5079    0.0000 C   0  0  0  0  0  0  0  0  0  0  0  0
  -10.0673    5.0071    0.0000 C   0  0  0  0  0  0  0  0  0  0  0  0
   -8.7673    7.2587    0.0000 C   0  0  0  0  0  0  0  0  0  0  0  0
   -0.9736    4.2579    0.0000 C   0  0  0  0  0  0  0  0  0  0  0  0
   -8.7683    4.2571    0.0000 C   0  0  0  0  0  0  0  0  0  0  0  0
   -7.4683    6.5087    0.0000 C   0  0  0  0  0  0  0  0  0  0  0  0
   -2.2726    5.0079    0.0000 C   0  0  0  0  0  0  0  0  0  0  0  0
   -6.1697    4.2579    0.0000 C   0  0  0  0  0  0  0  0  0  0  0  0
   -7.4687    5.0079    0.0000 C   0  0  0  0  0  0  0  0  0  0  0  0
   -4.8707    5.0079    0.0000 C   0  0  0  0  0  0  0  0  0  0  0  0
   -4.8707    6.5079    0.0000 O   0  0  0  0  0  0  0  0  0  0  0  0
   -3.5716    4.2579    0.0000 O   0  0  0  0  0  0  0  0  0  0  0  0
  2  1  1  0
  3  2  1  0
  4  3  1  0
  5  4  1  0
  7  6  2  0
  8  6  1  0
  9  5  1  0
 10  7  1  0
 11  8  2  0
 12  9  1  0
 14 10  2  0
 14 11  1  0
 14 13  1  0
 15 13  1  0
 16 15  2  0
 17 12  1  0
 17 15  1  0
M  END
>  <NAME>  (2705) 
HEPTYL PHENYLACETATE

>  <SYNONYMS>  (2705) 


>  <SPECTRUM TYPE>  (2705) 
MS1

>  <INSTRUMENT TYPE>  (2705) 
EI-B

>  <INSTRUMENT>  (2705) 
HITACHI M-80B

>  <ION MODE>  (2705) 
P

>  <INCHIKEY>  (2705) 
MFCMCQJYPOAXCB-UHFFFAOYSA-N

>  <FORMULA>  (2705) 
C15H22O2

>  <EXACT MASS>  (2705) 
234.161979944

>  <MW>  (2705) 
234

>  <ID>  (2705) 
JP008506

>  <CONTRIBUTOR>  (2705) 
University of Tokyo Team, {Faculty of Engineering, University of Tokyo

>  <COMMENT>  (2705) 
SMILES=CCCCCCCOC(=O)Cc(c1)cccc1
InChI=InChI=1S/C15H22O2/c1-2-3-4-5-9-12-17-15(16)13-14-10-7-6-8-11-14/h6-8,10-11H,2-5,9,12-13H2,1H3
computed SMILES=O=C(OCCCCCCC)CC=1C=CC=CC1
accession=JP008506
date=2016.01.19 (Created 2008.10.21, modified 2011.05.06)
author=SODA AROMATIC CO., LTD.
license=CC BY-NC-SA
exact mass=234.16198
ionization energy=70 eV
ion type=[M]+*
computed spectral entropy=2.608750035585613
computed normalized entropy=0.7670093037384158
SPLASH=splash10-052f-9100000000-bdbd08069a7de34cff94
submitter=submitter = University of Tokyo Team (Faculty of Engineering, University of Tokyo)
MoNA Rating=3.75

>  <NUM PEAKS>  (2705) 
30

>  <MASS SPECTRAL PEAKS>  (2705) 
27 9.49
29 17.37
39 10.11
41 33.93
42 6.94
43 45.29
51 2.3
53 1.45
55 13.55
56 7.57
57 99.99
58 3.16
63 2.7
64 1.04
65 15.11
68 1.04
69 3.71
70 4.24
71 1.26
89 3.27
90 3.01
91 97.39
92 25.37
93 1.39
98 4.71
119 2.06
136 30.67
137 13.71
143 11.53
234 1.08

$$$$

     RDKit          2D

 16 16  0  0  0  0  0  0  0  0999 V2000
    5.5216    4.2579    0.0000 C   0  0  0  0  0  0  0  0  0  0  0  0
    4.2226    5.0079    0.0000 C   0  0  0  0  0  0  0  0  0  0  0  0
    2.9236    4.2579    0.0000 C   0  0  0  0  0  0  0  0  0  0  0  0
    1.6245    5.0079    0.0000 C   0  0  0  0  0  0  0  0  0  0  0  0
   -8.7678    6.5079    0.0000 C   0  0  0  0  0  0  0  0  0  0  0  0
   -8.7683    5.0071    0.0000 C   0  0  0  0  0  0  0  0  0  0  0  0
   -7.4683    7.2587    0.0000 C   0  0  0  0  0  0  0  0  0  0  0  0
    0.3255    4.2579    0.0000 C   0  0  0  0  0  0  0  0  0  0  0  0
   -7.4692    4.2571    0.0000 C   0  0  0  0  0  0  0  0  0  0  0  0
   -6.1692    6.5087    0.0000 C   0  0  0  0  0  0  0  0  0  0  0  0
   -0.9736    5.0079    0.0000 C   0  0  0  0  0  0  0  0  0  0  0  0
   -4.8707    4.2579    0.0000 C   0  0  0  0  0  0  0  0  0  0  0  0
   -6.1697    5.0079    0.0000 C   0  0  0  0  0  0  0  0  0  0  0  0
   -3.5716    5.0079    0.0000 C   0  0  0  0  0  0  0  0  0  0  0  0
   -3.5716    6.5079    0.0000 O   0  0  0  0  0  0  0  0  0  0  0  0
   -2.2726    4.2579    0.0000 O   0  0  0  0  0  0  0  0  0  0  0  0
  2  1  1  0
  3  2  1  0
  4  3  1  0
  6  5  2  0
  7  5  1  0
  8  4  1  0
  9  6  1  0
 10  7  2  0
 11  8  1  0
 13  9  2  0
 13 10  1  0
 13 12  1  0
 14 12  1  0
 15 14  2  0
 16 11  1  0
 16 14  1  0
M  END
>  <NAME>  (2706) 
HEXYL PHENYLACETATE

>  <SYNONYMS>  (2706) 


>  <SPECTRUM TYPE>  (2706) 
MS1

>  <INSTRUMENT TYPE>  (2706) 
EI-B

>  <INSTRUMENT>  (2706) 
HITACHI M-80B

>  <ION MODE>  (2706) 
P

>  <INCHIKEY>  (2706) 
MTAHGWGAEGVCLS-UHFFFAOYSA-N

>  <FORMULA>  (2706) 
C14H20O2

>  <EXACT MASS>  (2706) 
220.14632988

>  <MW>  (2706) 
220

>  <ID>  (2706) 
JP008505

>  <CONTRIBUTOR>  (2706) 
University of Tokyo Team, {Faculty of Engineering, University of Tokyo

>  <COMMENT>  (2706) 
SMILES=CCCCCCOC(=O)Cc(c1)cccc1
InChI=InChI=1S/C14H20O2/c1-2-3-4-8-11-16-14(15)12-13-9-6-5-7-10-13/h5-7,9-10H,2-4,8,11-12H2,1H3
computed SMILES=O=C(OCCCCCC)CC=1C=CC=CC1
accession=JP008505
date=2016.01.19 (Created 2008.10.21, modified 2011.05.06)
author=SODA AROMATIC CO., LTD.
license=CC BY-NC-SA
exact mass=220.14633
ionization energy=70 eV
ion type=[M]+*
computed spectral entropy=2.4798803039800936
computed normalized entropy=0.7524281100073222
SPLASH=splash10-0006-9100000000-3b78f236a955e5f6d3db
submitter=submitter = University of Tokyo Team (Faculty of Engineering, University of Tokyo)
MoNA Rating=3.75

>  <NUM PEAKS>  (2706) 
27

>  <MASS SPECTRAL PEAKS>  (2706) 
27 9.01
29 10.61
39 9.03
41 21.56
42 5.42
43 99.99
44 2.8
51 2.25
53 1.01
55 7.89
56 5.03
57 11.1
63 2.63
65 13.94
69 1.76
84 2.67
85 5.93
89 2.97
90 2.58
91 84.95
92 24.28
93 1.48
119 1.81
129 7.96
136 23.33
137 9.95
220 1.42

$$$$

     RDKit          2D

 16 16  0  0  0  0  0  0  0  0999 V2000
   -0.0002    7.0696    0.0000 C   0  0  0  0  0  0  0  0  0  0  0  0
   -1.2993    6.3196    0.0000 C   0  0  0  0  0  0  0  0  0  0  0  0
   -1.2993    4.8196    0.0000 C   0  0  0  0  0  0  0  0  0  0  0  0
   -2.5983    4.0696    0.0000 C   0  0  0  0  0  0  0  0  0  0  0  0
  -12.9906    2.5696    0.0000 C   0  0  0  0  0  0  0  0  0  0  0  0
  -12.9911    4.0704    0.0000 C   0  0  0  0  0  0  0  0  0  0  0  0
  -11.6911    1.8188    0.0000 C   0  0  0  0  0  0  0  0  0  0  0  0
   -3.8974    4.8196    0.0000 C   0  0  0  0  0  0  0  0  0  0  0  0
  -11.6921    4.8204    0.0000 C   0  0  0  0  0  0  0  0  0  0  0  0
  -10.3921    2.5688    0.0000 C   0  0  0  0  0  0  0  0  0  0  0  0
   -5.1964    4.0696    0.0000 C   0  0  0  0  0  0  0  0  0  0  0  0
   -9.0935    4.8196    0.0000 C   0  0  0  0  0  0  0  0  0  0  0  0
  -10.3925    4.0696    0.0000 C   0  0  0  0  0  0  0  0  0  0  0  0
   -7.7945    4.0696    0.0000 C   0  0  0  0  0  0  0  0  0  0  0  0
   -7.7945    2.5696    0.0000 O   0  0  0  0  0  0  0  0  0  0  0  0
   -6.4954    4.8196    0.0000 O   0  0  0  0  0  0  0  0  0  0  0  0
  2  1  1  0
  3  2  1  0
  3  4  2  0
  6  5  2  0
  7  5  1  0
  8  4  1  0
  9  6  1  0
 10  7  2  0
 11  8  1  0
 13  9  2  0
 13 10  1  0
 13 12  1  0
 14 12  1  0
 15 14  2  0
 16 11  1  0
 16 14  1  0
M  END
>  <NAME>  (2707) 
CIS-3-HEXENYL PHENYLACETATE

>  <SYNONYMS>  (2707) 


>  <SPECTRUM TYPE>  (2707) 
MS1

>  <INSTRUMENT TYPE>  (2707) 
EI-B

>  <INSTRUMENT>  (2707) 
HITACHI M-80B

>  <ION MODE>  (2707) 
P

>  <INCHIKEY>  (2707) 
FJKFIIYSBXHBCT-ARJAWSKDSA-N

>  <FORMULA>  (2707) 
C14H18O2

>  <EXACT MASS>  (2707) 
218.130679816

>  <MW>  (2707) 
218

>  <ID>  (2707) 
JP008504

>  <CONTRIBUTOR>  (2707) 
University of Tokyo Team, {Faculty of Engineering, University of Tokyo

>  <COMMENT>  (2707) 
SMILES=CCC=CCCOC(=O)Cc(c1)cccc1
InChI=InChI=1S/C14H18O2/c1-2-3-4-8-11-16-14(15)12-13-9-6-5-7-10-13/h3-7,9-10H,2,8,11-12H2,1H3/b4-3-
computed SMILES=O=C(OCCC=CCC)CC=1C=CC=CC1
accession=JP008504
date=2016.01.19 (Created 2008.10.21, modified 2011.05.06)
author=SODA AROMATIC CO., LTD.
license=CC BY-NC-SA
exact mass=218.13068
ionization energy=70 eV
ion type=[M]+*
computed spectral entropy=2.4404319054392047
computed normalized entropy=0.6864115308071566
SPLASH=splash10-000x-9000000000-6d03e0fb21e55893cf72
submitter=submitter = University of Tokyo Team (Faculty of Engineering, University of Tokyo)
MoNA Rating=3.75

>  <NUM PEAKS>  (2707) 
35

>  <MASS SPECTRAL PEAKS>  (2707) 
16 1.51
26 1.16
27 5.57
29 2.26
38 1.04
39 11.96
41 26.14
42 2.34
43 1.67
50 1.49
51 3.32
52 1.55
53 4.01
54 4.16
55 21.07
56 1.2
63 3.25
64 1.53
65 12.03
66 1.79
67 47.29
68 2.78
69 1.67
77 2.13
79 1.19
81 3.81
82 92.12
83 5.33
89 3.21
90 3.3
91 99.99
92 8.1
105 1.01
118 1.08
119 3.45

$$$$

     RDKit          2D

 15 15  0  0  0  0  0  0  0  0999 V2000
    4.8721    3.8829    0.0000 C   0  0  0  0  0  0  0  0  0  0  0  0
    3.5731    3.1329    0.0000 C   0  0  0  0  0  0  0  0  0  0  0  0
    2.2740    3.8829    0.0000 C   0  0  0  0  0  0  0  0  0  0  0  0
   -8.1183    5.3829    0.0000 C   0  0  0  0  0  0  0  0  0  0  0  0
   -8.1187    3.8821    0.0000 C   0  0  0  0  0  0  0  0  0  0  0  0
   -6.8187    6.1337    0.0000 C   0  0  0  0  0  0  0  0  0  0  0  0
    0.9750    3.1329    0.0000 C   0  0  0  0  0  0  0  0  0  0  0  0
   -6.8197    3.1321    0.0000 C   0  0  0  0  0  0  0  0  0  0  0  0
   -5.5197    5.3837    0.0000 C   0  0  0  0  0  0  0  0  0  0  0  0
   -0.3240    3.8829    0.0000 C   0  0  0  0  0  0  0  0  0  0  0  0
   -4.2212    3.1329    0.0000 C   0  0  0  0  0  0  0  0  0  0  0  0
   -5.5202    3.8829    0.0000 C   0  0  0  0  0  0  0  0  0  0  0  0
   -2.9221    3.8829    0.0000 C   0  0  0  0  0  0  0  0  0  0  0  0
   -2.9221    5.3829    0.0000 O   0  0  0  0  0  0  0  0  0  0  0  0
   -1.6231    3.1329    0.0000 O   0  0  0  0  0  0  0  0  0  0  0  0
  2  1  1  0
  3  2  1  0
  5  4  2  0
  6  4  1  0
  7  3  1  0
  8  5  1  0
  9  6  2  0
 10  7  1  0
 12  8  2  0
 12  9  1  0
 12 11  1  0
 13 11  1  0
 14 13  2  0
 15 10  1  0
 15 13  1  0
M  END
>  <NAME>  (2708) 
PENTYL PHENYLACETATE

>  <SYNONYMS>  (2708) 
AMYL PHENYLACETATE

>  <SPECTRUM TYPE>  (2708) 
MS1

>  <INSTRUMENT TYPE>  (2708) 
EI-B

>  <INSTRUMENT>  (2708) 
HITACHI M-80B

>  <ION MODE>  (2708) 
P

>  <INCHIKEY>  (2708) 
LRVLBFSVAFUOGO-UHFFFAOYSA-N

>  <FORMULA>  (2708) 
C13H18O2

>  <EXACT MASS>  (2708) 
206.130679816

>  <MW>  (2708) 
206

>  <ID>  (2708) 
JP008503

>  <CONTRIBUTOR>  (2708) 
University of Tokyo Team, {Faculty of Engineering, University of Tokyo

>  <COMMENT>  (2708) 
SMILES=CCCCCOC(=O)Cc(c1)cccc1
InChI=InChI=1S/C13H18O2/c1-2-3-7-10-15-13(14)11-12-8-5-4-6-9-12/h4-6,8-9H,2-3,7,10-11H2,1H3
computed SMILES=O=C(OCCCCC)CC=1C=CC=CC1
accession=JP008503
date=2016.01.19 (Created 2008.10.21, modified 2011.05.06)
author=SODA AROMATIC CO., LTD.
license=CC BY-NC-SA
exact mass=206.13068
ionization energy=70 eV
ion type=[M]+*
computed spectral entropy=2.459094475588838
computed normalized entropy=0.7639606525329469
SPLASH=splash10-0006-9100000000-a38f711b018fb6ed01fc
submitter=submitter = University of Tokyo Team (Faculty of Engineering, University of Tokyo)
MoNA Rating=3.75

>  <NUM PEAKS>  (2708) 
25

>  <MASS SPECTRAL PEAKS>  (2708) 
27 8.85
29 15.66
39 11.06
41 18.59
42 5.81
43 92.35
44 2.31
51 2.51
55 8.55
63 4.29
64 1.34
65 17.38
69 1.35
70 4.21
71 13.75
89 4.91
90 3.87
91 99.99
92 31.07
93 1.79
115 6.85
119 2.41
136 23.22
137 8.04
206 3.21

$$$$

     RDKit          2D

 14 14  0  0  0  0  0  0  0  0999 V2000
   -6.8197    3.1321    0.0000 C   0  0  0  0  0  0  0  0  0  0  0  0
   -5.5207    5.3821    0.0000 C   0  0  0  0  0  0  0  0  0  0  0  0
    3.5726    1.6321    0.0000 C   0  0  0  0  0  0  0  0  0  0  0  0
    3.5731    3.1329    0.0000 C   0  0  0  0  0  0  0  0  0  0  0  0
    2.2731    0.8813    0.0000 C   0  0  0  0  0  0  0  0  0  0  0  0
    2.2740    3.8829    0.0000 C   0  0  0  0  0  0  0  0  0  0  0  0
    0.9740    1.6313    0.0000 C   0  0  0  0  0  0  0  0  0  0  0  0
   -0.3245    3.8821    0.0000 C   0  0  0  0  0  0  0  0  0  0  0  0
   -4.2216    3.1321    0.0000 C   0  0  0  0  0  0  0  0  0  0  0  0
   -5.5207    3.8821    0.0000 C   0  0  0  0  0  0  0  0  0  0  0  0
    0.9745    3.1321    0.0000 C   0  0  0  0  0  0  0  0  0  0  0  0
   -1.6236    3.1321    0.0000 C   0  0  0  0  0  0  0  0  0  0  0  0
   -1.6236    1.6321    0.0000 O   0  0  0  0  0  0  0  0  0  0  0  0
   -2.9226    3.8821    0.0000 O   0  0  0  0  0  0  0  0  0  0  0  0
  4  3  2  0
  5  3  1  0
  6  4  1  0
  7  5  2  0
 10  1  1  0
 10  2  1  0
 10  9  1  0
 11  6  2  0
 11  7  1  0
 11  8  1  0
 12  8  1  0
 13 12  2  0
 14  9  1  0
 14 12  1  0
M  END
>  <NAME>  (2709) 
2-METHYLPROPYL PHENYLACETATE

>  <SYNONYMS>  (2709) 
ISOBUTYL PHENYLACETATE

>  <SPECTRUM TYPE>  (2709) 
MS1

>  <INSTRUMENT TYPE>  (2709) 
EI-B

>  <INSTRUMENT>  (2709) 
HITACHI M-80B

>  <ION MODE>  (2709) 
P

>  <INCHIKEY>  (2709) 
RJASFPFZACBKBE-UHFFFAOYSA-N

>  <FORMULA>  (2709) 
C12H16O2

>  <EXACT MASS>  (2709) 
192.115029752

>  <MW>  (2709) 
192

>  <ID>  (2709) 
JP008502

>  <CONTRIBUTOR>  (2709) 
University of Tokyo Team, {Faculty of Engineering, University of Tokyo

>  <COMMENT>  (2709) 
SMILES=CC(C)COC(=O)Cc(c1)cccc1
InChI=InChI=1S/C12H16O2/c1-10(2)9-14-12(13)8-11-6-4-3-5-7-11/h3-7,10H,8-9H2,1-2H3
computed SMILES=O=C(OCC(C)C)CC=1C=CC=CC1
accession=JP008502
date=2016.01.19 (Created 2008.10.21, modified 2011.05.06)
author=SODA AROMATIC CO., LTD.
license=CC BY-NC-SA
exact mass=192.11503
ionization energy=70 eV
ion type=[M]+*
computed spectral entropy=2.504941577487652
computed normalized entropy=0.7517370467024381
SPLASH=splash10-0006-9100000000-2ed3a29b195420794f5d
submitter=submitter = University of Tokyo Team (Faculty of Engineering, University of Tokyo)
MoNA Rating=3.75

>  <NUM PEAKS>  (2709) 
28

>  <MASS SPECTRAL PEAKS>  (2709) 
27 7.56
29 23.29
38 1.17
39 14.11
41 37.67
42 1.73
43 6.24
50 1.3
51 3.34
52 1.14
55 1.72
56 4.85
57 58.55
58 2.09
62 1.05
63 4.89
64 1.53
65 17.99
71 1.08
89 5.32
90 3.97
91 99.99
92 25.08
93 1.53
119 6.68
136 25.89
137 8.93
192 1.52

$$$$

     RDKit          2D

 14 14  0  0  0  0  0  0  0  0999 V2000
   -7.4692    4.2571    0.0000 C   0  0  0  0  0  0  0  0  0  0  0  0
   -6.1702    3.5071    0.0000 C   0  0  0  0  0  0  0  0  0  0  0  0
   -4.8712    4.2571    0.0000 C   0  0  0  0  0  0  0  0  0  0  0  0
    4.2221    2.0071    0.0000 C   0  0  0  0  0  0  0  0  0  0  0  0
    4.2226    3.5079    0.0000 C   0  0  0  0  0  0  0  0  0  0  0  0
    2.9226    1.2563    0.0000 C   0  0  0  0  0  0  0  0  0  0  0  0
    2.9236    4.2579    0.0000 C   0  0  0  0  0  0  0  0  0  0  0  0
    1.6236    2.0063    0.0000 C   0  0  0  0  0  0  0  0  0  0  0  0
   -3.5721    3.5071    0.0000 C   0  0  0  0  0  0  0  0  0  0  0  0
    0.3250    4.2571    0.0000 C   0  0  0  0  0  0  0  0  0  0  0  0
    1.6240    3.5071    0.0000 C   0  0  0  0  0  0  0  0  0  0  0  0
   -0.9740    3.5071    0.0000 C   0  0  0  0  0  0  0  0  0  0  0  0
   -0.9740    2.0071    0.0000 O   0  0  0  0  0  0  0  0  0  0  0  0
   -2.2731    4.2571    0.0000 O   0  0  0  0  0  0  0  0  0  0  0  0
  2  1  1  0
  3  2  1  0
  5  4  2  0
  6  4  1  0
  7  5  1  0
  8  6  2  0
  9  3  1  0
 11  7  2  0
 11  8  1  0
 11 10  1  0
 12 10  1  0
 13 12  2  0
 14  9  1  0
 14 12  1  0
M  END
>  <NAME>  (2710) 
BUTYL PHENYLACETATE

>  <SYNONYMS>  (2710) 


>  <SPECTRUM TYPE>  (2710) 
MS1

>  <INSTRUMENT TYPE>  (2710) 
EI-B

>  <INSTRUMENT>  (2710) 
HITACHI M-80B

>  <ION MODE>  (2710) 
P

>  <INCHIKEY>  (2710) 
LDOXTQYWWYXYSQ-UHFFFAOYSA-N

>  <FORMULA>  (2710) 
C12H16O2

>  <EXACT MASS>  (2710) 
192.115029752

>  <MW>  (2710) 
192

>  <ID>  (2710) 
JP008501

>  <CONTRIBUTOR>  (2710) 
University of Tokyo Team, {Faculty of Engineering, University of Tokyo

>  <COMMENT>  (2710) 
SMILES=CCCCOC(=O)Cc(c1)cccc1
InChI=InChI=1S/C12H16O2/c1-2-3-9-14-12(13)10-11-7-5-4-6-8-11/h4-8H,2-3,9-10H2,1H3
computed SMILES=O=C(OCCCC)CC=1C=CC=CC1
accession=JP008501
date=2016.01.19 (Created 2008.10.21, modified 2011.05.06)
author=SODA AROMATIC CO., LTD.
license=CC BY-NC-SA
exact mass=192.11503
ionization energy=70 eV
ion type=[M]+*
computed spectral entropy=2.3899870034836286
computed normalized entropy=0.7424912092039115
SPLASH=splash10-0006-9000000000-b71f6b7831b5a6500359
submitter=submitter = University of Tokyo Team (Faculty of Engineering, University of Tokyo)
MoNA Rating=3.75

>  <NUM PEAKS>  (2710) 
25

>  <MASS SPECTRAL PEAKS>  (2710) 
27 8.12
29 25.14
39 9.91
41 29.14
42 1.4
43 1.43
50 1.07
51 2.86
52 1.05
55 2.11
56 2.09
57 42.83
58 1.61
63 4.29
64 1.39
65 16.66
89 4.73
90 2.92
91 99.99
92 32.28
93 1.67
119 3.22
136 18.37
137 3.12
192 6.69

$$$$

     RDKit          2D

 13 13  0  0  0  0  0  0  0  0999 V2000
   -5.8454    3.6946    0.0000 C   0  0  0  0  0  0  0  0  0  0  0  0
   -4.5464    1.4446    0.0000 C   0  0  0  0  0  0  0  0  0  0  0  0
    3.2478    1.4446    0.0000 C   0  0  0  0  0  0  0  0  0  0  0  0
    3.2483    2.9454    0.0000 C   0  0  0  0  0  0  0  0  0  0  0  0
    1.9483    0.6938    0.0000 C   0  0  0  0  0  0  0  0  0  0  0  0
    1.9493    3.6954    0.0000 C   0  0  0  0  0  0  0  0  0  0  0  0
    0.6493    1.4438    0.0000 C   0  0  0  0  0  0  0  0  0  0  0  0
   -0.6493    3.6946    0.0000 C   0  0  0  0  0  0  0  0  0  0  0  0
   -4.5464    2.9446    0.0000 C   0  0  0  0  0  0  0  0  0  0  0  0
    0.6498    2.9446    0.0000 C   0  0  0  0  0  0  0  0  0  0  0  0
   -1.9483    2.9446    0.0000 C   0  0  0  0  0  0  0  0  0  0  0  0
   -1.9483    1.4446    0.0000 O   0  0  0  0  0  0  0  0  0  0  0  0
   -3.2474    3.6946    0.0000 O   0  0  0  0  0  0  0  0  0  0  0  0
  4  3  2  0
  5  3  1  0
  6  4  1  0
  7  5  2  0
  9  1  1  0
  9  2  1  0
 10  6  2  0
 10  7  1  0
 10  8  1  0
 11  8  1  0
 12 11  2  0
 13  9  1  0
 13 11  1  0
M  END
>  <NAME>  (2711) 
1-METHYLETHYL PHENYLACETATE

>  <SYNONYMS>  (2711) 
ISOPROPYL PHENYLACETATE

>  <SPECTRUM TYPE>  (2711) 
MS1

>  <INSTRUMENT TYPE>  (2711) 
EI-B

>  <INSTRUMENT>  (2711) 
HITACHI M-80B

>  <ION MODE>  (2711) 
P

>  <INCHIKEY>  (2711) 
SSMBXPJYHMZLOJ-UHFFFAOYSA-N

>  <FORMULA>  (2711) 
C11H14O2

>  <EXACT MASS>  (2711) 
178.099379688

>  <MW>  (2711) 
178

>  <ID>  (2711) 
JP008500

>  <CONTRIBUTOR>  (2711) 
University of Tokyo Team, {Faculty of Engineering, University of Tokyo

>  <COMMENT>  (2711) 
SMILES=CC(C)OC(=O)Cc(c1)cccc1
InChI=InChI=1S/C11H14O2/c1-9(2)13-11(12)8-10-6-4-3-5-7-10/h3-7,9H,8H2,1-2H3
computed SMILES=O=C(OC(C)C)CC=1C=CC=CC1
accession=JP008500
author=SODA AROMATIC CO., LTD.
date=2016.01.19 (Created 2008.10.21, modified 2011.05.06)
license=CC BY-NC-SA
exact mass=178.09938
ionization energy=70 eV
ion type=[M]+*
computed spectral entropy=2.1584754120180714
computed normalized entropy=0.6705680894373898
SPLASH=splash10-0006-9000000000-1f974656022600dc0f4a
submitter=submitter = University of Tokyo Team (Faculty of Engineering, University of Tokyo)
MoNA Rating=3.75

>  <NUM PEAKS>  (2711) 
25

>  <MASS SPECTRAL PEAKS>  (2711) 
15 1.07
27 7.54
38 1.15
39 11.41
41 15.18
42 1.56
43 78.6
44 2.22
45 1.12
50 1.23
51 3.57
52 1.03
62 1.07
63 4.62
64 1.49
65 15.42
77 1.03
89 4.75
90 4.08
91 99.99
92 27.52
93 1.52
119 5.06
178 11.81
179 1.36

$$$$

     RDKit          2D

 13 13  0  0  0  0  0  0  0  0999 V2000
   -6.8197    3.1321    0.0000 C   0  0  0  0  0  0  0  0  0  0  0  0
   -5.5207    3.8821    0.0000 C   0  0  0  0  0  0  0  0  0  0  0  0
    3.5726    1.6321    0.0000 C   0  0  0  0  0  0  0  0  0  0  0  0
    3.5731    3.1329    0.0000 C   0  0  0  0  0  0  0  0  0  0  0  0
    2.2731    0.8813    0.0000 C   0  0  0  0  0  0  0  0  0  0  0  0
    2.2740    3.8829    0.0000 C   0  0  0  0  0  0  0  0  0  0  0  0
    0.9740    1.6313    0.0000 C   0  0  0  0  0  0  0  0  0  0  0  0
   -4.2216    3.1321    0.0000 C   0  0  0  0  0  0  0  0  0  0  0  0
   -0.3245    3.8821    0.0000 C   0  0  0  0  0  0  0  0  0  0  0  0
    0.9745    3.1321    0.0000 C   0  0  0  0  0  0  0  0  0  0  0  0
   -1.6236    3.1321    0.0000 C   0  0  0  0  0  0  0  0  0  0  0  0
   -1.6236    1.6321    0.0000 O   0  0  0  0  0  0  0  0  0  0  0  0
   -2.9226    3.8821    0.0000 O   0  0  0  0  0  0  0  0  0  0  0  0
  2  1  1  0
  4  3  2  0
  5  3  1  0
  6  4  1  0
  7  5  2  0
  8  2  1  0
 10  6  2  0
 10  7  1  0
 10  9  1  0
 11  9  1  0
 12 11  2  0
 13  8  1  0
 13 11  1  0
M  END
>  <NAME>  (2712) 
PROPYL PHENYLACETATE

>  <SYNONYMS>  (2712) 


>  <SPECTRUM TYPE>  (2712) 
MS1

>  <INSTRUMENT TYPE>  (2712) 
EI-B

>  <INSTRUMENT>  (2712) 
HITACHI M-80B

>  <ION MODE>  (2712) 
P

>  <INCHIKEY>  (2712) 
GXXFZZLGPFNITM-UHFFFAOYSA-N

>  <FORMULA>  (2712) 
C11H14O2

>  <EXACT MASS>  (2712) 
178.099379688

>  <MW>  (2712) 
178

>  <ID>  (2712) 
JP008499

>  <CONTRIBUTOR>  (2712) 
University of Tokyo Team, {Faculty of Engineering, University of Tokyo

>  <COMMENT>  (2712) 
SMILES=CCCOC(=O)Cc(c1)cccc1
InChI=InChI=1S/C11H14O2/c1-2-8-13-11(12)9-10-6-4-3-5-7-10/h3-7H,2,8-9H2,1H3
computed SMILES=O=C(OCCC)CC=1C=CC=CC1
accession=JP008499
date=2016.01.19 (Created 2008.10.21, modified 2011.05.06)
author=SODA AROMATIC CO., LTD.
license=CC BY-NC-SA
exact mass=178.09938
ionization energy=70 eV
ion type=[M]+*
computed spectral entropy=2.191212976616575
computed normalized entropy=0.6988413391052124
SPLASH=splash10-0006-9000000000-fac61fa526e9faf2280c
submitter=submitter = University of Tokyo Team (Faculty of Engineering, University of Tokyo)
MoNA Rating=3.75

>  <NUM PEAKS>  (2712) 
23

>  <MASS SPECTRAL PEAKS>  (2712) 
27 10.84
29 2.67
38 1.04
39 9.53
41 12.8
42 1.28
43 45.23
50 1.21
51 2.92
52 1.02
63 3.66
64 1.32
65 15.54
89 3.69
90 2.9
91 99.99
92 20.63
93 1.01
105 1.05
119 4.01
136 9.21
137 1.03
178 9.16

$$$$

     RDKit          2D

 12 12  0  0  0  0  0  0  0  0999 V2000
   -5.5207    3.1321    0.0000 C   0  0  0  0  0  0  0  0  0  0  0  0
   -4.2216    2.3821    0.0000 C   0  0  0  0  0  0  0  0  0  0  0  0
    3.5726    0.8821    0.0000 C   0  0  0  0  0  0  0  0  0  0  0  0
    3.5731    2.3829    0.0000 C   0  0  0  0  0  0  0  0  0  0  0  0
    2.2731    0.1313    0.0000 C   0  0  0  0  0  0  0  0  0  0  0  0
    2.2740    3.1329    0.0000 C   0  0  0  0  0  0  0  0  0  0  0  0
    0.9740    0.8813    0.0000 C   0  0  0  0  0  0  0  0  0  0  0  0
   -0.3245    3.1321    0.0000 C   0  0  0  0  0  0  0  0  0  0  0  0
    0.9745    2.3821    0.0000 C   0  0  0  0  0  0  0  0  0  0  0  0
   -1.6236    2.3821    0.0000 C   0  0  0  0  0  0  0  0  0  0  0  0
   -1.6236    0.8821    0.0000 O   0  0  0  0  0  0  0  0  0  0  0  0
   -2.9226    3.1321    0.0000 O   0  0  0  0  0  0  0  0  0  0  0  0
  2  1  1  0
  4  3  2  0
  5  3  1  0
  6  4  1  0
  7  5  2  0
  9  6  2  0
  9  7  1  0
  9  8  1  0
 10  8  1  0
 11 10  2  0
 12  2  1  0
 12 10  1  0
M  END
>  <NAME>  (2713) 
ETHYL PHENYLACETATE

>  <SYNONYMS>  (2713) 


>  <SPECTRUM TYPE>  (2713) 
MS1

>  <INSTRUMENT TYPE>  (2713) 
EI-B

>  <INSTRUMENT>  (2713) 
HITACHI M-80B

>  <ION MODE>  (2713) 
P

>  <INCHIKEY>  (2713) 
DULCUDSUACXJJC-UHFFFAOYSA-N

>  <FORMULA>  (2713) 
C10H12O2

>  <EXACT MASS>  (2713) 
164.083729624

>  <MW>  (2713) 
164

>  <ID>  (2713) 
JP008498

>  <CONTRIBUTOR>  (2713) 
University of Tokyo Team, {Faculty of Engineering, University of Tokyo

>  <COMMENT>  (2713) 
SMILES=CCOC(=O)Cc(c1)cccc1
InChI=InChI=1S/C10H12O2/c1-2-12-10(11)8-9-6-4-3-5-7-9/h3-7H,2,8H2,1H3
computed SMILES=O=C(OCC)CC=1C=CC=CC1
accession=JP008498
date=2016.01.19 (Created 2008.10.21, modified 2011.05.06)
author=SODA AROMATIC CO., LTD.
license=CC BY-NC-SA
exact mass=164.08373
ionization energy=70 eV
ion type=[M]+*
computed spectral entropy=1.83485543529
computed normalized entropy=0.634816414282137
SPLASH=splash10-0006-9100000000-a6bc1d1b1fcb210375ef
submitter=submitter = University of Tokyo Team (Faculty of Engineering, University of Tokyo)
MoNA Rating=3.75

>  <NUM PEAKS>  (2713) 
18

>  <MASS SPECTRAL PEAKS>  (2713) 
27 4.71
29 14.92
39 6.19
41 1.26
50 1.1
51 2.62
62 1.09
63 4.16
64 1.24
65 13.07
89 3.79
90 2.51
91 99.99
92 12.13
105 1.54
119 1.67
164 16.18
165 1.54

$$$$

     RDKit          2D

 11 11  0  0  0  0  0  0  0  0999 V2000
   -4.8712    2.0071    0.0000 C   0  0  0  0  0  0  0  0  0  0  0  0
    2.9231    0.5071    0.0000 C   0  0  0  0  0  0  0  0  0  0  0  0
    2.9236    2.0079    0.0000 C   0  0  0  0  0  0  0  0  0  0  0  0
    1.6236   -0.2437    0.0000 C   0  0  0  0  0  0  0  0  0  0  0  0
    1.6245    2.7579    0.0000 C   0  0  0  0  0  0  0  0  0  0  0  0
    0.3245    0.5063    0.0000 C   0  0  0  0  0  0  0  0  0  0  0  0
   -0.9740    2.7571    0.0000 C   0  0  0  0  0  0  0  0  0  0  0  0
    0.3250    2.0071    0.0000 C   0  0  0  0  0  0  0  0  0  0  0  0
   -2.2731    2.0071    0.0000 C   0  0  0  0  0  0  0  0  0  0  0  0
   -2.2731    0.5071    0.0000 O   0  0  0  0  0  0  0  0  0  0  0  0
   -3.5721    2.7571    0.0000 O   0  0  0  0  0  0  0  0  0  0  0  0
  3  2  2  0
  4  2  1  0
  5  3  1  0
  6  4  2  0
  8  5  2  0
  8  6  1  0
  8  7  1  0
  9  7  1  0
 10  9  2  0
 11  1  1  0
 11  9  1  0
M  END
>  <NAME>  (2714) 
METHYL PHENYLACETATE

>  <SYNONYMS>  (2714) 


>  <SPECTRUM TYPE>  (2714) 
MS1

>  <INSTRUMENT TYPE>  (2714) 
EI-B

>  <INSTRUMENT>  (2714) 
HITACHI M-80B

>  <ION MODE>  (2714) 
P

>  <INCHIKEY>  (2714) 
CRZQGDNQQAALAY-UHFFFAOYSA-N

>  <FORMULA>  (2714) 
C9H10O2

>  <EXACT MASS>  (2714) 
150.06807956

>  <MW>  (2714) 
150

>  <ID>  (2714) 
JP008497

>  <CONTRIBUTOR>  (2714) 
University of Tokyo Team, {Faculty of Engineering, University of Tokyo

>  <COMMENT>  (2714) 
SMILES=COC(=O)Cc(c1)cccc1
InChI=InChI=1S/C9H10O2/c1-11-9(10)7-8-5-3-2-4-6-8/h2-6H,7H2,1H3
computed SMILES=O=C(OC)CC=1C=CC=CC1
accession=JP008497
date=2016.01.19 (Created 2008.10.21, modified 2011.05.06)
author=SODA AROMATIC CO., LTD.
license=CC BY-NC-SA
exact mass=150.06808
ionization energy=70 eV
ion type=[M]+*
computed spectral entropy=1.9893065447177112
computed normalized entropy=0.6435714082659703
SPLASH=splash10-0006-9100000000-1edd67a79f223f827641
submitter=submitter = University of Tokyo Team (Faculty of Engineering, University of Tokyo)
MoNA Rating=3.75

>  <NUM PEAKS>  (2714) 
22

>  <MASS SPECTRAL PEAKS>  (2714) 
15 4.17
29 1.79
38 1.3
39 8.06
41 1.29
50 2.06
51 3.99
52 1.16
59 6.69
62 1.73
63 6.23
64 1.57
65 14.83
77 1.12
89 4.81
90 3.18
91 99.99
92 7.52
105 1.09
119 1.44
150 24
151 2.32

$$$$

     RDKit          2D

 17 18  0  0  0  0  0  0  0  0999 V2000
    4.5466    2.1950    0.0000 C   0  0  0  0  0  0  0  0  0  0  0  0
   -7.1447    5.9450    0.0000 C   0  0  0  0  0  0  0  0  0  0  0  0
    4.5471    3.6958    0.0000 C   0  0  0  0  0  0  0  0  0  0  0  0
    3.2471    1.4442    0.0000 C   0  0  0  0  0  0  0  0  0  0  0  0
   -7.1452    4.4442    0.0000 C   0  0  0  0  0  0  0  0  0  0  0  0
   -5.8452    6.6958    0.0000 C   0  0  0  0  0  0  0  0  0  0  0  0
    3.2481    4.4458    0.0000 C   0  0  0  0  0  0  0  0  0  0  0  0
    1.9481    2.1942    0.0000 C   0  0  0  0  0  0  0  0  0  0  0  0
   -5.8462    3.6942    0.0000 C   0  0  0  0  0  0  0  0  0  0  0  0
   -4.5462    5.9458    0.0000 C   0  0  0  0  0  0  0  0  0  0  0  0
    0.6495    4.4450    0.0000 C   0  0  0  0  0  0  0  0  0  0  0  0
   -0.6495    3.6950    0.0000 C   0  0  0  0  0  0  0  0  0  0  0  0
    1.9486    3.6950    0.0000 C   0  0  0  0  0  0  0  0  0  0  0  0
   -4.5466    4.4450    0.0000 C   0  0  0  0  0  0  0  0  0  0  0  0
   -3.2476    3.6950    0.0000 C   0  0  0  0  0  0  0  0  0  0  0  0
   -3.2476    2.1950    0.0000 O   0  0  0  0  0  0  0  0  0  0  0  0
   -1.9486    4.4450    0.0000 O   0  0  0  0  0  0  0  0  0  0  0  0
  3  1  2  0
  4  1  1  0
  5  2  2  0
  6  2  1  0
  7  3  1  0
  8  4  2  0
  9  5  1  0
 10  6  2  0
 12 11  1  0
 13  7  2  0
 13  8  1  0
 13 11  1  0
 14  9  2  0
 14 10  1  0
 15 14  1  0
 16 15  2  0
 17 12  1  0
 17 15  1  0
M  END
>  <NAME>  (2715) 
2-PHENYLETHYL BENZOATE

>  <SYNONYMS>  (2715) 
PHENETHYL BENZOATE

>  <SPECTRUM TYPE>  (2715) 
MS1

>  <INSTRUMENT TYPE>  (2715) 
EI-B

>  <INSTRUMENT>  (2715) 
HITACHI M-80B

>  <ION MODE>  (2715) 
P

>  <INCHIKEY>  (2715) 
OSORMYZMWHVFOZ-UHFFFAOYSA-N

>  <FORMULA>  (2715) 
C15H14O2

>  <EXACT MASS>  (2715) 
226.099379688

>  <MW>  (2715) 
226

>  <ID>  (2715) 
JP008496

>  <CONTRIBUTOR>  (2715) 
University of Tokyo Team, {Faculty of Engineering, University of Tokyo

>  <COMMENT>  (2715) 
SMILES=O=C(OCCc(c2)cccc2)c(c1)cccc1
InChI=InChI=1S/C15H14O2/c16-15(14-9-5-2-6-10-14)17-12-11-13-7-3-1-4-8-13/h1-10H,11-12H2
computed SMILES=O=C(OCCC=1C=CC=CC1)C=2C=CC=CC2
accession=JP008496
date=2016.01.19 (Created 2008.10.21, modified 2011.05.06)
author=SODA AROMATIC CO., LTD.
license=CC BY-NC-SA
exact mass=226.09938
ionization energy=70 eV
ion type=[M]+*
computed spectral entropy=1.7677539724619742
computed normalized entropy=0.6375824723956639
SPLASH=splash10-0udi-4900000000-47ec2ba2cea1fcfe861f
submitter=submitter = University of Tokyo Team (Faculty of Engineering, University of Tokyo)
MoNA Rating=3.75

>  <NUM PEAKS>  (2715) 
16

>  <MASS SPECTRAL PEAKS>  (2715) 
27 1.67
39 2.48
50 2.78
51 13.24
52 1.13
63 1.11
65 4.08
76 1.47
77 35.49
78 5.44
79 1.5
91 7.35
103 2.66
104 99.99
105 45.19
106 2.58

$$$$

     RDKit          2D

 16 17  0  0  0  0  0  0  0  0999 V2000
    3.2481    2.1950    0.0000 C   0  0  0  0  0  0  0  0  0  0  0  0
   -7.1442    2.1950    0.0000 C   0  0  0  0  0  0  0  0  0  0  0  0
    3.2486    3.6958    0.0000 C   0  0  0  0  0  0  0  0  0  0  0  0
    1.9486    1.4442    0.0000 C   0  0  0  0  0  0  0  0  0  0  0  0
   -5.8447    1.4442    0.0000 C   0  0  0  0  0  0  0  0  0  0  0  0
   -7.1447    3.6958    0.0000 C   0  0  0  0  0  0  0  0  0  0  0  0
    1.9495    4.4458    0.0000 C   0  0  0  0  0  0  0  0  0  0  0  0
    0.6495    2.1942    0.0000 C   0  0  0  0  0  0  0  0  0  0  0  0
   -4.5457    2.1942    0.0000 C   0  0  0  0  0  0  0  0  0  0  0  0
   -5.8457    4.4458    0.0000 C   0  0  0  0  0  0  0  0  0  0  0  0
   -0.6490    4.4450    0.0000 C   0  0  0  0  0  0  0  0  0  0  0  0
    0.6500    3.6950    0.0000 C   0  0  0  0  0  0  0  0  0  0  0  0
   -4.5462    3.6950    0.0000 C   0  0  0  0  0  0  0  0  0  0  0  0
   -3.2471    4.4450    0.0000 C   0  0  0  0  0  0  0  0  0  0  0  0
   -3.2471    5.9450    0.0000 O   0  0  0  0  0  0  0  0  0  0  0  0
   -1.9481    3.6950    0.0000 O   0  0  0  0  0  0  0  0  0  0  0  0
  3  1  2  0
  4  1  1  0
  5  2  2  0
  6  2  1  0
  7  3  1  0
  8  4  2  0
  9  5  1  0
 10  6  2  0
 12  7  2  0
 12  8  1  0
 12 11  1  0
 13  9  2  0
 13 10  1  0
 14 13  1  0
 15 14  2  0
 16 11  1  0
 16 14  1  0
M  END
>  <NAME>  (2716) 
BENZYL BENZOATE

>  <SYNONYMS>  (2716) 


>  <SPECTRUM TYPE>  (2716) 
MS1

>  <INSTRUMENT TYPE>  (2716) 
EI-B

>  <INSTRUMENT>  (2716) 
HITACHI M-80B

>  <ION MODE>  (2716) 
P

>  <INCHIKEY>  (2716) 
SESFRYSPDFLNCH-UHFFFAOYSA-N

>  <FORMULA>  (2716) 
C14H12O2

>  <EXACT MASS>  (2716) 
212.083729624

>  <MW>  (2716) 
212

>  <ID>  (2716) 
JP008495

>  <CONTRIBUTOR>  (2716) 
University of Tokyo Team, {Faculty of Engineering, University of Tokyo

>  <COMMENT>  (2716) 
SMILES=O=C(OCc(c2)cccc2)c(c1)cccc1
InChI=InChI=1S/C14H12O2/c15-14(13-9-5-2-6-10-13)16-11-12-7-3-1-4-8-12/h1-10H,11H2
computed SMILES=O=C(OCC=1C=CC=CC1)C=2C=CC=CC2
accession=JP008495
date=2016.01.19 (Created 2008.10.21, modified 2011.05.06)
author=SODA AROMATIC CO., LTD.
license=CC BY-NC-SA
exact mass=212.08373
ionization energy=70 eV
ion type=[M]+*
computed spectral entropy=2.414271701483702
computed normalized entropy=0.7410068036074208
SPLASH=splash10-0a4l-9610000000-37d8d16fbb06548d4614
submitter=submitter = University of Tokyo Team (Faculty of Engineering, University of Tokyo)
MoNA Rating=3.75

>  <NUM PEAKS>  (2716) 
26

>  <MASS SPECTRAL PEAKS>  (2716) 
27 1.71
39 7.99
41 1.39
50 6.81
51 22.25
52 1.96
63 2.89
64 1
65 13.73
74 1.31
75 1.11
76 1.71
77 38.02
78 3.31
79 5.59
89 5.16
90 7.88
91 55.25
92 3.33
105 99.99
106 8.13
107 6.71
167 4.32
194 3.46
212 21.41
213 2.76

$$$$

     RDKit          2D

 15 16  0  0  0  0  0  0  0  0999 V2000
    3.8981    1.0699    0.0000 C   0  0  0  0  0  0  0  0  0  0  0  0
   -5.1959    4.8220    0.0000 C   0  0  0  0  0  0  0  0  0  0  0  0
    3.8986    2.5708    0.0000 C   0  0  0  0  0  0  0  0  0  0  0  0
    2.5986    0.3191    0.0000 C   0  0  0  0  0  0  0  0  0  0  0  0
   -3.8967    5.5718    0.0000 C   0  0  0  0  0  0  0  0  0  0  0  0
   -5.1956    3.3212    0.0000 C   0  0  0  0  0  0  0  0  0  0  0  0
    2.5995    3.3208    0.0000 C   0  0  0  0  0  0  0  0  0  0  0  0
    1.2995    1.0691    0.0000 C   0  0  0  0  0  0  0  0  0  0  0  0
   -2.5973    4.8208    0.0000 C   0  0  0  0  0  0  0  0  0  0  0  0
   -3.8962    2.5702    0.0000 C   0  0  0  0  0  0  0  0  0  0  0  0
    1.3000    2.5699    0.0000 C   0  0  0  0  0  0  0  0  0  0  0  0
   -2.5971    3.3199    0.0000 C   0  0  0  0  0  0  0  0  0  0  0  0
    0.0010    3.3199    0.0000 C   0  0  0  0  0  0  0  0  0  0  0  0
    0.0010    4.8199    0.0000 O   0  0  0  0  0  0  0  0  0  0  0  0
   -1.2980    2.5699    0.0000 O   0  0  0  0  0  0  0  0  0  0  0  0
  3  1  2  0
  4  1  1  0
  5  2  2  0
  6  2  1  0
  7  3  1  0
  8  4  2  0
  9  5  1  0
 10  6  2  0
 11  7  2  0
 11  8  1  0
 12  9  2  0
 12 10  1  0
 13 11  1  0
 14 13  2  0
 15 12  1  0
 15 13  1  0
M  END
>  <NAME>  (2717) 
PHENYL BENZOATE

>  <SYNONYMS>  (2717) 


>  <SPECTRUM TYPE>  (2717) 
MS1

>  <INSTRUMENT TYPE>  (2717) 
EI-B

>  <INSTRUMENT>  (2717) 
HITACHI M-80B

>  <ION MODE>  (2717) 
P

>  <INCHIKEY>  (2717) 
FCJSHPDYVMKCHI-UHFFFAOYSA-N

>  <FORMULA>  (2717) 
C13H10O2

>  <EXACT MASS>  (2717) 
198.06807956

>  <MW>  (2717) 
198

>  <ID>  (2717) 
JP008494

>  <CONTRIBUTOR>  (2717) 
University of Tokyo Team, {Faculty of Engineering, University of Tokyo

>  <COMMENT>  (2717) 
SMILES=O=C(Oc(c2)cccc2)c(c1)cccc1
InChI=InChI=1S/C13H10O2/c14-13(11-7-3-1-4-8-11)15-12-9-5-2-6-10-12/h1-10H
computed SMILES=O=C(OC=1C=CC=CC1)C=2C=CC=CC2
accession=JP008494
date=2016.01.19 (Created 2008.10.21, modified 2011.05.06)
author=SODA AROMATIC CO., LTD.
license=CC BY-NC-SA
exact mass=198.06808
ionization energy=70 eV
ion type=[M]+*
computed spectral entropy=1.667635439323711
computed normalized entropy=0.6319057265674601
SPLASH=splash10-0a4i-7900000000-d3233245afe6c2f74b31
submitter=submitter = University of Tokyo Team (Faculty of Engineering, University of Tokyo)
MoNA Rating=3.75

>  <NUM PEAKS>  (2717) 
14

>  <MASS SPECTRAL PEAKS>  (2717) 
27 1.04
38 1.44
39 8.74
50 5.83
51 17.53
63 1.65
65 6.26
74 1.12
76 1.68
77 44.93
78 2.32
105 99.99
106 7.32
198 5.32

$$$$

     RDKit          2D

 17 17  0  0  0  0  0  0  0  0999 V2000
    5.5216    5.0079    0.0000 C   0  0  0  0  0  0  0  0  0  0  0  0
    4.2226    4.2579    0.0000 C   0  0  0  0  0  0  0  0  0  0  0  0
    2.9236    5.0079    0.0000 C   0  0  0  0  0  0  0  0  0  0  0  0
    1.6245    4.2579    0.0000 C   0  0  0  0  0  0  0  0  0  0  0  0
    0.3255    5.0079    0.0000 C   0  0  0  0  0  0  0  0  0  0  0  0
   -0.9736    4.2579    0.0000 C   0  0  0  0  0  0  0  0  0  0  0  0
  -10.0668    6.5079    0.0000 C   0  0  0  0  0  0  0  0  0  0  0  0
  -10.0673    5.0071    0.0000 C   0  0  0  0  0  0  0  0  0  0  0  0
   -8.7673    7.2587    0.0000 C   0  0  0  0  0  0  0  0  0  0  0  0
   -2.2726    5.0079    0.0000 C   0  0  0  0  0  0  0  0  0  0  0  0
   -8.7683    4.2571    0.0000 C   0  0  0  0  0  0  0  0  0  0  0  0
   -7.4683    6.5087    0.0000 C   0  0  0  0  0  0  0  0  0  0  0  0
   -3.5716    4.2579    0.0000 C   0  0  0  0  0  0  0  0  0  0  0  0
   -7.4687    5.0079    0.0000 C   0  0  0  0  0  0  0  0  0  0  0  0
   -6.1697    4.2579    0.0000 C   0  0  0  0  0  0  0  0  0  0  0  0
   -6.1697    2.7579    0.0000 O   0  0  0  0  0  0  0  0  0  0  0  0
   -4.8707    5.0079    0.0000 O   0  0  0  0  0  0  0  0  0  0  0  0
  2  1  1  0
  3  2  1  0
  4  3  1  0
  5  4  1  0
  6  5  1  0
  8  7  2  0
  9  7  1  0
 10  6  1  0
 11  8  1  0
 12  9  2  0
 13 10  1  0
 14 11  2  0
 14 12  1  0
 15 14  1  0
 16 15  2  0
 17 13  1  0
 17 15  1  0
M  END
>  <NAME>  (2718) 
OCTYL BENZOATE

>  <SYNONYMS>  (2718) 


>  <SPECTRUM TYPE>  (2718) 
MS1

>  <INSTRUMENT TYPE>  (2718) 
EI-B

>  <INSTRUMENT>  (2718) 
HITACHI M-80B

>  <ION MODE>  (2718) 
P

>  <INCHIKEY>  (2718) 
VECVSKFWRQYTAL-UHFFFAOYSA-N

>  <FORMULA>  (2718) 
C15H22O2

>  <EXACT MASS>  (2718) 
234.161979944

>  <MW>  (2718) 
234

>  <ID>  (2718) 
JP008493

>  <CONTRIBUTOR>  (2718) 
University of Tokyo Team, {Faculty of Engineering, University of Tokyo

>  <COMMENT>  (2718) 
SMILES=CCCCCCCCOC(=O)c(c1)cccc1
InChI=InChI=1S/C15H22O2/c1-2-3-4-5-6-10-13-17-15(16)14-11-8-7-9-12-14/h7-9,11-12H,2-6,10,13H2,1H3
computed SMILES=O=C(OCCCCCCCC)C=1C=CC=CC1
accession=JP008493
date=2016.01.19 (Created 2008.10.21, modified 2011.05.06)
author=SODA AROMATIC CO., LTD.
license=CC BY-NC-SA
exact mass=234.16198
ionization energy=70 eV
ion type=[M]+*
computed spectral entropy=2.831766419384188
computed normalized entropy=0.8098842543891164
SPLASH=splash10-05fr-9700000000-bf993012ad3dc9dfdb74
submitter=submitter = University of Tokyo Team (Faculty of Engineering, University of Tokyo)
MoNA Rating=3.75

>  <NUM PEAKS>  (2718) 
33

>  <MASS SPECTRAL PEAKS>  (2718) 
27 9.66
29 12.16
39 5.5
41 26.79
42 10.51
43 17.2
50 2.91
51 15.15
52 1.11
53 1.72
54 2.41
55 18.06
56 18.53
57 6.8
67 1.67
68 3.27
69 12.66
70 20.95
71 2.27
76 2.65
77 53.61
78 3.95
79 7.88
82 2.65
83 12.62
84 11.4
97 1.21
105 97.86
106 8.12
112 12.3
122 13.85
123 99.99
124 7.6

$$$$

     RDKit          2D

 15 15  0  0  0  0  0  0  0  0999 V2000
    4.8721    3.8829    0.0000 C   0  0  0  0  0  0  0  0  0  0  0  0
    3.5731    3.1329    0.0000 C   0  0  0  0  0  0  0  0  0  0  0  0
    2.2740    3.8829    0.0000 C   0  0  0  0  0  0  0  0  0  0  0  0
    0.9750    3.1329    0.0000 C   0  0  0  0  0  0  0  0  0  0  0  0
   -8.1183    5.3829    0.0000 C   0  0  0  0  0  0  0  0  0  0  0  0
   -8.1187    3.8821    0.0000 C   0  0  0  0  0  0  0  0  0  0  0  0
   -6.8187    6.1337    0.0000 C   0  0  0  0  0  0  0  0  0  0  0  0
   -0.3240    3.8829    0.0000 C   0  0  0  0  0  0  0  0  0  0  0  0
   -6.8197    3.1321    0.0000 C   0  0  0  0  0  0  0  0  0  0  0  0
   -5.5197    5.3837    0.0000 C   0  0  0  0  0  0  0  0  0  0  0  0
   -1.6231    3.1329    0.0000 C   0  0  0  0  0  0  0  0  0  0  0  0
   -5.5202    3.8829    0.0000 C   0  0  0  0  0  0  0  0  0  0  0  0
   -4.2212    3.1329    0.0000 C   0  0  0  0  0  0  0  0  0  0  0  0
   -4.2212    1.6329    0.0000 O   0  0  0  0  0  0  0  0  0  0  0  0
   -2.9221    3.8829    0.0000 O   0  0  0  0  0  0  0  0  0  0  0  0
  2  1  1  0
  3  2  1  0
  4  3  1  0
  6  5  2  0
  7  5  1  0
  8  4  1  0
  9  6  1  0
 10  7  2  0
 11  8  1  0
 12  9  2  0
 12 10  1  0
 13 12  1  0
 14 13  2  0
 15 11  1  0
 15 13  1  0
M  END
>  <NAME>  (2719) 
HEXYL BENZOATE

>  <SYNONYMS>  (2719) 


>  <SPECTRUM TYPE>  (2719) 
MS1

>  <INSTRUMENT TYPE>  (2719) 
EI-B

>  <INSTRUMENT>  (2719) 
HITACHI M-80B

>  <ION MODE>  (2719) 
P

>  <INCHIKEY>  (2719) 
UUGLJVMIFJNVFH-UHFFFAOYSA-N

>  <FORMULA>  (2719) 
C13H18O2

>  <EXACT MASS>  (2719) 
206.130679816

>  <MW>  (2719) 
206

>  <ID>  (2719) 
JP008492

>  <CONTRIBUTOR>  (2719) 
University of Tokyo Team, {Faculty of Engineering, University of Tokyo

>  <COMMENT>  (2719) 
SMILES=CCCCCCOC(=O)c(c1)cccc1
InChI=InChI=1S/C13H18O2/c1-2-3-4-8-11-15-13(14)12-9-6-5-7-10-12/h5-7,9-10H,2-4,8,11H2,1H3
computed SMILES=O=C(OCCCCCC)C=1C=CC=CC1
accession=JP008492
date=2016.01.19 (Created 2008.10.21, modified 2011.05.06)
author=SODA AROMATIC CO., LTD.
license=CC BY-NC-SA
exact mass=206.13068
ionization energy=70 eV
ion type=[M]+*
computed spectral entropy=2.5892207772053597
computed normalized entropy=0.7856034392698484
SPLASH=splash10-0ab9-9800000000-dfb349b635d78bc84bca
submitter=submitter = University of Tokyo Team (Faculty of Engineering, University of Tokyo)
MoNA Rating=3.75

>  <NUM PEAKS>  (2719) 
27

>  <MASS SPECTRAL PEAKS>  (2719) 
27 10.19
29 9.12
39 6.8
41 17.23
42 9.74
43 13.12
50 3.93
51 18.41
52 1.06
53 1.27
54 1.25
55 13.63
56 24.26
57 1.56
69 8.51
76 2.78
77 53.6
78 3.61
79 7.45
83 1.24
84 15.63
105 99.99
106 7.92
122 15.57
123 84.36
124 6.65
206 1.12

$$$$

     RDKit          2D

 15 15  0  0  0  0  0  0  0  0999 V2000
   -5.1962   10.0700    0.0000 C   0  0  0  0  0  0  0  0  0  0  0  0
   -3.8971    9.3200    0.0000 C   0  0  0  0  0  0  0  0  0  0  0  0
   -3.8971    7.8200    0.0000 C   0  0  0  0  0  0  0  0  0  0  0  0
   -2.5981    7.0700    0.0000 C   0  0  0  0  0  0  0  0  0  0  0  0
    6.4952    9.3200    0.0000 C   0  0  0  0  0  0  0  0  0  0  0  0
    6.4957    7.8192    0.0000 C   0  0  0  0  0  0  0  0  0  0  0  0
    5.1957   10.0708    0.0000 C   0  0  0  0  0  0  0  0  0  0  0  0
   -1.2990    7.8200    0.0000 C   0  0  0  0  0  0  0  0  0  0  0  0
    5.1966    7.0692    0.0000 C   0  0  0  0  0  0  0  0  0  0  0  0
    3.8966    9.3208    0.0000 C   0  0  0  0  0  0  0  0  0  0  0  0
    0.0000    7.0700    0.0000 C   0  0  0  0  0  0  0  0  0  0  0  0
    3.8971    7.8200    0.0000 C   0  0  0  0  0  0  0  0  0  0  0  0
    2.5981    7.0700    0.0000 C   0  0  0  0  0  0  0  0  0  0  0  0
    2.5981    5.5700    0.0000 O   0  0  0  0  0  0  0  0  0  0  0  0
    1.2990    7.8200    0.0000 O   0  0  0  0  0  0  0  0  0  0  0  0
  2  1  1  0
  3  2  1  0
  3  4  2  0
  6  5  2  0
  7  5  1  0
  8  4  1  0
  9  6  1  0
 10  7  2  0
 11  8  1  0
 12  9  2  0
 12 10  1  0
 13 12  1  0
 14 13  2  0
 15 11  1  0
 15 13  1  0
M  END
>  <NAME>  (2720) 
CIS-3-HEXENYL BENZOATE

>  <SYNONYMS>  (2720) 


>  <SPECTRUM TYPE>  (2720) 
MS1

>  <INSTRUMENT TYPE>  (2720) 
EI-B

>  <INSTRUMENT>  (2720) 
HITACHI M-80B

>  <ION MODE>  (2720) 
P

>  <INCHIKEY>  (2720) 
BCOXBEHFBZOJJZ-ARJAWSKDSA-N

>  <FORMULA>  (2720) 
C13H16O2

>  <EXACT MASS>  (2720) 
204.115029752

>  <MW>  (2720) 
204

>  <ID>  (2720) 
JP008491

>  <CONTRIBUTOR>  (2720) 
University of Tokyo Team, {Faculty of Engineering, University of Tokyo

>  <COMMENT>  (2720) 
SMILES=CCC=CCCOC(=O)c(c1)cccc1
InChI=InChI=1S/C13H16O2/c1-2-3-4-8-11-15-13(14)12-9-6-5-7-10-12/h3-7,9-10H,2,8,11H2,1H3/b4-3-
computed SMILES=O=C(OCCC=CCC)C=1C=CC=CC1
accession=JP008491
date=2016.01.19 (Created 2008.10.21, modified 2011.05.06)
author=SODA AROMATIC CO., LTD.
license=CC BY-NC-SA
exact mass=204.11503
ionization energy=70 eV
ion type=[M]+*
computed spectral entropy=2.3356696131674104
computed normalized entropy=0.7086727007817694
SPLASH=splash10-0arr-9200000000-81473c0496fc70351f74
submitter=submitter = University of Tokyo Team (Faculty of Engineering, University of Tokyo)
MoNA Rating=3.75

>  <NUM PEAKS>  (2720) 
27

>  <MASS SPECTRAL PEAKS>  (2720) 
16 1.22
27 7.66
29 3.06
39 11.17
41 17.32
42 2.06
50 4.67
51 19.91
52 1.66
53 4.18
54 5.51
55 4.89
65 1.65
66 1.05
67 63.27
68 3.4
75 1.22
76 3.06
77 61.22
78 3.79
79 2.31
81 4.06
82 97.45
83 5.33
105 99.99
106 6.13
123 3.76

$$$$

     RDKit          2D

 14 14  0  0  0  0  0  0  0  0999 V2000
   -6.8197    3.1321    0.0000 C   0  0  0  0  0  0  0  0  0  0  0  0
   -5.5207    5.3821    0.0000 C   0  0  0  0  0  0  0  0  0  0  0  0
    3.5726    1.6321    0.0000 C   0  0  0  0  0  0  0  0  0  0  0  0
    3.5731    3.1329    0.0000 C   0  0  0  0  0  0  0  0  0  0  0  0
    2.2731    0.8813    0.0000 C   0  0  0  0  0  0  0  0  0  0  0  0
    2.2740    3.8829    0.0000 C   0  0  0  0  0  0  0  0  0  0  0  0
    0.9740    1.6313    0.0000 C   0  0  0  0  0  0  0  0  0  0  0  0
   -4.2216    3.1321    0.0000 C   0  0  0  0  0  0  0  0  0  0  0  0
   -2.9226    3.8821    0.0000 C   0  0  0  0  0  0  0  0  0  0  0  0
   -5.5207    3.8821    0.0000 C   0  0  0  0  0  0  0  0  0  0  0  0
    0.9745    3.1321    0.0000 C   0  0  0  0  0  0  0  0  0  0  0  0
   -0.3245    3.8821    0.0000 C   0  0  0  0  0  0  0  0  0  0  0  0
   -0.3245    5.3821    0.0000 O   0  0  0  0  0  0  0  0  0  0  0  0
   -1.6236    3.1321    0.0000 O   0  0  0  0  0  0  0  0  0  0  0  0
  4  3  2  0
  5  3  1  0
  6  4  1  0
  7  5  2  0
  9  8  1  0
 10  1  1  0
 10  2  1  0
 10  8  1  0
 11  6  2  0
 11  7  1  0
 12 11  1  0
 13 12  2  0
 14  9  1  0
 14 12  1  0
M  END
>  <NAME>  (2721) 
3-METHYLBUTYL BENZOATE

>  <SYNONYMS>  (2721) 
ISOAMYL BENZOATE

>  <SPECTRUM TYPE>  (2721) 
MS1

>  <INSTRUMENT TYPE>  (2721) 
EI-B

>  <INSTRUMENT>  (2721) 
HITACHI M-80B

>  <ION MODE>  (2721) 
P

>  <INCHIKEY>  (2721) 
MLLAPOCBLWUFAP-UHFFFAOYSA-N

>  <FORMULA>  (2721) 
C12H16O2

>  <EXACT MASS>  (2721) 
192.115029752

>  <MW>  (2721) 
192

>  <ID>  (2721) 
JP008490

>  <CONTRIBUTOR>  (2721) 
University of Tokyo Team, {Faculty of Engineering, University of Tokyo

>  <COMMENT>  (2721) 
SMILES=CC(C)CCOC(=O)c(c1)cccc1
InChI=InChI=1S/C12H16O2/c1-10(2)8-9-14-12(13)11-6-4-3-5-7-11/h3-7,10H,8-9H2,1-2H3
computed SMILES=O=C(OCCC(C)C)C=1C=CC=CC1
accession=JP008490
date=2016.01.19 (Created 2008.10.21, modified 2011.05.06)
author=SODA AROMATIC CO., LTD.
license=CC BY-NC-SA
exact mass=192.11503
ionization energy=70 eV
ion type=[M]+*
computed spectral entropy=2.426981015132768
computed normalized entropy=0.7449076437147504
SPLASH=splash10-0ab9-9400000000-441289ecb45dc03cf245
submitter=submitter = University of Tokyo Team (Faculty of Engineering, University of Tokyo)
MoNA Rating=3.75

>  <NUM PEAKS>  (2721) 
26

>  <MASS SPECTRAL PEAKS>  (2721) 
27 8.67
29 6.18
39 6.83
41 12.45
42 8.34
43 10.19
50 5.55
51 19.09
52 1.15
53 1.09
55 22.59
56 1.39
69 1.96
70 89.66
71 5.4
74 1.06
75 1.15
76 2.7
77 51.63
78 4.43
79 3.95
105 99.99
106 8.63
122 5.96
123 23.42
124 1.69

$$$$

     RDKit          2D

 14 14  0  0  0  0  0  0  0  0999 V2000
   -7.4692    4.2571    0.0000 C   0  0  0  0  0  0  0  0  0  0  0  0
   -6.1702    3.5071    0.0000 C   0  0  0  0  0  0  0  0  0  0  0  0
   -4.8712    4.2571    0.0000 C   0  0  0  0  0  0  0  0  0  0  0  0
    4.2221    2.0071    0.0000 C   0  0  0  0  0  0  0  0  0  0  0  0
    4.2226    3.5079    0.0000 C   0  0  0  0  0  0  0  0  0  0  0  0
    2.9226    1.2563    0.0000 C   0  0  0  0  0  0  0  0  0  0  0  0
   -3.5721    3.5071    0.0000 C   0  0  0  0  0  0  0  0  0  0  0  0
    2.9236    4.2579    0.0000 C   0  0  0  0  0  0  0  0  0  0  0  0
    1.6236    2.0063    0.0000 C   0  0  0  0  0  0  0  0  0  0  0  0
   -2.2731    4.2571    0.0000 C   0  0  0  0  0  0  0  0  0  0  0  0
    1.6240    3.5071    0.0000 C   0  0  0  0  0  0  0  0  0  0  0  0
    0.3250    4.2571    0.0000 C   0  0  0  0  0  0  0  0  0  0  0  0
    0.3250    5.7571    0.0000 O   0  0  0  0  0  0  0  0  0  0  0  0
   -0.9740    3.5071    0.0000 O   0  0  0  0  0  0  0  0  0  0  0  0
  2  1  1  0
  3  2  1  0
  5  4  2  0
  6  4  1  0
  7  3  1  0
  8  5  1  0
  9  6  2  0
 10  7  1  0
 11  8  2  0
 11  9  1  0
 12 11  1  0
 13 12  2  0
 14 10  1  0
 14 12  1  0
M  END
>  <NAME>  (2722) 
PENTYL BENZOATE

>  <SYNONYMS>  (2722) 
AMYL BENZOATE

>  <SPECTRUM TYPE>  (2722) 
MS1

>  <INSTRUMENT TYPE>  (2722) 
EI-B

>  <INSTRUMENT>  (2722) 
HITACHI M-80B

>  <ION MODE>  (2722) 
P

>  <INCHIKEY>  (2722) 
QKNZNUNCDJZTCH-UHFFFAOYSA-N

>  <FORMULA>  (2722) 
C12H16O2

>  <EXACT MASS>  (2722) 
192.115029752

>  <MW>  (2722) 
192

>  <ID>  (2722) 
JP008489

>  <CONTRIBUTOR>  (2722) 
University of Tokyo Team, {Faculty of Engineering, University of Tokyo

>  <COMMENT>  (2722) 
SMILES=CCCCCOC(=O)c(c1)cccc1
InChI=InChI=1S/C12H16O2/c1-2-3-7-10-14-12(13)11-8-5-4-6-9-11/h4-6,8-9H,2-3,7,10H2,1H3
computed SMILES=O=C(OCCCCC)C=1C=CC=CC1
accession=JP008489
date=2016.01.19 (Created 2008.10.21, modified 2011.05.06)
author=SODA AROMATIC CO., LTD.
license=CC BY-NC-SA
exact mass=192.11503
ionization energy=70 eV
ion type=[M]+*
computed spectral entropy=2.4777503015461764
computed normalized entropy=0.7697564107331261
SPLASH=splash10-05i0-8900000000-90f57fb3ba7dd293673c
submitter=submitter = University of Tokyo Team (Faculty of Engineering, University of Tokyo)
MoNA Rating=3.75

>  <NUM PEAKS>  (2722) 
25

>  <MASS SPECTRAL PEAKS>  (2722) 
27 10.14
29 9.2
39 7.21
41 11.85
42 12.88
43 6.26
50 5.16
51 19.79
52 1.18
55 11.38
69 2.18
70 21.38
71 1.16
74 1.02
75 1.21
76 2.54
77 54.64
78 4.4
79 6.83
105 99.99
106 8.24
122 16.79
123 73.66
124 5.7
192 1.23

$$$$

     RDKit          2D

 14 14  0  0  0  0  0  0  0  0999 V2000
   -5.5207    5.3821    0.0000 C   0  0  0  0  0  0  0  0  0  0  0  0
   -6.8197    3.1321    0.0000 C   0  0  0  0  0  0  0  0  0  0  0  0
    3.5726    1.6321    0.0000 C   0  0  0  0  0  0  0  0  0  0  0  0
    3.5731    3.1329    0.0000 C   0  0  0  0  0  0  0  0  0  0  0  0
    2.2731    0.8813    0.0000 C   0  0  0  0  0  0  0  0  0  0  0  0
    2.2740    3.8829    0.0000 C   0  0  0  0  0  0  0  0  0  0  0  0
    0.9740    1.6313    0.0000 C   0  0  0  0  0  0  0  0  0  0  0  0
   -4.2216    3.1321    0.0000 C   0  0  0  0  0  0  0  0  0  0  0  0
   -2.9226    3.8821    0.0000 C   0  0  0  0  0  0  0  0  0  0  0  0
   -5.5207    3.8821    0.0000 C   0  0  0  0  0  0  0  0  0  0  0  0
    0.9745    3.1321    0.0000 C   0  0  0  0  0  0  0  0  0  0  0  0
   -0.3245    3.8821    0.0000 C   0  0  0  0  0  0  0  0  0  0  0  0
   -0.3245    5.3821    0.0000 O   0  0  0  0  0  0  0  0  0  0  0  0
   -1.6236    3.1321    0.0000 O   0  0  0  0  0  0  0  0  0  0  0  0
  4  3  2  0
  5  3  1  0
  6  4  1  0
  7  5  2  0
  9  8  1  0
 10  1  2  0
 10  2  1  0
 10  8  1  0
 11  6  2  0
 11  7  1  0
 12 11  1  0
 13 12  2  0
 14  9  1  0
 14 12  1  0
M  END
>  <NAME>  (2723) 
3-METHYL-3-BUTENYL BENZOATE

>  <SYNONYMS>  (2723) 


>  <SPECTRUM TYPE>  (2723) 
MS1

>  <INSTRUMENT TYPE>  (2723) 
EI-B

>  <INSTRUMENT>  (2723) 
HITACHI M-80B

>  <ION MODE>  (2723) 
P

>  <INCHIKEY>  (2723) 
BBTRQSDRTFFNSW-UHFFFAOYSA-N

>  <FORMULA>  (2723) 
C12H14O2

>  <EXACT MASS>  (2723) 
190.099379688

>  <MW>  (2723) 
190

>  <ID>  (2723) 
JP008488

>  <CONTRIBUTOR>  (2723) 
University of Tokyo Team, {Faculty of Engineering, University of Tokyo

>  <COMMENT>  (2723) 
SMILES=CC(=C)CCOC(=O)c(c1)cccc1
InChI=InChI=1S/C12H14O2/c1-10(2)8-9-14-12(13)11-6-4-3-5-7-11/h3-7H,1,8-9H2,2H3
computed SMILES=O=C(OCCC(=C)C)C=1C=CC=CC1
accession=JP008488
date=2016.01.19 (Created 2008.10.21, modified 2011.05.06)
author=SODA AROMATIC CO., LTD.
license=CC BY-NC-SA
exact mass=190.09938
ionization energy=70 eV
ion type=[M]+*
computed spectral entropy=2.1565783554469315
computed normalized entropy=0.6976864239130329
SPLASH=splash10-066r-9300000000-08620d4fa318940f5a82
submitter=submitter = University of Tokyo Team (Faculty of Engineering, University of Tokyo)
MoNA Rating=3.75

>  <NUM PEAKS>  (2723) 
22

>  <MASS SPECTRAL PEAKS>  (2723) 
27 7.07
29 1.87
39 12.59
41 11.09
42 1.22
50 4.69
51 19.33
52 1.74
53 7.63
55 1.45
66 1.03
67 16.2
68 99.99
69 4.84
74 1.13
76 2.51
77 48.22
78 2.91
79 1.25
105 81.91
106 5.34
123 2.9

$$$$

     RDKit          2D

 13 13  0  0  0  0  0  0  0  0999 V2000
   -5.8454    3.6946    0.0000 C   0  0  0  0  0  0  0  0  0  0  0  0
   -4.5464    1.4446    0.0000 C   0  0  0  0  0  0  0  0  0  0  0  0
    3.2478    1.4446    0.0000 C   0  0  0  0  0  0  0  0  0  0  0  0
    3.2483    2.9454    0.0000 C   0  0  0  0  0  0  0  0  0  0  0  0
    1.9483    0.6938    0.0000 C   0  0  0  0  0  0  0  0  0  0  0  0
    1.9493    3.6954    0.0000 C   0  0  0  0  0  0  0  0  0  0  0  0
    0.6493    1.4438    0.0000 C   0  0  0  0  0  0  0  0  0  0  0  0
   -3.2474    3.6946    0.0000 C   0  0  0  0  0  0  0  0  0  0  0  0
   -4.5464    2.9446    0.0000 C   0  0  0  0  0  0  0  0  0  0  0  0
    0.6498    2.9446    0.0000 C   0  0  0  0  0  0  0  0  0  0  0  0
   -0.6493    3.6946    0.0000 C   0  0  0  0  0  0  0  0  0  0  0  0
   -0.6493    5.1946    0.0000 O   0  0  0  0  0  0  0  0  0  0  0  0
   -1.9483    2.9446    0.0000 O   0  0  0  0  0  0  0  0  0  0  0  0
  4  3  2  0
  5  3  1  0
  6  4  1  0
  7  5  2  0
  9  1  1  0
  9  2  1  0
  9  8  1  0
 10  6  2  0
 10  7  1  0
 11 10  1  0
 12 11  2  0
 13  8  1  0
 13 11  1  0
M  END
>  <NAME>  (2724) 
BUTYL BENZOATE

>  <SYNONYMS>  (2724) 


>  <SPECTRUM TYPE>  (2724) 
MS1

>  <INSTRUMENT TYPE>  (2724) 
EI-B

>  <INSTRUMENT>  (2724) 
HITACHI M-80B

>  <ION MODE>  (2724) 
P

>  <INCHIKEY>  (2724) 
KYZHGEFMXZOSJN-UHFFFAOYSA-N

>  <FORMULA>  (2724) 
C11H14O2

>  <EXACT MASS>  (2724) 
178.099379688

>  <MW>  (2724) 
178

>  <ID>  (2724) 
JP008487

>  <CONTRIBUTOR>  (2724) 
University of Tokyo Team, {Faculty of Engineering, University of Tokyo

>  <COMMENT>  (2724) 
SMILES=CC(C)COC(=O)c(c1)cccc1
InChI=InChI=1S/C11H14O2/c1-9(2)8-13-11(12)10-6-4-3-5-7-10/h3-7,9H,8H2,1-2H3
computed SMILES=O=C(OCC(C)C)C=1C=CC=CC1
accession=JP008487
date=2016.01.19 (Created 2008.10.21, modified 2011.05.06)
author=SODA AROMATIC CO., LTD.
license=CC BY-NC-SA
exact mass=178.09938
ionization energy=70 eV
ion type=[M]+*
computed spectral entropy=2.3990752470759213
computed normalized entropy=0.7453146308227511
SPLASH=splash10-0adi-8900000000-0199d0140db301102a71
submitter=submitter = University of Tokyo Team (Faculty of Engineering, University of Tokyo)
MoNA Rating=3.75

>  <NUM PEAKS>  (2724) 
25

>  <MASS SPECTRAL PEAKS>  (2724) 
26 1.08
27 10.87
29 9.54
39 7.01
41 12.13
43 1.29
50 7.45
51 22.71
52 1.36
55 3.18
56 23.47
57 1.64
74 1.47
75 1.36
76 2.82
77 54.74
78 3.83
79 7.29
105 99.99
106 8.51
122 15.97
123 57.37
124 3.62
135 1.01
178 1.2

$$$$

     RDKit          2D

 13 13  0  0  0  0  0  0  0  0999 V2000
   -5.8454    3.6946    0.0000 C   0  0  0  0  0  0  0  0  0  0  0  0
   -4.5464    1.4446    0.0000 C   0  0  0  0  0  0  0  0  0  0  0  0
    3.2478    1.4446    0.0000 C   0  0  0  0  0  0  0  0  0  0  0  0
    3.2483    2.9454    0.0000 C   0  0  0  0  0  0  0  0  0  0  0  0
    1.9483    0.6938    0.0000 C   0  0  0  0  0  0  0  0  0  0  0  0
    1.9493    3.6954    0.0000 C   0  0  0  0  0  0  0  0  0  0  0  0
    0.6493    1.4438    0.0000 C   0  0  0  0  0  0  0  0  0  0  0  0
   -3.2474    3.6946    0.0000 C   0  0  0  0  0  0  0  0  0  0  0  0
   -4.5464    2.9446    0.0000 C   0  0  0  0  0  0  0  0  0  0  0  0
    0.6498    2.9446    0.0000 C   0  0  0  0  0  0  0  0  0  0  0  0
   -0.6493    3.6946    0.0000 C   0  0  0  0  0  0  0  0  0  0  0  0
   -0.6493    5.1946    0.0000 O   0  0  0  0  0  0  0  0  0  0  0  0
   -1.9483    2.9446    0.0000 O   0  0  0  0  0  0  0  0  0  0  0  0
  4  3  2  0
  5  3  1  0
  6  4  1  0
  7  5  2  0
  9  1  1  0
  9  2  1  0
  9  8  1  0
 10  6  2  0
 10  7  1  0
 11 10  1  0
 12 11  2  0
 13  8  1  0
 13 11  1  0
M  END
>  <NAME>  (2725) 
2-METHYLPROPYL BENZOATE

>  <SYNONYMS>  (2725) 
ISOBUTYL BENZOATE

>  <SPECTRUM TYPE>  (2725) 
MS1

>  <INSTRUMENT TYPE>  (2725) 
EI-B

>  <INSTRUMENT>  (2725) 
HITACHI M-80B

>  <ION MODE>  (2725) 
P

>  <INCHIKEY>  (2725) 
KYZHGEFMXZOSJN-UHFFFAOYSA-N

>  <FORMULA>  (2725) 
C11H14O2

>  <EXACT MASS>  (2725) 
178.099379688

>  <MW>  (2725) 
178

>  <ID>  (2725) 
JP008486

>  <CONTRIBUTOR>  (2725) 
University of Tokyo Team, {Faculty of Engineering, University of Tokyo

>  <COMMENT>  (2725) 
SMILES=CC(C)COC(=O)c(c1)cccc1
InChI=InChI=1S/C11H14O2/c1-9(2)8-13-11(12)10-6-4-3-5-7-10/h3-7,9H,8H2,1-2H3
computed SMILES=O=C(OCC(C)C)C=1C=CC=CC1
accession=JP008486
date=2016.01.19 (Created 2008.10.21, modified 2011.05.06)
author=SODA AROMATIC CO., LTD.
license=CC BY-NC-SA
exact mass=178.09938
ionization energy=70 eV
ion type=[M]+*
computed spectral entropy=2.139448618897068
computed normalized entropy=0.7141654939541477
SPLASH=splash10-0a4i-7900000000-7905fa6f0a7dc13f612f
submitter=submitter = University of Tokyo Team (Faculty of Engineering, University of Tokyo)
MoNA Rating=3.75

>  <NUM PEAKS>  (2725) 
20

>  <MASS SPECTRAL PEAKS>  (2725) 
27 5.33
29 3.6
39 5.51
41 9.5
43 2.65
50 4.66
51 16.66
55 1.1
56 23.83
57 2.06
74 1.06
76 2.14
77 41.54
78 3.21
79 2.27
105 99.99
106 8.18
122 1.73
123 45.12
124 3.49

$$$$

     RDKit          2D

 12 12  0  0  0  0  0  0  0  0999 V2000
   -4.8712    2.0071    0.0000 C   0  0  0  0  0  0  0  0  0  0  0  0
   -3.5721    4.2571    0.0000 C   0  0  0  0  0  0  0  0  0  0  0  0
    2.9231    0.5071    0.0000 C   0  0  0  0  0  0  0  0  0  0  0  0
    2.9236    2.0079    0.0000 C   0  0  0  0  0  0  0  0  0  0  0  0
    1.6236   -0.2437    0.0000 C   0  0  0  0  0  0  0  0  0  0  0  0
    1.6245    2.7579    0.0000 C   0  0  0  0  0  0  0  0  0  0  0  0
    0.3245    0.5063    0.0000 C   0  0  0  0  0  0  0  0  0  0  0  0
   -3.5721    2.7571    0.0000 C   0  0  0  0  0  0  0  0  0  0  0  0
    0.3250    2.0071    0.0000 C   0  0  0  0  0  0  0  0  0  0  0  0
   -0.9740    2.7571    0.0000 C   0  0  0  0  0  0  0  0  0  0  0  0
   -0.9740    4.2571    0.0000 O   0  0  0  0  0  0  0  0  0  0  0  0
   -2.2731    2.0071    0.0000 O   0  0  0  0  0  0  0  0  0  0  0  0
  4  3  2  0
  5  3  1  0
  6  4  1  0
  7  5  2  0
  8  1  1  0
  8  2  1  0
  9  6  2  0
  9  7  1  0
 10  9  1  0
 11 10  2  0
 12  8  1  0
 12 10  1  0
M  END
>  <NAME>  (2726) 
1-METHYLETHYL BENZOATE

>  <SYNONYMS>  (2726) 
ISOPROPYL BENZOATE

>  <SPECTRUM TYPE>  (2726) 
MS1

>  <INSTRUMENT TYPE>  (2726) 
EI-B

>  <INSTRUMENT>  (2726) 
HITACHI M-80B

>  <ION MODE>  (2726) 
P

>  <INCHIKEY>  (2726) 
FEXQDZTYJVXMOS-UHFFFAOYSA-N

>  <FORMULA>  (2726) 
C10H12O2

>  <EXACT MASS>  (2726) 
164.083729624

>  <MW>  (2726) 
164

>  <ID>  (2726) 
JP008485

>  <CONTRIBUTOR>  (2726) 
University of Tokyo Team, {Faculty of Engineering, University of Tokyo

>  <COMMENT>  (2726) 
SMILES=CC(C)OC(=O)c(c1)cccc1
InChI=InChI=1S/C10H12O2/c1-8(2)12-10(11)9-6-4-3-5-7-9/h3-8H,1-2H3
computed SMILES=O=C(OC(C)C)C=1C=CC=CC1
accession=JP008485
date=2016.01.19 (Created 2008.10.21, modified 2011.05.06)
author=SODA AROMATIC CO., LTD.
license=CC BY-NC-SA
exact mass=164.08373
ionization energy=70 eV
ion type=[M]+*
computed spectral entropy=2.4833641447145456
computed normalized entropy=0.7622131866671447
SPLASH=splash10-0a4i-7900000000-6d9cfab68ff440cc7b25
submitter=submitter = University of Tokyo Team (Faculty of Engineering, University of Tokyo)
MoNA Rating=3.75

>  <NUM PEAKS>  (2726) 
26

>  <MASS SPECTRAL PEAKS>  (2726) 
15 1.23
27 7.73
32 1.22
39 6.49
41 9.68
42 2.42
43 15.86
50 6.77
51 20.96
52 1.43
59 19.61
74 1.75
75 1.45
76 2.78
77 41.66
78 4.44
79 2.9
105 99.99
106 11.32
122 18.46
123 27.76
124 2.01
146 1.02
149 1.76
164 11.89
165 1.22

$$$$

     RDKit          2D

 12 12  0  0  0  0  0  0  0  0999 V2000
   -5.5207    3.1321    0.0000 C   0  0  0  0  0  0  0  0  0  0  0  0
   -4.2216    2.3821    0.0000 C   0  0  0  0  0  0  0  0  0  0  0  0
    3.5726    0.8821    0.0000 C   0  0  0  0  0  0  0  0  0  0  0  0
    3.5731    2.3829    0.0000 C   0  0  0  0  0  0  0  0  0  0  0  0
    2.2731    0.1313    0.0000 C   0  0  0  0  0  0  0  0  0  0  0  0
    2.2740    3.1329    0.0000 C   0  0  0  0  0  0  0  0  0  0  0  0
    0.9740    0.8813    0.0000 C   0  0  0  0  0  0  0  0  0  0  0  0
   -2.9226    3.1321    0.0000 C   0  0  0  0  0  0  0  0  0  0  0  0
    0.9745    2.3821    0.0000 C   0  0  0  0  0  0  0  0  0  0  0  0
   -0.3245    3.1321    0.0000 C   0  0  0  0  0  0  0  0  0  0  0  0
   -0.3245    4.6321    0.0000 O   0  0  0  0  0  0  0  0  0  0  0  0
   -1.6236    2.3821    0.0000 O   0  0  0  0  0  0  0  0  0  0  0  0
  2  1  1  0
  4  3  2  0
  5  3  1  0
  6  4  1  0
  7  5  2  0
  8  2  1  0
  9  6  2  0
  9  7  1  0
 10  9  1  0
 11 10  2  0
 12  8  1  0
 12 10  1  0
M  END
>  <NAME>  (2727) 
PROPYL BENZOATE

>  <SYNONYMS>  (2727) 


>  <SPECTRUM TYPE>  (2727) 
MS1

>  <INSTRUMENT TYPE>  (2727) 
EI-B

>  <INSTRUMENT>  (2727) 
HITACHI M-80B

>  <ION MODE>  (2727) 
P

>  <INCHIKEY>  (2727) 
UDEWPOVQBGFNGE-UHFFFAOYSA-N

>  <FORMULA>  (2727) 
C10H12O2

>  <EXACT MASS>  (2727) 
164.083729624

>  <MW>  (2727) 
164

>  <ID>  (2727) 
JP008484

>  <CONTRIBUTOR>  (2727) 
University of Tokyo Team, {Faculty of Engineering, University of Tokyo

>  <COMMENT>  (2727) 
SMILES=CCCOC(=O)c(c1)cccc1
InChI=InChI=1S/C10H12O2/c1-2-8-12-10(11)9-6-4-3-5-7-9/h3-7H,2,8H2,1H3
computed SMILES=O=C(OCCC)C=1C=CC=CC1
accession=JP008484
date=2016.01.19 (Created 2008.10.21, modified 2011.05.06)
author=SODA AROMATIC CO., LTD.
license=CC BY-NC-SA
exact mass=164.08373
ionization energy=70 eV
ion type=[M]+*
computed spectral entropy=2.2574269130379943
computed normalized entropy=0.7199588828994362
SPLASH=splash10-0adi-6900000000-c444962e468bef6ef5f8
submitter=submitter = University of Tokyo Team (Faculty of Engineering, University of Tokyo)
MoNA Rating=3.75

>  <NUM PEAKS>  (2727) 
23

>  <MASS SPECTRAL PEAKS>  (2727) 
27 11.04
29 4.51
39 5.75
41 7.3
42 2.34
43 2.44
50 8.2
51 24.31
52 1.33
59 1.43
74 1.56
75 1.53
76 2.7
77 52.75
78 3.89
79 2.7
105 99.99
106 8.44
122 23.86
123 38.31
124 2.33
135 1.19
164 1.4

$$$$

     RDKit          2D

 12 12  0  0  0  0  0  0  0  0999 V2000
   -5.5207    3.1321    0.0000 C   0  0  0  0  0  0  0  0  0  0  0  0
   -4.2216    2.3821    0.0000 C   0  0  0  0  0  0  0  0  0  0  0  0
    3.5726    0.8821    0.0000 C   0  0  0  0  0  0  0  0  0  0  0  0
    3.5731    2.3829    0.0000 C   0  0  0  0  0  0  0  0  0  0  0  0
    2.2731    0.1313    0.0000 C   0  0  0  0  0  0  0  0  0  0  0  0
    2.2740    3.1329    0.0000 C   0  0  0  0  0  0  0  0  0  0  0  0
    0.9740    0.8813    0.0000 C   0  0  0  0  0  0  0  0  0  0  0  0
   -2.9226    3.1321    0.0000 C   0  0  0  0  0  0  0  0  0  0  0  0
    0.9745    2.3821    0.0000 C   0  0  0  0  0  0  0  0  0  0  0  0
   -0.3245    3.1321    0.0000 C   0  0  0  0  0  0  0  0  0  0  0  0
   -0.3245    4.6321    0.0000 O   0  0  0  0  0  0  0  0  0  0  0  0
   -1.6236    2.3821    0.0000 O   0  0  0  0  0  0  0  0  0  0  0  0
  2  1  2  0
  4  3  2  0
  5  3  1  0
  6  4  1  0
  7  5  2  0
  8  2  1  0
  9  6  2  0
  9  7  1  0
 10  9  1  0
 11 10  2  0
 12  8  1  0
 12 10  1  0
M  END
>  <NAME>  (2728) 
2-PROPENYL BENZOATE

>  <SYNONYMS>  (2728) 
ALLYL BENZOATE

>  <SPECTRUM TYPE>  (2728) 
MS1

>  <INSTRUMENT TYPE>  (2728) 
EI-B

>  <INSTRUMENT>  (2728) 
HITACHI M-80B

>  <ION MODE>  (2728) 
P

>  <INCHIKEY>  (2728) 
LYJHVEDILOKZCG-UHFFFAOYSA-N

>  <FORMULA>  (2728) 
C10H10O2

>  <EXACT MASS>  (2728) 
162.06807956

>  <MW>  (2728) 
162

>  <ID>  (2728) 
JP008483

>  <CONTRIBUTOR>  (2728) 
University of Tokyo Team, {Faculty of Engineering, University of Tokyo

>  <COMMENT>  (2728) 
SMILES=C=CCOC(=O)c(c1)cccc1
InChI=InChI=1S/C10H10O2/c1-2-8-12-10(11)9-6-4-3-5-7-9/h2-7H,1,8H2
computed SMILES=O=C(OCC=C)C=1C=CC=CC1
accession=JP008483
date=2016.01.19 (Created 2008.10.21, modified 2011.05.06)
author=SODA AROMATIC CO., LTD.
license=CC BY-NC-SA
exact mass=162.06808
ionization energy=70 eV
ion type=[M]+*
computed spectral entropy=1.781742562057152
computed normalized entropy=0.6426277896051624
SPLASH=splash10-0a4i-6900000000-ff25aa923c8a2f7b4cc1
submitter=submitter = University of Tokyo Team (Faculty of Engineering, University of Tokyo)
MoNA Rating=3.75

>  <NUM PEAKS>  (2728) 
16

>  <MASS SPECTRAL PEAKS>  (2728) 
26 1.1
27 2.78
38 1.2
39 8.6
41 7.52
50 5.65
51 16.88
74 1.43
75 1.22
76 1.9
77 38.27
78 2.67
105 99.99
106 8.2
117 2.81
162 5.06

$$$$

     RDKit          2D

 11 11  0  0  0  0  0  0  0  0999 V2000
   -4.8712    2.0071    0.0000 C   0  0  0  0  0  0  0  0  0  0  0  0
   -3.5721    2.7571    0.0000 C   0  0  0  0  0  0  0  0  0  0  0  0
    2.9231    0.5071    0.0000 C   0  0  0  0  0  0  0  0  0  0  0  0
    2.9236    2.0079    0.0000 C   0  0  0  0  0  0  0  0  0  0  0  0
    1.6236   -0.2437    0.0000 C   0  0  0  0  0  0  0  0  0  0  0  0
    1.6245    2.7579    0.0000 C   0  0  0  0  0  0  0  0  0  0  0  0
    0.3245    0.5063    0.0000 C   0  0  0  0  0  0  0  0  0  0  0  0
    0.3250    2.0071    0.0000 C   0  0  0  0  0  0  0  0  0  0  0  0
   -0.9740    2.7571    0.0000 C   0  0  0  0  0  0  0  0  0  0  0  0
   -0.9740    4.2571    0.0000 O   0  0  0  0  0  0  0  0  0  0  0  0
   -2.2731    2.0071    0.0000 O   0  0  0  0  0  0  0  0  0  0  0  0
  2  1  1  0
  4  3  2  0
  5  3  1  0
  6  4  1  0
  7  5  2  0
  8  6  2  0
  8  7  1  0
  9  8  1  0
 10  9  2  0
 11  2  1  0
 11  9  1  0
M  END
>  <NAME>  (2729) 
ETHYL BENZOATE

>  <SYNONYMS>  (2729) 


>  <SPECTRUM TYPE>  (2729) 
MS1

>  <INSTRUMENT TYPE>  (2729) 
EI-B

>  <INSTRUMENT>  (2729) 
HITACHI M-80B

>  <ION MODE>  (2729) 
P

>  <INCHIKEY>  (2729) 
MTZQAGJQAFMTAQ-UHFFFAOYSA-N

>  <FORMULA>  (2729) 
C9H10O2

>  <EXACT MASS>  (2729) 
150.06807956

>  <MW>  (2729) 
150

>  <ID>  (2729) 
JP008482

>  <CONTRIBUTOR>  (2729) 
University of Tokyo Team, {Faculty of Engineering, University of Tokyo

>  <COMMENT>  (2729) 
SMILES=CCOC(=O)c(c1)cccc1
InChI=InChI=1S/C9H10O2/c1-2-11-9(10)8-6-4-3-5-7-8/h3-7H,2H2,1H3
computed SMILES=O=C(OCC)C=1C=CC=CC1
accession=JP008482
date=2016.01.19 (Created 2008.10.21, modified 2011.05.06)
author=SODA AROMATIC CO., LTD.
license=CC BY-NC-SA
exact mass=150.06808
ionization energy=70 eV
ion type=[M]+*
computed spectral entropy=2.1199019313214165
computed normalized entropy=0.7076406493449657
SPLASH=splash10-0pdi-7900000000-da9006b983d81f077196
submitter=submitter = University of Tokyo Team (Faculty of Engineering, University of Tokyo)
MoNA Rating=3.75

>  <NUM PEAKS>  (2729) 
20

>  <MASS SPECTRAL PEAKS>  (2729) 
26 1.67
27 8.93
29 6.55
39 2.02
45 1.58
50 10.6
51 27.68
52 1.65
74 2.51
75 1.79
76 3.1
77 53.01
78 4.84
105 99.99
106 8.62
122 25.39
123 1.76
149 1.06
150 15.72
151 1.4

$$$$

     RDKit          2D

 10 10  0  0  0  0  0  0  0  0999 V2000
   -3.5724    2.0075    0.0000 C   0  0  0  0  0  0  0  0  0  0  0  0
    2.9228   -0.2425    0.0000 C   0  0  0  0  0  0  0  0  0  0  0  0
    2.9233    1.2583    0.0000 C   0  0  0  0  0  0  0  0  0  0  0  0
    1.6233   -0.9933    0.0000 C   0  0  0  0  0  0  0  0  0  0  0  0
    1.6243    2.0083    0.0000 C   0  0  0  0  0  0  0  0  0  0  0  0
    0.3243   -0.2433    0.0000 C   0  0  0  0  0  0  0  0  0  0  0  0
    0.3248    1.2575    0.0000 C   0  0  0  0  0  0  0  0  0  0  0  0
   -0.9743    2.0075    0.0000 C   0  0  0  0  0  0  0  0  0  0  0  0
   -0.9743    3.5075    0.0000 O   0  0  0  0  0  0  0  0  0  0  0  0
   -2.2733    1.2575    0.0000 O   0  0  0  0  0  0  0  0  0  0  0  0
  3  2  2  0
  4  2  1  0
  5  3  1  0
  6  4  2  0
  7  5  2  0
  7  6  1  0
  8  7  1  0
  9  8  2  0
 10  1  1  0
 10  8  1  0
M  END
>  <NAME>  (2730) 
METHYL BENZOATE

>  <SYNONYMS>  (2730) 


>  <SPECTRUM TYPE>  (2730) 
MS1

>  <INSTRUMENT TYPE>  (2730) 
EI-B

>  <INSTRUMENT>  (2730) 
HITACHI M-80B

>  <ION MODE>  (2730) 
P

>  <INCHIKEY>  (2730) 
QPJVMBTYPHYUOC-UHFFFAOYSA-N

>  <FORMULA>  (2730) 
C8H8O2

>  <EXACT MASS>  (2730) 
136.052429496

>  <MW>  (2730) 
136

>  <ID>  (2730) 
JP008481

>  <CONTRIBUTOR>  (2730) 
University of Tokyo Team, {Faculty of Engineering, University of Tokyo

>  <COMMENT>  (2730) 
SMILES=COC(=O)c(c1)cccc1
InChI=InChI=1S/C8H8O2/c1-10-8(9)7-5-3-2-4-6-7/h2-6H,1H3
computed SMILES=O=C(OC)C=1C=CC=CC1
accession=JP008481
date=2016.01.19 (Created 2008.10.21, modified 2011.05.06)
author=SODA AROMATIC CO., LTD.
license=CC BY-NC-SA
exact mass=136.05243
ionization energy=70 eV
ion type=[M]+*
computed spectral entropy=2.0656868388657754
computed normalized entropy=0.6784928937526297
SPLASH=splash10-0a6r-9800000000-898ce08cbfefd77e3d38
submitter=submitter = University of Tokyo Team (Faculty of Engineering, University of Tokyo)
MoNA Rating=3.75

>  <NUM PEAKS>  (2730) 
21

>  <MASS SPECTRAL PEAKS>  (2730) 
15 3.93
27 1.89
29 3.51
30 1.02
38 1.74
39 2.47
50 14.24
51 31.45
52 1.53
74 4.79
75 2.64
76 4.71
77 67.16
78 5.06
91 1.68
92 1.77
105 99.99
106 7.84
135 1.43
136 34.32
137 2.69

$$$$

     RDKit          2D

 11 10  0  0  0  0  0  0  0  0999 V2000
    2.1998    1.1115    0.0000 C   0  0  0  0  0  0  0  0  0  0  0  0
    5.5478    3.9106    0.0000 C   0  0  0  0  0  0  0  0  0  0  0  0
    4.0478    1.3125    0.0000 C   0  0  0  0  0  0  0  0  0  0  0  0
    6.0969    1.8615    0.0000 C   0  0  0  0  0  0  0  0  0  0  0  0
    0.9007    3.3615    0.0000 C   0  0  0  0  0  0  0  0  0  0  0  0
    3.4988    3.3615    0.0000 C   0  0  0  0  0  0  0  0  0  0  0  0
    2.1998    2.6115    0.0000 C   0  0  0  0  0  0  0  0  0  0  0  0
   -0.3983    2.6115    0.0000 C   0  0  0  0  0  0  0  0  0  0  0  0
    4.7978    2.6115    0.0000 C   0  0  0  0  0  0  0  0  0  0  0  0
   -0.3983    1.1115    0.0000 O   0  0  0  0  0  0  0  0  0  0  0  0
   -1.6974    3.3615    0.0000 O   0  0  0  0  0  0  0  0  0  0  0  0
  7  1  1  0
  7  5  1  0
  7  6  1  0
  8  5  1  0
  9  2  1  0
  9  3  1  0
  9  4  1  0
  9  6  1  0
 10  8  2  0
 11  8  1  0
M  END
>  <NAME>  (2731) 
3,5,5-TRIMETHYLHEXANOIC ACID

>  <SYNONYMS>  (2731) 


>  <SPECTRUM TYPE>  (2731) 
MS1

>  <INSTRUMENT TYPE>  (2731) 
EI-B

>  <INSTRUMENT>  (2731) 
HITACHI M-80B

>  <ION MODE>  (2731) 
P

>  <INCHIKEY>  (2731) 
OILUAKBAMVLXGF-UHFFFAOYSA-N

>  <FORMULA>  (2731) 
C9H18O2

>  <EXACT MASS>  (2731) 
158.130679816

>  <MW>  (2731) 
158

>  <ID>  (2731) 
JP008480

>  <CONTRIBUTOR>  (2731) 
University of Tokyo Team, {Faculty of Engineering, University of Tokyo

>  <COMMENT>  (2731) 
SMILES=OC(=O)CC(C)CC(C)(C)C
InChI=InChI=1S/C9H18O2/c1-7(5-8(10)11)6-9(2,3)4/h7H,5-6H2,1-4H3,(H,10,11)
computed SMILES=O=C(O)CC(C)CC(C)(C)C
accession=JP008480
date=2016.01.19 (Created 2008.10.21, modified 2011.05.06)
author=SODA AROMATIC CO., LTD.
license=CC BY-NC-SA
exact mass=158.13068
ionization energy=70 eV
ion type=[M]+*
computed spectral entropy=2.6564346478848835
computed normalized entropy=0.7888925660254668
SPLASH=splash10-0a4i-9000000000-69b52df2b795916fea4e
submitter=submitter = University of Tokyo Team (Faculty of Engineering, University of Tokyo)
MoNA Rating=3.75

>  <NUM PEAKS>  (2731) 
29

>  <MASS SPECTRAL PEAKS>  (2731) 
15 1.91
27 11.65
29 18.53
31 1.04
39 13.85
41 41.97
42 3.52
43 13.64
45 9.46
53 2.32
55 15.33
56 24.26
57 99.99
58 3.51
59 8.25
60 18.65
61 1.33
67 1.22
69 3.27
83 36.18
84 2.18
87 1.2
97 3.35
99 1.13
101 4.17
102 5.02
103 14.81
125 3.63
143 3.36

$$$$

     RDKit          2D

 19 18  0  0  0  0  0  0  0  0999 V2000
  -16.2380   10.1250    0.0000 C   0  0  0  0  0  0  0  0  0  0  0  0
    5.8457    9.3750    0.0000 C   0  0  0  0  0  0  0  0  0  0  0  0
  -14.9389    9.3750    0.0000 C   0  0  0  0  0  0  0  0  0  0  0  0
    4.5466   10.1250    0.0000 C   0  0  0  0  0  0  0  0  0  0  0  0
  -13.6399   10.1250    0.0000 C   0  0  0  0  0  0  0  0  0  0  0  0
    3.2476    9.3750    0.0000 C   0  0  0  0  0  0  0  0  0  0  0  0
  -12.3409    9.3750    0.0000 C   0  0  0  0  0  0  0  0  0  0  0  0
  -11.0418   10.1250    0.0000 C   0  0  0  0  0  0  0  0  0  0  0  0
   -9.7428    9.3750    0.0000 C   0  0  0  0  0  0  0  0  0  0  0  0
   -8.4437   10.1250    0.0000 C   0  0  0  0  0  0  0  0  0  0  0  0
   -7.1447    9.3750    0.0000 C   0  0  0  0  0  0  0  0  0  0  0  0
   -5.8457   10.1250    0.0000 C   0  0  0  0  0  0  0  0  0  0  0  0
   -4.5466    9.3750    0.0000 C   0  0  0  0  0  0  0  0  0  0  0  0
    1.9486   10.1250    0.0000 C   0  0  0  0  0  0  0  0  0  0  0  0
   -3.2476   10.1250    0.0000 C   0  0  0  0  0  0  0  0  0  0  0  0
    0.6495    9.3750    0.0000 C   0  0  0  0  0  0  0  0  0  0  0  0
   -1.9486    9.3750    0.0000 C   0  0  0  0  0  0  0  0  0  0  0  0
   -1.9486    7.8750    0.0000 O   0  0  0  0  0  0  0  0  0  0  0  0
   -0.6495   10.1250    0.0000 O   0  0  0  0  0  0  0  0  0  0  0  0
  3  1  1  0
  4  2  1  0
  5  3  1  0
  6  4  1  0
  7  5  1  0
  8  7  1  0
  9  8  1  0
 10  9  1  0
 11 10  1  0
 12 11  1  0
 13 12  1  0
 14  6  1  0
 15 13  1  0
 16 14  1  0
 17 15  1  0
 18 17  2  0
 19 16  1  0
 19 17  1  0
M  END
>  <NAME>  (2732) 
PENTYL DODECANOATE

>  <SYNONYMS>  (2732) 
AMYL LAURATE

>  <SPECTRUM TYPE>  (2732) 
MS1

>  <INSTRUMENT TYPE>  (2732) 
EI-B

>  <INSTRUMENT>  (2732) 
HITACHI M-80B

>  <ION MODE>  (2732) 
P

>  <INCHIKEY>  (2732) 
PQWBDPUBNMEITD-UHFFFAOYSA-N

>  <FORMULA>  (2732) 
C17H34O2

>  <EXACT MASS>  (2732) 
270.255880328

>  <MW>  (2732) 
270

>  <ID>  (2732) 
JP008479

>  <CONTRIBUTOR>  (2732) 
University of Tokyo Team, {Faculty of Engineering, University of Tokyo

>  <COMMENT>  (2732) 
SMILES=CCCCCCCCCCCC(=O)OCCCCC
InChI=InChI=1S/C17H34O2/c1-3-5-7-8-9-10-11-12-13-15-17(18)19-16-14-6-4-2/h3-16H2,1-2H3
computed SMILES=O=C(OCCCCC)CCCCCCCCCCC
accession=JP008479
date=2016.01.19 (Created 2008.10.21, modified 2011.05.06)
author=SODA AROMATIC CO., LTD.
license=CC BY-NC-SA
exact mass=270.25588
ionization energy=70 eV
ion type=[M]+*
computed spectral entropy=3.38911029349005
computed normalized entropy=0.8311659525175933
SPLASH=splash10-00dl-9110000000-2208ba8c96eba61bbbcc
submitter=submitter = University of Tokyo Team (Faculty of Engineering, University of Tokyo)
MoNA Rating=3.75

>  <NUM PEAKS>  (2732) 
59

>  <MASS SPECTRAL PEAKS>  (2732) 
14 3.08
18 3.08
27 12.2
29 16.43
31 4.89
32 4.85
39 7.41
41 39.12
42 25.06
43 66.82
44 4.67
45 2.75
53 3.48
54 1.28
55 36.41
56 6.69
57 24.49
58 2.4
59 1.01
60 16.17
61 15.51
67 3.76
68 2.96
69 14.21
70 99.99
71 25.72
72 1.23
73 18.15
74 3.01
81 2.63
82 2.08
83 7.45
84 5.32
85 8.58
87 4.93
89 1.17
95 3.21
97 6.2
98 4.7
99 2.41
101 2.08
102 4.25
109 2.65
111 2.93
112 1.15
115 7
129 6.05
130 6.57
131 1.76
143 4.94
157 4.57
171 2.37
183 20.68
184 3.61
199 1.21
200 6.96
201 42.46
202 6.77
270 3.87

$$$$

     RDKit          2D

 10  9  0  0  0  0  0  0  0  0999 V2000
    1.9486    3.3750    0.0000 C   0  0  0  0  0  0  0  0  0  0  0  0
    0.6495    1.1250    0.0000 C   0  0  0  0  0  0  0  0  0  0  0  0
   -5.8457    3.3750    0.0000 C   0  0  0  0  0  0  0  0  0  0  0  0
    0.6495    4.1250    0.0000 C   0  0  0  0  0  0  0  0  0  0  0  0
   -0.6495    1.8750    0.0000 C   0  0  0  0  0  0  0  0  0  0  0  0
   -4.5466    4.1250    0.0000 C   0  0  0  0  0  0  0  0  0  0  0  0
   -0.6495    3.3750    0.0000 C   0  0  0  0  0  0  0  0  0  0  0  0
   -1.9486    4.1250    0.0000 C   0  0  0  0  0  0  0  0  0  0  0  0
   -1.9486    5.6250    0.0000 O   0  0  0  0  0  0  0  0  0  0  0  0
   -3.2476    3.3750    0.0000 O   0  0  0  0  0  0  0  0  0  0  0  0
  4  1  1  0
  5  2  1  0
  6  3  1  0
  7  4  1  0
  7  5  1  0
  8  7  1  0
  9  8  2  0
 10  6  1  0
 10  8  1  0
M  END
>  <NAME>  (2733) 
ETHYL 2-ETHYLBUTYRATE

>  <SYNONYMS>  (2733) 


>  <SPECTRUM TYPE>  (2733) 
MS1

>  <INSTRUMENT TYPE>  (2733) 
EI-B

>  <INSTRUMENT>  (2733) 
HITACHI M-80B

>  <ION MODE>  (2733) 
P

>  <INCHIKEY>  (2733) 
MJGSLNIPTRPYJV-UHFFFAOYSA-N

>  <FORMULA>  (2733) 
C8H16O2

>  <EXACT MASS>  (2733) 
144.115029752

>  <MW>  (2733) 
144

>  <ID>  (2733) 
JP008478

>  <CONTRIBUTOR>  (2733) 
University of Tokyo Team, {Faculty of Engineering, University of Tokyo

>  <COMMENT>  (2733) 
SMILES=CCOC(=O)C(CC)CC
InChI=InChI=1S/C8H16O2/c1-4-7(5-2)8(9)10-6-3/h7H,4-6H2,1-3H3
computed SMILES=O=C(OCC)C(CC)CC
accession=JP008478
date=2016.01.19 (Created 2008.10.21, modified 2011.05.06)
author=SODA AROMATIC CO., LTD.
license=CC BY-NC-SA
exact mass=144.11503
ionization energy=70 eV
ion type=[M]+*
computed spectral entropy=2.850956391073634
computed normalized entropy=0.7955745288461943
SPLASH=splash10-00tf-9300000000-19a372f759d83e0a350a
submitter=submitter = University of Tokyo Team (Faculty of Engineering, University of Tokyo)
MoNA Rating=3.75

>  <NUM PEAKS>  (2733) 
36

>  <MASS SPECTRAL PEAKS>  (2733) 
15 1.48
26 1.86
27 27.53
29 45.44
30 1.25
31 1.71
39 14.22
41 27.43
42 8.21
43 96.98
44 2.54
45 9.68
53 2.4
55 24.25
56 1.82
57 1.58
59 1.52
69 5.26
70 11.07
71 82.78
72 4.29
73 22.2
74 1.54
83 1.05
87 22.98
88 18.43
89 2.19
99 41.41
100 2.79
101 39.2
102 3.05
115 23.8
116 99.99
117 10.59
129 3.83
144 1.11

$$$$

     RDKit          2D

 17 17  0  0  0  0  0  0  0  0999 V2000
    5.5216    5.0079    0.0000 C   0  0  0  0  0  0  0  0  0  0  0  0
    4.2226    4.2579    0.0000 C   0  0  0  0  0  0  0  0  0  0  0  0
    2.9236    5.0079    0.0000 C   0  0  0  0  0  0  0  0  0  0  0  0
  -10.0668    6.5079    0.0000 C   0  0  0  0  0  0  0  0  0  0  0  0
    1.6245    4.2579    0.0000 C   0  0  0  0  0  0  0  0  0  0  0  0
  -10.0673    5.0071    0.0000 C   0  0  0  0  0  0  0  0  0  0  0  0
   -8.7673    7.2587    0.0000 C   0  0  0  0  0  0  0  0  0  0  0  0
   -4.8707    5.0079    0.0000 C   0  0  0  0  0  0  0  0  0  0  0  0
   -8.7683    4.2571    0.0000 C   0  0  0  0  0  0  0  0  0  0  0  0
   -7.4683    6.5087    0.0000 C   0  0  0  0  0  0  0  0  0  0  0  0
   -6.1697    4.2579    0.0000 C   0  0  0  0  0  0  0  0  0  0  0  0
    0.3255    5.0079    0.0000 C   0  0  0  0  0  0  0  0  0  0  0  0
   -3.5716    4.2579    0.0000 C   0  0  0  0  0  0  0  0  0  0  0  0
   -7.4687    5.0079    0.0000 C   0  0  0  0  0  0  0  0  0  0  0  0
   -0.9736    4.2579    0.0000 C   0  0  0  0  0  0  0  0  0  0  0  0
   -0.9736    2.7579    0.0000 O   0  0  0  0  0  0  0  0  0  0  0  0
   -2.2726    5.0079    0.0000 O   0  0  0  0  0  0  0  0  0  0  0  0
  2  1  1  0
  3  2  1  0
  5  3  1  0
  6  4  2  0
  7  4  1  0
  9  6  1  0
 10  7  2  0
  8 11  2  0
 12  5  1  0
 13  8  1  0
 14  9  2  0
 14 10  1  0
 14 11  1  0
 15 12  1  0
 16 15  2  0
 17 13  1  0
 17 15  1  0
M  END
>  <NAME>  (2734) 
CINNAMYL HEXANOATE

>  <SYNONYMS>  (2734) 


>  <SPECTRUM TYPE>  (2734) 
MS1

>  <INSTRUMENT TYPE>  (2734) 
EI-B

>  <INSTRUMENT>  (2734) 
HITACHI M-80B

>  <ION MODE>  (2734) 
P

>  <INCHIKEY>  (2734) 
BHXVENZBMFLCKE-DHZHZOJOSA-N

>  <FORMULA>  (2734) 
C15H20O2

>  <EXACT MASS>  (2734) 
232.14632988

>  <MW>  (2734) 
232

>  <ID>  (2734) 
JP008477

>  <CONTRIBUTOR>  (2734) 
University of Tokyo Team, {Faculty of Engineering, University of Tokyo

>  <COMMENT>  (2734) 
SMILES=CCCCCC(=O)OCC=Cc(c1)cccc1
InChI=InChI=1S/C15H20O2/c1-2-3-5-12-15(16)17-13-8-11-14-9-6-4-7-10-14/h4,6-11H,2-3,5,12-13H2,1H3/b11-8+
computed SMILES=O=C(OCC=CC=1C=CC=CC1)CCCCC
accession=JP008477
date=2016.01.19 (Created 2008.10.21, modified 2011.05.06)
author=SODA AROMATIC CO., LTD.
license=CC BY-NC-SA
exact mass=232.14633
ionization energy=70 eV
ion type=[M]+*
computed spectral entropy=2.8248449375065356
computed normalized entropy=0.7823066061997354
SPLASH=splash10-014m-9400000000-5f892a0d4e1c3ce00577
submitter=submitter = University of Tokyo Team (Faculty of Engineering, University of Tokyo)
MoNA Rating=3.75

>  <NUM PEAKS>  (2734) 
37

>  <MASS SPECTRAL PEAKS>  (2734) 
27 7.53
29 8.26
39 8.77
41 11.69
42 2.78
43 52.29
50 1.11
51 4.62
55 6.46
56 1.02
63 2.07
65 2.73
69 1.37
71 43.18
72 1.88
76 1.01
77 7
78 3.92
79 1.42
89 1.97
91 14.98
92 4.71
99 99.99
100 5.97
102 1.92
103 3.18
104 2.26
105 4.59
115 40.75
116 20.23
117 47.64
118 5.2
131 1.73
133 15.68
134 9.06
232 10.74
233 1.51

$$$$

     RDKit          2D

 18 17  0  0  0  0  0  0  0  0999 V2000
    5.1962    6.7500    0.0000 C   0  0  0  0  0  0  0  0  0  0  0  0
   -9.0933   13.5000    0.0000 C   0  0  0  0  0  0  0  0  0  0  0  0
  -10.3923   11.2500    0.0000 C   0  0  0  0  0  0  0  0  0  0  0  0
   -7.7942    6.7500    0.0000 C   0  0  0  0  0  0  0  0  0  0  0  0
    3.8971    7.5000    0.0000 C   0  0  0  0  0  0  0  0  0  0  0  0
    2.5981    6.7500    0.0000 C   0  0  0  0  0  0  0  0  0  0  0  0
    1.2990    7.5000    0.0000 C   0  0  0  0  0  0  0  0  0  0  0  0
   -7.7942    9.7500    0.0000 C   0  0  0  0  0  0  0  0  0  0  0  0
   -7.7942   11.2500    0.0000 C   0  0  0  0  0  0  0  0  0  0  0  0
   -6.4952    9.0000    0.0000 C   0  0  0  0  0  0  0  0  0  0  0  0
    0.0000    6.7500    0.0000 C   0  0  0  0  0  0  0  0  0  0  0  0
   -5.1962    6.7500    0.0000 C   0  0  0  0  0  0  0  0  0  0  0  0
   -3.8971    7.5000    0.0000 C   0  0  0  0  0  0  0  0  0  0  0  0
   -9.0933   12.0000    0.0000 C   0  0  0  0  0  0  0  0  0  0  0  0
   -6.4952    7.5000    0.0000 C   0  0  0  0  0  0  0  0  0  0  0  0
   -1.2990    7.5000    0.0000 C   0  0  0  0  0  0  0  0  0  0  0  0
   -1.2990    9.0000    0.0000 O   0  0  0  0  0  0  0  0  0  0  0  0
   -2.5981    6.7500    0.0000 O   0  0  0  0  0  0  0  0  0  0  0  0
  5  1  1  0
  6  5  1  0
  7  6  1  0
  9  8  1  0
 10  8  1  0
 11  7  1  0
 13 12  1  0
 14  2  1  0
 14  3  1  0
 14  9  2  0
 15  4  1  0
 15 10  1  0
 12 15  2  0
 16 11  1  0
 17 16  2  0
 18 13  1  0
 18 16  1  0
M  END
>  <NAME>  (2735) 
(Z)-3,7-DIMETHYL-2,6-OCTADIENYL HEXANOATE

>  <SYNONYMS>  (2735) 
NERYL HEXANOATE

>  <SPECTRUM TYPE>  (2735) 
MS1

>  <INSTRUMENT TYPE>  (2735) 
EI-B

>  <INSTRUMENT>  (2735) 
HITACHI M-80B

>  <ION MODE>  (2735) 
P

>  <INCHIKEY>  (2735) 
ARVSCQUZFFSNKF-QINSGFPZSA-N

>  <FORMULA>  (2735) 
C16H28O2

>  <EXACT MASS>  (2735) 
252.208930136

>  <MW>  (2735) 
252

>  <ID>  (2735) 
JP008476

>  <CONTRIBUTOR>  (2735) 
University of Tokyo Team, {Faculty of Engineering, University of Tokyo

>  <COMMENT>  (2735) 
SMILES=CCCCCC(=O)OCC([H])=C(C)CCC=C(C)C
InChI=InChI=1S/C16H28O2/c1-5-6-7-11-16(17)18-13-12-15(4)10-8-9-14(2)3/h9,12H,5-8,10-11,13H2,1-4H3/b15-12-
computed SMILES=O=C(OCC=C(C)CCC=C(C)C)CCCCC
accession=JP008476
date=2016.01.19 (Created 2008.10.21, modified 2011.05.06)
author=SODA AROMATIC CO., LTD.
license=CC BY-NC-SA
exact mass=252.20893
ionization energy=70 eV
ion type=[M]+*
computed spectral entropy=3.1725488758114806
computed normalized entropy=0.8109739823639573
SPLASH=splash10-00kf-9100000000-14dc62fff3ebd1344615
submitter=submitter = University of Tokyo Team (Faculty of Engineering, University of Tokyo)
MoNA Rating=3.75

>  <NUM PEAKS>  (2735) 
50

>  <MASS SPECTRAL PEAKS>  (2735) 
27 13.9
29 12.93
39 13.69
40 2.23
41 66.66
42 6.67
43 37.31
45 1.92
51 1.71
52 1.22
53 13.31
54 1.43
55 11.86
56 1.99
57 1.66
60 10.37
65 2.28
66 1.57
67 16.97
68 60.37
69 99.99
70 6.25
71 17.18
73 5.43
77 6.21
78 1.11
79 7.91
80 31.85
81 15.34
82 1.66
83 1.18
84 2.15
85 1
87 1.24
91 6.55
92 16.11
93 75.46
94 12.15
95 4.39
99 25.97
100 1.27
105 2.12
107 8.73
108 2.36
121 28.79
122 2.16
123 2.21
136 19.52
137 4.16
154 2.01

$$$$

     RDKit          2D

 12 12  0  0  0  0  0  0  0  0999 V2000
   -1.8335    0.5083    0.0000 C   0  0  0  0  0  0  0  0  0  0  0  0
   -0.5353   -0.2431    0.0000 C   0  0  0  0  0  0  0  0  0  0  0  0
    7.5924    2.2989    0.0000 C   0  0  0  0  0  0  0  0  0  0  0  0
    0.7645    0.5056    0.0000 C   0  0  0  0  0  0  0  0  0  0  0  0
    6.1252    1.9870    0.0000 C   0  0  0  0  0  0  0  0  0  0  0  0
    8.3376    1.0055    0.0000 C   0  0  0  0  0  0  0  0  0  0  0  0
    4.6609   -0.2484    0.0000 C   0  0  0  0  0  0  0  0  0  0  0  0
    5.9607    0.5003    0.0000 C   0  0  0  0  0  0  0  0  0  0  0  0
    2.0628   -0.2457    0.0000 C   0  0  0  0  0  0  0  0  0  0  0  0
    2.0613   -1.7457    0.0000 O   0  0  0  0  0  0  0  0  0  0  0  0
    7.3370   -0.1068    0.0000 O   0  0  0  0  0  0  0  0  0  0  0  0
    3.3626    0.5030    0.0000 O   0  0  0  0  0  0  0  0  0  0  0  0
  2  1  1  0
  4  2  1  0
  5  3  1  0
  6  3  1  0
  8  5  1  0
  8  7  1  0
  9  4  1  0
 10  9  2  0
 11  6  1  0
 11  8  1  0
 12  7  1  0
 12  9  1  0
M  END
>  <NAME>  (2736) 
TETRAHYDROFURFURYL BUTYRATE

>  <SYNONYMS>  (2736) 


>  <SPECTRUM TYPE>  (2736) 
MS1

>  <INSTRUMENT TYPE>  (2736) 
EI-B

>  <INSTRUMENT>  (2736) 
HITACHI M-80B

>  <ION MODE>  (2736) 
P

>  <INCHIKEY>  (2736) 
DPZVDLFOAZNCBU-UHFFFAOYSA-N

>  <FORMULA>  (2736) 
C9H16O3

>  <EXACT MASS>  (2736) 
172.10994437199997

>  <MW>  (2736) 
172

>  <ID>  (2736) 
JP008475

>  <CONTRIBUTOR>  (2736) 
University of Tokyo Team, {Faculty of Engineering, University of Tokyo

>  <COMMENT>  (2736) 
SMILES=CCCC(=O)OCC(C1)OCC1
InChI=InChI=1S/C9H16O3/c1-2-4-9(10)12-7-8-5-3-6-11-8/h8H,2-7H2,1H3
computed SMILES=O=C(OCC1OCCC1)CCC
accession=JP008475
date=2016.01.19 (Created 2008.10.21, modified 2011.05.06)
author=SODA AROMATIC CO., LTD.
license=CC BY-NC-SA
exact mass=172.10994
ionization energy=70 eV
ion type=[M]+*
computed spectral entropy=1.6415668481510122
computed normalized entropy=0.6399997112518541
SPLASH=splash10-00di-9000000000-a9fd8fcc76090b5c73e9
submitter=submitter = University of Tokyo Team (Faculty of Engineering, University of Tokyo)
MoNA Rating=3.75

>  <NUM PEAKS>  (2736) 
13

>  <MASS SPECTRAL PEAKS>  (2736) 
27 7.83
29 3.44
39 3.92
41 12.38
42 5.33
43 32.85
44 1.28
55 2.3
70 2.11
71 99.99
72 4.04
84 12.58
85 1.47

$$$$

     RDKit          2D

 15 15  0  0  0  0  0  0  0  0999 V2000
   -7.7951   -1.5010    0.0000 C   0  0  0  0  0  0  0  0  0  0  0  0
    0.0000    3.0000    0.0000 C   0  0  0  0  0  0  0  0  0  0  0  0
    1.8127   -2.1596    0.0000 C   0  0  0  0  0  0  0  0  0  0  0  0
    2.7772   -0.4897    0.0000 C   0  0  0  0  0  0  0  0  0  0  0  0
   -6.4962   -0.7508    0.0000 C   0  0  0  0  0  0  0  0  0  0  0  0
   -5.1970   -1.5006    0.0000 C   0  0  0  0  0  0  0  0  0  0  0  0
   -1.3000    0.7500    0.0000 C   0  0  0  0  0  0  0  0  0  0  0  0
    1.3000    0.7500    0.0000 C   0  0  0  0  0  0  0  0  0  0  0  0
    0.0000   -1.5000    0.0000 C   0  0  0  0  0  0  0  0  0  0  0  0
    0.0000    1.5000    0.0000 C   0  0  0  0  0  0  0  0  0  0  0  0
   -1.3000   -0.7500    0.0000 C   0  0  0  0  0  0  0  0  0  0  0  0
   -3.8981   -0.7504    0.0000 C   0  0  0  0  0  0  0  0  0  0  0  0
    1.3000   -0.7500    0.0000 C   0  0  0  0  0  0  0  0  0  0  0  0
   -3.8983    0.7496    0.0000 O   0  0  0  0  0  0  0  0  0  0  0  0
   -2.5989   -1.5002    0.0000 O   0  0  0  0  0  0  0  0  0  0  0  0
  5  1  1  0
  6  5  1  0
 10  2  1  0
 10  7  1  0
 10  8  1  0
 11  7  1  0
 11  9  1  0
 12  6  1  0
 13  3  1  0
 13  4  1  0
 13  8  1  0
 13  9  1  0
 14 12  2  0
 15 11  1  0
 15 12  1  0
M  END
>  <NAME>  (2737) 
3,3,5-TRIMETHYLCYCLOHEXYL BUTYRATE

>  <SYNONYMS>  (2737) 


>  <SPECTRUM TYPE>  (2737) 
MS1

>  <INSTRUMENT TYPE>  (2737) 
EI-B

>  <INSTRUMENT>  (2737) 
HITACHI M-80B

>  <ION MODE>  (2737) 
P

>  <INCHIKEY>  (2737) 
UIFRJGOCMUXTRV-UHFFFAOYSA-N

>  <FORMULA>  (2737) 
C13H24O2

>  <EXACT MASS>  (2737) 
212.177630008

>  <MW>  (2737) 
212

>  <ID>  (2737) 
JP008474

>  <CONTRIBUTOR>  (2737) 
University of Tokyo Team, {Faculty of Engineering, University of Tokyo

>  <COMMENT>  (2737) 
SMILES=CCCC(=O)OC(C1)CC(C)(C)CC(C)1
InChI=InChI=1S/C13H24O2/c1-5-6-12(14)15-11-7-10(2)8-13(3,4)9-11/h10-11H,5-9H2,1-4H3
computed SMILES=O=C(OC1CC(C)CC(C)(C)C1)CCC
accession=JP008474
date=2016.01.19 (Created 2008.10.21, modified 2011.05.06)
author=SODA AROMATIC CO., LTD.
license=CC BY-NC-SA
exact mass=212.17763
ionization energy=70 eV
ion type=[M]+*
computed spectral entropy=3.0064321642307017
computed normalized entropy=0.8095795935094985
SPLASH=splash10-0avl-9300000000-fc3829aa139cdb6ad022
submitter=submitter = University of Tokyo Team (Faculty of Engineering, University of Tokyo)
MoNA Rating=3.75

>  <NUM PEAKS>  (2737) 
41

>  <MASS SPECTRAL PEAKS>  (2737) 
27 17.6
29 14.06
39 11.03
40 1.66
41 47.17
42 6.16
43 58.48
44 1.9
45 1.35
53 4.21
54 1.01
55 21.94
56 6.37
57 7.78
60 2.35
65 1.08
67 13.74
68 39.65
69 47.17
70 2.83
71 44.19
72 1.78
73 1.2
77 1.37
79 1.89
80 1.87
81 16.02
82 35.95
83 20.52
84 1.52
85 1.43
89 4.1
91 1.09
93 1.51
95 21.02
96 3.61
109 99.99
110 8.69
123 1.46
124 52.15
125 13.52

$$$$

     RDKit          2D

 12 12  0  0  0  0  0  0  0  0999 V2000
    6.1262    0.5408    0.0000 C   0  0  0  0  0  0  0  0  0  0  0  0
    4.8268    2.7906    0.0000 C   0  0  0  0  0  0  0  0  0  0  0  0
   -1.6700   -0.9600    0.0000 C   0  0  0  0  0  0  0  0  0  0  0  0
   -1.6700    0.5400    0.0000 C   0  0  0  0  0  0  0  0  0  0  0  0
   -0.3700   -1.7100    0.0000 C   0  0  0  0  0  0  0  0  0  0  0  0
   -0.3700    1.2900    0.0000 C   0  0  0  0  0  0  0  0  0  0  0  0
    0.9300   -0.9600    0.0000 C   0  0  0  0  0  0  0  0  0  0  0  0
    4.8270    1.2906    0.0000 C   0  0  0  0  0  0  0  0  0  0  0  0
    0.9300    0.5400    0.0000 C   0  0  0  0  0  0  0  0  0  0  0  0
    3.5281    0.5404    0.0000 C   0  0  0  0  0  0  0  0  0  0  0  0
    3.5283   -0.9596    0.0000 O   0  0  0  0  0  0  0  0  0  0  0  0
    2.2289    1.2902    0.0000 O   0  0  0  0  0  0  0  0  0  0  0  0
  4  3  1  0
  5  3  1  0
  6  4  1  0
  7  5  1  0
  8  1  1  0
  8  2  1  0
  9  6  1  0
  9  7  1  0
 10  8  1  0
 11 10  2  0
 12  9  1  0
 12 10  1  0
M  END
>  <NAME>  (2738) 
CYCLOHEXYL 2-METHYLPROPIONATE

>  <SYNONYMS>  (2738) 
CYCLOHEXYL ISOBUTYRATE

>  <SPECTRUM TYPE>  (2738) 
MS1

>  <INSTRUMENT TYPE>  (2738) 
EI-B

>  <INSTRUMENT>  (2738) 
HITACHI M-80B

>  <ION MODE>  (2738) 
P

>  <INCHIKEY>  (2738) 
IYYXBWAISHVFEX-UHFFFAOYSA-N

>  <FORMULA>  (2738) 
C10H18O2

>  <EXACT MASS>  (2738) 
170.130679816

>  <MW>  (2738) 
170

>  <ID>  (2738) 
JP008473

>  <CONTRIBUTOR>  (2738) 
University of Tokyo Team, {Faculty of Engineering, University of Tokyo

>  <COMMENT>  (2738) 
SMILES=CC(C)C(=O)OC(C1)CCCC1
InChI=InChI=1S/C10H18O2/c1-8(2)10(11)12-9-6-4-3-5-7-9/h8-9H,3-7H2,1-2H3
computed SMILES=O=C(OC1CCCCC1)C(C)C
accession=JP008473
date=2016.01.19 (Created 2008.10.21, modified 2011.05.06)
author=SODA AROMATIC CO., LTD.
license=CC BY-NC-SA
exact mass=170.13068
ionization energy=70 eV
ion type=[M]+*
computed spectral entropy=2.7932622291513565
computed normalized entropy=0.7856508507302651
SPLASH=splash10-0016-9000000000-f21f9c766a385cd8c337
submitter=submitter = University of Tokyo Team (Faculty of Engineering, University of Tokyo)
MoNA Rating=3.75

>  <NUM PEAKS>  (2738) 
35

>  <MASS SPECTRAL PEAKS>  (2738) 
15 1.67
26 1.27
27 29.29
28 4.36
29 13.79
31 1.12
39 22.05
40 3.82
41 57.71
42 11.05
43 99.99
44 7.62
45 1.38
53 5.97
54 14.71
55 64.44
56 4.98
57 10.21
67 37.1
68 1.81
70 1.83
71 57.9
72 2.39
73 1.46
79 1.43
81 9.87
82 57.22
83 93.98
84 6.34
86 1.53
88 2.14
89 62
90 2.37
99 2.89
127 4.43

$$$$

     RDKit          2D

 14 14  0  0  0  0  0  0  0  0999 V2000
   -0.3245    5.3821    0.0000 C   0  0  0  0  0  0  0  0  0  0  0  0
   -6.8197    3.1321    0.0000 C   0  0  0  0  0  0  0  0  0  0  0  0
    3.5726    1.6321    0.0000 C   0  0  0  0  0  0  0  0  0  0  0  0
    3.5731    3.1329    0.0000 C   0  0  0  0  0  0  0  0  0  0  0  0
    2.2731    0.8813    0.0000 C   0  0  0  0  0  0  0  0  0  0  0  0
    2.2740    3.8829    0.0000 C   0  0  0  0  0  0  0  0  0  0  0  0
    0.9740    1.6313    0.0000 C   0  0  0  0  0  0  0  0  0  0  0  0
   -1.6236    3.1321    0.0000 C   0  0  0  0  0  0  0  0  0  0  0  0
   -2.9226    3.8821    0.0000 C   0  0  0  0  0  0  0  0  0  0  0  0
   -0.3245    3.8821    0.0000 C   0  0  0  0  0  0  0  0  0  0  0  0
   -5.5207    3.8821    0.0000 C   0  0  0  0  0  0  0  0  0  0  0  0
    0.9745    3.1321    0.0000 C   0  0  0  0  0  0  0  0  0  0  0  0
   -5.5207    5.3821    0.0000 O   0  0  0  0  0  0  0  0  0  0  0  0
   -4.2216    3.1321    0.0000 O   0  0  0  0  0  0  0  0  0  0  0  0
  4  3  2  0
  5  3  1  0
  6  4  1  0
  7  5  2  0
  9  8  1  0
 10  1  2  0
 10  8  1  0
 11  2  1  0
 12  6  2  0
 12  7  1  0
 12 10  1  0
 13 11  2  0
 14  9  1  0
 14 11  1  0
M  END
>  <NAME>  (2739) 
3-PHENYL-3-BUTENYL ACETATE

>  <SYNONYMS>  (2739) 


>  <SPECTRUM TYPE>  (2739) 
MS1

>  <INSTRUMENT TYPE>  (2739) 
EI-B

>  <INSTRUMENT>  (2739) 
HITACHI M-80B

>  <ION MODE>  (2739) 
P

>  <INCHIKEY>  (2739) 
RIKRCGVPSVKZJW-UHFFFAOYSA-N

>  <FORMULA>  (2739) 
C12H14O2

>  <EXACT MASS>  (2739) 
190.099379688

>  <MW>  (2739) 
190

>  <ID>  (2739) 
JP008472

>  <CONTRIBUTOR>  (2739) 
University of Tokyo Team, {Faculty of Engineering, University of Tokyo

>  <COMMENT>  (2739) 
SMILES=CC(=O)OCCC(=C)c(c1)cccc1
InChI=InChI=1S/C12H14O2/c1-10(8-9-14-11(2)13)12-6-4-3-5-7-12/h3-7H,1,8-9H2,2H3
computed SMILES=O=C(OCCC(=C)C=1C=CC=CC1)C
accession=JP008472
date=2016.01.19 (Created 2008.10.21, modified 2011.05.06)
author=SODA AROMATIC CO., LTD.
license=CC BY-NC-SA
exact mass=190.09938
ionization energy=70 eV
ion type=[M]+*
computed spectral entropy=2.498131244756475
computed normalized entropy=0.6971167971091418
SPLASH=splash10-0036-6900000000-1e3c2c3c34ca47c4534f
submitter=submitter = University of Tokyo Team (Faculty of Engineering, University of Tokyo)
MoNA Rating=3.75

>  <NUM PEAKS>  (2739) 
36

>  <MASS SPECTRAL PEAKS>  (2739) 
15 3.21
27 2.11
39 5.83
41 1.94
42 1.4
43 98.18
44 2.23
50 2.42
51 9.17
52 1.88
53 1.34
63 3.81
65 3.68
73 1.28
74 1.09
75 1.55
76 1.84
77 10.19
78 5.08
79 1.19
89 1.79
91 16.32
92 1.23
102 6.43
103 6.68
115 33.36
116 6.21
117 3.79
118 2.09
119 1.16
127 1.85
128 6.86
129 53.36
130 99.99
131 12.15
190 1.83

$$$$

     RDKit          2D

 26 25  0  0  0  0  0  0  0  0999 V2000
    7.1447   12.3750    0.0000 C   0  0  0  0  0  0  0  0  0  0  0  0
  -21.4341   12.3750    0.0000 C   0  0  0  0  0  0  0  0  0  0  0  0
  -20.1351   14.6250    0.0000 C   0  0  0  0  0  0  0  0  0  0  0  0
  -14.9389   14.6250    0.0000 C   0  0  0  0  0  0  0  0  0  0  0  0
    5.8457   13.1250    0.0000 C   0  0  0  0  0  0  0  0  0  0  0  0
    4.5466   12.3750    0.0000 C   0  0  0  0  0  0  0  0  0  0  0  0
    3.2476   13.1250    0.0000 C   0  0  0  0  0  0  0  0  0  0  0  0
    1.9486   12.3750    0.0000 C   0  0  0  0  0  0  0  0  0  0  0  0
    0.6495   13.1250    0.0000 C   0  0  0  0  0  0  0  0  0  0  0  0
   -0.6495   12.3750    0.0000 C   0  0  0  0  0  0  0  0  0  0  0  0
   -1.9486   13.1250    0.0000 C   0  0  0  0  0  0  0  0  0  0  0  0
   -3.2476   12.3750    0.0000 C   0  0  0  0  0  0  0  0  0  0  0  0
   -4.5466   13.1250    0.0000 C   0  0  0  0  0  0  0  0  0  0  0  0
   -5.8457   12.3750    0.0000 C   0  0  0  0  0  0  0  0  0  0  0  0
   -7.1447   13.1250    0.0000 C   0  0  0  0  0  0  0  0  0  0  0  0
  -17.5370   13.1250    0.0000 C   0  0  0  0  0  0  0  0  0  0  0  0
  -18.8361   12.3750    0.0000 C   0  0  0  0  0  0  0  0  0  0  0  0
  -16.2380   12.3750    0.0000 C   0  0  0  0  0  0  0  0  0  0  0  0
   -8.4437   12.3750    0.0000 C   0  0  0  0  0  0  0  0  0  0  0  0
  -13.6399   12.3750    0.0000 C   0  0  0  0  0  0  0  0  0  0  0  0
  -12.3409   13.1250    0.0000 C   0  0  0  0  0  0  0  0  0  0  0  0
  -20.1351   13.1250    0.0000 C   0  0  0  0  0  0  0  0  0  0  0  0
  -14.9389   13.1250    0.0000 C   0  0  0  0  0  0  0  0  0  0  0  0
   -9.7428   13.1250    0.0000 C   0  0  0  0  0  0  0  0  0  0  0  0
   -9.7428   14.6250    0.0000 O   0  0  0  0  0  0  0  0  0  0  0  0
  -11.0418   12.3750    0.0000 O   0  0  0  0  0  0  0  0  0  0  0  0
  5  1  1  0
  6  5  1  0
  7  6  1  0
  8  7  1  0
  9  8  1  0
 10  9  1  0
 11 10  1  0
 12 11  1  0
 13 12  1  0
 14 13  1  0
 15 14  1  0
 17 16  1  0
 18 16  1  0
 19 15  1  0
 21 20  1  0
 22  2  1  0
 22  3  1  0
 22 17  2  0
 23  4  1  0
 23 18  1  0
 23 20  1  0
 24 19  1  0
 25 24  2  0
 26 21  1  0
 26 24  1  0
M  END
>  <NAME>  (2740) 
3,7-DIMETHYL-6-OCTENYL TETRADECANOATE

>  <SYNONYMS>  (2740) 
CITRONELLYL MYRISTATE

>  <SPECTRUM TYPE>  (2740) 
MS1

>  <INSTRUMENT TYPE>  (2740) 
EI-B

>  <INSTRUMENT>  (2740) 
HITACHI M-80B

>  <ION MODE>  (2740) 
P

>  <INCHIKEY>  (2740) 
MIBQSCZCOKDSJG-UHFFFAOYSA-N

>  <FORMULA>  (2740) 
C24H46O2

>  <EXACT MASS>  (2740) 
366.349780712

>  <MW>  (2740) 
366

>  <ID>  (2740) 
JP008471

>  <CONTRIBUTOR>  (2740) 
University of Tokyo Team, {Faculty of Engineering, University of Tokyo

>  <COMMENT>  (2740) 
SMILES=CCCCCCCCCCCCCC(=O)OCCC(C)CCC=C(C)C
InChI=InChI=1S/C24H46O2/c1-5-6-7-8-9-10-11-12-13-14-15-19-24(25)26-21-20-23(4)18-16-17-22(2)3/h17,23H,5-16,18-21H2,1-4H3
computed SMILES=O=C(OCCC(C)CCC=C(C)C)CCCCCCCCCCCCC
accession=JP008471
date=2016.01.19 (Created 2008.10.21, modified 2011.05.06)
author=SODA AROMATIC CO., LTD.
license=CC BY-NC-SA
exact mass=366.34978
ionization energy=70 eV
ion type=[M]+*
computed spectral entropy=3.1487517081147263
computed normalized entropy=0.813378509470958
SPLASH=splash10-05o3-9200000000-79da1250df89bc571df4
submitter=submitter = University of Tokyo Team (Faculty of Engineering, University of Tokyo)
MoNA Rating=3.75

>  <NUM PEAKS>  (2740) 
48

>  <MASS SPECTRAL PEAKS>  (2740) 
14 1.3
27 5.22
29 9.8
39 5.5
41 59.65
42 9.73
43 46.56
53 4.84
54 3.08
55 43.95
56 12.81
57 40.71
58 1.67
60 1.12
67 26.5
68 18.61
69 99.33
70 12.35
71 11.09
73 1.83
77 1.07
79 2.88
80 12.68
81 99.99
82 62.96
83 33.45
84 3.58
85 5.08
91 1.2
93 1.6
94 7.26
95 72.39
96 20.24
97 6.92
98 1.65
99 1.59
109 26.79
110 6.33
111 3.26
115 1.04
121 2.15
123 70.54
124 5.55
125 1.17
137 2.6
138 75.82
139 8.41
211 5.06

$$$$

     RDKit          2D

 19 18  0  0  0  0  0  0  0  0999 V2000
    4.8714    8.8125    0.0000 C   0  0  0  0  0  0  0  0  0  0  0  0
  -14.6142    9.5625    0.0000 C   0  0  0  0  0  0  0  0  0  0  0  0
  -13.3151    7.3125    0.0000 C   0  0  0  0  0  0  0  0  0  0  0  0
   -8.1190    7.3125    0.0000 C   0  0  0  0  0  0  0  0  0  0  0  0
    3.5724    9.5625    0.0000 C   0  0  0  0  0  0  0  0  0  0  0  0
    2.2733    8.8125    0.0000 C   0  0  0  0  0  0  0  0  0  0  0  0
    0.9743    9.5625    0.0000 C   0  0  0  0  0  0  0  0  0  0  0  0
   -0.3248    8.8125    0.0000 C   0  0  0  0  0  0  0  0  0  0  0  0
  -10.7171    8.8125    0.0000 C   0  0  0  0  0  0  0  0  0  0  0  0
  -12.0161    9.5625    0.0000 C   0  0  0  0  0  0  0  0  0  0  0  0
   -9.4180    9.5625    0.0000 C   0  0  0  0  0  0  0  0  0  0  0  0
   -1.6238    9.5625    0.0000 C   0  0  0  0  0  0  0  0  0  0  0  0
   -6.8200    9.5625    0.0000 C   0  0  0  0  0  0  0  0  0  0  0  0
   -5.5209    8.8125    0.0000 C   0  0  0  0  0  0  0  0  0  0  0  0
  -13.3151    8.8125    0.0000 C   0  0  0  0  0  0  0  0  0  0  0  0
   -8.1190    8.8125    0.0000 C   0  0  0  0  0  0  0  0  0  0  0  0
   -2.9228    8.8125    0.0000 C   0  0  0  0  0  0  0  0  0  0  0  0
   -2.9228    7.3125    0.0000 O   0  0  0  0  0  0  0  0  0  0  0  0
   -4.2219    9.5625    0.0000 O   0  0  0  0  0  0  0  0  0  0  0  0
  5  1  1  0
  6  5  1  0
  7  6  1  0
  8  7  1  0
 10  9  1  0
 11  9  1  0
 12  8  1  0
 14 13  1  0
 15  2  1  0
 15  3  1  0
 15 10  2  0
 16  4  1  0
 16 11  1  0
 13 16  2  0
 17 12  1  0
 18 17  2  0
 19 14  1  0
 19 17  1  0
M  END
>  <NAME>  (2741) 
(E)-3,7-DIMETHYL-2,6-OCTADIENYL HEPTANOATE

>  <SYNONYMS>  (2741) 
GERANYL HEPTANOATE

>  <SPECTRUM TYPE>  (2741) 
MS1

>  <INSTRUMENT TYPE>  (2741) 
EI-B

>  <INSTRUMENT>  (2741) 
HITACHI M-80B

>  <ION MODE>  (2741) 
P

>  <INCHIKEY>  (2741) 
NSMHPPLPBQPIQJ-DTQAZKPQSA-N

>  <FORMULA>  (2741) 
C17H30O2

>  <EXACT MASS>  (2741) 
266.2245802

>  <MW>  (2741) 
266

>  <ID>  (2741) 
JP008470

>  <CONTRIBUTOR>  (2741) 
University of Tokyo Team, {Faculty of Engineering, University of Tokyo

>  <COMMENT>  (2741) 
SMILES=CCCCCCC(=O)OCC([H])=C(C)CCC=C(C)C
InChI=InChI=1S/C17H30O2/c1-5-6-7-8-12-17(18)19-14-13-16(4)11-9-10-15(2)3/h10,13H,5-9,11-12,14H2,1-4H3/b16-13+
computed SMILES=O=C(OCC=C(C)CCC=C(C)C)CCCCCC
accession=JP008470
date=2016.01.19 (Created 2008.10.21, modified 2011.05.06)
author=SODA AROMATIC CO., LTD.
license=CC BY-NC-SA
exact mass=266.22458
ionization energy=70 eV
ion type=[M]+*
computed spectral entropy=3.1717051737531214
computed normalized entropy=0.8066749317048112
SPLASH=splash10-014l-9100000000-4ed7291b21466f25084d
submitter=submitter = University of Tokyo Team (Faculty of Engineering, University of Tokyo)
MoNA Rating=3.75

>  <NUM PEAKS>  (2741) 
51

>  <MASS SPECTRAL PEAKS>  (2741) 
27 12.35
29 12.01
39 12.37
41 64.03
42 5.42
43 40.31
45 1.86
51 1.83
52 1.19
53 11.22
54 1.21
55 12.63
56 1.89
57 5.36
60 11.1
61 1.18
65 2.4
66 1.42
67 14.16
68 56.49
69 99.99
70 7.13
71 1.54
73 5.27
77 5.79
78 1.05
79 7.79
80 22.4
81 10.62
82 1.37
83 1.62
84 1.78
85 10.07
87 1.81
91 6.37
92 12.96
93 60.41
94 9.53
95 3.85
105 1.97
107 7.55
108 2.44
113 22.16
114 1.24
121 24.17
122 1.88
123 2.68
136 17.39
137 2.45
154 1.6
197 1.01

$$$$

     RDKit          2D

 19 18  0  0  0  0  0  0  0  0999 V2000
    2.2733    8.8125    0.0000 C   0  0  0  0  0  0  0  0  0  0  0  0
  -13.3151    2.8125    0.0000 C   0  0  0  0  0  0  0  0  0  0  0  0
  -14.6142    5.0625    0.0000 C   0  0  0  0  0  0  0  0  0  0  0  0
  -12.0161    9.5625    0.0000 C   0  0  0  0  0  0  0  0  0  0  0  0
    0.9743    9.5625    0.0000 C   0  0  0  0  0  0  0  0  0  0  0  0
   -0.3248    8.8125    0.0000 C   0  0  0  0  0  0  0  0  0  0  0  0
   -1.6238    9.5625    0.0000 C   0  0  0  0  0  0  0  0  0  0  0  0
   -2.9228    8.8125    0.0000 C   0  0  0  0  0  0  0  0  0  0  0  0
  -12.0161    6.5625    0.0000 C   0  0  0  0  0  0  0  0  0  0  0  0
  -12.0161    5.0625    0.0000 C   0  0  0  0  0  0  0  0  0  0  0  0
  -10.7171    7.3125    0.0000 C   0  0  0  0  0  0  0  0  0  0  0  0
   -4.2219    9.5625    0.0000 C   0  0  0  0  0  0  0  0  0  0  0  0
   -9.4180    9.5625    0.0000 C   0  0  0  0  0  0  0  0  0  0  0  0
   -8.1190    8.8125    0.0000 C   0  0  0  0  0  0  0  0  0  0  0  0
  -13.3151    4.3125    0.0000 C   0  0  0  0  0  0  0  0  0  0  0  0
  -10.7171    8.8125    0.0000 C   0  0  0  0  0  0  0  0  0  0  0  0
   -5.5209    8.8125    0.0000 C   0  0  0  0  0  0  0  0  0  0  0  0
   -5.5209    7.3125    0.0000 O   0  0  0  0  0  0  0  0  0  0  0  0
   -6.8200    9.5625    0.0000 O   0  0  0  0  0  0  0  0  0  0  0  0
  5  1  1  0
  6  5  1  0
  7  6  1  0
  8  7  1  0
 10  9  1  0
 11  9  1  0
 12  8  1  0
 14 13  1  0
 15  2  1  0
 15  3  1  0
 15 10  2  0
 16  4  1  0
 16 11  1  0
 13 16  2  0
 17 12  1  0
 18 17  2  0
 19 14  1  0
 19 17  1  0
M  END
>  <NAME>  (2742) 
(Z)-3,7-DIMETHYL-2,6-OCTADIENYL HEPTANOATE

>  <SYNONYMS>  (2742) 
NERYL HEPTANOATE

>  <SPECTRUM TYPE>  (2742) 
MS1

>  <INSTRUMENT TYPE>  (2742) 
EI-B

>  <INSTRUMENT>  (2742) 
HITACHI M-80B

>  <ION MODE>  (2742) 
P

>  <INCHIKEY>  (2742) 
NSMHPPLPBQPIQJ-SSZFMOIBSA-N

>  <FORMULA>  (2742) 
C17H30O2

>  <EXACT MASS>  (2742) 
266.2245802

>  <MW>  (2742) 
266

>  <ID>  (2742) 
JP008469

>  <CONTRIBUTOR>  (2742) 
University of Tokyo Team, {Faculty of Engineering, University of Tokyo

>  <COMMENT>  (2742) 
SMILES=CCCCCCC(=O)OCC([H])=C(C)CCC=C(C)C
InChI=InChI=1S/C17H30O2/c1-5-6-7-8-12-17(18)19-14-13-16(4)11-9-10-15(2)3/h10,13H,5-9,11-12,14H2,1-4H3/b16-13-
computed SMILES=O=C(OCC=C(C)CCC=C(C)C)CCCCCC
accession=JP008469
date=2016.01.19 (Created 2008.10.21, modified 2011.05.06)
author=SODA AROMATIC CO., LTD.
license=CC BY-NC-SA
exact mass=266.22458
ionization energy=70 eV
ion type=[M]+*
computed spectral entropy=3.126378836142006
computed normalized entropy=0.8075991991458986
SPLASH=splash10-00kf-9100000000-1d8a6188844e6c8449f4
submitter=submitter = University of Tokyo Team (Faculty of Engineering, University of Tokyo)
MoNA Rating=3.75

>  <NUM PEAKS>  (2742) 
48

>  <MASS SPECTRAL PEAKS>  (2742) 
27 12.21
29 10.69
39 13.72
41 67.46
42 5.41
43 40.56
44 1.07
45 1.2
51 1.83
52 1.21
53 13.56
54 1.36
55 11.6
56 1.74
57 5.52
60 2.94
65 2.44
66 1.54
67 18.63
68 64.08
69 99.99
70 6.63
73 1.62
77 6.76
78 1.38
79 9.7
80 35.85
81 17.42
82 1.8
83 1.69
84 2.35
85 10.11
91 7.31
92 19.08
93 88.61
94 14.38
95 6.09
105 2.51
107 10.23
108 2.66
113 20.55
114 1.49
121 31.64
122 2.56
123 2.42
136 21.36
137 4.61
154 2.44

$$$$

     RDKit          2D

 17 16  0  0  0  0  0  0  0  0999 V2000
    4.2219    6.1875    0.0000 C   0  0  0  0  0  0  0  0  0  0  0  0
    2.9228    8.4375    0.0000 C   0  0  0  0  0  0  0  0  0  0  0  0
  -11.3666    6.1875    0.0000 C   0  0  0  0  0  0  0  0  0  0  0  0
  -10.0675    8.4375    0.0000 C   0  0  0  0  0  0  0  0  0  0  0  0
   -2.2733    8.4375    0.0000 C   0  0  0  0  0  0  0  0  0  0  0  0
    0.3248    6.9375    0.0000 C   0  0  0  0  0  0  0  0  0  0  0  0
    1.6238    6.1875    0.0000 C   0  0  0  0  0  0  0  0  0  0  0  0
   -0.9743    6.1875    0.0000 C   0  0  0  0  0  0  0  0  0  0  0  0
   -3.5724    6.1875    0.0000 C   0  0  0  0  0  0  0  0  0  0  0  0
   -4.8714    6.9375    0.0000 C   0  0  0  0  0  0  0  0  0  0  0  0
   -8.7685    6.1875    0.0000 C   0  0  0  0  0  0  0  0  0  0  0  0
    2.9228    6.9375    0.0000 C   0  0  0  0  0  0  0  0  0  0  0  0
  -10.0675    6.9375    0.0000 C   0  0  0  0  0  0  0  0  0  0  0  0
   -2.2733    6.9375    0.0000 C   0  0  0  0  0  0  0  0  0  0  0  0
   -7.4695    6.9375    0.0000 C   0  0  0  0  0  0  0  0  0  0  0  0
   -7.4695    8.4375    0.0000 O   0  0  0  0  0  0  0  0  0  0  0  0
   -6.1704    6.1875    0.0000 O   0  0  0  0  0  0  0  0  0  0  0  0
  7  6  1  0
  8  6  1  0
 10  9  1  0
 12  1  1  0
 12  2  1  0
 12  7  2  0
 13  3  1  0
 13  4  1  0
 13 11  1  0
 14  5  1  0
 14  8  1  0
 14  9  1  0
 15 11  1  0
 16 15  2  0
 17 10  1  0
 17 15  1  0
M  END
>  <NAME>  (2743) 
3,7-DIMETHYL-6-OCTENYL 3-METHYLBUTYRATE

>  <SYNONYMS>  (2743) 
CITRONELLYL ISOVALERATE

>  <SPECTRUM TYPE>  (2743) 
MS1

>  <INSTRUMENT TYPE>  (2743) 
EI-B

>  <INSTRUMENT>  (2743) 
HITACHI M-80B

>  <ION MODE>  (2743) 
P

>  <INCHIKEY>  (2743) 
WZTNQQJXPYEGAF-UHFFFAOYSA-N

>  <FORMULA>  (2743) 
C15H28O2

>  <EXACT MASS>  (2743) 
240.208930136

>  <MW>  (2743) 
240

>  <ID>  (2743) 
JP008468

>  <CONTRIBUTOR>  (2743) 
University of Tokyo Team, {Faculty of Engineering, University of Tokyo

>  <COMMENT>  (2743) 
SMILES=CC(C)=CCCC(C)CCOC(=O)CC(C)C
InChI=InChI=1S/C15H28O2/c1-12(2)7-6-8-14(5)9-10-17-15(16)11-13(3)4/h7,13-14H,6,8-11H2,1-5H3
computed SMILES=O=C(OCCC(C)CCC=C(C)C)CC(C)C
accession=JP008468
date=2016.01.19 (Created 2008.10.21, modified 2011.05.06)
author=SODA AROMATIC CO., LTD.
license=CC BY-NC-SA
exact mass=240.20893
ionization energy=70 eV
ion type=[M]+*
computed spectral entropy=3.5972788894579963
computed normalized entropy=0.8617501580173061
SPLASH=splash10-05o3-9100000000-a9a3921ca5e9af8873b4
submitter=submitter = University of Tokyo Team (Faculty of Engineering, University of Tokyo)
MoNA Rating=3.75

>  <NUM PEAKS>  (2743) 
65

>  <MASS SPECTRAL PEAKS>  (2743) 
17 5.93
18 21.82
20 2.2
27 19.97
28 20.04
29 14.66
30 1.86
31 2.55
32 12.52
34 4.66
41 99.99
42 17.02
43 24.64
44 6.45
45 4.4
51 2.9
52 2.19
53 15.61
54 7.31
55 46.43
56 18.89
57 55.32
58 5.68
59 5.88
60 2.26
61 2.01
63 1.92
65 5.69
66 2.28
67 43.68
68 30.41
69 81.21
70 11.33
71 5.14
77 3.91
79 9.24
80 10.07
81 75.91
82 58.85
83 20.8
84 5.63
85 37.42
86 2.27
91 8.67
93 8.19
94 8.74
95 64.21
96 17.61
97 6.3
103 3.41
107 5.25
108 2.17
109 29.45
110 9.95
111 2.82
119 4.51
120 6.97
122 1.81
123 54.76
124 8.3
134 1.87
137 8.65
138 29.09
139 7.03
152 6.48

$$$$

     RDKit          2D

 19 18  0  0  0  0  0  0  0  0999 V2000
  -15.5885    9.0000    0.0000 C   0  0  0  0  0  0  0  0  0  0  0  0
    5.1962    9.0000    0.0000 C   0  0  0  0  0  0  0  0  0  0  0  0
    3.8971    6.7500    0.0000 C   0  0  0  0  0  0  0  0  0  0  0  0
  -14.2894    8.2500    0.0000 C   0  0  0  0  0  0  0  0  0  0  0  0
  -12.9904    9.0000    0.0000 C   0  0  0  0  0  0  0  0  0  0  0  0
  -11.6913    8.2500    0.0000 C   0  0  0  0  0  0  0  0  0  0  0  0
  -10.3923    9.0000    0.0000 C   0  0  0  0  0  0  0  0  0  0  0  0
   -9.0933    8.2500    0.0000 C   0  0  0  0  0  0  0  0  0  0  0  0
   -7.7942    9.0000    0.0000 C   0  0  0  0  0  0  0  0  0  0  0  0
   -6.4952    8.2500    0.0000 C   0  0  0  0  0  0  0  0  0  0  0  0
   -5.1962    9.0000    0.0000 C   0  0  0  0  0  0  0  0  0  0  0  0
   -3.8971    8.2500    0.0000 C   0  0  0  0  0  0  0  0  0  0  0  0
   -2.5981    9.0000    0.0000 C   0  0  0  0  0  0  0  0  0  0  0  0
   -1.2990    8.2500    0.0000 C   0  0  0  0  0  0  0  0  0  0  0  0
    2.5981    9.0000    0.0000 C   0  0  0  0  0  0  0  0  0  0  0  0
    3.8971    8.2500    0.0000 C   0  0  0  0  0  0  0  0  0  0  0  0
    1.2990    8.2500    0.0000 C   0  0  0  0  0  0  0  0  0  0  0  0
    1.2990    6.7500    0.0000 O   0  0  0  0  0  0  0  0  0  0  0  0
    0.0000    9.0000    0.0000 O   0  0  0  0  0  0  0  0  0  0  0  0
  4  1  1  0
  5  4  1  0
  6  5  1  0
  7  6  1  0
  8  7  1  0
  9  8  1  0
 10  9  1  0
 11 10  1  0
 12 11  1  0
 13 12  1  0
 14 13  1  0
 16  2  1  0
 16  3  1  0
 16 15  1  0
 17 15  1  0
 18 17  2  0
 19 14  1  0
 19 17  1  0
M  END
>  <NAME>  (2744) 
DODECYL 3-METHYLBUTYRATE

>  <SYNONYMS>  (2744) 
DODECYL ISOVALERATE

>  <SPECTRUM TYPE>  (2744) 
MS1

>  <INSTRUMENT TYPE>  (2744) 
EI-B

>  <INSTRUMENT>  (2744) 
HITACHI M-80B

>  <ION MODE>  (2744) 
P

>  <INCHIKEY>  (2744) 
DEHIFZZMFPRYNH-UHFFFAOYSA-N

>  <FORMULA>  (2744) 
C17H34O2

>  <EXACT MASS>  (2744) 
270.255880328

>  <MW>  (2744) 
270

>  <ID>  (2744) 
JP008467

>  <CONTRIBUTOR>  (2744) 
University of Tokyo Team, {Faculty of Engineering, University of Tokyo

>  <COMMENT>  (2744) 
SMILES=CCCCCCCCCCCCOC(=O)CC(C)C
InChI=InChI=1S/C17H34O2/c1-4-5-6-7-8-9-10-11-12-13-14-19-17(18)15-16(2)3/h16H,4-15H2,1-3H3
computed SMILES=O=C(OCCCCCCCCCCCC)CC(C)C
accession=JP008467
date=2016.01.19 (Created 2008.10.21, modified 2011.05.06)
author=SODA AROMATIC CO., LTD.
license=CC BY-NC-SA
exact mass=270.25588
ionization energy=70 eV
ion type=[M]+*
computed spectral entropy=3.2584511589742235
computed normalized entropy=0.8372563246448232
SPLASH=splash10-0pbc-9200000000-f00bd0addee7ce52171c
submitter=submitter = University of Tokyo Team (Faculty of Engineering, University of Tokyo)
MoNA Rating=3.75

>  <NUM PEAKS>  (2744) 
49

>  <MASS SPECTRAL PEAKS>  (2744) 
27 9.91
29 26.1
39 8.23
41 57.42
42 15.25
43 62.33
44 1.73
45 1.13
53 2.2
54 5.81
55 43.66
56 31.54
57 87.57
58 3.74
59 2.37
60 6.69
61 9.13
67 6.36
68 10.34
69 31.45
70 26.93
71 19.42
81 2.33
82 13.88
83 29.62
84 20.21
85 64.49
86 2.8
87 7.92
96 6.63
97 23.89
98 12.12
99 1.82
101 1.17
102 7.06
103 99.99
104 4.88
110 2.13
111 13.72
112 6.97
113 1.2
125 6.04
126 2.88
139 1.58
140 9.75
158 2
168 16.27
169 1.93
213 1.36

$$$$

     RDKit          2D

 15 15  0  0  0  0  0  0  0  0999 V2000
   -6.8197    3.1321    0.0000 C   0  0  0  0  0  0  0  0  0  0  0  0
   -5.5207    5.3821    0.0000 C   0  0  0  0  0  0  0  0  0  0  0  0
   -0.3245    5.3821    0.0000 C   0  0  0  0  0  0  0  0  0  0  0  0
    3.5726    1.6321    0.0000 C   0  0  0  0  0  0  0  0  0  0  0  0
    3.5731    3.1329    0.0000 C   0  0  0  0  0  0  0  0  0  0  0  0
    2.2731    0.8813    0.0000 C   0  0  0  0  0  0  0  0  0  0  0  0
    2.2740    3.8829    0.0000 C   0  0  0  0  0  0  0  0  0  0  0  0
    0.9740    1.6313    0.0000 C   0  0  0  0  0  0  0  0  0  0  0  0
   -4.2216    3.1321    0.0000 C   0  0  0  0  0  0  0  0  0  0  0  0
   -5.5207    3.8821    0.0000 C   0  0  0  0  0  0  0  0  0  0  0  0
   -0.3245    3.8821    0.0000 C   0  0  0  0  0  0  0  0  0  0  0  0
    0.9745    3.1321    0.0000 C   0  0  0  0  0  0  0  0  0  0  0  0
   -2.9226    3.8821    0.0000 C   0  0  0  0  0  0  0  0  0  0  0  0
   -2.9226    5.3821    0.0000 O   0  0  0  0  0  0  0  0  0  0  0  0
   -1.6236    3.1321    0.0000 O   0  0  0  0  0  0  0  0  0  0  0  0
  5  4  2  0
  6  4  1  0
  7  5  1  0
  8  6  2  0
 10  1  1  0
 10  2  1  0
 10  9  1  0
 11  3  1  0
 12  7  2  0
 12  8  1  0
 12 11  1  0
 13  9  1  0
 14 13  2  0
 15 11  1  0
 15 13  1  0
M  END
>  <NAME>  (2745) 
1-PHENYLETHYL 3-METHYLBUTYRATE

>  <SYNONYMS>  (2745) 
METHYL PHENYL CARBINYL ISOVALERATE

>  <SPECTRUM TYPE>  (2745) 
MS1

>  <INSTRUMENT TYPE>  (2745) 
EI-B

>  <INSTRUMENT>  (2745) 
HITACHI M-80B

>  <ION MODE>  (2745) 
P

>  <INCHIKEY>  (2745) 
WYWVAOQKWGNZHN-UHFFFAOYSA-N

>  <FORMULA>  (2745) 
C13H18O2

>  <EXACT MASS>  (2745) 
206.130679816

>  <MW>  (2745) 
206

>  <ID>  (2745) 
JP008466

>  <CONTRIBUTOR>  (2745) 
University of Tokyo Team, {Faculty of Engineering, University of Tokyo

>  <COMMENT>  (2745) 
SMILES=CC(C)CC(=O)OC(C)c(c1)cccc1
InChI=InChI=1S/C13H18O2/c1-10(2)9-13(14)15-11(3)12-7-5-4-6-8-12/h4-8,10-11H,9H2,1-3H3
computed SMILES=O=C(OC(C=1C=CC=CC1)C)CC(C)C
accession=JP008466
date=2016.01.19 (Created 2008.10.21, modified 2011.05.06)
author=SODA AROMATIC CO., LTD.
license=CC BY-NC-SA
exact mass=206.13068
ionization energy=70 eV
ion type=[M]+*
computed spectral entropy=2.6398076619262563
computed normalized entropy=0.7761406839129665
SPLASH=splash10-0pi0-5900000000-3d881535de1381a26949
submitter=submitter = University of Tokyo Team (Faculty of Engineering, University of Tokyo)
MoNA Rating=3.75

>  <NUM PEAKS>  (2745) 
30

>  <MASS SPECTRAL PEAKS>  (2745) 
27 7.33
29 6.01
39 7.52
41 12.72
42 3.15
43 8.97
50 2.55
51 8.96
52 1.82
53 1.13
55 1.11
57 26.25
58 1.08
63 1.52
65 1.16
77 22.7
78 11.38
79 12.48
85 19.74
91 1.19
102 1.18
103 11.93
104 59.35
105 99.99
106 9.04
107 3.73
121 4.02
122 67.23
123 6.01
206 7.78

$$$$

     RDKit          2D

 14 14  0  0  0  0  0  0  0  0999 V2000
   -4.4076    2.1724    0.0000 C   0  0  0  0  0  0  0  0  0  0  0  0
   -3.9161    4.9600    0.0000 C   0  0  0  0  0  0  0  0  0  0  0  0
    0.4537    4.0715    0.0000 C   0  0  0  0  0  0  0  0  0  0  0  0
   -3.1086    2.9224    0.0000 C   0  0  0  0  0  0  0  0  0  0  0  0
   -2.9519    3.8110    0.0000 C   0  0  0  0  0  0  0  0  0  0  0  0
    3.3866    0.6724    0.0000 C   0  0  0  0  0  0  0  0  0  0  0  0
    3.3871    2.1732    0.0000 C   0  0  0  0  0  0  0  0  0  0  0  0
    2.0871   -0.0784    0.0000 C   0  0  0  0  0  0  0  0  0  0  0  0
    2.0880    2.9232    0.0000 C   0  0  0  0  0  0  0  0  0  0  0  0
    0.7880    0.6716    0.0000 C   0  0  0  0  0  0  0  0  0  0  0  0
    0.7885    2.1724    0.0000 C   0  0  0  0  0  0  0  0  0  0  0  0
   -0.5105    2.9224    0.0000 C   0  0  0  0  0  0  0  0  0  0  0  0
   -1.8096    2.1724    0.0000 O   0  0  0  0  0  0  0  0  0  0  0  0
   -1.4747    4.0715    0.0000 O   0  0  0  0  0  0  0  0  0  0  0  0
  4  1  1  0
  5  2  1  0
  7  6  2  0
  8  6  1  0
  9  7  1  0
 10  8  2  0
 11  9  2  0
 11 10  1  0
 12  3  1  0
 12 11  1  0
 13  4  1  0
 13 12  1  0
 14  5  1  0
 14 12  1  0
M  END
>  <NAME>  (2746) 
ACETOPHENONE DIETHYL ACETAL

>  <SYNONYMS>  (2746) 


>  <SPECTRUM TYPE>  (2746) 
MS1

>  <INSTRUMENT TYPE>  (2746) 
EI-B

>  <INSTRUMENT>  (2746) 
HITACHI M-80B

>  <ION MODE>  (2746) 
P

>  <INCHIKEY>  (2746) 
BWZAUXRKSMJLMH-UHFFFAOYSA-N

>  <FORMULA>  (2746) 
C12H18O2

>  <EXACT MASS>  (2746) 
194.130679816

>  <MW>  (2746) 
194

>  <ID>  (2746) 
JP008465

>  <CONTRIBUTOR>  (2746) 
University of Tokyo Team, {Faculty of Engineering, University of Tokyo

>  <COMMENT>  (2746) 
SMILES=CCOC(C)(OCC)c(c1)cccc1
InChI=InChI=1S/C12H18O2/c1-4-13-12(3,14-5-2)11-9-7-6-8-10-11/h6-10H,4-5H2,1-3H3
computed SMILES=O(CC)C(OCC)(C=1C=CC=CC1)C
accession=JP008465
date=2016.01.19 (Created 2008.10.21, modified 2011.05.06)
author=SODA AROMATIC CO., LTD.
license=CC BY-NC-SA
exact mass=194.13068
ionization energy=70 eV
ion type=[M]+*
computed spectral entropy=2.947398078019069
computed normalized entropy=0.8045171236937789
SPLASH=splash10-0pdi-9800000000-1006af7fea3ac35f29e6
submitter=submitter = University of Tokyo Team (Faculty of Engineering, University of Tokyo)
MoNA Rating=3.75

>  <NUM PEAKS>  (2746) 
39

>  <MASS SPECTRAL PEAKS>  (2746) 
15 1.58
26 2.44
27 13.57
29 10.55
38 1.42
39 7.53
41 1.99
42 2.73
43 5.88
50 7.67
51 24.64
52 4.22
53 1.05
62 2.15
63 5.75
64 1.45
65 9
74 3.51
75 2.85
76 4.4
77 38.5
78 47.25
79 3.03
89 2.35
90 1.23
91 29.68
92 4.59
101 1.08
102 5.37
103 16.85
104 35.44
105 99.99
106 6.59
120 20.22
121 1.63
133 1.76
147 17.48
148 26.74
149 2.59

$$$$

     RDKit          2D

 15 15  0  0  0  0  0  0  0  0999 V2000
   -6.8197    3.1321    0.0000 C   0  0  0  0  0  0  0  0  0  0  0  0
   -4.2216    7.6321    0.0000 C   0  0  0  0  0  0  0  0  0  0  0  0
   -5.5207    3.8821    0.0000 C   0  0  0  0  0  0  0  0  0  0  0  0
   -4.2216    6.1321    0.0000 C   0  0  0  0  0  0  0  0  0  0  0  0
    3.5726    1.6321    0.0000 C   0  0  0  0  0  0  0  0  0  0  0  0
    3.5731    3.1329    0.0000 C   0  0  0  0  0  0  0  0  0  0  0  0
    2.2731    0.8813    0.0000 C   0  0  0  0  0  0  0  0  0  0  0  0
    2.2740    3.8829    0.0000 C   0  0  0  0  0  0  0  0  0  0  0  0
    0.9740    1.6313    0.0000 C   0  0  0  0  0  0  0  0  0  0  0  0
   -0.3245    3.8821    0.0000 C   0  0  0  0  0  0  0  0  0  0  0  0
   -1.6236    3.1321    0.0000 C   0  0  0  0  0  0  0  0  0  0  0  0
    0.9745    3.1321    0.0000 C   0  0  0  0  0  0  0  0  0  0  0  0
   -2.9226    3.8821    0.0000 C   0  0  0  0  0  0  0  0  0  0  0  0
   -4.2216    3.1321    0.0000 O   0  0  0  0  0  0  0  0  0  0  0  0
   -2.9226    5.3821    0.0000 O   0  0  0  0  0  0  0  0  0  0  0  0
  3  1  1  0
  4  2  1  0
  6  5  2  0
  7  5  1  0
  8  6  1  0
  9  7  2  0
 10 11  2  0
 12  8  2  0
 12  9  1  0
 12 10  1  0
 13 11  1  0
 14  3  1  0
 14 13  1  0
 15  4  1  0
 15 13  1  0
M  END
>  <NAME>  (2747) 
CINNAMALDEHYDE DIETHYL ACETAL

>  <SYNONYMS>  (2747) 


>  <SPECTRUM TYPE>  (2747) 
MS1

>  <INSTRUMENT TYPE>  (2747) 
EI-B

>  <INSTRUMENT>  (2747) 
HITACHI M-80B

>  <ION MODE>  (2747) 
P

>  <INCHIKEY>  (2747) 
VYKDEWVAUWARRX-ZHACJKMWSA-N

>  <FORMULA>  (2747) 
C13H18O2

>  <EXACT MASS>  (2747) 
206.130679816

>  <MW>  (2747) 
206

>  <ID>  (2747) 
JP008464

>  <CONTRIBUTOR>  (2747) 
University of Tokyo Team, {Faculty of Engineering, University of Tokyo

>  <COMMENT>  (2747) 
SMILES=CCOC(OCC)C=Cc(c1)cccc1
InChI=InChI=1S/C13H18O2/c1-3-14-13(15-4-2)11-10-12-8-6-5-7-9-12/h5-11,13H,3-4H2,1-2H3/b11-10+
computed SMILES=O(CC)C(OCC)C=CC=1C=CC=CC1
accession=JP008464
date=2016.01.19 (Created 2008.10.21, modified 2011.05.06)
author=SODA AROMATIC CO., LTD.
license=CC BY-NC-SA
exact mass=206.13068
ionization energy=70 eV
ion type=[M]+*
computed spectral entropy=3.258046057745114
computed normalized entropy=0.813021006027506
SPLASH=splash10-08ir-4900000000-5ff04ad641dee79e456b
submitter=submitter = University of Tokyo Team (Faculty of Engineering, University of Tokyo)
MoNA Rating=3.75

>  <NUM PEAKS>  (2747) 
55

>  <MASS SPECTRAL PEAKS>  (2747) 
15 1.88
26 1.39
27 17.18
29 42.02
30 1.1
31 2.98
39 3.37
43 2.47
45 1.78
47 7.76
50 2.54
51 9.15
52 2.52
53 1.4
55 34.97
56 1.17
63 3.77
65 2.59
74 1.31
75 5.02
76 2.83
77 31.92
78 15.97
79 7.3
88 1.55
89 2.41
91 16.11
92 1.78
101 1.14
102 4.73
103 31.28
104 27.41
105 37.68
106 3.05
107 7.75
115 31.72
116 3.98
117 2.66
118 4.42
119 1.79
121 1.3
129 1.07
131 30.32
132 8.66
133 62.88
134 5.75
135 31.08
136 2.85
160 2.46
161 99.99
162 13.04
177 3.62
178 1.46
206 12.59
207 1.52

$$$$

     RDKit          2D

 13 13  0  0  0  0  0  0  0  0999 V2000
   -3.9180   -0.7714    0.0000 C   0  0  0  0  0  0  0  0  0  0  0  0
    5.2008    1.4808    0.0000 C   0  0  0  0  0  0  0  0  0  0  0  0
    3.9128    3.7372    0.0000 C   0  0  0  0  0  0  0  0  0  0  0  0
    1.3000   -0.7500    0.0000 C   0  0  0  0  0  0  0  0  0  0  0  0
    0.0300    1.5000    0.0000 C   0  0  0  0  0  0  0  0  0  0  0  0
    0.0300   -1.5000    0.0000 C   0  0  0  0  0  0  0  0  0  0  0  0
   -1.3200    0.7500    0.0000 C   0  0  0  0  0  0  0  0  0  0  0  0
    1.3000    0.7500    0.0000 C   0  0  0  0  0  0  0  0  0  0  0  0
   -1.3200   -0.7500    0.0000 C   0  0  0  0  0  0  0  0  0  0  0  0
    2.6027    1.4936    0.0000 C   0  0  0  0  0  0  0  0  0  0  0  0
   -2.6128   -1.5107    0.0000 O   0  0  0  0  0  0  0  0  0  0  0  0
    3.8980    0.7372    0.0000 O   0  0  0  0  0  0  0  0  0  0  0  0
    2.6101    2.9936    0.0000 O   0  0  0  0  0  0  0  0  0  0  0  0
  6  4  2  0
  7  5  1  0
  8  4  1  0
  8  5  2  0
  9  6  1  0
  9  7  2  0
 10  8  1  0
 11  1  1  0
 11  9  1  0
 12  2  1  0
 12 10  1  0
 13  3  1  0
 13 10  1  0
M  END
>  <NAME>  (2748) 
4-METHOXYBENZALDEHYDE DIMETHYL ACETAL

>  <SYNONYMS>  (2748) 
ANISALDEHYDE DIMETHYL ACETAL

>  <SPECTRUM TYPE>  (2748) 
MS1

>  <INSTRUMENT TYPE>  (2748) 
EI-B

>  <INSTRUMENT>  (2748) 
HITACHI M-80B

>  <ION MODE>  (2748) 
P

>  <INCHIKEY>  (2748) 
NNHYAHOTXLASEA-UHFFFAOYSA-N

>  <FORMULA>  (2748) 
C10H14O3

>  <EXACT MASS>  (2748) 
182.09429430799997

>  <MW>  (2748) 
182

>  <ID>  (2748) 
JP008463

>  <CONTRIBUTOR>  (2748) 
University of Tokyo Team, {Faculty of Engineering, University of Tokyo

>  <COMMENT>  (2748) 
SMILES=COc(c1)ccc(c1)C(OC)OC
InChI=InChI=1S/C10H14O3/c1-11-9-6-4-8(5-7-9)10(12-2)13-3/h4-7,10H,1-3H3
computed SMILES=O(C1=CC=C(C=C1)C(OC)OC)C
accession=JP008463
date=2016.01.19 (Created 2008.10.21, modified 2011.05.06)
author=SODA AROMATIC CO., LTD.
license=CC BY-NC-SA
exact mass=182.09429
ionization energy=70 eV
ion type=[M]+*
computed spectral entropy=2.175273942264626
computed normalized entropy=0.6757868462831101
SPLASH=splash10-0udi-3900000000-8ac1c8e23859fa8c7e8f
submitter=submitter = University of Tokyo Team (Faculty of Engineering, University of Tokyo)
MoNA Rating=3.75

>  <NUM PEAKS>  (2748) 
25

>  <MASS SPECTRAL PEAKS>  (2748) 
15 3.81
29 2.9
31 1.1
39 3.82
47 1.13
50 1.52
51 4.09
59 1.05
63 2.81
64 1.86
65 4.39
75 4.11
77 8.15
78 3.04
79 1.5
91 3.43
92 4.16
107 1.77
108 5.7
121 1.2
135 22.26
136 10.22
151 99.99
152 10.09
182 5.72

$$$$

     RDKit          2D

 13 13  0  0  0  0  0  0  0  0999 V2000
   -5.5207    3.1321    0.0000 C   0  0  0  0  0  0  0  0  0  0  0  0
   -4.2216    5.3821    0.0000 C   0  0  0  0  0  0  0  0  0  0  0  0
    3.5726    0.8821    0.0000 C   0  0  0  0  0  0  0  0  0  0  0  0
    3.5731    2.3829    0.0000 C   0  0  0  0  0  0  0  0  0  0  0  0
    2.2731    0.1313    0.0000 C   0  0  0  0  0  0  0  0  0  0  0  0
    2.2740    3.1329    0.0000 C   0  0  0  0  0  0  0  0  0  0  0  0
    0.9740    0.8813    0.0000 C   0  0  0  0  0  0  0  0  0  0  0  0
   -0.3245    3.1321    0.0000 C   0  0  0  0  0  0  0  0  0  0  0  0
   -1.6236    2.3821    0.0000 C   0  0  0  0  0  0  0  0  0  0  0  0
    0.9745    2.3821    0.0000 C   0  0  0  0  0  0  0  0  0  0  0  0
   -2.9226    3.1321    0.0000 C   0  0  0  0  0  0  0  0  0  0  0  0
   -4.2216    2.3821    0.0000 O   0  0  0  0  0  0  0  0  0  0  0  0
   -2.9226    4.6321    0.0000 O   0  0  0  0  0  0  0  0  0  0  0  0
  4  3  2  0
  5  3  1  0
  6  4  1  0
  7  5  2  0
  8  9  2  0
 10  6  2  0
 10  7  1  0
 10  8  1  0
 11  9  1  0
 12  1  1  0
 12 11  1  0
 13  2  1  0
 13 11  1  0
M  END
>  <NAME>  (2749) 
CINNAMALDEHYDE DIMETHYL ACETAL

>  <SYNONYMS>  (2749) 


>  <SPECTRUM TYPE>  (2749) 
MS1

>  <INSTRUMENT TYPE>  (2749) 
EI-B

>  <INSTRUMENT>  (2749) 
HITACHI M-80B

>  <ION MODE>  (2749) 
P

>  <INCHIKEY>  (2749) 
MBAOABFNWSOOLU-CMDGGOBGSA-N

>  <FORMULA>  (2749) 
C11H14O2

>  <EXACT MASS>  (2749) 
178.099379688

>  <MW>  (2749) 
178

>  <ID>  (2749) 
JP008462

>  <CONTRIBUTOR>  (2749) 
University of Tokyo Team, {Faculty of Engineering, University of Tokyo

>  <COMMENT>  (2749) 
SMILES=COC(OC)C=Cc(c1)cccc1
InChI=InChI=1S/C11H14O2/c1-12-11(13-2)9-8-10-6-4-3-5-7-10/h3-9,11H,1-2H3/b9-8+
computed SMILES=O(C)C(OC)C=CC=1C=CC=CC1
accession=JP008462
date=2016.01.19 (Created 2008.10.21, modified 2011.05.06)
author=SODA AROMATIC CO., LTD.
license=CC BY-NC-SA
exact mass=178.09938
ionization energy=70 eV
ion type=[M]+*
computed spectral entropy=3.2795672781792398
computed normalized entropy=0.8383302638120126
SPLASH=splash10-0ftb-5900000000-1b75a7bd7c6dea7493d9
submitter=submitter = University of Tokyo Team (Faculty of Engineering, University of Tokyo)
MoNA Rating=3.75

>  <NUM PEAKS>  (2749) 
50

>  <MASS SPECTRAL PEAKS>  (2749) 
15 12.29
27 2.92
29 9.3
30 1.24
31 4.67
38 1.25
39 8.42
41 2.33
45 5.71
47 3.81
50 5.23
51 18.26
52 3.83
53 1.45
55 3.58
59 10.96
62 1.93
63 6.36
64 1.23
65 3.19
74 4.41
75 14.94
76 3.84
77 32.29
78 17.39
79 1.86
89 3.07
91 29.85
92 2.42
101 4.43
102 5.76
103 31.12
104 21.01
105 9.48
115 58.33
116 5.88
117 12.69
118 8.23
119 2.25
121 36.46
122 2.64
131 29.08
132 8.7
146 1.81
147 99.99
148 11.13
163 1.6
177 3.8
178 23.3
179 2.44

$$$$

     RDKit          2D

 12 12  0  0  0  0  0  0  0  0999 V2000
    0.1678    3.1570    0.0000 C   0  0  0  0  0  0  0  0  0  0  0  0
   -3.3944    2.0079    0.0000 C   0  0  0  0  0  0  0  0  0  0  0  0
   -3.2377    2.8965    0.0000 C   0  0  0  0  0  0  0  0  0  0  0  0
    3.1008   -0.2421    0.0000 C   0  0  0  0  0  0  0  0  0  0  0  0
    3.1012    1.2587    0.0000 C   0  0  0  0  0  0  0  0  0  0  0  0
    1.8012   -0.9929    0.0000 C   0  0  0  0  0  0  0  0  0  0  0  0
    1.8022    2.0087    0.0000 C   0  0  0  0  0  0  0  0  0  0  0  0
    0.5022   -0.2429    0.0000 C   0  0  0  0  0  0  0  0  0  0  0  0
    0.5027    1.2579    0.0000 C   0  0  0  0  0  0  0  0  0  0  0  0
   -0.7963    2.0079    0.0000 C   0  0  0  0  0  0  0  0  0  0  0  0
   -2.0954    1.2579    0.0000 O   0  0  0  0  0  0  0  0  0  0  0  0
   -1.7605    3.1570    0.0000 O   0  0  0  0  0  0  0  0  0  0  0  0
  5  4  2  0
  6  4  1  0
  7  5  1  0
  8  6  2  0
  9  7  2  0
  9  8  1  0
 10  1  1  0
 10  9  1  0
 11  2  1  0
 11 10  1  0
 12  3  1  0
 12 10  1  0
M  END
>  <NAME>  (2750) 
ACETOPHENONE DIMETHYL ACETAL

>  <SYNONYMS>  (2750) 


>  <SPECTRUM TYPE>  (2750) 
MS1

>  <INSTRUMENT TYPE>  (2750) 
EI-B

>  <INSTRUMENT>  (2750) 
HITACHI M-80B

>  <ION MODE>  (2750) 
P

>  <INCHIKEY>  (2750) 
XKSUVRWJZCEYQQ-UHFFFAOYSA-N

>  <FORMULA>  (2750) 
C10H14O2

>  <EXACT MASS>  (2750) 
166.099379688

>  <MW>  (2750) 
166

>  <ID>  (2750) 
JP008461

>  <CONTRIBUTOR>  (2750) 
University of Tokyo Team, {Faculty of Engineering, University of Tokyo

>  <COMMENT>  (2750) 
SMILES=COC(C)(OC)c(c1)cccc1
InChI=InChI=1S/C10H14O2/c1-10(11-2,12-3)9-7-5-4-6-8-9/h4-8H,1-3H3
computed SMILES=O(C)C(OC)(C=1C=CC=CC1)C
accession=JP008461
date=2016.01.19 (Created 2008.10.21, modified 2011.05.06)
author=SODA AROMATIC CO., LTD.
license=CC BY-NC-SA
exact mass=166.09938
ionization energy=70 eV
ion type=[M]+*
computed spectral entropy=3.171536522758638
computed normalized entropy=0.8331541163109517
SPLASH=splash10-0f7x-9600000000-afa6e2d10eb8e4ac514b
submitter=submitter = University of Tokyo Team (Faculty of Engineering, University of Tokyo)
MoNA Rating=3.75

>  <NUM PEAKS>  (2750) 
45

>  <MASS SPECTRAL PEAKS>  (2750) 
15 15.73
26 1
27 5.46
29 16.07
30 2.64
31 15.74
32 3.12
38 2.29
39 11.74
41 1.58
42 2.66
43 73.04
44 1.09
50 15.26
51 33.57
52 3.81
53 1.09
57 1.43
59 2.49
62 2.79
63 8.82
64 1.83
65 11.86
74 5.27
75 3.65
76 6.23
77 47.47
78 24.28
79 2.38
89 16.09
90 2.29
91 34.29
92 3.35
102 6.81
103 28.35
104 29.25
105 26.45
106 1.64
119 1.87
133 32.67
134 29.7
135 99.99
136 9.24
151 18.69
152 1.5

$$$$

     RDKit          2D

 19 18  0  0  0  0  0  0  0  0999 V2000
  -13.6399    7.8750    0.0000 C   0  0  0  0  0  0  0  0  0  0  0  0
    4.5466    7.8750    0.0000 C   0  0  0  0  0  0  0  0  0  0  0  0
   -1.9486    2.6250    0.0000 C   0  0  0  0  0  0  0  0  0  0  0  0
  -12.3409    7.1250    0.0000 C   0  0  0  0  0  0  0  0  0  0  0  0
    3.2476    7.1250    0.0000 C   0  0  0  0  0  0  0  0  0  0  0  0
   -3.2476    3.3750    0.0000 C   0  0  0  0  0  0  0  0  0  0  0  0
  -11.0418    7.8750    0.0000 C   0  0  0  0  0  0  0  0  0  0  0  0
    1.9486    7.8750    0.0000 C   0  0  0  0  0  0  0  0  0  0  0  0
   -3.2476    4.8750    0.0000 C   0  0  0  0  0  0  0  0  0  0  0  0
   -9.7428    7.1250    0.0000 C   0  0  0  0  0  0  0  0  0  0  0  0
    0.6495    7.1250    0.0000 C   0  0  0  0  0  0  0  0  0  0  0  0
   -8.4437    7.8750    0.0000 C   0  0  0  0  0  0  0  0  0  0  0  0
   -0.6495    7.8750    0.0000 C   0  0  0  0  0  0  0  0  0  0  0  0
   -4.5466    5.6250    0.0000 C   0  0  0  0  0  0  0  0  0  0  0  0
   -7.1447    7.1250    0.0000 C   0  0  0  0  0  0  0  0  0  0  0  0
   -1.9486    7.1250    0.0000 C   0  0  0  0  0  0  0  0  0  0  0  0
   -4.5466    7.1250    0.0000 C   0  0  0  0  0  0  0  0  0  0  0  0
   -5.8457    7.8750    0.0000 O   0  0  0  0  0  0  0  0  0  0  0  0
   -3.2476    7.8750    0.0000 O   0  0  0  0  0  0  0  0  0  0  0  0
  4  1  1  0
  5  2  1  0
  6  3  1  0
  7  4  1  0
  8  5  1  0
  9  6  1  0
 10  7  1  0
 11  8  1  0
 12 10  1  0
 13 11  1  0
 14  9  1  0
 15 12  1  0
 16 13  1  0
 17 14  1  0
 18 15  1  0
 18 17  1  0
 19 16  1  0
 19 17  1  0
M  END
>  <NAME>  (2751) 
VALERALDEHYDE DIHEXYL ACETAL

>  <SYNONYMS>  (2751) 
PENTANAL DIHEXYL ACETAL

>  <SPECTRUM TYPE>  (2751) 
MS1

>  <INSTRUMENT TYPE>  (2751) 
EI-B

>  <INSTRUMENT>  (2751) 
HITACHI M-80B

>  <ION MODE>  (2751) 
P

>  <INCHIKEY>  (2751) 
JQWXFZZZKPDRKK-UHFFFAOYSA-N

>  <FORMULA>  (2751) 
C17H36O2

>  <EXACT MASS>  (2751) 
272.271530392

>  <MW>  (2751) 
272

>  <ID>  (2751) 
JP008460

>  <CONTRIBUTOR>  (2751) 
University of Tokyo Team, {Faculty of Engineering, University of Tokyo

>  <COMMENT>  (2751) 
SMILES=CCCCCCOC(CCCC)OCCCCCC
InChI=InChI=1S/C17H36O2/c1-4-7-10-12-15-18-17(14-9-6-3)19-16-13-11-8-5-2/h17H,4-16H2,1-3H3
computed SMILES=O(CCCCCC)C(OCCCCCC)CCCC
accession=JP008460
date=2016.01.19 (Created 2008.10.21, modified 2011.05.06)
author=SODA AROMATIC CO., LTD.
license=CC BY-NC-SA
exact mass=272.27153
ionization energy=70 eV
ion type=[M]+*
computed spectral entropy=2.867337940452171
computed normalized entropy=0.8131153693550026
SPLASH=splash10-052o-9000000000-1fe8af2abd8ec0c24c17
submitter=submitter = University of Tokyo Team (Faculty of Engineering, University of Tokyo)
MoNA Rating=3.75

>  <NUM PEAKS>  (2751) 
34

>  <MASS SPECTRAL PEAKS>  (2751) 
26 1.18
27 17.47
29 23.17
31 8.97
39 11.51
41 43.82
42 16.84
43 99.99
44 8.57
45 2.21
53 2.3
54 1.41
55 25.59
56 31.21
57 73.09
58 4.64
67 1.83
68 4.05
69 20.43
70 1.64
71 3.73
83 1.42
84 3.72
85 55.58
86 22.87
87 19.53
88 1.1
113 1.97
131 4.29
141 2.53
170 10.45
171 19.75
172 2.07
215 6.62

$$$$

     RDKit          2D

 14 13  0  0  0  0  0  0  0  0999 V2000
   -8.7685    6.1875    0.0000 C   0  0  0  0  0  0  0  0  0  0  0  0
   -7.4695    3.9375    0.0000 C   0  0  0  0  0  0  0  0  0  0  0  0
    4.2219    6.1875    0.0000 C   0  0  0  0  0  0  0  0  0  0  0  0
    2.9228    3.9375    0.0000 C   0  0  0  0  0  0  0  0  0  0  0  0
   -2.2733    3.9375    0.0000 C   0  0  0  0  0  0  0  0  0  0  0  0
   -6.1704    6.1875    0.0000 C   0  0  0  0  0  0  0  0  0  0  0  0
    1.6238    6.1875    0.0000 C   0  0  0  0  0  0  0  0  0  0  0  0
   -4.8714    5.4375    0.0000 C   0  0  0  0  0  0  0  0  0  0  0  0
    0.3248    5.4375    0.0000 C   0  0  0  0  0  0  0  0  0  0  0  0
   -7.4695    5.4375    0.0000 C   0  0  0  0  0  0  0  0  0  0  0  0
    2.9228    5.4375    0.0000 C   0  0  0  0  0  0  0  0  0  0  0  0
   -2.2733    5.4375    0.0000 C   0  0  0  0  0  0  0  0  0  0  0  0
   -3.5724    6.1875    0.0000 O   0  0  0  0  0  0  0  0  0  0  0  0
   -0.9743    6.1875    0.0000 O   0  0  0  0  0  0  0  0  0  0  0  0
  8  6  1  0
  9  7  1  0
 10  1  1  0
 10  2  1  0
 10  6  1  0
 11  3  1  0
 11  4  1  0
 11  7  1  0
 12  5  1  0
 13  8  1  0
 13 12  1  0
 14  9  1  0
 14 12  1  0
M  END
>  <NAME>  (2752) 
ACETALDEHYDE DIISOAMYL ACETAL

>  <SYNONYMS>  (2752) 


>  <SPECTRUM TYPE>  (2752) 
MS1

>  <INSTRUMENT TYPE>  (2752) 
EI-B

>  <INSTRUMENT>  (2752) 
HITACHI M-80B

>  <ION MODE>  (2752) 
P

>  <INCHIKEY>  (2752) 
LXKCTPBHCJDSKC-UHFFFAOYSA-N

>  <FORMULA>  (2752) 
C12H26O2

>  <EXACT MASS>  (2752) 
202.193280072

>  <MW>  (2752) 
202

>  <ID>  (2752) 
JP008459

>  <CONTRIBUTOR>  (2752) 
University of Tokyo Team, {Faculty of Engineering, University of Tokyo

>  <COMMENT>  (2752) 
SMILES=CC(C)CCOC(C)OCCC(C)C
InChI=InChI=1S/C12H26O2/c1-10(2)6-8-13-12(5)14-9-7-11(3)4/h10-12H,6-9H2,1-5H3
computed SMILES=O(CCC(C)C)C(OCCC(C)C)C
accession=JP008459
date=2016.01.19 (Created 2008.10.21, modified 2011.05.06)
author=SODA AROMATIC CO., LTD.
license=CC BY-NC-SA
exact mass=202.19328
ionization energy=70 eV
ion type=[M]+*
computed spectral entropy=2.2157165102808296
computed normalized entropy=0.727771450401153
SPLASH=splash10-00dl-9200000000-e100a89de7c676554608
submitter=submitter = University of Tokyo Team (Faculty of Engineering, University of Tokyo)
MoNA Rating=3.75

>  <NUM PEAKS>  (2752) 
21

>  <MASS SPECTRAL PEAKS>  (2752) 
27 7.92
29 8.57
31 2.86
39 5.82
41 16.41
42 6.28
43 61.05
44 4.02
45 7.21
53 1.1
55 13.56
56 1.49
57 1.55
69 1.35
70 6.68
71 99.99
72 6.75
99 1.13
115 45.88
116 3.87
187 7.25

$$$$

     RDKit          2D

 10  9  0  0  0  0  0  0  0  0999 V2000
    2.5981    4.5000    0.0000 C   0  0  0  0  0  0  0  0  0  0  0  0
   -7.7942    4.5000    0.0000 C   0  0  0  0  0  0  0  0  0  0  0  0
   -2.5981    3.0000    0.0000 C   0  0  0  0  0  0  0  0  0  0  0  0
    1.2990    5.2500    0.0000 C   0  0  0  0  0  0  0  0  0  0  0  0
   -6.4952    5.2500    0.0000 C   0  0  0  0  0  0  0  0  0  0  0  0
    0.0000    4.5000    0.0000 C   0  0  0  0  0  0  0  0  0  0  0  0
   -5.1962    4.5000    0.0000 C   0  0  0  0  0  0  0  0  0  0  0  0
   -2.5981    4.5000    0.0000 C   0  0  0  0  0  0  0  0  0  0  0  0
   -1.2990    5.2500    0.0000 O   0  0  0  0  0  0  0  0  0  0  0  0
   -3.8971    5.2500    0.0000 O   0  0  0  0  0  0  0  0  0  0  0  0
  4  1  1  0
  5  2  1  0
  6  4  1  0
  7  5  1  0
  8  3  1  0
  9  6  1  0
  9  8  1  0
 10  7  1  0
 10  8  1  0
M  END
>  <NAME>  (2753) 
ACETALDEHYDE DIPROPYL ACETAL

>  <SYNONYMS>  (2753) 


>  <SPECTRUM TYPE>  (2753) 
MS1

>  <INSTRUMENT TYPE>  (2753) 
EI-B

>  <INSTRUMENT>  (2753) 
HITACHI M-80B

>  <ION MODE>  (2753) 
P

>  <INCHIKEY>  (2753) 
MISTZQJSHHTDCF-UHFFFAOYSA-N

>  <FORMULA>  (2753) 
C8H18O2

>  <EXACT MASS>  (2753) 
146.130679816

>  <MW>  (2753) 
146

>  <ID>  (2753) 
JP008458

>  <CONTRIBUTOR>  (2753) 
University of Tokyo Team, {Faculty of Engineering, University of Tokyo

>  <COMMENT>  (2753) 
SMILES=CCCOC(C)OCCC
InChI=InChI=1S/C8H18O2/c1-4-6-9-8(3)10-7-5-2/h8H,4-7H2,1-3H3
computed SMILES=O(CCC)C(OCCC)C
date=2016.01.19 (Created 2008.10.21, modified 2011.05.06)
accession=JP008458
author=SODA AROMATIC CO., LTD.
license=CC BY-NC-SA
exact mass=146.13068
ionization energy=70 eV
ion type=[M]+*
computed spectral entropy=2.20449775040939
computed normalized entropy=0.7240865506834067
SPLASH=splash10-000e-9000000000-8d3189828acb73877576
submitter=submitter = University of Tokyo Team (Faculty of Engineering, University of Tokyo)
MoNA Rating=3.75

>  <NUM PEAKS>  (2753) 
21

>  <MASS SPECTRAL PEAKS>  (2753) 
15 1.87
26 1.41
27 17.85
29 8.4
31 7.92
39 6.61
41 19.01
42 4.95
43 65.74
44 4.78
45 99.99
46 1.95
47 3.05
57 1.09
58 5.11
59 1.63
61 3.09
87 68.27
88 4.14
89 7.04
131 14.24

$$$$

     RDKit          2D

 16 15  0  0  0  0  0  0  0  0999 V2000
    3.8971    6.7500    0.0000 C   0  0  0  0  0  0  0  0  0  0  0  0
  -11.6913    6.7500    0.0000 C   0  0  0  0  0  0  0  0  0  0  0  0
  -10.3923    9.0000    0.0000 C   0  0  0  0  0  0  0  0  0  0  0  0
    2.5981    7.5000    0.0000 C   0  0  0  0  0  0  0  0  0  0  0  0
  -10.3923    7.5000    0.0000 C   0  0  0  0  0  0  0  0  0  0  0  0
   -9.0933    9.7500    0.0000 C   0  0  0  0  0  0  0  0  0  0  0  0
    1.2990    6.7500    0.0000 C   0  0  0  0  0  0  0  0  0  0  0  0
    0.0000    7.5000    0.0000 C   0  0  0  0  0  0  0  0  0  0  0  0
   -1.2990    6.7500    0.0000 C   0  0  0  0  0  0  0  0  0  0  0  0
   -2.5981    7.5000    0.0000 C   0  0  0  0  0  0  0  0  0  0  0  0
   -3.8971    6.7500    0.0000 C   0  0  0  0  0  0  0  0  0  0  0  0
   -5.1962    7.5000    0.0000 C   0  0  0  0  0  0  0  0  0  0  0  0
   -6.4952    6.7500    0.0000 C   0  0  0  0  0  0  0  0  0  0  0  0
   -7.7942    7.5000    0.0000 C   0  0  0  0  0  0  0  0  0  0  0  0
   -9.0933    6.7500    0.0000 O   0  0  0  0  0  0  0  0  0  0  0  0
   -7.7942    9.0000    0.0000 O   0  0  0  0  0  0  0  0  0  0  0  0
  4  1  1  0
  5  2  1  0
  6  3  1  0
  7  4  1  0
  8  7  1  0
  9  8  1  0
 10  9  1  0
 11 10  1  0
 12 11  1  0
 13 12  1  0
 14 13  1  0
 15  5  1  0
 15 14  1  0
 16  6  1  0
 16 14  1  0
M  END
>  <NAME>  (2754) 
DECANAL DIETHYL ACETAL

>  <SYNONYMS>  (2754) 


>  <SPECTRUM TYPE>  (2754) 
MS1

>  <INSTRUMENT TYPE>  (2754) 
EI-B

>  <INSTRUMENT>  (2754) 
HITACHI M-80B

>  <ION MODE>  (2754) 
P

>  <INCHIKEY>  (2754) 
GDDPLWAEEWIQKZ-UHFFFAOYSA-N

>  <FORMULA>  (2754) 
C14H30O2

>  <EXACT MASS>  (2754) 
230.2245802

>  <MW>  (2754) 
230

>  <ID>  (2754) 
JP008457

>  <CONTRIBUTOR>  (2754) 
University of Tokyo Team, {Faculty of Engineering, University of Tokyo

>  <COMMENT>  (2754) 
SMILES=CCCCCCCCCC(OCC)OCC
InChI=InChI=1S/C14H30O2/c1-4-7-8-9-10-11-12-13-14(15-5-2)16-6-3/h14H,4-13H2,1-3H3
computed SMILES=O(CC)C(OCC)CCCCCCCCC
accession=JP008457
date=2016.01.19 (Created 2008.10.21, modified 2011.05.06)
author=SODA AROMATIC CO., LTD.
license=CC BY-NC-SA
exact mass=230.22458
ionization energy=70 eV
ion type=[M]+*
computed spectral entropy=3.0519269512331886
computed normalized entropy=0.8017330034996959
SPLASH=splash10-0zi9-9300000000-8bc6e59f3b2a8fc07da9
submitter=submitter = University of Tokyo Team (Faculty of Engineering, University of Tokyo)
MoNA Rating=3.75

>  <NUM PEAKS>  (2754) 
45

>  <MASS SPECTRAL PEAKS>  (2754) 
26 1.09
27 13.73
29 28.84
31 12.79
39 4.08
41 22.09
42 4.05
43 17.02
44 4.69
45 8.01
46 1.55
47 32.24
53 1.54
54 2.32
55 15.85
56 2.61
57 54.9
58 2.26
59 2.7
67 4.1
68 4.51
69 11.14
70 2.18
71 3.51
72 4.5
75 26.8
81 3.94
82 7.01
83 14.86
85 46.79
86 2.3
95 3.27
96 2.65
97 5.36
99 2.97
103 99.99
104 3.82
109 1.42
110 1.41
127 1.26
138 1.05
141 1.72
184 2.36
185 16.07
186 1.69

$$$$

     RDKit          2D

 15 14  0  0  0  0  0  0  0  0999 V2000
    3.5221    3.6495    0.0000 C   0  0  0  0  0  0  0  0  0  0  0  0
    0.9240    8.1495    0.0000 C   0  0  0  0  0  0  0  0  0  0  0  0
   -2.9731    5.8995    0.0000 C   0  0  0  0  0  0  0  0  0  0  0  0
   -4.8212    5.6986    0.0000 C   0  0  0  0  0  0  0  0  0  0  0  0
   -6.8702    5.1495    0.0000 C   0  0  0  0  0  0  0  0  0  0  0  0
   -6.3212    3.1005    0.0000 C   0  0  0  0  0  0  0  0  0  0  0  0
    2.2231    4.3995    0.0000 C   0  0  0  0  0  0  0  0  0  0  0  0
    0.9240    6.6495    0.0000 C   0  0  0  0  0  0  0  0  0  0  0  0
   -1.6740    3.6495    0.0000 C   0  0  0  0  0  0  0  0  0  0  0  0
   -4.2721    3.6495    0.0000 C   0  0  0  0  0  0  0  0  0  0  0  0
   -2.9731    4.3995    0.0000 C   0  0  0  0  0  0  0  0  0  0  0  0
   -0.3750    4.3995    0.0000 C   0  0  0  0  0  0  0  0  0  0  0  0
   -5.5712    4.3995    0.0000 C   0  0  0  0  0  0  0  0  0  0  0  0
    0.9240    3.6495    0.0000 O   0  0  0  0  0  0  0  0  0  0  0  0
   -0.3750    5.8995    0.0000 O   0  0  0  0  0  0  0  0  0  0  0  0
  7  1  1  0
  8  2  1  0
 11  3  1  0
 11  9  1  0
 11 10  1  0
 12  9  1  0
 13  4  1  0
 13  5  1  0
 13  6  1  0
 13 10  1  0
 14  7  1  0
 14 12  1  0
 15  8  1  0
 15 12  1  0
M  END
>  <NAME>  (2755) 
ALPINAL DIETHYL ACETAL

>  <SYNONYMS>  (2755) 
3,5,5-TRIMETHYLHEXANAL DIETHYL ACETAL

>  <SPECTRUM TYPE>  (2755) 
MS1

>  <INSTRUMENT TYPE>  (2755) 
EI-B

>  <INSTRUMENT>  (2755) 
HITACHI M-80B

>  <ION MODE>  (2755) 
P

>  <INCHIKEY>  (2755) 
SXOLJHFGARCGQT-UHFFFAOYSA-N

>  <FORMULA>  (2755) 
C13H28O2

>  <EXACT MASS>  (2755) 
216.208930136

>  <MW>  (2755) 
216

>  <ID>  (2755) 
JP008456

>  <CONTRIBUTOR>  (2755) 
University of Tokyo Team, {Faculty of Engineering, University of Tokyo

>  <COMMENT>  (2755) 
SMILES=CCOC(OCC)CC(C)CC(C)(C)C
InChI=InChI=1S/C13H28O2/c1-7-14-12(15-8-2)9-11(3)10-13(4,5)6/h11-12H,7-10H2,1-6H3
computed SMILES=O(CC)C(OCC)CC(C)CC(C)(C)C
accession=JP008456
date=2016.01.19 (Created 2008.10.21, modified 2011.05.06)
author=SODA AROMATIC CO., LTD.
license=CC BY-NC-SA
exact mass=216.20893
ionization energy=70 eV
ion type=[M]+*
computed spectral entropy=3.051277381509076
computed normalized entropy=0.8163582373849464
SPLASH=splash10-0fft-9100000000-2875a5beb7a9d298fd72
submitter=submitter = University of Tokyo Team (Faculty of Engineering, University of Tokyo)
MoNA Rating=3.75

>  <NUM PEAKS>  (2755) 
42

>  <MASS SPECTRAL PEAKS>  (2755) 
15 3
19 1.34
26 2.57
27 28.89
29 50.86
30 1.8
31 25.56
39 13.66
41 47.5
42 3.61
43 25.53
44 8.19
45 14.74
46 3.01
47 38.71
51 1.14
53 8
55 15.01
56 8.68
57 62.78
58 2.34
59 3.11
67 3.19
68 3.76
69 10.77
70 2.85
71 85.47
72 13
73 2.98
75 27.93
83 20.51
84 1.37
85 4.39
99 99.99
100 6.71
103 82.29
104 3.67
109 4.35
113 3.65
155 1.47
170 4.49
171 9.69

$$$$

     RDKit          2D

 15 14  0  0  0  0  0  0  0  0999 V2000
    3.2476    7.1250    0.0000 C   0  0  0  0  0  0  0  0  0  0  0  0
  -11.0418    7.8750    0.0000 C   0  0  0  0  0  0  0  0  0  0  0  0
   -8.4437    3.3750    0.0000 C   0  0  0  0  0  0  0  0  0  0  0  0
    1.9486    7.8750    0.0000 C   0  0  0  0  0  0  0  0  0  0  0  0
   -9.7428    7.1250    0.0000 C   0  0  0  0  0  0  0  0  0  0  0  0
   -8.4437    4.8750    0.0000 C   0  0  0  0  0  0  0  0  0  0  0  0
    0.6495    7.1250    0.0000 C   0  0  0  0  0  0  0  0  0  0  0  0
   -0.6495    7.8750    0.0000 C   0  0  0  0  0  0  0  0  0  0  0  0
   -1.9486    7.1250    0.0000 C   0  0  0  0  0  0  0  0  0  0  0  0
   -3.2476    7.8750    0.0000 C   0  0  0  0  0  0  0  0  0  0  0  0
   -4.5466    7.1250    0.0000 C   0  0  0  0  0  0  0  0  0  0  0  0
   -5.8457    7.8750    0.0000 C   0  0  0  0  0  0  0  0  0  0  0  0
   -7.1447    7.1250    0.0000 C   0  0  0  0  0  0  0  0  0  0  0  0
   -8.4437    7.8750    0.0000 O   0  0  0  0  0  0  0  0  0  0  0  0
   -7.1447    5.6250    0.0000 O   0  0  0  0  0  0  0  0  0  0  0  0
  4  1  1  0
  5  2  1  0
  6  3  1  0
  7  4  1  0
  8  7  1  0
  9  8  1  0
 10  9  1  0
 11 10  1  0
 12 11  1  0
 13 12  1  0
 14  5  1  0
 14 13  1  0
 15  6  1  0
 15 13  1  0
M  END
>  <NAME>  (2756) 
NONANAL DIETHYL ACETAL

>  <SYNONYMS>  (2756) 


>  <SPECTRUM TYPE>  (2756) 
MS1

>  <INSTRUMENT TYPE>  (2756) 
EI-B

>  <INSTRUMENT>  (2756) 
HITACHI M-80B

>  <ION MODE>  (2756) 
P

>  <INCHIKEY>  (2756) 
RJMSGTVQHHFVLK-UHFFFAOYSA-N

>  <FORMULA>  (2756) 
C13H28O2

>  <EXACT MASS>  (2756) 
216.208930136

>  <MW>  (2756) 
216

>  <ID>  (2756) 
JP008455

>  <CONTRIBUTOR>  (2756) 
University of Tokyo Team, {Faculty of Engineering, University of Tokyo

>  <COMMENT>  (2756) 
SMILES=CCCCCCCCC(OCC)OCC
InChI=InChI=1S/C13H28O2/c1-4-7-8-9-10-11-12-13(14-5-2)15-6-3/h13H,4-12H2,1-3H3
computed SMILES=O(CC)C(OCC)CCCCCCCC
accession=JP008455
date=2016.01.19 (Created 2008.10.21, modified 2011.05.06)
author=SODA AROMATIC CO., LTD.
license=CC BY-NC-SA
exact mass=216.20893
ionization energy=70 eV
ion type=[M]+*
computed spectral entropy=2.9819349527000374
computed normalized entropy=0.7978059211315676
SPLASH=splash10-0zi0-9300000000-28bd6b6048dc32f81deb
submitter=submitter = University of Tokyo Team (Faculty of Engineering, University of Tokyo)
MoNA Rating=3.75

>  <NUM PEAKS>  (2756) 
42

>  <MASS SPECTRAL PEAKS>  (2756) 
26 1.14
27 14.48
29 27.5
31 11.39
39 4.02
41 20.59
42 3.09
43 14.46
44 5.43
45 7.34
46 1.26
47 35.54
53 1.6
54 1.81
55 15.31
56 2.4
57 49.13
58 2.37
59 2.94
67 3.26
68 3.04
69 22.7
70 2.05
71 2.19
72 4.01
75 30.62
81 3.49
82 3.94
83 11.68
85 35.75
86 1.85
95 2.56
96 2.05
97 1.23
99 1.98
103 99.99
104 4.35
127 1.78
141 1.03
170 2.55
171 19.42
172 2.17

$$$$

     RDKit          2D

 13 12  0  0  0  0  0  0  0  0999 V2000
    2.5981    6.0000    0.0000 C   0  0  0  0  0  0  0  0  0  0  0  0
   -9.0933    6.7500    0.0000 C   0  0  0  0  0  0  0  0  0  0  0  0
   -6.4952    2.2500    0.0000 C   0  0  0  0  0  0  0  0  0  0  0  0
    1.2990    6.7500    0.0000 C   0  0  0  0  0  0  0  0  0  0  0  0
   -7.7942    6.0000    0.0000 C   0  0  0  0  0  0  0  0  0  0  0  0
   -6.4952    3.7500    0.0000 C   0  0  0  0  0  0  0  0  0  0  0  0
    0.0000    6.0000    0.0000 C   0  0  0  0  0  0  0  0  0  0  0  0
   -1.2990    6.7500    0.0000 C   0  0  0  0  0  0  0  0  0  0  0  0
   -2.5981    6.0000    0.0000 C   0  0  0  0  0  0  0  0  0  0  0  0
   -3.8971    6.7500    0.0000 C   0  0  0  0  0  0  0  0  0  0  0  0
   -5.1962    6.0000    0.0000 C   0  0  0  0  0  0  0  0  0  0  0  0
   -6.4952    6.7500    0.0000 O   0  0  0  0  0  0  0  0  0  0  0  0
   -5.1962    4.5000    0.0000 O   0  0  0  0  0  0  0  0  0  0  0  0
  4  1  1  0
  5  2  1  0
  6  3  1  0
  7  4  1  0
  8  7  1  0
  9  8  1  0
 10  9  1  0
 11 10  1  0
 12  5  1  0
 12 11  1  0
 13  6  1  0
 13 11  1  0
M  END
>  <NAME>  (2757) 
HEPTANAL DIETHYL ACETAL

>  <SYNONYMS>  (2757) 


>  <SPECTRUM TYPE>  (2757) 
MS1

>  <INSTRUMENT TYPE>  (2757) 
EI-B

>  <INSTRUMENT>  (2757) 
HITACHI M-80B

>  <ION MODE>  (2757) 
P

>  <INCHIKEY>  (2757) 
UGOCNHASEZIJFQ-UHFFFAOYSA-N

>  <FORMULA>  (2757) 
C11H24O2

>  <EXACT MASS>  (2757) 
188.177630008

>  <MW>  (2757) 
188

>  <ID>  (2757) 
JP008454

>  <CONTRIBUTOR>  (2757) 
University of Tokyo Team, {Faculty of Engineering, University of Tokyo

>  <COMMENT>  (2757) 
SMILES=CCCCCCC(OCC)OCC
InChI=InChI=1S/C11H24O2/c1-4-7-8-9-10-11(12-5-2)13-6-3/h11H,4-10H2,1-3H3
computed SMILES=O(CC)C(OCC)CCCCCC
accession=JP008454
date=2016.01.19 (Created 2008.10.21, modified 2011.05.06)
author=SODA AROMATIC CO., LTD.
license=CC BY-NC-SA
exact mass=188.17763
ionization energy=70 eV
ion type=[M]+*
computed spectral entropy=2.7500893419908854
computed normalized entropy=0.7674270428652202
SPLASH=splash10-0ufv-9400000000-8fb7540495be524254b7
submitter=submitter = University of Tokyo Team (Faculty of Engineering, University of Tokyo)
MoNA Rating=3.75

>  <NUM PEAKS>  (2757) 
36

>  <MASS SPECTRAL PEAKS>  (2757) 
15 1
19 1.11
27 14.91
28 1.92
29 32.19
30 1.09
31 3.81
39 3.68
41 17.89
42 2.44
43 14.1
44 8.02
45 4.6
47 51.27
53 1.25
55 34.69
56 2.05
57 12.4
58 1.63
59 3.38
67 1.26
69 6.17
70 1.05
72 3.5
73 1.12
75 34.91
76 1.07
85 5.69
88 1.93
97 18.45
98 1.32
103 99.99
104 4.92
113 1.23
143 30.05
144 2.82

$$$$

     RDKit          2D

 10  9  0  0  0  0  0  0  0  0999 V2000
   -6.4952    4.5000    0.0000 C   0  0  0  0  0  0  0  0  0  0  0  0
    2.5981    3.7500    0.0000 C   0  0  0  0  0  0  0  0  0  0  0  0
    1.2990    1.5000    0.0000 C   0  0  0  0  0  0  0  0  0  0  0  0
   -5.1962    3.7500    0.0000 C   0  0  0  0  0  0  0  0  0  0  0  0
   -3.8971    4.5000    0.0000 C   0  0  0  0  0  0  0  0  0  0  0  0
   -2.5981    3.7500    0.0000 C   0  0  0  0  0  0  0  0  0  0  0  0
   -1.2990    4.5000    0.0000 C   0  0  0  0  0  0  0  0  0  0  0  0
    0.0000    3.7500    0.0000 C   0  0  0  0  0  0  0  0  0  0  0  0
    1.2990    4.5000    0.0000 O   0  0  0  0  0  0  0  0  0  0  0  0
   -0.0000    2.2500    0.0000 O   0  0  0  0  0  0  0  0  0  0  0  0
  4  1  1  0
  5  4  1  0
  6  5  1  0
  6  7  2  0
  8  7  1  0
  9  2  1  0
  9  8  1  0
 10  3  1  0
 10  8  1  0
M  END
>  <NAME>  (2758) 
TRANS-2-HEXENAL DIMETHYL ACETAL

>  <SYNONYMS>  (2758) 


>  <SPECTRUM TYPE>  (2758) 
MS1

>  <INSTRUMENT TYPE>  (2758) 
EI-B

>  <INSTRUMENT>  (2758) 
HITACHI M-80B

>  <ION MODE>  (2758) 
P

>  <INCHIKEY>  (2758) 
OSVRJMZINDGZFB-VOTSOKGWSA-N

>  <FORMULA>  (2758) 
C8H16O2

>  <EXACT MASS>  (2758) 
144.115029752

>  <MW>  (2758) 
144

>  <ID>  (2758) 
JP008453

>  <CONTRIBUTOR>  (2758) 
University of Tokyo Team, {Faculty of Engineering, University of Tokyo

>  <COMMENT>  (2758) 
SMILES=CCCC=CC(OC)OC
InChI=InChI=1S/C8H16O2/c1-4-5-6-7-8(9-2)10-3/h6-8H,4-5H2,1-3H3/b7-6+
computed SMILES=O(C)C(OC)C=CCCC
accession=JP008453
date=2016.01.19 (Created 2008.10.21, modified 2011.05.06)
author=SODA AROMATIC CO., LTD.
license=CC BY-NC-SA
exact mass=144.11503
ionization energy=70 eV
ion type=[M]+*
computed spectral entropy=2.751024092502001
computed normalized entropy=0.7360265549006676
SPLASH=splash10-0229-9400000000-22c85836a3bc85149cc5
submitter=submitter = University of Tokyo Team (Faculty of Engineering, University of Tokyo)
MoNA Rating=3.75

>  <NUM PEAKS>  (2758) 
42

>  <MASS SPECTRAL PEAKS>  (2758) 
15 1.63
27 5.69
29 7.53
31 2.19
39 11.28
40 1.23
41 25.2
42 2.18
43 2.06
45 8.06
47 3.64
51 1.35
53 4.16
54 1.51
55 11.4
56 1.76
57 1.16
58 1.27
59 3.59
67 2.18
68 1.16
69 11.04
71 99.99
72 4.6
75 34.61
76 1.01
77 1.01
79 2.25
81 7.08
82 1.09
84 4.26
85 1.89
88 2.82
97 2.48
101 39.39
102 3.27
112 1.29
113 71.35
114 5.53
115 17.36
116 1.04
143 2.04

$$$$

     RDKit          2D

 13 12  0  0  0  0  0  0  0  0999 V2000
    3.2243    2.1361    0.0000 C   0  0  0  0  0  0  0  0  0  0  0  0
    6.5724    4.9351    0.0000 C   0  0  0  0  0  0  0  0  0  0  0  0
    5.0724    2.3370    0.0000 C   0  0  0  0  0  0  0  0  0  0  0  0
    7.1214    2.8861    0.0000 C   0  0  0  0  0  0  0  0  0  0  0  0
   -1.9719    3.6361    0.0000 C   0  0  0  0  0  0  0  0  0  0  0  0
   -0.6728    1.3861    0.0000 C   0  0  0  0  0  0  0  0  0  0  0  0
    1.9252    4.3861    0.0000 C   0  0  0  0  0  0  0  0  0  0  0  0
    4.5233    4.3861    0.0000 C   0  0  0  0  0  0  0  0  0  0  0  0
    3.2243    3.6361    0.0000 C   0  0  0  0  0  0  0  0  0  0  0  0
    0.6262    3.6361    0.0000 C   0  0  0  0  0  0  0  0  0  0  0  0
    5.8224    3.6361    0.0000 C   0  0  0  0  0  0  0  0  0  0  0  0
   -0.6728    4.3861    0.0000 O   0  0  0  0  0  0  0  0  0  0  0  0
    0.6262    2.1361    0.0000 O   0  0  0  0  0  0  0  0  0  0  0  0
  9  1  1  0
  9  7  1  0
  9  8  1  0
 10  7  1  0
 11  2  1  0
 11  3  1  0
 11  4  1  0
 11  8  1  0
 12  5  1  0
 12 10  1  0
 13  6  1  0
 13 10  1  0
M  END
>  <NAME>  (2759) 
ALPINAL DIMETHYL ACETAL

>  <SYNONYMS>  (2759) 
3,5,5-TRIMETHYLHEXANAL DIMETHYL ACETAL

>  <SPECTRUM TYPE>  (2759) 
MS1

>  <INSTRUMENT TYPE>  (2759) 
EI-B

>  <INSTRUMENT>  (2759) 
HITACHI M-80B

>  <ION MODE>  (2759) 
P

>  <INCHIKEY>  (2759) 
OKMANJUJOSTZGX-UHFFFAOYSA-N

>  <FORMULA>  (2759) 
C11H24O2

>  <EXACT MASS>  (2759) 
188.177630008

>  <MW>  (2759) 
188

>  <ID>  (2759) 
JP008452

>  <CONTRIBUTOR>  (2759) 
University of Tokyo Team, {Faculty of Engineering, University of Tokyo

>  <COMMENT>  (2759) 
SMILES=COC(OC)CC(C)CC(C)(C)C
InChI=InChI=1S/C11H24O2/c1-9(8-11(2,3)4)7-10(12-5)13-6/h9-10H,7-8H2,1-6H3
computed SMILES=O(C)C(OC)CC(C)CC(C)(C)C
accession=JP008452
date=2016.01.19 (Created 2008.10.21, modified 2011.05.06)
author=SODA AROMATIC CO., LTD.
license=CC BY-NC-SA
exact mass=188.17763
ionization energy=70 eV
ion type=[M]+*
computed spectral entropy=2.636494952157726
computed normalized entropy=0.7540366796895889
SPLASH=splash10-004i-9000000000-c7dbe3c3990130826351
submitter=submitter = University of Tokyo Team (Faculty of Engineering, University of Tokyo)
MoNA Rating=3.75

>  <NUM PEAKS>  (2759) 
33

>  <MASS SPECTRAL PEAKS>  (2759) 
15 3.55
27 5.22
29 9.55
31 5.83
39 6.15
41 17.66
42 1.19
43 6.5
45 4.31
47 6.99
53 3
55 10.05
56 2.84
57 25.22
58 10.79
59 3.07
67 1.93
68 1.03
69 4.9
71 2.77
72 1.03
75 99.99
76 3.54
81 1.11
83 14.14
84 1.05
85 36.9
86 1.87
99 2.79
101 1.47
109 2.82
156 1.23
157 4.97

$$$$

     RDKit          2D

 14 14  0  0  0  0  0  0  0  0999 V2000
    4.8721    3.8829    0.0000 C   0  0  0  0  0  0  0  0  0  0  0  0
    3.5731    3.1329    0.0000 C   0  0  0  0  0  0  0  0  0  0  0  0
    2.2740    3.8829    0.0000 C   0  0  0  0  0  0  0  0  0  0  0  0
   -8.1183    5.3829    0.0000 C   0  0  0  0  0  0  0  0  0  0  0  0
   -8.1187    3.8821    0.0000 C   0  0  0  0  0  0  0  0  0  0  0  0
   -6.8187    6.1337    0.0000 C   0  0  0  0  0  0  0  0  0  0  0  0
    0.9750    3.1329    0.0000 C   0  0  0  0  0  0  0  0  0  0  0  0
   -6.8197    3.1321    0.0000 C   0  0  0  0  0  0  0  0  0  0  0  0
   -5.5197    5.3837    0.0000 C   0  0  0  0  0  0  0  0  0  0  0  0
   -4.2212    3.1329    0.0000 C   0  0  0  0  0  0  0  0  0  0  0  0
   -0.3240    3.8829    0.0000 C   0  0  0  0  0  0  0  0  0  0  0  0
   -2.9221    3.8829    0.0000 C   0  0  0  0  0  0  0  0  0  0  0  0
   -5.5202    3.8829    0.0000 C   0  0  0  0  0  0  0  0  0  0  0  0
   -1.6231    3.1329    0.0000 O   0  0  0  0  0  0  0  0  0  0  0  0
  2  1  1  0
  3  2  1  0
  5  4  2  0
  6  4  1  0
  7  3  1  0
  8  5  1  0
  9  6  2  0
 11  7  1  0
 12 10  1  0
 13  8  2  0
 13  9  1  0
 13 10  1  0
 14 11  1  0
 14 12  1  0
M  END
>  <NAME>  (2760) 
2-PHENYLETHYL PENTYL ETHER

>  <SYNONYMS>  (2760) 
PHENYLETHYL AMYL ETHER

>  <SPECTRUM TYPE>  (2760) 
MS1

>  <INSTRUMENT TYPE>  (2760) 
EI-B

>  <INSTRUMENT>  (2760) 
HITACHI M-80B

>  <ION MODE>  (2760) 
P

>  <INCHIKEY>  (2760) 
HNIRLTDJIGVHOG-UHFFFAOYSA-N

>  <FORMULA>  (2760) 
C13H20O

>  <EXACT MASS>  (2760) 
192.15141526

>  <MW>  (2760) 
192

>  <ID>  (2760) 
JP008451

>  <CONTRIBUTOR>  (2760) 
University of Tokyo Team, {Faculty of Engineering, University of Tokyo

>  <COMMENT>  (2760) 
SMILES=CCCCCOCCc(c1)cccc1
InChI=InChI=1S/C13H20O/c1-2-3-7-11-14-12-10-13-8-5-4-6-9-13/h4-6,8-9H,2-3,7,10-12H2,1H3
computed SMILES=O(CCC=1C=CC=CC1)CCCCC
accession=JP008451
date=2016.01.19 (Created 2008.10.21, modified 2011.05.06)
author=SODA AROMATIC CO., LTD.
license=CC BY-NC-SA
exact mass=192.15142
ionization energy=70 eV
ion type=[M]+*
computed spectral entropy=2.830439692906962
computed normalized entropy=0.7838560059744674
SPLASH=splash10-006x-9200000000-0e09103c6939a58cf8ff
submitter=submitter = University of Tokyo Team (Faculty of Engineering, University of Tokyo)
MoNA Rating=3.75

>  <NUM PEAKS>  (2760) 
37

>  <MASS SPECTRAL PEAKS>  (2760) 
27 9.24
29 12.42
31 1.18
39 7.75
41 14.76
42 3.38
43 74.57
44 2.29
45 1.41
50 1.11
51 5.55
52 1.06
53 1.26
55 6.18
63 1.82
65 7.76
69 13.12
70 1.59
71 99.99
72 5.56
77 13.28
78 8.85
79 9.22
89 1.31
91 28.75
92 15.09
93 1.19
101 9.32
102 1.02
103 7.3
104 6.61
105 26.49
106 23.81
107 1.59
122 1.09
174 2.53
192 6.85

$$$$

     RDKit          2D

 13 13  0  0  0  0  0  0  0  0999 V2000
   -6.8197    3.1321    0.0000 C   0  0  0  0  0  0  0  0  0  0  0  0
   -5.5207    5.3821    0.0000 C   0  0  0  0  0  0  0  0  0  0  0  0
    3.5726    1.6321    0.0000 C   0  0  0  0  0  0  0  0  0  0  0  0
    3.5731    3.1329    0.0000 C   0  0  0  0  0  0  0  0  0  0  0  0
    2.2731    0.8813    0.0000 C   0  0  0  0  0  0  0  0  0  0  0  0
    2.2740    3.8829    0.0000 C   0  0  0  0  0  0  0  0  0  0  0  0
    0.9740    1.6313    0.0000 C   0  0  0  0  0  0  0  0  0  0  0  0
   -4.2216    3.1321    0.0000 C   0  0  0  0  0  0  0  0  0  0  0  0
   -2.9226    3.8821    0.0000 C   0  0  0  0  0  0  0  0  0  0  0  0
   -0.3245    3.8821    0.0000 C   0  0  0  0  0  0  0  0  0  0  0  0
   -5.5207    3.8821    0.0000 C   0  0  0  0  0  0  0  0  0  0  0  0
    0.9745    3.1321    0.0000 C   0  0  0  0  0  0  0  0  0  0  0  0
   -1.6236    3.1321    0.0000 O   0  0  0  0  0  0  0  0  0  0  0  0
  4  3  2  0
  5  3  1  0
  6  4  1  0
  7  5  2  0
  9  8  1  0
 11  1  1  0
 11  2  1  0
 11  8  1  0
 12  6  2  0
 12  7  1  0
 12 10  1  0
 13  9  1  0
 13 10  1  0
M  END
>  <NAME>  (2761) 
3-METHYLBUTOXYMETHYLBENZENE

>  <SYNONYMS>  (2761) 
BENZYL ISOAMYL ETHER

>  <SPECTRUM TYPE>  (2761) 
MS1

>  <INSTRUMENT TYPE>  (2761) 
EI-B

>  <INSTRUMENT>  (2761) 
HITACHI M-80B

>  <ION MODE>  (2761) 
P

>  <INCHIKEY>  (2761) 
RXXCIBALSKQCAE-UHFFFAOYSA-N

>  <FORMULA>  (2761) 
C12H18O

>  <EXACT MASS>  (2761) 
178.135765196

>  <MW>  (2761) 
178

>  <ID>  (2761) 
JP008450

>  <CONTRIBUTOR>  (2761) 
University of Tokyo Team, {Faculty of Engineering, University of Tokyo

>  <COMMENT>  (2761) 
SMILES=CC(C)CCOCc(c1)cccc1
InChI=InChI=1S/C12H18O/c1-11(2)8-9-13-10-12-6-4-3-5-7-12/h3-7,11H,8-10H2,1-2H3
computed SMILES=O(CC=1C=CC=CC1)CCC(C)C
accession=JP008450
date=2016.01.19 (Created 2008.10.21, modified 2011.05.06)
author=SODA AROMATIC CO., LTD.
license=CC BY-NC-SA
exact mass=178.13577
ion type=[M]+*
ionization energy=70 eV
computed spectral entropy=2.247025794461099
computed normalized entropy=0.6817770071202752
SPLASH=splash10-0006-9000000000-03677ef69de3b719cef0
submitter=submitter = University of Tokyo Team (Faculty of Engineering, University of Tokyo)
MoNA Rating=3.75

>  <NUM PEAKS>  (2761) 
27

>  <MASS SPECTRAL PEAKS>  (2761) 
27 5.78
29 5.47
39 9.38
41 12.25
42 1.59
43 15.79
50 1.03
51 3.79
52 1.03
55 2.13
57 2.46
63 1.98
65 11.2
69 5.07
70 1.72
71 2.23
77 4.64
78 1.71
79 4.29
89 2.11
90 1.43
91 99.99
92 65.64
93 3.7
105 1.95
107 3.01
108 5.03

$$$$

     RDKit          2D

 14 14  0  0  0  0  0  0  0  0999 V2000
   10.0231    1.2915    0.0000 C   0  0  0  0  0  0  0  0  0  0  0  0
    8.7242    0.5412    0.0000 C   0  0  0  0  0  0  0  0  0  0  0  0
   -1.6700   -0.9600    0.0000 C   0  0  0  0  0  0  0  0  0  0  0  0
   -1.6700    0.5400    0.0000 C   0  0  0  0  0  0  0  0  0  0  0  0
   -0.3700   -1.7100    0.0000 C   0  0  0  0  0  0  0  0  0  0  0  0
   -0.3700    1.2900    0.0000 C   0  0  0  0  0  0  0  0  0  0  0  0
    0.9300   -0.9600    0.0000 C   0  0  0  0  0  0  0  0  0  0  0  0
    3.5281    0.5404    0.0000 C   0  0  0  0  0  0  0  0  0  0  0  0
    4.8270    1.2906    0.0000 C   0  0  0  0  0  0  0  0  0  0  0  0
    0.9300    0.5400    0.0000 C   0  0  0  0  0  0  0  0  0  0  0  0
    7.4251    1.2910    0.0000 C   0  0  0  0  0  0  0  0  0  0  0  0
    7.4248    2.7910    0.0000 O   0  0  0  0  0  0  0  0  0  0  0  0
    2.2289    1.2902    0.0000 O   0  0  0  0  0  0  0  0  0  0  0  0
    6.1262    0.5408    0.0000 O   0  0  0  0  0  0  0  0  0  0  0  0
  2  1  1  0
  4  3  2  0
  5  3  1  0
  6  4  1  0
  7  5  2  0
  9  8  1  0
 10  6  2  0
 10  7  1  0
 11  2  1  0
 12 11  2  0
 13  8  1  0
 13 10  1  0
 14  9  1  0
 14 11  1  0
M  END
>  <NAME>  (2762) 
2-PHENOXYETHYL PROPIONATE

>  <SYNONYMS>  (2762) 


>  <SPECTRUM TYPE>  (2762) 
MS1

>  <INSTRUMENT TYPE>  (2762) 
EI-B

>  <INSTRUMENT>  (2762) 
HITACHI M-80B

>  <ION MODE>  (2762) 
P

>  <INCHIKEY>  (2762) 
FKTSMIXZGPUSJB-UHFFFAOYSA-N

>  <FORMULA>  (2762) 
C11H14O3

>  <EXACT MASS>  (2762) 
194.09429430799997

>  <MW>  (2762) 
194

>  <ID>  (2762) 
JP008449

>  <CONTRIBUTOR>  (2762) 
University of Tokyo Team, {Faculty of Engineering, University of Tokyo

>  <COMMENT>  (2762) 
SMILES=CCC(=O)OCCOc(c1)cccc1
InChI=InChI=1S/C11H14O3/c1-2-11(12)14-9-8-13-10-6-4-3-5-7-10/h3-7H,2,8-9H2,1H3
computed SMILES=O=C(OCCOC=1C=CC=CC1)CC
accession=JP008449
date=2016.01.19 (Created 2008.10.21, modified 2011.05.06)
author=SODA AROMATIC CO., LTD.
license=CC BY-NC-SA
exact mass=194.09429
ionization energy=70 eV
ion type=[M]+*
computed spectral entropy=2.3536517033285773
computed normalized entropy=0.6920067962002119
SPLASH=splash10-0zi0-9400000000-b0dc2f577ab6870f2792
submitter=submitter = University of Tokyo Team (Faculty of Engineering, University of Tokyo)
MoNA Rating=3.75

>  <NUM PEAKS>  (2762) 
30

>  <MASS SPECTRAL PEAKS>  (2762) 
26 1.87
27 11.92
28 4.41
29 40.81
38 1.63
39 10.28
40 1.05
43 1.68
50 2.4
51 11.21
55 2.02
57 74.61
58 2
63 2.38
64 1.06
65 10.91
66 2.59
77 24.35
78 1.8
79 1.59
91 3.08
93 1.76
94 10.49
101 99.99
102 4.27
107 2.37
119 1.02
120 2.86
121 1.43
194 2.03

$$$$

     RDKit          2D

 13 13  0  0  0  0  0  0  0  0999 V2000
   -1.8800   -1.2000    0.0000 C   0  0  0  0  0  0  0  0  0  0  0  0
   -2.6300    0.1000    0.0000 C   0  0  0  0  0  0  0  0  0  0  0  0
   -0.3800   -1.2000    0.0000 C   0  0  0  0  0  0  0  0  0  0  0  0
   -1.8800    1.4000    0.0000 C   0  0  0  0  0  0  0  0  0  0  0  0
    0.3700    0.1000    0.0000 C   0  0  0  0  0  0  0  0  0  0  0  0
   -0.3700    1.4000    0.0000 C   0  0  0  0  0  0  0  0  0  0  0  0
    1.8800    0.1000    0.0000 C   0  0  0  0  0  0  0  0  0  0  0  0
    0.3800    2.7000    0.0000 C   0  0  0  0  0  0  0  0  0  0  0  0
    2.6300    1.4000    0.0000 C   0  0  0  0  0  0  0  0  0  0  0  0
    4.1302    3.9987    0.0000 C   0  0  0  0  0  0  0  0  0  0  0  0
    1.8800    2.7000    0.0000 C   0  0  0  0  0  0  0  0  0  0  0  0
    4.8804    5.2976    0.0000 O   0  0  0  0  0  0  0  0  0  0  0  0
    2.6302    3.9989    0.0000 O   0  0  0  0  0  0  0  0  0  0  0  0
  2  1  1  0
  3  1  1  0
  4  2  1  0
  5  3  1  0
  6  4  1  0
  7  5  1  0
  8  6  1  0
  9  7  1  0
 11  8  1  0
 11  9  1  0
 12 10  2  0
 13 10  1  0
 13 11  1  0
M  END
>  <NAME>  (2763) 
CYCLODECYL FORMATE

>  <SYNONYMS>  (2763) 


>  <SPECTRUM TYPE>  (2763) 
MS1

>  <INSTRUMENT TYPE>  (2763) 
EI-B

>  <INSTRUMENT>  (2763) 
HITACHI M-80B

>  <ION MODE>  (2763) 
P

>  <INCHIKEY>  (2763) 
GWTPFNCVVFCJJK-UHFFFAOYSA-N

>  <FORMULA>  (2763) 
C11H20O2

>  <EXACT MASS>  (2763) 
184.14632988

>  <MW>  (2763) 
184

>  <ID>  (2763) 
JP008448

>  <CONTRIBUTOR>  (2763) 
University of Tokyo Team, {Faculty of Engineering, University of Tokyo

>  <COMMENT>  (2763) 
SMILES=O=COC(C1)CCCCCCCC1
InChI=InChI=1S/C11H20O2/c12-10-13-11-8-6-4-2-1-3-5-7-9-11/h10-11H,1-9H2
computed SMILES=O=COC1CCCCCCCCC1
accession=JP008448
date=2016.01.19 (Created 2008.10.21, modified 2011.05.06)
author=SODA AROMATIC CO., LTD.
license=CC BY-NC-SA
exact mass=184.14633
ionization energy=70 eV
ion type=[M]+*
computed spectral entropy=2.8107788805294263
computed normalized entropy=0.8038818252549551
SPLASH=splash10-0a59-9000000000-8d27bb255596fc9e59b5
submitter=submitter = University of Tokyo Team (Faculty of Engineering, University of Tokyo)
MoNA Rating=3.75

>  <NUM PEAKS>  (2763) 
33

>  <MASS SPECTRAL PEAKS>  (2763) 
27 4.91
29 13.07
31 1.02
39 6.82
41 30.3
42 1.76
43 6.57
44 1.74
53 4.62
54 6.22
55 12.23
56 32.08
57 99.99
58 4.62
65 1.03
67 32.71
68 2.41
69 5.49
77 1.44
79 4.87
80 14.77
81 20.52
82 38.05
83 27.77
84 1.71
95 2.26
123 15.13
124 1.26
127 3.19
128 3.57
129 9.62
138 5.11
139 1.53

$$$$

     RDKit          2D

 12 12  0  0  0  0  0  0  0  0999 V2000
    5.1970    0.8306    0.0000 C   0  0  0  0  0  0  0  0  0  0  0  0
    3.8981    0.0804    0.0000 C   0  0  0  0  0  0  0  0  0  0  0  0
   -0.0000   -2.1700    0.0000 C   0  0  0  0  0  0  0  0  0  0  0  0
   -1.3000   -1.4200    0.0000 C   0  0  0  0  0  0  0  0  0  0  0  0
    1.3000   -1.4200    0.0000 C   0  0  0  0  0  0  0  0  0  0  0  0
   -2.5989    0.8302    0.0000 C   0  0  0  0  0  0  0  0  0  0  0  0
   -1.3000    0.0800    0.0000 C   0  0  0  0  0  0  0  0  0  0  0  0
    1.3000    0.0800    0.0000 C   0  0  0  0  0  0  0  0  0  0  0  0
   -0.0000    0.8300    0.0000 C   0  0  0  0  0  0  0  0  0  0  0  0
   -3.8981    0.0804    0.0000 O   0  0  0  0  0  0  0  0  0  0  0  0
    0.0000    2.3300    0.0000 O   0  0  0  0  0  0  0  0  0  0  0  0
    2.5989    0.8302    0.0000 O   0  0  0  0  0  0  0  0  0  0  0  0
  2  1  1  0
  4  3  2  0
  5  3  1  0
  7  4  1  0
  7  6  1  0
  8  5  2  0
  9  7  2  0
  9  8  1  0
 10  6  2  0
 11  9  1  0
 12  2  1  0
 12  8  1  0
M  END
>  <NAME>  (2764) 
3-ETHOXY-2-HYDROXYBENZALDEHYDE

>  <SYNONYMS>  (2764) 
O-ETHYL VANILLIN

>  <SPECTRUM TYPE>  (2764) 
MS1

>  <INSTRUMENT TYPE>  (2764) 
EI-B

>  <INSTRUMENT>  (2764) 
HITACHI M-80B

>  <ION MODE>  (2764) 
P

>  <INCHIKEY>  (2764) 
OFQBYHLLIJGMNP-UHFFFAOYSA-N

>  <FORMULA>  (2764) 
C9H10O3

>  <EXACT MASS>  (2764) 
166.06299417999998

>  <MW>  (2764) 
166

>  <ID>  (2764) 
JP008447

>  <CONTRIBUTOR>  (2764) 
University of Tokyo Team, {Faculty of Engineering, University of Tokyo

>  <COMMENT>  (2764) 
SMILES=CCOc(c1)c(O)c(C=O)cc1
InChI=InChI=1S/C9H10O3/c1-2-12-8-5-3-4-7(6-10)9(8)11/h3-6,11H,2H2,1H3
computed SMILES=O=CC=1C=CC=C(OCC)C1O
accession=JP008447
date=2016.01.19 (Created 2008.10.21, modified 2011.05.06)
author=SODA AROMATIC CO., LTD.
license=CC BY-NC-SA
exact mass=166.06299
ionization energy=70 eV
ion type=[M]+*
computed spectral entropy=3.030917425908964
computed normalized entropy=0.8009422674652441
SPLASH=splash10-000i-5900000000-1bd90f309d66e48552f6
submitter=submitter = University of Tokyo Team (Faculty of Engineering, University of Tokyo)
MoNA Rating=3.75

>  <NUM PEAKS>  (2764) 
44

>  <MASS SPECTRAL PEAKS>  (2764) 
26 4.6
27 25.15
29 16.95
37 1.06
38 3.87
39 11.77
43 1.31
50 6.71
51 12.79
52 11.72
53 18.14
54 2.91
55 13.79
61 1.06
62 3.28
63 12.33
64 9.8
65 8.45
66 2.04
75 1.63
76 1.14
77 1.43
79 4.55
80 3.22
81 23.18
82 3.63
91 2.62
92 26.68
93 4.6
107 2.83
108 5.24
109 18.61
110 8.4
120 28.48
121 4.55
122 4.88
123 1.17
136 5.33
137 99.99
138 96.57
139 7.85
151 2.34
166 71.46
167 7.15

$$$$

     RDKit          2D

 12 12  0  0  0  0  0  0  0  0999 V2000
    5.5560    0.5453    0.0000 C   0  0  0  0  0  0  0  0  0  0  0  0
    4.2568   -0.2045    0.0000 C   0  0  0  0  0  0  0  0  0  0  0  0
   -0.9403   -1.7057    0.0000 C   0  0  0  0  0  0  0  0  0  0  0  0
    0.3587   -2.4557    0.0000 C   0  0  0  0  0  0  0  0  0  0  0  0
    0.3597    0.5459    0.0000 C   0  0  0  0  0  0  0  0  0  0  0  0
   -2.2389    0.5451    0.0000 C   0  0  0  0  0  0  0  0  0  0  0  0
   -0.9398   -0.2049    0.0000 C   0  0  0  0  0  0  0  0  0  0  0  0
    1.6583   -1.7049    0.0000 C   0  0  0  0  0  0  0  0  0  0  0  0
    1.6587   -0.2041    0.0000 C   0  0  0  0  0  0  0  0  0  0  0  0
   -3.5379   -0.2049    0.0000 O   0  0  0  0  0  0  0  0  0  0  0  0
    2.9573   -2.4549    0.0000 O   0  0  0  0  0  0  0  0  0  0  0  0
    2.9579    0.5457    0.0000 O   0  0  0  0  0  0  0  0  0  0  0  0
  2  1  1  0
  4  3  2  0
  7  3  1  0
  7  5  2  0
  7  6  1  0
  8  4  1  0
  9  5  1  0
  9  8  2  0
 10  6  2  0
 11  8  1  0
 12  2  1  0
 12  9  1  0
M  END
>  <NAME>  (2765) 
3-ETHOXY-4-HYDROXYBENZALDEHYDE

>  <SYNONYMS>  (2765) 
ETHYL VANILLIN

>  <SPECTRUM TYPE>  (2765) 
MS1

>  <INSTRUMENT TYPE>  (2765) 
EI-B

>  <INSTRUMENT>  (2765) 
HITACHI M-80B

>  <ION MODE>  (2765) 
P

>  <INCHIKEY>  (2765) 
CBOQJANXLMLOSS-UHFFFAOYSA-N

>  <FORMULA>  (2765) 
C9H10O3

>  <EXACT MASS>  (2765) 
166.06299417999998

>  <MW>  (2765) 
166

>  <ID>  (2765) 
JP008446

>  <CONTRIBUTOR>  (2765) 
University of Tokyo Team, {Faculty of Engineering, University of Tokyo

>  <COMMENT>  (2765) 
SMILES=CCOc(c1)c(O)ccc(C=O)1
InChI=InChI=1S/C9H10O3/c1-2-12-9-5-7(6-10)3-4-8(9)11/h3-6,11H,2H2,1H3
computed SMILES=O=CC1=CC=C(O)C(OCC)=C1
accession=JP008446
date=2016.01.19 (Created 2008.10.21, modified 2011.05.06)
author=SODA AROMATIC CO., LTD.
license=CC BY-NC-SA
exact mass=166.06299
ionization energy=70 eV
ion type=[M]+*
computed spectral entropy=2.5569491829028483
computed normalized entropy=0.7446006728164873
SPLASH=splash10-000i-4900000000-5cc4d780ed9e9279561d
submitter=submitter = University of Tokyo Team (Faculty of Engineering, University of Tokyo)
MoNA Rating=3.75

>  <NUM PEAKS>  (2765) 
31

>  <MASS SPECTRAL PEAKS>  (2765) 
26 1.94
27 12.1
28 10.44
29 11.66
32 2.1
38 1.14
39 4.81
50 3.94
51 7.46
52 6.33
53 7.91
55 3.29
62 2
63 4.89
64 2.56
65 3.17
79 3.29
80 1.61
81 12.95
82 2.7
91 1.48
92 1.16
108 1.47
109 11.57
110 4.41
136 1.5
137 99.99
138 35.53
139 3.05
166 49.31
167 4.33

$$$$

     RDKit          2D

 11 11  0  0  0  0  0  0  0  0999 V2000
   -1.9139    3.7324    0.0000 C   0  0  0  0  0  0  0  0  0  0  0  0
    1.9837    1.4833    0.0000 C   0  0  0  0  0  0  0  0  0  0  0  0
    0.6847    2.2333    0.0000 C   0  0  0  0  0  0  0  0  0  0  0  0
    0.6837   -0.7684    0.0000 C   0  0  0  0  0  0  0  0  0  0  0  0
    3.2823   -0.7676    0.0000 C   0  0  0  0  0  0  0  0  0  0  0  0
    1.9832   -0.0176    0.0000 C   0  0  0  0  0  0  0  0  0  0  0  0
   -0.6153   -0.0184    0.0000 C   0  0  0  0  0  0  0  0  0  0  0  0
   -0.6148    1.4824    0.0000 C   0  0  0  0  0  0  0  0  0  0  0  0
    4.5813   -0.0176    0.0000 O   0  0  0  0  0  0  0  0  0  0  0  0
   -1.9145   -0.7682    0.0000 O   0  0  0  0  0  0  0  0  0  0  0  0
   -1.9139    2.2324    0.0000 O   0  0  0  0  0  0  0  0  0  0  0  0
  3  2  2  0
  6  2  1  0
  6  4  2  0
  6  5  1  0
  7  4  1  0
  8  3  1  0
  8  7  2  0
  9  5  2  0
 10  7  1  0
 11  1  1  0
 11  8  1  0
M  END
>  <NAME>  (2766) 
3-HYDROXY-4-METHOXYBENZALDEHYDE

>  <SYNONYMS>  (2766) 
ISOVANILLIN

>  <SPECTRUM TYPE>  (2766) 
MS1

>  <INSTRUMENT TYPE>  (2766) 
EI-B

>  <INSTRUMENT>  (2766) 
HITACHI M-80B

>  <ION MODE>  (2766) 
P

>  <INCHIKEY>  (2766) 
JVTZFYYHCGSXJV-UHFFFAOYSA-N

>  <FORMULA>  (2766) 
C8H8O3

>  <EXACT MASS>  (2766) 
152.04734411599998

>  <MW>  (2766) 
152

>  <ID>  (2766) 
JP008445

>  <CONTRIBUTOR>  (2766) 
University of Tokyo Team, {Faculty of Engineering, University of Tokyo

>  <COMMENT>  (2766) 
SMILES=O=Cc(c1)cc(O)c(OC)c1
InChI=InChI=1S/C8H8O3/c1-11-8-3-2-6(5-9)4-7(8)10/h2-5,10H,1H3
computed SMILES=O=CC1=CC=C(OC)C(O)=C1
accession=JP008445
date=2016.01.19 (Created 2008.10.21, modified 2011.05.06)
author=SODA AROMATIC CO., LTD.
license=CC BY-NC-SA
exact mass=152.04734
ionization energy=70 eV
ion type=[M]+*
computed spectral entropy=2.6841502491218314
computed normalized entropy=0.7611672800851798
SPLASH=splash10-0udi-6900000000-42458bd49931f933ff18
submitter=submitter = University of Tokyo Team (Faculty of Engineering, University of Tokyo)
MoNA Rating=3.75

>  <NUM PEAKS>  (2766) 
34

>  <MASS SPECTRAL PEAKS>  (2766) 
14 1.08
15 2.4
16 1.49
27 6.88
29 6.86
32 3.4
38 4.21
39 8.4
41 4.14
50 7.78
51 14.66
52 13.6
53 13.57
55 4.62
61 1.15
62 4.46
63 8.05
65 8.14
67 2.78
69 1.14
77 5.52
79 7.85
80 5.17
81 27.54
93 1.07
95 2.09
108 8.21
109 18.29
123 11.57
136 1.25
137 5.02
151 99.29
152 99.99
153 7.9

$$$$

     RDKit          2D

 11 11  0  0  0  0  0  0  0  0999 V2000
    3.8981    0.0804    0.0000 C   0  0  0  0  0  0  0  0  0  0  0  0
   -0.0000   -2.1700    0.0000 C   0  0  0  0  0  0  0  0  0  0  0  0
   -1.3000   -1.4200    0.0000 C   0  0  0  0  0  0  0  0  0  0  0  0
    1.3000   -1.4200    0.0000 C   0  0  0  0  0  0  0  0  0  0  0  0
   -2.5989    0.8302    0.0000 C   0  0  0  0  0  0  0  0  0  0  0  0
   -1.3000    0.0800    0.0000 C   0  0  0  0  0  0  0  0  0  0  0  0
    1.3000    0.0800    0.0000 C   0  0  0  0  0  0  0  0  0  0  0  0
   -0.0000    0.8300    0.0000 C   0  0  0  0  0  0  0  0  0  0  0  0
   -3.8981    0.0804    0.0000 O   0  0  0  0  0  0  0  0  0  0  0  0
    0.0000    2.3300    0.0000 O   0  0  0  0  0  0  0  0  0  0  0  0
    2.5989    0.8302    0.0000 O   0  0  0  0  0  0  0  0  0  0  0  0
  3  2  2  0
  4  2  1  0
  6  3  1  0
  6  5  1  0
  7  4  2  0
  8  6  2  0
  8  7  1  0
  9  5  2  0
 10  8  1  0
 11  1  1  0
 11  7  1  0
M  END
>  <NAME>  (2767) 
2-HYDROXY-3-METHOXYBENZALDEHYDE

>  <SYNONYMS>  (2767) 
O-VANILLIN

>  <SPECTRUM TYPE>  (2767) 
MS1

>  <INSTRUMENT TYPE>  (2767) 
EI-B

>  <INSTRUMENT>  (2767) 
HITACHI M-80B

>  <ION MODE>  (2767) 
P

>  <INCHIKEY>  (2767) 
JJVNINGBHGBWJH-UHFFFAOYSA-N

>  <FORMULA>  (2767) 
C8H8O3

>  <EXACT MASS>  (2767) 
152.04734411599998

>  <MW>  (2767) 
152

>  <ID>  (2767) 
JP008444

>  <CONTRIBUTOR>  (2767) 
University of Tokyo Team, {Faculty of Engineering, University of Tokyo

>  <COMMENT>  (2767) 
SMILES=O=Cc(c1)c(O)c(OC)cc1
InChI=InChI=1S/C8H8O3/c1-11-7-4-2-3-6(5-9)8(7)10/h2-5,10H,1H3
computed SMILES=O=CC=1C=CC=C(OC)C1O
accession=JP008444
date=2016.01.19 (Created 2008.10.21, modified 2011.05.06)
author=SODA AROMATIC CO., LTD.
license=CC BY-NC-SA
exact mass=152.04734
ionization energy=70 eV
ion type=[M]+*
computed spectral entropy=3.368038736556705
computed normalized entropy=0.8404688556889537
SPLASH=splash10-0zfr-7900000000-5a666fa369d0826b7411
submitter=submitter = University of Tokyo Team (Faculty of Engineering, University of Tokyo)
MoNA Rating=3.75

>  <NUM PEAKS>  (2767) 
55

>  <MASS SPECTRAL PEAKS>  (2767) 
15 3.88
17 1.29
26 2.95
27 9.36
29 9.08
37 1.71
38 4.88
39 10.97
41 3
49 1.38
50 9.06
51 12.77
52 12.78
53 19.19
54 2.68
55 11.62
61 2.18
62 4.43
63 9.44
64 3.96
65 8.39
66 3.37
67 2.79
69 1.37
74 1.66
75 1.64
76 10.48
77 5.61
78 5.69
79 5.81
80 4.61
81 28.04
82 1.34
92 5.52
93 4.37
94 1.05
95 2.89
104 1.65
105 5.8
106 40.22
107 6.29
108 9.68
109 34.93
110 2.45
120 4.48
121 6.49
122 12.32
123 4.55
124 1.96
133 2.32
136 4.38
137 3.81
151 16.45
152 99.99
153 7.75

$$$$

     RDKit          2D

 11 11  0  0  0  0  0  0  0  0999 V2000
   -3.5381    0.5444    0.0000 C   0  0  0  0  0  0  0  0  0  0  0  0
    1.6590    2.0456    0.0000 C   0  0  0  0  0  0  0  0  0  0  0  0
    0.3600    2.7956    0.0000 C   0  0  0  0  0  0  0  0  0  0  0  0
    0.3590   -0.2060    0.0000 C   0  0  0  0  0  0  0  0  0  0  0  0
    2.9576   -0.2052    0.0000 C   0  0  0  0  0  0  0  0  0  0  0  0
    1.6586    0.5448    0.0000 C   0  0  0  0  0  0  0  0  0  0  0  0
   -0.9395    2.0448    0.0000 C   0  0  0  0  0  0  0  0  0  0  0  0
   -0.9400    0.5440    0.0000 C   0  0  0  0  0  0  0  0  0  0  0  0
    4.2566    0.5448    0.0000 O   0  0  0  0  0  0  0  0  0  0  0  0
   -2.2386    2.7948    0.0000 O   0  0  0  0  0  0  0  0  0  0  0  0
   -2.2392   -0.2058    0.0000 O   0  0  0  0  0  0  0  0  0  0  0  0
  3  2  2  0
  6  2  1  0
  6  4  2  0
  6  5  1  0
  7  3  1  0
  8  4  1  0
  8  7  2  0
  9  5  2  0
 10  7  1  0
 11  1  1  0
 11  8  1  0
M  END
>  <NAME>  (2768) 
4-HYDROXY-3-METHOXYBENZALDEHYDE

>  <SYNONYMS>  (2768) 
VANILLIN

>  <SPECTRUM TYPE>  (2768) 
MS1

>  <INSTRUMENT TYPE>  (2768) 
EI-B

>  <INSTRUMENT>  (2768) 
HITACHI M-80B

>  <ION MODE>  (2768) 
P

>  <INCHIKEY>  (2768) 
MWOOGOJBHIARFG-UHFFFAOYSA-N

>  <FORMULA>  (2768) 
C8H8O3

>  <EXACT MASS>  (2768) 
152.04734411599998

>  <MW>  (2768) 
152

>  <ID>  (2768) 
JP008443

>  <CONTRIBUTOR>  (2768) 
University of Tokyo Team, {Faculty of Engineering, University of Tokyo

>  <COMMENT>  (2768) 
SMILES=O=Cc(c1)cc(OC)c(O)c1
InChI=InChI=1S/C8H8O3/c1-11-8-4-6(5-9)2-3-7(8)10/h2-5,10H,1H3
computed SMILES=O=CC1=CC=C(O)C(OC)=C1
accession=JP008443
date=2016.01.19 (Created 2008.10.21, modified 2011.05.06)
author=SODA AROMATIC CO., LTD.
license=CC BY-NC-SA
exact mass=152.04734
ionization energy=70 eV
ion type=[M]+*
computed spectral entropy=3.048333603721218
computed normalized entropy=0.7714871116114367
SPLASH=splash10-0udi-7900000000-ee0a0ad1232fa889e567
submitter=submitter = University of Tokyo Team (Faculty of Engineering, University of Tokyo)
MoNA Rating=3.75

>  <NUM PEAKS>  (2768) 
52

>  <MASS SPECTRAL PEAKS>  (2768) 
15 4.89
17 1.17
26 2.78
27 7.29
29 9.75
31 2.11
37 3.02
38 5.41
39 11.02
41 3.09
42 1.83
43 1.16
45 1.26
49 2.09
50 9.69
51 16.86
52 18.47
53 16.77
54 2.29
55 4.62
61 2.57
62 5.51
63 9.26
64 2.84
65 9.9
66 2.19
67 3.54
69 1.96
75 1.04
77 6.05
78 1.33
79 8.16
80 5.85
81 37.44
82 2.43
91 2.09
92 2.22
93 2.45
95 3.21
107 1.22
108 8.13
109 22.03
110 1.99
119 1.12
121 1.48
123 12.48
124 2.28
136 2.48
137 6.87
151 99.99
152 99.16
153 8.02

$$$$

     RDKit          2D

  9  9  0  0  0  0  0  0  0  0999 V2000
    0.6473    1.8688    0.0000 C   0  0  0  0  0  0  0  0  0  0  0  0
   -0.6473    1.1266    0.0000 C   0  0  0  0  0  0  0  0  0  0  0  0
    1.9463    1.1188    0.0000 C   0  0  0  0  0  0  0  0  0  0  0  0
    0.6513   -1.1242    0.0000 C   0  0  0  0  0  0  0  0  0  0  0  0
   -1.9469   -1.1240    0.0000 C   0  0  0  0  0  0  0  0  0  0  0  0
   -0.6477   -0.3742    0.0000 C   0  0  0  0  0  0  0  0  0  0  0  0
    1.9508   -0.3734    0.0000 C   0  0  0  0  0  0  0  0  0  0  0  0
   -3.2458   -0.3738    0.0000 O   0  0  0  0  0  0  0  0  0  0  0  0
    3.2511   -1.1212    0.0000 O   0  0  0  0  0  0  0  0  0  0  0  0
  2  1  2  0
  3  1  1  0
  6  2  1  0
  6  4  2  0
  6  5  1  0
  7  3  2  0
  7  4  1  0
  8  5  2  0
  9  7  1  0
M  END
>  <NAME>  (2769) 
M-HYDROXYBENZALDEHYDE

>  <SYNONYMS>  (2769) 


>  <SPECTRUM TYPE>  (2769) 
MS1

>  <INSTRUMENT TYPE>  (2769) 
EI-B

>  <INSTRUMENT>  (2769) 
HITACHI M-80B

>  <ION MODE>  (2769) 
P

>  <INCHIKEY>  (2769) 
IAVREABSGIHHMO-UHFFFAOYSA-N

>  <FORMULA>  (2769) 
C7H6O2

>  <EXACT MASS>  (2769) 
122.036779432

>  <MW>  (2769) 
122

>  <ID>  (2769) 
JP008442

>  <CONTRIBUTOR>  (2769) 
University of Tokyo Team, {Faculty of Engineering, University of Tokyo

>  <COMMENT>  (2769) 
SMILES=O=Cc(c1)cc(O)cc1
InChI=InChI=1S/C7H6O2/c8-5-6-2-1-3-7(9)4-6/h1-5,9H
computed SMILES=O=CC=1C=CC=C(O)C1
accession=JP008442
date=2016.01.19 (Created 2008.10.21, modified 2011.05.06)
author=SODA AROMATIC CO., LTD.
license=CC BY-NC-SA
exact mass=122.03678
ionization energy=70 eV
ion type=[M]+*
computed spectral entropy=2.5515197833277234
computed normalized entropy=0.765715242127671
SPLASH=splash10-00di-9600000000-c2df58cb702decaf4bfe
submitter=submitter = University of Tokyo Team (Faculty of Engineering, University of Tokyo)
MoNA Rating=3.75

>  <NUM PEAKS>  (2769) 
28

>  <MASS SPECTRAL PEAKS>  (2769) 
26 1.37
27 2.33
29 10.41
37 4.94
38 11.13
39 36.29
40 5.14
49 1.17
50 8.01
51 5.52
53 7.51
55 3.9
61 4.2
62 7.48
63 14.99
64 6.54
65 45.75
66 11.77
73 1.13
74 3.57
75 1.88
76 1.51
92 1.75
93 47.36
94 10.1
121 86.55
122 99.99
123 7.51

$$$$

     RDKit          2D

  9  9  0  0  0  0  0  0  0  0999 V2000
    0.6396    2.6142    0.0000 C   0  0  0  0  0  0  0  0  0  0  0  0
   -0.6740    0.3893    0.0000 C   0  0  0  0  0  0  0  0  0  0  0  0
    1.9241    1.8893    0.0000 C   0  0  0  0  0  0  0  0  0  0  0  0
    0.6506   -0.4048    0.0000 C   0  0  0  0  0  0  0  0  0  0  0  0
   -1.9548    2.6206    0.0000 C   0  0  0  0  0  0  0  0  0  0  0  0
   -0.6594    1.8642    0.0000 C   0  0  0  0  0  0  0  0  0  0  0  0
    1.9496    0.3452    0.0000 C   0  0  0  0  0  0  0  0  0  0  0  0
   -3.2575    1.8770    0.0000 O   0  0  0  0  0  0  0  0  0  0  0  0
    3.2548   -0.3941    0.0000 O   0  0  0  0  0  0  0  0  0  0  0  0
  3  1  2  0
  4  2  1  0
  6  1  1  0
  6  2  2  0
  6  5  1  0
  7  3  1  0
  7  4  2  0
  8  5  2  0
  9  7  1  0
M  END
>  <NAME>  (2770) 
P-HYDROXYBENZALDEHYDE

>  <SYNONYMS>  (2770) 


>  <SPECTRUM TYPE>  (2770) 
MS1

>  <INSTRUMENT TYPE>  (2770) 
EI-B

>  <INSTRUMENT>  (2770) 
HITACHI M-80B

>  <ION MODE>  (2770) 
P

>  <INCHIKEY>  (2770) 
RGHHSNMVTDWUBI-UHFFFAOYSA-N

>  <FORMULA>  (2770) 
C7H6O2

>  <EXACT MASS>  (2770) 
122.036779432

>  <MW>  (2770) 
122

>  <ID>  (2770) 
JP008441

>  <CONTRIBUTOR>  (2770) 
University of Tokyo Team, {Faculty of Engineering, University of Tokyo

>  <COMMENT>  (2770) 
SMILES=O=Cc(c1)ccc(O)c1
InChI=InChI=1S/C7H6O2/c8-5-6-1-3-7(9)4-2-6/h1-5,9H
computed SMILES=O=CC1=CC=C(O)C=C1
accession=JP008441
date=2016.01.19 (Created 2008.10.21, modified 2011.05.06)
author=SODA AROMATIC CO., LTD.
license=CC BY-NC-SA
exact mass=122.03678
ionization energy=70 eV
ion type=[M]+*
computed spectral entropy=2.495143551469159
computed normalized entropy=0.7570591788707426
SPLASH=splash10-00di-9800000000-c8646d08ef8e23a3d49b
submitter=submitter = University of Tokyo Team (Faculty of Engineering, University of Tokyo)
MoNA Rating=3.75

>  <NUM PEAKS>  (2770) 
27

>  <MASS SPECTRAL PEAKS>  (2770) 
17 6.06
18 2.61
29 7.31
37 3.27
38 9.09
39 32.79
40 3.53
42 2.97
43 3.4
44 1.42
50 7.63
51 5.82
53 6.76
55 1.97
61 2.93
62 7.45
63 11.96
64 3.98
65 34.95
66 7.78
69 2.33
74 1.59
93 33.46
94 4.77
121 99.99
122 81.27
123 6.53

$$$$

     RDKit          2D

 11 11  0  0  0  0  0  0  0  0999 V2000
    3.8981    0.0804    0.0000 C   0  0  0  0  0  0  0  0  0  0  0  0
   -3.8981    0.0804    0.0000 C   0  0  0  0  0  0  0  0  0  0  0  0
    0.0000   -2.1700    0.0000 C   0  0  0  0  0  0  0  0  0  0  0  0
    1.3000   -1.4200    0.0000 C   0  0  0  0  0  0  0  0  0  0  0  0
   -1.3000   -1.4200    0.0000 C   0  0  0  0  0  0  0  0  0  0  0  0
    1.3000    0.0800    0.0000 C   0  0  0  0  0  0  0  0  0  0  0  0
   -1.3000    0.0800    0.0000 C   0  0  0  0  0  0  0  0  0  0  0  0
   -0.0000    0.8300    0.0000 C   0  0  0  0  0  0  0  0  0  0  0  0
    0.0000    2.3300    0.0000 O   0  0  0  0  0  0  0  0  0  0  0  0
    2.5989    0.8302    0.0000 O   0  0  0  0  0  0  0  0  0  0  0  0
   -2.5989    0.8302    0.0000 O   0  0  0  0  0  0  0  0  0  0  0  0
  4  3  2  0
  5  3  1  0
  6  4  1  0
  7  5  2  0
  8  6  2  0
  8  7  1  0
  9  8  1  0
 10  1  1  0
 10  6  1  0
 11  2  1  0
 11  7  1  0
M  END
>  <NAME>  (2771) 
2,6-DIMETHOXYPHENOL

>  <SYNONYMS>  (2771) 


>  <SPECTRUM TYPE>  (2771) 
MS1

>  <INSTRUMENT TYPE>  (2771) 
EI-B

>  <INSTRUMENT>  (2771) 
HITACHI M-80B

>  <ION MODE>  (2771) 
P

>  <INCHIKEY>  (2771) 
KLIDCXVFHGNTTM-UHFFFAOYSA-N

>  <FORMULA>  (2771) 
C8H10O3

>  <EXACT MASS>  (2771) 
154.06299417999998

>  <MW>  (2771) 
154

>  <ID>  (2771) 
JP008440

>  <CONTRIBUTOR>  (2771) 
University of Tokyo Team, {Faculty of Engineering, University of Tokyo

>  <COMMENT>  (2771) 
SMILES=COc(c1)c(O)c(OC)cc1
InChI=InChI=1S/C8H10O3/c1-10-6-4-3-5-7(11-2)8(6)9/h3-5,9H,1-2H3
computed SMILES=OC=1C(OC)=CC=CC1OC
accession=JP008440
date=2016.01.19 (Created 2008.10.21, modified 2011.05.06)
author=SODA AROMATIC CO., LTD.
license=CC BY-NC-SA
exact mass=154.06299
ionization energy=70 eV
ion type=[M]+*
computed spectral entropy=3.1464930618071083
computed normalized entropy=0.8002626148064792
SPLASH=splash10-0udr-8900000000-59569128bf570c85d520
submitter=submitter = University of Tokyo Team (Faculty of Engineering, University of Tokyo)
MoNA Rating=3.75

>  <NUM PEAKS>  (2771) 
51

>  <MASS SPECTRAL PEAKS>  (2771) 
14 2.06
15 7.11
27 1.8
29 4.07
30 1.41
37 1.7
38 4.28
39 16.02
40 3.11
41 2.26
42 2.52
45 1.56
50 5.63
51 11.72
52 7.82
53 8.9
54 2.13
55 6.3
62 1.99
63 2.85
65 14.11
66 3.12
67 2.51
68 10.95
69 1.31
71 1.23
77 1.71
79 7.03
80 1.64
81 7.74
82 1.09
93 16.64
94 2.05
95 7
96 20.75
97 2.09
107 6.01
108 5.35
109 4.58
110 3.65
111 22.96
112 2.12
124 1.61
125 2.81
137 1.8
138 1.57
139 44.06
140 3.61
153 1.96
154 99.99
155 8.14

$$$$

     RDKit          2D

 13 13  0  0  0  0  0  0  0  0999 V2000
   -0.5153    0.9424    0.0000 C   0  0  0  0  0  0  0  0  0  0  0  0
   -2.5642    0.3930    0.0000 C   0  0  0  0  0  0  0  0  0  0  0  0
   -2.0149   -1.6559    0.0000 C   0  0  0  0  0  0  0  0  0  0  0  0
    5.2307   -1.1074    0.0000 C   0  0  0  0  0  0  0  0  0  0  0  0
    2.6331   -2.6082    0.0000 C   0  0  0  0  0  0  0  0  0  0  0  0
    1.3341   -3.3582    0.0000 C   0  0  0  0  0  0  0  0  0  0  0  0
    1.3331   -0.3566    0.0000 C   0  0  0  0  0  0  0  0  0  0  0  0
    2.6327   -1.1074    0.0000 C   0  0  0  0  0  0  0  0  0  0  0  0
    0.0341   -1.1066    0.0000 C   0  0  0  0  0  0  0  0  0  0  0  0
    0.0346   -2.6074    0.0000 C   0  0  0  0  0  0  0  0  0  0  0  0
   -1.2651   -0.3568    0.0000 C   0  0  0  0  0  0  0  0  0  0  0  0
   -1.2645   -3.3574    0.0000 O   0  0  0  0  0  0  0  0  0  0  0  0
    3.9317   -0.3574    0.0000 O   0  0  0  0  0  0  0  0  0  0  0  0
  6  5  2  0
  8  5  1  0
  8  7  2  0
  9  7  1  0
 10  6  1  0
 10  9  2  0
 11  1  1  0
 11  2  1  0
 11  3  1  0
 11  9  1  0
 12 10  1  0
 13  4  1  0
 13  8  1  0
M  END
>  <NAME>  (2772) 
2-(1,1-DIMETHYLETHYL)-4-METHOXYPHENOL

>  <SYNONYMS>  (2772) 
BHA

>  <SPECTRUM TYPE>  (2772) 
MS1

>  <INSTRUMENT TYPE>  (2772) 
EI-B

>  <INSTRUMENT>  (2772) 
HITACHI M-80B

>  <ION MODE>  (2772) 
P

>  <INCHIKEY>  (2772) 
MRBKEAMVRSLQPH-UHFFFAOYSA-N

>  <FORMULA>  (2772) 
C11H16O2

>  <EXACT MASS>  (2772) 
180.115029752

>  <MW>  (2772) 
180

>  <ID>  (2772) 
JP008439

>  <CONTRIBUTOR>  (2772) 
University of Tokyo Team, {Faculty of Engineering, University of Tokyo

>  <COMMENT>  (2772) 
SMILES=COc(c1)cc(c(O)c1)C(C)(C)C
InChI=InChI=1S/C11H16O2/c1-11(2,3)9-7-8(13-4)5-6-10(9)12/h5-7,12H,1-4H3
computed SMILES=OC1=CC=C(OC)C=C1C(C)(C)C
author=SODA AROMATIC CO., LTD.
accession=JP008439
date=2016.01.19 (Created 2008.10.21, modified 2011.05.06)
license=CC BY-NC-SA
exact mass=180.11503
ionization energy=70 eV
ion type=[M]+*
computed spectral entropy=3.247879660263672
computed normalized entropy=0.7809499798777552
SPLASH=splash10-014i-4900000000-3f285fdccb9fbe4de2d2
submitter=submitter = University of Tokyo Team (Faculty of Engineering, University of Tokyo)
MoNA Rating=3.75

>  <NUM PEAKS>  (2772) 
64

>  <MASS SPECTRAL PEAKS>  (2772) 
15 7.19
27 5.41
29 4.3
39 9.88
41 10.65
43 3.5
50 1.58
51 6.98
52 4.65
53 7.04
54 2.23
55 5.22
57 1.58
62 1.19
63 3.99
64 1.19
65 6.59
66 2.14
67 3.19
68 1.04
76 1.26
77 13.55
78 5.83
79 6.12
81 1.67
82 1.58
89 1.44
91 12.85
92 1.53
93 2.11
94 2.38
95 1.27
103 4.12
104 2.13
105 4.16
106 1.26
107 5.71
108 1.83
109 3.77
110 2.06
115 5.46
116 1.92
117 1.25
119 1.13
121 3.52
122 3.52
123 1.81
124 7.59
125 5.05
131 2.2
132 1.75
133 1.5
135 1.76
136 1.16
137 54.06
138 5.09
149 4.4
150 4.77
151 1.19
164 1.17
165 99.99
166 10.73
180 52.57
181 6.49

$$$$

     RDKit          2D

 12 12  0  0  0  0  0  0  0  0999 V2000
   -4.1872    1.6700    0.0000 C   0  0  0  0  0  0  0  0  0  0  0  0
    4.9065    0.9204    0.0000 C   0  0  0  0  0  0  0  0  0  0  0  0
   -2.8882    0.9200    0.0000 C   0  0  0  0  0  0  0  0  0  0  0  0
   -1.5892    1.6700    0.0000 C   0  0  0  0  0  0  0  0  0  0  0  0
   -0.2906   -0.5808    0.0000 C   0  0  0  0  0  0  0  0  0  0  0  0
    1.0084   -1.3308    0.0000 C   0  0  0  0  0  0  0  0  0  0  0  0
    1.0094    1.6708    0.0000 C   0  0  0  0  0  0  0  0  0  0  0  0
   -0.2901    0.9200    0.0000 C   0  0  0  0  0  0  0  0  0  0  0  0
    2.3080   -0.5800    0.0000 C   0  0  0  0  0  0  0  0  0  0  0  0
    2.3084    0.9208    0.0000 C   0  0  0  0  0  0  0  0  0  0  0  0
    3.6070   -1.3300    0.0000 O   0  0  0  0  0  0  0  0  0  0  0  0
    3.6076    1.6706    0.0000 O   0  0  0  0  0  0  0  0  0  0  0  0
  3  1  2  0
  4  3  1  0
  6  5  2  0
  8  4  1  0
  8  5  1  0
  8  7  2  0
  9  6  1  0
 10  7  1  0
 10  9  2  0
 11  9  1  0
 12  2  1  0
 12 10  1  0
M  END
>  <NAME>  (2773) 
2-METHOXY-4-(2-PROPENYL)PHENOL

>  <SYNONYMS>  (2773) 
EUGENOL

>  <SPECTRUM TYPE>  (2773) 
MS1

>  <INSTRUMENT TYPE>  (2773) 
EI-B

>  <INSTRUMENT>  (2773) 
HITACHI M-80B

>  <ION MODE>  (2773) 
P

>  <INCHIKEY>  (2773) 
RRAFCDWBNXTKKO-UHFFFAOYSA-N

>  <FORMULA>  (2773) 
C10H12O2

>  <EXACT MASS>  (2773) 
164.083729624

>  <MW>  (2773) 
164

>  <ID>  (2773) 
JP008438

>  <CONTRIBUTOR>  (2773) 
University of Tokyo Team, {Faculty of Engineering, University of Tokyo

>  <COMMENT>  (2773) 
SMILES=C=CCc(c1)cc(OC)c(O)c1
InChI=InChI=1S/C10H12O2/c1-3-4-8-5-6-9(11)10(7-8)12-2/h3,5-7,11H,1,4H2,2H3
computed SMILES=OC1=CC=C(C=C1OC)CC=C
accession=JP008438
date=2016.01.19 (Created 2008.10.21, modified 2011.05.06)
author=SODA AROMATIC CO., LTD.
license=CC BY-NC-SA
exact mass=164.08373
ionization energy=70 eV
ion type=[M]+*
computed spectral entropy=3.416016012580222
computed normalized entropy=0.8412914560572848
SPLASH=splash10-03di-6900000000-1afdd3b83f6832b11f70
submitter=submitter = University of Tokyo Team (Faculty of Engineering, University of Tokyo)
MoNA Rating=3.75

>  <NUM PEAKS>  (2773) 
58

>  <MASS SPECTRAL PEAKS>  (2773) 
15 6.82
26 1.38
27 8.9
29 2.64
38 2.37
39 16.62
40 2.51
41 7.37
43 3.37
50 4.72
51 14.58
52 6.64
53 8.19
55 22.03
62 2.19
63 7
64 1.86
65 12.87
66 6.32
67 1.6
74 1.31
75 1.51
76 1.28
77 32.7
78 9.38
79 7.77
81 2.31
89 2.04
91 23.5
92 2.51
93 5.12
94 8.37
95 1.04
102 1.98
103 26.85
104 17.63
105 7.88
106 1.12
107 2.98
109 1.09
115 1.93
119 1.81
120 1.13
121 16.16
122 6.61
131 22.22
132 8.6
133 16.62
134 1.75
135 1.44
137 18.07
138 1.45
147 3.7
149 30.25
150 2.54
163 3.39
164 99.99
165 10.23

$$$$

     RDKit          2D

 10 10  0  0  0  0  0  0  0  0999 V2000
    4.2219   -2.0625    0.0000 C   0  0  0  0  0  0  0  0  0  0  0  0
    2.9228   -1.3125    0.0000 C   0  0  0  0  0  0  0  0  0  0  0  0
   -2.2738   -1.3133    0.0000 C   0  0  0  0  0  0  0  0  0  0  0  0
   -0.9738    0.9383    0.0000 C   0  0  0  0  0  0  0  0  0  0  0  0
   -0.9748   -2.0633    0.0000 C   0  0  0  0  0  0  0  0  0  0  0  0
    0.3252    0.1883    0.0000 C   0  0  0  0  0  0  0  0  0  0  0  0
   -2.2733    0.1875    0.0000 C   0  0  0  0  0  0  0  0  0  0  0  0
    0.3248   -1.3125    0.0000 C   0  0  0  0  0  0  0  0  0  0  0  0
   -3.5724    0.9375    0.0000 O   0  0  0  0  0  0  0  0  0  0  0  0
    1.6238   -2.0625    0.0000 O   0  0  0  0  0  0  0  0  0  0  0  0
  2  1  1  0
  5  3  2  0
  6  4  1  0
  7  3  1  0
  7  4  2  0
  8  5  1  0
  8  6  2  0
  9  7  1  0
 10  2  1  0
 10  8  1  0
M  END
>  <NAME>  (2774) 
P-ETHOXYPHENOL

>  <SYNONYMS>  (2774) 
HYDROQUINONE MONOETHYL ETHER

>  <SPECTRUM TYPE>  (2774) 
MS1

>  <INSTRUMENT TYPE>  (2774) 
EI-B

>  <INSTRUMENT>  (2774) 
HITACHI M-80B

>  <ION MODE>  (2774) 
P

>  <INCHIKEY>  (2774) 
LKVFCSWBKOVHAH-UHFFFAOYSA-N

>  <FORMULA>  (2774) 
C8H10O2

>  <EXACT MASS>  (2774) 
138.06807956

>  <MW>  (2774) 
138

>  <ID>  (2774) 
JP008437

>  <CONTRIBUTOR>  (2774) 
University of Tokyo Team, {Faculty of Engineering, University of Tokyo

>  <COMMENT>  (2774) 
SMILES=CCOc(c1)ccc(O)c1
InChI=InChI=1S/C8H10O2/c1-2-10-8-5-3-7(9)4-6-8/h3-6,9H,2H2,1H3
computed SMILES=OC1=CC=C(OCC)C=C1
accession=JP008437
date=2016.01.19 (Created 2008.10.21, modified 2011.05.06)
author=SODA AROMATIC CO., LTD.
license=CC BY-NC-SA
exact mass=138.06808
ionization energy=70 eV
ion type=[M]+*
computed spectral entropy=2.42863949389194
computed normalized entropy=0.7288386671573902
SPLASH=splash10-03di-5900000000-b56e2f38d72fc8a7c935
submitter=submitter = University of Tokyo Team (Faculty of Engineering, University of Tokyo)
MoNA Rating=3.75

>  <NUM PEAKS>  (2774) 
28

>  <MASS SPECTRAL PEAKS>  (2774) 
15 1.37
26 4.34
27 13.78
28 1.43
29 6.59
38 1.99
39 8.34
40 1.16
50 1.92
51 3.11
52 3.47
53 10.22
54 6.52
55 5.85
62 1.73
63 3.64
64 2.24
65 4.48
66 1.02
81 17.21
82 7.2
93 1.31
95 1.21
109 13.61
110 99.99
111 5.46
138 43.69
139 3.84

$$$$

     RDKit          2D

 10 10  0  0  0  0  0  0  0  0999 V2000
    4.8670    0.9406    0.0000 C   0  0  0  0  0  0  0  0  0  0  0  0
    3.5681    0.1904    0.0000 C   0  0  0  0  0  0  0  0  0  0  0  0
   -1.6200   -1.3100    0.0000 C   0  0  0  0  0  0  0  0  0  0  0  0
   -0.3300   -2.0600    0.0000 C   0  0  0  0  0  0  0  0  0  0  0  0
   -1.6200    0.1900    0.0000 C   0  0  0  0  0  0  0  0  0  0  0  0
    0.9700   -1.3100    0.0000 C   0  0  0  0  0  0  0  0  0  0  0  0
   -0.3300    0.9400    0.0000 C   0  0  0  0  0  0  0  0  0  0  0  0
    0.9700    0.1900    0.0000 C   0  0  0  0  0  0  0  0  0  0  0  0
   -0.3325    2.4400    0.0000 O   0  0  0  0  0  0  0  0  0  0  0  0
    2.2689    0.9402    0.0000 O   0  0  0  0  0  0  0  0  0  0  0  0
  2  1  1  0
  4  3  2  0
  5  3  1  0
  6  4  1  0
  7  5  2  0
  8  6  2  0
  8  7  1  0
  9  7  1  0
 10  2  1  0
 10  8  1  0
M  END
>  <NAME>  (2775) 
O-ETHOXYPHENOL

>  <SYNONYMS>  (2775) 
PYROCATECHOL MONOETHYL ETHER

>  <SPECTRUM TYPE>  (2775) 
MS1

>  <INSTRUMENT TYPE>  (2775) 
EI-B

>  <INSTRUMENT>  (2775) 
HITACHI M-80B

>  <ION MODE>  (2775) 
P

>  <INCHIKEY>  (2775) 
MOEFFSWKSMRFRQ-UHFFFAOYSA-N

>  <FORMULA>  (2775) 
C8H10O2

>  <EXACT MASS>  (2775) 
138.06807956

>  <MW>  (2775) 
138

>  <ID>  (2775) 
JP008436

>  <CONTRIBUTOR>  (2775) 
University of Tokyo Team, {Faculty of Engineering, University of Tokyo

>  <COMMENT>  (2775) 
SMILES=CCOc(c1)c(O)ccc1
InChI=InChI=1S/C8H10O2/c1-2-10-8-6-4-3-5-7(8)9/h3-6,9H,2H2,1H3
computed SMILES=OC=1C=CC=CC1OCC
accession=JP008436
date=2016.01.19 (Created 2008.10.21, modified 2011.05.06)
author=SODA AROMATIC CO., LTD.
license=CC BY-NC-SA
exact mass=138.06808
ionization energy=70 eV
ion type=[M]+*
computed spectral entropy=2.3573610483831615
computed normalized entropy=0.7323553863652649
SPLASH=splash10-03di-6900000000-3358c52c9698f851ecbb
submitter=submitter = University of Tokyo Team (Faculty of Engineering, University of Tokyo)
MoNA Rating=3.75

>  <NUM PEAKS>  (2775) 
25

>  <MASS SPECTRAL PEAKS>  (2775) 
26 2.62
27 14.66
29 6.41
38 1.64
39 5.87
43 1.3
45 1.13
50 2.77
51 4.52
52 5.56
53 8.42
54 2.22
55 2.33
63 4.78
64 10.84
65 4.04
81 17.07
82 3.76
92 5.03
95 1.22
109 8.38
110 99.99
111 5.75
138 40.99
139 2.97

$$$$

     RDKit          2D

  9  9  0  0  0  0  0  0  0  0999 V2000
   -3.2458   -0.3738    0.0000 C   0  0  0  0  0  0  0  0  0  0  0  0
    0.6473    1.8688    0.0000 C   0  0  0  0  0  0  0  0  0  0  0  0
    1.9463    1.1188    0.0000 C   0  0  0  0  0  0  0  0  0  0  0  0
   -0.6473    1.1266    0.0000 C   0  0  0  0  0  0  0  0  0  0  0  0
    0.6513   -1.1242    0.0000 C   0  0  0  0  0  0  0  0  0  0  0  0
    1.9508   -0.3734    0.0000 C   0  0  0  0  0  0  0  0  0  0  0  0
   -0.6477   -0.3742    0.0000 C   0  0  0  0  0  0  0  0  0  0  0  0
    3.2511   -1.1212    0.0000 O   0  0  0  0  0  0  0  0  0  0  0  0
   -1.9469   -1.1240    0.0000 O   0  0  0  0  0  0  0  0  0  0  0  0
  3  2  2  0
  4  2  1  0
  6  3  1  0
  6  5  2  0
  7  4  2  0
  7  5  1  0
  8  6  1  0
  9  1  1  0
  9  7  1  0
M  END
>  <NAME>  (2776) 
M-METHOXYPHENOL

>  <SYNONYMS>  (2776) 
RESORCINOL MONOMETHYL ETHER

>  <SPECTRUM TYPE>  (2776) 
MS1

>  <INSTRUMENT TYPE>  (2776) 
EI-B

>  <INSTRUMENT>  (2776) 
HITACHI M-80B

>  <ION MODE>  (2776) 
P

>  <INCHIKEY>  (2776) 
ASHGTJPOSUFTGB-UHFFFAOYSA-N

>  <FORMULA>  (2776) 
C7H8O2

>  <EXACT MASS>  (2776) 
124.052429496

>  <MW>  (2776) 
124

>  <ID>  (2776) 
JP008435

>  <CONTRIBUTOR>  (2776) 
University of Tokyo Team, {Faculty of Engineering, University of Tokyo

>  <COMMENT>  (2776) 
SMILES=COc(c1)cc(O)cc1
InChI=InChI=1S/C7H8O2/c1-9-7-4-2-3-6(8)5-7/h2-5,8H,1H3
computed SMILES=OC1=CC=CC(OC)=C1
accession=JP008435
date=2016.01.19 (Created 2008.10.21, modified 2011.05.06)
author=SODA AROMATIC CO., LTD.
license=CC BY-NC-SA
exact mass=124.05243
ionization energy=70 eV
ion type=[M]+*
computed spectral entropy=3.0392462307944252
computed normalized entropy=0.8184158476535698
SPLASH=splash10-00di-9300000000-7ccfd087a40d2854585c
submitter=submitter = University of Tokyo Team (Faculty of Engineering, University of Tokyo)
MoNA Rating=3.75

>  <NUM PEAKS>  (2776) 
41

>  <MASS SPECTRAL PEAKS>  (2776) 
14 4.42
15 6.53
17 5.8
26 2.32
27 10.66
29 7.28
32 1.63
38 7.42
39 20.9
40 5.26
41 4.53
42 1.97
45 2.1
50 3.82
51 8.26
52 8.92
53 19.1
54 4.01
55 8.74
58 1.68
61 1.9
62 5.96
63 9.22
64 4.76
65 12
66 17.95
67 2.4
68 2.36
69 8.58
77 2.56
78 1.91
79 2.06
80 2.63
81 32.49
82 2.17
93 5.36
94 43.6
95 25.48
123 2.23
124 99.99
125 5.47

$$$$

     RDKit          2D

  9  9  0  0  0  0  0  0  0  0999 V2000
    3.5724   -0.9375    0.0000 C   0  0  0  0  0  0  0  0  0  0  0  0
   -1.6243   -0.9383    0.0000 C   0  0  0  0  0  0  0  0  0  0  0  0
   -0.3243    1.3133    0.0000 C   0  0  0  0  0  0  0  0  0  0  0  0
   -0.3252   -1.6883    0.0000 C   0  0  0  0  0  0  0  0  0  0  0  0
    0.9748    0.5633    0.0000 C   0  0  0  0  0  0  0  0  0  0  0  0
   -1.6238    0.5625    0.0000 C   0  0  0  0  0  0  0  0  0  0  0  0
    0.9743   -0.9375    0.0000 C   0  0  0  0  0  0  0  0  0  0  0  0
   -2.9228    1.3125    0.0000 O   0  0  0  0  0  0  0  0  0  0  0  0
    2.2733   -1.6875    0.0000 O   0  0  0  0  0  0  0  0  0  0  0  0
  4  2  2  0
  5  3  1  0
  6  2  1  0
  6  3  2  0
  7  4  1  0
  7  5  2  0
  8  6  1  0
  9  1  1  0
  9  7  1  0
M  END
>  <NAME>  (2777) 
P-METHOXYPHENOL

>  <SYNONYMS>  (2777) 
HYDROQUINONE MONOMETHYL ETHER

>  <SPECTRUM TYPE>  (2777) 
MS1

>  <INSTRUMENT TYPE>  (2777) 
EI-B

>  <INSTRUMENT>  (2777) 
HITACHI M-80B

>  <ION MODE>  (2777) 
P

>  <INCHIKEY>  (2777) 
NWVVVBRKAWDGAB-UHFFFAOYSA-N

>  <FORMULA>  (2777) 
C7H8O2

>  <EXACT MASS>  (2777) 
124.052429496

>  <MW>  (2777) 
124

>  <ID>  (2777) 
JP008434

>  <CONTRIBUTOR>  (2777) 
University of Tokyo Team, {Faculty of Engineering, University of Tokyo

>  <COMMENT>  (2777) 
SMILES=COc(c1)ccc(O)c1
InChI=InChI=1S/C7H8O2/c1-9-7-4-2-6(8)3-5-7/h2-5,8H,1H3
computed SMILES=OC1=CC=C(OC)C=C1
accession=JP008434
date=2016.01.19 (Created 2008.10.21, modified 2011.05.06)
author=SODA AROMATIC CO., LTD.
license=CC BY-NC-SA
exact mass=124.05243
ionization energy=70 eV
ion type=[M]+*
computed spectral entropy=2.483132614221557
computed normalized entropy=0.7231047952008459
SPLASH=splash10-05gi-8900000000-22bed3d3611c3a5cd0d6
submitter=submitter = University of Tokyo Team (Faculty of Engineering, University of Tokyo)
MoNA Rating=3.75

>  <NUM PEAKS>  (2777) 
31

>  <MASS SPECTRAL PEAKS>  (2777) 
15 5.8
26 6.81
27 12.8
29 4.91
37 1.38
38 4.13
39 13.13
41 2.54
50 4.52
51 6.85
52 8.1
53 21.84
54 6.75
55 5.38
61 1.75
62 4.25
63 6.51
64 2
65 7.4
66 1.27
79 1.05
80 1.48
81 56.98
82 4.08
93 1.33
95 2.4
109 99.63
110 6.96
123 2
124 99.99
125 8.12

$$$$

     RDKit          2D

  9  9  0  0  0  0  0  0  0  0999 V2000
    3.5681    0.1904    0.0000 C   0  0  0  0  0  0  0  0  0  0  0  0
   -1.6200   -1.3100    0.0000 C   0  0  0  0  0  0  0  0  0  0  0  0
   -0.3300   -2.0600    0.0000 C   0  0  0  0  0  0  0  0  0  0  0  0
   -1.6200    0.1900    0.0000 C   0  0  0  0  0  0  0  0  0  0  0  0
    0.9700   -1.3100    0.0000 C   0  0  0  0  0  0  0  0  0  0  0  0
   -0.3300    0.9400    0.0000 C   0  0  0  0  0  0  0  0  0  0  0  0
    0.9700    0.1900    0.0000 C   0  0  0  0  0  0  0  0  0  0  0  0
   -0.3325    2.4400    0.0000 O   0  0  0  0  0  0  0  0  0  0  0  0
    2.2689    0.9402    0.0000 O   0  0  0  0  0  0  0  0  0  0  0  0
  3  2  2  0
  4  2  1  0
  5  3  1  0
  6  4  2  0
  7  5  2  0
  7  6  1  0
  8  6  1  0
  9  1  1  0
  9  7  1  0
M  END
>  <NAME>  (2778) 
O-METHOXYPHENOL

>  <SYNONYMS>  (2778) 
GUAIACOL

>  <SPECTRUM TYPE>  (2778) 
MS1

>  <INSTRUMENT TYPE>  (2778) 
EI-B

>  <INSTRUMENT>  (2778) 
HITACHI M-80B

>  <ION MODE>  (2778) 
P

>  <INCHIKEY>  (2778) 
LHGVFZTZFXWLCP-UHFFFAOYSA-N

>  <FORMULA>  (2778) 
C7H8O2

>  <EXACT MASS>  (2778) 
124.052429496

>  <MW>  (2778) 
124

>  <ID>  (2778) 
JP008433

>  <CONTRIBUTOR>  (2778) 
University of Tokyo Team, {Faculty of Engineering, University of Tokyo

>  <COMMENT>  (2778) 
SMILES=COc(c1)c(O)ccc1
InChI=InChI=1S/C7H8O2/c1-9-7-5-3-2-4-6(7)8/h2-5,8H,1H3
computed SMILES=OC=1C=CC=CC1OC
accession=JP008433
date=2016.01.19 (Created 2008.10.21, modified 2011.05.06)
author=SODA AROMATIC CO., LTD.
license=CC BY-NC-SA
exact mass=124.05243
ionization energy=70 eV
ion type=[M]+*
computed spectral entropy=2.593428490256035
computed normalized entropy=0.7354405405097726
SPLASH=splash10-0pir-9700000000-f1436b3de82cff342b65
submitter=submitter = University of Tokyo Team (Faculty of Engineering, University of Tokyo)
MoNA Rating=3.75

>  <NUM PEAKS>  (2778) 
34

>  <MASS SPECTRAL PEAKS>  (2778) 
15 7.09
26 4.99
27 14.14
29 5.19
31 1.32
37 2.87
38 6.13
39 14.99
41 1.92
49 1.45
50 9.39
51 13.64
52 15.76
53 21.26
54 2.11
55 4.61
61 1.6
62 3.87
63 8.19
64 2.87
65 8.1
66 1.54
67 1.1
74 1.04
77 3.55
79 1.7
80 2.56
81 80.88
82 4.6
95 2.66
109 99.99
110 6.75
124 86.46
125 6.83

$$$$

     RDKit          2D

 16 16  0  0  0  0  0  0  0  0999 V2000
    0.0000    3.0000    0.0000 C   0  0  0  0  0  0  0  0  0  0  0  0
   -3.3491   -0.2013    0.0000 C   0  0  0  0  0  0  0  0  0  0  0  0
   -3.8978   -2.2504    0.0000 C   0  0  0  0  0  0  0  0  0  0  0  0
   -1.8487   -2.7991    0.0000 C   0  0  0  0  0  0  0  0  0  0  0  0
    1.8487   -2.7991    0.0000 C   0  0  0  0  0  0  0  0  0  0  0  0
    3.8978   -2.2504    0.0000 C   0  0  0  0  0  0  0  0  0  0  0  0
    3.3491   -0.2013    0.0000 C   0  0  0  0  0  0  0  0  0  0  0  0
   -1.3000    0.7500    0.0000 C   0  0  0  0  0  0  0  0  0  0  0  0
    1.3000    0.7500    0.0000 C   0  0  0  0  0  0  0  0  0  0  0  0
    0.0000    1.5000    0.0000 C   0  0  0  0  0  0  0  0  0  0  0  0
   -1.3000   -0.7500    0.0000 C   0  0  0  0  0  0  0  0  0  0  0  0
    1.3000   -0.7500    0.0000 C   0  0  0  0  0  0  0  0  0  0  0  0
    0.0000   -1.5000    0.0000 C   0  0  0  0  0  0  0  0  0  0  0  0
   -2.5989   -1.5002    0.0000 C   0  0  0  0  0  0  0  0  0  0  0  0
    2.5989   -1.5002    0.0000 C   0  0  0  0  0  0  0  0  0  0  0  0
   -0.0000   -3.0000    0.0000 O   0  0  0  0  0  0  0  0  0  0  0  0
 10  1  1  0
 10  8  2  0
 10  9  1  0
 11  8  1  0
 12  9  2  0
 13 11  2  0
 13 12  1  0
 14  2  1  0
 14  3  1  0
 14  4  1  0
 14 11  1  0
 15  5  1  0
 15  6  1  0
 15  7  1  0
 15 12  1  0
 16 13  1  0
M  END
>  <NAME>  (2779) 
2,6-BIS(1,1-DIMETHYLETHYL)-4-METHYLPHENOL

>  <SYNONYMS>  (2779) 
BHT

>  <SPECTRUM TYPE>  (2779) 
MS1

>  <INSTRUMENT TYPE>  (2779) 
EI-B

>  <INSTRUMENT>  (2779) 
HITACHI M-80B

>  <ION MODE>  (2779) 
P

>  <INCHIKEY>  (2779) 
NLZUEZXRPGMBCV-UHFFFAOYSA-N

>  <FORMULA>  (2779) 
C15H24O

>  <EXACT MASS>  (2779) 
220.182715388

>  <MW>  (2779) 
220

>  <ID>  (2779) 
JP008432

>  <CONTRIBUTOR>  (2779) 
University of Tokyo Team, {Faculty of Engineering, University of Tokyo

>  <COMMENT>  (2779) 
SMILES=Cc(c1)cc(C(C)(C)C)c(O)c1C(C)(C)C
InChI=InChI=1S/C15H24O/c1-10-8-11(14(2,3)4)13(16)12(9-10)15(5,6)7/h8-9,16H,1-7H3
computed SMILES=OC=1C(=CC(=CC1C(C)(C)C)C)C(C)(C)C
accession=JP008432
date=2016.01.19 (Created 2008.10.21, modified 2011.05.06)
author=SODA AROMATIC CO., LTD.
license=CC BY-NC-SA
exact mass=220.18272
ionization energy=70 eV
ion type=[M]+*
computed spectral entropy=2.98723119982903
computed normalized entropy=0.7454411853841738
SPLASH=splash10-0a4i-4490000000-a19c5b42b06567024d6f
submitter=submitter = University of Tokyo Team (Faculty of Engineering, University of Tokyo)
MoNA Rating=3.75

>  <NUM PEAKS>  (2779) 
55

>  <MASS SPECTRAL PEAKS>  (2779) 
15 1.16
27 1.83
28 2.15
29 4.47
39 3.03
41 9.34
43 1.98
51 1.26
53 1.95
55 4.75
57 15.86
65 1.93
67 4
69 1.44
77 3.53
78 1.19
79 2.06
81 4.2
91 5.36
93 1.05
95 2.74
103 1.22
105 5.8
107 1.03
115 3.92
116 1.84
117 1.94
119 3.41
121 2.22
127 1.09
128 3.06
129 2.93
130 1.61
131 3.09
133 2.92
135 1.28
141 2.18
142 1.9
143 1.25
145 10.21
146 1.42
147 1.46
149 1.23
157 1.22
159 1.39
161 2.66
163 1.66
175 1.11
177 3.51
189 3.2
205 99.99
206 16.09
207 1.42
220 26.4
221 3.95

$$$$

     RDKit          2D

  9  9  0  0  0  0  0  0  0  0999 V2000
    2.6052   -0.7613    0.0000 C   0  0  0  0  0  0  0  0  0  0  0  0
   -2.6041   -0.8953    0.0000 C   0  0  0  0  0  0  0  0  0  0  0  0
   -0.0300    2.1400    0.0000 C   0  0  0  0  0  0  0  0  0  0  0  0
    1.2600    1.4400    0.0000 C   0  0  0  0  0  0  0  0  0  0  0  0
   -1.3200    1.4000    0.0000 C   0  0  0  0  0  0  0  0  0  0  0  0
    1.2900   -0.0400    0.0000 C   0  0  0  0  0  0  0  0  0  0  0  0
   -1.3200   -0.1200    0.0000 C   0  0  0  0  0  0  0  0  0  0  0  0
    0.0100   -0.8200    0.0000 C   0  0  0  0  0  0  0  0  0  0  0  0
    0.0571   -2.3193    0.0000 O   0  0  0  0  0  0  0  0  0  0  0  0
  4  3  2  0
  5  3  1  0
  6  1  1  0
  6  4  1  0
  7  2  1  0
  7  5  2  0
  8  6  2  0
  8  7  1  0
  9  8  1  0
M  END
>  <NAME>  (2780) 
2,6-DIMETHYLPHENOL

>  <SYNONYMS>  (2780) 


>  <SPECTRUM TYPE>  (2780) 
MS1

>  <INSTRUMENT TYPE>  (2780) 
EI-B

>  <INSTRUMENT>  (2780) 
HITACHI M-80B

>  <ION MODE>  (2780) 
P

>  <INCHIKEY>  (2780) 
NXXYKOUNUYWIHA-UHFFFAOYSA-N

>  <FORMULA>  (2780) 
C8H10O

>  <EXACT MASS>  (2780) 
122.07316494

>  <MW>  (2780) 
122

>  <ID>  (2780) 
JP008431

>  <CONTRIBUTOR>  (2780) 
University of Tokyo Team, {Faculty of Engineering, University of Tokyo

>  <COMMENT>  (2780) 
SMILES=Cc(c1)c(O)c(C)cc1
InChI=InChI=1S/C8H10O/c1-6-4-3-5-7(2)8(6)9/h3-5,9H,1-2H3
computed SMILES=OC=1C(=CC=CC1C)C
accession=JP008431
date=2016.01.19 (Created 2008.10.21, modified 2011.05.06)
author=SODA AROMATIC CO., LTD.
license=CC BY-NC-SA
exact mass=122.07316
ionization energy=70 eV
ion type=[M]+*
computed spectral entropy=2.913361597229947
computed normalized entropy=0.7698772733578277
SPLASH=splash10-05fr-7900000000-25623d364ea2e2daec20
submitter=submitter = University of Tokyo Team (Faculty of Engineering, University of Tokyo)
MoNA Rating=3.75

>  <NUM PEAKS>  (2780) 
44

>  <MASS SPECTRAL PEAKS>  (2780) 
15 1.59
26 1.49
27 10.44
29 1.57
38 2.64
39 17.8
40 2.21
41 4.73
43 3.61
45 1.19
50 4.67
51 13.15
52 4.66
53 9
54 1.06
55 1.85
60 2.3
61 1.76
62 2.47
63 7.42
64 1.34
65 10.51
66 2.34
67 1.29
74 1.1
76 1.02
77 29.25
78 15.37
79 19.37
80 1.53
89 1.44
91 21.2
92 2.5
93 3.49
94 2.72
102 1.51
103 9.59
104 8.4
105 3.5
107 78.47
108 4.93
121 30.96
122 99.99
123 9.65

$$$$

     RDKit          2D

  9  9  0  0  0  0  0  0  0  0999 V2000
   -0.0000   -1.5002    0.0000 C   0  0  0  0  0  0  0  0  0  0  0  0
   -2.5989    3.0000    0.0000 C   0  0  0  0  0  0  0  0  0  0  0  0
   -1.3000    0.7498    0.0000 C   0  0  0  0  0  0  0  0  0  0  0  0
    1.3000    0.7498    0.0000 C   0  0  0  0  0  0  0  0  0  0  0  0
   -0.0000    2.9998    0.0000 C   0  0  0  0  0  0  0  0  0  0  0  0
   -0.0000   -0.0002    0.0000 C   0  0  0  0  0  0  0  0  0  0  0  0
   -1.3000    2.2498    0.0000 C   0  0  0  0  0  0  0  0  0  0  0  0
    1.3000    2.2498    0.0000 C   0  0  0  0  0  0  0  0  0  0  0  0
    2.5989    3.0000    0.0000 O   0  0  0  0  0  0  0  0  0  0  0  0
  6  1  1  0
  6  3  2  0
  6  4  1  0
  7  2  1  0
  7  3  1  0
  7  5  2  0
  8  4  2  0
  8  5  1  0
  9  8  1  0
M  END
>  <NAME>  (2781) 
3,5-DIMETHYLPHENOL

>  <SYNONYMS>  (2781) 


>  <SPECTRUM TYPE>  (2781) 
MS1

>  <INSTRUMENT TYPE>  (2781) 
EI-B

>  <INSTRUMENT>  (2781) 
HITACHI M-80B

>  <ION MODE>  (2781) 
P

>  <INCHIKEY>  (2781) 
TUAMRELNJMMDMT-UHFFFAOYSA-N

>  <FORMULA>  (2781) 
C8H10O

>  <EXACT MASS>  (2781) 
122.07316494

>  <MW>  (2781) 
122

>  <ID>  (2781) 
JP008430

>  <CONTRIBUTOR>  (2781) 
University of Tokyo Team, {Faculty of Engineering, University of Tokyo

>  <COMMENT>  (2781) 
SMILES=Cc(c1)cc(O)cc(C)1
InChI=InChI=1S/C8H10O/c1-6-3-7(2)5-8(9)4-6/h3-5,9H,1-2H3
computed SMILES=OC=1C=C(C=C(C1)C)C
accession=JP008430
date=2016.01.19 (Created 2008.10.21, modified 2011.05.06)
author=SODA AROMATIC CO., LTD.
license=CC BY-NC-SA
exact mass=122.07316
ionization energy=70 eV
ion type=[M]+*
computed spectral entropy=2.745230439818451
computed normalized entropy=0.7344764840610167
SPLASH=splash10-05fr-6900000000-1505dd8557c9da377e0d
submitter=submitter = University of Tokyo Team (Faculty of Engineering, University of Tokyo)
MoNA Rating=3.75

>  <NUM PEAKS>  (2781) 
42

>  <MASS SPECTRAL PEAKS>  (2781) 
15 1.44
26 1.24
27 8.28
29 1.8
38 2.86
39 18.86
40 2.23
41 4.43
43 1.78
50 4.33
51 9.26
52 4.46
53 7.8
55 3.04
60 2.15
61 1.52
62 1.87
63 4.19
64 1.18
65 6.72
66 2.07
67 2.2
74 1.49
75 1.08
77 24.23
78 5.79
79 16.01
80 1.39
81 1.37
91 14.78
92 1.75
93 3.51
94 2.2
95 1.13
103 2.19
104 1.51
105 2.45
107 78.72
108 4.74
121 30.51
122 99.99
123 7.52

$$$$

     RDKit          2D

  9  9  0  0  0  0  0  0  0  0999 V2000
    2.3002    1.6680    0.0000 C   0  0  0  0  0  0  0  0  0  0  0  0
    2.3002   -1.3280    0.0000 C   0  0  0  0  0  0  0  0  0  0  0  0
   -0.2900    1.6700    0.0000 C   0  0  0  0  0  0  0  0  0  0  0  0
   -1.5800    0.9200    0.0000 C   0  0  0  0  0  0  0  0  0  0  0  0
   -0.2900   -1.3300    0.0000 C   0  0  0  0  0  0  0  0  0  0  0  0
    1.0000    0.9200    0.0000 C   0  0  0  0  0  0  0  0  0  0  0  0
    1.0000   -0.5800    0.0000 C   0  0  0  0  0  0  0  0  0  0  0  0
   -1.5800   -0.5800    0.0000 C   0  0  0  0  0  0  0  0  0  0  0  0
   -2.8802   -1.3280    0.0000 O   0  0  0  0  0  0  0  0  0  0  0  0
  4  3  2  0
  6  1  1  0
  6  3  1  0
  7  2  1  0
  7  5  1  0
  7  6  2  0
  8  4  1  0
  8  5  2  0
  9  8  1  0
M  END
>  <NAME>  (2782) 
3,4-DIMETHYLPHENOL

>  <SYNONYMS>  (2782) 


>  <SPECTRUM TYPE>  (2782) 
MS1

>  <INSTRUMENT TYPE>  (2782) 
EI-B

>  <INSTRUMENT>  (2782) 
HITACHI M-80B

>  <ION MODE>  (2782) 
P

>  <INCHIKEY>  (2782) 
YCOXTKKNXUZSKD-UHFFFAOYSA-N

>  <FORMULA>  (2782) 
C8H10O

>  <EXACT MASS>  (2782) 
122.07316494

>  <MW>  (2782) 
122

>  <ID>  (2782) 
JP008429

>  <CONTRIBUTOR>  (2782) 
University of Tokyo Team, {Faculty of Engineering, University of Tokyo

>  <COMMENT>  (2782) 
SMILES=Oc(c1)cc(C)c(C)c1
InChI=InChI=1S/C8H10O/c1-6-3-4-8(9)5-7(6)2/h3-5,9H,1-2H3
computed SMILES=OC1=CC=C(C(=C1)C)C
accession=JP008429
date=2016.01.19 (Created 2008.10.21, modified 2011.05.06)
author=SODA AROMATIC CO., LTD.
license=CC BY-NC-SA
exact mass=122.07316
ionization energy=70 eV
ion type=[M]+*
computed spectral entropy=2.7136599821610057
computed normalized entropy=0.7307411660302862
SPLASH=splash10-05fr-5900000000-208c80e9751e0ba311c2
submitter=submitter = University of Tokyo Team (Faculty of Engineering, University of Tokyo)
MoNA Rating=3.75

>  <NUM PEAKS>  (2782) 
41

>  <MASS SPECTRAL PEAKS>  (2782) 
15 1.26
26 1.46
27 8.82
29 1.43
38 3.03
39 15.49
41 4.63
43 1.57
50 6.44
51 12.46
52 5.61
53 8.12
55 2.95
60 1.66
61 1.53
62 2.13
63 5.8
64 1.16
65 7.63
66 2.17
67 1.56
74 1.37
75 1.29
77 24.39
78 6.02
79 8.84
81 1.18
89 1.08
91 14.97
92 1.75
93 2.3
94 2.46
103 2.13
104 1.15
105 1.9
107 99.99
108 8.53
120 1.58
121 45.66
122 81.23
123 6.8

$$$$

     RDKit          2D

  9  9  0  0  0  0  0  0  0  0999 V2000
   -2.5989    1.8302    0.0000 C   0  0  0  0  0  0  0  0  0  0  0  0
   -0.0000   -2.6700    0.0000 C   0  0  0  0  0  0  0  0  0  0  0  0
    0.0000    1.8300    0.0000 C   0  0  0  0  0  0  0  0  0  0  0  0
    1.3000    1.0800    0.0000 C   0  0  0  0  0  0  0  0  0  0  0  0
   -1.3000   -0.4200    0.0000 C   0  0  0  0  0  0  0  0  0  0  0  0
   -1.3000    1.0800    0.0000 C   0  0  0  0  0  0  0  0  0  0  0  0
    0.0000   -1.1700    0.0000 C   0  0  0  0  0  0  0  0  0  0  0  0
    1.3000   -0.4200    0.0000 C   0  0  0  0  0  0  0  0  0  0  0  0
    2.5989   -1.1702    0.0000 O   0  0  0  0  0  0  0  0  0  0  0  0
  4  3  2  0
  6  1  1  0
  6  3  1  0
  6  5  2  0
  7  2  1  0
  7  5  1  0
  8  4  1  0
  8  7  2  0
  9  8  1  0
M  END
>  <NAME>  (2783) 
2,4-DIMETHYLPHENOL

>  <SYNONYMS>  (2783) 


>  <SPECTRUM TYPE>  (2783) 
MS1

>  <INSTRUMENT TYPE>  (2783) 
EI-B

>  <INSTRUMENT>  (2783) 
HITACHI M-80B

>  <ION MODE>  (2783) 
P

>  <INCHIKEY>  (2783) 
KUFFULVDNCHOFZ-UHFFFAOYSA-N

>  <FORMULA>  (2783) 
C8H10O

>  <EXACT MASS>  (2783) 
122.07316494

>  <MW>  (2783) 
122

>  <ID>  (2783) 
JP008428

>  <CONTRIBUTOR>  (2783) 
University of Tokyo Team, {Faculty of Engineering, University of Tokyo

>  <COMMENT>  (2783) 
SMILES=Cc(c1)cc(C)c(O)c1
InChI=InChI=1S/C8H10O/c1-6-3-4-8(9)7(2)5-6/h3-5,9H,1-2H3
computed SMILES=OC1=CC=C(C=C1C)C
accession=JP008428
date=2016.01.19 (Created 2008.10.21, modified 2011.05.06)
author=SODA AROMATIC CO., LTD.
license=CC BY-NC-SA
exact mass=122.07316
ionization energy=70 eV
ion type=[M]+*
computed spectral entropy=2.895841991860051
computed normalized entropy=0.7521379155889637
SPLASH=splash10-05fr-7900000000-22dd63ee8c11ac7a03ae
submitter=submitter = University of Tokyo Team (Faculty of Engineering, University of Tokyo)
MoNA Rating=3.75

>  <NUM PEAKS>  (2783) 
47

>  <MASS SPECTRAL PEAKS>  (2783) 
15 1.99
26 2.18
27 12.52
28 4.97
29 1.44
37 1.25
38 3.63
39 19.21
41 5.72
43 2.43
45 1.14
50 5.85
51 15.48
52 5.4
53 10.46
55 3.23
60 2.34
61 1.96
62 3.37
63 6.4
64 2
65 10.46
66 2.71
67 1.52
74 1.73
75 1.56
76 1.25
77 30
78 10.14
79 15.9
80 1.33
81 1.06
89 1.43
91 20.42
92 2.44
93 3.5
94 3.06
102 1.1
103 3.96
104 3.23
105 3.09
107 93.98
108 6.36
120 1.14
121 51.05
122 99.99
123 6.97

$$$$

     RDKit          2D

  9  9  0  0  0  0  0  0  0  0999 V2000
   -3.2575    1.8770    0.0000 C   0  0  0  0  0  0  0  0  0  0  0  0
   -1.9548    2.6206    0.0000 C   0  0  0  0  0  0  0  0  0  0  0  0
    0.6396    2.6142    0.0000 C   0  0  0  0  0  0  0  0  0  0  0  0
   -0.6740    0.3893    0.0000 C   0  0  0  0  0  0  0  0  0  0  0  0
    1.9241    1.8893    0.0000 C   0  0  0  0  0  0  0  0  0  0  0  0
    0.6506   -0.4048    0.0000 C   0  0  0  0  0  0  0  0  0  0  0  0
   -0.6594    1.8642    0.0000 C   0  0  0  0  0  0  0  0  0  0  0  0
    1.9496    0.3452    0.0000 C   0  0  0  0  0  0  0  0  0  0  0  0
    3.2548   -0.3941    0.0000 O   0  0  0  0  0  0  0  0  0  0  0  0
  2  1  1  0
  5  3  2  0
  6  4  1  0
  7  2  1  0
  7  3  1  0
  7  4  2  0
  8  5  1  0
  8  6  2  0
  9  8  1  0
M  END
>  <NAME>  (2784) 
P-ETHYLPHENOL

>  <SYNONYMS>  (2784) 


>  <SPECTRUM TYPE>  (2784) 
MS1

>  <INSTRUMENT TYPE>  (2784) 
EI-B

>  <INSTRUMENT>  (2784) 
HITACHI M-80B

>  <ION MODE>  (2784) 
P

>  <INCHIKEY>  (2784) 
HXDOZKJGKXYMEW-UHFFFAOYSA-N

>  <FORMULA>  (2784) 
C8H10O

>  <EXACT MASS>  (2784) 
122.07316494

>  <MW>  (2784) 
122

>  <ID>  (2784) 
JP008427

>  <CONTRIBUTOR>  (2784) 
University of Tokyo Team, {Faculty of Engineering, University of Tokyo

>  <COMMENT>  (2784) 
SMILES=CCc(c1)ccc(O)c1
InChI=InChI=1S/C8H10O/c1-2-7-3-5-8(9)6-4-7/h3-6,9H,2H2,1H3
computed SMILES=OC1=CC=C(C=C1)CC
accession=JP008427
date=2016.01.19 (Created 2008.10.21, modified 2011.05.06)
author=SODA AROMATIC CO., LTD.
license=CC BY-NC-SA
exact mass=122.07316
ionization energy=70 eV
ion type=[M]+*
computed spectral entropy=2.1509216557807864
computed normalized entropy=0.6601773859920551
SPLASH=splash10-0a4i-4900000000-49d46baa756331ae6778
submitter=submitter = University of Tokyo Team (Faculty of Engineering, University of Tokyo)
MoNA Rating=3.75

>  <NUM PEAKS>  (2784) 
26

>  <MASS SPECTRAL PEAKS>  (2784) 
27 4.65
29 1.05
38 1.39
39 8.88
40 1.05
41 1.4
50 2.43
51 5.49
52 2.6
53 3.73
55 1.69
62 1.27
63 3.49
65 4.72
66 1.29
77 15.69
78 3.96
79 1.99
91 4.38
94 1.34
103 1.47
107 99.99
108 7.62
121 2.84
122 33
123 2.8

$$$$

     RDKit          2D

 12 13  0  0  0  0  0  0  0  0999 V2000
    5.8467    1.3723    0.0000 C   0  0  0  0  0  0  0  0  0  0  0  0
    4.5481    0.6216    0.0000 C   0  0  0  0  0  0  0  0  0  0  0  0
    3.2486    1.3708    0.0000 C   0  0  0  0  0  0  0  0  0  0  0  0
    1.9500   -0.9000    0.0000 C   0  0  0  0  0  0  0  0  0  0  0  0
    0.6300   -1.6600    0.0000 C   0  0  0  0  0  0  0  0  0  0  0  0
    0.6300    1.3800    0.0000 C   0  0  0  0  0  0  0  0  0  0  0  0
   -2.9400   -0.2300    0.0000 C   0  0  0  0  0  0  0  0  0  0  0  0
    1.9500    0.6200    0.0000 C   0  0  0  0  0  0  0  0  0  0  0  0
   -0.6600   -0.9000    0.0000 C   0  0  0  0  0  0  0  0  0  0  0  0
   -0.6600    0.6200    0.0000 C   0  0  0  0  0  0  0  0  0  0  0  0
   -2.0600   -1.3400    0.0000 O   0  0  0  0  0  0  0  0  0  0  0  0
   -2.0900    1.0600    0.0000 O   0  0  0  0  0  0  0  0  0  0  0  0
  2  1  2  0
  3  2  1  0
  5  4  2  0
  8  3  1  0
  8  4  1  0
  8  6  2  0
  9  5  1  0
 10  6  1  0
 10  9  2  0
 11  7  1  0
 11  9  1  0
 12  7  1  0
 12 10  1  0
M  END
>  <NAME>  (2785) 
1,2-METHYLENEDIOXY-4-(2-PROPENYL)BENZENE

>  <SYNONYMS>  (2785) 
SAFROLE

>  <SPECTRUM TYPE>  (2785) 
MS1

>  <INSTRUMENT TYPE>  (2785) 
EI-B

>  <INSTRUMENT>  (2785) 
HITACHI M-80B

>  <ION MODE>  (2785) 
P

>  <INCHIKEY>  (2785) 
ZMQAAUBTXCXRIC-UHFFFAOYSA-N

>  <FORMULA>  (2785) 
C10H10O2

>  <EXACT MASS>  (2785) 
162.06807956

>  <MW>  (2785) 
162

>  <ID>  (2785) 
JP008426

>  <CONTRIBUTOR>  (2785) 
University of Tokyo Team, {Faculty of Engineering, University of Tokyo

>  <COMMENT>  (2785) 
SMILES=C=CCc(c1)cc(O2)c(OC2)c1
InChI=InChI=1S/C10H10O2/c1-2-3-8-4-5-9-10(6-8)12-7-11-9/h2,4-6H,1,3,7H2
computed SMILES=O1C2=CC=C(C=C2OC1)CC=C
accession=JP008426
date=2016.01.19 (Created 2008.10.21, modified 2011.05.06)
author=SODA AROMATIC CO., LTD.
license=CC BY-NC-SA
exact mass=162.06808
ionization energy=70 eV
ion type=[M]+*
computed spectral entropy=3.179294925158354
computed normalized entropy=0.800771075372621
SPLASH=splash10-0ik9-6900000000-54b4c1509456711936df
submitter=submitter = University of Tokyo Team (Faculty of Engineering, University of Tokyo)
MoNA Rating=3.75

>  <NUM PEAKS>  (2785) 
53

>  <MASS SPECTRAL PEAKS>  (2785) 
26 1.94
27 7.94
28 1.01
29 4.74
30 1.55
31 1.47
37 1.14
38 3.59
39 18.11
40 1.45
41 2.44
50 10.3
51 32.57
52 6.92
53 5.43
55 1.93
61 1.93
62 5.69
63 12.24
64 2.79
65 5.5
66 1.81
73 1.04
74 3.79
75 3.91
76 5.7
77 39.59
78 22.05
79 6.05
80 1.43
81 1.14
89 2.18
91 7.05
92 1.81
102 6.12
103 34.73
104 49.54
105 9.89
106 1.89
115 1.64
119 2.26
121 1.35
131 37.25
132 10.27
133 2.46
134 1.64
135 29.85
136 2.29
147 1.02
161 24.87
162 99.99
163 9.27
164 1.25

$$$$

     RDKit          2D

 13 13  0  0  0  0  0  0  0  0999 V2000
   -4.5119    1.4826    0.0000 C   0  0  0  0  0  0  0  0  0  0  0  0
    3.2823   -3.0174    0.0000 C   0  0  0  0  0  0  0  0  0  0  0  0
    4.5818    0.7330    0.0000 C   0  0  0  0  0  0  0  0  0  0  0  0
   -3.2129    0.7326    0.0000 C   0  0  0  0  0  0  0  0  0  0  0  0
   -1.9138    1.4826    0.0000 C   0  0  0  0  0  0  0  0  0  0  0  0
   -0.6153   -0.7683    0.0000 C   0  0  0  0  0  0  0  0  0  0  0  0
    0.6838   -1.5183    0.0000 C   0  0  0  0  0  0  0  0  0  0  0  0
    0.6847    1.4834    0.0000 C   0  0  0  0  0  0  0  0  0  0  0  0
   -0.6148    0.7326    0.0000 C   0  0  0  0  0  0  0  0  0  0  0  0
    1.9833   -0.7674    0.0000 C   0  0  0  0  0  0  0  0  0  0  0  0
    1.9838    0.7334    0.0000 C   0  0  0  0  0  0  0  0  0  0  0  0
    3.2823   -1.5174    0.0000 O   0  0  0  0  0  0  0  0  0  0  0  0
    3.2829    1.4832    0.0000 O   0  0  0  0  0  0  0  0  0  0  0  0
  4  1  1  0
  4  5  2  0
  7  6  2  0
  9  5  1  0
  9  6  1  0
  9  8  2  0
 10  7  1  0
 11  8  1  0
 11 10  2  0
 12  2  1  0
 12 10  1  0
 13  3  1  0
 13 11  1  0
M  END
>  <NAME>  (2786) 
(E)-1,2-DIMETHOXY-4-(1-PROPENYL)BENZENE

>  <SYNONYMS>  (2786) 
TRANS-METHYL ISOEUGENOL

>  <SPECTRUM TYPE>  (2786) 
MS1

>  <INSTRUMENT TYPE>  (2786) 
EI-B

>  <INSTRUMENT>  (2786) 
HITACHI M-80B

>  <ION MODE>  (2786) 
P

>  <INCHIKEY>  (2786) 
NNWHUJCUHAELCL-SNAWJCMRSA-N

>  <FORMULA>  (2786) 
C11H14O2

>  <EXACT MASS>  (2786) 
178.099379688

>  <MW>  (2786) 
178

>  <ID>  (2786) 
JP008425

>  <CONTRIBUTOR>  (2786) 
University of Tokyo Team, {Faculty of Engineering, University of Tokyo

>  <COMMENT>  (2786) 
SMILES=COc(c1)c(OC)cc(c1)C([H])=C([H])C
InChI=InChI=1S/C11H14O2/c1-4-5-9-6-7-10(12-2)11(8-9)13-3/h4-8H,1-3H3/b5-4+
computed SMILES=O(C1=CC=C(C=CC)C=C1OC)C
accession=JP008425
date=2016.01.19 (Created 2008.10.21, modified 2011.05.06)
author=SODA AROMATIC CO., LTD.
license=CC BY-NC-SA
exact mass=178.09938
ionization energy=70 eV
ion type=[M]+*
computed spectral entropy=3.1029985809366987
computed normalized entropy=0.7743300687778197
SPLASH=splash10-004i-4900000000-648a0e2f6d12e20248ec
submitter=submitter = University of Tokyo Team (Faculty of Engineering, University of Tokyo)
MoNA Rating=3.75

>  <NUM PEAKS>  (2786) 
55

>  <MASS SPECTRAL PEAKS>  (2786) 
15 4.93
18 1.2
27 2.78
38 1.28
39 5.87
41 6.36
43 1.63
50 3.1
51 5.8
52 2.04
53 2.94
55 3.92
57 1.93
62 1.39
63 4.5
64 1.64
65 7.11
66 2.15
67 1.06
75 1.18
76 1.23
77 9.35
78 3.41
79 8.34
89 3.19
90 1.02
91 23.86
92 3.78
95 1.99
102 1.9
103 13.91
104 3.18
105 5.73
106 1.05
107 27.44
108 1.72
115 6.67
116 1.86
117 3.02
118 1.27
119 2.31
120 2.53
121 1
131 2.35
132 1.19
133 2.21
135 8.15
146 2.16
147 6.65
148 1.25
162 1.49
163 36.13
164 3.33
178 99.99
179 10.06

$$$$

     RDKit          2D

 13 13  0  0  0  0  0  0  0  0999 V2000
   -4.5119    1.4826    0.0000 C   0  0  0  0  0  0  0  0  0  0  0  0
    3.2823   -3.0174    0.0000 C   0  0  0  0  0  0  0  0  0  0  0  0
    4.5818    0.7330    0.0000 C   0  0  0  0  0  0  0  0  0  0  0  0
   -3.2129    0.7326    0.0000 C   0  0  0  0  0  0  0  0  0  0  0  0
   -1.9138    1.4826    0.0000 C   0  0  0  0  0  0  0  0  0  0  0  0
   -0.6153   -0.7683    0.0000 C   0  0  0  0  0  0  0  0  0  0  0  0
    0.6838   -1.5183    0.0000 C   0  0  0  0  0  0  0  0  0  0  0  0
    0.6847    1.4834    0.0000 C   0  0  0  0  0  0  0  0  0  0  0  0
   -0.6148    0.7326    0.0000 C   0  0  0  0  0  0  0  0  0  0  0  0
    1.9833   -0.7674    0.0000 C   0  0  0  0  0  0  0  0  0  0  0  0
    1.9838    0.7334    0.0000 C   0  0  0  0  0  0  0  0  0  0  0  0
    3.2823   -1.5174    0.0000 O   0  0  0  0  0  0  0  0  0  0  0  0
    3.2829    1.4832    0.0000 O   0  0  0  0  0  0  0  0  0  0  0  0
  4  1  2  0
  5  4  1  0
  7  6  2  0
  9  5  1  0
  9  6  1  0
  9  8  2  0
 10  7  1  0
 11  8  1  0
 11 10  2  0
 12  2  1  0
 12 10  1  0
 13  3  1  0
 13 11  1  0
M  END
>  <NAME>  (2787) 
1,2-DIMETHOXY-4-(2-PROPENYL)BENZENE

>  <SYNONYMS>  (2787) 
METHYL EUGENOL

>  <SPECTRUM TYPE>  (2787) 
MS1

>  <INSTRUMENT TYPE>  (2787) 
EI-B

>  <INSTRUMENT>  (2787) 
HITACHI M-80B

>  <ION MODE>  (2787) 
P

>  <INCHIKEY>  (2787) 
ZYEMGPIYFIJGTP-UHFFFAOYSA-N

>  <FORMULA>  (2787) 
C11H14O2

>  <EXACT MASS>  (2787) 
178.099379688

>  <MW>  (2787) 
178

>  <ID>  (2787) 
JP008424

>  <CONTRIBUTOR>  (2787) 
University of Tokyo Team, {Faculty of Engineering, University of Tokyo

>  <COMMENT>  (2787) 
SMILES=C=CCc(c1)cc(OC)c(OC)c1
InChI=InChI=1S/C11H14O2/c1-4-5-9-6-7-10(12-2)11(8-9)13-3/h4,6-8H,1,5H2,2-3H3
computed SMILES=O(C1=CC=C(C=C1OC)CC=C)C
accession=JP008424
date=2016.01.19 (Created 2008.10.21, modified 2011.05.06)
author=SODA AROMATIC CO., LTD.
license=CC BY-NC-SA
exact mass=178.09938
ionization energy=70 eV
ion type=[M]+*
computed spectral entropy=3.5470518376475115
computed normalized entropy=0.8528856826583583
SPLASH=splash10-004i-6900000000-511a7254b57b1693d125
submitter=submitter = University of Tokyo Team (Faculty of Engineering, University of Tokyo)
MoNA Rating=3.75

>  <NUM PEAKS>  (2787) 
64

>  <MASS SPECTRAL PEAKS>  (2787) 
14 1.46
15 10.38
26 2.61
27 5.98
29 2.06
38 2.12
39 14.11
40 1.99
41 12.31
42 1.86
43 3.72
45 5.92
50 5.68
51 14.27
52 3.62
53 4.52
55 8.06
57 3.97
58 1.84
62 1.89
63 7.89
64 3.46
65 12.09
66 2.74
69 1.9
75 2.08
76 2.7
77 15.48
78 8.4
79 12.91
89 5.68
90 2.5
91 32.09
92 6.83
94 1.52
95 2.36
102 2.3
103 27.01
104 6.62
105 7.71
106 2.75
107 21.75
108 3.39
115 11.45
116 3.01
117 5.59
118 1.63
119 4.65
120 4.97
121 2.08
131 5.38
132 2.51
133 1.65
135 12.26
136 1.72
146 2.77
147 26.74
148 5.33
151 10.91
152 1.98
163 26.43
177 2.12
178 99.99
179 11.85

$$$$

     RDKit          2D

 11 11  0  0  0  0  0  0  0  0999 V2000
   -3.5376   -0.2051    0.0000 C   0  0  0  0  0  0  0  0  0  0  0  0
   -2.2386   -2.4551    0.0000 C   0  0  0  0  0  0  0  0  0  0  0  0
    2.9576    2.0449    0.0000 C   0  0  0  0  0  0  0  0  0  0  0  0
    0.3590    2.0458    0.0000 C   0  0  0  0  0  0  0  0  0  0  0  0
   -0.9400    1.2958    0.0000 C   0  0  0  0  0  0  0  0  0  0  0  0
    1.6590   -0.2059    0.0000 C   0  0  0  0  0  0  0  0  0  0  0  0
   -2.2386   -0.9551    0.0000 C   0  0  0  0  0  0  0  0  0  0  0  0
    1.6585    1.2949    0.0000 C   0  0  0  0  0  0  0  0  0  0  0  0
   -0.9395   -0.2051    0.0000 C   0  0  0  0  0  0  0  0  0  0  0  0
    0.3600   -0.9559    0.0000 C   0  0  0  0  0  0  0  0  0  0  0  0
    0.3597   -2.4559    0.0000 O   0  0  0  0  0  0  0  0  0  0  0  0
  5  4  2  0
  7  1  1  0
  7  2  1  0
  8  3  1  0
  8  4  1  0
  8  6  2  0
  9  5  1  0
  9  7  1  0
 10  6  1  0
 10  9  2  0
 11 10  1  0
M  END
>  <NAME>  (2788) 
5-METHYL-2-(1-METHYLETHYL)-PHENOL

>  <SYNONYMS>  (2788) 
THYMOL

>  <SPECTRUM TYPE>  (2788) 
MS1

>  <INSTRUMENT TYPE>  (2788) 
EI-B

>  <INSTRUMENT>  (2788) 
HITACHI M-80B

>  <ION MODE>  (2788) 
P

>  <INCHIKEY>  (2788) 
MGSRCZKZVOBKFT-UHFFFAOYSA-N

>  <FORMULA>  (2788) 
C10H14O

>  <EXACT MASS>  (2788) 
150.104465068

>  <MW>  (2788) 
150

>  <ID>  (2788) 
JP008423

>  <CONTRIBUTOR>  (2788) 
University of Tokyo Team, {Faculty of Engineering, University of Tokyo

>  <COMMENT>  (2788) 
SMILES=CC(C)c(c1)c(O)cc(C)c1
InChI=InChI=1S/C10H14O/c1-7(2)9-5-4-8(3)6-10(9)11/h4-7,11H,1-3H3
computed SMILES=OC1=CC(=CC=C1C(C)C)C
accession=JP008423
date=2016.01.19 (Created 2008.10.21, modified 2011.05.06)
author=SODA AROMATIC CO., LTD.
license=CC BY-NC-SA
exact mass=150.10447
ionization energy=70 eV
ion type=[M]+*
computed spectral entropy=2.4204037718463582
computed normalized entropy=0.6863744517755499
SPLASH=splash10-000i-3900000000-8ce5865e48dad7250d5e
submitter=submitter = University of Tokyo Team (Faculty of Engineering, University of Tokyo)
MoNA Rating=3.75

>  <NUM PEAKS>  (2788) 
34

>  <MASS SPECTRAL PEAKS>  (2788) 
27 3.21
29 1
39 6.41
41 2.85
50 1.19
51 3.49
52 1.29
53 2.48
55 1.08
63 2.02
65 3.51
66 1.33
67 1.02
68 1.13
77 7.43
78 2.24
79 3.46
89 1.14
91 15.79
92 1.58
102 1.03
103 1.31
105 2.97
107 5.2
115 9.15
116 2.65
117 7.52
121 2.11
133 1.03
134 1.59
135 99.99
136 9.86
150 29.52
151 2.83

$$$$

     RDKit          2D

 16 16  0  0  0  0  0  0  0  0999 V2000
   -5.1857    6.0115    0.0000 C   0  0  0  0  0  0  0  0  0  0  0  0
   -3.8904    5.2551    0.0000 C   0  0  0  0  0  0  0  0  0  0  0  0
   -2.5877    5.9987    0.0000 C   0  0  0  0  0  0  0  0  0  0  0  0
   -1.2923    5.2423    0.0000 C   0  0  0  0  0  0  0  0  0  0  0  0
    0.0104    5.9859    0.0000 C   0  0  0  0  0  0  0  0  0  0  0  0
    1.3057    5.2295    0.0000 C   0  0  0  0  0  0  0  0  0  0  0  0
    2.6084    5.9731    0.0000 C   0  0  0  0  0  0  0  0  0  0  0  0
    3.9037    5.2168    0.0000 C   0  0  0  0  0  0  0  0  0  0  0  0
    5.2065    5.9603    0.0000 C   0  0  0  0  0  0  0  0  0  0  0  0
    7.8008    5.9540    0.0000 C   0  0  0  0  0  0  0  0  0  0  0  0
    6.4873    3.7291    0.0000 C   0  0  0  0  0  0  0  0  0  0  0  0
    9.0854    5.2291    0.0000 C   0  0  0  0  0  0  0  0  0  0  0  0
    7.8118    2.9350    0.0000 C   0  0  0  0  0  0  0  0  0  0  0  0
    6.5018    5.2040    0.0000 C   0  0  0  0  0  0  0  0  0  0  0  0
    9.1108    3.6850    0.0000 C   0  0  0  0  0  0  0  0  0  0  0  0
   10.4160    2.9457    0.0000 O   0  0  0  0  0  0  0  0  0  0  0  0
  2  1  1  0
  3  2  1  0
  4  3  1  0
  5  4  1  0
  6  5  1  0
  7  6  1  0
  8  7  1  0
  9  8  1  0
 12 10  2  0
 13 11  1  0
 14  9  1  0
 14 10  1  0
 14 11  2  0
 15 12  1  0
 15 13  2  0
 16 15  1  0
M  END
>  <NAME>  (2789) 
PARA-NONYLPHENOL

>  <SYNONYMS>  (2789) 


>  <SPECTRUM TYPE>  (2789) 
MS1

>  <INSTRUMENT TYPE>  (2789) 
EI-B

>  <INSTRUMENT>  (2789) 
HITACHI M-60

>  <ION MODE>  (2789) 
P

>  <INCHIKEY>  (2789) 
IGFHQQFPSIBGKE-UHFFFAOYSA-N

>  <FORMULA>  (2789) 
C15H24O

>  <EXACT MASS>  (2789) 
220.182715388

>  <MW>  (2789) 
220

>  <ID>  (2789) 
JP008422

>  <CONTRIBUTOR>  (2789) 
University of Tokyo Team, {Faculty of Engineering, University of Tokyo

>  <COMMENT>  (2789) 
SMILES=CCCCCCCCCc(c1)ccc(O)c1
InChI=InChI=1S/C15H24O/c1-2-3-4-5-6-7-8-9-14-10-12-15(16)13-11-14/h10-13,16H,2-9H2,1H3
computed SMILES=OC1=CC=C(C=C1)CCCCCCCCC
accession=JP008422
date=2016.01.19 (Created 2008.10.21, modified 2011.05.06)
author=UBE SCIENTIFIC ANALYSIS LABORATORY
license=CC BY-NC-SA
exact mass=220.18272
ionization energy=70 eV
ion type=[M]+*
computed spectral entropy=2.6370974876396693
computed normalized entropy=0.74172695388224
SPLASH=splash10-000i-2900000000-7a162fc7755b07f777e5
submitter=submitter = University of Tokyo Team (Faculty of Engineering, University of Tokyo)
MoNA Rating=3.75

>  <NUM PEAKS>  (2789) 
35

>  <MASS SPECTRAL PEAKS>  (2789) 
27 2.8
29 7.52
39 3.4
41 15.24
43 8.26
55 8.82
57 3.66
65 2.25
77 6.55
91 5.49
94 0.99
95 4.47
103 1.82
105 1.32
107 51.17
108 3.09
115 1.35
119 2.84
120 1.77
121 49.27
122 4.77
133 1.78
134 4.28
135 99.99
136 10.07
147 0.58
149 34.4
150 3.54
163 9.4
164 0.48
177 5.03
191 5.53
206 0.92
220 7.25
221 0.42

$$$$

     RDKit          2D

 41 40  0  0  0  0  0  0  0  0999 V2000
   12.3409   21.3750    0.0000 C   0  0  0  0  0  0  0  0  0  0  0  0
  -37.0226   21.3750    0.0000 C   0  0  0  0  0  0  0  0  0  0  0  0
   11.0418   22.1250    0.0000 C   0  0  0  0  0  0  0  0  0  0  0  0
  -35.7235   22.1250    0.0000 C   0  0  0  0  0  0  0  0  0  0  0  0
    9.7428   21.3750    0.0000 C   0  0  0  0  0  0  0  0  0  0  0  0
  -34.4245   21.3750    0.0000 C   0  0  0  0  0  0  0  0  0  0  0  0
    8.4437   22.1250    0.0000 C   0  0  0  0  0  0  0  0  0  0  0  0
  -33.1255   22.1250    0.0000 C   0  0  0  0  0  0  0  0  0  0  0  0
    7.1447   21.3750    0.0000 C   0  0  0  0  0  0  0  0  0  0  0  0
  -31.8264   21.3750    0.0000 C   0  0  0  0  0  0  0  0  0  0  0  0
    5.8457   22.1250    0.0000 C   0  0  0  0  0  0  0  0  0  0  0  0
  -30.5274   22.1250    0.0000 C   0  0  0  0  0  0  0  0  0  0  0  0
    4.5466   21.3750    0.0000 C   0  0  0  0  0  0  0  0  0  0  0  0
  -29.2284   21.3750    0.0000 C   0  0  0  0  0  0  0  0  0  0  0  0
    3.2476   22.1250    0.0000 C   0  0  0  0  0  0  0  0  0  0  0  0
    1.9486   21.3750    0.0000 C   0  0  0  0  0  0  0  0  0  0  0  0
    0.6495   22.1250    0.0000 C   0  0  0  0  0  0  0  0  0  0  0  0
   -0.6495   21.3750    0.0000 C   0  0  0  0  0  0  0  0  0  0  0  0
   -1.9486   22.1250    0.0000 C   0  0  0  0  0  0  0  0  0  0  0  0
   -3.2476   21.3750    0.0000 C   0  0  0  0  0  0  0  0  0  0  0  0
  -27.9293   22.1250    0.0000 C   0  0  0  0  0  0  0  0  0  0  0  0
   -4.5466   22.1250    0.0000 C   0  0  0  0  0  0  0  0  0  0  0  0
  -26.6303   21.3750    0.0000 C   0  0  0  0  0  0  0  0  0  0  0  0
   -5.8457   21.3750    0.0000 C   0  0  0  0  0  0  0  0  0  0  0  0
  -25.3312   22.1250    0.0000 C   0  0  0  0  0  0  0  0  0  0  0  0
   -7.1447   22.1250    0.0000 C   0  0  0  0  0  0  0  0  0  0  0  0
  -24.0322   21.3750    0.0000 C   0  0  0  0  0  0  0  0  0  0  0  0
   -8.4437   21.3750    0.0000 C   0  0  0  0  0  0  0  0  0  0  0  0
  -18.8361   21.3750    0.0000 C   0  0  0  0  0  0  0  0  0  0  0  0
  -13.6399   21.3750    0.0000 C   0  0  0  0  0  0  0  0  0  0  0  0
  -22.7332   22.1250    0.0000 C   0  0  0  0  0  0  0  0  0  0  0  0
   -9.7428   22.1250    0.0000 C   0  0  0  0  0  0  0  0  0  0  0  0
  -17.5370   22.1250    0.0000 C   0  0  0  0  0  0  0  0  0  0  0  0
  -14.9389   22.1250    0.0000 C   0  0  0  0  0  0  0  0  0  0  0  0
  -20.1351   22.1250    0.0000 C   0  0  0  0  0  0  0  0  0  0  0  0
  -12.3409   22.1250    0.0000 C   0  0  0  0  0  0  0  0  0  0  0  0
  -20.1351   23.6250    0.0000 O   0  0  0  0  0  0  0  0  0  0  0  0
  -12.3409   23.6250    0.0000 O   0  0  0  0  0  0  0  0  0  0  0  0
  -21.4341   21.3750    0.0000 O   0  0  0  0  0  0  0  0  0  0  0  0
  -11.0418   21.3750    0.0000 O   0  0  0  0  0  0  0  0  0  0  0  0
  -16.2380   21.3750    0.0000 S   0  0  0  0  0  0  0  0  0  0  0  0
  3  1  1  0
  4  2  1  0
  5  3  1  0
  6  4  1  0
  7  5  1  0
  8  6  1  0
  9  7  1  0
 10  8  1  0
 11  9  1  0
 12 10  1  0
 13 11  1  0
 14 12  1  0
 15 13  1  0
 16 15  1  0
 17 16  1  0
 18 17  1  0
 19 18  1  0
 20 19  1  0
 21 14  1  0
 22 20  1  0
 23 21  1  0
 24 22  1  0
 25 23  1  0
 26 24  1  0
 27 25  1  0
 28 26  1  0
 31 27  1  0
 32 28  1  0
 33 29  1  0
 34 30  1  0
 35 29  1  0
 36 30  1  0
 37 35  2  0
 38 36  2  0
 39 31  1  0
 39 35  1  0
 40 32  1  0
 40 36  1  0
 41 33  1  0
 41 34  1  0
M  END
>  <NAME>  (2790) 
LAURYL STEARYL THIODIPROPIONATE

>  <SYNONYMS>  (2790) 
DODECYL OCTADECYL 4-THIAHEPTANEDIOATE

>  <SPECTRUM TYPE>  (2790) 
MS1

>  <INSTRUMENT TYPE>  (2790) 
EI-B

>  <INSTRUMENT>  (2790) 
HITACHI M-60

>  <ION MODE>  (2790) 
P

>  <INCHIKEY>  (2790) 
RRZCFXQTVDJDGF-UHFFFAOYSA-N

>  <FORMULA>  (2790) 
C36H70O4S

>  <EXACT MASS>  (2790) 
598.49948172

>  <MW>  (2790) 
598

>  <ID>  (2790) 
JP008421

>  <CONTRIBUTOR>  (2790) 
University of Tokyo Team, {Faculty of Engineering, University of Tokyo

>  <COMMENT>  (2790) 
SMILES=C(CCCCCCOC(CCSCCC(OCCCCCCCCCCCCCCCCCC)=O)=O)CCCCC
InChI=InChI=1S/C36H70O4S/c1-3-5-7-9-11-13-15-16-17-18-19-20-22-24-26-28-32-40-36(38)30-34-41-33-29-35(37)39-31-27-25-23-21-14-12-10-8-6-4-2/h3-34H2,1-2H3
computed SMILES=O=C(OCCCCCCCCCCCC)CCSCCC(=O)OCCCCCCCCCCCCCCCCCC
accession=JP008421
license=CC BY-NC-SA
date=2016.01.19 (Created 2008.10.21, modified 2011.05.06)
author=UBE SCIENTIFIC ANALYSIS LABORATORY
exact mass=598.49948
ionization energy=70 eV
ion type=[M]+*
computed spectral entropy=3.8103473660661016
computed normalized entropy=0.8045159863091792
SPLASH=splash10-0a4l-9300000000-1cbae39ecc46b842cb44
submitter=submitter = University of Tokyo Team (Faculty of Engineering, University of Tokyo)
MoNA Rating=3.75

>  <NUM PEAKS>  (2790) 
114

>  <MASS SPECTRAL PEAKS>  (2790) 
27 6.67
28 6.69
29 16.66
41 36.5
42 6.69
43 92.06
44 1.87
54 3.7
55 99.99
56 17.24
57 83.92
58 2.54
60 3
61 4.85
67 6.15
68 7.4
69 35.71
70 9.82
71 37.73
72 1.18
73 15.67
74 4.85
75 2.13
81 6.03
82 9.44
83 26.67
84 7.26
85 20.17
86 0.74
87 4.16
88 4.06
89 26.24
91 0.84
95 4.02
96 5.81
97 17.23
98 4.7
99 4.95
105 13.12
106 9.81
107 7.09
109 2.65
110 2.47
111 7.95
112 2.48
113 4.37
114 6.93
115 3.49
116 1.15
117 2.01
119 6.35
123 1.08
124 1.56
125 3.09
126 1.53
127 3.66
132 18.39
133 6.17
134 3.21
135 1.27
138 0.54
139 1.18
140 0.91
141 1.28
142 8.73
143 44.03
144 3.9
145 2.21
159 3.74
160 4.4
161 30.1
162 2.28
163 1.08
166 2.61
167 0.62
168 1.29
169 1.53
178 38.52
179 9.81
180 2.29
201 1.09
213 0.83
223 1.17
241 2.03
250 0.43
252 0.26
253 0.64
273 2.68
274 1.26
285 0.91
297 0.3
300 1.11
307 0.54
325 2.09
327 0.98
328 1.94
329 7.4
330 1.55
346 11.54
347 3.99
348 0.92
357 0.87
358 0.77
412 0.91
413 2.82
414 0.68
430 4.15
431 1.57
514 2.53
515 0.65
598 6.16
599 2.52
600 0.75
682 0.63

$$$$

     RDKit          2D

 47 46  0  0  0  0  0  0  0  0999 V2000
   14.2894   24.7500    0.0000 C   0  0  0  0  0  0  0  0  0  0  0  0
  -42.8683   24.7500    0.0000 C   0  0  0  0  0  0  0  0  0  0  0  0
   12.9904   25.5000    0.0000 C   0  0  0  0  0  0  0  0  0  0  0  0
  -41.5692   25.5000    0.0000 C   0  0  0  0  0  0  0  0  0  0  0  0
   11.6913   24.7500    0.0000 C   0  0  0  0  0  0  0  0  0  0  0  0
  -40.2702   24.7500    0.0000 C   0  0  0  0  0  0  0  0  0  0  0  0
   10.3923   25.5000    0.0000 C   0  0  0  0  0  0  0  0  0  0  0  0
  -38.9711   25.5000    0.0000 C   0  0  0  0  0  0  0  0  0  0  0  0
    9.0933   24.7500    0.0000 C   0  0  0  0  0  0  0  0  0  0  0  0
  -37.6721   24.7500    0.0000 C   0  0  0  0  0  0  0  0  0  0  0  0
    7.7942   25.5000    0.0000 C   0  0  0  0  0  0  0  0  0  0  0  0
  -36.3731   25.5000    0.0000 C   0  0  0  0  0  0  0  0  0  0  0  0
    6.4952   24.7500    0.0000 C   0  0  0  0  0  0  0  0  0  0  0  0
  -35.0740   24.7500    0.0000 C   0  0  0  0  0  0  0  0  0  0  0  0
    5.1962   25.5000    0.0000 C   0  0  0  0  0  0  0  0  0  0  0  0
  -33.7750   25.5000    0.0000 C   0  0  0  0  0  0  0  0  0  0  0  0
    3.8971   24.7500    0.0000 C   0  0  0  0  0  0  0  0  0  0  0  0
  -32.4760   24.7500    0.0000 C   0  0  0  0  0  0  0  0  0  0  0  0
    2.5981   25.5000    0.0000 C   0  0  0  0  0  0  0  0  0  0  0  0
  -31.1769   25.5000    0.0000 C   0  0  0  0  0  0  0  0  0  0  0  0
    1.2990   24.7500    0.0000 C   0  0  0  0  0  0  0  0  0  0  0  0
  -29.8779   24.7500    0.0000 C   0  0  0  0  0  0  0  0  0  0  0  0
    0.0000   25.5000    0.0000 C   0  0  0  0  0  0  0  0  0  0  0  0
  -28.5788   25.5000    0.0000 C   0  0  0  0  0  0  0  0  0  0  0  0
   -1.2990   24.7500    0.0000 C   0  0  0  0  0  0  0  0  0  0  0  0
  -27.2798   24.7500    0.0000 C   0  0  0  0  0  0  0  0  0  0  0  0
   -2.5981   25.5000    0.0000 C   0  0  0  0  0  0  0  0  0  0  0  0
  -25.9808   25.5000    0.0000 C   0  0  0  0  0  0  0  0  0  0  0  0
   -3.8971   24.7500    0.0000 C   0  0  0  0  0  0  0  0  0  0  0  0
  -24.6817   24.7500    0.0000 C   0  0  0  0  0  0  0  0  0  0  0  0
   -5.1962   25.5000    0.0000 C   0  0  0  0  0  0  0  0  0  0  0  0
  -23.3827   25.5000    0.0000 C   0  0  0  0  0  0  0  0  0  0  0  0
   -6.4952   24.7500    0.0000 C   0  0  0  0  0  0  0  0  0  0  0  0
  -22.0836   24.7500    0.0000 C   0  0  0  0  0  0  0  0  0  0  0  0
  -11.6913   24.7500    0.0000 C   0  0  0  0  0  0  0  0  0  0  0  0
  -16.8875   24.7500    0.0000 C   0  0  0  0  0  0  0  0  0  0  0  0
   -7.7942   25.5000    0.0000 C   0  0  0  0  0  0  0  0  0  0  0  0
  -20.7846   25.5000    0.0000 C   0  0  0  0  0  0  0  0  0  0  0  0
  -12.9904   25.5000    0.0000 C   0  0  0  0  0  0  0  0  0  0  0  0
  -15.5885   25.5000    0.0000 C   0  0  0  0  0  0  0  0  0  0  0  0
  -10.3923   25.5000    0.0000 C   0  0  0  0  0  0  0  0  0  0  0  0
  -18.1865   25.5000    0.0000 C   0  0  0  0  0  0  0  0  0  0  0  0
  -10.3923   27.0000    0.0000 O   0  0  0  0  0  0  0  0  0  0  0  0
  -18.1865   27.0000    0.0000 O   0  0  0  0  0  0  0  0  0  0  0  0
   -9.0933   24.7500    0.0000 O   0  0  0  0  0  0  0  0  0  0  0  0
  -19.4856   24.7500    0.0000 O   0  0  0  0  0  0  0  0  0  0  0  0
  -14.2894   24.7500    0.0000 S   0  0  0  0  0  0  0  0  0  0  0  0
  3  1  1  0
  4  2  1  0
  5  3  1  0
  6  4  1  0
  7  5  1  0
  8  6  1  0
  9  7  1  0
 10  8  1  0
 11  9  1  0
 12 10  1  0
 13 11  1  0
 14 12  1  0
 15 13  1  0
 16 14  1  0
 17 15  1  0
 18 16  1  0
 19 17  1  0
 20 18  1  0
 21 19  1  0
 22 20  1  0
 23 21  1  0
 24 22  1  0
 25 23  1  0
 26 24  1  0
 27 25  1  0
 28 26  1  0
 29 27  1  0
 30 28  1  0
 31 29  1  0
 32 30  1  0
 33 31  1  0
 34 32  1  0
 37 33  1  0
 38 34  1  0
 39 35  1  0
 40 36  1  0
 41 35  1  0
 42 36  1  0
 43 41  2  0
 44 42  2  0
 45 37  1  0
 45 41  1  0
 46 38  1  0
 46 42  1  0
 47 39  1  0
 47 40  1  0
M  END
>  <NAME>  (2791) 
DISTEARYL THIODIPROPIONATE

>  <SYNONYMS>  (2791) 
DIOCTADECYL 4-THIAHEPTANEDIOATE

>  <SPECTRUM TYPE>  (2791) 
MS1

>  <INSTRUMENT TYPE>  (2791) 
EI-B

>  <INSTRUMENT>  (2791) 
HITACHI M-60

>  <ION MODE>  (2791) 
P

>  <INCHIKEY>  (2791) 
PWWSSIYVTQUJQQ-UHFFFAOYSA-N

>  <FORMULA>  (2791) 
C42H82O4S

>  <EXACT MASS>  (2791) 
682.593382104

>  <MW>  (2791) 
682

>  <ID>  (2791) 
JP008420

>  <CONTRIBUTOR>  (2791) 
University of Tokyo Team, {Faculty of Engineering, University of Tokyo

>  <COMMENT>  (2791) 
SMILES=C(CCCCCCCCCCCCOC(=O)CCSCCC(OCCCCCCCCCCCCCCCCCC)=O)CCCCC
InChI=InChI=1S/C42H82O4S/c1-3-5-7-9-11-13-15-17-19-21-23-25-27-29-31-33-37-45-41(43)35-39-47-40-36-42(44)46-38-34-32-30-28-26-24-22-20-18-16-14-12-10-8-6-4-2/h3-40H2,1-2H3
computed SMILES=O=C(OCCCCCCCCCCCCCCCCCC)CCSCCC(=O)OCCCCCCCCCCCCCCCCCC
accession=JP008420
date=2016.01.19 (Created 2008.10.21, modified 2011.05.06)
author=UBE SCIENTIFIC ANALYSIS LABORATORY
license=CC BY-NC-SA
exact mass=682.59338
ionization energy=70 eV
ion type=[M]+*
computed spectral entropy=3.784145145964083
computed normalized entropy=0.8147774871111029
SPLASH=splash10-0a4l-9300000000-6d0ffc6c3a5332c170ff
submitter=submitter = University of Tokyo Team (Faculty of Engineering, University of Tokyo)
MoNA Rating=3.75

>  <NUM PEAKS>  (2791) 
104

>  <MASS SPECTRAL PEAKS>  (2791) 
27 5.49
28 11.36
29 16.99
41 31.93
42 7.65
43 79.61
44 1.63
54 3.56
55 99.99
56 20.19
57 80.36
58 2.63
60 1.49
61 6.57
67 7.01
68 9.43
69 36.55
70 14
71 42.55
72 1.82
73 19.76
74 3.06
75 1.15
81 6.2
82 11.07
83 35.61
84 7.99
85 21.94
86 0.76
87 2.21
88 6.18
89 24.34
95 4.81
96 6.45
97 22.73
98 5.48
99 5.5
105 7.03
106 19.33
107 10.71
109 2.42
110 3.47
111 10.91
112 3.04
113 6.18
114 4.91
115 3.15
117 1.23
119 4.73
123 1.53
124 1.9
125 5.61
126 1.93
127 5.64
128 0.62
132 10.2
133 4.4
134 1.74
135 0.55
137 0.52
138 0.87
139 2.25
140 1.27
141 2.69
142 4.97
143 36.02
144 3.1
145 1.81
153 1.21
154 0.47
155 0.86
159 1.51
160 2.96
161 21.21
162 1.33
163 0.94
169 0.65
178 25.64
179 6.73
180 2.03
224 0.5
250 1.42
252 1.71
253 1.98
285 2.74
297 0.78
307 1.33
324 0.46
325 4.82
326 0.84
357 2.25
358 1.2
359 0.19
384 0.35
411 0.6
412 2.02
413 5.01
414 1.31
430 8.24
431 3.33
432 0.85
682 8.11
683 3.76
684 1.25

$$$$

     RDKit          2D

 35 34  0  0  0  0  0  0  0  0999 V2000
  -31.1769   18.0000    0.0000 C   0  0  0  0  0  0  0  0  0  0  0  0
   10.3923   18.0000    0.0000 C   0  0  0  0  0  0  0  0  0  0  0  0
  -29.8779   17.2500    0.0000 C   0  0  0  0  0  0  0  0  0  0  0  0
    9.0933   17.2500    0.0000 C   0  0  0  0  0  0  0  0  0  0  0  0
  -28.5788   18.0000    0.0000 C   0  0  0  0  0  0  0  0  0  0  0  0
    7.7942   18.0000    0.0000 C   0  0  0  0  0  0  0  0  0  0  0  0
  -27.2798   17.2500    0.0000 C   0  0  0  0  0  0  0  0  0  0  0  0
    6.4952   17.2500    0.0000 C   0  0  0  0  0  0  0  0  0  0  0  0
  -25.9808   18.0000    0.0000 C   0  0  0  0  0  0  0  0  0  0  0  0
    5.1962   18.0000    0.0000 C   0  0  0  0  0  0  0  0  0  0  0  0
  -24.6817   17.2500    0.0000 C   0  0  0  0  0  0  0  0  0  0  0  0
    3.8971   17.2500    0.0000 C   0  0  0  0  0  0  0  0  0  0  0  0
  -23.3827   18.0000    0.0000 C   0  0  0  0  0  0  0  0  0  0  0  0
    2.5981   18.0000    0.0000 C   0  0  0  0  0  0  0  0  0  0  0  0
  -22.0836   17.2500    0.0000 C   0  0  0  0  0  0  0  0  0  0  0  0
    1.2990   17.2500    0.0000 C   0  0  0  0  0  0  0  0  0  0  0  0
  -20.7846   18.0000    0.0000 C   0  0  0  0  0  0  0  0  0  0  0  0
    0.0000   18.0000    0.0000 C   0  0  0  0  0  0  0  0  0  0  0  0
  -19.4856   17.2500    0.0000 C   0  0  0  0  0  0  0  0  0  0  0  0
   -1.2990   17.2500    0.0000 C   0  0  0  0  0  0  0  0  0  0  0  0
  -18.1865   18.0000    0.0000 C   0  0  0  0  0  0  0  0  0  0  0  0
   -2.5981   18.0000    0.0000 C   0  0  0  0  0  0  0  0  0  0  0  0
  -12.9904   18.0000    0.0000 C   0  0  0  0  0  0  0  0  0  0  0  0
   -7.7942   18.0000    0.0000 C   0  0  0  0  0  0  0  0  0  0  0  0
  -16.8875   17.2500    0.0000 C   0  0  0  0  0  0  0  0  0  0  0  0
   -3.8971   17.2500    0.0000 C   0  0  0  0  0  0  0  0  0  0  0  0
  -11.6913   17.2500    0.0000 C   0  0  0  0  0  0  0  0  0  0  0  0
   -9.0933   17.2500    0.0000 C   0  0  0  0  0  0  0  0  0  0  0  0
  -14.2894   17.2500    0.0000 C   0  0  0  0  0  0  0  0  0  0  0  0
   -6.4952   17.2500    0.0000 C   0  0  0  0  0  0  0  0  0  0  0  0
  -14.2894   15.7500    0.0000 O   0  0  0  0  0  0  0  0  0  0  0  0
   -6.4952   15.7500    0.0000 O   0  0  0  0  0  0  0  0  0  0  0  0
  -15.5885   18.0000    0.0000 O   0  0  0  0  0  0  0  0  0  0  0  0
   -5.1962   18.0000    0.0000 O   0  0  0  0  0  0  0  0  0  0  0  0
  -10.3923   18.0000    0.0000 S   0  0  0  0  0  0  0  0  0  0  0  0
  3  1  1  0
  4  2  1  0
  5  3  1  0
  6  4  1  0
  7  5  1  0
  8  6  1  0
  9  7  1  0
 10  8  1  0
 11  9  1  0
 12 10  1  0
 13 11  1  0
 14 12  1  0
 15 13  1  0
 16 14  1  0
 17 15  1  0
 18 16  1  0
 19 17  1  0
 20 18  1  0
 21 19  1  0
 22 20  1  0
 25 21  1  0
 26 22  1  0
 27 23  1  0
 28 24  1  0
 29 23  1  0
 30 24  1  0
 31 29  2  0
 32 30  2  0
 33 25  1  0
 33 29  1  0
 34 26  1  0
 34 30  1  0
 35 27  1  0
 35 28  1  0
M  END
>  <NAME>  (2792) 
DILAURYL THIODIPROPIONATE

>  <SYNONYMS>  (2792) 
DIDODECYL 4-THIAHEPTANEDIOATE

>  <SPECTRUM TYPE>  (2792) 
MS1

>  <INSTRUMENT TYPE>  (2792) 
EI-B

>  <INSTRUMENT>  (2792) 
HITACHI M-60

>  <ION MODE>  (2792) 
P

>  <INCHIKEY>  (2792) 
GHKOFFNLGXMVNJ-UHFFFAOYSA-N

>  <FORMULA>  (2792) 
C30H58O4S

>  <EXACT MASS>  (2792) 
514.4055813360001

>  <MW>  (2792) 
514

>  <ID>  (2792) 
JP008418

>  <CONTRIBUTOR>  (2792) 
University of Tokyo Team, {Faculty of Engineering, University of Tokyo

>  <COMMENT>  (2792) 
SMILES=C(CCCCCCCOC(=O)CCSCCC(=O)OCCCCCCCCCCCC)CCCC
InChI=InChI=1S/C30H58O4S/c1-3-5-7-9-11-13-15-17-19-21-25-33-29(31)23-27-35-28-24-30(32)34-26-22-20-18-16-14-12-10-8-6-4-2/h3-28H2,1-2H3
computed SMILES=O=C(OCCCCCCCCCCCC)CCSCCC(=O)OCCCCCCCCCCCC
accession=JP008418
date=2016.01.19 (Created 2008.10.21, modified 2011.05.06)
author=UBE SCIENTIFIC ANALYSIS LABORATORY
license=CC BY-NC-SA
exact mass=514.40558
ionization energy=70 eV
ion type=[M]+*
computed spectral entropy=3.6655799746649897
computed normalized entropy=0.8341386703194705
SPLASH=splash10-0a4l-9300000000-d1a5053622e30ea63f58
submitter=submitter = University of Tokyo Team (Faculty of Engineering, University of Tokyo)
MoNA Rating=3.75

>  <NUM PEAKS>  (2792) 
81

>  <MASS SPECTRAL PEAKS>  (2792) 
27 6.42
28 7.17
29 19.57
41 40.56
42 7.63
43 89.9
54 2.12
55 99.99
56 15.61
57 71.59
60 2.31
61 2.65
67 3.78
68 5.17
69 31.11
70 8.99
71 33.34
73 12.69
74 4.98
75 1.86
81 4.78
82 7.76
83 18.77
84 5.63
85 16.81
87 3.82
88 3.92
89 24.37
95 3.41
96 4.24
97 10.87
98 3.47
99 3.48
105 14.79
106 7.02
107 4.36
109 1.65
110 1.16
111 5.23
112 1.11
113 2.74
114 8.72
115 4.02
117 1.11
119 6.4
125 1.06
127 2.19
132 24.95
133 5.91
134 3.61
142 10.46
143 37.99
144 3.85
145 1.89
159 4.72
160 5.63
161 28.36
162 1.26
166 4.04
168 2.27
169 1.13
178 39.78
179 9.94
180 2.25
201 1.79
213 1.35
223 1.44
241 3.24
273 4.71
274 2.86
300 2.04
327 1.71
328 3.29
329 11.98
330 2.43
346 16.65
347 6
348 1.1
514 13.78
515 4.69
516 1.16

$$$$

     RDKit          2D

 16 16  0  0  0  0  0  0  0  0999 V2000
    0.0000    3.0000    0.0000 C   0  0  0  0  0  0  0  0  0  0  0  0
   -3.3491   -0.2013    0.0000 C   0  0  0  0  0  0  0  0  0  0  0  0
   -3.8978   -2.2504    0.0000 C   0  0  0  0  0  0  0  0  0  0  0  0
   -1.8487   -2.7991    0.0000 C   0  0  0  0  0  0  0  0  0  0  0  0
    1.8487   -2.7991    0.0000 C   0  0  0  0  0  0  0  0  0  0  0  0
    3.8978   -2.2504    0.0000 C   0  0  0  0  0  0  0  0  0  0  0  0
    3.3491   -0.2013    0.0000 C   0  0  0  0  0  0  0  0  0  0  0  0
   -1.3000    0.7500    0.0000 C   0  0  0  0  0  0  0  0  0  0  0  0
    1.3000    0.7500    0.0000 C   0  0  0  0  0  0  0  0  0  0  0  0
    0.0000    1.5000    0.0000 C   0  0  0  0  0  0  0  0  0  0  0  0
   -1.3000   -0.7500    0.0000 C   0  0  0  0  0  0  0  0  0  0  0  0
    1.3000   -0.7500    0.0000 C   0  0  0  0  0  0  0  0  0  0  0  0
    0.0000   -1.5000    0.0000 C   0  0  0  0  0  0  0  0  0  0  0  0
   -2.5989   -1.5002    0.0000 C   0  0  0  0  0  0  0  0  0  0  0  0
    2.5989   -1.5002    0.0000 C   0  0  0  0  0  0  0  0  0  0  0  0
   -0.0000   -3.0000    0.0000 O   0  0  0  0  0  0  0  0  0  0  0  0
 10  1  1  0
 10  8  2  0
 10  9  1  0
 11  8  1  0
 12  9  2  0
 13 11  2  0
 13 12  1  0
 14  2  1  0
 14  3  1  0
 14  4  1  0
 14 11  1  0
 15  5  1  0
 15  6  1  0
 15  7  1  0
 15 12  1  0
 16 13  1  0
M  END
>  <NAME>  (2793) 
2,6-BIS(TERT-BUTYL)-4-METHYLPHENOL

>  <SYNONYMS>  (2793) 


>  <SPECTRUM TYPE>  (2793) 
MS1

>  <INSTRUMENT TYPE>  (2793) 
EI-B

>  <INSTRUMENT>  (2793) 
HITACHI M-60

>  <ION MODE>  (2793) 
P

>  <INCHIKEY>  (2793) 
NLZUEZXRPGMBCV-UHFFFAOYSA-N

>  <FORMULA>  (2793) 
C15H24O

>  <EXACT MASS>  (2793) 
220.182715388

>  <MW>  (2793) 
220

>  <ID>  (2793) 
JP008417

>  <CONTRIBUTOR>  (2793) 
University of Tokyo Team, {Faculty of Engineering, University of Tokyo

>  <COMMENT>  (2793) 
SMILES=Cc(c1)cc(C(C)(C)C)c(O)c1C(C)(C)C
InChI=InChI=1S/C15H24O/c1-10-8-11(14(2,3)4)13(16)12(9-10)15(5,6)7/h8-9,16H,1-7H3
computed SMILES=OC=1C(=CC(=CC1C(C)(C)C)C)C(C)(C)C
accession=JP008417
date=2016.01.19 (Created 2008.10.21, modified 2011.05.06)
author=UBE SCIENTIFIC ANALYSIS LABORATORY
license=CC BY-NC-SA
exact mass=220.18272
ionization energy=70 eV
ion type=[M]+*
computed spectral entropy=3.0539942435917236
computed normalized entropy=0.7806687842464473
SPLASH=splash10-0a4i-8590000000-bb65eb9156b08a98eb13
submitter=submitter = University of Tokyo Team (Faculty of Engineering, University of Tokyo)
MoNA Rating=3.75

>  <NUM PEAKS>  (2793) 
50

>  <MASS SPECTRAL PEAKS>  (2793) 
18 3.43
29 9.63
39 2.31
41 17.29
43 3.26
53 1.81
55 9.89
57 40.3
65 1.37
67 9.24
69 2.78
77 3.77
79 3.13
80 1.26
81 11.8
91 6.62
95 6.37
105 8.31
115 3.71
116 1.17
117 1.32
119 4.62
121 4.21
128 2.43
129 2.93
130 1.11
131 5.1
133 2.74
135 1.04
141 1.52
142 1.44
143 1.09
145 16.74
146 1.79
147 1.88
149 3.36
157 0.94
159 0.54
161 6.34
163 2.99
175 1.87
177 7.61
189 5.27
203 2.98
205 99.99
206 15.75
207 0.38
218 1.39
220 25.14
221 4.03

$$$$

     RDKit          2D

 10 10  0  0  0  0  0  0  0  0999 V2000
    1.6056    2.0565    0.0000 C   0  0  0  0  0  0  0  0  0  0  0  0
    0.2920   -0.1684    0.0000 C   0  0  0  0  0  0  0  0  0  0  0  0
    2.8901    1.3316    0.0000 C   0  0  0  0  0  0  0  0  0  0  0  0
    1.6165   -0.9625    0.0000 C   0  0  0  0  0  0  0  0  0  0  0  0
    0.3065    1.3065    0.0000 C   0  0  0  0  0  0  0  0  0  0  0  0
    2.9156   -0.2125    0.0000 C   0  0  0  0  0  0  0  0  0  0  0  0
   -0.9888    2.0629    0.0000 C   0  0  0  0  0  0  0  0  0  0  0  0
    4.2207   -0.9518    0.0000 O   0  0  0  0  0  0  0  0  0  0  0  0
   -2.2915    1.3193    0.0000 O   0  0  0  0  0  0  0  0  0  0  0  0
   -0.9814    3.5628    0.0000 O   0  0  0  0  0  0  0  0  0  0  0  0
  3  1  2  0
  4  2  1  0
  5  1  1  0
  5  2  2  0
  6  3  1  0
  6  4  2  0
  7  5  1  0
  8  6  1  0
  9  7  1  0
 10  7  2  0
M  END
>  <NAME>  (2794) 
PARA-HYDROXYBENZOIC ACID

>  <SYNONYMS>  (2794) 


>  <SPECTRUM TYPE>  (2794) 
MS1

>  <INSTRUMENT TYPE>  (2794) 
EI-B

>  <INSTRUMENT>  (2794) 
HITACHI M-60

>  <ION MODE>  (2794) 
P

>  <INCHIKEY>  (2794) 
FJKROLUGYXJWQN-UHFFFAOYSA-N

>  <FORMULA>  (2794) 
C7H6O3

>  <EXACT MASS>  (2794) 
138.03169405199998

>  <MW>  (2794) 
138

>  <ID>  (2794) 
JP008414

>  <CONTRIBUTOR>  (2794) 
University of Tokyo Team, {Faculty of Engineering, University of Tokyo

>  <COMMENT>  (2794) 
SMILES=Oc(c1)ccc(c1)C(O)=O
InChI=InChI=1S/C7H6O3/c8-6-3-1-5(2-4-6)7(9)10/h1-4,8H,(H,9,10)
computed SMILES=O=C(O)C1=CC=C(O)C=C1
accession=JP008414
date=2016.01.19 (Created 2008.10.21, modified 2011.05.06)
author=UBE SCIENTIFIC ANALYSIS LABORATORY
license=CC BY-NC-SA
exact mass=138.03169
ionization energy=70 eV
ion type=[M]+*
computed spectral entropy=2.8685897902998123
computed normalized entropy=0.8068379637345822
SPLASH=splash10-00di-9700000000-a9bb4b71d8b23a56ca67
submitter=submitter = University of Tokyo Team (Faculty of Engineering, University of Tokyo)
MoNA Rating=3.75

>  <NUM PEAKS>  (2794) 
35

>  <MASS SPECTRAL PEAKS>  (2794) 
27 5.3
29 13.3
39 12.69
41 21.81
42 6.02
43 10.08
53 1.66
55 23.31
56 15.08
57 16.26
63 0.9
64 1.35
65 16.82
69 7.96
70 74.66
71 11.02
82 4.39
83 23.22
84 13.89
92 1.7
93 17.37
94 1.1
95 2.38
97 0.98
112 47.73
113 4.65
120 0.89
121 99.99
122 8.86
123 0.42
138 47.96
139 25.66
140 2
151 0.35
250 0.73

$$$$

     RDKit          2D

  9 10  0  0  0  0  0  0  0  0999 V2000
   -2.5115    3.3300    0.0000 C   0  0  0  0  0  0  0  0  0  0  0  0
   -2.5120    1.8292    0.0000 C   0  0  0  0  0  0  0  0  0  0  0  0
   -1.2120    4.0808    0.0000 C   0  0  0  0  0  0  0  0  0  0  0  0
   -1.2129    1.0792    0.0000 C   0  0  0  0  0  0  0  0  0  0  0  0
    0.0871    3.3308    0.0000 C   0  0  0  0  0  0  0  0  0  0  0  0
    2.8865    1.0795    0.0000 C   0  0  0  0  0  0  0  0  0  0  0  0
    0.0866    1.8300    0.0000 C   0  0  0  0  0  0  0  0  0  0  0  0
    1.3856    1.0800    0.0000 C   0  0  0  0  0  0  0  0  0  0  0  0
    2.1365   -0.2195    0.0000 O   0  0  0  0  0  0  0  0  0  0  0  0
  2  1  2  0
  3  1  1  0
  4  2  1  0
  5  3  2  0
  7  4  2  0
  7  5  1  0
  8  6  1  0
  8  7  1  0
  9  6  1  0
  9  8  1  0
M  END
>  <NAME>  (2795) 
STYRENE OXIDE

>  <SYNONYMS>  (2795) 


>  <SPECTRUM TYPE>  (2795) 
MS1

>  <INSTRUMENT TYPE>  (2795) 
EI-B

>  <INSTRUMENT>  (2795) 
HITACHI M-80B

>  <ION MODE>  (2795) 
P

>  <INCHIKEY>  (2795) 
AWMVMTVKBNGEAK-UHFFFAOYSA-N

>  <FORMULA>  (2795) 
C8H8O

>  <EXACT MASS>  (2795) 
120.057514876

>  <MW>  (2795) 
120

>  <ID>  (2795) 
JP008413

>  <CONTRIBUTOR>  (2795) 
University of Tokyo Team, {Faculty of Engineering, University of Tokyo

>  <COMMENT>  (2795) 
SMILES=c(c2)ccc(c2)C(C1)O1
InChI=InChI=1S/C8H8O/c1-2-4-7(5-3-1)8-6-9-8/h1-5,8H,6H2
computed SMILES=O1CC1C=2C=CC=CC2
accession=JP008413
date=2016.01.19 (Created 2008.10.21, modified 2011.05.06)
author=SODA AROMATIC CO., LTD.
license=CC BY-NC-SA
exact mass=120.05751
ionization energy=70 eV
ion type=[M]+*
computed spectral entropy=2.4745362627643157
computed normalized entropy=0.7017252619210467
SPLASH=splash10-0006-9100000000-ea96f470ccc073c67843
submitter=submitter = University of Tokyo Team (Faculty of Engineering, University of Tokyo)
MoNA Rating=3.75

>  <NUM PEAKS>  (2795) 
34

>  <MASS SPECTRAL PEAKS>  (2795) 
18 2.49
27 1.51
28 1.33
29 2.87
38 2.23
39 8.57
41 1.36
44 1.18
50 4.32
51 7.05
52 1.8
61 1.5
62 2.78
63 7.14
64 2.38
65 13.29
66 1.25
74 1.62
75 1.18
76 1.07
77 3.9
78 1.71
89 7.81
90 5.98
91 99.99
92 24.92
93 1.62
103 2.14
104 2.24
105 2.65
106 2.14
119 3.06
120 21.64
121 2.13

$$$$

     RDKit          2D

  9 10  0  0  0  0  0  0  0  0999 V2000
   -2.5115    3.3300    0.0000 C   0  0  0  0  0  0  0  0  0  0  0  0
   -2.5120    1.8292    0.0000 C   0  0  0  0  0  0  0  0  0  0  0  0
   -1.2120    4.0808    0.0000 C   0  0  0  0  0  0  0  0  0  0  0  0
   -1.2129    1.0792    0.0000 C   0  0  0  0  0  0  0  0  0  0  0  0
    0.0871    3.3308    0.0000 C   0  0  0  0  0  0  0  0  0  0  0  0
    2.8865    1.0795    0.0000 C   0  0  0  0  0  0  0  0  0  0  0  0
    0.0866    1.8300    0.0000 C   0  0  0  0  0  0  0  0  0  0  0  0
    1.3856    1.0800    0.0000 C   0  0  0  0  0  0  0  0  0  0  0  0
    2.1365   -0.2195    0.0000 O   0  0  0  0  0  0  0  0  0  0  0  0
  2  1  2  0
  3  1  1  0
  4  2  1  0
  5  3  2  0
  7  4  2  0
  7  5  1  0
  8  6  1  0
  8  7  1  0
  9  6  1  0
  9  8  1  0
M  END
>  <NAME>  (2796) 
STYRENE OXIDE

>  <SYNONYMS>  (2796) 


>  <SPECTRUM TYPE>  (2796) 
MS1

>  <INSTRUMENT TYPE>  (2796) 
EI-B

>  <INSTRUMENT>  (2796) 
HITACHI M-80B

>  <ION MODE>  (2796) 
P

>  <INCHIKEY>  (2796) 
AWMVMTVKBNGEAK-UHFFFAOYSA-N

>  <FORMULA>  (2796) 
C8H8O

>  <EXACT MASS>  (2796) 
120.057514876

>  <MW>  (2796) 
120

>  <ID>  (2796) 
JP008412

>  <CONTRIBUTOR>  (2796) 
University of Tokyo Team, {Faculty of Engineering, University of Tokyo

>  <COMMENT>  (2796) 
SMILES=c(c2)ccc(c2)C(C1)O1
InChI=InChI=1S/C8H8O/c1-2-4-7(5-3-1)8-6-9-8/h1-5,8H,6H2
computed SMILES=O1CC1C=2C=CC=CC2
accession=JP008412
date=2016.01.19 (Created 2008.10.21, modified 2011.05.06)
author=SODA AROMATIC CO., LTD.
license=CC BY-NC-SA
exact mass=120.05751
ionization energy=70 eV
ion type=[M]+*
computed spectral entropy=2.7041504851177227
computed normalized entropy=0.7668389168495654
SPLASH=splash10-0006-9100000000-2de812e0d003816c42f5
submitter=submitter = University of Tokyo Team (Faculty of Engineering, University of Tokyo)
MoNA Rating=3.75

>  <NUM PEAKS>  (2796) 
34

>  <MASS SPECTRAL PEAKS>  (2796) 
26 1.09
27 2.41
29 5.42
37 1.73
38 6.21
39 19.11
40 1.61
41 1.9
50 11.41
51 19.34
52 2.56
61 2.3
62 8.69
63 23.17
64 9.02
65 19.29
66 1.26
74 2.82
75 2.05
76 1.12
77 7.88
78 1.8
86 1.09
87 1.06
88 1.04
89 58.17
90 65.32
91 99.99
92 33.64
93 1.75
105 1.77
119 40.38
120 36.86
121 2.83

$$$$

     RDKit          2D

 11 11  0  0  0  0  0  0  0  0999 V2000
   -0.3123    3.2070    0.0000 C   0  0  0  0  0  0  0  0  0  0  0  0
   -2.3640    2.6681    0.0000 C   0  0  0  0  0  0  0  0  0  0  0  0
   -1.8251    0.6164    0.0000 C   0  0  0  0  0  0  0  0  0  0  0  0
    1.5257    1.9053    0.0000 C   0  0  0  0  0  0  0  0  0  0  0  0
    0.2121   -0.3195    0.0000 C   0  0  0  0  0  0  0  0  0  0  0  0
    2.8102    1.1805    0.0000 C   0  0  0  0  0  0  0  0  0  0  0  0
    1.5366   -1.1137    0.0000 C   0  0  0  0  0  0  0  0  0  0  0  0
    0.2266    1.1553    0.0000 C   0  0  0  0  0  0  0  0  0  0  0  0
    2.8357   -0.3637    0.0000 C   0  0  0  0  0  0  0  0  0  0  0  0
   -1.0687    1.9117    0.0000 C   0  0  0  0  0  0  0  0  0  0  0  0
    4.1409   -1.1029    0.0000 O   0  0  0  0  0  0  0  0  0  0  0  0
  6  4  1  0
  7  5  1  0
  8  4  1  0
  8  5  1  0
  9  6  1  0
  9  7  1  0
 10  1  1  0
 10  2  1  0
 10  3  1  0
 10  8  1  0
 11  9  1  0
M  END
>  <NAME>  (2797) 
PARA-TERT-BUTYLCYCLOHEXANOL

>  <SYNONYMS>  (2797) 


>  <SPECTRUM TYPE>  (2797) 
MS1

>  <INSTRUMENT TYPE>  (2797) 
EI-B

>  <INSTRUMENT>  (2797) 
HITACHI M-80B

>  <ION MODE>  (2797) 
P

>  <INCHIKEY>  (2797) 
CCOQPGVQAWPUPE-UHFFFAOYSA-N

>  <FORMULA>  (2797) 
C10H20O

>  <EXACT MASS>  (2797) 
156.15141526

>  <MW>  (2797) 
156

>  <ID>  (2797) 
JP008411

>  <CONTRIBUTOR>  (2797) 
University of Tokyo Team, {Faculty of Engineering, University of Tokyo

>  <COMMENT>  (2797) 
SMILES=OC(C1)CCC(C1)C(C)(C)C
InChI=InChI=1S/C10H20O/c1-10(2,3)8-4-6-9(11)7-5-8/h8-9,11H,4-7H2,1-3H3
computed SMILES=OC1CCC(CC1)C(C)(C)C
accession=JP008411
date=2016.01.19 (Created 2008.10.21, modified 2011.05.06)
author=SODA AROMATIC CO., LTD.
license=CC BY-NC-SA
exact mass=156.15142
ionization energy=70 eV
ion type=[M]+*
computed spectral entropy=2.9186642267268614
computed normalized entropy=0.8082887225175287
SPLASH=splash10-0a59-9000000000-1e973475c7a21128795f
submitter=submitter = University of Tokyo Team (Faculty of Engineering, University of Tokyo)
MoNA Rating=3.75

>  <NUM PEAKS>  (2797) 
37

>  <MASS SPECTRAL PEAKS>  (2797) 
27 8.55
28 1.43
29 18.77
31 1.97
39 9.62
40 1.61
41 40.94
42 2.49
43 10.67
44 4.72
51 1.01
53 4.35
54 8.62
55 18.73
56 40.71
57 99.99
58 3.86
67 28.56
68 2.26
69 6.89
70 1.89
77 1.17
79 3.28
80 14.37
81 43.56
82 22.89
83 20.47
84 1.31
95 4.32
96 1.55
99 13.27
101 1.12
110 2.65
123 14.22
124 1.27
138 11.44
139 1.06

$$$$

     RDKit          2D

 11 11  0  0  0  0  0  0  0  0999 V2000
   -0.3123    3.2070    0.0000 C   0  0  0  0  0  0  0  0  0  0  0  0
   -2.3640    2.6681    0.0000 C   0  0  0  0  0  0  0  0  0  0  0  0
   -1.8251    0.6164    0.0000 C   0  0  0  0  0  0  0  0  0  0  0  0
    1.5257    1.9053    0.0000 C   0  0  0  0  0  0  0  0  0  0  0  0
    0.2121   -0.3195    0.0000 C   0  0  0  0  0  0  0  0  0  0  0  0
    2.8102    1.1805    0.0000 C   0  0  0  0  0  0  0  0  0  0  0  0
    1.5366   -1.1137    0.0000 C   0  0  0  0  0  0  0  0  0  0  0  0
    0.2266    1.1553    0.0000 C   0  0  0  0  0  0  0  0  0  0  0  0
    2.8357   -0.3637    0.0000 C   0  0  0  0  0  0  0  0  0  0  0  0
   -1.0687    1.9117    0.0000 C   0  0  0  0  0  0  0  0  0  0  0  0
    4.1409   -1.1029    0.0000 O   0  0  0  0  0  0  0  0  0  0  0  0
  6  4  1  0
  7  5  1  0
  8  4  1  0
  8  5  1  0
  9  6  1  0
  9  7  1  0
 10  1  1  0
 10  2  1  0
 10  3  1  0
 10  8  1  0
 11  9  1  0
M  END
>  <NAME>  (2798) 
PARA-TERT-BUTYLCYCLOHEXANOL

>  <SYNONYMS>  (2798) 


>  <SPECTRUM TYPE>  (2798) 
MS1

>  <INSTRUMENT TYPE>  (2798) 
EI-B

>  <INSTRUMENT>  (2798) 
HITACHI M-80B

>  <ION MODE>  (2798) 
P

>  <INCHIKEY>  (2798) 
CCOQPGVQAWPUPE-UHFFFAOYSA-N

>  <FORMULA>  (2798) 
C10H20O

>  <EXACT MASS>  (2798) 
156.15141526

>  <MW>  (2798) 
156

>  <ID>  (2798) 
JP008410

>  <CONTRIBUTOR>  (2798) 
University of Tokyo Team, {Faculty of Engineering, University of Tokyo

>  <COMMENT>  (2798) 
SMILES=OC(C1)CCC(C1)C(C)(C)C
InChI=InChI=1S/C10H20O/c1-10(2,3)8-4-6-9(11)7-5-8/h8-9,11H,4-7H2,1-3H3
computed SMILES=OC1CCC(CC1)C(C)(C)C
accession=JP008410
date=2016.01.19 (Created 2008.10.21, modified 2011.05.06)
author=SODA AROMATIC CO., LTD.
license=CC BY-NC-SA
exact mass=156.15142
ionization energy=70 eV
ion type=[M]+*
computed spectral entropy=2.951667808766822
computed normalized entropy=0.8001529585020849
SPLASH=splash10-0a59-9000000000-87dfc318ffec63bd8e05
submitter=submitter = University of Tokyo Team (Faculty of Engineering, University of Tokyo)
MoNA Rating=3.75

>  <NUM PEAKS>  (2798) 
40

>  <MASS SPECTRAL PEAKS>  (2798) 
15 1.13
27 7.63
28 1.85
29 20.88
31 2.43
39 9.07
40 1.59
41 44.59
42 2.55
43 10.9
44 5.43
45 1.08
53 5.47
54 9.7
55 20.3
56 34.89
57 99.99
58 3.92
59 1
65 1.17
66 1.06
67 43.42
68 3.27
69 5.49
70 1.79
71 1
77 1.61
79 4.06
80 26.94
81 33.95
82 37.67
83 26.05
84 1.43
95 2.49
98 3.41
99 23.79
100 2.2
101 4.9
123 10.13
124 1

$$$$

     RDKit          2D

  7  6  0  0  0  0  0  0  0  0999 V2000
   -3.8971    2.2500    0.0000 C   0  0  0  0  0  0  0  0  0  0  0  0
   -1.2990    3.7500    0.0000 C   0  0  0  0  0  0  0  0  0  0  0  0
    1.2990    2.2500    0.0000 C   0  0  0  0  0  0  0  0  0  0  0  0
   -2.5981    1.5000    0.0000 C   0  0  0  0  0  0  0  0  0  0  0  0
   -1.2990    2.2500    0.0000 C   0  0  0  0  0  0  0  0  0  0  0  0
    0.0000    1.5000    0.0000 C   0  0  0  0  0  0  0  0  0  0  0  0
   -0.0000    0.0000    0.0000 O   0  0  0  0  0  0  0  0  0  0  0  0
  4  1  1  0
  5  2  1  0
  5  4  1  0
  6  3  1  0
  6  5  1  0
  7  6  1  0
M  END
>  <NAME>  (2799) 
3-METHYL-2-PENTANOL

>  <SYNONYMS>  (2799) 


>  <SPECTRUM TYPE>  (2799) 
MS1

>  <INSTRUMENT TYPE>  (2799) 
EI-B

>  <INSTRUMENT>  (2799) 
HITACHI M-80B

>  <ION MODE>  (2799) 
P

>  <INCHIKEY>  (2799) 
ZXNBBWHRUSXUFZ-UHFFFAOYSA-N

>  <FORMULA>  (2799) 
C6H14O

>  <EXACT MASS>  (2799) 
102.104465068

>  <MW>  (2799) 
102

>  <ID>  (2799) 
JP008409

>  <CONTRIBUTOR>  (2799) 
University of Tokyo Team, {Faculty of Engineering, University of Tokyo

>  <COMMENT>  (2799) 
SMILES=CCC(C)C(C)O
InChI=InChI=1S/C6H14O/c1-4-5(2)6(3)7/h5-7H,4H2,1-3H3
computed SMILES=OC(C)C(C)CC
accession=JP008409
date=2016.01.19 (Created 2008.10.21, modified 2011.05.06)
author=SODA AROMATIC CO., LTD.
license=CC BY-NC-SA
exact mass=102.10447
ionization energy=70 eV
ion type=[M]+*
computed spectral entropy=1.95473907557505
computed normalized entropy=0.6899371272819561
SPLASH=splash10-0002-9000000000-a0bd2864076bd1b44d90
submitter=submitter = University of Tokyo Team (Faculty of Engineering, University of Tokyo)
MoNA Rating=3.75

>  <NUM PEAKS>  (2799) 
17

>  <MASS SPECTRAL PEAKS>  (2799) 
15 1.32
27 9.52
28 1.73
29 10.52
31 1.88
39 5.58
41 14.82
42 1.39
43 7.78
44 10.47
45 99.99
46 2.72
55 3.72
56 16.39
57 5.35
69 4.71
87 3.07

$$$$

     RDKit          2D

  7  6  0  0  0  0  0  0  0  0999 V2000
   -3.8971    2.2500    0.0000 C   0  0  0  0  0  0  0  0  0  0  0  0
   -1.2990    3.7500    0.0000 C   0  0  0  0  0  0  0  0  0  0  0  0
    1.2990    2.2500    0.0000 C   0  0  0  0  0  0  0  0  0  0  0  0
   -2.5981    1.5000    0.0000 C   0  0  0  0  0  0  0  0  0  0  0  0
   -1.2990    2.2500    0.0000 C   0  0  0  0  0  0  0  0  0  0  0  0
    0.0000    1.5000    0.0000 C   0  0  0  0  0  0  0  0  0  0  0  0
   -0.0000    0.0000    0.0000 O   0  0  0  0  0  0  0  0  0  0  0  0
  4  1  1  0
  5  2  1  0
  5  4  1  0
  6  3  1  0
  6  5  1  0
  7  6  1  0
M  END
>  <NAME>  (2800) 
3-METHYL-2-PENTANOL

>  <SYNONYMS>  (2800) 


>  <SPECTRUM TYPE>  (2800) 
MS1

>  <INSTRUMENT TYPE>  (2800) 
EI-B

>  <INSTRUMENT>  (2800) 
HITACHI M-80B

>  <ION MODE>  (2800) 
P

>  <INCHIKEY>  (2800) 
ZXNBBWHRUSXUFZ-UHFFFAOYSA-N

>  <FORMULA>  (2800) 
C6H14O

>  <EXACT MASS>  (2800) 
102.104465068

>  <MW>  (2800) 
102

>  <ID>  (2800) 
JP008408

>  <CONTRIBUTOR>  (2800) 
University of Tokyo Team, {Faculty of Engineering, University of Tokyo

>  <COMMENT>  (2800) 
SMILES=CCC(C)C(C)O
InChI=InChI=1S/C6H14O/c1-4-5(2)6(3)7/h5-7H,4H2,1-3H3
computed SMILES=OC(C)C(C)CC
accession=JP008408
date=2016.01.19 (Created 2008.10.21, modified 2011.05.06)
author=SODA AROMATIC CO., LTD.
license=CC BY-NC-SA
exact mass=102.10447
ionization energy=70 eV
ion type=[M]+*
computed spectral entropy=1.9510044913901994
computed normalized entropy=0.6626065288479918
SPLASH=splash10-0002-9000000000-f79ea59118f8004e0c91
submitter=submitter = University of Tokyo Team (Faculty of Engineering, University of Tokyo)
MoNA Rating=3.75

>  <NUM PEAKS>  (2800) 
19

>  <MASS SPECTRAL PEAKS>  (2800) 
15 1.39
19 1.11
27 9.52
28 1.51
29 10.95
31 2.63
39 5.1
41 13.11
42 1.26
43 7.25
44 9.65
45 99.99
46 2.42
55 4.24
56 13.48
57 4.27
59 1.34
69 3
87 2.24

$$$$

     RDKit          2D

 12 12  0  0  0  0  0  0  0  0999 V2000
   -3.1275    2.5540    0.0000 C   0  0  0  0  0  0  0  0  0  0  0  0
    0.4404    3.6856    0.0000 C   0  0  0  0  0  0  0  0  0  0  0  0
   -1.4880    3.6951    0.0000 C   0  0  0  0  0  0  0  0  0  0  0  0
   -1.8322    1.7977    0.0000 C   0  0  0  0  0  0  0  0  0  0  0  0
    2.0649    2.5349    0.0000 C   0  0  0  0  0  0  0  0  0  0  0  0
    0.7513    0.3100    0.0000 C   0  0  0  0  0  0  0  0  0  0  0  0
    3.3494    1.8100    0.0000 C   0  0  0  0  0  0  0  0  0  0  0  0
    2.0759   -0.4841    0.0000 C   0  0  0  0  0  0  0  0  0  0  0  0
    0.7659    1.7849    0.0000 C   0  0  0  0  0  0  0  0  0  0  0  0
    3.3749    0.2659    0.0000 C   0  0  0  0  0  0  0  0  0  0  0  0
   -0.5295    2.5413    0.0000 C   0  0  0  0  0  0  0  0  0  0  0  0
    4.6801   -0.4734    0.0000 O   0  0  0  0  0  0  0  0  0  0  0  0
  4  1  1  0
  7  5  1  0
  8  6  1  0
  9  5  1  0
  9  6  1  0
 10  7  1  0
 10  8  1  0
 11  2  1  0
 11  3  1  0
 11  4  1  0
 11  9  1  0
 12 10  1  0
M  END
>  <NAME>  (2801) 
PARA-TERT-AMYLCYCLOHEXANOL

>  <SYNONYMS>  (2801) 


>  <SPECTRUM TYPE>  (2801) 
MS1

>  <INSTRUMENT TYPE>  (2801) 
EI-B

>  <INSTRUMENT>  (2801) 
HITACHI M-80B

>  <ION MODE>  (2801) 
P

>  <INCHIKEY>  (2801) 
VDQZABQVXYELSI-UHFFFAOYSA-N

>  <FORMULA>  (2801) 
C11H22O

>  <EXACT MASS>  (2801) 
170.167065324

>  <MW>  (2801) 
170

>  <ID>  (2801) 
JP008407

>  <CONTRIBUTOR>  (2801) 
University of Tokyo Team, {Faculty of Engineering, University of Tokyo

>  <COMMENT>  (2801) 
SMILES=CCC(C)(C)C(C1)CCC(O)C1
InChI=InChI=1S/C11H22O/c1-4-11(2,3)9-5-7-10(12)8-6-9/h9-10,12H,4-8H2,1-3H3
computed SMILES=OC1CCC(CC1)C(C)(C)CC
accession=JP008407
date=2016.01.19 (Created 2008.10.21, modified 2011.05.06)
author=SODA AROMATIC CO., LTD.
license=CC BY-NC-SA
exact mass=170.16707
ionization energy=70 eV
ion type=[M]+*
computed spectral entropy=2.9646707720674357
computed normalized entropy=0.7983339810875135
SPLASH=splash10-00di-9100000000-2871edb850185b2567b2
submitter=submitter = University of Tokyo Team (Faculty of Engineering, University of Tokyo)
MoNA Rating=3.75

>  <NUM PEAKS>  (2801) 
41

>  <MASS SPECTRAL PEAKS>  (2801) 
27 12.24
28 2.21
29 19.71
31 2.34
39 9.76
40 1.37
41 32.23
42 6.29
43 70.26
44 6.8
53 6.55
54 6
55 35.83
56 4.54
57 8.56
65 1.16
67 38.92
68 3.19
69 9.7
70 99.99
71 85.62
72 4.59
77 1.37
79 4.77
80 8.84
81 45.6
82 13.43
83 8.91
93 1.08
95 9.56
96 1.55
97 1.1
99 7.85
107 1.06
109 1.22
122 2.39
123 46.5
124 5.61
137 4.94
141 2.13
152 8.49

$$$$

     RDKit          2D

 12 12  0  0  0  0  0  0  0  0999 V2000
   -3.1275    2.5540    0.0000 C   0  0  0  0  0  0  0  0  0  0  0  0
    0.4404    3.6856    0.0000 C   0  0  0  0  0  0  0  0  0  0  0  0
   -1.4880    3.6951    0.0000 C   0  0  0  0  0  0  0  0  0  0  0  0
   -1.8322    1.7977    0.0000 C   0  0  0  0  0  0  0  0  0  0  0  0
    2.0649    2.5349    0.0000 C   0  0  0  0  0  0  0  0  0  0  0  0
    0.7513    0.3100    0.0000 C   0  0  0  0  0  0  0  0  0  0  0  0
    3.3494    1.8100    0.0000 C   0  0  0  0  0  0  0  0  0  0  0  0
    2.0759   -0.4841    0.0000 C   0  0  0  0  0  0  0  0  0  0  0  0
    0.7659    1.7849    0.0000 C   0  0  0  0  0  0  0  0  0  0  0  0
    3.3749    0.2659    0.0000 C   0  0  0  0  0  0  0  0  0  0  0  0
   -0.5295    2.5413    0.0000 C   0  0  0  0  0  0  0  0  0  0  0  0
    4.6801   -0.4734    0.0000 O   0  0  0  0  0  0  0  0  0  0  0  0
  4  1  1  0
  7  5  1  0
  8  6  1  0
  9  5  1  0
  9  6  1  0
 10  7  1  0
 10  8  1  0
 11  2  1  0
 11  3  1  0
 11  4  1  0
 11  9  1  0
 12 10  1  0
M  END
>  <NAME>  (2802) 
PARA-TERT-AMYLCYCLOHEXANOL

>  <SYNONYMS>  (2802) 


>  <SPECTRUM TYPE>  (2802) 
MS1

>  <INSTRUMENT TYPE>  (2802) 
EI-B

>  <INSTRUMENT>  (2802) 
HITACHI M-80B

>  <ION MODE>  (2802) 
P

>  <INCHIKEY>  (2802) 
VDQZABQVXYELSI-UHFFFAOYSA-N

>  <FORMULA>  (2802) 
C11H22O

>  <EXACT MASS>  (2802) 
170.167065324

>  <MW>  (2802) 
170

>  <ID>  (2802) 
JP008406

>  <CONTRIBUTOR>  (2802) 
University of Tokyo Team, {Faculty of Engineering, University of Tokyo

>  <COMMENT>  (2802) 
SMILES=CCC(C)(C)C(C1)CCC(O)C1
InChI=InChI=1S/C11H22O/c1-4-11(2,3)9-5-7-10(12)8-6-9/h9-10,12H,4-8H2,1-3H3
computed SMILES=OC1CCC(CC1)C(C)(C)CC
accession=JP008406
date=2016.01.19 (Created 2008.10.21, modified 2011.05.06)
author=SODA AROMATIC CO., LTD.
license=CC BY-NC-SA
exact mass=170.16707
ionization energy=70 eV
ion type=[M]+*
computed spectral entropy=2.8640567383808624
computed normalized entropy=0.8121848910195052
SPLASH=splash10-00di-9000000000-eb4d6b2fd757d8da5fb5
submitter=submitter = University of Tokyo Team (Faculty of Engineering, University of Tokyo)
MoNA Rating=3.75

>  <NUM PEAKS>  (2802) 
34

>  <MASS SPECTRAL PEAKS>  (2802) 
27 9.99
28 1.18
29 16.43
31 1.88
39 8
40 1.14
41 26.35
42 4.17
43 52.95
44 5.79
53 4.42
54 6.89
55 27.26
56 3.09
57 7.24
67 35.19
68 2.42
69 8.13
70 99.99
71 68.03
72 3.07
77 1.31
79 3.67
80 14.5
81 31.83
82 17.14
83 8.15
95 6.06
98 2.86
99 7.65
123 26.17
124 2.24
137 2.79
141 2.44

$$$$

     RDKit          2D

 10  9  0  0  0  0  0  0  0  0999 V2000
   -7.4695    3.9375    0.0000 C   0  0  0  0  0  0  0  0  0  0  0  0
   -4.8714    5.4375    0.0000 C   0  0  0  0  0  0  0  0  0  0  0  0
    1.6238    3.1875    0.0000 C   0  0  0  0  0  0  0  0  0  0  0  0
   -6.1704    3.1875    0.0000 C   0  0  0  0  0  0  0  0  0  0  0  0
   -2.2733    3.9375    0.0000 C   0  0  0  0  0  0  0  0  0  0  0  0
   -3.5724    3.1875    0.0000 C   0  0  0  0  0  0  0  0  0  0  0  0
   -0.9743    3.1875    0.0000 C   0  0  0  0  0  0  0  0  0  0  0  0
   -4.8714    3.9375    0.0000 C   0  0  0  0  0  0  0  0  0  0  0  0
    0.3248    3.9375    0.0000 C   0  0  0  0  0  0  0  0  0  0  0  0
    0.3248    5.4375    0.0000 O   0  0  0  0  0  0  0  0  0  0  0  0
  4  1  1  0
  6  5  1  0
  7  5  1  0
  8  2  1  0
  8  4  1  0
  6  8  2  0
  9  3  1  0
  9  7  1  0
 10  9  2  0
M  END
>  <NAME>  (2803) 
6-METHYL-5-OCTEN-2-ONE

>  <SYNONYMS>  (2803) 


>  <SPECTRUM TYPE>  (2803) 
MS1

>  <INSTRUMENT TYPE>  (2803) 
EI-B

>  <INSTRUMENT>  (2803) 
HITACHI M-80B

>  <ION MODE>  (2803) 
P

>  <INCHIKEY>  (2803) 
SAXWRVSDVXCTEL-SOFGYWHQSA-N

>  <FORMULA>  (2803) 
C9H16O

>  <EXACT MASS>  (2803) 
140.120115132

>  <MW>  (2803) 
140

>  <ID>  (2803) 
JP008405

>  <CONTRIBUTOR>  (2803) 
University of Tokyo Team, {Faculty of Engineering, University of Tokyo

>  <COMMENT>  (2803) 
SMILES=CCC(C)=CCCC(C)=O
InChI=InChI=1S/C9H16O/c1-4-8(2)6-5-7-9(3)10/h6H,4-5,7H2,1-3H3/b8-6+
computed SMILES=O=C(C)CCC=C(C)CC
accession=JP008405
date=2016.01.19 (Created 2008.10.21, modified 2011.05.06)
author=SODA AROMATIC CO., LTD.
license=CC BY-NC-SA
exact mass=140.12012
ionization energy=70 eV
ion type=[M]+*
computed spectral entropy=2.814890149360949
computed normalized entropy=0.7795497481413651
SPLASH=splash10-0006-9000000000-af7e9d8d4057c9068905
submitter=submitter = University of Tokyo Team (Faculty of Engineering, University of Tokyo)
MoNA Rating=3.75

>  <NUM PEAKS>  (2803) 
37

>  <MASS SPECTRAL PEAKS>  (2803) 
15 6.02
27 15.83
29 11.2
39 17.93
40 3.1
41 31.88
42 4.17
43 99.99
44 1.71
45 1.34
51 2.92
52 1.25
53 8.59
54 3.57
55 59.2
56 3.59
57 1.69
58 6.43
65 1.82
67 31.48
68 2.63
69 4.65
70 7.08
71 8.75
77 1.45
79 2.49
81 6.9
82 38.81
83 8.82
93 2
97 2.36
107 2.95
111 8.88
122 11.36
123 1
125 1.51
140 1.91

$$$$

     RDKit          2D

 10  9  0  0  0  0  0  0  0  0999 V2000
   -7.4695    3.9375    0.0000 C   0  0  0  0  0  0  0  0  0  0  0  0
   -4.8714    5.4375    0.0000 C   0  0  0  0  0  0  0  0  0  0  0  0
    1.6238    3.1875    0.0000 C   0  0  0  0  0  0  0  0  0  0  0  0
   -6.1704    3.1875    0.0000 C   0  0  0  0  0  0  0  0  0  0  0  0
   -2.2733    3.9375    0.0000 C   0  0  0  0  0  0  0  0  0  0  0  0
   -3.5724    3.1875    0.0000 C   0  0  0  0  0  0  0  0  0  0  0  0
   -0.9743    3.1875    0.0000 C   0  0  0  0  0  0  0  0  0  0  0  0
   -4.8714    3.9375    0.0000 C   0  0  0  0  0  0  0  0  0  0  0  0
    0.3248    3.9375    0.0000 C   0  0  0  0  0  0  0  0  0  0  0  0
    0.3248    5.4375    0.0000 O   0  0  0  0  0  0  0  0  0  0  0  0
  4  1  1  0
  6  5  1  0
  7  5  1  0
  8  2  1  0
  8  4  1  0
  6  8  2  0
  9  3  1  0
  9  7  1  0
 10  9  2  0
M  END
>  <NAME>  (2804) 
6-METHYL-5-OCTEN-2-ONE

>  <SYNONYMS>  (2804) 


>  <SPECTRUM TYPE>  (2804) 
MS1

>  <INSTRUMENT TYPE>  (2804) 
EI-B

>  <INSTRUMENT>  (2804) 
HITACHI M-80B

>  <ION MODE>  (2804) 
P

>  <INCHIKEY>  (2804) 
SAXWRVSDVXCTEL-SOFGYWHQSA-N

>  <FORMULA>  (2804) 
C9H16O

>  <EXACT MASS>  (2804) 
140.120115132

>  <MW>  (2804) 
140

>  <ID>  (2804) 
JP008404

>  <CONTRIBUTOR>  (2804) 
University of Tokyo Team, {Faculty of Engineering, University of Tokyo

>  <COMMENT>  (2804) 
SMILES=CCC(C)=CCCC(C)=O
InChI=InChI=1S/C9H16O/c1-4-8(2)6-5-7-9(3)10/h6H,4-5,7H2,1-3H3/b8-6+
computed SMILES=O=C(C)CCC=C(C)CC
accession=JP008404
date=2016.01.19 (Created 2008.10.21, modified 2011.05.06)
author=SODA AROMATIC CO., LTD.
license=CC BY-NC-SA
exact mass=140.12012
ionization energy=70 eV
ion type=[M]+*
computed spectral entropy=2.7803035941967176
computed normalized entropy=0.7699714204139136
SPLASH=splash10-0006-9000000000-9420f6cf7aec67fc00cb
submitter=submitter = University of Tokyo Team (Faculty of Engineering, University of Tokyo)
MoNA Rating=3.75

>  <NUM PEAKS>  (2804) 
37

>  <MASS SPECTRAL PEAKS>  (2804) 
15 5.9
26 1
27 15.95
29 11.1
39 18.72
40 1.92
41 33.22
42 4.19
43 99.99
44 1.99
45 1.15
51 2.25
52 1.27
53 8.26
54 2.69
55 59.91
56 3.38
57 1.71
58 5.3
65 1.84
67 34.02
68 2.27
69 4.64
70 6.9
71 8.23
77 1.57
79 2.14
81 6.79
82 38.47
83 8.85
93 2.14
97 2.07
107 2.44
111 8.82
122 10.68
125 1.44
140 1.72

$$$$

     RDKit          2D

 14 13  0  0  0  0  0  0  0  0999 V2000
   -8.7685    6.1875    0.0000 C   0  0  0  0  0  0  0  0  0  0  0  0
   -7.4695    3.9375    0.0000 C   0  0  0  0  0  0  0  0  0  0  0  0
   -2.2733    3.9375    0.0000 C   0  0  0  0  0  0  0  0  0  0  0  0
    4.2219    6.1875    0.0000 C   0  0  0  0  0  0  0  0  0  0  0  0
   -4.8714    5.4375    0.0000 C   0  0  0  0  0  0  0  0  0  0  0  0
    0.3248    5.4375    0.0000 C   0  0  0  0  0  0  0  0  0  0  0  0
   -6.1704    6.1875    0.0000 C   0  0  0  0  0  0  0  0  0  0  0  0
   -3.5724    6.1875    0.0000 C   0  0  0  0  0  0  0  0  0  0  0  0
   -0.9743    6.1875    0.0000 C   0  0  0  0  0  0  0  0  0  0  0  0
    1.6238    6.1875    0.0000 C   0  0  0  0  0  0  0  0  0  0  0  0
   -7.4695    5.4375    0.0000 C   0  0  0  0  0  0  0  0  0  0  0  0
   -2.2733    5.4375    0.0000 C   0  0  0  0  0  0  0  0  0  0  0  0
    2.9228    5.4375    0.0000 C   0  0  0  0  0  0  0  0  0  0  0  0
    2.9228    3.9375    0.0000 O   0  0  0  0  0  0  0  0  0  0  0  0
  7  5  1  0
  8  5  1  0
  9  6  1  0
 10  6  1  0
 11  1  1  0
 11  2  1  0
 11  7  2  0
 12  3  1  0
 12  8  1  0
  9 12  2  0
 13  4  1  0
 13 10  1  0
 14 13  2  0
M  END
>  <NAME>  (2805) 
GERANYL ACETONE

>  <SYNONYMS>  (2805) 
6,10-DIMETHYL-5,9-UNDECADIEN-2-ONE

>  <SPECTRUM TYPE>  (2805) 
MS1

>  <INSTRUMENT TYPE>  (2805) 
EI-B

>  <INSTRUMENT>  (2805) 
HITACHI M-80B

>  <ION MODE>  (2805) 
P

>  <INCHIKEY>  (2805) 
HNZUNIKWNYHEJJ-FMIVXFBMSA-N

>  <FORMULA>  (2805) 
C13H22O

>  <EXACT MASS>  (2805) 
194.167065324

>  <MW>  (2805) 
194

>  <ID>  (2805) 
JP008403

>  <CONTRIBUTOR>  (2805) 
University of Tokyo Team, {Faculty of Engineering, University of Tokyo

>  <COMMENT>  (2805) 
SMILES=CC(C)=CCCC(C)=CCCC(C)=O
InChI=InChI=1S/C13H22O/c1-11(2)7-5-8-12(3)9-6-10-13(4)14/h7,9H,5-6,8,10H2,1-4H3/b12-9+
computed SMILES=O=C(C)CCC=C(C)CCC=C(C)C
accession=JP008403
date=2016.01.19 (Created 2008.10.21, modified 2011.05.06)
author=SODA AROMATIC CO., LTD.
license=CC BY-NC-SA
exact mass=194.16707
ionization energy=70 eV
ion type=[M]+*
computed spectral entropy=2.488690248678408
computed normalized entropy=0.6944822369909429
SPLASH=splash10-0006-9100000000-c8281af055528616da7a
submitter=submitter = University of Tokyo Team (Faculty of Engineering, University of Tokyo)
MoNA Rating=3.75

>  <NUM PEAKS>  (2805) 
36

>  <MASS SPECTRAL PEAKS>  (2805) 
15 1.62
27 5.1
29 2.83
39 6.93
41 35.27
42 2.01
43 99.99
44 2.1
51 1.15
53 5.46
55 3.6
58 1.86
65 1.38
67 5.98
68 3.8
69 39.47
70 2.05
71 1.54
77 1.71
79 1.99
81 3.03
82 1.5
83 3.02
91 1.69
93 4.07
95 1.51
107 5.53
108 1.71
109 3.06
111 1.19
121 2.17
123 1.09
125 5.59
136 5.99
151 6.49
194 1.05

$$$$

     RDKit          2D

 14 13  0  0  0  0  0  0  0  0999 V2000
   -8.7685    6.1875    0.0000 C   0  0  0  0  0  0  0  0  0  0  0  0
   -7.4695    3.9375    0.0000 C   0  0  0  0  0  0  0  0  0  0  0  0
   -2.2733    3.9375    0.0000 C   0  0  0  0  0  0  0  0  0  0  0  0
    4.2219    6.1875    0.0000 C   0  0  0  0  0  0  0  0  0  0  0  0
   -4.8714    5.4375    0.0000 C   0  0  0  0  0  0  0  0  0  0  0  0
    0.3248    5.4375    0.0000 C   0  0  0  0  0  0  0  0  0  0  0  0
   -6.1704    6.1875    0.0000 C   0  0  0  0  0  0  0  0  0  0  0  0
   -3.5724    6.1875    0.0000 C   0  0  0  0  0  0  0  0  0  0  0  0
   -0.9743    6.1875    0.0000 C   0  0  0  0  0  0  0  0  0  0  0  0
    1.6238    6.1875    0.0000 C   0  0  0  0  0  0  0  0  0  0  0  0
   -7.4695    5.4375    0.0000 C   0  0  0  0  0  0  0  0  0  0  0  0
   -2.2733    5.4375    0.0000 C   0  0  0  0  0  0  0  0  0  0  0  0
    2.9228    5.4375    0.0000 C   0  0  0  0  0  0  0  0  0  0  0  0
    2.9228    3.9375    0.0000 O   0  0  0  0  0  0  0  0  0  0  0  0
  7  5  1  0
  8  5  1  0
  9  6  1  0
 10  6  1  0
 11  1  1  0
 11  2  1  0
 11  7  2  0
 12  3  1  0
 12  8  1  0
  9 12  2  0
 13  4  1  0
 13 10  1  0
 14 13  2  0
M  END
>  <NAME>  (2806) 
GERANYL ACETONE

>  <SYNONYMS>  (2806) 
6,10-DIMETHYL-5,9-UNDECADIEN-2-ONE

>  <SPECTRUM TYPE>  (2806) 
MS1

>  <INSTRUMENT TYPE>  (2806) 
EI-B

>  <INSTRUMENT>  (2806) 
HITACHI M-80B

>  <ION MODE>  (2806) 
P

>  <INCHIKEY>  (2806) 
HNZUNIKWNYHEJJ-FMIVXFBMSA-N

>  <FORMULA>  (2806) 
C13H22O

>  <EXACT MASS>  (2806) 
194.167065324

>  <MW>  (2806) 
194

>  <ID>  (2806) 
JP008402

>  <CONTRIBUTOR>  (2806) 
University of Tokyo Team, {Faculty of Engineering, University of Tokyo

>  <COMMENT>  (2806) 
SMILES=CC(C)=CCCC(C)=CCCC(C)=O
InChI=InChI=1S/C13H22O/c1-11(2)7-5-8-12(3)9-6-10-13(4)14/h7,9H,5-6,8,10H2,1-4H3/b12-9+
computed SMILES=O=C(C)CCC=C(C)CCC=C(C)C
accession=JP008402
date=2016.01.19 (Created 2008.10.21, modified 2011.05.06)
author=SODA AROMATIC CO., LTD.
license=CC BY-NC-SA
exact mass=194.16707
ionization energy=70 eV
ion type=[M]+*
computed spectral entropy=2.677532872046459
computed normalized entropy=0.7163642444342613
SPLASH=splash10-0006-9100000000-c42572db1c258766d25e
submitter=submitter = University of Tokyo Team (Faculty of Engineering, University of Tokyo)
MoNA Rating=3.75

>  <NUM PEAKS>  (2806) 
42

>  <MASS SPECTRAL PEAKS>  (2806) 
14 1.08
15 1.85
27 5.68
28 1.84
29 3.02
32 1.88
39 7.44
41 42.66
42 2.36
43 99.99
44 2.01
51 1.33
53 6.18
54 1.08
55 4.18
58 2.65
65 1.52
67 7.17
68 4.62
69 55.26
70 3.01
71 2.34
77 2.33
79 2.43
80 1.22
81 4.07
82 2.47
83 3.32
91 2.08
93 6.59
94 1.06
95 2.3
107 5.58
108 2.61
109 5.83
111 1.53
121 2.86
125 5.19
136 7.05
137 1.11
151 7.49
194 1.59

$$$$

     RDKit          2D

 14 14  0  0  0  0  0  0  0  0999 V2000
   -3.8972   -1.4999    0.0000 C   0  0  0  0  0  0  0  0  0  0  0  0
    5.1966   -0.7503    0.0000 C   0  0  0  0  0  0  0  0  0  0  0  0
    3.8979   -3.0005    0.0000 C   0  0  0  0  0  0  0  0  0  0  0  0
   -1.2997    1.5007    0.0000 C   0  0  0  0  0  0  0  0  0  0  0  0
   -2.5981   -0.7499    0.0000 C   0  0  0  0  0  0  0  0  0  0  0  0
    1.2985    1.5009    0.0000 C   0  0  0  0  0  0  0  0  0  0  0  0
    2.5980    0.7501    0.0000 C   0  0  0  0  0  0  0  0  0  0  0  0
    1.2995   -1.5007    0.0000 C   0  0  0  0  0  0  0  0  0  0  0  0
    3.8977   -1.5005    0.0000 C   0  0  0  0  0  0  0  0  0  0  0  0
   -0.0005    0.7509    0.0000 C   0  0  0  0  0  0  0  0  0  0  0  0
    2.5985   -0.7507    0.0000 C   0  0  0  0  0  0  0  0  0  0  0  0
   -0.0001   -0.7499    0.0000 C   0  0  0  0  0  0  0  0  0  0  0  0
   -1.2991   -1.4999    0.0000 C   0  0  0  0  0  0  0  0  0  0  0  0
   -1.2991   -2.9999    0.0000 O   0  0  0  0  0  0  0  0  0  0  0  0
  5  1  1  0
  7  6  1  0
  9  2  1  0
  9  3  1  0
 10  4  1  0
 10  6  2  0
 11  7  1  0
 11  8  1  0
 11  9  1  0
 12  8  1  0
 12 10  1  0
 13  5  1  0
 13 12  1  0
 14 13  2  0
M  END
>  <NAME>  (2807) 
MENTHENYL KETONE

>  <SYNONYMS>  (2807) 
1-(PARA-MENTHEN-6-YL)-1-PROPANONE

>  <SPECTRUM TYPE>  (2807) 
MS1

>  <INSTRUMENT TYPE>  (2807) 
EI-B

>  <INSTRUMENT>  (2807) 
HITACHI M-80B

>  <ION MODE>  (2807) 
P

>  <INCHIKEY>  (2807) 
DZSVIVLGBJKQAP-UHFFFAOYSA-N

>  <FORMULA>  (2807) 
C13H22O

>  <EXACT MASS>  (2807) 
194.167065324

>  <MW>  (2807) 
194

>  <ID>  (2807) 
JP008401

>  <CONTRIBUTOR>  (2807) 
University of Tokyo Team, {Faculty of Engineering, University of Tokyo

>  <COMMENT>  (2807) 
SMILES=CCC(=O)C(C1)C(C)=C([H])CC(C(C)C)1
InChI=InChI=1S/C13H22O/c1-5-13(14)12-8-11(9(2)3)7-6-10(12)4/h6,9,11-12H,5,7-8H2,1-4H3
computed SMILES=O=C(CC)C1C(=CCC(C1)C(C)C)C
accession=JP008401
date=2016.01.19 (Created 2008.10.21, modified 2011.05.06)
author=SODA AROMATIC CO., LTD.
license=CC BY-NC-SA
exact mass=194.16707
ionization energy=70 eV
ion type=[M]+*
computed spectral entropy=2.9159405822276225
computed normalized entropy=0.8137087126666336
SPLASH=splash10-053u-9100000000-c44a159d52a6855d68f1
submitter=submitter = University of Tokyo Team (Faculty of Engineering, University of Tokyo)
MoNA Rating=3.75

>  <NUM PEAKS>  (2807) 
36

>  <MASS SPECTRAL PEAKS>  (2807) 
27 14.79
28 5.49
29 34.01
39 8.05
41 21.37
42 1.72
43 15.3
51 2.03
53 7.22
55 6.67
57 87.2
58 2.78
59 3.81
65 3.71
67 6.68
68 2.72
69 15.39
77 12.69
78 2.83
79 13.15
80 2.11
81 99.99
82 6.34
91 9.35
92 7.68
93 21.44
94 3.51
95 24.44
96 2.42
100 3.96
121 2.74
136 5.84
137 25.36
138 4.85
165 2.42
194 6.48

$$$$

     RDKit          2D

 14 14  0  0  0  0  0  0  0  0999 V2000
   -3.8972   -1.4999    0.0000 C   0  0  0  0  0  0  0  0  0  0  0  0
    5.1966   -0.7503    0.0000 C   0  0  0  0  0  0  0  0  0  0  0  0
    3.8979   -3.0005    0.0000 C   0  0  0  0  0  0  0  0  0  0  0  0
   -1.2997    1.5007    0.0000 C   0  0  0  0  0  0  0  0  0  0  0  0
   -2.5981   -0.7499    0.0000 C   0  0  0  0  0  0  0  0  0  0  0  0
    1.2985    1.5009    0.0000 C   0  0  0  0  0  0  0  0  0  0  0  0
    2.5980    0.7501    0.0000 C   0  0  0  0  0  0  0  0  0  0  0  0
    1.2995   -1.5007    0.0000 C   0  0  0  0  0  0  0  0  0  0  0  0
    3.8977   -1.5005    0.0000 C   0  0  0  0  0  0  0  0  0  0  0  0
   -0.0005    0.7509    0.0000 C   0  0  0  0  0  0  0  0  0  0  0  0
    2.5985   -0.7507    0.0000 C   0  0  0  0  0  0  0  0  0  0  0  0
   -0.0001   -0.7499    0.0000 C   0  0  0  0  0  0  0  0  0  0  0  0
   -1.2991   -1.4999    0.0000 C   0  0  0  0  0  0  0  0  0  0  0  0
   -1.2991   -2.9999    0.0000 O   0  0  0  0  0  0  0  0  0  0  0  0
  5  1  1  0
  7  6  1  0
  9  2  1  0
  9  3  1  0
 10  4  1  0
 10  6  2  0
 11  7  1  0
 11  8  1  0
 11  9  1  0
 12  8  1  0
 12 10  1  0
 13  5  1  0
 13 12  1  0
 14 13  2  0
M  END
>  <NAME>  (2808) 
MENTHENYL KETONE

>  <SYNONYMS>  (2808) 
1-(PARA-MENTHEN-6-YL)-1-PROPANONE

>  <SPECTRUM TYPE>  (2808) 
MS1

>  <INSTRUMENT TYPE>  (2808) 
EI-B

>  <INSTRUMENT>  (2808) 
HITACHI M-80B

>  <ION MODE>  (2808) 
P

>  <INCHIKEY>  (2808) 
DZSVIVLGBJKQAP-UHFFFAOYSA-N

>  <FORMULA>  (2808) 
C13H22O

>  <EXACT MASS>  (2808) 
194.167065324

>  <MW>  (2808) 
194

>  <ID>  (2808) 
JP008400

>  <CONTRIBUTOR>  (2808) 
University of Tokyo Team, {Faculty of Engineering, University of Tokyo

>  <COMMENT>  (2808) 
SMILES=CCC(=O)C(C1)C(C)=C([H])CC(C(C)C)1
InChI=InChI=1S/C13H22O/c1-5-13(14)12-8-11(9(2)3)7-6-10(12)4/h6,9,11-12H,5,7-8H2,1-4H3
computed SMILES=O=C(CC)C1C(=CCC(C1)C(C)C)C
accession=JP008400
date=2016.01.19 (Created 2008.10.21, modified 2011.05.06)
author=SODA AROMATIC CO., LTD.
license=CC BY-NC-SA
exact mass=194.16707
ionization energy=70 eV
ion type=[M]+*
computed spectral entropy=2.985368968784025
computed normalized entropy=0.7842484004837926
SPLASH=splash10-0563-9100000000-55c645a3c83772fbc25a
submitter=submitter = University of Tokyo Team (Faculty of Engineering, University of Tokyo)
MoNA Rating=3.75

>  <NUM PEAKS>  (2808) 
45

>  <MASS SPECTRAL PEAKS>  (2808) 
17 1.09
27 14.21
28 2.06
29 36.12
39 7.97
41 21.44
42 1.41
43 13.73
51 2.37
53 7
55 6.66
57 75.52
58 2.08
59 2.88
65 4.13
66 1.42
67 6.5
68 2.11
69 14.81
77 12.07
78 2.14
79 12.12
80 1.8
81 99.99
82 6.08
83 1.47
91 9.22
92 6.88
93 23.11
94 3
95 24.01
96 2.12
105 1.47
107 1.3
109 1.81
121 2.13
122 1.26
123 1.94
134 1.15
136 9.49
137 39.36
138 4.9
165 1.81
194 6.52
195 1.07

$$$$

     RDKit          2D

 10  9  0  0  0  0  0  0  0  0999 V2000
   -7.4695    3.9375    0.0000 C   0  0  0  0  0  0  0  0  0  0  0  0
    1.6238    3.1875    0.0000 C   0  0  0  0  0  0  0  0  0  0  0  0
    0.3248    5.4375    0.0000 C   0  0  0  0  0  0  0  0  0  0  0  0
   -4.8714    5.4375    0.0000 C   0  0  0  0  0  0  0  0  0  0  0  0
   -6.1704    3.1875    0.0000 C   0  0  0  0  0  0  0  0  0  0  0  0
   -2.2733    3.9375    0.0000 C   0  0  0  0  0  0  0  0  0  0  0  0
   -0.9743    3.1875    0.0000 C   0  0  0  0  0  0  0  0  0  0  0  0
   -3.5724    3.1875    0.0000 C   0  0  0  0  0  0  0  0  0  0  0  0
    0.3248    3.9375    0.0000 C   0  0  0  0  0  0  0  0  0  0  0  0
   -4.8714    3.9375    0.0000 C   0  0  0  0  0  0  0  0  0  0  0  0
  5  1  2  0
  7  6  1  0
  8  6  1  0
  9  2  1  0
  9  3  1  0
  9  7  2  0
 10  4  2  0
 10  5  1  0
 10  8  1  0
M  END
>  <NAME>  (2809) 
BETA-MYRCENE

>  <SYNONYMS>  (2809) 
7-METHYL-3-METHYLENE-1,6-OCTADIENE

>  <SPECTRUM TYPE>  (2809) 
MS1

>  <INSTRUMENT TYPE>  (2809) 
EI-B

>  <INSTRUMENT>  (2809) 
HITACHI M-80B

>  <ION MODE>  (2809) 
P

>  <INCHIKEY>  (2809) 
UAHWPYUMFXYFJY-UHFFFAOYSA-N

>  <FORMULA>  (2809) 
C10H16

>  <EXACT MASS>  (2809) 
136.125200512

>  <MW>  (2809) 
136

>  <ID>  (2809) 
JP008399

>  <CONTRIBUTOR>  (2809) 
University of Tokyo Team, {Faculty of Engineering, University of Tokyo

>  <COMMENT>  (2809) 
SMILES=C=CC(=C)CCC=C(C)C
InChI=InChI=1S/C10H16/c1-5-10(4)8-6-7-9(2)3/h5,7H,1,4,6,8H2,2-3H3
computed SMILES=C=CC(=C)CCC=C(C)C
accession=JP008399
date=2016.01.19 (Created 2008.10.21, modified 2011.05.06)
author=SODA AROMATIC CO., LTD.
license=CC BY-NC-SA
exact mass=136.1252
ionization energy=70 eV
ion type=[M]+*
computed spectral entropy=2.6457172572934495
computed normalized entropy=0.7383014580727473
SPLASH=splash10-0006-9000000000-078927c5db5ba8691e12
submitter=submitter = University of Tokyo Team (Faculty of Engineering, University of Tokyo)
MoNA Rating=3.75

>  <NUM PEAKS>  (2809) 
36

>  <MASS SPECTRAL PEAKS>  (2809) 
27 18.94
28 1.06
29 5.39
38 1.24
39 25.87
40 4.9
41 97.95
42 3.91
43 3.11
50 1.91
51 6.41
52 3.26
53 15.22
54 1.62
55 3.3
63 1.54
65 5.88
66 2.26
67 10.64
68 4.57
69 84.59
70 4.02
77 12.34
78 2.01
79 13.86
80 7.44
81 1.63
82 1.36
91 12.49
92 9.11
93 99.99
94 10.25
105 1.52
107 2.22
121 4.06
136 4.23

$$$$

     RDKit          2D

  8  7  0  0  0  0  0  0  0  0999 V2000
   -6.4952    4.5000    0.0000 C   0  0  0  0  0  0  0  0  0  0  0  0
   -5.1962    3.7500    0.0000 C   0  0  0  0  0  0  0  0  0  0  0  0
   -3.8971    4.5000    0.0000 C   0  0  0  0  0  0  0  0  0  0  0  0
   -2.5981    3.7500    0.0000 C   0  0  0  0  0  0  0  0  0  0  0  0
   -1.2990    4.5000    0.0000 C   0  0  0  0  0  0  0  0  0  0  0  0
    0.0000    3.7500    0.0000 C   0  0  0  0  0  0  0  0  0  0  0  0
    1.2990    4.5000    0.0000 C   0  0  0  0  0  0  0  0  0  0  0  0
    2.5981    3.7500    0.0000 O   0  0  0  0  0  0  0  0  0  0  0  0
  2  1  1  0
  3  2  1  0
  4  3  1  0
  4  5  2  0
  6  5  1  0
  7  6  1  0
  8  7  1  0
M  END
>  <NAME>  (2810) 
TRANS-3-HEPTENOL

>  <SYNONYMS>  (2810) 


>  <SPECTRUM TYPE>  (2810) 
MS1

>  <INSTRUMENT TYPE>  (2810) 
EI-B

>  <INSTRUMENT>  (2810) 
HITACHI M-80B

>  <ION MODE>  (2810) 
P

>  <INCHIKEY>  (2810) 
SDZQUCJFTUULJX-SNAWJCMRSA-N

>  <FORMULA>  (2810) 
C7H14O

>  <EXACT MASS>  (2810) 
114.104465068

>  <MW>  (2810) 
114

>  <ID>  (2810) 
JP008398

>  <CONTRIBUTOR>  (2810) 
University of Tokyo Team, {Faculty of Engineering, University of Tokyo

>  <COMMENT>  (2810) 
SMILES=CCCC=CCCO
InChI=InChI=1S/C7H14O/c1-2-3-4-5-6-7-8/h4-5,8H,2-3,6-7H2,1H3/b5-4+
computed SMILES=OCCC=CCCC
accession=JP008398
date=2016.01.19 (Created 2008.10.21, modified 2011.05.06)
author=SODA AROMATIC CO., LTD.
license=CC BY-NC-SA
exact mass=114.10447
ionization energy=70 eV
ion type=[M]+*
computed spectral entropy=3.0022007152920085
computed normalized entropy=0.7982028668895765
SPLASH=splash10-0a5c-9000000000-e504454fc172a1f0fd79
submitter=submitter = University of Tokyo Team (Faculty of Engineering, University of Tokyo)
MoNA Rating=3.75

>  <NUM PEAKS>  (2810) 
43

>  <MASS SPECTRAL PEAKS>  (2810) 
15 1.44
26 1.68
27 24.14
28 2.88
29 22.57
31 27.37
38 1.35
39 25.88
40 2.94
41 65.21
42 18.44
43 15.57
44 5.31
45 1.29
50 2.08
51 3.36
52 1.41
53 9.77
54 23.61
55 99.99
56 16.9
57 11.24
58 1.38
65 1.95
66 1.53
67 21.76
68 16.7
69 7.74
70 3.73
71 2.32
72 1.17
77 1.31
79 2.62
81 47.73
82 3.53
83 7.66
84 2.36
85 1.15
86 1.78
95 1.8
96 18.13
97 1.19
114 2.51

$$$$

     RDKit          2D

 16 15  0  0  0  0  0  0  0  0999 V2000
   -7.7942    4.5000    0.0000 C   0  0  0  0  0  0  0  0  0  0  0  0
   -6.4952    2.2500    0.0000 C   0  0  0  0  0  0  0  0  0  0  0  0
    1.2990    6.7500    0.0000 C   0  0  0  0  0  0  0  0  0  0  0  0
   -1.2990    6.7500    0.0000 C   0  0  0  0  0  0  0  0  0  0  0  0
   -3.8971    2.2500    0.0000 C   0  0  0  0  0  0  0  0  0  0  0  0
   -0.0000   -0.0000    0.0000 C   0  0  0  0  0  0  0  0  0  0  0  0
   -5.1962    4.5000    0.0000 C   0  0  0  0  0  0  0  0  0  0  0  0
    0.0000    4.5000    0.0000 C   0  0  0  0  0  0  0  0  0  0  0  0
   -2.5981    4.5000    0.0000 C   0  0  0  0  0  0  0  0  0  0  0  0
   -6.4952    3.7500    0.0000 C   0  0  0  0  0  0  0  0  0  0  0  0
    0.0000    6.0000    0.0000 C   0  0  0  0  0  0  0  0  0  0  0  0
   -3.8971    3.7500    0.0000 C   0  0  0  0  0  0  0  0  0  0  0  0
   -0.0000    1.5000    0.0000 C   0  0  0  0  0  0  0  0  0  0  0  0
   -1.2990    3.7500    0.0000 C   0  0  0  0  0  0  0  0  0  0  0  0
    1.2990    2.2500    0.0000 O   0  0  0  0  0  0  0  0  0  0  0  0
   -1.2990    2.2500    0.0000 O   0  0  0  0  0  0  0  0  0  0  0  0
 10  1  1  0
 10  2  1  0
 10  7  1  0
 11  3  1  0
 11  4  1  0
 11  8  1  0
 12  5  1  0
 12  7  1  0
 12  9  1  0
 13  6  1  0
 14  8  1  0
 14  9  1  0
 15 13  2  0
 16 13  1  0
 16 14  1  0
M  END
>  <NAME>  (2811) 
2,6,8-TRIMETHYL-4-NONYL ACETATE

>  <SYNONYMS>  (2811) 
1-ISOBUTYL-3,5-DIMETHYLHEXYL ACETATE

>  <SPECTRUM TYPE>  (2811) 
MS1

>  <INSTRUMENT TYPE>  (2811) 
EI-B

>  <INSTRUMENT>  (2811) 
HITACHI M-80B

>  <ION MODE>  (2811) 
P

>  <INCHIKEY>  (2811) 
HPFLRIHGHUFYEG-UHFFFAOYSA-N

>  <FORMULA>  (2811) 
C14H28O2

>  <EXACT MASS>  (2811) 
228.208930136

>  <MW>  (2811) 
228

>  <ID>  (2811) 
JP008397

>  <CONTRIBUTOR>  (2811) 
University of Tokyo Team, {Faculty of Engineering, University of Tokyo

>  <COMMENT>  (2811) 
SMILES=CC(C)CC(C)CC(CC(C)C)OC(C)=O
InChI=InChI=1S/C14H28O2/c1-10(2)7-12(5)9-14(8-11(3)4)16-13(6)15/h10-12,14H,7-9H2,1-6H3
computed SMILES=O=C(OC(CC(C)C)CC(C)CC(C)C)C
accession=JP008397
date=2016.01.19 (Created 2008.10.21, modified 2011.05.06)
author=SODA AROMATIC CO., LTD.
license=CC BY-NC-SA
exact mass=228.20893
ionization energy=70 eV
ion type=[M]+*
computed spectral entropy=2.671548092700424
computed normalized entropy=0.7779726404370706
SPLASH=splash10-0006-9100000000-f54225006a3f61edec88
submitter=submitter = University of Tokyo Team (Faculty of Engineering, University of Tokyo)
MoNA Rating=3.75

>  <NUM PEAKS>  (2811) 
31

>  <MASS SPECTRAL PEAKS>  (2811) 
27 5.34
29 5.95
39 3.35
41 18.78
42 2.85
43 99.99
44 2.98
53 1.22
55 12.63
56 9.68
57 15.43
58 3.61
59 1.43
61 1.41
67 1.85
68 1.41
69 30.27
70 7.32
71 3.82
82 1.47
83 19.57
84 11.91
85 5.23
86 1.46
97 4.17
98 1.5
110 2.79
111 20.54
112 9.9
129 6.34
168 2.61

$$$$

     RDKit          2D

 15 14  0  0  0  0  0  0  0  0999 V2000
    3.5724    6.5625    0.0000 C   0  0  0  0  0  0  0  0  0  0  0  0
    0.9743    5.0625    0.0000 C   0  0  0  0  0  0  0  0  0  0  0  0
   -4.2219    5.0625    0.0000 C   0  0  0  0  0  0  0  0  0  0  0  0
  -10.7171    7.3125    0.0000 C   0  0  0  0  0  0  0  0  0  0  0  0
    2.2733    7.3125    0.0000 C   0  0  0  0  0  0  0  0  0  0  0  0
   -1.6238    6.5625    0.0000 C   0  0  0  0  0  0  0  0  0  0  0  0
   -6.8200    6.5625    0.0000 C   0  0  0  0  0  0  0  0  0  0  0  0
   -0.3248    7.3125    0.0000 C   0  0  0  0  0  0  0  0  0  0  0  0
   -2.9228    7.3125    0.0000 C   0  0  0  0  0  0  0  0  0  0  0  0
   -5.5209    7.3125    0.0000 C   0  0  0  0  0  0  0  0  0  0  0  0
   -8.1190    7.3125    0.0000 C   0  0  0  0  0  0  0  0  0  0  0  0
    0.9743    6.5625    0.0000 C   0  0  0  0  0  0  0  0  0  0  0  0
   -4.2219    6.5625    0.0000 C   0  0  0  0  0  0  0  0  0  0  0  0
   -9.4180    6.5625    0.0000 C   0  0  0  0  0  0  0  0  0  0  0  0
   -9.4180    5.0625    0.0000 O   0  0  0  0  0  0  0  0  0  0  0  0
  5  1  1  0
  8  6  1  0
  9  6  1  0
 10  7  1  0
 11  7  1  0
 12  2  1  0
 12  5  1  0
  8 12  2  0
 13  3  1  0
 13  9  1  0
 10 13  2  0
 14  4  1  0
 14 11  1  0
 15 14  2  0
M  END
>  <NAME>  (2812) 
ETHYL GERANYL ACETONE

>  <SYNONYMS>  (2812) 
6,10-DIMETHYL-5,9-DODECADIEN-2-ONE

>  <SPECTRUM TYPE>  (2812) 
MS1

>  <INSTRUMENT TYPE>  (2812) 
EI-B

>  <INSTRUMENT>  (2812) 
HITACHI M-80B

>  <ION MODE>  (2812) 
P

>  <INCHIKEY>  (2812) 
HSRQHSFPIKREMB-SDCOAONHSA-N

>  <FORMULA>  (2812) 
C14H24O

>  <EXACT MASS>  (2812) 
208.182715388

>  <MW>  (2812) 
208

>  <ID>  (2812) 
JP008396

>  <CONTRIBUTOR>  (2812) 
University of Tokyo Team, {Faculty of Engineering, University of Tokyo

>  <COMMENT>  (2812) 
SMILES=CCC(C)=CCCC(C)=CCCC(C)=O
InChI=InChI=1S/C14H24O/c1-5-12(2)8-6-9-13(3)10-7-11-14(4)15/h8,10H,5-7,9,11H2,1-4H3/b12-8+,13-10+
computed SMILES=O=C(C)CCC=C(C)CCC=C(C)CC
accession=JP008396
date=2016.01.19 (Created 2008.10.21, modified 2011.05.06)
author=SODA AROMATIC CO., LTD.
license=CC BY-NC-SA
exact mass=208.18272
ionization energy=70 eV
ion type=[M]+*
computed spectral entropy=2.7567588065484308
computed normalized entropy=0.7375608569209364
SPLASH=splash10-0006-9100000000-82e272b37dbeca6a080e
submitter=submitter = University of Tokyo Team (Faculty of Engineering, University of Tokyo)
MoNA Rating=3.75

>  <NUM PEAKS>  (2812) 
42

>  <MASS SPECTRAL PEAKS>  (2812) 
15 1.72
27 5.39
29 5.62
39 9.02
41 26.56
42 2.04
43 99.99
44 2.11
53 5.66
54 1.36
55 53.31
56 2.63
58 2.14
65 1.81
67 11.83
68 2.81
69 2.18
71 2.05
77 2.17
79 2.71
81 4.95
82 6.41
83 31.71
84 2.37
91 1.77
93 4.93
94 1.14
95 2.87
107 7.92
108 2.44
109 1.58
111 1.1
121 2.38
123 2.59
125 10.17
126 1.13
135 1.42
138 1.14
150 5.57
151 9.83
152 1.1
208 1.5

$$$$

     RDKit          2D

 10  9  0  0  0  0  0  0  0  0999 V2000
   -6.4952    4.5000    0.0000 C   0  0  0  0  0  0  0  0  0  0  0  0
    2.5981    3.7500    0.0000 C   0  0  0  0  0  0  0  0  0  0  0  0
   -5.1962    3.7500    0.0000 C   0  0  0  0  0  0  0  0  0  0  0  0
    1.2990    4.5000    0.0000 C   0  0  0  0  0  0  0  0  0  0  0  0
   -2.5981    3.7500    0.0000 C   0  0  0  0  0  0  0  0  0  0  0  0
   -1.2990    4.5000    0.0000 C   0  0  0  0  0  0  0  0  0  0  0  0
   -2.5981    2.2500    0.0000 O   0  0  0  0  0  0  0  0  0  0  0  0
   -1.2990    6.0000    0.0000 O   0  0  0  0  0  0  0  0  0  0  0  0
   -3.8971    4.5000    0.0000 O   0  0  0  0  0  0  0  0  0  0  0  0
    0.0000    3.7500    0.0000 O   0  0  0  0  0  0  0  0  0  0  0  0
  3  1  1  0
  4  2  1  0
  6  5  1  0
  7  5  2  0
  8  6  2  0
  9  3  1  0
  9  5  1  0
 10  4  1  0
 10  6  1  0
M  END
>  <NAME>  (2813) 
DIETHYL OXALATE

>  <SYNONYMS>  (2813) 


>  <SPECTRUM TYPE>  (2813) 
MS1

>  <INSTRUMENT TYPE>  (2813) 
EI-B

>  <INSTRUMENT>  (2813) 
HITACHI M-80B

>  <ION MODE>  (2813) 
P

>  <INCHIKEY>  (2813) 
WYACBZDAHNBPPB-UHFFFAOYSA-N

>  <FORMULA>  (2813) 
C6H10O4

>  <EXACT MASS>  (2813) 
146.0579088

>  <MW>  (2813) 
146

>  <ID>  (2813) 
JP008395

>  <CONTRIBUTOR>  (2813) 
University of Tokyo Team, {Faculty of Engineering, University of Tokyo

>  <COMMENT>  (2813) 
SMILES=CCOC(=O)C(=O)OCC
cas=95-92-1
InChI=InChI=1S/C6H10O4/c1-3-9-5(7)6(8)10-4-2/h3-4H2,1-2H3
computed SMILES=O=C(OCC)C(=O)OCC
accession=JP008395
date=2016.01.19 (Created 2008.10.21, modified 2011.05.06)
author=SODA AROMATIC CO., LTD.
license=CC BY-NC-SA
exact mass=146.05791
ionization energy=70 eV
ion type=[M]+*
computed spectral entropy=1.7632575463476574
computed normalized entropy=0.6359607294814518
SPLASH=splash10-004i-9000000000-238f3b87595cb2cf3c68
submitter=submitter = University of Tokyo Team (Faculty of Engineering, University of Tokyo)
MoNA Rating=3.75

>  <NUM PEAKS>  (2813) 
16

>  <MASS SPECTRAL PEAKS>  (2813) 
15 1.35
26 2.23
27 19.84
28 9.31
29 99.99
30 4.87
31 13.08
43 5.02
45 13.45
46 1.07
56 1.22
57 1.77
59 1.1
73 2.09
74 10.45
75 1.74

$$$$

     RDKit          2D

 13 13  0  0  0  0  0  0  0  0999 V2000
   -3.9180    0.7457    0.0000 C   0  0  0  0  0  0  0  0  0  0  0  0
    6.4961    2.2415    0.0000 C   0  0  0  0  0  0  0  0  0  0  0  0
    1.2781    2.2201    0.0000 C   0  0  0  0  0  0  0  0  0  0  0  0
    2.5481   -0.0299    0.0000 C   0  0  0  0  0  0  0  0  0  0  0  0
    2.5481    2.9701    0.0000 C   0  0  0  0  0  0  0  0  0  0  0  0
    3.8981    0.7201    0.0000 C   0  0  0  0  0  0  0  0  0  0  0  0
   -0.0246   -0.0235    0.0000 C   0  0  0  0  0  0  0  0  0  0  0  0
   -2.6227   -0.0107    0.0000 C   0  0  0  0  0  0  0  0  0  0  0  0
    1.2781    0.7201    0.0000 C   0  0  0  0  0  0  0  0  0  0  0  0
    3.8981    2.2201    0.0000 C   0  0  0  0  0  0  0  0  0  0  0  0
   -2.6300   -1.5107    0.0000 O   0  0  0  0  0  0  0  0  0  0  0  0
    5.1909    2.9808    0.0000 O   0  0  0  0  0  0  0  0  0  0  0  0
   -1.3199    0.7329    0.0000 O   0  0  0  0  0  0  0  0  0  0  0  0
  5  3  2  0
  6  4  1  0
  8  1  1  0
  9  3  1  0
  9  4  2  0
  9  7  1  0
 10  5  1  0
 10  6  2  0
 11  8  2  0
 12  2  1  0
 12 10  1  0
 13  7  1  0
 13  8  1  0
M  END
>  <NAME>  (2814) 
ANISYL ACETATE

>  <SYNONYMS>  (2814) 
PARA-METHOXYBENZYL ACETATE

>  <SPECTRUM TYPE>  (2814) 
MS1

>  <INSTRUMENT TYPE>  (2814) 
EI-B

>  <INSTRUMENT>  (2814) 
HITACHI M-80B

>  <ION MODE>  (2814) 
P

>  <INCHIKEY>  (2814) 
HFNGYHHRRMSKEU-UHFFFAOYSA-N

>  <FORMULA>  (2814) 
C10H12O3

>  <EXACT MASS>  (2814) 
180.078644244

>  <MW>  (2814) 
180

>  <ID>  (2814) 
JP008394

>  <CONTRIBUTOR>  (2814) 
University of Tokyo Team, {Faculty of Engineering, University of Tokyo

>  <COMMENT>  (2814) 
SMILES=COc(c1)ccc(COC(C)=O)c1
InChI=InChI=1S/C10H12O3/c1-8(11)13-7-9-3-5-10(12-2)6-4-9/h3-6H,7H2,1-2H3
computed SMILES=O=C(OCC1=CC=C(OC)C=C1)C
accession=JP008394
date=2016.01.19 (Created 2008.10.21, modified 2011.05.06)
author=SODA AROMATIC CO., LTD.
license=CC BY-NC-SA
exact mass=180.07864
ionization energy=70 eV
ion type=[M]+*
computed spectral entropy=3.0037576506326187
computed normalized entropy=0.8036445051053442
SPLASH=splash10-00di-7900000000-30a71b31d69064484197
submitter=submitter = University of Tokyo Team (Faculty of Engineering, University of Tokyo)
MoNA Rating=3.75

>  <NUM PEAKS>  (2814) 
42

>  <MASS SPECTRAL PEAKS>  (2814) 
15 8.48
27 1.65
29 1.93
38 1.96
39 5.59
40 1.16
41 1.75
42 1.59
43 31.33
50 4.46
51 11.1
52 6.05
53 2.21
55 1.32
62 1.81
63 6.03
64 3.89
65 4.96
66 3
76 1.48
77 21.34
78 16.67
79 2.83
89 5.04
90 5.33
91 19.42
92 8.3
94 3.77
95 1.13
105 5.21
106 2.41
107 3.11
109 7.63
119 3.49
120 31.1
121 99.99
122 9.1
135 3.24
137 4.49
138 12.61
180 30.33
181 2.77

$$$$

     RDKit          2D

 18 18  0  0  0  0  0  0  0  0999 V2000
    4.8721    3.8829    0.0000 C   0  0  0  0  0  0  0  0  0  0  0  0
   -0.3240   -0.6171    0.0000 C   0  0  0  0  0  0  0  0  0  0  0  0
    3.5731    3.1329    0.0000 C   0  0  0  0  0  0  0  0  0  0  0  0
    2.2740    3.8829    0.0000 C   0  0  0  0  0  0  0  0  0  0  0  0
   -8.1183    5.3829    0.0000 C   0  0  0  0  0  0  0  0  0  0  0  0
    0.9750    3.1329    0.0000 C   0  0  0  0  0  0  0  0  0  0  0  0
   -8.1187    3.8821    0.0000 C   0  0  0  0  0  0  0  0  0  0  0  0
   -6.8187    6.1337    0.0000 C   0  0  0  0  0  0  0  0  0  0  0  0
   -6.8197    3.1321    0.0000 C   0  0  0  0  0  0  0  0  0  0  0  0
   -5.5197    5.3837    0.0000 C   0  0  0  0  0  0  0  0  0  0  0  0
   -0.3240    3.8829    0.0000 C   0  0  0  0  0  0  0  0  0  0  0  0
   -4.2212    3.1329    0.0000 C   0  0  0  0  0  0  0  0  0  0  0  0
   -2.9221    3.8829    0.0000 C   0  0  0  0  0  0  0  0  0  0  0  0
   -0.3240    0.8829    0.0000 C   0  0  0  0  0  0  0  0  0  0  0  0
   -5.5202    3.8829    0.0000 C   0  0  0  0  0  0  0  0  0  0  0  0
   -1.6231    3.1329    0.0000 C   0  0  0  0  0  0  0  0  0  0  0  0
    0.9750    1.6329    0.0000 O   0  0  0  0  0  0  0  0  0  0  0  0
   -1.6231    1.6329    0.0000 O   0  0  0  0  0  0  0  0  0  0  0  0
  3  1  1  0
  4  3  1  0
  6  4  1  0
  7  5  2  0
  8  5  1  0
  9  7  1  0
 10  8  2  0
 11  6  1  0
 12 13  2  0
 14  2  1  0
 15  9  2  0
 15 10  1  0
 15 12  1  0
 16 11  1  0
 16 13  1  0
 17 14  2  0
 18 14  1  0
 18 16  1  0
M  END
>  <NAME>  (2815) 
AMYL CINNAMYL ACETATE

>  <SYNONYMS>  (2815) 
ALPHA-PENTYLCINNAMYL ACETATE

>  <SPECTRUM TYPE>  (2815) 
MS1

>  <INSTRUMENT TYPE>  (2815) 
EI-B

>  <INSTRUMENT>  (2815) 
HITACHI M-80B

>  <ION MODE>  (2815) 
P

>  <INCHIKEY>  (2815) 
PHOQNPPEIYLGSI-OUKQBFOZSA-N

>  <FORMULA>  (2815) 
C16H22O2

>  <EXACT MASS>  (2815) 
246.161979944

>  <MW>  (2815) 
246

>  <ID>  (2815) 
JP008393

>  <CONTRIBUTOR>  (2815) 
University of Tokyo Team, {Faculty of Engineering, University of Tokyo

>  <COMMENT>  (2815) 
SMILES=CCCCCC(OC(C)=O)C=Cc(c1)cccc1
InChI=InChI=1S/C16H22O2/c1-3-4-6-11-16(18-14(2)17)13-12-15-9-7-5-8-10-15/h5,7-10,12-13,16H,3-4,6,11H2,1-2H3/b13-12+
computed SMILES=O=C(OC(C=CC=1C=CC=CC1)CCCCC)C
accession=JP008393
date=2016.01.19 (Created 2008.10.21, modified 2011.05.06)
author=SODA AROMATIC CO., LTD.
license=CC BY-NC-SA
exact mass=246.16198
ionization energy=70 eV
ion type=[M]+*
computed spectral entropy=3.3570127393586517
computed normalized entropy=0.7983967065456744
SPLASH=splash10-002f-4900000000-f71832a0ba547d114c5a
submitter=submitter = University of Tokyo Team (Faculty of Engineering, University of Tokyo)
MoNA Rating=3.75

>  <NUM PEAKS>  (2815) 
67

>  <MASS SPECTRAL PEAKS>  (2815) 
15 2.92
27 8.02
28 3.42
29 16.93
39 6.77
41 17.99
42 1.89
43 87.27
44 2.25
51 3.94
52 1.49
53 2.69
55 7.56
57 2.55
61 1.17
63 2.78
64 1.46
65 4.76
67 2.59
69 2.06
71 1.69
77 6.9
78 4.55
79 3.05
81 1.21
89 2.79
91 48.73
92 6.99
93 1.06
95 5.61
99 2.55
102 2.76
103 3.56
104 6.91
105 7.41
107 1.59
113 1.35
114 1.05
115 35.9
116 17.46
117 24.64
118 2.99
120 1.03
127 7.76
128 32.97
129 99.99
130 80.9
131 17.36
132 1.9
133 14.01
134 2.72
141 3.8
142 3.51
143 54.33
144 16.13
145 3.51
147 6.58
148 2.98
157 5.12
171 3.36
185 1.77
186 27.72
187 4.7
203 5.75
204 8.33
205 1.31
246 3.44

$$$$

     RDKit          2D

 11 12  0  0  0  0  0  0  0  0999 V2000
   -3.6089   -1.5002    0.0000 C   0  0  0  0  0  0  0  0  0  0  0  0
    2.1853    2.6360    0.0000 C   0  0  0  0  0  0  0  0  0  0  0  0
   -2.3100    0.7500    0.0000 C   0  0  0  0  0  0  0  0  0  0  0  0
   -1.0100    1.5000    0.0000 C   0  0  0  0  0  0  0  0  0  0  0  0
   -1.0100   -1.5000    0.0000 C   0  0  0  0  0  0  0  0  0  0  0  0
    2.6000    0.0000    0.0000 C   0  0  0  0  0  0  0  0  0  0  0  0
   -2.3100   -0.7500    0.0000 C   0  0  0  0  0  0  0  0  0  0  0  0
    1.7200    1.2100    0.0000 C   0  0  0  0  0  0  0  0  0  0  0  0
    0.2900    0.7500    0.0000 C   0  0  0  0  0  0  0  0  0  0  0  0
    0.2900   -0.7500    0.0000 C   0  0  0  0  0  0  0  0  0  0  0  0
    1.7200   -1.2100    0.0000 O   0  0  0  0  0  0  0  0  0  0  0  0
  4  3  1  0
  7  1  1  0
  7  3  1  0
  7  5  1  0
  8  2  1  0
  8  6  2  0
  9  4  1  0
  9  8  1  0
 10  5  1  0
 10  9  2  0
 11  6  1  0
 11 10  1  0
M  END
>  <NAME>  (2816) 
MENTHOFURAN

>  <SYNONYMS>  (2816) 
4,5,6,7-TETRAHYDRO-3,6-DIMETHYLBENZOFURAN

>  <SPECTRUM TYPE>  (2816) 
MS1

>  <INSTRUMENT TYPE>  (2816) 
EI-B

>  <INSTRUMENT>  (2816) 
HITACHI M-80B

>  <ION MODE>  (2816) 
P

>  <INCHIKEY>  (2816) 
YGWKXXYGDYYFJU-UHFFFAOYSA-N

>  <FORMULA>  (2816) 
C10H14O

>  <EXACT MASS>  (2816) 
150.104465068

>  <MW>  (2816) 
150

>  <ID>  (2816) 
JP008392

>  <CONTRIBUTOR>  (2816) 
University of Tokyo Team, {Faculty of Engineering, University of Tokyo

>  <COMMENT>  (2816) 
SMILES=CC(C2)Cc(o1)c(C2)c(C)c1
InChI=InChI=1S/C10H14O/c1-7-3-4-9-8(2)6-11-10(9)5-7/h6-7H,3-5H2,1-2H3
computed SMILES=O1C=C(C2=C1CC(C)CC2)C
accession=JP008392
date=2016.01.19 (Created 2008.10.21, modified 2011.05.06)
author=SODA AROMATIC CO., LTD.
license=CC BY-NC-SA
exact mass=150.10447
ionization energy=70 eV
ion type=[M]+*
computed spectral entropy=2.304535458034081
computed normalized entropy=0.6843875840998912
SPLASH=splash10-0a4i-4900000000-ad7d24da86fd955477a7
submitter=submitter = University of Tokyo Team (Faculty of Engineering, University of Tokyo)
MoNA Rating=3.75

>  <NUM PEAKS>  (2816) 
29

>  <MASS SPECTRAL PEAKS>  (2816) 
27 5.42
29 2.55
39 9.11
40 1.24
41 5.81
43 1.46
51 4.16
52 1.72
53 3.71
55 1.41
63 1.64
65 3.9
66 1.36
77 8.11
78 2.09
79 15.55
80 3
91 6
93 1.57
95 1.5
105 2.43
107 1.42
108 99.99
109 8.87
121 1.75
135 1.54
149 1.11
150 29.1
151 3.39

$$$$

     RDKit          2D

 15 14  0  0  0  0  0  0  0  0999 V2000
    3.0502    2.7856    0.0000 C   0  0  0  0  0  0  0  0  0  0  0  0
    8.9964    5.5846    0.0000 C   0  0  0  0  0  0  0  0  0  0  0  0
    7.4964    2.9865    0.0000 C   0  0  0  0  0  0  0  0  0  0  0  0
   -2.1459    4.2856    0.0000 C   0  0  0  0  0  0  0  0  0  0  0  0
   -0.8469    2.0356    0.0000 C   0  0  0  0  0  0  0  0  0  0  0  0
    5.6483    4.2856    0.0000 C   0  0  0  0  0  0  0  0  0  0  0  0
    4.3493    5.0356    0.0000 C   0  0  0  0  0  0  0  0  0  0  0  0
    6.9474    5.0356    0.0000 C   0  0  0  0  0  0  0  0  0  0  0  0
    1.7512    5.0356    0.0000 C   0  0  0  0  0  0  0  0  0  0  0  0
    3.0502    4.2856    0.0000 C   0  0  0  0  0  0  0  0  0  0  0  0
    0.4522    4.2856    0.0000 C   0  0  0  0  0  0  0  0  0  0  0  0
    8.2464    4.2856    0.0000 C   0  0  0  0  0  0  0  0  0  0  0  0
    9.5454    3.5356    0.0000 O   0  0  0  0  0  0  0  0  0  0  0  0
   -0.8469    5.0356    0.0000 O   0  0  0  0  0  0  0  0  0  0  0  0
    0.4522    2.7856    0.0000 O   0  0  0  0  0  0  0  0  0  0  0  0
  7  6  1  0
  8  6  1  0
 10  1  1  0
 10  7  1  0
 10  9  1  0
 11  9  1  0
 12  2  1  0
 12  3  1  0
 12  8  1  0
 13 12  1  0
 14  4  1  0
 14 11  1  0
 15  5  1  0
 15 11  1  0
M  END
>  <NAME>  (2817) 
HYDROXYCITRONELLAL DIMETHYL ACETAL

>  <SYNONYMS>  (2817) 
3,7-DIMETHYL-7-HYDROXYOCTANAL DIMETHYL ACETAL

>  <SPECTRUM TYPE>  (2817) 
MS1

>  <INSTRUMENT TYPE>  (2817) 
EI-B

>  <INSTRUMENT>  (2817) 
HITACHI M-80B

>  <ION MODE>  (2817) 
P

>  <INCHIKEY>  (2817) 
QCJVKUULZGKQDG-UHFFFAOYSA-N

>  <FORMULA>  (2817) 
C12H26O3

>  <EXACT MASS>  (2817) 
218.18819469199997

>  <MW>  (2817) 
218

>  <ID>  (2817) 
JP008391

>  <CONTRIBUTOR>  (2817) 
University of Tokyo Team, {Faculty of Engineering, University of Tokyo

>  <COMMENT>  (2817) 
SMILES=COC(OC)CC(C)CCCC(C)(C)O
InChI=InChI=1S/C12H26O3/c1-10(9-11(14-4)15-5)7-6-8-12(2,3)13/h10-11,13H,6-9H2,1-5H3
computed SMILES=OC(C)(C)CCCC(C)CC(OC)OC
accession=JP008391
date=2016.01.19 (Created 2008.10.21, modified 2011.05.06)
author=SODA AROMATIC CO., LTD.
license=CC BY-NC-SA
exact mass=218.18819
ionization energy=70 eV
ion type=[M]+*
computed spectral entropy=3.0324986957913698
computed normalized entropy=0.7833482909429637
SPLASH=splash10-004r-9000000000-87bc8d37143242ccee74
submitter=submitter = University of Tokyo Team (Faculty of Engineering, University of Tokyo)
MoNA Rating=3.75

>  <NUM PEAKS>  (2817) 
48

>  <MASS SPECTRAL PEAKS>  (2817) 
15 2.73
27 3.65
29 7.33
31 12.36
39 3.87
41 15.74
42 1.79
43 29.66
45 8.76
47 6.07
53 3.44
55 16.24
56 2.21
57 2.45
58 7.29
59 31.91
61 3.41
67 2.71
68 1.22
69 11.1
70 1.27
71 9.88
75 99.99
76 2.52
79 1.01
81 13.01
82 1.12
83 2
85 59.08
86 3.68
93 1.39
95 7.31
96 6.65
97 4.65
98 6.16
99 1.02
110 1.37
111 11.51
112 1.67
113 1.81
121 3.93
127 2.41
128 1.12
137 3.86
139 2.24
153 1.17
168 2.65
169 2.99

$$$$

     RDKit          2D

 12 11  0  0  0  0  0  0  0  0999 V2000
    1.7010    0.5490    0.0000 C   0  0  0  0  0  0  0  0  0  0  0  0
    7.6471    3.3481    0.0000 C   0  0  0  0  0  0  0  0  0  0  0  0
    6.1471    0.7500    0.0000 C   0  0  0  0  0  0  0  0  0  0  0  0
    4.2990    2.0490    0.0000 C   0  0  0  0  0  0  0  0  0  0  0  0
    3.0000    2.7990    0.0000 C   0  0  0  0  0  0  0  0  0  0  0  0
    0.4019    2.7990    0.0000 C   0  0  0  0  0  0  0  0  0  0  0  0
    5.5981    2.7990    0.0000 C   0  0  0  0  0  0  0  0  0  0  0  0
   -0.8971    2.0490    0.0000 C   0  0  0  0  0  0  0  0  0  0  0  0
    1.7010    2.0490    0.0000 C   0  0  0  0  0  0  0  0  0  0  0  0
    6.8971    2.0490    0.0000 C   0  0  0  0  0  0  0  0  0  0  0  0
   -2.1962    2.7990    0.0000 O   0  0  0  0  0  0  0  0  0  0  0  0
    8.1962    1.2990    0.0000 O   0  0  0  0  0  0  0  0  0  0  0  0
  5  4  1  0
  7  4  1  0
  8  6  1  0
  9  1  1  0
  9  5  1  0
  9  6  1  0
 10  2  1  0
 10  3  1  0
 10  7  1  0
 11  8  2  0
 12 10  1  0
M  END
>  <NAME>  (2818) 
HYDROXYCITRONELLAL

>  <SYNONYMS>  (2818) 
3,7-DIMETHYL-7-HYDROXYOCTANAL

>  <SPECTRUM TYPE>  (2818) 
MS1

>  <INSTRUMENT TYPE>  (2818) 
EI-B

>  <INSTRUMENT>  (2818) 
HITACHI M-80B

>  <ION MODE>  (2818) 
P

>  <INCHIKEY>  (2818) 
WPFVBOQKRVRMJB-UHFFFAOYSA-N

>  <FORMULA>  (2818) 
C10H20O2

>  <EXACT MASS>  (2818) 
172.14632988

>  <MW>  (2818) 
172

>  <ID>  (2818) 
JP008390

>  <CONTRIBUTOR>  (2818) 
University of Tokyo Team, {Faculty of Engineering, University of Tokyo

>  <COMMENT>  (2818) 
SMILES=O=CCC(C)CCCC(C)(C)O
InChI=InChI=1S/C10H20O2/c1-9(6-8-11)5-4-7-10(2,3)12/h8-9,12H,4-7H2,1-3H3
computed SMILES=O=CCC(C)CCCC(O)(C)C
accession=JP008390
date=2016.01.19 (Created 2008.10.21, modified 2011.05.06)
author=SODA AROMATIC CO., LTD.
license=CC BY-NC-SA
exact mass=172.14633
ionization energy=70 eV
ion type=[M]+*
computed spectral entropy=2.701640010138807
computed normalized entropy=0.7539069993872438
SPLASH=splash10-0a4l-9000000000-0b1976e02fea78c4c3f3
submitter=submitter = University of Tokyo Team (Faculty of Engineering, University of Tokyo)
MoNA Rating=3.75

>  <NUM PEAKS>  (2818) 
36

>  <MASS SPECTRAL PEAKS>  (2818) 
15 1.29
27 7.16
29 8.18
31 8.13
39 7.06
41 20.5
42 3.07
43 48.19
44 2.76
45 1.79
53 2.04
55 11.9
56 4.36
57 4.88
58 3.74
59 99.99
60 2.64
67 1.93
68 1.47
69 10.6
70 2.19
71 34.53
72 1.47
81 8.69
83 1.32
85 1.5
93 1.02
95 7.6
96 9.69
97 1.86
110 1.86
111 3.04
113 2.9
114 4.01
121 3.18
139 3.01

$$$$

     RDKit          2D

 12 12  0  0  1  0  0  0  0  0999 V2000
   -3.4837    0.4227    0.0000 C   0  0  0  0  0  0  0  0  0  0  0  0
    3.4191   -0.8150    0.0000 C   0  0  0  0  0  0  0  0  0  0  0  0
    4.3841    1.0741    0.0000 C   0  0  0  0  0  0  0  0  0  0  0  0
   -1.6500    1.4490    0.0000 C   0  0  0  0  0  0  0  0  0  0  0  0
   -2.2706   -0.4595    0.0000 C   0  0  0  0  0  0  0  0  0  0  0  0
    1.0600   -1.2700    0.0000 C   0  0  0  0  0  0  0  0  0  0  0  0
   -0.4400   -1.2700    0.0000 C   0  0  0  0  0  0  0  0  0  0  0  0
    1.5300    0.1500    0.0000 C   0  0  0  0  0  0  0  0  0  0  0  0
    2.9571    0.6121    0.0000 C   0  0  0  0  0  0  0  0  0  0  0  0
   -0.9000    0.1500    0.0000 C   0  0  0  0  0  0  0  0  0  0  0  0
    2.4950    2.0391    0.0000 O   0  0  0  0  0  0  0  0  0  0  0  0
    0.3100    1.0300    0.0000 O   0  0  0  0  0  0  0  0  0  0  0  0
  5  1  2  0
  7  6  1  0
  8  6  1  0
  9  2  1  0
  9  3  1  0
  8  9  1  6
 10  4  1  6
 10  5  1  0
 10  7  1  0
  9 11  1  0
  8 12  1  0
 12 10  1  0
M  END
>  <NAME>  (2819) 
TRANS-LINALOOL OXIDE

>  <SYNONYMS>  (2819) 


>  <SPECTRUM TYPE>  (2819) 
MS1

>  <INSTRUMENT TYPE>  (2819) 
EI-B

>  <INSTRUMENT>  (2819) 
HITACHI M-80B

>  <ION MODE>  (2819) 
P

>  <INCHIKEY>  (2819) 
BRHDDEIRQPDPMG-WCBMZHEXSA-N

>  <FORMULA>  (2819) 
C10H18O2

>  <EXACT MASS>  (2819) 
170.130679816

>  <MW>  (2819) 
170

>  <ID>  (2819) 
JP008389

>  <CONTRIBUTOR>  (2819) 
University of Tokyo Team, {Faculty of Engineering, University of Tokyo

>  <COMMENT>  (2819) 
SMILES=C=CC(C)(C1)OC(C1)C(C)(C)O
InChI=InChI=1S/C10H18O2/c1-5-10(4)7-6-8(12-10)9(2,3)11/h5,8,11H,1,6-7H2,2-4H3/t8-,10+/m0/s1
computed SMILES=OC(C)(C)C1OC(C=C)(C)CC1
accession=JP008389
date=2016.01.19 (Created 2008.10.21, modified 2011.05.06)
author=SODA AROMATIC CO., LTD.
license=CC BY-NC-SA
exact mass=170.13068
ionization energy=70 eV
ion type=[M]+*
computed spectral entropy=3.17687802097694
computed normalized entropy=0.8206440357980493
SPLASH=splash10-052f-9000000000-e8c8defcb13d413ce23b
submitter=submitter = University of Tokyo Team (Faculty of Engineering, University of Tokyo)
MoNA Rating=3.75

>  <NUM PEAKS>  (2819) 
48

>  <MASS SPECTRAL PEAKS>  (2819) 
15 2.52
27 11.47
29 5.58
31 10.88
39 10.87
40 1.33
41 25.12
42 2.88
43 48.74
44 2.03
45 2.94
51 1.18
53 6.14
54 1.73
55 28.21
56 2.14
57 4.4
58 1.38
59 99.99
60 2.87
65 1.62
66 1.17
67 22.29
68 31.3
69 11.51
70 5.27
71 11.62
72 5.24
73 1.29
77 2.91
79 6.33
81 17.28
82 3.62
83 12.5
84 4.21
85 5.47
91 2.34
93 29.53
94 41.15
95 4.89
97 6.65
102 1.65
109 2.08
110 1.53
111 31.22
112 4.89
137 3.31
155 3.77

$$$$

     RDKit          2D

 13 13  0  0  0  0  0  0  0  0999 V2000
   -6.8197    3.1321    0.0000 C   0  0  0  0  0  0  0  0  0  0  0  0
   -5.5207    3.8821    0.0000 C   0  0  0  0  0  0  0  0  0  0  0  0
    3.5726    1.6321    0.0000 C   0  0  0  0  0  0  0  0  0  0  0  0
    3.5731    3.1329    0.0000 C   0  0  0  0  0  0  0  0  0  0  0  0
    2.2731    0.8813    0.0000 C   0  0  0  0  0  0  0  0  0  0  0  0
    2.2740    3.8829    0.0000 C   0  0  0  0  0  0  0  0  0  0  0  0
    0.9740    1.6313    0.0000 C   0  0  0  0  0  0  0  0  0  0  0  0
   -4.2216    3.1321    0.0000 C   0  0  0  0  0  0  0  0  0  0  0  0
   -0.3245    3.8821    0.0000 C   0  0  0  0  0  0  0  0  0  0  0  0
    0.9745    3.1321    0.0000 C   0  0  0  0  0  0  0  0  0  0  0  0
   -1.6236    3.1321    0.0000 C   0  0  0  0  0  0  0  0  0  0  0  0
   -1.6236    1.6321    0.0000 O   0  0  0  0  0  0  0  0  0  0  0  0
   -2.9226    3.8821    0.0000 O   0  0  0  0  0  0  0  0  0  0  0  0
  2  1  2  0
  4  3  1  0
  5  3  1  0
  6  4  1  0
  7  5  1  0
  8  2  1  0
 10  6  1  0
 10  7  1  0
 10  9  1  0
 11  9  1  0
 12 11  2  0
 13  8  1  0
 13 11  1  0
M  END
>  <NAME>  (2820) 
ALLYL CYCLOHEXYLACETATE

>  <SYNONYMS>  (2820) 


>  <SPECTRUM TYPE>  (2820) 
MS1

>  <INSTRUMENT TYPE>  (2820) 
EI-B

>  <INSTRUMENT>  (2820) 
HITACHI M-80B

>  <ION MODE>  (2820) 
P

>  <INCHIKEY>  (2820) 
UECFOOSFSUDPOR-UHFFFAOYSA-N

>  <FORMULA>  (2820) 
C11H18O2

>  <EXACT MASS>  (2820) 
182.130679816

>  <MW>  (2820) 
182

>  <ID>  (2820) 
JP008385

>  <CONTRIBUTOR>  (2820) 
University of Tokyo Team, {Faculty of Engineering, University of Tokyo

>  <COMMENT>  (2820) 
SMILES=C=CCOC(=O)CC(C1)CCCC1
InChI=InChI=1S/C11H18O2/c1-2-8-13-11(12)9-10-6-4-3-5-7-10/h2,10H,1,3-9H2
computed SMILES=O=C(OCC=C)CC1CCCCC1
accession=JP008385
date=2016.01.19 (Created 2008.10.21, modified 2011.05.06)
author=SODA AROMATIC CO., LTD.
license=CC BY-NC-SA
exact mass=182.13068
ionization energy=70 eV
ion type=[M]+*
computed spectral entropy=3.1128035639984017
computed normalized entropy=0.7998322958307155
SPLASH=splash10-0k96-9100000000-a884ffab5fd7582cb8c7
submitter=submitter = University of Tokyo Team (Faculty of Engineering, University of Tokyo)
MoNA Rating=3.75

>  <NUM PEAKS>  (2820) 
49

>  <MASS SPECTRAL PEAKS>  (2820) 
15 1.59
26 1.52
27 17.55
28 6.61
29 17.34
31 1.29
38 1.33
39 37.68
40 7.04
41 99.99
42 8.94
43 26.42
44 1.13
45 1.25
51 1.4
53 9.21
54 30.33
55 92.53
56 24.5
57 8.76
58 19.73
60 1.56
65 1.48
67 13.18
68 2.94
69 3.6
71 1.25
72 1.4
77 1.65
79 6.78
80 2.26
81 44.27
82 14.6
83 10.56
85 2.85
93 1.13
95 11.26
96 1.39
97 29.39
98 2.04
99 7.29
100 70.77
101 21.22
102 1.19
122 1.54
123 3.54
125 23.41
126 1.87
182 1.5

$$$$

     RDKit          2D

 14 15  0  0  0  0  0  0  0  0999 V2000
    6.1370    1.3606    0.0000 C   0  0  0  0  0  0  0  0  0  0  0  0
   -2.9500   -0.8900    0.0000 C   0  0  0  0  0  0  0  0  0  0  0  0
   -2.9500    0.6100    0.0000 C   0  0  0  0  0  0  0  0  0  0  0  0
   -1.6500   -1.6400    0.0000 C   0  0  0  0  0  0  0  0  0  0  0  0
   -1.6500    1.3600    0.0000 C   0  0  0  0  0  0  0  0  0  0  0  0
    0.9400   -1.6400    0.0000 C   0  0  0  0  0  0  0  0  0  0  0  0
    2.2400   -0.8900    0.0000 C   0  0  0  0  0  0  0  0  0  0  0  0
    0.9400    1.3600    0.0000 C   0  0  0  0  0  0  0  0  0  0  0  0
    4.8381    0.6104    0.0000 C   0  0  0  0  0  0  0  0  0  0  0  0
   -0.3500   -0.8900    0.0000 C   0  0  0  0  0  0  0  0  0  0  0  0
   -0.3500    0.6100    0.0000 C   0  0  0  0  0  0  0  0  0  0  0  0
    2.2400    0.6100    0.0000 C   0  0  0  0  0  0  0  0  0  0  0  0
    4.8383   -0.8896    0.0000 O   0  0  0  0  0  0  0  0  0  0  0  0
    3.5389    1.3602    0.0000 O   0  0  0  0  0  0  0  0  0  0  0  0
  3  2  2  0
  4  2  1  0
  5  3  1  0
  7  6  1  0
  9  1  1  0
 10  4  2  0
 10  6  1  0
 11  5  2  0
 11  8  1  0
 11 10  1  0
 12  7  1  0
 12  8  1  0
 13  9  2  0
 14  9  1  0
 14 12  1  0
M  END
>  <NAME>  (2821) 
TETRAHYDRO-BETA-NAPHTHYLACETATE

>  <SYNONYMS>  (2821) 
1,2,3,4-TETRAHYDR0-2-NAPHTHYL ACETATE

>  <SPECTRUM TYPE>  (2821) 
MS1

>  <INSTRUMENT TYPE>  (2821) 
EI-B

>  <INSTRUMENT>  (2821) 
HITACHI M-80B

>  <ION MODE>  (2821) 
P

>  <INCHIKEY>  (2821) 
DQIGNECJOYIPLE-UHFFFAOYSA-N

>  <FORMULA>  (2821) 
C12H14O2

>  <EXACT MASS>  (2821) 
190.099379688

>  <MW>  (2821) 
190

>  <ID>  (2821) 
JP008384

>  <CONTRIBUTOR>  (2821) 
University of Tokyo Team, {Faculty of Engineering, University of Tokyo

>  <COMMENT>  (2821) 
SMILES=CC(=O)OC(C1)Cc(c2)c(ccc2)C1
InChI=InChI=1S/C12H14O2/c1-9(13)14-12-7-6-10-4-2-3-5-11(10)8-12/h2-5,12H,6-8H2,1H3
computed SMILES=O=C(OC1CC=2C=CC=CC2CC1)C
accession=JP008384
date=2016.01.19 (Created 2008.10.21, modified 2011.05.06)
author=SODA AROMATIC CO., LTD.
license=CC BY-NC-SA
exact mass=190.09938
ionization energy=70 eV
ion type=[M]+*
computed spectral entropy=2.4770834457576805
computed normalized entropy=0.7213432369585858
SPLASH=splash10-001i-3900000000-c519f5043830bb7fc765
submitter=submitter = University of Tokyo Team (Faculty of Engineering, University of Tokyo)
MoNA Rating=3.75

>  <NUM PEAKS>  (2821) 
31

>  <MASS SPECTRAL PEAKS>  (2821) 
15 3.98
27 1.68
39 3.9
41 1.32
43 38.88
50 1.19
51 4.23
52 1.12
53 1.22
63 3.14
64 1.19
65 3.6
77 5.69
78 3.52
79 1.2
89 1.68
91 9.67
92 1
102 1.83
103 3.83
104 5
105 6.97
115 20.9
116 4.05
117 3.58
119 1.52
127 3
128 8.53
129 35.19
130 99.99
131 13.44

$$$$

     RDKit          2D

 11 11  0  0  0  0  0  0  0  0999 V2000
   -1.5281    2.0489    0.0000 C   0  0  0  0  0  0  0  0  0  0  0  0
    2.2053   -2.3062    0.0000 C   0  0  0  0  0  0  0  0  0  0  0  0
   -3.5974    0.3667    0.0000 C   0  0  0  0  0  0  0  0  0  0  0  0
   -3.7631   -1.1262    0.0000 C   0  0  0  0  0  0  0  0  0  0  0  0
   -2.1376    0.6783    0.0000 C   0  0  0  0  0  0  0  0  0  0  0  0
    0.7136   -2.1487    0.0000 C   0  0  0  0  0  0  0  0  0  0  0  0
   -2.3874   -1.7291    0.0000 C   0  0  0  0  0  0  0  0  0  0  0  0
   -1.3876   -0.6207    0.0000 C   0  0  0  0  0  0  0  0  0  0  0  0
   -0.1686   -3.3619    0.0000 O   0  0  0  0  0  0  0  0  0  0  0  0
   -2.0719   -3.1955    0.0000 O   0  0  0  0  0  0  0  0  0  0  0  0
    0.1041   -0.7781    0.0000 O   0  0  0  0  0  0  0  0  0  0  0  0
  4  3  1  0
  5  1  1  0
  5  3  1  0
  6  2  1  0
  7  4  1  0
  8  5  2  0
  8  7  1  0
  9  6  2  0
 10  7  2  0
 11  6  1  0
 11  8  1  0
M  END
>  <NAME>  (2822) 
2-ACETOXY-3-METHYL-2-CYCLOPENTEN-1-ONE

>  <SYNONYMS>  (2822) 
2-ACETOXY-3-METHYL-2-CYCLOPENTENONE

>  <SPECTRUM TYPE>  (2822) 
MS1

>  <INSTRUMENT TYPE>  (2822) 
EI-B

>  <INSTRUMENT>  (2822) 
HITACHI M-80B

>  <ION MODE>  (2822) 
P

>  <INCHIKEY>  (2822) 
NNYIMCWMHNKLNZ-UHFFFAOYSA-N

>  <FORMULA>  (2822) 
C8H10O3

>  <EXACT MASS>  (2822) 
154.06299417999998

>  <MW>  (2822) 
154

>  <ID>  (2822) 
JP008383

>  <CONTRIBUTOR>  (2822) 
University of Tokyo Team, {Faculty of Engineering, University of Tokyo

>  <COMMENT>  (2822) 
SMILES=CC(=O)OC(=C(C)1)C(=O)CC1
InChI=InChI=1S/C8H10O3/c1-5-3-4-7(10)8(5)11-6(2)9/h3-4H2,1-2H3
computed SMILES=O=C(OC=1C(=O)CCC1C)C
accession=JP008383
date=2016.01.19 (Created 2008.10.21, modified 2011.05.06)
author=SODA AROMATIC CO., LTD.
license=CC BY-NC-SA
exact mass=154.06299
ionization energy=70 eV
ion type=[M]+*
computed spectral entropy=2.6972805351598517
computed normalized entropy=0.771421336217153
SPLASH=splash10-0006-9100000000-93f6f1abe56abdc0d1cc
submitter=submitter = University of Tokyo Team (Faculty of Engineering, University of Tokyo)
MoNA Rating=3.75

>  <NUM PEAKS>  (2822) 
33

>  <MASS SPECTRAL PEAKS>  (2822) 
14 1.62
15 10.02
26 2.46
27 16.34
28 4.14
29 5.1
38 1.96
39 15.41
40 2.58
41 21.2
42 6.35
43 99.99
44 2.56
50 1.47
51 2.33
52 1.84
53 4.3
54 3.15
55 11.09
56 12.77
66 2.19
67 1.25
69 18.97
70 3.37
83 5.53
84 39.78
85 1.88
97 3.07
111 1.46
112 41.36
113 2.62
154 11.85
155 1.19

$$$$

     RDKit          2D

 12 12  0  0  0  0  0  0  0  0999 V2000
    0.2499    1.0433    0.0000 C   0  0  0  0  0  0  0  0  0  0  0  0
   -5.3636   -0.9202    0.0000 C   0  0  0  0  0  0  0  0  0  0  0  0
   -1.0492    0.2933    0.0000 C   0  0  0  0  0  0  0  0  0  0  0  0
   -8.6591    0.0396    0.0000 C   0  0  0  0  0  0  0  0  0  0  0  0
   -8.3472    1.5068    0.0000 C   0  0  0  0  0  0  0  0  0  0  0  0
   -4.9463    1.0433    0.0000 C   0  0  0  0  0  0  0  0  0  0  0  0
   -3.6472    0.2933    0.0000 C   0  0  0  0  0  0  0  0  0  0  0  0
   -6.2453    0.2933    0.0000 C   0  0  0  0  0  0  0  0  0  0  0  0
   -3.6472   -1.2067    0.0000 O   0  0  0  0  0  0  0  0  0  0  0  0
   -2.3482    1.0433    0.0000 O   0  0  0  0  0  0  0  0  0  0  0  0
   -7.3600   -0.7104    0.0000 O   0  0  0  0  0  0  0  0  0  0  0  0
   -6.8554    1.6636    0.0000 O   0  0  0  0  0  0  0  0  0  0  0  0
  3  1  1  0
  5  4  1  0
  7  6  1  0
  8  2  1  0
  8  6  1  0
  9  7  2  0
 10  3  1  0
 10  7  1  0
 11  4  1  0
 11  8  1  0
 12  5  1  0
 12  8  1  0
M  END
>  <NAME>  (2823) 
ETHYL 2-METHYL-1,3-DIOXOLANE-2-ACETATE

>  <SYNONYMS>  (2823) 


>  <SPECTRUM TYPE>  (2823) 
MS1

>  <INSTRUMENT TYPE>  (2823) 
EI-B

>  <INSTRUMENT>  (2823) 
HITACHI M-80B

>  <ION MODE>  (2823) 
P

>  <INCHIKEY>  (2823) 
XWEOGMYZFCHQNT-UHFFFAOYSA-N

>  <FORMULA>  (2823) 
C8H14O4

>  <EXACT MASS>  (2823) 
174.089208928

>  <MW>  (2823) 
174

>  <ID>  (2823) 
JP008382

>  <CONTRIBUTOR>  (2823) 
University of Tokyo Team, {Faculty of Engineering, University of Tokyo

>  <COMMENT>  (2823) 
SMILES=CCOC(=O)CC(C)(O1)OCC1
InChI=InChI=1S/C8H14O4/c1-3-10-7(9)6-8(2)11-4-5-12-8/h3-6H2,1-2H3
computed SMILES=O=C(OCC)CC1(OCCO1)C
accession=JP008382
date=2016.01.19 (Created 2008.10.21, modified 2011.05.06)
author=SODA AROMATIC CO., LTD.
license=CC BY-NC-SA
exact mass=174.08921
ionization energy=70 eV
ion type=[M]+*
computed spectral entropy=2.174362177486683
computed normalized entropy=0.6673719308535561
SPLASH=splash10-000l-9000000000-3aae2deb708e333932ac
submitter=submitter = University of Tokyo Team (Faculty of Engineering, University of Tokyo)
MoNA Rating=3.75

>  <NUM PEAKS>  (2823) 
26

>  <MASS SPECTRAL PEAKS>  (2823) 
15 3.54
27 7.35
28 2.26
29 16.25
31 2.26
39 5.02
40 1.56
41 6.64
42 8.68
43 62.01
44 2.11
45 4.24
58 1.3
59 3.67
69 1.57
71 1
72 1.59
85 2.47
86 2.7
87 99.99
88 4.35
89 5.73
99 1
117 2.49
131 1.12
159 11.21

$$$$

     RDKit          2D

 12 11  0  0  0  0  0  0  0  0999 V2000
    2.5535    4.5772    0.0000 C   0  0  0  0  0  0  0  0  0  0  0  0
   -7.8388    4.5772    0.0000 C   0  0  0  0  0  0  0  0  0  0  0  0
   -0.0445    3.0772    0.0000 C   0  0  0  0  0  0  0  0  0  0  0  0
   -6.2049    3.4281    0.0000 C   0  0  0  0  0  0  0  0  0  0  0  0
    1.2545    5.3272    0.0000 C   0  0  0  0  0  0  0  0  0  0  0  0
   -6.5397    5.3272    0.0000 C   0  0  0  0  0  0  0  0  0  0  0  0
   -2.6426    4.5772    0.0000 C   0  0  0  0  0  0  0  0  0  0  0  0
   -1.3436    5.3272    0.0000 C   0  0  0  0  0  0  0  0  0  0  0  0
   -3.9417    5.3272    0.0000 C   0  0  0  0  0  0  0  0  0  0  0  0
   -0.0445    4.5772    0.0000 C   0  0  0  0  0  0  0  0  0  0  0  0
   -5.2407    4.5772    0.0000 C   0  0  0  0  0  0  0  0  0  0  0  0
   -4.2765    3.4281    0.0000 O   0  0  0  0  0  0  0  0  0  0  0  0
  5  1  1  0
  6  2  2  0
  8  7  1  0
  9  7  1  0
 10  3  1  0
 10  5  1  0
  8 10  2  0
 11  4  1  0
 11  6  1  0
 11  9  1  0
 12 11  1  0
M  END
>  <NAME>  (2824) 
ETHYLLINALOOL

>  <SYNONYMS>  (2824) 
3,7-DIMETHYL-1,6-NONADIEN-3-OL

>  <SPECTRUM TYPE>  (2824) 
MS1

>  <INSTRUMENT TYPE>  (2824) 
EI-B

>  <INSTRUMENT>  (2824) 
HITACHI M-80B

>  <ION MODE>  (2824) 
P

>  <INCHIKEY>  (2824) 
KRLBLPBPZSSIGH-CSKARUKUSA-N

>  <FORMULA>  (2824) 
C11H20O

>  <EXACT MASS>  (2824) 
168.15141526

>  <MW>  (2824) 
168

>  <ID>  (2824) 
JP008381

>  <CONTRIBUTOR>  (2824) 
University of Tokyo Team, {Faculty of Engineering, University of Tokyo

>  <COMMENT>  (2824) 
SMILES=CCC(C)=CCCC(C)(O)C=C
InChI=InChI=1S/C11H20O/c1-5-10(3)8-7-9-11(4,12)6-2/h6,8,12H,2,5,7,9H2,1,3-4H3/b10-8+
computed SMILES=OC(C=C)(C)CCC=C(C)CC
accession=JP008381
date=2016.01.19 (Created 2008.10.21, modified 2011.05.06)
author=SODA AROMATIC CO., LTD.
license=CC BY-NC-SA
exact mass=168.15142
ionization energy=70 eV
ion type=[M]+*
computed spectral entropy=3.398148386801532
computed normalized entropy=0.8201877590790182
SPLASH=splash10-0596-9000000000-4cf6660fcb0821b14189
submitter=submitter = University of Tokyo Team (Faculty of Engineering, University of Tokyo)
MoNA Rating=3.75

>  <NUM PEAKS>  (2824) 
63

>  <MASS SPECTRAL PEAKS>  (2824) 
15 2.08
18 1.9
26 1.36
27 24.72
28 4.1
29 19.68
31 2.25
39 22.65
40 3.93
41 54.61
42 5.52
43 65.06
44 1.9
45 3.27
50 1
51 3.11
52 1.74
53 16.43
54 3.74
55 99.99
56 5.22
57 8.65
58 2.08
65 3.52
66 1.57
67 20.91
68 10.98
69 16.26
70 9.52
71 85.87
72 11.26
73 16.65
77 3.98
79 12.52
80 28.1
81 19.11
82 12.18
83 17.53
84 2.55
85 3.49
86 1.29
91 3.74
92 10.47
93 62.71
94 15.79
95 8.07
96 4.64
97 10.79
98 1.99
99 1.03
105 2.09
107 5.11
108 1.78
109 1.1
110 1.61
111 3.5
121 24.36
122 2.6
123 2.49
135 4.75
150 5.89
151 1.15
153 1.04

$$$$

     RDKit          2D

 11 10  0  0  0  0  0  0  0  0999 V2000
   -7.4695    3.9375    0.0000 C   0  0  0  0  0  0  0  0  0  0  0  0
    1.6238    3.1875    0.0000 C   0  0  0  0  0  0  0  0  0  0  0  0
    0.3248    5.4375    0.0000 C   0  0  0  0  0  0  0  0  0  0  0  0
   -3.9072    5.0866    0.0000 C   0  0  0  0  0  0  0  0  0  0  0  0
   -6.1704    3.1875    0.0000 C   0  0  0  0  0  0  0  0  0  0  0  0
   -2.2733    3.9375    0.0000 C   0  0  0  0  0  0  0  0  0  0  0  0
   -0.9743    3.1875    0.0000 C   0  0  0  0  0  0  0  0  0  0  0  0
   -3.5724    3.1875    0.0000 C   0  0  0  0  0  0  0  0  0  0  0  0
    0.3248    3.9375    0.0000 C   0  0  0  0  0  0  0  0  0  0  0  0
   -4.8714    3.9375    0.0000 C   0  0  0  0  0  0  0  0  0  0  0  0
   -5.8356    5.0866    0.0000 O   0  0  0  0  0  0  0  0  0  0  0  0
  5  1  1  0
  7  6  1  0
  8  6  1  0
  9  2  1  0
  9  3  1  0
  9  7  2  0
 10  4  1  0
 10  5  1  0
 10  8  1  0
 11 10  1  0
M  END
>  <NAME>  (2825) 
DIHYDROLINALOOL

>  <SYNONYMS>  (2825) 
3,7-DIMETHYL-6-OCTEN-3-OL

>  <SPECTRUM TYPE>  (2825) 
MS1

>  <INSTRUMENT TYPE>  (2825) 
EI-B

>  <INSTRUMENT>  (2825) 
HITACHI M-80B

>  <ION MODE>  (2825) 
P

>  <INCHIKEY>  (2825) 
JRTBBCBDKSRRCY-UHFFFAOYSA-N

>  <FORMULA>  (2825) 
C10H20O

>  <EXACT MASS>  (2825) 
156.15141526

>  <MW>  (2825) 
156

>  <ID>  (2825) 
JP008380

>  <CONTRIBUTOR>  (2825) 
University of Tokyo Team, {Faculty of Engineering, University of Tokyo

>  <COMMENT>  (2825) 
SMILES=CC(C)=CCCC(C)(O)CC
InChI=InChI=1S/C10H20O/c1-5-10(4,11)8-6-7-9(2)3/h7,11H,5-6,8H2,1-4H3
computed SMILES=OC(C)(CC)CCC=C(C)C
accession=JP008380
date=2016.01.19 (Created 2008.10.21, modified 2011.05.06)
author=SODA AROMATIC CO., LTD.
license=CC BY-NC-SA
exact mass=156.15142
ionization energy=70 eV
ion type=[M]+*
computed spectral entropy=3.02292734986832
computed normalized entropy=0.7941148862006708
SPLASH=splash10-0avl-9300000000-07acd791d38958cbb52d
submitter=submitter = University of Tokyo Team (Faculty of Engineering, University of Tokyo)
MoNA Rating=3.75

>  <NUM PEAKS>  (2825) 
45

>  <MASS SPECTRAL PEAKS>  (2825) 
15 1.26
27 14.92
28 1.58
29 15.07
31 4.35
39 14.54
40 3.38
41 51.03
42 4.01
43 46.55
44 1.28
45 7.83
51 1.67
53 8.83
54 1.43
55 30.06
56 6.54
57 13.63
58 5.14
59 1.28
65 1.4
67 16.83
68 7.78
69 68.41
70 6.09
71 8.71
72 1.88
73 66.25
74 3.17
77 1.17
79 1.12
81 8.83
82 9.88
83 3.44
84 1.9
85 1.56
95 3.91
96 1.03
109 99.99
110 8.76
123 12.85
124 1.08
127 2.65
138 30.19
139 3.52

$$$$

     RDKit          2D

 11 10  0  0  0  0  0  0  0  0999 V2000
   -6.8200    5.0625    0.0000 C   0  0  0  0  0  0  0  0  0  0  0  0
   -5.5209    2.8125    0.0000 C   0  0  0  0  0  0  0  0  0  0  0  0
   -0.3248    2.8125    0.0000 C   0  0  0  0  0  0  0  0  0  0  0  0
   -2.9228    4.3125    0.0000 C   0  0  0  0  0  0  0  0  0  0  0  0
   -4.2219    5.0625    0.0000 C   0  0  0  0  0  0  0  0  0  0  0  0
   -1.6238    5.0625    0.0000 C   0  0  0  0  0  0  0  0  0  0  0  0
    0.9743    5.0625    0.0000 C   0  0  0  0  0  0  0  0  0  0  0  0
    2.2733    4.3125    0.0000 C   0  0  0  0  0  0  0  0  0  0  0  0
   -5.5209    4.3125    0.0000 C   0  0  0  0  0  0  0  0  0  0  0  0
   -0.3248    4.3125    0.0000 C   0  0  0  0  0  0  0  0  0  0  0  0
    3.5724    5.0625    0.0000 O   0  0  0  0  0  0  0  0  0  0  0  0
  5  4  1  0
  6  4  1  0
  8  7  1  0
  9  1  1  0
  9  2  1  0
  9  5  2  0
 10  3  1  0
 10  6  1  0
 10  7  1  0
 11  8  1  0
M  END
>  <NAME>  (2826) 
CITRONELLOL

>  <SYNONYMS>  (2826) 
3,7-DIMETHYL-6-OCTEN-1-OL

>  <SPECTRUM TYPE>  (2826) 
MS1

>  <INSTRUMENT TYPE>  (2826) 
EI-B

>  <INSTRUMENT>  (2826) 
HITACHI M-80B

>  <ION MODE>  (2826) 
P

>  <INCHIKEY>  (2826) 
QMVPMAAFGQKVCJ-UHFFFAOYSA-N

>  <FORMULA>  (2826) 
C10H20O

>  <EXACT MASS>  (2826) 
156.15141526

>  <MW>  (2826) 
156

>  <ID>  (2826) 
JP008379

>  <CONTRIBUTOR>  (2826) 
University of Tokyo Team, {Faculty of Engineering, University of Tokyo

>  <COMMENT>  (2826) 
SMILES=OCCC(C)CCC=C(C)C
InChI=InChI=1S/C10H20O/c1-9(2)5-4-6-10(3)7-8-11/h5,10-11H,4,6-8H2,1-3H3
computed SMILES=OCCC(C)CCC=C(C)C
accession=JP008379
date=2016.01.19 (Created 2008.10.21, modified 2011.05.06)
author=SODA AROMATIC CO., LTD.
license=CC BY-NC-SA
exact mass=156.15142
ionization energy=70 eV
ion type=[M]+*
computed spectral entropy=3.1947141414158358
computed normalized entropy=0.8297640693039641
SPLASH=splash10-015c-9000000000-9db6e91c321664a95314
submitter=submitter = University of Tokyo Team (Faculty of Engineering, University of Tokyo)
MoNA Rating=3.75

>  <NUM PEAKS>  (2826) 
47

>  <MASS SPECTRAL PEAKS>  (2826) 
15 1.13
27 18.18
28 2.64
29 15.36
31 28.35
39 24.3
40 4.33
41 99.99
42 10.51
43 19.97
44 2.26
45 3.51
51 2.47
52 1.5
53 14.96
54 3.92
55 50.96
56 27.57
57 10.98
65 2.17
66 1.45
67 41.5
68 25.08
69 90.71
70 15.19
71 24.93
72 1.39
77 1.99
79 2.53
80 2.37
81 39.24
82 47.15
83 12.45
84 1.94
85 1.83
86 1.99
91 1
94 1.33
95 33.76
96 8.39
109 13.48
110 4.46
111 1.09
123 19.11
124 1.82
138 6.65
156 7.72

$$$$

     RDKit          2D

 11 11  0  0  1  0  0  0  0  0999 V2000
   -2.5989   -1.5002    0.0000 C   0  0  0  0  0  0  0  0  0  0  0  0
    3.3491    0.2013    0.0000 C   0  0  0  0  0  0  0  0  0  0  0  0
    3.8978    2.2504    0.0000 C   0  0  0  0  0  0  0  0  0  0  0  0
   -1.3000    0.7500    0.0000 C   0  0  0  0  0  0  0  0  0  0  0  0
   -0.0000   -1.5000    0.0000 C   0  0  0  0  0  0  0  0  0  0  0  0
    0.0000    1.5000    0.0000 C   0  0  0  0  0  0  0  0  0  0  0  0
    1.3000   -0.7500    0.0000 C   0  0  0  0  0  0  0  0  0  0  0  0
   -1.3000   -0.7500    0.0000 C   0  0  0  0  0  0  0  0  0  0  0  0
    1.3000    0.7500    0.0000 C   0  0  0  0  0  0  0  0  0  0  0  0
    2.5989    1.5002    0.0000 C   0  0  0  0  0  0  0  0  0  0  0  0
    1.8487    2.7991    0.0000 O   0  0  0  0  0  0  0  0  0  0  0  0
  6  4  1  0
  7  5  1  0
  8  1  1  0
  8  4  2  0
  8  5  1  0
  9  6  1  0
  9  7  1  0
 10  2  1  0
 10  3  1  0
  9 10  1  1
 11 10  1  0
M  END
>  <NAME>  (2827) 
ALPHA-TERPINEOL

>  <SYNONYMS>  (2827) 
ALPHA,ALPHA,4-TRIMETHYL-3-CYCLOHEXENEMETHANOL

>  <SPECTRUM TYPE>  (2827) 
MS1

>  <INSTRUMENT TYPE>  (2827) 
EI-B

>  <INSTRUMENT>  (2827) 
HITACHI M-80B

>  <ION MODE>  (2827) 
P

>  <INCHIKEY>  (2827) 
WUOACPNHFRMFPN-SECBINFHSA-N

>  <FORMULA>  (2827) 
C10H18O

>  <EXACT MASS>  (2827) 
154.135765196

>  <MW>  (2827) 
154

>  <ID>  (2827) 
JP008378

>  <CONTRIBUTOR>  (2827) 
University of Tokyo Team, {Faculty of Engineering, University of Tokyo

>  <COMMENT>  (2827) 
SMILES=CC(C1)=C([H])CC([H])(C1)C(C)(C)O
InChI=InChI=1S/C10H18O/c1-8-4-6-9(7-5-8)10(2,3)11/h4,9,11H,5-7H2,1-3H3/t9-/m1/s1
computed SMILES=OC(C)(C)C1CC=C(C)CC1
accession=JP008378
date=2016.01.19 (Created 2008.10.21, modified 2011.05.06)
author=SODA AROMATIC CO., LTD.
license=CC BY-NC-SA
exact mass=154.13577
ionization energy=70 eV
ion type=[M]+*
computed spectral entropy=3.239272083002898
computed normalized entropy=0.8367615305626327
SPLASH=splash10-052f-9200000000-c699dd9eba0f9966043c
submitter=submitter = University of Tokyo Team (Faculty of Engineering, University of Tokyo)
MoNA Rating=3.75

>  <NUM PEAKS>  (2827) 
48

>  <MASS SPECTRAL PEAKS>  (2827) 
15 1.94
27 11.03
28 2.4
29 7.46
31 9.77
39 15.09
40 3.32
41 23.57
42 2.23
43 43.94
44 1.29
45 2.07
51 4.01
52 1.94
53 12.14
54 5.19
55 15.19
57 1.55
58 1.63
59 99.99
60 3.15
63 1.14
65 4.54
66 1.82
67 18.31
68 13.97
69 4.65
71 10.31
77 10.99
78 2.08
79 16.05
80 6.09
81 35.44
82 2.15
91 7.77
92 16.03
93 55.89
94 7.94
95 14.88
96 6.41
105 2.45
107 6.87
108 3.06
121 52.81
122 5.28
136 43.87
137 5.57
139 7.2

$$$$

     RDKit          2D

 11 10  0  0  0  0  0  0  0  0999 V2000
    3.8971    6.7500    0.0000 C   0  0  0  0  0  0  0  0  0  0  0  0
    2.5981    4.5000    0.0000 C   0  0  0  0  0  0  0  0  0  0  0  0
   -2.5981    4.5000    0.0000 C   0  0  0  0  0  0  0  0  0  0  0  0
    0.0000    6.0000    0.0000 C   0  0  0  0  0  0  0  0  0  0  0  0
    1.2990    6.7500    0.0000 C   0  0  0  0  0  0  0  0  0  0  0  0
   -1.2990    6.7500    0.0000 C   0  0  0  0  0  0  0  0  0  0  0  0
   -3.8971    6.7500    0.0000 C   0  0  0  0  0  0  0  0  0  0  0  0
   -3.8971    8.2500    0.0000 C   0  0  0  0  0  0  0  0  0  0  0  0
    2.5981    6.0000    0.0000 C   0  0  0  0  0  0  0  0  0  0  0  0
   -2.5981    6.0000    0.0000 C   0  0  0  0  0  0  0  0  0  0  0  0
   -5.1962    9.0000    0.0000 O   0  0  0  0  0  0  0  0  0  0  0  0
  5  4  1  0
  6  4  1  0
  8  7  1  0
  9  1  1  0
  9  2  1  0
  9  5  2  0
 10  3  1  0
 10  6  1  0
  7 10  2  0
 11  8  1  0
M  END
>  <NAME>  (2828) 
NEROL

>  <SYNONYMS>  (2828) 
(Z)-3,7-DIMETHYL-2,6-OCTADIEN-1-OL

>  <SPECTRUM TYPE>  (2828) 
MS1

>  <INSTRUMENT TYPE>  (2828) 
EI-B

>  <INSTRUMENT>  (2828) 
HITACHI M-80B

>  <ION MODE>  (2828) 
P

>  <INCHIKEY>  (2828) 
GLZPCOQZEFWAFX-YFHOEESVSA-N

>  <FORMULA>  (2828) 
C10H18O

>  <EXACT MASS>  (2828) 
154.135765196

>  <MW>  (2828) 
154

>  <ID>  (2828) 
JP008377

>  <CONTRIBUTOR>  (2828) 
University of Tokyo Team, {Faculty of Engineering, University of Tokyo

>  <COMMENT>  (2828) 
SMILES=OCC=C(C)CCC=C(C)C
InChI=InChI=1S/C10H18O/c1-9(2)5-4-6-10(3)7-8-11/h5,7,11H,4,6,8H2,1-3H3/b10-7-
computed SMILES=OCC=C(C)CCC=C(C)C
accession=JP008377
date=2016.01.19 (Created 2008.10.21, modified 2011.05.06)
license=CC BY-NC-SA
author=SODA AROMATIC CO., LTD.
exact mass=154.13577
ionization energy=70 eV
ion type=[M]+*
computed spectral entropy=3.0184273801899186
computed normalized entropy=0.7839770555417854
SPLASH=splash10-014l-9000000000-41e0055b618413366b81
submitter=submitter = University of Tokyo Team (Faculty of Engineering, University of Tokyo)
MoNA Rating=3.75

>  <NUM PEAKS>  (2828) 
47

>  <MASS SPECTRAL PEAKS>  (2828) 
18 1.12
27 13.72
28 2.09
29 13.12
31 4.14
39 21.58
40 4.25
41 82.45
42 5.35
43 7.97
51 3.36
52 1.54
53 13.17
54 1.6
55 9.44
56 2.98
57 3.23
59 1.2
65 2.08
67 11.75
68 19.53
69 99.99
70 7.58
71 7.22
77 3.42
79 4.08
80 8.36
81 4.74
82 1.26
83 7.67
84 13.43
85 1.83
91 3.2
92 3.33
93 19.27
94 2.53
95 1.83
96 1.31
97 4.73
98 1.29
107 1.9
111 4.56
121 6.71
123 5.21
136 2.79
139 1.77
154 2.95

$$$$

     RDKit          2D

 11 10  0  0  0  0  0  0  0  0999 V2000
   -7.4695    3.9375    0.0000 C   0  0  0  0  0  0  0  0  0  0  0  0
    1.6238    3.1875    0.0000 C   0  0  0  0  0  0  0  0  0  0  0  0
    0.3248    5.4375    0.0000 C   0  0  0  0  0  0  0  0  0  0  0  0
   -3.9072    5.0866    0.0000 C   0  0  0  0  0  0  0  0  0  0  0  0
   -6.1704    3.1875    0.0000 C   0  0  0  0  0  0  0  0  0  0  0  0
   -2.2733    3.9375    0.0000 C   0  0  0  0  0  0  0  0  0  0  0  0
   -0.9743    3.1875    0.0000 C   0  0  0  0  0  0  0  0  0  0  0  0
   -3.5724    3.1875    0.0000 C   0  0  0  0  0  0  0  0  0  0  0  0
    0.3248    3.9375    0.0000 C   0  0  0  0  0  0  0  0  0  0  0  0
   -4.8714    3.9375    0.0000 C   0  0  0  0  0  0  0  0  0  0  0  0
   -5.8356    5.0866    0.0000 O   0  0  0  0  0  0  0  0  0  0  0  0
  5  1  2  0
  7  6  1  0
  8  6  1  0
  9  2  1  0
  9  3  1  0
  9  7  2  0
 10  4  1  0
 10  5  1  0
 10  8  1  0
 11 10  1  0
M  END
>  <NAME>  (2829) 
LINALOOL

>  <SYNONYMS>  (2829) 
3,7-DIMETHYL-1,6-OCTADIEN-3-OL

>  <SPECTRUM TYPE>  (2829) 
MS1

>  <INSTRUMENT TYPE>  (2829) 
EI-B

>  <INSTRUMENT>  (2829) 
HITACHI M-80B

>  <ION MODE>  (2829) 
P

>  <INCHIKEY>  (2829) 
CDOSHBSSFJOMGT-UHFFFAOYSA-N

>  <FORMULA>  (2829) 
C10H18O

>  <EXACT MASS>  (2829) 
154.135765196

>  <MW>  (2829) 
154

>  <ID>  (2829) 
JP008376

>  <CONTRIBUTOR>  (2829) 
University of Tokyo Team, {Faculty of Engineering, University of Tokyo

>  <COMMENT>  (2829) 
SMILES=CC(C)=CCCC(C)(O)C=C
InChI=InChI=1S/C10H18O/c1-5-10(4,11)8-6-7-9(2)3/h5,7,11H,1,6,8H2,2-4H3
computed SMILES=OC(C=C)(C)CCC=C(C)C
accession=JP008376
date=2016.01.19 (Created 2008.10.21, modified 2011.05.06)
author=SODA AROMATIC CO., LTD.
license=CC BY-NC-SA
exact mass=154.13577
ionization energy=70 eV
ion type=[M]+*
computed spectral entropy=3.290745291720105
computed normalized entropy=0.8139261843895987
SPLASH=splash10-006x-9000000000-fe642a5570c732aea8de
submitter=submitter = University of Tokyo Team (Faculty of Engineering, University of Tokyo)
MoNA Rating=3.75

>  <NUM PEAKS>  (2829) 
57

>  <MASS SPECTRAL PEAKS>  (2829) 
15 2
18 1.15
26 1.04
27 21.16
28 3.01
29 10.19
31 2.24
39 22.09
40 4.97
41 63.43
42 5.86
43 58.84
44 1.63
45 1.58
51 3.62
52 1.45
53 13.41
54 2.5
55 46.66
56 9.02
57 3.48
58 2.51
59 3.42
65 3.06
66 1.17
67 15.88
68 12.86
69 40.64
70 5
71 99.99
72 7.53
77 4.19
79 8.08
80 26.17
81 10.85
82 5.73
83 16.15
84 4.3
85 1.36
86 1.62
91 4.76
92 11.35
93 61.4
94 8.79
95 2.72
96 7.47
97 1.96
105 3.07
107 5.78
108 1.34
109 5.02
111 2.96
121 19.93
122 1.59
136 8.77
137 1.04
139 2.18

$$$$

     RDKit          2D

 11 10  0  0  0  0  0  0  0  0999 V2000
   -6.8200    5.0625    0.0000 C   0  0  0  0  0  0  0  0  0  0  0  0
   -5.5209    2.8125    0.0000 C   0  0  0  0  0  0  0  0  0  0  0  0
   -0.3248    2.8125    0.0000 C   0  0  0  0  0  0  0  0  0  0  0  0
   -2.9228    4.3125    0.0000 C   0  0  0  0  0  0  0  0  0  0  0  0
   -4.2219    5.0625    0.0000 C   0  0  0  0  0  0  0  0  0  0  0  0
   -1.6238    5.0625    0.0000 C   0  0  0  0  0  0  0  0  0  0  0  0
    0.9743    5.0625    0.0000 C   0  0  0  0  0  0  0  0  0  0  0  0
    2.2733    4.3125    0.0000 C   0  0  0  0  0  0  0  0  0  0  0  0
   -5.5209    4.3125    0.0000 C   0  0  0  0  0  0  0  0  0  0  0  0
   -0.3248    4.3125    0.0000 C   0  0  0  0  0  0  0  0  0  0  0  0
    3.5724    5.0625    0.0000 O   0  0  0  0  0  0  0  0  0  0  0  0
  5  4  1  0
  6  4  1  0
  8  7  1  0
  9  1  1  0
  9  2  1  0
  9  5  2  0
 10  3  1  0
 10  6  1  0
  7 10  2  0
 11  8  1  0
M  END
>  <NAME>  (2830) 
GERANIOL

>  <SYNONYMS>  (2830) 
3,7-DIMETHYL-2,6-OCTADIEN-1-OL

>  <SPECTRUM TYPE>  (2830) 
MS1

>  <INSTRUMENT TYPE>  (2830) 
EI-B

>  <INSTRUMENT>  (2830) 
HITACHI M-80B

>  <ION MODE>  (2830) 
P

>  <INCHIKEY>  (2830) 
GLZPCOQZEFWAFX-JXMROGBWSA-N

>  <FORMULA>  (2830) 
C10H18O

>  <EXACT MASS>  (2830) 
154.135765196

>  <MW>  (2830) 
154

>  <ID>  (2830) 
JP008375

>  <CONTRIBUTOR>  (2830) 
University of Tokyo Team, {Faculty of Engineering, University of Tokyo

>  <COMMENT>  (2830) 
SMILES=OCC=C(C)CCC=C(C)C
InChI=InChI=1S/C10H18O/c1-9(2)5-4-6-10(3)7-8-11/h5,7,11H,4,6,8H2,1-3H3/b10-7+
computed SMILES=OCC=C(C)CCC=C(C)C
accession=JP008375
date=2016.01.19 (Created 2008.10.21, modified 2011.05.06)
author=SODA AROMATIC CO., LTD.
license=CC BY-NC-SA
exact mass=154.13577
ionization energy=70 eV
ion type=[M]+*
computed spectral entropy=2.8798416669456572
computed normalized entropy=0.7521837040122125
SPLASH=splash10-014l-9000000000-2bce8c0905dd12aa5dac
submitter=submitter = University of Tokyo Team (Faculty of Engineering, University of Tokyo)
MoNA Rating=3.75

>  <NUM PEAKS>  (2830) 
46

>  <MASS SPECTRAL PEAKS>  (2830) 
18 1.09
27 10.13
28 1.33
29 10.82
31 3.41
39 16.64
40 3.27
41 69.45
42 4.22
43 5.7
51 2.68
52 1.15
53 10.05
54 1.33
55 7.82
56 1.47
57 4.12
59 2.49
65 1.92
66 1
67 9.88
68 19.67
69 99.99
70 8
71 6.66
77 2.36
79 2.52
80 4.01
81 4.16
83 3.7
84 6.5
85 1.53
91 1.71
92 1.59
93 8.67
94 1.3
95 1.37
96 2.25
97 1.29
107 1.29
111 5.04
121 3.55
123 9.19
136 2.89
139 1.3
154 2.34

$$$$

     RDKit          2D

 11 11  0  0  0  0  0  0  0  0999 V2000
   -2.2386    2.7951    0.0000 C   0  0  0  0  0  0  0  0  0  0  0  0
   -3.5376    0.5451    0.0000 C   0  0  0  0  0  0  0  0  0  0  0  0
    2.9576   -1.7049    0.0000 C   0  0  0  0  0  0  0  0  0  0  0  0
    0.3590   -1.7058    0.0000 C   0  0  0  0  0  0  0  0  0  0  0  0
   -0.9400   -0.9558    0.0000 C   0  0  0  0  0  0  0  0  0  0  0  0
    0.3600    1.2959    0.0000 C   0  0  0  0  0  0  0  0  0  0  0  0
   -2.2386    1.2951    0.0000 C   0  0  0  0  0  0  0  0  0  0  0  0
    1.6585   -0.9549    0.0000 C   0  0  0  0  0  0  0  0  0  0  0  0
   -0.9395    0.5451    0.0000 C   0  0  0  0  0  0  0  0  0  0  0  0
    1.6590    0.5459    0.0000 C   0  0  0  0  0  0  0  0  0  0  0  0
    2.9582    1.2957    0.0000 O   0  0  0  0  0  0  0  0  0  0  0  0
  5  4  1  0
  7  1  2  0
  7  2  1  0
  8  3  1  0
  8  4  1  0
  9  5  1  0
  9  6  1  0
  9  7  1  0
 10  6  1  0
 10  8  1  0
 11 10  1  0
M  END
>  <NAME>  (2831) 
DIHYDROCARVEOL

>  <SYNONYMS>  (2831) 
2-METHYL-5-(1-METHYLETHENYL)CYCLOHEXANOL

>  <SPECTRUM TYPE>  (2831) 
MS1

>  <INSTRUMENT TYPE>  (2831) 
EI-B

>  <INSTRUMENT>  (2831) 
HITACHI M-80B

>  <ION MODE>  (2831) 
P

>  <INCHIKEY>  (2831) 
KRCZYMFUWVJCLI-UHFFFAOYSA-N

>  <FORMULA>  (2831) 
C10H18O

>  <EXACT MASS>  (2831) 
154.135765196

>  <MW>  (2831) 
154

>  <ID>  (2831) 
JP008374

>  <CONTRIBUTOR>  (2831) 
University of Tokyo Team, {Faculty of Engineering, University of Tokyo

>  <COMMENT>  (2831) 
SMILES=CC(=C)C(C1)CC(O)C(C)C1
InChI=InChI=1S/C10H18O/c1-7(2)9-5-4-8(3)10(11)6-9/h8-11H,1,4-6H2,2-3H3
computed SMILES=OC1CC(C(=C)C)CCC1C
accession=JP008374
date=2016.01.19 (Created 2008.10.21, modified 2011.05.06)
author=SODA AROMATIC CO., LTD.
license=CC BY-NC-SA
exact mass=154.13577
ionization energy=70 eV
ion type=[M]+*
computed spectral entropy=3.7040115003647482
computed normalized entropy=0.8748035733969018
SPLASH=splash10-052o-9200000000-7be55af7aad2302f936a
submitter=submitter = University of Tokyo Team (Faculty of Engineering, University of Tokyo)
MoNA Rating=3.75

>  <NUM PEAKS>  (2831) 
69

>  <MASS SPECTRAL PEAKS>  (2831) 
15 2.61
26 1.31
27 36.05
28 4.59
29 34.83
30 1.9
31 7.69
38 1.55
39 58.81
40 12.6
41 99.99
42 13.17
43 60.97
44 7.58
45 5.82
50 1.97
51 6.75
52 4.25
53 37.38
54 7.12
55 65.16
56 19.45
57 23.13
58 23.52
59 6.67
63 2.36
65 7.72
66 5.59
67 57.53
68 58.54
69 55.62
70 25.57
71 25.28
72 11.52
77 13.9
78 2.94
79 56.7
80 19.55
81 75.06
82 25
83 23.67
84 16.77
85 3.51
91 11.49
92 29.13
93 89.54
94 45.47
95 30.51
96 19.55
97 37.29
98 5.66
99 1.52
105 3.45
106 1.29
107 78.01
108 17.94
109 3.52
110 4.05
111 19.1
112 2.86
121 78.28
122 6.83
123 2.75
125 1.16
135 1.28
136 67.67
137 7.01
139 3.85
154 2.72

$$$$

     RDKit          2D

 12 12  0  0  0  0  0  0  0  0999 V2000
   -5.5207    3.1321    0.0000 C   0  0  0  0  0  0  0  0  0  0  0  0
   -4.2216    2.3821    0.0000 C   0  0  0  0  0  0  0  0  0  0  0  0
    3.5726    0.8821    0.0000 C   0  0  0  0  0  0  0  0  0  0  0  0
    3.5731    2.3829    0.0000 C   0  0  0  0  0  0  0  0  0  0  0  0
    2.2731    0.1313    0.0000 C   0  0  0  0  0  0  0  0  0  0  0  0
    2.2740    3.1329    0.0000 C   0  0  0  0  0  0  0  0  0  0  0  0
    0.9740    0.8813    0.0000 C   0  0  0  0  0  0  0  0  0  0  0  0
   -0.3245    3.1321    0.0000 C   0  0  0  0  0  0  0  0  0  0  0  0
    0.9745    2.3821    0.0000 C   0  0  0  0  0  0  0  0  0  0  0  0
   -2.9226    3.1321    0.0000 C   0  0  0  0  0  0  0  0  0  0  0  0
   -2.9226    4.6321    0.0000 O   0  0  0  0  0  0  0  0  0  0  0  0
   -1.6236    2.3821    0.0000 O   0  0  0  0  0  0  0  0  0  0  0  0
  2  1  1  0
  4  3  2  0
  5  3  1  0
  6  4  1  0
  7  5  2  0
  9  6  2  0
  9  7  1  0
  9  8  1  0
 10  2  1  0
 11 10  2  0
 12  8  1  0
 12 10  1  0
M  END
>  <NAME>  (2832) 
BENZYL PROPIONATE

>  <SYNONYMS>  (2832) 


>  <SPECTRUM TYPE>  (2832) 
MS1

>  <INSTRUMENT TYPE>  (2832) 
EI-B

>  <INSTRUMENT>  (2832) 
HITACHI M-80B

>  <ION MODE>  (2832) 
P

>  <INCHIKEY>  (2832) 
VHOMAPWVLKRQAZ-UHFFFAOYSA-N

>  <FORMULA>  (2832) 
C10H12O2

>  <EXACT MASS>  (2832) 
164.083729624

>  <MW>  (2832) 
164

>  <ID>  (2832) 
JP008373

>  <CONTRIBUTOR>  (2832) 
University of Tokyo Team, {Faculty of Engineering, University of Tokyo

>  <COMMENT>  (2832) 
SMILES=CCC(=O)OCc(c1)cccc1
InChI=InChI=1S/C10H12O2/c1-2-10(11)12-8-9-6-4-3-5-7-9/h3-7H,2,8H2,1H3
computed SMILES=O=C(OCC=1C=CC=CC1)CC
accession=JP008373
date=2016.01.19 (Created 2008.10.21, modified 2011.05.06)
author=SODA AROMATIC CO., LTD.
license=CC BY-NC-SA
exact mass=164.08373
ionization energy=70 eV
ion type=[M]+*
computed spectral entropy=2.6738509675173256
computed normalized entropy=0.786149895896551
SPLASH=splash10-054o-9300000000-a80032bb114fcc1ab469
submitter=submitter = University of Tokyo Team (Faculty of Engineering, University of Tokyo)
MoNA Rating=3.75

>  <NUM PEAKS>  (2832) 
30

>  <MASS SPECTRAL PEAKS>  (2832) 
26 2.2
27 13.57
28 2.06
29 30.91
38 1.26
39 10.94
41 2.25
50 4.36
51 12.31
52 2.56
57 40.82
58 1.27
62 1.34
63 5.74
64 1.75
65 17.69
77 14.3
78 2.92
79 14.25
80 1.04
89 8.18
90 23.98
91 99.99
92 7.52
105 3.21
107 9.93
108 79.65
109 5.96
164 24.75
165 2.44

$$$$

     RDKit          2D

 13 13  0  0  0  0  0  0  0  0999 V2000
   -6.8197    3.1321    0.0000 C   0  0  0  0  0  0  0  0  0  0  0  0
   -5.5207    3.8821    0.0000 C   0  0  0  0  0  0  0  0  0  0  0  0
    3.5726    1.6321    0.0000 C   0  0  0  0  0  0  0  0  0  0  0  0
    3.5731    3.1329    0.0000 C   0  0  0  0  0  0  0  0  0  0  0  0
    2.2731    0.8813    0.0000 C   0  0  0  0  0  0  0  0  0  0  0  0
    2.2740    3.8829    0.0000 C   0  0  0  0  0  0  0  0  0  0  0  0
    0.9740    1.6313    0.0000 C   0  0  0  0  0  0  0  0  0  0  0  0
   -0.3245    3.8821    0.0000 C   0  0  0  0  0  0  0  0  0  0  0  0
   -1.6236    3.1321    0.0000 C   0  0  0  0  0  0  0  0  0  0  0  0
    0.9745    3.1321    0.0000 C   0  0  0  0  0  0  0  0  0  0  0  0
   -4.2216    3.1321    0.0000 C   0  0  0  0  0  0  0  0  0  0  0  0
   -4.2216    1.6321    0.0000 O   0  0  0  0  0  0  0  0  0  0  0  0
   -2.9226    3.8821    0.0000 O   0  0  0  0  0  0  0  0  0  0  0  0
  2  1  1  0
  4  3  2  0
  5  3  1  0
  6  4  1  0
  7  5  2  0
  9  8  1  0
 10  6  2  0
 10  7  1  0
 10  8  1  0
 11  2  1  0
 12 11  2  0
 13  9  1  0
 13 11  1  0
M  END
>  <NAME>  (2833) 
PHENYLETHYL PROPIONATE

>  <SYNONYMS>  (2833) 
2-PHENYLETHYL PROPIONATE

>  <SPECTRUM TYPE>  (2833) 
MS1

>  <INSTRUMENT TYPE>  (2833) 
EI-B

>  <INSTRUMENT>  (2833) 
HITACHI M-80B

>  <ION MODE>  (2833) 
P

>  <INCHIKEY>  (2833) 
HVGZQCSMLUDISR-UHFFFAOYSA-N

>  <FORMULA>  (2833) 
C11H14O2

>  <EXACT MASS>  (2833) 
178.099379688

>  <MW>  (2833) 
178

>  <ID>  (2833) 
JP008372

>  <CONTRIBUTOR>  (2833) 
University of Tokyo Team, {Faculty of Engineering, University of Tokyo

>  <COMMENT>  (2833) 
SMILES=CCC(=O)OCCc(c1)cccc1
InChI=InChI=1S/C11H14O2/c1-2-11(12)13-9-8-10-6-4-3-5-7-10/h3-7H,2,8-9H2,1H3
computed SMILES=O=C(OCCC=1C=CC=CC1)CC
accession=JP008372
date=2016.01.19 (Created 2008.10.21, modified 2011.05.06)
author=SODA AROMATIC CO., LTD.
license=CC BY-NC-SA
exact mass=178.09938
ionization energy=70 eV
ion type=[M]+*
computed spectral entropy=2.0916531106921488
computed normalized entropy=0.6870217426468391
SPLASH=splash10-0zfr-9800000000-234d53df7898caf22a51
submitter=submitter = University of Tokyo Team (Faculty of Engineering, University of Tokyo)
MoNA Rating=3.75

>  <NUM PEAKS>  (2833) 
21

>  <MASS SPECTRAL PEAKS>  (2833) 
26 1.02
27 7.88
28 2.07
29 23.89
39 3.36
50 1.25
51 4.65
52 1.11
57 48.76
58 1.62
63 2.01
65 5.88
77 7
78 4.55
79 2.91
89 1.51
91 11.77
92 1.42
103 5.29
104 99.99
105 15.72

$$$$

     RDKit          2D

 12 14  0  0  0  0  0  0  0  0999 V2000
   -0.8896    2.5493    0.0000 C   0  0  0  0  0  0  0  0  0  0  0  0
    1.3372   -3.5103    0.0000 C   0  0  0  0  0  0  0  0  0  0  0  0
   -1.4400   -1.0000    0.0000 C   0  0  0  0  0  0  0  0  0  0  0  0
   -1.4400    0.5000    0.0000 C   0  0  0  0  0  0  0  0  0  0  0  0
    1.1600   -1.0000    0.0000 C   0  0  0  0  0  0  0  0  0  0  0  0
   -1.6172   -3.5103    0.0000 C   0  0  0  0  0  0  0  0  0  0  0  0
   -0.1400   -1.7500    0.0000 C   0  0  0  0  0  0  0  0  0  0  0  0
    1.1600    0.5000    0.0000 C   0  0  0  0  0  0  0  0  0  0  0  0
   -0.1400    1.2500    0.0000 C   0  0  0  0  0  0  0  0  0  0  0  0
   -0.1400   -3.2500    0.0000 C   0  0  0  0  0  0  0  0  0  0  0  0
   -0.6530   -4.6604    0.0000 O   0  0  0  0  0  0  0  0  0  0  0  0
    1.1600    2.0000    0.0000 O   0  0  0  0  0  0  0  0  0  0  0  0
  4  3  1  0
  7  3  1  0
  7  5  1  0
  8  5  1  0
  9  1  1  0
  9  4  1  0
  9  8  1  0
 10  2  1  0
 10  6  1  0
 10  7  1  0
 11  6  1  0
 11 10  1  0
 12  8  1  0
 12  9  1  0
M  END
>  <NAME>  (2834) 
LIMONENE DIOXIDE

>  <SYNONYMS>  (2834) 
1,2-EPOXY-4-(1,2-EPOXY-1-METHYLETHYL)-1-METHYLCYCLOHEXANE

>  <SPECTRUM TYPE>  (2834) 
MS1

>  <INSTRUMENT TYPE>  (2834) 
EI-B

>  <INSTRUMENT>  (2834) 
HITACHI M-80B

>  <ION MODE>  (2834) 
P

>  <INCHIKEY>  (2834) 
RBHIUNHSNSQJNG-UHFFFAOYSA-N

>  <FORMULA>  (2834) 
C10H16O2

>  <EXACT MASS>  (2834) 
168.115029752

>  <MW>  (2834) 
168

>  <ID>  (2834) 
JP008371

>  <CONTRIBUTOR>  (2834) 
University of Tokyo Team, {Faculty of Engineering, University of Tokyo

>  <COMMENT>  (2834) 
SMILES=CC(C3)(O3)C(C2)CC(O1)C(C)(C2)1
InChI=InChI=1S/C10H16O2/c1-9-4-3-7(5-8(9)12-9)10(2)6-11-10/h7-8H,3-6H2,1-2H3
computed SMILES=O1CC1(C)C2CCC3(OC3C2)C
accession=JP008371
date=2016.01.19 (Created 2008.10.21, modified 2011.05.06)
author=SODA AROMATIC CO., LTD.
license=CC BY-NC-SA
exact mass=168.11503
ionization energy=70 eV
ion type=[M]+*
computed spectral entropy=3.4336197219022155
computed normalized entropy=0.8492644526225004
SPLASH=splash10-0006-9100000000-a2af02d90ccc82b85c88
submitter=submitter = University of Tokyo Team (Faculty of Engineering, University of Tokyo)
MoNA Rating=3.75

>  <NUM PEAKS>  (2834) 
57

>  <MASS SPECTRAL PEAKS>  (2834) 
14 1.23
15 2.67
27 13.82
29 10.81
31 2.64
39 14.79
40 1.27
41 20.41
42 2.74
43 99.99
44 4.97
45 3.68
51 2.53
53 9.25
54 3.1
55 16.92
56 2.07
57 4.81
58 8.15
59 2.22
65 2.48
66 1.43
67 16.86
68 4.13
69 7.42
70 1.97
71 8.31
77 5.37
79 11
80 4.1
81 9.85
82 10.65
83 8.85
84 3.65
85 3.46
91 5.38
92 6.47
93 13.67
94 6.87
95 21.45
96 2.22
97 6.52
98 1.9
105 3.02
106 1.13
107 16.07
108 4.22
109 5.74
110 4.13
111 4.12
121 2.95
122 1.51
123 7.77
125 2.47
135 1.45
137 2.34
138 1.92

$$$$

     RDKit          2D

 12 14  0  0  0  0  0  0  0  0999 V2000
   -0.8896    2.5493    0.0000 C   0  0  0  0  0  0  0  0  0  0  0  0
    1.3372   -3.5103    0.0000 C   0  0  0  0  0  0  0  0  0  0  0  0
   -1.4400   -1.0000    0.0000 C   0  0  0  0  0  0  0  0  0  0  0  0
   -1.4400    0.5000    0.0000 C   0  0  0  0  0  0  0  0  0  0  0  0
    1.1600   -1.0000    0.0000 C   0  0  0  0  0  0  0  0  0  0  0  0
   -1.6172   -3.5103    0.0000 C   0  0  0  0  0  0  0  0  0  0  0  0
   -0.1400   -1.7500    0.0000 C   0  0  0  0  0  0  0  0  0  0  0  0
    1.1600    0.5000    0.0000 C   0  0  0  0  0  0  0  0  0  0  0  0
   -0.1400    1.2500    0.0000 C   0  0  0  0  0  0  0  0  0  0  0  0
   -0.1400   -3.2500    0.0000 C   0  0  0  0  0  0  0  0  0  0  0  0
   -0.6530   -4.6604    0.0000 O   0  0  0  0  0  0  0  0  0  0  0  0
    1.1600    2.0000    0.0000 O   0  0  0  0  0  0  0  0  0  0  0  0
  4  3  1  0
  7  3  1  0
  7  5  1  0
  8  5  1  0
  9  1  1  0
  9  4  1  0
  9  8  1  0
 10  2  1  0
 10  6  1  0
 10  7  1  0
 11  6  1  0
 11 10  1  0
 12  8  1  0
 12  9  1  0
M  END
>  <NAME>  (2835) 
LIMONENE DIOXIDE

>  <SYNONYMS>  (2835) 
1,2-EPOXY-4-(1,2-EPOXY-1-METHYLETHYL)-1-METHYLCYCLOHEXANE

>  <SPECTRUM TYPE>  (2835) 
MS1

>  <INSTRUMENT TYPE>  (2835) 
EI-B

>  <INSTRUMENT>  (2835) 
HITACHI M-80B

>  <ION MODE>  (2835) 
P

>  <INCHIKEY>  (2835) 
RBHIUNHSNSQJNG-UHFFFAOYSA-N

>  <FORMULA>  (2835) 
C10H16O2

>  <EXACT MASS>  (2835) 
168.115029752

>  <MW>  (2835) 
168

>  <ID>  (2835) 
JP008370

>  <CONTRIBUTOR>  (2835) 
University of Tokyo Team, {Faculty of Engineering, University of Tokyo

>  <COMMENT>  (2835) 
SMILES=CC(C3)(O3)C(C2)CC(O1)C(C)(C2)1
InChI=InChI=1S/C10H16O2/c1-9-4-3-7(5-8(9)12-9)10(2)6-11-10/h7-8H,3-6H2,1-2H3
computed SMILES=O1CC1(C)C2CCC3(OC3C2)C
accession=JP008370
date=2016.01.19 (Created 2008.10.21, modified 2011.05.06)
author=SODA AROMATIC CO., LTD.
license=CC BY-NC-SA
exact mass=168.11503
ionization energy=70 eV
ion type=[M]+*
computed spectral entropy=3.4573576357103186
computed normalized entropy=0.8514730108833759
SPLASH=splash10-0006-9100000000-29147d8387e69b7563c4
submitter=submitter = University of Tokyo Team (Faculty of Engineering, University of Tokyo)
MoNA Rating=3.75

>  <NUM PEAKS>  (2835) 
58

>  <MASS SPECTRAL PEAKS>  (2835) 
15 2.87
27 14.93
29 10.58
31 2.38
39 15.08
40 1.49
41 25.25
42 2.96
43 99.99
44 4.98
45 2.77
51 2.31
52 1.3
53 9.29
54 3.93
55 17.58
56 2.47
57 4.91
58 9.63
59 2.78
65 2.84
66 1.58
67 17.11
68 4.39
69 9.49
70 2
71 10.83
72 1.64
77 4.6
79 10.27
80 2.95
81 9.35
82 11.36
83 8.45
84 3
85 3.79
91 5.36
92 6.44
93 10.07
94 2.49
95 13.28
96 2.3
97 10.01
98 3
105 2.84
106 1.85
107 14.49
108 4.26
109 6.86
110 4.3
111 5.44
121 3.69
123 5.11
125 3.68
135 2.93
137 1.16
139 1.14
153 2.45

$$$$

     RDKit          2D

 17 16  0  0  0  0  0  0  0  0999 V2000
    3.2476    5.6250    0.0000 C   0  0  0  0  0  0  0  0  0  0  0  0
   -3.6987    8.9336    0.0000 C   0  0  0  0  0  0  0  0  0  0  0  0
   -9.7428    5.6250    0.0000 C   0  0  0  0  0  0  0  0  0  0  0  0
   -8.4437    7.8750    0.0000 C   0  0  0  0  0  0  0  0  0  0  0  0
    0.6495    4.1250    0.0000 C   0  0  0  0  0  0  0  0  0  0  0  0
   -2.2834    7.5241    0.0000 C   0  0  0  0  0  0  0  0  0  0  0  0
    1.9486    6.3750    0.0000 C   0  0  0  0  0  0  0  0  0  0  0  0
   -4.2118    7.5241    0.0000 C   0  0  0  0  0  0  0  0  0  0  0  0
   -5.8457    6.3750    0.0000 C   0  0  0  0  0  0  0  0  0  0  0  0
   -7.1447    5.6250    0.0000 C   0  0  0  0  0  0  0  0  0  0  0  0
   -4.5466    5.6250    0.0000 C   0  0  0  0  0  0  0  0  0  0  0  0
   -8.4437    6.3750    0.0000 C   0  0  0  0  0  0  0  0  0  0  0  0
    0.6495    5.6250    0.0000 C   0  0  0  0  0  0  0  0  0  0  0  0
   -0.6495    6.3750    0.0000 C   0  0  0  0  0  0  0  0  0  0  0  0
   -3.2476    6.3750    0.0000 C   0  0  0  0  0  0  0  0  0  0  0  0
   -0.6495    7.8750    0.0000 O   0  0  0  0  0  0  0  0  0  0  0  0
   -1.9486    5.6250    0.0000 O   0  0  0  0  0  0  0  0  0  0  0  0
  7  1  1  0
  8  2  2  0
 10  9  1  0
 11  9  1  0
 12  3  1  0
 12  4  1  0
 12 10  2  0
 13  5  1  0
 13  7  1  0
 14 13  1  0
 15  6  1  0
 15  8  1  0
 15 11  1  0
 16 14  2  0
 17 14  1  0
 17 15  1  0
M  END
>  <NAME>  (2836) 
LINALYL METHYL-ETHYL-ACETATE

>  <SYNONYMS>  (2836) 
LINALYL 2-METHYLBUTYRATE

>  <SPECTRUM TYPE>  (2836) 
MS1

>  <INSTRUMENT TYPE>  (2836) 
EI-B

>  <INSTRUMENT>  (2836) 
HITACHI M-80B

>  <ION MODE>  (2836) 
P

>  <INCHIKEY>  (2836) 
MLJNGBGMEMFTPV-UHFFFAOYSA-N

>  <FORMULA>  (2836) 
C15H26O2

>  <EXACT MASS>  (2836) 
238.193280072

>  <MW>  (2836) 
238

>  <ID>  (2836) 
JP008367

>  <CONTRIBUTOR>  (2836) 
University of Tokyo Team, {Faculty of Engineering, University of Tokyo

>  <COMMENT>  (2836) 
SMILES=CCC(C)C(=O)OC(C)(C=C)CCC=C(C)C
InChI=InChI=1S/C15H26O2/c1-7-13(5)14(16)17-15(6,8-2)11-9-10-12(3)4/h8,10,13H,2,7,9,11H2,1,3-6H3
computed SMILES=O=C(OC(C=C)(C)CCC=C(C)C)C(C)CC
accession=JP008367
date=2016.01.19 (Created 2008.10.21, modified 2011.05.06)
author=SODA AROMATIC CO., LTD.
license=CC BY-NC-SA
exact mass=238.19328
ionization energy=70 eV
ion type=[M]+*
computed spectral entropy=3.0423790456674027
computed normalized entropy=0.8247434169404644
SPLASH=splash10-0006-9100000000-db21b3ad039496813d95
submitter=submitter = University of Tokyo Team (Faculty of Engineering, University of Tokyo)
MoNA Rating=3.75

>  <NUM PEAKS>  (2836) 
40

>  <MASS SPECTRAL PEAKS>  (2836) 
27 6.71
29 14.61
39 7.51
40 2.41
41 41.79
42 2.66
43 9.02
53 8.33
55 11.28
56 1.63
57 51.26
58 2.38
65 1.15
67 10.69
68 12.12
69 42.23
70 2.65
71 4.19
77 3.21
79 6.17
80 44.6
81 24.29
82 2.85
83 3.83
85 17.84
91 3.94
92 17.35
93 99.99
94 12.65
95 4.56
105 2.77
107 7.73
108 2.19
109 1.15
121 33.7
122 3.46
136 13.51
137 7.51
154 1.09
238 1.17

$$$$

     RDKit          2D

 17 16  0  0  0  0  0  0  0  0999 V2000
    3.8971    6.7500    0.0000 C   0  0  0  0  0  0  0  0  0  0  0  0
  -11.6913    6.7500    0.0000 C   0  0  0  0  0  0  0  0  0  0  0  0
  -10.3923    9.0000    0.0000 C   0  0  0  0  0  0  0  0  0  0  0  0
   -5.1962    9.0000    0.0000 C   0  0  0  0  0  0  0  0  0  0  0  0
    1.2990    5.2500    0.0000 C   0  0  0  0  0  0  0  0  0  0  0  0
    2.5981    7.5000    0.0000 C   0  0  0  0  0  0  0  0  0  0  0  0
   -7.7942    7.5000    0.0000 C   0  0  0  0  0  0  0  0  0  0  0  0
   -9.0933    6.7500    0.0000 C   0  0  0  0  0  0  0  0  0  0  0  0
   -6.4952    6.7500    0.0000 C   0  0  0  0  0  0  0  0  0  0  0  0
   -3.8971    6.7500    0.0000 C   0  0  0  0  0  0  0  0  0  0  0  0
   -2.5981    7.5000    0.0000 C   0  0  0  0  0  0  0  0  0  0  0  0
  -10.3923    7.5000    0.0000 C   0  0  0  0  0  0  0  0  0  0  0  0
   -5.1962    7.5000    0.0000 C   0  0  0  0  0  0  0  0  0  0  0  0
    1.2990    6.7500    0.0000 C   0  0  0  0  0  0  0  0  0  0  0  0
    0.0000    7.5000    0.0000 C   0  0  0  0  0  0  0  0  0  0  0  0
    0.0000    9.0000    0.0000 O   0  0  0  0  0  0  0  0  0  0  0  0
   -1.2990    6.7500    0.0000 O   0  0  0  0  0  0  0  0  0  0  0  0
  6  1  1  0
  8  7  1  0
  9  7  1  0
 11 10  1  0
 12  2  1  0
 12  3  1  0
 12  8  2  0
 13  4  1  0
 13  9  1  0
 10 13  2  0
 14  5  1  0
 14  6  1  0
 15 14  1  0
 16 15  2  0
 17 11  1  0
 17 15  1  0
M  END
>  <NAME>  (2837) 
GERANYL METHYL-ETHYL-ACETATE

>  <SYNONYMS>  (2837) 
GERANYL 2-METHYLBUTYRATE

>  <SPECTRUM TYPE>  (2837) 
MS1

>  <INSTRUMENT TYPE>  (2837) 
EI-B

>  <INSTRUMENT>  (2837) 
HITACHI M-80B

>  <ION MODE>  (2837) 
P

>  <INCHIKEY>  (2837) 
PEQMAZJTEUEQJP-JLHYYAGUSA-N

>  <FORMULA>  (2837) 
C15H26O2

>  <EXACT MASS>  (2837) 
238.193280072

>  <MW>  (2837) 
238

>  <ID>  (2837) 
JP008366

>  <CONTRIBUTOR>  (2837) 
University of Tokyo Team, {Faculty of Engineering, University of Tokyo

>  <COMMENT>  (2837) 
SMILES=CCC(C)C(=O)OCC=C(C)CCC=C(C)C
InChI=InChI=1S/C15H26O2/c1-6-14(5)15(16)17-11-10-13(4)9-7-8-12(2)3/h8,10,14H,6-7,9,11H2,1-5H3/b13-10+
computed SMILES=O=C(OCC=C(C)CCC=C(C)C)C(C)CC
accession=JP008366
date=2016.01.19 (Created 2008.10.21, modified 2011.05.06)
author=SODA AROMATIC CO., LTD.
license=CC BY-NC-SA
exact mass=238.19328
ionization energy=70 eV
ion type=[M]+*
computed spectral entropy=2.914069915743892
computed normalized entropy=0.7847080555865038
SPLASH=splash10-014l-9100000000-34aeff53314662035675
submitter=submitter = University of Tokyo Team (Faculty of Engineering, University of Tokyo)
MoNA Rating=3.75

>  <NUM PEAKS>  (2837) 
41

>  <MASS SPECTRAL PEAKS>  (2837) 
27 5.2
29 14.16
39 7.26
40 1.9
41 48.65
42 2.37
43 3.69
53 8.57
55 6.02
56 1.53
57 65.29
58 2.53
65 1.4
66 1.1
67 12.66
68 51.2
69 99.99
70 5.34
77 1.73
79 3.82
80 19.87
81 11.73
82 1.19
84 1.24
85 28.25
86 1.44
91 1.69
92 9.71
93 41.26
94 7.46
95 2.95
96 1.14
107 7.33
108 2.38
121 22.33
122 2.03
123 2.57
136 20.71
137 4.03
154 1.58
169 1.67

$$$$

     RDKit          2D

 15 14  0  0  0  0  0  0  0  0999 V2000
    2.9228    5.4375    0.0000 C   0  0  0  0  0  0  0  0  0  0  0  0
   -4.4202    2.8789    0.0000 C   0  0  0  0  0  0  0  0  0  0  0  0
    0.3248    3.9375    0.0000 C   0  0  0  0  0  0  0  0  0  0  0  0
   -8.7685    6.1875    0.0000 C   0  0  0  0  0  0  0  0  0  0  0  0
   -5.8356    4.2884    0.0000 C   0  0  0  0  0  0  0  0  0  0  0  0
    1.6238    6.1875    0.0000 C   0  0  0  0  0  0  0  0  0  0  0  0
   -3.9072    4.2884    0.0000 C   0  0  0  0  0  0  0  0  0  0  0  0
   -2.2733    5.4375    0.0000 C   0  0  0  0  0  0  0  0  0  0  0  0
   -0.9743    6.1875    0.0000 C   0  0  0  0  0  0  0  0  0  0  0  0
   -3.5724    6.1875    0.0000 C   0  0  0  0  0  0  0  0  0  0  0  0
    0.3248    5.4375    0.0000 C   0  0  0  0  0  0  0  0  0  0  0  0
   -7.4695    5.4375    0.0000 C   0  0  0  0  0  0  0  0  0  0  0  0
   -4.8714    5.4375    0.0000 C   0  0  0  0  0  0  0  0  0  0  0  0
   -7.4695    3.9375    0.0000 O   0  0  0  0  0  0  0  0  0  0  0  0
   -6.1704    6.1875    0.0000 O   0  0  0  0  0  0  0  0  0  0  0  0
  6  1  1  0
  7  2  2  0
  9  8  1  0
 10  8  1  0
 11  3  1  0
 11  6  1  0
  9 11  2  0
 12  4  1  0
 13  5  1  0
 13  7  1  0
 13 10  1  0
 14 12  2  0
 15 12  1  0
 15 13  1  0
M  END
>  <NAME>  (2838) 
TRANS-ETHYL-LINALYL ACETATE

>  <SYNONYMS>  (2838) 
1,5-DIMETHYL-1-VINYL-(E)-4-HEPTENYL ACETATE

>  <SPECTRUM TYPE>  (2838) 
MS1

>  <INSTRUMENT TYPE>  (2838) 
EI-B

>  <INSTRUMENT>  (2838) 
HITACHI M-80B

>  <ION MODE>  (2838) 
P

>  <INCHIKEY>  (2838) 
IVSZEHYDOLAREK-PKNBQFBNSA-N

>  <FORMULA>  (2838) 
C13H22O2

>  <EXACT MASS>  (2838) 
210.161979944

>  <MW>  (2838) 
210

>  <ID>  (2838) 
JP008365

>  <CONTRIBUTOR>  (2838) 
University of Tokyo Team, {Faculty of Engineering, University of Tokyo

>  <COMMENT>  (2838) 
SMILES=CCC(C)=C([H])CCC(C)(C=C)OC(C)=O
InChI=InChI=1S/C13H22O2/c1-6-11(3)9-8-10-13(5,7-2)15-12(4)14/h7,9H,2,6,8,10H2,1,3-5H3/b11-9+
computed SMILES=O=C(OC(C=C)(C)CCC=C(C)CC)C
date=2016.01.19 (Created 2008.10.21, modified 2011.05.06)
author=SODA AROMATIC CO., LTD.
accession=JP008365
license=CC BY-NC-SA
exact mass=210.16198
ionization energy=70 eV
ion type=[M]+*
computed spectral entropy=3.1775653209628087
computed normalized entropy=0.7965851163781055
SPLASH=splash10-0006-9100000000-673e6d4b2c96c5938675
submitter=submitter = University of Tokyo Team (Faculty of Engineering, University of Tokyo)
MoNA Rating=3.75

>  <NUM PEAKS>  (2838) 
54

>  <MASS SPECTRAL PEAKS>  (2838) 
15 1.95
27 8.02
29 8.86
39 8.25
40 2.29
41 27.57
42 3.23
43 66.53
44 1.64
45 1.25
51 1.39
52 1.52
53 8.16
54 2.13
55 48.59
56 2.73
57 4.72
65 1.95
66 1.3
67 14.85
68 6.2
69 4.52
70 1.16
71 14.67
72 2.29
77 4.64
79 12.6
80 44.73
81 13.06
82 10.16
83 10.88
84 1.58
85 1.17
91 4.77
92 14.34
93 99.99
94 12.25
95 8.82
96 1.88
97 2.37
105 3.35
106 1.36
107 8.12
108 2.01
109 1.66
113 1.38
119 1.28
121 36.27
122 4.05
123 1.72
135 6.27
150 7.83
151 1.88
153 1.14

$$$$

     RDKit          2D

 15 14  0  0  0  0  0  0  0  0999 V2000
    1.6238    3.1875    0.0000 C   0  0  0  0  0  0  0  0  0  0  0  0
   -4.4202    2.8789    0.0000 C   0  0  0  0  0  0  0  0  0  0  0  0
    1.6238    6.1875    0.0000 C   0  0  0  0  0  0  0  0  0  0  0  0
   -8.7685    6.1875    0.0000 C   0  0  0  0  0  0  0  0  0  0  0  0
   -5.8356    4.2884    0.0000 C   0  0  0  0  0  0  0  0  0  0  0  0
    0.3248    3.9375    0.0000 C   0  0  0  0  0  0  0  0  0  0  0  0
   -3.9072    4.2884    0.0000 C   0  0  0  0  0  0  0  0  0  0  0  0
   -2.2733    5.4375    0.0000 C   0  0  0  0  0  0  0  0  0  0  0  0
   -0.9743    6.1875    0.0000 C   0  0  0  0  0  0  0  0  0  0  0  0
   -3.5724    6.1875    0.0000 C   0  0  0  0  0  0  0  0  0  0  0  0
    0.3248    5.4375    0.0000 C   0  0  0  0  0  0  0  0  0  0  0  0
   -7.4695    5.4375    0.0000 C   0  0  0  0  0  0  0  0  0  0  0  0
   -4.8714    5.4375    0.0000 C   0  0  0  0  0  0  0  0  0  0  0  0
   -7.4695    3.9375    0.0000 O   0  0  0  0  0  0  0  0  0  0  0  0
   -6.1704    6.1875    0.0000 O   0  0  0  0  0  0  0  0  0  0  0  0
  6  1  1  0
  7  2  2  0
  9  8  1  0
 10  8  1  0
 11  3  1  0
 11  6  1  0
  9 11  2  0
 12  4  1  0
 13  5  1  0
 13  7  1  0
 13 10  1  0
 14 12  2  0
 15 12  1  0
 15 13  1  0
M  END
>  <NAME>  (2839) 
CIS-ETHYL-LINALYL ACETATE

>  <SYNONYMS>  (2839) 
1,5-DIMETHYL-1-VINYL-(Z)-4-HEPTENYL ACETATE

>  <SPECTRUM TYPE>  (2839) 
MS1

>  <INSTRUMENT TYPE>  (2839) 
EI-B

>  <INSTRUMENT>  (2839) 
HITACHI M-80B

>  <ION MODE>  (2839) 
P

>  <INCHIKEY>  (2839) 
IVSZEHYDOLAREK-LUAWRHEFSA-N

>  <FORMULA>  (2839) 
C13H22O2

>  <EXACT MASS>  (2839) 
210.161979944

>  <MW>  (2839) 
210

>  <ID>  (2839) 
JP008364

>  <CONTRIBUTOR>  (2839) 
University of Tokyo Team, {Faculty of Engineering, University of Tokyo

>  <COMMENT>  (2839) 
SMILES=CCC(C)=C([H])CCC(C)(C=C)OC(C)=O
InChI=InChI=1S/C13H22O2/c1-6-11(3)9-8-10-13(5,7-2)15-12(4)14/h7,9H,2,6,8,10H2,1,3-5H3/b11-9-
computed SMILES=O=C(OC(C=C)(C)CCC=C(C)CC)C
accession=JP008364
date=2016.01.19 (Created 2008.10.21, modified 2011.05.06)
author=SODA AROMATIC CO., LTD.
license=CC BY-NC-SA
exact mass=210.16198
ionization energy=70 eV
ion type=[M]+*
computed spectral entropy=3.2920340530308323
computed normalized entropy=0.8142449439663026
SPLASH=splash10-0006-9100000000-1c427eb56d970b544a34
submitter=submitter = University of Tokyo Team (Faculty of Engineering, University of Tokyo)
MoNA Rating=3.75

>  <NUM PEAKS>  (2839) 
57

>  <MASS SPECTRAL PEAKS>  (2839) 
15 2.23
27 9.26
29 11.82
39 10.01
40 2.65
41 23.97
42 3.21
43 66.55
44 2.28
45 1.59
51 2.07
52 1.36
53 9.98
54 2.66
55 51.95
56 3.3
57 4.36
58 1.09
65 2.48
66 1.3
67 17.27
68 6.03
69 5.26
70 1.41
71 16.44
72 2.35
77 5.34
78 1.34
79 14.63
80 43.1
81 15.51
82 14.64
83 12.94
85 1.78
91 6.35
92 16.23
93 99.99
94 14.63
95 12.84
96 3.22
97 2.66
98 1.25
105 3.96
106 2.1
107 8.92
108 3.66
109 1.92
111 1.36
119 1.35
121 41.39
122 4.72
123 4.14
135 7.13
136 1.69
150 9.69
151 1.8
153 1.35

$$$$

     RDKit          2D

  8  8  0  0  0  0  0  0  0  0999 V2000
   -3.0958   -1.4497    0.0000 C   0  0  0  0  0  0  0  0  0  0  0  0
   -0.6043   -2.4006    0.0000 C   0  0  0  0  0  0  0  0  0  0  0  0
    0.7714   -1.7978    0.0000 C   0  0  0  0  0  0  0  0  0  0  0  0
   -1.6041   -1.2923    0.0000 C   0  0  0  0  0  0  0  0  0  0  0  0
    0.6057   -0.3049    0.0000 C   0  0  0  0  0  0  0  0  0  0  0  0
   -0.8541    0.0068    0.0000 C   0  0  0  0  0  0  0  0  0  0  0  0
    1.7179    0.7016    0.0000 O   0  0  0  0  0  0  0  0  0  0  0  0
   -1.4636    1.3774    0.0000 O   0  0  0  0  0  0  0  0  0  0  0  0
  3  2  1  0
  4  1  1  0
  4  2  1  0
  5  3  1  0
  6  4  1  0
  6  5  1  0
  7  5  2  0
  8  6  2  0
M  END
>  <NAME>  (2840) 
METHYL-CYCLOPENTENOLONE

>  <SYNONYMS>  (2840) 
3-METHYLCYCLOPENTANE-1,2-DIONE

>  <SPECTRUM TYPE>  (2840) 
MS1

>  <INSTRUMENT TYPE>  (2840) 
EI-B

>  <INSTRUMENT>  (2840) 
HITACHI M-80B

>  <ION MODE>  (2840) 
P

>  <INCHIKEY>  (2840) 
OACYKCIZDVVNJL-UHFFFAOYSA-N

>  <FORMULA>  (2840) 
C6H8O2

>  <EXACT MASS>  (2840) 
112.052429496

>  <MW>  (2840) 
112

>  <ID>  (2840) 
JP008363

>  <CONTRIBUTOR>  (2840) 
University of Tokyo Team, {Faculty of Engineering, University of Tokyo

>  <COMMENT>  (2840) 
SMILES=CC(C1)C(=O)C(=O)C1
InChI=InChI=1S/C6H8O2/c1-4-2-3-5(7)6(4)8/h4H,2-3H2,1H3
computed SMILES=O=C1C(=O)C(C)CC1
accession=JP008363
date=2016.01.19 (Created 2008.10.21, modified 2011.05.06)
author=SODA AROMATIC CO., LTD.
license=CC BY-NC-SA
exact mass=112.05243
ionization energy=70 eV
ion type=[M]+*
computed spectral entropy=3.0932815646910075
computed normalized entropy=0.8174224507581384
SPLASH=splash10-090u-9100000000-c6c4c4dbdc254a0bd933
submitter=submitter = University of Tokyo Team (Faculty of Engineering, University of Tokyo)
MoNA Rating=3.75

>  <NUM PEAKS>  (2840) 
44

>  <MASS SPECTRAL PEAKS>  (2840) 
15 5.19
25 1.02
26 9.52
27 38.33
28 8.66
29 18.93
30 1.2
31 3.02
37 3.35
38 6.28
39 40.85
40 5.35
41 53.88
42 21.45
43 39.35
44 5.63
45 1.25
49 1.85
50 7.55
51 7.54
52 3.63
53 12.05
54 5.64
55 55.94
56 33.37
57 5.2
63 1.23
65 4.03
66 8.39
67 2.36
68 1.15
69 56.32
70 5.61
71 3.01
81 1.15
82 1.94
83 31.42
84 28.09
85 1.36
95 1.21
97 7.4
111 4.24
112 99.99
113 6.3

$$$$

     RDKit          2D

 11 11  0  0  1  0  0  0  0  0999 V2000
    2.9236   -0.9382    0.0000 C   0  0  0  0  0  0  0  0  0  0  0  0
    1.6242    1.3116    0.0000 C   0  0  0  0  0  0  0  0  0  0  0  0
   -4.8712   -0.9380    0.0000 C   0  0  0  0  0  0  0  0  0  0  0  0
   -3.5727    1.3128    0.0000 C   0  0  0  0  0  0  0  0  0  0  0  0
   -2.2736    2.0628    0.0000 C   0  0  0  0  0  0  0  0  0  0  0  0
    0.3255   -0.9386    0.0000 C   0  0  0  0  0  0  0  0  0  0  0  0
   -2.2727   -0.9389    0.0000 C   0  0  0  0  0  0  0  0  0  0  0  0
    1.6245   -0.1884    0.0000 C   0  0  0  0  0  0  0  0  0  0  0  0
   -3.5722   -0.1880    0.0000 C   0  0  0  0  0  0  0  0  0  0  0  0
   -0.9736   -0.1889    0.0000 C   0  0  0  0  0  0  0  0  0  0  0  0
   -0.9741    1.3120    0.0000 O   0  0  0  0  0  0  0  0  0  0  0  0
  5  4  1  0
  8  1  1  0
  8  2  1  0
  8  6  2  0
  9  3  1  6
  9  4  1  0
  9  7  1  0
 10  6  1  1
 10  7  1  0
 11  5  1  0
 11 10  1  0
M  END
>  <NAME>  (2841) 
TRANS-ROSE OXIDE

>  <SYNONYMS>  (2841) 
4-METHYL-TRANS-2-(2-METHYL-1-PROPENYL)PERHYDROPYRAN

>  <SPECTRUM TYPE>  (2841) 
MS1

>  <INSTRUMENT TYPE>  (2841) 
EI-B

>  <INSTRUMENT>  (2841) 
HITACHI M-80B

>  <ION MODE>  (2841) 
P

>  <INCHIKEY>  (2841) 
CZCBTSFUTPZVKJ-ZJUUUORDSA-N

>  <FORMULA>  (2841) 
C10H18O

>  <EXACT MASS>  (2841) 
154.135765196

>  <MW>  (2841) 
154

>  <ID>  (2841) 
JP008362

>  <CONTRIBUTOR>  (2841) 
University of Tokyo Team, {Faculty of Engineering, University of Tokyo

>  <COMMENT>  (2841) 
SMILES=CC(C)=CC([H])(O1)CC([H])(C)CC1
InChI=InChI=1S/C10H18O/c1-8(2)6-10-7-9(3)4-5-11-10/h6,9-10H,4-5,7H2,1-3H3/t9-,10+/m1/s1
computed SMILES=O1CCC(C)CC1C=C(C)C
accession=JP008362
date=2016.01.19 (Created 2008.10.21, modified 2011.05.06)
author=SODA AROMATIC CO., LTD.
license=CC BY-NC-SA
exact mass=154.13577
ionization energy=70 eV
ion type=[M]+*
computed spectral entropy=2.864240721812463
computed normalized entropy=0.7764527839526406
SPLASH=splash10-00kr-9300000000-cf7a2855a1450accc836
submitter=submitter = University of Tokyo Team (Faculty of Engineering, University of Tokyo)
MoNA Rating=3.75

>  <NUM PEAKS>  (2841) 
40

>  <MASS SPECTRAL PEAKS>  (2841) 
15 1.06
27 13.65
29 15.17
31 1.23
32 1.05
39 18.85
40 2.42
41 34.6
42 13.98
43 7.27
51 2.07
53 7
54 2.27
55 29.17
56 8.31
57 1.79
65 1.92
66 1.38
67 11.82
68 1.89
69 60.4
70 3.26
71 1.01
77 2.35
79 2.35
81 2.9
82 4.6
83 27.67
84 13.24
85 12.39
93 1.12
97 3.06
99 1.18
109 1.38
112 2.13
139 99.99
140 9.23
153 1.44
154 10.19
155 1.04

$$$$

     RDKit          2D

 11 11  0  0  1  0  0  0  0  0999 V2000
    2.9236   -0.9382    0.0000 C   0  0  0  0  0  0  0  0  0  0  0  0
    1.6242    1.3116    0.0000 C   0  0  0  0  0  0  0  0  0  0  0  0
   -4.8712   -0.9380    0.0000 C   0  0  0  0  0  0  0  0  0  0  0  0
   -3.5727    1.3128    0.0000 C   0  0  0  0  0  0  0  0  0  0  0  0
   -2.2736    2.0628    0.0000 C   0  0  0  0  0  0  0  0  0  0  0  0
    0.3255   -0.9386    0.0000 C   0  0  0  0  0  0  0  0  0  0  0  0
   -2.2727   -0.9389    0.0000 C   0  0  0  0  0  0  0  0  0  0  0  0
    1.6245   -0.1884    0.0000 C   0  0  0  0  0  0  0  0  0  0  0  0
   -3.5722   -0.1880    0.0000 C   0  0  0  0  0  0  0  0  0  0  0  0
   -0.9736   -0.1889    0.0000 C   0  0  0  0  0  0  0  0  0  0  0  0
   -0.9741    1.3120    0.0000 O   0  0  0  0  0  0  0  0  0  0  0  0
  5  4  1  0
  8  1  1  0
  8  2  1  0
  8  6  2  0
  9  3  1  6
  9  4  1  0
  9  7  1  0
 10  6  1  6
 10  7  1  0
 11  5  1  0
 11 10  1  0
M  END
>  <NAME>  (2842) 
CIS-ROSE OXIDE

>  <SYNONYMS>  (2842) 
4-METHYL-CIS-2-(2-METHYL-1-PROPENYL)PERHYDROPYRAN

>  <SPECTRUM TYPE>  (2842) 
MS1

>  <INSTRUMENT TYPE>  (2842) 
EI-B

>  <INSTRUMENT>  (2842) 
HITACHI M-80B

>  <ION MODE>  (2842) 
P

>  <INCHIKEY>  (2842) 
CZCBTSFUTPZVKJ-NXEZZACHSA-N

>  <FORMULA>  (2842) 
C10H18O

>  <EXACT MASS>  (2842) 
154.135765196

>  <MW>  (2842) 
154

>  <ID>  (2842) 
JP008361

>  <CONTRIBUTOR>  (2842) 
University of Tokyo Team, {Faculty of Engineering, University of Tokyo

>  <COMMENT>  (2842) 
SMILES=CC(C)=CC([H])(O1)CC([H])(C)CC1
InChI=InChI=1S/C10H18O/c1-8(2)6-10-7-9(3)4-5-11-10/h6,9-10H,4-5,7H2,1-3H3/t9-,10-/m1/s1
computed SMILES=O1CCC(C)CC1C=C(C)C
accession=JP008361
date=2016.01.19 (Created 2008.10.21, modified 2011.05.06)
author=SODA AROMATIC CO., LTD.
license=CC BY-NC-SA
exact mass=154.13577
ionization energy=70 eV
ion type=[M]+*
computed spectral entropy=2.82314435233319
computed normalized entropy=0.776103775517318
SPLASH=splash10-000i-9400000000-edfd04e12dc4a367c0d5
submitter=submitter = University of Tokyo Team (Faculty of Engineering, University of Tokyo)
MoNA Rating=3.75

>  <NUM PEAKS>  (2842) 
38

>  <MASS SPECTRAL PEAKS>  (2842) 
15 1.01
27 10.05
29 10.05
31 1.35
32 1.79
39 17.41
40 2.21
41 31.8
42 12.93
43 6.54
51 1.93
52 1.17
53 7.22
54 1.98
55 26.85
56 7.57
57 1.86
65 1.79
67 9.32
68 1.44
69 54.5
70 3.19
77 1.64
79 2.15
81 2.57
82 3.47
83 25.99
84 13.17
85 14.53
93 1.07
97 3.16
109 1.17
112 1.77
139 99.99
140 8.71
153 1.38
154 13.87
155 1.32

$$$$

     RDKit          2D

 11 11  0  0  0  0  0  0  0  0999 V2000
    2.9236   -0.9382    0.0000 C   0  0  0  0  0  0  0  0  0  0  0  0
    1.6242    1.3116    0.0000 C   0  0  0  0  0  0  0  0  0  0  0  0
   -4.8712   -0.9380    0.0000 C   0  0  0  0  0  0  0  0  0  0  0  0
   -3.5727    1.3128    0.0000 C   0  0  0  0  0  0  0  0  0  0  0  0
   -2.2736    2.0628    0.0000 C   0  0  0  0  0  0  0  0  0  0  0  0
    0.3255   -0.9386    0.0000 C   0  0  0  0  0  0  0  0  0  0  0  0
   -2.2727   -0.9389    0.0000 C   0  0  0  0  0  0  0  0  0  0  0  0
    1.6245   -0.1884    0.0000 C   0  0  0  0  0  0  0  0  0  0  0  0
   -3.5722   -0.1880    0.0000 C   0  0  0  0  0  0  0  0  0  0  0  0
   -0.9736   -0.1889    0.0000 C   0  0  0  0  0  0  0  0  0  0  0  0
   -0.9741    1.3120    0.0000 O   0  0  0  0  0  0  0  0  0  0  0  0
  5  4  1  0
  8  1  1  0
  8  2  1  0
  8  6  2  0
  9  3  1  0
  9  4  2  0
  9  7  1  0
 10  6  1  0
 10  7  1  0
 11  5  1  0
 11 10  1  0
M  END
>  <NAME>  (2843) 
NEROL OXIDE

>  <SYNONYMS>  (2843) 
4-METHYL-2-(2-METHYL-1-PROPENYL)-2,3-DIHYDROPYRAN

>  <SPECTRUM TYPE>  (2843) 
MS1

>  <INSTRUMENT TYPE>  (2843) 
EI-B

>  <INSTRUMENT>  (2843) 
HITACHI M-80B

>  <ION MODE>  (2843) 
P

>  <INCHIKEY>  (2843) 
FRISMOQHTLZZRP-UHFFFAOYSA-N

>  <FORMULA>  (2843) 
C10H16O

>  <EXACT MASS>  (2843) 
152.120115132

>  <MW>  (2843) 
152

>  <ID>  (2843) 
JP008360

>  <CONTRIBUTOR>  (2843) 
University of Tokyo Team, {Faculty of Engineering, University of Tokyo

>  <COMMENT>  (2843) 
SMILES=CC(C)=CC(O1)CC(C)=CC1
InChI=InChI=1S/C10H16O/c1-8(2)6-10-7-9(3)4-5-11-10/h4,6,10H,5,7H2,1-3H3
computed SMILES=O1CC=C(C)CC1C=C(C)C
accession=JP008360
date=2016.01.19 (Created 2008.10.21, modified 2011.05.06)
author=SODA AROMATIC CO., LTD.
license=CC BY-NC-SA
exact mass=152.12012
ionization energy=70 eV
ion type=[M]+*
computed spectral entropy=2.8132694334665205
computed normalized entropy=0.7850577830847361
SPLASH=splash10-014i-9000000000-c7728956a05defa6ddc5
submitter=submitter = University of Tokyo Team (Faculty of Engineering, University of Tokyo)
MoNA Rating=3.75

>  <NUM PEAKS>  (2843) 
36

>  <MASS SPECTRAL PEAKS>  (2843) 
15 1.06
27 14.02
29 9.83
39 21.87
40 7.67
41 29.51
42 4.27
43 5
50 1.11
51 3.12
52 1.63
53 20.43
54 1.93
55 14.53
56 3.35
57 1.09
65 2.83
66 2.84
67 52.53
68 99.99
69 14.79
77 3.13
79 3.17
81 6.44
82 5.18
83 64.78
84 5.02
85 24.35
91 3.19
93 1.73
94 1.53
95 5.12
96 7.81
97 2.01
109 4.74
152 5.12

$$$$

     RDKit          2D

 14 14  0  0  0  0  0  0  0  0999 V2000
   -1.8622    0.2382    0.0000 C   0  0  0  0  0  0  0  0  0  0  0  0
   -0.5639   -0.5131    0.0000 C   0  0  0  0  0  0  0  0  0  0  0  0
    0.7359    0.2356    0.0000 C   0  0  0  0  0  0  0  0  0  0  0  0
    2.0341   -0.5158    0.0000 C   0  0  0  0  0  0  0  0  0  0  0  0
   10.1618    2.0261    0.0000 C   0  0  0  0  0  0  0  0  0  0  0  0
    8.6946    1.7143    0.0000 C   0  0  0  0  0  0  0  0  0  0  0  0
    3.3339    0.2329    0.0000 C   0  0  0  0  0  0  0  0  0  0  0  0
   10.9070    0.7328    0.0000 C   0  0  0  0  0  0  0  0  0  0  0  0
    7.2303   -0.5211    0.0000 C   0  0  0  0  0  0  0  0  0  0  0  0
    8.5301    0.2276    0.0000 C   0  0  0  0  0  0  0  0  0  0  0  0
    4.6322   -0.5184    0.0000 C   0  0  0  0  0  0  0  0  0  0  0  0
    4.6307   -2.0184    0.0000 O   0  0  0  0  0  0  0  0  0  0  0  0
    9.9064   -0.3795    0.0000 O   0  0  0  0  0  0  0  0  0  0  0  0
    5.9320    0.2302    0.0000 O   0  0  0  0  0  0  0  0  0  0  0  0
  2  1  1  0
  3  2  1  0
  4  3  1  0
  6  5  1  0
  7  4  1  0
  8  5  2  0
 10  6  2  0
 10  9  1  0
 11  7  1  0
 12 11  2  0
 13  8  1  0
 13 10  1  0
 14  9  1  0
 14 11  1  0
M  END
>  <NAME>  (2844) 
FURFURYL HEXANOATE

>  <SYNONYMS>  (2844) 


>  <SPECTRUM TYPE>  (2844) 
MS1

>  <INSTRUMENT TYPE>  (2844) 
EI-B

>  <INSTRUMENT>  (2844) 
HITACHI M-80B

>  <ION MODE>  (2844) 
P

>  <INCHIKEY>  (2844) 
IBIDUABZZSJJNF-UHFFFAOYSA-N

>  <FORMULA>  (2844) 
C11H16O3

>  <EXACT MASS>  (2844) 
196.10994437199997

>  <MW>  (2844) 
196

>  <ID>  (2844) 
JP008359

>  <CONTRIBUTOR>  (2844) 
University of Tokyo Team, {Faculty of Engineering, University of Tokyo

>  <COMMENT>  (2844) 
SMILES=CCCCCC(=O)OCc(c1)occ1
InChI=InChI=1S/C11H16O3/c1-2-3-4-7-11(12)14-9-10-6-5-8-13-10/h5-6,8H,2-4,7,9H2,1H3
computed SMILES=O=C(OCC=1OC=CC1)CCCCC
accession=JP008359
date=2016.01.19 (Created 2008.10.21, modified 2011.05.06)
author=SODA AROMATIC CO., LTD.
license=CC BY-NC-SA
exact mass=196.10994
ionization energy=70 eV
ion type=[M]+*
computed spectral entropy=2.4771010351477556
computed normalized entropy=0.7602908650005824
SPLASH=splash10-001i-9000000000-21a62d33c27139aa3108
submitter=submitter = University of Tokyo Team (Faculty of Engineering, University of Tokyo)
MoNA Rating=3.75

>  <NUM PEAKS>  (2844) 
26

>  <MASS SPECTRAL PEAKS>  (2844) 
26 1.07
27 11.56
29 6.22
38 1.37
39 8.11
41 8.78
42 3.08
43 14.4
50 1.3
51 2.62
52 12
53 15.18
54 1.04
55 2.94
69 2.72
70 1.15
71 6.16
80 8.77
81 99.99
82 11.1
95 2.25
96 1.31
97 4.2
98 23.48
99 8.15
196 9.5

$$$$

     RDKit          2D

 19 19  0  0  0  0  0  0  0  0999 V2000
    4.8721    3.8829    0.0000 C   0  0  0  0  0  0  0  0  0  0  0  0
    0.9750   -1.3671    0.0000 C   0  0  0  0  0  0  0  0  0  0  0  0
    3.5731    3.1329    0.0000 C   0  0  0  0  0  0  0  0  0  0  0  0
   -0.3240   -0.6171    0.0000 C   0  0  0  0  0  0  0  0  0  0  0  0
    2.2740    3.8829    0.0000 C   0  0  0  0  0  0  0  0  0  0  0  0
   -8.1183    5.3829    0.0000 C   0  0  0  0  0  0  0  0  0  0  0  0
    0.9750    3.1329    0.0000 C   0  0  0  0  0  0  0  0  0  0  0  0
   -8.1187    3.8821    0.0000 C   0  0  0  0  0  0  0  0  0  0  0  0
   -6.8187    6.1337    0.0000 C   0  0  0  0  0  0  0  0  0  0  0  0
   -6.8197    3.1321    0.0000 C   0  0  0  0  0  0  0  0  0  0  0  0
   -5.5197    5.3837    0.0000 C   0  0  0  0  0  0  0  0  0  0  0  0
   -0.3240    3.8829    0.0000 C   0  0  0  0  0  0  0  0  0  0  0  0
   -4.2212    3.1329    0.0000 C   0  0  0  0  0  0  0  0  0  0  0  0
   -2.9221    3.8829    0.0000 C   0  0  0  0  0  0  0  0  0  0  0  0
   -5.5202    3.8829    0.0000 C   0  0  0  0  0  0  0  0  0  0  0  0
   -1.6231    3.1329    0.0000 C   0  0  0  0  0  0  0  0  0  0  0  0
   -0.3240    0.8829    0.0000 C   0  0  0  0  0  0  0  0  0  0  0  0
    0.9750    1.6329    0.0000 O   0  0  0  0  0  0  0  0  0  0  0  0
   -1.6231    1.6329    0.0000 O   0  0  0  0  0  0  0  0  0  0  0  0
  3  1  1  0
  4  2  1  0
  5  3  1  0
  7  5  1  0
  8  6  2  0
  9  6  1  0
 10  8  1  0
 11  9  2  0
 12  7  1  0
 13 14  2  0
 15 10  2  0
 15 11  1  0
 15 13  1  0
 16 12  1  0
 16 14  1  0
 17  4  1  0
 18 17  2  0
 19 16  1  0
 19 17  1  0
M  END
>  <NAME>  (2845) 
ALPHA-AMYLCINNAMYL PROPIONATE

>  <SYNONYMS>  (2845) 
2-BENZYLIDENEHEPTYL PROPIONATE

>  <SPECTRUM TYPE>  (2845) 
MS1

>  <INSTRUMENT TYPE>  (2845) 
EI-B

>  <INSTRUMENT>  (2845) 
HITACHI M-80B

>  <ION MODE>  (2845) 
P

>  <INCHIKEY>  (2845) 
RAADGNMQUXTRCK-BUHFOSPRSA-N

>  <FORMULA>  (2845) 
C17H24O2

>  <EXACT MASS>  (2845) 
260.177630008

>  <MW>  (2845) 
260

>  <ID>  (2845) 
JP008358

>  <CONTRIBUTOR>  (2845) 
University of Tokyo Team, {Faculty of Engineering, University of Tokyo

>  <COMMENT>  (2845) 
SMILES=CCCCCC(OC(=O)CC)C([H])=C([H])c(c1)cccc1
InChI=InChI=1S/C17H24O2/c1-3-5-7-12-16(19-17(18)4-2)14-13-15-10-8-6-9-11-15/h6,8-11,13-14,16H,3-5,7,12H2,1-2H3/b14-13+
computed SMILES=O=C(OC(C=CC=1C=CC=CC1)CCCCC)CC
accession=JP008358
date=2016.01.19 (Created 2008.10.21, modified 2011.05.06)
author=SODA AROMATIC CO., LTD.
license=CC BY-NC-SA
exact mass=260.17763
ionization energy=70 eV
ion type=[M]+*
computed spectral entropy=3.2829058977343015
computed normalized entropy=0.7807719124566633
SPLASH=splash10-004i-7900000000-1b34d9ccd82b3e1c4c0d
submitter=submitter = University of Tokyo Team (Faculty of Engineering, University of Tokyo)
MoNA Rating=3.75

>  <NUM PEAKS>  (2845) 
67

>  <MASS SPECTRAL PEAKS>  (2845) 
26 1.31
27 21.48
29 82.28
30 1.9
31 1.21
39 7.38
41 20.41
42 1.4
43 10.33
51 3.57
52 1.16
53 2.92
55 7.48
56 1.52
57 99.99
58 2.92
63 3.19
65 5.02
67 2.43
69 2.38
71 1.31
75 1.67
76 1.19
77 5.33
78 4.57
79 3.46
81 1.22
82 1.47
89 2.5
91 44.56
92 5.71
95 5.58
99 2.74
102 2.25
103 3.13
104 5.55
105 5.82
113 1.03
114 1.01
115 34.67
116 15.9
117 23.81
118 3.01
127 6.88
128 27.26
129 90.62
130 77.52
131 18.1
132 1.45
133 6.5
134 1.06
141 3.26
142 2.79
143 46.8
144 14.93
145 3.36
147 5.22
148 2.11
157 4.28
158 1.08
171 2.29
186 20.99
187 4.74
203 4.5
204 6.51
205 1.13
260 1.26

$$$$

     RDKit          2D

 16 16  0  0  0  0  0  0  0  0999 V2000
    5.5216    4.2579    0.0000 C   0  0  0  0  0  0  0  0  0  0  0  0
    4.2226    5.0079    0.0000 C   0  0  0  0  0  0  0  0  0  0  0  0
    2.9236    4.2579    0.0000 C   0  0  0  0  0  0  0  0  0  0  0  0
   -8.7678    6.5079    0.0000 C   0  0  0  0  0  0  0  0  0  0  0  0
    1.6245    5.0079    0.0000 C   0  0  0  0  0  0  0  0  0  0  0  0
   -8.7683    5.0071    0.0000 C   0  0  0  0  0  0  0  0  0  0  0  0
   -7.4683    7.2587    0.0000 C   0  0  0  0  0  0  0  0  0  0  0  0
   -7.4692    4.2571    0.0000 C   0  0  0  0  0  0  0  0  0  0  0  0
   -6.1692    6.5087    0.0000 C   0  0  0  0  0  0  0  0  0  0  0  0
    0.3255    4.2579    0.0000 C   0  0  0  0  0  0  0  0  0  0  0  0
   -4.8707    4.2579    0.0000 C   0  0  0  0  0  0  0  0  0  0  0  0
   -3.5716    5.0079    0.0000 C   0  0  0  0  0  0  0  0  0  0  0  0
   -6.1697    5.0079    0.0000 C   0  0  0  0  0  0  0  0  0  0  0  0
   -0.9736    5.0079    0.0000 C   0  0  0  0  0  0  0  0  0  0  0  0
   -0.9736    6.5079    0.0000 O   0  0  0  0  0  0  0  0  0  0  0  0
   -2.2726    4.2579    0.0000 O   0  0  0  0  0  0  0  0  0  0  0  0
  2  1  1  0
  3  2  1  0
  5  3  1  0
  6  4  2  0
  7  4  1  0
  8  6  1  0
  9  7  2  0
  5 10  2  0
 12 11  1  0
 13  8  2  0
 13  9  1  0
 13 11  1  0
 14 10  1  0
 15 14  2  0
 16 12  1  0
 16 14  1  0
M  END
>  <NAME>  (2846) 
PHENYLETHYL TRANS-2-HEXENOATE

>  <SYNONYMS>  (2846) 


>  <SPECTRUM TYPE>  (2846) 
MS1

>  <INSTRUMENT TYPE>  (2846) 
EI-B

>  <INSTRUMENT>  (2846) 
HITACHI M-80B

>  <ION MODE>  (2846) 
P

>  <INCHIKEY>  (2846) 
CPLGJUPSPDLRLM-BJMVGYQFSA-N

>  <FORMULA>  (2846) 
C14H18O2

>  <EXACT MASS>  (2846) 
218.130679816

>  <MW>  (2846) 
218

>  <ID>  (2846) 
JP008357

>  <CONTRIBUTOR>  (2846) 
University of Tokyo Team, {Faculty of Engineering, University of Tokyo

>  <COMMENT>  (2846) 
SMILES=CCCC=CC(=O)OCCc(c1)cccc1
InChI=InChI=1S/C14H18O2/c1-2-3-5-10-14(15)16-12-11-13-8-6-4-7-9-13/h4-10H,2-3,11-12H2,1H3/b10-5+
computed SMILES=O=C(OCCC=1C=CC=CC1)C=CCCC
accession=JP008357
date=2016.01.19 (Created 2008.10.21, modified 2011.05.06)
author=SODA AROMATIC CO., LTD.
license=CC BY-NC-SA
exact mass=218.13068
ionization energy=70 eV
ion type=[M]+*
computed spectral entropy=1.9387035063347684
computed normalized entropy=0.6584288280559335
SPLASH=splash10-0udi-6900000000-265495e62735b4196617
submitter=submitter = University of Tokyo Team (Faculty of Engineering, University of Tokyo)
MoNA Rating=3.75

>  <NUM PEAKS>  (2846) 
19

>  <MASS SPECTRAL PEAKS>  (2846) 
27 4.72
39 5.76
41 8.47
42 1.36
51 2.08
53 1.36
55 22.69
65 2.6
68 2.24
69 1.45
77 4.67
78 2.16
79 2.39
91 5.44
97 16.36
98 1.06
103 2.92
104 99.99
105 14.83

$$$$

     RDKit          2D

 15 15  0  0  0  0  0  0  0  0999 V2000
    4.8721    3.8829    0.0000 C   0  0  0  0  0  0  0  0  0  0  0  0
    3.5731    3.1329    0.0000 C   0  0  0  0  0  0  0  0  0  0  0  0
    2.2740    3.8829    0.0000 C   0  0  0  0  0  0  0  0  0  0  0  0
   -8.1183    5.3829    0.0000 C   0  0  0  0  0  0  0  0  0  0  0  0
    0.9750    3.1329    0.0000 C   0  0  0  0  0  0  0  0  0  0  0  0
   -8.1187    3.8821    0.0000 C   0  0  0  0  0  0  0  0  0  0  0  0
   -6.8187    6.1337    0.0000 C   0  0  0  0  0  0  0  0  0  0  0  0
   -6.8197    3.1321    0.0000 C   0  0  0  0  0  0  0  0  0  0  0  0
   -5.5197    5.3837    0.0000 C   0  0  0  0  0  0  0  0  0  0  0  0
   -0.3240    3.8829    0.0000 C   0  0  0  0  0  0  0  0  0  0  0  0
   -4.2212    3.1329    0.0000 C   0  0  0  0  0  0  0  0  0  0  0  0
   -5.5202    3.8829    0.0000 C   0  0  0  0  0  0  0  0  0  0  0  0
   -1.6231    3.1329    0.0000 C   0  0  0  0  0  0  0  0  0  0  0  0
   -1.6231    1.6329    0.0000 O   0  0  0  0  0  0  0  0  0  0  0  0
   -2.9221    3.8829    0.0000 O   0  0  0  0  0  0  0  0  0  0  0  0
  2  1  1  0
  3  2  1  0
  5  3  1  0
  6  4  2  0
  7  4  1  0
  8  6  1  0
  9  7  2  0
  5 10  2  0
 12  8  2  0
 12  9  1  0
 12 11  1  0
 13 10  1  0
 14 13  2  0
 15 11  1  0
 15 13  1  0
M  END
>  <NAME>  (2847) 
BENZYL TRANS-2-HEXENOATE

>  <SYNONYMS>  (2847) 


>  <SPECTRUM TYPE>  (2847) 
MS1

>  <INSTRUMENT TYPE>  (2847) 
EI-B

>  <INSTRUMENT>  (2847) 
HITACHI M-80B

>  <ION MODE>  (2847) 
P

>  <INCHIKEY>  (2847) 
DLYYFHZPEQEPLG-BJMVGYQFSA-N

>  <FORMULA>  (2847) 
C13H16O2

>  <EXACT MASS>  (2847) 
204.115029752

>  <MW>  (2847) 
204

>  <ID>  (2847) 
JP008356

>  <CONTRIBUTOR>  (2847) 
University of Tokyo Team, {Faculty of Engineering, University of Tokyo

>  <COMMENT>  (2847) 
SMILES=CCCC=CC(=O)OCc(c1)cccc1
InChI=InChI=1S/C13H16O2/c1-2-3-5-10-13(14)15-11-12-8-6-4-7-9-12/h4-10H,2-3,11H2,1H3/b10-5+
computed SMILES=O=C(OCC=1C=CC=CC1)C=CCCC
accession=JP008356
date=2016.01.19 (Created 2008.10.21, modified 2011.05.06)
author=SODA AROMATIC CO., LTD.
license=CC BY-NC-SA
exact mass=204.11503
ionization energy=70 eV
ion type=[M]+*
computed spectral entropy=3.0933463223219944
computed normalized entropy=0.768466101841913
SPLASH=splash10-0007-9100000000-56b3b52ee5b9e6fd856b
submitter=submitter = University of Tokyo Team (Faculty of Engineering, University of Tokyo)
MoNA Rating=3.75

>  <NUM PEAKS>  (2847) 
56

>  <MASS SPECTRAL PEAKS>  (2847) 
14 7.24
27 10.08
38 1.98
39 14.93
41 15.21
42 3.36
43 1
45 1.14
50 2.01
51 7.35
52 2.86
53 3.72
54 1.35
55 49.12
56 2.54
63 4.06
65 13.56
66 1.69
67 1.78
68 5.26
69 3.71
70 1.26
77 8.5
78 2.42
79 8.76
80 1.07
81 1.93
83 1.51
89 5.43
90 9.08
91 99.99
92 6.83
97 80.26
98 5.83
105 3.16
107 9.71
108 4.19
113 1.23
115 3.68
117 7.03
118 1.31
129 2.58
131 1.82
132 1.37
133 4.08
144 6.76
145 1.54
147 4.04
148 6.75
157 1.16
158 1.31
159 2.94
161 5.79
162 3.22
204 5.38
205 1.09

$$$$

     RDKit          2D

 13 14  0  0  0  0  0  0  0  0999 V2000
    1.3259   -2.1785    0.0000 C   0  0  0  0  0  0  0  0  0  0  0  0
    2.2869   -0.5080    0.0000 C   0  0  0  0  0  0  0  0  0  0  0  0
   -1.7800    0.7300    0.0000 C   0  0  0  0  0  0  0  0  0  0  0  0
   -1.7800   -0.7700    0.0000 C   0  0  0  0  0  0  0  0  0  0  0  0
   -0.4800   -0.0200    0.0000 C   0  0  0  0  0  0  0  0  0  0  0  0
   -0.4775    2.9800    0.0000 C   0  0  0  0  0  0  0  0  0  0  0  0
   -1.7728    5.2322    0.0000 C   0  0  0  0  0  0  0  0  0  0  0  0
   -0.4800    1.4800    0.0000 C   0  0  0  0  0  0  0  0  0  0  0  0
   -0.4800   -1.5200    0.0000 C   0  0  0  0  0  0  0  0  0  0  0  0
    0.8100    0.7300    0.0000 C   0  0  0  0  0  0  0  0  0  0  0  0
    0.8100   -0.7700    0.0000 C   0  0  0  0  0  0  0  0  0  0  0  0
   -3.0705    5.9843    0.0000 O   0  0  0  0  0  0  0  0  0  0  0  0
   -1.7753    3.7322    0.0000 O   0  0  0  0  0  0  0  0  0  0  0  0
  4  3  1  0
  8  3  2  0
  8  6  1  0
  9  4  1  0
  9  5  1  0
 10  5  1  0
 10  8  1  0
 11  1  1  0
 11  2  1  0
 11  9  1  0
 11 10  1  0
 12  7  2  0
 13  6  1  0
 13  7  1  0
M  END
>  <NAME>  (2848) 
MYRTENYL FORMATE

>  <SYNONYMS>  (2848) 
FORMIC ACID MYRTENYL ESTER

>  <SPECTRUM TYPE>  (2848) 
MS1

>  <INSTRUMENT TYPE>  (2848) 
EI-B

>  <INSTRUMENT>  (2848) 
HITACHI M-80B

>  <ION MODE>  (2848) 
P

>  <INCHIKEY>  (2848) 
QHPJGDWWLWJMPM-UHFFFAOYSA-N

>  <FORMULA>  (2848) 
C11H16O2

>  <EXACT MASS>  (2848) 
180.115029752

>  <MW>  (2848) 
180

>  <ID>  (2848) 
JP008355

>  <CONTRIBUTOR>  (2848) 
University of Tokyo Team, {Faculty of Engineering, University of Tokyo

>  <COMMENT>  (2848) 
SMILES=O=COCC(=C2)C(C1)C(C)(C)C(C2)1
InChI=InChI=1S/C11H16O2/c1-11(2)9-4-3-8(6-13-7-12)10(11)5-9/h3,7,9-10H,4-6H2,1-2H3
computed SMILES=O=COCC1=CCC2CC1C2(C)C
accession=JP008355
date=2016.01.19 (Created 2008.10.21, modified 2011.05.06)
author=SODA AROMATIC CO., LTD.
license=CC BY-NC-SA
exact mass=180.11503
ionization energy=70 eV
ion type=[M]+*
computed spectral entropy=2.974067227709988
computed normalized entropy=0.7812794634938682
SPLASH=splash10-0006-9200000000-3fdb69148a6dde9d4d4e
submitter=submitter = University of Tokyo Team (Faculty of Engineering, University of Tokyo)
MoNA Rating=3.75

>  <NUM PEAKS>  (2848) 
45

>  <MASS SPECTRAL PEAKS>  (2848) 
27 5.98
29 6.17
31 3.23
39 9.22
40 1.53
41 16.45
42 1.15
43 7.32
51 3.28
52 1.52
53 7.3
55 5.52
57 1.05
63 1.29
65 4.97
66 1.59
67 4.53
68 1.99
69 2.14
77 12.17
78 7.08
79 17.41
80 2.13
81 2.22
90 2.43
91 99.99
92 27.46
93 12.49
94 1.15
95 1.24
103 1.7
104 1.1
105 8.22
106 3.09
107 3.17
108 8.64
109 1.13
115 1.04
117 1.88
119 25.55
120 2.22
121 2.17
134 9.56
135 1.7
136 3.58

$$$$

     RDKit          2D

 14 15  0  0  0  0  0  0  0  0999 V2000
    2.5986    1.0700    0.0000 C   0  0  0  0  0  0  0  0  0  0  0  0
   -5.1957    1.0700    0.0000 C   0  0  0  0  0  0  0  0  0  0  0  0
    2.5990    2.5708    0.0000 C   0  0  0  0  0  0  0  0  0  0  0  0
    1.2990    0.3192    0.0000 C   0  0  0  0  0  0  0  0  0  0  0  0
   -3.8962    0.3192    0.0000 C   0  0  0  0  0  0  0  0  0  0  0  0
   -5.1962    2.5708    0.0000 C   0  0  0  0  0  0  0  0  0  0  0  0
    1.3000    3.3208    0.0000 C   0  0  0  0  0  0  0  0  0  0  0  0
    0.0000    1.0692    0.0000 C   0  0  0  0  0  0  0  0  0  0  0  0
   -2.5971    1.0692    0.0000 C   0  0  0  0  0  0  0  0  0  0  0  0
   -3.8971    3.3208    0.0000 C   0  0  0  0  0  0  0  0  0  0  0  0
    0.0005    2.5700    0.0000 C   0  0  0  0  0  0  0  0  0  0  0  0
   -2.5976    2.5700    0.0000 C   0  0  0  0  0  0  0  0  0  0  0  0
   -1.2986    3.3200    0.0000 C   0  0  0  0  0  0  0  0  0  0  0  0
   -1.2986    4.8200    0.0000 O   0  0  0  0  0  0  0  0  0  0  0  0
  3  1  2  0
  4  1  1  0
  5  2  2  0
  6  2  1  0
  7  3  1  0
  8  4  2  0
  9  5  1  0
 10  6  2  0
 11  7  2  0
 11  8  1  0
 12  9  2  0
 12 10  1  0
 13 11  1  0
 13 12  1  0
 14 13  2  0
M  END
>  <NAME>  (2849) 
BENZOPHENONE

>  <SYNONYMS>  (2849) 
DIPHENYL KETONE

>  <SPECTRUM TYPE>  (2849) 
MS1

>  <INSTRUMENT TYPE>  (2849) 
EI-B

>  <INSTRUMENT>  (2849) 
HITACHI M-60

>  <ION MODE>  (2849) 
P

>  <INCHIKEY>  (2849) 
RWCCWEUUXYIKHB-UHFFFAOYSA-N

>  <FORMULA>  (2849) 
C13H10O

>  <EXACT MASS>  (2849) 
182.07316494

>  <MW>  (2849) 
182

>  <ID>  (2849) 
JP008354

>  <CONTRIBUTOR>  (2849) 
University of Tokyo Team, {Faculty of Engineering, University of Tokyo

>  <COMMENT>  (2849) 
SMILES=c(c2)ccc(c2)C(=O)c(c1)cccc1
InChI=InChI=1S/C13H10O/c14-13(11-7-3-1-4-8-11)12-9-5-2-6-10-12/h1-10H
computed SMILES=O=C(C=1C=CC=CC1)C=2C=CC=CC2
accession=JP008354
date=2016.01.19 (Created 2008.10.21, modified 2011.05.06)
author=UBE SCIENTIFIC ANALYSIS LABORATORY
license=CC BY-NC-SA
exact mass=182.07316
ionization energy=70 eV
ion type=[M]+*
computed spectral entropy=2.047351184755518
computed normalized entropy=0.6834226151746999
SPLASH=splash10-0a6r-6900000000-7c028c0aa3b44d2ee6be
submitter=submitter = University of Tokyo Team (Faculty of Engineering, University of Tokyo)
MoNA Rating=3.75

>  <NUM PEAKS>  (2849) 
20

>  <MASS SPECTRAL PEAKS>  (2849) 
27 1.37
39 1.5
50 8.45
51 31.02
52 2.25
63 1.59
74 3.14
75 3.03
76 4.98
77 62.82
78 5.45
105 99.99
106 7.13
151 1.12
152 2.78
153 1.76
154 1.7
181 6.02
182 46.24
183 6.79

$$$$

     RDKit          2D

 37 32  0  0  0  0  0  0  0  0999 V2000
    3.8971    6.7500    0.0000 C   0  0  0  0  0  0  0  0  0  0  0  0
    2.5981    7.5000    0.0000 C   0  0  0  0  0  0  0  0  0  0  0  0
    1.2990    6.7500    0.0000 C   0  0  0  0  0  0  0  0  0  0  0  0
    0.0000    7.5000    0.0000 C   0  0  0  0  0  0  0  0  0  0  0  0
   -1.2990    6.7500    0.0000 C   0  0  0  0  0  0  0  0  0  0  0  0
   -2.5981    7.5000    0.0000 C   0  0  0  0  0  0  0  0  0  0  0  0
   -3.8971    6.7500    0.0000 C   0  0  0  0  0  0  0  0  0  0  0  0
   -5.1962    7.5000    0.0000 C   0  0  0  0  0  0  0  0  0  0  0  0
   -6.4952    6.7500    0.0000 C   0  0  0  0  0  0  0  0  0  0  0  0
   -7.7942    7.5000    0.0000 C   0  0  0  0  0  0  0  0  0  0  0  0
   -9.0933    6.7500    0.0000 C   0  0  0  0  0  0  0  0  0  0  0  0
  -10.3923    7.5000    0.0000 C   0  0  0  0  0  0  0  0  0  0  0  0
  -11.6913    6.7500    0.0000 O   0  0  0  0  0  0  0  0  0  0  0  0
  -10.3923    9.0000    0.0000 O   0  0  0  0  0  0  0  0  0  0  0  0
    3.8971    6.7500    0.0000 C   0  0  0  0  0  0  0  0  0  0  0  0
    2.5981    7.5000    0.0000 C   0  0  0  0  0  0  0  0  0  0  0  0
    1.2990    6.7500    0.0000 C   0  0  0  0  0  0  0  0  0  0  0  0
    0.0000    7.5000    0.0000 C   0  0  0  0  0  0  0  0  0  0  0  0
   -1.2990    6.7500    0.0000 C   0  0  0  0  0  0  0  0  0  0  0  0
   -2.5981    7.5000    0.0000 C   0  0  0  0  0  0  0  0  0  0  0  0
   -3.8971    6.7500    0.0000 C   0  0  0  0  0  0  0  0  0  0  0  0
   -5.1962    7.5000    0.0000 C   0  0  0  0  0  0  0  0  0  0  0  0
   -6.4952    6.7500    0.0000 C   0  0  0  0  0  0  0  0  0  0  0  0
   -7.7942    7.5000    0.0000 C   0  0  0  0  0  0  0  0  0  0  0  0
   -9.0933    6.7500    0.0000 C   0  0  0  0  0  0  0  0  0  0  0  0
  -10.3923    7.5000    0.0000 C   0  0  0  0  0  0  0  0  0  0  0  0
  -11.6913    6.7500    0.0000 O   0  0  0  0  0  0  0  0  0  0  0  0
  -10.3923    9.0000    0.0000 O   0  0  0  0  0  0  0  0  0  0  0  0
   -2.5981    2.2500    0.0000 C   0  0  0  0  0  3  0  0  0  0  0  0
    1.2990    1.5000    0.0000 C   0  0  0  0  0  0  0  0  0  0  0  0
   -1.2990    1.5000    0.0000 C   0  0  0  0  0  0  0  0  0  0  0  0
    0.0000    2.2500    0.0000 C   0  0  0  0  0  0  0  0  0  0  0  0
   -2.5981    2.2500    0.0000 C   0  0  0  0  0  3  0  0  0  0  0  0
    1.2990    1.5000    0.0000 C   0  0  0  0  0  0  0  0  0  0  0  0
   -1.2990    1.5000    0.0000 C   0  0  0  0  0  0  0  0  0  0  0  0
    0.0000    2.2500    0.0000 C   0  0  0  0  0  0  0  0  0  0  0  0
    0.0000    0.0000    0.0000 Sn  0  0  0  0  0 15  0  0  0  0  0  0
  2  1  1  0
  3  2  1  0
  4  3  1  0
  5  4  1  0
  6  5  1  0
  7  6  1  0
  8  7  1  0
  9  8  1  0
 10  9  1  0
 11 10  1  0
 12 11  1  0
 13 12  2  0
 14 12  1  0
 16 15  1  0
 17 16  1  0
 18 17  1  0
 19 18  1  0
 20 19  1  0
 21 20  1  0
 22 21  1  0
 23 22  1  0
 24 23  1  0
 25 24  1  0
 26 25  1  0
 27 26  2  0
 28 26  1  0
 31 29  1  0
 32 30  1  0
 32 31  1  0
 35 33  1  0
 36 34  1  0
 36 35  1  0
M  CHG  3  14  -1  28  -1  37   2
M  RAD  2  29   2  33   2
M  END
>  <NAME>  (2850) 
DIBUTYLTIN DILAURATE

>  <SYNONYMS>  (2850) 


>  <SPECTRUM TYPE>  (2850) 
MS1

>  <INSTRUMENT TYPE>  (2850) 
EI-B

>  <INSTRUMENT>  (2850) 
HITACHI M-60

>  <ION MODE>  (2850) 
P

>  <INCHIKEY>  (2850) 
UKLDJPRMSDWDSL-UHFFFAOYSA-L

>  <FORMULA>  (2850) 
C32H64O4Sn

>  <EXACT MASS>  (2850) 
632.382655228

>  <MW>  (2850) 
632

>  <ID>  (2850) 
JP008353

>  <CONTRIBUTOR>  (2850) 
University of Tokyo Team, {Faculty of Engineering, University of Tokyo

>  <COMMENT>  (2850) 
SMILES=CCCC[Sn](OC(CCCCCCCCCCC)=O)(OC(CCCCCCCCCCC)=O)CCCC
InChI=InChI=1S/2C12H24O2.2C4H9.Sn/c2*1-2-3-4-5-6-7-8-9-10-11-12(13)14;2*1-3-4-2;/h2*2-11H2,1H3,(H,13,14);2*1,3-4H2,2H3;/q;;;;+2/p-2
computed SMILES=[Sn+2].O=C([O-])CCCCCCCCCCC.O=C([O-])CCCCCCCCCCC.[CH2]CCC.[CH2]CCC
accession=JP008353
date=2016.01.19 (Created 2008.10.21, modified 2011.05.06)
author=UBE SCIENTIFIC ANALYSIS LABORATORY
license=CC BY-NC-SA
exact mass=632.38266
ionization energy=70 eV
ion type=[M]+*
computed spectral entropy=4.278509019493885
computed normalized entropy=0.8585166013820028
SPLASH=splash10-055f-9212420000-766b000f9aef7162a43b
submitter=submitter = University of Tokyo Team (Faculty of Engineering, University of Tokyo)
MoNA Rating=3.75

>  <NUM PEAKS>  (2850) 
146

>  <MASS SPECTRAL PEAKS>  (2850) 
27 32.82
28 3.77
29 75.07
39 19.59
40 2.35
41 77.54
42 24.2
43 99.99
44 2.16
45 11.7
53 4.91
54 2.99
55 38.1
56 17.96
57 69.31
58 4.7
59 2.9
60 34.47
61 4.87
67 2.05
69 9.95
70 4.95
71 11.86
73 23.45
74 1.76
81 1.93
83 2.52
84 3.55
85 9.43
87 3.66
91 2.93
97 2.69
99 1.55
101 3.29
112 2.07
115 1.23
119 2.43
120 1.27
121 3.66
129 5.36
130 1.51
133 16.77
134 8.8
135 28.43
136 8.79
137 33.61
139 5.68
141 2.88
143 1.13
155 1.53
173 3.78
174 2.98
175 5.71
176 4.67
177 10.02
178 2.84
179 3.46
181 1.31
183 3.87
189 1.64
191 2.97
201 3.5
229 2.38
231 3.75
232 1.26
233 5.5
235 1.93
247 1.81
259 2.3
261 4.53
263 4.18
271 1.16
273 1.37
275 1.87
287 8.47
288 5.66
289 13.87
290 6.44
291 15.47
292 3.02
293 2.14
295 2.54
303 1.57
305 1.55
313 4.12
314 2.4
315 24.78
316 15.66
317 40.55
318 17.06
319 45.01
320 6.47
321 7.26
323 7.11
345 2.61
347 3.3
373 4
374 2.36
375 6.41
376 1.89
377 5.03
401 9.12
402 6.66
403 15.97
404 7.92
405 20.6
406 3.11
407 3.41
409 3.56
427 1.07
429 30.1
430 20.44
431 50.09
432 26.04
433 63.2
434 13.2
435 9.56
436 1.83
437 10.67
438 2
457 1
459 3.15
460 1.32
461 4.19
489 1.29
491 1.83
515 2.35
516 2.16
517 4.6
518 2.28
519 6.15
543 6.94
545 17.08
547 22.26
549 6.38
551 2.3
571 12.27
573 29.21
575 39.97
577 7.69
578 5.79
579 4.33
580 1.09
601 1.98
602 1.13
603 2.36

$$$$

     RDKit          2D

 17 13  0  0  0  0  0  0  0  0999 V2000
   -1.2990    3.7500    0.0000 C   0  0  0  0  0  0  0  0  0  0  0  0
    0.0000    4.5000    0.0000 C   0  0  0  0  0  0  0  0  0  0  0  0
   -1.2990    2.2500    0.0000 C   0  0  0  0  0  0  0  0  0  0  0  0
    1.2990    3.7500    0.0000 C   0  0  0  0  0  0  0  0  0  0  0  0
   -2.5981    1.5000    0.0000 O   0  0  0  0  0  0  0  0  0  0  0  0
   -0.0000    1.5000    0.0000 O   0  0  0  0  0  0  0  0  0  0  0  0
    2.5981    4.5000    0.0000 O   0  0  0  0  0  0  0  0  0  0  0  0
    1.2990    2.2500    0.0000 O   0  0  0  0  0  0  0  0  0  0  0  0
   -2.5981    2.2500    0.0000 C   0  0  0  0  0  3  0  0  0  0  0  0
    1.2990    1.5000    0.0000 C   0  0  0  0  0  0  0  0  0  0  0  0
   -1.2990    1.5000    0.0000 C   0  0  0  0  0  0  0  0  0  0  0  0
    0.0000    2.2500    0.0000 C   0  0  0  0  0  0  0  0  0  0  0  0
   -2.5981    2.2500    0.0000 C   0  0  0  0  0  3  0  0  0  0  0  0
    1.2990    1.5000    0.0000 C   0  0  0  0  0  0  0  0  0  0  0  0
   -1.2990    1.5000    0.0000 C   0  0  0  0  0  0  0  0  0  0  0  0
    0.0000    2.2500    0.0000 C   0  0  0  0  0  0  0  0  0  0  0  0
    0.0000    0.0000    0.0000 Sn  0  0  0  0  0 15  0  0  0  0  0  0
  1  2  2  0
  3  1  1  0
  4  2  1  0
  5  3  2  0
  6  3  1  0
  7  4  2  0
  8  4  1  0
 11  9  1  0
 12 10  1  0
 12 11  1  0
 15 13  1  0
 16 14  1  0
 16 15  1  0
M  CHG  3   6  -1   8  -1  17   2
M  RAD  2   9   2  13   2
M  END
>  <NAME>  (2851) 
DIBUTYLTIN MALEATE

>  <SYNONYMS>  (2851) 


>  <SPECTRUM TYPE>  (2851) 
MS1

>  <INSTRUMENT TYPE>  (2851) 
EI-B

>  <INSTRUMENT>  (2851) 
HITACHI M-60

>  <ION MODE>  (2851) 
P

>  <INCHIKEY>  (2851) 
ZBBLRPRYYSJUCZ-GRHBHMESSA-L

>  <FORMULA>  (2851) 
C12H20O4Sn

>  <EXACT MASS>  (2851) 
348.03835382

>  <MW>  (2851) 
348

>  <ID>  (2851) 
JP008352

>  <CONTRIBUTOR>  (2851) 
University of Tokyo Team, {Faculty of Engineering, University of Tokyo

>  <COMMENT>  (2851) 
SMILES=CCCC[Sn](CCCC)(O1)OC(=O)C=CC(=O)1
InChI=InChI=1S/C4H4O4.2C4H9.Sn/c5-3(6)1-2-4(7)8;2*1-3-4-2;/h1-2H,(H,5,6)(H,7,8);2*1,3-4H2,2H3;/q;;;+2/p-2/b2-1-;;;
computed SMILES=[Sn+2].O=C([O-])C=CC(=O)[O-].[CH2]CCC.[CH2]CCC
accession=JP008352
date=2016.01.19 (Created 2008.10.21, modified 2011.05.06)
author=UBE SCIENTIFIC ANALYSIS LABORATORY
license=CC BY-NC-SA
exact mass=348.03836
ionization energy=70 eV
ion type=[M]+*
computed spectral entropy=2.40673115752708
computed normalized entropy=0.6665150567670104
SPLASH=splash10-0ufr-9000000000-174c2a5dd00136e0d771
submitter=submitter = University of Tokyo Team (Faculty of Engineering, University of Tokyo)
MoNA Rating=3.75

>  <NUM PEAKS>  (2851) 
37

>  <MASS SPECTRAL PEAKS>  (2851) 
18 1.01
24 1.1
25 7.6
26 60.91
27 3.15
28 3.95
29 5.19
37 1.51
39 1.03
41 7.9
42 1.68
43 3.84
44 5.4
45 1.4
52 2.73
53 10.54
54 99.99
55 5.97
56 1.44
57 6.98
69 2.88
70 1.28
71 1.46
81 1.3
82 1.89
83 1.49
96 1.11
97 1.19
98 28.51
99 2.35
119 1.07
121 1.04
177 1.11
205 1.23
219 5.34
220 1.59
269 1.04

$$$$

     RDKit          2D

 20 19  0  0  0  0  0  0  0  0999 V2000
   -9.7428    3.3750    0.0000 C   0  0  0  0  0  0  0  0  0  0  0  0
   -8.4437    4.1250    0.0000 C   0  0  0  0  0  0  0  0  0  0  0  0
   -8.4437    5.6250    0.0000 C   0  0  0  0  0  0  0  0  0  0  0  0
   -7.1447    6.3750    0.0000 C   0  0  0  0  0  0  0  0  0  0  0  0
   -7.1447    7.8750    0.0000 C   0  0  0  0  0  0  0  0  0  0  0  0
   -5.8457    8.6250    0.0000 C   0  0  0  0  0  0  0  0  0  0  0  0
   -5.8457   10.1250    0.0000 C   0  0  0  0  0  0  0  0  0  0  0  0
   -4.5466   10.8750    0.0000 C   0  0  0  0  0  0  0  0  0  0  0  0
   -4.5466   12.3750    0.0000 C   0  0  0  0  0  0  0  0  0  0  0  0
   -3.2476   13.1250    0.0000 C   0  0  0  0  0  0  0  0  0  0  0  0
   -1.9486   12.3750    0.0000 C   0  0  0  0  0  0  0  0  0  0  0  0
   -0.6495   13.1250    0.0000 C   0  0  0  0  0  0  0  0  0  0  0  0
    0.6495   12.3750    0.0000 C   0  0  0  0  0  0  0  0  0  0  0  0
    1.9486   13.1250    0.0000 C   0  0  0  0  0  0  0  0  0  0  0  0
    3.2476   12.3750    0.0000 C   0  0  0  0  0  0  0  0  0  0  0  0
    4.5466   13.1250    0.0000 C   0  0  0  0  0  0  0  0  0  0  0  0
    5.8457   12.3750    0.0000 C   0  0  0  0  0  0  0  0  0  0  0  0
    7.1447   13.1250    0.0000 C   0  0  0  0  0  0  0  0  0  0  0  0
    8.4437   12.3750    0.0000 N   0  0  0  0  0  0  0  0  0  0  0  0
    7.1447   14.6250    0.0000 O   0  0  0  0  0  0  0  0  0  0  0  0
  2  1  1  0
  3  2  1  0
  4  3  1  0
  5  4  1  0
  6  5  1  0
  7  6  1  0
  8  7  1  0
  9  8  1  0
  9 10  2  0
 11 10  1  0
 12 11  1  0
 13 12  1  0
 14 13  1  0
 15 14  1  0
 16 15  1  0
 17 16  1  0
 18 17  1  0
 19 18  2  0
 20 18  1  0
M  END
>  <NAME>  (2852) 
OLEYL AMIDE

>  <SYNONYMS>  (2852) 


>  <SPECTRUM TYPE>  (2852) 
MS1

>  <INSTRUMENT TYPE>  (2852) 
EI-B

>  <INSTRUMENT>  (2852) 
HITACHI M-60

>  <ION MODE>  (2852) 
P

>  <INCHIKEY>  (2852) 
FATBGEAMYMYZAF-KTKRTIGZSA-N

>  <FORMULA>  (2852) 
C18H35NO

>  <EXACT MASS>  (2852) 
281.27186474

>  <MW>  (2852) 
281

>  <ID>  (2852) 
JP008351

>  <CONTRIBUTOR>  (2852) 
University of Tokyo Team, {Faculty of Engineering, University of Tokyo

>  <COMMENT>  (2852) 
SMILES=CCCCCCCCC=CCCCCCCCC(N)=O
InChI=InChI=1S/C18H35NO/c1-2-3-4-5-6-7-8-9-10-11-12-13-14-15-16-17-18(19)20/h9-10H,2-8,11-17H2,1H3,(H2,19,20)/b10-9-
computed SMILES=N=C(O)CCCCCCCC=CCCCCCCCC
accession=JP008351
date=2016.01.19 (Created 2008.10.21, modified 2011.05.06)
author=UBE SCIENTIFIC ANALYSIS LABORATORY
license=CC BY-NC-SA
exact mass=281.27186
ionization energy=70 eV
ion type=[M]+*
computed spectral entropy=3.2484673926508343
computed normalized entropy=0.8034692556324438
SPLASH=splash10-0a4i-9000000000-97b84b2740298afd1c1d
submitter=submitter = University of Tokyo Team (Faculty of Engineering, University of Tokyo)
MoNA Rating=3.75

>  <NUM PEAKS>  (2852) 
57

>  <MASS SPECTRAL PEAKS>  (2852) 
27 5.67
29 14.62
39 4.48
41 31
42 4.8
43 27.39
44 12.33
45 1.03
53 2.25
54 6.66
55 30.5
56 7.18
57 12.9
59 99.99
60 11.56
67 9.13
68 3.09
69 17.73
70 4.55
71 4.92
72 45.68
73 6.79
79 1.99
80 1.06
81 8.03
82 3.89
83 8.4
84 3.74
85 2.65
86 4.59
94 1.01
95 4.17
96 2.89
97 6.27
98 6.23
99 1.4
100 2.82
109 2.23
110 2.27
111 2.57
112 4.22
113 1.5
114 3.62
115 1.06
122 2.59
123 1.93
124 1.33
125 1.04
126 4.26
127 1.06
128 3.27
136 2.17
137 1.7
138 1.02
140 1.51
154 1.4
281 2.49

$$$$

     RDKit          2D

 46 45  0  0  0  0  0  0  0  0999 V2000
   14.2894   24.0000    0.0000 C   0  0  0  0  0  0  0  0  0  0  0  0
  -41.5692   24.7500    0.0000 C   0  0  0  0  0  0  0  0  0  0  0  0
   12.9904   24.7500    0.0000 C   0  0  0  0  0  0  0  0  0  0  0  0
  -40.2702   24.0000    0.0000 C   0  0  0  0  0  0  0  0  0  0  0  0
   11.6913   24.0000    0.0000 C   0  0  0  0  0  0  0  0  0  0  0  0
  -38.9711   24.7500    0.0000 C   0  0  0  0  0  0  0  0  0  0  0  0
   10.3923   24.7500    0.0000 C   0  0  0  0  0  0  0  0  0  0  0  0
  -37.6721   24.0000    0.0000 C   0  0  0  0  0  0  0  0  0  0  0  0
    9.0933   24.0000    0.0000 C   0  0  0  0  0  0  0  0  0  0  0  0
  -36.3731   24.7500    0.0000 C   0  0  0  0  0  0  0  0  0  0  0  0
    7.7942   24.7500    0.0000 C   0  0  0  0  0  0  0  0  0  0  0  0
  -35.0740   24.0000    0.0000 C   0  0  0  0  0  0  0  0  0  0  0  0
    6.4952   24.0000    0.0000 C   0  0  0  0  0  0  0  0  0  0  0  0
  -33.7750   24.7500    0.0000 C   0  0  0  0  0  0  0  0  0  0  0  0
    5.1962   24.7500    0.0000 C   0  0  0  0  0  0  0  0  0  0  0  0
  -32.4760   24.0000    0.0000 C   0  0  0  0  0  0  0  0  0  0  0  0
    3.8971   24.0000    0.0000 C   0  0  0  0  0  0  0  0  0  0  0  0
  -31.1769   24.7500    0.0000 C   0  0  0  0  0  0  0  0  0  0  0  0
    2.5981   24.7500    0.0000 C   0  0  0  0  0  0  0  0  0  0  0  0
  -29.8779   24.0000    0.0000 C   0  0  0  0  0  0  0  0  0  0  0  0
    1.2990   24.0000    0.0000 C   0  0  0  0  0  0  0  0  0  0  0  0
  -28.5788   24.7500    0.0000 C   0  0  0  0  0  0  0  0  0  0  0  0
    0.0000   24.7500    0.0000 C   0  0  0  0  0  0  0  0  0  0  0  0
  -27.2798   24.0000    0.0000 C   0  0  0  0  0  0  0  0  0  0  0  0
   -1.2990   24.0000    0.0000 C   0  0  0  0  0  0  0  0  0  0  0  0
  -25.9808   24.7500    0.0000 C   0  0  0  0  0  0  0  0  0  0  0  0
   -2.5981   24.7500    0.0000 C   0  0  0  0  0  0  0  0  0  0  0  0
  -24.6817   24.0000    0.0000 C   0  0  0  0  0  0  0  0  0  0  0  0
   -3.8971   24.0000    0.0000 C   0  0  0  0  0  0  0  0  0  0  0  0
  -23.3827   24.7500    0.0000 C   0  0  0  0  0  0  0  0  0  0  0  0
   -5.1962   24.7500    0.0000 C   0  0  0  0  0  0  0  0  0  0  0  0
  -22.0836   24.0000    0.0000 C   0  0  0  0  0  0  0  0  0  0  0  0
  -12.9904   24.7500    0.0000 C   0  0  0  0  0  0  0  0  0  0  0  0
  -14.2894   24.0000    0.0000 C   0  0  0  0  0  0  0  0  0  0  0  0
   -6.4952   24.0000    0.0000 C   0  0  0  0  0  0  0  0  0  0  0  0
  -20.7846   24.7500    0.0000 C   0  0  0  0  0  0  0  0  0  0  0  0
  -11.6913   24.0000    0.0000 C   0  0  0  0  0  0  0  0  0  0  0  0
  -15.5885   24.7500    0.0000 C   0  0  0  0  0  0  0  0  0  0  0  0
   -7.7942   24.7500    0.0000 C   0  0  0  0  0  0  0  0  0  0  0  0
  -19.4856   24.0000    0.0000 C   0  0  0  0  0  0  0  0  0  0  0  0
  -10.3923   24.7500    0.0000 C   0  0  0  0  0  0  0  0  0  0  0  0
  -16.8875   24.0000    0.0000 C   0  0  0  0  0  0  0  0  0  0  0  0
   -9.0933   24.0000    0.0000 N   0  0  0  0  0  0  0  0  0  0  0  0
  -18.1865   24.7500    0.0000 N   0  0  0  0  0  0  0  0  0  0  0  0
  -10.3923   26.2500    0.0000 O   0  0  0  0  0  0  0  0  0  0  0  0
  -16.8875   22.5000    0.0000 O   0  0  0  0  0  0  0  0  0  0  0  0
  3  1  1  0
  4  2  1  0
  5  3  1  0
  6  4  1  0
  7  5  1  0
  8  6  1  0
  9  7  1  0
 10  8  1  0
 11  9  1  0
 12 10  1  0
 13 11  1  0
 14 12  1  0
 15 13  1  0
 16 14  1  0
 17 15  1  0
 18 16  1  0
 19 17  1  0
 20 18  1  0
 21 19  1  0
 22 20  1  0
 23 21  1  0
 24 22  1  0
 25 23  1  0
 26 24  1  0
 27 25  1  0
 28 26  1  0
 29 27  1  0
 30 28  1  0
 31 29  1  0
 32 30  1  0
 34 33  1  0
 35 31  1  0
 36 32  1  0
 37 33  1  0
 38 34  1  0
 39 35  1  0
 40 36  1  0
 41 37  1  0
 42 38  1  0
 43 39  1  0
 43 41  2  3
 44 40  1  0
 44 42  2  3
 45 41  1  0
 46 42  1  0
M  END
>  <NAME>  (2853) 
N,N'-DIOCTADECYL ADIPIC AMIDE

>  <SYNONYMS>  (2853) 


>  <SPECTRUM TYPE>  (2853) 
MS1

>  <INSTRUMENT TYPE>  (2853) 
EI-B

>  <INSTRUMENT>  (2853) 
HITACHI M-60

>  <ION MODE>  (2853) 
P

>  <INCHIKEY>  (2853) 
QIJSQGXDFAYEAF-UHFFFAOYSA-N

>  <FORMULA>  (2853) 
C42H84N2O2

>  <EXACT MASS>  (2853) 
648.6532799280001

>  <MW>  (2853) 
648

>  <ID>  (2853) 
JP008350

>  <CONTRIBUTOR>  (2853) 
University of Tokyo Team, {Faculty of Engineering, University of Tokyo

>  <COMMENT>  (2853) 
SMILES=C(CNC(CCCCC(=O)NCCCCCCCCCCCCCCCCCC)=O)CCCCCCCCCCCCCCCC
InChI=InChI=1S/C42H84N2O2/c1-3-5-7-9-11-13-15-17-19-21-23-25-27-29-31-35-39-43-41(45)37-33-34-38-42(46)44-40-36-32-30-28-26-24-22-20-18-16-14-12-10-8-6-4-2/h3-40H2,1-2H3,(H,43,45)(H,44,46)
computed SMILES=OC(=NCCCCCCCCCCCCCCCCCC)CCCCC(O)=NCCCCCCCCCCCCCCCCCC
accession=JP008350
date=2016.01.19 (Created 2008.10.21, modified 2011.05.06)
author=UBE SCIENTIFIC ANALYSIS LABORATORY
license=CC BY-NC-SA
exact mass=648.65328
ionization energy=70 eV
ion type=[M]+*
computed spectral entropy=4.09385735952777
computed normalized entropy=0.8709444654466968
SPLASH=splash10-052f-9101000000-f6637f17e8228e02a003
submitter=submitter = University of Tokyo Team (Faculty of Engineering, University of Tokyo)
MoNA Rating=3.75

>  <NUM PEAKS>  (2853) 
110

>  <MASS SPECTRAL PEAKS>  (2853) 
27 10.96
29 27.51
30 80.07
39 5.6
41 47.98
42 11.58
43 99.99
44 29.13
45 6.91
54 6.77
55 55.62
56 21.27
57 82.42
58 12.1
59 5.43
60 10.46
67 13.71
68 7.48
69 33.71
70 18.17
71 29.64
72 12.33
73 20.94
81 7.88
82 13.08
83 25.78
84 24.34
85 21.86
86 16.15
87 9.37
95 8.18
96 7.92
97 26.69
98 13.26
99 10.14
100 17.32
101 6.81
109 3.11
110 6.63
111 13.2
112 10.83
113 5.45
114 14.04
115 4.85
125 5.7
126 6.41
127 1.52
128 11.12
129 6.56
139 5.23
140 7.31
141 8.26
142 5.66
153 2.74
154 3.4
155 1.9
156 5.44
157 2
167 1.79
168 7.92
170 2.62
182 2.18
184 5.64
196 1.23
198 2.59
212 3.2
224 1.57
226 2.87
227 1.62
240 5.91
241 2.22
252 1.2
254 5.27
255 1.2
267 1.19
268 8.87
269 4.24
270 4.83
280 4.38
281 1.26
282 3.06
283 6.09
284 5.98
296 16.71
297 5.61
307 2.39
308 1.99
309 4.34
310 5.64
311 34.99
312 9.45
324 18.69
325 6.16
338 8.41
339 1.5
340 1.43
350 2.24
352 5.45
353 2.25
366 1.21
368 1.79
380 8.65
381 3.42
408 1.42
479 1.2
507 2.95
534 1.27
535 6.29
536 2.65
648 1.31

$$$$

     RDKit          2D

 20 19  0  0  0  0  0  0  0  0999 V2000
    5.8457   10.1250    0.0000 C   0  0  0  0  0  0  0  0  0  0  0  0
    4.5466   10.8750    0.0000 C   0  0  0  0  0  0  0  0  0  0  0  0
    3.2476   10.1250    0.0000 C   0  0  0  0  0  0  0  0  0  0  0  0
    1.9486   10.8750    0.0000 C   0  0  0  0  0  0  0  0  0  0  0  0
    0.6495   10.1250    0.0000 C   0  0  0  0  0  0  0  0  0  0  0  0
   -0.6495   10.8750    0.0000 C   0  0  0  0  0  0  0  0  0  0  0  0
   -1.9486   10.1250    0.0000 C   0  0  0  0  0  0  0  0  0  0  0  0
   -3.2476   10.8750    0.0000 C   0  0  0  0  0  0  0  0  0  0  0  0
   -4.5466   10.1250    0.0000 C   0  0  0  0  0  0  0  0  0  0  0  0
   -5.8457   10.8750    0.0000 C   0  0  0  0  0  0  0  0  0  0  0  0
   -7.1447   10.1250    0.0000 C   0  0  0  0  0  0  0  0  0  0  0  0
   -8.4437   10.8750    0.0000 C   0  0  0  0  0  0  0  0  0  0  0  0
   -9.7428   10.1250    0.0000 C   0  0  0  0  0  0  0  0  0  0  0  0
  -11.0418   10.8750    0.0000 C   0  0  0  0  0  0  0  0  0  0  0  0
  -12.3409   10.1250    0.0000 C   0  0  0  0  0  0  0  0  0  0  0  0
  -13.6399   10.8750    0.0000 C   0  0  0  0  0  0  0  0  0  0  0  0
  -14.9389   10.1250    0.0000 C   0  0  0  0  0  0  0  0  0  0  0  0
  -16.2380   10.8750    0.0000 C   0  0  0  0  0  0  0  0  0  0  0  0
  -17.5370   10.1250    0.0000 N   0  0  0  0  0  0  0  0  0  0  0  0
  -16.2380   12.3750    0.0000 O   0  0  0  0  0  0  0  0  0  0  0  0
  2  1  1  0
  3  2  1  0
  4  3  1  0
  5  4  1  0
  6  5  1  0
  7  6  1  0
  8  7  1  0
  9  8  1  0
 10  9  1  0
 11 10  1  0
 12 11  1  0
 13 12  1  0
 14 13  1  0
 15 14  1  0
 16 15  1  0
 17 16  1  0
 18 17  1  0
 19 18  2  0
 20 18  1  0
M  END
>  <NAME>  (2854) 
STEARYLAMIDE

>  <SYNONYMS>  (2854) 


>  <SPECTRUM TYPE>  (2854) 
MS1

>  <INSTRUMENT TYPE>  (2854) 
EI-B

>  <INSTRUMENT>  (2854) 
HITACHI M-60

>  <ION MODE>  (2854) 
P

>  <INCHIKEY>  (2854) 
LYRFLYHAGKPMFH-UHFFFAOYSA-N

>  <FORMULA>  (2854) 
C18H37NO

>  <EXACT MASS>  (2854) 
283.287514804

>  <MW>  (2854) 
283

>  <ID>  (2854) 
JP008349

>  <CONTRIBUTOR>  (2854) 
University of Tokyo Team, {Faculty of Engineering, University of Tokyo

>  <COMMENT>  (2854) 
SMILES=CCCCCCCCCCCCCCCCCC(N)=O
InChI=InChI=1S/C18H37NO/c1-2-3-4-5-6-7-8-9-10-11-12-13-14-15-16-17-18(19)20/h2-17H2,1H3,(H2,19,20)
computed SMILES=N=C(O)CCCCCCCCCCCCCCCCC
accession=JP008349
date=2016.01.19 (Created 2008.10.21, modified 2011.05.06)
license=CC BY-NC-SA
author=UBE SCIENTIFIC ANALYSIS LABORATORY
exact mass=283.28751
ionization energy=70 eV
ion type=[M]+*
computed spectral entropy=2.797331183930795
computed normalized entropy=0.7437336748605755
SPLASH=splash10-0a4i-9000000000-9e0257218bfc5bd50b10
submitter=submitter = University of Tokyo Team (Faculty of Engineering, University of Tokyo)
MoNA Rating=3.75

>  <NUM PEAKS>  (2854) 
43

>  <MASS SPECTRAL PEAKS>  (2854) 
27 2.39
29 8.19
39 1.54
41 14.21
42 3.38
43 22.42
44 7.03
54 1.06
55 13.23
56 3.06
57 12.17
58 1.4
59 99.99
60 12.36
61 1.26
67 1.34
69 6.03
70 1.85
71 4.54
72 36.39
73 10.12
74 1.74
81 1.13
83 3.51
84 1.54
85 1.97
86 5.36
87 1.9
97 2.82
98 2.9
100 1.74
101 1.81
111 1.14
114 4.16
115 2.25
128 4.79
129 1.47
142 1.02
170 1.12
184 1.09
240 2.03
283 2.46
284 1.78

$$$$

     RDKit          2D

 42 41  0  0  0  0  0  0  0  0999 V2000
   12.9904   21.7500    0.0000 C   0  0  0  0  0  0  0  0  0  0  0  0
  -37.6721   22.5000    0.0000 C   0  0  0  0  0  0  0  0  0  0  0  0
   11.6913   22.5000    0.0000 C   0  0  0  0  0  0  0  0  0  0  0  0
  -36.3731   21.7500    0.0000 C   0  0  0  0  0  0  0  0  0  0  0  0
   10.3923   21.7500    0.0000 C   0  0  0  0  0  0  0  0  0  0  0  0
  -35.0740   22.5000    0.0000 C   0  0  0  0  0  0  0  0  0  0  0  0
    9.0933   22.5000    0.0000 C   0  0  0  0  0  0  0  0  0  0  0  0
  -33.7750   21.7500    0.0000 C   0  0  0  0  0  0  0  0  0  0  0  0
    7.7942   21.7500    0.0000 C   0  0  0  0  0  0  0  0  0  0  0  0
  -32.4760   22.5000    0.0000 C   0  0  0  0  0  0  0  0  0  0  0  0
    6.4952   22.5000    0.0000 C   0  0  0  0  0  0  0  0  0  0  0  0
  -31.1769   21.7500    0.0000 C   0  0  0  0  0  0  0  0  0  0  0  0
    5.1962   21.7500    0.0000 C   0  0  0  0  0  0  0  0  0  0  0  0
  -29.8779   22.5000    0.0000 C   0  0  0  0  0  0  0  0  0  0  0  0
    3.8971   22.5000    0.0000 C   0  0  0  0  0  0  0  0  0  0  0  0
  -28.5788   21.7500    0.0000 C   0  0  0  0  0  0  0  0  0  0  0  0
    2.5981   21.7500    0.0000 C   0  0  0  0  0  0  0  0  0  0  0  0
  -27.2798   22.5000    0.0000 C   0  0  0  0  0  0  0  0  0  0  0  0
    1.2990   22.5000    0.0000 C   0  0  0  0  0  0  0  0  0  0  0  0
  -25.9808   21.7500    0.0000 C   0  0  0  0  0  0  0  0  0  0  0  0
    0.0000   21.7500    0.0000 C   0  0  0  0  0  0  0  0  0  0  0  0
  -24.6817   22.5000    0.0000 C   0  0  0  0  0  0  0  0  0  0  0  0
   -1.2990   22.5000    0.0000 C   0  0  0  0  0  0  0  0  0  0  0  0
  -23.3827   21.7500    0.0000 C   0  0  0  0  0  0  0  0  0  0  0  0
   -2.5981   21.7500    0.0000 C   0  0  0  0  0  0  0  0  0  0  0  0
  -22.0836   22.5000    0.0000 C   0  0  0  0  0  0  0  0  0  0  0  0
   -3.8971   22.5000    0.0000 C   0  0  0  0  0  0  0  0  0  0  0  0
  -20.7846   21.7500    0.0000 C   0  0  0  0  0  0  0  0  0  0  0  0
   -5.1962   21.7500    0.0000 C   0  0  0  0  0  0  0  0  0  0  0  0
  -19.4856   22.5000    0.0000 C   0  0  0  0  0  0  0  0  0  0  0  0
   -6.4952   22.5000    0.0000 C   0  0  0  0  0  0  0  0  0  0  0  0
  -18.1865   21.7500    0.0000 C   0  0  0  0  0  0  0  0  0  0  0  0
   -7.7942   21.7500    0.0000 C   0  0  0  0  0  0  0  0  0  0  0  0
  -16.8875   22.5000    0.0000 C   0  0  0  0  0  0  0  0  0  0  0  0
  -11.6913   22.5000    0.0000 C   0  0  0  0  0  0  0  0  0  0  0  0
  -12.9904   21.7500    0.0000 C   0  0  0  0  0  0  0  0  0  0  0  0
   -9.0933   22.5000    0.0000 C   0  0  0  0  0  0  0  0  0  0  0  0
  -15.5885   21.7500    0.0000 C   0  0  0  0  0  0  0  0  0  0  0  0
  -10.3923   21.7500    0.0000 N   0  0  0  0  0  0  0  0  0  0  0  0
  -14.2894   22.5000    0.0000 N   0  0  0  0  0  0  0  0  0  0  0  0
   -9.0933   24.0000    0.0000 O   0  0  0  0  0  0  0  0  0  0  0  0
  -15.5885   20.2500    0.0000 O   0  0  0  0  0  0  0  0  0  0  0  0
  3  1  1  0
  4  2  1  0
  5  3  1  0
  6  4  1  0
  7  5  1  0
  8  6  1  0
  9  7  1  0
 10  8  1  0
 11  9  1  0
 12 10  1  0
 13 11  1  0
 14 12  1  0
 15 13  1  0
 16 14  1  0
 17 15  1  0
 18 16  1  0
 19 17  1  0
 20 18  1  0
 21 19  1  0
 22 20  1  0
 23 21  1  0
 24 22  1  0
 25 23  1  0
 26 24  1  0
 27 25  1  0
 28 26  1  0
 29 27  1  0
 30 28  1  0
 31 29  1  0
 32 30  1  0
 33 31  1  0
 34 32  1  0
 36 35  1  0
 37 33  1  0
 38 34  1  0
 39 35  1  0
 39 37  2  3
 40 36  1  0
 40 38  2  3
 41 37  1  0
 42 38  1  0
M  END
>  <NAME>  (2855) 
ETHYLENEBIS(STEARYLAMIDE)

>  <SYNONYMS>  (2855) 


>  <SPECTRUM TYPE>  (2855) 
MS1

>  <INSTRUMENT TYPE>  (2855) 
EI-B

>  <INSTRUMENT>  (2855) 
HITACHI M-60

>  <ION MODE>  (2855) 
P

>  <INCHIKEY>  (2855) 
RKISUIUJZGSLEV-UHFFFAOYSA-N

>  <FORMULA>  (2855) 
C38H76N2O2

>  <EXACT MASS>  (2855) 
592.590679672

>  <MW>  (2855) 
592

>  <ID>  (2855) 
JP008348

>  <CONTRIBUTOR>  (2855) 
University of Tokyo Team, {Faculty of Engineering, University of Tokyo

>  <COMMENT>  (2855) 
SMILES=C(CCCCCCCCCCC(NCCNC(CCCCCCCCCCCCCCCCC)=O)=O)CCCCCC
InChI=InChI=1S/C38H76N2O2/c1-3-5-7-9-11-13-15-17-19-21-23-25-27-29-31-33-37(41)39-35-36-40-38(42)34-32-30-28-26-24-22-20-18-16-14-12-10-8-6-4-2/h3-36H2,1-2H3,(H,39,41)(H,40,42)
computed SMILES=OC(=NCCN=C(O)CCCCCCCCCCCCCCCCC)CCCCCCCCCCCCCCCCC
accession=JP008348
date=2016.01.19 (Created 2008.10.21, modified 2011.05.06)
author=UBE SCIENTIFIC ANALYSIS LABORATORY
license=CC BY-NC-SA
exact mass=592.59068
ionization energy=70 eV
ion type=[M]+*
computed spectral entropy=4.272288229857179
computed normalized entropy=0.8572683508460137
SPLASH=splash10-000x-9211000000-169cffbbd7e6d00215f5
submitter=submitter = University of Tokyo Team (Faculty of Engineering, University of Tokyo)
MoNA Rating=3.75

>  <NUM PEAKS>  (2855) 
146

>  <MASS SPECTRAL PEAKS>  (2855) 
27 7.2
29 17.04
30 47.53
39 4.91
41 37.49
42 11
43 99.99
44 81.54
45 4.7
53 1.57
54 4.79
55 44.8
56 11.71
57 55.37
58 10.05
59 11.51
60 6.87
61 9.76
67 7.65
68 5.01
69 18.88
70 9.65
71 24.69
72 8.38
73 32.19
74 1.87
81 6.82
82 4.51
83 17.25
84 69.99
85 33.33
86 25
87 22.31
95 5.35
96 3.56
97 36.93
98 42.27
99 7.98
100 8.83
101 2.93
102 2.75
103 12.12
109 3.57
110 2.2
111 9.81
112 9.9
113 3.64
114 2.49
115 5.44
123 2.25
124 2.12
125 5.01
126 13.14
127 2.58
128 4.28
129 3.39
137 1.06
139 14.14
140 4.75
141 1.2
142 4.96
143 1.21
144 25.25
145 1.95
153 3.52
154 4.7
155 1.27
156 3
157 14.68
158 2.24
167 2.1
168 4.03
170 2.86
171 3
181 2.34
182 3.48
184 2.67
185 1.78
186 1.17
195 1.7
196 2.76
198 2.76
199 2.95
209 3.35
210 2.08
212 2.34
213 3.21
223 2.11
224 2.05
226 2.79
227 1.81
228 1.11
237 2.41
238 3.09
239 3.75
240 2.38
241 1.78
251 2.74
252 3.01
253 2.54
254 2.93
255 2.18
256 8.42
265 1.75
266 2.75
267 4.43
268 2.23
269 3.32
270 1.41
279 5.27
280 6.15
281 12.78
282 7.97
283 3.36
284 12.93
285 2.53
294 1.35
295 1.52
296 2.1
297 6.54
298 1.74
299 2.5
307 9.53
308 10.16
309 26.69
310 15.77
311 5
312 2.65
322 3.7
325 5.21
326 1.82
327 4.66
335 3.46
340 11.01
341 2.3
350 5.05
351 1.12
353 2.69
354 1.24
363 2.02
368 14.19
369 3.54
381 4.05
382 1.05
564 1.92
592 1.72

$$$$

     RDKit          2D

 23 25  0  0  0  0  0  0  0  0999 V2000
   -1.6700   -0.9600    0.0000 C   0  0  0  0  0  0  0  0  0  0  0  0
    4.8248    5.7923    0.0000 C   0  0  0  0  0  0  0  0  0  0  0  0
    8.9258    0.1725    0.0000 C   0  0  0  0  0  0  0  0  0  0  0  0
   -1.6700    0.5400    0.0000 C   0  0  0  0  0  0  0  0  0  0  0  0
   -0.3700   -1.7100    0.0000 C   0  0  0  0  0  0  0  0  0  0  0  0
    3.5260    5.0419    0.0000 C   0  0  0  0  0  0  0  0  0  0  0  0
    6.1246    5.0419    0.0000 C   0  0  0  0  0  0  0  0  0  0  0  0
    8.4128   -1.2370    0.0000 C   0  0  0  0  0  0  0  0  0  0  0  0
    7.9608    1.3219    0.0000 C   0  0  0  0  0  0  0  0  0  0  0  0
   -0.3700    1.2900    0.0000 C   0  0  0  0  0  0  0  0  0  0  0  0
    0.9300   -0.9600    0.0000 C   0  0  0  0  0  0  0  0  0  0  0  0
    3.5270    3.5410    0.0000 C   0  0  0  0  0  0  0  0  0  0  0  0
    6.1256    3.5410    0.0000 C   0  0  0  0  0  0  0  0  0  0  0  0
    6.9347   -1.4972    0.0000 C   0  0  0  0  0  0  0  0  0  0  0  0
    6.4826    1.0618    0.0000 C   0  0  0  0  0  0  0  0  0  0  0  0
    0.9300    0.5400    0.0000 C   0  0  0  0  0  0  0  0  0  0  0  0
    4.8268    2.7906    0.0000 C   0  0  0  0  0  0  0  0  0  0  0  0
    5.9696   -0.3478    0.0000 C   0  0  0  0  0  0  0  0  0  0  0  0
    2.5641   -0.6088    0.0000 O   0  0  0  0  0  0  0  0  0  0  0  0
    2.2289    1.2902    0.0000 O   0  0  0  0  0  0  0  0  0  0  0  0
    4.8270    1.2906    0.0000 O   0  0  0  0  0  0  0  0  0  0  0  0
    4.4924   -0.6085    0.0000 O   0  0  0  0  0  0  0  0  0  0  0  0
    3.5281    0.5404    0.0000 P   0  0  0  0  0  0  0  0  0  0  0  0
  4  1  2  0
  5  1  1  0
  6  2  2  0
  7  2  1  0
  8  3  2  0
  9  3  1  0
 10  4  1  0
 11  5  2  0
 12  6  1  0
 13  7  2  0
 14  8  1  0
 15  9  2  0
 16 10  2  0
 16 11  1  0
 17 12  2  0
 17 13  1  0
 18 14  2  0
 18 15  1  0
 20 16  1  0
 21 17  1  0
 22 18  1  0
 23 19  2  0
 23 20  1  0
 23 21  1  0
 23 22  1  0
M  END
>  <NAME>  (2856) 
TRIPHENYL PHOSPHATE

>  <SYNONYMS>  (2856) 


>  <SPECTRUM TYPE>  (2856) 
MS1

>  <INSTRUMENT TYPE>  (2856) 
EI-B

>  <INSTRUMENT>  (2856) 
HITACHI M-60

>  <ION MODE>  (2856) 
P

>  <INCHIKEY>  (2856) 
XZZNDPSIHUTMOC-UHFFFAOYSA-N

>  <FORMULA>  (2856) 
C18H15O4P

>  <EXACT MASS>  (2856) 
326.07079559000005

>  <MW>  (2856) 
326

>  <ID>  (2856) 
JP008347

>  <CONTRIBUTOR>  (2856) 
University of Tokyo Team, {Faculty of Engineering, University of Tokyo

>  <COMMENT>  (2856) 
SMILES=c(c3)ccc(c3)OP(=O)(Oc(c2)cccc2)Oc(c1)cccc1
InChI=InChI=1S/C18H15O4P/c19-23(20-16-10-4-1-5-11-16,21-17-12-6-2-7-13-17)22-18-14-8-3-9-15-18/h1-15H
computed SMILES=O=P(OC=1C=CC=CC1)(OC=2C=CC=CC2)OC=3C=CC=CC3
accession=JP008347
date=2016.01.19 (Created 2008.10.21, modified 2011.05.06)
author=UBE SCIENTIFIC ANALYSIS LABORATORY
license=CC BY-NC-SA
exact mass=326.0708
ionization energy=70 eV
ion type=[M]+*
computed spectral entropy=3.1470029146830645
computed normalized entropy=0.8129267650570838
SPLASH=splash10-004i-9336000000-d5f0a955dd67a5d5f186
submitter=submitter = University of Tokyo Team (Faculty of Engineering, University of Tokyo)
MoNA Rating=3.75

>  <NUM PEAKS>  (2856) 
48

>  <MASS SPECTRAL PEAKS>  (2856) 
27 2.54
38 1.51
39 32.89
47 6.72
50 5.25
51 31.62
55 1.14
63 6.3
64 3.59
65 48.18
66 5.71
76 2.31
77 80.48
78 5.46
81 1.33
92 1.87
93 9.24
94 27.02
95 2.32
115 3.7
139 6.33
140 7.75
141 10.34
142 3.83
151 2.11
152 6.34
153 2
156 2.96
168 12.49
169 18.01
170 32.48
171 3.37
215 19.15
216 2.53
227 2.76
228 12.41
229 5.34
231 1.84
232 12.06
233 23.74
234 3.04
245 1.74
246 3.87
249 4.86
325 70.42
326 99.99
327 20.22
328 2.77

$$$$

     RDKit          2D

 11 10  0  0  0  0  0  0  0  0999 V2000
    2.2841    2.8734    0.0000 C   0  0  0  0  0  0  0  0  0  0  0  0
   -5.5102    2.8734    0.0000 C   0  0  0  0  0  0  0  0  0  0  0  0
   -3.0284    7.3311    0.0000 C   0  0  0  0  0  0  0  0  0  0  0  0
    0.9850    3.6234    0.0000 C   0  0  0  0  0  0  0  0  0  0  0  0
   -4.2111    3.6234    0.0000 C   0  0  0  0  0  0  0  0  0  0  0  0
   -2.0642    6.1820    0.0000 C   0  0  0  0  0  0  0  0  0  0  0  0
   -0.6489    4.7725    0.0000 O   0  0  0  0  0  0  0  0  0  0  0  0
   -0.3140    2.8734    0.0000 O   0  0  0  0  0  0  0  0  0  0  0  0
   -2.9121    2.8734    0.0000 O   0  0  0  0  0  0  0  0  0  0  0  0
   -2.5772    4.7725    0.0000 O   0  0  0  0  0  0  0  0  0  0  0  0
   -1.6131    3.6234    0.0000 P   0  0  0  0  0  0  0  0  0  0  0  0
  4  1  1  0
  5  2  1  0
  6  3  1  0
  8  4  1  0
  9  5  1  0
 10  6  1  0
 11  7  2  0
 11  8  1  0
 11  9  1  0
 11 10  1  0
M  END
>  <NAME>  (2857) 
TRIETHYL PHOSPHATE

>  <SYNONYMS>  (2857) 


>  <SPECTRUM TYPE>  (2857) 
MS1

>  <INSTRUMENT TYPE>  (2857) 
EI-B

>  <INSTRUMENT>  (2857) 
HITACHI M-60

>  <ION MODE>  (2857) 
P

>  <INCHIKEY>  (2857) 
DQWPFSLDHJDLRL-UHFFFAOYSA-N

>  <FORMULA>  (2857) 
C6H15O4P

>  <EXACT MASS>  (2857) 
182.07079559

>  <MW>  (2857) 
182

>  <ID>  (2857) 
JP008345

>  <CONTRIBUTOR>  (2857) 
University of Tokyo Team, {Faculty of Engineering, University of Tokyo

>  <COMMENT>  (2857) 
SMILES=CCOP(=O)(OCC)OCC
InChI=InChI=1S/C6H15O4P/c1-4-8-11(7,9-5-2)10-6-3/h4-6H2,1-3H3
computed SMILES=O=P(OCC)(OCC)OCC
accession=JP008345
date=2016.01.19 (Created 2008.10.21, modified 2011.05.06)
author=UBE SCIENTIFIC ANALYSIS LABORATORY
license=CC BY-NC-SA
exact mass=182.0708
ionization energy=70 eV
ion type=[M]+*
computed spectral entropy=2.9787128106272958
computed normalized entropy=0.8130647436420632
SPLASH=splash10-0a7j-8900000000-71882ad05d1388e48be8
submitter=submitter = University of Tokyo Team (Faculty of Engineering, University of Tokyo)
MoNA Rating=3.75

>  <NUM PEAKS>  (2857) 
39

>  <MASS SPECTRAL PEAKS>  (2857) 
15 6.32
19 1.68
26 4.92
27 20.57
29 34.53
30 1.25
31 7.09
42 1.06
43 3.44
45 21.89
46 1.83
47 2.85
65 5.8
81 46.25
82 32.49
83 9.48
91 9.66
93 2.05
99 90.55
104 2.27
109 36.16
110 8.26
111 14.64
125 17.15
126 6.77
127 58.54
128 1.37
132 2.09
137 9.71
138 11.37
139 9.06
153 4.63
154 2.12
155 99.99
156 4.3
167 3.99
181 2.67
182 12.1
183 11.24

$$$$

     RDKit          2D

 18 18  0  0  0  0  0  0  0  0999 V2000
   -2.9356    5.4356    0.0000 C   0  0  0  0  0  0  0  0  0  0  0  0
   -0.3375    5.4400    0.0000 C   0  0  0  0  0  0  0  0  0  0  0  0
    6.1662    0.1908    0.0000 C   0  0  0  0  0  0  0  0  0  0  0  0
    4.8668    2.4406    0.0000 C   0  0  0  0  0  0  0  0  0  0  0  0
   -1.6200   -1.3100    0.0000 C   0  0  0  0  0  0  0  0  0  0  0  0
   -0.3300   -2.0600    0.0000 C   0  0  0  0  0  0  0  0  0  0  0  0
   -1.6200    0.1900    0.0000 C   0  0  0  0  0  0  0  0  0  0  0  0
    0.9700   -1.3100    0.0000 C   0  0  0  0  0  0  0  0  0  0  0  0
   -1.6353    4.6878    0.0000 C   0  0  0  0  0  0  0  0  0  0  0  0
    4.8670    0.9406    0.0000 C   0  0  0  0  0  0  0  0  0  0  0  0
   -0.3300    0.9400    0.0000 C   0  0  0  0  0  0  0  0  0  0  0  0
    0.9700    0.1900    0.0000 C   0  0  0  0  0  0  0  0  0  0  0  0
   -0.3325    2.4400    0.0000 C   0  0  0  0  0  0  0  0  0  0  0  0
    2.2689    0.9402    0.0000 C   0  0  0  0  0  0  0  0  0  0  0  0
    0.9653    3.1922    0.0000 O   0  0  0  0  0  0  0  0  0  0  0  0
    2.2687    2.4402    0.0000 O   0  0  0  0  0  0  0  0  0  0  0  0
   -1.6328    3.1878    0.0000 O   0  0  0  0  0  0  0  0  0  0  0  0
    3.5681    0.1904    0.0000 O   0  0  0  0  0  0  0  0  0  0  0  0
  6  5  2  0
  7  5  1  0
  8  6  1  0
  9  1  1  0
  9  2  1  0
 10  3  1  0
 10  4  1  0
 11  7  2  0
 12  8  2  0
 12 11  1  0
 13 11  1  0
 14 12  1  0
 15 13  2  0
 16 14  2  0
 17  9  1  0
 17 13  1  0
 18 10  1  0
 18 14  1  0
M  END
>  <NAME>  (2858) 
DIISOPROPYL PHTHALATE

>  <SYNONYMS>  (2858) 
PHTHALIC ACID DIISOPROPYL ESTER

>  <SPECTRUM TYPE>  (2858) 
MS1

>  <INSTRUMENT TYPE>  (2858) 
EI-B

>  <INSTRUMENT>  (2858) 
HITACHI M-60

>  <ION MODE>  (2858) 
P

>  <INCHIKEY>  (2858) 
QWDBCIAVABMJPP-UHFFFAOYSA-N

>  <FORMULA>  (2858) 
C14H18O4

>  <EXACT MASS>  (2858) 
250.120509056

>  <MW>  (2858) 
250

>  <ID>  (2858) 
JP008343

>  <CONTRIBUTOR>  (2858) 
University of Tokyo Team, {Faculty of Engineering, University of Tokyo

>  <COMMENT>  (2858) 
SMILES=CC(C)OC(=O)c(c1)c(ccc1)C(=O)OC(C)C
InChI=InChI=1S/C14H18O4/c1-9(2)17-13(15)11-7-5-6-8-12(11)14(16)18-10(3)4/h5-10H,1-4H3
computed SMILES=O=C(OC(C)C)C=1C=CC=CC1C(=O)OC(C)C
accession=JP008343
date=2016.01.19 (Created 2008.10.21, modified 2011.05.06)
author=UBE SCIENTIFIC ANALYSIS LABORATORY
license=CC BY-NC-SA
exact mass=250.12051
ionization energy=70 eV
ion type=[M]+*
computed spectral entropy=2.543155502727383
computed normalized entropy=0.7552515820202226
SPLASH=splash10-0002-5900000000-d74b235e94b9ed720db1
submitter=submitter = University of Tokyo Team (Faculty of Engineering, University of Tokyo)
MoNA Rating=3.75

>  <NUM PEAKS>  (2858) 
29

>  <MASS SPECTRAL PEAKS>  (2858) 
15 1.98
27 7.95
39 5.94
41 11.08
42 2.44
43 18.48
45 2.15
50 4.55
51 1.62
59 4.82
65 7.33
66 1.91
75 1.29
76 9.18
77 2.95
93 4.92
104 7.94
105 7.35
121 3.82
122 7.14
123 1.07
149 99.99
150 11.97
151 1.37
167 4.06
191 4.61
192 5.51
209 7.01
251 1.77

$$$$

     RDKit          2D

 11 10  0  0  0  0  0  0  0  0999 V2000
   -1.2990    6.0000    0.0000 C   0  0  0  0  0  0  0  0  0  0  0  0
   -6.4952    4.5000    0.0000 C   0  0  0  0  0  0  0  0  0  0  0  0
    2.5981    3.7500    0.0000 C   0  0  0  0  0  0  0  0  0  0  0  0
   -2.5981    3.7500    0.0000 C   0  0  0  0  0  0  0  0  0  0  0  0
   -1.2990    4.5000    0.0000 C   0  0  0  0  0  0  0  0  0  0  0  0
   -3.8971    4.5000    0.0000 C   0  0  0  0  0  0  0  0  0  0  0  0
   -0.0000    3.7500    0.0000 C   0  0  0  0  0  0  0  0  0  0  0  0
   -3.8971    6.0000    0.0000 O   0  0  0  0  0  0  0  0  0  0  0  0
   -0.0000    2.2500    0.0000 O   0  0  0  0  0  0  0  0  0  0  0  0
   -5.1962    3.7500    0.0000 O   0  0  0  0  0  0  0  0  0  0  0  0
    1.2990    4.5000    0.0000 O   0  0  0  0  0  0  0  0  0  0  0  0
  5  1  1  0
  5  4  1  0
  6  4  1  0
  7  5  1  0
  8  6  2  0
  9  7  2  0
 10  2  1  0
 10  6  1  0
 11  3  1  0
 11  7  1  0
M  END
>  <NAME>  (2859) 
DIMETHYL 2-METHYLSUCCINATE

>  <SYNONYMS>  (2859) 


>  <SPECTRUM TYPE>  (2859) 
MS1

>  <INSTRUMENT TYPE>  (2859) 
EI-B

>  <INSTRUMENT>  (2859) 
HITACHI M-60

>  <ION MODE>  (2859) 
P

>  <INCHIKEY>  (2859) 
NFOQJNGQQXICBY-UHFFFAOYSA-N

>  <FORMULA>  (2859) 
C7H12O4

>  <EXACT MASS>  (2859) 
160.073558864

>  <MW>  (2859) 
160

>  <ID>  (2859) 
JP008339

>  <CONTRIBUTOR>  (2859) 
University of Tokyo Team, {Faculty of Engineering, University of Tokyo

>  <COMMENT>  (2859) 
SMILES=COC(=O)CC(C)C(=O)OC
InChI=InChI=1S/C7H12O4/c1-5(7(9)11-3)4-6(8)10-2/h5H,4H2,1-3H3
computed SMILES=O=C(OC)CC(C(=O)OC)C
accession=JP008339
date=2016.01.19 (Created 2008.10.21, modified 2011.05.06)
author=UBE SCIENTIFIC ANALYSIS LABORATORY
license=CC BY-NC-SA
exact mass=160.07356
ionization energy=70 eV
ion type=[M]+*
computed spectral entropy=2.7871641560451326
computed normalized entropy=0.7053890760871055
SPLASH=splash10-0a6r-9300000000-9fe07ee1cf7b49aa9a9e
submitter=submitter = University of Tokyo Team (Faculty of Engineering, University of Tokyo)
MoNA Rating=3.75

>  <NUM PEAKS>  (2859) 
52

>  <MASS SPECTRAL PEAKS>  (2859) 
14 0.81
15 33.51
16 0.78
26 0.7
27 5.23
28 1.15
29 9.54
30 0.49
31 2.17
32 0.54
38 0.31
39 6.62
40 2.34
41 17.93
42 10.54
43 6.07
44 0.25
45 2.42
53 0.36
55 6.55
56 2.07
57 0.59
58 2.15
59 99.99
60 3.44
68 0.59
69 13.64
70 1.44
71 0.82
72 1.65
73 1.05
74 5.63
75 0.56
79 0.24
82 0.48
83 0.2
85 1.21
87 11.05
88 0.94
91 0.15
98 0.18
99 1.37
100 17.08
101 20.41
102 1.22
113 0.64
115 0.75
128 21.31
129 35.46
130 2.68
131 0.35
142 0.1

$$$$

     RDKit          2D

 10 10  0  0  0  0  0  0  0  0999 V2000
   -6.0284    0.0637    0.0000 C   0  0  0  0  0  0  0  0  0  0  0  0
   -4.6006   -0.3962    0.0000 C   0  0  0  0  0  0  0  0  0  0  0  0
   -3.4884    0.6102    0.0000 C   0  0  0  0  0  0  0  0  0  0  0  0
    0.2615    3.2525    0.0000 C   0  0  0  0  0  0  0  0  0  0  0  0
   -2.0607    0.1503    0.0000 C   0  0  0  0  0  0  0  0  0  0  0  0
   -1.1142    2.6496    0.0000 C   0  0  0  0  0  0  0  0  0  0  0  0
    1.2613    2.1441    0.0000 C   0  0  0  0  0  0  0  0  0  0  0  0
   -0.9485    1.1567    0.0000 C   0  0  0  0  0  0  0  0  0  0  0  0
    0.5113    0.8451    0.0000 C   0  0  0  0  0  0  0  0  0  0  0  0
    1.1208   -0.5255    0.0000 O   0  0  0  0  0  0  0  0  0  0  0  0
  2  1  1  0
  3  2  1  0
  5  3  1  0
  6  4  1  0
  7  4  1  0
  8  5  1  0
  8  6  2  0
  9  7  1  0
  9  8  1  0
 10  9  2  0
M  END
>  <NAME>  (2860) 
2-N-BUTYLCYCLOPENTENONE

>  <SYNONYMS>  (2860) 
2-BUTYL-2-CYCLOPENTEN-1-ONE

>  <SPECTRUM TYPE>  (2860) 
MS1

>  <INSTRUMENT TYPE>  (2860) 
EI-B

>  <INSTRUMENT>  (2860) 
HITACHI M-60

>  <ION MODE>  (2860) 
P

>  <INCHIKEY>  (2860) 
LQANWSYLRLMKDX-UHFFFAOYSA-N

>  <FORMULA>  (2860) 
C9H14O

>  <EXACT MASS>  (2860) 
138.104465068

>  <MW>  (2860) 
138

>  <ID>  (2860) 
JP008338

>  <CONTRIBUTOR>  (2860) 
University of Tokyo Team, {Faculty of Engineering, University of Tokyo

>  <COMMENT>  (2860) 
SMILES=CCCCC(=C1)C(=O)CC1
InChI=InChI=1S/C9H14O/c1-2-3-5-8-6-4-7-9(8)10/h6H,2-5,7H2,1H3
computed SMILES=O=C1C(=CCC1)CCCC
accession=JP008338
date=2016.01.19 (Created 2008.10.21, modified 2011.05.06)
author=UBE SCIENTIFIC ANALYSIS LABORATORY
license=CC BY-NC-SA
exact mass=138.10447
ionization energy=70 eV
ion type=[M]+*
computed spectral entropy=3.268730631952188
computed normalized entropy=0.8398976267067285
SPLASH=splash10-00kk-9200000000-27ba3052db04d5953c4e
submitter=submitter = University of Tokyo Team (Faculty of Engineering, University of Tokyo)
MoNA Rating=3.75

>  <NUM PEAKS>  (2860) 
49

>  <MASS SPECTRAL PEAKS>  (2860) 
18 1.09
27 31.18
28 7.53
29 9.95
32 0.77
38 1.19
39 30.77
40 6.61
41 47.79
42 4.09
43 13.43
50 2.43
51 6.79
52 4.99
53 21.49
54 9.14
55 16.05
56 1.59
57 0.88
63 1.98
65 7.98
66 7.06
67 40.6
68 25.51
69 3.96
77 6.44
78 1.79
79 14.69
80 2.68
81 31.66
82 12.49
83 3.07
84 0.87
91 3.01
93 2.04
94 3.4
95 31.04
96 99.99
97 19.48
98 0.88
105 1.56
109 36.77
110 16.41
111 1.02
123 21.56
124 1.54
137 7.62
138 51.36
139 5.63

$$$$

     RDKit          2D

 13 13  0  0  0  0  0  0  0  0999 V2000
    0.8500    0.5800    0.0000 C   0  0  0  0  0  0  0  0  0  0  0  0
    0.1000   -0.7200    0.0000 C   0  0  0  0  0  0  0  0  0  0  0  0
    2.3500    0.5800    0.0000 C   0  0  0  0  0  0  0  0  0  0  0  0
   -1.4000   -0.7200    0.0000 C   0  0  0  0  0  0  0  0  0  0  0  0
    3.1000    1.8700    0.0000 C   0  0  0  0  0  0  0  0  0  0  0  0
   -2.1500    0.5800    0.0000 C   0  0  0  0  0  0  0  0  0  0  0  0
    0.8500    3.1700    0.0000 C   0  0  0  0  0  0  0  0  0  0  0  0
   -3.6500    0.5800    0.0000 C   0  0  0  0  0  0  0  0  0  0  0  0
    0.1000    4.4700    0.0000 C   0  0  0  0  0  0  0  0  0  0  0  0
   -4.4000    1.8800    0.0000 C   0  0  0  0  0  0  0  0  0  0  0  0
   -1.4000    4.4700    0.0000 C   0  0  0  0  0  0  0  0  0  0  0  0
   -3.6500    3.1700    0.0000 C   0  0  0  0  0  0  0  0  0  0  0  0
   -2.1500    3.1700    0.0000 N   0  0  0  0  0  0  0  0  0  0  0  0
  2  1  1  0
  3  1  1  0
  4  2  1  0
  5  3  1  0
  6  4  1  0
  7  5  1  0
  8  6  1  0
  9  7  1  0
 10  8  1  0
 11  9  1  0
 12 10  1  0
 13 11  1  0
 13 12  1  0
M  END
>  <NAME>  (2861) 
DODECAMETHYLENE IMINE

>  <SYNONYMS>  (2861) 
1-AZACYCLOTRIDECANE

>  <SPECTRUM TYPE>  (2861) 
MS1

>  <INSTRUMENT TYPE>  (2861) 
EI-B

>  <INSTRUMENT>  (2861) 
HITACHI M-60

>  <ION MODE>  (2861) 
P

>  <INCHIKEY>  (2861) 
UFADJPZTTUWZMP-UHFFFAOYSA-N

>  <FORMULA>  (2861) 
C12H25N

>  <EXACT MASS>  (2861) 
183.19869979999999

>  <MW>  (2861) 
183

>  <ID>  (2861) 
JP008337

>  <CONTRIBUTOR>  (2861) 
University of Tokyo Team, {Faculty of Engineering, University of Tokyo

>  <COMMENT>  (2861) 
SMILES=C(C1)CCCCCNCCCCC1
InChI=InChI=1S/C12H25N/c1-2-4-6-8-10-12-13-11-9-7-5-3-1/h13H,1-12H2
computed SMILES=N1CCCCCCCCCCCC1
accession=JP008337
date=2016.01.19 (Created 2008.10.21, modified 2011.05.06)
author=UBE SCIENTIFIC ANALYSIS LABORATORY
license=CC BY-NC-SA
exact mass=183.1987
ionization energy=70 eV
ion type=[M]+*
computed spectral entropy=3.268512072180527
computed normalized entropy=0.835504307527151
SPLASH=splash10-001l-9100000000-d290b57f5726e7233199
submitter=submitter = University of Tokyo Team (Faculty of Engineering, University of Tokyo)
MoNA Rating=3.75

>  <NUM PEAKS>  (2861) 
50

>  <MASS SPECTRAL PEAKS>  (2861) 
15 2.94
27 14.22
29 33.25
30 99.99
31 48.44
39 5.52
41 34.79
42 21.28
43 27.43
44 63.52
45 19.35
54 1.27
55 14.16
56 42.96
57 10.36
58 4.42
59 20.98
67 3.84
68 2.85
69 4.07
70 27.59
71 4.81
72 13.75
73 2.35
74 9.91
81 3.22
82 5.84
83 0.96
84 9.6
85 1.38
86 10.69
95 1.84
96 4.97
97 1.24
98 9.37
99 1.09
100 6.82
109 0.56
110 1.39
112 10.73
114 3.33
126 8.35
128 2.06
140 10.42
142 5.33
154 4.44
168 1.17
182 2.72
183 16.1
184 2

$$$$

     RDKit          2D

  8  8  0  0  0  0  0  0  0  0999 V2000
   -1.3000    0.7500    0.0000 C   0  0  0  0  0  0  0  0  0  0  0  0
   -0.0000   -1.5000    0.0000 C   0  0  0  0  0  0  0  0  0  0  0  0
    0.0000    1.5000    0.0000 C   0  0  0  0  0  0  0  0  0  0  0  0
    1.3000   -0.7500    0.0000 C   0  0  0  0  0  0  0  0  0  0  0  0
   -1.3000   -0.7500    0.0000 C   0  0  0  0  0  0  0  0  0  0  0  0
    1.3000    0.7500    0.0000 C   0  0  0  0  0  0  0  0  0  0  0  0
   -2.5989   -1.5002    0.0000 Cl  0  0  0  0  0  0  0  0  0  0  0  0
    2.5989    1.5002    0.0000 O   0  0  0  0  0  0  0  0  0  0  0  0
  3  1  2  0
  4  2  1  0
  5  1  1  0
  5  2  2  0
  6  3  1  0
  6  4  2  0
  7  5  1  0
  8  6  1  0
M  END
>  <NAME>  (2862) 
PARA-CHLOROPHENOL

>  <SYNONYMS>  (2862) 


>  <SPECTRUM TYPE>  (2862) 
MS1

>  <INSTRUMENT TYPE>  (2862) 
EI-B

>  <INSTRUMENT>  (2862) 
HITACHI M-60

>  <ION MODE>  (2862) 
P

>  <INCHIKEY>  (2862) 
WXNZTHHGJRFXKQ-UHFFFAOYSA-N

>  <FORMULA>  (2862) 
C6H5ClO

>  <EXACT MASS>  (2862) 
128.00289246

>  <MW>  (2862) 
128

>  <ID>  (2862) 
JP008336

>  <CONTRIBUTOR>  (2862) 
University of Tokyo Team, {Faculty of Engineering, University of Tokyo

>  <COMMENT>  (2862) 
SMILES=Oc(c1)ccc(Cl)c1
InChI=InChI=1S/C6H5ClO/c7-5-1-3-6(8)4-2-5/h1-4,8H
computed SMILES=ClC1=CC=C(O)C=C1
accession=JP008336
date=2016.01.19 (Created 2008.10.21, modified 2011.05.06)
author=UBE SCIENTIFIC ANALYSIS LABORATORY
license=CC BY-NC-SA
exact mass=128.00289
ionization energy=70 eV
ion type=[M]+*
computed spectral entropy=3.033827483131313
computed normalized entropy=0.6984261928188881
SPLASH=splash10-004i-9800000000-32ffdbba762c4f0fc609
submitter=submitter = University of Tokyo Team (Faculty of Engineering, University of Tokyo)
MoNA Rating=3.75

>  <NUM PEAKS>  (2862) 
77

>  <MASS SPECTRAL PEAKS>  (2862) 
14 0.58
17 0.7
18 2.23
26 1.32
27 1.61
29 1.64
31 2.24
32 2.28
36 0.9
37 5.97
38 7.7
39 15.47
40 1.23
41 0.37
42 0.95
43 0.51
45 0.2
46 4.41
47 0.74
49 2.52
50 5.33
51 2.58
52 0.71
53 4.81
55 2.04
57 0.42
60 1.2
61 4.76
62 6.57
63 12.44
64 17.41
65 33.08
66 3.54
67 0.57
68 0.64
72 1.42
73 7.64
74 3.12
75 4.74
76 0.47
77 0.66
79 0.28
80 0.28
82 0.38
84 0.59
85 0.4
86 0.26
87 0.28
89 0.64
91 0.66
92 2.79
93 4.15
94 0.5
97 0.37
99 6.09
100 10.32
101 3.03
102 4.19
103 0.1
104 0.2
105 0.29
108 0.25
109 0.15
110 0.84
113 0.29
115 0.21
117 0.11
119 0.23
127 1.51
128 99.99
129 7.26
130 34.22
131 2.27
133 0.18
141 0.1
168 0.11
175 0.17

$$$$

     RDKit          2D

  8  8  0  0  0  0  0  0  0  0999 V2000
   -1.3000    0.7500    0.0000 C   0  0  0  0  0  0  0  0  0  0  0  0
    0.0000    1.5000    0.0000 C   0  0  0  0  0  0  0  0  0  0  0  0
   -1.3000   -0.7500    0.0000 C   0  0  0  0  0  0  0  0  0  0  0  0
    1.3000    0.7500    0.0000 C   0  0  0  0  0  0  0  0  0  0  0  0
    0.0000   -1.5000    0.0000 C   0  0  0  0  0  0  0  0  0  0  0  0
    1.3000   -0.7500    0.0000 C   0  0  0  0  0  0  0  0  0  0  0  0
   -0.0000   -3.0000    0.0000 Cl  0  0  0  0  0  0  0  0  0  0  0  0
    2.5989   -1.5002    0.0000 O   0  0  0  0  0  0  0  0  0  0  0  0
  2  1  2  0
  3  1  1  0
  4  2  1  0
  5  3  2  0
  6  4  2  0
  6  5  1  0
  7  5  1  0
  8  6  1  0
M  END
>  <NAME>  (2863) 
ORTHO-CHLOROPHENOL

>  <SYNONYMS>  (2863) 


>  <SPECTRUM TYPE>  (2863) 
MS1

>  <INSTRUMENT TYPE>  (2863) 
EI-B

>  <INSTRUMENT>  (2863) 
HITACHI M-60

>  <ION MODE>  (2863) 
P

>  <INCHIKEY>  (2863) 
ISPYQTSUDJAMAB-UHFFFAOYSA-N

>  <FORMULA>  (2863) 
C6H5ClO

>  <EXACT MASS>  (2863) 
128.00289246

>  <MW>  (2863) 
128

>  <ID>  (2863) 
JP008335

>  <CONTRIBUTOR>  (2863) 
University of Tokyo Team, {Faculty of Engineering, University of Tokyo

>  <COMMENT>  (2863) 
SMILES=Oc(c1)c(Cl)ccc1
InChI=InChI=1S/C6H5ClO/c7-5-3-1-2-4-6(5)8/h1-4,8H
computed SMILES=ClC=1C=CC=CC1O
accession=JP008335
date=2016.01.19 (Created 2008.10.21, modified 2011.05.06)
author=UBE SCIENTIFIC ANALYSIS LABORATORY
license=CC BY-NC-SA
exact mass=128.00289
ionization energy=70 eV
ion type=[M]+*
computed spectral entropy=2.7741316881341924
computed normalized entropy=0.7375655649267799
SPLASH=splash10-01t9-9600000000-36ba32f2c81fdba5c49c
submitter=submitter = University of Tokyo Team (Faculty of Engineering, University of Tokyo)
MoNA Rating=3.75

>  <NUM PEAKS>  (2863) 
43

>  <MASS SPECTRAL PEAKS>  (2863) 
14 6.19
26 2.11
27 1.28
31 2.07
32 3.08
37 3.69
38 12.09
39 14.47
41 3.43
46 3.3
50 6.82
51 3.44
52 0.72
53 2.68
54 3.79
61 3.92
62 7.04
63 23.28
64 52.33
65 18.48
70 2.4
71 0.34
73 5.98
75 3.91
82 0.53
85 0.35
87 1.42
88 1.54
89 0.82
92 21.41
97 1.54
99 4.61
100 3.23
108 3.67
109 0.77
111 1.38
115 0.57
128 99.99
129 8.23
130 39.56
131 2.73
142 0.44
149 0.41

$$$$

     RDKit          2D

  5  4  0  0  0  0  0  0  0  0999 V2000
   -0.6495    3.3750    0.0000 C   0  0  0  0  0  0  0  0  0  0  0  0
    0.6495    2.6250    0.0000 C   0  0  0  0  0  0  0  0  0  0  0  0
   -1.9486    2.6250    0.0000 C   0  0  0  0  0  0  0  0  0  0  0  0
    1.9486    1.8750    0.0000 N   0  0  0  0  0  0  0  0  0  0  0  0
   -3.2476    3.3750    0.0000 O   0  0  0  0  0  0  0  0  0  0  0  0
  2  1  1  0
  3  1  1  0
  4  2  3  0
  5  3  1  0
M  END
>  <NAME>  (2864) 
BETA-CYANOETHANOL

>  <SYNONYMS>  (2864) 


>  <SPECTRUM TYPE>  (2864) 
MS1

>  <INSTRUMENT TYPE>  (2864) 
EI-B

>  <INSTRUMENT>  (2864) 
HITACHI M-60

>  <ION MODE>  (2864) 
P

>  <INCHIKEY>  (2864) 
WSGYTJNNHPZFKR-UHFFFAOYSA-N

>  <FORMULA>  (2864) 
C3H5NO

>  <EXACT MASS>  (2864) 
71.03711378

>  <MW>  (2864) 
71

>  <ID>  (2864) 
JP008334

>  <CONTRIBUTOR>  (2864) 
University of Tokyo Team, {Faculty of Engineering, University of Tokyo

>  <COMMENT>  (2864) 
SMILES=N#CCCO
InChI=InChI=1S/C3H5NO/c4-2-1-3-5/h5H,1,3H2
computed SMILES=N#CCCO
accession=JP008334
date=2016.01.19 (Created 2008.10.21, modified 2011.05.06)
author=UBE SCIENTIFIC ANALYSIS LABORATORY
license=CC BY-NC-SA
exact mass=71.03711
ionization energy=70 eV
ion type=[M]+*
computed spectral entropy=1.987024554438358
computed normalized entropy=0.6632850912545162
SPLASH=splash10-001l-9000000000-7071703d473a0f75531d
submitter=submitter = University of Tokyo Team (Faculty of Engineering, University of Tokyo)
MoNA Rating=3.75

>  <NUM PEAKS>  (2864) 
20

>  <MASS SPECTRAL PEAKS>  (2864) 
14 3.55
15 14.87
17 2.12
18 7.63
26 3.86
27 4.25
28 4.55
29 14.49
30 1.76
31 99.99
38 1.63
39 2.52
40 6.31
41 68.95
42 8
43 2.86
45 2.74
51 2.25
52 2.69
59 1.85

$$$$

     RDKit          2D

  5  4  0  0  0  0  0  0  0  0999 V2000
   -0.0000   -0.0000    0.0000 C   0  0  0  0  0  0  0  0  0  0  0  0
    0.0000    1.5000    0.0000 C   0  0  0  0  0  0  0  0  0  0  0  0
   -1.2990    2.2500    0.0000 C   0  0  0  0  0  0  0  0  0  0  0  0
   -1.2990    3.7500    0.0000 N   0  0  0  0  0  0  0  0  0  0  0  0
   -2.5981    1.5000    0.0000 O   0  0  0  0  0  0  0  0  0  0  0  0
  2  1  2  0
  3  2  1  0
  4  3  2  0
  5  3  1  0
M  END
>  <NAME>  (2865) 
ACRYLAMIDE

>  <SYNONYMS>  (2865) 


>  <SPECTRUM TYPE>  (2865) 
MS1

>  <INSTRUMENT TYPE>  (2865) 
EI-B

>  <INSTRUMENT>  (2865) 
HITACHI M-60

>  <ION MODE>  (2865) 
P

>  <INCHIKEY>  (2865) 
HRPVXLWXLXDGHG-UHFFFAOYSA-N

>  <FORMULA>  (2865) 
C3H5NO

>  <EXACT MASS>  (2865) 
71.03711378

>  <MW>  (2865) 
71

>  <ID>  (2865) 
JP008333

>  <CONTRIBUTOR>  (2865) 
University of Tokyo Team, {Faculty of Engineering, University of Tokyo

>  <COMMENT>  (2865) 
SMILES=C=CC(N)=O
InChI=InChI=1S/C3H5NO/c1-2-3(4)5/h2H,1H2,(H2,4,5)
computed SMILES=N=C(O)C=C
accession=JP008333
date=2016.01.19 (Created 2008.10.21, modified 2011.05.06)
author=UBE SCIENTIFIC ANALYSIS LABORATORY
license=CC BY-NC-SA
exact mass=71.03711
ionization energy=70 eV
ion type=[M]+*
computed spectral entropy=2.315165727589089
computed normalized entropy=0.6947850050978294
SPLASH=splash10-05dl-9000000000-1bf9b49a192db4be5718
submitter=submitter = University of Tokyo Team (Faculty of Engineering, University of Tokyo)
MoNA Rating=3.75

>  <NUM PEAKS>  (2865) 
28

>  <MASS SPECTRAL PEAKS>  (2865) 
14 3.45
15 5.24
16 9.62
25 2.07
26 25.01
27 88.65
28 17.96
29 2.27
30 17.2
32 0.36
41 1.96
42 4.89
43 18.53
44 87.88
45 4.79
52 2.98
53 5.63
54 1.83
55 68.9
56 1.74
57 1.15
70 5.38
71 99.99
72 2.69
87 0.16
131 0.43
177 0.25
219 0.26

$$$$

     RDKit          2D

  9  8  0  0  0  0  0  0  0  0999 V2000
    0.0000    6.0000    0.0000 C   0  0  0  0  0  0  0  0  0  0  0  0
   -5.1962    6.0000    0.0000 C   0  0  0  0  0  0  0  0  0  0  0  0
    1.2990    5.2500    0.0000 C   0  0  0  0  0  0  0  0  0  0  0  0
   -6.4952    5.2500    0.0000 C   0  0  0  0  0  0  0  0  0  0  0  0
   -1.2990    5.2500    0.0000 C   0  0  0  0  0  0  0  0  0  0  0  0
   -3.8971    5.2500    0.0000 C   0  0  0  0  0  0  0  0  0  0  0  0
    2.5981    4.5000    0.0000 N   0  0  0  0  0  0  0  0  0  0  0  0
   -7.7942    4.5000    0.0000 N   0  0  0  0  0  0  0  0  0  0  0  0
   -2.5981    6.0000    0.0000 O   0  0  0  0  0  0  0  0  0  0  0  0
  3  1  1  0
  4  2  1  0
  5  1  1  0
  6  2  1  0
  7  3  3  0
  8  4  3  0
  9  5  1  0
  9  6  1  0
M  END
>  <NAME>  (2866) 
BIS(2-CYANOETHYL)ETHER

>  <SYNONYMS>  (2866) 


>  <SPECTRUM TYPE>  (2866) 
MS1

>  <INSTRUMENT TYPE>  (2866) 
EI-B

>  <INSTRUMENT>  (2866) 
HITACHI M-60

>  <ION MODE>  (2866) 
P

>  <INCHIKEY>  (2866) 
BCGCCTGNWPKXJL-UHFFFAOYSA-N

>  <FORMULA>  (2866) 
C6H8N2O

>  <EXACT MASS>  (2866) 
124.063662876

>  <MW>  (2866) 
124

>  <ID>  (2866) 
JP008332

>  <CONTRIBUTOR>  (2866) 
University of Tokyo Team, {Faculty of Engineering, University of Tokyo

>  <COMMENT>  (2866) 
SMILES=N#CCCOCCC#N
InChI=InChI=1S/C6H8N2O/c7-3-1-5-9-6-2-4-8/h1-2,5-6H2
computed SMILES=N#CCCOCCC#N
accession=JP008332
date=2016.01.19 (Created 2008.10.21, modified 2011.05.06)
author=UBE SCIENTIFIC ANALYSIS LABORATORY
license=CC BY-NC-SA
exact mass=124.06366
ionization energy=70 eV
ion type=[M]+*
computed spectral entropy=2.2944822767051747
computed normalized entropy=0.6262982579068024
SPLASH=splash10-0udi-9000000000-f97d6d19e9dc484f2899
submitter=submitter = University of Tokyo Team (Faculty of Engineering, University of Tokyo)
MoNA Rating=3.75

>  <NUM PEAKS>  (2866) 
39

>  <MASS SPECTRAL PEAKS>  (2866) 
13 0.28
14 1.81
15 4.6
16 0.1
25 0.29
26 5.33
27 12.84
28 24.24
29 6.88
30 1.04
31 21.29
32 0.22
35 1.36
37 0.23
38 1.01
39 1.66
40 4.22
41 5.13
42 5.07
43 0.8
44 0.62
50 0.11
51 1.7
52 5.29
53 1.29
54 99.99
55 6.44
56 0.13
57 0.67
67 0.1
68 0.69
70 0.82
84 25.15
85 1.28
86 0.1
97 3.51
98 0.2
123 0.18
125 0.11

$$$$

     RDKit          2D

  8  8  0  0  0  0  0  0  0  0999 V2000
   -0.0005    1.5008    0.0000 C   0  0  0  0  0  0  0  0  0  0  0  0
   -1.2995    0.7508    0.0000 C   0  0  0  0  0  0  0  0  0  0  0  0
    1.2995   -0.7508    0.0000 C   0  0  0  0  0  0  0  0  0  0  0  0
    0.0005   -1.5008    0.0000 C   0  0  0  0  0  0  0  0  0  0  0  0
    1.2990    0.7500    0.0000 C   0  0  0  0  0  0  0  0  0  0  0  0
   -1.2990   -0.7500    0.0000 C   0  0  0  0  0  0  0  0  0  0  0  0
    2.5981    1.5000    0.0000 O   0  0  0  0  0  0  0  0  0  0  0  0
   -2.5981   -1.5000    0.0000 O   0  0  0  0  0  0  0  0  0  0  0  0
  2  1  1  0
  4  3  1  0
  5  1  1  0
  5  3  1  0
  6  2  1  0
  6  4  1  0
  7  5  1  0
  8  6  1  0
M  END
>  <NAME>  (2867) 
1,4-CYCLOHEXANEDIOL

>  <SYNONYMS>  (2867) 


>  <SPECTRUM TYPE>  (2867) 
MS1

>  <INSTRUMENT TYPE>  (2867) 
EI-B

>  <INSTRUMENT>  (2867) 
HITACHI M-60

>  <ION MODE>  (2867) 
P

>  <INCHIKEY>  (2867) 
VKONPUDBRVKQLM-UHFFFAOYSA-N

>  <FORMULA>  (2867) 
C6H12O2

>  <EXACT MASS>  (2867) 
116.083729624

>  <MW>  (2867) 
116

>  <ID>  (2867) 
JP008331

>  <CONTRIBUTOR>  (2867) 
University of Tokyo Team, {Faculty of Engineering, University of Tokyo

>  <COMMENT>  (2867) 
SMILES=OC(C1)CCC(O)C1
InChI=InChI=1S/C6H12O2/c7-5-1-2-6(8)4-3-5/h5-8H,1-4H2
computed SMILES=OC1CCC(O)CC1
accession=JP008331
date=2016.01.19 (Created 2008.10.21, modified 2011.05.06)
author=UBE SCIENTIFIC ANALYSIS LABORATORY
license=CC BY-NC-SA
exact mass=116.08373
ionization energy=70 eV
ion type=[M]+*
computed spectral entropy=3.1889252245022086
computed normalized entropy=0.8426969927509426
SPLASH=splash10-0a4l-9000000000-55e709d246fc79acd05a
submitter=submitter = University of Tokyo Team (Faculty of Engineering, University of Tokyo)
MoNA Rating=3.75

>  <NUM PEAKS>  (2867) 
44

>  <MASS SPECTRAL PEAKS>  (2867) 
15 7.21
19 1.81
26 2.04
27 21.85
28 4.97
29 36.93
30 4.17
31 31.63
38 0.86
39 19.89
40 4.49
41 41.59
42 33.7
43 31.46
44 28.83
45 8.13
47 8.66
51 1.73
53 5.38
54 63.32
55 41.14
56 12.02
57 38.4
58 99.99
59 28.2
60 2.57
67 3.55
68 3.2
69 23.63
70 21.52
71 1.91
73 0.49
77 1.73
79 5.87
80 12.8
81 4.14
82 0.41
83 13.64
84 0.69
97 7.06
98 26.54
99 1.93
110 3.09
116 0.69

$$$$

     RDKit          2D

  8  8  0  0  0  0  0  0  0  0999 V2000
   -0.0005    1.5008    0.0000 C   0  0  0  0  0  0  0  0  0  0  0  0
   -1.2995    0.7508    0.0000 C   0  0  0  0  0  0  0  0  0  0  0  0
    1.2995   -0.7508    0.0000 C   0  0  0  0  0  0  0  0  0  0  0  0
    0.0005   -1.5008    0.0000 C   0  0  0  0  0  0  0  0  0  0  0  0
    1.2990    0.7500    0.0000 C   0  0  0  0  0  0  0  0  0  0  0  0
   -1.2990   -0.7500    0.0000 C   0  0  0  0  0  0  0  0  0  0  0  0
    2.5981    1.5000    0.0000 O   0  0  0  0  0  0  0  0  0  0  0  0
   -2.5981   -1.5000    0.0000 O   0  0  0  0  0  0  0  0  0  0  0  0
  2  1  1  0
  4  3  1  0
  5  1  1  0
  5  3  1  0
  6  2  1  0
  6  4  1  0
  7  5  2  0
  8  6  2  0
M  END
>  <NAME>  (2868) 
1,4-CYCLOHEXANEDIONE

>  <SYNONYMS>  (2868) 


>  <SPECTRUM TYPE>  (2868) 
MS1

>  <INSTRUMENT TYPE>  (2868) 
EI-B

>  <INSTRUMENT>  (2868) 
HITACHI M-60

>  <ION MODE>  (2868) 
P

>  <INCHIKEY>  (2868) 
DCZFGQYXRKMVFG-UHFFFAOYSA-N

>  <FORMULA>  (2868) 
C6H8O2

>  <EXACT MASS>  (2868) 
112.052429496

>  <MW>  (2868) 
112

>  <ID>  (2868) 
JP008330

>  <CONTRIBUTOR>  (2868) 
University of Tokyo Team, {Faculty of Engineering, University of Tokyo

>  <COMMENT>  (2868) 
SMILES=O=C(C1)CCC(=O)C1
InChI=InChI=1S/C6H8O2/c7-5-1-2-6(8)4-3-5/h1-4H2
computed SMILES=O=C1CCC(=O)CC1
accession=JP008330
date=2016.01.19 (Created 2008.10.21, modified 2011.05.06)
author=UBE SCIENTIFIC ANALYSIS LABORATORY
license=CC BY-NC-SA
exact mass=112.05243
ionization energy=70 eV
ion type=[M]+*
computed spectral entropy=2.547662083150804
computed normalized entropy=0.7003716121853827
SPLASH=splash10-056r-9100000000-4f4f16f051df208a7363
submitter=submitter = University of Tokyo Team (Faculty of Engineering, University of Tokyo)
MoNA Rating=3.75

>  <NUM PEAKS>  (2868) 
38

>  <MASS SPECTRAL PEAKS>  (2868) 
14 2.76
15 2.23
25 0.46
26 12.4
27 31.45
28 99.99
29 18.92
31 0.7
37 0.87
38 1.76
39 5.86
40 1.55
41 4.52
42 20.52
43 3.55
45 1.73
50 1.16
51 0.97
52 0.36
53 2.97
54 3.03
55 32.86
56 56.2
57 19.32
58 0.86
66 0.68
67 1.22
69 2.03
70 3.5
83 4.81
84 2.41
85 0.47
94 0.48
97 1.2
111 1.17
112 64.88
113 4.55
114 0.27

$$$$

     RDKit          2D

 15 16  0  0  0  0  0  0  0  0999 V2000
    0.2900   -0.7500    0.0000 C   0  0  0  0  0  0  0  0  0  0  0  0
    0.2900    0.7500    0.0000 C   0  0  0  0  0  0  0  0  0  0  0  0
   -1.0100   -1.5000    0.0000 C   0  0  0  0  0  0  0  0  0  0  0  0
   -1.0100    1.5000    0.0000 C   0  0  0  0  0  0  0  0  0  0  0  0
   -2.3100   -0.7500    0.0000 C   0  0  0  0  0  0  0  0  0  0  0  0
   -2.3100    0.7500    0.0000 C   0  0  0  0  0  0  0  0  0  0  0  0
    1.7200   -1.2100    0.0000 C   0  0  0  0  0  0  0  0  0  0  0  0
    1.7200    1.2100    0.0000 C   0  0  0  0  0  0  0  0  0  0  0  0
   -1.0100   -3.0000    0.0000 Cl  0  0  0  0  0  0  0  0  0  0  0  0
   -1.0100    3.0000    0.0000 Cl  0  0  0  0  0  0  0  0  0  0  0  0
   -3.6089   -1.5002    0.0000 Cl  0  0  0  0  0  0  0  0  0  0  0  0
   -3.6089    1.5002    0.0000 Cl  0  0  0  0  0  0  0  0  0  0  0  0
    2.1853   -2.6360    0.0000 O   0  0  0  0  0  0  0  0  0  0  0  0
    2.1853    2.6360    0.0000 O   0  0  0  0  0  0  0  0  0  0  0  0
    2.6000    0.0000    0.0000 O   0  0  0  0  0  0  0  0  0  0  0  0
  2  1  1  0
  3  1  2  0
  4  2  2  0
  5  3  1  0
  6  4  1  0
  6  5  2  0
  7  1  1  0
  8  2  1  0
  9  3  1  0
 10  4  1  0
 11  5  1  0
 12  6  1  0
 13  7  2  0
 14  8  2  0
 15  7  1  0
 15  8  1  0
M  END
>  <NAME>  (2869) 
TETRACHLOROPHTHALIC ANHYDRIDE

>  <SYNONYMS>  (2869) 


>  <SPECTRUM TYPE>  (2869) 
MS1

>  <INSTRUMENT TYPE>  (2869) 
EI-B

>  <INSTRUMENT>  (2869) 
HITACHI M-60

>  <ION MODE>  (2869) 
P

>  <INCHIKEY>  (2869) 
AUHHYELHRWCWEZ-UHFFFAOYSA-N

>  <FORMULA>  (2869) 
C8Cl4O3

>  <EXACT MASS>  (2869) 
283.86015457999997

>  <MW>  (2869) 
284

>  <ID>  (2869) 
JP008329

>  <CONTRIBUTOR>  (2869) 
University of Tokyo Team, {Faculty of Engineering, University of Tokyo

>  <COMMENT>  (2869) 
SMILES=O=c(o2)c(c(Cl)1)c(c(=O)2)c(Cl)c(Cl)c(Cl)1
InChI=InChI=1S/C8Cl4O3/c9-3-1-2(8(14)15-7(1)13)4(10)6(12)5(3)11
computed SMILES=O=C1OC(=O)C=2C(Cl)=C(Cl)C(Cl)=C(Cl)C12
accession=JP008329
date=2016.01.19 (Created 2008.10.21, modified 2011.05.06)
author=UBE SCIENTIFIC ANALYSIS LABORATORY
license=CC BY-NC-SA
exact mass=283.86015
ionization energy=70 eV
ion type=[M]+*
computed spectral entropy=3.5452996807237946
computed normalized entropy=0.8344836180194561
SPLASH=splash10-0006-2490000000-9e5606a5dbd2478484c1
submitter=submitter = University of Tokyo Team (Faculty of Engineering, University of Tokyo)
MoNA Rating=3.75

>  <NUM PEAKS>  (2869) 
70

>  <MASS SPECTRAL PEAKS>  (2869) 
35 1.73
36 17.19
44 1.38
47 9.66
48 1.56
49 1.66
53 4.46
60 8.18
68 7.46
69 1.91
71 40.77
72 23.1
73 7.48
83 3.8
85 3.73
86 0.71
87 2.1
89 14.58
90 13.1
91 4.57
95 7.28
97 2
103 1.31
104 1.87
106 27.63
107 74.47
108 21.02
109 14.53
118 10.48
120 13.31
121 9.01
122 4.74
130 2.23
132 1.08
135 4.05
137 0.52
142 49.56
143 4.4
144 30.47
145 2.03
146 5.06
177 23.1
178 1.21
179 22.81
180 1.11
181 7.32
205 2.55
207 2.45
212 58.62
213 3.64
214 75.09
215 5.19
216 37.93
217 2.52
218 8.14
240 79.86
241 6.23
242 99.99
243 7.61
244 47.91
245 3.67
246 11.04
247 0.39
284 48.45
285 4.09
286 61.37
287 5.64
288 30.85
289 2.57
290 6.26

$$$$

     RDKit          2D

 12 11  0  0  0  0  0  0  0  0999 V2000
    3.2476    4.8750    0.0000 C   0  0  0  0  0  0  0  0  0  0  0  0
   -8.4437    5.6250    0.0000 C   0  0  0  0  0  0  0  0  0  0  0  0
    1.9486    5.6250    0.0000 C   0  0  0  0  0  0  0  0  0  0  0  0
   -7.1447    4.8750    0.0000 C   0  0  0  0  0  0  0  0  0  0  0  0
   -1.9486    4.8750    0.0000 C   0  0  0  0  0  0  0  0  0  0  0  0
   -3.2476    5.6250    0.0000 C   0  0  0  0  0  0  0  0  0  0  0  0
   -0.6495    5.6250    0.0000 C   0  0  0  0  0  0  0  0  0  0  0  0
   -4.5466    4.8750    0.0000 C   0  0  0  0  0  0  0  0  0  0  0  0
   -0.6495    7.1250    0.0000 O   0  0  0  0  0  0  0  0  0  0  0  0
   -4.5466    3.3750    0.0000 O   0  0  0  0  0  0  0  0  0  0  0  0
    0.6495    4.8750    0.0000 O   0  0  0  0  0  0  0  0  0  0  0  0
   -5.8457    5.6250    0.0000 O   0  0  0  0  0  0  0  0  0  0  0  0
  3  1  1  0
  4  2  1  0
  6  5  1  0
  7  5  1  0
  8  6  1  0
  9  7  2  0
 10  8  2  0
 11  3  1  0
 11  7  1  0
 12  4  1  0
 12  8  1  0
M  END
>  <NAME>  (2870) 
DIETHYL SUCCINATE

>  <SYNONYMS>  (2870) 


>  <SPECTRUM TYPE>  (2870) 
MS1

>  <INSTRUMENT TYPE>  (2870) 
EI-B

>  <INSTRUMENT>  (2870) 
HITACHI M-60

>  <ION MODE>  (2870) 
P

>  <INCHIKEY>  (2870) 
DKMROQRQHGEIOW-UHFFFAOYSA-N

>  <FORMULA>  (2870) 
C8H14O4

>  <EXACT MASS>  (2870) 
174.089208928

>  <MW>  (2870) 
174

>  <ID>  (2870) 
JP008327

>  <CONTRIBUTOR>  (2870) 
University of Tokyo Team, {Faculty of Engineering, University of Tokyo

>  <COMMENT>  (2870) 
SMILES=CCOC(=O)CCC(=O)OCC
InChI=InChI=1S/C8H14O4/c1-3-11-7(9)5-6-8(10)12-4-2/h3-6H2,1-2H3
computed SMILES=O=C(OCC)CCC(=O)OCC
accession=JP008327
date=2016.01.19 (Created 2008.10.21, modified 2011.05.06)
author=UBE SCIENTIFIC ANALYSIS LABORATORY
license=CC BY-NC-SA
exact mass=174.08921
ionization energy=70 eV
ion type=[M]+*
computed spectral entropy=2.5361988114384233
computed normalized entropy=0.6829539768940661
SPLASH=splash10-0fb9-6900000000-940ba7631d979c2aaa49
submitter=submitter = University of Tokyo Team (Faculty of Engineering, University of Tokyo)
MoNA Rating=3.75

>  <NUM PEAKS>  (2870) 
41

>  <MASS SPECTRAL PEAKS>  (2870) 
15 1.96
18 0.28
26 1.8
27 13.62
28 12.9
29 39.85
30 2.12
31 2.06
41 0.41
42 1.97
43 3.74
44 0.45
45 8.97
47 0.28
55 14.71
56 9.04
57 3.92
58 0.14
59 0.48
60 0.59
72 0.6
73 15.57
74 9.01
75 1.69
79 0.86
83 0.77
84 0.58
85 0.16
99 0.66
100 4.64
101 99.99
102 12.73
103 1.15
115 0.21
128 13.88
129 59.94
130 4.54
131 0.5
146 0.1
147 1.83
174 0.69

$$$$

     RDKit          2D

 10  9  0  0  0  0  0  0  0  0999 V2000
   -6.4952    4.5000    0.0000 C   0  0  0  0  0  0  0  0  0  0  0  0
    2.5981    3.7500    0.0000 C   0  0  0  0  0  0  0  0  0  0  0  0
   -2.5981    3.7500    0.0000 C   0  0  0  0  0  0  0  0  0  0  0  0
   -1.2990    4.5000    0.0000 C   0  0  0  0  0  0  0  0  0  0  0  0
   -3.8971    4.5000    0.0000 C   0  0  0  0  0  0  0  0  0  0  0  0
    0.0000    3.7500    0.0000 C   0  0  0  0  0  0  0  0  0  0  0  0
   -3.8971    6.0000    0.0000 O   0  0  0  0  0  0  0  0  0  0  0  0
   -0.0000    2.2500    0.0000 O   0  0  0  0  0  0  0  0  0  0  0  0
   -5.1962    3.7500    0.0000 O   0  0  0  0  0  0  0  0  0  0  0  0
    1.2990    4.5000    0.0000 O   0  0  0  0  0  0  0  0  0  0  0  0
  4  3  1  0
  5  3  1  0
  6  4  1  0
  7  5  2  0
  8  6  2  0
  9  1  1  0
  9  5  1  0
 10  2  1  0
 10  6  1  0
M  END
>  <NAME>  (2871) 
DIMETHYL SUCCINATE

>  <SYNONYMS>  (2871) 


>  <SPECTRUM TYPE>  (2871) 
MS1

>  <INSTRUMENT TYPE>  (2871) 
EI-B

>  <INSTRUMENT>  (2871) 
HITACHI M-60

>  <ION MODE>  (2871) 
P

>  <INCHIKEY>  (2871) 
MUXOBHXGJLMRAB-UHFFFAOYSA-N

>  <FORMULA>  (2871) 
C6H10O4

>  <EXACT MASS>  (2871) 
146.0579088

>  <MW>  (2871) 
146

>  <ID>  (2871) 
JP008326

>  <CONTRIBUTOR>  (2871) 
University of Tokyo Team, {Faculty of Engineering, University of Tokyo

>  <COMMENT>  (2871) 
SMILES=COC(=O)CCC(=O)OC
InChI=InChI=1S/C6H10O4/c1-9-5(7)3-4-6(8)10-2/h3-4H2,1-2H3
computed SMILES=O=C(OC)CCC(=O)OC
accession=JP008326
date=2016.01.19 (Created 2008.10.21, modified 2011.05.06)
author=UBE SCIENTIFIC ANALYSIS LABORATORY
license=CC BY-NC-SA
exact mass=146.05791
ionization energy=70 eV
ion type=[M]+*
computed spectral entropy=2.5370688923004194
computed normalized entropy=0.6831882744508032
SPLASH=splash10-066r-9400000000-cb3f9b045e51f533a8e0
submitter=submitter = University of Tokyo Team (Faculty of Engineering, University of Tokyo)
MoNA Rating=3.75

>  <NUM PEAKS>  (2871) 
41

>  <MASS SPECTRAL PEAKS>  (2871) 
14 0.93
15 43.36
16 0.39
26 2.93
27 12.05
28 11.76
29 6.75
30 0.86
31 2.2
39 0.63
41 3.82
42 3.87
43 3.46
44 0.41
45 7.66
53 0.38
54 0.33
55 56.49
56 5.65
57 5.23
58 1.26
59 46.41
60 11.5
71 0.15
72 0.67
74 0.4
82 0.16
83 1
84 0.61
85 1.09
86 1.64
87 15.84
88 1.1
91 0.12
99 0.54
101 1.09
113 0.2
114 28.62
115 99.99
116 6.57
117 0.75

$$$$

     RDKit          2D

 11 10  0  0  0  0  0  0  0  0999 V2000
    2.5981    4.5000    0.0000 C   0  0  0  0  0  0  0  0  0  0  0  0
   -7.7942    4.5000    0.0000 C   0  0  0  0  0  0  0  0  0  0  0  0
    1.2990    5.2500    0.0000 C   0  0  0  0  0  0  0  0  0  0  0  0
   -3.8971    5.2500    0.0000 C   0  0  0  0  0  0  0  0  0  0  0  0
   -2.5981    4.5000    0.0000 C   0  0  0  0  0  0  0  0  0  0  0  0
   -5.1962    4.5000    0.0000 C   0  0  0  0  0  0  0  0  0  0  0  0
   -1.2990    5.2500    0.0000 C   0  0  0  0  0  0  0  0  0  0  0  0
   -5.1962    3.0000    0.0000 O   0  0  0  0  0  0  0  0  0  0  0  0
   -1.2990    6.7500    0.0000 O   0  0  0  0  0  0  0  0  0  0  0  0
   -6.4952    5.2500    0.0000 O   0  0  0  0  0  0  0  0  0  0  0  0
    0.0000    4.5000    0.0000 O   0  0  0  0  0  0  0  0  0  0  0  0
  3  1  1  0
  5  4  1  0
  6  4  1  0
  7  5  1  0
  8  6  2  0
  9  7  2  0
 10  2  1  0
 10  6  1  0
 11  3  1  0
 11  7  1  0
M  END
>  <NAME>  (2872) 
METHYL ETHYL SUCCINATE

>  <SYNONYMS>  (2872) 


>  <SPECTRUM TYPE>  (2872) 
MS1

>  <INSTRUMENT TYPE>  (2872) 
EI-B

>  <INSTRUMENT>  (2872) 
HITACHI M-60

>  <ION MODE>  (2872) 
P

>  <INCHIKEY>  (2872) 
HXXRQBBSGZDQNP-UHFFFAOYSA-N

>  <FORMULA>  (2872) 
C7H12O4

>  <EXACT MASS>  (2872) 
160.073558864

>  <MW>  (2872) 
160

>  <ID>  (2872) 
JP008325

>  <CONTRIBUTOR>  (2872) 
University of Tokyo Team, {Faculty of Engineering, University of Tokyo

>  <COMMENT>  (2872) 
SMILES=CCOC(=O)CCC(=O)OC
InChI=InChI=1S/C7H12O4/c1-3-11-7(9)5-4-6(8)10-2/h3-5H2,1-2H3
computed SMILES=O=C(OC)CCC(=O)OCC
accession=JP008325
date=2016.01.19 (Created 2008.10.21, modified 2011.05.06)
author=UBE SCIENTIFIC ANALYSIS LABORATORY
license=CC BY-NC-SA
exact mass=160.07356
ionization energy=70 eV
ion type=[M]+*
computed spectral entropy=2.883209891689128
computed normalized entropy=0.7296967985372098
SPLASH=splash10-0690-9700000000-4bd9a24c302157ef73bd
submitter=submitter = University of Tokyo Team (Faculty of Engineering, University of Tokyo)
MoNA Rating=3.75

>  <NUM PEAKS>  (2872) 
52

>  <MASS SPECTRAL PEAKS>  (2872) 
14 0.73
15 18.76
26 2.47
27 15.08
28 13.26
29 33.79
30 1.44
31 2.71
33 0.32
39 0.28
41 2.01
42 2.94
43 4.4
44 0.47
45 8.45
53 0.21
54 0.21
55 41.36
56 9.01
57 10.33
58 0.97
59 19.55
60 1.49
61 0.2
71 0.19
72 0.45
73 7.31
74 0.94
83 1.16
84 0.58
85 0.46
86 0.72
87 10.92
88 10.83
89 0.91
99 0.58
100 2.68
101 38.35
102 1.76
103 0.23
114 7.73
115 99.99
116 5.28
117 0.81
128 9.73
129 14.02
130 1.14
131 0.28
132 0.32
133 3.37
134 0.18
160 0.62

$$$$

     RDKit          2D

 20 20  0  0  0  0  0  0  0  0999 V2000
   -2.2251    7.7569    0.0000 C   0  0  0  0  0  0  0  0  0  0  0  0
   -8.6802   -1.1526    0.0000 C   0  0  0  0  0  0  0  0  0  0  0  0
   -2.9725    6.4564    0.0000 C   0  0  0  0  0  0  0  0  0  0  0  0
   -7.6766   -0.0379    0.0000 C   0  0  0  0  0  0  0  0  0  0  0  0
  -10.4600    6.3600    0.0000 C   0  0  0  0  0  0  0  0  0  0  0  0
  -11.3400    5.1500    0.0000 C   0  0  0  0  0  0  0  0  0  0  0  0
   -9.0300    5.9000    0.0000 C   0  0  0  0  0  0  0  0  0  0  0  0
  -10.4600    3.9300    0.0000 C   0  0  0  0  0  0  0  0  0  0  0  0
   -6.7200    5.1500    0.0000 C   0  0  0  0  0  0  0  0  0  0  0  0
   -7.6000    3.9300    0.0000 C   0  0  0  0  0  0  0  0  0  0  0  0
   -5.2200    5.1529    0.0000 C   0  0  0  0  0  0  0  0  0  0  0  0
   -7.1364    2.5034    0.0000 C   0  0  0  0  0  0  0  0  0  0  0  0
   -9.0300    7.4000    0.0000 O   0  0  0  0  0  0  0  0  0  0  0  0
  -10.9236    2.5034    0.0000 O   0  0  0  0  0  0  0  0  0  0  0  0
   -4.4675    3.8554    0.0000 O   0  0  0  0  0  0  0  0  0  0  0  0
   -5.6692    2.1916    0.0000 O   0  0  0  0  0  0  0  0  0  0  0  0
   -4.4725    6.4534    0.0000 O   0  0  0  0  0  0  0  0  0  0  0  0
   -8.1401    1.3887    0.0000 O   0  0  0  0  0  0  0  0  0  0  0  0
   -7.6000    6.3600    0.0000 O   0  0  0  0  0  0  0  0  0  0  0  0
   -9.0300    4.4000    0.0000 O   0  0  0  0  0  0  0  0  0  0  0  0
  3  1  1  0
  4  2  1  0
  6  5  1  0
  7  5  1  0
  8  6  1  0
 10  9  1  0
 11  9  1  0
 12 10  1  0
 13  7  2  0
 14  8  2  0
 15 11  2  0
 16 12  2  0
 17  3  1  0
 17 11  1  0
 18  4  1  0
 18 12  1  0
 19  7  1  0
 19  9  1  0
 20  8  1  0
 20 10  1  0
M  END
>  <NAME>  (2873) 
DIETHYL SUCCINYLSUCCINATE

>  <SYNONYMS>  (2873) 
DIETHYL 3,8-DIOXA-4,7-DIOXOCYCLOOCTANE-1,2-DICARBOXYLATE

>  <SPECTRUM TYPE>  (2873) 
MS1

>  <INSTRUMENT TYPE>  (2873) 
EI-B

>  <INSTRUMENT>  (2873) 
HITACHI M-60

>  <ION MODE>  (2873) 
P

>  <INCHIKEY>  (2873) 
PIHBRGVADPXIIF-UHFFFAOYSA-N

>  <FORMULA>  (2873) 
C12H16O8

>  <EXACT MASS>  (2873) 
288.084517472

>  <MW>  (2873) 
288

>  <ID>  (2873) 
JP008324

>  <CONTRIBUTOR>  (2873) 
University of Tokyo Team, {Faculty of Engineering, University of Tokyo

>  <COMMENT>  (2873) 
SMILES=CCOC(=O)C(O1)C(OC(=O)CCC(=O)1)C(=O)OCC
InChI=InChI=1S/C12H16O8/c1-3-17-11(15)9-10(12(16)18-4-2)20-8(14)6-5-7(13)19-9/h9-10H,3-6H2,1-2H3
computed SMILES=O=C1OC(C(=O)OCC)C(OC(=O)CC1)C(=O)OCC
accession=JP008324
date=2016.01.19 (Created 2008.10.21, modified 2011.05.06)
author=UBE SCIENTIFIC ANALYSIS LABORATORY
license=CC BY-NC-SA
exact mass=288.08452
ionization energy=70 eV
ion type=[M]+*
computed spectral entropy=3.7727481895036634
computed normalized entropy=0.8821703833105564
SPLASH=splash10-06vu-6930000000-fc77550128c304271138
submitter=submitter = University of Tokyo Team (Faculty of Engineering, University of Tokyo)
MoNA Rating=3.75

>  <NUM PEAKS>  (2873) 
72

>  <MASS SPECTRAL PEAKS>  (2873) 
27 61.54
29 96.21
31 18.3
39 7.74
40 0.48
41 13.25
43 8.89
45 20.32
52 7.04
53 22.39
54 13.56
55 60.01
56 3.11
68 5.61
69 14.98
71 5.87
72 6.89
73 28.88
80 7.27
81 18.83
82 7.79
83 10.6
87 2.92
96 34.89
97 5.79
98 6.73
99 24.65
100 6.76
101 25.5
107 3.45
108 16.77
109 22.97
110 10.23
111 15.9
114 48.55
115 4.68
125 2.2
126 9.86
127 13.31
128 1.23
129 4.22
135 9.75
136 64.3
137 93.19
138 11.74
139 1.8
142 99.99
143 7.83
153 10.76
154 12.22
155 19.29
163 6.55
164 32.94
165 38.15
166 3.91
181 36.05
182 27.32
183 20.46
184 0.86
192 26.9
193 3.82
199 9.56
209 8.8
210 90.76
211 36.8
212 3.69
227 35.62
228 4.76
238 10.69
255 0.93
256 76.21
257 9.74

$$$$

     RDKit          2D

 18 18  0  0  0  0  0  0  0  0999 V2000
   -2.9725    6.4564    0.0000 C   0  0  0  0  0  0  0  0  0  0  0  0
   -7.6766   -0.0379    0.0000 C   0  0  0  0  0  0  0  0  0  0  0  0
  -10.4600    6.3600    0.0000 C   0  0  0  0  0  0  0  0  0  0  0  0
  -11.3400    5.1500    0.0000 C   0  0  0  0  0  0  0  0  0  0  0  0
   -9.0300    5.9000    0.0000 C   0  0  0  0  0  0  0  0  0  0  0  0
  -10.4600    3.9300    0.0000 C   0  0  0  0  0  0  0  0  0  0  0  0
   -6.7200    5.1500    0.0000 C   0  0  0  0  0  0  0  0  0  0  0  0
   -7.6000    3.9300    0.0000 C   0  0  0  0  0  0  0  0  0  0  0  0
   -5.2200    5.1529    0.0000 C   0  0  0  0  0  0  0  0  0  0  0  0
   -7.1364    2.5034    0.0000 C   0  0  0  0  0  0  0  0  0  0  0  0
   -9.0300    7.4000    0.0000 O   0  0  0  0  0  0  0  0  0  0  0  0
  -10.9236    2.5034    0.0000 O   0  0  0  0  0  0  0  0  0  0  0  0
   -4.4675    3.8554    0.0000 O   0  0  0  0  0  0  0  0  0  0  0  0
   -5.6692    2.1916    0.0000 O   0  0  0  0  0  0  0  0  0  0  0  0
   -4.4725    6.4534    0.0000 O   0  0  0  0  0  0  0  0  0  0  0  0
   -8.1401    1.3887    0.0000 O   0  0  0  0  0  0  0  0  0  0  0  0
   -7.6000    6.3600    0.0000 O   0  0  0  0  0  0  0  0  0  0  0  0
   -9.0300    4.4000    0.0000 O   0  0  0  0  0  0  0  0  0  0  0  0
  4  3  1  0
  5  3  1  0
  6  4  1  0
  8  7  1  0
  9  7  1  0
 10  8  1  0
 11  5  2  0
 12  6  2  0
 13  9  2  0
 14 10  2  0
 15  1  1  0
 15  9  1  0
 16  2  1  0
 16 10  1  0
 17  5  1  0
 17  7  1  0
 18  6  1  0
 18  8  1  0
M  END
>  <NAME>  (2874) 
DIMETHYL SUCCINYLSUCCINATE

>  <SYNONYMS>  (2874) 
DIMETHYL 3,8-DIOXA-4,7-DIOXOCYCLOOCTANE-1,2-DICARBOXYLATE

>  <SPECTRUM TYPE>  (2874) 
MS1

>  <INSTRUMENT TYPE>  (2874) 
EI-B

>  <INSTRUMENT>  (2874) 
HITACHI M-60

>  <ION MODE>  (2874) 
P

>  <INCHIKEY>  (2874) 
QAMRXMRHRZVZGF-UHFFFAOYSA-N

>  <FORMULA>  (2874) 
C10H12O8

>  <EXACT MASS>  (2874) 
260.053217344

>  <MW>  (2874) 
260

>  <ID>  (2874) 
JP008323

>  <CONTRIBUTOR>  (2874) 
University of Tokyo Team, {Faculty of Engineering, University of Tokyo

>  <COMMENT>  (2874) 
SMILES=COC(=O)C(O1)C(OC(=O)CCC(=O)1)C(=O)OC
InChI=InChI=1S/C10H12O8/c1-15-9(13)7-8(10(14)16-2)18-6(12)4-3-5(11)17-7/h7-8H,3-4H2,1-2H3
computed SMILES=O=C1OC(C(=O)OC)C(OC(=O)CC1)C(=O)OC
accession=JP008323
date=2016.01.19 (Created 2008.10.21, modified 2011.05.06)
author=UBE SCIENTIFIC ANALYSIS LABORATORY
license=CC BY-NC-SA
exact mass=260.05322
ionization energy=70 eV
ion type=[M]+*
computed spectral entropy=3.8762450859770907
computed normalized entropy=0.8679634652100418
SPLASH=splash10-004r-6910000000-90bee0d5fdef1a122026
submitter=submitter = University of Tokyo Team (Faculty of Engineering, University of Tokyo)
MoNA Rating=3.75

>  <NUM PEAKS>  (2874) 
87

>  <MASS SPECTRAL PEAKS>  (2874) 
15 36.09
26 2.79
27 22.49
29 8.87
31 10.24
39 9.31
40 6.67
41 12.73
42 5.37
43 7.45
45 6.35
51 4.34
52 8.64
53 23.33
54 12.79
55 53.51
56 3.93
57 3.23
59 21.96
63 1.08
68 9.86
69 16.77
70 2.17
71 1.91
79 3
80 7.2
81 12.6
82 7.92
83 9.99
85 5.72
86 5.16
87 20.97
95 0.86
96 38.03
97 5.17
98 4.67
99 3.94
101 3.15
107 4.99
108 15.25
109 15.61
110 7.16
111 1.24
112 3.62
113 22.6
114 5.07
115 7.16
119 2.2
125 3.16
128 99.99
129 6.56
135 6.37
136 42.74
137 54.97
138 4.95
139 1.42
140 7.26
141 5.59
142 0.36
151 2.23
155 0.55
162 1.96
163 3.7
164 14.61
165 25.38
166 2.41
167 12.4
168 14.14
169 12.89
170 0.69
178 29.15
179 4.46
181 4.81
194 1.91
195 6.2
196 56.42
197 21.24
198 1.79
199 11.25
200 1.75
210 10.45
211 1.07
213 9
227 2.08
228 62.99
229 6.91
230 0.45

$$$$

     RDKit          2D

 12 12  0  0  0  0  0  0  0  0999 V2000
    1.6300   -0.9300    0.0000 C   0  0  0  0  0  0  0  0  0  0  0  0
    0.2600   -1.6900    0.0000 C   0  0  0  0  0  0  0  0  0  0  0  0
    0.2600    1.3500    0.0000 C   0  0  0  0  0  0  0  0  0  0  0  0
    2.9226    1.3511    0.0000 C   0  0  0  0  0  0  0  0  0  0  0  0
    1.6300    0.5900    0.0000 C   0  0  0  0  0  0  0  0  0  0  0  0
   -1.0300    0.5900    0.0000 C   0  0  0  0  0  0  0  0  0  0  0  0
   -1.0300   -0.9300    0.0000 C   0  0  0  0  0  0  0  0  0  0  0  0
    4.2280    0.6122    0.0000 C   0  0  0  0  0  0  0  0  0  0  0  0
   -2.3323    1.3343    0.0000 Cl  0  0  0  0  0  0  0  0  0  0  0  0
   -2.3323   -1.6743    0.0000 O   0  0  0  0  0  0  0  0  0  0  0  0
    4.2408   -0.8877    0.0000 O   0  0  0  0  0  0  0  0  0  0  0  0
    5.5206    1.3733    0.0000 O   0  0  0  0  0  0  0  0  0  0  0  0
  2  1  2  0
  5  1  1  0
  5  3  2  0
  5  4  1  0
  6  3  1  0
  7  2  1  0
  7  6  2  0
  8  4  1  0
  9  6  1  0
 10  7  1  0
 11  8  2  0
 12  8  1  0
M  END
>  <NAME>  (2875) 
3-CHLORO-4-HYDROXYPHENYLACETIC ACID

>  <SYNONYMS>  (2875) 


>  <SPECTRUM TYPE>  (2875) 
MS1

>  <INSTRUMENT TYPE>  (2875) 
EI-B

>  <INSTRUMENT>  (2875) 
HITACHI M-60

>  <ION MODE>  (2875) 
P

>  <INCHIKEY>  (2875) 
IYTUKSIOQKTZEG-UHFFFAOYSA-N

>  <FORMULA>  (2875) 
C8H7ClO3

>  <EXACT MASS>  (2875) 
186.008371764

>  <MW>  (2875) 
186

>  <ID>  (2875) 
JP008322

>  <CONTRIBUTOR>  (2875) 
University of Tokyo Team, {Faculty of Engineering, University of Tokyo

>  <COMMENT>  (2875) 
SMILES=OC(=O)Cc(c1)cc(Cl)c(O)c1
InChI=InChI=1S/C8H7ClO3/c9-6-3-5(4-8(11)12)1-2-7(6)10/h1-3,10H,4H2,(H,11,12)
computed SMILES=O=C(O)CC1=CC=C(O)C(Cl)=C1
accession=JP008322
date=2016.01.19 (Created 2008.10.21, modified 2011.05.06)
author=UBE SCIENTIFIC ANALYSIS LABORATORY
license=CC BY-NC-SA
exact mass=186.00837
ionization energy=70 eV
ion type=[M]+*
computed spectral entropy=3.177581503699457
computed normalized entropy=0.6696790212667497
SPLASH=splash10-0006-6900000000-b5948335ed82c09c23ea
submitter=submitter = University of Tokyo Team (Faculty of Engineering, University of Tokyo)
MoNA Rating=3.75

>  <NUM PEAKS>  (2875) 
115

>  <MASS SPECTRAL PEAKS>  (2875) 
15 0.19
16 0.24
17 0.66
18 1.56
26 1.13
27 3.05
28 10.33
29 1.11
31 0.18
32 0.42
36 0.49
37 1.87
38 5.04
39 3.72
40 0.4
41 0.64
42 0.51
43 1.31
44 6.29
45 3.05
47 0.27
49 1.17
50 6.86
51 22.13
52 5.64
53 4.79
54 0.37
55 1.9
56 2.1
57 0.91
60 0.63
61 1.37
62 2.1
63 2.52
64 0.46
65 1.17
66 0.59
67 0.52
68 0.12
69 0.32
70 0.39
71 2.58
72 1.11
73 2.19
74 2.02
75 3.32
76 1.43
77 32.52
78 5.57
79 1.38
80 0.16
81 0.35
82 0.13
83 0.14
84 0.47
85 0.87
86 0.69
87 0.81
88 0.24
89 0.64
91 0.34
93 0.62
94 0.43
95 0.39
96 0.1
97 0.29
98 0.14
99 0.31
101 0.16
103 0.12
104 0.25
105 7.47
106 1.42
107 6.22
108 0.55
109 0.33
111 0.5
112 2.58
113 0.91
114 0.93
115 0.53
117 0.12
121 0.21
123 0.33
125 0.1
127 0.27
128 0.11
129 0.34
130 0.13
133 0.16
135 0.19
139 0.38
140 4.38
141 99.99
142 10.02
143 37.4
144 3.19
145 0.49
150 0.15
151 0.2
152 0.49
155 0.34
156 0.25
157 0.33
168 0.23
170 0.12
185 0.19
186 34.23
187 2.9
188 10.77
189 0.85
190 0.1
197 0.13
243 0.21
269 0.12

$$$$

     RDKit          2D

 18 20  0  0  0  0  0  0  0  0999 V2000
    5.1971   -5.2500    0.0000 C   0  0  0  0  0  0  0  0  0  0  0  0
    3.8976   -6.0008    0.0000 C   0  0  0  0  0  0  0  0  0  0  0  0
    5.1976   -3.7492    0.0000 C   0  0  0  0  0  0  0  0  0  0  0  0
    2.5986   -5.2508    0.0000 C   0  0  0  0  0  0  0  0  0  0  0  0
    3.8986   -2.9992    0.0000 C   0  0  0  0  0  0  0  0  0  0  0  0
   -2.6000   -0.7500    0.0000 C   0  0  0  0  0  0  0  0  0  0  0  0
   -1.3000   -1.5000    0.0000 C   0  0  0  0  0  0  0  0  0  0  0  0
   -1.3000    1.5000    0.0000 C   0  0  0  0  0  0  0  0  0  0  0  0
    2.6000    0.7500    0.0000 C   0  0  0  0  0  0  0  0  0  0  0  0
   -2.6000    0.7500    0.0000 C   0  0  0  0  0  0  0  0  0  0  0  0
    2.5990   -3.7500    0.0000 C   0  0  0  0  0  0  0  0  0  0  0  0
    0.0000   -0.7500    0.0000 C   0  0  0  0  0  0  0  0  0  0  0  0
    0.0000    0.7500    0.0000 C   0  0  0  0  0  0  0  0  0  0  0  0
    1.3000   -1.5000    0.0000 C   0  0  0  0  0  0  0  0  0  0  0  0
   -3.8989    1.5002    0.0000 Cl  0  0  0  0  0  0  0  0  0  0  0  0
    1.3000    1.5000    0.0000 N   0  0  0  0  0  0  0  0  0  0  0  0
    2.6000   -0.7500    0.0000 N   0  0  0  0  0  0  0  0  0  0  0  0
    1.3000   -3.0000    0.0000 N   0  0  0  0  0  0  0  0  0  0  0  0
  2  1  2  0
  3  1  1  0
  4  2  1  0
  5  3  2  0
  7  6  2  0
 10  6  1  0
 10  8  2  0
 11  4  2  0
 11  5  1  0
 12  7  1  0
 13  8  1  0
 13 12  2  0
 14 12  1  0
 15 10  1  0
 16  9  2  0
 16 13  1  0
 17  9  1  0
 17 14  2  0
 18 11  1  0
 18 14  1  0
M  END
>  <NAME>  (2876) 
4-ANILINO-7-CHLORO QUINAZOLINE

>  <SYNONYMS>  (2876) 


>  <SPECTRUM TYPE>  (2876) 
MS1

>  <INSTRUMENT TYPE>  (2876) 
EI-B

>  <INSTRUMENT>  (2876) 
HITACHI M-60

>  <ION MODE>  (2876) 
P

>  <INCHIKEY>  (2876) 
GZLRRAAMOVHEKU-UHFFFAOYSA-N

>  <FORMULA>  (2876) 
C14H10ClN3

>  <EXACT MASS>  (2876) 
255.056325

>  <MW>  (2876) 
255

>  <ID>  (2876) 
JP008321

>  <CONTRIBUTOR>  (2876) 
University of Tokyo Team, {Faculty of Engineering, University of Tokyo

>  <COMMENT>  (2876) 
SMILES=Clc(c3)cc(n2)c(c3)c(nc2)Nc(c1)cccc1
InChI=InChI=1S/C14H10ClN3/c15-10-6-7-12-13(8-10)16-9-17-14(12)18-11-4-2-1-3-5-11/h1-9H,(H,16,17,18)
computed SMILES=ClC=1C=CC=2C(=NC=NC2NC=3C=CC=CC3)C1
accession=JP008321
date=2016.01.19 (Created 2008.10.21, modified 2011.05.06)
author=UBE SCIENTIFIC ANALYSIS LABORATORY
license=CC BY-NC-SA
exact mass=255.05633
ionization energy=70 eV
ion type=[M]+*
computed spectral entropy=2.9170849308079383
computed normalized entropy=0.7215057978649682
SPLASH=splash10-0zfr-3290000000-9d936bd8386a11d803ae
submitter=submitter = University of Tokyo Team (Faculty of Engineering, University of Tokyo)
MoNA Rating=3.75

>  <NUM PEAKS>  (2876) 
57

>  <MASS SPECTRAL PEAKS>  (2876) 
39 4.75
50 2.75
51 9.13
52 1.38
63 2.59
64 1.59
65 7.56
66 2.5
74 1.66
75 3.38
76 1.21
77 14.38
78 1.24
83 1.81
88 0.47
90 1.15
91 0.81
92 10.92
93 4.77
96 3.83
97 4.2
100 8.38
101 1.37
102 0.7
109 1.38
110 1.34
113 1.68
114 5.25
115 1.8
127 6.6
128 2.47
136 6.57
137 1.07
138 2.16
139 0.69
141 0.1
142 0.21
152 0.62
163 2.87
164 0.38
165 1.41
166 0.33
191 0.9
192 1.96
193 0.54
202 1.38
218 1.1
219 5.13
220 1.16
237 1.98
239 0.33
253 6.15
254 99.99
255 38
256 35.26
257 11.59
258 1.56

$$$$

     RDKit          2D

  5  4  0  0  0  0  0  0  0  0999 V2000
   -1.2990    3.7500    0.0000 C   0  0  0  0  0  0  0  0  0  0  0  0
    0.0000    3.0000    0.0000 C   0  0  0  0  0  0  0  0  0  0  0  0
   -2.5981    3.0000    0.0000 C   0  0  0  0  0  0  0  0  0  0  0  0
    1.2990    2.2500    0.0000 N   0  0  0  0  0  0  0  0  0  0  0  0
   -3.8971    2.2500    0.0000 N   0  0  0  0  0  0  0  0  0  0  0  0
  2  1  1  0
  3  1  1  0
  4  2  3  0
  5  3  3  0
M  END
>  <NAME>  (2877) 
MALONONITRILE

>  <SYNONYMS>  (2877) 


>  <SPECTRUM TYPE>  (2877) 
MS1

>  <INSTRUMENT TYPE>  (2877) 
EI-B

>  <INSTRUMENT>  (2877) 
HITACHI M-60

>  <ION MODE>  (2877) 
P

>  <INCHIKEY>  (2877) 
CUONGYYJJVDODC-UHFFFAOYSA-N

>  <FORMULA>  (2877) 
C3H2N2

>  <EXACT MASS>  (2877) 
66.021798064

>  <MW>  (2877) 
66

>  <ID>  (2877) 
JP008320

>  <CONTRIBUTOR>  (2877) 
University of Tokyo Team, {Faculty of Engineering, University of Tokyo

>  <COMMENT>  (2877) 
SMILES=N#CCC#N
InChI=InChI=1S/C3H2N2/c4-2-1-3-5/h1H2
computed SMILES=N#CCC#N
accession=JP008320
date=2016.01.19 (Created 2008.10.21, modified 2011.05.06)
author=UBE SCIENTIFIC ANALYSIS LABORATORY
license=CC BY-NC-SA
exact mass=66.0218
ionization energy=70 eV
ion type=[M]+*
computed spectral entropy=1.8164603854701238
computed normalized entropy=0.5643151473681033
SPLASH=splash10-014i-9000000000-149c443e0938100437ce
submitter=submitter = University of Tokyo Team (Faculty of Engineering, University of Tokyo)
MoNA Rating=3.75

>  <NUM PEAKS>  (2877) 
25

>  <MASS SPECTRAL PEAKS>  (2877) 
12 1.5
13 0.77
14 1.34
18 0.32
24 0.95
25 1.2
26 3.34
27 1.56
28 11.39
29 0.28
32 0.21
36 0.33
37 0.46
38 25.79
39 22.14
40 4.76
50 1.49
51 1.05
52 0.25
53 0.23
64 5.24
65 8.43
66 99.99
67 4.17
69 0.1

$$$$

     RDKit          2D

 10  9  0  0  0  0  0  0  0  0999 V2000
    1.3260   -0.6495    0.0000 C   0  0  0  0  0  0  0  0  0  0  0  0
   -0.1740    1.9486    0.0000 C   0  0  0  0  0  0  0  0  0  0  0  0
   -0.7231   -0.1005    0.0000 C   0  0  0  0  0  0  0  0  0  0  0  0
    3.9240    2.3505    0.0000 C   0  0  0  0  0  0  0  0  0  0  0  0
    4.4731    4.3995    0.0000 C   0  0  0  0  0  0  0  0  0  0  0  0
    2.4240    4.9486    0.0000 C   0  0  0  0  0  0  0  0  0  0  0  0
    0.5760    0.6495    0.0000 C   0  0  0  0  0  0  0  0  0  0  0  0
    3.1740    3.6495    0.0000 C   0  0  0  0  0  0  0  0  0  0  0  0
    1.8750    1.3995    0.0000 O   0  0  0  0  0  0  0  0  0  0  0  0
    1.8750    2.8995    0.0000 O   0  0  0  0  0  0  0  0  0  0  0  0
  7  1  1  0
  7  2  1  0
  7  3  1  0
  8  4  1  0
  8  5  1  0
  8  6  1  0
  9  7  1  0
 10  8  1  0
 10  9  1  0
M  END
>  <NAME>  (2878) 
DI-TERT-BUTYL PEROXIDE

>  <SYNONYMS>  (2878) 


>  <SPECTRUM TYPE>  (2878) 
MS1

>  <INSTRUMENT TYPE>  (2878) 
EI-B

>  <INSTRUMENT>  (2878) 
HITACHI M-60

>  <ION MODE>  (2878) 
P

>  <INCHIKEY>  (2878) 
LSXWFXONGKSEMY-UHFFFAOYSA-N

>  <FORMULA>  (2878) 
C8H18O2

>  <EXACT MASS>  (2878) 
146.130679816

>  <MW>  (2878) 
146

>  <ID>  (2878) 
JP008319

>  <CONTRIBUTOR>  (2878) 
University of Tokyo Team, {Faculty of Engineering, University of Tokyo

>  <COMMENT>  (2878) 
SMILES=CC(C)(C)OOC(C)(C)C
InChI=InChI=1S/C8H18O2/c1-7(2,3)9-10-8(4,5)6/h1-6H3
computed SMILES=O(OC(C)(C)C)C(C)(C)C
accession=JP008319
date=2016.01.19 (Created 2008.10.21, modified 2011.05.06)
author=UBE SCIENTIFIC ANALYSIS LABORATORY
license=CC BY-NC-SA
exact mass=146.13068
ionization energy=70 eV
ion type=[M]+*
computed spectral entropy=2.216993427047152
computed normalized entropy=0.6975946744125561
SPLASH=splash10-0a4l-9000000000-6e5db1e17bcdf366f700
submitter=submitter = University of Tokyo Team (Faculty of Engineering, University of Tokyo)
MoNA Rating=3.75

>  <NUM PEAKS>  (2878) 
24

>  <MASS SPECTRAL PEAKS>  (2878) 
14 5.13
15 36.89
16 1.44
26 2.48
27 7.59
29 15.15
31 2.98
37 0.55
38 1.04
39 4.59
40 0.51
41 22.64
42 6.11
43 82.33
44 1.92
45 2.9
55 2.02
56 3.41
57 99.99
58 22.55
59 5.06
73 7.57
146 4.34
147 0.25

$$$$

     RDKit          2D

 13 12  0  0  0  0  0  0  0  0999 V2000
    4.5466    6.3750    0.0000 C   0  0  0  0  0  0  0  0  0  0  0  0
    3.2476    7.1250    0.0000 C   0  0  0  0  0  0  0  0  0  0  0  0
    1.9486    6.3750    0.0000 C   0  0  0  0  0  0  0  0  0  0  0  0
    0.6495    7.1250    0.0000 C   0  0  0  0  0  0  0  0  0  0  0  0
   -0.6495    6.3750    0.0000 C   0  0  0  0  0  0  0  0  0  0  0  0
   -1.9486    7.1250    0.0000 C   0  0  0  0  0  0  0  0  0  0  0  0
   -3.2476    6.3750    0.0000 C   0  0  0  0  0  0  0  0  0  0  0  0
   -4.5466    7.1250    0.0000 C   0  0  0  0  0  0  0  0  0  0  0  0
   -5.8457    6.3750    0.0000 C   0  0  0  0  0  0  0  0  0  0  0  0
   -7.1447    7.1250    0.0000 C   0  0  0  0  0  0  0  0  0  0  0  0
   -8.4437    6.3750    0.0000 C   0  0  0  0  0  0  0  0  0  0  0  0
   -9.7428    7.1250    0.0000 C   0  0  0  0  0  0  0  0  0  0  0  0
  -11.0418    7.8750    0.0000 N   0  0  0  0  0  0  0  0  0  0  0  0
  2  1  1  0
  3  2  1  0
  4  3  1  0
  5  4  1  0
  6  5  1  0
  7  6  1  0
  8  7  1  0
  9  8  1  0
 10  9  1  0
 11 10  1  0
 12 11  1  0
 13 12  3  0
M  END
>  <NAME>  (2879) 
N-UNDECYL CYANIDE

>  <SYNONYMS>  (2879) 


>  <SPECTRUM TYPE>  (2879) 
MS1

>  <INSTRUMENT TYPE>  (2879) 
EI-B

>  <INSTRUMENT>  (2879) 
HITACHI M-60

>  <ION MODE>  (2879) 
P

>  <INCHIKEY>  (2879) 
VXCUURYYWGCLIH-UHFFFAOYSA-N

>  <FORMULA>  (2879) 
C12H23N

>  <EXACT MASS>  (2879) 
181.183049736

>  <MW>  (2879) 
181

>  <ID>  (2879) 
JP008318

>  <CONTRIBUTOR>  (2879) 
University of Tokyo Team, {Faculty of Engineering, University of Tokyo

>  <COMMENT>  (2879) 
SMILES=CCCCCCCCCCCC#N
InChI=InChI=1S/C12H23N/c1-2-3-4-5-6-7-8-9-10-11-12-13/h2-11H2,1H3
computed SMILES=N#CCCCCCCCCCCC
accession=JP008318
date=2016.01.19 (Created 2008.10.21, modified 2011.05.06)
author=UBE SCIENTIFIC ANALYSIS LABORATORY
license=CC BY-NC-SA
exact mass=181.18305
ionization energy=70 eV
ion type=[M]+*
computed spectral entropy=3.475401725854725
computed normalized entropy=0.8074696015499745
SPLASH=splash10-0537-9100000000-3b4e31a5c64705882194
submitter=submitter = University of Tokyo Team (Faculty of Engineering, University of Tokyo)
MoNA Rating=3.75

>  <NUM PEAKS>  (2879) 
74

>  <MASS SPECTRAL PEAKS>  (2879) 
18 0.72
27 35.38
28 10.33
29 51.95
30 6.38
39 23.28
40 6.78
41 99.99
42 27.31
43 89.59
44 8.64
51 2.38
52 2.5
53 7.95
54 48.4
55 61.39
56 26.04
57 62.89
58 4.78
65 2.45
66 3.09
67 7.07
68 13.04
69 51.9
70 32.52
71 15.82
72 1.93
77 1.26
79 6.91
80 2.73
81 8.65
82 61.19
83 54.93
84 10.39
85 7.95
91 1.8
93 4.36
94 1.93
95 6.46
96 73.49
97 92.06
98 11.24
99 1.37
105 0.97
106 0.19
107 3.43
108 1.07
109 2.18
110 62.17
111 33.13
112 5.23
120 0.42
121 1.55
122 2.06
124 48.77
125 9.39
126 2.07
128 0.82
129 1.09
134 0.84
135 1.06
136 1.97
137 1.58
138 23.48
139 4.45
141 0.26
144 1.15
146 0.73
149 1.09
150 1.14
152 4.4
153 0.6
166 3.64
168 1.28

$$$$

     RDKit          2D

 11 10  0  0  0  0  0  0  0  0999 V2000
   -9.0933    6.7500    0.0000 C   0  0  0  0  0  0  0  0  0  0  0  0
   -7.7942    6.0000    0.0000 C   0  0  0  0  0  0  0  0  0  0  0  0
   -6.4952    6.7500    0.0000 C   0  0  0  0  0  0  0  0  0  0  0  0
   -5.1962    6.0000    0.0000 C   0  0  0  0  0  0  0  0  0  0  0  0
   -3.8971    6.7500    0.0000 C   0  0  0  0  0  0  0  0  0  0  0  0
   -2.5981    6.0000    0.0000 C   0  0  0  0  0  0  0  0  0  0  0  0
   -1.2990    6.7500    0.0000 C   0  0  0  0  0  0  0  0  0  0  0  0
    0.0000    6.0000    0.0000 C   0  0  0  0  0  0  0  0  0  0  0  0
    1.2990    6.7500    0.0000 C   0  0  0  0  0  0  0  0  0  0  0  0
    2.5981    6.0000    0.0000 C   0  0  0  0  0  0  0  0  0  0  0  0
    3.8971    5.2500    0.0000 N   0  0  0  0  0  0  0  0  0  0  0  0
  2  1  1  0
  3  2  1  0
  4  3  1  0
  5  4  1  0
  6  5  1  0
  7  6  1  0
  8  7  1  0
  9  8  1  0
 10  9  1  0
 11 10  3  0
M  END
>  <NAME>  (2880) 
N-NONYL CYANIDE

>  <SYNONYMS>  (2880) 


>  <SPECTRUM TYPE>  (2880) 
MS1

>  <INSTRUMENT TYPE>  (2880) 
EI-B

>  <INSTRUMENT>  (2880) 
HITACHI M-60

>  <ION MODE>  (2880) 
P

>  <INCHIKEY>  (2880) 
HBZDPWBWBJMYRY-UHFFFAOYSA-N

>  <FORMULA>  (2880) 
C10H19N

>  <EXACT MASS>  (2880) 
153.151749608

>  <MW>  (2880) 
153

>  <ID>  (2880) 
JP008317

>  <CONTRIBUTOR>  (2880) 
University of Tokyo Team, {Faculty of Engineering, University of Tokyo

>  <COMMENT>  (2880) 
SMILES=CCCCCCCCCC#N
InChI=InChI=1S/C10H19N/c1-2-3-4-5-6-7-8-9-10-11/h2-9H2,1H3
computed SMILES=N#CCCCCCCCCC
accession=JP008317
date=2016.01.19 (Created 2008.10.21, modified 2011.05.06)
author=UBE SCIENTIFIC ANALYSIS LABORATORY
license=CC BY-NC-SA
exact mass=153.15175
ionization energy=70 eV
ion type=[M]+*
computed spectral entropy=3.07107662007349
computed normalized entropy=0.878326892216255
SPLASH=splash10-000y-9000000000-e84c6f9d6b16cb7c971d
submitter=submitter = University of Tokyo Team (Faculty of Engineering, University of Tokyo)
MoNA Rating=3.75

>  <NUM PEAKS>  (2880) 
33

>  <MASS SPECTRAL PEAKS>  (2880) 
27 34.76
28 6.85
29 50.48
39 21.71
41 99.99
42 32.91
43 69.07
53 2.98
54 59.77
55 28.51
56 13.55
57 55.59
67 10.51
68 13.68
69 58.82
70 15.64
71 11.48
79 0.77
80 1.09
81 5.8
82 73.77
83 70.29
84 10.91
93 6.34
95 3.44
96 78.32
97 53.78
98 6.21
109 5.17
110 44.58
111 20.16
124 10.99
138 3.49

$$$$

     RDKit          2D

 14 13  0  0  0  0  0  0  0  0999 V2000
   -2.5981    8.2500    0.0000 C   0  0  0  0  0  0  0  0  0  0  0  0
   -3.8971    7.5000    0.0000 C   0  0  0  0  0  0  0  0  0  0  0  0
   -1.2990    7.5000    0.0000 C   0  0  0  0  0  0  0  0  0  0  0  0
   -5.1962    8.2500    0.0000 C   0  0  0  0  0  0  0  0  0  0  0  0
    0.0000    8.2500    0.0000 C   0  0  0  0  0  0  0  0  0  0  0  0
   -6.4952    7.5000    0.0000 C   0  0  0  0  0  0  0  0  0  0  0  0
    1.2990    7.5000    0.0000 C   0  0  0  0  0  0  0  0  0  0  0  0
   -7.7942    8.2500    0.0000 C   0  0  0  0  0  0  0  0  0  0  0  0
    2.5981    8.2500    0.0000 C   0  0  0  0  0  0  0  0  0  0  0  0
   -9.0933    7.5000    0.0000 C   0  0  0  0  0  0  0  0  0  0  0  0
    3.8971    7.5000    0.0000 C   0  0  0  0  0  0  0  0  0  0  0  0
  -10.3923    8.2500    0.0000 C   0  0  0  0  0  0  0  0  0  0  0  0
    5.1962    6.7500    0.0000 N   0  0  0  0  0  0  0  0  0  0  0  0
  -11.6913    9.0000    0.0000 N   0  0  0  0  0  0  0  0  0  0  0  0
  2  1  1  0
  3  1  1  0
  4  2  1  0
  5  3  1  0
  6  4  1  0
  7  5  1  0
  8  6  1  0
  9  7  1  0
 10  8  1  0
 11  9  1  0
 12 10  1  0
 13 11  3  0
 14 12  3  0
M  END
>  <NAME>  (2881) 
1,10-DICYANODECANE

>  <SYNONYMS>  (2881) 


>  <SPECTRUM TYPE>  (2881) 
MS1

>  <INSTRUMENT TYPE>  (2881) 
EI-B

>  <INSTRUMENT>  (2881) 
HITACHI M-60

>  <ION MODE>  (2881) 
P

>  <INCHIKEY>  (2881) 
AVQYXBDAZWIFTO-UHFFFAOYSA-N

>  <FORMULA>  (2881) 
C12H20N2

>  <EXACT MASS>  (2881) 
192.16264864

>  <MW>  (2881) 
192

>  <ID>  (2881) 
JP008316

>  <CONTRIBUTOR>  (2881) 
University of Tokyo Team, {Faculty of Engineering, University of Tokyo

>  <COMMENT>  (2881) 
SMILES=N#CCCCCCCCCCCC#N
InChI=InChI=1S/C12H20N2/c13-11-9-7-5-3-1-2-4-6-8-10-12-14/h1-10H2
computed SMILES=N#CCCCCCCCCCCC#N
accession=JP008316
date=2016.01.19 (Created 2008.10.21, modified 2011.05.06)
license=CC BY-NC-SA
author=UBE SCIENTIFIC ANALYSIS LABORATORY
exact mass=192.16265
ionization energy=70 eV
ion type=[M]+*
computed spectral entropy=3.1769024714130456
computed normalized entropy=0.8206503517801016
SPLASH=splash10-001j-9100000000-0cb68a64a6f638730839
submitter=submitter = University of Tokyo Team (Faculty of Engineering, University of Tokyo)
MoNA Rating=3.75

>  <NUM PEAKS>  (2881) 
48

>  <MASS SPECTRAL PEAKS>  (2881) 
27 23.86
28 10.72
29 29.05
39 20.15
40 4.72
41 83.31
42 18.3
43 20.04
53 9.08
54 38.64
55 61.89
56 10.94
57 11.86
67 11.55
68 10.13
69 52.87
70 7.08
77 3.52
79 7.02
80 4.05
81 11.41
82 70.51
83 99.99
84 8.5
91 1.76
93 3.74
94 2.51
95 5.77
96 62.81
97 94.97
98 8.85
107 2.5
108 1.95
109 3.78
110 32.14
111 6.11
122 1.59
124 9.1
135 1.74
138 2.83
141 1.04
142 1.05
149 2.79
152 16.82
153 2.39
163 4.28
171 0.11
191 2.29

$$$$

     RDKit          2D

 14 13  0  0  0  0  0  0  0  0999 V2000
   -3.8971    7.5000    0.0000 C   0  0  0  0  0  0  0  0  0  0  0  0
   -5.1962    8.2500    0.0000 C   0  0  0  0  0  0  0  0  0  0  0  0
   -2.5981    8.2500    0.0000 C   0  0  0  0  0  0  0  0  0  0  0  0
   -6.4952    7.5000    0.0000 C   0  0  0  0  0  0  0  0  0  0  0  0
   -1.2990    7.5000    0.0000 C   0  0  0  0  0  0  0  0  0  0  0  0
   -7.7942    8.2500    0.0000 C   0  0  0  0  0  0  0  0  0  0  0  0
    0.0000    8.2500    0.0000 C   0  0  0  0  0  0  0  0  0  0  0  0
   -9.0933    7.5000    0.0000 C   0  0  0  0  0  0  0  0  0  0  0  0
    1.2990    7.5000    0.0000 C   0  0  0  0  0  0  0  0  0  0  0  0
  -10.3923    8.2500    0.0000 C   0  0  0  0  0  0  0  0  0  0  0  0
    2.5981    8.2500    0.0000 C   0  0  0  0  0  0  0  0  0  0  0  0
  -11.6913    7.5000    0.0000 C   0  0  0  0  0  0  0  0  0  0  0  0
    3.8971    7.5000    0.0000 N   0  0  0  0  0  0  0  0  0  0  0  0
  -12.9904    6.7500    0.0000 N   0  0  0  0  0  0  0  0  0  0  0  0
  2  1  1  0
  3  1  1  0
  4  2  1  0
  5  3  1  0
  6  4  1  0
  7  5  1  0
  8  6  1  0
  9  7  1  0
 10  8  1  0
 11  9  1  0
 12 10  1  0
 13 11  1  0
 14 12  3  0
M  END
>  <NAME>  (2882) 
1-AMINO-11-CYANOUNDECANE

>  <SYNONYMS>  (2882) 


>  <SPECTRUM TYPE>  (2882) 
MS1

>  <INSTRUMENT TYPE>  (2882) 
EI-B

>  <INSTRUMENT>  (2882) 
HITACHI M-60

>  <ION MODE>  (2882) 
P

>  <INCHIKEY>  (2882) 
BVJKISUCBKDPOW-UHFFFAOYSA-N

>  <FORMULA>  (2882) 
C12H24N2

>  <EXACT MASS>  (2882) 
196.19394876799998

>  <MW>  (2882) 
196

>  <ID>  (2882) 
JP008315

>  <CONTRIBUTOR>  (2882) 
University of Tokyo Team, {Faculty of Engineering, University of Tokyo

>  <COMMENT>  (2882) 
SMILES=NCCCCCCCCCCCC#N
InChI=InChI=1S/C12H24N2/c13-11-9-7-5-3-1-2-4-6-8-10-12-14/h1-11,13H2
computed SMILES=N#CCCCCCCCCCCCN
accession=JP008315
date=2016.01.19 (Created 2008.10.21, modified 2011.05.06)
author=UBE SCIENTIFIC ANALYSIS LABORATORY
license=CC BY-NC-SA
exact mass=196.19395
ionization energy=70 eV
ion type=[M]+*
computed spectral entropy=2.6306506667255674
computed normalized entropy=0.6759435084920743
SPLASH=splash10-001i-9000000000-741492e2ef016c342b4c
submitter=submitter = University of Tokyo Team (Faculty of Engineering, University of Tokyo)
MoNA Rating=3.75

>  <NUM PEAKS>  (2882) 
49

>  <MASS SPECTRAL PEAKS>  (2882) 
18 3.98
27 3.4
28 1.97
29 5.36
30 99.99
31 3.55
32 1.93
39 3.13
41 9.25
42 4.38
43 2.89
44 3.43
45 13.12
54 2.55
55 5.62
56 2.36
57 0.49
59 4.18
67 1.76
69 2.6
70 0.41
72 2.67
73 1.77
77 1.03
81 1.03
82 0.98
83 4.3
84 0.38
86 7.21
87 2
95 0.76
96 1.09
97 2.27
98 0.91
100 2.82
101 0.77
102 1.74
110 1
114 1.31
122 0.63
128 0.78
136 0.61
142 0.84
143 0.58
153 0.51
156 6.72
157 1.19
195 1.02
196 0.71

$$$$

     RDKit          2D

 14 13  0  0  0  0  0  0  0  0999 V2000
   -3.2476    7.1250    0.0000 C   0  0  0  0  0  0  0  0  0  0  0  0
   -4.5466    7.8750    0.0000 C   0  0  0  0  0  0  0  0  0  0  0  0
   -1.9486    7.8750    0.0000 C   0  0  0  0  0  0  0  0  0  0  0  0
   -5.8457    7.1250    0.0000 C   0  0  0  0  0  0  0  0  0  0  0  0
   -0.6495    7.1250    0.0000 C   0  0  0  0  0  0  0  0  0  0  0  0
   -7.1447    7.8750    0.0000 C   0  0  0  0  0  0  0  0  0  0  0  0
    0.6495    7.8750    0.0000 C   0  0  0  0  0  0  0  0  0  0  0  0
   -8.4437    7.1250    0.0000 C   0  0  0  0  0  0  0  0  0  0  0  0
    1.9486    7.1250    0.0000 C   0  0  0  0  0  0  0  0  0  0  0  0
   -9.7428    7.8750    0.0000 C   0  0  0  0  0  0  0  0  0  0  0  0
    3.2476    7.8750    0.0000 C   0  0  0  0  0  0  0  0  0  0  0  0
  -11.0418    7.1250    0.0000 C   0  0  0  0  0  0  0  0  0  0  0  0
    4.5466    7.1250    0.0000 N   0  0  0  0  0  0  0  0  0  0  0  0
  -12.3409    7.8750    0.0000 N   0  0  0  0  0  0  0  0  0  0  0  0
  2  1  1  0
  3  1  1  0
  4  2  1  0
  5  3  1  0
  6  4  1  0
  7  5  1  0
  8  6  1  0
  9  7  1  0
 10  8  1  0
 11  9  1  0
 12 10  1  0
 13 11  1  0
 14 12  1  0
M  END
>  <NAME>  (2883) 
1,12-DIAMINODODECANE

>  <SYNONYMS>  (2883) 


>  <SPECTRUM TYPE>  (2883) 
MS1

>  <INSTRUMENT TYPE>  (2883) 
EI-B

>  <INSTRUMENT>  (2883) 
HITACHI M-60

>  <ION MODE>  (2883) 
P

>  <INCHIKEY>  (2883) 
QFTYSVGGYOXFRQ-UHFFFAOYSA-N

>  <FORMULA>  (2883) 
C12H28N2

>  <EXACT MASS>  (2883) 
200.22524889599998

>  <MW>  (2883) 
200

>  <ID>  (2883) 
JP008314

>  <CONTRIBUTOR>  (2883) 
University of Tokyo Team, {Faculty of Engineering, University of Tokyo

>  <COMMENT>  (2883) 
SMILES=NCCCCCCCCCCCCN
InChI=InChI=1S/C12H28N2/c13-11-9-7-5-3-1-2-4-6-8-10-12-14/h1-14H2
computed SMILES=NCCCCCCCCCCCCN
accession=JP008314
date=2016.01.19 (Created 2008.10.21, modified 2011.05.06)
author=UBE SCIENTIFIC ANALYSIS LABORATORY
license=CC BY-NC-SA
exact mass=200.22525
ionization energy=70 eV
ion type=[M]+*
computed spectral entropy=3.0115768785335804
computed normalized entropy=0.7416867742538045
SPLASH=splash10-001i-9100000000-bc4a8ee49352a0c80adf
submitter=submitter = University of Tokyo Team (Faculty of Engineering, University of Tokyo)
MoNA Rating=3.75

>  <NUM PEAKS>  (2883) 
58

>  <MASS SPECTRAL PEAKS>  (2883) 
18 15.8
27 2.52
28 1.47
29 4.4
30 99.99
31 1.25
41 9.83
42 3.02
43 6.03
44 25.45
45 6.61
55 8.61
56 9.17
57 2.82
59 3.58
67 1.69
68 1.24
69 5.43
70 4.18
72 4.71
73 3.04
77 1.18
81 1.36
82 1.89
83 3.12
84 2.4
86 5.45
87 2.3
96 0.68
97 2.31
98 1.82
100 4.39
101 0.83
102 4.29
110 0.71
111 0.95
112 0.96
114 2.53
115 0.7
126 0.8
128 3.86
129 0.75
141 0.5
142 4.44
143 0.68
154 0.8
156 5.38
157 0.94
166 0.43
170 1.75
171 8.04
172 1.13
182 0.7
183 0.43
184 5.79
185 0.95
199 0.68
200 1.55

$$$$

     RDKit          2D

 18 18  0  0  0  0  0  0  0  0999 V2000
   -3.9000   -0.7500    0.0000 C   0  0  0  0  0  0  0  0  0  0  0  0
   -5.2000    0.0000    0.0000 C   0  0  0  0  0  0  0  0  0  0  0  0
   -3.9000   -2.2500    0.0000 C   0  0  0  0  0  0  0  0  0  0  0  0
   -5.2000    1.5000    0.0000 C   0  0  0  0  0  0  0  0  0  0  0  0
   -2.6000   -3.0000    0.0000 C   0  0  0  0  0  0  0  0  0  0  0  0
   -3.9000    2.2500    0.0000 C   0  0  0  0  0  0  0  0  0  0  0  0
   -0.0000   -3.0000    0.0000 C   0  0  0  0  0  0  0  0  0  0  0  0
   -3.9000    3.7500    0.0000 C   0  0  0  0  0  0  0  0  0  0  0  0
    1.3000   -2.2500    0.0000 C   0  0  0  0  0  0  0  0  0  0  0  0
   -2.6000    4.5000    0.0000 C   0  0  0  0  0  0  0  0  0  0  0  0
    1.3000   -0.7500    0.0000 C   0  0  0  0  0  0  0  0  0  0  0  0
   -1.3000    3.7500    0.0000 C   0  0  0  0  0  0  0  0  0  0  0  0
    2.6000   -0.0000    0.0000 C   0  0  0  0  0  0  0  0  0  0  0  0
    0.0000    4.5000    0.0000 C   0  0  0  0  0  0  0  0  0  0  0  0
    2.6000    1.5000    0.0000 C   0  0  0  0  0  0  0  0  0  0  0  0
    1.3000    3.7500    0.0000 C   0  0  0  0  0  0  0  0  0  0  0  0
    2.5989    4.5002    0.0000 O   0  0  0  0  0  0  0  0  0  0  0  0
    1.3000    2.2500    0.0000 O   0  0  0  0  0  0  0  0  0  0  0  0
  2  1  1  0
  3  1  1  0
  4  2  1  0
  5  3  1  0
  6  4  1  0
  7  5  1  0
  8  6  1  0
  9  7  1  0
 10  8  1  0
 11  9  1  0
 12 10  1  0
 13 11  1  0
 14 12  1  0
 15 13  1  0
 16 14  1  0
 17 16  2  0
 18 15  1  0
 18 16  1  0
M  END
>  <NAME>  (2884) 
HEXADECALACTONE

>  <SYNONYMS>  (2884) 
1-OXACYCLOHEPTADECANE-2-ONE

>  <SPECTRUM TYPE>  (2884) 
MS1

>  <INSTRUMENT TYPE>  (2884) 
EI-B

>  <INSTRUMENT>  (2884) 
HITACHI M-60

>  <ION MODE>  (2884) 
P

>  <INCHIKEY>  (2884) 
LOKPJYNMYCVCRM-UHFFFAOYSA-N

>  <FORMULA>  (2884) 
C16H30O2

>  <EXACT MASS>  (2884) 
254.2245802

>  <MW>  (2884) 
254

>  <ID>  (2884) 
JP008313

>  <CONTRIBUTOR>  (2884) 
University of Tokyo Team, {Faculty of Engineering, University of Tokyo

>  <COMMENT>  (2884) 
SMILES=O=C(C1)OCCCCCCCCCCCCCC1
InChI=InChI=1S/C16H30O2/c17-16-14-12-10-8-6-4-2-1-3-5-7-9-11-13-15-18-16/h1-15H2
computed SMILES=O=C1OCCCCCCCCCCCCCCC1
accession=JP008313
date=2016.01.19 (Created 2008.10.21, modified 2011.05.06)
author=UBE SCIENTIFIC ANALYSIS LABORATORY
license=CC BY-NC-SA
exact mass=254.22458
ionization energy=70 eV
ion type=[M]+*
computed spectral entropy=4.040666822273912
computed normalized entropy=0.8176768929671655
SPLASH=splash10-0537-9200000000-8b37704b6f477b82520b
submitter=submitter = University of Tokyo Team (Faculty of Engineering, University of Tokyo)
MoNA Rating=3.75

>  <NUM PEAKS>  (2884) 
140

>  <MASS SPECTRAL PEAKS>  (2884) 
27 11.88
28 4.61
29 32.39
31 0.88
39 11.17
40 3.61
41 83.66
42 21.91
43 50.88
44 1.92
45 1.5
53 4.7
54 12.08
55 99.99
56 33.18
57 31.28
58 8.08
59 3.74
60 8.69
61 4.53
65 0.5
66 2.11
67 20
68 23.22
69 57.49
70 27.48
71 20.53
72 1.24
73 17.47
74 1.8
79 2.75
80 4.06
81 23.39
82 41.65
83 56.63
84 30.74
85 8.33
86 0.9
87 5.19
91 1.12
93 1.99
94 4.04
95 16.15
96 34.53
97 37.35
98 27.67
99 4.56
100 4.22
101 7.87
102 1.35
105 0.35
107 1.8
108 2.87
109 10.22
110 14.11
111 18.29
112 8.43
113 5.26
114 7.39
115 5.21
116 6.21
117 0.46
119 2.07
120 0.48
121 2.41
122 2.31
123 9.23
124 11.14
125 9.32
126 4.18
127 5.58
128 1.95
129 6.94
130 1.2
133 1.91
134 1.63
135 2.54
136 1.73
137 5.91
138 8.7
139 5.55
140 2.62
141 2.33
142 1.24
143 1.72
144 0.41
147 1.1
148 1.78
149 2.14
150 1
151 4.74
152 7.37
153 3.35
154 1.36
155 2
156 0.72
157 0.59
158 1.32
161 0.94
162 0.42
163 0.67
164 0.9
165 3.46
166 4.08
167 1.82
168 0.34
169 1.01
171 0.95
172 2.02
173 0.45
175 0.47
179 2.03
180 1.06
181 1.11
182 0.65
183 0.46
185 2.27
186 1.1
187 0.63
189 0.27
190 0.37
192 3.67
193 2.17
194 7.5
195 1.99
197 0.8
207 1.09
208 2.41
209 0.35
211 1.92
212 0.16
218 1.88
219 0.38
225 0.46
226 0.28
236 12.15
237 2.26
253 0.28
254 8.59
255 1.77

$$$$

     RDKit          2D

 13 13  0  0  0  0  0  0  0  0999 V2000
    8.4306   -2.4575    0.0000 C   0  0  0  0  0  0  0  0  0  0  0  0
    7.1336   -3.2111    0.0000 C   0  0  0  0  0  0  0  0  0  0  0  0
    5.8325   -2.4646    0.0000 C   0  0  0  0  0  0  0  0  0  0  0  0
    4.5356   -3.2182    0.0000 C   0  0  0  0  0  0  0  0  0  0  0  0
    3.2345   -2.4717    0.0000 C   0  0  0  0  0  0  0  0  0  0  0  0
    1.9375   -3.2253    0.0000 C   0  0  0  0  0  0  0  0  0  0  0  0
    0.6364   -2.4789    0.0000 C   0  0  0  0  0  0  0  0  0  0  0  0
   -0.8088   -4.7208    0.0000 C   0  0  0  0  0  0  0  0  0  0  0  0
   -2.2853   -5.0376    0.0000 C   0  0  0  0  0  0  0  0  0  0  0  0
   -0.6606   -3.2324    0.0000 C   0  0  0  0  0  0  0  0  0  0  0  0
   -3.0287   -3.7324    0.0000 C   0  0  0  0  0  0  0  0  0  0  0  0
   -4.5201   -3.5719    0.0000 O   0  0  0  0  0  0  0  0  0  0  0  0
   -2.0309   -2.6223    0.0000 O   0  0  0  0  0  0  0  0  0  0  0  0
  2  1  1  0
  3  2  1  0
  4  3  1  0
  5  4  1  0
  6  5  1  0
  7  6  1  0
  9  8  1  0
 10  7  1  0
 10  8  1  0
 11  9  1  0
 12 11  2  0
 13 10  1  0
 13 11  1  0
M  END
>  <NAME>  (2885) 
GAMMA-UNDECALACTONE

>  <SYNONYMS>  (2885) 


>  <SPECTRUM TYPE>  (2885) 
MS1

>  <INSTRUMENT TYPE>  (2885) 
EI-B

>  <INSTRUMENT>  (2885) 
HITACHI M-60

>  <ION MODE>  (2885) 
P

>  <INCHIKEY>  (2885) 
PHXATPHONSXBIL-UHFFFAOYSA-N

>  <FORMULA>  (2885) 
C11H20O2

>  <EXACT MASS>  (2885) 
184.14632988

>  <MW>  (2885) 
184

>  <ID>  (2885) 
JP008312

>  <CONTRIBUTOR>  (2885) 
University of Tokyo Team, {Faculty of Engineering, University of Tokyo

>  <COMMENT>  (2885) 
SMILES=CCCCCCCC(C1)OC(=O)C1
InChI=InChI=1S/C11H20O2/c1-2-3-4-5-6-7-10-8-9-11(12)13-10/h10H,2-9H2,1H3
computed SMILES=O=C1OC(CC1)CCCCCCC
accession=JP008312
date=2016.01.19 (Created 2008.10.21, modified 2011.05.06)
author=UBE SCIENTIFIC ANALYSIS LABORATORY
license=CC BY-NC-SA
exact mass=184.14633
ionization energy=70 eV
ion type=[M]+*
computed spectral entropy=3.1933926566361506
computed normalized entropy=0.713234851197656
SPLASH=splash10-000i-9100000000-f2e76be7239fd347d477
submitter=submitter = University of Tokyo Team (Faculty of Engineering, University of Tokyo)
MoNA Rating=3.75

>  <NUM PEAKS>  (2885) 
88

>  <MASS SPECTRAL PEAKS>  (2885) 
15 0.36
18 0.33
26 0.43
27 8.37
28 6.64
29 25.91
30 0.52
31 0.41
32 0.44
39 4.63
40 0.9
41 15.56
42 5.13
43 13.4
44 0.96
45 0.41
51 0.2
53 1.38
54 2.13
55 14.85
56 12.23
57 12.85
58 1.61
59 0.75
60 1.42
65 0.18
67 2.1
68 2.76
69 7.57
70 3.9
71 2.69
72 2.31
73 1.73
74 0.23
77 0.12
79 0.53
80 0.26
81 2.14
82 2.86
83 3.91
84 6.53
85 99.99
86 4.52
87 1.14
88 1.11
89 0.1
93 0.26
94 0.25
95 2.2
96 2.16
97 1.79
98 2.21
99 9.81
100 5.35
101 2.22
102 0.25
107 0.12
109 0.95
110 1.74
111 1.26
112 0.58
113 0.92
114 2.94
115 0.4
116 0.13
119 0.54
122 1.55
123 1.29
124 1.91
125 1.5
126 0.3
127 2.5
128 9.03
129 1.03
137 0.7
138 0.47
141 0.65
142 0.37
143 0.21
147 0.16
148 0.67
155 0.33
156 0.11
166 0.77
167 0.12
183 0.23
184 0.14
185 0.1

$$$$

     RDKit          2D

 12 12  0  0  0  0  0  0  0  0999 V2000
   -5.5207    3.1321    0.0000 C   0  0  0  0  0  0  0  0  0  0  0  0
    3.5726    0.8821    0.0000 C   0  0  0  0  0  0  0  0  0  0  0  0
    3.5731    2.3829    0.0000 C   0  0  0  0  0  0  0  0  0  0  0  0
    2.2731    0.1313    0.0000 C   0  0  0  0  0  0  0  0  0  0  0  0
    2.2740    3.1329    0.0000 C   0  0  0  0  0  0  0  0  0  0  0  0
    0.9740    0.8813    0.0000 C   0  0  0  0  0  0  0  0  0  0  0  0
   -0.3245    3.1321    0.0000 C   0  0  0  0  0  0  0  0  0  0  0  0
   -1.6236    2.3821    0.0000 C   0  0  0  0  0  0  0  0  0  0  0  0
    0.9745    2.3821    0.0000 C   0  0  0  0  0  0  0  0  0  0  0  0
   -2.9226    3.1321    0.0000 C   0  0  0  0  0  0  0  0  0  0  0  0
   -2.9226    4.6321    0.0000 O   0  0  0  0  0  0  0  0  0  0  0  0
   -4.2216    2.3821    0.0000 O   0  0  0  0  0  0  0  0  0  0  0  0
  3  2  2  0
  4  2  1  0
  5  3  1  0
  6  4  2  0
  8  7  1  0
  9  5  2  0
  9  6  1  0
  9  7  1  0
 10  8  1  0
 11 10  2  0
 12  1  1  0
 12 10  1  0
M  END
>  <NAME>  (2886) 
3-PHENYLPROPIONIC ACID METHYL ESTER

>  <SYNONYMS>  (2886) 


>  <SPECTRUM TYPE>  (2886) 
MS1

>  <INSTRUMENT TYPE>  (2886) 
EI-B

>  <INSTRUMENT>  (2886) 
HITACHI M-60

>  <ION MODE>  (2886) 
P

>  <INCHIKEY>  (2886) 
RPUSRLKKXPQSGP-UHFFFAOYSA-N

>  <FORMULA>  (2886) 
C10H12O2

>  <EXACT MASS>  (2886) 
164.083729624

>  <MW>  (2886) 
164

>  <ID>  (2886) 
JP008311

>  <CONTRIBUTOR>  (2886) 
University of Tokyo Team, {Faculty of Engineering, University of Tokyo

>  <COMMENT>  (2886) 
SMILES=COC(=O)CCc(c1)cccc1
InChI=InChI=1S/C10H12O2/c1-12-10(11)8-7-9-5-3-2-4-6-9/h2-6H,7-8H2,1H3
computed SMILES=O=C(OC)CCC=1C=CC=CC1
accession=JP008311
date=2016.01.19 (Created 2008.10.21, modified 2011.05.06)
author=UBE SCIENTIFIC ANALYSIS LABORATORY
license=CC BY-NC-SA
exact mass=164.08373
ionization energy=70 eV
ion type=[M]+*
computed spectral entropy=2.6374791780742086
computed normalized entropy=0.7102270080394315
SPLASH=splash10-0udl-6900000000-e9a28be25660348684ac
submitter=submitter = University of Tokyo Team (Faculty of Engineering, University of Tokyo)
MoNA Rating=3.75

>  <NUM PEAKS>  (2886) 
41

>  <MASS SPECTRAL PEAKS>  (2886) 
15 5.43
17 0.71
18 1.09
27 4.27
29 0.78
39 6.75
41 0.84
45 0.7
50 3.8
51 9.95
52 2.77
53 1.12
55 1.34
59 2.13
62 0.53
63 3
65 8.57
74 0.85
75 0.92
76 1.04
77 13.08
78 10.99
79 10.39
87 0.59
89 1.66
90 0.35
91 65.34
92 5.42
102 1.32
103 11.05
104 99.99
105 41.51
106 2.91
107 4.14
121 0.99
131 2.76
132 1.14
133 9.76
134 0.98
164 31.66
165 3.47

$$$$

     RDKit          2D

 13 12  0  0  0  0  0  0  0  0999 V2000
  -10.3923    6.7500    0.0000 C   0  0  0  0  0  0  0  0  0  0  0  0
    3.8971    6.0000    0.0000 C   0  0  0  0  0  0  0  0  0  0  0  0
   -9.0933    6.0000    0.0000 C   0  0  0  0  0  0  0  0  0  0  0  0
    2.5981    6.7500    0.0000 C   0  0  0  0  0  0  0  0  0  0  0  0
   -7.7942    6.7500    0.0000 C   0  0  0  0  0  0  0  0  0  0  0  0
   -6.4952    6.0000    0.0000 C   0  0  0  0  0  0  0  0  0  0  0  0
   -5.1962    6.7500    0.0000 C   0  0  0  0  0  0  0  0  0  0  0  0
   -3.8971    6.0000    0.0000 C   0  0  0  0  0  0  0  0  0  0  0  0
   -2.5981    6.7500    0.0000 C   0  0  0  0  0  0  0  0  0  0  0  0
   -1.2990    6.0000    0.0000 C   0  0  0  0  0  0  0  0  0  0  0  0
    0.0000    6.7500    0.0000 C   0  0  0  0  0  0  0  0  0  0  0  0
    0.0000    8.2500    0.0000 O   0  0  0  0  0  0  0  0  0  0  0  0
    1.2990    6.0000    0.0000 O   0  0  0  0  0  0  0  0  0  0  0  0
  3  1  1  0
  4  2  1  0
  5  3  1  0
  6  5  1  0
  7  6  1  0
  8  7  1  0
  9  8  1  0
 10  9  1  0
 11 10  1  0
 12 11  2  0
 13  4  1  0
 13 11  1  0
M  END
>  <NAME>  (2887) 
ETHYL PELARGONATE

>  <SYNONYMS>  (2887) 


>  <SPECTRUM TYPE>  (2887) 
MS1

>  <INSTRUMENT TYPE>  (2887) 
EI-B

>  <INSTRUMENT>  (2887) 
HITACHI M-60

>  <ION MODE>  (2887) 
P

>  <INCHIKEY>  (2887) 
BYEVBITUADOIGY-UHFFFAOYSA-N

>  <FORMULA>  (2887) 
C11H22O2

>  <EXACT MASS>  (2887) 
186.161979944

>  <MW>  (2887) 
186

>  <ID>  (2887) 
JP008310

>  <CONTRIBUTOR>  (2887) 
University of Tokyo Team, {Faculty of Engineering, University of Tokyo

>  <COMMENT>  (2887) 
SMILES=CCCCCCCCC(=O)OCC
InChI=InChI=1S/C11H22O2/c1-3-5-6-7-8-9-10-11(12)13-4-2/h3-10H2,1-2H3
computed SMILES=O=C(OCC)CCCCCCCC
accession=JP008310
date=2016.01.19 (Created 2008.10.21, modified 2011.05.06)
author=UBE SCIENTIFIC ANALYSIS LABORATORY
license=CC BY-NC-SA
exact mass=186.16198
ionization energy=70 eV
ion type=[M]+*
computed spectral entropy=3.331020468596882
computed normalized entropy=0.7668438489068867
SPLASH=splash10-000l-9100000000-25aeab30af507c69c9d5
submitter=submitter = University of Tokyo Team (Faculty of Engineering, University of Tokyo)
MoNA Rating=3.75

>  <NUM PEAKS>  (2887) 
77

>  <MASS SPECTRAL PEAKS>  (2887) 
15 0.58
18 0.54
26 0.47
27 11.87
28 3.99
29 32.33
30 0.76
31 0.62
39 5.4
40 1.43
41 24.74
42 9
43 30.4
44 1.39
45 11.12
46 0.3
53 1.66
54 1.29
55 21.65
56 7.53
57 21.72
58 1.28
59 1.87
60 25.47
61 21.11
62 0.63
67 2.11
68 1.71
69 9.22
70 23.59
71 14.12
72 0.79
73 23.43
74 3.36
75 0.59
79 0.35
81 2.79
82 0.37
83 5.05
84 4.52
85 0.78
87 3.24
88 99.99
89 8.16
90 0.62
93 0.18
94 0.34
95 0.52
96 0.73
97 3.93
98 1.83
99 0.29
101 37.77
102 3.48
103 0.35
111 0.96
112 1.13
113 0.12
115 6.82
116 0.72
121 0.24
122 0.15
123 0.96
125 0.24
129 2.88
130 0.51
139 0.89
140 0.21
141 20.26
142 1.96
143 7.87
144 0.96
157 6.43
158 0.85
159 1.09
186 2.78
187 0.62

$$$$

     RDKit          2D

 12 12  0  0  0  0  0  0  0  0999 V2000
   -1.3000    0.7500    0.0000 C   0  0  0  0  0  0  0  0  0  0  0  0
   -0.0000   -1.5000    0.0000 C   0  0  0  0  0  0  0  0  0  0  0  0
    0.0000    1.5000    0.0000 C   0  0  0  0  0  0  0  0  0  0  0  0
    1.3000   -0.7500    0.0000 C   0  0  0  0  0  0  0  0  0  0  0  0
   -1.3000   -0.7500    0.0000 C   0  0  0  0  0  0  0  0  0  0  0  0
    1.3000    0.7500    0.0000 C   0  0  0  0  0  0  0  0  0  0  0  0
    3.8981    0.7504    0.0000 C   0  0  0  0  0  0  0  0  0  0  0  0
   -2.5989   -1.5002    0.0000 Cl  0  0  0  0  0  0  0  0  0  0  0  0
    3.1483   -0.5487    0.0000 F   0  0  0  0  0  0  0  0  0  0  0  0
    5.1972    0.0006    0.0000 F   0  0  0  0  0  0  0  0  0  0  0  0
    4.6479    2.0496    0.0000 F   0  0  0  0  0  0  0  0  0  0  0  0
    2.5989    1.5002    0.0000 S   0  0  0  0  0  0  0  0  0  0  0  0
  3  1  2  0
  4  2  1  0
  5  1  1  0
  5  2  2  0
  6  3  1  0
  6  4  2  0
  8  5  1  0
  9  7  1  0
 10  7  1  0
 11  7  1  0
 12  6  1  0
 12  7  1  0
M  END
>  <NAME>  (2888) 
TRIFLUOROMETHYL PARA-CHLOROPHENYL THIOETHER

>  <SYNONYMS>  (2888) 


>  <SPECTRUM TYPE>  (2888) 
MS1

>  <INSTRUMENT TYPE>  (2888) 
EI-B

>  <INSTRUMENT>  (2888) 
HITACHI M-60

>  <ION MODE>  (2888) 
P

>  <INCHIKEY>  (2888) 
ATFBQTUDGRJCNB-UHFFFAOYSA-N

>  <FORMULA>  (2888) 
C7H4ClF3S

>  <EXACT MASS>  (2888) 
211.967433468

>  <MW>  (2888) 
212

>  <ID>  (2888) 
JP008309

>  <CONTRIBUTOR>  (2888) 
University of Tokyo Team, {Faculty of Engineering, University of Tokyo

>  <COMMENT>  (2888) 
SMILES=Clc(c1)ccc(c1)SC(F)(F)F
InChI=InChI=1S/C7H4ClF3S/c8-5-1-3-6(4-2-5)12-7(9,10)11/h1-4H
computed SMILES=FC(F)(F)SC1=CC=C(Cl)C=C1
accession=JP008309
date=2016.01.19 (Created 2008.10.21, modified 2011.05.06)
author=UBE SCIENTIFIC ANALYSIS LABORATORY
license=CC BY-NC-SA
exact mass=211.96743
ionization energy=70 eV
ion type=[M]+*
computed spectral entropy=2.920598852763636
computed normalized entropy=0.7917306296107093
SPLASH=splash10-03dl-6940000000-00d79afecce0b1c7be7f
submitter=submitter = University of Tokyo Team (Faculty of Engineering, University of Tokyo)
MoNA Rating=3.75

>  <NUM PEAKS>  (2888) 
40

>  <MASS SPECTRAL PEAKS>  (2888) 
38 5.11
39 4.67
45 7.49
50 13.51
51 5.09
57 4.87
58 3.36
61 3.98
62 6.6
63 18.11
69 36.26
73 9.06
74 8.47
75 14.23
76 1.61
81 4.91
82 11.03
85 1.24
99 13.77
101 4.64
107 4.52
108 56.51
109 4.84
110 2.57
111 3.45
127 1.4
142 1.97
143 99.99
144 8.5
145 37.87
146 2.71
147 0.81
193 5.14
194 0.91
195 2.18
212 75.21
213 6.55
214 27.65
215 2.6
216 0.95

$$$$

     RDKit          2D

 11 10  0  0  0  0  0  0  0  0999 V2000
    2.5981    4.5000    0.0000 C   0  0  0  0  0  0  0  0  0  0  0  0
   -7.7942    4.5000    0.0000 C   0  0  0  0  0  0  0  0  0  0  0  0
   -2.5981    4.5000    0.0000 C   0  0  0  0  0  0  0  0  0  0  0  0
   -1.2990    5.2500    0.0000 C   0  0  0  0  0  0  0  0  0  0  0  0
   -3.8971    5.2500    0.0000 C   0  0  0  0  0  0  0  0  0  0  0  0
    0.0000    4.5000    0.0000 C   0  0  0  0  0  0  0  0  0  0  0  0
   -5.1962    4.5000    0.0000 C   0  0  0  0  0  0  0  0  0  0  0  0
    0.0000    3.0000    0.0000 O   0  0  0  0  0  0  0  0  0  0  0  0
   -5.1962    3.0000    0.0000 O   0  0  0  0  0  0  0  0  0  0  0  0
    1.2990    5.2500    0.0000 O   0  0  0  0  0  0  0  0  0  0  0  0
   -6.4952    5.2500    0.0000 O   0  0  0  0  0  0  0  0  0  0  0  0
  4  3  1  0
  5  3  1  0
  6  4  1  0
  7  5  1  0
  8  6  2  0
  9  7  2  0
 10  1  1  0
 10  6  1  0
 11  2  1  0
 11  7  1  0
M  END
>  <NAME>  (2889) 
DIMETHYL GLUTARATE

>  <SYNONYMS>  (2889) 


>  <SPECTRUM TYPE>  (2889) 
MS1

>  <INSTRUMENT TYPE>  (2889) 
EI-B

>  <INSTRUMENT>  (2889) 
HITACHI M-60

>  <ION MODE>  (2889) 
P

>  <INCHIKEY>  (2889) 
XTDYIOOONNVFMA-UHFFFAOYSA-N

>  <FORMULA>  (2889) 
C7H12O4

>  <EXACT MASS>  (2889) 
160.073558864

>  <MW>  (2889) 
160

>  <ID>  (2889) 
JP008307

>  <CONTRIBUTOR>  (2889) 
University of Tokyo Team, {Faculty of Engineering, University of Tokyo

>  <COMMENT>  (2889) 
SMILES=COC(=O)CCCC(=O)OC
InChI=InChI=1S/C7H12O4/c1-10-6(8)4-3-5-7(9)11-2/h3-5H2,1-2H3
computed SMILES=O=C(OC)CCCC(=O)OC
accession=JP008307
date=2016.01.19 (Created 2008.10.21, modified 2011.05.06)
author=UBE SCIENTIFIC ANALYSIS LABORATORY
license=CC BY-NC-SA
exact mass=160.07356
ionization energy=70 eV
ion type=[M]+*
computed spectral entropy=3.0326633595584003
computed normalized entropy=0.7138205851198095
SPLASH=splash10-0pdi-9400000000-bd4cde216ce41f89b1d0
submitter=submitter = University of Tokyo Team (Faculty of Engineering, University of Tokyo)
MoNA Rating=3.75

>  <NUM PEAKS>  (2889) 
70

>  <MASS SPECTRAL PEAKS>  (2889) 
14 0.95
15 48.94
16 0.43
18 0.32
26 0.86
27 7.8
28 3.9
29 11.81
30 0.86
31 3.36
32 0.19
34 0.28
35 1.49
38 0.59
39 8.66
40 2.05
41 21.87
42 24.18
43 18.58
44 1.36
45 3.61
47 0.15
49 2.05
53 0.26
54 0.24
55 41.07
56 3.48
57 0.83
58 8.14
59 99.99
60 3.16
61 0.38
68 1.84
69 4.71
70 2.18
71 0.73
72 4.4
73 1.28
74 9.78
75 0.62
79 2.07
83 0.6
84 0.12
85 3.51
86 0.14
87 16.41
88 1.71
89 0.2
95 0.51
96 0.45
97 8.07
98 1.03
99 1.52
100 53.98
101 35.15
102 2.46
103 0.16
112 0.13
113 0.17
114 0.59
115 0.49
116 0.1
126 0.3
127 0.52
128 30.57
129 53.18
130 3.94
131 0.49
142 0.18
143 0.34

$$$$

     RDKit          2D

  8  8  0  0  0  0  0  0  0  0999 V2000
    3.5715   -0.4465    0.0000 C   0  0  0  0  0  0  0  0  0  0  0  0
    2.3556    0.4319    0.0000 C   0  0  0  0  0  0  0  0  0  0  0  0
    0.6840   -1.6467    0.0000 C   0  0  0  0  0  0  0  0  0  0  0  0
   -0.8176   -1.8075    0.0000 C   0  0  0  0  0  0  0  0  0  0  0  0
    0.9869   -0.1820    0.0000 C   0  0  0  0  0  0  0  0  0  0  0  0
   -1.4205   -0.4317    0.0000 C   0  0  0  0  0  0  0  0  0  0  0  0
   -2.8869   -0.1162    0.0000 O   0  0  0  0  0  0  0  0  0  0  0  0
   -0.3121    0.5680    0.0000 O   0  0  0  0  0  0  0  0  0  0  0  0
  2  1  1  0
  4  3  1  0
  5  2  1  0
  5  3  1  0
  6  4  1  0
  7  6  2  0
  8  5  1  0
  8  6  1  0
M  END
>  <NAME>  (2890) 
GAMMA-CAPROLACTONE

>  <SYNONYMS>  (2890) 


>  <SPECTRUM TYPE>  (2890) 
MS1

>  <INSTRUMENT TYPE>  (2890) 
EI-B

>  <INSTRUMENT>  (2890) 
HITACHI M-60

>  <ION MODE>  (2890) 
P

>  <INCHIKEY>  (2890) 
JBFHTYHTHYHCDJ-UHFFFAOYSA-N

>  <FORMULA>  (2890) 
C6H10O2

>  <EXACT MASS>  (2890) 
114.06807956

>  <MW>  (2890) 
114

>  <ID>  (2890) 
JP008306

>  <CONTRIBUTOR>  (2890) 
University of Tokyo Team, {Faculty of Engineering, University of Tokyo

>  <COMMENT>  (2890) 
SMILES=CCC(C1)OC(=O)C1
InChI=InChI=1S/C6H10O2/c1-2-5-3-4-6(7)8-5/h5H,2-4H2,1H3
computed SMILES=O=C1OC(CC)CC1
accession=JP008306
date=2016.01.19 (Created 2008.10.21, modified 2011.05.06)
author=UBE SCIENTIFIC ANALYSIS LABORATORY
license=CC BY-NC-SA
exact mass=114.06808
ionization energy=70 eV
ion type=[M]+*
computed spectral entropy=2.634859979411881
computed normalized entropy=0.6701365283043366
SPLASH=splash10-0570-9000000000-44158ddc3fb5887db72f
submitter=submitter = University of Tokyo Team (Faculty of Engineering, University of Tokyo)
MoNA Rating=3.75

>  <NUM PEAKS>  (2890) 
51

>  <MASS SPECTRAL PEAKS>  (2890) 
14 0.92
15 2.86
25 0.19
26 5.01
27 21.43
28 31.33
29 96.43
30 3.84
31 2.65
37 0.57
38 2.72
39 9.32
40 2.16
41 10.88
42 23.87
43 3.75
44 0.48
45 0.48
49 0.1
50 0.52
51 0.67
52 0.22
53 1.46
54 0.83
55 15.11
56 39.94
57 38.85
58 3.82
59 4.07
60 0.74
61 0.1
62 0.13
63 0.15
65 0.12
67 0.44
68 0.26
69 0.54
70 16.84
71 1.28
72 1.07
73 0.28
83 0.14
84 1.06
85 99.99
86 10.87
87 1.71
95 0.52
97 0.37
113 1.96
114 2.61
115 1.34

$$$$

     RDKit          2D

  4  3  0  0  0  0  0  0  0  0999 V2000
   -2.5981    2.2500    0.0000 C   0  0  0  0  0  0  0  0  0  0  0  0
    0.0000    2.2500    0.0000 N   0  0  0  0  0  0  0  0  0  0  0  0
    1.2990    1.5000    0.0000 O   0  0  0  0  0  0  0  0  0  0  0  0
   -1.2990    1.5000    0.0000 O   0  0  0  0  0  0  0  0  0  0  0  0
  3  2  2  0
  4  1  1  0
  4  2  1  0
M  END
>  <NAME>  (2891) 
METHYL NITRITE

>  <SYNONYMS>  (2891) 


>  <SPECTRUM TYPE>  (2891) 
MS1

>  <INSTRUMENT TYPE>  (2891) 
EI-B

>  <INSTRUMENT>  (2891) 
HITACHI M-60

>  <ION MODE>  (2891) 
P

>  <INCHIKEY>  (2891) 
BLLFVUPNHCTMSV-UHFFFAOYSA-N

>  <FORMULA>  (2891) 
CH3NO2

>  <EXACT MASS>  (2891) 
61.016378335999995

>  <MW>  (2891) 
61

>  <ID>  (2891) 
JP008305

>  <CONTRIBUTOR>  (2891) 
University of Tokyo Team, {Faculty of Engineering, University of Tokyo

>  <COMMENT>  (2891) 
SMILES=CON=O
InChI=InChI=1S/CH3NO2/c1-4-2-3/h1H3
computed SMILES=O=NOC
author=UBE SCIENTIFIC ANALYSIS LABORATORY
accession=JP008305
date=2016.01.19 (Created 2008.10.21, modified 2011.05.06)
license=CC BY-NC-SA
exact mass=61.01638
ionization energy=70 eV
ion type=[M]+*
computed spectral entropy=1.680165882035657
computed normalized entropy=0.7296867712501958
SPLASH=splash10-001i-9000000000-058884b0cc08be2c1c4e
submitter=submitter = University of Tokyo Team (Faculty of Engineering, University of Tokyo)
MoNA Rating=3.75

>  <NUM PEAKS>  (2891) 
10

>  <MASS SPECTRAL PEAKS>  (2891) 
15 12.57
17 0.1
18 3.46
28 3.55
29 33.81
30 99.99
31 43.95
32 28.93
60 3.16
61 10.23

$$$$

     RDKit          2D

 11 12  0  0  0  0  0  0  0  0999 V2000
   -2.5200    0.5000    0.0000 C   0  0  0  0  0  0  0  0  0  0  0  0
   -2.5300   -1.0000    0.0000 C   0  0  0  0  0  0  0  0  0  0  0  0
   -1.2200    1.2400    0.0000 C   0  0  0  0  0  0  0  0  0  0  0  0
   -1.2300   -1.7600    0.0000 C   0  0  0  0  0  0  0  0  0  0  0  0
    2.3800   -0.2700    0.0000 C   0  0  0  0  0  0  0  0  0  0  0  0
    1.9684    2.3650    0.0000 C   0  0  0  0  0  0  0  0  0  0  0  0
    1.5000    0.9400    0.0000 C   0  0  0  0  0  0  0  0  0  0  0  0
    0.0800    0.4900    0.0000 C   0  0  0  0  0  0  0  0  0  0  0  0
    0.0700   -1.0100    0.0000 C   0  0  0  0  0  0  0  0  0  0  0  0
    1.5000   -1.4800    0.0000 N   0  0  0  0  0  0  0  0  0  0  0  0
    3.4366    2.6719    0.0000 O   0  0  0  0  0  0  0  0  0  0  0  0
  2  1  2  0
  3  1  1  0
  4  2  1  0
  7  5  2  0
  7  6  1  0
  8  3  2  0
  8  7  1  0
  9  4  2  0
  9  8  1  0
 10  5  1  0
 10  9  1  0
 11  6  2  0
M  END
>  <NAME>  (2892) 
3-FORMYLINDOLE

>  <SYNONYMS>  (2892) 


>  <SPECTRUM TYPE>  (2892) 
MS1

>  <INSTRUMENT TYPE>  (2892) 
EI-B

>  <INSTRUMENT>  (2892) 
HITACHI M-60

>  <ION MODE>  (2892) 
P

>  <INCHIKEY>  (2892) 
OLNJUISKUQQNIM-UHFFFAOYSA-N

>  <FORMULA>  (2892) 
C9H7NO

>  <EXACT MASS>  (2892) 
145.052763844

>  <MW>  (2892) 
145

>  <ID>  (2892) 
JP008303

>  <CONTRIBUTOR>  (2892) 
University of Tokyo Team, {Faculty of Engineering, University of Tokyo

>  <COMMENT>  (2892) 
SMILES=C1=CC=C2C(=C1)C(=CN2)C=O
InChI=InChI=1S/C9H7NO/c11-6-7-5-10-9-4-2-1-3-8(7)9/h1-6,10H
computed SMILES=O=CC1=CNC=2C=CC=CC12
accession=JP008303
date=2016.01.19 (Created 2008.10.21, modified 2011.05.06)
author=UBE SCIENTIFIC ANALYSIS LABORATORY
license=CC BY-NC-SA
exact mass=145.05276
ionization energy=70 eV
ion type=[M]+*
computed spectral entropy=1.885808511369533
computed normalized entropy=0.714576561186134
SPLASH=splash10-0007-2900000000-90cfb2317bcbb908e2e8
submitter=submitter = University of Tokyo Team (Faculty of Engineering, University of Tokyo)
MoNA Rating=3.75

>  <NUM PEAKS>  (2892) 
14

>  <MASS SPECTRAL PEAKS>  (2892) 
39 5.22
58 3.24
59 8.73
62 4.26
63 10.57
72 3.88
89 25.01
90 4.65
115 2.3
116 29.06
117 3.37
144 99.99
145 83.88
146 8.12

$$$$

     RDKit          2D

 15 16  0  0  0  0  0  0  0  0999 V2000
   -1.6249   -3.1881    0.0000 C   0  0  0  0  0  0  0  0  0  0  0  0
   -0.3249   -0.9365    0.0000 C   0  0  0  0  0  0  0  0  0  0  0  0
    4.8703   -0.9365    0.0000 C   0  0  0  0  0  0  0  0  0  0  0  0
    6.1703   -3.1881    0.0000 C   0  0  0  0  0  0  0  0  0  0  0  0
   -0.3258   -3.9381    0.0000 C   0  0  0  0  0  0  0  0  0  0  0  0
    0.9742   -1.6865    0.0000 C   0  0  0  0  0  0  0  0  0  0  0  0
    3.5713   -1.6865    0.0000 C   0  0  0  0  0  0  0  0  0  0  0  0
    4.8713   -3.9381    0.0000 C   0  0  0  0  0  0  0  0  0  0  0  0
   -1.6244   -1.6873    0.0000 C   0  0  0  0  0  0  0  0  0  0  0  0
    6.1698   -1.6873    0.0000 C   0  0  0  0  0  0  0  0  0  0  0  0
    0.9737   -3.1873    0.0000 C   0  0  0  0  0  0  0  0  0  0  0  0
    3.5718   -3.1873    0.0000 C   0  0  0  0  0  0  0  0  0  0  0  0
   -2.9234   -0.9373    0.0000 O   0  0  0  0  0  0  0  0  0  0  0  0
    7.4689   -0.9373    0.0000 O   0  0  0  0  0  0  0  0  0  0  0  0
    2.2727   -3.9373    0.0000 O   0  0  0  0  0  0  0  0  0  0  0  0
  5  1  2  0
  6  2  1  0
  7  3  2  0
  8  4  1  0
  9  1  1  0
  9  2  2  0
 10  3  1  0
 10  4  2  0
 11  5  1  0
 11  6  2  0
 12  7  1  0
 12  8  2  0
 13  9  1  0
 14 10  1  0
 15 11  1  0
 15 12  1  0
M  END
>  <NAME>  (2893) 
4,4'-DIHYDROXYDIPHENYL ETHER

>  <SYNONYMS>  (2893) 


>  <SPECTRUM TYPE>  (2893) 
MS1

>  <INSTRUMENT TYPE>  (2893) 
EI-B

>  <INSTRUMENT>  (2893) 
HITACHI M-60

>  <ION MODE>  (2893) 
P

>  <INCHIKEY>  (2893) 
NZGQHKSLKRFZFL-UHFFFAOYSA-N

>  <FORMULA>  (2893) 
C12H10O3

>  <EXACT MASS>  (2893) 
202.06299417999998

>  <MW>  (2893) 
202

>  <ID>  (2893) 
JP008301

>  <CONTRIBUTOR>  (2893) 
University of Tokyo Team, {Faculty of Engineering, University of Tokyo

>  <COMMENT>  (2893) 
SMILES=Oc(c2)ccc(c2)Oc(c1)ccc(O)c1
InChI=InChI=1S/C12H10O3/c13-9-1-5-11(6-2-9)15-12-7-3-10(14)4-8-12/h1-8,13-14H
computed SMILES=OC1=CC=C(OC2=CC=C(O)C=C2)C=C1
accession=JP008301
date=2016.01.19 (Created 2008.10.21, modified 2011.05.06)
author=UBE SCIENTIFIC ANALYSIS LABORATORY
license=CC BY-NC-SA
exact mass=202.06299
ionization energy=70 eV
ion type=[M]+*
computed spectral entropy=2.793516445711396
computed normalized entropy=0.7296364836552937
SPLASH=splash10-0udi-7490000000-3e0345c1b056f5199f7d
submitter=submitter = University of Tokyo Team (Faculty of Engineering, University of Tokyo)
MoNA Rating=3.75

>  <NUM PEAKS>  (2893) 
46

>  <MASS SPECTRAL PEAKS>  (2893) 
27 4.38
39 15.74
41 1.04
43 2.99
51 1.85
53 7.37
54 0.94
55 4.25
57 0.94
63 4.41
64 2.22
65 12.59
66 2.05
69 3.64
78 2.26
81 9.54
82 1.62
91 1.17
92 1.73
93 2.9
94 16.85
95 1.37
101 3.54
109 16.74
110 7.08
115 1.26
116 0.44
117 2.09
118 0.78
119 0.87
120 1.29
121 1.47
127 2.15
128 1.43
129 1.01
131 3.25
145 4.7
146 0.51
147 2.44
157 1.64
173 6.04
174 0.66
201 2.55
202 99.99
203 13.48
204 1.34

$$$$

     RDKit          2D

 14 15  0  0  0  0  0  0  0  0999 V2000
    2.1668    2.9284    0.0000 C   0  0  0  0  0  0  0  0  0  0  0  0
    3.4626    0.6932    0.0000 C   0  0  0  0  0  0  0  0  0  0  0  0
    3.4281    3.6930    0.0000 C   0  0  0  0  0  0  0  0  0  0  0  0
    4.8039    1.4586    0.0000 C   0  0  0  0  0  0  0  0  0  0  0  0
    2.1841    1.4285    0.0000 C   0  0  0  0  0  0  0  0  0  0  0  0
    4.7867    2.9585    0.0000 C   0  0  0  0  0  0  0  0  0  0  0  0
    0.8900    0.6700    0.0000 C   0  0  0  0  0  0  0  0  0  0  0  0
    0.7400   -0.8200    0.0000 C   0  0  0  0  0  0  0  0  0  0  0  0
   -1.4800    0.1400    0.0000 C   0  0  0  0  0  0  0  0  0  0  0  0
   -0.4900    1.2700    0.0000 N   0  0  0  0  0  0  0  0  0  0  0  0
   -0.7200   -1.1500    0.0000 N   0  0  0  0  0  0  0  0  0  0  0  0
    6.0707    3.7340    0.0000 O   0  0  0  0  0  0  0  0  0  0  0  0
    1.8633   -1.8141    0.0000 O   0  0  0  0  0  0  0  0  0  0  0  0
   -2.9734    0.2801    0.0000 O   0  0  0  0  0  0  0  0  0  0  0  0
  3  1  2  0
  4  2  1  0
  5  1  1  0
  5  2  2  0
  6  3  1  0
  6  4  2  0
  7  5  1  0
  8  7  1  0
 10  7  1  0
 10  9  2  0
 11  8  2  0
 11  9  1  0
 12  6  1  0
 13  8  1  0
 14  9  1  0
M  END
>  <NAME>  (2894) 
5-(4-HYDROXYPHENYL)HYDANTOIN

>  <SYNONYMS>  (2894) 


>  <SPECTRUM TYPE>  (2894) 
MS1

>  <INSTRUMENT TYPE>  (2894) 
EI-B

>  <INSTRUMENT>  (2894) 
HITACHI M-60

>  <ION MODE>  (2894) 
P

>  <INCHIKEY>  (2894) 
UMTNMIARZPDSDI-UHFFFAOYSA-N

>  <FORMULA>  (2894) 
C9H8N2O3

>  <EXACT MASS>  (2894) 
192.05349211599997

>  <MW>  (2894) 
192

>  <ID>  (2894) 
JP008300

>  <CONTRIBUTOR>  (2894) 
University of Tokyo Team, {Faculty of Engineering, University of Tokyo

>  <COMMENT>  (2894) 
SMILES=Oc(c2)ccc(c2)C(N1)C(=O)NC(=O)1
InChI=InChI=1S/C9H8N2O3/c12-6-3-1-5(2-4-6)7-8(13)11-9(14)10-7/h1-4,7,12H,(H2,10,11,13,14)
computed SMILES=OC=1N=C(O)C(N1)C2=CC=C(O)C=C2
accession=JP008300
date=2016.01.19 (Created 2008.10.21, modified 2011.05.06)
author=UBE SCIENTIFIC ANALYSIS LABORATORY
license=CC BY-NC-SA
exact mass=192.05349
ionization energy=70 eV
ion type=[M]+*
computed spectral entropy=2.4638124293100656
computed normalized entropy=0.7174786283688154
SPLASH=splash10-00di-2900000000-98ac6fd2ca80e6b21e44
submitter=submitter = University of Tokyo Team (Faculty of Engineering, University of Tokyo)
MoNA Rating=3.75

>  <NUM PEAKS>  (2894) 
31

>  <MASS SPECTRAL PEAKS>  (2894) 
38 2.34
39 20.15
44 2.29
50 2.01
51 7.12
52 1.89
53 1.8
62 1.39
63 4.69
64 2.21
65 21.63
66 3.97
70 3.14
77 4.09
78 1.35
92 3.16
93 7.4
94 9.52
105 1.76
119 3.54
120 99.99
121 77.59
122 5.42
147 1.74
148 3.73
149 4.88
163 10.56
164 20.41
165 1.53
192 87.22
193 8.63

$$$$

     RDKit          2D

 11 11  0  0  0  0  0  0  0  0999 V2000
   -1.0200    0.4100    0.0000 C   0  0  0  0  0  0  0  0  0  0  0  0
   -0.5600   -1.0200    0.0000 C   0  0  0  0  0  0  0  0  0  0  0  0
   -2.7561    2.3429    0.0000 C   0  0  0  0  0  0  0  0  0  0  0  0
    1.4100    0.4000    0.0000 C   0  0  0  0  0  0  0  0  0  0  0  0
   -4.1821    2.8082    0.0000 N   0  0  0  0  0  0  0  0  0  0  0  0
   -2.4460    0.8753    0.0000 N   0  0  0  0  0  0  0  0  0  0  0  0
    0.1900    1.2900    0.0000 N   0  0  0  0  0  0  0  0  0  0  0  0
    0.9400   -1.0200    0.0000 N   0  0  0  0  0  0  0  0  0  0  0  0
   -1.4435   -2.2322    0.0000 O   0  0  0  0  0  0  0  0  0  0  0  0
   -1.6401    3.3452    0.0000 O   0  0  0  0  0  0  0  0  0  0  0  0
    2.8383    0.8582    0.0000 O   0  0  0  0  0  0  0  0  0  0  0  0
  2  1  1  0
  5  3  2  0
  6  1  1  0
  6  3  1  0
  7  1  1  0
  7  4  2  0
  8  2  2  0
  8  4  1  0
  9  2  1  0
 10  3  1  0
 11  4  1  0
M  END
>  <NAME>  (2895) 
ALLANTOIN

>  <SYNONYMS>  (2895) 


>  <SPECTRUM TYPE>  (2895) 
MS1

>  <INSTRUMENT TYPE>  (2895) 
EI-B

>  <INSTRUMENT>  (2895) 
HITACHI M-60

>  <ION MODE>  (2895) 
P

>  <INCHIKEY>  (2895) 
POJWUDADGALRAB-UHFFFAOYSA-N

>  <FORMULA>  (2895) 
C4H6N4O3

>  <EXACT MASS>  (2895) 
158.043990052

>  <MW>  (2895) 
158

>  <ID>  (2895) 
JP008299

>  <CONTRIBUTOR>  (2895) 
University of Tokyo Team, {Faculty of Engineering, University of Tokyo

>  <COMMENT>  (2895) 
SMILES=NC(=O)NC(N1)C(=O)NC(=O)1
InChI=InChI=1S/C4H6N4O3/c5-3(10)6-1-2(9)8-4(11)7-1/h1H,(H3,5,6,10)(H2,7,8,9,11)
computed SMILES=N=C(O)NC1N=C(O)N=C1O
accession=JP008299
date=2016.01.19 (Created 2008.10.21, modified 2011.05.06)
author=UBE SCIENTIFIC ANALYSIS LABORATORY
license=CC BY-NC-SA
exact mass=158.04399
ionization energy=70 eV
ion type=[M]+*
computed spectral entropy=2.5778082785909175
computed normalized entropy=0.7437982439771265
SPLASH=splash10-0006-9100000000-c9c0d8a7f1e5f105a9c3
submitter=submitter = University of Tokyo Team (Faculty of Engineering, University of Tokyo)
MoNA Rating=3.75

>  <NUM PEAKS>  (2895) 
32

>  <MASS SPECTRAL PEAKS>  (2895) 
16 13.17
17 47.01
27 4.14
29 13.5
30 4.51
41 1.23
42 7.76
43 35.77
44 99.99
45 7.24
55 3.72
56 0.99
57 0.97
60 29.47
70 6.42
71 2.42
72 1.51
73 1.18
74 1.42
87 29.76
88 1.4
98 1.66
99 1.39
100 3.04
113 1.26
114 4.69
115 9.91
130 25.95
131 0.86
140 0.99
141 3.35
158 1.75

$$$$

     RDKit          2D

 14 14  0  0  0  0  0  0  0  0999 V2000
    1.5590   -5.1000    0.0000 C   0  0  0  0  0  0  0  0  0  0  0  0
    1.5590   -3.6000    0.0000 C   0  0  0  0  0  0  0  0  0  0  0  0
    0.2600    1.6500    0.0000 C   0  0  0  0  0  0  0  0  0  0  0  0
    1.5600   -0.6000    0.0000 C   0  0  0  0  0  0  0  0  0  0  0  0
    2.8589    1.6502    0.0000 C   0  0  0  0  0  0  0  0  0  0  0  0
   -2.3389    1.6502    0.0000 C   0  0  0  0  0  0  0  0  0  0  0  0
    1.5600    0.9000    0.0000 C   0  0  0  0  0  0  0  0  0  0  0  0
   -1.0400    0.9000    0.0000 C   0  0  0  0  0  0  0  0  0  0  0  0
    0.2600   -1.3500    0.0000 C   0  0  0  0  0  0  0  0  0  0  0  0
   -1.0400   -0.6000    0.0000 C   0  0  0  0  0  0  0  0  0  0  0  0
    4.1581    0.9004    0.0000 O   0  0  0  0  0  0  0  0  0  0  0  0
   -3.6381    0.9004    0.0000 O   0  0  0  0  0  0  0  0  0  0  0  0
   -2.3389   -1.3502    0.0000 O   0  0  0  0  0  0  0  0  0  0  0  0
    0.2600   -2.8500    0.0000 O   0  0  0  0  0  0  0  0  0  0  0  0
  2  1  1  0
  7  3  2  0
  7  4  1  0
  7  5  1  0
  8  3  1  0
  8  6  1  0
  9  4  2  0
 10  8  2  0
 10  9  1  0
 11  5  2  0
 12  6  2  0
 13 10  1  0
 14  2  1  0
 14  9  1  0
M  END
>  <NAME>  (2896) 
2,4-DIFORMYL-6-ETHOXYPHENOL

>  <SYNONYMS>  (2896) 


>  <SPECTRUM TYPE>  (2896) 
MS1

>  <INSTRUMENT TYPE>  (2896) 
EI-B

>  <INSTRUMENT>  (2896) 
HITACHI M-60

>  <ION MODE>  (2896) 
P

>  <INCHIKEY>  (2896) 
WQWNVPGJVKVZDH-UHFFFAOYSA-N

>  <FORMULA>  (2896) 
C10H10O4

>  <EXACT MASS>  (2896) 
194.0579088

>  <MW>  (2896) 
194

>  <ID>  (2896) 
JP008298

>  <CONTRIBUTOR>  (2896) 
University of Tokyo Team, {Faculty of Engineering, University of Tokyo

>  <COMMENT>  (2896) 
SMILES=CCOc(c1)c(O)c(C=O)cc(C=O)1
InChI=InChI=1S/C10H10O4/c1-2-14-9-4-7(5-11)3-8(6-12)10(9)13/h3-6,13H,2H2,1H3
computed SMILES=O=CC=1C=C(OCC)C(O)=C(C=O)C1
accession=JP008298
date=2016.01.19 (Created 2008.10.21, modified 2011.05.06)
author=UBE SCIENTIFIC ANALYSIS LABORATORY
license=CC BY-NC-SA
exact mass=194.05791
ionization energy=70 eV
ion type=[M]+*
computed spectral entropy=3.148030956485133
computed normalized entropy=0.6835862366310546
SPLASH=splash10-014i-4900000000-b353b7eb701cd1085815
submitter=submitter = University of Tokyo Team (Faculty of Engineering, University of Tokyo)
MoNA Rating=3.75

>  <NUM PEAKS>  (2896) 
100

>  <MASS SPECTRAL PEAKS>  (2896) 
15 0.95
17 0.26
18 0.29
26 2.15
27 20.2
28 2.39
29 30.08
30 0.68
31 0.4
32 0.11
37 0.76
38 2.27
39 6.92
40 0.48
41 1.13
42 0.4
43 1.44
45 0.72
49 0.62
50 5.01
51 8.84
52 5.94
53 15.73
54 1.63
55 5.24
56 0.13
57 0.3
61 1.04
62 2.88
63 7.99
64 2.74
65 3.83
66 1.07
67 0.72
69 1.04
70 0.13
73 0.13
74 0.68
75 1.08
76 0.34
77 1.24
78 0.34
79 4
80 1.69
81 13.39
82 1.46
83 0.14
89 0.52
90 0.31
91 2.85
92 1.6
93 1.85
94 0.41
95 0.29
96 0.1
103 0.21
104 0.35
105 0.13
107 0.9
108 1.58
109 4.31
110 1.04
111 0.1
114 0.82
119 3.12
120 7.75
121 1.65
122 0.22
123 0.24
135 1.58
136 1.11
137 12.36
138 3.18
139 0.3
141 0.4
142 2.44
147 0.48
148 7.71
149 2.21
150 3.92
151 0.86
152 0.19
154 0.32
161 0.14
163 1.14
164 7.26
165 99.99
166 75.98
167 5.5
168 0.85
175 0.15
176 0.42
177 0.42
179 2.12
180 0.29
182 0.16
193 1.05
194 62.88
195 7.07
196 0.86

$$$$

     RDKit          2D

 12 12  0  0  0  0  0  0  0  0999 V2000
    5.5560    0.5453    0.0000 C   0  0  0  0  0  0  0  0  0  0  0  0
    4.2568   -0.2045    0.0000 C   0  0  0  0  0  0  0  0  0  0  0  0
   -0.9403   -1.7057    0.0000 C   0  0  0  0  0  0  0  0  0  0  0  0
    0.3587   -2.4557    0.0000 C   0  0  0  0  0  0  0  0  0  0  0  0
    0.3597    0.5459    0.0000 C   0  0  0  0  0  0  0  0  0  0  0  0
   -2.2389    0.5451    0.0000 C   0  0  0  0  0  0  0  0  0  0  0  0
   -0.9398   -0.2049    0.0000 C   0  0  0  0  0  0  0  0  0  0  0  0
    1.6583   -1.7049    0.0000 C   0  0  0  0  0  0  0  0  0  0  0  0
    1.6587   -0.2041    0.0000 C   0  0  0  0  0  0  0  0  0  0  0  0
   -3.5379   -0.2049    0.0000 O   0  0  0  0  0  0  0  0  0  0  0  0
    2.9573   -2.4549    0.0000 O   0  0  0  0  0  0  0  0  0  0  0  0
    2.9579    0.5457    0.0000 O   0  0  0  0  0  0  0  0  0  0  0  0
  2  1  1  0
  4  3  2  0
  7  3  1  0
  7  5  2  0
  7  6  1  0
  8  4  1  0
  9  5  1  0
  9  8  2  0
 10  6  2  0
 11  8  1  0
 12  2  1  0
 12  9  1  0
M  END
>  <NAME>  (2897) 
2-ETHOXY-4-FORMYLPHENOL

>  <SYNONYMS>  (2897) 


>  <SPECTRUM TYPE>  (2897) 
MS1

>  <INSTRUMENT TYPE>  (2897) 
EI-B

>  <INSTRUMENT>  (2897) 
HITACHI M-60

>  <ION MODE>  (2897) 
P

>  <INCHIKEY>  (2897) 
CBOQJANXLMLOSS-UHFFFAOYSA-N

>  <FORMULA>  (2897) 
C9H10O3

>  <EXACT MASS>  (2897) 
166.06299417999998

>  <MW>  (2897) 
166

>  <ID>  (2897) 
JP008297

>  <CONTRIBUTOR>  (2897) 
University of Tokyo Team, {Faculty of Engineering, University of Tokyo

>  <COMMENT>  (2897) 
SMILES=CCOc(c1)c(O)ccc(C=O)1
InChI=InChI=1S/C9H10O3/c1-2-12-9-5-7(6-10)3-4-8(9)11/h3-6,11H,2H2,1H3
computed SMILES=O=CC1=CC=C(O)C(OCC)=C1
accession=JP008297
date=2016.01.19 (Created 2008.10.21, modified 2011.05.06)
author=UBE SCIENTIFIC ANALYSIS LABORATORY
license=CC BY-NC-SA
exact mass=166.06299
ionization energy=70 eV
ion type=[M]+*
computed spectral entropy=3.2695151388271104
computed normalized entropy=0.7248097915937382
SPLASH=splash10-000i-8900000000-120b162ff2c185f413bb
submitter=submitter = University of Tokyo Team (Faculty of Engineering, University of Tokyo)
MoNA Rating=3.75

>  <NUM PEAKS>  (2897) 
91

>  <MASS SPECTRAL PEAKS>  (2897) 
14 0.55
15 2.08
19 0.24
25 0.32
26 5.28
27 32.26
28 2.88
29 49.8
30 1.11
31 0.9
37 1.94
38 4.72
39 13.02
40 0.92
41 1.12
42 0.92
43 3.27
44 0.13
45 2.22
46 0.11
47 0.12
49 1.27
50 9.05
51 15.44
52 13.7
53 21.11
54 3.62
55 7.96
56 0.36
57 0.51
60 1.39
61 1.01
62 4.54
63 10.86
64 6.42
65 7.13
66 1.8
67 1.17
68 0.29
69 0.97
71 0.12
73 0.18
74 0.87
75 1.93
76 0.31
77 1.84
78 0.53
79 6.65
80 3.99
81 31.38
82 7.2
83 0.4
87 3
89 0.12
90 0.31
91 4.73
92 3.67
93 1.38
94 0.51
95 1.3
96 0.23
103 0.11
105 0.47
107 1.6
108 3.68
109 34.75
110 7.88
111 0.85
115 2.11
119 1.29
120 0.86
121 1.62
122 0.25
123 1.02
124 0.11
135 0.42
136 11.58
137 99.99
138 66.06
139 7.23
140 0.93
147 0.1
149 0.98
150 0.13
163 0.18
164 0.12
165 2.33
166 66.11
167 12.62
168 1.41
169 0.11

$$$$

     RDKit          2D

 12 12  0  0  0  0  0  0  0  0999 V2000
    5.1970    0.8306    0.0000 C   0  0  0  0  0  0  0  0  0  0  0  0
    3.8981    0.0804    0.0000 C   0  0  0  0  0  0  0  0  0  0  0  0
   -0.0000   -2.1700    0.0000 C   0  0  0  0  0  0  0  0  0  0  0  0
   -1.3000   -1.4200    0.0000 C   0  0  0  0  0  0  0  0  0  0  0  0
    1.3000   -1.4200    0.0000 C   0  0  0  0  0  0  0  0  0  0  0  0
   -2.5989    0.8302    0.0000 C   0  0  0  0  0  0  0  0  0  0  0  0
   -1.3000    0.0800    0.0000 C   0  0  0  0  0  0  0  0  0  0  0  0
    1.3000    0.0800    0.0000 C   0  0  0  0  0  0  0  0  0  0  0  0
   -0.0000    0.8300    0.0000 C   0  0  0  0  0  0  0  0  0  0  0  0
   -3.8981    0.0804    0.0000 O   0  0  0  0  0  0  0  0  0  0  0  0
    0.0000    2.3300    0.0000 O   0  0  0  0  0  0  0  0  0  0  0  0
    2.5989    0.8302    0.0000 O   0  0  0  0  0  0  0  0  0  0  0  0
  2  1  1  0
  4  3  2  0
  5  3  1  0
  7  4  1  0
  7  6  1  0
  8  5  2  0
  9  7  2  0
  9  8  1  0
 10  6  2  0
 11  9  1  0
 12  2  1  0
 12  8  1  0
M  END
>  <NAME>  (2898) 
2-ETHOXY-6-FORMYLPHENOL

>  <SYNONYMS>  (2898) 


>  <SPECTRUM TYPE>  (2898) 
MS1

>  <INSTRUMENT TYPE>  (2898) 
EI-B

>  <INSTRUMENT>  (2898) 
HITACHI M-60

>  <ION MODE>  (2898) 
P

>  <INCHIKEY>  (2898) 
OFQBYHLLIJGMNP-UHFFFAOYSA-N

>  <FORMULA>  (2898) 
C9H10O3

>  <EXACT MASS>  (2898) 
166.06299417999998

>  <MW>  (2898) 
166

>  <ID>  (2898) 
JP008296

>  <CONTRIBUTOR>  (2898) 
University of Tokyo Team, {Faculty of Engineering, University of Tokyo

>  <COMMENT>  (2898) 
SMILES=CCOc(c1)c(O)c(C=O)cc1
InChI=InChI=1S/C9H10O3/c1-2-12-8-5-3-4-7(6-10)9(8)11/h3-6,11H,2H2,1H3
computed SMILES=O=CC=1C=CC=C(OCC)C1O
accession=JP008296
date=2016.01.19 (Created 2008.10.21, modified 2011.05.06)
author=UBE SCIENTIFIC ANALYSIS LABORATORY
license=CC BY-NC-SA
exact mass=166.06299
ionization energy=70 eV
ion type=[M]+*
computed spectral entropy=3.0847295217434234
computed normalized entropy=0.6980857187518213
SPLASH=splash10-000i-4900000000-3d2d0d88c017b2d20c8f
submitter=submitter = University of Tokyo Team (Faculty of Engineering, University of Tokyo)
MoNA Rating=3.75

>  <NUM PEAKS>  (2898) 
83

>  <MASS SPECTRAL PEAKS>  (2898) 
14 0.32
15 1.23
18 0.51
26 2.92
27 21.86
28 2.1
29 20.96
30 0.42
31 0.48
37 0.67
38 2.64
39 8.71
40 0.64
41 0.77
42 0.56
43 1.59
44 0.1
45 0.54
49 0.53
50 3.8
51 7.47
52 6.65
53 13.06
54 1.99
55 9.22
56 0.38
57 0.23
61 0.6
62 1.84
63 7.2
64 7.1
65 5.69
66 1.38
67 0.38
68 0.3
69 0.41
74 0.52
75 2.78
76 1.15
77 1.11
78 0.27
79 2.47
80 2.27
81 15.55
82 2.76
83 0.21
87 0.58
91 2.13
92 19.06
93 4.12
94 0.89
95 0.56
104 1.45
105 0.37
107 2.27
108 2.77
109 12.14
110 5.05
111 0.47
115 2.71
119 1.04
120 23.17
121 3.93
122 4.23
123 1.27
134 0.24
135 0.12
136 9.8
137 91.12
138 99.99
139 8.61
140 0.96
141 0.1
147 0.2
148 0.52
149 0.57
151 2.28
152 0.27
154 0.21
165 0.78
166 68.43
167 1.25
168 0.7

$$$$

     RDKit          2D

 10 10  0  0  0  0  0  0  0  0999 V2000
    6.1262    0.5406    0.0000 C   0  0  0  0  0  0  0  0  0  0  0  0
    6.1262   -0.9594    0.0000 C   0  0  0  0  0  0  0  0  0  0  0  0
    4.8262    1.2906    0.0000 C   0  0  0  0  0  0  0  0  0  0  0  0
    4.8262   -1.7094    0.0000 C   0  0  0  0  0  0  0  0  0  0  0  0
    3.5262    0.5406    0.0000 C   0  0  0  0  0  0  0  0  0  0  0  0
   -0.3708   -1.7100    0.0000 C   0  0  0  0  0  0  0  0  0  0  0  0
    0.9281   -0.9598    0.0000 C   0  0  0  0  0  0  0  0  0  0  0  0
    3.5262   -0.9594    0.0000 C   0  0  0  0  0  0  0  0  0  0  0  0
   -1.6700   -0.9602    0.0000 O   0  0  0  0  0  0  0  0  0  0  0  0
    2.2272   -1.7096    0.0000 O   0  0  0  0  0  0  0  0  0  0  0  0
  2  1  2  0
  3  1  1  0
  4  2  1  0
  5  3  2  0
  7  6  1  0
  8  4  2  0
  8  5  1  0
  9  6  1  0
 10  7  1  0
 10  8  1  0
M  END
>  <NAME>  (2899) 
2-PHENOXYETHANOL

>  <SYNONYMS>  (2899) 


>  <SPECTRUM TYPE>  (2899) 
MS1

>  <INSTRUMENT TYPE>  (2899) 
EI-B

>  <INSTRUMENT>  (2899) 
HITACHI M-60

>  <ION MODE>  (2899) 
P

>  <INCHIKEY>  (2899) 
QCDWFXQBSFUVSP-UHFFFAOYSA-N

>  <FORMULA>  (2899) 
C8H10O2

>  <EXACT MASS>  (2899) 
138.06807956

>  <MW>  (2899) 
138

>  <ID>  (2899) 
JP008295

>  <CONTRIBUTOR>  (2899) 
University of Tokyo Team, {Faculty of Engineering, University of Tokyo

>  <COMMENT>  (2899) 
SMILES=OCCOc(c1)cccc1
InChI=InChI=1S/C8H10O2/c9-6-7-10-8-4-2-1-3-5-8/h1-5,9H,6-7H2
computed SMILES=OCCOC=1C=CC=CC1
accession=JP008295
date=2016.01.19 (Created 2008.10.21, modified 2011.05.06)
author=UBE SCIENTIFIC ANALYSIS LABORATORY
license=CC BY-NC-SA
exact mass=138.06808
ionization energy=70 eV
ion type=[M]+*
computed spectral entropy=2.276574583671173
computed normalized entropy=0.7731777088196484
SPLASH=splash10-0006-9200000000-b5db9ef1d198ca188c7c
submitter=submitter = University of Tokyo Team (Faculty of Engineering, University of Tokyo)
MoNA Rating=3.75

>  <NUM PEAKS>  (2899) 
19

>  <MASS SPECTRAL PEAKS>  (2899) 
17 5.14
18 7.08
27 5.14
28 10.68
39 7.72
45 8.29
51 7.87
65 7.48
66 9.07
77 23.31
79 2.32
94 99.99
95 12.84
107 5.17
108 4.56
109 4.77
137 3.26
138 27.93
139 1.77

$$$$

     RDKit          2D

 14 14  0  0  0  0  0  0  0  0999 V2000
    2.5989    1.5002    0.0000 C   0  0  0  0  0  0  0  0  0  0  0  0
   -3.8981   -0.7504    0.0000 C   0  0  0  0  0  0  0  0  0  0  0  0
   -1.3000    0.7500    0.0000 C   0  0  0  0  0  0  0  0  0  0  0  0
    0.0000    3.0000    0.0000 C   0  0  0  0  0  0  0  0  0  0  0  0
    2.5989   -1.5002    0.0000 C   0  0  0  0  0  0  0  0  0  0  0  0
    1.3000    0.7500    0.0000 C   0  0  0  0  0  0  0  0  0  0  0  0
    0.0000    1.5000    0.0000 C   0  0  0  0  0  0  0  0  0  0  0  0
    1.3000   -0.7500    0.0000 C   0  0  0  0  0  0  0  0  0  0  0  0
   -1.3000   -0.7500    0.0000 C   0  0  0  0  0  0  0  0  0  0  0  0
   -0.0000   -1.5000    0.0000 C   0  0  0  0  0  0  0  0  0  0  0  0
   -1.2990    3.7500    0.0000 O   0  0  0  0  0  0  0  0  0  0  0  0
    2.5987   -3.0002    0.0000 O   0  0  0  0  0  0  0  0  0  0  0  0
   -0.0000   -3.0000    0.0000 O   0  0  0  0  0  0  0  0  0  0  0  0
   -2.5989   -1.5002    0.0000 O   0  0  0  0  0  0  0  0  0  0  0  0
  6  1  1  0
  7  3  2  0
  7  4  1  0
  7  6  1  0
  8  5  1  0
  8  6  2  0
  9  3  1  0
 10  8  1  0
 10  9  2  0
 11  4  2  0
 12  5  2  0
 13 10  1  0
 14  2  1  0
 14  9  1  0
M  END
>  <NAME>  (2900) 
2,4-DIFORMYL-3-METHYL-6-METHOXYPHENOL

>  <SYNONYMS>  (2900) 


>  <SPECTRUM TYPE>  (2900) 
MS1

>  <INSTRUMENT TYPE>  (2900) 
EI-B

>  <INSTRUMENT>  (2900) 
HITACHI M-60

>  <ION MODE>  (2900) 
P

>  <INCHIKEY>  (2900) 
VYOUKKOYZOVDCQ-UHFFFAOYSA-N

>  <FORMULA>  (2900) 
C10H10O4

>  <EXACT MASS>  (2900) 
194.0579088

>  <MW>  (2900) 
194

>  <ID>  (2900) 
JP008294

>  <CONTRIBUTOR>  (2900) 
University of Tokyo Team, {Faculty of Engineering, University of Tokyo

>  <COMMENT>  (2900) 
SMILES=O=Cc(c1)c(C)c(C=O)c(O)c(OC)1
InChI=InChI=1S/C10H10O4/c1-6-7(4-11)3-9(14-2)10(13)8(6)5-12/h3-5,13H,1-2H3
computed SMILES=O=CC1=CC(OC)=C(O)C(C=O)=C1C
accession=JP008294
date=2016.01.19 (Created 2008.10.21, modified 2011.05.06)
author=UBE SCIENTIFIC ANALYSIS LABORATORY
license=CC BY-NC-SA
exact mass=194.05791
ionization energy=70 eV
ion type=[M]+*
computed spectral entropy=3.7094240253342474
computed normalized entropy=0.8203444194985009
SPLASH=splash10-00kf-6900000000-10001fb900ad54f96201
submitter=submitter = University of Tokyo Team (Faculty of Engineering, University of Tokyo)
MoNA Rating=3.75

>  <NUM PEAKS>  (2900) 
92

>  <MASS SPECTRAL PEAKS>  (2900) 
15 4.33
18 2.34
27 6.32
28 3.99
29 7.38
38 3.27
39 22.06
40 4.58
41 11.56
43 6.89
44 0.56
50 5.88
51 15.27
52 4.95
53 8.82
55 9.94
61 0.63
62 2.94
63 6.22
64 1.71
65 9.35
66 8.38
67 11.57
68 0.97
69 2.31
74 1.45
75 2.38
76 1.36
77 15.01
78 4.2
79 5.57
80 0.88
81 2.11
83 0.57
89 2.43
90 3.45
91 4.05
92 1.91
93 3.24
94 7.74
95 10.27
96 0.58
97 0.83
105 6.34
106 2.2
107 2.49
108 0.63
109 1.44
117 0.49
118 2.65
119 1.67
120 3.45
121 3.01
122 6.94
123 27.77
124 2.25
133 3.31
134 2.85
135 2.29
136 2.28
137 6.44
138 0.67
141 1.4
142 1.24
143 1.01
146 0.35
147 1.08
148 3.67
149 2.94
150 9.2
151 15.91
152 1.58
161 0.45
162 1.62
163 1.09
164 1.98
165 17.83
166 44.42
167 4.78
168 0.45
175 0.8
177 1.21
178 0.99
179 6.53
180 0.62
191 0.24
193 15.06
194 99.99
195 11.71
196 1.33
219 0.27
315 0.21

$$$$

     RDKit          2D

 12 12  0  0  0  0  0  0  0  0999 V2000
   -2.3016    2.0506    0.0000 C   0  0  0  0  0  0  0  0  0  0  0  0
    4.2216   -0.2030    0.0000 C   0  0  0  0  0  0  0  0  0  0  0  0
    0.3186    2.0688    0.0000 C   0  0  0  0  0  0  0  0  0  0  0  0
    0.3072   -0.9515    0.0000 C   0  0  0  0  0  0  0  0  0  0  0  0
   -2.2740   -0.9607    0.0000 C   0  0  0  0  0  0  0  0  0  0  0  0
   -0.9978    1.3088    0.0000 C   0  0  0  0  0  0  0  0  0  0  0  0
   -0.9787   -0.2043    0.0000 C   0  0  0  0  0  0  0  0  0  0  0  0
    1.6367    1.3057    0.0000 C   0  0  0  0  0  0  0  0  0  0  0  0
    1.6236   -0.1915    0.0000 C   0  0  0  0  0  0  0  0  0  0  0  0
   -3.5767   -0.2172    0.0000 O   0  0  0  0  0  0  0  0  0  0  0  0
    2.9395    2.0492    0.0000 O   0  0  0  0  0  0  0  0  0  0  0  0
    2.9193   -0.9472    0.0000 O   0  0  0  0  0  0  0  0  0  0  0  0
  6  1  1  0
  6  3  2  0
  7  4  2  0
  7  5  1  0
  7  6  1  0
  8  3  1  0
  9  4  1  0
  9  8  2  0
 10  5  2  0
 11  8  1  0
 12  2  1  0
 12  9  1  0
M  END
>  <NAME>  (2901) 
2-METHOXY-4-FORMYL-5-METHYLPHENOL

>  <SYNONYMS>  (2901) 
4-HYDROXY-5-METHOXY-2-METHYLBENZALDHYDE

>  <SPECTRUM TYPE>  (2901) 
MS1

>  <INSTRUMENT TYPE>  (2901) 
EI-B

>  <INSTRUMENT>  (2901) 
HITACHI M-60

>  <ION MODE>  (2901) 
P

>  <INCHIKEY>  (2901) 
MNMCHJAOXXQRID-UHFFFAOYSA-N

>  <FORMULA>  (2901) 
C9H10O3

>  <EXACT MASS>  (2901) 
166.06299417999998

>  <MW>  (2901) 
166

>  <ID>  (2901) 
JP008293

>  <CONTRIBUTOR>  (2901) 
University of Tokyo Team, {Faculty of Engineering, University of Tokyo

>  <COMMENT>  (2901) 
SMILES=O=Cc(c1)c(C)cc(O)c(OC)1
InChI=InChI=1S/C9H10O3/c1-6-3-8(11)9(12-2)4-7(6)5-10/h3-5,11H,1-2H3
computed SMILES=O=CC1=CC(OC)=C(O)C=C1C
accession=JP008293
date=2016.01.19 (Created 2008.10.21, modified 2011.05.06)
author=UBE SCIENTIFIC ANALYSIS LABORATORY
license=CC BY-NC-SA
exact mass=166.06299
ionization energy=70 eV
ion type=[M]+*
computed spectral entropy=3.29776810638587
computed normalized entropy=0.7208691700704413
SPLASH=splash10-014i-5900000000-d5cb03e3ee918d28e0f7
submitter=submitter = University of Tokyo Team (Faculty of Engineering, University of Tokyo)
MoNA Rating=3.75

>  <NUM PEAKS>  (2901) 
97

>  <MASS SPECTRAL PEAKS>  (2901) 
14 0.49
15 3.53
17 0.11
26 0.74
27 5.26
28 0.79
29 4.31
31 0.9
32 0.14
37 1.14
38 3.14
39 17.63
40 4.16
41 8.15
42 0.74
43 2.95
44 0.3
45 0.15
46 0.14
47 0.51
48 0.31
49 0.42
50 4.45
51 9.95
52 3.3
53 8.67
54 0.83
55 10.48
56 0.36
57 0.25
61 1.01
62 2.99
63 4.21
64 1.45
65 8.03
66 9.26
67 9.16
68 0.87
69 1.08
73 1.42
74 0.98
75 1.24
76 0.85
77 10.32
78 2.57
79 3.25
80 0.47
81 1.18
82 0.41
83 3.88
84 0.56
85 0.28
86 0.2
87 0.12
89 0.41
90 0.31
91 1.56
92 0.49
93 3
94 8
95 12.84
96 0.87
100 1.9
105 1.24
106 1.33
107 1.44
108 0.68
109 2.26
110 0.24
114 3.6
117 0.11
119 0.33
120 0.22
121 1.21
122 10.19
123 21.52
124 1.79
125 0.2
133 0.29
134 0.55
135 1.06
136 1.31
137 32.57
138 3.13
139 0.38
141 0.12
149 0.4
150 1.81
151 14.63
152 1.28
153 0.13
163 0.28
164 4.82
165 77.21
166 99.99
167 9.05
168 1.22

$$$$

     RDKit          2D

 10 10  0  0  0  0  0  0  0  0999 V2000
    2.9576    2.0449    0.0000 C   0  0  0  0  0  0  0  0  0  0  0  0
   -3.5376   -0.2051    0.0000 C   0  0  0  0  0  0  0  0  0  0  0  0
    0.3590    2.0458    0.0000 C   0  0  0  0  0  0  0  0  0  0  0  0
   -0.9400    1.2958    0.0000 C   0  0  0  0  0  0  0  0  0  0  0  0
    1.6590   -0.2059    0.0000 C   0  0  0  0  0  0  0  0  0  0  0  0
    1.6585    1.2949    0.0000 C   0  0  0  0  0  0  0  0  0  0  0  0
    0.3600   -0.9559    0.0000 C   0  0  0  0  0  0  0  0  0  0  0  0
   -0.9395   -0.2051    0.0000 C   0  0  0  0  0  0  0  0  0  0  0  0
    0.3597   -2.4559    0.0000 O   0  0  0  0  0  0  0  0  0  0  0  0
   -2.2386   -0.9551    0.0000 O   0  0  0  0  0  0  0  0  0  0  0  0
  4  3  2  0
  6  1  1  0
  6  3  1  0
  6  5  2  0
  7  5  1  0
  8  4  1  0
  8  7  2  0
  9  7  1  0
 10  2  1  0
 10  8  1  0
M  END
>  <NAME>  (2902) 
2-METHOXY-5-METHYLPHENOL

>  <SYNONYMS>  (2902) 


>  <SPECTRUM TYPE>  (2902) 
MS1

>  <INSTRUMENT TYPE>  (2902) 
EI-B

>  <INSTRUMENT>  (2902) 
HITACHI M-60

>  <ION MODE>  (2902) 
P

>  <INCHIKEY>  (2902) 
IFNDEOYXGHGERA-UHFFFAOYSA-N

>  <FORMULA>  (2902) 
C8H10O2

>  <EXACT MASS>  (2902) 
138.06807956

>  <MW>  (2902) 
138

>  <ID>  (2902) 
JP008292

>  <CONTRIBUTOR>  (2902) 
University of Tokyo Team, {Faculty of Engineering, University of Tokyo

>  <COMMENT>  (2902) 
SMILES=COc(c1)c(O)cc(C)c1
InChI=InChI=1S/C8H10O2/c1-6-3-4-8(10-2)7(9)5-6/h3-5,9H,1-2H3
computed SMILES=OC1=CC(=CC=C1OC)C
accession=JP008292
date=2016.01.19 (Created 2008.10.21, modified 2011.05.06)
author=UBE SCIENTIFIC ANALYSIS LABORATORY
license=CC BY-NC-SA
exact mass=138.06808
ionization energy=70 eV
ion type=[M]+*
computed spectral entropy=2.664306665078183
computed normalized entropy=0.6920011752003535
SPLASH=splash10-0079-6900000000-133349feb1115820e385
submitter=submitter = University of Tokyo Team (Faculty of Engineering, University of Tokyo)
MoNA Rating=3.75

>  <NUM PEAKS>  (2902) 
47

>  <MASS SPECTRAL PEAKS>  (2902) 
15 2.38
18 1.06
27 5.22
29 1.79
31 1.41
32 0.32
38 2.3
39 13.26
40 3.96
41 10.13
43 2.31
50 3.13
51 6.52
52 2.99
53 5.24
55 13.98
62 0.93
63 2.64
65 5.91
66 5.85
67 14.1
68 0.62
69 1.25
77 10.19
78 3.56
79 2.22
81 0.67
91 1.41
94 4.34
95 22.3
96 1.47
105 0.33
106 1.07
107 1.59
109 1.44
110 0.81
121 0.45
122 2.11
123 99.99
124 8.46
125 0.66
137 5.05
138 92.01
139 8.65
140 0.72
167 0.24
219 0.15

$$$$

     RDKit          2D

 30 33  0  0  1  0  0  0  0  0999 V2000
    9.5655    7.2342    0.0000 C   0  0  0  0  0  0  0  0  0  0  0  0
   10.0746    4.6865    0.0000 C   0  0  0  0  0  0  0  0  0  0  0  0
    8.1228    2.9718    0.0000 C   0  0  0  0  0  0  0  0  0  0  0  0
    3.2009    4.6377    0.0000 C   0  0  0  0  0  0  0  0  0  0  0  0
   -1.6125    0.9400    0.0000 C   0  0  0  0  0  0  0  0  0  0  0  0
    2.4507    3.1203    0.0000 C   0  0  0  0  0  0  0  0  0  0  0  0
    8.0946    6.9403    0.0000 C   0  0  0  0  0  0  0  0  0  0  0  0
    5.6618    3.8047    0.0000 C   0  0  0  0  0  0  0  0  0  0  0  0
    6.1427    5.2256    0.0000 C   0  0  0  0  0  0  0  0  0  0  0  0
   -0.3200   -2.8400    0.0000 C   0  0  0  0  0  0  0  0  0  0  0  0
    1.0100   -2.0900    0.0000 C   0  0  0  0  0  0  0  0  0  0  0  0
    4.5500    0.8800    0.0000 C   0  0  0  0  0  0  0  0  0  0  0  0
    3.7100   -0.3100    0.0000 C   0  0  0  0  0  0  0  0  0  0  0  0
   -4.2000   -0.5600    0.0000 C   0  0  0  0  0  0  0  0  0  0  0  0
   -0.3200    1.6300    0.0000 C   0  0  0  0  0  0  0  0  0  0  0  0
   -2.8900    0.1600    0.0000 C   0  0  0  0  0  0  0  0  0  0  0  0
    1.0100    2.3900    0.0000 C   0  0  0  0  0  0  0  0  0  0  0  0
   -2.8900   -2.8400    0.0000 C   0  0  0  0  0  0  0  0  0  0  0  0
    8.6037    4.3926    0.0000 C   0  0  0  0  0  0  0  0  0  0  0  0
    4.1909    3.5108    0.0000 C   0  0  0  0  0  0  0  0  0  0  0  0
    7.6137    5.5195    0.0000 C   0  0  0  0  0  0  0  0  0  0  0  0
   -1.6200   -2.0900    0.0000 C   0  0  0  0  0  0  0  0  0  0  0  0
   -4.2000   -2.0900    0.0000 C   0  0  0  0  0  0  0  0  0  0  0  0
    1.0100   -0.5600    0.0000 C   0  0  0  0  0  0  0  0  0  0  0  0
    3.7100    2.0900    0.0000 C   0  0  0  0  0  0  0  0  0  0  0  0
    2.2800    0.1600    0.0000 C   0  0  0  0  0  0  0  0  0  0  0  0
   -0.3200    0.1600    0.0000 C   0  0  0  0  0  0  0  0  0  0  0  0
   -1.6200   -0.5600    0.0000 C   0  0  0  0  0  0  0  0  0  0  0  0
    2.2800    1.6300    0.0000 C   0  0  0  0  0  0  0  0  0  0  0  0
   -5.4977   -2.8424    0.0000 O   0  0  0  0  0  0  0  0  0  0  0  0
  7  1  1  0
  8  9  2  0
 11 10  1  0
 13 12  1  0
 16 14  1  0
 17 15  1  0
 19  2  1  0
 19  3  1  0
 20  4  1  6
 20  8  1  0
 21  7  1  1
 21  9  1  0
 21 19  1  0
 22 10  2  0
 22 18  1  0
 23 14  1  0
 23 18  1  0
 24 11  1  6
 25 12  1  1
 25 20  1  0
 26 13  1  1
 26 24  1  0
 27 15  1  1
 27 24  1  0
 28  5  1  1
 28 16  1  0
 28 22  1  0
 28 27  1  0
 29  6  1  1
 29 17  1  0
 29 25  1  0
 29 26  1  0
 23 30  1  1
M  END
>  <NAME>  (2903) 
STIGMASTEROL

>  <SYNONYMS>  (2903) 


>  <SPECTRUM TYPE>  (2903) 
MS1

>  <INSTRUMENT TYPE>  (2903) 
EI-B

>  <INSTRUMENT>  (2903) 
HITACHI M-60

>  <ION MODE>  (2903) 
P

>  <INCHIKEY>  (2903) 
HCXVJBMSMIARIN-PHZDYDNGSA-N

>  <FORMULA>  (2903) 
C29H48O

>  <EXACT MASS>  (2903) 
412.37051615599995

>  <MW>  (2903) 
412

>  <ID>  (2903) 
JP008291

>  <CONTRIBUTOR>  (2903) 
University of Tokyo Team, {Faculty of Engineering, University of Tokyo

>  <COMMENT>  (2903) 
SMILES=CC(C4([H])C(C=CC([H])(CC)C(C)C)([H])C)(C([H])1CC4)CCC(C3(C)2)(C([H])(CC=C2CC([H])(O)CC3)1)[H]
InChI=InChI=1S/C29H48O/c1-7-21(19(2)3)9-8-20(4)25-12-13-26-24-11-10-22-18-23(30)14-16-28(22,5)27(24)15-17-29(25,26)6/h8-10,19-21,23-27,30H,7,11-18H2,1-6H3/b9-8+/t20-,21-,23+,24+,25-,26+,27+,28+,29-/m1/s1
computed SMILES=OC1CC2=CCC3C(CCC4(C)C(CCC34)C(C=CC(CC)C(C)C)C)C2(C)CC1
accession=JP008291
date=2016.01.19 (Created 2008.10.21, modified 2011.05.06)
author=UBE SCIENTIFIC ANALYSIS LABORATORY
license=CC BY-NC-SA
exact mass=412.37052
ionization energy=70 eV
ion type=[M]+*
computed spectral entropy=4.425157077497964
computed normalized entropy=0.8697932748423993
SPLASH=splash10-0a59-9731000000-168578ccead65322e450
submitter=submitter = University of Tokyo Team (Faculty of Engineering, University of Tokyo)
MoNA Rating=3.75

>  <NUM PEAKS>  (2903) 
162

>  <MASS SPECTRAL PEAKS>  (2903) 
29 8.12
41 32.68
43 38.7
53 3.08
55 99.99
57 20.58
67 23.89
68 2.75
69 51.77
70 4.61
71 13.54
77 5.94
79 23.39
80 3.27
81 58.73
82 12.16
83 72.24
84 6.66
85 7.04
91 22.11
92 4.15
93 27.5
94 7.47
95 32.47
96 7.99
97 42.33
98 2.87
105 25.71
106 4.17
107 30.29
108 5.17
109 20.12
110 6.51
111 4.28
117 6.54
118 2.35
119 19.23
120 8.49
121 17.86
122 4.51
123 23.31
124 5.57
125 2.27
129 4.12
130 1.77
131 11.17
132 2.97
133 27.55
134 5.13
135 15.42
136 1.29
137 11.57
138 1.97
139 8.99
143 6.58
144 2.55
145 25.66
146 5.29
147 21.48
148 2.91
149 9
151 12.34
157 6.97
158 6.21
159 28.22
160 6.42
161 14.53
162 2.87
163 11.36
164 1.46
165 1.49
166 3.6
171 4.04
172 0.9
173 9.79
174 2.15
175 7.56
176 3.05
177 5.5
178 2.1
185 5.56
186 0.92
187 6.24
188 0.87
189 3.43
191 2.44
197 1.2
199 7.46
200 0.74
201 3.35
203 2.72
205 1.62
211 3.25
213 15.48
214 3.62
215 7.68
216 0.74
217 4.51
219 0.7
225 1.17
227 3.74
228 2.67
229 6.83
230 2.37
231 6.01
232 1.01
233 0.55
239 2.58
240 1
241 3.82
243 1.97
245 2.34
246 1.43
253 4.62
254 2.28
255 36.71
256 8.14
257 3.05
258 6.01
259 1.68
267 3.13
268 0.14
269 1.75
270 4.71
271 24.41
272 11
273 10.91
274 1.39
281 3.2
282 2.46
283 4.68
285 3.9
286 0.69
299 4.75
300 15.96
301 6.18
302 0.98
303 1.19
309 1.25
313 0.68
314 5.02
315 1.51
327 0.97
329 0.67
351 11.49
352 5.58
353 0.27
367 0.9
369 11.67
370 2.11
379 2.93
380 0.45
394 3.63
395 0.6
396 1.22
397 3.36
398 0.97
399 0.44
400 0.75
412 27.72
413 9.01
414 3.59

$$$$

     RDKit          2D

 30 33  0  0  1  0  0  0  0  0999 V2000
    9.5655    7.2342    0.0000 C   0  0  0  0  0  0  0  0  0  0  0  0
   10.0746    4.6865    0.0000 C   0  0  0  0  0  0  0  0  0  0  0  0
    8.1228    2.9718    0.0000 C   0  0  0  0  0  0  0  0  0  0  0  0
    3.2009    4.6377    0.0000 C   0  0  0  0  0  0  0  0  0  0  0  0
   -1.6125    0.9400    0.0000 C   0  0  0  0  0  0  0  0  0  0  0  0
    2.4507    3.1203    0.0000 C   0  0  0  0  0  0  0  0  0  0  0  0
    8.0946    6.9403    0.0000 C   0  0  0  0  0  0  0  0  0  0  0  0
    5.6618    3.8047    0.0000 C   0  0  0  0  0  0  0  0  0  0  0  0
    6.1427    5.2256    0.0000 C   0  0  0  0  0  0  0  0  0  0  0  0
   -0.3200   -2.8400    0.0000 C   0  0  0  0  0  0  0  0  0  0  0  0
    1.0100   -2.0900    0.0000 C   0  0  0  0  0  0  0  0  0  0  0  0
    4.5500    0.8800    0.0000 C   0  0  0  0  0  0  0  0  0  0  0  0
    3.7100   -0.3100    0.0000 C   0  0  0  0  0  0  0  0  0  0  0  0
   -4.2000   -0.5600    0.0000 C   0  0  0  0  0  0  0  0  0  0  0  0
   -0.3200    1.6300    0.0000 C   0  0  0  0  0  0  0  0  0  0  0  0
   -2.8900    0.1600    0.0000 C   0  0  0  0  0  0  0  0  0  0  0  0
    1.0100    2.3900    0.0000 C   0  0  0  0  0  0  0  0  0  0  0  0
   -2.8900   -2.8400    0.0000 C   0  0  0  0  0  0  0  0  0  0  0  0
    8.6037    4.3926    0.0000 C   0  0  0  0  0  0  0  0  0  0  0  0
    4.1909    3.5108    0.0000 C   0  0  0  0  0  0  0  0  0  0  0  0
    7.6137    5.5195    0.0000 C   0  0  0  0  0  0  0  0  0  0  0  0
   -1.6200   -2.0900    0.0000 C   0  0  0  0  0  0  0  0  0  0  0  0
   -4.2000   -2.0900    0.0000 C   0  0  0  0  0  0  0  0  0  0  0  0
    1.0100   -0.5600    0.0000 C   0  0  0  0  0  0  0  0  0  0  0  0
    3.7100    2.0900    0.0000 C   0  0  0  0  0  0  0  0  0  0  0  0
    2.2800    0.1600    0.0000 C   0  0  0  0  0  0  0  0  0  0  0  0
   -0.3200    0.1600    0.0000 C   0  0  0  0  0  0  0  0  0  0  0  0
   -1.6200   -0.5600    0.0000 C   0  0  0  0  0  0  0  0  0  0  0  0
    2.2800    1.6300    0.0000 C   0  0  0  0  0  0  0  0  0  0  0  0
   -5.4977   -2.8424    0.0000 O   0  0  0  0  0  0  0  0  0  0  0  0
  7  1  1  0
  8  9  2  0
 11 10  1  0
 13 12  1  0
 16 14  1  0
 17 15  1  0
 19  2  1  0
 19  3  1  0
 20  4  1  6
 20  8  1  0
 21  7  1  1
 21  9  1  0
 21 19  1  0
 22 10  2  0
 22 18  1  0
 23 14  1  0
 23 18  1  0
 24 11  1  6
 25 12  1  1
 25 20  1  0
 26 13  1  1
 26 24  1  0
 27 15  1  1
 27 24  1  0
 28  5  1  1
 28 16  1  0
 28 22  1  0
 28 27  1  0
 29  6  1  1
 29 17  1  0
 29 25  1  0
 29 26  1  0
 30 23  2  0
M  END
>  <NAME>  (2904) 
STIGMASTERONE

>  <SYNONYMS>  (2904) 


>  <SPECTRUM TYPE>  (2904) 
MS1

>  <INSTRUMENT TYPE>  (2904) 
EI-B

>  <INSTRUMENT>  (2904) 
HITACHI M-60

>  <ION MODE>  (2904) 
P

>  <INCHIKEY>  (2904) 
XWDAKKDQJHVMKG-LPJPOILFSA-N

>  <FORMULA>  (2904) 
C29H46O

>  <EXACT MASS>  (2904) 
410.35486609199995

>  <MW>  (2904) 
410

>  <ID>  (2904) 
JP008290

>  <CONTRIBUTOR>  (2904) 
University of Tokyo Team, {Faculty of Engineering, University of Tokyo

>  <COMMENT>  (2904) 
SMILES=CC(C4([H])C(C=CC([H])(CC)C(C)C)([H])C)(C([H])3CC4)CCC(C([H])23)([H])C(C)(C1=CC2)CCC(C1)=O
InChI=InChI=1S/C29H46O/c1-7-21(19(2)3)9-8-20(4)25-12-13-26-24-11-10-22-18-23(30)14-16-28(22,5)27(24)15-17-29(25,26)6/h8-10,19-21,24-27H,7,11-18H2,1-6H3/b9-8+/t20-,21-,24+,25-,26+,27+,28+,29-/m1/s1
computed SMILES=O=C1CC2=CCC3C(CCC4(C)C(CCC34)C(C=CC(CC)C(C)C)C)C2(C)CC1
accession=JP008290
date=2016.01.19 (Created 2008.10.21, modified 2011.05.06)
author=UBE SCIENTIFIC ANALYSIS LABORATORY
license=CC BY-NC-SA
exact mass=410.35487
ionization energy=70 eV
ion type=[M]+*
computed spectral entropy=4.4014270621543226
computed normalized entropy=0.8856322756691544
SPLASH=splash10-060v-9741000000-5544f165344ed92e3610
submitter=submitter = University of Tokyo Team (Faculty of Engineering, University of Tokyo)
MoNA Rating=3.75

>  <NUM PEAKS>  (2904) 
144

>  <MASS SPECTRAL PEAKS>  (2904) 
29 12.87
41 41.31
43 48.89
53 3.85
55 99.99
56 3.43
57 23.16
67 25.61
68 3.08
69 56.28
70 2.77
71 12.81
77 9.13
79 23.72
80 3.74
81 55.86
82 9.66
83 44.94
84 6.25
85 5.52
91 18.11
92 2.1
93 29.24
94 7.78
95 39.02
96 9.29
97 42.08
98 3
105 20.4
106 4.27
107 24.21
108 6.4
109 24.32
110 4.25
111 8.64
117 4.25
119 14.11
120 5.73
121 21.58
122 11.47
123 32.37
124 56.11
125 7.95
129 2.16
131 8.34
132 1.81
133 16.07
134 6.19
135 21.29
136 5.87
137 17.05
138 2.77
139 2.1
143 2.84
145 9.85
146 3.23
147 25.38
148 11.04
149 24.15
150 2.87
151 4.15
157 4.16
159 8.97
160 2.31
161 13.96
162 3.11
163 7.66
165 1.52
166 2.23
171 2.75
173 7.41
174 3.9
175 10.64
176 2.73
177 5.37
185 3.51
187 7.09
188 1.03
189 4.07
191 2.14
197 1.46
199 1.43
201 5.79
202 1.71
203 5.6
211 2.82
213 3.31
215 6.16
217 2.87
225 1.73
227 5.16
228 1.55
229 24.06
230 6.77
231 7.06
241 1.04
243 8.56
244 4.32
245 19
246 3.44
247 1.48
253 12.59
254 2.61
255 4.02
256 7.21
257 7.68
258 1.32
260 4.98
261 8.01
262 1
268 6.32
269 28.05
270 16.54
271 47.91
272 12.06
273 2.2
281 3.41
283 6.45
284 1.47
285 2.44
286 0.96
297 10.59
298 18.66
299 11.31
300 3.23
311 0.46
312 5.67
313 4.19
327 2.23
342 5.3
343 0.72
349 2.88
367 17.61
368 8.45
369 2.43
370 0.67
381 1.03
384 13.86
385 2.45
395 0.9
396 0.64
410 20.04
411 6.54
412 3.48

$$$$

     RDKit          2D

  6  6  0  0  0  0  0  0  0  0999 V2000
    2.6377   -0.8500    0.0000 C   0  0  0  0  0  0  0  0  0  0  0  0
   -1.2100   -0.3900    0.0000 C   0  0  0  0  0  0  0  0  0  0  0  0
   -0.7500    1.0300    0.0000 C   0  0  0  0  0  0  0  0  0  0  0  0
    1.2100   -0.3900    0.0000 C   0  0  0  0  0  0  0  0  0  0  0  0
    0.0000   -1.2800    0.0000 N   0  0  0  0  0  0  0  0  0  0  0  0
    0.7500    1.0300    0.0000 N   0  0  0  0  0  0  0  0  0  0  0  0
  3  2  1  0
  4  1  1  0
  5  2  1  0
  5  4  2  0
  6  3  1  0
  6  4  1  0
M  END
>  <NAME>  (2905) 
2-METHYLIMIDAZOLINE

>  <SYNONYMS>  (2905) 


>  <SPECTRUM TYPE>  (2905) 
MS1

>  <INSTRUMENT TYPE>  (2905) 
EI-B

>  <INSTRUMENT>  (2905) 
HITACHI M-60

>  <ION MODE>  (2905) 
P

>  <INCHIKEY>  (2905) 
VWSLLSXLURJCDF-UHFFFAOYSA-N

>  <FORMULA>  (2905) 
C4H8N2

>  <EXACT MASS>  (2905) 
84.06874825599999

>  <MW>  (2905) 
84

>  <ID>  (2905) 
JP008289

>  <CONTRIBUTOR>  (2905) 
University of Tokyo Team, {Faculty of Engineering, University of Tokyo

>  <COMMENT>  (2905) 
SMILES=CC(N1)=NCC1
cas=534-26-9
InChI=InChI=1S/C4H8N2/c1-4-5-2-3-6-4/h2-3H2,1H3,(H,5,6)
computed SMILES=N1=C(NCC1)C
accession=JP008289
date=2016.01.19 (Created 2008.10.21, modified 2011.05.06)
author=UBE SCIENTIFIC ANALYSIS LABORATORY
license=CC BY-NC-SA
exact mass=84.06875
ionization energy=70 eV
ion type=[M]+*
computed spectral entropy=2.1729439236602768
computed normalized entropy=0.7029809381296088
SPLASH=splash10-001l-9000000000-10bd955ad27bd211c586
submitter=submitter = University of Tokyo Team (Faculty of Engineering, University of Tokyo)
MoNA Rating=3.75

>  <NUM PEAKS>  (2905) 
22

>  <MASS SPECTRAL PEAKS>  (2905) 
15 10.77
27 2.15
28 6.48
29 2.26
30 99.99
31 12.82
41 2.28
42 10.41
43 67.64
44 19.69
45 5.16
54 1.95
55 7.98
58 3.89
59 3.18
60 3.32
72 0.71
73 25.42
74 0.82
83 2.21
84 3.33
85 1.47

$$$$

     RDKit          2D

 15 15  0  0  0  0  0  0  0  0999 V2000
    3.8974    2.7991    0.0000 C   0  0  0  0  0  0  0  0  0  0  0  0
   -4.6488    1.0972    0.0000 C   0  0  0  0  0  0  0  0  0  0  0  0
   -5.1975   -0.9519    0.0000 C   0  0  0  0  0  0  0  0  0  0  0  0
   -3.1483   -1.5006    0.0000 C   0  0  0  0  0  0  0  0  0  0  0  0
    0.0004    0.5485    0.0000 C   0  0  0  0  0  0  0  0  0  0  0  0
   -1.2996    2.7985    0.0000 C   0  0  0  0  0  0  0  0  0  0  0  0
   -1.2996   -0.2015    0.0000 C   0  0  0  0  0  0  0  0  0  0  0  0
   -2.5996    2.0485    0.0000 C   0  0  0  0  0  0  0  0  0  0  0  0
    1.2993    2.7987    0.0000 C   0  0  0  0  0  0  0  0  0  0  0  0
    2.5987    0.5489    0.0000 C   0  0  0  0  0  0  0  0  0  0  0  0
    2.5984    2.0489    0.0000 C   0  0  0  0  0  0  0  0  0  0  0  0
    0.0004    2.0485    0.0000 C   0  0  0  0  0  0  0  0  0  0  0  0
   -2.5996    0.5485    0.0000 C   0  0  0  0  0  0  0  0  0  0  0  0
   -3.8986   -0.2017    0.0000 C   0  0  0  0  0  0  0  0  0  0  0  0
    3.8978   -0.2009    0.0000 O   0  0  0  0  0  0  0  0  0  0  0  0
  7  5  2  0
  8  6  1  0
 11  1  1  0
 11  9  1  0
 11 10  1  0
 12  5  1  0
 12  6  2  0
 12  9  1  0
 13  7  1  0
 13  8  2  0
 14  2  1  0
 14  3  1  0
 14  4  1  0
 14 13  1  0
 15 10  2  0
M  END
>  <NAME>  (2906) 
LILYALDEHYDE

>  <SYNONYMS>  (2906) 
LILYAL

>  <SPECTRUM TYPE>  (2906) 
MS1

>  <INSTRUMENT TYPE>  (2906) 
EI-B

>  <INSTRUMENT>  (2906) 
HITACHI M-60

>  <ION MODE>  (2906) 
P

>  <INCHIKEY>  (2906) 
SDQFDHOLCGWZPU-UHFFFAOYSA-N

>  <FORMULA>  (2906) 
C14H20O

>  <EXACT MASS>  (2906) 
204.15141526

>  <MW>  (2906) 
204

>  <ID>  (2906) 
JP008288

>  <CONTRIBUTOR>  (2906) 
University of Tokyo Team, {Faculty of Engineering, University of Tokyo

>  <COMMENT>  (2906) 
SMILES=O=CC(C)Cc(c1)ccc(c1)C(C)(C)C
cas=80-54-6
InChI=InChI=1S/C14H20O/c1-11(10-15)9-12-5-7-13(8-6-12)14(2,3)4/h5-8,10-11H,9H2,1-4H3
computed SMILES=O=CC(C)CC1=CC=C(C=C1)C(C)(C)C
accession=JP008288
date=2016.01.19 (Created 2008.10.21, modified 2011.05.06)
author=UBE SCIENTIFIC ANALYSIS LABORATORY
license=CC BY-NC-SA
exact mass=204.15142
ionization energy=70 eV
ion type=[M]+*
computed spectral entropy=3.237333877505754
computed normalized entropy=0.8042362820016156
SPLASH=splash10-000i-3900000000-c15f5799f717408a168b
submitter=submitter = University of Tokyo Team (Faculty of Engineering, University of Tokyo)
MoNA Rating=3.75

>  <NUM PEAKS>  (2906) 
56

>  <MASS SPECTRAL PEAKS>  (2906) 
27 4.06
28 1.92
29 8.25
39 6.74
41 12.65
43 3.86
51 2.96
53 2.47
55 2.95
57 13.94
58 1.33
63 2
64 2.42
65 6.07
66 1.41
71 1.11
73 1.07
77 4.63
78 2.14
79 2.62
80 1.05
89 1.41
90 0.72
91 17.9
92 4.05
93 1.08
103 2.78
104 2.68
105 7.7
106 0.78
107 1.54
115 9
116 4.23
117 17.48
118 2.18
119 12.97
120 1.95
127 1.47
128 3.31
129 3.4
130 6.55
131 24.5
132 18.83
133 3.92
134 1.21
145 4.75
146 1.41
147 36.73
148 7.96
159 1.25
161 3.37
189 99.99
190 13.99
191 1.21
204 22.15
205 4.13

$$$$

     RDKit          2D

 19 18  0  0  0  0  0  0  0  0999 V2000
    5.1962    9.0000    0.0000 C   0  0  0  0  0  0  0  0  0  0  0  0
    3.8971    9.7500    0.0000 C   0  0  0  0  0  0  0  0  0  0  0  0
   -6.4952    9.7500    0.0000 C   0  0  0  0  0  0  0  0  0  0  0  0
   -7.7942    9.0000    0.0000 C   0  0  0  0  0  0  0  0  0  0  0  0
   -5.1962    9.0000    0.0000 C   0  0  0  0  0  0  0  0  0  0  0  0
   -9.0933    9.7500    0.0000 C   0  0  0  0  0  0  0  0  0  0  0  0
   -3.8971    9.7500    0.0000 C   0  0  0  0  0  0  0  0  0  0  0  0
  -10.3923    9.0000    0.0000 C   0  0  0  0  0  0  0  0  0  0  0  0
   -2.5981    9.0000    0.0000 C   0  0  0  0  0  0  0  0  0  0  0  0
  -11.6913    9.7500    0.0000 C   0  0  0  0  0  0  0  0  0  0  0  0
   -1.2990    9.7500    0.0000 C   0  0  0  0  0  0  0  0  0  0  0  0
  -12.9904    9.0000    0.0000 C   0  0  0  0  0  0  0  0  0  0  0  0
    0.0000    9.0000    0.0000 C   0  0  0  0  0  0  0  0  0  0  0  0
  -14.2894    9.7500    0.0000 C   0  0  0  0  0  0  0  0  0  0  0  0
    1.2990    9.7500    0.0000 C   0  0  0  0  0  0  0  0  0  0  0  0
  -14.2894   11.2500    0.0000 O   0  0  0  0  0  0  0  0  0  0  0  0
  -15.5885    9.0000    0.0000 O   0  0  0  0  0  0  0  0  0  0  0  0
    1.2990   11.2500    0.0000 O   0  0  0  0  0  0  0  0  0  0  0  0
    2.5981    9.0000    0.0000 O   0  0  0  0  0  0  0  0  0  0  0  0
  2  1  2  0
  4  3  1  0
  5  3  1  0
  6  4  1  0
  7  5  1  0
  8  6  1  0
  9  7  1  0
 10  8  1  0
 11  9  1  0
 12 10  1  0
 13 11  1  0
 14 12  1  0
 15 13  1  0
 16 14  2  0
 17 14  1  0
 18 15  2  0
 19  2  1  0
 19 15  1  0
M  END
>  <NAME>  (2907) 
VINYL BRASSYLATE

>  <SYNONYMS>  (2907) 


>  <SPECTRUM TYPE>  (2907) 
MS1

>  <INSTRUMENT TYPE>  (2907) 
EI-B

>  <INSTRUMENT>  (2907) 
HITACHI M-60

>  <ION MODE>  (2907) 
P

>  <INCHIKEY>  (2907) 
SXFXZRUEZJONJH-UHFFFAOYSA-N

>  <FORMULA>  (2907) 
C15H26O4

>  <EXACT MASS>  (2907) 
270.183109312

>  <MW>  (2907) 
270

>  <ID>  (2907) 
JP008287

>  <CONTRIBUTOR>  (2907) 
University of Tokyo Team, {Faculty of Engineering, University of Tokyo

>  <COMMENT>  (2907) 
SMILES=C=COC(=O)CCCCCCCCCCCC(O)=O
InChI=InChI=1S/C15H26O4/c1-2-19-15(18)13-11-9-7-5-3-4-6-8-10-12-14(16)17/h2H,1,3-13H2,(H,16,17)
computed SMILES=O=C(O)CCCCCCCCCCCC(=O)OC=C
accession=JP008287
date=2016.01.19 (Created 2008.10.21, modified 2011.05.06)
author=UBE SCIENTIFIC ANALYSIS LABORATORY
license=CC BY-NC-SA
exact mass=270.18311
ionization energy=70 eV
ion type=[M]+*
computed spectral entropy=4.078586803507226
computed normalized entropy=0.8340072858950044
SPLASH=splash10-053e-9200000000-d428799b447eea4b0622
submitter=submitter = University of Tokyo Team (Faculty of Engineering, University of Tokyo)
MoNA Rating=3.75

>  <NUM PEAKS>  (2907) 
133

>  <MASS SPECTRAL PEAKS>  (2907) 
15 3.11
27 16.76
28 10.92
29 28.78
30 0.99
31 2.51
39 11.86
40 3.77
41 66.35
42 30.33
43 38.63
44 5.5
45 10.57
53 5.11
54 8.94
55 99.99
56 17.42
57 12.5
58 8.39
59 3.72
60 3.2
61 4.27
65 1.06
66 1.24
67 18.87
68 11.06
69 32.78
70 11.06
71 8.25
72 1.3
73 4.36
74 1.46
77 1.02
79 5.33
80 5.22
81 17.47
82 9.91
83 31.16
84 44.25
85 8.05
86 67.2
87 24.16
88 1.45
89 1.2
91 1.49
92 1.3
93 4.77
94 4.75
95 10.46
96 8.51
97 19.55
98 79.83
99 47.03
100 5.03
101 2.96
104 4.17
105 2.44
106 1.4
107 5.73
108 2.91
109 5.24
110 3.86
111 11.36
112 28.08
113 6.82
114 1.57
115 1.8
117 2.52
119 1.16
120 1.1
121 3.35
122 2.29
123 4.84
124 4.88
125 17.87
126 4.87
127 2.56
129 1.48
133 1.71
134 0.91
135 1.68
136 1.33
137 3.32
138 2.48
139 3.83
140 1.11
141 3.9
143 1.66
144 1.19
145 1.62
146 1.18
147 1.97
149 7.41
150 1.3
151 1.75
152 3.04
153 1.09
155 9.21
156 1.45
159 3.52
162 1.22
163 3.34
164 1.88
165 1.57
166 3.19
167 2.55
169 1.98
171 1.03
173 6.56
174 1.09
180 5.44
181 3.45
182 2.43
183 1.33
187 22.03
188 2.65
191 1.04
197 1.38
208 6.16
209 2.5
210 1.74
211 17.05
212 2.79
227 41.29
228 6.41
229 0.75
240 0.91
241 1.02
242 1.93
252 1.45
269 0.56
270 5.33
271 0.98

$$$$

     RDKit          2D

 11 10  0  0  0  0  0  0  0  0999 V2000
    2.5981    4.5000    0.0000 C   0  0  0  0  0  0  0  0  0  0  0  0
   -7.7942    4.5000    0.0000 C   0  0  0  0  0  0  0  0  0  0  0  0
   -2.5981    4.5000    0.0000 C   0  0  0  0  0  0  0  0  0  0  0  0
   -1.2990    5.2500    0.0000 C   0  0  0  0  0  0  0  0  0  0  0  0
   -3.8971    5.2500    0.0000 C   0  0  0  0  0  0  0  0  0  0  0  0
    0.0000    4.5000    0.0000 C   0  0  0  0  0  0  0  0  0  0  0  0
   -5.1962    4.5000    0.0000 C   0  0  0  0  0  0  0  0  0  0  0  0
    0.0000    3.0000    0.0000 O   0  0  0  0  0  0  0  0  0  0  0  0
   -5.1962    3.0000    0.0000 O   0  0  0  0  0  0  0  0  0  0  0  0
    1.2990    5.2500    0.0000 O   0  0  0  0  0  0  0  0  0  0  0  0
   -6.4952    5.2500    0.0000 O   0  0  0  0  0  0  0  0  0  0  0  0
  3  4  2  0
  5  3  1  0
  6  4  1  0
  7  5  1  0
  8  6  2  0
  9  7  2  0
 10  1  1  0
 10  6  1  0
 11  2  1  0
 11  7  1  0
M  END
>  <NAME>  (2908) 
DIMETHYL GLUTACONATE

>  <SYNONYMS>  (2908) 


>  <SPECTRUM TYPE>  (2908) 
MS1

>  <INSTRUMENT TYPE>  (2908) 
EI-B

>  <INSTRUMENT>  (2908) 
HITACHI M-60

>  <ION MODE>  (2908) 
P

>  <INCHIKEY>  (2908) 
SKCGFFOFYXLNCG-ONEGZZNKSA-N

>  <FORMULA>  (2908) 
C7H10O4

>  <EXACT MASS>  (2908) 
158.0579088

>  <MW>  (2908) 
158

>  <ID>  (2908) 
JP008285

>  <CONTRIBUTOR>  (2908) 
University of Tokyo Team, {Faculty of Engineering, University of Tokyo

>  <COMMENT>  (2908) 
SMILES=COC(=O)CC=CC(=O)OC
cas=5164-76-1
InChI=InChI=1S/C7H10O4/c1-10-6(8)4-3-5-7(9)11-2/h3-4H,5H2,1-2H3/b4-3+
computed SMILES=O=C(OC)C=CCC(=O)OC
accession=JP008285
date=2016.01.19 (Created 2008.10.21, modified 2011.05.06)
author=UBE SCIENTIFIC ANALYSIS LABORATORY
license=CC BY-NC-SA
exact mass=158.05791
ionization energy=70 eV
ion type=[M]+*
computed spectral entropy=3.218248331442716
computed normalized entropy=0.7959949350744698
SPLASH=splash10-0690-9200000000-c655d60149afc91458c7
submitter=submitter = University of Tokyo Team (Faculty of Engineering, University of Tokyo)
MoNA Rating=3.75

>  <NUM PEAKS>  (2908) 
57

>  <MASS SPECTRAL PEAKS>  (2908) 
14 2.12
15 92.9
26 2.65
27 9.67
28 3.24
29 23.05
30 1.79
31 3.66
37 2.72
38 8.81
39 49.74
40 28.25
41 35.55
42 6.81
43 5.05
44 0.71
45 9.68
48 1.44
49 0.83
53 7.32
54 4.9
55 27.72
56 3.19
57 1.69
58 0.97
59 99.99
60 3.07
67 9.68
68 15.79
69 40.64
70 2.5
71 18.51
72 2.6
74 1.11
77 2.03
81 1.56
82 4.8
83 10.07
84 1.27
85 1.83
87 1.03
95 3.81
98 5.59
99 49.59
100 4.42
101 2.39
113 18.07
114 1.42
115 0.94
126 45.58
127 65.27
128 5.81
129 1.08
130 8.23
143 5.64
158 7.66
159 0.74

$$$$

     RDKit          2D

  6  6  0  0  0  0  0  0  0  0999 V2000
   -1.2100    0.3900    0.0000 C   0  0  0  0  0  0  0  0  0  0  0  0
    0.0000    1.2800    0.0000 N   0  0  0  0  0  0  0  0  0  0  0  0
   -0.7500   -1.0300    0.0000 N   0  0  0  0  0  0  0  0  0  0  0  0
    1.2100    0.3900    0.0000 N   0  0  0  0  0  0  0  0  0  0  0  0
    0.7500   -1.0300    0.0000 N   0  0  0  0  0  0  0  0  0  0  0  0
   -2.6377    0.8500    0.0000 S   0  0  0  0  0  0  0  0  0  0  0  0
  2  1  2  0
  3  1  1  0
  4  2  1  0
  5  3  2  0
  5  4  1  0
  6  1  1  0
M  END
>  <NAME>  (2909) 
5-MERCAPTOTETRAZOLE

>  <SYNONYMS>  (2909) 


>  <SPECTRUM TYPE>  (2909) 
MS1

>  <INSTRUMENT TYPE>  (2909) 
EI-B

>  <INSTRUMENT>  (2909) 
HITACHI M-60

>  <ION MODE>  (2909) 
P

>  <INCHIKEY>  (2909) 
JAAIPIWKKXCNOC-UHFFFAOYSA-N

>  <FORMULA>  (2909) 
CH2N4S

>  <EXACT MASS>  (2909) 
102.00001706399999

>  <MW>  (2909) 
102

>  <ID>  (2909) 
JP008284

>  <CONTRIBUTOR>  (2909) 
University of Tokyo Team, {Faculty of Engineering, University of Tokyo

>  <COMMENT>  (2909) 
SMILES=C1(=S)NNN=N1
InChI=InChI=1S/CH2N4S/c6-1-2-4-5-3-1/h(H2,2,3,4,5,6)
computed SMILES=SC=1N=NNN1
accession=JP008284
date=2016.01.19 (Created 2008.10.21, modified 2011.05.06)
author=UBE SCIENTIFIC ANALYSIS LABORATORY
license=CC BY-NC-SA
exact mass=102.00002
ionization energy=70 eV
ion type=[M]+*
computed spectral entropy=3.0147889236359737
computed normalized entropy=0.7919769435135489
SPLASH=splash10-0006-9000000000-61d929f2c6774b9e1009
submitter=submitter = University of Tokyo Team (Faculty of Engineering, University of Tokyo)
MoNA Rating=3.75

>  <NUM PEAKS>  (2909) 
45

>  <MASS SPECTRAL PEAKS>  (2909) 
14 4.42
15 8.61
16 4.88
17 12.81
18 61.2
20 7.69
27 5.27
28 7.15
29 12.81
32 9.24
33 3.41
34 9.24
36 17.69
38 5.24
39 1.22
41 5.8
42 14.87
43 54.02
44 99.99
45 20.67
46 2
47 5.44
55 4.54
56 2.11
57 4.32
58 3.71
59 38.94
60 14.47
61 3.24
69 4.26
70 0.81
71 3.09
73 7.35
74 11.14
81 1.01
82 1.03
83 1.95
84 1.46
85 1.17
87 0.9
97 0.94
98 0.94
102 37.7
104 1.19
105 0.8

$$$$

     RDKit          2D

  9  9  0  0  0  0  0  0  0  0999 V2000
    0.9744   -2.8133    0.0000 C   0  0  0  0  0  0  0  0  0  0  0  0
   -0.3254    0.9383    0.0000 C   0  0  0  0  0  0  0  0  0  0  0  0
    0.9737    1.6883    0.0000 C   0  0  0  0  0  0  0  0  0  0  0  0
   -0.3249   -0.5625    0.0000 C   0  0  0  0  0  0  0  0  0  0  0  0
    2.2737   -0.5633    0.0000 C   0  0  0  0  0  0  0  0  0  0  0  0
    2.2732    0.9375    0.0000 N   0  0  0  0  0  0  0  0  0  0  0  0
    0.9746   -1.3133    0.0000 N   0  0  0  0  0  0  0  0  0  0  0  0
   -1.6239   -1.3125    0.0000 O   0  0  0  0  0  0  0  0  0  0  0  0
    3.5728   -1.3131    0.0000 O   0  0  0  0  0  0  0  0  0  0  0  0
  3  2  2  0
  4  2  1  0
  6  3  1  0
  6  5  2  0
  7  1  1  0
  7  4  1  0
  7  5  1  0
  8  4  2  0
  9  5  1  0
M  END
>  <NAME>  (2910) 
3-METHYLURACIL

>  <SYNONYMS>  (2910) 


>  <SPECTRUM TYPE>  (2910) 
MS1

>  <INSTRUMENT TYPE>  (2910) 
EI-B

>  <INSTRUMENT>  (2910) 
HITACHI M-60

>  <ION MODE>  (2910) 
P

>  <INCHIKEY>  (2910) 
VPLZGVOSFFCKFC-UHFFFAOYSA-N

>  <FORMULA>  (2910) 
C5H6N2O2

>  <EXACT MASS>  (2910) 
126.042927432

>  <MW>  (2910) 
126

>  <ID>  (2910) 
JP008283

>  <CONTRIBUTOR>  (2910) 
University of Tokyo Team, {Faculty of Engineering, University of Tokyo

>  <COMMENT>  (2910) 
SMILES=O=C(C=1)N(C)C(=O)NC1
InChI=InChI=1S/C5H6N2O2/c1-7-4(8)2-3-6-5(7)9/h2-3H,1H3,(H,6,9)
computed SMILES=O=C1C=CN=C(O)N1C
accession=JP008283
date=2016.01.19 (Created 2008.10.21, modified 2011.05.06)
author=UBE SCIENTIFIC ANALYSIS LABORATORY
license=CC BY-NC-SA
exact mass=126.04293
ionization energy=70 eV
ion type=[M]+*
computed spectral entropy=2.6424346339155527
computed normalized entropy=0.7493376288299896
SPLASH=splash10-00ou-9300000000-ec9aae794e6589b21ed2
submitter=submitter = University of Tokyo Team (Faculty of Engineering, University of Tokyo)
MoNA Rating=3.75

>  <NUM PEAKS>  (2910) 
34

>  <MASS SPECTRAL PEAKS>  (2910) 
14 4.07
15 8.64
18 1.54
26 5.37
27 2.83
28 40.71
29 3.33
30 3.19
38 1.75
39 3.05
40 24.26
41 25.84
42 47.65
43 0.76
44 1.54
52 0.96
53 2.81
54 2.03
55 5.94
56 9.73
58 6.21
68 14.8
69 90.09
70 15.03
71 0.79
82 3.49
83 0.53
84 1.8
96 5.35
97 5.8
98 5.98
126 99.99
127 17.67
128 1.34

$$$$

     RDKit          2D

  8  8  0  0  0  0  0  0  0  0999 V2000
    0.6477    2.2439    0.0000 C   0  0  0  0  0  0  0  0  0  0  0  0
    1.9467    1.4939    0.0000 C   0  0  0  0  0  0  0  0  0  0  0  0
   -0.6468    1.5017    0.0000 C   0  0  0  0  0  0  0  0  0  0  0  0
    0.6517   -0.7491    0.0000 C   0  0  0  0  0  0  0  0  0  0  0  0
    1.9512    0.0017    0.0000 N   0  0  0  0  0  0  0  0  0  0  0  0
   -0.6473    0.0009    0.0000 N   0  0  0  0  0  0  0  0  0  0  0  0
   -1.9446    2.2539    0.0000 O   0  0  0  0  0  0  0  0  0  0  0  0
    0.6520   -2.2491    0.0000 O   0  0  0  0  0  0  0  0  0  0  0  0
  2  1  2  0
  3  1  1  0
  5  2  1  0
  5  4  2  0
  6  3  2  0
  6  4  1  0
  7  3  1  0
  8  4  1  0
M  END
>  <NAME>  (2911) 
URACIL

>  <SYNONYMS>  (2911) 
2,4(1H,3H)-PYRIMIDINEDIONE

>  <SPECTRUM TYPE>  (2911) 
MS1

>  <INSTRUMENT TYPE>  (2911) 
EI-B

>  <INSTRUMENT>  (2911) 
HITACHI M-60

>  <ION MODE>  (2911) 
P

>  <INCHIKEY>  (2911) 
ISAKRJDGNUQOIC-UHFFFAOYSA-N

>  <FORMULA>  (2911) 
C4H4N2O2

>  <EXACT MASS>  (2911) 
112.027277368

>  <MW>  (2911) 
112

>  <ID>  (2911) 
JP008282

>  <CONTRIBUTOR>  (2911) 
University of Tokyo Team, {Faculty of Engineering, University of Tokyo

>  <COMMENT>  (2911) 
SMILES=O=C(C=1)NC(=O)NC1
cas=66-22-8
InChI=InChI=1S/C4H4N2O2/c7-3-1-2-5-4(8)6-3/h1-2H,(H2,5,6,7,8)
computed SMILES=OC1=NC=CC(O)=N1
accession=JP008282
date=2016.01.19 (Created 2008.10.21, modified 2011.05.06)
author=UBE SCIENTIFIC ANALYSIS LABORATORY
license=CC BY-NC-SA
exact mass=112.02728
ionization energy=70 eV
ion type=[M]+*
computed spectral entropy=2.7120846498780105
computed normalized entropy=0.8228819447504925
SPLASH=splash10-02tc-9200000000-4a57c4e06fd552d6a9bf
submitter=submitter = University of Tokyo Team (Faculty of Engineering, University of Tokyo)
MoNA Rating=3.75

>  <NUM PEAKS>  (2911) 
27

>  <MASS SPECTRAL PEAKS>  (2911) 
14 8.89
15 2.03
16 23.98
17 40.9
26 5.14
27 4.4
28 37.37
29 4.96
36 16.68
38 8.74
39 5.1
40 27.93
41 30.43
42 58.56
43 4.84
44 9.61
45 8.74
59 1.23
60 3.16
68 18.37
69 69.75
70 7.87
73 2.48
88 2.16
112 99.99
113 7.05
116 5.02

$$$$

     RDKit          2D

  7  7  0  0  0  0  0  0  0  0999 V2000
    1.6182    1.6093    0.0000 C   0  0  0  0  0  0  0  0  0  0  0  0
   -0.9217    1.0628    0.0000 C   0  0  0  0  0  0  0  0  0  0  0  0
   -0.7560   -0.4300    0.0000 N   0  0  0  0  0  0  0  0  0  0  0  0
   -2.3815    1.3745    0.0000 N   0  0  0  0  0  0  0  0  0  0  0  0
   -2.1317   -1.0329    0.0000 N   0  0  0  0  0  0  0  0  0  0  0  0
   -3.1315    0.0754    0.0000 N   0  0  0  0  0  0  0  0  0  0  0  0
    0.1905    2.0693    0.0000 S   0  0  0  0  0  0  0  0  0  0  0  0
  3  2  2  0
  4  2  1  0
  5  3  1  0
  6  4  2  0
  6  5  1  0
  7  1  1  0
  7  2  1  0
M  END
>  <NAME>  (2912) 
5-METHYLMERCAPTOTETRAZOLE

>  <SYNONYMS>  (2912) 


>  <SPECTRUM TYPE>  (2912) 
MS1

>  <INSTRUMENT TYPE>  (2912) 
EI-B

>  <INSTRUMENT>  (2912) 
HITACHI M-60

>  <ION MODE>  (2912) 
P

>  <INCHIKEY>  (2912) 
ZBXNFTFKKOSPLD-UHFFFAOYSA-N

>  <FORMULA>  (2912) 
C2H4N4S

>  <EXACT MASS>  (2912) 
116.01566712799999

>  <MW>  (2912) 
116

>  <ID>  (2912) 
JP008281

>  <CONTRIBUTOR>  (2912) 
University of Tokyo Team, {Faculty of Engineering, University of Tokyo

>  <COMMENT>  (2912) 
SMILES=CSC1=NNN=N1
InChI=InChI=1S/C2H4N4S/c1-7-2-3-5-6-4-2/h1H3,(H,3,4,5,6)
computed SMILES=N1=NC(=NN1)SC
accession=JP008281
date=2016.01.19 (Created 2008.10.21, modified 2011.05.06)
author=UBE SCIENTIFIC ANALYSIS LABORATORY
license=CC BY-NC-SA
exact mass=116.01567
ionization energy=70 eV
ion type=[M]+*
computed spectral entropy=2.903126398804452
computed normalized entropy=0.8039857091845474
SPLASH=splash10-00kb-9100000000-60f75717223b102fa8b5
submitter=submitter = University of Tokyo Team (Faculty of Engineering, University of Tokyo)
MoNA Rating=3.75

>  <NUM PEAKS>  (2912) 
37

>  <MASS SPECTRAL PEAKS>  (2912) 
13 3.11
14 7.99
15 26.4
16 2.83
29 46.25
32 4.91
33 1.88
34 1.64
41 8.74
42 4.79
43 7.96
44 21.99
45 88.73
46 36.89
47 27.3
48 11.46
55 1.56
56 1.76
57 7.71
58 33.03
59 22.16
60 4.19
61 4.99
69 19.62
70 1.07
71 1.05
72 3.19
73 53.24
74 5.76
75 2.28
87 2.04
88 49.26
89 1.64
90 2.05
116 99.99
117 6.95
118 3.92

$$$$

     RDKit          2D

 18 17  0  0  0  0  0  0  0  0999 V2000
    2.9228    7.6875    0.0000 C   0  0  0  0  0  0  0  0  0  0  0  0
  -11.3666    8.4375    0.0000 C   0  0  0  0  0  0  0  0  0  0  0  0
   -7.4695    1.6875    0.0000 C   0  0  0  0  0  0  0  0  0  0  0  0
    1.6238    8.4375    0.0000 C   0  0  0  0  0  0  0  0  0  0  0  0
  -10.0675    7.6875    0.0000 C   0  0  0  0  0  0  0  0  0  0  0  0
   -7.4695    3.1875    0.0000 C   0  0  0  0  0  0  0  0  0  0  0  0
    0.3248    7.6875    0.0000 C   0  0  0  0  0  0  0  0  0  0  0  0
   -8.7685    8.4375    0.0000 C   0  0  0  0  0  0  0  0  0  0  0  0
   -6.1704    3.9375    0.0000 C   0  0  0  0  0  0  0  0  0  0  0  0
   -0.9743    8.4375    0.0000 C   0  0  0  0  0  0  0  0  0  0  0  0
   -7.4695    7.6875    0.0000 C   0  0  0  0  0  0  0  0  0  0  0  0
   -6.1704    5.4375    0.0000 C   0  0  0  0  0  0  0  0  0  0  0  0
   -3.5724    8.4375    0.0000 C   0  0  0  0  0  0  0  0  0  0  0  0
   -4.8714    7.6875    0.0000 C   0  0  0  0  0  0  0  0  0  0  0  0
   -3.5724    9.9375    0.0000 O   0  0  0  0  0  0  0  0  0  0  0  0
   -2.2733    7.6875    0.0000 O   0  0  0  0  0  0  0  0  0  0  0  0
   -6.1704    8.4375    0.0000 O   0  0  0  0  0  0  0  0  0  0  0  0
   -4.8714    6.1875    0.0000 O   0  0  0  0  0  0  0  0  0  0  0  0
  4  1  1  0
  5  2  1  0
  6  3  1  0
  7  4  1  0
  8  5  1  0
  9  6  1  0
 10  7  1  0
 11  8  1  0
 12  9  1  0
 14 13  1  0
 15 13  2  0
 16 10  1  0
 16 13  1  0
 17 11  1  0
 17 14  1  0
 18 12  1  0
 18 14  1  0
M  END
>  <NAME>  (2913) 
BUTYL GLYOXYLATE DIBUTYLACETAL

>  <SYNONYMS>  (2913) 


>  <SPECTRUM TYPE>  (2913) 
MS1

>  <INSTRUMENT TYPE>  (2913) 
EI-B

>  <INSTRUMENT>  (2913) 
HITACHI M-60

>  <ION MODE>  (2913) 
P

>  <INCHIKEY>  (2913) 
LEQXXBBCRATLPW-UHFFFAOYSA-N

>  <FORMULA>  (2913) 
C14H28O4

>  <EXACT MASS>  (2913) 
260.198759376

>  <MW>  (2913) 
260

>  <ID>  (2913) 
JP008280

>  <CONTRIBUTOR>  (2913) 
University of Tokyo Team, {Faculty of Engineering, University of Tokyo

>  <COMMENT>  (2913) 
SMILES=CCCCOC(=O)C(OCCCC)OCCCC
InChI=InChI=1S/C14H28O4/c1-4-7-10-16-13(15)14(17-11-8-5-2)18-12-9-6-3/h14H,4-12H2,1-3H3
computed SMILES=O=C(OCCCC)C(OCCCC)OCCCC
accession=JP008280
date=2016.01.19 (Created 2008.10.21, modified 2011.05.06)
author=UBE SCIENTIFIC ANALYSIS LABORATORY
license=CC BY-NC-SA
exact mass=260.19876
ionization energy=70 eV
ion type=[M]+*
computed spectral entropy=1.9952237228951717
computed normalized entropy=0.6660220409242831
SPLASH=splash10-0a4i-9200000000-7e6a2ab44fe95091f1f0
submitter=submitter = University of Tokyo Team (Faculty of Engineering, University of Tokyo)
MoNA Rating=3.75

>  <NUM PEAKS>  (2913) 
20

>  <MASS SPECTRAL PEAKS>  (2913) 
27 4.22
28 1.79
29 25.08
31 1.64
39 2.65
41 24.66
42 1.6
43 2.18
47 1.78
55 3.71
56 6.15
57 99.99
58 6.84
103 26.28
104 1.55
131 1.79
159 17.97
160 2.13
187 0.59
188 0.14

$$$$

     RDKit          2D

 10  9  0  0  0  0  0  0  0  0999 V2000
    1.1654    2.9228    0.0000 C   0  0  0  0  0  0  0  0  0  0  0  0
   -1.8838    0.3642    0.0000 C   0  0  0  0  0  0  0  0  0  0  0  0
    1.0087    2.0343    0.0000 C   0  0  0  0  0  0  0  0  0  0  0  0
   -2.7317    3.6728    0.0000 C   0  0  0  0  0  0  0  0  0  0  0  0
   -4.0307    2.9228    0.0000 C   0  0  0  0  0  0  0  0  0  0  0  0
   -1.4327    2.9228    0.0000 C   0  0  0  0  0  0  0  0  0  0  0  0
   -5.3298    2.1728    0.0000 N   0  0  0  0  0  0  0  0  0  0  0  0
   -0.1336    3.6728    0.0000 O   0  0  0  0  0  0  0  0  0  0  0  0
   -2.3968    1.7738    0.0000 O   0  0  0  0  0  0  0  0  0  0  0  0
   -0.4685    1.7738    0.0000 O   0  0  0  0  0  0  0  0  0  0  0  0
  5  4  1  0
  6  4  1  0
  7  5  3  0
  8  1  1  0
  8  6  1  0
  9  2  1  0
  9  6  1  0
 10  3  1  0
 10  6  1  0
M  END
>  <NAME>  (2914) 
3,3,3-TRIMETHOXYPROPIONITRILE

>  <SYNONYMS>  (2914) 


>  <SPECTRUM TYPE>  (2914) 
MS1

>  <INSTRUMENT TYPE>  (2914) 
EI-B

>  <INSTRUMENT>  (2914) 
HITACHI M-60

>  <ION MODE>  (2914) 
P

>  <INCHIKEY>  (2914) 
IPJDXQYLAATRJK-UHFFFAOYSA-N

>  <FORMULA>  (2914) 
C6H11NO3

>  <EXACT MASS>  (2914) 
145.073893212

>  <MW>  (2914) 
145

>  <ID>  (2914) 
JP008279

>  <CONTRIBUTOR>  (2914) 
University of Tokyo Team, {Faculty of Engineering, University of Tokyo

>  <COMMENT>  (2914) 
SMILES=N#CCC(OC)(OC)OC
InChI=InChI=1S/C6H11NO3/c1-8-6(9-2,10-3)4-5-7/h4H2,1-3H3
computed SMILES=N#CCC(OC)(OC)OC
accession=JP008279
date=2016.01.19 (Created 2008.10.21, modified 2011.05.06)
author=UBE SCIENTIFIC ANALYSIS LABORATORY
license=CC BY-NC-SA
exact mass=145.07389
ionization energy=70 eV
ion type=[M]+*
computed spectral entropy=2.819647562916211
computed normalized entropy=0.7751424816088208
SPLASH=splash10-0900-9400000000-2f18ae517f4db92c2ea0
submitter=submitter = University of Tokyo Team (Faculty of Engineering, University of Tokyo)
MoNA Rating=3.75

>  <NUM PEAKS>  (2914) 
38

>  <MASS SPECTRAL PEAKS>  (2914) 
14 1.85
15 40.63
17 1.47
18 1.77
26 1
27 3.97
28 3.92
29 11.14
30 1.6
31 4.24
39 2.62
40 11.53
41 2.15
42 13.22
43 5.5
45 8.43
47 9.23
53 1.05
54 4.61
55 20.38
56 1.33
57 4.23
58 1.68
59 25.8
61 2.98
67 1.68
68 14.12
69 1.39
70 5.26
72 46.89
73 1.84
75 4.38
82 7.9
105 21.28
106 0.98
114 99.99
115 5.62
116 0.7

$$$$

     RDKit          2D

 11 11  0  0  0  0  0  0  0  0999 V2000
   -4.8712    2.0071    0.0000 C   0  0  0  0  0  0  0  0  0  0  0  0
    2.9231    0.5071    0.0000 C   0  0  0  0  0  0  0  0  0  0  0  0
    1.6236   -0.2437    0.0000 C   0  0  0  0  0  0  0  0  0  0  0  0
    2.9236    2.0079    0.0000 C   0  0  0  0  0  0  0  0  0  0  0  0
    0.3245    0.5063    0.0000 C   0  0  0  0  0  0  0  0  0  0  0  0
    1.6245    2.7579    0.0000 C   0  0  0  0  0  0  0  0  0  0  0  0
    0.3250    2.0071    0.0000 C   0  0  0  0  0  0  0  0  0  0  0  0
   -2.2731    2.0071    0.0000 C   0  0  0  0  0  0  0  0  0  0  0  0
   -0.9740    2.7571    0.0000 N   0  0  0  0  0  0  0  0  0  0  0  0
   -2.2731    0.5071    0.0000 S   0  0  0  0  0  0  0  0  0  0  0  0
   -3.5721    2.7571    0.0000 S   0  0  0  0  0  0  0  0  0  0  0  0
  3  2  2  0
  4  2  1  0
  5  3  1  0
  6  4  2  0
  7  5  2  0
  7  6  1  0
  9  7  1  0
  9  8  2  3
 10  8  1  0
 11  1  1  0
 11  8  1  0
M  END
>  <NAME>  (2915) 
METHYL N-PHENYLDITHIOCARBAMATE

>  <SYNONYMS>  (2915) 


>  <SPECTRUM TYPE>  (2915) 
MS1

>  <INSTRUMENT TYPE>  (2915) 
EI-B

>  <INSTRUMENT>  (2915) 
HITACHI M-60

>  <ION MODE>  (2915) 
P

>  <INCHIKEY>  (2915) 
MOOSRNWDPWTOBF-UHFFFAOYSA-N

>  <FORMULA>  (2915) 
C8H9NS2

>  <EXACT MASS>  (2915) 
183.017641288

>  <MW>  (2915) 
183

>  <ID>  (2915) 
JP008278

>  <CONTRIBUTOR>  (2915) 
University of Tokyo Team, {Faculty of Engineering, University of Tokyo

>  <COMMENT>  (2915) 
SMILES=CSC(=S)Nc(c1)cccc1
cas=701-73-5
InChI=InChI=1S/C8H9NS2/c1-11-8(10)9-7-5-3-2-4-6-7/h2-6H,1H3,(H,9,10)
computed SMILES=SC(=NC=1C=CC=CC1)SC
accession=JP008278
date=2016.01.19 (Created 2008.10.21, modified 2011.05.06)
author=UBE SCIENTIFIC ANALYSIS LABORATORY
license=CC BY-NC-SA
exact mass=183.01764
ionization energy=70 eV
ion type=[M]+*
computed spectral entropy=2.936016140241088
computed normalized entropy=0.7855205087895215
SPLASH=splash10-0f9i-9500000000-3f668cb8a340a34523bd
submitter=submitter = University of Tokyo Team (Faculty of Engineering, University of Tokyo)
MoNA Rating=3.75

>  <NUM PEAKS>  (2915) 
42

>  <MASS SPECTRAL PEAKS>  (2915) 
15 3.06
37 4.1
38 6.6
39 13.55
45 19.02
46 5.41
47 29.7
48 24.19
49 2.73
50 24.05
51 53.67
52 4.64
59 1.98
61 0.98
62 1.86
63 6.55
64 6.22
65 7.88
68 3.71
70 1.47
74 6.43
75 4.95
76 6.79
77 99.99
78 8.42
90 0.78
91 23.21
92 1.99
93 1.47
103 1.15
108 3.66
109 14.92
110 3.83
135 99.59
136 48.17
137 8.11
138 1.51
150 2.74
182 0.88
183 25.36
184 3.65
185 2.44

$$$$

     RDKit          2D

 10 10  0  0  0  0  0  0  0  0999 V2000
    2.5987    3.0002    0.0000 C   0  0  0  0  0  0  0  0  0  0  0  0
   -1.3000    0.7500    0.0000 C   0  0  0  0  0  0  0  0  0  0  0  0
    0.0000    1.5000    0.0000 C   0  0  0  0  0  0  0  0  0  0  0  0
   -1.3000   -0.7500    0.0000 C   0  0  0  0  0  0  0  0  0  0  0  0
    2.5989    1.5002    0.0000 C   0  0  0  0  0  0  0  0  0  0  0  0
    1.3000    0.7500    0.0000 C   0  0  0  0  0  0  0  0  0  0  0  0
    1.3000   -0.7500    0.0000 C   0  0  0  0  0  0  0  0  0  0  0  0
    3.8981    0.7504    0.0000 O   0  0  0  0  0  0  0  0  0  0  0  0
    2.5989   -1.5002    0.0000 O   0  0  0  0  0  0  0  0  0  0  0  0
   -0.0000   -1.5000    0.0000 O   0  0  0  0  0  0  0  0  0  0  0  0
  3  2  1  0
  4  2  1  0
  5  1  1  0
  6  3  1  0
  6  5  1  0
  7  6  1  0
  8  5  2  0
  9  7  2  0
 10  4  1  0
 10  7  1  0
M  END
>  <NAME>  (2916) 
ALPHA-ACETYL-DELTA-VALEROLACTONE

>  <SYNONYMS>  (2916) 


>  <SPECTRUM TYPE>  (2916) 
MS1

>  <INSTRUMENT TYPE>  (2916) 
EI-B

>  <INSTRUMENT>  (2916) 
HITACHI M-60

>  <ION MODE>  (2916) 
P

>  <INCHIKEY>  (2916) 
DRBJCTHMAXSQQA-UHFFFAOYSA-N

>  <FORMULA>  (2916) 
C7H10O3

>  <EXACT MASS>  (2916) 
142.06299417999998

>  <MW>  (2916) 
142

>  <ID>  (2916) 
JP008277

>  <CONTRIBUTOR>  (2916) 
University of Tokyo Team, {Faculty of Engineering, University of Tokyo

>  <COMMENT>  (2916) 
SMILES=CC(=O)C(C1)C(=O)OCC1
InChI=InChI=1S/C7H10O3/c1-5(8)6-3-2-4-10-7(6)9/h6H,2-4H2,1H3
computed SMILES=O=C1OCCCC1C(=O)C
accession=JP008277
date=2016.01.19 (Created 2008.10.21, modified 2011.05.06)
author=UBE SCIENTIFIC ANALYSIS LABORATORY
license=CC BY-NC-SA
exact mass=142.06299
ionization energy=70 eV
ion type=[M]+*
computed spectral entropy=3.111367818240448
computed normalized entropy=0.8126558473440749
SPLASH=splash10-0006-9300000000-9a84511aba74074f138f
submitter=submitter = University of Tokyo Team (Faculty of Engineering, University of Tokyo)
MoNA Rating=3.75

>  <NUM PEAKS>  (2916) 
46

>  <MASS SPECTRAL PEAKS>  (2916) 
15 9.96
26 2.37
27 14.35
28 6.99
29 9.93
31 2.24
38 1.27
39 12.02
40 2.52
41 10.61
42 6.57
43 99.99
44 6.07
45 4.06
51 1.18
53 7.25
54 7.97
55 27.57
56 6.71
57 2.27
58 5.29
67 1.2
68 1.24
69 7.04
70 2.14
71 3
72 2.61
73 7.57
81 5.23
82 7.24
83 2.51
84 4.66
85 2.91
95 1.08
96 5.71
97 2.58
98 0.94
99 20.81
100 54.52
101 3.33
109 12.26
124 6.68
127 16.29
128 1.32
142 14.46
143 1.36

$$$$

     RDKit          2D

  7  7  0  0  0  0  0  0  0  0999 V2000
   -0.7500    1.7300    0.0000 C   0  0  0  0  0  0  0  0  0  0  0  0
    0.7500    1.7300    0.0000 C   0  0  0  0  0  0  0  0  0  0  0  0
   -1.6900    0.5600    0.0000 C   0  0  0  0  0  0  0  0  0  0  0  0
    1.6900    0.5600    0.0000 C   0  0  0  0  0  0  0  0  0  0  0  0
   -1.3500   -0.9100    0.0000 C   0  0  0  0  0  0  0  0  0  0  0  0
    1.3500   -0.9100    0.0000 C   0  0  0  0  0  0  0  0  0  0  0  0
   -0.0000   -1.5600    0.0000 N   0  0  0  0  0  0  0  0  0  0  0  0
  2  1  1  0
  3  1  1  0
  4  2  1  0
  5  3  1  0
  6  4  1  0
  7  5  1  0
  7  6  1  0
M  END
>  <NAME>  (2917) 
HEXAMETHYLENEIMINE

>  <SYNONYMS>  (2917) 
HOMOPIPERIDINE

>  <SPECTRUM TYPE>  (2917) 
MS1

>  <INSTRUMENT TYPE>  (2917) 
EI-B

>  <INSTRUMENT>  (2917) 
HITACHI M-60

>  <ION MODE>  (2917) 
P

>  <INCHIKEY>  (2917) 
ZSIQJIWKELUFRJ-UHFFFAOYSA-N

>  <FORMULA>  (2917) 
C6H13N

>  <EXACT MASS>  (2917) 
99.10479941599999

>  <MW>  (2917) 
99

>  <ID>  (2917) 
JP008275

>  <CONTRIBUTOR>  (2917) 
University of Tokyo Team, {Faculty of Engineering, University of Tokyo

>  <COMMENT>  (2917) 
SMILES=C(C1)CCNCC1
cas=111-49-9
InChI=InChI=1S/C6H13N/c1-2-4-6-7-5-3-1/h7H,1-6H2
computed SMILES=N1CCCCCC1
accession=JP008275
date=2016.01.19 (Created 2008.10.21, modified 2011.05.06)
author=UBE SCIENTIFIC ANALYSIS LABORATORY
license=CC BY-NC-SA
exact mass=99.1048
ionization energy=70 eV
ion type=[M]+*
computed spectral entropy=2.8077375480324007
computed normalized entropy=0.8426066105662803
SPLASH=splash10-0006-9000000000-067bbf386321375590e7
submitter=submitter = University of Tokyo Team (Faculty of Engineering, University of Tokyo)
MoNA Rating=3.75

>  <NUM PEAKS>  (2917) 
28

>  <MASS SPECTRAL PEAKS>  (2917) 
15 6.84
18 1.32
26 2.76
27 21.67
28 37.42
29 14.82
30 58.95
39 22.87
40 3.88
41 38
42 34.88
43 99.99
44 36.3
53 2.36
54 2.97
55 9.54
56 56.1
57 44.96
58 1.34
67 1.54
68 5.38
69 2.7
70 92.28
71 8
84 10.14
98 16.89
99 45.06
100 8.14

$$$$

     RDKit          2D

 10 10  0  0  0  0  0  0  0  0999 V2000
    2.5989    1.8302    0.0000 C   0  0  0  0  0  0  0  0  0  0  0  0
   -2.5989   -1.1702    0.0000 C   0  0  0  0  0  0  0  0  0  0  0  0
   -1.3000    1.0800    0.0000 C   0  0  0  0  0  0  0  0  0  0  0  0
    1.3000    1.0800    0.0000 C   0  0  0  0  0  0  0  0  0  0  0  0
   -1.3000   -0.4200    0.0000 C   0  0  0  0  0  0  0  0  0  0  0  0
   -0.0000   -1.1700    0.0000 C   0  0  0  0  0  0  0  0  0  0  0  0
   -3.8978   -1.9204    0.0000 N   0  0  0  0  0  0  0  0  0  0  0  0
   -0.0000   -2.6700    0.0000 N   0  0  0  0  0  0  0  0  0  0  0  0
    0.0000    1.8300    0.0000 N   0  0  0  0  0  0  0  0  0  0  0  0
    1.3000   -0.4200    0.0000 N   0  0  0  0  0  0  0  0  0  0  0  0
  4  1  1  0
  5  2  1  0
  5  3  2  0
  6  5  1  0
  7  2  3  0
  8  6  2  0
  9  3  1  0
  9  4  1  0
 10  4  2  0
 10  6  1  0
M  END
>  <NAME>  (2918) 
4-AMINO-5-CYANO-2-METHYLPYRIMIDINE

>  <SYNONYMS>  (2918) 


>  <SPECTRUM TYPE>  (2918) 
MS1

>  <INSTRUMENT TYPE>  (2918) 
EI-B

>  <INSTRUMENT>  (2918) 
HITACHI M-60

>  <ION MODE>  (2918) 
P

>  <INCHIKEY>  (2918) 
YBPNIILOUYAGIF-UHFFFAOYSA-N

>  <FORMULA>  (2918) 
C6H6N4

>  <EXACT MASS>  (2918) 
134.059246192

>  <MW>  (2918) 
134

>  <ID>  (2918) 
JP008274

>  <CONTRIBUTOR>  (2918) 
University of Tokyo Team, {Faculty of Engineering, University of Tokyo

>  <COMMENT>  (2918) 
SMILES=N#Cc(c1)c(N)nc(C)n1
InChI=InChI=1S/C6H6N4/c1-4-9-3-5(2-7)6(8)10-4/h3H,1H3,(H2,8,9,10)
computed SMILES=N#CC1=CNC(=NC1=N)C
accession=JP008274
date=2016.01.19 (Created 2008.10.21, modified 2011.05.06)
author=UBE SCIENTIFIC ANALYSIS LABORATORY
license=CC BY-NC-SA
exact mass=134.05925
ionization energy=70 eV
ion type=[M]+*
computed spectral entropy=2.419234155298259
computed normalized entropy=0.7612313335275985
SPLASH=splash10-000x-9400000000-e1c3212ca954aab57480
submitter=submitter = University of Tokyo Team (Faculty of Engineering, University of Tokyo)
MoNA Rating=3.75

>  <NUM PEAKS>  (2918) 
24

>  <MASS SPECTRAL PEAKS>  (2918) 
15 6.5
27 3.64
28 10.06
38 3.57
39 6.52
40 5.51
41 9.58
42 45.94
43 5.42
51 8.15
52 5.83
53 1.46
65 6.37
66 31.73
67 6
91 2.24
92 12.32
93 3.05
94 73.05
95 4.64
106 0.93
107 4.38
134 99.99
135 10.72

$$$$

     RDKit          2D

  8  8  0  0  0  0  0  0  0  0999 V2000
    2.5989    1.5002    0.0000 C   0  0  0  0  0  0  0  0  0  0  0  0
   -1.3000   -0.7500    0.0000 C   0  0  0  0  0  0  0  0  0  0  0  0
   -1.3000    0.7500    0.0000 C   0  0  0  0  0  0  0  0  0  0  0  0
    1.3000    0.7500    0.0000 C   0  0  0  0  0  0  0  0  0  0  0  0
   -0.0000   -1.5000    0.0000 C   0  0  0  0  0  0  0  0  0  0  0  0
   -0.0000   -3.0000    0.0000 N   0  0  0  0  0  0  0  0  0  0  0  0
    0.0000    1.5000    0.0000 N   0  0  0  0  0  0  0  0  0  0  0  0
    1.3000   -0.7500    0.0000 N   0  0  0  0  0  0  0  0  0  0  0  0
  3  2  2  0
  4  1  1  0
  5  2  1  0
  6  5  2  0
  7  3  1  0
  7  4  2  0
  8  4  1  0
  8  5  1  0
M  END
>  <NAME>  (2919) 
4-AMINO-2-METHYLPYRIMIDINE

>  <SYNONYMS>  (2919) 


>  <SPECTRUM TYPE>  (2919) 
MS1

>  <INSTRUMENT TYPE>  (2919) 
EI-B

>  <INSTRUMENT>  (2919) 
HITACHI M-60

>  <ION MODE>  (2919) 
P

>  <INCHIKEY>  (2919) 
GKVDLTTVBNOGNJ-UHFFFAOYSA-N

>  <FORMULA>  (2919) 
C5H7N3

>  <EXACT MASS>  (2919) 
109.06399722399999

>  <MW>  (2919) 
109

>  <ID>  (2919) 
JP008273

>  <CONTRIBUTOR>  (2919) 
University of Tokyo Team, {Faculty of Engineering, University of Tokyo

>  <COMMENT>  (2919) 
SMILES=Cc(n1)nc(N)cc1
InChI=InChI=1S/C5H7N3/c1-4-7-3-2-5(6)8-4/h2-3H,1H3,(H2,6,7,8)
computed SMILES=N=C1C=CN=C(N1)C
accession=JP008273
date=2016.01.19 (Created 2008.10.21, modified 2011.05.06)
author=UBE SCIENTIFIC ANALYSIS LABORATORY
license=CC BY-NC-SA
exact mass=109.064
ionization energy=70 eV
ion type=[M]+*
computed spectral entropy=2.3538053241793038
computed normalized entropy=0.7506967521168889
SPLASH=splash10-052f-9400000000-8a82a096f9c976930777
submitter=submitter = University of Tokyo Team (Faculty of Engineering, University of Tokyo)
MoNA Rating=3.75

>  <NUM PEAKS>  (2919) 
23

>  <MASS SPECTRAL PEAKS>  (2919) 
14 1.29
15 5.53
26 4.4
27 1.87
28 6.42
38 1.3
39 3.43
40 19.2
41 62.88
42 37.74
43 4.61
52 4.7
53 1.62
66 3.73
67 9.62
68 11.25
69 18.4
81 4.47
82 11.88
93 4.27
94 1.48
109 99.99
110 9.83

$$$$

     RDKit          2D

  5  5  0  0  0  0  0  0  0  0999 V2000
   -0.7500    1.0300    0.0000 C   0  0  0  0  0  0  0  0  0  0  0  0
    0.7500    1.0300    0.0000 C   0  0  0  0  0  0  0  0  0  0  0  0
   -1.2100   -0.3900    0.0000 C   0  0  0  0  0  0  0  0  0  0  0  0
    1.2100   -0.3900    0.0000 N   0  0  0  0  0  0  0  0  0  0  0  0
   -0.0000   -1.2800    0.0000 O   0  0  0  0  0  0  0  0  0  0  0  0
  2  1  1  0
  3  1  2  0
  4  2  2  0
  5  3  1  0
  5  4  1  0
M  END
>  <NAME>  (2920) 
ISOXAZOLE

>  <SYNONYMS>  (2920) 


>  <SPECTRUM TYPE>  (2920) 
MS1

>  <INSTRUMENT TYPE>  (2920) 
EI-B

>  <INSTRUMENT>  (2920) 
HITACHI M-60

>  <ION MODE>  (2920) 
P

>  <INCHIKEY>  (2920) 
CTAPFRYPJLPFDF-UHFFFAOYSA-N

>  <FORMULA>  (2920) 
C3H3NO

>  <EXACT MASS>  (2920) 
69.021463716

>  <MW>  (2920) 
69

>  <ID>  (2920) 
JP008272

>  <CONTRIBUTOR>  (2920) 
University of Tokyo Team, {Faculty of Engineering, University of Tokyo

>  <COMMENT>  (2920) 
SMILES=c(c1)con1
cas=288-14-2
InChI=InChI=1S/C3H3NO/c1-2-4-5-3-1/h1-3H
computed SMILES=N=1OC=CC1
accession=JP008272
date=2016.01.19 (Created 2008.10.21, modified 2011.05.06)
author=UBE SCIENTIFIC ANALYSIS LABORATORY
license=CC BY-NC-SA
exact mass=69.02146
ionization energy=70 eV
ion type=[M]+*
computed spectral entropy=2.4154337268022608
computed normalized entropy=0.8062915862426878
SPLASH=splash10-014l-9000000000-489fdc25b73cee13cb27
submitter=submitter = University of Tokyo Team (Faculty of Engineering, University of Tokyo)
MoNA Rating=3.75

>  <NUM PEAKS>  (2920) 
20

>  <MASS SPECTRAL PEAKS>  (2920) 
13 4.88
14 49.14
15 4.34
18 30.04
25 4.4
26 8.47
27 4.09
29 34.65
30 3.62
31 1.79
37 5.27
38 15.98
39 19.44
40 84.06
41 40.53
42 11.78
51 1.17
68 72.47
69 99.99
70 6.53

$$$$

     RDKit          2D

  8  8  0  0  0  0  0  0  0  0999 V2000
   -0.0000   -2.2000    0.0000 C   0  0  0  0  0  0  0  0  0  0  0  0
   -0.7400    1.5900    0.0000 C   0  0  0  0  0  0  0  0  0  0  0  0
    0.7400    1.5900    0.0000 C   0  0  0  0  0  0  0  0  0  0  0  0
   -1.2100    0.1700    0.0000 C   0  0  0  0  0  0  0  0  0  0  0  0
    1.2100    0.1700    0.0000 C   0  0  0  0  0  0  0  0  0  0  0  0
   -0.0000   -0.7000    0.0000 N   0  0  0  0  0  0  0  0  0  0  0  0
   -2.6367   -0.2931    0.0000 O   0  0  0  0  0  0  0  0  0  0  0  0
    2.6367   -0.2931    0.0000 O   0  0  0  0  0  0  0  0  0  0  0  0
  3  2  1  0
  4  2  1  0
  5  3  1  0
  6  1  1  0
  6  4  1  0
  6  5  1  0
  7  4  2  0
  8  5  2  0
M  END
>  <NAME>  (2921) 
N-METHYLSUCCINIMIDE

>  <SYNONYMS>  (2921) 


>  <SPECTRUM TYPE>  (2921) 
MS1

>  <INSTRUMENT TYPE>  (2921) 
EI-B

>  <INSTRUMENT>  (2921) 
HITACHI M-60

>  <ION MODE>  (2921) 
P

>  <INCHIKEY>  (2921) 
KYEACNNYFNZCST-UHFFFAOYSA-N

>  <FORMULA>  (2921) 
C5H7NO2

>  <EXACT MASS>  (2921) 
113.047678464

>  <MW>  (2921) 
113

>  <ID>  (2921) 
JP008271

>  <CONTRIBUTOR>  (2921) 
University of Tokyo Team, {Faculty of Engineering, University of Tokyo

>  <COMMENT>  (2921) 
SMILES=O=C(C1)N(C)C(=O)C1
cas=1121-07-9
InChI=InChI=1S/C5H7NO2/c1-6-4(7)2-3-5(6)8/h2-3H2,1H3
computed SMILES=O=C1N(C(=O)CC1)C
accession=JP008271
date=2016.01.19 (Created 2008.10.21, modified 2011.05.06)
author=UBE SCIENTIFIC ANALYSIS LABORATORY
license=CC BY-NC-SA
exact mass=113.04768
ionization energy=70 eV
ion type=[M]+*
computed spectral entropy=2.2474857479103845
computed normalized entropy=0.7502291735983726
SPLASH=splash10-056r-9100000000-b4324ada3b763bba303c
submitter=submitter = University of Tokyo Team (Faculty of Engineering, University of Tokyo)
MoNA Rating=3.75

>  <NUM PEAKS>  (2921) 
20

>  <MASS SPECTRAL PEAKS>  (2921) 
14 2.6
15 6.2
26 11.12
27 24.72
28 99.99
29 8.66
30 4.14
41 2.23
42 7.2
43 4.94
53 1.53
54 1.83
55 10.29
56 53.64
57 9.66
58 11.67
84 2.36
85 2.5
113 47.16
114 3.88

$$$$

     RDKit          2D

 15 16  0  0  0  0  0  0  0  0999 V2000
    2.5986    1.0700    0.0000 C   0  0  0  0  0  0  0  0  0  0  0  0
   -5.1957    1.0700    0.0000 C   0  0  0  0  0  0  0  0  0  0  0  0
    1.2990    0.3192    0.0000 C   0  0  0  0  0  0  0  0  0  0  0  0
    2.5990    2.5708    0.0000 C   0  0  0  0  0  0  0  0  0  0  0  0
   -5.1962    2.5708    0.0000 C   0  0  0  0  0  0  0  0  0  0  0  0
   -3.8962    0.3192    0.0000 C   0  0  0  0  0  0  0  0  0  0  0  0
    0.0000    1.0692    0.0000 C   0  0  0  0  0  0  0  0  0  0  0  0
    1.3000    3.3208    0.0000 C   0  0  0  0  0  0  0  0  0  0  0  0
   -3.8971    3.3208    0.0000 C   0  0  0  0  0  0  0  0  0  0  0  0
   -2.5971    1.0692    0.0000 C   0  0  0  0  0  0  0  0  0  0  0  0
    0.0005    2.5700    0.0000 C   0  0  0  0  0  0  0  0  0  0  0  0
   -2.5976    2.5700    0.0000 C   0  0  0  0  0  0  0  0  0  0  0  0
   -1.2986    4.8200    0.0000 N   0  0  0  0  0  0  0  0  0  0  0  0
   -1.2986    3.3200    0.0000 N   0  0  0  0  0  0  0  0  0  0  0  0
   -2.5976    5.5700    0.0000 O   0  0  0  0  0  0  0  0  0  0  0  0
  3  1  1  0
  4  1  1  0
  5  2  1  0
  6  2  1  0
  7  3  1  0
  8  4  1  0
  9  5  1  0
 10  6  1  0
 11  7  1  0
 11  8  1  0
 12  9  1  0
 12 10  1  0
 14 11  1  0
 14 12  1  0
 14 13  1  0
 15 13  2  0
M  END
>  <NAME>  (2922) 
N-NITROSODICYCLOHEXYLAMINE

>  <SYNONYMS>  (2922) 


>  <SPECTRUM TYPE>  (2922) 
MS1

>  <INSTRUMENT TYPE>  (2922) 
EI-B

>  <INSTRUMENT>  (2922) 
HITACHI M-60

>  <ION MODE>  (2922) 
P

>  <INCHIKEY>  (2922) 
CYMNKXLBEMEABS-UHFFFAOYSA-N

>  <FORMULA>  (2922) 
C12H22N2O

>  <EXACT MASS>  (2922) 
210.173213324

>  <MW>  (2922) 
210

>  <ID>  (2922) 
JP008270

>  <CONTRIBUTOR>  (2922) 
University of Tokyo Team, {Faculty of Engineering, University of Tokyo

>  <COMMENT>  (2922) 
SMILES=O=NN(C(C2)CCCC2)C(C1)CCCC1
InChI=InChI=1S/C12H22N2O/c15-13-14(11-7-3-1-4-8-11)12-9-5-2-6-10-12/h11-12H,1-10H2
computed SMILES=O=NN(C1CCCCC1)C2CCCCC2
accession=JP008270
date=2016.01.19 (Created 2008.10.21, modified 2011.05.06)
author=UBE SCIENTIFIC ANALYSIS LABORATORY
license=CC BY-NC-SA
exact mass=210.17321
ionization energy=70 eV
ion type=[M]+*
computed spectral entropy=2.915173020527192
computed normalized entropy=0.775064588657133
SPLASH=splash10-053r-9000000000-37a09fe61bffa1190002
submitter=submitter = University of Tokyo Team (Faculty of Engineering, University of Tokyo)
MoNA Rating=3.75

>  <NUM PEAKS>  (2922) 
43

>  <MASS SPECTRAL PEAKS>  (2922) 
27 9.22
28 4.76
29 11.78
30 7.58
36 2.69
39 10.72
40 1.46
41 43.46
42 5.54
43 6.73
44 12.48
47 5.88
53 5.37
54 11.67
55 79.38
56 11.39
57 1.11
67 13.72
68 3.31
69 2.91
70 2.19
79 2.42
80 2.23
81 10.1
82 12.2
83 99.99
84 5.82
94 1.12
96 1.5
97 0.47
98 14.69
99 1.34
110 1.61
111 3.46
125 1.09
128 6.87
129 16.46
130 1.03
138 1.42
180 0.7
193 2.18
210 11.32
211 1.69

$$$$

     RDKit          2D

  5  4  0  0  0  0  0  0  0  0999 V2000
   -3.8971    2.2500    0.0000 C   0  0  0  0  0  0  0  0  0  0  0  0
    1.2990    2.2500    0.0000 C   0  0  0  0  0  0  0  0  0  0  0  0
   -1.2990    2.2500    0.0000 C   0  0  0  0  0  0  0  0  0  0  0  0
   -2.5981    1.5000    0.0000 O   0  0  0  0  0  0  0  0  0  0  0  0
    0.0000    1.5000    0.0000 O   0  0  0  0  0  0  0  0  0  0  0  0
  4  1  1  0
  4  3  1  0
  5  2  1  0
  5  3  1  0
M  END
>  <NAME>  (2923) 
DIMETHOXYMETHANE

>  <SYNONYMS>  (2923) 
FORMALDEHYDE DIMETHYL ACETAL

>  <SPECTRUM TYPE>  (2923) 
MS1

>  <INSTRUMENT TYPE>  (2923) 
EI-B

>  <INSTRUMENT>  (2923) 
HITACHI M-60

>  <ION MODE>  (2923) 
P

>  <INCHIKEY>  (2923) 
NKDDWNXOKDWJAK-UHFFFAOYSA-N

>  <FORMULA>  (2923) 
C3H8O2

>  <EXACT MASS>  (2923) 
76.052429496

>  <MW>  (2923) 
76

>  <ID>  (2923) 
JP008269

>  <CONTRIBUTOR>  (2923) 
University of Tokyo Team, {Faculty of Engineering, University of Tokyo

>  <COMMENT>  (2923) 
SMILES=COCOC
cas=109-87-5
InChI=InChI=1S/C3H8O2/c1-4-3-5-2/h3H2,1-2H3
computed SMILES=O(C)COC
accession=JP008269
date=2016.01.19 (Created 2008.10.21, modified 2011.05.06)
author=UBE SCIENTIFIC ANALYSIS LABORATORY
license=CC BY-NC-SA
exact mass=76.05243
ionization energy=70 eV
ion type=[M]+*
computed spectral entropy=1.603125188803548
computed normalized entropy=0.66855513123919
SPLASH=splash10-002b-9000000000-33c704760b8187d8e6eb
submitter=submitter = University of Tokyo Team (Faculty of Engineering, University of Tokyo)
MoNA Rating=3.75

>  <NUM PEAKS>  (2923) 
11

>  <MASS SPECTRAL PEAKS>  (2923) 
14 3.35
15 33.79
29 28.71
30 1.21
31 8.28
44 2.35
45 99.99
46 1.64
47 3.34
75 40.84
76 1.11

$$$$

     RDKit          2D

  8  7  0  0  0  0  0  0  0  0999 V2000
    1.9486    3.3750    0.0000 C   0  0  0  0  0  0  0  0  0  0  0  0
   -5.8457    3.3750    0.0000 C   0  0  0  0  0  0  0  0  0  0  0  0
   -1.9486    5.6250    0.0000 C   0  0  0  0  0  0  0  0  0  0  0  0
    0.6495    4.1250    0.0000 C   0  0  0  0  0  0  0  0  0  0  0  0
   -4.5466    4.1250    0.0000 C   0  0  0  0  0  0  0  0  0  0  0  0
   -1.9486    4.1250    0.0000 C   0  0  0  0  0  0  0  0  0  0  0  0
   -0.6495    3.3750    0.0000 O   0  0  0  0  0  0  0  0  0  0  0  0
   -3.2476    3.3750    0.0000 O   0  0  0  0  0  0  0  0  0  0  0  0
  4  1  1  0
  5  2  1  0
  6  3  1  0
  7  4  1  0
  7  6  1  0
  8  5  1  0
  8  6  1  0
M  END
>  <NAME>  (2924) 
ACETAL

>  <SYNONYMS>  (2924) 
1,1-DIETHOXYETHANE

>  <SPECTRUM TYPE>  (2924) 
MS1

>  <INSTRUMENT TYPE>  (2924) 
EI-B

>  <INSTRUMENT>  (2924) 
HITACHI M-60

>  <ION MODE>  (2924) 
P

>  <INCHIKEY>  (2924) 
DHKHKXVYLBGOIT-UHFFFAOYSA-N

>  <FORMULA>  (2924) 
C6H14O2

>  <EXACT MASS>  (2924) 
118.099379688

>  <MW>  (2924) 
118

>  <ID>  (2924) 
JP008268

>  <CONTRIBUTOR>  (2924) 
University of Tokyo Team, {Faculty of Engineering, University of Tokyo

>  <COMMENT>  (2924) 
SMILES=CCOC(C)OCC
cas=105-57-7
InChI=InChI=1S/C6H14O2/c1-4-7-6(3)8-5-2/h6H,4-5H2,1-3H3
computed SMILES=O(CC)C(OCC)C
accession=JP008268
date=2016.01.19 (Created 2008.10.21, modified 2011.05.06)
author=UBE SCIENTIFIC ANALYSIS LABORATORY
license=CC BY-NC-SA
exact mass=118.09938
ionization energy=70 eV
ion type=[M]+*
computed spectral entropy=2.1587015537937675
computed normalized entropy=0.7090443897033525
SPLASH=splash10-0002-9000000000-6582cb6aae4d8aeab82a
submitter=submitter = University of Tokyo Team (Faculty of Engineering, University of Tokyo)
MoNA Rating=3.75

>  <NUM PEAKS>  (2924) 
21

>  <MASS SPECTRAL PEAKS>  (2924) 
14 1.17
15 5.65
19 3.49
26 1.96
27 11.56
28 3.94
29 21.99
31 4.11
42 1.37
43 16.74
44 4.5
45 99.99
46 2.02
47 17.54
61 3.55
73 48.09
74 2.29
75 4.76
103 13.01
104 0.61
117 0.24

$$$$

     RDKit          2D

  5  4  0  0  0  0  0  0  0  0999 V2000
   -3.8971    2.2500    0.0000 C   0  0  0  0  0  0  0  0  0  0  0  0
   -2.5981    1.5000    0.0000 C   0  0  0  0  0  0  0  0  0  0  0  0
    0.0000    1.5000    0.0000 C   0  0  0  0  0  0  0  0  0  0  0  0
    1.2990    2.2500    0.0000 O   0  0  0  0  0  0  0  0  0  0  0  0
   -1.2990    2.2500    0.0000 O   0  0  0  0  0  0  0  0  0  0  0  0
  2  1  1  0
  4  3  2  0
  5  2  1  0
  5  3  1  0
M  END
>  <NAME>  (2925) 
ETHYL FORMATE

>  <SYNONYMS>  (2925) 


>  <SPECTRUM TYPE>  (2925) 
MS1

>  <INSTRUMENT TYPE>  (2925) 
EI-B

>  <INSTRUMENT>  (2925) 
HITACHI M-60

>  <ION MODE>  (2925) 
P

>  <INCHIKEY>  (2925) 
WBJINCZRORDGAQ-UHFFFAOYSA-N

>  <FORMULA>  (2925) 
C3H6O2

>  <EXACT MASS>  (2925) 
74.036779432

>  <MW>  (2925) 
74

>  <ID>  (2925) 
JP008267

>  <CONTRIBUTOR>  (2925) 
University of Tokyo Team, {Faculty of Engineering, University of Tokyo

>  <COMMENT>  (2925) 
SMILES=CCOC=O
cas=109-94-4
InChI=InChI=1S/C3H6O2/c1-2-5-3-4/h3H,2H2,1H3
computed SMILES=O=COCC
accession=JP008267
date=2016.01.19 (Created 2008.10.21, modified 2011.05.06)
author=UBE SCIENTIFIC ANALYSIS LABORATORY
license=CC BY-NC-SA
exact mass=74.03678
ionization energy=70 eV
ion type=[M]+*
computed spectral entropy=2.14262851708076
computed normalized entropy=0.7727898840149217
SPLASH=splash10-0059-9000000000-eb53d7dda3275b010878
submitter=submitter = University of Tokyo Team (Faculty of Engineering, University of Tokyo)
MoNA Rating=3.75

>  <NUM PEAKS>  (2925) 
16

>  <MASS SPECTRAL PEAKS>  (2925) 
14 5.15
15 6.57
16 10.74
17 13.54
27 44.91
28 58.12
29 47.67
31 99.99
42 2.79
43 9.67
45 34.49
56 5.9
57 2.73
70 2.55
71 2.21
74 3.12

$$$$

     RDKit          2D

  5  4  0  0  0  0  0  0  0  0999 V2000
   -3.8971    2.2500    0.0000 C   0  0  0  0  0  0  0  0  0  0  0  0
   -2.5981    1.5000    0.0000 C   0  0  0  0  0  0  0  0  0  0  0  0
    0.0000    1.5000    0.0000 N   0  0  0  0  0  0  0  0  0  0  0  0
    1.2990    2.2500    0.0000 O   0  0  0  0  0  0  0  0  0  0  0  0
   -1.2990    2.2500    0.0000 O   0  0  0  0  0  0  0  0  0  0  0  0
  2  1  1  0
  4  3  2  0
  5  2  1  0
  5  3  1  0
M  END
>  <NAME>  (2926) 
ETHYL NITRITE

>  <SYNONYMS>  (2926) 


>  <SPECTRUM TYPE>  (2926) 
MS1

>  <INSTRUMENT TYPE>  (2926) 
EI-B

>  <INSTRUMENT>  (2926) 
HITACHI M-60

>  <ION MODE>  (2926) 
P

>  <INCHIKEY>  (2926) 
QQZWEECEMNQSTG-UHFFFAOYSA-N

>  <FORMULA>  (2926) 
C2H5NO2

>  <EXACT MASS>  (2926) 
75.0320284

>  <MW>  (2926) 
75

>  <ID>  (2926) 
JP008266

>  <CONTRIBUTOR>  (2926) 
University of Tokyo Team, {Faculty of Engineering, University of Tokyo

>  <COMMENT>  (2926) 
SMILES=CCON=O
cas=109-95-5
InChI=InChI=1S/C2H5NO2/c1-2-5-3-4/h2H2,1H3
computed SMILES=O=NOCC
accession=JP008266
date=2016.01.19 (Created 2008.10.21, modified 2011.05.06)
author=UBE SCIENTIFIC ANALYSIS LABORATORY
license=CC BY-NC-SA
exact mass=75.03203
ionization energy=70 eV
ion type=[M]+*
computed spectral entropy=1.9831007013726976
computed normalized entropy=0.715252386863454
SPLASH=splash10-003r-9000000000-02ab86d458672b7fbb29
submitter=submitter = University of Tokyo Team (Faculty of Engineering, University of Tokyo)
MoNA Rating=3.75

>  <NUM PEAKS>  (2926) 
16

>  <MASS SPECTRAL PEAKS>  (2926) 
14 6.4
15 17.43
16 0.93
26 3.3
27 15.85
28 3.53
29 48.15
30 99.99
31 8.18
32 0.96
42 1.51
43 10.52
44 1.33
45 10.69
46 1.49
60 32.34

$$$$

     RDKit          2D

  5  4  0  0  0  0  0  0  0  0999 V2000
    0.9743    1.3125    0.0000 C   0  0  0  0  0  0  0  0  0  0  0  0
   -1.6238    1.3125    0.0000 C   0  0  0  0  0  0  0  0  0  0  0  0
   -0.3248    2.0625    0.0000 C   0  0  0  0  0  0  0  0  0  0  0  0
   -2.9228    0.5625    0.0000 N   0  0  0  0  0  0  0  0  0  0  0  0
   -0.3248    3.5625    0.0000 O   0  0  0  0  0  0  0  0  0  0  0  0
  3  1  1  0
  3  2  1  0
  4  2  3  0
  5  3  1  0
M  END
>  <NAME>  (2927) 
ACETALDEHYDE CYANOHYDRIN

>  <SYNONYMS>  (2927) 


>  <SPECTRUM TYPE>  (2927) 
MS1

>  <INSTRUMENT TYPE>  (2927) 
EI-B

>  <INSTRUMENT>  (2927) 
HITACHI M-60

>  <ION MODE>  (2927) 
P

>  <INCHIKEY>  (2927) 
WOFDVDFSGLBFAC-UHFFFAOYSA-N

>  <FORMULA>  (2927) 
C3H5NO

>  <EXACT MASS>  (2927) 
71.03711378

>  <MW>  (2927) 
71

>  <ID>  (2927) 
JP008265

>  <CONTRIBUTOR>  (2927) 
University of Tokyo Team, {Faculty of Engineering, University of Tokyo

>  <COMMENT>  (2927) 
SMILES=N#CC(C)O
cas=78-97-7
InChI=InChI=1S/C3H5NO/c1-3(5)2-4/h3,5H,1H3
computed SMILES=N#CC(O)C
accession=JP008265
date=2016.01.19 (Created 2008.10.21, modified 2011.05.06)
author=UBE SCIENTIFIC ANALYSIS LABORATORY
license=CC BY-NC-SA
exact mass=71.03711
ionization energy=70 eV
ion type=[M]+*
computed spectral entropy=2.123034971469337
computed normalized entropy=0.7345196913405512
SPLASH=splash10-004i-9000000000-f6226616b0e6db1a9858
submitter=submitter = University of Tokyo Team (Faculty of Engineering, University of Tokyo)
MoNA Rating=3.75

>  <NUM PEAKS>  (2927) 
18

>  <MASS SPECTRAL PEAKS>  (2927) 
13 4.58
14 15.99
15 34.6
16 4.24
22 1.77
25 2.73
26 23.3
27 99.99
29 85.55
30 0.62
40 0.74
41 3.39
42 11.32
43 30.18
44 51.18
45 3.04
56 5.28
70 0.43

$$$$

     RDKit          2D

 12 12  0  0  0  0  0  0  0  0999 V2000
    3.5726    0.8821    0.0000 C   0  0  0  0  0  0  0  0  0  0  0  0
    3.5731    2.3829    0.0000 C   0  0  0  0  0  0  0  0  0  0  0  0
    2.2731    0.1313    0.0000 C   0  0  0  0  0  0  0  0  0  0  0  0
    2.2740    3.1329    0.0000 C   0  0  0  0  0  0  0  0  0  0  0  0
    0.9740    0.8813    0.0000 C   0  0  0  0  0  0  0  0  0  0  0  0
   -0.3245    3.1321    0.0000 C   0  0  0  0  0  0  0  0  0  0  0  0
   -4.2216    2.3821    0.0000 C   0  0  0  0  0  0  0  0  0  0  0  0
    0.9745    2.3821    0.0000 C   0  0  0  0  0  0  0  0  0  0  0  0
   -2.9226    3.1321    0.0000 C   0  0  0  0  0  0  0  0  0  0  0  0
   -1.6236    2.3821    0.0000 N   0  0  0  0  0  0  0  0  0  0  0  0
   -5.5207    3.1321    0.0000 O   0  0  0  0  0  0  0  0  0  0  0  0
   -2.9226    4.6321    0.0000 O   0  0  0  0  0  0  0  0  0  0  0  0
  2  1  2  0
  3  1  1  0
  4  2  1  0
  5  3  2  0
  8  4  2  0
  8  5  1  0
  8  6  1  0
  9  7  1  0
 10  6  1  0
 10  9  2  3
 11  7  1  0
 12  9  1  0
M  END
>  <NAME>  (2928) 
N-BENZYLGLYCOLAMIDE

>  <SYNONYMS>  (2928) 


>  <SPECTRUM TYPE>  (2928) 
MS1

>  <INSTRUMENT TYPE>  (2928) 
EI-B

>  <INSTRUMENT>  (2928) 
HITACHI M-60

>  <ION MODE>  (2928) 
P

>  <INCHIKEY>  (2928) 
GUDMTEGDXVJZEE-UHFFFAOYSA-N

>  <FORMULA>  (2928) 
C9H11NO2

>  <EXACT MASS>  (2928) 
165.078978592

>  <MW>  (2928) 
165

>  <ID>  (2928) 
JP008264

>  <CONTRIBUTOR>  (2928) 
University of Tokyo Team, {Faculty of Engineering, University of Tokyo

>  <COMMENT>  (2928) 
SMILES=OCC(=O)NCc(c1)cccc1
InChI=InChI=1S/C9H11NO2/c11-7-9(12)10-6-8-4-2-1-3-5-8/h1-5,11H,6-7H2,(H,10,12)
computed SMILES=OC(=NCC=1C=CC=CC1)CO
accession=JP008264
date=2016.01.19 (Created 2008.10.21, modified 2011.05.06)
author=UBE SCIENTIFIC ANALYSIS LABORATORY
license=CC BY-NC-SA
exact mass=165.07898
ionization energy=70 eV
ion type=[M]+*
computed spectral entropy=2.6276010331706865
computed normalized entropy=0.7651749633017749
SPLASH=splash10-0006-9300000000-62703b86aff5dce1f179
submitter=submitter = University of Tokyo Team (Faculty of Engineering, University of Tokyo)
MoNA Rating=3.75

>  <NUM PEAKS>  (2928) 
31

>  <MASS SPECTRAL PEAKS>  (2928) 
28 8.39
29 4.04
30 6.87
31 18.73
39 6.09
41 1.68
42 1.1
50 2.87
51 7.69
52 1.7
60 1.73
63 2.39
65 11.81
74 1.36
77 7.91
78 4.31
79 6.12
89 2.32
90 1.39
91 99.99
92 19.38
104 7.02
106 12.01
107 4.81
118 5.77
119 5.52
146 1.85
147 4.11
149 0.54
165 28.45
166 2.78

$$$$

     RDKit          2D

  6  6  0  0  0  0  0  0  0  0999 V2000
   -0.7500    1.0300    0.0000 C   0  0  0  0  0  0  0  0  0  0  0  0
    0.7500    1.0300    0.0000 C   0  0  0  0  0  0  0  0  0  0  0  0
   -1.2100   -0.3900    0.0000 C   0  0  0  0  0  0  0  0  0  0  0  0
   -2.6377   -0.8500    0.0000 N   0  0  0  0  0  0  0  0  0  0  0  0
    1.2100   -0.3900    0.0000 N   0  0  0  0  0  0  0  0  0  0  0  0
   -0.0000   -1.2800    0.0000 O   0  0  0  0  0  0  0  0  0  0  0  0
  2  1  1  0
  3  1  2  0
  4  3  1  0
  5  2  2  0
  6  3  1  0
  6  5  1  0
M  END
>  <NAME>  (2929) 
5-AMINOISOXAZOLE

>  <SYNONYMS>  (2929) 


>  <SPECTRUM TYPE>  (2929) 
MS1

>  <INSTRUMENT TYPE>  (2929) 
EI-B

>  <INSTRUMENT>  (2929) 
HITACHI M-60

>  <ION MODE>  (2929) 
P

>  <INCHIKEY>  (2929) 
IAXWZYXUKABJAN-UHFFFAOYSA-N

>  <FORMULA>  (2929) 
C3H4N2O

>  <EXACT MASS>  (2929) 
84.032362748

>  <MW>  (2929) 
84

>  <ID>  (2929) 
JP008263

>  <CONTRIBUTOR>  (2929) 
University of Tokyo Team, {Faculty of Engineering, University of Tokyo

>  <COMMENT>  (2929) 
SMILES=Nc(c1)onc1
InChI=InChI=1S/C3H4N2O/c4-3-1-2-5-6-3/h1-2H,4H2
computed SMILES=N=1OC(N)=CC1
accession=JP008263
date=2016.01.19 (Created 2008.10.21, modified 2011.05.06)
author=UBE SCIENTIFIC ANALYSIS LABORATORY
license=CC BY-NC-SA
exact mass=84.03236
ionization energy=70 eV
ion type=[M]+*
computed spectral entropy=2.7557428261506955
computed normalized entropy=0.8102272573207651
SPLASH=splash10-002f-9000000000-d4a7e727d67cada9f463
submitter=submitter = University of Tokyo Team (Faculty of Engineering, University of Tokyo)
MoNA Rating=3.75

>  <NUM PEAKS>  (2929) 
30

>  <MASS SPECTRAL PEAKS>  (2929) 
16 10.02
17 3.29
25 3.13
26 9.97
27 14.28
28 59.91
29 65.76
30 7.96
38 12.09
39 21.12
40 65.57
41 97.4
42 9
43 6.29
44 76.21
51 2.87
52 15.39
53 12.32
54 2.27
55 1.34
56 6.16
57 11.08
66 2.15
67 10.68
68 48.16
69 1.42
70 2.82
84 99.99
85 15.39
86 3.48

$$$$

     RDKit          2D

 18 18  0  0  0  0  0  0  0  0999 V2000
   -4.8715    2.4373    0.0000 C   0  0  0  0  0  0  0  0  0  0  0  0
    5.5214    2.4376    0.0000 C   0  0  0  0  0  0  0  0  0  0  0  0
   -0.9743   -4.3137    0.0000 C   0  0  0  0  0  0  0  0  0  0  0  0
    0.3251    2.4382    0.0000 C   0  0  0  0  0  0  0  0  0  0  0  0
   -0.9749    0.1865    0.0000 C   0  0  0  0  0  0  0  0  0  0  0  0
    1.6236    0.1873    0.0000 C   0  0  0  0  0  0  0  0  0  0  0  0
   -0.9744    1.6873    0.0000 C   0  0  0  0  0  0  0  0  0  0  0  0
    1.6241    1.6882    0.0000 C   0  0  0  0  0  0  0  0  0  0  0  0
    0.3241   -0.5635    0.0000 C   0  0  0  0  0  0  0  0  0  0  0  0
   -2.2735    2.4373    0.0000 C   0  0  0  0  0  0  0  0  0  0  0  0
    2.9233    2.4380    0.0000 C   0  0  0  0  0  0  0  0  0  0  0  0
    0.3244   -2.0635    0.0000 C   0  0  0  0  0  0  0  0  0  0  0  0
   -2.2735    3.9373    0.0000 O   0  0  0  0  0  0  0  0  0  0  0  0
    2.9235    3.9380    0.0000 O   0  0  0  0  0  0  0  0  0  0  0  0
    1.6235   -2.8133    0.0000 O   0  0  0  0  0  0  0  0  0  0  0  0
   -3.5725    1.6873    0.0000 O   0  0  0  0  0  0  0  0  0  0  0  0
    4.2222    1.6878    0.0000 O   0  0  0  0  0  0  0  0  0  0  0  0
   -0.9745   -2.8137    0.0000 O   0  0  0  0  0  0  0  0  0  0  0  0
  7  4  2  0
  7  5  1  0
  8  4  1  0
  8  6  2  0
  9  5  2  0
  9  6  1  0
 10  7  1  0
 11  8  1  0
 12  9  1  0
 13 10  2  0
 14 11  2  0
 15 12  2  0
 16  1  1  0
 16 10  1  0
 17  2  1  0
 17 11  1  0
 18  3  1  0
 18 12  1  0
M  END
>  <NAME>  (2930) 
TRIMESIC ACID TRIMETHYL ESTER

>  <SYNONYMS>  (2930) 
1,3,5-BENZENETRICARBOXYLIC ACID TRIMETHYLESTER

>  <SPECTRUM TYPE>  (2930) 
MS1

>  <INSTRUMENT TYPE>  (2930) 
EI-B

>  <INSTRUMENT>  (2930) 
HITACHI M-60

>  <ION MODE>  (2930) 
P

>  <INCHIKEY>  (2930) 
RGCHNYAILFZUPL-UHFFFAOYSA-N

>  <FORMULA>  (2930) 
C12H12O6

>  <EXACT MASS>  (2930) 
252.06338810399998

>  <MW>  (2930) 
252

>  <ID>  (2930) 
JP008262

>  <CONTRIBUTOR>  (2930) 
University of Tokyo Team, {Faculty of Engineering, University of Tokyo

>  <COMMENT>  (2930) 
SMILES=COC(=O)c(c1)cc(C(=O)OC)cc(C(=O)OC)1
cas=2672-58-4
InChI=InChI=1S/C12H12O6/c1-16-10(13)7-4-8(11(14)17-2)6-9(5-7)12(15)18-3/h4-6H,1-3H3
computed SMILES=O=C(OC)C=1C=C(C=C(C1)C(=O)OC)C(=O)OC
accession=JP008262
date=2016.01.19 (Created 2008.10.21, modified 2011.05.06)
author=UBE SCIENTIFIC ANALYSIS LABORATORY
license=CC BY-NC-SA
exact mass=252.06339
ionization energy=70 eV
ion type=[M]+*
computed spectral entropy=2.7081443446590923
computed normalized entropy=0.7617100485865204
SPLASH=splash10-00di-3590000000-9c6acb858130c26c3237
submitter=submitter = University of Tokyo Team (Faculty of Engineering, University of Tokyo)
MoNA Rating=3.75

>  <NUM PEAKS>  (2930) 
35

>  <MASS SPECTRAL PEAKS>  (2930) 
15 13.64
29 1.2
51 1.1
59 5.1
63 2.7
74 9.04
75 19.64
76 2.8
77 2.12
91 1.14
95 1.7
102 6.83
103 3.28
119 3.48
120 1.03
133 7.53
134 9.28
135 1.94
147 11.86
148 1.22
161 8.99
162 4.93
163 1.97
165 1.57
177 1.07
178 3.06
193 21.05
194 2.95
207 4.38
221 99.99
222 13.32
223 1.72
251 2.28
252 24.76
253 3.6

$$$$

     RDKit          2D

 14 14  0  0  0  0  0  0  0  0999 V2000
   -3.5370    2.7954    0.0000 C   0  0  0  0  0  0  0  0  0  0  0  0
   -3.5374   -1.7051    0.0000 C   0  0  0  0  0  0  0  0  0  0  0  0
    1.6597   -0.2038    0.0000 C   0  0  0  0  0  0  0  0  0  0  0  0
    0.3606    0.5462    0.0000 C   0  0  0  0  0  0  0  0  0  0  0  0
    0.3597   -2.4555    0.0000 C   0  0  0  0  0  0  0  0  0  0  0  0
    2.9582   -2.4546    0.0000 C   0  0  0  0  0  0  0  0  0  0  0  0
   -2.2379    2.0454    0.0000 C   0  0  0  0  0  0  0  0  0  0  0  0
    1.6592   -1.7046    0.0000 C   0  0  0  0  0  0  0  0  0  0  0  0
   -0.9389   -0.2046    0.0000 C   0  0  0  0  0  0  0  0  0  0  0  0
   -0.9394   -1.7055    0.0000 C   0  0  0  0  0  0  0  0  0  0  0  0
    4.2573   -1.7046    0.0000 O   0  0  0  0  0  0  0  0  0  0  0  0
   -0.9389    2.7954    0.0000 O   0  0  0  0  0  0  0  0  0  0  0  0
   -2.2385   -2.4553    0.0000 O   0  0  0  0  0  0  0  0  0  0  0  0
   -2.2379    0.5454    0.0000 O   0  0  0  0  0  0  0  0  0  0  0  0
  4  3  2  0
  7  1  1  0
  8  3  1  0
  8  5  2  0
  8  6  1  0
  9  4  1  0
 10  5  1  0
 10  9  2  0
 11  6  2  0
 12  7  2  0
 13  2  1  0
 13 10  1  0
 14  7  1  0
 14  9  1  0
M  END
>  <NAME>  (2931) 
ACETYLVANILLIN

>  <SYNONYMS>  (2931) 
4-ACETYLOXY-3-METHOXYBENZALDEHYDE

>  <SPECTRUM TYPE>  (2931) 
MS1

>  <INSTRUMENT TYPE>  (2931) 
EI-B

>  <INSTRUMENT>  (2931) 
HITACHI M-60

>  <ION MODE>  (2931) 
P

>  <INCHIKEY>  (2931) 
PZSJOBKRSVRODF-UHFFFAOYSA-N

>  <FORMULA>  (2931) 
C10H10O4

>  <EXACT MASS>  (2931) 
194.0579088

>  <MW>  (2931) 
194

>  <ID>  (2931) 
JP008261

>  <CONTRIBUTOR>  (2931) 
University of Tokyo Team, {Faculty of Engineering, University of Tokyo

>  <COMMENT>  (2931) 
SMILES=O=Cc(c1)cc(OC)c(OC(C)=O)c1
cas=881-68-5
InChI=InChI=1S/C10H10O4/c1-7(12)14-9-4-3-8(6-11)5-10(9)13-2/h3-6H,1-2H3
computed SMILES=O=CC1=CC=C(OC(=O)C)C(OC)=C1
accession=JP008261
date=2016.01.19 (Created 2008.10.21, modified 2011.05.06)
author=UBE SCIENTIFIC ANALYSIS LABORATORY
license=CC BY-NC-SA
exact mass=194.05791
ionization energy=70 eV
ion type=[M]+*
computed spectral entropy=2.443273519000977
computed normalized entropy=0.6872107812638282
SPLASH=splash10-0udi-5900000000-dafb7d592101c808382c
submitter=submitter = University of Tokyo Team (Faculty of Engineering, University of Tokyo)
MoNA Rating=3.75

>  <NUM PEAKS>  (2931) 
35

>  <MASS SPECTRAL PEAKS>  (2931) 
15 8.31
27 1.53
29 1.8
38 1.06
39 3.35
41 2.83
42 1.25
43 46.94
44 0.97
50 3.42
51 8.81
52 5.82
53 3.64
55 1.17
62 1.21
63 3.12
64 0.81
65 4.14
67 1.08
77 2.6
79 6.17
80 2.64
81 4.9
95 2.65
108 1.64
109 7.26
119 1.09
123 1.08
137 3.96
150 4.92
151 61.18
152 99.99
153 9.05
194 7.19
195 0.73

$$$$

     RDKit          2D

 22 22  0  0  0  0  0  0  0  0999 V2000
   -5.2000    0.0000    0.0000 C   0  0  0  0  0  0  0  0  0  0  0  0
   -5.2000    1.5000    0.0000 C   0  0  0  0  0  0  0  0  0  0  0  0
   -3.9000   -0.7500    0.0000 C   0  0  0  0  0  0  0  0  0  0  0  0
   -3.9000    2.2500    0.0000 C   0  0  0  0  0  0  0  0  0  0  0  0
   -2.6000    0.0000    0.0000 C   0  0  0  0  0  0  0  0  0  0  0  0
   -3.9000    3.7500    0.0000 C   0  0  0  0  0  0  0  0  0  0  0  0
    5.2000    1.5000    0.0000 C   0  0  0  0  0  0  0  0  0  0  0  0
    3.9000    2.2500    0.0000 C   0  0  0  0  0  0  0  0  0  0  0  0
   -1.3000   -0.7500    0.0000 C   0  0  0  0  0  0  0  0  0  0  0  0
   -2.6000    4.5000    0.0000 C   0  0  0  0  0  0  0  0  0  0  0  0
    5.2000   -0.0000    0.0000 C   0  0  0  0  0  0  0  0  0  0  0  0
    3.9000    3.7500    0.0000 C   0  0  0  0  0  0  0  0  0  0  0  0
   -0.0000   -0.0000    0.0000 C   0  0  0  0  0  0  0  0  0  0  0  0
   -1.3000    3.7500    0.0000 C   0  0  0  0  0  0  0  0  0  0  0  0
    3.9000   -0.7500    0.0000 C   0  0  0  0  0  0  0  0  0  0  0  0
    2.6000    4.5000    0.0000 C   0  0  0  0  0  0  0  0  0  0  0  0
    1.3000   -0.7500    0.0000 C   0  0  0  0  0  0  0  0  0  0  0  0
    0.0000    4.5000    0.0000 C   0  0  0  0  0  0  0  0  0  0  0  0
    1.3000   -2.2500    0.0000 O   0  0  0  0  0  0  0  0  0  0  0  0
    0.0000    6.0000    0.0000 O   0  0  0  0  0  0  0  0  0  0  0  0
    2.6000   -0.0000    0.0000 O   0  0  0  0  0  0  0  0  0  0  0  0
    1.3000    3.7500    0.0000 O   0  0  0  0  0  0  0  0  0  0  0  0
  2  1  1  0
  3  1  1  0
  4  2  1  0
  5  3  1  0
  6  4  1  0
  8  7  1  0
  9  5  1  0
 10  6  1  0
 11  7  1  0
 12  8  1  0
 13  9  1  0
 14 10  1  0
 15 11  1  0
 16 12  1  0
 17 13  1  0
 18 14  1  0
 19 17  2  0
 20 18  2  0
 21 15  1  0
 21 17  1  0
 22 16  1  0
 22 18  1  0
M  END
>  <NAME>  (2932) 
HEXANEDIOL DODECANEDIOATE

>  <SYNONYMS>  (2932) 
2,9-DIOXACYCLOICOSAN-1,10-DIONE

>  <SPECTRUM TYPE>  (2932) 
MS1

>  <INSTRUMENT TYPE>  (2932) 
EI-B

>  <INSTRUMENT>  (2932) 
HITACHI M-60

>  <ION MODE>  (2932) 
P

>  <INCHIKEY>  (2932) 
VPNRJIKJACGVJW-UHFFFAOYSA-N

>  <FORMULA>  (2932) 
C18H32O4

>  <EXACT MASS>  (2932) 
312.230059504

>  <MW>  (2932) 
312

>  <ID>  (2932) 
JP008260

>  <CONTRIBUTOR>  (2932) 
University of Tokyo Team, {Faculty of Engineering, University of Tokyo

>  <COMMENT>  (2932) 
SMILES=O=C(C1)OCCCCCCOC(=O)CCCCCCCCC1
InChI=InChI=1S/C18H32O4/c19-17-13-9-5-3-1-2-4-6-10-14-18(20)22-16-12-8-7-11-15-21-17/h1-16H2
computed SMILES=O=C1OCCCCCCOC(=O)CCCCCCCCCC1
accession=JP008260
date=2016.01.19 (Created 2008.10.21, modified 2011.05.06)
author=UBE SCIENTIFIC ANALYSIS LABORATORY
license=CC BY-NC-SA
exact mass=312.23006
ionization energy=70 eV
ion type=[M]+*
computed spectral entropy=3.8586057674169574
computed normalized entropy=0.8415775652427907
SPLASH=splash10-053u-9200000000-b019585061d054bdbb62
submitter=submitter = University of Tokyo Team (Faculty of Engineering, University of Tokyo)
MoNA Rating=3.75

>  <NUM PEAKS>  (2932) 
98

>  <MASS SPECTRAL PEAKS>  (2932) 
17 2.92
27 9.23
28 2.43
29 19.1
31 2.18
39 10.47
40 1.64
41 61.51
42 23.56
43 27.88
44 1.39
45 4.13
53 6.33
54 25.7
55 99.99
56 14.22
57 10.79
58 5.01
59 2.78
60 3.89
67 26.06
68 8.2
69 26.1
70 7.56
71 9.86
72 1.18
73 7.12
79 3.12
80 2.43
81 16.82
82 65.75
83 51.66
84 27.72
85 8.72
86 1.32
87 1.64
91 1.62
93 3.72
94 3.32
95 5.27
96 5.92
97 14.64
98 45.52
99 14.61
100 3.4
101 14.9
105 1.67
107 2.28
108 2.65
109 5.69
110 3.34
111 9.29
112 18.66
113 3.45
114 2.75
115 7.43
119 2.22
121 1.49
123 4.48
124 3.25
125 6.64
126 2.05
127 2.51
129 8.03
133 2.08
134 2.01
135 6.94
137 2.06
138 1.61
139 1.19
141 1.06
142 3.84
143 2.11
147 1.63
148 1.36
149 5.17
150 1.23
151 1.57
152 19.6
153 5.52
155 1.46
161 1.97
165 1.23
166 5.58
167 3.57
168 1.87
193 1.09
194 5.66
195 2.71
210 1.1
213 36.39
214 5.26
215 4.33
229 8.47
230 1.09
265 7.34
266 1.22
312 1.85

$$$$

     RDKit          2D

 12 13  0  0  0  0  0  0  0  0999 V2000
   -2.6000   -0.7500    0.0000 C   0  0  0  0  0  0  0  0  0  0  0  0
   -1.3000   -1.5000    0.0000 C   0  0  0  0  0  0  0  0  0  0  0  0
   -1.3000    1.5000    0.0000 C   0  0  0  0  0  0  0  0  0  0  0  0
    2.6000    0.7500    0.0000 C   0  0  0  0  0  0  0  0  0  0  0  0
   -2.6000    0.7500    0.0000 C   0  0  0  0  0  0  0  0  0  0  0  0
    0.0000   -0.7500    0.0000 C   0  0  0  0  0  0  0  0  0  0  0  0
    0.0000    0.7500    0.0000 C   0  0  0  0  0  0  0  0  0  0  0  0
    1.3000   -1.5000    0.0000 C   0  0  0  0  0  0  0  0  0  0  0  0
   -3.8989    1.5002    0.0000 Cl  0  0  0  0  0  0  0  0  0  0  0  0
    1.3000    1.5000    0.0000 N   0  0  0  0  0  0  0  0  0  0  0  0
    2.6000   -0.7500    0.0000 N   0  0  0  0  0  0  0  0  0  0  0  0
    1.3000   -3.0000    0.0000 O   0  0  0  0  0  0  0  0  0  0  0  0
  2  1  2  0
  5  1  1  0
  5  3  2  0
  6  2  1  0
  7  3  1  0
  7  6  2  0
  8  6  1  0
  9  5  1  0
 10  4  2  0
 10  7  1  0
 11  4  1  0
 11  8  2  0
 12  8  1  0
M  END
>  <NAME>  (2933) 
7-CHLOR0-4-HYDROXYBENZOPYLIMIDINE

>  <SYNONYMS>  (2933) 


>  <SPECTRUM TYPE>  (2933) 
MS1

>  <INSTRUMENT TYPE>  (2933) 
EI-B

>  <INSTRUMENT>  (2933) 
HITACHI M-60

>  <ION MODE>  (2933) 
P

>  <INCHIKEY>  (2933) 
PMLONMIODRHERC-UHFFFAOYSA-N

>  <FORMULA>  (2933) 
C8H5ClN2O

>  <EXACT MASS>  (2933) 
180.00904046

>  <MW>  (2933) 
180

>  <ID>  (2933) 
JP008259

>  <CONTRIBUTOR>  (2933) 
University of Tokyo Team, {Faculty of Engineering, University of Tokyo

>  <COMMENT>  (2933) 
SMILES=Oc(n2)c(c1)c(nc2)cc(Cl)c1
InChI=InChI=1S/C8H5ClN2O/c9-5-1-2-6-7(3-5)10-4-11-8(6)12/h1-4H,(H,10,11,12)
computed SMILES=ClC=1C=CC=2C(O)=NC=NC2C1
accession=JP008259
date=2016.01.19 (Created 2008.10.21, modified 2011.05.06)
author=UBE SCIENTIFIC ANALYSIS LABORATORY
license=CC BY-NC-SA
exact mass=180.00904
ionization energy=70 eV
ion type=[M]+*
computed spectral entropy=3.1428685617259595
computed normalized entropy=0.8075574720784866
SPLASH=splash10-001i-3900000000-b8eadd67b9da1ad59b5b
submitter=submitter = University of Tokyo Team (Faculty of Engineering, University of Tokyo)
MoNA Rating=3.75

>  <NUM PEAKS>  (2933) 
49

>  <MASS SPECTRAL PEAKS>  (2933) 
28 4.21
29 1.13
37 3.88
38 4.42
39 2.42
45 1.14
49 1.84
50 3.77
52 1.71
53 1.17
61 3.87
62 8.71
63 13.78
64 3.57
73 6.2
74 6.33
75 7.29
76 5.69
77 1.55
87 1.56
88 3.05
89 2.95
90 9.26
91 1.25
97 1.84
98 4.52
99 1.19
100 1.71
110 3.12
116 0.98
117 8.14
118 2.57
124 13.69
125 7.18
126 17.21
127 3.15
128 4.29
145 9.5
151 3.18
152 10.99
153 14.5
154 5.02
155 4.48
178 1.77
179 37.19
180 99.99
181 21.02
182 34.27
183 3.23

$$$$

     RDKit          2D

 12 13  0  0  0  0  0  0  0  0999 V2000
   -2.6000   -0.7500    0.0000 C   0  0  0  0  0  0  0  0  0  0  0  0
   -1.3000   -1.5000    0.0000 C   0  0  0  0  0  0  0  0  0  0  0  0
   -1.3000    1.5000    0.0000 C   0  0  0  0  0  0  0  0  0  0  0  0
    2.6000    0.7500    0.0000 C   0  0  0  0  0  0  0  0  0  0  0  0
   -2.6000    0.7500    0.0000 C   0  0  0  0  0  0  0  0  0  0  0  0
    0.0000   -0.7500    0.0000 C   0  0  0  0  0  0  0  0  0  0  0  0
    0.0000    0.7500    0.0000 C   0  0  0  0  0  0  0  0  0  0  0  0
    1.3000   -1.5000    0.0000 C   0  0  0  0  0  0  0  0  0  0  0  0
   -3.8989    1.5002    0.0000 Cl  0  0  0  0  0  0  0  0  0  0  0  0
    1.3000   -3.0000    0.0000 Cl  0  0  0  0  0  0  0  0  0  0  0  0
    1.3000    1.5000    0.0000 N   0  0  0  0  0  0  0  0  0  0  0  0
    2.6000   -0.7500    0.0000 N   0  0  0  0  0  0  0  0  0  0  0  0
  2  1  2  0
  5  1  1  0
  5  3  2  0
  6  2  1  0
  7  3  1  0
  7  6  2  0
  8  6  1  0
  9  5  1  0
 10  8  1  0
 11  4  2  0
 11  7  1  0
 12  4  1  0
 12  8  2  0
M  END
>  <NAME>  (2934) 
4,7-DICHLOROBENZOPYLIMIDINE

>  <SYNONYMS>  (2934) 


>  <SPECTRUM TYPE>  (2934) 
MS1

>  <INSTRUMENT TYPE>  (2934) 
EI-B

>  <INSTRUMENT>  (2934) 
HITACHI M-60

>  <ION MODE>  (2934) 
P

>  <INCHIKEY>  (2934) 
FDPHWQSGEWRZOL-UHFFFAOYSA-N

>  <FORMULA>  (2934) 
C8H4Cl2N2

>  <EXACT MASS>  (2934) 
197.975153488

>  <MW>  (2934) 
198

>  <ID>  (2934) 
JP008258

>  <CONTRIBUTOR>  (2934) 
University of Tokyo Team, {Faculty of Engineering, University of Tokyo

>  <COMMENT>  (2934) 
SMILES=Clc(c2)cc(n1)c(c2)c(Cl)nc1
InChI=InChI=1S/C8H4Cl2N2/c9-5-1-2-6-7(3-5)11-4-12-8(6)10/h1-4H
computed SMILES=ClC=1C=CC=2C(Cl)=NC=NC2C1
accession=JP008258
date=2016.01.19 (Created 2008.10.21, modified 2011.05.06)
author=UBE SCIENTIFIC ANALYSIS LABORATORY
license=CC BY-NC-SA
exact mass=197.97515
ionization energy=70 eV
ion type=[M]+*
computed spectral entropy=2.9491118190805365
computed normalized entropy=0.7840879847832086
SPLASH=splash10-0ik9-3910000000-0b8a100bfc249caa2905
submitter=submitter = University of Tokyo Team (Faculty of Engineering, University of Tokyo)
MoNA Rating=3.75

>  <NUM PEAKS>  (2934) 
43

>  <MASS SPECTRAL PEAKS>  (2934) 
36 1.29
37 4.34
38 2.56
49 2.59
50 15.84
51 3.26
61 3.01
62 3.2
63 2.52
64 4.31
72 1.86
73 4.71
74 9.15
75 13.27
76 4.12
81 8.22
83 2.64
84 2.37
85 3.22
86 2.42
87 1.33
98 1.01
99 9.03
100 25.3
101 5.97
109 3.94
110 2.33
111 1.29
127 1.12
134 1.2
135 1.17
136 23.79
137 2.45
138 7.2
163 99.99
164 9.13
165 29.86
166 2.88
198 49.69
199 5.22
200 32.56
201 3.19
202 5.54

$$$$

     RDKit          2D

 16 17  0  0  0  0  0  0  0  0999 V2000
    4.8887    1.6383    0.0000 C   0  0  0  0  0  0  0  0  0  0  0  0
    4.8891    3.1391    0.0000 C   0  0  0  0  0  0  0  0  0  0  0  0
    3.5891    0.8875    0.0000 C   0  0  0  0  0  0  0  0  0  0  0  0
    3.5901    3.8891    0.0000 C   0  0  0  0  0  0  0  0  0  0  0  0
    2.2901    1.6375    0.0000 C   0  0  0  0  0  0  0  0  0  0  0  0
   -2.8978    6.1680    0.0000 C   0  0  0  0  0  0  0  0  0  0  0  0
   -4.2296    3.9541    0.0000 C   0  0  0  0  0  0  0  0  0  0  0  0
   -1.6193    5.4326    0.0000 C   0  0  0  0  0  0  0  0  0  0  0  0
   -2.9117    3.1491    0.0000 C   0  0  0  0  0  0  0  0  0  0  0  0
   -5.4920    6.1958    0.0000 C   0  0  0  0  0  0  0  0  0  0  0  0
    0.9915    3.8883    0.0000 C   0  0  0  0  0  0  0  0  0  0  0  0
   -4.2030    5.4288    0.0000 C   0  0  0  0  0  0  0  0  0  0  0  0
    2.2906    3.1383    0.0000 C   0  0  0  0  0  0  0  0  0  0  0  0
   -1.6065    3.8883    0.0000 C   0  0  0  0  0  0  0  0  0  0  0  0
   -6.8008    5.4630    0.0000 O   0  0  0  0  0  0  0  0  0  0  0  0
   -0.3075    3.1383    0.0000 O   0  0  0  0  0  0  0  0  0  0  0  0
  2  1  2  0
  3  1  1  0
  4  2  1  0
  5  3  2  0
  8  6  2  0
  9  7  1  0
 12  6  1  0
 12  7  2  0
 12 10  1  0
 13  4  2  0
 13  5  1  0
 13 11  1  0
 14  8  1  0
 14  9  2  0
 15 10  2  0
 16 11  1  0
 16 14  1  0
M  END
>  <NAME>  (2935) 
4-BENZYLOXYBENZALDEHYDE

>  <SYNONYMS>  (2935) 


>  <SPECTRUM TYPE>  (2935) 
MS1

>  <INSTRUMENT TYPE>  (2935) 
EI-B

>  <INSTRUMENT>  (2935) 
HITACHI M-60

>  <ION MODE>  (2935) 
P

>  <INCHIKEY>  (2935) 
ZVTWZSXLLMNMQC-UHFFFAOYSA-N

>  <FORMULA>  (2935) 
C14H12O2

>  <EXACT MASS>  (2935) 
212.083729624

>  <MW>  (2935) 
212

>  <ID>  (2935) 
JP008257

>  <CONTRIBUTOR>  (2935) 
University of Tokyo Team, {Faculty of Engineering, University of Tokyo

>  <COMMENT>  (2935) 
SMILES=O=Cc(c2)ccc(c2)OCc(c1)cccc1
cas=4397-53-9
InChI=InChI=1S/C14H12O2/c15-10-12-6-8-14(9-7-12)16-11-13-4-2-1-3-5-13/h1-10H,11H2
computed SMILES=O=CC1=CC=C(OCC=2C=CC=CC2)C=C1
accession=JP008257
date=2016.01.19 (Created 2008.10.21, modified 2011.05.06)
author=UBE SCIENTIFIC ANALYSIS LABORATORY
license=CC BY-NC-SA
exact mass=212.08373
ionization energy=70 eV
ion type=[M]+*
computed spectral entropy=1.104770145561586
computed normalized entropy=0.44459221261122195
SPLASH=splash10-0006-9000000000-8bbddd50a3b9e2c3790c
submitter=submitter = University of Tokyo Team (Faculty of Engineering, University of Tokyo)
MoNA Rating=3.75

>  <NUM PEAKS>  (2935) 
12

>  <MASS SPECTRAL PEAKS>  (2935) 
39 5.4
41 1.18
51 2.15
63 2.28
64 0.93
65 10.05
89 1.2
90 0.61
91 99.99
92 7.51
212 3.81
213 0.55

$$$$

     RDKit          2D

 15 15  0  0  0  0  0  0  0  0999 V2000
    5.2663    0.0452    0.0000 C   0  0  0  0  0  0  0  0  0  0  0  0
   -1.2296    3.7956    0.0000 C   0  0  0  0  0  0  0  0  0  0  0  0
    0.0690   -2.9558    0.0000 C   0  0  0  0  0  0  0  0  0  0  0  0
    1.3686   -2.2050    0.0000 C   0  0  0  0  0  0  0  0  0  0  0  0
   -1.2300   -2.2058    0.0000 C   0  0  0  0  0  0  0  0  0  0  0  0
    1.3690   -0.7042    0.0000 C   0  0  0  0  0  0  0  0  0  0  0  0
   -1.2295   -0.7050    0.0000 C   0  0  0  0  0  0  0  0  0  0  0  0
    0.0700    0.0458    0.0000 C   0  0  0  0  0  0  0  0  0  0  0  0
    2.6682    0.0456    0.0000 C   0  0  0  0  0  0  0  0  0  0  0  0
    0.0698    1.5458    0.0000 C   0  0  0  0  0  0  0  0  0  0  0  0
   -2.5286    0.0450    0.0000 O   0  0  0  0  0  0  0  0  0  0  0  0
    2.6684    1.5456    0.0000 O   0  0  0  0  0  0  0  0  0  0  0  0
    1.3687    2.2960    0.0000 O   0  0  0  0  0  0  0  0  0  0  0  0
    3.9671   -0.7046    0.0000 O   0  0  0  0  0  0  0  0  0  0  0  0
   -1.2294    2.2956    0.0000 O   0  0  0  0  0  0  0  0  0  0  0  0
  4  3  2  0
  5  3  1  0
  6  4  1  0
  7  5  2  0
  8  6  2  0
  8  7  1  0
  9  6  1  0
 10  8  1  0
 11  7  1  0
 12  9  2  0
 13 10  2  0
 14  1  1  0
 14  9  1  0
 15  2  1  0
 15 10  1  0
M  END
>  <NAME>  (2936) 
DIMETHYL 3-HYDROXYPHTHALATE

>  <SYNONYMS>  (2936) 


>  <SPECTRUM TYPE>  (2936) 
MS1

>  <INSTRUMENT TYPE>  (2936) 
EI-B

>  <INSTRUMENT>  (2936) 
HITACHI M-60

>  <ION MODE>  (2936) 
P

>  <INCHIKEY>  (2936) 
BQGDDMMXPRJQHZ-UHFFFAOYSA-N

>  <FORMULA>  (2936) 
C10H10O5

>  <EXACT MASS>  (2936) 
210.05282341999998

>  <MW>  (2936) 
210

>  <ID>  (2936) 
JP008256

>  <CONTRIBUTOR>  (2936) 
University of Tokyo Team, {Faculty of Engineering, University of Tokyo

>  <COMMENT>  (2936) 
SMILES=COC(=O)c(c1)c(C(=O)OC)c(O)cc1
InChI=InChI=1S/C10H10O5/c1-14-9(12)6-4-3-5-7(11)8(6)10(13)15-2/h3-5,11H,1-2H3
computed SMILES=O=C(OC)C=1C=CC=C(O)C1C(=O)OC
accession=JP008256
date=2016.01.19 (Created 2008.10.21, modified 2011.05.06)
author=UBE SCIENTIFIC ANALYSIS LABORATORY
license=CC BY-NC-SA
exact mass=210.05282
ionization energy=70 eV
ion type=[M]+*
computed spectral entropy=2.3240894929679916
computed normalized entropy=0.6833150894148389
SPLASH=splash10-004i-3910000000-3aeb05827c94a5ff1004
submitter=submitter = University of Tokyo Team (Faculty of Engineering, University of Tokyo)
MoNA Rating=3.75

>  <NUM PEAKS>  (2936) 
30

>  <MASS SPECTRAL PEAKS>  (2936) 
15 6.14
29 1.56
39 2.92
51 1.24
52 1.32
53 2.53
59 1.28
62 2.7
63 7.61
64 1.79
65 6.52
69 1.01
80 1.8
92 4.56
93 6.18
95 1.81
107 1.04
108 5.21
119 2.21
120 2.83
121 2.94
136 3.39
149 5.62
151 6.3
152 0.99
179 99.99
180 10.38
181 1.94
210 23.46
211 2.45

$$$$

     RDKit          2D

 11 12  0  0  0  0  0  0  0  0999 V2000
   -2.7000    0.7500    0.0000 C   0  0  0  0  0  0  0  0  0  0  0  0
   -2.7000   -0.7500    0.0000 C   0  0  0  0  0  0  0  0  0  0  0  0
   -1.4000    1.5000    0.0000 C   0  0  0  0  0  0  0  0  0  0  0  0
   -1.4000   -1.5000    0.0000 C   0  0  0  0  0  0  0  0  0  0  0  0
   -0.1000    0.7500    0.0000 C   0  0  0  0  0  0  0  0  0  0  0  0
   -0.1000   -0.7500    0.0000 C   0  0  0  0  0  0  0  0  0  0  0  0
    1.3200    1.2100    0.0000 C   0  0  0  0  0  0  0  0  0  0  0  0
    1.3200   -1.2100    0.0000 C   0  0  0  0  0  0  0  0  0  0  0  0
    1.7838    2.6365    0.0000 O   0  0  0  0  0  0  0  0  0  0  0  0
    1.7838   -2.6365    0.0000 O   0  0  0  0  0  0  0  0  0  0  0  0
    2.2000    0.0000    0.0000 O   0  0  0  0  0  0  0  0  0  0  0  0
  2  1  2  0
  3  1  1  0
  4  2  1  0
  5  3  2  0
  6  4  2  0
  6  5  1  0
  7  5  1  0
  8  6  1  0
  9  7  2  0
 10  8  2  0
 11  7  1  0
 11  8  1  0
M  END
>  <NAME>  (2937) 
PHTHALIC ANHYDRIDE

>  <SYNONYMS>  (2937) 


>  <SPECTRUM TYPE>  (2937) 
MS1

>  <INSTRUMENT TYPE>  (2937) 
EI-B

>  <INSTRUMENT>  (2937) 
HITACHI M-60

>  <ION MODE>  (2937) 
P

>  <INCHIKEY>  (2937) 
LGRFSURHDFAFJT-UHFFFAOYSA-N

>  <FORMULA>  (2937) 
C8H4O3

>  <EXACT MASS>  (2937) 
148.01604398799998

>  <MW>  (2937) 
148

>  <ID>  (2937) 
JP008255

>  <CONTRIBUTOR>  (2937) 
University of Tokyo Team, {Faculty of Engineering, University of Tokyo

>  <COMMENT>  (2937) 
SMILES=O=c(o1)c(c2)c(ccc2)c(=O)1
cas=85-44-9
InChI=InChI=1S/C8H4O3/c9-7-5-3-1-2-4-6(5)8(10)11-7/h1-4H
computed SMILES=O=C1OC(=O)C=2C=CC=CC12
accession=JP008255
date=2016.01.19 (Created 2008.10.21, modified 2011.05.06)
author=UBE SCIENTIFIC ANALYSIS LABORATORY
license=CC BY-NC-SA
exact mass=148.01604
ionization energy=70 eV
ion type=[M]+*
computed spectral entropy=2.325723047755056
computed normalized entropy=0.7524073456927886
SPLASH=splash10-0ufr-9500000000-68ab39d6cc551f8e0f9f
submitter=submitter = University of Tokyo Team (Faculty of Engineering, University of Tokyo)
MoNA Rating=3.75

>  <NUM PEAKS>  (2937) 
22

>  <MASS SPECTRAL PEAKS>  (2937) 
28 1.25
37 14.22
38 28.87
39 3.08
44 1.72
49 6.4
50 51.29
51 4.04
52 10.24
53 1.85
61 2.61
62 1.49
63 1.67
73 5.96
74 18.71
75 11.53
76 88.98
77 7.16
104 99.99
105 7.84
148 35.06
149 3.31

$$$$

     RDKit          2D

  7  6  0  0  0  0  0  0  0  0999 V2000
    1.2990    2.2500    0.0000 C   0  0  0  0  0  0  0  0  0  0  0  0
   -3.8971    2.2500    0.0000 C   0  0  0  0  0  0  0  0  0  0  0  0
    0.0000    3.0000    0.0000 C   0  0  0  0  0  0  0  0  0  0  0  0
   -2.5981    3.0000    0.0000 C   0  0  0  0  0  0  0  0  0  0  0  0
   -1.2990    0.7500    0.0000 N   0  0  0  0  0  0  0  0  0  0  0  0
   -1.2990    2.2500    0.0000 N   0  0  0  0  0  0  0  0  0  0  0  0
   -0.0000    0.0000    0.0000 O   0  0  0  0  0  0  0  0  0  0  0  0
  3  1  1  0
  4  2  1  0
  6  3  1  0
  6  4  1  0
  6  5  1  0
  7  5  2  0
M  END
>  <NAME>  (2938) 
DIETHYLNITROSAMINE

>  <SYNONYMS>  (2938) 
DIETHYLNITROSAMIDE

>  <SPECTRUM TYPE>  (2938) 
MS1

>  <INSTRUMENT TYPE>  (2938) 
EI-B

>  <INSTRUMENT>  (2938) 
HITACHI M-60

>  <ION MODE>  (2938) 
P

>  <INCHIKEY>  (2938) 
WBNQDOYYEUMPFS-UHFFFAOYSA-N

>  <FORMULA>  (2938) 
C4H10N2O

>  <EXACT MASS>  (2938) 
102.07931294

>  <MW>  (2938) 
102

>  <ID>  (2938) 
JP008254

>  <CONTRIBUTOR>  (2938) 
University of Tokyo Team, {Faculty of Engineering, University of Tokyo

>  <COMMENT>  (2938) 
SMILES=CCN(CC)N=O
cas=55-18-5
InChI=InChI=1S/C4H10N2O/c1-3-6(4-2)5-7/h3-4H2,1-2H3
computed SMILES=O=NN(CC)CC
accession=JP008254
date=2016.01.19 (Created 2008.10.21, modified 2011.05.06)
author=UBE SCIENTIFIC ANALYSIS LABORATORY
license=CC BY-NC-SA
exact mass=102.07931
ionization energy=70 eV
ion type=[M]+*
computed spectral entropy=2.5109130048189536
computed normalized entropy=0.7800589837670314
SPLASH=splash10-0kbf-9100000000-e299edc73489a6d92507
submitter=submitter = University of Tokyo Team (Faculty of Engineering, University of Tokyo)
MoNA Rating=3.75

>  <NUM PEAKS>  (2938) 
25

>  <MASS SPECTRAL PEAKS>  (2938) 
14 3.12
15 12.42
18 33.13
26 6.31
27 35.88
28 27.25
29 65.95
30 8.33
40 1.78
41 7.45
42 87.78
43 4.64
44 98.69
45 4.43
54 0.82
55 1.31
56 49.78
57 49.24
70 2.51
71 4.96
73 1.19
85 2.74
87 3.76
102 99.99
103 5.79

$$$$

     RDKit          2D

  8  7  0  0  0  0  0  0  0  0999 V2000
    1.9486    2.6250    0.0000 C   0  0  0  0  0  0  0  0  0  0  0  0
    0.6495    0.3750    0.0000 C   0  0  0  0  0  0  0  0  0  0  0  0
    0.6495    3.3750    0.0000 C   0  0  0  0  0  0  0  0  0  0  0  0
   -0.6495    1.1250    0.0000 C   0  0  0  0  0  0  0  0  0  0  0  0
   -1.9486    3.3750    0.0000 C   0  0  0  0  0  0  0  0  0  0  0  0
   -3.2476    2.6250    0.0000 C   0  0  0  0  0  0  0  0  0  0  0  0
   -0.6495    2.6250    0.0000 N   0  0  0  0  0  0  0  0  0  0  0  0
   -4.5466    3.3750    0.0000 O   0  0  0  0  0  0  0  0  0  0  0  0
  3  1  1  0
  4  2  1  0
  6  5  1  0
  7  3  1  0
  7  4  1  0
  7  5  1  0
  8  6  1  0
M  END
>  <NAME>  (2939) 
N,N-DIETHYLETHANOLAMINE

>  <SYNONYMS>  (2939) 
2-DIETHYLAMINOETHANOL

>  <SPECTRUM TYPE>  (2939) 
MS1

>  <INSTRUMENT TYPE>  (2939) 
EI-B

>  <INSTRUMENT>  (2939) 
HITACHI M-60

>  <ION MODE>  (2939) 
P

>  <INCHIKEY>  (2939) 
BFSVOASYOCHEOV-UHFFFAOYSA-N

>  <FORMULA>  (2939) 
C6H15NO

>  <EXACT MASS>  (2939) 
117.1153641

>  <MW>  (2939) 
117

>  <ID>  (2939) 
JP008253

>  <CONTRIBUTOR>  (2939) 
University of Tokyo Team, {Faculty of Engineering, University of Tokyo

>  <COMMENT>  (2939) 
SMILES=OCCN(CC)CC
cas=100-37-8
InChI=InChI=1S/C6H15NO/c1-3-7(4-2)5-6-8/h8H,3-6H2,1-2H3
computed SMILES=OCCN(CC)CC
accession=JP008253
date=2016.01.19 (Created 2008.10.21, modified 2011.05.06)
author=UBE SCIENTIFIC ANALYSIS LABORATORY
license=CC BY-NC-SA
exact mass=117.11536
ionization energy=70 eV
ion type=[M]+*
computed spectral entropy=2.399048039548654
computed normalized entropy=0.7279025440531325
SPLASH=splash10-000i-9000000000-4babed528318afee1202
submitter=submitter = University of Tokyo Team (Faculty of Engineering, University of Tokyo)
MoNA Rating=3.75

>  <NUM PEAKS>  (2939) 
27

>  <MASS SPECTRAL PEAKS>  (2939) 
15 3.26
17 1.3
27 8.98
28 10.78
29 13.28
30 38.09
31 2.56
39 2.05
41 2.35
42 9.8
43 3.14
44 6.04
45 5.84
56 8.17
57 1.72
58 39.65
59 1.77
60 1.02
70 2.03
71 1.28
72 3.62
86 99.99
87 6.28
88 1.65
102 6.53
116 2.91
117 4.18

$$$$

     RDKit          2D

  9  9  0  0  0  0  0  0  0  0999 V2000
    2.9228   -0.2425    0.0000 C   0  0  0  0  0  0  0  0  0  0  0  0
    2.9233    1.2583    0.0000 C   0  0  0  0  0  0  0  0  0  0  0  0
    1.6233   -0.9933    0.0000 C   0  0  0  0  0  0  0  0  0  0  0  0
    1.6243    2.0083    0.0000 C   0  0  0  0  0  0  0  0  0  0  0  0
    0.3243   -0.2433    0.0000 C   0  0  0  0  0  0  0  0  0  0  0  0
   -0.9743    2.0075    0.0000 C   0  0  0  0  0  0  0  0  0  0  0  0
   -2.2733    1.2575    0.0000 C   0  0  0  0  0  0  0  0  0  0  0  0
    0.3248    1.2575    0.0000 C   0  0  0  0  0  0  0  0  0  0  0  0
   -3.5724    2.0075    0.0000 N   0  0  0  0  0  0  0  0  0  0  0  0
  2  1  2  0
  3  1  1  0
  4  2  1  0
  5  3  2  0
  7  6  1  0
  8  4  2  0
  8  5  1  0
  8  6  1  0
  9  7  1  0
M  END
>  <NAME>  (2940) 
PHENETHYLAMINE

>  <SYNONYMS>  (2940) 
BETA-PHENYLETHYLAMINE

>  <SPECTRUM TYPE>  (2940) 
MS1

>  <INSTRUMENT TYPE>  (2940) 
EI-B

>  <INSTRUMENT>  (2940) 
HITACHI M-60

>  <ION MODE>  (2940) 
P

>  <INCHIKEY>  (2940) 
BHHGXPLMPWCGHP-UHFFFAOYSA-N

>  <FORMULA>  (2940) 
C8H11N

>  <EXACT MASS>  (2940) 
121.08914935199999

>  <MW>  (2940) 
121

>  <ID>  (2940) 
JP008252

>  <CONTRIBUTOR>  (2940) 
University of Tokyo Team, {Faculty of Engineering, University of Tokyo

>  <COMMENT>  (2940) 
SMILES=NCCc(c1)cccc1
cas=64-04-0
InChI=InChI=1S/C8H11N/c9-7-6-8-4-2-1-3-5-8/h1-5H,6-7,9H2
computed SMILES=NCCC=1C=CC=CC1
accession=JP008252
date=2016.01.19 (Created 2008.10.21, modified 2011.05.06)
author=UBE SCIENTIFIC ANALYSIS LABORATORY
license=CC BY-NC-SA
exact mass=121.08915
ionization energy=70 eV
ion type=[M]+*
computed spectral entropy=1.2585542318864429
computed normalized entropy=0.4647455321818612
SPLASH=splash10-001i-9000000000-5ba434a8565ec0014b6b
submitter=submitter = University of Tokyo Team (Faculty of Engineering, University of Tokyo)
MoNA Rating=3.75

>  <NUM PEAKS>  (2940) 
15

>  <MASS SPECTRAL PEAKS>  (2940) 
28 1.84
30 99.99
31 1.55
39 3.26
41 0.91
50 1.05
51 2.65
63 1.56
65 4.4
77 1.64
91 9.83
92 4.32
103 1.13
121 4.07
122 0.85

$$$$

     RDKit          2D

 13 13  0  0  0  0  0  0  0  0999 V2000
    3.2823   -3.0174    0.0000 C   0  0  0  0  0  0  0  0  0  0  0  0
    4.5818    0.7330    0.0000 C   0  0  0  0  0  0  0  0  0  0  0  0
   -0.6153   -0.7683    0.0000 C   0  0  0  0  0  0  0  0  0  0  0  0
    0.6838   -1.5183    0.0000 C   0  0  0  0  0  0  0  0  0  0  0  0
   -1.9138    1.4826    0.0000 C   0  0  0  0  0  0  0  0  0  0  0  0
   -3.2129    0.7326    0.0000 C   0  0  0  0  0  0  0  0  0  0  0  0
    0.6847    1.4834    0.0000 C   0  0  0  0  0  0  0  0  0  0  0  0
   -0.6148    0.7326    0.0000 C   0  0  0  0  0  0  0  0  0  0  0  0
    1.9833   -0.7674    0.0000 C   0  0  0  0  0  0  0  0  0  0  0  0
    1.9838    0.7334    0.0000 C   0  0  0  0  0  0  0  0  0  0  0  0
   -4.5119    1.4826    0.0000 N   0  0  0  0  0  0  0  0  0  0  0  0
    3.2823   -1.5174    0.0000 O   0  0  0  0  0  0  0  0  0  0  0  0
    3.2829    1.4832    0.0000 O   0  0  0  0  0  0  0  0  0  0  0  0
  4  3  2  0
  6  5  1  0
  8  3  1  0
  8  5  1  0
  8  7  2  0
  9  4  1  0
 10  7  1  0
 10  9  2  0
 11  6  1  0
 12  1  1  0
 12  9  1  0
 13  2  1  0
 13 10  1  0
M  END
>  <NAME>  (2941) 
2-(3,4-DIMETOXYPHENYL)ETHYLAMINE

>  <SYNONYMS>  (2941) 
HOMOVERATRYLAMINE

>  <SPECTRUM TYPE>  (2941) 
MS1

>  <INSTRUMENT TYPE>  (2941) 
EI-B

>  <INSTRUMENT>  (2941) 
HITACHI M-60

>  <ION MODE>  (2941) 
P

>  <INCHIKEY>  (2941) 
ANOUKFYBOAKOIR-UHFFFAOYSA-N

>  <FORMULA>  (2941) 
C10H15NO2

>  <EXACT MASS>  (2941) 
181.11027872

>  <MW>  (2941) 
181

>  <ID>  (2941) 
JP008251

>  <CONTRIBUTOR>  (2941) 
University of Tokyo Team, {Faculty of Engineering, University of Tokyo

>  <COMMENT>  (2941) 
cas=120-20-7
SMILES=NCCc(c1)cc(OC)c(OC)c1
InChI=InChI=1S/C10H15NO2/c1-12-9-4-3-8(5-6-11)7-10(9)13-2/h3-4,7H,5-6,11H2,1-2H3
computed SMILES=O(C1=CC=C(C=C1OC)CCN)C
accession=JP008251
date=2016.01.19 (Created 2008.10.21, modified 2011.05.06)
author=UBE SCIENTIFIC ANALYSIS LABORATORY
license=CC BY-NC-SA
exact mass=181.11028
ionization energy=70 eV
ion type=[M]+*
computed spectral entropy=2.873272559970624
computed normalized entropy=0.7344723065237094
SPLASH=splash10-0ue9-7900000000-120c686cfb57062addf9
submitter=submitter = University of Tokyo Team (Faculty of Engineering, University of Tokyo)
MoNA Rating=3.75

>  <NUM PEAKS>  (2941) 
50

>  <MASS SPECTRAL PEAKS>  (2941) 
15 3.83
27 1.48
28 5.02
29 1.27
30 99.99
31 1.8
39 8.09
41 1.55
42 1.15
43 1.05
50 1.91
51 7.15
52 2.5
63 2.81
64 1.55
65 8.77
66 2.25
67 1.45
77 5.91
78 7.04
79 4.7
80 1.97
81 1.76
89 2.3
90 4.46
91 6.6
92 1.44
93 1.48
94 2.55
105 3.92
106 6.85
107 9.41
108 4.06
109 5.36
118 1
121 3.57
122 2.04
123 2.78
127 1.93
135 2.48
136 1.42
137 15.99
138 1.78
149 1.04
151 42.01
152 84.58
153 8.81
165 2.82
181 15.47
182 3.67

$$$$

     RDKit          2D

 15 14  0  0  0  0  0  0  0  0999 V2000
   -3.5724    7.6875    0.0000 C   0  0  0  0  0  0  0  0  0  0  0  0
   -4.8714    8.4375    0.0000 C   0  0  0  0  0  0  0  0  0  0  0  0
   -2.2733    8.4375    0.0000 C   0  0  0  0  0  0  0  0  0  0  0  0
   -6.1704    7.6875    0.0000 C   0  0  0  0  0  0  0  0  0  0  0  0
   -0.9743    7.6875    0.0000 C   0  0  0  0  0  0  0  0  0  0  0  0
   -7.4695    8.4375    0.0000 C   0  0  0  0  0  0  0  0  0  0  0  0
    0.3248    8.4375    0.0000 C   0  0  0  0  0  0  0  0  0  0  0  0
   -8.7685    7.6875    0.0000 C   0  0  0  0  0  0  0  0  0  0  0  0
    1.6238    7.6875    0.0000 C   0  0  0  0  0  0  0  0  0  0  0  0
  -10.0675    8.4375    0.0000 C   0  0  0  0  0  0  0  0  0  0  0  0
    2.9228    8.4375    0.0000 C   0  0  0  0  0  0  0  0  0  0  0  0
  -11.3666    7.6875    0.0000 C   0  0  0  0  0  0  0  0  0  0  0  0
    4.2219    7.6875    0.0000 N   0  0  0  0  0  0  0  0  0  0  0  0
  -12.6656    8.4375    0.0000 N   0  0  0  0  0  0  0  0  0  0  0  0
  -11.3666    6.1875    0.0000 O   0  0  0  0  0  0  0  0  0  0  0  0
  2  1  1  0
  3  1  1  0
  4  2  1  0
  5  3  1  0
  6  4  1  0
  7  5  1  0
  8  6  1  0
  9  7  1  0
 10  8  1  0
 11  9  1  0
 12 10  1  0
 13 11  1  0
 14 12  2  0
 15 12  1  0
M  END
>  <NAME>  (2942) 
12-AMINODODECANAMIDE

>  <SYNONYMS>  (2942) 


>  <SPECTRUM TYPE>  (2942) 
MS1

>  <INSTRUMENT TYPE>  (2942) 
EI-B

>  <INSTRUMENT>  (2942) 
HITACHI M-60

>  <ION MODE>  (2942) 
P

>  <INCHIKEY>  (2942) 
SNNMLPUQKZGXOJ-UHFFFAOYSA-N

>  <FORMULA>  (2942) 
C12H26N2O

>  <EXACT MASS>  (2942) 
214.204513452

>  <MW>  (2942) 
214

>  <ID>  (2942) 
JP008250

>  <CONTRIBUTOR>  (2942) 
University of Tokyo Team, {Faculty of Engineering, University of Tokyo

>  <COMMENT>  (2942) 
computed SMILES=N=C(O)CCCCCCCCCCCN
SMILES=NCCCCCCCCCCCC(N)=O
InChI=InChI=1S/C12H26N2O/c13-11-9-7-5-3-1-2-4-6-8-10-12(14)15/h1-11,13H2,(H2,14,15)
accession=JP008250
date=2016.01.19 (Created 2008.10.21, modified 2011.05.06)
author=UBE SCIENTIFIC ANALYSIS LABORATORY
license=CC BY-NC-SA
exact mass=214.20451
ionization energy=70 eV
ion type=[M]+*
computed spectral entropy=3.014411388816059
computed normalized entropy=0.7786760181975427
SPLASH=splash10-05al-9100000000-dbc0e18b5544c6717ee8
submitter=submitter = University of Tokyo Team (Faculty of Engineering, University of Tokyo)
MoNA Rating=3.75

>  <NUM PEAKS>  (2942) 
48

>  <MASS SPECTRAL PEAKS>  (2942) 
29 7.04
30 99.99
31 2.25
39 2.74
41 16.49
42 4.64
43 13.5
44 40.13
45 18.97
46 2.05
53 1.11
54 1.04
55 17.8
56 6.81
57 3.86
58 2.65
59 40.8
60 3.14
67 1.99
69 7.46
70 1.67
71 1.13
72 66.95
73 9.96
81 1.61
83 4.45
84 1.64
86 17.3
87 3.69
95 1.27
97 1.7
98 1.88
100 8.68
101 3.02
114 9.85
115 2.25
128 8.7
129 1.92
142 9.18
143 3.18
156 30.34
157 3.91
170 2.14
185 2.14
196 1.03
213 0.68
214 2.27
215 0.69

$$$$

     RDKit          2D

 14 14  0  0  0  0  0  0  0  0999 V2000
    0.8500    0.5800    0.0000 C   0  0  0  0  0  0  0  0  0  0  0  0
    0.1000   -0.7200    0.0000 C   0  0  0  0  0  0  0  0  0  0  0  0
    2.3500    0.5800    0.0000 C   0  0  0  0  0  0  0  0  0  0  0  0
   -1.4000   -0.7200    0.0000 C   0  0  0  0  0  0  0  0  0  0  0  0
    3.1000    1.8700    0.0000 C   0  0  0  0  0  0  0  0  0  0  0  0
   -2.1500    0.5800    0.0000 C   0  0  0  0  0  0  0  0  0  0  0  0
    0.8500    3.1700    0.0000 C   0  0  0  0  0  0  0  0  0  0  0  0
   -3.6500    0.5800    0.0000 C   0  0  0  0  0  0  0  0  0  0  0  0
    0.1000    4.4700    0.0000 C   0  0  0  0  0  0  0  0  0  0  0  0
   -4.4000    1.8800    0.0000 C   0  0  0  0  0  0  0  0  0  0  0  0
   -1.4000    4.4700    0.0000 C   0  0  0  0  0  0  0  0  0  0  0  0
   -3.6500    3.1700    0.0000 C   0  0  0  0  0  0  0  0  0  0  0  0
   -2.1500    3.1700    0.0000 N   0  0  0  0  0  0  0  0  0  0  0  0
   -4.3980    4.4702    0.0000 O   0  0  0  0  0  0  0  0  0  0  0  0
  2  1  1  0
  3  1  1  0
  4  2  1  0
  5  3  1  0
  6  4  1  0
  7  5  1  0
  8  6  1  0
  9  7  1  0
 10  8  1  0
 11  9  1  0
 12 10  1  0
 13 11  1  0
 12 13  2  0
 14 12  1  0
M  END
>  <NAME>  (2943) 
2-AZACYCLOTRIDECANONE

>  <SYNONYMS>  (2943) 
LAURYLLACTAM

>  <SPECTRUM TYPE>  (2943) 
MS1

>  <INSTRUMENT TYPE>  (2943) 
EI-B

>  <INSTRUMENT>  (2943) 
HITACHI M-60

>  <ION MODE>  (2943) 
P

>  <INCHIKEY>  (2943) 
JHWNWJKBPDFINM-UHFFFAOYSA-N

>  <FORMULA>  (2943) 
C12H23NO

>  <EXACT MASS>  (2943) 
197.177964356

>  <MW>  (2943) 
197

>  <ID>  (2943) 
JP008249

>  <CONTRIBUTOR>  (2943) 
University of Tokyo Team, {Faculty of Engineering, University of Tokyo

>  <COMMENT>  (2943) 
cas=947-04-6
SMILES=O=C(C1)NCCCCCCCCCC1
InChI=InChI=1S/C12H23NO/c14-12-10-8-6-4-2-1-3-5-7-9-11-13-12/h1-11H2,(H,13,14)
computed SMILES=OC1=NCCCCCCCCCCC1
accession=JP008249
date=2016.01.19 (Created 2008.10.21, modified 2011.05.06)
author=UBE SCIENTIFIC ANALYSIS LABORATORY
license=CC BY-NC-SA
exact mass=197.17796
ionization energy=70 eV
ion type=[M]+*
computed spectral entropy=3.7895234651380134
computed normalized entropy=0.8832442112828139
SPLASH=splash10-000x-9200000000-a66e8c1a88255ecc9623
submitter=submitter = University of Tokyo Team (Faculty of Engineering, University of Tokyo)
MoNA Rating=3.75

>  <NUM PEAKS>  (2943) 
73

>  <MASS SPECTRAL PEAKS>  (2943) 
18 5.6
27 13.97
28 11.65
29 24.65
30 99.99
31 2.41
39 12.13
40 2.67
41 58.52
42 20.43
43 30.94
44 28.29
45 7.66
53 5.17
54 6.87
55 56.12
56 22.5
57 11.04
58 12.43
59 10.59
60 17.5
67 9.48
68 6.84
69 15.74
70 11.5
71 5.53
72 21.19
73 25.61
74 2.3
79 2.27
80 1.17
81 6.63
82 6.1
83 7.5
84 15.3
85 9.17
86 23.79
87 15.77
88 1.24
93 1.11
94 1.2
95 3.71
96 5.4
97 7.02
98 27.24
99 11.21
100 30.33
101 8.92
109 1.69
110 2.35
111 5.21
112 16.38
113 7.84
114 12.37
115 2.51
125 2.62
126 10.81
127 2.86
128 4.63
129 1.46
138 3.09
140 9.03
141 2.28
142 2.59
154 11.38
155 2.43
156 7.73
168 6.49
169 1.64
182 1.75
196 1.62
197 24.44
198 6.24

$$$$

     RDKit          2D

  6  5  0  0  0  0  0  0  0  0999 V2000
   -4.2219    2.8125    0.0000 C   0  0  0  0  0  0  0  0  0  0  0  0
   -0.3248    2.0625    0.0000 C   0  0  0  0  0  0  0  0  0  0  0  0
   -1.6238    2.8125    0.0000 C   0  0  0  0  0  0  0  0  0  0  0  0
    0.9743    1.3125    0.0000 N   0  0  0  0  0  0  0  0  0  0  0  0
   -1.6238    4.3125    0.0000 O   0  0  0  0  0  0  0  0  0  0  0  0
   -2.9228    2.0625    0.0000 O   0  0  0  0  0  0  0  0  0  0  0  0
  3  2  1  0
  4  2  3  0
  5  3  2  0
  6  1  1  0
  6  3  1  0
M  END
>  <NAME>  (2944) 
METHYL CYANOFORMATE

>  <SYNONYMS>  (2944) 


>  <SPECTRUM TYPE>  (2944) 
MS1

>  <INSTRUMENT TYPE>  (2944) 
EI-B

>  <INSTRUMENT>  (2944) 
HITACHI M-60

>  <ION MODE>  (2944) 
P

>  <INCHIKEY>  (2944) 
OBWFJXLKRAFEDI-UHFFFAOYSA-N

>  <FORMULA>  (2944) 
C3H3NO2

>  <EXACT MASS>  (2944) 
85.016378336

>  <MW>  (2944) 
85

>  <ID>  (2944) 
JP008248

>  <CONTRIBUTOR>  (2944) 
University of Tokyo Team, {Faculty of Engineering, University of Tokyo

>  <COMMENT>  (2944) 
SMILES=N#CC(=O)OC
cas=17640-15-2
InChI=InChI=1S/C3H3NO2/c1-6-3(5)2-4/h1H3
computed SMILES=N#CC(=O)OC
accession=JP008248
date=2016.01.19 (Created 2008.10.21, modified 2011.05.06)
author=UBE SCIENTIFIC ANALYSIS LABORATORY
license=CC BY-NC-SA
exact mass=85.01638
ionization energy=70 eV
ion type=[M]+*
computed spectral entropy=2.434918522381998
computed normalized entropy=0.7877337691485081
SPLASH=splash10-0ufr-9000000000-76ad646589847d480771
submitter=submitter = University of Tokyo Team (Faculty of Engineering, University of Tokyo)
MoNA Rating=3.75

>  <NUM PEAKS>  (2944) 
22

>  <MASS SPECTRAL PEAKS>  (2944) 
12 1.59
13 1.34
14 6.13
15 36.06
26 10.35
27 7.01
28 12.91
29 30.25
30 5.06
31 47.95
40 1.75
41 38.61
42 2.7
44 5.39
45 28.15
54 99.99
55 11.37
56 1.43
57 0.64
59 20.88
84 9.26
85 0.54

$$$$

     RDKit          2D

 10  9  0  0  0  0  0  0  0  0999 V2000
    0.3248    3.9375    0.0000 C   0  0  0  0  0  0  0  0  0  0  0  0
   -6.1704    0.1875    0.0000 C   0  0  0  0  0  0  0  0  0  0  0  0
   -3.5724    4.6875    0.0000 C   0  0  0  0  0  0  0  0  0  0  0  0
   -4.8714    3.9375    0.0000 C   0  0  0  0  0  0  0  0  0  0  0  0
   -2.2733    3.9375    0.0000 C   0  0  0  0  0  0  0  0  0  0  0  0
   -4.8714    2.4375    0.0000 C   0  0  0  0  0  0  0  0  0  0  0  0
   -2.2733    2.4375    0.0000 O   0  0  0  0  0  0  0  0  0  0  0  0
   -3.5724    1.6875    0.0000 O   0  0  0  0  0  0  0  0  0  0  0  0
   -0.9743    4.6875    0.0000 O   0  0  0  0  0  0  0  0  0  0  0  0
   -6.1704    1.6875    0.0000 O   0  0  0  0  0  0  0  0  0  0  0  0
  3  4  2  0
  5  3  1  0
  6  4  1  0
  7  5  2  0
  8  6  2  0
  9  1  1  0
  9  5  1  0
 10  2  1  0
 10  6  1  0
M  END
>  <NAME>  (2945) 
DIMETHYL MALEATE

>  <SYNONYMS>  (2945) 


>  <SPECTRUM TYPE>  (2945) 
MS1

>  <INSTRUMENT TYPE>  (2945) 
EI-B

>  <INSTRUMENT>  (2945) 
HITACHI M-60

>  <ION MODE>  (2945) 
P

>  <INCHIKEY>  (2945) 
LDCRTTXIJACKKU-ARJAWSKDSA-N

>  <FORMULA>  (2945) 
C6H8O4

>  <EXACT MASS>  (2945) 
144.042258736

>  <MW>  (2945) 
144

>  <ID>  (2945) 
JP008247

>  <CONTRIBUTOR>  (2945) 
University of Tokyo Team, {Faculty of Engineering, University of Tokyo

>  <COMMENT>  (2945) 
SMILES=COC(=O)C=CC(=O)OC
cas=624-48-6
InChI=InChI=1S/C6H8O4/c1-9-5(7)3-4-6(8)10-2/h3-4H,1-2H3/b4-3-
computed SMILES=O=C(OC)C=CC(=O)OC
accession=JP008247
date=2016.01.19 (Created 2008.10.21, modified 2011.05.06)
author=UBE SCIENTIFIC ANALYSIS LABORATORY
license=CC BY-NC-SA
exact mass=144.04226
ionization energy=70 eV
ion type=[M]+*
computed spectral entropy=2.0560057216382943
computed normalized entropy=0.655719825982531
SPLASH=splash10-03di-9800000000-9b43ca980ebe24e7dd08
submitter=submitter = University of Tokyo Team (Faculty of Engineering, University of Tokyo)
MoNA Rating=3.75

>  <NUM PEAKS>  (2945) 
23

>  <MASS SPECTRAL PEAKS>  (2945) 
15 28.11
26 10.48
27 3.21
28 1.68
29 4.91
30 1.36
31 1.34
32 1
39 1.97
41 1.1
42 1.16
45 1.03
53 4.21
54 6.82
55 4.28
57 1.25
59 26.36
82 2.83
85 8.92
113 99.99
114 8.49
115 1.7
144 0.71

$$$$

     RDKit          2D

 10  9  0  0  0  0  0  0  0  0999 V2000
   -6.4952    4.5000    0.0000 C   0  0  0  0  0  0  0  0  0  0  0  0
    2.5981    3.7500    0.0000 C   0  0  0  0  0  0  0  0  0  0  0  0
   -2.5981    3.7500    0.0000 C   0  0  0  0  0  0  0  0  0  0  0  0
   -1.2990    4.5000    0.0000 C   0  0  0  0  0  0  0  0  0  0  0  0
   -3.8971    4.5000    0.0000 C   0  0  0  0  0  0  0  0  0  0  0  0
    0.0000    3.7500    0.0000 C   0  0  0  0  0  0  0  0  0  0  0  0
   -3.8971    6.0000    0.0000 O   0  0  0  0  0  0  0  0  0  0  0  0
   -0.0000    2.2500    0.0000 O   0  0  0  0  0  0  0  0  0  0  0  0
   -5.1962    3.7500    0.0000 O   0  0  0  0  0  0  0  0  0  0  0  0
    1.2990    4.5000    0.0000 O   0  0  0  0  0  0  0  0  0  0  0  0
  3  4  2  0
  5  3  1  0
  6  4  1  0
  7  5  2  0
  8  6  2  0
  9  1  1  0
  9  5  1  0
 10  2  1  0
 10  6  1  0
M  END
>  <NAME>  (2946) 
DIMETHYL FUMALATE

>  <SYNONYMS>  (2946) 


>  <SPECTRUM TYPE>  (2946) 
MS1

>  <INSTRUMENT TYPE>  (2946) 
EI-B

>  <INSTRUMENT>  (2946) 
HITACHI M-60

>  <ION MODE>  (2946) 
P

>  <INCHIKEY>  (2946) 
LDCRTTXIJACKKU-ONEGZZNKSA-N

>  <FORMULA>  (2946) 
C6H8O4

>  <EXACT MASS>  (2946) 
144.042258736

>  <MW>  (2946) 
144

>  <ID>  (2946) 
JP008246

>  <CONTRIBUTOR>  (2946) 
University of Tokyo Team, {Faculty of Engineering, University of Tokyo

>  <COMMENT>  (2946) 
SMILES=COC(=O)C=CC(=O)OC
cas=624-49-7
InChI=InChI=1S/C6H8O4/c1-9-5(7)3-4-6(8)10-2/h3-4H,1-2H3/b4-3+
computed SMILES=O=C(OC)C=CC(=O)OC
accession=JP008246
date=2016.01.19 (Created 2008.10.21, modified 2011.05.06)
author=UBE SCIENTIFIC ANALYSIS LABORATORY
license=CC BY-NC-SA
exact mass=144.04226
ionization energy=70 eV
ion type=[M]+*
computed spectral entropy=2.456349398588545
computed normalized entropy=0.7371544546824327
SPLASH=splash10-03di-9500000000-8e3b99fc3ddb06539d43
submitter=submitter = University of Tokyo Team (Faculty of Engineering, University of Tokyo)
MoNA Rating=3.75

>  <NUM PEAKS>  (2946) 
28

>  <MASS SPECTRAL PEAKS>  (2946) 
14 1.66
15 39.31
25 1.3
26 15.81
27 4.5
28 1.01
29 9.27
30 1.75
31 2.35
39 5.02
41 3.91
42 1.58
45 1.38
53 14.78
54 11.13
55 3.21
59 30.99
60 0.68
81 4.18
82 6.24
85 48.47
86 2.43
99 1.99
100 2.46
113 99.99
114 19.52
115 1.9
144 2.58

$$$$

     RDKit          2D

  7  6  0  0  0  0  0  0  0  0999 V2000
    1.9486    2.6250    0.0000 C   0  0  0  0  0  0  0  0  0  0  0  0
   -1.9486    3.3750    0.0000 C   0  0  0  0  0  0  0  0  0  0  0  0
   -0.6495    2.6250    0.0000 C   0  0  0  0  0  0  0  0  0  0  0  0
   -3.2476    2.6250    0.0000 N   0  0  0  0  0  0  0  0  0  0  0  0
   -0.6495    1.1250    0.0000 O   0  0  0  0  0  0  0  0  0  0  0  0
   -4.5466    3.3750    0.0000 O   0  0  0  0  0  0  0  0  0  0  0  0
    0.6495    3.3750    0.0000 O   0  0  0  0  0  0  0  0  0  0  0  0
  3  2  1  0
  2  4  2  0
  5  3  2  0
  6  4  1  0
  7  1  1  0
  7  3  1  0
M  END
>  <NAME>  (2947) 
METHYL GLYOXYLATE OXIME

>  <SYNONYMS>  (2947) 


>  <SPECTRUM TYPE>  (2947) 
MS1

>  <INSTRUMENT TYPE>  (2947) 
EI-B

>  <INSTRUMENT>  (2947) 
HITACHI M-60

>  <ION MODE>  (2947) 
P

>  <INCHIKEY>  (2947) 
FOOPJRSDKYBEGG-DUXPYHPUSA-N

>  <FORMULA>  (2947) 
C3H5NO3

>  <EXACT MASS>  (2947) 
103.02694301999999

>  <MW>  (2947) 
103

>  <ID>  (2947) 
JP008245

>  <CONTRIBUTOR>  (2947) 
University of Tokyo Team, {Faculty of Engineering, University of Tokyo

>  <COMMENT>  (2947) 
SMILES=COC(=O)C=NO
InChI=InChI=1S/C3H5NO3/c1-7-3(5)2-4-6/h2,6H,1H3/b4-2+
computed SMILES=O=C(OC)C=NO
accession=JP008245
date=2016.01.19 (Created 2008.10.21, modified 2011.05.06)
author=UBE SCIENTIFIC ANALYSIS LABORATORY
license=CC BY-NC-SA
exact mass=103.02694
ionization energy=70 eV
ion type=[M]+*
computed spectral entropy=2.340720871844598
computed normalized entropy=0.8098338441932311
SPLASH=splash10-00xr-9000000000-48d590f98fc321a06eb8
submitter=submitter = University of Tokyo Team (Faculty of Engineering, University of Tokyo)
MoNA Rating=3.75

>  <NUM PEAKS>  (2947) 
18

>  <MASS SPECTRAL PEAKS>  (2947) 
15 75.34
16 5.75
27 13.93
28 14.81
29 16.5
30 9.16
31 11.21
41 3.13
42 1.81
43 9.65
44 41.45
45 4.01
54 6.12
59 24.3
71 99.99
72 30.05
73 1.56
103 14.88

$$$$

     RDKit          2D

 11 10  0  0  0  0  0  0  0  0999 V2000
    1.9486    3.3750    0.0000 C   0  0  0  0  0  0  0  0  0  0  0  0
   -5.8457    3.3750    0.0000 C   0  0  0  0  0  0  0  0  0  0  0  0
   -1.9486    4.1250    0.0000 C   0  0  0  0  0  0  0  0  0  0  0  0
   -0.6495    3.3750    0.0000 C   0  0  0  0  0  0  0  0  0  0  0  0
   -3.2476    3.3750    0.0000 C   0  0  0  0  0  0  0  0  0  0  0  0
   -1.9486    5.6250    0.0000 N   0  0  0  0  0  0  0  0  0  0  0  0
   -0.6495    1.8750    0.0000 O   0  0  0  0  0  0  0  0  0  0  0  0
   -3.2476    1.8750    0.0000 O   0  0  0  0  0  0  0  0  0  0  0  0
   -3.2476    6.3750    0.0000 O   0  0  0  0  0  0  0  0  0  0  0  0
    0.6495    4.1250    0.0000 O   0  0  0  0  0  0  0  0  0  0  0  0
   -4.5466    4.1250    0.0000 O   0  0  0  0  0  0  0  0  0  0  0  0
  4  3  1  0
  5  3  1  0
  6  3  2  3
  7  4  2  0
  8  5  2  0
  9  6  1  0
 10  1  1  0
 10  4  1  0
 11  2  1  0
 11  5  1  0
M  END
>  <NAME>  (2948) 
DIMETHYL OXOMALONATE OXIME

>  <SYNONYMS>  (2948) 


>  <SPECTRUM TYPE>  (2948) 
MS1

>  <INSTRUMENT TYPE>  (2948) 
EI-B

>  <INSTRUMENT>  (2948) 
HITACHI M-60

>  <ION MODE>  (2948) 
P

>  <INCHIKEY>  (2948) 
GLFGXQYUPFIXJV-UHFFFAOYSA-N

>  <FORMULA>  (2948) 
C5H7NO5

>  <EXACT MASS>  (2948) 
161.03242232399998

>  <MW>  (2948) 
161

>  <ID>  (2948) 
JP008244

>  <CONTRIBUTOR>  (2948) 
University of Tokyo Team, {Faculty of Engineering, University of Tokyo

>  <COMMENT>  (2948) 
SMILES=COC(=O)C(=NO)C(=O)OC
InChI=InChI=1S/C5H7NO5/c1-10-4(7)3(6-9)5(8)11-2/h9H,1-2H3
computed SMILES=O=C(OC)C(=NO)C(=O)OC
accession=JP008244
date=2016.01.19 (Created 2008.10.21, modified 2011.05.06)
author=UBE SCIENTIFIC ANALYSIS LABORATORY
license=CC BY-NC-SA
exact mass=161.03242
ionization energy=70 eV
ion type=[M]+*
computed spectral entropy=2.4960535462471527
computed normalized entropy=0.7661079151948367
SPLASH=splash10-0690-9300000000-596144478a38c2609f91
submitter=submitter = University of Tokyo Team (Faculty of Engineering, University of Tokyo)
MoNA Rating=3.75

>  <NUM PEAKS>  (2948) 
26

>  <MASS SPECTRAL PEAKS>  (2948) 
15 99.99
27 10.11
28 6.53
29 14.43
30 8.35
31 14.93
32 1.97
41 3.81
42 6.17
43 2.21
44 9.55
45 6.64
54 18.18
55 1.95
59 57.07
60 1.42
69 2.48
70 6.45
71 1.69
86 3.04
101 8.02
102 13.74
129 74.25
130 10.06
131 0.96
161 8.13

$$$$

     RDKit          2D

 18 17  0  0  0  0  0  0  0  0999 V2000
    5.1962    8.2500    0.0000 C   0  0  0  0  0  0  0  0  0  0  0  0
  -14.2894    9.0000    0.0000 C   0  0  0  0  0  0  0  0  0  0  0  0
   -3.8971    9.0000    0.0000 C   0  0  0  0  0  0  0  0  0  0  0  0
   -5.1962    8.2500    0.0000 C   0  0  0  0  0  0  0  0  0  0  0  0
   -2.5981    8.2500    0.0000 C   0  0  0  0  0  0  0  0  0  0  0  0
   -6.4952    9.0000    0.0000 C   0  0  0  0  0  0  0  0  0  0  0  0
   -1.2990    9.0000    0.0000 C   0  0  0  0  0  0  0  0  0  0  0  0
   -7.7942    8.2500    0.0000 C   0  0  0  0  0  0  0  0  0  0  0  0
    0.0000    8.2500    0.0000 C   0  0  0  0  0  0  0  0  0  0  0  0
   -9.0933    9.0000    0.0000 C   0  0  0  0  0  0  0  0  0  0  0  0
    1.2990    9.0000    0.0000 C   0  0  0  0  0  0  0  0  0  0  0  0
  -10.3923    8.2500    0.0000 C   0  0  0  0  0  0  0  0  0  0  0  0
    2.5981    8.2500    0.0000 C   0  0  0  0  0  0  0  0  0  0  0  0
  -11.6913    9.0000    0.0000 C   0  0  0  0  0  0  0  0  0  0  0  0
    2.5981    6.7500    0.0000 O   0  0  0  0  0  0  0  0  0  0  0  0
  -11.6913   10.5000    0.0000 O   0  0  0  0  0  0  0  0  0  0  0  0
    3.8971    9.0000    0.0000 O   0  0  0  0  0  0  0  0  0  0  0  0
  -12.9904    8.2500    0.0000 O   0  0  0  0  0  0  0  0  0  0  0  0
  4  3  1  0
  5  3  1  0
  6  4  1  0
  7  5  1  0
  8  6  1  0
  9  7  1  0
 10  8  1  0
 11  9  1  0
 12 10  1  0
 13 11  1  0
 14 12  1  0
 15 13  2  0
 16 14  2  0
 17  1  1  0
 17 13  1  0
 18  2  1  0
 18 14  1  0
M  END
>  <NAME>  (2949) 
DIMETHYL DODECANEDIOATE

>  <SYNONYMS>  (2949) 


>  <SPECTRUM TYPE>  (2949) 
MS1

>  <INSTRUMENT TYPE>  (2949) 
EI-B

>  <INSTRUMENT>  (2949) 
HITACHI M-60

>  <ION MODE>  (2949) 
P

>  <INCHIKEY>  (2949) 
IZMOTZDBVPMOFE-UHFFFAOYSA-N

>  <FORMULA>  (2949) 
C14H26O4

>  <EXACT MASS>  (2949) 
258.183109312

>  <MW>  (2949) 
258

>  <ID>  (2949) 
JP008243

>  <CONTRIBUTOR>  (2949) 
University of Tokyo Team, {Faculty of Engineering, University of Tokyo

>  <COMMENT>  (2949) 
SMILES=COC(=O)CCCCCCCCCCC(=O)OC
cas=1731-79-9
InChI=InChI=1S/C14H26O4/c1-17-13(15)11-9-7-5-3-4-6-8-10-12-14(16)18-2/h3-12H2,1-2H3
computed SMILES=O=C(OC)CCCCCCCCCCC(=O)OC
accession=JP008243
date=2016.01.19 (Created 2008.10.21, modified 2011.05.06)
author=UBE SCIENTIFIC ANALYSIS LABORATORY
license=CC BY-NC-SA
exact mass=258.18311
ionization energy=70 eV
ion type=[M]+*
computed spectral entropy=3.9072181102056174
computed normalized entropy=0.8161305167985742
SPLASH=splash10-0avm-9200000000-91cca37c2a8c1c55dab9
submitter=submitter = University of Tokyo Team (Faculty of Engineering, University of Tokyo)
MoNA Rating=3.75

>  <NUM PEAKS>  (2949) 
120

>  <MASS SPECTRAL PEAKS>  (2949) 
15 41.91
27 13.17
28 7.23
29 25.87
30 1.09
31 3.28
36 1.19
39 10.96
40 2.73
41 61.17
42 15.49
43 69.61
44 3.08
45 6.22
53 4.8
54 5.86
55 92.78
56 9.42
57 17.46
58 1.8
59 48.27
60 1.89
61 0.75
62 1.42
66 1.05
67 11.91
68 7.45
69 63.45
70 9.25
71 4.71
72 0.93
73 8.56
74 99.99
75 6.83
76 1.12
77 1.16
78 0.86
79 4.59
80 3.96
81 13.47
82 6.31
83 40.29
84 68.41
85 4.42
86 1.61
87 37.26
88 4.37
91 1.28
92 0.8
93 5.2
94 3.5
95 8.27
96 8.66
97 26.03
98 96.14
99 5.32
100 1.31
101 6.59
106 1.12
107 3.76
108 3.07
109 6.17
110 5.02
111 18.34
112 36.77
113 4.26
114 1.92
115 5.3
116 1.28
119 4.76
120 1.14
121 1.83
122 2.13
123 4.49
124 3.95
125 8.24
126 7.14
127 7.32
128 1.99
129 3.89
130 2.08
131 0.99
132 0.84
133 1.56
134 3.1
135 14.63
136 2.24
137 2.23
138 4.34
139 2.92
140 1.79
141 1.4
142 2.72
143 5.07
144 1.27
147 2.09
148 2.45
149 5.7
150 2.3
151 2.35
152 8.35
153 35.25
154 4.06
165 1.21
166 8.64
167 5.36
170 2.89
172 2.34
175 0.95
176 1.02
184 2.22
185 40.99
186 4.42
194 7.04
195 2.31
198 1.3
226 1.39
227 31.67
228 4.47
259 0.26

$$$$

     RDKit          2D

  9  8  0  0  0  0  0  0  0  0999 V2000
    0.0000    6.0000    0.0000 C   0  0  0  0  0  0  0  0  0  0  0  0
   -5.1962    6.0000    0.0000 C   0  0  0  0  0  0  0  0  0  0  0  0
    1.2990    5.2500    0.0000 C   0  0  0  0  0  0  0  0  0  0  0  0
   -6.4952    5.2500    0.0000 C   0  0  0  0  0  0  0  0  0  0  0  0
   -1.2990    5.2500    0.0000 C   0  0  0  0  0  0  0  0  0  0  0  0
   -3.8971    5.2500    0.0000 C   0  0  0  0  0  0  0  0  0  0  0  0
    2.5981    4.5000    0.0000 N   0  0  0  0  0  0  0  0  0  0  0  0
   -7.7942    4.5000    0.0000 N   0  0  0  0  0  0  0  0  0  0  0  0
   -2.5981    6.0000    0.0000 N   0  0  0  0  0  0  0  0  0  0  0  0
  3  1  1  0
  4  2  1  0
  5  1  1  0
  6  2  1  0
  7  3  3  0
  8  4  3  0
  9  5  1  0
  9  6  1  0
M  END
>  <NAME>  (2950) 
3,3'-IMINODIPROPIONITRILE

>  <SYNONYMS>  (2950) 
BIS(2-CYANOETHYL)AMINE

>  <SPECTRUM TYPE>  (2950) 
MS1

>  <INSTRUMENT TYPE>  (2950) 
EI-B

>  <INSTRUMENT>  (2950) 
HITACHI M-60

>  <ION MODE>  (2950) 
P

>  <INCHIKEY>  (2950) 
SBAJRGRUGUQKAF-UHFFFAOYSA-N

>  <FORMULA>  (2950) 
C6H9N3

>  <EXACT MASS>  (2950) 
123.07964728799999

>  <MW>  (2950) 
123

>  <ID>  (2950) 
JP008242

>  <CONTRIBUTOR>  (2950) 
University of Tokyo Team, {Faculty of Engineering, University of Tokyo

>  <COMMENT>  (2950) 
SMILES=N#CCCNCCC#N
cas=111-94-4
InChI=InChI=1S/C6H9N3/c7-3-1-5-9-6-2-4-8/h9H,1-2,5-6H2
computed SMILES=N#CCCNCCC#N
accession=JP008242
date=2016.01.19 (Created 2008.10.21, modified 2011.05.06)
author=UBE SCIENTIFIC ANALYSIS LABORATORY
license=CC BY-NC-SA
exact mass=123.07965
ionization energy=70 eV
ion type=[M]+*
computed spectral entropy=2.311012430880799
computed normalized entropy=0.7093136756114012
SPLASH=splash10-000x-9000000000-e9c221f8d5ab005e7243
submitter=submitter = University of Tokyo Team (Faculty of Engineering, University of Tokyo)
MoNA Rating=3.75

>  <NUM PEAKS>  (2950) 
26

>  <MASS SPECTRAL PEAKS>  (2950) 
15 3.39
26 4.62
27 10.26
28 30.58
29 5.27
30 17.54
38 0.61
39 2.08
40 6.1
41 7.56
42 99.99
43 12.7
51 1.36
52 6.09
53 1.98
54 52.34
55 4.2
56 5.89
57 1.12
66 1.16
67 0.93
81 5.81
82 2.32
83 85.92
84 5.21
123 0.56

$$$$

     RDKit          2D

  5  4  0  0  0  0  0  0  0  0999 V2000
   -0.6495    1.8750    0.0000 C   0  0  0  0  0  0  0  0  0  0  0  0
    0.6495    2.6250    0.0000 C   0  0  0  0  0  0  0  0  0  0  0  0
   -1.9486    2.6250    0.0000 C   0  0  0  0  0  0  0  0  0  0  0  0
    1.9486    1.8750    0.0000 N   0  0  0  0  0  0  0  0  0  0  0  0
   -3.2476    3.3750    0.0000 N   0  0  0  0  0  0  0  0  0  0  0  0
  2  1  1  0
  3  1  1  0
  4  2  1  0
  5  3  3  0
M  END
>  <NAME>  (2951) 
3-AMINOPROPIONITRILE

>  <SYNONYMS>  (2951) 


>  <SPECTRUM TYPE>  (2951) 
MS1

>  <INSTRUMENT TYPE>  (2951) 
EI-B

>  <INSTRUMENT>  (2951) 
HITACHI M-60

>  <ION MODE>  (2951) 
P

>  <INCHIKEY>  (2951) 
AGSPXMVUFBBBMO-UHFFFAOYSA-N

>  <FORMULA>  (2951) 
C3H6N2

>  <EXACT MASS>  (2951) 
70.053098192

>  <MW>  (2951) 
70

>  <ID>  (2951) 
JP008241

>  <CONTRIBUTOR>  (2951) 
University of Tokyo Team, {Faculty of Engineering, University of Tokyo

>  <COMMENT>  (2951) 
InChI=InChI=1S/C3H6N2/c4-2-1-3-5/h1-2,4H2
SMILES=NCCC#N
computed SMILES=N#CCCN
accession=JP008241
date=2016.01.19 (Created 2008.10.21, modified 2011.05.06)
author=UBE SCIENTIFIC ANALYSIS LABORATORY
license=CC BY-NC-SA
exact mass=70.0531
ionization energy=70 eV
ion type=[M]+*
computed spectral entropy=1.6202774746237008
computed normalized entropy=0.5408619084313173
SPLASH=splash10-001i-9000000000-f05f2291dfe77fc789cb
submitter=submitter = University of Tokyo Team (Faculty of Engineering, University of Tokyo)
MoNA Rating=3.75

>  <NUM PEAKS>  (2951) 
20

>  <MASS SPECTRAL PEAKS>  (2951) 
14 1.32
15 3.73
17 1.4
26 1.27
27 3.02
28 19.05
29 1.91
30 99.99
31 1.53
38 1.72
39 2.58
40 4.64
41 6.09
42 13.86
43 1.16
51 0.98
52 0.58
69 0.98
70 0.54
71 0.89

$$$$

     RDKit          2D

 12 12  0  0  0  0  0  0  0  0999 V2000
    0.7500    1.3100    0.0000 C   0  0  0  0  0  0  0  0  0  0  0  0
   -0.7600    1.2900    0.0000 C   0  0  0  0  0  0  0  0  0  0  0  0
    0.7500   -1.2900    0.0000 C   0  0  0  0  0  0  0  0  0  0  0  0
   -0.7300   -1.3000    0.0000 C   0  0  0  0  0  0  0  0  0  0  0  0
    1.4900    0.0200    0.0000 C   0  0  0  0  0  0  0  0  0  0  0  0
   -1.5000   -0.0100    0.0000 C   0  0  0  0  0  0  0  0  0  0  0  0
    2.9900    0.0250    0.0000 N   0  0  0  0  0  0  0  0  0  0  0  0
   -2.9999   -0.0255    0.0000 N   0  0  0  0  0  0  0  0  0  0  0  0
    3.7357    1.3265    0.0000 O   0  0  0  0  0  0  0  0  0  0  0  0
    3.7443   -1.2716    0.0000 O   0  0  0  0  0  0  0  0  0  0  0  0
   -3.7633    1.2657    0.0000 O   0  0  0  0  0  0  0  0  0  0  0  0
   -3.7365   -1.3322    0.0000 O   0  0  0  0  0  0  0  0  0  0  0  0
  2  1  2  0
  4  3  1  0
  5  1  1  0
  5  3  2  0
  6  2  1  0
  6  4  2  0
  7  5  1  0
  8  6  1  0
  9  7  1  0
 10  7  2  0
 11  8  1  0
 12  8  2  0
M  CHG  4   7   1   8   1   9  -1  11  -1
M  END
>  <NAME>  (2952) 
1,4-DINITROBENZENE

>  <SYNONYMS>  (2952) 


>  <SPECTRUM TYPE>  (2952) 
MS1

>  <INSTRUMENT TYPE>  (2952) 
EI-B

>  <INSTRUMENT>  (2952) 
HITACHI M-60

>  <ION MODE>  (2952) 
P

>  <INCHIKEY>  (2952) 
FYFDQJRXFWGIBS-UHFFFAOYSA-N

>  <FORMULA>  (2952) 
C6H4N2O4

>  <EXACT MASS>  (2952) 
168.017106608

>  <MW>  (2952) 
168

>  <ID>  (2952) 
JP008240

>  <CONTRIBUTOR>  (2952) 
University of Tokyo Team, {Faculty of Engineering, University of Tokyo

>  <COMMENT>  (2952) 
SMILES=[O-1][N+1](=O)c(c1)ccc(c1)[N+1]([O-1])=O
cas=100-25-4
InChI=InChI=1S/C6H4N2O4/c9-7(10)5-1-2-6(4-3-5)8(11)12/h1-4H
computed SMILES=O=N(=O)C1=CC=C(C=C1)N(=O)=O
accession=JP008240
date=2016.01.19 (Created 2008.10.21, modified 2011.05.06)
author=UBE SCIENTIFIC ANALYSIS LABORATORY
license=CC BY-NC-SA
exact mass=168.01711
ionization energy=70 eV
ion type=[M]+*
computed spectral entropy=2.5967119715686797
computed normalized entropy=0.8067139314623931
SPLASH=splash10-00or-9300000000-fda1566d841a296c00aa
submitter=submitter = University of Tokyo Team (Faculty of Engineering, University of Tokyo)
MoNA Rating=3.75

>  <NUM PEAKS>  (2952) 
25

>  <MASS SPECTRAL PEAKS>  (2952) 
38 7.43
39 8.33
41 7.55
44 2.73
50 63.73
51 4.58
57 1.92
62 3.81
63 16.93
64 24.66
65 11.75
73 4.33
74 22.68
75 79.64
76 51.11
77 3.95
92 29.93
108 3.23
122 30.39
138 7.85
141 0.82
142 0.71
152 2.83
168 77.63
169 6.84

$$$$

     RDKit          2D

 12 12  0  0  0  0  0  0  0  0999 V2000
    1.6244   -3.1882    0.0000 C   0  0  0  0  0  0  0  0  0  0  0  0
    0.3248   -2.4373    0.0000 C   0  0  0  0  0  0  0  0  0  0  0  0
    2.9234   -2.4382    0.0000 C   0  0  0  0  0  0  0  0  0  0  0  0
    1.6234   -0.1865    0.0000 C   0  0  0  0  0  0  0  0  0  0  0  0
    0.3244   -0.9365    0.0000 C   0  0  0  0  0  0  0  0  0  0  0  0
    2.9229   -0.9373    0.0000 C   0  0  0  0  0  0  0  0  0  0  0  0
   -0.9748   -0.1867    0.0000 N   0  0  0  0  0  0  0  0  0  0  0  0
    4.2220   -0.1873    0.0000 N   0  0  0  0  0  0  0  0  0  0  0  0
   -2.2737   -0.9369    0.0000 O   0  0  0  0  0  0  0  0  0  0  0  0
   -0.9750    1.3133    0.0000 O   0  0  0  0  0  0  0  0  0  0  0  0
    5.5210   -0.9373    0.0000 O   0  0  0  0  0  0  0  0  0  0  0  0
    4.2220    1.3127    0.0000 O   0  0  0  0  0  0  0  0  0  0  0  0
  2  1  2  0
  3  1  1  0
  5  2  1  0
  5  4  2  0
  6  3  2  0
  6  4  1  0
  7  5  1  0
  8  6  1  0
  9  7  1  0
 10  7  2  0
 11  8  1  0
 12  8  2  0
M  CHG  4   7   1   8   1   9  -1  11  -1
M  END
>  <NAME>  (2953) 
1,3-DINITROBENZENE

>  <SYNONYMS>  (2953) 


>  <SPECTRUM TYPE>  (2953) 
MS1

>  <INSTRUMENT TYPE>  (2953) 
EI-B

>  <INSTRUMENT>  (2953) 
HITACHI M-60

>  <ION MODE>  (2953) 
P

>  <INCHIKEY>  (2953) 
WDCYWAQPCXBPJA-UHFFFAOYSA-N

>  <FORMULA>  (2953) 
C6H4N2O4

>  <EXACT MASS>  (2953) 
168.017106608

>  <MW>  (2953) 
168

>  <ID>  (2953) 
JP008239

>  <CONTRIBUTOR>  (2953) 
University of Tokyo Team, {Faculty of Engineering, University of Tokyo

>  <COMMENT>  (2953) 
SMILES=[O-1][N+1](=O)c(c1)cc(cc1)[N+1]([O-1])=O
cas=99-65-0
InChI=InChI=1S/C6H4N2O4/c9-7(10)5-2-1-3-6(4-5)8(11)12/h1-4H
computed SMILES=O=N(=O)C1=CC=CC(=C1)N(=O)=O
license=CC BY-NC-SA
accession=JP008239
date=2016.01.19 (Created 2008.10.21, modified 2011.05.06)
author=UBE SCIENTIFIC ANALYSIS LABORATORY
exact mass=168.01711
ionization energy=70 eV
ion type=[M]+*
computed spectral entropy=2.728531211555487
computed normalized entropy=0.7447755695439251
SPLASH=splash10-00pi-9200000000-97cd4c3ebec0ccbd0bca
submitter=submitter = University of Tokyo Team (Faculty of Engineering, University of Tokyo)
MoNA Rating=3.75

>  <NUM PEAKS>  (2953) 
39

>  <MASS SPECTRAL PEAKS>  (2953) 
29 2.85
30 97.61
32 1.04
37 5.58
38 9.98
39 10.17
44 0.92
45 0.92
46 2.38
49 1.89
50 70.12
51 10.46
52 3.81
53 1.75
54 0.91
55 1.93
61 2.47
62 5.3
63 18.38
64 21.8
65 3.38
66 1.42
73 4
74 23.9
75 82.05
76 72.95
77 7.14
91 1.34
92 45.29
93 3.29
107 0.92
108 0.82
122 36.83
123 2.78
138 2.69
152 4.31
168 99.99
169 8.01
170 1.28

$$$$

     RDKit          2D

  9  9  0  0  0  0  0  0  0  0999 V2000
    2.2733   -0.6175    0.0000 C   0  0  0  0  0  0  0  0  0  0  0  0
    0.9738   -1.3683    0.0000 C   0  0  0  0  0  0  0  0  0  0  0  0
    2.2738    0.8833    0.0000 C   0  0  0  0  0  0  0  0  0  0  0  0
   -0.3252   -0.6183    0.0000 C   0  0  0  0  0  0  0  0  0  0  0  0
    0.9748    1.6333    0.0000 C   0  0  0  0  0  0  0  0  0  0  0  0
   -0.3248    0.8825    0.0000 C   0  0  0  0  0  0  0  0  0  0  0  0
   -1.6238    1.6325    0.0000 N   0  0  0  0  0  0  0  0  0  0  0  0
   -2.9228    0.8825    0.0000 O   0  0  0  0  0  0  0  0  0  0  0  0
   -1.6238    3.1325    0.0000 O   0  0  0  0  0  0  0  0  0  0  0  0
  2  1  2  0
  3  1  1  0
  4  2  1  0
  5  3  2  0
  6  4  2  0
  6  5  1  0
  7  6  1  0
  8  7  1  0
  9  7  2  0
M  CHG  2   7   1   8  -1
M  END
>  <NAME>  (2954) 
NITROBENZENE

>  <SYNONYMS>  (2954) 


>  <SPECTRUM TYPE>  (2954) 
MS1

>  <INSTRUMENT TYPE>  (2954) 
EI-B

>  <INSTRUMENT>  (2954) 
HITACHI M-60

>  <ION MODE>  (2954) 
P

>  <INCHIKEY>  (2954) 
LQNUZADURLCDLV-UHFFFAOYSA-N

>  <FORMULA>  (2954) 
C6H5NO2

>  <EXACT MASS>  (2954) 
123.0320284

>  <MW>  (2954) 
123

>  <ID>  (2954) 
JP008238

>  <CONTRIBUTOR>  (2954) 
University of Tokyo Team, {Faculty of Engineering, University of Tokyo

>  <COMMENT>  (2954) 
SMILES=[O-1][N+1](=O)c(c1)cccc1
cas=98-95-3
InChI=InChI=1S/C6H5NO2/c8-7(9)6-4-2-1-3-5-6/h1-5H
computed SMILES=O=N(=O)C=1C=CC=CC1
accession=JP008238
date=2016.01.19 (Created 2008.10.21, modified 2011.05.06)
author=UBE SCIENTIFIC ANALYSIS LABORATORY
license=CC BY-NC-SA
exact mass=123.03203
ionization energy=70 eV
ion type=[M]+*
computed spectral entropy=2.282657470507042
computed normalized entropy=0.7091474150297511
SPLASH=splash10-0fi0-9200000000-913bbd87a6a1c495c53f
submitter=submitter = University of Tokyo Team (Faculty of Engineering, University of Tokyo)
MoNA Rating=3.75

>  <NUM PEAKS>  (2954) 
25

>  <MASS SPECTRAL PEAKS>  (2954) 
27 4.18
30 11.06
37 2.79
38 3.93
39 7.73
49 1.81
50 19.03
51 55.13
52 2.87
62 1.15
63 1.83
64 1.07
65 12.31
66 0.84
73 1.87
74 6.52
75 4.04
76 3.1
77 99.99
78 7.76
93 12.44
94 0.57
107 1.11
123 54.26
124 4.28

$$$$

     RDKit          2D

 10 10  0  0  0  0  0  0  0  0999 V2000
    0.0008   -2.2500    0.0000 C   0  0  0  0  0  0  0  0  0  0  0  0
   -1.2992    0.0000    0.0000 C   0  0  0  0  0  0  0  0  0  0  0  0
   -1.2992   -3.0000    0.0000 C   0  0  0  0  0  0  0  0  0  0  0  0
   -2.5992   -0.7500    0.0000 C   0  0  0  0  0  0  0  0  0  0  0  0
    0.0008   -0.7500    0.0000 C   0  0  0  0  0  0  0  0  0  0  0  0
   -2.5992   -2.2500    0.0000 C   0  0  0  0  0  0  0  0  0  0  0  0
    1.2998    0.0002    0.0000 N   0  0  0  0  0  0  0  0  0  0  0  0
   -3.8981   -3.0002    0.0000 O   0  0  0  0  0  0  0  0  0  0  0  0
    2.5989   -0.7496    0.0000 O   0  0  0  0  0  0  0  0  0  0  0  0
    1.2995    1.5002    0.0000 O   0  0  0  0  0  0  0  0  0  0  0  0
  3  1  2  0
  4  2  1  0
  5  1  1  0
  5  2  2  0
  6  3  1  0
  6  4  2  0
  7  5  1  0
  8  6  1  0
  9  7  1  0
 10  7  2  0
M  CHG  2   7   1   9  -1
M  END
>  <NAME>  (2955) 
4-NITROPHENOL

>  <SYNONYMS>  (2955) 
4-HYDROXYNITROBENZENE

>  <SPECTRUM TYPE>  (2955) 
MS1

>  <INSTRUMENT TYPE>  (2955) 
EI-B

>  <INSTRUMENT>  (2955) 
HITACHI M-60

>  <ION MODE>  (2955) 
P

>  <INCHIKEY>  (2955) 
BTJIUGUIPKRLHP-UHFFFAOYSA-N

>  <FORMULA>  (2955) 
C6H5NO3

>  <EXACT MASS>  (2955) 
139.02694302

>  <MW>  (2955) 
139

>  <ID>  (2955) 
JP008237

>  <CONTRIBUTOR>  (2955) 
University of Tokyo Team, {Faculty of Engineering, University of Tokyo

>  <COMMENT>  (2955) 
SMILES=Oc(c1)ccc(c1)[N+1]([O-1])=O
cas=100-02-7
InChI=InChI=1S/C6H5NO3/c8-6-3-1-5(2-4-6)7(9)10/h1-4,8H
computed SMILES=O=N(=O)C1=CC=C(O)C=C1
accession=JP008237
date=2016.01.19 (Created 2008.10.21, modified 2011.05.06)
author=UBE SCIENTIFIC ANALYSIS LABORATORY
license=CC BY-NC-SA
exact mass=139.02694
ionization energy=70 eV
ion type=[M]+*
computed spectral entropy=2.4202814915389976
computed normalized entropy=0.7949626061382524
SPLASH=splash10-000i-9400000000-b5aea5436a88b29179e9
submitter=submitter = University of Tokyo Team (Faculty of Engineering, University of Tokyo)
MoNA Rating=3.75

>  <NUM PEAKS>  (2955) 
21

>  <MASS SPECTRAL PEAKS>  (2955) 
30 7.67
38 11.99
39 61.51
43 1.06
44 3.6
45 3.8
50 3.93
51 3.65
52 3.51
53 16.88
62 7.38
63 16.81
64 7.54
65 70.34
66 4.55
81 20.84
93 24.2
109 31.5
123 5.54
139 99.99
140 5.55

$$$$

     RDKit          2D

 10 10  0  0  0  0  0  0  0  0999 V2000
    1.3013    2.6340    0.0000 C   0  0  0  0  0  0  0  0  0  0  0  0
    0.0013    1.8740    0.0000 C   0  0  0  0  0  0  0  0  0  0  0  0
    2.6013    1.8740    0.0000 C   0  0  0  0  0  0  0  0  0  0  0  0
    1.3013   -0.3660    0.0000 C   0  0  0  0  0  0  0  0  0  0  0  0
    0.0013    0.3740    0.0000 C   0  0  0  0  0  0  0  0  0  0  0  0
    2.6013    0.3740    0.0000 C   0  0  0  0  0  0  0  0  0  0  0  0
   -1.2954   -0.3800    0.0000 N   0  0  0  0  0  0  0  0  0  0  0  0
    3.8981   -0.3800    0.0000 O   0  0  0  0  0  0  0  0  0  0  0  0
   -2.5967    0.3660    0.0000 O   0  0  0  0  0  0  0  0  0  0  0  0
   -1.2908   -1.8800    0.0000 O   0  0  0  0  0  0  0  0  0  0  0  0
  2  1  2  0
  3  1  1  0
  5  2  1  0
  5  4  2  0
  6  3  2  0
  6  4  1  0
  7  5  1  0
  8  6  1  0
  9  7  1  0
 10  7  2  0
M  CHG  2   7   1   9  -1
M  END
>  <NAME>  (2956) 
3-NITROPHENOL

>  <SYNONYMS>  (2956) 
3-HYDROXYNITROBENZENE

>  <SPECTRUM TYPE>  (2956) 
MS1

>  <INSTRUMENT TYPE>  (2956) 
EI-B

>  <INSTRUMENT>  (2956) 
HITACHI M-60

>  <ION MODE>  (2956) 
P

>  <INCHIKEY>  (2956) 
RTZZCYNQPHTPPL-UHFFFAOYSA-N

>  <FORMULA>  (2956) 
C6H5NO3

>  <EXACT MASS>  (2956) 
139.02694301999998

>  <MW>  (2956) 
139

>  <ID>  (2956) 
JP008236

>  <CONTRIBUTOR>  (2956) 
University of Tokyo Team, {Faculty of Engineering, University of Tokyo

>  <COMMENT>  (2956) 
SMILES=Oc(c1)cc(cc1)[N+1]([O-1])=O
cas=554-84-7
InChI=InChI=1S/C6H5NO3/c8-6-3-1-2-5(4-6)7(9)10/h1-4,8H
computed SMILES=O=N(=O)C=1C=CC=C(O)C1
accession=JP008236
date=2016.01.19 (Created 2008.10.21, modified 2011.05.06)
author=UBE SCIENTIFIC ANALYSIS LABORATORY
license=CC BY-NC-SA
exact mass=139.02694
ionization energy=70 eV
ion type=[M]+*
computed spectral entropy=2.5468478751149757
computed normalized entropy=0.7488091955046544
SPLASH=splash10-000i-9200000000-e424a07b3976804a39bc
submitter=submitter = University of Tokyo Team (Faculty of Engineering, University of Tokyo)
MoNA Rating=3.75

>  <NUM PEAKS>  (2956) 
30

>  <MASS SPECTRAL PEAKS>  (2956) 
27 6.19
28 1.43
29 3.64
30 10.58
37 3.81
38 11.85
39 70.42
40 1.92
43 2.15
50 5.24
51 4.14
53 17.06
55 1.57
61 2.72
62 7.4
63 17.25
64 8.88
65 78.2
66 6.88
74 2.25
75 1.88
81 18.79
92 1.93
93 62.29
94 4.14
109 6.16
123 2.23
139 99.99
140 7.18
141 1.45

$$$$

     RDKit          2D

 10 10  0  0  0  0  0  0  0  0999 V2000
    2.2781    2.4402    0.0000 C   0  0  0  0  0  0  0  0  0  0  0  0
    3.5681    1.6902    0.0000 C   0  0  0  0  0  0  0  0  0  0  0  0
    0.9781    1.6902    0.0000 C   0  0  0  0  0  0  0  0  0  0  0  0
    3.5681    0.1902    0.0000 C   0  0  0  0  0  0  0  0  0  0  0  0
    0.9781    0.1902    0.0000 C   0  0  0  0  0  0  0  0  0  0  0  0
    2.2781   -0.5598    0.0000 C   0  0  0  0  0  0  0  0  0  0  0  0
   -0.3208   -0.5600    0.0000 N   0  0  0  0  0  0  0  0  0  0  0  0
    2.2806   -2.0598    0.0000 O   0  0  0  0  0  0  0  0  0  0  0  0
   -1.6200    0.1898    0.0000 O   0  0  0  0  0  0  0  0  0  0  0  0
   -0.3206   -2.0600    0.0000 O   0  0  0  0  0  0  0  0  0  0  0  0
  2  1  2  0
  3  1  1  0
  4  2  1  0
  5  3  2  0
  6  4  2  0
  6  5  1  0
  7  5  1  0
  8  6  1  0
  9  7  1  0
 10  7  2  0
M  CHG  2   7   1   9  -1
M  END
>  <NAME>  (2957) 
2-NITROPHENOL

>  <SYNONYMS>  (2957) 
2-HYDROXYNITROBENZENE

>  <SPECTRUM TYPE>  (2957) 
MS1

>  <INSTRUMENT TYPE>  (2957) 
EI-B

>  <INSTRUMENT>  (2957) 
HITACHI M-60

>  <ION MODE>  (2957) 
P

>  <INCHIKEY>  (2957) 
IQUPABOKLQSFBK-UHFFFAOYSA-N

>  <FORMULA>  (2957) 
C6H5NO3

>  <EXACT MASS>  (2957) 
139.02694302

>  <MW>  (2957) 
139

>  <ID>  (2957) 
JP008235

>  <CONTRIBUTOR>  (2957) 
University of Tokyo Team, {Faculty of Engineering, University of Tokyo

>  <COMMENT>  (2957) 
SMILES=[O-1][N+1](=O)c(c1)c(O)ccc1
cas=88-75-5
InChI=InChI=1S/C6H5NO3/c8-6-4-2-1-3-5(6)7(9)10/h1-4,8H
computed SMILES=O=N(=O)C=1C=CC=CC1O
accession=JP008235
date=2016.01.19 (Created 2008.10.21, modified 2011.05.06)
author=UBE SCIENTIFIC ANALYSIS LABORATORY
license=CC BY-NC-SA
exact mass=139.02694
ionization energy=70 eV
ion type=[M]+*
computed spectral entropy=3.1274437883091575
computed normalized entropy=0.7877112958959007
SPLASH=splash10-000i-9300000000-bf9c9dea087904b89a90
submitter=submitter = University of Tokyo Team (Faculty of Engineering, University of Tokyo)
MoNA Rating=3.75

>  <NUM PEAKS>  (2957) 
53

>  <MASS SPECTRAL PEAKS>  (2957) 
18 4.16
26 3.1
27 8.59
28 1.63
29 2.83
30 9.83
37 5.25
38 13.97
39 42.99
40 2.22
41 1.09
42 1.16
43 1.57
44 3.09
45 1.35
50 5.64
51 9.62
52 5.29
53 17.38
54 1.6
55 2.64
61 3.2
62 7.76
63 30.57
64 23.91
65 38.92
66 5.6
67 0.98
73 0.96
74 1.66
75 1.7
76 1.01
77 0.72
78 4.19
79 1.02
80 3.05
81 21.02
82 1.11
91 1.18
92 9.06
93 12.88
94 5.58
95 0.75
106 3.26
108 0.79
109 17.67
110 1.5
119 1.06
122 7.01
123 2.61
139 99.99
140 7.06
141 0.86

$$$$

     RDKit          2D

 13 13  0  0  0  0  0  0  0  0999 V2000
    5.1970    1.5006    0.0000 C   0  0  0  0  0  0  0  0  0  0  0  0
   -1.3000    0.7500    0.0000 C   0  0  0  0  0  0  0  0  0  0  0  0
   -0.0000   -1.5000    0.0000 C   0  0  0  0  0  0  0  0  0  0  0  0
    0.0000    1.5000    0.0000 C   0  0  0  0  0  0  0  0  0  0  0  0
    1.3000   -0.7500    0.0000 C   0  0  0  0  0  0  0  0  0  0  0  0
    3.8981    0.7504    0.0000 C   0  0  0  0  0  0  0  0  0  0  0  0
   -1.3000   -0.7500    0.0000 C   0  0  0  0  0  0  0  0  0  0  0  0
    1.3000    0.7500    0.0000 C   0  0  0  0  0  0  0  0  0  0  0  0
   -2.5989   -1.5002    0.0000 N   0  0  0  0  0  0  0  0  0  0  0  0
    3.8983   -0.7496    0.0000 O   0  0  0  0  0  0  0  0  0  0  0  0
   -3.8981   -0.7504    0.0000 O   0  0  0  0  0  0  0  0  0  0  0  0
   -2.5987   -3.0002    0.0000 O   0  0  0  0  0  0  0  0  0  0  0  0
    2.5989    1.5002    0.0000 O   0  0  0  0  0  0  0  0  0  0  0  0
  4  2  2  0
  5  3  1  0
  6  1  1  0
  7  2  1  0
  7  3  2  0
  8  4  1  0
  8  5  2  0
  9  7  1  0
 10  6  2  0
 11  9  1  0
 12  9  2  0
 13  6  1  0
 13  8  1  0
M  CHG  2   9   1  11  -1
M  END
>  <NAME>  (2958) 
4-ACETOXYNITROBENZENE

>  <SYNONYMS>  (2958) 


>  <SPECTRUM TYPE>  (2958) 
MS1

>  <INSTRUMENT TYPE>  (2958) 
EI-B

>  <INSTRUMENT>  (2958) 
HITACHI M-60

>  <ION MODE>  (2958) 
P

>  <INCHIKEY>  (2958) 
QAUUDNIGJSLPSX-UHFFFAOYSA-N

>  <FORMULA>  (2958) 
C8H7NO4

>  <EXACT MASS>  (2958) 
181.03750770399998

>  <MW>  (2958) 
181

>  <ID>  (2958) 
JP008234

>  <CONTRIBUTOR>  (2958) 
University of Tokyo Team, {Faculty of Engineering, University of Tokyo

>  <COMMENT>  (2958) 
SMILES=CC(=O)Oc(c1)ccc(c1)[N+1]([O-1])=O
InChI=InChI=1S/C8H7NO4/c1-6(10)13-8-4-2-7(3-5-8)9(11)12/h2-5H,1H3
computed SMILES=O=C(OC1=CC=C(C=C1)N(=O)=O)C
accession=JP008234
date=2016.01.19 (Created 2008.10.21, modified 2011.05.06)
author=UBE SCIENTIFIC ANALYSIS LABORATORY
license=CC BY-NC-SA
exact mass=181.03751
ionization energy=70 eV
ion type=[M]+*
computed spectral entropy=1.8809894570494312
computed normalized entropy=0.6507776904167374
SPLASH=splash10-0006-9100000000-37bcbed03e2c36fc88ac
submitter=submitter = University of Tokyo Team (Faculty of Engineering, University of Tokyo)
MoNA Rating=3.75

>  <NUM PEAKS>  (2958) 
18

>  <MASS SPECTRAL PEAKS>  (2958) 
15 6.55
28 8.56
29 2.14
30 2.03
38 2.8
39 5.23
42 2.83
43 99.99
44 3.99
63 4.93
64 2.47
65 6.05
81 2.17
93 4.44
109 6.15
123 3.46
139 8.58
181 5.38

$$$$

     RDKit          2D

 13 13  0  0  0  0  0  0  0  0999 V2000
   -5.1948    1.1419    0.0000 C   0  0  0  0  0  0  0  0  0  0  0  0
   -0.0000   -1.8800    0.0000 C   0  0  0  0  0  0  0  0  0  0  0  0
    1.3000   -1.1200    0.0000 C   0  0  0  0  0  0  0  0  0  0  0  0
   -1.3000   -1.1200    0.0000 C   0  0  0  0  0  0  0  0  0  0  0  0
   -0.0000    1.1200    0.0000 C   0  0  0  0  0  0  0  0  0  0  0  0
   -3.8981    0.3879    0.0000 C   0  0  0  0  0  0  0  0  0  0  0  0
    1.3000    0.3800    0.0000 C   0  0  0  0  0  0  0  0  0  0  0  0
   -1.3000    0.3800    0.0000 C   0  0  0  0  0  0  0  0  0  0  0  0
    2.5967    1.1340    0.0000 N   0  0  0  0  0  0  0  0  0  0  0  0
   -3.9026   -1.1121    0.0000 O   0  0  0  0  0  0  0  0  0  0  0  0
    3.8981    0.3879    0.0000 O   0  0  0  0  0  0  0  0  0  0  0  0
    2.5922    2.6340    0.0000 O   0  0  0  0  0  0  0  0  0  0  0  0
   -2.5967    1.1340    0.0000 O   0  0  0  0  0  0  0  0  0  0  0  0
  3  2  2  0
  4  2  1  0
  6  1  1  0
  7  3  1  0
  7  5  2  0
  8  4  2  0
  8  5  1  0
  9  7  1  0
 10  6  2  0
 11  9  1  0
 12  9  2  0
 13  6  1  0
 13  8  1  0
M  CHG  2   9   1  11  -1
M  END
>  <NAME>  (2959) 
3-ACETOXYNITROBENZENE

>  <SYNONYMS>  (2959) 


>  <SPECTRUM TYPE>  (2959) 
MS1

>  <INSTRUMENT TYPE>  (2959) 
EI-B

>  <INSTRUMENT>  (2959) 
HITACHI M-60

>  <ION MODE>  (2959) 
P

>  <INCHIKEY>  (2959) 
HRMRLUUZPLAPAS-UHFFFAOYSA-N

>  <FORMULA>  (2959) 
C8H7NO4

>  <EXACT MASS>  (2959) 
181.037507704

>  <MW>  (2959) 
181

>  <ID>  (2959) 
JP008233

>  <CONTRIBUTOR>  (2959) 
University of Tokyo Team, {Faculty of Engineering, University of Tokyo

>  <COMMENT>  (2959) 
SMILES=CC(=O)Oc(c1)cc(cc1)[N+1]([O-1])=O
InChI=InChI=1S/C8H7NO4/c1-6(10)13-8-4-2-3-7(5-8)9(11)12/h2-5H,1H3
computed SMILES=O=C(OC1=CC=CC(=C1)N(=O)=O)C
accession=JP008233
date=2016.01.19 (Created 2008.10.21, modified 2011.05.06)
author=UBE SCIENTIFIC ANALYSIS LABORATORY
license=CC BY-NC-SA
exact mass=181.03751
ionization energy=70 eV
ion type=[M]+*
computed spectral entropy=1.69082293661782
computed normalized entropy=0.5644105621667954
SPLASH=splash10-0006-9000000000-f3b1f384fbe14fffe733
submitter=submitter = University of Tokyo Team (Faculty of Engineering, University of Tokyo)
MoNA Rating=3.75

>  <NUM PEAKS>  (2959) 
20

>  <MASS SPECTRAL PEAKS>  (2959) 
14 1.46
15 4.92
30 2.22
38 2.3
39 3.8
42 1.36
43 99.99
44 3.58
50 1.28
62 1.43
63 4.61
64 2.63
65 4.75
81 1.83
92 1
93 7.71
109 1.63
123 1.03
139 6.84
181 5.32

$$$$

     RDKit          2D

 13 13  0  0  0  0  0  0  0  0999 V2000
   -1.6353    4.6878    0.0000 C   0  0  0  0  0  0  0  0  0  0  0  0
   -0.3300   -2.0600    0.0000 C   0  0  0  0  0  0  0  0  0  0  0  0
   -1.6200   -1.3100    0.0000 C   0  0  0  0  0  0  0  0  0  0  0  0
    0.9700   -1.3100    0.0000 C   0  0  0  0  0  0  0  0  0  0  0  0
   -1.6200    0.1900    0.0000 C   0  0  0  0  0  0  0  0  0  0  0  0
   -1.6328    3.1878    0.0000 C   0  0  0  0  0  0  0  0  0  0  0  0
    0.9700    0.1900    0.0000 C   0  0  0  0  0  0  0  0  0  0  0  0
   -0.3300    0.9400    0.0000 C   0  0  0  0  0  0  0  0  0  0  0  0
    2.2689    0.9402    0.0000 N   0  0  0  0  0  0  0  0  0  0  0  0
   -2.9306    2.4356    0.0000 O   0  0  0  0  0  0  0  0  0  0  0  0
    3.5681    0.1904    0.0000 O   0  0  0  0  0  0  0  0  0  0  0  0
    2.2687    2.4402    0.0000 O   0  0  0  0  0  0  0  0  0  0  0  0
   -0.3325    2.4400    0.0000 O   0  0  0  0  0  0  0  0  0  0  0  0
  3  2  2  0
  4  2  1  0
  5  3  1  0
  6  1  1  0
  7  4  2  0
  8  5  2  0
  8  7  1  0
  9  7  1  0
 10  6  2  0
 11  9  1  0
 12  9  2  0
 13  6  1  0
 13  8  1  0
M  CHG  2   9   1  11  -1
M  END
>  <NAME>  (2960) 
2-ACETOXYNITROBENZENE

>  <SYNONYMS>  (2960) 


>  <SPECTRUM TYPE>  (2960) 
MS1

>  <INSTRUMENT TYPE>  (2960) 
EI-B

>  <INSTRUMENT>  (2960) 
HITACHI M-60

>  <ION MODE>  (2960) 
P

>  <INCHIKEY>  (2960) 
MRCKRGSNLOHYRA-UHFFFAOYSA-N

>  <FORMULA>  (2960) 
C8H7NO4

>  <EXACT MASS>  (2960) 
181.037507704

>  <MW>  (2960) 
181

>  <ID>  (2960) 
JP008232

>  <CONTRIBUTOR>  (2960) 
University of Tokyo Team, {Faculty of Engineering, University of Tokyo

>  <COMMENT>  (2960) 
SMILES=CC(=O)Oc(c1)c(ccc1)[N+1]([O-1])=O
InChI=InChI=1S/C8H7NO4/c1-6(10)13-8-5-3-2-4-7(8)9(11)12/h2-5H,1H3
computed SMILES=O=C(OC=1C=CC=CC1N(=O)=O)C
accession=JP008232
date=2016.01.19 (Created 2008.10.21, modified 2011.05.06)
author=UBE SCIENTIFIC ANALYSIS LABORATORY
license=CC BY-NC-SA
exact mass=181.03751
ionization energy=70 eV
ion type=[M]+*
computed spectral entropy=2.063373229062192
computed normalized entropy=0.6260544174213633
SPLASH=splash10-0006-9200000000-98eca8b0e16144f9c27a
submitter=submitter = University of Tokyo Team (Faculty of Engineering, University of Tokyo)
MoNA Rating=3.75

>  <NUM PEAKS>  (2960) 
27

>  <MASS SPECTRAL PEAKS>  (2960) 
14 1.2
15 6.8
30 3.6
38 3.33
39 3.97
42 2.33
43 99.99
44 3.01
50 2.01
51 2.17
52 1.81
53 1.73
62 1.8
63 6.84
64 4.74
65 4.74
81 2.95
92 1.32
93 2.13
94 0.92
106 1.35
109 2.51
122 1.24
123 1.5
139 37.27
140 2.7
181 3.04

$$$$

     RDKit          2D

  4  3  0  0  0  0  0  0  0  0999 V2000
   -0.6495    1.8750    0.0000 C   0  0  0  0  0  0  0  0  0  0  0  0
    0.6495    2.6250    0.0000 C   0  0  0  0  0  0  0  0  0  0  0  0
   -1.9486    1.1250    0.0000 N   0  0  0  0  0  0  0  0  0  0  0  0
    1.9486    3.3750    0.0000 N   0  0  0  0  0  0  0  0  0  0  0  0
  2  1  1  0
  3  1  3  0
  4  2  3  0
M  END
>  <NAME>  (2961) 
DICYAN

>  <SYNONYMS>  (2961) 
CYANOGEN

>  <SPECTRUM TYPE>  (2961) 
MS1

>  <INSTRUMENT TYPE>  (2961) 
EI-B

>  <INSTRUMENT>  (2961) 
HITACHI M-60

>  <ION MODE>  (2961) 
P

>  <INCHIKEY>  (2961) 
JMANVNJQNLATNU-UHFFFAOYSA-N

>  <FORMULA>  (2961) 
C2N2

>  <EXACT MASS>  (2961) 
52.006147999999996

>  <MW>  (2961) 
52

>  <ID>  (2961) 
JP008231

>  <CONTRIBUTOR>  (2961) 
University of Tokyo Team, {Faculty of Engineering, University of Tokyo

>  <COMMENT>  (2961) 
SMILES=N#CC#N
cas=460-19-5
InChI=InChI=1S/C2N2/c3-1-2-4
computed SMILES=N#CC#N
accession=JP008231
date=2016.01.19 (Created 2008.10.21, modified 2011.05.06)
author=UBE SCIENTIFIC ANALYSIS LABORATORY
license=CC BY-NC-SA
exact mass=52.00615
ionization energy=70 eV
ion type=[M]+*
computed spectral entropy=1.22493396699292
computed normalized entropy=0.4775665310621201
SPLASH=splash10-0udi-9000000000-c482a6f640de951a3bb9
submitter=submitter = University of Tokyo Team (Faculty of Engineering, University of Tokyo)
MoNA Rating=3.75

>  <NUM PEAKS>  (2961) 
13

>  <MASS SPECTRAL PEAKS>  (2961) 
12 2.98
14 1.66
15 0.61
24 3.92
26 14.5
28 1.67
29 1.39
30 5.8
31 0.65
38 2.55
44 3.06
52 99.99
53 2.99

$$$$

     RDKit          2D

 14 14  0  0  0  0  0  0  0  0999 V2000
   -2.5987   -2.7002    0.0000 C   0  0  0  0  0  0  0  0  0  0  0  0
    3.8981   -0.4504    0.0000 C   0  0  0  0  0  0  0  0  0  0  0  0
   -1.2990   -3.4500    0.0000 C   0  0  0  0  0  0  0  0  0  0  0  0
   -1.3000    1.0500    0.0000 C   0  0  0  0  0  0  0  0  0  0  0  0
    1.3000    1.0500    0.0000 C   0  0  0  0  0  0  0  0  0  0  0  0
    0.0000    3.3000    0.0000 C   0  0  0  0  0  0  0  0  0  0  0  0
    0.0000    1.8000    0.0000 C   0  0  0  0  0  0  0  0  0  0  0  0
   -1.3000   -0.4500    0.0000 C   0  0  0  0  0  0  0  0  0  0  0  0
    1.3000   -0.4500    0.0000 C   0  0  0  0  0  0  0  0  0  0  0  0
    0.0000   -1.2000    0.0000 C   0  0  0  0  0  0  0  0  0  0  0  0
   -1.2990    4.0500    0.0000 O   0  0  0  0  0  0  0  0  0  0  0  0
   -2.5989   -1.2002    0.0000 O   0  0  0  0  0  0  0  0  0  0  0  0
    2.5989   -1.2002    0.0000 O   0  0  0  0  0  0  0  0  0  0  0  0
   -0.0000   -2.7000    0.0000 O   0  0  0  0  0  0  0  0  0  0  0  0
  7  4  2  0
  7  5  1  0
  7  6  1  0
  8  4  1  0
  9  5  2  0
 10  8  2  0
 10  9  1  0
 11  6  2  0
 12  1  1  0
 12  8  1  0
 13  2  1  0
 13  9  1  0
 14  3  1  0
 14 10  1  0
M  END
>  <NAME>  (2962) 
3,4,5-TRIMETHOXYBENZALDEHYDE

>  <SYNONYMS>  (2962) 


>  <SPECTRUM TYPE>  (2962) 
MS1

>  <INSTRUMENT TYPE>  (2962) 
EI-B

>  <INSTRUMENT>  (2962) 
HITACHI M-60

>  <ION MODE>  (2962) 
P

>  <INCHIKEY>  (2962) 
OPHQOIGEOHXOGX-UHFFFAOYSA-N

>  <FORMULA>  (2962) 
C10H12O4

>  <EXACT MASS>  (2962) 
196.073558864

>  <MW>  (2962) 
196

>  <ID>  (2962) 
JP008230

>  <CONTRIBUTOR>  (2962) 
University of Tokyo Team, {Faculty of Engineering, University of Tokyo

>  <COMMENT>  (2962) 
SMILES=O=Cc(c1)cc(OC)c(OC)c(OC)1
cas=86-81-7
InChI=InChI=1S/C10H12O4/c1-12-8-4-7(6-11)5-9(13-2)10(8)14-3/h4-6H,1-3H3
computed SMILES=O=CC1=CC(OC)=C(OC)C(OC)=C1
accession=JP008230
date=2016.01.19 (Created 2008.10.21, modified 2011.05.06)
author=UBE SCIENTIFIC ANALYSIS LABORATORY
license=CC BY-NC-SA
exact mass=196.07356
ionization energy=70 eV
ion type=[M]+*
computed spectral entropy=3.5824997046527343
computed normalized entropy=0.810732955230785
SPLASH=splash10-000t-5900000000-40f393144b6202240307
submitter=submitter = University of Tokyo Team (Faculty of Engineering, University of Tokyo)
MoNA Rating=3.75

>  <NUM PEAKS>  (2962) 
83

>  <MASS SPECTRAL PEAKS>  (2962) 
15 10.7
27 2.44
29 5.64
37 1.88
38 6.19
39 22.64
41 2.9
43 2.42
45 1.69
49 1.2
50 7.12
51 10.36
52 2.61
53 8.55
54 1.31
55 1.78
59 1.64
61 1.12
62 2.65
63 3.92
64 1.71
65 11.62
66 7.94
67 7.74
68 0.83
69 1.62
74 1.02
75 2.44
76 1.95
77 10.16
78 3.1
79 7.42
80 1.73
81 3.98
82 5.35
91 1.23
92 2.17
93 21.05
94 3.05
95 15.78
96 2.38
97 3.08
104 1.42
105 2.17
106 1.05
107 3.37
108 2.29
109 3.13
110 22.49
111 1.97
119 2.27
120 1.29
121 4.4
122 2.24
123 5.7
124 1.91
125 31.23
126 3.05
129 2.89
135 6.64
136 7.37
137 3.65
138 6.71
139 1.79
149 1.09
150 1.69
151 1.48
152 2.96
153 9.36
154 1.01
165 2.48
166 3.52
167 5.15
168 0.9
179 2.96
180 2.43
181 77.66
182 8.37
183 1.21
195 10.39
196 99.99
197 17.37
198 2.2

$$$$

     RDKit          2D

 13 13  0  0  0  0  0  0  0  0999 V2000
    2.8302    1.6379    0.0000 C   0  0  0  0  0  0  0  0  0  0  0  0
   -3.6598   -0.6066    0.0000 C   0  0  0  0  0  0  0  0  0  0  0  0
    1.5367   -3.6068    0.0000 C   0  0  0  0  0  0  0  0  0  0  0  0
    0.2333    1.6360    0.0000 C   0  0  0  0  0  0  0  0  0  0  0  0
    1.5323    0.8860    0.0000 C   0  0  0  0  0  0  0  0  0  0  0  0
   -1.0612    0.8938    0.0000 C   0  0  0  0  0  0  0  0  0  0  0  0
    1.5369   -0.6062    0.0000 C   0  0  0  0  0  0  0  0  0  0  0  0
   -1.0617   -0.6070    0.0000 C   0  0  0  0  0  0  0  0  0  0  0  0
    0.2373   -1.3570    0.0000 C   0  0  0  0  0  0  0  0  0  0  0  0
   -2.3590    1.6460    0.0000 O   0  0  0  0  0  0  0  0  0  0  0  0
    2.8371   -1.3540    0.0000 O   0  0  0  0  0  0  0  0  0  0  0  0
   -2.3609   -1.3568    0.0000 O   0  0  0  0  0  0  0  0  0  0  0  0
    0.2376   -2.8570    0.0000 O   0  0  0  0  0  0  0  0  0  0  0  0
  5  1  1  0
  5  4  2  0
  6  4  1  0
  7  5  1  0
  8  6  1  0
  9  7  1  0
  9  8  2  0
 10  6  2  0
 11  7  2  0
 12  2  1  0
 12  8  1  0
 13  3  1  0
 13  9  1  0
M  END
>  <NAME>  (2963) 
2,3-DIMETHOXY-5-METHYL-1,4-BENZOQUINONE

>  <SYNONYMS>  (2963) 
COENZYME Q0

>  <SPECTRUM TYPE>  (2963) 
MS1

>  <INSTRUMENT TYPE>  (2963) 
EI-B

>  <INSTRUMENT>  (2963) 
HITACHI M-60

>  <ION MODE>  (2963) 
P

>  <INCHIKEY>  (2963) 
UIXPTCZPFCVOQF-UHFFFAOYSA-N

>  <FORMULA>  (2963) 
C9H10O4

>  <EXACT MASS>  (2963) 
182.0579088

>  <MW>  (2963) 
182

>  <ID>  (2963) 
JP008229

>  <CONTRIBUTOR>  (2963) 
University of Tokyo Team, {Faculty of Engineering, University of Tokyo

>  <COMMENT>  (2963) 
SMILES=COc(c(=O)1)c(OC)c(=O)c(C)c1
cas=605-94-7
InChI=InChI=1S/C9H10O4/c1-5-4-6(10)8(12-2)9(13-3)7(5)11/h4H,1-3H3
computed SMILES=O=C1C=C(C(=O)C(OC)=C1OC)C
accession=JP008229
date=2016.01.19 (Created 2008.10.21, modified 2011.05.06)
author=UBE SCIENTIFIC ANALYSIS LABORATORY
license=CC BY-NC-SA
exact mass=182.05791
ionization energy=70 eV
ion type=[M]+*
computed spectral entropy=3.490023526632023
computed normalized entropy=0.8134381817388485
SPLASH=splash10-015i-9700000000-59c51939f97dd54fba00
submitter=submitter = University of Tokyo Team (Faculty of Engineering, University of Tokyo)
MoNA Rating=3.75

>  <NUM PEAKS>  (2963) 
73

>  <MASS SPECTRAL PEAKS>  (2963) 
14 5.05
15 70.96
26 2.97
27 14.56
29 11.85
37 3.21
38 10.42
39 55.34
40 50.53
41 9.92
42 2.55
43 13.1
50 4.79
51 6.36
52 10.03
53 13.9
54 2.09
55 5.06
56 2.28
59 1.12
63 1.15
65 2.23
66 2.63
67 12.19
68 38.52
69 31.24
70 1.23
71 1.69
78 1.02
79 2.75
80 6.27
81 9.28
82 1.69
83 60.53
84 3.39
86 2.49
93 3.12
94 1.51
95 4.13
96 12.73
97 2.01
99 1.56
107 1.83
108 5.5
109 2.84
111 23.38
112 1.77
121 6.89
122 1.75
123 3.64
125 4.06
126 4.88
135 2.17
136 19.83
137 99.99
138 9.6
139 20.48
140 2.55
141 1.18
151 3.74
152 2.67
153 14.84
154 4.06
164 2.56
167 33
168 1.32
169 10.09
170 1.14
181 2.13
182 97.26
183 14.8
184 16.61
185 1.42

$$$$

     RDKit          2D

  8  7  0  0  0  0  0  0  0  0999 V2000
    1.9486    3.3750    0.0000 C   0  0  0  0  0  0  0  0  0  0  0  0
   -5.8457    3.3750    0.0000 C   0  0  0  0  0  0  0  0  0  0  0  0
    0.6495    4.1250    0.0000 C   0  0  0  0  0  0  0  0  0  0  0  0
   -0.6495    3.3750    0.0000 C   0  0  0  0  0  0  0  0  0  0  0  0
   -1.9486    4.1250    0.0000 C   0  0  0  0  0  0  0  0  0  0  0  0
   -3.2476    3.3750    0.0000 C   0  0  0  0  0  0  0  0  0  0  0  0
   -3.2476    1.8750    0.0000 O   0  0  0  0  0  0  0  0  0  0  0  0
   -4.5466    4.1250    0.0000 O   0  0  0  0  0  0  0  0  0  0  0  0
  3  1  1  0
  3  4  2  0
  5  4  1  0
  6  5  1  0
  7  6  2  0
  8  2  1  0
  8  6  1  0
M  END
>  <NAME>  (2964) 
METHYL 3-PENTENOATE

>  <SYNONYMS>  (2964) 


>  <SPECTRUM TYPE>  (2964) 
MS1

>  <INSTRUMENT TYPE>  (2964) 
EI-B

>  <INSTRUMENT>  (2964) 
HITACHI M-60

>  <ION MODE>  (2964) 
P

>  <INCHIKEY>  (2964) 
KJALUUCEMMPKAC-ONEGZZNKSA-N

>  <FORMULA>  (2964) 
C6H10O2

>  <EXACT MASS>  (2964) 
114.06807956

>  <MW>  (2964) 
114

>  <ID>  (2964) 
JP008228

>  <CONTRIBUTOR>  (2964) 
University of Tokyo Team, {Faculty of Engineering, University of Tokyo

>  <COMMENT>  (2964) 
SMILES=CC=CCC(=O)OC
cas=818-58-6
InChI=InChI=1S/C6H10O2/c1-3-4-5-6(7)8-2/h3-4H,5H2,1-2H3/b4-3+
computed SMILES=O=C(OC)CC=CC
accession=JP008228
date=2016.01.19 (Created 2008.10.21, modified 2011.05.06)
author=UBE SCIENTIFIC ANALYSIS LABORATORY
license=CC BY-NC-SA
exact mass=114.06808
ionization energy=70 eV
ion type=[M]+*
computed spectral entropy=2.6119590660708294
computed normalized entropy=0.7925025334270894
SPLASH=splash10-0a4i-9000000000-e69b78d23732260dfa38
submitter=submitter = University of Tokyo Team (Faculty of Engineering, University of Tokyo)
MoNA Rating=3.75

>  <NUM PEAKS>  (2964) 
27

>  <MASS SPECTRAL PEAKS>  (2964) 
15 31.11
16 1.4
26 2.73
27 24.93
28 4.85
29 35.68
39 17.34
40 1.88
41 4.41
42 4.66
43 6.56
50 1.74
51 2.75
53 9.96
54 14.53
55 99.99
56 4.81
59 37.93
71 3.31
72 12.47
74 1.66
81 1.1
82 10.38
83 8.54
99 1.41
114 29.72
115 1.97

$$$$

     RDKit          2D

 11 10  0  0  0  0  0  0  0  0999 V2000
    2.5981    4.5000    0.0000 C   0  0  0  0  0  0  0  0  0  0  0  0
   -7.7942    4.5000    0.0000 C   0  0  0  0  0  0  0  0  0  0  0  0
   -2.5981    4.5000    0.0000 C   0  0  0  0  0  0  0  0  0  0  0  0
   -1.2990    5.2500    0.0000 C   0  0  0  0  0  0  0  0  0  0  0  0
   -3.8971    5.2500    0.0000 C   0  0  0  0  0  0  0  0  0  0  0  0
    0.0000    4.5000    0.0000 C   0  0  0  0  0  0  0  0  0  0  0  0
   -5.1962    4.5000    0.0000 C   0  0  0  0  0  0  0  0  0  0  0  0
    0.0000    3.0000    0.0000 O   0  0  0  0  0  0  0  0  0  0  0  0
   -5.1962    3.0000    0.0000 O   0  0  0  0  0  0  0  0  0  0  0  0
    1.2990    5.2500    0.0000 O   0  0  0  0  0  0  0  0  0  0  0  0
   -6.4952    5.2500    0.0000 O   0  0  0  0  0  0  0  0  0  0  0  0
  4  3  1  0
  5  3  1  0
  6  4  1  0
  7  5  1  0
  8  6  2  0
  9  7  2  0
 10  1  1  0
 10  6  1  0
 11  2  1  0
 11  7  1  0
M  END
>  <NAME>  (2965) 
DIMETHYL GLUTARATE

>  <SYNONYMS>  (2965) 


>  <SPECTRUM TYPE>  (2965) 
MS1

>  <INSTRUMENT TYPE>  (2965) 
EI-B

>  <INSTRUMENT>  (2965) 
HITACHI M-60

>  <ION MODE>  (2965) 
P

>  <INCHIKEY>  (2965) 
XTDYIOOONNVFMA-UHFFFAOYSA-N

>  <FORMULA>  (2965) 
C7H12O4

>  <EXACT MASS>  (2965) 
160.073558864

>  <MW>  (2965) 
160

>  <ID>  (2965) 
JP008227

>  <CONTRIBUTOR>  (2965) 
University of Tokyo Team, {Faculty of Engineering, University of Tokyo

>  <COMMENT>  (2965) 
SMILES=COC(=O)CCCC(=O)OC
cas=1119-40-0
InChI=InChI=1S/C7H12O4/c1-10-6(8)4-3-5-7(9)11-2/h3-5H2,1-2H3
computed SMILES=O=C(OC)CCCC(=O)OC
computed spectral entropy=2.9165454459932203
accession=JP008227
date=2016.01.19 (Created 2008.10.21, modified 2011.05.06)
author=UBE SCIENTIFIC ANALYSIS LABORATORY
license=CC BY-NC-SA
exact mass=160.07356
ionization energy=70 eV
ion type=[M]+*
computed normalized entropy=0.8017804439338968
SPLASH=splash10-0pdi-9400000000-95aa64fbd2999abdf4ab
submitter=submitter = University of Tokyo Team (Faculty of Engineering, University of Tokyo)
MoNA Rating=3.75

>  <NUM PEAKS>  (2965) 
38

>  <MASS SPECTRAL PEAKS>  (2965) 
14 1.88
15 51.48
17 1.46
18 3.87
27 9.28
29 12.14
31 4.24
39 9.62
40 2.27
41 21.6
42 28.02
43 17.53
44 0.94
45 4.43
49 1.77
55 46.09
56 3.9
57 1.67
58 8.71
59 99.99
60 3.47
68 2.44
69 4.36
70 2.34
72 5.45
74 9.61
85 3.35
87 15.91
88 1.41
97 8.56
98 0.97
99 1.35
100 58.46
101 43.53
102 2.31
128 32.75
129 54.84
130 4.56

$$$$

     RDKit          2D

 12 12  0  0  0  0  0  0  0  0999 V2000
   -3.5381    0.5444    0.0000 C   0  0  0  0  0  0  0  0  0  0  0  0
    1.6590    2.0456    0.0000 C   0  0  0  0  0  0  0  0  0  0  0  0
    0.3600    2.7956    0.0000 C   0  0  0  0  0  0  0  0  0  0  0  0
    0.3590   -0.2060    0.0000 C   0  0  0  0  0  0  0  0  0  0  0  0
    1.6586    0.5448    0.0000 C   0  0  0  0  0  0  0  0  0  0  0  0
   -0.9395    2.0448    0.0000 C   0  0  0  0  0  0  0  0  0  0  0  0
   -0.9400    0.5440    0.0000 C   0  0  0  0  0  0  0  0  0  0  0  0
    2.9576   -0.2052    0.0000 C   0  0  0  0  0  0  0  0  0  0  0  0
   -2.2386    2.7948    0.0000 O   0  0  0  0  0  0  0  0  0  0  0  0
    2.9576   -1.7052    0.0000 O   0  0  0  0  0  0  0  0  0  0  0  0
    4.2566    0.5448    0.0000 O   0  0  0  0  0  0  0  0  0  0  0  0
   -2.2392   -0.2058    0.0000 O   0  0  0  0  0  0  0  0  0  0  0  0
  3  2  2  0
  5  2  1  0
  5  4  2  0
  6  3  1  0
  7  4  1  0
  7  6  2  0
  8  5  1  0
  9  6  1  0
 10  8  2  0
 11  8  1  0
 12  1  1  0
 12  7  1  0
M  END
>  <NAME>  (2966) 
4-HYDROXY-3-METHOXYBENZOIC ACID

>  <SYNONYMS>  (2966) 
VANILLIC ACID

>  <SPECTRUM TYPE>  (2966) 
MS1

>  <INSTRUMENT TYPE>  (2966) 
EI-B

>  <INSTRUMENT>  (2966) 
HITACHI M-80

>  <ION MODE>  (2966) 
P

>  <INCHIKEY>  (2966) 
WKOLLVMJNQIZCI-UHFFFAOYSA-N

>  <FORMULA>  (2966) 
C8H8O4

>  <EXACT MASS>  (2966) 
168.042258736

>  <MW>  (2966) 
168

>  <ID>  (2966) 
JP008196

>  <CONTRIBUTOR>  (2966) 
University of Tokyo Team, {Faculty of Engineering, University of Tokyo

>  <COMMENT>  (2966) 
SMILES=COc(c1)c(O)ccc(C(O)=O)1
cas=121-34-6
InChI=InChI=1S/C8H8O4/c1-12-7-4-5(8(10)11)2-3-6(7)9/h2-4,9H,1H3,(H,10,11)
computed SMILES=O=C(O)C1=CC=C(O)C(OC)=C1
accession=JP008196
date=2016.01.19 (Created 2008.10.21, modified 2011.05.06)
author=NARA WOMEN'S UNIVERSITY
license=CC BY-NC-SA
exact mass=168.04226
ionization energy=70 eV
ion type=[M]+*
computed spectral entropy=2.31134245168931
computed normalized entropy=0.6669124585696613
SPLASH=splash10-0gb9-2900000000-ccd8d4a214bc1a7f08c5
submitter=submitter = University of Tokyo Team (Faculty of Engineering, University of Tokyo)
MoNA Rating=3.75

>  <NUM PEAKS>  (2966) 
32

>  <MASS SPECTRAL PEAKS>  (2966) 
39 1.55
41 1.75
45 1.06
50 1.58
51 3.72
52 3.81
53 2.36
55 1.35
63 1.99
65 2.08
69 1.49
77 1.47
79 3.6
80 1.56
81 1.75
92 1
97 17.39
107 1.73
108 3.02
119 1.23
121 1.19
123 3.5
125 13.6
137 2.6
151 13.78
152 1.35
153 46.24
154 4.83
162 1.02
168 99.99
169 14.34
170 1.6

$$$$

     RDKit          2D

  4  3  0  0  0  0  0  0  0  0999 V2000
    0.0000    0.0000    0.0000 C   0  0  0  0  0  0  0  0  0  0  0  0
   -1.2990    2.2500    0.0000 C   0  0  0  0  0  0  0  0  0  0  0  0
    0.0000    1.5000    0.0000 N   0  0  0  0  0  0  0  0  0  0  0  0
   -2.5981    3.0000    0.0000 S   0  0  0  0  0  0  0  0  0  0  0  0
  3  1  1  0
  3  2  2  0
  4  2  2  0
M  END
>  <NAME>  (2967) 
METHYL ISOTHIOCYANATE

>  <SYNONYMS>  (2967) 


>  <SPECTRUM TYPE>  (2967) 
MS1

>  <INSTRUMENT TYPE>  (2967) 
EI-B

>  <INSTRUMENT>  (2967) 
HITACHI M-80

>  <ION MODE>  (2967) 
P

>  <INCHIKEY>  (2967) 
LGDSHSYDSCRFAB-UHFFFAOYSA-N

>  <FORMULA>  (2967) 
C2H3NS

>  <EXACT MASS>  (2967) 
72.998620096

>  <MW>  (2967) 
73

>  <ID>  (2967) 
JP008195

>  <CONTRIBUTOR>  (2967) 
University of Tokyo Team, {Faculty of Engineering, University of Tokyo

>  <COMMENT>  (2967) 
SMILES=CN=C=S
cas=556-61-6
InChI=InChI=1S/C2H3NS/c1-3-2-4/h1H3
computed SMILES=S=C=NC
accession=JP008195
date=2016.01.19 (Created 2008.10.21, modified 2011.05.06)
author=NARA WOMEN'S UNIVERSITY
license=CC BY-NC-SA
exact mass=72.99862
ionization energy=70 eV
ion type=[M]+*
computed spectral entropy=2.35743012550333
computed normalized entropy=0.7323768463792345
SPLASH=splash10-00di-9000000000-b429ebb7bc29e9080486
submitter=submitter = University of Tokyo Team (Faculty of Engineering, University of Tokyo)
MoNA Rating=3.75

>  <NUM PEAKS>  (2967) 
25

>  <MASS SPECTRAL PEAKS>  (2967) 
12 1.21
14 1.85
15 9.17
26 1.03
27 2.75
28 10.67
29 1.08
32 10.41
35 4.47
38 3.65
39 4.47
40 4.82
41 1.57
44 13.34
45 23.28
46 5.33
47 1.8
57 6.72
58 1.18
70 7.99
71 4.47
72 43.44
73 99.99
74 5.47
75 4.63

$$$$

     RDKit          2D

  8  8  0  0  0  0  0  0  0  0999 V2000
    1.3000   -0.7500    0.0000 C   0  0  0  0  0  0  0  0  0  0  0  0
   -1.3000    0.7500    0.0000 C   0  0  0  0  0  0  0  0  0  0  0  0
    1.3000    0.7500    0.0000 C   0  0  0  0  0  0  0  0  0  0  0  0
   -1.3000   -0.7500    0.0000 C   0  0  0  0  0  0  0  0  0  0  0  0
   -0.0000   -1.5000    0.0000 N   0  0  0  0  0  0  0  0  0  0  0  0
    0.0000    1.5000    0.0000 N   0  0  0  0  0  0  0  0  0  0  0  0
    2.5989    1.5002    0.0000 O   0  0  0  0  0  0  0  0  0  0  0  0
   -2.5989   -1.5002    0.0000 O   0  0  0  0  0  0  0  0  0  0  0  0
  3  1  1  0
  4  2  1  0
  5  1  1  0
  5  4  2  0
  6  2  1  0
  6  3  2  0
  7  3  1  0
  8  4  1  0
M  END
>  <NAME>  (2968) 
GLYCINE ANHYDRIDE

>  <SYNONYMS>  (2968) 
CYCLOGLYCYLGLYCINE

>  <SPECTRUM TYPE>  (2968) 
MS1

>  <INSTRUMENT TYPE>  (2968) 
EI-B

>  <INSTRUMENT>  (2968) 
HITACHI M-80

>  <ION MODE>  (2968) 
P

>  <INCHIKEY>  (2968) 
BXRNXXXXHLBUKK-UHFFFAOYSA-N

>  <FORMULA>  (2968) 
C4H6N2O2

>  <EXACT MASS>  (2968) 
114.042927432

>  <MW>  (2968) 
114

>  <ID>  (2968) 
JP008194

>  <CONTRIBUTOR>  (2968) 
University of Tokyo Team, {Faculty of Engineering, University of Tokyo

>  <COMMENT>  (2968) 
SMILES=O=C(C1)NCC(=O)N1
cas=106-57-0
InChI=InChI=1S/C4H6N2O2/c7-3-1-5-4(8)2-6-3/h1-2H2,(H,5,8)(H,6,7)
computed SMILES=OC1=NCC(O)=NC1
accession=JP008194
date=2016.01.19 (Created 2008.10.21, modified 2011.05.06)
author=NARA WOMEN'S UNIVERSITY
license=CC BY-NC-SA
exact mass=114.04293
ionization energy=70 eV
ion type=[M]+*
computed spectral entropy=2.1930200923929832
computed normalized entropy=0.7203166136074988
SPLASH=splash10-03ec-9300000000-ee68a54cdab383a6aa11
submitter=submitter = University of Tokyo Team (Faculty of Engineering, University of Tokyo)
MoNA Rating=3.75

>  <NUM PEAKS>  (2968) 
21

>  <MASS SPECTRAL PEAKS>  (2968) 
15 2.59
26 1.01
27 9.65
29 40.51
30 90.54
31 1.92
42 2.25
43 34.69
44 35.86
45 2.33
55 1.85
56 5.83
57 1.67
58 4.28
59 2.49
71 45.59
72 2.24
85 1.28
86 8.37
114 99.99
115 6.42

$$$$

     RDKit          2D

  9  8  0  0  0  0  0  0  0  0999 V2000
    1.9931    3.2978    0.0000 C   0  0  0  0  0  0  0  0  0  0  0  0
   -5.8011    3.2978    0.0000 C   0  0  0  0  0  0  0  0  0  0  0  0
    0.6941    4.0478    0.0000 C   0  0  0  0  0  0  0  0  0  0  0  0
   -4.5021    4.0478    0.0000 C   0  0  0  0  0  0  0  0  0  0  0  0
   -0.9398    5.1969    0.0000 Cl  0  0  0  0  0  0  0  0  0  0  0  0
   -0.6050    3.2978    0.0000 O   0  0  0  0  0  0  0  0  0  0  0  0
   -3.2031    3.2978    0.0000 O   0  0  0  0  0  0  0  0  0  0  0  0
   -1.9040    4.0478    0.0000 P   0  0  0  0  0  0  0  0  0  0  0  0
   -2.8682    5.1969    0.0000 S   0  0  0  0  0  0  0  0  0  0  0  0
  3  1  1  0
  4  2  1  0
  6  3  1  0
  7  4  1  0
  8  5  1  0
  8  6  1  0
  8  7  1  0
  9  8  2  0
M  END
>  <NAME>  (2969) 
DIETHYL CHLOROTHIOPHOSPHATE

>  <SYNONYMS>  (2969) 
DIETHYL PHOSPHOROCHLORIDOTHIONATE

>  <SPECTRUM TYPE>  (2969) 
MS1

>  <INSTRUMENT TYPE>  (2969) 
EI-B

>  <INSTRUMENT>  (2969) 
HITACHI M-80

>  <ION MODE>  (2969) 
P

>  <INCHIKEY>  (2969) 
KMJJJTCKNZYTEY-UHFFFAOYSA-N

>  <FORMULA>  (2969) 
C4H10ClO2PS

>  <EXACT MASS>  (2969) 
187.98276486999998

>  <MW>  (2969) 
188

>  <ID>  (2969) 
JP008193

>  <CONTRIBUTOR>  (2969) 
University of Tokyo Team, {Faculty of Engineering, University of Tokyo

>  <COMMENT>  (2969) 
SMILES=CCOP(=S)(Cl)OCC
cas=2524-04-1
InChI=InChI=1S/C4H10ClO2PS/c1-3-6-8(5,9)7-4-2/h3-4H2,1-2H3
computed SMILES=S=P(Cl)(OCC)OCC
accession=JP008193
date=2016.01.19 (Created 2008.10.21, modified 2011.05.06)
author=NARA WOMEN'S UNIVERSITY
license=CC BY-NC-SA
exact mass=187.98276
ionization energy=70 eV
ion type=[M]+*
computed spectral entropy=3.6619914735004646
computed normalized entropy=0.8356844398260936
SPLASH=splash10-00pv-5900000000-1cd2bdbed5b018a377e2
submitter=submitter = University of Tokyo Team (Faculty of Engineering, University of Tokyo)
MoNA Rating=3.75

>  <NUM PEAKS>  (2969) 
80

>  <MASS SPECTRAL PEAKS>  (2969) 
14 1.53
15 4.72
26 12.07
27 55.46
28 16.21
29 58.11
30 1.98
31 1.44
32 2.96
34 1.57
35 1.77
42 1.89
43 11.32
44 1.84
45 31.47
47 19.97
48 2.58
49 1.13
58 1.43
59 2.63
60 4.81
61 3.34
62 4.72
63 8.01
64 3.46
65 14.34
66 1.95
67 2.14
79 9.52
80 5.72
81 1.35
83 17.45
85 5.67
91 1.45
93 3.39
96 5.52
97 61.38
98 2.35
99 9.93
100 5.9
101 2.89
102 1.81
111 12.23
113 4.23
114 4.23
115 32.14
116 49.47
117 13.86
118 18.43
119 1.4
121 2.23
122 1.4
125 21.41
126 1.43
127 3.68
128 1.33
129 1.43
131 6.12
132 64.48
133 37.34
134 24.72
135 13.27
136 1.03
143 7.54
144 58.4
145 7.66
146 21.77
147 1.88
153 12.96
154 1
159 2.18
160 6.83
161 15.36
162 2.89
163 5.43
188 99.99
189 8.62
190 36.32
191 2.93
192 1.63

$$$$

     RDKit          2D

  6  5  0  0  0  0  0  0  0  0999 V2000
    0.0000    3.0000    0.0000 C   0  0  0  0  0  0  0  0  0  0  0  0
   -2.5981    3.0000    0.0000 C   0  0  0  0  0  0  0  0  0  0  0  0
   -1.2990    2.2500    0.0000 C   0  0  0  0  0  0  0  0  0  0  0  0
    1.2990    2.2500    0.0000 O   0  0  0  0  0  0  0  0  0  0  0  0
   -3.8971    2.2500    0.0000 O   0  0  0  0  0  0  0  0  0  0  0  0
   -1.2990    0.7500    0.0000 O   0  0  0  0  0  0  0  0  0  0  0  0
  3  1  1  0
  3  2  1  0
  4  1  1  0
  5  2  1  0
  6  3  1  0
M  END
>  <NAME>  (2970) 
GLYCEROL

>  <SYNONYMS>  (2970) 


>  <SPECTRUM TYPE>  (2970) 
MS1

>  <INSTRUMENT TYPE>  (2970) 
EI-B

>  <INSTRUMENT>  (2970) 
HITACHI M-80

>  <ION MODE>  (2970) 
P

>  <INCHIKEY>  (2970) 
PEDCQBHIVMGVHV-UHFFFAOYSA-N

>  <FORMULA>  (2970) 
C3H8O3

>  <EXACT MASS>  (2970) 
92.04734411599999

>  <MW>  (2970) 
92

>  <ID>  (2970) 
JP008191

>  <CONTRIBUTOR>  (2970) 
University of Tokyo Team, {Faculty of Engineering, University of Tokyo

>  <COMMENT>  (2970) 
SMILES=OCC(O)CO
cas=56-81-5
InChI=InChI=1S/C3H8O3/c4-1-3(6)2-5/h3-6H,1-2H2
computed SMILES=OCC(O)CO
accession=JP008191
date=2016.01.19 (Created 2008.10.21, modified 2011.05.06)
author=NARA WOMEN'S UNIVERSITY
license=CC BY-NC-SA
exact mass=92.04734
ionization energy=70 eV
ion type=[M]+*
computed spectral entropy=2.5356104402669777
computed normalized entropy=0.7877316734859756
SPLASH=splash10-01ox-9000000000-3fe0c184a891364773a8
submitter=submitter = University of Tokyo Team (Faculty of Engineering, University of Tokyo)
MoNA Rating=3.75

>  <NUM PEAKS>  (2970) 
25

>  <MASS SPECTRAL PEAKS>  (2970) 
15 23.76
17 1.75
18 6.51
19 7.67
26 2.15
27 6.71
28 3.01
29 25.52
30 3.43
31 45.01
32 1.94
33 2.11
42 9.61
43 80.03
44 47.21
45 13.93
55 1.65
56 1.38
57 11.49
60 11.34
61 99.99
62 5.79
74 1.5
75 14.85
93 23.15

$$$$

     RDKit          2D

 14 16  0  0  0  0  0  0  0  0999 V2000
    3.0600    2.2000    0.0000 C   0  0  0  0  0  0  0  0  0  0  0  0
   -3.4300   -1.5500    0.0000 C   0  0  0  0  0  0  0  0  0  0  0  0
    1.7600    2.9500    0.0000 C   0  0  0  0  0  0  0  0  0  0  0  0
   -3.4300   -0.0500    0.0000 C   0  0  0  0  0  0  0  0  0  0  0  0
    3.0600    0.7000    0.0000 C   0  0  0  0  0  0  0  0  0  0  0  0
   -2.1300   -2.3000    0.0000 C   0  0  0  0  0  0  0  0  0  0  0  0
    0.4600    2.2000    0.0000 C   0  0  0  0  0  0  0  0  0  0  0  0
   -2.1300    0.7000    0.0000 C   0  0  0  0  0  0  0  0  0  0  0  0
    1.7600   -1.5500    0.0000 C   0  0  0  0  0  0  0  0  0  0  0  0
    0.4600   -2.3000    0.0000 C   0  0  0  0  0  0  0  0  0  0  0  0
    1.7600   -0.0500    0.0000 C   0  0  0  0  0  0  0  0  0  0  0  0
   -0.8300   -1.5500    0.0000 C   0  0  0  0  0  0  0  0  0  0  0  0
    0.4600    0.7000    0.0000 C   0  0  0  0  0  0  0  0  0  0  0  0
   -0.8300   -0.0500    0.0000 C   0  0  0  0  0  0  0  0  0  0  0  0
  3  1  2  0
  4  2  2  0
  5  1  1  0
  6  2  1  0
  7  3  1  0
  8  4  1  0
 10  9  1  0
 11  5  2  0
 11  9  1  0
 12  6  2  0
 12 10  1  0
 13  7  2  0
 13 11  1  0
 14  8  2  0
 14 12  1  0
 14 13  1  0
M  END
>  <NAME>  (2971) 
9,10-DIHYDROPHENANTHRENE

>  <SYNONYMS>  (2971) 


>  <SPECTRUM TYPE>  (2971) 
MS1

>  <INSTRUMENT TYPE>  (2971) 
EI-B

>  <INSTRUMENT>  (2971) 
HITACHI M-80

>  <ION MODE>  (2971) 
P

>  <INCHIKEY>  (2971) 
XXPBFNVKTVJZKF-UHFFFAOYSA-N

>  <FORMULA>  (2971) 
C14H12

>  <EXACT MASS>  (2971) 
180.093900384

>  <MW>  (2971) 
180

>  <ID>  (2971) 
JP008190

>  <CONTRIBUTOR>  (2971) 
University of Tokyo Team, {Faculty of Engineering, University of Tokyo

>  <COMMENT>  (2971) 
SMILES=c(c3)cc(C1)c(c3)c(c2)c(ccc2)C1
cas=776-35-2
InChI=InChI=1S/C14H12/c1-3-7-13-11(5-1)9-10-12-6-2-4-8-14(12)13/h1-8H,9-10H2
computed SMILES=C=1C=CC2=C(C1)C=3C=CC=CC3CC2
accession=JP008190
date=2016.01.19 (Created 2008.10.21, modified 2011.05.06)
author=NARA WOMEN'S UNIVERSITY
license=CC BY-NC-SA
exact mass=180.0939
ionization energy=70 eV
ion type=[M]+*
computed spectral entropy=3.2187857581027797
computed normalized entropy=0.7861540984610895
SPLASH=splash10-0059-3900000000-bb8edca45d82870a1c6b
submitter=submitter = University of Tokyo Team (Faculty of Engineering, University of Tokyo)
MoNA Rating=3.75

>  <NUM PEAKS>  (2971) 
60

>  <MASS SPECTRAL PEAKS>  (2971) 
14 3.25
15 3.1
16 1.22
17 1.88
18 5.27
27 5.72
28 13.31
29 5.88
31 9.65
32 8.15
39 5.2
50 2.77
51 4.2
52 1.12
62 1.9
63 6.43
64 1.01
65 1.03
74 2.77
75 4.62
76 7.19
77 2.56
78 1
83 2.89
86 1.21
87 2.93
88 5.21
89 12.5
90 3.42
98 1.18
102 2.06
113 1.22
115 4.29
126 2.41
127 2.59
128 3.41
129 1.53
139 4.01
141 2.37
145 1.05
150 3.75
151 7.87
152 13.89
153 4.52
154 3.84
158 2.34
163 1.62
164 1.36
165 29.78
166 5.25
167 1.12
175 1.36
176 12.95
177 8.04
178 45.33
179 63.69
180 99.99
181 15.05
182 5.88
183 1.04

$$$$

     RDKit          2D

  9  9  0  0  0  0  0  0  0  0999 V2000
    2.2736    0.1321    0.0000 C   0  0  0  0  0  0  0  0  0  0  0  0
    2.2740    1.6329    0.0000 C   0  0  0  0  0  0  0  0  0  0  0  0
    0.9740   -0.6187    0.0000 C   0  0  0  0  0  0  0  0  0  0  0  0
    0.9750    2.3829    0.0000 C   0  0  0  0  0  0  0  0  0  0  0  0
   -0.3250    0.1313    0.0000 C   0  0  0  0  0  0  0  0  0  0  0  0
   -1.6236    2.3821    0.0000 C   0  0  0  0  0  0  0  0  0  0  0  0
   -2.9226    1.6321    0.0000 C   0  0  0  0  0  0  0  0  0  0  0  0
   -0.3245    1.6321    0.0000 C   0  0  0  0  0  0  0  0  0  0  0  0
   -4.2216    0.8821    0.0000 N   0  0  0  0  0  0  0  0  0  0  0  0
  2  1  2  0
  3  1  1  0
  4  2  1  0
  5  3  2  0
  7  6  1  0
  8  4  2  0
  8  5  1  0
  8  6  1  0
  9  7  3  0
M  END
>  <NAME>  (2972) 
BENZYL CYANIDE

>  <SYNONYMS>  (2972) 
PHENYLACETONITRILE

>  <SPECTRUM TYPE>  (2972) 
MS1

>  <INSTRUMENT TYPE>  (2972) 
EI-B

>  <INSTRUMENT>  (2972) 
HITACHI M-80

>  <ION MODE>  (2972) 
P

>  <INCHIKEY>  (2972) 
SUSQOBVLVYHIEX-UHFFFAOYSA-N

>  <FORMULA>  (2972) 
C8H7N

>  <EXACT MASS>  (2972) 
117.057849224

>  <MW>  (2972) 
117

>  <ID>  (2972) 
JP008189

>  <CONTRIBUTOR>  (2972) 
University of Tokyo Team, {Faculty of Engineering, University of Tokyo

>  <COMMENT>  (2972) 
SMILES=N#CCc(c1)cccc1
cas=140-29-4
InChI=InChI=1S/C8H7N/c9-7-6-8-4-2-1-3-5-8/h1-5H,6H2
computed SMILES=N#CCC=1C=CC=CC1
accession=JP008189
date=2016.01.19 (Created 2008.10.21, modified 2011.05.06)
author=NARA WOMEN'S UNIVERSITY
license=CC BY-NC-SA
exact mass=117.05785
ionization energy=70 eV
ion type=[M]+*
computed spectral entropy=2.7008443398611774
computed normalized entropy=0.7536849633686558
SPLASH=splash10-014i-9700000000-44dc07c52f713661d49d
submitter=submitter = University of Tokyo Team (Faculty of Engineering, University of Tokyo)
MoNA Rating=3.75

>  <NUM PEAKS>  (2972) 
36

>  <MASS SPECTRAL PEAKS>  (2972) 
18 1.07
26 2.14
27 3.34
28 3.04
29 2.05
31 3.52
32 2.63
37 2.39
38 4.87
39 9.68
40 2.33
41 1.12
49 1.03
50 8.98
51 12.06
52 2.88
59 1.27
61 2.74
62 5.92
63 12.73
64 4.42
65 4.44
74 2.85
75 2.47
76 2.33
77 6.18
78 1.69
86 1.22
87 1.69
88 2.37
89 21.1
90 36.73
91 8.47
116 34.61
117 99.99
118 9.23

$$$$

     RDKit          2D

  9  9  0  0  0  0  0  0  0  0999 V2000
   -2.9228    0.8825    0.0000 C   0  0  0  0  0  0  0  0  0  0  0  0
    2.2733   -0.6175    0.0000 C   0  0  0  0  0  0  0  0  0  0  0  0
    0.9738   -1.3683    0.0000 C   0  0  0  0  0  0  0  0  0  0  0  0
    2.2738    0.8833    0.0000 C   0  0  0  0  0  0  0  0  0  0  0  0
   -0.3252   -0.6183    0.0000 C   0  0  0  0  0  0  0  0  0  0  0  0
    0.9748    1.6333    0.0000 C   0  0  0  0  0  0  0  0  0  0  0  0
   -0.3248    0.8825    0.0000 C   0  0  0  0  0  0  0  0  0  0  0  0
   -1.6238    3.1325    0.0000 N   0  0  0  0  0  0  0  0  0  0  0  0
   -1.6238    1.6325    0.0000 N   0  0  0  0  0  0  0  0  0  0  0  0
  3  2  2  0
  4  2  1  0
  5  3  1  0
  6  4  2  0
  7  5  2  0
  7  6  1  0
  9  1  1  0
  9  7  1  0
  9  8  1  0
M  END
>  <NAME>  (2973) 
1-METHYL-1-PHENYLHYDRAZINE

>  <SYNONYMS>  (2973) 


>  <SPECTRUM TYPE>  (2973) 
MS1

>  <INSTRUMENT TYPE>  (2973) 
EI-B

>  <INSTRUMENT>  (2973) 
HITACHI M-80

>  <ION MODE>  (2973) 
P

>  <INCHIKEY>  (2973) 
MWOODERJGVWYJE-UHFFFAOYSA-N

>  <FORMULA>  (2973) 
C7H10N2

>  <EXACT MASS>  (2973) 
122.08439831999999

>  <MW>  (2973) 
122

>  <ID>  (2973) 
JP008188

>  <CONTRIBUTOR>  (2973) 
University of Tokyo Team, {Faculty of Engineering, University of Tokyo

>  <COMMENT>  (2973) 
SMILES=CN(N)c(c1)cccc1
cas=618-40-6
InChI=InChI=1S/C7H10N2/c1-9(8)7-5-3-2-4-6-7/h2-6H,8H2,1H3
computed SMILES=NN(C=1C=CC=CC1)C
accession=JP008188
date=2016.01.19 (Created 2008.10.21, modified 2011.05.06)
author=NARA WOMEN'S UNIVERSITY
license=CC BY-NC-SA
exact mass=122.0844
ionization energy=70 eV
ion type=[M]+*
computed spectral entropy=3.15351556775175
computed normalized entropy=0.7981070752284354
SPLASH=splash10-05di-9600000000-b53d581dcba294c41b1a
submitter=submitter = University of Tokyo Team (Faculty of Engineering, University of Tokyo)
MoNA Rating=3.75

>  <NUM PEAKS>  (2973) 
52

>  <MASS SPECTRAL PEAKS>  (2973) 
14 1.31
15 8.24
16 2.34
17 1.45
18 3.12
26 2.39
27 6.93
28 12.89
29 9.94
30 3.97
37 2.77
38 6.48
39 14.61
40 2.11
41 1.78
42 1.86
43 4.64
44 1.46
45 2.91
50 16.21
51 32.39
52 10.55
53 4.08
54 1.41
61 2.42
62 3
63 8.96
64 6.21
65 11.73
66 3.89
73 1.29
74 5.94
75 3.89
76 4.16
77 99.99
78 27.05
79 25.87
80 3.54
90 1.63
91 6.39
92 7.05
93 7.8
94 1.8
104 12.16
105 10.81
106 48.39
107 81.31
108 7.02
120 2.12
121 9.94
122 92.31
123 8.6

$$$$

     RDKit          2D

 10 10  0  0  0  0  0  0  0  0999 V2000
   -0.9743    3.5075    0.0000 C   0  0  0  0  0  0  0  0  0  0  0  0
    2.9228   -0.2425    0.0000 C   0  0  0  0  0  0  0  0  0  0  0  0
    2.9233    1.2583    0.0000 C   0  0  0  0  0  0  0  0  0  0  0  0
    1.6233   -0.9933    0.0000 C   0  0  0  0  0  0  0  0  0  0  0  0
    1.6243    2.0083    0.0000 C   0  0  0  0  0  0  0  0  0  0  0  0
    0.3243   -0.2433    0.0000 C   0  0  0  0  0  0  0  0  0  0  0  0
   -2.2733    1.2575    0.0000 C   0  0  0  0  0  0  0  0  0  0  0  0
   -0.9743    2.0075    0.0000 C   0  0  0  0  0  0  0  0  0  0  0  0
    0.3248    1.2575    0.0000 C   0  0  0  0  0  0  0  0  0  0  0  0
   -3.5724    2.0075    0.0000 O   0  0  0  0  0  0  0  0  0  0  0  0
  3  2  2  0
  4  2  1  0
  5  3  1  0
  6  4  2  0
  8  1  1  0
  8  7  1  0
  9  5  2  0
  9  6  1  0
  9  8  1  0
 10  7  1  0
M  END
>  <NAME>  (2974) 
2-PHENYL-1-PROPANOL

>  <SYNONYMS>  (2974) 
BETA-METHYLPHENETHYL ALCOHOL

>  <SPECTRUM TYPE>  (2974) 
MS1

>  <INSTRUMENT TYPE>  (2974) 
EI-B

>  <INSTRUMENT>  (2974) 
HITACHI M-80

>  <ION MODE>  (2974) 
P

>  <INCHIKEY>  (2974) 
RNDNSYIPLPAXAZ-UHFFFAOYSA-N

>  <FORMULA>  (2974) 
C9H12O

>  <EXACT MASS>  (2974) 
136.088815004

>  <MW>  (2974) 
136

>  <ID>  (2974) 
JP008187

>  <CONTRIBUTOR>  (2974) 
University of Tokyo Team, {Faculty of Engineering, University of Tokyo

>  <COMMENT>  (2974) 
SMILES=OCC(C)c(c1)cccc1
cas=1123-85-9
InChI=InChI=1S/C9H12O/c1-8(7-10)9-5-3-2-4-6-9/h2-6,8,10H,7H2,1H3
computed SMILES=OCC(C=1C=CC=CC1)C
accession=JP008187
date=2016.01.19 (Created 2008.10.21, modified 2011.05.06)
author=NARA WOMEN'S UNIVERSITY
license=CC BY-NC-SA
exact mass=136.08882
ionization energy=70 eV
ion type=[M]+*
computed spectral entropy=2.793653514149734
computed normalized entropy=0.7625512503934735
SPLASH=splash10-0a4i-7900000000-a5ffee397c5e0451b263
submitter=submitter = University of Tokyo Team (Faculty of Engineering, University of Tokyo)
MoNA Rating=3.75

>  <NUM PEAKS>  (2974) 
39

>  <MASS SPECTRAL PEAKS>  (2974) 
15 2.6
27 4.47
28 1.61
29 8.46
30 1.26
31 20.15
32 5.78
38 1.18
39 5.44
41 1.09
43 1.66
50 3.98
51 8.94
52 2.57
53 1.51
62 1.35
63 4.3
65 3.64
74 1.85
75 1.42
76 1.5
77 21.15
78 9.36
79 18.18
80 1.19
89 1.69
91 14.47
92 1.23
102 2.05
103 15.88
104 8.92
105 99.99
106 28.8
107 2.14
115 1.25
117 1.42
118 1.45
136 19.6
137 2.03

$$$$

     RDKit          2D

  6  6  0  0  0  0  0  0  0  0999 V2000
   -1.6300   -0.8021    0.0000 C   0  0  0  0  0  0  0  0  0  0  0  0
    1.7671    1.0800    0.0000 C   0  0  0  0  0  0  0  0  0  0  0  0
    0.2671    1.0800    0.0000 C   0  0  0  0  0  0  0  0  0  0  0  0
    2.2271   -0.3400    0.0000 C   0  0  0  0  0  0  0  0  0  0  0  0
   -0.2029   -0.3400    0.0000 C   0  0  0  0  0  0  0  0  0  0  0  0
    1.0171   -1.2200    0.0000 O   0  0  0  0  0  0  0  0  0  0  0  0
  3  2  1  0
  4  2  1  0
  5  1  1  0
  5  3  1  0
  6  4  1  0
  6  5  1  0
M  END
>  <NAME>  (2975) 
2-METHYLTETRAHYDROFURAN

>  <SYNONYMS>  (2975) 
TETRAHYDRO-2-METHYLFURAN

>  <SPECTRUM TYPE>  (2975) 
MS1

>  <INSTRUMENT TYPE>  (2975) 
EI-B

>  <INSTRUMENT>  (2975) 
HITACHI M-80

>  <ION MODE>  (2975) 
P

>  <INCHIKEY>  (2975) 
JWUJQDFVADABEY-UHFFFAOYSA-N

>  <FORMULA>  (2975) 
C5H10O

>  <EXACT MASS>  (2975) 
86.07316494

>  <MW>  (2975) 
86

>  <ID>  (2975) 
JP008186

>  <CONTRIBUTOR>  (2975) 
University of Tokyo Team, {Faculty of Engineering, University of Tokyo

>  <COMMENT>  (2975) 
SMILES=CC(C1)OCC1
cas=96-47-9
InChI=InChI=1S/C5H10O/c1-5-3-2-4-6-5/h5H,2-4H2,1H3
computed SMILES=O1CCCC1C
accession=JP008186
date=2016.01.19 (Created 2008.10.21, modified 2011.05.06)
author=NARA WOMEN'S UNIVERSITY
license=CC BY-NC-SA
exact mass=86.07316
ionization energy=70 eV
ion type=[M]+*
computed spectral entropy=2.8991658329471246
computed normalized entropy=0.791351726266142
SPLASH=splash10-006x-9000000000-d711e1725a6c11b6c277
submitter=submitter = University of Tokyo Team (Faculty of Engineering, University of Tokyo)
MoNA Rating=3.75

>  <NUM PEAKS>  (2975) 
39

>  <MASS SPECTRAL PEAKS>  (2975) 
14 2.86
15 12.8
18 1.81
26 8.54
27 37.28
28 17.31
29 28.42
30 2.97
31 8.82
32 4.91
37 1.97
38 4.84
39 33.9
40 9
41 62.45
42 47.38
43 80.31
44 4.03
45 22.01
50 2.25
51 2.28
53 3.46
54 1.69
55 7.2
56 19.88
57 3.81
58 3.35
61 1.7
67 1.11
69 3.51
70 2
71 99.99
72 4.65
73 1.16
83 1.43
84 2.57
85 6.5
86 19.18
87 3.71

$$$$

     RDKit          2D

 31 34  0  0  1  0  0  0  0  0999 V2000
    9.6794    7.6838    0.0000 C   0  0  0  0  0  0  0  0  0  0  0  0
    7.2143    8.5043    0.0000 C   0  0  0  0  0  0  0  0  0  0  0  0
    3.3280    5.0551    0.0000 C   0  0  0  0  0  0  0  0  0  0  0  0
   -3.7067   -3.5753    0.0000 C   0  0  0  0  0  0  0  0  0  0  0  0
   -1.7818   -3.5657    0.0000 C   0  0  0  0  0  0  0  0  0  0  0  0
   -1.4651    1.3500    0.0000 C   0  0  0  0  0  0  0  0  0  0  0  0
    2.5987    3.5305    0.0000 C   0  0  0  0  0  0  0  0  0  0  0  0
    2.5768   -0.9228    0.0000 C   0  0  0  0  0  0  0  0  0  0  0  0
    6.2669    5.6578    0.0000 C   0  0  0  0  0  0  0  0  0  0  0  0
    7.7363    5.9592    0.0000 C   0  0  0  0  0  0  0  0  0  0  0  0
    5.7931    4.2346    0.0000 C   0  0  0  0  0  0  0  0  0  0  0  0
    1.1600   -1.6800    0.0000 C   0  0  0  0  0  0  0  0  0  0  0  0
   -0.1700   -2.4200    0.0000 C   0  0  0  0  0  0  0  0  0  0  0  0
    4.7000    1.2900    0.0000 C   0  0  0  0  0  0  0  0  0  0  0  0
   -0.1700    2.0400    0.0000 C   0  0  0  0  0  0  0  0  0  0  0  0
   -4.0600   -0.1500    0.0000 C   0  0  0  0  0  0  0  0  0  0  0  0
   -2.7500    0.5700    0.0000 C   0  0  0  0  0  0  0  0  0  0  0  0
    3.8500    0.1000    0.0000 C   0  0  0  0  0  0  0  0  0  0  0  0
    1.1600    2.8100    0.0000 C   0  0  0  0  0  0  0  0  0  0  0  0
    8.2100    7.3824    0.0000 C   0  0  0  0  0  0  0  0  0  0  0  0
    4.3237    3.9332    0.0000 C   0  0  0  0  0  0  0  0  0  0  0  0
    3.8500    2.5100    0.0000 C   0  0  0  0  0  0  0  0  0  0  0  0
   -0.1700    0.5700    0.0000 C   0  0  0  0  0  0  0  0  0  0  0  0
    1.1600   -0.1500    0.0000 C   0  0  0  0  0  0  0  0  0  0  0  0
   -1.4700   -1.6800    0.0000 C   0  0  0  0  0  0  0  0  0  0  0  0
   -4.0600   -1.6800    0.0000 C   0  0  0  0  0  0  0  0  0  0  0  0
   -2.7500   -2.4200    0.0000 C   0  0  0  0  0  0  0  0  0  0  0  0
   -1.4700   -0.1500    0.0000 C   0  0  0  0  0  0  0  0  0  0  0  0
    2.4300    2.0400    0.0000 C   0  0  0  0  0  0  0  0  0  0  0  0
    2.4300    0.5700    0.0000 C   0  0  0  0  0  0  0  0  0  0  0  0
   -5.3555   -2.4361    0.0000 O   0  0  0  0  0  0  0  0  0  0  0  0
 10  9  1  0
 11  9  1  0
 13 12  1  0
 17 16  1  0
 18 14  1  0
 19 15  1  0
 20  1  1  0
 20  2  1  0
 20 10  1  0
 21  3  1  6
 21 11  1  0
 22 14  1  1
 22 21  1  0
 23 15  1  0
 24 12  1  0
 24 23  2  0
 25 13  1  1
 26 16  1  0
 27  4  1  0
 27  5  1  0
 27 25  1  0
 27 26  1  0
 28  6  1  1
 28 17  1  0
 28 23  1  0
 28 25  1  0
 29  7  1  1
 29 19  1  0
 29 22  1  0
 30  8  1  6
 30 18  1  0
 30 24  1  0
 30 29  1  0
 26 31  1  1
M  END
>  <NAME>  (2976) 
DIHYDROLANOSTEROL

>  <SYNONYMS>  (2976) 


>  <SPECTRUM TYPE>  (2976) 
MS1

>  <INSTRUMENT TYPE>  (2976) 
EI-B

>  <INSTRUMENT>  (2976) 
HITACHI M-80

>  <ION MODE>  (2976) 
P

>  <INCHIKEY>  (2976) 
MBZYKEVPFYHDOH-BQNIITSRSA-N

>  <FORMULA>  (2976) 
C30H52O

>  <EXACT MASS>  (2976) 
428.40181628399995

>  <MW>  (2976) 
428

>  <ID>  (2976) 
JP008185

>  <CONTRIBUTOR>  (2976) 
University of Tokyo Team, {Faculty of Engineering, University of Tokyo

>  <COMMENT>  (2976) 
SMILES=C(C4(C)1)CC(O)C(C)(C)C(CCC(=C34)C(C(CC3)(C)2)(C)CCC2([H])C([H])(C)CCCC(C)C)1[H]
cas=79-62-9
InChI=InChI=1S/C30H52O/c1-20(2)10-9-11-21(3)22-14-18-30(8)24-12-13-25-27(4,5)26(31)16-17-28(25,6)23(24)15-19-29(22,30)7/h20-22,25-26,31H,9-19H2,1-8H3/t21-,22-,25+,26+,28-,29-,30+/m1/s1
computed SMILES=OC1CCC2(C3=C(CCC2C1(C)C)C4(C)CCC(C(C)CCCC(C)C)C4(C)CC3)C
accession=JP008185
date=2016.01.19 (Created 2008.10.21, modified 2011.05.06)
author=NARA WOMEN'S UNIVERSITY
license=CC BY-NC-SA
exact mass=428.40182
ionization energy=70 eV
ion type=[M]+*
computed spectral entropy=4.488767969126605
computed normalized entropy=0.8616527306974963
SPLASH=splash10-06r6-9720200000-8c73cf86594c8bf58e5d
submitter=submitter = University of Tokyo Team (Faculty of Engineering, University of Tokyo)
MoNA Rating=3.75

>  <NUM PEAKS>  (2976) 
183

>  <MASS SPECTRAL PEAKS>  (2976) 
27 4.68
29 12.61
39 2.87
41 41.04
42 4.34
43 99.99
53 3.25
54 4.17
55 48.42
56 4.25
57 43.15
58 2.11
65 1.62
67 12.93
68 1.53
69 48.42
70 3.4
71 20.59
72 1.78
77 4.57
78 1.22
79 11.23
80 1.81
81 20.84
82 2.28
83 25.16
84 2.15
85 5.82
91 14.83
92 2.3
93 17.89
94 3.22
95 36.21
96 3.67
97 16.52
98 1.73
99 1.66
103 1.16
105 21.26
106 3.45
107 23.08
108 4.45
109 19.43
110 2.64
111 12.77
112 1.61
113 1.52
115 2.09
116 1.23
117 4.85
118 1.89
119 20.61
120 4.27
121 19.49
122 4.24
123 11.15
124 1.43
125 4.55
127 1.52
128 2.49
129 4.15
130 2.41
131 9.05
132 2.71
133 14.78
134 4.14
135 19.21
136 3.79
137 5.67
139 2.1
141 1.96
142 1.72
143 4.16
144 2.56
145 9.81
146 3.2
147 11.73
148 2.71
149 8.25
150 1.97
151 2.7
152 1.17
153 3.21
155 1.66
156 1.46
157 4.39
158 1.69
159 10.11
160 3.04
161 13.42
162 2.78
163 6.38
164 1.49
165 2.53
169 1.61
171 4.3
172 1.73
173 8.33
174 2.57
175 9.04
176 1.99
177 2.48
179 2.82
183 1.48
185 3.89
186 2
187 10.84
188 2.45
189 8.41
190 1.56
191 3.09
193 2.59
197 1.46
199 3.91
200 1.57
201 4.55
202 1.01
203 3.49
205 3.01
206 1.09
207 2.46
213 3.62
214 3.25
215 6.9
216 1.51
217 1.47
219 3.31
220 1.05
225 1.01
227 5.28
228 1.48
229 6.01
230 1.21
231 1.84
233 2.55
241 5.92
242 1.41
243 3.82
245 3.09
246 1.16
247 4.75
255 4.13
256 1.04
257 1.99
259 6.53
260 1.85
261 5.12
262 1.2
267 1.01
269 1.49
271 1.55
273 11.04
274 4.59
275 5.86
276 1.76
281 1.19
283 2.5
285 1.46
287 2.1
288 2.24
289 1.09
297 1.33
299 4.7
300 1.36
301 1.13
313 1.53
315 1.71
355 1.13
378 7.77
379 1.29
395 27.96
396 8.78
397 2.11
398 1.27
399 2.04
411 1.21
412 1.1
413 61.7
414 24.77
415 4.36
428 23.61
429 7.89
430 1.35

$$$$

     RDKit          2D

 29 32  0  0  1  0  0  0  0  0999 V2000
    9.5655    7.2342    0.0000 C   0  0  0  0  0  0  0  0  0  0  0  0
    7.1046    8.0672    0.0000 C   0  0  0  0  0  0  0  0  0  0  0  0
    8.6037    4.3926    0.0000 C   0  0  0  0  0  0  0  0  0  0  0  0
    3.2009    4.6377    0.0000 C   0  0  0  0  0  0  0  0  0  0  0  0
   -1.6125    0.9400    0.0000 C   0  0  0  0  0  0  0  0  0  0  0  0
    2.4507    3.1203    0.0000 C   0  0  0  0  0  0  0  0  0  0  0  0
    6.1427    5.2256    0.0000 C   0  0  0  0  0  0  0  0  0  0  0  0
    5.6618    3.8047    0.0000 C   0  0  0  0  0  0  0  0  0  0  0  0
   -0.3200   -2.8400    0.0000 C   0  0  0  0  0  0  0  0  0  0  0  0
    1.0100   -2.0900    0.0000 C   0  0  0  0  0  0  0  0  0  0  0  0
    4.5500    0.8800    0.0000 C   0  0  0  0  0  0  0  0  0  0  0  0
    3.7100   -0.3100    0.0000 C   0  0  0  0  0  0  0  0  0  0  0  0
   -4.2000   -0.5600    0.0000 C   0  0  0  0  0  0  0  0  0  0  0  0
   -0.3200    1.6300    0.0000 C   0  0  0  0  0  0  0  0  0  0  0  0
   -2.8900    0.1600    0.0000 C   0  0  0  0  0  0  0  0  0  0  0  0
    1.0100    2.3900    0.0000 C   0  0  0  0  0  0  0  0  0  0  0  0
   -2.8900   -2.8400    0.0000 C   0  0  0  0  0  0  0  0  0  0  0  0
    8.0946    6.9403    0.0000 C   0  0  0  0  0  0  0  0  0  0  0  0
    7.6137    5.5195    0.0000 C   0  0  0  0  0  0  0  0  0  0  0  0
    4.1909    3.5108    0.0000 C   0  0  0  0  0  0  0  0  0  0  0  0
   -1.6200   -2.0900    0.0000 C   0  0  0  0  0  0  0  0  0  0  0  0
   -4.2000   -2.0900    0.0000 C   0  0  0  0  0  0  0  0  0  0  0  0
    1.0100   -0.5600    0.0000 C   0  0  0  0  0  0  0  0  0  0  0  0
    3.7100    2.0900    0.0000 C   0  0  0  0  0  0  0  0  0  0  0  0
    2.2800    0.1600    0.0000 C   0  0  0  0  0  0  0  0  0  0  0  0
   -0.3200    0.1600    0.0000 C   0  0  0  0  0  0  0  0  0  0  0  0
   -1.6200   -0.5600    0.0000 C   0  0  0  0  0  0  0  0  0  0  0  0
    2.2800    1.6300    0.0000 C   0  0  0  0  0  0  0  0  0  0  0  0
   -5.4977   -2.8424    0.0000 O   0  0  0  0  0  0  0  0  0  0  0  0
  8  7  1  0
 10  9  1  0
 12 11  1  0
 15 13  1  0
 16 14  1  0
 18  1  1  0
 18  2  1  0
 19  3  2  0
 19  7  1  0
 19 18  1  0
 20  4  1  0
 20  8  1  0
 21  9  2  0
 21 17  1  0
 22 13  1  0
 22 17  1  0
 23 10  1  6
 24 11  1  0
 24 20  1  1
 25 12  1  1
 25 23  1  0
 26 14  1  1
 26 23  1  0
 27  5  1  1
 27 15  1  0
 27 21  1  0
 27 26  1  0
 28  6  1  1
 28 16  1  0
 28 24  1  0
 28 25  1  0
 22 29  1  1
M  END
>  <NAME>  (2977) 
24-METHYLENECHOLESTEROL

>  <SYNONYMS>  (2977) 


>  <SPECTRUM TYPE>  (2977) 
MS1

>  <INSTRUMENT TYPE>  (2977) 
EI-B

>  <INSTRUMENT>  (2977) 
HITACHI M-80

>  <ION MODE>  (2977) 
P

>  <INCHIKEY>  (2977) 
INDVLXYUCBVVKW-FXSBVPLVSA-N

>  <FORMULA>  (2977) 
C28H46O

>  <EXACT MASS>  (2977) 
398.35486609199995

>  <MW>  (2977) 
398

>  <ID>  (2977) 
JP008184

>  <CONTRIBUTOR>  (2977) 
University of Tokyo Team, {Faculty of Engineering, University of Tokyo

>  <COMMENT>  (2977) 
SMILES=C(C4)C([H])(C(CCC(C(C)C)=C)C)C(C([H])14)(CCC(C3(C)2)(C([H])(CC=C2CC([H])(O)CC3)1)[H])C
cas=474-63-5
InChI=InChI=1S/C28H46O/c1-18(2)19(3)7-8-20(4)24-11-12-25-23-10-9-21-17-22(29)13-15-27(21,5)26(23)14-16-28(24,25)6/h9,18,20,22-26,29H,3,7-8,10-17H2,1-2,4-6H3/t20?,22-,23-,24+,25-,26-,27-,28+/m0/s1
computed SMILES=OC1CC2=CCC3C(CCC4(C)C(CCC34)C(C)CCC(=C)C(C)C)C2(C)CC1
accession=JP008184
date=2016.01.19 (Created 2008.10.21, modified 2011.05.06)
author=NARA WOMEN'S UNIVERSITY
license=CC BY-NC-SA
exact mass=398.35487
ionization energy=70 eV
ion type=[M]+*
computed spectral entropy=4.839774085136085
computed normalized entropy=0.8771754242319235
SPLASH=splash10-07bf-9521000000-648e29625ffd6a9c8462
submitter=submitter = University of Tokyo Team (Faculty of Engineering, University of Tokyo)
MoNA Rating=3.75

>  <NUM PEAKS>  (2977) 
249

>  <MASS SPECTRAL PEAKS>  (2977) 
26 4.85
27 23.65
28 61.47
29 32.26
30 1.49
31 3.63
32 14.8
36 1.24
37 1.52
38 3.02
39 26.39
40 6.58
41 97.36
42 14.72
43 79.07
44 4.58
45 6.04
50 2.79
51 4.81
52 2.2
53 16.62
54 7.34
55 97.69
56 21.04
57 46.88
58 3.44
59 4.42
60 8.97
61 2.56
62 1.09
63 2.66
65 6.59
66 4.04
67 39
68 12.47
69 90.98
70 15.7
71 20.75
72 1.73
73 9.41
74 1.97
75 1.38
76 1.59
77 16.2
78 4.92
79 35.89
80 7.69
81 48.2
82 14.51
83 39.26
84 19.94
85 13.68
86 1.34
87 3.07
89 1.75
91 36.33
92 7.97
93 31.71
94 9.73
95 35.78
96 9.06
97 21.19
98 5.81
99 4.32
100 1.04
101 2.17
102 1.84
103 4.04
104 3.92
105 37.87
106 10.01
107 32.3
108 8.32
109 20.93
110 5.28
111 9.26
112 3.62
113 3.78
114 1.32
115 7.55
116 3.81
117 13.59
118 6.31
119 22.51
120 13.33
121 18.03
122 5.48
123 12.37
124 5.3
125 7.18
126 2.89
127 3.91
128 6
129 11.98
130 5.92
131 17.98
132 6.67
133 20.71
134 7.03
135 13.1
136 3.57
137 6.45
138 2.82
139 2.58
140 1.54
141 4.42
142 3.83
143 13.27
144 6.78
145 25.18
146 6.51
147 14.45
148 4.05
149 11.67
150 3.36
151 5.23
152 2.52
153 2.09
154 1.46
155 4.04
156 2.93
157 11.46
158 10.31
159 19.94
160 8.5
161 14.83
162 4.02
163 7.77
164 2.56
165 3.28
166 1.85
167 2.95
168 1.38
169 3.98
170 1.79
171 9.26
172 3.8
173 10.99
174 4.09
175 7.72
176 4.75
177 4.83
178 2.85
179 2.07
180 1.15
181 1.57
182 1.08
183 3.66
184 1.83
185 8.74
186 3.84
187 7.6
188 2.99
189 5.62
190 2.41
191 2.65
192 1.06
193 1.41
194 1.08
195 1.36
196 1.3
197 5.67
198 2.11
199 8.19
200 2.96
201 4.49
202 3.59
203 6.4
204 1.57
205 1.65
211 8.41
212 3.34
213 16.74
214 5.42
215 5.96
216 2.12
217 4.13
218 1.79
219 1.75
220 1.05
223 1.05
225 3.14
226 1.61
227 5.38
228 6.72
229 19.36
230 6.23
231 10.02
232 4.19
233 1.75
239 4.37
240 1.73
241 3.42
242 1.8
243 2.37
244 2.16
245 2.88
246 3.29
247 1.22
253 6.98
254 3.52
255 6.9
256 5.85
257 4.07
258 3.77
259 2.49
267 2.43
268 1.19
269 1.7
270 8.33
271 44.83
272 17.35
273 4.64
274 1.18
279 1.52
281 19.03
282 5.39
283 4.75
284 3.07
285 3.24
286 2.19
287 4.67
288 1.5
295 1.21
296 9.97
297 3.18
298 1.53
299 27.75
300 17.06
301 5.19
302 1.13
312 1.55
313 4.21
314 99.99
315 24.23
316 3.84
338 1.16
339 1.12
365 5.75
367 1.78
381 3.66
382 1.46
383 12.44
384 4.12
385 1.19
396 1.02
398 20.27
399 7.15
400 2.07

$$$$

     RDKit          2D

 16 17  0  0  1  0  0  0  0  0999 V2000
    2.3190    5.4700    0.0000 C   0  0  0  0  0  0  0  0  0  0  0  0
   -2.5900    0.2200    0.0000 C   0  0  0  0  0  0  0  0  0  0  0  0
   -1.7100    1.4300    0.0000 C   0  0  0  0  0  0  0  0  0  0  0  0
   -2.1753   -2.4160    0.0000 C   0  0  0  0  0  0  0  0  0  0  0  0
    2.3200    0.9700    0.0000 C   0  0  0  0  0  0  0  0  0  0  0  0
   -1.7100   -0.9900    0.0000 C   0  0  0  0  0  0  0  0  0  0  0  0
   -0.2800    0.9700    0.0000 C   0  0  0  0  0  0  0  0  0  0  0  0
    1.0200    1.7200    0.0000 C   0  0  0  0  0  0  0  0  0  0  0  0
   -0.2800   -0.5300    0.0000 C   0  0  0  0  0  0  0  0  0  0  0  0
    1.0200    3.2200    0.0000 C   0  0  0  0  0  0  0  0  0  0  0  0
    1.0200   -1.2800    0.0000 C   0  0  0  0  0  0  0  0  0  0  0  0
   -3.6429   -2.7261    0.0000 O   0  0  0  0  0  0  0  0  0  0  0  0
   -0.2790    3.9700    0.0000 O   0  0  0  0  0  0  0  0  0  0  0  0
    1.0200   -2.7800    0.0000 O   0  0  0  0  0  0  0  0  0  0  0  0
    2.3190    3.9700    0.0000 O   0  0  0  0  0  0  0  0  0  0  0  0
    2.3200   -0.5300    0.0000 O   0  0  0  0  0  0  0  0  0  0  0  0
  3  2  1  0
  6  2  2  0
  6  4  1  0
  7  3  1  6
  8  5  2  0
  8  7  1  0
  9  6  1  6
  9  7  1  0
 10  8  1  0
 11  9  1  0
 12  4  1  0
 13 10  2  0
 11 14  1  1
 15  1  1  0
 15 10  1  0
 16  5  1  0
 16 11  1  0
M  END
>  <NAME>  (2978) 
GENIPIN

>  <SYNONYMS>  (2978) 


>  <SPECTRUM TYPE>  (2978) 
MS1

>  <INSTRUMENT TYPE>  (2978) 
EI-B

>  <INSTRUMENT>  (2978) 
HITACHI M-80

>  <ION MODE>  (2978) 
P

>  <INCHIKEY>  (2978) 
AZKVWQKMDGGDSV-BCMRRPTOSA-N

>  <FORMULA>  (2978) 
C11H14O5

>  <EXACT MASS>  (2978) 
226.08412354799998

>  <MW>  (2978) 
226

>  <ID>  (2978) 
JP008182

>  <CONTRIBUTOR>  (2978) 
University of Tokyo Team, {Faculty of Engineering, University of Tokyo

>  <COMMENT>  (2978) 
SMILES=COC(=O)C(=C2)C([H])(C1)C([H])(C(O)O2)C(CO)=C1
cas=6902-77-8
InChI=InChI=1S/C11H14O5/c1-15-10(13)8-5-16-11(14)9-6(4-12)2-3-7(8)9/h2,5,7,9,11-12,14H,3-4H2,1H3/t7-,9-,11-/m1/s1
computed SMILES=O=C(OC)C1=COC(O)C2C(=CCC12)CO
accession=JP008182
date=2016.01.19 (Created 2008.10.21, modified 2011.05.06)
author=NARA WOMEN'S UNIVERSITY
license=CC BY-NC-SA
exact mass=226.08412
ionization energy=70 eV
ion type=[M]+*
computed spectral entropy=4.287024619347642
computed normalized entropy=0.8779845439802008
SPLASH=splash10-004l-9400000000-a1fa3ff13ee4ffa42567
submitter=submitter = University of Tokyo Team (Faculty of Engineering, University of Tokyo)
MoNA Rating=3.75

>  <NUM PEAKS>  (2978) 
132

>  <MASS SPECTRAL PEAKS>  (2978) 
14 3.63
15 41.82
18 2.17
19 2.23
26 4.35
27 30.41
29 51.21
30 3.73
31 33.64
33 6.14
37 1.97
38 7.15
39 61.36
40 12.8
41 49.78
42 15.82
43 27.54
44 3.45
45 7.88
46 1.77
47 2.36
50 12.18
51 36.27
52 14.73
53 38.42
54 8.47
55 25.49
56 1.88
57 5.31
59 20.36
60 2.5
61 5.46
62 4.49
63 14.48
64 4.37
65 34.3
66 20.85
67 36.4
68 14.63
69 13.2
70 4.43
71 19.47
72 1.25
73 1.26
74 8.97
75 3.9
76 2.88
77 57.78
78 77.66
79 47.27
80 11.96
81 32.7
82 9.41
83 6.41
84 1.31
85 2.74
86 1.45
87 1.07
89 6.58
90 6.94
91 99.99
92 20.4
93 10.64
94 7.57
95 30.16
96 39.96
97 7.99
98 3.73
99 3.93
100 1.38
101 1.78
102 6.8
103 14.53
104 7.3
105 20.5
106 19.49
107 19.32
108 6
109 5.77
110 2.42
111 3.64
117 2.35
118 5.83
119 45.57
120 63.24
121 21.25
123 3.76
124 12.36
125 2.9
127 2.12
128 3
129 1.41
130 5.46
131 11.03
132 2.3
133 2.77
134 2.27
135 11.13
136 3.79
137 5.1
138 2.13
139 7.4
140 1.2
146 2.63
147 43.11
148 79.82
149 17.29
150 2.39
151 5.8
152 3.08
158 2.66
159 2.23
161 1.51
162 21.91
163 4.34
164 1.71
165 6.49
166 2.15
175 7.29
176 34.91
177 9.84
178 1.63
179 6.93
180 26.62
181 3.15
190 16.61
191 2.61
194 3.69
195 6.29
208 7.45
209 1.29
226 4.01

$$$$

     RDKit          2D

 31 34  0  0  1  0  0  0  0  0999 V2000
    9.6794    7.6838    0.0000 C   0  0  0  0  0  0  0  0  0  0  0  0
    7.2143    8.5043    0.0000 C   0  0  0  0  0  0  0  0  0  0  0  0
    3.3280    5.0551    0.0000 C   0  0  0  0  0  0  0  0  0  0  0  0
   -3.7067   -3.5753    0.0000 C   0  0  0  0  0  0  0  0  0  0  0  0
   -1.7818   -3.5657    0.0000 C   0  0  0  0  0  0  0  0  0  0  0  0
   -1.4651    1.3500    0.0000 C   0  0  0  0  0  0  0  0  0  0  0  0
    2.5987    3.5305    0.0000 C   0  0  0  0  0  0  0  0  0  0  0  0
    2.5768   -0.9228    0.0000 C   0  0  0  0  0  0  0  0  0  0  0  0
    6.2669    5.6578    0.0000 C   0  0  0  0  0  0  0  0  0  0  0  0
    7.7363    5.9592    0.0000 C   0  0  0  0  0  0  0  0  0  0  0  0
    5.7931    4.2346    0.0000 C   0  0  0  0  0  0  0  0  0  0  0  0
    1.1600   -1.6800    0.0000 C   0  0  0  0  0  0  0  0  0  0  0  0
   -0.1700   -2.4200    0.0000 C   0  0  0  0  0  0  0  0  0  0  0  0
    4.7000    1.2900    0.0000 C   0  0  0  0  0  0  0  0  0  0  0  0
   -0.1700    2.0400    0.0000 C   0  0  0  0  0  0  0  0  0  0  0  0
   -4.0600   -0.1500    0.0000 C   0  0  0  0  0  0  0  0  0  0  0  0
   -2.7500    0.5700    0.0000 C   0  0  0  0  0  0  0  0  0  0  0  0
    3.8500    0.1000    0.0000 C   0  0  0  0  0  0  0  0  0  0  0  0
    1.1600    2.8100    0.0000 C   0  0  0  0  0  0  0  0  0  0  0  0
    8.2100    7.3824    0.0000 C   0  0  0  0  0  0  0  0  0  0  0  0
    4.3237    3.9332    0.0000 C   0  0  0  0  0  0  0  0  0  0  0  0
    3.8500    2.5100    0.0000 C   0  0  0  0  0  0  0  0  0  0  0  0
   -0.1700    0.5700    0.0000 C   0  0  0  0  0  0  0  0  0  0  0  0
    1.1600   -0.1500    0.0000 C   0  0  0  0  0  0  0  0  0  0  0  0
   -1.4700   -1.6800    0.0000 C   0  0  0  0  0  0  0  0  0  0  0  0
   -4.0600   -1.6800    0.0000 C   0  0  0  0  0  0  0  0  0  0  0  0
   -2.7500   -2.4200    0.0000 C   0  0  0  0  0  0  0  0  0  0  0  0
   -1.4700   -0.1500    0.0000 C   0  0  0  0  0  0  0  0  0  0  0  0
    2.4300    2.0400    0.0000 C   0  0  0  0  0  0  0  0  0  0  0  0
    2.4300    0.5700    0.0000 C   0  0  0  0  0  0  0  0  0  0  0  0
   -5.3555   -2.4361    0.0000 O   0  0  0  0  0  0  0  0  0  0  0  0
 10  9  1  0
 11  9  1  0
 13 12  1  0
 17 16  1  0
 18 14  1  0
 19 15  1  0
 20  1  1  0
 20  2  1  0
 20 10  2  0
 21  3  1  6
 21 11  1  0
 22 14  1  1
 22 21  1  0
 23 15  1  0
 24 12  1  0
 24 23  2  0
 25 13  1  1
 26 16  1  0
 27  4  1  0
 27  5  1  0
 27 25  1  0
 27 26  1  0
 28  6  1  1
 28 17  1  0
 28 23  1  0
 28 25  1  0
 29  7  1  1
 29 19  1  0
 29 22  1  0
 30  8  1  6
 30 18  1  0
 30 24  1  0
 30 29  1  0
 26 31  1  1
M  END
>  <NAME>  (2979) 
LANOSTEROL

>  <SYNONYMS>  (2979) 


>  <SPECTRUM TYPE>  (2979) 
MS1

>  <INSTRUMENT TYPE>  (2979) 
EI-B

>  <INSTRUMENT>  (2979) 
HITACHI M-80

>  <ION MODE>  (2979) 
P

>  <INCHIKEY>  (2979) 
CAHGCLMLTWQZNJ-BQNIITSRSA-N

>  <FORMULA>  (2979) 
C30H50O

>  <EXACT MASS>  (2979) 
426.38616621999995

>  <MW>  (2979) 
426

>  <ID>  (2979) 
JP008181

>  <CONTRIBUTOR>  (2979) 
University of Tokyo Team, {Faculty of Engineering, University of Tokyo

>  <COMMENT>  (2979) 
SMILES=C(C4(C)1)CC(O)C(C)(C)C(CCC(=C34)C(C(CC3)(C)2)(C)CCC2([H])C([H])(C)CCC=C(C)C)1[H]
cas=79-63-0
InChI=InChI=1S/C30H50O/c1-20(2)10-9-11-21(3)22-14-18-30(8)24-12-13-25-27(4,5)26(31)16-17-28(25,6)23(24)15-19-29(22,30)7/h10,21-22,25-26,31H,9,11-19H2,1-8H3/t21-,22-,25+,26+,28-,29-,30+/m1/s1
computed SMILES=OC1CCC2(C3=C(CCC2C1(C)C)C4(C)CCC(C(C)CCC=C(C)C)C4(C)CC3)C
accession=JP008181
date=2016.01.19 (Created 2008.10.21, modified 2011.05.06)
author=NARA WOMEN'S UNIVERSITY
license=CC BY-NC-SA
exact mass=426.38617
ionization energy=70 eV
ion type=[M]+*
computed spectral entropy=4.53725309655433
computed normalized entropy=0.8604690833295235
SPLASH=splash10-0aou-9820200000-573525b346ad3c9eef59
submitter=submitter = University of Tokyo Team (Faculty of Engineering, University of Tokyo)
MoNA Rating=3.75

>  <NUM PEAKS>  (2979) 
195

>  <MASS SPECTRAL PEAKS>  (2979) 
27 3.6
29 11.08
39 3.94
41 67.25
42 4.55
43 42.98
44 1.66
53 7.27
54 1.22
55 56.03
56 4.06
57 18.68
58 1.31
59 1.8
65 1.87
67 18.49
68 2.93
69 99.99
70 7.42
71 10.33
77 5.83
78 1.68
79 12.72
80 2.1
81 27.74
82 4.61
83 17.38
84 1.82
85 3.42
91 14.15
92 2.34
93 19.05
94 3.36
95 34.39
96 3.1
97 7.3
98 1.1
99 1.01
103 1.4
104 1.11
105 21.76
106 4.85
107 23.61
108 4.55
109 47.46
110 5.55
111 8.12
112 1.03
115 2.36
116 1.5
117 5.55
118 1.96
119 21.1
120 4.86
121 22.04
122 4.58
123 15.89
124 1.77
125 2.09
127 1.83
128 3.06
129 5.91
130 2.75
131 11.53
132 4.04
133 16.66
134 4.44
135 19.21
136 3.87
137 9.12
138 1.31
139 1.78
141 2.75
142 2.17
143 7.45
144 2.9
145 11.09
148 3.11
149 8.72
150 1.61
151 2.57
153 2.16
154 1.38
155 2.79
156 2.28
157 6.28
158 2.83
159 11.98
160 4.18
161 11.76
162 2.24
163 6.67
164 1.24
165 3.54
167 1.2
169 2.74
170 1.61
171 6.64
172 2.45
173 10.55
174 3.05
175 8.44
176 1.79
177 3.49
179 2.29
183 2.15
184 1.27
185 5.72
186 2.13
187 12.57
188 3.37
189 12.42
190 3.22
191 5.56
192 1.33
193 1.74
197 2.24
199 5.38
200 1.67
201 4.95
202 1.24
203 6.81
204 2.19
205 3.79
206 1.21
207 1.04
211 1.61
213 4.25
214 2.62
215 6.66
216 1.42
217 2.72
219 1.54
225 1.89
227 5.25
228 1.62
229 5.25
230 1.43
231 2.85
233 1.32
239 2.02
240 2.27
241 8.03
242 1.81
243 3.81
245 3.19
246 2.34
247 3.81
253 2.62
255 5
256 1.78
257 4.89
258 2.37
259 9.68
260 2.23
261 1.29
267 1.23
269 1.85
270 1.1
271 8.63
272 3.43
273 6.66
274 2.05
281 1.66
283 2.56
285 1.84
286 1.64
287 1.37
288 1.16
295 1.55
297 2.58
299 2.71
309 1.94
311 3
313 1.64
315 1.13
323 1.08
339 1.17
341 2.22
376 3.85
377 1.01
393 20.98
394 7.02
395 1.47
396 1.29
397 2.5
407 1.73
409 1.41
410 1.11
411 59.58
412 19.35
413 3.52
426 46.82
427 15.27
428 2.77

$$$$

     RDKit          2D

 11 11  0  0  0  0  0  0  0  0999 V2000
   -1.3000    0.7500    0.0000 C   0  0  0  0  0  0  0  0  0  0  0  0
   -0.0000   -1.5000    0.0000 C   0  0  0  0  0  0  0  0  0  0  0  0
    0.0000    1.5000    0.0000 C   0  0  0  0  0  0  0  0  0  0  0  0
    1.3000   -0.7500    0.0000 C   0  0  0  0  0  0  0  0  0  0  0  0
   -2.5989   -1.5002    0.0000 C   0  0  0  0  0  0  0  0  0  0  0  0
    2.5989    1.5002    0.0000 C   0  0  0  0  0  0  0  0  0  0  0  0
   -1.3000   -0.7500    0.0000 C   0  0  0  0  0  0  0  0  0  0  0  0
    1.3000    0.7500    0.0000 C   0  0  0  0  0  0  0  0  0  0  0  0
   -3.8978   -2.2504    0.0000 N   0  0  0  0  0  0  0  0  0  0  0  0
    3.8981    0.7504    0.0000 N   0  0  0  0  0  0  0  0  0  0  0  0
    5.1970    1.5006    0.0000 O   0  0  0  0  0  0  0  0  0  0  0  0
  3  1  2  0
  4  2  1  0
  7  1  1  0
  7  2  2  0
  7  5  1  0
  8  3  1  0
  8  4  2  0
  8  6  1  0
  9  5  3  0
  6 10  2  0
 11 10  1  0
M  END
>  <NAME>  (2980) 
4-CYANOBENZALDOXIME

>  <SYNONYMS>  (2980) 


>  <SPECTRUM TYPE>  (2980) 
MS1

>  <INSTRUMENT TYPE>  (2980) 
EI-B

>  <INSTRUMENT>  (2980) 
HITACHI M-80

>  <ION MODE>  (2980) 
P

>  <INCHIKEY>  (2980) 
XUPNOABKAQYYOD-UXBLZVDNSA-N

>  <FORMULA>  (2980) 
C8H6N2O

>  <EXACT MASS>  (2980) 
146.048012812

>  <MW>  (2980) 
146

>  <ID>  (2980) 
JP008180

>  <CONTRIBUTOR>  (2980) 
University of Tokyo Team, {Faculty of Engineering, University of Tokyo

>  <COMMENT>  (2980) 
SMILES=ON=Cc(c1)ccc(C#N)c1
InChI=InChI=1S/C8H6N2O/c9-5-7-1-3-8(4-2-7)6-10-11/h1-4,6,11H/b10-6+
computed SMILES=N#CC1=CC=C(C=NO)C=C1
accession=JP008180
date=2016.01.19 (Created 2008.10.21, modified 2011.05.06)
author=NARA WOMEN'S UNIVERSITY
license=CC BY-NC-SA
exact mass=146.04801
ionization energy=70 eV
ion type=[M]+*
computed spectral entropy=3.401005701621271
computed normalized entropy=0.8411977678044242
SPLASH=splash10-0udi-8900000000-6494796a4c20afc0a9cd
submitter=submitter = University of Tokyo Team (Faculty of Engineering, University of Tokyo)
MoNA Rating=3.75

>  <NUM PEAKS>  (2980) 
57

>  <MASS SPECTRAL PEAKS>  (2980) 
26 2.89
27 5.62
30 3.14
36 1.24
37 7.28
38 9.81
39 10.62
41 2.98
43 2.77
44 4.62
46 1.19
49 4.83
50 28.26
51 26.59
52 9.6
53 1.87
61 4.71
62 10.62
63 14.98
64 16.25
65 3.98
67 3.44
73 2.88
74 11.12
75 31.89
76 27.72
77 3.75
78 1.32
85 1.63
86 2.11
87 3.56
88 8.06
89 5.65
90 7.79
91 26.1
92 5.34
94 10.18
99 4.26
100 5.05
101 16.65
102 54.87
103 76.01
104 6.54
114 3.06
115 2.58
116 1.45
117 3.92
118 4.52
119 35.82
120 4
127 1.26
128 15.49
129 13.91
130 2.62
145 13.38
146 99.99
147 9.21

$$$$

     RDKit          2D

 30 33  0  0  1  0  0  0  0  0999 V2000
   10.0746    4.6865    0.0000 C   0  0  0  0  0  0  0  0  0  0  0  0
    5.6618    3.8047    0.0000 C   0  0  0  0  0  0  0  0  0  0  0  0
    5.1527    6.3525    0.0000 C   0  0  0  0  0  0  0  0  0  0  0  0
    9.0564    9.7820    0.0000 C   0  0  0  0  0  0  0  0  0  0  0  0
   13.3432   14.0791    0.0000 C   0  0  0  0  0  0  0  0  0  0  0  0
   10.6578   10.3305    0.0000 C   0  0  0  0  0  0  0  0  0  0  0  0
    8.6037    4.3926    0.0000 C   0  0  0  0  0  0  0  0  0  0  0  0
    9.5655    7.2342    0.0000 C   0  0  0  0  0  0  0  0  0  0  0  0
    8.0946    6.9403    0.0000 C   0  0  0  0  0  0  0  0  0  0  0  0
   16.9253   12.3105    0.0000 C   0  0  0  0  0  0  0  0  0  0  0  0
   16.0102   11.0882    0.0000 C   0  0  0  0  0  0  0  0  0  0  0  0
   12.6091    7.9602    0.0000 C   0  0  0  0  0  0  0  0  0  0  0  0
   13.8973    8.6399    0.0000 C   0  0  0  0  0  0  0  0  0  0  0  0
   15.1639   16.4519    0.0000 C   0  0  0  0  0  0  0  0  0  0  0  0
   12.4925   12.8862    0.0000 C   0  0  0  0  0  0  0  0  0  0  0  0
   14.2812   15.2455    0.0000 C   0  0  0  0  0  0  0  0  0  0  0  0
   11.5675   11.6651    0.0000 C   0  0  0  0  0  0  0  0  0  0  0  0
   17.2562   14.8591    0.0000 C   0  0  0  0  0  0  0  0  0  0  0  0
    6.1427    5.2256    0.0000 C   0  0  0  0  0  0  0  0  0  0  0  0
   10.0464    8.6551    0.0000 C   0  0  0  0  0  0  0  0  0  0  0  0
    7.6137    5.5195    0.0000 C   0  0  0  0  0  0  0  0  0  0  0  0
   16.3489   13.6963    0.0000 C   0  0  0  0  0  0  0  0  0  0  0  0
   16.6812   16.2548    0.0000 C   0  0  0  0  0  0  0  0  0  0  0  0
   14.4930   11.2852    0.0000 C   0  0  0  0  0  0  0  0  0  0  0  0
   11.5173    8.9490    0.0000 C   0  0  0  0  0  0  0  0  0  0  0  0
   13.6154   10.1185    0.0000 C   0  0  0  0  0  0  0  0  0  0  0  0
   13.9502   12.6969    0.0000 C   0  0  0  0  0  0  0  0  0  0  0  0
   14.8317   13.8933    0.0000 C   0  0  0  0  0  0  0  0  0  0  0  0
   12.1576   10.3078    0.0000 C   0  0  0  0  0  0  0  0  0  0  0  0
   17.5944   17.4448    0.0000 O   0  0  0  0  0  0  0  0  0  0  0  0
  7  1  1  0
  9  8  1  0
 11 10  1  0
 13 12  1  0
 16 14  1  0
 17 15  1  0
 19  2  1  0
 19  3  1  0
 20  4  1  1
 20  8  1  0
  7 21  2  0
 21  9  1  0
 21 19  1  0
 22 10  2  0
 22 18  1  0
 23 14  1  0
 23 18  1  0
 24 11  1  1
 25 12  1  6
 25 20  1  0
 26 13  1  6
 26 24  1  0
 27 15  1  6
 27 24  1  0
 28  5  1  6
 28 16  1  0
 28 22  1  0
 28 27  1  0
 29  6  1  6
 29 17  1  0
 29 25  1  0
 29 26  1  0
 23 30  1  6
M  END
>  <NAME>  (2981) 
ISOFUCOSTEROL

>  <SYNONYMS>  (2981) 


>  <SPECTRUM TYPE>  (2981) 
MS1

>  <INSTRUMENT TYPE>  (2981) 
EI-B

>  <INSTRUMENT>  (2981) 
HITACHI M-80

>  <ION MODE>  (2981) 
P

>  <INCHIKEY>  (2981) 
OSELKOCHBMDKEJ-JUGJNGJRSA-N

>  <FORMULA>  (2981) 
C29H48O

>  <EXACT MASS>  (2981) 
412.37051615599995

>  <MW>  (2981) 
412

>  <ID>  (2981) 
JP008179

>  <CONTRIBUTOR>  (2981) 
University of Tokyo Team, {Faculty of Engineering, University of Tokyo

>  <COMMENT>  (2981) 
SMILES=CC(C4([H])C([H])(C)CCC(=CC)C(C)C)(C([H])3CC4)CCC(C([H])23)([H])C(C)(C1=CC2)CCC(C1)O
cas=17605-67-3
InChI=InChI=1S/C29H48O/c1-7-21(19(2)3)9-8-20(4)25-12-13-26-24-11-10-22-18-23(30)14-16-28(22,5)27(24)15-17-29(25,26)6/h7,10,19-20,23-27,30H,8-9,11-18H2,1-6H3/b21-7+/t20-,23+,24+,25-,26+,27+,28+,29-/m1/s1
computed SMILES=OC1CC2=CCC3C(CCC4(C)C(CCC34)C(C)CCC(=CC)C(C)C)C2(C)CC1
accession=JP008179
date=2016.01.19 (Created 2008.10.21, modified 2011.05.06)
author=NARA WOMEN'S UNIVERSITY
license=CC BY-NC-SA
exact mass=412.37052
ionization energy=70 eV
ion type=[M]+*
computed spectral entropy=3.831708574586922
computed normalized entropy=0.8216486797103739
SPLASH=splash10-03di-3589000000-2cb2e378478814cf2589
submitter=submitter = University of Tokyo Team (Faculty of Engineering, University of Tokyo)
MoNA Rating=3.75

>  <NUM PEAKS>  (2981) 
106

>  <MASS SPECTRAL PEAKS>  (2981) 
28 1.48
41 3.2
43 2.89
55 8.23
56 1.19
57 1.7
67 2.46
69 6.82
79 2.23
81 4.62
82 3.25
83 5.34
91 2.23
93 2.85
94 1.09
95 4.49
97 3.26
98 1.46
105 3.16
107 4.14
108 1.21
109 2.85
110 1.18
111 1.19
117 1.04
119 2.47
120 2.29
121 2.75
123 1.94
131 2.31
132 1.19
133 3.33
134 1.32
135 2.2
137 1.32
143 1.77
144 1.18
145 4.22
146 1.2
147 2.67
149 1.29
157 1.69
158 3.4
159 3.96
160 1.68
161 3.02
163 1.44
171 1.7
172 1
173 2.17
174 1
175 2.03
176 2.65
177 1.23
185 1.72
186 1.13
187 1.83
188 1.2
189 1.81
190 1.01
197 1.39
199 2.09
201 1.42
202 2.22
203 2.23
211 4.61
212 1.56
213 4.8
214 2.05
215 1.92
217 1.23
225 1.18
227 1.71
228 2.87
229 15.17
230 4.02
231 5.44
232 2.62
239 1.04
241 1.12
245 1.29
246 2.27
253 1.6
254 1.11
255 2.4
256 1.32
257 1.07
258 2.46
270 1.62
271 8.14
272 4.19
273 1.21
281 14.53
282 3.56
283 1.11
296 8.84
297 2.44
299 16.95
300 5.7
301 1.51
314 99.99
315 24.73
316 3.23
397 1.65
412 11.31
413 3.75

$$$$

     RDKit          2D

 13 14  0  0  0  0  0  0  0  0999 V2000
    3.3989    1.3902    0.0000 C   0  0  0  0  0  0  0  0  0  0  0  0
   -3.1000   -0.8600    0.0000 C   0  0  0  0  0  0  0  0  0  0  0  0
   -3.1000    0.6400    0.0000 C   0  0  0  0  0  0  0  0  0  0  0  0
   -1.8000   -1.6100    0.0000 C   0  0  0  0  0  0  0  0  0  0  0  0
   -1.8000    1.3900    0.0000 C   0  0  0  0  0  0  0  0  0  0  0  0
    2.1000   -0.8600    0.0000 C   0  0  0  0  0  0  0  0  0  0  0  0
    2.1000    0.6400    0.0000 C   0  0  0  0  0  0  0  0  0  0  0  0
   -0.5000   -0.8600    0.0000 C   0  0  0  0  0  0  0  0  0  0  0  0
   -0.5000    0.6400    0.0000 C   0  0  0  0  0  0  0  0  0  0  0  0
    0.8000   -1.6100    0.0000 C   0  0  0  0  0  0  0  0  0  0  0  0
    0.8000    1.3900    0.0000 C   0  0  0  0  0  0  0  0  0  0  0  0
    0.8000   -3.1100    0.0000 O   0  0  0  0  0  0  0  0  0  0  0  0
    0.8000    2.8900    0.0000 O   0  0  0  0  0  0  0  0  0  0  0  0
  3  2  2  0
  4  2  1  0
  5  3  1  0
  7  1  1  0
  7  6  2  0
  8  4  2  0
  9  5  2  0
  9  8  1  0
 10  6  1  0
 10  8  1  0
 11  7  1  0
 11  9  1  0
 12 10  2  0
 13 11  2  0
M  END
>  <NAME>  (2982) 
2-METHYL-1,4-NAPHTHOQUINONE

>  <SYNONYMS>  (2982) 
VITAMIN K3

>  <SPECTRUM TYPE>  (2982) 
MS1

>  <INSTRUMENT TYPE>  (2982) 
EI-B

>  <INSTRUMENT>  (2982) 
HITACHI M-80

>  <ION MODE>  (2982) 
P

>  <INCHIKEY>  (2982) 
MJVAVZPDRWSRRC-UHFFFAOYSA-N

>  <FORMULA>  (2982) 
C11H8O2

>  <EXACT MASS>  (2982) 
172.052429496

>  <MW>  (2982) 
172

>  <ID>  (2982) 
JP008178

>  <CONTRIBUTOR>  (2982) 
University of Tokyo Team, {Faculty of Engineering, University of Tokyo

>  <COMMENT>  (2982) 
SMILES=Cc(c1)c(=O)c(c2)c(ccc2)c(=O)1
cas=58-27-5
InChI=InChI=1S/C11H8O2/c1-7-6-10(12)8-4-2-3-5-9(8)11(7)13/h2-6H,1H3
computed SMILES=O=C1C=C(C(=O)C=2C=CC=CC12)C
accession=JP008178
date=2016.01.19 (Created 2008.10.21, modified 2011.05.06)
author=NARA WOMEN'S UNIVERSITY
license=CC BY-NC-SA
exact mass=172.05243
ionization energy=70 eV
ion type=[M]+*
computed spectral entropy=3.142171535653212
computed normalized entropy=0.7805955297981323
SPLASH=splash10-0g4i-6900000000-0c6c7737ff416205089c
submitter=submitter = University of Tokyo Team (Faculty of Engineering, University of Tokyo)
MoNA Rating=3.75

>  <NUM PEAKS>  (2982) 
56

>  <MASS SPECTRAL PEAKS>  (2982) 
17 1.55
18 5.88
26 1.42
27 2.61
28 5.13
29 1.73
37 3.27
38 9.43
39 25.1
40 4.7
49 1.6
50 25.14
51 7.3
52 1.88
53 2.59
57 1.71
58 2.19
61 1.85
62 4.21
63 6.93
64 1.16
65 2.22
66 2.72
67 2.62
72 1.06
73 2.29
74 15.07
75 14.34
76 48.39
77 9.78
85 1.02
86 2.17
87 2.83
88 1.69
89 6.33
90 1.04
101 2.89
102 1.04
104 55.42
105 15.44
106 1.08
113 1.55
114 2.72
115 43.47
116 41.35
117 3.89
129 3.49
132 1.29
143 2.68
144 37.35
145 4.42
157 1.24
171 2.71
172 99.99
173 12.81
174 1.93

$$$$

     RDKit          2D

  4  3  0  0  0  0  0  0  0  0999 V2000
    0.9743    0.5625    0.0000 C   0  0  0  0  0  0  0  0  0  0  0  0
   -1.6238    0.5625    0.0000 C   0  0  0  0  0  0  0  0  0  0  0  0
   -0.3248    2.8125    0.0000 O   0  0  0  0  0  0  0  0  0  0  0  0
   -0.3248    1.3125    0.0000 S   0  0  0  0  0  0  0  0  0  0  0  0
  4  1  1  0
  4  2  1  0
  4  3  2  0
M  END
>  <NAME>  (2983) 
DIMETHYL SULFOXIDE

>  <SYNONYMS>  (2983) 
METHYL SULFOXIDE

>  <SPECTRUM TYPE>  (2983) 
MS1

>  <INSTRUMENT TYPE>  (2983) 
EI-B

>  <INSTRUMENT>  (2983) 
HITACHI M-80

>  <ION MODE>  (2983) 
P

>  <INCHIKEY>  (2983) 
IAZDPXIOMUYVGZ-UHFFFAOYSA-N

>  <FORMULA>  (2983) 
C2H6OS

>  <EXACT MASS>  (2983) 
78.013935812

>  <MW>  (2983) 
78

>  <ID>  (2983) 
JP008177

>  <CONTRIBUTOR>  (2983) 
University of Tokyo Team, {Faculty of Engineering, University of Tokyo

>  <COMMENT>  (2983) 
SMILES=CS(C)=O
cas=67-68-5
InChI=InChI=1S/C2H6OS/c1-4(2)3/h1-2H3
computed SMILES=O=S(C)C
accession=JP008177
date=2016.01.19 (Created 2008.10.21, modified 2011.05.06)
author=NARA WOMEN'S UNIVERSITY
license=CC BY-NC-SA
exact mass=78.01394
ionization energy=70 eV
ion type=[M]+*
computed spectral entropy=2.5328534644040372
computed normalized entropy=0.7601134494205647
SPLASH=splash10-03fs-9000000000-945240052686ea267e2b
submitter=submitter = University of Tokyo Team (Faculty of Engineering, University of Tokyo)
MoNA Rating=3.75

>  <NUM PEAKS>  (2983) 
28

>  <MASS SPECTRAL PEAKS>  (2983) 
13 2.48
14 8.78
15 33.76
26 1.03
27 5.46
28 2.28
29 9.28
31 6.44
32 3.62
33 4.21
34 4.54
35 5.84
44 3.53
45 47.22
46 13.65
47 11.14
48 10.06
49 1.56
58 1.3
59 1.01
61 17.03
62 6.78
63 99.99
64 2.65
65 4.51
78 79.06
79 10.77
80 4.3

$$$$

     RDKit          2D

 13 13  0  0  0  0  0  0  0  0999 V2000
    3.2476    1.1250    0.0000 C   0  0  0  0  0  0  0  0  0  0  0  0
   -1.9492    1.1256    0.0000 C   0  0  0  0  0  0  0  0  0  0  0  0
    0.6498   -3.3758    0.0000 C   0  0  0  0  0  0  0  0  0  0  0  0
    0.6490    1.1258    0.0000 C   0  0  0  0  0  0  0  0  0  0  0  0
    1.9490   -1.1258    0.0000 C   0  0  0  0  0  0  0  0  0  0  0  0
    1.9486    0.3750    0.0000 C   0  0  0  0  0  0  0  0  0  0  0  0
   -0.6500    0.3758    0.0000 C   0  0  0  0  0  0  0  0  0  0  0  0
    0.6500   -1.8758    0.0000 C   0  0  0  0  0  0  0  0  0  0  0  0
   -0.6495   -1.1250    0.0000 C   0  0  0  0  0  0  0  0  0  0  0  0
   -2.6986   -0.5760    0.0000 O   0  0  0  0  0  0  0  0  0  0  0  0
   -3.2476   -2.6250    0.0000 O   0  0  0  0  0  0  0  0  0  0  0  0
   -1.1986   -3.1740    0.0000 O   0  0  0  0  0  0  0  0  0  0  0  0
   -1.9486   -1.8750    0.0000 S   0  0  0  0  0  0  0  0  0  0  0  0
  6  1  1  0
  6  4  2  0
  6  5  1  0
  7  2  1  0
  7  4  1  0
  8  3  1  0
  8  5  2  0
  9  7  2  0
  9  8  1  0
 13  9  1  0
 13 10  1  0
 13 11  2  0
 13 12  2  0
M  END
>  <NAME>  (2984) 
2-MESITYLENESULFONIC ACID

>  <SYNONYMS>  (2984) 
2,4,6-TRIMETHYLBENZENESULFONIC ACID

>  <SPECTRUM TYPE>  (2984) 
MS1

>  <INSTRUMENT TYPE>  (2984) 
EI-B

>  <INSTRUMENT>  (2984) 
HITACHI M-80

>  <ION MODE>  (2984) 
P

>  <INCHIKEY>  (2984) 
LXFQSRIDYRFTJW-UHFFFAOYSA-N

>  <FORMULA>  (2984) 
C9H12O3S

>  <EXACT MASS>  (2984) 
200.05071524399997

>  <MW>  (2984) 
200

>  <ID>  (2984) 
JP008176

>  <CONTRIBUTOR>  (2984) 
University of Tokyo Team, {Faculty of Engineering, University of Tokyo

>  <COMMENT>  (2984) 
SMILES=Cc(c1)cc(C)c(c(C)1)S(O)(=O)=O
cas=3453-83-6
InChI=InChI=1S/C9H12O3S/c1-6-4-7(2)9(8(3)5-6)13(10,11)12/h4-5H,1-3H3,(H,10,11,12)
computed SMILES=O=S(=O)(O)C=1C(=CC(=CC1C)C)C
accession=JP008176
date=2016.01.19 (Created 2008.10.21, modified 2011.05.06)
author=NARA WOMEN'S UNIVERSITY
license=CC BY-NC-SA
exact mass=200.05071
ionization energy=70 eV
ion type=[M]+*
computed spectral entropy=3.1766871107794445
computed normalized entropy=0.7891700787513765
SPLASH=splash10-0gb9-3920000000-ca7810617a8f037fc7ac
submitter=submitter = University of Tokyo Team (Faculty of Engineering, University of Tokyo)
MoNA Rating=3.75

>  <NUM PEAKS>  (2984) 
56

>  <MASS SPECTRAL PEAKS>  (2984) 
17 1.63
18 7.14
27 3.72
39 8.85
40 1.19
41 4.75
48 1.57
50 2.23
51 6.93
52 2.57
53 4
62 1.22
63 5.8
64 1.78
65 11.49
66 1.5
67 1.09
74 1.01
75 1.34
76 1.24
77 13.21
78 7.67
79 5.86
81 1.29
82 2.5
89 2.95
90 1.32
91 36.39
92 5.43
93 1.66
102 3.64
103 32.61
104 7.14
105 15.83
106 3.4
107 2.13
115 17.63
116 5.69
117 74.37
118 99.99
119 38.64
120 19.9
121 4.95
134 38.15
135 19.11
136 4.04
164 4.36
165 3.77
166 1.08
182 3.12
183 6.61
184 1.64
199 2.11
200 86.57
201 18.07
202 5.69

$$$$

     RDKit          2D

 13 13  0  0  0  0  0  0  0  0999 V2000
    2.8670   -1.5973    0.0000 C   0  0  0  0  0  0  0  0  0  0  0  0
    1.5724   -2.3395    0.0000 C   0  0  0  0  0  0  0  0  0  0  0  0
    2.8674   -0.0965    0.0000 C   0  0  0  0  0  0  0  0  0  0  0  0
    0.2734   -1.5895    0.0000 C   0  0  0  0  0  0  0  0  0  0  0  0
    1.5684    0.6535    0.0000 C   0  0  0  0  0  0  0  0  0  0  0  0
    0.2689   -0.0973    0.0000 C   0  0  0  0  0  0  0  0  0  0  0  0
    1.5682    2.1535    0.0000 N   0  0  0  0  0  0  0  0  0  0  0  0
    2.8671    2.9037    0.0000 O   0  0  0  0  0  0  0  0  0  0  0  0
    0.2690    2.9033    0.0000 O   0  0  0  0  0  0  0  0  0  0  0  0
   -0.2836    1.9508    0.0000 O   0  0  0  0  0  0  0  0  0  0  0  0
   -2.3317    1.3983    0.0000 O   0  0  0  0  0  0  0  0  0  0  0  0
   -1.7792   -0.6498    0.0000 O   0  0  0  0  0  0  0  0  0  0  0  0
   -1.0314    0.6505    0.0000 S   0  0  0  0  0  0  0  0  0  0  0  0
  2  1  2  0
  3  1  1  0
  4  2  1  0
  5  3  2  0
  6  4  2  0
  6  5  1  0
  7  5  1  0
  8  7  1  0
  9  7  2  0
 13  6  1  0
 13 10  1  0
 13 11  2  0
 13 12  2  0
M  CHG  2   7   1   8  -1
M  END
>  <NAME>  (2985) 
2-NITROBENZENESULFONIC ACID

>  <SYNONYMS>  (2985) 


>  <SPECTRUM TYPE>  (2985) 
MS1

>  <INSTRUMENT TYPE>  (2985) 
EI-B

>  <INSTRUMENT>  (2985) 
HITACHI M-80

>  <ION MODE>  (2985) 
P

>  <INCHIKEY>  (2985) 
HWTDMFJYBAURQR-UHFFFAOYSA-N

>  <FORMULA>  (2985) 
C6H5NO5S

>  <EXACT MASS>  (2985) 
202.98884326

>  <MW>  (2985) 
203

>  <ID>  (2985) 
JP008175

>  <CONTRIBUTOR>  (2985) 
University of Tokyo Team, {Faculty of Engineering, University of Tokyo

>  <COMMENT>  (2985) 
SMILES=[O-1][N+1](=O)c(c1)c(ccc1)S(O)(=O)=O
InChI=InChI=1S/C6H5NO5S/c8-7(9)5-3-1-2-4-6(5)13(10,11)12/h1-4H,(H,10,11,12)
computed SMILES=O=N(=O)C=1C=CC=CC1S(=O)(=O)O
accession=JP008175
date=2016.01.19 (Created 2008.10.21, modified 2011.05.06)
author=NARA WOMEN'S UNIVERSITY
license=CC BY-NC-SA
exact mass=202.98884
ionization energy=70 eV
ion type=[M]+*
computed spectral entropy=3.4065598658568925
computed normalized entropy=0.8354453914208271
SPLASH=splash10-053i-9610000000-b678ccd5a36c7838a06e
submitter=submitter = University of Tokyo Team (Faculty of Engineering, University of Tokyo)
MoNA Rating=3.75

>  <NUM PEAKS>  (2985) 
59

>  <MASS SPECTRAL PEAKS>  (2985) 
27 1.68
30 52.37
37 1.64
38 4.52
39 19.49
46 14
48 2.72
49 1.17
50 28.86
51 6.42
52 7.55
53 6.83
55 1.07
61 1.14
62 3.19
63 30.88
64 20.98
65 61.96
66 4.44
67 1.07
69 2.97
70 1.76
73 1.6
74 17.39
75 11.69
76 19.24
77 7.76
78 7.95
79 17.64
80 4.19
81 31.6
82 2.04
92 50.61
93 16.43
94 5.57
95 4.29
96 1.73
106 2.09
107 4.23
108 4.68
109 77.98
110 8.51
122 11.42
123 21.84
124 2.65
139 26.08
140 2.23
170 5.25
173 1.23
183 1.32
186 99.99
187 42.27
188 9.88
189 2.52
200 2.31
203 41.85
204 18.47
205 3.47
206 1.02

$$$$

     RDKit          2D

 20 22  0  0  0  0  0  0  0  0999 V2000
    0.5340    5.5708    0.0000 C   0  0  0  0  0  0  0  0  0  0  0  0
    4.4312   -1.1792    0.0000 C   0  0  0  0  0  0  0  0  0  0  0  0
   -3.8976    1.8522    0.0000 C   0  0  0  0  0  0  0  0  0  0  0  0
   -0.7660    4.8208    0.0000 C   0  0  0  0  0  0  0  0  0  0  0  0
    1.8340    4.8208    0.0000 C   0  0  0  0  0  0  0  0  0  0  0  0
    4.4316    0.3217    0.0000 C   0  0  0  0  0  0  0  0  0  0  0  0
    3.1316   -1.9300    0.0000 C   0  0  0  0  0  0  0  0  0  0  0  0
   -3.3847    0.4418    0.0000 C   0  0  0  0  0  0  0  0  0  0  0  0
   -2.9332    3.0023    0.0000 C   0  0  0  0  0  0  0  0  0  0  0  0
   -0.7660    3.3208    0.0000 C   0  0  0  0  0  0  0  0  0  0  0  0
    1.8340    3.3208    0.0000 C   0  0  0  0  0  0  0  0  0  0  0  0
    3.1326    1.0717    0.0000 C   0  0  0  0  0  0  0  0  0  0  0  0
    1.8326   -1.1800    0.0000 C   0  0  0  0  0  0  0  0  0  0  0  0
   -1.9075    0.1813    0.0000 C   0  0  0  0  0  0  0  0  0  0  0  0
   -1.4560    2.7418    0.0000 C   0  0  0  0  0  0  0  0  0  0  0  0
    0.5340    2.5708    0.0000 C   0  0  0  0  0  0  0  0  0  0  0  0
    1.8331    0.3208    0.0000 C   0  0  0  0  0  0  0  0  0  0  0  0
   -0.9432    1.3313    0.0000 C   0  0  0  0  0  0  0  0  0  0  0  0
    0.5340    1.0708    0.0000 C   0  0  0  0  0  0  0  0  0  0  0  0
    0.0210   -0.3387    0.0000 O   0  0  0  0  0  0  0  0  0  0  0  0
  4  1  2  0
  5  1  1  0
  6  2  2  0
  7  2  1  0
  8  3  2  0
  9  3  1  0
 10  4  1  0
 11  5  2  0
 12  6  1  0
 13  7  2  0
 14  8  1  0
 15  9  2  0
 16 10  2  0
 16 11  1  0
 17 12  2  0
 17 13  1  0
 18 14  2  0
 18 15  1  0
 19 16  1  0
 19 17  1  0
 19 18  1  0
 20 19  1  0
M  END
>  <NAME>  (2986) 
TRIPHENYLMETHANOL

>  <SYNONYMS>  (2986) 
TRIPHENYLCARBINOL

>  <SPECTRUM TYPE>  (2986) 
MS1

>  <INSTRUMENT TYPE>  (2986) 
EI-B

>  <INSTRUMENT>  (2986) 
HITACHI M-80

>  <ION MODE>  (2986) 
P

>  <INCHIKEY>  (2986) 
LZTRCELOJRDYMQ-UHFFFAOYSA-N

>  <FORMULA>  (2986) 
C19H16O

>  <EXACT MASS>  (2986) 
260.120115132

>  <MW>  (2986) 
260

>  <ID>  (2986) 
JP008174

>  <CONTRIBUTOR>  (2986) 
University of Tokyo Team, {Faculty of Engineering, University of Tokyo

>  <COMMENT>  (2986) 
SMILES=c(c3)ccc(c3)C(O)(c(c2)cccc2)c(c1)cccc1
cas=76-84-6
InChI=InChI=1S/C19H16O/c20-19(16-10-4-1-5-11-16,17-12-6-2-7-13-17)18-14-8-3-9-15-18/h1-15,20H
computed SMILES=OC(C=1C=CC=CC1)(C=2C=CC=CC2)C=3C=CC=CC3
accession=JP008174
date=2016.01.19 (Created 2008.10.21, modified 2011.05.06)
author=NARA WOMEN'S UNIVERSITY
license=CC BY-NC-SA
exact mass=260.12012
ionization energy=70 eV
ion type=[M]+*
computed spectral entropy=2.664063164458402
computed normalized entropy=0.7493114931038193
SPLASH=splash10-06si-1940000000-2b2e3b3fdc1cd4b7f93b
submitter=submitter = University of Tokyo Team (Faculty of Engineering, University of Tokyo)
MoNA Rating=3.75

>  <NUM PEAKS>  (2986) 
35

>  <MASS SPECTRAL PEAKS>  (2986) 
39 1.25
50 2.06
51 8.81
76 1.59
77 37.48
78 5.34
91 1.11
105 87.53
106 7.21
115 1.45
139 1
152 3.99
153 3.26
154 50.29
155 24.86
156 2.84
165 9.51
166 2.27
167 1.3
181 5.59
182 28.1
183 99.99
184 14.28
185 1.36
215 1.14
239 1.9
241 2.37
242 2.58
243 41.61
244 10.99
245 1.33
259 1.99
260 78.31
261 16.26
262 1.87

$$$$

     RDKit          2D

  6  5  0  0  0  0  0  0  0  0999 V2000
   -0.0000   -0.0000    0.0000 C   0  0  0  0  0  0  0  0  0  0  0  0
   -1.2990    3.7500    0.0000 C   0  0  0  0  0  0  0  0  0  0  0  0
   -2.5981    1.5000    0.0000 C   0  0  0  0  0  0  0  0  0  0  0  0
   -0.0000    1.5000    0.0000 C   0  0  0  0  0  0  0  0  0  0  0  0
   -1.2990    2.2500    0.0000 N   0  0  0  0  0  0  0  0  0  0  0  0
    1.2990    2.2500    0.0000 O   0  0  0  0  0  0  0  0  0  0  0  0
  4  1  1  0
  5  2  1  0
  5  3  1  0
  5  4  1  0
  6  4  2  0
M  END
>  <NAME>  (2987) 
N,N-DIMETHYLACETAMIDE

>  <SYNONYMS>  (2987) 


>  <SPECTRUM TYPE>  (2987) 
MS1

>  <INSTRUMENT TYPE>  (2987) 
EI-B

>  <INSTRUMENT>  (2987) 
HITACHI M-80

>  <ION MODE>  (2987) 
P

>  <INCHIKEY>  (2987) 
FXHOOIRPVKKKFG-UHFFFAOYSA-N

>  <FORMULA>  (2987) 
C4H9NO

>  <EXACT MASS>  (2987) 
87.068413908

>  <MW>  (2987) 
87

>  <ID>  (2987) 
JP008173

>  <CONTRIBUTOR>  (2987) 
University of Tokyo Team, {Faculty of Engineering, University of Tokyo

>  <COMMENT>  (2987) 
SMILES=CN(C)C(C)=O
cas=127-19-5
InChI=InChI=1S/C4H9NO/c1-4(6)5(2)3/h1-3H3
computed SMILES=O=C(N(C)C)C
accession=JP008173
date=2016.01.19 (Created 2008.10.21, modified 2011.05.06)
author=NARA WOMEN'S UNIVERSITY
license=CC BY-NC-SA
exact mass=87.06841
ionization energy=70 eV
ion type=[M]+*
computed spectral entropy=2.0731121253858698
computed normalized entropy=0.6809317939978998
SPLASH=splash10-000f-9000000000-3e6188c24621731b28b2
submitter=submitter = University of Tokyo Team (Faculty of Engineering, University of Tokyo)
MoNA Rating=3.75

>  <NUM PEAKS>  (2987) 
21

>  <MASS SPECTRAL PEAKS>  (2987) 
14 0.95
15 9.21
18 2.28
27 0.9
28 4.17
29 1.08
30 9.54
31 1.31
40 1
41 1.76
42 19.4
43 39.73
44 99.99
45 26.3
46 0.91
56 1.59
58 1.45
72 21.82
73 1.09
87 88.47
88 9

$$$$

     RDKit          2D

 14 16  0  0  0  0  0  0  0  0999 V2000
   -3.8400    0.7500    0.0000 C   0  0  0  0  0  0  0  0  0  0  0  0
    3.8400    0.7500    0.0000 C   0  0  0  0  0  0  0  0  0  0  0  0
   -3.8400   -0.7500    0.0000 C   0  0  0  0  0  0  0  0  0  0  0  0
    3.8400   -0.7500    0.0000 C   0  0  0  0  0  0  0  0  0  0  0  0
   -2.5400    1.4900    0.0000 C   0  0  0  0  0  0  0  0  0  0  0  0
    2.5400    1.4900    0.0000 C   0  0  0  0  0  0  0  0  0  0  0  0
   -2.5400   -1.4900    0.0000 C   0  0  0  0  0  0  0  0  0  0  0  0
    2.5400   -1.4900    0.0000 C   0  0  0  0  0  0  0  0  0  0  0  0
    0.0000    1.4400    0.0000 C   0  0  0  0  0  0  0  0  0  0  0  0
   -1.2500    0.7200    0.0000 C   0  0  0  0  0  0  0  0  0  0  0  0
    1.2500    0.7200    0.0000 C   0  0  0  0  0  0  0  0  0  0  0  0
   -1.2500   -0.7200    0.0000 C   0  0  0  0  0  0  0  0  0  0  0  0
    1.2500   -0.7200    0.0000 C   0  0  0  0  0  0  0  0  0  0  0  0
    0.0000   -1.4400    0.0000 S   0  0  0  0  0  0  0  0  0  0  0  0
  3  1  2  0
  4  2  2  0
  5  1  1  0
  6  2  1  0
  7  3  1  0
  8  4  1  0
 10  5  2  0
 10  9  1  0
 11  6  2  0
 11  9  1  0
 12  7  2  0
 12 10  1  0
 13  8  2  0
 13 11  1  0
 14 12  1  0
 14 13  1  0
M  END
>  <NAME>  (2988) 
9H-THIOXANTHENE

>  <SYNONYMS>  (2988) 


>  <SPECTRUM TYPE>  (2988) 
MS1

>  <INSTRUMENT TYPE>  (2988) 
EI-B

>  <INSTRUMENT>  (2988) 
HITACHI M-80

>  <ION MODE>  (2988) 
P

>  <INCHIKEY>  (2988) 
PQJUJGAVDBINPI-UHFFFAOYSA-N

>  <FORMULA>  (2988) 
C13H10S

>  <EXACT MASS>  (2988) 
198.05032132

>  <MW>  (2988) 
198

>  <ID>  (2988) 
JP008172

>  <CONTRIBUTOR>  (2988) 
University of Tokyo Team, {Faculty of Engineering, University of Tokyo

>  <COMMENT>  (2988) 
SMILES=c(c3)cc(C1)c(c3)Sc(c2)c(ccc2)1
cas=261-31-4
InChI=InChI=1S/C13H10S/c1-3-7-12-10(5-1)9-11-6-2-4-8-13(11)14-12/h1-8H,9H2
computed SMILES=S1C=2C=CC=CC2CC=3C=CC=CC13
accession=JP008172
date=2016.01.19 (Created 2008.10.21, modified 2011.05.06)
author=NARA WOMEN'S UNIVERSITY
license=CC BY-NC-SA
exact mass=198.05032
ionization energy=70 eV
ion type=[M]+*
computed spectral entropy=1.8531501748717756
computed normalized entropy=0.5831084914848297
SPLASH=splash10-0002-0900000000-cf046d3bcf84017b5311
submitter=submitter = University of Tokyo Team (Faculty of Engineering, University of Tokyo)
MoNA Rating=3.75

>  <NUM PEAKS>  (2988) 
24

>  <MASS SPECTRAL PEAKS>  (2988) 
39 2.1
45 1.22
50 0.91
51 0.95
63 2.38
69 2.3
89 1.05
121 1.03
139 1.47
151 1.08
152 5.08
153 2.55
163 2.56
164 1.74
165 17.14
166 2.53
171 3.3
195 3.51
196 1.54
197 90.1
198 99.99
199 19.47
200 5.96
201 0.77

$$$$

     RDKit          2D

 10 10  0  0  0  0  0  0  0  0999 V2000
   -0.3325    2.8100    0.0000 C   0  0  0  0  0  0  0  0  0  0  0  0
   -1.6200   -0.9400    0.0000 C   0  0  0  0  0  0  0  0  0  0  0  0
   -1.6200    0.5600    0.0000 C   0  0  0  0  0  0  0  0  0  0  0  0
   -0.3300   -1.6900    0.0000 C   0  0  0  0  0  0  0  0  0  0  0  0
    0.9700    0.5600    0.0000 C   0  0  0  0  0  0  0  0  0  0  0  0
   -0.3300    1.3100    0.0000 C   0  0  0  0  0  0  0  0  0  0  0  0
    0.9700   -0.9400    0.0000 C   0  0  0  0  0  0  0  0  0  0  0  0
    2.2689   -1.6902    0.0000 N   0  0  0  0  0  0  0  0  0  0  0  0
    2.2687   -3.1902    0.0000 O   0  0  0  0  0  0  0  0  0  0  0  0
    3.5681   -0.9404    0.0000 O   0  0  0  0  0  0  0  0  0  0  0  0
  3  2  2  0
  4  2  1  0
  6  1  1  0
  6  3  1  0
  6  5  2  0
  7  4  2  0
  7  5  1  0
  8  7  1  0
  9  8  1  0
 10  8  2  0
M  CHG  2   8   1   9  -1
M  END
>  <NAME>  (2989) 
3-NITROTOLUENE

>  <SYNONYMS>  (2989) 


>  <SPECTRUM TYPE>  (2989) 
MS1

>  <INSTRUMENT TYPE>  (2989) 
EI-B

>  <INSTRUMENT>  (2989) 
HITACHI M-80

>  <ION MODE>  (2989) 
P

>  <INCHIKEY>  (2989) 
QZYHIOPPLUPUJF-UHFFFAOYSA-N

>  <FORMULA>  (2989) 
C7H7NO2

>  <EXACT MASS>  (2989) 
137.047678464

>  <MW>  (2989) 
137

>  <ID>  (2989) 
JP008171

>  <CONTRIBUTOR>  (2989) 
University of Tokyo Team, {Faculty of Engineering, University of Tokyo

>  <COMMENT>  (2989) 
SMILES=Cc(c1)cc(cc1)[N+1]([O-1])=O
cas=99-08-1
InChI=InChI=1S/C7H7NO2/c1-6-3-2-4-7(5-6)8(9)10/h2-5H,1H3
computed SMILES=O=N(=O)C1=CC=CC(=C1)C
author=NARA WOMEN'S UNIVERSITY
accession=JP008171
date=2016.01.19 (Created 2008.10.21, modified 2011.05.06)
license=CC BY-NC-SA
exact mass=137.04768
ionization energy=70 eV
ion type=[M]+*
computed spectral entropy=2.1243057370025147
computed normalized entropy=0.6520082238853869
SPLASH=splash10-000f-9400000000-20f29a7078360cd9fa11
submitter=submitter = University of Tokyo Team (Faculty of Engineering, University of Tokyo)
MoNA Rating=3.75

>  <NUM PEAKS>  (2989) 
26

>  <MASS SPECTRAL PEAKS>  (2989) 
30 3.43
38 1.02
39 7.61
41 1.99
46 1.28
50 1.88
51 3.37
52 1.13
53 0.99
62 1.89
63 6.36
64 1.65
65 30.76
66 1.6
77 6.22
78 1.42
79 8.6
89 6.07
90 3.55
91 99.99
92 8.07
107 8.68
121 1.18
137 86.54
138 7.66
139 0.61

$$$$

     RDKit          2D

  5  4  0  0  0  0  0  0  0  0999 V2000
   -1.2990    0.7500    0.0000 C   0  0  0  0  0  0  0  0  0  0  0  0
    0.7500    0.2010    0.0000 C   0  0  0  0  0  0  0  0  0  0  0  0
    0.0000    1.5000    0.0000 C   0  0  0  0  0  0  0  0  0  0  0  0
    1.2990    2.2500    0.0000 Cl  0  0  0  0  0  0  0  0  0  0  0  0
   -0.7500    2.7990    0.0000 Cl  0  0  0  0  0  0  0  0  0  0  0  0
  3  1  1  0
  3  2  1  0
  4  3  1  0
  5  3  1  0
M  END
>  <NAME>  (2990) 
2,2-DICHLOROPROPANE

>  <SYNONYMS>  (2990) 


>  <SPECTRUM TYPE>  (2990) 
MS1

>  <INSTRUMENT TYPE>  (2990) 
EI-B

>  <INSTRUMENT>  (2990) 
HITACHI M-80

>  <ION MODE>  (2990) 
P

>  <INCHIKEY>  (2990) 
ZEOVXNVKXIPWMS-UHFFFAOYSA-N

>  <FORMULA>  (2990) 
C3H6Cl2

>  <EXACT MASS>  (2990) 
111.98465555199999

>  <MW>  (2990) 
112

>  <ID>  (2990) 
JP008170

>  <CONTRIBUTOR>  (2990) 
University of Tokyo Team, {Faculty of Engineering, University of Tokyo

>  <COMMENT>  (2990) 
SMILES=CC(C)(Cl)Cl
cas=594-20-7
InChI=InChI=1S/C3H6Cl2/c1-3(2,4)5/h1-2H3
computed SMILES=ClC(Cl)(C)C
accession=JP008170
date=2016.01.19 (Created 2008.10.21, modified 2011.05.06)
author=NARA WOMEN'S UNIVERSITY
license=CC BY-NC-SA
exact mass=111.98466
ionization energy=70 eV
ion type=[M]+*
computed spectral entropy=2.364079939580187
computed normalized entropy=0.7172927652958299
SPLASH=splash10-004i-9000000000-68a2af4d20e4462ffc3c
submitter=submitter = University of Tokyo Team (Faculty of Engineering, University of Tokyo)
MoNA Rating=3.75

>  <NUM PEAKS>  (2990) 
27

>  <MASS SPECTRAL PEAKS>  (2990) 
15 2.49
26 1.58
27 2.85
29 2.81
31 6.08
32 6.29
35 1.87
36 1.52
37 2.8
38 4.03
39 14.55
40 2.13
41 42.45
42 1.84
49 2.85
61 9.52
62 1.87
63 4.35
76 2.88
77 99.99
78 4.39
79 34.22
80 1.22
97 18.84
98 0.92
99 12.47
101 2.08

$$$$

     RDKit          2D

  7  6  0  0  0  0  0  0  0  0999 V2000
    1.9486    2.6250    0.0000 C   0  0  0  0  0  0  0  0  0  0  0  0
   -4.5466    3.3750    0.0000 C   0  0  0  0  0  0  0  0  0  0  0  0
    0.6495    3.3750    0.0000 C   0  0  0  0  0  0  0  0  0  0  0  0
   -3.2476    2.6250    0.0000 C   0  0  0  0  0  0  0  0  0  0  0  0
   -0.6495    2.6250    0.0000 C   0  0  0  0  0  0  0  0  0  0  0  0
   -0.6495    1.1250    0.0000 O   0  0  0  0  0  0  0  0  0  0  0  0
   -1.9486    3.3750    0.0000 O   0  0  0  0  0  0  0  0  0  0  0  0
  3  1  1  0
  4  2  1  0
  5  3  1  0
  6  5  2  0
  7  4  1  0
  7  5  1  0
M  END
>  <NAME>  (2991) 
ETHYL PROPIONATE

>  <SYNONYMS>  (2991) 


>  <SPECTRUM TYPE>  (2991) 
MS1

>  <INSTRUMENT TYPE>  (2991) 
EI-B

>  <INSTRUMENT>  (2991) 
HITACHI M-80

>  <ION MODE>  (2991) 
P

>  <INCHIKEY>  (2991) 
FKRCODPIKNYEAC-UHFFFAOYSA-N

>  <FORMULA>  (2991) 
C5H10O2

>  <EXACT MASS>  (2991) 
102.06807956

>  <MW>  (2991) 
102

>  <ID>  (2991) 
JP008169

>  <CONTRIBUTOR>  (2991) 
University of Tokyo Team, {Faculty of Engineering, University of Tokyo

>  <COMMENT>  (2991) 
SMILES=CCOC(=O)CC
cas=105-37-3
InChI=InChI=1S/C5H10O2/c1-3-5(6)7-4-2/h3-4H2,1-2H3
computed SMILES=O=C(OCC)CC
accession=JP008169
date=2016.01.19 (Created 2008.10.21, modified 2011.05.06)
author=NARA WOMEN'S UNIVERSITY
license=CC BY-NC-SA
exact mass=102.06808
ionization energy=70 eV
ion type=[M]+*
computed spectral entropy=2.5858974793756424
computed normalized entropy=0.7679448465286846
SPLASH=splash10-056r-9000000000-d935c0913c9a0bf2f62a
submitter=submitter = University of Tokyo Team (Faculty of Engineering, University of Tokyo)
MoNA Rating=3.75

>  <NUM PEAKS>  (2991) 
29

>  <MASS SPECTRAL PEAKS>  (2991) 
14 1.1
15 4.17
26 5.68
27 25.85
28 24.34
29 98.49
30 5.51
31 15.08
32 3.46
41 1.87
42 2.57
43 11.55
44 0.93
45 25.14
46 2.36
55 2.39
56 6.43
57 99.99
58 5.56
59 2.11
73 15.34
74 26.96
75 29.97
76 1.06
84 2.72
87 4.46
101 1.18
102 33.16
103 5.14

$$$$

     RDKit          2D

 11 11  0  0  0  0  0  0  0  0999 V2000
   -3.8981    0.7504    0.0000 C   0  0  0  0  0  0  0  0  0  0  0  0
   -2.5989    1.5002    0.0000 C   0  0  0  0  0  0  0  0  0  0  0  0
   -1.3000   -0.7500    0.0000 C   0  0  0  0  0  0  0  0  0  0  0  0
    0.0000    1.5000    0.0000 C   0  0  0  0  0  0  0  0  0  0  0  0
    0.0000   -1.5000    0.0000 C   0  0  0  0  0  0  0  0  0  0  0  0
    1.3000    0.7500    0.0000 C   0  0  0  0  0  0  0  0  0  0  0  0
   -1.3000    0.7500    0.0000 C   0  0  0  0  0  0  0  0  0  0  0  0
    1.3000   -0.7500    0.0000 C   0  0  0  0  0  0  0  0  0  0  0  0
    2.5989   -1.5002    0.0000 N   0  0  0  0  0  0  0  0  0  0  0  0
    3.8981   -0.7504    0.0000 O   0  0  0  0  0  0  0  0  0  0  0  0
    2.5987   -3.0002    0.0000 O   0  0  0  0  0  0  0  0  0  0  0  0
  2  1  1  0
  5  3  2  0
  6  4  1  0
  7  2  1  0
  7  3  1  0
  7  4  2  0
  8  5  1  0
  8  6  2  0
  9  8  1  0
 10  9  1  0
 11  9  2  0
M  CHG  2   9   1  10  -1
M  END
>  <NAME>  (2992) 
4-ETHYLNITROBENZENE

>  <SYNONYMS>  (2992) 


>  <SPECTRUM TYPE>  (2992) 
MS1

>  <INSTRUMENT TYPE>  (2992) 
EI-B

>  <INSTRUMENT>  (2992) 
HITACHI M-80

>  <ION MODE>  (2992) 
P

>  <INCHIKEY>  (2992) 
RESTWAHJFMZUIZ-UHFFFAOYSA-N

>  <FORMULA>  (2992) 
C8H9NO2

>  <EXACT MASS>  (2992) 
151.063328528

>  <MW>  (2992) 
151

>  <ID>  (2992) 
JP008168

>  <CONTRIBUTOR>  (2992) 
University of Tokyo Team, {Faculty of Engineering, University of Tokyo

>  <COMMENT>  (2992) 
SMILES=CCc(c1)ccc(c1)[N+1]([O-1])=O
cas=100-12-9
InChI=InChI=1S/C8H9NO2/c1-2-7-3-5-8(6-4-7)9(10)11/h3-6H,2H2,1H3
computed SMILES=O=N(=O)C1=CC=C(C=C1)CC
accession=JP008168
date=2016.01.19 (Created 2008.10.21, modified 2011.05.06)
author=NARA WOMEN'S UNIVERSITY
license=CC BY-NC-SA
exact mass=151.06333
ionization energy=70 eV
ion type=[M]+*
computed spectral entropy=2.927413851142814
computed normalized entropy=0.7690237469199545
SPLASH=splash10-0zi0-5900000000-d5b6d3ed034277cda546
submitter=submitter = University of Tokyo Team (Faculty of Engineering, University of Tokyo)
MoNA Rating=3.75

>  <NUM PEAKS>  (2992) 
45

>  <MASS SPECTRAL PEAKS>  (2992) 
15 1.15
27 4.17
28 1.02
29 1.69
30 5.84
31 3.4
32 2.97
38 0.87
39 4.72
46 1.65
50 3.54
51 6.36
52 1.73
53 1.92
62 1.6
63 5.29
64 1.52
65 3.2
74 1.58
75 1.59
76 1.53
77 27.28
78 14.08
79 22.44
80 1.55
89 5.85
90 3.98
91 6.11
92 1.12
93 9.11
102 1.6
103 16.01
104 9.15
105 55.85
106 10.65
107 1.27
121 10.03
122 0.96
134 8.02
135 2.77
136 16.65
137 1.34
151 99.99
152 9.63
153 0.86

$$$$

     RDKit          2D

 12 12  0  0  0  0  0  0  0  0999 V2000
   -1.3000   -0.7500    0.0000 C   0  0  0  0  0  0  0  0  0  0  0  0
    0.0000    1.5000    0.0000 C   0  0  0  0  0  0  0  0  0  0  0  0
    0.0000   -1.5000    0.0000 C   0  0  0  0  0  0  0  0  0  0  0  0
    1.3000    0.7500    0.0000 C   0  0  0  0  0  0  0  0  0  0  0  0
   -2.5989    1.5002    0.0000 C   0  0  0  0  0  0  0  0  0  0  0  0
   -3.8981    0.7504    0.0000 C   0  0  0  0  0  0  0  0  0  0  0  0
   -1.3000    0.7500    0.0000 C   0  0  0  0  0  0  0  0  0  0  0  0
    1.3000   -0.7500    0.0000 C   0  0  0  0  0  0  0  0  0  0  0  0
   -5.1972    0.0006    0.0000 N   0  0  0  0  0  0  0  0  0  0  0  0
    2.5989   -1.5002    0.0000 N   0  0  0  0  0  0  0  0  0  0  0  0
    3.8981   -0.7504    0.0000 O   0  0  0  0  0  0  0  0  0  0  0  0
    2.5987   -3.0002    0.0000 O   0  0  0  0  0  0  0  0  0  0  0  0
  3  1  2  0
  4  2  1  0
  6  5  1  0
  7  1  1  0
  7  2  2  0
  7  5  1  0
  8  3  1  0
  8  4  2  0
  9  6  3  0
 10  8  1  0
 11 10  1  0
 12 10  2  0
M  CHG  2  10   1  11  -1
M  END
>  <NAME>  (2993) 
4-NITROPHENYLACETONITRILE

>  <SYNONYMS>  (2993) 
4-NITROBENZYL CYANIDE

>  <SPECTRUM TYPE>  (2993) 
MS1

>  <INSTRUMENT TYPE>  (2993) 
EI-B

>  <INSTRUMENT>  (2993) 
HITACHI M-80

>  <ION MODE>  (2993) 
P

>  <INCHIKEY>  (2993) 
PXNJGLAVKOXITN-UHFFFAOYSA-N

>  <FORMULA>  (2993) 
C8H6N2O2

>  <EXACT MASS>  (2993) 
162.042927432

>  <MW>  (2993) 
162

>  <ID>  (2993) 
JP008167

>  <CONTRIBUTOR>  (2993) 
University of Tokyo Team, {Faculty of Engineering, University of Tokyo

>  <COMMENT>  (2993) 
SMILES=N#CCc(c1)ccc(c1)[N+1]([O-1])=O
cas=555-21-5
InChI=InChI=1S/C8H6N2O2/c9-6-5-7-1-3-8(4-2-7)10(11)12/h1-4H,5H2
computed SMILES=N#CCC1=CC=C(C=C1)N(=O)=O
accession=JP008167
date=2016.01.19 (Created 2008.10.21, modified 2011.05.06)
author=NARA WOMEN'S UNIVERSITY
license=CC BY-NC-SA
exact mass=162.04293
ionization energy=70 eV
ion type=[M]+*
computed spectral entropy=2.9452908975099517
computed normalized entropy=0.7649812947955006
SPLASH=splash10-03xr-5900000000-37a4869a061935c99c44
submitter=submitter = University of Tokyo Team (Faculty of Engineering, University of Tokyo)
MoNA Rating=3.75

>  <NUM PEAKS>  (2993) 
47

>  <MASS SPECTRAL PEAKS>  (2993) 
27 1.14
30 22.82
37 1.32
38 2.48
39 8.51
40 1.03
46 4.1
50 7.07
51 5.1
52 1.92
61 2.07
62 6.37
63 18.52
64 4.27
65 3.87
74 3.57
75 3.35
76 4.44
77 14.03
78 3.37
86 1.36
87 2.74
88 5.31
89 74.9
90 13.58
91 1.42
92 0.87
102 1.45
103 2.36
104 31.31
105 3.12
106 1.18
114 2.94
115 3.76
116 85.75
117 10.25
118 0.96
130 1.97
131 1.34
132 40.04
133 4.53
136 5.6
146 20.41
147 4.29
162 99.99
163 39.66
164 3.75

$$$$

     RDKit          2D

  9  8  0  0  0  0  0  0  0  0999 V2000
    1.9486    3.3750    0.0000 C   0  0  0  0  0  0  0  0  0  0  0  0
   -5.8457    3.3750    0.0000 C   0  0  0  0  0  0  0  0  0  0  0  0
    0.6495    4.1250    0.0000 C   0  0  0  0  0  0  0  0  0  0  0  0
   -4.5466    4.1250    0.0000 C   0  0  0  0  0  0  0  0  0  0  0  0
   -0.6495    3.3750    0.0000 C   0  0  0  0  0  0  0  0  0  0  0  0
   -3.2476    3.3750    0.0000 C   0  0  0  0  0  0  0  0  0  0  0  0
   -0.6495    1.8750    0.0000 O   0  0  0  0  0  0  0  0  0  0  0  0
   -3.2476    1.8750    0.0000 O   0  0  0  0  0  0  0  0  0  0  0  0
   -1.9486    4.1250    0.0000 O   0  0  0  0  0  0  0  0  0  0  0  0
  3  1  1  0
  4  2  1  0
  5  3  1  0
  6  4  1  0
  7  5  2  0
  8  6  2  0
  9  5  1  0
  9  6  1  0
M  END
>  <NAME>  (2994) 
PROPIONIC ANHYDRIDE

>  <SYNONYMS>  (2994) 


>  <SPECTRUM TYPE>  (2994) 
MS1

>  <INSTRUMENT TYPE>  (2994) 
EI-B

>  <INSTRUMENT>  (2994) 
HITACHI M-80

>  <ION MODE>  (2994) 
P

>  <INCHIKEY>  (2994) 
WYVAMUWZEOHJOQ-UHFFFAOYSA-N

>  <FORMULA>  (2994) 
C6H10O3

>  <EXACT MASS>  (2994) 
130.06299418

>  <MW>  (2994) 
130

>  <ID>  (2994) 
JP008166

>  <CONTRIBUTOR>  (2994) 
University of Tokyo Team, {Faculty of Engineering, University of Tokyo

>  <COMMENT>  (2994) 
SMILES=CCC(=O)OC(=O)CC
cas=123-62-6
InChI=InChI=1S/C6H10O3/c1-3-5(7)9-6(8)4-2/h3-4H2,1-2H3
computed SMILES=O=C(OC(=O)CC)CC
accession=JP008166
date=2016.01.19 (Created 2008.10.21, modified 2011.05.06)
author=NARA WOMEN'S UNIVERSITY
license=CC BY-NC-SA
exact mass=130.06299
ionization energy=70 eV
ion type=[M]+*
computed spectral entropy=1.966235618855854
computed normalized entropy=0.7260705942805535
SPLASH=splash10-0a6r-9000000000-a34f86388bc07032a203
submitter=submitter = University of Tokyo Team (Faculty of Engineering, University of Tokyo)
MoNA Rating=3.75

>  <NUM PEAKS>  (2994) 
15

>  <MASS SPECTRAL PEAKS>  (2994) 
26 7.67
27 21.31
28 23.72
29 52.65
30 3.17
42 1.13
45 5.91
54 1.27
55 4.14
56 12.38
57 99.99
58 4.01
73 8.16
74 13.22
79 1.06

$$$$

     RDKit          2D

 24 27  0  0  1  0  0  0  0  0999 V2000
   -1.6300    0.9100    0.0000 C   0  0  0  0  0  0  0  0  0  0  0  0
    2.4272    3.1517    0.0000 C   0  0  0  0  0  0  0  0  0  0  0  0
    7.5522    5.5961    0.0000 C   0  0  0  0  0  0  0  0  0  0  0  0
   -0.3300   -2.8400    0.0000 C   0  0  0  0  0  0  0  0  0  0  0  0
    0.9700   -2.0900    0.0000 C   0  0  0  0  0  0  0  0  0  0  0  0
    3.6900   -0.3000    0.0000 C   0  0  0  0  0  0  0  0  0  0  0  0
    4.5700    0.9100    0.0000 C   0  0  0  0  0  0  0  0  0  0  0  0
   -4.2300   -0.5900    0.0000 C   0  0  0  0  0  0  0  0  0  0  0  0
   -0.3300    1.6600    0.0000 C   0  0  0  0  0  0  0  0  0  0  0  0
   -2.9300    0.1600    0.0000 C   0  0  0  0  0  0  0  0  0  0  0  0
    0.9700    2.4100    0.0000 C   0  0  0  0  0  0  0  0  0  0  0  0
   -2.9300   -2.8400    0.0000 C   0  0  0  0  0  0  0  0  0  0  0  0
    5.6211    3.8581    0.0000 C   0  0  0  0  0  0  0  0  0  0  0  0
   -1.6300   -2.0900    0.0000 C   0  0  0  0  0  0  0  0  0  0  0  0
   -4.2300   -2.0900    0.0000 C   0  0  0  0  0  0  0  0  0  0  0  0
    0.9700   -0.5900    0.0000 C   0  0  0  0  0  0  0  0  0  0  0  0
    2.2700    0.1600    0.0000 C   0  0  0  0  0  0  0  0  0  0  0  0
   -0.3300    0.1600    0.0000 C   0  0  0  0  0  0  0  0  0  0  0  0
    3.6900    2.1200    0.0000 C   0  0  0  0  0  0  0  0  0  0  0  0
   -1.6300   -0.5900    0.0000 C   0  0  0  0  0  0  0  0  0  0  0  0
    2.2700    1.6600    0.0000 C   0  0  0  0  0  0  0  0  0  0  0  0
   -5.5289   -2.8402    0.0000 O   0  0  0  0  0  0  0  0  0  0  0  0
    6.0849    5.2846    0.0000 O   0  0  0  0  0  0  0  0  0  0  0  0
    4.1538    3.5465    0.0000 O   0  0  0  0  0  0  0  0  0  0  0  0
  5  4  1  0
  7  6  1  0
 10  8  1  0
 11  9  1  0
 14  4  1  0
 14 12  2  0
 15  8  1  0
 15 12  1  0
 16  5  1  6
 17  6  1  1
 17 16  1  0
 18  9  1  1
 18 16  1  0
 19  7  1  0
 20  1  1  1
 20 10  1  0
 20 14  1  0
 20 18  1  0
 21  2  1  1
 21 11  1  0
 21 17  1  0
 21 19  1  0
 22 15  2  0
 23  3  1  0
 23 13  1  0
 24 13  1  0
 19 24  1  1
M  END
>  <NAME>  (2995) 
TESTOSTERONE METHOXYMETHYL ETHER

>  <SYNONYMS>  (2995) 


>  <SPECTRUM TYPE>  (2995) 
MS1

>  <INSTRUMENT TYPE>  (2995) 
EI-B

>  <INSTRUMENT>  (2995) 
HITACHI M-80

>  <ION MODE>  (2995) 
P

>  <INCHIKEY>  (2995) 
DQEDBYWBOBVTFT-PXQJOHHUSA-N

>  <FORMULA>  (2995) 
C21H32O3

>  <EXACT MASS>  (2995) 
332.23514488399996

>  <MW>  (2995) 
332

>  <ID>  (2995) 
JP008165

>  <CONTRIBUTOR>  (2995) 
University of Tokyo Team, {Faculty of Engineering, University of Tokyo

>  <COMMENT>  (2995) 
SMILES=COCOC(C4)C(C)(C3)C([H])(C4)C([H])(C1)C([H])(C3)C(C)(C2)C(=CC(=O)C2)C1
InChI=InChI=1S/C21H32O3/c1-20-10-8-15(22)12-14(20)4-5-16-17-6-7-19(24-13-23-3)21(17,2)11-9-18(16)20/h12,16-19H,4-11,13H2,1-3H3/t16-,17-,18-,19-,20-,21-/m0/s1
computed SMILES=O=C1C=C2CCC3C(CCC4(C)C(OCOC)CCC34)C2(C)CC1
accession=JP008165
date=2016.01.19 (Created 2008.10.21, modified 2011.05.06)
author=NARA WOMEN'S UNIVERSITY
license=CC BY-NC-SA
exact mass=332.23514
ionization energy=70 eV
ion type=[M]+*
computed spectral entropy=3.5799558049973017
computed normalized entropy=0.8079674623270063
SPLASH=splash10-0002-9411000000-61a97ddf49c3d5f5d746
submitter=submitter = University of Tokyo Team (Faculty of Engineering, University of Tokyo)
MoNA Rating=3.75

>  <NUM PEAKS>  (2995) 
84

>  <MASS SPECTRAL PEAKS>  (2995) 
15 1.91
27 1.98
29 3.14
39 3.16
41 10.53
43 1.71
45 99.99
46 2.12
53 4.24
55 9.11
57 1.08
65 2.3
66 1.07
67 6.02
77 6.62
78 1.83
79 9.35
80 1.4
81 5.43
91 9.94
92 1.72
93 6.89
94 1.59
95 5.16
97 1.73
105 6.43
106 1.49
107 5.63
108 1.38
109 2.23
111 1.43
115 1.34
117 2.25
119 4.67
120 1.29
121 4.04
122 2.15
123 5.57
124 4.89
129 1.05
131 2.5
133 4.31
134 1.99
135 2.48
136 1.28
137 1.74
138 1.7
143 1.23
145 4.2
146 1.89
147 6.17
148 2.35
149 3.42
157 1.17
159 2.06
161 2.09
163 1.57
168 1.74
171 1.01
173 1.71
174 1
175 1.32
177 1.11
185 1.19
187 1.22
189 1.25
213 1.05
227 2.55
228 1.44
229 1.11
243 2.13
245 1.21
258 1.84
259 0.99
269 2.41
270 2.93
271 1.84
287 8.65
288 1.85
300 12.31
301 2.79
304 1.85
332 8.13
333 2.2

$$$$

     RDKit          2D

 48 49  0  0  0  0  0  0  0  0999 V2000
   38.2331   -0.7558    0.0000 C   0  0  0  0  0  0  0  0  0  0  0  0
   36.9337   -3.0056    0.0000 C   0  0  0  0  0  0  0  0  0  0  0  0
   31.7375   -3.0048    0.0000 C   0  0  0  0  0  0  0  0  0  0  0  0
   26.5414   -3.0040    0.0000 C   0  0  0  0  0  0  0  0  0  0  0  0
   21.3452   -3.0031    0.0000 C   0  0  0  0  0  0  0  0  0  0  0  0
   16.1491   -3.0023    0.0000 C   0  0  0  0  0  0  0  0  0  0  0  0
   10.9529   -3.0015    0.0000 C   0  0  0  0  0  0  0  0  0  0  0  0
    5.7568   -3.0006    0.0000 C   0  0  0  0  0  0  0  0  0  0  0  0
    3.1589    1.5002    0.0000 C   0  0  0  0  0  0  0  0  0  0  0  0
   -3.3400    0.7500    0.0000 C   0  0  0  0  0  0  0  0  0  0  0  0
   -3.3400   -0.7500    0.0000 C   0  0  0  0  0  0  0  0  0  0  0  0
   34.3358   -1.5052    0.0000 C   0  0  0  0  0  0  0  0  0  0  0  0
   29.1397   -1.5044    0.0000 C   0  0  0  0  0  0  0  0  0  0  0  0
   23.9435   -1.5035    0.0000 C   0  0  0  0  0  0  0  0  0  0  0  0
   18.7474   -1.5027    0.0000 C   0  0  0  0  0  0  0  0  0  0  0  0
   13.5512   -1.5019    0.0000 C   0  0  0  0  0  0  0  0  0  0  0  0
    8.3551   -1.5010    0.0000 C   0  0  0  0  0  0  0  0  0  0  0  0
   35.6350   -0.7554    0.0000 C   0  0  0  0  0  0  0  0  0  0  0  0
   33.0369   -0.7550    0.0000 C   0  0  0  0  0  0  0  0  0  0  0  0
   30.4388   -0.7546    0.0000 C   0  0  0  0  0  0  0  0  0  0  0  0
   27.8408   -0.7542    0.0000 C   0  0  0  0  0  0  0  0  0  0  0  0
   25.2427   -0.7537    0.0000 C   0  0  0  0  0  0  0  0  0  0  0  0
   22.6446   -0.7533    0.0000 C   0  0  0  0  0  0  0  0  0  0  0  0
   20.0465   -0.7529    0.0000 C   0  0  0  0  0  0  0  0  0  0  0  0
   17.4485   -0.7525    0.0000 C   0  0  0  0  0  0  0  0  0  0  0  0
   14.8504   -0.7521    0.0000 C   0  0  0  0  0  0  0  0  0  0  0  0
   12.2523   -0.7517    0.0000 C   0  0  0  0  0  0  0  0  0  0  0  0
    9.6542   -0.7512    0.0000 C   0  0  0  0  0  0  0  0  0  0  0  0
    7.0562   -0.7508    0.0000 C   0  0  0  0  0  0  0  0  0  0  0  0
   -2.0400    1.5000    0.0000 C   0  0  0  0  0  0  0  0  0  0  0  0
   -2.0400   -1.5000    0.0000 C   0  0  0  0  0  0  0  0  0  0  0  0
    4.4581   -0.7504    0.0000 C   0  0  0  0  0  0  0  0  0  0  0  0
    3.1589   -1.5002    0.0000 C   0  0  0  0  0  0  0  0  0  0  0  0
   36.9339   -1.5056    0.0000 C   0  0  0  0  0  0  0  0  0  0  0  0
   31.7378   -1.5048    0.0000 C   0  0  0  0  0  0  0  0  0  0  0  0
   26.5416   -1.5040    0.0000 C   0  0  0  0  0  0  0  0  0  0  0  0
   21.3455   -1.5031    0.0000 C   0  0  0  0  0  0  0  0  0  0  0  0
   16.1493   -1.5023    0.0000 C   0  0  0  0  0  0  0  0  0  0  0  0
   10.9531   -1.5015    0.0000 C   0  0  0  0  0  0  0  0  0  0  0  0
    5.7570   -1.5006    0.0000 C   0  0  0  0  0  0  0  0  0  0  0  0
    1.8600    0.7500    0.0000 C   0  0  0  0  0  0  0  0  0  0  0  0
    1.8600   -0.7500    0.0000 C   0  0  0  0  0  0  0  0  0  0  0  0
   -0.7400    0.7500    0.0000 C   0  0  0  0  0  0  0  0  0  0  0  0
   -0.7400   -0.7500    0.0000 C   0  0  0  0  0  0  0  0  0  0  0  0
    0.5600    1.5000    0.0000 C   0  0  0  0  0  0  0  0  0  0  0  0
    0.5600   -1.5000    0.0000 C   0  0  0  0  0  0  0  0  0  0  0  0
    0.5600    3.0000    0.0000 O   0  0  0  0  0  0  0  0  0  0  0  0
    0.5600   -3.0000    0.0000 O   0  0  0  0  0  0  0  0  0  0  0  0
 11 10  2  0
 18 12  1  0
 19 12  1  0
 20 13  1  0
 21 13  1  0
 22 14  1  0
 23 14  1  0
 24 15  1  0
 25 15  1  0
 26 16  1  0
 27 16  1  0
 28 17  1  0
 29 17  1  0
 30 10  1  0
 31 11  1  0
 33 32  1  0
 34  1  1  0
 34  2  1  0
 34 18  2  0
 35  3  1  0
 35 19  1  0
 20 35  2  0
 36  4  1  0
 36 21  1  0
 22 36  2  0
 37  5  1  0
 37 23  1  0
 24 37  2  0
 38  6  1  0
 38 25  1  0
 26 38  2  0
 39  7  1  0
 39 27  1  0
 28 39  2  0
 40  8  1  0
 40 29  1  0
 32 40  2  0
 41  9  1  0
 42 33  1  0
 42 41  2  0
 43 30  2  0
 44 31  2  0
 44 43  1  0
 45 41  1  0
 45 43  1  0
 46 42  1  0
 46 44  1  0
 47 45  2  0
 48 46  2  0
M  END
>  <NAME>  (2996) 
MENAQUINONE-7

>  <SYNONYMS>  (2996) 


>  <SPECTRUM TYPE>  (2996) 
MS1

>  <INSTRUMENT TYPE>  (2996) 
EI-B

>  <INSTRUMENT>  (2996) 
HITACHI M-80

>  <ION MODE>  (2996) 
P

>  <INCHIKEY>  (2996) 
RAKQPZMEYJZGPI-LJWNYQGCSA-N

>  <FORMULA>  (2996) 
C46H64O2

>  <EXACT MASS>  (2996) 
648.490631288

>  <MW>  (2996) 
648

>  <ID>  (2996) 
JP008164

>  <CONTRIBUTOR>  (2996) 
University of Tokyo Team, {Faculty of Engineering, University of Tokyo

>  <COMMENT>  (2996) 
SMILES=C(C=C(CCC=C(CCC=C(CCC=C(CCC=C(CCC=C(C)C)C)C)C)C)C)CC(C)=CCc(c(=O)1)c(C)c(=O)c(c2)c1ccc2
InChI=InChI=1S/C46H64O2/c1-34(2)18-12-19-35(3)20-13-21-36(4)22-14-23-37(5)24-15-25-38(6)26-16-27-39(7)28-17-29-40(8)32-33-42-41(9)45(47)43-30-10-11-31-44(43)46(42)48/h10-11,18,20,22,24,26,28,30-32H,12-17,19,21,23,25,27,29,33H2,1-9H3/b35-20+,36-22+,37-24+,38-26+,39-28+,40-32+
computed SMILES=O=C1C=2C=CC=CC2C(=O)C(=C1C)CC=C(C)CCC=C(C)CCC=C(C)CCC=C(C)CCC=C(C)CCC=C(C)CCC=C(C)C
accession=JP008164
date=2016.01.19 (Created 2008.10.21, modified 2011.05.06)
author=NARA WOMEN'S UNIVERSITY
license=CC BY-NC-SA
exact mass=648.49063
ionization energy=70 eV
ion type=[M]+*
computed spectral entropy=4.377124901313419
computed normalized entropy=0.8456333621432747
SPLASH=splash10-016r-8961000000-9f4b60b646775c88a22c
submitter=submitter = University of Tokyo Team (Faculty of Engineering, University of Tokyo)
MoNA Rating=3.75

>  <NUM PEAKS>  (2996) 
177

>  <MASS SPECTRAL PEAKS>  (2996) 
39 2.62
40 5.18
41 14.8
42 1.3
43 9.14
44 1.04
53 5.4
54 1.3
55 10.37
56 0.92
57 2.86
65 1.18
67 11.62
68 19.08
69 99.99
70 5.84
71 1.22
76 1.05
77 4.07
78 1.02
79 6.32
80 2.89
81 57.75
82 5.62
83 4.85
91 5.42
92 2.44
93 20.5
94 4.92
95 22.96
96 2.97
97 2.8
104 1.26
105 8.15
106 1.76
107 13.14
108 3.7
109 16.51
110 1.67
111 1.91
115 1.88
117 1.07
119 7.09
120 2.76
121 20.73
122 7.28
123 11.84
124 1.76
127 1.01
128 1.43
129 1.35
131 1.52
132 0.99
133 8.84
134 5.09
135 29.86
136 9.67
137 14.56
138 1.63
141 1.28
143 0.89
145 3.12
146 1.39
147 9.9
148 4.24
149 8.94
150 1.71
151 0.85
152 1.25
153 1.19
157 2.12
158 0.96
159 4.55
160 1.49
161 8.41
162 2.47
163 3.79
165 1.67
171 1.72
172 0.91
173 3.35
174 1.57
175 5.74
176 1.62
177 3.31
178 1.4
179 1.48
181 2.97
185 1.26
186 9.65
187 27.94
188 4.85
189 10.28
190 3.48
191 3.69
192 1.06
193 1.68
195 3.13
196 2.75
197 6.86
198 4.59
199 3.47
200 1.23
201 3.9
202 1.86
203 6.4
204 8.25
205 2.59
209 2.4
210 2.4
211 3.31
212 1.25
213 2.2
215 2.77
217 1.77
221 2.63
222 1.65
223 3.42
224 11.35
225 83.88
226 19.42
227 13.87
228 2.75
229 1.32
237 1.14
238 2.97
239 17.96
240 12.86
241 3.3
242 2.59
243 1.69
251 2.23
252 3.37
253 3.1
254 1.38
255 1.17
257 2.7
258 0.94
259 1.46
265 6.23
266 2.67
267 1.92
269 1.14
271 2.16
272 2.94
273 1.36
279 1.14
291 1.6
292 1.05
293 1.89
294 1.77
307 7.87
308 8.16
309 2.18
310 1.73
320 1.21
322 1.14
325 1.59
333 1.09
339 1.26
340 2.31
375 3.14
376 5.04
378 1.52
388 1.1
390 1.28
409 2.51
430 1.77
443 2.79
444 2.14
461 1.03
462 0.86
498 1.27
511 3.04
512 1.54
579 1.43
580 0.92

$$$$

     RDKit          2D

 43 44  0  0  0  0  0  0  0  0999 V2000
   33.0369   -0.7550    0.0000 C   0  0  0  0  0  0  0  0  0  0  0  0
   31.7375   -3.0048    0.0000 C   0  0  0  0  0  0  0  0  0  0  0  0
   26.5414   -3.0040    0.0000 C   0  0  0  0  0  0  0  0  0  0  0  0
   21.3452   -3.0031    0.0000 C   0  0  0  0  0  0  0  0  0  0  0  0
   16.1491   -3.0023    0.0000 C   0  0  0  0  0  0  0  0  0  0  0  0
   10.9529   -3.0015    0.0000 C   0  0  0  0  0  0  0  0  0  0  0  0
    5.7568   -3.0006    0.0000 C   0  0  0  0  0  0  0  0  0  0  0  0
    3.1589    1.5002    0.0000 C   0  0  0  0  0  0  0  0  0  0  0  0
   -3.3400    0.7500    0.0000 C   0  0  0  0  0  0  0  0  0  0  0  0
   -3.3400   -0.7500    0.0000 C   0  0  0  0  0  0  0  0  0  0  0  0
   29.1397   -1.5044    0.0000 C   0  0  0  0  0  0  0  0  0  0  0  0
   23.9435   -1.5035    0.0000 C   0  0  0  0  0  0  0  0  0  0  0  0
   18.7474   -1.5027    0.0000 C   0  0  0  0  0  0  0  0  0  0  0  0
   13.5512   -1.5019    0.0000 C   0  0  0  0  0  0  0  0  0  0  0  0
    8.3551   -1.5010    0.0000 C   0  0  0  0  0  0  0  0  0  0  0  0
   30.4388   -0.7546    0.0000 C   0  0  0  0  0  0  0  0  0  0  0  0
   27.8408   -0.7542    0.0000 C   0  0  0  0  0  0  0  0  0  0  0  0
   25.2427   -0.7537    0.0000 C   0  0  0  0  0  0  0  0  0  0  0  0
   22.6446   -0.7533    0.0000 C   0  0  0  0  0  0  0  0  0  0  0  0
   20.0465   -0.7529    0.0000 C   0  0  0  0  0  0  0  0  0  0  0  0
   17.4485   -0.7525    0.0000 C   0  0  0  0  0  0  0  0  0  0  0  0
   14.8504   -0.7521    0.0000 C   0  0  0  0  0  0  0  0  0  0  0  0
   12.2523   -0.7517    0.0000 C   0  0  0  0  0  0  0  0  0  0  0  0
    9.6542   -0.7512    0.0000 C   0  0  0  0  0  0  0  0  0  0  0  0
    7.0562   -0.7508    0.0000 C   0  0  0  0  0  0  0  0  0  0  0  0
   -2.0400    1.5000    0.0000 C   0  0  0  0  0  0  0  0  0  0  0  0
   -2.0400   -1.5000    0.0000 C   0  0  0  0  0  0  0  0  0  0  0  0
    4.4581   -0.7504    0.0000 C   0  0  0  0  0  0  0  0  0  0  0  0
    3.1589   -1.5002    0.0000 C   0  0  0  0  0  0  0  0  0  0  0  0
   31.7378   -1.5048    0.0000 C   0  0  0  0  0  0  0  0  0  0  0  0
   26.5416   -1.5040    0.0000 C   0  0  0  0  0  0  0  0  0  0  0  0
   21.3455   -1.5031    0.0000 C   0  0  0  0  0  0  0  0  0  0  0  0
   16.1493   -1.5023    0.0000 C   0  0  0  0  0  0  0  0  0  0  0  0
   10.9531   -1.5015    0.0000 C   0  0  0  0  0  0  0  0  0  0  0  0
    5.7570   -1.5006    0.0000 C   0  0  0  0  0  0  0  0  0  0  0  0
    1.8600    0.7500    0.0000 C   0  0  0  0  0  0  0  0  0  0  0  0
    1.8600   -0.7500    0.0000 C   0  0  0  0  0  0  0  0  0  0  0  0
   -0.7400    0.7500    0.0000 C   0  0  0  0  0  0  0  0  0  0  0  0
   -0.7400   -0.7500    0.0000 C   0  0  0  0  0  0  0  0  0  0  0  0
    0.5600    1.5000    0.0000 C   0  0  0  0  0  0  0  0  0  0  0  0
    0.5600   -1.5000    0.0000 C   0  0  0  0  0  0  0  0  0  0  0  0
    0.5600    3.0000    0.0000 O   0  0  0  0  0  0  0  0  0  0  0  0
    0.5600   -3.0000    0.0000 O   0  0  0  0  0  0  0  0  0  0  0  0
 10  9  2  0
 16 11  1  0
 17 11  1  0
 18 12  1  0
 19 12  1  0
 20 13  1  0
 21 13  1  0
 22 14  1  0
 23 14  1  0
 24 15  1  0
 25 15  1  0
 26  9  1  0
 27 10  1  0
 29 28  1  0
 30  1  1  0
 30  2  1  0
 30 16  2  0
 31  3  1  0
 31 17  1  0
 18 31  2  0
 32  4  1  0
 32 19  1  0
 20 32  2  0
 33  5  1  0
 33 21  1  0
 22 33  2  0
 34  6  1  0
 34 23  1  0
 24 34  2  0
 35  7  1  0
 35 25  1  0
 28 35  2  0
 36  8  1  0
 37 29  1  0
 37 36  2  0
 38 26  2  0
 39 27  2  0
 39 38  1  0
 40 36  1  0
 40 38  1  0
 41 37  1  0
 41 39  1  0
 42 40  2  0
 43 41  2  0
M  END
>  <NAME>  (2997) 
MENAQUINONE-6

>  <SYNONYMS>  (2997) 


>  <SPECTRUM TYPE>  (2997) 
MS1

>  <INSTRUMENT TYPE>  (2997) 
EI-B

>  <INSTRUMENT>  (2997) 
HITACHI M-80

>  <ION MODE>  (2997) 
P

>  <INCHIKEY>  (2997) 
PFRQBZFETXBLTP-RCIYGOBDSA-N

>  <FORMULA>  (2997) 
C41H56O2

>  <EXACT MASS>  (2997) 
580.4280310319999

>  <MW>  (2997) 
580

>  <ID>  (2997) 
JP008163

>  <CONTRIBUTOR>  (2997) 
University of Tokyo Team, {Faculty of Engineering, University of Tokyo

>  <COMMENT>  (2997) 
SMILES=C(CCC(C)=CCc(c2=O)c(c(=O)c(c21)cccc1)C)=C(C)CCC=C(CCC=C(CCC=C(C)CCC=C(C)C)C)C
InChI=InChI=1S/C41H56O2/c1-30(2)16-11-17-31(3)18-12-19-32(4)20-13-21-33(5)22-14-23-34(6)24-15-25-35(7)28-29-37-36(8)40(42)38-26-9-10-27-39(38)41(37)43/h9-10,16,18,20,22,24,26-28H,11-15,17,19,21,23,25,29H2,1-8H3/b31-18+,32-20+,33-22+,34-24+,35-28+
computed SMILES=O=C1C=2C=CC=CC2C(=O)C(=C1C)CC=C(C)CCC=C(C)CCC=C(C)CCC=C(C)CCC=C(C)CCC=C(C)C
accession=JP008163
date=2016.01.19 (Created 2008.10.21, modified 2011.05.06)
author=NARA WOMEN'S UNIVERSITY
license=CC BY-NC-SA
exact mass=580.42803
ionization energy=70 eV
ion type=[M]+*
computed spectral entropy=4.2743441058866445
computed normalized entropy=0.8361412982288845
SPLASH=splash10-003r-7891050000-fb45abd0445fd13b3287
submitter=submitter = University of Tokyo Team (Faculty of Engineering, University of Tokyo)
MoNA Rating=3.75

>  <NUM PEAKS>  (2997) 
166

>  <MASS SPECTRAL PEAKS>  (2997) 
39 1.09
40 0.95
41 13.97
43 3.69
53 3.99
55 6.24
67 9.21
68 14.38
69 90.68
70 4.22
77 3.46
79 5.75
80 2.61
81 44.38
82 3.32
83 1.23
91 3.9
92 1.65
93 15.17
94 3.4
95 15.31
104 1.03
105 5.93
106 1.06
107 12.19
108 2.82
109 11.22
115 1.6
119 4.66
120 1.99
121 16.3
122 6.68
123 9.09
128 1.46
129 1.07
133 6.96
134 4.48
135 22.27
136 9.79
137 11.64
138 1.16
141 1.35
145 1.93
147 8.41
148 3.54
149 7.22
150 1.56
152 1.23
153 1.31
157 1.88
159 3.67
160 1.13
161 8.1
162 1.91
163 3.07
165 1.76
171 1.91
173 2.78
174 1.91
175 5.01
176 1.6
177 2.95
178 2.35
179 1.57
181 3.96
182 1.35
185 1.28
186 12.01
187 29.46
188 5.62
189 11.13
190 3.57
191 3.87
192 1.23
193 2.02
194 1.04
195 3.88
196 3.61
197 8.85
198 5.45
199 3.78
200 1.68
201 4.92
202 2.18
203 7.03
204 10.01
205 2.77
209 3.04
210 2.98
211 4.08
212 1.5
213 2.48
215 2.52
217 1.48
221 3.5
222 1.91
223 3.78
224 15.41
225 86.2
226 18.66
227 19.3
228 3.48
229 1.52
237 1.57
238 3.93
239 23.45
240 16.96
241 4.22
242 2.74
243 1.71
251 2.8
252 4.48
253 3.74
254 1.91
255 1.32
257 3.63
258 1.2
259 1.52
264 1.04
265 8.25
266 3.06
267 2.43
271 2.7
272 3.16
273 1.38
279 1.21
289 1.14
291 2.1
292 1.47
293 2.71
294 2
295 1.01
307 10.99
308 10.29
309 2.52
310 2.22
320 1.7
322 1.5
325 1.27
333 1.56
340 2.39
362 1.76
375 4.95
376 4.92
377 1.36
378 1.79
388 1.66
390 1.07
393 2.42
394 1.59
430 2.34
443 5.14
444 3.66
445 1.06
446 0.99
456 1.02
498 1.81
511 4.31
512 2.03
565 2.82
566 1.28
578 1.58
580 99.99
581 44.97
582 12.8
583 2.7

$$$$

     RDKit          2D

 58 59  0  0  0  0  0  0  0  0999 V2000
   48.6254   -0.7575    0.0000 C   0  0  0  0  0  0  0  0  0  0  0  0
   47.3260   -3.0073    0.0000 C   0  0  0  0  0  0  0  0  0  0  0  0
   42.1298   -3.0065    0.0000 C   0  0  0  0  0  0  0  0  0  0  0  0
   36.9337   -3.0056    0.0000 C   0  0  0  0  0  0  0  0  0  0  0  0
   31.7375   -3.0048    0.0000 C   0  0  0  0  0  0  0  0  0  0  0  0
   26.5414   -3.0040    0.0000 C   0  0  0  0  0  0  0  0  0  0  0  0
   21.3452   -3.0031    0.0000 C   0  0  0  0  0  0  0  0  0  0  0  0
   16.1491   -3.0023    0.0000 C   0  0  0  0  0  0  0  0  0  0  0  0
   10.9529   -3.0015    0.0000 C   0  0  0  0  0  0  0  0  0  0  0  0
    5.7568   -3.0006    0.0000 C   0  0  0  0  0  0  0  0  0  0  0  0
    3.1589    1.5002    0.0000 C   0  0  0  0  0  0  0  0  0  0  0  0
   -3.3400    0.7500    0.0000 C   0  0  0  0  0  0  0  0  0  0  0  0
   -3.3400   -0.7500    0.0000 C   0  0  0  0  0  0  0  0  0  0  0  0
   44.7281   -1.5069    0.0000 C   0  0  0  0  0  0  0  0  0  0  0  0
   39.5320   -1.5060    0.0000 C   0  0  0  0  0  0  0  0  0  0  0  0
   34.3358   -1.5052    0.0000 C   0  0  0  0  0  0  0  0  0  0  0  0
   29.1397   -1.5044    0.0000 C   0  0  0  0  0  0  0  0  0  0  0  0
   23.9435   -1.5035    0.0000 C   0  0  0  0  0  0  0  0  0  0  0  0
   18.7474   -1.5027    0.0000 C   0  0  0  0  0  0  0  0  0  0  0  0
   13.5512   -1.5019    0.0000 C   0  0  0  0  0  0  0  0  0  0  0  0
    8.3551   -1.5010    0.0000 C   0  0  0  0  0  0  0  0  0  0  0  0
   46.0273   -0.7571    0.0000 C   0  0  0  0  0  0  0  0  0  0  0  0
   43.4292   -0.7567    0.0000 C   0  0  0  0  0  0  0  0  0  0  0  0
   40.8311   -0.7562    0.0000 C   0  0  0  0  0  0  0  0  0  0  0  0
   38.2331   -0.7558    0.0000 C   0  0  0  0  0  0  0  0  0  0  0  0
   35.6350   -0.7554    0.0000 C   0  0  0  0  0  0  0  0  0  0  0  0
   33.0369   -0.7550    0.0000 C   0  0  0  0  0  0  0  0  0  0  0  0
   30.4388   -0.7546    0.0000 C   0  0  0  0  0  0  0  0  0  0  0  0
   27.8408   -0.7542    0.0000 C   0  0  0  0  0  0  0  0  0  0  0  0
   25.2427   -0.7537    0.0000 C   0  0  0  0  0  0  0  0  0  0  0  0
   22.6446   -0.7533    0.0000 C   0  0  0  0  0  0  0  0  0  0  0  0
   20.0465   -0.7529    0.0000 C   0  0  0  0  0  0  0  0  0  0  0  0
   17.4485   -0.7525    0.0000 C   0  0  0  0  0  0  0  0  0  0  0  0
   14.8504   -0.7521    0.0000 C   0  0  0  0  0  0  0  0  0  0  0  0
   12.2523   -0.7517    0.0000 C   0  0  0  0  0  0  0  0  0  0  0  0
    9.6542   -0.7512    0.0000 C   0  0  0  0  0  0  0  0  0  0  0  0
    7.0562   -0.7508    0.0000 C   0  0  0  0  0  0  0  0  0  0  0  0
   -2.0400    1.5000    0.0000 C   0  0  0  0  0  0  0  0  0  0  0  0
   -2.0400   -1.5000    0.0000 C   0  0  0  0  0  0  0  0  0  0  0  0
    4.4581   -0.7504    0.0000 C   0  0  0  0  0  0  0  0  0  0  0  0
    3.1589   -1.5002    0.0000 C   0  0  0  0  0  0  0  0  0  0  0  0
   47.3262   -1.5073    0.0000 C   0  0  0  0  0  0  0  0  0  0  0  0
   42.1301   -1.5065    0.0000 C   0  0  0  0  0  0  0  0  0  0  0  0
   36.9339   -1.5056    0.0000 C   0  0  0  0  0  0  0  0  0  0  0  0
   31.7378   -1.5048    0.0000 C   0  0  0  0  0  0  0  0  0  0  0  0
   26.5416   -1.5040    0.0000 C   0  0  0  0  0  0  0  0  0  0  0  0
   21.3455   -1.5031    0.0000 C   0  0  0  0  0  0  0  0  0  0  0  0
   16.1493   -1.5023    0.0000 C   0  0  0  0  0  0  0  0  0  0  0  0
   10.9531   -1.5015    0.0000 C   0  0  0  0  0  0  0  0  0  0  0  0
    5.7570   -1.5006    0.0000 C   0  0  0  0  0  0  0  0  0  0  0  0
    1.8600    0.7500    0.0000 C   0  0  0  0  0  0  0  0  0  0  0  0
    1.8600   -0.7500    0.0000 C   0  0  0  0  0  0  0  0  0  0  0  0
   -0.7400    0.7500    0.0000 C   0  0  0  0  0  0  0  0  0  0  0  0
   -0.7400   -0.7500    0.0000 C   0  0  0  0  0  0  0  0  0  0  0  0
    0.5600    1.5000    0.0000 C   0  0  0  0  0  0  0  0  0  0  0  0
    0.5600   -1.5000    0.0000 C   0  0  0  0  0  0  0  0  0  0  0  0
    0.5600    3.0000    0.0000 O   0  0  0  0  0  0  0  0  0  0  0  0
    0.5600   -3.0000    0.0000 O   0  0  0  0  0  0  0  0  0  0  0  0
 13 12  2  0
 22 14  1  0
 23 14  1  0
 24 15  1  0
 25 15  1  0
 26 16  1  0
 27 16  1  0
 28 17  1  0
 29 17  1  0
 30 18  1  0
 31 18  1  0
 32 19  1  0
 33 19  1  0
 34 20  1  0
 35 20  1  0
 36 21  1  0
 37 21  1  0
 38 12  1  0
 39 13  1  0
 41 40  1  0
 42  1  1  0
 42  2  1  0
 42 22  2  0
 43  3  1  0
 43 23  1  0
 24 43  2  0
 44  4  1  0
 44 25  1  0
 26 44  2  0
 45  5  1  0
 45 27  1  0
 28 45  2  0
 46  6  1  0
 46 29  1  0
 30 46  2  0
 47  7  1  0
 47 31  1  0
 32 47  2  0
 48  8  1  0
 48 33  1  0
 34 48  2  0
 49  9  1  0
 49 35  1  0
 36 49  2  0
 50 10  1  0
 50 37  1  0
 40 50  2  0
 51 11  1  0
 52 41  1  0
 52 51  2  0
 53 38  2  0
 54 39  2  0
 54 53  1  0
 55 51  1  0
 55 53  1  0
 56 52  1  0
 56 54  1  0
 57 55  2  0
 58 56  2  0
M  END
>  <NAME>  (2998) 
MENAQUINONE-9

>  <SYNONYMS>  (2998) 


>  <SPECTRUM TYPE>  (2998) 
MS1

>  <INSTRUMENT TYPE>  (2998) 
EI-B

>  <INSTRUMENT>  (2998) 
HITACHI M-80

>  <ION MODE>  (2998) 
P

>  <INCHIKEY>  (2998) 
WCRXHNIUHQUASO-UVZVDVBNSA-N

>  <FORMULA>  (2998) 
C56H80O2

>  <EXACT MASS>  (2998) 
784.6158318

>  <MW>  (2998) 
784

>  <ID>  (2998) 
JP008162

>  <CONTRIBUTOR>  (2998) 
University of Tokyo Team, {Faculty of Engineering, University of Tokyo

>  <COMMENT>  (2998) 
SMILES=CC(=CCCC(=CCCC(C)=CCCC(C)=CCCC(C)=CCCC(C)=CCCC(C)=CCc(c1C)c(=O)c(c2)c(ccc2)c(=O)1)C)CCC=C(C)CCC=C(C)C
InChI=InChI=1S/C56H80O2/c1-42(2)22-14-23-43(3)24-15-25-44(4)26-16-27-45(5)28-17-29-46(6)30-18-31-47(7)32-19-33-48(8)34-20-35-49(9)36-21-37-50(10)40-41-52-51(11)55(57)53-38-12-13-39-54(53)56(52)58/h12-13,22,24,26,28,30,32,34,36,38-40H,14-21,23,25,27,29,31,33,35,37,41H2,1-11H3/b43-24+,44-26+,45-28+,46-30+,47-32+,48-34+,49-36+,50-40+
computed SMILES=O=C1C=2C=CC=CC2C(=O)C(=C1C)CC=C(C)CCC=C(C)CCC=C(C)CCC=C(C)CCC=C(C)CCC=C(C)CCC=C(C)CCC=C(C)CCC=C(C)C
accession=JP008162
date=2016.01.19 (Created 2008.10.21, modified 2011.05.06)
author=NARA WOMEN'S UNIVERSITY
license=CC BY-NC-SA
exact mass=784.61583
ionization energy=70 eV
ion type=[M]+*
computed spectral entropy=4.173720788971209
computed normalized entropy=0.8340858462074594
SPLASH=splash10-017i-9750000100-4b7aa019ba23f6cdfc8b
submitter=submitter = University of Tokyo Team (Faculty of Engineering, University of Tokyo)
MoNA Rating=3.75

>  <NUM PEAKS>  (2998) 
149

>  <MASS SPECTRAL PEAKS>  (2998) 
39 4.27
41 15.88
42 1.58
43 6.94
53 5.59
55 12.7
57 2.85
65 1.32
67 12.1
68 19.41
69 99.99
70 6
71 1.03
76 1.06
77 3.69
79 8.14
80 3.23
81 63.3
82 5.5
83 4.1
91 5.45
92 2.12
93 22.26
94 5.41
95 23.59
96 2.34
97 2.17
104 1.17
105 8.39
106 1.99
107 17.61
108 4.54
109 15.97
110 1.42
111 2.14
115 1.93
119 7.42
120 2.34
121 19.81
122 5.76
123 12.34
124 1.45
128 1.3
129 1.3
131 1.6
133 7.77
134 4.45
135 26.48
136 7.56
137 13.41
138 1.56
141 1.34
145 2.86
146 1.22
147 9.33
148 4.04
149 8.8
150 1.54
152 1.01
157 1.85
159 3.68
160 1.23
161 8.54
162 2.21
163 4.67
165 2.36
166 0.95
171 1.51
173 3.1
174 1.18
175 4.2
176 1.25
177 2.83
178 1.68
181 2.28
185 1.04
186 6.18
187 17.87
188 3.22
189 7.59
190 2.31
191 2.83
193 1.52
194 1.02
195 2.45
196 2.46
197 5.69
198 2.95
199 2.51
200 1.11
201 3.5
202 1.56
203 5.21
204 4.02
205 2.02
209 2.14
210 1.6
211 2.6
213 1.46
215 1.82
217 1.71
221 2.2
222 2.17
223 2.5
224 8.88
225 85.27
226 16.1
227 9.1
228 1.77
229 1.37
237 1.17
238 1.94
239 10.83
240 8.46
241 2.65
242 1.47
243 1.22
251 1.96
252 1.97
253 2.17
257 1.8
259 1
265 4.28
266 1.61
267 1.17
271 2
272 1.62
291 1.22
293 1.11
305 1.09
307 4.33
308 4.67
309 1.31
310 1.24
339 1
340 1.27
375 2.03
376 1.95
409 1.1
443 1.59
444 1.63
511 1.38
513 1.24
769 1.08
782 1.68
784 33.8
785 15.01
786 5.79
787 3.01

$$$$

     RDKit          2D

 33 36  0  0  1  0  0  0  0  0999 V2000
    9.5655    7.2342    0.0000 C   0  0  0  0  0  0  0  0  0  0  0  0
   10.0746    4.6865    0.0000 C   0  0  0  0  0  0  0  0  0  0  0  0
    8.1228    2.9718    0.0000 C   0  0  0  0  0  0  0  0  0  0  0  0
    3.2009    4.6377    0.0000 C   0  0  0  0  0  0  0  0  0  0  0  0
   -8.0957   -2.8471    0.0000 C   0  0  0  0  0  0  0  0  0  0  0  0
   -1.6125    0.9400    0.0000 C   0  0  0  0  0  0  0  0  0  0  0  0
    2.4507    3.1203    0.0000 C   0  0  0  0  0  0  0  0  0  0  0  0
    8.0946    6.9403    0.0000 C   0  0  0  0  0  0  0  0  0  0  0  0
    5.6618    3.8047    0.0000 C   0  0  0  0  0  0  0  0  0  0  0  0
    6.1427    5.2256    0.0000 C   0  0  0  0  0  0  0  0  0  0  0  0
   -0.3200   -2.8400    0.0000 C   0  0  0  0  0  0  0  0  0  0  0  0
    1.0100   -2.0900    0.0000 C   0  0  0  0  0  0  0  0  0  0  0  0
    4.5500    0.8800    0.0000 C   0  0  0  0  0  0  0  0  0  0  0  0
    3.7100   -0.3100    0.0000 C   0  0  0  0  0  0  0  0  0  0  0  0
   -4.2000   -0.5600    0.0000 C   0  0  0  0  0  0  0  0  0  0  0  0
   -0.3200    1.6300    0.0000 C   0  0  0  0  0  0  0  0  0  0  0  0
   -2.8900    0.1600    0.0000 C   0  0  0  0  0  0  0  0  0  0  0  0
    1.0100    2.3900    0.0000 C   0  0  0  0  0  0  0  0  0  0  0  0
   -2.8900   -2.8400    0.0000 C   0  0  0  0  0  0  0  0  0  0  0  0
    8.6037    4.3926    0.0000 C   0  0  0  0  0  0  0  0  0  0  0  0
    4.1909    3.5108    0.0000 C   0  0  0  0  0  0  0  0  0  0  0  0
   -6.7981   -2.0947    0.0000 C   0  0  0  0  0  0  0  0  0  0  0  0
    7.6137    5.5195    0.0000 C   0  0  0  0  0  0  0  0  0  0  0  0
   -1.6200   -2.0900    0.0000 C   0  0  0  0  0  0  0  0  0  0  0  0
   -4.2000   -2.0900    0.0000 C   0  0  0  0  0  0  0  0  0  0  0  0
    1.0100   -0.5600    0.0000 C   0  0  0  0  0  0  0  0  0  0  0  0
    3.7100    2.0900    0.0000 C   0  0  0  0  0  0  0  0  0  0  0  0
    2.2800    0.1600    0.0000 C   0  0  0  0  0  0  0  0  0  0  0  0
   -0.3200    0.1600    0.0000 C   0  0  0  0  0  0  0  0  0  0  0  0
   -1.6200   -0.5600    0.0000 C   0  0  0  0  0  0  0  0  0  0  0  0
    2.2800    1.6300    0.0000 C   0  0  0  0  0  0  0  0  0  0  0  0
   -6.8008   -0.5947    0.0000 O   0  0  0  0  0  0  0  0  0  0  0  0
   -5.4977   -2.8424    0.0000 O   0  0  0  0  0  0  0  0  0  0  0  0
  8  1  1  0
 10  9  1  0
 12 11  1  0
 14 13  1  0
 17 15  1  0
 18 16  1  0
 20  2  1  0
 20  3  1  0
 21  4  1  6
 21  9  1  0
 22  5  1  0
 23  8  1  6
 23 10  1  0
 23 20  1  0
 24 11  2  0
 24 19  1  0
 25 15  1  0
 25 19  1  0
 26 12  1  6
 27 13  1  1
 27 21  1  0
 28 14  1  1
 28 26  1  0
 29 16  1  1
 29 26  1  0
 30  6  1  1
 30 17  1  0
 30 24  1  0
 30 29  1  0
 31  7  1  1
 31 18  1  0
 31 27  1  0
 31 28  1  0
 32 22  2  0
 33 22  1  0
 25 33  1  1
M  END
>  <NAME>  (2999) 
CLIONASTERYL-ACETATE

>  <SYNONYMS>  (2999) 


>  <SPECTRUM TYPE>  (2999) 
MS1

>  <INSTRUMENT TYPE>  (2999) 
EI-B

>  <INSTRUMENT>  (2999) 
HITACHI M-80

>  <ION MODE>  (2999) 
P

>  <INCHIKEY>  (2999) 
PBWOIPCULUXTNY-UMKHIFOFSA-N

>  <FORMULA>  (2999) 
C31H52O2

>  <EXACT MASS>  (2999) 
456.396730904

>  <MW>  (2999) 
456

>  <ID>  (2999) 
JP008161

>  <CONTRIBUTOR>  (2999) 
University of Tokyo Team, {Faculty of Engineering, University of Tokyo

>  <COMMENT>  (2999) 
SMILES=C(C41C)(CCC1(C(C(CC4)3[H])([H])CC=C(C3(C)2)CC([H])(CC2)OC(C)=O)[H])(C(CCC([H])(C(C)C)CC)([H])C)[H]
InChI=InChI=1S/C31H52O2/c1-8-23(20(2)3)10-9-21(4)27-13-14-28-26-12-11-24-19-25(33-22(5)32)15-17-30(24,6)29(26)16-18-31(27,28)7/h11,20-21,23,25-29H,8-10,12-19H2,1-7H3/t21-,23+,25+,26+,27-,28+,29+,30+,31-/m1/s1
computed SMILES=O=C(OC1CC2=CCC3C(CCC4(C)C(CCC34)C(C)CCC(CC)C(C)C)C2(C)CC1)C
accession=JP008161
date=2016.01.19 (Created 2008.10.21, modified 2011.05.06)
author=NARA WOMEN'S UNIVERSITY
license=CC BY-NC-SA
exact mass=456.39673
ionization energy=70 eV
ion type=[M]+*
computed spectral entropy=4.132711899096156
computed normalized entropy=0.8490359834452431
SPLASH=splash10-0005-9814000000-76622d264e21b3a06a14
submitter=submitter = University of Tokyo Team (Faculty of Engineering, University of Tokyo)
MoNA Rating=3.75

>  <NUM PEAKS>  (2999) 
130

>  <MASS SPECTRAL PEAKS>  (2999) 
15 1.32
27 2.19
29 6.05
39 1.48
41 21.16
42 7.4
43 75.82
44 1.84
53 2.52
55 26.41
56 2.67
57 27.28
61 0.92
65 1.18
67 13.44
68 1.74
69 16.59
70 1.21
71 10.8
77 4.18
78 1.45
79 12.12
80 2.14
81 27.19
82 2.41
83 5.41
84 0.85
85 10.38
91 15.32
92 3.95
93 16.19
94 4.04
95 16.62
96 1.45
97 4.27
99 1.07
103 0.92
104 1.33
105 18.76
106 6.57
107 17.88
108 6.24
109 9.13
110 1.03
111 3.43
115 1.61
116 1.07
117 6.58
118 3.51
119 11.69
120 12.46
121 11.83
122 2.95
123 4.73
125 1.28
128 1.85
129 3.99
130 2.32
131 9.9
132 2.95
133 13.47
134 3.84
135 7.83
136 1.78
137 1.88
141 1.37
142 1.49
143 9.32
144 3.88
145 22.07
146 8.18
147 27.64
148 6.34
149 5.52
150 0.82
151 0.9
155 0.98
157 4.93
158 5.16
159 10.97
160 6.75
161 7.26
162 2.09
163 4.26
169 0.92
171 2.74
172 1.28
173 3.9
174 1.52
175 2.51
176 0.88
177 2.66
183 0.89
185 2.69
186 1.12
187 1.82
189 1.05
191 1.56
197 1.35
199 3.23
200 1.59
201 2.06
212 1.05
213 9.01
214 2.91
215 1.73
227 1.32
228 2.49
229 1.56
233 1.3
234 1.63
241 1.03
254 1.64
255 10.33
256 2.2
273 1.49
274 1.33
275 7.32
276 2.1
283 1.61
287 1.19
288 7.37
289 2.42
354 1.76
381 12.01
382 3.97
395 1.18
396 99.99
397 32.29
398 5.48

$$$$

     RDKit          2D

  9  9  0  0  0  0  0  0  0  0999 V2000
   -0.7500    0.9500    0.0000 C   0  0  0  0  0  0  0  0  0  0  0  0
    0.7500    0.9500    0.0000 C   0  0  0  0  0  0  0  0  0  0  0  0
   -2.6360   -0.9453    0.0000 C   0  0  0  0  0  0  0  0  0  0  0  0
    2.6360   -0.9453    0.0000 C   0  0  0  0  0  0  0  0  0  0  0  0
   -1.2100   -0.4800    0.0000 C   0  0  0  0  0  0  0  0  0  0  0  0
    1.2100   -0.4800    0.0000 C   0  0  0  0  0  0  0  0  0  0  0  0
   -3.7520    0.0570    0.0000 O   0  0  0  0  0  0  0  0  0  0  0  0
    3.7520    0.0570    0.0000 O   0  0  0  0  0  0  0  0  0  0  0  0
   -0.0000   -1.3600    0.0000 O   0  0  0  0  0  0  0  0  0  0  0  0
  2  1  1  0
  5  1  2  0
  5  3  1  0
  6  2  2  0
  6  4  1  0
  7  3  2  0
  8  4  1  0
  9  5  1  0
  9  6  1  0
M  END
>  <NAME>  (3000) 
5-(HYDROXYMETHYL)FURFURAL

>  <SYNONYMS>  (3000) 


>  <SPECTRUM TYPE>  (3000) 
MS1

>  <INSTRUMENT TYPE>  (3000) 
EI-B

>  <INSTRUMENT>  (3000) 
HITACHI M-80

>  <ION MODE>  (3000) 
P

>  <INCHIKEY>  (3000) 
NOEGNKMFWQHSLB-UHFFFAOYSA-N

>  <FORMULA>  (3000) 
C6H6O3

>  <EXACT MASS>  (3000) 
126.03169405199999

>  <MW>  (3000) 
126

>  <ID>  (3000) 
JP008160

>  <CONTRIBUTOR>  (3000) 
University of Tokyo Team, {Faculty of Engineering, University of Tokyo

>  <COMMENT>  (3000) 
SMILES=OCc(c1)oc(C=O)c1
cas=67-47-0
InChI=InChI=1S/C6H6O3/c7-3-5-1-2-6(4-8)9-5/h1-3,8H,4H2
computed SMILES=O=CC=1OC(=CC1)CO
accession=JP008160
date=2016.01.19 (Created 2008.10.21, modified 2011.05.06)
author=NARA WOMEN'S UNIVERSITY
license=CC BY-NC-SA
exact mass=126.03169
ionization energy=70 eV
ion type=[M]+*
computed spectral entropy=3.2018061787089978
computed normalized entropy=0.7852303560067637
SPLASH=splash10-004m-9200000000-eda1f2db983cad69f22f
submitter=submitter = University of Tokyo Team (Faculty of Engineering, University of Tokyo)
MoNA Rating=3.75

>  <NUM PEAKS>  (3000) 
59

>  <MASS SPECTRAL PEAKS>  (3000) 
14 1.3
15 3.41
17 2.42
18 9.33
25 0.92
26 4.99
27 9.05
28 8.35
29 31.07
30 2.22
31 10.15
36 0.87
37 7.64
38 13.83
39 43.79
40 4.34
41 77.76
42 7.12
43 5.96
44 2.91
45 1.62
49 2.51
50 10.12
51 14.43
52 9.18
53 16.33
54 1.67
55 3.52
56 2.41
57 1.5
58 1.02
59 3.08
66 2.43
67 1.89
68 4.89
69 35.12
70 2.14
71 1.07
79 3.03
80 2.94
81 8.64
82 0.85
84 17.41
85 2.44
86 1.11
95 3.45
97 99.99
98 5.91
99 1.13
102 0.86
109 17.67
110 1.88
113 0.99
123 3
124 0.81
125 13.33
126 78.05
127 19.33
128 1.67

$$$$

     RDKit          2D

 34 36  0  0  0  0  0  0  0  0999 V2000
   19.6367  -11.1381    0.0000 C   0  0  0  0  0  0  0  0  0  0  0  0
   17.3863  -12.4364    0.0000 C   0  0  0  0  0  0  0  0  0  0  0  0
   12.8871   -9.8369    0.0000 C   0  0  0  0  0  0  0  0  0  0  0  0
    8.3879   -7.2374    0.0000 C   0  0  0  0  0  0  0  0  0  0  0  0
    3.8888   -4.6378    0.0000 C   0  0  0  0  0  0  0  0  0  0  0  0
    2.3896    2.0593    0.0000 C   0  0  0  0  0  0  0  0  0  0  0  0
   -3.5500    0.7600    0.0000 C   0  0  0  0  0  0  0  0  0  0  0  0
   -3.5500   -0.7400    0.0000 C   0  0  0  0  0  0  0  0  0  0  0  0
   15.8871   -9.8378    0.0000 C   0  0  0  0  0  0  0  0  0  0  0  0
   11.3879   -7.2383    0.0000 C   0  0  0  0  0  0  0  0  0  0  0  0
    6.8888   -4.6388    0.0000 C   0  0  0  0  0  0  0  0  0  0  0  0
   17.3871   -9.8383    0.0000 C   0  0  0  0  0  0  0  0  0  0  0  0
   15.1375   -8.5386    0.0000 C   0  0  0  0  0  0  0  0  0  0  0  0
   12.8879   -7.2388    0.0000 C   0  0  0  0  0  0  0  0  0  0  0  0
   10.6383   -5.9390    0.0000 C   0  0  0  0  0  0  0  0  0  0  0  0
    8.3888   -4.6393    0.0000 C   0  0  0  0  0  0  0  0  0  0  0  0
    6.1392   -3.3395    0.0000 C   0  0  0  0  0  0  0  0  0  0  0  0
   -2.2500    1.5100    0.0000 C   0  0  0  0  0  0  0  0  0  0  0  0
   -2.2500   -1.4900    0.0000 C   0  0  0  0  0  0  0  0  0  0  0  0
    3.8896   -2.0398    0.0000 C   0  0  0  0  0  0  0  0  0  0  0  0
    2.3896   -2.0393    0.0000 C   0  0  0  0  0  0  0  0  0  0  0  0
   18.1367  -11.1376    0.0000 C   0  0  0  0  0  0  0  0  0  0  0  0
   13.6375   -8.5381    0.0000 C   0  0  0  0  0  0  0  0  0  0  0  0
    9.1383   -5.9386    0.0000 C   0  0  0  0  0  0  0  0  0  0  0  0
    4.6392   -3.3390    0.0000 C   0  0  0  0  0  0  0  0  0  0  0  0
   -0.9500    0.7600    0.0000 C   0  0  0  0  0  0  0  0  0  0  0  0
   -0.9500   -0.7400    0.0000 C   0  0  0  0  0  0  0  0  0  0  0  0
    0.3400    1.5100    0.0000 C   0  0  0  0  0  0  0  0  0  0  0  0
    0.3400   -1.4900    0.0000 C   0  0  0  0  0  0  0  0  0  0  0  0
    1.6400    0.7600    0.0000 C   0  0  0  0  0  0  0  0  0  0  0  0
    1.6400   -0.7400    0.0000 C   0  0  0  0  0  0  0  0  0  0  0  0
    0.3375    3.0100    0.0000 O   0  0  0  0  0  0  0  0  0  0  0  0
    0.3375   -2.9900    0.0000 O   0  0  0  0  0  0  0  0  0  0  0  0
    2.9400    0.0100    0.0000 O   0  0  0  0  0  0  0  0  0  0  0  0
  8  7  2  0
 12  9  1  0
 13  9  1  0
 14 10  1  0
 15 10  1  0
 16 11  1  0
 17 11  1  0
 18  7  1  0
 19  8  1  0
 21 20  1  0
 22  1  1  0
 22  2  1  0
 22 12  1  0
 23  3  1  0
 23 13  1  0
 23 14  1  0
 24  4  1  0
 24 15  1  0
 24 16  1  0
 25  5  1  0
 25 17  1  0
 20 25  2  0
 26 18  2  0
 27 19  2  0
 27 26  1  0
 28 26  1  0
 29 27  1  0
 30  6  1  0
 30 28  1  0
 31 21  1  0
 31 29  1  0
 31 30  1  0
 32 28  2  0
 33 29  2  0
 34 30  1  0
 34 31  1  0
M  END
>  <NAME>  (3001) 
PHYLLOQUINONE OXIDE

>  <SYNONYMS>  (3001) 
2-METHYL-3-PHYTYL-1,4-NAPHTHOQUINONE-2,3-OXIDE

>  <SPECTRUM TYPE>  (3001) 
MS1

>  <INSTRUMENT TYPE>  (3001) 
EI-B

>  <INSTRUMENT>  (3001) 
HITACHI M-80

>  <ION MODE>  (3001) 
P

>  <INCHIKEY>  (3001) 
KUTXFBIHPWIDJQ-LKUDQCMESA-N

>  <FORMULA>  (3001) 
C31H46O3

>  <EXACT MASS>  (3001) 
466.34469533199996

>  <MW>  (3001) 
466

>  <ID>  (3001) 
JP008159

>  <CONTRIBUTOR>  (3001) 
University of Tokyo Team, {Faculty of Engineering, University of Tokyo

>  <COMMENT>  (3001) 
SMILES=c(c1)ccc(C3=O)c(C(C(C32C)(CC([H])=C(CCCC(C)CCCC(C)CCCC(C)C)C)O2)=O)1
cas=25486-55-9
InChI=InChI=1S/C31H46O3/c1-22(2)12-9-13-23(3)14-10-15-24(4)16-11-17-25(5)20-21-31-29(33)27-19-8-7-18-26(27)28(32)30(31,6)34-31/h7-8,18-20,22-24H,9-17,21H2,1-6H3/b25-20+
computed SMILES=O=C1C=2C=CC=CC2C(=O)C3(OC13C)CC=C(C)CCCC(C)CCCC(C)CCCC(C)C
accession=JP008159
date=2016.01.19 (Created 2008.10.21, modified 2011.05.06)
author=NARA WOMEN'S UNIVERSITY
license=CC BY-NC-SA
exact mass=466.3447
ionization energy=70 eV
ion type=[M]+*
computed spectral entropy=4.614289646106982
computed normalized entropy=0.8725523161603591
SPLASH=splash10-052f-9840300000-286e5df43908b562355d
submitter=submitter = University of Tokyo Team (Faculty of Engineering, University of Tokyo)
MoNA Rating=3.75

>  <NUM PEAKS>  (3001) 
198

>  <MASS SPECTRAL PEAKS>  (3001) 
38 1.49
39 8.61
40 1.99
41 37.54
42 9.41
43 99.99
44 3.47
50 2.94
51 3.12
52 1.06
53 5.18
54 1.82
55 35.9
56 8.56
57 41.8
58 1.33
65 1.59
66 1.21
67 11.38
68 6.8
69 21.31
70 4.64
71 20.33
72 1.39
74 1.59
75 1.72
76 5.9
77 10.88
78 1.57
79 3.52
80 1.84
81 12.91
82 5.19
83 11.1
84 1.99
85 5.19
89 1.18
91 2.86
93 2.6
94 1.47
95 19.95
96 3.73
97 7.26
98 1.12
99 1.28
102 2.54
103 9.54
104 5.76
105 10
106 1.02
107 2.65
108 1.57
109 6.15
110 4.29
111 4.81
112 1.95
115 3.61
117 1.08
121 2.57
123 7.68
124 2.83
125 3.87
126 3.56
127 2.11
128 2.78
129 3.77
130 1.35
131 12.83
132 4.83
133 6.43
134 0.97
135 1.97
137 2.69
139 1.71
141 2.75
142 1.38
143 2.92
144 1.82
145 1.73
146 0.98
147 6.4
148 0.98
149 2.06
151 3.3
152 2.78
153 2.7
155 2.67
157 3.08
158 2.13
159 38.61
160 13.92
161 10.58
162 1.79
165 3.92
166 2.56
167 2.26
168 1.35
169 2.12
170 1.21
171 6.01
172 6.47
173 10.86
174 2.48
175 2.66
176 2.26
177 1.49
178 1.09
179 2.38
180 1.51
181 5.12
182 2.51
183 3.94
184 1.89
185 3.85
186 3.95
187 36.69
188 12.5
189 9.25
190 4.02
191 1.26
193 1.98
194 1.77
195 7.77
196 5.37
197 10.54
198 5.52
199 11.97
200 2.91
201 4.84
202 21.27
203 3.73
207 1.13
208 1.74
209 5.54
210 3.05
211 8.02
212 3.44
213 21.75
214 7.35
215 4.71
216 1.23
221 1.02
222 0.97
223 3.06
224 2.34
225 9.87
226 4.2
227 13.15
228 2.86
229 1.51
236 1.2
237 4.17
238 1.95
239 2.9
240 2.38
241 39.88
242 7.98
243 2.9
244 1.11
249 1.46
251 2.39
252 1.22
253 1.5
255 9.07
256 4.73
257 1.05
263 1.01
265 1.48
269 1.86
277 0.96
278 1.67
279 1.14
280 0.95
282 1.2
291 1.27
293 0.87
306 27.61
307 6.91
308 0.98
405 3.31
406 6.06
407 2.17
421 6.59
422 3.77
423 35.81
424 14.95
425 6
426 1.78
438 1.23
446 1.24
448 2.34
449 6.52
451 5.7
452 2.03
465 1.11
466 37.42
467 15.62
468 4.12

$$$$

     RDKit          2D

 12 12  0  0  0  0  0  0  0  0999 V2000
   -0.2903    3.6419    0.0000 C   0  0  0  0  0  0  0  0  0  0  0  0
   -2.2187    3.6419    0.0000 C   0  0  0  0  0  0  0  0  0  0  0  0
    2.6426    0.2428    0.0000 C   0  0  0  0  0  0  0  0  0  0  0  0
    2.6431    1.7437    0.0000 C   0  0  0  0  0  0  0  0  0  0  0  0
    1.3431   -0.5080    0.0000 C   0  0  0  0  0  0  0  0  0  0  0  0
    1.3441    2.4937    0.0000 C   0  0  0  0  0  0  0  0  0  0  0  0
    0.0441    0.2420    0.0000 C   0  0  0  0  0  0  0  0  0  0  0  0
    0.0445    1.7428    0.0000 C   0  0  0  0  0  0  0  0  0  0  0  0
   -2.5535    1.7428    0.0000 C   0  0  0  0  0  0  0  0  0  0  0  0
   -1.2545    2.4928    0.0000 C   0  0  0  0  0  0  0  0  0  0  0  0
   -2.5535    0.2428    0.0000 O   0  0  0  0  0  0  0  0  0  0  0  0
   -3.8526    2.4928    0.0000 O   0  0  0  0  0  0  0  0  0  0  0  0
  4  3  2  0
  5  3  1  0
  6  4  1  0
  7  5  2  0
  8  6  2  0
  8  7  1  0
 10  1  1  0
 10  2  1  0
 10  8  1  0
 10  9  1  0
 11  9  2  0
 12  9  1  0
M  END
>  <NAME>  (3002) 
2-PHENYL-2-METHYLPROPIONIC ACID

>  <SYNONYMS>  (3002) 


>  <SPECTRUM TYPE>  (3002) 
MS1

>  <INSTRUMENT TYPE>  (3002) 
EI-B

>  <INSTRUMENT>  (3002) 
HITACHI M-80

>  <ION MODE>  (3002) 
P

>  <INCHIKEY>  (3002) 
YYEROYLAYAVZNW-UHFFFAOYSA-N

>  <FORMULA>  (3002) 
C10H12O2

>  <EXACT MASS>  (3002) 
164.083729624

>  <MW>  (3002) 
164

>  <ID>  (3002) 
JP008158

>  <CONTRIBUTOR>  (3002) 
University of Tokyo Team, {Faculty of Engineering, University of Tokyo

>  <COMMENT>  (3002) 
SMILES=OC(=O)C(C)(C)c(c1)cccc1
InChI=InChI=1S/C10H12O2/c1-10(2,9(11)12)8-6-4-3-5-7-8/h3-7H,1-2H3,(H,11,12)
computed SMILES=O=C(O)C(C=1C=CC=CC1)(C)C
accession=JP008158
date=2016.01.19 (Created 2008.10.21, modified 2011.05.06)
author=NARA WOMEN'S UNIVERSITY
license=CC BY-NC-SA
exact mass=164.08373
ionization energy=70 eV
ion type=[M]+*
computed spectral entropy=2.9664334372394086
computed normalized entropy=0.7936585466860573
SPLASH=splash10-014l-9700000000-dfc0ea83bf35f0df155e
submitter=submitter = University of Tokyo Team (Faculty of Engineering, University of Tokyo)
MoNA Rating=3.75

>  <NUM PEAKS>  (3002) 
42

>  <MASS SPECTRAL PEAKS>  (3002) 
15 2.5
26 1.16
27 6.26
38 1.77
39 14.1
41 22.81
42 1.04
43 7
45 13.66
50 6.82
51 16.08
52 3.86
53 2.04
62 1.9
63 5.41
64 1.01
65 5.14
74 2.5
75 2.27
76 2.37
77 21.39
78 9.63
79 14.83
80 1.02
89 1.89
91 60.68
92 4.79
102 2.8
103 14.74
104 4.64
105 29.74
106 3.05
115 3.54
116 0.87
117 3.75
118 2.5
119 99.99
120 10.42
121 1.33
150 5.66
164 19.94
165 2.35

$$$$

     RDKit          2D

 12 12  0  0  0  0  0  0  0  0999 V2000
    0.0000    3.0000    0.0000 C   0  0  0  0  0  0  0  0  0  0  0  0
   -2.5989   -1.5002    0.0000 C   0  0  0  0  0  0  0  0  0  0  0  0
    2.5989    1.5002    0.0000 C   0  0  0  0  0  0  0  0  0  0  0  0
   -0.0000   -3.0000    0.0000 C   0  0  0  0  0  0  0  0  0  0  0  0
   -1.3000    0.7500    0.0000 C   0  0  0  0  0  0  0  0  0  0  0  0
    0.0000    1.5000    0.0000 C   0  0  0  0  0  0  0  0  0  0  0  0
   -1.3000   -0.7500    0.0000 C   0  0  0  0  0  0  0  0  0  0  0  0
    1.3000    0.7500    0.0000 C   0  0  0  0  0  0  0  0  0  0  0  0
    0.0000   -1.5000    0.0000 C   0  0  0  0  0  0  0  0  0  0  0  0
    1.3000   -0.7500    0.0000 C   0  0  0  0  0  0  0  0  0  0  0  0
    2.5989   -1.5002    0.0000 N   0  0  0  0  0  0  0  0  0  0  0  0
    3.8981   -0.7504    0.0000 O   0  0  0  0  0  0  0  0  0  0  0  0
  6  1  1  0
  6  5  2  0
  7  2  1  0
  7  5  1  0
  8  3  1  0
  8  6  1  0
  9  4  1  0
  9  7  2  0
 10  8  2  0
 10  9  1  0
 11 10  1  0
 12 11  2  0
M  END
>  <NAME>  (3003) 
NITROSODURENE

>  <SYNONYMS>  (3003) 


>  <SPECTRUM TYPE>  (3003) 
MS1

>  <INSTRUMENT TYPE>  (3003) 
EI-B

>  <INSTRUMENT>  (3003) 
HITACHI M-80

>  <ION MODE>  (3003) 
P

>  <INCHIKEY>  (3003) 
UDOPFAXNNPAWQS-UHFFFAOYSA-N

>  <FORMULA>  (3003) 
C10H13NO

>  <EXACT MASS>  (3003) 
163.099714036

>  <MW>  (3003) 
163

>  <ID>  (3003) 
JP008157

>  <CONTRIBUTOR>  (3003) 
University of Tokyo Team, {Faculty of Engineering, University of Tokyo

>  <COMMENT>  (3003) 
SMILES=O=Nc(c(C)1)c(C)c(C)cc(C)1
InChI=InChI=1S/C10H13NO/c1-6-5-7(2)9(4)10(11-12)8(6)3/h5H,1-4H3
computed SMILES=O=NC=1C(=C(C=C(C1C)C)C)C
accession=JP008157
date=2016.01.19 (Created 2008.10.21, modified 2011.05.06)
author=NARA WOMEN'S UNIVERSITY
license=CC BY-NC-SA
exact mass=163.09971
ionization energy=70 eV
ion type=[M]+*
computed spectral entropy=3.740392790536456
computed normalized entropy=0.8487930772668439
SPLASH=splash10-05nf-8900000000-850a7f6804240b10c092
submitter=submitter = University of Tokyo Team (Faculty of Engineering, University of Tokyo)
MoNA Rating=3.75

>  <NUM PEAKS>  (3003) 
82

>  <MASS SPECTRAL PEAKS>  (3003) 
15 1.46
18 3.68
26 1.34
27 17.23
28 11.96
29 5.2
30 16.06
32 2.94
37 1.05
38 4.03
39 43.4
40 5.99
41 41.7
42 2.63
43 1.11
47 0.98
49 4.92
50 8.35
51 26.04
52 9.81
53 19.01
54 1.88
55 12.14
61 1.19
62 4.8
63 16.73
64 5.48
65 23.61
66 4.05
67 5.02
74 3.32
75 4.66
76 3.34
77 36.57
78 10.95
79 19.24
80 1.94
81 1.04
84 2.62
86 2.11
87 1.6
88 0.87
89 5.84
90 2.18
91 68.84
92 8.19
93 14.21
94 2.18
101 1.08
102 4.36
103 14.58
104 4.19
105 58.37
106 6.33
107 5.2
108 1.06
115 35.85
116 16.27
117 42.47
118 28.78
119 6.33
120 24.53
121 2.71
127 1.88
128 4.25
129 3.35
130 3.61
131 9.91
132 6.37
133 99.99
134 26.51
135 19.71
136 2.08
144 2.68
145 0.91
146 4.6
147 1.53
148 1.54
149 1.75
162 9.77
163 44.79
164 5.18

$$$$

     RDKit          2D

 11 11  0  0  0  0  0  0  0  0999 V2000
    0.0000   -2.1700    0.0000 C   0  0  0  0  0  0  0  0  0  0  0  0
    1.3000   -1.4200    0.0000 C   0  0  0  0  0  0  0  0  0  0  0  0
   -1.3000   -1.4200    0.0000 C   0  0  0  0  0  0  0  0  0  0  0  0
    1.3000    0.0800    0.0000 C   0  0  0  0  0  0  0  0  0  0  0  0
   -1.3000    0.0800    0.0000 C   0  0  0  0  0  0  0  0  0  0  0  0
    0.0000    0.8300    0.0000 C   0  0  0  0  0  0  0  0  0  0  0  0
    0.0000    2.3300    0.0000 C   0  0  0  0  0  0  0  0  0  0  0  0
    2.5989    0.8302    0.0000 Cl  0  0  0  0  0  0  0  0  0  0  0  0
   -2.5989    0.8302    0.0000 Cl  0  0  0  0  0  0  0  0  0  0  0  0
   -1.2990    3.0800    0.0000 N   0  0  0  0  0  0  0  0  0  0  0  0
    1.2990    3.0800    0.0000 S   0  0  0  0  0  0  0  0  0  0  0  0
  2  1  2  0
  3  1  1  0
  4  2  1  0
  5  3  2  0
  6  4  2  0
  6  5  1  0
  7  6  1  0
  8  4  1  0
  9  5  1  0
 10  7  2  0
 11  7  1  0
M  END
>  <NAME>  (3004) 
2,6-DICHLOROTHIOBENZAMIDE

>  <SYNONYMS>  (3004) 


>  <SPECTRUM TYPE>  (3004) 
MS1

>  <INSTRUMENT TYPE>  (3004) 
EI-B

>  <INSTRUMENT>  (3004) 
HITACHI M-80

>  <ION MODE>  (3004) 
P

>  <INCHIKEY>  (3004) 
KGKGSIUWJCAFPX-UHFFFAOYSA-N

>  <FORMULA>  (3004) 
C7H5Cl2NS

>  <EXACT MASS>  (3004) 
204.95197552

>  <MW>  (3004) 
205

>  <ID>  (3004) 
JP008156

>  <CONTRIBUTOR>  (3004) 
University of Tokyo Team, {Faculty of Engineering, University of Tokyo

>  <COMMENT>  (3004) 
SMILES=NC(=S)c(c(Cl)1)c(Cl)ccc1
InChI=InChI=1S/C7H5Cl2NS/c8-4-2-1-3-5(9)6(4)7(10)11/h1-3H,(H2,10,11)
computed SMILES=ClC1=CC=CC(Cl)=C1C(=N)S
accession=JP008156
date=2016.01.19 (Created 2008.10.21, modified 2011.05.06)
author=NARA WOMEN'S UNIVERSITY
license=CC BY-NC-SA
exact mass=204.95198
ionization energy=70 eV
ion type=[M]+*
computed spectral entropy=3.348797951251793
computed normalized entropy=0.7780546712779322
SPLASH=splash10-05fr-3940000000-8ca4a2ae499db498cded
submitter=submitter = University of Tokyo Team (Faculty of Engineering, University of Tokyo)
MoNA Rating=3.75

>  <NUM PEAKS>  (3004) 
74

>  <MASS SPECTRAL PEAKS>  (3004) 
33 1.24
34 0.95
35 0.87
36 2.82
37 2.61
38 1.93
39 0.96
45 2.3
49 1.61
50 4.64
51 2.56
52 1.52
59 2.09
60 29.24
61 2.39
62 2.5
63 3.46
68 0.91
69 2.72
73 2.87
74 7.01
75 10.84
76 3.34
78 1.31
84 2.63
85 3.31
86 2.11
90 3.52
93 1.4
99 1.5
100 6.45
101 1.72
102 2.34
107 2.67
108 3.51
109 3.97
110 1.76
111 5.04
112 0.9
113 1.3
119 1.87
133 1.56
134 10.43
135 6.74
136 9.52
137 4.58
138 4.17
139 1.47
142 1.96
143 4.61
144 1.24
145 2.49
146 3.47
147 0.8
148 2.06
154 2.44
169 1.71
170 99.99
171 12.79
172 45.43
173 6.45
174 7.2
175 1.18
176 0.97
177 0.97
189 7.51
191 5.15
193 1
205 60.54
206 13.4
207 42.28
208 9.28
209 8.67
210 1.79

$$$$

     RDKit          2D

 12 13  0  0  0  0  0  0  0  0999 V2000
    1.9500   -0.9000    0.0000 C   0  0  0  0  0  0  0  0  0  0  0  0
    0.6300   -1.6600    0.0000 C   0  0  0  0  0  0  0  0  0  0  0  0
    0.6300    1.3800    0.0000 C   0  0  0  0  0  0  0  0  0  0  0  0
   -2.9400   -0.2300    0.0000 C   0  0  0  0  0  0  0  0  0  0  0  0
    1.9500    0.6200    0.0000 C   0  0  0  0  0  0  0  0  0  0  0  0
   -0.6600   -0.9000    0.0000 C   0  0  0  0  0  0  0  0  0  0  0  0
   -0.6600    0.6200    0.0000 C   0  0  0  0  0  0  0  0  0  0  0  0
    3.2486    1.3708    0.0000 C   0  0  0  0  0  0  0  0  0  0  0  0
    3.2477    2.8708    0.0000 O   0  0  0  0  0  0  0  0  0  0  0  0
    4.5481    0.6216    0.0000 O   0  0  0  0  0  0  0  0  0  0  0  0
   -2.0600   -1.3400    0.0000 O   0  0  0  0  0  0  0  0  0  0  0  0
   -2.0900    1.0600    0.0000 O   0  0  0  0  0  0  0  0  0  0  0  0
  2  1  2  0
  5  1  1  0
  5  3  2  0
  6  2  1  0
  7  3  1  0
  7  6  2  0
  8  5  1  0
  9  8  2  0
 10  8  1  0
 11  4  1  0
 11  6  1  0
 12  4  1  0
 12  7  1  0
M  END
>  <NAME>  (3005) 
PIPERONYLIC ACID

>  <SYNONYMS>  (3005) 


>  <SPECTRUM TYPE>  (3005) 
MS1

>  <INSTRUMENT TYPE>  (3005) 
EI-B

>  <INSTRUMENT>  (3005) 
HITACHI M-80

>  <ION MODE>  (3005) 
P

>  <INCHIKEY>  (3005) 
VDVJGIYXDVPQLP-UHFFFAOYSA-N

>  <FORMULA>  (3005) 
C8H6O4

>  <EXACT MASS>  (3005) 
166.026608672

>  <MW>  (3005) 
166

>  <ID>  (3005) 
JP008154

>  <CONTRIBUTOR>  (3005) 
University of Tokyo Team, {Faculty of Engineering, University of Tokyo

>  <COMMENT>  (3005) 
SMILES=OC(=O)c(c1)cc(O2)c(OC2)c1
cas=94-53-1
InChI=InChI=1S/C8H6O4/c9-8(10)5-1-2-6-7(3-5)12-4-11-6/h1-3H,4H2,(H,9,10)
computed SMILES=O=C(O)C1=CC=C2OCOC2=C1
accession=JP008154
date=2016.01.19 (Created 2008.10.21, modified 2011.05.06)
author=NARA WOMEN'S UNIVERSITY
license=CC BY-NC-SA
exact mass=166.02661
ionization energy=70 eV
ion type=[M]+*
computed spectral entropy=2.7860260309952456
computed normalized entropy=0.7318815467570765
SPLASH=splash10-014i-4900000000-70cd469c29d2482d95f0
submitter=submitter = University of Tokyo Team (Faculty of Engineering, University of Tokyo)
MoNA Rating=3.75

>  <NUM PEAKS>  (3005) 
45

>  <MASS SPECTRAL PEAKS>  (3005) 
26 1
27 1.3
28 3.8
29 5
37 3
38 5
39 7.2
40 1
41 1.8
42 1
43 1
45 2.8
50 4
51 5.5
52 3
53 6
55 1
57 7.2
60 2.7
61 4
62 10.5
63 21.8
64 3
65 12
66 1
69 5.8
74 9
79 2
80 1
81 3.5
82 1
83 1
91 8.8
92 1.2
93 1
119 14.3
120 2.5
121 13.2
122 1
149 32
150 4
165 94
166 99.99
167 9.5
168 1.5

$$$$

     RDKit          2D

 21 24  0  0  1  0  0  0  0  0999 V2000
    2.3787    3.4316    0.0000 C   0  0  0  0  0  0  0  0  0  0  0  0
   -1.6800    1.1900    0.0000 C   0  0  0  0  0  0  0  0  0  0  0  0
   -4.2800   -1.8100    0.0000 C   0  0  0  0  0  0  0  0  0  0  0  0
   -2.9800   -2.5600    0.0000 C   0  0  0  0  0  0  0  0  0  0  0  0
   -4.2800   -0.3100    0.0000 C   0  0  0  0  0  0  0  0  0  0  0  0
   -0.3800   -2.5600    0.0000 C   0  0  0  0  0  0  0  0  0  0  0  0
    0.9200   -1.8100    0.0000 C   0  0  0  0  0  0  0  0  0  0  0  0
    3.6500   -0.0200    0.0000 C   0  0  0  0  0  0  0  0  0  0  0  0
    4.5300    1.1900    0.0000 C   0  0  0  0  0  0  0  0  0  0  0  0
   -0.3800    1.9400    0.0000 C   0  0  0  0  0  0  0  0  0  0  0  0
    0.9200    2.6900    0.0000 C   0  0  0  0  0  0  0  0  0  0  0  0
   -1.6800   -1.8100    0.0000 C   0  0  0  0  0  0  0  0  0  0  0  0
    0.9200   -0.3100    0.0000 C   0  0  0  0  0  0  0  0  0  0  0  0
    2.2200    0.4400    0.0000 C   0  0  0  0  0  0  0  0  0  0  0  0
   -0.3800    0.4400    0.0000 C   0  0  0  0  0  0  0  0  0  0  0  0
    3.6500    2.4000    0.0000 C   0  0  0  0  0  0  0  0  0  0  0  0
   -2.9800    0.4400    0.0000 C   0  0  0  0  0  0  0  0  0  0  0  0
    2.2200    1.9400    0.0000 C   0  0  0  0  0  0  0  0  0  0  0  0
   -1.6800   -0.3100    0.0000 C   0  0  0  0  0  0  0  0  0  0  0  0
    4.1153    3.8260    0.0000 O   0  0  0  0  0  0  0  0  0  0  0  0
   -2.9800    1.9400    0.0000 O   0  0  0  0  0  0  0  0  0  0  0  0
  4  3  1  0
  5  3  2  0
  7  6  1  0
  9  8  1  0
 11 10  1  0
 12  4  1  1
 12  6  1  0
 13  7  1  6
 14  8  1  1
 14 13  1  0
 15 10  1  1
 15 13  1  0
 16  9  1  0
 17  5  1  0
 18  1  1  1
 18 11  1  0
 18 14  1  0
 18 16  1  0
 19  2  1  1
 19 12  1  0
 19 15  1  0
 19 17  1  0
 16 20  1  1
 17 21  1  6
M  END
>  <NAME>  (3006) 
1ALPHA,17BETA-DIHYDROXY-5ALPHA-ANDROST-2-ENE

>  <SYNONYMS>  (3006) 


>  <SPECTRUM TYPE>  (3006) 
MS1

>  <INSTRUMENT TYPE>  (3006) 
EI-B

>  <INSTRUMENT>  (3006) 
HITACHI M-80

>  <ION MODE>  (3006) 
P

>  <INCHIKEY>  (3006) 
RUUMDVOLWARSAZ-VXZRPZIYSA-N

>  <FORMULA>  (3006) 
C19H30O2

>  <EXACT MASS>  (3006) 
290.2245802

>  <MW>  (3006) 
290

>  <ID>  (3006) 
JP008152

>  <CONTRIBUTOR>  (3006) 
University of Tokyo Team, {Faculty of Engineering, University of Tokyo

>  <COMMENT>  (3006) 
SMILES=[H]C(C4)=C([H])C([H])(O)C(C)(C([H])43)C([H])(C2)C([H])(CC3)C([H])(C1)C(C)(C2)C([H])(O)C1
InChI=InChI=1S/C19H30O2/c1-18-11-10-15-13(14(18)8-9-16(18)20)7-6-12-4-3-5-17(21)19(12,15)2/h3,5,12-17,20-21H,4,6-11H2,1-2H3/t12-,13+,14+,15+,16+,17+,18+,19+/m1/s1
computed SMILES=OC1C=CCC2CCC3C4CCC(O)C4(C)CCC3C12C
accession=JP008152
date=2016.01.19 (Created 2008.10.21, modified 2011.05.06)
author=NARA WOMEN'S UNIVERSITY
license=CC BY-NC-SA
exact mass=290.22458
ionization energy=70 eV
ion type=[M]+*
computed spectral entropy=3.953294692675888
computed normalized entropy=0.8257548848279789
SPLASH=splash10-00di-3590000000-a66f8cf669b520b59577
submitter=submitter = University of Tokyo Team (Faculty of Engineering, University of Tokyo)
MoNA Rating=3.75

>  <NUM PEAKS>  (3006) 
120

>  <MASS SPECTRAL PEAKS>  (3006) 
27 0.98
29 2.35
40 1.45
42 5.77
43 1.88
44 4.48
53 1.93
55 5.3
56 1.95
57 5.23
65 1.01
67 4.8
68 1.29
69 2.87
70 22.43
71 2.23
77 3.29
78 0.97
79 7.26
80 1.61
81 10.09
82 1.22
83 1.35
86 0.91
91 7.76
92 2.74
93 9.89
94 4.08
95 8.12
96 1.56
97 3.27
98 1.13
105 9.91
106 5.68
107 10.71
108 5.21
109 6.48
110 2.17
111 1.5
117 2.07
118 1.6
119 4.74
120 2.84
121 6.7
122 2.37
123 2.97
124 3.74
129 1.13
131 5
132 1.32
133 4.77
134 2.75
135 3.48
136 1.18
137 1.13
143 1.47
144 0.83
145 4.84
146 2.33
147 9.69
148 3.29
149 5.62
150 1.48
151 1.49
157 1.43
158 0.91
159 3.44
160 2.57
161 16.23
162 3.57
163 4.52
164 2.42
165 1.04
168 1.18
171 0.96
173 5.74
174 2.07
175 2.14
176 21.06
177 5.31
178 1.68
185 0.94
187 11.56
188 2.08
189 1.1
191 3.31
192 1.01
199 2.28
200 0.92
201 4.73
202 27.62
203 56.44
204 9.32
205 4.67
206 0.89
213 2.68
214 1
215 1.61
217 1.73
218 1.87
219 9.55
220 51.42
221 99.99
222 16.09
223 1.44
231 1.56
239 1.72
244 1.28
246 1.84
254 1.15
255 1.65
257 4.67
258 1.19
272 13.19
273 8.24
274 1.98
275 1.21
290 42.07
291 8.95
292 1.13

$$$$

     RDKit          2D

 24 27  0  0  1  0  0  0  0  0999 V2000
    6.0482    5.5621    0.0000 C   0  0  0  0  0  0  0  0  0  0  0  0
    2.3787    3.4316    0.0000 C   0  0  0  0  0  0  0  0  0  0  0  0
   -1.6800    1.1900    0.0000 C   0  0  0  0  0  0  0  0  0  0  0  0
   -4.2800   -1.8100    0.0000 C   0  0  0  0  0  0  0  0  0  0  0  0
   -2.9800   -2.5600    0.0000 C   0  0  0  0  0  0  0  0  0  0  0  0
   -4.2800   -0.3100    0.0000 C   0  0  0  0  0  0  0  0  0  0  0  0
   -0.3800   -2.5600    0.0000 C   0  0  0  0  0  0  0  0  0  0  0  0
    0.9200   -1.8100    0.0000 C   0  0  0  0  0  0  0  0  0  0  0  0
    3.6500   -0.0200    0.0000 C   0  0  0  0  0  0  0  0  0  0  0  0
    4.5300    1.1900    0.0000 C   0  0  0  0  0  0  0  0  0  0  0  0
   -0.3800    1.9400    0.0000 C   0  0  0  0  0  0  0  0  0  0  0  0
    0.9200    2.6900    0.0000 C   0  0  0  0  0  0  0  0  0  0  0  0
    5.5829    4.1361    0.0000 C   0  0  0  0  0  0  0  0  0  0  0  0
   -1.6800   -1.8100    0.0000 C   0  0  0  0  0  0  0  0  0  0  0  0
    0.9200   -0.3100    0.0000 C   0  0  0  0  0  0  0  0  0  0  0  0
    2.2200    0.4400    0.0000 C   0  0  0  0  0  0  0  0  0  0  0  0
   -0.3800    0.4400    0.0000 C   0  0  0  0  0  0  0  0  0  0  0  0
   -2.9800    0.4400    0.0000 C   0  0  0  0  0  0  0  0  0  0  0  0
    3.6500    2.4000    0.0000 C   0  0  0  0  0  0  0  0  0  0  0  0
    2.2200    1.9400    0.0000 C   0  0  0  0  0  0  0  0  0  0  0  0
   -1.6800   -0.3100    0.0000 C   0  0  0  0  0  0  0  0  0  0  0  0
    6.5852    3.0201    0.0000 O   0  0  0  0  0  0  0  0  0  0  0  0
   -2.9800    1.9400    0.0000 O   0  0  0  0  0  0  0  0  0  0  0  0
    4.1153    3.8260    0.0000 O   0  0  0  0  0  0  0  0  0  0  0  0
  5  4  1  0
  6  4  1  0
  8  7  1  0
 10  9  1  0
 12 11  1  0
 13  1  1  0
 14  5  1  1
 14  7  1  0
 15  8  1  6
 16  9  1  1
 16 15  1  0
 17 11  1  1
 17 15  1  0
 18  6  1  0
 19 10  1  0
 20  2  1  1
 20 12  1  0
 20 16  1  0
 20 19  1  0
 21  3  1  1
 21 14  1  0
 21 17  1  0
 21 18  1  0
 22 13  2  0
 18 23  1  1
 24 13  1  0
 19 24  1  1
M  END
>  <NAME>  (3007) 
17BETA-ACETOXY-1BETA-HYDROXY-5ALPHA-ANDROSTANE

>  <SYNONYMS>  (3007) 


>  <SPECTRUM TYPE>  (3007) 
MS1

>  <INSTRUMENT TYPE>  (3007) 
EI-B

>  <INSTRUMENT>  (3007) 
HITACHI M-80

>  <ION MODE>  (3007) 
P

>  <INCHIKEY>  (3007) 
GJKFQYIGKDMSEN-WKBNOSBISA-N

>  <FORMULA>  (3007) 
C21H34O3

>  <EXACT MASS>  (3007) 
334.25079494799996

>  <MW>  (3007) 
334

>  <ID>  (3007) 
JP008151

>  <CONTRIBUTOR>  (3007) 
University of Tokyo Team, {Faculty of Engineering, University of Tokyo

>  <COMMENT>  (3007) 
SMILES=CC(=O)OC(C4)C(C)(C3)C([H])(C4)C([H])(C1)C([H])(C3)C(C)(C(O)2)C([H])(CCC2)C1
InChI=InChI=1S/C21H34O3/c1-13(22)24-19-10-9-16-15-8-7-14-5-4-6-18(23)21(14,3)17(15)11-12-20(16,19)2/h14-19,23H,4-12H2,1-3H3/t14-,15+,16+,17+,18-,19+,20+,21+/m1/s1
computed SMILES=O=C(OC1CCC2C3CCC4CCCC(O)C4(C)C3CCC12C)C
accession=JP008151
date=2016.01.19 (Created 2008.10.21, modified 2011.05.06)
author=NARA WOMEN'S UNIVERSITY
license=CC BY-NC-SA
exact mass=334.25079
ionization energy=70 eV
ion type=[M]+*
computed spectral entropy=4.173627591985674
computed normalized entropy=0.8560940850790398
SPLASH=splash10-066s-3973000000-77132849d7468ed173d7
submitter=submitter = University of Tokyo Team (Faculty of Engineering, University of Tokyo)
MoNA Rating=3.75

>  <NUM PEAKS>  (3007) 
131

>  <MASS SPECTRAL PEAKS>  (3007) 
29 1.97
39 1.01
41 5.23
43 24.18
44 1.16
53 1.93
55 8.66
57 2.28
65 1.01
67 7.55
68 1.6
69 3.3
71 1.58
77 3.22
78 0.94
79 9.04
80 2.42
81 14.24
82 2.06
83 2.05
91 7.9
92 2.05
93 12.91
94 10.32
95 11.29
96 1.81
97 2.8
104 2.27
105 12.77
106 5.44
107 12.91
108 28.57
109 9.53
110 2.64
111 2.64
117 2.8
118 2.59
119 8.06
120 5.84
121 8.35
122 6.06
123 3.26
124 1.67
129 1.11
130 1.41
131 16.02
132 4.64
133 10.48
134 7.09
135 7.31
136 1.97
137 1.5
143 1.04
144 0.95
145 10.11
146 52.69
147 19.55
148 12.54
149 6.2
150 1.16
157 1.13
158 1.09
159 12.4
160 9.16
161 10.65
162 7.92
163 3.79
164 0.92
165 1.19
171 1.48
173 4.41
174 6.52
175 5.65
176 2.04
177 1.41
179 1.15
185 3.12
186 1.49
187 4.05
188 2.13
189 1.73
199 2.97
200 2.07
201 30.72
202 7.53
203 2.92
206 16.65
207 4.22
208 1.59
213 2.08
214 1.32
215 7.49
216 2.22
217 2.03
219 4.25
220 2.95
221 2.74
227 7.51
228 3.36
229 1.21
230 1.81
231 1.14
233 2.79
234 1.92
241 13.55
242 2.8
245 1.23
246 2.07
247 0.98
248 1.19
255 1.9
256 67.14
257 27.07
258 4.54
259 10.31
260 3.42
261 6.66
262 1.99
273 1.96
274 23.97
275 8.46
287 7.56
288 1.72
301 3.57
302 0.82
316 99.99
317 25.35
318 3.6
319 0.81
334 9.03
335 2.31

$$$$

     RDKit          2D

 24 27  0  0  1  0  0  0  0  0999 V2000
    6.0482    5.5621    0.0000 C   0  0  0  0  0  0  0  0  0  0  0  0
    2.3787    3.4316    0.0000 C   0  0  0  0  0  0  0  0  0  0  0  0
   -1.6800    1.1900    0.0000 C   0  0  0  0  0  0  0  0  0  0  0  0
   -4.2800   -1.8100    0.0000 C   0  0  0  0  0  0  0  0  0  0  0  0
   -2.9800   -2.5600    0.0000 C   0  0  0  0  0  0  0  0  0  0  0  0
   -4.2800   -0.3100    0.0000 C   0  0  0  0  0  0  0  0  0  0  0  0
   -0.3800   -2.5600    0.0000 C   0  0  0  0  0  0  0  0  0  0  0  0
    0.9200   -1.8100    0.0000 C   0  0  0  0  0  0  0  0  0  0  0  0
    3.6500   -0.0200    0.0000 C   0  0  0  0  0  0  0  0  0  0  0  0
    4.5300    1.1900    0.0000 C   0  0  0  0  0  0  0  0  0  0  0  0
   -0.3800    1.9400    0.0000 C   0  0  0  0  0  0  0  0  0  0  0  0
    0.9200    2.6900    0.0000 C   0  0  0  0  0  0  0  0  0  0  0  0
    5.5829    4.1361    0.0000 C   0  0  0  0  0  0  0  0  0  0  0  0
   -1.6800   -1.8100    0.0000 C   0  0  0  0  0  0  0  0  0  0  0  0
    0.9200   -0.3100    0.0000 C   0  0  0  0  0  0  0  0  0  0  0  0
    2.2200    0.4400    0.0000 C   0  0  0  0  0  0  0  0  0  0  0  0
   -0.3800    0.4400    0.0000 C   0  0  0  0  0  0  0  0  0  0  0  0
   -2.9800    0.4400    0.0000 C   0  0  0  0  0  0  0  0  0  0  0  0
    3.6500    2.4000    0.0000 C   0  0  0  0  0  0  0  0  0  0  0  0
    2.2200    1.9400    0.0000 C   0  0  0  0  0  0  0  0  0  0  0  0
   -1.6800   -0.3100    0.0000 C   0  0  0  0  0  0  0  0  0  0  0  0
    6.5852    3.0201    0.0000 O   0  0  0  0  0  0  0  0  0  0  0  0
   -2.9800    1.9400    0.0000 O   0  0  0  0  0  0  0  0  0  0  0  0
    4.1153    3.8260    0.0000 O   0  0  0  0  0  0  0  0  0  0  0  0
  5  4  1  0
  6  4  1  0
  8  7  1  0
 10  9  1  0
 12 11  1  0
 13  1  1  0
 14  5  1  1
 14  7  1  0
 15  8  1  6
 16  9  1  1
 16 15  1  0
 17 11  1  1
 17 15  1  0
 18  6  1  0
 19 10  1  0
 20  2  1  1
 20 12  1  0
 20 16  1  0
 20 19  1  0
 21  3  1  1
 21 14  1  0
 21 17  1  0
 21 18  1  0
 22 13  2  0
 18 23  1  6
 24 13  1  0
 19 24  1  1
M  END
>  <NAME>  (3008) 
17BETA-ACETOXY-1ALPHA-HYDROXY-5ALPHA-ANDROSTANE

>  <SYNONYMS>  (3008) 


>  <SPECTRUM TYPE>  (3008) 
MS1

>  <INSTRUMENT TYPE>  (3008) 
EI-B

>  <INSTRUMENT>  (3008) 
HITACHI M-80

>  <ION MODE>  (3008) 
P

>  <INCHIKEY>  (3008) 
GJKFQYIGKDMSEN-NDUYDNQLSA-N

>  <FORMULA>  (3008) 
C21H34O3

>  <EXACT MASS>  (3008) 
334.250794948

>  <MW>  (3008) 
334

>  <ID>  (3008) 
JP008150

>  <CONTRIBUTOR>  (3008) 
University of Tokyo Team, {Faculty of Engineering, University of Tokyo

>  <COMMENT>  (3008) 
SMILES=CC(=O)OC([H])(C4)C(C)(C3)C([H])(C4)C([H])(C1)C([H])(C3)C(C)(C([H])(O)2)C([H])(CCC2)C1
InChI=InChI=1S/C21H34O3/c1-13(22)24-19-10-9-16-15-8-7-14-5-4-6-18(23)21(14,3)17(15)11-12-20(16,19)2/h14-19,23H,4-12H2,1-3H3/t14-,15+,16+,17+,18+,19+,20+,21+/m1/s1
computed SMILES=O=C(OC1CCC2C3CCC4CCCC(O)C4(C)C3CCC12C)C
accession=JP008150
date=2016.01.19 (Created 2008.10.21, modified 2011.05.06)
author=NARA WOMEN'S UNIVERSITY
license=CC BY-NC-SA
exact mass=334.25079
ionization energy=70 eV
ion type=[M]+*
computed spectral entropy=4.121493207225056
computed normalized entropy=0.8494368301601625
SPLASH=splash10-066r-3794000000-db7b7829abc65815a1af
submitter=submitter = University of Tokyo Team (Faculty of Engineering, University of Tokyo)
MoNA Rating=3.75

>  <NUM PEAKS>  (3008) 
128

>  <MASS SPECTRAL PEAKS>  (3008) 
29 1.77
41 5.25
43 23.49
44 1.1
53 1.78
55 7.9
57 1.89
65 0.91
67 6.46
68 1.34
69 2.82
71 1.36
77 2.95
79 8.05
80 1.97
81 12.47
82 1.82
83 1.81
91 7.23
92 1.75
93 11.03
94 8.34
95 10.05
96 1.34
97 1.79
105 11.05
106 4.28
107 10.99
108 14.57
109 6.14
110 1.33
111 2.27
117 2.32
118 1.79
119 6.9
120 4.57
121 6.69
122 2.69
123 1.79
124 1.11
129 1.21
131 9.28
132 2.81
133 8.31
134 5.65
135 6.13
136 1.35
137 1.14
143 1.28
144 0.99
145 8.91
146 20.92
147 12.95
148 8.63
149 4.34
150 0.92
157 1.33
158 0.91
159 10.05
160 6.02
161 8.29
162 6.15
163 2.79
165 1.01
171 1.4
173 5.48
174 5.77
175 5.99
176 1.78
177 1.07
179 1.08
180 0.96
185 7.31
186 1.85
187 4.12
188 2.37
189 1.81
199 3.24
200 3.11
201 36.22
202 8.74
203 3.17
206 3.47
207 1.09
213 3.24
214 1.79
215 13.46
216 4.16
217 2.94
218 0.96
219 4.52
220 1.43
221 0.98
227 2.83
228 2.52
229 1.3
230 4.3
231 1.62
233 2.8
234 1.24
241 16.58
242 3.5
245 1.37
246 1.69
247 0.89
248 1.59
255 1.89
256 67.58
257 28.01
258 4.74
259 11.97
260 7.73
261 10.42
262 2.78
273 2.15
274 40.27
275 8.97
276 1.18
287 1.31
301 4.89
302 1.11
315 0.81
316 99.99
317 23.85
318 3.25
319 0.89
334 19.14
335 4.53

$$$$

     RDKit          2D

 24 27  0  0  1  0  0  0  0  0999 V2000
    6.0482    5.5621    0.0000 C   0  0  0  0  0  0  0  0  0  0  0  0
    2.3787    3.4316    0.0000 C   0  0  0  0  0  0  0  0  0  0  0  0
   -1.6800    1.1900    0.0000 C   0  0  0  0  0  0  0  0  0  0  0  0
   -4.2800   -1.8100    0.0000 C   0  0  0  0  0  0  0  0  0  0  0  0
   -2.9800   -2.5600    0.0000 C   0  0  0  0  0  0  0  0  0  0  0  0
   -4.2800   -0.3100    0.0000 C   0  0  0  0  0  0  0  0  0  0  0  0
   -0.3800   -2.5600    0.0000 C   0  0  0  0  0  0  0  0  0  0  0  0
    0.9200   -1.8100    0.0000 C   0  0  0  0  0  0  0  0  0  0  0  0
    3.6500   -0.0200    0.0000 C   0  0  0  0  0  0  0  0  0  0  0  0
    4.5300    1.1900    0.0000 C   0  0  0  0  0  0  0  0  0  0  0  0
   -0.3800    1.9400    0.0000 C   0  0  0  0  0  0  0  0  0  0  0  0
    0.9200    2.6900    0.0000 C   0  0  0  0  0  0  0  0  0  0  0  0
    5.5829    4.1361    0.0000 C   0  0  0  0  0  0  0  0  0  0  0  0
   -1.6800   -1.8100    0.0000 C   0  0  0  0  0  0  0  0  0  0  0  0
    0.9200   -0.3100    0.0000 C   0  0  0  0  0  0  0  0  0  0  0  0
    2.2200    0.4400    0.0000 C   0  0  0  0  0  0  0  0  0  0  0  0
   -0.3800    0.4400    0.0000 C   0  0  0  0  0  0  0  0  0  0  0  0
   -2.9800    0.4400    0.0000 C   0  0  0  0  0  0  0  0  0  0  0  0
    3.6500    2.4000    0.0000 C   0  0  0  0  0  0  0  0  0  0  0  0
    2.2200    1.9400    0.0000 C   0  0  0  0  0  0  0  0  0  0  0  0
   -1.6800   -0.3100    0.0000 C   0  0  0  0  0  0  0  0  0  0  0  0
    6.5852    3.0201    0.0000 O   0  0  0  0  0  0  0  0  0  0  0  0
   -2.9800    1.9400    0.0000 O   0  0  0  0  0  0  0  0  0  0  0  0
    4.1153    3.8260    0.0000 O   0  0  0  0  0  0  0  0  0  0  0  0
  5  4  1  0
  6  4  2  0
  8  7  1  0
 10  9  1  0
 12 11  1  0
 13  1  1  0
 14  5  1  1
 14  7  1  0
 15  8  1  6
 16  9  1  1
 16 15  1  0
 17 11  1  1
 17 15  1  0
 18  6  1  0
 19 10  1  0
 20  2  1  1
 20 12  1  0
 20 16  1  0
 20 19  1  0
 21  3  1  1
 21 14  1  0
 21 17  1  0
 21 18  1  0
 22 13  2  0
 18 23  1  1
 24 13  1  0
 19 24  1  1
M  END
>  <NAME>  (3009) 
17BETA-ACETOXY-1BETA-HYDROXY-5ALPHA-ANDROST-2-ENE

>  <SYNONYMS>  (3009) 


>  <SPECTRUM TYPE>  (3009) 
MS1

>  <INSTRUMENT TYPE>  (3009) 
EI-B

>  <INSTRUMENT>  (3009) 
HITACHI M-80

>  <ION MODE>  (3009) 
P

>  <INCHIKEY>  (3009) 
DKRVGISYZLHNHZ-WKBNOSBISA-N

>  <FORMULA>  (3009) 
C21H32O3

>  <EXACT MASS>  (3009) 
332.23514488399996

>  <MW>  (3009) 
332

>  <ID>  (3009) 
JP008149

>  <CONTRIBUTOR>  (3009) 
University of Tokyo Team, {Faculty of Engineering, University of Tokyo

>  <COMMENT>  (3009) 
SMILES=CC(=O)OC(C4)C(C)(C3)C([H])(C4)C([H])(C1)C([H])(C3)C(C)(C(O)2)C([H])(CC=C2)C1
InChI=InChI=1S/C21H32O3/c1-13(22)24-19-10-9-16-15-8-7-14-5-4-6-18(23)21(14,3)17(15)11-12-20(16,19)2/h4,6,14-19,23H,5,7-12H2,1-3H3/t14-,15+,16+,17+,18-,19+,20+,21+/m1/s1
computed SMILES=O=C(OC1CCC2C3CCC4CC=CC(O)C4(C)C3CCC12C)C
accession=JP008149
date=2016.01.19 (Created 2008.10.21, modified 2011.05.06)
author=NARA WOMEN'S UNIVERSITY
license=CC BY-NC-SA
exact mass=332.23514
ionization energy=70 eV
ion type=[M]+*
computed spectral entropy=3.805611697765377
computed normalized entropy=0.8228397985031501
SPLASH=splash10-0udi-4692000000-cc4712b98422a877b493
submitter=submitter = University of Tokyo Team (Faculty of Engineering, University of Tokyo)
MoNA Rating=3.75

>  <NUM PEAKS>  (3009) 
102

>  <MASS SPECTRAL PEAKS>  (3009) 
29 1.13
39 0.92
41 3.68
43 17.32
53 1.18
55 4.61
57 1.11
67 3.86
68 0.83
69 2.34
70 18.34
71 1.51
77 2.26
79 6.02
80 1.45
81 10.03
82 1.06
83 1.1
91 6.77
92 2.3
93 9.93
94 5.08
95 8.42
96 1.13
97 1.26
105 7.85
106 4.1
107 12.44
108 4.15
109 5.81
110 1.31
111 1.28
112 0.81
117 1.8
118 1.36
119 4.13
120 3.05
121 7.85
122 2.74
123 2.07
124 2.69
129 0.93
130 0.81
131 6.44
132 1.63
133 5.56
134 3.04
135 3.25
137 0.93
143 1.07
145 5.61
146 4.94
147 9.06
148 2.57
149 3.21
150 1.5
157 1.18
158 0.81
159 5.4
160 3.26
161 8.38
162 2.02
163 2.93
171 0.83
173 6.4
174 2.92
175 1.96
176 1.06
185 0.89
187 15.69
188 2.78
189 1.11
199 1.89
200 0.92
201 6.59
202 29.83
203 99.99
204 16.37
205 1.7
213 1
219 1.22
220 1.12
221 6.48
222 1.13
239 1.61
254 2.06
255 1.5
257 3.21
259 0.85
260 0.8
261 2.46
262 24.97
263 11.88
264 1.93
272 5.24
273 1.34
314 2.62
315 1.07
330 0.98
332 42.81
333 10
334 1.37

$$$$

     RDKit          2D

 24 27  0  0  1  0  0  0  0  0999 V2000
    6.0482    5.5621    0.0000 C   0  0  0  0  0  0  0  0  0  0  0  0
    2.3787    3.4316    0.0000 C   0  0  0  0  0  0  0  0  0  0  0  0
   -1.6800    1.1900    0.0000 C   0  0  0  0  0  0  0  0  0  0  0  0
   -4.2800   -1.8100    0.0000 C   0  0  0  0  0  0  0  0  0  0  0  0
   -2.9800   -2.5600    0.0000 C   0  0  0  0  0  0  0  0  0  0  0  0
   -4.2800   -0.3100    0.0000 C   0  0  0  0  0  0  0  0  0  0  0  0
   -0.3800   -2.5600    0.0000 C   0  0  0  0  0  0  0  0  0  0  0  0
    0.9200   -1.8100    0.0000 C   0  0  0  0  0  0  0  0  0  0  0  0
    3.6500   -0.0200    0.0000 C   0  0  0  0  0  0  0  0  0  0  0  0
    4.5300    1.1900    0.0000 C   0  0  0  0  0  0  0  0  0  0  0  0
   -0.3800    1.9400    0.0000 C   0  0  0  0  0  0  0  0  0  0  0  0
    0.9200    2.6900    0.0000 C   0  0  0  0  0  0  0  0  0  0  0  0
    5.5829    4.1361    0.0000 C   0  0  0  0  0  0  0  0  0  0  0  0
   -1.6800   -1.8100    0.0000 C   0  0  0  0  0  0  0  0  0  0  0  0
    0.9200   -0.3100    0.0000 C   0  0  0  0  0  0  0  0  0  0  0  0
    2.2200    0.4400    0.0000 C   0  0  0  0  0  0  0  0  0  0  0  0
   -0.3800    0.4400    0.0000 C   0  0  0  0  0  0  0  0  0  0  0  0
   -2.9800    0.4400    0.0000 C   0  0  0  0  0  0  0  0  0  0  0  0
    3.6500    2.4000    0.0000 C   0  0  0  0  0  0  0  0  0  0  0  0
    2.2200    1.9400    0.0000 C   0  0  0  0  0  0  0  0  0  0  0  0
   -1.6800   -0.3100    0.0000 C   0  0  0  0  0  0  0  0  0  0  0  0
    6.5852    3.0201    0.0000 O   0  0  0  0  0  0  0  0  0  0  0  0
   -2.9800    1.9400    0.0000 O   0  0  0  0  0  0  0  0  0  0  0  0
    4.1153    3.8260    0.0000 O   0  0  0  0  0  0  0  0  0  0  0  0
  5  4  1  0
  6  4  2  0
  8  7  1  0
 10  9  1  0
 12 11  1  0
 13  1  1  0
 14  5  1  1
 14  7  1  0
 15  8  1  6
 16  9  1  1
 16 15  1  0
 17 11  1  1
 17 15  1  0
 18  6  1  0
 19 10  1  0
 20  2  1  1
 20 12  1  0
 20 16  1  0
 20 19  1  0
 21  3  1  1
 21 14  1  0
 21 17  1  0
 21 18  1  0
 22 13  2  0
 18 23  1  6
 24 13  1  0
 19 24  1  1
M  END
>  <NAME>  (3010) 
17BETA-ACETOXY-1ALPHA-HYDROXY-5ALPHA-ANDROST-2-ENE

>  <SYNONYMS>  (3010) 


>  <SPECTRUM TYPE>  (3010) 
MS1

>  <INSTRUMENT TYPE>  (3010) 
EI-B

>  <INSTRUMENT>  (3010) 
HITACHI M-80

>  <ION MODE>  (3010) 
P

>  <INCHIKEY>  (3010) 
DKRVGISYZLHNHZ-NDUYDNQLSA-N

>  <FORMULA>  (3010) 
C21H32O3

>  <EXACT MASS>  (3010) 
332.23514488399996

>  <MW>  (3010) 
332

>  <ID>  (3010) 
JP008148

>  <CONTRIBUTOR>  (3010) 
University of Tokyo Team, {Faculty of Engineering, University of Tokyo

>  <COMMENT>  (3010) 
SMILES=CC(=O)OC([H])(C4)C(C)(C3)C([H])(C4)C([H])(C1)C([H])(C3)C(C)(C([H])(O)2)C([H])(CC([H])=C([H])2)C1
InChI=InChI=1S/C21H32O3/c1-13(22)24-19-10-9-16-15-8-7-14-5-4-6-18(23)21(14,3)17(15)11-12-20(16,19)2/h4,6,14-19,23H,5,7-12H2,1-3H3/t14-,15+,16+,17+,18+,19+,20+,21+/m1/s1
computed SMILES=O=C(OC1CCC2C3CCC4CC=CC(O)C4(C)C3CCC12C)C
accession=JP008148
date=2016.01.19 (Created 2008.10.21, modified 2011.05.06)
author=NARA WOMEN'S UNIVERSITY
license=CC BY-NC-SA
exact mass=332.23514
ionization energy=70 eV
ion type=[M]+*
computed spectral entropy=3.580512709632757
computed normalized entropy=0.8170905857351608
SPLASH=splash10-0udi-3491000000-d820588b04c2469b5aa1
submitter=submitter = University of Tokyo Team (Faculty of Engineering, University of Tokyo)
MoNA Rating=3.75

>  <NUM PEAKS>  (3010) 
80

>  <MASS SPECTRAL PEAKS>  (3010) 
29 1.29
39 1.06
41 4.43
43 20.14
53 1.33
55 4.21
57 0.94
67 3.14
69 1.85
70 13.67
71 0.99
77 2.84
79 5.88
80 1.28
81 7.64
91 6.49
92 1.89
93 7.96
94 3.99
95 5.63
105 7.32
106 3.52
107 8.67
108 2.91
109 3.63
117 1.75
118 1.17
119 3.28
120 2.15
121 5.37
122 1.52
123 1.25
124 1.92
131 5.14
132 1.31
133 3.95
134 2.04
135 2.17
143 1.06
145 4.28
146 4.24
147 6.49
148 1.87
149 1.97
150 1
157 1.2
159 4.17
160 2.57
161 5.86
162 1.35
163 1.75
173 4.91
174 2.2
175 1.34
187 11.66
188 2.05
199 1.67
201 5.14
202 30.38
203 99.99
204 16.03
205 1.56
220 1
221 5.12
239 2.12
254 2.78
255 3.35
257 2.22
260 1.21
261 3.79
262 40.11
263 20.53
264 3.26
272 8.76
273 1.94
314 5.81
315 3.19
332 36.15
333 8.53
334 1.19

$$$$

     RDKit          2D

 27 26  0  0  0  0  0  0  0  0999 V2000
    8.4437   14.6250    0.0000 C   0  0  0  0  0  0  0  0  0  0  0  0
  -25.3312   14.6250    0.0000 C   0  0  0  0  0  0  0  0  0  0  0  0
    7.1447   15.3750    0.0000 C   0  0  0  0  0  0  0  0  0  0  0  0
  -24.0322   15.3750    0.0000 C   0  0  0  0  0  0  0  0  0  0  0  0
    5.8457   14.6250    0.0000 C   0  0  0  0  0  0  0  0  0  0  0  0
  -22.7332   14.6250    0.0000 C   0  0  0  0  0  0  0  0  0  0  0  0
    4.5466   15.3750    0.0000 C   0  0  0  0  0  0  0  0  0  0  0  0
  -21.4341   15.3750    0.0000 C   0  0  0  0  0  0  0  0  0  0  0  0
    3.2476   14.6250    0.0000 C   0  0  0  0  0  0  0  0  0  0  0  0
  -20.1351   14.6250    0.0000 C   0  0  0  0  0  0  0  0  0  0  0  0
    1.9486   15.3750    0.0000 C   0  0  0  0  0  0  0  0  0  0  0  0
  -18.8361   15.3750    0.0000 C   0  0  0  0  0  0  0  0  0  0  0  0
    0.6495   14.6250    0.0000 C   0  0  0  0  0  0  0  0  0  0  0  0
  -17.5370   14.6250    0.0000 C   0  0  0  0  0  0  0  0  0  0  0  0
   -0.6495   15.3750    0.0000 C   0  0  0  0  0  0  0  0  0  0  0  0
  -16.2380   15.3750    0.0000 C   0  0  0  0  0  0  0  0  0  0  0  0
   -1.9486   14.6250    0.0000 C   0  0  0  0  0  0  0  0  0  0  0  0
  -14.9389   14.6250    0.0000 C   0  0  0  0  0  0  0  0  0  0  0  0
   -3.2476   15.3750    0.0000 C   0  0  0  0  0  0  0  0  0  0  0  0
  -13.6399   15.3750    0.0000 C   0  0  0  0  0  0  0  0  0  0  0  0
   -4.5466   14.6250    0.0000 C   0  0  0  0  0  0  0  0  0  0  0  0
  -12.3409   14.6250    0.0000 C   0  0  0  0  0  0  0  0  0  0  0  0
   -5.8457   15.3750    0.0000 C   0  0  0  0  0  0  0  0  0  0  0  0
  -11.0418   15.3750    0.0000 C   0  0  0  0  0  0  0  0  0  0  0  0
   -7.1447   14.6250    0.0000 C   0  0  0  0  0  0  0  0  0  0  0  0
   -9.7428   14.6250    0.0000 C   0  0  0  0  0  0  0  0  0  0  0  0
   -8.4437   15.3750    0.0000 C   0  0  0  0  0  0  0  0  0  0  0  0
  3  1  1  0
  4  2  1  0
  5  3  1  0
  6  4  1  0
  7  5  1  0
  8  6  1  0
  9  7  1  0
 10  8  1  0
 11  9  1  0
 12 10  1  0
 13 11  1  0
 14 12  1  0
 15 13  1  0
 16 14  1  0
 17 15  1  0
 18 16  1  0
 19 17  1  0
 20 18  1  0
 21 19  1  0
 22 20  1  0
 23 21  1  0
 24 22  1  0
 25 23  1  0
 26 24  1  0
 27 25  1  0
 27 26  1  0
M  END
>  <NAME>  (3011) 
HEPTACOSANE

>  <SYNONYMS>  (3011) 


>  <SPECTRUM TYPE>  (3011) 
MS1

>  <INSTRUMENT TYPE>  (3011) 
EI-B

>  <INSTRUMENT>  (3011) 
HITACHI M-80B

>  <ION MODE>  (3011) 
P

>  <INCHIKEY>  (3011) 
BJQWYEJQWHSSCJ-UHFFFAOYSA-N

>  <FORMULA>  (3011) 
C27H56

>  <EXACT MASS>  (3011) 
380.438201792

>  <MW>  (3011) 
380

>  <ID>  (3011) 
JP008147

>  <CONTRIBUTOR>  (3011) 
University of Tokyo Team, {Faculty of Engineering, University of Tokyo

>  <COMMENT>  (3011) 
SMILES=CCCCCCCCCCCCCCCCCCCCCCCCCCC
InChI=InChI=1S/C27H56/c1-3-5-7-9-11-13-15-17-19-21-23-25-27-26-24-22-20-18-16-14-12-10-8-6-4-2/h3-27H2,1-2H3
computed SMILES=CCCCCCCCCCCCCCCCCCCCCCCCCCC
accession=JP008147
date=2016.01.19 (Created 2008.10.21, modified 2011.05.06)
author=YAMAOKA R, KYOTO INSTITUTE OF TECHNOLOGY
license=CC BY-NC-SA
exact mass=380.4382
ionization energy=70 eV
ion type=[M]+*
computed spectral entropy=3.1634095337053525
computed normalized entropy=0.7930363964303161
SPLASH=splash10-0a4l-9100000000-02c358247c7c4db70fd3
submitter=submitter = University of Tokyo Team (Faculty of Engineering, University of Tokyo)
MoNA Rating=3.75

>  <NUM PEAKS>  (3011) 
54

>  <MASS SPECTRAL PEAKS>  (3011) 
41 20
42 8.52
43 69.12
55 27.55
56 18.8
57 99.99
58 5.08
67 1.54
68 4.14
69 16.39
70 13.65
71 69.81
72 3.56
81 2.27
82 3.96
83 17.57
84 10.64
85 57.71
86 3.21
95 2.35
97 16.16
98 3.75
99 15.17
111 5.6
112 4.23
113 11.2
125 2.56
126 3.63
127 7.16
139 2.04
140 3.41
141 7.08
154 3.4
155 6.98
168 2.39
169 3.37
182 2.62
183 5.77
196 1.66
197 5.85
207 2.84
210 2.26
211 2.7
225 6.11
239 2.58
253 2.73
266 1.09
267 1.42
280 1.09
294 1.35
295 1.54
309 1.68
323 1.38
380 4.63

$$$$

     RDKit          2D

 25 24  0  0  0  0  0  0  0  0999 V2000
  -14.6142    3.9375    0.0000 C   0  0  0  0  0  0  0  0  0  0  0  0
    3.5724   -5.0625    0.0000 C   0  0  0  0  0  0  0  0  0  0  0  0
  -15.9132    3.1875    0.0000 C   0  0  0  0  0  0  0  0  0  0  0  0
    2.2733   -5.8125    0.0000 C   0  0  0  0  0  0  0  0  0  0  0  0
  -15.9132    1.6875    0.0000 C   0  0  0  0  0  0  0  0  0  0  0  0
    0.9743   -5.0625    0.0000 C   0  0  0  0  0  0  0  0  0  0  0  0
  -17.2123    0.9375    0.0000 C   0  0  0  0  0  0  0  0  0  0  0  0
   -0.3248   -5.8125    0.0000 C   0  0  0  0  0  0  0  0  0  0  0  0
  -17.2123   -0.5625    0.0000 C   0  0  0  0  0  0  0  0  0  0  0  0
   -1.6238   -5.0625    0.0000 C   0  0  0  0  0  0  0  0  0  0  0  0
  -18.5113   -1.3125    0.0000 C   0  0  0  0  0  0  0  0  0  0  0  0
   -2.9228   -5.8125    0.0000 C   0  0  0  0  0  0  0  0  0  0  0  0
  -18.5113   -2.8125    0.0000 C   0  0  0  0  0  0  0  0  0  0  0  0
   -4.2219   -5.0625    0.0000 C   0  0  0  0  0  0  0  0  0  0  0  0
  -17.2123   -3.5625    0.0000 C   0  0  0  0  0  0  0  0  0  0  0  0
   -5.5209   -5.8125    0.0000 C   0  0  0  0  0  0  0  0  0  0  0  0
  -17.2123   -5.0625    0.0000 C   0  0  0  0  0  0  0  0  0  0  0  0
   -6.8200   -5.0625    0.0000 C   0  0  0  0  0  0  0  0  0  0  0  0
  -15.9132   -5.8125    0.0000 C   0  0  0  0  0  0  0  0  0  0  0  0
   -8.1190   -5.8125    0.0000 C   0  0  0  0  0  0  0  0  0  0  0  0
  -14.6142   -5.0625    0.0000 C   0  0  0  0  0  0  0  0  0  0  0  0
   -9.4180   -5.0625    0.0000 C   0  0  0  0  0  0  0  0  0  0  0  0
  -13.3151   -5.8125    0.0000 C   0  0  0  0  0  0  0  0  0  0  0  0
  -10.7171   -5.8125    0.0000 C   0  0  0  0  0  0  0  0  0  0  0  0
  -12.0161   -5.0625    0.0000 C   0  0  0  0  0  0  0  0  0  0  0  0
  3  1  1  0
  4  2  1  0
  5  3  1  0
  6  4  1  0
  7  5  1  0
  8  6  1  0
  9  7  1  0
 10  8  1  0
 11  9  1  0
 12 10  1  0
 11 13  2  0
 14 12  1  0
 15 13  1  0
 16 14  1  0
 17 15  1  0
 18 16  1  0
 17 19  2  0
 20 18  1  0
 21 19  1  0
 22 20  1  0
 23 21  1  0
 24 22  1  0
 25 23  1  0
 25 24  1  0
M  END
>  <NAME>  (3012) 
(6Z,9Z)-6,9-PENTACOSADIENE

>  <SYNONYMS>  (3012) 


>  <SPECTRUM TYPE>  (3012) 
MS1

>  <INSTRUMENT TYPE>  (3012) 
EI-B

>  <INSTRUMENT>  (3012) 
HITACHI M-80B

>  <ION MODE>  (3012) 
P

>  <INCHIKEY>  (3012) 
HEDSUJXTHUJEDT-OHNCOSGTSA-N

>  <FORMULA>  (3012) 
C25H48

>  <EXACT MASS>  (3012) 
348.375601536

>  <MW>  (3012) 
348

>  <ID>  (3012) 
JP008146

>  <CONTRIBUTOR>  (3012) 
University of Tokyo Team, {Faculty of Engineering, University of Tokyo

>  <COMMENT>  (3012) 
SMILES=CCCCCCCCCCCCCCCC([H])=C([H])CC([H])=C([H])CCCCC
InChI=InChI=1S/C25H48/c1-3-5-7-9-11-13-15-17-19-21-23-25-24-22-20-18-16-14-12-10-8-6-4-2/h11,13,17,19H,3-10,12,14-16,18,20-25H2,1-2H3/b13-11-,19-17-
computed SMILES=C(=CCCCCC)CC=CCCCCCCCCCCCCCCC
accession=JP008146
date=2016.01.19 (Created 2008.10.21, modified 2011.05.06)
author=YAMAOKA R, KYOTO INSTITUTE OF TECHNOLOGY
license=CC BY-NC-SA
exact mass=348.3756
ionization energy=70 eV
ion type=[M]+*
computed spectral entropy=3.501643315734272
computed normalized entropy=0.8327941261593272
SPLASH=splash10-00lu-9100000000-5c478290be64fe507b59
submitter=submitter = University of Tokyo Team (Faculty of Engineering, University of Tokyo)
MoNA Rating=3.75

>  <NUM PEAKS>  (3012) 
67

>  <MASS SPECTRAL PEAKS>  (3012) 
41 89.37
42 3.13
43 94.88
44 6.13
53 2.33
54 57.65
55 99.99
56 16.72
57 54.16
58 3.8
60 1.57
65 3.41
66 8.07
67 92.34
68 55.17
69 63.63
70 9.25
71 24.12
72 2.86
75 1.95
77 5.53
78 3.59
79 32.17
80 9
81 64.07
82 84.01
83 61.68
84 10.14
85 9.61
91 6.02
92 2.24
93 11.49
95 57.24
96 84.95
97 45.56
98 10.35
99 2.94
107 1.74
108 5.96
109 26.29
110 62.28
111 18.46
113 1.41
121 2.23
123 16.42
124 24.65
125 16.61
126 2.46
131 2.55
137 6.63
138 13.51
151 1.99
153 4.6
166 2.88
181 2.87
193 2
207 3.06
208 1.68
236 3.64
250 3.37
281 7.68
283 1.52
290 1.71
346 1.88
348 21.66
349 5.35
350 4.7

$$$$

     RDKit          2D

 23 22  0  0  0  0  0  0  0  0999 V2000
    7.1447   12.3750    0.0000 C   0  0  0  0  0  0  0  0  0  0  0  0
  -21.4341   12.3750    0.0000 C   0  0  0  0  0  0  0  0  0  0  0  0
    5.8457   13.1250    0.0000 C   0  0  0  0  0  0  0  0  0  0  0  0
  -20.1351   13.1250    0.0000 C   0  0  0  0  0  0  0  0  0  0  0  0
    4.5466   12.3750    0.0000 C   0  0  0  0  0  0  0  0  0  0  0  0
  -18.8361   12.3750    0.0000 C   0  0  0  0  0  0  0  0  0  0  0  0
    3.2476   13.1250    0.0000 C   0  0  0  0  0  0  0  0  0  0  0  0
  -17.5370   13.1250    0.0000 C   0  0  0  0  0  0  0  0  0  0  0  0
    1.9486   12.3750    0.0000 C   0  0  0  0  0  0  0  0  0  0  0  0
  -16.2380   12.3750    0.0000 C   0  0  0  0  0  0  0  0  0  0  0  0
    0.6495   13.1250    0.0000 C   0  0  0  0  0  0  0  0  0  0  0  0
  -14.9389   13.1250    0.0000 C   0  0  0  0  0  0  0  0  0  0  0  0
   -0.6495   12.3750    0.0000 C   0  0  0  0  0  0  0  0  0  0  0  0
  -13.6399   12.3750    0.0000 C   0  0  0  0  0  0  0  0  0  0  0  0
   -1.9486   13.1250    0.0000 C   0  0  0  0  0  0  0  0  0  0  0  0
  -12.3409   13.1250    0.0000 C   0  0  0  0  0  0  0  0  0  0  0  0
   -3.2476   12.3750    0.0000 C   0  0  0  0  0  0  0  0  0  0  0  0
  -11.0418   12.3750    0.0000 C   0  0  0  0  0  0  0  0  0  0  0  0
   -4.5466   13.1250    0.0000 C   0  0  0  0  0  0  0  0  0  0  0  0
   -9.7428   13.1250    0.0000 C   0  0  0  0  0  0  0  0  0  0  0  0
   -5.8457   12.3750    0.0000 C   0  0  0  0  0  0  0  0  0  0  0  0
   -8.4437   12.3750    0.0000 C   0  0  0  0  0  0  0  0  0  0  0  0
   -7.1447   13.1250    0.0000 C   0  0  0  0  0  0  0  0  0  0  0  0
  3  1  1  0
  4  2  1  0
  5  3  1  0
  6  4  1  0
  7  5  1  0
  8  6  1  0
  9  7  1  0
 10  8  1  0
 11  9  1  0
 12 10  1  0
 13 11  1  0
 14 12  1  0
 15 13  1  0
 16 14  1  0
 17 15  1  0
 18 16  1  0
 19 17  1  0
 20 18  1  0
 21 19  1  0
 22 20  1  0
 23 21  1  0
 23 22  1  0
M  END
>  <NAME>  (3013) 
TRICOSANE

>  <SYNONYMS>  (3013) 


>  <SPECTRUM TYPE>  (3013) 
MS1

>  <INSTRUMENT TYPE>  (3013) 
EI-B

>  <INSTRUMENT>  (3013) 
HITACHI M-80B

>  <ION MODE>  (3013) 
P

>  <INCHIKEY>  (3013) 
FIGVVZUWCLSUEI-UHFFFAOYSA-N

>  <FORMULA>  (3013) 
C23H48

>  <EXACT MASS>  (3013) 
324.375601536

>  <MW>  (3013) 
324

>  <ID>  (3013) 
JP008145

>  <CONTRIBUTOR>  (3013) 
University of Tokyo Team, {Faculty of Engineering, University of Tokyo

>  <COMMENT>  (3013) 
SMILES=CCCCCCCCCCCCCCCCCCCCCCC
InChI=InChI=1S/C23H48/c1-3-5-7-9-11-13-15-17-19-21-23-22-20-18-16-14-12-10-8-6-4-2/h3-23H2,1-2H3
computed SMILES=CCCCCCCCCCCCCCCCCCCCCCC
accession=JP008145
date=2016.01.19 (Created 2008.10.21, modified 2011.05.06)
author=YAMAOKA R, KYOTO INSTITUTE OF TECHNOLOGY
license=CC BY-NC-SA
exact mass=324.3756
ionization energy=70 eV
ion type=[M]+*
computed spectral entropy=2.5677434553175975
computed normalized entropy=0.7281568170336447
SPLASH=splash10-052f-9000000000-57d59760fb19a88b8aae
submitter=submitter = University of Tokyo Team (Faculty of Engineering, University of Tokyo)
MoNA Rating=3.75

>  <NUM PEAKS>  (3013) 
34

>  <MASS SPECTRAL PEAKS>  (3013) 
41 38.68
42 19.82
43 84.79
45 1.2
56 19.63
57 99.99
58 8.64
68 3.11
70 8.56
71 70.71
72 3.63
82 2.16
83 1.17
84 6.83
85 46.96
86 2.48
99 11.83
112 1.61
113 9.27
127 5.05
131 1.8
135 1.61
140 2.69
141 4.22
155 3.2
168 2.13
183 3.25
197 1.84
207 5.01
211 1.65
224 1.62
225 1.15
253 1.38
324 2.91

$$$$

     RDKit          2D

 23 22  0  0  0  0  0  0  0  0999 V2000
   -2.9228   -7.3125    0.0000 C   0  0  0  0  0  0  0  0  0  0  0  0
  -18.5113    1.6875    0.0000 C   0  0  0  0  0  0  0  0  0  0  0  0
   -1.6238   -6.5625    0.0000 C   0  0  0  0  0  0  0  0  0  0  0  0
  -17.2123    2.4375    0.0000 C   0  0  0  0  0  0  0  0  0  0  0  0
   -1.6238   -5.0625    0.0000 C   0  0  0  0  0  0  0  0  0  0  0  0
  -15.9132    1.6875    0.0000 C   0  0  0  0  0  0  0  0  0  0  0  0
   -0.3248   -4.3125    0.0000 C   0  0  0  0  0  0  0  0  0  0  0  0
  -14.6142    2.4375    0.0000 C   0  0  0  0  0  0  0  0  0  0  0  0
   -0.3248   -2.8125    0.0000 C   0  0  0  0  0  0  0  0  0  0  0  0
  -13.3151    1.6875    0.0000 C   0  0  0  0  0  0  0  0  0  0  0  0
    0.9743   -2.0625    0.0000 C   0  0  0  0  0  0  0  0  0  0  0  0
  -12.0161    2.4375    0.0000 C   0  0  0  0  0  0  0  0  0  0  0  0
    0.9743   -0.5625    0.0000 C   0  0  0  0  0  0  0  0  0  0  0  0
  -10.7171    1.6875    0.0000 C   0  0  0  0  0  0  0  0  0  0  0  0
   -0.3248    0.1875    0.0000 C   0  0  0  0  0  0  0  0  0  0  0  0
   -9.4180    2.4375    0.0000 C   0  0  0  0  0  0  0  0  0  0  0  0
   -0.3248    1.6875    0.0000 C   0  0  0  0  0  0  0  0  0  0  0  0
   -8.1190    1.6875    0.0000 C   0  0  0  0  0  0  0  0  0  0  0  0
   -1.6238    2.4375    0.0000 C   0  0  0  0  0  0  0  0  0  0  0  0
   -6.8200    2.4375    0.0000 C   0  0  0  0  0  0  0  0  0  0  0  0
   -2.9228    1.6875    0.0000 C   0  0  0  0  0  0  0  0  0  0  0  0
   -5.5209    1.6875    0.0000 C   0  0  0  0  0  0  0  0  0  0  0  0
   -4.2219    2.4375    0.0000 C   0  0  0  0  0  0  0  0  0  0  0  0
  3  1  1  0
  4  2  1  0
  5  3  1  0
  6  4  1  0
  7  5  1  0
  8  6  1  0
  9  7  1  0
 10  8  1  0
 11  9  1  0
 12 10  1  0
 11 13  2  0
 14 12  1  0
 15 13  1  0
 16 14  1  0
 17 15  1  0
 18 16  1  0
 17 19  2  0
 20 18  1  0
 21 19  1  0
 22 20  1  0
 23 21  1  0
 23 22  1  0
M  END
>  <NAME>  (3014) 
(6Z,9Z)-6,9-TRICOSADIENE

>  <SYNONYMS>  (3014) 


>  <SPECTRUM TYPE>  (3014) 
MS1

>  <INSTRUMENT TYPE>  (3014) 
EI-B

>  <INSTRUMENT>  (3014) 
HITACHI M-80B

>  <ION MODE>  (3014) 
P

>  <INCHIKEY>  (3014) 
QVTSRBNFHQATMF-OHNCOSGTSA-N

>  <FORMULA>  (3014) 
C23H44

>  <EXACT MASS>  (3014) 
320.344301408

>  <MW>  (3014) 
320

>  <ID>  (3014) 
JP008144

>  <CONTRIBUTOR>  (3014) 
University of Tokyo Team, {Faculty of Engineering, University of Tokyo

>  <COMMENT>  (3014) 
SMILES=CCCCCCCCCCCCCC([H])=C([H])CC([H])=C([H])CCCCC
InChI=InChI=1S/C23H44/c1-3-5-7-9-11-13-15-17-19-21-23-22-20-18-16-14-12-10-8-6-4-2/h11,13,17,19H,3-10,12,14-16,18,20-23H2,1-2H3/b13-11-,19-17-
computed SMILES=C(=CCCCCC)CC=CCCCCCCCCCCCCC
accession=JP008144
date=2016.01.19 (Created 2008.10.21, modified 2011.05.06)
author=YAMAOKA R, KYOTO INSTITUTE OF TECHNOLOGY
license=CC BY-NC-SA
exact mass=320.3443
ionization energy=70 eV
ion type=[M]+*
computed spectral entropy=3.438586569035858
computed normalized entropy=0.826805298469238
SPLASH=splash10-00lv-9100000000-0bf407290f48e729789a
submitter=submitter = University of Tokyo Team (Faculty of Engineering, University of Tokyo)
MoNA Rating=3.75

>  <NUM PEAKS>  (3014) 
64

>  <MASS SPECTRAL PEAKS>  (3014) 
41 54.14
42 7.68
43 55.77
51 1.47
53 9.23
54 55.89
55 73.83
56 7.96
57 34.82
58 1.88
65 2.61
66 5.37
67 99.99
68 49.47
69 28.21
70 5.28
71 7.84
77 11.23
78 2.76
79 29.75
80 25.08
81 87.57
82 83.24
83 33.11
84 3.94
85 5.59
91 7.65
92 1.29
93 5.94
94 4.47
95 63.39
96 80.67
97 32.08
98 2.74
99 1.09
105 1.03
107 1.5
108 1.04
109 33.67
110 57.42
111 10.92
121 1.33
122 1.11
123 18.56
124 20.72
125 6.01
126 1.2
137 9.74
138 18.52
139 2.3
151 5.18
152 4.35
165 1.28
166 5.9
169 1.26
179 1.7
180 3.6
194 3.13
208 1.57
222 3.83
223 1.31
250 1.04
320 16.86
321 4.56

$$$$

     RDKit          2D

 27 26  0  0  0  0  0  0  0  0999 V2000
  -12.3409    7.8750    0.0000 C   0  0  0  0  0  0  0  0  0  0  0  0
   16.2380   16.8750    0.0000 C   0  0  0  0  0  0  0  0  0  0  0  0
  -11.0418    8.6250    0.0000 C   0  0  0  0  0  0  0  0  0  0  0  0
   14.9389   17.6250    0.0000 C   0  0  0  0  0  0  0  0  0  0  0  0
  -11.0418   10.1250    0.0000 C   0  0  0  0  0  0  0  0  0  0  0  0
   13.6399   16.8750    0.0000 C   0  0  0  0  0  0  0  0  0  0  0  0
   -9.7428   10.8750    0.0000 C   0  0  0  0  0  0  0  0  0  0  0  0
   12.3409   17.6250    0.0000 C   0  0  0  0  0  0  0  0  0  0  0  0
   -9.7428   12.3750    0.0000 C   0  0  0  0  0  0  0  0  0  0  0  0
   11.0418   16.8750    0.0000 C   0  0  0  0  0  0  0  0  0  0  0  0
   -8.4437   13.1250    0.0000 C   0  0  0  0  0  0  0  0  0  0  0  0
    9.7428   17.6250    0.0000 C   0  0  0  0  0  0  0  0  0  0  0  0
   -8.4437   14.6250    0.0000 C   0  0  0  0  0  0  0  0  0  0  0  0
    8.4437   16.8750    0.0000 C   0  0  0  0  0  0  0  0  0  0  0  0
   -7.1447   15.3750    0.0000 C   0  0  0  0  0  0  0  0  0  0  0  0
    7.1447   17.6250    0.0000 C   0  0  0  0  0  0  0  0  0  0  0  0
   -7.1447   16.8750    0.0000 C   0  0  0  0  0  0  0  0  0  0  0  0
    5.8457   16.8750    0.0000 C   0  0  0  0  0  0  0  0  0  0  0  0
   -5.8457   17.6250    0.0000 C   0  0  0  0  0  0  0  0  0  0  0  0
    4.5466   17.6250    0.0000 C   0  0  0  0  0  0  0  0  0  0  0  0
   -4.5466   16.8750    0.0000 C   0  0  0  0  0  0  0  0  0  0  0  0
    3.2476   16.8750    0.0000 C   0  0  0  0  0  0  0  0  0  0  0  0
   -3.2476   17.6250    0.0000 C   0  0  0  0  0  0  0  0  0  0  0  0
    1.9486   17.6250    0.0000 C   0  0  0  0  0  0  0  0  0  0  0  0
   -1.9486   16.8750    0.0000 C   0  0  0  0  0  0  0  0  0  0  0  0
    0.6495   16.8750    0.0000 C   0  0  0  0  0  0  0  0  0  0  0  0
   -0.6495   17.6250    0.0000 C   0  0  0  0  0  0  0  0  0  0  0  0
  3  1  1  0
  4  2  1  0
  5  3  1  0
  6  4  1  0
  7  5  1  0
  8  6  1  0
  9  7  1  0
 10  8  1  0
 11  9  1  0
 12 10  1  0
 13 11  1  0
 14 12  1  0
 15 13  1  0
 16 14  1  0
 17 15  1  0
 18 16  1  0
 17 19  2  0
 20 18  1  0
 21 19  1  0
 22 20  1  0
 23 21  1  0
 24 22  1  0
 25 23  1  0
 26 24  1  0
 27 25  1  0
 27 26  1  0
M  END
>  <NAME>  (3015) 
(Z)-9-HEPTACOSENE

>  <SYNONYMS>  (3015) 


>  <SPECTRUM TYPE>  (3015) 
MS1

>  <INSTRUMENT TYPE>  (3015) 
EI-B

>  <INSTRUMENT>  (3015) 
HITACHI M-80B

>  <ION MODE>  (3015) 
P

>  <INCHIKEY>  (3015) 
WWHBGRQNRIORRZ-ZPHPHTNESA-N

>  <FORMULA>  (3015) 
C27H54

>  <EXACT MASS>  (3015) 
378.422551728

>  <MW>  (3015) 
378

>  <ID>  (3015) 
JP008143

>  <CONTRIBUTOR>  (3015) 
University of Tokyo Team, {Faculty of Engineering, University of Tokyo

>  <COMMENT>  (3015) 
SMILES=CCCCCCCCCCCCCCCCCC([H])=C([H])CCCCCCCC
InChI=InChI=1S/C27H54/c1-3-5-7-9-11-13-15-17-19-21-23-25-27-26-24-22-20-18-16-14-12-10-8-6-4-2/h17,19H,3-16,18,20-27H2,1-2H3/b19-17-
computed SMILES=C(=CCCCCCCCCCCCCCCCCC)CCCCCCCC
accession=JP008143
date=2016.01.19 (Created 2008.10.21, modified 2011.05.06)
author=YAMAOKA R, KYOTO INSTITUTE OF TECHNOLOGY
license=CC BY-NC-SA
exact mass=378.42255
ionization energy=70 eV
ion type=[M]+*
computed spectral entropy=3.360090154193623
computed normalized entropy=0.8141460492222163
SPLASH=splash10-0a4l-9100000000-a1a648eb44f13c880399
submitter=submitter = University of Tokyo Team (Faculty of Engineering, University of Tokyo)
MoNA Rating=3.75

>  <NUM PEAKS>  (3015) 
62

>  <MASS SPECTRAL PEAKS>  (3015) 
41 44.74
42 11.04
43 99.99
53 3.82
54 18.31
55 77.13
56 35.78
57 95.83
58 5.81
65 1.23
66 2.84
67 20.72
68 14.86
69 66.63
70 34.55
71 47.64
72 2.82
79 3.38
80 1.77
81 13.19
82 25.64
83 87.49
84 26.6
85 30.3
86 1.54
93 1.38
95 9.13
96 18.33
97 76.95
98 16.44
99 9.66
109 3.69
110 6.67
111 40.06
112 13.76
113 5.66
123 2.65
124 5.49
125 17.78
126 6.35
127 2.96
137 1.51
138 3.35
139 6.76
140 6.2
141 2.36
152 1.6
153 4.48
154 3.24
166 1.71
167 4.19
168 2.48
180 1.38
181 1.76
182 1.73
195 1.44
196 1.37
210 1.08
223 1.23
224 1.04
378 6.48
379 2.32

$$$$

     RDKit          2D

 25 24  0  0  0  0  0  0  0  0999 V2000
    7.7942   13.5000    0.0000 C   0  0  0  0  0  0  0  0  0  0  0  0
  -23.3827   13.5000    0.0000 C   0  0  0  0  0  0  0  0  0  0  0  0
    6.4952   14.2500    0.0000 C   0  0  0  0  0  0  0  0  0  0  0  0
  -22.0836   14.2500    0.0000 C   0  0  0  0  0  0  0  0  0  0  0  0
    5.1962   13.5000    0.0000 C   0  0  0  0  0  0  0  0  0  0  0  0
  -20.7846   13.5000    0.0000 C   0  0  0  0  0  0  0  0  0  0  0  0
    3.8971   14.2500    0.0000 C   0  0  0  0  0  0  0  0  0  0  0  0
  -19.4856   14.2500    0.0000 C   0  0  0  0  0  0  0  0  0  0  0  0
    2.5981   13.5000    0.0000 C   0  0  0  0  0  0  0  0  0  0  0  0
  -18.1865   13.5000    0.0000 C   0  0  0  0  0  0  0  0  0  0  0  0
    1.2990   14.2500    0.0000 C   0  0  0  0  0  0  0  0  0  0  0  0
  -16.8875   14.2500    0.0000 C   0  0  0  0  0  0  0  0  0  0  0  0
    0.0000   13.5000    0.0000 C   0  0  0  0  0  0  0  0  0  0  0  0
  -15.5885   13.5000    0.0000 C   0  0  0  0  0  0  0  0  0  0  0  0
   -1.2990   14.2500    0.0000 C   0  0  0  0  0  0  0  0  0  0  0  0
  -14.2894   14.2500    0.0000 C   0  0  0  0  0  0  0  0  0  0  0  0
   -2.5981   13.5000    0.0000 C   0  0  0  0  0  0  0  0  0  0  0  0
  -12.9904   13.5000    0.0000 C   0  0  0  0  0  0  0  0  0  0  0  0
   -3.8971   14.2500    0.0000 C   0  0  0  0  0  0  0  0  0  0  0  0
  -11.6913   14.2500    0.0000 C   0  0  0  0  0  0  0  0  0  0  0  0
   -5.1962   13.5000    0.0000 C   0  0  0  0  0  0  0  0  0  0  0  0
  -10.3923   13.5000    0.0000 C   0  0  0  0  0  0  0  0  0  0  0  0
   -6.4952   14.2500    0.0000 C   0  0  0  0  0  0  0  0  0  0  0  0
   -9.0933   14.2500    0.0000 C   0  0  0  0  0  0  0  0  0  0  0  0
   -7.7942   13.5000    0.0000 C   0  0  0  0  0  0  0  0  0  0  0  0
  3  1  1  0
  4  2  1  0
  5  3  1  0
  6  4  1  0
  7  5  1  0
  8  6  1  0
  9  7  1  0
 10  8  1  0
 11  9  1  0
 12 10  1  0
 13 11  1  0
 14 12  1  0
 15 13  1  0
 16 14  1  0
 17 15  1  0
 18 16  1  0
 19 17  1  0
 20 18  1  0
 21 19  1  0
 22 20  1  0
 23 21  1  0
 24 22  1  0
 25 23  1  0
 25 24  1  0
M  END
>  <NAME>  (3016) 
PENTACOSANE

>  <SYNONYMS>  (3016) 


>  <SPECTRUM TYPE>  (3016) 
MS1

>  <INSTRUMENT TYPE>  (3016) 
EI-B

>  <INSTRUMENT>  (3016) 
HITACHI M-80B

>  <ION MODE>  (3016) 
P

>  <INCHIKEY>  (3016) 
YKNWIILGEFFOPE-UHFFFAOYSA-N

>  <FORMULA>  (3016) 
C25H52

>  <EXACT MASS>  (3016) 
352.406901664

>  <MW>  (3016) 
352

>  <ID>  (3016) 
JP008142

>  <CONTRIBUTOR>  (3016) 
University of Tokyo Team, {Faculty of Engineering, University of Tokyo

>  <COMMENT>  (3016) 
SMILES=CCCCCCCCCCCCCCCCCCCCCCCCC
InChI=InChI=1S/C25H52/c1-3-5-7-9-11-13-15-17-19-21-23-25-24-22-20-18-16-14-12-10-8-6-4-2/h3-25H2,1-2H3
computed SMILES=CCCCCCCCCCCCCCCCCCCCCCCCC
accession=JP008142
date=2016.01.19 (Created 2008.10.21, modified 2011.05.06)
author=YAMAOKA R, KYOTO INSTITUTE OF TECHNOLOGY
license=CC BY-NC-SA
exact mass=352.4069
ionization energy=70 eV
ion type=[M]+*
computed spectral entropy=2.9692513484781142
computed normalized entropy=0.7629466730310249
SPLASH=splash10-0abc-9100000000-dcb78fdbddcdb21348c1
submitter=submitter = University of Tokyo Team (Faculty of Engineering, University of Tokyo)
MoNA Rating=3.75

>  <NUM PEAKS>  (3016) 
49

>  <MASS SPECTRAL PEAKS>  (3016) 
41 26.73
42 6.13
43 72.43
53 1.37
54 1.82
55 22.44
56 12.33
57 99.99
58 5.62
67 1.38
68 3.21
69 15.34
70 12.17
71 77.74
72 4.71
81 1.82
82 4.67
83 12.65
84 7.9
85 48.88
86 3.12
96 1.18
97 8.99
98 6.34
99 14.53
111 3.84
112 4.26
113 10.2
125 1.99
126 3.91
127 7.07
140 2.14
141 5.23
154 1.97
155 4.27
168 1.39
169 3.15
182 1.61
183 3.45
196 2.05
197 2.08
210 1.36
211 2.23
225 2.09
239 1.75
253 1.22
267 1.17
295 1.31
352 2.16

$$$$

     RDKit          2D

 29 28  0  0  0  0  0  0  0  0999 V2000
    9.0933   15.7500    0.0000 C   0  0  0  0  0  0  0  0  0  0  0  0
  -27.2798   15.7500    0.0000 C   0  0  0  0  0  0  0  0  0  0  0  0
    7.7942   16.5000    0.0000 C   0  0  0  0  0  0  0  0  0  0  0  0
  -25.9808   16.5000    0.0000 C   0  0  0  0  0  0  0  0  0  0  0  0
    6.4952   15.7500    0.0000 C   0  0  0  0  0  0  0  0  0  0  0  0
  -24.6817   15.7500    0.0000 C   0  0  0  0  0  0  0  0  0  0  0  0
    5.1962   16.5000    0.0000 C   0  0  0  0  0  0  0  0  0  0  0  0
  -23.3827   16.5000    0.0000 C   0  0  0  0  0  0  0  0  0  0  0  0
    3.8971   15.7500    0.0000 C   0  0  0  0  0  0  0  0  0  0  0  0
  -22.0836   15.7500    0.0000 C   0  0  0  0  0  0  0  0  0  0  0  0
    2.5981   16.5000    0.0000 C   0  0  0  0  0  0  0  0  0  0  0  0
  -20.7846   16.5000    0.0000 C   0  0  0  0  0  0  0  0  0  0  0  0
    1.2990   15.7500    0.0000 C   0  0  0  0  0  0  0  0  0  0  0  0
  -19.4856   15.7500    0.0000 C   0  0  0  0  0  0  0  0  0  0  0  0
    0.0000   16.5000    0.0000 C   0  0  0  0  0  0  0  0  0  0  0  0
  -18.1865   16.5000    0.0000 C   0  0  0  0  0  0  0  0  0  0  0  0
   -1.2990   15.7500    0.0000 C   0  0  0  0  0  0  0  0  0  0  0  0
  -16.8875   15.7500    0.0000 C   0  0  0  0  0  0  0  0  0  0  0  0
   -2.5981   16.5000    0.0000 C   0  0  0  0  0  0  0  0  0  0  0  0
  -15.5885   16.5000    0.0000 C   0  0  0  0  0  0  0  0  0  0  0  0
   -3.8971   15.7500    0.0000 C   0  0  0  0  0  0  0  0  0  0  0  0
  -14.2894   15.7500    0.0000 C   0  0  0  0  0  0  0  0  0  0  0  0
   -5.1962   16.5000    0.0000 C   0  0  0  0  0  0  0  0  0  0  0  0
  -12.9904   16.5000    0.0000 C   0  0  0  0  0  0  0  0  0  0  0  0
   -6.4952   15.7500    0.0000 C   0  0  0  0  0  0  0  0  0  0  0  0
  -11.6913   15.7500    0.0000 C   0  0  0  0  0  0  0  0  0  0  0  0
   -7.7942   16.5000    0.0000 C   0  0  0  0  0  0  0  0  0  0  0  0
  -10.3923   16.5000    0.0000 C   0  0  0  0  0  0  0  0  0  0  0  0
   -9.0933   15.7500    0.0000 C   0  0  0  0  0  0  0  0  0  0  0  0
  3  1  1  0
  4  2  1  0
  5  3  1  0
  6  4  1  0
  7  5  1  0
  8  6  1  0
  9  7  1  0
 10  8  1  0
 11  9  1  0
 12 10  1  0
 13 11  1  0
 14 12  1  0
 15 13  1  0
 16 14  1  0
 17 15  1  0
 18 16  1  0
 19 17  1  0
 20 18  1  0
 21 19  1  0
 22 20  1  0
 23 21  1  0
 24 22  1  0
 25 23  1  0
 26 24  1  0
 27 25  1  0
 28 26  1  0
 29 27  1  0
 29 28  1  0
M  END
>  <NAME>  (3017) 
NONACOSANE

>  <SYNONYMS>  (3017) 


>  <SPECTRUM TYPE>  (3017) 
MS1

>  <INSTRUMENT TYPE>  (3017) 
EI-B

>  <INSTRUMENT>  (3017) 
HITACHI M-80B

>  <ION MODE>  (3017) 
P

>  <INCHIKEY>  (3017) 
IGGUPRCHHJZPBS-UHFFFAOYSA-N

>  <FORMULA>  (3017) 
C29H60

>  <EXACT MASS>  (3017) 
408.46950191999997

>  <MW>  (3017) 
408

>  <ID>  (3017) 
JP008141

>  <CONTRIBUTOR>  (3017) 
University of Tokyo Team, {Faculty of Engineering, University of Tokyo

>  <COMMENT>  (3017) 
SMILES=CCCCCCCCCCCCCCCCCCCCCCCCCCCCC
InChI=InChI=1S/C29H60/c1-3-5-7-9-11-13-15-17-19-21-23-25-27-29-28-26-24-22-20-18-16-14-12-10-8-6-4-2/h3-29H2,1-2H3
computed SMILES=CCCCCCCCCCCCCCCCCCCCCCCCCCCCC
accession=JP008141
date=2016.01.19 (Created 2008.10.21, modified 2011.05.06)
author=YAMAOKA R, KYOTO INSTITUTE OF TECHNOLOGY
license=CC BY-NC-SA
exact mass=408.4695
ionization energy=70 eV
ion type=[M]+*
computed spectral entropy=3.279672734205582
computed normalized entropy=0.7828026260271964
SPLASH=splash10-0abl-9100000000-1d9663244f481f209c4f
submitter=submitter = University of Tokyo Team (Faculty of Engineering, University of Tokyo)
MoNA Rating=3.75

>  <NUM PEAKS>  (3017) 
66

>  <MASS SPECTRAL PEAKS>  (3017) 
41 33.15
42 10.38
43 98.73
45 1.63
54 1.72
55 29.33
56 18.29
57 95.5
58 10.59
68 5.27
69 29.44
70 11.09
71 99.99
72 7.27
82 3.98
83 12.8
84 10.24
85 94.49
86 7.37
95 1.56
97 14.74
98 8.85
99 21.74
100 1.48
110 2.21
111 9.1
112 9.17
113 13.68
114 2.06
125 3.37
126 7.61
127 16.52
139 2.48
140 4.63
141 11.11
154 3.06
155 10.22
156 1.17
168 5.18
169 4.09
182 2.74
183 7.52
196 1.45
197 5.17
207 6.44
208 1.91
211 5.15
212 1.05
224 2.54
225 1.63
238 3.15
239 4.47
252 2.01
253 3.74
266 1.04
267 3.2
283 1.3
294 1.31
295 2.74
308 1.01
309 1.84
323 2.31
337 2.11
351 1.1
408 5.1
409 1.93

$$$$

     RDKit          2D

 31 30  0  0  0  0  0  0  0  0999 V2000
  -20.4599    0.5625    0.0000 C   0  0  0  0  0  0  0  0  0  0  0  0
    5.5209   -8.4375    0.0000 C   0  0  0  0  0  0  0  0  0  0  0  0
  -21.7589   -0.1875    0.0000 C   0  0  0  0  0  0  0  0  0  0  0  0
    4.2219   -9.1875    0.0000 C   0  0  0  0  0  0  0  0  0  0  0  0
  -21.7589   -1.6875    0.0000 C   0  0  0  0  0  0  0  0  0  0  0  0
    2.9228   -8.4375    0.0000 C   0  0  0  0  0  0  0  0  0  0  0  0
  -23.0579   -2.4375    0.0000 C   0  0  0  0  0  0  0  0  0  0  0  0
    1.6238   -9.1875    0.0000 C   0  0  0  0  0  0  0  0  0  0  0  0
  -23.0579   -3.9375    0.0000 C   0  0  0  0  0  0  0  0  0  0  0  0
    0.3248   -8.4375    0.0000 C   0  0  0  0  0  0  0  0  0  0  0  0
  -24.3570   -4.6875    0.0000 C   0  0  0  0  0  0  0  0  0  0  0  0
   -0.9743   -9.1875    0.0000 C   0  0  0  0  0  0  0  0  0  0  0  0
  -24.3570   -6.1875    0.0000 C   0  0  0  0  0  0  0  0  0  0  0  0
   -2.2733   -8.4375    0.0000 C   0  0  0  0  0  0  0  0  0  0  0  0
  -23.0579   -6.9375    0.0000 C   0  0  0  0  0  0  0  0  0  0  0  0
   -3.5724   -9.1875    0.0000 C   0  0  0  0  0  0  0  0  0  0  0  0
  -23.0579   -8.4375    0.0000 C   0  0  0  0  0  0  0  0  0  0  0  0
   -4.8714   -8.4375    0.0000 C   0  0  0  0  0  0  0  0  0  0  0  0
  -21.7589   -9.1875    0.0000 C   0  0  0  0  0  0  0  0  0  0  0  0
   -6.1704   -9.1875    0.0000 C   0  0  0  0  0  0  0  0  0  0  0  0
  -20.4599   -8.4375    0.0000 C   0  0  0  0  0  0  0  0  0  0  0  0
   -7.4695   -8.4375    0.0000 C   0  0  0  0  0  0  0  0  0  0  0  0
  -19.1608   -9.1875    0.0000 C   0  0  0  0  0  0  0  0  0  0  0  0
   -8.7685   -9.1875    0.0000 C   0  0  0  0  0  0  0  0  0  0  0  0
  -17.8618   -8.4375    0.0000 C   0  0  0  0  0  0  0  0  0  0  0  0
  -10.0675   -8.4375    0.0000 C   0  0  0  0  0  0  0  0  0  0  0  0
  -16.5627   -9.1875    0.0000 C   0  0  0  0  0  0  0  0  0  0  0  0
  -11.3666   -9.1875    0.0000 C   0  0  0  0  0  0  0  0  0  0  0  0
  -15.2637   -8.4375    0.0000 C   0  0  0  0  0  0  0  0  0  0  0  0
  -12.6656   -8.4375    0.0000 C   0  0  0  0  0  0  0  0  0  0  0  0
  -13.9647   -9.1875    0.0000 C   0  0  0  0  0  0  0  0  0  0  0  0
  3  1  1  0
  4  2  1  0
  5  3  1  0
  6  4  1  0
  7  5  1  0
  8  6  1  0
  9  7  1  0
 10  8  1  0
 11  9  1  0
 12 10  1  0
 11 13  2  0
 14 12  1  0
 15 13  1  0
 16 14  1  0
 17 15  1  0
 18 16  1  0
 17 19  2  0
 20 18  1  0
 21 19  1  0
 22 20  1  0
 23 21  1  0
 24 22  1  0
 25 23  1  0
 26 24  1  0
 27 25  1  0
 28 26  1  0
 29 27  1  0
 30 28  1  0
 31 29  1  0
 31 30  1  0
M  END
>  <NAME>  (3018) 
(6Z,9Z)-6,9-HENTRIACONTADIENE

>  <SYNONYMS>  (3018) 


>  <SPECTRUM TYPE>  (3018) 
MS1

>  <INSTRUMENT TYPE>  (3018) 
EI-B

>  <INSTRUMENT>  (3018) 
HITACHI M-80B

>  <ION MODE>  (3018) 
P

>  <INCHIKEY>  (3018) 
RNAQFDIFLHTKJB-OHNCOSGTSA-N

>  <FORMULA>  (3018) 
C31H60

>  <EXACT MASS>  (3018) 
432.46950191999997

>  <MW>  (3018) 
432

>  <ID>  (3018) 
JP008140

>  <CONTRIBUTOR>  (3018) 
University of Tokyo Team, {Faculty of Engineering, University of Tokyo

>  <COMMENT>  (3018) 
SMILES=C(CCCCCCCCCCCCCCCCC([H])=C([H])CC([H])=C([H])CCCCC)CCCC
InChI=InChI=1S/C31H60/c1-3-5-7-9-11-13-15-17-19-21-23-25-27-29-31-30-28-26-24-22-20-18-16-14-12-10-8-6-4-2/h11,13,17,19H,3-10,12,14-16,18,20-31H2,1-2H3/b13-11-,19-17-
computed SMILES=C(=CCCCCC)CC=CCCCCCCCCCCCCCCCCCCCCC
accession=JP008140
date=2016.01.19 (Created 2008.10.21, modified 2011.05.06)
author=YAMAOKA R, KYOTO INSTITUTE OF TECHNOLOGY
license=CC BY-NC-SA
exact mass=432.4695
ionization energy=70 eV
ion type=[M]+*
computed spectral entropy=3.621975941648414
computed normalized entropy=0.8313559812535238
SPLASH=splash10-0535-9100000000-590079271ebed60b1b1e
submitter=submitter = University of Tokyo Team (Faculty of Engineering, University of Tokyo)
MoNA Rating=3.75

>  <NUM PEAKS>  (3018) 
78

>  <MASS SPECTRAL PEAKS>  (3018) 
41 36.91
42 9.57
43 68.24
44 2.47
53 2.58
54 30.61
55 99.99
56 28.94
57 41.06
58 2.77
66 2.7
67 35.74
68 29.53
69 73.54
70 19.22
71 17.92
72 1.68
73 2.51
77 1.7
79 7.06
80 6.65
81 36.19
82 61.2
83 76.46
84 9.42
85 12.41
86 1.78
91 2.07
94 4.06
95 38.3
96 63.43
97 48.32
98 3.19
109 20.44
110 30.89
111 26.04
113 1.85
121 2.01
122 1.36
123 18
124 21.52
125 7.39
126 1.8
137 11.2
138 11.72
139 3.47
151 3.79
152 6.18
153 1.4
165 1.9
166 7.44
167 1.53
179 1.58
180 3
193 2.94
194 4.39
207 5.39
221 2.19
222 3.91
236 2.7
250 2.05
263 1.06
264 1.35
278 1.47
281 6.09
282 2.79
292 1.91
306 3.84
307 1.03
320 6.87
321 1.59
333 2.03
334 2.86
341 1
348 3.3
432 23.66
433 10.36
434 1.56

$$$$

     RDKit          2D

 30 29  0  0  0  0  0  0  0  0999 V2000
    9.7428   16.1250    0.0000 C   0  0  0  0  0  0  0  0  0  0  0  0
  -27.9293   16.8750    0.0000 C   0  0  0  0  0  0  0  0  0  0  0  0
    8.4437   16.8750    0.0000 C   0  0  0  0  0  0  0  0  0  0  0  0
  -26.6303   16.1250    0.0000 C   0  0  0  0  0  0  0  0  0  0  0  0
    7.1447   16.1250    0.0000 C   0  0  0  0  0  0  0  0  0  0  0  0
  -25.3312   16.8750    0.0000 C   0  0  0  0  0  0  0  0  0  0  0  0
    5.8457   16.8750    0.0000 C   0  0  0  0  0  0  0  0  0  0  0  0
  -24.0322   16.1250    0.0000 C   0  0  0  0  0  0  0  0  0  0  0  0
    4.5466   16.1250    0.0000 C   0  0  0  0  0  0  0  0  0  0  0  0
  -22.7332   16.8750    0.0000 C   0  0  0  0  0  0  0  0  0  0  0  0
    3.2476   16.8750    0.0000 C   0  0  0  0  0  0  0  0  0  0  0  0
  -21.4341   16.1250    0.0000 C   0  0  0  0  0  0  0  0  0  0  0  0
    1.9486   16.1250    0.0000 C   0  0  0  0  0  0  0  0  0  0  0  0
  -20.1351   16.8750    0.0000 C   0  0  0  0  0  0  0  0  0  0  0  0
    0.6495   16.8750    0.0000 C   0  0  0  0  0  0  0  0  0  0  0  0
  -18.8361   16.1250    0.0000 C   0  0  0  0  0  0  0  0  0  0  0  0
   -0.6495   16.1250    0.0000 C   0  0  0  0  0  0  0  0  0  0  0  0
  -17.5370   16.8750    0.0000 C   0  0  0  0  0  0  0  0  0  0  0  0
   -1.9486   16.8750    0.0000 C   0  0  0  0  0  0  0  0  0  0  0  0
  -16.2380   16.1250    0.0000 C   0  0  0  0  0  0  0  0  0  0  0  0
   -3.2476   16.1250    0.0000 C   0  0  0  0  0  0  0  0  0  0  0  0
  -14.9389   16.8750    0.0000 C   0  0  0  0  0  0  0  0  0  0  0  0
   -4.5466   16.8750    0.0000 C   0  0  0  0  0  0  0  0  0  0  0  0
  -13.6399   16.1250    0.0000 C   0  0  0  0  0  0  0  0  0  0  0  0
   -5.8457   16.1250    0.0000 C   0  0  0  0  0  0  0  0  0  0  0  0
  -12.3409   16.8750    0.0000 C   0  0  0  0  0  0  0  0  0  0  0  0
   -7.1447   16.8750    0.0000 C   0  0  0  0  0  0  0  0  0  0  0  0
  -11.0418   16.1250    0.0000 C   0  0  0  0  0  0  0  0  0  0  0  0
   -8.4437   16.1250    0.0000 C   0  0  0  0  0  0  0  0  0  0  0  0
   -9.7428   16.8750    0.0000 C   0  0  0  0  0  0  0  0  0  0  0  0
  3  1  1  0
  4  2  1  0
  5  3  1  0
  6  4  1  0
  7  5  1  0
  8  6  1  0
  9  7  1  0
 10  8  1  0
 11  9  1  0
 12 10  1  0
 13 11  1  0
 14 12  1  0
 15 13  1  0
 16 14  1  0
 17 15  1  0
 18 16  1  0
 19 17  1  0
 20 18  1  0
 21 19  1  0
 22 20  1  0
 23 21  1  0
 24 22  1  0
 25 23  1  0
 26 24  1  0
 27 25  1  0
 28 26  1  0
 29 27  1  0
 30 28  1  0
 30 29  1  0
M  END
>  <NAME>  (3019) 
TRIACONTANE

>  <SYNONYMS>  (3019) 


>  <SPECTRUM TYPE>  (3019) 
MS1

>  <INSTRUMENT TYPE>  (3019) 
EI-B

>  <INSTRUMENT>  (3019) 
HITACHI M-80B

>  <ION MODE>  (3019) 
P

>  <INCHIKEY>  (3019) 
JXTPJDDICSTXJX-UHFFFAOYSA-N

>  <FORMULA>  (3019) 
C30H62

>  <EXACT MASS>  (3019) 
422.485151984

>  <MW>  (3019) 
422

>  <ID>  (3019) 
JP008139

>  <CONTRIBUTOR>  (3019) 
University of Tokyo Team, {Faculty of Engineering, University of Tokyo

>  <COMMENT>  (3019) 
SMILES=C(CCCCCCCCCCCCCCCCCCCCCCCCC)CCCC
InChI=InChI=1S/C30H62/c1-3-5-7-9-11-13-15-17-19-21-23-25-27-29-30-28-26-24-22-20-18-16-14-12-10-8-6-4-2/h3-30H2,1-2H3
computed SMILES=CCCCCCCCCCCCCCCCCCCCCCCCCCCCCC
accession=JP008139
date=2016.01.19 (Created 2008.10.21, modified 2011.05.06)
author=YAMAOKA R, KYOTO INSTITUTE OF TECHNOLOGY
license=CC BY-NC-SA
exact mass=422.48515
ionization energy=70 eV
ion type=[M]+*
computed spectral entropy=3.3077989488121604
computed normalized entropy=0.7709661387515155
SPLASH=splash10-0abc-9100000000-53e5f2ce729aee0ec9dc
submitter=submitter = University of Tokyo Team (Faculty of Engineering, University of Tokyo)
MoNA Rating=3.75

>  <NUM PEAKS>  (3019) 
73

>  <MASS SPECTRAL PEAKS>  (3019) 
41 29.5
42 12.43
43 96.42
44 4.27
53 2.61
54 4.89
55 42.49
56 22.18
57 99.99
58 7.19
59 2.32
60 1.22
67 4.81
68 3.37
69 21.43
70 14.17
71 93.4
72 4.76
78 1.22
79 2.32
81 1.38
82 6.16
83 17.38
84 8.4
85 58.96
86 4.88
95 1.68
96 5.85
97 19.5
98 7.05
99 18.64
103 2.96
111 8.08
112 6.03
113 12.05
114 1.1
115 2.01
125 2.21
126 2.57
127 7.92
132 1.31
135 1.17
139 1
140 4.94
141 7.55
142 1.44
147 1.67
154 2.32
155 3.95
161 1.06
163 1.48
168 2.72
169 3.83
177 1.92
182 1.37
183 4.72
193 1.64
194 1.1
196 1.79
197 3.54
207 9.5
208 5.06
211 2.36
221 1.1
224 1.35
225 2.51
239 1.4
266 1.12
281 7.55
282 1.05
309 1.17
365 1
422 1.3

$$$$

     RDKit          2D

 28 27  0  0  0  0  0  0  0  0999 V2000
  -25.9808   15.7500    0.0000 C   0  0  0  0  0  0  0  0  0  0  0  0
    9.0933   15.0000    0.0000 C   0  0  0  0  0  0  0  0  0  0  0  0
  -24.6817   15.0000    0.0000 C   0  0  0  0  0  0  0  0  0  0  0  0
    7.7942   15.7500    0.0000 C   0  0  0  0  0  0  0  0  0  0  0  0
  -23.3827   15.7500    0.0000 C   0  0  0  0  0  0  0  0  0  0  0  0
    6.4952   15.0000    0.0000 C   0  0  0  0  0  0  0  0  0  0  0  0
  -22.0836   15.0000    0.0000 C   0  0  0  0  0  0  0  0  0  0  0  0
    5.1962   15.7500    0.0000 C   0  0  0  0  0  0  0  0  0  0  0  0
  -20.7846   15.7500    0.0000 C   0  0  0  0  0  0  0  0  0  0  0  0
    3.8971   15.0000    0.0000 C   0  0  0  0  0  0  0  0  0  0  0  0
  -19.4856   15.0000    0.0000 C   0  0  0  0  0  0  0  0  0  0  0  0
    2.5981   15.7500    0.0000 C   0  0  0  0  0  0  0  0  0  0  0  0
  -18.1865   15.7500    0.0000 C   0  0  0  0  0  0  0  0  0  0  0  0
    1.2990   15.0000    0.0000 C   0  0  0  0  0  0  0  0  0  0  0  0
  -16.8875   15.0000    0.0000 C   0  0  0  0  0  0  0  0  0  0  0  0
    0.0000   15.7500    0.0000 C   0  0  0  0  0  0  0  0  0  0  0  0
  -15.5885   15.7500    0.0000 C   0  0  0  0  0  0  0  0  0  0  0  0
   -1.2990   15.0000    0.0000 C   0  0  0  0  0  0  0  0  0  0  0  0
  -14.2894   15.0000    0.0000 C   0  0  0  0  0  0  0  0  0  0  0  0
   -2.5981   15.7500    0.0000 C   0  0  0  0  0  0  0  0  0  0  0  0
  -12.9904   15.7500    0.0000 C   0  0  0  0  0  0  0  0  0  0  0  0
   -3.8971   15.0000    0.0000 C   0  0  0  0  0  0  0  0  0  0  0  0
  -11.6913   15.0000    0.0000 C   0  0  0  0  0  0  0  0  0  0  0  0
   -5.1962   15.7500    0.0000 C   0  0  0  0  0  0  0  0  0  0  0  0
  -10.3923   15.7500    0.0000 C   0  0  0  0  0  0  0  0  0  0  0  0
   -6.4952   15.0000    0.0000 C   0  0  0  0  0  0  0  0  0  0  0  0
   -9.0933   15.0000    0.0000 C   0  0  0  0  0  0  0  0  0  0  0  0
   -7.7942   15.7500    0.0000 C   0  0  0  0  0  0  0  0  0  0  0  0
  3  1  1  0
  4  2  1  0
  5  3  1  0
  6  4  1  0
  7  5  1  0
  8  6  1  0
  9  7  1  0
 10  8  1  0
 11  9  1  0
 12 10  1  0
 13 11  1  0
 14 12  1  0
 15 13  1  0
 16 14  1  0
 17 15  1  0
 18 16  1  0
 19 17  1  0
 20 18  1  0
 21 19  1  0
 22 20  1  0
 23 21  1  0
 24 22  1  0
 25 23  1  0
 26 24  1  0
 27 25  1  0
 28 26  1  0
 28 27  1  0
M  END
>  <NAME>  (3020) 
OCTACOSANE

>  <SYNONYMS>  (3020) 


>  <SPECTRUM TYPE>  (3020) 
MS1

>  <INSTRUMENT TYPE>  (3020) 
EI-B

>  <INSTRUMENT>  (3020) 
HITACHI M-80B

>  <ION MODE>  (3020) 
P

>  <INCHIKEY>  (3020) 
ZYURHZPYMFLWSH-UHFFFAOYSA-N

>  <FORMULA>  (3020) 
C28H58

>  <EXACT MASS>  (3020) 
394.453851856

>  <MW>  (3020) 
394

>  <ID>  (3020) 
JP008138

>  <CONTRIBUTOR>  (3020) 
University of Tokyo Team, {Faculty of Engineering, University of Tokyo

>  <COMMENT>  (3020) 
SMILES=CCCCCCCCCCCCCCCCCCCCCCCCCCCC
InChI=InChI=1S/C28H58/c1-3-5-7-9-11-13-15-17-19-21-23-25-27-28-26-24-22-20-18-16-14-12-10-8-6-4-2/h3-28H2,1-2H3
computed SMILES=CCCCCCCCCCCCCCCCCCCCCCCCCCCC
computed normalized entropy=0.7752211909620682
accession=JP008138
date=2016.01.19 (Created 2008.10.21, modified 2011.05.06)
author=YAMAOKA R, KYOTO INSTITUTE OF TECHNOLOGY
license=CC BY-NC-SA
exact mass=394.45385
ionization energy=70 eV
ion type=[M]+*
computed spectral entropy=3.1740226677348846
SPLASH=splash10-0abc-9100000000-d9a900e46caef0fb3acc
submitter=submitter = University of Tokyo Team (Faculty of Engineering, University of Tokyo)
MoNA Rating=3.75

>  <NUM PEAKS>  (3020) 
60

>  <MASS SPECTRAL PEAKS>  (3020) 
41 23.61
42 7.81
43 76.47
44 5.17
53 1.35
54 2.98
55 20.31
56 13.56
57 99.99
58 7.01
67 4.44
68 4.3
69 13.42
70 11.44
71 67.95
73 1.04
81 2.77
82 5.51
83 13.64
84 7.19
85 39.92
86 2.57
96 3.3
97 12.44
98 4.01
99 12.76
100 1.2
111 3.11
112 2.94
113 8.89
117 1.03
125 1.98
126 3.32
127 6.28
135 1.2
139 2.14
140 3.23
141 4.18
154 1.38
155 5.52
168 1.53
169 3.62
177 1.59
182 3.2
183 4.73
196 2.25
197 3.02
208 2.65
210 1.3
211 1.62
225 3.43
239 3.24
240 1.17
252 1.48
253 2.7
267 3.15
295 1.69
324 1.91
338 1.29
394 2.15

$$$$

     RDKit          2D

 26 25  0  0  0  0  0  0  0  0999 V2000
    8.4437   13.8750    0.0000 C   0  0  0  0  0  0  0  0  0  0  0  0
  -24.0322   14.6250    0.0000 C   0  0  0  0  0  0  0  0  0  0  0  0
    7.1447   14.6250    0.0000 C   0  0  0  0  0  0  0  0  0  0  0  0
  -22.7332   13.8750    0.0000 C   0  0  0  0  0  0  0  0  0  0  0  0
    5.8457   13.8750    0.0000 C   0  0  0  0  0  0  0  0  0  0  0  0
  -21.4341   14.6250    0.0000 C   0  0  0  0  0  0  0  0  0  0  0  0
    4.5466   14.6250    0.0000 C   0  0  0  0  0  0  0  0  0  0  0  0
  -20.1351   13.8750    0.0000 C   0  0  0  0  0  0  0  0  0  0  0  0
    3.2476   13.8750    0.0000 C   0  0  0  0  0  0  0  0  0  0  0  0
  -18.8361   14.6250    0.0000 C   0  0  0  0  0  0  0  0  0  0  0  0
    1.9486   14.6250    0.0000 C   0  0  0  0  0  0  0  0  0  0  0  0
  -17.5370   13.8750    0.0000 C   0  0  0  0  0  0  0  0  0  0  0  0
    0.6495   13.8750    0.0000 C   0  0  0  0  0  0  0  0  0  0  0  0
  -16.2380   14.6250    0.0000 C   0  0  0  0  0  0  0  0  0  0  0  0
   -0.6495   14.6250    0.0000 C   0  0  0  0  0  0  0  0  0  0  0  0
  -14.9389   13.8750    0.0000 C   0  0  0  0  0  0  0  0  0  0  0  0
   -1.9486   13.8750    0.0000 C   0  0  0  0  0  0  0  0  0  0  0  0
  -13.6399   14.6250    0.0000 C   0  0  0  0  0  0  0  0  0  0  0  0
   -3.2476   14.6250    0.0000 C   0  0  0  0  0  0  0  0  0  0  0  0
  -12.3409   13.8750    0.0000 C   0  0  0  0  0  0  0  0  0  0  0  0
   -4.5466   13.8750    0.0000 C   0  0  0  0  0  0  0  0  0  0  0  0
  -11.0418   14.6250    0.0000 C   0  0  0  0  0  0  0  0  0  0  0  0
   -5.8457   14.6250    0.0000 C   0  0  0  0  0  0  0  0  0  0  0  0
   -9.7428   13.8750    0.0000 C   0  0  0  0  0  0  0  0  0  0  0  0
   -7.1447   13.8750    0.0000 C   0  0  0  0  0  0  0  0  0  0  0  0
   -8.4437   14.6250    0.0000 C   0  0  0  0  0  0  0  0  0  0  0  0
  3  1  1  0
  4  2  1  0
  5  3  1  0
  6  4  1  0
  7  5  1  0
  8  6  1  0
  9  7  1  0
 10  8  1  0
 11  9  1  0
 12 10  1  0
 13 11  1  0
 14 12  1  0
 15 13  1  0
 16 14  1  0
 17 15  1  0
 18 16  1  0
 19 17  1  0
 20 18  1  0
 21 19  1  0
 22 20  1  0
 23 21  1  0
 24 22  1  0
 25 23  1  0
 26 24  1  0
 26 25  1  0
M  END
>  <NAME>  (3021) 
HEXACOSANE

>  <SYNONYMS>  (3021) 


>  <SPECTRUM TYPE>  (3021) 
MS1

>  <INSTRUMENT TYPE>  (3021) 
EI-B

>  <INSTRUMENT>  (3021) 
HITACHI M-80B

>  <ION MODE>  (3021) 
P

>  <INCHIKEY>  (3021) 
HMSWAIKSFDFLKN-UHFFFAOYSA-N

>  <FORMULA>  (3021) 
C26H54

>  <EXACT MASS>  (3021) 
366.422551728

>  <MW>  (3021) 
366

>  <ID>  (3021) 
JP008137

>  <CONTRIBUTOR>  (3021) 
University of Tokyo Team, {Faculty of Engineering, University of Tokyo

>  <COMMENT>  (3021) 
SMILES=CCCCCCCCCCCCCCCCCCCCCCCCCC
InChI=InChI=1S/C26H54/c1-3-5-7-9-11-13-15-17-19-21-23-25-26-24-22-20-18-16-14-12-10-8-6-4-2/h3-26H2,1-2H3
computed SMILES=CCCCCCCCCCCCCCCCCCCCCCCCCC
accession=JP008137
date=2016.01.19 (Created 2008.10.21, modified 2011.05.06)
author=YAMAOKA R, KYOTO INSTITUTE OF TECHNOLOGY
license=CC BY-NC-SA
exact mass=366.42255
ionization energy=70 eV
ion type=[M]+*
computed spectral entropy=2.9445902399905908
computed normalized entropy=0.7606399749570256
SPLASH=splash10-0a4l-9000000000-8ff648370df9ab839d2d
submitter=submitter = University of Tokyo Team (Faculty of Engineering, University of Tokyo)
MoNA Rating=3.75

>  <NUM PEAKS>  (3021) 
48

>  <MASS SPECTRAL PEAKS>  (3021) 
41 29.44
42 9.33
43 84.9
53 1.11
54 2.83
55 25.75
56 14.8
57 99.99
58 6.1
67 3.5
69 14.38
70 9.34
71 55.87
72 4.58
78 2.64
82 2.91
83 10.57
84 6.92
85 38.34
86 3.49
95 1.54
96 1.06
97 7.74
98 5.21
99 12.87
111 3.81
112 3.94
113 8.72
125 1.53
126 2.66
127 5.25
140 1.86
141 4.87
154 1.72
155 3.44
168 1.1
169 2.75
183 2.06
196 1.76
197 2.5
210 1.33
211 2.15
224 1.41
239 1.32
253 2.12
267 1.7
296 1.86
366 1.95

$$$$

     RDKit          2D

 17 16  0  0  0  0  0  0  0  0999 V2000
   -8.1190    3.9375    0.0000 C   0  0  0  0  0  0  0  0  0  0  0  0
   -6.8200    4.6875    0.0000 C   0  0  0  0  0  0  0  0  0  0  0  0
   -6.8200    6.1875    0.0000 C   0  0  0  0  0  0  0  0  0  0  0  0
   -5.5209    6.9375    0.0000 C   0  0  0  0  0  0  0  0  0  0  0  0
   -5.5209    8.4375    0.0000 C   0  0  0  0  0  0  0  0  0  0  0  0
   -4.2219    9.1875    0.0000 C   0  0  0  0  0  0  0  0  0  0  0  0
   -4.2219   10.6875    0.0000 C   0  0  0  0  0  0  0  0  0  0  0  0
   -2.9228   11.4375    0.0000 C   0  0  0  0  0  0  0  0  0  0  0  0
   -1.6238   10.6875    0.0000 C   0  0  0  0  0  0  0  0  0  0  0  0
   -0.3248   11.4375    0.0000 C   0  0  0  0  0  0  0  0  0  0  0  0
    0.9743   10.6875    0.0000 C   0  0  0  0  0  0  0  0  0  0  0  0
    2.2733   11.4375    0.0000 C   0  0  0  0  0  0  0  0  0  0  0  0
    3.5724   10.6875    0.0000 C   0  0  0  0  0  0  0  0  0  0  0  0
    4.8714   11.4375    0.0000 C   0  0  0  0  0  0  0  0  0  0  0  0
    6.1704   10.6875    0.0000 C   0  0  0  0  0  0  0  0  0  0  0  0
    7.4695   11.4375    0.0000 C   0  0  0  0  0  0  0  0  0  0  0  0
    8.7685   10.6875    0.0000 O   0  0  0  0  0  0  0  0  0  0  0  0
  2  1  1  0
  3  2  1  0
  4  3  1  0
  5  4  1  0
  6  5  1  0
  7  6  1  0
  7  8  2  0
  9  8  1  0
 10  9  1  0
 11 10  1  0
 12 11  1  0
 13 12  1  0
 14 13  1  0
 15 14  1  0
 16 15  1  0
 17 16  2  0
M  END
>  <NAME>  (3022) 
(Z)-9-HEXADECENAL

>  <SYNONYMS>  (3022) 


>  <SPECTRUM TYPE>  (3022) 
MS1

>  <INSTRUMENT TYPE>  (3022) 
EI-B

>  <INSTRUMENT>  (3022) 
HITACHI M-80B

>  <ION MODE>  (3022) 
P

>  <INCHIKEY>  (3022) 
QFPVVMKZTVQDTL-FPLPWBNLSA-N

>  <FORMULA>  (3022) 
C16H30O

>  <EXACT MASS>  (3022) 
238.22966558000002

>  <MW>  (3022) 
238

>  <ID>  (3022) 
JP008136

>  <CONTRIBUTOR>  (3022) 
University of Tokyo Team, {Faculty of Engineering, University of Tokyo

>  <COMMENT>  (3022) 
SMILES=CCCCCCC([H])=C([H])CCCCCCCC=O
InChI=InChI=1S/C16H30O/c1-2-3-4-5-6-7-8-9-10-11-12-13-14-15-16-17/h7-8,16H,2-6,9-15H2,1H3/b8-7-
computed SMILES=O=CCCCCCCCC=CCCCCCC
accession=JP008136
date=2016.01.19 (Created 2008.10.21, modified 2011.05.06)
author=YAMAOKA R, KYOTO INSTITUTE OF TECHNOLOGY
license=CC BY-NC-SA
exact mass=238.22967
ionization energy=70 eV
ion type=[M]+*
computed spectral entropy=3.318915728333819
computed normalized entropy=0.8245032939538472
SPLASH=splash10-05mo-9000000000-3e65469d3398f8004fe6
submitter=submitter = University of Tokyo Team (Faculty of Engineering, University of Tokyo)
MoNA Rating=3.75

>  <NUM PEAKS>  (3022) 
56

>  <MASS SPECTRAL PEAKS>  (3022) 
41 99.99
42 12.27
43 54.78
44 8.24
45 1.95
51 1.46
53 11.01
54 30.3
55 94.95
56 29.1
57 15.24
58 2.23
59 1.07
65 3.16
66 2.7
67 40.73
68 19.49
69 53.28
70 26.99
71 8.55
72 1.02
77 2.34
79 10.88
80 9.22
81 30.37
82 20.74
83 25.79
84 12.5
85 4.3
86 1.01
91 1.76
93 5.97
94 4.58
95 17.29
96 15.12
97 15.43
98 22.73
99 1.68
107 4.68
108 2.88
109 7.69
110 7.17
111 9.58
112 4.64
121 5.41
122 2.1
123 2.95
124 1.62
125 1.69
135 4.44
136 1.24
137 1.38
138 1.84
149 1.46
220 1.7
238 1.05

$$$$

     RDKit          2D

 24 23  0  0  0  0  0  0  0  0999 V2000
  -22.0836   13.5000    0.0000 C   0  0  0  0  0  0  0  0  0  0  0  0
    7.7942   12.7500    0.0000 C   0  0  0  0  0  0  0  0  0  0  0  0
  -20.7846   12.7500    0.0000 C   0  0  0  0  0  0  0  0  0  0  0  0
    6.4952   13.5000    0.0000 C   0  0  0  0  0  0  0  0  0  0  0  0
  -19.4856   13.5000    0.0000 C   0  0  0  0  0  0  0  0  0  0  0  0
    5.1962   12.7500    0.0000 C   0  0  0  0  0  0  0  0  0  0  0  0
  -18.1865   12.7500    0.0000 C   0  0  0  0  0  0  0  0  0  0  0  0
    3.8971   13.5000    0.0000 C   0  0  0  0  0  0  0  0  0  0  0  0
  -16.8875   13.5000    0.0000 C   0  0  0  0  0  0  0  0  0  0  0  0
    2.5981   12.7500    0.0000 C   0  0  0  0  0  0  0  0  0  0  0  0
  -15.5885   12.7500    0.0000 C   0  0  0  0  0  0  0  0  0  0  0  0
    1.2990   13.5000    0.0000 C   0  0  0  0  0  0  0  0  0  0  0  0
  -14.2894   13.5000    0.0000 C   0  0  0  0  0  0  0  0  0  0  0  0
    0.0000   12.7500    0.0000 C   0  0  0  0  0  0  0  0  0  0  0  0
  -12.9904   12.7500    0.0000 C   0  0  0  0  0  0  0  0  0  0  0  0
   -1.2990   13.5000    0.0000 C   0  0  0  0  0  0  0  0  0  0  0  0
  -11.6913   13.5000    0.0000 C   0  0  0  0  0  0  0  0  0  0  0  0
   -2.5981   12.7500    0.0000 C   0  0  0  0  0  0  0  0  0  0  0  0
  -10.3923   12.7500    0.0000 C   0  0  0  0  0  0  0  0  0  0  0  0
   -3.8971   13.5000    0.0000 C   0  0  0  0  0  0  0  0  0  0  0  0
   -9.0933   13.5000    0.0000 C   0  0  0  0  0  0  0  0  0  0  0  0
   -5.1962   12.7500    0.0000 C   0  0  0  0  0  0  0  0  0  0  0  0
   -7.7942   12.7500    0.0000 C   0  0  0  0  0  0  0  0  0  0  0  0
   -6.4952   13.5000    0.0000 C   0  0  0  0  0  0  0  0  0  0  0  0
  3  1  1  0
  4  2  1  0
  5  3  1  0
  6  4  1  0
  7  5  1  0
  8  6  1  0
  9  7  1  0
 10  8  1  0
 11  9  1  0
 12 10  1  0
 13 11  1  0
 14 12  1  0
 15 13  1  0
 16 14  1  0
 17 15  1  0
 18 16  1  0
 19 17  1  0
 20 18  1  0
 21 19  1  0
 22 20  1  0
 23 21  1  0
 24 22  1  0
 24 23  1  0
M  END
>  <NAME>  (3023) 
TETRACOSANE

>  <SYNONYMS>  (3023) 


>  <SPECTRUM TYPE>  (3023) 
MS1

>  <INSTRUMENT TYPE>  (3023) 
EI-B

>  <INSTRUMENT>  (3023) 
HITACHI M-80B

>  <ION MODE>  (3023) 
P

>  <INCHIKEY>  (3023) 
POOSGDOYLQNASK-UHFFFAOYSA-N

>  <FORMULA>  (3023) 
C24H50

>  <EXACT MASS>  (3023) 
338.3912516

>  <MW>  (3023) 
338

>  <ID>  (3023) 
JP008135

>  <CONTRIBUTOR>  (3023) 
University of Tokyo Team, {Faculty of Engineering, University of Tokyo

>  <COMMENT>  (3023) 
SMILES=CCCCCCCCCCCCCCCCCCCCCCCC
InChI=InChI=1S/C24H50/c1-3-5-7-9-11-13-15-17-19-21-23-24-22-20-18-16-14-12-10-8-6-4-2/h3-24H2,1-2H3
computed SMILES=CCCCCCCCCCCCCCCCCCCCCCCC
accession=JP008135
date=2016.01.19 (Created 2008.10.21, modified 2011.05.06)
author=YAMAOKA R, KYOTO INSTITUTE OF TECHNOLOGY
license=CC BY-NC-SA
exact mass=338.39125
ionization energy=70 eV
ion type=[M]+*
computed spectral entropy=3.291496670443398
computed normalized entropy=0.7914376539252043
SPLASH=splash10-0abc-9100000000-5f5f24490eda4e1b4d66
submitter=submitter = University of Tokyo Team (Faculty of Engineering, University of Tokyo)
MoNA Rating=3.75

>  <NUM PEAKS>  (3023) 
64

>  <MASS SPECTRAL PEAKS>  (3023) 
41 62.72
42 17.19
43 97.24
44 5.38
53 4.6
54 7.78
55 56.89
56 22.57
57 99.99
58 10.68
67 4.87
68 7.53
69 26.01
70 22.6
71 98.53
72 7.64
73 1.05
81 1.33
82 5.81
83 21.16
84 11.96
85 85.14
86 6.7
95 1.16
96 2.71
97 11.4
98 10.96
99 27.44
100 3.38
110 1.63
111 6.77
112 7.52
113 18.83
114 1.83
115 1.02
124 1.42
125 3.28
126 6.25
127 12.89
138 1
140 3.99
141 10.26
142 1.04
154 3.27
155 9.54
168 3.1
169 7.58
183 5.73
196 3.74
197 5.15
198 1.06
207 1.78
210 1.73
211 4.83
224 1.36
225 3.04
238 2.16
239 3.16
252 1.35
253 3.77
282 3.08
296 1.51
338 6.07
339 1.73

$$$$

     RDKit          2D

 22 21  0  0  0  0  0  0  0  0999 V2000
  -20.1351   12.3750    0.0000 C   0  0  0  0  0  0  0  0  0  0  0  0
    7.1447   11.6250    0.0000 C   0  0  0  0  0  0  0  0  0  0  0  0
  -18.8361   11.6250    0.0000 C   0  0  0  0  0  0  0  0  0  0  0  0
    5.8457   12.3750    0.0000 C   0  0  0  0  0  0  0  0  0  0  0  0
  -17.5370   12.3750    0.0000 C   0  0  0  0  0  0  0  0  0  0  0  0
    4.5466   11.6250    0.0000 C   0  0  0  0  0  0  0  0  0  0  0  0
  -16.2380   11.6250    0.0000 C   0  0  0  0  0  0  0  0  0  0  0  0
    3.2476   12.3750    0.0000 C   0  0  0  0  0  0  0  0  0  0  0  0
  -14.9389   12.3750    0.0000 C   0  0  0  0  0  0  0  0  0  0  0  0
    1.9486   11.6250    0.0000 C   0  0  0  0  0  0  0  0  0  0  0  0
  -13.6399   11.6250    0.0000 C   0  0  0  0  0  0  0  0  0  0  0  0
    0.6495   12.3750    0.0000 C   0  0  0  0  0  0  0  0  0  0  0  0
  -12.3409   12.3750    0.0000 C   0  0  0  0  0  0  0  0  0  0  0  0
   -0.6495   11.6250    0.0000 C   0  0  0  0  0  0  0  0  0  0  0  0
  -11.0418   11.6250    0.0000 C   0  0  0  0  0  0  0  0  0  0  0  0
   -1.9486   12.3750    0.0000 C   0  0  0  0  0  0  0  0  0  0  0  0
   -9.7428   12.3750    0.0000 C   0  0  0  0  0  0  0  0  0  0  0  0
   -3.2476   11.6250    0.0000 C   0  0  0  0  0  0  0  0  0  0  0  0
   -8.4437   11.6250    0.0000 C   0  0  0  0  0  0  0  0  0  0  0  0
   -4.5466   12.3750    0.0000 C   0  0  0  0  0  0  0  0  0  0  0  0
   -7.1447   12.3750    0.0000 C   0  0  0  0  0  0  0  0  0  0  0  0
   -5.8457   11.6250    0.0000 C   0  0  0  0  0  0  0  0  0  0  0  0
  3  1  1  0
  4  2  1  0
  5  3  1  0
  6  4  1  0
  7  5  1  0
  8  6  1  0
  9  7  1  0
 10  8  1  0
 11  9  1  0
 12 10  1  0
 13 11  1  0
 14 12  1  0
 15 13  1  0
 16 14  1  0
 17 15  1  0
 18 16  1  0
 19 17  1  0
 20 18  1  0
 21 19  1  0
 22 20  1  0
 22 21  1  0
M  END
>  <NAME>  (3024) 
DOCOSANE

>  <SYNONYMS>  (3024) 


>  <SPECTRUM TYPE>  (3024) 
MS1

>  <INSTRUMENT TYPE>  (3024) 
EI-B

>  <INSTRUMENT>  (3024) 
HITACHI M-80B

>  <ION MODE>  (3024) 
P

>  <INCHIKEY>  (3024) 
HOWGUJZVBDQJKV-UHFFFAOYSA-N

>  <FORMULA>  (3024) 
C22H46

>  <EXACT MASS>  (3024) 
310.359951472

>  <MW>  (3024) 
310

>  <ID>  (3024) 
JP008134

>  <CONTRIBUTOR>  (3024) 
University of Tokyo Team, {Faculty of Engineering, University of Tokyo

>  <COMMENT>  (3024) 
SMILES=CCCCCCCCCCCCCCCCCCCCCC
InChI=InChI=1S/C22H46/c1-3-5-7-9-11-13-15-17-19-21-22-20-18-16-14-12-10-8-6-4-2/h3-22H2,1-2H3
computed SMILES=CCCCCCCCCCCCCCCCCCCCCC
accession=JP008134
date=2016.01.19 (Created 2008.10.21, modified 2011.05.06)
author=YAMAOKA R, KYOTO INSTITUTE OF TECHNOLOGY
license=CC BY-NC-SA
exact mass=310.35995
ionization energy=70 eV
ion type=[M]+*
computed spectral entropy=3.1074099624129414
computed normalized entropy=0.7903224233928822
SPLASH=splash10-0abc-9100000000-aedb20bd247f19684b98
submitter=submitter = University of Tokyo Team (Faculty of Engineering, University of Tokyo)
MoNA Rating=3.75

>  <NUM PEAKS>  (3024) 
51

>  <MASS SPECTRAL PEAKS>  (3024) 
41 73.26
42 18.13
43 90.87
44 5.84
53 5.18
54 5.58
55 62.58
56 32.03
57 99.99
58 10.92
65 1.01
67 6.65
68 4.19
69 26.83
70 20.9
71 95.63
72 7.36
82 3.97
83 17.03
84 14.66
85 88.09
86 6.26
95 1.6
96 2.02
97 15.45
98 6.53
99 25.06
100 2.71
110 1.28
111 5.21
112 6.94
113 15.75
114 1.24
125 3.49
126 4.97
127 12.16
140 2.99
141 8.01
153 1.02
154 4.25
155 8.09
168 2.44
169 4.7
181 1.12
183 4.1
196 1.3
197 2.96
211 1.66
225 2.2
239 3.28
310 2.61

$$$$

     RDKit          2D

 18 17  0  0  0  0  0  0  0  0999 V2000
   -5.8457   10.1250    0.0000 C   0  0  0  0  0  0  0  0  0  0  0  0
   -4.5466    9.3750    0.0000 C   0  0  0  0  0  0  0  0  0  0  0  0
   -7.1447    9.3750    0.0000 C   0  0  0  0  0  0  0  0  0  0  0  0
   -3.2476   10.1250    0.0000 C   0  0  0  0  0  0  0  0  0  0  0  0
   -8.4437   10.1250    0.0000 C   0  0  0  0  0  0  0  0  0  0  0  0
   -1.9486    9.3750    0.0000 C   0  0  0  0  0  0  0  0  0  0  0  0
   -9.7428    9.3750    0.0000 C   0  0  0  0  0  0  0  0  0  0  0  0
   -0.6495   10.1250    0.0000 C   0  0  0  0  0  0  0  0  0  0  0  0
  -11.0418   10.1250    0.0000 C   0  0  0  0  0  0  0  0  0  0  0  0
    0.6495    9.3750    0.0000 C   0  0  0  0  0  0  0  0  0  0  0  0
  -12.3409    9.3750    0.0000 C   0  0  0  0  0  0  0  0  0  0  0  0
    1.9486   10.1250    0.0000 C   0  0  0  0  0  0  0  0  0  0  0  0
  -13.6399   10.1250    0.0000 C   0  0  0  0  0  0  0  0  0  0  0  0
    3.2476    9.3750    0.0000 C   0  0  0  0  0  0  0  0  0  0  0  0
  -14.9389    9.3750    0.0000 C   0  0  0  0  0  0  0  0  0  0  0  0
    4.5466   10.1250    0.0000 C   0  0  0  0  0  0  0  0  0  0  0  0
  -16.2380   10.1250    0.0000 F   0  0  0  0  0  0  0  0  0  0  0  0
    5.8457    9.3750    0.0000 O   0  0  0  0  0  0  0  0  0  0  0  0
  2  1  1  0
  3  1  1  0
  4  2  1  0
  5  3  1  0
  6  4  1  0
  7  5  1  0
  8  6  1  0
  9  7  1  0
 10  8  1  0
 11  9  1  0
 12 10  1  0
 13 11  1  0
 14 12  1  0
 15 13  1  0
 16 14  1  0
 17 15  1  0
 18 16  1  0
M  END
>  <NAME>  (3025) 
16-FLUOROHEXADECANOL

>  <SYNONYMS>  (3025) 


>  <SPECTRUM TYPE>  (3025) 
MS1

>  <INSTRUMENT TYPE>  (3025) 
EI-B

>  <INSTRUMENT>  (3025) 
HITACHI M-80B

>  <ION MODE>  (3025) 
P

>  <INCHIKEY>  (3025) 
JQVPLGFCCJDSLS-UHFFFAOYSA-N

>  <FORMULA>  (3025) 
C16H33FO

>  <EXACT MASS>  (3025) 
260.251543896

>  <MW>  (3025) 
260

>  <ID>  (3025) 
JP008133

>  <CONTRIBUTOR>  (3025) 
University of Tokyo Team, {Faculty of Engineering, University of Tokyo

>  <COMMENT>  (3025) 
SMILES=OCCCCCCCCCCCCCCCCF
InChI=InChI=1S/C16H33FO/c17-15-13-11-9-7-5-3-1-2-4-6-8-10-12-14-16-18/h18H,1-16H2
computed SMILES=FCCCCCCCCCCCCCCCCO
accession=JP008133
date=2016.01.19 (Created 2008.10.21, modified 2011.05.06)
author=YAMAOKA R, KYOTO INSTITUTE OF TECHNOLOGY
license=CC BY-NC-SA
exact mass=260.25154
ionization energy=70 eV
ion type=[M]+*
computed spectral entropy=3.286412364405554
computed normalized entropy=0.8093728580525742
SPLASH=splash10-0aou-9000000000-8933be72f09fe6181b19
submitter=submitter = University of Tokyo Team (Faculty of Engineering, University of Tokyo)
MoNA Rating=3.75

>  <NUM PEAKS>  (3025) 
58

>  <MASS SPECTRAL PEAKS>  (3025) 
41 69.63
42 20.21
43 56.99
44 3.17
45 2.66
47 6.03
53 5.22
54 13.22
55 99.99
56 44.17
57 37.27
58 2.24
59 2.21
61 7.24
67 12.71
68 33.1
69 67.22
70 34.55
71 12.33
74 2.94
75 2.36
81 9.09
82 30
83 55.89
84 19.13
85 6.44
88 5.24
89 2.85
95 6.18
96 8.57
97 33.91
98 8.3
99 1.38
101 2.43
102 2.81
103 1.92
109 2.8
110 2.86
111 13.47
112 4.6
115 2.71
116 6.2
123 2.3
125 5.64
126 2.15
128 1.22
129 2.3
130 2.99
131 1.16
139 1.25
140 1.12
143 1.9
144 3.25
157 1.57
158 2.09
172 1.81
186 1.47
214 4.56

$$$$

     RDKit          2D

 17 16  0  0  0  0  0  0  0  0999 V2000
    9.7428   12.3750    0.0000 C   0  0  0  0  0  0  0  0  0  0  0  0
    8.4437   11.6250    0.0000 C   0  0  0  0  0  0  0  0  0  0  0  0
    8.4437   10.1250    0.0000 C   0  0  0  0  0  0  0  0  0  0  0  0
    7.1447    9.3750    0.0000 C   0  0  0  0  0  0  0  0  0  0  0  0
    7.1447    7.8750    0.0000 C   0  0  0  0  0  0  0  0  0  0  0  0
    5.8457    7.1250    0.0000 C   0  0  0  0  0  0  0  0  0  0  0  0
    4.5466    7.8750    0.0000 C   0  0  0  0  0  0  0  0  0  0  0  0
    3.2476    7.1250    0.0000 C   0  0  0  0  0  0  0  0  0  0  0  0
    1.9486    7.8750    0.0000 C   0  0  0  0  0  0  0  0  0  0  0  0
    0.6495    7.1250    0.0000 C   0  0  0  0  0  0  0  0  0  0  0  0
   -0.6495    7.8750    0.0000 C   0  0  0  0  0  0  0  0  0  0  0  0
   -1.9486    7.1250    0.0000 C   0  0  0  0  0  0  0  0  0  0  0  0
   -3.2476    7.8750    0.0000 C   0  0  0  0  0  0  0  0  0  0  0  0
   -4.5466    7.1250    0.0000 C   0  0  0  0  0  0  0  0  0  0  0  0
   -5.8457    7.8750    0.0000 C   0  0  0  0  0  0  0  0  0  0  0  0
   -7.1447    7.1250    0.0000 C   0  0  0  0  0  0  0  0  0  0  0  0
   -8.4437    7.8750    0.0000 O   0  0  0  0  0  0  0  0  0  0  0  0
  2  1  1  0
  3  2  1  0
  4  3  1  0
  5  4  1  0
  5  6  2  0
  7  6  1  0
  8  7  1  0
  9  8  1  0
 10  9  1  0
 11 10  1  0
 12 11  1  0
 13 12  1  0
 14 13  1  0
 15 14  1  0
 16 15  1  0
 17 16  2  0
M  END
>  <NAME>  (3026) 
(Z)-11-HEXADECENAL

>  <SYNONYMS>  (3026) 


>  <SPECTRUM TYPE>  (3026) 
MS1

>  <INSTRUMENT TYPE>  (3026) 
EI-B

>  <INSTRUMENT>  (3026) 
HITACHI M-80B

>  <ION MODE>  (3026) 
P

>  <INCHIKEY>  (3026) 
AMTITFMUKRZZEE-WAYWQWQTSA-N

>  <FORMULA>  (3026) 
C16H30O

>  <EXACT MASS>  (3026) 
238.22966558000002

>  <MW>  (3026) 
238

>  <ID>  (3026) 
JP008132

>  <CONTRIBUTOR>  (3026) 
University of Tokyo Team, {Faculty of Engineering, University of Tokyo

>  <COMMENT>  (3026) 
SMILES=O=CCCCCCCCCCC([H])=C([H])CCCC
InChI=InChI=1S/C16H30O/c1-2-3-4-5-6-7-8-9-10-11-12-13-14-15-16-17/h5-6,16H,2-4,7-15H2,1H3/b6-5-
computed SMILES=O=CCCCCCCCCCC=CCCCC
accession=JP008132
date=2016.01.19 (Created 2008.10.21, modified 2011.05.06)
author=YAMAOKA R, KYOTO INSTITUTE OF TECHNOLOGY
license=CC BY-NC-SA
exact mass=238.22967
ionization energy=70 eV
ion type=[M]+*
computed spectral entropy=3.4568162713457
computed normalized entropy=0.8550018395381772
SPLASH=splash10-0aou-9100000000-ed634e4fae366099e696
submitter=submitter = University of Tokyo Team (Faculty of Engineering, University of Tokyo)
MoNA Rating=3.75

>  <NUM PEAKS>  (3026) 
57

>  <MASS SPECTRAL PEAKS>  (3026) 
41 71.06
42 10.52
43 28.56
44 8.59
51 1.09
53 9.8
54 22.16
55 99.99
56 23.15
57 17.82
58 2.94
65 2.5
66 2.06
67 33.66
68 20
69 39.56
70 17.27
71 7.91
72 1.38
77 1.2
79 8.05
80 7.35
81 30.39
82 24.12
83 22.72
84 14.12
85 4.7
86 1.03
93 7.46
94 6.16
95 23.42
96 19.99
97 17.3
98 23.19
99 2.55
107 4.67
108 4.62
109 8.94
110 6
111 10.86
112 8.05
113 1.38
121 7.81
122 3.07
123 3.91
124 4.79
125 3.94
126 1.17
135 4.69
136 2.91
137 1.52
138 2.92
149 1.55
150 1.35
220 6.7
221 1.04
238 2.86

$$$$

     RDKit          2D

 26 25  0  0  0  0  0  0  0  0999 V2000
    7.7942   13.5000    0.0000 C   0  0  0  0  0  0  0  0  0  0  0  0
  -23.3827   13.5000    0.0000 C   0  0  0  0  0  0  0  0  0  0  0  0
    6.4952   14.2500    0.0000 C   0  0  0  0  0  0  0  0  0  0  0  0
  -22.0836   14.2500    0.0000 C   0  0  0  0  0  0  0  0  0  0  0  0
    5.1962   13.5000    0.0000 C   0  0  0  0  0  0  0  0  0  0  0  0
  -20.7846   13.5000    0.0000 C   0  0  0  0  0  0  0  0  0  0  0  0
    3.8971   14.2500    0.0000 C   0  0  0  0  0  0  0  0  0  0  0  0
  -19.4856   14.2500    0.0000 C   0  0  0  0  0  0  0  0  0  0  0  0
    2.5981   13.5000    0.0000 C   0  0  0  0  0  0  0  0  0  0  0  0
  -18.1865   13.5000    0.0000 C   0  0  0  0  0  0  0  0  0  0  0  0
    1.2990   14.2500    0.0000 C   0  0  0  0  0  0  0  0  0  0  0  0
  -16.8875   14.2500    0.0000 C   0  0  0  0  0  0  0  0  0  0  0  0
    0.0000   13.5000    0.0000 C   0  0  0  0  0  0  0  0  0  0  0  0
  -15.5885   13.5000    0.0000 C   0  0  0  0  0  0  0  0  0  0  0  0
   -1.2990   14.2500    0.0000 C   0  0  0  0  0  0  0  0  0  0  0  0
  -14.2894   14.2500    0.0000 C   0  0  0  0  0  0  0  0  0  0  0  0
   -2.5981   13.5000    0.0000 C   0  0  0  0  0  0  0  0  0  0  0  0
  -12.9904   13.5000    0.0000 C   0  0  0  0  0  0  0  0  0  0  0  0
   -3.8971   14.2500    0.0000 C   0  0  0  0  0  0  0  0  0  0  0  0
  -11.6913   14.2500    0.0000 C   0  0  0  0  0  0  0  0  0  0  0  0
   -5.1962   13.5000    0.0000 C   0  0  0  0  0  0  0  0  0  0  0  0
  -10.3923   13.5000    0.0000 C   0  0  0  0  0  0  0  0  0  0  0  0
   -6.4952   14.2500    0.0000 C   0  0  0  0  0  0  0  0  0  0  0  0
   -9.0933   14.2500    0.0000 C   0  0  0  0  0  0  0  0  0  0  0  0
   -9.0933   15.7500    0.0000 O   0  0  0  0  0  0  0  0  0  0  0  0
   -7.7942   13.5000    0.0000 O   0  0  0  0  0  0  0  0  0  0  0  0
  3  1  1  0
  4  2  1  0
  5  3  1  0
  6  4  1  0
  7  5  1  0
  8  6  1  0
  9  7  1  0
 10  8  1  0
 11  9  1  0
 12 10  1  0
 13 11  1  0
 14 12  1  0
 15 13  1  0
 16 14  1  0
 17 15  1  0
 18 16  1  0
 19 17  1  0
 20 18  1  0
 21 19  1  0
 22 20  1  0
 23 21  1  0
 24 22  1  0
 25 24  2  0
 26 23  1  0
 26 24  1  0
M  END
>  <NAME>  (3027) 
DODECYL DODECANOATE

>  <SYNONYMS>  (3027) 
LAURYL LAURATE

>  <SPECTRUM TYPE>  (3027) 
MS1

>  <INSTRUMENT TYPE>  (3027) 
EI-B

>  <INSTRUMENT>  (3027) 
HITACHI M-80B

>  <ION MODE>  (3027) 
P

>  <INCHIKEY>  (3027) 
CYUUZGXOQDCCGH-UHFFFAOYSA-N

>  <FORMULA>  (3027) 
C24H48O2

>  <EXACT MASS>  (3027) 
368.365430776

>  <MW>  (3027) 
368

>  <ID>  (3027) 
JP008131

>  <CONTRIBUTOR>  (3027) 
University of Tokyo Team, {Faculty of Engineering, University of Tokyo

>  <COMMENT>  (3027) 
SMILES=CCCCCCCCCCCCOC(=O)CCCCCCCCCCC
InChI=InChI=1S/C24H48O2/c1-3-5-7-9-11-13-15-17-19-21-23-26-24(25)22-20-18-16-14-12-10-8-6-4-2/h3-23H2,1-2H3
computed SMILES=O=C(OCCCCCCCCCCCC)CCCCCCCCCCC
accession=JP008131
date=2016.01.19 (Created 2008.10.21, modified 2011.05.06)
author=YAMAOKA R, KYOTO INSTITUTE OF TECHNOLOGY
license=CC BY-NC-SA
exact mass=368.36543
ionization energy=70 eV
ion type=[M]+*
computed spectral entropy=3.5450503957279333
computed normalized entropy=0.8461438027738979
SPLASH=splash10-0ktf-9220000000-4389552fcb2351f113e1
submitter=submitter = University of Tokyo Team (Faculty of Engineering, University of Tokyo)
MoNA Rating=3.75

>  <NUM PEAKS>  (3027) 
66

>  <MASS SPECTRAL PEAKS>  (3027) 
41 43.88
42 13.01
43 78.9
53 2.44
54 5.29
55 47.32
56 26.01
57 69.94
58 4.21
59 1.05
60 8.58
61 16.8
67 6.73
68 11.27
69 38.7
70 23.44
71 35.11
72 2.11
73 15.48
74 1.04
81 5.45
82 15.36
83 36.8
84 20.92
85 20.75
86 1.03
87 5.41
89 1.03
95 4.98
96 9.32
97 28.79
98 18.46
99 3.06
101 4.09
103 1.11
109 2.2
110 4.15
111 19.78
112 9.05
113 1.81
115 4
116 3.28
124 1
125 8.61
126 5.3
127 1.11
129 6.76
138 1.44
139 3.98
140 14.45
141 1.95
143 1.54
157 5.97
168 39.97
169 5.63
171 2.1
183 19.31
184 3
200 17.38
201 99.99
202 14.62
203 1.27
213 4.44
229 1.07
368 5.45
369 2.02

$$$$

     RDKit          2D

 32 31  0  0  0  0  0  0  0  0999 V2000
    9.7428   16.8750    0.0000 C   0  0  0  0  0  0  0  0  0  0  0  0
  -29.2284   16.8750    0.0000 C   0  0  0  0  0  0  0  0  0  0  0  0
    8.4437   17.6250    0.0000 C   0  0  0  0  0  0  0  0  0  0  0  0
  -27.9293   17.6250    0.0000 C   0  0  0  0  0  0  0  0  0  0  0  0
    7.1447   16.8750    0.0000 C   0  0  0  0  0  0  0  0  0  0  0  0
  -26.6303   16.8750    0.0000 C   0  0  0  0  0  0  0  0  0  0  0  0
    5.8457   17.6250    0.0000 C   0  0  0  0  0  0  0  0  0  0  0  0
  -25.3312   17.6250    0.0000 C   0  0  0  0  0  0  0  0  0  0  0  0
    4.5466   16.8750    0.0000 C   0  0  0  0  0  0  0  0  0  0  0  0
  -24.0322   16.8750    0.0000 C   0  0  0  0  0  0  0  0  0  0  0  0
    3.2476   17.6250    0.0000 C   0  0  0  0  0  0  0  0  0  0  0  0
  -22.7332   17.6250    0.0000 C   0  0  0  0  0  0  0  0  0  0  0  0
    1.9486   16.8750    0.0000 C   0  0  0  0  0  0  0  0  0  0  0  0
  -21.4341   16.8750    0.0000 C   0  0  0  0  0  0  0  0  0  0  0  0
    0.6495   17.6250    0.0000 C   0  0  0  0  0  0  0  0  0  0  0  0
   -0.6495   16.8750    0.0000 C   0  0  0  0  0  0  0  0  0  0  0  0
   -1.9486   17.6250    0.0000 C   0  0  0  0  0  0  0  0  0  0  0  0
   -3.2476   16.8750    0.0000 C   0  0  0  0  0  0  0  0  0  0  0  0
   -4.5466   17.6250    0.0000 C   0  0  0  0  0  0  0  0  0  0  0  0
   -5.8457   16.8750    0.0000 C   0  0  0  0  0  0  0  0  0  0  0  0
  -20.1351   17.6250    0.0000 C   0  0  0  0  0  0  0  0  0  0  0  0
   -7.1447   17.6250    0.0000 C   0  0  0  0  0  0  0  0  0  0  0  0
  -18.8361   16.8750    0.0000 C   0  0  0  0  0  0  0  0  0  0  0  0
   -8.4437   16.8750    0.0000 C   0  0  0  0  0  0  0  0  0  0  0  0
  -17.5370   17.6250    0.0000 C   0  0  0  0  0  0  0  0  0  0  0  0
   -9.7428   17.6250    0.0000 C   0  0  0  0  0  0  0  0  0  0  0  0
  -16.2380   16.8750    0.0000 C   0  0  0  0  0  0  0  0  0  0  0  0
  -11.0418   16.8750    0.0000 C   0  0  0  0  0  0  0  0  0  0  0  0
  -14.9389   17.6250    0.0000 C   0  0  0  0  0  0  0  0  0  0  0  0
  -12.3409   17.6250    0.0000 C   0  0  0  0  0  0  0  0  0  0  0  0
  -12.3409   19.1250    0.0000 O   0  0  0  0  0  0  0  0  0  0  0  0
  -13.6399   16.8750    0.0000 O   0  0  0  0  0  0  0  0  0  0  0  0
  3  1  1  0
  4  2  1  0
  5  3  1  0
  6  4  1  0
  7  5  1  0
  8  6  1  0
  9  7  1  0
 10  8  1  0
 11  9  1  0
 12 10  1  0
 13 11  1  0
 14 12  1  0
 15 13  1  0
 16 15  1  0
 17 16  1  0
 18 17  1  0
 19 18  1  0
 20 19  1  0
 21 14  1  0
 22 20  1  0
 23 21  1  0
 24 22  1  0
 25 23  1  0
 26 24  1  0
 27 25  1  0
 28 26  1  0
 29 27  1  0
 30 28  1  0
 31 30  2  0
 32 29  1  0
 32 30  1  0
M  END
>  <NAME>  (3028) 
DODECYL OCTADECANOATE

>  <SYNONYMS>  (3028) 
LAURYL STEARATE

>  <SPECTRUM TYPE>  (3028) 
MS1

>  <INSTRUMENT TYPE>  (3028) 
EI-B

>  <INSTRUMENT>  (3028) 
HITACHI M-80B

>  <ION MODE>  (3028) 
P

>  <INCHIKEY>  (3028) 
JRTVEUGOGWTHTR-UHFFFAOYSA-N

>  <FORMULA>  (3028) 
C30H60O2

>  <EXACT MASS>  (3028) 
452.45933116000003

>  <MW>  (3028) 
452

>  <ID>  (3028) 
JP008130

>  <CONTRIBUTOR>  (3028) 
University of Tokyo Team, {Faculty of Engineering, University of Tokyo

>  <COMMENT>  (3028) 
SMILES=C(CCCCCCCCCCCCC(=O)OCCCCCCCCCCCC)CCCC
InChI=InChI=1S/C30H60O2/c1-3-5-7-9-11-13-15-16-17-18-19-20-22-24-26-28-30(31)32-29-27-25-23-21-14-12-10-8-6-4-2/h3-29H2,1-2H3
computed SMILES=O=C(OCCCCCCCCCCCC)CCCCCCCCCCCCCCCCC
accession=JP008130
date=2016.01.19 (Created 2008.10.21, modified 2011.05.06)
author=YAMAOKA R, KYOTO INSTITUTE OF TECHNOLOGY
license=CC BY-NC-SA
exact mass=452.45933
ionization energy=70 eV
ion type=[M]+*
computed spectral entropy=3.5949661609515937
computed normalized entropy=0.8301056376548709
SPLASH=splash10-0a4u-9110000000-4de07d935851c9cea9a3
submitter=submitter = University of Tokyo Team (Faculty of Engineering, University of Tokyo)
MoNA Rating=3.75

>  <NUM PEAKS>  (3028) 
76

>  <MASS SPECTRAL PEAKS>  (3028) 
41 37.47
42 13.03
43 92.73
53 1.83
54 4.31
55 56.93
56 23.82
57 99.99
58 4.85
59 1.18
60 15.91
61 16.31
67 7.78
68 13.44
69 36.68
70 24.57
71 49.89
72 2.66
73 23.07
74 1.96
81 4.16
82 15.42
83 41.69
84 22.18
85 35.94
86 1.41
87 2.42
95 5.43
96 9.62
97 35.59
98 14.91
99 6.44
100 1.52
101 3.8
109 2.95
110 4.41
111 19.53
112 8.55
113 3.55
114 1.87
115 1.93
116 3.37
121 1.03
123 1.16
124 2.04
125 10.32
126 4.53
127 1.65
129 8.46
135 1.02
138 1.25
139 2.94
140 15.04
141 2.15
168 41.73
169 6.5
171 1.5
177 1.2
185 4.26
199 1.23
213 4.71
227 1.01
229 2.81
241 5.23
264 1.39
265 1.51
267 10.85
268 2.68
282 1
283 1.47
284 13.9
285 81.13
286 14.55
287 2.15
452 12.11
453 3.74

$$$$

     RDKit          2D

 17 16  0  0  0  0  0  0  0  0999 V2000
    3.8971   15.7500    0.0000 C   0  0  0  0  0  0  0  0  0  0  0  0
    2.5981   15.0000    0.0000 C   0  0  0  0  0  0  0  0  0  0  0  0
    2.5981   13.5000    0.0000 C   0  0  0  0  0  0  0  0  0  0  0  0
    1.2990   12.7500    0.0000 C   0  0  0  0  0  0  0  0  0  0  0  0
    1.2990   11.2500    0.0000 C   0  0  0  0  0  0  0  0  0  0  0  0
    0.0000   10.5000    0.0000 C   0  0  0  0  0  0  0  0  0  0  0  0
    0.0000    9.0000    0.0000 C   0  0  0  0  0  0  0  0  0  0  0  0
   -1.2990    8.2500    0.0000 C   0  0  0  0  0  0  0  0  0  0  0  0
   -1.2990    6.7500    0.0000 C   0  0  0  0  0  0  0  0  0  0  0  0
   -2.5981    6.0000    0.0000 C   0  0  0  0  0  0  0  0  0  0  0  0
   -3.8971    6.7500    0.0000 C   0  0  0  0  0  0  0  0  0  0  0  0
   -5.1962    6.0000    0.0000 C   0  0  0  0  0  0  0  0  0  0  0  0
   -6.4952    6.7500    0.0000 C   0  0  0  0  0  0  0  0  0  0  0  0
   -7.7942    6.0000    0.0000 C   0  0  0  0  0  0  0  0  0  0  0  0
   -9.0933    6.7500    0.0000 C   0  0  0  0  0  0  0  0  0  0  0  0
  -10.3923    6.0000    0.0000 C   0  0  0  0  0  0  0  0  0  0  0  0
  -11.6913    6.7500    0.0000 O   0  0  0  0  0  0  0  0  0  0  0  0
  2  1  1  0
  3  2  1  0
  4  3  1  0
  5  4  1  0
  5  6  2  0
  7  6  1  0
  8  7  1  0
  9  8  1  0
  9 10  2  0
 11 10  1  0
 12 11  1  0
 13 12  1  0
 14 13  1  0
 15 14  1  0
 16 15  1  0
 17 16  1  0
M  END
>  <NAME>  (3029) 
(7Z,11Z)-7,11-HEXADECADIENOL

>  <SYNONYMS>  (3029) 


>  <SPECTRUM TYPE>  (3029) 
MS1

>  <INSTRUMENT TYPE>  (3029) 
EI-B

>  <INSTRUMENT>  (3029) 
HITACHI M-80B

>  <ION MODE>  (3029) 
P

>  <INCHIKEY>  (3029) 
ZWMPSFHVSWYKPO-QMRMAQATSA-N

>  <FORMULA>  (3029) 
C16H30O

>  <EXACT MASS>  (3029) 
238.22966558000002

>  <MW>  (3029) 
238

>  <ID>  (3029) 
JP008129

>  <CONTRIBUTOR>  (3029) 
University of Tokyo Team, {Faculty of Engineering, University of Tokyo

>  <COMMENT>  (3029) 
SMILES=OCCCCCCC([H])=C([H])CCC([H])=C([H])CCCC
InChI=InChI=1S/C16H30O/c1-2-3-4-5-6-7-8-9-10-11-12-13-14-15-16-17/h5-6,9-10,17H,2-4,7-8,11-16H2,1H3/b6-5+,10-9-
computed SMILES=OCCCCCCC=CCCC=CCCCC
accession=JP008129
date=2016.01.19 (Created 2008.10.21, modified 2011.05.06)
author=YAMAOKA R, KYOTO INSTITUTE OF TECHNOLOGY
license=CC BY-NC-SA
exact mass=238.22967
ionization energy=70 eV
ion type=[M]+*
computed spectral entropy=3.1435176281865598
computed normalized entropy=0.8077242491675817
SPLASH=splash10-0apj-9000000000-4be0694bd51fb65df73b
submitter=submitter = University of Tokyo Team (Faculty of Engineering, University of Tokyo)
MoNA Rating=3.75

>  <NUM PEAKS>  (3029) 
49

>  <MASS SPECTRAL PEAKS>  (3029) 
41 48.52
42 3.9
43 15.14
51 1.13
52 1.63
53 9.2
54 27.06
55 99.99
56 2.83
57 9.11
65 2.6
66 2.54
67 60.11
68 16.46
69 22.62
70 8.14
71 4.69
73 2.46
77 1.75
79 11.07
80 10.61
81 64.37
82 30.27
83 9.9
84 3.3
85 3.58
91 3.09
93 6.02
94 2.13
95 26.71
96 30.49
97 19.18
98 3.12
99 2.17
107 3.3
109 5.46
110 4.92
111 2.25
121 2.73
122 1.79
123 8.9
124 4.06
136 1.37
137 3.21
138 2.65
163 1.01
168 1.07
222 1.01
238 5.22

$$$$

     RDKit          2D

 17 16  0  0  0  0  0  0  0  0999 V2000
    3.8971   15.7500    0.0000 C   0  0  0  0  0  0  0  0  0  0  0  0
    2.5981   15.0000    0.0000 C   0  0  0  0  0  0  0  0  0  0  0  0
    2.5981   13.5000    0.0000 C   0  0  0  0  0  0  0  0  0  0  0  0
    1.2990   12.7500    0.0000 C   0  0  0  0  0  0  0  0  0  0  0  0
    1.2990   11.2500    0.0000 C   0  0  0  0  0  0  0  0  0  0  0  0
    0.0000   10.5000    0.0000 C   0  0  0  0  0  0  0  0  0  0  0  0
    0.0000    9.0000    0.0000 C   0  0  0  0  0  0  0  0  0  0  0  0
   -1.2990    8.2500    0.0000 C   0  0  0  0  0  0  0  0  0  0  0  0
   -1.2990    6.7500    0.0000 C   0  0  0  0  0  0  0  0  0  0  0  0
   -2.5981    6.0000    0.0000 C   0  0  0  0  0  0  0  0  0  0  0  0
   -3.8971    6.7500    0.0000 C   0  0  0  0  0  0  0  0  0  0  0  0
   -5.1962    6.0000    0.0000 C   0  0  0  0  0  0  0  0  0  0  0  0
   -6.4952    6.7500    0.0000 C   0  0  0  0  0  0  0  0  0  0  0  0
   -7.7942    6.0000    0.0000 C   0  0  0  0  0  0  0  0  0  0  0  0
   -9.0933    6.7500    0.0000 C   0  0  0  0  0  0  0  0  0  0  0  0
  -10.3923    6.0000    0.0000 C   0  0  0  0  0  0  0  0  0  0  0  0
  -11.6913    6.7500    0.0000 O   0  0  0  0  0  0  0  0  0  0  0  0
  2  1  1  0
  3  2  1  0
  4  3  1  0
  5  4  1  0
  5  6  2  0
  7  6  1  0
  8  7  1  0
  9  8  1  0
  9 10  2  0
 11 10  1  0
 12 11  1  0
 13 12  1  0
 14 13  1  0
 15 14  1  0
 16 15  1  0
 17 16  1  0
M  END
>  <NAME>  (3030) 
(7Z,11Z)-7,11-HEXADECADIENOL

>  <SYNONYMS>  (3030) 


>  <SPECTRUM TYPE>  (3030) 
MS1

>  <INSTRUMENT TYPE>  (3030) 
EI-B

>  <INSTRUMENT>  (3030) 
HITACHI M-80

>  <ION MODE>  (3030) 
P

>  <INCHIKEY>  (3030) 
ZWMPSFHVSWYKPO-QMRMAQATSA-N

>  <FORMULA>  (3030) 
C16H30O

>  <EXACT MASS>  (3030) 
238.22966558

>  <MW>  (3030) 
238

>  <ID>  (3030) 
JP008128

>  <CONTRIBUTOR>  (3030) 
University of Tokyo Team, {Faculty of Engineering, University of Tokyo

>  <COMMENT>  (3030) 
SMILES=OCCCCCCC([H])=C([H])CCC([H])=C([H])CCCC
InChI=InChI=1S/C16H30O/c1-2-3-4-5-6-7-8-9-10-11-12-13-14-15-16-17/h5-6,9-10,17H,2-4,7-8,11-16H2,1H3/b6-5+,10-9-
computed SMILES=OCCCCCCC=CCCC=CCCCC
accession=JP008128
date=2016.01.19 (Created 2008.10.21, modified 2011.05.06)
author=YAMAOKA R, KYOTO INSTITUTE OF TECHNOLOGY
license=CC BY-NC-SA
exact mass=238.22967
ionization energy=70 eV
ion type=[M]+*
computed spectral entropy=3.0642412508563672
computed normalized entropy=0.804967936897724
SPLASH=splash10-0apj-9000000000-37c19e78d6460c860b16
submitter=submitter = University of Tokyo Team (Faculty of Engineering, University of Tokyo)
MoNA Rating=3.75

>  <NUM PEAKS>  (3030) 
45

>  <MASS SPECTRAL PEAKS>  (3030) 
41 39.2
42 2.27
43 13.49
45 1.48
53 6.36
54 20.7
55 99.99
56 6.01
57 3.04
58 1.61
65 1.97
66 1.73
67 36.92
68 11.88
69 15.65
70 2.13
71 4.38
73 1.44
77 3.05
79 9.58
80 8.62
81 45.48
82 13.75
83 2.4
85 2.91
91 1.39
93 5.72
94 4.12
95 15.26
96 17.08
97 20.4
98 3.81
107 4.18
109 3.04
110 4.11
111 1.68
121 2.42
122 1.31
123 5.38
124 5.27
137 3.78
138 2.3
151 1.03
238 6.3
239 1.14

$$$$

     RDKit          2D

 17 18  0  0  0  0  0  0  0  0999 V2000
   -4.0054   -1.1220    0.0000 C   0  0  0  0  0  0  0  0  0  0  0  0
   -2.5129   -1.2800    0.0000 C   0  0  0  0  0  0  0  0  0  0  0  0
   -4.6156    0.2492    0.0000 C   0  0  0  0  0  0  0  0  0  0  0  0
   -1.6307   -0.0669    0.0000 C   0  0  0  0  0  0  0  0  0  0  0  0
   -3.7334    1.4623    0.0000 C   0  0  0  0  0  0  0  0  0  0  0  0
    3.3974    2.3600    0.0000 C   0  0  0  0  0  0  0  0  0  0  0  0
    4.8891    2.5174    0.0000 C   0  0  0  0  0  0  0  0  0  0  0  0
   -1.3587    2.5174    0.0000 C   0  0  0  0  0  0  0  0  0  0  0  0
    0.5552    4.9931    0.0000 C   0  0  0  0  0  0  0  0  0  0  0  0
   -2.2409    1.3043    0.0000 C   0  0  0  0  0  0  0  0  0  0  0  0
    2.5152    3.5731    0.0000 C   0  0  0  0  0  0  0  0  0  0  0  0
    1.0152    3.5731    0.0000 C   0  0  0  0  0  0  0  0  0  0  0  0
    2.9752    4.9931    0.0000 C   0  0  0  0  0  0  0  0  0  0  0  0
    6.3808    2.6749    0.0000 N   0  0  0  0  0  0  0  0  0  0  0  0
    0.1330    2.3600    0.0000 N   0  0  0  0  0  0  0  0  0  0  0  0
    4.4029    5.4531    0.0000 O   0  0  0  0  0  0  0  0  0  0  0  0
    1.7652    5.8831    0.0000 O   0  0  0  0  0  0  0  0  0  0  0  0
  2  1  2  0
  3  1  1  0
  4  2  1  0
  5  3  2  0
  7  6  1  0
 10  4  2  0
 10  5  1  0
 10  8  1  0
 11  6  1  0
 12  9  1  0
 12 11  2  0
 13 11  1  0
 14  7  3  0
 15  8  1  0
 15 12  1  0
 16 13  2  0
 17  9  1  0
 17 13  1  0
M  END
>  <NAME>  (3031) 
3-BENZYLAMINO-2-CYANOMETHYL-2-BUTEN-4-OLIDE

>  <SYNONYMS>  (3031) 


>  <SPECTRUM TYPE>  (3031) 
MS1

>  <INSTRUMENT TYPE>  (3031) 
EI-B

>  <INSTRUMENT>  (3031) 
JEOL JMS-HX-100

>  <ION MODE>  (3031) 
P

>  <INCHIKEY>  (3031) 
BZIOKUMHDIBMJI-UHFFFAOYSA-N

>  <FORMULA>  (3031) 
C13H12N2O2

>  <EXACT MASS>  (3031) 
228.089877624

>  <MW>  (3031) 
228

>  <ID>  (3031) 
JP008127

>  <CONTRIBUTOR>  (3031) 
University of Tokyo Team, {Faculty of Engineering, University of Tokyo

>  <COMMENT>  (3031) 
SMILES=N#CCC(C(=O)1)=C(NCc(c2)cccc2)CO1
InChI=InChI=1S/C13H12N2O2/c14-7-6-11-12(9-17-13(11)16)15-8-10-4-2-1-3-5-10/h1-5,15H,6,8-9H2
computed SMILES=N#CCC=1C(=O)OCC1NCC=2C=CC=CC2
accession=JP008127
date=2016.01.19 (Created 2008.10.21, modified 2011.05.06)
author=YAMAMOTO M, DEP. CHEMISTRY, FAC. SCIENCE, NARA WOMEN'S UNIV.
license=CC BY-NC-SA
exact mass=228.08988
ionization energy=70 eV
ion type=[M]+*
computed spectral entropy=1.9486714928156186
computed normalized entropy=0.5437871338989396
SPLASH=splash10-0006-9020000000-5fffe7cf95526e5910e6
submitter=submitter = University of Tokyo Team (Faculty of Engineering, University of Tokyo)
MoNA Rating=3.75

>  <NUM PEAKS>  (3031) 
36

>  <MASS SPECTRAL PEAKS>  (3031) 
39 3.02
41 1.7
43 0.66
50 0.79
51 2.39
52 1.97
55 0.66
57 0.98
63 1.71
64 0.76
65 8.68
66 1.06
69 1.11
71 0.62
77 1.57
78 1.04
80 1.17
81 0.57
89 2.16
90 1.21
91 99.99
92 9.6
93 0.51
104 1.36
105 0.73
115 0.69
116 0.64
149 1.12
156 0.67
183 0.54
200 1.12
201 0.68
227 1.08
228 35.29
229 5.98
230 0.62

$$$$

     RDKit          2D

 12 12  0  0  0  0  0  0  0  0999 V2000
   -4.0061   -0.0669    0.0000 C   0  0  0  0  0  0  0  0  0  0  0  0
    3.1239   -1.2800    0.0000 C   0  0  0  0  0  0  0  0  0  0  0  0
    2.8512    1.3037    0.0000 C   0  0  0  0  0  0  0  0  0  0  0  0
    0.7500   -0.2243    0.0000 C   0  0  0  0  0  0  0  0  0  0  0  0
   -2.0922    2.4088    0.0000 C   0  0  0  0  0  0  0  0  0  0  0  0
   -0.1322    0.9888    0.0000 C   0  0  0  0  0  0  0  0  0  0  0  0
   -1.6322    0.9888    0.0000 C   0  0  0  0  0  0  0  0  0  0  0  0
    0.3278    2.4088    0.0000 C   0  0  0  0  0  0  0  0  0  0  0  0
   -2.5144   -0.2243    0.0000 N   0  0  0  0  0  0  0  0  0  0  0  0
    2.2417   -0.0669    0.0000 N   0  0  0  0  0  0  0  0  0  0  0  0
    1.7555    2.8688    0.0000 O   0  0  0  0  0  0  0  0  0  0  0  0
   -0.8822    3.2988    0.0000 O   0  0  0  0  0  0  0  0  0  0  0  0
  6  4  1  0
  7  5  1  0
  7  6  2  0
  8  6  1  0
  9  1  1  0
  9  7  1  0
 10  2  1  0
 10  3  1  0
 10  4  1  0
 11  8  2  0
 12  5  1  0
 12  8  1  0
M  END
>  <NAME>  (3032) 
2-(N,N-DIMETHYLAMINO)METHYL-3-METHYLAMINO-2-BUTEN-4-OLIDE

>  <SYNONYMS>  (3032) 


>  <SPECTRUM TYPE>  (3032) 
MS1

>  <INSTRUMENT TYPE>  (3032) 
EI-B

>  <INSTRUMENT>  (3032) 
JEOL JMS-HX-100

>  <ION MODE>  (3032) 
P

>  <INCHIKEY>  (3032) 
GILQMCKXNBCQAD-UHFFFAOYSA-N

>  <FORMULA>  (3032) 
C8H14N2O2

>  <EXACT MASS>  (3032) 
170.105527688

>  <MW>  (3032) 
170

>  <ID>  (3032) 
JP008126

>  <CONTRIBUTOR>  (3032) 
University of Tokyo Team, {Faculty of Engineering, University of Tokyo

>  <COMMENT>  (3032) 
SMILES=CNC(C1)=C(CN(C)C)C(=O)O1
InChI=InChI=1S/C8H14N2O2/c1-9-7-5-12-8(11)6(7)4-10(2)3/h9H,4-5H2,1-3H3
computed SMILES=O=C1OCC(NC)=C1CN(C)C
accession=JP008126
date=2016.01.19 (Created 2008.10.21, modified 2011.05.06)
author=YAMAMOTO M, DEP. CHEMISTRY, FAC. SCIENCE, NARA WOMEN'S UNIV.
license=CC BY-NC-SA
exact mass=170.10553
ionization energy=70 eV
ion type=[M]+*
computed spectral entropy=3.3825293094712827
computed normalized entropy=0.7763955416872486
SPLASH=splash10-0abc-9700000000-28de2c7563541f36798a
submitter=submitter = University of Tokyo Team (Faculty of Engineering, University of Tokyo)
MoNA Rating=3.75

>  <NUM PEAKS>  (3032) 
78

>  <MASS SPECTRAL PEAKS>  (3032) 
39 2.61
40 1.21
41 4.12
42 18.97
43 3.58
44 99.99
45 31.09
46 7.54
51 0.65
52 3.1
53 4.82
54 3.51
55 40.48
56 9
57 2.97
58 32.18
59 1.64
63 0.33
65 0.53
66 6.35
67 17.35
68 11.56
69 2.01
70 3.12
71 0.49
72 50.71
73 1.91
74 0.71
79 0.73
80 9.62
81 12.85
82 34.02
83 2.67
84 5.63
85 0.47
86 0.41
93 0.44
94 6.3
95 5.1
96 15.75
97 5.46
98 16.5
99 1.8
100 0.4
108 1.93
109 6.8
110 2.47
111 3.58
112 1.99
113 2.21
114 0.83
118 0.53
121 0.3
122 0.66
123 0.5
124 5.92
125 4.98
126 74.41
127 30.46
128 3.04
136 0.4
137 12.14
138 2.84
139 2.04
140 46.83
141 4.52
142 0.5
153 0.66
154 0.53
155 96.37
156 10.82
157 1.28
167 1.19
168 0.62
169 3.91
170 51.89
171 9.29
172 1.04

$$$$

     RDKit          2D

 11 11  0  0  0  0  0  0  0  0999 V2000
    3.1239    2.0857    0.0000 C   0  0  0  0  0  0  0  0  0  0  0  0
   -1.6322    2.2431    0.0000 C   0  0  0  0  0  0  0  0  0  0  0  0
   -3.1239    2.0857    0.0000 C   0  0  0  0  0  0  0  0  0  0  0  0
    1.2100   -0.3900    0.0000 C   0  0  0  0  0  0  0  0  0  0  0  0
   -0.7500    1.0300    0.0000 C   0  0  0  0  0  0  0  0  0  0  0  0
    0.7500    1.0300    0.0000 C   0  0  0  0  0  0  0  0  0  0  0  0
   -1.2100   -0.3900    0.0000 C   0  0  0  0  0  0  0  0  0  0  0  0
   -4.6156    1.9282    0.0000 N   0  0  0  0  0  0  0  0  0  0  0  0
    1.6322    2.2431    0.0000 N   0  0  0  0  0  0  0  0  0  0  0  0
   -2.6377   -0.8500    0.0000 O   0  0  0  0  0  0  0  0  0  0  0  0
   -0.0000   -1.2800    0.0000 O   0  0  0  0  0  0  0  0  0  0  0  0
  3  2  1  0
  5  2  1  0
  6  4  1  0
  6  5  2  0
  7  5  1  0
  8  3  3  0
  9  1  1  0
  9  6  1  0
 10  7  2  0
 11  4  1  0
 11  7  1  0
M  END
>  <NAME>  (3033) 
2-CYANOMETHYL-3-METHYLAMINO-2-BUTEN-4-OLIDE

>  <SYNONYMS>  (3033) 


>  <SPECTRUM TYPE>  (3033) 
MS1

>  <INSTRUMENT TYPE>  (3033) 
EI-B

>  <INSTRUMENT>  (3033) 
JEOL JMS-HX-100

>  <ION MODE>  (3033) 
P

>  <INCHIKEY>  (3033) 
OVJFESRPJIBLLE-UHFFFAOYSA-N

>  <FORMULA>  (3033) 
C7H8N2O2

>  <EXACT MASS>  (3033) 
152.058577496

>  <MW>  (3033) 
152

>  <ID>  (3033) 
JP008125

>  <CONTRIBUTOR>  (3033) 
University of Tokyo Team, {Faculty of Engineering, University of Tokyo

>  <COMMENT>  (3033) 
SMILES=N#CCC(C(=O)1)=C(NC)CO1
InChI=InChI=1S/C7H8N2O2/c1-9-6-4-11-7(10)5(6)2-3-8/h9H,2,4H2,1H3
computed SMILES=N#CCC=1C(=O)OCC1NC
accession=JP008125
license=CC BY-NC-SA
date=2016.01.19 (Created 2008.10.21, modified 2011.05.06)
author=YAMAMOTO M, DEP. CHEMISTRY, FAC. SCIENCE, NARA WOMEN'S UNIV.
exact mass=152.05858
ionization energy=70 eV
ion type=[M]+*
computed spectral entropy=3.29357649040657
computed normalized entropy=0.798029863612155
SPLASH=splash10-0zfr-7900000000-0a81d28288590eb18127
submitter=submitter = University of Tokyo Team (Faculty of Engineering, University of Tokyo)
MoNA Rating=3.75

>  <NUM PEAKS>  (3033) 
62

>  <MASS SPECTRAL PEAKS>  (3033) 
38 0.47
39 4.04
40 0.67
41 3.26
42 10.54
43 0.46
44 1.39
50 0.4
51 1.72
52 7.92
53 4.19
54 3.69
55 5.77
56 2.19
58 2.32
64 1.03
65 2.13
66 11.54
67 12.51
68 13.33
69 2.44
72 10.11
73 0.67
76 0.42
77 1.89
78 3.98
79 24.28
80 12.71
81 4.49
82 4.58
83 1.29
84 0.65
91 1.19
92 1.51
93 7.86
94 9.94
95 4.66
96 7.52
97 2.9
98 0.54
105 3.34
106 25.42
107 38.39
108 9.58
109 1.55
112 1.88
119 1.45
121 3.94
122 0.95
123 7.14
124 7.56
125 3.42
126 1.87
133 3.73
134 8.44
135 1.51
136 0.3
137 1.21
151 7.06
152 99.99
153 10.56
154 1.03

$$$$

     RDKit          2D

 12 12  0  0  0  0  0  0  0  0999 V2000
    3.1239    2.0857    0.0000 C   0  0  0  0  0  0  0  0  0  0  0  0
    1.0227    3.6137    0.0000 C   0  0  0  0  0  0  0  0  0  0  0  0
   -4.0061    3.2988    0.0000 C   0  0  0  0  0  0  0  0  0  0  0  0
   -1.6322    2.2431    0.0000 C   0  0  0  0  0  0  0  0  0  0  0  0
    1.2100   -0.3900    0.0000 C   0  0  0  0  0  0  0  0  0  0  0  0
   -0.7500    1.0300    0.0000 C   0  0  0  0  0  0  0  0  0  0  0  0
    0.7500    1.0300    0.0000 C   0  0  0  0  0  0  0  0  0  0  0  0
   -1.2100   -0.3900    0.0000 C   0  0  0  0  0  0  0  0  0  0  0  0
    1.6322    2.2431    0.0000 N   0  0  0  0  0  0  0  0  0  0  0  0
   -2.6377   -0.8500    0.0000 O   0  0  0  0  0  0  0  0  0  0  0  0
   -3.1239    2.0857    0.0000 O   0  0  0  0  0  0  0  0  0  0  0  0
   -0.0000   -1.2800    0.0000 O   0  0  0  0  0  0  0  0  0  0  0  0
  6  4  1  0
  7  5  1  0
  7  6  2  0
  8  6  1  0
  9  1  1  0
  9  2  1  0
  9  7  1  0
 10  8  2  0
 11  3  1  0
 11  4  1  0
 12  5  1  0
 12  8  1  0
M  END
>  <NAME>  (3034) 
3-DIMETHYLAMINO-2-METHOXYMETHYL-2-BUTEN-4-OLIDE

>  <SYNONYMS>  (3034) 


>  <SPECTRUM TYPE>  (3034) 
MS1

>  <INSTRUMENT TYPE>  (3034) 
EI-B

>  <INSTRUMENT>  (3034) 
JEOL JMS-HX-100

>  <ION MODE>  (3034) 
P

>  <INCHIKEY>  (3034) 
RGWNVTBGNOHVBO-UHFFFAOYSA-N

>  <FORMULA>  (3034) 
C8H13NO3

>  <EXACT MASS>  (3034) 
171.089543276

>  <MW>  (3034) 
171

>  <ID>  (3034) 
JP008124

>  <CONTRIBUTOR>  (3034) 
University of Tokyo Team, {Faculty of Engineering, University of Tokyo

>  <COMMENT>  (3034) 
SMILES=COCC(C(=O)1)=C(CO1)N(C)C
InChI=InChI=1S/C8H13NO3/c1-9(2)7-5-12-8(10)6(7)4-11-3/h4-5H2,1-3H3
computed SMILES=O=C1OCC(=C1COC)N(C)C
date=2016.01.19 (Created 2008.10.21, modified 2011.05.06)
author=YAMAMOTO M, DEP. CHEMISTRY, FAC. SCIENCE, NARA WOMEN'S UNIV.
license=CC BY-NC-SA
accession=JP008124
exact mass=171.08954
ionization energy=70 eV
ion type=[M]+*
computed spectral entropy=2.8756577492946223
computed normalized entropy=0.6768650040684717
SPLASH=splash10-0006-6900000000-9f2ca5802e404aa7f9af
submitter=submitter = University of Tokyo Team (Faculty of Engineering, University of Tokyo)
MoNA Rating=3.75

>  <NUM PEAKS>  (3034) 
70

>  <MASS SPECTRAL PEAKS>  (3034) 
39 1.25
40 0.39
41 2.17
42 6.33
43 1.9
44 4.6
45 8.27
46 0.94
52 0.56
53 1.67
54 0.74
55 3.01
56 3.7
57 1.18
58 3.66
61 0.67
66 1.81
67 3.92
68 2.72
69 2.87
70 1.71
71 0.71
72 1.73
73 0.34
74 0.54
79 0.4
80 0.89
81 2.82
82 6.24
83 2.02
84 1.15
85 0.95
86 67.59
87 3.91
88 0.66
94 3.07
95 1.11
96 16.06
97 1.93
98 1.4
99 0.38
108 0.37
109 0.36
110 1.3
111 2.57
112 2.94
113 0.63
115 0.89
116 0.33
118 1.61
122 0.64
124 0.76
126 2.13
127 2.28
128 1.4
129 0.34
138 2.05
139 5.25
140 99.99
141 44.58
142 4.33
143 0.65
149 1.34
154 1.62
156 4.48
157 0.49
170 3.1
171 50.91
172 5.61
173 0.84

$$$$

     RDKit          2D

 15 16  0  0  0  0  0  0  0  0999 V2000
    0.7318    0.7032    0.0000 C   0  0  0  0  0  0  0  0  0  0  0  0
    0.3913    5.4497    0.0000 C   0  0  0  0  0  0  0  0  0  0  0  0
   -3.5075    1.7014    0.0000 C   0  0  0  0  0  0  0  0  0  0  0  0
   -3.5073    3.2023    0.0000 C   0  0  0  0  0  0  0  0  0  0  0  0
   -2.2083    0.9500    0.0000 C   0  0  0  0  0  0  0  0  0  0  0  0
   -2.2080    3.9517    0.0000 C   0  0  0  0  0  0  0  0  0  0  0  0
   -0.9090    1.6995    0.0000 C   0  0  0  0  0  0  0  0  0  0  0  0
    3.0534    3.8051    0.0000 C   0  0  0  0  0  0  0  0  0  0  0  0
    1.8461    1.7074    0.0000 C   0  0  0  0  0  0  0  0  0  0  0  0
   -0.9088    3.2003    0.0000 C   0  0  0  0  0  0  0  0  0  0  0  0
    1.6893    3.1991    0.0000 C   0  0  0  0  0  0  0  0  0  0  0  0
    3.3064    1.3983    0.0000 C   0  0  0  0  0  0  0  0  0  0  0  0
    0.3906    3.9497    0.0000 N   0  0  0  0  0  0  0  0  0  0  0  0
    3.9131    0.0265    0.0000 O   0  0  0  0  0  0  0  0  0  0  0  0
    4.0650    2.6947    0.0000 O   0  0  0  0  0  0  0  0  0  0  0  0
  4  3  2  0
  5  3  1  0
  6  4  1  0
  7  5  2  0
  9  1  1  0
 10  6  2  0
 10  7  1  0
 11  8  1  0
 11  9  2  0
 12  9  1  0
 13  2  1  0
 13 10  1  0
 13 11  1  0
 14 12  2  0
 15  8  1  0
 15 12  1  0
M  END
>  <NAME>  (3035) 
3-METHYLPHENYLAMINO-2-METHYL-2-BUTEN-4-OLIDE

>  <SYNONYMS>  (3035) 


>  <SPECTRUM TYPE>  (3035) 
MS1

>  <INSTRUMENT TYPE>  (3035) 
EI-B

>  <INSTRUMENT>  (3035) 
JEOL JMS-HX-100

>  <ION MODE>  (3035) 
P

>  <INCHIKEY>  (3035) 
KSQNRBUGSVRPHY-UHFFFAOYSA-N

>  <FORMULA>  (3035) 
C12H13NO2

>  <EXACT MASS>  (3035) 
203.094628656

>  <MW>  (3035) 
203

>  <ID>  (3035) 
JP008123

>  <CONTRIBUTOR>  (3035) 
University of Tokyo Team, {Faculty of Engineering, University of Tokyo

>  <COMMENT>  (3035) 
SMILES=O=C(O2)C(C)=C(C2)N(C)c(c1)cccc1
InChI=InChI=1S/C12H13NO2/c1-9-11(8-15-12(9)14)13(2)10-6-4-3-5-7-10/h3-7H,8H2,1-2H3
computed SMILES=O=C1OCC(=C1C)N(C=2C=CC=CC2)C
accession=JP008123
date=2016.01.19 (Created 2008.10.21, modified 2011.05.06)
author=YAMAMOTO M, DEP. CHEMISTRY, FAC. SCIENCE, NARA WOMEN'S UNIV.
license=CC BY-NC-SA
exact mass=203.09463
ionization energy=70 eV
ion type=[M]+*
computed spectral entropy=3.5091734860869948
computed normalized entropy=0.7409261930898514
SPLASH=splash10-0udi-3960000000-bd3f9813720c6b13a034
submitter=submitter = University of Tokyo Team (Faculty of Engineering, University of Tokyo)
MoNA Rating=3.75

>  <NUM PEAKS>  (3035) 
114

>  <MASS SPECTRAL PEAKS>  (3035) 
39 0.7
41 1.74
42 2.35
43 0.76
51 2.17
52 0.38
53 0.77
54 0.43
55 1.37
56 0.97
57 1.71
60 0.38
61 0.39
65 1.14
66 1.91
67 0.84
68 7.89
69 1.76
70 0.6
71 1.29
72 0.6
73 0.61
76 0.42
77 16.05
78 2.71
79 1.49
80 0.44
81 0.85
82 0.84
83 2.83
84 0.36
85 0.86
89 0.53
90 0.42
91 5.42
92 0.91
93 0.58
94 0.35
95 0.66
96 4.54
97 0.8
98 0.43
99 0.45
101 0.37
102 0.66
103 3.49
104 5.58
105 4.5
106 2.54
107 2.86
108 0.47
109 0.52
111 0.5
112 30.48
113 2.09
114 0.39
115 2.38
116 1.43
117 2.62
118 3.34
119 0.6
120 1.07
121 0.38
123 0.45
124 0.3
125 0.36
127 0.49
128 1.59
129 2.69
130 8.11
131 6.23
132 4.97
133 0.91
134 0.48
136 0.36
137 0.42
138 0.3
141 0.39
142 1.33
143 4.21
144 12.97
145 5.1
146 12.9
147 1.79
148 1.39
149 5.52
150 0.68
151 0.3
155 0.32
156 14.6
157 3.19
158 16.58
159 2.86
160 1.61
161 0.39
170 0.36
171 0.35
172 0.81
173 0.89
174 4.96
175 1.58
176 0.31
184 0.92
185 0.45
186 0.42
187 0.43
188 1.58
200 0.73
201 0.57
202 14.57
203 99.99
204 16.85
205 2.21
206 0.63

$$$$

     RDKit          2D

 15 16  0  0  0  0  0  0  0  0999 V2000
    5.0962    0.9298    0.0000 C   0  0  0  0  0  0  0  0  0  0  0  0
   -3.0828    0.7599    0.0000 C   0  0  0  0  0  0  0  0  0  0  0  0
   -1.7837    0.0085    0.0000 C   0  0  0  0  0  0  0  0  0  0  0  0
   -3.0827    2.2607    0.0000 C   0  0  0  0  0  0  0  0  0  0  0  0
   -0.4843    0.7579    0.0000 C   0  0  0  0  0  0  0  0  0  0  0  0
   -1.7833    3.0101    0.0000 C   0  0  0  0  0  0  0  0  0  0  0  0
    0.8153    3.0081    0.0000 C   0  0  0  0  0  0  0  0  0  0  0  0
    3.5707    4.4913    0.0000 C   0  0  0  0  0  0  0  0  0  0  0  0
    4.7837    2.3969    0.0000 C   0  0  0  0  0  0  0  0  0  0  0  0
   -0.4841    2.2587    0.0000 C   0  0  0  0  0  0  0  0  0  0  0  0
    3.4133    3.0070    0.0000 C   0  0  0  0  0  0  0  0  0  0  0  0
    5.7815    3.5070    0.0000 C   0  0  0  0  0  0  0  0  0  0  0  0
    2.1140    2.2576    0.0000 N   0  0  0  0  0  0  0  0  0  0  0  0
    7.2728    3.3465    0.0000 O   0  0  0  0  0  0  0  0  0  0  0  0
    5.0381    4.8122    0.0000 O   0  0  0  0  0  0  0  0  0  0  0  0
  3  2  2  0
  4  2  1  0
  5  3  1  0
  6  4  2  0
  9  1  1  0
 10  5  2  0
 10  6  1  0
 10  7  1  0
 11  8  1  0
 11  9  2  0
 12  9  1  0
 13  7  1  0
 13 11  1  0
 14 12  2  0
 15  8  1  0
 15 12  1  0
M  END
>  <NAME>  (3036) 
3-BENZYLAMINO-2-METHYL-2-BUTEN-4-OLIDE

>  <SYNONYMS>  (3036) 


>  <SPECTRUM TYPE>  (3036) 
MS1

>  <INSTRUMENT TYPE>  (3036) 
EI-B

>  <INSTRUMENT>  (3036) 
JEOL JMS-HX-100

>  <ION MODE>  (3036) 
P

>  <INCHIKEY>  (3036) 
ZZOBBYGZFYBUQE-UHFFFAOYSA-N

>  <FORMULA>  (3036) 
C12H13NO2

>  <EXACT MASS>  (3036) 
203.094628656

>  <MW>  (3036) 
203

>  <ID>  (3036) 
JP008122

>  <CONTRIBUTOR>  (3036) 
University of Tokyo Team, {Faculty of Engineering, University of Tokyo

>  <COMMENT>  (3036) 
SMILES=O=C(O1)C(C)=C(NCc(c2)cccc2)C1
InChI=InChI=1S/C12H13NO2/c1-9-11(8-15-12(9)14)13-7-10-5-3-2-4-6-10/h2-6,13H,7-8H2,1H3
computed SMILES=O=C1OCC(NCC=2C=CC=CC2)=C1C
accession=JP008122
date=2016.01.19 (Created 2008.10.21, modified 2011.05.06)
author=YAMAMOTO M, DEP. CHEMISTRY, FAC. SCIENCE, NARA WOMEN'S UNIV.
license=CC BY-NC-SA
exact mass=203.09463
ionization energy=70 eV
ion type=[M]+*
computed spectral entropy=2.503720921650897
computed normalized entropy=0.5220663617074958
SPLASH=splash10-0006-9020000000-219a007130d51babe437
submitter=submitter = University of Tokyo Team (Faculty of Engineering, University of Tokyo)
MoNA Rating=3.75

>  <NUM PEAKS>  (3036) 
121

>  <MASS SPECTRAL PEAKS>  (3036) 
38 0.29
39 3.29
41 2.19
42 0.4
43 1.18
44 0.11
50 0.6
51 1.88
52 1.01
53 1.07
54 0.68
55 1.27
56 0.27
57 1.09
59 0.1
60 0.84
62 0.52
63 1.76
64 0.56
65 9.81
66 0.78
67 0.51
68 0.66
69 1.76
70 0.43
71 0.63
72 0.59
73 0.92
74 0.11
75 0.18
76 0.22
77 1.37
78 0.77
79 0.37
80 0.22
81 0.79
82 0.54
83 1.03
84 0.39
85 0.35
87 0.39
88 0.21
89 2.3
90 0.98
91 99.99
92 9.69
93 0.42
94 0.1
95 0.38
96 0.2
97 0.69
98 0.27
99 0.18
100 0.18
101 0.23
102 0.13
103 0.22
104 1.07
106 0.16
107 0.15
109 0.2
111 0.48
112 0.22
113 0.18
114 0.22
115 0.9
116 0.35
117 0.36
118 0.17
120 0.16
121 0.29
123 0.21
124 0.18
125 0.3
126 0.11
128 0.16
129 0.75
130 0.5
131 0.25
135 0.18
136 0.14
137 0.21
138 0.13
140 0.12
142 0.22
143 0.72
144 0.63
145 0.2
147 0.12
148 0.23
149 0.13
151 0.14
152 0.11
156 0.64
157 0.46
158 0.86
159 0.18
163 0.11
164 0.22
165 0.21
167 0.35
169 0.12
171 0.21
172 0.24
174 0.35
175 0.12
176 0.16
177 0.11
184 0.18
185 0.42
186 0.21
188 0.15
191 0.27
193 0.17
199 0.22
200 0.19
201 0.19
202 0.65
203 40.33
204 6.11
205 0.6

$$$$

     RDKit          2D

 19 20  0  0  0  0  0  0  0  0999 V2000
    5.1970    0.8306    0.0000 C   0  0  0  0  0  0  0  0  0  0  0  0
    3.8981    0.0804    0.0000 C   0  0  0  0  0  0  0  0  0  0  0  0
   -1.2990    7.5800    0.0000 C   0  0  0  0  0  0  0  0  0  0  0  0
   -2.5990    6.8300    0.0000 C   0  0  0  0  0  0  0  0  0  0  0  0
    0.0010    6.8300    0.0000 C   0  0  0  0  0  0  0  0  0  0  0  0
   -0.0000   -2.1700    0.0000 C   0  0  0  0  0  0  0  0  0  0  0  0
   -2.5990    5.3300    0.0000 C   0  0  0  0  0  0  0  0  0  0  0  0
    0.0010    5.3300    0.0000 C   0  0  0  0  0  0  0  0  0  0  0  0
   -1.3000   -1.4200    0.0000 C   0  0  0  0  0  0  0  0  0  0  0  0
    1.3000   -1.4200    0.0000 C   0  0  0  0  0  0  0  0  0  0  0  0
   -2.5989    0.8302    0.0000 C   0  0  0  0  0  0  0  0  0  0  0  0
   -1.2990    3.0800    0.0000 C   0  0  0  0  0  0  0  0  0  0  0  0
   -1.2990    4.5800    0.0000 C   0  0  0  0  0  0  0  0  0  0  0  0
   -1.3000    0.0800    0.0000 C   0  0  0  0  0  0  0  0  0  0  0  0
    1.3000    0.0800    0.0000 C   0  0  0  0  0  0  0  0  0  0  0  0
   -0.0000    0.8300    0.0000 C   0  0  0  0  0  0  0  0  0  0  0  0
   -3.8981    0.0804    0.0000 O   0  0  0  0  0  0  0  0  0  0  0  0
    2.5989    0.8302    0.0000 O   0  0  0  0  0  0  0  0  0  0  0  0
    0.0000    2.3300    0.0000 O   0  0  0  0  0  0  0  0  0  0  0  0
  2  1  1  0
  4  3  2  0
  5  3  1  0
  7  4  1  0
  8  5  2  0
  9  6  2  0
 10  6  1  0
 13  7  2  0
 13  8  1  0
 13 12  1  0
 14  9  1  0
 14 11  1  0
 15 10  2  0
 16 14  2  0
 16 15  1  0
 17 11  2  0
 18  2  1  0
 18 15  1  0
 19 12  1  0
 19 16  1  0
M  END
>  <NAME>  (3037) 
2-BENZYLOXY-3-ETHOXYBENZALDEHYDE

>  <SYNONYMS>  (3037) 


>  <SPECTRUM TYPE>  (3037) 
MS1

>  <INSTRUMENT TYPE>  (3037) 
EI-B

>  <INSTRUMENT>  (3037) 
JEOL JMS-HX-100

>  <ION MODE>  (3037) 
P

>  <INCHIKEY>  (3037) 
QPOIBFQNRYMSCP-UHFFFAOYSA-N

>  <FORMULA>  (3037) 
C16H16O3

>  <EXACT MASS>  (3037) 
256.109944372

>  <MW>  (3037) 
256

>  <ID>  (3037) 
JP008121

>  <CONTRIBUTOR>  (3037) 
University of Tokyo Team, {Faculty of Engineering, University of Tokyo

>  <COMMENT>  (3037) 
SMILES=CCOc(c1)c(OCc(c2)cccc2)c(C=O)cc1
InChI=InChI=1S/C16H16O3/c1-2-18-15-10-6-9-14(11-17)16(15)19-12-13-7-4-3-5-8-13/h3-11H,2,12H2,1H3
computed SMILES=O=CC=1C=CC=C(OCC)C1OCC=2C=CC=CC2
accession=JP008121
date=2016.01.19 (Created 2008.10.21, modified 2011.05.06)
author=YAMAMOTO M, DEP. CHEMISTRY, FAC. SCIENCE, NARA WOMEN'S UNIV.
license=CC BY-NC-SA
exact mass=256.10994
ionization energy=70 eV
ion type=[M]+*
computed spectral entropy=2.632198751828328
computed normalized entropy=0.6096597564625098
SPLASH=splash10-0006-9210000000-3b393d634ff51eb8ee7f
submitter=submitter = University of Tokyo Team (Faculty of Engineering, University of Tokyo)
MoNA Rating=3.75

>  <NUM PEAKS>  (3037) 
75

>  <MASS SPECTRAL PEAKS>  (3037) 
27 1.45
28 0.74
29 1.25
32 0.19
38 0.28
39 2.31
40 0.23
41 1.22
43 0.35
50 0.64
51 2.35
52 1.98
53 1.36
55 1.11
56 0.25
57 0.64
61 0.28
62 0.37
63 2.08
64 0.8
65 8.65
66 0.58
67 0.24
69 0.44
70 0.31
71 0.49
76 0.28
77 0.89
79 0.94
80 0.9
81 2.56
82 0.24
83 0.34
85 0.28
89 1.73
90 0.86
91 99.99
92 9.21
93 0.69
94 0.23
95 0.3
97 0.33
105 0.45
107 0.96
108 1.15
109 3.98
110 0.39
115 0.31
119 0.24
120 0.75
121 0.76
122 0.68
128 0.22
136 3.77
137 2.01
138 0.43
141 0.23
149 4.19
150 0.61
152 0.34
153 0.33
163 0.28
164 9.63
165 5.67
166 0.78
167 0.43
181 0.44
197 0.25
199 0.38
227 10.14
228 4.95
229 0.74
256 12.24
257 2.24
258 0.29

$$$$

     RDKit          2D

 18 19  0  0  0  0  0  0  0  0999 V2000
    4.2220    4.7685    0.0000 C   0  0  0  0  0  0  0  0  0  0  0  0
   -4.8714    4.0175    0.0000 C   0  0  0  0  0  0  0  0  0  0  0  0
   -4.8719    2.5167    0.0000 C   0  0  0  0  0  0  0  0  0  0  0  0
   -3.5719    4.7683    0.0000 C   0  0  0  0  0  0  0  0  0  0  0  0
    4.2219    0.2675    0.0000 C   0  0  0  0  0  0  0  0  0  0  0  0
   -3.5728    1.7667    0.0000 C   0  0  0  0  0  0  0  0  0  0  0  0
   -2.2728    4.0183    0.0000 C   0  0  0  0  0  0  0  0  0  0  0  0
    2.9224   -0.4833    0.0000 C   0  0  0  0  0  0  0  0  0  0  0  0
    4.2224    1.7683    0.0000 C   0  0  0  0  0  0  0  0  0  0  0  0
    0.3242   -0.4831    0.0000 C   0  0  0  0  0  0  0  0  0  0  0  0
   -0.9743    1.7675    0.0000 C   0  0  0  0  0  0  0  0  0  0  0  0
   -2.2733    2.5175    0.0000 C   0  0  0  0  0  0  0  0  0  0  0  0
    1.6233    0.2667    0.0000 C   0  0  0  0  0  0  0  0  0  0  0  0
    2.9233    2.5183    0.0000 C   0  0  0  0  0  0  0  0  0  0  0  0
    1.6238    1.7675    0.0000 C   0  0  0  0  0  0  0  0  0  0  0  0
    0.3239   -1.9831    0.0000 O   0  0  0  0  0  0  0  0  0  0  0  0
    2.9231    4.0183    0.0000 O   0  0  0  0  0  0  0  0  0  0  0  0
    0.3248    2.5175    0.0000 O   0  0  0  0  0  0  0  0  0  0  0  0
  3  2  2  0
  4  2  1  0
  6  3  1  0
  7  4  2  0
  8  5  2  0
  9  5  1  0
 12  6  2  0
 12  7  1  0
 12 11  1  0
 13  8  1  0
 13 10  1  0
 14  9  2  0
 15 13  2  0
 15 14  1  0
 16 10  2  0
 17  1  1  0
 17 14  1  0
 18 11  1  0
 18 15  1  0
M  END
>  <NAME>  (3038) 
2-BENZYLOXY-3-METHOXYBENZALDEHYDE

>  <SYNONYMS>  (3038) 


>  <SPECTRUM TYPE>  (3038) 
MS1

>  <INSTRUMENT TYPE>  (3038) 
EI-B

>  <INSTRUMENT>  (3038) 
JEOL JMS-HX-100

>  <ION MODE>  (3038) 
P

>  <INCHIKEY>  (3038) 
KXBGOVZWCRLLOR-UHFFFAOYSA-N

>  <FORMULA>  (3038) 
C15H14O3

>  <EXACT MASS>  (3038) 
242.09429430799997

>  <MW>  (3038) 
242

>  <ID>  (3038) 
JP008120

>  <CONTRIBUTOR>  (3038) 
University of Tokyo Team, {Faculty of Engineering, University of Tokyo

>  <COMMENT>  (3038) 
SMILES=O=Cc(c1)c(OCc(c2)cccc2)c(OC)cc1
InChI=InChI=1S/C15H14O3/c1-17-14-9-5-8-13(10-16)15(14)18-11-12-6-3-2-4-7-12/h2-10H,11H2,1H3
computed SMILES=O=CC=1C=CC=C(OC)C1OCC=2C=CC=CC2
accession=JP008120
date=2016.01.19 (Created 2008.10.21, modified 2011.05.06)
author=YAMAMOTO M, DEP. CHEMISTRY, FAC. SCIENCE, NARA WOMEN'S UNIV.
license=CC BY-NC-SA
exact mass=242.09429
ionization energy=70 eV
ion type=[M]+*
computed spectral entropy=2.5198805982728048
computed normalized entropy=0.5818600223735318
SPLASH=splash10-0006-9210000000-2d6feb548e16f5c15dcf
submitter=submitter = University of Tokyo Team (Faculty of Engineering, University of Tokyo)
MoNA Rating=3.75

>  <NUM PEAKS>  (3038) 
76

>  <MASS SPECTRAL PEAKS>  (3038) 
15 0.16
26 0.18
27 0.28
28 0.79
29 0.25
32 0.32
38 0.4
39 2.98
40 0.25
41 1.51
43 0.15
50 0.99
51 3.24
52 2.91
53 0.68
54 0.16
55 0.44
57 0.17
61 0.13
62 0.52
63 2.43
64 0.93
65 10.8
66 0.74
67 0.55
69 0.13
74 0.16
75 0.25
76 0.48
77 1.45
78 0.3
79 1.28
80 1.38
81 0.22
89 1.84
90 0.91
91 99.99
92 10.09
93 1.13
94 0.18
95 0.46
104 0.13
105 0.46
106 0.21
107 1.32
108 2.9
109 0.36
115 0.28
119 0.46
120 0.7
121 0.91
122 2.9
123 0.43
128 0.11
135 0.12
136 1.01
137 0.15
139 0.12
141 0.22
149 0.6
150 12.4
151 6.25
152 1.04
153 0.37
165 0.14
169 0.12
181 0.43
182 0.15
187 0.11
197 0.22
213 12.53
214 5.63
215 0.8
242 11.22
243 1.91
244 0.24

$$$$

     RDKit          2D

 24 26  0  0  0  0  0  0  0  0999 V2000
    4.5482    4.4448    0.0000 C   0  0  0  0  0  0  0  0  0  0  0  0
  -11.0411    4.4471    0.0000 C   0  0  0  0  0  0  0  0  0  0  0  0
    4.5486    5.9457    0.0000 C   0  0  0  0  0  0  0  0  0  0  0  0
    3.2486    3.6940    0.0000 C   0  0  0  0  0  0  0  0  0  0  0  0
   -9.7417    3.6961    0.0000 C   0  0  0  0  0  0  0  0  0  0  0  0
  -11.0414    5.9480    0.0000 C   0  0  0  0  0  0  0  0  0  0  0  0
    3.2496    6.6957    0.0000 C   0  0  0  0  0  0  0  0  0  0  0  0
    1.9496    4.4440    0.0000 C   0  0  0  0  0  0  0  0  0  0  0  0
   -8.4426    4.4459    0.0000 C   0  0  0  0  0  0  0  0  0  0  0  0
   -9.7422    6.6978    0.0000 C   0  0  0  0  0  0  0  0  0  0  0  0
   -3.2467    8.9467    0.0000 C   0  0  0  0  0  0  0  0  0  0  0  0
   -1.9473    8.1957    0.0000 C   0  0  0  0  0  0  0  0  0  0  0  0
   -3.2462    5.9451    0.0000 C   0  0  0  0  0  0  0  0  0  0  0  0
   -5.8449    8.9469    0.0000 C   0  0  0  0  0  0  0  0  0  0  0  0
    0.6511    6.6948    0.0000 C   0  0  0  0  0  0  0  0  0  0  0  0
   -7.1437    6.6965    0.0000 C   0  0  0  0  0  0  0  0  0  0  0  0
    1.9501    5.9448    0.0000 C   0  0  0  0  0  0  0  0  0  0  0  0
   -8.4428    5.9467    0.0000 C   0  0  0  0  0  0  0  0  0  0  0  0
   -4.5458    8.1969    0.0000 C   0  0  0  0  0  0  0  0  0  0  0  0
   -1.9470    6.6948    0.0000 C   0  0  0  0  0  0  0  0  0  0  0  0
   -4.5456    6.6961    0.0000 C   0  0  0  0  0  0  0  0  0  0  0  0
   -7.1439    8.1969    0.0000 O   0  0  0  0  0  0  0  0  0  0  0  0
   -0.6480    5.9448    0.0000 O   0  0  0  0  0  0  0  0  0  0  0  0
   -5.8447    5.9463    0.0000 O   0  0  0  0  0  0  0  0  0  0  0  0
  3  1  2  0
  4  1  1  0
  5  2  2  0
  6  2  1  0
  7  3  1  0
  8  4  2  0
  9  5  1  0
 10  6  2  0
 12 11  2  0
 17  7  2  0
 17  8  1  0
 17 15  1  0
 18  9  2  0
 18 10  1  0
 18 16  1  0
 19 11  1  0
 19 14  1  0
 20 12  1  0
 20 13  2  0
 21 13  1  0
 21 19  2  0
 22 14  2  0
 23 15  1  0
 23 20  1  0
 24 16  1  0
 24 21  1  0
M  END
>  <NAME>  (3039) 
2,4-DIBENZYLOXYBENZALDEHYDE

>  <SYNONYMS>  (3039) 


>  <SPECTRUM TYPE>  (3039) 
MS1

>  <INSTRUMENT TYPE>  (3039) 
EI-B

>  <INSTRUMENT>  (3039) 
JEOL JMS-HX-100

>  <ION MODE>  (3039) 
P

>  <INCHIKEY>  (3039) 
DMYYTMVFUMDOGC-UHFFFAOYSA-N

>  <FORMULA>  (3039) 
C21H18O3

>  <EXACT MASS>  (3039) 
318.125594436

>  <MW>  (3039) 
318

>  <ID>  (3039) 
JP008119

>  <CONTRIBUTOR>  (3039) 
University of Tokyo Team, {Faculty of Engineering, University of Tokyo

>  <COMMENT>  (3039) 
SMILES=O=Cc(c1)c(OCc(c3)cccc3)cc(OCc(c2)cccc2)c1
InChI=InChI=1S/C21H18O3/c22-14-19-11-12-20(23-15-17-7-3-1-4-8-17)13-21(19)24-16-18-9-5-2-6-10-18/h1-14H,15-16H2
computed SMILES=O=CC1=CC=C(OCC=2C=CC=CC2)C=C1OCC=3C=CC=CC3
accession=JP008119
date=2016.01.19 (Created 2008.10.21, modified 2011.05.06)
author=YAMAMOTO M, DEP. CHEMISTRY, FAC. SCIENCE, NARA WOMEN'S UNIV.
license=CC BY-NC-SA
exact mass=318.12559
ionization energy=70 eV
ion type=[M]+*
computed spectral entropy=1.8234403302453521
computed normalized entropy=0.5012775643457222
SPLASH=splash10-0006-9012000000-a0267e69f2dfcf56abdc
submitter=submitter = University of Tokyo Team (Faculty of Engineering, University of Tokyo)
MoNA Rating=3.75

>  <NUM PEAKS>  (3039) 
38

>  <MASS SPECTRAL PEAKS>  (3039) 
44 0.04
50 0.26
51 1.03
52 0.37
63 1.56
64 0.74
65 8.81
66 0.52
77 0.53
89 1.47
90 0.79
91 99.99
92 8.77
93 0.42
121 0.38
128 0.27
129 0.27
141 0.44
153 0.43
167 0.36
180 0.49
181 1.66
182 0.34
197 0.29
199 1.08
200 0.29
209 0.25
210 0.6
211 0.32
226 0.52
227 4.25
228 1.08
289 6.41
290 1.51
301 0.3
318 29.82
319 7
320 0.99

$$$$

     RDKit          2D

 18 21  0  0  0  0  0  0  0  0999 V2000
   -4.4700    0.7100    0.0000 C   0  0  0  0  0  0  0  0  0  0  0  0
   -4.4600   -0.7900    0.0000 C   0  0  0  0  0  0  0  0  0  0  0  0
    4.3900   -0.7700    0.0000 C   0  0  0  0  0  0  0  0  0  0  0  0
   -3.1800    1.4700    0.0000 C   0  0  0  0  0  0  0  0  0  0  0  0
    3.1000   -1.5300    0.0000 C   0  0  0  0  0  0  0  0  0  0  0  0
    4.3700    0.7200    0.0000 C   0  0  0  0  0  0  0  0  0  0  0  0
   -3.1500   -1.5300    0.0000 C   0  0  0  0  0  0  0  0  0  0  0  0
    0.6800    0.5200    0.0000 C   0  0  0  0  0  0  0  0  0  0  0  0
   -0.8100   -1.8300    0.0000 C   0  0  0  0  0  0  0  0  0  0  0  0
    0.7300    1.7700    0.0000 C   0  0  0  0  0  0  0  0  0  0  0  0
    0.6800   -1.8500    0.0000 C   0  0  0  0  0  0  0  0  0  0  0  0
   -0.7700    1.7800    0.0000 C   0  0  0  0  0  0  0  0  0  0  0  0
   -1.8600    0.7400    0.0000 C   0  0  0  0  0  0  0  0  0  0  0  0
    1.7700   -0.8000    0.0000 C   0  0  0  0  0  0  0  0  0  0  0  0
    3.0600    1.4600    0.0000 C   0  0  0  0  0  0  0  0  0  0  0  0
   -1.8600   -0.7600    0.0000 N   0  0  0  0  0  0  0  0  0  0  0  0
    1.7700    0.7000    0.0000 N   0  0  0  0  0  0  0  0  0  0  0  0
    3.0463    2.9599    0.0000 O   0  0  0  0  0  0  0  0  0  0  0  0
  2  1  1  0
  4  1  1  0
  5  3  1  0
  6  3  2  0
  7  2  1  0
 11  8  1  0
 11  9  1  0
 12  8  1  0
 12 10  1  0
 13  4  1  0
 13 12  1  0
 14  5  2  0
 14 11  1  0
 15  6  1  0
 16  7  1  0
 16  9  1  0
 16 13  1  0
 17 10  1  0
 17 14  1  0
 17 15  1  0
 18 15  2  0
M  END
>  <NAME>  (3040) 
ANAGYRINE

>  <SYNONYMS>  (3040) 


>  <SPECTRUM TYPE>  (3040) 
MS1

>  <INSTRUMENT TYPE>  (3040) 
EI-B

>  <INSTRUMENT>  (3040) 
JEOL JMS-HX-100

>  <ION MODE>  (3040) 
P

>  <INCHIKEY>  (3040) 
FQEQMASDZFXSJI-UHFFFAOYSA-N

>  <FORMULA>  (3040) 
C15H20N2O

>  <EXACT MASS>  (3040) 
244.15756326

>  <MW>  (3040) 
244

>  <ID>  (3040) 
JP008118

>  <CONTRIBUTOR>  (3040) 
University of Tokyo Team, {Faculty of Engineering, University of Tokyo

>  <COMMENT>  (3040) 
SMILES=O=C(C=4)N(C1)C(=CC4)C(C2)CC1C(C3)N(CCC3)2
InChI=InChI=1S/C15H20N2O/c18-15-6-3-5-14-11-8-12(10-17(14)15)13-4-1-2-7-16(13)9-11/h3,5-6,11-13H,1-2,4,7-10H2
computed SMILES=O=C1C=CC=C2N1CC3CC2CN4CCCCC43
accession=JP008118
date=2016.01.19 (Created 2008.10.21, modified 2011.05.06)
author=YAMAMOTO M, DEP. CHEMISTRY, FAC. SCIENCE, NARA WOMEN'S UNIV.
license=CC BY-NC-SA
exact mass=244.15756
ionization energy=70 eV
ion type=[M]+*
computed spectral entropy=4.070887012390061
computed normalized entropy=0.775071417769669
SPLASH=splash10-0005-9740000000-116f1f06d17d16cde381
submitter=submitter = University of Tokyo Team (Faculty of Engineering, University of Tokyo)
MoNA Rating=3.75

>  <NUM PEAKS>  (3040) 
191

>  <MASS SPECTRAL PEAKS>  (3040) 
40 0.84
41 11.74
42 7.67
43 2.05
45 0.64
46 0.26
47 0.42
48 0.26
49 0.17
50 0.54
51 1.67
52 1.44
53 3.64
54 3.32
55 6.73
56 2.54
57 1.85
58 0.55
59 0.16
60 0.26
61 0.98
62 0.23
63 0.72
64 0.65
65 3.49
66 2.08
67 4.75
68 6.48
69 4.33
70 6.52
71 0.97
72 0.13
73 0.38
74 0.29
75 0.31
76 0.59
77 4.77
78 3.4
79 3.99
80 4.32
81 2.5
82 3.31
83 2.27
84 3.81
85 0.91
86 0.21
87 0.33
88 0.15
89 1
90 0.89
91 3.38
92 2
93 4.35
94 4.51
95 2.2
96 12.83
97 12.92
98 99.99
99 9.18
100 0.34
101 0.32
102 0.48
103 0.97
104 3.29
105 2.63
106 3.48
107 1.55
108 3.07
109 2.87
110 3.17
111 1.11
112 0.67
113 0.28
114 0.14
115 1.34
116 1.07
117 6.69
118 5.3
119 1.77
120 2.73
121 2.61
122 8.3
123 3.72
124 1.32
125 0.33
126 0.14
127 0.27
128 0.72
129 0.92
130 3.61
131 2.28
132 3.73
133 6.26
134 7.29
135 2.46
136 12.89
137 1.69
138 0.13
139 0.17
140 0.14
141 0.49
142 1.12
143 0.99
144 1.66
145 3.37
146 21.55
147 9.03
148 5.02
149 3.22
150 3.02
151 0.48
152 0.21
153 0.39
154 0.48
155 0.38
156 0.53
157 0.7
158 1.38
159 2.95
160 13.73
161 10.14
162 3.93
163 1.16
164 0.28
165 0.26
166 0.14
167 0.43
168 0.34
169 0.28
170 0.61
171 0.78
172 2.13
173 1.7
174 1.82
175 1.43
176 0.8
177 0.33
178 0.15
179 0.13
180 0.14
181 0.14
182 0.13
183 0.25
184 0.59
185 0.52
186 0.91
187 1.94
188 3.95
189 1.91
190 1.03
191 0.24
194 0.15
195 0.12
196 0.16
197 0.18
198 0.42
199 0.42
200 0.61
201 2.5
202 1.45
203 2.12
204 0.41
205 0.19
209 0.14
210 0.16
211 0.13
212 0.27
213 0.42
214 0.36
215 2.81
216 1.46
217 0.32
223 0.19
224 0.15
225 0.18
226 0.15
227 1.1
228 0.33
229 5.81
230 0.95
231 0.16
238 0.16
239 0.32
240 0.28
241 1.67
242 3.96
243 14.79
244 63.52
245 12.8
246 1.4
247 0.15

$$$$

     RDKit          2D

 17 18  0  0  0  0  0  0  0  0999 V2000
   -4.0061    3.2988    0.0000 C   0  0  0  0  0  0  0  0  0  0  0  0
    5.7706    5.7251    0.0000 C   0  0  0  0  0  0  0  0  0  0  0  0
    4.2781    5.8831    0.0000 C   0  0  0  0  0  0  0  0  0  0  0  0
    6.3808    4.3539    0.0000 C   0  0  0  0  0  0  0  0  0  0  0  0
    3.3959    4.6700    0.0000 C   0  0  0  0  0  0  0  0  0  0  0  0
    5.4986    3.1408    0.0000 C   0  0  0  0  0  0  0  0  0  0  0  0
    3.1239    2.0857    0.0000 C   0  0  0  0  0  0  0  0  0  0  0  0
   -1.6322    2.2431    0.0000 C   0  0  0  0  0  0  0  0  0  0  0  0
    1.2100   -0.3900    0.0000 C   0  0  0  0  0  0  0  0  0  0  0  0
    4.0061    3.2988    0.0000 C   0  0  0  0  0  0  0  0  0  0  0  0
   -0.7500    1.0300    0.0000 C   0  0  0  0  0  0  0  0  0  0  0  0
    0.7500    1.0300    0.0000 C   0  0  0  0  0  0  0  0  0  0  0  0
   -1.2100   -0.3900    0.0000 C   0  0  0  0  0  0  0  0  0  0  0  0
    1.6322    2.2431    0.0000 N   0  0  0  0  0  0  0  0  0  0  0  0
   -2.6377   -0.8500    0.0000 O   0  0  0  0  0  0  0  0  0  0  0  0
   -3.1239    2.0857    0.0000 O   0  0  0  0  0  0  0  0  0  0  0  0
   -0.0000   -1.2800    0.0000 O   0  0  0  0  0  0  0  0  0  0  0  0
  3  2  2  0
  4  2  1  0
  5  3  1  0
  6  4  2  0
 10  5  2  0
 10  6  1  0
 10  7  1  0
 11  8  1  0
 12  9  1  0
 12 11  2  0
 13 11  1  0
 14  7  1  0
 14 12  1  0
 15 13  2  0
 16  1  1  0
 16  8  1  0
 17  9  1  0
 17 13  1  0
M  END
>  <NAME>  (3041) 
3-BENZYLAMINO-2-METHOXYMETHYL-2-BUTEN-4-OLIDE

>  <SYNONYMS>  (3041) 


>  <SPECTRUM TYPE>  (3041) 
MS1

>  <INSTRUMENT TYPE>  (3041) 
EI-B

>  <INSTRUMENT>  (3041) 
JEOL JMS-HX-100

>  <ION MODE>  (3041) 
P

>  <INCHIKEY>  (3041) 
ZGIPNWNTIQGITH-UHFFFAOYSA-N

>  <FORMULA>  (3041) 
C13H15NO3

>  <EXACT MASS>  (3041) 
233.10519333999997

>  <MW>  (3041) 
233

>  <ID>  (3041) 
JP008102

>  <CONTRIBUTOR>  (3041) 
University of Tokyo Team, {Faculty of Engineering, University of Tokyo

>  <COMMENT>  (3041) 
SMILES=COCC(C(=O)1)=C(NCc(c2)cccc2)CO1
InChI=InChI=1S/C13H15NO3/c1-16-8-11-12(9-17-13(11)15)14-7-10-5-3-2-4-6-10/h2-6,14H,7-9H2,1H3
computed SMILES=O=C1OCC(NCC=2C=CC=CC2)=C1COC
accession=JP008102
date=2016.01.19 (Created 2008.10.21, modified 2011.05.06)
author=YAMAMOTO M, DEP. CHEMISTRY, FAC. SCIENCE, NARA WOMEN'S UNIV.
license=CC BY-NC-SA
exact mass=233.10519
ionization energy=70 eV
ion type=[M]+*
computed spectral entropy=3.457800403017052
computed normalized entropy=0.677210600992873
SPLASH=splash10-0f6x-9350000000-4624ddd92409dc0729c0
submitter=submitter = University of Tokyo Team (Faculty of Engineering, University of Tokyo)
MoNA Rating=3.75

>  <NUM PEAKS>  (3041) 
165

>  <MASS SPECTRAL PEAKS>  (3041) 
35 0.13
37 0.13
38 0.36
39 4.11
40 0.32
41 2.69
42 0.91
43 1.8
44 0.48
45 2.81
46 0.13
50 0.67
51 2.55
52 1.92
53 1.72
54 1.03
55 1.83
56 0.55
57 2.42
58 0.3
59 0.41
60 0.7
61 0.12
62 0.37
63 2.11
64 0.82
65 12.46
66 1.22
67 0.64
68 0.96
69 3.26
70 1
71 1.54
72 0.43
73 0.93
74 0.17
75 0.14
76 0.23
77 1.84
78 1.14
79 0.51
80 0.55
81 1.26
82 0.92
83 1.16
84 0.58
85 0.68
86 0.15
87 0.32
88 0.22
89 3.3
90 1.95
91 99.99
92 10.54
93 0.59
94 0.26
95 0.61
96 0.45
97 1.06
98 0.51
99 0.45
100 0.42
101 0.41
102 0.35
103 0.55
104 3.33
105 1.54
106 1.23
107 0.42
108 0.15
109 0.34
110 0.26
111 0.49
112 0.46
113 0.63
114 0.32
115 2.04
116 1.48
117 1.03
118 0.27
121 0.28
122 0.13
123 0.49
124 0.56
125 0.36
126 0.57
127 0.53
128 0.74
129 1.7
130 1.31
131 0.62
132 0.29
135 0.23
136 0.41
137 0.64
138 0.15
139 0.25
140 0.19
141 0.31
142 1.45
143 3.2
144 2.43
145 0.63
146 0.13
147 0.12
148 0.13
150 0.12
152 0.15
153 0.16
154 0.28
155 0.79
156 7.08
157 6.84
158 8.21
159 1.25
160 0.12
163 0.13
165 0.18
166 0.13
167 1.75
168 0.18
170 0.14
171 0.57
172 1.79
173 1.05
174 0.68
175 0.18
180 0.12
182 0.2
183 0.49
184 1.38
185 0.72
186 0.8
187 0.12
188 0.69
189 0.23
190 0.26
191 0.19
192 0.15
194 0.16
195 0.11
196 0.11
197 0.13
198 0.15
199 0.26
200 8.57
201 31.69
202 17.83
203 21.79
204 3.05
211 0.16
213 0.26
214 0.26
216 0.13
217 0.13
218 0.22
220 0.2
225 0.17
227 0.16
230 0.13
232 1.45
233 13.91
234 2.17
235 0.4
236 0.17

$$$$

     RDKit          2D

 25 25  0  0  0  0  0  0  0  0999 V2000
   15.6573   -6.7065    0.0000 C   0  0  0  0  0  0  0  0  0  0  0  0
   -7.7259   -6.7044    0.0000 C   0  0  0  0  0  0  0  0  0  0  0  0
   14.3583   -5.9562    0.0000 C   0  0  0  0  0  0  0  0  0  0  0  0
   13.0592   -6.7060    0.0000 C   0  0  0  0  0  0  0  0  0  0  0  0
   11.7603   -5.9558    0.0000 C   0  0  0  0  0  0  0  0  0  0  0  0
   10.4611   -6.7056    0.0000 C   0  0  0  0  0  0  0  0  0  0  0  0
    9.1622   -5.9554    0.0000 C   0  0  0  0  0  0  0  0  0  0  0  0
    7.8630   -6.7052    0.0000 C   0  0  0  0  0  0  0  0  0  0  0  0
    6.5641   -5.9550    0.0000 C   0  0  0  0  0  0  0  0  0  0  0  0
    5.2650   -6.7048    0.0000 C   0  0  0  0  0  0  0  0  0  0  0  0
    3.9660   -5.9546    0.0000 C   0  0  0  0  0  0  0  0  0  0  0  0
    2.6669   -6.7044    0.0000 C   0  0  0  0  0  0  0  0  0  0  0  0
    1.3680   -5.9542    0.0000 C   0  0  0  0  0  0  0  0  0  0  0  0
    0.0688   -6.7040    0.0000 C   0  0  0  0  0  0  0  0  0  0  0  0
   -3.8293   -8.9552    0.0000 C   0  0  0  0  0  0  0  0  0  0  0  0
   -1.2301   -5.9538    0.0000 C   0  0  0  0  0  0  0  0  0  0  0  0
   -2.5298   -8.2044    0.0000 C   0  0  0  0  0  0  0  0  0  0  0  0
   -5.1283   -8.2052    0.0000 C   0  0  0  0  0  0  0  0  0  0  0  0
   -2.5293   -6.7035    0.0000 C   0  0  0  0  0  0  0  0  0  0  0  0
   -5.1278   -6.7044    0.0000 C   0  0  0  0  0  0  0  0  0  0  0  0
   -3.8283   -5.9535    0.0000 C   0  0  0  0  0  0  0  0  0  0  0  0
   -3.8286   -4.4535    0.0000 C   0  0  0  0  0  0  0  0  0  0  0  0
   -2.5296   -3.7033    0.0000 O   0  0  0  0  0  0  0  0  0  0  0  0
   -5.1277   -3.7038    0.0000 O   0  0  0  0  0  0  0  0  0  0  0  0
   -6.4269   -5.9544    0.0000 O   0  0  0  0  0  0  0  0  0  0  0  0
  3  1  1  0
  4  3  1  0
  5  4  1  0
  6  5  1  0
  7  6  1  0
  8  7  1  0
  9  8  1  0
 10  9  1  0
 11 10  1  0
 12 11  1  0
 13 12  1  0
 14 13  1  0
 16 14  1  0
 17 15  2  0
 18 15  1  0
 19 16  1  0
 19 17  1  0
 20 18  2  0
 21 19  2  0
 21 20  1  0
 22 21  1  0
 23 22  2  0
 24 22  1  0
 25  2  1  0
 25 20  1  0
M  END
>  <NAME>  (3042) 
2-METHOXY-6-TETRADECYLBENZOIC ACID

>  <SYNONYMS>  (3042) 


>  <SPECTRUM TYPE>  (3042) 
MS1

>  <INSTRUMENT TYPE>  (3042) 
EI-B

>  <INSTRUMENT>  (3042) 
JEOL JMS-HX-100

>  <ION MODE>  (3042) 
P

>  <INCHIKEY>  (3042) 
DISDVNGQYZSKAL-UHFFFAOYSA-N

>  <FORMULA>  (3042) 
C22H36O3

>  <EXACT MASS>  (3042) 
348.26644501199996

>  <MW>  (3042) 
348

>  <ID>  (3042) 
JP008101

>  <CONTRIBUTOR>  (3042) 
University of Tokyo Team, {Faculty of Engineering, University of Tokyo

>  <COMMENT>  (3042) 
SMILES=CCCCCCCCCCCCCCc(c1)c(C(O)=O)c(OC)cc1
InChI=InChI=1S/C22H36O3/c1-3-4-5-6-7-8-9-10-11-12-13-14-16-19-17-15-18-20(25-2)21(19)22(23)24/h15,17-18H,3-14,16H2,1-2H3,(H,23,24)
computed SMILES=O=C(O)C=1C(OC)=CC=CC1CCCCCCCCCCCCCC
accession=JP008101
date=2016.01.19 (Created 2008.10.21, modified 2011.05.06)
author=YAMAMOTO M, DEP. CHEMISTRY, FAC. SCIENCE, NARA WOMEN'S UNIV.
license=CC BY-NC-SA
exact mass=348.26645
ionization energy=70 eV
ion type=[M]+*
computed spectral entropy=3.889186737027009
computed normalized entropy=0.7858911774217863
SPLASH=splash10-03di-1901000000-d46979952bd3411bebe4
submitter=submitter = University of Tokyo Team (Faculty of Engineering, University of Tokyo)
MoNA Rating=3.75

>  <NUM PEAKS>  (3042) 
141

>  <MASS SPECTRAL PEAKS>  (3042) 
39 0.92
41 8.49
42 0.82
43 9.61
44 2.32
51 0.38
52 0.36
53 0.52
55 4.12
65 1.22
66 0.66
67 0.32
77 4.23
78 1.53
79 3.94
89 1.01
90 4.38
91 8.21
92 1.54
102 0.5
103 3.37
104 1.74
105 3.52
106 0.66
107 5.97
108 3.73
115 3.02
116 0.78
117 1.83
118 1.34
119 1.32
120 1.21
121 14.39
122 21.2
123 1.23
127 0.37
128 1.25
129 1.17
130 1.53
131 2.86
132 3.34
133 4.52
134 3.43
135 6.28
136 0.74
144 1.42
145 1.86
146 4.05
147 7.84
148 17.03
150 3.79
151 3.46
152 0.32
153 0.6
156 0.55
158 1.11
159 3.64
160 4.46
161 99.99
162 24.13
163 7.58
164 4.03
165 15.12
166 46.19
167 3.9
168 0.53
171 0.88
172 0.98
173 1.93
174 6.86
175 21.54
176 7.67
177 19.11
178 3.71
179 7.98
180 1.18
184 0.38
185 0.72
186 0.57
187 1.88
188 0.98
189 3.82
190 5.29
191 1.68
192 0.78
198 0.34
199 1.27
200 0.61
201 1.11
202 0.52
203 3.25
204 8.08
205 1.11
206 0.54
207 1.42
208 0.68
213 0.56
214 0.39
215 0.74
216 0.32
217 2.33
218 0.9
220 0.32
221 0.52
227 0.33
229 0.37
231 1.46
232 0.5
233 0.38
245 0.66
247 0.35
259 0.54
273 0.67
274 0.36
277 0.34
278 0.37
287 1.12
288 0.3
289 0.31
290 0.67
291 0.34
301 1.11
302 0.96
303 1.27
304 2.96
305 0.83
312 1.43
313 0.79
314 0.42
315 0.83
316 0.32
329 1.52
330 5.66
331 6.99
332 2.03
333 0.76
346 3.32
347 1.36
348 29.04
349 7.26
350 1.22

$$$$

     RDKit          2D

 27 27  0  0  0  0  0  0  0  0999 V2000
   26.9108    0.5442    0.0000 C   0  0  0  0  0  0  0  0  0  0  0  0
   25.6116    1.2940    0.0000 C   0  0  0  0  0  0  0  0  0  0  0  0
   24.3127    0.5437    0.0000 C   0  0  0  0  0  0  0  0  0  0  0  0
   23.0135    1.2935    0.0000 C   0  0  0  0  0  0  0  0  0  0  0  0
   23.0133    2.7935    0.0000 C   0  0  0  0  0  0  0  0  0  0  0  0
   21.7141    3.5433    0.0000 C   0  0  0  0  0  0  0  0  0  0  0  0
   21.7139    5.0433    0.0000 C   0  0  0  0  0  0  0  0  0  0  0  0
   23.0128    5.7935    0.0000 C   0  0  0  0  0  0  0  0  0  0  0  0
   23.0126    7.2935    0.0000 C   0  0  0  0  0  0  0  0  0  0  0  0
   24.3115    8.0437    0.0000 C   0  0  0  0  0  0  0  0  0  0  0  0
   25.6106    7.2940    0.0000 C   0  0  0  0  0  0  0  0  0  0  0  0
   26.9096    8.0442    0.0000 C   0  0  0  0  0  0  0  0  0  0  0  0
   28.2087    7.2944    0.0000 C   0  0  0  0  0  0  0  0  0  0  0  0
   29.5076    8.0446    0.0000 C   0  0  0  0  0  0  0  0  0  0  0  0
   30.8068    7.2948    0.0000 C   0  0  0  0  0  0  0  0  0  0  0  0
   32.1057    8.0450    0.0000 C   0  0  0  0  0  0  0  0  0  0  0  0
   41.2010    7.2969    0.0000 C   0  0  0  0  0  0  0  0  0  0  0  0
   39.9008    8.0465    0.0000 C   0  0  0  0  0  0  0  0  0  0  0  0
   33.4049    7.2952    0.0000 C   0  0  0  0  0  0  0  0  0  0  0  0
   41.2015    5.7969    0.0000 C   0  0  0  0  0  0  0  0  0  0  0  0
   38.6015    5.7960    0.0000 C   0  0  0  0  0  0  0  0  0  0  0  0
   37.3019    8.0458    0.0000 C   0  0  0  0  0  0  0  0  0  0  0  0
   38.6010    7.2960    0.0000 C   0  0  0  0  0  0  0  0  0  0  0  0
   34.7038    8.0454    0.0000 C   0  0  0  0  0  0  0  0  0  0  0  0
   39.9017    5.0465    0.0000 N   0  0  0  0  0  0  0  0  0  0  0  0
   34.7035    9.5454    0.0000 O   0  0  0  0  0  0  0  0  0  0  0  0
   36.0029    7.2956    0.0000 O   0  0  0  0  0  0  0  0  0  0  0  0
  2  1  1  0
  3  2  1  0
  3  4  2  0
  5  4  1  0
  6  5  1  0
  6  7  2  0
  8  7  1  0
  9  8  1  0
  9 10  2  0
 11 10  1  0
 12 11  1  0
 13 12  1  0
 14 13  1  0
 15 14  1  0
 16 15  1  0
 18 17  2  0
 19 16  1  0
 20 17  1  0
 23 18  1  0
 23 21  2  0
 23 22  1  0
 24 19  1  0
 25 20  2  0
 25 21  1  0
 26 24  2  0
 27 22  1  0
 27 24  1  0
M  END
>  <NAME>  (3043) 
3-PYRIDYLMETHYL OCTADECA-9,12,15-TRIENOATE

>  <SYNONYMS>  (3043) 
LINOLENIC ACID PICOLINYL ESTER

>  <SPECTRUM TYPE>  (3043) 
MS1

>  <INSTRUMENT TYPE>  (3043) 
EI-B

>  <INSTRUMENT>  (3043) 
JEOL JMS-HX-100

>  <ION MODE>  (3043) 
P

>  <INCHIKEY>  (3043) 
VMDODSILOLPSBY-PDBXOOCHSA-N

>  <FORMULA>  (3043) 
C24H35NO2

>  <EXACT MASS>  (3043) 
369.26677936000004

>  <MW>  (3043) 
369

>  <ID>  (3043) 
JP008100

>  <CONTRIBUTOR>  (3043) 
University of Tokyo Team, {Faculty of Engineering, University of Tokyo

>  <COMMENT>  (3043) 
SMILES=CCC=CCC=CCC=CCCCCCCCC(=O)OCc(c1)cncc1
InChI=InChI=1S/C24H35NO2/c1-2-3-4-5-6-7-8-9-10-11-12-13-14-15-16-19-24(26)27-22-23-18-17-20-25-21-23/h3-4,6-7,9-10,17-18,20-21H,2,5,8,11-16,19,22H2,1H3/b4-3-,7-6-,10-9-
computed SMILES=O=C(OCC=1C=NC=CC1)CCCCCCCC=CCC=CCC=CCC
accession=JP008100
date=2016.01.19 (Created 2008.10.21, modified 2011.05.06)
author=YAMAMOTO M, DEP. CHEMISTRY, FAC. SCIENCE, NARA WOMEN'S UNIV.
license=CC BY-NC-SA
exact mass=369.26678
ionization energy=70 eV
ion type=[M]+*
computed spectral entropy=4.504230335290269
computed normalized entropy=0.7887729449278384
SPLASH=splash10-0006-9533000000-8dc860002801afc1216b
submitter=submitter = University of Tokyo Team (Faculty of Engineering, University of Tokyo)
MoNA Rating=3.75

>  <NUM PEAKS>  (3043) 
302

>  <MASS SPECTRAL PEAKS>  (3043) 
40 1.28
41 30.32
42 2.43
43 7.12
44 1
45 0.27
50 0.63
51 2.08
52 1.51
53 7.67
54 5.66
55 23.82
56 1.92
57 2.48
58 0.22
59 0.27
60 0.18
61 0.2
62 0.31
63 1.61
64 2.46
65 20.82
66 5.95
67 36.87
68 4.98
69 11.05
70 0.91
71 1.05
72 0.18
73 1.17
74 0.11
75 0.35
76 0.17
77 14.52
78 7.82
79 46.53
80 15.52
81 18.08
82 3.18
83 3.34
84 0.43
85 0.83
87 0.41
89 0.28
90 0.25
91 21.91
92 99.99
93 57.29
94 11.63
95 24.29
96 1.93
97 2.08
98 0.53
99 0.34
100 0.15
101 0.45
102 0.26
103 0.95
104 0.58
105 8.01
106 3.72
107 11.78
108 49.66
109 20.14
110 8.86
111 1.11
112 0.27
113 0.55
114 0.14
115 0.92
116 0.42
117 2.25
118 1.55
119 5.62
120 2.05
121 8.89
122 1.88
123 1.84
124 0.41
125 0.33
126 0.14
127 0.55
128 0.38
129 0.77
130 1.03
131 2.17
132 1.12
133 4.77
134 2.3
135 7.24
136 1.59
137 0.88
138 0.22
139 0.44
140 0.14
141 0.33
142 0.17
143 0.72
144 1.23
145 1.74
146 1.23
147 3.91
148 1.69
149 4.05
150 1.21
151 16.73
152 2.21
153 0.6
154 0.25
155 0.27
156 0.57
157 0.78
158 1.27
159 1.39
160 1.38
161 3.27
162 2.07
163 1.85
164 50.36
165 7.75
166 0.97
167 0.51
168 0.36
169 0.34
170 1.1
171 0.91
172 1.57
173 1.05
174 0.99
175 1.72
176 0.82
177 1.13
178 10.01
179 2.75
180 0.52
181 0.52
182 0.48
183 0.43
184 1.71
185 1.11
186 1.21
187 1.04
188 0.87
189 0.77
190 1.99
191 0.88
192 4
193 2.09
194 0.45
195 0.57
196 0.39
197 0.3
198 1.07
199 0.57
200 0.99
201 0.55
202 2.05
203 1.15
204 2.01
205 1.18
206 9.05
207 4.78
208 1.12
209 0.54
210 0.28
211 0.18
212 0.68
213 0.54
214 0.78
215 0.43
216 0.98
217 0.76
218 2.46
219 1.22
220 9.94
221 4.07
222 0.93
223 0.22
224 0.33
225 0.19
226 0.61
227 0.41
228 0.85
229 0.32
230 0.92
231 0.67
232 2.07
233 2.02
234 4.45
235 1.22
236 0.42
237 0.15
238 0.25
239 0.21
240 0.73
241 0.73
242 1.19
243 0.57
244 1.2
245 0.96
246 2.35
247 4.12
248 3.23
249 0.36
250 0.1
251 0.17
252 0.18
253 0.11
254 0.82
255 0.34
256 2.69
257 0.89
258 2.65
259 1.62
260 8.93
261 9.44
262 5.47
263 1.04
264 0.32
265 0.47
266 0.15
267 0.39
268 0.5
269 0.2
270 1.26
271 0.6
272 2.8
273 1.69
274 6.34
275 6.22
276 2.66
277 6.17
278 1.27
279 0.35
280 0.35
281 1.97
282 3.58
283 0.74
284 1.52
285 0.93
286 4.28
287 3.98
288 4.18
289 1.78
290 1
291 0.27
294 0.47
295 0.08
296 1.36
297 0.53
298 2.72
299 1.56
300 29.4
301 9.57
302 2.37
303 1.34
304 0.68
305 0.23
306 0.15
308 0.49
309 0.21
310 0.61
311 0.28
312 5.9
313 4.71
314 9.14
315 4.39
316 1.06
317 0.26
322 0.86
323 0.32
324 0.21
325 0.08
326 8.1
327 2.41
328 2.5
329 0.66
330 0.28
336 0.44
337 0.27
339 0.13
340 8.5
341 2.64
342 0.59
343 0.12
350 0.7
351 0.25
352 0.07
353 0.14
354 5.49
355 0.81
356 0.17
357 0.18
358 0.16
366 0.11
367 0.58
368 9.92
369 42.68
370 12.51
371 2.71
372 0.54
373 0.29

$$$$

     RDKit          2D

 25 25  0  0  0  0  0  0  0  0999 V2000
   24.3127    0.5437    0.0000 C   0  0  0  0  0  0  0  0  0  0  0  0
   23.0135    1.2935    0.0000 C   0  0  0  0  0  0  0  0  0  0  0  0
   21.7146    0.5433    0.0000 C   0  0  0  0  0  0  0  0  0  0  0  0
   20.4155    1.2931    0.0000 C   0  0  0  0  0  0  0  0  0  0  0  0
   19.1165    0.5429    0.0000 C   0  0  0  0  0  0  0  0  0  0  0  0
   17.8174    1.2927    0.0000 C   0  0  0  0  0  0  0  0  0  0  0  0
   16.5185    0.5425    0.0000 C   0  0  0  0  0  0  0  0  0  0  0  0
   15.2193    1.2923    0.0000 C   0  0  0  0  0  0  0  0  0  0  0  0
   13.9204    0.5421    0.0000 C   0  0  0  0  0  0  0  0  0  0  0  0
   12.6212    1.2919    0.0000 C   0  0  0  0  0  0  0  0  0  0  0  0
   11.3223    0.5417    0.0000 C   0  0  0  0  0  0  0  0  0  0  0  0
   10.0231    1.2915    0.0000 C   0  0  0  0  0  0  0  0  0  0  0  0
    8.7242    0.5412    0.0000 C   0  0  0  0  0  0  0  0  0  0  0  0
    7.4251    1.2910    0.0000 C   0  0  0  0  0  0  0  0  0  0  0  0
   -1.6700    0.5400    0.0000 C   0  0  0  0  0  0  0  0  0  0  0  0
   -0.3700    1.2900    0.0000 C   0  0  0  0  0  0  0  0  0  0  0  0
    6.1262    0.5408    0.0000 C   0  0  0  0  0  0  0  0  0  0  0  0
   -1.6700   -0.9600    0.0000 C   0  0  0  0  0  0  0  0  0  0  0  0
    0.9300   -0.9600    0.0000 C   0  0  0  0  0  0  0  0  0  0  0  0
    2.2289    1.2902    0.0000 C   0  0  0  0  0  0  0  0  0  0  0  0
    0.9300    0.5400    0.0000 C   0  0  0  0  0  0  0  0  0  0  0  0
    4.8270    1.2906    0.0000 C   0  0  0  0  0  0  0  0  0  0  0  0
   -0.3700   -1.7100    0.0000 N   0  0  0  0  0  0  0  0  0  0  0  0
    4.8268    2.7906    0.0000 O   0  0  0  0  0  0  0  0  0  0  0  0
    3.5281    0.5404    0.0000 O   0  0  0  0  0  0  0  0  0  0  0  0
  2  1  1  0
  3  2  1  0
  4  3  1  0
  5  4  1  0
  6  5  1  0
  7  6  1  0
  8  7  1  0
  9  8  1  0
 10  9  1  0
 11 10  1  0
 12 11  1  0
 13 12  1  0
 14 13  1  0
 16 15  2  0
 17 14  1  0
 18 15  1  0
 21 16  1  0
 21 19  2  0
 21 20  1  0
 22 17  1  0
 23 18  2  0
 23 19  1  0
 24 22  2  0
 25 20  1  0
 25 22  1  0
M  END
>  <NAME>  (3044) 
3-PYRIDYLMETHYL HEXADECANOATE

>  <SYNONYMS>  (3044) 
PALMITIC ACID PICOLINYL ESTER

>  <SPECTRUM TYPE>  (3044) 
MS1

>  <INSTRUMENT TYPE>  (3044) 
EI-B

>  <INSTRUMENT>  (3044) 
JEOL JMS-HX-100

>  <ION MODE>  (3044) 
P

>  <INCHIKEY>  (3044) 
BCEVKZRDQYYDNQ-UHFFFAOYSA-N

>  <FORMULA>  (3044) 
C22H37NO2

>  <EXACT MASS>  (3044) 
347.282429424

>  <MW>  (3044) 
347

>  <ID>  (3044) 
JP008099

>  <CONTRIBUTOR>  (3044) 
University of Tokyo Team, {Faculty of Engineering, University of Tokyo

>  <COMMENT>  (3044) 
SMILES=CCCCCCCCCCCCCCCC(=O)OCc(c1)cncc1
InChI=InChI=1S/C22H37NO2/c1-2-3-4-5-6-7-8-9-10-11-12-13-14-17-22(24)25-20-21-16-15-18-23-19-21/h15-16,18-19H,2-14,17,20H2,1H3
computed SMILES=O=C(OCC=1C=NC=CC1)CCCCCCCCCCCCCCC
accession=JP008099
date=2016.01.19 (Created 2008.10.21, modified 2011.05.06)
author=YAMAMOTO M, DEP. CHEMISTRY, FAC. SCIENCE, NARA WOMEN'S UNIV.
license=CC BY-NC-SA
exact mass=347.28243
ionization energy=70 eV
ion type=[M]+*
computed spectral entropy=3.796837446712178
computed normalized entropy=0.7462929832735544
SPLASH=splash10-06r6-8952000000-6bbe364020f7d155f8f9
submitter=submitter = University of Tokyo Team (Faculty of Engineering, University of Tokyo)
MoNA Rating=3.75

>  <NUM PEAKS>  (3044) 
162

>  <MASS SPECTRAL PEAKS>  (3044) 
38 0.66
39 8.04
40 0.54
41 21.24
42 4.96
43 33.94
45 0.17
50 0.24
51 1.25
52 0.58
53 1.96
54 1.5
55 16.93
56 4.86
57 18.57
58 1.17
59 0.32
60 0.3
63 1.38
64 2.5
65 14.58
66 1.57
67 3.04
68 1.41
69 8.79
70 2.31
71 6.9
72 0.62
73 1.2
77 0.12
78 1.73
79 1.83
80 3.28
81 2.65
82 0.76
83 4.93
84 1.29
85 3.19
86 0.48
87 0.65
91 4.73
92 99.99
93 70.11
94 9.29
95 2.17
97 3.21
98 2.45
99 0.75
101 0.71
103 0.21
105 0.2
106 1.62
107 2.68
108 98.25
109 47.6
110 11.68
111 2.07
112 0.87
113 0.4
115 0.51
117 0.26
118 0.54
119 0.11
120 1.75
121 1.84
122 0.59
123 0.55
125 0.5
129 0.33
131 0.43
132 0.61
133 0.53
134 0.61
135 0.82
136 0.75
137 0.68
139 1.04
143 0.62
146 0.25
147 0.22
148 1.53
149 0.04
150 0.62
151 76.41
152 7.95
153 1.18
161 0.45
162 0.75
164 96.11
165 14.8
166 1.55
167 0.54
171 0.47
176 0.48
178 14.93
179 4.32
180 0.61
190 0.7
192 6.05
193 4.04
194 0.48
204 1.38
205 0.26
206 21.69
207 3.81
208 0.85
218 0.68
219 0.89
220 21.87
221 5.73
222 0.84
223 0.51
232 0.46
234 23.62
235 5.23
236 1.07
237 1.1
239 1.31
246 0.8
248 24.08
249 5.51
250 0.91
255 0.51
256 0.37
260 0.14
261 0.5
262 30.67
263 7.21
264 1.19
265 0.08
266 0.29
267 0.25
268 0.21
274 0.68
276 29.11
277 6.75
278 1
281 0.67
282 0.8
283 0.29
285 0.55
288 0.98
289 0.49
290 29.24
291 6.23
292 0.76
295 0.29
304 25.9
305 6.69
306 0.97
313 0.04
316 0.53
318 23.68
319 5.24
320 0.91
332 9.45
333 2.14
342 0.04
346 10.55
347 30.78
348 7.94
349 1.28

$$$$

     RDKit          2D

 27 27  0  0  0  0  0  0  0  0999 V2000
   29.1819   13.1076    0.0000 C   0  0  0  0  0  0  0  0  0  0  0  0
   27.8829   12.3574    0.0000 C   0  0  0  0  0  0  0  0  0  0  0  0
   27.8832   10.8574    0.0000 C   0  0  0  0  0  0  0  0  0  0  0  0
   26.5843   10.1072    0.0000 C   0  0  0  0  0  0  0  0  0  0  0  0
   26.5845    8.6072    0.0000 C   0  0  0  0  0  0  0  0  0  0  0  0
   25.2856    7.8570    0.0000 C   0  0  0  0  0  0  0  0  0  0  0  0
   25.2858    6.3570    0.0000 C   0  0  0  0  0  0  0  0  0  0  0  0
   23.9869    5.6068    0.0000 C   0  0  0  0  0  0  0  0  0  0  0  0
   23.9871    4.1068    0.0000 C   0  0  0  0  0  0  0  0  0  0  0  0
   22.6882    3.3566    0.0000 C   0  0  0  0  0  0  0  0  0  0  0  0
   21.3891    4.1064    0.0000 C   0  0  0  0  0  0  0  0  0  0  0  0
   20.0902    3.3561    0.0000 C   0  0  0  0  0  0  0  0  0  0  0  0
   18.7910    4.1059    0.0000 C   0  0  0  0  0  0  0  0  0  0  0  0
   17.4921    3.3557    0.0000 C   0  0  0  0  0  0  0  0  0  0  0  0
   16.1929    4.1055    0.0000 C   0  0  0  0  0  0  0  0  0  0  0  0
   14.8940    3.3553    0.0000 C   0  0  0  0  0  0  0  0  0  0  0  0
    5.7987    4.1034    0.0000 C   0  0  0  0  0  0  0  0  0  0  0  0
    7.0989    3.3539    0.0000 C   0  0  0  0  0  0  0  0  0  0  0  0
   13.5948    4.1051    0.0000 C   0  0  0  0  0  0  0  0  0  0  0  0
    5.7982    5.6034    0.0000 C   0  0  0  0  0  0  0  0  0  0  0  0
    8.3982    5.6043    0.0000 C   0  0  0  0  0  0  0  0  0  0  0  0
    9.6978    3.3545    0.0000 C   0  0  0  0  0  0  0  0  0  0  0  0
    8.3987    4.1043    0.0000 C   0  0  0  0  0  0  0  0  0  0  0  0
   12.2959    3.3549    0.0000 C   0  0  0  0  0  0  0  0  0  0  0  0
    7.0980    6.3539    0.0000 N   0  0  0  0  0  0  0  0  0  0  0  0
   12.2962    1.8549    0.0000 O   0  0  0  0  0  0  0  0  0  0  0  0
   10.9968    4.1047    0.0000 O   0  0  0  0  0  0  0  0  0  0  0  0
  2  1  1  0
  3  2  1  0
  4  3  1  0
  5  4  1  0
  6  5  1  0
  7  6  1  0
  8  7  1  0
  9  8  1  0
  9 10  2  0
 11 10  1  0
 12 11  1  0
 13 12  1  0
 14 13  1  0
 15 14  1  0
 16 15  1  0
 18 17  2  0
 19 16  1  0
 20 17  1  0
 23 18  1  0
 23 21  2  0
 23 22  1  0
 24 19  1  0
 25 20  2  0
 25 21  1  0
 26 24  2  0
 27 22  1  0
 27 24  1  0
M  END
>  <NAME>  (3045) 
3-PYRIDYLMETHYL OCTADEC-9-ENOATE

>  <SYNONYMS>  (3045) 
OLEIC ACID PICOLINYL ESTER

>  <SPECTRUM TYPE>  (3045) 
MS1

>  <INSTRUMENT TYPE>  (3045) 
EI-B

>  <INSTRUMENT>  (3045) 
JEOL JMS-HX-100

>  <ION MODE>  (3045) 
P

>  <INCHIKEY>  (3045) 
FBPJZADLPOSZEO-KTKRTIGZSA-N

>  <FORMULA>  (3045) 
C24H39NO2

>  <EXACT MASS>  (3045) 
373.29807948800004

>  <MW>  (3045) 
373

>  <ID>  (3045) 
JP008098

>  <CONTRIBUTOR>  (3045) 
University of Tokyo Team, {Faculty of Engineering, University of Tokyo

>  <COMMENT>  (3045) 
SMILES=CCCCCCCCC=CCCCCCCCC(=O)OCc(c1)cncc1
InChI=InChI=1S/C24H39NO2/c1-2-3-4-5-6-7-8-9-10-11-12-13-14-15-16-19-24(26)27-22-23-18-17-20-25-21-23/h9-10,17-18,20-21H,2-8,11-16,19,22H2,1H3/b10-9-
computed SMILES=O=C(OCC=1C=NC=CC1)CCCCCCCC=CCCCCCCCC
accession=JP008098
date=2016.01.19 (Created 2008.10.21, modified 2011.05.06)
author=YAMAMOTO M, DEP. CHEMISTRY, FAC. SCIENCE, NARA WOMEN'S UNIV.
license=CC BY-NC-SA
exact mass=373.29808
ionization energy=70 eV
ion type=[M]+*
computed spectral entropy=4.006271489774481
computed normalized entropy=0.7690339070369411
SPLASH=splash10-06xx-9654000000-460463f4ad446db7c347
submitter=submitter = University of Tokyo Team (Faculty of Engineering, University of Tokyo)
MoNA Rating=3.75

>  <NUM PEAKS>  (3045) 
183

>  <MASS SPECTRAL PEAKS>  (3045) 
35 0.72
38 0.92
39 7.33
40 0.44
41 23.77
42 3.65
43 17.98
44 0.93
45 0.15
50 0.36
51 1.29
52 0.78
53 3.48
54 8.39
55 33.69
56 5.78
57 9.29
58 0.87
59 0.55
60 0.43
63 0.82
64 1.91
65 12.05
66 1.44
67 12.07
68 4.18
69 18.98
70 3.18
71 2.88
73 0.44
75 0.28
77 0.95
78 2.16
79 3.61
80 2.98
81 9.02
82 2.91
83 10.39
84 1.18
85 1.88
87 0.34
91 3.93
92 99.99
93 48.2
94 5.51
95 5.79
96 0.42
97 6.14
98 2.05
99 0.25
101 0.97
104 0.37
105 0.9
106 1.97
107 1.6
108 69.35
109 29.6
110 8.74
111 2.55
112 1.13
113 0.56
115 0.48
117 0.22
118 1.42
119 0.64
120 1.41
121 1.4
122 0.93
123 0.78
124 0.88
125 0.72
126 0.78
127 0.73
129 0.14
130 0.87
131 0.46
132 1.01
133 0.46
134 1.6
135 1.35
136 0.86
137 1.17
138 0.74
139 0.93
144 1.05
145 0.93
146 0.77
147 1.1
148 2.01
150 0.97
151 28.54
152 4.28
153 0.93
159 0.82
161 1.14
163 0.07
164 76.51
165 11.25
166 1.49
167 0.85
175 0.85
177 0.32
178 13.47
179 3.15
180 0.81
181 0.8
183 0.78
190 1.33
192 4.59
193 0.55
194 0.82
202 0.74
204 2.66
205 0.85
206 12.09
207 1.35
208 0.15
209 0.61
210 0.03
218 1.38
219 0.71
220 16.45
221 5.49
222 1.48
223 0.83
230 0.73
232 1.84
233 1.41
234 5.92
235 1.41
244 0.75
245 1.25
246 3.87
247 4.11
248 3.69
249 0.19
256 1.12
260 10.23
261 6.98
262 2.63
263 1.37
265 0.36
269 0.45
270 0.76
272 0.95
274 42.67
275 12.73
276 3.41
283 0.25
284 0.16
288 47.67
289 14.81
290 2.6
298 0.8
300 0.77
302 12.36
303 4.11
304 1.13
313 0.35
314 0.79
316 12.91
317 4.33
318 1.02
328 0.71
330 11.39
331 3.13
332 1.57
342 0.33
343 0.76
344 9.78
345 3.47
346 0.89
354 0.87
355 0.48
356 0.32
358 2.66
359 1.11
367 0.58
371 0.2
372 10.56
373 88.98
374 23.02
375 4.16

$$$$

     RDKit          2D

 27 27  0  0  0  0  0  0  0  0999 V2000
   26.9108    0.5442    0.0000 C   0  0  0  0  0  0  0  0  0  0  0  0
   25.6116    1.2940    0.0000 C   0  0  0  0  0  0  0  0  0  0  0  0
   24.3127    0.5437    0.0000 C   0  0  0  0  0  0  0  0  0  0  0  0
   23.0135    1.2935    0.0000 C   0  0  0  0  0  0  0  0  0  0  0  0
   21.7146    0.5433    0.0000 C   0  0  0  0  0  0  0  0  0  0  0  0
   20.4155    1.2931    0.0000 C   0  0  0  0  0  0  0  0  0  0  0  0
   19.1165    0.5429    0.0000 C   0  0  0  0  0  0  0  0  0  0  0  0
   17.8174    1.2927    0.0000 C   0  0  0  0  0  0  0  0  0  0  0  0
   16.5185    0.5425    0.0000 C   0  0  0  0  0  0  0  0  0  0  0  0
   15.2193    1.2923    0.0000 C   0  0  0  0  0  0  0  0  0  0  0  0
   13.9204    0.5421    0.0000 C   0  0  0  0  0  0  0  0  0  0  0  0
   12.6212    1.2919    0.0000 C   0  0  0  0  0  0  0  0  0  0  0  0
   11.3223    0.5417    0.0000 C   0  0  0  0  0  0  0  0  0  0  0  0
   10.0231    1.2915    0.0000 C   0  0  0  0  0  0  0  0  0  0  0  0
    8.7242    0.5412    0.0000 C   0  0  0  0  0  0  0  0  0  0  0  0
    7.4251    1.2910    0.0000 C   0  0  0  0  0  0  0  0  0  0  0  0
   -1.6700    0.5400    0.0000 C   0  0  0  0  0  0  0  0  0  0  0  0
   -0.3700    1.2900    0.0000 C   0  0  0  0  0  0  0  0  0  0  0  0
    6.1262    0.5408    0.0000 C   0  0  0  0  0  0  0  0  0  0  0  0
   -1.6700   -0.9600    0.0000 C   0  0  0  0  0  0  0  0  0  0  0  0
    0.9300   -0.9600    0.0000 C   0  0  0  0  0  0  0  0  0  0  0  0
    2.2289    1.2902    0.0000 C   0  0  0  0  0  0  0  0  0  0  0  0
    0.9300    0.5400    0.0000 C   0  0  0  0  0  0  0  0  0  0  0  0
    4.8270    1.2906    0.0000 C   0  0  0  0  0  0  0  0  0  0  0  0
   -0.3700   -1.7100    0.0000 N   0  0  0  0  0  0  0  0  0  0  0  0
    4.8268    2.7906    0.0000 O   0  0  0  0  0  0  0  0  0  0  0  0
    3.5281    0.5404    0.0000 O   0  0  0  0  0  0  0  0  0  0  0  0
  2  1  1  0
  3  2  1  0
  4  3  1  0
  5  4  1  0
  6  5  1  0
  7  6  1  0
  8  7  1  0
  9  8  1  0
 10  9  1  0
 11 10  1  0
 12 11  1  0
 13 12  1  0
 14 13  1  0
 15 14  1  0
 16 15  1  0
 18 17  2  0
 19 16  1  0
 20 17  1  0
 23 18  1  0
 23 21  2  0
 23 22  1  0
 24 19  1  0
 25 20  2  0
 25 21  1  0
 26 24  2  0
 27 22  1  0
 27 24  1  0
M  END
>  <NAME>  (3046) 
3-PYRIDYLMETHYL OCTADECANOATE

>  <SYNONYMS>  (3046) 
STEARIC ACID PICOLINYL ESTER

>  <SPECTRUM TYPE>  (3046) 
MS1

>  <INSTRUMENT TYPE>  (3046) 
EI-B

>  <INSTRUMENT>  (3046) 
JEOL JMS-HX-100

>  <ION MODE>  (3046) 
P

>  <INCHIKEY>  (3046) 
MSCVPMAJZWQQRO-UHFFFAOYSA-N

>  <FORMULA>  (3046) 
C24H41NO2

>  <EXACT MASS>  (3046) 
375.313729552

>  <MW>  (3046) 
375

>  <ID>  (3046) 
JP008097

>  <CONTRIBUTOR>  (3046) 
University of Tokyo Team, {Faculty of Engineering, University of Tokyo

>  <COMMENT>  (3046) 
SMILES=CCCCCCCCCCCCCCCCCC(=O)OCc(c1)cncc1
InChI=InChI=1S/C24H41NO2/c1-2-3-4-5-6-7-8-9-10-11-12-13-14-15-16-19-24(26)27-22-23-18-17-20-25-21-23/h17-18,20-21H,2-16,19,22H2,1H3
computed SMILES=O=C(OCC=1C=NC=CC1)CCCCCCCCCCCCCCCCC
accession=JP008097
date=2016.01.19 (Created 2008.10.21, modified 2011.05.06)
author=YAMAMOTO M, DEP. CHEMISTRY, FAC. SCIENCE, NARA WOMEN'S UNIV.
license=CC BY-NC-SA
exact mass=375.31373
ionization energy=70 eV
ion type=[M]+*
computed spectral entropy=3.913246503658081
computed normalized entropy=0.7292702190064011
SPLASH=splash10-06r6-8943000000-87b8078940b4e77ccbaf
submitter=submitter = University of Tokyo Team (Faculty of Engineering, University of Tokyo)
MoNA Rating=3.75

>  <NUM PEAKS>  (3046) 
214

>  <MASS SPECTRAL PEAKS>  (3046) 
35 0.11
38 0.44
39 7.22
40 0.2
41 20.51
42 4.83
43 38.28
44 0.34
45 0.24
50 0.17
51 1.09
52 0.77
53 1.9
54 1.75
55 19.33
56 5.55
57 23.26
58 1.22
59 0.27
60 0.57
61 0.19
62 0.23
63 1.32
64 2.09
65 14.12
66 1.57
67 3.39
68 1.69
69 9.82
70 2.67
71 8.68
72 0.57
73 0.47
74 0.08
76 0.25
77 0.27
78 1.52
79 1.77
80 3.22
81 3.08
82 1.33
83 5.56
84 1.8
85 4.25
86 0.35
87 0.35
89 0.14
90 0.22
91 4.43
92 94.04
93 72.86
94 11.05
95 2.91
96 0.22
97 3.97
98 4.4
99 0.88
101 0.55
104 0.12
105 0.25
106 1.59
107 3.25
108 99.99
109 48.87
110 11.85
111 2.34
112 1.18
113 0.43
115 0.29
116 0.21
117 0.35
118 0.43
120 1.95
121 1.46
122 0.22
123 0.45
124 0.3
125 0.95
126 0.22
127 0.33
129 0.29
130 0.26
131 0.06
132 0.3
133 0.79
134 0.83
135 0.82
136 0.62
137 0.56
138 0.23
139 0.88
141 0.24
143 0.43
144 0.22
145 0.14
146 0.33
147 0.2
148 1.56
149 0.32
150 0.32
151 72.08
152 6.97
153 1
155 0.23
157 0.33
161 0.1
162 0.93
163 0.26
164 86.19
165 13.59
166 1.57
167 0.44
171 0.37
176 0.47
178 12.8
179 4.62
180 0.54
181 0.39
185 0.36
189 0.13
190 0.7
191 0.35
192 5.58
193 4.31
194 0.61
195 0.02
199 0.32
204 1.43
205 0.32
206 19.56
207 1.7
208 0.43
211 0.11
213 0.28
218 0.57
219 0.38
220 19.39
221 6.04
222 0.79
223 0.12
232 0.59
233 0.24
234 20.29
235 5.04
236 0.66
246 0.61
247 0.71
248 22.57
249 5.03
250 0.61
251 0.05
258 0.26
260 0.37
261 0.3
262 27.14
263 6.44
264 1.02
265 0.11
266 0.07
267 0.07
268 0.03
269 0.04
274 0.8
275 0.33
276 25.68
277 6.37
278 0.99
281 0.43
282 0.06
285 0.17
288 0.59
289 0.28
290 25.03
291 6.3
292 0.82
295 0.07
302 0.66
303 0.29
304 22.84
305 5.73
306 0.86
314 0.25
316 1.04
317 0.47
318 21.72
319 5.66
320 0.79
325 0.08
330 0.43
332 20.42
333 5.51
334 0.82
339 0.24
343 0.17
344 0.21
346 18.08
347 4.93
348 0.87
355 0.06
356 0.04
357 0.15
360 6.83
361 1.81
362 0.28
366 0.18
367 0.07
368 0.11
371 0.25
372 0.31
373 0.66
374 12.87
375 31.81
376 8.14
377 1.49

$$$$

     RDKit          2D

 24 24  0  0  0  0  0  0  0  0999 V2000
  -18.2125    9.7950    0.0000 C   0  0  0  0  0  0  0  0  0  0  0  0
  -16.9135   10.5450    0.0000 C   0  0  0  0  0  0  0  0  0  0  0  0
  -15.6144    9.7950    0.0000 C   0  0  0  0  0  0  0  0  0  0  0  0
  -14.3154   10.5450    0.0000 C   0  0  0  0  0  0  0  0  0  0  0  0
  -13.0164    9.7950    0.0000 C   0  0  0  0  0  0  0  0  0  0  0  0
  -11.7173   10.5450    0.0000 C   0  0  0  0  0  0  0  0  0  0  0  0
  -10.4183    9.7950    0.0000 C   0  0  0  0  0  0  0  0  0  0  0  0
   -9.1192   10.5450    0.0000 C   0  0  0  0  0  0  0  0  0  0  0  0
   -7.8202    9.7950    0.0000 C   0  0  0  0  0  0  0  0  0  0  0  0
   -6.5212   10.5450    0.0000 C   0  0  0  0  0  0  0  0  0  0  0  0
   -5.2221    9.7950    0.0000 C   0  0  0  0  0  0  0  0  0  0  0  0
   -3.9231   10.5450    0.0000 C   0  0  0  0  0  0  0  0  0  0  0  0
   -2.6241    9.7950    0.0000 C   0  0  0  0  0  0  0  0  0  0  0  0
   -1.3250   10.5450    0.0000 C   0  0  0  0  0  0  0  0  0  0  0  0
   -0.0260    9.7950    0.0000 C   0  0  0  0  0  0  0  0  0  0  0  0
    1.2731   10.5450    0.0000 C   0  0  0  0  0  0  0  0  0  0  0  0
    6.7957    7.9905    0.0000 C   0  0  0  0  0  0  0  0  0  0  0  0
    7.5457    9.2895    0.0000 C   0  0  0  0  0  0  0  0  0  0  0  0
    2.5721    9.7950    0.0000 C   0  0  0  0  0  0  0  0  0  0  0  0
    5.3273    8.3071    0.0000 C   0  0  0  0  0  0  0  0  0  0  0  0
    6.5373   10.4029    0.0000 C   0  0  0  0  0  0  0  0  0  0  0  0
    3.8711   10.5450    0.0000 C   0  0  0  0  0  0  0  0  0  0  0  0
    5.1702    9.7950    0.0000 N   0  0  0  0  0  0  0  0  0  0  0  0
    3.8711   12.0450    0.0000 O   0  0  0  0  0  0  0  0  0  0  0  0
  2  1  1  0
  3  2  1  0
  3  4  2  0
  5  4  1  0
  6  5  1  0
  6  7  2  0
  8  7  1  0
  9  8  1  0
  9 10  2  0
 11 10  1  0
 12 11  1  0
 13 12  1  0
 14 13  1  0
 15 14  1  0
 16 15  1  0
 18 17  1  0
 19 16  1  0
 20 17  1  0
 21 18  1  0
 22 19  1  0
 23 20  1  0
 23 21  1  0
 23 22  1  0
 24 22  2  0
M  END
>  <NAME>  (3047) 
N-OCTADECA-9,12,15-TRIENOYLPYRROLIDINE

>  <SYNONYMS>  (3047) 


>  <SPECTRUM TYPE>  (3047) 
MS1

>  <INSTRUMENT TYPE>  (3047) 
EI-B

>  <INSTRUMENT>  (3047) 
JEOL JMS-HX-100

>  <ION MODE>  (3047) 
P

>  <INCHIKEY>  (3047) 
HCNBGIBBJGULOU-IUQGRGSQSA-N

>  <FORMULA>  (3047) 
C22H37NO

>  <EXACT MASS>  (3047) 
331.287514804

>  <MW>  (3047) 
331

>  <ID>  (3047) 
JP008095

>  <CONTRIBUTOR>  (3047) 
University of Tokyo Team, {Faculty of Engineering, University of Tokyo

>  <COMMENT>  (3047) 
SMILES=CCC=CCC=CCC=CCCCCCCCC(=O)N(C1)CCC1
InChI=InChI=1S/C22H37NO/c1-2-3-4-5-6-7-8-9-10-11-12-13-14-15-16-19-22(24)23-20-17-18-21-23/h3-4,6-7,9-10H,2,5,8,11-21H2,1H3/b4-3+,7-6+,10-9+
computed SMILES=O=C(N1CCCC1)CCCCCCCC=CCC=CCC=CCC
accession=JP008095
date=2016.01.19 (Created 2008.10.21, modified 2011.05.06)
license=CC BY-NC-SA
author=YAMAMOTO M, DEP. CHEMISTRY, FAC. SCIENCE, NARA WOMEN'S UNIV.
exact mass=331.28751
ionization energy=70 eV
ion type=[M]+*
computed spectral entropy=4.053264776797335
computed normalized entropy=0.7671982730383082
SPLASH=splash10-03mi-9721000000-6a8f5c13ba1e5f8b8e33
submitter=submitter = University of Tokyo Team (Faculty of Engineering, University of Tokyo)
MoNA Rating=3.75

>  <NUM PEAKS>  (3047) 
197

>  <MASS SPECTRAL PEAKS>  (3047) 
38 0.17
39 3.53
40 0.43
41 21.49
42 2.78
43 13.67
44 0.54
45 0.14
50 0.19
51 0.6
52 0.53
53 4.07
54 3.08
55 33.67
56 7.05
57 1.46
58 0.32
59 0.25
60 0.14
63 0.21
65 2.43
66 2.31
67 19.28
68 3.86
69 7.72
70 49.52
71 11.58
72 45.44
73 2.2
77 7.16
78 3.05
79 21.39
80 6.55
81 9
82 1.56
83 1.47
84 1.23
85 10.92
86 0.8
87 0.16
91 8.83
92 2
93 10.16
94 3.31
95 10.08
96 1.72
97 1.05
98 26.79
99 3.66
100 0.89
103 0.52
104 0.42
105 3.67
106 1.39
107 4.68
108 4.42
109 2.56
110 0.96
111 0.7
112 3.48
113 99.99
114 9.59
115 0.93
116 0.27
117 0.85
118 0.36
119 1.84
120 0.74
121 2.81
122 1.22
123 0.83
124 0.81
125 0.41
126 66.66
127 14.24
128 1.3
129 0.37
131 0.66
132 0.18
133 1.29
134 0.58
135 1.98
136 0.97
137 0.47
138 0.85
139 0.9
140 10.9
141 2.67
142 0.25
143 0.2
145 0.41
146 0.16
147 1.17
148 0.45
149 1.72
150 0.99
151 0.44
152 2.26
153 1
154 6.27
155 1.3
156 0.15
159 0.26
161 0.7
162 0.43
163 1.03
164 0.56
165 0.36
166 2.41
167 0.81
168 9.93
169 1.69
170 0.15
171 0.21
173 0.42
175 0.6
176 0.45
177 0.53
178 0.48
179 0.4
180 3.53
181 0.89
182 11.57
183 1.75
184 0.19
185 0.16
187 0.15
189 0.43
190 0.24
191 0.48
192 0.92
193 0.45
194 3.13
195 0.7
196 3.26
197 0.51
203 0.28
204 0.54
205 0.27
206 1.66
207 0.33
208 3.62
209 0.84
210 2.36
211 0.53
217 0.17
218 0.49
219 0.3
220 2.58
221 0.8
222 8.19
223 2.13
224 5.72
225 1.09
231 0.17
232 1.19
233 0.35
234 3.71
235 0.84
236 5.14
237 1.89
238 1.54
239 0.37
246 1.63
247 0.37
248 2.82
249 0.96
250 2.71
251 1.25
252 0.69
260 2.26
261 0.81
262 8.9
263 2.13
264 1.09
265 0.22
274 2.47
275 1.36
276 3.27
277 1.07
278 0.23
288 3.87
289 0.95
290 0.43
291 0.15
302 3.03
303 0.74
316 1.58
317 0.41
327 0.22
328 0.2
329 0.79
330 8.17
331 44.58
332 12.06
333 2
334 0.32

$$$$

     RDKit          2D

 26 26  0  0  0  0  0  0  0  0999 V2000
  -20.1611   10.9200    0.0000 C   0  0  0  0  0  0  0  0  0  0  0  0
  -18.8620   11.6700    0.0000 C   0  0  0  0  0  0  0  0  0  0  0  0
  -17.5630   10.9200    0.0000 C   0  0  0  0  0  0  0  0  0  0  0  0
  -16.2640   11.6700    0.0000 C   0  0  0  0  0  0  0  0  0  0  0  0
  -14.9649   10.9200    0.0000 C   0  0  0  0  0  0  0  0  0  0  0  0
  -13.6659   11.6700    0.0000 C   0  0  0  0  0  0  0  0  0  0  0  0
  -12.3668   10.9200    0.0000 C   0  0  0  0  0  0  0  0  0  0  0  0
  -11.0678   11.6700    0.0000 C   0  0  0  0  0  0  0  0  0  0  0  0
   -9.7688   10.9200    0.0000 C   0  0  0  0  0  0  0  0  0  0  0  0
   -8.4697   11.6700    0.0000 C   0  0  0  0  0  0  0  0  0  0  0  0
   -7.1707   10.9200    0.0000 C   0  0  0  0  0  0  0  0  0  0  0  0
   -5.8717   11.6700    0.0000 C   0  0  0  0  0  0  0  0  0  0  0  0
   -4.5726   10.9200    0.0000 C   0  0  0  0  0  0  0  0  0  0  0  0
   -3.2736   11.6700    0.0000 C   0  0  0  0  0  0  0  0  0  0  0  0
   -1.9745   10.9200    0.0000 C   0  0  0  0  0  0  0  0  0  0  0  0
   -0.6755   11.6700    0.0000 C   0  0  0  0  0  0  0  0  0  0  0  0
    0.6235   10.9200    0.0000 C   0  0  0  0  0  0  0  0  0  0  0  0
    1.9226   11.6700    0.0000 C   0  0  0  0  0  0  0  0  0  0  0  0
    7.4452    9.1155    0.0000 C   0  0  0  0  0  0  0  0  0  0  0  0
    8.1952   10.4145    0.0000 C   0  0  0  0  0  0  0  0  0  0  0  0
    3.2216   10.9200    0.0000 C   0  0  0  0  0  0  0  0  0  0  0  0
    5.9768    9.4321    0.0000 C   0  0  0  0  0  0  0  0  0  0  0  0
    7.1868   11.5279    0.0000 C   0  0  0  0  0  0  0  0  0  0  0  0
    4.5207   11.6700    0.0000 C   0  0  0  0  0  0  0  0  0  0  0  0
    5.8197   10.9200    0.0000 N   0  0  0  0  0  0  0  0  0  0  0  0
    4.5207   13.1700    0.0000 O   0  0  0  0  0  0  0  0  0  0  0  0
  2  1  1  0
  3  2  1  0
  4  3  1  0
  5  4  1  0
  6  5  1  0
  6  7  2  0
  8  7  1  0
  9  8  1  0
  9 10  2  0
 11 10  1  0
 12 11  1  0
 12 13  2  0
 14 13  1  0
 15 14  1  0
 15 16  2  0
 17 16  1  0
 18 17  1  0
 20 19  1  0
 21 18  1  0
 22 19  1  0
 23 20  1  0
 24 21  1  0
 25 22  1  0
 25 23  1  0
 25 24  1  0
 26 24  2  0
M  END
>  <NAME>  (3048) 
N-EICOSA-5,8,11,14-TETRAENOYLPYRROLIDINE

>  <SYNONYMS>  (3048) 


>  <SPECTRUM TYPE>  (3048) 
MS1

>  <INSTRUMENT TYPE>  (3048) 
EI-B

>  <INSTRUMENT>  (3048) 
JEOL JMS-HX-100

>  <ION MODE>  (3048) 
P

>  <INCHIKEY>  (3048) 
JCCULSFRZNYFOY-CGRWFSSPSA-N

>  <FORMULA>  (3048) 
C24H39NO

>  <EXACT MASS>  (3048) 
357.303164868

>  <MW>  (3048) 
357

>  <ID>  (3048) 
JP008094

>  <CONTRIBUTOR>  (3048) 
University of Tokyo Team, {Faculty of Engineering, University of Tokyo

>  <COMMENT>  (3048) 
SMILES=CCCCCC=CCC=CCC=CCC=CCCCC(=O)N(C1)CCC1
InChI=InChI=1S/C24H39NO/c1-2-3-4-5-6-7-8-9-10-11-12-13-14-15-16-17-18-21-24(26)25-22-19-20-23-25/h6-7,9-10,12-13,15-16H,2-5,8,11,14,17-23H2,1H3/b7-6+,10-9+,13-12+,16-15+
computed SMILES=O=C(N1CCCC1)CCCC=CCC=CCC=CCC=CCCCCC
accession=JP008094
date=2016.01.19 (Created 2008.10.21, modified 2011.05.06)
author=YAMAMOTO M, DEP. CHEMISTRY, FAC. SCIENCE, NARA WOMEN'S UNIV.
license=CC BY-NC-SA
exact mass=357.30316
ionization energy=70 eV
ion type=[M]+*
computed spectral entropy=3.9137868945777257
computed normalized entropy=0.7379901707386666
SPLASH=splash10-03di-7911000000-c3ea163900150b048aad
submitter=submitter = University of Tokyo Team (Faculty of Engineering, University of Tokyo)
MoNA Rating=3.75

>  <NUM PEAKS>  (3048) 
201

>  <MASS SPECTRAL PEAKS>  (3048) 
39 1.45
40 0.15
41 8.29
42 1.07
43 9.25
44 0.17
51 0.27
52 0.2
53 1.63
54 1.29
55 12.27
56 2.81
57 1.03
58 0.22
59 0.31
60 0.06
63 0.13
65 1.57
66 1.53
67 8.17
68 1.51
69 2.62
70 14.86
71 5.11
72 13.77
73 0.58
77 4.03
78 1.9
79 9.34
80 4.96
81 3.14
82 0.52
83 0.62
84 0.55
85 12.68
86 0.74
87 0.14
91 7.03
92 1.85
93 4.5
94 1.16
95 1.62
96 0.83
97 0.79
98 11.65
99 1.63
100 0.5
103 0.46
104 0.6
105 3.45
106 1.14
107 1.56
108 0.58
109 0.69
110 0.52
111 0.49
112 2.86
113 99.99
114 10.03
115 0.99
116 0.39
117 1.59
118 0.51
119 1.91
120 0.58
121 1
122 0.39
123 0.37
124 0.54
125 0.23
126 15.7
127 4.17
128 0.62
129 0.44
130 0.27
131 1.28
132 0.42
133 1.53
134 0.46
135 0.68
136 0.63
137 0.38
138 0.47
139 0.66
140 1.94
141 0.63
142 0.18
143 0.21
145 0.57
146 0.37
147 0.87
148 0.35
149 0.51
150 1.54
151 0.34
152 0.98
153 0.93
154 1.42
155 0.46
157 0.24
159 0.45
160 0.2
161 0.46
162 0.26
163 0.34
164 0.43
165 0.28
166 3.26
167 1.16
168 2.69
169 0.48
171 0.17
173 0.31
174 0.16
175 0.76
176 0.41
177 0.57
178 0.47
179 0.41
180 4.26
181 0.88
182 0.73
183 0.16
187 0.33
188 0.2
189 0.44
190 0.43
191 0.22
192 0.9
193 0.36
194 0.85
195 0.28
196 0.28
201 0.21
202 0.18
203 0.53
204 0.44
205 0.28
206 2.47
207 0.68
208 2.96
209 0.61
210 0.15
215 0.15
217 0.28
218 0.77
219 0.65
220 2.27
221 0.58
222 0.7
223 0.2
230 0.31
231 0.19
232 4.06
233 0.87
234 0.78
235 0.21
236 0.29
244 0.77
245 0.42
246 3.42
247 1.05
248 0.38
250 0.21
258 0.63
259 0.42
260 1.24
261 0.31
262 0.26
264 0.13
272 1.46
273 0.38
274 0.49
275 0.13
276 0.25
277 0.57
278 0.3
281 0.09
286 1.31
287 0.32
288 0.37
289 0.18
290 0.22
291 0.15
300 1.05
301 0.26
302 0.24
303 0.21
314 0.66
315 0.13
316 0.16
328 0.38
329 0.19
331 0.23
342 0.14
355 0.26
356 2.44
357 10.28
358 2.98
359 1.81
360 0.41

$$$$

     RDKit          2D

 27 27  0  0  0  0  0  0  0  0999 V2000
   17.4928   -0.3955    0.0000 C   0  0  0  0  0  0  0  0  0  0  0  0
   16.1939   -1.1457    0.0000 C   0  0  0  0  0  0  0  0  0  0  0  0
   16.1941   -2.6457    0.0000 C   0  0  0  0  0  0  0  0  0  0  0  0
   14.8952   -3.3959    0.0000 C   0  0  0  0  0  0  0  0  0  0  0  0
   14.8954   -4.8959    0.0000 C   0  0  0  0  0  0  0  0  0  0  0  0
   13.5965   -5.6461    0.0000 C   0  0  0  0  0  0  0  0  0  0  0  0
   13.5968   -7.1461    0.0000 C   0  0  0  0  0  0  0  0  0  0  0  0
   14.8959   -7.8959    0.0000 C   0  0  0  0  0  0  0  0  0  0  0  0
   14.8962   -9.3959    0.0000 C   0  0  0  0  0  0  0  0  0  0  0  0
   16.1953  -10.1457    0.0000 C   0  0  0  0  0  0  0  0  0  0  0  0
   17.4942   -9.3955    0.0000 C   0  0  0  0  0  0  0  0  0  0  0  0
   18.7934  -10.1453    0.0000 C   0  0  0  0  0  0  0  0  0  0  0  0
   20.0923   -9.3951    0.0000 C   0  0  0  0  0  0  0  0  0  0  0  0
   21.3915  -10.1449    0.0000 C   0  0  0  0  0  0  0  0  0  0  0  0
   22.6904   -9.3947    0.0000 C   0  0  0  0  0  0  0  0  0  0  0  0
   23.9895  -10.1445    0.0000 C   0  0  0  0  0  0  0  0  0  0  0  0
   33.0846   -9.3934    0.0000 C   0  0  0  0  0  0  0  0  0  0  0  0
   31.7846  -10.1434    0.0000 C   0  0  0  0  0  0  0  0  0  0  0  0
   25.2885   -9.3943    0.0000 C   0  0  0  0  0  0  0  0  0  0  0  0
   33.0846   -7.8934    0.0000 C   0  0  0  0  0  0  0  0  0  0  0  0
   30.4846   -7.8934    0.0000 C   0  0  0  0  0  0  0  0  0  0  0  0
   29.1857  -10.1437    0.0000 C   0  0  0  0  0  0  0  0  0  0  0  0
   30.4846   -9.3934    0.0000 C   0  0  0  0  0  0  0  0  0  0  0  0
   26.5876  -10.1441    0.0000 C   0  0  0  0  0  0  0  0  0  0  0  0
   31.7846   -7.1434    0.0000 N   0  0  0  0  0  0  0  0  0  0  0  0
   26.5879  -11.6441    0.0000 O   0  0  0  0  0  0  0  0  0  0  0  0
   27.8865   -9.3939    0.0000 O   0  0  0  0  0  0  0  0  0  0  0  0
  2  1  1  0
  3  2  1  0
  4  3  1  0
  5  4  1  0
  6  5  1  0
  6  7  2  0
  8  7  1  0
  9  8  1  0
  9 10  2  0
 11 10  1  0
 12 11  1  0
 13 12  1  0
 14 13  1  0
 15 14  1  0
 16 15  1  0
 18 17  2  0
 19 16  1  0
 20 17  1  0
 23 18  1  0
 23 21  2  0
 23 22  1  0
 24 19  1  0
 25 20  2  0
 25 21  1  0
 26 24  2  0
 27 22  1  0
 27 24  1  0
M  END
>  <NAME>  (3049) 
3-PYRIDYLMETHYL OCTADECA-9,12-DIENOATE

>  <SYNONYMS>  (3049) 
LINOLEIC ACID PICOLINYL ESTER

>  <SPECTRUM TYPE>  (3049) 
MS1

>  <INSTRUMENT TYPE>  (3049) 
EI-B

>  <INSTRUMENT>  (3049) 
JEOL JMS-HX-100

>  <ION MODE>  (3049) 
P

>  <INCHIKEY>  (3049) 
CBIJRFCIJWDVAB-HZJYTTRNSA-N

>  <FORMULA>  (3049) 
C24H37NO2

>  <EXACT MASS>  (3049) 
371.28242942400004

>  <MW>  (3049) 
371

>  <ID>  (3049) 
JP008093

>  <CONTRIBUTOR>  (3049) 
University of Tokyo Team, {Faculty of Engineering, University of Tokyo

>  <COMMENT>  (3049) 
SMILES=CCCCCC=CCC=CCCCCCCCC(=O)OCc(c1)cncc1
InChI=InChI=1S/C24H37NO2/c1-2-3-4-5-6-7-8-9-10-11-12-13-14-15-16-19-24(26)27-22-23-18-17-20-25-21-23/h6-7,9-10,17-18,20-21H,2-5,8,11-16,19,22H2,1H3/b7-6-,10-9-
computed SMILES=O=C(OCC=1C=NC=CC1)CCCCCCCC=CCC=CCCCCC
accession=JP008093
date=2016.01.19 (Created 2008.10.21, modified 2011.05.06)
author=YAMAMOTO M, DEP. CHEMISTRY, FAC. SCIENCE, NARA WOMEN'S UNIV.
license=CC BY-NC-SA
exact mass=371.28243
ionization energy=70 eV
ion type=[M]+*
computed spectral entropy=4.207439935395627
computed normalized entropy=0.7700529748235735
SPLASH=splash10-0596-9534000000-7872c0c8b7253398bf11
submitter=submitter = University of Tokyo Team (Faculty of Engineering, University of Tokyo)
MoNA Rating=3.75

>  <NUM PEAKS>  (3049) 
236

>  <MASS SPECTRAL PEAKS>  (3049) 
35 0.26
37 0.48
38 0.47
39 7.69
40 0.61
41 23.51
42 2.35
43 9.97
44 1.81
45 0.01
50 0.27
51 1.34
52 1.16
53 4.67
54 10.76
55 27.4
56 3.26
57 3.76
58 0.24
59 0.26
60 0.29
63 1.23
64 1.77
65 13.77
66 3.04
67 35.77
68 6.46
69 13.18
70 1.52
71 1.02
73 0.21
74 0.12
75 0.25
76 0.02
77 3.99
78 2.42
79 14.32
80 9.23
81 25.2
82 4.19
83 5.07
84 0.59
85 0.62
87 0.24
89 0.18
91 8.05
92 99.99
93 42.04
94 6.48
95 15.52
96 0.64
97 2.82
98 0.9
99 0.11
101 0.69
104 0.08
105 1.31
106 1.72
107 3.36
108 55.9
109 23.24
110 8.49
111 1.3
112 0.21
113 0.24
115 0.11
116 0.49
117 0.81
118 1.28
119 0.99
120 1.09
121 3.43
122 0.91
123 2.32
124 0.98
125 0.21
127 0.55
129 0.2
130 0.92
131 0.83
132 0.75
133 0.48
134 0.94
135 2.06
136 1.16
137 2.66
138 0.75
139 0.63
141 0.56
143 0.48
144 0.74
145 0.61
146 0.54
147 0.64
148 1.84
149 1.07
150 0.75
151 20.79
152 2.79
153 0.76
157 0.39
158 0.74
159 0.76
160 0.76
161 0.83
162 0.73
163 0.49
164 60.69
165 8.99
166 0.99
167 0.75
170 0.77
171 0.47
172 1
173 0.92
174 0.52
175 0.5
178 12.17
179 2.07
180 0.52
181 0.86
184 0.59
185 0.61
186 0.88
188 0.78
189 0.25
190 2.45
192 3.99
193 0.43
194 0.14
195 0.7
200 0.55
202 0.83
203 0.49
204 4.21
205 0.98
206 10.35
207 3.16
208 0.07
209 0.24
210 0.05
211 0.2
214 0.47
216 0.75
218 1.18
219 0.91
220 12.13
221 3.04
222 0.76
228 0.48
230 0.65
232 1
233 1.04
234 5.26
235 1.36
236 0.53
242 0.74
243 0.64
244 1.16
245 0.74
246 2.34
247 5.79
248 3.73
249 0.38
250 0.24
251 0.27
256 0.96
258 1.56
259 0.94
260 18.54
261 10.7
262 4.18
263 1.34
264 0.55
266 0.02
267 0.27
268 0.15
269 0.41
270 0.51
272 2.9
273 1.86
274 20.67
275 7.01
276 1.79
277 0.48
278 0.53
279 3.18
280 1
281 0.97
283 0.35
286 4.1
287 1.32
288 9.47
289 2.62
290 0.57
295 0.28
296 1.15
297 0.53
298 0.64
299 0.46
300 8.76
301 3.23
302 3.09
303 0.85
304 0.6
310 0.66
313 0.26
314 18.53
315 6.06
316 4.4
317 1.11
325 0.2
327 0.08
328 13.88
329 3.82
330 3.07
331 0.71
341 0.15
342 4.47
343 1.37
344 1.67
345 0.76
355 0.28
356 0.79
357 0.21
358 0.58
366 0.45
367 0.08
368 0.27
369 1.34
370 9.01
371 83.23
372 23.83
373 14.62
374 3.81
375 0.63

$$$$

     RDKit          2D

 11 11  0  0  0  0  0  0  0  0999 V2000
    2.0189   -1.8302    0.0000 C   0  0  0  0  0  0  0  0  0  0  0  0
   -1.8800   -1.0800    0.0000 C   0  0  0  0  0  0  0  0  0  0  0  0
   -0.5800   -1.8300    0.0000 C   0  0  0  0  0  0  0  0  0  0  0  0
   -1.8800    0.4200    0.0000 C   0  0  0  0  0  0  0  0  0  0  0  0
    0.7200   -1.0800    0.0000 C   0  0  0  0  0  0  0  0  0  0  0  0
   -0.5800    1.1700    0.0000 C   0  0  0  0  0  0  0  0  0  0  0  0
    0.7200    0.4200    0.0000 C   0  0  0  0  0  0  0  0  0  0  0  0
    2.0189    1.1702    0.0000 C   0  0  0  0  0  0  0  0  0  0  0  0
   -0.5800    2.6700    0.0000 O   0  0  0  0  0  0  0  0  0  0  0  0
    2.0187    2.6702    0.0000 O   0  0  0  0  0  0  0  0  0  0  0  0
    3.3181    0.4204    0.0000 O   0  0  0  0  0  0  0  0  0  0  0  0
  3  2  2  0
  4  2  1  0
  5  1  1  0
  5  3  1  0
  6  4  2  0
  7  5  2  0
  7  6  1  0
  8  7  1  0
  9  6  1  0
 10  8  2  0
 11  8  1  0
M  END
>  <NAME>  (3050) 
6-METHYLSALICYLIC ACID

>  <SYNONYMS>  (3050) 


>  <SPECTRUM TYPE>  (3050) 
MS1

>  <INSTRUMENT TYPE>  (3050) 
EI-B

>  <INSTRUMENT>  (3050) 
JEOL JMS-HX-100

>  <ION MODE>  (3050) 
P

>  <INCHIKEY>  (3050) 
HCJMNOSIAGSZBM-UHFFFAOYSA-N

>  <FORMULA>  (3050) 
C8H8O3

>  <EXACT MASS>  (3050) 
152.04734411599998

>  <MW>  (3050) 
152

>  <ID>  (3050) 
JP008039

>  <CONTRIBUTOR>  (3050) 
University of Tokyo Team, {Faculty of Engineering, University of Tokyo

>  <COMMENT>  (3050) 
SMILES=OC(=O)c(c(C)1)c(O)ccc1
InChI=InChI=1S/C8H8O3/c1-5-3-2-4-6(9)7(5)8(10)11/h2-4,9H,1H3,(H,10,11)
computed SMILES=O=C(O)C=1C(O)=CC=CC1C
accession=JP008039
date=2016.01.19 (Created 2008.10.21, modified 2011.05.06)
author=HAYASHI A, FAC. OF SCIENCE AND TECHNOLOGY, KINKI UNIV.
license=CC BY-NC-SA
exact mass=152.04734
ionization energy=70 eV
ion type=[M]+*
computed spectral entropy=3.1348905252321293
computed normalized entropy=0.6559551201701853
SPLASH=splash10-0kai-5900000000-aba68ee6dffda3922de1
submitter=submitter = University of Tokyo Team (Faculty of Engineering, University of Tokyo)
MoNA Rating=3.75

>  <NUM PEAKS>  (3050) 
119

>  <MASS SPECTRAL PEAKS>  (3050) 
35 0.28
37 1.15
38 2.64
39 10.16
40 0.46
41 2.51
42 0.38
43 1.98
44 0.87
45 1.03
46 0.21
47 0.55
48 0.29
49 0.53
50 4.48
51 11.1
52 7.53
53 4.43
54 0.61
55 2.18
56 1.06
57 3.17
58 0.26
59 1.59
60 0.69
61 1.18
62 2.27
63 4.43
64 1.02
65 1.42
66 1.47
67 2.88
68 0.43
69 1.57
70 0.81
71 1.74
72 0.13
73 0.94
74 1.57
75 1.71
76 2.23
77 17.39
78 30.56
79 4.75
80 0.45
81 0.86
82 0.48
83 2.25
84 0.47
85 1.54
86 0.42
87 0.46
88 0.19
89 0.95
90 0.6
91 0.92
92 0.33
93 0.47
94 0.24
95 0.96
96 0.46
97 1.03
98 0.38
99 0.56
100 0.15
101 0.24
102 0.14
103 0.2
104 0.8
105 33.65
106 41.21
107 5.28
108 1.89
109 0.6
110 0.36
111 0.69
112 0.37
113 0.49
114 0.14
115 0.21
116 0.29
117 0.25
118 0.67
119 0.42
120 0.2
121 0.5
122 0.19
123 0.52
124 0.17
125 0.42
126 0.1
127 0.16
128 0.2
129 0.51
130 0.19
131 0.1
132 0.19
133 0.8
134 99.99
135 12.31
136 1.12
137 0.27
138 0.25
139 0.18
140 0.2
141 0.31
143 0.28
144 0.12
145 0.23
146 0.47
147 0.18
148 0.58
149 4.59
150 0.53
151 0.56
152 48.18
153 5.08
154 0.59
155 0.24

$$$$

     RDKit          2D

 24 24  0  0  0  0  0  0  0  0999 V2000
   15.3326   -6.8939    0.0000 C   0  0  0  0  0  0  0  0  0  0  0  0
   14.0337   -6.1437    0.0000 C   0  0  0  0  0  0  0  0  0  0  0  0
   12.7345   -6.8935    0.0000 C   0  0  0  0  0  0  0  0  0  0  0  0
   11.4356   -6.1433    0.0000 C   0  0  0  0  0  0  0  0  0  0  0  0
   10.1364   -6.8931    0.0000 C   0  0  0  0  0  0  0  0  0  0  0  0
    8.8375   -6.1429    0.0000 C   0  0  0  0  0  0  0  0  0  0  0  0
    7.5384   -6.8927    0.0000 C   0  0  0  0  0  0  0  0  0  0  0  0
    6.2394   -6.1424    0.0000 C   0  0  0  0  0  0  0  0  0  0  0  0
    4.9403   -6.8922    0.0000 C   0  0  0  0  0  0  0  0  0  0  0  0
    3.6414   -6.1420    0.0000 C   0  0  0  0  0  0  0  0  0  0  0  0
    2.3422   -6.8918    0.0000 C   0  0  0  0  0  0  0  0  0  0  0  0
    1.0433   -6.1416    0.0000 C   0  0  0  0  0  0  0  0  0  0  0  0
   -0.2559   -6.8914    0.0000 C   0  0  0  0  0  0  0  0  0  0  0  0
   -4.1539   -9.1427    0.0000 C   0  0  0  0  0  0  0  0  0  0  0  0
   -1.5548   -6.1412    0.0000 C   0  0  0  0  0  0  0  0  0  0  0  0
   -2.8544   -8.3918    0.0000 C   0  0  0  0  0  0  0  0  0  0  0  0
   -5.4530   -8.3927    0.0000 C   0  0  0  0  0  0  0  0  0  0  0  0
   -2.8539   -6.8910    0.0000 C   0  0  0  0  0  0  0  0  0  0  0  0
   -5.4525   -6.8918    0.0000 C   0  0  0  0  0  0  0  0  0  0  0  0
   -4.1530   -6.1410    0.0000 C   0  0  0  0  0  0  0  0  0  0  0  0
   -4.1532   -4.6410    0.0000 C   0  0  0  0  0  0  0  0  0  0  0  0
   -6.7515   -6.1418    0.0000 O   0  0  0  0  0  0  0  0  0  0  0  0
   -2.8543   -3.8908    0.0000 O   0  0  0  0  0  0  0  0  0  0  0  0
   -5.4524   -3.8912    0.0000 O   0  0  0  0  0  0  0  0  0  0  0  0
  2  1  1  0
  3  2  1  0
  4  3  1  0
  5  4  1  0
  6  5  1  0
  7  6  1  0
  8  7  1  0
  9  8  1  0
 10  9  1  0
 11 10  1  0
 12 11  1  0
 13 12  1  0
 15 13  1  0
 16 14  2  0
 17 14  1  0
 18 15  1  0
 18 16  1  0
 19 17  2  0
 20 18  2  0
 20 19  1  0
 21 20  1  0
 22 19  1  0
 23 21  2  0
 24 21  1  0
M  END
>  <NAME>  (3051) 
6-TETRADECYLSALICYLIC ACID

>  <SYNONYMS>  (3051) 


>  <SPECTRUM TYPE>  (3051) 
MS1

>  <INSTRUMENT TYPE>  (3051) 
EI-B

>  <INSTRUMENT>  (3051) 
JEOL JMS-HX-100

>  <ION MODE>  (3051) 
P

>  <INCHIKEY>  (3051) 
DNTSXRMSSGNLFL-UHFFFAOYSA-N

>  <FORMULA>  (3051) 
C21H34O3

>  <EXACT MASS>  (3051) 
334.250794948

>  <MW>  (3051) 
334

>  <ID>  (3051) 
JP008038

>  <CONTRIBUTOR>  (3051) 
University of Tokyo Team, {Faculty of Engineering, University of Tokyo

>  <COMMENT>  (3051) 
SMILES=CCCCCCCCCCCCCCc(c1)c(C(O)=O)c(O)cc1
InChI=InChI=1S/C21H34O3/c1-2-3-4-5-6-7-8-9-10-11-12-13-15-18-16-14-17-19(22)20(18)21(23)24/h14,16-17,22H,2-13,15H2,1H3,(H,23,24)
computed SMILES=O=C(O)C=1C(O)=CC=CC1CCCCCCCCCCCCCC
date=2016.01.19 (Created 2008.10.21, modified 2011.05.06)
author=HAYASHI A, FAC. OF SCIENCE AND TECHNOLOGY, KINKI UNIV.
license=CC BY-NC-SA
accession=JP008038
exact mass=334.25079
ionization energy=70 eV
ion type=[M]+*
computed spectral entropy=4.632385986501369
computed normalized entropy=0.8402005720530175
SPLASH=splash10-01pk-2922000000-f1fbf3e008f890bbc103
submitter=submitter = University of Tokyo Team (Faculty of Engineering, University of Tokyo)
MoNA Rating=3.75

>  <NUM PEAKS>  (3051) 
248

>  <MASS SPECTRAL PEAKS>  (3051) 
39 4.19
40 0.57
41 29.07
42 3.72
43 34.6
44 2.05
45 0.56
50 0.37
51 2.5
52 0.98
53 2.4
54 1.53
55 24.98
56 3.5
57 15.59
58 0.79
60 0.52
63 1.05
64 0.65
65 4
66 3.03
67 7.46
68 1.54
69 14.17
70 1.91
71 4.74
72 0.39
73 0.63
74 0.34
75 0.42
76 0.64
77 12.83
78 6.66
79 5.9
80 1.59
81 6.9
82 1.56
83 7.12
84 1.13
85 2.15
87 0.38
89 1.96
90 2.37
91 12.51
92 2.62
93 3.58
94 2.65
95 7.92
96 1.3
97 4.59
98 0.98
99 0.56
101 0.72
102 1.62
103 6.93
104 2.42
105 28.26
106 7.93
107 32.83
108 31.38
109 5.92
110 0.97
111 1.72
112 0.64
113 0.64
114 0.44
115 4.83
116 2.37
117 3.55
118 6.37
119 7.82
120 11.05
121 14.48
122 7.36
123 3.9
124 1.49
125 0.82
127 2.04
128 1.69
129 2.69
130 2.75
131 7.91
132 14.58
133 27.9
134 62.64
135 17.79
136 12.47
137 1.99
138 0.84
139 1.19
141 1.04
142 0.45
143 1.25
144 9.65
145 22.85
146 43.92
147 79.4
148 54.68
149 18.3
150 7.66
151 28.14
152 57.39
153 6.28
154 0.9
155 0.74
156 0.65
157 9.93
158 13.05
159 23.09
160 35.18
161 88.94
162 34.47
163 24.57
164 5.9
165 5.2
166 2.67
167 0.88
168 0.34
169 1.12
170 0.91
171 10.27
172 13.06
173 15.79
174 15.75
175 31.4
176 15.55
177 5.84
178 2.2
179 1.08
180 1.23
181 0.5
183 1.8
184 1.41
185 23.81
186 12.63
187 10.46
188 8.91
189 17.95
190 6.04
191 2.05
192 0.78
193 0.52
194 0.36
195 0.44
196 0.4
197 1.75
198 1.18
199 21.69
200 11.99
201 6.25
202 3.7
203 8.15
204 2.31
205 1.17
206 0.62
207 0.43
208 0.64
209 0.3
211 1.13
212 0.89
213 12.04
214 5.98
215 3.2
216 1.91
217 5.14
218 1.46
219 0.7
221 0.68
225 0.65
226 0.53
227 12.29
228 6.36
229 2.41
230 1.29
231 8.13
232 2.24
233 0.83
234 0.32
235 0.32
236 0.87
237 0.8
238 0.33
239 0.54
241 8.39
242 5.58
243 2.21
244 0.8
245 14.47
246 4.56
247 1.08
248 0.4
253 0.33
255 8.27
256 5.08
257 1.84
258 0.57
259 24.11
260 8.18
261 1.66
262 0.37
269 7.77
270 2.84
271 1.71
272 0.59
273 32.63
274 10.51
275 1.81
276 0.35
279 0.37
281 2.46
283 4.37
284 1.34
285 2.6
286 0.81
287 32.26
288 8.65
289 1.54
290 7.9
291 1.88
292 0.33
296 2.1
297 1.75
298 31.13
299 11.78
300 2.39
301 3.13
302 1.11
303 0.43
304 0.32
305 0.37
312 0.62
313 0.81
314 8.69
315 5.43
316 66.3
317 17.54
318 3
319 0.59
320 0.58
328 0.36
330 1.2
331 0.85
332 19.13
333 5.8
334 99.99
335 27.52
336 4.49
337 0.5

$$$$

     RDKit          2D

 12 12  0  0  0  0  0  0  0  0999 V2000
    2.0189   -1.8302    0.0000 C   0  0  0  0  0  0  0  0  0  0  0  0
   -1.8790    3.4200    0.0000 C   0  0  0  0  0  0  0  0  0  0  0  0
   -1.8800   -1.0800    0.0000 C   0  0  0  0  0  0  0  0  0  0  0  0
   -0.5800   -1.8300    0.0000 C   0  0  0  0  0  0  0  0  0  0  0  0
   -1.8800    0.4200    0.0000 C   0  0  0  0  0  0  0  0  0  0  0  0
    0.7200   -1.0800    0.0000 C   0  0  0  0  0  0  0  0  0  0  0  0
   -0.5800    1.1700    0.0000 C   0  0  0  0  0  0  0  0  0  0  0  0
    0.7200    0.4200    0.0000 C   0  0  0  0  0  0  0  0  0  0  0  0
    2.0189    1.1702    0.0000 C   0  0  0  0  0  0  0  0  0  0  0  0
    2.0187    2.6702    0.0000 O   0  0  0  0  0  0  0  0  0  0  0  0
    3.3181    0.4204    0.0000 O   0  0  0  0  0  0  0  0  0  0  0  0
   -0.5800    2.6700    0.0000 O   0  0  0  0  0  0  0  0  0  0  0  0
  4  3  2  0
  5  3  1  0
  6  1  1  0
  6  4  1  0
  7  5  2  0
  8  6  2  0
  8  7  1  0
  9  8  1  0
 10  9  2  0
 11  9  1  0
 12  2  1  0
 12  7  1  0
M  END
>  <NAME>  (3052) 
2-METHOXY-6-METHYLBENZOIC ACID

>  <SYNONYMS>  (3052) 


>  <SPECTRUM TYPE>  (3052) 
MS1

>  <INSTRUMENT TYPE>  (3052) 
EI-B

>  <INSTRUMENT>  (3052) 
JEOL JMS-HX-100

>  <ION MODE>  (3052) 
P

>  <INCHIKEY>  (3052) 
MICCJGFEXKNBLU-UHFFFAOYSA-N

>  <FORMULA>  (3052) 
C9H10O3

>  <EXACT MASS>  (3052) 
166.06299417999998

>  <MW>  (3052) 
166

>  <ID>  (3052) 
JP008037

>  <CONTRIBUTOR>  (3052) 
University of Tokyo Team, {Faculty of Engineering, University of Tokyo

>  <COMMENT>  (3052) 
SMILES=COc(c1)c(C(O)=O)c(C)cc1
InChI=InChI=1S/C9H10O3/c1-6-4-3-5-7(12-2)8(6)9(10)11/h3-5H,1-2H3,(H,10,11)
computed SMILES=O=C(O)C=1C(OC)=CC=CC1C
accession=JP008037
date=2016.01.19 (Created 2008.10.21, modified 2011.05.06)
author=HAYASHI A, FAC. OF SCIENCE AND TECHNOLOGY, KINKI UNIV.
license=CC BY-NC-SA
exact mass=166.06299
ionization energy=70 eV
ion type=[M]+*
computed spectral entropy=2.968337935077858
computed normalized entropy=0.6793393662775751
SPLASH=splash10-00ke-5900000000-e1e3c6e7581751117e37
submitter=submitter = University of Tokyo Team (Faculty of Engineering, University of Tokyo)
MoNA Rating=3.75

>  <NUM PEAKS>  (3052) 
79

>  <MASS SPECTRAL PEAKS>  (3052) 
37 0.47
38 1.33
39 6.66
40 0.15
41 1.36
42 0.23
43 1.22
44 0.17
45 0.59
50 3.2
51 9.61
52 4.71
53 2.28
54 0.25
55 0.74
56 0.03
57 0.12
59 0.14
60 0.21
61 0.61
62 1.86
63 5
64 1.45
65 6.8
66 1.08
67 0.9
68 0.2
69 0.1
71 0.02
73 0.25
74 3.32
75 1.18
76 1.35
77 15.71
78 7.69
79 2.76
80 0.28
81 0.1
86 0.4
88 0.28
89 5.1
90 44.16
91 22.58
92 3.12
93 2.1
94 0.5
95 0.7
97 0.04
103 0.41
104 0.29
105 20.94
106 4.76
107 1.6
108 0.7
109 0.3
118 4.24
119 12.04
120 1.62
121 2.17
122 0.47
123 0.62
129 0.17
131 0.14
132 0.29
133 2.06
134 1.86
135 2.02
136 0.31
137 0.59
146 0.14
147 4.53
148 99.99
149 22.19
150 2.46
151 1.02
165 0.33
166 55.88
167 6.15
168 0.74

$$$$

     RDKit          2D

 15 17  0  0  0  0  0  0  0  0999 V2000
   -4.3045    1.3073    0.0000 C   0  0  0  0  0  0  0  0  0  0  0  0
    3.3100    0.7300    0.0000 C   0  0  0  0  0  0  0  0  0  0  0  0
    2.0100    1.4900    0.0000 C   0  0  0  0  0  0  0  0  0  0  0  0
    3.3100   -0.7700    0.0000 C   0  0  0  0  0  0  0  0  0  0  0  0
   -1.7900    0.1800    0.0000 C   0  0  0  0  0  0  0  0  0  0  0  0
   -2.9200   -0.7700    0.0000 C   0  0  0  0  0  0  0  0  0  0  0  0
   -0.3500   -1.8300    0.0000 C   0  0  0  0  0  0  0  0  0  0  0  0
   -1.8500    1.7900    0.0000 C   0  0  0  0  0  0  0  0  0  0  0  0
   -1.8500   -1.8300    0.0000 C   0  0  0  0  0  0  0  0  0  0  0  0
   -0.3500    1.7900    0.0000 C   0  0  0  0  0  0  0  0  0  0  0  0
    0.7100    0.7300    0.0000 C   0  0  0  0  0  0  0  0  0  0  0  0
    2.0100   -1.5100    0.0000 C   0  0  0  0  0  0  0  0  0  0  0  0
   -2.9200    0.7300    0.0000 N   0  0  0  0  0  0  0  0  0  0  0  0
    0.7100   -0.7700    0.0000 N   0  0  0  0  0  0  0  0  0  0  0  0
    2.0100   -3.0100    0.0000 O   0  0  0  0  0  0  0  0  0  0  0  0
  3  2  1  0
  4  2  2  0
  9  5  1  0
  9  6  1  0
  9  7  1  0
 10  5  1  0
 10  8  1  0
 11  3  2  0
 11 10  1  0
 12  4  1  0
 13  1  1  0
 13  6  1  0
 13  8  1  0
 14  7  1  0
 14 11  1  0
 14 12  1  0
 15 12  2  0
M  END
>  <NAME>  (3053) 
CAULOPHYLLINE

>  <SYNONYMS>  (3053) 
1,2,3,4,5,6-HEXAHYDRO-3-METHYL-1,5-METHANO-8H-PYRIDO(1,2-A)(1,5)DIAZOCIN-8-ONE

>  <SPECTRUM TYPE>  (3053) 
MS1

>  <INSTRUMENT TYPE>  (3053) 
EI-B

>  <INSTRUMENT>  (3053) 
JEOL JMS-HX-100

>  <ION MODE>  (3053) 
P

>  <INCHIKEY>  (3053) 
CULUKMPMGVXCEI-UHFFFAOYSA-N

>  <FORMULA>  (3053) 
C12H16N2O

>  <EXACT MASS>  (3053) 
204.126263132

>  <MW>  (3053) 
204

>  <ID>  (3053) 
JP008036

>  <CONTRIBUTOR>  (3053) 
University of Tokyo Team, {Faculty of Engineering, University of Tokyo

>  <COMMENT>  (3053) 
SMILES=CN(C2)CC([H])(C3)C(=C([H])1)N(CC([H])23)C(=O)C([H])=C([H])1
InChI=InChI=1S/C12H16N2O/c1-13-6-9-5-10(8-13)11-3-2-4-12(15)14(11)7-9/h2-4,9-10H,5-8H2,1H3
computed SMILES=O=C1C=CC=C2N1CC3CN(C)CC2C3
accession=JP008036
date=2016.01.19 (Created 2008.10.21, modified 2011.05.06)
author=HAYASHI A, FAC. OF SCIENCE AND TECHNOLOGY, KINKI UNIV.
license=CC BY-NC-SA
exact mass=204.12626
ionization energy=70 eV
ion type=[M]+*
computed spectral entropy=3.7778237653988054
computed normalized entropy=0.7443732772381415
SPLASH=splash10-0a4i-9410000000-6abb4fe1c6377dc04826
submitter=submitter = University of Tokyo Team (Faculty of Engineering, University of Tokyo)
MoNA Rating=3.75

>  <NUM PEAKS>  (3053) 
160

>  <MASS SPECTRAL PEAKS>  (3053) 
37 0.25
38 0.87
39 6.4
41 8.49
42 11.03
43 9.98
45 0.13
50 0.7
51 2.03
52 1.48
53 2.41
54 1.09
55 2.84
56 1.39
57 6.84
58 99.99
59 4.4
60 0.37
61 1.01
62 0.5
63 1.04
64 0.65
65 3.29
66 1.84
67 2.46
68 1.61
69 2.25
70 1.89
71 1.87
73 0.42
74 0.22
75 0.23
76 0.54
77 4.35
78 2.71
79 2.36
80 1.69
81 2.05
82 4.78
83 2.37
84 1.74
85 1.72
86 0.36
87 0.27
88 1.79
89 1.29
90 1.05
91 2.54
92 1.44
93 2.03
94 3.34
95 1.75
96 3.62
97 1.78
98 0.74
99 0.54
101 0.63
102 1.14
103 1
104 3.22
105 2.33
106 1.82
107 1
108 1.82
109 2.36
110 0.66
111 1.05
112 0.42
113 0.51
114 0.29
115 1.37
116 0.69
117 7.03
118 3.95
119 1.17
120 0.74
121 1.02
122 1.38
123 1
124 0.32
125 0.55
126 0.21
127 0.48
128 0.58
129 0.47
130 3.06
131 2.07
132 3.18
133 2.4
134 2.82
135 0.68
136 0.32
137 0.35
138 0.36
139 0.41
140 0.24
141 0.4
142 1.11
143 0.55
144 1.11
145 2.85
146 13.21
147 3.7
148 1.13
149 3.71
150 0.63
151 0.29
152 0.36
153 0.27
154 0.28
155 0.45
156 0.28
157 0.3
158 0.98
159 2.35
160 9.6
161 2.82
162 1.31
163 0.52
164 0.23
165 0.22
166 0.23
167 0.83
168 0.37
169 0.32
170 0.66
171 0.6
172 0.68
173 0.81
174 0.55
175 0.35
176 1.01
177 0.47
178 0.25
179 0.37
180 0.25
183 0.34
184 0.41
185 0.47
186 0.54
187 0.75
188 0.7
189 0.93
190 0.82
191 0.24
193 0.28
195 0.32
197 0.23
198 0.31
199 0.41
200 0.41
201 0.59
202 1.2
203 1.02
204 39.49
205 6.23
206 0.66
207 0.01
208 0.25
209 0.29

$$$$

     RDKit          2D

 15 16  0  0  0  0  0  0  0  0999 V2000
    0.0000    4.8200    0.0000 C   0  0  0  0  0  0  0  0  0  0  0  0
    3.8971    1.0700    0.0000 C   0  0  0  0  0  0  0  0  0  0  0  0
   -5.1962    4.8200    0.0000 C   0  0  0  0  0  0  0  0  0  0  0  0
    3.8976    2.5708    0.0000 C   0  0  0  0  0  0  0  0  0  0  0  0
    2.5976    0.3192    0.0000 C   0  0  0  0  0  0  0  0  0  0  0  0
   -3.8966    5.5708    0.0000 C   0  0  0  0  0  0  0  0  0  0  0  0
   -5.1966    3.3192    0.0000 C   0  0  0  0  0  0  0  0  0  0  0  0
    2.5986    3.3208    0.0000 C   0  0  0  0  0  0  0  0  0  0  0  0
    1.2986    1.0692    0.0000 C   0  0  0  0  0  0  0  0  0  0  0  0
   -2.5976    4.8208    0.0000 C   0  0  0  0  0  0  0  0  0  0  0  0
   -3.8976    2.5692    0.0000 C   0  0  0  0  0  0  0  0  0  0  0  0
    0.0000    3.3200    0.0000 C   0  0  0  0  0  0  0  0  0  0  0  0
    1.2990    2.5700    0.0000 C   0  0  0  0  0  0  0  0  0  0  0  0
   -2.5981    3.3200    0.0000 C   0  0  0  0  0  0  0  0  0  0  0  0
   -1.2990    2.5700    0.0000 N   0  0  0  0  0  0  0  0  0  0  0  0
  4  2  2  0
  5  2  1  0
  6  3  2  0
  7  3  1  0
  8  4  1  0
  9  5  2  0
 10  6  1  0
 11  7  2  0
 12  1  1  0
 13  8  2  0
 13  9  1  0
 13 12  1  0
 14 10  2  0
 14 11  1  0
 15 12  1  0
 15 14  1  0
M  END
>  <NAME>  (3054) 
N-(ALPHA-METHYL)BENZYLANILINE

>  <SYNONYMS>  (3054) 


>  <SPECTRUM TYPE>  (3054) 
MS1

>  <INSTRUMENT TYPE>  (3054) 
EI-B

>  <INSTRUMENT>  (3054) 
JEOL JMS-HX-100

>  <ION MODE>  (3054) 
P

>  <INCHIKEY>  (3054) 
IUERBKSXAYWVGE-UHFFFAOYSA-N

>  <FORMULA>  (3054) 
C14H15N

>  <EXACT MASS>  (3054) 
197.12044948

>  <MW>  (3054) 
197

>  <ID>  (3054) 
JP008035

>  <CONTRIBUTOR>  (3054) 
University of Tokyo Team, {Faculty of Engineering, University of Tokyo

>  <COMMENT>  (3054) 
SMILES=CC(Nc(c2)cccc2)c(c1)cccc1
InChI=InChI=1S/C14H15N/c1-12(13-8-4-2-5-9-13)15-14-10-6-3-7-11-14/h2-12,15H,1H3
computed SMILES=C=1C=CC(=CC1)NC(C=2C=CC=CC2)C
accession=JP008035
date=2016.01.19 (Created 2008.10.21, modified 2011.05.06)
author=HAYASHI A, FAC. OF SCIENCE AND TECHNOLOGY, KINKI UNIV.
license=CC BY-NC-SA
exact mass=197.12045
ionization energy=70 eV
ion type=[M]+*
computed spectral entropy=2.8459090485734135
computed normalized entropy=0.6895605480853079
SPLASH=splash10-053s-3900000000-9a8625f4a8d331044960
submitter=submitter = University of Tokyo Team (Faculty of Engineering, University of Tokyo)
MoNA Rating=3.75

>  <NUM PEAKS>  (3054) 
62

>  <MASS SPECTRAL PEAKS>  (3054) 
15 0.24
27 1.23
28 1.74
32 0.74
39 1.64
41 0.6
42 0.35
43 1.92
44 0.06
50 0.88
51 5.05
52 0.93
53 0.57
58 1.2
63 1.02
64 0.5
65 2.77
66 1.63
75 0.53
76 1.34
77 21.97
78 4.46
79 6.72
83 1.95
89 1.07
90 6.72
91 4.62
92 1.47
93 35.71
94 2.97
97 0.55
98 3.67
99 0.59
102 0.98
103 6.79
104 9.16
105 59.48
106 5.85
115 0.49
118 2.16
119 0.71
120 7.89
121 0.77
149 0.22
151 0.51
152 1.49
153 0.8
154 0.76
165 0.63
167 0.91
168 0.68
180 9.86
181 2.84
182 99.99
183 16.72
184 1.1
194 1.08
195 2.84
196 5.64
197 64.55
198 10.56
199 0.96

$$$$

     RDKit          2D

 12 13  0  0  0  0  0  0  0  0999 V2000
   -4.2081   -0.0153    0.0000 C   0  0  0  0  0  0  0  0  0  0  0  0
   -2.5498    2.4991    0.0000 C   0  0  0  0  0  0  0  0  0  0  0  0
   -2.9075   -0.7627    0.0000 C   0  0  0  0  0  0  0  0  0  0  0  0
    2.6900   -1.2400    0.0000 C   0  0  0  0  0  0  0  0  0  0  0  0
    1.7000   -2.3500    0.0000 C   0  0  0  0  0  0  0  0  0  0  0  0
    2.2400    0.1900    0.0000 C   0  0  0  0  0  0  0  0  0  0  0  0
    0.2300   -2.0300    0.0000 C   0  0  0  0  0  0  0  0  0  0  0  0
    0.0300    1.8000    0.0000 C   0  0  0  0  0  0  0  0  0  0  0  0
   -1.4400    1.4900    0.0000 C   0  0  0  0  0  0  0  0  0  0  0  0
    0.7700    0.5100    0.0000 C   0  0  0  0  0  0  0  0  0  0  0  0
   -0.2400   -0.6000    0.0000 C   0  0  0  0  0  0  0  0  0  0  0  0
   -1.6100   -0.0100    0.0000 N   0  0  0  0  0  0  0  0  0  0  0  0
  3  1  1  0
  5  4  2  0
  6  4  1  0
  7  5  1  0
  9  2  1  0
  9  8  1  0
 10  6  2  0
 10  8  1  0
 11  7  2  0
 11 10  1  0
 12  3  1  0
 12  9  1  0
 12 11  1  0
M  END
>  <NAME>  (3055) 
1-ETHYL-2-METHYL-DIHYDROINDOLE

>  <SYNONYMS>  (3055) 


>  <SPECTRUM TYPE>  (3055) 
MS1

>  <INSTRUMENT TYPE>  (3055) 
EI-B

>  <INSTRUMENT>  (3055) 
JEOL JMS-HX-100

>  <ION MODE>  (3055) 
P

>  <INCHIKEY>  (3055) 
IUPDNKDLTMMZSD-UHFFFAOYSA-N

>  <FORMULA>  (3055) 
C11H15N

>  <EXACT MASS>  (3055) 
161.12044948

>  <MW>  (3055) 
161

>  <ID>  (3055) 
JP008034

>  <CONTRIBUTOR>  (3055) 
University of Tokyo Team, {Faculty of Engineering, University of Tokyo

>  <COMMENT>  (3055) 
SMILES=CCN(C(C)1)c(c2)c(ccc2)C1
InChI=InChI=1S/C11H15N/c1-3-12-9(2)8-10-6-4-5-7-11(10)12/h4-7,9H,3,8H2,1-2H3
computed SMILES=C=1C=CC2=C(C1)N(CC)C(C)C2
accession=JP008034
date=2016.01.19 (Created 2008.10.21, modified 2011.05.06)
author=HAYASHI A, FAC. OF SCIENCE AND TECHNOLOGY, KINKI UNIV.
license=CC BY-NC-SA
exact mass=161.12045
ionization energy=70 eV
ion type=[M]+*
computed spectral entropy=3.1214489153678207
computed normalized entropy=0.6971664283272371
SPLASH=splash10-00kb-1900000000-c19080e7c1ca0959ebf2
submitter=submitter = University of Tokyo Team (Faculty of Engineering, University of Tokyo)
MoNA Rating=3.75

>  <NUM PEAKS>  (3055) 
88

>  <MASS SPECTRAL PEAKS>  (3055) 
28 0.79
29 0.93
37 0.11
38 0.69
39 4.04
41 1.7
42 0.13
45 0.14
50 1.41
51 3.98
52 1.63
53 0.63
54 0.44
55 0.28
56 0.34
64 1.36
65 5.64
66 0.85
67 0.32
68 0.18
69 0.18
70 0.2
71 0.58
72 0.41
73 1.88
74 0.55
75 1.05
76 1.45
77 6.65
78 1.89
79 1.01
80 2.23
81 0.34
82 0.13
86 0.06
87 0.26
88 0.45
89 5.85
90 5.11
91 15.58
92 1.48
93 0.24
94 0.17
95 0.21
96 0.21
97 0.1
102 1.81
103 3.62
104 1.61
105 1.3
106 0.67
107 0.11
113 0.37
114 0.33
115 5.19
116 2.64
117 21.34
118 37.11
119 3.84
120 0.48
121 0.15
126 0.14
127 0.75
128 1.61
129 1.72
130 17.3
131 7.77
132 5.09
133 3.32
134 0.4
140 0.26
141 0.4
142 1.07
143 2.96
144 28.07
145 5.3
146 99.99
147 14.28
148 0.8
149 0.23
157 0.83
158 2.03
159 15.75
160 4.98
161 44.47
162 6.18
163 0.46
165 0.14

$$$$

     RDKit          2D

 15 16  0  0  0  0  0  0  0  0999 V2000
    3.5756    1.6314    0.0000 C   0  0  0  0  0  0  0  0  0  0  0  0
    3.5761    3.1322    0.0000 C   0  0  0  0  0  0  0  0  0  0  0  0
    2.2761    0.8806    0.0000 C   0  0  0  0  0  0  0  0  0  0  0  0
   -4.2194    6.1258    0.0000 C   0  0  0  0  0  0  0  0  0  0  0  0
    2.2771    3.8822    0.0000 C   0  0  0  0  0  0  0  0  0  0  0  0
    0.9771    1.6306    0.0000 C   0  0  0  0  0  0  0  0  0  0  0  0
   -5.5151    5.3858    0.0000 C   0  0  0  0  0  0  0  0  0  0  0  0
   -2.9216    5.3736    0.0000 C   0  0  0  0  0  0  0  0  0  0  0  0
   -4.2204    3.1328    0.0000 C   0  0  0  0  0  0  0  0  0  0  0  0
   -0.3215    3.8814    0.0000 C   0  0  0  0  0  0  0  0  0  0  0  0
    0.9775    3.1314    0.0000 C   0  0  0  0  0  0  0  0  0  0  0  0
   -5.5181    3.8849    0.0000 C   0  0  0  0  0  0  0  0  0  0  0  0
   -2.9196    3.8814    0.0000 C   0  0  0  0  0  0  0  0  0  0  0  0
   -6.8185    3.1373    0.0000 Cl  0  0  0  0  0  0  0  0  0  0  0  0
   -1.6205    3.1314    0.0000 N   0  0  0  0  0  0  0  0  0  0  0  0
  2  1  2  0
  3  1  1  0
  5  2  1  0
  6  3  2  0
  7  4  2  0
  8  4  1  0
 11  5  2  0
 11  6  1  0
 11 10  1  0
 12  7  1  0
 12  9  2  0
 13  8  2  0
 13  9  1  0
 14 12  1  0
 15 10  1  0
 15 13  1  0
M  END
>  <NAME>  (3056) 
3-CHLORO-N-BENZYLANILINE

>  <SYNONYMS>  (3056) 


>  <SPECTRUM TYPE>  (3056) 
MS1

>  <INSTRUMENT TYPE>  (3056) 
EI-B

>  <INSTRUMENT>  (3056) 
JEOL JMS-HX-100

>  <ION MODE>  (3056) 
P

>  <INCHIKEY>  (3056) 
NQIJQQDDQDHYJK-UHFFFAOYSA-N

>  <FORMULA>  (3056) 
C13H12ClN

>  <EXACT MASS>  (3056) 
217.065827064

>  <MW>  (3056) 
217

>  <ID>  (3056) 
JP008033

>  <CONTRIBUTOR>  (3056) 
University of Tokyo Team, {Faculty of Engineering, University of Tokyo

>  <COMMENT>  (3056) 
SMILES=Clc(c2)cc(cc2)NCc(c1)cccc1
InChI=InChI=1S/C13H12ClN/c14-12-7-4-8-13(9-12)15-10-11-5-2-1-3-6-11/h1-9,15H,10H2
computed SMILES=ClC1=CC=CC(=C1)NCC=2C=CC=CC2
accession=JP008033
date=2016.01.19 (Created 2008.10.21, modified 2011.05.06)
author=HAYASHI A, FAC. OF SCIENCE AND TECHNOLOGY, KINKI UNIV.
license=CC BY-NC-SA
exact mass=217.06583
ionization energy=70 eV
ion type=[M]+*
computed spectral entropy=2.5790650352027016
computed normalized entropy=0.5992160851086736
SPLASH=splash10-014l-8290000000-0482df0a77b47fc69cca
submitter=submitter = University of Tokyo Team (Faculty of Engineering, University of Tokyo)
MoNA Rating=3.75

>  <NUM PEAKS>  (3056) 
74

>  <MASS SPECTRAL PEAKS>  (3056) 
36 0.23
37 0.05
38 0.27
39 0.76
50 0.17
51 2.19
52 0.48
62 0.57
63 2.44
64 0.99
65 6.51
69 0.06
70 0.11
71 0.16
73 0.2
74 0.26
75 3.19
78 0.94
79 0.24
83 0.62
84 0.16
85 0.48
89 2.52
90 2.51
91 99.99
92 8.95
99 1.14
101 0.18
102 0.33
103 0.15
107 0.07
108 1.62
109 0.53
111 7.04
112 1.15
113 2.37
114 0.21
115 0.22
116 0.02
125 0.16
126 0.24
127 0.86
128 0.18
129 0.23
138 3.99
139 1.11
140 9.37
141 1.16
142 2.83
143 0.29
152 1.34
153 0.8
154 0.52
155 0.22
165 0.35
166 0.17
167 0.29
177 0.17
178 0.38
179 0.36
180 2.41
181 0.93
182 0.73
183 0.28
188 0.13
190 0.06
214 5.59
215 5.02
216 17.66
217 65.96
218 15.56
219 24.03
220 3.38
221 0.27

$$$$

     RDKit          2D

 14 16  0  0  0  0  0  0  0  0999 V2000
   -3.4029   -3.7064    0.0000 C   0  0  0  0  0  0  0  0  0  0  0  0
   -4.2167   -1.7947    0.0000 C   0  0  0  0  0  0  0  0  0  0  0  0
   -1.3405   -3.4553    0.0000 C   0  0  0  0  0  0  0  0  0  0  0  0
    0.5111   -2.8687    0.0000 C   0  0  0  0  0  0  0  0  0  0  0  0
    2.1145   -2.1499    0.0000 C   0  0  0  0  0  0  0  0  0  0  0  0
   -1.3496    1.3501    0.0000 C   0  0  0  0  0  0  0  0  0  0  0  0
   -2.6486    0.6001    0.0000 C   0  0  0  0  0  0  0  0  0  0  0  0
   -0.0505   -0.8999    0.0000 C   0  0  0  0  0  0  0  0  0  0  0  0
   -1.3496   -1.6499    0.0000 C   0  0  0  0  0  0  0  0  0  0  0  0
   -0.0505    0.6001    0.0000 C   0  0  0  0  0  0  0  0  0  0  0  0
    1.9353   -0.4019    0.0000 C   0  0  0  0  0  0  0  0  0  0  0  0
   -2.6486   -0.8999    0.0000 C   0  0  0  0  0  0  0  0  0  0  0  0
    3.1709    0.4486    0.0000 O   0  0  0  0  0  0  0  0  0  0  0  0
   -5.5439   -0.3894    0.0000 O   0  0  0  0  0  0  0  0  0  0  0  0
  2  1  1  0
  3  1  1  0
  5  4  1  0
  7  2  1  0
  7  6  1  0
  8  3  1  0
  9  4  1  0
  9  8  1  0
 10  6  1  0
 10  8  1  0
 11  5  1  0
 11 10  1  0
 12  7  1  0
 12  9  1  0
 13 11  2  0
 14 12  2  0
M  END
>  <NAME>  (3057) 
TRICYCLO(5.4.1.0(3,8))DODECANE-2,6-DIONE

>  <SYNONYMS>  (3057) 


>  <SPECTRUM TYPE>  (3057) 
MS1

>  <INSTRUMENT TYPE>  (3057) 
EI-B

>  <INSTRUMENT>  (3057) 
JEOL JMS-DX-300

>  <ION MODE>  (3057) 
P

>  <INCHIKEY>  (3057) 
XIIQXOFOUYTYTF-UHFFFAOYSA-N

>  <FORMULA>  (3057) 
C12H16O2

>  <EXACT MASS>  (3057) 
192.115029752

>  <MW>  (3057) 
192

>  <ID>  (3057) 
JP008025

>  <CONTRIBUTOR>  (3057) 
University of Tokyo Team, {Faculty of Engineering, University of Tokyo

>  <COMMENT>  (3057) 
SMILES=O=C(C3)C(C1)C(C2)C(C3)C(=O)C(CC2)1
InChI=InChI=1S/C12H16O2/c13-11-5-4-9-8-3-1-2-7(12(9)14)6-10(8)11/h7-10H,1-6H2
computed SMILES=O=C1CCC2C(=O)C3CCCC2C1C3
accession=JP008025
date=2016.01.19 (Created 2008.10.21, modified 2011.05.06)
author=HISAHIRO HAGIWARA, CHEMICAL RESEARCH INSTITUTE OF NON-AQUEOUSSOLUTIONS TOHOKU UNIV.
license=CC BY-NC-SA
exact mass=192.11503
ionization energy=70 eV
ion type=[M]+*
computed spectral entropy=3.5587256255461663
computed normalized entropy=0.9243088820713118
SPLASH=splash10-004l-9600000000-25c4fbd14ea8f02e88be
submitter=submitter = University of Tokyo Team (Faculty of Engineering, University of Tokyo)
MoNA Rating=3.75

>  <NUM PEAKS>  (3057) 
47

>  <MASS SPECTRAL PEAKS>  (3057) 
31 9.99
39 38.92
41 38.8
43 8.32
53 27.13
54 12.66
55 68.78
65 1.39
66 15.64
67 33.27
68 19.24
69 9.87
77 25.27
78 8.44
79 63.25
80 3.83
81 25.7
82 16.95
83 18.13
84 8.88
91 27.19
92 13.66
93 28.24
94 35.38
95 38.86
96 24.58
97 31.41
98 8.81
104 10.18
105 16.39
107 20.36
108 1.03
109 12.29
110 14.46
112 12.1
119 8.19
120 12.17
121 25.57
122 16.39
125 99.99
135 16.95
136 12.97
145 40.16
148 13.72
163 33.83
191 87.46
192 9.87

$$$$

     RDKit          2D

 15 16  0  0  1  0  0  0  0  0999 V2000
    2.5990   -5.2500    0.0000 C   0  0  0  0  0  0  0  0  0  0  0  0
   -2.6000   -0.7500    0.0000 C   0  0  0  0  0  0  0  0  0  0  0  0
   -2.6000    0.7500    0.0000 C   0  0  0  0  0  0  0  0  0  0  0  0
   -1.3000   -1.5000    0.0000 C   0  0  0  0  0  0  0  0  0  0  0  0
   -1.3000    1.5000    0.0000 C   0  0  0  0  0  0  0  0  0  0  0  0
    2.6000   -0.7500    0.0000 C   0  0  0  0  0  0  0  0  0  0  0  0
    2.6000    0.7500    0.0000 C   0  0  0  0  0  0  0  0  0  0  0  0
    0.0000   -0.7500    0.0000 C   0  0  0  0  0  0  0  0  0  0  0  0
    0.0000    0.7500    0.0000 C   0  0  0  0  0  0  0  0  0  0  0  0
    1.3000   -1.5000    0.0000 C   0  0  0  0  0  0  0  0  0  0  0  0
    1.3000    1.5000    0.0000 C   0  0  0  0  0  0  0  0  0  0  0  0
    1.3000   -3.0000    0.0000 C   0  0  0  0  0  0  0  0  0  0  0  0
    1.3000    3.0000    0.0000 O   0  0  0  0  0  0  0  0  0  0  0  0
    0.0010   -3.7500    0.0000 O   0  0  0  0  0  0  0  0  0  0  0  0
    2.5990   -3.7500    0.0000 O   0  0  0  0  0  0  0  0  0  0  0  0
  3  2  1  0
  4  2  1  0
  5  3  1  0
  7  6  1  0
  8  4  1  6
  9  5  1  6
  9  8  1  0
 10  6  1  0
 10  8  1  0
 11  7  1  0
 11  9  1  0
 10 12  1  6
 13 11  2  0
 14 12  2  0
 15  1  1  0
 15 12  1  0
M  END
>  <NAME>  (3058) 
METHYL 3,4,4ABETA,5,6,7,8,8ABETA-OCTAHYDRONAPHTHALEN-1(2H)-OXO-4ALPHA-CARBOXYLATE

>  <SYNONYMS>  (3058) 


>  <SPECTRUM TYPE>  (3058) 
MS1

>  <INSTRUMENT TYPE>  (3058) 
EI-B

>  <INSTRUMENT>  (3058) 
JEOL JMS-DX-300

>  <ION MODE>  (3058) 
P

>  <INCHIKEY>  (3058) 
JPFUEZPXKCRLTQ-UTLUCORTSA-N

>  <FORMULA>  (3058) 
C12H18O3

>  <EXACT MASS>  (3058) 
210.12559443599997

>  <MW>  (3058) 
210

>  <ID>  (3058) 
JP008021

>  <CONTRIBUTOR>  (3058) 
University of Tokyo Team, {Faculty of Engineering, University of Tokyo

>  <COMMENT>  (3058) 
SMILES=COC(=O)C([H])(C1)C([H])(C2)C([H])(CCC2)C(=O)C1
InChI=InChI=1S/C12H18O3/c1-15-12(14)10-6-7-11(13)9-5-3-2-4-8(9)10/h8-10H,2-7H2,1H3/t8-,9+,10+/m1/s1
computed SMILES=O=C(OC)C1CCC(=O)C2CCCCC12
accession=JP008021
date=2016.01.19 (Created 2008.10.21, modified 2011.05.06)
author=HISAHIRO HAGIWARA, CHEMICAL RESEARCH INSTITUTE OF NON-AQUEOUSSOLUTIONS TOHOKU UNIV.
license=CC BY-NC-SA
exact mass=210.12559
ionization energy=70 eV
ion type=[M]+*
computed spectral entropy=3.4584594480559137
computed normalized entropy=0.9313026342114858
SPLASH=splash10-0r2c-9810000000-012fb542b363f1a6cf2f
submitter=submitter = University of Tokyo Team (Faculty of Engineering, University of Tokyo)
MoNA Rating=3.75

>  <NUM PEAKS>  (3058) 
41

>  <MASS SPECTRAL PEAKS>  (3058) 
39 25.03
40 43.32
41 45.55
42 10.11
43 15.35
44 13.44
53 18.18
55 44.24
59 14.16
67 34.51
68 10.41
77 12.31
79 23.72
80 21.25
81 44.85
83 13.59
87 13.27
91 17.45
93 10.66
94 13.12
95 30.74
96 13.76
100 90.53
101 13.82
108 11.39
109 37.59
122 10.17
124 22.77
128 99.99
129 10.03
132 12.54
133 3.66
150 27
151 23.49
154 16.52
155 41.48
168 10.07
178 18.96
179 17.17
192 12.47
210 61.8

$$$$

     RDKit          2D

 14 15  0  0  0  0  0  0  0  0999 V2000
    1.2362    2.4975    0.0000 C   0  0  0  0  0  0  0  0  0  0  0  0
    0.2720    4.1675    0.0000 C   0  0  0  0  0  0  0  0  0  0  0  0
   -4.1382   -0.9920    0.0000 C   0  0  0  0  0  0  0  0  0  0  0  0
   -5.4372    1.2580    0.0000 C   0  0  0  0  0  0  0  0  0  0  0  0
   -2.8391   -0.2420    0.0000 C   0  0  0  0  0  0  0  0  0  0  0  0
   -4.1382    2.0080    0.0000 C   0  0  0  0  0  0  0  0  0  0  0  0
   -1.5401    3.5080    0.0000 C   0  0  0  0  0  0  0  0  0  0  0  0
   -0.2410    1.2580    0.0000 C   0  0  0  0  0  0  0  0  0  0  0  0
   -5.4372   -0.2420    0.0000 C   0  0  0  0  0  0  0  0  0  0  0  0
   -0.2410    2.7580    0.0000 C   0  0  0  0  0  0  0  0  0  0  0  0
   -2.8391    1.2580    0.0000 C   0  0  0  0  0  0  0  0  0  0  0  0
   -6.7362   -0.9920    0.0000 O   0  0  0  0  0  0  0  0  0  0  0  0
   -2.8391    2.7580    0.0000 O   0  0  0  0  0  0  0  0  0  0  0  0
   -1.5401    0.5080    0.0000 O   0  0  0  0  0  0  0  0  0  0  0  0
  5  3  1  0
  6  4  1  0
  9  3  1  0
  9  4  1  0
 10  1  1  0
 10  2  1  0
 10  7  1  0
 10  8  1  0
 11  5  1  0
 11  6  1  0
 12  9  2  0
 13  7  1  0
 13 11  1  0
 14  8  1  0
 14 11  1  0
M  END
>  <NAME>  (3059) 
1,4-CYCLOHEXANDIONE MONO-2,2-DIMETHYLTRIMETHYLENE ACETAL

>  <SYNONYMS>  (3059) 


>  <SPECTRUM TYPE>  (3059) 
MS1

>  <INSTRUMENT TYPE>  (3059) 
EI-B

>  <INSTRUMENT>  (3059) 
JEOL JMS-DX-300

>  <ION MODE>  (3059) 
P

>  <INCHIKEY>  (3059) 
COKVDTKAWIFNTH-UHFFFAOYSA-N

>  <FORMULA>  (3059) 
C11H18O3

>  <EXACT MASS>  (3059) 
198.12559443599997

>  <MW>  (3059) 
198

>  <ID>  (3059) 
JP008020

>  <CONTRIBUTOR>  (3059) 
University of Tokyo Team, {Faculty of Engineering, University of Tokyo

>  <COMMENT>  (3059) 
SMILES=O=C(C2)CCC(C2)(O1)OCC(C)(C)C1
InChI=InChI=1S/C11H18O3/c1-10(2)7-13-11(14-8-10)5-3-9(12)4-6-11/h3-8H2,1-2H3
computed SMILES=O=C1CCC2(OCC(C)(C)CO2)CC1
accession=JP008020
date=2016.01.19 (Created 2008.10.21, modified 2011.05.06)
author=HISAHIRO HAGIWARA, CHEMICAL RESEARCH INSTITUTE OF NON-AQUEOUSSOLUTIONS TOHOKU UNIV.
license=CC BY-NC-SA
exact mass=198.12559
ionization energy=70 eV
ion type=[M]+*
computed spectral entropy=2.5486784095498054
computed normalized entropy=0.7568917428796397
SPLASH=splash10-052f-9400000000-9146e716b0e3bb7e4bfb
submitter=submitter = University of Tokyo Team (Faculty of Engineering, University of Tokyo)
MoNA Rating=3.75

>  <NUM PEAKS>  (3059) 
29

>  <MASS SPECTRAL PEAKS>  (3059) 
39 8.25
40 2.02
41 34.52
42 4.73
43 7.08
45 2.98
53 3.1
55 55.34
56 90.75
57 23.62
58 2.09
67 4.34
68 2.19
69 77.94
70 7.73
71 9.44
74 4.07
83 2.96
84 2.31
85 0.32
111 3.28
112 4.36
113 12.06
128 3.35
141 99.99
142 27.42
143 22.41
144 2.03
198 2.15

$$$$

     RDKit          2D

 16 16  0  0  0  0  0  0  0  0999 V2000
   -5.8011   -2.5478    0.0000 C   0  0  0  0  0  0  0  0  0  0  0  0
    4.5912    0.4522    0.0000 C   0  0  0  0  0  0  0  0  0  0  0  0
    1.0292   -3.6975    0.0000 C   0  0  0  0  0  0  0  0  0  0  0  0
    2.9577   -3.6978    0.0000 C   0  0  0  0  0  0  0  0  0  0  0  0
   -4.5021   -1.7978    0.0000 C   0  0  0  0  0  0  0  0  0  0  0  0
   -1.9040   -1.7978    0.0000 C   0  0  0  0  0  0  0  0  0  0  0  0
   -0.6049   -2.5478    0.0000 C   0  0  0  0  0  0  0  0  0  0  0  0
    1.9927    0.4530    0.0000 C   0  0  0  0  0  0  0  0  0  0  0  0
    3.2927   -1.7986    0.0000 C   0  0  0  0  0  0  0  0  0  0  0  0
    3.2922   -0.2978    0.0000 C   0  0  0  0  0  0  0  0  0  0  0  0
   -3.2030   -2.5478    0.0000 C   0  0  0  0  0  0  0  0  0  0  0  0
    0.6941   -1.7978    0.0000 C   0  0  0  0  0  0  0  0  0  0  0  0
    0.6936   -0.2970    0.0000 C   0  0  0  0  0  0  0  0  0  0  0  0
    1.9936   -2.5486    0.0000 C   0  0  0  0  0  0  0  0  0  0  0  0
   -3.2030   -4.0478    0.0000 O   0  0  0  0  0  0  0  0  0  0  0  0
   -0.6055    0.4528    0.0000 O   0  0  0  0  0  0  0  0  0  0  0  0
  5  1  2  0
  7  6  1  0
 10  2  1  0
 10  8  2  0
 10  9  1  0
 11  5  1  0
 11  6  1  0
 12  7  1  0
 13  8  1  0
 13 12  1  0
 14  3  1  0
 14  4  1  0
 14  9  1  0
 14 12  1  0
 15 11  2  0
 16 13  2  0
M  END
>  <NAME>  (3060) 
6-(3-OXO-4-PENTENYL)-3,5,5,TRIMETHYL-2-CYCLOHEXEN-1-ONE

>  <SYNONYMS>  (3060) 


>  <SPECTRUM TYPE>  (3060) 
MS1

>  <INSTRUMENT TYPE>  (3060) 
EI-B

>  <INSTRUMENT>  (3060) 
JEOL JMS-DX-300

>  <ION MODE>  (3060) 
P

>  <INCHIKEY>  (3060) 
HYRPKMBIQXSAKW-UHFFFAOYSA-N

>  <FORMULA>  (3060) 
C14H20O2

>  <EXACT MASS>  (3060) 
220.14632988

>  <MW>  (3060) 
220

>  <ID>  (3060) 
JP008019

>  <CONTRIBUTOR>  (3060) 
University of Tokyo Team, {Faculty of Engineering, University of Tokyo

>  <COMMENT>  (3060) 
SMILES=C=CC(=O)CCC(C(=O)1)C(C)(C)CC(C)=C1
InChI=InChI=1S/C14H20O2/c1-5-11(15)6-7-12-13(16)8-10(2)9-14(12,3)4/h5,8,12H,1,6-7,9H2,2-4H3
computed SMILES=O=C(C=C)CCC1C(=O)C=C(C)CC1(C)C
accession=JP008019
date=2016.01.19 (Created 2008.10.21, modified 2011.05.06)
author=HISAHIRO HAGIWARA, CHEMICAL RESEARCH INSTITUTE OF NON-AQUEOUSSOLUTIONS TOHOKU UNIV.
license=CC BY-NC-SA
exact mass=220.14633
ionization energy=70 eV
ion type=[M]+*
computed spectral entropy=3.2307606467688568
computed normalized entropy=0.8137337800631327
SPLASH=splash10-05ar-9500000000-35fb0cde09918f8f850b
submitter=submitter = University of Tokyo Team (Faculty of Engineering, University of Tokyo)
MoNA Rating=3.75

>  <NUM PEAKS>  (3060) 
53

>  <MASS SPECTRAL PEAKS>  (3060) 
31 2.16
39 29.94
40 2.48
41 41.37
43 12.73
52 3.45
53 13.64
54 1.79
55 81.03
56 5.02
57 5.76
65 7.74
66 2.78
67 13.46
68 5.57
69 1.23
70 8.47
77 14.82
78 3.48
79 10.72
80 3.23
81 10.6
82 99.99
83 39.06
84 2.39
91 14.61
92 2.33
93 0.43
94 4.58
95 18.08
96 4.44
97 2.25
105 6.98
107 8.77
108 4.96
109 10.96
110 3.47
122 2.62
123 97.57
124 8.04
135 74.7
136 10.32
137 6.07
138 15.28
150 3.12
151 11.11
165 3.97
177 5.02
191 2.69
205 27.57
206 3.3
220 6.78
221 1.35

$$$$

     RDKit          2D

 21 22  0  0  1  0  0  0  0  0999 V2000
    0.5658   -7.7665    0.0000 C   0  0  0  0  0  0  0  0  0  0  0  0
   -1.8755   -6.8776    0.0000 C   0  0  0  0  0  0  0  0  0  0  0  0
    3.8989    1.5002    0.0000 C   0  0  0  0  0  0  0  0  0  0  0  0
   -2.2641   -2.6492    0.0000 C   0  0  0  0  0  0  0  0  0  0  0  0
   -0.8491   -4.0587    0.0000 C   0  0  0  0  0  0  0  0  0  0  0  0
   -2.6000    0.7500    0.0000 C   0  0  0  0  0  0  0  0  0  0  0  0
    0.1149   -5.2078    0.0000 C   0  0  0  0  0  0  0  0  0  0  0  0
    2.6000   -0.7500    0.0000 C   0  0  0  0  0  0  0  0  0  0  0  0
    1.3000   -1.5000    0.0000 C   0  0  0  0  0  0  0  0  0  0  0  0
   -0.3359   -2.6492    0.0000 C   0  0  0  0  0  0  0  0  0  0  0  0
   -2.6000   -0.7500    0.0000 C   0  0  0  0  0  0  0  0  0  0  0  0
   -1.3000    1.5000    0.0000 C   0  0  0  0  0  0  0  0  0  0  0  0
    0.0000    2.2500    0.0000 C   0  0  0  0  0  0  0  0  0  0  0  0
   -0.3982   -6.6173    0.0000 C   0  0  0  0  0  0  0  0  0  0  0  0
    2.6000    0.7500    0.0000 C   0  0  0  0  0  0  0  0  0  0  0  0
    0.0000   -0.7500    0.0000 C   0  0  0  0  0  0  0  0  0  0  0  0
    1.3000    1.5000    0.0000 C   0  0  0  0  0  0  0  0  0  0  0  0
   -1.3000   -1.5000    0.0000 C   0  0  0  0  0  0  0  0  0  0  0  0
    0.0000    0.7500    0.0000 C   0  0  0  0  0  0  0  0  0  0  0  0
   -1.2990    3.0000    0.0000 O   0  0  0  0  0  0  0  0  0  0  0  0
    1.3000    3.0000    0.0000 O   0  0  0  0  0  0  0  0  0  0  0  0
  7  5  1  0
  9  8  1  0
 10  5  1  0
 11  6  1  0
 12  6  1  0
 14  1  1  0
 14  2  1  0
 14  7  2  0
 15  3  1  0
 15  8  1  0
 16  9  1  1
 17 15  1  0
 18  4  1  1
 18 10  1  0
 18 11  1  0
 18 16  1  0
 19 12  1  0
 19 13  1  1
 19 16  1  0
 19 17  1  0
 20 13  2  0
 21 17  2  0
M  END
>  <NAME>  (3061) 
(2XI,4AS,5S,8AS)-(-)-2,5BETA-DIMETHYL-8ABETA-FORMYL-5ALPHA-(4-METHYL-3-PENTENYL)-3,4,4A,5,6,7,8,8A-OCTAHYDRONAPHTHALEN-1(2H)-ONE

>  <SYNONYMS>  (3061) 


>  <SPECTRUM TYPE>  (3061) 
MS1

>  <INSTRUMENT TYPE>  (3061) 
EI-B

>  <INSTRUMENT>  (3061) 
JEOL JMS-DX-300

>  <ION MODE>  (3061) 
P

>  <INCHIKEY>  (3061) 
QPBPFGSCXQOAFN-KHBMUKGWSA-N

>  <FORMULA>  (3061) 
C19H30O2

>  <EXACT MASS>  (3061) 
290.2245802

>  <MW>  (3061) 
290

>  <ID>  (3061) 
JP008018

>  <CONTRIBUTOR>  (3061) 
University of Tokyo Team, {Faculty of Engineering, University of Tokyo

>  <COMMENT>  (3061) 
SMILES=CC(C)=CCCC(C)(C2)C([H])(C1)C(C=O)(CC2)C(=O)C(C)C1
InChI=InChI=1S/C19H30O2/c1-14(2)7-5-10-18(4)11-6-12-19(13-20)16(18)9-8-15(3)17(19)21/h7,13,15-16H,5-6,8-12H2,1-4H3/t15?,16-,18+,19+/m0/s1
computed SMILES=O=CC12C(=O)C(C)CCC1C(C)(CCC=C(C)C)CCC2
accession=JP008018
date=2016.01.19 (Created 2008.10.21, modified 2011.05.06)
author=HISAHIRO HAGIWARA, CHEMICAL RESEARCH INSTITUTE OF NON-AQUEOUSSOLUTIONS TOHOKU UNIV.
license=CC BY-NC-SA
exact mass=290.22458
ionization energy=70 eV
ion type=[M]+*
computed spectral entropy=3.6588760536006566
computed normalized entropy=0.9401451694408763
SPLASH=splash10-05mp-7910000000-37a6e972442c0476b777
submitter=submitter = University of Tokyo Team (Faculty of Engineering, University of Tokyo)
MoNA Rating=3.75

>  <NUM PEAKS>  (3061) 
49

>  <MASS SPECTRAL PEAKS>  (3061) 
40 99.99
43 35.15
44 26.01
55 29.89
57 39.23
69 54.19
70 26.56
71 29.57
81 33.75
82 17.9
83 31.26
88 2.37
93 15.87
95 24.05
96 14.35
97 1.61
101 12.73
105 15.74
107 16.44
109 26.56
110 11.52
111 11.56
112 14.38
113 15.77
119 10.55
121 27.46
122 12.07
123 15.73
125 14.01
133 11.5
135 21.02
136 10.99
137 12.68
148 12.14
149 96.73
150 14.33
159 11.57
161 21.29
163 13.36
167 41.59
177 19.94
178 46.23
179 23.88
189 10.18
207 23.96
261 19.09
262 16.57
279 19.96
290 20.68

$$$$

     RDKit          2D

 24 25  0  0  1  0  0  0  0  0999 V2000
    0.5658   -7.7665    0.0000 C   0  0  0  0  0  0  0  0  0  0  0  0
   -1.8755   -6.8776    0.0000 C   0  0  0  0  0  0  0  0  0  0  0  0
    3.8989    1.5002    0.0000 C   0  0  0  0  0  0  0  0  0  0  0  0
   -2.2641   -2.6492    0.0000 C   0  0  0  0  0  0  0  0  0  0  0  0
   -2.5981    6.7500    0.0000 C   0  0  0  0  0  0  0  0  0  0  0  0
   -0.8491   -4.0587    0.0000 C   0  0  0  0  0  0  0  0  0  0  0  0
   -2.6000    0.7500    0.0000 C   0  0  0  0  0  0  0  0  0  0  0  0
    0.1149   -5.2078    0.0000 C   0  0  0  0  0  0  0  0  0  0  0  0
    2.6000   -0.7500    0.0000 C   0  0  0  0  0  0  0  0  0  0  0  0
    1.3000   -1.5000    0.0000 C   0  0  0  0  0  0  0  0  0  0  0  0
   -0.3359   -2.6492    0.0000 C   0  0  0  0  0  0  0  0  0  0  0  0
   -2.6000   -0.7500    0.0000 C   0  0  0  0  0  0  0  0  0  0  0  0
   -1.3000    1.5000    0.0000 C   0  0  0  0  0  0  0  0  0  0  0  0
    0.0000    2.2500    0.0000 C   0  0  0  0  0  0  0  0  0  0  0  0
   -1.2990    4.5000    0.0000 C   0  0  0  0  0  0  0  0  0  0  0  0
   -0.3982   -6.6173    0.0000 C   0  0  0  0  0  0  0  0  0  0  0  0
    2.6000    0.7500    0.0000 C   0  0  0  0  0  0  0  0  0  0  0  0
    0.0000   -0.7500    0.0000 C   0  0  0  0  0  0  0  0  0  0  0  0
    1.3000    1.5000    0.0000 C   0  0  0  0  0  0  0  0  0  0  0  0
   -1.3000   -1.5000    0.0000 C   0  0  0  0  0  0  0  0  0  0  0  0
    0.0000    0.7500    0.0000 C   0  0  0  0  0  0  0  0  0  0  0  0
    1.3000    3.0000    0.0000 O   0  0  0  0  0  0  0  0  0  0  0  0
   -2.5981    5.2500    0.0000 O   0  0  0  0  0  0  0  0  0  0  0  0
   -1.2990    3.0000    0.0000 O   0  0  0  0  0  0  0  0  0  0  0  0
  8  6  1  0
 10  9  1  0
 11  6  1  0
 12  7  1  0
 13  7  1  0
 16  1  1  0
 16  2  1  0
 16  8  2  0
 17  3  1  0
 17  9  1  0
 18 10  1  1
 19 17  1  0
 20  4  1  1
 20 11  1  0
 20 12  1  0
 20 18  1  0
 21 13  1  0
 21 14  1  1
 21 18  1  0
 21 19  1  0
 22 19  2  0
 23  5  1  0
 23 15  1  0
 24 14  1  0
 24 15  1  0
M  END
>  <NAME>  (3062) 
(2XI,4AS,5S 8AS)-(+)-2,5BETA-DIMETHYL-8ABETA-METHOXYMETHOXYMETHYL-5ALPAH-(4-METHYL-3-PENTENYL)-3,4,4A,5,6,7,8,8A-OCTAHYDRONAPHTHALEN-1(2H)-ONE

>  <SYNONYMS>  (3062) 


>  <SPECTRUM TYPE>  (3062) 
MS1

>  <INSTRUMENT TYPE>  (3062) 
EI-B

>  <INSTRUMENT>  (3062) 
JEOL JMS-DX-300

>  <ION MODE>  (3062) 
P

>  <INCHIKEY>  (3062) 
AHDSEBVMDMJCBB-LSMWDBJESA-N

>  <FORMULA>  (3062) 
C21H36O3

>  <EXACT MASS>  (3062) 
336.26644501199996

>  <MW>  (3062) 
336

>  <ID>  (3062) 
JP008017

>  <CONTRIBUTOR>  (3062) 
University of Tokyo Team, {Faculty of Engineering, University of Tokyo

>  <COMMENT>  (3062) 
SMILES=COCOCC(C1)(C(=O)2)C([H])(CCC(C)2)C(C)(CCC=C(C)C)CC1
InChI=InChI=1S/C21H36O3/c1-16(2)8-6-11-20(4)12-7-13-21(14-24-15-23-5)18(20)10-9-17(3)19(21)22/h8,17-18H,6-7,9-15H2,1-5H3/t17?,18-,20+,21+/m0/s1
computed SMILES=O=C1C(C)CCC2C1(COCOC)CCCC2(C)CCC=C(C)C
accession=JP008017
date=2016.01.19 (Created 2008.10.21, modified 2011.05.06)
author=HISAHIRO HAGIWARA, CHEMICAL RESEARCH INSTITUTE OF NON-AQUEOUSSOLUTIONS TOHOKU UNIV.
license=CC BY-NC-SA
exact mass=336.26645
ionization energy=70 eV
ion type=[M]+*
computed spectral entropy=3.8084284979264575
computed normalized entropy=0.9735189421539839
SPLASH=splash10-05vn-8920000000-75613bec16bed111c32e
submitter=submitter = University of Tokyo Team (Faculty of Engineering, University of Tokyo)
MoNA Rating=3.75

>  <NUM PEAKS>  (3062) 
50

>  <MASS SPECTRAL PEAKS>  (3062) 
41 63.71
43 30.81
45 89.32
55 54.94
56 21.48
67 45.29
68 30.34
69 87.62
79 39.41
80 23.95
81 67.21
82 52.89
83 43.79
91 26.33
93 61.98
94 38.97
95 65.58
96 48.77
97 29.48
105 29.12
106 20.46
107 58.08
108 39.73
109 59.62
119 26.7
120 20.41
121 47.54
122 38.06
123 35.48
133 26.67
135 46.91
136 39.12
137 45.3
147 23.88
149 47.87
151 2.08
161 28.35
163 35.04
176 91.3
178 61.41
179 46.06
191 42.42
193 38.8
209 85.58
222 99.99
254 27.28
261 40.91
291 47.06
306 39.14
336 22.85

$$$$

     RDKit          2D

 20 21  0  0  1  0  0  0  0  0999 V2000
    0.5658   -7.7665    0.0000 C   0  0  0  0  0  0  0  0  0  0  0  0
   -1.8755   -6.8776    0.0000 C   0  0  0  0  0  0  0  0  0  0  0  0
   -2.2641   -2.6492    0.0000 C   0  0  0  0  0  0  0  0  0  0  0  0
    2.6000   -0.7500    0.0000 C   0  0  0  0  0  0  0  0  0  0  0  0
   -0.8491   -4.0587    0.0000 C   0  0  0  0  0  0  0  0  0  0  0  0
   -2.6000    0.7500    0.0000 C   0  0  0  0  0  0  0  0  0  0  0  0
    0.1149   -5.2078    0.0000 C   0  0  0  0  0  0  0  0  0  0  0  0
    1.3000   -1.5000    0.0000 C   0  0  0  0  0  0  0  0  0  0  0  0
    2.6000    0.7500    0.0000 C   0  0  0  0  0  0  0  0  0  0  0  0
   -0.3359   -2.6492    0.0000 C   0  0  0  0  0  0  0  0  0  0  0  0
   -2.6000   -0.7500    0.0000 C   0  0  0  0  0  0  0  0  0  0  0  0
   -1.3000    1.5000    0.0000 C   0  0  0  0  0  0  0  0  0  0  0  0
    0.0000    2.2500    0.0000 C   0  0  0  0  0  0  0  0  0  0  0  0
   -0.3982   -6.6173    0.0000 C   0  0  0  0  0  0  0  0  0  0  0  0
    0.0000   -0.7500    0.0000 C   0  0  0  0  0  0  0  0  0  0  0  0
    1.3000    1.5000    0.0000 C   0  0  0  0  0  0  0  0  0  0  0  0
   -1.3000   -1.5000    0.0000 C   0  0  0  0  0  0  0  0  0  0  0  0
    0.0000    0.7500    0.0000 C   0  0  0  0  0  0  0  0  0  0  0  0
   -1.2990    3.0000    0.0000 O   0  0  0  0  0  0  0  0  0  0  0  0
    1.3000    3.0000    0.0000 O   0  0  0  0  0  0  0  0  0  0  0  0
  7  5  1  0
  8  4  1  0
  9  4  1  0
 10  5  1  0
 11  6  1  0
 12  6  1  0
 14  1  1  0
 14  2  1  0
 14  7  2  0
 15  8  1  1
 16  9  1  0
 17  3  1  1
 17 10  1  0
 17 11  1  0
 17 15  1  0
 18 12  1  0
 18 13  1  1
 18 15  1  0
 18 16  1  0
 19 13  2  0
 20 16  2  0
M  END
>  <NAME>  (3063) 
(4AS,5S,8AS)-8ABETA-FORMYL-5BETA-METHYL-5ALPHA-(4-METHYL-3-PENTENYL)-3,4,4A,5,6,7,8,8A-OCTAHYDRONAPHTHALEN-1(2H)-ONE

>  <SYNONYMS>  (3063) 


>  <SPECTRUM TYPE>  (3063) 
MS1

>  <INSTRUMENT TYPE>  (3063) 
EI-B

>  <INSTRUMENT>  (3063) 
JEOL JMS-DX-300

>  <ION MODE>  (3063) 
P

>  <INCHIKEY>  (3063) 
CWBJWMNSYTUYMG-CGTJXYLNSA-N

>  <FORMULA>  (3063) 
C18H28O2

>  <EXACT MASS>  (3063) 
276.208930136

>  <MW>  (3063) 
276

>  <ID>  (3063) 
JP008016

>  <CONTRIBUTOR>  (3063) 
University of Tokyo Team, {Faculty of Engineering, University of Tokyo

>  <COMMENT>  (3063) 
SMILES=CC(C)=CCCC(C)(C2)C([H])(C1)C(C=O)(CC2)C(=O)CC1
InChI=InChI=1S/C18H28O2/c1-14(2)7-5-10-17(3)11-6-12-18(13-19)15(17)8-4-9-16(18)20/h7,13,15H,4-6,8-12H2,1-3H3/t15-,17+,18+/m0/s1
computed SMILES=O=CC12C(=O)CCCC1C(C)(CCC=C(C)C)CCC2
accession=JP008016
date=2016.01.19 (Created 2008.10.21, modified 2011.05.06)
author=HISAHIRO HAGIWARA, CHEMICAL RESEARCH INSTITUTE OF NON-AQUEOUSSOLUTIONS TOHOKU UNIV.
license=CC BY-NC-SA
exact mass=276.20893
ionization energy=70 eV
ion type=[M]+*
computed spectral entropy=2.912520632499482
computed normalized entropy=0.8563221435493819
SPLASH=splash10-0006-9300000000-a8e278e21815ea365a76
submitter=submitter = University of Tokyo Team (Faculty of Engineering, University of Tokyo)
MoNA Rating=3.75

>  <NUM PEAKS>  (3063) 
30

>  <MASS SPECTRAL PEAKS>  (3063) 
34 9.15
40 99.99
41 29.48
43 7.45
44 32.52
55 14.06
67 7.79
69 18.33
81 10.44
82 7.39
83 7.79
93 7.04
95 8.09
96 5.52
105 5.08
107 6.42
109 7.06
110 6.31
111 7.44
121 7.41
123 5.23
135 6.42
136 5.58
137 0.56
148 8.78
149 7.64
164 19.43
193 6.81
248 5.08
276 10.95

$$$$

     RDKit          2D

 26 28  0  0  1  0  0  0  0  0999 V2000
   -6.9851    5.1158    0.0000 C   0  0  0  0  0  0  0  0  0  0  0  0
   -4.9949    6.7858    0.0000 C   0  0  0  0  0  0  0  0  0  0  0  0
   -1.1382    5.0086    0.0000 C   0  0  0  0  0  0  0  0  0  0  0  0
    8.0005    0.1191    0.0000 C   0  0  0  0  0  0  0  0  0  0  0  0
   -3.0665    4.4877    0.0000 C   0  0  0  0  0  0  0  0  0  0  0  0
   -1.9242   -0.1509    0.0000 C   0  0  0  0  0  0  0  0  0  0  0  0
    1.9729    3.5991    0.0000 C   0  0  0  0  0  0  0  0  0  0  0  0
   -4.5438    4.2272    0.0000 C   0  0  0  0  0  0  0  0  0  0  0  0
   -1.9242    1.3491    0.0000 C   0  0  0  0  0  0  0  0  0  0  0  0
   -2.1024    3.3386    0.0000 C   0  0  0  0  0  0  0  0  0  0  0  0
    0.6739    4.3491    0.0000 C   0  0  0  0  0  0  0  0  0  0  0  0
    1.9729    2.0991    0.0000 C   0  0  0  0  0  0  0  0  0  0  0  0
   -0.6252   -0.9009    0.0000 C   0  0  0  0  0  0  0  0  0  0  0  0
    2.2979   -1.9546    0.0000 C   0  0  0  0  0  0  0  0  0  0  0  0
    3.0479   -0.6555    0.0000 C   0  0  0  0  0  0  0  0  0  0  0  0
    2.8043    0.1191    0.0000 C   0  0  0  0  0  0  0  0  0  0  0  0
    5.4024    0.1191    0.0000 C   0  0  0  0  0  0  0  0  0  0  0  0
   -5.5079    5.3763    0.0000 C   0  0  0  0  0  0  0  0  0  0  0  0
   -0.6252    2.0991    0.0000 C   0  0  0  0  0  0  0  0  0  0  0  0
   -0.6252    3.5991    0.0000 C   0  0  0  0  0  0  0  0  0  0  0  0
    0.6739    1.3491    0.0000 C   0  0  0  0  0  0  0  0  0  0  0  0
    0.6739   -0.1509    0.0000 C   0  0  0  0  0  0  0  0  0  0  0  0
    6.7014    0.8691    0.0000 O   0  0  0  0  0  0  0  0  0  0  0  0
    4.1033    0.8691    0.0000 O   0  0  0  0  0  0  0  0  0  0  0  0
    0.8307   -1.6427    0.0000 O   0  0  0  0  0  0  0  0  0  0  0  0
    2.0442    0.4592    0.0000 O   0  0  0  0  0  0  0  0  0  0  0  0
  8  5  1  0
  9  6  1  0
 10  5  1  0
 11  7  1  0
 12  7  1  0
 13  6  1  0
 15 14  1  0
 18  1  1  0
 18  2  1  0
 18  8  2  0
 19  9  1  1
 20  3  1  1
 20 10  1  0
 20 11  1  0
 20 19  1  0
 21 12  1  0
 21 16  1  1
 21 19  1  0
 22 13  1  0
 22 21  1  0
 23  4  1  0
 23 17  1  0
 24 16  1  0
 24 17  1  0
 25 14  1  0
 25 22  1  0
 26 15  1  0
 26 22  1  0
M  END
>  <NAME>  (3064) 
(4AS,5S,8AS)-(-)-8ABETA-METHOXYMETHOXYMETHYL-5BETA-METHYL-5ALPHA-(4-METHYL-3-PENTENYL)-3,4,4A,5,6,7,8,8A-OCTAHYDRONAPHTHALEN-1(2H)-ONE 1-ETHYLENE ACETAL

>  <SYNONYMS>  (3064) 


>  <SPECTRUM TYPE>  (3064) 
MS1

>  <INSTRUMENT TYPE>  (3064) 
EI-B

>  <INSTRUMENT>  (3064) 
JEOL JMS-DX-300

>  <ION MODE>  (3064) 
P

>  <INCHIKEY>  (3064) 
TXPPLIRRCBCMHO-PWRODBHTSA-N

>  <FORMULA>  (3064) 
C22H38O4

>  <EXACT MASS>  (3064) 
366.277009696

>  <MW>  (3064) 
366

>  <ID>  (3064) 
JP008014

>  <CONTRIBUTOR>  (3064) 
University of Tokyo Team, {Faculty of Engineering, University of Tokyo

>  <COMMENT>  (3064) 
SMILES=COCOCC(C1)(C(O3)(OCC3)2)C([H])(CCC2)C(C)(CCC=C(C)C)CC1
InChI=InChI=1S/C22H38O4/c1-18(2)8-5-10-20(3)11-7-12-21(16-24-17-23-4)19(20)9-6-13-22(21)25-14-15-26-22/h8,19H,5-7,9-17H2,1-4H3/t19-,20+,21+/m0/s1
computed SMILES=O(C)COCC12CCCC(C)(CCC=C(C)C)C2CCCC31OCCO3
accession=JP008014
date=2016.01.19 (Created 2008.10.21, modified 2011.05.06)
author=HISAHIRO HAGIWARA, CHEMICAL RESEARCH INSTITUTE OF NON-AQUEOUSSOLUTIONS TOHOKU UNIV.
license=CC BY-NC-SA
exact mass=366.27701
ionization energy=70 eV
ion type=[M]+*
computed spectral entropy=3.1571254994100277
computed normalized entropy=0.867917723671871
SPLASH=splash10-00kb-9202000000-25520ca550b2f04b6cd0
submitter=submitter = University of Tokyo Team (Faculty of Engineering, University of Tokyo)
MoNA Rating=3.75

>  <NUM PEAKS>  (3064) 
38

>  <MASS SPECTRAL PEAKS>  (3064) 
40 8.75
41 17.38
44 8.45
45 44.04
55 21.09
67 8.88
69 23.77
71 5.04
73 14.42
79 7.11
81 10.71
83 5.91
86 27.72
87 18.65
91 5.1
93 0.08
95 9.91
99 99.99
100 10.63
107 6.72
109 6.88
112 6.64
113 10.06
114 8.25
121 5.65
128 5.53
133 5.66
135 0.65
147 5.36
149 7.77
161 6.59
162 8.21
221 5.88
223 6.68
305 7.7
321 9.55
366 57.97
367 24.14

$$$$

     RDKit          2D

 24 26  0  0  1  0  0  0  0  0999 V2000
   -1.6357    4.7213    0.0000 C   0  0  0  0  0  0  0  0  0  0  0  0
    7.5029   -0.1682    0.0000 C   0  0  0  0  0  0  0  0  0  0  0  0
   -2.4217   -0.4382    0.0000 C   0  0  0  0  0  0  0  0  0  0  0  0
    1.4754    3.3118    0.0000 C   0  0  0  0  0  0  0  0  0  0  0  0
   -3.5641    4.2004    0.0000 C   0  0  0  0  0  0  0  0  0  0  0  0
   -2.4217    1.0618    0.0000 C   0  0  0  0  0  0  0  0  0  0  0  0
    0.1763    4.0618    0.0000 C   0  0  0  0  0  0  0  0  0  0  0  0
   -2.5999    3.0513    0.0000 C   0  0  0  0  0  0  0  0  0  0  0  0
    1.4754    1.8118    0.0000 C   0  0  0  0  0  0  0  0  0  0  0  0
   -1.1227   -1.1882    0.0000 C   0  0  0  0  0  0  0  0  0  0  0  0
   -5.0413    3.9399    0.0000 C   0  0  0  0  0  0  0  0  0  0  0  0
    1.8003   -2.2418    0.0000 C   0  0  0  0  0  0  0  0  0  0  0  0
    2.5503   -0.9428    0.0000 C   0  0  0  0  0  0  0  0  0  0  0  0
    2.3068   -0.1682    0.0000 C   0  0  0  0  0  0  0  0  0  0  0  0
    4.9048   -0.1682    0.0000 C   0  0  0  0  0  0  0  0  0  0  0  0
   -1.1227    1.8118    0.0000 C   0  0  0  0  0  0  0  0  0  0  0  0
   -1.1227    3.3118    0.0000 C   0  0  0  0  0  0  0  0  0  0  0  0
    0.1763    1.0618    0.0000 C   0  0  0  0  0  0  0  0  0  0  0  0
    0.1763   -0.4382    0.0000 C   0  0  0  0  0  0  0  0  0  0  0  0
   -6.0055    5.0890    0.0000 O   0  0  0  0  0  0  0  0  0  0  0  0
    6.2039    0.5818    0.0000 O   0  0  0  0  0  0  0  0  0  0  0  0
    3.6058    0.5818    0.0000 O   0  0  0  0  0  0  0  0  0  0  0  0
    0.3331   -1.9300    0.0000 O   0  0  0  0  0  0  0  0  0  0  0  0
    1.5466    0.1719    0.0000 O   0  0  0  0  0  0  0  0  0  0  0  0
  6  3  1  0
  7  4  1  0
  8  5  1  0
  9  4  1  0
 10  3  1  0
 11  5  1  0
 13 12  1  0
 16  6  1  1
 17  1  1  1
 17  7  1  0
 17  8  1  0
 17 16  1  0
 18  9  1  0
 18 14  1  1
 18 16  1  0
 19 10  1  0
 19 18  1  0
 20 11  2  0
 21  2  1  0
 21 15  1  0
 22 14  1  0
 22 15  1  0
 23 12  1  0
 23 19  1  0
 24 13  1  0
 24 19  1  0
M  END
>  <NAME>  (3065) 
(4AS,5S,8AS)-8ABETA-METHOXYMETHOXYMETHYL-5BETA-METHYL-5ALPHA-(3-OXOPROPYL)-3,4,4A,5,6,7,8,8A-OCTAHYDRONAPHTHALEN-1(2H)-ONE 1-ETHYLENE ACETAL

>  <SYNONYMS>  (3065) 


>  <SPECTRUM TYPE>  (3065) 
MS1

>  <INSTRUMENT TYPE>  (3065) 
EI-B

>  <INSTRUMENT>  (3065) 
JEOL JMS-DX-300

>  <ION MODE>  (3065) 
P

>  <INCHIKEY>  (3065) 
PHAHWBNBFFHHAV-OKZBNKHCSA-N

>  <FORMULA>  (3065) 
C19H32O5

>  <EXACT MASS>  (3065) 
340.224974124

>  <MW>  (3065) 
340

>  <ID>  (3065) 
JP008013

>  <CONTRIBUTOR>  (3065) 
University of Tokyo Team, {Faculty of Engineering, University of Tokyo

>  <COMMENT>  (3065) 
SMILES=COCOCC(C1)(C(O3)(OCC3)2)C([H])(CCC2)C(C)(CCC=O)CC1
InChI=InChI=1S/C19H32O5/c1-17(8-5-11-20)7-4-9-18(14-22-15-21-2)16(17)6-3-10-19(18)23-12-13-24-19/h11,16H,3-10,12-15H2,1-2H3/t16-,17-,18+/m0/s1
computed SMILES=O=CCCC1(C)CCCC2(COCOC)C1CCCC32OCCO3
accession=JP008013
date=2016.01.19 (Created 2008.10.21, modified 2011.05.06)
author=HISAHIRO HAGIWARA, CHEMICAL RESEARCH INSTITUTE OF NON-AQUEOUSSOLUTIONS TOHOKU UNIV.
license=CC BY-NC-SA
exact mass=340.22497
ionization energy=70 eV
ion type=[M]+*
computed spectral entropy=3.473456038148834
computed normalized entropy=0.8925016501494437
SPLASH=splash10-000b-9210000000-1e55c7744aaee601321d
submitter=submitter = University of Tokyo Team (Faculty of Engineering, University of Tokyo)
MoNA Rating=3.75

>  <NUM PEAKS>  (3065) 
49

>  <MASS SPECTRAL PEAKS>  (3065) 
40 48
41 15.46
42 12.28
43 9.83
44 9.75
45 54.92
55 26.69
57 7.43
58 33.87
59 5.26
67 10.52
69 9.21
71 14.04
73 17.64
79 6.92
81 11.25
83 5.49
85 5.47
86 49.16
87 30.64
91 7.83
93 9.05
95 11.51
99 99.99
100 17.7
101 5.14
103 7.29
105 6.25
107 8.5
109 5.48
112 6.77
113 14.44
123 5.26
133 6.25
135 7.35
147 5.96
149 6.52
159 7.53
177 5.45
189 5.62
217 5.96
221 9.87
223 12.67
251 14.66
252 7.02
267 5.52
279 9.47
295 14.13
340 0.53

$$$$

     RDKit          2D

 24 26  0  0  1  0  0  0  0  0999 V2000
   -1.6357    4.7213    0.0000 C   0  0  0  0  0  0  0  0  0  0  0  0
    7.5029   -0.1682    0.0000 C   0  0  0  0  0  0  0  0  0  0  0  0
   -2.4217   -0.4382    0.0000 C   0  0  0  0  0  0  0  0  0  0  0  0
    1.4754    3.3118    0.0000 C   0  0  0  0  0  0  0  0  0  0  0  0
   -3.5641    4.2004    0.0000 C   0  0  0  0  0  0  0  0  0  0  0  0
   -2.4217    1.0618    0.0000 C   0  0  0  0  0  0  0  0  0  0  0  0
    0.1763    4.0618    0.0000 C   0  0  0  0  0  0  0  0  0  0  0  0
   -2.5999    3.0513    0.0000 C   0  0  0  0  0  0  0  0  0  0  0  0
    1.4754    1.8118    0.0000 C   0  0  0  0  0  0  0  0  0  0  0  0
   -1.1227   -1.1882    0.0000 C   0  0  0  0  0  0  0  0  0  0  0  0
   -5.0413    3.9399    0.0000 C   0  0  0  0  0  0  0  0  0  0  0  0
    1.8003   -2.2418    0.0000 C   0  0  0  0  0  0  0  0  0  0  0  0
    2.5503   -0.9428    0.0000 C   0  0  0  0  0  0  0  0  0  0  0  0
    2.3068   -0.1682    0.0000 C   0  0  0  0  0  0  0  0  0  0  0  0
    4.9048   -0.1682    0.0000 C   0  0  0  0  0  0  0  0  0  0  0  0
   -1.1227    1.8118    0.0000 C   0  0  0  0  0  0  0  0  0  0  0  0
   -1.1227    3.3118    0.0000 C   0  0  0  0  0  0  0  0  0  0  0  0
    0.1763    1.0618    0.0000 C   0  0  0  0  0  0  0  0  0  0  0  0
    0.1763   -0.4382    0.0000 C   0  0  0  0  0  0  0  0  0  0  0  0
   -6.0055    5.0890    0.0000 O   0  0  0  0  0  0  0  0  0  0  0  0
    6.2039    0.5818    0.0000 O   0  0  0  0  0  0  0  0  0  0  0  0
    3.6058    0.5818    0.0000 O   0  0  0  0  0  0  0  0  0  0  0  0
    0.3331   -1.9300    0.0000 O   0  0  0  0  0  0  0  0  0  0  0  0
    1.5466    0.1719    0.0000 O   0  0  0  0  0  0  0  0  0  0  0  0
  6  3  1  0
  7  4  1  0
  8  5  1  0
  9  4  1  0
 10  3  1  0
 11  5  1  0
 13 12  1  0
 16  6  1  1
 17  1  1  1
 17  7  1  0
 17  8  1  0
 17 16  1  0
 18  9  1  0
 18 14  1  1
 18 16  1  0
 19 10  1  0
 19 18  1  0
 20 11  1  0
 21  2  1  0
 21 15  1  0
 22 14  1  0
 22 15  1  0
 23 12  1  0
 23 19  1  0
 24 13  1  0
 24 19  1  0
M  END
>  <NAME>  (3066) 
(4AS,5S,8AS)-(-)-5ALPHA-(3-HYDROXYPROPYL)-8A-METHOXYMETHOXYMETHYL-5BETA-METHYL-3,4,4A,5,6,7,8,8A-OCTAHYDRONAPHTHALEN-1(2H)-ONE1-ETHYLENE ACETAL

>  <SYNONYMS>  (3066) 


>  <SPECTRUM TYPE>  (3066) 
MS1

>  <INSTRUMENT TYPE>  (3066) 
EI-B

>  <INSTRUMENT>  (3066) 
JEOL JMS-DX-300

>  <ION MODE>  (3066) 
P

>  <INCHIKEY>  (3066) 
FPQZNWVXFIBKMY-OKZBNKHCSA-N

>  <FORMULA>  (3066) 
C19H34O5

>  <EXACT MASS>  (3066) 
342.24062418799997

>  <MW>  (3066) 
342

>  <ID>  (3066) 
JP008012

>  <CONTRIBUTOR>  (3066) 
University of Tokyo Team, {Faculty of Engineering, University of Tokyo

>  <COMMENT>  (3066) 
SMILES=COCOCC(C1)(C(O3)(OCC3)2)C([H])(CCC2)C(C)(CCCO)CC1
InChI=InChI=1S/C19H34O5/c1-17(8-5-11-20)7-4-9-18(14-22-15-21-2)16(17)6-3-10-19(18)23-12-13-24-19/h16,20H,3-15H2,1-2H3/t16-,17-,18+/m0/s1
computed SMILES=OCCCC1(C)CCCC2(COCOC)C1CCCC32OCCO3
accession=JP008012
date=2016.01.19 (Created 2008.10.21, modified 2011.05.06)
author=HISAHIRO HAGIWARA, CHEMICAL RESEARCH INSTITUTE OF NON-AQUEOUSSOLUTIONS TOHOKU UNIV.
license=CC BY-NC-SA
exact mass=342.24062
ionization energy=70 eV
ion type=[M]+*
computed spectral entropy=3.515167278927511
computed normalized entropy=0.9032193188966174
SPLASH=splash10-000b-9100000000-426a9fef15a2295d798a
submitter=submitter = University of Tokyo Team (Faculty of Engineering, University of Tokyo)
MoNA Rating=3.75

>  <NUM PEAKS>  (3066) 
49

>  <MASS SPECTRAL PEAKS>  (3066) 
39 12.92
40 6.74
41 43.56
42 21.47
43 26.08
44 10.48
45 65.22
53 16.83
54 7.75
55 59.14
57 10.28
65 6.41
66 5.05
67 29.35
68 15.6
69 17.39
71 5.74
73 15.73
77 13.1
78 7.82
79 24.61
81 22.27
83 7.03
85 13.53
86 50.73
87 34.37
91 17.87
93 18.35
95 22.2
97 7.54
99 99.99
105 10.24
107 12.06
109 8.18
112 13.01
113 19.52
114 5.45
119 7
121 8.09
123 5.39
125 6.52
132 6.38
134 6.41
149 6.55
218 5.05
222 5.31
280 10.2
296 7.46
342 1.22

$$$$

     RDKit          2D

 20 21  0  0  1  0  0  0  0  0999 V2000
    0.1149   -5.2078    0.0000 C   0  0  0  0  0  0  0  0  0  0  0  0
   -2.2641   -2.6492    0.0000 C   0  0  0  0  0  0  0  0  0  0  0  0
   -2.5981    6.7500    0.0000 C   0  0  0  0  0  0  0  0  0  0  0  0
   -0.8491   -4.0587    0.0000 C   0  0  0  0  0  0  0  0  0  0  0  0
    2.6000   -0.7500    0.0000 C   0  0  0  0  0  0  0  0  0  0  0  0
   -2.6000    0.7500    0.0000 C   0  0  0  0  0  0  0  0  0  0  0  0
    1.3000   -1.5000    0.0000 C   0  0  0  0  0  0  0  0  0  0  0  0
    2.6000    0.7500    0.0000 C   0  0  0  0  0  0  0  0  0  0  0  0
   -0.3359   -2.6492    0.0000 C   0  0  0  0  0  0  0  0  0  0  0  0
   -2.6000   -0.7500    0.0000 C   0  0  0  0  0  0  0  0  0  0  0  0
   -1.3000    1.5000    0.0000 C   0  0  0  0  0  0  0  0  0  0  0  0
    0.0000    2.2500    0.0000 C   0  0  0  0  0  0  0  0  0  0  0  0
   -1.2990    4.5000    0.0000 C   0  0  0  0  0  0  0  0  0  0  0  0
    0.0000   -0.7500    0.0000 C   0  0  0  0  0  0  0  0  0  0  0  0
    1.3000    1.5000    0.0000 C   0  0  0  0  0  0  0  0  0  0  0  0
   -1.3000   -1.5000    0.0000 C   0  0  0  0  0  0  0  0  0  0  0  0
    0.0000    0.7500    0.0000 C   0  0  0  0  0  0  0  0  0  0  0  0
    1.3000    3.0000    0.0000 O   0  0  0  0  0  0  0  0  0  0  0  0
   -2.5981    5.2500    0.0000 O   0  0  0  0  0  0  0  0  0  0  0  0
   -1.2990    3.0000    0.0000 O   0  0  0  0  0  0  0  0  0  0  0  0
  4  1  2  0
  7  5  1  0
  8  5  1  0
  9  4  1  0
 10  6  1  0
 11  6  1  0
 14  7  1  1
 15  8  1  0
 16  2  1  1
 16  9  1  0
 16 10  1  0
 16 14  1  0
 17 11  1  0
 17 12  1  1
 17 14  1  0
 17 15  1  0
 18 15  2  0
 19  3  1  0
 19 13  1  0
 20 12  1  0
 20 13  1  0
M  END
>  <NAME>  (3067) 
(4AS,5S,8AS)-5ALPHA-ALLYL-8A-METHOXYMETHOXYMETHYL-5BETA-METHYL-3,4,4A,5,6,7,8,8A-OCTAHYDRONAPHTHALEN-1(2H)-ONE

>  <SYNONYMS>  (3067) 


>  <SPECTRUM TYPE>  (3067) 
MS1

>  <INSTRUMENT TYPE>  (3067) 
EI-B

>  <INSTRUMENT>  (3067) 
JEOL JMS-DX-300

>  <ION MODE>  (3067) 
P

>  <INCHIKEY>  (3067) 
DVXOTRKZFRKQIQ-USXIJHARSA-N

>  <FORMULA>  (3067) 
C17H28O3

>  <EXACT MASS>  (3067) 
280.20384475599997

>  <MW>  (3067) 
280

>  <ID>  (3067) 
JP008011

>  <CONTRIBUTOR>  (3067) 
University of Tokyo Team, {Faculty of Engineering, University of Tokyo

>  <COMMENT>  (3067) 
SMILES=COCOCC(C1)(C(=O)2)C([H])(CCC2)C(C)(CC=C)CC1
InChI=InChI=1S/C17H28O3/c1-4-9-16(2)10-6-11-17(12-20-13-19-3)14(16)7-5-8-15(17)18/h4,14H,1,5-13H2,2-3H3/t14-,16+,17+/m0/s1
computed SMILES=O=C1CCCC2C1(COCOC)CCCC2(C)CC=C
accession=JP008011
date=2016.01.19 (Created 2008.10.21, modified 2011.05.06)
author=HISAHIRO HAGIWARA, CHEMICAL RESEARCH INSTITUTE OF NON-AQUEOUSSOLUTIONS TOHOKU UNIV.
license=CC BY-NC-SA
exact mass=280.20384
ionization energy=70 eV
ion type=[M]+*
computed spectral entropy=3.757784753879949
computed normalized entropy=0.9335295503567951
SPLASH=splash10-0a4j-9630000000-8b3deccc9b80583be067
submitter=submitter = University of Tokyo Team (Faculty of Engineering, University of Tokyo)
MoNA Rating=3.75

>  <NUM PEAKS>  (3067) 
56

>  <MASS SPECTRAL PEAKS>  (3067) 
39 11.85
41 37.36
43 15.34
45 99.99
53 18.09
55 49.26
65 8.33
66 8.38
67 37.98
69 17.04
71 8.15
77 18.99
79 44.37
81 34.43
83 11.33
85 10.41
91 26.11
93 47.51
94 39.31
95 50.77
97 13.05
99 8.89
105 19.53
107 29.88
108 27.88
109 21.33
111 11.54
115 5.42
117 5.29
119 14.93
121 24.08
123 1.96
125 9.17
131 7.22
133 14.21
135 33.53
145 11.59
147 26.39
149 19.42
159 20.63
161 18.32
163 25.08
165 14.65
171 5.88
175 11.54
177 30.4
179 18.6
189 25.13
193 12.28
205 9.64
208 75.62
209 62.38
235 10.02
239 46.66
250 9.56
280 3.85

$$$$

     RDKit          2D

 28 29  0  0  1  0  0  0  0  0999 V2000
    0.5658   -7.7665    0.0000 C   0  0  0  0  0  0  0  0  0  0  0  0
   -1.8755   -6.8776    0.0000 C   0  0  0  0  0  0  0  0  0  0  0  0
   -2.2641   -2.6492    0.0000 C   0  0  0  0  0  0  0  0  0  0  0  0
    4.0772    0.4897    0.0000 C   0  0  0  0  0  0  0  0  0  0  0  0
   -2.5981    6.7500    0.0000 C   0  0  0  0  0  0  0  0  0  0  0  0
    5.1026    3.8301    0.0000 C   0  0  0  0  0  0  0  0  0  0  0  0
   -0.8491   -4.0587    0.0000 C   0  0  0  0  0  0  0  0  0  0  0  0
   -2.6000    0.7500    0.0000 C   0  0  0  0  0  0  0  0  0  0  0  0
    0.1149   -5.2078    0.0000 C   0  0  0  0  0  0  0  0  0  0  0  0
    1.3000   -1.5000    0.0000 C   0  0  0  0  0  0  0  0  0  0  0  0
   -0.3359   -2.6492    0.0000 C   0  0  0  0  0  0  0  0  0  0  0  0
   -2.6000   -0.7500    0.0000 C   0  0  0  0  0  0  0  0  0  0  0  0
   -1.3000    1.5000    0.0000 C   0  0  0  0  0  0  0  0  0  0  0  0
    2.6000   -0.7500    0.0000 C   0  0  0  0  0  0  0  0  0  0  0  0
    0.0000    2.2500    0.0000 C   0  0  0  0  0  0  0  0  0  0  0  0
   -1.2990    4.5000    0.0000 C   0  0  0  0  0  0  0  0  0  0  0  0
   -0.3982   -6.6173    0.0000 C   0  0  0  0  0  0  0  0  0  0  0  0
    0.0000   -0.7500    0.0000 C   0  0  0  0  0  0  0  0  0  0  0  0
    1.3000    1.5000    0.0000 C   0  0  0  0  0  0  0  0  0  0  0  0
    3.1127    2.1596    0.0000 C   0  0  0  0  0  0  0  0  0  0  0  0
   -1.3000   -1.5000    0.0000 C   0  0  0  0  0  0  0  0  0  0  0  0
    2.6000    0.7500    0.0000 C   0  0  0  0  0  0  0  0  0  0  0  0
    0.0000    0.7500    0.0000 C   0  0  0  0  0  0  0  0  0  0  0  0
    1.3000    3.0000    0.0000 O   0  0  0  0  0  0  0  0  0  0  0  0
    2.1483    3.3085    0.0000 O   0  0  0  0  0  0  0  0  0  0  0  0
   -2.5981    5.2500    0.0000 O   0  0  0  0  0  0  0  0  0  0  0  0
    4.5899    2.4204    0.0000 O   0  0  0  0  0  0  0  0  0  0  0  0
   -1.2990    3.0000    0.0000 O   0  0  0  0  0  0  0  0  0  0  0  0
  9  7  1  0
 11  7  1  0
 12  8  1  0
 13  8  1  0
 14 10  1  0
 17  1  1  0
 17  2  1  0
 17  9  2  0
 18 10  1  1
 21  3  1  1
 21 11  1  0
 21 12  1  0
 21 18  1  0
 22  4  1  0
 22 14  1  0
 22 19  1  0
 22 20  1  0
 23 13  1  0
 23 15  1  1
 23 18  1  0
 23 19  1  0
 24 19  2  0
 25 20  2  0
 26  5  1  0
 26 16  1  0
 27  6  1  0
 27 20  1  0
 28 15  1  0
 28 16  1  0
M  END
>  <NAME>  (3068) 
METHYL (2XI,4AS,5S,8AS)-2,5BETA-DIMETHYL-8ABETA-METHOXYMETHOXYMETHYL-5ALPHA-(4-METHYL-3-PENTENYL)-3,4,4A,5,6,7,8,8A-OCTAHYDRONAPHTHALEN-1-OXO-2-CARBOXYLATE

>  <SYNONYMS>  (3068) 


>  <SPECTRUM TYPE>  (3068) 
MS1

>  <INSTRUMENT TYPE>  (3068) 
EI-B

>  <INSTRUMENT>  (3068) 
JEOL JMS-DX-300

>  <ION MODE>  (3068) 
P

>  <INCHIKEY>  (3068) 
SEHBVQAQRDVIAV-GHNMSDBSSA-N

>  <FORMULA>  (3068) 
C23H38O5

>  <EXACT MASS>  (3068) 
394.27192431599997

>  <MW>  (3068) 
394

>  <ID>  (3068) 
JP008010

>  <CONTRIBUTOR>  (3068) 
University of Tokyo Team, {Faculty of Engineering, University of Tokyo

>  <COMMENT>  (3068) 
SMILES=COCOCC(C1)(C(=O)2)C([H])(CCC(C)(C(=O)OC)2)C(C)(CCC=C(C)C)CC1
InChI=InChI=1S/C23H38O5/c1-17(2)9-7-11-21(3)12-8-13-23(15-28-16-26-5)18(21)10-14-22(4,19(23)24)20(25)27-6/h9,18H,7-8,10-16H2,1-6H3/t18-,21+,22?,23+/m0/s1
computed SMILES=O=C(OC)C1(C(=O)C2(COCOC)CCCC(C)(CCC=C(C)C)C2CC1)C
accession=JP008010
date=2016.01.19 (Created 2008.10.21, modified 2011.05.06)
author=HISAHIRO HAGIWARA, CHEMICAL RESEARCH INSTITUTE OF NON-AQUEOUSSOLUTIONS TOHOKU UNIV.
license=CC BY-NC-SA
exact mass=394.27192
ionization energy=70 eV
ion type=[M]+*
computed spectral entropy=3.808361142930665
computed normalized entropy=0.968598686379662
SPLASH=splash10-014s-7931000000-7f2cfe4e3dd97f174207
submitter=submitter = University of Tokyo Team (Faculty of Engineering, University of Tokyo)
MoNA Rating=3.75

>  <NUM PEAKS>  (3068) 
51

>  <MASS SPECTRAL PEAKS>  (3068) 
41 73.22
43 22.15
44 21.75
45 99.99
55 45.3
67 27.2
69 91.78
79 2.54
81 42.63
82 38.95
83 38.99
93 43.04
94 28.65
95 40.32
96 32.28
97 20.71
105 24.66
107 38.12
108 29.5
109 44.33
119 21.91
120 21.51
121 50.29
122 44.63
123 34.51
134 32.86
135 46.56
136 36.32
137 26.58
149 46.4
151 24.5
161 51.31
163 36.55
173 25.75
175 51.58
177 3.86
189 35.34
191 27.52
192 22.25
203 21.63
219 24.04
221 25.73
232 25.84
236 85.27
250 45.14
259 67.1
262 30.8
303 20.36
319 67.11
363 39.8
394 31.1

$$$$

     RDKit          2D

 27 28  0  0  1  0  0  0  0  0999 V2000
    0.5658   -7.7665    0.0000 C   0  0  0  0  0  0  0  0  0  0  0  0
   -1.8755   -6.8776    0.0000 C   0  0  0  0  0  0  0  0  0  0  0  0
   -2.2641   -2.6492    0.0000 C   0  0  0  0  0  0  0  0  0  0  0  0
   -2.5981    6.7500    0.0000 C   0  0  0  0  0  0  0  0  0  0  0  0
    5.1976    3.7504    0.0000 C   0  0  0  0  0  0  0  0  0  0  0  0
   -0.8491   -4.0587    0.0000 C   0  0  0  0  0  0  0  0  0  0  0  0
   -2.6000    0.7500    0.0000 C   0  0  0  0  0  0  0  0  0  0  0  0
    0.1149   -5.2078    0.0000 C   0  0  0  0  0  0  0  0  0  0  0  0
    2.6000   -0.7500    0.0000 C   0  0  0  0  0  0  0  0  0  0  0  0
    1.3000   -1.5000    0.0000 C   0  0  0  0  0  0  0  0  0  0  0  0
   -0.3359   -2.6492    0.0000 C   0  0  0  0  0  0  0  0  0  0  0  0
   -2.6000   -0.7500    0.0000 C   0  0  0  0  0  0  0  0  0  0  0  0
   -1.3000    1.5000    0.0000 C   0  0  0  0  0  0  0  0  0  0  0  0
    0.0000    2.2500    0.0000 C   0  0  0  0  0  0  0  0  0  0  0  0
   -1.2990    4.5000    0.0000 C   0  0  0  0  0  0  0  0  0  0  0  0
   -0.3982   -6.6173    0.0000 C   0  0  0  0  0  0  0  0  0  0  0  0
    2.6000    0.7500    0.0000 C   0  0  0  0  0  0  0  0  0  0  0  0
    0.0000   -0.7500    0.0000 C   0  0  0  0  0  0  0  0  0  0  0  0
    1.3000    1.5000    0.0000 C   0  0  0  0  0  0  0  0  0  0  0  0
    3.8989    1.5002    0.0000 C   0  0  0  0  0  0  0  0  0  0  0  0
   -1.3000   -1.5000    0.0000 C   0  0  0  0  0  0  0  0  0  0  0  0
    0.0000    0.7500    0.0000 C   0  0  0  0  0  0  0  0  0  0  0  0
    1.3000    3.0000    0.0000 O   0  0  0  0  0  0  0  0  0  0  0  0
    5.1981    0.7504    0.0000 O   0  0  0  0  0  0  0  0  0  0  0  0
   -2.5981    5.2500    0.0000 O   0  0  0  0  0  0  0  0  0  0  0  0
    3.8987    3.0002    0.0000 O   0  0  0  0  0  0  0  0  0  0  0  0
   -1.2990    3.0000    0.0000 O   0  0  0  0  0  0  0  0  0  0  0  0
  8  6  1  0
 10  9  1  0
 11  6  1  0
 12  7  1  0
 13  7  1  0
 16  1  1  0
 16  2  1  0
 16  8  2  0
 17  9  1  0
 18 10  1  1
 19 17  1  0
 20 17  1  0
 21  3  1  1
 21 11  1  0
 21 12  1  0
 21 18  1  0
 22 13  1  0
 22 14  1  1
 22 18  1  0
 22 19  1  0
 23 19  2  0
 24 20  2  0
 25  4  1  0
 25 15  1  0
 26  5  1  0
 26 20  1  0
 27 14  1  0
 27 15  1  0
M  END
>  <NAME>  (3069) 
METHYL (2XI,4AS,5S,8AS)-(-)-8ABETA-METHOXYMETHOXYMETHYL-5BETA-METHYL-5ALPHA-(4-METHYL-3-PENTENYL)-3,4,4A,5,6,7,8,8A-OCTAHYDRONAPHTHALEN-1-OXO-2-CARBOXYLATE

>  <SYNONYMS>  (3069) 


>  <SPECTRUM TYPE>  (3069) 
MS1

>  <INSTRUMENT TYPE>  (3069) 
EI-B

>  <INSTRUMENT>  (3069) 
JEOL JMS-DX-300

>  <ION MODE>  (3069) 
P

>  <INCHIKEY>  (3069) 
QKTVLWRPCBPYHA-JAIRSQACSA-N

>  <FORMULA>  (3069) 
C22H36O5

>  <EXACT MASS>  (3069) 
380.25627425199997

>  <MW>  (3069) 
380

>  <ID>  (3069) 
JP008009

>  <CONTRIBUTOR>  (3069) 
University of Tokyo Team, {Faculty of Engineering, University of Tokyo

>  <COMMENT>  (3069) 
SMILES=COCOCC(C1)(C(=O)2)C([H])(CCC(C(=O)OC)2)C(C)(CCC=C(C)C)CC1
InChI=InChI=1S/C22H36O5/c1-16(2)8-6-11-21(3)12-7-13-22(14-27-15-25-4)18(21)10-9-17(19(22)23)20(24)26-5/h8,17-18H,6-7,9-15H2,1-5H3/t17?,18-,21+,22+/m0/s1
computed SMILES=O=C(OC)C1C(=O)C2(COCOC)CCCC(C)(CCC=C(C)C)C2CC1
accession=JP008009
date=2016.01.19 (Created 2008.10.21, modified 2011.05.06)
author=HISAHIRO HAGIWARA, CHEMICAL RESEARCH INSTITUTE OF NON-AQUEOUSSOLUTIONS TOHOKU UNIV.
license=CC BY-NC-SA
exact mass=380.25627
ionization energy=70 eV
ion type=[M]+*
computed spectral entropy=3.5230554510750043
computed normalized entropy=0.9201842341008181
SPLASH=splash10-0002-9441000000-1aae6c0937b262d311f4
submitter=submitter = University of Tokyo Team (Faculty of Engineering, University of Tokyo)
MoNA Rating=3.75

>  <NUM PEAKS>  (3069) 
46

>  <MASS SPECTRAL PEAKS>  (3069) 
40 6.21
41 36.31
43 6.65
44 8.82
45 99.99
55 25.34
67 10.97
69 5.36
79 9
81 15.55
82 8.42
83 12.88
91 7.16
93 12.57
95 11.26
96 6.59
105 6.68
107 11.03
109 9.39
119 7.14
121 9.42
133 8.21
135 10.25
137 6.15
147 10.83
149 6.68
161 9.49
175 7.74
178 17.51
181 6.27
189 7.47
191 7.56
203 10.52
205 7.85
217 10.81
219 10.12
222 8.8
235 10.13
236 6.93
247 11.13
248 16.96
264 7.32
266 22.26
273 15.68
305 25.45
380 7.98

$$$$

     RDKit          2D

 15 16  0  0  0  0  0  0  0  0999 V2000
   -7.7126    0.0124    0.0000 C   0  0  0  0  0  0  0  0  0  0  0  0
   -3.3016   -0.6460    0.0000 C   0  0  0  0  0  0  0  0  0  0  0  0
   -5.1137    3.0142    0.0000 C   0  0  0  0  0  0  0  0  0  0  0  0
   -6.4132    2.2632    0.0000 C   0  0  0  0  0  0  0  0  0  0  0  0
   -3.8146    2.2643    0.0000 C   0  0  0  0  0  0  0  0  0  0  0  0
   -0.1947    2.1634    0.0000 C   0  0  0  0  0  0  0  0  0  0  0  0
    0.0657    0.6862    0.0000 C   0  0  0  0  0  0  0  0  0  0  0  0
   -5.1140   -1.4875    0.0000 C   0  0  0  0  0  0  0  0  0  0  0  0
   -6.4135    0.7624    0.0000 C   0  0  0  0  0  0  0  0  0  0  0  0
   -5.1144    0.0125    0.0000 C   0  0  0  0  0  0  0  0  0  0  0  0
   -2.3377    1.0239    0.0000 C   0  0  0  0  0  0  0  0  0  0  0  0
   -3.8149    0.7635    0.0000 C   0  0  0  0  0  0  0  0  0  0  0  0
   -6.4128   -2.2379    0.0000 O   0  0  0  0  0  0  0  0  0  0  0  0
   -1.6801    2.3721    0.0000 O   0  0  0  0  0  0  0  0  0  0  0  0
   -1.2587   -0.0180    0.0000 O   0  0  0  0  0  0  0  0  0  0  0  0
  4  3  1  0
  5  3  1  0
  7  6  1  0
  9  1  1  0
  9  4  1  0
 10  8  1  0
 10  9  2  0
 12  2  1  0
 12  5  1  0
 12 10  1  0
 12 11  1  0
 13  8  2  0
 14  6  1  0
 14 11  1  0
 15  7  1  0
 15 11  1  0
M  END
>  <NAME>  (3070) 
2,6-DIMETHYL-6-ETHYLENEDIOXYMETHYL-1-CYCLOHEXENE-1-CARBALDEHYDE

>  <SYNONYMS>  (3070) 


>  <SPECTRUM TYPE>  (3070) 
MS1

>  <INSTRUMENT TYPE>  (3070) 
EI-B

>  <INSTRUMENT>  (3070) 
JEOL JMS-DX-300

>  <ION MODE>  (3070) 
P

>  <INCHIKEY>  (3070) 
SBAZHOZEPDPTMC-UHFFFAOYSA-N

>  <FORMULA>  (3070) 
C12H18O3

>  <EXACT MASS>  (3070) 
210.125594436

>  <MW>  (3070) 
210

>  <ID>  (3070) 
JP008008

>  <CONTRIBUTOR>  (3070) 
University of Tokyo Team, {Faculty of Engineering, University of Tokyo

>  <COMMENT>  (3070) 
SMILES=O=CC(=C(C)2)C(C)(CCC2)C(O1)OCC1
InChI=InChI=1S/C12H18O3/c1-9-4-3-5-12(2,10(9)8-13)11-14-6-7-15-11/h8,11H,3-7H2,1-2H3
computed SMILES=O=CC1=C(C)CCCC1(C)C2OCCO2
accession=JP008008
date=2016.01.19 (Created 2008.10.21, modified 2011.05.06)
author=HISAHIRO HAGIWARA, CHEMICAL RESEARCH INSTITUTE OF NON-AQUEOUSSOLUTIONS TOHOKU UNIV.
license=CC BY-NC-SA
exact mass=210.12559
ionization energy=70 eV
ion type=[M]+*
computed spectral entropy=3.0446327001628877
computed normalized entropy=0.7823158488692231
SPLASH=splash10-00di-9100000000-567886fcf8c303967671
submitter=submitter = University of Tokyo Team (Faculty of Engineering, University of Tokyo)
MoNA Rating=3.75

>  <NUM PEAKS>  (3070) 
49

>  <MASS SPECTRAL PEAKS>  (3070) 
31 4.1
39 3.96
40 9.15
41 10.08
42 2.98
43 13.75
44 10.22
45 16.19
53 2.96
55 8.14
56 3.4
57 5.91
61 1.52
65 1.77
67 4.17
69 6.71
70 2.53
71 3.45
73 99.99
74 4.74
77 3.55
79 3.58
81 4.01
82 3.15
83 3.9
84 1.64
85 1.86
87 1.58
91 3.23
93 4.77
95 4.01
96 1.99
97 4.07
105 2.06
107 2.77
108 2.08
109 4.82
111 2.29
113 1.77
123 1.84
126 1.76
129 1.62
135 3.34
136 2.29
137 1.91
153 1.85
168 1.81
169 2.66
210 1.9

$$$$

     RDKit          2D

 15 15  0  0  0  0  0  0  0  0999 V2000
   -7.4692    4.2571    0.0000 C   0  0  0  0  0  0  0  0  0  0  0  0
    4.2221    2.0071    0.0000 C   0  0  0  0  0  0  0  0  0  0  0  0
    4.2226    3.5079    0.0000 C   0  0  0  0  0  0  0  0  0  0  0  0
    2.9226    1.2563    0.0000 C   0  0  0  0  0  0  0  0  0  0  0  0
   -2.2731    4.2571    0.0000 C   0  0  0  0  0  0  0  0  0  0  0  0
    2.9236    4.2579    0.0000 C   0  0  0  0  0  0  0  0  0  0  0  0
    1.6236    2.0063    0.0000 C   0  0  0  0  0  0  0  0  0  0  0  0
   -0.9740    3.5071    0.0000 C   0  0  0  0  0  0  0  0  0  0  0  0
   -3.5721    3.5071    0.0000 C   0  0  0  0  0  0  0  0  0  0  0  0
    1.6240    3.5071    0.0000 C   0  0  0  0  0  0  0  0  0  0  0  0
    0.3250    4.2571    0.0000 C   0  0  0  0  0  0  0  0  0  0  0  0
   -4.8712    4.2571    0.0000 C   0  0  0  0  0  0  0  0  0  0  0  0
    0.3250    5.7571    0.0000 O   0  0  0  0  0  0  0  0  0  0  0  0
   -4.8712    5.7571    0.0000 O   0  0  0  0  0  0  0  0  0  0  0  0
   -6.1702    3.5071    0.0000 O   0  0  0  0  0  0  0  0  0  0  0  0
  3  2  2  0
  4  2  1  0
  6  3  1  0
  7  4  2  0
  8  5  1  0
  9  5  1  0
 10  6  2  0
 10  7  1  0
 11  8  1  0
 11 10  1  0
 12  9  1  0
 13 11  2  0
 14 12  2  0
 15  1  1  0
 15 12  1  0
M  END
>  <NAME>  (3071) 
METHYL 5-KETO-5-PHENYLPENTANOATE

>  <SYNONYMS>  (3071) 


>  <SPECTRUM TYPE>  (3071) 
MS1

>  <INSTRUMENT TYPE>  (3071) 
EI-B

>  <INSTRUMENT>  (3071) 
JEOL JMS-DX-300

>  <ION MODE>  (3071) 
P

>  <INCHIKEY>  (3071) 
GRIWFUFDJOESIC-UHFFFAOYSA-N

>  <FORMULA>  (3071) 
C12H14O3

>  <EXACT MASS>  (3071) 
206.094294308

>  <MW>  (3071) 
206

>  <ID>  (3071) 
JP008007

>  <CONTRIBUTOR>  (3071) 
University of Tokyo Team, {Faculty of Engineering, University of Tokyo

>  <COMMENT>  (3071) 
SMILES=COC(=O)CCCC(=O)c(c1)cccc1
InChI=InChI=1S/C12H14O3/c1-15-12(14)9-5-8-11(13)10-6-3-2-4-7-10/h2-4,6-7H,5,8-9H2,1H3
computed SMILES=O=C(OC)CCCC(=O)C=1C=CC=CC1
accession=JP008007
date=2016.01.19 (Created 2008.10.21, modified 2011.05.06)
author=HISAHIRO HAGIWARA, CHEMICAL RESEARCH INSTITUTE OF NON-AQUEOUSSOLUTIONS TOHOKU UNIV.
license=CC BY-NC-SA
exact mass=206.09429
ionization energy=70 eV
ion type=[M]+*
computed spectral entropy=2.4224717896061683
computed normalized entropy=0.7054399580878364
SPLASH=splash10-0a4i-4900000000-d96b4fe0b42bfbe13d77
submitter=submitter = University of Tokyo Team (Faculty of Engineering, University of Tokyo)
MoNA Rating=3.75

>  <NUM PEAKS>  (3071) 
31

>  <MASS SPECTRAL PEAKS>  (3071) 
31 2.5
32 9.01
39 1.69
41 1.47
42 1.94
43 1.06
45 1.17
50 0.21
51 8.83
55 4.38
59 3.64
74 1.24
75 1.46
76 2.19
77 37.89
78 3.78
91 1.54
105 99.99
106 7.9
120 14.66
121 1.47
132 1.16
133 3.41
146 8.28
147 10.27
148 1.41
174 3.99
175 12.05
176 1.63
206 10.44
207 1.73

$$$$

     RDKit          2D

 22 24  0  0  1  0  0  0  0  0999 V2000
    4.7282    7.0741    0.0000 C   0  0  0  0  0  0  0  0  0  0  0  0
    5.1794    4.5155    0.0000 C   0  0  0  0  0  0  0  0  0  0  0  0
    1.7119    2.0640    0.0000 C   0  0  0  0  0  0  0  0  0  0  0  0
   -4.4938    1.0945    0.0000 C   0  0  0  0  0  0  0  0  0  0  0  0
    2.2249    3.9945    0.0000 C   0  0  0  0  0  0  0  0  0  0  0  0
   -2.3634    5.3245    0.0000 C   0  0  0  0  0  0  0  0  0  0  0  0
   -1.0644    0.0745    0.0000 C   0  0  0  0  0  0  0  0  0  0  0  0
    2.7380    5.4041    0.0000 C   0  0  0  0  0  0  0  0  0  0  0  0
   -1.0644    4.5745    0.0000 C   0  0  0  0  0  0  0  0  0  0  0  0
    0.7477    3.7340    0.0000 C   0  0  0  0  0  0  0  0  0  0  0  0
    0.2347    0.8245    0.0000 C   0  0  0  0  0  0  0  0  0  0  0  0
   -2.3634    0.8245    0.0000 C   0  0  0  0  0  0  0  0  0  0  0  0
   -3.6624    4.5745    0.0000 C   0  0  0  0  0  0  0  0  0  0  0  0
   -6.0364    2.5699    0.0000 C   0  0  0  0  0  0  0  0  0  0  0  0
   -5.2864    1.2709    0.0000 C   0  0  0  0  0  0  0  0  0  0  0  0
    4.2152    5.6645    0.0000 C   0  0  0  0  0  0  0  0  0  0  0  0
   -1.0644    3.0745    0.0000 C   0  0  0  0  0  0  0  0  0  0  0  0
    0.2347    2.3245    0.0000 C   0  0  0  0  0  0  0  0  0  0  0  0
   -2.3634    2.3245    0.0000 C   0  0  0  0  0  0  0  0  0  0  0  0
   -3.6624    3.0745    0.0000 C   0  0  0  0  0  0  0  0  0  0  0  0
   -5.0327    3.6846    0.0000 O   0  0  0  0  0  0  0  0  0  0  0  0
   -3.8192    1.5827    0.0000 O   0  0  0  0  0  0  0  0  0  0  0  0
  8  5  1  0
  9  6  1  0
 10  5  1  0
 11  7  1  0
 12  7  1  0
 13  6  1  0
 15 14  1  0
 16  1  1  0
 16  2  1  0
 16  8  2  0
 17  9  1  1
 18  3  1  1
 18 10  1  0
 18 11  1  0
 18 17  1  0
 19  4  1  1
 19 12  1  0
 19 17  1  0
 20 13  1  0
 20 19  1  0
 21 14  1  0
 21 20  1  0
 22 15  1  0
 22 20  1  0
M  END
>  <NAME>  (3072) 
(4AS,5S,8AS)-(-)-5BETA,8ABETA-DIMETHYL-5AALPHA-(4-METHYL-3-PENTENYL)-3,4,4A,5,6,7,8,8A-OCTAHYDRONAPHTHALEN-1(2H)-ONE

>  <SYNONYMS>  (3072) 


>  <SPECTRUM TYPE>  (3072) 
MS1

>  <INSTRUMENT TYPE>  (3072) 
EI-B

>  <INSTRUMENT>  (3072) 
JEOL JMS-DX-300

>  <ION MODE>  (3072) 
P

>  <INCHIKEY>  (3072) 
NNNJBVICGSMWIP-OTWHNJEPSA-N

>  <FORMULA>  (3072) 
C20H34O2

>  <EXACT MASS>  (3072) 
306.255880328

>  <MW>  (3072) 
306

>  <ID>  (3072) 
JP008005

>  <CONTRIBUTOR>  (3072) 
University of Tokyo Team, {Faculty of Engineering, University of Tokyo

>  <COMMENT>  (3072) 
SMILES=CC(C)=CCCC(C)(C3)C([H])(C1)C(C)(CC3)C(O2)(OCC2)CC1
InChI=InChI=1S/C20H34O2/c1-16(2)8-5-10-18(3)11-7-12-19(4)17(18)9-6-13-20(19)21-14-15-22-20/h8,17H,5-7,9-15H2,1-4H3/t17-,18+,19-/m0/s1
computed SMILES=O1CCOC12CCCC3C(C)(CCC=C(C)C)CCCC32C
accession=JP008005
date=2016.01.19 (Created 2008.10.21, modified 2011.05.06)
author=HISAHIRO HAGIWARA, CHEMICAL RESEARCH INSTITUTE OF NON-AQUEOUSSOLUTIONS TOHOKU UNIV.
license=CC BY-NC-SA
exact mass=306.25588
ionization energy=70 eV
ion type=[M]+*
computed spectral entropy=3.5554201946449897
computed normalized entropy=0.9088443983360143
SPLASH=splash10-052b-9610000000-649ed096a3637254c8fc
submitter=submitter = University of Tokyo Team (Faculty of Engineering, University of Tokyo)
MoNA Rating=3.75

>  <NUM PEAKS>  (3072) 
50

>  <MASS SPECTRAL PEAKS>  (3072) 
41 12.32
53 6.42
55 28.08
67 15.32
68 6.36
69 35.7
79 7.25
81 23.59
82 10.61
83 9.75
86 25.24
87 9.99
93 9.04
95 20.85
96 10.31
99 99.99
100 14.36
105 5.7
107 9.77
108 0.57
109 27.56
113 8.49
114 5.63
121 0.67
122 7.67
123 10.88
124 5.3
125 10.03
128 8.37
135 8.74
136 11.83
137 7.13
138 19.53
139 5.06
149 7.02
151 7.16
161 7.99
162 23.56
163 10.19
175 8.41
176 7.59
191 8.64
192 6.36
193 1.09
223 12.09
224 5.91
262 7.83
275 18.36
306 29.57
307 6.85

$$$$

     RDKit          2D

 23 24  0  0  1  0  0  0  0  0999 V2000
    0.5658   -7.7665    0.0000 C   0  0  0  0  0  0  0  0  0  0  0  0
   -1.8755   -6.8776    0.0000 C   0  0  0  0  0  0  0  0  0  0  0  0
   -2.2641   -2.6492    0.0000 C   0  0  0  0  0  0  0  0  0  0  0  0
    0.0000    2.2500    0.0000 C   0  0  0  0  0  0  0  0  0  0  0  0
    5.1976    3.7504    0.0000 C   0  0  0  0  0  0  0  0  0  0  0  0
   -0.8491   -4.0587    0.0000 C   0  0  0  0  0  0  0  0  0  0  0  0
   -2.6000    0.7500    0.0000 C   0  0  0  0  0  0  0  0  0  0  0  0
    0.1149   -5.2078    0.0000 C   0  0  0  0  0  0  0  0  0  0  0  0
    2.6000   -0.7500    0.0000 C   0  0  0  0  0  0  0  0  0  0  0  0
    1.3000   -1.5000    0.0000 C   0  0  0  0  0  0  0  0  0  0  0  0
   -0.3359   -2.6492    0.0000 C   0  0  0  0  0  0  0  0  0  0  0  0
   -2.6000   -0.7500    0.0000 C   0  0  0  0  0  0  0  0  0  0  0  0
   -1.3000    1.5000    0.0000 C   0  0  0  0  0  0  0  0  0  0  0  0
   -0.3982   -6.6173    0.0000 C   0  0  0  0  0  0  0  0  0  0  0  0
    2.6000    0.7500    0.0000 C   0  0  0  0  0  0  0  0  0  0  0  0
    0.0000   -0.7500    0.0000 C   0  0  0  0  0  0  0  0  0  0  0  0
    1.3000    1.5000    0.0000 C   0  0  0  0  0  0  0  0  0  0  0  0
    3.8989    1.5002    0.0000 C   0  0  0  0  0  0  0  0  0  0  0  0
   -1.3000   -1.5000    0.0000 C   0  0  0  0  0  0  0  0  0  0  0  0
    0.0000    0.7500    0.0000 C   0  0  0  0  0  0  0  0  0  0  0  0
    1.3000    3.0000    0.0000 O   0  0  0  0  0  0  0  0  0  0  0  0
    5.1981    0.7504    0.0000 O   0  0  0  0  0  0  0  0  0  0  0  0
    3.8987    3.0002    0.0000 O   0  0  0  0  0  0  0  0  0  0  0  0
  8  6  1  0
 10  9  1  0
 11  6  1  0
 12  7  1  0
 13  7  1  0
 14  1  1  0
 14  2  1  0
 14  8  2  0
 15  9  1  0
 16 10  1  1
 17 15  1  0
 18 15  1  0
 19  3  1  1
 19 11  1  0
 19 12  1  0
 19 16  1  0
 20  4  1  1
 20 13  1  0
 20 16  1  0
 20 17  1  0
 21 17  2  0
 22 18  2  0
 23  5  1  0
 23 18  1  0
M  END
>  <NAME>  (3073) 
(2XI,4AS,5S,8AS)-(+)-2-CARBOMETHOXY-5BETA,8ABETA-DIMETHYL-5ALPHA-(4-METHYL-3-PENTENYL)-3,4,4A,5,6,7,8,8A-OCTAHYDRONAPHTHALEN-1(2H)-ONE

>  <SYNONYMS>  (3073) 


>  <SPECTRUM TYPE>  (3073) 
MS1

>  <INSTRUMENT TYPE>  (3073) 
EI-B

>  <INSTRUMENT>  (3073) 
JEOL JMS-DX-300

>  <ION MODE>  (3073) 
P

>  <INCHIKEY>  (3073) 
JRJJWSRANBMWST-HKPCIYPDSA-N

>  <FORMULA>  (3073) 
C20H32O3

>  <EXACT MASS>  (3073) 
320.23514488399996

>  <MW>  (3073) 
320

>  <ID>  (3073) 
JP008004

>  <CONTRIBUTOR>  (3073) 
University of Tokyo Team, {Faculty of Engineering, University of Tokyo

>  <COMMENT>  (3073) 
SMILES=CC(C)=CCCC(C)(C2)C([H])(C1)C(C)(CC2)C(=O)C(C(=O)OC)C1
InChI=InChI=1S/C20H32O3/c1-14(2)8-6-11-19(3)12-7-13-20(4)16(19)10-9-15(17(20)21)18(22)23-5/h8,15-16H,6-7,9-13H2,1-5H3/t15?,16-,19+,20-/m0/s1
computed SMILES=O=C(OC)C1C(=O)C2(C)CCCC(C)(CCC=C(C)C)C2CC1
accession=JP008004
date=2016.01.19 (Created 2008.10.21, modified 2011.05.06)
author=HISAHIRO HAGIWARA, CHEMICAL RESEARCH INSTITUTE OF NON-AQUEOUSSOLUTIONS TOHOKU UNIV.
license=CC BY-NC-SA
exact mass=320.23514
ionization energy=70 eV
ion type=[M]+*
computed spectral entropy=3.992226236652963
computed normalized entropy=0.9246640944155522
SPLASH=splash10-0600-4922000000-6b76ce06245ef927fcdb
submitter=submitter = University of Tokyo Team (Faculty of Engineering, University of Tokyo)
MoNA Rating=3.75

>  <NUM PEAKS>  (3073) 
75

>  <MASS SPECTRAL PEAKS>  (3073) 
41 31.64
43 7.87
55 28.26
67 11.75
68 5.79
69 60.42
79 6.93
81 23.72
82 12.9
83 20.27
87 14.81
93 11.21
95 17.24
96 12.9
97 6.6
105 5.26
107 12.98
108 6.82
109 27.08
110 6.47
121 12.42
122 13.58
123 24.66
124 6.06
129 10.8
133 5.97
134 6.69
135 2.62
136 26.63
137 12.71
142 14.3
143 7.12
147 5.28
148 5.91
149 16.92
150 9.41
151 5.89
155 11.65
159 19.09
161 14.78
162 5.91
163 11.53
165 6.64
166 14.77
167 10.64
168 87.86
169 14.61
175 7.98
176 13.3
177 12.68
178 7.38
179 5.87
180 15.53
181 14.39
182 16
183 5.35
191 6.56
193 9.38
194 5.53
195 5.33
203 9.21
205 15.77
207 8.02
217 9.88
219 23.73
220 4.61
221 10.26
235 6.96
273 27.22
274 5.18
288 17.62
289 11.72
305 27.06
320 99.99
321 25.26

$$$$

     RDKit          2D

 19 21  0  0  1  0  0  0  0  0999 V2000
    3.8459    4.7644    0.0000 C   0  0  0  0  0  0  0  0  0  0  0  0
    2.8198    1.4244    0.0000 C   0  0  0  0  0  0  0  0  0  0  0  0
   -3.3859    0.4549    0.0000 C   0  0  0  0  0  0  0  0  0  0  0  0
    3.3328    3.3549    0.0000 C   0  0  0  0  0  0  0  0  0  0  0  0
   -1.2555    4.6849    0.0000 C   0  0  0  0  0  0  0  0  0  0  0  0
    0.0436   -0.5651    0.0000 C   0  0  0  0  0  0  0  0  0  0  0  0
    0.0436    3.9349    0.0000 C   0  0  0  0  0  0  0  0  0  0  0  0
    1.8556    3.0944    0.0000 C   0  0  0  0  0  0  0  0  0  0  0  0
    1.3426    0.1849    0.0000 C   0  0  0  0  0  0  0  0  0  0  0  0
   -1.2555    0.1849    0.0000 C   0  0  0  0  0  0  0  0  0  0  0  0
   -2.5545    3.9349    0.0000 C   0  0  0  0  0  0  0  0  0  0  0  0
   -4.9285    1.9302    0.0000 C   0  0  0  0  0  0  0  0  0  0  0  0
   -4.1785    0.6312    0.0000 C   0  0  0  0  0  0  0  0  0  0  0  0
    0.0436    2.4349    0.0000 C   0  0  0  0  0  0  0  0  0  0  0  0
    1.3426    1.6849    0.0000 C   0  0  0  0  0  0  0  0  0  0  0  0
   -1.2555    1.6849    0.0000 C   0  0  0  0  0  0  0  0  0  0  0  0
   -2.5545    2.4349    0.0000 C   0  0  0  0  0  0  0  0  0  0  0  0
   -3.9248    3.0450    0.0000 O   0  0  0  0  0  0  0  0  0  0  0  0
   -2.7113    0.9431    0.0000 O   0  0  0  0  0  0  0  0  0  0  0  0
  4  1  2  0
  7  5  1  0
  8  4  1  0
  9  6  1  0
 10  6  1  0
 11  5  1  0
 13 12  1  0
 14  7  1  1
 15  2  1  1
 15  8  1  0
 15  9  1  0
 15 14  1  0
 16  3  1  1
 16 10  1  0
 16 14  1  0
 17 11  1  0
 17 16  1  0
 18 12  1  0
 18 17  1  0
 19 13  1  0
 19 17  1  0
M  END
>  <NAME>  (3074) 
(5S,8AS)-(-)-5ALPHA-ALLYL-5BETA,8ABETA-DIMETHYL-3,4,4A,5,6,7,8,8A-OCTAHYDRONAPHTHALEN-1(2H)-ONE ETHYLENE ACETAL

>  <SYNONYMS>  (3074) 


>  <SPECTRUM TYPE>  (3074) 
MS1

>  <INSTRUMENT TYPE>  (3074) 
EI-B

>  <INSTRUMENT>  (3074) 
JEOL JMS-DX-300

>  <ION MODE>  (3074) 
P

>  <INCHIKEY>  (3074) 
UCBVADQAJVJIJU-XHSDSOJGSA-N

>  <FORMULA>  (3074) 
C17H28O2

>  <EXACT MASS>  (3074) 
264.208930136

>  <MW>  (3074) 
264

>  <ID>  (3074) 
JP008003

>  <CONTRIBUTOR>  (3074) 
University of Tokyo Team, {Faculty of Engineering, University of Tokyo

>  <COMMENT>  (3074) 
SMILES=C=CCC(C)(C3)C([H])(C1)C(C)(CC3)C(O2)(OCC2)CC1
InChI=InChI=1S/C17H28O2/c1-4-8-15(2)9-6-10-16(3)14(15)7-5-11-17(16)18-12-13-19-17/h4,14H,1,5-13H2,2-3H3/t14-,15+,16-/m0/s1
computed SMILES=O1CCOC12CCCC3C(C)(CC=C)CCCC32C
accession=JP008003
date=2016.01.19 (Created 2008.10.21, modified 2011.05.06)
author=HISAHIRO HAGIWARA, CHEMICAL RESEARCH INSTITUTE OF NON-AQUEOUSSOLUTIONS TOHOKU UNIV.
license=CC BY-NC-SA
exact mass=264.20893
ionization energy=70 eV
ion type=[M]+*
computed spectral entropy=2.900629395605693
computed normalized entropy=0.9011311878501749
SPLASH=splash10-001j-9100000000-bb9f39c9024fdb3bbbd5
submitter=submitter = University of Tokyo Team (Faculty of Engineering, University of Tokyo)
MoNA Rating=3.75

>  <NUM PEAKS>  (3074) 
25

>  <MASS SPECTRAL PEAKS>  (3074) 
31 73.81
32 74.93
40 15.3
41 19.14
42 6.1
43 49.69
45 35.05
55 16.42
58 18.18
59 47.39
67 7.35
69 8.22
73 7.58
74 33.13
81 6.42
86 25.48
87 23
99 99.99
100 27.86
104 5.35
105 5.48
125 20.42
161 17.87
223 33.45
264 17.25

$$$$

     RDKit          2D

 22 23  0  0  1  0  0  0  0  0999 V2000
    0.4758   -7.8665    0.0000 C   0  0  0  0  0  0  0  0  0  0  0  0
   -1.9655   -6.9776    0.0000 C   0  0  0  0  0  0  0  0  0  0  0  0
   -2.3541   -2.7492    0.0000 C   0  0  0  0  0  0  0  0  0  0  0  0
   -0.0900    2.1500    0.0000 C   0  0  0  0  0  0  0  0  0  0  0  0
   -0.9391   -4.1587    0.0000 C   0  0  0  0  0  0  0  0  0  0  0  0
   -2.6900    0.6500    0.0000 C   0  0  0  0  0  0  0  0  0  0  0  0
    0.0249   -5.3078    0.0000 C   0  0  0  0  0  0  0  0  0  0  0  0
    2.5100   -0.8500    0.0000 C   0  0  0  0  0  0  0  0  0  0  0  0
    1.2100   -1.6000    0.0000 C   0  0  0  0  0  0  0  0  0  0  0  0
   -0.4259   -2.7492    0.0000 C   0  0  0  0  0  0  0  0  0  0  0  0
   -2.6900   -0.8500    0.0000 C   0  0  0  0  0  0  0  0  0  0  0  0
   -1.3900    1.4000    0.0000 C   0  0  0  0  0  0  0  0  0  0  0  0
    3.8089    1.4002    0.0000 C   0  0  0  0  0  0  0  0  0  0  0  0
    1.2100    2.9000    0.0000 C   0  0  0  0  0  0  0  0  0  0  0  0
   -0.4882   -6.7173    0.0000 C   0  0  0  0  0  0  0  0  0  0  0  0
    2.5100    0.6500    0.0000 C   0  0  0  0  0  0  0  0  0  0  0  0
    1.2100    1.4000    0.0000 C   0  0  0  0  0  0  0  0  0  0  0  0
   -0.0900   -0.8500    0.0000 C   0  0  0  0  0  0  0  0  0  0  0  0
   -1.3900   -1.6000    0.0000 C   0  0  0  0  0  0  0  0  0  0  0  0
   -0.0900    0.6500    0.0000 C   0  0  0  0  0  0  0  0  0  0  0  0
    3.8087    2.9002    0.0000 O   0  0  0  0  0  0  0  0  0  0  0  0
    2.5090    3.6500    0.0000 O   0  0  0  0  0  0  0  0  0  0  0  0
  7  5  1  0
  9  8  1  0
 10  5  1  0
 11  6  1  0
 12  6  1  0
 15  1  1  0
 15  2  1  0
 15  7  2  0
 16  8  2  0
 16 13  1  0
 17 14  1  6
 17 16  1  0
 18  9  1  1
 19  3  1  1
 19 10  1  0
 19 11  1  0
 19 18  1  0
 20  4  1  1
 20 12  1  0
 20 17  1  0
 20 18  1  0
 21 13  2  0
 22 14  2  0
M  END
>  <NAME>  (3075) 
(1S,4AS,5S,8AS)-5BETA,8ABETA-DIMETHYL-1ALPHA,2-DIFORMYL-5AALPHA-(4-METHYL-3-PENTENYL)-1,4,4A,5,6,7,8,8AALPHA)-OCTAHYDRONAPHTHALENE

>  <SYNONYMS>  (3075) 
ISOSACCULATAL

>  <SPECTRUM TYPE>  (3075) 
MS1

>  <INSTRUMENT TYPE>  (3075) 
EI-B

>  <INSTRUMENT>  (3075) 
JEOL JMS-DX-300

>  <ION MODE>  (3075) 
P

>  <INCHIKEY>  (3075) 
CJRSLLMDIKKFIM-IYWMVGAKSA-N

>  <FORMULA>  (3075) 
C20H30O2

>  <EXACT MASS>  (3075) 
302.2245802

>  <MW>  (3075) 
302

>  <ID>  (3075) 
JP008002

>  <CONTRIBUTOR>  (3075) 
University of Tokyo Team, {Faculty of Engineering, University of Tokyo

>  <COMMENT>  (3075) 
SMILES=CC(C)=CCCC(C)(C2)C([H])(C1)C(C)(CC2)C([H])(C=O)C(C=O)=C([H])1
InChI=InChI=1S/C20H30O2/c1-15(2)7-5-10-19(3)11-6-12-20(4)17(14-22)16(13-21)8-9-18(19)20/h7-8,13-14,17-18H,5-6,9-12H2,1-4H3/t17-,18+,19-,20-/m1/s1
computed SMILES=O=CC1=CCC2C(C)(CCC=C(C)C)CCCC2(C)C1C=O
accession=JP008002
date=2016.01.19 (Created 2008.10.21, modified 2011.05.06)
author=HISAHIRO HAGIWARA, CHEMICAL RESEARCH INSTITUTE OF NON-AQUEOUSSOLUTIONS TOHOKU UNIV.
license=CC BY-NC-SA
exact mass=302.22458
ionization energy=70 eV
ion type=[M]+*
computed spectral entropy=4.027713208449215
computed normalized entropy=0.9191439359539549
SPLASH=splash10-0a4l-9510000000-a436ae5f400e4cf03f93
submitter=submitter = University of Tokyo Team (Faculty of Engineering, University of Tokyo)
MoNA Rating=3.75

>  <NUM PEAKS>  (3075) 
80

>  <MASS SPECTRAL PEAKS>  (3075) 
31 45.58
32 29.29
39 9.52
41 93.51
42 5.82
43 53.54
45 58.03
53 12.01
55 51.32
56 5.15
57 12.43
59 99.99
65 6.66
67 22.43
69 70.28
70 6.79
71 7.34
73 8.55
74 6.41
77 15.28
79 19.71
81 25.25
82 7.77
83 20.92
91 33.92
93 20.44
95 20.36
96 5.25
97 7.74
105 4.73
106 19.07
108 5.51
109 21.07
115 5.93
117 8.72
119 16.9
121 25.16
122 12.23
123 10.91
129 8.11
130 5.62
131 21.27
133 20.32
134 12.09
135 14.05
137 5.36
143 8.9
145 19.62
147 19
148 6.76
149 16.49
156 8.71
157 7.62
158 13.74
159 24.2
160 5.97
161 13.24
163 8.92
171 6.14
173 12.87
174 12.31
175 9.68
177 6.29
185 5.76
187 9.47
189 14.35
190 6.02
191 6.27
201 37.9
202 13.37
203 10.71
218 7.66
219 10.34
220 8.76
231 12.5
259 33.47
260 7.77
274 6.97
289 5.78
302 17.54

$$$$

     RDKit          2D

 22 23  0  0  1  0  0  0  0  0999 V2000
    0.4758   -7.8665    0.0000 C   0  0  0  0  0  0  0  0  0  0  0  0
   -1.9655   -6.9776    0.0000 C   0  0  0  0  0  0  0  0  0  0  0  0
   -2.3541   -2.7492    0.0000 C   0  0  0  0  0  0  0  0  0  0  0  0
   -0.0900    2.1500    0.0000 C   0  0  0  0  0  0  0  0  0  0  0  0
   -0.9391   -4.1587    0.0000 C   0  0  0  0  0  0  0  0  0  0  0  0
   -2.6900    0.6500    0.0000 C   0  0  0  0  0  0  0  0  0  0  0  0
    0.0249   -5.3078    0.0000 C   0  0  0  0  0  0  0  0  0  0  0  0
    2.5100   -0.8500    0.0000 C   0  0  0  0  0  0  0  0  0  0  0  0
    1.2100   -1.6000    0.0000 C   0  0  0  0  0  0  0  0  0  0  0  0
   -0.4259   -2.7492    0.0000 C   0  0  0  0  0  0  0  0  0  0  0  0
   -2.6900   -0.8500    0.0000 C   0  0  0  0  0  0  0  0  0  0  0  0
   -1.3900    1.4000    0.0000 C   0  0  0  0  0  0  0  0  0  0  0  0
    3.8089    1.4002    0.0000 C   0  0  0  0  0  0  0  0  0  0  0  0
    1.2100    2.9000    0.0000 C   0  0  0  0  0  0  0  0  0  0  0  0
   -0.4882   -6.7173    0.0000 C   0  0  0  0  0  0  0  0  0  0  0  0
    2.5100    0.6500    0.0000 C   0  0  0  0  0  0  0  0  0  0  0  0
    1.2100    1.4000    0.0000 C   0  0  0  0  0  0  0  0  0  0  0  0
   -0.0900   -0.8500    0.0000 C   0  0  0  0  0  0  0  0  0  0  0  0
   -1.3900   -1.6000    0.0000 C   0  0  0  0  0  0  0  0  0  0  0  0
   -0.0900    0.6500    0.0000 C   0  0  0  0  0  0  0  0  0  0  0  0
    3.8087    2.9002    0.0000 O   0  0  0  0  0  0  0  0  0  0  0  0
    2.5090    3.6500    0.0000 O   0  0  0  0  0  0  0  0  0  0  0  0
  7  5  1  0
  9  8  1  0
 10  5  1  0
 11  6  1  0
 12  6  1  0
 15  1  1  0
 15  2  1  0
 15  7  2  0
 16  8  2  0
 16 13  1  0
 17 14  1  1
 17 16  1  0
 18  9  1  1
 19  3  1  1
 19 10  1  0
 19 11  1  0
 19 18  1  0
 20  4  1  1
 20 12  1  0
 20 17  1  0
 20 18  1  0
 21 13  2  0
 22 14  2  0
M  END
>  <NAME>  (3076) 
(1R,4AS,5S,8AS)-(-)-5BETA,8ABETA-DIMETHYL-1BETA,2-DIFORMYL-5ALPHA-(4-METHYL-3-PENTENYL)-1,4,4A,5,6,7,8,8AALPHA-OCTAHYDRONAPHTHALENE

>  <SYNONYMS>  (3076) 
SACCULATAL

>  <SPECTRUM TYPE>  (3076) 
MS1

>  <INSTRUMENT TYPE>  (3076) 
EI-B

>  <INSTRUMENT>  (3076) 
JEOL JMS-DX-300

>  <ION MODE>  (3076) 
P

>  <INCHIKEY>  (3076) 
CJRSLLMDIKKFIM-VNTMZGSJSA-N

>  <FORMULA>  (3076) 
C20H30O2

>  <EXACT MASS>  (3076) 
302.2245802

>  <MW>  (3076) 
302

>  <ID>  (3076) 
JP008001

>  <CONTRIBUTOR>  (3076) 
University of Tokyo Team, {Faculty of Engineering, University of Tokyo

>  <COMMENT>  (3076) 
SMILES=CC(C)=CCCC(C)(C2)C([H])(C1)C(C)(CC2)C([H])(C=O)C(C=O)=C([H])1
InChI=InChI=1S/C20H30O2/c1-15(2)7-5-10-19(3)11-6-12-20(4)17(14-22)16(13-21)8-9-18(19)20/h7-8,13-14,17-18H,5-6,9-12H2,1-4H3/t17-,18-,19+,20+/m0/s1
computed SMILES=O=CC1=CCC2C(C)(CCC=C(C)C)CCCC2(C)C1C=O
accession=JP008001
date=2016.01.19 (Created 2008.10.21, modified 2011.05.06)
author=HISAHIRO HAGIWARA, CHEMICAL RESEARCH INSTITUTE OF NON-AQUEOUSSOLUTIONS TOHOKU UNIV.
license=CC BY-NC-SA
exact mass=302.22458
ionization energy=70 eV
ion type=[M]+*
computed spectral entropy=3.9462316280232757
computed normalized entropy=0.9197690089262378
SPLASH=splash10-0a4l-9620000000-eca24b0ce901a3dcf271
submitter=submitter = University of Tokyo Team (Faculty of Engineering, University of Tokyo)
MoNA Rating=3.75

>  <NUM PEAKS>  (3076) 
73

>  <MASS SPECTRAL PEAKS>  (3076) 
31 33.59
39 9.06
41 99.45
43 38.61
45 16.53
53 13.46
55 54.51
57 7.37
59 22.89
61 5
65 7.43
67 26.82
68 5.38
69 99.99
70 11.55
71 7.29
73 5.16
74 15.91
77 17.4
79 24.17
81 34.82
82 9.89
83 17.75
91 46.99
92 6.89
93 28.75
94 6.62
95 30.53
96 10.08
97 12.92
99 11.41
105 39.63
106 7.99
107 27.24
108 9.45
109 34.98
110 8.64
119 9.95
120 5.53
121 5.33
122 14.41
123 14.49
131 13.31
133 23.29
134 27.16
135 26.86
136 8.29
137 10.47
145 12.19
147 20.05
148 9.48
149 13.18
150 5.3
159 8.91
161 17.07
162 5.54
163 12.82
173 9.73
174 17.34
175 11.73
176 7.06
177 17.15
189 20.38
190 14.02
191 13.09
192 12.46
203 6.85
231 49.37
232 9.24
259 91.26
260 17.96
274 0.5
275 10.4

$$$$

     RDKit          2D

 21 22  0  0  1  0  0  0  0  0999 V2000
    0.5658   -7.7665    0.0000 C   0  0  0  0  0  0  0  0  0  0  0  0
   -1.8755   -6.8776    0.0000 C   0  0  0  0  0  0  0  0  0  0  0  0
   -2.2641   -2.6492    0.0000 C   0  0  0  0  0  0  0  0  0  0  0  0
    0.0000    2.2500    0.0000 C   0  0  0  0  0  0  0  0  0  0  0  0
   -0.8491   -4.0587    0.0000 C   0  0  0  0  0  0  0  0  0  0  0  0
   -2.6000    0.7500    0.0000 C   0  0  0  0  0  0  0  0  0  0  0  0
    0.1149   -5.2078    0.0000 C   0  0  0  0  0  0  0  0  0  0  0  0
    2.6000   -0.7500    0.0000 C   0  0  0  0  0  0  0  0  0  0  0  0
    1.3000   -1.5000    0.0000 C   0  0  0  0  0  0  0  0  0  0  0  0
   -0.3359   -2.6492    0.0000 C   0  0  0  0  0  0  0  0  0  0  0  0
   -2.6000   -0.7500    0.0000 C   0  0  0  0  0  0  0  0  0  0  0  0
   -1.3000    1.5000    0.0000 C   0  0  0  0  0  0  0  0  0  0  0  0
    3.8989    1.5002    0.0000 C   0  0  0  0  0  0  0  0  0  0  0  0
   -0.3982   -6.6173    0.0000 C   0  0  0  0  0  0  0  0  0  0  0  0
    2.6000    0.7500    0.0000 C   0  0  0  0  0  0  0  0  0  0  0  0
    0.0000   -0.7500    0.0000 C   0  0  0  0  0  0  0  0  0  0  0  0
    1.3000    1.5000    0.0000 C   0  0  0  0  0  0  0  0  0  0  0  0
   -1.3000   -1.5000    0.0000 C   0  0  0  0  0  0  0  0  0  0  0  0
    0.0000    0.7500    0.0000 C   0  0  0  0  0  0  0  0  0  0  0  0
    3.8987    3.0002    0.0000 O   0  0  0  0  0  0  0  0  0  0  0  0
    1.3000    3.0000    0.0000 O   0  0  0  0  0  0  0  0  0  0  0  0
  7  5  1  0
  9  8  1  0
 10  5  1  0
 11  6  1  0
 12  6  1  0
 14  1  1  0
 14  2  1  0
 14  7  2  0
 15  8  1  0
 15 13  1  0
 16  9  1  1
 17 15  1  0
 18  3  1  1
 18 10  1  0
 18 11  1  0
 18 16  1  0
 19  4  1  1
 19 12  1  0
 19 16  1  0
 19 17  1  0
 20 13  2  0
 21 17  2  0
M  END
>  <NAME>  (3077) 
(2XI,4AS,5S,8AS)-(+)-5BETA,8ABETA-DIMETHYL2-FORMYL-5ALPHA-(4-METYL-3-PENTENYL)-3,4,4AALPHA,5,6,7,8,8A-OCTAHYDRONAPHTHALEN-1(2H)-ONE

>  <SYNONYMS>  (3077) 


>  <SPECTRUM TYPE>  (3077) 
MS1

>  <INSTRUMENT TYPE>  (3077) 
EI-B

>  <INSTRUMENT>  (3077) 
JEOL JMS-DX-300

>  <ION MODE>  (3077) 
P

>  <INCHIKEY>  (3077) 
DBOUDQHWPFHKMO-ATQPIAHYSA-N

>  <FORMULA>  (3077) 
C19H30O2

>  <EXACT MASS>  (3077) 
290.2245802

>  <MW>  (3077) 
290

>  <ID>  (3077) 
JP008000

>  <CONTRIBUTOR>  (3077) 
University of Tokyo Team, {Faculty of Engineering, University of Tokyo

>  <COMMENT>  (3077) 
SMILES=CC(C)=CCCC(C)(C2)C([H])(C1)C(C)(CC2)C(=O)C(C=O)C1
InChI=InChI=1S/C19H30O2/c1-14(2)7-5-10-18(3)11-6-12-19(4)16(18)9-8-15(13-20)17(19)21/h7,13,15-16H,5-6,8-12H2,1-4H3/t15?,16-,18+,19-/m0/s1
computed SMILES=O=CC1C(=O)C2(C)CCCC(C)(CCC=C(C)C)C2CC1
accession=JP008000
date=2016.01.19 (Created 2008.10.21, modified 2011.05.06)
author=HISAHIRO HAGIWARA, CHEMICAL RESEARCH INSTITUTE OF NON-AQUEOUSSOLUTIONS TOHOKU UNIV.
license=CC BY-NC-SA
exact mass=290.22458
ionization energy=70 eV
ion type=[M]+*
computed spectral entropy=3.1130229399868883
computed normalized entropy=0.7542819422762451
SPLASH=splash10-0006-9300000000-e765ce4fb2600aee0f44
submitter=submitter = University of Tokyo Team (Faculty of Engineering, University of Tokyo)
MoNA Rating=3.75

>  <NUM PEAKS>  (3077) 
62

>  <MASS SPECTRAL PEAKS>  (3077) 
32 14.87
37 1.17
38 1.19
39 0.34
40 1.63
41 12.08
42 7.42
43 99.99
44 2.28
45 2.64
53 1.19
55 4.66
56 1
57 3.81
58 41.13
59 1.11
61 2.64
67 4.49
69 6.39
70 3.62
81 6.15
82 1.06
83 3.12
88 1.22
91 1.39
93 2
95 5.65
97 1.84
107 1.11
109 5.04
111 1.34
112 2.26
120 1.72
121 1.31
123 3.18
125 3.37
135 1.89
136 2.77
137 4.12
138 18.88
139 4.86
140 1.84
149 2.33
150 3.04
151 1.73
152 4.62
161 2.33
162 1.18
163 3.25
164 1.33
165 2.17
177 2.52
179 1.09
187 1.3
189 1.43
193 2.66
205 1.28
206 1.02
207 1.75
275 1.35
290 9.18
291 2.44

$$$$

     RDKit          2D

 21 22  0  0  1  0  0  0  0  0999 V2000
    0.5658   -7.7665    0.0000 C   0  0  0  0  0  0  0  0  0  0  0  0
   -1.8755   -6.8776    0.0000 C   0  0  0  0  0  0  0  0  0  0  0  0
   -2.2641   -2.6492    0.0000 C   0  0  0  0  0  0  0  0  0  0  0  0
    0.0000    2.2500    0.0000 C   0  0  0  0  0  0  0  0  0  0  0  0
   -0.8491   -4.0587    0.0000 C   0  0  0  0  0  0  0  0  0  0  0  0
   -2.6000    0.7500    0.0000 C   0  0  0  0  0  0  0  0  0  0  0  0
    0.1149   -5.2078    0.0000 C   0  0  0  0  0  0  0  0  0  0  0  0
    2.6000   -0.7500    0.0000 C   0  0  0  0  0  0  0  0  0  0  0  0
    1.3000   -1.5000    0.0000 C   0  0  0  0  0  0  0  0  0  0  0  0
   -0.3359   -2.6492    0.0000 C   0  0  0  0  0  0  0  0  0  0  0  0
   -2.6000   -0.7500    0.0000 C   0  0  0  0  0  0  0  0  0  0  0  0
   -1.3000    1.5000    0.0000 C   0  0  0  0  0  0  0  0  0  0  0  0
    3.8989    1.5002    0.0000 C   0  0  0  0  0  0  0  0  0  0  0  0
   -0.3982   -6.6173    0.0000 C   0  0  0  0  0  0  0  0  0  0  0  0
    2.6000    0.7500    0.0000 C   0  0  0  0  0  0  0  0  0  0  0  0
    0.0000   -0.7500    0.0000 C   0  0  0  0  0  0  0  0  0  0  0  0
    1.3000    1.5000    0.0000 C   0  0  0  0  0  0  0  0  0  0  0  0
   -1.3000   -1.5000    0.0000 C   0  0  0  0  0  0  0  0  0  0  0  0
    0.0000    0.7500    0.0000 C   0  0  0  0  0  0  0  0  0  0  0  0
    3.8987    3.0002    0.0000 O   0  0  0  0  0  0  0  0  0  0  0  0
    1.3000    3.0000    0.0000 O   0  0  0  0  0  0  0  0  0  0  0  0
  7  5  1  0
  9  8  1  0
 10  5  1  0
 11  6  1  0
 12  6  1  0
 14  1  1  0
 14  2  1  0
 14  7  2  0
 15  8  2  0
 15 13  1  0
 16  9  1  1
 17 15  1  0
 18  3  1  1
 18 10  1  0
 18 11  1  0
 18 16  1  0
 19  4  1  0
 19 12  1  0
 19 16  1  0
 19 17  1  0
 20 13  2  0
 21 17  2  0
M  END
>  <NAME>  (3078) 
(4AS,5S,8AS)-(+)-5BETA,8ABETA-DIMETHYL-2-FORMYL-5ALPHA-(4-METHYL-3-PENTENYL)-4A,5,6,7,8,8A-HEXAHYDRONAPHTHALEN-1(4H)-ONE

>  <SYNONYMS>  (3078) 


>  <SPECTRUM TYPE>  (3078) 
MS1

>  <INSTRUMENT TYPE>  (3078) 
EI-B

>  <INSTRUMENT>  (3078) 
JEOL JMS-DX-300

>  <ION MODE>  (3078) 
P

>  <INCHIKEY>  (3078) 
OJVMWXAYNQWVOS-CXEJCQMISA-N

>  <FORMULA>  (3078) 
C19H28O2

>  <EXACT MASS>  (3078) 
288.208930136

>  <MW>  (3078) 
288

>  <ID>  (3078) 
JP007999

>  <CONTRIBUTOR>  (3078) 
University of Tokyo Team, {Faculty of Engineering, University of Tokyo

>  <COMMENT>  (3078) 
SMILES=CC(C)=CCCC(C)(C2)C([H])(C1)C(C)(CC2)C(=O)C(C=O)=C([H])1
InChI=InChI=1S/C19H28O2/c1-14(2)7-5-10-18(3)11-6-12-19(4)16(18)9-8-15(13-20)17(19)21/h7-8,13,16H,5-6,9-12H2,1-4H3/t16-,18+,19?/m0/s1
computed SMILES=O=CC1=CCC2C(C1=O)(C)CCCC2(C)CCC=C(C)C
accession=JP007999
date=2016.01.19 (Created 2008.10.21, modified 2011.05.06)
author=HISAHIRO HAGIWARA, CHEMICAL RESEARCH INSTITUTE OF NON-AQUEOUSSOLUTIONS TOHOKU UNIV.
license=CC BY-NC-SA
exact mass=288.20893
ionization energy=70 eV
ion type=[M]+*
computed spectral entropy=3.6886684358865676
computed normalized entropy=0.9123476779116408
SPLASH=splash10-052f-9610000000-d360c765c0268ab0d880
submitter=submitter = University of Tokyo Team (Faculty of Engineering, University of Tokyo)
MoNA Rating=3.75

>  <NUM PEAKS>  (3078) 
57

>  <MASS SPECTRAL PEAKS>  (3078) 
32 10.05
39 11.89
41 53.15
42 12.75
43 99.99
53 9.86
55 28.82
57 5.74
58 74.3
67 16.79
68 5.01
69 52.06
77 8.55
79 11.29
81 21.81
82 6.44
83 17.25
91 11.19
93 13.94
95 13.54
97 6.22
105 7.7
107 13.07
108 5.86
109 37
110 6.55
121 13.19
122 10.14
123 15.82
133 7.58
134 5.29
135 14.65
136 10.85
137 22.41
138 17.44
147 0.09
149 17.59
150 22.6
151 7.1
159 6.89
161 12.52
162 18.65
163 15.62
164 5.07
175 17.59
176 6.36
177 12.04
189 16.75
191 7.88
192 5.05
203 5.25
245 30.92
246 5.82
260 7.62
273 29.08
274 6.14
288 12.05

$$$$

     RDKit          2D

 24 26  0  0  1  0  0  0  0  0999 V2000
    0.5658   -7.7665    0.0000 C   0  0  0  0  0  0  0  0  0  0  0  0
   -1.8755   -6.8776    0.0000 C   0  0  0  0  0  0  0  0  0  0  0  0
   -2.2641   -2.6492    0.0000 C   0  0  0  0  0  0  0  0  0  0  0  0
    0.0000    2.2500    0.0000 C   0  0  0  0  0  0  0  0  0  0  0  0
   -0.8491   -4.0587    0.0000 C   0  0  0  0  0  0  0  0  0  0  0  0
   -2.6000    0.7500    0.0000 C   0  0  0  0  0  0  0  0  0  0  0  0
    0.1149   -5.2078    0.0000 C   0  0  0  0  0  0  0  0  0  0  0  0
    2.6000   -0.7500    0.0000 C   0  0  0  0  0  0  0  0  0  0  0  0
    1.3000   -1.5000    0.0000 C   0  0  0  0  0  0  0  0  0  0  0  0
   -0.3359   -2.6492    0.0000 C   0  0  0  0  0  0  0  0  0  0  0  0
   -2.6000   -0.7500    0.0000 C   0  0  0  0  0  0  0  0  0  0  0  0
   -1.3000    1.5000    0.0000 C   0  0  0  0  0  0  0  0  0  0  0  0
    5.5226    3.3041    0.0000 C   0  0  0  0  0  0  0  0  0  0  0  0
    6.2729    2.0052    0.0000 C   0  0  0  0  0  0  0  0  0  0  0  0
   -0.3982   -6.6173    0.0000 C   0  0  0  0  0  0  0  0  0  0  0  0
    2.6000    0.7500    0.0000 C   0  0  0  0  0  0  0  0  0  0  0  0
    0.0000   -0.7500    0.0000 C   0  0  0  0  0  0  0  0  0  0  0  0
    1.3000    1.5000    0.0000 C   0  0  0  0  0  0  0  0  0  0  0  0
    3.8989    1.5002    0.0000 C   0  0  0  0  0  0  0  0  0  0  0  0
   -1.3000   -1.5000    0.0000 C   0  0  0  0  0  0  0  0  0  0  0  0
    0.0000    0.7500    0.0000 C   0  0  0  0  0  0  0  0  0  0  0  0
    1.3000    3.0000    0.0000 O   0  0  0  0  0  0  0  0  0  0  0  0
    4.0555    2.9920    0.0000 O   0  0  0  0  0  0  0  0  0  0  0  0
    5.2693    0.8903    0.0000 O   0  0  0  0  0  0  0  0  0  0  0  0
  7  5  1  0
  9  8  1  0
 10  5  1  0
 11  6  1  0
 12  6  1  0
 14 13  1  0
 15  1  1  0
 15  2  1  0
 15  7  2  0
 16  8  2  0
 17  9  1  1
 18 16  1  0
 19 16  1  0
 20  3  1  1
 20 10  1  0
 20 11  1  0
 20 17  1  0
 21  4  1  0
 21 12  1  0
 21 17  1  0
 21 18  1  0
 22 18  2  0
 23 13  1  0
 23 19  1  0
 24 14  1  0
 24 19  1  0
M  END
>  <NAME>  (3079) 
(4AS,5S,8AS)-(-)-5BETA,8ABETA-DIMETHYL-2-ETHYLENEDIOXYMETHYL-5ALPHA-(4-METHYL-3-PENTENYL)-4A,5,6,7,8,8AALPHA-HEXAHYDRONAPHTHALEN-1(4H)-ONE

>  <SYNONYMS>  (3079) 


>  <SPECTRUM TYPE>  (3079) 
MS1

>  <INSTRUMENT TYPE>  (3079) 
EI-B

>  <INSTRUMENT>  (3079) 
JEOL JMS-DX-300

>  <ION MODE>  (3079) 
P

>  <INCHIKEY>  (3079) 
QKVWYHHJSLEUNS-DVUUQMMQSA-N

>  <FORMULA>  (3079) 
C21H32O3

>  <EXACT MASS>  (3079) 
332.23514488399996

>  <MW>  (3079) 
332

>  <ID>  (3079) 
JP007998

>  <CONTRIBUTOR>  (3079) 
University of Tokyo Team, {Faculty of Engineering, University of Tokyo

>  <COMMENT>  (3079) 
SMILES=CC(C)=CCCC(C)(C3)C([H])(C1)C(C)(CC3)C(=O)C(C(O2)OCC2)=C([H])1
InChI=InChI=1S/C21H32O3/c1-15(2)7-5-10-20(3)11-6-12-21(4)17(20)9-8-16(18(21)22)19-23-13-14-24-19/h7-8,17,19H,5-6,9-14H2,1-4H3/t17-,20+,21?/m0/s1
computed SMILES=O=C1C(=CCC2C1(C)CCCC2(C)CCC=C(C)C)C3OCCO3
accession=JP007998
date=2016.01.19 (Created 2008.10.21, modified 2011.05.06)
author=HISAHIRO HAGIWARA, CHEMICAL RESEARCH INSTITUTE OF NON-AQUEOUSSOLUTIONS TOHOKU UNIV.
license=CC BY-NC-SA
exact mass=332.23514
ionization energy=70 eV
ion type=[M]+*
computed spectral entropy=4.269554777303542
computed normalized entropy=0.9291498190582532
SPLASH=splash10-06ec-6931000000-013b0e0f5a244ca819f3
submitter=submitter = University of Tokyo Team (Faculty of Engineering, University of Tokyo)
MoNA Rating=3.75

>  <NUM PEAKS>  (3079) 
99

>  <MASS SPECTRAL PEAKS>  (3079) 
41 65.71
45 44.85
53 10.2
55 33.86
57 7.2
67 8.36
69 70.12
70 5.03
73 99.99
74 6.75
77 10.1
79 1.55
81 29.63
82 16.57
83 26.07
91 16.14
93 17.74
95 19.73
96 6.53
97 13.63
99 5.3
105 12.42
107 18.65
108 8.03
109 68.09
110 13.65
112 10.61
119 7.26
121 14.03
122 8.25
123 18.23
127 10.81
131 5.7
133 12.71
134 11.07
135 26.86
136 12.38
137 15.47
141 18.37
145 0.64
147 14.36
148 25.41
149 20.47
150 6.04
151 7.1
152 9.03
153 9.43
154 36.59
155 6
159 12.37
160 20.71
161 18.79
162 13.06
163 9.93
165 7.27
166 17.66
167 9.61
173 6.81
175 13.11
176 6.87
177 18.13
178 11.64
179 17.69
180 37.12
181 15.15
182 5.46
184 7.61
187 16.16
188 5.91
189 7.71
191 7.31
192 8.34
193 7.83
194 9.03
201 10.09
202 16.14
203 30.26
204 9.76
205 18.6
206 7.34
207 11.3
215 5.28
217 5.9
219 9.63
231 5.42
233 6.86
243 32.86
244 6.78
247 5.9
249 8.98
261 10.53
271 10.79
286 15.29
287 8.97
289 10.89
317 55.54
318 12.27
332 63.53
333 16.61

$$$$

     RDKit          2D

 19 20  0  0  1  0  0  0  0  0999 V2000
    0.5658   -7.7665    0.0000 C   0  0  0  0  0  0  0  0  0  0  0  0
   -1.8755   -6.8776    0.0000 C   0  0  0  0  0  0  0  0  0  0  0  0
   -2.2641   -2.6492    0.0000 C   0  0  0  0  0  0  0  0  0  0  0  0
    0.0000    2.2500    0.0000 C   0  0  0  0  0  0  0  0  0  0  0  0
    2.6000   -0.7500    0.0000 C   0  0  0  0  0  0  0  0  0  0  0  0
   -0.8491   -4.0587    0.0000 C   0  0  0  0  0  0  0  0  0  0  0  0
   -2.6000    0.7500    0.0000 C   0  0  0  0  0  0  0  0  0  0  0  0
    0.1149   -5.2078    0.0000 C   0  0  0  0  0  0  0  0  0  0  0  0
    1.3000   -1.5000    0.0000 C   0  0  0  0  0  0  0  0  0  0  0  0
    2.6000    0.7500    0.0000 C   0  0  0  0  0  0  0  0  0  0  0  0
   -0.3359   -2.6492    0.0000 C   0  0  0  0  0  0  0  0  0  0  0  0
   -2.6000   -0.7500    0.0000 C   0  0  0  0  0  0  0  0  0  0  0  0
   -1.3000    1.5000    0.0000 C   0  0  0  0  0  0  0  0  0  0  0  0
   -0.3982   -6.6173    0.0000 C   0  0  0  0  0  0  0  0  0  0  0  0
    0.0000   -0.7500    0.0000 C   0  0  0  0  0  0  0  0  0  0  0  0
    1.3000    1.5000    0.0000 C   0  0  0  0  0  0  0  0  0  0  0  0
   -1.3000   -1.5000    0.0000 C   0  0  0  0  0  0  0  0  0  0  0  0
    0.0000    0.7500    0.0000 C   0  0  0  0  0  0  0  0  0  0  0  0
    1.3000    3.0000    0.0000 O   0  0  0  0  0  0  0  0  0  0  0  0
  8  6  1  0
  9  5  1  0
 10  5  1  0
 11  6  1  0
 12  7  1  0
 13  7  1  0
 14  1  1  0
 14  2  1  0
 14  8  2  0
 15  9  1  1
 16 10  1  0
 17  3  1  1
 17 11  1  0
 17 12  1  0
 17 15  1  0
 18  4  1  1
 18 13  1  0
 18 15  1  0
 18 16  1  0
 19 16  2  0
M  END
>  <NAME>  (3080) 
(4AS,5S,8AS)-(-)-5BETA,8ABETA-DIMETHYL-5ALPHA-(4-METHYL-3-PENTENYL)-3,4,4A,5,6,7,8,8A-OCTAHYDRONAPHTHALEN-1(2H)-ONE

>  <SYNONYMS>  (3080) 


>  <SPECTRUM TYPE>  (3080) 
MS1

>  <INSTRUMENT TYPE>  (3080) 
EI-B

>  <INSTRUMENT>  (3080) 
JEOL JMS-DX-300

>  <ION MODE>  (3080) 
P

>  <INCHIKEY>  (3080) 
XHDVQLNRSVLERR-JQHSSLGASA-N

>  <FORMULA>  (3080) 
C18H30O

>  <EXACT MASS>  (3080) 
262.22966558

>  <MW>  (3080) 
262

>  <ID>  (3080) 
JP007997

>  <CONTRIBUTOR>  (3080) 
University of Tokyo Team, {Faculty of Engineering, University of Tokyo

>  <COMMENT>  (3080) 
SMILES=CC(C)=CCCC(C)(C2)C([H])(C1)C(C)(CC2)C(=O)CC1
InChI=InChI=1S/C18H30O/c1-14(2)8-6-11-17(3)12-7-13-18(4)15(17)9-5-10-16(18)19/h8,15H,5-7,9-13H2,1-4H3/t15-,17+,18-/m0/s1
computed SMILES=O=C1CCCC2C1(C)CCCC2(C)CCC=C(C)C
accession=JP007997
date=2016.01.19 (Created 2008.10.21, modified 2011.05.06)
author=HISAHIRO HAGIWARA, CHEMICAL RESEARCH INSTITUTE OF NON-AQUEOUSSOLUTIONS TOHOKU UNIV.
license=CC BY-NC-SA
exact mass=262.22967
ionization energy=70 eV
ion type=[M]+*
computed spectral entropy=3.7129210093411835
computed normalized entropy=0.9223842522597306
SPLASH=splash10-0ar3-8900000000-15c15ef3b99e578ada1e
submitter=submitter = University of Tokyo Team (Faculty of Engineering, University of Tokyo)
MoNA Rating=3.75

>  <NUM PEAKS>  (3080) 
56

>  <MASS SPECTRAL PEAKS>  (3080) 
39 8.85
41 79.42
42 5.13
43 21.11
53 12.91
55 53.04
57 6.34
67 36.55
68 14.72
69 99.99
70 7.74
77 6.83
79 16.44
80 5.61
81 55.51
82 24.64
83 29.96
84 5.68
91 9.27
93 22.76
94 9.22
95 50.97
96 16.4
97 12.67
105 16.25
107 19.43
108 10.75
109 71.64
110 18.32
111 28.75
112 8.58
119 10.21
121 20.17
122 21.15
123 25.07
124 60.19
125 12.72
133 10.18
134 6.09
135 37.97
136 23.4
137 28.49
138 6.91
149 1.91
151 6.53
159 8.09
161 34.78
162 27.55
163 11.43
177 40.98
178 56.57
179 39.49
180 10.36
247 10.33
262 45.3
263 10.52

$$$$

     RDKit          2D

 28 30  0  0  1  0  0  0  0  0999 V2000
    0.5658   -7.7665    0.0000 C   0  0  0  0  0  0  0  0  0  0  0  0
   -1.8755   -6.8776    0.0000 C   0  0  0  0  0  0  0  0  0  0  0  0
   -1.3000    3.0000    0.0000 C   0  0  0  0  0  0  0  0  0  0  0  0
    3.8989    1.5002    0.0000 C   0  0  0  0  0  0  0  0  0  0  0  0
   -2.2641   -2.6492    0.0000 C   0  0  0  0  0  0  0  0  0  0  0  0
    1.4713    6.0465    0.0000 C   0  0  0  0  0  0  0  0  0  0  0  0
   -0.8491   -4.0587    0.0000 C   0  0  0  0  0  0  0  0  0  0  0  0
    0.1149   -5.2078    0.0000 C   0  0  0  0  0  0  0  0  0  0  0  0
    2.6000   -0.7500    0.0000 C   0  0  0  0  0  0  0  0  0  0  0  0
    1.3000   -1.5000    0.0000 C   0  0  0  0  0  0  0  0  0  0  0  0
   -2.6000    0.7500    0.0000 C   0  0  0  0  0  0  0  0  0  0  0  0
   -0.3359   -2.6492    0.0000 C   0  0  0  0  0  0  0  0  0  0  0  0
   -2.6000   -0.7500    0.0000 C   0  0  0  0  0  0  0  0  0  0  0  0
    1.7509    4.0587    0.0000 C   0  0  0  0  0  0  0  0  0  0  0  0
    2.2641    2.6492    0.0000 C   0  0  0  0  0  0  0  0  0  0  0  0
    4.8962    6.2720    0.0000 C   0  0  0  0  0  0  0  0  0  0  0  0
    5.1052    4.7866    0.0000 C   0  0  0  0  0  0  0  0  0  0  0  0
   -0.3982   -6.6173    0.0000 C   0  0  0  0  0  0  0  0  0  0  0  0
   -1.3000    1.5000    0.0000 C   0  0  0  0  0  0  0  0  0  0  0  0
    2.6000    0.7500    0.0000 C   0  0  0  0  0  0  0  0  0  0  0  0
    0.0000   -0.7500    0.0000 C   0  0  0  0  0  0  0  0  0  0  0  0
    0.0000    0.7500    0.0000 C   0  0  0  0  0  0  0  0  0  0  0  0
   -1.3000   -1.5000    0.0000 C   0  0  0  0  0  0  0  0  0  0  0  0
    2.7149    5.2078    0.0000 C   0  0  0  0  0  0  0  0  0  0  0  0
    1.3000    1.5000    0.0000 C   0  0  0  0  0  0  0  0  0  0  0  0
    0.3359    2.6492    0.0000 O   0  0  0  0  0  0  0  0  0  0  0  0
    3.4190    6.5323    0.0000 O   0  0  0  0  0  0  0  0  0  0  0  0
    3.7570    4.1289    0.0000 O   0  0  0  0  0  0  0  0  0  0  0  0
  8  7  1  0
 10  9  1  0
 12  7  1  0
 13 11  1  0
 15 14  1  0
 17 16  1  0
 18  1  1  0
 18  2  1  0
 18  8  2  0
 19  3  1  1
 19 11  1  0
 20  4  1  6
 20  9  1  0
 21 10  1  6
 22 19  1  6
 22 21  1  0
 23  5  1  1
 23 12  1  0
 23 13  1  0
 23 21  1  0
 24  6  1  0
 24 14  1  0
 25 15  1  0
 25 20  1  0
 22 25  1  0
 25 26  1  1
 27 16  1  0
 27 24  1  0
 28 17  1  0
 28 24  1  0
M  END
>  <NAME>  (3081) 
(1XI,2R,4AS,5S,8AS)-(+)-1-(3,3-ETHYLENEDIOXYMETHYL)-1-HYDROXY-2ALPHA,5BETA,8ABETA-TRIMETHYLDECAHYDRONAPHTHALENE

>  <SYNONYMS>  (3081) 


>  <SPECTRUM TYPE>  (3081) 
MS1

>  <INSTRUMENT TYPE>  (3081) 
EI-B

>  <INSTRUMENT>  (3081) 
JEOL JMS-DX-300

>  <ION MODE>  (3081) 
P

>  <INCHIKEY>  (3081) 
OHSDHPLKGVDPKJ-JHEMSPQDSA-N

>  <FORMULA>  (3081) 
C25H44O3

>  <EXACT MASS>  (3081) 
392.32904526799996

>  <MW>  (3081) 
392

>  <ID>  (3081) 
JP007996

>  <CONTRIBUTOR>  (3081) 
University of Tokyo Team, {Faculty of Engineering, University of Tokyo

>  <COMMENT>  (3081) 
SMILES=C(C1([H])2)(O)(CCC(C)(O3)OCC3)C([H])(C)CCC1([H])C(C)(CCC=C(C)C)CCC2([H])C
InChI=InChI=1S/C25H44O3/c1-18(2)8-7-12-23(5)13-11-19(3)22-21(23)10-9-20(4)25(22,26)15-14-24(6)27-16-17-28-24/h8,19-22,26H,7,9-17H2,1-6H3/t19-,20-,21+,22+,23-,25?/m1/s1
computed SMILES=OC1(CCC2(OCCO2)C)C(C)CCC3C1C(C)CCC3(C)CCC=C(C)C
computed InChI=InChI=1S/C25H44O3/c1-18(2)8-7-12-23(5)13-11-19(3)22-21(23)10-9-20(4)25(22,26)15-14-24(6)27-16-17-28-24/h8,19-22,26H,7,9-17H2,1-6H3/t19-,20-,21+,22+,23-,25+/m1/s1
accession=JP007996
date=2016.01.19 (Created 2008.10.21, modified 2011.05.06)
author=HISAHIRO HAGIWARA, CHEMICAL RESEARCH INSTITUTE OF NON-AQUEOUSSOLUTIONS TOHOKU UNIV.
license=CC BY-NC-SA
exact mass=392.32905
ionization energy=70 eV
ion type=[M]+*
computed spectral entropy=3.765072697411507
computed normalized entropy=0.9158813483002977
SPLASH=splash10-052b-9710000000-48b4394777fdf0c90508
submitter=submitter = University of Tokyo Team (Faculty of Engineering, University of Tokyo)
MoNA Rating=3.75

>  <NUM PEAKS>  (3081) 
61

>  <MASS SPECTRAL PEAKS>  (3081) 
41 41.7
43 7.53
53 6.86
55 32.54
57 5.2
67 17.88
68 7.1
69 43.24
79 8.18
81 27.93
82 12.3
83 10.95
86 27.87
87 11.81
91 5.14
93 10.62
95 23.52
96 11.18
97 5.16
99 99.99
100 15.53
101 6.09
105 6.08
107 11.01
108 5.78
109 32.59
110 5.84
113 9.31
114 6.64
119 5.84
121 7.79
122 9.14
123 12.42
124 5.92
125 11.35
128 7.93
135 10.98
136 13.91
137 8.21
138 22.73
139 6.05
149 8.28
151 8.26
161 9.64
162 26.93
163 12.14
175 10.02
176 8.87
191 10.35
192 7.46
193 12.85
194 5.84
223 14.58
224 6.96
261 5.46
262 6.77
276 20.6
306 33.42
308 1.06
320 4.46
392 0.22

$$$$

     RDKit          2D

 29 30  0  0  1  0  0  0  0  0999 V2000
    6.4062   10.4000    0.0000 C   0  0  0  0  0  0  0  0  0  0  0  0
    0.4758   -7.8665    0.0000 C   0  0  0  0  0  0  0  0  0  0  0  0
   -1.9655   -6.9776    0.0000 C   0  0  0  0  0  0  0  0  0  0  0  0
    1.2100    5.9000    0.0000 C   0  0  0  0  0  0  0  0  0  0  0  0
    3.8089    1.4002    0.0000 C   0  0  0  0  0  0  0  0  0  0  0  0
   -2.3541   -2.7492    0.0000 C   0  0  0  0  0  0  0  0  0  0  0  0
   -0.0900    2.1500    0.0000 C   0  0  0  0  0  0  0  0  0  0  0  0
    5.1071    9.6500    0.0000 C   0  0  0  0  0  0  0  0  0  0  0  0
   -0.9391   -4.1587    0.0000 C   0  0  0  0  0  0  0  0  0  0  0  0
   -2.6900    0.6500    0.0000 C   0  0  0  0  0  0  0  0  0  0  0  0
    0.0249   -5.3078    0.0000 C   0  0  0  0  0  0  0  0  0  0  0  0
    2.5090    3.6500    0.0000 C   0  0  0  0  0  0  0  0  0  0  0  0
    2.5100   -0.8500    0.0000 C   0  0  0  0  0  0  0  0  0  0  0  0
    1.2100    2.9000    0.0000 C   0  0  0  0  0  0  0  0  0  0  0  0
    1.2100   -1.6000    0.0000 C   0  0  0  0  0  0  0  0  0  0  0  0
   -0.4259   -2.7492    0.0000 C   0  0  0  0  0  0  0  0  0  0  0  0
   -2.6900   -0.8500    0.0000 C   0  0  0  0  0  0  0  0  0  0  0  0
   -1.3900    1.4000    0.0000 C   0  0  0  0  0  0  0  0  0  0  0  0
    3.8081    5.9000    0.0000 C   0  0  0  0  0  0  0  0  0  0  0  0
   -0.4882   -6.7173    0.0000 C   0  0  0  0  0  0  0  0  0  0  0  0
    2.5090    5.1500    0.0000 C   0  0  0  0  0  0  0  0  0  0  0  0
    2.5100    0.6500    0.0000 C   0  0  0  0  0  0  0  0  0  0  0  0
    1.2100    1.4000    0.0000 C   0  0  0  0  0  0  0  0  0  0  0  0
   -0.0900   -0.8500    0.0000 C   0  0  0  0  0  0  0  0  0  0  0  0
    3.8081    7.4000    0.0000 C   0  0  0  0  0  0  0  0  0  0  0  0
   -1.3900   -1.6000    0.0000 C   0  0  0  0  0  0  0  0  0  0  0  0
   -0.0900    0.6500    0.0000 C   0  0  0  0  0  0  0  0  0  0  0  0
    2.5090    8.1500    0.0000 O   0  0  0  0  0  0  0  0  0  0  0  0
    5.1071    8.1500    0.0000 O   0  0  0  0  0  0  0  0  0  0  0  0
  8  1  1  0
 11  9  1  0
 14 12  1  0
 15 13  1  0
 16  9  1  0
 17 10  1  0
 18 10  1  0
 20  2  1  0
 20  3  1  0
 20 11  2  0
 21  4  1  0
 21 12  1  0
 19 21  2  0
 22  5  1  0
 22 13  1  0
 23 14  1  0
 23 22  2  0
 24 15  1  1
 25 19  1  0
 26  6  1  1
 26 16  1  0
 26 17  1  0
 26 24  1  0
 27  7  1  1
 27 18  1  0
 27 23  1  0
 27 24  1  0
 28 25  2  0
 29  8  1  0
 29 25  1  0
M  END
>  <NAME>  (3082) 
ETHYL (4'AS,5'S,8'AS)-E-(+)-3-METHYL-5-((5'ALPHA-(4'-METHYL-3'-PENTENYL)-2',5'BETA,8'ABETA-TRIMETHYL-3',4',4'A,5',6',7',8',8'A-OCTAHYDRONAPHTHALENYL)-2-PENTENOATE

>  <SYNONYMS>  (3082) 


>  <SPECTRUM TYPE>  (3082) 
MS1

>  <INSTRUMENT TYPE>  (3082) 
EI-B

>  <INSTRUMENT>  (3082) 
JEOL JMS-DX-300

>  <ION MODE>  (3082) 
P

>  <INCHIKEY>  (3082) 
OZGYOMIOZULOOP-IONFVZKMSA-N

>  <FORMULA>  (3082) 
C27H44O2

>  <EXACT MASS>  (3082) 
400.334130648

>  <MW>  (3082) 
400

>  <ID>  (3082) 
JP007994

>  <CONTRIBUTOR>  (3082) 
University of Tokyo Team, {Faculty of Engineering, University of Tokyo

>  <COMMENT>  (3082) 
SMILES=CC(CCC=C(C)C)(C([H])12)CCCC(C)1C(CCC(C)=CC(=O)OCC)=C(CC2)C
InChI=InChI=1S/C27H44O2/c1-8-29-25(28)19-21(4)12-14-23-22(5)13-15-24-26(6,16-9-11-20(2)3)17-10-18-27(23,24)7/h11,19,24H,8-10,12-18H2,1-7H3/b21-19+/t24-,26+,27+/m0/s1
computed SMILES=O=C(OCC)C=C(C)CCC1=C(C)CCC2C1(C)CCCC2(C)CCC=C(C)C
accession=JP007994
date=2016.01.19 (Created 2008.10.21, modified 2011.05.06)
author=HISAHIRO HAGIWARA, CHEMICAL RESEARCH INSTITUTE OF NON-AQUEOUSSOLUTIONS TOHOKU UNIV.
license=CC BY-NC-SA
exact mass=400.33413
ionization energy=70 eV
ion type=[M]+*
computed spectral entropy=3.6704974086756885
computed normalized entropy=0.9039647642245187
SPLASH=splash10-069r-5910000000-9ba557619cbebdeb71aa
submitter=submitter = University of Tokyo Team (Faculty of Engineering, University of Tokyo)
MoNA Rating=3.75

>  <NUM PEAKS>  (3082) 
58

>  <MASS SPECTRAL PEAKS>  (3082) 
41 13.14
53 5.98
55 31.96
57 8.21
67 17.33
69 95.14
70 5.65
71 7.23
77 7.57
79 17.8
81 31.12
82 1.01
83 21.95
91 19.1
93 27.48
95 42.21
97 11.57
100 9.82
105 22.65
107 31.77
108 7.6
109 33.88
111 5.32
113 5.76
119 50.6
120 7.91
121 30.1
122 11.44
123 15.84
128 99.99
129 9.69
131 6.21
133 57.39
134 10.08
135 24.89
137 0.93
145 8.2
147 24.41
149 18.79
159 8.68
161 17.68
163 15.67
173 11.92
175 16.57
176 6.75
177 11.85
187 5.31
189 16.48
191 16.33
203 5.69
217 6.77
257 6.09
259 6.35
273 63.73
274 11.1
317 5.89
318 6.6
400 8

$$$$

     RDKit          2D

 27 28  0  0  1  0  0  0  0  0999 V2000
   -9.7802    9.8974    0.0000 C   0  0  0  0  0  0  0  0  0  0  0  0
  -10.2311    7.3388    0.0000 C   0  0  0  0  0  0  0  0  0  0  0  0
    2.5090    3.6500    0.0000 C   0  0  0  0  0  0  0  0  0  0  0  0
   -0.0884    8.1506    0.0000 C   0  0  0  0  0  0  0  0  0  0  0  0
   -6.7634    4.8880    0.0000 C   0  0  0  0  0  0  0  0  0  0  0  0
   -1.3886    4.3992    0.0000 C   0  0  0  0  0  0  0  0  0  0  0  0
   -7.2766    6.8181    0.0000 C   0  0  0  0  0  0  0  0  0  0  0  0
   -3.9876    2.8975    0.0000 C   0  0  0  0  0  0  0  0  0  0  0  0
   -7.7898    8.2276    0.0000 C   0  0  0  0  0  0  0  0  0  0  0  0
    1.2100    5.9000    0.0000 C   0  0  0  0  0  0  0  0  0  0  0  0
   -2.6866    8.1508    0.0000 C   0  0  0  0  0  0  0  0  0  0  0  0
   -0.0890    5.1500    0.0000 C   0  0  0  0  0  0  0  0  0  0  0  0
   -3.9862    7.4000    0.0000 C   0  0  0  0  0  0  0  0  0  0  0  0
   -5.7993    6.5578    0.0000 C   0  0  0  0  0  0  0  0  0  0  0  0
   -5.2866    3.6475    0.0000 C   0  0  0  0  0  0  0  0  0  0  0  0
   -2.6881    3.6483    0.0000 C   0  0  0  0  0  0  0  0  0  0  0  0
    3.8081    5.9000    0.0000 C   0  0  0  0  0  0  0  0  0  0  0  0
   -9.2670    8.4879    0.0000 C   0  0  0  0  0  0  0  0  0  0  0  0
    2.5090    5.1500    0.0000 C   0  0  0  0  0  0  0  0  0  0  0  0
   -1.3876    7.4008    0.0000 C   0  0  0  0  0  0  0  0  0  0  0  0
   -1.3881    5.9000    0.0000 C   0  0  0  0  0  0  0  0  0  0  0  0
   -3.9866    5.8992    0.0000 C   0  0  0  0  0  0  0  0  0  0  0  0
    3.8081    7.4000    0.0000 C   0  0  0  0  0  0  0  0  0  0  0  0
   -5.2862    5.1483    0.0000 C   0  0  0  0  0  0  0  0  0  0  0  0
   -2.6876    5.1492    0.0000 C   0  0  0  0  0  0  0  0  0  0  0  0
    2.5090    8.1500    0.0000 O   0  0  0  0  0  0  0  0  0  0  0  0
    5.1071    8.1500    0.0000 O   0  0  0  0  0  0  0  0  0  0  0  0
  9  7  1  0
 12 10  1  0
 13 11  1  0
 14  7  1  0
 15  8  1  0
 16  8  1  0
 18  1  1  0
 18  2  1  0
 18  9  2  0
 19  3  1  0
 19 10  1  0
 17 19  2  0
 20  4  1  0
 20 11  1  0
 21 12  1  0
 21 20  2  0
 22 13  1  6
 23 17  1  0
 24  5  1  6
 24 14  1  0
 24 15  1  0
 24 22  1  0
 25  6  1  6
 25 16  1  0
 25 21  1  0
 25 22  1  0
 26 23  2  0
 27 23  1  0
M  END
>  <NAME>  (3083) 
(4'AS,5'S,8'AS)-E-(+)-3-METHYL-5-((5'ALPHA-(4'-METHYL-3'-PENTENYL)-2',5'BETA,8'ABETA,TRIMETHYL-3',4',4'A,5',6',7',8',8'A-OCTAHYDRONAPHTHALENYL))-2-PENTENOIC ACID

>  <SYNONYMS>  (3083) 
DYSIDEAPALAUNIC ACID

>  <SPECTRUM TYPE>  (3083) 
MS1

>  <INSTRUMENT TYPE>  (3083) 
EI-B

>  <INSTRUMENT>  (3083) 
JEOL JMS-DX-300

>  <ION MODE>  (3083) 
P

>  <INCHIKEY>  (3083) 
VMXBEUNFNFIWLY-NHLIJQSASA-N

>  <FORMULA>  (3083) 
C25H40O2

>  <EXACT MASS>  (3083) 
372.30283052

>  <MW>  (3083) 
372

>  <ID>  (3083) 
JP007993

>  <CONTRIBUTOR>  (3083) 
University of Tokyo Team, {Faculty of Engineering, University of Tokyo

>  <COMMENT>  (3083) 
SMILES=CC(C)=CCCC(C)(C2)C([H])(C1)C(C)(CC2)C(CCC(C)=C([H])C(O)=O)=C(C)C1
InChI=InChI=1S/C25H40O2/c1-18(2)9-7-14-24(5)15-8-16-25(6)21(20(4)11-13-22(24)25)12-10-19(3)17-23(26)27/h9,17,22H,7-8,10-16H2,1-6H3,(H,26,27)/b19-17-/t22-,24+,25+/m0/s1
computed SMILES=O=C(O)C=C(C)CCC1=C(C)CCC2C1(C)CCCC2(C)CCC=C(C)C
accession=JP007993
date=2016.01.19 (Created 2008.10.21, modified 2011.05.06)
author=HISAHIRO HAGIWARA, CHEMICAL RESEARCH INSTITUTE OF NON-AQUEOUSSOLUTIONS TOHOKU UNIV.
license=CC BY-NC-SA
exact mass=372.30283
ionization energy=70 eV
ion type=[M]+*
computed spectral entropy=3.5738763373078277
computed normalized entropy=0.9135621984709391
SPLASH=splash10-0159-5910000000-1c9211ed70806d755a52
submitter=submitter = University of Tokyo Team (Faculty of Engineering, University of Tokyo)
MoNA Rating=3.75

>  <NUM PEAKS>  (3083) 
50

>  <MASS SPECTRAL PEAKS>  (3083) 
41 38.55
55 26
67 12.23
69 99.99
77 5.11
79 11.85
81 31.6
83 1.91
91 12.4
93 21.38
95 37.6
97 11.25
100 7.65
105 16.4
107 26.92
108 6.72
109 39.75
111 5.98
119 70.31
120 10.08
121 27.65
122 9.91
123 15.82
133 56.14
134 9.94
135 25.23
137 11.24
145 6.53
147 22.11
148 6
149 14.6
150 6.12
159 5.79
161 20.82
162 5.02
163 15.38
173 10.93
175 14.58
177 8.27
189 20.88
191 11.53
217 5.48
219 8.25
257 11.75
259 14.76
260 6.07
273 36.68
274 8.02
289 6.7
372 8.05

$$$$

     RDKit          2D

 14 14  0  0  0  0  0  0  0  0999 V2000
   -3.8971    0.7500    0.0000 C   0  0  0  0  0  0  0  0  0  0  0  0
   -1.2993   -3.7508    0.0000 C   0  0  0  0  0  0  0  0  0  0  0  0
    1.2996    0.7506    0.0000 C   0  0  0  0  0  0  0  0  0  0  0  0
    5.1962   -1.5000    0.0000 C   0  0  0  0  0  0  0  0  0  0  0  0
   -2.5986   -1.5008    0.0000 C   0  0  0  0  0  0  0  0  0  0  0  0
   -1.2986    0.7508    0.0000 C   0  0  0  0  0  0  0  0  0  0  0  0
    2.5981   -1.5000    0.0000 C   0  0  0  0  0  0  0  0  0  0  0  0
   -2.5981   -0.0000    0.0000 C   0  0  0  0  0  0  0  0  0  0  0  0
   -1.2995   -2.2508    0.0000 C   0  0  0  0  0  0  0  0  0  0  0  0
    0.0005    0.0008    0.0000 C   0  0  0  0  0  0  0  0  0  0  0  0
    3.8971   -2.2500    0.0000 C   0  0  0  0  0  0  0  0  0  0  0  0
   -0.0000   -1.5000    0.0000 C   0  0  0  0  0  0  0  0  0  0  0  0
    3.8971   -3.7500    0.0000 N   0  0  0  0  0  0  0  0  0  0  0  0
    1.2990   -2.2500    0.0000 O   0  0  0  0  0  0  0  0  0  0  0  0
  8  1  1  0
  8  5  2  0
  8  6  1  0
  9  2  1  0
  9  5  1  0
 10  3  1  0
 10  6  2  0
 11  4  1  0
 11  7  1  0
 12  9  2  0
 12 10  1  0
 13 11  1  0
 14  7  1  0
 14 12  1  0
M  END
>  <NAME>  (3084) 
1-(2,4,6-TRIMETHYLPHENOXY)-2-AMINOPROPANE

>  <SYNONYMS>  (3084) 


>  <SPECTRUM TYPE>  (3084) 
MS1

>  <INSTRUMENT TYPE>  (3084) 
EI-B

>  <INSTRUMENT>  (3084) 
JEOL JMS-D-300

>  <ION MODE>  (3084) 
P

>  <INCHIKEY>  (3084) 
QDZOEZPRNQIPHY-UHFFFAOYSA-N

>  <FORMULA>  (3084) 
C12H19NO

>  <EXACT MASS>  (3084) 
193.146664228

>  <MW>  (3084) 
193

>  <ID>  (3084) 
JP007991

>  <CONTRIBUTOR>  (3084) 
University of Tokyo Team, {Faculty of Engineering, University of Tokyo

>  <COMMENT>  (3084) 
SMILES=CC(N)COc(c(C)1)c(C)cc(C)c1
InChI=InChI=1S/C12H19NO/c1-8-5-9(2)12(10(3)6-8)14-7-11(4)13/h5-6,11H,7,13H2,1-4H3
computed SMILES=O(C=1C(=CC(=CC1C)C)C)CC(N)C
accession=JP007991
date=2016.01.19 (Created 2008.10.21, modified 2011.05.06)
author=HAMAMATSU UNIV. SCHOOL OF MEDICINE
license=CC BY-NC-SA
exact mass=193.14666
ionization energy=70 eV
ion type=[M]+*
computed spectral entropy=1.6527051279810117
computed normalized entropy=0.5612971230427354
SPLASH=splash10-0a4i-9200000000-ab79efed56bac03bef2d
submitter=submitter = University of Tokyo Team (Faculty of Engineering, University of Tokyo)
MoNA Rating=3.75

>  <NUM PEAKS>  (3084) 
19

>  <MASS SPECTRAL PEAKS>  (3084) 
52 1.38
54 1.12
56 1.09
57 2.15
58 99.99
59 4.07
65 2.89
77 3.98
78 1.03
79 2.46
91 8.49
92 1.19
103 1.16
105 1.71
119 2.33
121 7.35
135 4.53
136 11.32
193 2.96

$$$$

     RDKit          2D

 13 13  0  0  0  0  0  0  0  0999 V2000
   -1.9890    0.2624    0.0000 C   0  0  0  0  0  0  0  0  0  0  0  0
    0.5749   -4.2742    0.0000 C   0  0  0  0  0  0  0  0  0  0  0  0
    4.4773   -2.0197    0.0000 C   0  0  0  0  0  0  0  0  0  0  0  0
   -3.3135   -3.4264    0.0000 C   0  0  0  0  0  0  0  0  0  0  0  0
   -3.3011   -1.9588    0.0000 C   0  0  0  0  0  0  0  0  0  0  0  0
   -2.0545   -4.2180    0.0000 C   0  0  0  0  0  0  0  0  0  0  0  0
    1.8793   -2.0106    0.0000 C   0  0  0  0  0  0  0  0  0  0  0  0
   -2.0084   -1.2375    0.0000 C   0  0  0  0  0  0  0  0  0  0  0  0
   -0.7125   -3.5044    0.0000 C   0  0  0  0  0  0  0  0  0  0  0  0
    3.1809   -1.2651    0.0000 C   0  0  0  0  0  0  0  0  0  0  0  0
   -0.7188   -2.0014    0.0000 C   0  0  0  0  0  0  0  0  0  0  0  0
    3.1862    0.2349    0.0000 N   0  0  0  0  0  0  0  0  0  0  0  0
    0.5829   -1.2560    0.0000 O   0  0  0  0  0  0  0  0  0  0  0  0
  5  4  2  0
  6  4  1  0
  8  1  1  0
  8  5  1  0
  9  2  1  0
  9  6  2  0
 10  3  1  0
 10  7  1  0
 11  8  2  0
 11  9  1  0
 12 10  1  0
 13  7  1  0
 13 11  1  0
M  END
>  <NAME>  (3085) 
1-(2,6-DIMETHYLPHENOXY)-2-AMINOPROPANE

>  <SYNONYMS>  (3085) 
MEXILETINE

>  <SPECTRUM TYPE>  (3085) 
MS1

>  <INSTRUMENT TYPE>  (3085) 
EI-B

>  <INSTRUMENT>  (3085) 
JEOL JMS-D-300

>  <ION MODE>  (3085) 
P

>  <INCHIKEY>  (3085) 
VLPIATFUUWWMKC-UHFFFAOYSA-N

>  <FORMULA>  (3085) 
C11H17NO

>  <EXACT MASS>  (3085) 
179.131014164

>  <MW>  (3085) 
179

>  <ID>  (3085) 
JP007989

>  <CONTRIBUTOR>  (3085) 
University of Tokyo Team, {Faculty of Engineering, University of Tokyo

>  <COMMENT>  (3085) 
SMILES=CC(N)COc(c(C)1)c(C)ccc1
InChI=InChI=1S/C11H17NO/c1-8-5-4-6-9(2)11(8)13-7-10(3)12/h4-6,10H,7,12H2,1-3H3
computed SMILES=O(C=1C(=CC=CC1C)C)CC(N)C
accession=JP007989
date=2016.01.19 (Created 2008.10.21, modified 2011.05.06)
author=HAMAMATSU UNIV. SCHOOL OF MEDICINE
license=CC BY-NC-SA
exact mass=179.13101
ionization energy=70 eV
ion type=[M]+*
computed spectral entropy=1.820634322986418
computed normalized entropy=0.5980032534586338
SPLASH=splash10-0a4i-9100000000-6d40293ed4e486f9cf9e
submitter=submitter = University of Tokyo Team (Faculty of Engineering, University of Tokyo)
MoNA Rating=3.75

>  <NUM PEAKS>  (3085) 
21

>  <MASS SPECTRAL PEAKS>  (3085) 
52 3.29
53 1.28
54 2.67
56 2.27
57 4.65
58 99.99
59 3.76
63 1.26
65 3.24
77 10.2
78 2.7
79 3.82
91 6.15
92 1.42
93 1.15
103 2.25
105 3.83
107 4.12
121 3.92
122 3.89
179 1.7

$$$$

     RDKit          2D

 14 15  0  0  0  0  0  0  0  0999 V2000
    2.9518   -0.2853    0.0000 C   0  0  0  0  0  0  0  0  0  0  0  0
   -5.1979    0.4979    0.0000 C   0  0  0  0  0  0  0  0  0  0  0  0
   -4.3156   -0.7162    0.0000 C   0  0  0  0  0  0  0  0  0  0  0  0
   -4.5885    1.8694    0.0000 C   0  0  0  0  0  0  0  0  0  0  0  0
   -2.8239   -0.5588    0.0000 C   0  0  0  0  0  0  0  0  0  0  0  0
   -3.0968    2.0269    0.0000 C   0  0  0  0  0  0  0  0  0  0  0  0
    0.0273    2.2692    0.0000 C   0  0  0  0  0  0  0  0  0  0  0  0
   -2.2145    0.8128    0.0000 C   0  0  0  0  0  0  0  0  0  0  0  0
   -0.7227    0.9702    0.0000 C   0  0  0  0  0  0  0  0  0  0  0  0
    1.4870    1.9576    0.0000 C   0  0  0  0  0  0  0  0  0  0  0  0
    0.2770   -0.1382    0.0000 C   0  0  0  0  0  0  0  0  0  0  0  0
    1.6528    0.4647    0.0000 N   0  0  0  0  0  0  0  0  0  0  0  0
    2.5992    2.9641    0.0000 O   0  0  0  0  0  0  0  0  0  0  0  0
   -0.0385   -1.6046    0.0000 O   0  0  0  0  0  0  0  0  0  0  0  0
  3  2  2  0
  4  2  1  0
  5  3  1  0
  6  4  2  0
  8  5  2  0
  8  6  1  0
  9  7  1  0
  9  8  1  0
 10  7  1  0
 11  9  1  0
 12  1  1  0
 12 10  1  0
 12 11  1  0
 13 10  2  0
 14 11  2  0
M  END
>  <NAME>  (3086) 
PHENSUXIMIDE

>  <SYNONYMS>  (3086) 
1-METHYL-3-PHENYL-2,5-PYRROLIDINEDIONE

>  <SPECTRUM TYPE>  (3086) 
MS1

>  <INSTRUMENT TYPE>  (3086) 
EI-B

>  <INSTRUMENT>  (3086) 
JEOL JMS-D-300

>  <ION MODE>  (3086) 
P

>  <INCHIKEY>  (3086) 
WLWFNJKHKGIJNW-UHFFFAOYSA-N

>  <FORMULA>  (3086) 
C11H11NO2

>  <EXACT MASS>  (3086) 
189.078978592

>  <MW>  (3086) 
189

>  <ID>  (3086) 
JP007976

>  <CONTRIBUTOR>  (3086) 
University of Tokyo Team, {Faculty of Engineering, University of Tokyo

>  <COMMENT>  (3086) 
SMILES=O=C(C1)N(C)C(=O)C1c(c2)cccc2
InChI=InChI=1S/C11H11NO2/c1-12-10(13)7-9(11(12)14)8-5-3-2-4-6-8/h2-6,9H,7H2,1H3
computed SMILES=O=C1N(C(=O)C(C=2C=CC=CC2)C1)C
accession=JP007976
date=2016.01.19 (Created 2008.10.21, modified 2011.05.06)
author=HAMAMATSU UNIV. SCHOOL OF MEDICINE
license=CC BY-NC-SA
exact mass=189.07898
ionization energy=70 eV
ion type=[M]+*
computed spectral entropy=2.013617889070736
computed normalized entropy=0.6514365038509925
SPLASH=splash10-0udi-3900000000-ebb2c45214a57c99d4f6
submitter=submitter = University of Tokyo Team (Faculty of Engineering, University of Tokyo)
MoNA Rating=3.75

>  <NUM PEAKS>  (3086) 
22

>  <MASS SPECTRAL PEAKS>  (3086) 
51 11.98
52 4.04
55 1.79
56 1.33
57 1.78
63 2.49
65 1.1
69 1.02
71 1.27
76 1.77
77 9.52
78 11.56
79 1.16
89 1.21
91 1.11
102 4.76
103 11.39
104 99.99
105 9.54
187 1.32
189 27.18
190 3.45

$$$$

     RDKit          2D

 15 16  0  0  0  0  0  0  0  0999 V2000
    1.0899   -0.5685    0.0000 C   0  0  0  0  0  0  0  0  0  0  0  0
   -3.5877   -0.7086    0.0000 C   0  0  0  0  0  0  0  0  0  0  0  0
    3.7282    3.1908    0.0000 C   0  0  0  0  0  0  0  0  0  0  0  0
    2.3575    3.8021    0.0000 C   0  0  0  0  0  0  0  0  0  0  0  0
    3.8851    1.6982    0.0000 C   0  0  0  0  0  0  0  0  0  0  0  0
    1.1437    2.9208    0.0000 C   0  0  0  0  0  0  0  0  0  0  0  0
    2.6713    0.8169    0.0000 C   0  0  0  0  0  0  0  0  0  0  0  0
   -0.6632    1.8459    0.0000 C   0  0  0  0  0  0  0  0  0  0  0  0
    1.3006    1.4282    0.0000 C   0  0  0  0  0  0  0  0  0  0  0  0
   -2.1229    1.5343    0.0000 C   0  0  0  0  0  0  0  0  0  0  0  0
   -0.9129   -0.5615    0.0000 C   0  0  0  0  0  0  0  0  0  0  0  0
    0.0868    0.5469    0.0000 C   0  0  0  0  0  0  0  0  0  0  0  0
   -2.2887    0.0414    0.0000 N   0  0  0  0  0  0  0  0  0  0  0  0
   -3.2351    2.5407    0.0000 O   0  0  0  0  0  0  0  0  0  0  0  0
   -0.5974   -2.0280    0.0000 O   0  0  0  0  0  0  0  0  0  0  0  0
  4  3  2  0
  5  3  1  0
  6  4  1  0
  7  5  2  0
  9  6  2  0
  9  7  1  0
 10  8  1  0
 12  1  1  0
 12  8  1  0
 12  9  1  0
 12 11  1  0
 13  2  1  0
 13 10  1  0
 13 11  1  0
 14 10  2  0
 15 11  2  0
M  END
>  <NAME>  (3087) 
METHSUXIMIDE

>  <SYNONYMS>  (3087) 
1,3-DIMETHYL-3-PHENYL-2,5-PYRROLIDINEDIONE

>  <SPECTRUM TYPE>  (3087) 
MS1

>  <INSTRUMENT TYPE>  (3087) 
EI-B

>  <INSTRUMENT>  (3087) 
JEOL JMS-D-300

>  <ION MODE>  (3087) 
P

>  <INCHIKEY>  (3087) 
AJXPJJZHWIXJCJ-UHFFFAOYSA-N

>  <FORMULA>  (3087) 
C12H13NO2

>  <EXACT MASS>  (3087) 
203.094628656

>  <MW>  (3087) 
203

>  <ID>  (3087) 
JP007975

>  <CONTRIBUTOR>  (3087) 
University of Tokyo Team, {Faculty of Engineering, University of Tokyo

>  <COMMENT>  (3087) 
SMILES=O=C(C1)N(C)C(=O)C(C)1c(c2)cccc2
InChI=InChI=1S/C12H13NO2/c1-12(9-6-4-3-5-7-9)8-10(14)13(2)11(12)15/h3-7H,8H2,1-2H3
computed SMILES=O=C1N(C(=O)C(C=2C=CC=CC2)(C)C1)C
accession=JP007975
date=2016.01.19 (Created 2008.10.21, modified 2011.05.06)
author=HAMAMATSU UNIV. SCHOOL OF MEDICINE
license=CC BY-NC-SA
exact mass=203.09463
ionization energy=70 eV
ion type=[M]+*
computed spectral entropy=2.4366971255348906
computed normalized entropy=0.723636190154602
SPLASH=splash10-014i-3910000000-9cae394b5b94a483c401
submitter=submitter = University of Tokyo Team (Faculty of Engineering, University of Tokyo)
MoNA Rating=3.75

>  <NUM PEAKS>  (3087) 
29

>  <MASS SPECTRAL PEAKS>  (3087) 
51 3.24
52 8.5
53 1.48
55 1.66
57 1.29
58 4.22
63 2.82
65 2.57
74 1.04
75 1.72
76 1.95
77 14.27
78 12.76
79 1.51
89 1.58
90 1.29
91 8.34
92 1.03
102 3.36
103 17.88
104 1.83
115 7.97
116 2.56
117 35.14
118 99.99
119 11.06
149 1.26
203 27.12
204 4.27

$$$$

     RDKit          2D

 11 11  0  0  0  0  0  0  0  0999 V2000
    2.6377   -1.2149    0.0000 C   0  0  0  0  0  0  0  0  0  0  0  0
    0.8082   -2.2431    0.0000 C   0  0  0  0  0  0  0  0  0  0  0  0
   -2.7887    1.6863    0.0000 C   0  0  0  0  0  0  0  0  0  0  0  0
    1.4230   -0.3348    0.0000 C   0  0  0  0  0  0  0  0  0  0  0  0
   -0.4065    0.4732    0.0000 C   0  0  0  0  0  0  0  0  0  0  0  0
   -2.3665   -0.9468    0.0000 C   0  0  0  0  0  0  0  0  0  0  0  0
    0.0535   -0.9468    0.0000 C   0  0  0  0  0  0  0  0  0  0  0  0
   -1.9065    0.4732    0.0000 N   0  0  0  0  0  0  0  0  0  0  0  0
    0.4757    1.6863    0.0000 O   0  0  0  0  0  0  0  0  0  0  0  0
   -3.7942   -1.4068    0.0000 O   0  0  0  0  0  0  0  0  0  0  0  0
   -1.1565   -1.8368    0.0000 O   0  0  0  0  0  0  0  0  0  0  0  0
  4  1  1  0
  7  2  1  0
  7  4  1  0
  7  5  1  0
  8  3  1  0
  8  5  1  0
  8  6  1  0
  9  5  2  0
 10  6  2  0
 11  6  1  0
 11  7  1  0
M  END
>  <NAME>  (3088) 
PARAMETHADIONE

>  <SYNONYMS>  (3088) 
5-METHYL-3,5-DIMETHYL-2,4-OXAZOLIDINEDIONE

>  <SPECTRUM TYPE>  (3088) 
MS1

>  <INSTRUMENT TYPE>  (3088) 
EI-B

>  <INSTRUMENT>  (3088) 
JEOL JMS-D-300

>  <ION MODE>  (3088) 
P

>  <INCHIKEY>  (3088) 
VQASKUSHBVDKGU-UHFFFAOYSA-N

>  <FORMULA>  (3088) 
C7H11NO3

>  <EXACT MASS>  (3088) 
157.073893212

>  <MW>  (3088) 
157

>  <ID>  (3088) 
JP007974

>  <CONTRIBUTOR>  (3088) 
University of Tokyo Team, {Faculty of Engineering, University of Tokyo

>  <COMMENT>  (3088) 
SMILES=CCC(C)(O1)C(=O)N(C)C(=O)1
InChI=InChI=1S/C7H11NO3/c1-4-7(2)5(9)8(3)6(10)11-7/h4H2,1-3H3
computed SMILES=O=C1OC(C(=O)N1C)(C)CC
accession=JP007974
date=2016.01.19 (Created 2008.10.21, modified 2011.05.06)
author=HAMAMATSU UNIV. SCHOOL OF MEDICINE
license=CC BY-NC-SA
exact mass=157.07389
ionization energy=70 eV
ion type=[M]+*
computed spectral entropy=2.0131378666484125
computed normalized entropy=0.67200192901755
SPLASH=splash10-004i-6900000000-cb5c4b22a5f6eea03ccb
submitter=submitter = University of Tokyo Team (Faculty of Engineering, University of Tokyo)
MoNA Rating=3.75

>  <NUM PEAKS>  (3088) 
20

>  <MASS SPECTRAL PEAKS>  (3088) 
51 1.35
53 1.89
54 1.15
55 9.19
56 8.54
57 35.18
58 11.5
69 1.71
70 1.35
71 1.49
72 11.76
73 5.96
83 2.24
87 1.97
100 4.61
128 10.34
129 99.99
130 5.98
142 1.3
157 2.41

$$$$

     RDKit          2D

 19 21  0  0  0  0  0  0  0  0999 V2000
   -0.2809    5.5055    0.0000 C   0  0  0  0  0  0  0  0  0  0  0  0
   -5.1522    1.9630    0.0000 C   0  0  0  0  0  0  0  0  0  0  0  0
   -1.6520    4.8951    0.0000 C   0  0  0  0  0  0  0  0  0  0  0  0
    0.9338    4.6241    0.0000 C   0  0  0  0  0  0  0  0  0  0  0  0
   -4.6880    0.5358    0.0000 C   0  0  0  0  0  0  0  0  0  0  0  0
   -4.1490    3.0793    0.0000 C   0  0  0  0  0  0  0  0  0  0  0  0
   -1.8084    3.4032    0.0000 C   0  0  0  0  0  0  0  0  0  0  0  0
    0.7774    3.1322    0.0000 C   0  0  0  0  0  0  0  0  0  0  0  0
   -3.2206    0.2248    0.0000 C   0  0  0  0  0  0  0  0  0  0  0  0
   -2.6816    2.7683    0.0000 C   0  0  0  0  0  0  0  0  0  0  0  0
   -0.5936    2.5218    0.0000 C   0  0  0  0  0  0  0  0  0  0  0  0
   -2.2174    1.3410    0.0000 C   0  0  0  0  0  0  0  0  0  0  0  0
   -1.2100   -0.3900    0.0000 C   0  0  0  0  0  0  0  0  0  0  0  0
    1.2100   -0.3900    0.0000 C   0  0  0  0  0  0  0  0  0  0  0  0
   -0.7500    1.0300    0.0000 C   0  0  0  0  0  0  0  0  0  0  0  0
    0.0000   -1.2800    0.0000 N   0  0  0  0  0  0  0  0  0  0  0  0
    0.7500    1.0300    0.0000 N   0  0  0  0  0  0  0  0  0  0  0  0
   -2.6377   -0.8500    0.0000 O   0  0  0  0  0  0  0  0  0  0  0  0
    2.6377   -0.8500    0.0000 O   0  0  0  0  0  0  0  0  0  0  0  0
  3  1  2  0
  4  1  1  0
  5  2  2  0
  6  2  1  0
  7  3  1  0
  8  4  2  0
  9  5  1  0
 10  6  2  0
 11  7  2  0
 11  8  1  0
 12  9  2  0
 12 10  1  0
 15 11  1  0
 15 12  1  0
 15 13  1  0
 16 13  2  0
 16 14  1  0
 17 14  2  0
 17 15  1  0
 18 13  1  0
 19 14  1  0
M  END
>  <NAME>  (3089) 
PHENYTOIN

>  <SYNONYMS>  (3089) 
DIPHENYLHYDANTOIN

>  <SPECTRUM TYPE>  (3089) 
MS1

>  <INSTRUMENT TYPE>  (3089) 
EI-B

>  <INSTRUMENT>  (3089) 
JEOL JMS-D-300

>  <ION MODE>  (3089) 
P

>  <INCHIKEY>  (3089) 
CXOFVDLJLONNDW-UHFFFAOYSA-N

>  <FORMULA>  (3089) 
C15H12N2O2

>  <EXACT MASS>  (3089) 
252.089877624

>  <MW>  (3089) 
252

>  <ID>  (3089) 
JP007973

>  <CONTRIBUTOR>  (3089) 
University of Tokyo Team, {Faculty of Engineering, University of Tokyo

>  <COMMENT>  (3089) 
SMILES=O=C(N3)NC(C(=O)3)(c(c2)cccc2)c(c1)cccc1
InChI=InChI=1S/C15H12N2O2/c18-13-15(17-14(19)16-13,11-7-3-1-4-8-11)12-9-5-2-6-10-12/h1-10H,(H2,16,17,18,19)
computed SMILES=OC=1N=C(O)C(N1)(C=2C=CC=CC2)C=3C=CC=CC3
accession=JP007973
date=2016.01.19 (Created 2008.10.21, modified 2011.05.06)
author=HAMAMATSU UNIV. SCHOOL OF MEDICINE
license=CC BY-NC-SA
exact mass=252.08988
ionization energy=70 eV
ion type=[M]+*
computed spectral entropy=3.178846046891764
computed normalized entropy=0.7969061820715264
SPLASH=splash10-0zgi-5960000000-e1dcb47a1c082f04f456
submitter=submitter = University of Tokyo Team (Faculty of Engineering, University of Tokyo)
MoNA Rating=3.75

>  <NUM PEAKS>  (3089) 
54

>  <MASS SPECTRAL PEAKS>  (3089) 
51 9.86
52 23.82
53 5.18
54 1.52
60 1.57
62 1.02
63 2.57
65 2.24
74 2.35
75 2.32
76 13.32
77 62.26
78 17.81
82 16.7
83 8.67
87 1.35
89 1.44
90 10.5
91 1.55
93 3.18
94 1.99
102 2.1
103 6.62
104 66.58
105 11.58
115 1.55
127 1.38
130 2.38
132 1.33
139 2.63
145 1.13
147 10.72
151 1.8
152 4.1
153 1.82
163 2.68
164 4.18
165 27.23
166 5.15
174 1.13
175 5.65
179 2.1
180 99.99
181 26.1
182 5.18
206 1.24
208 21.86
209 54.53
210 9.06
223 49.79
224 8.81
225 1.24
252 52.17
253 10.64

$$$$

     RDKit          2D

 15 16  0  0  0  0  0  0  0  0999 V2000
    3.1239    2.0857    0.0000 C   0  0  0  0  0  0  0  0  0  0  0  0
    1.6322    2.2431    0.0000 C   0  0  0  0  0  0  0  0  0  0  0  0
   -5.4932   -1.7699    0.0000 C   0  0  0  0  0  0  0  0  0  0  0  0
   -4.3807   -2.7773    0.0000 C   0  0  0  0  0  0  0  0  0  0  0  0
   -5.1780   -0.3026    0.0000 C   0  0  0  0  0  0  0  0  0  0  0  0
   -2.9530   -2.3173    0.0000 C   0  0  0  0  0  0  0  0  0  0  0  0
   -3.7502    0.1574    0.0000 C   0  0  0  0  0  0  0  0  0  0  0  0
   -2.6377   -0.8500    0.0000 C   0  0  0  0  0  0  0  0  0  0  0  0
   -1.2100   -0.3900    0.0000 C   0  0  0  0  0  0  0  0  0  0  0  0
   -0.7500    1.0300    0.0000 C   0  0  0  0  0  0  0  0  0  0  0  0
    1.2100   -0.3900    0.0000 C   0  0  0  0  0  0  0  0  0  0  0  0
   -0.0000   -1.2800    0.0000 N   0  0  0  0  0  0  0  0  0  0  0  0
    0.7500    1.0300    0.0000 N   0  0  0  0  0  0  0  0  0  0  0  0
   -1.6322    2.2431    0.0000 O   0  0  0  0  0  0  0  0  0  0  0  0
    2.6377   -0.8500    0.0000 O   0  0  0  0  0  0  0  0  0  0  0  0
  2  1  1  0
  4  3  2  0
  5  3  1  0
  6  4  1  0
  7  5  2  0
  8  6  2  0
  8  7  1  0
  9  8  1  0
 10  9  1  0
 12  9  1  0
 12 11  2  0
 13  2  1  0
 13 10  1  0
 13 11  1  0
 14 10  2  0
 15 11  1  0
M  END
>  <NAME>  (3090) 
ETHOTOIN

>  <SYNONYMS>  (3090) 
3-ETHYL-5-PHENYL-2,4-IMIDAZOLIDINEDIONE

>  <SPECTRUM TYPE>  (3090) 
MS1

>  <INSTRUMENT TYPE>  (3090) 
EI-B

>  <INSTRUMENT>  (3090) 
JEOL JMS-D-300

>  <ION MODE>  (3090) 
P

>  <INCHIKEY>  (3090) 
SZQIFWWUIBRPBZ-UHFFFAOYSA-N

>  <FORMULA>  (3090) 
C11H12N2O2

>  <EXACT MASS>  (3090) 
204.089877624

>  <MW>  (3090) 
204

>  <ID>  (3090) 
JP007972

>  <CONTRIBUTOR>  (3090) 
University of Tokyo Team, {Faculty of Engineering, University of Tokyo

>  <COMMENT>  (3090) 
SMILES=CCN(C(=O)2)C(=O)C(N2)c(c1)cccc1
InChI=InChI=1S/C11H12N2O2/c1-2-13-10(14)9(12-11(13)15)8-6-4-3-5-7-8/h3-7,9H,2H2,1H3,(H,12,15)
computed SMILES=O=C1N(C(O)=NC1C=2C=CC=CC2)CC
accession=JP007972
date=2016.01.19 (Created 2008.10.21, modified 2011.05.06)
author=HAMAMATSU UNIV. SCHOOL OF MEDICINE
license=CC BY-NC-SA
exact mass=204.08988
ionization energy=70 eV
ion type=[M]+*
computed spectral entropy=2.5537250860760277
computed normalized entropy=0.7508311925219787
SPLASH=splash10-0zfr-4920000000-137fae4223f8b51dd5cd
submitter=submitter = University of Tokyo Team (Faculty of Engineering, University of Tokyo)
MoNA Rating=3.75

>  <NUM PEAKS>  (3090) 
30

>  <MASS SPECTRAL PEAKS>  (3090) 
51 5.48
52 13.51
53 4.68
56 4.64
62 1.13
63 3.31
64 1.15
70 7.97
72 16.79
75 1.28
76 4.68
77 26.83
78 18.16
79 2.53
89 4.74
90 3.45
91 3.42
103 13.3
104 95
105 99.99
106 9.71
118 3.84
133 23.01
134 2.01
161 3.32
175 1.58
176 3.83
202 3.5
204 71.56
205 9.24

$$$$

     RDKit          2D

 10 10  0  0  0  0  0  0  0  0999 V2000
   -2.9316    1.4561    0.0000 C   0  0  0  0  0  0  0  0  0  0  0  0
   -1.3507    2.8422    0.0000 C   0  0  0  0  0  0  0  0  0  0  0  0
   -1.5614    0.8456    0.0000 C   0  0  0  0  0  0  0  0  0  0  0  0
    0.4023    0.4278    0.0000 C   0  0  0  0  0  0  0  0  0  0  0  0
    1.8621    0.7395    0.0000 C   0  0  0  0  0  0  0  0  0  0  0  0
    0.6521    2.8353    0.0000 C   0  0  0  0  0  0  0  0  0  0  0  0
   -0.3477    1.7269    0.0000 C   0  0  0  0  0  0  0  0  0  0  0  0
    2.0279    2.2324    0.0000 N   0  0  0  0  0  0  0  0  0  0  0  0
    2.9743   -0.2670    0.0000 O   0  0  0  0  0  0  0  0  0  0  0  0
    0.3366    4.3017    0.0000 O   0  0  0  0  0  0  0  0  0  0  0  0
  3  1  1  0
  5  4  1  0
  7  2  1  0
  7  3  1  0
  7  4  1  0
  7  6  1  0
  8  5  2  0
  8  6  1  0
  9  5  1  0
 10  6  2  0
M  END
>  <NAME>  (3091) 
ETHOSUXIMIDE

>  <SYNONYMS>  (3091) 
3-ETHYL-3-METHYL-2,5-PYRROLIDINEDIONE

>  <SPECTRUM TYPE>  (3091) 
MS1

>  <INSTRUMENT TYPE>  (3091) 
EI-B

>  <INSTRUMENT>  (3091) 
JEOL JMS-D-300

>  <ION MODE>  (3091) 
P

>  <INCHIKEY>  (3091) 
HAPOVYFOVVWLRS-UHFFFAOYSA-N

>  <FORMULA>  (3091) 
C7H11NO2

>  <EXACT MASS>  (3091) 
141.078978592

>  <MW>  (3091) 
141

>  <ID>  (3091) 
JP007971

>  <CONTRIBUTOR>  (3091) 
University of Tokyo Team, {Faculty of Engineering, University of Tokyo

>  <COMMENT>  (3091) 
SMILES=CCC(C)(C1)C(=O)NC(=O)1
InChI=InChI=1S/C7H11NO2/c1-3-7(2)4-5(9)8-6(7)10/h3-4H2,1-2H3,(H,8,9,10)
computed SMILES=O=C1N=C(O)CC1(C)CC
accession=JP007971
date=2016.01.19 (Created 2008.10.21, modified 2011.05.06)
author=HAMAMATSU UNIV. SCHOOL OF MEDICINE
license=CC BY-NC-SA
exact mass=141.07898
ionization energy=70 eV
ion type=[M]+*
computed spectral entropy=1.6849531392699744
computed normalized entropy=0.6384678045306501
SPLASH=splash10-08mi-9400000000-44583cdc88d3203a4e84
submitter=submitter = University of Tokyo Team (Faculty of Engineering, University of Tokyo)
MoNA Rating=3.75

>  <NUM PEAKS>  (3091) 
14

>  <MASS SPECTRAL PEAKS>  (3091) 
52 1.61
54 4.5
55 94.66
56 5.19
67 1.83
68 2.06
69 7.25
70 71.7
71 4.52
85 8.14
98 2.48
113 99.99
114 6.32
141 2.74

$$$$

     RDKit          2D

 10 10  0  0  0  0  0  0  0  0999 V2000
   -1.9647    1.6863    0.0000 C   0  0  0  0  0  0  0  0  0  0  0  0
   -2.5795   -0.2220    0.0000 C   0  0  0  0  0  0  0  0  0  0  0  0
    1.6322   -2.2431    0.0000 C   0  0  0  0  0  0  0  0  0  0  0  0
   -0.7500   -1.0300    0.0000 C   0  0  0  0  0  0  0  0  0  0  0  0
    1.2100    0.3900    0.0000 C   0  0  0  0  0  0  0  0  0  0  0  0
   -1.2100    0.3900    0.0000 C   0  0  0  0  0  0  0  0  0  0  0  0
    0.7500   -1.0300    0.0000 N   0  0  0  0  0  0  0  0  0  0  0  0
   -1.6322   -2.2431    0.0000 O   0  0  0  0  0  0  0  0  0  0  0  0
    2.6377    0.8500    0.0000 O   0  0  0  0  0  0  0  0  0  0  0  0
    0.0000    1.2800    0.0000 O   0  0  0  0  0  0  0  0  0  0  0  0
  6  1  1  0
  6  2  1  0
  6  4  1  0
  7  3  1  0
  7  4  1  0
  7  5  1  0
  8  4  2  0
  9  5  2  0
 10  5  1  0
 10  6  1  0
M  END
>  <NAME>  (3092) 
TRIMETHADIONE

>  <SYNONYMS>  (3092) 
3,5,5-TRIMETHYL-2,4-OXAZOLIDINEDIONE

>  <SPECTRUM TYPE>  (3092) 
MS1

>  <INSTRUMENT TYPE>  (3092) 
EI-B

>  <INSTRUMENT>  (3092) 
JEOL JMS-D-300

>  <ION MODE>  (3092) 
P

>  <INCHIKEY>  (3092) 
IRYJRGCIQBGHIV-UHFFFAOYSA-N

>  <FORMULA>  (3092) 
C6H9NO3

>  <EXACT MASS>  (3092) 
143.058243148

>  <MW>  (3092) 
143

>  <ID>  (3092) 
JP007970

>  <CONTRIBUTOR>  (3092) 
University of Tokyo Team, {Faculty of Engineering, University of Tokyo

>  <COMMENT>  (3092) 
SMILES=O=C(O1)N(C)C(=O)C(C)(C)1
InChI=InChI=1S/C6H9NO3/c1-6(2)4(8)7(3)5(9)10-6/h1-3H3
computed SMILES=O=C1OC(C(=O)N1C)(C)C
accession=JP007970
date=2016.01.19 (Created 2008.10.21, modified 2011.05.06)
author=HAMAMATSU UNIV. SCHOOL OF MEDICINE
license=CC BY-NC-SA
exact mass=143.05824
ionization energy=70 eV
ion type=[M]+*
computed spectral entropy=1.7105830522031802
computed normalized entropy=0.6669071446681892
SPLASH=splash10-0a4l-8900000000-43db0866b0f6797cbff6
submitter=submitter = University of Tokyo Team (Faculty of Engineering, University of Tokyo)
MoNA Rating=3.75

>  <NUM PEAKS>  (3092) 
13

>  <MASS SPECTRAL PEAKS>  (3092) 
56 6.77
57 4.99
58 89.83
59 24.45
69 1.03
70 6.15
100 4.46
115 2.16
127 1.31
128 31.86
129 1.85
143 99.99
144 7.34

$$$$

     RDKit          2D

 15 16  0  0  0  0  0  0  0  0999 V2000
    5.1981    0.7504    0.0000 C   0  0  0  0  0  0  0  0  0  0  0  0
    5.1981   -0.7504    0.0000 C   0  0  0  0  0  0  0  0  0  0  0  0
   -1.3000    1.5000    0.0000 C   0  0  0  0  0  0  0  0  0  0  0  0
   -2.6000    0.7500    0.0000 C   0  0  0  0  0  0  0  0  0  0  0  0
    1.3000    1.5000    0.0000 C   0  0  0  0  0  0  0  0  0  0  0  0
   -1.3000   -1.5000    0.0000 C   0  0  0  0  0  0  0  0  0  0  0  0
   -0.0000    0.7500    0.0000 C   0  0  0  0  0  0  0  0  0  0  0  0
   -2.6000   -0.7500    0.0000 C   0  0  0  0  0  0  0  0  0  0  0  0
   -0.0000   -0.7500    0.0000 C   0  0  0  0  0  0  0  0  0  0  0  0
    2.6000    0.7500    0.0000 C   0  0  0  0  0  0  0  0  0  0  0  0
    2.6000   -0.7500    0.0000 C   0  0  0  0  0  0  0  0  0  0  0  0
   -3.8989   -1.5002    0.0000 Br  0  0  0  0  0  0  0  0  0  0  0  0
    1.3000   -1.5000    0.0000 N   0  0  0  0  0  0  0  0  0  0  0  0
    3.8989    1.5002    0.0000 O   0  0  0  0  0  0  0  0  0  0  0  0
    3.8989   -1.5002    0.0000 S   0  0  0  0  0  0  0  0  0  0  0  0
  4  3  2  0
  7  3  1  0
  7  5  2  0
  8  4  1  0
  8  6  2  0
  9  6  1  0
  9  7  1  0
 10  5  1  0
 11 10  2  0
 12  8  1  0
 13  9  2  0
 13 11  1  0
 14  1  1  0
 14 10  1  0
 15  2  1  0
 15 11  1  0
M  END
>  <NAME>  (3093) 
7-BROMO-3-METHOXY-2-METHYLTHIOISOQUINOLINE

>  <SYNONYMS>  (3093) 


>  <SPECTRUM TYPE>  (3093) 
MS1

>  <INSTRUMENT TYPE>  (3093) 
EI-B

>  <INSTRUMENT>  (3093) 
JEOL JMS-D-300

>  <ION MODE>  (3093) 
P

>  <INCHIKEY>  (3093) 
HWNKEJGGLOFWDE-UHFFFAOYSA-N

>  <FORMULA>  (3093) 
C11H10BrNOS

>  <EXACT MASS>  (3093) 
282.96664704

>  <MW>  (3093) 
283

>  <ID>  (3093) 
JP007938

>  <CONTRIBUTOR>  (3093) 
University of Tokyo Team, {Faculty of Engineering, University of Tokyo

>  <COMMENT>  (3093) 
SMILES=COc(c1)c(SC)nc(c2)c(ccc(Br)2)1
InChI=InChI=1S/C11H10BrNOS/c1-14-10-5-7-3-4-8(12)6-9(7)13-11(10)15-2/h3-6H,1-2H3
computed SMILES=BrC=1C=CC2=CC(OC)=C(N=C2C1)SC
computed spectral entropy=4.083455862861757
computed normalized entropy=0.8574772611776047
accession=JP007938
date=2016.01.19 (Created 2008.10.21, modified 2011.05.06)
author=FUJISE Y, HAMAMATSU UNIV. SCHOOL OF MEDICINE
license=CC BY-NC-SA
exact mass=282.96665
ionization energy=70 eV
ion type=[M]+*
SPLASH=splash10-0ff9-1390000000-17dcf3333ea64e14b0e7
submitter=submitter = University of Tokyo Team (Faculty of Engineering, University of Tokyo)
MoNA Rating=3.75

>  <NUM PEAKS>  (3093) 
117

>  <MASS SPECTRAL PEAKS>  (3093) 
51 3.72
61 2.29
62 7.49
63 5.89
64 2.82
66 1.09
69 1.46
72 1.1
73 2.82
74 3.32
75 5.5
76 2.76
77 1.91
80 1.6
82 1.07
86 3.21
87 8.58
88 12.82
89 2.27
93 1.14
94 2.23
99 2.8
100 4.73
101 4.94
102 10.29
103 1.12
114 25.59
115 5.4
116 2.46
117 13.98
118 1.29
119 4.89
120 1.57
126 1.69
127 9.48
128 15.55
129 5.17
130 1.5
132 1.08
133 6.05
134 8.68
135 9.52
140 1.1
141 7.14
142 4.08
143 1.78
145 2.82
146 6.1
156 1.07
157 2.7
158 1.53
159 4.95
160 5.02
161 11.99
162 1.54
167 3.18
169 3.11
171 1.8
173 1.43
174 1.68
179 1.95
180 1.09
181 3.4
182 1.15
183 1.48
189 3.02
193 1.24
194 2.87
195 3.7
196 3.66
197 2.41
198 5.26
200 4.4
206 6.33
207 16.19
208 13.2
209 17.02
210 6.88
211 1.52
220 8.08
221 21.15
222 11.37
223 22.03
224 7.67
225 2.1
226 4.63
227 1.66
236 13.22
237 6.86
238 15.52
239 6.77
240 4.12
241 1
248 4.44
249 1.9
250 33.38
251 5.55
252 38.22
253 8.5
254 10.63
255 5.01
256 1.75
264 11.85
265 7.36
266 13.89
267 8.77
268 30.91
269 5.19
270 29.58
271 3.77
272 1.67
282 11.45
283 96.67
284 23.88
285 99.99
286 13.35
287 5.43

$$$$

     RDKit          2D

 19 22  0  0  0  0  0  0  0  0999 V2000
    2.5233    1.1606    0.0000 C   0  0  0  0  0  0  0  0  0  0  0  0
    2.0078   -0.2489    0.0000 C   0  0  0  0  0  0  0  0  0  0  0  0
    1.5610    2.3124    0.0000 C   0  0  0  0  0  0  0  0  0  0  0  0
   -2.5884    3.5479    0.0000 C   0  0  0  0  0  0  0  0  0  0  0  0
   -4.0884    3.5479    0.0000 C   0  0  0  0  0  0  0  0  0  0  0  0
    0.5302   -0.5067    0.0000 C   0  0  0  0  0  0  0  0  0  0  0  0
    0.0833    2.0546    0.0000 C   0  0  0  0  0  0  0  0  0  0  0  0
   -1.8384    2.2488    0.0000 C   0  0  0  0  0  0  0  0  0  0  0  0
   -4.8384    2.2488    0.0000 C   0  0  0  0  0  0  0  0  0  0  0  0
   -1.9884   -1.6802    0.0000 C   0  0  0  0  0  0  0  0  0  0  0  0
   -3.3384   -2.3302    0.0000 C   0  0  0  0  0  0  0  0  0  0  0  0
   -0.4321    0.6450    0.0000 C   0  0  0  0  0  0  0  0  0  0  0  0
   -2.5884    0.9498    0.0000 C   0  0  0  0  0  0  0  0  0  0  0  0
   -4.0884    0.9498    0.0000 C   0  0  0  0  0  0  0  0  0  0  0  0
   -1.6584   -0.2202    0.0000 C   0  0  0  0  0  0  0  0  0  0  0  0
   -4.6884   -1.6802    0.0000 C   0  0  0  0  0  0  0  0  0  0  0  0
   -5.0284   -0.2202    0.0000 C   0  0  0  0  0  0  0  0  0  0  0  0
   -3.3284    0.1398    0.0000 N   0  0  0  0  0  0  0  0  0  0  0  0
   -5.8590   -2.6181    0.0000 O   0  0  0  0  0  0  0  0  0  0  0  0
  2  1  2  0
  3  1  1  0
  5  4  2  0
  6  2  1  0
  7  3  2  0
  8  4  1  0
  9  5  1  0
 11 10  2  0
 12  6  2  0
 12  7  1  0
 13  8  2  0
 14  9  2  0
 14 13  1  0
 15 10  1  0
 15 13  1  0
 16 11  1  0
 17 14  1  0
 17 16  1  0
 18 12  1  0
 18 15  1  0
 18 17  1  0
 19 16  2  0
M  END
>  <NAME>  (3094) 
8-AZA-8-PHENYL-6,7-BENZO-BICYCLO(3,2,1)-3-EN-2-ONE

>  <SYNONYMS>  (3094) 


>  <SPECTRUM TYPE>  (3094) 
MS1

>  <INSTRUMENT TYPE>  (3094) 
EI-B

>  <INSTRUMENT>  (3094) 
JEOL JMS-D-300

>  <ION MODE>  (3094) 
P

>  <INCHIKEY>  (3094) 
HBVLHVPIKRRHKB-UHFFFAOYSA-N

>  <FORMULA>  (3094) 
C17H13NO

>  <EXACT MASS>  (3094) 
247.099714036

>  <MW>  (3094) 
247

>  <ID>  (3094) 
JP007937

>  <CONTRIBUTOR>  (3094) 
University of Tokyo Team, {Faculty of Engineering, University of Tokyo

>  <COMMENT>  (3094) 
SMILES=c(c4)ccc(c4)N(C31)C(C(=O)C=C3)c(c2)c(ccc2)1
InChI=InChI=1S/C17H13NO/c19-16-11-10-15-13-8-4-5-9-14(13)17(16)18(15)12-6-2-1-3-7-12/h1-11,15,17H
computed SMILES=O=C1C=CC2C=3C=CC=CC3C1N2C=4C=CC=CC4
accession=JP007937
date=2016.01.19 (Created 2008.10.21, modified 2011.05.06)
author=FUJISE Y, HAMAMATSU UNIV. SCHOOL OF MEDICINE
license=CC BY-NC-SA
exact mass=247.09971
ionization energy=70 eV
ion type=[M]+*
computed spectral entropy=3.3564926370851538
computed normalized entropy=0.7848385970933339
SPLASH=splash10-05mp-3890000000-706eb2e6e799b5e4e8a2
submitter=submitter = University of Tokyo Team (Faculty of Engineering, University of Tokyo)
MoNA Rating=3.75

>  <NUM PEAKS>  (3094) 
72

>  <MASS SPECTRAL PEAKS>  (3094) 
51 18.07
52 1.91
62 1.9
63 6.83
64 2.01
65 2.16
74 1.73
75 2.83
76 3.82
77 19.14
78 1.87
82 1.1
83 1.02
84 1.39
87 1.18
88 1.99
89 13.27
90 16.18
91 2.72
94 1.77
96 4.84
101 1.91
102 5.82
103 5.99
104 2.34
107 1.89
108 19.71
109 4.94
110 3.82
113 1.57
114 2.15
115 10.3
116 7.42
117 1.76
124 2.89
126 1.4
127 5.26
128 8.28
129 1.04
139 1.5
140 2.3
144 3.96
152 1.06
153 1.07
155 3.23
163 1.69
164 2.52
165 22.33
166 5.59
167 1.42
178 1.24
189 2.23
190 3.21
191 3.63
192 10.16
193 99.99
194 16.08
195 1.26
204 1.96
206 86.08
207 14.64
208 1.28
216 4.44
217 13.79
218 50.02
219 27.03
220 3.86
230 2.18
246 3.32
247 69.23
248 13.53
249 1.55

$$$$

     RDKit          2D

 16 18  0  0  1  0  0  0  0  0999 V2000
   -3.2600    1.2600    0.0000 C   0  0  0  0  0  0  0  0  0  0  0  0
   -3.7100   -0.2100    0.0000 C   0  0  0  0  0  0  0  0  0  0  0  0
   -1.8000    1.5900    0.0000 C   0  0  0  0  0  0  0  0  0  0  0  0
   -2.7100   -1.3300    0.0000 C   0  0  0  0  0  0  0  0  0  0  0  0
    1.7800    1.5600    0.0000 C   0  0  0  0  0  0  0  0  0  0  0  0
    2.7100   -1.2300    0.0000 C   0  0  0  0  0  0  0  0  0  0  0  0
   -0.7100    0.4700    0.0000 C   0  0  0  0  0  0  0  0  0  0  0  0
    0.7100    0.4700    0.0000 C   0  0  0  0  0  0  0  0  0  0  0  0
   -1.1700   -1.0000    0.0000 C   0  0  0  0  0  0  0  0  0  0  0  0
    3.2200    1.3000    0.0000 C   0  0  0  0  0  0  0  0  0  0  0  0
    1.2700   -0.9500    0.0000 C   0  0  0  0  0  0  0  0  0  0  0  0
    4.2094    2.4275    0.0000 C   0  0  0  0  0  0  0  0  0  0  0  0
    3.6700   -0.1100    0.0000 N   0  0  0  0  0  0  0  0  0  0  0  0
    0.0000   -1.8100    0.0000 N   0  0  0  0  0  0  0  0  0  0  0  0
    3.7276    3.8480    0.0000 O   0  0  0  0  0  0  0  0  0  0  0  0
    5.6804    2.1344    0.0000 O   0  0  0  0  0  0  0  0  0  0  0  0
  2  1  2  0
  3  1  1  0
  4  2  1  0
  7  3  2  0
  8  5  1  0
  8  7  1  0
  9  4  2  0
  9  7  1  0
 10  5  1  0
 11  6  1  0
 11  8  2  0
 10 12  1  1
 13  6  1  0
 13 10  1  0
 14  9  1  0
 14 11  1  0
 15 12  2  0
 16 12  1  0
M  END
>  <NAME>  (3095) 
1,2,3,4-TETRAHYDRO-1H-PIRIDO(3,4-B)INDOLE-3-CARBOXILIC ACID

>  <SYNONYMS>  (3095) 


>  <SPECTRUM TYPE>  (3095) 
MS1

>  <INSTRUMENT TYPE>  (3095) 
EI-B

>  <INSTRUMENT>  (3095) 
JEOL JMS-D-300

>  <ION MODE>  (3095) 
P

>  <INCHIKEY>  (3095) 
FSNCEEGOMTYXKY-JTQLQIEISA-N

>  <FORMULA>  (3095) 
C12H12N2O2

>  <EXACT MASS>  (3095) 
216.089877624

>  <MW>  (3095) 
216

>  <ID>  (3095) 
JP007934

>  <CONTRIBUTOR>  (3095) 
University of Tokyo Team, {Faculty of Engineering, University of Tokyo

>  <COMMENT>  (3095) 
SMILES=C1[C@H](NCC2=C1C3=CC=CC=C3N2)C(=O)O
InChI=InChI=1S/C12H12N2O2/c15-12(16)10-5-8-7-3-1-2-4-9(7)14-11(8)6-13-10/h1-4,10,13-14H,5-6H2,(H,15,16)/t10-/m0/s1
computed SMILES=O=C(O)C1NCC=2NC=3C=CC=CC3C2C1
accession=JP007934
date=2016.01.19 (Created 2008.10.21, modified 2011.05.06)
author=FUJISE Y, HAMAMATSU UNIV. SCHOOL OF MEDICINE
license=CC BY-NC-SA
exact mass=216.08988
ionization energy=70 eV
ion type=[M]+*
computed spectral entropy=2.950757446056618
computed normalized entropy=0.7542791650157171
SPLASH=splash10-00kf-1910000000-75a38d01d6b92417004c
submitter=submitter = University of Tokyo Team (Faculty of Engineering, University of Tokyo)
MoNA Rating=3.75

>  <NUM PEAKS>  (3095) 
50

>  <MASS SPECTRAL PEAKS>  (3095) 
51 2.58
52 0.97
58 1.72
69 1.06
71 1.58
72 2.08
75 2.08
76 1.86
77 3.41
83 0.98
84 3.47
85 13.28
86 7.85
87 1.04
88 1.02
89 2.72
90 1.97
91 1.16
101 1.77
102 3.05
103 1.53
113 1.61
114 2.14
115 12.45
116 4.97
117 3.79
118 1.22
127 1.03
128 3.92
129 1.19
130 2.43
140 4.12
141 2.81
142 7.34
143 99.99
144 31.63
145 2.98
154 3.71
155 2.88
156 1.96
167 1.32
168 10.15
169 19.1
170 6.09
171 19.66
172 3.5
199 2.71
215 3.12
216 46.29
217 6.23

$$$$

     RDKit          2D

  9  9  0  0  0  0  0  0  0  0999 V2000
    0.0000    1.5000    0.0000 C   0  0  0  0  0  0  0  0  0  0  0  0
    0.0000    0.0000    0.0000 C   0  0  0  0  0  0  0  0  0  0  0  0
   -1.1727    2.4352    0.0000 C   0  0  0  0  0  0  0  0  0  0  0  0
   -1.1727   -0.9352    0.0000 C   0  0  0  0  0  0  0  0  0  0  0  0
   -2.6351    2.1015    0.0000 C   0  0  0  0  0  0  0  0  0  0  0  0
   -2.6351   -0.6015    0.0000 C   0  0  0  0  0  0  0  0  0  0  0  0
   -3.2860    0.7500    0.0000 C   0  0  0  0  0  0  0  0  0  0  0  0
   -3.5704   -1.7742    0.0000 O   0  0  0  0  0  0  0  0  0  0  0  0
   -4.7860    0.7500    0.0000 O   0  0  0  0  0  0  0  0  0  0  0  0
  2  1  2  0
  3  1  1  0
  4  2  1  0
  5  3  2  0
  6  4  2  0
  7  5  1  0
  7  6  1  0
  8  6  1  0
  9  7  2  0
M  END
>  <NAME>  (3096) 
TROPOLONE

>  <SYNONYMS>  (3096) 


>  <SPECTRUM TYPE>  (3096) 
MS1

>  <INSTRUMENT TYPE>  (3096) 
EI-B

>  <INSTRUMENT>  (3096) 
JEOL JMS-D-300

>  <ION MODE>  (3096) 
P

>  <INCHIKEY>  (3096) 
MDYOLVRUBBJPFM-UHFFFAOYSA-N

>  <FORMULA>  (3096) 
C7H6O2

>  <EXACT MASS>  (3096) 
122.036779432

>  <MW>  (3096) 
122

>  <ID>  (3096) 
JP007931

>  <CONTRIBUTOR>  (3096) 
University of Tokyo Team, {Faculty of Engineering, University of Tokyo

>  <COMMENT>  (3096) 
SMILES=OC(=C1)C(=O)C=CC=C1
InChI=InChI=1S/C7H6O2/c8-6-4-2-1-3-5-7(6)9/h1-5H,(H,8,9)
computed SMILES=O=C1C=CC=CC=C1O
accession=JP007931
date=2016.01.19 (Created 2008.10.21, modified 2011.05.06)
author=FUJISE Y, HAMAMATSU UNIV. SCHOOL OF MEDICINE
license=CC BY-NC-SA
exact mass=122.03678
ionization energy=70 eV
ion type=[M]+*
computed spectral entropy=1.9473346124598796
computed normalized entropy=0.650036263136978
SPLASH=splash10-00di-9800000000-6817a9337f8a1bc1e793
submitter=submitter = University of Tokyo Team (Faculty of Engineering, University of Tokyo)
MoNA Rating=3.75

>  <NUM PEAKS>  (3096) 
20

>  <MASS SPECTRAL PEAKS>  (3096) 
51 8.93
52 3.38
53 5.66
55 7.02
56 0.86
61 2.97
62 1.3
63 4.19
64 1.66
65 17.32
66 18.72
67 1.58
74 1.44
76 0.9
77 1.27
94 28.25
95 0.98
122 99.99
123 5.73
252 1.04

$$$$

     RDKit          2D

 16 17  0  0  0  0  0  0  0  0999 V2000
    3.2481    2.1950    0.0000 C   0  0  0  0  0  0  0  0  0  0  0  0
   -7.1442    2.1950    0.0000 C   0  0  0  0  0  0  0  0  0  0  0  0
    1.9486    1.4442    0.0000 C   0  0  0  0  0  0  0  0  0  0  0  0
    3.2486    3.6958    0.0000 C   0  0  0  0  0  0  0  0  0  0  0  0
   -7.1447    3.6958    0.0000 C   0  0  0  0  0  0  0  0  0  0  0  0
   -5.8447    1.4442    0.0000 C   0  0  0  0  0  0  0  0  0  0  0  0
    0.6495    2.1942    0.0000 C   0  0  0  0  0  0  0  0  0  0  0  0
    1.9495    4.4458    0.0000 C   0  0  0  0  0  0  0  0  0  0  0  0
   -5.8457    4.4458    0.0000 C   0  0  0  0  0  0  0  0  0  0  0  0
   -4.5457    2.1942    0.0000 C   0  0  0  0  0  0  0  0  0  0  0  0
    0.6500    3.6950    0.0000 C   0  0  0  0  0  0  0  0  0  0  0  0
   -4.5462    3.6950    0.0000 C   0  0  0  0  0  0  0  0  0  0  0  0
   -1.9481    3.6950    0.0000 C   0  0  0  0  0  0  0  0  0  0  0  0
   -0.6490    4.4450    0.0000 N   0  0  0  0  0  0  0  0  0  0  0  0
   -3.2471    4.4450    0.0000 N   0  0  0  0  0  0  0  0  0  0  0  0
   -1.9481    2.1950    0.0000 O   0  0  0  0  0  0  0  0  0  0  0  0
  3  1  1  0
  4  1  1  0
  5  2  1  0
  6  2  1  0
  7  3  1  0
  8  4  1  0
  9  5  1  0
 10  6  1  0
 11  7  1  0
 11  8  1  0
 12  9  1  0
 12 10  1  0
 14 11  1  0
 14 13  2  3
 15 12  1  0
 15 13  1  0
 16 13  1  0
M  END
>  <NAME>  (3097) 
DICYCLOHEXYLUREA

>  <SYNONYMS>  (3097) 


>  <SPECTRUM TYPE>  (3097) 
MS1

>  <INSTRUMENT TYPE>  (3097) 
EI-B

>  <INSTRUMENT>  (3097) 
JEOL JMS-D-300

>  <ION MODE>  (3097) 
P

>  <INCHIKEY>  (3097) 
ADFXKUOMJKEIND-UHFFFAOYSA-N

>  <FORMULA>  (3097) 
C13H24N2O

>  <EXACT MASS>  (3097) 
224.188863388

>  <MW>  (3097) 
224

>  <ID>  (3097) 
JP007930

>  <CONTRIBUTOR>  (3097) 
University of Tokyo Team, {Faculty of Engineering, University of Tokyo

>  <COMMENT>  (3097) 
SMILES=O=C(NC(C2)CCCC2)NC(C1)CCCC1
InChI=InChI=1S/C13H24N2O/c16-13(14-11-7-3-1-4-8-11)15-12-9-5-2-6-10-12/h11-12H,1-10H2,(H2,14,15,16)
computed SMILES=OC(=NC1CCCCC1)NC2CCCCC2
accession=JP007930
date=2016.01.19 (Created 2008.10.21, modified 2011.05.06)
author=FUJISE Y, HAMAMATSU UNIV. SCHOOL OF MEDICINE
license=CC BY-NC-SA
exact mass=224.18886
ionization energy=70 eV
ion type=[M]+*
computed spectral entropy=2.4586306273635556
computed normalized entropy=0.7546217856566608
SPLASH=splash10-0a4i-9100000000-bcc56a556909cc350e88
submitter=submitter = University of Tokyo Team (Faculty of Engineering, University of Tokyo)
MoNA Rating=3.75

>  <NUM PEAKS>  (3097) 
26

>  <MASS SPECTRAL PEAKS>  (3097) 
53 1.76
54 4.02
55 16.79
56 99.99
57 6.19
61 35.07
67 6.46
68 1.04
69 2.6
70 19.07
71 1.67
79 1.51
81 3.92
82 4.55
83 5.61
84 1.15
96 0.91
97 2.86
98 17.5
99 38.34
100 8.3
142 2.26
143 18.29
144 1.68
224 14.19
225 2.3

$$$$

     RDKit          2D

 11 11  0  0  0  0  0  0  0  0999 V2000
   -0.3123    3.2070    0.0000 C   0  0  0  0  0  0  0  0  0  0  0  0
   -2.3640    2.6681    0.0000 C   0  0  0  0  0  0  0  0  0  0  0  0
   -1.8251    0.6164    0.0000 C   0  0  0  0  0  0  0  0  0  0  0  0
    1.5257    1.9053    0.0000 C   0  0  0  0  0  0  0  0  0  0  0  0
    0.2121   -0.3195    0.0000 C   0  0  0  0  0  0  0  0  0  0  0  0
    2.8102    1.1805    0.0000 C   0  0  0  0  0  0  0  0  0  0  0  0
    1.5366   -1.1137    0.0000 C   0  0  0  0  0  0  0  0  0  0  0  0
    0.2266    1.1553    0.0000 C   0  0  0  0  0  0  0  0  0  0  0  0
    2.8357   -0.3637    0.0000 C   0  0  0  0  0  0  0  0  0  0  0  0
   -1.0687    1.9117    0.0000 C   0  0  0  0  0  0  0  0  0  0  0  0
    4.1409   -1.1029    0.0000 O   0  0  0  0  0  0  0  0  0  0  0  0
  6  4  2  0
  7  5  1  0
  8  4  1  0
  8  5  2  0
  9  6  1  0
  9  7  2  0
 10  1  1  0
 10  2  1  0
 10  3  1  0
 10  8  1  0
 11  9  1  0
M  END
>  <NAME>  (3098) 
4-(1,1-DIMETHYLETHYL)PHENOL

>  <SYNONYMS>  (3098) 
PARA-TERT-BUTYLPHENOL

>  <SPECTRUM TYPE>  (3098) 
MS1

>  <INSTRUMENT TYPE>  (3098) 
EI-B

>  <INSTRUMENT>  (3098) 
JEOL JMS-D-300

>  <ION MODE>  (3098) 
P

>  <INCHIKEY>  (3098) 
QHPQWRBYOIRBIT-UHFFFAOYSA-N

>  <FORMULA>  (3098) 
C10H14O

>  <EXACT MASS>  (3098) 
150.104465068

>  <MW>  (3098) 
150

>  <ID>  (3098) 
JP007929

>  <CONTRIBUTOR>  (3098) 
University of Tokyo Team, {Faculty of Engineering, University of Tokyo

>  <COMMENT>  (3098) 
SMILES=Oc(c1)ccc(c1)C(C)(C)C
InChI=InChI=1S/C10H14O/c1-10(2,3)8-4-6-9(11)7-5-8/h4-7,11H,1-3H3
computed SMILES=OC1=CC=C(C=C1)C(C)(C)C
accession=JP007929
date=2016.01.19 (Created 2008.10.21, modified 2011.05.06)
author=FUJISE Y, HAMAMATSU UNIV. SCHOOL OF MEDICINE
license=CC BY-NC-SA
exact mass=150.10447
ionization energy=70 eV
ion type=[M]+*
computed spectral entropy=2.3050674303842187
computed normalized entropy=0.671251024865078
SPLASH=splash10-000i-2900000000-4db3c9778d301443456d
submitter=submitter = University of Tokyo Team (Faculty of Engineering, University of Tokyo)
MoNA Rating=3.75

>  <NUM PEAKS>  (3098) 
31

>  <MASS SPECTRAL PEAKS>  (3098) 
51 3.73
53 1.9
55 2.63
57 1.7
63 1.95
64 1.07
65 4.57
66 3.29
67 1.68
68 0.99
77 9.28
78 1.06
79 2.73
89 1.23
91 7.55
94 1.43
95 15.67
105 1.76
106 1.09
107 36.15
108 2.74
109 1.1
115 1.51
119 2.52
121 1.53
133 1.26
134 1.24
135 99.99
136 9.82
150 26.32
151 3.37

$$$$

     RDKit          2D

 22 25  0  0  0  0  0  0  0  0999 V2000
   -2.3100    0.7500    0.0000 C   0  0  0  0  0  0  0  0  0  0  0  0
    9.0100   -0.7500    0.0000 C   0  0  0  0  0  0  0  0  0  0  0  0
   -1.0100    1.5000    0.0000 C   0  0  0  0  0  0  0  0  0  0  0  0
    7.7100   -1.5000    0.0000 C   0  0  0  0  0  0  0  0  0  0  0  0
   -1.0100   -1.5000    0.0000 C   0  0  0  0  0  0  0  0  0  0  0  0
    7.7100    1.5000    0.0000 C   0  0  0  0  0  0  0  0  0  0  0  0
   -2.3100   -0.7500    0.0000 C   0  0  0  0  0  0  0  0  0  0  0  0
    9.0100    0.7500    0.0000 C   0  0  0  0  0  0  0  0  0  0  0  0
    0.2900    0.7500    0.0000 C   0  0  0  0  0  0  0  0  0  0  0  0
    6.4100   -0.7500    0.0000 C   0  0  0  0  0  0  0  0  0  0  0  0
    0.2900   -0.7500    0.0000 C   0  0  0  0  0  0  0  0  0  0  0  0
    6.4100    0.7500    0.0000 C   0  0  0  0  0  0  0  0  0  0  0  0
    2.6000   -0.0000    0.0000 C   0  0  0  0  0  0  0  0  0  0  0  0
    4.1000    0.0000    0.0000 C   0  0  0  0  0  0  0  0  0  0  0  0
    1.7200    1.2100    0.0000 C   0  0  0  0  0  0  0  0  0  0  0  0
    4.9800   -1.2100    0.0000 C   0  0  0  0  0  0  0  0  0  0  0  0
   -3.6089   -1.5002    0.0000 Br  0  0  0  0  0  0  0  0  0  0  0  0
   10.3089    1.5002    0.0000 Br  0  0  0  0  0  0  0  0  0  0  0  0
    1.7200   -1.2100    0.0000 N   0  0  0  0  0  0  0  0  0  0  0  0
    4.9800    1.2100    0.0000 N   0  0  0  0  0  0  0  0  0  0  0  0
    2.1853    2.6360    0.0000 O   0  0  0  0  0  0  0  0  0  0  0  0
    4.5147   -2.6360    0.0000 O   0  0  0  0  0  0  0  0  0  0  0  0
  3  1  2  0
  4  2  2  0
  7  1  1  0
  7  5  2  0
  8  2  1  0
  8  6  2  0
  9  3  1  0
 10  4  1  0
 11  5  1  0
 11  9  2  0
 12  6  1  0
 12 10  2  0
 13 14  2  0
 15  9  1  0
 15 13  1  0
 16 10  1  0
 16 14  1  0
 17  7  1  0
 18  8  1  0
 19 11  1  0
 19 13  1  0
 20 12  1  0
 20 14  1  0
 21 15  2  0
 22 16  2  0
M  END
>  <NAME>  (3099) 
6,6'-DIBROMOINDIGOTIN

>  <SYNONYMS>  (3099) 


>  <SPECTRUM TYPE>  (3099) 
MS1

>  <INSTRUMENT TYPE>  (3099) 
EI-B

>  <INSTRUMENT>  (3099) 
JEOL JMS-D-300

>  <ION MODE>  (3099) 
P

>  <INCHIKEY>  (3099) 
ZVAPIIDBWWULJN-BUHFOSPRSA-N

>  <FORMULA>  (3099) 
C16H8Br2N2O2

>  <EXACT MASS>  (3099) 
417.895251696

>  <MW>  (3099) 
418

>  <ID>  (3099) 
JP007928

>  <CONTRIBUTOR>  (3099) 
University of Tokyo Team, {Faculty of Engineering, University of Tokyo

>  <COMMENT>  (3099) 
SMILES=C1=CC2=C(C=C1Br)N/C(=C/3\C(=O)C4=C(N3)C=C(C=C4)Br)/C2=O
InChI=InChI=1S/C16H8Br2N2O2/c17-7-1-3-9-11(5-7)19-13(15(9)21)14-16(22)10-4-2-8(18)6-12(10)20-14/h1-6,19-20H/b14-13+
computed SMILES=O=C1C2=CC=C(Br)C=C2NC1=C3NC4=CC(Br)=CC=C4C3=O
accession=JP007928
date=2016.01.19 (Created 2008.10.21, modified 2011.05.06)
author=FUJISE Y, HAMAMATSU UNIV. SCHOOL OF MEDICINE
license=CC BY-NC-SA
exact mass=417.89525
ionization energy=70 eV
ion type=[M]+*
computed spectral entropy=3.0201308603330292
computed normalized entropy=0.8637564218698122
SPLASH=splash10-00di-5420900000-7e438692bf90f2856af2
submitter=submitter = University of Tokyo Team (Faculty of Engineering, University of Tokyo)
MoNA Rating=3.75

>  <NUM PEAKS>  (3099) 
33

>  <MASS SPECTRAL PEAKS>  (3099) 
73 70.69
74 13.14
75 34.81
76 9.59
88 6.57
102 6.74
103 7.1
154 8.88
155 6.03
156 8.52
157 6.92
177 6.74
182 24.33
183 6.92
184 22.38
204 7.99
210 7.1
211 8.34
235 5.68
236 6.21
237 6.39
239 6.21
283 9.05
285 11.19
313 8.34
390 6.92
392 9.05
418 47.95
419 9.76
420 99.99
421 17.58
422 50.26
423 9.59

$$$$

     RDKit          2D

 16 16  0  0  1  0  0  0  0  0999 V2000
    3.2899    2.4204    0.0000 C   0  0  0  0  0  0  0  0  0  0  0  0
    3.8981   -0.7504    0.0000 C   0  0  0  0  0  0  0  0  0  0  0  0
    2.5987   -3.0002    0.0000 C   0  0  0  0  0  0  0  0  0  0  0  0
   -3.3491   -0.2013    0.0000 C   0  0  0  0  0  0  0  0  0  0  0  0
   -3.8978   -2.2504    0.0000 C   0  0  0  0  0  0  0  0  0  0  0  0
    2.7772    0.4897    0.0000 C   0  0  0  0  0  0  0  0  0  0  0  0
    1.8127    2.1596    0.0000 C   0  0  0  0  0  0  0  0  0  0  0  0
   -1.3000    0.7500    0.0000 C   0  0  0  0  0  0  0  0  0  0  0  0
    0.0000    1.5000    0.0000 C   0  0  0  0  0  0  0  0  0  0  0  0
   -0.0000   -1.5000    0.0000 C   0  0  0  0  0  0  0  0  0  0  0  0
    2.5989   -1.5002    0.0000 C   0  0  0  0  0  0  0  0  0  0  0  0
   -1.3000   -0.7500    0.0000 C   0  0  0  0  0  0  0  0  0  0  0  0
    1.3000   -0.7500    0.0000 C   0  0  0  0  0  0  0  0  0  0  0  0
   -2.5989   -1.5002    0.0000 C   0  0  0  0  0  0  0  0  0  0  0  0
    1.3000    0.7500    0.0000 C   0  0  0  0  0  0  0  0  0  0  0  0
   -1.8487   -2.7991    0.0000 O   0  0  0  0  0  0  0  0  0  0  0  0
  7  1  2  0
  9  8  1  0
 11  2  2  0
 11  3  1  0
 12  8  1  0
 12 10  1  0
 13 10  1  0
 13 11  1  6
 14  4  1  0
 14  5  1  0
 12 14  1  6
 15  6  1  6
 15  7  1  0
 15  9  1  0
 15 13  1  0
 14 16  1  0
M  END
>  <NAME>  (3100) 
ELEMOL

>  <SYNONYMS>  (3100) 


>  <SPECTRUM TYPE>  (3100) 
MS1

>  <INSTRUMENT TYPE>  (3100) 
EI-B

>  <INSTRUMENT>  (3100) 
JEOL JMS-D-300

>  <ION MODE>  (3100) 
P

>  <INCHIKEY>  (3100) 
GFJIQNADMLPFOW-VNHYZAJKSA-N

>  <FORMULA>  (3100) 
C15H26O

>  <EXACT MASS>  (3100) 
222.198365452

>  <MW>  (3100) 
222

>  <ID>  (3100) 
JP007927

>  <CONTRIBUTOR>  (3100) 
University of Tokyo Team, {Faculty of Engineering, University of Tokyo

>  <COMMENT>  (3100) 
SMILES=C=CC(C)(C1)C([H])(C(C)=C)CC([H])(C1)C(C)(C)O
InChI=InChI=1S/C15H26O/c1-7-15(6)9-8-12(14(4,5)16)10-13(15)11(2)3/h7,12-13,16H,1-2,8-10H2,3-6H3/t12-,13+,15-/m1/s1
computed SMILES=OC(C)(C)C1CCC(C=C)(C)C(C(=C)C)C1
accession=JP007927
date=2016.01.19 (Created 2008.10.21, modified 2011.05.06)
author=FUJISE Y, HAMAMATSU UNIV. SCHOOL OF MEDICINE
license=CC BY-NC-SA
exact mass=222.19837
ionization energy=70 eV
ion type=[M]+*
computed spectral entropy=3.7372343224027755
computed normalized entropy=0.8656038474514136
SPLASH=splash10-0aou-9600000000-99b4767c613a86377a88
submitter=submitter = University of Tokyo Team (Faculty of Engineering, University of Tokyo)
MoNA Rating=3.75

>  <NUM PEAKS>  (3100) 
75

>  <MASS SPECTRAL PEAKS>  (3100) 
51 3.21
52 2.07
53 20.54
54 2.4
55 35.02
56 2.6
57 6.91
58 1.53
59 95.39
60 3.08
65 7.92
66 2.57
67 42.24
68 38.06
69 33.58
70 3.77
71 12.13
72 1.81
77 16.99
78 3.21
79 41.17
80 19.85
81 69.19
82 15.17
83 8.39
84 4.7
85 2.18
91 23.94
92 13.15
93 99.99
94 30.16
95 35.67
96 8.82
97 3.21
103 1.39
105 34.95
106 9.29
107 55.66
108 28.36
109 20.12
110 2.91
111 1.54
115 1.24
117 1.69
118 1.35
119 29.49
120 10.12
121 47.39
122 13.98
123 14.57
124 1.97
131 1.47
133 18.66
134 10.18
135 27.53
136 14.75
137 3.23
139 1.2
145 1.47
147 18.75
148 10.51
149 13.28
150 1.95
151 1.03
160 1.35
161 54.38
162 12.22
163 10.97
164 5.44
175 4.36
176 1.87
189 23.32
190 3.48
204 13.88
205 2.73

$$$$

     RDKit          2D

 25 25  0  0  0  0  0  0  0  0999 V2000
  -14.9389    8.1950    0.0000 C   0  0  0  0  0  0  0  0  0  0  0  0
  -13.6399    7.4450    0.0000 C   0  0  0  0  0  0  0  0  0  0  0  0
  -12.3409    8.1950    0.0000 C   0  0  0  0  0  0  0  0  0  0  0  0
  -11.0418    7.4450    0.0000 C   0  0  0  0  0  0  0  0  0  0  0  0
   -9.7428    8.1950    0.0000 C   0  0  0  0  0  0  0  0  0  0  0  0
   -8.4437    7.4450    0.0000 C   0  0  0  0  0  0  0  0  0  0  0  0
   -7.1447    8.1950    0.0000 C   0  0  0  0  0  0  0  0  0  0  0  0
   -5.8457    7.4450    0.0000 C   0  0  0  0  0  0  0  0  0  0  0  0
   -4.5466    8.1950    0.0000 C   0  0  0  0  0  0  0  0  0  0  0  0
   -3.2476    7.4450    0.0000 C   0  0  0  0  0  0  0  0  0  0  0  0
    7.1447    5.9450    0.0000 C   0  0  0  0  0  0  0  0  0  0  0  0
    7.1452    7.4458    0.0000 C   0  0  0  0  0  0  0  0  0  0  0  0
    5.8452    5.1942    0.0000 C   0  0  0  0  0  0  0  0  0  0  0  0
   -1.9486    8.1950    0.0000 C   0  0  0  0  0  0  0  0  0  0  0  0
    5.8462    8.1958    0.0000 C   0  0  0  0  0  0  0  0  0  0  0  0
    4.5462    5.9442    0.0000 C   0  0  0  0  0  0  0  0  0  0  0  0
   -0.6495    7.4450    0.0000 C   0  0  0  0  0  0  0  0  0  0  0  0
    0.6495    9.6950    0.0000 C   0  0  0  0  0  0  0  0  0  0  0  0
    3.2476    8.1950    0.0000 C   0  0  0  0  0  0  0  0  0  0  0  0
    4.5466    7.4450    0.0000 C   0  0  0  0  0  0  0  0  0  0  0  0
    0.6495    8.1950    0.0000 C   0  0  0  0  0  0  0  0  0  0  0  0
    1.9486   10.4450    0.0000 C   0  0  0  0  0  0  0  0  0  0  0  0
    1.9486    7.4450    0.0000 N   0  0  0  0  0  0  0  0  0  0  0  0
    3.2476    9.6950    0.0000 O   0  0  0  0  0  0  0  0  0  0  0  0
    1.9486   11.9450    0.0000 O   0  0  0  0  0  0  0  0  0  0  0  0
  2  1  1  0
  3  2  1  0
  4  3  1  0
  5  4  1  0
  6  5  1  0
  7  6  1  0
  8  7  1  0
  9  8  1  0
 10  9  1  0
 12 11  2  0
 13 11  1  0
 14 10  1  0
 15 12  1  0
 16 13  2  0
 17 14  1  0
 20 15  2  0
 20 16  1  0
 20 19  1  0
 21 17  1  0
 21 18  1  0
 22 18  1  0
 23 19  1  0
 23 21  1  0
 24 22  2  0
 25 22  1  0
M  END
>  <NAME>  (3101) 
3-(BENZYLAMINO)PENTADECANOIC ACID

>  <SYNONYMS>  (3101) 


>  <SPECTRUM TYPE>  (3101) 
MS1

>  <INSTRUMENT TYPE>  (3101) 
EI-B

>  <INSTRUMENT>  (3101) 
JEOL JMS-DX-300

>  <ION MODE>  (3101) 
P

>  <INCHIKEY>  (3101) 
URBZNYXWHOGCJC-UHFFFAOYSA-N

>  <FORMULA>  (3101) 
C22H37NO2

>  <EXACT MASS>  (3101) 
347.282429424

>  <MW>  (3101) 
347

>  <ID>  (3101) 
JP007926

>  <CONTRIBUTOR>  (3101) 
University of Tokyo Team, {Faculty of Engineering, University of Tokyo

>  <COMMENT>  (3101) 
SMILES=CCCCCCCCCCCCC(CC(O)=O)NCc(c1)cccc1
InChI=InChI=1S/C22H37NO2/c1-2-3-4-5-6-7-8-9-10-14-17-21(18-22(24)25)23-19-20-15-12-11-13-16-20/h11-13,15-16,21,23H,2-10,14,17-19H2,1H3,(H,24,25)
computed SMILES=O=C(O)CC(NCC=1C=CC=CC1)CCCCCCCCCCCC
accession=JP007926
date=2016.01.19 (Created 2008.10.21, modified 2011.05.06)
author=MASS SPECTROSCOPY SOC. OF JAPAN (MSSJ)
license=CC BY-NC-SA
exact mass=347.28243
ionization energy=70 eV
ion type=[M]+*
computed spectral entropy=2.1685139674418776
computed normalized entropy=0.8217002120821755
SPLASH=splash10-003u-4900000000-1fcebcad55d9fd43229c
submitter=submitter = University of Tokyo Team (Faculty of Engineering, University of Tokyo)
MoNA Rating=3.75

>  <NUM PEAKS>  (3101) 
14

>  <MASS SPECTRAL PEAKS>  (3101) 
55 9.04
57 8
79 8.14
91 99.99
92 8.71
106 29.61
107 16.09
132 23.01
133 93.64
134 10.2
146 15.83
178 72.43
179 8.14
274 11.07

$$$$

     RDKit          2D

 25 25  0  0  0  0  0  0  0  0999 V2000
  -14.9389    8.1950    0.0000 C   0  0  0  0  0  0  0  0  0  0  0  0
  -13.6399    7.4450    0.0000 C   0  0  0  0  0  0  0  0  0  0  0  0
  -12.3409    8.1950    0.0000 C   0  0  0  0  0  0  0  0  0  0  0  0
  -11.0418    7.4450    0.0000 C   0  0  0  0  0  0  0  0  0  0  0  0
   -9.7428    8.1950    0.0000 C   0  0  0  0  0  0  0  0  0  0  0  0
   -8.4437    7.4450    0.0000 C   0  0  0  0  0  0  0  0  0  0  0  0
   -7.1447    8.1950    0.0000 C   0  0  0  0  0  0  0  0  0  0  0  0
   -5.8457    7.4450    0.0000 C   0  0  0  0  0  0  0  0  0  0  0  0
   -4.5466    8.1950    0.0000 C   0  0  0  0  0  0  0  0  0  0  0  0
   -3.2476    7.4450    0.0000 C   0  0  0  0  0  0  0  0  0  0  0  0
    7.1447    5.9450    0.0000 C   0  0  0  0  0  0  0  0  0  0  0  0
    7.1452    7.4458    0.0000 C   0  0  0  0  0  0  0  0  0  0  0  0
    5.8452    5.1942    0.0000 C   0  0  0  0  0  0  0  0  0  0  0  0
   -1.9486    8.1950    0.0000 C   0  0  0  0  0  0  0  0  0  0  0  0
    5.8462    8.1958    0.0000 C   0  0  0  0  0  0  0  0  0  0  0  0
    4.5462    5.9442    0.0000 C   0  0  0  0  0  0  0  0  0  0  0  0
   -0.6495    7.4450    0.0000 C   0  0  0  0  0  0  0  0  0  0  0  0
    0.6495    9.6950    0.0000 C   0  0  0  0  0  0  0  0  0  0  0  0
    3.2476    8.1950    0.0000 C   0  0  0  0  0  0  0  0  0  0  0  0
    4.5466    7.4450    0.0000 C   0  0  0  0  0  0  0  0  0  0  0  0
    0.6495    8.1950    0.0000 C   0  0  0  0  0  0  0  0  0  0  0  0
    1.9486   10.4450    0.0000 C   0  0  0  0  0  0  0  0  0  0  0  0
    1.9486    7.4450    0.0000 N   0  0  0  0  0  0  0  0  0  0  0  0
    3.2476    9.6950    0.0000 O   0  0  0  0  0  0  0  0  0  0  0  0
    1.9486   11.9450    0.0000 O   0  0  0  0  0  0  0  0  0  0  0  0
  2  1  1  0
  3  2  1  0
  4  3  1  0
  5  4  1  0
  6  5  1  0
  7  6  1  0
  8  7  1  0
  9  8  1  0
 10  9  1  0
 12 11  2  0
 13 11  1  0
 14 10  1  0
 15 12  1  0
 16 13  2  0
 17 14  1  0
 20 15  2  0
 20 16  1  0
 20 19  1  0
 21 17  1  0
 21 18  1  0
 22 18  1  0
 23 19  1  0
 23 21  1  0
 24 22  2  0
 25 22  1  0
M  END
>  <NAME>  (3102) 
3-(BENZYLAMINO)PENTADECANOIC ACID

>  <SYNONYMS>  (3102) 


>  <SPECTRUM TYPE>  (3102) 
MS1

>  <INSTRUMENT TYPE>  (3102) 
EI-B

>  <INSTRUMENT>  (3102) 
JEOL JMS-DX-300

>  <ION MODE>  (3102) 
P

>  <INCHIKEY>  (3102) 
URBZNYXWHOGCJC-UHFFFAOYSA-N

>  <FORMULA>  (3102) 
C22H37NO2

>  <EXACT MASS>  (3102) 
347.282429424

>  <MW>  (3102) 
347

>  <ID>  (3102) 
JP007925

>  <CONTRIBUTOR>  (3102) 
University of Tokyo Team, {Faculty of Engineering, University of Tokyo

>  <COMMENT>  (3102) 
SMILES=CCCCCCCCCCCCC(CC(O)=O)NCc(c1)cccc1
InChI=InChI=1S/C22H37NO2/c1-2-3-4-5-6-7-8-9-10-14-17-21(18-22(24)25)23-19-20-15-12-11-13-16-20/h11-13,15-16,21,23H,2-10,14,17-19H2,1H3,(H,24,25)
computed SMILES=O=C(O)CC(NCC=1C=CC=CC1)CCCCCCCCCCCC
accession=JP007925
date=2016.01.19 (Created 2008.10.21, modified 2011.05.06)
author=MASS SPECTROSCOPY SOC. OF JAPAN (MSSJ)
license=CC BY-NC-SA
exact mass=347.28243
ionization energy=70 eV
ion type=[M]+*
computed spectral entropy=2.1685139674418776
computed normalized entropy=0.8217002120821755
SPLASH=splash10-003u-4900000000-1fcebcad55d9fd43229c
submitter=submitter = University of Tokyo Team (Faculty of Engineering, University of Tokyo)
MoNA Rating=3.75

>  <NUM PEAKS>  (3102) 
14

>  <MASS SPECTRAL PEAKS>  (3102) 
55 9.04
57 8
79 8.14
91 99.99
92 8.71
106 29.61
107 16.09
132 23.01
133 93.64
134 10.2
146 15.83
178 72.43
179 8.14
274 11.07

$$$$

     RDKit          2D

 16 16  0  0  0  0  0  0  0  0999 V2000
   -6.8197    3.1321    0.0000 C   0  0  0  0  0  0  0  0  0  0  0  0
   -5.5207    3.8821    0.0000 C   0  0  0  0  0  0  0  0  0  0  0  0
    3.5726    1.6321    0.0000 C   0  0  0  0  0  0  0  0  0  0  0  0
    3.5731    3.1329    0.0000 C   0  0  0  0  0  0  0  0  0  0  0  0
    2.2731    0.8813    0.0000 C   0  0  0  0  0  0  0  0  0  0  0  0
   -4.2216    3.1321    0.0000 C   0  0  0  0  0  0  0  0  0  0  0  0
    2.2740    3.8829    0.0000 C   0  0  0  0  0  0  0  0  0  0  0  0
    0.9740    1.6313    0.0000 C   0  0  0  0  0  0  0  0  0  0  0  0
   -2.9226    5.3821    0.0000 C   0  0  0  0  0  0  0  0  0  0  0  0
   -0.3245    3.8821    0.0000 C   0  0  0  0  0  0  0  0  0  0  0  0
    0.9745    3.1321    0.0000 C   0  0  0  0  0  0  0  0  0  0  0  0
   -2.9226    3.8821    0.0000 C   0  0  0  0  0  0  0  0  0  0  0  0
   -4.2216    6.1321    0.0000 C   0  0  0  0  0  0  0  0  0  0  0  0
   -1.6236    3.1321    0.0000 N   0  0  0  0  0  0  0  0  0  0  0  0
   -5.5207    5.3821    0.0000 O   0  0  0  0  0  0  0  0  0  0  0  0
   -4.2216    7.6321    0.0000 O   0  0  0  0  0  0  0  0  0  0  0  0
  2  1  1  0
  4  3  2  0
  5  3  1  0
  6  2  1  0
  7  4  1  0
  8  5  2  0
 11  7  2  0
 11  8  1  0
 11 10  1  0
 12  6  1  0
 12  9  1  0
 13  9  1  0
 14 10  1  0
 14 12  1  0
 15 13  2  0
 16 13  1  0
M  END
>  <NAME>  (3103) 
3-(BENZYLAMINO)CAPROIC ACID

>  <SYNONYMS>  (3103) 
3-(BENZYLAMINO)HEXANOIC ACID

>  <SPECTRUM TYPE>  (3103) 
MS1

>  <INSTRUMENT TYPE>  (3103) 
EI-B

>  <INSTRUMENT>  (3103) 
JEOL JMS-DX-300

>  <ION MODE>  (3103) 
P

>  <INCHIKEY>  (3103) 
JQKKEYCMOYWIOU-UHFFFAOYSA-N

>  <FORMULA>  (3103) 
C13H19NO2

>  <EXACT MASS>  (3103) 
221.141578848

>  <MW>  (3103) 
221

>  <ID>  (3103) 
JP007924

>  <CONTRIBUTOR>  (3103) 
University of Tokyo Team, {Faculty of Engineering, University of Tokyo

>  <COMMENT>  (3103) 
SMILES=CCCC(CC(O)=O)NCc(c1)cccc1
InChI=InChI=1S/C13H19NO2/c1-2-6-12(9-13(15)16)14-10-11-7-4-3-5-8-11/h3-5,7-8,12,14H,2,6,9-10H2,1H3,(H,15,16)
computed SMILES=O=C(O)CC(NCC=1C=CC=CC1)CCC
accession=JP007924
date=2016.01.19 (Created 2008.10.21, modified 2011.05.06)
author=MASS SPECTROSCOPY SOC. OF JAPAN (MSSJ)
license=CC BY-NC-SA
exact mass=221.14158
ionization energy=70 eV
ion type=[M]+*
computed spectral entropy=1.568730472692253
computed normalized entropy=0.7543998911481711
SPLASH=splash10-0006-9400000000-cd9396e4536c16e849b0
submitter=submitter = University of Tokyo Team (Faculty of Engineering, University of Tokyo)
MoNA Rating=3.75

>  <NUM PEAKS>  (3103) 
8

>  <MASS SPECTRAL PEAKS>  (3103) 
65 12.51
91 99.99
92 9.59
106 11.1
132 7.53
133 19.84
162 7.01
178 21.55

$$$$

     RDKit          2D

 21 23  0  0  0  0  0  0  0  0999 V2000
   -9.9251    0.7010    0.0000 C   0  0  0  0  0  0  0  0  0  0  0  0
   -8.6262   -0.0492    0.0000 C   0  0  0  0  0  0  0  0  0  0  0  0
    3.0600    2.2000    0.0000 C   0  0  0  0  0  0  0  0  0  0  0  0
    1.7600    2.9500    0.0000 C   0  0  0  0  0  0  0  0  0  0  0  0
    3.0600    0.7000    0.0000 C   0  0  0  0  0  0  0  0  0  0  0  0
    0.4600    2.2000    0.0000 C   0  0  0  0  0  0  0  0  0  0  0  0
    1.7600   -1.5500    0.0000 C   0  0  0  0  0  0  0  0  0  0  0  0
    0.4600   -2.3000    0.0000 C   0  0  0  0  0  0  0  0  0  0  0  0
   -4.7289    0.7002    0.0000 C   0  0  0  0  0  0  0  0  0  0  0  0
   -3.4300   -1.5500    0.0000 C   0  0  0  0  0  0  0  0  0  0  0  0
    1.7600   -0.0500    0.0000 C   0  0  0  0  0  0  0  0  0  0  0  0
   -3.4300   -0.0500    0.0000 C   0  0  0  0  0  0  0  0  0  0  0  0
    0.4600    0.7000    0.0000 C   0  0  0  0  0  0  0  0  0  0  0  0
   -0.8300   -1.5500    0.0000 C   0  0  0  0  0  0  0  0  0  0  0  0
   -6.0281   -0.0496    0.0000 C   0  0  0  0  0  0  0  0  0  0  0  0
   -2.1300    0.7000    0.0000 C   0  0  0  0  0  0  0  0  0  0  0  0
   -2.1300   -2.3000    0.0000 N   0  0  0  0  0  0  0  0  0  0  0  0
   -0.8300   -0.0500    0.0000 N   0  0  0  0  0  0  0  0  0  0  0  0
   -6.0283   -1.5496    0.0000 O   0  0  0  0  0  0  0  0  0  0  0  0
   -2.1300    2.2000    0.0000 O   0  0  0  0  0  0  0  0  0  0  0  0
   -7.3270    0.7006    0.0000 O   0  0  0  0  0  0  0  0  0  0  0  0
  2  1  1  0
  4  3  2  0
  5  3  1  0
  6  4  1  0
  8  7  2  0
 11  5  2  0
 11  7  1  0
 12  9  1  0
 12 10  2  0
 13  6  2  0
 13 11  1  0
 14  8  1  0
 15  9  1  0
 16 12  1  0
 17 10  1  0
 17 14  2  0
 18 13  1  0
 18 14  1  0
 18 16  1  0
 19 15  2  0
 20 16  2  0
 21  2  1  0
 21 15  1  0
M  END
>  <NAME>  (3104) 
1-OXO-1H-PYRIMIDO(1,2-A)QUINOLINE-2-ACETICACID ETHYL ESTER

>  <SYNONYMS>  (3104) 


>  <SPECTRUM TYPE>  (3104) 
MS1

>  <INSTRUMENT TYPE>  (3104) 
EI-B

>  <INSTRUMENT>  (3104) 
MS-902

>  <ION MODE>  (3104) 
P

>  <INCHIKEY>  (3104) 
GKZJDLVDRPMCOY-UHFFFAOYSA-N

>  <FORMULA>  (3104) 
C16H14N2O3

>  <EXACT MASS>  (3104) 
282.10044230799997

>  <MW>  (3104) 
282

>  <ID>  (3104) 
JP007919

>  <CONTRIBUTOR>  (3104) 
University of Tokyo Team, {Faculty of Engineering, University of Tokyo

>  <COMMENT>  (3104) 
SMILES=CCOC(=O)CC(=C([H])3)C(=O)N(c21)C(=N3)C([H])=C([H])c(cccc2)1
InChI=InChI=1S/C16H14N2O3/c1-2-21-15(19)9-12-10-17-14-8-7-11-5-3-4-6-13(11)18(14)16(12)20/h3-8,10H,2,9H2,1H3
computed SMILES=O=C(OCC)CC1=CN=C2C=CC=3C=CC=CC3N2C1=O
author=SASAKI S, TOYOHASHI UNIV. OF TECH.
license=CC BY-NC-SA
exact mass=282.10044
accession=JP007919
date=2016.01.19 (Created 2008.10.21, modified 2011.05.06)
ionization energy=70 eV
ion type=[M]+*
computed spectral entropy=1.6206334356490686
computed normalized entropy=0.5984502927565563
SPLASH=splash10-0a4i-0290000000-786ca2e498d86897f8f6
submitter=submitter = University of Tokyo Team (Faculty of Engineering, University of Tokyo)
MoNA Rating=3.75

>  <NUM PEAKS>  (3104) 
15

>  <MASS SPECTRAL PEAKS>  (3104) 
55 3.1
64 2
77 2.6
101 0.43
128 27.1
129 4.3
155 2
180 0.23
181 7.4
209 99.99
210 1.7
236 0.31
237 4.9
282 37.1
283 6.3

$$$$

     RDKit          2D

 21 23  0  0  0  0  0  0  0  0999 V2000
   -9.9251    0.7010    0.0000 C   0  0  0  0  0  0  0  0  0  0  0  0
   -8.6262   -0.0492    0.0000 C   0  0  0  0  0  0  0  0  0  0  0  0
    3.0600    2.2000    0.0000 C   0  0  0  0  0  0  0  0  0  0  0  0
    1.7600    2.9500    0.0000 C   0  0  0  0  0  0  0  0  0  0  0  0
    3.0600    0.7000    0.0000 C   0  0  0  0  0  0  0  0  0  0  0  0
    0.4600    2.2000    0.0000 C   0  0  0  0  0  0  0  0  0  0  0  0
    1.7600   -1.5500    0.0000 C   0  0  0  0  0  0  0  0  0  0  0  0
    0.4600   -2.3000    0.0000 C   0  0  0  0  0  0  0  0  0  0  0  0
   -7.3270    0.7006    0.0000 C   0  0  0  0  0  0  0  0  0  0  0  0
   -3.4300   -1.5500    0.0000 C   0  0  0  0  0  0  0  0  0  0  0  0
    1.7600   -0.0500    0.0000 C   0  0  0  0  0  0  0  0  0  0  0  0
   -3.4300   -0.0500    0.0000 C   0  0  0  0  0  0  0  0  0  0  0  0
    0.4600    0.7000    0.0000 C   0  0  0  0  0  0  0  0  0  0  0  0
   -0.8300   -1.5500    0.0000 C   0  0  0  0  0  0  0  0  0  0  0  0
   -2.1300    0.7000    0.0000 C   0  0  0  0  0  0  0  0  0  0  0  0
   -4.7289    0.7002    0.0000 C   0  0  0  0  0  0  0  0  0  0  0  0
   -2.1300   -2.3000    0.0000 N   0  0  0  0  0  0  0  0  0  0  0  0
   -0.8300   -0.0500    0.0000 N   0  0  0  0  0  0  0  0  0  0  0  0
   -2.1300    2.2000    0.0000 O   0  0  0  0  0  0  0  0  0  0  0  0
   -4.7287    2.2002    0.0000 O   0  0  0  0  0  0  0  0  0  0  0  0
   -6.0281   -0.0496    0.0000 O   0  0  0  0  0  0  0  0  0  0  0  0
  2  1  1  0
  4  3  2  0
  5  3  1  0
  6  4  1  0
  8  7  2  0
  9  2  1  0
 11  5  2  0
 11  7  1  0
 12 10  2  0
 13  6  2  0
 13 11  1  0
 14  8  1  0
 15 12  1  0
 16 12  1  0
 17 10  1  0
 17 14  2  0
 18 13  1  0
 18 14  1  0
 18 15  1  0
 19 15  2  0
 20 16  2  0
 21  9  1  0
 21 16  1  0
M  END
>  <NAME>  (3105) 
1-OXO-1H-PYRIMIDO(1,2-A)QUINOLINE-2-CARBOXYLIC ACID PROPYL ESTER

>  <SYNONYMS>  (3105) 


>  <SPECTRUM TYPE>  (3105) 
MS1

>  <INSTRUMENT TYPE>  (3105) 
EI-B

>  <INSTRUMENT>  (3105) 
MS-902

>  <ION MODE>  (3105) 
P

>  <INCHIKEY>  (3105) 
YTDVVJLYXSIROL-UHFFFAOYSA-N

>  <FORMULA>  (3105) 
C16H14N2O3

>  <EXACT MASS>  (3105) 
282.10044230799997

>  <MW>  (3105) 
282

>  <ID>  (3105) 
JP007918

>  <CONTRIBUTOR>  (3105) 
University of Tokyo Team, {Faculty of Engineering, University of Tokyo

>  <COMMENT>  (3105) 
SMILES=CCCOC(=O)C(=C3)C(=O)N(C1=N3)c(c2)c(ccc2)C=C1
InChI=InChI=1S/C16H14N2O3/c1-2-9-21-16(20)12-10-17-14-8-7-11-5-3-4-6-13(11)18(14)15(12)19/h3-8,10H,2,9H2,1H3
computed SMILES=O=C(OCCC)C1=CN=C2C=CC=3C=CC=CC3N2C1=O
accession=JP007918
date=2016.01.19 (Created 2008.10.21, modified 2011.05.06)
author=SASAKI S, TOYOHASHI UNIV. OF TECH.
license=CC BY-NC-SA
exact mass=282.10044
ionization energy=70 eV
ion type=[M]+*
computed spectral entropy=2.6370192590001826
computed normalized entropy=0.809374193866442
SPLASH=splash10-00pj-1950000000-a6d95291ab3ab5d3dc6c
submitter=submitter = University of Tokyo Team (Faculty of Engineering, University of Tokyo)
MoNA Rating=3.75

>  <NUM PEAKS>  (3105) 
26

>  <MASS SPECTRAL PEAKS>  (3105) 
64 12
69 40
77 8.2
101 1.6
119 12
128 99.99
129 24.8
140 1.2
155 8.9
168 53
169 15
194 0.45
195 23
196 57
197 8
212 2.8
213 4.5
219 5.8
223 58
224 0.97
240 17
241 3.6
254 4.2
268 0.57
282 75
283 16

$$$$

     RDKit          2D

 21 23  0  0  0  0  0  0  0  0999 V2000
   -8.6262   -0.0492    0.0000 C   0  0  0  0  0  0  0  0  0  0  0  0
   -7.3268    2.2006    0.0000 C   0  0  0  0  0  0  0  0  0  0  0  0
    3.0600    2.2000    0.0000 C   0  0  0  0  0  0  0  0  0  0  0  0
    1.7600    2.9500    0.0000 C   0  0  0  0  0  0  0  0  0  0  0  0
    3.0600    0.7000    0.0000 C   0  0  0  0  0  0  0  0  0  0  0  0
    0.4600    2.2000    0.0000 C   0  0  0  0  0  0  0  0  0  0  0  0
    1.7600   -1.5500    0.0000 C   0  0  0  0  0  0  0  0  0  0  0  0
    0.4600   -2.3000    0.0000 C   0  0  0  0  0  0  0  0  0  0  0  0
   -3.4300   -1.5500    0.0000 C   0  0  0  0  0  0  0  0  0  0  0  0
   -7.3270    0.7006    0.0000 C   0  0  0  0  0  0  0  0  0  0  0  0
    1.7600   -0.0500    0.0000 C   0  0  0  0  0  0  0  0  0  0  0  0
   -3.4300   -0.0500    0.0000 C   0  0  0  0  0  0  0  0  0  0  0  0
    0.4600    0.7000    0.0000 C   0  0  0  0  0  0  0  0  0  0  0  0
   -0.8300   -1.5500    0.0000 C   0  0  0  0  0  0  0  0  0  0  0  0
   -2.1300    0.7000    0.0000 C   0  0  0  0  0  0  0  0  0  0  0  0
   -4.7289    0.7002    0.0000 C   0  0  0  0  0  0  0  0  0  0  0  0
   -2.1300   -2.3000    0.0000 N   0  0  0  0  0  0  0  0  0  0  0  0
   -0.8300   -0.0500    0.0000 N   0  0  0  0  0  0  0  0  0  0  0  0
   -2.1300    2.2000    0.0000 O   0  0  0  0  0  0  0  0  0  0  0  0
   -4.7287    2.2002    0.0000 O   0  0  0  0  0  0  0  0  0  0  0  0
   -6.0281   -0.0496    0.0000 O   0  0  0  0  0  0  0  0  0  0  0  0
  4  3  2  0
  5  3  1  0
  6  4  1  0
  8  7  2  0
 10  1  1  0
 10  2  1  0
 11  5  2  0
 11  7  1  0
 12  9  2  0
 13  6  2  0
 13 11  1  0
 14  8  1  0
 15 12  1  0
 16 12  1  0
 17  9  1  0
 17 14  2  0
 18 13  1  0
 18 14  1  0
 18 15  1  0
 19 15  2  0
 20 16  2  0
 21 10  1  0
 21 16  1  0
M  END
>  <NAME>  (3106) 
1-OXO-1H-PYRIMIDO(1,2-A)QUINOLINE-2-CARBOXYLIC ACID ISOPROPYL ESTER

>  <SYNONYMS>  (3106) 


>  <SPECTRUM TYPE>  (3106) 
MS1

>  <INSTRUMENT TYPE>  (3106) 
EI-B

>  <INSTRUMENT>  (3106) 
MS-902

>  <ION MODE>  (3106) 
P

>  <INCHIKEY>  (3106) 
FKFQNAKEKPOTSM-UHFFFAOYSA-N

>  <FORMULA>  (3106) 
C16H14N2O3

>  <EXACT MASS>  (3106) 
282.10044230799997

>  <MW>  (3106) 
282

>  <ID>  (3106) 
JP007917

>  <CONTRIBUTOR>  (3106) 
University of Tokyo Team, {Faculty of Engineering, University of Tokyo

>  <COMMENT>  (3106) 
SMILES=CC(C)OC(=O)C(=C3)C(=O)N(C1=N3)c(c2)c(ccc2)C=C1
InChI=InChI=1S/C16H14N2O3/c1-10(2)21-16(20)12-9-17-14-8-7-11-5-3-4-6-13(11)18(14)15(12)19/h3-10H,1-2H3
computed SMILES=O=C(OC(C)C)C1=CN=C2C=CC=3C=CC=CC3N2C1=O
accession=JP007917
date=2016.01.19 (Created 2008.10.21, modified 2011.05.06)
author=SASAKI S, TOYOHASHI UNIV. OF TECH.
license=CC BY-NC-SA
exact mass=282.10044
ionization energy=70 eV
ion type=[M]+*
computed spectral entropy=2.483325980129761
computed normalized entropy=0.7813983376920576
SPLASH=splash10-003s-1960000000-f7e3559e8121ddd5a055
submitter=submitter = University of Tokyo Team (Faculty of Engineering, University of Tokyo)
MoNA Rating=3.75

>  <NUM PEAKS>  (3106) 
24

>  <MASS SPECTRAL PEAKS>  (3106) 
64 6.5
69 16
77 6.4
101 1.2
128 67
129 15
140 9.8
155 0.52
167 5.2
168 37
169 7.5
194 0.4
195 19
196 79
197 10
212 5
223 37
224 12
239 3.5
240 0.77
254 2.3
268 3.2
282 99.99
283 17

$$$$

     RDKit          2D

 20 22  0  0  0  0  0  0  0  0999 V2000
   -5.1968   -3.0006    0.0000 C   0  0  0  0  0  0  0  0  0  0  0  0
   -3.8971   -3.7512    0.0000 C   0  0  0  0  0  0  0  0  0  0  0  0
   -5.1975   -1.4998    0.0000 C   0  0  0  0  0  0  0  0  0  0  0  0
    5.1989    1.5002    0.0000 C   0  0  0  0  0  0  0  0  0  0  0  0
    5.1989    3.0002    0.0000 C   0  0  0  0  0  0  0  0  0  0  0  0
   -2.5982   -3.0010    0.0000 C   0  0  0  0  0  0  0  0  0  0  0  0
   -3.8986   -0.7496    0.0000 C   0  0  0  0  0  0  0  0  0  0  0  0
    3.8989    0.7502    0.0000 C   0  0  0  0  0  0  0  0  0  0  0  0
    3.8989    3.7502    0.0000 C   0  0  0  0  0  0  0  0  0  0  0  0
   -0.0000   -1.5000    0.0000 C   0  0  0  0  0  0  0  0  0  0  0  0
   -2.5989   -1.5002    0.0000 C   0  0  0  0  0  0  0  0  0  0  0  0
    2.5989    1.5002    0.0000 C   0  0  0  0  0  0  0  0  0  0  0  0
   -1.3000   -0.7500    0.0000 C   0  0  0  0  0  0  0  0  0  0  0  0
    2.5989    3.0002    0.0000 C   0  0  0  0  0  0  0  0  0  0  0  0
   -1.3000    0.7500    0.0000 C   0  0  0  0  0  0  0  0  0  0  0  0
    1.3000    0.7500    0.0000 C   0  0  0  0  0  0  0  0  0  0  0  0
   -2.5989    1.5002    0.0000 Cl  0  0  0  0  0  0  0  0  0  0  0  0
    1.3000   -0.7500    0.0000 N   0  0  0  0  0  0  0  0  0  0  0  0
    0.0000    1.5000    0.0000 N   0  0  0  0  0  0  0  0  0  0  0  0
    1.3000    3.7504    0.0000 O   0  0  0  0  0  0  0  0  0  0  0  0
  2  1  2  0
  3  1  1  0
  5  4  2  0
  6  2  1  0
  7  3  2  0
  8  4  1  0
  9  5  1  0
 11  6  2  0
 11  7  1  0
 12  8  2  0
 13 10  2  0
 13 11  1  0
 14  9  2  0
 14 12  1  0
 15 13  1  0
 16 12  1  0
 17 15  1  0
 18 10  1  0
 18 16  2  0
 19 15  2  0
 19 16  1  0
 20 14  1  0
M  END
>  <NAME>  (3107) 
4-CHLORO-2-(2-HYDROXYPHENYL)-5-PHENYLPYRIMIDINE

>  <SYNONYMS>  (3107) 


>  <SPECTRUM TYPE>  (3107) 
MS1

>  <INSTRUMENT TYPE>  (3107) 
EI-B

>  <INSTRUMENT>  (3107) 
MS-902

>  <ION MODE>  (3107) 
P

>  <INCHIKEY>  (3107) 
LXVBVEUBEWFAIM-UHFFFAOYSA-N

>  <FORMULA>  (3107) 
C16H11ClN2O

>  <EXACT MASS>  (3107) 
282.055990652

>  <MW>  (3107) 
282

>  <ID>  (3107) 
JP007916

>  <CONTRIBUTOR>  (3107) 
University of Tokyo Team, {Faculty of Engineering, University of Tokyo

>  <COMMENT>  (3107) 
SMILES=Oc(c3)c(ccc3)c(n2)nc(Cl)c(c2)c(c1)cccc1
InChI=InChI=1S/C16H11ClN2O/c17-15-13(11-6-2-1-3-7-11)10-18-16(19-15)12-8-4-5-9-14(12)20/h1-10,20H
computed SMILES=ClC=1N=C(N=CC1C2=CC=CC=C2)C=3C=CC=CC3O
accession=JP007916
date=2016.01.19 (Created 2008.10.21, modified 2011.05.06)
author=SASAKI S, TOYOHASHI UNIV. OF TECH.
license=CC BY-NC-SA
exact mass=282.05599
ionization energy=70 eV
ion type=[M]+*
computed spectral entropy=2.5496545726134237
computed normalized entropy=0.6551316292407469
SPLASH=splash10-001i-2290000000-ea70300f5bc1f37d00cd
submitter=submitter = University of Tokyo Team (Faculty of Engineering, University of Tokyo)
MoNA Rating=3.75

>  <NUM PEAKS>  (3107) 
49

>  <MASS SPECTRAL PEAKS>  (3107) 
50 2.5
51 5.1
52 1.6
63 0.24
64 1.9
65 1.3
74 1.7
75 0.19
77 9.2
78 1.1
82.5 8.3
83 0.69
85 4.2
87 1.6
88 1.1
89 0.11
91 2.9
95.5 1.7
96 1.1
101 0.39
102 5.7
103 1.5
109 1.6
109.5 0.11
120 1.7
126 1.1
127 2.6
128 0.92
129 1.1
136 6.2
138 2.4
139 0.11
141 3.8
142 1.5
149 1.7
153 0.11
192 1.3
217 1.5
218 1.1
219 0.19
246 1.1
247 13.7
248 2.9
254 0.32
256 1.3
282 99.99
283 17.5
284 3.29
285 5.1

$$$$

     RDKit          2D

 21 23  0  0  0  0  0  0  0  0999 V2000
   -3.2477    2.2948    0.0000 C   0  0  0  0  0  0  0  0  0  0  0  0
   -1.9482    1.5440    0.0000 C   0  0  0  0  0  0  0  0  0  0  0  0
   -3.2482    3.7957    0.0000 C   0  0  0  0  0  0  0  0  0  0  0  0
   -0.6491    2.2940    0.0000 C   0  0  0  0  0  0  0  0  0  0  0  0
   -1.9491    4.5457    0.0000 C   0  0  0  0  0  0  0  0  0  0  0  0
    1.9486    3.7951    0.0000 C   0  0  0  0  0  0  0  0  0  0  0  0
    5.8462    4.5463    0.0000 C   0  0  0  0  0  0  0  0  0  0  0  0
   -0.6496    3.7948    0.0000 C   0  0  0  0  0  0  0  0  0  0  0  0
    4.5471    3.7963    0.0000 C   0  0  0  0  0  0  0  0  0  0  0  0
    0.6494    4.5448    0.0000 C   0  0  0  0  0  0  0  0  0  0  0  0
    3.2480    4.5461    0.0000 C   0  0  0  0  0  0  0  0  0  0  0  0
    4.5476    2.2955    0.0000 C   0  0  0  0  0  0  0  0  0  0  0  0
    7.1462    2.2946    0.0000 C   0  0  0  0  0  0  0  0  0  0  0  0
    1.9491    6.7967    0.0000 C   0  0  0  0  0  0  0  0  0  0  0  0
    7.1457    3.7955    0.0000 N   0  0  0  0  0  0  0  0  0  0  0  0
    0.6497    6.0457    0.0000 N   0  0  0  0  0  0  0  0  0  0  0  0
    3.2482    6.0469    0.0000 N   0  0  0  0  0  0  0  0  0  0  0  0
    5.8471    1.5446    0.0000 N   0  0  0  0  0  0  0  0  0  0  0  0
    3.2486    1.5455    0.0000 O   0  0  0  0  0  0  0  0  0  0  0  0
    8.4453    1.5448    0.0000 O   0  0  0  0  0  0  0  0  0  0  0  0
    1.9486    8.2967    0.0000 O   0  0  0  0  0  0  0  0  0  0  0  0
  2  1  2  0
  3  1  1  0
  4  2  1  0
  5  3  2  0
  8  4  2  0
  8  5  1  0
  9  7  2  0
 10  6  2  0
 10  8  1  0
 11  6  1  0
 11  9  1  0
 12  9  1  0
 15  7  1  0
 15 13  2  0
 16 10  1  0
 16 14  2  0
 17 11  2  0
 17 14  1  0
 18 12  2  0
 18 13  1  0
 19 12  1  0
 20 13  1  0
 21 14  1  0
M  END
>  <NAME>  (3108) 
4-(2,4-DIOXO-1,2,3,4-TETRAHYDROPYRIMIDIN-5-YL)-6-PHENYL-1,2-DIHYDROPYRIMIDIN-2-ONE

>  <SYNONYMS>  (3108) 


>  <SPECTRUM TYPE>  (3108) 
MS1

>  <INSTRUMENT TYPE>  (3108) 
EI-B

>  <INSTRUMENT>  (3108) 
MS-902

>  <ION MODE>  (3108) 
P

>  <INCHIKEY>  (3108) 
ZBPPVCOFAWPGSG-UHFFFAOYSA-N

>  <FORMULA>  (3108) 
C14H10N4O3

>  <EXACT MASS>  (3108) 
282.07529017999997

>  <MW>  (3108) 
282

>  <ID>  (3108) 
JP007915

>  <CONTRIBUTOR>  (3108) 
University of Tokyo Team, {Faculty of Engineering, University of Tokyo

>  <COMMENT>  (3108) 
SMILES=O=C(N3)NC(=O)C(=C3)C(=N2)C=C(NC(=O)2)c(c1)cccc1
InChI=InChI=1S/C14H10N4O3/c19-12-9(7-15-13(20)18-12)11-6-10(16-14(21)17-11)8-4-2-1-3-5-8/h1-7H,(H,16,17,21)(H2,15,18,19,20)
computed SMILES=OC1=NC=C(C(O)=N1)C=2N=C(O)N=C(C2)C=3C=CC=CC3
accession=JP007915
date=2016.01.19 (Created 2008.10.21, modified 2011.05.06)
author=SASAKI S, TOYOHASHI UNIV. OF TECH.
license=CC BY-NC-SA
exact mass=282.07529
ionization energy=70 eV
ion type=[M]+*
computed spectral entropy=3.476614814678126
computed normalized entropy=0.7533096485761189
SPLASH=splash10-001i-4490000000-8826fcea01d66f3c7c58
submitter=submitter = University of Tokyo Team (Faculty of Engineering, University of Tokyo)
MoNA Rating=3.75

>  <NUM PEAKS>  (3108) 
101

>  <MASS SPECTRAL PEAKS>  (3108) 
60 1.9
62 1.3
63 3.7
64 0.27
65 2.6
66 2.6
67 1.9
68 0.23
69 4
70 1.9
70.5 5.5
71 0.35
72 3.1
73 37
74 1.7
75 0.23
76 5.4
77 21.2
77.5 1.5
78 0.49
79 1.4
80 1.5
81 2.8
82 0.13
83 2.5
88 1
89 2.8
90 0.13
91 2
91.5 2.1
92 2.6
95 0.23
96 1.3
97 2.2
101 2.7
102 0.59
103 4.2
104 19.6
105 13
106 0.19
109 1.4
111 1.1
113 2.4
114 0.23
115 2.5
116 2.4
117 2.2
119 0.14
126 1.4
127 1.8
128 6.3
129 0.38
130 1.8
140 7.8
141 2.8
142 0.12
144 1
150 1.7
152 1.1
153 0.1
154 1.1
155 7.4
156 3.6
167 0.23
168 3.7
169 2.2
171 1.2
172 0.11
178 3.3
182 2.3
183 7.8
184 0.96
185 1.9
195 1.7
196 4.4
197 0.35
198 1.3
209 1.2
210 18.4
211 5.29
212 16.7
213 2.5
214 1.1
223 0.14
236 1.6
237 2.7
238 16.8
239 0.31
240 7
241 1.3
247 1.8
253 0.61
254 8.1
255 1.7
256 1.4
264 0.1
266 1.1
281 59.9
282 99.99
283 2.18
284 3.4

$$$$

     RDKit          2D

 20 22  0  0  0  0  0  0  0  0999 V2000
   -8.6262   -0.0492    0.0000 C   0  0  0  0  0  0  0  0  0  0  0  0
   -7.3270    0.7006    0.0000 C   0  0  0  0  0  0  0  0  0  0  0  0
    3.0600    2.2000    0.0000 C   0  0  0  0  0  0  0  0  0  0  0  0
    1.7600    2.9500    0.0000 C   0  0  0  0  0  0  0  0  0  0  0  0
    3.0600    0.7000    0.0000 C   0  0  0  0  0  0  0  0  0  0  0  0
    0.4600    2.2000    0.0000 C   0  0  0  0  0  0  0  0  0  0  0  0
    1.7600   -1.5500    0.0000 C   0  0  0  0  0  0  0  0  0  0  0  0
    0.4600   -2.3000    0.0000 C   0  0  0  0  0  0  0  0  0  0  0  0
   -3.4300   -1.5500    0.0000 C   0  0  0  0  0  0  0  0  0  0  0  0
    1.7600   -0.0500    0.0000 C   0  0  0  0  0  0  0  0  0  0  0  0
   -3.4300   -0.0500    0.0000 C   0  0  0  0  0  0  0  0  0  0  0  0
    0.4600    0.7000    0.0000 C   0  0  0  0  0  0  0  0  0  0  0  0
   -0.8300   -1.5500    0.0000 C   0  0  0  0  0  0  0  0  0  0  0  0
   -2.1300    0.7000    0.0000 C   0  0  0  0  0  0  0  0  0  0  0  0
   -4.7289    0.7002    0.0000 C   0  0  0  0  0  0  0  0  0  0  0  0
   -2.1300   -2.3000    0.0000 N   0  0  0  0  0  0  0  0  0  0  0  0
   -0.8300   -0.0500    0.0000 N   0  0  0  0  0  0  0  0  0  0  0  0
   -2.1300    2.2000    0.0000 O   0  0  0  0  0  0  0  0  0  0  0  0
   -4.7287    2.2002    0.0000 O   0  0  0  0  0  0  0  0  0  0  0  0
   -6.0281   -0.0496    0.0000 O   0  0  0  0  0  0  0  0  0  0  0  0
  2  1  1  0
  4  3  2  0
  5  3  1  0
  6  4  1  0
  8  7  1  0
 10  5  2  0
 10  7  1  0
 11  9  2  0
 12  6  2  0
 12 10  1  0
 13  8  1  0
 14 11  1  0
 15 11  1  0
 16  9  1  0
 16 13  1  0
 17 12  1  0
 17 13  1  0
 17 14  1  0
 18 14  2  0
 19 15  2  0
 20  2  1  0
 20 15  1  0
M  END
>  <NAME>  (3109) 
1-OXO-4,4A,5,6-TETRAHYDRO-1H-PYRIMIDO(1,2-A)QUINOLINE-2-CARBOXYLIC ACID ETHYL ESTER

>  <SYNONYMS>  (3109) 


>  <SPECTRUM TYPE>  (3109) 
MS1

>  <INSTRUMENT TYPE>  (3109) 
EI-B

>  <INSTRUMENT>  (3109) 
MS-902

>  <ION MODE>  (3109) 
P

>  <INCHIKEY>  (3109) 
SMLHOYYNUFCDHK-UHFFFAOYSA-N

>  <FORMULA>  (3109) 
C15H16N2O3

>  <EXACT MASS>  (3109) 
272.11609237199997

>  <MW>  (3109) 
272

>  <ID>  (3109) 
JP007914

>  <CONTRIBUTOR>  (3109) 
University of Tokyo Team, {Faculty of Engineering, University of Tokyo

>  <COMMENT>  (3109) 
SMILES=CCOC(=O)C(=C3)C(=O)N(C1N3)c(c2)c(ccc2)CC1
InChI=InChI=1S/C15H16N2O3/c1-2-20-15(19)11-9-16-13-8-7-10-5-3-4-6-12(10)17(13)14(11)18/h3-6,9,13,16H,2,7-8H2,1H3
computed SMILES=O=C(OCC)C1=CNC2N(C1=O)C=3C=CC=CC3CC2
accession=JP007914
date=2016.01.19 (Created 2008.10.21, modified 2011.05.06)
author=SASAKI S, TOYOHASHI UNIV. OF TECH.
license=CC BY-NC-SA
exact mass=272.11609
ionization energy=70 eV
ion type=[M]+*
computed spectral entropy=1.9876728209617534
computed normalized entropy=0.6750599469120111
SPLASH=splash10-0089-0950000000-2fe66577603986265a61
submitter=submitter = University of Tokyo Team (Faculty of Engineering, University of Tokyo)
MoNA Rating=3.75

>  <NUM PEAKS>  (3109) 
19

>  <MASS SPECTRAL PEAKS>  (3109) 
77 7
103 5.4
104 4.7
130 5.8
131 99.99
132 21
142 5.2
169 0.69
170 2.2
171 4.9
198 4.8
199 0.85
200 2.6
225 4.4
226 11
227 0.63
243 1.1
272 60
273 10

$$$$

     RDKit          2D

 20 22  0  0  0  0  0  0  0  0999 V2000
   -8.6262   -0.0492    0.0000 C   0  0  0  0  0  0  0  0  0  0  0  0
   -7.3270    0.7006    0.0000 C   0  0  0  0  0  0  0  0  0  0  0  0
    3.0600    2.2000    0.0000 C   0  0  0  0  0  0  0  0  0  0  0  0
    1.7600    2.9500    0.0000 C   0  0  0  0  0  0  0  0  0  0  0  0
    3.0600    0.7000    0.0000 C   0  0  0  0  0  0  0  0  0  0  0  0
    0.4600    2.2000    0.0000 C   0  0  0  0  0  0  0  0  0  0  0  0
    1.7600   -1.5500    0.0000 C   0  0  0  0  0  0  0  0  0  0  0  0
    0.4600   -2.3000    0.0000 C   0  0  0  0  0  0  0  0  0  0  0  0
   -3.4300   -1.5500    0.0000 C   0  0  0  0  0  0  0  0  0  0  0  0
    1.7600   -0.0500    0.0000 C   0  0  0  0  0  0  0  0  0  0  0  0
   -3.4300   -0.0500    0.0000 C   0  0  0  0  0  0  0  0  0  0  0  0
    0.4600    0.7000    0.0000 C   0  0  0  0  0  0  0  0  0  0  0  0
   -0.8300   -1.5500    0.0000 C   0  0  0  0  0  0  0  0  0  0  0  0
   -2.1300    0.7000    0.0000 C   0  0  0  0  0  0  0  0  0  0  0  0
   -4.7289    0.7002    0.0000 C   0  0  0  0  0  0  0  0  0  0  0  0
   -2.1300   -2.3000    0.0000 N   0  0  0  0  0  0  0  0  0  0  0  0
   -0.8300   -0.0500    0.0000 N   0  0  0  0  0  0  0  0  0  0  0  0
   -2.1300    2.2000    0.0000 O   0  0  0  0  0  0  0  0  0  0  0  0
   -4.7287    2.2002    0.0000 O   0  0  0  0  0  0  0  0  0  0  0  0
   -6.0281   -0.0496    0.0000 O   0  0  0  0  0  0  0  0  0  0  0  0
  2  1  1  0
  4  3  2  0
  5  3  1  0
  6  4  1  0
  8  7  1  0
 10  5  2  0
 10  7  1  0
 11  9  2  0
 12  6  2  0
 12 10  1  0
 13  8  1  0
 14 11  1  0
 15 11  1  0
 16  9  1  0
 16 13  2  0
 17 12  1  0
 17 13  1  0
 17 14  1  0
 18 14  2  0
 19 15  2  0
 20  2  1  0
 20 15  1  0
M  END
>  <NAME>  (3110) 
1-OXO-5,6-DIHYDRO-1H-PYRIMIDO(1,2-A)QUINOLINE-2-CARBOXYLIC ACID ETHYL ESTER

>  <SYNONYMS>  (3110) 


>  <SPECTRUM TYPE>  (3110) 
MS1

>  <INSTRUMENT TYPE>  (3110) 
EI-B

>  <INSTRUMENT>  (3110) 
MS-902

>  <ION MODE>  (3110) 
P

>  <INCHIKEY>  (3110) 
MCLUTGHWMIHTGC-UHFFFAOYSA-N

>  <FORMULA>  (3110) 
C15H14N2O3

>  <EXACT MASS>  (3110) 
270.100442308

>  <MW>  (3110) 
270

>  <ID>  (3110) 
JP007913

>  <CONTRIBUTOR>  (3110) 
University of Tokyo Team, {Faculty of Engineering, University of Tokyo

>  <COMMENT>  (3110) 
SMILES=CCOC(=O)C(=C3)C(=O)N(C1=N3)c(c2)c(ccc2)CC1
InChI=InChI=1S/C15H14N2O3/c1-2-20-15(19)11-9-16-13-8-7-10-5-3-4-6-12(10)17(13)14(11)18/h3-6,9H,2,7-8H2,1H3
computed SMILES=O=C(OCC)C1=CN=C2N(C1=O)C=3C=CC=CC3CC2
accession=JP007913
date=2016.01.19 (Created 2008.10.21, modified 2011.05.06)
author=SASAKI S, TOYOHASHI UNIV. OF TECH.
license=CC BY-NC-SA
exact mass=270.10044
ionization energy=70 eV
ion type=[M]+*
computed spectral entropy=2.5136829964806577
computed normalized entropy=0.7464990079267122
SPLASH=splash10-002b-0920000000-2b0e8e22ab9ac21dd61c
submitter=submitter = University of Tokyo Team (Faculty of Engineering, University of Tokyo)
MoNA Rating=3.75

>  <NUM PEAKS>  (3110) 
29

>  <MASS SPECTRAL PEAKS>  (3110) 
77 14
89 4
101 3.2
102 0.5
103 13
104 5.3
115 5.4
116 0.39
117 3.2
128 10
129 4.3
130 5.2
131 6.6
142 5
143 2.9
144 0.26
169 11
170 12
196 4
197 1.7
198 99.99
199 14
225 46
226 0.96
241 4.1
242 1.8
256 1.6
270 5.1
271 8.4

$$$$

     RDKit          2D

 20 22  0  0  0  0  0  0  0  0999 V2000
   -8.6262   -0.0492    0.0000 C   0  0  0  0  0  0  0  0  0  0  0  0
   -7.3270    0.7006    0.0000 C   0  0  0  0  0  0  0  0  0  0  0  0
    3.0600    2.2000    0.0000 C   0  0  0  0  0  0  0  0  0  0  0  0
    1.7600    2.9500    0.0000 C   0  0  0  0  0  0  0  0  0  0  0  0
    3.0600    0.7000    0.0000 C   0  0  0  0  0  0  0  0  0  0  0  0
    0.4600    2.2000    0.0000 C   0  0  0  0  0  0  0  0  0  0  0  0
    1.7600   -1.5500    0.0000 C   0  0  0  0  0  0  0  0  0  0  0  0
    0.4600   -2.3000    0.0000 C   0  0  0  0  0  0  0  0  0  0  0  0
   -3.4300   -1.5500    0.0000 C   0  0  0  0  0  0  0  0  0  0  0  0
    1.7600   -0.0500    0.0000 C   0  0  0  0  0  0  0  0  0  0  0  0
   -3.4300   -0.0500    0.0000 C   0  0  0  0  0  0  0  0  0  0  0  0
    0.4600    0.7000    0.0000 C   0  0  0  0  0  0  0  0  0  0  0  0
   -0.8300   -1.5500    0.0000 C   0  0  0  0  0  0  0  0  0  0  0  0
   -2.1300    0.7000    0.0000 C   0  0  0  0  0  0  0  0  0  0  0  0
   -4.7289    0.7002    0.0000 C   0  0  0  0  0  0  0  0  0  0  0  0
   -2.1300   -2.3000    0.0000 N   0  0  0  0  0  0  0  0  0  0  0  0
   -0.8300   -0.0500    0.0000 N   0  0  0  0  0  0  0  0  0  0  0  0
   -2.1300    2.2000    0.0000 O   0  0  0  0  0  0  0  0  0  0  0  0
   -4.7287    2.2002    0.0000 O   0  0  0  0  0  0  0  0  0  0  0  0
   -6.0281   -0.0496    0.0000 O   0  0  0  0  0  0  0  0  0  0  0  0
  2  1  1  0
  4  3  2  0
  5  3  1  0
  6  4  1  0
  8  7  2  0
 10  5  2  0
 10  7  1  0
 11  9  2  0
 12  6  2  0
 12 10  1  0
 13  8  1  0
 14 11  1  0
 15 11  1  0
 16  9  1  0
 16 13  2  0
 17 12  1  0
 17 13  1  0
 17 14  1  0
 18 14  2  0
 19 15  2  0
 20  2  1  0
 20 15  1  0
M  END
>  <NAME>  (3111) 
1-OXO-1H-PYRIMIDO(1,2-A)QUINOLINE-2-CARBOXYLIC ACID ETHYL ESTER

>  <SYNONYMS>  (3111) 


>  <SPECTRUM TYPE>  (3111) 
MS1

>  <INSTRUMENT TYPE>  (3111) 
EI-B

>  <INSTRUMENT>  (3111) 
MS-902

>  <ION MODE>  (3111) 
P

>  <INCHIKEY>  (3111) 
SDMSGNXFHZBVSF-UHFFFAOYSA-N

>  <FORMULA>  (3111) 
C15H12N2O3

>  <EXACT MASS>  (3111) 
268.08479224399997

>  <MW>  (3111) 
268

>  <ID>  (3111) 
JP007912

>  <CONTRIBUTOR>  (3111) 
University of Tokyo Team, {Faculty of Engineering, University of Tokyo

>  <COMMENT>  (3111) 
SMILES=CCOC(=O)C(=C3)C(=O)N(C1=N3)c(c2)c(ccc2)C=C1
InChI=InChI=1S/C15H12N2O3/c1-2-20-15(19)11-9-16-13-8-7-10-5-3-4-6-12(10)17(13)14(11)18/h3-9H,2H2,1H3
computed SMILES=O=C(OCC)C1=CN=C2C=CC=3C=CC=CC3N2C1=O
accession=JP007912
date=2016.01.19 (Created 2008.10.21, modified 2011.05.06)
author=SASAKI S, TOYOHASHI UNIV. OF TECH.
license=CC BY-NC-SA
exact mass=268.08479
ionization energy=70 eV
ion type=[M]+*
computed spectral entropy=2.4524525246512243
computed normalized entropy=0.805529463098677
SPLASH=splash10-014i-1950000000-462acb768f5de0658e18
submitter=submitter = University of Tokyo Team (Faculty of Engineering, University of Tokyo)
MoNA Rating=3.75

>  <NUM PEAKS>  (3111) 
21

>  <MASS SPECTRAL PEAKS>  (3111) 
64 10
69 30
77 9
101 1.6
128 86
129 23
140 12
155 0.7
168 63
169 15
194 4.4
195 2.3
196 35
197 5.3
212 10
223 3.5
224 5.3
240 12
241 11
268 99.99
269 18

$$$$

     RDKit          2D

 19 20  0  0  0  0  0  0  0  0999 V2000
    2.5990   -3.7500    0.0000 C   0  0  0  0  0  0  0  0  0  0  0  0
    7.7962    0.7508    0.0000 C   0  0  0  0  0  0  0  0  0  0  0  0
   -1.3000    3.0000    0.0000 C   0  0  0  0  0  0  0  0  0  0  0  0
    1.3000   -3.0000    0.0000 C   0  0  0  0  0  0  0  0  0  0  0  0
    6.4970    1.5006    0.0000 C   0  0  0  0  0  0  0  0  0  0  0  0
   -2.6000   -0.7500    0.0000 C   0  0  0  0  0  0  0  0  0  0  0  0
   -2.6000    0.7500    0.0000 C   0  0  0  0  0  0  0  0  0  0  0  0
   -1.3000   -1.5000    0.0000 C   0  0  0  0  0  0  0  0  0  0  0  0
    2.6000   -0.7500    0.0000 C   0  0  0  0  0  0  0  0  0  0  0  0
   -1.3000    1.5000    0.0000 C   0  0  0  0  0  0  0  0  0  0  0  0
    2.6000    0.7500    0.0000 C   0  0  0  0  0  0  0  0  0  0  0  0
    0.0000   -0.7500    0.0000 C   0  0  0  0  0  0  0  0  0  0  0  0
    1.3000    1.5000    0.0000 C   0  0  0  0  0  0  0  0  0  0  0  0
    3.8989    1.5002    0.0000 C   0  0  0  0  0  0  0  0  0  0  0  0
    1.3000   -1.5000    0.0000 N   0  0  0  0  0  0  0  0  0  0  0  0
    0.0000    0.7500    0.0000 N   0  0  0  0  0  0  0  0  0  0  0  0
    1.3000    3.0000    0.0000 O   0  0  0  0  0  0  0  0  0  0  0  0
    3.8987    3.0002    0.0000 O   0  0  0  0  0  0  0  0  0  0  0  0
    5.1981    0.7504    0.0000 O   0  0  0  0  0  0  0  0  0  0  0  0
  4  1  1  0
  5  2  1  0
  7  6  1  0
  8  6  1  0
 10  3  1  0
 10  7  1  0
 11  9  2  0
 12  8  1  0
 13 11  1  0
 14 11  1  0
 15  4  1  0
 15  9  1  0
 15 12  1  0
 16 10  1  0
 16 12  1  0
 16 13  1  0
 17 13  2  0
 18 14  2  0
 19  5  1  0
 19 14  1  0
M  END
>  <NAME>  (3112) 
1-ETHYL-6-METHYL-4-OXO-1,6,7,8,9,9A-HEXAHYDRO-4H-PYRIDO(1,2-A)PYRIMIDINE-3-CARBOXYLIC ACID ETHYL ESTER

>  <SYNONYMS>  (3112) 


>  <SPECTRUM TYPE>  (3112) 
MS1

>  <INSTRUMENT TYPE>  (3112) 
EI-B

>  <INSTRUMENT>  (3112) 
MS-902

>  <ION MODE>  (3112) 
P

>  <INCHIKEY>  (3112) 
DZCPIPIKEVVNLF-UHFFFAOYSA-N

>  <FORMULA>  (3112) 
C14H22N2O3

>  <EXACT MASS>  (3112) 
266.16304256399997

>  <MW>  (3112) 
266

>  <ID>  (3112) 
JP007911

>  <CONTRIBUTOR>  (3112) 
University of Tokyo Team, {Faculty of Engineering, University of Tokyo

>  <COMMENT>  (3112) 
SMILES=CCOC(=O)C(=C([H])1)C(=O)N(C(C)2)C(CCC2)N(CC)1
InChI=InChI=1S/C14H22N2O3/c1-4-15-9-11(14(18)19-5-2)13(17)16-10(3)7-6-8-12(15)16/h9-10,12H,4-8H2,1-3H3
computed SMILES=O=C(OCC)C1=CN(CC)C2N(C1=O)C(C)CCC2
accession=JP007911
date=2016.01.19 (Created 2008.10.21, modified 2011.05.06)
author=SASAKI S, TOYOHASHI UNIV. OF TECH.
license=CC BY-NC-SA
exact mass=266.16304
ionization energy=70 eV
ion type=[M]+*
computed spectral entropy=3.180954715394645
computed normalized entropy=0.8457286550965873
SPLASH=splash10-00r2-6940000000-c0604042f1830aeb3c92
submitter=submitter = University of Tokyo Team (Faculty of Engineering, University of Tokyo)
MoNA Rating=3.75

>  <NUM PEAKS>  (3112) 
43

>  <MASS SPECTRAL PEAKS>  (3112) 
26 15.5
29 34.5
41 24.1
42 1.65
53 13.7
54 15.5
55 22.1
56 5.17
67 6.9
68 12.4
69 27.5
82 0.96
84 13.1
96 21.4
97 27.5
98 5.17
123 9.6
124 96.5
125 9.6
126 0.74
137 10.3
142 5.5
151 58.6
152 1.68
163 8.6
165 13.7
169 6.2
170 2.21
192 5.5
193 7.6
197 99.99
198 1.13
209 7.9
220 10.3
221 19
222 0.34
223 4.5
224 10
237 22
251 0.45
265 14.1
266 72.4
267 11.2

$$$$

     RDKit          2D

 18 19  0  0  0  0  0  0  0  0999 V2000
    9.0951   -1.5010    0.0000 C   0  0  0  0  0  0  0  0  0  0  0  0
    7.7962   -0.7508    0.0000 C   0  0  0  0  0  0  0  0  0  0  0  0
   -2.6000    0.7500    0.0000 C   0  0  0  0  0  0  0  0  0  0  0  0
   -1.3000    1.5000    0.0000 C   0  0  0  0  0  0  0  0  0  0  0  0
    3.8989   -1.5002    0.0000 C   0  0  0  0  0  0  0  0  0  0  0  0
    2.6000    0.7500    0.0000 C   0  0  0  0  0  0  0  0  0  0  0  0
   -1.3000   -1.5000    0.0000 C   0  0  0  0  0  0  0  0  0  0  0  0
    2.6000   -0.7500    0.0000 C   0  0  0  0  0  0  0  0  0  0  0  0
   -2.6000   -0.7500    0.0000 C   0  0  0  0  0  0  0  0  0  0  0  0
    0.0000    0.7500    0.0000 C   0  0  0  0  0  0  0  0  0  0  0  0
    5.1981   -0.7504    0.0000 C   0  0  0  0  0  0  0  0  0  0  0  0
    1.3000   -1.5000    0.0000 C   0  0  0  0  0  0  0  0  0  0  0  0
   -3.8989   -1.5002    0.0000 Cl  0  0  0  0  0  0  0  0  0  0  0  0
    1.3000    1.5000    0.0000 N   0  0  0  0  0  0  0  0  0  0  0  0
    0.0000   -0.7500    0.0000 N   0  0  0  0  0  0  0  0  0  0  0  0
    5.1983    0.7496    0.0000 O   0  0  0  0  0  0  0  0  0  0  0  0
    1.3000   -3.0000    0.0000 O   0  0  0  0  0  0  0  0  0  0  0  0
    6.4970   -1.5006    0.0000 O   0  0  0  0  0  0  0  0  0  0  0  0
  2  1  1  0
  4  3  2  0
  8  5  1  0
  8  6  2  0
  9  3  1  0
  9  7  2  0
 10  4  1  0
 11  5  1  0
 12  8  1  0
 13  9  1  0
 14  6  1  0
 14 10  2  0
 15  7  1  0
 15 10  1  0
 15 12  1  0
 16 11  2  0
 17 12  2  0
 18  2  1  0
 18 11  1  0
M  END
>  <NAME>  (3113) 
7-CHLORO-4-OXO-4H-PYRIDO(1,2-A)PYRIMIDINE-3-ACETIC ACID ETHYL ESTER

>  <SYNONYMS>  (3113) 


>  <SPECTRUM TYPE>  (3113) 
MS1

>  <INSTRUMENT TYPE>  (3113) 
EI-B

>  <INSTRUMENT>  (3113) 
MS-902

>  <ION MODE>  (3113) 
P

>  <INCHIKEY>  (3113) 
UGSTZPVMZHXYRW-UHFFFAOYSA-N

>  <FORMULA>  (3113) 
C12H11ClN2O3

>  <EXACT MASS>  (3113) 
266.045819892

>  <MW>  (3113) 
266

>  <ID>  (3113) 
JP007910

>  <CONTRIBUTOR>  (3113) 
University of Tokyo Team, {Faculty of Engineering, University of Tokyo

>  <COMMENT>  (3113) 
SMILES=CCOC(=O)CC(=C1)C(=O)N(C=2)C(C=CC(Cl)2)=N1
InChI=InChI=1S/C12H11ClN2O3/c1-2-18-11(16)5-8-6-14-10-4-3-9(13)7-15(10)12(8)17/h3-4,6-7H,2,5H2,1H3
computed SMILES=O=C(OCC)CC1=CN=C2C=CC(Cl)=CN2C1=O
accession=JP007910
date=2016.01.19 (Created 2008.10.21, modified 2011.05.06)
author=SASAKI S, TOYOHASHI UNIV. OF TECH.
license=CC BY-NC-SA
exact mass=266.04582
ionization energy=70 eV
ion type=[M]+*
computed spectral entropy=2.1255633192318553
computed normalized entropy=0.6523942106769582
SPLASH=splash10-0006-0920000000-bedc4f48081c106c095b
submitter=submitter = University of Tokyo Team (Faculty of Engineering, University of Tokyo)
MoNA Rating=3.75

>  <NUM PEAKS>  (3113) 
26

>  <MASS SPECTRAL PEAKS>  (3113) 
39 2.4
50 1.1
55 9.8
76 0.7
77 1.5
78 1.7
82.5 1.3
96.5 0.13
112 18.5
113 3.3
114 5.7
139 0.57
141 1.7
165 6.5
166 1.6
167 0.23
193 99.99
194 13
195 32.6
196 0.37
221 4.3
233 1.3
266 26.1
267 0.37
268 8
269 1.1

$$$$

     RDKit          2D

 19 20  0  0  0  0  0  0  0  0999 V2000
    7.7962    0.7508    0.0000 C   0  0  0  0  0  0  0  0  0  0  0  0
   -1.3000    3.0000    0.0000 C   0  0  0  0  0  0  0  0  0  0  0  0
    6.4970    1.5006    0.0000 C   0  0  0  0  0  0  0  0  0  0  0  0
   -2.6000    0.7500    0.0000 C   0  0  0  0  0  0  0  0  0  0  0  0
   -2.6000   -0.7500    0.0000 C   0  0  0  0  0  0  0  0  0  0  0  0
    2.6000   -0.7500    0.0000 C   0  0  0  0  0  0  0  0  0  0  0  0
   -1.3000    1.5000    0.0000 C   0  0  0  0  0  0  0  0  0  0  0  0
    2.6000    0.7500    0.0000 C   0  0  0  0  0  0  0  0  0  0  0  0
   -1.3000   -1.5000    0.0000 C   0  0  0  0  0  0  0  0  0  0  0  0
    0.0000   -0.7500    0.0000 C   0  0  0  0  0  0  0  0  0  0  0  0
    1.3000    1.5000    0.0000 C   0  0  0  0  0  0  0  0  0  0  0  0
    3.8989    1.5002    0.0000 C   0  0  0  0  0  0  0  0  0  0  0  0
    1.3000   -1.5000    0.0000 N   0  0  0  0  0  0  0  0  0  0  0  0
   -1.3000   -3.0000    0.0000 N   0  0  0  0  0  0  0  0  0  0  0  0
    0.0000    0.7500    0.0000 N   0  0  0  0  0  0  0  0  0  0  0  0
    1.3000    3.0000    0.0000 O   0  0  0  0  0  0  0  0  0  0  0  0
    3.8987    3.0002    0.0000 O   0  0  0  0  0  0  0  0  0  0  0  0
   -2.5990   -3.7500    0.0000 O   0  0  0  0  0  0  0  0  0  0  0  0
    5.1981    0.7504    0.0000 O   0  0  0  0  0  0  0  0  0  0  0  0
  3  1  1  0
  5  4  1  0
  7  2  1  0
  7  4  1  0
  8  6  2  0
  9  5  1  0
 10  9  1  0
 11  8  1  0
 12  8  1  0
 13  6  1  0
 13 10  2  0
  9 14  2  0
 15  7  1  0
 15 10  1  0
 15 11  1  0
 16 11  2  0
 17 12  2  0
 18 14  1  0
 19  3  1  0
 19 12  1  0
M  END
>  <NAME>  (3114) 
9-HYDROXYIMINO-6-METHYL-4-OXO-6,7,8,9-TETRAHYDRO-4H-PYRIDO(1,2-A)PYRIMIDINE-3-CARBOXYLIC ACID ETHYL ESTER

>  <SYNONYMS>  (3114) 


>  <SPECTRUM TYPE>  (3114) 
MS1

>  <INSTRUMENT TYPE>  (3114) 
EI-B

>  <INSTRUMENT>  (3114) 
MS-902

>  <ION MODE>  (3114) 
P

>  <INCHIKEY>  (3114) 
VWYJPUYRCOGBKZ-NTEUORMPSA-N

>  <FORMULA>  (3114) 
C12H15N3O4

>  <EXACT MASS>  (3114) 
265.10625596

>  <MW>  (3114) 
265

>  <ID>  (3114) 
JP007909

>  <CONTRIBUTOR>  (3114) 
University of Tokyo Team, {Faculty of Engineering, University of Tokyo

>  <COMMENT>  (3114) 
SMILES=CCOC(=O)C(=C2)C(=O)N(C(C)1)C(=N2)C(=NO)CC1
InChI=InChI=1S/C12H15N3O4/c1-3-19-12(17)8-6-13-10-9(14-18)5-4-7(2)15(10)11(8)16/h6-7,18H,3-5H2,1-2H3/b14-9+
computed SMILES=O=C(OCC)C1=CN=C2C(=NO)CCC(N2C1=O)C
accession=JP007909
date=2016.01.19 (Created 2008.10.21, modified 2011.05.06)
author=SASAKI S, TOYOHASHI UNIV. OF TECH.
license=CC BY-NC-SA
exact mass=265.10626
ionization energy=70 eV
ion type=[M]+*
computed spectral entropy=3.413011770752824
computed normalized entropy=0.8206558593601265
SPLASH=splash10-0gbc-5980000000-d17feabb964009254e60
submitter=submitter = University of Tokyo Team (Faculty of Engineering, University of Tokyo)
MoNA Rating=3.75

>  <NUM PEAKS>  (3114) 
64

>  <MASS SPECTRAL PEAKS>  (3114) 
39 8
41 11
42 5.5
52 0.5
53 31
54 12
55 23
66 0.6
67 8.5
68 10
69 16
81 0.7
92 5
93 6
94 6.4
95 0.55
96 11.5
107 7.5
119 4
120 0.48
121 4.2
123 4.4
125 4.2
133 0.53
134 11
135 8
146 6.5
147 0.65
148 8.8
151 5.7
160 3.9
161 0.51
162 9
163 11.5
167 3.9
173 0.32
174 6.6
175 4.2
176 5
188 0.45
189 2.3
190 5.6
191 99.99
192 1.2
193 35.4
194 5.8
202 38
203 0.85
204 4.6
218 3.7
219 47
220 5.22
221 9.4
234 2
236 5.7
237 3.2
238 4
248 12.1
249 11
250 0.36
264 3.1
265 77.5
266 11.4
267 1.2

$$$$

     RDKit          2D

 15 16  0  0  0  0  0  0  0  0999 V2000
    2.5982   -0.7496    0.0000 C   0  0  0  0  0  0  0  0  0  0  0  0
    2.5989    0.7512    0.0000 C   0  0  0  0  0  0  0  0  0  0  0  0
    1.2986   -1.5002    0.0000 C   0  0  0  0  0  0  0  0  0  0  0  0
    1.3000    1.5015    0.0000 C   0  0  0  0  0  0  0  0  0  0  0  0
   -0.0004   -0.7500    0.0000 C   0  0  0  0  0  0  0  0  0  0  0  0
   -2.5986    3.7510    0.0000 C   0  0  0  0  0  0  0  0  0  0  0  0
    0.0004    0.7508    0.0000 C   0  0  0  0  0  0  0  0  0  0  0  0
   -1.2986    3.0010    0.0000 C   0  0  0  0  0  0  0  0  0  0  0  0
   -1.2986    1.5010    0.0000 C   0  0  0  0  0  0  0  0  0  0  0  0
   -3.8986    1.5010    0.0000 C   0  0  0  0  0  0  0  0  0  0  0  0
    0.0004    3.7512    0.0000 Br  0  0  0  0  0  0  0  0  0  0  0  0
   -5.1975    0.7508    0.0000 N   0  0  0  0  0  0  0  0  0  0  0  0
   -2.5986    0.7510    0.0000 N   0  0  0  0  0  0  0  0  0  0  0  0
   -3.8986    3.0010    0.0000 N   0  0  0  0  0  0  0  0  0  0  0  0
   -5.1975    3.7512    0.0000 O   0  0  0  0  0  0  0  0  0  0  0  0
  2  1  2  0
  3  1  1  0
  4  2  1  0
  5  3  2  0
  7  4  2  0
  7  5  1  0
  8  6  1  0
  9  7  1  0
  9  8  2  0
 11  8  1  0
 12 10  2  0
 13  9  1  0
 13 10  1  0
 14  6  2  0
 14 10  1  0
 15 14  1  0
M  CHG  2  14   1  15  -1
M  END
>  <NAME>  (3115) 
2-AMINO-5-BROMO-4-PHENYLPYRIMIDINE-1-OXIDE

>  <SYNONYMS>  (3115) 


>  <SPECTRUM TYPE>  (3115) 
MS1

>  <INSTRUMENT TYPE>  (3115) 
EI-B

>  <INSTRUMENT>  (3115) 
MS-902

>  <ION MODE>  (3115) 
P

>  <INCHIKEY>  (3115) 
FCWOUCCHYBFFKR-UHFFFAOYSA-N

>  <FORMULA>  (3115) 
C10H8BrN3O

>  <EXACT MASS>  (3115) 
264.98507397599997

>  <MW>  (3115) 
265

>  <ID>  (3115) 
JP007908

>  <CONTRIBUTOR>  (3115) 
University of Tokyo Team, {Faculty of Engineering, University of Tokyo

>  <COMMENT>  (3115) 
SMILES=Nc(n1)[n+1]([O-1])cc(Br)c1c(c2)cccc2
InChI=InChI=1S/C10H8BrN3O/c11-8-6-14(15)10(12)13-9(8)7-4-2-1-3-5-7/h1-6H,(H2,12,13)
computed SMILES=O=N1=CC(Br)=C(NC1=N)C=2C=CC=CC2
accession=JP007908
date=2016.01.19 (Created 2008.10.21, modified 2011.05.06)
author=SASAKI S, TOYOHASHI UNIV. OF TECH.
license=CC BY-NC-SA
exact mass=264.98507
ionization energy=70 eV
ion type=[M]+*
computed spectral entropy=3.3785867317325877
computed normalized entropy=0.7565284913990648
SPLASH=splash10-014i-3690000000-28e398669ec19a20c3fd
submitter=submitter = University of Tokyo Team (Faculty of Engineering, University of Tokyo)
MoNA Rating=3.75

>  <NUM PEAKS>  (3115) 
87

>  <MASS SPECTRAL PEAKS>  (3115) 
43 1.3
44 1.6
45 1.3
47 0.13
49 3.6
50 4
51 10.9
52 0.19
57 1.4
62 4.7
63 8.1
64 0.27
68 1.2
71 1.3
74 4
75 0.51
76 2.7
77 21.2
78 5.6
78.5 0.11
79 1.7
83 4.7
84 2.8
84.5 0.51
85 2.7
86 1.9
87 3
88 0.85
89 8.5
90 1.4
99 1.1
101 0.38
102 2.7
103 2.4
104 59.9
105 2.47
106 1.7
113 7.7
114 18
115 0.69
116 14.7
117 8.2
118 2.2
121 0.14
124 3.8
124.5 1.6
125 4.3
125.5 0.11
127 4.7
128 5.7
129 3
132.5 0.34
133.5 3.6
141 2.8
142 4.5
143 0.69
144 1.3
155 3.2
156 2.2
168 0.22
169 11.9
170 20.2
171 4
180 0.14
182 1.7
185 1.3
193 3.7
194 0.13
195 5.7
196 1.4
197 2.8
219 0.21
222 1.3
224 4
226 3.2
235 0.1
247 5.4
248 8.2
249 16.1
250 0.94
251 9.7
252 1.1
264 9.7
265 99.99
266 24.6
267 97.2
268 10.2

$$$$

     RDKit          2D

 19 20  0  0  0  0  0  0  0  0999 V2000
   10.3942    0.7512    0.0000 C   0  0  0  0  0  0  0  0  0  0  0  0
   -1.3000    3.0000    0.0000 C   0  0  0  0  0  0  0  0  0  0  0  0
    9.0951    1.5010    0.0000 C   0  0  0  0  0  0  0  0  0  0  0  0
   -2.6000   -0.7500    0.0000 C   0  0  0  0  0  0  0  0  0  0  0  0
   -2.6000    0.7500    0.0000 C   0  0  0  0  0  0  0  0  0  0  0  0
   -1.3000   -1.5000    0.0000 C   0  0  0  0  0  0  0  0  0  0  0  0
    3.8989    1.5002    0.0000 C   0  0  0  0  0  0  0  0  0  0  0  0
    5.1981    0.7504    0.0000 C   0  0  0  0  0  0  0  0  0  0  0  0
    2.6000   -0.7500    0.0000 C   0  0  0  0  0  0  0  0  0  0  0  0
   -1.3000    1.5000    0.0000 C   0  0  0  0  0  0  0  0  0  0  0  0
    2.6000    0.7500    0.0000 C   0  0  0  0  0  0  0  0  0  0  0  0
    0.0000   -0.7500    0.0000 C   0  0  0  0  0  0  0  0  0  0  0  0
    6.4970    1.5006    0.0000 C   0  0  0  0  0  0  0  0  0  0  0  0
    1.3000    1.5000    0.0000 C   0  0  0  0  0  0  0  0  0  0  0  0
    1.3000   -1.5000    0.0000 N   0  0  0  0  0  0  0  0  0  0  0  0
    0.0000    0.7500    0.0000 N   0  0  0  0  0  0  0  0  0  0  0  0
    6.4968    3.0006    0.0000 O   0  0  0  0  0  0  0  0  0  0  0  0
    1.3000    3.0000    0.0000 O   0  0  0  0  0  0  0  0  0  0  0  0
    7.7962    0.7508    0.0000 O   0  0  0  0  0  0  0  0  0  0  0  0
  3  1  1  0
  5  4  1  0
  6  4  2  0
  8  7  1  0
 10  2  1  0
 10  5  2  0
 11  7  1  0
 11  9  2  0
 12  6  1  0
 13  8  1  0
 14 11  1  0
 15  9  1  0
 15 12  2  0
 16 10  1  0
 16 12  1  0
 16 14  1  0
 17 13  2  0
 18 14  2  0
 19  3  1  0
 19 13  1  0
M  END
>  <NAME>  (3116) 
6-METHYL-4-OXO-4H-PYRIDO(1,2-A)PYRIMIDINE-3-PROPIONIC ACID ETHYL ESTER

>  <SYNONYMS>  (3116) 


>  <SPECTRUM TYPE>  (3116) 
MS1

>  <INSTRUMENT TYPE>  (3116) 
EI-B

>  <INSTRUMENT>  (3116) 
MS-902

>  <ION MODE>  (3116) 
P

>  <INCHIKEY>  (3116) 
QFRPXRGYTOYELI-UHFFFAOYSA-N

>  <FORMULA>  (3116) 
C14H16N2O3

>  <EXACT MASS>  (3116) 
260.116092372

>  <MW>  (3116) 
260

>  <ID>  (3116) 
JP007907

>  <CONTRIBUTOR>  (3116) 
University of Tokyo Team, {Faculty of Engineering, University of Tokyo

>  <COMMENT>  (3116) 
SMILES=CCOC(=O)CCC(=C1)C(=O)N(C(C)=2)C(C=CC2)=N1
InChI=InChI=1S/C14H16N2O3/c1-3-19-13(17)8-7-11-9-15-12-6-4-5-10(2)16(12)14(11)18/h4-6,9H,3,7-8H2,1-2H3
computed SMILES=O=C(OCC)CCC1=CN=C2C=CC=C(N2C1=O)C
accession=JP007907
date=2016.01.19 (Created 2008.10.21, modified 2011.05.06)
author=SASAKI S, TOYOHASHI UNIV. OF TECH.
license=CC BY-NC-SA
exact mass=260.11609
ionization energy=70 eV
ion type=[M]+*
computed spectral entropy=2.760180265373625
computed normalized entropy=0.7827277574445017
SPLASH=splash10-0229-4930000000-e890c2a7fec7269cf574
submitter=submitter = University of Tokyo Team (Faculty of Engineering, University of Tokyo)
MoNA Rating=3.75

>  <NUM PEAKS>  (3116) 
34

>  <MASS SPECTRAL PEAKS>  (3116) 
39 8.9
41 2.4
51 2
55 0.57
64 3.4
65 25.7
66 5.9
69 0.4
91 4.6
92 55.7
93 14.3
119 0.69
143 9.7
144 2
145 28.6
146 0.26
157 3.1
158 9.7
159 8.6
160 0.5
172 31.4
173 99.99
174 10.9
185 0.23
186 44.3
187 20
188 2.3
213 0.21
214 15.7
215 20
216 2.1
219 0.2
260 54.3
261 8.9

$$$$

     RDKit          2D

 19 20  0  0  0  0  0  0  0  0999 V2000
    9.0951    1.5010    0.0000 C   0  0  0  0  0  0  0  0  0  0  0  0
   -3.8989   -1.5002    0.0000 C   0  0  0  0  0  0  0  0  0  0  0  0
   -1.3000    3.0000    0.0000 C   0  0  0  0  0  0  0  0  0  0  0  0
    7.7962    0.7508    0.0000 C   0  0  0  0  0  0  0  0  0  0  0  0
   -2.6000    0.7500    0.0000 C   0  0  0  0  0  0  0  0  0  0  0  0
   -1.3000   -1.5000    0.0000 C   0  0  0  0  0  0  0  0  0  0  0  0
    3.8989    1.5002    0.0000 C   0  0  0  0  0  0  0  0  0  0  0  0
    2.6000   -0.7500    0.0000 C   0  0  0  0  0  0  0  0  0  0  0  0
   -2.6000   -0.7500    0.0000 C   0  0  0  0  0  0  0  0  0  0  0  0
   -1.3000    1.5000    0.0000 C   0  0  0  0  0  0  0  0  0  0  0  0
    2.6000    0.7500    0.0000 C   0  0  0  0  0  0  0  0  0  0  0  0
    0.0000   -0.7500    0.0000 C   0  0  0  0  0  0  0  0  0  0  0  0
    5.1981    0.7504    0.0000 C   0  0  0  0  0  0  0  0  0  0  0  0
    1.3000    1.5000    0.0000 C   0  0  0  0  0  0  0  0  0  0  0  0
    1.3000   -1.5000    0.0000 N   0  0  0  0  0  0  0  0  0  0  0  0
    0.0000    0.7500    0.0000 N   0  0  0  0  0  0  0  0  0  0  0  0
    5.1983   -0.7496    0.0000 O   0  0  0  0  0  0  0  0  0  0  0  0
    1.3000    3.0000    0.0000 O   0  0  0  0  0  0  0  0  0  0  0  0
    6.4970    1.5006    0.0000 O   0  0  0  0  0  0  0  0  0  0  0  0
  4  1  1  0
  9  2  1  0
  9  5  1  0
  9  6  2  0
 10  3  1  0
 10  5  2  0
 11  7  1  0
 11  8  2  0
 12  6  1  0
 13  7  1  0
 14 11  1  0
 15  8  1  0
 15 12  2  0
 16 10  1  0
 16 12  1  0
 16 14  1  0
 17 13  2  0
 18 14  2  0
 19  4  1  0
 19 13  1  0
M  END
>  <NAME>  (3117) 
6,8-DIMETHYL-4-OXO-4H-PYRIDO(1,2-A)PYRIMIDINE-3-ACETIC ACID ETHYL ESTER

>  <SYNONYMS>  (3117) 


>  <SPECTRUM TYPE>  (3117) 
MS1

>  <INSTRUMENT TYPE>  (3117) 
EI-B

>  <INSTRUMENT>  (3117) 
MS-902

>  <ION MODE>  (3117) 
P

>  <INCHIKEY>  (3117) 
IAENEZBDQUPXCU-UHFFFAOYSA-N

>  <FORMULA>  (3117) 
C14H16N2O3

>  <EXACT MASS>  (3117) 
260.11609237199997

>  <MW>  (3117) 
260

>  <ID>  (3117) 
JP007906

>  <CONTRIBUTOR>  (3117) 
University of Tokyo Team, {Faculty of Engineering, University of Tokyo

>  <COMMENT>  (3117) 
SMILES=CCOC(=O)CC(=C2)C(=O)N(C(C)=1)C(=N2)C=C(C)C1
InChI=InChI=1S/C14H16N2O3/c1-4-19-13(17)7-11-8-15-12-6-9(2)5-10(3)16(12)14(11)18/h5-6,8H,4,7H2,1-3H3
computed SMILES=O=C(OCC)CC1=CN=C2C=C(C=C(N2C1=O)C)C
accession=JP007906
date=2016.01.19 (Created 2008.10.21, modified 2011.05.06)
author=SASAKI S, TOYOHASHI UNIV. OF TECH.
license=CC BY-NC-SA
exact mass=260.11609
ionization energy=70 eV
ion type=[M]+*
computed spectral entropy=2.401805061143751
computed normalized entropy=0.6702364637644478
SPLASH=splash10-000i-1920000000-3f2822161ec8e805fe12
submitter=submitter = University of Tokyo Team (Faculty of Engineering, University of Tokyo)
MoNA Rating=3.75

>  <NUM PEAKS>  (3117) 
36

>  <MASS SPECTRAL PEAKS>  (3117) 
39 4.1
41 1.3
42 1
51 0.13
52 1.8
53 2.6
65 1.5
66 0.15
77 5.6
78 2.3
79 7.7
79.5 0.21
80 1.8
93 1
93.5 2.6
94 0.32
95 2.3
104 1.5
105 1.9
106 2.38
107 4
122 11.3
133 2.6
157 0.35
158 1.4
159 12.6
160 2.1
173 0.14
186 13.7
187 99.99
188 14.9
189 0.12
214 3.3
215 4.2
260 30
261 4.7

$$$$

     RDKit          2D

 16 16  0  0  0  0  0  0  0  0999 V2000
  -10.3931   -1.5015    0.0000 C   0  0  0  0  0  0  0  0  0  0  0  0
    2.5989    1.5002    0.0000 C   0  0  0  0  0  0  0  0  0  0  0  0
   -9.0942   -0.7512    0.0000 C   0  0  0  0  0  0  0  0  0  0  0  0
   -7.7951   -1.5010    0.0000 C   0  0  0  0  0  0  0  0  0  0  0  0
   -6.4962   -0.7508    0.0000 C   0  0  0  0  0  0  0  0  0  0  0  0
   -5.1970   -1.5006    0.0000 C   0  0  0  0  0  0  0  0  0  0  0  0
   -3.8981   -0.7504    0.0000 C   0  0  0  0  0  0  0  0  0  0  0  0
   -2.5989   -1.5002    0.0000 C   0  0  0  0  0  0  0  0  0  0  0  0
    1.3000    0.7500    0.0000 C   0  0  0  0  0  0  0  0  0  0  0  0
   -1.3000   -0.7500    0.0000 C   0  0  0  0  0  0  0  0  0  0  0  0
   -1.3000    0.7500    0.0000 C   0  0  0  0  0  0  0  0  0  0  0  0
   -0.0000   -1.5000    0.0000 C   0  0  0  0  0  0  0  0  0  0  0  0
   -2.5989    1.5002    0.0000 Cl  0  0  0  0  0  0  0  0  0  0  0  0
   -0.0000   -3.0000    0.0000 Cl  0  0  0  0  0  0  0  0  0  0  0  0
    0.0000    1.5000    0.0000 N   0  0  0  0  0  0  0  0  0  0  0  0
    1.3000   -0.7500    0.0000 N   0  0  0  0  0  0  0  0  0  0  0  0
  3  1  1  0
  4  3  1  0
  5  4  1  0
  6  5  1  0
  7  6  1  0
  8  7  1  0
  9  2  1  0
 10  8  1  0
 11 10  2  0
 12 10  1  0
 13 11  1  0
 14 12  1  0
 15  9  2  0
 15 11  1  0
 16  9  1  0
 16 12  2  0
M  END
>  <NAME>  (3118) 
4,6-DICHLORO-5-HEPTYL-2-METHYLPYRIMIDINE

>  <SYNONYMS>  (3118) 


>  <SPECTRUM TYPE>  (3118) 
MS1

>  <INSTRUMENT TYPE>  (3118) 
EI-B

>  <INSTRUMENT>  (3118) 
MS-902

>  <ION MODE>  (3118) 
P

>  <INCHIKEY>  (3118) 
ZUEZUFNWYSUGEG-UHFFFAOYSA-N

>  <FORMULA>  (3118) 
C12H18Cl2N2

>  <EXACT MASS>  (3118) 
260.084703936

>  <MW>  (3118) 
260

>  <ID>  (3118) 
JP007905

>  <CONTRIBUTOR>  (3118) 
University of Tokyo Team, {Faculty of Engineering, University of Tokyo

>  <COMMENT>  (3118) 
SMILES=CCCCCCCc(c(Cl)1)c(Cl)nc(C)n1
InChI=InChI=1S/C12H18Cl2N2/c1-3-4-5-6-7-8-10-11(13)15-9(2)16-12(10)14/h3-8H2,1-2H3
computed SMILES=ClC=1N=C(N=C(Cl)C1CCCCCCC)C
accession=JP007905
date=2016.01.19 (Created 2008.10.21, modified 2011.05.06)
author=SASAKI S, TOYOHASHI UNIV. OF TECH.
license=CC BY-NC-SA
exact mass=260.0847
ionization energy=70 eV
ion type=[M]+*
computed spectral entropy=2.7018178562222377
computed normalized entropy=0.6712004475138929
SPLASH=splash10-004l-9440000000-d6b0e549b99e94525613
submitter=submitter = University of Tokyo Team (Faculty of Engineering, University of Tokyo)
MoNA Rating=3.75

>  <NUM PEAKS>  (3118) 
56

>  <MASS SPECTRAL PEAKS>  (3118) 
41 19.9
42 5.3
43 99.99
44 0.29
45 1
49 2
52 1.1
53 0.13
54 1
55 5.2
56 5.3
57 1.71
61 1
64 2.7
65 1.3
66 0.1
67 1.1
68 1.1
69 2.6
70 0.29
71 1.1
73 2.7
75 1
76 0.15
78 2.5
79 1
82 1
83 0.1
85 10.8
90 1.7
112 1.1
114 0.11
115 1.5
134 2.7
136 1.5
139 0.19
140 1.5
141 2.3
143 1
149 0.15
163 2.5
165 2.4
167 1
175 1.19
176 32
177 8.8
178 20.2
179 0.26
180 2.1
183 1.5
197 1.1
205 0.1
225 52.5
226 7.1
227 18
228 1.7

$$$$

     RDKit          2D

 19 21  0  0  0  0  0  0  0  0999 V2000
   -7.3270    0.7006    0.0000 C   0  0  0  0  0  0  0  0  0  0  0  0
    3.0600    2.2000    0.0000 C   0  0  0  0  0  0  0  0  0  0  0  0
    1.7600    2.9500    0.0000 C   0  0  0  0  0  0  0  0  0  0  0  0
    3.0600    0.7000    0.0000 C   0  0  0  0  0  0  0  0  0  0  0  0
    0.4600    2.2000    0.0000 C   0  0  0  0  0  0  0  0  0  0  0  0
    1.7600   -1.5500    0.0000 C   0  0  0  0  0  0  0  0  0  0  0  0
    0.4600   -2.3000    0.0000 C   0  0  0  0  0  0  0  0  0  0  0  0
   -3.4300   -1.5500    0.0000 C   0  0  0  0  0  0  0  0  0  0  0  0
    1.7600   -0.0500    0.0000 C   0  0  0  0  0  0  0  0  0  0  0  0
   -3.4300   -0.0500    0.0000 C   0  0  0  0  0  0  0  0  0  0  0  0
    0.4600    0.7000    0.0000 C   0  0  0  0  0  0  0  0  0  0  0  0
   -0.8300   -1.5500    0.0000 C   0  0  0  0  0  0  0  0  0  0  0  0
   -2.1300    0.7000    0.0000 C   0  0  0  0  0  0  0  0  0  0  0  0
   -4.7289    0.7002    0.0000 C   0  0  0  0  0  0  0  0  0  0  0  0
   -2.1300   -2.3000    0.0000 N   0  0  0  0  0  0  0  0  0  0  0  0
   -0.8300   -0.0500    0.0000 N   0  0  0  0  0  0  0  0  0  0  0  0
   -2.1300    2.2000    0.0000 O   0  0  0  0  0  0  0  0  0  0  0  0
   -4.7287    2.2002    0.0000 O   0  0  0  0  0  0  0  0  0  0  0  0
   -6.0281   -0.0496    0.0000 O   0  0  0  0  0  0  0  0  0  0  0  0
  3  2  2  0
  4  2  1  0
  5  3  1  0
  7  6  1  0
  9  4  2  0
  9  6  1  0
 10  8  2  0
 11  5  2  0
 11  9  1  0
 12  7  1  0
 13 10  1  0
 14 10  1  0
 15  8  1  0
 15 12  2  0
 16 11  1  0
 16 12  1  0
 16 13  1  0
 17 13  2  0
 18 14  2  0
 19  1  1  0
 19 14  1  0
M  END
>  <NAME>  (3119) 
1-OXO-5,6-DIHYDRO-1H-PYRIMIDO(1,2-A)QUINOLINE-2-CARBOXYLIC ACID METHYL ESTER

>  <SYNONYMS>  (3119) 


>  <SPECTRUM TYPE>  (3119) 
MS1

>  <INSTRUMENT TYPE>  (3119) 
EI-B

>  <INSTRUMENT>  (3119) 
MS-902

>  <ION MODE>  (3119) 
P

>  <INCHIKEY>  (3119) 
DSYTVTCQTXYCFF-UHFFFAOYSA-N

>  <FORMULA>  (3119) 
C14H12N2O3

>  <EXACT MASS>  (3119) 
256.084792244

>  <MW>  (3119) 
256

>  <ID>  (3119) 
JP007904

>  <CONTRIBUTOR>  (3119) 
University of Tokyo Team, {Faculty of Engineering, University of Tokyo

>  <COMMENT>  (3119) 
SMILES=COC(=O)C(=C3)C(=O)N(C1=N3)c(c2)c(ccc2)CC1
InChI=InChI=1S/C14H12N2O3/c1-19-14(18)10-8-15-12-7-6-9-4-2-3-5-11(9)16(12)13(10)17/h2-5,8H,6-7H2,1H3
computed SMILES=O=C(OC)C1=CN=C2N(C1=O)C=3C=CC=CC3CC2
accession=JP007904
date=2016.01.19 (Created 2008.10.21, modified 2011.05.06)
author=SASAKI S, TOYOHASHI UNIV. OF TECH.
license=CC BY-NC-SA
exact mass=256.08479
ionization energy=70 eV
ion type=[M]+*
computed spectral entropy=2.652944050843269
computed normalized entropy=0.7461840598897348
SPLASH=splash10-0a7i-1890000000-68d3218d30a299066b9e
submitter=submitter = University of Tokyo Team (Faculty of Engineering, University of Tokyo)
MoNA Rating=3.75

>  <NUM PEAKS>  (3119) 
35

>  <MASS SPECTRAL PEAKS>  (3119) 
77 17
89 5.3
90 3.4
91 0.26
101 4
102 5.8
103 16
104 0.58
115 4.7
116 4.1
117 4
128 1.2
129 4.8
130 58
131 7.7
142 0.57
143 4.1
144 5.6
156 3.4
169 0.9
170 7.7
195 2.7
196 6.6
197 0.64
198 42
199 6.7
225 62
226 0.94
227 2.8
228 9.5
229 1.4
241 0.74
255 8.5
256 99.99
257 16

$$$$

     RDKit          2D

 19 21  0  0  0  0  0  0  0  0999 V2000
   -3.2473   -1.8741    0.0000 C   0  0  0  0  0  0  0  0  0  0  0  0
    5.8475   -2.6264    0.0000 C   0  0  0  0  0  0  0  0  0  0  0  0
    7.1465   -1.8764    0.0000 C   0  0  0  0  0  0  0  0  0  0  0  0
   -1.9478   -2.6249    0.0000 C   0  0  0  0  0  0  0  0  0  0  0  0
   -3.2478   -0.3733    0.0000 C   0  0  0  0  0  0  0  0  0  0  0  0
    4.5480   -1.8756    0.0000 C   0  0  0  0  0  0  0  0  0  0  0  0
    7.1461   -0.3756    0.0000 C   0  0  0  0  0  0  0  0  0  0  0  0
    0.6493    1.8767    0.0000 C   0  0  0  0  0  0  0  0  0  0  0  0
    1.9483    2.6267    0.0000 C   0  0  0  0  0  0  0  0  0  0  0  0
   -0.6488   -1.8749    0.0000 C   0  0  0  0  0  0  0  0  0  0  0  0
   -1.9488    0.3767    0.0000 C   0  0  0  0  0  0  0  0  0  0  0  0
    4.5475   -0.3747    0.0000 C   0  0  0  0  0  0  0  0  0  0  0  0
    5.8465    0.3753    0.0000 C   0  0  0  0  0  0  0  0  0  0  0  0
    0.6498    0.3759    0.0000 C   0  0  0  0  0  0  0  0  0  0  0  0
    3.2483    0.3751    0.0000 C   0  0  0  0  0  0  0  0  0  0  0  0
    3.2479    1.8759    0.0000 N   0  0  0  0  0  0  0  0  0  0  0  0
    1.9493   -0.3749    0.0000 N   0  0  0  0  0  0  0  0  0  0  0  0
   -0.6492   -0.3741    0.0000 N   0  0  0  0  0  0  0  0  0  0  0  0
    5.8468    1.8753    0.0000 O   0  0  0  0  0  0  0  0  0  0  0  0
  3  2  2  0
  4  1  1  0
  5  1  1  0
  6  2  1  0
  7  3  1  0
  9  8  2  0
 10  4  1  0
 11  5  1  0
 12  6  2  0
 13  7  2  0
 13 12  1  0
 14  8  1  0
 15 12  1  0
 16  9  1  0
 16 15  2  0
 17 14  2  0
 17 15  1  0
 18 10  1  0
 18 11  1  0
 18 14  1  0
 19 13  1  0
M  END
>  <NAME>  (3120) 
2-(2-HYDROXYPHENYL)-4-PIPERIDYLPYRIMIDINE

>  <SYNONYMS>  (3120) 


>  <SPECTRUM TYPE>  (3120) 
MS1

>  <INSTRUMENT TYPE>  (3120) 
EI-B

>  <INSTRUMENT>  (3120) 
MS-902

>  <ION MODE>  (3120) 
P

>  <INCHIKEY>  (3120) 
ONTRPRJREWCYNU-UHFFFAOYSA-N

>  <FORMULA>  (3120) 
C15H17N3O

>  <EXACT MASS>  (3120) 
255.137162164

>  <MW>  (3120) 
255

>  <ID>  (3120) 
JP007903

>  <CONTRIBUTOR>  (3120) 
University of Tokyo Team, {Faculty of Engineering, University of Tokyo

>  <COMMENT>  (3120) 
SMILES=C(C3)CCN(C3)c(c2)nc(nc2)c(c1)c(O)ccc1
InChI=InChI=1S/C15H17N3O/c19-13-7-3-2-6-12(13)15-16-9-8-14(17-15)18-10-4-1-5-11-18/h2-3,6-9,19H,1,4-5,10-11H2
computed SMILES=OC=1C=CC=CC1C2=NC=CC(=N2)N3CCCCC3
accession=JP007903
date=2016.01.19 (Created 2008.10.21, modified 2011.05.06)
author=SASAKI S, TOYOHASHI UNIV. OF TECH.
license=CC BY-NC-SA
exact mass=255.13716
ionization energy=70 eV
ion type=[M]+*
computed spectral entropy=3.723796201348425
computed normalized entropy=0.7712415563593848
SPLASH=splash10-0a4i-6590000000-9c1ee9a41424642a115f
submitter=submitter = University of Tokyo Team (Faculty of Engineering, University of Tokyo)
MoNA Rating=3.75

>  <NUM PEAKS>  (3120) 
125

>  <MASS SPECTRAL PEAKS>  (3120) 
38 1
39 4.6
40 2.4
41 1.08
42 12.8
43 2.7
44 25.8
45 0.24
51 1.3
52 4.3
53 5.6
54 0.45
55 4.6
56 2.9
57 8.1
60 0.12
63 1.4
64 1.7
65 3.5
66 0.53
67 3.1
68 1.4
69 1.9
70 0.1
71 1.6
71.5 1.1
73 1
77 0.44
78 1.4
79 2.9
80 3.2
81 0.27
82 2.2
83 1.9
84 36.7
85 0.24
85.5 1.5
90 1.4
91 4.8
92 0.22
93 1.1
94 1.1
95 1.4
99.5 0.14
100.5 1.1
102 2.9
103 1.2
104 0.11
105 15
106 1.4
106.5 1.4
107 0.5
108 2
113.5 4
115 1.8
116 0.13
117 1.4
118 1.7
119 1.4
120 1.14
121 1.7
123 2.4
124 1
125 0.11
127 1.4
128 2.4
129 1.1
133 0.17
135 3.2
137 1.1
139 1.5
142 0.11
143 2.5
144 8.4
145 2.4
146 0.1
147 2.2
149 2.2
151 1.4
152 0.1
153 2.2
154 1.3
161 1
163 0.66
164 1.9
165 2.7
168 1.4
171 1.02
172 18.5
173 4.3
175 2.7
177 0.18
178 1.7
179 1
180 3.1
181 0.12
186 2.5
187 4.4
188 1.2
190 0.14
198 1
199 8.4
200 15.3
201 0.59
203 1.1
205 1
208 1
212 0.76
213 4.4
214 5.3
215 1
217 0.11
219 9.7
220 1.8
226 30.5
227 0.95
228 1
232 3.1
233 4.2
240 0.43
253 1.4
254 17.7
255 99.99
256 1.6
257 1.4

$$$$

     RDKit          2D

 19 21  0  0  0  0  0  0  0  0999 V2000
   -7.3270    0.7006    0.0000 C   0  0  0  0  0  0  0  0  0  0  0  0
    3.0600    2.2000    0.0000 C   0  0  0  0  0  0  0  0  0  0  0  0
    1.7600    2.9500    0.0000 C   0  0  0  0  0  0  0  0  0  0  0  0
    3.0600    0.7000    0.0000 C   0  0  0  0  0  0  0  0  0  0  0  0
    0.4600    2.2000    0.0000 C   0  0  0  0  0  0  0  0  0  0  0  0
    1.7600   -1.5500    0.0000 C   0  0  0  0  0  0  0  0  0  0  0  0
    0.4600   -2.3000    0.0000 C   0  0  0  0  0  0  0  0  0  0  0  0
   -3.4300   -1.5500    0.0000 C   0  0  0  0  0  0  0  0  0  0  0  0
    1.7600   -0.0500    0.0000 C   0  0  0  0  0  0  0  0  0  0  0  0
   -3.4300   -0.0500    0.0000 C   0  0  0  0  0  0  0  0  0  0  0  0
    0.4600    0.7000    0.0000 C   0  0  0  0  0  0  0  0  0  0  0  0
   -0.8300   -1.5500    0.0000 C   0  0  0  0  0  0  0  0  0  0  0  0
   -2.1300    0.7000    0.0000 C   0  0  0  0  0  0  0  0  0  0  0  0
   -4.7289    0.7002    0.0000 C   0  0  0  0  0  0  0  0  0  0  0  0
   -2.1300   -2.3000    0.0000 N   0  0  0  0  0  0  0  0  0  0  0  0
   -0.8300   -0.0500    0.0000 N   0  0  0  0  0  0  0  0  0  0  0  0
   -2.1300    2.2000    0.0000 O   0  0  0  0  0  0  0  0  0  0  0  0
   -4.7287    2.2002    0.0000 O   0  0  0  0  0  0  0  0  0  0  0  0
   -6.0281   -0.0496    0.0000 O   0  0  0  0  0  0  0  0  0  0  0  0
  3  2  2  0
  4  2  1  0
  5  3  1  0
  7  6  2  0
  9  4  2  0
  9  6  1  0
 10  8  2  0
 11  5  2  0
 11  9  1  0
 12  7  1  0
 13 10  1  0
 14 10  1  0
 15  8  1  0
 15 12  2  0
 16 11  1  0
 16 12  1  0
 16 13  1  0
 17 13  2  0
 18 14  2  0
 19  1  1  0
 19 14  1  0
M  END
>  <NAME>  (3121) 
1-OXO-1H-PYRIMIDO(1,2-A)QUINOLINE-2-CARBOXYLIC ACID METHYL ESTER

>  <SYNONYMS>  (3121) 


>  <SPECTRUM TYPE>  (3121) 
MS1

>  <INSTRUMENT TYPE>  (3121) 
EI-B

>  <INSTRUMENT>  (3121) 
MS-902

>  <ION MODE>  (3121) 
P

>  <INCHIKEY>  (3121) 
RUCUMXZHBMUJIL-UHFFFAOYSA-N

>  <FORMULA>  (3121) 
C14H10N2O3

>  <EXACT MASS>  (3121) 
254.06914217999997

>  <MW>  (3121) 
254

>  <ID>  (3121) 
JP007902

>  <CONTRIBUTOR>  (3121) 
University of Tokyo Team, {Faculty of Engineering, University of Tokyo

>  <COMMENT>  (3121) 
SMILES=COC(=O)C(=C3)C(=O)N(C1=N3)c(c2)c(ccc2)C=C1
InChI=InChI=1S/C14H10N2O3/c1-19-14(18)10-8-15-12-7-6-9-4-2-3-5-11(9)16(12)13(10)17/h2-8H,1H3
computed SMILES=O=C(OC)C1=CN=C2C=CC=3C=CC=CC3N2C1=O
accession=JP007902
date=2016.01.19 (Created 2008.10.21, modified 2011.05.06)
author=SASAKI S, TOYOHASHI UNIV. OF TECH.
license=CC BY-NC-SA
exact mass=254.06914
ionization energy=70 eV
ion type=[M]+*
computed spectral entropy=2.2937743770118093
computed normalized entropy=0.7656806975913729
SPLASH=splash10-0ufr-2980000000-e07c69cac4e72687c185
submitter=submitter = University of Tokyo Team (Faculty of Engineering, University of Tokyo)
MoNA Rating=3.75

>  <NUM PEAKS>  (3121) 
20

>  <MASS SPECTRAL PEAKS>  (3121) 
64 15
69 20
77 8.4
101 1.5
128 72
129 20
148 7
155 0.48
168 28
169 7.9
194 3.4
195 3.1
196 8.4
223 22
224 3.8
226 2.4
239 3.1
240 1.1
254 99.99
255 17

$$$$

     RDKit          2D

 18 19  0  0  0  0  0  0  0  0999 V2000
    7.7962    0.7508    0.0000 C   0  0  0  0  0  0  0  0  0  0  0  0
   -1.3000    3.0000    0.0000 C   0  0  0  0  0  0  0  0  0  0  0  0
    1.3000   -3.0000    0.0000 C   0  0  0  0  0  0  0  0  0  0  0  0
    6.4970    1.5006    0.0000 C   0  0  0  0  0  0  0  0  0  0  0  0
   -2.6000   -0.7500    0.0000 C   0  0  0  0  0  0  0  0  0  0  0  0
   -2.6000    0.7500    0.0000 C   0  0  0  0  0  0  0  0  0  0  0  0
   -1.3000   -1.5000    0.0000 C   0  0  0  0  0  0  0  0  0  0  0  0
    2.6000   -0.7500    0.0000 C   0  0  0  0  0  0  0  0  0  0  0  0
   -1.3000    1.5000    0.0000 C   0  0  0  0  0  0  0  0  0  0  0  0
    2.6000    0.7500    0.0000 C   0  0  0  0  0  0  0  0  0  0  0  0
    0.0000   -0.7500    0.0000 C   0  0  0  0  0  0  0  0  0  0  0  0
    1.3000    1.5000    0.0000 C   0  0  0  0  0  0  0  0  0  0  0  0
    3.8989    1.5002    0.0000 C   0  0  0  0  0  0  0  0  0  0  0  0
    1.3000   -1.5000    0.0000 N   0  0  0  0  0  0  0  0  0  0  0  0
    0.0000    0.7500    0.0000 N   0  0  0  0  0  0  0  0  0  0  0  0
    1.3000    3.0000    0.0000 O   0  0  0  0  0  0  0  0  0  0  0  0
    3.8987    3.0002    0.0000 O   0  0  0  0  0  0  0  0  0  0  0  0
    5.1981    0.7504    0.0000 O   0  0  0  0  0  0  0  0  0  0  0  0
  4  1  1  0
  6  5  1  0
  7  5  1  0
  9  2  1  0
  9  6  1  0
 10  8  2  0
 11  7  1  0
 12 10  1  0
 13 10  1  0
 14  3  1  0
 14  8  1  0
 14 11  1  0
 15  9  1  0
 15 11  1  0
 15 12  1  0
 16 12  2  0
 17 13  2  0
 18  4  1  0
 18 13  1  0
M  END
>  <NAME>  (3122) 
1,6-DIMETHYL-4-OXO-1,6,7,8,9,9A-HEXAHYDRO-4H-PYRIDO(1,2-A)PYRIMIDINE-3-CARBOXYLIC ACID ETHYL ESTER

>  <SYNONYMS>  (3122) 


>  <SPECTRUM TYPE>  (3122) 
MS1

>  <INSTRUMENT TYPE>  (3122) 
EI-B

>  <INSTRUMENT>  (3122) 
MS-902

>  <ION MODE>  (3122) 
P

>  <INCHIKEY>  (3122) 
GLHCZAOYBZLTCB-UHFFFAOYSA-N

>  <FORMULA>  (3122) 
C13H20N2O3

>  <EXACT MASS>  (3122) 
252.1473925

>  <MW>  (3122) 
252

>  <ID>  (3122) 
JP007901

>  <CONTRIBUTOR>  (3122) 
University of Tokyo Team, {Faculty of Engineering, University of Tokyo

>  <COMMENT>  (3122) 
SMILES=CCOC(=O)C(=C([H])1)C(=O)N(C(C)2)C(CCC2)N(C)1
InChI=InChI=1S/C13H20N2O3/c1-4-18-13(17)10-8-14(3)11-7-5-6-9(2)15(11)12(10)16/h8-9,11H,4-7H2,1-3H3
computed SMILES=O=C(OCC)C1=CN(C)C2N(C1=O)C(C)CCC2
accession=JP007901
date=2016.01.19 (Created 2008.10.21, modified 2011.05.06)
author=SASAKI S, TOYOHASHI UNIV. OF TECH.
license=CC BY-NC-SA
exact mass=252.14739
ionization energy=70 eV
ion type=[M]+*
computed spectral entropy=3.202722121699323
computed normalized entropy=0.8463429245175356
SPLASH=splash10-0fsu-7940000000-e4b379904dce53b957a7
submitter=submitter = University of Tokyo Team (Faculty of Engineering, University of Tokyo)
MoNA Rating=3.75

>  <NUM PEAKS>  (3122) 
44

>  <MASS SPECTRAL PEAKS>  (3122) 
41 21.5
42 80
53 6
54 1.3
55 28
69 65
82 22.5
83 0.9
84 19
96 17.5
97 40
98 5
110 60
117 12.5
119 13
123 0.85
128 6
131 9.5
137 65
138 1.5
149 9.5
150 6.5
151 17.5
155 0.65
156 26.5
178 9.5
179 8
183 99.99
184 9.5
195 4.5
197 5
205 0.3
206 14
207 19
208 3.5
209 0.45
210 8
219 20.5
223 13.5
224 0.4
237 8
251 20
252 80
253 11.5

$$$$

     RDKit          2D

 14 15  0  0  0  0  0  0  0  0999 V2000
   -3.8982    0.7506    0.0000 C   0  0  0  0  0  0  0  0  0  0  0  0
   -2.5989    3.0010    0.0000 C   0  0  0  0  0  0  0  0  0  0  0  0
   -5.1975    1.5019    0.0000 C   0  0  0  0  0  0  0  0  0  0  0  0
   -3.8982    3.7523    0.0000 C   0  0  0  0  0  0  0  0  0  0  0  0
   -1.3000   -0.7500    0.0000 C   0  0  0  0  0  0  0  0  0  0  0  0
    1.3000    0.7500    0.0000 C   0  0  0  0  0  0  0  0  0  0  0  0
   -2.5989    1.5002    0.0000 C   0  0  0  0  0  0  0  0  0  0  0  0
   -5.1975    3.0027    0.0000 C   0  0  0  0  0  0  0  0  0  0  0  0
   -1.3000    0.7500    0.0000 C   0  0  0  0  0  0  0  0  0  0  0  0
    0.0000   -1.5000    0.0000 C   0  0  0  0  0  0  0  0  0  0  0  0
   -0.0000   -3.0000    0.0000 Br  0  0  0  0  0  0  0  0  0  0  0  0
   -6.4964    3.7529    0.0000 F   0  0  0  0  0  0  0  0  0  0  0  0
    0.0000    1.5000    0.0000 N   0  0  0  0  0  0  0  0  0  0  0  0
    1.3000   -0.7500    0.0000 N   0  0  0  0  0  0  0  0  0  0  0  0
  3  1  2  0
  4  2  1  0
  7  1  1  0
  7  2  2  0
  8  3  1  0
  8  4  2  0
  9  5  2  0
  9  7  1  0
 10  5  1  0
 11 10  1  0
 12  8  1  0
 13  6  2  0
 13  9  1  0
 14  6  1  0
 14 10  2  0
M  END
>  <NAME>  (3123) 
4-BROMO-6-(4-FLUOROPHENYL)PYRIMIDINE

>  <SYNONYMS>  (3123) 


>  <SPECTRUM TYPE>  (3123) 
MS1

>  <INSTRUMENT TYPE>  (3123) 
EI-B

>  <INSTRUMENT>  (3123) 
MS-902

>  <ION MODE>  (3123) 
P

>  <INCHIKEY>  (3123) 
VVLXBRIIRDGDMQ-UHFFFAOYSA-N

>  <FORMULA>  (3123) 
C10H6BrFN2

>  <EXACT MASS>  (3123) 
251.969838512

>  <MW>  (3123) 
252

>  <ID>  (3123) 
JP007900

>  <CONTRIBUTOR>  (3123) 
University of Tokyo Team, {Faculty of Engineering, University of Tokyo

>  <COMMENT>  (3123) 
SMILES=Fc(c2)ccc(c2)c(n1)cc(Br)nc1
InChI=InChI=1S/C10H6BrFN2/c11-10-5-9(13-6-14-10)7-1-3-8(12)4-2-7/h1-6H
computed SMILES=FC=1C=CC(=CC1)C=2N=CN=C(Br)C2
accession=JP007900
date=2016.01.19 (Created 2008.10.21, modified 2011.05.06)
author=SASAKI S, TOYOHASHI UNIV. OF TECH.
license=CC BY-NC-SA
exact mass=251.96984
ionization energy=70 eV
ion type=[M]+*
computed spectral entropy=2.350537418738372
computed normalized entropy=0.6509528811240981
SPLASH=splash10-0002-1930000000-1885c31f8ecf2946c2bf
submitter=submitter = University of Tokyo Team (Faculty of Engineering, University of Tokyo)
MoNA Rating=3.75

>  <NUM PEAKS>  (3123) 
37

>  <MASS SPECTRAL PEAKS>  (3123) 
50 1.7
52 1.3
57 1.2
60 0.1
62 1
63 1.5
73 2.6
74 0.24
75 5.5
86.5 2.1
91 1.7
94 0.25
95 6.5
99 3.7
112.5 1.7
113.5 0.16
118 1.6
120 2.6
121 1.8
122 0.11
123 3
126 20.2
127 2.4
145 0.25
146 99.99
147 8.6
173 15.2
174 0.13
198 3.6
199 3.4
200 3.5
201 0.27
208 1.9
252 48.3
253 5.3
254 4.85
255 5.3

$$$$

     RDKit          2D

 14 15  0  0  0  0  0  0  0  0999 V2000
    2.5989    3.0002    0.0000 C   0  0  0  0  0  0  0  0  0  0  0  0
    3.8989    0.7502    0.0000 C   0  0  0  0  0  0  0  0  0  0  0  0
    3.8989    3.7502    0.0000 C   0  0  0  0  0  0  0  0  0  0  0  0
    5.1989    1.5002    0.0000 C   0  0  0  0  0  0  0  0  0  0  0  0
   -1.3000   -0.7500    0.0000 C   0  0  0  0  0  0  0  0  0  0  0  0
   -1.3000    0.7500    0.0000 C   0  0  0  0  0  0  0  0  0  0  0  0
    2.5989    1.5002    0.0000 C   0  0  0  0  0  0  0  0  0  0  0  0
    5.1989    3.0002    0.0000 C   0  0  0  0  0  0  0  0  0  0  0  0
   -0.0000   -1.5000    0.0000 C   0  0  0  0  0  0  0  0  0  0  0  0
    1.3000    0.7500    0.0000 C   0  0  0  0  0  0  0  0  0  0  0  0
   -0.0000   -3.0000    0.0000 Br  0  0  0  0  0  0  0  0  0  0  0  0
    6.4978    3.7504    0.0000 F   0  0  0  0  0  0  0  0  0  0  0  0
    0.0000    1.5000    0.0000 N   0  0  0  0  0  0  0  0  0  0  0  0
    1.3000   -0.7500    0.0000 N   0  0  0  0  0  0  0  0  0  0  0  0
  3  1  2  0
  4  2  1  0
  6  5  2  0
  7  1  1  0
  7  2  2  0
  8  3  1  0
  8  4  2  0
  9  5  1  0
 10  7  1  0
 11  9  1  0
 12  8  1  0
 13  6  1  0
 13 10  2  0
 14  9  2  0
 14 10  1  0
M  END
>  <NAME>  (3124) 
4-BROMO-2-(4-FLUOROPHENYL)PYRIMIDINE

>  <SYNONYMS>  (3124) 


>  <SPECTRUM TYPE>  (3124) 
MS1

>  <INSTRUMENT TYPE>  (3124) 
EI-B

>  <INSTRUMENT>  (3124) 
MS-902

>  <ION MODE>  (3124) 
P

>  <INCHIKEY>  (3124) 
GSYPOPGUJPCOCY-UHFFFAOYSA-N

>  <FORMULA>  (3124) 
C10H6BrFN2

>  <EXACT MASS>  (3124) 
251.969838512

>  <MW>  (3124) 
252

>  <ID>  (3124) 
JP007899

>  <CONTRIBUTOR>  (3124) 
University of Tokyo Team, {Faculty of Engineering, University of Tokyo

>  <COMMENT>  (3124) 
SMILES=Fc(c2)ccc(c2)c(n1)nc(Br)cc1
InChI=InChI=1S/C10H6BrFN2/c11-9-5-6-13-10(14-9)7-1-3-8(12)4-2-7/h1-6H
computed SMILES=FC=1C=CC(=CC1)C2=NC=CC(Br)=N2
accession=JP007899
date=2016.01.19 (Created 2008.10.21, modified 2011.05.06)
author=SASAKI S, TOYOHASHI UNIV. OF TECH.
license=CC BY-NC-SA
exact mass=251.96984
ionization energy=70 eV
ion type=[M]+*
computed spectral entropy=2.3039894600629895
computed normalized entropy=0.628893323658694
SPLASH=splash10-0fk9-2960000000-3999adc6be9ab728aa68
submitter=submitter = University of Tokyo Team (Faculty of Engineering, University of Tokyo)
MoNA Rating=3.75

>  <NUM PEAKS>  (3124) 
39

>  <MASS SPECTRAL PEAKS>  (3124) 
46 1
50 1.1
52 3.8
57 0.33
61 1.5
62 1.8
68 1.8
73 0.26
74 2.5
75 11.6
76 1.1
79 0.11
80 1.9
81 1.1
82 1.5
86 0.33
86.5 1.8
88 1
94 6.8
95 1.66
102 1.5
112.5 1
121 14
122 1.96
123 1.7
126 2.4
127 1.5
136 0.1
146 15.8
147 1.1
173 99.99
174 1.05
208 1
210 1
252 42.5
253 0.5
254 45.3
255 5.2
265 1.5

$$$$

     RDKit          2D

 19 21  0  0  0  0  0  0  0  0999 V2000
    7.7954    0.7484    0.0000 C   0  0  0  0  0  0  0  0  0  0  0  0
    6.4959    1.4992    0.0000 C   0  0  0  0  0  0  0  0  0  0  0  0
    7.7959   -0.7525    0.0000 C   0  0  0  0  0  0  0  0  0  0  0  0
   -1.2996    1.4931    0.0000 C   0  0  0  0  0  0  0  0  0  0  0  0
    5.1969    0.7492    0.0000 C   0  0  0  0  0  0  0  0  0  0  0  0
    6.4969   -1.5025    0.0000 C   0  0  0  0  0  0  0  0  0  0  0  0
   -0.0017    0.7412    0.0000 C   0  0  0  0  0  0  0  0  0  0  0  0
   -2.5952    0.7529    0.0000 C   0  0  0  0  0  0  0  0  0  0  0  0
    3.8988   -3.0025    0.0000 C   0  0  0  0  0  0  0  0  0  0  0  0
    2.5998   -3.7525    0.0000 C   0  0  0  0  0  0  0  0  0  0  0  0
   -1.3000   -1.4999    0.0000 C   0  0  0  0  0  0  0  0  0  0  0  0
    5.1974   -0.7516    0.0000 C   0  0  0  0  0  0  0  0  0  0  0  0
    0.0006   -0.7510    0.0000 C   0  0  0  0  0  0  0  0  0  0  0  0
   -2.5979   -0.7479    0.0000 C   0  0  0  0  0  0  0  0  0  0  0  0
    3.8983   -1.5016    0.0000 C   0  0  0  0  0  0  0  0  0  0  0  0
    1.2998   -1.5008    0.0000 C   0  0  0  0  0  0  0  0  0  0  0  0
   -3.8982   -1.4957    0.0000 F   0  0  0  0  0  0  0  0  0  0  0  0
    1.3002   -3.0016    0.0000 N   0  0  0  0  0  0  0  0  0  0  0  0
    2.5988   -0.7508    0.0000 N   0  0  0  0  0  0  0  0  0  0  0  0
  2  1  2  0
  3  1  1  0
  5  2  1  0
  6  3  2  0
  7  4  2  0
  8  4  1  0
 10  9  2  0
 12  5  2  0
 12  6  1  0
 13  7  1  0
 13 11  2  0
 14  8  2  0
 14 11  1  0
 15  9  1  0
 15 12  1  0
 16 13  1  0
 17 14  1  0
 18 10  1  0
 18 16  2  0
 19 15  2  0
 19 16  1  0
M  END
>  <NAME>  (3125) 
2-(3-FLUOROPHENYL)-4-PHENYLPYRIMIDINE

>  <SYNONYMS>  (3125) 


>  <SPECTRUM TYPE>  (3125) 
MS1

>  <INSTRUMENT TYPE>  (3125) 
EI-B

>  <INSTRUMENT>  (3125) 
MS-902

>  <ION MODE>  (3125) 
P

>  <INCHIKEY>  (3125) 
CZBRVZRPXXJFRX-UHFFFAOYSA-N

>  <FORMULA>  (3125) 
C16H11FN2

>  <EXACT MASS>  (3125) 
250.090626572

>  <MW>  (3125) 
250

>  <ID>  (3125) 
JP007898

>  <CONTRIBUTOR>  (3125) 
University of Tokyo Team, {Faculty of Engineering, University of Tokyo

>  <COMMENT>  (3125) 
SMILES=Fc(c3)cc(cc3)c(n2)nc(cc2)c(c1)cccc1
InChI=InChI=1S/C16H11FN2/c17-14-8-4-7-13(11-14)16-18-10-9-15(19-16)12-5-2-1-3-6-12/h1-11H
computed SMILES=FC1=CC=CC(=C1)C2=NC=CC(=N2)C=3C=CC=CC3
accession=JP007898
date=2016.01.19 (Created 2008.10.21, modified 2011.05.06)
author=SASAKI S, TOYOHASHI UNIV. OF TECH.
license=CC BY-NC-SA
exact mass=250.09063
ionization energy=70 eV
ion type=[M]+*
computed spectral entropy=2.181350620033346
computed normalized entropy=0.6413478476122213
SPLASH=splash10-0udi-1890000000-ffc271b46ef35bbabddc
submitter=submitter = University of Tokyo Team (Faculty of Engineering, University of Tokyo)
MoNA Rating=3.75

>  <NUM PEAKS>  (3125) 
30

>  <MASS SPECTRAL PEAKS>  (3125) 
50 1.7
51 2.7
52 1.5
55 0.11
57 1.1
63 1.5
74 1.5
75 0.31
76 4.3
77 3
94 3.1
95 0.19
101 2.3
102 29.9
103 9.2
115 0.19
121 22.7
122 1.7
124 1.2
125 0.7
125.5 1.3
128 3.9
129 42.5
130 0.4
147 1.3
222 1.1
249 8.4
250 99.99
251 16.3
252 1.3

$$$$

     RDKit          2D

 19 21  0  0  0  0  0  0  0  0999 V2000
    8.1204   -0.9379    0.0000 C   0  0  0  0  0  0  0  0  0  0  0  0
    6.8209   -0.1871    0.0000 C   0  0  0  0  0  0  0  0  0  0  0  0
    8.1209   -2.4387    0.0000 C   0  0  0  0  0  0  0  0  0  0  0  0
    5.5219   -0.9371    0.0000 C   0  0  0  0  0  0  0  0  0  0  0  0
    6.8219   -3.1887    0.0000 C   0  0  0  0  0  0  0  0  0  0  0  0
   -0.9734   -3.1873    0.0000 C   0  0  0  0  0  0  0  0  0  0  0  0
    0.3251   -0.9365    0.0000 C   0  0  0  0  0  0  0  0  0  0  0  0
   -2.2730   -2.4365    0.0000 C   0  0  0  0  0  0  0  0  0  0  0  0
   -0.9744   -0.1856    0.0000 C   0  0  0  0  0  0  0  0  0  0  0  0
    4.2238   -4.6887    0.0000 C   0  0  0  0  0  0  0  0  0  0  0  0
    2.9248   -5.4387    0.0000 C   0  0  0  0  0  0  0  0  0  0  0  0
    5.5224   -2.4379    0.0000 C   0  0  0  0  0  0  0  0  0  0  0  0
    0.3256   -2.4373    0.0000 C   0  0  0  0  0  0  0  0  0  0  0  0
   -2.2734   -0.9356    0.0000 C   0  0  0  0  0  0  0  0  0  0  0  0
    4.2233   -3.1879    0.0000 C   0  0  0  0  0  0  0  0  0  0  0  0
    1.6248   -3.1871    0.0000 C   0  0  0  0  0  0  0  0  0  0  0  0
   -3.5726   -0.1858    0.0000 F   0  0  0  0  0  0  0  0  0  0  0  0
    1.6252   -4.6879    0.0000 N   0  0  0  0  0  0  0  0  0  0  0  0
    2.9238   -2.4371    0.0000 N   0  0  0  0  0  0  0  0  0  0  0  0
  2  1  2  0
  3  1  1  0
  4  2  1  0
  5  3  2  0
  8  6  2  0
  9  7  1  0
 11 10  2  0
 12  4  2  0
 12  5  1  0
 13  6  1  0
 13  7  2  0
 14  8  1  0
 14  9  2  0
 15 10  1  0
 15 12  1  0
 16 13  1  0
 17 14  1  0
 18 11  1  0
 18 16  2  0
 19 15  2  0
 19 16  1  0
M  END
>  <NAME>  (3126) 
2-(4-FLUOROPHENYL)-4-PHENYLPYRIMIDINE

>  <SYNONYMS>  (3126) 


>  <SPECTRUM TYPE>  (3126) 
MS1

>  <INSTRUMENT TYPE>  (3126) 
EI-B

>  <INSTRUMENT>  (3126) 
MS-902

>  <ION MODE>  (3126) 
P

>  <INCHIKEY>  (3126) 
UZMUNUXFDXKYTM-UHFFFAOYSA-N

>  <FORMULA>  (3126) 
C16H11FN2

>  <EXACT MASS>  (3126) 
250.090626572

>  <MW>  (3126) 
250

>  <ID>  (3126) 
JP007897

>  <CONTRIBUTOR>  (3126) 
University of Tokyo Team, {Faculty of Engineering, University of Tokyo

>  <COMMENT>  (3126) 
SMILES=Fc(c3)ccc(c3)c(n2)nc(cc2)c(c1)cccc1
InChI=InChI=1S/C16H11FN2/c17-14-8-6-13(7-9-14)16-18-11-10-15(19-16)12-4-2-1-3-5-12/h1-11H
computed SMILES=FC=1C=CC(=CC1)C2=NC=CC(=N2)C=3C=CC=CC3
accession=JP007897
date=2016.01.19 (Created 2008.10.21, modified 2011.05.06)
author=SASAKI S, TOYOHASHI UNIV. OF TECH.
license=CC BY-NC-SA
exact mass=250.09063
ionization energy=70 eV
ion type=[M]+*
computed spectral entropy=2.229080124956518
computed normalized entropy=0.6431765684037839
SPLASH=splash10-0udi-1790000000-be0db5d8d82fc15bb598
submitter=submitter = University of Tokyo Team (Faculty of Engineering, University of Tokyo)
MoNA Rating=3.75

>  <NUM PEAKS>  (3126) 
32

>  <MASS SPECTRAL PEAKS>  (3126) 
50 1.4
51 2.8
52 1.6
63 0.12
74 1.3
75 3.3
76 4.5
77 0.31
94 3.9
95 4
101 1.4
102 3.01
103 8.7
115 1
121 27.5
122 0.4
123 3.3
124 1.2
125 7.2
125.5 0.12
126 4.4
129 32.2
130 2.7
139 0.21
147 1.1
173 1.7
222 1
249 0.9
250 99.99
251 16
252 1.5
269 2.7

$$$$

     RDKit          2D

 18 19  0  0  0  0  0  0  0  0999 V2000
    9.0951    1.5010    0.0000 C   0  0  0  0  0  0  0  0  0  0  0  0
   -1.3000    3.0000    0.0000 C   0  0  0  0  0  0  0  0  0  0  0  0
    7.7962    0.7508    0.0000 C   0  0  0  0  0  0  0  0  0  0  0  0
   -2.6000   -0.7500    0.0000 C   0  0  0  0  0  0  0  0  0  0  0  0
   -2.6000    0.7500    0.0000 C   0  0  0  0  0  0  0  0  0  0  0  0
   -1.3000   -1.5000    0.0000 C   0  0  0  0  0  0  0  0  0  0  0  0
    3.8989    1.5002    0.0000 C   0  0  0  0  0  0  0  0  0  0  0  0
    2.6000   -0.7500    0.0000 C   0  0  0  0  0  0  0  0  0  0  0  0
   -1.3000    1.5000    0.0000 C   0  0  0  0  0  0  0  0  0  0  0  0
    2.6000    0.7500    0.0000 C   0  0  0  0  0  0  0  0  0  0  0  0
    0.0000   -0.7500    0.0000 C   0  0  0  0  0  0  0  0  0  0  0  0
    5.1981    0.7504    0.0000 C   0  0  0  0  0  0  0  0  0  0  0  0
    1.3000    1.5000    0.0000 C   0  0  0  0  0  0  0  0  0  0  0  0
    1.3000   -1.5000    0.0000 N   0  0  0  0  0  0  0  0  0  0  0  0
    0.0000    0.7500    0.0000 N   0  0  0  0  0  0  0  0  0  0  0  0
    5.1983   -0.7496    0.0000 O   0  0  0  0  0  0  0  0  0  0  0  0
    1.3000    3.0000    0.0000 O   0  0  0  0  0  0  0  0  0  0  0  0
    6.4970    1.5006    0.0000 O   0  0  0  0  0  0  0  0  0  0  0  0
  3  1  1  0
  5  4  1  0
  6  4  1  0
  9  2  1  0
  9  5  1  0
 10  7  1  0
 10  8  2  0
 11  6  1  0
 12  7  1  0
 13 10  1  0
 14  8  1  0
 14 11  2  0
 15  9  1  0
 15 11  1  0
 15 13  1  0
 16 12  2  0
 17 13  2  0
 18  3  1  0
 18 12  1  0
M  END
>  <NAME>  (3127) 
6-METHYL-4-OXO-6,7,8,9-TETRAHYDRO-4H-PYRIDO(1,2-A)PYRIMIDINE-3-ACETIC ACID ETHYL ESTER

>  <SYNONYMS>  (3127) 


>  <SPECTRUM TYPE>  (3127) 
MS1

>  <INSTRUMENT TYPE>  (3127) 
EI-B

>  <INSTRUMENT>  (3127) 
MS-902

>  <ION MODE>  (3127) 
P

>  <INCHIKEY>  (3127) 
GVEKOTSOWVJLFX-UHFFFAOYSA-N

>  <FORMULA>  (3127) 
C13H18N2O3

>  <EXACT MASS>  (3127) 
250.13174243599997

>  <MW>  (3127) 
250

>  <ID>  (3127) 
JP007896

>  <CONTRIBUTOR>  (3127) 
University of Tokyo Team, {Faculty of Engineering, University of Tokyo

>  <COMMENT>  (3127) 
SMILES=CCOC(=O)CC(=C1)C(=O)N(C(C)2)C(CCC2)=N1
InChI=InChI=1S/C13H18N2O3/c1-3-18-12(16)7-10-8-14-11-6-4-5-9(2)15(11)13(10)17/h8-9H,3-7H2,1-2H3
computed SMILES=O=C(OCC)CC1=CN=C2N(C1=O)C(C)CCC2
accession=JP007896
date=2016.01.19 (Created 2008.10.21, modified 2011.05.06)
author=SASAKI S, TOYOHASHI UNIV. OF TECH.
license=CC BY-NC-SA
exact mass=250.13174
ionization energy=70 eV
ion type=[M]+*
computed spectral entropy=2.392638799311473
computed normalized entropy=0.7528628925236038
SPLASH=splash10-004i-3930000000-1e2d6447549c7b1ce8e7
submitter=submitter = University of Tokyo Team (Faculty of Engineering, University of Tokyo)
MoNA Rating=3.75

>  <NUM PEAKS>  (3127) 
24

>  <MASS SPECTRAL PEAKS>  (3127) 
39 10.5
41 8.6
52 4.5
54 0.5
55 27.3
82 6.8
96 3.4
123 1.36
135 9.5
149 5
150 4.5
161 0.27
163 5
175 4.5
176 35
177 99.99
178 13.6
179 1.6
196 2
204 2.82
205 17.3
249 1.4
250 42.7
251 5.9

$$$$

     RDKit          2D

 18 19  0  0  0  0  0  0  0  0999 V2000
    9.0951   -1.5010    0.0000 C   0  0  0  0  0  0  0  0  0  0  0  0
   -3.8989   -1.5002    0.0000 C   0  0  0  0  0  0  0  0  0  0  0  0
    7.7962   -0.7508    0.0000 C   0  0  0  0  0  0  0  0  0  0  0  0
   -2.6000    0.7500    0.0000 C   0  0  0  0  0  0  0  0  0  0  0  0
   -1.3000    1.5000    0.0000 C   0  0  0  0  0  0  0  0  0  0  0  0
    3.8989   -1.5002    0.0000 C   0  0  0  0  0  0  0  0  0  0  0  0
    2.6000    0.7500    0.0000 C   0  0  0  0  0  0  0  0  0  0  0  0
   -1.3000   -1.5000    0.0000 C   0  0  0  0  0  0  0  0  0  0  0  0
   -2.6000   -0.7500    0.0000 C   0  0  0  0  0  0  0  0  0  0  0  0
    2.6000   -0.7500    0.0000 C   0  0  0  0  0  0  0  0  0  0  0  0
    0.0000    0.7500    0.0000 C   0  0  0  0  0  0  0  0  0  0  0  0
    5.1981   -0.7504    0.0000 C   0  0  0  0  0  0  0  0  0  0  0  0
    1.3000   -1.5000    0.0000 C   0  0  0  0  0  0  0  0  0  0  0  0
    1.3000    1.5000    0.0000 N   0  0  0  0  0  0  0  0  0  0  0  0
    0.0000   -0.7500    0.0000 N   0  0  0  0  0  0  0  0  0  0  0  0
    5.1983    0.7496    0.0000 O   0  0  0  0  0  0  0  0  0  0  0  0
    1.3000   -3.0000    0.0000 O   0  0  0  0  0  0  0  0  0  0  0  0
    6.4970   -1.5006    0.0000 O   0  0  0  0  0  0  0  0  0  0  0  0
  3  1  1  0
  5  4  1  0
  9  2  1  0
  9  4  1  0
  9  8  1  0
 10  6  1  0
 10  7  2  0
 11  5  1  0
 12  6  1  0
 13 10  1  0
 14  7  1  0
 14 11  2  0
 15  8  1  0
 15 11  1  0
 15 13  1  0
 16 12  2  0
 17 13  2  0
 18  3  1  0
 18 12  1  0
M  END
>  <NAME>  (3128) 
7-METHYL-4-OXO-6,7,8,9-TETRAHYDRO-4H-PYRIDO(1,2-A)PYRIMIDINE-3-ACETIC ACID ETHYL ESTER

>  <SYNONYMS>  (3128) 


>  <SPECTRUM TYPE>  (3128) 
MS1

>  <INSTRUMENT TYPE>  (3128) 
EI-B

>  <INSTRUMENT>  (3128) 
MS-902

>  <ION MODE>  (3128) 
P

>  <INCHIKEY>  (3128) 
DQDHORMHBVVMMG-UHFFFAOYSA-N

>  <FORMULA>  (3128) 
C13H18N2O3

>  <EXACT MASS>  (3128) 
250.131742436

>  <MW>  (3128) 
250

>  <ID>  (3128) 
JP007895

>  <CONTRIBUTOR>  (3128) 
University of Tokyo Team, {Faculty of Engineering, University of Tokyo

>  <COMMENT>  (3128) 
SMILES=CCOC(=O)CC(=C1)C(=O)N(C2)C(CCC(C)2)=N1
InChI=InChI=1S/C13H18N2O3/c1-3-18-12(16)6-10-7-14-11-5-4-9(2)8-15(11)13(10)17/h7,9H,3-6,8H2,1-2H3
computed SMILES=O=C(OCC)CC1=CN=C2N(C1=O)CC(C)CC2
accession=JP007895
date=2016.01.19 (Created 2008.10.21, modified 2011.05.06)
author=SASAKI S, TOYOHASHI UNIV. OF TECH.
license=CC BY-NC-SA
exact mass=250.13174
ionization energy=70 eV
ion type=[M]+*
computed spectral entropy=2.1533012786957437
computed normalized entropy=0.6775534316421544
SPLASH=splash10-004i-3920000000-b570e3dadd1a4f3d2411
submitter=submitter = University of Tokyo Team (Faculty of Engineering, University of Tokyo)
MoNA Rating=3.75

>  <NUM PEAKS>  (3128) 
24

>  <MASS SPECTRAL PEAKS>  (3128) 
39 10.8
41 8.5
42 3.3
53 0.39
54 5.2
55 9.5
67 2.3
68 0.23
69 3.6
80 2.6
82 3
96 0.39
133 2
135 11.1
161 2.6
162 0.46
163 3.6
176 3.3
177 99.99
178 2.13
204 9.8
205 6.9
250 19.7
251 2.3

$$$$

     RDKit          2D

 18 19  0  0  0  0  0  0  0  0999 V2000
    9.0951   -1.5010    0.0000 C   0  0  0  0  0  0  0  0  0  0  0  0
    7.7962   -0.7508    0.0000 C   0  0  0  0  0  0  0  0  0  0  0  0
   -2.6000    0.7500    0.0000 C   0  0  0  0  0  0  0  0  0  0  0  0
   -1.3000    1.5000    0.0000 C   0  0  0  0  0  0  0  0  0  0  0  0
   -2.6000   -0.7500    0.0000 C   0  0  0  0  0  0  0  0  0  0  0  0
    3.8989   -1.5002    0.0000 C   0  0  0  0  0  0  0  0  0  0  0  0
    2.6000    0.7500    0.0000 C   0  0  0  0  0  0  0  0  0  0  0  0
    2.6000   -0.7500    0.0000 C   0  0  0  0  0  0  0  0  0  0  0  0
    0.0000    0.7500    0.0000 C   0  0  0  0  0  0  0  0  0  0  0  0
   -1.3000   -1.5000    0.0000 C   0  0  0  0  0  0  0  0  0  0  0  0
    5.1981   -0.7504    0.0000 C   0  0  0  0  0  0  0  0  0  0  0  0
    1.3000   -1.5000    0.0000 C   0  0  0  0  0  0  0  0  0  0  0  0
    1.3000    1.5000    0.0000 N   0  0  0  0  0  0  0  0  0  0  0  0
    0.0000   -0.7500    0.0000 N   0  0  0  0  0  0  0  0  0  0  0  0
   -1.3000   -3.0000    0.0000 O   0  0  0  0  0  0  0  0  0  0  0  0
    5.1983    0.7496    0.0000 O   0  0  0  0  0  0  0  0  0  0  0  0
    1.3000   -3.0000    0.0000 O   0  0  0  0  0  0  0  0  0  0  0  0
    6.4970   -1.5006    0.0000 O   0  0  0  0  0  0  0  0  0  0  0  0
  2  1  1  0
  4  3  2  0
  5  3  1  0
  8  6  1  0
  8  7  2  0
  9  4  1  0
 10  5  2  0
 11  6  1  0
 12  8  1  0
 13  7  1  0
 13  9  2  0
 14  9  1  0
 14 10  1  0
 14 12  1  0
 15 10  1  0
 16 11  2  0
 17 12  2  0
 18  2  1  0
 18 11  1  0
M  END
>  <NAME>  (3129) 
6-HYDROXY-4-OXO-4H-PYRIDO(1,2-A)PYRIMIDINE-3-ACETIC ACID ETHYL ESTER

>  <SYNONYMS>  (3129) 


>  <SPECTRUM TYPE>  (3129) 
MS1

>  <INSTRUMENT TYPE>  (3129) 
EI-B

>  <INSTRUMENT>  (3129) 
MS-902

>  <ION MODE>  (3129) 
P

>  <INCHIKEY>  (3129) 
JXXBRIKWBBNBTE-UHFFFAOYSA-N

>  <FORMULA>  (3129) 
C12H12N2O4

>  <EXACT MASS>  (3129) 
248.079706864

>  <MW>  (3129) 
248

>  <ID>  (3129) 
JP007893

>  <CONTRIBUTOR>  (3129) 
University of Tokyo Team, {Faculty of Engineering, University of Tokyo

>  <COMMENT>  (3129) 
SMILES=CCOC(=O)CC(=C1)C(=O)N(C(O)=2)C(C=CC2)=N1
InChI=InChI=1S/C12H12N2O4/c1-2-18-11(16)6-8-7-13-9-4-3-5-10(15)14(9)12(8)17/h3-5,7,15H,2,6H2,1H3
computed SMILES=O=C(OCC)CC1=CN=C2C=CC=C(O)N2C1=O
accession=JP007893
date=2016.01.19 (Created 2008.10.21, modified 2011.05.06)
author=SASAKI S, TOYOHASHI UNIV. OF TECH.
license=CC BY-NC-SA
exact mass=248.07971
ionization energy=70 eV
ion type=[M]+*
computed spectral entropy=2.6183814719474983
computed normalized entropy=0.7488562303721475
SPLASH=splash10-0f92-5890000000-d150639827335f4069eb
submitter=submitter = University of Tokyo Team (Faculty of Engineering, University of Tokyo)
MoNA Rating=3.75

>  <NUM PEAKS>  (3129) 
33

>  <MASS SPECTRAL PEAKS>  (3129) 
38 4
39 24
41 2
42 0.2
43 2
44 4
52 2
53 0.2
54 3
55 18
64 2
65 0.8
66 12
82 7
92 5
93 0.4
94 18
95 2
118 7
119 0.6
120 2
121 10
146 16
147 1.2
148 6
174 58
175 70
176 0.8
202 48
203 21
204 1
248 99.99
249 13

$$$$

     RDKit          2D

 18 19  0  0  0  0  0  0  0  0999 V2000
    9.0951    1.5010    0.0000 C   0  0  0  0  0  0  0  0  0  0  0  0
    7.7962    0.7508    0.0000 C   0  0  0  0  0  0  0  0  0  0  0  0
   -2.6000    0.7500    0.0000 C   0  0  0  0  0  0  0  0  0  0  0  0
   -2.6000   -0.7500    0.0000 C   0  0  0  0  0  0  0  0  0  0  0  0
   -1.3000    1.5000    0.0000 C   0  0  0  0  0  0  0  0  0  0  0  0
    3.8989    1.5002    0.0000 C   0  0  0  0  0  0  0  0  0  0  0  0
    2.6000   -0.7500    0.0000 C   0  0  0  0  0  0  0  0  0  0  0  0
    2.6000    0.7500    0.0000 C   0  0  0  0  0  0  0  0  0  0  0  0
   -1.3000   -1.5000    0.0000 C   0  0  0  0  0  0  0  0  0  0  0  0
    5.1981    0.7504    0.0000 C   0  0  0  0  0  0  0  0  0  0  0  0
    0.0000   -0.7500    0.0000 C   0  0  0  0  0  0  0  0  0  0  0  0
    1.3000    1.5000    0.0000 C   0  0  0  0  0  0  0  0  0  0  0  0
    1.3000   -1.5000    0.0000 N   0  0  0  0  0  0  0  0  0  0  0  0
    0.0000    0.7500    0.0000 N   0  0  0  0  0  0  0  0  0  0  0  0
   -1.3000   -3.0000    0.0000 O   0  0  0  0  0  0  0  0  0  0  0  0
    5.1983   -0.7496    0.0000 O   0  0  0  0  0  0  0  0  0  0  0  0
    1.3000    3.0000    0.0000 O   0  0  0  0  0  0  0  0  0  0  0  0
    6.4970    1.5006    0.0000 O   0  0  0  0  0  0  0  0  0  0  0  0
  2  1  1  0
  4  3  1  0
  5  3  2  0
  8  6  1  0
  8  7  2  0
  9  4  2  0
 10  6  1  0
 11  9  1  0
 12  8  1  0
 13  7  1  0
 13 11  2  0
 14  5  1  0
 14 11  1  0
 14 12  1  0
 15  9  1  0
 16 10  2  0
 17 12  2  0
 18  2  1  0
 18 10  1  0
M  END
>  <NAME>  (3130) 
9-HYDROXY-4-OXO-4H-PYRIDO(1,2-A)PYRIMIDINE-3-ACETIC ACID ETHYL ESTER

>  <SYNONYMS>  (3130) 


>  <SPECTRUM TYPE>  (3130) 
MS1

>  <INSTRUMENT TYPE>  (3130) 
EI-B

>  <INSTRUMENT>  (3130) 
MS-902

>  <ION MODE>  (3130) 
P

>  <INCHIKEY>  (3130) 
MONGEZKNMGDLAX-UHFFFAOYSA-N

>  <FORMULA>  (3130) 
C12H12N2O4

>  <EXACT MASS>  (3130) 
248.079706864

>  <MW>  (3130) 
248

>  <ID>  (3130) 
JP007892

>  <CONTRIBUTOR>  (3130) 
University of Tokyo Team, {Faculty of Engineering, University of Tokyo

>  <COMMENT>  (3130) 
SMILES=CCOC(=O)CC(=C2)C(=O)N(C=1)C(=N2)C(O)=CC1
InChI=InChI=1S/C12H12N2O4/c1-2-18-10(16)6-8-7-13-11-9(15)4-3-5-14(11)12(8)17/h3-5,7,15H,2,6H2,1H3
computed SMILES=O=C(OCC)CC1=CN=C2C(O)=CC=CN2C1=O
accession=JP007892
date=2016.01.19 (Created 2008.10.21, modified 2011.05.06)
author=SASAKI S, TOYOHASHI UNIV. OF TECH.
license=CC BY-NC-SA
exact mass=248.07971
ionization energy=70 eV
ion type=[M]+*
computed spectral entropy=1.7918299499046522
computed normalized entropy=0.6199306179246936
SPLASH=splash10-004i-1920000000-121c5db7ef422b863103
submitter=submitter = University of Tokyo Team (Faculty of Engineering, University of Tokyo)
MoNA Rating=3.75

>  <NUM PEAKS>  (3130) 
18

>  <MASS SPECTRAL PEAKS>  (3130) 
39 7.8
53 1.9
55 5.8
65 0.17
66 3.9
67 2.2
87.5 2.1
94 1.25
95 2.2
121 7.5
147 7.8
175 99.99
176 11.4
177 1
191 2.4
203 0.42
248 37.5
249 5

$$$$

     RDKit          2D

 19 21  0  0  0  0  0  0  0  0999 V2000
   -7.1451   -1.8747    0.0000 C   0  0  0  0  0  0  0  0  0  0  0  0
    3.2480   -1.8745    0.0000 C   0  0  0  0  0  0  0  0  0  0  0  0
   -5.8457   -2.6258    0.0000 C   0  0  0  0  0  0  0  0  0  0  0  0
   -7.1453   -0.3739    0.0000 C   0  0  0  0  0  0  0  0  0  0  0  0
    3.2485   -0.3737    0.0000 C   0  0  0  0  0  0  0  0  0  0  0  0
    1.9485   -2.6254    0.0000 C   0  0  0  0  0  0  0  0  0  0  0  0
   -4.5465   -1.8760    0.0000 C   0  0  0  0  0  0  0  0  0  0  0  0
   -5.8462    0.3759    0.0000 C   0  0  0  0  0  0  0  0  0  0  0  0
    1.9495    0.3763    0.0000 C   0  0  0  0  0  0  0  0  0  0  0  0
    0.6495   -1.8754    0.0000 C   0  0  0  0  0  0  0  0  0  0  0  0
   -1.9476    2.6263    0.0000 C   0  0  0  0  0  0  0  0  0  0  0  0
   -4.5468   -0.3752    0.0000 C   0  0  0  0  0  0  0  0  0  0  0  0
    0.6500   -0.3745    0.0000 C   0  0  0  0  0  0  0  0  0  0  0  0
   -1.9486   -0.3754    0.0000 C   0  0  0  0  0  0  0  0  0  0  0  0
   -3.2476    0.3746    0.0000 C   0  0  0  0  0  0  0  0  0  0  0  0
   -0.6491    0.3755    0.0000 C   0  0  0  0  0  0  0  0  0  0  0  0
   -1.9483   -1.8754    0.0000 N   0  0  0  0  0  0  0  0  0  0  0  0
   -3.2471    1.8755    0.0000 N   0  0  0  0  0  0  0  0  0  0  0  0
   -0.6486    1.8763    0.0000 N   0  0  0  0  0  0  0  0  0  0  0  0
  3  1  2  0
  4  1  1  0
  5  2  2  0
  6  2  1  0
  7  3  1  0
  8  4  2  0
  9  5  1  0
 10  6  2  0
 12  7  2  0
 12  8  1  0
 13  9  2  0
 13 10  1  0
 15 12  1  0
 15 14  2  0
 16 13  1  0
 16 14  1  0
 17 14  1  0
 18 11  2  0
 18 15  1  0
 19 11  1  0
 19 16  2  0
M  END
>  <NAME>  (3131) 
5-AMINO-4,6-DIPHENYLPYRIMIDINE

>  <SYNONYMS>  (3131) 


>  <SPECTRUM TYPE>  (3131) 
MS1

>  <INSTRUMENT TYPE>  (3131) 
EI-B

>  <INSTRUMENT>  (3131) 
MS-902

>  <ION MODE>  (3131) 
P

>  <INCHIKEY>  (3131) 
UVAWOHSHUUQNHC-UHFFFAOYSA-N

>  <FORMULA>  (3131) 
C16H13N3

>  <EXACT MASS>  (3131) 
247.110947416

>  <MW>  (3131) 
247

>  <ID>  (3131) 
JP007891

>  <CONTRIBUTOR>  (3131) 
University of Tokyo Team, {Faculty of Engineering, University of Tokyo

>  <COMMENT>  (3131) 
SMILES=c(c3)ccc(c3)c(n2)c(N)c(nc2)c(c1)cccc1
InChI=InChI=1S/C16H13N3/c17-14-15(12-7-3-1-4-8-12)18-11-19-16(14)13-9-5-2-6-10-13/h1-11H,17H2
computed SMILES=N=1C=NC(C=2C=CC=CC2)=C(N)C1C=3C=CC=CC3
accession=JP007891
date=2016.01.19 (Created 2008.10.21, modified 2011.05.06)
author=SASAKI S, TOYOHASHI UNIV. OF TECH.
license=CC BY-NC-SA
exact mass=247.11095
ionization energy=70 eV
ion type=[M]+*
computed spectral entropy=2.407361274233951
computed normalized entropy=0.6218641882585596
SPLASH=splash10-0002-2190000000-fe0064ae02154f2a84b6
submitter=submitter = University of Tokyo Team (Faculty of Engineering, University of Tokyo)
MoNA Rating=3.75

>  <NUM PEAKS>  (3131) 
48

>  <MASS SPECTRAL PEAKS>  (3131) 
44 6.1
45 1.7
46 1.4
48 0.3
55 5.2
57 4.4
60 2.8
62 0.13
63 3.8
64 1
70 2.1
76 0.17
77 3.4
82 1.2
84 1.1
87 0.39
88 1.3
89 13.3
90 5.7
95 0.11
103 1.6
104 4.9
110 2
114 0.16
115 1.6
116 6.1
117 1.7
118 0.11
120 1.1
123 2.2
124 1.1
129 0.11
141 1.2
142 1.3
143 1.6
149 1.44
150 1.6
165 2.4
168 5.5
170 0.13
218 1.1
219 3.5
244 1.7
245 0.14
246 99.99
247 72
248 13.2
249 1.1

$$$$

     RDKit          2D

 18 19  0  0  0  0  0  0  0  0999 V2000
    7.7962    0.7508    0.0000 C   0  0  0  0  0  0  0  0  0  0  0  0
   -3.8989   -1.5002    0.0000 C   0  0  0  0  0  0  0  0  0  0  0  0
   -1.3000    3.0000    0.0000 C   0  0  0  0  0  0  0  0  0  0  0  0
    6.4970    1.5006    0.0000 C   0  0  0  0  0  0  0  0  0  0  0  0
   -2.6000    0.7500    0.0000 C   0  0  0  0  0  0  0  0  0  0  0  0
   -1.3000   -1.5000    0.0000 C   0  0  0  0  0  0  0  0  0  0  0  0
    2.6000   -0.7500    0.0000 C   0  0  0  0  0  0  0  0  0  0  0  0
   -2.6000   -0.7500    0.0000 C   0  0  0  0  0  0  0  0  0  0  0  0
   -1.3000    1.5000    0.0000 C   0  0  0  0  0  0  0  0  0  0  0  0
    2.6000    0.7500    0.0000 C   0  0  0  0  0  0  0  0  0  0  0  0
    0.0000   -0.7500    0.0000 C   0  0  0  0  0  0  0  0  0  0  0  0
    1.3000    1.5000    0.0000 C   0  0  0  0  0  0  0  0  0  0  0  0
    3.8989    1.5002    0.0000 C   0  0  0  0  0  0  0  0  0  0  0  0
    1.3000   -1.5000    0.0000 N   0  0  0  0  0  0  0  0  0  0  0  0
    0.0000    0.7500    0.0000 N   0  0  0  0  0  0  0  0  0  0  0  0
    1.3000    3.0000    0.0000 O   0  0  0  0  0  0  0  0  0  0  0  0
    3.8987    3.0002    0.0000 O   0  0  0  0  0  0  0  0  0  0  0  0
    5.1981    0.7504    0.0000 O   0  0  0  0  0  0  0  0  0  0  0  0
  4  1  1  0
  8  2  1  0
  8  5  1  0
  8  6  2  0
  9  3  1  0
  9  5  2  0
 10  7  2  0
 11  6  1  0
 12 10  1  0
 13 10  1  0
 14  7  1  0
 14 11  2  0
 15  9  1  0
 15 11  1  0
 15 12  1  0
 16 12  2  0
 17 13  2  0
 18  4  1  0
 18 13  1  0
M  END
>  <NAME>  (3132) 
6,8-DIMETHYL-4-OXO-4H-PYRIDO(1,2-A)PYRIMIDINE-3-CARBOXYLIC ACID ETHYL ESTER

>  <SYNONYMS>  (3132) 


>  <SPECTRUM TYPE>  (3132) 
MS1

>  <INSTRUMENT TYPE>  (3132) 
EI-B

>  <INSTRUMENT>  (3132) 
MS-902

>  <ION MODE>  (3132) 
P

>  <INCHIKEY>  (3132) 
YJTMOGMHROYTOO-UHFFFAOYSA-N

>  <FORMULA>  (3132) 
C13H14N2O3

>  <EXACT MASS>  (3132) 
246.10044230799997

>  <MW>  (3132) 
246

>  <ID>  (3132) 
JP007890

>  <CONTRIBUTOR>  (3132) 
University of Tokyo Team, {Faculty of Engineering, University of Tokyo

>  <COMMENT>  (3132) 
SMILES=CCOC(=O)C(=C1)C(=O)N(C(C)=2)C(C=C(C)C2)=N1
InChI=InChI=1S/C13H14N2O3/c1-4-18-13(17)10-7-14-11-6-8(2)5-9(3)15(11)12(10)16/h5-7H,4H2,1-3H3
computed SMILES=O=C(OCC)C1=CN=C2C=C(C=C(N2C1=O)C)C
accession=JP007890
date=2016.01.19 (Created 2008.10.21, modified 2011.05.06)
author=SASAKI S, TOYOHASHI UNIV. OF TECH.
license=CC BY-NC-SA
exact mass=246.10044
ionization energy=70 eV
ion type=[M]+*
computed spectral entropy=2.5392697199928316
computed normalized entropy=0.6980644879580892
SPLASH=splash10-0fk9-2940000000-4331aa489b678e1a9765
submitter=submitter = University of Tokyo Team (Faculty of Engineering, University of Tokyo)
MoNA Rating=3.75

>  <NUM PEAKS>  (3132) 
38

>  <MASS SPECTRAL PEAKS>  (3132) 
39 3.5
41 1.9
51 1.9
52 0.16
53 4.1
65 2.7
66 1.9
69 0.11
77 9.5
78 3.2
79 10.8
80 0.14
86.5 1.1
91 1.9
93 7.8
100.5 0.14
104 2.7
105 3
106 31.1
107 0.7
117 1.1
133 4.6
143 1.4
144 0.32
145 3.5
146 16.2
147 1.9
157 0.11
161 1.1
172 99.99
173 16.2
174 0.27
200 44.6
201 16.2
202 1.9
217 0.11
246 24.3
247 3.2

$$$$

     RDKit          2D

 18 19  0  0  0  0  0  0  0  0999 V2000
    9.0951    1.5010    0.0000 C   0  0  0  0  0  0  0  0  0  0  0  0
   -1.3000    3.0000    0.0000 C   0  0  0  0  0  0  0  0  0  0  0  0
    7.7962    0.7508    0.0000 C   0  0  0  0  0  0  0  0  0  0  0  0
   -2.6000   -0.7500    0.0000 C   0  0  0  0  0  0  0  0  0  0  0  0
   -2.6000    0.7500    0.0000 C   0  0  0  0  0  0  0  0  0  0  0  0
   -1.3000   -1.5000    0.0000 C   0  0  0  0  0  0  0  0  0  0  0  0
    3.8989    1.5002    0.0000 C   0  0  0  0  0  0  0  0  0  0  0  0
    2.6000   -0.7500    0.0000 C   0  0  0  0  0  0  0  0  0  0  0  0
   -1.3000    1.5000    0.0000 C   0  0  0  0  0  0  0  0  0  0  0  0
    2.6000    0.7500    0.0000 C   0  0  0  0  0  0  0  0  0  0  0  0
    0.0000   -0.7500    0.0000 C   0  0  0  0  0  0  0  0  0  0  0  0
    5.1981    0.7504    0.0000 C   0  0  0  0  0  0  0  0  0  0  0  0
    1.3000    1.5000    0.0000 C   0  0  0  0  0  0  0  0  0  0  0  0
    1.3000   -1.5000    0.0000 N   0  0  0  0  0  0  0  0  0  0  0  0
    0.0000    0.7500    0.0000 N   0  0  0  0  0  0  0  0  0  0  0  0
    5.1983   -0.7496    0.0000 O   0  0  0  0  0  0  0  0  0  0  0  0
    1.3000    3.0000    0.0000 O   0  0  0  0  0  0  0  0  0  0  0  0
    6.4970    1.5006    0.0000 O   0  0  0  0  0  0  0  0  0  0  0  0
  3  1  1  0
  5  4  1  0
  6  4  2  0
  9  2  1  0
  9  5  2  0
 10  7  1  0
 10  8  2  0
 11  6  1  0
 12  7  1  0
 13 10  1  0
 14  8  1  0
 14 11  2  0
 15  9  1  0
 15 11  1  0
 15 13  1  0
 16 12  2  0
 17 13  2  0
 18  3  1  0
 18 12  1  0
M  END
>  <NAME>  (3133) 
6-METHYL-4-OXO-4H-PYRIDO(1,2-A)PYRIMIDINE-3-ACETIC ACID ETHYL ESTER

>  <SYNONYMS>  (3133) 


>  <SPECTRUM TYPE>  (3133) 
MS1

>  <INSTRUMENT TYPE>  (3133) 
EI-B

>  <INSTRUMENT>  (3133) 
MS-902

>  <ION MODE>  (3133) 
P

>  <INCHIKEY>  (3133) 
FHSCYCCXMSMREH-UHFFFAOYSA-N

>  <FORMULA>  (3133) 
C13H14N2O3

>  <EXACT MASS>  (3133) 
246.10044230799997

>  <MW>  (3133) 
246

>  <ID>  (3133) 
JP007889

>  <CONTRIBUTOR>  (3133) 
University of Tokyo Team, {Faculty of Engineering, University of Tokyo

>  <COMMENT>  (3133) 
SMILES=CCOC(=O)CC(=C1)C(=O)N(C(C)=2)C(C=CC2)=N1
InChI=InChI=1S/C13H14N2O3/c1-3-18-12(16)7-10-8-14-11-6-4-5-9(2)15(11)13(10)17/h4-6,8H,3,7H2,1-2H3
computed SMILES=O=C(OCC)CC1=CN=C2C=CC=C(N2C1=O)C
accession=JP007889
date=2016.01.19 (Created 2008.10.21, modified 2011.05.06)
author=SASAKI S, TOYOHASHI UNIV. OF TECH.
license=CC BY-NC-SA
exact mass=246.10044
ionization energy=70 eV
ion type=[M]+*
computed spectral entropy=2.3049715774330233
computed normalized entropy=0.6993585153464922
SPLASH=splash10-00di-2930000000-545911b9f4be27e1fb1e
submitter=submitter = University of Tokyo Team (Faculty of Engineering, University of Tokyo)
MoNA Rating=3.75

>  <NUM PEAKS>  (3133) 
27

>  <MASS SPECTRAL PEAKS>  (3133) 
39 5.4
55 6.2
65 10
66 0.24
72.5 2.7
86.5 2.7
91 2.7
92 2.97
93 5.4
117 1.4
119 4.9
143 0.41
144 1.6
145 18.5
146 2.4
159 0.27
172 25
173 99.99
174 11.6
175 0.11
189 1.1
200 10.8
201 8.7
202 0.12
217 1.1
246 31.2
247 4.8

$$$$

     RDKit          2D

 18 19  0  0  0  0  0  0  0  0999 V2000
    9.0951   -1.5010    0.0000 C   0  0  0  0  0  0  0  0  0  0  0  0
   -3.8989   -1.5002    0.0000 C   0  0  0  0  0  0  0  0  0  0  0  0
    7.7962   -0.7508    0.0000 C   0  0  0  0  0  0  0  0  0  0  0  0
   -2.6000    0.7500    0.0000 C   0  0  0  0  0  0  0  0  0  0  0  0
   -1.3000    1.5000    0.0000 C   0  0  0  0  0  0  0  0  0  0  0  0
    3.8989   -1.5002    0.0000 C   0  0  0  0  0  0  0  0  0  0  0  0
    2.6000    0.7500    0.0000 C   0  0  0  0  0  0  0  0  0  0  0  0
   -1.3000   -1.5000    0.0000 C   0  0  0  0  0  0  0  0  0  0  0  0
   -2.6000   -0.7500    0.0000 C   0  0  0  0  0  0  0  0  0  0  0  0
    2.6000   -0.7500    0.0000 C   0  0  0  0  0  0  0  0  0  0  0  0
    0.0000    0.7500    0.0000 C   0  0  0  0  0  0  0  0  0  0  0  0
    5.1981   -0.7504    0.0000 C   0  0  0  0  0  0  0  0  0  0  0  0
    1.3000   -1.5000    0.0000 C   0  0  0  0  0  0  0  0  0  0  0  0
    1.3000    1.5000    0.0000 N   0  0  0  0  0  0  0  0  0  0  0  0
    0.0000   -0.7500    0.0000 N   0  0  0  0  0  0  0  0  0  0  0  0
    5.1983    0.7496    0.0000 O   0  0  0  0  0  0  0  0  0  0  0  0
    1.3000   -3.0000    0.0000 O   0  0  0  0  0  0  0  0  0  0  0  0
    6.4970   -1.5006    0.0000 O   0  0  0  0  0  0  0  0  0  0  0  0
  3  1  1  0
  5  4  2  0
  9  2  1  0
  9  4  1  0
  9  8  2  0
 10  6  1  0
 10  7  2  0
 11  5  1  0
 12  6  1  0
 13 10  1  0
 14  7  1  0
 14 11  2  0
 15  8  1  0
 15 11  1  0
 15 13  1  0
 16 12  2  0
 17 13  2  0
 18  3  1  0
 18 12  1  0
M  END
>  <NAME>  (3134) 
7-METHYL-4-OXO-4H-PYRIDO(1,2-A)PYRIMIDINE-3-ACETIC ACID ETHYL ESTER

>  <SYNONYMS>  (3134) 


>  <SPECTRUM TYPE>  (3134) 
MS1

>  <INSTRUMENT TYPE>  (3134) 
EI-B

>  <INSTRUMENT>  (3134) 
MS-902

>  <ION MODE>  (3134) 
P

>  <INCHIKEY>  (3134) 
VHLUXOYRWOXMSL-UHFFFAOYSA-N

>  <FORMULA>  (3134) 
C13H14N2O3

>  <EXACT MASS>  (3134) 
246.100442308

>  <MW>  (3134) 
246

>  <ID>  (3134) 
JP007888

>  <CONTRIBUTOR>  (3134) 
University of Tokyo Team, {Faculty of Engineering, University of Tokyo

>  <COMMENT>  (3134) 
SMILES=CCOC(=O)CC(=C1)C(=O)N(C=2)C(C=CC(C)2)=N1
InChI=InChI=1S/C13H14N2O3/c1-3-18-12(16)6-10-7-14-11-5-4-9(2)8-15(11)13(10)17/h4-5,7-8H,3,6H2,1-2H3
computed SMILES=O=C(OCC)CC1=CN=C2C=CC(=CN2C1=O)C
accession=JP007888
date=2016.01.19 (Created 2008.10.21, modified 2011.05.06)
author=SASAKI S, TOYOHASHI UNIV. OF TECH.
license=CC BY-NC-SA
exact mass=246.10044
ionization energy=70 eV
ion type=[M]+*
computed spectral entropy=1.5120463664598724
computed normalized entropy=0.5453554486214586
SPLASH=splash10-00di-2920000000-818b329aa0c07ecfef6b
submitter=submitter = University of Tokyo Team (Faculty of Engineering, University of Tokyo)
MoNA Rating=3.75

>  <NUM PEAKS>  (3134) 
16

>  <MASS SPECTRAL PEAKS>  (3134) 
39 3.1
55 4.8
66 1.3
72.5 0.15
86.5 2
92 15.5
94 2.6
119 0.4
144 1
145 3.5
173 99.99
174 1.26
175 1.1
201 3.7
246 26.6
247 3.7

$$$$

     RDKit          2D

 18 19  0  0  0  0  0  0  0  0999 V2000
    9.0951    1.5010    0.0000 C   0  0  0  0  0  0  0  0  0  0  0  0
   -3.8989   -1.5002    0.0000 C   0  0  0  0  0  0  0  0  0  0  0  0
    7.7962    0.7508    0.0000 C   0  0  0  0  0  0  0  0  0  0  0  0
   -2.6000    0.7500    0.0000 C   0  0  0  0  0  0  0  0  0  0  0  0
   -1.3000    1.5000    0.0000 C   0  0  0  0  0  0  0  0  0  0  0  0
   -1.3000   -1.5000    0.0000 C   0  0  0  0  0  0  0  0  0  0  0  0
    3.8989    1.5002    0.0000 C   0  0  0  0  0  0  0  0  0  0  0  0
    2.6000   -0.7500    0.0000 C   0  0  0  0  0  0  0  0  0  0  0  0
   -2.6000   -0.7500    0.0000 C   0  0  0  0  0  0  0  0  0  0  0  0
    2.6000    0.7500    0.0000 C   0  0  0  0  0  0  0  0  0  0  0  0
    0.0000   -0.7500    0.0000 C   0  0  0  0  0  0  0  0  0  0  0  0
    5.1981    0.7504    0.0000 C   0  0  0  0  0  0  0  0  0  0  0  0
    1.3000    1.5000    0.0000 C   0  0  0  0  0  0  0  0  0  0  0  0
    1.3000   -1.5000    0.0000 N   0  0  0  0  0  0  0  0  0  0  0  0
    0.0000    0.7500    0.0000 N   0  0  0  0  0  0  0  0  0  0  0  0
    5.1983   -0.7496    0.0000 O   0  0  0  0  0  0  0  0  0  0  0  0
    1.3000    3.0000    0.0000 O   0  0  0  0  0  0  0  0  0  0  0  0
    6.4970    1.5006    0.0000 O   0  0  0  0  0  0  0  0  0  0  0  0
  3  1  1  0
  5  4  2  0
  9  2  1  0
  9  4  1  0
  9  6  2  0
 10  7  1  0
 10  8  2  0
 11  6  1  0
 12  7  1  0
 13 10  1  0
 14  8  1  0
 14 11  2  0
 15  5  1  0
 15 11  1  0
 15 13  1  0
 16 12  2  0
 17 13  2  0
 18  3  1  0
 18 12  1  0
M  END
>  <NAME>  (3135) 
8-METHYL-4-OXO-4H-PYRIDO(1,2-A)PYRIMIDINE-3-ACETIC ACID ETHYL ESTER

>  <SYNONYMS>  (3135) 


>  <SPECTRUM TYPE>  (3135) 
MS1

>  <INSTRUMENT TYPE>  (3135) 
EI-B

>  <INSTRUMENT>  (3135) 
MS-902

>  <ION MODE>  (3135) 
P

>  <INCHIKEY>  (3135) 
YHIQSHZYBRSRJO-UHFFFAOYSA-N

>  <FORMULA>  (3135) 
C13H14N2O3

>  <EXACT MASS>  (3135) 
246.10044230799997

>  <MW>  (3135) 
246

>  <ID>  (3135) 
JP007887

>  <CONTRIBUTOR>  (3135) 
University of Tokyo Team, {Faculty of Engineering, University of Tokyo

>  <COMMENT>  (3135) 
SMILES=CCOC(=O)CC(=C1)C(=O)N(C=2)C(C=C(C)C2)=N1
InChI=InChI=1S/C13H14N2O3/c1-3-18-12(16)7-10-8-14-11-6-9(2)4-5-15(11)13(10)17/h4-6,8H,3,7H2,1-2H3
computed SMILES=O=C(OCC)CC1=CN=C2C=C(C=CN2C1=O)C
accession=JP007887
date=2016.01.19 (Created 2008.10.21, modified 2011.05.06)
author=SASAKI S, TOYOHASHI UNIV. OF TECH.
license=CC BY-NC-SA
exact mass=246.10044
ionization energy=70 eV
ion type=[M]+*
computed spectral entropy=1.5994538935693934
computed normalized entropy=0.5339108263075456
SPLASH=splash10-00di-2920000000-deca180d91b3ff425edd
submitter=submitter = University of Tokyo Team (Faculty of Engineering, University of Tokyo)
MoNA Rating=3.75

>  <NUM PEAKS>  (3135) 
20

>  <MASS SPECTRAL PEAKS>  (3135) 
39 2.7
55 4.5
64 1
65 0.6
66 1.2
72.5 1.2
86.5 1.5
91 0.12
92 15.5
93 2.7
119 3.5
144 0.1
145 3
172 1
173 99.99
174 1.25
175 1
201 3.2
246 22.5
247 3.5

$$$$

     RDKit          2D

 16 15  0  0  1  0  0  0  0  0999 V2000
    0.9743    6.5625    0.0000 C   0  0  0  0  0  0  0  0  0  0  0  0
   -9.4180    0.5625    0.0000 C   0  0  0  0  0  0  0  0  0  0  0  0
  -10.7171    2.8125    0.0000 C   0  0  0  0  0  0  0  0  0  0  0  0
   -8.1190    7.3125    0.0000 C   0  0  0  0  0  0  0  0  0  0  0  0
   -2.5880    5.4134    0.0000 C   0  0  0  0  0  0  0  0  0  0  0  0
   -0.3248    7.3125    0.0000 C   0  0  0  0  0  0  0  0  0  0  0  0
   -8.1190    4.3125    0.0000 C   0  0  0  0  0  0  0  0  0  0  0  0
   -4.2219    6.5625    0.0000 C   0  0  0  0  0  0  0  0  0  0  0  0
   -8.1190    2.8125    0.0000 C   0  0  0  0  0  0  0  0  0  0  0  0
   -6.8200    5.0625    0.0000 C   0  0  0  0  0  0  0  0  0  0  0  0
   -5.5209    7.3125    0.0000 C   0  0  0  0  0  0  0  0  0  0  0  0
   -2.9228    7.3125    0.0000 C   0  0  0  0  0  0  0  0  0  0  0  0
   -9.4180    2.0625    0.0000 C   0  0  0  0  0  0  0  0  0  0  0  0
   -6.8200    6.5625    0.0000 C   0  0  0  0  0  0  0  0  0  0  0  0
   -1.6238    6.5625    0.0000 C   0  0  0  0  0  0  0  0  0  0  0  0
   -0.6596    5.4134    0.0000 O   0  0  0  0  0  0  0  0  0  0  0  0
  6  1  2  0
  9  7  1  0
 10  7  1  0
 11  8  1  0
 12  8  1  0
 13  2  1  0
 13  3  1  0
 13  9  2  0
 14  4  1  0
 14 10  1  0
 11 14  2  0
 15  5  1  6
 15  6  1  0
 15 12  1  0
 15 16  1  0
M  END
>  <NAME>  (3136) 
NEROLIDOL

>  <SYNONYMS>  (3136) 
(S-(Z))-3,7,11-TRIMETHYL-1,6,10-DODECATRIEN-3-OL

>  <SPECTRUM TYPE>  (3136) 
MS1

>  <INSTRUMENT TYPE>  (3136) 
EI-B

>  <INSTRUMENT>  (3136) 
SHIMADZU QP-1000

>  <ION MODE>  (3136) 
P

>  <INCHIKEY>  (3136) 
FQTLCLSUCSAZDY-QKXCFHHRSA-N

>  <FORMULA>  (3136) 
C15H26O

>  <EXACT MASS>  (3136) 
222.198365452

>  <MW>  (3136) 
222

>  <ID>  (3136) 
JP007724

>  <CONTRIBUTOR>  (3136) 
University of Tokyo Team, {Faculty of Engineering, University of Tokyo

>  <COMMENT>  (3136) 
SMILES=CC(C)=CCCC(C)=C([H])CCC(C)(O)C=C
InChI=InChI=1S/C15H26O/c1-6-15(5,16)12-8-11-14(4)10-7-9-13(2)3/h6,9,11,16H,1,7-8,10,12H2,2-5H3/b14-11-/t15-/m1/s1
computed SMILES=OC(C=C)(C)CCC=C(C)CCC=C(C)C
accession=JP007724
date=2016.01.19 (Created 2008.10.21, modified 2011.05.06)
author=KYOTO INSTITUTE OF TECHNOLOGY
license=CC BY-NC-SA
exact mass=222.19837
ionization energy=70 eV
ion type=[M]+*
computed spectral entropy=2.9726904664237344
computed normalized entropy=0.7418126542056633
SPLASH=splash10-00kf-9100000000-45f6e3893a44769001ce
submitter=submitter = University of Tokyo Team (Faculty of Engineering, University of Tokyo)
MoNA Rating=3.75

>  <NUM PEAKS>  (3136) 
55

>  <MASS SPECTRAL PEAKS>  (3136) 
40 4.8
41 99.99
42 6.9
43 7.1
44 3
45 2.3
51 1.7
53 1.27
54 2
55 34.7
56 2.5
57 0.6
58 1.4
65 2.7
66 1.1
67 2.06
68 8.4
69 81.4
70 7.1
71 3.2
72 2.2
77 5.4
79 15
80 0.89
81 21.5
82 6.6
83 4.4
91 0.78
92 2.5
93 38.7
94 5.3
95 0.83
96 1.5
97 2.7
105 4.4
106 0.19
107 19.1
108 2.9
109 7.6
111 0.15
119 4.7
120 1.7
121 7.5
122 0.26
123 7.4
133 2.3
134 1.9
135 0.4
136 10.1
137 2.1
147 1
148 0.15
161 6.9
162 1.5
189 1.4

$$$$

     RDKit          2D

 11 10  0  0  0  0  0  0  0  0999 V2000
    3.8971    6.7500    0.0000 C   0  0  0  0  0  0  0  0  0  0  0  0
    2.5981    4.5000    0.0000 C   0  0  0  0  0  0  0  0  0  0  0  0
   -2.5981    4.5000    0.0000 C   0  0  0  0  0  0  0  0  0  0  0  0
    0.0000    6.0000    0.0000 C   0  0  0  0  0  0  0  0  0  0  0  0
    1.2990    6.7500    0.0000 C   0  0  0  0  0  0  0  0  0  0  0  0
   -1.2990    6.7500    0.0000 C   0  0  0  0  0  0  0  0  0  0  0  0
   -3.8971    6.7500    0.0000 C   0  0  0  0  0  0  0  0  0  0  0  0
   -3.8971    8.2500    0.0000 C   0  0  0  0  0  0  0  0  0  0  0  0
    2.5981    6.0000    0.0000 C   0  0  0  0  0  0  0  0  0  0  0  0
   -2.5981    6.0000    0.0000 C   0  0  0  0  0  0  0  0  0  0  0  0
   -5.1962    9.0000    0.0000 O   0  0  0  0  0  0  0  0  0  0  0  0
  5  4  1  0
  6  4  1  0
  8  7  1  0
  9  1  1  0
  9  2  1  0
  9  5  2  0
 10  3  1  0
 10  6  1  0
  7 10  2  0
 11  8  2  0
M  END
>  <NAME>  (3137) 
NERAL

>  <SYNONYMS>  (3137) 
(Z)-3,7-DIMETHYL-2,6-OCTADIENAL

>  <SPECTRUM TYPE>  (3137) 
MS1

>  <INSTRUMENT TYPE>  (3137) 
EI-B

>  <INSTRUMENT>  (3137) 
SHIMADZU QP-1000

>  <ION MODE>  (3137) 
P

>  <INCHIKEY>  (3137) 
WTEVQBCEXWBHNA-YFHOEESVSA-N

>  <FORMULA>  (3137) 
C10H16O

>  <EXACT MASS>  (3137) 
152.120115132

>  <MW>  (3137) 
152

>  <ID>  (3137) 
JP007723

>  <CONTRIBUTOR>  (3137) 
University of Tokyo Team, {Faculty of Engineering, University of Tokyo

>  <COMMENT>  (3137) 
SMILES=O=CC=C(C)CCC=C(C)C
InChI=InChI=1S/C10H16O/c1-9(2)5-4-6-10(3)7-8-11/h5,7-8H,4,6H2,1-3H3/b10-7-
computed SMILES=O=CC=C(C)CCC=C(C)C
accession=JP007723
date=2016.01.19 (Created 2008.10.21, modified 2011.05.06)
author=KYOTO INSTITUTE OF TECHNOLOGY
license=CC BY-NC-SA
exact mass=152.12012
ionization energy=70 eV
ion type=[M]+*
computed spectral entropy=1.989667181808528
computed normalized entropy=0.5908798282853931
SPLASH=splash10-00kf-9000000000-1c2707e2191fcc6e980d
submitter=submitter = University of Tokyo Team (Faculty of Engineering, University of Tokyo)
MoNA Rating=3.75

>  <NUM PEAKS>  (3137) 
29

>  <MASS SPECTRAL PEAKS>  (3137) 
40 1.4
41 99.99
42 4.4
43 0.54
51 2.5
52 1
53 7.5
54 0.18
55 4.4
56 2.8
59 2.9
65 0.17
67 5.5
69 58.7
70 3.9
77 0.15
79 2.1
80 1.1
81 3.4
82 0.25
83 5.6
84 13.6
91 1.5
94 0.66
95 2.3
109 3.6
123 2.7
137 0.29
152 0.5

$$$$

     RDKit          2D

 11 10  0  0  0  0  0  0  0  0999 V2000
    3.8971    6.7500    0.0000 C   0  0  0  0  0  0  0  0  0  0  0  0
    2.5981    4.5000    0.0000 C   0  0  0  0  0  0  0  0  0  0  0  0
   -2.5981    4.5000    0.0000 C   0  0  0  0  0  0  0  0  0  0  0  0
    0.0000    6.0000    0.0000 C   0  0  0  0  0  0  0  0  0  0  0  0
    1.2990    6.7500    0.0000 C   0  0  0  0  0  0  0  0  0  0  0  0
   -1.2990    6.7500    0.0000 C   0  0  0  0  0  0  0  0  0  0  0  0
   -3.8971    6.7500    0.0000 C   0  0  0  0  0  0  0  0  0  0  0  0
   -3.8971    8.2500    0.0000 C   0  0  0  0  0  0  0  0  0  0  0  0
    2.5981    6.0000    0.0000 C   0  0  0  0  0  0  0  0  0  0  0  0
   -2.5981    6.0000    0.0000 C   0  0  0  0  0  0  0  0  0  0  0  0
   -5.1962    9.0000    0.0000 O   0  0  0  0  0  0  0  0  0  0  0  0
  5  4  1  0
  6  4  1  0
  8  7  1  0
  9  1  1  0
  9  2  1  0
  9  5  2  0
 10  3  1  0
 10  6  1  0
  7 10  2  0
 11  8  1  0
M  END
>  <NAME>  (3138) 
NEROL

>  <SYNONYMS>  (3138) 
(Z)-3,7-DIMETHYL-2,6-OCTADIEN-1-OL

>  <SPECTRUM TYPE>  (3138) 
MS1

>  <INSTRUMENT TYPE>  (3138) 
EI-B

>  <INSTRUMENT>  (3138) 
SHIMADZU QP-1000

>  <ION MODE>  (3138) 
P

>  <INCHIKEY>  (3138) 
GLZPCOQZEFWAFX-YFHOEESVSA-N

>  <FORMULA>  (3138) 
C10H18O

>  <EXACT MASS>  (3138) 
154.135765196

>  <MW>  (3138) 
154

>  <ID>  (3138) 
JP007722

>  <CONTRIBUTOR>  (3138) 
University of Tokyo Team, {Faculty of Engineering, University of Tokyo

>  <COMMENT>  (3138) 
SMILES=OCC=C(C)CCC=C(C)C
cas=106-25-2
InChI=InChI=1S/C10H18O/c1-9(2)5-4-6-10(3)7-8-11/h5,7,11H,4,6,8H2,1-3H3/b10-7-
computed SMILES=OCC=C(C)CCC=C(C)C
accession=JP007722
date=2016.01.19 (Created 2008.10.21, modified 2011.05.06)
author=KYOTO INSTITUTE OF TECHNOLOGY
license=CC BY-NC-SA
exact mass=154.13577
ionization energy=70 eV
ion type=[M]+*
computed spectral entropy=2.6106605506553295
computed normalized entropy=0.7077109954742088
SPLASH=splash10-0006-9000000000-0625da1bcd5a7d1938a6
submitter=submitter = University of Tokyo Team (Faculty of Engineering, University of Tokyo)
MoNA Rating=3.75

>  <NUM PEAKS>  (3138) 
40

>  <MASS SPECTRAL PEAKS>  (3138) 
40 4.3
41 99.99
42 6.2
43 1.13
44 1.4
51 2.3
53 9.1
54 0.15
55 10.6
56 3.8
57 2.9
59 0.14
65 1.8
67 12.9
68 13.6
69 6.51
70 5.7
71 5.5
77 2.5
79 0.34
80 6.2
81 4.9
82 2.3
83 0.53
84 9
85 1.5
91 2.7
92 0.24
93 12.4
94 2
95 2.3
96 0.13
97 2.5
98 1.2
107 1.4
111 0.27
121 3.6
123 2.7
136 1
139 1.4

$$$$

     RDKit          2D

 12 12  0  0  0  0  0  0  0  0999 V2000
   -0.9959   -4.6350    0.0000 C   0  0  0  0  0  0  0  0  0  0  0  0
    3.2424    0.8564    0.0000 C   0  0  0  0  0  0  0  0  0  0  0  0
    0.3031   -3.8850    0.0000 C   0  0  0  0  0  0  0  0  0  0  0  0
    0.3031   -2.3850    0.0000 C   0  0  0  0  0  0  0  0  0  0  0  0
    1.6021   -1.6350    0.0000 C   0  0  0  0  0  0  0  0  0  0  0  0
    2.9012   -2.3850    0.0000 C   0  0  0  0  0  0  0  0  0  0  0  0
    5.8171    0.1645    0.0000 C   0  0  0  0  0  0  0  0  0  0  0  0
    6.5671   -1.1345    0.0000 C   0  0  0  0  0  0  0  0  0  0  0  0
    4.3573   -0.1471    0.0000 C   0  0  0  0  0  0  0  0  0  0  0  0
    4.2002   -1.6350    0.0000 C   0  0  0  0  0  0  0  0  0  0  0  0
    5.5673   -2.2429    0.0000 C   0  0  0  0  0  0  0  0  0  0  0  0
    5.8789   -3.7102    0.0000 O   0  0  0  0  0  0  0  0  0  0  0  0
  3  1  1  0
  4  3  1  0
  4  5  2  0
  6  5  1  0
  8  7  1  0
  9  2  1  0
  9  7  1  0
 10  6  1  0
 10  9  2  0
 11  8  1  0
 11 10  1  0
 12 11  2  0
M  END
>  <NAME>  (3139) 
JASMONE

>  <SYNONYMS>  (3139) 
(Z)-3-METHYL-2-(2-PENTENYL)-2-CYCLOPENTEN-1-ONE

>  <SPECTRUM TYPE>  (3139) 
MS1

>  <INSTRUMENT TYPE>  (3139) 
EI-B

>  <INSTRUMENT>  (3139) 
SHIMADZU QP-1000

>  <ION MODE>  (3139) 
P

>  <INCHIKEY>  (3139) 
XMLSXPIVAXONDL-PLNGDYQASA-N

>  <FORMULA>  (3139) 
C11H16O

>  <EXACT MASS>  (3139) 
164.120115132

>  <MW>  (3139) 
164

>  <ID>  (3139) 
JP007721

>  <CONTRIBUTOR>  (3139) 
University of Tokyo Team, {Faculty of Engineering, University of Tokyo

>  <COMMENT>  (3139) 
SMILES=CCC([H])=C([H])CC(=C(C)1)C(=O)CC1
cas=488-10-8
InChI=InChI=1S/C11H16O/c1-3-4-5-6-10-9(2)7-8-11(10)12/h4-5H,3,6-8H2,1-2H3/b5-4-
computed SMILES=O=C1C(=C(C)CC1)CC=CCC
accession=JP007721
date=2016.01.19 (Created 2008.10.21, modified 2011.05.06)
author=KYOTO INSTITUTE OF TECHNOLOGY
license=CC BY-NC-SA
exact mass=164.12012
ionization energy=70 eV
ion type=[M]+*
computed spectral entropy=3.5184421491025635
computed normalized entropy=0.8149280453306738
SPLASH=splash10-01r6-9600000000-b7842817d55e1ef34cd5
submitter=submitter = University of Tokyo Team (Faculty of Engineering, University of Tokyo)
MoNA Rating=3.75

>  <NUM PEAKS>  (3139) 
75

>  <MASS SPECTRAL PEAKS>  (3139) 
40 17.5
41 96.5
42 9.1
43 2.53
44 1.5
45 1
50 8.7
51 2.75
52 15.3
53 45.4
54 7.1
55 7.59
56 4.4
57 2.8
62 2.3
63 0.88
64 2.8
65 29.3
66 14.9
67 4.39
68 6.7
69 4.5
74 1.2
75 0.12
77 50.9
78 12.7
79 99.99
80 1.63
81 37.4
82 14.9
83 1.7
89 0.19
91 58.3
92 8.4
93 53.3
94 1.22
95 19.5
96 3
97 1.2
103 0.45
105 21.3
106 6.2
107 35.9
108 0.84
109 32.9
110 60.6
111 5
115 0.4
116 2
117 4.4
118 1.1
119 0.42
120 4.1
121 25.3
122 52.8
123 1.02
129 1.5
130 3.4
131 29.5
132 0.35
133 3.2
134 5.6
135 42
136 1.38
137 1.4
145 2.4
146 5
147 0.34
148 5.6
149 48.2
150 5.4
163 0.69
164 55.9
165 12.3
166 1.2

$$$$

     RDKit          2D

 12 12  0  0  0  0  0  0  0  0999 V2000
    4.8930   -2.3850    0.0000 C   0  0  0  0  0  0  0  0  0  0  0  0
   -0.6443    0.8564    0.0000 C   0  0  0  0  0  0  0  0  0  0  0  0
    3.5940   -1.6350    0.0000 C   0  0  0  0  0  0  0  0  0  0  0  0
    2.2950   -2.3850    0.0000 C   0  0  0  0  0  0  0  0  0  0  0  0
    0.9959   -1.6350    0.0000 C   0  0  0  0  0  0  0  0  0  0  0  0
   -0.3031   -2.3850    0.0000 C   0  0  0  0  0  0  0  0  0  0  0  0
   -3.2190    0.1645    0.0000 C   0  0  0  0  0  0  0  0  0  0  0  0
   -3.9690   -1.1345    0.0000 C   0  0  0  0  0  0  0  0  0  0  0  0
   -1.7592   -0.1471    0.0000 C   0  0  0  0  0  0  0  0  0  0  0  0
   -1.6021   -1.6350    0.0000 C   0  0  0  0  0  0  0  0  0  0  0  0
   -2.9692   -2.2429    0.0000 C   0  0  0  0  0  0  0  0  0  0  0  0
   -3.2808   -3.7102    0.0000 O   0  0  0  0  0  0  0  0  0  0  0  0
  3  1  1  0
  4  3  1  0
  5  4  1  0
  6  5  1  0
  8  7  1  0
  9  2  1  0
  9  7  1  0
 10  6  1  0
 10  9  2  0
 11  8  1  0
 11 10  1  0
 12 11  2  0
M  END
>  <NAME>  (3140) 
DIHYDROJASMONE

>  <SYNONYMS>  (3140) 
3-METHYL-2-PENTYL-2-CYCLOPENTEN-1-ONE

>  <SPECTRUM TYPE>  (3140) 
MS1

>  <INSTRUMENT TYPE>  (3140) 
EI-B

>  <INSTRUMENT>  (3140) 
SHIMADZU QP-1000

>  <ION MODE>  (3140) 
P

>  <INCHIKEY>  (3140) 
YCIXWYOBMVNGTB-UHFFFAOYSA-N

>  <FORMULA>  (3140) 
C11H18O

>  <EXACT MASS>  (3140) 
166.135765196

>  <MW>  (3140) 
166

>  <ID>  (3140) 
JP007720

>  <CONTRIBUTOR>  (3140) 
University of Tokyo Team, {Faculty of Engineering, University of Tokyo

>  <COMMENT>  (3140) 
SMILES=CCCCCC(=C(C)1)C(=O)CC1
cas=1128-08-1
InChI=InChI=1S/C11H18O/c1-3-4-5-6-10-9(2)7-8-11(10)12/h3-8H2,1-2H3
computed SMILES=O=C1C(=C(C)CC1)CCCCC
accession=JP007720
date=2016.01.19 (Created 2008.10.21, modified 2011.05.06)
author=KYOTO INSTITUTE OF TECHNOLOGY
license=CC BY-NC-SA
exact mass=166.13577
ionization energy=70 eV
ion type=[M]+*
computed spectral entropy=2.97045780299649
computed normalized entropy=0.7632566705195938
SPLASH=splash10-0ikc-7900000000-c07ace9e4f88c96f29cf
submitter=submitter = University of Tokyo Team (Faculty of Engineering, University of Tokyo)
MoNA Rating=3.75

>  <NUM PEAKS>  (3140) 
49

>  <MASS SPECTRAL PEAKS>  (3140) 
40 6.4
41 51.4
42 3.8
43 1.31
50 1.9
51 6.9
52 5.5
53 2.21
54 3.7
55 21.7
56 1.9
57 0.17
63 1.6
65 9.2
66 4.8
67 3.96
68 5.6
69 4.5
77 10.4
78 0.23
79 20.8
80 3.4
81 23
82 1.74
83 2
91 5.8
93 6.2
95 2.34
96 3.6
97 1.4
105 1.8
107 0.24
108 2.6
109 24.7
110 99.99
111 1.83
112 1.3
122 2
123 19.1
124 0.94
133 1.3
136 1.7
137 20.4
138 0.23
150 4.2
151 62
152 6.9
166 0.52
167 3.3

$$$$

     RDKit          2D

 22 21  0  0  0  0  0  0  0  0999 V2000
  -19.4856   11.2500    0.0000 C   0  0  0  0  0  0  0  0  0  0  0  0
    6.4952   11.2500    0.0000 C   0  0  0  0  0  0  0  0  0  0  0  0
  -18.1865   10.5000    0.0000 C   0  0  0  0  0  0  0  0  0  0  0  0
  -16.8875   11.2500    0.0000 C   0  0  0  0  0  0  0  0  0  0  0  0
  -15.5885   10.5000    0.0000 C   0  0  0  0  0  0  0  0  0  0  0  0
  -14.2894   11.2500    0.0000 C   0  0  0  0  0  0  0  0  0  0  0  0
  -12.9904   10.5000    0.0000 C   0  0  0  0  0  0  0  0  0  0  0  0
  -11.6913   11.2500    0.0000 C   0  0  0  0  0  0  0  0  0  0  0  0
  -10.3923   10.5000    0.0000 C   0  0  0  0  0  0  0  0  0  0  0  0
   -9.0933   11.2500    0.0000 C   0  0  0  0  0  0  0  0  0  0  0  0
   -7.7942   10.5000    0.0000 C   0  0  0  0  0  0  0  0  0  0  0  0
   -6.4952   11.2500    0.0000 C   0  0  0  0  0  0  0  0  0  0  0  0
   -5.1962   10.5000    0.0000 C   0  0  0  0  0  0  0  0  0  0  0  0
   -3.8971   11.2500    0.0000 C   0  0  0  0  0  0  0  0  0  0  0  0
   -2.5981   10.5000    0.0000 C   0  0  0  0  0  0  0  0  0  0  0  0
   -1.2990   11.2500    0.0000 C   0  0  0  0  0  0  0  0  0  0  0  0
    0.0000   10.5000    0.0000 C   0  0  0  0  0  0  0  0  0  0  0  0
    1.2990   11.2500    0.0000 C   0  0  0  0  0  0  0  0  0  0  0  0
    2.5981   10.5000    0.0000 C   0  0  0  0  0  0  0  0  0  0  0  0
    5.1962   10.5000    0.0000 C   0  0  0  0  0  0  0  0  0  0  0  0
    5.1962    9.0000    0.0000 O   0  0  0  0  0  0  0  0  0  0  0  0
    3.8971   11.2500    0.0000 O   0  0  0  0  0  0  0  0  0  0  0  0
  3  1  1  0
  4  3  1  0
  5  4  1  0
  6  5  1  0
  7  6  1  0
  8  7  1  0
  9  8  1  0
 10  9  1  0
 11 10  1  0
 12 11  1  0
 13 12  1  0
 14 13  1  0
 15 14  1  0
 16 15  1  0
 17 16  1  0
 18 17  1  0
 19 18  1  0
 20  2  1  0
 21 20  2  0
 22 19  1  0
 22 20  1  0
M  END
>  <NAME>  (3141) 
OCTADECYL ACETATE

>  <SYNONYMS>  (3141) 


>  <SPECTRUM TYPE>  (3141) 
MS1

>  <INSTRUMENT TYPE>  (3141) 
EI-B

>  <INSTRUMENT>  (3141) 
SHIMADZU QP-1000

>  <ION MODE>  (3141) 
P

>  <INCHIKEY>  (3141) 
OIZXRZCQJDXPFO-UHFFFAOYSA-N

>  <FORMULA>  (3141) 
C20H40O2

>  <EXACT MASS>  (3141) 
312.30283052

>  <MW>  (3141) 
312

>  <ID>  (3141) 
JP007719

>  <CONTRIBUTOR>  (3141) 
University of Tokyo Team, {Faculty of Engineering, University of Tokyo

>  <COMMENT>  (3141) 
SMILES=CCCCCCCCCCCCCCCCCCOC(C)=O
InChI=InChI=1S/C20H40O2/c1-3-4-5-6-7-8-9-10-11-12-13-14-15-16-17-18-19-22-20(2)21/h3-19H2,1-2H3
computed SMILES=O=C(OCCCCCCCCCCCCCCCCCC)C
accession=JP007719
date=2016.01.19 (Created 2008.10.21, modified 2011.05.06)
author=KYOTO INSTITUTE OF TECHNOLOGY
license=CC BY-NC-SA
exact mass=312.30283
ionization energy=70 eV
ion type=[M]+*
computed spectral entropy=2.7280820855581385
computed normalized entropy=0.6871238047374182
SPLASH=splash10-0006-9000000000-2228633c7be80e708eec
submitter=submitter = University of Tokyo Team (Faculty of Engineering, University of Tokyo)
MoNA Rating=3.75

>  <NUM PEAKS>  (3141) 
53

>  <MASS SPECTRAL PEAKS>  (3141) 
40 1.3
41 37.7
42 11
43 99.99
44 3.7
53 1.4
54 5
55 3.42
56 18.4
57 31.3
58 2.1
61 2.6
67 5.2
68 7.6
69 23
70 1.31
71 11.7
73 2.3
81 3
82 1.03
83 21.8
84 7.7
85 5.6
95 0.13
96 4
97 16
98 4.6
99 0.12
101 0.3
109 0.5
110 1.4
111 0.76
112 2.4
113 0.6
116 1
124 0.08
125 3.1
126 1.3
138 0.3
139 0.11
140 0.7
152 0.3
153 0.5
154 0.04
166 0.2
167 0.3
168 0.3
182 0.02
196 0.2
224 0.4
225 0.1
252 0.03
253 0.1

$$$$

     RDKit          2D

 20 19  0  0  0  0  0  0  0  0999 V2000
    5.8457   10.1250    0.0000 C   0  0  0  0  0  0  0  0  0  0  0  0
  -17.5370   10.1250    0.0000 C   0  0  0  0  0  0  0  0  0  0  0  0
    4.5466   10.8750    0.0000 C   0  0  0  0  0  0  0  0  0  0  0  0
    3.2476   10.1250    0.0000 C   0  0  0  0  0  0  0  0  0  0  0  0
    1.9486   10.8750    0.0000 C   0  0  0  0  0  0  0  0  0  0  0  0
    0.6495   10.1250    0.0000 C   0  0  0  0  0  0  0  0  0  0  0  0
   -0.6495   10.8750    0.0000 C   0  0  0  0  0  0  0  0  0  0  0  0
   -1.9486   10.1250    0.0000 C   0  0  0  0  0  0  0  0  0  0  0  0
   -3.2476   10.8750    0.0000 C   0  0  0  0  0  0  0  0  0  0  0  0
   -4.5466   10.1250    0.0000 C   0  0  0  0  0  0  0  0  0  0  0  0
   -5.8457   10.8750    0.0000 C   0  0  0  0  0  0  0  0  0  0  0  0
   -7.1447   10.1250    0.0000 C   0  0  0  0  0  0  0  0  0  0  0  0
   -8.4437   10.8750    0.0000 C   0  0  0  0  0  0  0  0  0  0  0  0
   -9.7428   10.1250    0.0000 C   0  0  0  0  0  0  0  0  0  0  0  0
  -11.0418   10.8750    0.0000 C   0  0  0  0  0  0  0  0  0  0  0  0
  -12.3409   10.1250    0.0000 C   0  0  0  0  0  0  0  0  0  0  0  0
  -13.6399   10.8750    0.0000 C   0  0  0  0  0  0  0  0  0  0  0  0
  -16.2380   10.8750    0.0000 C   0  0  0  0  0  0  0  0  0  0  0  0
  -16.2380   12.3750    0.0000 O   0  0  0  0  0  0  0  0  0  0  0  0
  -14.9389   10.1250    0.0000 O   0  0  0  0  0  0  0  0  0  0  0  0
  3  1  1  0
  4  3  1  0
  5  4  1  0
  6  5  1  0
  7  6  1  0
  8  7  1  0
  9  8  1  0
 10  9  1  0
 11 10  1  0
 12 11  1  0
 13 12  1  0
 14 13  1  0
 15 14  1  0
 16 15  1  0
 17 16  1  0
 18  2  1  0
 19 18  2  0
 20 17  1  0
 20 18  1  0
M  END
>  <NAME>  (3142) 
HEXADECYL ACETATE

>  <SYNONYMS>  (3142) 


>  <SPECTRUM TYPE>  (3142) 
MS1

>  <INSTRUMENT TYPE>  (3142) 
EI-B

>  <INSTRUMENT>  (3142) 
SHIMADZU QP-1000

>  <ION MODE>  (3142) 
P

>  <INCHIKEY>  (3142) 
LSTDYDRCKUBPDI-UHFFFAOYSA-N

>  <FORMULA>  (3142) 
C18H36O2

>  <EXACT MASS>  (3142) 
284.271530392

>  <MW>  (3142) 
284

>  <ID>  (3142) 
JP007718

>  <CONTRIBUTOR>  (3142) 
University of Tokyo Team, {Faculty of Engineering, University of Tokyo

>  <COMMENT>  (3142) 
SMILES=CCCCCCCCCCCCCCCCOC(C)=O
InChI=InChI=1S/C18H36O2/c1-3-4-5-6-7-8-9-10-11-12-13-14-15-16-17-20-18(2)19/h3-17H2,1-2H3
computed SMILES=O=C(OCCCCCCCCCCCCCCCC)C
accession=JP007718
date=2016.01.19 (Created 2008.10.21, modified 2011.05.06)
author=KYOTO INSTITUTE OF TECHNOLOGY
license=CC BY-NC-SA
exact mass=284.27153
ionization energy=70 eV
ion type=[M]+*
computed spectral entropy=2.7087548156989296
computed normalized entropy=0.6997194948199449
SPLASH=splash10-0006-9000000000-772e1198d75be2843ab9
submitter=submitter = University of Tokyo Team (Faculty of Engineering, University of Tokyo)
MoNA Rating=3.75

>  <NUM PEAKS>  (3142) 
48

>  <MASS SPECTRAL PEAKS>  (3142) 
40 1.4
41 37.2
42 10.9
43 99.99
44 3.6
53 1.5
54 4.9
55 3.39
56 19.6
57 28.1
58 2.2
61 2.53
67 5.3
68 7.7
69 23.1
70 1.48
71 10.8
73 2.3
81 2.6
82 1
83 21
84 8
85 4.7
95 0.1
96 3.5
97 14.3
98 4.8
99 0.09
101 0.3
110 1.2
111 6.3
112 0.22
116 1
124 0.6
125 2.4
126 0.12
138 0.3
139 0.7
140 0.6
152 0.02
153 0.3
154 0.4
167 0.2
168 0.02
196 0.7
197 0.1
224 0.4
225 0.1

$$$$

     RDKit          2D

 18 17  0  0  0  0  0  0  0  0999 V2000
  -15.5885    9.0000    0.0000 C   0  0  0  0  0  0  0  0  0  0  0  0
    5.1962    9.0000    0.0000 C   0  0  0  0  0  0  0  0  0  0  0  0
  -14.2894    8.2500    0.0000 C   0  0  0  0  0  0  0  0  0  0  0  0
  -12.9904    9.0000    0.0000 C   0  0  0  0  0  0  0  0  0  0  0  0
  -11.6913    8.2500    0.0000 C   0  0  0  0  0  0  0  0  0  0  0  0
  -10.3923    9.0000    0.0000 C   0  0  0  0  0  0  0  0  0  0  0  0
   -9.0933    8.2500    0.0000 C   0  0  0  0  0  0  0  0  0  0  0  0
   -7.7942    9.0000    0.0000 C   0  0  0  0  0  0  0  0  0  0  0  0
   -6.4952    8.2500    0.0000 C   0  0  0  0  0  0  0  0  0  0  0  0
   -5.1962    9.0000    0.0000 C   0  0  0  0  0  0  0  0  0  0  0  0
   -3.8971    8.2500    0.0000 C   0  0  0  0  0  0  0  0  0  0  0  0
   -2.5981    9.0000    0.0000 C   0  0  0  0  0  0  0  0  0  0  0  0
   -1.2990    8.2500    0.0000 C   0  0  0  0  0  0  0  0  0  0  0  0
    0.0000    9.0000    0.0000 C   0  0  0  0  0  0  0  0  0  0  0  0
    1.2990    8.2500    0.0000 C   0  0  0  0  0  0  0  0  0  0  0  0
    3.8971    8.2500    0.0000 C   0  0  0  0  0  0  0  0  0  0  0  0
    3.8971    6.7500    0.0000 O   0  0  0  0  0  0  0  0  0  0  0  0
    2.5981    9.0000    0.0000 O   0  0  0  0  0  0  0  0  0  0  0  0
  3  1  1  0
  4  3  1  0
  5  4  1  0
  6  5  1  0
  7  6  1  0
  8  7  1  0
  9  8  1  0
 10  9  1  0
 11 10  1  0
 12 11  1  0
 13 12  1  0
 14 13  1  0
 15 14  1  0
 16  2  1  0
 17 16  2  0
 18 15  1  0
 18 16  1  0
M  END
>  <NAME>  (3143) 
TETRADECYL ACETATE

>  <SYNONYMS>  (3143) 


>  <SPECTRUM TYPE>  (3143) 
MS1

>  <INSTRUMENT TYPE>  (3143) 
EI-B

>  <INSTRUMENT>  (3143) 
SHIMADZU QP-1000

>  <ION MODE>  (3143) 
P

>  <INCHIKEY>  (3143) 
IOUUIFSIQMVYKP-UHFFFAOYSA-N

>  <FORMULA>  (3143) 
C16H32O2

>  <EXACT MASS>  (3143) 
256.240230264

>  <MW>  (3143) 
256

>  <ID>  (3143) 
JP007717

>  <CONTRIBUTOR>  (3143) 
University of Tokyo Team, {Faculty of Engineering, University of Tokyo

>  <COMMENT>  (3143) 
SMILES=CCCCCCCCCCCCCCOC(C)=O
InChI=InChI=1S/C16H32O2/c1-3-4-5-6-7-8-9-10-11-12-13-14-15-18-16(2)17/h3-15H2,1-2H3
computed SMILES=O=C(OCCCCCCCCCCCCCC)C
accession=JP007717
date=2016.01.19 (Created 2008.10.21, modified 2011.05.06)
author=KYOTO INSTITUTE OF TECHNOLOGY
license=CC BY-NC-SA
exact mass=256.24023
ionization energy=70 eV
ion type=[M]+*
computed spectral entropy=2.6488045487065306
computed normalized entropy=0.6999661235168811
SPLASH=splash10-0006-9000000000-01fa49568188ba8a4488
submitter=submitter = University of Tokyo Team (Faculty of Engineering, University of Tokyo)
MoNA Rating=3.75

>  <NUM PEAKS>  (3143) 
44

>  <MASS SPECTRAL PEAKS>  (3143) 
40 1.4
41 36.6
42 11.7
43 99.99
44 3.5
53 1.6
54 4.2
55 3.06
56 20
57 23.1
58 2
61 2.15
67 4.4
68 7.1
69 21.1
70 1.49
71 8.2
73 2.1
81 2
82 0.85
83 17.8
84 8.2
85 3.6
96 0.31
97 12.3
98 4.9
99 0.7
101 0.03
110 1.1
111 5.2
112 2.3
116 0.11
124 0.5
125 2
126 1.1
138 0.03
139 0.6
140 0.6
153 0.2
154 0.02
168 1
169 0.1
196 0.5
197 0.1

$$$$

     RDKit          2D

 16 15  0  0  0  0  0  0  0  0999 V2000
    4.5466    7.8750    0.0000 C   0  0  0  0  0  0  0  0  0  0  0  0
  -13.6399    7.8750    0.0000 C   0  0  0  0  0  0  0  0  0  0  0  0
    3.2476    8.6250    0.0000 C   0  0  0  0  0  0  0  0  0  0  0  0
    1.9486    7.8750    0.0000 C   0  0  0  0  0  0  0  0  0  0  0  0
    0.6495    8.6250    0.0000 C   0  0  0  0  0  0  0  0  0  0  0  0
   -0.6495    7.8750    0.0000 C   0  0  0  0  0  0  0  0  0  0  0  0
   -1.9486    8.6250    0.0000 C   0  0  0  0  0  0  0  0  0  0  0  0
   -3.2476    7.8750    0.0000 C   0  0  0  0  0  0  0  0  0  0  0  0
   -4.5466    8.6250    0.0000 C   0  0  0  0  0  0  0  0  0  0  0  0
   -5.8457    7.8750    0.0000 C   0  0  0  0  0  0  0  0  0  0  0  0
   -7.1447    8.6250    0.0000 C   0  0  0  0  0  0  0  0  0  0  0  0
   -8.4437    7.8750    0.0000 C   0  0  0  0  0  0  0  0  0  0  0  0
   -9.7428    8.6250    0.0000 C   0  0  0  0  0  0  0  0  0  0  0  0
  -12.3409    8.6250    0.0000 C   0  0  0  0  0  0  0  0  0  0  0  0
  -12.3409   10.1250    0.0000 O   0  0  0  0  0  0  0  0  0  0  0  0
  -11.0418    7.8750    0.0000 O   0  0  0  0  0  0  0  0  0  0  0  0
  3  1  1  0
  4  3  1  0
  5  4  1  0
  6  5  1  0
  7  6  1  0
  8  7  1  0
  9  8  1  0
 10  9  1  0
 11 10  1  0
 12 11  1  0
 13 12  1  0
 14  2  1  0
 15 14  2  0
 16 13  1  0
 16 14  1  0
M  END
>  <NAME>  (3144) 
DODECYL ACETATE

>  <SYNONYMS>  (3144) 


>  <SPECTRUM TYPE>  (3144) 
MS1

>  <INSTRUMENT TYPE>  (3144) 
EI-B

>  <INSTRUMENT>  (3144) 
SHIMADZU QP-1000

>  <ION MODE>  (3144) 
P

>  <INCHIKEY>  (3144) 
VZWGRQBCURJOMT-UHFFFAOYSA-N

>  <FORMULA>  (3144) 
C14H28O2

>  <EXACT MASS>  (3144) 
228.208930136

>  <MW>  (3144) 
228

>  <ID>  (3144) 
JP007716

>  <CONTRIBUTOR>  (3144) 
University of Tokyo Team, {Faculty of Engineering, University of Tokyo

>  <COMMENT>  (3144) 
SMILES=CCCCCCCCCCCCOC(C)=O
cas=112-66-3
InChI=InChI=1S/C14H28O2/c1-3-4-5-6-7-8-9-10-11-12-13-16-14(2)15/h3-13H2,1-2H3
computed SMILES=O=C(OCCCCCCCCCCCC)C
accession=JP007716
date=2016.01.19 (Created 2008.10.21, modified 2011.05.06)
author=KYOTO INSTITUTE OF TECHNOLOGY
license=CC BY-NC-SA
exact mass=228.20893
ionization energy=70 eV
ion type=[M]+*
computed spectral entropy=2.552535291517647
computed normalized entropy=0.6919541078174816
SPLASH=splash10-0006-9000000000-fb958cc82dfb2c5494f3
submitter=submitter = University of Tokyo Team (Faculty of Engineering, University of Tokyo)
MoNA Rating=3.75

>  <NUM PEAKS>  (3144) 
40

>  <MASS SPECTRAL PEAKS>  (3144) 
40 1.6
41 35.1
42 12.7
43 99.99
44 3.4
53 1.6
54 3.7
55 2.81
56 21.4
57 17.5
58 1.9
61 1.88
67 3.6
68 6.3
69 19.2
70 1.49
71 5.4
73 2.2
81 1.4
82 0.65
83 13.6
84 7.9
85 2.4
96 0.25
97 9.6
98 4.8
99 0.5
101 0.04
110 0.7
111 3.7
112 1.9
116 0.1
124 0.3
125 1.3
126 0.7
139 0.03
140 1.6
141 0.2
168 0.6
169 0.1

$$$$

     RDKit          2D

 22 21  0  0  0  0  0  0  0  0999 V2000
    6.4952   11.2500    0.0000 C   0  0  0  0  0  0  0  0  0  0  0  0
  -19.4856   11.2500    0.0000 C   0  0  0  0  0  0  0  0  0  0  0  0
    5.1962   12.0000    0.0000 C   0  0  0  0  0  0  0  0  0  0  0  0
    3.8971   11.2500    0.0000 C   0  0  0  0  0  0  0  0  0  0  0  0
    2.5981   12.0000    0.0000 C   0  0  0  0  0  0  0  0  0  0  0  0
    1.2990   11.2500    0.0000 C   0  0  0  0  0  0  0  0  0  0  0  0
    0.0000   12.0000    0.0000 C   0  0  0  0  0  0  0  0  0  0  0  0
   -1.2990   11.2500    0.0000 C   0  0  0  0  0  0  0  0  0  0  0  0
   -2.5981   12.0000    0.0000 C   0  0  0  0  0  0  0  0  0  0  0  0
   -3.8971   11.2500    0.0000 C   0  0  0  0  0  0  0  0  0  0  0  0
   -5.1962   12.0000    0.0000 C   0  0  0  0  0  0  0  0  0  0  0  0
   -6.4952   11.2500    0.0000 C   0  0  0  0  0  0  0  0  0  0  0  0
   -7.7942   12.0000    0.0000 C   0  0  0  0  0  0  0  0  0  0  0  0
   -9.0933   11.2500    0.0000 C   0  0  0  0  0  0  0  0  0  0  0  0
  -10.3923   12.0000    0.0000 C   0  0  0  0  0  0  0  0  0  0  0  0
  -11.6913   11.2500    0.0000 C   0  0  0  0  0  0  0  0  0  0  0  0
  -12.9904   12.0000    0.0000 C   0  0  0  0  0  0  0  0  0  0  0  0
  -14.2894   11.2500    0.0000 C   0  0  0  0  0  0  0  0  0  0  0  0
  -15.5885   12.0000    0.0000 C   0  0  0  0  0  0  0  0  0  0  0  0
  -16.8875   11.2500    0.0000 C   0  0  0  0  0  0  0  0  0  0  0  0
  -16.8875    9.7500    0.0000 O   0  0  0  0  0  0  0  0  0  0  0  0
  -18.1865   12.0000    0.0000 O   0  0  0  0  0  0  0  0  0  0  0  0
  3  1  1  0
  4  3  1  0
  5  4  1  0
  6  5  1  0
  7  6  1  0
  8  7  1  0
  9  8  1  0
 10  9  1  0
 11 10  1  0
 12 11  1  0
 13 12  1  0
 14 13  1  0
 15 14  1  0
 16 15  1  0
 17 16  1  0
 18 17  1  0
 19 18  1  0
 20 19  1  0
 21 20  2  0
 22  2  1  0
 22 20  1  0
M  END
>  <NAME>  (3145) 
METHYL NONADECANOATE

>  <SYNONYMS>  (3145) 


>  <SPECTRUM TYPE>  (3145) 
MS1

>  <INSTRUMENT TYPE>  (3145) 
EI-B

>  <INSTRUMENT>  (3145) 
SHIMADZU QP-1000

>  <ION MODE>  (3145) 
P

>  <INCHIKEY>  (3145) 
BDXAHSJUDUZLDU-UHFFFAOYSA-N

>  <FORMULA>  (3145) 
C20H40O2

>  <EXACT MASS>  (3145) 
312.30283052

>  <MW>  (3145) 
312

>  <ID>  (3145) 
JP007715

>  <CONTRIBUTOR>  (3145) 
University of Tokyo Team, {Faculty of Engineering, University of Tokyo

>  <COMMENT>  (3145) 
SMILES=CCCCCCCCCCCCCCCCCCC(=O)OC
cas=1731-94-8
InChI=InChI=1S/C20H40O2/c1-3-4-5-6-7-8-9-10-11-12-13-14-15-16-17-18-19-20(21)22-2/h3-19H2,1-2H3
computed SMILES=O=C(OC)CCCCCCCCCCCCCCCCCC
accession=JP007715
date=2016.01.19 (Created 2008.10.21, modified 2011.05.06)
author=KYOTO INSTITUTE OF TECHNOLOGY
license=CC BY-NC-SA
exact mass=312.30283
ionization energy=70 eV
ion type=[M]+*
computed spectral entropy=2.813962357777388
computed normalized entropy=0.7054333446635523
SPLASH=splash10-05g3-9000000000-5d84366058cf5d1d440a
submitter=submitter = University of Tokyo Team (Faculty of Engineering, University of Tokyo)
MoNA Rating=3.75

>  <NUM PEAKS>  (3145) 
54

>  <MASS SPECTRAL PEAKS>  (3145) 
40 1.2
41 47.8
42 10.3
43 7.23
44 6.7
45 2.3
53 1.8
54 0.23
55 36.3
56 7.2
57 26.5
58 0.16
59 9.5
67 3.2
68 1.8
69 1.48
70 2.8
71 7.6
73 5
74 99.99
75 22.9
76 1
79 1.1
81 0.23
82 1.3
83 7.9
84 3.3
85 0.33
87 57.9
88 4.7
95 1.9
96 0.09
97 5.1
98 2.4
101 4.2
109 0.1
111 1.8
115 1.5
116 0.7
129 0.35
130 0.9
143 7.9
144 0.7
157 0.1
171 0.8
185 1
199 1.7
213 0.15
227 0.9
255 1
269 3.1
281 0.14
312 3.9
313 1.1

$$$$

     RDKit          2D

 21 20  0  0  0  0  0  0  0  0999 V2000
    6.4952   10.5000    0.0000 C   0  0  0  0  0  0  0  0  0  0  0  0
  -18.1865   11.2500    0.0000 C   0  0  0  0  0  0  0  0  0  0  0  0
    5.1962   11.2500    0.0000 C   0  0  0  0  0  0  0  0  0  0  0  0
    3.8971   10.5000    0.0000 C   0  0  0  0  0  0  0  0  0  0  0  0
    2.5981   11.2500    0.0000 C   0  0  0  0  0  0  0  0  0  0  0  0
    1.2990   10.5000    0.0000 C   0  0  0  0  0  0  0  0  0  0  0  0
    0.0000   11.2500    0.0000 C   0  0  0  0  0  0  0  0  0  0  0  0
   -1.2990   10.5000    0.0000 C   0  0  0  0  0  0  0  0  0  0  0  0
   -2.5981   11.2500    0.0000 C   0  0  0  0  0  0  0  0  0  0  0  0
   -3.8971   10.5000    0.0000 C   0  0  0  0  0  0  0  0  0  0  0  0
   -5.1962   11.2500    0.0000 C   0  0  0  0  0  0  0  0  0  0  0  0
   -6.4952   10.5000    0.0000 C   0  0  0  0  0  0  0  0  0  0  0  0
   -7.7942   11.2500    0.0000 C   0  0  0  0  0  0  0  0  0  0  0  0
   -9.0933   10.5000    0.0000 C   0  0  0  0  0  0  0  0  0  0  0  0
  -10.3923   11.2500    0.0000 C   0  0  0  0  0  0  0  0  0  0  0  0
  -11.6913   10.5000    0.0000 C   0  0  0  0  0  0  0  0  0  0  0  0
  -12.9904   11.2500    0.0000 C   0  0  0  0  0  0  0  0  0  0  0  0
  -14.2894   10.5000    0.0000 C   0  0  0  0  0  0  0  0  0  0  0  0
  -15.5885   11.2500    0.0000 C   0  0  0  0  0  0  0  0  0  0  0  0
  -15.5885   12.7500    0.0000 O   0  0  0  0  0  0  0  0  0  0  0  0
  -16.8875   10.5000    0.0000 O   0  0  0  0  0  0  0  0  0  0  0  0
  3  1  1  0
  4  3  1  0
  5  4  1  0
  6  5  1  0
  7  6  1  0
  8  7  1  0
  9  8  1  0
 10  9  1  0
 11 10  1  0
 12 11  1  0
 13 12  1  0
 14 13  1  0
 15 14  1  0
 16 15  1  0
 17 16  1  0
 18 17  1  0
 19 18  1  0
 20 19  2  0
 21  2  1  0
 21 19  1  0
M  END
>  <NAME>  (3146) 
METHYL OCTADECANOATE

>  <SYNONYMS>  (3146) 
METHYL STEARATE

>  <SPECTRUM TYPE>  (3146) 
MS1

>  <INSTRUMENT TYPE>  (3146) 
EI-B

>  <INSTRUMENT>  (3146) 
SHIMADZU QP-1000

>  <ION MODE>  (3146) 
P

>  <INCHIKEY>  (3146) 
HPEUJPJOZXNMSJ-UHFFFAOYSA-N

>  <FORMULA>  (3146) 
C19H38O2

>  <EXACT MASS>  (3146) 
298.287180456

>  <MW>  (3146) 
298

>  <ID>  (3146) 
JP007714

>  <CONTRIBUTOR>  (3146) 
University of Tokyo Team, {Faculty of Engineering, University of Tokyo

>  <COMMENT>  (3146) 
SMILES=CCCCCCCCCCCCCCCCCC(=O)OC
cas=112-61-8
InChI=InChI=1S/C19H38O2/c1-3-4-5-6-7-8-9-10-11-12-13-14-15-16-17-18-19(20)21-2/h3-18H2,1-2H3
computed SMILES=O=C(OC)CCCCCCCCCCCCCCCCC
accession=JP007714
date=2016.01.19 (Created 2008.10.21, modified 2011.05.06)
author=KYOTO INSTITUTE OF TECHNOLOGY
license=CC BY-NC-SA
exact mass=298.28718
ionization energy=70 eV
ion type=[M]+*
computed spectral entropy=2.7527178756619826
computed normalized entropy=0.693328837173384
SPLASH=splash10-05fu-9000000000-71ef3d29b74452696ed8
submitter=submitter = University of Tokyo Team (Faculty of Engineering, University of Tokyo)
MoNA Rating=3.75

>  <NUM PEAKS>  (3146) 
53

>  <MASS SPECTRAL PEAKS>  (3146) 
40 1.2
41 47.4
42 10
43 6.9
44 5.7
45 2
53 1.8
54 0.26
55 33.2
56 6.5
57 23.7
58 0.18
59 10.2
67 3.1
68 1.7
69 1.41
70 2.7
71 6.4
73 2.5
74 99.99
75 21.2
76 1.1
81 2.1
82 0.12
83 7.3
84 3
85 2.9
87 5.74
88 4.6
95 1.5
96 0.8
97 0.51
98 2.1
101 3.9
111 1.7
115 0.13
116 0.7
129 3.1
130 0.7
143 0.76
144 0.9
157 1
171 0.5
185 0.12
199 2.3
200 0.5
213 0.9
241 0.08
255 3.3
267 1.1
269 0.6
298 0.34
299 0.7

$$$$

     RDKit          2D

 20 19  0  0  0  0  0  0  0  0999 V2000
    5.8457   10.1250    0.0000 C   0  0  0  0  0  0  0  0  0  0  0  0
  -17.5370   10.1250    0.0000 C   0  0  0  0  0  0  0  0  0  0  0  0
    4.5466   10.8750    0.0000 C   0  0  0  0  0  0  0  0  0  0  0  0
    3.2476   10.1250    0.0000 C   0  0  0  0  0  0  0  0  0  0  0  0
    1.9486   10.8750    0.0000 C   0  0  0  0  0  0  0  0  0  0  0  0
    0.6495   10.1250    0.0000 C   0  0  0  0  0  0  0  0  0  0  0  0
   -0.6495   10.8750    0.0000 C   0  0  0  0  0  0  0  0  0  0  0  0
   -1.9486   10.1250    0.0000 C   0  0  0  0  0  0  0  0  0  0  0  0
   -3.2476   10.8750    0.0000 C   0  0  0  0  0  0  0  0  0  0  0  0
   -4.5466   10.1250    0.0000 C   0  0  0  0  0  0  0  0  0  0  0  0
   -5.8457   10.8750    0.0000 C   0  0  0  0  0  0  0  0  0  0  0  0
   -7.1447   10.1250    0.0000 C   0  0  0  0  0  0  0  0  0  0  0  0
   -8.4437   10.8750    0.0000 C   0  0  0  0  0  0  0  0  0  0  0  0
   -9.7428   10.1250    0.0000 C   0  0  0  0  0  0  0  0  0  0  0  0
  -11.0418   10.8750    0.0000 C   0  0  0  0  0  0  0  0  0  0  0  0
  -12.3409   10.1250    0.0000 C   0  0  0  0  0  0  0  0  0  0  0  0
  -13.6399   10.8750    0.0000 C   0  0  0  0  0  0  0  0  0  0  0  0
  -14.9389   10.1250    0.0000 C   0  0  0  0  0  0  0  0  0  0  0  0
  -14.9389    8.6250    0.0000 O   0  0  0  0  0  0  0  0  0  0  0  0
  -16.2380   10.8750    0.0000 O   0  0  0  0  0  0  0  0  0  0  0  0
  3  1  1  0
  4  3  1  0
  5  4  1  0
  6  5  1  0
  7  6  1  0
  8  7  1  0
  9  8  1  0
 10  9  1  0
 11 10  1  0
 12 11  1  0
 13 12  1  0
 14 13  1  0
 15 14  1  0
 16 15  1  0
 17 16  1  0
 18 17  1  0
 19 18  2  0
 20  2  1  0
 20 18  1  0
M  END
>  <NAME>  (3147) 
METHYL HEPTADECANOATE

>  <SYNONYMS>  (3147) 


>  <SPECTRUM TYPE>  (3147) 
MS1

>  <INSTRUMENT TYPE>  (3147) 
EI-B

>  <INSTRUMENT>  (3147) 
SHIMADZU QP-1000

>  <ION MODE>  (3147) 
P

>  <INCHIKEY>  (3147) 
HUEBIMLTDXKIPR-UHFFFAOYSA-N

>  <FORMULA>  (3147) 
C18H36O2

>  <EXACT MASS>  (3147) 
284.271530392

>  <MW>  (3147) 
284

>  <ID>  (3147) 
JP007713

>  <CONTRIBUTOR>  (3147) 
University of Tokyo Team, {Faculty of Engineering, University of Tokyo

>  <COMMENT>  (3147) 
SMILES=CCCCCCCCCCCCCCCCC(=O)OC
cas=1731-92-6
InChI=InChI=1S/C18H36O2/c1-3-4-5-6-7-8-9-10-11-12-13-14-15-16-17-18(19)20-2/h3-17H2,1-2H3
computed SMILES=O=C(OC)CCCCCCCCCCCCCCCC
accession=JP007713
date=2016.01.19 (Created 2008.10.21, modified 2011.05.06)
author=KYOTO INSTITUTE OF TECHNOLOGY
license=CC BY-NC-SA
exact mass=284.27153
ionization energy=70 eV
ion type=[M]+*
computed spectral entropy=2.7536560873087073
computed normalized entropy=0.6871542644510513
SPLASH=splash10-05fu-9000000000-4b318e8d7bdffa2b35c9
submitter=submitter = University of Tokyo Team (Faculty of Engineering, University of Tokyo)
MoNA Rating=3.75

>  <NUM PEAKS>  (3147) 
55

>  <MASS SPECTRAL PEAKS>  (3147) 
40 1.6
41 46.5
42 10.1
43 6.35
44 4.2
45 1.9
53 1.8
54 0.24
55 33
56 6.3
57 20
58 0.15
59 10.4
67 2.8
68 1.4
69 1.33
70 2.6
71 5.7
73 2.2
74 99.99
75 19.5
76 1.1
81 2
82 0.1
83 7.1
84 2.9
85 2.5
87 5.71
88 4.7
95 1.5
96 0.7
97 0.45
98 2.1
101 3.7
111 1.5
115 0.13
116 0.6
129 3.6
130 0.8
143 0.74
144 0.7
157 0.9
171 0.6
185 0.22
186 0.4
199 2.1
200 0.4
213 0.05
227 0.7
241 3.4
242 0.6
253 0.13
255 1
284 2.8
285 0.6

$$$$

     RDKit          2D

 19 18  0  0  0  0  0  0  0  0999 V2000
  -16.2380   10.1250    0.0000 C   0  0  0  0  0  0  0  0  0  0  0  0
    5.8457    9.3750    0.0000 C   0  0  0  0  0  0  0  0  0  0  0  0
  -14.9389    9.3750    0.0000 C   0  0  0  0  0  0  0  0  0  0  0  0
  -13.6399   10.1250    0.0000 C   0  0  0  0  0  0  0  0  0  0  0  0
  -12.3409    9.3750    0.0000 C   0  0  0  0  0  0  0  0  0  0  0  0
  -11.0418   10.1250    0.0000 C   0  0  0  0  0  0  0  0  0  0  0  0
   -9.7428    9.3750    0.0000 C   0  0  0  0  0  0  0  0  0  0  0  0
   -8.4437   10.1250    0.0000 C   0  0  0  0  0  0  0  0  0  0  0  0
   -7.1447    9.3750    0.0000 C   0  0  0  0  0  0  0  0  0  0  0  0
   -5.8457   10.1250    0.0000 C   0  0  0  0  0  0  0  0  0  0  0  0
   -4.5466    9.3750    0.0000 C   0  0  0  0  0  0  0  0  0  0  0  0
   -3.2476   10.1250    0.0000 C   0  0  0  0  0  0  0  0  0  0  0  0
   -1.9486    9.3750    0.0000 C   0  0  0  0  0  0  0  0  0  0  0  0
   -0.6495   10.1250    0.0000 C   0  0  0  0  0  0  0  0  0  0  0  0
    0.6495    9.3750    0.0000 C   0  0  0  0  0  0  0  0  0  0  0  0
    1.9486   10.1250    0.0000 C   0  0  0  0  0  0  0  0  0  0  0  0
    3.2476    9.3750    0.0000 C   0  0  0  0  0  0  0  0  0  0  0  0
    3.2476    7.8750    0.0000 O   0  0  0  0  0  0  0  0  0  0  0  0
    4.5466   10.1250    0.0000 O   0  0  0  0  0  0  0  0  0  0  0  0
  3  1  1  0
  4  3  1  0
  5  4  1  0
  6  5  1  0
  7  6  1  0
  8  7  1  0
  9  8  1  0
 10  9  1  0
 11 10  1  0
 12 11  1  0
 13 12  1  0
 14 13  1  0
 15 14  1  0
 16 15  1  0
 17 16  1  0
 18 17  2  0
 19  2  1  0
 19 17  1  0
M  END
>  <NAME>  (3148) 
METHYL HEXADECANOATE

>  <SYNONYMS>  (3148) 
METHYL PALMITATE

>  <SPECTRUM TYPE>  (3148) 
MS1

>  <INSTRUMENT TYPE>  (3148) 
EI-B

>  <INSTRUMENT>  (3148) 
SHIMADZU QP-1000

>  <ION MODE>  (3148) 
P

>  <INCHIKEY>  (3148) 
FLIACVVOZYBSBS-UHFFFAOYSA-N

>  <FORMULA>  (3148) 
C17H34O2

>  <EXACT MASS>  (3148) 
270.255880328

>  <MW>  (3148) 
270

>  <ID>  (3148) 
JP007712

>  <CONTRIBUTOR>  (3148) 
University of Tokyo Team, {Faculty of Engineering, University of Tokyo

>  <COMMENT>  (3148) 
SMILES=CCCCCCCCCCCCCCCC(=O)OC
cas=112-39-0
InChI=InChI=1S/C17H34O2/c1-3-4-5-6-7-8-9-10-11-12-13-14-15-16-17(18)19-2/h3-16H2,1-2H3
computed SMILES=O=C(OC)CCCCCCCCCCCCCCC
accession=JP007712
date=2016.01.19 (Created 2008.10.21, modified 2011.05.06)
author=KYOTO INSTITUTE OF TECHNOLOGY
license=CC BY-NC-SA
exact mass=270.25588
ionization energy=70 eV
ion type=[M]+*
computed spectral entropy=2.612877618793351
computed normalized entropy=0.6407979460001166
SPLASH=splash10-05fr-9000000000-baccd6187fe64ba0fb81
submitter=submitter = University of Tokyo Team (Faculty of Engineering, University of Tokyo)
MoNA Rating=3.75

>  <NUM PEAKS>  (3148) 
59

>  <MASS SPECTRAL PEAKS>  (3148) 
40 1.3
41 42
42 9
43 5.74
44 3
45 1.8
53 1.8
54 0.21
55 30.9
56 5.7
57 18.7
58 0.12
59 10.3
67 2.7
68 1.3
69 1.21
70 2.2
71 4.9
73 2.1
74 99.99
75 17.7
76 1
81 1.7
82 0.07
83 5.7
84 2.6
85 2
87 4.95
88 4
95 1
96 0.5
97 0.34
98 1.5
101 3.1
111 0.9
115 0.11
116 0.4
129 2.4
130 0.5
143 0.49
144 0.5
157 0.5
158 0.1
171 0.11
172 0.2
185 1.1
186 0.2
199 0.1
200 0.1
213 0.4
214 0.1
227 0.22
228 0.4
239 1
240 0.2
241 0.06
242 0.1
270 1.5
271 0.4

$$$$

     RDKit          2D

 18 17  0  0  0  0  0  0  0  0999 V2000
    5.1962    9.0000    0.0000 C   0  0  0  0  0  0  0  0  0  0  0  0
  -15.5885    9.0000    0.0000 C   0  0  0  0  0  0  0  0  0  0  0  0
    3.8971    9.7500    0.0000 C   0  0  0  0  0  0  0  0  0  0  0  0
    2.5981    9.0000    0.0000 C   0  0  0  0  0  0  0  0  0  0  0  0
    1.2990    9.7500    0.0000 C   0  0  0  0  0  0  0  0  0  0  0  0
    0.0000    9.0000    0.0000 C   0  0  0  0  0  0  0  0  0  0  0  0
   -1.2990    9.7500    0.0000 C   0  0  0  0  0  0  0  0  0  0  0  0
   -2.5981    9.0000    0.0000 C   0  0  0  0  0  0  0  0  0  0  0  0
   -3.8971    9.7500    0.0000 C   0  0  0  0  0  0  0  0  0  0  0  0
   -5.1962    9.0000    0.0000 C   0  0  0  0  0  0  0  0  0  0  0  0
   -6.4952    9.7500    0.0000 C   0  0  0  0  0  0  0  0  0  0  0  0
   -7.7942    9.0000    0.0000 C   0  0  0  0  0  0  0  0  0  0  0  0
   -9.0933    9.7500    0.0000 C   0  0  0  0  0  0  0  0  0  0  0  0
  -10.3923    9.0000    0.0000 C   0  0  0  0  0  0  0  0  0  0  0  0
  -11.6913    9.7500    0.0000 C   0  0  0  0  0  0  0  0  0  0  0  0
  -12.9904    9.0000    0.0000 C   0  0  0  0  0  0  0  0  0  0  0  0
  -12.9904    7.5000    0.0000 O   0  0  0  0  0  0  0  0  0  0  0  0
  -14.2894    9.7500    0.0000 O   0  0  0  0  0  0  0  0  0  0  0  0
  3  1  1  0
  4  3  1  0
  5  4  1  0
  6  5  1  0
  7  6  1  0
  8  7  1  0
  9  8  1  0
 10  9  1  0
 11 10  1  0
 12 11  1  0
 13 12  1  0
 14 13  1  0
 15 14  1  0
 16 15  1  0
 17 16  2  0
 18  2  1  0
 18 16  1  0
M  END
>  <NAME>  (3149) 
METHYL PENTADECANOATE

>  <SYNONYMS>  (3149) 


>  <SPECTRUM TYPE>  (3149) 
MS1

>  <INSTRUMENT TYPE>  (3149) 
EI-B

>  <INSTRUMENT>  (3149) 
SHIMADZU QP-1000

>  <ION MODE>  (3149) 
P

>  <INCHIKEY>  (3149) 
XIUXKAZJZFLLDQ-UHFFFAOYSA-N

>  <FORMULA>  (3149) 
C16H32O2

>  <EXACT MASS>  (3149) 
256.240230264

>  <MW>  (3149) 
256

>  <ID>  (3149) 
JP007711

>  <CONTRIBUTOR>  (3149) 
University of Tokyo Team, {Faculty of Engineering, University of Tokyo

>  <COMMENT>  (3149) 
SMILES=CCCCCCCCCCCCCCC(=O)OC
cas=7132-64-1
InChI=InChI=1S/C16H32O2/c1-3-4-5-6-7-8-9-10-11-12-13-14-15-16(17)18-2/h3-15H2,1-2H3
computed SMILES=O=C(OC)CCCCCCCCCCCCCC
accession=JP007711
date=2016.01.19 (Created 2008.10.21, modified 2011.05.06)
author=KYOTO INSTITUTE OF TECHNOLOGY
license=CC BY-NC-SA
exact mass=256.24023
ionization energy=70 eV
ion type=[M]+*
computed spectral entropy=2.690053072728776
computed normalized entropy=0.6743704766244247
SPLASH=splash10-05fr-9000000000-663b5b673ac469ab3ab9
submitter=submitter = University of Tokyo Team (Faculty of Engineering, University of Tokyo)
MoNA Rating=3.75

>  <NUM PEAKS>  (3149) 
54

>  <MASS SPECTRAL PEAKS>  (3149) 
40 1.8
41 45.4
42 9.8
43 5.6
44 3.5
45 2.1
53 2.1
54 0.22
55 30.5
56 5.7
57 16.7
58 0.11
59 11.1
67 2.5
68 1.3
69 1.2
70 2.1
71 4.3
73 2.1
74 99.99
75 15.9
76 1
81 1.7
82 0.07
83 5.9
84 2.9
85 2
87 5.43
88 4.5
95 1.2
97 3.9
98 0.18
101 4
111 1.2
115 1.3
129 0.31
130 0.6
143 6.7
144 0.7
157 0.2
158 0.3
171 1.2
172 0.2
185 0.1
186 0.2
199 1.6
200 0.2
213 0.31
214 0.5
225 1.6
226 0.3
227 0.08
256 1.9
257 0.5

$$$$

     RDKit          2D

 23 22  0  0  0  0  0  0  0  0999 V2000
    7.1447   12.3750    0.0000 C   0  0  0  0  0  0  0  0  0  0  0  0
    5.8457   13.1250    0.0000 C   0  0  0  0  0  0  0  0  0  0  0  0
    4.5466   12.3750    0.0000 C   0  0  0  0  0  0  0  0  0  0  0  0
    3.2476   13.1250    0.0000 C   0  0  0  0  0  0  0  0  0  0  0  0
    1.9486   12.3750    0.0000 C   0  0  0  0  0  0  0  0  0  0  0  0
    0.6495   13.1250    0.0000 C   0  0  0  0  0  0  0  0  0  0  0  0
   -0.6495   12.3750    0.0000 C   0  0  0  0  0  0  0  0  0  0  0  0
   -1.9486   13.1250    0.0000 C   0  0  0  0  0  0  0  0  0  0  0  0
   -3.2476   12.3750    0.0000 C   0  0  0  0  0  0  0  0  0  0  0  0
   -4.5466   13.1250    0.0000 C   0  0  0  0  0  0  0  0  0  0  0  0
   -5.8457   12.3750    0.0000 C   0  0  0  0  0  0  0  0  0  0  0  0
   -7.1447   13.1250    0.0000 C   0  0  0  0  0  0  0  0  0  0  0  0
   -8.4437   12.3750    0.0000 C   0  0  0  0  0  0  0  0  0  0  0  0
   -9.7428   13.1250    0.0000 C   0  0  0  0  0  0  0  0  0  0  0  0
  -11.0418   12.3750    0.0000 C   0  0  0  0  0  0  0  0  0  0  0  0
  -12.3409   13.1250    0.0000 C   0  0  0  0  0  0  0  0  0  0  0  0
  -13.6399   12.3750    0.0000 C   0  0  0  0  0  0  0  0  0  0  0  0
  -14.9389   13.1250    0.0000 C   0  0  0  0  0  0  0  0  0  0  0  0
  -16.2380   12.3750    0.0000 C   0  0  0  0  0  0  0  0  0  0  0  0
  -17.5370   13.1250    0.0000 C   0  0  0  0  0  0  0  0  0  0  0  0
  -18.8361   12.3750    0.0000 C   0  0  0  0  0  0  0  0  0  0  0  0
  -20.1351   13.1250    0.0000 C   0  0  0  0  0  0  0  0  0  0  0  0
  -21.4341   12.3750    0.0000 O   0  0  0  0  0  0  0  0  0  0  0  0
  2  1  1  0
  3  2  1  0
  4  3  1  0
  5  4  1  0
  6  5  1  0
  7  6  1  0
  8  7  1  0
  9  8  1  0
 10  9  1  0
 11 10  1  0
 12 11  1  0
 13 12  1  0
 14 13  1  0
 15 14  1  0
 16 15  1  0
 17 16  1  0
 18 17  1  0
 19 18  1  0
 20 19  1  0
 21 20  1  0
 22 21  1  0
 23 22  1  0
M  END
>  <NAME>  (3150) 
1-DOCOSANOL

>  <SYNONYMS>  (3150) 


>  <SPECTRUM TYPE>  (3150) 
MS1

>  <INSTRUMENT TYPE>  (3150) 
EI-B

>  <INSTRUMENT>  (3150) 
SHIMADZU QP-1000

>  <ION MODE>  (3150) 
P

>  <INCHIKEY>  (3150) 
NOPFSRXAKWQILS-UHFFFAOYSA-N

>  <FORMULA>  (3150) 
C22H46O

>  <EXACT MASS>  (3150) 
326.354866092

>  <MW>  (3150) 
326

>  <ID>  (3150) 
JP007710

>  <CONTRIBUTOR>  (3150) 
University of Tokyo Team, {Faculty of Engineering, University of Tokyo

>  <COMMENT>  (3150) 
SMILES=CCCCCCCCCCCCCCCCCCCCCCO
cas=661-19-8
InChI=InChI=1S/C22H46O/c1-2-3-4-5-6-7-8-9-10-11-12-13-14-15-16-17-18-19-20-21-22-23/h23H,2-22H2,1H3
computed SMILES=OCCCCCCCCCCCCCCCCCCCCCC
accession=JP007710
date=2016.01.19 (Created 2008.10.21, modified 2011.05.06)
author=KYOTO INSTITUTE OF TECHNOLOGY
license=CC BY-NC-SA
exact mass=326.35487
ionization energy=70 eV
ion type=[M]+*
computed spectral entropy=2.8184126050465728
computed normalized entropy=0.7065489789246164
SPLASH=splash10-0a4l-9000000000-809da2804db4c444826e
submitter=submitter = University of Tokyo Team (Faculty of Engineering, University of Tokyo)
MoNA Rating=3.75

>  <NUM PEAKS>  (3150) 
54

>  <MASS SPECTRAL PEAKS>  (3150) 
40 2
41 66.3
42 18.2
43 99.99
44 6.3
45 1.7
53 2.4
54 0.77
55 69.7
56 32
57 70.1
58 0.34
66 1
67 9.9
68 19.1
69 4.33
70 21.6
71 25.5
72 1.5
73 0.22
81 5.4
82 20.3
83 39.7
84 1.19
85 12.1
95 2.7
96 7.2
97 2.91
98 6.2
99 2.3
109 1
110 0.22
111 11.9
112 3.2
113 1.1
124 0.11
125 4.8
126 1.5
138 0.6
139 0.15
140 0.8
153 0.7
154 0.5
166 0.03
167 0.4
168 0.3
180 0.2
181 0.02
182 0.2
195 0.2
196 0.2
210 0.01
280 0.3
308 0.1

$$$$

     RDKit          2D

 20 19  0  0  0  0  0  0  0  0999 V2000
    6.4952   10.5000    0.0000 C   0  0  0  0  0  0  0  0  0  0  0  0
    5.1962   11.2500    0.0000 C   0  0  0  0  0  0  0  0  0  0  0  0
    3.8971   10.5000    0.0000 C   0  0  0  0  0  0  0  0  0  0  0  0
    2.5981   11.2500    0.0000 C   0  0  0  0  0  0  0  0  0  0  0  0
    1.2990   10.5000    0.0000 C   0  0  0  0  0  0  0  0  0  0  0  0
    0.0000   11.2500    0.0000 C   0  0  0  0  0  0  0  0  0  0  0  0
   -1.2990   10.5000    0.0000 C   0  0  0  0  0  0  0  0  0  0  0  0
   -2.5981   11.2500    0.0000 C   0  0  0  0  0  0  0  0  0  0  0  0
   -3.8971   10.5000    0.0000 C   0  0  0  0  0  0  0  0  0  0  0  0
   -5.1962   11.2500    0.0000 C   0  0  0  0  0  0  0  0  0  0  0  0
   -6.4952   10.5000    0.0000 C   0  0  0  0  0  0  0  0  0  0  0  0
   -7.7942   11.2500    0.0000 C   0  0  0  0  0  0  0  0  0  0  0  0
   -9.0933   10.5000    0.0000 C   0  0  0  0  0  0  0  0  0  0  0  0
  -10.3923   11.2500    0.0000 C   0  0  0  0  0  0  0  0  0  0  0  0
  -11.6913   10.5000    0.0000 C   0  0  0  0  0  0  0  0  0  0  0  0
  -12.9904   11.2500    0.0000 C   0  0  0  0  0  0  0  0  0  0  0  0
  -14.2894   10.5000    0.0000 C   0  0  0  0  0  0  0  0  0  0  0  0
  -15.5885   11.2500    0.0000 C   0  0  0  0  0  0  0  0  0  0  0  0
  -16.8875   10.5000    0.0000 C   0  0  0  0  0  0  0  0  0  0  0  0
  -18.1865   11.2500    0.0000 O   0  0  0  0  0  0  0  0  0  0  0  0
  2  1  1  0
  3  2  1  0
  4  3  1  0
  5  4  1  0
  6  5  1  0
  7  6  1  0
  8  7  1  0
  9  8  1  0
 10  9  1  0
 11 10  1  0
 12 11  1  0
 13 12  1  0
 14 13  1  0
 15 14  1  0
 16 15  1  0
 17 16  1  0
 18 17  1  0
 19 18  1  0
 20 19  1  0
M  END
>  <NAME>  (3151) 
1-NONADECANOL

>  <SYNONYMS>  (3151) 


>  <SPECTRUM TYPE>  (3151) 
MS1

>  <INSTRUMENT TYPE>  (3151) 
EI-B

>  <INSTRUMENT>  (3151) 
SHIMADZU QP-1000

>  <ION MODE>  (3151) 
P

>  <INCHIKEY>  (3151) 
XGFDHKJUZCCPKQ-UHFFFAOYSA-N

>  <FORMULA>  (3151) 
C19H40O

>  <EXACT MASS>  (3151) 
284.3079159

>  <MW>  (3151) 
284

>  <ID>  (3151) 
JP007709

>  <CONTRIBUTOR>  (3151) 
University of Tokyo Team, {Faculty of Engineering, University of Tokyo

>  <COMMENT>  (3151) 
SMILES=CCCCCCCCCCCCCCCCCCCO
cas=1454-84-8
InChI=InChI=1S/C19H40O/c1-2-3-4-5-6-7-8-9-10-11-12-13-14-15-16-17-18-19-20/h20H,2-19H2,1H3
computed SMILES=OCCCCCCCCCCCCCCCCCCC
accession=JP007709
date=2016.01.19 (Created 2008.10.21, modified 2011.05.06)
author=KYOTO INSTITUTE OF TECHNOLOGY
license=CC BY-NC-SA
exact mass=284.30792
ionization energy=70 eV
ion type=[M]+*
computed spectral entropy=2.814545118729167
computed normalized entropy=0.7123187834486815
SPLASH=splash10-052f-9000000000-613bfd8a65e64d9bbc76
submitter=submitter = University of Tokyo Team (Faculty of Engineering, University of Tokyo)
MoNA Rating=3.75

>  <NUM PEAKS>  (3151) 
52

>  <MASS SPECTRAL PEAKS>  (3151) 
40 2.1
41 78.1
42 19.8
43 99.99
44 6
45 1.9
53 2.8
54 0.79
55 7.2
56 34.6
57 67.9
58 0.29
66 1
67 9.8
68 21
69 4.88
70 24.3
71 23.2
72 1.3
73 0.14
81 5.3
82 20.8
83 42.3
84 1.38
85 11
95 2.3
96 6.5
97 2.93
98 7
99 2
109 0.8
110 0.23
111 12.5
112 3.8
113 0.9
124 0.13
125 5
126 2
138 0.7
139 0.16
140 1.1
153 0.8
154 0.7
167 0.04
168 0.5
181 0.2
182 0.3
195 0.02
196 0.2
210 0.2
238 0.3
266 0.2

$$$$

     RDKit          2D

 19 18  0  0  0  0  0  0  0  0999 V2000
    5.8457   10.1250    0.0000 C   0  0  0  0  0  0  0  0  0  0  0  0
    4.5466   10.8750    0.0000 C   0  0  0  0  0  0  0  0  0  0  0  0
    3.2476   10.1250    0.0000 C   0  0  0  0  0  0  0  0  0  0  0  0
    1.9486   10.8750    0.0000 C   0  0  0  0  0  0  0  0  0  0  0  0
    0.6495   10.1250    0.0000 C   0  0  0  0  0  0  0  0  0  0  0  0
   -0.6495   10.8750    0.0000 C   0  0  0  0  0  0  0  0  0  0  0  0
   -1.9486   10.1250    0.0000 C   0  0  0  0  0  0  0  0  0  0  0  0
   -3.2476   10.8750    0.0000 C   0  0  0  0  0  0  0  0  0  0  0  0
   -4.5466   10.1250    0.0000 C   0  0  0  0  0  0  0  0  0  0  0  0
   -5.8457   10.8750    0.0000 C   0  0  0  0  0  0  0  0  0  0  0  0
   -7.1447   10.1250    0.0000 C   0  0  0  0  0  0  0  0  0  0  0  0
   -8.4437   10.8750    0.0000 C   0  0  0  0  0  0  0  0  0  0  0  0
   -9.7428   10.1250    0.0000 C   0  0  0  0  0  0  0  0  0  0  0  0
  -11.0418   10.8750    0.0000 C   0  0  0  0  0  0  0  0  0  0  0  0
  -12.3409   10.1250    0.0000 C   0  0  0  0  0  0  0  0  0  0  0  0
  -13.6399   10.8750    0.0000 C   0  0  0  0  0  0  0  0  0  0  0  0
  -14.9389   10.1250    0.0000 C   0  0  0  0  0  0  0  0  0  0  0  0
  -16.2380   10.8750    0.0000 C   0  0  0  0  0  0  0  0  0  0  0  0
  -17.5370   10.1250    0.0000 O   0  0  0  0  0  0  0  0  0  0  0  0
  2  1  1  0
  3  2  1  0
  4  3  1  0
  5  4  1  0
  6  5  1  0
  7  6  1  0
  8  7  1  0
  9  8  1  0
 10  9  1  0
 11 10  1  0
 12 11  1  0
 13 12  1  0
 14 13  1  0
 15 14  1  0
 16 15  1  0
 17 16  1  0
 18 17  1  0
 19 18  1  0
M  END
>  <NAME>  (3152) 
1-OCTADECANOL

>  <SYNONYMS>  (3152) 


>  <SPECTRUM TYPE>  (3152) 
MS1

>  <INSTRUMENT TYPE>  (3152) 
EI-B

>  <INSTRUMENT>  (3152) 
SHIMADZU QP-1000

>  <ION MODE>  (3152) 
P

>  <INCHIKEY>  (3152) 
GLDOVTGHNKAZLK-UHFFFAOYSA-N

>  <FORMULA>  (3152) 
C18H38O

>  <EXACT MASS>  (3152) 
270.292265836

>  <MW>  (3152) 
270

>  <ID>  (3152) 
JP007708

>  <CONTRIBUTOR>  (3152) 
University of Tokyo Team, {Faculty of Engineering, University of Tokyo

>  <COMMENT>  (3152) 
SMILES=CCCCCCCCCCCCCCCCCCO
cas=112-92-5
InChI=InChI=1S/C18H38O/c1-2-3-4-5-6-7-8-9-10-11-12-13-14-15-16-17-18-19/h19H,2-18H2,1H3
computed SMILES=OCCCCCCCCCCCCCCCCCC
accession=JP007708
date=2016.01.19 (Created 2008.10.21, modified 2011.05.06)
author=KYOTO INSTITUTE OF TECHNOLOGY
license=CC BY-NC-SA
exact mass=270.29227
ionization energy=70 eV
ion type=[M]+*
computed spectral entropy=2.719811728026462
computed normalized entropy=0.695244308188519
SPLASH=splash10-052f-9000000000-f288a18a6df1296b18be
submitter=submitter = University of Tokyo Team (Faculty of Engineering, University of Tokyo)
MoNA Rating=3.75

>  <NUM PEAKS>  (3152) 
50

>  <MASS SPECTRAL PEAKS>  (3152) 
40 2.4
41 85
42 21.1
43 99.99
44 5.3
45 2
53 3.3
54 0.84
55 75
56 36.6
57 62.2
58 0.27
66 1
67 9.9
68 19.5
69 4.48
70 24.2
71 20
72 1
73 0.1
81 4.6
82 17.8
83 37.8
84 1.3
85 8.9
95 1.8
96 5.7
97 2.47
98 6.5
99 1.6
110 2
111 1.08
112 3.5
113 0.8
124 1
125 0.42
126 1.7
138 0.5
139 1.2
140 0.09
153 0.5
154 0.5
167 0.3
168 0.03
181 0.1
182 0.2
195 0.1
196 0.02
224 0.3
252 0.1

$$$$

     RDKit          2D

 18 17  0  0  0  0  0  0  0  0999 V2000
  -16.2380   10.1250    0.0000 C   0  0  0  0  0  0  0  0  0  0  0  0
  -14.9389    9.3750    0.0000 C   0  0  0  0  0  0  0  0  0  0  0  0
  -13.6399   10.1250    0.0000 C   0  0  0  0  0  0  0  0  0  0  0  0
  -12.3409    9.3750    0.0000 C   0  0  0  0  0  0  0  0  0  0  0  0
  -11.0418   10.1250    0.0000 C   0  0  0  0  0  0  0  0  0  0  0  0
   -9.7428    9.3750    0.0000 C   0  0  0  0  0  0  0  0  0  0  0  0
   -8.4437   10.1250    0.0000 C   0  0  0  0  0  0  0  0  0  0  0  0
   -7.1447    9.3750    0.0000 C   0  0  0  0  0  0  0  0  0  0  0  0
   -5.8457   10.1250    0.0000 C   0  0  0  0  0  0  0  0  0  0  0  0
   -4.5466    9.3750    0.0000 C   0  0  0  0  0  0  0  0  0  0  0  0
   -3.2476   10.1250    0.0000 C   0  0  0  0  0  0  0  0  0  0  0  0
   -1.9486    9.3750    0.0000 C   0  0  0  0  0  0  0  0  0  0  0  0
   -0.6495   10.1250    0.0000 C   0  0  0  0  0  0  0  0  0  0  0  0
    0.6495    9.3750    0.0000 C   0  0  0  0  0  0  0  0  0  0  0  0
    1.9486   10.1250    0.0000 C   0  0  0  0  0  0  0  0  0  0  0  0
    3.2476    9.3750    0.0000 C   0  0  0  0  0  0  0  0  0  0  0  0
    4.5466   10.1250    0.0000 C   0  0  0  0  0  0  0  0  0  0  0  0
    5.8457    9.3750    0.0000 O   0  0  0  0  0  0  0  0  0  0  0  0
  2  1  1  0
  3  2  1  0
  4  3  1  0
  5  4  1  0
  6  5  1  0
  7  6  1  0
  8  7  1  0
  9  8  1  0
 10  9  1  0
 11 10  1  0
 12 11  1  0
 13 12  1  0
 14 13  1  0
 15 14  1  0
 16 15  1  0
 17 16  1  0
 18 17  1  0
M  END
>  <NAME>  (3153) 
1-HEPTADECANOL

>  <SYNONYMS>  (3153) 


>  <SPECTRUM TYPE>  (3153) 
MS1

>  <INSTRUMENT TYPE>  (3153) 
EI-B

>  <INSTRUMENT>  (3153) 
SHIMADZU QP-1000

>  <ION MODE>  (3153) 
P

>  <INCHIKEY>  (3153) 
GOQYKNQRPGWPLP-UHFFFAOYSA-N

>  <FORMULA>  (3153) 
C17H36O

>  <EXACT MASS>  (3153) 
256.276615772

>  <MW>  (3153) 
256

>  <ID>  (3153) 
JP007707

>  <CONTRIBUTOR>  (3153) 
University of Tokyo Team, {Faculty of Engineering, University of Tokyo

>  <COMMENT>  (3153) 
SMILES=CCCCCCCCCCCCCCCCCO
cas=1454-85-9
InChI=InChI=1S/C17H36O/c1-2-3-4-5-6-7-8-9-10-11-12-13-14-15-16-17-18/h18H,2-17H2,1H3
computed SMILES=OCCCCCCCCCCCCCCCCC
accession=JP007707
date=2016.01.19 (Created 2008.10.21, modified 2011.05.06)
author=KYOTO INSTITUTE OF TECHNOLOGY
license=CC BY-NC-SA
exact mass=256.27662
ionization energy=70 eV
ion type=[M]+*
computed spectral entropy=2.7935260468730885
computed normalized entropy=0.7216174099463615
SPLASH=splash10-052f-9000000000-45c09c9ad7cfe2c1e9b6
submitter=submitter = University of Tokyo Team (Faculty of Engineering, University of Tokyo)
MoNA Rating=3.75

>  <NUM PEAKS>  (3153) 
48

>  <MASS SPECTRAL PEAKS>  (3153) 
40 3.1
41 86
42 21.4
43 99.99
44 6.8
45 2.2
53 3.4
54 0.8
55 76.3
56 40.2
57 63.3
58 0.31
66 1
67 11
68 22.2
69 5.23
70 29.7
71 22.1
72 1.4
73 0.14
81 5.4
82 21.3
83 45.9
84 1.71
85 10.3
95 2.3
96 6.8
97 3.11
98 8.8
99 2
110 2.5
111 1.37
112 4.4
113 0.9
124 1.2
125 0.52
126 2.4
138 0.6
139 1.5
140 0.14
153 0.7
154 0.7
167 0.3
168 0.05
182 0.4
196 0.5
210 0.6
238 0.1

$$$$

     RDKit          2D

 17 16  0  0  0  0  0  0  0  0999 V2000
  -15.5885    9.0000    0.0000 C   0  0  0  0  0  0  0  0  0  0  0  0
  -14.2894    8.2500    0.0000 C   0  0  0  0  0  0  0  0  0  0  0  0
  -12.9904    9.0000    0.0000 C   0  0  0  0  0  0  0  0  0  0  0  0
  -11.6913    8.2500    0.0000 C   0  0  0  0  0  0  0  0  0  0  0  0
  -10.3923    9.0000    0.0000 C   0  0  0  0  0  0  0  0  0  0  0  0
   -9.0933    8.2500    0.0000 C   0  0  0  0  0  0  0  0  0  0  0  0
   -7.7942    9.0000    0.0000 C   0  0  0  0  0  0  0  0  0  0  0  0
   -6.4952    8.2500    0.0000 C   0  0  0  0  0  0  0  0  0  0  0  0
   -5.1962    9.0000    0.0000 C   0  0  0  0  0  0  0  0  0  0  0  0
   -3.8971    8.2500    0.0000 C   0  0  0  0  0  0  0  0  0  0  0  0
   -2.5981    9.0000    0.0000 C   0  0  0  0  0  0  0  0  0  0  0  0
   -1.2990    8.2500    0.0000 C   0  0  0  0  0  0  0  0  0  0  0  0
    0.0000    9.0000    0.0000 C   0  0  0  0  0  0  0  0  0  0  0  0
    1.2990    8.2500    0.0000 C   0  0  0  0  0  0  0  0  0  0  0  0
    2.5981    9.0000    0.0000 C   0  0  0  0  0  0  0  0  0  0  0  0
    3.8971    8.2500    0.0000 C   0  0  0  0  0  0  0  0  0  0  0  0
    5.1962    9.0000    0.0000 O   0  0  0  0  0  0  0  0  0  0  0  0
  2  1  1  0
  3  2  1  0
  4  3  1  0
  5  4  1  0
  6  5  1  0
  7  6  1  0
  8  7  1  0
  9  8  1  0
 10  9  1  0
 11 10  1  0
 12 11  1  0
 13 12  1  0
 14 13  1  0
 15 14  1  0
 16 15  1  0
 17 16  1  0
M  END
>  <NAME>  (3154) 
1-HEXADECANOL

>  <SYNONYMS>  (3154) 


>  <SPECTRUM TYPE>  (3154) 
MS1

>  <INSTRUMENT TYPE>  (3154) 
EI-B

>  <INSTRUMENT>  (3154) 
SHIMADZU QP-1000

>  <ION MODE>  (3154) 
P

>  <INCHIKEY>  (3154) 
BXWNKGSJHAJOGX-UHFFFAOYSA-N

>  <FORMULA>  (3154) 
C16H34O

>  <EXACT MASS>  (3154) 
242.26096570800001

>  <MW>  (3154) 
242

>  <ID>  (3154) 
JP007706

>  <CONTRIBUTOR>  (3154) 
University of Tokyo Team, {Faculty of Engineering, University of Tokyo

>  <COMMENT>  (3154) 
SMILES=CCCCCCCCCCCCCCCCO
cas=36653-82-4
InChI=InChI=1S/C16H34O/c1-2-3-4-5-6-7-8-9-10-11-12-13-14-15-16-17/h17H,2-16H2,1H3
computed SMILES=OCCCCCCCCCCCCCCCC
accession=JP007706
date=2016.01.19 (Created 2008.10.21, modified 2011.05.06)
author=KYOTO INSTITUTE OF TECHNOLOGY
license=CC BY-NC-SA
exact mass=242.26097
ionization energy=70 eV
ion type=[M]+*
computed spectral entropy=2.7452861457907067
computed normalized entropy=0.7091561864277541
SPLASH=splash10-0a4l-9000000000-83f0c3f9a7d1a2d70b83
submitter=submitter = University of Tokyo Team (Faculty of Engineering, University of Tokyo)
MoNA Rating=3.75

>  <NUM PEAKS>  (3154) 
48

>  <MASS SPECTRAL PEAKS>  (3154) 
40 3
41 9.18
42 22.8
43 99.99
44 5.9
45 2.2
53 3.4
54 0.75
55 70.7
56 37.9
57 55.1
58 0.24
66 1
67 9.1
68 18.9
69 4.39
70 26.4
71 16.7
72 1
73 0.1
81 3.9
82 17.3
83 37.8
84 1.45
85 7.6
95 1.5
96 5.2
97 2.41
98 7.2
99 1.3
110 2
111 1.05
112 3.8
113 0.6
124 0.9
125 0.38
126 1.9
138 0.4
139 1
140 0.09
153 0.4
154 0.5
167 0.2
168 0.04
182 0.1
196 0.6
197 0.1
224 0.2

$$$$

     RDKit          2D

 16 15  0  0  0  0  0  0  0  0999 V2000
    5.1962    8.2500    0.0000 C   0  0  0  0  0  0  0  0  0  0  0  0
    3.8971    9.0000    0.0000 C   0  0  0  0  0  0  0  0  0  0  0  0
    2.5981    8.2500    0.0000 C   0  0  0  0  0  0  0  0  0  0  0  0
    1.2990    9.0000    0.0000 C   0  0  0  0  0  0  0  0  0  0  0  0
    0.0000    8.2500    0.0000 C   0  0  0  0  0  0  0  0  0  0  0  0
   -1.2990    9.0000    0.0000 C   0  0  0  0  0  0  0  0  0  0  0  0
   -2.5981    8.2500    0.0000 C   0  0  0  0  0  0  0  0  0  0  0  0
   -3.8971    9.0000    0.0000 C   0  0  0  0  0  0  0  0  0  0  0  0
   -5.1962    8.2500    0.0000 C   0  0  0  0  0  0  0  0  0  0  0  0
   -6.4952    9.0000    0.0000 C   0  0  0  0  0  0  0  0  0  0  0  0
   -7.7942    8.2500    0.0000 C   0  0  0  0  0  0  0  0  0  0  0  0
   -9.0933    9.0000    0.0000 C   0  0  0  0  0  0  0  0  0  0  0  0
  -10.3923    8.2500    0.0000 C   0  0  0  0  0  0  0  0  0  0  0  0
  -11.6913    9.0000    0.0000 C   0  0  0  0  0  0  0  0  0  0  0  0
  -12.9904    8.2500    0.0000 C   0  0  0  0  0  0  0  0  0  0  0  0
  -14.2894    9.0000    0.0000 O   0  0  0  0  0  0  0  0  0  0  0  0
  2  1  1  0
  3  2  1  0
  4  3  1  0
  5  4  1  0
  6  5  1  0
  7  6  1  0
  8  7  1  0
  9  8  1  0
 10  9  1  0
 11 10  1  0
 12 11  1  0
 13 12  1  0
 14 13  1  0
 15 14  1  0
 16 15  1  0
M  END
>  <NAME>  (3155) 
1-PENTADECANOL

>  <SYNONYMS>  (3155) 


>  <SPECTRUM TYPE>  (3155) 
MS1

>  <INSTRUMENT TYPE>  (3155) 
EI-B

>  <INSTRUMENT>  (3155) 
SHIMADZU QP-1000

>  <ION MODE>  (3155) 
P

>  <INCHIKEY>  (3155) 
REIUXOLGHVXAEO-UHFFFAOYSA-N

>  <FORMULA>  (3155) 
C15H32O

>  <EXACT MASS>  (3155) 
228.245315644

>  <MW>  (3155) 
228

>  <ID>  (3155) 
JP007705

>  <CONTRIBUTOR>  (3155) 
University of Tokyo Team, {Faculty of Engineering, University of Tokyo

>  <COMMENT>  (3155) 
SMILES=CCCCCCCCCCCCCCCO
cas=629-76-5
InChI=InChI=1S/C15H32O/c1-2-3-4-5-6-7-8-9-10-11-12-13-14-15-16/h16H,2-15H2,1H3
computed SMILES=OCCCCCCCCCCCCCCC
accession=JP007705
date=2016.01.19 (Created 2008.10.21, modified 2011.05.06)
author=KYOTO INSTITUTE OF TECHNOLOGY
license=CC BY-NC-SA
exact mass=228.24532
ionization energy=70 eV
ion type=[M]+*
computed spectral entropy=2.7827832423882826
computed normalized entropy=0.7188423526825987
SPLASH=splash10-052f-9000000000-71c3524a7341cdcd7eb6
submitter=submitter = University of Tokyo Team (Faculty of Engineering, University of Tokyo)
MoNA Rating=3.75

>  <NUM PEAKS>  (3155) 
48

>  <MASS SPECTRAL PEAKS>  (3155) 
40 3.1
41 92.8
42 24.1
43 99.99
44 5.6
45 2.2
53 3.7
54 0.82
55 78.4
56 45.3
57 57.9
58 0.26
66 1
67 10
68 21.4
69 5.02
70 32.2
71 17.6
72 1
73 0.13
81 4.1
82 18.6
83 41.9
84 1.76
85 7.9
86 0.6
95 1.5
96 0.56
97 25.4
98 8.2
99 1.3
110 0.21
111 10.5
112 4.4
113 0.6
124 0.09
125 3.7
126 2
138 0.4
139 0.1
140 1
153 0.4
154 0.7
167 0.01
168 0.2
181 0.1
182 0.8
210 0.2

$$$$

     RDKit          2D

 15 14  0  0  0  0  0  0  0  0999 V2000
    4.5466    7.8750    0.0000 C   0  0  0  0  0  0  0  0  0  0  0  0
    3.2476    8.6250    0.0000 C   0  0  0  0  0  0  0  0  0  0  0  0
    1.9486    7.8750    0.0000 C   0  0  0  0  0  0  0  0  0  0  0  0
    0.6495    8.6250    0.0000 C   0  0  0  0  0  0  0  0  0  0  0  0
   -0.6495    7.8750    0.0000 C   0  0  0  0  0  0  0  0  0  0  0  0
   -1.9486    8.6250    0.0000 C   0  0  0  0  0  0  0  0  0  0  0  0
   -3.2476    7.8750    0.0000 C   0  0  0  0  0  0  0  0  0  0  0  0
   -4.5466    8.6250    0.0000 C   0  0  0  0  0  0  0  0  0  0  0  0
   -5.8457    7.8750    0.0000 C   0  0  0  0  0  0  0  0  0  0  0  0
   -7.1447    8.6250    0.0000 C   0  0  0  0  0  0  0  0  0  0  0  0
   -8.4437    7.8750    0.0000 C   0  0  0  0  0  0  0  0  0  0  0  0
   -9.7428    8.6250    0.0000 C   0  0  0  0  0  0  0  0  0  0  0  0
  -11.0418    7.8750    0.0000 C   0  0  0  0  0  0  0  0  0  0  0  0
  -12.3409    8.6250    0.0000 C   0  0  0  0  0  0  0  0  0  0  0  0
  -13.6399    7.8750    0.0000 O   0  0  0  0  0  0  0  0  0  0  0  0
  2  1  1  0
  3  2  1  0
  4  3  1  0
  5  4  1  0
  6  5  1  0
  7  6  1  0
  8  7  1  0
  9  8  1  0
 10  9  1  0
 11 10  1  0
 12 11  1  0
 13 12  1  0
 14 13  1  0
 15 14  1  0
M  END
>  <NAME>  (3156) 
1-TETRADECANOL

>  <SYNONYMS>  (3156) 


>  <SPECTRUM TYPE>  (3156) 
MS1

>  <INSTRUMENT TYPE>  (3156) 
EI-B

>  <INSTRUMENT>  (3156) 
SHIMADZU QP-1000

>  <ION MODE>  (3156) 
P

>  <INCHIKEY>  (3156) 
HLZKNKRTKFSKGZ-UHFFFAOYSA-N

>  <FORMULA>  (3156) 
C14H30O

>  <EXACT MASS>  (3156) 
214.22966558

>  <MW>  (3156) 
214

>  <ID>  (3156) 
JP007704

>  <CONTRIBUTOR>  (3156) 
University of Tokyo Team, {Faculty of Engineering, University of Tokyo

>  <COMMENT>  (3156) 
SMILES=CCCCCCCCCCCCCCO
cas=112-72-1
InChI=InChI=1S/C14H30O/c1-2-3-4-5-6-7-8-9-10-11-12-13-14-15/h15H,2-14H2,1H3
computed SMILES=OCCCCCCCCCCCCCC
accession=JP007704
date=2016.01.19 (Created 2008.10.21, modified 2011.05.06)
author=KYOTO INSTITUTE OF TECHNOLOGY
license=CC BY-NC-SA
exact mass=214.22967
ionization energy=70 eV
ion type=[M]+*
computed spectral entropy=2.6955887438509776
computed normalized entropy=0.712329191880346
SPLASH=splash10-052f-9000000000-acacbf10a3263c94194f
submitter=submitter = University of Tokyo Team (Faculty of Engineering, University of Tokyo)
MoNA Rating=3.75

>  <NUM PEAKS>  (3156) 
44

>  <MASS SPECTRAL PEAKS>  (3156) 
40 3.5
41 95.1
42 26.2
43 99.99
44 5.8
45 2.3
53 3.7
54 0.79
55 76.1
56 46
57 52.2
58 0.23
66 1
67 9
68 19
69 4.67
70 32.1
71 14.9
72 1
81 0.33
82 16.2
83 36.2
84 17.1
85 0.63
86 1
95 1.1
96 4.6
97 2.21
98 7.8
99 1
110 1.8
111 0.89
112 3.8
124 0.7
125 3.4
126 0.19
139 0.8
140 1.2
153 0.2
154 0.02
167 0.1
168 1.1
169 0.1
196 0.2

$$$$

     RDKit          2D

 10  9  0  0  0  0  0  0  0  0999 V2000
   -8.4437    5.6250    0.0000 C   0  0  0  0  0  0  0  0  0  0  0  0
   -7.1447    4.8750    0.0000 C   0  0  0  0  0  0  0  0  0  0  0  0
   -5.8457    5.6250    0.0000 C   0  0  0  0  0  0  0  0  0  0  0  0
   -4.5466    4.8750    0.0000 C   0  0  0  0  0  0  0  0  0  0  0  0
   -3.2476    5.6250    0.0000 C   0  0  0  0  0  0  0  0  0  0  0  0
   -1.9486    4.8750    0.0000 C   0  0  0  0  0  0  0  0  0  0  0  0
   -0.6495    5.6250    0.0000 C   0  0  0  0  0  0  0  0  0  0  0  0
    0.6495    4.8750    0.0000 C   0  0  0  0  0  0  0  0  0  0  0  0
    1.9486    5.6250    0.0000 C   0  0  0  0  0  0  0  0  0  0  0  0
    3.2476    4.8750    0.0000 O   0  0  0  0  0  0  0  0  0  0  0  0
  2  1  1  0
  3  2  1  0
  4  3  1  0
  5  4  1  0
  6  5  1  0
  7  6  1  0
  8  7  1  0
  9  8  1  0
 10  9  1  0
M  END
>  <NAME>  (3157) 
1-NONANOL

>  <SYNONYMS>  (3157) 


>  <SPECTRUM TYPE>  (3157) 
MS1

>  <INSTRUMENT TYPE>  (3157) 
EI-B

>  <INSTRUMENT>  (3157) 
SHIMADZU QP-1000

>  <ION MODE>  (3157) 
P

>  <INCHIKEY>  (3157) 
ZWRUINPWMLAQRD-UHFFFAOYSA-N

>  <FORMULA>  (3157) 
C9H20O

>  <EXACT MASS>  (3157) 
144.15141526

>  <MW>  (3157) 
144

>  <ID>  (3157) 
JP007703

>  <CONTRIBUTOR>  (3157) 
University of Tokyo Team, {Faculty of Engineering, University of Tokyo

>  <COMMENT>  (3157) 
SMILES=CCCCCCCCCO
cas=143-08-8
InChI=InChI=1S/C9H20O/c1-2-3-4-5-6-7-8-9-10/h10H,2-9H2,1H3
computed SMILES=OCCCCCCCCC
accession=JP007703
date=2016.01.19 (Created 2008.10.21, modified 2011.05.06)
author=KYOTO INSTITUTE OF TECHNOLOGY
license=CC BY-NC-SA
exact mass=144.15142
ionization energy=70 eV
ion type=[M]+*
computed spectral entropy=2.4999204833952406
computed normalized entropy=0.6923227123611304
SPLASH=splash10-052f-9000000000-7317cd2db1aad9ad8ee0
submitter=submitter = University of Tokyo Team (Faculty of Engineering, University of Tokyo)
MoNA Rating=3.75

>  <NUM PEAKS>  (3157) 
37

>  <MASS SPECTRAL PEAKS>  (3157) 
40 5.1
41 99.99
42 45.6
43 8.87
44 8.1
45 13.3
51 1
53 0.4
54 5.7
55 68.3
56 75.1
57 2.65
58 2.3
59 1.5
65 0.4
67 0.45
68 12.1
69 35
70 38.3
71 0.68
73 3.6
79 0.5
81 0.9
82 0.47
83 14.8
84 10.3
85 1.8
87 0.07
89 0.9
96 1
97 9
98 0.91
99 0.7
103 0.3
105 0.5
111 0.04
126 0.3

$$$$

     RDKit          2D

  9  8  0  0  0  0  0  0  0  0999 V2000
    2.5981    4.5000    0.0000 C   0  0  0  0  0  0  0  0  0  0  0  0
    1.2990    5.2500    0.0000 C   0  0  0  0  0  0  0  0  0  0  0  0
    0.0000    4.5000    0.0000 C   0  0  0  0  0  0  0  0  0  0  0  0
   -1.2990    5.2500    0.0000 C   0  0  0  0  0  0  0  0  0  0  0  0
   -2.5981    4.5000    0.0000 C   0  0  0  0  0  0  0  0  0  0  0  0
   -3.8971    5.2500    0.0000 C   0  0  0  0  0  0  0  0  0  0  0  0
   -5.1962    4.5000    0.0000 C   0  0  0  0  0  0  0  0  0  0  0  0
   -6.4952    5.2500    0.0000 C   0  0  0  0  0  0  0  0  0  0  0  0
   -7.7942    4.5000    0.0000 O   0  0  0  0  0  0  0  0  0  0  0  0
  2  1  1  0
  3  2  1  0
  4  3  1  0
  5  4  1  0
  6  5  1  0
  7  6  1  0
  8  7  1  0
  9  8  1  0
M  END
>  <NAME>  (3158) 
1-OCTANOL

>  <SYNONYMS>  (3158) 


>  <SPECTRUM TYPE>  (3158) 
MS1

>  <INSTRUMENT TYPE>  (3158) 
EI-B

>  <INSTRUMENT>  (3158) 
SHIMADZU QP-1000

>  <ION MODE>  (3158) 
P

>  <INCHIKEY>  (3158) 
KBPLFHHGFOOTCA-UHFFFAOYSA-N

>  <FORMULA>  (3158) 
C8H18O

>  <EXACT MASS>  (3158) 
130.135765196

>  <MW>  (3158) 
130

>  <ID>  (3158) 
JP007702

>  <CONTRIBUTOR>  (3158) 
University of Tokyo Team, {Faculty of Engineering, University of Tokyo

>  <COMMENT>  (3158) 
SMILES=CCCCCCCCO
cas=111-87-5
InChI=InChI=1S/C8H18O/c1-2-3-4-5-6-7-8-9/h9H,2-8H2,1H3
computed SMILES=OCCCCCCCC
accession=JP007702
date=2016.01.19 (Created 2008.10.21, modified 2011.05.06)
author=KYOTO INSTITUTE OF TECHNOLOGY
license=CC BY-NC-SA
exact mass=130.13577
ionization energy=70 eV
ion type=[M]+*
computed spectral entropy=2.4603234950173407
computed normalized entropy=0.6669568701339705
SPLASH=splash10-0a4l-9000000000-202f21207fb4ff7503db
submitter=submitter = University of Tokyo Team (Faculty of Engineering, University of Tokyo)
MoNA Rating=3.75

>  <NUM PEAKS>  (3158) 
40

>  <MASS SPECTRAL PEAKS>  (3158) 
40 5.4
41 99.99
42 59.8
43 7.49
44 7.1
45 7
51 1.1
53 3.9
54 0.44
55 68.8
56 74.4
57 29.5
58 0.18
59 0.8
65 0.5
67 3.5
68 1.05
69 37.4
70 35.8
71 5.8
72 0.04
73 2.2
79 0.5
81 0.6
82 0.41
83 18.7
84 21.8
85 2.1
87 0.03
89 0.3
91 0.2
95 0.2
97 0.16
98 0.2
99 0.2
103 0.2
106 0.02
111 0.2
112 0.6
113 0.2

$$$$

     RDKit          2D

  8  7  0  0  0  0  0  0  0  0999 V2000
   -6.4952    4.5000    0.0000 C   0  0  0  0  0  0  0  0  0  0  0  0
   -5.1962    3.7500    0.0000 C   0  0  0  0  0  0  0  0  0  0  0  0
   -3.8971    4.5000    0.0000 C   0  0  0  0  0  0  0  0  0  0  0  0
   -2.5981    3.7500    0.0000 C   0  0  0  0  0  0  0  0  0  0  0  0
   -1.2990    4.5000    0.0000 C   0  0  0  0  0  0  0  0  0  0  0  0
    0.0000    3.7500    0.0000 C   0  0  0  0  0  0  0  0  0  0  0  0
    1.2990    4.5000    0.0000 C   0  0  0  0  0  0  0  0  0  0  0  0
    2.5981    3.7500    0.0000 O   0  0  0  0  0  0  0  0  0  0  0  0
  2  1  1  0
  3  2  1  0
  4  3  1  0
  5  4  1  0
  6  5  1  0
  7  6  1  0
  8  7  1  0
M  END
>  <NAME>  (3159) 
1-HEPTANOL

>  <SYNONYMS>  (3159) 


>  <SPECTRUM TYPE>  (3159) 
MS1

>  <INSTRUMENT TYPE>  (3159) 
EI-B

>  <INSTRUMENT>  (3159) 
SHIMADZU QP-1000

>  <ION MODE>  (3159) 
P

>  <INCHIKEY>  (3159) 
BBMCTIGTTCKYKF-UHFFFAOYSA-N

>  <FORMULA>  (3159) 
C7H16O

>  <EXACT MASS>  (3159) 
116.120115132

>  <MW>  (3159) 
116

>  <ID>  (3159) 
JP007701

>  <CONTRIBUTOR>  (3159) 
University of Tokyo Team, {Faculty of Engineering, University of Tokyo

>  <COMMENT>  (3159) 
computed SMILES=OCCCCCCC
SMILES=CCCCCCCO
cas=111-70-6
InChI=InChI=1S/C7H16O/c1-2-3-4-5-6-7-8/h8H,2-7H2,1H3
accession=JP007701
date=2016.01.19 (Created 2008.10.21, modified 2011.05.06)
author=KYOTO INSTITUTE OF TECHNOLOGY
license=CC BY-NC-SA
exact mass=116.12012
ionization energy=70 eV
ion type=[M]+*
computed spectral entropy=2.2471534996821605
computed normalized entropy=0.6372444008477436
SPLASH=splash10-052f-9000000000-89db7fcf8c9317d5c811
submitter=submitter = University of Tokyo Team (Faculty of Engineering, University of Tokyo)
MoNA Rating=3.75

>  <NUM PEAKS>  (3159) 
34

>  <MASS SPECTRAL PEAKS>  (3159) 
40 6
41 99.99
42 59.9
43 8.13
44 7.7
45 6.4
51 1.2
53 0.38
54 5.4
55 64.6
56 76.6
57 2.27
58 1.3
59 0.5
65 0.4
67 0.2
68 9.3
69 35.4
70 63.3
71 0.47
72 0.3
73 1.6
77 0.3
79 0.04
81 0.7
82 0.3
83 4.7
84 0.05
85 0.6
86 0.3
87 0.2
97 0.05
98 1.2
99 0.3

$$$$

     RDKit          2D

  7  6  0  0  0  0  0  0  0  0999 V2000
    1.9486    3.3750    0.0000 C   0  0  0  0  0  0  0  0  0  0  0  0
    0.6495    4.1250    0.0000 C   0  0  0  0  0  0  0  0  0  0  0  0
   -0.6495    3.3750    0.0000 C   0  0  0  0  0  0  0  0  0  0  0  0
   -1.9486    4.1250    0.0000 C   0  0  0  0  0  0  0  0  0  0  0  0
   -3.2476    3.3750    0.0000 C   0  0  0  0  0  0  0  0  0  0  0  0
   -4.5466    4.1250    0.0000 C   0  0  0  0  0  0  0  0  0  0  0  0
   -5.8457    3.3750    0.0000 O   0  0  0  0  0  0  0  0  0  0  0  0
  2  1  1  0
  3  2  1  0
  4  3  1  0
  5  4  1  0
  6  5  1  0
  7  6  1  0
M  END
>  <NAME>  (3160) 
1-HEXANOL

>  <SYNONYMS>  (3160) 


>  <SPECTRUM TYPE>  (3160) 
MS1

>  <INSTRUMENT TYPE>  (3160) 
EI-B

>  <INSTRUMENT>  (3160) 
SHIMADZU QP-1000

>  <ION MODE>  (3160) 
P

>  <INCHIKEY>  (3160) 
ZSIAUFGUXNUGDI-UHFFFAOYSA-N

>  <FORMULA>  (3160) 
C6H14O

>  <EXACT MASS>  (3160) 
102.104465068

>  <MW>  (3160) 
102

>  <ID>  (3160) 
JP007700

>  <CONTRIBUTOR>  (3160) 
University of Tokyo Team, {Faculty of Engineering, University of Tokyo

>  <COMMENT>  (3160) 
SMILES=CCCCCCO
cas=111-27-3
InChI=InChI=1S/C6H14O/c1-2-3-4-5-6-7/h7H,2-6H2,1H3
computed SMILES=OCCCCCC
accession=JP007700
date=2016.01.19 (Created 2008.10.21, modified 2011.05.06)
author=KYOTO INSTITUTE OF TECHNOLOGY
license=CC BY-NC-SA
exact mass=102.10447
ionization energy=70 eV
ion type=[M]+*
computed spectral entropy=1.9971528229343902
computed normalized entropy=0.6059622803344682
SPLASH=splash10-0a4l-9000000000-65cf94afbc05ce616b62
submitter=submitter = University of Tokyo Team (Faculty of Engineering, University of Tokyo)
MoNA Rating=3.75

>  <NUM PEAKS>  (3160) 
27

>  <MASS SPECTRAL PEAKS>  (3160) 
40 5.5
41 70.4
42 61.5
43 8.34
44 7.1
45 4.6
51 1.2
53 0.28
54 3
55 53.5
56 99.99
57 0.98
58 0.5
59 0.5
65 0.3
67 0.11
68 0.6
69 23.6
70 2.3
71 0.16
72 0.3
73 1.1
79 0.2
81 0.02
83 0.9
84 3.2
85 0.5

$$$$

     RDKit          2D

 19 18  0  0  0  0  0  0  0  0999 V2000
    5.8457   10.1250    0.0000 C   0  0  0  0  0  0  0  0  0  0  0  0
    4.5466   10.8750    0.0000 C   0  0  0  0  0  0  0  0  0  0  0  0
    3.2476   10.1250    0.0000 C   0  0  0  0  0  0  0  0  0  0  0  0
    1.9486   10.8750    0.0000 C   0  0  0  0  0  0  0  0  0  0  0  0
    0.6495   10.1250    0.0000 C   0  0  0  0  0  0  0  0  0  0  0  0
   -0.6495   10.8750    0.0000 C   0  0  0  0  0  0  0  0  0  0  0  0
   -1.9486   10.1250    0.0000 C   0  0  0  0  0  0  0  0  0  0  0  0
   -3.2476   10.8750    0.0000 C   0  0  0  0  0  0  0  0  0  0  0  0
   -4.5466   10.1250    0.0000 C   0  0  0  0  0  0  0  0  0  0  0  0
   -5.8457   10.8750    0.0000 C   0  0  0  0  0  0  0  0  0  0  0  0
   -7.1447   10.1250    0.0000 C   0  0  0  0  0  0  0  0  0  0  0  0
   -8.4437   10.8750    0.0000 C   0  0  0  0  0  0  0  0  0  0  0  0
   -9.7428   10.1250    0.0000 C   0  0  0  0  0  0  0  0  0  0  0  0
  -11.0418   10.8750    0.0000 C   0  0  0  0  0  0  0  0  0  0  0  0
  -12.3409   10.1250    0.0000 C   0  0  0  0  0  0  0  0  0  0  0  0
  -13.6399   10.8750    0.0000 C   0  0  0  0  0  0  0  0  0  0  0  0
  -14.9389   10.1250    0.0000 C   0  0  0  0  0  0  0  0  0  0  0  0
  -16.2380   10.8750    0.0000 C   0  0  0  0  0  0  0  0  0  0  0  0
  -17.5370   10.1250    0.0000 Br  0  0  0  0  0  0  0  0  0  0  0  0
  2  1  1  0
  3  2  1  0
  4  3  1  0
  5  4  1  0
  6  5  1  0
  7  6  1  0
  8  7  1  0
  9  8  1  0
 10  9  1  0
 11 10  1  0
 12 11  1  0
 13 12  1  0
 14 13  1  0
 15 14  1  0
 16 15  1  0
 17 16  1  0
 18 17  1  0
 19 18  1  0
M  END
>  <NAME>  (3161) 
OCTADECYL BROMIDE

>  <SYNONYMS>  (3161) 


>  <SPECTRUM TYPE>  (3161) 
MS1

>  <INSTRUMENT TYPE>  (3161) 
EI-B

>  <INSTRUMENT>  (3161) 
SHIMADZU QP-1000

>  <ION MODE>  (3161) 
P

>  <INCHIKEY>  (3161) 
WSULSMOGMLRGKU-UHFFFAOYSA-N

>  <FORMULA>  (3161) 
C18H37Br

>  <EXACT MASS>  (3161) 
332.207863284

>  <MW>  (3161) 
332

>  <ID>  (3161) 
JP007699

>  <CONTRIBUTOR>  (3161) 
University of Tokyo Team, {Faculty of Engineering, University of Tokyo

>  <COMMENT>  (3161) 
SMILES=CCCCCCCCCCCCCCCCCCBr
cas=112-89-0
InChI=InChI=1S/C18H37Br/c1-2-3-4-5-6-7-8-9-10-11-12-13-14-15-16-17-18-19/h2-18H2,1H3
computed SMILES=BrCCCCCCCCCCCCCCCCCC
accession=JP007699
date=2016.01.19 (Created 2008.10.21, modified 2011.05.06)
author=KYOTO INSTITUTE OF TECHNOLOGY
license=CC BY-NC-SA
exact mass=332.20786
ionization energy=70 eV
ion type=[M]+*
computed spectral entropy=2.5516262768298197
computed normalized entropy=0.6182561648769626
SPLASH=splash10-052f-9000000000-141e4e4cb3309fe9e939
submitter=submitter = University of Tokyo Team (Faculty of Engineering, University of Tokyo)
MoNA Rating=3.75

>  <NUM PEAKS>  (3161) 
62

>  <MASS SPECTRAL PEAKS>  (3161) 
40 2.1
41 66
42 15
43 99.99
44 3.6
53 2.5
54 3.5
55 4.55
56 14.1
57 81.6
58 3.6
67 0.32
68 2.2
69 23.7
70 7.2
71 3.61
72 2
81 1.3
82 1.9
83 1.13
84 3.2
85 19
86 1.3
97 0.67
98 1.6
99 4.5
107 0.7
109 0.08
111 2.2
112 0.8
113 2.3
121 0.04
123 0.4
125 0.6
126 0.4
127 0.13
134 1.4
135 16.8
136 1.6
137 1.62
138 0.8
141 0.9
148 0.4
149 0.3
150 0.5
151 3
155 0.5
162 0.02
163 0.5
164 0.2
165 0.6
169 0.05
177 0.3
179 0.2
191 0.2
193 0.02
197 0.2
205 0.1
207 0.1
219 0.01
221 0.1
253 0.1

$$$$

     RDKit          2D

 17 16  0  0  0  0  0  0  0  0999 V2000
  -15.5885    9.0000    0.0000 C   0  0  0  0  0  0  0  0  0  0  0  0
  -14.2894    8.2500    0.0000 C   0  0  0  0  0  0  0  0  0  0  0  0
  -12.9904    9.0000    0.0000 C   0  0  0  0  0  0  0  0  0  0  0  0
  -11.6913    8.2500    0.0000 C   0  0  0  0  0  0  0  0  0  0  0  0
  -10.3923    9.0000    0.0000 C   0  0  0  0  0  0  0  0  0  0  0  0
   -9.0933    8.2500    0.0000 C   0  0  0  0  0  0  0  0  0  0  0  0
   -7.7942    9.0000    0.0000 C   0  0  0  0  0  0  0  0  0  0  0  0
   -6.4952    8.2500    0.0000 C   0  0  0  0  0  0  0  0  0  0  0  0
   -5.1962    9.0000    0.0000 C   0  0  0  0  0  0  0  0  0  0  0  0
   -3.8971    8.2500    0.0000 C   0  0  0  0  0  0  0  0  0  0  0  0
   -2.5981    9.0000    0.0000 C   0  0  0  0  0  0  0  0  0  0  0  0
   -1.2990    8.2500    0.0000 C   0  0  0  0  0  0  0  0  0  0  0  0
    0.0000    9.0000    0.0000 C   0  0  0  0  0  0  0  0  0  0  0  0
    1.2990    8.2500    0.0000 C   0  0  0  0  0  0  0  0  0  0  0  0
    2.5981    9.0000    0.0000 C   0  0  0  0  0  0  0  0  0  0  0  0
    3.8971    8.2500    0.0000 C   0  0  0  0  0  0  0  0  0  0  0  0
    5.1962    9.0000    0.0000 Br  0  0  0  0  0  0  0  0  0  0  0  0
  2  1  1  0
  3  2  1  0
  4  3  1  0
  5  4  1  0
  6  5  1  0
  7  6  1  0
  8  7  1  0
  9  8  1  0
 10  9  1  0
 11 10  1  0
 12 11  1  0
 13 12  1  0
 14 13  1  0
 15 14  1  0
 16 15  1  0
 17 16  1  0
M  END
>  <NAME>  (3162) 
HEXADECYL BROMIDE

>  <SYNONYMS>  (3162) 


>  <SPECTRUM TYPE>  (3162) 
MS1

>  <INSTRUMENT TYPE>  (3162) 
EI-B

>  <INSTRUMENT>  (3162) 
SHIMADZU QP-1000

>  <ION MODE>  (3162) 
P

>  <INCHIKEY>  (3162) 
HNTGIJLWHDPAFN-UHFFFAOYSA-N

>  <FORMULA>  (3162) 
C16H33Br

>  <EXACT MASS>  (3162) 
304.176563156

>  <MW>  (3162) 
304

>  <ID>  (3162) 
JP007698

>  <CONTRIBUTOR>  (3162) 
University of Tokyo Team, {Faculty of Engineering, University of Tokyo

>  <COMMENT>  (3162) 
SMILES=CCCCCCCCCCCCCCCCBr
cas=112-82-3
InChI=InChI=1S/C16H33Br/c1-2-3-4-5-6-7-8-9-10-11-12-13-14-15-16-17/h2-16H2,1H3
computed SMILES=BrCCCCCCCCCCCCCCCC
accession=JP007698
date=2016.01.19 (Created 2008.10.21, modified 2011.05.06)
author=KYOTO INSTITUTE OF TECHNOLOGY
license=CC BY-NC-SA
exact mass=304.17656
ionization energy=70 eV
ion type=[M]+*
computed spectral entropy=2.558933870181097
computed normalized entropy=0.6249923110507097
SPLASH=splash10-052f-9100000000-1403cf804a3cee79e60f
submitter=submitter = University of Tokyo Team (Faculty of Engineering, University of Tokyo)
MoNA Rating=3.75

>  <NUM PEAKS>  (3162) 
60

>  <MASS SPECTRAL PEAKS>  (3162) 
40 2.4
41 70.5
42 15.8
43 99.99
44 3.8
53 3
54 3.6
55 4.75
56 14.4
57 79
58 3.4
67 0.32
68 2.1
69 25.2
70 7.7
71 3.51
72 2
81 1.3
82 1.8
83 1.14
84 3.1
85 17.6
86 1.2
97 0.62
98 1.5
99 3.7
107 0.9
109 0.09
111 1.8
112 0.6
113 1.9
121 0.04
123 0.5
125 0.4
126 0.3
127 0.1
134 1.6
135 21.1
136 1.8
137 2.08
138 0.9
141 0.8
148 0.5
149 0.56
150 0.8
151 3.6
155 0.5
162 0.02
163 0.6
164 0.2
165 0.5
169 0.03
177 0.2
179 0.2
191 0.1
193 0.01
205 0.1
207 0.1
223 0.1
225 0.2

$$$$

     RDKit          2D

 16 15  0  0  0  0  0  0  0  0999 V2000
    5.1962    8.2500    0.0000 C   0  0  0  0  0  0  0  0  0  0  0  0
    3.8971    9.0000    0.0000 C   0  0  0  0  0  0  0  0  0  0  0  0
    2.5981    8.2500    0.0000 C   0  0  0  0  0  0  0  0  0  0  0  0
    1.2990    9.0000    0.0000 C   0  0  0  0  0  0  0  0  0  0  0  0
    0.0000    8.2500    0.0000 C   0  0  0  0  0  0  0  0  0  0  0  0
   -1.2990    9.0000    0.0000 C   0  0  0  0  0  0  0  0  0  0  0  0
   -2.5981    8.2500    0.0000 C   0  0  0  0  0  0  0  0  0  0  0  0
   -3.8971    9.0000    0.0000 C   0  0  0  0  0  0  0  0  0  0  0  0
   -5.1962    8.2500    0.0000 C   0  0  0  0  0  0  0  0  0  0  0  0
   -6.4952    9.0000    0.0000 C   0  0  0  0  0  0  0  0  0  0  0  0
   -7.7942    8.2500    0.0000 C   0  0  0  0  0  0  0  0  0  0  0  0
   -9.0933    9.0000    0.0000 C   0  0  0  0  0  0  0  0  0  0  0  0
  -10.3923    8.2500    0.0000 C   0  0  0  0  0  0  0  0  0  0  0  0
  -11.6913    9.0000    0.0000 C   0  0  0  0  0  0  0  0  0  0  0  0
  -12.9904    8.2500    0.0000 C   0  0  0  0  0  0  0  0  0  0  0  0
  -14.2894    9.0000    0.0000 Br  0  0  0  0  0  0  0  0  0  0  0  0
  2  1  1  0
  3  2  1  0
  4  3  1  0
  5  4  1  0
  6  5  1  0
  7  6  1  0
  8  7  1  0
  9  8  1  0
 10  9  1  0
 11 10  1  0
 12 11  1  0
 13 12  1  0
 14 13  1  0
 15 14  1  0
 16 15  1  0
M  END
>  <NAME>  (3163) 
PENTADECYL BROMIDE

>  <SYNONYMS>  (3163) 


>  <SPECTRUM TYPE>  (3163) 
MS1

>  <INSTRUMENT TYPE>  (3163) 
EI-B

>  <INSTRUMENT>  (3163) 
SHIMADZU QP-1000

>  <ION MODE>  (3163) 
P

>  <INCHIKEY>  (3163) 
JKOTZBXSNOGCIF-UHFFFAOYSA-N

>  <FORMULA>  (3163) 
C15H31Br

>  <EXACT MASS>  (3163) 
290.160913092

>  <MW>  (3163) 
290

>  <ID>  (3163) 
JP007697

>  <CONTRIBUTOR>  (3163) 
University of Tokyo Team, {Faculty of Engineering, University of Tokyo

>  <COMMENT>  (3163) 
SMILES=CCCCCCCCCCCCCCCBr
cas=629-72-1
InChI=InChI=1S/C15H31Br/c1-2-3-4-5-6-7-8-9-10-11-12-13-14-15-16/h2-15H2,1H3
computed SMILES=BrCCCCCCCCCCCCCCC
accession=JP007697
date=2016.01.19 (Created 2008.10.21, modified 2011.05.06)
author=KYOTO INSTITUTE OF TECHNOLOGY
license=CC BY-NC-SA
exact mass=290.16091
ionization energy=70 eV
ion type=[M]+*
computed spectral entropy=2.614774242360438
computed normalized entropy=0.6467328928433068
SPLASH=splash10-0006-9100000000-0b21f93176fe5e9e9a8a
submitter=submitter = University of Tokyo Team (Faculty of Engineering, University of Tokyo)
MoNA Rating=3.75

>  <NUM PEAKS>  (3163) 
57

>  <MASS SPECTRAL PEAKS>  (3163) 
40 2.7
41 73.7
42 16.9
43 99.99
44 4.2
53 3.4
54 3.7
55 4.93
56 15.1
57 77.7
58 3.4
67 0.36
68 2.3
69 26.5
70 7.7
71 3.33
72 1.8
81 1.5
82 1.8
83 1.21
84 3.2
85 16.9
86 1.1
97 0.67
98 1.5
99 3.3
107 1
109 0.11
111 1.8
112 0.6
113 1.6
121 0.05
123 0.6
125 0.4
126 0.3
127 0.1
135 24
136 2
137 24.1
138 0.11
141 0.7
148 0.4
149 4.4
150 0.06
151 4.2
152 0.2
155 0.4
162 0.02
163 0.6
164 0.2
165 0.6
169 0.02
177 0.2
179 0.2
191 0.1
193 0.01
211 0.1

$$$$

     RDKit          2D

 15 14  0  0  0  0  0  0  0  0999 V2000
    4.5466    7.8750    0.0000 C   0  0  0  0  0  0  0  0  0  0  0  0
    3.2476    8.6250    0.0000 C   0  0  0  0  0  0  0  0  0  0  0  0
    1.9486    7.8750    0.0000 C   0  0  0  0  0  0  0  0  0  0  0  0
    0.6495    8.6250    0.0000 C   0  0  0  0  0  0  0  0  0  0  0  0
   -0.6495    7.8750    0.0000 C   0  0  0  0  0  0  0  0  0  0  0  0
   -1.9486    8.6250    0.0000 C   0  0  0  0  0  0  0  0  0  0  0  0
   -3.2476    7.8750    0.0000 C   0  0  0  0  0  0  0  0  0  0  0  0
   -4.5466    8.6250    0.0000 C   0  0  0  0  0  0  0  0  0  0  0  0
   -5.8457    7.8750    0.0000 C   0  0  0  0  0  0  0  0  0  0  0  0
   -7.1447    8.6250    0.0000 C   0  0  0  0  0  0  0  0  0  0  0  0
   -8.4437    7.8750    0.0000 C   0  0  0  0  0  0  0  0  0  0  0  0
   -9.7428    8.6250    0.0000 C   0  0  0  0  0  0  0  0  0  0  0  0
  -11.0418    7.8750    0.0000 C   0  0  0  0  0  0  0  0  0  0  0  0
  -12.3409    8.6250    0.0000 C   0  0  0  0  0  0  0  0  0  0  0  0
  -13.6399    7.8750    0.0000 Br  0  0  0  0  0  0  0  0  0  0  0  0
  2  1  1  0
  3  2  1  0
  4  3  1  0
  5  4  1  0
  6  5  1  0
  7  6  1  0
  8  7  1  0
  9  8  1  0
 10  9  1  0
 11 10  1  0
 12 11  1  0
 13 12  1  0
 14 13  1  0
 15 14  1  0
M  END
>  <NAME>  (3164) 
TETRADECYL BROMIDE

>  <SYNONYMS>  (3164) 


>  <SPECTRUM TYPE>  (3164) 
MS1

>  <INSTRUMENT TYPE>  (3164) 
EI-B

>  <INSTRUMENT>  (3164) 
SHIMADZU QP-1000

>  <ION MODE>  (3164) 
P

>  <INCHIKEY>  (3164) 
KOFZTCSTGIWCQG-UHFFFAOYSA-N

>  <FORMULA>  (3164) 
C14H29Br

>  <EXACT MASS>  (3164) 
276.14526302800004

>  <MW>  (3164) 
276

>  <ID>  (3164) 
JP007696

>  <CONTRIBUTOR>  (3164) 
University of Tokyo Team, {Faculty of Engineering, University of Tokyo

>  <COMMENT>  (3164) 
SMILES=CCCCCCCCCCCCCCBr
cas=112-71-0
InChI=InChI=1S/C14H29Br/c1-2-3-4-5-6-7-8-9-10-11-12-13-14-15/h2-14H2,1H3
computed SMILES=BrCCCCCCCCCCCCCC
accession=JP007696
date=2016.01.19 (Created 2008.10.21, modified 2011.05.06)
author=KYOTO INSTITUTE OF TECHNOLOGY
license=CC BY-NC-SA
exact mass=276.14526
ionization energy=70 eV
ion type=[M]+*
computed spectral entropy=2.5631652841305046
computed normalized entropy=0.6455861029717848
SPLASH=splash10-0006-9100000000-ca135eeb6d9ae9b4b1b0
submitter=submitter = University of Tokyo Team (Faculty of Engineering, University of Tokyo)
MoNA Rating=3.75

>  <NUM PEAKS>  (3164) 
53

>  <MASS SPECTRAL PEAKS>  (3164) 
40 2.9
41 75.5
42 17.3
43 99.99
44 3.9
53 3.6
54 3.4
55 4.95
56 14.9
57 76.9
58 3.4
67 0.31
68 2
69 26.2
70 7.1
71 3.05
72 1.7
81 1.1
82 1.5
83 1.02
84 2.8
85 15.1
86 1
97 0.51
98 1.2
99 2.7
107 1
109 0.1
111 1.2
112 0.5
113 1.2
121 0.05
123 0.5
125 0.3
127 0.9
134 0.19
135 24.6
136 2
137 24
138 0.11
141 0.5
148 0.4
149 4
150 0.06
151 4.1
152 0.2
155 0.2
163 0.05
164 0.2
165 0.4
177 0.1
179 0.01
191 0.1

$$$$

     RDKit          2D

 14 13  0  0  0  0  0  0  0  0999 V2000
    4.5466    7.1250    0.0000 C   0  0  0  0  0  0  0  0  0  0  0  0
    3.2476    7.8750    0.0000 C   0  0  0  0  0  0  0  0  0  0  0  0
    1.9486    7.1250    0.0000 C   0  0  0  0  0  0  0  0  0  0  0  0
    0.6495    7.8750    0.0000 C   0  0  0  0  0  0  0  0  0  0  0  0
   -0.6495    7.1250    0.0000 C   0  0  0  0  0  0  0  0  0  0  0  0
   -1.9486    7.8750    0.0000 C   0  0  0  0  0  0  0  0  0  0  0  0
   -3.2476    7.1250    0.0000 C   0  0  0  0  0  0  0  0  0  0  0  0
   -4.5466    7.8750    0.0000 C   0  0  0  0  0  0  0  0  0  0  0  0
   -5.8457    7.1250    0.0000 C   0  0  0  0  0  0  0  0  0  0  0  0
   -7.1447    7.8750    0.0000 C   0  0  0  0  0  0  0  0  0  0  0  0
   -8.4437    7.1250    0.0000 C   0  0  0  0  0  0  0  0  0  0  0  0
   -9.7428    7.8750    0.0000 C   0  0  0  0  0  0  0  0  0  0  0  0
  -11.0418    7.1250    0.0000 C   0  0  0  0  0  0  0  0  0  0  0  0
  -12.3409    7.8750    0.0000 Br  0  0  0  0  0  0  0  0  0  0  0  0
  2  1  1  0
  3  2  1  0
  4  3  1  0
  5  4  1  0
  6  5  1  0
  7  6  1  0
  8  7  1  0
  9  8  1  0
 10  9  1  0
 11 10  1  0
 12 11  1  0
 13 12  1  0
 14 13  1  0
M  END
>  <NAME>  (3165) 
TRIDECYL BROMIDE

>  <SYNONYMS>  (3165) 


>  <SPECTRUM TYPE>  (3165) 
MS1

>  <INSTRUMENT TYPE>  (3165) 
EI-B

>  <INSTRUMENT>  (3165) 
SHIMADZU QP-1000

>  <ION MODE>  (3165) 
P

>  <INCHIKEY>  (3165) 
BFDNZQUBFCYTIC-UHFFFAOYSA-N

>  <FORMULA>  (3165) 
C13H27Br

>  <EXACT MASS>  (3165) 
262.129612964

>  <MW>  (3165) 
262

>  <ID>  (3165) 
JP007695

>  <CONTRIBUTOR>  (3165) 
University of Tokyo Team, {Faculty of Engineering, University of Tokyo

>  <COMMENT>  (3165) 
SMILES=CCCCCCCCCCCCCBr
cas=765-09-3
InChI=InChI=1S/C13H27Br/c1-2-3-4-5-6-7-8-9-10-11-12-13-14/h2-13H2,1H3
computed SMILES=BrCCCCCCCCCCCCC
accession=JP007695
date=2016.01.19 (Created 2008.10.21, modified 2011.05.06)
author=KYOTO INSTITUTE OF TECHNOLOGY
license=CC BY-NC-SA
exact mass=262.12961
ionization energy=70 eV
ion type=[M]+*
computed spectral entropy=2.5196596043820034
computed normalized entropy=0.6474244470139667
SPLASH=splash10-0006-9100000000-bd020a83b474abc6699e
submitter=submitter = University of Tokyo Team (Faculty of Engineering, University of Tokyo)
MoNA Rating=3.75

>  <NUM PEAKS>  (3165) 
49

>  <MASS SPECTRAL PEAKS>  (3165) 
40 3.2
41 80.1
42 17.8
43 99.99
44 3.8
53 3.8
54 3.5
55 5.08
56 14.4
57 71.7
58 3.2
67 0.33
68 2.1
69 27.7
70 7.3
71 2.98
72 1.6
81 1.1
82 1.5
83 1.04
84 2.8
85 15.3
86 1
97 0.51
98 1.2
99 2.7
107 1.3
109 0.13
111 1.2
113 1.5
121 0.6
123 0.05
125 0.2
127 0.8
134 2.2
135 2.74
136 2.5
137 27
138 1.2
141 0.03
148 0.4
149 4.4
150 0.5
151 0.44
152 0.3
163 0.4
165 0.4
177 0.01
179 0.1

$$$$

     RDKit          2D

 13 12  0  0  0  0  0  0  0  0999 V2000
    3.8971    6.7500    0.0000 C   0  0  0  0  0  0  0  0  0  0  0  0
    2.5981    7.5000    0.0000 C   0  0  0  0  0  0  0  0  0  0  0  0
    1.2990    6.7500    0.0000 C   0  0  0  0  0  0  0  0  0  0  0  0
    0.0000    7.5000    0.0000 C   0  0  0  0  0  0  0  0  0  0  0  0
   -1.2990    6.7500    0.0000 C   0  0  0  0  0  0  0  0  0  0  0  0
   -2.5981    7.5000    0.0000 C   0  0  0  0  0  0  0  0  0  0  0  0
   -3.8971    6.7500    0.0000 C   0  0  0  0  0  0  0  0  0  0  0  0
   -5.1962    7.5000    0.0000 C   0  0  0  0  0  0  0  0  0  0  0  0
   -6.4952    6.7500    0.0000 C   0  0  0  0  0  0  0  0  0  0  0  0
   -7.7942    7.5000    0.0000 C   0  0  0  0  0  0  0  0  0  0  0  0
   -9.0933    6.7500    0.0000 C   0  0  0  0  0  0  0  0  0  0  0  0
  -10.3923    7.5000    0.0000 C   0  0  0  0  0  0  0  0  0  0  0  0
  -11.6913    6.7500    0.0000 Br  0  0  0  0  0  0  0  0  0  0  0  0
  2  1  1  0
  3  2  1  0
  4  3  1  0
  5  4  1  0
  6  5  1  0
  7  6  1  0
  8  7  1  0
  9  8  1  0
 10  9  1  0
 11 10  1  0
 12 11  1  0
 13 12  1  0
M  END
>  <NAME>  (3166) 
DODECYL BROMIDE

>  <SYNONYMS>  (3166) 


>  <SPECTRUM TYPE>  (3166) 
MS1

>  <INSTRUMENT TYPE>  (3166) 
EI-B

>  <INSTRUMENT>  (3166) 
SHIMADZU QP-1000

>  <ION MODE>  (3166) 
P

>  <INCHIKEY>  (3166) 
PBLNBZIONSLZBU-UHFFFAOYSA-N

>  <FORMULA>  (3166) 
C12H25Br

>  <EXACT MASS>  (3166) 
248.1139629

>  <MW>  (3166) 
248

>  <ID>  (3166) 
JP007694

>  <CONTRIBUTOR>  (3166) 
University of Tokyo Team, {Faculty of Engineering, University of Tokyo

>  <COMMENT>  (3166) 
SMILES=CCCCCCCCCCCCBr
cas=143-15-7
InChI=InChI=1S/C12H25Br/c1-2-3-4-5-6-7-8-9-10-11-12-13/h2-12H2,1H3
computed SMILES=BrCCCCCCCCCCCC
accession=JP007694
date=2016.01.19 (Created 2008.10.21, modified 2011.05.06)
author=KYOTO INSTITUTE OF TECHNOLOGY
license=CC BY-NC-SA
exact mass=248.11396
ionization energy=70 eV
ion type=[M]+*
computed spectral entropy=2.453949266789999
computed normalized entropy=0.640945184639203
SPLASH=splash10-0006-9100000000-16c52113c66b918ba9f1
submitter=submitter = University of Tokyo Team (Faculty of Engineering, University of Tokyo)
MoNA Rating=3.75

>  <NUM PEAKS>  (3166) 
46

>  <MASS SPECTRAL PEAKS>  (3166) 
40 3.4
41 76.9
42 17.9
43 99.99
44 3.6
53 3.8
54 3.4
55 5.18
56 14.6
57 68.3
58 3
67 0.29
68 1.7
69 24.3
70 6.5
71 2.63
72 1.4
81 0.8
82 1.1
83 0.89
84 2.4
85 12
86 0.8
97 0.33
98 0.8
99 2.5
107 1.2
109 0.11
111 0.7
112 0.3
113 1.2
121 0.05
123 0.5
127 0.5
134 0.4
135 2.54
136 3.7
137 22.5
138 1
149 0.35
150 0.7
151 3.8
152 0.2
163 0.04
164 0.1
165 0.3

$$$$

     RDKit          2D

 20 19  0  0  0  0  0  0  0  0999 V2000
    6.4952   10.5000    0.0000 C   0  0  0  0  0  0  0  0  0  0  0  0
  -18.1865   11.2500    0.0000 C   0  0  0  0  0  0  0  0  0  0  0  0
    5.1962   11.2500    0.0000 C   0  0  0  0  0  0  0  0  0  0  0  0
  -16.8875   10.5000    0.0000 C   0  0  0  0  0  0  0  0  0  0  0  0
    3.8971   10.5000    0.0000 C   0  0  0  0  0  0  0  0  0  0  0  0
  -15.5885   11.2500    0.0000 C   0  0  0  0  0  0  0  0  0  0  0  0
    2.5981   11.2500    0.0000 C   0  0  0  0  0  0  0  0  0  0  0  0
  -14.2894   10.5000    0.0000 C   0  0  0  0  0  0  0  0  0  0  0  0
    1.2990   10.5000    0.0000 C   0  0  0  0  0  0  0  0  0  0  0  0
  -12.9904   11.2500    0.0000 C   0  0  0  0  0  0  0  0  0  0  0  0
    0.0000   11.2500    0.0000 C   0  0  0  0  0  0  0  0  0  0  0  0
  -11.6913   10.5000    0.0000 C   0  0  0  0  0  0  0  0  0  0  0  0
   -1.2990   10.5000    0.0000 C   0  0  0  0  0  0  0  0  0  0  0  0
  -10.3923   11.2500    0.0000 C   0  0  0  0  0  0  0  0  0  0  0  0
   -2.5981   11.2500    0.0000 C   0  0  0  0  0  0  0  0  0  0  0  0
   -9.0933   10.5000    0.0000 C   0  0  0  0  0  0  0  0  0  0  0  0
   -3.8971   10.5000    0.0000 C   0  0  0  0  0  0  0  0  0  0  0  0
   -7.7942   11.2500    0.0000 C   0  0  0  0  0  0  0  0  0  0  0  0
   -5.1962   11.2500    0.0000 C   0  0  0  0  0  0  0  0  0  0  0  0
   -6.4952   10.5000    0.0000 C   0  0  0  0  0  0  0  0  0  0  0  0
  3  1  1  0
  4  2  1  0
  5  3  1  0
  6  4  1  0
  7  5  1  0
  8  6  1  0
  9  7  1  0
 10  8  1  0
 11  9  1  0
 12 10  1  0
 13 11  1  0
 14 12  1  0
 15 13  1  0
 16 14  1  0
 17 15  1  0
 18 16  1  0
 19 17  1  0
 20 18  1  0
 20 19  1  0
M  END
>  <NAME>  (3167) 
EICOSANE

>  <SYNONYMS>  (3167) 


>  <SPECTRUM TYPE>  (3167) 
MS1

>  <INSTRUMENT TYPE>  (3167) 
EI-B

>  <INSTRUMENT>  (3167) 
SHIMADZU QP-1000

>  <ION MODE>  (3167) 
P

>  <INCHIKEY>  (3167) 
CBFCDTFDPHXCNY-UHFFFAOYSA-N

>  <FORMULA>  (3167) 
C20H42

>  <EXACT MASS>  (3167) 
282.328651344

>  <MW>  (3167) 
282

>  <ID>  (3167) 
JP007693

>  <CONTRIBUTOR>  (3167) 
University of Tokyo Team, {Faculty of Engineering, University of Tokyo

>  <COMMENT>  (3167) 
SMILES=CCCCCCCCCCCCCCCCCCCC
cas=112-95-8
InChI=InChI=1S/C20H42/c1-3-5-7-9-11-13-15-17-19-20-18-16-14-12-10-8-6-4-2/h3-20H2,1-2H3
computed SMILES=CCCCCCCCCCCCCCCCCCCC
accession=JP007693
date=2016.01.19 (Created 2008.10.21, modified 2011.05.06)
author=KYOTO INSTITUTE OF TECHNOLOGY
license=CC BY-NC-SA
exact mass=282.32865
ionization energy=70 eV
ion type=[M]+*
computed spectral entropy=2.6020132372449956
computed normalized entropy=0.6585301800059978
SPLASH=splash10-0a4l-9000000000-1fd25ca00429cf4bd43d
submitter=submitter = University of Tokyo Team (Faculty of Engineering, University of Tokyo)
MoNA Rating=3.75

>  <NUM PEAKS>  (3167) 
52

>  <MASS SPECTRAL PEAKS>  (3167) 
40 1.6
41 59.6
42 15
43 9.89
44 4.4
53 1.8
54 2.7
55 2.87
56 18.5
57 99.99
58 6.1
67 0.23
68 2.1
69 12
70 11.2
71 7.37
72 3.9
82 2.1
83 6.8
84 0.59
85 41
86 2.7
96 1
97 0.45
98 3.4
99 10.8
100 1
111 0.2
112 2.2
113 5.5
125 0.8
126 0.14
127 3.2
140 0.9
141 1.9
154 0.06
155 1.2
168 0.4
169 0.8
182 0.03
183 0.5
196 0.2
197 0.4
210 0.02
211 0.3
224 0.1
225 0.3
238 0.01
239 0.1
253 0.1
282 0.3
283 0.1

$$$$

     RDKit          2D

 18 17  0  0  0  0  0  0  0  0999 V2000
  -16.2380   10.1250    0.0000 C   0  0  0  0  0  0  0  0  0  0  0  0
    5.8457    9.3750    0.0000 C   0  0  0  0  0  0  0  0  0  0  0  0
  -14.9389    9.3750    0.0000 C   0  0  0  0  0  0  0  0  0  0  0  0
    4.5466   10.1250    0.0000 C   0  0  0  0  0  0  0  0  0  0  0  0
  -13.6399   10.1250    0.0000 C   0  0  0  0  0  0  0  0  0  0  0  0
    3.2476    9.3750    0.0000 C   0  0  0  0  0  0  0  0  0  0  0  0
  -12.3409    9.3750    0.0000 C   0  0  0  0  0  0  0  0  0  0  0  0
    1.9486   10.1250    0.0000 C   0  0  0  0  0  0  0  0  0  0  0  0
  -11.0418   10.1250    0.0000 C   0  0  0  0  0  0  0  0  0  0  0  0
    0.6495    9.3750    0.0000 C   0  0  0  0  0  0  0  0  0  0  0  0
   -9.7428    9.3750    0.0000 C   0  0  0  0  0  0  0  0  0  0  0  0
   -0.6495   10.1250    0.0000 C   0  0  0  0  0  0  0  0  0  0  0  0
   -8.4437   10.1250    0.0000 C   0  0  0  0  0  0  0  0  0  0  0  0
   -1.9486    9.3750    0.0000 C   0  0  0  0  0  0  0  0  0  0  0  0
   -7.1447    9.3750    0.0000 C   0  0  0  0  0  0  0  0  0  0  0  0
   -3.2476   10.1250    0.0000 C   0  0  0  0  0  0  0  0  0  0  0  0
   -5.8457   10.1250    0.0000 C   0  0  0  0  0  0  0  0  0  0  0  0
   -4.5466    9.3750    0.0000 C   0  0  0  0  0  0  0  0  0  0  0  0
  3  1  1  0
  4  2  1  0
  5  3  1  0
  6  4  1  0
  7  5  1  0
  8  6  1  0
  9  7  1  0
 10  8  1  0
 11  9  1  0
 12 10  1  0
 13 11  1  0
 14 12  1  0
 15 13  1  0
 16 14  1  0
 17 15  1  0
 18 16  1  0
 18 17  1  0
M  END
>  <NAME>  (3168) 
OCTADECANE

>  <SYNONYMS>  (3168) 


>  <SPECTRUM TYPE>  (3168) 
MS1

>  <INSTRUMENT TYPE>  (3168) 
EI-B

>  <INSTRUMENT>  (3168) 
SHIMADZU QP-1000

>  <ION MODE>  (3168) 
P

>  <INCHIKEY>  (3168) 
RZJRJXONCZWCBN-UHFFFAOYSA-N

>  <FORMULA>  (3168) 
C18H38

>  <EXACT MASS>  (3168) 
254.29735121599998

>  <MW>  (3168) 
254

>  <ID>  (3168) 
JP007692

>  <CONTRIBUTOR>  (3168) 
University of Tokyo Team, {Faculty of Engineering, University of Tokyo

>  <COMMENT>  (3168) 
SMILES=CCCCCCCCCCCCCCCCCC
cas=593-45-3
InChI=InChI=1S/C18H38/c1-3-5-7-9-11-13-15-17-18-16-14-12-10-8-6-4-2/h3-18H2,1-2H3
computed SMILES=CCCCCCCCCCCCCCCCCC
accession=JP007692
date=2016.01.19 (Created 2008.10.21, modified 2011.05.06)
author=KYOTO INSTITUTE OF TECHNOLOGY
license=CC BY-NC-SA
exact mass=254.29735
ionization energy=70 eV
ion type=[M]+*
computed spectral entropy=2.435197526791521
computed normalized entropy=0.6360474316097149
SPLASH=splash10-0a4i-9000000000-43dac811921ac7f1d82c
submitter=submitter = University of Tokyo Team (Faculty of Engineering, University of Tokyo)
MoNA Rating=3.75

>  <NUM PEAKS>  (3168) 
46

>  <MASS SPECTRAL PEAKS>  (3168) 
40 1.8
41 44.5
42 11
43 9.39
44 3.8
53 1.5
54 2
55 2.04
56 13.7
57 99.99
58 4.3
67 0.17
68 1.5
69 8
70 8.2
71 5.26
72 3
82 1.6
83 4.7
84 0.43
85 28.8
86 2
97 3.1
98 0.26
99 7.9
111 1.4
112 1.8
113 0.4
126 1.1
127 2.5
140 0.8
141 0.14
154 0.5
155 0.9
168 0.4
169 0.06
182 0.3
183 0.4
196 0.2
197 0.03
210 0.1
211 0.2
224 0.1
225 0.01
254 0.5
255 0.1

$$$$

     RDKit          2D

 17 16  0  0  0  0  0  0  0  0999 V2000
  -15.5885    9.0000    0.0000 C   0  0  0  0  0  0  0  0  0  0  0  0
    5.1962    9.0000    0.0000 C   0  0  0  0  0  0  0  0  0  0  0  0
  -14.2894    8.2500    0.0000 C   0  0  0  0  0  0  0  0  0  0  0  0
    3.8971    8.2500    0.0000 C   0  0  0  0  0  0  0  0  0  0  0  0
  -12.9904    9.0000    0.0000 C   0  0  0  0  0  0  0  0  0  0  0  0
    2.5981    9.0000    0.0000 C   0  0  0  0  0  0  0  0  0  0  0  0
  -11.6913    8.2500    0.0000 C   0  0  0  0  0  0  0  0  0  0  0  0
    1.2990    8.2500    0.0000 C   0  0  0  0  0  0  0  0  0  0  0  0
  -10.3923    9.0000    0.0000 C   0  0  0  0  0  0  0  0  0  0  0  0
    0.0000    9.0000    0.0000 C   0  0  0  0  0  0  0  0  0  0  0  0
   -9.0933    8.2500    0.0000 C   0  0  0  0  0  0  0  0  0  0  0  0
   -1.2990    8.2500    0.0000 C   0  0  0  0  0  0  0  0  0  0  0  0
   -7.7942    9.0000    0.0000 C   0  0  0  0  0  0  0  0  0  0  0  0
   -2.5981    9.0000    0.0000 C   0  0  0  0  0  0  0  0  0  0  0  0
   -6.4952    8.2500    0.0000 C   0  0  0  0  0  0  0  0  0  0  0  0
   -3.8971    8.2500    0.0000 C   0  0  0  0  0  0  0  0  0  0  0  0
   -5.1962    9.0000    0.0000 C   0  0  0  0  0  0  0  0  0  0  0  0
  3  1  1  0
  4  2  1  0
  5  3  1  0
  6  4  1  0
  7  5  1  0
  8  6  1  0
  9  7  1  0
 10  8  1  0
 11  9  1  0
 12 10  1  0
 13 11  1  0
 14 12  1  0
 15 13  1  0
 16 14  1  0
 17 15  1  0
 17 16  1  0
M  END
>  <NAME>  (3169) 
HEPTADECANE

>  <SYNONYMS>  (3169) 


>  <SPECTRUM TYPE>  (3169) 
MS1

>  <INSTRUMENT TYPE>  (3169) 
EI-B

>  <INSTRUMENT>  (3169) 
SHIMADZU QP-1000

>  <ION MODE>  (3169) 
P

>  <INCHIKEY>  (3169) 
NDJKXXJCMXVBJW-UHFFFAOYSA-N

>  <FORMULA>  (3169) 
C17H36

>  <EXACT MASS>  (3169) 
240.28170115199998

>  <MW>  (3169) 
240

>  <ID>  (3169) 
JP007691

>  <CONTRIBUTOR>  (3169) 
University of Tokyo Team, {Faculty of Engineering, University of Tokyo

>  <COMMENT>  (3169) 
SMILES=CCCCCCCCCCCCCCCCC
cas=629-78-7
InChI=InChI=1S/C17H36/c1-3-5-7-9-11-13-15-17-16-14-12-10-8-6-4-2/h3-17H2,1-2H3
computed SMILES=CCCCCCCCCCCCCCCCC
accession=JP007691
date=2016.01.19 (Created 2008.10.21, modified 2011.05.06)
author=KYOTO INSTITUTE OF TECHNOLOGY
license=CC BY-NC-SA
exact mass=240.2817
ionization energy=70 eV
ion type=[M]+*
computed spectral entropy=2.415156748547507
computed normalized entropy=0.6421239695463942
SPLASH=splash10-0a4i-9000000000-415b614e80029b0ad229
submitter=submitter = University of Tokyo Team (Faculty of Engineering, University of Tokyo)
MoNA Rating=3.75

>  <NUM PEAKS>  (3169) 
43

>  <MASS SPECTRAL PEAKS>  (3169) 
40 2.4
41 44.8
42 11.5
43 9.68
44 4.1
53 1.5
54 1.9
55 1.96
56 14
57 99.99
58 4.4
67 0.15
68 1.3
69 7.6
70 8.5
71 5.25
72 2.8
82 1.3
83 4.1
84 0.43
85 28.8
86 2
97 2.6
98 0.26
99 7.4
111 1.2
112 1.7
113 0.37
126 1.2
127 2.1
140 0.8
141 0.13
154 0.5
155 0.8
168 0.4
169 0.07
182 0.3
183 0.5
196 0.1
197 0.03
211 0.1
240 0.7
241 0.1

$$$$

     RDKit          2D

 16 15  0  0  0  0  0  0  0  0999 V2000
    5.1962    8.2500    0.0000 C   0  0  0  0  0  0  0  0  0  0  0  0
  -14.2894    9.0000    0.0000 C   0  0  0  0  0  0  0  0  0  0  0  0
    3.8971    9.0000    0.0000 C   0  0  0  0  0  0  0  0  0  0  0  0
  -12.9904    8.2500    0.0000 C   0  0  0  0  0  0  0  0  0  0  0  0
    2.5981    8.2500    0.0000 C   0  0  0  0  0  0  0  0  0  0  0  0
  -11.6913    9.0000    0.0000 C   0  0  0  0  0  0  0  0  0  0  0  0
    1.2990    9.0000    0.0000 C   0  0  0  0  0  0  0  0  0  0  0  0
  -10.3923    8.2500    0.0000 C   0  0  0  0  0  0  0  0  0  0  0  0
    0.0000    8.2500    0.0000 C   0  0  0  0  0  0  0  0  0  0  0  0
   -9.0933    9.0000    0.0000 C   0  0  0  0  0  0  0  0  0  0  0  0
   -1.2990    9.0000    0.0000 C   0  0  0  0  0  0  0  0  0  0  0  0
   -7.7942    8.2500    0.0000 C   0  0  0  0  0  0  0  0  0  0  0  0
   -2.5981    8.2500    0.0000 C   0  0  0  0  0  0  0  0  0  0  0  0
   -6.4952    9.0000    0.0000 C   0  0  0  0  0  0  0  0  0  0  0  0
   -3.8971    9.0000    0.0000 C   0  0  0  0  0  0  0  0  0  0  0  0
   -5.1962    8.2500    0.0000 C   0  0  0  0  0  0  0  0  0  0  0  0
  3  1  1  0
  4  2  1  0
  5  3  1  0
  6  4  1  0
  7  5  1  0
  8  6  1  0
  9  7  1  0
 10  8  1  0
 11  9  1  0
 12 10  1  0
 13 11  1  0
 14 12  1  0
 15 13  1  0
 16 14  1  0
 16 15  1  0
M  END
>  <NAME>  (3170) 
HEXADECANE

>  <SYNONYMS>  (3170) 


>  <SPECTRUM TYPE>  (3170) 
MS1

>  <INSTRUMENT TYPE>  (3170) 
EI-B

>  <INSTRUMENT>  (3170) 
SHIMADZU QP-1000

>  <ION MODE>  (3170) 
P

>  <INCHIKEY>  (3170) 
DCAYPVUWAIABOU-UHFFFAOYSA-N

>  <FORMULA>  (3170) 
C16H34

>  <EXACT MASS>  (3170) 
226.26605108799998

>  <MW>  (3170) 
226

>  <ID>  (3170) 
JP007690

>  <CONTRIBUTOR>  (3170) 
University of Tokyo Team, {Faculty of Engineering, University of Tokyo

>  <COMMENT>  (3170) 
SMILES=CCCCCCCCCCCCCCCC
cas=544-76-3
InChI=InChI=1S/C16H34/c1-3-5-7-9-11-13-15-16-14-12-10-8-6-4-2/h3-16H2,1-2H3
computed SMILES=CCCCCCCCCCCCCCCC
accession=JP007690
date=2016.01.19 (Created 2008.10.21, modified 2011.05.06)
author=KYOTO INSTITUTE OF TECHNOLOGY
license=CC BY-NC-SA
exact mass=226.26605
ionization energy=70 eV
ion type=[M]+*
computed spectral entropy=2.380713694485145
computed normalized entropy=0.6369513460578562
SPLASH=splash10-0a4i-9000000000-b0449813985ea9c60d4f
submitter=submitter = University of Tokyo Team (Faculty of Engineering, University of Tokyo)
MoNA Rating=3.75

>  <NUM PEAKS>  (3170) 
42

>  <MASS SPECTRAL PEAKS>  (3170) 
40 2.3
41 45
42 11.7
43 9.72
44 3.9
53 1.5
54 1.7
55 1.8
56 13.7
57 99.99
58 4.5
67 0.13
68 1.2
69 6.9
70 8.6
71 5.21
72 2.9
82 1.2
83 3.6
84 0.44
85 28.6
86 1.9
97 2.4
98 0.28
99 7
111 0.9
112 1.8
113 0.33
126 1.2
127 1.8
140 0.8
141 0.12
154 0.5
155 0.8
168 0.3
169 0.06
182 0.1
183 0.3
196 0.1
197 0.01
226 0.7
227 0.1

$$$$

     RDKit          2D

 15 14  0  0  0  0  0  0  0  0999 V2000
    4.5466    7.8750    0.0000 C   0  0  0  0  0  0  0  0  0  0  0  0
  -13.6399    7.8750    0.0000 C   0  0  0  0  0  0  0  0  0  0  0  0
    3.2476    8.6250    0.0000 C   0  0  0  0  0  0  0  0  0  0  0  0
  -12.3409    8.6250    0.0000 C   0  0  0  0  0  0  0  0  0  0  0  0
    1.9486    7.8750    0.0000 C   0  0  0  0  0  0  0  0  0  0  0  0
  -11.0418    7.8750    0.0000 C   0  0  0  0  0  0  0  0  0  0  0  0
    0.6495    8.6250    0.0000 C   0  0  0  0  0  0  0  0  0  0  0  0
   -9.7428    8.6250    0.0000 C   0  0  0  0  0  0  0  0  0  0  0  0
   -0.6495    7.8750    0.0000 C   0  0  0  0  0  0  0  0  0  0  0  0
   -8.4437    7.8750    0.0000 C   0  0  0  0  0  0  0  0  0  0  0  0
   -1.9486    8.6250    0.0000 C   0  0  0  0  0  0  0  0  0  0  0  0
   -7.1447    8.6250    0.0000 C   0  0  0  0  0  0  0  0  0  0  0  0
   -3.2476    7.8750    0.0000 C   0  0  0  0  0  0  0  0  0  0  0  0
   -5.8457    7.8750    0.0000 C   0  0  0  0  0  0  0  0  0  0  0  0
   -4.5466    8.6250    0.0000 C   0  0  0  0  0  0  0  0  0  0  0  0
  3  1  1  0
  4  2  1  0
  5  3  1  0
  6  4  1  0
  7  5  1  0
  8  6  1  0
  9  7  1  0
 10  8  1  0
 11  9  1  0
 12 10  1  0
 13 11  1  0
 14 12  1  0
 15 13  1  0
 15 14  1  0
M  END
>  <NAME>  (3171) 
PENTADECANE

>  <SYNONYMS>  (3171) 


>  <SPECTRUM TYPE>  (3171) 
MS1

>  <INSTRUMENT TYPE>  (3171) 
EI-B

>  <INSTRUMENT>  (3171) 
SHIMADZU QP-1000

>  <ION MODE>  (3171) 
P

>  <INCHIKEY>  (3171) 
YCOZIPAWZNQLMR-UHFFFAOYSA-N

>  <FORMULA>  (3171) 
C15H32

>  <EXACT MASS>  (3171) 
212.25040102399998

>  <MW>  (3171) 
212

>  <ID>  (3171) 
JP007689

>  <CONTRIBUTOR>  (3171) 
University of Tokyo Team, {Faculty of Engineering, University of Tokyo

>  <COMMENT>  (3171) 
SMILES=CCCCCCCCCCCCCCC
cas=629-62-9
InChI=InChI=1S/C15H32/c1-3-5-7-9-11-13-15-14-12-10-8-6-4-2/h3-15H2,1-2H3
computed SMILES=CCCCCCCCCCCCCCC
accession=JP007689
date=2016.01.19 (Created 2008.10.21, modified 2011.05.06)
author=KYOTO INSTITUTE OF TECHNOLOGY
license=CC BY-NC-SA
exact mass=212.2504
ionization energy=70 eV
ion type=[M]+*
computed spectral entropy=2.2516929132552606
computed normalized entropy=0.6104002424758318
SPLASH=splash10-052f-9000000000-02e5634c0c5383d948e0
submitter=submitter = University of Tokyo Team (Faculty of Engineering, University of Tokyo)
MoNA Rating=3.75

>  <NUM PEAKS>  (3171) 
40

>  <MASS SPECTRAL PEAKS>  (3171) 
40 2.8
41 44.4
42 12.2
43 99.99
44 4.1
53 1.5
54 1.7
55 1.66
56 13.9
57 97.8
58 4.4
67 0.12
68 1
69 6.2
70 8.6
71 5.01
72 2.7
82 1.1
83 3.2
84 0.45
85 27.6
86 1.9
97 2
98 0.29
99 6.5
111 0.7
112 1.9
113 0.27
126 1.2
127 1.5
140 0.8
141 0.11
154 0.5
155 0.8
168 0.2
169 0.05
182 0.1
183 0.2
212 0.8
213 0.2

$$$$

     RDKit          2D

 14 13  0  0  0  0  0  0  0  0999 V2000
    4.5466    7.1250    0.0000 C   0  0  0  0  0  0  0  0  0  0  0  0
  -12.3409    7.8750    0.0000 C   0  0  0  0  0  0  0  0  0  0  0  0
    3.2476    7.8750    0.0000 C   0  0  0  0  0  0  0  0  0  0  0  0
  -11.0418    7.1250    0.0000 C   0  0  0  0  0  0  0  0  0  0  0  0
    1.9486    7.1250    0.0000 C   0  0  0  0  0  0  0  0  0  0  0  0
   -9.7428    7.8750    0.0000 C   0  0  0  0  0  0  0  0  0  0  0  0
    0.6495    7.8750    0.0000 C   0  0  0  0  0  0  0  0  0  0  0  0
   -8.4437    7.1250    0.0000 C   0  0  0  0  0  0  0  0  0  0  0  0
   -0.6495    7.1250    0.0000 C   0  0  0  0  0  0  0  0  0  0  0  0
   -7.1447    7.8750    0.0000 C   0  0  0  0  0  0  0  0  0  0  0  0
   -1.9486    7.8750    0.0000 C   0  0  0  0  0  0  0  0  0  0  0  0
   -5.8457    7.1250    0.0000 C   0  0  0  0  0  0  0  0  0  0  0  0
   -3.2476    7.1250    0.0000 C   0  0  0  0  0  0  0  0  0  0  0  0
   -4.5466    7.8750    0.0000 C   0  0  0  0  0  0  0  0  0  0  0  0
  3  1  1  0
  4  2  1  0
  5  3  1  0
  6  4  1  0
  7  5  1  0
  8  6  1  0
  9  7  1  0
 10  8  1  0
 11  9  1  0
 12 10  1  0
 13 11  1  0
 14 12  1  0
 14 13  1  0
M  END
>  <NAME>  (3172) 
TETRADECANE

>  <SYNONYMS>  (3172) 


>  <SPECTRUM TYPE>  (3172) 
MS1

>  <INSTRUMENT TYPE>  (3172) 
EI-B

>  <INSTRUMENT>  (3172) 
SHIMADZU QP-1000

>  <ION MODE>  (3172) 
P

>  <INCHIKEY>  (3172) 
BGHCVCJVXZWKCC-UHFFFAOYSA-N

>  <FORMULA>  (3172) 
C14H30

>  <EXACT MASS>  (3172) 
198.23475095999999

>  <MW>  (3172) 
198

>  <ID>  (3172) 
JP007688

>  <CONTRIBUTOR>  (3172) 
University of Tokyo Team, {Faculty of Engineering, University of Tokyo

>  <COMMENT>  (3172) 
SMILES=CCCCCCCCCCCCCC
cas=629-59-4
InChI=InChI=1S/C14H30/c1-3-5-7-9-11-13-14-12-10-8-6-4-2/h3-14H2,1-2H3
computed SMILES=CCCCCCCCCCCCCC
accession=JP007688
date=2016.01.19 (Created 2008.10.21, modified 2011.05.06)
author=KYOTO INSTITUTE OF TECHNOLOGY
license=CC BY-NC-SA
exact mass=198.23475
ionization energy=70 eV
ion type=[M]+*
computed spectral entropy=2.2852862351846692
computed normalized entropy=0.6328823558083009
SPLASH=splash10-0a4i-9000000000-97d43db8a1ee2fb60342
submitter=submitter = University of Tokyo Team (Faculty of Engineering, University of Tokyo)
MoNA Rating=3.75

>  <NUM PEAKS>  (3172) 
37

>  <MASS SPECTRAL PEAKS>  (3172) 
40 3.5
41 44.3
42 12.3
43 9.77
44 4.1
53 1.6
54 1.5
55 1.5
56 14.2
57 99.99
58 4.2
67 0.1
68 0.9
69 5.6
70 8.3
71 4.59
72 2.5
82 0.9
83 2.6
84 0.44
85 25.4
86 1.7
97 1.5
98 0.28
99 4.7
111 0.5
112 1.9
113 0.22
126 1.1
127 1.3
140 0.6
141 0.1
155 0.5
168 0.1
169 0.2
198 0.1
199 0.1

$$$$

     RDKit          2D

 13 12  0  0  0  0  0  0  0  0999 V2000
    3.8971    6.7500    0.0000 C   0  0  0  0  0  0  0  0  0  0  0  0
  -11.6913    6.7500    0.0000 C   0  0  0  0  0  0  0  0  0  0  0  0
    2.5981    7.5000    0.0000 C   0  0  0  0  0  0  0  0  0  0  0  0
  -10.3923    7.5000    0.0000 C   0  0  0  0  0  0  0  0  0  0  0  0
    1.2990    6.7500    0.0000 C   0  0  0  0  0  0  0  0  0  0  0  0
   -9.0933    6.7500    0.0000 C   0  0  0  0  0  0  0  0  0  0  0  0
    0.0000    7.5000    0.0000 C   0  0  0  0  0  0  0  0  0  0  0  0
   -7.7942    7.5000    0.0000 C   0  0  0  0  0  0  0  0  0  0  0  0
   -1.2990    6.7500    0.0000 C   0  0  0  0  0  0  0  0  0  0  0  0
   -6.4952    6.7500    0.0000 C   0  0  0  0  0  0  0  0  0  0  0  0
   -2.5981    7.5000    0.0000 C   0  0  0  0  0  0  0  0  0  0  0  0
   -5.1962    7.5000    0.0000 C   0  0  0  0  0  0  0  0  0  0  0  0
   -3.8971    6.7500    0.0000 C   0  0  0  0  0  0  0  0  0  0  0  0
  3  1  1  0
  4  2  1  0
  5  3  1  0
  6  4  1  0
  7  5  1  0
  8  6  1  0
  9  7  1  0
 10  8  1  0
 11  9  1  0
 12 10  1  0
 13 11  1  0
 13 12  1  0
M  END
>  <NAME>  (3173) 
TRIDECANE

>  <SYNONYMS>  (3173) 


>  <SPECTRUM TYPE>  (3173) 
MS1

>  <INSTRUMENT TYPE>  (3173) 
EI-B

>  <INSTRUMENT>  (3173) 
SHIMADZU QP-1000

>  <ION MODE>  (3173) 
P

>  <INCHIKEY>  (3173) 
IIYFAKIEWZDVMP-UHFFFAOYSA-N

>  <FORMULA>  (3173) 
C13H28

>  <EXACT MASS>  (3173) 
184.219100896

>  <MW>  (3173) 
184

>  <ID>  (3173) 
JP007687

>  <CONTRIBUTOR>  (3173) 
University of Tokyo Team, {Faculty of Engineering, University of Tokyo

>  <COMMENT>  (3173) 
SMILES=CCCCCCCCCCCCC
cas=629-50-5
InChI=InChI=1S/C13H28/c1-3-5-7-9-11-13-12-10-8-6-4-2/h3-13H2,1-2H3
computed SMILES=CCCCCCCCCCCCC
accession=JP007687
date=2016.01.19 (Created 2008.10.21, modified 2011.05.06)
author=KYOTO INSTITUTE OF TECHNOLOGY
license=CC BY-NC-SA
exact mass=184.2191
ionization energy=70 eV
ion type=[M]+*
computed spectral entropy=2.1732229071974207
computed normalized entropy=0.6215410288676576
SPLASH=splash10-052f-9000000000-0ce01dfea4481d77cbe6
submitter=submitter = University of Tokyo Team (Faculty of Engineering, University of Tokyo)
MoNA Rating=3.75

>  <NUM PEAKS>  (3173) 
33

>  <MASS SPECTRAL PEAKS>  (3173) 
40 4.1
41 42.9
42 12.5
43 99.99
44 4.2
53 1.5
54 1.5
55 1.42
56 14.2
57 94.9
58 4.2
67 0.08
68 0.8
69 4.9
70 8.7
71 4.59
72 2.5
82 0.8
83 2.3
84 0.47
85 23.1
86 1.5
97 1.1
98 0.32
99 4
112 1.9
113 1.9
126 0.11
127 1.5
141 0.9
155 0.4
184 0.11
185 0.2

$$$$

     RDKit          2D

 12 11  0  0  0  0  0  0  0  0999 V2000
    3.8971    6.0000    0.0000 C   0  0  0  0  0  0  0  0  0  0  0  0
  -10.3923    6.7500    0.0000 C   0  0  0  0  0  0  0  0  0  0  0  0
    2.5981    6.7500    0.0000 C   0  0  0  0  0  0  0  0  0  0  0  0
   -9.0933    6.0000    0.0000 C   0  0  0  0  0  0  0  0  0  0  0  0
    1.2990    6.0000    0.0000 C   0  0  0  0  0  0  0  0  0  0  0  0
   -7.7942    6.7500    0.0000 C   0  0  0  0  0  0  0  0  0  0  0  0
    0.0000    6.7500    0.0000 C   0  0  0  0  0  0  0  0  0  0  0  0
   -6.4952    6.0000    0.0000 C   0  0  0  0  0  0  0  0  0  0  0  0
   -1.2990    6.0000    0.0000 C   0  0  0  0  0  0  0  0  0  0  0  0
   -5.1962    6.7500    0.0000 C   0  0  0  0  0  0  0  0  0  0  0  0
   -2.5981    6.7500    0.0000 C   0  0  0  0  0  0  0  0  0  0  0  0
   -3.8971    6.0000    0.0000 C   0  0  0  0  0  0  0  0  0  0  0  0
  3  1  1  0
  4  2  1  0
  5  3  1  0
  6  4  1  0
  7  5  1  0
  8  6  1  0
  9  7  1  0
 10  8  1  0
 11  9  1  0
 12 10  1  0
 12 11  1  0
M  END
>  <NAME>  (3174) 
DODECANE

>  <SYNONYMS>  (3174) 


>  <SPECTRUM TYPE>  (3174) 
MS1

>  <INSTRUMENT TYPE>  (3174) 
EI-B

>  <INSTRUMENT>  (3174) 
SHIMADZU QP-1000

>  <ION MODE>  (3174) 
P

>  <INCHIKEY>  (3174) 
SNRUBQQJIBEYMU-UHFFFAOYSA-N

>  <FORMULA>  (3174) 
C12H26

>  <EXACT MASS>  (3174) 
170.203450832

>  <MW>  (3174) 
170

>  <ID>  (3174) 
JP007686

>  <CONTRIBUTOR>  (3174) 
University of Tokyo Team, {Faculty of Engineering, University of Tokyo

>  <COMMENT>  (3174) 
SMILES=CCCCCCCCCCCC
cas=112-40-3
InChI=InChI=1S/C12H26/c1-3-5-7-9-11-12-10-8-6-4-2/h3-12H2,1-2H3
computed SMILES=CCCCCCCCCCCC
accession=JP007686
date=2016.01.19 (Created 2008.10.21, modified 2011.05.06)
author=KYOTO INSTITUTE OF TECHNOLOGY
license=CC BY-NC-SA
exact mass=170.20345
ionization energy=70 eV
ion type=[M]+*
computed spectral entropy=2.1609234882631254
computed normalized entropy=0.6235107200515382
SPLASH=splash10-052f-9000000000-60adc4e587abee13f129
submitter=submitter = University of Tokyo Team (Faculty of Engineering, University of Tokyo)
MoNA Rating=3.75

>  <NUM PEAKS>  (3174) 
32

>  <MASS SPECTRAL PEAKS>  (3174) 
40 8.7
41 48
42 13.7
43 99.99
44 5.4
53 1.7
54 1.4
55 1.31
56 13.7
57 82.2
58 3.4
67 0.07
68 0.6
69 4.3
70 8
71 3.64
72 2
82 0.5
83 1.7
84 0.48
85 16.6
86 1.7
97 0.7
98 0.27
99 2.6
112 1.4
113 1.5
126 0.06
127 1
141 0.5
170 1.1
171 0.1

$$$$

     RDKit          2D

 11 10  0  0  0  0  0  0  0  0999 V2000
    3.2476    5.6250    0.0000 C   0  0  0  0  0  0  0  0  0  0  0  0
   -9.7428    5.6250    0.0000 C   0  0  0  0  0  0  0  0  0  0  0  0
    1.9486    6.3750    0.0000 C   0  0  0  0  0  0  0  0  0  0  0  0
   -8.4437    6.3750    0.0000 C   0  0  0  0  0  0  0  0  0  0  0  0
    0.6495    5.6250    0.0000 C   0  0  0  0  0  0  0  0  0  0  0  0
   -7.1447    5.6250    0.0000 C   0  0  0  0  0  0  0  0  0  0  0  0
   -0.6495    6.3750    0.0000 C   0  0  0  0  0  0  0  0  0  0  0  0
   -5.8457    6.3750    0.0000 C   0  0  0  0  0  0  0  0  0  0  0  0
   -1.9486    5.6250    0.0000 C   0  0  0  0  0  0  0  0  0  0  0  0
   -4.5466    5.6250    0.0000 C   0  0  0  0  0  0  0  0  0  0  0  0
   -3.2476    6.3750    0.0000 C   0  0  0  0  0  0  0  0  0  0  0  0
  3  1  1  0
  4  2  1  0
  5  3  1  0
  6  4  1  0
  7  5  1  0
  8  6  1  0
  9  7  1  0
 10  8  1  0
 11  9  1  0
 11 10  1  0
M  END
>  <NAME>  (3175) 
UNDECANE

>  <SYNONYMS>  (3175) 


>  <SPECTRUM TYPE>  (3175) 
MS1

>  <INSTRUMENT TYPE>  (3175) 
EI-B

>  <INSTRUMENT>  (3175) 
SHIMADZU QP-1000

>  <ION MODE>  (3175) 
P

>  <INCHIKEY>  (3175) 
RSJKGSCJYJTIGS-UHFFFAOYSA-N

>  <FORMULA>  (3175) 
C11H24

>  <EXACT MASS>  (3175) 
156.187800768

>  <MW>  (3175) 
156

>  <ID>  (3175) 
JP007685

>  <CONTRIBUTOR>  (3175) 
University of Tokyo Team, {Faculty of Engineering, University of Tokyo

>  <COMMENT>  (3175) 
SMILES=CCCCCCCCCCC
cas=1120-21-4
InChI=InChI=1S/C11H24/c1-3-5-7-9-11-10-8-6-4-2/h3-11H2,1-2H3
computed SMILES=CCCCCCCCCCC
date=2016.01.19 (Created 2008.10.21, modified 2011.05.06)
author=KYOTO INSTITUTE OF TECHNOLOGY
license=CC BY-NC-SA
accession=JP007685
exact mass=156.1878
ionization energy=70 eV
ion type=[M]+*
computed spectral entropy=1.9818140996313922
computed normalized entropy=0.582681296391827
SPLASH=splash10-0006-9000000000-531ffbd4e0c13e7c70a4
submitter=submitter = University of Tokyo Team (Faculty of Engineering, University of Tokyo)
MoNA Rating=3.75

>  <NUM PEAKS>  (3175) 
30

>  <MASS SPECTRAL PEAKS>  (3175) 
40 2.5
41 51.1
42 15.1
43 99.99
44 3.8
53 1.7
54 1.1
55 1.05
56 11.2
57 61
58 2.7
67 0.05
68 0.3
69 2.7
70 5.6
71 2.03
72 1.2
73 1.7
83 0.7
84 0.33
85 9.5
86 1.1
98 1.6
99 0.13
112 0.6
113 0.8
126 0.2
127 0.04
156 0.7
157 0.1

$$$$

     RDKit          2D

  9  9  0  0  0  0  0  0  0  0999 V2000
   -2.9228    0.8825    0.0000 C   0  0  0  0  0  0  0  0  0  0  0  0
   -1.6238    3.1325    0.0000 C   0  0  0  0  0  0  0  0  0  0  0  0
    2.2733   -0.6175    0.0000 C   0  0  0  0  0  0  0  0  0  0  0  0
    0.9738   -1.3683    0.0000 C   0  0  0  0  0  0  0  0  0  0  0  0
    2.2738    0.8833    0.0000 C   0  0  0  0  0  0  0  0  0  0  0  0
   -0.3252   -0.6183    0.0000 C   0  0  0  0  0  0  0  0  0  0  0  0
    0.9748    1.6333    0.0000 C   0  0  0  0  0  0  0  0  0  0  0  0
   -0.3248    0.8825    0.0000 C   0  0  0  0  0  0  0  0  0  0  0  0
   -1.6238    1.6325    0.0000 N   0  0  0  0  0  0  0  0  0  0  0  0
  4  3  2  0
  5  3  1  0
  6  4  1  0
  7  5  2  0
  8  6  2  0
  8  7  1  0
  9  1  1  0
  9  2  1  0
  9  8  1  0
M  END
>  <NAME>  (3176) 
N,N-DIMETHYLANILINE

>  <SYNONYMS>  (3176) 
N,N-DIMETHYLBENZENAMINE

>  <SPECTRUM TYPE>  (3176) 
MS1

>  <INSTRUMENT TYPE>  (3176) 
EI-B

>  <INSTRUMENT>  (3176) 
HITACHI RMU-7M

>  <ION MODE>  (3176) 
P

>  <INCHIKEY>  (3176) 
JLTDJTHDQAWBAV-UHFFFAOYSA-N

>  <FORMULA>  (3176) 
C8H11N

>  <EXACT MASS>  (3176) 
121.08914935199999

>  <MW>  (3176) 
121

>  <ID>  (3176) 
JP007684

>  <CONTRIBUTOR>  (3176) 
University of Tokyo Team, {Faculty of Engineering, University of Tokyo

>  <COMMENT>  (3176) 
SMILES=CN(C)c(c1)cccc1
cas=121-69-7
InChI=InChI=1S/C8H11N/c1-9(2)8-6-4-3-5-7-8/h3-7H,1-2H3
computed SMILES=C=1C=CC(=CC1)N(C)C
accession=JP007684
date=2016.01.19 (Created 2008.10.21, modified 2011.05.06)
author=TAJIMA S, GUNMA COLLEGE OF TECHNOLOGY
license=CC BY-NC-SA
exact mass=121.08915
ionization energy=70 eV
ion type=[M]+*
computed spectral entropy=2.5791957353238777
computed normalized entropy=0.7583199226336673
SPLASH=splash10-00di-4900000000-6394ae2b1d9a7feb7332
submitter=submitter = University of Tokyo Team (Faculty of Engineering, University of Tokyo)
MoNA Rating=3.75

>  <NUM PEAKS>  (3176) 
30

>  <MASS SPECTRAL PEAKS>  (3176) 
15 2.56
27 2.02
28 2.43
39 5.53
42 9.31
43 2.02
44 3.78
50 5.26
51 16.06
52 4.18
60.5 3.64
63 2.56
65 3.78
77 33.74
78 7.15
79 9.45
91 6.21
92 3.78
93 4.05
94 2.16
103 6.07
104 13.23
105 14.84
106 6.07
107 2.56
118 6.07
119 2.97
120 99.99
121 77.87
122 6.88

$$$$

     RDKit          2D

  8  7  0  0  0  0  0  0  0  0999 V2000
    0.0000    0.0000    0.0000 C   0  0  0  0  0  0  0  0  0  0  0  0
   -2.5981    6.0000    0.0000 C   0  0  0  0  0  0  0  0  0  0  0  0
   -1.2990    2.2500    0.0000 C   0  0  0  0  0  0  0  0  0  0  0  0
   -1.2990    3.7500    0.0000 C   0  0  0  0  0  0  0  0  0  0  0  0
    0.0000    1.5000    0.0000 C   0  0  0  0  0  0  0  0  0  0  0  0
   -2.5981    4.5000    0.0000 C   0  0  0  0  0  0  0  0  0  0  0  0
    1.2990    2.2500    0.0000 O   0  0  0  0  0  0  0  0  0  0  0  0
   -3.8971    3.7500    0.0000 O   0  0  0  0  0  0  0  0  0  0  0  0
  4  3  1  0
  5  1  1  0
  5  3  1  0
  6  2  1  0
  6  4  1  0
  7  5  2  0
  8  6  2  0
M  END
>  <NAME>  (3177) 
2,5-HEXANEDIONE

>  <SYNONYMS>  (3177) 
ACETONYLACETONE

>  <SPECTRUM TYPE>  (3177) 
MS1

>  <INSTRUMENT TYPE>  (3177) 
EI-B

>  <INSTRUMENT>  (3177) 
HITACHI RMU-7M

>  <ION MODE>  (3177) 
P

>  <INCHIKEY>  (3177) 
OJVAMHKKJGICOG-UHFFFAOYSA-N

>  <FORMULA>  (3177) 
C6H10O2

>  <EXACT MASS>  (3177) 
114.06807956

>  <MW>  (3177) 
114

>  <ID>  (3177) 
JP007683

>  <CONTRIBUTOR>  (3177) 
University of Tokyo Team, {Faculty of Engineering, University of Tokyo

>  <COMMENT>  (3177) 
SMILES=CC(=O)CCC(C)=O
cas=110-13-4
InChI=InChI=1S/C6H10O2/c1-5(7)3-4-6(2)8/h3-4H2,1-2H3
computed SMILES=O=C(C)CCC(=O)C
accession=JP007683
date=2016.01.19 (Created 2008.10.21, modified 2011.05.06)
author=TAJIMA S, GUNMA COLLEGE OF TECHNOLOGY
license=CC BY-NC-SA
exact mass=114.06808
ionization energy=70 eV
ion type=[M]+*
computed spectral entropy=2.1182066260308967
computed normalized entropy=0.6665106191102456
SPLASH=splash10-0006-9000000000-631a26f9a956a81b3098
submitter=submitter = University of Tokyo Team (Faculty of Engineering, University of Tokyo)
MoNA Rating=3.75

>  <NUM PEAKS>  (3177) 
24

>  <MASS SPECTRAL PEAKS>  (3177) 
15 6.67
27 4.67
28 2.5
29 1.75
39 4.17
40 2.33
41 3.58
42 3.33
43 99.99
44 3.5
53 4.25
55 2.17
57 6.58
67 3.83
68 1.25
71 12.42
72 2.67
81 3.08
95 1.67
96 5.83
97 1.33
99 20.75
100 1.25
114 2.42

$$$$

     RDKit          2D

 10 11  0  0  0  0  0  0  0  0999 V2000
   -2.6000   -0.7500    0.0000 C   0  0  0  0  0  0  0  0  0  0  0  0
   -2.6000    0.7500    0.0000 C   0  0  0  0  0  0  0  0  0  0  0  0
    2.6000   -0.7500    0.0000 C   0  0  0  0  0  0  0  0  0  0  0  0
    2.6000    0.7500    0.0000 C   0  0  0  0  0  0  0  0  0  0  0  0
   -1.3000   -1.5000    0.0000 C   0  0  0  0  0  0  0  0  0  0  0  0
   -1.3000    1.5000    0.0000 C   0  0  0  0  0  0  0  0  0  0  0  0
    1.3000   -1.5000    0.0000 C   0  0  0  0  0  0  0  0  0  0  0  0
    1.3000    1.5000    0.0000 C   0  0  0  0  0  0  0  0  0  0  0  0
    0.0000   -0.7500    0.0000 C   0  0  0  0  0  0  0  0  0  0  0  0
    0.0000    0.7500    0.0000 C   0  0  0  0  0  0  0  0  0  0  0  0
  2  1  2  0
  4  3  1  0
  5  1  1  0
  6  2  1  0
  7  3  1  0
  8  4  1  0
  9  5  2  0
  9  7  1  0
 10  6  2  0
 10  8  1  0
 10  9  1  0
M  END
>  <NAME>  (3178) 
1,2,3,4-TETRAHYDRONAPHTHALENE

>  <SYNONYMS>  (3178) 


>  <SPECTRUM TYPE>  (3178) 
MS1

>  <INSTRUMENT TYPE>  (3178) 
EI-B

>  <INSTRUMENT>  (3178) 
HITACHI RMU-7M

>  <ION MODE>  (3178) 
P

>  <INCHIKEY>  (3178) 
CXWXQJXEFPUFDZ-UHFFFAOYSA-N

>  <FORMULA>  (3178) 
C10H12

>  <EXACT MASS>  (3178) 
132.093900384

>  <MW>  (3178) 
132

>  <ID>  (3178) 
JP007682

>  <CONTRIBUTOR>  (3178) 
University of Tokyo Team, {Faculty of Engineering, University of Tokyo

>  <COMMENT>  (3178) 
SMILES=C(C2)Cc(c1)c(C2)ccc1
cas=119-64-2
InChI=InChI=1S/C10H12/c1-2-6-10-8-4-3-7-9(10)5-1/h1-2,5-6H,3-4,7-8H2
computed SMILES=C=1C=CC2=C(C1)CCCC2
accession=JP007682
date=2016.01.19 (Created 2008.10.21, modified 2011.05.06)
author=TAJIMA S, GUNMA COLLEGE OF TECHNOLOGY
license=CC BY-NC-SA
exact mass=132.0939
ionization energy=70 eV
ion type=[M]+*
computed spectral entropy=2.7559428705525737
computed normalized entropy=0.7751541685620644
SPLASH=splash10-0ue9-4900000000-75531cea62a238084a34
submitter=submitter = University of Tokyo Team (Faculty of Engineering, University of Tokyo)
MoNA Rating=3.75

>  <NUM PEAKS>  (3178) 
35

>  <MASS SPECTRAL PEAKS>  (3178) 
27 3.24
39 6.18
41 1.86
50 2.84
51 8.73
52 2.06
53 2.45
57 1.76
57.5 2.75
58 1.08
63 5.1
64 5.59
64.5 1.18
65 7.65
76 1.57
77 8.14
78 11.67
79 1.96
89 2.55
91 47.25
92 3.82
102 2.75
103 8.82
104 99.99
105 9.61
115 11.86
116 5.39
117 14.71
127 3.82
128 7.84
129 5.88
130 1.86
131 12.94
132 50.29
133 5.59

$$$$

     RDKit          2D

  6  6  0  0  0  0  0  0  0  0999 V2000
    0.0000    1.5000    0.0000 C   0  0  0  0  0  0  0  0  0  0  0  0
   -1.3000    0.7500    0.0000 C   0  0  0  0  0  0  0  0  0  0  0  0
    1.3000    0.7500    0.0000 C   0  0  0  0  0  0  0  0  0  0  0  0
   -1.3000   -0.7500    0.0000 C   0  0  0  0  0  0  0  0  0  0  0  0
    1.3000   -0.7500    0.0000 C   0  0  0  0  0  0  0  0  0  0  0  0
   -0.0000   -1.5000    0.0000 N   0  0  0  0  0  0  0  0  0  0  0  0
  2  1  2  0
  3  1  1  0
  4  2  1  0
  5  3  2  0
  6  4  2  0
  6  5  1  0
M  END
>  <NAME>  (3179) 
PYRIDINE

>  <SYNONYMS>  (3179) 


>  <SPECTRUM TYPE>  (3179) 
MS1

>  <INSTRUMENT TYPE>  (3179) 
EI-B

>  <INSTRUMENT>  (3179) 
HITACHI RMU-7M

>  <ION MODE>  (3179) 
P

>  <INCHIKEY>  (3179) 
JUJWROOIHBZHMG-UHFFFAOYSA-N

>  <FORMULA>  (3179) 
C5H5N

>  <EXACT MASS>  (3179) 
79.04219916

>  <MW>  (3179) 
79

>  <ID>  (3179) 
JP007681

>  <CONTRIBUTOR>  (3179) 
University of Tokyo Team, {Faculty of Engineering, University of Tokyo

>  <COMMENT>  (3179) 
SMILES=c(c1)ccnc1
cas=110-86-1
InChI=InChI=1S/C5H5N/c1-2-4-6-5-3-1/h1-5H
computed SMILES=N=1C=CC=CC1
accession=JP007681
date=2016.01.19 (Created 2008.10.21, modified 2011.05.06)
author=TAJIMA S, GUNMA COLLEGE OF TECHNOLOGY
license=CC BY-NC-SA
exact mass=79.0422
ionization energy=70 eV
ion type=[M]+*
computed spectral entropy=1.9975923610432944
computed normalized entropy=0.6911195266097175
SPLASH=splash10-0ufr-9000000000-8ef2b8f5732d5a1cf292
submitter=submitter = University of Tokyo Team (Faculty of Engineering, University of Tokyo)
MoNA Rating=3.75

>  <NUM PEAKS>  (3179) 
18

>  <MASS SPECTRAL PEAKS>  (3179) 
26 8.38
27 2.76
28 3.5
37 2.03
38 2.95
39 8.84
43 1.75
49 3.22
50 18.69
51 30.29
52 80.94
53 8.66
57 1.84
75 1.93
76 1.57
78 11.6
79 99.99
80 6.35

$$$$

     RDKit          2D

  4  3  0  0  0  0  0  0  0  0999 V2000
    0.9743    0.5625    0.0000 C   0  0  0  0  0  0  0  0  0  0  0  0
   -1.6238    0.5625    0.0000 C   0  0  0  0  0  0  0  0  0  0  0  0
   -0.3248    1.3125    0.0000 C   0  0  0  0  0  0  0  0  0  0  0  0
   -0.3248    2.8125    0.0000 O   0  0  0  0  0  0  0  0  0  0  0  0
  3  1  1  0
  3  2  1  0
  4  3  2  0
M  END
>  <NAME>  (3180) 
ACETONE

>  <SYNONYMS>  (3180) 
2-PROPANONE

>  <SPECTRUM TYPE>  (3180) 
MS1

>  <INSTRUMENT TYPE>  (3180) 
EI-B

>  <INSTRUMENT>  (3180) 
HITACHI RMU-7M

>  <ION MODE>  (3180) 
P

>  <INCHIKEY>  (3180) 
CSCPPACGZOOCGX-UHFFFAOYSA-N

>  <FORMULA>  (3180) 
C3H6O

>  <EXACT MASS>  (3180) 
58.041864812

>  <MW>  (3180) 
58

>  <ID>  (3180) 
JP007680

>  <CONTRIBUTOR>  (3180) 
University of Tokyo Team, {Faculty of Engineering, University of Tokyo

>  <COMMENT>  (3180) 
SMILES=CC(C)=O
cas=67-64-1
InChI=InChI=1S/C3H6O/c1-3(2)4/h1-2H3
computed SMILES=O=C(C)C
accession=JP007680
date=2016.01.19 (Created 2008.10.21, modified 2011.05.06)
author=TAJIMA S, GUNMA COLLEGE OF TECHNOLOGY
license=CC BY-NC-SA
exact mass=58.04186
ionization energy=70 eV
ion type=[M]+*
computed spectral entropy=1.837686903740748
computed normalized entropy=0.6628054456833428
SPLASH=splash10-0006-9000000000-5de48058c986d7c07ac3
submitter=submitter = University of Tokyo Team (Faculty of Engineering, University of Tokyo)
MoNA Rating=3.75

>  <NUM PEAKS>  (3180) 
16

>  <MASS SPECTRAL PEAKS>  (3180) 
14 3.08
15 23.21
26 3.08
27 5.51
28 2.77
29 4.36
39 3.85
41 5
42 6.28
43 99.99
44 3.72
55 3.46
56 1.67
57 5.9
58 30
59 1.41

$$$$

     RDKit          2D

  4  3  0  0  0  0  0  0  0  0999 V2000
   -2.5981    2.2500    0.0000 C   0  0  0  0  0  0  0  0  0  0  0  0
   -1.2990    1.5000    0.0000 C   0  0  0  0  0  0  0  0  0  0  0  0
    0.0000    2.2500    0.0000 C   0  0  0  0  0  0  0  0  0  0  0  0
    1.2990    1.5000    0.0000 O   0  0  0  0  0  0  0  0  0  0  0  0
  2  1  1  0
  3  2  1  0
  4  3  1  0
M  END
>  <NAME>  (3181) 
1-PROPANOL

>  <SYNONYMS>  (3181) 
PROPYL ALCOHOL

>  <SPECTRUM TYPE>  (3181) 
MS1

>  <INSTRUMENT TYPE>  (3181) 
EI-B

>  <INSTRUMENT>  (3181) 
HITACHI RMU-7M

>  <ION MODE>  (3181) 
P

>  <INCHIKEY>  (3181) 
BDERNNFJNOPAEC-UHFFFAOYSA-N

>  <FORMULA>  (3181) 
C3H8O

>  <EXACT MASS>  (3181) 
60.057514876

>  <MW>  (3181) 
60

>  <ID>  (3181) 
JP007679

>  <CONTRIBUTOR>  (3181) 
University of Tokyo Team, {Faculty of Engineering, University of Tokyo

>  <COMMENT>  (3181) 
computed SMILES=OCCC
SMILES=CCCO
cas=71-23-8
InChI=InChI=1S/C3H8O/c1-2-3-4/h4H,2-3H2,1H3
ion type=[M]+*
accession=JP007679
date=2016.01.19 (Created 2008.10.21, modified 2011.05.06)
author=TAJIMA S, GUNMA COLLEGE OF TECHNOLOGY
license=CC BY-NC-SA
exact mass=60.05751
ionization energy=70 eV
computed spectral entropy=1.8660950786014094
computed normalized entropy=0.6337693162619705
SPLASH=splash10-001i-9000000000-6013791cdd19a27be85c
submitter=submitter = University of Tokyo Team (Faculty of Engineering, University of Tokyo)
MoNA Rating=3.75

>  <NUM PEAKS>  (3181) 
19

>  <MASS SPECTRAL PEAKS>  (3181) 
15 1.32
19 1
26 2.05
27 10.19
28 5.43
29 10.12
30 1.54
31 99.99
32 2.2
33 1.1
39 3.23
41 7.26
42 13.27
43 4.33
45 1.25
55 1.32
57 2.93
59 12.1
60 4.25

$$$$

     RDKit          2D

 13 13  0  0  0  0  0  0  0  0999 V2000
    7.4251    1.2910    0.0000 C   0  0  0  0  0  0  0  0  0  0  0  0
    6.1264   -0.9592    0.0000 C   0  0  0  0  0  0  0  0  0  0  0  0
   -1.6700   -0.9600    0.0000 C   0  0  0  0  0  0  0  0  0  0  0  0
   -1.6700    0.5400    0.0000 C   0  0  0  0  0  0  0  0  0  0  0  0
   -0.3700   -1.7100    0.0000 C   0  0  0  0  0  0  0  0  0  0  0  0
   -0.3700    1.2900    0.0000 C   0  0  0  0  0  0  0  0  0  0  0  0
    0.9300   -0.9600    0.0000 C   0  0  0  0  0  0  0  0  0  0  0  0
    4.8270    1.2906    0.0000 C   0  0  0  0  0  0  0  0  0  0  0  0
    6.1262    0.5408    0.0000 C   0  0  0  0  0  0  0  0  0  0  0  0
    0.9300    0.5400    0.0000 C   0  0  0  0  0  0  0  0  0  0  0  0
    3.5281    0.5404    0.0000 C   0  0  0  0  0  0  0  0  0  0  0  0
    3.5283   -0.9596    0.0000 O   0  0  0  0  0  0  0  0  0  0  0  0
    2.2289    1.2902    0.0000 O   0  0  0  0  0  0  0  0  0  0  0  0
  4  3  1  0
  5  3  1  0
  6  4  1  0
  7  5  1  0
  9  1  1  0
  9  2  1  0
  9  8  1  0
 10  6  1  0
 10  7  1  0
 11  8  1  0
 12 11  2  0
 13 10  1  0
 13 11  1  0
M  END
>  <NAME>  (3182) 
3-METHYLBUTANOIC ACID CYCLOHEXYL ESTER

>  <SYNONYMS>  (3182) 
ISOVALERIC ACID CYCLOHEXYL ESTER

>  <SPECTRUM TYPE>  (3182) 
MS1

>  <INSTRUMENT TYPE>  (3182) 
EI-B

>  <INSTRUMENT>  (3182) 
HITACHI RMU-7M

>  <ION MODE>  (3182) 
P

>  <INCHIKEY>  (3182) 
SQPOKBBCNZIWFI-UHFFFAOYSA-N

>  <FORMULA>  (3182) 
C11H20O2

>  <EXACT MASS>  (3182) 
184.14632988

>  <MW>  (3182) 
184

>  <ID>  (3182) 
JP007678

>  <CONTRIBUTOR>  (3182) 
University of Tokyo Team, {Faculty of Engineering, University of Tokyo

>  <COMMENT>  (3182) 
SMILES=CC(C)CC(=O)OC(C1)CCCC1
InChI=InChI=1S/C11H20O2/c1-9(2)8-11(12)13-10-6-4-3-5-7-10/h9-10H,3-8H2,1-2H3
computed SMILES=O=C(OC1CCCCC1)CC(C)C
accession=JP007678
date=2016.01.19 (Created 2008.10.21, modified 2011.05.06)
author=TAJIMA S, GUNMA COLLEGE OF TECHNOLOGY
license=CC BY-NC-SA
exact mass=184.14633
ionization energy=70 eV
ion type=[M]+*
computed spectral entropy=2.9200511810615892
computed normalized entropy=0.8213123245768279
SPLASH=splash10-0a59-9000000000-0130395ebfc7332d085c
submitter=submitter = University of Tokyo Team (Faculty of Engineering, University of Tokyo)
MoNA Rating=3.75

>  <NUM PEAKS>  (3182) 
35

>  <MASS SPECTRAL PEAKS>  (3182) 
15 1.1
27 11.99
29 18.18
39 10.39
41 37.86
42 6.49
43 18.78
44 2.5
53 4
54 18.08
55 56.84
56 6.19
57 99.99
58 6.99
59 2.5
60 17.48
61 9.09
67 69.93
68 4
69 3.5
71 3.6
79 2.2
81 10.09
82 59.14
83 33.97
84 3.2
85 64.74
86 4
87 9.69
100 3.3
101 2.7
102 1.4
103 8.09
104 44.26
105 2.6

$$$$

     RDKit          2D

  4  3  0  0  0  0  0  0  0  0999 V2000
    0.9743    0.5625    0.0000 C   0  0  0  0  0  0  0  0  0  0  0  0
   -1.6238    0.5625    0.0000 C   0  0  0  0  0  0  0  0  0  0  0  0
   -0.3248    1.3125    0.0000 C   0  0  0  0  0  0  0  0  0  0  0  0
   -0.3248    2.8125    0.0000 O   0  0  0  0  0  0  0  0  0  0  0  0
  3  1  1  0
  3  2  1  0
  4  3  1  0
M  END
>  <NAME>  (3183) 
ISOPROPANOL

>  <SYNONYMS>  (3183) 
2-METHYLETHANOL

>  <SPECTRUM TYPE>  (3183) 
MS1

>  <INSTRUMENT TYPE>  (3183) 
EI-B

>  <INSTRUMENT>  (3183) 
HITACHI RMU-7M

>  <ION MODE>  (3183) 
P

>  <INCHIKEY>  (3183) 
KFZMGEQAYNKOFK-UHFFFAOYSA-N

>  <FORMULA>  (3183) 
C3H8O

>  <EXACT MASS>  (3183) 
60.057514876

>  <MW>  (3183) 
60

>  <ID>  (3183) 
JP007677

>  <CONTRIBUTOR>  (3183) 
University of Tokyo Team, {Faculty of Engineering, University of Tokyo

>  <COMMENT>  (3183) 
SMILES=CC(C)O
cas=67-63-0
InChI=InChI=1S/C3H8O/c1-3(2)4/h3-4H,1-2H3
computed SMILES=OC(C)C
accession=JP007677
date=2016.01.19 (Created 2008.10.21, modified 2011.05.06)
author=TAJIMA S, GUNMA COLLEGE OF TECHNOLOGY
license=CC BY-NC-SA
exact mass=60.05751
ionization energy=70 eV
ion type=[M]+*
computed spectral entropy=1.8074236445131528
computed normalized entropy=0.6674261960791972
SPLASH=splash10-0002-9000000000-7936ed4d93d5699b0366
submitter=submitter = University of Tokyo Team (Faculty of Engineering, University of Tokyo)
MoNA Rating=3.75

>  <NUM PEAKS>  (3183) 
15

>  <MASS SPECTRAL PEAKS>  (3183) 
14 1.33
15 5.69
19 8.1
27 13.08
29 8.01
31 5.25
38 1.6
39 5.52
41 8.27
42 3.56
43 18.24
44 2.67
45 99.99
46 2.49
59 3.29

$$$$

     RDKit          2D

  9  9  0  0  0  0  0  0  0  0999 V2000
   -2.5989   -0.7504    0.0000 C   0  0  0  0  0  0  0  0  0  0  0  0
    3.8981    1.5002    0.0000 C   0  0  0  0  0  0  0  0  0  0  0  0
   -1.2998   -1.5002    0.0000 C   0  0  0  0  0  0  0  0  0  0  0  0
    2.5992   -0.7500    0.0000 C   0  0  0  0  0  0  0  0  0  0  0  0
    1.2992    1.5000    0.0000 C   0  0  0  0  0  0  0  0  0  0  0  0
    1.2992   -1.5000    0.0000 C   0  0  0  0  0  0  0  0  0  0  0  0
   -0.0008    0.7500    0.0000 C   0  0  0  0  0  0  0  0  0  0  0  0
    2.5992    0.7500    0.0000 C   0  0  0  0  0  0  0  0  0  0  0  0
   -0.0008   -0.7500    0.0000 C   0  0  0  0  0  0  0  0  0  0  0  0
  3  1  1  0
  6  4  2  0
  7  5  1  0
  8  2  1  0
  8  4  1  0
  8  5  2  0
  9  3  1  0
  9  6  1  0
  9  7  2  0
M  END
>  <NAME>  (3184) 
PARA-ETHYLTOLUENE

>  <SYNONYMS>  (3184) 


>  <SPECTRUM TYPE>  (3184) 
MS1

>  <INSTRUMENT TYPE>  (3184) 
EI-B

>  <INSTRUMENT>  (3184) 
HITACHI RMU-7M

>  <ION MODE>  (3184) 
P

>  <INCHIKEY>  (3184) 
JRLPEMVDPFPYPJ-UHFFFAOYSA-N

>  <FORMULA>  (3184) 
C9H12

>  <EXACT MASS>  (3184) 
120.093900384

>  <MW>  (3184) 
120

>  <ID>  (3184) 
JP007676

>  <CONTRIBUTOR>  (3184) 
University of Tokyo Team, {Faculty of Engineering, University of Tokyo

>  <COMMENT>  (3184) 
cas=622-96-8
SMILES=CCc(c1)ccc(C)c1
InChI=InChI=1S/C9H12/c1-3-9-6-4-8(2)5-7-9/h4-7H,3H2,1-2H3
computed SMILES=C=1C=C(C=CC1C)CC
accession=JP007676
date=2016.01.19 (Created 2008.10.21, modified 2011.05.06)
author=TAJIMA S, GUNMA COLLEGE OF TECHNOLOGY
license=CC BY-NC-SA
exact mass=120.0939
ionization energy=70 eV
ion type=[M]+*
computed spectral entropy=2.242315591379643
computed normalized entropy=0.696614505615934
SPLASH=splash10-0a4i-4900000000-c20a53d296cf4fb33628
submitter=submitter = University of Tokyo Team (Faculty of Engineering, University of Tokyo)
MoNA Rating=3.75

>  <NUM PEAKS>  (3184) 
25

>  <MASS SPECTRAL PEAKS>  (3184) 
27 3.26
39 6.05
41 2.19
50 1.33
51 3.32
53 1.33
63 3.06
65 5.25
77 13.29
78 4.39
79 16.28
80 1.06
89 1.79
91 11.3
92 1.99
102 1.06
103 8.84
104 2.66
105 99.99
106 8.64
115 2.33
117 2.26
119 1.66
120 23.46
121 2.26

$$$$

     RDKit          2D

  5  4  0  0  0  0  0  0  0  0999 V2000
   -0.0000   -0.0000    0.0000 C   0  0  0  0  0  0  0  0  0  0  0  0
    0.0000    1.5000    0.0000 C   0  0  0  0  0  0  0  0  0  0  0  0
   -1.2990    2.2500    0.0000 C   0  0  0  0  0  0  0  0  0  0  0  0
   -1.2990    3.7500    0.0000 N   0  0  0  0  0  0  0  0  0  0  0  0
   -2.5981    1.5000    0.0000 O   0  0  0  0  0  0  0  0  0  0  0  0
  2  1  2  0
  3  2  1  0
  4  3  2  0
  5  3  1  0
M  END
>  <NAME>  (3185) 
ACRYLAMIDE

>  <SYNONYMS>  (3185) 
2-PROPENAMIDE

>  <SPECTRUM TYPE>  (3185) 
MS1

>  <INSTRUMENT TYPE>  (3185) 
EI-B

>  <INSTRUMENT>  (3185) 
HITACHI RMU-7M

>  <ION MODE>  (3185) 
P

>  <INCHIKEY>  (3185) 
HRPVXLWXLXDGHG-UHFFFAOYSA-N

>  <FORMULA>  (3185) 
C3H5NO

>  <EXACT MASS>  (3185) 
71.03711378

>  <MW>  (3185) 
71

>  <ID>  (3185) 
JP007675

>  <CONTRIBUTOR>  (3185) 
University of Tokyo Team, {Faculty of Engineering, University of Tokyo

>  <COMMENT>  (3185) 
SMILES=C=CC(N)=O
cas=79-06-1
InChI=InChI=1S/C3H5NO/c1-2-3(4)5/h2H,1H2,(H2,4,5)
computed SMILES=N=C(O)C=C
accession=JP007675
date=2016.01.19 (Created 2008.10.21, modified 2011.05.06)
author=TAJIMA S, GUNMA COLLEGE OF TECHNOLOGY
license=CC BY-NC-SA
exact mass=71.03711
ionization energy=70 eV
ion type=[M]+*
computed spectral entropy=2.7191929593948
computed normalized entropy=0.8160342353212372
SPLASH=splash10-0fbc-9000000000-5172c72b521a27969d00
submitter=submitter = University of Tokyo Team (Faculty of Engineering, University of Tokyo)
MoNA Rating=3.75

>  <NUM PEAKS>  (3185) 
28

>  <MASS SPECTRAL PEAKS>  (3185) 
16 6.72
17 4.43
25 8.17
26 57.97
27 99.6
28 15.76
29 9.88
30 12.12
37 2.9
38 5.27
39 7.91
40 3.69
41 8.83
42 7.25
43 52.83
44 99.99
45 5.33
50 5.27
51 18.05
52 33.07
53 36.1
54 6.46
55 78.92
56 4.61
57 2.64
70 5.53
71 74.31
72 6.46

$$$$

     RDKit          2D

 17 18  0  0  0  0  0  0  0  0999 V2000
    4.5466    2.1950    0.0000 C   0  0  0  0  0  0  0  0  0  0  0  0
   -7.1447    5.9450    0.0000 C   0  0  0  0  0  0  0  0  0  0  0  0
    4.5471    3.6958    0.0000 C   0  0  0  0  0  0  0  0  0  0  0  0
    3.2471    1.4442    0.0000 C   0  0  0  0  0  0  0  0  0  0  0  0
   -7.1452    4.4442    0.0000 C   0  0  0  0  0  0  0  0  0  0  0  0
   -5.8452    6.6958    0.0000 C   0  0  0  0  0  0  0  0  0  0  0  0
    3.2481    4.4458    0.0000 C   0  0  0  0  0  0  0  0  0  0  0  0
    1.9481    2.1942    0.0000 C   0  0  0  0  0  0  0  0  0  0  0  0
   -5.8462    3.6942    0.0000 C   0  0  0  0  0  0  0  0  0  0  0  0
   -4.5462    5.9458    0.0000 C   0  0  0  0  0  0  0  0  0  0  0  0
    0.6495    4.4450    0.0000 C   0  0  0  0  0  0  0  0  0  0  0  0
   -3.2476    3.6950    0.0000 C   0  0  0  0  0  0  0  0  0  0  0  0
    1.9486    3.6950    0.0000 C   0  0  0  0  0  0  0  0  0  0  0  0
   -4.5466    4.4450    0.0000 C   0  0  0  0  0  0  0  0  0  0  0  0
   -0.6495    3.6950    0.0000 C   0  0  0  0  0  0  0  0  0  0  0  0
   -0.6495    2.1950    0.0000 O   0  0  0  0  0  0  0  0  0  0  0  0
   -1.9486    4.4450    0.0000 O   0  0  0  0  0  0  0  0  0  0  0  0
  3  1  2  0
  4  1  1  0
  5  2  2  0
  6  2  1  0
  7  3  1  0
  8  4  2  0
  9  5  1  0
 10  6  2  0
 13  7  2  0
 13  8  1  0
 13 11  1  0
 14  9  2  0
 14 10  1  0
 14 12  1  0
 15 11  1  0
 16 15  2  0
 17 12  1  0
 17 15  1  0
M  END
>  <NAME>  (3186) 
PHENYLACETIC ACID BENZYL ESTER

>  <SYNONYMS>  (3186) 


>  <SPECTRUM TYPE>  (3186) 
MS1

>  <INSTRUMENT TYPE>  (3186) 
EI-B

>  <INSTRUMENT>  (3186) 
HITACHI RMU-7M

>  <ION MODE>  (3186) 
P

>  <INCHIKEY>  (3186) 
MIYFJEKZLFWKLZ-UHFFFAOYSA-N

>  <FORMULA>  (3186) 
C15H14O2

>  <EXACT MASS>  (3186) 
226.099379688

>  <MW>  (3186) 
226

>  <ID>  (3186) 
JP007674

>  <CONTRIBUTOR>  (3186) 
University of Tokyo Team, {Faculty of Engineering, University of Tokyo

>  <COMMENT>  (3186) 
SMILES=O=C(OCc(c2)cccc2)Cc(c1)cccc1
cas=102-16-9
InChI=InChI=1S/C15H14O2/c16-15(11-13-7-3-1-4-8-13)17-12-14-9-5-2-6-10-14/h1-10H,11-12H2
computed SMILES=O=C(OCC=1C=CC=CC1)CC=2C=CC=CC2
accession=JP007674
date=2016.01.19 (Created 2008.10.21, modified 2011.05.06)
author=TAJIMA S, GUNMA COLLEGE OF TECHNOLOGY
license=CC BY-NC-SA
exact mass=226.09938
ionization energy=70 eV
ion type=[M]+*
computed spectral entropy=3.099994894032726
computed normalized entropy=0.8522120873326348
SPLASH=splash10-056r-9300000000-7ee5d43898f2268fb6d9
submitter=submitter = University of Tokyo Team (Faculty of Engineering, University of Tokyo)
MoNA Rating=3.75

>  <NUM PEAKS>  (3186) 
38

>  <MASS SPECTRAL PEAKS>  (3186) 
26 2.02
27 9.98
28 3.36
29 7.74
31 3.36
38 4.48
39 16.37
41 6.05
43 5.83
50 19.06
51 38.45
52 10.31
53 6.73
55 7.06
57 3.92
62 4.6
63 10.2
65 20.18
74 6.5
77 83.18
78 17.94
79 99.99
80 8.97
89 8.74
90 7.4
91 60.99
92 13.68
105 22.31
106 16.59
107 39.24
108 58.63
109 5.04
111 5.16
115 5.72
117 21.3
118 14.24
128 2.8
136 3.14

$$$$

     RDKit          2D

 14 13  0  0  0  0  0  0  0  0999 V2000
    3.8971    6.0000    0.0000 C   0  0  0  0  0  0  0  0  0  0  0  0
  -10.3923    6.7500    0.0000 C   0  0  0  0  0  0  0  0  0  0  0  0
    2.5981    6.7500    0.0000 C   0  0  0  0  0  0  0  0  0  0  0  0
   -9.0933    6.0000    0.0000 C   0  0  0  0  0  0  0  0  0  0  0  0
   -2.5981    6.7500    0.0000 C   0  0  0  0  0  0  0  0  0  0  0  0
   -3.8971    6.0000    0.0000 C   0  0  0  0  0  0  0  0  0  0  0  0
   -1.2990    6.0000    0.0000 C   0  0  0  0  0  0  0  0  0  0  0  0
   -5.1962    6.7500    0.0000 C   0  0  0  0  0  0  0  0  0  0  0  0
    0.0000    6.7500    0.0000 C   0  0  0  0  0  0  0  0  0  0  0  0
   -6.4952    6.0000    0.0000 C   0  0  0  0  0  0  0  0  0  0  0  0
    0.0000    8.2500    0.0000 O   0  0  0  0  0  0  0  0  0  0  0  0
   -6.4952    4.5000    0.0000 O   0  0  0  0  0  0  0  0  0  0  0  0
    1.2990    6.0000    0.0000 O   0  0  0  0  0  0  0  0  0  0  0  0
   -7.7942    6.7500    0.0000 O   0  0  0  0  0  0  0  0  0  0  0  0
  3  1  1  0
  4  2  1  0
  6  5  1  0
  7  5  1  0
  8  6  1  0
  9  7  1  0
 10  8  1  0
 11  9  2  0
 12 10  2  0
 13  3  1  0
 13  9  1  0
 14  4  1  0
 14 10  1  0
M  END
>  <NAME>  (3187) 
DIETHYL HEXANEDIOATE

>  <SYNONYMS>  (3187) 
ADIPIC ACID DIETHYL ESTER

>  <SPECTRUM TYPE>  (3187) 
MS1

>  <INSTRUMENT TYPE>  (3187) 
EI-B

>  <INSTRUMENT>  (3187) 
HITACHI RMU-7M

>  <ION MODE>  (3187) 
P

>  <INCHIKEY>  (3187) 
VIZORQUEIQEFRT-UHFFFAOYSA-N

>  <FORMULA>  (3187) 
C10H18O4

>  <EXACT MASS>  (3187) 
202.120509056

>  <MW>  (3187) 
202

>  <ID>  (3187) 
JP007673

>  <CONTRIBUTOR>  (3187) 
University of Tokyo Team, {Faculty of Engineering, University of Tokyo

>  <COMMENT>  (3187) 
SMILES=CCOC(=O)CCCCC(=O)OCC
cas=141-28-6
InChI=InChI=1S/C10H18O4/c1-3-13-9(11)7-5-6-8-10(12)14-4-2/h3-8H2,1-2H3
computed SMILES=O=C(OCC)CCCCC(=O)OCC
accession=JP007673
date=2016.01.19 (Created 2008.10.21, modified 2011.05.06)
author=TAJIMA S, GUNMA COLLEGE OF TECHNOLOGY
license=CC BY-NC-SA
exact mass=202.12051
ionization energy=70 eV
ion type=[M]+*
computed spectral entropy=3.281100006788334
computed normalized entropy=0.8670548582923384
SPLASH=splash10-06vi-9400000000-0d2a4b49e980474cc78b
submitter=submitter = University of Tokyo Team (Faculty of Engineering, University of Tokyo)
MoNA Rating=3.75

>  <NUM PEAKS>  (3187) 
44

>  <MASS SPECTRAL PEAKS>  (3187) 
15 3.93
26 3.6
27 34.27
28 22.7
29 99.99
30 3.37
31 5.84
39 10.11
41 26.52
42 18.65
43 34.38
44 2.92
45 17.08
53 3.37
54 5.62
55 82.25
56 22.36
57 6.74
59 12.47
60 17.98
61 11.24
68 3.37
69 8.54
70 10
73 39.78
74 4.49
82 4.38
83 31.57
84 6.74
87 10.11
88 15.28
99 4.49
100 8.2
101 32.58
102 3.37
110 3.37
111 95.51
112 7.75
115 39.66
128 46.29
129 17.42
156 4.27
157 51.35
158 4.49

$$$$

     RDKit          2D

  5  4  0  0  0  0  0  0  0  0999 V2000
   -3.8971    2.2500    0.0000 C   0  0  0  0  0  0  0  0  0  0  0  0
    1.2990    2.2500    0.0000 C   0  0  0  0  0  0  0  0  0  0  0  0
   -2.5981    1.5000    0.0000 C   0  0  0  0  0  0  0  0  0  0  0  0
    0.0000    1.5000    0.0000 C   0  0  0  0  0  0  0  0  0  0  0  0
   -1.2990    2.2500    0.0000 O   0  0  0  0  0  0  0  0  0  0  0  0
  3  1  2  0
  4  2  1  0
  5  3  1  0
  5  4  1  0
M  END
>  <NAME>  (3188) 
ETHYL VINYL ETHER

>  <SYNONYMS>  (3188) 
ETHOXYETHYLENE

>  <SPECTRUM TYPE>  (3188) 
MS1

>  <INSTRUMENT TYPE>  (3188) 
EI-B

>  <INSTRUMENT>  (3188) 
HITACHI RMU-7M

>  <ION MODE>  (3188) 
P

>  <INCHIKEY>  (3188) 
FJKIXWOMBXYWOQ-UHFFFAOYSA-N

>  <FORMULA>  (3188) 
C4H8O

>  <EXACT MASS>  (3188) 
72.057514876

>  <MW>  (3188) 
72

>  <ID>  (3188) 
JP007672

>  <CONTRIBUTOR>  (3188) 
University of Tokyo Team, {Faculty of Engineering, University of Tokyo

>  <COMMENT>  (3188) 
SMILES=CCOC=C
cas=109-92-2
InChI=InChI=1S/C4H8O/c1-3-5-4-2/h3H,1,4H2,2H3
computed SMILES=O(C=C)CC
accession=JP007672
date=2016.01.19 (Created 2008.10.21, modified 2011.05.06)
author=TAJIMA S, GUNMA COLLEGE OF TECHNOLOGY
license=CC BY-NC-SA
exact mass=72.05751
ionization energy=70 eV
ion type=[M]+*
computed spectral entropy=2.16855364380137
computed normalized entropy=0.7654042885089356
SPLASH=splash10-002f-9000000000-55335b759dbb362989c0
submitter=submitter = University of Tokyo Team (Faculty of Engineering, University of Tokyo)
MoNA Rating=3.75

>  <NUM PEAKS>  (3188) 
17

>  <MASS SPECTRAL PEAKS>  (3188) 
14 5.24
15 14.97
26 9.53
27 51.83
28 9.16
29 62.46
30 1.88
31 11.15
39 1.47
41 3.72
42 8.48
43 99.99
44 98.9
45 12.62
57 1.99
72 46.28
73 2.09

$$$$

     RDKit          2D

  5  4  0  0  0  0  0  0  0  0999 V2000
    0.0000    1.5000    0.0000 C   0  0  0  0  0  0  0  0  0  0  0  0
   -1.2990    0.7500    0.0000 Cl  0  0  0  0  0  0  0  0  0  0  0  0
    0.7500    0.2010    0.0000 Cl  0  0  0  0  0  0  0  0  0  0  0  0
    1.2990    2.2500    0.0000 Cl  0  0  0  0  0  0  0  0  0  0  0  0
   -0.7500    2.7990    0.0000 Cl  0  0  0  0  0  0  0  0  0  0  0  0
  2  1  1  0
  3  1  1  0
  4  1  1  0
  5  1  1  0
M  END
>  <NAME>  (3189) 
CARBON TETRACHLORIDE

>  <SYNONYMS>  (3189) 


>  <SPECTRUM TYPE>  (3189) 
MS1

>  <INSTRUMENT TYPE>  (3189) 
EI-B

>  <INSTRUMENT>  (3189) 
HITACHI RMU-7M

>  <ION MODE>  (3189) 
P

>  <INCHIKEY>  (3189) 
VZGDMQKNWNREIO-UHFFFAOYSA-N

>  <FORMULA>  (3189) 
CCl4

>  <EXACT MASS>  (3189) 
151.87541072

>  <MW>  (3189) 
152

>  <ID>  (3189) 
JP007671

>  <CONTRIBUTOR>  (3189) 
University of Tokyo Team, {Faculty of Engineering, University of Tokyo

>  <COMMENT>  (3189) 
SMILES=ClC(Cl)(Cl)Cl
cas=56-23-5
InChI=InChI=1S/CCl4/c2-1(3,4)5
computed SMILES=ClC(Cl)(Cl)Cl
accession=JP007671
date=2016.01.19 (Created 2008.10.21, modified 2011.05.06)
author=TAJIMA S, GUNMA COLLEGE OF TECHNOLOGY
license=CC BY-NC-SA
exact mass=151.87541
ionization energy=70 eV
ion type=[M]+*
computed spectral entropy=1.8849347030698198
computed normalized entropy=0.7348818399031825
SPLASH=splash10-014i-3900000000-388a28717a2eebbdd5b4
submitter=submitter = University of Tokyo Team (Faculty of Engineering, University of Tokyo)
MoNA Rating=3.75

>  <NUM PEAKS>  (3189) 
13

>  <MASS SPECTRAL PEAKS>  (3189) 
12 1.76
35 10.9
37 3.29
47 20.75
49 7.05
82 25.8
83 3.04
84 16.91
86 2.4
117 99.99
119 94.47
121 30.29
123 3.21

$$$$

     RDKit          2D

 11 10  0  0  0  0  0  0  0  0999 V2000
    2.9228    3.1875    0.0000 C   0  0  0  0  0  0  0  0  0  0  0  0
   -2.6082    5.0866    0.0000 C   0  0  0  0  0  0  0  0  0  0  0  0
   -4.5365    5.0866    0.0000 C   0  0  0  0  0  0  0  0  0  0  0  0
   -6.1704    3.9375    0.0000 C   0  0  0  0  0  0  0  0  0  0  0  0
   -2.2733    3.1875    0.0000 C   0  0  0  0  0  0  0  0  0  0  0  0
   -0.9743    3.9375    0.0000 C   0  0  0  0  0  0  0  0  0  0  0  0
    1.6238    3.9375    0.0000 C   0  0  0  0  0  0  0  0  0  0  0  0
   -3.5724    3.9375    0.0000 C   0  0  0  0  0  0  0  0  0  0  0  0
    1.6238    5.4375    0.0000 O   0  0  0  0  0  0  0  0  0  0  0  0
   -4.8714    3.1875    0.0000 O   0  0  0  0  0  0  0  0  0  0  0  0
    0.3248    3.1875    0.0000 O   0  0  0  0  0  0  0  0  0  0  0  0
  6  5  1  0
  7  1  1  0
  8  2  1  0
  8  3  1  0
  8  5  1  0
  9  7  2  0
 10  4  1  0
 10  8  1  0
 11  6  1  0
 11  7  1  0
M  END
>  <NAME>  (3190) 
ACETIC ACID (3-METHOXY-3-METHYL)BUTYL ESTER

>  <SYNONYMS>  (3190) 


>  <SPECTRUM TYPE>  (3190) 
MS1

>  <INSTRUMENT TYPE>  (3190) 
EI-B

>  <INSTRUMENT>  (3190) 
HITACHI RMU-7M

>  <ION MODE>  (3190) 
P

>  <INCHIKEY>  (3190) 
RYNQKSJRFHJZTK-UHFFFAOYSA-N

>  <FORMULA>  (3190) 
C8H16O3

>  <EXACT MASS>  (3190) 
160.10994437199997

>  <MW>  (3190) 
160

>  <ID>  (3190) 
JP007670

>  <CONTRIBUTOR>  (3190) 
University of Tokyo Team, {Faculty of Engineering, University of Tokyo

>  <COMMENT>  (3190) 
SMILES=COC(C)(C)CCOC(C)=O
InChI=InChI=1S/C8H16O3/c1-7(9)11-6-5-8(2,3)10-4/h5-6H2,1-4H3
computed SMILES=O=C(OCCC(OC)(C)C)C
accession=JP007670
date=2016.01.19 (Created 2008.10.21, modified 2011.05.06)
author=TAJIMA S, GUNMA COLLEGE OF TECHNOLOGY
license=CC BY-NC-SA
exact mass=160.10994
ionization energy=70 eV
ion type=[M]+*
computed spectral entropy=2.3587653391916676
computed normalized entropy=0.7156802460466711
SPLASH=splash10-00dl-9000000000-58bca6bbe50c3a21365d
submitter=submitter = University of Tokyo Team (Faculty of Engineering, University of Tokyo)
MoNA Rating=3.75

>  <NUM PEAKS>  (3190) 
27

>  <MASS SPECTRAL PEAKS>  (3190) 
15 7.04
27 4.69
28 1.73
29 6.54
31 1.73
33 1.36
39 5.56
40 1.3
41 19.38
42 5.74
43 52.16
44 1.54
45 5.99
53 1.98
55 19.63
56 2.59
57 2.47
67 1.85
68 1.98
69 15.8
70 2.04
71 1.6
72 1.23
73 99.99
74 4.38
85 31.36
86 2.22

$$$$

     RDKit          2D

  9  9  0  0  0  0  0  0  0  0999 V2000
   -0.0000   -1.5002    0.0000 C   0  0  0  0  0  0  0  0  0  0  0  0
   -2.5989    3.0000    0.0000 C   0  0  0  0  0  0  0  0  0  0  0  0
    2.5989    3.0000    0.0000 C   0  0  0  0  0  0  0  0  0  0  0  0
   -1.3000    0.7498    0.0000 C   0  0  0  0  0  0  0  0  0  0  0  0
    1.3000    0.7498    0.0000 C   0  0  0  0  0  0  0  0  0  0  0  0
   -0.0000    2.9998    0.0000 C   0  0  0  0  0  0  0  0  0  0  0  0
   -0.0000   -0.0002    0.0000 C   0  0  0  0  0  0  0  0  0  0  0  0
   -1.3000    2.2498    0.0000 C   0  0  0  0  0  0  0  0  0  0  0  0
    1.3000    2.2498    0.0000 C   0  0  0  0  0  0  0  0  0  0  0  0
  7  1  1  0
  7  4  2  0
  7  5  1  0
  8  2  1  0
  8  4  1  0
  8  6  2  0
  9  3  1  0
  9  5  2  0
  9  6  1  0
M  END
>  <NAME>  (3191) 
1,3,5-TRIMETHYLBENZENE

>  <SYNONYMS>  (3191) 
MESITYLENE

>  <SPECTRUM TYPE>  (3191) 
MS1

>  <INSTRUMENT TYPE>  (3191) 
EI-B

>  <INSTRUMENT>  (3191) 
HITACHI RMU-7M

>  <ION MODE>  (3191) 
P

>  <INCHIKEY>  (3191) 
AUHZEENZYGFFBQ-UHFFFAOYSA-N

>  <FORMULA>  (3191) 
C9H12

>  <EXACT MASS>  (3191) 
120.093900384

>  <MW>  (3191) 
120

>  <ID>  (3191) 
JP007669

>  <CONTRIBUTOR>  (3191) 
University of Tokyo Team, {Faculty of Engineering, University of Tokyo

>  <COMMENT>  (3191) 
SMILES=Cc(c1)cc(C)cc(C)1
cas=108-67-8
InChI=InChI=1S/C9H12/c1-7-4-8(2)6-9(3)5-7/h4-6H,1-3H3
computed SMILES=C=1C(=CC(=CC1C)C)C
accession=JP007669
license=CC BY-NC-SA
date=2016.01.19 (Created 2008.10.21, modified 2011.05.06)
author=TAJIMA S, GUNMA COLLEGE OF TECHNOLOGY
exact mass=120.0939
ionization energy=70 eV
ion type=[M]+*
computed spectral entropy=2.541354408874861
computed normalized entropy=0.733279880565013
SPLASH=splash10-0a4i-4900000000-915fdce919b5b36327c3
submitter=submitter = University of Tokyo Team (Faculty of Engineering, University of Tokyo)
MoNA Rating=3.75

>  <NUM PEAKS>  (3191) 
32

>  <MASS SPECTRAL PEAKS>  (3191) 
27 5.41
38 1.09
39 9.79
40 1.34
41 4.93
50 2.98
51 7.48
52 2.62
53 3.53
57.5 1.46
58 1.95
59 2.31
62 1.34
63 4.2
65 5.41
74 1.09
77 13.38
78 4.62
79 10.89
89 1.22
91 9.91
92 1.52
102 1.16
103 7.18
104 2.62
105 99.99
106 8.76
115 3.35
117 2.74
119 12.1
120 49.82
121 4.87

$$$$

     RDKit          2D

 11 10  0  0  0  0  0  0  0  0999 V2000
    2.5981    4.5000    0.0000 C   0  0  0  0  0  0  0  0  0  0  0  0
   -7.7942    4.5000    0.0000 C   0  0  0  0  0  0  0  0  0  0  0  0
    1.2990    5.2500    0.0000 C   0  0  0  0  0  0  0  0  0  0  0  0
   -6.4952    5.2500    0.0000 C   0  0  0  0  0  0  0  0  0  0  0  0
   -2.5981    4.5000    0.0000 C   0  0  0  0  0  0  0  0  0  0  0  0
   -1.2990    5.2500    0.0000 C   0  0  0  0  0  0  0  0  0  0  0  0
   -3.8971    5.2500    0.0000 C   0  0  0  0  0  0  0  0  0  0  0  0
   -1.2990    6.7500    0.0000 O   0  0  0  0  0  0  0  0  0  0  0  0
   -3.8971    6.7500    0.0000 O   0  0  0  0  0  0  0  0  0  0  0  0
    0.0000    4.5000    0.0000 O   0  0  0  0  0  0  0  0  0  0  0  0
   -5.1962    4.5000    0.0000 O   0  0  0  0  0  0  0  0  0  0  0  0
  3  1  1  0
  4  2  1  0
  6  5  1  0
  7  5  1  0
  8  6  2  0
  9  7  2  0
 10  3  1  0
 10  6  1  0
 11  4  1  0
 11  7  1  0
M  END
>  <NAME>  (3192) 
DIETHYL MALONATE

>  <SYNONYMS>  (3192) 
MALONIC ACID DIETHYL ESTER

>  <SPECTRUM TYPE>  (3192) 
MS1

>  <INSTRUMENT TYPE>  (3192) 
EI-B

>  <INSTRUMENT>  (3192) 
HITACHI RMU-7M

>  <ION MODE>  (3192) 
P

>  <INCHIKEY>  (3192) 
IYXGSMUGOJNHAZ-UHFFFAOYSA-N

>  <FORMULA>  (3192) 
C7H12O4

>  <EXACT MASS>  (3192) 
160.073558864

>  <MW>  (3192) 
160

>  <ID>  (3192) 
JP007668

>  <CONTRIBUTOR>  (3192) 
University of Tokyo Team, {Faculty of Engineering, University of Tokyo

>  <COMMENT>  (3192) 
SMILES=CCOC(=O)CC(=O)OCC
cas=105-53-3
InChI=InChI=1S/C7H12O4/c1-3-10-6(8)5-7(9)11-4-2/h3-5H2,1-2H3
computed SMILES=O=C(OCC)CC(=O)OCC
accession=JP007668
date=2016.01.19 (Created 2008.10.21, modified 2011.05.06)
author=TAJIMA S, GUNMA COLLEGE OF TECHNOLOGY
license=CC BY-NC-SA
exact mass=160.07356
ionization energy=70 eV
ion type=[M]+*
computed spectral entropy=2.9037300041398337
computed normalized entropy=0.8378393754106055
SPLASH=splash10-00pl-9100000000-686a923858ceb77f2ab3
submitter=submitter = University of Tokyo Team (Faculty of Engineering, University of Tokyo)
MoNA Rating=3.75

>  <NUM PEAKS>  (3192) 
32

>  <MASS SPECTRAL PEAKS>  (3192) 
14 4.55
15 9.09
19 1.82
26 7.45
27 37.09
28 8.18
29 99.99
30 3.64
31 59.36
40 7.18
41 11.36
42 35.73
43 69.82
44 13.64
45 48.73
46 9.45
55 3.55
60 13.55
61 5.91
68 7.36
69 30.82
70 6.45
73 2.27
86 9.27
87 6.91
88 15.91
105 3.55
114 3.18
115 48.73
116 2.55
133 29.09
134 1.36

$$$$

     RDKit          2D

  7  7  0  0  0  0  0  0  0  0999 V2000
   -1.3000    0.7500    0.0000 C   0  0  0  0  0  0  0  0  0  0  0  0
    0.0000    1.5000    0.0000 C   0  0  0  0  0  0  0  0  0  0  0  0
   -1.3000   -0.7500    0.0000 C   0  0  0  0  0  0  0  0  0  0  0  0
    1.3000    0.7500    0.0000 C   0  0  0  0  0  0  0  0  0  0  0  0
    0.0000   -1.5000    0.0000 C   0  0  0  0  0  0  0  0  0  0  0  0
    1.3000   -0.7500    0.0000 C   0  0  0  0  0  0  0  0  0  0  0  0
    2.5989   -1.5002    0.0000 I   0  0  0  0  0  0  0  0  0  0  0  0
  2  1  2  0
  3  1  1  0
  4  2  1  0
  5  3  2  0
  6  4  2  0
  6  5  1  0
  7  6  1  0
M  END
>  <NAME>  (3193) 
IODOBENZENE

>  <SYNONYMS>  (3193) 


>  <SPECTRUM TYPE>  (3193) 
MS1

>  <INSTRUMENT TYPE>  (3193) 
EI-B

>  <INSTRUMENT>  (3193) 
HITACHI RMU-7M

>  <ION MODE>  (3193) 
P

>  <INCHIKEY>  (3193) 
SNHMUERNLJLMHN-UHFFFAOYSA-N

>  <FORMULA>  (3193) 
C6H5I

>  <EXACT MASS>  (3193) 
203.94359816

>  <MW>  (3193) 
204

>  <ID>  (3193) 
JP007667

>  <CONTRIBUTOR>  (3193) 
University of Tokyo Team, {Faculty of Engineering, University of Tokyo

>  <COMMENT>  (3193) 
SMILES=c(c1)ccc(I)c1
cas=591-50-4
InChI=InChI=1S/C6H5I/c7-6-4-2-1-3-5-6/h1-5H
computed SMILES=IC=1C=CC=CC1
accession=JP007667
license=CC BY-NC-SA
date=2016.01.19 (Created 2008.10.21, modified 2011.05.06)
author=TAJIMA S, GUNMA COLLEGE OF TECHNOLOGY
exact mass=203.94359
ionization energy=70 eV
ion type=[M]+*
computed spectral entropy=1.8541510112027113
computed normalized entropy=0.6414922253988204
SPLASH=splash10-0ufr-9050000000-600daa784c7ec5f6720e
submitter=submitter = University of Tokyo Team (Faculty of Engineering, University of Tokyo)
MoNA Rating=3.75

>  <NUM PEAKS>  (3193) 
18

>  <MASS SPECTRAL PEAKS>  (3193) 
27 1.85
37 1.85
38 1.93
39 2.02
49 1.93
50 17.98
51 31.85
52 1.26
73 1.68
74 6.55
75 3.36
76 4.2
77 79.83
78 5.55
102 2.18
127 3.28
204 99.99
205 6.72

$$$$

     RDKit          2D

  6  6  0  0  0  0  0  0  0  0999 V2000
    2.0279    0.1311    0.0000 C   0  0  0  0  0  0  0  0  0  0  0  0
    1.2779   -1.1679    0.0000 C   0  0  0  0  0  0  0  0  0  0  0  0
    0.9958    1.2235    0.0000 C   0  0  0  0  0  0  0  0  0  0  0  0
   -0.1745   -0.8836    0.0000 C   0  0  0  0  0  0  0  0  0  0  0  0
   -0.3540    0.6056    0.0000 C   0  0  0  0  0  0  0  0  0  0  0  0
   -1.6625    1.3389    0.0000 O   0  0  0  0  0  0  0  0  0  0  0  0
  2  1  1  0
  3  1  1  0
  4  2  1  0
  5  3  1  0
  5  4  1  0
  6  5  2  0
M  END
>  <NAME>  (3194) 
CYCLOPENTANONE

>  <SYNONYMS>  (3194) 


>  <SPECTRUM TYPE>  (3194) 
MS1

>  <INSTRUMENT TYPE>  (3194) 
EI-B

>  <INSTRUMENT>  (3194) 
HITACHI RMU-7M

>  <ION MODE>  (3194) 
P

>  <INCHIKEY>  (3194) 
BGTOWKSIORTVQH-UHFFFAOYSA-N

>  <FORMULA>  (3194) 
C5H8O

>  <EXACT MASS>  (3194) 
84.057514876

>  <MW>  (3194) 
84

>  <ID>  (3194) 
JP007666

>  <CONTRIBUTOR>  (3194) 
University of Tokyo Team, {Faculty of Engineering, University of Tokyo

>  <COMMENT>  (3194) 
SMILES=O=C(C1)CCC1
cas=120-92-3
InChI=InChI=1S/C5H8O/c6-5-3-1-2-4-5/h1-4H2
computed SMILES=O=C1CCCC1
accession=JP007666
date=2016.01.19 (Created 2008.10.21, modified 2011.05.06)
author=TAJIMA S, GUNMA COLLEGE OF TECHNOLOGY
license=CC BY-NC-SA
exact mass=84.05751
ionization energy=70 eV
ion type=[M]+*
computed spectral entropy=2.3465685001445675
computed normalized entropy=0.7707509299551234
SPLASH=splash10-0a6u-9000000000-3c7c14d819f4199b4735
submitter=submitter = University of Tokyo Team (Faculty of Engineering, University of Tokyo)
MoNA Rating=3.75

>  <NUM PEAKS>  (3194) 
21

>  <MASS SPECTRAL PEAKS>  (3194) 
15 1.76
26 10.2
27 26.38
28 67.06
29 8.68
37 1.64
38 3.52
39 23.45
40 4.81
41 52.29
42 15.94
43 3.63
50 3.52
51 2.81
53 3.52
55 99.99
56 30.72
57 1.76
83 1.17
84 38.69
85 2.46

$$$$

     RDKit          2D

  9  8  0  0  0  0  0  0  0  0999 V2000
    2.5981    4.5000    0.0000 C   0  0  0  0  0  0  0  0  0  0  0  0
   -7.7942    4.5000    0.0000 C   0  0  0  0  0  0  0  0  0  0  0  0
    1.2990    5.2500    0.0000 C   0  0  0  0  0  0  0  0  0  0  0  0
   -6.4952    5.2500    0.0000 C   0  0  0  0  0  0  0  0  0  0  0  0
    0.0000    4.5000    0.0000 C   0  0  0  0  0  0  0  0  0  0  0  0
   -5.1962    4.5000    0.0000 C   0  0  0  0  0  0  0  0  0  0  0  0
   -1.2990    5.2500    0.0000 C   0  0  0  0  0  0  0  0  0  0  0  0
   -3.8971    5.2500    0.0000 C   0  0  0  0  0  0  0  0  0  0  0  0
   -2.5981    4.5000    0.0000 O   0  0  0  0  0  0  0  0  0  0  0  0
  3  1  1  0
  4  2  1  0
  5  3  1  0
  6  4  1  0
  7  5  1  0
  8  6  1  0
  9  7  1  0
  9  8  1  0
M  END
>  <NAME>  (3195) 
DIBUTYL ETHER

>  <SYNONYMS>  (3195) 
1-BUTOXYBUTANE

>  <SPECTRUM TYPE>  (3195) 
MS1

>  <INSTRUMENT TYPE>  (3195) 
EI-B

>  <INSTRUMENT>  (3195) 
HITACHI RMU-7M

>  <ION MODE>  (3195) 
P

>  <INCHIKEY>  (3195) 
DURPTKYDGMDSBL-UHFFFAOYSA-N

>  <FORMULA>  (3195) 
C8H18O

>  <EXACT MASS>  (3195) 
130.135765196

>  <MW>  (3195) 
130

>  <ID>  (3195) 
JP007665

>  <CONTRIBUTOR>  (3195) 
University of Tokyo Team, {Faculty of Engineering, University of Tokyo

>  <COMMENT>  (3195) 
SMILES=CCCCOCCCC
cas=142-96-1
InChI=InChI=1S/C8H18O/c1-3-5-7-9-8-6-4-2/h3-8H2,1-2H3
computed SMILES=O(CCCC)CCCC
accession=JP007665
date=2016.01.19 (Created 2008.10.21, modified 2011.05.06)
author=TAJIMA S, GUNMA COLLEGE OF TECHNOLOGY
license=CC BY-NC-SA
exact mass=130.13577
ionization energy=70 eV
ion type=[M]+*
computed spectral entropy=1.9950473628418985
computed normalized entropy=0.7041641841152902
SPLASH=splash10-0a4i-9000000000-16133cf2a4f6d65be5ca
submitter=submitter = University of Tokyo Team (Faculty of Engineering, University of Tokyo)
MoNA Rating=3.75

>  <NUM PEAKS>  (3195) 
17

>  <MASS SPECTRAL PEAKS>  (3195) 
18 1.32
27 9.31
28 4.4
29 26.73
31 2.45
39 5.91
41 37.86
42 2.2
43 3.14
45 2.2
55 4.53
56 15.03
57 99.99
58 4.4
73 1.26
87 12.33
101 4.4

$$$$

     RDKit          2D

 11 12  0  0  0  0  0  0  0  0999 V2000
   -4.5973    4.6952    0.0000 C   0  0  0  0  0  0  0  0  0  0  0  0
   -3.2981    5.4450    0.0000 C   0  0  0  0  0  0  0  0  0  0  0  0
   -4.5970    3.1944    0.0000 C   0  0  0  0  0  0  0  0  0  0  0  0
   -1.9987    4.6939    0.0000 C   0  0  0  0  0  0  0  0  0  0  0  0
   -3.2976    2.4433    0.0000 C   0  0  0  0  0  0  0  0  0  0  0  0
    0.5996    3.1931    0.0000 C   0  0  0  0  0  0  0  0  0  0  0  0
    3.3995    2.4426    0.0000 C   0  0  0  0  0  0  0  0  0  0  0  0
   -1.9985    3.1931    0.0000 C   0  0  0  0  0  0  0  0  0  0  0  0
    1.8987    2.4431    0.0000 C   0  0  0  0  0  0  0  0  0  0  0  0
   -0.6994    2.4431    0.0000 O   0  0  0  0  0  0  0  0  0  0  0  0
    2.6495    1.1436    0.0000 O   0  0  0  0  0  0  0  0  0  0  0  0
  2  1  2  0
  3  1  1  0
  4  2  1  0
  5  3  2  0
  8  4  2  0
  8  5  1  0
  9  6  1  0
  9  7  1  0
 10  6  1  0
 10  8  1  0
 11  7  1  0
 11  9  1  0
M  END
>  <NAME>  (3196) 
GLYCIDYL PHENYL ETHER

>  <SYNONYMS>  (3196) 
1-PHENOXY-2-OXA-3-BUTENE

>  <SPECTRUM TYPE>  (3196) 
MS1

>  <INSTRUMENT TYPE>  (3196) 
EI-B

>  <INSTRUMENT>  (3196) 
HITACHI RMU-7M

>  <ION MODE>  (3196) 
P

>  <INCHIKEY>  (3196) 
FQYUMYWMJTYZTK-UHFFFAOYSA-N

>  <FORMULA>  (3196) 
C9H10O2

>  <EXACT MASS>  (3196) 
150.06807956

>  <MW>  (3196) 
150

>  <ID>  (3196) 
JP007664

>  <CONTRIBUTOR>  (3196) 
University of Tokyo Team, {Faculty of Engineering, University of Tokyo

>  <COMMENT>  (3196) 
SMILES=c(c2)ccc(c2)OCC(C1)O1
InChI=InChI=1S/C9H10O2/c1-2-4-8(5-3-1)10-6-9-7-11-9/h1-5,9H,6-7H2
computed SMILES=O(C=1C=CC=CC1)CC2OC2
accession=JP007664
date=2016.01.19 (Created 2008.10.21, modified 2011.05.06)
author=TAJIMA S, GUNMA COLLEGE OF TECHNOLOGY
license=CC BY-NC-SA
exact mass=150.06808
ionization energy=70 eV
ion type=[M]+*
computed spectral entropy=3.1712208880592034
computed normalized entropy=0.8330711999241476
SPLASH=splash10-002f-9200000000-cab9d1aa85630eb881d3
submitter=submitter = University of Tokyo Team (Faculty of Engineering, University of Tokyo)
MoNA Rating=3.75

>  <NUM PEAKS>  (3196) 
45

>  <MASS SPECTRAL PEAKS>  (3196) 
15 5.44
26 2.42
27 17.47
28 2.42
29 20.56
31 20.68
38 4.84
39 24.73
40 4.84
41 4.72
42 1.81
43 22.49
50 6.05
51 19.95
52 1.81
55 4.17
57 17.53
62 2.42
63 6.59
64 2.54
65 21.77
66 27.21
67 2.36
74 2.12
75 4.11
76 1.81
77 64.39
78 8.77
79 26.3
80 1.81
91 16.81
92 3.63
93 2.48
94 99.99
95 8.46
99 1.81
105 2
107 31.08
108 8.46
119 4.59
120 12.09
121 2.12
150 56.35
151 5.99
152 1.93

$$$$

     RDKit          2D

 11 11  0  0  0  0  0  0  0  0999 V2000
    6.1262    0.5408    0.0000 C   0  0  0  0  0  0  0  0  0  0  0  0
   -1.6700   -0.9600    0.0000 C   0  0  0  0  0  0  0  0  0  0  0  0
   -1.6700    0.5400    0.0000 C   0  0  0  0  0  0  0  0  0  0  0  0
   -0.3700   -1.7100    0.0000 C   0  0  0  0  0  0  0  0  0  0  0  0
   -0.3700    1.2900    0.0000 C   0  0  0  0  0  0  0  0  0  0  0  0
    0.9300   -0.9600    0.0000 C   0  0  0  0  0  0  0  0  0  0  0  0
    3.5281    0.5404    0.0000 C   0  0  0  0  0  0  0  0  0  0  0  0
    4.8270    1.2906    0.0000 C   0  0  0  0  0  0  0  0  0  0  0  0
    0.9300    0.5400    0.0000 C   0  0  0  0  0  0  0  0  0  0  0  0
    4.8268    2.7906    0.0000 O   0  0  0  0  0  0  0  0  0  0  0  0
    2.2289    1.2902    0.0000 O   0  0  0  0  0  0  0  0  0  0  0  0
  3  2  2  0
  4  2  1  0
  5  3  1  0
  6  4  2  0
  8  1  1  0
  8  7  1  0
  9  5  2  0
  9  6  1  0
 10  8  1  0
 11  7  1  0
 11  9  1  0
M  END
>  <NAME>  (3197) 
1-PHENOXY-2-HYDROXYPROPANE

>  <SYNONYMS>  (3197) 


>  <SPECTRUM TYPE>  (3197) 
MS1

>  <INSTRUMENT TYPE>  (3197) 
EI-B

>  <INSTRUMENT>  (3197) 
HITACHI RMU-7M

>  <ION MODE>  (3197) 
P

>  <INCHIKEY>  (3197) 
IBLKWZIFZMJLFL-UHFFFAOYSA-N

>  <FORMULA>  (3197) 
C9H12O2

>  <EXACT MASS>  (3197) 
152.083729624

>  <MW>  (3197) 
152

>  <ID>  (3197) 
JP007663

>  <CONTRIBUTOR>  (3197) 
University of Tokyo Team, {Faculty of Engineering, University of Tokyo

>  <COMMENT>  (3197) 
SMILES=CC(O)COc(c1)cccc1
InChI=InChI=1S/C9H12O2/c1-8(10)7-11-9-5-3-2-4-6-9/h2-6,8,10H,7H2,1H3
computed SMILES=OC(C)COC=1C=CC=CC1
accession=JP007663
date=2016.01.19 (Created 2008.10.21, modified 2011.05.06)
author=TAJIMA S, GUNMA COLLEGE OF TECHNOLOGY
license=CC BY-NC-SA
exact mass=152.08373
ionization energy=70 eV
ion type=[M]+*
computed spectral entropy=2.6197510265215396
computed normalized entropy=0.7559003628652793
SPLASH=splash10-0006-9100000000-fea63ff06389eac2d04c
submitter=submitter = University of Tokyo Team (Faculty of Engineering, University of Tokyo)
MoNA Rating=3.75

>  <NUM PEAKS>  (3197) 
32

>  <MASS SPECTRAL PEAKS>  (3197) 
15 2.47
27 2.47
29 1.54
31 5.68
38 1.3
39 8.02
40 1.6
41 3.09
43 4.94
45 9.88
50 2.65
51 9.57
52 1.11
58 1.23
59 4.94
63 1.85
65 7.78
66 11.3
77 20.68
78 15.99
79 7.41
91 1.85
93 2.04
94 99.99
95 12.04
107 5.62
108 13.77
109 1.17
119 1.85
150 1.11
152 10.62
153 1.17

$$$$

     RDKit          2D

 11 11  0  0  0  0  0  0  0  0999 V2000
    6.1262    0.5408    0.0000 C   0  0  0  0  0  0  0  0  0  0  0  0
   -1.6700   -0.9600    0.0000 C   0  0  0  0  0  0  0  0  0  0  0  0
   -1.6700    0.5400    0.0000 C   0  0  0  0  0  0  0  0  0  0  0  0
   -0.3700   -1.7100    0.0000 C   0  0  0  0  0  0  0  0  0  0  0  0
   -0.3700    1.2900    0.0000 C   0  0  0  0  0  0  0  0  0  0  0  0
    0.9300   -0.9600    0.0000 C   0  0  0  0  0  0  0  0  0  0  0  0
    3.5281    0.5404    0.0000 C   0  0  0  0  0  0  0  0  0  0  0  0
    4.8270    1.2906    0.0000 C   0  0  0  0  0  0  0  0  0  0  0  0
    0.9300    0.5400    0.0000 C   0  0  0  0  0  0  0  0  0  0  0  0
    4.8268    2.7906    0.0000 O   0  0  0  0  0  0  0  0  0  0  0  0
    2.2289    1.2902    0.0000 O   0  0  0  0  0  0  0  0  0  0  0  0
  3  2  2  0
  4  2  1  0
  5  3  1  0
  6  4  2  0
  8  1  1  0
  8  7  1  0
  9  5  2  0
  9  6  1  0
 10  8  2  0
 11  7  1  0
 11  9  1  0
M  END
>  <NAME>  (3198) 
PHENOXYACETONE

>  <SYNONYMS>  (3198) 


>  <SPECTRUM TYPE>  (3198) 
MS1

>  <INSTRUMENT TYPE>  (3198) 
EI-B

>  <INSTRUMENT>  (3198) 
HITACHI RMU-7M

>  <ION MODE>  (3198) 
P

>  <INCHIKEY>  (3198) 
QWAVNXZAQASOML-UHFFFAOYSA-N

>  <FORMULA>  (3198) 
C9H10O2

>  <EXACT MASS>  (3198) 
150.06807956

>  <MW>  (3198) 
150

>  <ID>  (3198) 
JP007662

>  <CONTRIBUTOR>  (3198) 
University of Tokyo Team, {Faculty of Engineering, University of Tokyo

>  <COMMENT>  (3198) 
SMILES=CC(=O)COc(c1)cccc1
InChI=InChI=1S/C9H10O2/c1-8(10)7-11-9-5-3-2-4-6-9/h2-6H,7H2,1H3
computed SMILES=O=C(C)COC=1C=CC=CC1
accession=JP007662
date=2016.01.19 (Created 2008.10.21, modified 2011.05.06)
author=TAJIMA S, GUNMA COLLEGE OF TECHNOLOGY
license=CC BY-NC-SA
exact mass=150.06808
ionization energy=70 eV
ion type=[M]+*
computed spectral entropy=2.9883084435636884
computed normalized entropy=0.7719331636728565
SPLASH=splash10-056u-9200000000-2292704aeb63b49840d4
submitter=submitter = University of Tokyo Team (Faculty of Engineering, University of Tokyo)
MoNA Rating=3.75

>  <NUM PEAKS>  (3198) 
48

>  <MASS SPECTRAL PEAKS>  (3198) 
15 8.89
26 1.64
27 6.23
29 2.77
31 1.81
38 3.17
39 16.53
40 2.26
41 8.77
42 3.11
43 80.25
44 2.32
45 3.4
50 6.17
51 22.92
52 2.26
53 1.7
55 2.09
57 1.81
59 1.7
62 1.7
63 4.24
64 1.7
65 10.64
66 6.28
67 2.38
69 2.15
71 3.11
74 2.55
75 2.04
76 2.26
77 99.99
78 14.83
79 38.48
80 2.6
91 1.98
93 1.75
94 34.52
95 5.21
96 1.75
99 10.17
105 2.55
107 56.88
108 23.54
109 2.15
150 46.41
151 4.92
152 3.74

$$$$

     RDKit          2D

  4  3  0  0  0  0  0  0  0  0999 V2000
   -1.2990    1.5000    0.0000 C   0  0  0  0  0  0  0  0  0  0  0  0
    0.0000    2.2500    0.0000 C   0  0  0  0  0  0  0  0  0  0  0  0
   -2.5981    2.2500    0.0000 Br  0  0  0  0  0  0  0  0  0  0  0  0
    1.2990    1.5000    0.0000 Br  0  0  0  0  0  0  0  0  0  0  0  0
  2  1  1  0
  3  1  1  0
  4  2  1  0
M  END
>  <NAME>  (3199) 
1,2-DIBROMOETHANE

>  <SYNONYMS>  (3199) 


>  <SPECTRUM TYPE>  (3199) 
MS1

>  <INSTRUMENT TYPE>  (3199) 
EI-B

>  <INSTRUMENT>  (3199) 
HITACHI RMU-7M

>  <ION MODE>  (3199) 
P

>  <INCHIKEY>  (3199) 
PAAZPARNPHGIKF-UHFFFAOYSA-N

>  <FORMULA>  (3199) 
C2H4Br2

>  <EXACT MASS>  (3199) 
185.867974328

>  <MW>  (3199) 
186

>  <ID>  (3199) 
JP007661

>  <CONTRIBUTOR>  (3199) 
University of Tokyo Team, {Faculty of Engineering, University of Tokyo

>  <COMMENT>  (3199) 
SMILES=BrCCBr
cas=106-93-4
InChI=InChI=1S/C2H4Br2/c3-1-2-4/h1-2H2
computed SMILES=BrCCBr
accession=JP007661
date=2016.01.19 (Created 2008.10.21, modified 2011.05.06)
author=TAJIMA S, GUNMA COLLEGE OF TECHNOLOGY
license=CC BY-NC-SA
exact mass=185.86798
ionization energy=70 eV
ion type=[M]+*
computed spectral entropy=1.8423982086630815
computed normalized entropy=0.6374260347755822
SPLASH=splash10-0a6r-5900000000-0f8e5929b65c18ffe174
submitter=submitter = University of Tokyo Team (Faculty of Engineering, University of Tokyo)
MoNA Rating=3.75

>  <NUM PEAKS>  (3199) 
18

>  <MASS SPECTRAL PEAKS>  (3199) 
14 1.45
25 3.43
26 21.06
27 85.81
28 14.79
79 2.83
81 2.84
93 3.96
95 3.43
105 2.71
106 3.7
107 99.99
108 4.95
109 94.39
110 2.11
186 1.19
188 2.18
190 1.12

$$$$

     RDKit          2D

 10 10  0  0  0  0  0  0  0  0999 V2000
    6.1262    0.5406    0.0000 C   0  0  0  0  0  0  0  0  0  0  0  0
    6.1262   -0.9594    0.0000 C   0  0  0  0  0  0  0  0  0  0  0  0
    4.8262    1.2906    0.0000 C   0  0  0  0  0  0  0  0  0  0  0  0
    4.8262   -1.7094    0.0000 C   0  0  0  0  0  0  0  0  0  0  0  0
    3.5262    0.5406    0.0000 C   0  0  0  0  0  0  0  0  0  0  0  0
   -0.3708   -1.7100    0.0000 C   0  0  0  0  0  0  0  0  0  0  0  0
    0.9281   -0.9598    0.0000 C   0  0  0  0  0  0  0  0  0  0  0  0
    3.5262   -0.9594    0.0000 C   0  0  0  0  0  0  0  0  0  0  0  0
   -1.6700   -0.9602    0.0000 O   0  0  0  0  0  0  0  0  0  0  0  0
    2.2272   -1.7096    0.0000 O   0  0  0  0  0  0  0  0  0  0  0  0
  2  1  2  0
  3  1  1  0
  4  2  1  0
  5  3  2  0
  7  6  1  0
  8  4  2  0
  8  5  1  0
  9  6  1  0
 10  7  1  0
 10  8  1  0
M  END
>  <NAME>  (3200) 
2-PHENOXYETHANOL

>  <SYNONYMS>  (3200) 


>  <SPECTRUM TYPE>  (3200) 
MS1

>  <INSTRUMENT TYPE>  (3200) 
EI-B

>  <INSTRUMENT>  (3200) 
HITACHI RMU-7M

>  <ION MODE>  (3200) 
P

>  <INCHIKEY>  (3200) 
QCDWFXQBSFUVSP-UHFFFAOYSA-N

>  <FORMULA>  (3200) 
C8H10O2

>  <EXACT MASS>  (3200) 
138.06807956

>  <MW>  (3200) 
138

>  <ID>  (3200) 
JP007660

>  <CONTRIBUTOR>  (3200) 
University of Tokyo Team, {Faculty of Engineering, University of Tokyo

>  <COMMENT>  (3200) 
SMILES=OCCOc(c1)cccc1
cas=122-99-6
InChI=InChI=1S/C8H10O2/c9-6-7-10-8-4-2-1-3-5-8/h1-5,9H,6-7H2
computed SMILES=OCCOC=1C=CC=CC1
accession=JP007660
date=2016.01.19 (Created 2008.10.21, modified 2011.05.06)
author=TAJIMA S, GUNMA COLLEGE OF TECHNOLOGY
license=CC BY-NC-SA
exact mass=138.06808
ionization energy=70 eV
ion type=[M]+*
computed spectral entropy=2.3960902468268968
computed normalized entropy=0.7115769946582096
SPLASH=splash10-0006-9000000000-f53c3891b4914dd833e8
submitter=submitter = University of Tokyo Team (Faculty of Engineering, University of Tokyo)
MoNA Rating=3.75

>  <NUM PEAKS>  (3200) 
29

>  <MASS SPECTRAL PEAKS>  (3200) 
15 0.7
18 1.05
19 1.05
27 3.72
29 2.67
31 1.4
38 1.4
39 8.57
40 1.62
43 1.47
45 5.97
50 3.16
51 10.74
55 1.19
63 2.67
65 10.39
66 20.37
77 33.57
78 4
79 7.72
91 3.3
92 1.12
93 1
94 99.99
95 17.56
107 5.62
117 1.47
138 14.89
139 0.7

$$$$

     RDKit          2D

 10 10  0  0  0  0  0  0  0  0999 V2000
    2.9231    0.5071    0.0000 C   0  0  0  0  0  0  0  0  0  0  0  0
    2.9236    2.0079    0.0000 C   0  0  0  0  0  0  0  0  0  0  0  0
    1.6236   -0.2437    0.0000 C   0  0  0  0  0  0  0  0  0  0  0  0
   -2.2731    2.0071    0.0000 C   0  0  0  0  0  0  0  0  0  0  0  0
    1.6245    2.7579    0.0000 C   0  0  0  0  0  0  0  0  0  0  0  0
    0.3245    0.5063    0.0000 C   0  0  0  0  0  0  0  0  0  0  0  0
   -0.9740    2.7571    0.0000 C   0  0  0  0  0  0  0  0  0  0  0  0
   -3.5721    2.7571    0.0000 C   0  0  0  0  0  0  0  0  0  0  0  0
    0.3250    2.0071    0.0000 C   0  0  0  0  0  0  0  0  0  0  0  0
   -4.8712    2.0071    0.0000 O   0  0  0  0  0  0  0  0  0  0  0  0
  2  1  2  0
  3  1  1  0
  5  2  1  0
  6  3  2  0
  7  4  1  0
  8  4  1  0
  9  5  2  0
  9  6  1  0
  9  7  1  0
 10  8  1  0
M  END
>  <NAME>  (3201) 
3-PHENYLPROPANOL

>  <SYNONYMS>  (3201) 
BENZENEPROPANOL

>  <SPECTRUM TYPE>  (3201) 
MS1

>  <INSTRUMENT TYPE>  (3201) 
EI-B

>  <INSTRUMENT>  (3201) 
HITACHI RMU-7M

>  <ION MODE>  (3201) 
P

>  <INCHIKEY>  (3201) 
VAJVDSVGBWFCLW-UHFFFAOYSA-N

>  <FORMULA>  (3201) 
C9H12O

>  <EXACT MASS>  (3201) 
136.088815004

>  <MW>  (3201) 
136

>  <ID>  (3201) 
JP007659

>  <CONTRIBUTOR>  (3201) 
University of Tokyo Team, {Faculty of Engineering, University of Tokyo

>  <COMMENT>  (3201) 
SMILES=OCCCc(c1)cccc1
cas=122-97-4
InChI=InChI=1S/C9H12O/c10-8-4-7-9-5-2-1-3-6-9/h1-3,5-6,10H,4,7-8H2
computed SMILES=OCCCC=1C=CC=CC1
accession=JP007659
date=2016.01.19 (Created 2008.10.21, modified 2011.05.06)
author=TAJIMA S, GUNMA COLLEGE OF TECHNOLOGY
license=CC BY-NC-SA
exact mass=136.08882
ionization energy=70 eV
ion type=[M]+*
computed spectral entropy=2.7913694929748774
computed normalized entropy=0.7516669780027024
SPLASH=splash10-014l-9600000000-224fcad0fa4e8d6a5168
submitter=submitter = University of Tokyo Team (Faculty of Engineering, University of Tokyo)
MoNA Rating=3.75

>  <NUM PEAKS>  (3201) 
41

>  <MASS SPECTRAL PEAKS>  (3201) 
18 2.29
27 5.96
29 2.83
31 4.7
38 1.2
39 10.06
41 2.35
50 3.92
51 10.78
52 2.53
53 1.33
57 1.08
62 1.69
63 5.48
64 1.2
65 17.89
66 1.27
74 1.69
75 1.39
76 1.69
77 21.99
78 14.7
79 16.27
89 4.4
90 1.81
91 99.99
92 49.88
93 3.61
102 1.69
103 12.65
104 4.28
105 13.67
106 1.51
115 8.31
116 2.11
117 84.64
118 58.37
119 5.42
134 1.69
136 9.76
137 0.9

$$$$

     RDKit          2D

  8  8  0  0  0  0  0  0  0  0999 V2000
    0.0000    1.5000    0.0000 C   0  0  0  0  0  0  0  0  0  0  0  0
    0.0000    0.0000    0.0000 C   0  0  0  0  0  0  0  0  0  0  0  0
   -1.1727    2.4352    0.0000 C   0  0  0  0  0  0  0  0  0  0  0  0
   -1.1727   -0.9352    0.0000 C   0  0  0  0  0  0  0  0  0  0  0  0
   -2.6351    2.1015    0.0000 C   0  0  0  0  0  0  0  0  0  0  0  0
   -2.6351   -0.6015    0.0000 C   0  0  0  0  0  0  0  0  0  0  0  0
   -3.2860    0.7500    0.0000 C   0  0  0  0  0  0  0  0  0  0  0  0
   -4.7860    0.7500    0.0000 O   0  0  0  0  0  0  0  0  0  0  0  0
  2  1  1  0
  3  1  1  0
  4  2  1  0
  5  3  1  0
  6  4  1  0
  7  5  1  0
  7  6  1  0
  8  7  2  0
M  END
>  <NAME>  (3202) 
CYCLOHEPTANONE

>  <SYNONYMS>  (3202) 


>  <SPECTRUM TYPE>  (3202) 
MS1

>  <INSTRUMENT TYPE>  (3202) 
EI-B

>  <INSTRUMENT>  (3202) 
HITACHI RMU-7M

>  <ION MODE>  (3202) 
P

>  <INCHIKEY>  (3202) 
CGZZMOTZOONQIA-UHFFFAOYSA-N

>  <FORMULA>  (3202) 
C7H12O

>  <EXACT MASS>  (3202) 
112.088815004

>  <MW>  (3202) 
112

>  <ID>  (3202) 
JP007658

>  <CONTRIBUTOR>  (3202) 
University of Tokyo Team, {Faculty of Engineering, University of Tokyo

>  <COMMENT>  (3202) 
SMILES=O=C(C1)CCCCC1
cas=502-42-1
InChI=InChI=1S/C7H12O/c8-7-5-3-1-2-4-6-7/h1-6H2
computed SMILES=O=C1CCCCCC1
accession=JP007658
date=2016.01.19 (Created 2008.10.21, modified 2011.05.06)
author=TAJIMA S, GUNMA COLLEGE OF TECHNOLOGY
license=CC BY-NC-SA
exact mass=112.08882
ionization energy=70 eV
ion type=[M]+*
computed spectral entropy=2.738682474994147
computed normalized entropy=0.8218830706912854
SPLASH=splash10-0aou-9000000000-1b30a34a3691e98dbf3a
submitter=submitter = University of Tokyo Team (Faculty of Engineering, University of Tokyo)
MoNA Rating=3.75

>  <NUM PEAKS>  (3202) 
28

>  <MASS SPECTRAL PEAKS>  (3202) 
15 1.71
26 2.39
27 23.21
28 19.11
29 11.6
39 21.96
40 5.47
41 66.44
42 41.07
43 17.63
51 1.25
53 3.64
54 3.19
55 99.99
56 51.42
57 5.35
58 2.05
67 4.55
68 79.64
69 36.41
70 10.24
79 2.28
83 12.86
84 25.6
104 3.07
107 4.44
112 36.41
113 2.28

$$$$

     RDKit          2D

  5  4  0  0  0  0  0  0  0  0999 V2000
    0.0000    0.0000    0.0000 C   0  0  0  0  0  0  0  0  0  0  0  0
    1.2990    2.2500    0.0000 C   0  0  0  0  0  0  0  0  0  0  0  0
   -1.2990    3.7500    0.0000 C   0  0  0  0  0  0  0  0  0  0  0  0
    0.0000    1.5000    0.0000 C   0  0  0  0  0  0  0  0  0  0  0  0
   -1.2990    2.2500    0.0000 O   0  0  0  0  0  0  0  0  0  0  0  0
  4  1  2  0
  4  2  1  0
  5  3  1  0
  5  4  1  0
M  END
>  <NAME>  (3203) 
ISOPROPENYL METHYL ETHER

>  <SYNONYMS>  (3203) 
2-METHOXY-1-PROPENE

>  <SPECTRUM TYPE>  (3203) 
MS1

>  <INSTRUMENT TYPE>  (3203) 
EI-B

>  <INSTRUMENT>  (3203) 
HITACHI RMU-5B

>  <ION MODE>  (3203) 
P

>  <INCHIKEY>  (3203) 
YOWQWFMSQCOSBA-UHFFFAOYSA-N

>  <FORMULA>  (3203) 
C4H8O

>  <EXACT MASS>  (3203) 
72.057514876

>  <MW>  (3203) 
72

>  <ID>  (3203) 
JP007657

>  <CONTRIBUTOR>  (3203) 
University of Tokyo Team, {Faculty of Engineering, University of Tokyo

>  <COMMENT>  (3203) 
SMILES=COC(C)=C
cas=116-11-0
InChI=InChI=1S/C4H8O/c1-4(2)5-3/h1H2,2-3H3
computed SMILES=O(C(=C)C)C
accession=JP007657
date=2016.01.19 (Created 2008.10.21, modified 2011.05.06)
author=TAJIMA S, GUNMA COLLEGE OF TECHNOLOGY
license=CC BY-NC-SA
exact mass=72.05751
ionization energy=70 eV
ion type=[M]+*
computed spectral entropy=2.4848354476076517
computed normalized entropy=0.8161659171300824
SPLASH=splash10-002f-9000000000-e797a355497d22ec0179
submitter=submitter = University of Tokyo Team (Faculty of Engineering, University of Tokyo)
MoNA Rating=3.75

>  <NUM PEAKS>  (3203) 
21

>  <MASS SPECTRAL PEAKS>  (3203) 
14 7.24
15 25.19
25 2.46
26 12.72
27 55.48
28 5.35
29 48.17
30 2.52
31 6.17
33 1.39
36 1.32
37 7.3
38 12.41
39 44.08
40 16.88
41 66.25
42 99.99
43 20.78
57 4.91
72 29.79
73 1.95

$$$$

     RDKit          2D

  5  4  0  0  0  0  0  0  0  0999 V2000
   -3.8971    2.2500    0.0000 C   0  0  0  0  0  0  0  0  0  0  0  0
    1.2990    2.2500    0.0000 C   0  0  0  0  0  0  0  0  0  0  0  0
   -2.5981    1.5000    0.0000 C   0  0  0  0  0  0  0  0  0  0  0  0
    0.0000    1.5000    0.0000 C   0  0  0  0  0  0  0  0  0  0  0  0
   -1.2990    2.2500    0.0000 O   0  0  0  0  0  0  0  0  0  0  0  0
  3  1  1  0
  4  2  1  0
  5  3  1  0
  5  4  1  0
M  END
>  <NAME>  (3204) 
DIETHYL ETHER

>  <SYNONYMS>  (3204) 
1,1'-OXYBISETHANE

>  <SPECTRUM TYPE>  (3204) 
MS1

>  <INSTRUMENT TYPE>  (3204) 
EI-B

>  <INSTRUMENT>  (3204) 
HITACHI RMU-7M

>  <ION MODE>  (3204) 
P

>  <INCHIKEY>  (3204) 
RTZKZFJDLAIYFH-UHFFFAOYSA-N

>  <FORMULA>  (3204) 
C4H10O

>  <EXACT MASS>  (3204) 
74.07316494

>  <MW>  (3204) 
74

>  <ID>  (3204) 
JP007656

>  <CONTRIBUTOR>  (3204) 
University of Tokyo Team, {Faculty of Engineering, University of Tokyo

>  <COMMENT>  (3204) 
SMILES=CCOCC
cas=60-29-7
InChI=InChI=1S/C4H10O/c1-3-5-4-2/h3-4H2,1-2H3
computed SMILES=O(CC)CC
accession=JP007656
date=2016.01.19 (Created 2008.10.21, modified 2011.05.06)
author=TAJIMA S, GUNMA COLLEGE OF TECHNOLOGY
license=CC BY-NC-SA
exact mass=74.07316
ionization energy=70 eV
ion type=[M]+*
computed spectral entropy=2.1982446873691717
computed normalized entropy=0.7465750531503582
SPLASH=splash10-003r-9000000000-539b7fc110138db40d75
submitter=submitter = University of Tokyo Team (Faculty of Engineering, University of Tokyo)
MoNA Rating=3.75

>  <NUM PEAKS>  (3204) 
19

>  <MASS SPECTRAL PEAKS>  (3204) 
15 3.1
17 1.17
18 7.24
19 2.41
26 2.27
27 17.92
28 8.2
29 48.24
30 1.38
31 99.99
41 11.65
43 6.62
44 3.79
45 34.94
59 41.76
60 1
73 3.86
74 25.57
75 1.31

$$$$

     RDKit          2D

 11 11  0  0  0  0  0  0  0  0999 V2000
    7.4251    1.2910    0.0000 C   0  0  0  0  0  0  0  0  0  0  0  0
    6.1262    0.5408    0.0000 C   0  0  0  0  0  0  0  0  0  0  0  0
    4.8270    1.2906    0.0000 C   0  0  0  0  0  0  0  0  0  0  0  0
   -1.6700   -0.9600    0.0000 C   0  0  0  0  0  0  0  0  0  0  0  0
   -1.6700    0.5400    0.0000 C   0  0  0  0  0  0  0  0  0  0  0  0
   -0.3700   -1.7100    0.0000 C   0  0  0  0  0  0  0  0  0  0  0  0
   -0.3700    1.2900    0.0000 C   0  0  0  0  0  0  0  0  0  0  0  0
    0.9300   -0.9600    0.0000 C   0  0  0  0  0  0  0  0  0  0  0  0
    3.5281    0.5404    0.0000 C   0  0  0  0  0  0  0  0  0  0  0  0
    0.9300    0.5400    0.0000 C   0  0  0  0  0  0  0  0  0  0  0  0
    2.2289    1.2902    0.0000 O   0  0  0  0  0  0  0  0  0  0  0  0
  2  1  1  0
  3  2  1  0
  5  4  2  0
  6  4  1  0
  7  5  1  0
  8  6  2  0
  9  3  1  0
 10  7  2  0
 10  8  1  0
 11  9  1  0
 11 10  1  0
M  END
>  <NAME>  (3205) 
BUTYL PHENYL ETHER

>  <SYNONYMS>  (3205) 
BUTOXYBENZENE

>  <SPECTRUM TYPE>  (3205) 
MS1

>  <INSTRUMENT TYPE>  (3205) 
EI-B

>  <INSTRUMENT>  (3205) 
HITACHI RMU-7M

>  <ION MODE>  (3205) 
P

>  <INCHIKEY>  (3205) 
YFNONBGXNFCTMM-UHFFFAOYSA-N

>  <FORMULA>  (3205) 
C10H14O

>  <EXACT MASS>  (3205) 
150.104465068

>  <MW>  (3205) 
150

>  <ID>  (3205) 
JP007655

>  <CONTRIBUTOR>  (3205) 
University of Tokyo Team, {Faculty of Engineering, University of Tokyo

>  <COMMENT>  (3205) 
SMILES=CCCCOc(c1)cccc1
cas=1126-79-0
InChI=InChI=1S/C10H14O/c1-2-3-9-11-10-7-5-4-6-8-10/h4-8H,2-3,9H2,1H3
computed SMILES=O(C=1C=CC=CC1)CCCC
accession=JP007655
date=2016.01.19 (Created 2008.10.21, modified 2011.05.06)
author=TAJIMA S, GUNMA COLLEGE OF TECHNOLOGY
license=CC BY-NC-SA
exact mass=150.10447
ionization energy=70 eV
ion type=[M]+*
computed spectral entropy=1.8171924756260163
computed normalized entropy=0.6413892125131682
SPLASH=splash10-0006-9000000000-f310e310f23d7766be7d
submitter=submitter = University of Tokyo Team (Faculty of Engineering, University of Tokyo)
MoNA Rating=3.75

>  <NUM PEAKS>  (3205) 
17

>  <MASS SPECTRAL PEAKS>  (3205) 
27 3.18
29 10.62
39 6.3
40 1
41 8.27
50 1
51 4.13
55 1.84
57 3.18
65 4.64
66 6.49
77 7.32
94 99.99
95 6.49
107 1.15
150 15.27
151 1.27

$$$$

     RDKit          2D

 19 20  0  0  0  0  0  0  0  0999 V2000
    7.4251    1.2910    0.0000 C   0  0  0  0  0  0  0  0  0  0  0  0
    6.1262    0.5408    0.0000 C   0  0  0  0  0  0  0  0  0  0  0  0
   -1.6700   -0.9600    0.0000 C   0  0  0  0  0  0  0  0  0  0  0  0
    2.9548   -4.8394    0.0000 C   0  0  0  0  0  0  0  0  0  0  0  0
   -0.3700   -1.7100    0.0000 C   0  0  0  0  0  0  0  0  0  0  0  0
   -1.6700    0.5400    0.0000 C   0  0  0  0  0  0  0  0  0  0  0  0
    1.9901   -3.6897    0.0000 C   0  0  0  0  0  0  0  0  0  0  0  0
    4.4319   -4.5785    0.0000 C   0  0  0  0  0  0  0  0  0  0  0  0
    0.9300   -0.9600    0.0000 C   0  0  0  0  0  0  0  0  0  0  0  0
   -0.3700    1.2900    0.0000 C   0  0  0  0  0  0  0  0  0  0  0  0
    2.5025   -2.2791    0.0000 C   0  0  0  0  0  0  0  0  0  0  0  0
    4.9444   -3.1678    0.0000 C   0  0  0  0  0  0  0  0  0  0  0  0
    0.9300    0.5400    0.0000 C   0  0  0  0  0  0  0  0  0  0  0  0
    3.9796   -2.0181    0.0000 C   0  0  0  0  0  0  0  0  0  0  0  0
    2.5641   -0.6088    0.0000 O   0  0  0  0  0  0  0  0  0  0  0  0
    4.8270    1.2906    0.0000 O   0  0  0  0  0  0  0  0  0  0  0  0
    3.5281    0.5404    0.0000 P   0  0  0  0  0  0  0  0  0  0  0  0
    2.2289    1.2902    0.0000 S   0  0  0  0  0  0  0  0  0  0  0  0
    4.4924   -0.6085    0.0000 S   0  0  0  0  0  0  0  0  0  0  0  0
  2  1  1  0
  5  3  2  0
  6  3  1  0
  7  4  2  0
  8  4  1  0
  9  5  1  0
 10  6  2  0
 11  7  1  0
 12  8  2  0
 13  9  2  0
 13 10  1  0
 14 11  2  0
 14 12  1  0
 16  2  1  0
 17 15  2  0
 17 16  1  0
 18 13  1  0
 18 17  1  0
 19 14  1  0
 19 17  1  0
M  END
>  <NAME>  (3206) 
O-ETHYL S,S-DIPHENYL PHOSPHORODITHIOATE

>  <SYNONYMS>  (3206) 
EDIFENPHOS

>  <SPECTRUM TYPE>  (3206) 
MS1

>  <INSTRUMENT TYPE>  (3206) 
EI-B

>  <INSTRUMENT>  (3206) 
JEOL JMS-01-SG

>  <ION MODE>  (3206) 
P

>  <INCHIKEY>  (3206) 
AWZOLILCOUMRDG-UHFFFAOYSA-N

>  <FORMULA>  (3206) 
C14H15O2PS2

>  <EXACT MASS>  (3206) 
310.02510835

>  <MW>  (3206) 
310

>  <ID>  (3206) 
JP007536

>  <CONTRIBUTOR>  (3206) 
University of Tokyo Team, {Faculty of Engineering, University of Tokyo

>  <COMMENT>  (3206) 
SMILES=CCOP(=O)(Sc(c2)cccc2)Sc(c1)cccc1
cas=17109-49-8
InChI=InChI=1S/C14H15O2PS2/c1-2-16-17(15,18-13-9-5-3-6-10-13)19-14-11-7-4-8-12-14/h3-12H,2H2,1H3
computed SMILES=O=P(OCC)(SC=1C=CC=CC1)SC=2C=CC=CC2
accession=JP007536
date=2016.01.19 (Created 2008.10.21, modified 2011.05.06)
author=KOGA M, UNIV. OF OCCUPATIONAL AND ENVIRONMENTAL HEALTH
license=CC BY-NC-SA
exact mass=310.02511
ionization energy=70 eV
ion type=[M]+*
computed spectral entropy=3.4680723389660804
computed normalized entropy=0.8163060428174508
SPLASH=splash10-02t9-9831000000-97556cafe393a91f33cc
submitter=submitter = University of Tokyo Team (Faculty of Engineering, University of Tokyo)
MoNA Rating=3.75

>  <NUM PEAKS>  (3206) 
70

>  <MASS SPECTRAL PEAKS>  (3206) 
45 22.4
47 12.3
50 7.1
51 3.39
58 4.6
59 4.3
62 2.7
63 0.65
64 2.7
65 99.99
66 29.3
67 0.27
69 36.4
70 3
71 3
74 0.35
75 3.5
76 3.2
77 32
78 0.49
82 10.4
83 4.9
84 7.6
94 0.49
96 3.5
97 3.5
105 2.7
108 2.79
109 20.8
110 89
111 33.9
112 0.6
123 6.5
125 2.7
137 3.2
138 0.71
139 4.6
140 3
141 8.2
153 0.32
154 9.3
155 9.8
156 3
157 0.27
169 3.8
172 4.3
173 7.9
174 2.35
175 16.9
183 4.1
184 10.4
185 1.26
186 30.9
187 5.2
189 4.1
201 6.38
202 17.5
203 9
207 4.9
217 0.54
218 44.9
219 7.6
220 5.7
265 0.54
281 3
282 2.7
310 41.3
311 3.36
312 18.6
313 3.2

$$$$

     RDKit          2D

 16 16  0  0  0  0  0  0  0  0999 V2000
    2.3089   -1.3302    0.0000 C   0  0  0  0  0  0  0  0  0  0  0  0
   -6.7862   -0.5808    0.0000 C   0  0  0  0  0  0  0  0  0  0  0  0
   -3.7373    1.9783    0.0000 C   0  0  0  0  0  0  0  0  0  0  0  0
    3.6081    0.9204    0.0000 C   0  0  0  0  0  0  0  0  0  0  0  0
   -1.5900    0.9200    0.0000 C   0  0  0  0  0  0  0  0  0  0  0  0
   -0.2900    1.6700    0.0000 C   0  0  0  0  0  0  0  0  0  0  0  0
   -0.2900   -1.3300    0.0000 C   0  0  0  0  0  0  0  0  0  0  0  0
    1.0100   -0.5800    0.0000 C   0  0  0  0  0  0  0  0  0  0  0  0
   -1.5900   -0.5800    0.0000 C   0  0  0  0  0  0  0  0  0  0  0  0
    1.0100    0.9200    0.0000 C   0  0  0  0  0  0  0  0  0  0  0  0
   -5.4870   -1.3306    0.0000 O   0  0  0  0  0  0  0  0  0  0  0  0
   -3.2241    0.5688    0.0000 O   0  0  0  0  0  0  0  0  0  0  0  0
   -2.8889   -1.3302    0.0000 O   0  0  0  0  0  0  0  0  0  0  0  0
   -4.1881   -0.5804    0.0000 P   0  0  0  0  0  0  0  0  0  0  0  0
   -5.1524    0.5685    0.0000 S   0  0  0  0  0  0  0  0  0  0  0  0
    2.3089    1.6702    0.0000 S   0  0  0  0  0  0  0  0  0  0  0  0
  6  5  2  0
  8  1  1  0
  8  7  1  0
  9  5  1  0
  9  7  2  0
 10  6  1  0
 10  8  2  0
 11  2  1  0
 12  3  1  0
 13  9  1  0
 14 11  1  0
 14 12  1  0
 14 13  1  0
 15 14  2  0
 16  4  1  0
 16 10  1  0
M  END
>  <NAME>  (3207) 
O,O-DIMETHYL O-(3-METHYL-4-METHYLTHIOPHENYL) PHOSPHOROTHIOATE

>  <SYNONYMS>  (3207) 


>  <SPECTRUM TYPE>  (3207) 
MS1

>  <INSTRUMENT TYPE>  (3207) 
EI-B

>  <INSTRUMENT>  (3207) 
JEOL JMS-01-SG

>  <ION MODE>  (3207) 
P

>  <INCHIKEY>  (3207) 
PNVJTZOFSHSLTO-UHFFFAOYSA-N

>  <FORMULA>  (3207) 
C10H15O3PS2

>  <EXACT MASS>  (3207) 
278.02002297

>  <MW>  (3207) 
278

>  <ID>  (3207) 
JP007535

>  <CONTRIBUTOR>  (3207) 
University of Tokyo Team, {Faculty of Engineering, University of Tokyo

>  <COMMENT>  (3207) 
SMILES=CSc(c1)c(C)cc(c1)OP(=S)(OC)OC
cas=55-38-9
InChI=InChI=1S/C10H15O3PS2/c1-8-7-9(5-6-10(8)16-4)13-14(15,11-2)12-3/h5-7H,1-4H3
computed SMILES=S=P(OC1=CC=C(SC)C(=C1)C)(OC)OC
accession=JP007535
date=2016.01.19 (Created 2008.10.21, modified 2011.05.06)
author=KOGA M, UNIV. OF OCCUPATIONAL AND ENVIRONMENTAL HEALTH
license=CC BY-NC-SA
exact mass=278.02002
ionization energy=70 eV
ion type=[M]+*
computed spectral entropy=3.639276848492359
computed normalized entropy=0.817016861606931
SPLASH=splash10-00os-4930000000-d917f6fe7c279d0326ef
submitter=submitter = University of Tokyo Team (Faculty of Engineering, University of Tokyo)
MoNA Rating=3.75

>  <NUM PEAKS>  (3207) 
86

>  <MASS SPECTRAL PEAKS>  (3207) 
45 24.9
47 31.5
50 1.7
51 0.66
52 5.9
53 1.7
59 2.4
62 1.33
63 12.6
64 4.2
65 7.7
66 0.52
69 5.6
70 4.2
71 1.7
73 0.28
76 2.4
77 8.4
78 12.9
79 4.28
84 2.4
85 3.8
89 4.2
91 1.47
93 37.8
94 2.8
95 3.8
96 0.17
105 8
106 1.7
107 1.7
109 9.05
110 14.3
111 4.5
121 15.7
122 0.91
123 5.2
124 2.1
125 99.99
126 0.38
127 5.6
134 2.8
135 15.7
136 0.7
137 24.5
138 10.1
139 5.6
142 0.24
143 2.8
149 1.7
150 1.7
151 3.36
152 3.5
153 29.1
154 13.3
155 0.91
167 6.6
168 17.8
169 76.4
170 1.29
171 6.3
182 1.7
183 2.4
184 0.56
185 2.8
200 3.1
201 3.5
213 0.42
215 2.8
216 3.8
231 7
232 0.38
233 6.3
244 2.1
245 29.4
246 1.4
247 3.5
262 4.2
263 19.2
264 0.21
265 1.7
277 1.7
278 18.9
279 4.59
280 34
281 2.1

$$$$

     RDKit          2D

 15 16  0  0  0  0  0  0  0  0999 V2000
    3.7781    5.7300    0.0000 C   0  0  0  0  0  0  0  0  0  0  0  0
   -2.7200   -1.0200    0.0000 C   0  0  0  0  0  0  0  0  0  0  0  0
   -2.7200    0.4800    0.0000 C   0  0  0  0  0  0  0  0  0  0  0  0
    2.4800   -1.0200    0.0000 C   0  0  0  0  0  0  0  0  0  0  0  0
   -1.4200   -1.7700    0.0000 C   0  0  0  0  0  0  0  0  0  0  0  0
    1.1800   -1.7700    0.0000 C   0  0  0  0  0  0  0  0  0  0  0  0
   -1.4200    1.2300    0.0000 C   0  0  0  0  0  0  0  0  0  0  0  0
    2.4800    0.4800    0.0000 C   0  0  0  0  0  0  0  0  0  0  0  0
   -0.1200   -1.0200    0.0000 C   0  0  0  0  0  0  0  0  0  0  0  0
   -0.1200    0.4800    0.0000 C   0  0  0  0  0  0  0  0  0  0  0  0
    1.1800    1.2300    0.0000 C   0  0  0  0  0  0  0  0  0  0  0  0
    2.4790    3.4800    0.0000 C   0  0  0  0  0  0  0  0  0  0  0  0
    2.4790    4.9800    0.0000 N   0  0  0  0  0  0  0  0  0  0  0  0
    3.7781    2.7300    0.0000 O   0  0  0  0  0  0  0  0  0  0  0  0
    1.1800    2.7300    0.0000 O   0  0  0  0  0  0  0  0  0  0  0  0
  3  2  2  0
  5  2  1  0
  6  4  2  0
  7  3  1  0
  8  4  1  0
  9  5  2  0
  9  6  1  0
 10  7  2  0
 10  9  1  0
 11  8  2  0
 11 10  1  0
 13  1  1  0
 13 12  2  3
 14 12  1  0
 15 11  1  0
 15 12  1  0
M  END
>  <NAME>  (3208) 
1-NAPHTHYL N-METHYLCARBAMATE

>  <SYNONYMS>  (3208) 


>  <SPECTRUM TYPE>  (3208) 
MS1

>  <INSTRUMENT TYPE>  (3208) 
EI-B

>  <INSTRUMENT>  (3208) 
JEOL JMS-01-SG

>  <ION MODE>  (3208) 
P

>  <INCHIKEY>  (3208) 
CVXBEEMKQHEXEN-UHFFFAOYSA-N

>  <FORMULA>  (3208) 
C12H11NO2

>  <EXACT MASS>  (3208) 
201.078978592

>  <MW>  (3208) 
201

>  <ID>  (3208) 
JP007534

>  <CONTRIBUTOR>  (3208) 
University of Tokyo Team, {Faculty of Engineering, University of Tokyo

>  <COMMENT>  (3208) 
SMILES=CNC(=O)Oc(c1)c(c2)c(ccc2)cc1
InChI=InChI=1S/C12H11NO2/c1-13-12(14)15-11-8-4-6-9-5-2-3-7-10(9)11/h2-8H,1H3,(H,13,14)
computed SMILES=OC(=NC)OC1=CC=CC=2C=CC=CC12
accession=JP007534
date=2016.01.19 (Created 2008.10.21, modified 2011.05.06)
author=KOGA M, UNIV. OF OCCUPATIONAL AND ENVIRONMENTAL HEALTH
license=CC BY-NC-SA
exact mass=201.07898
ionization energy=70 eV
ion type=[M]+*
computed spectral entropy=2.552469687694667
computed normalized entropy=0.6919363236031161
SPLASH=splash10-014l-4900000000-7702bfe3f40b667637c4
submitter=submitter = University of Tokyo Team (Faculty of Engineering, University of Tokyo)
MoNA Rating=3.75

>  <NUM PEAKS>  (3208) 
40

>  <MASS SPECTRAL PEAKS>  (3208) 
50 7.4
51 6.6
53 1.4
55 0.25
57 11.4
58 17.7
61 2.5
62 0.85
63 19.6
64 1.1
65 9.2
71 0.18
72 18.5
74 7
75 4
76 0.18
77 4.8
85 1.8
86 2.5
87 0.4
88 6.6
89 21.1
90 2.2
91 0.11
98 1.1
109 1.1
113 5.1
114 0.85
115 70.3
116 93.7
117 9.6
126 0.11
139 1.1
143 4.8
144 99.99
145 2.55
146 1.1
168 2.2
185 1.8
186 2.2

$$$$

     RDKit          2D

 17 17  0  0  0  0  0  0  0  0999 V2000
    3.1104    2.5321    0.0000 C   0  0  0  0  0  0  0  0  0  0  0  0
   -5.9835    1.7814    0.0000 C   0  0  0  0  0  0  0  0  0  0  0  0
   -5.8268    0.8928    0.0000 C   0  0  0  0  0  0  0  0  0  0  0  0
   -0.7878    0.2806    0.0000 C   0  0  0  0  0  0  0  0  0  0  0  0
    0.5112   -0.4694    0.0000 C   0  0  0  0  0  0  0  0  0  0  0  0
    0.5122    2.5323    0.0000 C   0  0  0  0  0  0  0  0  0  0  0  0
    1.8112    1.7823    0.0000 C   0  0  0  0  0  0  0  0  0  0  0  0
   -0.7874    1.7814    0.0000 C   0  0  0  0  0  0  0  0  0  0  0  0
    1.8107    0.2814    0.0000 C   0  0  0  0  0  0  0  0  0  0  0  0
    3.1098   -0.4686    0.0000 N   0  0  0  0  0  0  0  0  0  0  0  0
    3.1098   -1.9686    0.0000 O   0  0  0  0  0  0  0  0  0  0  0  0
    4.4088    0.2814    0.0000 O   0  0  0  0  0  0  0  0  0  0  0  0
   -4.6845    2.5314    0.0000 O   0  0  0  0  0  0  0  0  0  0  0  0
   -4.3496    0.6324    0.0000 O   0  0  0  0  0  0  0  0  0  0  0  0
   -2.0864    2.5314    0.0000 O   0  0  0  0  0  0  0  0  0  0  0  0
   -3.3854    1.7814    0.0000 P   0  0  0  0  0  0  0  0  0  0  0  0
   -2.4212    0.6324    0.0000 S   0  0  0  0  0  0  0  0  0  0  0  0
  5  4  2  0
  7  1  1  0
  7  6  1  0
  8  4  1  0
  8  6  2  0
  9  5  1  0
  9  7  2  0
 10  9  1  0
 11 10  1  0
 12 10  2  0
 13  2  1  0
 14  3  1  0
 15  8  1  0
 16 13  1  0
 16 14  1  0
 16 15  1  0
 17 16  2  0
M  CHG  2  10   1  11  -1
M  END
>  <NAME>  (3209) 
O,O-DIMETHYL O-(3-METHYL-4-NITROPHENYL) PHOSPHOROTHIOATE

>  <SYNONYMS>  (3209) 
FENITROTHION

>  <SPECTRUM TYPE>  (3209) 
MS1

>  <INSTRUMENT TYPE>  (3209) 
EI-B

>  <INSTRUMENT>  (3209) 
JEOL JMS-01-SG

>  <ION MODE>  (3209) 
P

>  <INCHIKEY>  (3209) 
ZNOLGFHPUIJIMJ-UHFFFAOYSA-N

>  <FORMULA>  (3209) 
C9H12NO5PS

>  <EXACT MASS>  (3209) 
277.017380114

>  <MW>  (3209) 
277

>  <ID>  (3209) 
JP007532

>  <CONTRIBUTOR>  (3209) 
University of Tokyo Team, {Faculty of Engineering, University of Tokyo

>  <COMMENT>  (3209) 
SMILES=[O-1][N+1](=O)c(c1)c(C)cc(c1)OP(=S)(OC)OC
cas=122-14-5
InChI=InChI=1S/C9H12NO5PS/c1-7-6-8(4-5-9(7)10(11)12)15-16(17,13-2)14-3/h4-6H,1-3H3
computed SMILES=O=N(=O)C1=CC=C(OP(=S)(OC)OC)C=C1C
accession=JP007532
date=2016.01.19 (Created 2008.10.21, modified 2011.05.06)
author=KOGA M, UNIV. OF OCCUPATIONAL AND ENVIRONMENTAL HEALTH
license=CC BY-NC-SA
exact mass=277.01738
ionization energy=70 eV
ion type=[M]+*
computed spectral entropy=3.5936566412874593
computed normalized entropy=0.8154948022882208
SPLASH=splash10-01tc-9540000000-a180b7cec61770691237
submitter=submitter = University of Tokyo Team (Faculty of Engineering, University of Tokyo)
MoNA Rating=3.75

>  <NUM PEAKS>  (3209) 
82

>  <MASS SPECTRAL PEAKS>  (3209) 
45 5
47 47.9
50 7
51 1.65
52 14.5
53 5
62 20.2
63 3.44
64 4.3
65 6.7
66 4.3
69 0.2
74 2
75 3
76 3
77 1.79
78 11.4
79 88.1
80 7.4
81 0.2
83 2
89 18.9
90 17.7
91 0.47
92 2.7
93 59.7
94 7.7
95 0.77
96 7
97 3.3
103 2
104 0.2
105 3.3
106 5.4
107 2.7
108 0.57
109 17.9
110 10.4
111 5
112 0.2
119 3.3
120 10.1
121 15.2
122 1.04
123 9.4
124 6.7
125 22.6
126 0.77
127 16.8
136 15.8
137 5.4
138 1.41
139 3.7
140 2
150 16.8
151 0.7
152 10.1
153 4
166 4.3
168 0.43
169 4.7
182 3.3
199 3
200 0.27
201 2
202 3
214 13.8
215 0.33
216 4.3
217 2
228 4
230 0.4
231 2
232 3
246 6
247 1.55
260 99.99
261 16.2
262 6.7
277 1.28
278 17.9
279 11.8

$$$$

     RDKit          2D

 15 15  0  0  0  0  0  0  0  0999 V2000
    3.2472   -5.2506    0.0000 C   0  0  0  0  0  0  0  0  0  0  0  0
    0.6489   -3.7510    0.0000 C   0  0  0  0  0  0  0  0  0  0  0  0
   -4.5476   -0.7500    0.0000 C   0  0  0  0  0  0  0  0  0  0  0  0
    3.2470   -3.7506    0.0000 C   0  0  0  0  0  0  0  0  0  0  0  0
    3.2476    0.7508    0.0000 C   0  0  0  0  0  0  0  0  0  0  0  0
    1.9486    1.5008    0.0000 C   0  0  0  0  0  0  0  0  0  0  0  0
    3.2471   -0.7500    0.0000 C   0  0  0  0  0  0  0  0  0  0  0  0
    0.6490    0.7500    0.0000 C   0  0  0  0  0  0  0  0  0  0  0  0
    1.9478   -3.0008    0.0000 C   0  0  0  0  0  0  0  0  0  0  0  0
    1.9476   -1.5008    0.0000 C   0  0  0  0  0  0  0  0  0  0  0  0
    0.6486   -0.7508    0.0000 C   0  0  0  0  0  0  0  0  0  0  0  0
   -1.9495   -0.7504    0.0000 C   0  0  0  0  0  0  0  0  0  0  0  0
   -3.2487   -1.5002    0.0000 N   0  0  0  0  0  0  0  0  0  0  0  0
   -1.9493    0.7496    0.0000 O   0  0  0  0  0  0  0  0  0  0  0  0
   -0.6506   -1.5006    0.0000 O   0  0  0  0  0  0  0  0  0  0  0  0
  4  1  1  0
  6  5  2  0
  7  5  1  0
  8  6  1  0
  9  2  1  0
  9  4  1  0
 10  7  2  0
 10  9  1  0
 11  8  2  0
 11 10  1  0
 13  3  1  0
 13 12  2  3
 14 12  1  0
 15 11  1  0
 15 12  1  0
M  END
>  <NAME>  (3210) 
2-SEC-BUTYLPHENYL N-METHYLCARBAMATE

>  <SYNONYMS>  (3210) 


>  <SPECTRUM TYPE>  (3210) 
MS1

>  <INSTRUMENT TYPE>  (3210) 
EI-B

>  <INSTRUMENT>  (3210) 
JEOL JMS-01-SG

>  <ION MODE>  (3210) 
P

>  <INCHIKEY>  (3210) 
DIRFUJHNVNOBMY-UHFFFAOYSA-N

>  <FORMULA>  (3210) 
C12H17NO2

>  <EXACT MASS>  (3210) 
207.125928784

>  <MW>  (3210) 
207

>  <ID>  (3210) 
JP007531

>  <CONTRIBUTOR>  (3210) 
University of Tokyo Team, {Faculty of Engineering, University of Tokyo

>  <COMMENT>  (3210) 
SMILES=CNC(=O)Oc(c1)c(ccc1)C(C)CC
InChI=InChI=1S/C12H17NO2/c1-4-9(2)10-7-5-6-8-11(10)15-12(14)13-3/h5-9H,4H2,1-3H3,(H,13,14)
computed SMILES=OC(=NC)OC=1C=CC=CC1C(C)CC
accession=JP007531
date=2016.01.19 (Created 2008.10.21, modified 2011.05.06)
author=KOGA M, UNIV. OF OCCUPATIONAL AND ENVIRONMENTAL HEALTH
license=CC BY-NC-SA
exact mass=207.12593
ionization energy=70 eV
ion type=[M]+*
computed spectral entropy=3.1435368358281655
computed normalized entropy=0.767775351599156
SPLASH=splash10-0fkc-6900000000-adbb3857b8231ec72227
submitter=submitter = University of Tokyo Team (Faculty of Engineering, University of Tokyo)
MoNA Rating=3.75

>  <NUM PEAKS>  (3210) 
60

>  <MASS SPECTRAL PEAKS>  (3210) 
43 2.8
51 15.9
52 2.8
53 1.23
55 18.1
56 10.8
57 24.6
58 3.69
63 7.9
64 6.5
65 26
66 0.65
67 2.8
68 2.8
71 4.3
74 0.14
75 2.8
76 3.6
77 84
79 1.15
85 1.4
86 3.6
89 6.5
90 0.21
91 84
92 12.3
93 34.7
94 1.01
95 7.2
102 7.2
103 76
104 0.84
105 11.5
107 89.1
108 6.5
115 1.3
116 5
117 6.5
119 12.3
120 1.3
121 93.4
122 99.99
123 5.7
128 0.57
131 3.6
132 2.1
133 7.2
134 0.5
135 25.3
141 2.8
149 2.8
150 8.4
151 38.4
152 1.4
173 1.4
174 0.5
176 2.1
207 9.4
208 1.4
209 2.1

$$$$

     RDKit          2D

 19 20  0  0  0  0  0  0  0  0999 V2000
    1.1800    5.7300    0.0000 C   0  0  0  0  0  0  0  0  0  0  0  0
    4.5281    4.4310    0.0000 C   0  0  0  0  0  0  0  0  0  0  0  0
    5.0771    6.4800    0.0000 C   0  0  0  0  0  0  0  0  0  0  0  0
    3.0281    7.0290    0.0000 C   0  0  0  0  0  0  0  0  0  0  0  0
   -2.7200   -1.0200    0.0000 C   0  0  0  0  0  0  0  0  0  0  0  0
   -2.7200    0.4800    0.0000 C   0  0  0  0  0  0  0  0  0  0  0  0
    2.4800   -1.0200    0.0000 C   0  0  0  0  0  0  0  0  0  0  0  0
   -1.4200   -1.7700    0.0000 C   0  0  0  0  0  0  0  0  0  0  0  0
    1.1800   -1.7700    0.0000 C   0  0  0  0  0  0  0  0  0  0  0  0
   -1.4200    1.2300    0.0000 C   0  0  0  0  0  0  0  0  0  0  0  0
    2.4800    0.4800    0.0000 C   0  0  0  0  0  0  0  0  0  0  0  0
   -0.1200   -1.0200    0.0000 C   0  0  0  0  0  0  0  0  0  0  0  0
   -0.1200    0.4800    0.0000 C   0  0  0  0  0  0  0  0  0  0  0  0
    1.1800    1.2300    0.0000 C   0  0  0  0  0  0  0  0  0  0  0  0
    2.4790    3.4800    0.0000 C   0  0  0  0  0  0  0  0  0  0  0  0
    2.4790    4.9800    0.0000 N   0  0  0  0  0  0  0  0  0  0  0  0
    3.7781    2.7300    0.0000 O   0  0  0  0  0  0  0  0  0  0  0  0
    1.1800    2.7300    0.0000 O   0  0  0  0  0  0  0  0  0  0  0  0
    3.7781    5.7300    0.0000 Si  0  0  0  0  0  4  0  0  0  0  0  0
  6  5  2  0
  8  5  1  0
  9  7  2  0
 10  6  1  0
 11  7  1  0
 12  8  2  0
 12  9  1  0
 13 10  2  0
 13 12  1  0
 14 11  2  0
 14 13  1  0
 16  1  1  0
 16 15  1  0
 17 15  2  0
 18 14  1  0
 18 15  1  0
 19  2  1  0
 19  3  1  0
 19  4  1  0
 19 16  1  0
M  END
>  <NAME>  (3211) 
1-NAPHTHYL N-TRIMETHYLSILYL-N-METHYLCARBAMATE

>  <SYNONYMS>  (3211) 


>  <SPECTRUM TYPE>  (3211) 
MS1

>  <INSTRUMENT TYPE>  (3211) 
EI-B

>  <INSTRUMENT>  (3211) 
JEOL JMS-01-SG

>  <ION MODE>  (3211) 
P

>  <INCHIKEY>  (3211) 
SLCYRFLZSPSLSO-UHFFFAOYSA-N

>  <FORMULA>  (3211) 
C15H19NO2Si

>  <EXACT MASS>  (3211) 
273.118505378

>  <MW>  (3211) 
273

>  <ID>  (3211) 
JP007530

>  <CONTRIBUTOR>  (3211) 
University of Tokyo Team, {Faculty of Engineering, University of Tokyo

>  <COMMENT>  (3211) 
SMILES=O=C(Oc(c1)c(c2)c(ccc2)cc1)N(C)[Si](C)(C)C
InChI=InChI=1S/C15H19NO2Si/c1-16(19(2,3)4)15(17)18-14-11-7-9-12-8-5-6-10-13(12)14/h5-11H,1-4H3
computed SMILES=O=C(OC1=CC=CC=2C=CC=CC12)N(C)[Si](C)(C)C
accession=JP007530
date=2016.01.19 (Created 2008.10.21, modified 2011.05.06)
author=KOGA M, UNIV. OF OCCUPATIONAL AND ENVIRONMENTAL HEALTH
license=CC BY-NC-SA
exact mass=273.11851
ionization energy=70 eV
ion type=[M]+*
computed spectral entropy=3.2387143742084255
computed normalized entropy=0.7675574025461468
SPLASH=splash10-0g4i-9860000000-c6b878b8f2e238dd6eca
submitter=submitter = University of Tokyo Team (Faculty of Engineering, University of Tokyo)
MoNA Rating=3.75

>  <NUM PEAKS>  (3211) 
68

>  <MASS SPECTRAL PEAKS>  (3211) 
37 3.9
42 7.9
43 5.1
44 2.83
45 1.1
46 3
50 1.8
51 0.41
53 1.3
55 1.8
58 1.8
59 0.2
62 1.3
63 6
64 2
65 0.27
72 1.8
73 99.99
74 11.1
75 1.27
76 3.2
77 8.3
78 1.3
86 0.32
87 1.3
89 3.4
92 0.25
93 16.9
94 5.8
99 1.6
101 2.69
114 1.1
115 23.7
116 2.7
126 1.16
127 28.3
128 5.5
129 1.8
139 0.67
140 2.7
141 31.6
142 5.8
143 0.39
145 6.5
155 2.7
169 1.1
170 0.88
171 10
172 1.3
173 1.3
181 0.13
183 6.2
184 3.7
185 40.9
186 1.65
187 5.8
199 4.8
200 5.8
201 2.51
202 48.6
203 13
204 1.1
214 0.11
215 5.3
216 23
217 47.6
218 1.27
219 1.1

$$$$

     RDKit          2D

 19 19  0  0  0  0  0  0  0  0999 V2000
    6.8701   -0.4760    0.0000 C   0  0  0  0  0  0  0  0  0  0  0  0
    4.2723   -1.9764    0.0000 C   0  0  0  0  0  0  0  0  0  0  0  0
    1.6731   -4.9766    0.0000 C   0  0  0  0  0  0  0  0  0  0  0  0
   -1.6747   -3.6771    0.0000 C   0  0  0  0  0  0  0  0  0  0  0  0
   -2.2241   -5.7260    0.0000 C   0  0  0  0  0  0  0  0  0  0  0  0
   -0.1751   -6.2754    0.0000 C   0  0  0  0  0  0  0  0  0  0  0  0
    5.5710    0.2738    0.0000 C   0  0  0  0  0  0  0  0  0  0  0  0
    1.6729    2.5250    0.0000 C   0  0  0  0  0  0  0  0  0  0  0  0
    0.3739    1.7750    0.0000 C   0  0  0  0  0  0  0  0  0  0  0  0
    2.9724    1.7742    0.0000 C   0  0  0  0  0  0  0  0  0  0  0  0
    0.3743    0.2742    0.0000 C   0  0  0  0  0  0  0  0  0  0  0  0
    4.2721   -0.4764    0.0000 C   0  0  0  0  0  0  0  0  0  0  0  0
    2.9729    0.2734    0.0000 C   0  0  0  0  0  0  0  0  0  0  0  0
    1.6739   -0.4766    0.0000 C   0  0  0  0  0  0  0  0  0  0  0  0
    0.3745   -2.7264    0.0000 C   0  0  0  0  0  0  0  0  0  0  0  0
    0.3742   -4.2264    0.0000 N   0  0  0  0  0  0  0  0  0  0  0  0
   -0.9245   -1.9762    0.0000 O   0  0  0  0  0  0  0  0  0  0  0  0
    1.6736   -1.9766    0.0000 O   0  0  0  0  0  0  0  0  0  0  0  0
   -0.9249   -4.9762    0.0000 Si  0  0  0  0  0  4  0  0  0  0  0  0
  7  1  1  0
  9  8  2  0
 10  8  1  0
 11  9  1  0
 12  2  1  0
 12  7  1  0
 13 10  2  0
 13 12  1  0
 14 11  2  0
 14 13  1  0
 16  3  1  0
 16 15  1  0
 17 15  2  0
 18 14  1  0
 18 15  1  0
 19  4  1  0
 19  5  1  0
 19  6  1  0
 19 16  1  0
M  END
>  <NAME>  (3212) 
2-SEC-BUTYLPHENYL N-TRIMETHYLSILYL-N-METHYLCARBAMATE

>  <SYNONYMS>  (3212) 


>  <SPECTRUM TYPE>  (3212) 
MS1

>  <INSTRUMENT TYPE>  (3212) 
EI-B

>  <INSTRUMENT>  (3212) 
JEOL JMS-01-SG

>  <ION MODE>  (3212) 
P

>  <INCHIKEY>  (3212) 
SAHJVCUSCHXJPX-UHFFFAOYSA-N

>  <FORMULA>  (3212) 
C15H25NO2Si

>  <EXACT MASS>  (3212) 
279.16545557

>  <MW>  (3212) 
279

>  <ID>  (3212) 
JP007529

>  <CONTRIBUTOR>  (3212) 
University of Tokyo Team, {Faculty of Engineering, University of Tokyo

>  <COMMENT>  (3212) 
SMILES=CCC(C)c(c1)c(ccc1)OC(=O)N(C)[Si](C)(C)C
InChI=InChI=1S/C15H25NO2Si/c1-7-12(2)13-10-8-9-11-14(13)18-15(17)16(3)19(4,5)6/h8-12H,7H2,1-6H3
computed SMILES=O=C(OC=1C=CC=CC1C(C)CC)N(C)[Si](C)(C)C
accession=JP007529
date=2016.01.19 (Created 2008.10.21, modified 2011.05.06)
author=KOGA M, UNIV. OF OCCUPATIONAL AND ENVIRONMENTAL HEALTH
license=CC BY-NC-SA
exact mass=279.16546
ionization energy=70 eV
ion type=[M]+*
computed spectral entropy=3.2702618680138262
computed normalized entropy=0.7955150111791303
SPLASH=splash10-00dl-8920000000-3d19a1283bdc2324bdd7
submitter=submitter = University of Tokyo Team (Faculty of Engineering, University of Tokyo)
MoNA Rating=3.75

>  <NUM PEAKS>  (3212) 
61

>  <MASS SPECTRAL PEAKS>  (3212) 
37 3.3
40 10
42 11.6
43 0.25
44 40.8
47 3.3
51 3.3
55 0.91
56 11.6
57 24.1
58 2.5
59 1.75
61 2.5
63 2.5
65 7.5
72 0.75
73 52.5
74 45.8
75 28.3
76 0.25
77 8.3
78 6.6
81 5
82 1.33
86 3.3
88 2.5
89 32.5
91 2.08
92 3.3
93 3.3
103 9.1
105 0.33
107 7.5
115 5
117 3.3
121 4.83
122 5.8
130 79.1
131 17.5
132 0.5
133 2.5
135 8.3
147 2.5
150 1.41
151 6.6
161 3.3
163 14.1
165 0.25
177 5.8
179 4.1
191 4.1
193 99.99
194 30.8
195 7.5
205 4.1
208 0.41
221 2.5
222 75.8
223 13.3
224 0.33
264 6.6

$$$$

     RDKit          2D

 15 15  0  0  0  0  0  0  0  0999 V2000
    5.1970   -1.5006    0.0000 C   0  0  0  0  0  0  0  0  0  0  0  0
    3.8981   -0.7504    0.0000 C   0  0  0  0  0  0  0  0  0  0  0  0
   -1.3000    0.7500    0.0000 C   0  0  0  0  0  0  0  0  0  0  0  0
    0.0000    1.5000    0.0000 C   0  0  0  0  0  0  0  0  0  0  0  0
   -1.3000   -0.7500    0.0000 C   0  0  0  0  0  0  0  0  0  0  0  0
    1.3000    0.7500    0.0000 C   0  0  0  0  0  0  0  0  0  0  0  0
   -0.0000   -1.5000    0.0000 C   0  0  0  0  0  0  0  0  0  0  0  0
    1.3000   -0.7500    0.0000 C   0  0  0  0  0  0  0  0  0  0  0  0
   -2.5989    1.5002    0.0000 Cl  0  0  0  0  0  0  0  0  0  0  0  0
    0.0000    3.0000    0.0000 Cl  0  0  0  0  0  0  0  0  0  0  0  0
   -2.5989   -1.5002    0.0000 Cl  0  0  0  0  0  0  0  0  0  0  0  0
    2.5989    1.5002    0.0000 Cl  0  0  0  0  0  0  0  0  0  0  0  0
   -0.0000   -3.0000    0.0000 Cl  0  0  0  0  0  0  0  0  0  0  0  0
    3.8983    0.7496    0.0000 O   0  0  0  0  0  0  0  0  0  0  0  0
    2.5989   -1.5002    0.0000 O   0  0  0  0  0  0  0  0  0  0  0  0
  2  1  1  0
  4  3  2  0
  5  3  1  0
  6  4  1  0
  7  5  2  0
  8  6  2  0
  8  7  1  0
  9  3  1  0
 10  4  1  0
 11  5  1  0
 12  6  1  0
 13  7  1  0
 14  2  2  0
 15  2  1  0
 15  8  1  0
M  END
>  <NAME>  (3213) 
PENTACHLOROPHENYL ACETATE

>  <SYNONYMS>  (3213) 


>  <SPECTRUM TYPE>  (3213) 
MS1

>  <INSTRUMENT TYPE>  (3213) 
EI-B

>  <INSTRUMENT>  (3213) 
JEOL JMS-01-SG

>  <ION MODE>  (3213) 
P

>  <INCHIKEY>  (3213) 
RRYATXLRCBOQTJ-UHFFFAOYSA-N

>  <FORMULA>  (3213) 
C8H3Cl5O2

>  <EXACT MASS>  (3213) 
305.85756773599996

>  <MW>  (3213) 
306

>  <ID>  (3213) 
JP007528

>  <CONTRIBUTOR>  (3213) 
University of Tokyo Team, {Faculty of Engineering, University of Tokyo

>  <COMMENT>  (3213) 
SMILES=CC(=O)Oc(c(Cl)1)c(Cl)c(Cl)c(Cl)c(Cl)1
InChI=InChI=1S/C8H3Cl5O2/c1-2(14)15-8-6(12)4(10)3(9)5(11)7(8)13/h1H3
computed SMILES=O=C(OC=1C(Cl)=C(Cl)C(Cl)=C(Cl)C1Cl)C
accession=JP007528
date=2016.01.19 (Created 2008.10.21, modified 2011.05.06)
author=KOGA M, UNIV. OF OCCUPATIONAL AND ENVIRONMENTAL HEALTH
license=CC BY-NC-SA
exact mass=305.85757
ionization energy=70 eV
ion type=[M]+*
computed spectral entropy=2.883624729634841
computed normalized entropy=0.6834031197756728
SPLASH=splash10-0006-9260000000-a896652b8e19de9360f3
submitter=submitter = University of Tokyo Team (Faculty of Engineering, University of Tokyo)
MoNA Rating=3.75

>  <NUM PEAKS>  (3213) 
68

>  <MASS SPECTRAL PEAKS>  (3213) 
35 3.8
38 1.3
41 1.6
42 0.23
43 99.99
44 2
55 1.3
57 0.14
60 1.9
61 3.2
62 1.1
71 0.16
72 1
73 1.3
83 1.6
85 0.1
95 3.1
96 3.8
97 2.6
98 0.14
106 1.1
107 1.9
108 1.3
109 0.14
117 1
119 1
130 2.2
131 0.58
132 1.9
133 3.8
135 1
141 0.16
143 1.7
145 1
162 1
165 0.29
166 1.6
167 3.5
168 1.6
169 0.16
194 1.4
196 4.1
198 3.2
200 0.13
201 2.5
202 1
203 2.9
205 0.14
230 16
231 1.1
232 22
233 0.13
234 9.2
235 1.7
236 1.7
237 0.19
239 1.3
264 7.3
266 10.9
267 0.1
268 8
270 2.5
272 2.8
274 0.34
276 1.3
306 1.4
308 3.1
310 1.4

$$$$

     RDKit          2D

 14 14  0  0  0  0  0  0  0  0999 V2000
   -5.1970   -1.5006    0.0000 C   0  0  0  0  0  0  0  0  0  0  0  0
   -1.3000    0.7500    0.0000 C   0  0  0  0  0  0  0  0  0  0  0  0
   -3.8981   -0.7504    0.0000 C   0  0  0  0  0  0  0  0  0  0  0  0
    0.0000    1.5000    0.0000 C   0  0  0  0  0  0  0  0  0  0  0  0
   -1.3000   -0.7500    0.0000 C   0  0  0  0  0  0  0  0  0  0  0  0
    1.3000    0.7500    0.0000 C   0  0  0  0  0  0  0  0  0  0  0  0
   -0.0000   -1.5000    0.0000 C   0  0  0  0  0  0  0  0  0  0  0  0
    1.3000   -0.7500    0.0000 C   0  0  0  0  0  0  0  0  0  0  0  0
    0.0000    3.0000    0.0000 Cl  0  0  0  0  0  0  0  0  0  0  0  0
    2.5989    1.5002    0.0000 Cl  0  0  0  0  0  0  0  0  0  0  0  0
   -0.0000   -3.0000    0.0000 Cl  0  0  0  0  0  0  0  0  0  0  0  0
    2.5989   -1.5002    0.0000 Cl  0  0  0  0  0  0  0  0  0  0  0  0
   -3.8983    0.7496    0.0000 O   0  0  0  0  0  0  0  0  0  0  0  0
   -2.5989   -1.5002    0.0000 O   0  0  0  0  0  0  0  0  0  0  0  0
  3  1  1  0
  4  2  2  0
  5  2  1  0
  6  4  1  0
  7  5  2  0
  8  6  2  0
  8  7  1  0
  9  4  1  0
 10  6  1  0
 11  7  1  0
 12  8  1  0
 13  3  2  0
 14  3  1  0
 14  5  1  0
M  END
>  <NAME>  (3214) 
2,3,4,5-TETRACHLOROPHENYL ACETATE

>  <SYNONYMS>  (3214) 


>  <SPECTRUM TYPE>  (3214) 
MS1

>  <INSTRUMENT TYPE>  (3214) 
EI-B

>  <INSTRUMENT>  (3214) 
JEOL JMS-01-SG

>  <ION MODE>  (3214) 
P

>  <INCHIKEY>  (3214) 
QHRJCQOAJGBWRV-UHFFFAOYSA-N

>  <FORMULA>  (3214) 
C8H4Cl4O2

>  <EXACT MASS>  (3214) 
271.896540088

>  <MW>  (3214) 
272

>  <ID>  (3214) 
JP007527

>  <CONTRIBUTOR>  (3214) 
University of Tokyo Team, {Faculty of Engineering, University of Tokyo

>  <COMMENT>  (3214) 
SMILES=CC(=O)Oc(c1)c(Cl)c(Cl)c(Cl)c(Cl)1
InChI=InChI=1S/C8H4Cl4O2/c1-3(13)14-5-2-4(9)6(10)8(12)7(5)11/h2H,1H3
computed SMILES=O=C(OC1=CC(Cl)=C(Cl)C(Cl)=C1Cl)C
accession=JP007527
date=2016.01.19 (Created 2008.10.21, modified 2011.05.06)
author=KOGA M, UNIV. OF OCCUPATIONAL AND ENVIRONMENTAL HEALTH
license=CC BY-NC-SA
exact mass=271.89654
ionization energy=70 eV
ion type=[M]+*
computed spectral entropy=2.832168892491101
computed normalized entropy=0.6945782672637514
SPLASH=splash10-001l-7290000000-491c7690195523480b73
submitter=submitter = University of Tokyo Team (Faculty of Engineering, University of Tokyo)
MoNA Rating=3.75

>  <NUM PEAKS>  (3214) 
59

>  <MASS SPECTRAL PEAKS>  (3214) 
35 1.5
37 1.8
41 1.4
42 0.5
43 99.99
44 3.5
47 2
49 0.15
60 5
61 10.7
62 1.5
71 0.25
72 2.1
73 2
83 2.6
84 0.18
85 1.5
87 1.4
95 3.4
96 1.2
97 3.1
98 4.3
106 1.8
107 0.48
108 3.7
109 2.8
117 1.5
119 0.14
130 2
131 18.1
132 1.8
133 1
135 1.8
141 2.9
143 3.9
145 0.15
166 2.5
167 2.9
168 2.9
169 0.17
194 3.4
196 2.1
198 2.8
201 0.62
203 9.8
205 4.2
230 49.6
231 0.39
232 68.8
233 3.2
234 23.7
235 0.14
236 7.3
266 1.5
268 1.2
272 0.81
274 6.5
275 1.8
276 6.5

$$$$

     RDKit          2D

 14 14  0  0  0  0  0  0  0  0999 V2000
   -4.2219   -2.0625    0.0000 C   0  0  0  0  0  0  0  0  0  0  0  0
    0.9738    0.9383    0.0000 C   0  0  0  0  0  0  0  0  0  0  0  0
   -2.9228   -1.3125    0.0000 C   0  0  0  0  0  0  0  0  0  0  0  0
    2.2733    0.1875    0.0000 C   0  0  0  0  0  0  0  0  0  0  0  0
   -0.3252    0.1883    0.0000 C   0  0  0  0  0  0  0  0  0  0  0  0
    2.2738   -1.3133    0.0000 C   0  0  0  0  0  0  0  0  0  0  0  0
    0.9748   -2.0633    0.0000 C   0  0  0  0  0  0  0  0  0  0  0  0
   -0.3248   -1.3125    0.0000 C   0  0  0  0  0  0  0  0  0  0  0  0
    3.5724    0.9375    0.0000 Cl  0  0  0  0  0  0  0  0  0  0  0  0
   -1.6244    0.9381    0.0000 Cl  0  0  0  0  0  0  0  0  0  0  0  0
    3.5730   -2.0631    0.0000 Cl  0  0  0  0  0  0  0  0  0  0  0  0
    0.9745   -3.5633    0.0000 Cl  0  0  0  0  0  0  0  0  0  0  0  0
   -2.9228    0.1875    0.0000 O   0  0  0  0  0  0  0  0  0  0  0  0
   -1.6238   -2.0625    0.0000 O   0  0  0  0  0  0  0  0  0  0  0  0
  3  1  1  0
  4  2  2  0
  5  2  1  0
  6  4  1  0
  7  6  2  0
  8  5  2  0
  8  7  1  0
  9  4  1  0
 10  5  1  0
 11  6  1  0
 12  7  1  0
 13  3  2  0
 14  3  1  0
 14  8  1  0
M  END
>  <NAME>  (3215) 
2,3,4,6-TETRACHLOROPHENYL ACETATE

>  <SYNONYMS>  (3215) 


>  <SPECTRUM TYPE>  (3215) 
MS1

>  <INSTRUMENT TYPE>  (3215) 
EI-B

>  <INSTRUMENT>  (3215) 
JEOL JMS-01-SG

>  <ION MODE>  (3215) 
P

>  <INCHIKEY>  (3215) 
RHZFLXLMXCNOHX-UHFFFAOYSA-N

>  <FORMULA>  (3215) 
C8H4Cl4O2

>  <EXACT MASS>  (3215) 
271.896540088

>  <MW>  (3215) 
272

>  <ID>  (3215) 
JP007526

>  <CONTRIBUTOR>  (3215) 
University of Tokyo Team, {Faculty of Engineering, University of Tokyo

>  <COMMENT>  (3215) 
SMILES=CC(=O)Oc(c(Cl)1)c(Cl)c(Cl)c(Cl)c1
InChI=InChI=1S/C8H4Cl4O2/c1-3(13)14-8-5(10)2-4(9)6(11)7(8)12/h2H,1H3
computed SMILES=O=C(OC=1C(Cl)=CC(Cl)=C(Cl)C1Cl)C
accession=JP007526
date=2016.01.19 (Created 2008.10.21, modified 2011.05.06)
author=KOGA M, UNIV. OF OCCUPATIONAL AND ENVIRONMENTAL HEALTH
license=CC BY-NC-SA
exact mass=271.89654
ionization energy=70 eV
ion type=[M]+*
computed spectral entropy=2.422353496666945
computed normalized entropy=0.6363457498994352
SPLASH=splash10-000x-8290000000-6c835a35dba5c217f713
submitter=submitter = University of Tokyo Team (Faculty of Engineering, University of Tokyo)
MoNA Rating=3.75

>  <NUM PEAKS>  (3215) 
45

>  <MASS SPECTRAL PEAKS>  (3215) 
38 1.9
42 2.2
43 99.99
44 0.34
60 1.3
61 2.8
71 1.1
83 0.13
85 1
95 1.5
96 3.6
97 0.13
98 1.1
106 1
107 2.1
108 0.11
109 1.1
130 1.1
131 5.9
132 0.11
133 4
141 1.1
143 1.7
165 0.11
166 2.3
167 2
168 2.1
169 0.1
194 1.8
196 3.9
199 2.2
201 0.28
203 3.6
205 1.8
230 32
231 0.31
232 39.8
233 3.1
234 19.3
235 0.18
236 4.1
237 1
272 8.5
274 1.04
276 5

$$$$

     RDKit          2D

 14 14  0  0  0  0  0  0  0  0999 V2000
    5.1970   -1.5006    0.0000 C   0  0  0  0  0  0  0  0  0  0  0  0
   -1.3000    0.7500    0.0000 C   0  0  0  0  0  0  0  0  0  0  0  0
    3.8981   -0.7504    0.0000 C   0  0  0  0  0  0  0  0  0  0  0  0
    0.0000    1.5000    0.0000 C   0  0  0  0  0  0  0  0  0  0  0  0
   -1.3000   -0.7500    0.0000 C   0  0  0  0  0  0  0  0  0  0  0  0
    1.3000    0.7500    0.0000 C   0  0  0  0  0  0  0  0  0  0  0  0
   -0.0000   -1.5000    0.0000 C   0  0  0  0  0  0  0  0  0  0  0  0
    1.3000   -0.7500    0.0000 C   0  0  0  0  0  0  0  0  0  0  0  0
    0.0000    3.0000    0.0000 Cl  0  0  0  0  0  0  0  0  0  0  0  0
   -2.5989   -1.5002    0.0000 Cl  0  0  0  0  0  0  0  0  0  0  0  0
    2.5989    1.5002    0.0000 Cl  0  0  0  0  0  0  0  0  0  0  0  0
   -0.0000   -3.0000    0.0000 Cl  0  0  0  0  0  0  0  0  0  0  0  0
    3.8983    0.7496    0.0000 O   0  0  0  0  0  0  0  0  0  0  0  0
    2.5989   -1.5002    0.0000 O   0  0  0  0  0  0  0  0  0  0  0  0
  3  1  1  0
  4  2  2  0
  5  2  1  0
  6  4  1  0
  7  5  2  0
  8  6  2  0
  8  7  1  0
  9  4  1  0
 10  5  1  0
 11  6  1  0
 12  7  1  0
 13  3  2  0
 14  3  1  0
 14  8  1  0
M  END
>  <NAME>  (3216) 
2,3,5,6-TETRACHLOROPHENYL ACETATE

>  <SYNONYMS>  (3216) 


>  <SPECTRUM TYPE>  (3216) 
MS1

>  <INSTRUMENT TYPE>  (3216) 
EI-B

>  <INSTRUMENT>  (3216) 
JEOL JMS-01-SG

>  <ION MODE>  (3216) 
P

>  <INCHIKEY>  (3216) 
NHBOZDKIYJWIIT-UHFFFAOYSA-N

>  <FORMULA>  (3216) 
C8H4Cl4O2

>  <EXACT MASS>  (3216) 
271.896540088

>  <MW>  (3216) 
272

>  <ID>  (3216) 
JP007525

>  <CONTRIBUTOR>  (3216) 
University of Tokyo Team, {Faculty of Engineering, University of Tokyo

>  <COMMENT>  (3216) 
SMILES=CC(=O)Oc(c(Cl)1)c(Cl)c(Cl)cc(Cl)1
InChI=InChI=1S/C8H4Cl4O2/c1-3(13)14-8-6(11)4(9)2-5(10)7(8)12/h2H,1H3
computed SMILES=O=C(OC=1C(Cl)=C(Cl)C=C(Cl)C1Cl)C
accession=JP007525
date=2016.01.19 (Created 2008.10.21, modified 2011.05.06)
author=KOGA M, UNIV. OF OCCUPATIONAL AND ENVIRONMENTAL HEALTH
license=CC BY-NC-SA
exact mass=271.89654
ionization energy=70 eV
ion type=[M]+*
computed spectral entropy=2.6905575543615967
computed normalized entropy=0.6776724767208417
SPLASH=splash10-0006-9240000000-328f8a921cf206edc915
submitter=submitter = University of Tokyo Team (Faculty of Engineering, University of Tokyo)
MoNA Rating=3.75

>  <NUM PEAKS>  (3216) 
53

>  <MASS SPECTRAL PEAKS>  (3216) 
35 1.5
37 2.6
41 1.4
42 0.47
43 99.99
44 2.3
47 1.7
49 0.11
60 3.3
61 7
71 1.5
72 0.27
73 1.6
74 1
83 2.1
84 0.14
85 1.4
87 1.5
95 3.3
96 0.89
97 2.8
98 3.1
106 1.1
107 0.46
108 2.8
109 3.1
130 1.4
131 1.22
132 1.4
133 7.8
135 1.5
141 0.16
143 2.6
145 1.6
166 2.3
167 0.13
168 2.2
169 1.1
194 1.9
196 0.21
198 1
201 5.9
203 8.4
205 0.39
230 15.8
231 2
232 20.5
233 0.17
234 10
236 2.2
272 4.7
274 0.62
276 2.8

$$$$

     RDKit          2D

 13 13  0  0  0  0  0  0  0  0999 V2000
    4.2219    0.1875    0.0000 C   0  0  0  0  0  0  0  0  0  0  0  0
    0.3252    2.4383    0.0000 C   0  0  0  0  0  0  0  0  0  0  0  0
   -0.9748    0.1867    0.0000 C   0  0  0  0  0  0  0  0  0  0  0  0
    2.9228    0.9375    0.0000 C   0  0  0  0  0  0  0  0  0  0  0  0
    0.3248    0.9375    0.0000 C   0  0  0  0  0  0  0  0  0  0  0  0
   -0.9738    3.1883    0.0000 C   0  0  0  0  0  0  0  0  0  0  0  0
   -2.2738    0.9367    0.0000 C   0  0  0  0  0  0  0  0  0  0  0  0
   -2.2733    2.4375    0.0000 C   0  0  0  0  0  0  0  0  0  0  0  0
   -0.9740    4.6883    0.0000 Cl  0  0  0  0  0  0  0  0  0  0  0  0
   -3.5730    0.1869    0.0000 Cl  0  0  0  0  0  0  0  0  0  0  0  0
   -3.5724    3.1875    0.0000 Cl  0  0  0  0  0  0  0  0  0  0  0  0
    2.9228    2.4375    0.0000 O   0  0  0  0  0  0  0  0  0  0  0  0
    1.6238    0.1875    0.0000 O   0  0  0  0  0  0  0  0  0  0  0  0
  4  1  1  0
  5  2  2  0
  5  3  1  0
  6  2  1  0
  7  3  2  0
  8  6  2  0
  8  7  1  0
  9  6  1  0
 10  7  1  0
 11  8  1  0
 12  4  2  0
 13  4  1  0
 13  5  1  0
M  END
>  <NAME>  (3217) 
3,4,5-TRICHLOROPHENYL ACETATE

>  <SYNONYMS>  (3217) 


>  <SPECTRUM TYPE>  (3217) 
MS1

>  <INSTRUMENT TYPE>  (3217) 
EI-B

>  <INSTRUMENT>  (3217) 
JEOL JMS-01-SG

>  <ION MODE>  (3217) 
P

>  <INCHIKEY>  (3217) 
XVARLELSNCXVLM-UHFFFAOYSA-N

>  <FORMULA>  (3217) 
C8H5Cl3O2

>  <EXACT MASS>  (3217) 
237.93551244

>  <MW>  (3217) 
238

>  <ID>  (3217) 
JP007524

>  <CONTRIBUTOR>  (3217) 
University of Tokyo Team, {Faculty of Engineering, University of Tokyo

>  <COMMENT>  (3217) 
SMILES=CC(=O)Oc(c1)cc(Cl)c(Cl)c(Cl)1
InChI=InChI=1S/C8H5Cl3O2/c1-4(12)13-5-2-6(9)8(11)7(10)3-5/h2-3H,1H3
computed SMILES=O=C(OC1=CC(Cl)=C(Cl)C(Cl)=C1)C
accession=JP007524
date=2016.01.19 (Created 2008.10.21, modified 2011.05.06)
author=KOGA M, UNIV. OF OCCUPATIONAL AND ENVIRONMENTAL HEALTH
license=CC BY-NC-SA
exact mass=237.93551
ionization energy=70 eV
ion type=[M]+*
computed spectral entropy=2.459014605267667
computed normalized entropy=0.6579004717910406
SPLASH=splash10-0006-9310000000-008b033dbb49f6a642ca
submitter=submitter = University of Tokyo Team (Faculty of Engineering, University of Tokyo)
MoNA Rating=3.75

>  <NUM PEAKS>  (3217) 
42

>  <MASS SPECTRAL PEAKS>  (3217) 
35 3.1
37 1.8
38 1
42 0.3
43 99.99
44 2.5
49 1
60 0.14
61 6.1
62 9.2
63 1.5
72 0.22
73 3.4
74 2.2
83 2.1
84 0.11
85 1.3
96 2.3
97 13.2
98 0.12
99 4.2
107 3.5
108 1.1
109 0.28
132 2.2
133 4.3
134 1.8
135 0.26
160 2.2
162 2
167 5.1
169 0.46
171 1.2
196 33.4
197 2.7
198 3.25
199 2.3
200 10.2
202 1
238 0.68
240 6.6
242 2.1

$$$$

     RDKit          2D

 13 13  0  0  0  0  0  0  0  0999 V2000
   -3.8978    1.5007    0.0000 C   0  0  0  0  0  0  0  0  0  0  0  0
    1.2994   -1.5004    0.0000 C   0  0  0  0  0  0  0  0  0  0  0  0
   -0.0001   -0.7495    0.0000 C   0  0  0  0  0  0  0  0  0  0  0  0
   -2.5986    0.7509    0.0000 C   0  0  0  0  0  0  0  0  0  0  0  0
    2.5985   -0.7504    0.0000 C   0  0  0  0  0  0  0  0  0  0  0  0
   -0.0006    0.7513    0.0000 C   0  0  0  0  0  0  0  0  0  0  0  0
    2.5980    0.7505    0.0000 C   0  0  0  0  0  0  0  0  0  0  0  0
    1.2985    1.5013    0.0000 C   0  0  0  0  0  0  0  0  0  0  0  0
    3.8976   -1.5002    0.0000 Cl  0  0  0  0  0  0  0  0  0  0  0  0
    3.8970    1.5005    0.0000 Cl  0  0  0  0  0  0  0  0  0  0  0  0
    1.2987    3.0013    0.0000 Cl  0  0  0  0  0  0  0  0  0  0  0  0
   -2.5984   -0.7491    0.0000 O   0  0  0  0  0  0  0  0  0  0  0  0
   -1.2997    1.5011    0.0000 O   0  0  0  0  0  0  0  0  0  0  0  0
  3  2  2  0
  4  1  1  0
  5  2  1  0
  6  3  1  0
  7  5  2  0
  8  6  2  0
  8  7  1  0
  9  5  1  0
 10  7  1  0
 11  8  1  0
 12  4  2  0
 13  4  1  0
 13  6  1  0
M  END
>  <NAME>  (3218) 
2,3,4-TRICHLOROPHENYL ACETATE

>  <SYNONYMS>  (3218) 


>  <SPECTRUM TYPE>  (3218) 
MS1

>  <INSTRUMENT TYPE>  (3218) 
EI-B

>  <INSTRUMENT>  (3218) 
JEOL JMS-01-SG

>  <ION MODE>  (3218) 
P

>  <INCHIKEY>  (3218) 
PCXZOWRGWZCTLG-UHFFFAOYSA-N

>  <FORMULA>  (3218) 
C8H5Cl3O2

>  <EXACT MASS>  (3218) 
237.93551244

>  <MW>  (3218) 
238

>  <ID>  (3218) 
JP007523

>  <CONTRIBUTOR>  (3218) 
University of Tokyo Team, {Faculty of Engineering, University of Tokyo

>  <COMMENT>  (3218) 
SMILES=CC(=O)Oc(c1)c(Cl)c(Cl)c(Cl)c1
InChI=InChI=1S/C8H5Cl3O2/c1-4(12)13-6-3-2-5(9)7(10)8(6)11/h2-3H,1H3
computed SMILES=O=C(OC1=CC=C(Cl)C(Cl)=C1Cl)C
accession=JP007523
date=2016.01.19 (Created 2008.10.21, modified 2011.05.06)
author=KOGA M, UNIV. OF OCCUPATIONAL AND ENVIRONMENTAL HEALTH
license=CC BY-NC-SA
exact mass=237.93551
ionization energy=70 eV
ion type=[M]+*
computed spectral entropy=2.891767121336633
computed normalized entropy=0.7152437428490629
SPLASH=splash10-0007-9500000000-17d02191ca27fb8ebc73
submitter=submitter = University of Tokyo Team (Faculty of Engineering, University of Tokyo)
MoNA Rating=3.75

>  <NUM PEAKS>  (3218) 
57

>  <MASS SPECTRAL PEAKS>  (3218) 
35 1.3
36 2.7
38 1.5
41 0.15
42 5.6
43 99.99
44 2.1
47 0.14
48 1
49 1.5
50 1.3
60 0.17
61 10.8
62 11.1
63 2.6
71 0.32
72 2.3
73 5.7
74 3.3
75 0.14
83 2.9
84 1.6
85 2
87 0.11
96 5.3
97 22.4
98 2.8
99 0.7
106 2.7
107 5
108 2.7
109 0.46
111 1.1
131 1.6
132 4
133 0.35
134 2.6
135 1.5
141 1
143 0.13
145 1
160 6.2
161 1
162 0.45
167 9.6
169 9.6
171 2.9
195 0.2
196 34.4
197 4.1
198 32.8
199 0.25
200 10.7
202 1
238 6.6
240 0.63
242 2

$$$$

     RDKit          2D

 13 13  0  0  0  0  0  0  0  0999 V2000
    4.2219    0.1875    0.0000 C   0  0  0  0  0  0  0  0  0  0  0  0
   -2.2738    0.9367    0.0000 C   0  0  0  0  0  0  0  0  0  0  0  0
    0.3252    2.4383    0.0000 C   0  0  0  0  0  0  0  0  0  0  0  0
    2.9228    0.9375    0.0000 C   0  0  0  0  0  0  0  0  0  0  0  0
   -2.2733    2.4375    0.0000 C   0  0  0  0  0  0  0  0  0  0  0  0
   -0.9738    3.1883    0.0000 C   0  0  0  0  0  0  0  0  0  0  0  0
   -0.9748    0.1867    0.0000 C   0  0  0  0  0  0  0  0  0  0  0  0
    0.3248    0.9375    0.0000 C   0  0  0  0  0  0  0  0  0  0  0  0
   -3.5724    3.1875    0.0000 Cl  0  0  0  0  0  0  0  0  0  0  0  0
   -0.9740    4.6883    0.0000 Cl  0  0  0  0  0  0  0  0  0  0  0  0
   -0.9745   -1.3133    0.0000 Cl  0  0  0  0  0  0  0  0  0  0  0  0
    2.9228    2.4375    0.0000 O   0  0  0  0  0  0  0  0  0  0  0  0
    1.6238    0.1875    0.0000 O   0  0  0  0  0  0  0  0  0  0  0  0
  4  1  1  0
  5  2  2  0
  6  3  2  0
  6  5  1  0
  7  2  1  0
  8  3  1  0
  8  7  2  0
  9  5  1  0
 10  6  1  0
 11  7  1  0
 12  4  2  0
 13  4  1  0
 13  8  1  0
M  END
>  <NAME>  (3219) 
2,4,5-TRICHLOROPHENYL ACETATE

>  <SYNONYMS>  (3219) 


>  <SPECTRUM TYPE>  (3219) 
MS1

>  <INSTRUMENT TYPE>  (3219) 
EI-B

>  <INSTRUMENT>  (3219) 
JEOL JMS-01-SG

>  <ION MODE>  (3219) 
P

>  <INCHIKEY>  (3219) 
IRMIPIZHLIHQST-UHFFFAOYSA-N

>  <FORMULA>  (3219) 
C8H5Cl3O2

>  <EXACT MASS>  (3219) 
237.93551244

>  <MW>  (3219) 
238

>  <ID>  (3219) 
JP007522

>  <CONTRIBUTOR>  (3219) 
University of Tokyo Team, {Faculty of Engineering, University of Tokyo

>  <COMMENT>  (3219) 
SMILES=CC(=O)Oc(c1)c(Cl)cc(Cl)c(Cl)1
InChI=InChI=1S/C8H5Cl3O2/c1-4(12)13-8-3-6(10)5(9)2-7(8)11/h2-3H,1H3
computed SMILES=O=C(OC1=CC(Cl)=C(Cl)C=C1Cl)C
accession=JP007522
date=2016.01.19 (Created 2008.10.21, modified 2011.05.06)
author=KOGA M, UNIV. OF OCCUPATIONAL AND ENVIRONMENTAL HEALTH
license=CC BY-NC-SA
exact mass=237.93551
ionization energy=70 eV
ion type=[M]+*
computed spectral entropy=2.4266551808981065
computed normalized entropy=0.6451810874866554
SPLASH=splash10-0007-9520000000-bc54445adb6ddadb6793
submitter=submitter = University of Tokyo Team (Faculty of Engineering, University of Tokyo)
MoNA Rating=3.75

>  <NUM PEAKS>  (3219) 
43

>  <MASS SPECTRAL PEAKS>  (3219) 
42 2.2
43 99.99
44 2
49 0.1
50 1
53 1
60 1.3
61 0.49
62 6.9
63 1.2
72 2.6
73 0.3
74 2.1
83 2.1
85 1.3
96 0.21
97 12.8
98 1.2
99 4
107 0.45
108 1.1
109 3.5
131 1
132 0.38
133 3
134 2.6
135 1.5
160 0.11
161 1
162 1.2
167 5.5
169 0.53
171 1.5
196 50.3
197 4
198 4.85
199 3.4
200 15.8
201 1
202 0.13
238 8.8
240 8.6
242 2.6

$$$$

     RDKit          2D

 13 13  0  0  0  0  0  0  0  0999 V2000
    5.1970   -1.5006    0.0000 C   0  0  0  0  0  0  0  0  0  0  0  0
   -1.3000    0.7500    0.0000 C   0  0  0  0  0  0  0  0  0  0  0  0
    1.3000    0.7500    0.0000 C   0  0  0  0  0  0  0  0  0  0  0  0
    3.8981   -0.7504    0.0000 C   0  0  0  0  0  0  0  0  0  0  0  0
    0.0000    1.5000    0.0000 C   0  0  0  0  0  0  0  0  0  0  0  0
   -1.3000   -0.7500    0.0000 C   0  0  0  0  0  0  0  0  0  0  0  0
    1.3000   -0.7500    0.0000 C   0  0  0  0  0  0  0  0  0  0  0  0
   -0.0000   -1.5000    0.0000 C   0  0  0  0  0  0  0  0  0  0  0  0
    0.0000    3.0000    0.0000 Cl  0  0  0  0  0  0  0  0  0  0  0  0
   -2.5989   -1.5002    0.0000 Cl  0  0  0  0  0  0  0  0  0  0  0  0
   -0.0000   -3.0000    0.0000 Cl  0  0  0  0  0  0  0  0  0  0  0  0
    3.8983    0.7496    0.0000 O   0  0  0  0  0  0  0  0  0  0  0  0
    2.5989   -1.5002    0.0000 O   0  0  0  0  0  0  0  0  0  0  0  0
  4  1  1  0
  5  2  2  0
  5  3  1  0
  6  2  1  0
  7  3  2  0
  8  6  2  0
  8  7  1  0
  9  5  1  0
 10  6  1  0
 11  8  1  0
 12  4  2  0
 13  4  1  0
 13  7  1  0
M  END
>  <NAME>  (3220) 
2,3,5-TRICHLOROPHENYL ACETATE

>  <SYNONYMS>  (3220) 


>  <SPECTRUM TYPE>  (3220) 
MS1

>  <INSTRUMENT TYPE>  (3220) 
EI-B

>  <INSTRUMENT>  (3220) 
JEOL JMS-01-SG

>  <ION MODE>  (3220) 
P

>  <INCHIKEY>  (3220) 
YHKQUZSHMROARS-UHFFFAOYSA-N

>  <FORMULA>  (3220) 
C8H5Cl3O2

>  <EXACT MASS>  (3220) 
237.93551244

>  <MW>  (3220) 
238

>  <ID>  (3220) 
JP007521

>  <CONTRIBUTOR>  (3220) 
University of Tokyo Team, {Faculty of Engineering, University of Tokyo

>  <COMMENT>  (3220) 
SMILES=CC(=O)Oc(c1)c(Cl)c(Cl)cc(Cl)1
InChI=InChI=1S/C8H5Cl3O2/c1-4(12)13-7-3-5(9)2-6(10)8(7)11/h2-3H,1H3
computed SMILES=O=C(OC=1C=C(Cl)C=C(Cl)C1Cl)C
accession=JP007521
date=2016.01.19 (Created 2008.10.21, modified 2011.05.06)
author=KOGA M, UNIV. OF OCCUPATIONAL AND ENVIRONMENTAL HEALTH
license=CC BY-NC-SA
exact mass=237.93551
ionization energy=70 eV
ion type=[M]+*
computed spectral entropy=2.189233964602236
computed normalized entropy=0.597569844884429
SPLASH=splash10-0006-9310000000-531f77f27a53d2269f40
submitter=submitter = University of Tokyo Team (Faculty of Engineering, University of Tokyo)
MoNA Rating=3.75

>  <NUM PEAKS>  (3220) 
39

>  <MASS SPECTRAL PEAKS>  (3220) 
35 1.9
37 1.8
38 0.8
42 0.24
43 99.99
44 2.6
60 1.1
61 0.36
62 4.6
63 1.2
72 1.4
73 0.21
74 1.5
83 1.4
85 1.1
96 0.15
97 8.3
98 1.1
99 2.8
107 0.22
109 1.7
132 1.2
133 1.4
134 0.09
135 0.7
160 3.1
162 2.4
167 0.37
169 2.9
171 1.1
196 20
197 0.12
198 18.5
199 1.2
200 6.3
202 0.02
238 5.3
240 5.3
242 1.4

$$$$

     RDKit          2D

 13 13  0  0  0  0  0  0  0  0999 V2000
    5.1970   -1.5006    0.0000 C   0  0  0  0  0  0  0  0  0  0  0  0
   -1.3000    0.7500    0.0000 C   0  0  0  0  0  0  0  0  0  0  0  0
    0.0000    1.5000    0.0000 C   0  0  0  0  0  0  0  0  0  0  0  0
    3.8981   -0.7504    0.0000 C   0  0  0  0  0  0  0  0  0  0  0  0
   -1.3000   -0.7500    0.0000 C   0  0  0  0  0  0  0  0  0  0  0  0
    1.3000    0.7500    0.0000 C   0  0  0  0  0  0  0  0  0  0  0  0
   -0.0000   -1.5000    0.0000 C   0  0  0  0  0  0  0  0  0  0  0  0
    1.3000   -0.7500    0.0000 C   0  0  0  0  0  0  0  0  0  0  0  0
   -2.5989   -1.5002    0.0000 Cl  0  0  0  0  0  0  0  0  0  0  0  0
    2.5989    1.5002    0.0000 Cl  0  0  0  0  0  0  0  0  0  0  0  0
   -0.0000   -3.0000    0.0000 Cl  0  0  0  0  0  0  0  0  0  0  0  0
    3.8983    0.7496    0.0000 O   0  0  0  0  0  0  0  0  0  0  0  0
    2.5989   -1.5002    0.0000 O   0  0  0  0  0  0  0  0  0  0  0  0
  3  2  2  0
  4  1  1  0
  5  2  1  0
  6  3  1  0
  7  5  2  0
  8  6  2  0
  8  7  1  0
  9  5  1  0
 10  6  1  0
 11  7  1  0
 12  4  2  0
 13  4  1  0
 13  8  1  0
M  END
>  <NAME>  (3221) 
2,3,6-TRICHLOROPHENYL ACETATE

>  <SYNONYMS>  (3221) 


>  <SPECTRUM TYPE>  (3221) 
MS1

>  <INSTRUMENT TYPE>  (3221) 
EI-B

>  <INSTRUMENT>  (3221) 
JEOL JMS-01-SG

>  <ION MODE>  (3221) 
P

>  <INCHIKEY>  (3221) 
NIXCFOKFBOFURO-UHFFFAOYSA-N

>  <FORMULA>  (3221) 
C8H5Cl3O2

>  <EXACT MASS>  (3221) 
237.93551244

>  <MW>  (3221) 
238

>  <ID>  (3221) 
JP007520

>  <CONTRIBUTOR>  (3221) 
University of Tokyo Team, {Faculty of Engineering, University of Tokyo

>  <COMMENT>  (3221) 
SMILES=CC(=O)Oc(c(Cl)1)c(Cl)c(Cl)cc1
InChI=InChI=1S/C8H5Cl3O2/c1-4(12)13-8-6(10)3-2-5(9)7(8)11/h2-3H,1H3
computed SMILES=O=C(OC=1C(Cl)=CC=C(Cl)C1Cl)C
accession=JP007520
date=2016.01.19 (Created 2008.10.21, modified 2011.05.06)
author=KOGA M, UNIV. OF OCCUPATIONAL AND ENVIRONMENTAL HEALTH
license=CC BY-NC-SA
exact mass=237.93551
ionization energy=70 eV
ion type=[M]+*
computed spectral entropy=2.8111168772180517
computed normalized entropy=0.6865853214103677
SPLASH=splash10-0006-9300000000-c476c4ef7c1b7808214a
submitter=submitter = University of Tokyo Team (Faculty of Engineering, University of Tokyo)
MoNA Rating=3.75

>  <NUM PEAKS>  (3221) 
60

>  <MASS SPECTRAL PEAKS>  (3221) 
38 1.5
41 1.1
42 4.4
43 99.99
44 3
47 1.4
48 1.1
49 0.14
50 1.2
53 1.5
60 2.5
61 0.96
62 10.5
63 2.1
71 1.4
72 0.45
73 6.7
74 4
75 1.8
83 0.3
84 1.4
85 2.3
86 0.6
87 0.11
95 1.1
96 4.6
97 10.6
98 0.24
99 6.8
106 1
107 7.7
108 0.2
109 6
110 0.8
111 1.1
131 0.13
132 3.7
133 2.4
134 2.3
135 0.11
143 1.1
144 0.5
145 0.6
160 0.33
162 2.2
167 9.3
168 0.8
169 0.89
171 2.7
181 0.5
195 1
196 1.93
197 2.2
198 18.5
199 1.3
200 0.59
202 0.7
238 4.6
240 4.7
242 1.2

$$$$

     RDKit          2D

 13 13  0  0  0  0  0  0  0  0999 V2000
    4.9370    1.3506    0.0000 C   0  0  0  0  0  0  0  0  0  0  0  0
   -1.5600    0.6000    0.0000 C   0  0  0  0  0  0  0  0  0  0  0  0
   -0.2600   -1.6500    0.0000 C   0  0  0  0  0  0  0  0  0  0  0  0
    3.6381    0.6004    0.0000 C   0  0  0  0  0  0  0  0  0  0  0  0
   -1.5600   -0.9000    0.0000 C   0  0  0  0  0  0  0  0  0  0  0  0
   -0.2600    1.3500    0.0000 C   0  0  0  0  0  0  0  0  0  0  0  0
    1.0400   -0.9000    0.0000 C   0  0  0  0  0  0  0  0  0  0  0  0
    1.0400    0.6000    0.0000 C   0  0  0  0  0  0  0  0  0  0  0  0
   -2.8589   -1.6502    0.0000 Cl  0  0  0  0  0  0  0  0  0  0  0  0
   -0.2600    2.8500    0.0000 Cl  0  0  0  0  0  0  0  0  0  0  0  0
    2.3389   -1.6502    0.0000 Cl  0  0  0  0  0  0  0  0  0  0  0  0
    3.6383   -0.8996    0.0000 O   0  0  0  0  0  0  0  0  0  0  0  0
    2.3389    1.3502    0.0000 O   0  0  0  0  0  0  0  0  0  0  0  0
  4  1  1  0
  5  2  2  0
  5  3  1  0
  6  2  1  0
  7  3  2  0
  8  6  2  0
  8  7  1  0
  9  5  1  0
 10  6  1  0
 11  7  1  0
 12  4  2  0
 13  4  1  0
 13  8  1  0
M  END
>  <NAME>  (3222) 
2,4,6-TRICHLOROPHENYL ACETATE

>  <SYNONYMS>  (3222) 


>  <SPECTRUM TYPE>  (3222) 
MS1

>  <INSTRUMENT TYPE>  (3222) 
EI-B

>  <INSTRUMENT>  (3222) 
JEOL JMS-01-SG

>  <ION MODE>  (3222) 
P

>  <INCHIKEY>  (3222) 
RFOCPJZGJNKBOI-UHFFFAOYSA-N

>  <FORMULA>  (3222) 
C8H5Cl3O2

>  <EXACT MASS>  (3222) 
237.93551244

>  <MW>  (3222) 
238

>  <ID>  (3222) 
JP007519

>  <CONTRIBUTOR>  (3222) 
University of Tokyo Team, {Faculty of Engineering, University of Tokyo

>  <COMMENT>  (3222) 
SMILES=CC(=O)Oc(c(Cl)1)c(Cl)cc(Cl)c1
InChI=InChI=1S/C8H5Cl3O2/c1-4(12)13-8-6(10)2-5(9)3-7(8)11/h2-3H,1H3
computed SMILES=O=C(OC=1C(Cl)=CC(Cl)=CC1Cl)C
accession=JP007519
date=2016.01.19 (Created 2008.10.21, modified 2011.05.06)
author=KOGA M, UNIV. OF OCCUPATIONAL AND ENVIRONMENTAL HEALTH
license=CC BY-NC-SA
exact mass=237.93551
ionization energy=70 eV
ion type=[M]+*
computed spectral entropy=2.2894060620902565
computed normalized entropy=0.6666903298591366
SPLASH=splash10-0006-9610000000-761d488dfef5f5695b97
submitter=submitter = University of Tokyo Team (Faculty of Engineering, University of Tokyo)
MoNA Rating=3.75

>  <NUM PEAKS>  (3222) 
31

>  <MASS SPECTRAL PEAKS>  (3222) 
35 2.7
42 3.1
43 99.99
44 0.31
61 4.5
62 4.8
72 2.4
73 0.31
74 2
83 2.4
96 2.4
97 1.11
99 3.8
107 4.1
109 3.8
132 0.41
133 2
134 3.4
160 3.1
162 0.24
167 4.5
169 4.1
195 1.3
196 4.93
197 5.5
198 47.9
199 3.4
200 1.64
238 11.5
240 11.1
242 3.4

$$$$

     RDKit          2D

 12 12  0  0  0  0  0  0  0  0999 V2000
    5.1970   -1.5006    0.0000 C   0  0  0  0  0  0  0  0  0  0  0  0
   -1.3000    0.7500    0.0000 C   0  0  0  0  0  0  0  0  0  0  0  0
    1.3000    0.7500    0.0000 C   0  0  0  0  0  0  0  0  0  0  0  0
   -0.0000   -1.5000    0.0000 C   0  0  0  0  0  0  0  0  0  0  0  0
    3.8981   -0.7504    0.0000 C   0  0  0  0  0  0  0  0  0  0  0  0
    0.0000    1.5000    0.0000 C   0  0  0  0  0  0  0  0  0  0  0  0
   -1.3000   -0.7500    0.0000 C   0  0  0  0  0  0  0  0  0  0  0  0
    1.3000   -0.7500    0.0000 C   0  0  0  0  0  0  0  0  0  0  0  0
    0.0000    3.0000    0.0000 Cl  0  0  0  0  0  0  0  0  0  0  0  0
   -2.5989   -1.5002    0.0000 Cl  0  0  0  0  0  0  0  0  0  0  0  0
    3.8983    0.7496    0.0000 O   0  0  0  0  0  0  0  0  0  0  0  0
    2.5989   -1.5002    0.0000 O   0  0  0  0  0  0  0  0  0  0  0  0
  5  1  1  0
  6  2  2  0
  6  3  1  0
  7  2  1  0
  7  4  2  0
  8  3  2  0
  8  4  1  0
  9  6  1  0
 10  7  1  0
 11  5  2  0
 12  5  1  0
 12  8  1  0
M  END
>  <NAME>  (3223) 
3,5-DICHLOROPHENYL ACETATE

>  <SYNONYMS>  (3223) 


>  <SPECTRUM TYPE>  (3223) 
MS1

>  <INSTRUMENT TYPE>  (3223) 
EI-B

>  <INSTRUMENT>  (3223) 
JEOL JMS-01-SG

>  <ION MODE>  (3223) 
P

>  <INCHIKEY>  (3223) 
DPHLEWZTIXLUGZ-UHFFFAOYSA-N

>  <FORMULA>  (3223) 
C8H6Cl2O2

>  <EXACT MASS>  (3223) 
203.974484792

>  <MW>  (3223) 
204

>  <ID>  (3223) 
JP007518

>  <CONTRIBUTOR>  (3223) 
University of Tokyo Team, {Faculty of Engineering, University of Tokyo

>  <COMMENT>  (3223) 
SMILES=CC(=O)Oc(c1)cc(Cl)cc(Cl)1
InChI=InChI=1S/C8H6Cl2O2/c1-5(11)12-8-3-6(9)2-7(10)4-8/h2-4H,1H3
computed SMILES=O=C(OC=1C=C(Cl)C=C(Cl)C1)C
accession=JP007518
date=2016.01.19 (Created 2008.10.21, modified 2011.05.06)
author=KOGA M, UNIV. OF OCCUPATIONAL AND ENVIRONMENTAL HEALTH
license=CC BY-NC-SA
exact mass=203.97448
ion type=[M]+*
ionization energy=70 eV
computed spectral entropy=2.4280786265435794
computed normalized entropy=0.6455595426609848
SPLASH=splash10-01ox-9500000000-28ab7e91ca541db49647
submitter=submitter = University of Tokyo Team (Faculty of Engineering, University of Tokyo)
MoNA Rating=3.75

>  <NUM PEAKS>  (3223) 
43

>  <MASS SPECTRAL PEAKS>  (3223) 
36 1.1
37 2.3
38 3.2
41 0.21
42 8.9
43 99.99
44 2.5
49 0.11
50 1.4
60 1.5
61 4.9
62 0.97
63 20.6
64 1.3
72 1.2
73 0.72
74 3.4
75 3.7
83 1.2
85 0.12
91 1.2
97 2.3
98 3.6
99 0.57
100 1.3
101 1.5
107 1
109 0.22
126 1.3
127 1.1
133 8.7
135 0.56
137 1
145 1.1
162 47
163 0.38
164 29.8
165 2
166 4.7
204 1.42
205 1.1
206 9.4
208 1.5

$$$$

     RDKit          2D

 12 12  0  0  0  0  0  0  0  0999 V2000
    3.5731   -1.3127    0.0000 C   0  0  0  0  0  0  0  0  0  0  0  0
   -1.6226   -4.3135    0.0000 C   0  0  0  0  0  0  0  0  0  0  0  0
   -2.9221   -3.5627    0.0000 C   0  0  0  0  0  0  0  0  0  0  0  0
   -0.3236   -3.5635    0.0000 C   0  0  0  0  0  0  0  0  0  0  0  0
    2.2740   -2.0627    0.0000 C   0  0  0  0  0  0  0  0  0  0  0  0
   -2.9226   -2.0619    0.0000 C   0  0  0  0  0  0  0  0  0  0  0  0
   -0.3240   -2.0627    0.0000 C   0  0  0  0  0  0  0  0  0  0  0  0
   -1.6236   -1.3119    0.0000 C   0  0  0  0  0  0  0  0  0  0  0  0
   -4.2218   -1.3121    0.0000 Cl  0  0  0  0  0  0  0  0  0  0  0  0
   -1.6233    0.1881    0.0000 Cl  0  0  0  0  0  0  0  0  0  0  0  0
    2.2740   -3.5627    0.0000 O   0  0  0  0  0  0  0  0  0  0  0  0
    0.9750   -1.3127    0.0000 O   0  0  0  0  0  0  0  0  0  0  0  0
  3  2  2  0
  4  2  1  0
  5  1  1  0
  6  3  1  0
  7  4  2  0
  8  6  2  0
  8  7  1  0
  9  6  1  0
 10  8  1  0
 11  5  2  0
 12  5  1  0
 12  7  1  0
M  END
>  <NAME>  (3224) 
2,3-DICHLOROPHENYL ACETATE

>  <SYNONYMS>  (3224) 


>  <SPECTRUM TYPE>  (3224) 
MS1

>  <INSTRUMENT TYPE>  (3224) 
EI-B

>  <INSTRUMENT>  (3224) 
JEOL JMS-01-SG

>  <ION MODE>  (3224) 
P

>  <INCHIKEY>  (3224) 
UGURLMCNLGTRCL-UHFFFAOYSA-N

>  <FORMULA>  (3224) 
C8H6Cl2O2

>  <EXACT MASS>  (3224) 
203.974484792

>  <MW>  (3224) 
204

>  <ID>  (3224) 
JP007517

>  <CONTRIBUTOR>  (3224) 
University of Tokyo Team, {Faculty of Engineering, University of Tokyo

>  <COMMENT>  (3224) 
SMILES=CC(=O)Oc(c1)c(Cl)c(Cl)cc1
InChI=InChI=1S/C8H6Cl2O2/c1-5(11)12-7-4-2-3-6(9)8(7)10/h2-4H,1H3
computed SMILES=O=C(OC=1C=CC=C(Cl)C1Cl)C
license=CC BY-NC-SA
accession=JP007517
date=2016.01.19 (Created 2008.10.21, modified 2011.05.06)
author=KOGA M, UNIV. OF OCCUPATIONAL AND ENVIRONMENTAL HEALTH
exact mass=203.97448
ionization energy=70 eV
ion type=[M]+*
computed spectral entropy=2.930117733563972
computed normalized entropy=0.7311889473932005
SPLASH=splash10-03di-3920000000-8073a158d6f2afe024fc
submitter=submitter = University of Tokyo Team (Faculty of Engineering, University of Tokyo)
MoNA Rating=3.75

>  <NUM PEAKS>  (3224) 
55

>  <MASS SPECTRAL PEAKS>  (3224) 
38 2.2
39 3.4
42 4.4
43 9.88
44 3.7
49 1.7
50 1.7
51 0.12
53 1.2
60 1.1
61 5.3
62 0.94
63 25.6
64 2.6
65 1.2
72 0.66
73 10.8
74 5.3
75 5.3
83 0.25
84 1.7
85 2
87 1.3
91 0.14
96 1.3
97 5.5
98 9.9
99 0.67
100 3.5
101 1.4
107 5.2
109 0.59
110 1.1
111 1.4
126 26.2
127 0.27
128 10.2
133 14.3
134 1.2
135 0.97
137 1.4
145 2.5
147 1.4
161 0.23
162 99.99
163 12.9
164 76.6
165 0.81
166 18.2
167 1.2
204 41.3
205 0.57
206 28.6
207 3.6
208 5.7

$$$$

     RDKit          2D

 12 12  0  0  0  0  0  0  0  0999 V2000
   -5.1970   -1.5006    0.0000 C   0  0  0  0  0  0  0  0  0  0  0  0
   -1.3000    0.7500    0.0000 C   0  0  0  0  0  0  0  0  0  0  0  0
    0.0000    1.5000    0.0000 C   0  0  0  0  0  0  0  0  0  0  0  0
   -0.0000   -1.5000    0.0000 C   0  0  0  0  0  0  0  0  0  0  0  0
   -3.8981   -0.7504    0.0000 C   0  0  0  0  0  0  0  0  0  0  0  0
   -1.3000   -0.7500    0.0000 C   0  0  0  0  0  0  0  0  0  0  0  0
    1.3000    0.7500    0.0000 C   0  0  0  0  0  0  0  0  0  0  0  0
    1.3000   -0.7500    0.0000 C   0  0  0  0  0  0  0  0  0  0  0  0
    2.5989    1.5002    0.0000 Cl  0  0  0  0  0  0  0  0  0  0  0  0
    2.5989   -1.5002    0.0000 Cl  0  0  0  0  0  0  0  0  0  0  0  0
   -3.8983    0.7496    0.0000 O   0  0  0  0  0  0  0  0  0  0  0  0
   -2.5989   -1.5002    0.0000 O   0  0  0  0  0  0  0  0  0  0  0  0
  3  2  2  0
  5  1  1  0
  6  2  1  0
  6  4  2  0
  7  3  1  0
  8  4  1  0
  8  7  2  0
  9  7  1  0
 10  8  1  0
 11  5  2  0
 12  5  1  0
 12  6  1  0
M  END
>  <NAME>  (3225) 
3,4-DICHLOROPHENYL ACETATE

>  <SYNONYMS>  (3225) 


>  <SPECTRUM TYPE>  (3225) 
MS1

>  <INSTRUMENT TYPE>  (3225) 
EI-B

>  <INSTRUMENT>  (3225) 
JEOL JMS-01-SG

>  <ION MODE>  (3225) 
P

>  <INCHIKEY>  (3225) 
OSKGYRIYNMZFSJ-UHFFFAOYSA-N

>  <FORMULA>  (3225) 
C8H6Cl2O2

>  <EXACT MASS>  (3225) 
203.974484792

>  <MW>  (3225) 
204

>  <ID>  (3225) 
JP007516

>  <CONTRIBUTOR>  (3225) 
University of Tokyo Team, {Faculty of Engineering, University of Tokyo

>  <COMMENT>  (3225) 
SMILES=CC(=O)Oc(c1)cc(Cl)c(Cl)c1
InChI=InChI=1S/C8H6Cl2O2/c1-5(11)12-6-2-3-7(9)8(10)4-6/h2-4H,1H3
computed SMILES=O=C(OC1=CC=C(Cl)C(Cl)=C1)C
accession=JP007516
date=2016.01.19 (Created 2008.10.21, modified 2011.05.06)
author=KOGA M, UNIV. OF OCCUPATIONAL AND ENVIRONMENTAL HEALTH
license=CC BY-NC-SA
exact mass=203.97448
ionization energy=70 eV
ion type=[M]+*
computed spectral entropy=2.7586884966867036
computed normalized entropy=0.7016304267733342
SPLASH=splash10-03dl-9610000000-543a6759e5f72e349e5b
submitter=submitter = University of Tokyo Team (Faculty of Engineering, University of Tokyo)
MoNA Rating=3.75

>  <NUM PEAKS>  (3225) 
51

>  <MASS SPECTRAL PEAKS>  (3225) 
36 2.3
37 3.8
38 2.4
39 0.19
42 4.3
43 99.99
44 3.5
49 0.23
50 2.2
53 1.3
60 1.3
61 0.52
62 9.9
63 21
64 1.5
72 0.39
73 10.3
74 4.9
75 4.9
83 0.18
84 1.3
85 1.5
97 3.4
98 0.47
99 12.7
100 2.4
101 4
107 0.28
109 3.8
111 1.2
126 3.6
127 0.27
128 1.4
133 9.3
134 2.8
135 0.62
136 1.5
137 1.1
145 1.4
147 0.11
161 1.7
162 83
163 8.8
164 5.84
165 5.5
166 12.1
204 21.1
205 0.23
206 14.2
207 1.2
208 2.4

$$$$

     RDKit          2D

 12 12  0  0  0  0  0  0  0  0999 V2000
    3.6076    3.9204    0.0000 C   0  0  0  0  0  0  0  0  0  0  0  0
   -1.5900    0.9200    0.0000 C   0  0  0  0  0  0  0  0  0  0  0  0
   -0.2900    1.6700    0.0000 C   0  0  0  0  0  0  0  0  0  0  0  0
   -0.2900   -1.3300    0.0000 C   0  0  0  0  0  0  0  0  0  0  0  0
    2.3087    3.1702    0.0000 C   0  0  0  0  0  0  0  0  0  0  0  0
   -1.5900   -0.5800    0.0000 C   0  0  0  0  0  0  0  0  0  0  0  0
    1.0100   -0.5800    0.0000 C   0  0  0  0  0  0  0  0  0  0  0  0
    1.0100    0.9200    0.0000 C   0  0  0  0  0  0  0  0  0  0  0  0
   -2.8889   -1.3302    0.0000 Cl  0  0  0  0  0  0  0  0  0  0  0  0
    2.3089   -1.3302    0.0000 Cl  0  0  0  0  0  0  0  0  0  0  0  0
    1.0095    3.9200    0.0000 O   0  0  0  0  0  0  0  0  0  0  0  0
    2.3089    1.6702    0.0000 O   0  0  0  0  0  0  0  0  0  0  0  0
  3  2  2  0
  5  1  1  0
  6  2  1  0
  6  4  2  0
  7  4  1  0
  8  3  1  0
  8  7  2  0
  9  6  1  0
 10  7  1  0
 11  5  2  0
 12  5  1  0
 12  8  1  0
M  END
>  <NAME>  (3226) 
2,4-DICHLOROPHENYL ACETATE

>  <SYNONYMS>  (3226) 


>  <SPECTRUM TYPE>  (3226) 
MS1

>  <INSTRUMENT TYPE>  (3226) 
EI-B

>  <INSTRUMENT>  (3226) 
JEOL JMS-01-SG

>  <ION MODE>  (3226) 
P

>  <INCHIKEY>  (3226) 
KGXUYVOKSRCTEK-UHFFFAOYSA-N

>  <FORMULA>  (3226) 
C8H6Cl2O2

>  <EXACT MASS>  (3226) 
203.974484792

>  <MW>  (3226) 
204

>  <ID>  (3226) 
JP007515

>  <CONTRIBUTOR>  (3226) 
University of Tokyo Team, {Faculty of Engineering, University of Tokyo

>  <COMMENT>  (3226) 
SMILES=CC(=O)Oc(c1)c(Cl)cc(Cl)c1
InChI=InChI=1S/C8H6Cl2O2/c1-5(11)12-8-3-2-6(9)4-7(8)10/h2-4H,1H3
computed SMILES=O=C(OC1=CC=C(Cl)C=C1Cl)C
accession=JP007515
date=2016.01.19 (Created 2008.10.21, modified 2011.05.06)
author=KOGA M, UNIV. OF OCCUPATIONAL AND ENVIRONMENTAL HEALTH
license=CC BY-NC-SA
exact mass=203.97448
ionization energy=70 eV
ion type=[M]+*
computed spectral entropy=2.5862086823678636
computed normalized entropy=0.705927436788201
SPLASH=splash10-03dl-9700000000-d23926b5b2e03cd2b504
submitter=submitter = University of Tokyo Team (Faculty of Engineering, University of Tokyo)
MoNA Rating=3.75

>  <NUM PEAKS>  (3226) 
39

>  <MASS SPECTRAL PEAKS>  (3226) 
37 3.8
38 3.4
39 2.7
42 0.38
43 99.99
44 2.9
49 2.2
50 0.27
53 2
61 4.3
62 8.6
63 2.53
64 2
72 2.9
73 13
74 4.01
75 5.7
83 2.5
85 1.5
97 0.41
98 10.5
99 5.9
100 3.1
101 0.18
107 2.5
109 2.9
126 4.1
127 0.13
128 6.8
133 8.4
135 5.9
161 0.18
162 67.1
163 3.4
164 34.7
165 0.2
166 5.4
204 5
206 3.8

$$$$

     RDKit          2D

 12 12  0  0  0  0  0  0  0  0999 V2000
   -2.5989    1.5002    0.0000 C   0  0  0  0  0  0  0  0  0  0  0  0
    3.8981   -0.7504    0.0000 C   0  0  0  0  0  0  0  0  0  0  0  0
    2.5981   -1.5004    0.0000 C   0  0  0  0  0  0  0  0  0  0  0  0
    2.5981    1.4996    0.0000 C   0  0  0  0  0  0  0  0  0  0  0  0
   -1.3000    0.7500    0.0000 C   0  0  0  0  0  0  0  0  0  0  0  0
    3.8981    0.7496    0.0000 C   0  0  0  0  0  0  0  0  0  0  0  0
    1.2981   -0.7504    0.0000 C   0  0  0  0  0  0  0  0  0  0  0  0
    1.2981    0.7496    0.0000 C   0  0  0  0  0  0  0  0  0  0  0  0
    5.1970    1.4998    0.0000 Cl  0  0  0  0  0  0  0  0  0  0  0  0
   -0.0008   -1.5006    0.0000 Cl  0  0  0  0  0  0  0  0  0  0  0  0
   -1.3002   -0.7500    0.0000 O   0  0  0  0  0  0  0  0  0  0  0  0
   -0.0008    1.4998    0.0000 O   0  0  0  0  0  0  0  0  0  0  0  0
  3  2  2  0
  5  1  1  0
  6  2  1  0
  6  4  2  0
  7  3  1  0
  8  4  1  0
  8  7  2  0
  9  6  1  0
 10  7  1  0
 11  5  2  0
 12  5  1  0
 12  8  1  0
M  END
>  <NAME>  (3227) 
2,5-DICHLOROPHENYL ACETATE

>  <SYNONYMS>  (3227) 


>  <SPECTRUM TYPE>  (3227) 
MS1

>  <INSTRUMENT TYPE>  (3227) 
EI-B

>  <INSTRUMENT>  (3227) 
JEOL JMS-01-SG

>  <ION MODE>  (3227) 
P

>  <INCHIKEY>  (3227) 
XSJDGJRHRDWQOR-UHFFFAOYSA-N

>  <FORMULA>  (3227) 
C8H6Cl2O2

>  <EXACT MASS>  (3227) 
203.974484792

>  <MW>  (3227) 
204

>  <ID>  (3227) 
JP007514

>  <CONTRIBUTOR>  (3227) 
University of Tokyo Team, {Faculty of Engineering, University of Tokyo

>  <COMMENT>  (3227) 
SMILES=CC(=O)Oc(c1)c(Cl)ccc(Cl)1
InChI=InChI=1S/C8H6Cl2O2/c1-5(11)12-8-4-6(9)2-3-7(8)10/h2-4H,1H3
computed SMILES=O=C(OC1=CC(Cl)=CC=C1Cl)C
accession=JP007514
date=2016.01.19 (Created 2008.10.21, modified 2011.05.06)
author=KOGA M, UNIV. OF OCCUPATIONAL AND ENVIRONMENTAL HEALTH
license=CC BY-NC-SA
exact mass=203.97448
ionization energy=70 eV
ion type=[M]+*
computed spectral entropy=2.8823181776745836
computed normalized entropy=0.712906660522845
SPLASH=splash10-03dl-9500000000-ec7628ae14e8bc045ba1
submitter=submitter = University of Tokyo Team (Faculty of Engineering, University of Tokyo)
MoNA Rating=3.75

>  <NUM PEAKS>  (3227) 
57

>  <MASS SPECTRAL PEAKS>  (3227) 
39 4
41 7.9
42 3.6
43 99.99
44 5.7
49 2.6
50 2.6
51 0.16
53 1.6
55 7.2
56 2.6
57 0.84
61 3.3
62 7.2
63 19.2
64 0.19
65 1.6
67 2.6
69 4.3
70 0.24
71 5.3
72 1.6
73 8.6
74 0.28
75 4.3
77 1.4
81 2.6
82 0.21
83 3.1
84 1.4
85 2.6
91 0.24
95 2.6
96 1.9
97 3.1
98 0.79
99 5.7
100 2.4
101 2.4
105 0.14
107 1.6
109 1.9
111 1.9
119 0.16
126 2.1
128 7.4
130 2.6
133 0.65
135 4.8
162 83.3
163 7.9
164 5.87
165 4.5
166 9.8
204 13
206 0.86
208 1.4

$$$$

     RDKit          2D

 12 12  0  0  0  0  0  0  0  0999 V2000
   -1.3000    0.0008    0.0000 C   0  0  0  0  0  0  0  0  0  0  0  0
    5.1970   -2.2498    0.0000 C   0  0  0  0  0  0  0  0  0  0  0  0
    3.8970   -2.9998    0.0000 C   0  0  0  0  0  0  0  0  0  0  0  0
    5.1970   -0.7498    0.0000 C   0  0  0  0  0  0  0  0  0  0  0  0
   -0.0011   -0.7494    0.0000 C   0  0  0  0  0  0  0  0  0  0  0  0
    2.5970   -2.2498    0.0000 C   0  0  0  0  0  0  0  0  0  0  0  0
    3.8970    0.0002    0.0000 C   0  0  0  0  0  0  0  0  0  0  0  0
    2.5970   -0.7498    0.0000 C   0  0  0  0  0  0  0  0  0  0  0  0
    1.2981   -3.0000    0.0000 Cl  0  0  0  0  0  0  0  0  0  0  0  0
    3.8970    1.5002    0.0000 Cl  0  0  0  0  0  0  0  0  0  0  0  0
   -0.0013   -2.2494    0.0000 O   0  0  0  0  0  0  0  0  0  0  0  0
    1.2981    0.0004    0.0000 O   0  0  0  0  0  0  0  0  0  0  0  0
  3  2  2  0
  4  2  1  0
  5  1  1  0
  6  3  1  0
  7  4  2  0
  8  6  2  0
  8  7  1  0
  9  6  1  0
 10  7  1  0
 11  5  2  0
 12  5  1  0
 12  8  1  0
M  END
>  <NAME>  (3228) 
2,6-DICHLOROPHENYL ACETATE

>  <SYNONYMS>  (3228) 


>  <SPECTRUM TYPE>  (3228) 
MS1

>  <INSTRUMENT TYPE>  (3228) 
EI-B

>  <INSTRUMENT>  (3228) 
JEOL JMS-01-SG

>  <ION MODE>  (3228) 
P

>  <INCHIKEY>  (3228) 
YNSMUWSJRXDNLN-UHFFFAOYSA-N

>  <FORMULA>  (3228) 
C8H6Cl2O2

>  <EXACT MASS>  (3228) 
203.974484792

>  <MW>  (3228) 
204

>  <ID>  (3228) 
JP007513

>  <CONTRIBUTOR>  (3228) 
University of Tokyo Team, {Faculty of Engineering, University of Tokyo

>  <COMMENT>  (3228) 
SMILES=CC(=O)Oc(c(Cl)1)c(Cl)ccc1
InChI=InChI=1S/C8H6Cl2O2/c1-5(11)12-8-6(9)3-2-4-7(8)10/h2-4H,1H3
computed SMILES=O=C(OC=1C(Cl)=CC=CC1Cl)C
accession=JP007513
date=2016.01.19 (Created 2008.10.21, modified 2011.05.06)
author=KOGA M, UNIV. OF OCCUPATIONAL AND ENVIRONMENTAL HEALTH
license=CC BY-NC-SA
exact mass=203.97448
ionization energy=70 eV
ion type=[M]+*
computed spectral entropy=2.183160440603964
computed normalized entropy=0.7170781248163333
SPLASH=splash10-03di-6910000000-e472eea506bf49d4f071
submitter=submitter = University of Tokyo Team (Faculty of Engineering, University of Tokyo)
MoNA Rating=3.75

>  <NUM PEAKS>  (3228) 
21

>  <MASS SPECTRAL PEAKS>  (3228) 
42 3.9
43 88.8
61 5.2
62 0.78
63 19.7
73 12.5
74 3.9
75 0.59
97 4.6
98 5.9
99 4.6
126 0.72
133 11.8
135 7.2
162 99.99
163 0.72
164 67.7
165 5.2
166 11.8
204 3.09
206 20.3

$$$$

     RDKit          2D

 11 11  0  0  0  0  0  0  0  0999 V2000
    5.1970    1.5006    0.0000 C   0  0  0  0  0  0  0  0  0  0  0  0
   -1.3000    0.7500    0.0000 C   0  0  0  0  0  0  0  0  0  0  0  0
   -0.0000   -1.5000    0.0000 C   0  0  0  0  0  0  0  0  0  0  0  0
    0.0000    1.5000    0.0000 C   0  0  0  0  0  0  0  0  0  0  0  0
    1.3000   -0.7500    0.0000 C   0  0  0  0  0  0  0  0  0  0  0  0
    3.8981    0.7504    0.0000 C   0  0  0  0  0  0  0  0  0  0  0  0
   -1.3000   -0.7500    0.0000 C   0  0  0  0  0  0  0  0  0  0  0  0
    1.3000    0.7500    0.0000 C   0  0  0  0  0  0  0  0  0  0  0  0
   -2.5989   -1.5002    0.0000 Cl  0  0  0  0  0  0  0  0  0  0  0  0
    3.8983   -0.7496    0.0000 O   0  0  0  0  0  0  0  0  0  0  0  0
    2.5989    1.5002    0.0000 O   0  0  0  0  0  0  0  0  0  0  0  0
  4  2  2  0
  5  3  1  0
  6  1  1  0
  7  2  1  0
  7  3  2  0
  8  4  1  0
  8  5  2  0
  9  7  1  0
 10  6  2  0
 11  6  1  0
 11  8  1  0
M  END
>  <NAME>  (3229) 
4-CHLOROPHENYL ACETATE

>  <SYNONYMS>  (3229) 


>  <SPECTRUM TYPE>  (3229) 
MS1

>  <INSTRUMENT TYPE>  (3229) 
EI-B

>  <INSTRUMENT>  (3229) 
JEOL JMS-01-SG

>  <ION MODE>  (3229) 
P

>  <INCHIKEY>  (3229) 
KEUPLGRNURQXAR-UHFFFAOYSA-N

>  <FORMULA>  (3229) 
C8H7ClO2

>  <EXACT MASS>  (3229) 
170.013457144

>  <MW>  (3229) 
170

>  <ID>  (3229) 
JP007512

>  <CONTRIBUTOR>  (3229) 
University of Tokyo Team, {Faculty of Engineering, University of Tokyo

>  <COMMENT>  (3229) 
SMILES=CC(=O)Oc(c1)ccc(Cl)c1
cas=876-27-7
InChI=InChI=1S/C8H7ClO2/c1-6(10)11-8-4-2-7(9)3-5-8/h2-5H,1H3
computed SMILES=O=C(OC1=CC=C(Cl)C=C1)C
accession=JP007512
date=2016.01.19 (Created 2008.10.21, modified 2011.05.06)
author=KOGA M, UNIV. OF OCCUPATIONAL AND ENVIRONMENTAL HEALTH
license=CC BY-NC-SA
exact mass=170.01346
ionization energy=70 eV
ion type=[M]+*
computed spectral entropy=2.5588693056696927
computed normalized entropy=0.6890587444397217
SPLASH=splash10-004i-7900000000-c38b967a069614441ae0
submitter=submitter = University of Tokyo Team (Faculty of Engineering, University of Tokyo)
MoNA Rating=3.75

>  <NUM PEAKS>  (3229) 
41

>  <MASS SPECTRAL PEAKS>  (3229) 
37 2.8
38 5.7
39 8.5
41 0.13
42 2.3
43 37.6
44 2.7
49 0.15
50 4
51 1.4
53 1.1
55 0.13
61 2.2
62 4.8
63 11.5
64 0.5
65 10.6
66 1.3
69 0.9
72 0.11
73 8.5
74 3
75 5.2
76 0.09
77 0.9
92 1.3
93 2.8
94 0.09
99 10.4
100 7.1
101 3.3
102 0.23
111 1.6
127 1.6
128 99.99
129 0.73
130 33.1
131 1.9
170 11.5
171 0.1
172 3.9

$$$$

     RDKit          2D

 11 11  0  0  0  0  0  0  0  0999 V2000
    3.5731   -1.3127    0.0000 C   0  0  0  0  0  0  0  0  0  0  0  0
   -1.6226   -4.3135    0.0000 C   0  0  0  0  0  0  0  0  0  0  0  0
   -2.9221   -3.5627    0.0000 C   0  0  0  0  0  0  0  0  0  0  0  0
   -0.3236   -3.5635    0.0000 C   0  0  0  0  0  0  0  0  0  0  0  0
   -1.6236   -1.3119    0.0000 C   0  0  0  0  0  0  0  0  0  0  0  0
    2.2740   -2.0627    0.0000 C   0  0  0  0  0  0  0  0  0  0  0  0
   -2.9226   -2.0619    0.0000 C   0  0  0  0  0  0  0  0  0  0  0  0
   -0.3240   -2.0627    0.0000 C   0  0  0  0  0  0  0  0  0  0  0  0
   -4.2218   -1.3121    0.0000 Cl  0  0  0  0  0  0  0  0  0  0  0  0
    2.2740   -3.5627    0.0000 O   0  0  0  0  0  0  0  0  0  0  0  0
    0.9750   -1.3127    0.0000 O   0  0  0  0  0  0  0  0  0  0  0  0
  3  2  2  0
  4  2  1  0
  6  1  1  0
  7  3  1  0
  7  5  2  0
  8  4  2  0
  8  5  1  0
  9  7  1  0
 10  6  2  0
 11  6  1  0
 11  8  1  0
M  END
>  <NAME>  (3230) 
3-CHLOROPHENYL ACETATE

>  <SYNONYMS>  (3230) 


>  <SPECTRUM TYPE>  (3230) 
MS1

>  <INSTRUMENT TYPE>  (3230) 
EI-B

>  <INSTRUMENT>  (3230) 
JEOL JMS-01-SG

>  <ION MODE>  (3230) 
P

>  <INCHIKEY>  (3230) 
GQTKYLQYHPTULY-UHFFFAOYSA-N

>  <FORMULA>  (3230) 
C8H7ClO2

>  <EXACT MASS>  (3230) 
170.013457144

>  <MW>  (3230) 
170

>  <ID>  (3230) 
JP007511

>  <CONTRIBUTOR>  (3230) 
University of Tokyo Team, {Faculty of Engineering, University of Tokyo

>  <COMMENT>  (3230) 
SMILES=CC(=O)Oc(c1)cc(Cl)cc1
cas=13031-39-5
InChI=InChI=1S/C8H7ClO2/c1-6(10)11-8-4-2-3-7(9)5-8/h2-5H,1H3
computed SMILES=O=C(OC=1C=CC=C(Cl)C1)C
accession=JP007511
date=2016.01.19 (Created 2008.10.21, modified 2011.05.06)
author=KOGA M, UNIV. OF OCCUPATIONAL AND ENVIRONMENTAL HEALTH
license=CC BY-NC-SA
exact mass=170.01346
ionization energy=70 eV
ion type=[M]+*
computed spectral entropy=2.24589434413639
computed normalized entropy=0.6669726859565562
SPLASH=splash10-004l-7900000000-2cf3e48f52bccc9c284b
submitter=submitter = University of Tokyo Team (Faculty of Engineering, University of Tokyo)
MoNA Rating=3.75

>  <NUM PEAKS>  (3230) 
29

>  <MASS SPECTRAL PEAKS>  (3230) 
38 4.2
39 5.1
41 3
42 0.33
43 71.4
44 3.9
50 3.3
57 0.27
62 3
63 9.7
64 6.6
65 0.75
69 3
73 3.9
74 2.7
75 0.66
92 2.7
99 6.3
100 3
101 0.33
111 3
113 2.7
128 99.99
129 0.63
130 30
139 6
168 6.9
170 2.27
172 6.9

$$$$

     RDKit          2D

 11 11  0  0  0  0  0  0  0  0999 V2000
    5.1970   -1.5006    0.0000 C   0  0  0  0  0  0  0  0  0  0  0  0
   -1.3000    0.7500    0.0000 C   0  0  0  0  0  0  0  0  0  0  0  0
    0.0000    1.5000    0.0000 C   0  0  0  0  0  0  0  0  0  0  0  0
   -1.3000   -0.7500    0.0000 C   0  0  0  0  0  0  0  0  0  0  0  0
    1.3000    0.7500    0.0000 C   0  0  0  0  0  0  0  0  0  0  0  0
    3.8981   -0.7504    0.0000 C   0  0  0  0  0  0  0  0  0  0  0  0
    0.0000   -1.5000    0.0000 C   0  0  0  0  0  0  0  0  0  0  0  0
    1.3000   -0.7500    0.0000 C   0  0  0  0  0  0  0  0  0  0  0  0
   -0.0000   -3.0000    0.0000 Cl  0  0  0  0  0  0  0  0  0  0  0  0
    3.8983    0.7496    0.0000 O   0  0  0  0  0  0  0  0  0  0  0  0
    2.5989   -1.5002    0.0000 O   0  0  0  0  0  0  0  0  0  0  0  0
  3  2  2  0
  4  2  1  0
  5  3  1  0
  6  1  1  0
  7  4  2  0
  8  5  2  0
  8  7  1  0
  9  7  1  0
 10  6  2  0
 11  6  1  0
 11  8  1  0
M  END
>  <NAME>  (3231) 
2-CHLOROPHENYL ACETATE

>  <SYNONYMS>  (3231) 


>  <SPECTRUM TYPE>  (3231) 
MS1

>  <INSTRUMENT TYPE>  (3231) 
EI-B

>  <INSTRUMENT>  (3231) 
JEOL JMS-01-SG

>  <ION MODE>  (3231) 
P

>  <INCHIKEY>  (3231) 
CJPVPOYTTALCNX-UHFFFAOYSA-N

>  <FORMULA>  (3231) 
C8H7ClO2

>  <EXACT MASS>  (3231) 
170.013457144

>  <MW>  (3231) 
170

>  <ID>  (3231) 
JP007510

>  <CONTRIBUTOR>  (3231) 
University of Tokyo Team, {Faculty of Engineering, University of Tokyo

>  <COMMENT>  (3231) 
SMILES=CC(=O)Oc(c1)c(Cl)ccc1
InChI=InChI=1S/C8H7ClO2/c1-6(10)11-8-5-3-2-4-7(8)9/h2-5H,1H3
computed SMILES=O=C(OC=1C=CC=CC1Cl)C
ion type=[M]+*
accession=JP007510
date=2016.01.19 (Created 2008.10.21, modified 2011.05.06)
author=KOGA M, UNIV. OF OCCUPATIONAL AND ENVIRONMENTAL HEALTH
license=CC BY-NC-SA
exact mass=170.01346
ionization energy=70 eV
computed spectral entropy=2.204657834951444
computed normalized entropy=0.6547265064502218
SPLASH=splash10-004l-8900000000-e9ec98b066b58adce4fc
submitter=submitter = University of Tokyo Team (Faculty of Engineering, University of Tokyo)
MoNA Rating=3.75

>  <NUM PEAKS>  (3231) 
29

>  <MASS SPECTRAL PEAKS>  (3231) 
38 3.9
39 7.2
41 4.3
42 0.25
43 58.8
44 5.4
50 2.8
55 0.43
57 4.3
62 2.1
63 10.1
64 1.22
65 4.6
69 2.5
71 2.5
73 0.57
75 3.9
92 6.4
94 3.9
99 0.46
101 1.8
128 99.99
129 7.2
130 3.17
131 2.8
149 2.5
162 2.1
170 1.66
172 4.6

$$$$

     RDKit          2D

 22 23  0  0  0  0  0  0  0  0999 V2000
   -1.3000    0.7500    0.0000 C   0  0  0  0  0  0  0  0  0  0  0  0
   -0.0000   -1.5000    0.0000 C   0  0  0  0  0  0  0  0  0  0  0  0
    0.0000    1.5000    0.0000 C   0  0  0  0  0  0  0  0  0  0  0  0
    1.3000   -0.7500    0.0000 C   0  0  0  0  0  0  0  0  0  0  0  0
    3.8981    0.7504    0.0000 C   0  0  0  0  0  0  0  0  0  0  0  0
   -1.3000   -0.7500    0.0000 C   0  0  0  0  0  0  0  0  0  0  0  0
    1.3000    0.7500    0.0000 C   0  0  0  0  0  0  0  0  0  0  0  0
    5.1970    1.5006    0.0000 C   0  0  0  0  0  0  0  0  0  0  0  0
    6.4970    0.7506    0.0000 C   0  0  0  0  0  0  0  0  0  0  0  0
    5.1970    3.0006    0.0000 C   0  0  0  0  0  0  0  0  0  0  0  0
    7.7970    1.5006    0.0000 C   0  0  0  0  0  0  0  0  0  0  0  0
    6.4970    3.7506    0.0000 C   0  0  0  0  0  0  0  0  0  0  0  0
    7.7970    3.0006    0.0000 C   0  0  0  0  0  0  0  0  0  0  0  0
    6.4970   -0.7494    0.0000 F   0  0  0  0  0  0  0  0  0  0  0  0
    3.8981    3.7508    0.0000 F   0  0  0  0  0  0  0  0  0  0  0  0
    9.0959    0.7504    0.0000 F   0  0  0  0  0  0  0  0  0  0  0  0
    6.4970    5.2506    0.0000 F   0  0  0  0  0  0  0  0  0  0  0  0
    9.0959    3.7508    0.0000 F   0  0  0  0  0  0  0  0  0  0  0  0
   -2.5989   -1.5002    0.0000 N   0  0  0  0  0  0  0  0  0  0  0  0
   -3.8981   -0.7504    0.0000 O   0  0  0  0  0  0  0  0  0  0  0  0
   -2.5987   -3.0002    0.0000 O   0  0  0  0  0  0  0  0  0  0  0  0
    2.5989    1.5002    0.0000 O   0  0  0  0  0  0  0  0  0  0  0  0
  3  1  2  0
  4  2  1  0
  6  1  1  0
  6  2  2  0
  7  3  1  0
  7  4  2  0
  8  5  1  0
  9  8  2  0
 10  8  1  0
 11  9  1  0
 12 10  2  0
 13 11  2  0
 13 12  1  0
 14  9  1  0
 15 10  1  0
 16 11  1  0
 17 12  1  0
 18 13  1  0
 19  6  1  0
 20 19  1  0
 21 19  2  0
 22  5  1  0
 22  7  1  0
M  CHG  2  19   1  20  -1
M  END
>  <NAME>  (3232) 
4-NITROPHENYL PENTAFLUOROBENZYL ETHER

>  <SYNONYMS>  (3232) 


>  <SPECTRUM TYPE>  (3232) 
MS1

>  <INSTRUMENT TYPE>  (3232) 
EI-B

>  <INSTRUMENT>  (3232) 
JEOL JMS-01-SG

>  <ION MODE>  (3232) 
P

>  <INCHIKEY>  (3232) 
ZBEFSXOWVLJJQM-UHFFFAOYSA-N

>  <FORMULA>  (3232) 
C13H6F5NO3

>  <EXACT MASS>  (3232) 
319.026784152

>  <MW>  (3232) 
319

>  <ID>  (3232) 
JP007509

>  <CONTRIBUTOR>  (3232) 
University of Tokyo Team, {Faculty of Engineering, University of Tokyo

>  <COMMENT>  (3232) 
SMILES=[O-1][N+1](=O)c(c2)ccc(c2)OCc(c(F)1)c(F)c(F)c(F)c(F)1
InChI=InChI=1S/C13H6F5NO3/c14-9-8(10(15)12(17)13(18)11(9)16)5-22-7-3-1-6(2-4-7)19(20)21/h1-4H,5H2
computed SMILES=O=N(=O)C1=CC=C(OCC=2C(F)=C(F)C(F)=C(F)C2F)C=C1
accession=JP007509
date=2016.01.19 (Created 2008.10.21, modified 2011.05.06)
author=KOGA M, UNIV. OF OCCUPATIONAL AND ENVIRONMENTAL HEALTH
license=CC BY-NC-SA
exact mass=319.02678
ionization energy=70 eV
ion type=[M]+*
computed spectral entropy=1.8776747133524914
computed normalized entropy=0.5520628480652532
SPLASH=splash10-001i-3900000000-085d646b7576f5d9fc23
submitter=submitter = University of Tokyo Team (Faculty of Engineering, University of Tokyo)
MoNA Rating=3.75

>  <NUM PEAKS>  (3232) 
30

>  <MASS SPECTRAL PEAKS>  (3232) 
52 2.4
53 0.9
54 0.9
61 0.14
62 4
63 12.6
64 8.2
65 0.16
69 2.1
74 1.9
75 2.2
76 0.16
77 1.7
80 1.2
81 2.5
92 0.14
93 2.2
99 1.7
112 1.9
117 0.16
131 2.7
143 1.6
150 1.2
155 0.19
161 8.2
162 1.7
181 99.99
182 0.94
319 7.9
320 1.1

$$$$

     RDKit          2D

 23 24  0  0  0  0  0  0  0  0999 V2000
    4.5829    3.7332    0.0000 C   0  0  0  0  0  0  0  0  0  0  0  0
    0.6847    1.4818    0.0000 C   0  0  0  0  0  0  0  0  0  0  0  0
    1.9837    0.7318    0.0000 C   0  0  0  0  0  0  0  0  0  0  0  0
    1.9847    3.7334    0.0000 C   0  0  0  0  0  0  0  0  0  0  0  0
   -1.9129    2.9826    0.0000 C   0  0  0  0  0  0  0  0  0  0  0  0
    3.2837    2.9834    0.0000 C   0  0  0  0  0  0  0  0  0  0  0  0
    0.6852    2.9826    0.0000 C   0  0  0  0  0  0  0  0  0  0  0  0
   -3.2119    3.7326    0.0000 C   0  0  0  0  0  0  0  0  0  0  0  0
    3.2833    1.4826    0.0000 C   0  0  0  0  0  0  0  0  0  0  0  0
   -3.2122    5.2334    0.0000 C   0  0  0  0  0  0  0  0  0  0  0  0
   -4.5111    2.9828    0.0000 C   0  0  0  0  0  0  0  0  0  0  0  0
   -4.5116    5.9845    0.0000 C   0  0  0  0  0  0  0  0  0  0  0  0
   -5.8105    3.7339    0.0000 C   0  0  0  0  0  0  0  0  0  0  0  0
   -5.8107    5.2347    0.0000 C   0  0  0  0  0  0  0  0  0  0  0  0
   -1.9130    5.9832    0.0000 F   0  0  0  0  0  0  0  0  0  0  0  0
   -4.5116    1.4828    0.0000 F   0  0  0  0  0  0  0  0  0  0  0  0
   -4.5111    7.4845    0.0000 F   0  0  0  0  0  0  0  0  0  0  0  0
   -7.1096    2.9841    0.0000 F   0  0  0  0  0  0  0  0  0  0  0  0
   -7.1098    5.9847    0.0000 F   0  0  0  0  0  0  0  0  0  0  0  0
    4.5823    0.7326    0.0000 N   0  0  0  0  0  0  0  0  0  0  0  0
    4.5823   -0.7674    0.0000 O   0  0  0  0  0  0  0  0  0  0  0  0
    5.8813    1.4826    0.0000 O   0  0  0  0  0  0  0  0  0  0  0  0
   -0.6139    3.7326    0.0000 O   0  0  0  0  0  0  0  0  0  0  0  0
  3  2  2  0
  6  1  1  0
  6  4  1  0
  7  2  1  0
  7  4  2  0
  8  5  1  0
  9  3  1  0
  9  6  2  0
 10  8  2  0
 11  8  1  0
 12 10  1  0
 13 11  2  0
 14 12  2  0
 14 13  1  0
 15 10  1  0
 16 11  1  0
 17 12  1  0
 18 13  1  0
 19 14  1  0
 20  9  1  0
 21 20  1  0
 22 20  2  0
 23  5  1  0
 23  7  1  0
M  CHG  2  20   1  21  -1
M  END
>  <NAME>  (3233) 
3-METHYL-4-NITROPHENYL PENTAFLUOROBENZYL ETHER

>  <SYNONYMS>  (3233) 


>  <SPECTRUM TYPE>  (3233) 
MS1

>  <INSTRUMENT TYPE>  (3233) 
EI-B

>  <INSTRUMENT>  (3233) 
JEOL JMS-01-SG

>  <ION MODE>  (3233) 
P

>  <INCHIKEY>  (3233) 
WDUOVUNTQFSXIO-UHFFFAOYSA-N

>  <FORMULA>  (3233) 
C14H8F5NO3

>  <EXACT MASS>  (3233) 
333.042434216

>  <MW>  (3233) 
333

>  <ID>  (3233) 
JP007508

>  <CONTRIBUTOR>  (3233) 
University of Tokyo Team, {Faculty of Engineering, University of Tokyo

>  <COMMENT>  (3233) 
SMILES=[O-1][N+1](=O)c(c2)c(C)cc(c2)OCc(c(F)1)c(F)c(F)c(F)c(F)1
InChI=InChI=1S/C14H8F5NO3/c1-6-4-7(2-3-9(6)20(21)22)23-5-8-10(15)12(17)14(19)13(18)11(8)16/h2-4H,5H2,1H3
computed SMILES=O=N(=O)C1=CC=C(OCC=2C(F)=C(F)C(F)=C(F)C2F)C=C1C
accession=JP007508
date=2016.01.19 (Created 2008.10.21, modified 2011.05.06)
author=KOGA M, UNIV. OF OCCUPATIONAL AND ENVIRONMENTAL HEALTH
license=CC BY-NC-SA
exact mass=333.04243
ionization energy=70 eV
ion type=[M]+*
computed spectral entropy=1.5773442906636808
computed normalized entropy=0.49002955580874774
SPLASH=splash10-001i-1900000000-6b34426b76a4faaebc7b
submitter=submitter = University of Tokyo Team (Faculty of Engineering, University of Tokyo)
MoNA Rating=3.75

>  <NUM PEAKS>  (3233) 
25

>  <MASS SPECTRAL PEAKS>  (3233) 
51 6.4
52 5.3
53 0.9
62 0.11
63 2.3
69 1.1
75 1.3
77 0.31
78 2.4
80 0.9
81 1.4
89 0.13
93 1.3
131 1.6
136 1.3
152 0.03
155 1.3
161 3.6
162 1.3
181 99.99
182 10.7
262 1.1
316 1.3
333 2.24
334 3.8

$$$$

     RDKit          2D

 18 18  0  0  0  0  0  0  0  0999 V2000
    8.5453    0.2021    0.0000 C   0  0  0  0  0  0  0  0  0  0  0  0
    9.0940    2.2512    0.0000 C   0  0  0  0  0  0  0  0  0  0  0  0
    7.0449    2.8000    0.0000 C   0  0  0  0  0  0  0  0  0  0  0  0
   -1.3000    0.7500    0.0000 C   0  0  0  0  0  0  0  0  0  0  0  0
   -0.0000   -1.5000    0.0000 C   0  0  0  0  0  0  0  0  0  0  0  0
    0.0000    1.5000    0.0000 C   0  0  0  0  0  0  0  0  0  0  0  0
    1.3000   -0.7500    0.0000 C   0  0  0  0  0  0  0  0  0  0  0  0
    3.8981    0.7504    0.0000 C   0  0  0  0  0  0  0  0  0  0  0  0
   -1.3000   -0.7500    0.0000 C   0  0  0  0  0  0  0  0  0  0  0  0
    1.3000    0.7500    0.0000 C   0  0  0  0  0  0  0  0  0  0  0  0
    5.1970    1.5006    0.0000 C   0  0  0  0  0  0  0  0  0  0  0  0
   -2.5989   -1.5002    0.0000 N   0  0  0  0  0  0  0  0  0  0  0  0
    5.1968    3.0006    0.0000 O   0  0  0  0  0  0  0  0  0  0  0  0
   -3.8981   -0.7504    0.0000 O   0  0  0  0  0  0  0  0  0  0  0  0
   -2.5987   -3.0002    0.0000 O   0  0  0  0  0  0  0  0  0  0  0  0
    2.5989    1.5002    0.0000 O   0  0  0  0  0  0  0  0  0  0  0  0
    6.4962    0.7508    0.0000 O   0  0  0  0  0  0  0  0  0  0  0  0
    7.7951    1.5010    0.0000 Si  0  0  0  0  0  4  0  0  0  0  0  0
  6  4  2  0
  7  5  1  0
  9  4  1  0
  9  5  2  0
 10  6  1  0
 10  7  2  0
 11  8  1  0
 12  9  1  0
 13 11  2  0
 14 12  1  0
 15 12  2  0
 16  8  1  0
 16 10  1  0
 17 11  1  0
 18  1  1  0
 18  2  1  0
 18  3  1  0
 18 17  1  0
M  CHG  2  12   1  14  -1
M  END
>  <NAME>  (3234) 
4-NITROPHENOXYACETIC ACID TRIMETHYLSILYL ESTER

>  <SYNONYMS>  (3234) 


>  <SPECTRUM TYPE>  (3234) 
MS1

>  <INSTRUMENT TYPE>  (3234) 
EI-B

>  <INSTRUMENT>  (3234) 
JEOL JMS-01-SG

>  <ION MODE>  (3234) 
P

>  <INCHIKEY>  (3234) 
BQGPLKHQGVWGMH-UHFFFAOYSA-N

>  <FORMULA>  (3234) 
C11H15NO5Si

>  <EXACT MASS>  (3234) 
269.07194911

>  <MW>  (3234) 
269

>  <ID>  (3234) 
JP007507

>  <CONTRIBUTOR>  (3234) 
University of Tokyo Team, {Faculty of Engineering, University of Tokyo

>  <COMMENT>  (3234) 
SMILES=[O-1][N+1](=O)c(c1)ccc(OCC(=O)O[Si](C)(C)C)c1
InChI=InChI=1S/C11H15NO5Si/c1-18(2,3)17-11(13)8-16-10-6-4-9(5-7-10)12(14)15/h4-7H,8H2,1-3H3
computed SMILES=O=C(O[Si](C)(C)C)COC1=CC=C(C=C1)N(=O)=O
accession=JP007507
date=2016.01.19 (Created 2008.10.21, modified 2011.05.06)
author=KOGA M, UNIV. OF OCCUPATIONAL AND ENVIRONMENTAL HEALTH
license=CC BY-NC-SA
exact mass=269.07195
ionization energy=70 eV
ion type=[M]+*
computed spectral entropy=3.5489941297106253
computed normalized entropy=0.788698720550584
SPLASH=splash10-0092-9510000000-e2b477ffb9d73995dd0f
submitter=submitter = University of Tokyo Team (Faculty of Engineering, University of Tokyo)
MoNA Rating=3.75

>  <NUM PEAKS>  (3234) 
90

>  <MASS SPECTRAL PEAKS>  (3234) 
43 7.4
44 4.3
45 25.4
46 0.12
47 13.6
50 13
51 3.7
52 0.12
53 1.2
55 1.2
57 1.2
58 0.74
59 5.5
61 6.2
63 8.6
64 0.74
65 1.2
69 2.4
71 3.1
72 1.05
73 43.4
74 40.9
75 99.99
76 2.6
77 9.3
78 6.2
79 1.2
83 0.18
88 3.1
89 1.2
91 4.3
92 0.93
93 1.8
101 3.7
103 1.2
104 0.18
105 2.4
106 5.5
107 9.9
108 0.99
115 3.1
116 9.3
117 16.1
118 0.18
119 1.2
120 1.2
121 2.4
122 0.31
123 1.2
127 1.2
129 1.2
130 0.18
131 2.4
132 3.1
134 1.2
135 1.36
136 4.9
148 1.2
149 26
150 1.18
151 3.7
152 1.8
163 1.8
164 5.21
165 9.3
166 3.1
168 1.8
179 0.12
180 8
181 1.2
182 1.2
193 0.24
195 12.4
196 44
197 8
198 0.12
208 5.5
210 4.3
224 16.1
225 0.74
226 9.3
227 1.2
237 1.8
239 0.24
253 1.2
254 14.9
255 2.4
269 2.85
270 4.3
271 1.2

$$$$

     RDKit          2D

 15 15  0  0  0  0  0  0  0  0999 V2000
    6.9738   -2.7221    0.0000 C   0  0  0  0  0  0  0  0  0  0  0  0
   -1.3710   -0.6754    0.0000 C   0  0  0  0  0  0  0  0  0  0  0  0
   -3.4201   -1.2241    0.0000 C   0  0  0  0  0  0  0  0  0  0  0  0
   -2.8714   -3.2732    0.0000 C   0  0  0  0  0  0  0  0  0  0  0  0
    4.3700    0.2679    0.0000 C   0  0  0  0  0  0  0  0  0  0  0  0
    5.6690   -0.4821    0.0000 C   0  0  0  0  0  0  0  0  0  0  0  0
    3.0755   -0.4743    0.0000 C   0  0  0  0  0  0  0  0  0  0  0  0
    4.3740   -2.7251    0.0000 C   0  0  0  0  0  0  0  0  0  0  0  0
    1.7758   -2.7249    0.0000 C   0  0  0  0  0  0  0  0  0  0  0  0
    5.6735   -1.9743    0.0000 C   0  0  0  0  0  0  0  0  0  0  0  0
    3.0750   -1.9751    0.0000 C   0  0  0  0  0  0  0  0  0  0  0  0
    0.4769   -1.9747    0.0000 C   0  0  0  0  0  0  0  0  0  0  0  0
    0.4771   -0.4747    0.0000 O   0  0  0  0  0  0  0  0  0  0  0  0
   -0.8223   -2.7245    0.0000 O   0  0  0  0  0  0  0  0  0  0  0  0
   -2.1212   -1.9743    0.0000 Si  0  0  0  0  0  4  0  0  0  0  0  0
  6  5  2  0
  7  5  1  0
 10  1  1  0
 10  6  1  0
 10  8  2  0
 11  7  2  0
 11  8  1  0
 11  9  1  0
 12  9  1  0
 13 12  2  0
 14 12  1  0
 15  2  1  0
 15  3  1  0
 15  4  1  0
 15 14  1  0
M  END
>  <NAME>  (3235) 
3-METHYLPHENYLACETIC ACID TRIMETHYLSILYL ESTER

>  <SYNONYMS>  (3235) 


>  <SPECTRUM TYPE>  (3235) 
MS1

>  <INSTRUMENT TYPE>  (3235) 
EI-B

>  <INSTRUMENT>  (3235) 
JEOL JMS-01-SG

>  <ION MODE>  (3235) 
P

>  <INCHIKEY>  (3235) 
DSHGJKVPWKCBSY-UHFFFAOYSA-N

>  <FORMULA>  (3235) 
C12H18O2Si

>  <EXACT MASS>  (3235) 
222.107606346

>  <MW>  (3235) 
222

>  <ID>  (3235) 
JP007506

>  <CONTRIBUTOR>  (3235) 
University of Tokyo Team, {Faculty of Engineering, University of Tokyo

>  <COMMENT>  (3235) 
SMILES=Cc(c1)cc(cc1)CC(=O)O[Si](C)(C)C
InChI=InChI=1S/C12H18O2Si/c1-10-6-5-7-11(8-10)9-12(13)14-15(2,3)4/h5-8H,9H2,1-4H3
computed SMILES=O=C(O[Si](C)(C)C)CC=1C=CC=C(C1)C
accession=JP007506
date=2016.01.19 (Created 2008.10.21, modified 2011.05.06)
author=KOGA M, UNIV. OF OCCUPATIONAL AND ENVIRONMENTAL HEALTH
license=CC BY-NC-SA
exact mass=222.10761
ionization energy=70 eV
ion type=[M]+*
computed spectral entropy=1.9033213757482337
computed normalized entropy=0.5774925923611335
SPLASH=splash10-00di-9100000000-bf7219c485bc2f2b9b60
submitter=submitter = University of Tokyo Team (Faculty of Engineering, University of Tokyo)
MoNA Rating=3.75

>  <NUM PEAKS>  (3235) 
27

>  <MASS SPECTRAL PEAKS>  (3235) 
43 2.3
44 1.7
45 6.1
47 0.34
51 1.9
58 1.2
59 0.8
61 0.23
63 1
65 1
72 1.4
73 99.99
74 9.1
75 23.7
76 1.7
77 0.66
78 2.1
79 2.9
103 3.6
104 0.17
151 2.3
178 10.8
179 3.6
207 1
208 1.2
222 4.9
223 0.8

$$$$

     RDKit          2D

 19 19  0  0  0  0  0  0  0  0999 V2000
   -1.6738    1.3992    0.0000 C   0  0  0  0  0  0  0  0  0  0  0  0
   -4.8209    4.9482    0.0000 C   0  0  0  0  0  0  0  0  0  0  0  0
   -6.8700    4.3992    0.0000 C   0  0  0  0  0  0  0  0  0  0  0  0
   -6.3209    2.3501    0.0000 C   0  0  0  0  0  0  0  0  0  0  0  0
    3.5228    2.9000    0.0000 C   0  0  0  0  0  0  0  0  0  0  0  0
    0.9238    1.3983    0.0000 C   0  0  0  0  0  0  0  0  0  0  0  0
   -1.6738    2.8992    0.0000 C   0  0  0  0  0  0  0  0  0  0  0  0
    3.5223    1.3992    0.0000 C   0  0  0  0  0  0  0  0  0  0  0  0
    2.2228    0.6483    0.0000 C   0  0  0  0  0  0  0  0  0  0  0  0
    2.2238    3.6500    0.0000 C   0  0  0  0  0  0  0  0  0  0  0  0
    0.9242    2.8992    0.0000 C   0  0  0  0  0  0  0  0  0  0  0  0
   -2.9729    3.6492    0.0000 C   0  0  0  0  0  0  0  0  0  0  0  0
    4.8214    0.6492    0.0000 Cl  0  0  0  0  0  0  0  0  0  0  0  0
    2.2230   -0.8517    0.0000 Cl  0  0  0  0  0  0  0  0  0  0  0  0
    2.2235    5.1500    0.0000 Cl  0  0  0  0  0  0  0  0  0  0  0  0
   -2.9729    5.1492    0.0000 O   0  0  0  0  0  0  0  0  0  0  0  0
   -0.3748    3.6492    0.0000 O   0  0  0  0  0  0  0  0  0  0  0  0
   -4.2719    2.8992    0.0000 O   0  0  0  0  0  0  0  0  0  0  0  0
   -5.5709    3.6492    0.0000 Si  0  0  0  0  0  4  0  0  0  0  0  0
  7  1  1  0
  8  5  2  0
  9  6  2  0
  9  8  1  0
 10  5  1  0
 11  6  1  0
 11 10  2  0
 12  7  1  0
 13  8  1  0
 14  9  1  0
 15 10  1  0
 16 12  2  0
 17  7  1  0
 17 11  1  0
 18 12  1  0
 19  2  1  0
 19  3  1  0
 19  4  1  0
 19 18  1  0
M  END
>  <NAME>  (3236) 
2-(2,4,5-TRICHLOROPHENOXY)PROPIONIC ACID TRIMETHYLSILYL ESTER

>  <SYNONYMS>  (3236) 


>  <SPECTRUM TYPE>  (3236) 
MS1

>  <INSTRUMENT TYPE>  (3236) 
EI-B

>  <INSTRUMENT>  (3236) 
JEOL JMS-01-SG

>  <ION MODE>  (3236) 
P

>  <INCHIKEY>  (3236) 
NQIWQVQFFUQDCC-UHFFFAOYSA-N

>  <FORMULA>  (3236) 
C12H15Cl3O3Si

>  <EXACT MASS>  (3236) 
339.98560391

>  <MW>  (3236) 
340

>  <ID>  (3236) 
JP007505

>  <CONTRIBUTOR>  (3236) 
University of Tokyo Team, {Faculty of Engineering, University of Tokyo

>  <COMMENT>  (3236) 
SMILES=CC(Oc(c1)c(Cl)cc(Cl)c(Cl)1)C(=O)O[Si](C)(C)C
InChI=InChI=1S/C12H15Cl3O3Si/c1-7(12(16)18-19(2,3)4)17-11-6-9(14)8(13)5-10(11)15/h5-7H,1-4H3
computed SMILES=O=C(O[Si](C)(C)C)C(OC1=CC(Cl)=C(Cl)C=C1Cl)C
accession=JP007505
date=2016.01.19 (Created 2008.10.21, modified 2011.05.06)
author=KOGA M, UNIV. OF OCCUPATIONAL AND ENVIRONMENTAL HEALTH
license=CC BY-NC-SA
exact mass=339.9856
ionization energy=70 eV
ion type=[M]+*
computed spectral entropy=2.281773812558168
computed normalized entropy=0.6923200101601057
SPLASH=splash10-00di-9000000000-db262d74b10a190fb816
submitter=submitter = University of Tokyo Team (Faculty of Engineering, University of Tokyo)
MoNA Rating=3.75

>  <NUM PEAKS>  (3236) 
27

>  <MASS SPECTRAL PEAKS>  (3236) 
43 4
44 2.7
45 7.4
47 0.54
55 12.1
58 1.3
61 2
73 99.99
74 11.4
75 27
76 2.7
77 0.06
93 8.1
95 2.7
97 2
117 1.28
129 10.1
145 2.7
196 4
198 0.4
253 6
255 6.7
281 4.7
283 0.54
305 0.6
340 6
342 6

$$$$

     RDKit          2D

 22 22  0  0  0  0  0  0  0  0999 V2000
   -0.4986    6.7816    0.0000 C   0  0  0  0  0  0  0  0  0  0  0  0
   -1.9986    8.2816    0.0000 C   0  0  0  0  0  0  0  0  0  0  0  0
   -3.4986    6.7816    0.0000 C   0  0  0  0  0  0  0  0  0  0  0  0
   -6.4447    6.5806    0.0000 C   0  0  0  0  0  0  0  0  0  0  0  0
   -8.4937    6.0316    0.0000 C   0  0  0  0  0  0  0  0  0  0  0  0
   -7.9447    3.9826    0.0000 C   0  0  0  0  0  0  0  0  0  0  0  0
    4.4966    3.0316    0.0000 C   0  0  0  0  0  0  0  0  0  0  0  0
    4.4971    4.5324    0.0000 C   0  0  0  0  0  0  0  0  0  0  0  0
    3.1971    2.2808    0.0000 C   0  0  0  0  0  0  0  0  0  0  0  0
    3.1981    5.2824    0.0000 C   0  0  0  0  0  0  0  0  0  0  0  0
    1.8981    3.0308    0.0000 C   0  0  0  0  0  0  0  0  0  0  0  0
    0.5995    5.2816    0.0000 C   0  0  0  0  0  0  0  0  0  0  0  0
   -3.2976    4.5316    0.0000 C   0  0  0  0  0  0  0  0  0  0  0  0
    1.8986    4.5316    0.0000 C   0  0  0  0  0  0  0  0  0  0  0  0
   -0.6995    4.5316    0.0000 C   0  0  0  0  0  0  0  0  0  0  0  0
   -4.5966    5.2816    0.0000 C   0  0  0  0  0  0  0  0  0  0  0  0
   -1.9986    5.2816    0.0000 N   0  0  0  0  0  0  0  0  0  0  0  0
   -0.6995    3.0316    0.0000 O   0  0  0  0  0  0  0  0  0  0  0  0
   -4.5966    6.7816    0.0000 O   0  0  0  0  0  0  0  0  0  0  0  0
   -5.8957    4.5316    0.0000 O   0  0  0  0  0  0  0  0  0  0  0  0
   -1.9986    6.7816    0.0000 Si  0  0  0  0  0  4  0  0  0  0  0  0
   -7.1947    5.2816    0.0000 Si  0  0  0  0  0  4  0  0  0  0  0  0
  8  7  2  0
  9  7  1  0
 10  8  1  0
 11  9  2  0
 14 10  2  0
 14 11  1  0
 14 12  1  0
 15 12  1  0
 16 13  1  0
 17 13  1  0
 17 15  1  0
 18 15  2  0
 19 16  2  0
 20 16  1  0
 21  1  1  0
 21  2  1  0
 21  3  1  0
 21 17  1  0
 22  4  1  0
 22  5  1  0
 22  6  1  0
 22 20  1  0
M  END
>  <NAME>  (3237) 
N-TRIMETHYLSILYLPHENYLACETYLGLYCINE TRIMETHYLSILYL ESTER

>  <SYNONYMS>  (3237) 


>  <SPECTRUM TYPE>  (3237) 
MS1

>  <INSTRUMENT TYPE>  (3237) 
EI-B

>  <INSTRUMENT>  (3237) 
JEOL JMS-01-SG

>  <ION MODE>  (3237) 
P

>  <INCHIKEY>  (3237) 
ANMSCIPIBILVCV-UHFFFAOYSA-N

>  <FORMULA>  (3237) 
C16H27NO3Si2

>  <EXACT MASS>  (3237) 
337.152946784

>  <MW>  (3237) 
337

>  <ID>  (3237) 
JP007503

>  <CONTRIBUTOR>  (3237) 
University of Tokyo Team, {Faculty of Engineering, University of Tokyo

>  <COMMENT>  (3237) 
SMILES=c(c1)ccc(c1)CC(=O)N(CC(=O)O[Si](C)(C)C)[Si](C)(C)C
InChI=InChI=1S/C16H27NO3Si2/c1-21(2,3)17(13-16(19)20-22(4,5)6)15(18)12-14-10-8-7-9-11-14/h7-11H,12-13H2,1-6H3
computed SMILES=O=C(O[Si](C)(C)C)CN(C(=O)CC=1C=CC=CC1)[Si](C)(C)C
accession=JP007503
date=2016.01.19 (Created 2008.10.21, modified 2011.05.06)
author=KOGA M, UNIV. OF OCCUPATIONAL AND ENVIRONMENTAL HEALTH
license=CC BY-NC-SA
exact mass=337.15295
ionization energy=70 eV
ion type=[M]+*
computed spectral entropy=2.7570978583890695
computed normalized entropy=0.7201243399074558
SPLASH=splash10-00di-9220000000-2a758eec95e4ae7d77f8
submitter=submitter = University of Tokyo Team (Faculty of Engineering, University of Tokyo)
MoNA Rating=3.75

>  <NUM PEAKS>  (3237) 
46

>  <MASS SPECTRAL PEAKS>  (3237) 
43 3.8
44 4.5
45 14.8
47 0.51
56 1.2
59 3.8
65 5.1
72 0.19
73 99.99
74 9.6
75 16.1
76 0.12
77 1.9
86 3.2
91 30.6
92 0.45
100 1.9
102 27
103 1.9
104 0.19
105 1.2
116 1.9
117 1.9
118 0.32
130 1.9
131 2.5
133 1.9
147 1.22
148 1.9
149 1.2
174 3.2
176 0.96
177 1.2
218 18
219 3.8
220 1.48
221 2.5
246 19.3
247 5.1
248 0.19
294 3.2
322 5.1
323 1.2
336 0.19
337 10.3
338 2.5

$$$$

     RDKit          2D

 18 19  0  0  0  0  0  0  0  0999 V2000
    6.6864   -0.6883    0.0000 C   0  0  0  0  0  0  0  0  0  0  0  0
    8.7353   -0.1390    0.0000 C   0  0  0  0  0  0  0  0  0  0  0  0
    8.1859    1.9100    0.0000 C   0  0  0  0  0  0  0  0  0  0  0  0
   -2.9500   -0.8900    0.0000 C   0  0  0  0  0  0  0  0  0  0  0  0
   -2.9500    0.6100    0.0000 C   0  0  0  0  0  0  0  0  0  0  0  0
   -1.6500   -1.6400    0.0000 C   0  0  0  0  0  0  0  0  0  0  0  0
   -1.6500    1.3600    0.0000 C   0  0  0  0  0  0  0  0  0  0  0  0
    2.2400   -0.8900    0.0000 C   0  0  0  0  0  0  0  0  0  0  0  0
    0.9400   -1.6400    0.0000 C   0  0  0  0  0  0  0  0  0  0  0  0
    0.9400    1.3600    0.0000 C   0  0  0  0  0  0  0  0  0  0  0  0
    3.5389    1.3602    0.0000 C   0  0  0  0  0  0  0  0  0  0  0  0
    2.2400    0.6100    0.0000 C   0  0  0  0  0  0  0  0  0  0  0  0
   -0.3500   -0.8900    0.0000 C   0  0  0  0  0  0  0  0  0  0  0  0
   -0.3500    0.6100    0.0000 C   0  0  0  0  0  0  0  0  0  0  0  0
    4.8381    0.6104    0.0000 C   0  0  0  0  0  0  0  0  0  0  0  0
    4.8383   -0.8896    0.0000 O   0  0  0  0  0  0  0  0  0  0  0  0
    6.1370    1.3606    0.0000 O   0  0  0  0  0  0  0  0  0  0  0  0
    7.4362    0.6108    0.0000 Si  0  0  0  0  0  4  0  0  0  0  0  0
  5  4  2  0
  6  4  1  0
  7  5  1  0
  9  8  2  0
 12  8  1  0
 12 10  2  0
 12 11  1  0
 13  6  2  0
 13  9  1  0
 14  7  2  0
 14 10  1  0
 14 13  1  0
 15 11  1  0
 16 15  2  0
 17 15  1  0
 18  1  1  0
 18  2  1  0
 18  3  1  0
 18 17  1  0
M  END
>  <NAME>  (3238) 
2-NAPHTHALENEACETIC ACID TRIMETHYLSILYL ESTER

>  <SYNONYMS>  (3238) 


>  <SPECTRUM TYPE>  (3238) 
MS1

>  <INSTRUMENT TYPE>  (3238) 
EI-B

>  <INSTRUMENT>  (3238) 
JEOL JMS-01-SG

>  <ION MODE>  (3238) 
P

>  <INCHIKEY>  (3238) 
JDDRRLKCWBOIEK-UHFFFAOYSA-N

>  <FORMULA>  (3238) 
C15H18O2Si

>  <EXACT MASS>  (3238) 
258.107606346

>  <MW>  (3238) 
258

>  <ID>  (3238) 
JP007502

>  <CONTRIBUTOR>  (3238) 
University of Tokyo Team, {Faculty of Engineering, University of Tokyo

>  <COMMENT>  (3238) 
SMILES=O=C(Cc(c1)cc(c2)c(ccc2)c1)O[Si](C)(C)C
InChI=InChI=1S/C15H18O2Si/c1-18(2,3)17-15(16)11-12-8-9-13-6-4-5-7-14(13)10-12/h4-10H,11H2,1-3H3
computed SMILES=O=C(O[Si](C)(C)C)CC=1C=CC=2C=CC=CC2C1
accession=JP007502
date=2016.01.19 (Created 2008.10.21, modified 2011.05.06)
author=KOGA M, UNIV. OF OCCUPATIONAL AND ENVIRONMENTAL HEALTH
license=CC BY-NC-SA
exact mass=258.10761
ionization energy=70 eV
ion type=[M]+*
computed spectral entropy=1.6977136790543854
computed normalized entropy=0.599218439591219
SPLASH=splash10-00di-9100000000-89637052f4b3e90f878a
submitter=submitter = University of Tokyo Team (Faculty of Engineering, University of Tokyo)
MoNA Rating=3.75

>  <NUM PEAKS>  (3238) 
17

>  <MASS SPECTRAL PEAKS>  (3238) 
44 1.3
45 5.8
47 1.3
73 99.99
74 8.6
75 15.5
115 8.6
121 0.13
139 5.5
140 3.4
141 9.6
214 1
215 2
243 6.9
244 1.3
258 1.1
259 2

$$$$

     RDKit          2D

 16 16  0  0  0  0  0  0  0  0999 V2000
    3.5283   -0.9596    0.0000 C   0  0  0  0  0  0  0  0  0  0  0  0
    8.1753   -0.0079    0.0000 C   0  0  0  0  0  0  0  0  0  0  0  0
    8.7240    2.0412    0.0000 C   0  0  0  0  0  0  0  0  0  0  0  0
    6.6749    2.5900    0.0000 C   0  0  0  0  0  0  0  0  0  0  0  0
   -1.6700   -0.9600    0.0000 C   0  0  0  0  0  0  0  0  0  0  0  0
   -1.6700    0.5400    0.0000 C   0  0  0  0  0  0  0  0  0  0  0  0
   -0.3700   -1.7100    0.0000 C   0  0  0  0  0  0  0  0  0  0  0  0
   -0.3700    1.2900    0.0000 C   0  0  0  0  0  0  0  0  0  0  0  0
    0.9300   -0.9600    0.0000 C   0  0  0  0  0  0  0  0  0  0  0  0
    3.5281    0.5404    0.0000 C   0  0  0  0  0  0  0  0  0  0  0  0
    0.9300    0.5400    0.0000 C   0  0  0  0  0  0  0  0  0  0  0  0
    4.8270    1.2906    0.0000 C   0  0  0  0  0  0  0  0  0  0  0  0
    4.8268    2.7906    0.0000 O   0  0  0  0  0  0  0  0  0  0  0  0
    2.2289    1.2902    0.0000 O   0  0  0  0  0  0  0  0  0  0  0  0
    6.1262    0.5408    0.0000 O   0  0  0  0  0  0  0  0  0  0  0  0
    7.4251    1.2910    0.0000 Si  0  0  0  0  0  4  0  0  0  0  0  0
  6  5  2  0
  7  5  1  0
  8  6  1  0
  9  7  2  0
 10  1  1  0
 11  8  2  0
 11  9  1  0
 12 10  1  0
 13 12  2  0
 14 10  1  0
 14 11  1  0
 15 12  1  0
 16  2  1  0
 16  3  1  0
 16  4  1  0
 16 15  1  0
M  END
>  <NAME>  (3239) 
2-PHENOXYPROPIONIC ACID TRIMETHYLSILYL ESTER

>  <SYNONYMS>  (3239) 


>  <SPECTRUM TYPE>  (3239) 
MS1

>  <INSTRUMENT TYPE>  (3239) 
EI-B

>  <INSTRUMENT>  (3239) 
JEOL JMS-01-SG

>  <ION MODE>  (3239) 
P

>  <INCHIKEY>  (3239) 
NXGVSPLHWFXLIA-UHFFFAOYSA-N

>  <FORMULA>  (3239) 
C12H18O3Si

>  <EXACT MASS>  (3239) 
238.102520966

>  <MW>  (3239) 
238

>  <ID>  (3239) 
JP007501

>  <CONTRIBUTOR>  (3239) 
University of Tokyo Team, {Faculty of Engineering, University of Tokyo

>  <COMMENT>  (3239) 
SMILES=CC(Oc(c1)cccc1)C(=O)O[Si](C)(C)C
InChI=InChI=1S/C12H18O3Si/c1-10(12(13)15-16(2,3)4)14-11-8-6-5-7-9-11/h5-10H,1-4H3
computed SMILES=O=C(O[Si](C)(C)C)C(OC=1C=CC=CC1)C
accession=JP007501
date=2016.01.19 (Created 2008.10.21, modified 2011.05.06)
author=KOGA M, UNIV. OF OCCUPATIONAL AND ENVIRONMENTAL HEALTH
license=CC BY-NC-SA
exact mass=238.10252
ionization energy=70 eV
ion type=[M]+*
computed spectral entropy=2.8559632285175685
computed normalized entropy=0.737746043274507
SPLASH=splash10-00fr-9310000000-3637358809b504590d29
submitter=submitter = University of Tokyo Team (Faculty of Engineering, University of Tokyo)
MoNA Rating=3.75

>  <NUM PEAKS>  (3239) 
48

>  <MASS SPECTRAL PEAKS>  (3239) 
43 5.4
44 3.7
45 9.1
47 0.7
50 1.6
51 9.9
55 7.7
56 0.09
58 1.4
59 2.3
61 3.3
63 0.09
65 5.6
66 1.1
72 1.8
73 99.99
74 10.3
75 46.4
76 1.6
77 2.83
78 1.8
86 1.1
91 4.2
93 0.66
94 11
95 1.1
103 2.3
105 0.14
112 0.9
117 6.1
120 1.1
121 8.67
122 7.3
129 8.2
130 1.6
135 0.28
151 20
152 2.3
153 0.9
177 1.17
178 1.8
179 21.9
180 4
195 0.35
223 2.8
238 29.7
239 5.4
240 0.9

$$$$

     RDKit          2D

 17 16  0  0  0  0  0  0  0  0999 V2000
    3.4755    1.5736    0.0000 C   0  0  0  0  0  0  0  0  0  0  0  0
    9.4216    4.3726    0.0000 C   0  0  0  0  0  0  0  0  0  0  0  0
    7.9216    1.7745    0.0000 C   0  0  0  0  0  0  0  0  0  0  0  0
    9.9707    2.3236    0.0000 C   0  0  0  0  0  0  0  0  0  0  0  0
    0.3284    5.1226    0.0000 C   0  0  0  0  0  0  0  0  0  0  0  0
   -1.7207    4.5736    0.0000 C   0  0  0  0  0  0  0  0  0  0  0  0
   -1.1716    2.5245    0.0000 C   0  0  0  0  0  0  0  0  0  0  0  0
    4.7745    3.8236    0.0000 C   0  0  0  0  0  0  0  0  0  0  0  0
    3.4755    3.0736    0.0000 C   0  0  0  0  0  0  0  0  0  0  0  0
    6.0736    3.0736    0.0000 C   0  0  0  0  0  0  0  0  0  0  0  0
    2.1764    3.8236    0.0000 C   0  0  0  0  0  0  0  0  0  0  0  0
    6.0736    1.5736    0.0000 O   0  0  0  0  0  0  0  0  0  0  0  0
    2.1764    5.3236    0.0000 O   0  0  0  0  0  0  0  0  0  0  0  0
    7.3726    3.8236    0.0000 O   0  0  0  0  0  0  0  0  0  0  0  0
    0.8774    3.0736    0.0000 O   0  0  0  0  0  0  0  0  0  0  0  0
    8.6716    3.0736    0.0000 Si  0  0  0  0  0  4  0  0  0  0  0  0
   -0.4216    3.8236    0.0000 Si  0  0  0  0  0  4  0  0  0  0  0  0
  9  1  1  0
  9  8  1  0
 10  8  1  0
 11  9  1  0
 12 10  2  0
 13 11  2  0
 14 10  1  0
 15 11  1  0
 16  2  1  0
 16  3  1  0
 16  4  1  0
 16 14  1  0
 17  5  1  0
 17  6  1  0
 17  7  1  0
 17 15  1  0
M  END
>  <NAME>  (3240) 
METHYLSUCCINIC ACID BIS(TRIMETHYLSILYL) ESTER

>  <SYNONYMS>  (3240) 
2-METHYLBUTANEDIOIC ACID BIS(TRIMETHYLSILYL) ESTER

>  <SPECTRUM TYPE>  (3240) 
MS1

>  <INSTRUMENT TYPE>  (3240) 
EI-B

>  <INSTRUMENT>  (3240) 
JEOL JMS-01-SG

>  <ION MODE>  (3240) 
P

>  <INCHIKEY>  (3240) 
OAMWTEBQZKRCMA-UHFFFAOYSA-N

>  <FORMULA>  (3240) 
C11H24O4Si2

>  <EXACT MASS>  (3240) 
276.12131230800003

>  <MW>  (3240) 
276

>  <ID>  (3240) 
JP007500

>  <CONTRIBUTOR>  (3240) 
University of Tokyo Team, {Faculty of Engineering, University of Tokyo

>  <COMMENT>  (3240) 
SMILES=CC(CC(=O)O[Si](C)(C)C)C(=O)O[Si](C)(C)C
InChI=InChI=1S/C11H24O4Si2/c1-9(11(13)15-17(5,6)7)8-10(12)14-16(2,3)4/h9H,8H2,1-7H3
computed SMILES=O=C(O[Si](C)(C)C)CC(C(=O)O[Si](C)(C)C)C
accession=JP007500
date=2016.01.19 (Created 2008.10.21, modified 2011.05.06)
author=KOGA M, UNIV. OF OCCUPATIONAL AND ENVIRONMENTAL HEALTH
license=CC BY-NC-SA
exact mass=276.12131
ionization energy=70 eV
ion type=[M]+*
computed spectral entropy=2.8515832376866364
computed normalized entropy=0.7289280338407798
SPLASH=splash10-00dj-9320000000-c59b277cfcb3e3559d53
submitter=submitter = University of Tokyo Team (Faculty of Engineering, University of Tokyo)
MoNA Rating=3.75

>  <NUM PEAKS>  (3240) 
50

>  <MASS SPECTRAL PEAKS>  (3240) 
41 1
42 1.3
43 3.7
44 0.44
45 16.4
46 1
47 7.1
55 2.91
56 1.3
57 1.3
58 2.9
59 0.39
61 3.9
69 15.8
70 6.8
71 0.1
72 5.2
73 99.99
74 12.1
75 3.06
76 2.3
77 3.9
99 1.3
117 0.31
123 5
129 4.4
130 1
131 0.21
133 4.2
143 7.1
145 1
147 1.71
148 25.9
149 14.5
150 1
158 0.21
186 6.8
187 2.6
190 1.3
204 0.21
217 16.4
218 2.3
219 1
232 0.97
233 1.5
238 1.5
261 34.1
262 0.89
263 2.9
276 0.7

$$$$

     RDKit          2D

 13 13  0  0  0  0  0  0  0  0999 V2000
   -2.5476    4.3306    0.0000 C   0  0  0  0  0  0  0  0  0  0  0  0
   -4.5966    3.7816    0.0000 C   0  0  0  0  0  0  0  0  0  0  0  0
   -4.0476    1.7326    0.0000 C   0  0  0  0  0  0  0  0  0  0  0  0
    1.8990    3.0324    0.0000 C   0  0  0  0  0  0  0  0  0  0  0  0
    0.5990    0.7808    0.0000 C   0  0  0  0  0  0  0  0  0  0  0  0
    3.1981    2.2824    0.0000 C   0  0  0  0  0  0  0  0  0  0  0  0
    1.8981    0.0308    0.0000 C   0  0  0  0  0  0  0  0  0  0  0  0
    0.5995    2.2816    0.0000 C   0  0  0  0  0  0  0  0  0  0  0  0
   -0.6995    3.0316    0.0000 C   0  0  0  0  0  0  0  0  0  0  0  0
    3.1976    0.7816    0.0000 N   0  0  0  0  0  0  0  0  0  0  0  0
   -0.6995    4.5316    0.0000 O   0  0  0  0  0  0  0  0  0  0  0  0
   -1.9986    2.2816    0.0000 O   0  0  0  0  0  0  0  0  0  0  0  0
   -3.2976    3.0316    0.0000 Si  0  0  0  0  0  4  0  0  0  0  0  0
  6  4  2  0
  7  5  1  0
  8  4  1  0
  8  5  2  0
  9  8  1  0
 10  6  1  0
 10  7  2  0
 11  9  2  0
 12  9  1  0
 13  1  1  0
 13  2  1  0
 13  3  1  0
 13 12  1  0
M  END
>  <NAME>  (3241) 
ISONICOTINIC ACID TRIMETHYLSILYL ESTER

>  <SYNONYMS>  (3241) 
PYRIDINE-4-CARBOXYLIC ACID TRIMETHYLSILYLESTER

>  <SPECTRUM TYPE>  (3241) 
MS1

>  <INSTRUMENT TYPE>  (3241) 
EI-B

>  <INSTRUMENT>  (3241) 
JEOL JMS-01-SG

>  <ION MODE>  (3241) 
P

>  <INCHIKEY>  (3241) 
VQVREJHPRSVZBD-UHFFFAOYSA-N

>  <FORMULA>  (3241) 
C9H13NO2Si

>  <EXACT MASS>  (3241) 
195.071555186

>  <MW>  (3241) 
195

>  <ID>  (3241) 
JP007499

>  <CONTRIBUTOR>  (3241) 
University of Tokyo Team, {Faculty of Engineering, University of Tokyo

>  <COMMENT>  (3241) 
SMILES=O=C(O[Si](C)(C)C)c(c1)ccnc1
InChI=InChI=1S/C9H13NO2Si/c1-13(2,3)12-9(11)8-4-6-10-7-5-8/h4-7H,1-3H3
computed SMILES=O=C(O[Si](C)(C)C)C=1C=CN=CC1
accession=JP007499
date=2016.01.19 (Created 2008.10.21, modified 2011.05.06)
author=KOGA M, UNIV. OF OCCUPATIONAL AND ENVIRONMENTAL HEALTH
license=CC BY-NC-SA
exact mass=195.07156
ionization energy=70 eV
ion type=[M]+*
computed spectral entropy=2.052237338836773
computed normalized entropy=0.6298884378923342
SPLASH=splash10-001i-4900000000-90e32c65a8f4480406ed
submitter=submitter = University of Tokyo Team (Faculty of Engineering, University of Tokyo)
MoNA Rating=3.75

>  <NUM PEAKS>  (3241) 
26

>  <MASS SPECTRAL PEAKS>  (3241) 
43 2.3
45 5
47 4.4
50 0.37
51 18.9
52 1
57 1.6
59 0.13
61 1
73 4
74 4
76 0.06
77 1
78 29.1
79 1.3
83 0.1
90 5
106 40.6
107 1.6
136 2.57
137 3.3
138 1.3
180 99.99
181 1.38
182 4.7
195 6.1

$$$$

     RDKit          2D

 13 13  0  0  0  0  0  0  0  0999 V2000
    5.5772   -0.0083    0.0000 C   0  0  0  0  0  0  0  0  0  0  0  0
    6.1259    2.0408    0.0000 C   0  0  0  0  0  0  0  0  0  0  0  0
    4.0768    2.5895    0.0000 C   0  0  0  0  0  0  0  0  0  0  0  0
   -1.6700    0.5400    0.0000 C   0  0  0  0  0  0  0  0  0  0  0  0
   -0.3700    1.2900    0.0000 C   0  0  0  0  0  0  0  0  0  0  0  0
   -1.6700   -0.9600    0.0000 C   0  0  0  0  0  0  0  0  0  0  0  0
    0.9300   -0.9600    0.0000 C   0  0  0  0  0  0  0  0  0  0  0  0
    0.9300    0.5400    0.0000 C   0  0  0  0  0  0  0  0  0  0  0  0
    2.2289    1.2902    0.0000 C   0  0  0  0  0  0  0  0  0  0  0  0
   -0.3700   -1.7100    0.0000 N   0  0  0  0  0  0  0  0  0  0  0  0
    2.2287    2.7902    0.0000 O   0  0  0  0  0  0  0  0  0  0  0  0
    3.5281    0.5404    0.0000 O   0  0  0  0  0  0  0  0  0  0  0  0
    4.8270    1.2906    0.0000 Si  0  0  0  0  0  4  0  0  0  0  0  0
  5  4  2  0
  6  4  1  0
  8  5  1  0
  8  7  2  0
  9  8  1  0
 10  6  2  0
 10  7  1  0
 11  9  2  0
 12  9  1  0
 13  1  1  0
 13  2  1  0
 13  3  1  0
 13 12  1  0
M  END
>  <NAME>  (3242) 
NICOTINIC ACID TRIMETHYLSILYL ESTER

>  <SYNONYMS>  (3242) 
PYRIDINE-3-CARBOXYLIC ACID TRIMETHYLSILYLESTER

>  <SPECTRUM TYPE>  (3242) 
MS1

>  <INSTRUMENT TYPE>  (3242) 
EI-B

>  <INSTRUMENT>  (3242) 
JEOL JMS-01-SG

>  <ION MODE>  (3242) 
P

>  <INCHIKEY>  (3242) 
PYFBRRMHOWLGJH-UHFFFAOYSA-N

>  <FORMULA>  (3242) 
C9H13NO2Si

>  <EXACT MASS>  (3242) 
195.071555186

>  <MW>  (3242) 
195

>  <ID>  (3242) 
JP007498

>  <CONTRIBUTOR>  (3242) 
University of Tokyo Team, {Faculty of Engineering, University of Tokyo

>  <COMMENT>  (3242) 
SMILES=O=C(O[Si](C)(C)C)c(c1)cncc1
InChI=InChI=1S/C9H13NO2Si/c1-13(2,3)12-9(11)8-5-4-6-10-7-8/h4-7H,1-3H3
computed SMILES=O=C(O[Si](C)(C)C)C=1C=NC=CC1
accession=JP007498
date=2016.01.19 (Created 2008.10.21, modified 2011.05.06)
author=KOGA M, UNIV. OF OCCUPATIONAL AND ENVIRONMENTAL HEALTH
license=CC BY-NC-SA
exact mass=195.07156
ionization energy=70 eV
ion type=[M]+*
computed spectral entropy=2.1277518234552586
computed normalized entropy=0.6255890454718134
SPLASH=splash10-001i-1900000000-71213d84caada266e7d8
submitter=submitter = University of Tokyo Team (Faculty of Engineering, University of Tokyo)
MoNA Rating=3.75

>  <NUM PEAKS>  (3242) 
30

>  <MASS SPECTRAL PEAKS>  (3242) 
43 1.6
44 3.2
45 5.5
47 0.39
50 2.6
51 15.6
52 1.6
53 0.06
59 1.6
72 1.6
73 1.3
74 0.16
75 1.9
76 0.6
77 1.3
78 3.62
79 2.6
90 2.9
106 43.4
107 0.26
136 47.7
137 5.5
138 1.3
180 99.99
181 13.7
182 4.2
186 0.6
194 0.06
195 5.2
196 0.6

$$$$

     RDKit          2D

 15 14  0  0  0  0  0  0  0  0999 V2000
  -11.2796    6.0368    0.0000 C   0  0  0  0  0  0  0  0  0  0  0  0
    2.4608    4.7377    0.0000 C   0  0  0  0  0  0  0  0  0  0  0  0
    3.0099    6.7868    0.0000 C   0  0  0  0  0  0  0  0  0  0  0  0
    0.9608    7.3358    0.0000 C   0  0  0  0  0  0  0  0  0  0  0  0
   -9.9805    5.2868    0.0000 C   0  0  0  0  0  0  0  0  0  0  0  0
   -8.6815    6.0368    0.0000 C   0  0  0  0  0  0  0  0  0  0  0  0
   -7.3825    5.2868    0.0000 C   0  0  0  0  0  0  0  0  0  0  0  0
   -6.0834    6.0368    0.0000 C   0  0  0  0  0  0  0  0  0  0  0  0
   -4.7844    5.2868    0.0000 C   0  0  0  0  0  0  0  0  0  0  0  0
   -3.4853    6.0368    0.0000 C   0  0  0  0  0  0  0  0  0  0  0  0
   -2.1863    5.2868    0.0000 C   0  0  0  0  0  0  0  0  0  0  0  0
   -0.8873    6.0368    0.0000 C   0  0  0  0  0  0  0  0  0  0  0  0
   -0.8873    7.5368    0.0000 O   0  0  0  0  0  0  0  0  0  0  0  0
    0.4118    5.2868    0.0000 O   0  0  0  0  0  0  0  0  0  0  0  0
    1.7108    6.0368    0.0000 Si  0  0  0  0  0  4  0  0  0  0  0  0
  5  1  1  0
  6  5  1  0
  7  6  1  0
  8  7  1  0
  9  8  1  0
  9 10  2  0
 11 10  1  0
 12 11  1  0
 13 12  2  0
 14 12  1  0
 15  2  1  0
 15  3  1  0
 15  4  1  0
 15 14  1  0
M  END
>  <NAME>  (3243) 
3-NONENOIC ACID TRIMETHYLSILYL ESTER

>  <SYNONYMS>  (3243) 


>  <SPECTRUM TYPE>  (3243) 
MS1

>  <INSTRUMENT TYPE>  (3243) 
EI-B

>  <INSTRUMENT>  (3243) 
JEOL JMS-01-SG

>  <ION MODE>  (3243) 
P

>  <INCHIKEY>  (3243) 
CLMHUCMNZKBMPA-MDZDMXLPSA-N

>  <FORMULA>  (3243) 
C12H24O2Si

>  <EXACT MASS>  (3243) 
228.15455653799998

>  <MW>  (3243) 
228

>  <ID>  (3243) 
JP007497

>  <CONTRIBUTOR>  (3243) 
University of Tokyo Team, {Faculty of Engineering, University of Tokyo

>  <COMMENT>  (3243) 
SMILES=CCCCCC=CCC(=O)O[Si](C)(C)C
InChI=InChI=1S/C12H24O2Si/c1-5-6-7-8-9-10-11-12(13)14-15(2,3)4/h9-10H,5-8,11H2,1-4H3/b10-9+
computed SMILES=O=C(O[Si](C)(C)C)CC=CCCCCC
accession=JP007497
date=2016.01.19 (Created 2008.10.21, modified 2011.05.06)
author=KOGA M, UNIV. OF OCCUPATIONAL AND ENVIRONMENTAL HEALTH
license=CC BY-NC-SA
exact mass=228.15456
ionization energy=70 eV
ion type=[M]+*
computed spectral entropy=2.8534828555565395
computed normalized entropy=0.7332000547255042
SPLASH=splash10-00b9-9210000000-e7f490d4387ab470af56
submitter=submitter = University of Tokyo Team (Faculty of Engineering, University of Tokyo)
MoNA Rating=3.75

>  <NUM PEAKS>  (3243) 
49

>  <MASS SPECTRAL PEAKS>  (3243) 
41 1.3
43 4
44 2.6
45 2.46
47 12
51 1.3
53 6
54 0.86
55 10.6
58 3.3
59 7.3
61 1.06
67 4
68 2.6
69 4.6
72 0.66
73 10.6
74 50
75 99.99
76 0.6
77 4.6
79 1.3
81 8
85 0.13
89 1.3
95 2
96 5.3
97 0.26
99 8
101 3.3
109 2.6
110 0.46
113 3.3
116 3.3
117 24.6
129 0.33
132 4
138 4
141 3.3
145 0.13
155 4
169 2.6
184 5.3
186 0.2
213 41.3
214 7.3
215 1.3
228 1
229 1.3

$$$$

     RDKit          2D

 15 14  0  0  0  0  0  0  0  0999 V2000
    2.1127    4.8849    0.0000 C   0  0  0  0  0  0  0  0  0  0  0  0
   -1.2353    2.0858    0.0000 C   0  0  0  0  0  0  0  0  0  0  0  0
    0.2647    4.6839    0.0000 C   0  0  0  0  0  0  0  0  0  0  0  0
   -1.7844    4.1349    0.0000 C   0  0  0  0  0  0  0  0  0  0  0  0
    8.0589    2.0858    0.0000 C   0  0  0  0  0  0  0  0  0  0  0  0
    8.6079    4.1349    0.0000 C   0  0  0  0  0  0  0  0  0  0  0  0
    6.5589    4.6839    0.0000 C   0  0  0  0  0  0  0  0  0  0  0  0
    3.4118    2.6349    0.0000 C   0  0  0  0  0  0  0  0  0  0  0  0
    0.8137    2.6349    0.0000 C   0  0  0  0  0  0  0  0  0  0  0  0
    2.1127    3.3849    0.0000 C   0  0  0  0  0  0  0  0  0  0  0  0
    4.7108    3.3849    0.0000 C   0  0  0  0  0  0  0  0  0  0  0  0
   -0.4853    3.3849    0.0000 C   0  0  0  0  0  0  0  0  0  0  0  0
    4.7108    4.8849    0.0000 O   0  0  0  0  0  0  0  0  0  0  0  0
    6.0099    2.6349    0.0000 O   0  0  0  0  0  0  0  0  0  0  0  0
    7.3089    3.3849    0.0000 Si  0  0  0  0  0  4  0  0  0  0  0  0
 10  1  1  0
 10  8  1  0
 10  9  1  0
 11  8  1  0
 12  2  1  0
 12  3  1  0
 12  4  1  0
 12  9  1  0
 13 11  2  0
 14 11  1  0
 15  5  1  0
 15  6  1  0
 15  7  1  0
 15 14  1  0
M  END
>  <NAME>  (3244) 
3,5,5-TRIMETHYLHEXANOIC ACID TRIMETHYLSILYL ESTER

>  <SYNONYMS>  (3244) 


>  <SPECTRUM TYPE>  (3244) 
MS1

>  <INSTRUMENT TYPE>  (3244) 
EI-B

>  <INSTRUMENT>  (3244) 
JEOL JMS-01-SG

>  <ION MODE>  (3244) 
P

>  <INCHIKEY>  (3244) 
MHLBKYCBTSBDCF-UHFFFAOYSA-N

>  <FORMULA>  (3244) 
C12H26O2Si

>  <EXACT MASS>  (3244) 
230.170206602

>  <MW>  (3244) 
230

>  <ID>  (3244) 
JP007496

>  <CONTRIBUTOR>  (3244) 
University of Tokyo Team, {Faculty of Engineering, University of Tokyo

>  <COMMENT>  (3244) 
SMILES=CC(CC(C)(C)C)CC(=O)O[Si](C)(C)C
InChI=InChI=1S/C12H26O2Si/c1-10(9-12(2,3)4)8-11(13)14-15(5,6)7/h10H,8-9H2,1-7H3
computed SMILES=O=C(O[Si](C)(C)C)CC(C)CC(C)(C)C
accession=JP007496
date=2016.01.19 (Created 2008.10.21, modified 2011.05.06)
author=KOGA M, UNIV. OF OCCUPATIONAL AND ENVIRONMENTAL HEALTH
license=CC BY-NC-SA
exact mass=230.17021
ionization energy=70 eV
ion type=[M]+*
computed spectral entropy=2.8869820173336382
computed normalized entropy=0.7826176087467427
SPLASH=splash10-017i-9820000000-d6c44c1d5cd7b9b8fc19
submitter=submitter = University of Tokyo Team (Faculty of Engineering, University of Tokyo)
MoNA Rating=3.75

>  <NUM PEAKS>  (3244) 
40

>  <MASS SPECTRAL PEAKS>  (3244) 
41 5.9
43 8.8
45 8.8
47 0.81
55 14.8
56 7.4
57 58.5
59 0.59
61 6.6
69 8.1
70 2.2
73 9.85
74 7.4
75 89.6
76 6.6
77 0.29
83 54
84 5.1
85 2.9
97 0.59
116 5.9
117 99.99
118 7.4
119 0.44
125 5.1
132 66.6
133 7.4
143 0.29
144 23.7
145 15.5
146 4.4
158 0.37
159 5.1
173 11.8
188 23.7
189 0.29
202 9.6
215 74.8
216 11.8
217 2.2

$$$$

     RDKit          2D

 14 13  0  0  0  0  0  0  0  0999 V2000
  -10.2183    6.1005    0.0000 C   0  0  0  0  0  0  0  0  0  0  0  0
    0.7231    4.0514    0.0000 C   0  0  0  0  0  0  0  0  0  0  0  0
    2.7721    4.6005    0.0000 C   0  0  0  0  0  0  0  0  0  0  0  0
    2.2231    6.6495    0.0000 C   0  0  0  0  0  0  0  0  0  0  0  0
   -8.9192    5.3505    0.0000 C   0  0  0  0  0  0  0  0  0  0  0  0
   -7.6202    6.1005    0.0000 C   0  0  0  0  0  0  0  0  0  0  0  0
   -6.3212    5.3505    0.0000 C   0  0  0  0  0  0  0  0  0  0  0  0
   -5.0221    6.1005    0.0000 C   0  0  0  0  0  0  0  0  0  0  0  0
   -3.7231    5.3505    0.0000 C   0  0  0  0  0  0  0  0  0  0  0  0
   -2.4240    6.1005    0.0000 C   0  0  0  0  0  0  0  0  0  0  0  0
   -1.1250    5.3505    0.0000 C   0  0  0  0  0  0  0  0  0  0  0  0
   -1.1250    3.8505    0.0000 O   0  0  0  0  0  0  0  0  0  0  0  0
    0.1740    6.1005    0.0000 O   0  0  0  0  0  0  0  0  0  0  0  0
    1.4731    5.3505    0.0000 Si  0  0  0  0  0  4  0  0  0  0  0  0
  5  1  1  0
  6  5  1  0
  7  6  1  0
  8  7  1  0
  9  8  1  0
  9 10  2  0
 11 10  1  0
 12 11  2  0
 13 11  1  0
 14  2  1  0
 14  3  1  0
 14  4  1  0
 14 13  1  0
M  END
>  <NAME>  (3245) 
2-OCTENOIC ACID TRIMETHYLSILYL ESTER

>  <SYNONYMS>  (3245) 


>  <SPECTRUM TYPE>  (3245) 
MS1

>  <INSTRUMENT TYPE>  (3245) 
EI-B

>  <INSTRUMENT>  (3245) 
JEOL JMS-01-SG

>  <ION MODE>  (3245) 
P

>  <INCHIKEY>  (3245) 
YYMCWFXIWNIWDG-MDZDMXLPSA-N

>  <FORMULA>  (3245) 
C11H22O2Si

>  <EXACT MASS>  (3245) 
214.138906474

>  <MW>  (3245) 
214

>  <ID>  (3245) 
JP007495

>  <CONTRIBUTOR>  (3245) 
University of Tokyo Team, {Faculty of Engineering, University of Tokyo

>  <COMMENT>  (3245) 
SMILES=CCCCCC=CC(=O)O[Si](C)(C)C
InChI=InChI=1S/C11H22O2Si/c1-5-6-7-8-9-10-11(12)13-14(2,3)4/h9-10H,5-8H2,1-4H3/b10-9+
computed SMILES=O=C(O[Si](C)(C)C)C=CCCCCC
accession=JP007495
date=2016.01.19 (Created 2008.10.21, modified 2011.05.06)
author=KOGA M, UNIV. OF OCCUPATIONAL AND ENVIRONMENTAL HEALTH
license=CC BY-NC-SA
exact mass=214.13891
ionization energy=70 eV
ion type=[M]+*
computed spectral entropy=2.5484211260632637
computed normalized entropy=0.6818208633522026
SPLASH=splash10-0002-5900000000-34e9685927a2b6dd99e8
submitter=submitter = University of Tokyo Team (Faculty of Engineering, University of Tokyo)
MoNA Rating=3.75

>  <NUM PEAKS>  (3245) 
42

>  <MASS SPECTRAL PEAKS>  (3245) 
41 1.2
43 2.4
45 2
47 0.45
53 4.5
54 1.2
55 19.2
56 0.12
58 1.2
59 6.5
61 4.5
67 0.12
68 6.9
73 20
74 2
75 6.14
76 4.5
77 3.6
81 1.6
82 0.16
85 1.2
87 1.2
95 3.6
96 0.12
98 1.6
99 6.5
117 3.2
125 0.36
129 27.4
130 2.8
131 1.6
142 0.28
143 34.4
144 1.2
145 1.6
155 0.9
156 1.2
157 2
199 99.99
200 1.68
201 4.5
214 0.8

$$$$

     RDKit          2D

 21 21  0  0  0  0  0  0  0  0999 V2000
  -11.6923   -0.7517    0.0000 C   0  0  0  0  0  0  0  0  0  0  0  0
    5.9472    0.2017    0.0000 C   0  0  0  0  0  0  0  0  0  0  0  0
    6.4959    2.2508    0.0000 C   0  0  0  0  0  0  0  0  0  0  0  0
    4.4468    2.7995    0.0000 C   0  0  0  0  0  0  0  0  0  0  0  0
  -10.3931   -1.5015    0.0000 C   0  0  0  0  0  0  0  0  0  0  0  0
   -9.0942   -0.7512    0.0000 C   0  0  0  0  0  0  0  0  0  0  0  0
   -7.7951   -1.5010    0.0000 C   0  0  0  0  0  0  0  0  0  0  0  0
   -6.4962   -0.7508    0.0000 C   0  0  0  0  0  0  0  0  0  0  0  0
   -5.1970   -1.5006    0.0000 C   0  0  0  0  0  0  0  0  0  0  0  0
   -3.8981   -0.7504    0.0000 C   0  0  0  0  0  0  0  0  0  0  0  0
   -2.5989   -1.5002    0.0000 C   0  0  0  0  0  0  0  0  0  0  0  0
   -1.3000    0.7500    0.0000 C   0  0  0  0  0  0  0  0  0  0  0  0
    0.0000   -1.5000    0.0000 C   0  0  0  0  0  0  0  0  0  0  0  0
    0.0000    1.5000    0.0000 C   0  0  0  0  0  0  0  0  0  0  0  0
    1.3000   -0.7500    0.0000 C   0  0  0  0  0  0  0  0  0  0  0  0
   -1.3000   -0.7500    0.0000 C   0  0  0  0  0  0  0  0  0  0  0  0
    1.3000    0.7500    0.0000 C   0  0  0  0  0  0  0  0  0  0  0  0
    2.5989    1.5002    0.0000 C   0  0  0  0  0  0  0  0  0  0  0  0
    2.5987    3.0002    0.0000 O   0  0  0  0  0  0  0  0  0  0  0  0
    3.8981    0.7504    0.0000 O   0  0  0  0  0  0  0  0  0  0  0  0
    5.1970    1.5006    0.0000 Si  0  0  0  0  0  4  0  0  0  0  0  0
  5  1  1  0
  6  5  1  0
  7  6  1  0
  8  7  1  0
  9  8  1  0
 10  9  1  0
 11 10  1  0
 14 12  2  0
 15 13  1  0
 16 11  1  0
 16 12  1  0
 16 13  2  0
 17 14  1  0
 17 15  2  0
 18 17  1  0
 19 18  2  0
 20 18  1  0
 21  2  1  0
 21  3  1  0
 21  4  1  0
 21 20  1  0
M  END
>  <NAME>  (3246) 
4-OCTYLBENZOIC ACID TRIMETHYLSILYL ESTER

>  <SYNONYMS>  (3246) 


>  <SPECTRUM TYPE>  (3246) 
MS1

>  <INSTRUMENT TYPE>  (3246) 
EI-B

>  <INSTRUMENT>  (3246) 
JEOL JMS-01-SG

>  <ION MODE>  (3246) 
P

>  <INCHIKEY>  (3246) 
HHEVFDHEVDTPGV-UHFFFAOYSA-N

>  <FORMULA>  (3246) 
C18H30O2Si

>  <EXACT MASS>  (3246) 
306.20150673

>  <MW>  (3246) 
306

>  <ID>  (3246) 
JP007494

>  <CONTRIBUTOR>  (3246) 
University of Tokyo Team, {Faculty of Engineering, University of Tokyo

>  <COMMENT>  (3246) 
SMILES=CCCCCCCCc(c1)ccc(c1)C(=O)O[Si](C)(C)C
InChI=InChI=1S/C18H30O2Si/c1-5-6-7-8-9-10-11-16-12-14-17(15-13-16)18(19)20-21(2,3)4/h12-15H,5-11H2,1-4H3
computed SMILES=O=C(O[Si](C)(C)C)C1=CC=C(C=C1)CCCCCCCC
accession=JP007494
date=2016.01.19 (Created 2008.10.21, modified 2011.05.06)
author=KOGA M, UNIV. OF OCCUPATIONAL AND ENVIRONMENTAL HEALTH
license=CC BY-NC-SA
exact mass=306.20151
ionization energy=70 eV
ion type=[M]+*
computed spectral entropy=2.339911701858745
computed normalized entropy=0.6751558016779333
SPLASH=splash10-0006-3090000000-2d19ef4994f800c73a99
submitter=submitter = University of Tokyo Team (Faculty of Engineering, University of Tokyo)
MoNA Rating=3.75

>  <NUM PEAKS>  (3246) 
32

>  <MASS SPECTRAL PEAKS>  (3246) 
41 1.3
43 5.9
44 2.6
55 0.39
57 1.3
73 11.9
75 5.9
77 0.59
89 1.9
90 7.9
91 16.5
103 0.26
104 1.9
105 1.9
115 1.3
118 0.72
131 1.3
148 1.9
192 2.6
193 0.92
205 2.6
207 2.6
217 19.8
218 0.26
247 9.9
248 1.9
262 1.3
291 99.99
292 23.1
293 4.6
306 6.6
307 0.6

$$$$

     RDKit          2D

 17 17  0  0  0  0  0  0  0  0999 V2000
   -7.2459    2.0500    0.0000 C   0  0  0  0  0  0  0  0  0  0  0  0
   -7.7953    0.0010    0.0000 C   0  0  0  0  0  0  0  0  0  0  0  0
   -5.7464   -0.5483    0.0000 C   0  0  0  0  0  0  0  0  0  0  0  0
   -1.3000   -0.7500    0.0000 C   0  0  0  0  0  0  0  0  0  0  0  0
    0.0000    1.5000    0.0000 C   0  0  0  0  0  0  0  0  0  0  0  0
    0.0000   -1.5000    0.0000 C   0  0  0  0  0  0  0  0  0  0  0  0
    1.3000    0.7500    0.0000 C   0  0  0  0  0  0  0  0  0  0  0  0
   -2.5989    1.5002    0.0000 C   0  0  0  0  0  0  0  0  0  0  0  0
   -1.3000    0.7500    0.0000 C   0  0  0  0  0  0  0  0  0  0  0  0
    1.3000   -0.7500    0.0000 C   0  0  0  0  0  0  0  0  0  0  0  0
   -3.8981    0.7504    0.0000 C   0  0  0  0  0  0  0  0  0  0  0  0
    2.5989   -1.5002    0.0000 N   0  0  0  0  0  0  0  0  0  0  0  0
   -3.8983   -0.7496    0.0000 O   0  0  0  0  0  0  0  0  0  0  0  0
    3.8981   -0.7504    0.0000 O   0  0  0  0  0  0  0  0  0  0  0  0
    2.5987   -3.0002    0.0000 O   0  0  0  0  0  0  0  0  0  0  0  0
   -5.1970    1.5006    0.0000 O   0  0  0  0  0  0  0  0  0  0  0  0
   -6.4962    0.7508    0.0000 Si  0  0  0  0  0  4  0  0  0  0  0  0
  6  4  2  0
  7  5  1  0
  9  4  1  0
  9  5  2  0
  9  8  1  0
 10  6  1  0
 10  7  2  0
 11  8  1  0
 12 10  1  0
 13 11  2  0
 14 12  1  0
 15 12  2  0
 16 11  1  0
 17  1  1  0
 17  2  1  0
 17  3  1  0
 17 16  1  0
M  CHG  2  12   1  14  -1
M  END
>  <NAME>  (3247) 
4-NITROPHENYLACETIC ACID TRIMETHYLSILYL ESTER

>  <SYNONYMS>  (3247) 


>  <SPECTRUM TYPE>  (3247) 
MS1

>  <INSTRUMENT TYPE>  (3247) 
EI-B

>  <INSTRUMENT>  (3247) 
JEOL JMS-01-SG

>  <ION MODE>  (3247) 
P

>  <INCHIKEY>  (3247) 
PWLZPIFYJDAYBA-UHFFFAOYSA-N

>  <FORMULA>  (3247) 
C11H15NO4Si

>  <EXACT MASS>  (3247) 
253.07703449

>  <MW>  (3247) 
253

>  <ID>  (3247) 
JP007493

>  <CONTRIBUTOR>  (3247) 
University of Tokyo Team, {Faculty of Engineering, University of Tokyo

>  <COMMENT>  (3247) 
SMILES=[O-1][N+1](=O)c(c1)ccc(c1)CC(=O)O[Si](C)(C)C
InChI=InChI=1S/C11H15NO4Si/c1-17(2,3)16-11(13)8-9-4-6-10(7-5-9)12(14)15/h4-7H,8H2,1-3H3
computed SMILES=O=C(O[Si](C)(C)C)CC1=CC=C(C=C1)N(=O)=O
accession=JP007493
date=2016.01.19 (Created 2008.10.21, modified 2011.05.06)
author=KOGA M, UNIV. OF OCCUPATIONAL AND ENVIRONMENTAL HEALTH
license=CC BY-NC-SA
exact mass=253.07703
ionization energy=70 eV
ion type=[M]+*
computed spectral entropy=2.01464477124625
computed normalized entropy=0.6258845885515765
SPLASH=splash10-00di-9010000000-42af64c4c816b4a25594
submitter=submitter = University of Tokyo Team (Faculty of Engineering, University of Tokyo)
MoNA Rating=3.75

>  <NUM PEAKS>  (3247) 
25

>  <MASS SPECTRAL PEAKS>  (3247) 
43 2.5
44 2.8
45 7.1
47 0.35
57 2.5
59 1
61 2.5
63 0.43
73 99.99
74 10.4
75 50.7
76 0.46
77 1.4
78 2.8
82 3.2
89 0.79
90 7.1
106 1.7
117 4.6
179 0.14
194 3.9
209 21.2
210 2.8
238 2.08
239 3.5

$$$$

     RDKit          2D

 17 17  0  0  0  0  0  0  0  0999 V2000
    0.4050    2.2928    0.0000 C   0  0  0  0  0  0  0  0  0  0  0  0
   -1.6408    1.7319    0.0000 C   0  0  0  0  0  0  0  0  0  0  0  0
   -1.0800   -0.3139    0.0000 C   0  0  0  0  0  0  0  0  0  0  0  0
    6.1298    3.2520    0.0000 C   0  0  0  0  0  0  0  0  0  0  0  0
    7.4127    2.5242    0.0000 C   0  0  0  0  0  0  0  0  0  0  0  0
    4.8527    2.4996    0.0000 C   0  0  0  0  0  0  0  0  0  0  0  0
    7.4489    1.0246    0.0000 C   0  0  0  0  0  0  0  0  0  0  0  0
    3.5639    0.2619    0.0000 C   0  0  0  0  0  0  0  0  0  0  0  0
    4.8586    1.0194    0.0000 C   0  0  0  0  0  0  0  0  0  0  0  0
    6.1415    0.2917    0.0000 C   0  0  0  0  0  0  0  0  0  0  0  0
    2.2605    1.0044    0.0000 C   0  0  0  0  0  0  0  0  0  0  0  0
    6.1377   -1.2083    0.0000 N   0  0  0  0  0  0  0  0  0  0  0  0
    2.2519    2.5044    0.0000 O   0  0  0  0  0  0  0  0  0  0  0  0
    7.4348   -1.9616    0.0000 O   0  0  0  0  0  0  0  0  0  0  0  0
    4.8368   -1.9550    0.0000 O   0  0  0  0  0  0  0  0  0  0  0  0
    0.9659    0.2469    0.0000 O   0  0  0  0  0  0  0  0  0  0  0  0
   -0.3375    0.9894    0.0000 Si  0  0  0  0  0  4  0  0  0  0  0  0
  5  4  2  0
  6  4  1  0
  7  5  1  0
  9  6  2  0
  9  8  1  0
 10  7  2  0
 10  9  1  0
 11  8  1  0
 12 10  1  0
 13 11  2  0
 14 12  1  0
 15 12  2  0
 16 11  1  0
 17  1  1  0
 17  2  1  0
 17  3  1  0
 17 16  1  0
M  CHG  2  12   1  14  -1
M  END
>  <NAME>  (3248) 
2-NITROPHENYLACETIC ACID TRIMETHYLSILYL ESTER

>  <SYNONYMS>  (3248) 


>  <SPECTRUM TYPE>  (3248) 
MS1

>  <INSTRUMENT TYPE>  (3248) 
EI-B

>  <INSTRUMENT>  (3248) 
JEOL JMS-01-SG

>  <ION MODE>  (3248) 
P

>  <INCHIKEY>  (3248) 
YNUKRVITZFGRCW-UHFFFAOYSA-N

>  <FORMULA>  (3248) 
C11H15NO4Si

>  <EXACT MASS>  (3248) 
253.07703449

>  <MW>  (3248) 
253

>  <ID>  (3248) 
JP007492

>  <CONTRIBUTOR>  (3248) 
University of Tokyo Team, {Faculty of Engineering, University of Tokyo

>  <COMMENT>  (3248) 
SMILES=[O-1][N+1](=O)c(c1)c(ccc1)CC(=O)O[Si](C)(C)C
InChI=InChI=1S/C11H15NO4Si/c1-17(2,3)16-11(13)8-9-6-4-5-7-10(9)12(14)15/h4-7H,8H2,1-3H3
computed SMILES=O=C(O[Si](C)(C)C)CC=1C=CC=CC1N(=O)=O
accession=JP007492
date=2016.01.19 (Created 2008.10.21, modified 2011.05.06)
author=KOGA M, UNIV. OF OCCUPATIONAL AND ENVIRONMENTAL HEALTH
license=CC BY-NC-SA
exact mass=253.07703
ionization energy=70 eV
ion type=[M]+*
computed spectral entropy=2.848963266277712
computed normalized entropy=0.7142077363612255
SPLASH=splash10-00fr-9200000000-4ec06e1b70d63d1a0a9b
submitter=submitter = University of Tokyo Team (Faculty of Engineering, University of Tokyo)
MoNA Rating=3.75

>  <NUM PEAKS>  (3248) 
54

>  <MASS SPECTRAL PEAKS>  (3248) 
43 6.9
44 3.7
45 12.9
47 1.02
50 1
51 6.9
58 1
59 0.21
61 6.4
62 1
63 7.5
64 0.53
65 6.9
72 1
73 99.99
74 1.39
75 93.5
76 8.6
77 6.4
78 0.69
82 6.4
88 1
89 8.6
90 0.53
91 10.7
92 22
93 3.2
104 0.37
105 2.6
117 3.2
118 2.1
119 1.61
120 25.2
121 3.2
133 2.6
134 0.16
135 2.1
136 2.1
148 3.7
149 0.69
150 3.7
151 2.1
164 2.6
165 0.26
176 12.3
177 1
179 3.7
207 0.21
209 3.2
220 2.6
235 2.6
238 3.97
239 5.9
240 1

$$$$

     RDKit          2D

 17 17  0  0  0  0  0  0  0  0999 V2000
   -5.7192    2.9264    0.0000 C   0  0  0  0  0  0  0  0  0  0  0  0
   -6.2648    0.8764    0.0000 C   0  0  0  0  0  0  0  0  0  0  0  0
   -4.2149    0.3308    0.0000 C   0  0  0  0  0  0  0  0  0  0  0  0
    1.5327   -0.6049    0.0000 C   0  0  0  0  0  0  0  0  0  0  0  0
    0.2336    0.1451    0.0000 C   0  0  0  0  0  0  0  0  0  0  0  0
    2.8272    0.1373    0.0000 C   0  0  0  0  0  0  0  0  0  0  0  0
    1.5286    2.3882    0.0000 C   0  0  0  0  0  0  0  0  0  0  0  0
   -1.0712    2.3851    0.0000 C   0  0  0  0  0  0  0  0  0  0  0  0
    0.2291    1.6373    0.0000 C   0  0  0  0  0  0  0  0  0  0  0  0
    2.8277    1.6382    0.0000 C   0  0  0  0  0  0  0  0  0  0  0  0
   -2.3690    1.6330    0.0000 C   0  0  0  0  0  0  0  0  0  0  0  0
    4.1268    2.3879    0.0000 N   0  0  0  0  0  0  0  0  0  0  0  0
   -2.3665    0.1330    0.0000 O   0  0  0  0  0  0  0  0  0  0  0  0
    5.4257    1.6377    0.0000 O   0  0  0  0  0  0  0  0  0  0  0  0
    4.1271    3.8879    0.0000 O   0  0  0  0  0  0  0  0  0  0  0  0
   -3.6693    2.3808    0.0000 O   0  0  0  0  0  0  0  0  0  0  0  0
   -4.9670    1.6286    0.0000 Si  0  0  0  0  0  4  0  0  0  0  0  0
  5  4  2  0
  6  4  1  0
  9  5  1  0
  9  7  2  0
  9  8  1  0
 10  6  2  0
 10  7  1  0
 11  8  1  0
 12 10  1  0
 13 11  2  0
 14 12  1  0
 15 12  2  0
 16 11  1  0
 17  1  1  0
 17  2  1  0
 17  3  1  0
 17 16  1  0
M  CHG  2  12   1  14  -1
M  END
>  <NAME>  (3249) 
3-NITROPHENYLACETIC ACID TRIMETHYLSILYL ESTER

>  <SYNONYMS>  (3249) 


>  <SPECTRUM TYPE>  (3249) 
MS1

>  <INSTRUMENT TYPE>  (3249) 
EI-B

>  <INSTRUMENT>  (3249) 
JEOL JMS-01-SG

>  <ION MODE>  (3249) 
P

>  <INCHIKEY>  (3249) 
XTPSTALVFAMKRF-UHFFFAOYSA-N

>  <FORMULA>  (3249) 
C11H15NO4Si

>  <EXACT MASS>  (3249) 
253.07703449

>  <MW>  (3249) 
253

>  <ID>  (3249) 
JP007491

>  <CONTRIBUTOR>  (3249) 
University of Tokyo Team, {Faculty of Engineering, University of Tokyo

>  <COMMENT>  (3249) 
SMILES=[O-1][N+1](=O)c(c1)cc(cc1)CC(=O)O[Si](C)(C)C
InChI=InChI=1S/C11H15NO4Si/c1-17(2,3)16-11(13)8-9-5-4-6-10(7-9)12(14)15/h4-7H,8H2,1-3H3
computed SMILES=O=C(O[Si](C)(C)C)CC=1C=CC=C(C1)N(=O)=O
accession=JP007491
date=2016.01.19 (Created 2008.10.21, modified 2011.05.06)
author=KOGA M, UNIV. OF OCCUPATIONAL AND ENVIRONMENTAL HEALTH
license=CC BY-NC-SA
exact mass=253.07703
ionization energy=70 eV
ion type=[M]+*
computed spectral entropy=2.129836157534937
computed normalized entropy=0.6202225083288454
SPLASH=splash10-00di-9020000000-5b8deeaf07449833549c
submitter=submitter = University of Tokyo Team (Faculty of Engineering, University of Tokyo)
MoNA Rating=3.75

>  <NUM PEAKS>  (3249) 
31

>  <MASS SPECTRAL PEAKS>  (3249) 
43 1.7
44 3.4
45 6.9
47 0.48
51 1.7
58 0.6
59 0.6
61 0.31
62 0.6
63 3.8
64 1
73 99.99
74 11.4
75 51.2
76 4.8
77 0.38
78 1.3
82 4.1
89 8.3
90 0.79
91 0.6
96 0.6
117 2.4
136 0.1
141 1.3
209 22.1
210 2.7
211 0.1
238 20.4
239 3.1
240 0.6

$$$$

     RDKit          2D

 28 28  0  0  0  0  0  0  0  0999 V2000
   -5.3837    1.9238    0.0000 C   0  0  0  0  0  0  0  0  0  0  0  0
   -5.9327   -0.1252    0.0000 C   0  0  0  0  0  0  0  0  0  0  0  0
   -3.8837   -0.6743    0.0000 C   0  0  0  0  0  0  0  0  0  0  0  0
   -2.7859   -2.5774    0.0000 C   0  0  0  0  0  0  0  0  0  0  0  0
   -3.3346   -4.6265    0.0000 C   0  0  0  0  0  0  0  0  0  0  0  0
   -1.2855   -5.1752    0.0000 C   0  0  0  0  0  0  0  0  0  0  0  0
    3.3624    2.8751    0.0000 C   0  0  0  0  0  0  0  0  0  0  0  0
    1.8626    4.3754    0.0000 C   0  0  0  0  0  0  0  0  0  0  0  0
    0.3624    2.8756    0.0000 C   0  0  0  0  0  0  0  0  0  0  0  0
    3.7096   -2.9243    0.0000 C   0  0  0  0  0  0  0  0  0  0  0  0
    5.7587   -2.3752    0.0000 C   0  0  0  0  0  0  0  0  0  0  0  0
    5.2096   -0.3262    0.0000 C   0  0  0  0  0  0  0  0  0  0  0  0
   -2.0361   -0.8761    0.0000 C   0  0  0  0  0  0  0  0  0  0  0  0
   -0.7361    1.3756    0.0000 C   0  0  0  0  0  0  0  0  0  0  0  0
   -2.0356    0.6248    0.0000 C   0  0  0  0  0  0  0  0  0  0  0  0
   -0.7370   -1.6261    0.0000 C   0  0  0  0  0  0  0  0  0  0  0  0
    0.5630    0.6256    0.0000 C   0  0  0  0  0  0  0  0  0  0  0  0
    0.5625   -0.8752    0.0000 C   0  0  0  0  0  0  0  0  0  0  0  0
    1.8615   -1.6252    0.0000 C   0  0  0  0  0  0  0  0  0  0  0  0
    1.8615   -3.1252    0.0000 O   0  0  0  0  0  0  0  0  0  0  0  0
   -3.3346    1.3748    0.0000 O   0  0  0  0  0  0  0  0  0  0  0  0
   -0.7368   -3.1261    0.0000 O   0  0  0  0  0  0  0  0  0  0  0  0
    1.8621    1.3754    0.0000 O   0  0  0  0  0  0  0  0  0  0  0  0
    3.1606   -0.8752    0.0000 O   0  0  0  0  0  0  0  0  0  0  0  0
   -4.6337    0.6248    0.0000 Si  0  0  0  0  0  4  0  0  0  0  0  0
   -2.0357   -3.8763    0.0000 Si  0  0  0  0  0  4  0  0  0  0  0  0
    1.8624    2.8754    0.0000 Si  0  0  0  0  0  4  0  0  0  0  0  0
    4.4596   -1.6252    0.0000 Si  0  0  0  0  0  4  0  0  0  0  0  0
 15 13  2  0
 15 14  1  0
 16 13  1  0
 17 14  2  0
 18 16  2  0
 18 17  1  0
 19 18  1  0
 20 19  2  0
 21 15  1  0
 22 16  1  0
 23 17  1  0
 24 19  1  0
 25  1  1  0
 25  2  1  0
 25  3  1  0
 25 21  1  0
 26  4  1  0
 26  5  1  0
 26  6  1  0
 26 22  1  0
 27  7  1  0
 27  8  1  0
 27  9  1  0
 27 23  1  0
 28 10  1  0
 28 11  1  0
 28 12  1  0
 28 24  1  0
M  END
>  <NAME>  (3250) 
2,4,6-TRIS(TRIMETHYLSILOXY)BENZOIC ACID TRIMETHYLSILYL ESTER

>  <SYNONYMS>  (3250) 


>  <SPECTRUM TYPE>  (3250) 
MS1

>  <INSTRUMENT TYPE>  (3250) 
EI-B

>  <INSTRUMENT>  (3250) 
JEOL JMS-01-SG

>  <ION MODE>  (3250) 
P

>  <INCHIKEY>  (3250) 
UEYBDMIEPBZEAR-UHFFFAOYSA-N

>  <FORMULA>  (3250) 
C19H38O5Si4

>  <EXACT MASS>  (3250) 
458.17963043599997

>  <MW>  (3250) 
458

>  <ID>  (3250) 
JP007490

>  <CONTRIBUTOR>  (3250) 
University of Tokyo Team, {Faculty of Engineering, University of Tokyo

>  <COMMENT>  (3250) 
SMILES=C[Si](C)(C)Oc(c1)cc(O[Si](C)(C)C)c(C(=O)O[Si](C)(C)C)c(O[Si](C)(C)C)1
InChI=InChI=1S/C19H38O5Si4/c1-25(2,3)21-15-13-16(22-26(4,5)6)18(19(20)24-28(10,11)12)17(14-15)23-27(7,8)9/h13-14H,1-12H3
computed SMILES=O=C(O[Si](C)(C)C)C=1C(O[Si](C)(C)C)=CC(O[Si](C)(C)C)=CC1O[Si](C)(C)C
accession=JP007490
date=2016.01.19 (Created 2008.10.21, modified 2011.05.06)
author=KOGA M, UNIV. OF OCCUPATIONAL AND ENVIRONMENTAL HEALTH
license=CC BY-NC-SA
exact mass=458.17963
ionization energy=70 eV
ion type=[M]+*
computed spectral entropy=2.324277876841589
computed normalized entropy=0.648602091061631
SPLASH=splash10-006x-5101900000-68b182ca5cc4e7f45d2c
submitter=submitter = University of Tokyo Team (Faculty of Engineering, University of Tokyo)
MoNA Rating=3.75

>  <NUM PEAKS>  (3250) 
36

>  <MASS SPECTRAL PEAKS>  (3250) 
44 5.8
73 99.99
74 7.3
75 0.77
131 1.9
133 3.8
147 19.7
148 0.23
149 3.1
191 1.1
193 1.5
195 0.11
207 4.2
265 1.9
281 1.5
283 0.34
296 1.1
297 1.9
325 3.1
337 0.15
339 1.9
353 4.2
355 12.4
356 0.31
357 1.5
369 8.5
370 2.3
371 0.23
441 1.1
443 68.9
444 81
445 4.18
446 10.4
447 3.1
458 6.2
459 2.3

$$$$

     RDKit          2D

 28 28  0  0  0  0  0  0  0  0999 V2000
   -4.6479   -1.7496    0.0000 C   0  0  0  0  0  0  0  0  0  0  0  0
   -5.1972    0.2994    0.0000 C   0  0  0  0  0  0  0  0  0  0  0  0
   -3.1483    0.8487    0.0000 C   0  0  0  0  0  0  0  0  0  0  0  0
    4.6479   -1.7496    0.0000 C   0  0  0  0  0  0  0  0  0  0  0  0
    5.1972    0.2994    0.0000 C   0  0  0  0  0  0  0  0  0  0  0  0
    3.1483    0.8487    0.0000 C   0  0  0  0  0  0  0  0  0  0  0  0
   -2.0490   -2.1510    0.0000 C   0  0  0  0  0  0  0  0  0  0  0  0
   -2.5981   -4.2000    0.0000 C   0  0  0  0  0  0  0  0  0  0  0  0
   -0.5490   -4.7490    0.0000 C   0  0  0  0  0  0  0  0  0  0  0  0
    0.2010    5.5500    0.0000 C   0  0  0  0  0  0  0  0  0  0  0  0
   -1.2990    7.0500    0.0000 C   0  0  0  0  0  0  0  0  0  0  0  0
   -2.7990    5.5500    0.0000 C   0  0  0  0  0  0  0  0  0  0  0  0
   -1.3000    1.0500    0.0000 C   0  0  0  0  0  0  0  0  0  0  0  0
    1.3000    1.0500    0.0000 C   0  0  0  0  0  0  0  0  0  0  0  0
    0.0000    1.8000    0.0000 C   0  0  0  0  0  0  0  0  0  0  0  0
   -1.3000   -0.4500    0.0000 C   0  0  0  0  0  0  0  0  0  0  0  0
    1.3000   -0.4500    0.0000 C   0  0  0  0  0  0  0  0  0  0  0  0
    0.0000   -1.2000    0.0000 C   0  0  0  0  0  0  0  0  0  0  0  0
    0.0000    3.3000    0.0000 C   0  0  0  0  0  0  0  0  0  0  0  0
    1.2990    4.0500    0.0000 O   0  0  0  0  0  0  0  0  0  0  0  0
   -2.5989   -1.2002    0.0000 O   0  0  0  0  0  0  0  0  0  0  0  0
    2.5989   -1.2002    0.0000 O   0  0  0  0  0  0  0  0  0  0  0  0
   -0.0000   -2.7000    0.0000 O   0  0  0  0  0  0  0  0  0  0  0  0
   -1.2990    4.0500    0.0000 O   0  0  0  0  0  0  0  0  0  0  0  0
   -3.8981   -0.4504    0.0000 Si  0  0  0  0  0  4  0  0  0  0  0  0
    3.8981   -0.4504    0.0000 Si  0  0  0  0  0  4  0  0  0  0  0  0
   -1.2990   -3.4500    0.0000 Si  0  0  0  0  0  4  0  0  0  0  0  0
   -1.2990    5.5500    0.0000 Si  0  0  0  0  0  4  0  0  0  0  0  0
 15 13  2  0
 15 14  1  0
 16 13  1  0
 17 14  2  0
 18 16  2  0
 18 17  1  0
 19 15  1  0
 20 19  2  0
 21 16  1  0
 22 17  1  0
 23 18  1  0
 24 19  1  0
 25  1  1  0
 25  2  1  0
 25  3  1  0
 25 21  1  0
 26  4  1  0
 26  5  1  0
 26  6  1  0
 26 22  1  0
 27  7  1  0
 27  8  1  0
 27  9  1  0
 27 23  1  0
 28 10  1  0
 28 11  1  0
 28 12  1  0
 28 24  1  0
M  END
>  <NAME>  (3251) 
3,4,5-TRIS(TRIMETHYLSILOXY)BENZOIC ACIDTRIMETHYLSILYL ESTER

>  <SYNONYMS>  (3251) 


>  <SPECTRUM TYPE>  (3251) 
MS1

>  <INSTRUMENT TYPE>  (3251) 
EI-B

>  <INSTRUMENT>  (3251) 
JEOL JMS-01-SG

>  <ION MODE>  (3251) 
P

>  <INCHIKEY>  (3251) 
KCIFUQKNKZTHGI-UHFFFAOYSA-N

>  <FORMULA>  (3251) 
C19H38O5Si4

>  <EXACT MASS>  (3251) 
458.17963043599997

>  <MW>  (3251) 
458

>  <ID>  (3251) 
JP007489

>  <CONTRIBUTOR>  (3251) 
University of Tokyo Team, {Faculty of Engineering, University of Tokyo

>  <COMMENT>  (3251) 
SMILES=C[Si](C)(C)OC(=O)c(c1)cc(O[Si](C)(C)C)c(O[Si](C)(C)C)c(O[Si](C)(C)C)1
InChI=InChI=1S/C19H38O5Si4/c1-25(2,3)21-16-13-15(19(20)24-28(10,11)12)14-17(22-26(4,5)6)18(16)23-27(7,8)9/h13-14H,1-12H3
computed SMILES=O=C(O[Si](C)(C)C)C1=CC(O[Si](C)(C)C)=C(O[Si](C)(C)C)C(O[Si](C)(C)C)=C1
accession=JP007489
date=2016.01.19 (Created 2008.10.21, modified 2011.05.06)
author=KOGA M, UNIV. OF OCCUPATIONAL AND ENVIRONMENTAL HEALTH
license=CC BY-NC-SA
exact mass=458.17963
ionization energy=70 eV
ion type=[M]+*
computed spectral entropy=2.224241847400877
computed normalized entropy=0.6417805365965904
SPLASH=splash10-00o0-0190000000-d5956b11cf99946b0687
submitter=submitter = University of Tokyo Team (Faculty of Engineering, University of Tokyo)
MoNA Rating=3.75

>  <NUM PEAKS>  (3251) 
32

>  <MASS SPECTRAL PEAKS>  (3251) 
44 2.2
53 2.2
66 2.2
73 3.18
75 9
76 1.1
77 5.6
81 0.34
89 2.2
96 1.1
109 3.4
119 0.22
122 2.2
134 7.9
137 5.6
151 0.45
152 4.5
167 1.1
179 1.1
195 6.02
196 5.6
213 2.2
225 67
226 1.02
227 2.2
239 1.1
269 84
270 1.25
271 3.4
284 99.99
285 17
286 4.5

$$$$

     RDKit          2D

 28 28  0  0  0  0  0  0  0  0999 V2000
    3.4225   -0.9927    0.0000 C   0  0  0  0  0  0  0  0  0  0  0  0
    5.4697   -0.4365    0.0000 C   0  0  0  0  0  0  0  0  0  0  0  0
    4.9136    1.6106    0.0000 C   0  0  0  0  0  0  0  0  0  0  0  0
   -0.8424    2.5503    0.0000 C   0  0  0  0  0  0  0  0  0  0  0  0
   -2.3447    4.0480    0.0000 C   0  0  0  0  0  0  0  0  0  0  0  0
   -3.8424    2.5458    0.0000 C   0  0  0  0  0  0  0  0  0  0  0  0
    2.2943    2.0111    0.0000 C   0  0  0  0  0  0  0  0  0  0  0  0
    2.8331    4.0629    0.0000 C   0  0  0  0  0  0  0  0  0  0  0  0
    0.7814    4.6017    0.0000 C   0  0  0  0  0  0  0  0  0  0  0  0
   -4.3955   -2.8962    0.0000 C   0  0  0  0  0  0  0  0  0  0  0  0
   -4.9536   -4.9428    0.0000 C   0  0  0  0  0  0  0  0  0  0  0  0
   -2.9070   -5.5009    0.0000 C   0  0  0  0  0  0  0  0  0  0  0  0
    0.2500   -1.9700    0.0000 C   0  0  0  0  0  0  0  0  0  0  0  0
    1.5700   -1.2100    0.0000 C   0  0  0  0  0  0  0  0  0  0  0  0
   -1.0400   -1.2100    0.0000 C   0  0  0  0  0  0  0  0  0  0  0  0
    1.5700    0.3000    0.0000 C   0  0  0  0  0  0  0  0  0  0  0  0
   -1.0400    0.3000    0.0000 C   0  0  0  0  0  0  0  0  0  0  0  0
    0.2500    1.0500    0.0000 C   0  0  0  0  0  0  0  0  0  0  0  0
   -2.3423   -1.9543    0.0000 C   0  0  0  0  0  0  0  0  0  0  0  0
   -3.6381   -1.1986    0.0000 O   0  0  0  0  0  0  0  0  0  0  0  0
    2.8664    1.0545    0.0000 O   0  0  0  0  0  0  0  0  0  0  0  0
   -2.3402    1.0480    0.0000 O   0  0  0  0  0  0  0  0  0  0  0  0
    0.2426    2.5500    0.0000 O   0  0  0  0  0  0  0  0  0  0  0  0
   -2.3489   -3.4543    0.0000 O   0  0  0  0  0  0  0  0  0  0  0  0
    4.1681    0.3090    0.0000 Si  0  0  0  0  0  4  0  0  0  0  0  0
   -2.3424    2.5480    0.0000 Si  0  0  0  0  0  4  0  0  0  0  0  0
    1.5378    3.3064    0.0000 Si  0  0  0  0  0  4  0  0  0  0  0  0
   -3.6513   -4.1985    0.0000 Si  0  0  0  0  0  4  0  0  0  0  0  0
 14 13  2  0
 15 13  1  0
 16 14  1  0
 17 15  2  0
 18 16  2  0
 18 17  1  0
 19 15  1  0
 20 19  2  0
 21 16  1  0
 22 17  1  0
 23 18  1  0
 24 19  1  0
 25  1  1  0
 25  2  1  0
 25  3  1  0
 25 21  1  0
 26  4  1  0
 26  5  1  0
 26  6  1  0
 26 22  1  0
 27  7  1  0
 27  8  1  0
 27  9  1  0
 27 23  1  0
 28 10  1  0
 28 11  1  0
 28 12  1  0
 28 24  1  0
M  END
>  <NAME>  (3252) 
2,3,4-TRIS(TRIMETHYLSILOXY)BENZOIC ACID TRIMETHYLSILYL ESTER

>  <SYNONYMS>  (3252) 


>  <SPECTRUM TYPE>  (3252) 
MS1

>  <INSTRUMENT TYPE>  (3252) 
EI-B

>  <INSTRUMENT>  (3252) 
JEOL JMS-01-SG

>  <ION MODE>  (3252) 
P

>  <INCHIKEY>  (3252) 
GWWLYEXBIBGVGY-UHFFFAOYSA-N

>  <FORMULA>  (3252) 
C19H38O5Si4

>  <EXACT MASS>  (3252) 
458.17963043599997

>  <MW>  (3252) 
458

>  <ID>  (3252) 
JP007488

>  <CONTRIBUTOR>  (3252) 
University of Tokyo Team, {Faculty of Engineering, University of Tokyo

>  <COMMENT>  (3252) 
SMILES=C[Si](C)(C)OC(=O)c(c1)c(O[Si](C)(C)C)c(O[Si](C)(C)C)c(O[Si](C)(C)C)c1
InChI=InChI=1S/C19H38O5Si4/c1-25(2,3)21-16-14-13-15(19(20)24-28(10,11)12)17(22-26(4,5)6)18(16)23-27(7,8)9/h13-14H,1-12H3
computed SMILES=O=C(O[Si](C)(C)C)C1=CC=C(O[Si](C)(C)C)C(O[Si](C)(C)C)=C1O[Si](C)(C)C
accession=JP007488
date=2016.01.19 (Created 2008.10.21, modified 2011.05.06)
author=KOGA M, UNIV. OF OCCUPATIONAL AND ENVIRONMENTAL HEALTH
license=CC BY-NC-SA
exact mass=458.17963
ionization energy=70 eV
ion type=[M]+*
computed spectral entropy=1.8695690723773613
computed normalized entropy=0.580814288620131
SPLASH=splash10-006x-5000900000-d86eda234b43061eb5e8
submitter=submitter = University of Tokyo Team (Faculty of Engineering, University of Tokyo)
MoNA Rating=3.75

>  <NUM PEAKS>  (3252) 
25

>  <MASS SPECTRAL PEAKS>  (3252) 
44 3.7
73 66.2
74 5.2
75 0.42
77 2.3
133 3.1
147 8
149 0.12
179 1
193 1.2
207 1.6
281 2.15
282 5.4
283 1.8
295 1
353 0.12
355 3.1
356 1
443 99.99
444 4
445 22.9
446 5.4
447 1.4
458 0.14
459 0.6

$$$$

     RDKit          2D

 15 15  0  0  0  0  0  0  0  0999 V2000
    8.1753   -0.0079    0.0000 C   0  0  0  0  0  0  0  0  0  0  0  0
    8.7240    2.0412    0.0000 C   0  0  0  0  0  0  0  0  0  0  0  0
    6.6749    2.5900    0.0000 C   0  0  0  0  0  0  0  0  0  0  0  0
   -1.6700   -0.9600    0.0000 C   0  0  0  0  0  0  0  0  0  0  0  0
   -0.3700   -1.7100    0.0000 C   0  0  0  0  0  0  0  0  0  0  0  0
   -1.6700    0.5400    0.0000 C   0  0  0  0  0  0  0  0  0  0  0  0
    0.9300   -0.9600    0.0000 C   0  0  0  0  0  0  0  0  0  0  0  0
   -0.3700    1.2900    0.0000 C   0  0  0  0  0  0  0  0  0  0  0  0
    3.5281    0.5404    0.0000 C   0  0  0  0  0  0  0  0  0  0  0  0
    0.9300    0.5400    0.0000 C   0  0  0  0  0  0  0  0  0  0  0  0
    4.8270    1.2906    0.0000 C   0  0  0  0  0  0  0  0  0  0  0  0
    4.8268    2.7906    0.0000 O   0  0  0  0  0  0  0  0  0  0  0  0
    6.1262    0.5408    0.0000 O   0  0  0  0  0  0  0  0  0  0  0  0
    2.2289    1.2902    0.0000 S   0  0  0  0  0  0  0  0  0  0  0  0
    7.4251    1.2910    0.0000 Si  0  0  0  0  0  4  0  0  0  0  0  0
  5  4  2  0
  6  4  1  0
  7  5  1  0
  8  6  2  0
 10  7  2  0
 10  8  1  0
 11  9  1  0
 12 11  2  0
 13 11  1  0
 14  9  1  0
 14 10  1  0
 15  1  1  0
 15  2  1  0
 15  3  1  0
 15 13  1  0
M  END
>  <NAME>  (3253) 
PHENYLTHIOACETIC ACID TRIMETHYLSILYL ESTER

>  <SYNONYMS>  (3253) 


>  <SPECTRUM TYPE>  (3253) 
MS1

>  <INSTRUMENT TYPE>  (3253) 
EI-B

>  <INSTRUMENT>  (3253) 
JEOL JMS-01-SG

>  <ION MODE>  (3253) 
P

>  <INCHIKEY>  (3253) 
XVQPISUQLXNRHH-UHFFFAOYSA-N

>  <FORMULA>  (3253) 
C11H16O2SSi

>  <EXACT MASS>  (3253) 
240.06402728199998

>  <MW>  (3253) 
240

>  <ID>  (3253) 
JP007485

>  <CONTRIBUTOR>  (3253) 
University of Tokyo Team, {Faculty of Engineering, University of Tokyo

>  <COMMENT>  (3253) 
SMILES=O=C(CSc(c1)cccc1)O[Si](C)(C)C
InChI=InChI=1S/C11H16O2SSi/c1-15(2,3)13-11(12)9-14-10-7-5-4-6-8-10/h4-8H,9H2,1-3H3
computed SMILES=O=C(O[Si](C)(C)C)CSC=1C=CC=CC1
accession=JP007485
date=2016.01.19 (Created 2008.10.21, modified 2011.05.06)
author=KOGA M, UNIV. OF OCCUPATIONAL AND ENVIRONMENTAL HEALTH
license=CC BY-NC-SA
exact mass=240.06403
ionization energy=70 eV
ion type=[M]+*
computed spectral entropy=2.5199668037239444
computed normalized entropy=0.6878461582286058
SPLASH=splash10-00di-9330000000-d7fc1c799cc051319717
submitter=submitter = University of Tokyo Team (Faculty of Engineering, University of Tokyo)
MoNA Rating=3.75

>  <NUM PEAKS>  (3253) 
39

>  <MASS SPECTRAL PEAKS>  (3253) 
43 2.1
44 1
45 12.5
47 0.4
51 4.5
61 2.1
65 5
69 0.13
72 3.2
73 99.99
74 10.4
75 2.54
76 2.1
77 5.8
79 1.3
91 0.42
105 2.4
109 7.4
110 1.3
113 0.21
117 2.4
121 1.6
123 3.4
135 0.18
151 1.6
165 3.7
167 1.6
169 0.42
181 21.1
182 2.9
183 1.6
196 1.12
197 1.8
225 17.9
226 2.6
227 0.13
240 36
241 6.1
242 3.2

$$$$

     RDKit          2D

 18 18  0  0  0  0  0  0  0  0999 V2000
   -0.1353    4.6903    0.0000 C   0  0  0  0  0  0  0  0  0  0  0  0
   -1.6378    6.1878    0.0000 C   0  0  0  0  0  0  0  0  0  0  0  0
   -3.1353    4.6853    0.0000 C   0  0  0  0  0  0  0  0  0  0  0  0
    2.8183   -1.1087    0.0000 C   0  0  0  0  0  0  0  0  0  0  0  0
    4.8672   -0.5594    0.0000 C   0  0  0  0  0  0  0  0  0  0  0  0
    4.3179    1.4896    0.0000 C   0  0  0  0  0  0  0  0  0  0  0  0
   -1.6200   -1.3100    0.0000 C   0  0  0  0  0  0  0  0  0  0  0  0
   -0.3300   -2.0600    0.0000 C   0  0  0  0  0  0  0  0  0  0  0  0
   -1.6200    0.1900    0.0000 C   0  0  0  0  0  0  0  0  0  0  0  0
    0.9700   -1.3100    0.0000 C   0  0  0  0  0  0  0  0  0  0  0  0
   -0.3300    0.9400    0.0000 C   0  0  0  0  0  0  0  0  0  0  0  0
    0.9700    0.1900    0.0000 C   0  0  0  0  0  0  0  0  0  0  0  0
   -0.3325    2.4400    0.0000 C   0  0  0  0  0  0  0  0  0  0  0  0
    0.9653    3.1922    0.0000 O   0  0  0  0  0  0  0  0  0  0  0  0
   -1.6328    3.1878    0.0000 O   0  0  0  0  0  0  0  0  0  0  0  0
    2.2689    0.9402    0.0000 S   0  0  0  0  0  0  0  0  0  0  0  0
   -1.6353    4.6878    0.0000 Si  0  0  0  0  0  4  0  0  0  0  0  0
    3.5681    0.1904    0.0000 Si  0  0  0  0  0  4  0  0  0  0  0  0
  8  7  2  0
  9  7  1  0
 10  8  1  0
 11  9  2  0
 12 10  2  0
 12 11  1  0
 13 11  1  0
 14 13  2  0
 15 13  1  0
 16 12  1  0
 17  1  1  0
 17  2  1  0
 17  3  1  0
 17 15  1  0
 18  4  1  0
 18  5  1  0
 18  6  1  0
 18 16  1  0
M  END
>  <NAME>  (3254) 
2-TRIMETHYLSILYLTHIOBENZOIC ACID TRIMETHYLSILYL ESTER

>  <SYNONYMS>  (3254) 


>  <SPECTRUM TYPE>  (3254) 
MS1

>  <INSTRUMENT TYPE>  (3254) 
EI-B

>  <INSTRUMENT>  (3254) 
JEOL JMS-01-SG

>  <ION MODE>  (3254) 
P

>  <INCHIKEY>  (3254) 
BYCZOPBRJLQLGV-UHFFFAOYSA-N

>  <FORMULA>  (3254) 
C13H22O2SSi2

>  <EXACT MASS>  (3254) 
298.08790400400005

>  <MW>  (3254) 
298

>  <ID>  (3254) 
JP007484

>  <CONTRIBUTOR>  (3254) 
University of Tokyo Team, {Faculty of Engineering, University of Tokyo

>  <COMMENT>  (3254) 
SMILES=C[Si](C)(C)OC(=O)c(c1)c(ccc1)S[Si](C)(C)C
InChI=InChI=1S/C13H22O2SSi2/c1-17(2,3)15-13(14)11-9-7-8-10-12(11)16-18(4,5)6/h7-10H,1-6H3
computed SMILES=O=C(O[Si](C)(C)C)C=1C=CC=CC1S[Si](C)(C)C
accession=JP007484
date=2016.01.19 (Created 2008.10.21, modified 2011.05.06)
author=KOGA M, UNIV. OF OCCUPATIONAL AND ENVIRONMENTAL HEALTH
license=CC BY-NC-SA
exact mass=298.0879
ionization energy=70 eV
ion type=[M]+*
computed spectral entropy=1.9681298004807841
computed normalized entropy=0.6464494319682124
SPLASH=splash10-000t-5960000000-2a8ae2e73b1408c73129
submitter=submitter = University of Tokyo Team (Faculty of Engineering, University of Tokyo)
MoNA Rating=3.75

>  <NUM PEAKS>  (3254) 
21

>  <MASS SPECTRAL PEAKS>  (3254) 
43 3.1
44 2.7
45 12.1
59 0.1
69 1.3
73 47
74 4.5
91 0.31
93 2.4
105 1
131 1
133 0.1
147 99.99
148 15.6
149 9.7
151 0.52
283 63.7
284 16
285 9
286 0.1
298 1

$$$$

     RDKit          2D

 18 18  0  0  0  0  0  0  0  0999 V2000
   -4.8209    4.9482    0.0000 C   0  0  0  0  0  0  0  0  0  0  0  0
   -6.8700    4.3992    0.0000 C   0  0  0  0  0  0  0  0  0  0  0  0
   -6.3209    2.3501    0.0000 C   0  0  0  0  0  0  0  0  0  0  0  0
    3.5228    2.9000    0.0000 C   0  0  0  0  0  0  0  0  0  0  0  0
    0.9238    1.3983    0.0000 C   0  0  0  0  0  0  0  0  0  0  0  0
   -1.6738    2.8992    0.0000 C   0  0  0  0  0  0  0  0  0  0  0  0
    3.5223    1.3992    0.0000 C   0  0  0  0  0  0  0  0  0  0  0  0
    2.2228    0.6483    0.0000 C   0  0  0  0  0  0  0  0  0  0  0  0
    2.2238    3.6500    0.0000 C   0  0  0  0  0  0  0  0  0  0  0  0
    0.9242    2.8992    0.0000 C   0  0  0  0  0  0  0  0  0  0  0  0
   -2.9729    3.6492    0.0000 C   0  0  0  0  0  0  0  0  0  0  0  0
    4.8214    0.6492    0.0000 Cl  0  0  0  0  0  0  0  0  0  0  0  0
    2.2230   -0.8517    0.0000 Cl  0  0  0  0  0  0  0  0  0  0  0  0
    2.2235    5.1500    0.0000 Cl  0  0  0  0  0  0  0  0  0  0  0  0
   -2.9729    5.1492    0.0000 O   0  0  0  0  0  0  0  0  0  0  0  0
   -0.3748    3.6492    0.0000 O   0  0  0  0  0  0  0  0  0  0  0  0
   -4.2719    2.8992    0.0000 O   0  0  0  0  0  0  0  0  0  0  0  0
   -5.5709    3.6492    0.0000 Si  0  0  0  0  0  4  0  0  0  0  0  0
  7  4  2  0
  8  5  2  0
  8  7  1  0
  9  4  1  0
 10  5  1  0
 10  9  2  0
 11  6  1  0
 12  7  1  0
 13  8  1  0
 14  9  1  0
 15 11  2  0
 16  6  1  0
 16 10  1  0
 17 11  1  0
 18  1  1  0
 18  2  1  0
 18  3  1  0
 18 17  1  0
M  END
>  <NAME>  (3255) 
2,4,5-TRICHLOROPHENOXYACETIC ACID TRIMETHYLSILYL ESTER

>  <SYNONYMS>  (3255) 


>  <SPECTRUM TYPE>  (3255) 
MS1

>  <INSTRUMENT TYPE>  (3255) 
EI-B

>  <INSTRUMENT>  (3255) 
JEOL JMS-01-SG

>  <ION MODE>  (3255) 
P

>  <INCHIKEY>  (3255) 
DXJQCDVGISANSY-UHFFFAOYSA-N

>  <FORMULA>  (3255) 
C11H13Cl3O3Si

>  <EXACT MASS>  (3255) 
325.96995384599995

>  <MW>  (3255) 
326

>  <ID>  (3255) 
JP007482

>  <CONTRIBUTOR>  (3255) 
University of Tokyo Team, {Faculty of Engineering, University of Tokyo

>  <COMMENT>  (3255) 
SMILES=O=C(COc(c1)c(Cl)cc(Cl)c(Cl)1)O[Si](C)(C)C
InChI=InChI=1S/C11H13Cl3O3Si/c1-18(2,3)17-11(15)6-16-10-5-8(13)7(12)4-9(10)14/h4-5H,6H2,1-3H3
computed SMILES=O=C(O[Si](C)(C)C)COC1=CC(Cl)=C(Cl)C=C1Cl
accession=JP007482
date=2016.01.19 (Created 2008.10.21, modified 2011.05.06)
author=KOGA M, UNIV. OF OCCUPATIONAL AND ENVIRONMENTAL HEALTH
license=CC BY-NC-SA
exact mass=325.96995
ionization energy=70 eV
ion type=[M]+*
computed spectral entropy=2.2115388209216973
computed normalized entropy=0.5844154323291153
SPLASH=splash10-00di-9010000000-465562f33d8394355c3f
submitter=submitter = University of Tokyo Team (Faculty of Engineering, University of Tokyo)
MoNA Rating=3.75

>  <NUM PEAKS>  (3255) 
44

>  <MASS SPECTRAL PEAKS>  (3255) 
43 1.8
44 1.4
45 4.6
47 0.21
58 0.7
59 0.7
61 0.7
72 0.21
73 99.99
74 10.1
75 16.9
76 0.1
93 9
95 4.3
97 0.7
101 0.07
109 0.7
116 0.7
117 2.5
145 0.07
179 0.7
181 1.4
193 1
195 0.1
232 1
237 1.4
239 1.4
247 0.1
249 0.7
253 1.4
255 1.4
267 0.61
268 0.7
269 5.4
271 1.4
283 0.14
285 1.4
291 4.3
293 2.8
296 0.07
326 6.4
327 0.7
328 6.4
330 1.8

$$$$

     RDKit          2D

 23 23  0  0  0  0  0  0  0  0999 V2000
   -4.6479    2.0496    0.0000 C   0  0  0  0  0  0  0  0  0  0  0  0
   -5.1972    0.0006    0.0000 C   0  0  0  0  0  0  0  0  0  0  0  0
   -3.1483   -0.5487    0.0000 C   0  0  0  0  0  0  0  0  0  0  0  0
    5.9472    0.2017    0.0000 C   0  0  0  0  0  0  0  0  0  0  0  0
    6.4959    2.2508    0.0000 C   0  0  0  0  0  0  0  0  0  0  0  0
    4.4468    2.7995    0.0000 C   0  0  0  0  0  0  0  0  0  0  0  0
   -2.0490   -2.4510    0.0000 C   0  0  0  0  0  0  0  0  0  0  0  0
   -2.5981   -4.5000    0.0000 C   0  0  0  0  0  0  0  0  0  0  0  0
   -0.5490   -5.0490    0.0000 C   0  0  0  0  0  0  0  0  0  0  0  0
    0.0000    1.5000    0.0000 C   0  0  0  0  0  0  0  0  0  0  0  0
    1.3000    0.7500    0.0000 C   0  0  0  0  0  0  0  0  0  0  0  0
   -1.3000    0.7500    0.0000 C   0  0  0  0  0  0  0  0  0  0  0  0
    2.5989    1.5002    0.0000 C   0  0  0  0  0  0  0  0  0  0  0  0
    0.0000   -1.5000    0.0000 C   0  0  0  0  0  0  0  0  0  0  0  0
    1.3000   -0.7500    0.0000 N   0  0  0  0  0  0  0  0  0  0  0  0
   -1.3000   -0.7500    0.0000 N   0  0  0  0  0  0  0  0  0  0  0  0
    2.5987    3.0002    0.0000 O   0  0  0  0  0  0  0  0  0  0  0  0
   -2.5989    1.5002    0.0000 O   0  0  0  0  0  0  0  0  0  0  0  0
    3.8981    0.7504    0.0000 O   0  0  0  0  0  0  0  0  0  0  0  0
   -0.0000   -3.0000    0.0000 O   0  0  0  0  0  0  0  0  0  0  0  0
   -3.8981    0.7504    0.0000 Si  0  0  0  0  0  4  0  0  0  0  0  0
    5.1970    1.5006    0.0000 Si  0  0  0  0  0  4  0  0  0  0  0  0
   -1.2990   -3.7500    0.0000 Si  0  0  0  0  0  4  0  0  0  0  0  0
 11 10  2  0
 12 10  1  0
 13 11  1  0
 15 11  1  0
 15 14  2  0
 16 12  2  0
 16 14  1  0
 17 13  2  0
 18 12  1  0
 19 13  1  0
 20 14  1  0
 21  1  1  0
 21  2  1  0
 21  3  1  0
 21 18  1  0
 22  4  1  0
 22  5  1  0
 22  6  1  0
 22 19  1  0
 23  7  1  0
 23  8  1  0
 23  9  1  0
 23 20  1  0
M  END
>  <NAME>  (3256) 
2,6-BIS(TRIMETHYLSILOXY)PYRIMIDINE-4-CARBOXYLIC ACID TRIMETHYLSILYL ESTER

>  <SYNONYMS>  (3256) 


>  <SPECTRUM TYPE>  (3256) 
MS1

>  <INSTRUMENT TYPE>  (3256) 
EI-B

>  <INSTRUMENT>  (3256) 
JEOL JMS-01-SG

>  <ION MODE>  (3256) 
P

>  <INCHIKEY>  (3256) 
QOXWEKWDMOZSFV-UHFFFAOYSA-N

>  <FORMULA>  (3256) 
C14H28N2O4Si3

>  <EXACT MASS>  (3256) 
372.135686966

>  <MW>  (3256) 
372

>  <ID>  (3256) 
JP007481

>  <CONTRIBUTOR>  (3256) 
University of Tokyo Team, {Faculty of Engineering, University of Tokyo

>  <COMMENT>  (3256) 
SMILES=C[Si](C)(C)OC(=O)c(c1)nc(O[Si](C)(C)C)nc(O[Si](C)(C)C)1
InChI=InChI=1S/C14H28N2O4Si3/c1-21(2,3)18-12-10-11(13(17)19-22(4,5)6)15-14(16-12)20-23(7,8)9/h10H,1-9H3
computed SMILES=O=C(O[Si](C)(C)C)C=1N=C(N=C(O[Si](C)(C)C)C1)O[Si](C)(C)C
accession=JP007481
date=2016.01.19 (Created 2008.10.21, modified 2011.05.06)
author=KOGA M, UNIV. OF OCCUPATIONAL AND ENVIRONMENTAL HEALTH
license=CC BY-NC-SA
exact mass=372.13569
ionization energy=70 eV
ion type=[M]+*
computed spectral entropy=2.3869583957399843
computed normalized entropy=0.6950982206987746
SPLASH=splash10-0zmi-7396000000-f6d00bbaad53e7ee2bd5
submitter=submitter = University of Tokyo Team (Faculty of Engineering, University of Tokyo)
MoNA Rating=3.75

>  <NUM PEAKS>  (3256) 
31

>  <MASS SPECTRAL PEAKS>  (3256) 
43 1.5
44 3.1
45 14.8
57 0.62
72 3.1
73 69.5
74 5.4
77 0.23
93 1.5
100 7.8
131 4.6
133 0.39
147 22.6
148 3.1
174 3.1
186 0.15
239 1.5
253 4.6
254 99.99
255 2.81
256 8.5
269 3.1
270 4.6
329 0.23
357 57.8
358 16.4
359 7.8
360 0.15
371 3.1
372 8.5
373 1.5

$$$$

     RDKit          2D

 14 13  0  0  0  0  0  0  0  0999 V2000
    2.3505    4.6740    0.0000 C   0  0  0  0  0  0  0  0  0  0  0  0
    6.9976    3.7231    0.0000 C   0  0  0  0  0  0  0  0  0  0  0  0
    5.4976    1.1250    0.0000 C   0  0  0  0  0  0  0  0  0  0  0  0
    7.5466    1.6740    0.0000 C   0  0  0  0  0  0  0  0  0  0  0  0
    0.5024    4.4731    0.0000 C   0  0  0  0  0  0  0  0  0  0  0  0
   -1.5466    3.9240    0.0000 C   0  0  0  0  0  0  0  0  0  0  0  0
   -0.9976    1.8750    0.0000 C   0  0  0  0  0  0  0  0  0  0  0  0
    2.3505    3.1740    0.0000 C   0  0  0  0  0  0  0  0  0  0  0  0
    3.6495    2.4240    0.0000 C   0  0  0  0  0  0  0  0  0  0  0  0
    3.6495    0.9240    0.0000 O   0  0  0  0  0  0  0  0  0  0  0  0
    4.9486    3.1740    0.0000 O   0  0  0  0  0  0  0  0  0  0  0  0
    1.0514    2.4240    0.0000 S   0  0  0  0  0  0  0  0  0  0  0  0
    6.2476    2.4240    0.0000 Si  0  0  0  0  0  4  0  0  0  0  0  0
   -0.2476    3.1740    0.0000 Si  0  0  0  0  0  4  0  0  0  0  0  0
  8  1  1  0
  9  8  1  0
 10  9  2  0
 11  9  1  0
 12  8  1  0
 13  2  1  0
 13  3  1  0
 13  4  1  0
 13 11  1  0
 14  5  1  0
 14  6  1  0
 14  7  1  0
 14 12  1  0
M  END
>  <NAME>  (3257) 
2-TRIMETHYLSILYLTHIOPROPIONIC ACID TRIMETHYLSILYL ESTER

>  <SYNONYMS>  (3257) 


>  <SPECTRUM TYPE>  (3257) 
MS1

>  <INSTRUMENT TYPE>  (3257) 
EI-B

>  <INSTRUMENT>  (3257) 
JEOL JMS-01-SG

>  <ION MODE>  (3257) 
P

>  <INCHIKEY>  (3257) 
BDZFEVXFJFUWAV-UHFFFAOYSA-N

>  <FORMULA>  (3257) 
C9H22O2SSi2

>  <EXACT MASS>  (3257) 
250.087904004

>  <MW>  (3257) 
250

>  <ID>  (3257) 
JP007480

>  <CONTRIBUTOR>  (3257) 
University of Tokyo Team, {Faculty of Engineering, University of Tokyo

>  <COMMENT>  (3257) 
SMILES=O=C(O[Si](C)(C)C)C(C)S[Si](C)(C)C
InChI=InChI=1S/C9H22O2SSi2/c1-8(12-14(5,6)7)9(10)11-13(2,3)4/h8H,1-7H3
computed SMILES=O=C(O[Si](C)(C)C)C(S[Si](C)(C)C)C
accession=JP007480
date=2016.01.19 (Created 2008.10.21, modified 2011.05.06)
author=KOGA M, UNIV. OF OCCUPATIONAL AND ENVIRONMENTAL HEALTH
license=CC BY-NC-SA
exact mass=250.0879
ionization energy=70 eV
ion type=[M]+*
computed spectral entropy=3.249285085583095
computed normalized entropy=0.7904122561144356
SPLASH=splash10-000b-9780000000-61df8d862b282480de76
submitter=submitter = University of Tokyo Team (Faculty of Engineering, University of Tokyo)
MoNA Rating=3.75

>  <NUM PEAKS>  (3257) 
61

>  <MASS SPECTRAL PEAKS>  (3257) 
43 16.7
44 7.5
45 50.8
46 0.32
47 14
55 16.7
56 3.7
58 0.27
59 15.1
60 2.7
61 6.4
66 1.13
69 1.6
70 2.1
72 5.9
73 0.75
74 32.4
75 58.3
76 5.4
77 0.43
85 2.1
86 3.7
88 10.8
90 1.45
91 5.4
92 1.6
93 2.7
96 0.27
103 5.4
105 1.6
116 2.1
118 0.7
119 2.1
129 3.2
131 3.2
132 0.81
133 42.1
134 3.7
135 2.1
144 0.32
147 28.6
148 49.7
149 29.7
150 0.27
160 10.2
163 24.8
164 2.7
165 0.21
180 1.6
190 5.9
207 71.8
208 1.4
209 8.1
218 1.6
221 3.2
235 99.99
236 19.4
237 12.4
250 26.4
251 0.48
252 2.7

$$$$

     RDKit          2D

 16 15  0  0  0  0  0  0  0  0999 V2000
    5.2599    2.3603    0.0000 C   0  0  0  0  0  0  0  0  0  0  0  0
    2.1127   -1.1887    0.0000 C   0  0  0  0  0  0  0  0  0  0  0  0
    0.6127    1.4094    0.0000 C   0  0  0  0  0  0  0  0  0  0  0  0
    0.0637   -0.6397    0.0000 C   0  0  0  0  0  0  0  0  0  0  0  0
    6.7599    6.8603    0.0000 C   0  0  0  0  0  0  0  0  0  0  0  0
    5.2599    8.3603    0.0000 C   0  0  0  0  0  0  0  0  0  0  0  0
    3.7599    6.8603    0.0000 C   0  0  0  0  0  0  0  0  0  0  0  0
    3.9608    3.1103    0.0000 C   0  0  0  0  0  0  0  0  0  0  0  0
    2.6618    2.3603    0.0000 C   0  0  0  0  0  0  0  0  0  0  0  0
    3.9608    4.6103    0.0000 C   0  0  0  0  0  0  0  0  0  0  0  0
    1.3627    3.1103    0.0000 O   0  0  0  0  0  0  0  0  0  0  0  0
    2.6618    5.3603    0.0000 O   0  0  0  0  0  0  0  0  0  0  0  0
    2.6618    0.8603    0.0000 O   0  0  0  0  0  0  0  0  0  0  0  0
    5.2599    5.3603    0.0000 O   0  0  0  0  0  0  0  0  0  0  0  0
    1.3627    0.1103    0.0000 Si  0  0  0  0  0  4  0  0  0  0  0  0
    5.2599    6.8603    0.0000 Si  0  0  0  0  0  4  0  0  0  0  0  0
  8  1  1  0
  9  8  1  0
 10  8  1  0
 11  9  2  0
 12 10  2  0
 13  9  1  0
 14 10  1  0
 15  2  1  0
 15  3  1  0
 15  4  1  0
 15 13  1  0
 16  5  1  0
 16  6  1  0
 16  7  1  0
 16 14  1  0
M  END
>  <NAME>  (3258) 
METHYLMALONIC ACID BIS(TRIMETHYLSILYL) ESTER

>  <SYNONYMS>  (3258) 


>  <SPECTRUM TYPE>  (3258) 
MS1

>  <INSTRUMENT TYPE>  (3258) 
EI-B

>  <INSTRUMENT>  (3258) 
JEOL JMS-01-SG

>  <ION MODE>  (3258) 
P

>  <INCHIKEY>  (3258) 
LJDAAXOEMCESSS-UHFFFAOYSA-N

>  <FORMULA>  (3258) 
C10H22O4Si2

>  <EXACT MASS>  (3258) 
262.105662244

>  <MW>  (3258) 
262

>  <ID>  (3258) 
JP007479

>  <CONTRIBUTOR>  (3258) 
University of Tokyo Team, {Faculty of Engineering, University of Tokyo

>  <COMMENT>  (3258) 
SMILES=O=C(O[Si](C)(C)C)C(C)C(=O)O[Si](C)(C)C
InChI=InChI=1S/C10H22O4Si2/c1-8(9(11)13-15(2,3)4)10(12)14-16(5,6)7/h8H,1-7H3
computed SMILES=O=C(O[Si](C)(C)C)C(C(=O)O[Si](C)(C)C)C
accession=JP007479
date=2016.01.19 (Created 2008.10.21, modified 2011.05.06)
author=KOGA M, UNIV. OF OCCUPATIONAL AND ENVIRONMENTAL HEALTH
license=CC BY-NC-SA
exact mass=262.10566
ionization energy=70 eV
ion type=[M]+*
computed spectral entropy=3.2047326046004647
computed normalized entropy=0.770575306005377
SPLASH=splash10-0002-9520000000-a4f8230dd9ae4f48b439
submitter=submitter = University of Tokyo Team (Faculty of Engineering, University of Tokyo)
MoNA Rating=3.75

>  <NUM PEAKS>  (3258) 
64

>  <MASS SPECTRAL PEAKS>  (3258) 
43 12.8
44 18.1
45 48.1
46 0.3
47 15.5
51 1.5
52 2.2
55 2.12
56 99.99
57 16.2
58 8.7
59 1.7
60 1.8
61 6.8
66 5.11
71 1.8
72 15.9
73 20.4
74 2.53
75 71.9
76 6
77 7.9
83 0.98
85 1.1
86 4.5
87 1.1
93 0.11
94 10.9
99 1.1
103 1.1
105 0.11
113 8.7
115 3.7
116 11.7
119 0.11
129 9
130 6
131 14
132 0.18
133 16.2
134 1.8
135 1.1
147 4.92
148 92
149 47.7
150 4.9
151 0.11
157 9.4
163 1.5
172 3.4
173 0.11
175 1.1
190 1.8
191 1.1
203 0.41
217 1.1
218 37.1
219 7.9
220 0.34
231 1.5
247 44.6
248 8.3
249 0.37
262 3.4

$$$$

     RDKit          2D

 12 11  0  0  0  0  0  0  0  0999 V2000
    2.5111    3.6998    0.0000 C   0  0  0  0  0  0  0  0  0  0  0  0
    1.2120    5.9498    0.0000 C   0  0  0  0  0  0  0  0  0  0  0  0
   -6.0332    4.9988    0.0000 C   0  0  0  0  0  0  0  0  0  0  0  0
   -6.5822    2.9498    0.0000 C   0  0  0  0  0  0  0  0  0  0  0  0
   -4.5332    2.4007    0.0000 C   0  0  0  0  0  0  0  0  0  0  0  0
   -0.0870    3.6998    0.0000 C   0  0  0  0  0  0  0  0  0  0  0  0
   -1.3861    4.4498    0.0000 C   0  0  0  0  0  0  0  0  0  0  0  0
    1.2120    4.4498    0.0000 C   0  0  0  0  0  0  0  0  0  0  0  0
   -2.6851    3.6998    0.0000 C   0  0  0  0  0  0  0  0  0  0  0  0
   -2.6851    2.1998    0.0000 O   0  0  0  0  0  0  0  0  0  0  0  0
   -3.9841    4.4498    0.0000 O   0  0  0  0  0  0  0  0  0  0  0  0
   -5.2832    3.6998    0.0000 Si  0  0  0  0  0  4  0  0  0  0  0  0
  6  7  2  0
  8  1  1  0
  8  2  1  0
  8  6  1  0
  9  7  1  0
 10  9  2  0
 11  9  1  0
 12  3  1  0
 12  4  1  0
 12  5  1  0
 12 11  1  0
M  END
>  <NAME>  (3259) 
4-METHYL-2-PENTENOIC ACID TRIMETHYLSILYL ESTER

>  <SYNONYMS>  (3259) 


>  <SPECTRUM TYPE>  (3259) 
MS1

>  <INSTRUMENT TYPE>  (3259) 
EI-B

>  <INSTRUMENT>  (3259) 
JEOL JMS-01-SG

>  <ION MODE>  (3259) 
P

>  <INCHIKEY>  (3259) 
WDZGZGHIOXHTBN-VOTSOKGWSA-N

>  <FORMULA>  (3259) 
C9H18O2Si

>  <EXACT MASS>  (3259) 
186.107606346

>  <MW>  (3259) 
186

>  <ID>  (3259) 
JP007478

>  <CONTRIBUTOR>  (3259) 
University of Tokyo Team, {Faculty of Engineering, University of Tokyo

>  <COMMENT>  (3259) 
SMILES=CC(C)C=CC(=O)O[Si](C)(C)C
InChI=InChI=1S/C9H18O2Si/c1-8(2)6-7-9(10)11-12(3,4)5/h6-8H,1-5H3/b7-6+
computed SMILES=O=C(O[Si](C)(C)C)C=CC(C)C
accession=JP007478
date=2016.01.19 (Created 2008.10.21, modified 2011.05.06)
ionization energy=70 eV
author=KOGA M, UNIV. OF OCCUPATIONAL AND ENVIRONMENTAL HEALTH
license=CC BY-NC-SA
exact mass=186.10761
ion type=[M]+*
computed spectral entropy=2.733315689304623
computed normalized entropy=0.6951772394369212
SPLASH=splash10-00fr-9400000000-3e5b62441a563c7c9156
submitter=submitter = University of Tokyo Team (Faculty of Engineering, University of Tokyo)
MoNA Rating=3.75

>  <NUM PEAKS>  (3259) 
51

>  <MASS SPECTRAL PEAKS>  (3259) 
40 0.9
41 0.9
43 3.7
44 0.42
45 10.4
47 7.1
51 2.3
53 0.52
54 2.8
55 3.7
59 3.7
61 0.42
67 3.3
68 3.3
69 3.7
72 0.09
73 61.1
74 7.5
75 99.99
76 0.66
77 3.3
79 1.4
81 10.9
82 0.18
85 4.7
95 2.3
96 34.1
97 1.89
98 0.9
99 8
101 0.9
111 0.28
116 1.8
117 0.9
125 3.7
126 0.52
127 12.7
128 1.4
129 3.7
131 0.33
141 1.8
143 8.5
144 0.9
153 0.14
155 2.3
170 9
171 73.9
172 0.99
173 2.8
186 14.2
187 0.9

$$$$

     RDKit          2D

 12 11  0  0  0  0  0  0  0  0999 V2000
   -7.3825    3.7868    0.0000 C   0  0  0  0  0  0  0  0  0  0  0  0
   -3.4853    1.5368    0.0000 C   0  0  0  0  0  0  0  0  0  0  0  0
    1.1618    2.4877    0.0000 C   0  0  0  0  0  0  0  0  0  0  0  0
    1.7108    4.5368    0.0000 C   0  0  0  0  0  0  0  0  0  0  0  0
   -0.3382    5.0858    0.0000 C   0  0  0  0  0  0  0  0  0  0  0  0
   -6.0834    3.0368    0.0000 C   0  0  0  0  0  0  0  0  0  0  0  0
   -4.7844    3.7868    0.0000 C   0  0  0  0  0  0  0  0  0  0  0  0
   -3.4853    3.0368    0.0000 C   0  0  0  0  0  0  0  0  0  0  0  0
   -2.1863    3.7868    0.0000 C   0  0  0  0  0  0  0  0  0  0  0  0
   -2.1863    5.2868    0.0000 O   0  0  0  0  0  0  0  0  0  0  0  0
   -0.8873    3.0368    0.0000 O   0  0  0  0  0  0  0  0  0  0  0  0
    0.4118    3.7868    0.0000 Si  0  0  0  0  0  4  0  0  0  0  0  0
  6  1  1  0
  7  6  1  0
  8  2  1  0
  8  7  1  0
  9  8  1  0
 10  9  2  0
 11  9  1  0
 12  3  1  0
 12  4  1  0
 12  5  1  0
 12 11  1  0
M  END
>  <NAME>  (3260) 
2-METHYLPENTANOIC ACID TRIMETHYLSILYL ESTER

>  <SYNONYMS>  (3260) 


>  <SPECTRUM TYPE>  (3260) 
MS1

>  <INSTRUMENT TYPE>  (3260) 
EI-B

>  <INSTRUMENT>  (3260) 
JEOL JMS-01-SG

>  <ION MODE>  (3260) 
P

>  <INCHIKEY>  (3260) 
IAHOCIHIHKVJIW-UHFFFAOYSA-N

>  <FORMULA>  (3260) 
C9H20O2Si

>  <EXACT MASS>  (3260) 
188.12325641

>  <MW>  (3260) 
188

>  <ID>  (3260) 
JP007477

>  <CONTRIBUTOR>  (3260) 
University of Tokyo Team, {Faculty of Engineering, University of Tokyo

>  <COMMENT>  (3260) 
SMILES=CCCC(C)C(=O)O[Si](C)(C)C
InChI=InChI=1S/C9H20O2Si/c1-6-7-8(2)9(10)11-12(3,4)5/h8H,6-7H2,1-5H3
computed SMILES=O=C(O[Si](C)(C)C)C(C)CCC
accession=JP007477
date=2016.01.19 (Created 2008.10.21, modified 2011.05.06)
author=KOGA M, UNIV. OF OCCUPATIONAL AND ENVIRONMENTAL HEALTH
license=CC BY-NC-SA
exact mass=188.12326
ionization energy=70 eV
ion type=[M]+*
computed spectral entropy=2.7519466120976883
computed normalized entropy=0.7147639251220915
SPLASH=splash10-00fr-9500000000-e6a819dc0f752125ef17
submitter=submitter = University of Tokyo Team (Faculty of Engineering, University of Tokyo)
MoNA Rating=3.75

>  <NUM PEAKS>  (3260) 
47

>  <MASS SPECTRAL PEAKS>  (3260) 
43 12.9
44 5.8
45 17
47 0.8
49 0.9
51 1.2
55 4.1
56 0.77
57 1.9
58 3.2
59 3.5
60 0.12
61 5.4
69 5.4
70 1.6
71 0.35
72 4.1
73 55.8
74 21.9
75 99.99
76 6.7
77 7.7
81 5.8
83 0.12
86 2.5
91 1.9
105 3.8
115 0.12
117 12.5
118 0.9
120 1.6
129 0.35
130 6.4
131 4.1
143 3.5
144 0.09
146 20.3
147 4.5
148 0.9
155 0.48
159 2.9
173 79
174 10.3
175 0.38
186 1.9
188 6.1
189 0.9

$$$$

     RDKit          2D

 11 10  0  0  0  0  0  0  0  0999 V2000
   -6.3212    3.8505    0.0000 C   0  0  0  0  0  0  0  0  0  0  0  0
   -3.7231    5.3505    0.0000 C   0  0  0  0  0  0  0  0  0  0  0  0
   -0.5760    1.8014    0.0000 C   0  0  0  0  0  0  0  0  0  0  0  0
    1.4731    2.3505    0.0000 C   0  0  0  0  0  0  0  0  0  0  0  0
    0.9240    4.3995    0.0000 C   0  0  0  0  0  0  0  0  0  0  0  0
   -5.0221    3.1005    0.0000 C   0  0  0  0  0  0  0  0  0  0  0  0
   -3.7231    3.8505    0.0000 C   0  0  0  0  0  0  0  0  0  0  0  0
   -2.4240    3.1005    0.0000 C   0  0  0  0  0  0  0  0  0  0  0  0
   -2.4240    1.6005    0.0000 O   0  0  0  0  0  0  0  0  0  0  0  0
   -1.1250    3.8505    0.0000 O   0  0  0  0  0  0  0  0  0  0  0  0
    0.1740    3.1005    0.0000 Si  0  0  0  0  0  4  0  0  0  0  0  0
  6  1  1  0
  7  2  1  0
  6  7  2  0
  8  7  1  0
  9  8  2  0
 10  8  1  0
 11  3  1  0
 11  4  1  0
 11  5  1  0
 11 10  1  0
M  END
>  <NAME>  (3261) 
(E)-2-METHYL-2-BUTENOIC ACID TRIMETHYLSILYL ESTER

>  <SYNONYMS>  (3261) 


>  <SPECTRUM TYPE>  (3261) 
MS1

>  <INSTRUMENT TYPE>  (3261) 
EI-B

>  <INSTRUMENT>  (3261) 
JEOL JMS-01-SG

>  <ION MODE>  (3261) 
P

>  <INCHIKEY>  (3261) 
GZQWHCAXPCOMTD-VOTSOKGWSA-N

>  <FORMULA>  (3261) 
C8H16O2Si

>  <EXACT MASS>  (3261) 
172.09195628199998

>  <MW>  (3261) 
172

>  <ID>  (3261) 
JP007476

>  <CONTRIBUTOR>  (3261) 
University of Tokyo Team, {Faculty of Engineering, University of Tokyo

>  <COMMENT>  (3261) 
SMILES=[H]C(C)=C(C)C(=O)O[Si](C)(C)C
InChI=InChI=1S/C8H16O2Si/c1-6-7(2)8(9)10-11(3,4)5/h6H,1-5H3/b7-6+
computed SMILES=O=C(O[Si](C)(C)C)C(=CC)C
accession=JP007476
date=2016.01.19 (Created 2008.10.21, modified 2011.05.06)
author=KOGA M, UNIV. OF OCCUPATIONAL AND ENVIRONMENTAL HEALTH
license=CC BY-NC-SA
exact mass=172.09196
ionization energy=70 eV
ion type=[M]+*
computed spectral entropy=2.0907589298401117
computed normalized entropy=0.5928942645669184
SPLASH=splash10-0a6r-7900000000-955ee06ab9a1155e47c3
submitter=submitter = University of Tokyo Team (Faculty of Engineering, University of Tokyo)
MoNA Rating=3.75

>  <NUM PEAKS>  (3261) 
34

>  <MASS SPECTRAL PEAKS>  (3261) 
43 1.3
44 0.8
45 0.8
47 0.66
53 2.9
54 4.5
55 24
56 0.16
57 1
59 1.8
61 2.1
73 0.13
75 63.3
76 4.5
82 4.5
83 2.91
84 1.8
85 1
87 0.8
91 0.08
97 1
101 1.3
105 3.7
111 0.1
113 15.2
114 1.8
115 1
120 0.08
141 0.8
156 2.1
157 99.99
158 1.38
159 4.8
172 6.6

$$$$

     RDKit          2D

 14 14  0  0  0  0  0  0  0  0999 V2000
    1.8127   -2.1596    0.0000 C   0  0  0  0  0  0  0  0  0  0  0  0
    5.4789   -2.8558    0.0000 C   0  0  0  0  0  0  0  0  0  0  0  0
    6.6958   -1.1182    0.0000 C   0  0  0  0  0  0  0  0  0  0  0  0
    4.9582    0.0987    0.0000 C   0  0  0  0  0  0  0  0  0  0  0  0
   -1.3000    0.7500    0.0000 C   0  0  0  0  0  0  0  0  0  0  0  0
    0.0000    1.5000    0.0000 C   0  0  0  0  0  0  0  0  0  0  0  0
   -1.3000   -0.7500    0.0000 C   0  0  0  0  0  0  0  0  0  0  0  0
    1.3000    0.7500    0.0000 C   0  0  0  0  0  0  0  0  0  0  0  0
    0.0000   -1.5000    0.0000 C   0  0  0  0  0  0  0  0  0  0  0  0
    2.7772   -0.4897    0.0000 C   0  0  0  0  0  0  0  0  0  0  0  0
    1.3000   -0.7500    0.0000 C   0  0  0  0  0  0  0  0  0  0  0  0
    3.2904    0.9198    0.0000 O   0  0  0  0  0  0  0  0  0  0  0  0
    3.7413   -1.6389    0.0000 O   0  0  0  0  0  0  0  0  0  0  0  0
    5.2185   -1.3785    0.0000 Si  0  0  0  0  0  4  0  0  0  0  0  0
  6  5  1  0
  7  5  1  0
  8  6  1  0
  9  7  1  0
 11  1  1  0
 11  8  1  0
 11  9  1  0
 11 10  1  0
 12 10  2  0
 13 10  1  0
 14  2  1  0
 14  3  1  0
 14  4  1  0
 14 13  1  0
M  END
>  <NAME>  (3262) 
1-METHYL-1-CYCLOHEXANECARBOXYLIC ACID TRIMETHYLSILYL ESTER

>  <SYNONYMS>  (3262) 


>  <SPECTRUM TYPE>  (3262) 
MS1

>  <INSTRUMENT TYPE>  (3262) 
EI-B

>  <INSTRUMENT>  (3262) 
JEOL JMS-01-SG

>  <ION MODE>  (3262) 
P

>  <INCHIKEY>  (3262) 
SAXHDPVVKDOYBT-UHFFFAOYSA-N

>  <FORMULA>  (3262) 
C11H22O2Si

>  <EXACT MASS>  (3262) 
214.13890647399998

>  <MW>  (3262) 
214

>  <ID>  (3262) 
JP007475

>  <CONTRIBUTOR>  (3262) 
University of Tokyo Team, {Faculty of Engineering, University of Tokyo

>  <COMMENT>  (3262) 
SMILES=C(C1)CCC(C)(C1)C(=O)O[Si](C)(C)C
InChI=InChI=1S/C11H22O2Si/c1-11(8-6-5-7-9-11)10(12)13-14(2,3)4/h5-9H2,1-4H3
computed SMILES=O=C(O[Si](C)(C)C)C1(C)CCCCC1
accession=JP007475
date=2016.01.19 (Created 2008.10.21, modified 2011.05.06)
author=KOGA M, UNIV. OF OCCUPATIONAL AND ENVIRONMENTAL HEALTH
license=CC BY-NC-SA
exact mass=214.13891
ionization energy=70 eV
ion type=[M]+*
computed spectral entropy=2.826696044814447
computed normalized entropy=0.7225663143831852
SPLASH=splash10-00dj-9300000000-a8276d8e31a28a71ecbe
submitter=submitter = University of Tokyo Team (Faculty of Engineering, University of Tokyo)
MoNA Rating=3.75

>  <NUM PEAKS>  (3262) 
50

>  <MASS SPECTRAL PEAKS>  (3262) 
45 8.3
47 5.1
53 2.4
54 0.22
55 30.8
56 2.2
59 1.2
61 0.39
67 5.4
68 3.7
69 9.8
72 0.17
73 99.99
74 11.6
75 31.6
76 0.17
77 2.2
79 1.7
81 18
82 0.24
83 1.2
95 2.7
96 40.9
97 2.66
98 1.7
103 1.2
109 2.2
115 0.12
117 19.7
118 1.7
119 2.2
124 0.14
130 1.9
131 1.4
132 1.2
141 0.12
143 8.8
144 1.4
145 2.9
146 0.79
147 1.2
155 3.2
159 10.1
160 0.14
183 1.4
199 46.9
200 7.1
201 0.19
214 8.6
215 1.2

$$$$

     RDKit          2D

 18 17  0  0  0  0  0  0  0  0999 V2000
    4.5368    5.5344    0.0000 C   0  0  0  0  0  0  0  0  0  0  0  0
   -1.4094    2.7353    0.0000 C   0  0  0  0  0  0  0  0  0  0  0  0
    0.0906    5.3334    0.0000 C   0  0  0  0  0  0  0  0  0  0  0  0
   -1.9584    4.7844    0.0000 C   0  0  0  0  0  0  0  0  0  0  0  0
   10.4829    2.7353    0.0000 C   0  0  0  0  0  0  0  0  0  0  0  0
   11.0320    4.7844    0.0000 C   0  0  0  0  0  0  0  0  0  0  0  0
    8.9829    5.3334    0.0000 C   0  0  0  0  0  0  0  0  0  0  0  0
    3.2377    3.2844    0.0000 C   0  0  0  0  0  0  0  0  0  0  0  0
    5.8358    3.2844    0.0000 C   0  0  0  0  0  0  0  0  0  0  0  0
    4.5368    4.0344    0.0000 C   0  0  0  0  0  0  0  0  0  0  0  0
    1.9387    4.0344    0.0000 C   0  0  0  0  0  0  0  0  0  0  0  0
    7.1349    4.0344    0.0000 C   0  0  0  0  0  0  0  0  0  0  0  0
    1.9387    5.5344    0.0000 O   0  0  0  0  0  0  0  0  0  0  0  0
    7.1349    5.5344    0.0000 O   0  0  0  0  0  0  0  0  0  0  0  0
    0.6397    3.2844    0.0000 O   0  0  0  0  0  0  0  0  0  0  0  0
    8.4339    3.2844    0.0000 O   0  0  0  0  0  0  0  0  0  0  0  0
   -0.6594    4.0344    0.0000 Si  0  0  0  0  0  4  0  0  0  0  0  0
    9.7329    4.0344    0.0000 Si  0  0  0  0  0  4  0  0  0  0  0  0
 10  1  1  0
 10  8  1  0
 10  9  1  0
 11  8  1  0
 12  9  1  0
 13 11  2  0
 14 12  2  0
 15 11  1  0
 16 12  1  0
 17  2  1  0
 17  3  1  0
 17  4  1  0
 17 15  1  0
 18  5  1  0
 18  6  1  0
 18  7  1  0
 18 16  1  0
M  END
>  <NAME>  (3263) 
3-METHYLGLUTARIC ACID BIS(TRIMETHYLSILYL)ESTER

>  <SYNONYMS>  (3263) 


>  <SPECTRUM TYPE>  (3263) 
MS1

>  <INSTRUMENT TYPE>  (3263) 
EI-B

>  <INSTRUMENT>  (3263) 
JEOL JMS-01-SG

>  <ION MODE>  (3263) 
P

>  <INCHIKEY>  (3263) 
JOPZTTHKNFWHFT-UHFFFAOYSA-N

>  <FORMULA>  (3263) 
C12H26O4Si2

>  <EXACT MASS>  (3263) 
290.136962372

>  <MW>  (3263) 
290

>  <ID>  (3263) 
JP007474

>  <CONTRIBUTOR>  (3263) 
University of Tokyo Team, {Faculty of Engineering, University of Tokyo

>  <COMMENT>  (3263) 
SMILES=CC(CC(=O)O[Si](C)(C)C)CC(=O)O[Si](C)(C)C
InChI=InChI=1S/C12H26O4Si2/c1-10(8-11(13)15-17(2,3)4)9-12(14)16-18(5,6)7/h10H,8-9H2,1-7H3
computed SMILES=O=C(O[Si](C)(C)C)CC(C)CC(=O)O[Si](C)(C)C
accession=JP007474
date=2016.01.19 (Created 2008.10.21, modified 2011.05.06)
author=KOGA M, UNIV. OF OCCUPATIONAL AND ENVIRONMENTAL HEALTH
license=CC BY-NC-SA
exact mass=290.13696
ionization energy=70 eV
ion type=[M]+*
computed spectral entropy=3.1796799953452943
computed normalized entropy=0.7484249867752005
SPLASH=splash10-016r-9530000000-1d4d1011e388ce30aadc
submitter=submitter = University of Tokyo Team (Faculty of Engineering, University of Tokyo)
MoNA Rating=3.75

>  <NUM PEAKS>  (3263) 
70

>  <MASS SPECTRAL PEAKS>  (3263) 
43 8.5
44 2.6
45 13.4
47 0.71
55 4
57 1.4
58 1.6
59 0.3
60 1
61 4.2
67 1
69 99.99
70 4.8
71 1
72 7.1
73 9.65
74 9.3
75 40.5
76 2.4
77 0.36
82 1
83 1.4
88 1
89 0.1
95 1
99 4.6
101 2.4
111 0.34
113 1
115 1
116 6.5
117 1.18
118 1
128 2
129 1.4
130 0.73
131 2
132 1.2
133 4.4
141 0.54
142 1
143 13.8
144 1.8
147 5.21
148 16.4
149 11.6
150 1.2
157 0.36
159 17.9
160 1.8
161 1
162 0.1
172 24
173 5.9
174 1.2
185 0.32
189 1.6
200 8.9
201 4.4
202 0.1
204 11.4
205 2
217 1.4
231 0.1
247 8.3
248 1.6
275 50.7
276 1.14
277 4.6
290 0.4

$$$$

     RDKit          2D

 17 16  0  0  0  0  0  0  0  0999 V2000
    3.4755    1.5736    0.0000 C   0  0  0  0  0  0  0  0  0  0  0  0
    9.4216    4.3726    0.0000 C   0  0  0  0  0  0  0  0  0  0  0  0
    7.9216    1.7745    0.0000 C   0  0  0  0  0  0  0  0  0  0  0  0
    9.9707    2.3236    0.0000 C   0  0  0  0  0  0  0  0  0  0  0  0
    0.3284    5.1226    0.0000 C   0  0  0  0  0  0  0  0  0  0  0  0
   -1.7207    4.5736    0.0000 C   0  0  0  0  0  0  0  0  0  0  0  0
   -1.1716    2.5245    0.0000 C   0  0  0  0  0  0  0  0  0  0  0  0
    4.7745    3.8236    0.0000 C   0  0  0  0  0  0  0  0  0  0  0  0
    3.4755    3.0736    0.0000 C   0  0  0  0  0  0  0  0  0  0  0  0
    6.0736    3.0736    0.0000 C   0  0  0  0  0  0  0  0  0  0  0  0
    2.1764    3.8236    0.0000 C   0  0  0  0  0  0  0  0  0  0  0  0
    6.0736    1.5736    0.0000 O   0  0  0  0  0  0  0  0  0  0  0  0
    2.1764    5.3236    0.0000 O   0  0  0  0  0  0  0  0  0  0  0  0
    7.3726    3.8236    0.0000 O   0  0  0  0  0  0  0  0  0  0  0  0
    0.8774    3.0736    0.0000 O   0  0  0  0  0  0  0  0  0  0  0  0
    8.6716    3.0736    0.0000 Si  0  0  0  0  0  4  0  0  0  0  0  0
   -0.4216    3.8236    0.0000 Si  0  0  0  0  0  4  0  0  0  0  0  0
  9  1  1  0
  8  9  2  0
 10  8  1  0
 11  9  1  0
 12 10  2  0
 13 11  2  0
 14 10  1  0
 15 11  1  0
 16  2  1  0
 16  3  1  0
 16  4  1  0
 16 14  1  0
 17  5  1  0
 17  6  1  0
 17  7  1  0
 17 15  1  0
M  END
>  <NAME>  (3264) 
(E)-2-METHYL-2-BUTENEDIOIC ACID BIS(TRIMETHYLSILYL) ESTER

>  <SYNONYMS>  (3264) 


>  <SPECTRUM TYPE>  (3264) 
MS1

>  <INSTRUMENT TYPE>  (3264) 
EI-B

>  <INSTRUMENT>  (3264) 
JEOL JMS-01-SG

>  <ION MODE>  (3264) 
P

>  <INCHIKEY>  (3264) 
SXLJYBIAHQEULW-CMDGGOBGSA-N

>  <FORMULA>  (3264) 
C11H22O4Si2

>  <EXACT MASS>  (3264) 
274.105662244

>  <MW>  (3264) 
274

>  <ID>  (3264) 
JP007473

>  <CONTRIBUTOR>  (3264) 
University of Tokyo Team, {Faculty of Engineering, University of Tokyo

>  <COMMENT>  (3264) 
SMILES=[H]C(C(=O)O[Si](C)(C)C)=C(C)C(=O)O[Si](C)(C)C
InChI=InChI=1S/C11H22O4Si2/c1-9(11(13)15-17(5,6)7)8-10(12)14-16(2,3)4/h8H,1-7H3/b9-8+
computed SMILES=O=C(O[Si](C)(C)C)C=C(C(=O)O[Si](C)(C)C)C
accession=JP007473
date=2016.01.19 (Created 2008.10.21, modified 2011.05.06)
author=KOGA M, UNIV. OF OCCUPATIONAL AND ENVIRONMENTAL HEALTH
license=CC BY-NC-SA
exact mass=274.10566
ionization energy=70 eV
ion type=[M]+*
computed spectral entropy=2.970389097321684
computed normalized entropy=0.7849472105461205
SPLASH=splash10-0a4j-9470000000-ba531dd02d9054b8c980
submitter=submitter = University of Tokyo Team (Faculty of Engineering, University of Tokyo)
MoNA Rating=3.75

>  <NUM PEAKS>  (3264) 
44

>  <MASS SPECTRAL PEAKS>  (3264) 
43 6.7
44 4.8
45 21.7
47 0.8
58 2.3
59 3.4
61 3.4
66 0.46
67 18.6
68 3.8
69 1.5
72 0.36
73 33.2
74 15.9
75 34
76 0.26
77 3.2
83 3.6
97 9.2
98 0.34
99 2.1
112 4.2
117 2.5
122 1.3
131 1.9
133 7.1
140 1.5
141 0.69
147 14.2
148 17.8
149 13.2
156 0.26
157 6.1
169 5.1
184 10.3
185 1.61
186 4.8
215 1.7
231 3.8
259 99.99
260 21.7
261 9.2
262 1.9
274 3.2

$$$$

     RDKit          2D

 13 12  0  0  0  0  0  0  0  0999 V2000
   -7.2954    5.5380    0.0000 C   0  0  0  0  0  0  0  0  0  0  0  0
    1.0478    3.4889    0.0000 C   0  0  0  0  0  0  0  0  0  0  0  0
    3.0969    4.0380    0.0000 C   0  0  0  0  0  0  0  0  0  0  0  0
    2.5478    6.0870    0.0000 C   0  0  0  0  0  0  0  0  0  0  0  0
   -3.3983    4.7880    0.0000 C   0  0  0  0  0  0  0  0  0  0  0  0
   -4.6974    5.5380    0.0000 C   0  0  0  0  0  0  0  0  0  0  0  0
   -2.0993    5.5380    0.0000 C   0  0  0  0  0  0  0  0  0  0  0  0
   -5.9964    4.7880    0.0000 C   0  0  0  0  0  0  0  0  0  0  0  0
   -0.8002    4.7880    0.0000 C   0  0  0  0  0  0  0  0  0  0  0  0
   -5.9964    3.2880    0.0000 O   0  0  0  0  0  0  0  0  0  0  0  0
   -0.8002    3.2880    0.0000 O   0  0  0  0  0  0  0  0  0  0  0  0
    0.4988    5.5380    0.0000 O   0  0  0  0  0  0  0  0  0  0  0  0
    1.7978    4.7880    0.0000 Si  0  0  0  0  0  4  0  0  0  0  0  0
  6  5  1  0
  7  5  1  0
  8  1  1  0
  8  6  1  0
  9  7  1  0
 10  8  2  0
 11  9  2  0
 12  9  1  0
 13  2  1  0
 13  3  1  0
 13  4  1  0
 13 12  1  0
M  END
>  <NAME>  (3265) 
5-OXOHEXANOIC ACID TRIMETHYLSILYL ESTER

>  <SYNONYMS>  (3265) 


>  <SPECTRUM TYPE>  (3265) 
MS1

>  <INSTRUMENT TYPE>  (3265) 
EI-B

>  <INSTRUMENT>  (3265) 
JEOL JMS-01-SG

>  <ION MODE>  (3265) 
P

>  <INCHIKEY>  (3265) 
PXSCQEMSXNKQJK-UHFFFAOYSA-N

>  <FORMULA>  (3265) 
C9H18O3Si

>  <EXACT MASS>  (3265) 
202.102520966

>  <MW>  (3265) 
202

>  <ID>  (3265) 
JP007472

>  <CONTRIBUTOR>  (3265) 
University of Tokyo Team, {Faculty of Engineering, University of Tokyo

>  <COMMENT>  (3265) 
SMILES=CC(=O)CCCC(=O)O[Si](C)(C)C
InChI=InChI=1S/C9H18O3Si/c1-8(10)6-5-7-9(11)12-13(2,3)4/h5-7H2,1-4H3
computed SMILES=O=C(O[Si](C)(C)C)CCCC(=O)C
license=CC BY-NC-SA
accession=JP007472
date=2016.01.19 (Created 2008.10.21, modified 2011.05.06)
author=KOGA M, UNIV. OF OCCUPATIONAL AND ENVIRONMENTAL HEALTH
exact mass=202.10252
ionization energy=70 eV
ion type=[M]+*
computed spectral entropy=2.890423641670647
computed normalized entropy=0.742691959100442
SPLASH=splash10-004m-8900000000-de9151c136c1eac97983
submitter=submitter = University of Tokyo Team (Faculty of Engineering, University of Tokyo)
MoNA Rating=3.75

>  <NUM PEAKS>  (3265) 
49

>  <MASS SPECTRAL PEAKS>  (3265) 
42 1.3
43 63
44 2.9
45 1.11
47 11.8
55 50.2
56 1.2
57 0.29
58 4.5
59 2.7
61 7.7
67 0.15
69 5.2
71 2.5
72 7.7
73 5.29
74 5.2
75 99.99
76 7.5
77 0.52
84 17.1
85 5.4
97 2.7
99 0.22
101 2.5
112 51.3
113 6.3
115 1.32
116 6.1
117 40.8
118 4.1
119 0.2
129 22.9
130 5.7
131 2.2
132 0.91
133 1.5
143 3.1
145 94.9
146 1.14
147 5
159 8.2
160 3.4
169 0.41
186 2.2
187 38.3
188 3.8
189 0.18
202 3.8

$$$$

     RDKit          2D

 16 15  0  0  0  0  0  0  0  0999 V2000
    0.0000    0.0000    0.0000 C   0  0  0  0  0  0  0  0  0  0  0  0
    0.5490    2.4510    0.0000 C   0  0  0  0  0  0  0  0  0  0  0  0
    2.5981    3.0000    0.0000 C   0  0  0  0  0  0  0  0  0  0  0  0
    2.0490    5.0490    0.0000 C   0  0  0  0  0  0  0  0  0  0  0  0
   -3.1471    8.0490    0.0000 C   0  0  0  0  0  0  0  0  0  0  0  0
   -5.1962    7.5000    0.0000 C   0  0  0  0  0  0  0  0  0  0  0  0
   -4.6471    5.4510    0.0000 C   0  0  0  0  0  0  0  0  0  0  0  0
    0.0000    1.5000    0.0000 C   0  0  0  0  0  0  0  0  0  0  0  0
   -1.2990    2.2500    0.0000 C   0  0  0  0  0  0  0  0  0  0  0  0
   -1.2990    3.7500    0.0000 C   0  0  0  0  0  0  0  0  0  0  0  0
   -2.5981    4.5000    0.0000 C   0  0  0  0  0  0  0  0  0  0  0  0
   -3.8971    3.7500    0.0000 O   0  0  0  0  0  0  0  0  0  0  0  0
    0.0000    4.5000    0.0000 O   0  0  0  0  0  0  0  0  0  0  0  0
   -2.5981    6.0000    0.0000 O   0  0  0  0  0  0  0  0  0  0  0  0
    1.2990    3.7500    0.0000 Si  0  0  0  0  0  4  0  0  0  0  0  0
   -3.8971    6.7500    0.0000 Si  0  0  0  0  0  4  0  0  0  0  0  0
  8  1  1  0
  9  8  1  0
  9 10  2  0
 11 10  1  0
 12 11  2  0
 13 10  1  0
 14 11  1  0
 15  2  1  0
 15  3  1  0
 15  4  1  0
 15 13  1  0
 16  5  1  0
 16  6  1  0
 16  7  1  0
 16 14  1  0
M  END
>  <NAME>  (3266) 
2-TRIMETHYLSILOXYPENT-2-ENOIC ACID TRIMETHYLSILYL ESTER

>  <SYNONYMS>  (3266) 


>  <SPECTRUM TYPE>  (3266) 
MS1

>  <INSTRUMENT TYPE>  (3266) 
EI-B

>  <INSTRUMENT>  (3266) 
JEOL JMS-01-SG

>  <ION MODE>  (3266) 
P

>  <INCHIKEY>  (3266) 
OHSILHRTQNZRQH-KTKRTIGZSA-N

>  <FORMULA>  (3266) 
C11H24O3Si2

>  <EXACT MASS>  (3266) 
260.126397688

>  <MW>  (3266) 
260

>  <ID>  (3266) 
JP007471

>  <CONTRIBUTOR>  (3266) 
University of Tokyo Team, {Faculty of Engineering, University of Tokyo

>  <COMMENT>  (3266) 
SMILES=CCC=C(O[Si](C)(C)C)C(=O)O[Si](C)(C)C
cas=55045-17-5
InChI=InChI=1S/C11H24O3Si2/c1-8-9-10(13-15(2,3)4)11(12)14-16(5,6)7/h9H,8H2,1-7H3/b10-9-
computed SMILES=O=C(O[Si](C)(C)C)C(O[Si](C)(C)C)=CCC
accession=JP007471
date=2016.01.19 (Created 2008.10.21, modified 2011.05.06)
author=KOGA M, UNIV. OF OCCUPATIONAL AND ENVIRONMENTAL HEALTH
license=CC BY-NC-SA
exact mass=260.1264
ionization energy=70 eV
ion type=[M]+*
computed spectral entropy=2.0831012723983573
computed normalized entropy=0.6471517963833388
SPLASH=splash10-0002-5920000000-5e44f1b1fd091617f23e
submitter=submitter = University of Tokyo Team (Faculty of Engineering, University of Tokyo)
MoNA Rating=3.75

>  <NUM PEAKS>  (3266) 
25

>  <MASS SPECTRAL PEAKS>  (3266) 
43 1.5
45 11.8
47 2
51 0.15
55 6.7
59 3
66 2
68 0.15
72 2
73 42.7
74 2.5
75 0.72
127 3.6
131 2.5
133 3.6
142 0.36
147 99.99
148 15.4
149 9.7
201 0.36
217 2.5
245 21.6
246 4.1
247 0.15
260 3

$$$$

     RDKit          2D

 12 11  0  0  0  0  0  0  0  0999 V2000
   -7.3825    3.7868    0.0000 C   0  0  0  0  0  0  0  0  0  0  0  0
    1.1618    2.4877    0.0000 C   0  0  0  0  0  0  0  0  0  0  0  0
    1.7108    4.5368    0.0000 C   0  0  0  0  0  0  0  0  0  0  0  0
   -0.3382    5.0858    0.0000 C   0  0  0  0  0  0  0  0  0  0  0  0
   -6.0834    3.0368    0.0000 C   0  0  0  0  0  0  0  0  0  0  0  0
   -4.7844    3.7868    0.0000 C   0  0  0  0  0  0  0  0  0  0  0  0
   -3.4853    3.0368    0.0000 C   0  0  0  0  0  0  0  0  0  0  0  0
   -2.1863    3.7868    0.0000 C   0  0  0  0  0  0  0  0  0  0  0  0
   -3.4853    1.5368    0.0000 O   0  0  0  0  0  0  0  0  0  0  0  0
   -2.1863    5.2868    0.0000 O   0  0  0  0  0  0  0  0  0  0  0  0
   -0.8873    3.0368    0.0000 O   0  0  0  0  0  0  0  0  0  0  0  0
    0.4118    3.7868    0.0000 Si  0  0  0  0  0  4  0  0  0  0  0  0
  5  1  1  0
  6  5  1  0
  7  6  1  0
  8  7  1  0
  9  7  2  0
 10  8  2  0
 11  8  1  0
 12  2  1  0
 12  3  1  0
 12  4  1  0
 12 11  1  0
M  END
>  <NAME>  (3267) 
2-OXOPENTANOIC ACID TRIMETHYLSILYL ESTER

>  <SYNONYMS>  (3267) 


>  <SPECTRUM TYPE>  (3267) 
MS1

>  <INSTRUMENT TYPE>  (3267) 
EI-B

>  <INSTRUMENT>  (3267) 
JEOL JMS-01-SG

>  <ION MODE>  (3267) 
P

>  <INCHIKEY>  (3267) 
KXURKMKWKFOXLN-UHFFFAOYSA-N

>  <FORMULA>  (3267) 
C8H16O3Si

>  <EXACT MASS>  (3267) 
188.086870902

>  <MW>  (3267) 
188

>  <ID>  (3267) 
JP007470

>  <CONTRIBUTOR>  (3267) 
University of Tokyo Team, {Faculty of Engineering, University of Tokyo

>  <COMMENT>  (3267) 
SMILES=CCCC(=O)C(=O)O[Si](C)(C)C
InChI=InChI=1S/C8H16O3Si/c1-5-6-7(9)8(10)11-12(2,3)4/h5-6H2,1-4H3
computed SMILES=O=C(O[Si](C)(C)C)C(=O)CCC
accession=JP007470
date=2016.01.19 (Created 2008.10.21, modified 2011.05.06)
author=KOGA M, UNIV. OF OCCUPATIONAL AND ENVIRONMENTAL HEALTH
license=CC BY-NC-SA
exact mass=188.08687
ionization energy=70 eV
ion type=[M]+*
computed spectral entropy=1.9409258333210164
computed normalized entropy=0.602982512815787
SPLASH=splash10-00di-9100000000-8806775283eaf6db59c4
submitter=submitter = University of Tokyo Team (Faculty of Engineering, University of Tokyo)
MoNA Rating=3.75

>  <NUM PEAKS>  (3267) 
25

>  <MASS SPECTRAL PEAKS>  (3267) 
43 9.5
44 2.2
45 8.9
47 0.33
55 1.6
58 4.2
59 1.6
61 0.11
71 3.9
72 1.9
73 99.99
74 0.86
75 25.2
76 2.8
77 3.3
87 0.33
101 7.8
117 1.9
129 11.2
130 0.14
131 2.8
144 2.5
147 1.1
173 0.19
188 1.6

$$$$

     RDKit          2D

 12 11  0  0  0  0  0  0  0  0999 V2000
    2.5111    3.6998    0.0000 C   0  0  0  0  0  0  0  0  0  0  0  0
   -6.0332    4.9988    0.0000 C   0  0  0  0  0  0  0  0  0  0  0  0
   -6.5822    2.9498    0.0000 C   0  0  0  0  0  0  0  0  0  0  0  0
   -4.5332    2.4007    0.0000 C   0  0  0  0  0  0  0  0  0  0  0  0
   -0.0870    3.6998    0.0000 C   0  0  0  0  0  0  0  0  0  0  0  0
   -1.3861    4.4498    0.0000 C   0  0  0  0  0  0  0  0  0  0  0  0
    1.2120    4.4498    0.0000 C   0  0  0  0  0  0  0  0  0  0  0  0
   -2.6851    3.6998    0.0000 C   0  0  0  0  0  0  0  0  0  0  0  0
    1.2120    5.9498    0.0000 O   0  0  0  0  0  0  0  0  0  0  0  0
   -2.6851    2.1998    0.0000 O   0  0  0  0  0  0  0  0  0  0  0  0
   -3.9841    4.4498    0.0000 O   0  0  0  0  0  0  0  0  0  0  0  0
   -5.2832    3.6998    0.0000 Si  0  0  0  0  0  4  0  0  0  0  0  0
  6  5  1  0
  7  1  1  0
  7  5  1  0
  8  6  1  0
  9  7  2  0
 10  8  2  0
 11  8  1  0
 12  2  1  0
 12  3  1  0
 12  4  1  0
 12 11  1  0
M  END
>  <NAME>  (3268) 
4-OXOPENTANOIC ACID TRIMETHYLSILYL ESTER

>  <SYNONYMS>  (3268) 
LEVULINIC ACID TRIMETHYLSILYL ESTER

>  <SPECTRUM TYPE>  (3268) 
MS1

>  <INSTRUMENT TYPE>  (3268) 
EI-B

>  <INSTRUMENT>  (3268) 
JEOL JMS-01-SG

>  <ION MODE>  (3268) 
P

>  <INCHIKEY>  (3268) 
SKSOOBJAPLSIMV-UHFFFAOYSA-N

>  <FORMULA>  (3268) 
C8H16O3Si

>  <EXACT MASS>  (3268) 
188.086870902

>  <MW>  (3268) 
188

>  <ID>  (3268) 
JP007469

>  <CONTRIBUTOR>  (3268) 
University of Tokyo Team, {Faculty of Engineering, University of Tokyo

>  <COMMENT>  (3268) 
SMILES=CC(=O)CCC(=O)O[Si](C)(C)C
InChI=InChI=1S/C8H16O3Si/c1-7(9)5-6-8(10)11-12(2,3)4/h5-6H2,1-4H3
computed SMILES=O=C(O[Si](C)(C)C)CCC(=O)C
accession=JP007469
date=2016.01.19 (Created 2008.10.21, modified 2011.05.06)
author=KOGA M, UNIV. OF OCCUPATIONAL AND ENVIRONMENTAL HEALTH
license=CC BY-NC-SA
exact mass=188.08687
ionization energy=70 eV
ion type=[M]+*
computed spectral entropy=2.748571754802289
computed normalized entropy=0.7730809212673406
SPLASH=splash10-00dj-9600000000-0831380898a28d3f9b87
submitter=submitter = University of Tokyo Team (Faculty of Engineering, University of Tokyo)
MoNA Rating=3.75

>  <NUM PEAKS>  (3268) 
35

>  <MASS SPECTRAL PEAKS>  (3268) 
43 48.1
44 3.7
45 16.7
47 1.61
51 5
53 3.7
55 11.7
56 1.39
57 4.4
58 2.8
59 4.1
61 1.17
71 2.8
72 4.1
73 99.99
74 0.98
75 19.6
76 13.2
77 10.7
81 0.82
86 4.4
98 5.3
99 10.1
111 0.34
129 13.9
130 8.2
131 13.6
144 0.44
145 57.2
146 20.5
147 4.4
155 0.79
173 77.2
174 11.3
175 3.1

$$$$

     RDKit          2D

 22 22  0  0  0  0  0  0  0  0999 V2000
    8.7300   -4.4659    0.0000 C   0  0  0  0  0  0  0  0  0  0  0  0
   -8.7131   -0.2289    0.0000 C   0  0  0  0  0  0  0  0  0  0  0  0
  -10.7648   -0.7679    0.0000 C   0  0  0  0  0  0  0  0  0  0  0  0
  -10.2259   -2.8196    0.0000 C   0  0  0  0  0  0  0  0  0  0  0  0
    7.4249   -3.7267    0.0000 C   0  0  0  0  0  0  0  0  0  0  0  0
    6.1321   -4.4874    0.0000 C   0  0  0  0  0  0  0  0  0  0  0  0
    4.8269   -3.7481    0.0000 C   0  0  0  0  0  0  0  0  0  0  0  0
    3.5341   -4.5088    0.0000 C   0  0  0  0  0  0  0  0  0  0  0  0
    2.2289   -3.7695    0.0000 C   0  0  0  0  0  0  0  0  0  0  0  0
    0.9361   -4.5302    0.0000 C   0  0  0  0  0  0  0  0  0  0  0  0
   -4.2771   -1.5434    0.0000 C   0  0  0  0  0  0  0  0  0  0  0  0
   -5.5907   -3.7683    0.0000 C   0  0  0  0  0  0  0  0  0  0  0  0
   -2.9926   -2.2683    0.0000 C   0  0  0  0  0  0  0  0  0  0  0  0
   -4.2661   -4.5624    0.0000 C   0  0  0  0  0  0  0  0  0  0  0  0
   -0.3691   -3.7910    0.0000 C   0  0  0  0  0  0  0  0  0  0  0  0
   -5.5761   -2.2934    0.0000 C   0  0  0  0  0  0  0  0  0  0  0  0
   -2.9671   -3.8124    0.0000 C   0  0  0  0  0  0  0  0  0  0  0  0
   -6.8715   -1.5370    0.0000 C   0  0  0  0  0  0  0  0  0  0  0  0
   -6.8641   -0.0371    0.0000 O   0  0  0  0  0  0  0  0  0  0  0  0
   -1.6619   -4.5517    0.0000 O   0  0  0  0  0  0  0  0  0  0  0  0
   -8.1742   -2.2806    0.0000 O   0  0  0  0  0  0  0  0  0  0  0  0
   -9.4695   -1.5243    0.0000 Si  0  0  0  0  0  4  0  0  0  0  0  0
  5  1  1  0
  6  5  1  0
  7  6  1  0
  8  7  1  0
  9  8  1  0
 10  9  1  0
 13 11  2  0
 14 12  1  0
 15 10  1  0
 16 11  1  0
 16 12  2  0
 17 13  1  0
 17 14  2  0
 18 16  1  0
 19 18  2  0
 20 15  1  0
 20 17  1  0
 21 18  1  0
 22  2  1  0
 22  3  1  0
 22  4  1  0
 22 21  1  0
M  END
>  <NAME>  (3269) 
4-OCTYLOXYBENZOIC ACID TRIMETHYLSILYL ESTER

>  <SYNONYMS>  (3269) 


>  <SPECTRUM TYPE>  (3269) 
MS1

>  <INSTRUMENT TYPE>  (3269) 
EI-B

>  <INSTRUMENT>  (3269) 
JEOL JMS-01-SG

>  <ION MODE>  (3269) 
P

>  <INCHIKEY>  (3269) 
RXUQZVOEMQCPKB-UHFFFAOYSA-N

>  <FORMULA>  (3269) 
C18H30O3Si

>  <EXACT MASS>  (3269) 
322.19642135

>  <MW>  (3269) 
322

>  <ID>  (3269) 
JP007468

>  <CONTRIBUTOR>  (3269) 
University of Tokyo Team, {Faculty of Engineering, University of Tokyo

>  <COMMENT>  (3269) 
SMILES=CCCCCCCCOc(c1)ccc(c1)C(=O)O[Si](C)(C)C
InChI=InChI=1S/C18H30O3Si/c1-5-6-7-8-9-10-15-20-17-13-11-16(12-14-17)18(19)21-22(2,3)4/h11-14H,5-10,15H2,1-4H3
computed SMILES=O=C(O[Si](C)(C)C)C1=CC=C(OCCCCCCCC)C=C1
accession=JP007468
date=2016.01.19 (Created 2008.10.21, modified 2011.05.06)
author=KOGA M, UNIV. OF OCCUPATIONAL AND ENVIRONMENTAL HEALTH
license=CC BY-NC-SA
exact mass=322.19642
ionization energy=70 eV
ion type=[M]+*
computed spectral entropy=3.1522839821667232
computed normalized entropy=0.7831077193632793
SPLASH=splash10-0aba-8719000000-b2196e336ed4e067c359
submitter=submitter = University of Tokyo Team (Faculty of Engineering, University of Tokyo)
MoNA Rating=3.75

>  <NUM PEAKS>  (3269) 
56

>  <MASS SPECTRAL PEAKS>  (3269) 
42 2
43 40.2
44 3.3
45 0.26
47 2.6
55 17.4
56 4.6
57 2.95
64 3.3
65 6
69 9.3
70 0.53
71 16.7
73 20.1
74 3.3
75 1.54
76 4.6
77 5.3
83 3.3
89 0.13
91 2.6
92 6.7
93 14
103 0.8
104 4.6
105 3.3
120 6.7
121 7.04
122 7.3
147 1.3
150 1.3
151 2.21
152 2.6
166 4
179 1.3
193 0.33
194 10.7
195 62.4
196 34.2
197 1
207 3.3
209 4
210 12.7
211 0.8
212 2
233 6
262 1.3
263 1.67
264 2.6
307 99.99
308 23.4
309 0.67
321 1.3
322 46.9
323 10.7
324 2

$$$$

     RDKit          2D

 22 21  0  0  0  0  0  0  0  0999 V2000
    4.2219    8.4375    0.0000 C   0  0  0  0  0  0  0  0  0  0  0  0
  -13.9647    8.4375    0.0000 C   0  0  0  0  0  0  0  0  0  0  0  0
   -8.9695    4.6875    0.0000 C   0  0  0  0  0  0  0  0  0  0  0  0
   -7.4695    3.1875    0.0000 C   0  0  0  0  0  0  0  0  0  0  0  0
   -5.9695    4.6875    0.0000 C   0  0  0  0  0  0  0  0  0  0  0  0
    2.9228    9.1875    0.0000 C   0  0  0  0  0  0  0  0  0  0  0  0
  -12.6656    9.1875    0.0000 C   0  0  0  0  0  0  0  0  0  0  0  0
    1.6238    8.4375    0.0000 C   0  0  0  0  0  0  0  0  0  0  0  0
  -11.3666    8.4375    0.0000 C   0  0  0  0  0  0  0  0  0  0  0  0
    0.3248    9.1875    0.0000 C   0  0  0  0  0  0  0  0  0  0  0  0
  -10.0675    9.1875    0.0000 C   0  0  0  0  0  0  0  0  0  0  0  0
   -0.9743    8.4375    0.0000 C   0  0  0  0  0  0  0  0  0  0  0  0
   -2.2733    9.1875    0.0000 C   0  0  0  0  0  0  0  0  0  0  0  0
   -8.7685    8.4375    0.0000 C   0  0  0  0  0  0  0  0  0  0  0  0
   -3.5724    8.4375    0.0000 C   0  0  0  0  0  0  0  0  0  0  0  0
   -7.4695    9.1875    0.0000 C   0  0  0  0  0  0  0  0  0  0  0  0
   -4.8714    9.1875    0.0000 C   0  0  0  0  0  0  0  0  0  0  0  0
   -6.1704    8.4375    0.0000 C   0  0  0  0  0  0  0  0  0  0  0  0
   -6.1704    6.9375    0.0000 C   0  0  0  0  0  0  0  0  0  0  0  0
   -4.8714    6.1875    0.0000 O   0  0  0  0  0  0  0  0  0  0  0  0
   -7.4695    6.1875    0.0000 O   0  0  0  0  0  0  0  0  0  0  0  0
   -7.4695    4.6875    0.0000 Si  0  0  0  0  0  4  0  0  0  0  0  0
  6  1  1  0
  7  2  1  0
  8  6  1  0
  9  7  1  0
 10  8  1  0
 11  9  1  0
 12 10  1  0
 13 12  1  0
 14 11  1  0
 15 13  1  0
 16 14  1  0
 17 15  1  0
 18 16  1  0
 18 17  1  0
 19 18  1  0
 20 19  2  0
 21 19  1  0
 22  3  1  0
 22  4  1  0
 22  5  1  0
 22 21  1  0
M  END
>  <NAME>  (3270) 
2-HEXYLDECANOIC ACID TRIMETHYLSILYL ESTER

>  <SYNONYMS>  (3270) 
ISOPALMITIC ACID TRIMETHYLSILYL ESTER

>  <SPECTRUM TYPE>  (3270) 
MS1

>  <INSTRUMENT TYPE>  (3270) 
EI-B

>  <INSTRUMENT>  (3270) 
JEOL JMS-01-SG

>  <ION MODE>  (3270) 
P

>  <INCHIKEY>  (3270) 
OREZFLQJLWRJCG-UHFFFAOYSA-N

>  <FORMULA>  (3270) 
C19H40O2Si

>  <EXACT MASS>  (3270) 
328.27975705

>  <MW>  (3270) 
328

>  <ID>  (3270) 
JP007467

>  <CONTRIBUTOR>  (3270) 
University of Tokyo Team, {Faculty of Engineering, University of Tokyo

>  <COMMENT>  (3270) 
SMILES=CCCCCCCCC(CCCCCC)C(=O)O[Si](C)(C)C
InChI=InChI=1S/C19H40O2Si/c1-6-8-10-12-13-15-17-18(16-14-11-9-7-2)19(20)21-22(3,4)5/h18H,6-17H2,1-5H3
computed SMILES=O=C(O[Si](C)(C)C)C(CCCCCC)CCCCCCCC
accession=JP007467
date=2016.01.19 (Created 2008.10.21, modified 2011.05.06)
author=KOGA M, UNIV. OF OCCUPATIONAL AND ENVIRONMENTAL HEALTH
license=CC BY-NC-SA
exact mass=328.27976
ionization energy=70 eV
ion type=[M]+*
computed spectral entropy=3.167847639309205
computed normalized entropy=0.748173820349029
SPLASH=splash10-00xu-9332000000-419f2d5a021afdc95631
submitter=submitter = University of Tokyo Team (Faculty of Engineering, University of Tokyo)
MoNA Rating=3.75

>  <NUM PEAKS>  (3270) 
69

>  <MASS SPECTRAL PEAKS>  (3270) 
43 23.1
44 1.7
45 4.1
47 0.17
55 20.2
56 3.8
57 13.1
59 0.14
61 2.3
67 4.1
69 13.7
70 0.26
71 5.5
73 99.99
74 10.5
75 2.96
76 1.7
77 2
81 3.5
83 0.76
84 2
85 2.3
95 2.9
97 0.55
98 4.3
99 1.7
109 1.1
111 0.29
112 1.1
117 8.2
125 1.7
126 0.23
129 16.4
130 1.7
132 3.2
139 0.23
141 1.7
143 4.1
145 37.2
146 0.43
147 1.7
157 2.3
159 3.5
171 0.14
173 6.1
185 2.3
186 1.4
187 0.41
199 1.1
201 8.2
202 1.4
210 0.41
213 2.3
215 2.6
216 39.5
217 0.64
218 1.1
229 3.8
241 1.4
243 0.11
244 31.6
245 5.2
246 1.1
257 0.26
313 39.8
314 9.3
315 2.3
328 0.32
329 0.5

$$$$

     RDKit          2D

 26 25  0  0  0  0  0  0  0  0999 V2000
   -1.5834    3.3849    0.0000 C   0  0  0  0  0  0  0  0  0  0  0  0
   -0.0834    5.9829    0.0000 C   0  0  0  0  0  0  0  0  0  0  0  0
   -2.1325    5.4339    0.0000 C   0  0  0  0  0  0  0  0  0  0  0  0
   12.9070    3.3849    0.0000 C   0  0  0  0  0  0  0  0  0  0  0  0
   13.4560    5.4339    0.0000 C   0  0  0  0  0  0  0  0  0  0  0  0
   11.4070    5.9829    0.0000 C   0  0  0  0  0  0  0  0  0  0  0  0
    5.4608    0.1839    0.0000 C   0  0  0  0  0  0  0  0  0  0  0  0
    6.9608   -1.3161    0.0000 C   0  0  0  0  0  0  0  0  0  0  0  0
    8.4608    0.1839    0.0000 C   0  0  0  0  0  0  0  0  0  0  0  0
    4.3627    4.6839    0.0000 C   0  0  0  0  0  0  0  0  0  0  0  0
    6.9608    4.6839    0.0000 C   0  0  0  0  0  0  0  0  0  0  0  0
    3.0637    3.9339    0.0000 C   0  0  0  0  0  0  0  0  0  0  0  0
    8.2599    3.9339    0.0000 C   0  0  0  0  0  0  0  0  0  0  0  0
    5.6618    3.9339    0.0000 C   0  0  0  0  0  0  0  0  0  0  0  0
    1.7647    4.6839    0.0000 C   0  0  0  0  0  0  0  0  0  0  0  0
    9.5589    4.6839    0.0000 C   0  0  0  0  0  0  0  0  0  0  0  0
    5.6618    2.4339    0.0000 C   0  0  0  0  0  0  0  0  0  0  0  0
    1.7647    6.1839    0.0000 O   0  0  0  0  0  0  0  0  0  0  0  0
    9.5589    6.1839    0.0000 O   0  0  0  0  0  0  0  0  0  0  0  0
    4.3627    1.6839    0.0000 O   0  0  0  0  0  0  0  0  0  0  0  0
    0.4656    3.9339    0.0000 O   0  0  0  0  0  0  0  0  0  0  0  0
   10.8579    3.9339    0.0000 O   0  0  0  0  0  0  0  0  0  0  0  0
    6.9608    1.6839    0.0000 O   0  0  0  0  0  0  0  0  0  0  0  0
   -0.8334    4.6839    0.0000 Si  0  0  0  0  0  4  0  0  0  0  0  0
   12.1570    4.6839    0.0000 Si  0  0  0  0  0  4  0  0  0  0  0  0
    6.9608    0.1839    0.0000 Si  0  0  0  0  0  4  0  0  0  0  0  0
 12 10  1  0
 13 11  1  0
 14 10  1  0
 14 11  1  0
 15 12  1  0
 16 13  1  0
 17 14  1  0
 18 15  2  0
 19 16  2  0
 20 17  2  0
 21 15  1  0
 22 16  1  0
 23 17  1  0
 24  1  1  0
 24  2  1  0
 24  3  1  0
 24 21  1  0
 25  4  1  0
 25  5  1  0
 25  6  1  0
 25 22  1  0
 26  7  1  0
 26  8  1  0
 26  9  1  0
 26 23  1  0
M  END
>  <NAME>  (3271) 
1,3,5-PENTANETRICARBOXYLIC ACID TRIS(TRIMETHYLSILYL) ESTER

>  <SYNONYMS>  (3271) 


>  <SPECTRUM TYPE>  (3271) 
MS1

>  <INSTRUMENT TYPE>  (3271) 
EI-B

>  <INSTRUMENT>  (3271) 
JEOL JMS-01-SG

>  <ION MODE>  (3271) 
P

>  <INCHIKEY>  (3271) 
BTMRCUTZCUEEAP-UHFFFAOYSA-N

>  <FORMULA>  (3271) 
C17H36O6Si3

>  <EXACT MASS>  (3271) 
420.18196846199993

>  <MW>  (3271) 
420

>  <ID>  (3271) 
JP007466

>  <CONTRIBUTOR>  (3271) 
University of Tokyo Team, {Faculty of Engineering, University of Tokyo

>  <COMMENT>  (3271) 
SMILES=O=C(CCC(CCC(=O)O[Si](C)(C)C)C(=O)O[Si](C)(C)C)O[Si](C)(C)C
InChI=InChI=1S/C17H36O6Si3/c1-24(2,3)21-15(18)12-10-14(17(20)23-26(7,8)9)11-13-16(19)22-25(4,5)6/h14H,10-13H2,1-9H3
computed SMILES=O=C(O[Si](C)(C)C)CCC(C(=O)O[Si](C)(C)C)CCC(=O)O[Si](C)(C)C
accession=JP007466
date=2016.01.19 (Created 2008.10.21, modified 2011.05.06)
author=KOGA M, UNIV. OF OCCUPATIONAL AND ENVIRONMENTAL HEALTH
license=CC BY-NC-SA
exact mass=420.18197
ionization energy=70 eV
ion type=[M]+*
computed spectral entropy=3.4742048884446377
computed normalized entropy=0.7883880713756538
SPLASH=splash10-00di-9720100000-c774a3ba4f1dff94c370
submitter=submitter = University of Tokyo Team (Faculty of Engineering, University of Tokyo)
MoNA Rating=3.75

>  <NUM PEAKS>  (3271) 
82

>  <MASS SPECTRAL PEAKS>  (3271) 
43 6.8
44 3.9
45 10.7
47 0.45
53 1.1
55 24.4
57 2.2
59 0.22
61 2.8
67 7.3
69 2.8
72 0.62
73 99.99
74 9
75 35.2
76 0.22
77 9.6
81 2.8
83 1.1
95 1.19
97 1.1
101 1.7
109 2.8
116 0.9
117 7.9
122 2.2
123 27.8
124 0.17
129 20.4
130 2.2
131 2.2
133 0.45
141 3.4
143 2.8
145 1.1
147 3.35
148 5.6
149 11.3
150 1.7
151 0.45
153 3.4
157 2.2
158 13
159 0.11
169 10.7
170 1.7
171 23.8
172 0.22
173 1.1
185 7.3
186 5.6
187 0.11
189 2.8
197 3.4
199 13.6
200 0.11
201 1.1
203 2.2
204 37.5
205 0.68
206 2.8
212 1.1
213 3.9
217 0.56
219 3.9
225 1.1
241 2.8
243 0.39
245 1.1
262 1.1
273 3.4
276 0.39
287 2.8
289 2.8
302 15.3
303 0.34
304 1.1
330 3.4
331 1.1
405 4.87
406 14.2
407 6.2

$$$$

     RDKit          2D

 16 16  0  0  0  0  0  0  0  0999 V2000
    3.4358    1.8707    0.0000 C   0  0  0  0  0  0  0  0  0  0  0  0
    3.9849    3.9197    0.0000 C   0  0  0  0  0  0  0  0  0  0  0  0
    1.9358    4.4687    0.0000 C   0  0  0  0  0  0  0  0  0  0  0  0
   -7.7065    4.6697    0.0000 C   0  0  0  0  0  0  0  0  0  0  0  0
   -7.7070    3.1689    0.0000 C   0  0  0  0  0  0  0  0  0  0  0  0
   -6.4070    5.4205    0.0000 C   0  0  0  0  0  0  0  0  0  0  0  0
   -2.5103    3.1697    0.0000 C   0  0  0  0  0  0  0  0  0  0  0  0
   -6.4079    2.4189    0.0000 C   0  0  0  0  0  0  0  0  0  0  0  0
   -5.1079    4.6705    0.0000 C   0  0  0  0  0  0  0  0  0  0  0  0
   -3.8094    2.4197    0.0000 C   0  0  0  0  0  0  0  0  0  0  0  0
   -1.2113    2.4197    0.0000 C   0  0  0  0  0  0  0  0  0  0  0  0
   -5.1084    3.1697    0.0000 C   0  0  0  0  0  0  0  0  0  0  0  0
    0.0877    3.1697    0.0000 C   0  0  0  0  0  0  0  0  0  0  0  0
    0.0877    4.6697    0.0000 O   0  0  0  0  0  0  0  0  0  0  0  0
    1.3868    2.4197    0.0000 O   0  0  0  0  0  0  0  0  0  0  0  0
    2.6858    3.1697    0.0000 Si  0  0  0  0  0  4  0  0  0  0  0  0
  5  4  2  0
  6  4  1  0
  8  5  1  0
  9  6  2  0
 10  7  1  0
 11  7  1  0
 12  8  2  0
 12  9  1  0
 12 10  1  0
 13 11  1  0
 14 13  2  0
 15 13  1  0
 16  1  1  0
 16  2  1  0
 16  3  1  0
 16 15  1  0
M  END
>  <NAME>  (3272) 
4-PHENYLBUTYRIC ACID TRIMETHYLSILYL ESTER

>  <SYNONYMS>  (3272) 


>  <SPECTRUM TYPE>  (3272) 
MS1

>  <INSTRUMENT TYPE>  (3272) 
EI-B

>  <INSTRUMENT>  (3272) 
JEOL JMS-01-SG

>  <ION MODE>  (3272) 
P

>  <INCHIKEY>  (3272) 
ZYYPVAODSQWOQR-UHFFFAOYSA-N

>  <FORMULA>  (3272) 
C13H20O2Si

>  <EXACT MASS>  (3272) 
236.12325641

>  <MW>  (3272) 
236

>  <ID>  (3272) 
JP007465

>  <CONTRIBUTOR>  (3272) 
University of Tokyo Team, {Faculty of Engineering, University of Tokyo

>  <COMMENT>  (3272) 
SMILES=O=C(CCCc(c1)cccc1)O[Si](C)(C)C
InChI=InChI=1S/C13H20O2Si/c1-16(2,3)15-13(14)11-7-10-12-8-5-4-6-9-12/h4-6,8-9H,7,10-11H2,1-3H3
computed SMILES=O=C(O[Si](C)(C)C)CCCC=1C=CC=CC1
accession=JP007465
date=2016.01.19 (Created 2008.10.21, modified 2011.05.06)
author=KOGA M, UNIV. OF OCCUPATIONAL AND ENVIRONMENTAL HEALTH
license=CC BY-NC-SA
exact mass=236.12326
ionization energy=70 eV
ion type=[M]+*
computed spectral entropy=2.806279274186064
computed normalized entropy=0.7137344166103365
SPLASH=splash10-01di-8930000000-d847ec0a0d973cf58f18
submitter=submitter = University of Tokyo Team (Faculty of Engineering, University of Tokyo)
MoNA Rating=3.75

>  <NUM PEAKS>  (3272) 
51

>  <MASS SPECTRAL PEAKS>  (3272) 
43 5.5
45 6.5
47 6.5
50 0.09
51 2.9
52 0.5
55 4.9
58 0.15
59 1.1
60 0.7
61 4.9
63 0.11
65 6.7
72 5.9
73 27.9
74 0.39
75 85.8
76 6.3
77 7.5
78 0.17
79 1.3
88 0.7
89 1.5
90 0.13
91 20.1
92 1.3
101 0.9
103 0.15
104 23.5
105 4.9
111 1.3
115 0.23
116 6.9
117 99.99
118 11.5
119 0.41
129 4.1
130 0.9
132 19.1
133 0.19
134 0.7
145 0.7
146 26.5
147 0.35
203 5.7
204 0.7
221 39.1
222 0.69
223 1.9
236 16.5
237 3.1

$$$$

     RDKit          2D

 23 23  0  0  0  0  0  0  0  0999 V2000
   -1.5246    1.1121    0.0000 C   0  0  0  0  0  0  0  0  0  0  0  0
   -3.5735    0.5628    0.0000 C   0  0  0  0  0  0  0  0  0  0  0  0
   -3.0242   -1.4862    0.0000 C   0  0  0  0  0  0  0  0  0  0  0  0
    5.7215    3.5631    0.0000 C   0  0  0  0  0  0  0  0  0  0  0  0
    4.2218    5.0634    0.0000 C   0  0  0  0  0  0  0  0  0  0  0  0
    2.7215    3.5636    0.0000 C   0  0  0  0  0  0  0  0  0  0  0  0
    2.9229   -3.1881    0.0000 C   0  0  0  0  0  0  0  0  0  0  0  0
    1.6233   -2.4372    0.0000 C   0  0  0  0  0  0  0  0  0  0  0  0
    4.2219   -2.4381    0.0000 C   0  0  0  0  0  0  0  0  0  0  0  0
    1.6229   -0.9364    0.0000 C   0  0  0  0  0  0  0  0  0  0  0  0
    4.2214   -0.9372    0.0000 C   0  0  0  0  0  0  0  0  0  0  0  0
    2.9219   -0.1864    0.0000 C   0  0  0  0  0  0  0  0  0  0  0  0
    0.3237   -0.1866    0.0000 C   0  0  0  0  0  0  0  0  0  0  0  0
    2.9221    1.3136    0.0000 C   0  0  0  0  0  0  0  0  0  0  0  0
    5.5205   -0.1872    0.0000 N   0  0  0  0  0  0  0  0  0  0  0  0
    0.3235    1.3134    0.0000 O   0  0  0  0  0  0  0  0  0  0  0  0
    1.6232    2.0638    0.0000 O   0  0  0  0  0  0  0  0  0  0  0  0
    6.8195   -0.9372    0.0000 O   0  0  0  0  0  0  0  0  0  0  0  0
    5.5205    1.3128    0.0000 O   0  0  0  0  0  0  0  0  0  0  0  0
   -0.9752   -0.9368    0.0000 O   0  0  0  0  0  0  0  0  0  0  0  0
    4.2213    2.0634    0.0000 O   0  0  0  0  0  0  0  0  0  0  0  0
   -2.2744   -0.1870    0.0000 Si  0  0  0  0  0  4  0  0  0  0  0  0
    4.2215    3.5634    0.0000 Si  0  0  0  0  0  4  0  0  0  0  0  0
  8  7  2  0
  9  7  1  0
 10  8  1  0
 11  9  2  0
 12 10  2  0
 12 11  1  0
 13 10  1  0
 14 12  1  0
 15 11  1  0
 16 13  2  0
 17 14  2  0
 18 15  1  0
 19 15  2  0
 20 13  1  0
 21 14  1  0
 22  1  1  0
 22  2  1  0
 22  3  1  0
 22 20  1  0
 23  4  1  0
 23  5  1  0
 23  6  1  0
 23 21  1  0
M  CHG  2  15   1  18  -1
M  END
>  <NAME>  (3273) 
3-NITROPHTHALIC ACID BIS(TRIMETHYLSILYL) ESTER

>  <SYNONYMS>  (3273) 


>  <SPECTRUM TYPE>  (3273) 
MS1

>  <INSTRUMENT TYPE>  (3273) 
EI-B

>  <INSTRUMENT>  (3273) 
JEOL JMS-01-SG

>  <ION MODE>  (3273) 
P

>  <INCHIKEY>  (3273) 
SOQMOBLTNMMSNJ-UHFFFAOYSA-N

>  <FORMULA>  (3273) 
C14H21NO6Si2

>  <EXACT MASS>  (3273) 
355.09074045200003

>  <MW>  (3273) 
355

>  <ID>  (3273) 
JP007464

>  <CONTRIBUTOR>  (3273) 
University of Tokyo Team, {Faculty of Engineering, University of Tokyo

>  <COMMENT>  (3273) 
SMILES=[O-1][N+1](=O)c(c1)c(C(=O)O[Si](C)(C)C)c(cc1)C(=O)O[Si](C)(C)C
InChI=InChI=1S/C14H21NO6Si2/c1-22(2,3)20-13(16)10-8-7-9-11(15(18)19)12(10)14(17)21-23(4,5)6/h7-9H,1-6H3
computed SMILES=O=C(O[Si](C)(C)C)C1=CC=CC(=C1C(=O)O[Si](C)(C)C)N(=O)=O
accession=JP007464
date=2016.01.19 (Created 2008.10.21, modified 2011.05.06)
author=KOGA M, UNIV. OF OCCUPATIONAL AND ENVIRONMENTAL HEALTH
license=CC BY-NC-SA
exact mass=355.09074
ionization energy=70 eV
ion type=[M]+*
computed spectral entropy=2.394645458120979
computed normalized entropy=0.7349829663350479
SPLASH=splash10-006t-9802000000-dffc91f42b16070d5c87
submitter=submitter = University of Tokyo Team (Faculty of Engineering, University of Tokyo)
MoNA Rating=3.75

>  <NUM PEAKS>  (3273) 
26

>  <MASS SPECTRAL PEAKS>  (3273) 
43 12.8
44 15.7
45 10
47 0.28
51 1.4
55 12.8
69 5.7
72 0.42
73 62.8
74 5.7
75 25.7
77 0.28
115 1.4
117 4.2
119 1.4
129 0.42
131 4.2
132 8.5
133 5.7
141 0.14
147 99.99
148 12.8
149 8.5
296 0.71
340 31.4
341 7.1

$$$$

     RDKit          2D

 21 22  0  0  0  0  0  0  0  0999 V2000
   -4.4468    2.7995    0.0000 C   0  0  0  0  0  0  0  0  0  0  0  0
   -6.4959    2.2508    0.0000 C   0  0  0  0  0  0  0  0  0  0  0  0
   -5.9472    0.2017    0.0000 C   0  0  0  0  0  0  0  0  0  0  0  0
    7.7948   -3.0010    0.0000 C   0  0  0  0  0  0  0  0  0  0  0  0
    6.4952   -3.7517    0.0000 C   0  0  0  0  0  0  0  0  0  0  0  0
    7.7956   -1.5002    0.0000 C   0  0  0  0  0  0  0  0  0  0  0  0
    5.1963   -3.0015    0.0000 C   0  0  0  0  0  0  0  0  0  0  0  0
    6.4966   -0.7500    0.0000 C   0  0  0  0  0  0  0  0  0  0  0  0
   -1.3000   -0.7500    0.0000 C   0  0  0  0  0  0  0  0  0  0  0  0
    0.0000    1.5000    0.0000 C   0  0  0  0  0  0  0  0  0  0  0  0
    0.0000   -1.5000    0.0000 C   0  0  0  0  0  0  0  0  0  0  0  0
    1.3000    0.7500    0.0000 C   0  0  0  0  0  0  0  0  0  0  0  0
   -1.3000    0.7500    0.0000 C   0  0  0  0  0  0  0  0  0  0  0  0
    5.1970   -1.5006    0.0000 C   0  0  0  0  0  0  0  0  0  0  0  0
    1.3000   -0.7500    0.0000 C   0  0  0  0  0  0  0  0  0  0  0  0
   -2.5989    1.5002    0.0000 C   0  0  0  0  0  0  0  0  0  0  0  0
    3.8981   -0.7504    0.0000 N   0  0  0  0  0  0  0  0  0  0  0  0
    2.5989   -1.5002    0.0000 N   0  0  0  0  0  0  0  0  0  0  0  0
   -2.5987    3.0002    0.0000 O   0  0  0  0  0  0  0  0  0  0  0  0
   -3.8981    0.7504    0.0000 O   0  0  0  0  0  0  0  0  0  0  0  0
   -5.1970    1.5006    0.0000 Si  0  0  0  0  0  4  0  0  0  0  0  0
  5  4  2  0
  6  4  1  0
  7  5  1  0
  8  6  2  0
 11  9  2  0
 12 10  1  0
 13  9  1  0
 13 10  2  0
 14  7  2  0
 14  8  1  0
 15 11  1  0
 15 12  2  0
 16 13  1  0
 17 14  1  0
 18 15  1  0
 17 18  2  0
 19 16  2  0
 20 16  1  0
 21  1  1  0
 21  2  1  0
 21  3  1  0
 21 20  1  0
M  END
>  <NAME>  (3274) 
4-PHENYLAZOBENZOIC ACID TRIMETHYLSILYL ESTER

>  <SYNONYMS>  (3274) 


>  <SPECTRUM TYPE>  (3274) 
MS1

>  <INSTRUMENT TYPE>  (3274) 
EI-B

>  <INSTRUMENT>  (3274) 
JEOL JMS-01-SG

>  <ION MODE>  (3274) 
P

>  <INCHIKEY>  (3274) 
AVYNALGDJMJGPJ-ISLYRVAYSA-N

>  <FORMULA>  (3274) 
C16H18N2O2Si

>  <EXACT MASS>  (3274) 
298.113754346

>  <MW>  (3274) 
298

>  <ID>  (3274) 
JP007463

>  <CONTRIBUTOR>  (3274) 
University of Tokyo Team, {Faculty of Engineering, University of Tokyo

>  <COMMENT>  (3274) 
SMILES=c(c2)ccc(c2)N=Nc(c1)ccc(c1)C(=O)O[Si](C)(C)C
InChI=InChI=1S/C16H18N2O2Si/c1-21(2,3)20-16(19)13-9-11-15(12-10-13)18-17-14-7-5-4-6-8-14/h4-12H,1-3H3/b18-17+
computed SMILES=O=C(O[Si](C)(C)C)C1=CC=C(N=NC=2C=CC=CC2)C=C1
accession=JP007463
date=2016.01.19 (Created 2008.10.21, modified 2011.05.06)
author=KOGA M, UNIV. OF OCCUPATIONAL AND ENVIRONMENTAL HEALTH
license=CC BY-NC-SA
exact mass=298.11375
ionization energy=70 eV
ion type=[M]+*
computed spectral entropy=2.8326670466385497
computed normalized entropy=0.720445744862755
SPLASH=splash10-0fb9-9840000000-e8afa1e3ad218f9477fd
submitter=submitter = University of Tokyo Team (Faculty of Engineering, University of Tokyo)
MoNA Rating=3.75

>  <NUM PEAKS>  (3274) 
51

>  <MASS SPECTRAL PEAKS>  (3274) 
43 2
44 2
45 6.1
47 0.14
50 4.3
51 7.8
55 2
57 0.29
63 1.4
64 1.1
65 1.7
73 3.02
74 2.9
75 8.7
76 20.9
77 99.99
78 8.7
89 1.1
91 1.4
92 0.2
93 1.7
103 62.2
104 22.3
105 5.55
106 3.4
120 1.1
121 1.1
134 0.14
135 2.9
149 1.1
150 1.4
151 0.14
152 3.4
153 2.3
178 2.3
180 0.14
181 3.4
187 4
193 46.5
194 0.84
195 1.7
209 9.3
211 1.1
221 0.61
239 4.3
283 18.8
284 3.4
285 0.14
298 42.7
299 10.1
300 4

$$$$

     RDKit          2D

 29 28  0  0  0  0  0  0  0  0999 V2000
    0.6495    4.1250    0.0000 C   0  0  0  0  0  0  0  0  0  0  0  0
    0.1005   12.1740    0.0000 C   0  0  0  0  0  0  0  0  0  0  0  0
    0.6495   10.1250    0.0000 C   0  0  0  0  0  0  0  0  0  0  0  0
   -1.3995    9.5760    0.0000 C   0  0  0  0  0  0  0  0  0  0  0  0
  -18.0861   15.1740    0.0000 C   0  0  0  0  0  0  0  0  0  0  0  0
  -20.1351   14.6250    0.0000 C   0  0  0  0  0  0  0  0  0  0  0  0
  -19.5861   12.5760    0.0000 C   0  0  0  0  0  0  0  0  0  0  0  0
   -0.6495    4.8750    0.0000 C   0  0  0  0  0  0  0  0  0  0  0  0
   -0.6495    6.3750    0.0000 C   0  0  0  0  0  0  0  0  0  0  0  0
   -1.9486    7.1250    0.0000 C   0  0  0  0  0  0  0  0  0  0  0  0
   -8.4437   13.8750    0.0000 C   0  0  0  0  0  0  0  0  0  0  0  0
   -9.7428   13.1250    0.0000 C   0  0  0  0  0  0  0  0  0  0  0  0
   -7.1447   13.1250    0.0000 C   0  0  0  0  0  0  0  0  0  0  0  0
  -11.0418   13.8750    0.0000 C   0  0  0  0  0  0  0  0  0  0  0  0
   -5.8457   13.8750    0.0000 C   0  0  0  0  0  0  0  0  0  0  0  0
  -12.3409   13.1250    0.0000 C   0  0  0  0  0  0  0  0  0  0  0  0
   -1.9486    8.6250    0.0000 C   0  0  0  0  0  0  0  0  0  0  0  0
   -4.5466   13.1250    0.0000 C   0  0  0  0  0  0  0  0  0  0  0  0
  -13.6399   13.8750    0.0000 C   0  0  0  0  0  0  0  0  0  0  0  0
   -3.2476    9.3750    0.0000 C   0  0  0  0  0  0  0  0  0  0  0  0
   -4.5466   11.6250    0.0000 C   0  0  0  0  0  0  0  0  0  0  0  0
  -14.9389   13.1250    0.0000 C   0  0  0  0  0  0  0  0  0  0  0  0
   -3.2476   10.8750    0.0000 C   0  0  0  0  0  0  0  0  0  0  0  0
  -16.2380   13.8750    0.0000 C   0  0  0  0  0  0  0  0  0  0  0  0
  -16.2380   15.3750    0.0000 O   0  0  0  0  0  0  0  0  0  0  0  0
   -1.9486   11.6250    0.0000 O   0  0  0  0  0  0  0  0  0  0  0  0
  -17.5370   13.1250    0.0000 O   0  0  0  0  0  0  0  0  0  0  0  0
   -0.6495   10.8750    0.0000 Si  0  0  0  0  0  4  0  0  0  0  0  0
  -18.8361   13.8750    0.0000 Si  0  0  0  0  0  4  0  0  0  0  0  0
  8  1  1  0
  9  8  1  0
 10  9  1  0
 12 11  1  0
 13 11  1  0
 14 12  1  0
 15 13  1  0
 16 14  1  0
 17 10  1  0
 15 18  2  0
 19 16  1  0
 20 17  1  0
 21 18  1  0
 22 19  1  0
 23 20  1  0
 23 21  1  0
 24 22  1  0
 25 24  2  0
 26 23  1  0
 27 24  1  0
 28  2  1  0
 28  3  1  0
 28  4  1  0
 28 26  1  0
 29  5  1  0
 29  6  1  0
 29  7  1  0
 29 27  1  0
M  END
>  <NAME>  (3275) 
D-12-TRIMETHYLSILOXY-CIS-9-OCTADECENOICACID TRIMETHYLSILYL ESTER

>  <SYNONYMS>  (3275) 
D-12-TRIMETHYLSILOXYOLEIC ACID TRIMETHYLSILYL ESTER

>  <SPECTRUM TYPE>  (3275) 
MS1

>  <INSTRUMENT TYPE>  (3275) 
EI-B

>  <INSTRUMENT>  (3275) 
JEOL JMS-01-SG

>  <ION MODE>  (3275) 
P

>  <INCHIKEY>  (3275) 
LBRTWLSBAWJDOP-SDXDJHTJSA-N

>  <FORMULA>  (3275) 
C24H50O3Si2

>  <EXACT MASS>  (3275) 
442.32984852000004

>  <MW>  (3275) 
442

>  <ID>  (3275) 
JP007462

>  <CONTRIBUTOR>  (3275) 
University of Tokyo Team, {Faculty of Engineering, University of Tokyo

>  <COMMENT>  (3275) 
SMILES=CCCCCCC(CC=CCCCCCCCC(=O)O[Si](C)(C)C)O[Si](C)(C)C
InChI=InChI=1S/C24H50O3Si2/c1-8-9-10-17-20-23(26-28(2,3)4)21-18-15-13-11-12-14-16-19-22-24(25)27-29(5,6)7/h15,18,23H,8-14,16-17,19-22H2,1-7H3/b18-15-
computed SMILES=O=C(O[Si](C)(C)C)CCCCCCCC=CCC(O[Si](C)(C)C)CCCCCC
accession=JP007462
date=2016.01.19 (Created 2008.10.21, modified 2011.05.06)
author=KOGA M, UNIV. OF OCCUPATIONAL AND ENVIRONMENTAL HEALTH
license=CC BY-NC-SA
exact mass=442.32985
ionization energy=70 eV
ion type=[M]+*
computed spectral entropy=2.4189703379724343
computed normalized entropy=0.6649932762429429
SPLASH=splash10-000i-8900000000-a530d57351ad4770c286
submitter=submitter = University of Tokyo Team (Faculty of Engineering, University of Tokyo)
MoNA Rating=3.75

>  <NUM PEAKS>  (3275) 
38

>  <MASS SPECTRAL PEAKS>  (3275) 
43 1.4
45 2.2
47 1.4
55 2.44
56 1.4
67 4.4
69 5.1
71 0.14
73 54
74 5.1
75 20
76 0.14
79 1.4
81 5.1
83 2.2
91 0.14
93 1.4
95 3.7
97 13.3
103 1.7
109 1.4
117 2.9
129 8.1
147 0.51
149 1.4
187 99.99
188 16.2
189 0.29
204 1.4
217 3.7
296 1.4
328 2.29
329 5.1
330 1.4
337 1.4
357 0.22
411 3.7
427 2.9

$$$$

     RDKit          2D

 17 17  0  0  0  0  0  0  0  0999 V2000
    7.3970   -1.4714    0.0000 C   0  0  0  0  0  0  0  0  0  0  0  0
   -3.5450    2.0692    0.0000 C   0  0  0  0  0  0  0  0  0  0  0  0
   -5.5967    1.5303    0.0000 C   0  0  0  0  0  0  0  0  0  0  0  0
   -5.0578   -0.5214    0.0000 C   0  0  0  0  0  0  0  0  0  0  0  0
    6.1042   -2.2321    0.0000 C   0  0  0  0  0  0  0  0  0  0  0  0
    0.8910    0.7547    0.0000 C   0  0  0  0  0  0  0  0  0  0  0  0
   -0.4225   -1.4701    0.0000 C   0  0  0  0  0  0  0  0  0  0  0  0
    2.1756    0.0299    0.0000 C   0  0  0  0  0  0  0  0  0  0  0  0
    0.9020   -2.2643    0.0000 C   0  0  0  0  0  0  0  0  0  0  0  0
    4.7990   -1.4928    0.0000 C   0  0  0  0  0  0  0  0  0  0  0  0
   -0.4080    0.0047    0.0000 C   0  0  0  0  0  0  0  0  0  0  0  0
    2.2010   -1.5143    0.0000 C   0  0  0  0  0  0  0  0  0  0  0  0
   -1.7033    0.7611    0.0000 C   0  0  0  0  0  0  0  0  0  0  0  0
   -1.6959    2.2611    0.0000 O   0  0  0  0  0  0  0  0  0  0  0  0
    3.5062   -2.2535    0.0000 O   0  0  0  0  0  0  0  0  0  0  0  0
   -3.0060    0.0175    0.0000 O   0  0  0  0  0  0  0  0  0  0  0  0
   -4.3014    0.7739    0.0000 Si  0  0  0  0  0  4  0  0  0  0  0  0
  5  1  1  0
  8  6  2  0
  9  7  1  0
 10  5  1  0
 11  6  1  0
 11  7  2  0
 12  8  1  0
 12  9  2  0
 13 11  1  0
 14 13  2  0
 15 10  1  0
 15 12  1  0
 16 13  1  0
 17  2  1  0
 17  3  1  0
 17  4  1  0
 17 16  1  0
M  END
>  <NAME>  (3276) 
4-PROPOXYBENZOIC ACID TRIMETHYLSILYL ESTER

>  <SYNONYMS>  (3276) 


>  <SPECTRUM TYPE>  (3276) 
MS1

>  <INSTRUMENT TYPE>  (3276) 
EI-B

>  <INSTRUMENT>  (3276) 
JEOL JMS-01-SG

>  <ION MODE>  (3276) 
P

>  <INCHIKEY>  (3276) 
KDBNKAABHTUJBG-UHFFFAOYSA-N

>  <FORMULA>  (3276) 
C13H20O3Si

>  <EXACT MASS>  (3276) 
252.11817102999998

>  <MW>  (3276) 
252

>  <ID>  (3276) 
JP007461

>  <CONTRIBUTOR>  (3276) 
University of Tokyo Team, {Faculty of Engineering, University of Tokyo

>  <COMMENT>  (3276) 
SMILES=CCCOc(c1)ccc(c1)C(=O)O[Si](C)(C)C
InChI=InChI=1S/C13H20O3Si/c1-5-10-15-12-8-6-11(7-9-12)13(14)16-17(2,3)4/h6-9H,5,10H2,1-4H3
computed SMILES=O=C(O[Si](C)(C)C)C1=CC=C(OCCC)C=C1
accession=JP007461
date=2016.01.19 (Created 2008.10.21, modified 2011.05.06)
author=KOGA M, UNIV. OF OCCUPATIONAL AND ENVIRONMENTAL HEALTH
license=CC BY-NC-SA
exact mass=252.11817
ionization energy=70 eV
ion type=[M]+*
computed spectral entropy=2.664834462880485
computed normalized entropy=0.7495284334451708
SPLASH=splash10-000j-4980000000-ce5dcb9aafb4267d61f1
submitter=submitter = University of Tokyo Team (Faculty of Engineering, University of Tokyo)
MoNA Rating=3.75

>  <NUM PEAKS>  (3276) 
35

>  <MASS SPECTRAL PEAKS>  (3276) 
43 8.3
45 3.3
47 2.5
50 0.13
63 2.5
64 7.1
65 12.2
73 0.81
75 14.5
76 4.4
77 2.7
89 0.13
92 8.1
93 14.5
103 1.3
104 0.22
120 1.6
121 45.5
122 6.7
151 2.06
163 23.4
164 2.5
166 1.6
193 4.24
194 9.4
195 71.7
196 10
197 0.3
237 99.99
238 18.4
239 6.1
251 0.16
252 35.7
253 5.5
254 1.6

$$$$

     RDKit          2D

 13 13  0  0  0  0  0  0  0  0999 V2000
    5.5772   -0.0083    0.0000 C   0  0  0  0  0  0  0  0  0  0  0  0
    6.1259    2.0408    0.0000 C   0  0  0  0  0  0  0  0  0  0  0  0
    4.0768    2.5895    0.0000 C   0  0  0  0  0  0  0  0  0  0  0  0
   -0.3700   -1.7100    0.0000 C   0  0  0  0  0  0  0  0  0  0  0  0
   -1.6700   -0.9600    0.0000 C   0  0  0  0  0  0  0  0  0  0  0  0
    0.9300   -0.9600    0.0000 C   0  0  0  0  0  0  0  0  0  0  0  0
   -1.6700    0.5400    0.0000 C   0  0  0  0  0  0  0  0  0  0  0  0
    0.9300    0.5400    0.0000 C   0  0  0  0  0  0  0  0  0  0  0  0
    2.2289    1.2902    0.0000 C   0  0  0  0  0  0  0  0  0  0  0  0
   -0.3700    1.2900    0.0000 N   0  0  0  0  0  0  0  0  0  0  0  0
    2.2287    2.7902    0.0000 O   0  0  0  0  0  0  0  0  0  0  0  0
    3.5281    0.5404    0.0000 O   0  0  0  0  0  0  0  0  0  0  0  0
    4.8270    1.2906    0.0000 Si  0  0  0  0  0  4  0  0  0  0  0  0
  5  4  2  0
  6  4  1  0
  7  5  1  0
  8  6  2  0
  9  8  1  0
 10  7  2  0
 10  8  1  0
 11  9  2  0
 12  9  1  0
 13  1  1  0
 13  2  1  0
 13  3  1  0
 13 12  1  0
M  END
>  <NAME>  (3277) 
PYRIDINE-ALPHA-CARBOXYLIC ACID TRIMETHYLSILYL ESTER

>  <SYNONYMS>  (3277) 
PICOLINIC ACID TRIMETHYLSILYL ESTER

>  <SPECTRUM TYPE>  (3277) 
MS1

>  <INSTRUMENT TYPE>  (3277) 
EI-B

>  <INSTRUMENT>  (3277) 
JEOL JMS-01-SG

>  <ION MODE>  (3277) 
P

>  <INCHIKEY>  (3277) 
MKGLHHAHWDNTEJ-UHFFFAOYSA-N

>  <FORMULA>  (3277) 
C9H13NO2Si

>  <EXACT MASS>  (3277) 
195.071555186

>  <MW>  (3277) 
195

>  <ID>  (3277) 
JP007460

>  <CONTRIBUTOR>  (3277) 
University of Tokyo Team, {Faculty of Engineering, University of Tokyo

>  <COMMENT>  (3277) 
SMILES=O=C(O[Si](C)(C)C)c(c1)nccc1
InChI=InChI=1S/C9H13NO2Si/c1-13(2,3)12-9(11)8-6-4-5-7-10-8/h4-7H,1-3H3
computed SMILES=O=C(O[Si](C)(C)C)C1=NC=CC=C1
accession=JP007460
date=2016.01.19 (Created 2008.10.21, modified 2011.05.06)
author=KOGA M, UNIV. OF OCCUPATIONAL AND ENVIRONMENTAL HEALTH
license=CC BY-NC-SA
exact mass=195.07156
ionization energy=70 eV
ion type=[M]+*
computed spectral entropy=2.246535945596149
computed normalized entropy=0.6049528338869393
SPLASH=splash10-001i-3900000000-a71e81bd13bf02d92acc
submitter=submitter = University of Tokyo Team (Faculty of Engineering, University of Tokyo)
MoNA Rating=3.75

>  <NUM PEAKS>  (3277) 
41

>  <MASS SPECTRAL PEAKS>  (3277) 
43 3.8
44 3.2
45 2.2
47 0.12
49 0.6
50 1.2
51 6.8
52 0.16
55 1.6
58 0.9
59 1.6
61 0.06
68 4.2
69 1.2
72 3.8
73 1.13
74 0.9
77 2.5
78 28.5
79 0.22
83 0.6
84 0.6
92 0.9
93 0.32
95 0.6
106 5.1
108 0.6
122 0.09
136 22.4
137 2.9
138 0.6
150 0.58
151 3.2
152 5.1
166 0.6
167 0.9
168 1.9
180 99.99
181 14.2
182 0.35
195 0.9

$$$$

     RDKit          2D

 17 17  0  0  0  0  0  0  0  0999 V2000
    2.4976   -1.6740    0.0000 C   0  0  0  0  0  0  0  0  0  0  0  0
    4.5466   -1.1250    0.0000 C   0  0  0  0  0  0  0  0  0  0  0  0
    3.9976    0.9240    0.0000 C   0  0  0  0  0  0  0  0  0  0  0  0
   -3.7966    3.9240    0.0000 C   0  0  0  0  0  0  0  0  0  0  0  0
   -5.8457    3.3750    0.0000 C   0  0  0  0  0  0  0  0  0  0  0  0
   -5.2966    1.3260    0.0000 C   0  0  0  0  0  0  0  0  0  0  0  0
   -0.6500    0.3742    0.0000 C   0  0  0  0  0  0  0  0  0  0  0  0
    0.6500    2.6258    0.0000 C   0  0  0  0  0  0  0  0  0  0  0  0
    0.6490   -0.3758    0.0000 C   0  0  0  0  0  0  0  0  0  0  0  0
    1.9490    1.8758    0.0000 C   0  0  0  0  0  0  0  0  0  0  0  0
   -0.6495    1.8750    0.0000 C   0  0  0  0  0  0  0  0  0  0  0  0
   -1.9486    2.6250    0.0000 C   0  0  0  0  0  0  0  0  0  0  0  0
    1.9486    0.3750    0.0000 N   0  0  0  0  0  0  0  0  0  0  0  0
   -1.9486    4.1250    0.0000 O   0  0  0  0  0  0  0  0  0  0  0  0
   -3.2476    1.8750    0.0000 O   0  0  0  0  0  0  0  0  0  0  0  0
    3.2476   -0.3750    0.0000 Si  0  0  0  0  0  4  0  0  0  0  0  0
   -4.5466    2.6250    0.0000 Si  0  0  0  0  0  4  0  0  0  0  0  0
  9  7  1  0
 10  8  1  0
 11  7  1  0
 11  8  1  0
 12 11  1  0
 13  9  1  0
 13 10  1  0
 14 12  2  0
 15 12  1  0
 16  1  1  0
 16  2  1  0
 16  3  1  0
 16 13  1  0
 17  4  1  0
 17  5  1  0
 17  6  1  0
 17 15  1  0
M  END
>  <NAME>  (3278) 
N-TRIMETHYLSILYLPIPERIDINE-4-CARBOXYLIC ACID TRIMETHYLSILYL ESTER

>  <SYNONYMS>  (3278) 
N-TRIMETHYLSILYLISONIPECOTIC ACID TRIMETHYLSILYL ESTER

>  <SPECTRUM TYPE>  (3278) 
MS1

>  <INSTRUMENT TYPE>  (3278) 
EI-B

>  <INSTRUMENT>  (3278) 
JEOL JMS-01-SG

>  <ION MODE>  (3278) 
P

>  <INCHIKEY>  (3278) 
MXZYZEAYOWHFPB-UHFFFAOYSA-N

>  <FORMULA>  (3278) 
C12H27NO2Si2

>  <EXACT MASS>  (3278) 
273.15803216399996

>  <MW>  (3278) 
273

>  <ID>  (3278) 
JP007459

>  <CONTRIBUTOR>  (3278) 
University of Tokyo Team, {Faculty of Engineering, University of Tokyo

>  <COMMENT>  (3278) 
SMILES=O=C(O[Si](C)(C)C)C(C1)CCN(C1)[Si](C)(C)C
InChI=InChI=1S/C12H27NO2Si2/c1-16(2,3)13-9-7-11(8-10-13)12(14)15-17(4,5)6/h11H,7-10H2,1-6H3
computed SMILES=O=C(O[Si](C)(C)C)C1CCN(CC1)[Si](C)(C)C
accession=JP007459
date=2016.01.19 (Created 2008.10.21, modified 2011.05.06)
author=KOGA M, UNIV. OF OCCUPATIONAL AND ENVIRONMENTAL HEALTH
license=CC BY-NC-SA
exact mass=273.15803
ionization energy=70 eV
ion type=[M]+*
computed spectral entropy=3.162972296419687
computed normalized entropy=0.7966598842828798
SPLASH=splash10-0adi-5950000000-c8c60fbcab36380df21b
submitter=submitter = University of Tokyo Team (Faculty of Engineering, University of Tokyo)
MoNA Rating=3.75

>  <NUM PEAKS>  (3278) 
53

>  <MASS SPECTRAL PEAKS>  (3278) 
43 4.4
45 18.7
47 3.5
55 0.8
57 4.4
58 3.5
59 16.9
68 0.35
69 3.5
71 3.5
73 85.7
74 1.25
75 9.8
77 2.6
82 22.3
83 0.8
86 5.3
100 4.4
101 4.4
102 1.25
114 9.8
115 22.3
116 12.5
117 0.35
119 3.5
121 9.8
128 99.99
129 2.76
130 8.9
131 3.5
133 7.1
147 5.71
148 6.2
149 7.1
154 17.8
155 0.8
156 49.1
157 8
158 7.1
168 0.35
184 16
185 2.6
200 30.3
201 0.98
230 12.5
245 5.3
258 93.7
259 2.14
260 8
262 4.4
272 14.2
273 2.58
274 7.1

$$$$

     RDKit          2D

 17 17  0  0  0  0  0  0  0  0999 V2000
   -4.8583    1.6104    0.0000 C   0  0  0  0  0  0  0  0  0  0  0  0
   -6.9074    1.0614    0.0000 C   0  0  0  0  0  0  0  0  0  0  0  0
   -6.3583   -0.9877    0.0000 C   0  0  0  0  0  0  0  0  0  0  0  0
    2.9363   -0.9876    0.0000 C   0  0  0  0  0  0  0  0  0  0  0  0
    3.4857    1.0614    0.0000 C   0  0  0  0  0  0  0  0  0  0  0  0
    1.4367    1.6107    0.0000 C   0  0  0  0  0  0  0  0  0  0  0  0
   -3.0107   -2.6895    0.0000 C   0  0  0  0  0  0  0  0  0  0  0  0
   -1.7112   -1.9386    0.0000 C   0  0  0  0  0  0  0  0  0  0  0  0
   -4.3098   -1.9395    0.0000 C   0  0  0  0  0  0  0  0  0  0  0  0
   -3.0098    0.3122    0.0000 C   0  0  0  0  0  0  0  0  0  0  0  0
   -1.7107   -0.4378    0.0000 C   0  0  0  0  0  0  0  0  0  0  0  0
   -0.4116    0.3120    0.0000 C   0  0  0  0  0  0  0  0  0  0  0  0
   -4.3093   -0.4386    0.0000 N   0  0  0  0  0  0  0  0  0  0  0  0
   -0.4113    1.8120    0.0000 O   0  0  0  0  0  0  0  0  0  0  0  0
    0.8873   -0.4382    0.0000 O   0  0  0  0  0  0  0  0  0  0  0  0
   -5.6083    0.3114    0.0000 Si  0  0  0  0  0  4  0  0  0  0  0  0
    2.1865    0.3116    0.0000 Si  0  0  0  0  0  4  0  0  0  0  0  0
  8  7  1  0
  9  7  1  0
 11  8  1  0
 11 10  1  0
 12 11  1  0
 13  9  1  0
 13 10  1  0
 14 12  2  0
 15 12  1  0
 16  1  1  0
 16  2  1  0
 16  3  1  0
 16 13  1  0
 17  4  1  0
 17  5  1  0
 17  6  1  0
 17 15  1  0
M  END
>  <NAME>  (3279) 
N-TRIMETHYLSILYLPIPERIDINE-3-CARBOXYLIC ACID TRIMETHYLSILYL ESTER

>  <SYNONYMS>  (3279) 
N-TRIMETHYLSILYLNIPECOTIC ACID TRIMETHYLSILYL ESTER

>  <SPECTRUM TYPE>  (3279) 
MS1

>  <INSTRUMENT TYPE>  (3279) 
EI-B

>  <INSTRUMENT>  (3279) 
JEOL JMS-01-SG

>  <ION MODE>  (3279) 
P

>  <INCHIKEY>  (3279) 
WCOKGOUKDLOCER-UHFFFAOYSA-N

>  <FORMULA>  (3279) 
C12H27NO2Si2

>  <EXACT MASS>  (3279) 
273.15803216399996

>  <MW>  (3279) 
273

>  <ID>  (3279) 
JP007458

>  <CONTRIBUTOR>  (3279) 
University of Tokyo Team, {Faculty of Engineering, University of Tokyo

>  <COMMENT>  (3279) 
SMILES=O=C(O[Si](C)(C)C)C(C1)CN(CC1)[Si](C)(C)C
InChI=InChI=1S/C12H27NO2Si2/c1-16(2,3)13-9-7-8-11(10-13)12(14)15-17(4,5)6/h11H,7-10H2,1-6H3
computed SMILES=O=C(O[Si](C)(C)C)C1CN(CCC1)[Si](C)(C)C
accession=JP007458
date=2016.01.19 (Created 2008.10.21, modified 2011.05.06)
author=KOGA M, UNIV. OF OCCUPATIONAL AND ENVIRONMENTAL HEALTH
license=CC BY-NC-SA
exact mass=273.15803
ionization energy=70 eV
ion type=[M]+*
computed spectral entropy=3.6162771849096735
computed normalized entropy=0.8036511430147346
SPLASH=splash10-0ac0-9870000000-5cd1bc66e944b043ab6f
submitter=submitter = University of Tokyo Team (Faculty of Engineering, University of Tokyo)
MoNA Rating=3.75

>  <NUM PEAKS>  (3279) 
90

>  <MASS SPECTRAL PEAKS>  (3279) 
42 2.1
43 2.8
44 2.8
45 2.15
47 5
51 4.3
55 15.8
56 1.07
57 23
58 2.8
59 15.1
61 0.28
66 4.3
67 2.1
68 2.8
72 0.28
73 99.99
74 8.6
75 19.4
76 0.21
77 2.8
78 7.1
79 2.1
80 0.21
81 2.8
82 12.9
83 15.1
84 3.45
85 5
86 14.3
87 2.1
93 0.14
94 2.1
99 1.4
100 8.6
101 1.43
102 10
103 2.1
106 5.7
108 0.57
110 5.7
112 1.4
114 5
115 1.15
116 34.5
117 4.3
121 2.8
128 5.32
129 25.8
130 4.3
131 13.6
133 0.64
135 2.8
136 7.1
140 3.5
142 0.57
143 5
145 3.5
147 61.1
148 0.79
149 5
154 9.3
155 11.5
156 3.95
157 6.4
158 2.1
168 2.1
180 1.51
181 2.1
182 2.8
184 5
186 0.86
190 6.4
200 12.9
201 6.4
217 0.28
230 80.5
231 14.3
232 7.1
244 0.57
245 3.5
258 77.6
259 16.5
260 0.79
261 1.4
262 1.4
272 12.2
273 1.72
274 5
275 1.4

$$$$

     RDKit          2D

 18 18  0  0  0  0  0  0  0  0999 V2000
    4.5589    1.1761    0.0000 C   0  0  0  0  0  0  0  0  0  0  0  0
    5.1082    3.2250    0.0000 C   0  0  0  0  0  0  0  0  0  0  0  0
    3.0593    3.7744    0.0000 C   0  0  0  0  0  0  0  0  0  0  0  0
   -1.9368    1.5240    0.0000 C   0  0  0  0  0  0  0  0  0  0  0  0
   -3.9857    0.9746    0.0000 C   0  0  0  0  0  0  0  0  0  0  0  0
   -3.4364   -1.0743    0.0000 C   0  0  0  0  0  0  0  0  0  0  0  0
    2.5106   -2.7762    0.0000 C   0  0  0  0  0  0  0  0  0  0  0  0
    3.8097   -2.0262    0.0000 C   0  0  0  0  0  0  0  0  0  0  0  0
    1.2111   -2.0254    0.0000 C   0  0  0  0  0  0  0  0  0  0  0  0
    3.8092   -0.5254    0.0000 C   0  0  0  0  0  0  0  0  0  0  0  0
    1.2106   -0.5246    0.0000 C   0  0  0  0  0  0  0  0  0  0  0  0
    2.5097    0.2254    0.0000 C   0  0  0  0  0  0  0  0  0  0  0  0
   -0.0885    0.2252    0.0000 C   0  0  0  0  0  0  0  0  0  0  0  0
   -0.0888    1.7252    0.0000 O   0  0  0  0  0  0  0  0  0  0  0  0
    2.5099    1.7254    0.0000 O   0  0  0  0  0  0  0  0  0  0  0  0
   -1.3874   -0.5250    0.0000 O   0  0  0  0  0  0  0  0  0  0  0  0
    3.8091    2.4752    0.0000 Si  0  0  0  0  0  4  0  0  0  0  0  0
   -2.6866    0.2248    0.0000 Si  0  0  0  0  0  4  0  0  0  0  0  0
  8  7  2  0
  9  7  1  0
 10  8  1  0
 11  9  2  0
 12 10  2  0
 12 11  1  0
 13 11  1  0
 14 13  2  0
 15 12  1  0
 16 13  1  0
 17  1  1  0
 17  2  1  0
 17  3  1  0
 17 15  1  0
 18  4  1  0
 18  5  1  0
 18  6  1  0
 18 16  1  0
M  END
>  <NAME>  (3280) 
2-TRIMETHYLSILOXYBENZOIC ACID TRIMETHYLSILYL ESTER

>  <SYNONYMS>  (3280) 


>  <SPECTRUM TYPE>  (3280) 
MS1

>  <INSTRUMENT TYPE>  (3280) 
EI-B

>  <INSTRUMENT>  (3280) 
JEOL JMS-01-SG

>  <ION MODE>  (3280) 
P

>  <INCHIKEY>  (3280) 
BNAGIDDOEKUJRZ-UHFFFAOYSA-N

>  <FORMULA>  (3280) 
C13H22O3Si2

>  <EXACT MASS>  (3280) 
282.110747624

>  <MW>  (3280) 
282

>  <ID>  (3280) 
JP007457

>  <CONTRIBUTOR>  (3280) 
University of Tokyo Team, {Faculty of Engineering, University of Tokyo

>  <COMMENT>  (3280) 
SMILES=C[Si](C)(C)OC(=O)c(c1)c(ccc1)O[Si](C)(C)C
cas=3789-85-3
InChI=InChI=1S/C13H22O3Si2/c1-17(2,3)15-12-10-8-7-9-11(12)13(14)16-18(4,5)6/h7-10H,1-6H3
computed SMILES=O=C(O[Si](C)(C)C)C=1C=CC=CC1O[Si](C)(C)C
accession=JP007457
date=2016.01.19 (Created 2008.10.21, modified 2011.05.06)
author=KOGA M, UNIV. OF OCCUPATIONAL AND ENVIRONMENTAL HEALTH
license=CC BY-NC-SA
exact mass=282.11075
ionization energy=70 eV
ion type=[M]+*
computed spectral entropy=2.7634954606697972
computed normalized entropy=0.7711680915129742
SPLASH=splash10-014i-2490000000-b5d0f02c56c5715beb47
submitter=submitter = University of Tokyo Team (Faculty of Engineering, University of Tokyo)
MoNA Rating=3.75

>  <NUM PEAKS>  (3280) 
36

>  <MASS SPECTRAL PEAKS>  (3280) 
45 15.9
47 3
59 2.4
73 3.44
74 10.8
75 6.9
91 10.6
103 0.22
105 1.8
118 2.2
126 4.8
131 0.18
133 8.1
135 12.8
137 2.2
145 0.36
147 9.7
149 16.1
150 3.6
151 0.38
152 3.8
159 3.6
165 3.6
175 0.4
179 3.2
191 3.6
193 12
194 0.36
209 19.5
210 4.8
211 3.4
233 0.4
249 8.5
267 99.99
268 25.1
269 10.6

$$$$

     RDKit          2D

 29 28  0  0  0  0  0  0  0  0999 V2000
   11.1515    3.8003    0.0000 C   0  0  0  0  0  0  0  0  0  0  0  0
    8.5534    5.3003    0.0000 C   0  0  0  0  0  0  0  0  0  0  0  0
   10.6025    5.8494    0.0000 C   0  0  0  0  0  0  0  0  0  0  0  0
    0.3725    6.8817    0.0000 C   0  0  0  0  0  0  0  0  0  0  0  0
   -1.1275    5.3817    0.0000 C   0  0  0  0  0  0  0  0  0  0  0  0
    0.3725    3.8817    0.0000 C   0  0  0  0  0  0  0  0  0  0  0  0
    1.7599    0.8585    0.0000 C   0  0  0  0  0  0  0  0  0  0  0  0
    0.8634   -1.0640    0.0000 C   0  0  0  0  0  0  0  0  0  0  0  0
    2.7860   -1.9605    0.0000 C   0  0  0  0  0  0  0  0  0  0  0  0
    6.5095   -1.4475    0.0000 C   0  0  0  0  0  0  0  0  0  0  0  0
    8.4320   -0.5510    0.0000 C   0  0  0  0  0  0  0  0  0  0  0  0
    7.5355    1.3716    0.0000 C   0  0  0  0  0  0  0  0  0  0  0  0
    6.8525    1.9523    0.0000 C   0  0  0  0  0  0  0  0  0  0  0  0
    4.1225    4.0827    0.0000 C   0  0  0  0  0  0  0  0  0  0  0  0
    7.6025    3.2513    0.0000 C   0  0  0  0  0  0  0  0  0  0  0  0
    2.6225    4.0827    0.0000 C   0  0  0  0  0  0  0  0  0  0  0  0
    3.9429    1.4392    0.0000 C   0  0  0  0  0  0  0  0  0  0  0  0
    5.3525    1.9523    0.0000 C   0  0  0  0  0  0  0  0  0  0  0  0
    6.8525    4.5503    0.0000 O   0  0  0  0  0  0  0  0  0  0  0  0
    1.8725    2.7836    0.0000 O   0  0  0  0  0  0  0  0  0  0  0  0
    2.7939    2.4034    0.0000 O   0  0  0  0  0  0  0  0  0  0  0  0
    9.1025    3.2513    0.0000 O   0  0  0  0  0  0  0  0  0  0  0  0
    1.8725    5.3817    0.0000 O   0  0  0  0  0  0  0  0  0  0  0  0
    3.6825   -0.0380    0.0000 O   0  0  0  0  0  0  0  0  0  0  0  0
    5.6130    0.4751    0.0000 O   0  0  0  0  0  0  0  0  0  0  0  0
    9.8525    4.5503    0.0000 Si  0  0  0  0  0  4  0  0  0  0  0  0
    0.3725    5.3817    0.0000 Si  0  0  0  0  0  4  0  0  0  0  0  0
    2.2729   -0.5510    0.0000 Si  0  0  0  0  0  4  0  0  0  0  0  0
    7.0225   -0.0380    0.0000 Si  0  0  0  0  0  4  0  0  0  0  0  0
 15 13  1  0
 16 14  1  0
 18 13  1  0
 18 14  1  0
 18 17  1  0
 19 15  2  0
 20 16  2  0
 21 17  2  0
 22 15  1  0
 23 16  1  0
 24 17  1  0
 25 18  1  0
 26  1  1  0
 26  2  1  0
 26  3  1  0
 26 22  1  0
 27  4  1  0
 27  5  1  0
 27  6  1  0
 27 23  1  0
 28  7  1  0
 28  8  1  0
 28  9  1  0
 28 24  1  0
 29 10  1  0
 29 11  1  0
 29 12  1  0
 29 25  1  0
M  END
>  <NAME>  (3281) 
2-TRIMETHYLSILOXY-1,2,3-PROPANETRICARBOXYLIC ACID TRIS(TRIMETHYLSILYL) ESTER

>  <SYNONYMS>  (3281) 


>  <SPECTRUM TYPE>  (3281) 
MS1

>  <INSTRUMENT TYPE>  (3281) 
EI-B

>  <INSTRUMENT>  (3281) 
JEOL JMS-01-SG

>  <ION MODE>  (3281) 
P

>  <INCHIKEY>  (3281) 
VFGAVMGYDWDESE-UHFFFAOYSA-N

>  <FORMULA>  (3281) 
C18H40O7Si4

>  <EXACT MASS>  (3281) 
480.18510974

>  <MW>  (3281) 
480

>  <ID>  (3281) 
JP007456

>  <CONTRIBUTOR>  (3281) 
University of Tokyo Team, {Faculty of Engineering, University of Tokyo

>  <COMMENT>  (3281) 
SMILES=C[Si](C)(C)OC(=O)CC(CC(=O)O[Si](C)(C)C)(O[Si](C)(C)C)C(=O)O[Si](C)(C)C
InChI=InChI=1S/C18H40O7Si4/c1-26(2,3)22-15(19)13-18(25-29(10,11)12,17(21)24-28(7,8)9)14-16(20)23-27(4,5)6/h13-14H2,1-12H3
computed SMILES=O=C(O[Si](C)(C)C)CC(O[Si](C)(C)C)(C(=O)O[Si](C)(C)C)CC(=O)O[Si](C)(C)C
accession=JP007456
date=2016.01.19 (Created 2008.10.21, modified 2011.05.06)
author=KOGA M, UNIV. OF OCCUPATIONAL AND ENVIRONMENTAL HEALTH
license=CC BY-NC-SA
exact mass=480.18511
ionization energy=70 eV
ion type=[M]+*
computed spectral entropy=2.7876566564218166
computed normalized entropy=0.7411614832165809
SPLASH=splash10-00di-9564100000-c875b36655365cad8ef3
submitter=submitter = University of Tokyo Team (Faculty of Engineering, University of Tokyo)
MoNA Rating=3.75

>  <NUM PEAKS>  (3281) 
43

>  <MASS SPECTRAL PEAKS>  (3281) 
42 2.7
43 2.2
44 7.8
51 0.22
57 2.7
67 4.4
72 2.2
73 99.99
74 7.8
75 11.1
77 1.6
115 0.33
117 1.6
129 6.7
131 2.2
133 0.44
147 53
148 7.8
149 7.8
183 0.44
211 7.8
217 2.2
221 3.9
231 0.33
257 3.3
273 67.5
274 14.5
275 0.61
305 5.5
319 1.6
347 16.2
348 0.44
349 2.2
363 20.6
364 5.5
365 0.22
375 18.4
376 5.5
377 2.2
384 0.5
465 14.5
466 5
467 2.2

$$$$

     RDKit          2D

 21 20  0  0  0  0  0  0  0  0999 V2000
    5.5209    7.6875    0.0000 C   0  0  0  0  0  0  0  0  0  0  0  0
  -13.9647    8.4375    0.0000 C   0  0  0  0  0  0  0  0  0  0  0  0
    1.6238    8.4375    0.0000 C   0  0  0  0  0  0  0  0  0  0  0  0
   -2.2733    7.6875    0.0000 C   0  0  0  0  0  0  0  0  0  0  0  0
   -6.1704    8.4375    0.0000 C   0  0  0  0  0  0  0  0  0  0  0  0
  -10.0675    7.6875    0.0000 C   0  0  0  0  0  0  0  0  0  0  0  0
    4.2219    8.4375    0.0000 C   0  0  0  0  0  0  0  0  0  0  0  0
    0.3248    7.6875    0.0000 C   0  0  0  0  0  0  0  0  0  0  0  0
   -3.5724    8.4375    0.0000 C   0  0  0  0  0  0  0  0  0  0  0  0
   -7.4695    7.6875    0.0000 C   0  0  0  0  0  0  0  0  0  0  0  0
  -11.3666    8.4375    0.0000 C   0  0  0  0  0  0  0  0  0  0  0  0
    2.9228    7.6875    0.0000 N   0  0  0  0  0  0  0  0  0  0  0  0
   -0.9743    8.4375    0.0000 N   0  0  0  0  0  0  0  0  0  0  0  0
   -4.8714    7.6875    0.0000 N   0  0  0  0  0  0  0  0  0  0  0  0
   -8.7685    8.4375    0.0000 N   0  0  0  0  0  0  0  0  0  0  0  0
    4.2219    9.9375    0.0000 O   0  0  0  0  0  0  0  0  0  0  0  0
    0.3248    6.1875    0.0000 O   0  0  0  0  0  0  0  0  0  0  0  0
   -3.5724    9.9375    0.0000 O   0  0  0  0  0  0  0  0  0  0  0  0
   -7.4695    6.1875    0.0000 O   0  0  0  0  0  0  0  0  0  0  0  0
  -11.3666    9.9375    0.0000 O   0  0  0  0  0  0  0  0  0  0  0  0
  -12.6656    7.6875    0.0000 O   0  0  0  0  0  0  0  0  0  0  0  0
  7  1  1  0
  8  3  1  0
  9  4  1  0
 10  5  1  0
 11  6  1  0
 12  3  1  0
 12  7  2  3
 13  4  1  0
 13  8  2  3
 14  5  1  0
 14  9  2  3
 15  6  1  0
 15 10  2  3
 16  7  1  0
 17  8  1  0
 18  9  1  0
 19 10  1  0
 20 11  2  0
 21  2  1  0
 21 11  1  0
M  END
>  <NAME>  (3282) 
N-ACETYLGLYCYLGLYCYLGLYCYLGLYCINE METHYL ESTER

>  <SYNONYMS>  (3282) 


>  <SPECTRUM TYPE>  (3282) 
MS1

>  <INSTRUMENT TYPE>  (3282) 
EI-B

>  <INSTRUMENT>  (3282) 
HITACHI RMU-6M

>  <ION MODE>  (3282) 
P

>  <INCHIKEY>  (3282) 
CHYHTJZWWCIMGM-UHFFFAOYSA-N

>  <FORMULA>  (3282) 
C11H18N4O6

>  <EXACT MASS>  (3282) 
302.122634296

>  <MW>  (3282) 
302

>  <ID>  (3282) 
JP007413

>  <CONTRIBUTOR>  (3282) 
University of Tokyo Team, {Faculty of Engineering, University of Tokyo

>  <COMMENT>  (3282) 
SMILES=COC(=O)CNC(=O)CNC(=O)CNC(=O)CNC(C)=O
InChI=InChI=1S/C11H18N4O6/c1-7(16)12-3-8(17)13-4-9(18)14-5-10(19)15-6-11(20)21-2/h3-6H2,1-2H3,(H,12,16)(H,13,17)(H,14,18)(H,15,19)
computed SMILES=O=C(OC)CN=C(O)CN=C(O)CN=C(O)CN=C(O)C
accession=JP007413
date=2016.01.19 (Created 2008.10.21, modified 2011.05.06)
author=YAMAMOTO M, DEP. CHEMISTRY, FAC. SCIENCE, NARA WOMEN'S UNIV.
license=CC BY-NC-SA
exact mass=302.12263
ionization energy=70 eV
ion type=[M]+*
computed spectral entropy=3.0791965447946654
computed normalized entropy=0.7551608261493288
SPLASH=splash10-001i-9300000000-9e05310358ffe8b5fc85
submitter=submitter = University of Tokyo Team (Faculty of Engineering, University of Tokyo)
MoNA Rating=3.75

>  <NUM PEAKS>  (3282) 
59

>  <MASS SPECTRAL PEAKS>  (3282) 
26 1.6
27 10.7
28 31.3
29 0.64
30 99.99
31 4.6
39 1.6
40 0.35
41 6.6
42 8.5
43 29.1
44 0.52
45 2.3
54 1.9
55 2.3
56 0.94
57 2.4
58 2
59 3.9
60 0.26
69 1.4
71 6.1
72 18.8
73 1.35
74 1.2
85 4.2
86 1
87 0.24
88 10.2
89 1.4
90 17.5
98 0.1
99 3.2
100 38.2
101 2.4
113 0.57
114 4.2
115 3.4
129 4.9
130 1.72
131 3.9
142 3
145 1.2
146 0.16
147 2.9
157 22.6
158 2
173 0.12
186 3.6
187 12.9
188 3.6
203 0.21
213 1.5
214 6.8
230 6.2
231 0.1
270 1.6
284 1.2
302 5

$$$$

     RDKit          2D

 17 16  0  0  0  0  0  0  0  0999 V2000
    2.5981    7.5000    0.0000 C   0  0  0  0  0  0  0  0  0  0  0  0
   -1.2990    6.7500    0.0000 C   0  0  0  0  0  0  0  0  0  0  0  0
   -5.1962    7.5000    0.0000 C   0  0  0  0  0  0  0  0  0  0  0  0
   -9.0933    6.7500    0.0000 C   0  0  0  0  0  0  0  0  0  0  0  0
    1.2990    6.7500    0.0000 C   0  0  0  0  0  0  0  0  0  0  0  0
   -2.5981    7.5000    0.0000 C   0  0  0  0  0  0  0  0  0  0  0  0
   -6.4952    6.7500    0.0000 C   0  0  0  0  0  0  0  0  0  0  0  0
  -10.3923    7.5000    0.0000 C   0  0  0  0  0  0  0  0  0  0  0  0
    3.8971    6.7500    0.0000 N   0  0  0  0  0  0  0  0  0  0  0  0
    0.0000    7.5000    0.0000 N   0  0  0  0  0  0  0  0  0  0  0  0
   -3.8971    6.7500    0.0000 N   0  0  0  0  0  0  0  0  0  0  0  0
   -7.7942    7.5000    0.0000 N   0  0  0  0  0  0  0  0  0  0  0  0
    1.2990    5.2500    0.0000 O   0  0  0  0  0  0  0  0  0  0  0  0
   -2.5981    9.0000    0.0000 O   0  0  0  0  0  0  0  0  0  0  0  0
   -6.4952    5.2500    0.0000 O   0  0  0  0  0  0  0  0  0  0  0  0
  -10.3923    9.0000    0.0000 O   0  0  0  0  0  0  0  0  0  0  0  0
  -11.6913    6.7500    0.0000 O   0  0  0  0  0  0  0  0  0  0  0  0
  5  1  1  0
  6  2  1  0
  7  3  1  0
  8  4  1  0
  9  1  1  0
 10  2  1  0
 10  5  2  3
 11  3  1  0
 11  6  2  3
 12  4  1  0
 12  7  2  3
 13  5  1  0
 14  6  1  0
 15  7  1  0
 16  8  2  0
 17  8  1  0
M  END
>  <NAME>  (3283) 
GLYCYLGLYCYLGLYCYLGLYCINE

>  <SYNONYMS>  (3283) 


>  <SPECTRUM TYPE>  (3283) 
MS1

>  <INSTRUMENT TYPE>  (3283) 
EI-B

>  <INSTRUMENT>  (3283) 
HITACHI RMU-6M

>  <ION MODE>  (3283) 
P

>  <INCHIKEY>  (3283) 
QMOQBVOBWVNSNO-UHFFFAOYSA-N

>  <FORMULA>  (3283) 
C8H14N4O5

>  <EXACT MASS>  (3283) 
246.096419548

>  <MW>  (3283) 
246

>  <ID>  (3283) 
JP007412

>  <CONTRIBUTOR>  (3283) 
University of Tokyo Team, {Faculty of Engineering, University of Tokyo

>  <COMMENT>  (3283) 
SMILES=NCC(=O)NCC(=O)NCC(=O)NCC(O)=O
cas=637-84-3
InChI=InChI=1S/C8H14N4O5/c9-1-5(13)10-2-6(14)11-3-7(15)12-4-8(16)17/h1-4,9H2,(H,10,13)(H,11,14)(H,12,15)(H,16,17)
computed SMILES=O=C(O)CN=C(O)CN=C(O)CN=C(O)CN
accession=JP007412
date=2016.01.19 (Created 2008.10.21, modified 2011.05.06)
author=YAMAMOTO M, DEP. CHEMISTRY, FAC. SCIENCE, NARA WOMEN'S UNIV.
license=CC BY-NC-SA
exact mass=246.09642
ionization energy=70 eV
ion type=[M]+*
computed spectral entropy=2.9331552992404037
computed normalized entropy=0.7497796651938116
SPLASH=splash10-01u3-9200000000-7ed4cef5055864751b3c
submitter=submitter = University of Tokyo Team (Faculty of Engineering, University of Tokyo)
MoNA Rating=3.75

>  <NUM PEAKS>  (3283) 
50

>  <MASS SPECTRAL PEAKS>  (3283) 
26 2.52
27 12.41
28 69.11
29 28.53
30 99.99
31 3.9
39 2.32
40 2.64
41 10.28
42 30.1
43 20.17
44 32.46
45 2.92
52 1.34
53 1.42
54 7.37
55 13.12
56 8.08
57 2.44
58 4.49
59 2.36
67 1.06
68 2.99
69 2.48
70 1.3
71 33.64
72 3.15
74 1.22
75 4.22
80 1.38
81 1.77
82 1.77
83 1.3
85 2.76
86 5.2
96 2.17
97 1.26
98 6.93
100 1.58
111 1.85
112 1.77
113 1.06
114 77.49
115 4.41
124 1.06
125 4.02
128 1.1
153 10.64
154 1.1
156 1.58

$$$$

     RDKit          2D

 11 10  0  0  1  0  0  0  0  0999 V2000
    2.2733    2.8125    0.0000 C   0  0  0  0  0  0  0  0  0  0  0  0
   -2.9228    1.3125    0.0000 C   0  0  0  0  0  0  0  0  0  0  0  0
    0.9743    3.5625    0.0000 C   0  0  0  0  0  0  0  0  0  0  0  0
   -2.9228    2.8125    0.0000 C   0  0  0  0  0  0  0  0  0  0  0  0
   -0.3248    2.8125    0.0000 C   0  0  0  0  0  0  0  0  0  0  0  0
   -4.2219    3.5625    0.0000 C   0  0  0  0  0  0  0  0  0  0  0  0
    0.9743    5.0625    0.0000 N   0  0  0  0  0  0  0  0  0  0  0  0
   -1.6238    3.5625    0.0000 N   0  0  0  0  0  0  0  0  0  0  0  0
   -0.3248    1.3125    0.0000 O   0  0  0  0  0  0  0  0  0  0  0  0
   -4.2219    5.0625    0.0000 O   0  0  0  0  0  0  0  0  0  0  0  0
   -5.5209    2.8125    0.0000 O   0  0  0  0  0  0  0  0  0  0  0  0
  3  1  1  6
  4  2  1  1
  5  3  1  0
  6  4  1  0
  3  7  1  0
  8  4  1  0
  8  5  2  3
  9  5  1  0
 10  6  2  0
 11  6  1  0
M  END
>  <NAME>  (3284) 
N-ALANYLALANINE

>  <SYNONYMS>  (3284) 


>  <SPECTRUM TYPE>  (3284) 
MS1

>  <INSTRUMENT TYPE>  (3284) 
EI-B

>  <INSTRUMENT>  (3284) 
HITACHI RMU-6M

>  <ION MODE>  (3284) 
P

>  <INCHIKEY>  (3284) 
DEFJQIDDEAULHB-DMTCNVIQSA-N

>  <FORMULA>  (3284) 
C6H12N2O3

>  <EXACT MASS>  (3284) 
160.08479224399997

>  <MW>  (3284) 
160

>  <ID>  (3284) 
JP007411

>  <CONTRIBUTOR>  (3284) 
University of Tokyo Team, {Faculty of Engineering, University of Tokyo

>  <COMMENT>  (3284) 
SMILES=OC(=O)C([H])(C)NC(=O)C([H])(C)N
cas=1948-31-8
InChI=InChI=1S/C6H12N2O3/c1-3(7)5(9)8-4(2)6(10)11/h3-4H,7H2,1-2H3,(H,8,9)(H,10,11)/t3-,4+/m1/s1
computed SMILES=O=C(O)C(N=C(O)C(N)C)C
accession=JP007411
date=2016.01.19 (Created 2008.10.21, modified 2011.05.06)
author=YAMAMOTO M, DEP. CHEMISTRY, FAC. SCIENCE, NARA WOMEN'S UNIV.
license=CC BY-NC-SA
exact mass=160.08479
ionization energy=70 eV
ion type=[M]+*
computed spectral entropy=3.00570265830005
computed normalized entropy=0.7764263983789205
SPLASH=splash10-0006-9000000000-653cca980d5323c940cf
submitter=submitter = University of Tokyo Team (Faculty of Engineering, University of Tokyo)
MoNA Rating=3.75

>  <NUM PEAKS>  (3284) 
48

>  <MASS SPECTRAL PEAKS>  (3284) 
14 2.57
15 12.97
16 1.08
17 4.63
18 32.28
25 1.25
26 6.8
27 19.05
28 42.89
29 6.23
30 3.68
31 1.21
32 2.07
36 1.06
38 2.42
39 3.7
40 10.3
41 19.27
42 33.15
43 17.5
44 99.99
45 16.01
51 1.12
52 1.81
53 2.32
54 3.03
55 9.09
56 11.5
57 2.46
58 3.59
60 1.44
69 1.45
70 3.7
71 6
72 1.22
73 1.95
74 1.75
84 1.29
88 1.48
99 21.51
100 1.41
113 1
114 1.38
115 1.96
117 2.14
127 1.21
142 3.7
160 1.6

$$$$

     RDKit          2D

  9  8  0  0  0  0  0  0  0  0999 V2000
    0.6495    4.1250    0.0000 C   0  0  0  0  0  0  0  0  0  0  0  0
   -3.2476    3.3750    0.0000 C   0  0  0  0  0  0  0  0  0  0  0  0
   -0.6495    3.3750    0.0000 C   0  0  0  0  0  0  0  0  0  0  0  0
   -4.5466    4.1250    0.0000 C   0  0  0  0  0  0  0  0  0  0  0  0
    1.9486    3.3750    0.0000 N   0  0  0  0  0  0  0  0  0  0  0  0
   -1.9486    4.1250    0.0000 N   0  0  0  0  0  0  0  0  0  0  0  0
   -0.6495    1.8750    0.0000 O   0  0  0  0  0  0  0  0  0  0  0  0
   -4.5466    5.6250    0.0000 O   0  0  0  0  0  0  0  0  0  0  0  0
   -5.8457    3.3750    0.0000 O   0  0  0  0  0  0  0  0  0  0  0  0
  3  1  1  0
  4  2  1  0
  5  1  1  0
  6  2  1  0
  6  3  2  3
  7  3  1  0
  8  4  2  0
  9  4  1  0
M  END
>  <NAME>  (3285) 
N-GLYCYLGLYCINE

>  <SYNONYMS>  (3285) 


>  <SPECTRUM TYPE>  (3285) 
MS1

>  <INSTRUMENT TYPE>  (3285) 
EI-B

>  <INSTRUMENT>  (3285) 
HITACHI RMU-6M

>  <ION MODE>  (3285) 
P

>  <INCHIKEY>  (3285) 
YMAWOPBAYDPSLA-UHFFFAOYSA-N

>  <FORMULA>  (3285) 
C4H8N2O3

>  <EXACT MASS>  (3285) 
132.05349211599997

>  <MW>  (3285) 
132

>  <ID>  (3285) 
JP007410

>  <CONTRIBUTOR>  (3285) 
University of Tokyo Team, {Faculty of Engineering, University of Tokyo

>  <COMMENT>  (3285) 
SMILES=NCC(=O)NCC(O)=O
cas=556-50-3
InChI=InChI=1S/C4H8N2O3/c5-1-3(7)6-2-4(8)9/h1-2,5H2,(H,6,7)(H,8,9)
computed SMILES=O=C(O)CN=C(O)CN
accession=JP007410
date=2016.01.19 (Created 2008.10.21, modified 2011.05.06)
author=YAMAMOTO M, DEP. CHEMISTRY, FAC. SCIENCE, NARA WOMEN'S UNIV.
license=CC BY-NC-SA
exact mass=132.05349
ionization energy=70 eV
ion type=[M]+*
computed spectral entropy=2.52250961265326
computed normalized entropy=0.7153294721412046
SPLASH=splash10-001i-9000000000-e81c9e2483d01587c1bd
submitter=submitter = University of Tokyo Team (Faculty of Engineering, University of Tokyo)
MoNA Rating=3.75

>  <NUM PEAKS>  (3285) 
34

>  <MASS SPECTRAL PEAKS>  (3285) 
17 4.15
18 17.85
26 1.01
27 5.61
28 24.76
29 9.35
30 99.99
31 5.74
32 3.58
36 1.06
40 1.83
41 3.19
42 6.76
43 4.68
44 17.64
45 2.61
55 1.77
56 4.84
57 2.27
58 1.43
59 1.75
60 1.34
69 1.34
71 4.06
74 2.05
85 1.17
86 1.19
87 1.16
88 1.01
89 2.57
97 1.17
104 3.3
114 9.54
132 5.23

$$$$

     RDKit          2D

  6  5  0  0  1  0  0  0  0  0999 V2000
   -0.0000   -0.0000    0.0000 C   0  0  0  0  0  0  0  0  0  0  0  0
   -0.0000    1.5000    0.0000 C   0  0  0  0  0  0  0  0  0  0  0  0
   -1.2990    2.2500    0.0000 C   0  0  0  0  0  0  0  0  0  0  0  0
    1.2990    2.2500    0.0000 N   0  0  0  0  0  0  0  0  0  0  0  0
   -2.5981    1.5000    0.0000 O   0  0  0  0  0  0  0  0  0  0  0  0
   -1.2990    3.7500    0.0000 O   0  0  0  0  0  0  0  0  0  0  0  0
  2  1  1  1
  3  2  1  0
  2  4  1  0
  5  3  2  0
  6  3  1  0
M  END
>  <NAME>  (3286) 
L-ALANINE

>  <SYNONYMS>  (3286) 


>  <SPECTRUM TYPE>  (3286) 
MS1

>  <INSTRUMENT TYPE>  (3286) 
EI-B

>  <INSTRUMENT>  (3286) 
HITACHI RMU-6M

>  <ION MODE>  (3286) 
P

>  <INCHIKEY>  (3286) 
QNAYBMKLOCPYGJ-REOHCLBHSA-N

>  <FORMULA>  (3286) 
C3H7NO2

>  <EXACT MASS>  (3286) 
89.047678464

>  <MW>  (3286) 
89

>  <ID>  (3286) 
JP007409

>  <CONTRIBUTOR>  (3286) 
University of Tokyo Team, {Faculty of Engineering, University of Tokyo

>  <COMMENT>  (3286) 
SMILES=CC(N)C(O)=O
cas=56-41-7
InChI=InChI=1S/C3H7NO2/c1-2(4)3(5)6/h2H,4H2,1H3,(H,5,6)/t2-/m0/s1
computed SMILES=O=C(O)C(N)C
accession=JP007409
date=2016.01.19 (Created 2008.10.21, modified 2011.05.06)
author=YAMAMOTO M, DEP. CHEMISTRY, FAC. SCIENCE, NARA WOMEN'S UNIV.
license=CC BY-NC-SA
exact mass=89.04768
ionization energy=70 eV
ion type=[M]+*
computed spectral entropy=2.4390942632472203
computed normalized entropy=0.767480474986221
SPLASH=splash10-00kf-9000000000-b2f7507be509a85d821b
submitter=submitter = University of Tokyo Team (Faculty of Engineering, University of Tokyo)
MoNA Rating=3.75

>  <NUM PEAKS>  (3286) 
24

>  <MASS SPECTRAL PEAKS>  (3286) 
13 1.04
14 3.91
15 23.74
16 1.6
17 4.34
18 99.45
19 2.79
25 1.12
26 7.78
27 23.41
28 71.1
29 8.14
30 4.8
38 1.98
39 3.35
40 10.42
41 16.81
42 52.58
43 16.71
44 99.99
45 13.8
46 7.89
55 2.99
74 9.15

$$$$

     RDKit          2D

  5  4  0  0  0  0  0  0  0  0999 V2000
    0.0000    1.5000    0.0000 C   0  0  0  0  0  0  0  0  0  0  0  0
   -1.2990    2.2500    0.0000 C   0  0  0  0  0  0  0  0  0  0  0  0
   -0.0000   -0.0000    0.0000 N   0  0  0  0  0  0  0  0  0  0  0  0
   -2.5981    1.5000    0.0000 O   0  0  0  0  0  0  0  0  0  0  0  0
   -1.2990    3.7500    0.0000 O   0  0  0  0  0  0  0  0  0  0  0  0
  2  1  1  0
  3  1  1  0
  4  2  2  0
  5  2  1  0
M  END
>  <NAME>  (3287) 
GLYCINE

>  <SYNONYMS>  (3287) 


>  <SPECTRUM TYPE>  (3287) 
MS1

>  <INSTRUMENT TYPE>  (3287) 
EI-B

>  <INSTRUMENT>  (3287) 
HITACHI RMU-6M

>  <ION MODE>  (3287) 
P

>  <INCHIKEY>  (3287) 
DHMQDGOQFOQNFH-UHFFFAOYSA-N

>  <FORMULA>  (3287) 
C2H5NO2

>  <EXACT MASS>  (3287) 
75.0320284

>  <MW>  (3287) 
75

>  <ID>  (3287) 
JP007408

>  <CONTRIBUTOR>  (3287) 
University of Tokyo Team, {Faculty of Engineering, University of Tokyo

>  <COMMENT>  (3287) 
SMILES=NCC(O)=O
cas=56-40-6
InChI=InChI=1S/C2H5NO2/c3-1-2(4)5/h1,3H2,(H,4,5)
computed SMILES=O=C(O)CN
accession=JP007408
date=2016.01.19 (Created 2008.10.21, modified 2011.05.06)
author=YAMAMOTO M, DEP. CHEMISTRY, FAC. SCIENCE, NARA WOMEN'S UNIV.
license=CC BY-NC-SA
exact mass=75.03203
ionization energy=70 eV
ion type=[M]+*
computed spectral entropy=1.1691277399930218
computed normalized entropy=0.507745726118989
SPLASH=splash10-001i-9000000000-719b7f248956f13a312d
submitter=submitter = University of Tokyo Team (Faculty of Engineering, University of Tokyo)
MoNA Rating=3.75

>  <NUM PEAKS>  (3287) 
10

>  <MASS SPECTRAL PEAKS>  (3287) 
18 1.77
27 3.63
28 24.35
29 4.37
30 99.99
31 1.91
42 1.11
44 2.33
45 3.05
75 5.42

$$$$

     RDKit          2D

 10 11  0  0  0  0  0  0  0  0999 V2000
   -2.6000   -0.7500    0.0000 C   0  0  0  0  0  0  0  0  0  0  0  0
   -2.6000    0.7500    0.0000 C   0  0  0  0  0  0  0  0  0  0  0  0
    2.6000   -0.7500    0.0000 C   0  0  0  0  0  0  0  0  0  0  0  0
   -1.3000   -1.5000    0.0000 C   0  0  0  0  0  0  0  0  0  0  0  0
    1.3000   -1.5000    0.0000 C   0  0  0  0  0  0  0  0  0  0  0  0
   -1.3000    1.5000    0.0000 C   0  0  0  0  0  0  0  0  0  0  0  0
    2.6000    0.7500    0.0000 C   0  0  0  0  0  0  0  0  0  0  0  0
    0.0000   -0.7500    0.0000 C   0  0  0  0  0  0  0  0  0  0  0  0
    0.0000    0.7500    0.0000 C   0  0  0  0  0  0  0  0  0  0  0  0
    1.3000    1.5000    0.0000 O   0  0  0  0  0  0  0  0  0  0  0  0
  2  1  1  0
  4  1  1  0
  5  3  1  0
  6  2  1  0
  7  3  1  0
  8  4  1  0
  8  5  1  0
  9  6  1  0
  9  8  1  0
 10  7  1  0
 10  9  1  0
M  END
>  <NAME>  (3288) 
DECAHYDROBENZOPYRAN

>  <SYNONYMS>  (3288) 


>  <SPECTRUM TYPE>  (3288) 
MS1

>  <INSTRUMENT TYPE>  (3288) 
EI-B

>  <INSTRUMENT>  (3288) 
HITACHI RMU-6M

>  <ION MODE>  (3288) 
P

>  <INCHIKEY>  (3288) 
AXRTUWDQQWPLQU-UHFFFAOYSA-N

>  <FORMULA>  (3288) 
C9H16O

>  <EXACT MASS>  (3288) 
140.120115132

>  <MW>  (3288) 
140

>  <ID>  (3288) 
JP007407

>  <CONTRIBUTOR>  (3288) 
University of Tokyo Team, {Faculty of Engineering, University of Tokyo

>  <COMMENT>  (3288) 
SMILES=C(C2)CC(C1)C(C2)OCC1
InChI=InChI=1S/C9H16O/c1-2-6-9-8(4-1)5-3-7-10-9/h8-9H,1-7H2
computed SMILES=O1CCCC2CCCCC12
accession=JP007407
date=2016.01.19 (Created 2008.10.21, modified 2011.05.06)
author=YAMAMOTO M, DEP. CHEMISTRY, FAC. SCIENCE, NARA WOMEN'S UNIV.
license=CC BY-NC-SA
exact mass=140.12012
ionization energy=70 eV
ion type=[M]+*
computed spectral entropy=2.910198996639879
computed normalized entropy=0.7439115241914014
SPLASH=splash10-0002-9100000000-9e072a9091de7c1482c2
submitter=submitter = University of Tokyo Team (Faculty of Engineering, University of Tokyo)
MoNA Rating=3.75

>  <NUM PEAKS>  (3288) 
50

>  <MASS SPECTRAL PEAKS>  (3288) 
27 8.89
28 2.54
29 5.93
31 1.27
32 0.95
39 8.99
40 1.9
41 21.48
42 3.49
43 4.23
51 1.48
52 1.06
53 4.34
54 6.24
55 10.37
56 2.86
57 2.33
58 0.74
65 1.27
66 1.27
67 11.22
68 3.6
69 8.15
70 2.01
71 2.33
77 1.69
78 0.85
79 6.03
80 2.22
81 6.67
82 2.33
83 5.4
84 3.17
91 0.85
93 2.12
94 2.12
95 2.22
96 1.69
97 99.99
98 11
99 1.06
107 0.85
109 0.63
110 0.53
111 1.06
121 0.63
122 0.63
139 3.28
140 33.01
141 3.7

$$$$

     RDKit          2D

 11 12  0  0  0  0  0  0  0  0999 V2000
   -2.9400   -0.8900    0.0000 C   0  0  0  0  0  0  0  0  0  0  0  0
   -2.9400    0.6100    0.0000 C   0  0  0  0  0  0  0  0  0  0  0  0
   -1.6400   -1.6400    0.0000 C   0  0  0  0  0  0  0  0  0  0  0  0
   -1.6400    1.3700    0.0000 C   0  0  0  0  0  0  0  0  0  0  0  0
    0.9500   -1.6200    0.0000 C   0  0  0  0  0  0  0  0  0  0  0  0
    2.2300   -0.8800    0.0000 C   0  0  0  0  0  0  0  0  0  0  0  0
   -0.3600   -0.8700    0.0000 C   0  0  0  0  0  0  0  0  0  0  0  0
   -0.3600    0.5900    0.0000 C   0  0  0  0  0  0  0  0  0  0  0  0
    2.2300    0.6000    0.0000 C   0  0  0  0  0  0  0  0  0  0  0  0
    3.5314    1.3458    0.0000 O   0  0  0  0  0  0  0  0  0  0  0  0
    0.9500    1.3500    0.0000 O   0  0  0  0  0  0  0  0  0  0  0  0
  2  1  2  0
  3  1  1  0
  4  2  1  0
  6  5  2  0
  7  3  2  0
  7  5  1  0
  8  4  2  0
  8  7  1  0
  9  6  1  0
 10  9  2  0
 11  8  1  0
 11  9  1  0
M  END
>  <NAME>  (3289) 
COUMARIN

>  <SYNONYMS>  (3289) 
2H-1-BENZOPYRAN-2-ONE

>  <SPECTRUM TYPE>  (3289) 
MS1

>  <INSTRUMENT TYPE>  (3289) 
EI-B

>  <INSTRUMENT>  (3289) 
HITACHI RMU-6M

>  <ION MODE>  (3289) 
P

>  <INCHIKEY>  (3289) 
ZYGHJZDHTFUPRJ-UHFFFAOYSA-N

>  <FORMULA>  (3289) 
C9H6O2

>  <EXACT MASS>  (3289) 
146.036779432

>  <MW>  (3289) 
146

>  <ID>  (3289) 
JP007406

>  <CONTRIBUTOR>  (3289) 
University of Tokyo Team, {Faculty of Engineering, University of Tokyo

>  <COMMENT>  (3289) 
SMILES=O=C(C=1)Oc(c2)c(ccc2)C1
cas=91-64-5
InChI=InChI=1S/C9H6O2/c10-9-6-5-7-3-1-2-4-8(7)11-9/h1-6H
computed SMILES=O=C1OC=2C=CC=CC2C=C1
accession=JP007406
date=2016.01.19 (Created 2008.10.21, modified 2011.05.06)
author=YAMAMOTO M, DEP. CHEMISTRY, FAC. SCIENCE, NARA WOMEN'S UNIV.
license=CC BY-NC-SA
exact mass=146.03678
ionization energy=70 eV
ion type=[M]+*
computed spectral entropy=1.8240286141415354
computed normalized entropy=0.7111363071693271
SPLASH=splash10-014i-7900000000-25bab36f91f71ac65817
submitter=submitter = University of Tokyo Team (Faculty of Engineering, University of Tokyo)
MoNA Rating=3.75

>  <NUM PEAKS>  (3289) 
13

>  <MASS SPECTRAL PEAKS>  (3289) 
39 7.7
45 4
50 3.6
51 0.59
62 8.3
63 28.9
64 8.7
89 3.25
90 35.4
118 99.99
119 7.1
146 7.28
147 5.9

$$$$

     RDKit          2D

 10 11  0  0  1  0  0  0  0  0999 V2000
   -2.6000    0.7500    0.0000 C   0  0  0  0  0  0  0  0  0  0  0  0
   -2.6000   -0.7500    0.0000 C   0  0  0  0  0  0  0  0  0  0  0  0
    2.6000    0.7500    0.0000 C   0  0  0  0  0  0  0  0  0  0  0  0
   -1.3000    1.5000    0.0000 C   0  0  0  0  0  0  0  0  0  0  0  0
    1.3000    1.5000    0.0000 C   0  0  0  0  0  0  0  0  0  0  0  0
   -1.3000   -1.5000    0.0000 C   0  0  0  0  0  0  0  0  0  0  0  0
    2.6000   -0.7500    0.0000 C   0  0  0  0  0  0  0  0  0  0  0  0
   -0.0000    0.7500    0.0000 C   0  0  0  0  0  0  0  0  0  0  0  0
   -0.0000   -0.7500    0.0000 C   0  0  0  0  0  0  0  0  0  0  0  0
    1.3000   -1.5000    0.0000 N   0  0  0  0  0  0  0  0  0  0  0  0
  2  1  1  0
  4  1  1  0
  5  3  1  0
  6  2  1  0
  7  3  1  0
  8  4  1  6
  8  5  1  0
  9  6  1  1
  9  8  1  0
 10  7  1  0
  9 10  1  0
M  END
>  <NAME>  (3290) 
TRANS-DECAHYDROQUINOLINE

>  <SYNONYMS>  (3290) 


>  <SPECTRUM TYPE>  (3290) 
MS1

>  <INSTRUMENT TYPE>  (3290) 
EI-B

>  <INSTRUMENT>  (3290) 
HITACHI RMU-6M

>  <ION MODE>  (3290) 
P

>  <INCHIKEY>  (3290) 
POTIYWUALSJREP-BDAKNGLRSA-N

>  <FORMULA>  (3290) 
C9H17N

>  <EXACT MASS>  (3290) 
139.136099544

>  <MW>  (3290) 
139

>  <ID>  (3290) 
JP007405

>  <CONTRIBUTOR>  (3290) 
University of Tokyo Team, {Faculty of Engineering, University of Tokyo

>  <COMMENT>  (3290) 
SMILES=[H]C(C2)(C1)C([H])(CCC2)NCC1
cas=767-92-0
InChI=InChI=1S/C9H17N/c1-2-6-9-8(4-1)5-3-7-10-9/h8-10H,1-7H2/t8-,9+/m1/s1
computed SMILES=N1CCCC2CCCCC12
accession=JP007405
date=2016.01.19 (Created 2008.10.21, modified 2011.05.06)
author=YAMAMOTO M, DEP. CHEMISTRY, FAC. SCIENCE, NARA WOMEN'S UNIV.
license=CC BY-NC-SA
exact mass=139.1361
ionization energy=70 eV
ion type=[M]+*
computed spectral entropy=2.2090014358622883
computed normalized entropy=0.649477577447374
SPLASH=splash10-0002-9000000000-ca13fae7f5390b4dde04
submitter=submitter = University of Tokyo Team (Faculty of Engineering, University of Tokyo)
MoNA Rating=3.75

>  <NUM PEAKS>  (3290) 
30

>  <MASS SPECTRAL PEAKS>  (3290) 
27 4.6
28 6.2
29 2.9
30 0.75
39 4.9
41 9.6
42 2.5
43 0.25
44 2.5
53 2.8
54 3.2
55 0.37
56 5
57 1.7
67 4.4
68 0.45
69 2.1
70 2.6
79 2.2
80 0.16
81 2.4
82 6.7
83 5.5
95 0.19
96 99.99
97 8.3
110 2.6
138 0.7
139 14.6
140 1.9

$$$$

     RDKit          2D

 10 11  0  0  0  0  0  0  0  0999 V2000
   -2.6000    0.7500    0.0000 C   0  0  0  0  0  0  0  0  0  0  0  0
   -2.6000   -0.7500    0.0000 C   0  0  0  0  0  0  0  0  0  0  0  0
    2.6000    0.7500    0.0000 C   0  0  0  0  0  0  0  0  0  0  0  0
   -1.3000    1.5000    0.0000 C   0  0  0  0  0  0  0  0  0  0  0  0
    1.3000    1.5000    0.0000 C   0  0  0  0  0  0  0  0  0  0  0  0
   -1.3000   -1.5000    0.0000 C   0  0  0  0  0  0  0  0  0  0  0  0
    2.6000   -0.7500    0.0000 C   0  0  0  0  0  0  0  0  0  0  0  0
   -0.0000    0.7500    0.0000 C   0  0  0  0  0  0  0  0  0  0  0  0
   -0.0000   -0.7500    0.0000 C   0  0  0  0  0  0  0  0  0  0  0  0
    1.3000   -1.5000    0.0000 N   0  0  0  0  0  0  0  0  0  0  0  0
  2  1  2  0
  4  1  1  0
  5  3  1  0
  6  2  1  0
  7  3  1  0
  8  4  2  0
  8  5  1  0
  9  6  2  0
  9  8  1  0
 10  7  1  0
 10  9  1  0
M  END
>  <NAME>  (3291) 
TETRAHYDROQUINOLINE

>  <SYNONYMS>  (3291) 


>  <SPECTRUM TYPE>  (3291) 
MS1

>  <INSTRUMENT TYPE>  (3291) 
EI-B

>  <INSTRUMENT>  (3291) 
HITACHI RMU-6M

>  <ION MODE>  (3291) 
P

>  <INCHIKEY>  (3291) 
LBUJPTNKIBCYBY-UHFFFAOYSA-N

>  <FORMULA>  (3291) 
C9H11N

>  <EXACT MASS>  (3291) 
133.089149352

>  <MW>  (3291) 
133

>  <ID>  (3291) 
JP007403

>  <CONTRIBUTOR>  (3291) 
University of Tokyo Team, {Faculty of Engineering, University of Tokyo

>  <COMMENT>  (3291) 
SMILES=C(C2)Cc(c1)c(N2)ccc1
cas=25448-04-8
InChI=InChI=1S/C9H11N/c1-2-6-9-8(4-1)5-3-7-10-9/h1-2,4,6,10H,3,5,7H2
computed SMILES=C=1C=CC2=C(C1)NCCC2
accession=JP007403
exact mass=133.08915
date=2016.01.19 (Created 2008.10.21, modified 2011.05.06)
author=YAMAMOTO M, DEP. CHEMISTRY, FAC. SCIENCE, NARA WOMEN'S UNIV.
license=CC BY-NC-SA
ionization energy=70 eV
ion type=[M]+*
computed spectral entropy=2.956673990027355
computed normalized entropy=0.7519850232978676
SPLASH=splash10-00lr-6900000000-3839cfb7c6ab6e9308da
submitter=submitter = University of Tokyo Team (Faculty of Engineering, University of Tokyo)
MoNA Rating=3.75

>  <NUM PEAKS>  (3291) 
51

>  <MASS SPECTRAL PEAKS>  (3291) 
18 32.3
27 4.9
28 4.5
29 0.41
39 2.1
40 7.6
41 1.1
42 0.19
50 5.6
51 13.1
52 5.6
53 0.23
54 1.3
59 1.9
62 1.8
63 0.46
64 2.4
64.5 4.8
65 8.6
65.5 0.9
66 3.2
66.5 4.8
67 1
74 0.21
75 2.4
76 3.1
77 16.7
78 0.97
79 4.3
89 2.7
90 3.2
91 0.86
92 1.2
101 1
102 3.1
103 0.56
104 10.3
105 6.5
106 3.1
115 0.45
116 1.6
117 19.2
118 25.1
119 0.24
128 1.4
129 1.7
130 14
131 0.64
132 99.99
133 9.41
134 9.3

$$$$

     RDKit          2D

 10 11  0  0  0  0  0  0  0  0999 V2000
   -2.6000    0.7500    0.0000 C   0  0  0  0  0  0  0  0  0  0  0  0
   -2.6000   -0.7500    0.0000 C   0  0  0  0  0  0  0  0  0  0  0  0
    2.6000    0.7500    0.0000 C   0  0  0  0  0  0  0  0  0  0  0  0
   -1.3000    1.5000    0.0000 C   0  0  0  0  0  0  0  0  0  0  0  0
    1.3000    1.5000    0.0000 C   0  0  0  0  0  0  0  0  0  0  0  0
   -1.3000   -1.5000    0.0000 C   0  0  0  0  0  0  0  0  0  0  0  0
    2.6000   -0.7500    0.0000 C   0  0  0  0  0  0  0  0  0  0  0  0
   -0.0000    0.7500    0.0000 C   0  0  0  0  0  0  0  0  0  0  0  0
   -0.0000   -0.7500    0.0000 C   0  0  0  0  0  0  0  0  0  0  0  0
    1.3000   -1.5000    0.0000 N   0  0  0  0  0  0  0  0  0  0  0  0
  2  1  2  0
  4  1  1  0
  5  3  2  0
  6  2  1  0
  7  3  1  0
  8  4  2  0
  8  5  1  0
  9  6  2  0
  9  8  1  0
 10  7  2  0
 10  9  1  0
M  END
>  <NAME>  (3292) 
QUINOLINE

>  <SYNONYMS>  (3292) 


>  <SPECTRUM TYPE>  (3292) 
MS1

>  <INSTRUMENT TYPE>  (3292) 
EI-B

>  <INSTRUMENT>  (3292) 
HITACHI RMU-6M

>  <ION MODE>  (3292) 
P

>  <INCHIKEY>  (3292) 
SMWDFEZZVXVKRB-UHFFFAOYSA-N

>  <FORMULA>  (3292) 
C9H7N

>  <EXACT MASS>  (3292) 
129.057849224

>  <MW>  (3292) 
129

>  <ID>  (3292) 
JP007402

>  <CONTRIBUTOR>  (3292) 
University of Tokyo Team, {Faculty of Engineering, University of Tokyo

>  <COMMENT>  (3292) 
SMILES=c(c2)cc(c1)c(c2)ncc1
cas=91-22-5
InChI=InChI=1S/C9H7N/c1-2-6-9-8(4-1)5-3-7-10-9/h1-7H
computed SMILES=N=1C=CC=C2C=CC=CC12
accession=JP007402
date=2016.01.19 (Created 2008.10.21, modified 2011.05.06)
author=YAMAMOTO M, DEP. CHEMISTRY, FAC. SCIENCE, NARA WOMEN'S UNIV.
license=CC BY-NC-SA
exact mass=129.05785
ionization energy=70 eV
ion type=[M]+*
computed spectral entropy=2.582289378373924
computed normalized entropy=0.7000199953658248
SPLASH=splash10-004i-5900000000-f63ba1bba58ccc63c20a
submitter=submitter = University of Tokyo Team (Faculty of Engineering, University of Tokyo)
MoNA Rating=3.75

>  <NUM PEAKS>  (3292) 
40

>  <MASS SPECTRAL PEAKS>  (3292) 
17 1.58
18 6.72
26 0.69
27 0.99
28 2.18
32 0.59
37 1.09
38 1.98
39 3.36
49 0.99
50 8.6
50.5 0.69
51 14.04
51.5 0.89
52 3.07
61 1.19
62 2.08
63 4.15
64 2.18
64.5 5.24
65 0.99
73 0.69
74 4.45
75 7.12
76 8.6
77 3.16
78 1.98
79 0.79
87 0.79
89 0.69
98 0.79
99 0.79
100 0.99
101 5.73
102 19.78
103 6.53
127 1.58
128 15.13
129 99.99
130 10.28

$$$$

     RDKit          2D

 11 12  0  0  0  0  0  0  0  0999 V2000
   -0.4775    2.9800    0.0000 C   0  0  0  0  0  0  0  0  0  0  0  0
    1.3259   -2.1785    0.0000 C   0  0  0  0  0  0  0  0  0  0  0  0
    2.2869   -0.5080    0.0000 C   0  0  0  0  0  0  0  0  0  0  0  0
   -1.7800    0.7300    0.0000 C   0  0  0  0  0  0  0  0  0  0  0  0
   -3.0789    1.4802    0.0000 H   0  0  0  0  0  0  0  0  0  0  0  0
   -1.7800   -0.7700    0.0000 C   0  0  0  0  0  0  0  0  0  0  0  0
   -0.4800   -0.0200    0.0000 C   0  0  0  0  0  0  0  0  0  0  0  0
   -0.4800    1.4800    0.0000 C   0  0  0  0  0  0  0  0  0  0  0  0
   -0.4800   -1.5200    0.0000 C   0  0  0  0  0  0  0  0  0  0  0  0
    0.8100    0.7300    0.0000 C   0  0  0  0  0  0  0  0  0  0  0  0
    0.8100   -0.7700    0.0000 C   0  0  0  0  0  0  0  0  0  0  0  0
  4  5  1  0
  6  4  1  0
  8  1  1  0
  8  4  1  0
  9  6  1  0
  9  7  1  0
 10  7  1  0
 10  8  1  0
 11  2  1  0
 11  3  1  0
 11  9  1  0
 11 10  1  0
M  ISO  1   5   2
M  END
>  <NAME>  (3293) 
PINANE (3-D1)

>  <SYNONYMS>  (3293) 
2,6,6-TRIMETHYLBICYCLO(3.1.1)HEPTANE (3-D1)

>  <SPECTRUM TYPE>  (3293) 
MS1

>  <INSTRUMENT TYPE>  (3293) 
EI-B

>  <INSTRUMENT>  (3293) 
HITACHI RMU-6M

>  <ION MODE>  (3293) 
P

>  <INCHIKEY>  (3293) 
XOKSLPVRUOBDEW-QYKNYGDISA-N

>  <FORMULA>  (3293) 
C10H18

>  <EXACT MASS>  (3293) 
139.147127322

>  <MW>  (3293) 
139

>  <ID>  (3293) 
JP007400

>  <CONTRIBUTOR>  (3293) 
University of Tokyo Team, {Faculty of Engineering, University of Tokyo

>  <COMMENT>  (3293) 
SMILES=[2H]C(C1)C(C)C(C2)C(C)(C)C12
InChI=InChI=1S/C10H18/c1-7-4-5-8-6-9(7)10(8,2)3/h7-9H,4-6H2,1-3H3/i4D
computed SMILES=[H]C1CC2CC(C1C)C2(C)C
accession=JP007400
date=2016.01.19 (Created 2008.10.21, modified 2011.05.06)
author=YAMAMOTO M, DEP. CHEMISTRY, FAC. SCIENCE, NARA WOMEN'S UNIV.
license=CC BY-NC-SA
exact mass=138.14085
ionization energy=70 eV
ion type=[M]+*
computed spectral entropy=3.5091987592017024
computed normalized entropy=0.8375866211601951
SPLASH=splash10-05o1-9000000000-0f82b577f36a18221e41
submitter=submitter = University of Tokyo Team (Faculty of Engineering, University of Tokyo)
MoNA Rating=3.75

>  <NUM PEAKS>  (3293) 
66

>  <MASS SPECTRAL PEAKS>  (3293) 
15 1.02
26 0.8
27 23.35
28 6.77
29 15.52
30 5.5
38 1.06
39 27.79
40 9.18
41 70.95
42 21.78
43 15.44
44 3.34
50 1.44
51 5.12
52 3.34
53 15.57
54 8.54
55 63.01
56 42.49
57 8.67
58 1.82
63 1.31
64 0.55
65 5.12
66 3.51
67 28.61
68 48.41
69 66.91
70 23.09
71 5.03
72 0.63
77 9.77
78 4.23
79 10.32
80 11.12
81 30.64
82 72.69
83 79.77
84 46.97
85 5.46
91 7.7
92 9.52
93 30.64
94 7.36
95 23.01
96 99.99
97 33.38
98 7.23
99 0.63
103 1.23
105 1.95
106 0.59
107 1.73
108 1.02
109 5.29
110 7.95
111 3.85
121 3.81
122 0.59
123 1.35
124 28.09
125 2.96
136 3.89
139 15.99
140 1.82

$$$$

     RDKit          2D

 11 12  0  0  0  0  0  0  0  0999 V2000
   -1.4428    2.6302    0.0000 C   0  0  0  0  0  0  0  0  0  0  0  0
    1.3259   -2.1785    0.0000 C   0  0  0  0  0  0  0  0  0  0  0  0
    2.2869   -0.5080    0.0000 C   0  0  0  0  0  0  0  0  0  0  0  0
   -1.7800    0.7300    0.0000 C   0  0  0  0  0  0  0  0  0  0  0  0
   -1.7800   -0.7700    0.0000 C   0  0  0  0  0  0  0  0  0  0  0  0
   -0.4800   -0.0200    0.0000 C   0  0  0  0  0  0  0  0  0  0  0  0
   -0.4800    1.4800    0.0000 C   0  0  0  0  0  0  0  0  0  0  0  0
    0.4866    2.6270    0.0000 H   0  0  0  0  0  0  0  0  0  0  0  0
   -0.4800   -1.5200    0.0000 C   0  0  0  0  0  0  0  0  0  0  0  0
    0.8100    0.7300    0.0000 C   0  0  0  0  0  0  0  0  0  0  0  0
    0.8100   -0.7700    0.0000 C   0  0  0  0  0  0  0  0  0  0  0  0
  7  8  1  0
  5  4  1  0
  7  1  1  0
  7  4  1  0
  9  5  1  0
  9  6  1  0
 10  6  1  0
 10  7  1  0
 11  2  1  0
 11  3  1  0
 11  9  1  0
 11 10  1  0
M  ISO  1   8   2
M  END
>  <NAME>  (3294) 
PINANE (2-D1)

>  <SYNONYMS>  (3294) 
2,6,6-TRIMETHYLBICYCLO(3.1.1)HEPTANE (2-D1)

>  <SPECTRUM TYPE>  (3294) 
MS1

>  <INSTRUMENT TYPE>  (3294) 
EI-B

>  <INSTRUMENT>  (3294) 
HITACHI RMU-6M

>  <ION MODE>  (3294) 
P

>  <INCHIKEY>  (3294) 
XOKSLPVRUOBDEW-WHRKIXHSSA-N

>  <FORMULA>  (3294) 
C10H18

>  <EXACT MASS>  (3294) 
139.147127322

>  <MW>  (3294) 
139

>  <ID>  (3294) 
JP007399

>  <CONTRIBUTOR>  (3294) 
University of Tokyo Team, {Faculty of Engineering, University of Tokyo

>  <COMMENT>  (3294) 
SMILES=[2H]C(C)(C2)C(C1)C(C)(C)C(C2)1
InChI=InChI=1S/C10H18/c1-7-4-5-8-6-9(7)10(8,2)3/h7-9H,4-6H2,1-3H3/i7D
computed SMILES=[H]C1(C)CCC2CC1C2(C)C
accession=JP007399
date=2016.01.19 (Created 2008.10.21, modified 2011.05.06)
author=YAMAMOTO M, DEP. CHEMISTRY, FAC. SCIENCE, NARA WOMEN'S UNIV.
license=CC BY-NC-SA
exact mass=138.14085
ionization energy=70 eV
ion type=[M]+*
computed spectral entropy=3.3955348371063145
computed normalized entropy=0.8327415465384076
SPLASH=splash10-001i-9000000000-4aed3e1a8b4bbfea28f5
submitter=submitter = University of Tokyo Team (Faculty of Engineering, University of Tokyo)
MoNA Rating=3.75

>  <NUM PEAKS>  (3294) 
59

>  <MASS SPECTRAL PEAKS>  (3294) 
15 1
26 0.79
27 20.37
28 6.43
29 14.58
30 5.79
38 0.93
39 24.45
40 8.58
41 66.27
42 19.66
43 12.94
44 3.93
50 1.07
51 4.29
52 3
53 13.01
54 8.94
55 60.96
56 41.18
57 7.93
58 1.57
63 1.22
65 3.22
66 3.29
67 29.38
68 51.57
69 60.72
70 24.73
71 4.36
77 5.22
78 3.57
79 6.08
80 9.94
81 31.24
82 83.13
83 68.43
84 50.4
85 6.08
91 2.57
92 2.64
93 3.57
94 11.37
95 24.38
96 99.99
97 29.81
98 6.36
108 0.71
109 4.15
110 7.65
111 3.86
122 0.64
123 1.64
124 26.88
125 2.86
137 1
138 0.5
139 14.58
140 1.57

$$$$

     RDKit          2D

 11 11  0  0  1  0  0  0  0  0999 V2000
   -3.5376   -0.2051    0.0000 C   0  0  0  0  0  0  0  0  0  0  0  0
   -2.2386   -2.4551    0.0000 C   0  0  0  0  0  0  0  0  0  0  0  0
    2.9576    2.0449    0.0000 C   0  0  0  0  0  0  0  0  0  0  0  0
    0.3590    2.0458    0.0000 C   0  0  0  0  0  0  0  0  0  0  0  0
   -0.9400    1.2958    0.0000 C   0  0  0  0  0  0  0  0  0  0  0  0
    1.6590   -0.2059    0.0000 C   0  0  0  0  0  0  0  0  0  0  0  0
   -2.2386   -0.9551    0.0000 C   0  0  0  0  0  0  0  0  0  0  0  0
    1.6585    1.2949    0.0000 C   0  0  0  0  0  0  0  0  0  0  0  0
   -0.9395   -0.2051    0.0000 C   0  0  0  0  0  0  0  0  0  0  0  0
    0.3600   -0.9559    0.0000 C   0  0  0  0  0  0  0  0  0  0  0  0
    0.3597   -2.4559    0.0000 O   0  0  0  0  0  0  0  0  0  0  0  0
  5  4  1  0
  7  1  1  0
  7  2  1  0
  8  3  1  1
  8  4  1  0
  8  6  1  0
  9  5  1  0
  9  7  1  6
 10  6  1  0
 10  9  1  0
 11 10  2  0
M  END
>  <NAME>  (3295) 
TRANS-MENTHONE

>  <SYNONYMS>  (3295) 
TRNS-5-METHYL-2-(1-METHYLETHYL)CYCLOHEXANONE

>  <SPECTRUM TYPE>  (3295) 
MS1

>  <INSTRUMENT TYPE>  (3295) 
EI-B

>  <INSTRUMENT>  (3295) 
HITACHI M-80

>  <ION MODE>  (3295) 
P

>  <INCHIKEY>  (3295) 
NFLGAXVYCFJBMK-BDAKNGLRSA-N

>  <FORMULA>  (3295) 
C10H18O

>  <EXACT MASS>  (3295) 
154.135765196

>  <MW>  (3295) 
154

>  <ID>  (3295) 
JP007382

>  <CONTRIBUTOR>  (3295) 
University of Tokyo Team, {Faculty of Engineering, University of Tokyo

>  <COMMENT>  (3295) 
SMILES=CC(C1)CC(=O)C(C1)C(C)C
cas=89-80-5
InChI=InChI=1S/C10H18O/c1-7(2)9-5-4-8(3)6-10(9)11/h7-9H,4-6H2,1-3H3/t8-,9+/m1/s1
computed SMILES=O=C1CC(C)CCC1C(C)C
accession=JP007382
date=2016.01.19 (Created 2008.10.21, modified 2011.05.06)
author=YAMAMOTO M, DEP. CHEMISTRY, FAC. SCIENCE, NARA WOMEN'S UNIV.
license=CC BY-NC-SA
exact mass=154.13577
ionization energy=70 eV
ion type=[M]+*
computed spectral entropy=2.7467992393634533
computed normalized entropy=0.7998862767385523
SPLASH=splash10-03di-7900000000-72f9ad70ae1001e21eaf
submitter=submitter = University of Tokyo Team (Faculty of Engineering, University of Tokyo)
MoNA Rating=3.75

>  <NUM PEAKS>  (3295) 
31

>  <MASS SPECTRAL PEAKS>  (3295) 
55 17.59
56 15.5
57 3.56
58 1.12
67 1.85
68 1.99
69 38
70 20.11
71 2.85
79 1.2
81 2.66
83 15.94
84 11.35
85 1.63
93 2.33
94 1.95
95 10.52
96 1.22
97 18.57
98 7.51
109 1.61
110 5.71
111 20.69
112 99.99
113 7.48
121 4.09
125 5.79
139 38.98
140 3.9
154 28.04
155 3.16

$$$$

     RDKit          2D

 14 15  0  0  0  0  0  0  0  0999 V2000
    6.1370    1.3606    0.0000 C   0  0  0  0  0  0  0  0  0  0  0  0
   -2.9500   -0.8900    0.0000 C   0  0  0  0  0  0  0  0  0  0  0  0
   -2.9500    0.6100    0.0000 C   0  0  0  0  0  0  0  0  0  0  0  0
   -1.6500   -1.6400    0.0000 C   0  0  0  0  0  0  0  0  0  0  0  0
   -1.6500    1.3600    0.0000 C   0  0  0  0  0  0  0  0  0  0  0  0
    0.9400   -1.6400    0.0000 C   0  0  0  0  0  0  0  0  0  0  0  0
    2.2400   -0.8900    0.0000 C   0  0  0  0  0  0  0  0  0  0  0  0
    0.9400    1.3600    0.0000 C   0  0  0  0  0  0  0  0  0  0  0  0
    4.8381    0.6104    0.0000 C   0  0  0  0  0  0  0  0  0  0  0  0
   -0.3500   -0.8900    0.0000 C   0  0  0  0  0  0  0  0  0  0  0  0
   -0.3500    0.6100    0.0000 C   0  0  0  0  0  0  0  0  0  0  0  0
    2.2400    0.6100    0.0000 C   0  0  0  0  0  0  0  0  0  0  0  0
    4.8383   -0.8896    0.0000 O   0  0  0  0  0  0  0  0  0  0  0  0
    3.5389    1.3602    0.0000 O   0  0  0  0  0  0  0  0  0  0  0  0
  3  2  2  0
  4  2  1  0
  5  3  1  0
  7  6  2  0
  9  1  1  0
 10  4  2  0
 10  6  1  0
 11  5  2  0
 11  8  1  0
 11 10  1  0
 12  7  1  0
 12  8  2  0
 13  9  2  0
 14  9  1  0
 14 12  1  0
M  END
>  <NAME>  (3296) 
2-NAPHTHYL ACETATE

>  <SYNONYMS>  (3296) 


>  <SPECTRUM TYPE>  (3296) 
MS1

>  <INSTRUMENT TYPE>  (3296) 
EI-B

>  <INSTRUMENT>  (3296) 
ESCO EMD-05A

>  <ION MODE>  (3296) 
P

>  <INCHIKEY>  (3296) 
RJNPPEUAJCEUPV-UHFFFAOYSA-N

>  <FORMULA>  (3296) 
C12H10O2

>  <EXACT MASS>  (3296) 
186.06807956

>  <MW>  (3296) 
186

>  <ID>  (3296) 
JP007381

>  <CONTRIBUTOR>  (3296) 
University of Tokyo Team, {Faculty of Engineering, University of Tokyo

>  <COMMENT>  (3296) 
SMILES=CC(=O)Oc(c1)cc(c2)c(ccc2)c1
cas=1523-11-1
InChI=InChI=1S/C12H10O2/c1-9(13)14-12-7-6-10-4-2-3-5-11(10)8-12/h2-8H,1H3
computed SMILES=O=C(OC=1C=CC=2C=CC=CC2C1)C
accession=JP007381
date=2016.01.19 (Created 2008.10.21, modified 2011.05.06)
author=YAMAMOTO M, DEP. CHEMISTRY, FAC. SCIENCE, NARA WOMEN'S UNIV.
license=CC BY-NC-SA
exact mass=186.06808
ionization energy=70 eV
ion type=[M]+*
computed spectral entropy=1.835067413589236
computed normalized entropy=0.6232315991512708
SPLASH=splash10-0006-1900000000-ca350e72685767a29377
submitter=submitter = University of Tokyo Team (Faculty of Engineering, University of Tokyo)
MoNA Rating=3.75

>  <NUM PEAKS>  (3296) 
19

>  <MASS SPECTRAL PEAKS>  (3296) 
39 2.93
43 11.54
50 1.13
51 2
63 4.84
86 1.49
87 1.44
88 1.59
89 4.94
95 1.9
113 1.39
115 22.46
116 6.33
143 1.44
144 99.99
145 9.68
171 1.44
186 10.3
187 1.75

$$$$

     RDKit          2D

 14 15  0  0  0  0  0  0  0  0999 V2000
    2.4790    4.9800    0.0000 C   0  0  0  0  0  0  0  0  0  0  0  0
   -2.7200   -1.0200    0.0000 C   0  0  0  0  0  0  0  0  0  0  0  0
   -2.7200    0.4800    0.0000 C   0  0  0  0  0  0  0  0  0  0  0  0
    2.4800   -1.0200    0.0000 C   0  0  0  0  0  0  0  0  0  0  0  0
   -1.4200   -1.7700    0.0000 C   0  0  0  0  0  0  0  0  0  0  0  0
    1.1800   -1.7700    0.0000 C   0  0  0  0  0  0  0  0  0  0  0  0
   -1.4200    1.2300    0.0000 C   0  0  0  0  0  0  0  0  0  0  0  0
    2.4800    0.4800    0.0000 C   0  0  0  0  0  0  0  0  0  0  0  0
    2.4790    3.4800    0.0000 C   0  0  0  0  0  0  0  0  0  0  0  0
   -0.1200   -1.0200    0.0000 C   0  0  0  0  0  0  0  0  0  0  0  0
   -0.1200    0.4800    0.0000 C   0  0  0  0  0  0  0  0  0  0  0  0
    1.1800    1.2300    0.0000 C   0  0  0  0  0  0  0  0  0  0  0  0
    3.7781    2.7300    0.0000 O   0  0  0  0  0  0  0  0  0  0  0  0
    1.1800    2.7300    0.0000 O   0  0  0  0  0  0  0  0  0  0  0  0
  3  2  2  0
  5  2  1  0
  6  4  2  0
  7  3  1  0
  8  4  1  0
  9  1  1  0
 10  5  2  0
 10  6  1  0
 11  7  2  0
 11 10  1  0
 12  8  2  0
 12 11  1  0
 13  9  2  0
 14  9  1  0
 14 12  1  0
M  END
>  <NAME>  (3297) 
1-NAPHTHYL ACETATE

>  <SYNONYMS>  (3297) 


>  <SPECTRUM TYPE>  (3297) 
MS1

>  <INSTRUMENT TYPE>  (3297) 
EI-B

>  <INSTRUMENT>  (3297) 
ESCO EMD-05A

>  <ION MODE>  (3297) 
P

>  <INCHIKEY>  (3297) 
VGKONPUVOVVNSU-UHFFFAOYSA-N

>  <FORMULA>  (3297) 
C12H10O2

>  <EXACT MASS>  (3297) 
186.06807956

>  <MW>  (3297) 
186

>  <ID>  (3297) 
JP007380

>  <CONTRIBUTOR>  (3297) 
University of Tokyo Team, {Faculty of Engineering, University of Tokyo

>  <COMMENT>  (3297) 
SMILES=CC(=O)Oc(c1)c(c2)c(ccc2)cc1
cas=830-81-9
InChI=InChI=1S/C12H10O2/c1-9(13)14-12-8-4-6-10-5-2-3-7-11(10)12/h2-8H,1H3
computed SMILES=O=C(OC1=CC=CC=2C=CC=CC12)C
accession=JP007380
date=2016.01.19 (Created 2008.10.21, modified 2011.05.06)
author=YAMAMOTO M, DEP. CHEMISTRY, FAC. SCIENCE, NARA WOMEN'S UNIV.
license=CC BY-NC-SA
exact mass=186.06808
ionization energy=70 eV
ion type=[M]+*
computed spectral entropy=1.740149902987687
computed normalized entropy=0.7002878370244402
SPLASH=splash10-0006-1900000000-3d6c1aec7f6439fc12f8
submitter=submitter = University of Tokyo Team (Faculty of Engineering, University of Tokyo)
MoNA Rating=3.75

>  <NUM PEAKS>  (3297) 
12

>  <MASS SPECTRAL PEAKS>  (3297) 
15 3.86
39 1.49
43 13.57
63 4.07
89 4.88
114 2.24
115 30.21
116 16.36
144 99.99
145 11.88
186 15.13
187 1.96

$$$$

     RDKit          2D

 13 15  0  0  0  0  0  0  0  0999 V2000
   -3.4600    0.2100    0.0000 C   0  0  0  0  0  0  0  0  0  0  0  0
    2.6700    2.2000    0.0000 C   0  0  0  0  0  0  0  0  0  0  0  0
   -3.4600   -1.2900    0.0000 C   0  0  0  0  0  0  0  0  0  0  0  0
    3.5500    0.9900    0.0000 C   0  0  0  0  0  0  0  0  0  0  0  0
   -2.1600    0.9600    0.0000 C   0  0  0  0  0  0  0  0  0  0  0  0
    1.1800    2.0400    0.0000 C   0  0  0  0  0  0  0  0  0  0  0  0
   -2.1600   -2.0400    0.0000 C   0  0  0  0  0  0  0  0  0  0  0  0
    2.9400   -0.3800    0.0000 C   0  0  0  0  0  0  0  0  0  0  0  0
   -0.8600    0.2100    0.0000 C   0  0  0  0  0  0  0  0  0  0  0  0
    0.5700    0.6700    0.0000 C   0  0  0  0  0  0  0  0  0  0  0  0
   -0.8600   -1.2900    0.0000 C   0  0  0  0  0  0  0  0  0  0  0  0
    1.4500   -0.5400    0.0000 C   0  0  0  0  0  0  0  0  0  0  0  0
    0.5700   -1.7500    0.0000 O   0  0  0  0  0  0  0  0  0  0  0  0
  3  1  2  0
  4  2  2  0
  5  1  1  0
  6  2  1  0
  7  3  1  0
  8  4  1  0
  9  5  2  0
 10  6  2  0
 10  9  1  0
 11  7  2  0
 11  9  1  0
 12  8  2  0
 12 10  1  0
 13 11  1  0
 13 12  1  0
M  END
>  <NAME>  (3298) 
DIBENZOFURAN

>  <SYNONYMS>  (3298) 


>  <SPECTRUM TYPE>  (3298) 
MS1

>  <INSTRUMENT TYPE>  (3298) 
EI-B

>  <INSTRUMENT>  (3298) 
ESCO EMD-05A

>  <ION MODE>  (3298) 
P

>  <INCHIKEY>  (3298) 
TXCDCPKCNAJMEE-UHFFFAOYSA-N

>  <FORMULA>  (3298) 
C12H8O

>  <EXACT MASS>  (3298) 
168.057514876

>  <MW>  (3298) 
168

>  <ID>  (3298) 
JP007379

>  <CONTRIBUTOR>  (3298) 
University of Tokyo Team, {Faculty of Engineering, University of Tokyo

>  <COMMENT>  (3298) 
SMILES=c(c3)cc(o1)c(c3)c(c2)c(ccc2)1
cas=132-64-9
InChI=InChI=1S/C12H8O/c1-3-7-11-9(5-1)10-6-2-4-8-12(10)13-11/h1-8H
computed SMILES=O1C=2C=CC=CC2C=3C=CC=CC13
accession=JP007379
date=2016.01.19 (Created 2008.10.21, modified 2011.05.06)
author=YAMAMOTO M, DEP. CHEMISTRY, FAC. SCIENCE, NARA WOMEN'S UNIV.
license=CC BY-NC-SA
exact mass=168.05751
ionization energy=70 eV
ion type=[M]+*
computed spectral entropy=1.5474139775696432
computed normalized entropy=0.586351027772192
SPLASH=splash10-014i-1900000000-3f9a1a065ce677127a32
submitter=submitter = University of Tokyo Team (Faculty of Engineering, University of Tokyo)
MoNA Rating=3.75

>  <NUM PEAKS>  (3298) 
14

>  <MASS SPECTRAL PEAKS>  (3298) 
63 3.14
69 4.69
74 1.24
84 9.03
87 4.3
88 1.51
89 2.17
114 2.48
137 1.28
138 1.55
139 23.6
140 2.79
168 99.99
169 13.51

$$$$

     RDKit          2D

 11 11  0  0  0  0  0  0  0  0999 V2000
   -4.8712    2.0071    0.0000 C   0  0  0  0  0  0  0  0  0  0  0  0
    2.9231    0.5071    0.0000 C   0  0  0  0  0  0  0  0  0  0  0  0
    2.9236    2.0079    0.0000 C   0  0  0  0  0  0  0  0  0  0  0  0
    1.6236   -0.2437    0.0000 C   0  0  0  0  0  0  0  0  0  0  0  0
    1.6245    2.7579    0.0000 C   0  0  0  0  0  0  0  0  0  0  0  0
    0.3245    0.5063    0.0000 C   0  0  0  0  0  0  0  0  0  0  0  0
   -2.2731    2.0071    0.0000 C   0  0  0  0  0  0  0  0  0  0  0  0
   -0.9740    2.7571    0.0000 C   0  0  0  0  0  0  0  0  0  0  0  0
   -3.5721    2.7571    0.0000 C   0  0  0  0  0  0  0  0  0  0  0  0
    0.3250    2.0071    0.0000 C   0  0  0  0  0  0  0  0  0  0  0  0
   -3.5721    4.2571    0.0000 O   0  0  0  0  0  0  0  0  0  0  0  0
  3  2  2  0
  4  2  1  0
  5  3  1  0
  6  4  2  0
  7  8  2  0
  9  1  1  0
  9  7  1  0
 10  5  2  0
 10  6  1  0
 10  8  1  0
 11  9  2  0
M  END
>  <NAME>  (3299) 
4-PHENYL-3-BUTEN-2-ONE

>  <SYNONYMS>  (3299) 
BENZYLIDENEACETONE

>  <SPECTRUM TYPE>  (3299) 
MS1

>  <INSTRUMENT TYPE>  (3299) 
EI-B

>  <INSTRUMENT>  (3299) 
HITACHI RMU-6M

>  <ION MODE>  (3299) 
P

>  <INCHIKEY>  (3299) 
BWHOZHOGCMHOBV-BQYQJAHWSA-N

>  <FORMULA>  (3299) 
C10H10O

>  <EXACT MASS>  (3299) 
146.07316494

>  <MW>  (3299) 
146

>  <ID>  (3299) 
JP007378

>  <CONTRIBUTOR>  (3299) 
University of Tokyo Team, {Faculty of Engineering, University of Tokyo

>  <COMMENT>  (3299) 
SMILES=CC(=O)C=Cc(c1)cccc1
cas=5876-76-6
InChI=InChI=1S/C10H10O/c1-9(11)7-8-10-5-3-2-4-6-10/h2-8H,1H3/b8-7+
computed SMILES=O=C(C=CC=1C=CC=CC1)C
accession=JP007378
date=2016.01.19 (Created 2008.10.21, modified 2011.05.06)
author=YAMAMOTO M, DEP. CHEMISTRY, FAC. SCIENCE, NARA WOMEN'S UNIV.
license=CC BY-NC-SA
exact mass=146.07316
ionization energy=70 eV
ion type=[M]+*
computed spectral entropy=2.748551700978246
computed normalized entropy=0.7450912221902476
SPLASH=splash10-0f7k-4900000000-8295a2d505aa2a9f77ce
submitter=submitter = University of Tokyo Team (Faculty of Engineering, University of Tokyo)
MoNA Rating=3.75

>  <NUM PEAKS>  (3299) 
40

>  <MASS SPECTRAL PEAKS>  (3299) 
15 4.54
27 3.12
28 2
38 2
39 6.19
43 25.34
50 9.55
51 28.95
51.5 4.66
52 4.18
53 1.24
57.5 1.24
58 2.06
62 2.77
63 6.78
64 1.06
65 1.77
65.5 3.83
73 1.65
74 4.65
75 4.88
76 5.9
77 42.52
78 4.18
82 1.18
89 1.23
91 2.3
101 1.83
102 9.73
103 80.5
104 8.2
105 1.06
115 3.24
117 2.48
131 99.99
132 10.26
144 1.18
145 42.17
146 74.13
147 8.26

$$$$

     RDKit          2D

  7  6  0  0  0  0  0  0  0  0999 V2000
    1.9486    2.6250    0.0000 C   0  0  0  0  0  0  0  0  0  0  0  0
   -4.5466    3.3750    0.0000 C   0  0  0  0  0  0  0  0  0  0  0  0
    0.6495    3.3750    0.0000 C   0  0  0  0  0  0  0  0  0  0  0  0
   -1.9486    3.3750    0.0000 C   0  0  0  0  0  0  0  0  0  0  0  0
   -0.6495    2.6250    0.0000 C   0  0  0  0  0  0  0  0  0  0  0  0
   -0.6495    1.1250    0.0000 N   0  0  0  0  0  0  0  0  0  0  0  0
   -3.2476    2.6250    0.0000 O   0  0  0  0  0  0  0  0  0  0  0  0
  3  1  1  0
  5  3  1  0
  5  4  1  0
  6  5  1  0
  7  2  1  0
  7  4  1  0
M  END
>  <NAME>  (3300) 
2-AMINO-1-METHOXYBUTANE

>  <SYNONYMS>  (3300) 


>  <SPECTRUM TYPE>  (3300) 
MS1

>  <INSTRUMENT TYPE>  (3300) 
EI-B

>  <INSTRUMENT>  (3300) 
HITACHI RMU-6M

>  <ION MODE>  (3300) 
P

>  <INCHIKEY>  (3300) 
QAFODUGVXFNLBE-UHFFFAOYSA-N

>  <FORMULA>  (3300) 
C5H13NO

>  <EXACT MASS>  (3300) 
103.099714036

>  <MW>  (3300) 
103

>  <ID>  (3300) 
JP007377

>  <CONTRIBUTOR>  (3300) 
University of Tokyo Team, {Faculty of Engineering, University of Tokyo

>  <COMMENT>  (3300) 
SMILES=CCC(N)COC
InChI=InChI=1S/C5H13NO/c1-3-5(6)4-7-2/h5H,3-4,6H2,1-2H3
computed SMILES=O(C)CC(N)CC
accession=JP007377
date=2016.01.19 (Created 2008.10.21, modified 2011.05.06)
author=YAMAMOTO M, DEP. CHEMISTRY, FAC. SCIENCE, NARA WOMEN'S UNIV.
license=CC BY-NC-SA
exact mass=103.09971
ionization energy=70 eV
ion type=[M]+*
computed spectral entropy=2.1190798510898996
computed normalized entropy=0.7073662322220559
SPLASH=splash10-0a4i-9000000000-a79e17cd992925af471d
submitter=submitter = University of Tokyo Team (Faculty of Engineering, University of Tokyo)
MoNA Rating=3.75

>  <NUM PEAKS>  (3300) 
20

>  <MASS SPECTRAL PEAKS>  (3300) 
15 4.93
18 3.39
27 3.2
28 5.76
29 2.37
30 14.88
31 2.72
39 1.74
41 20.53
42 8.64
43 5.49
44 6.67
45 6.9
56 3.44
57 1.38
58 99.99
59 7.66
73 1.97
74 14.21
75 1.15

$$$$

     RDKit          2D

  6  5  0  0  0  0  0  0  0  0999 V2000
   -4.5466    3.3750    0.0000 C   0  0  0  0  0  0  0  0  0  0  0  0
   -0.6495    2.6250    0.0000 C   0  0  0  0  0  0  0  0  0  0  0  0
    0.6495    3.3750    0.0000 C   0  0  0  0  0  0  0  0  0  0  0  0
   -1.9486    3.3750    0.0000 C   0  0  0  0  0  0  0  0  0  0  0  0
    1.9486    2.6250    0.0000 N   0  0  0  0  0  0  0  0  0  0  0  0
   -3.2476    2.6250    0.0000 O   0  0  0  0  0  0  0  0  0  0  0  0
  3  2  1  0
  4  2  1  0
  5  3  1  0
  6  1  1  0
  6  4  1  0
M  END
>  <NAME>  (3301) 
3-AMINOPROPYL METHYL ETHER

>  <SYNONYMS>  (3301) 
3-METHOXY-1-PROPANAMINE

>  <SPECTRUM TYPE>  (3301) 
MS1

>  <INSTRUMENT TYPE>  (3301) 
EI-B

>  <INSTRUMENT>  (3301) 
HITACHI RMU-6M

>  <ION MODE>  (3301) 
P

>  <INCHIKEY>  (3301) 
FAXDZWQIWUSWJH-UHFFFAOYSA-N

>  <FORMULA>  (3301) 
C4H11NO

>  <EXACT MASS>  (3301) 
89.084063972

>  <MW>  (3301) 
89

>  <ID>  (3301) 
JP007376

>  <CONTRIBUTOR>  (3301) 
University of Tokyo Team, {Faculty of Engineering, University of Tokyo

>  <COMMENT>  (3301) 
SMILES=NCCCOC
cas=5332-73-0
InChI=InChI=1S/C4H11NO/c1-6-4-2-3-5/h2-5H2,1H3
computed SMILES=O(C)CCCN
accession=JP007376
date=2016.01.19 (Created 2008.10.21, modified 2011.05.06)
author=YAMAMOTO M, DEP. CHEMISTRY, FAC. SCIENCE, NARA WOMEN'S UNIV.
license=CC BY-NC-SA
exact mass=89.08406
ionization energy=70 eV
ion type=[M]+*
computed spectral entropy=2.1225488934495846
computed normalized entropy=0.6769423724867577
SPLASH=splash10-001i-9000000000-2f28e8279291e2309dff
submitter=submitter = University of Tokyo Team (Faculty of Engineering, University of Tokyo)
MoNA Rating=3.75

>  <NUM PEAKS>  (3301) 
23

>  <MASS SPECTRAL PEAKS>  (3301) 
15 5.17
18 5.57
27 2.83
28 7.96
29 3.89
30 99.99
31 3.23
33 2.25
39 1.24
41 2.96
42 2.92
43 1.53
44 3.54
45 15.62
56 10.22
57 5.97
58 1.06
59 2.57
71 2.08
72 23.36
73 1.06
74 5.62
89 1.41

$$$$

     RDKit          2D

  8  7  0  0  0  0  0  0  0  0999 V2000
    1.9486    3.3750    0.0000 C   0  0  0  0  0  0  0  0  0  0  0  0
   -5.8457    3.3750    0.0000 C   0  0  0  0  0  0  0  0  0  0  0  0
   -1.9486    5.6250    0.0000 C   0  0  0  0  0  0  0  0  0  0  0  0
    0.6495    4.1250    0.0000 C   0  0  0  0  0  0  0  0  0  0  0  0
   -4.5466    4.1250    0.0000 C   0  0  0  0  0  0  0  0  0  0  0  0
   -1.9486    4.1250    0.0000 C   0  0  0  0  0  0  0  0  0  0  0  0
   -0.6495    3.3750    0.0000 O   0  0  0  0  0  0  0  0  0  0  0  0
   -3.2476    3.3750    0.0000 O   0  0  0  0  0  0  0  0  0  0  0  0
  4  1  1  0
  5  2  1  0
  6  3  1  0
  7  4  1  0
  7  6  1  0
  8  5  1  0
  8  6  1  0
M  END
>  <NAME>  (3302) 
ACETAL

>  <SYNONYMS>  (3302) 
1,1-DIETHOXYETHANE

>  <SPECTRUM TYPE>  (3302) 
MS1

>  <INSTRUMENT TYPE>  (3302) 
EI-B

>  <INSTRUMENT>  (3302) 
HITACHI RMU-6M

>  <ION MODE>  (3302) 
P

>  <INCHIKEY>  (3302) 
DHKHKXVYLBGOIT-UHFFFAOYSA-N

>  <FORMULA>  (3302) 
C6H14O2

>  <EXACT MASS>  (3302) 
118.099379688

>  <MW>  (3302) 
118

>  <ID>  (3302) 
JP007375

>  <CONTRIBUTOR>  (3302) 
University of Tokyo Team, {Faculty of Engineering, University of Tokyo

>  <COMMENT>  (3302) 
SMILES=CCOC(C)OCC
cas=105-57-7
InChI=InChI=1S/C6H14O2/c1-4-7-6(3)8-5-2/h6H,4-5H2,1-3H3
computed SMILES=O(CC)C(OCC)C
accession=JP007375
date=2016.01.19 (Created 2008.10.21, modified 2011.05.06)
author=YAMAMOTO M, DEP. CHEMISTRY, FAC. SCIENCE, NARA WOMEN'S UNIV.
license=CC BY-NC-SA
exact mass=118.09938
ionization energy=70 eV
ion type=[M]+*
computed spectral entropy=2.0083959072302036
computed normalized entropy=0.6948572970738093
SPLASH=splash10-006t-9000000000-3b353ea9f033af3d7ad3
submitter=submitter = University of Tokyo Team (Faculty of Engineering, University of Tokyo)
MoNA Rating=3.75

>  <NUM PEAKS>  (3302) 
18

>  <MASS SPECTRAL PEAKS>  (3302) 
15 3.3
26 1.27
27 9.08
28 2.18
29 12.04
31 3.5
43 11.76
44 4.77
45 99.99
46 2.54
47 17.13
61 3.41
72 1.31
73 61.6
74 2.95
75 5.9
103 18.31
104 1.18

$$$$

     RDKit          2D

  6  5  0  0  0  0  0  0  0  0999 V2000
   -4.5466    3.3750    0.0000 C   0  0  0  0  0  0  0  0  0  0  0  0
    1.9486    2.6250    0.0000 C   0  0  0  0  0  0  0  0  0  0  0  0
   -1.9486    3.3750    0.0000 C   0  0  0  0  0  0  0  0  0  0  0  0
   -0.6495    2.6250    0.0000 C   0  0  0  0  0  0  0  0  0  0  0  0
   -3.2476    2.6250    0.0000 O   0  0  0  0  0  0  0  0  0  0  0  0
    0.6495    3.3750    0.0000 O   0  0  0  0  0  0  0  0  0  0  0  0
  4  3  1  0
  5  1  1  0
  5  3  1  0
  6  2  1  0
  6  4  1  0
M  END
>  <NAME>  (3303) 
1,2-DIMETHOXYETHANE

>  <SYNONYMS>  (3303) 


>  <SPECTRUM TYPE>  (3303) 
MS1

>  <INSTRUMENT TYPE>  (3303) 
EI-B

>  <INSTRUMENT>  (3303) 
HITACHI RMU-6M

>  <ION MODE>  (3303) 
P

>  <INCHIKEY>  (3303) 
XTHFKEDIFFGKHM-UHFFFAOYSA-N

>  <FORMULA>  (3303) 
C4H10O2

>  <EXACT MASS>  (3303) 
90.06807956

>  <MW>  (3303) 
90

>  <ID>  (3303) 
JP007374

>  <CONTRIBUTOR>  (3303) 
University of Tokyo Team, {Faculty of Engineering, University of Tokyo

>  <COMMENT>  (3303) 
SMILES=COCCOC
cas=110-71-4
InChI=InChI=1S/C4H10O2/c1-5-3-4-6-2/h3-4H2,1-2H3
computed SMILES=O(C)CCOC
accession=JP007374
date=2016.01.19 (Created 2008.10.21, modified 2011.05.06)
author=YAMAMOTO M, DEP. CHEMISTRY, FAC. SCIENCE, NARA WOMEN'S UNIV.
license=CC BY-NC-SA
exact mass=90.06808
ionization energy=70 eV
ion type=[M]+*
computed spectral entropy=1.6110809051306145
computed normalized entropy=0.6483466512788574
SPLASH=splash10-0002-9000000000-e7b250fec25ad146c602
submitter=submitter = University of Tokyo Team (Faculty of Engineering, University of Tokyo)
MoNA Rating=3.75

>  <NUM PEAKS>  (3303) 
12

>  <MASS SPECTRAL PEAKS>  (3303) 
15 11.86
27 2.45
28 3.59
29 11.51
31 5.08
43 3.72
45 99.99
46 2.28
58 5.59
59 2.96
60 12.54
90 10.82

$$$$

     RDKit          2D

  8  7  0  0  0  0  0  0  0  0999 V2000
   -1.6582    1.5531    0.0000 C   0  0  0  0  0  0  0  0  0  0  0  0
    0.2701    1.5531    0.0000 C   0  0  0  0  0  0  0  0  0  0  0  0
    1.9040    2.7022    0.0000 C   0  0  0  0  0  0  0  0  0  0  0  0
   -1.9931    3.4522    0.0000 C   0  0  0  0  0  0  0  0  0  0  0  0
   -3.2921    2.7022    0.0000 C   0  0  0  0  0  0  0  0  0  0  0  0
   -0.6941    2.7022    0.0000 C   0  0  0  0  0  0  0  0  0  0  0  0
   -4.5912    3.4522    0.0000 O   0  0  0  0  0  0  0  0  0  0  0  0
    0.6050    3.4522    0.0000 O   0  0  0  0  0  0  0  0  0  0  0  0
  5  4  1  0
  6  1  1  0
  6  2  1  0
  6  4  1  0
  7  5  1  0
  8  3  1  0
  8  6  1  0
M  END
>  <NAME>  (3304) 
3-METHOXY-3-METHYL-1-BUTANOL

>  <SYNONYMS>  (3304) 


>  <SPECTRUM TYPE>  (3304) 
MS1

>  <INSTRUMENT TYPE>  (3304) 
EI-B

>  <INSTRUMENT>  (3304) 
HITACHI RMU-6M

>  <ION MODE>  (3304) 
P

>  <INCHIKEY>  (3304) 
MFKRHJVUCZRDTF-UHFFFAOYSA-N

>  <FORMULA>  (3304) 
C6H14O2

>  <EXACT MASS>  (3304) 
118.099379688

>  <MW>  (3304) 
118

>  <ID>  (3304) 
JP007373

>  <CONTRIBUTOR>  (3304) 
University of Tokyo Team, {Faculty of Engineering, University of Tokyo

>  <COMMENT>  (3304) 
SMILES=OCCC(C)(C)OC
cas=56539-66-3
InChI=InChI=1S/C6H14O2/c1-6(2,8-3)4-5-7/h7H,4-5H2,1-3H3
computed SMILES=OCCC(OC)(C)C
accession=JP007373
date=2016.01.19 (Created 2008.10.21, modified 2011.05.06)
author=YAMAMOTO M, DEP. CHEMISTRY, FAC. SCIENCE, NARA WOMEN'S UNIV.
license=CC BY-NC-SA
exact mass=118.09938
ionization energy=70 eV
ion type=[M]+*
computed spectral entropy=2.3260505985434117
computed normalized entropy=0.7226282482141583
SPLASH=splash10-00di-9000000000-29ee0abad224625b5740
submitter=submitter = University of Tokyo Team (Faculty of Engineering, University of Tokyo)
MoNA Rating=3.75

>  <NUM PEAKS>  (3304) 
25

>  <MASS SPECTRAL PEAKS>  (3304) 
15 2.57
27 4.91
28 2.11
29 5.97
31 7.18
33 8.61
39 4.91
40 1.27
41 17.76
42 2.69
43 8.45
45 5.02
53 4.17
55 4.17
56 4.91
57 2.48
59 1.79
69 8.51
70 1
71 3.75
72 1.21
73 99.99
74 4.39
85 6.23
103 9.51

$$$$

     RDKit          2D

  7  6  0  0  0  0  0  0  0  0999 V2000
   -0.6495    1.1250    0.0000 C   0  0  0  0  0  0  0  0  0  0  0  0
    1.9486    2.6250    0.0000 C   0  0  0  0  0  0  0  0  0  0  0  0
   -1.9486    3.3750    0.0000 C   0  0  0  0  0  0  0  0  0  0  0  0
   -3.2476    2.6250    0.0000 C   0  0  0  0  0  0  0  0  0  0  0  0
   -0.6495    2.6250    0.0000 C   0  0  0  0  0  0  0  0  0  0  0  0
   -4.5466    3.3750    0.0000 O   0  0  0  0  0  0  0  0  0  0  0  0
    0.6495    3.3750    0.0000 O   0  0  0  0  0  0  0  0  0  0  0  0
  4  3  1  0
  5  1  1  0
  5  3  1  0
  6  4  1  0
  7  2  1  0
  7  5  1  0
M  END
>  <NAME>  (3305) 
3-METHOXY-1-BUTANOL

>  <SYNONYMS>  (3305) 


>  <SPECTRUM TYPE>  (3305) 
MS1

>  <INSTRUMENT TYPE>  (3305) 
EI-B

>  <INSTRUMENT>  (3305) 
HITACHI RMU-6M

>  <ION MODE>  (3305) 
P

>  <INCHIKEY>  (3305) 
JSGVZVOGOQILFM-UHFFFAOYSA-N

>  <FORMULA>  (3305) 
C5H12O2

>  <EXACT MASS>  (3305) 
104.083729624

>  <MW>  (3305) 
104

>  <ID>  (3305) 
JP007372

>  <CONTRIBUTOR>  (3305) 
University of Tokyo Team, {Faculty of Engineering, University of Tokyo

>  <COMMENT>  (3305) 
SMILES=OCCC(C)OC
cas=2517-43-3
InChI=InChI=1S/C5H12O2/c1-5(7-2)3-4-6/h5-6H,3-4H2,1-2H3
computed SMILES=OCCC(OC)C
accession=JP007372
date=2016.01.19 (Created 2008.10.21, modified 2011.05.06)
author=YAMAMOTO M, DEP. CHEMISTRY, FAC. SCIENCE, NARA WOMEN'S UNIV.
license=CC BY-NC-SA
exact mass=104.08373
ionization energy=70 eV
ion type=[M]+*
computed spectral entropy=2.1569597901498074
computed normalized entropy=0.6978098239337804
SPLASH=splash10-0a4i-9000000000-1a6f6dd44387247d4bcb
submitter=submitter = University of Tokyo Team (Faculty of Engineering, University of Tokyo)
MoNA Rating=3.75

>  <NUM PEAKS>  (3305) 
22

>  <MASS SPECTRAL PEAKS>  (3305) 
14 1.57
15 4.57
27 5.12
28 1.7
29 10.46
31 17.6
33 8.21
39 3.41
41 6.43
42 4.71
43 6.59
45 4.18
55 4.26
56 1.46
57 4.73
58 2.87
59 99.99
60 3.65
71 3.87
72 2.17
86 2.17
89 6.51

$$$$

     RDKit          2D

  7  6  0  0  0  0  0  0  0  0999 V2000
    1.9486    2.6250    0.0000 C   0  0  0  0  0  0  0  0  0  0  0  0
   -4.5466    3.3750    0.0000 C   0  0  0  0  0  0  0  0  0  0  0  0
    0.6495    3.3750    0.0000 C   0  0  0  0  0  0  0  0  0  0  0  0
   -1.9486    3.3750    0.0000 C   0  0  0  0  0  0  0  0  0  0  0  0
   -0.6495    2.6250    0.0000 C   0  0  0  0  0  0  0  0  0  0  0  0
   -0.6495    1.1250    0.0000 O   0  0  0  0  0  0  0  0  0  0  0  0
   -3.2476    2.6250    0.0000 O   0  0  0  0  0  0  0  0  0  0  0  0
  3  1  1  0
  5  3  1  0
  5  4  1  0
  6  5  1  0
  7  2  1  0
  7  4  1  0
M  END
>  <NAME>  (3306) 
1-METHOXY-2-BUTANOL

>  <SYNONYMS>  (3306) 


>  <SPECTRUM TYPE>  (3306) 
MS1

>  <INSTRUMENT TYPE>  (3306) 
EI-B

>  <INSTRUMENT>  (3306) 
HITACHI RMU-6M

>  <ION MODE>  (3306) 
P

>  <INCHIKEY>  (3306) 
CSZZMFWKAQEMPB-UHFFFAOYSA-N

>  <FORMULA>  (3306) 
C5H12O2

>  <EXACT MASS>  (3306) 
104.083729624

>  <MW>  (3306) 
104

>  <ID>  (3306) 
JP007371

>  <CONTRIBUTOR>  (3306) 
University of Tokyo Team, {Faculty of Engineering, University of Tokyo

>  <COMMENT>  (3306) 
SMILES=CCC(O)COC
cas=53778-73-7
InChI=InChI=1S/C5H12O2/c1-3-5(6)4-7-2/h5-6H,3-4H2,1-2H3
computed SMILES=OC(COC)CC
accession=JP007371
date=2016.01.19 (Created 2008.10.21, modified 2011.05.06)
author=YAMAMOTO M, DEP. CHEMISTRY, FAC. SCIENCE, NARA WOMEN'S UNIV.
license=CC BY-NC-SA
exact mass=104.08373
ionization energy=70 eV
ion type=[M]+*
computed spectral entropy=2.463221263055806
computed normalized entropy=0.7750722280201663
SPLASH=splash10-0a4i-9000000000-7e39fb777385d63d8b3d
submitter=submitter = University of Tokyo Team (Faculty of Engineering, University of Tokyo)
MoNA Rating=3.75

>  <NUM PEAKS>  (3306) 
24

>  <MASS SPECTRAL PEAKS>  (3306) 
15 11.09
26 1.24
27 8.67
28 2.41
29 7.98
31 54.77
33 2.72
39 3.28
41 21
42 1.54
43 13.94
44 2.29
45 42.87
46 3.22
47 23.04
55 3.16
57 5.26
58 36.37
59 99.99
60 3.47
71 1.98
73 6.69
75 20.63
104 0.99

$$$$

     RDKit          2D

  6  5  0  0  0  0  0  0  0  0999 V2000
    0.0000    0.0000    0.0000 C   0  0  0  0  0  0  0  0  0  0  0  0
   -2.5981    4.5000    0.0000 C   0  0  0  0  0  0  0  0  0  0  0  0
   -1.2990    2.2500    0.0000 C   0  0  0  0  0  0  0  0  0  0  0  0
    0.0000    1.5000    0.0000 C   0  0  0  0  0  0  0  0  0  0  0  0
    1.2990    2.2500    0.0000 O   0  0  0  0  0  0  0  0  0  0  0  0
   -1.2990    3.7500    0.0000 O   0  0  0  0  0  0  0  0  0  0  0  0
  4  1  1  0
  4  3  1  0
  5  4  1  0
  6  2  1  0
  6  3  1  0
M  END
>  <NAME>  (3307) 
1-METHOXY-2-PROPANOL

>  <SYNONYMS>  (3307) 


>  <SPECTRUM TYPE>  (3307) 
MS1

>  <INSTRUMENT TYPE>  (3307) 
EI-B

>  <INSTRUMENT>  (3307) 
HITACHI RMU-6M

>  <ION MODE>  (3307) 
P

>  <INCHIKEY>  (3307) 
ARXJGSRGQADJSQ-UHFFFAOYSA-N

>  <FORMULA>  (3307) 
C4H10O2

>  <EXACT MASS>  (3307) 
90.06807956

>  <MW>  (3307) 
90

>  <ID>  (3307) 
JP007370

>  <CONTRIBUTOR>  (3307) 
University of Tokyo Team, {Faculty of Engineering, University of Tokyo

>  <COMMENT>  (3307) 
cas=107-98-2
InChI=InChI=1S/C4H10O2/c1-4(5)3-6-2/h4-5H,3H2,1-2H3
SMILES=COCC(C)O
computed SMILES=OC(C)COC
accession=JP007370
date=2016.01.19 (Created 2008.10.21, modified 2011.05.06)
author=YAMAMOTO M, DEP. CHEMISTRY, FAC. SCIENCE, NARA WOMEN'S UNIV.
license=CC BY-NC-SA
exact mass=90.06808
ionization energy=70 eV
ion type=[M]+*
computed spectral entropy=1.8651544502558761
computed normalized entropy=0.6452991540484326
SPLASH=splash10-0002-9000000000-518e6767aa266b20dc08
submitter=submitter = University of Tokyo Team (Faculty of Engineering, University of Tokyo)
MoNA Rating=3.75

>  <NUM PEAKS>  (3307) 
18

>  <MASS SPECTRAL PEAKS>  (3307) 
15 7.78
27 4.92
28 1.68
29 7.77
31 12.42
33 1.36
39 1.54
41 2.87
42 1.18
43 8.78
44 2.18
45 99.99
46 4.87
47 31.94
57 1.77
59 4.46
75 4.37
90 0.82

$$$$

     RDKit          2D

  5  4  0  0  0  0  0  0  0  0999 V2000
   -3.8971    2.2500    0.0000 C   0  0  0  0  0  0  0  0  0  0  0  0
    0.0000    1.5000    0.0000 C   0  0  0  0  0  0  0  0  0  0  0  0
   -1.2990    2.2500    0.0000 C   0  0  0  0  0  0  0  0  0  0  0  0
    1.2990    2.2500    0.0000 O   0  0  0  0  0  0  0  0  0  0  0  0
   -2.5981    1.5000    0.0000 O   0  0  0  0  0  0  0  0  0  0  0  0
  3  2  1  0
  4  2  1  0
  5  1  1  0
  5  3  1  0
M  END
>  <NAME>  (3308) 
2-METHOXYETHANOL

>  <SYNONYMS>  (3308) 
METHYL CELLOSOLVE

>  <SPECTRUM TYPE>  (3308) 
MS1

>  <INSTRUMENT TYPE>  (3308) 
EI-B

>  <INSTRUMENT>  (3308) 
HITACHI RMU-6M

>  <ION MODE>  (3308) 
P

>  <INCHIKEY>  (3308) 
XNWFRZJHXBZDAG-UHFFFAOYSA-N

>  <FORMULA>  (3308) 
C3H8O2

>  <EXACT MASS>  (3308) 
76.052429496

>  <MW>  (3308) 
76

>  <ID>  (3308) 
JP007369

>  <CONTRIBUTOR>  (3308) 
University of Tokyo Team, {Faculty of Engineering, University of Tokyo

>  <COMMENT>  (3308) 
SMILES=COCCO
cas=109-86-4
InChI=InChI=1S/C3H8O2/c1-5-3-2-4/h4H,2-3H2,1H3
computed SMILES=OCCOC
accession=JP007369
date=2016.01.19 (Created 2008.10.21, modified 2011.05.06)
author=YAMAMOTO M, DEP. CHEMISTRY, FAC. SCIENCE, NARA WOMEN'S UNIV.
license=CC BY-NC-SA
exact mass=76.05243
ionization energy=70 eV
ion type=[M]+*
computed spectral entropy=1.7870259946600138
computed normalized entropy=0.6598939687058504
SPLASH=splash10-0002-9000000000-ff9aecff13c337356d4e
submitter=submitter = University of Tokyo Team (Faculty of Engineering, University of Tokyo)
MoNA Rating=3.75

>  <NUM PEAKS>  (3308) 
15

>  <MASS SPECTRAL PEAKS>  (3308) 
14 1.21
15 15.94
27 4.64
28 2.11
29 15.99
30 1.06
31 16.75
42 1.46
43 6.86
44 1.36
45 99.99
46 4.13
47 7.82
58 3.63
76 8.68

$$$$

     RDKit          2D

  8  7  0  0  0  0  0  0  0  0999 V2000
   -0.6495    4.1250    0.0000 C   0  0  0  0  0  0  0  0  0  0  0  0
   -1.9486    4.8750    0.0000 C   0  0  0  0  0  0  0  0  0  0  0  0
    0.6495    4.8750    0.0000 C   0  0  0  0  0  0  0  0  0  0  0  0
   -3.2476    4.1250    0.0000 C   0  0  0  0  0  0  0  0  0  0  0  0
    1.9486    4.1250    0.0000 C   0  0  0  0  0  0  0  0  0  0  0  0
   -4.5466    4.8750    0.0000 C   0  0  0  0  0  0  0  0  0  0  0  0
    3.2476    3.3750    0.0000 N   0  0  0  0  0  0  0  0  0  0  0  0
   -5.8457    5.6250    0.0000 N   0  0  0  0  0  0  0  0  0  0  0  0
  2  1  1  0
  3  1  1  0
  4  2  1  0
  5  3  1  0
  6  4  1  0
  7  5  3  0
  8  6  3  0
M  END
>  <NAME>  (3309) 
ADIPONITRILE

>  <SYNONYMS>  (3309) 
HEXANEDINITRILE

>  <SPECTRUM TYPE>  (3309) 
MS1

>  <INSTRUMENT TYPE>  (3309) 
EI-B

>  <INSTRUMENT>  (3309) 
HITACHI RMU-6M

>  <ION MODE>  (3309) 
P

>  <INCHIKEY>  (3309) 
BTGRAWJCKBQKAO-UHFFFAOYSA-N

>  <FORMULA>  (3309) 
C6H8N2

>  <EXACT MASS>  (3309) 
108.06874825599999

>  <MW>  (3309) 
108

>  <ID>  (3309) 
JP007368

>  <CONTRIBUTOR>  (3309) 
University of Tokyo Team, {Faculty of Engineering, University of Tokyo

>  <COMMENT>  (3309) 
SMILES=N#CCCCCC#N
cas=111-69-3
InChI=InChI=1S/C6H8N2/c7-5-3-1-2-4-6-8/h1-4H2
computed SMILES=N#CCCCCC#N
accession=JP007368
date=2016.01.19 (Created 2008.10.21, modified 2011.05.06)
author=YAMAMOTO M, DEP. CHEMISTRY, FAC. SCIENCE, NARA WOMEN'S UNIV.
license=CC BY-NC-SA
exact mass=108.06875
ionization energy=70 eV
ion type=[M]+*
computed spectral entropy=2.3555355046087127
computed normalized entropy=0.7411880447446101
SPLASH=splash10-0fr6-9000000000-fa4c798c5039209f7367
submitter=submitter = University of Tokyo Team (Faculty of Engineering, University of Tokyo)
MoNA Rating=3.75

>  <NUM PEAKS>  (3309) 
24

>  <MASS SPECTRAL PEAKS>  (3309) 
15 3.15
26 6.57
27 19.52
28 10.93
37 2.97
38 4.13
39 19.5
40 8.58
41 99.99
42 6.31
50 1.74
51 4.13
52 9.42
53 5.28
54 68.04
55 38.27
56 1.68
64 2.93
66 5.74
67 3.48
68 82.95
69 4.04
80 2.36
107 1.02

$$$$

     RDKit          2D

  5  4  0  0  0  0  0  0  0  0999 V2000
    1.9486    1.8750    0.0000 C   0  0  0  0  0  0  0  0  0  0  0  0
    0.6495    2.6250    0.0000 C   0  0  0  0  0  0  0  0  0  0  0  0
   -0.6495    1.8750    0.0000 C   0  0  0  0  0  0  0  0  0  0  0  0
   -1.9486    2.6250    0.0000 C   0  0  0  0  0  0  0  0  0  0  0  0
   -3.2476    3.3750    0.0000 N   0  0  0  0  0  0  0  0  0  0  0  0
  2  1  2  0
  3  2  1  0
  4  3  1  0
  5  4  3  0
M  END
>  <NAME>  (3310) 
ALLYL CYANIDE

>  <SYNONYMS>  (3310) 
3-BUTENENITRILE

>  <SPECTRUM TYPE>  (3310) 
MS1

>  <INSTRUMENT TYPE>  (3310) 
EI-B

>  <INSTRUMENT>  (3310) 
HITACHI RMU-6M

>  <ION MODE>  (3310) 
P

>  <INCHIKEY>  (3310) 
SJNALLRHIVGIBI-UHFFFAOYSA-N

>  <FORMULA>  (3310) 
C4H5N

>  <EXACT MASS>  (3310) 
67.04219916

>  <MW>  (3310) 
67

>  <ID>  (3310) 
JP007367

>  <CONTRIBUTOR>  (3310) 
University of Tokyo Team, {Faculty of Engineering, University of Tokyo

>  <COMMENT>  (3310) 
SMILES=C=CCC#N
cas=109-75-1
InChI=InChI=1S/C4H5N/c1-2-3-4-5/h2H,1,3H2
computed SMILES=N#CCC=C
computed normalized entropy=0.7361267218131274
accession=JP007367
date=2016.01.19 (Created 2008.10.21, modified 2011.05.06)
author=YAMAMOTO M, DEP. CHEMISTRY, FAC. SCIENCE, NARA WOMEN'S UNIV.
license=CC BY-NC-SA
exact mass=67.0422
ionization energy=70 eV
ion type=[M]+*
computed spectral entropy=2.339450347879686
SPLASH=splash10-000f-9000000000-574ce4c69ef2a03bee74
submitter=submitter = University of Tokyo Team (Faculty of Engineering, University of Tokyo)
MoNA Rating=3.75

>  <NUM PEAKS>  (3310) 
24

>  <MASS SPECTRAL PEAKS>  (3310) 
14 1.11
15 1.7
25 1.37
26 5.63
27 23.83
28 5.24
32.5 1.63
36 1.5
37 10.41
38 13.55
39 36.53
40 19.77
41 99.99
42 2.81
50 1.37
51 2.29
53 7.53
62 1.31
63 2.94
64 7.14
65 2.03
66 13.03
67 44
68 2.29

$$$$

     RDKit          2D

  4  3  0  0  0  0  0  0  0  0999 V2000
    0.0000    0.0000    0.0000 C   0  0  0  0  0  0  0  0  0  0  0  0
    0.0000    1.5000    0.0000 C   0  0  0  0  0  0  0  0  0  0  0  0
   -1.2990    2.2500    0.0000 C   0  0  0  0  0  0  0  0  0  0  0  0
   -2.5981    3.0000    0.0000 N   0  0  0  0  0  0  0  0  0  0  0  0
  2  1  2  0
  3  2  1  0
  4  3  3  0
M  END
>  <NAME>  (3311) 
ACRYLONITRILE

>  <SYNONYMS>  (3311) 
2-PROPENENITRILE

>  <SPECTRUM TYPE>  (3311) 
MS1

>  <INSTRUMENT TYPE>  (3311) 
EI-B

>  <INSTRUMENT>  (3311) 
HITACHI RMU-6M

>  <ION MODE>  (3311) 
P

>  <INCHIKEY>  (3311) 
NLHHRLWOUZZQLW-UHFFFAOYSA-N

>  <FORMULA>  (3311) 
C3H3N

>  <EXACT MASS>  (3311) 
53.026549096

>  <MW>  (3311) 
53

>  <ID>  (3311) 
JP007366

>  <CONTRIBUTOR>  (3311) 
University of Tokyo Team, {Faculty of Engineering, University of Tokyo

>  <COMMENT>  (3311) 
SMILES=C=CC#N
cas=107-13-1
InChI=InChI=1S/C3H3N/c1-2-3-4/h2H,1H2
computed SMILES=N#CC=C
accession=JP007366
date=2016.01.19 (Created 2008.10.21, modified 2011.05.06)
author=YAMAMOTO M, DEP. CHEMISTRY, FAC. SCIENCE, NARA WOMEN'S UNIV.
license=CC BY-NC-SA
exact mass=53.02655
ionization energy=70 eV
ion type=[M]+*
computed spectral entropy=1.8113951083734106
computed normalized entropy=0.6863795977624667
SPLASH=splash10-0udi-9000000000-71e029b11b3af3c757fa
submitter=submitter = University of Tokyo Team (Faculty of Engineering, University of Tokyo)
MoNA Rating=3.75

>  <NUM PEAKS>  (3311) 
14

>  <MASS SPECTRAL PEAKS>  (3311) 
24 2.01
25 5.52
26 71.77
27 9.89
28 3.59
36 1.52
37 3.18
38 4.01
39 1.38
50 6.71
51 28.99
52 67.68
53 99.99
54 3.53

$$$$

     RDKit          2D

 10 10  0  0  0  0  0  0  0  0999 V2000
    3.8971   -0.7500    0.0000 C   0  0  0  0  0  0  0  0  0  0  0  0
   -3.8971    0.7500    0.0000 C   0  0  0  0  0  0  0  0  0  0  0  0
    1.2995    0.7508    0.0000 C   0  0  0  0  0  0  0  0  0  0  0  0
   -0.0005   -1.5008    0.0000 C   0  0  0  0  0  0  0  0  0  0  0  0
    0.0005    1.5008    0.0000 C   0  0  0  0  0  0  0  0  0  0  0  0
   -1.2995   -0.7508    0.0000 C   0  0  0  0  0  0  0  0  0  0  0  0
    1.2990   -0.7500    0.0000 C   0  0  0  0  0  0  0  0  0  0  0  0
   -1.2990    0.7500    0.0000 C   0  0  0  0  0  0  0  0  0  0  0  0
    2.5981   -1.5000    0.0000 O   0  0  0  0  0  0  0  0  0  0  0  0
   -2.5981    1.5000    0.0000 O   0  0  0  0  0  0  0  0  0  0  0  0
  5  3  2  0
  6  4  1  0
  7  3  1  0
  7  4  2  0
  8  5  1  0
  8  6  2  0
  9  1  1  0
  9  7  1  0
 10  2  1  0
 10  8  1  0
M  END
>  <NAME>  (3312) 
1,4-DIMETHOXYBENZENE

>  <SYNONYMS>  (3312) 


>  <SPECTRUM TYPE>  (3312) 
MS1

>  <INSTRUMENT TYPE>  (3312) 
EI-B

>  <INSTRUMENT>  (3312) 
ESCO EMD-05A

>  <ION MODE>  (3312) 
P

>  <INCHIKEY>  (3312) 
OHBQPCCCRFSCAX-UHFFFAOYSA-N

>  <FORMULA>  (3312) 
C8H10O2

>  <EXACT MASS>  (3312) 
138.06807956

>  <MW>  (3312) 
138

>  <ID>  (3312) 
JP007365

>  <CONTRIBUTOR>  (3312) 
University of Tokyo Team, {Faculty of Engineering, University of Tokyo

>  <COMMENT>  (3312) 
SMILES=COc(c1)ccc(OC)c1
cas=150-78-7
InChI=InChI=1S/C8H10O2/c1-9-7-3-5-8(10-2)6-4-7/h3-6H,1-2H3
computed SMILES=O(C1=CC=C(OC)C=C1)C
accession=JP007365
date=2016.01.19 (Created 2008.10.21, modified 2011.05.06)
author=YAMAMOTO M, DEP. CHEMISTRY, FAC. SCIENCE, NARA WOMEN'S UNIV.
license=CC BY-NC-SA
exact mass=138.06808
ionization energy=70 eV
ion type=[M]+*
computed normalized entropy=0.689048679059285
computed spectral entropy=2.343590563054207
SPLASH=splash10-0079-5900000000-acbf1612453243f711e3
submitter=submitter = University of Tokyo Team (Faculty of Engineering, University of Tokyo)
MoNA Rating=3.75

>  <NUM PEAKS>  (3312) 
30

>  <MASS SPECTRAL PEAKS>  (3312) 
39 8.13
41 8.54
50 6.15
51 4.24
52 3.96
53 3.55
54 5.6
55 2.67
62 2.8
63 4.51
64 6.49
65 3.55
66 2.46
67 1.98
69 2.67
77 1.44
79 1.44
80 3.35
92 4.51
94 2.32
95 46.14
96 3.28
106 1.5
108 4.1
122 1.64
123 99.99
124 7.38
137 2.6
138 94.81
139 12.99

$$$$

     RDKit          2D

 10 10  0  0  0  0  0  0  0  0999 V2000
   -3.5794    0.1813    0.0000 C   0  0  0  0  0  0  0  0  0  0  0  0
    4.2153    0.1861    0.0000 C   0  0  0  0  0  0  0  0  0  0  0  0
    0.3223   -2.0565    0.0000 C   0  0  0  0  0  0  0  0  0  0  0  0
   -0.9768   -1.3065    0.0000 C   0  0  0  0  0  0  0  0  0  0  0  0
    1.6168   -1.3143    0.0000 C   0  0  0  0  0  0  0  0  0  0  0  0
    0.3182    0.9365    0.0000 C   0  0  0  0  0  0  0  0  0  0  0  0
   -0.9813    0.1857    0.0000 C   0  0  0  0  0  0  0  0  0  0  0  0
    1.6173    0.1865    0.0000 C   0  0  0  0  0  0  0  0  0  0  0  0
   -2.2816    0.9335    0.0000 O   0  0  0  0  0  0  0  0  0  0  0  0
    2.9164    0.9363    0.0000 O   0  0  0  0  0  0  0  0  0  0  0  0
  4  3  2  0
  5  3  1  0
  7  4  1  0
  7  6  2  0
  8  5  2  0
  8  6  1  0
  9  1  1  0
  9  7  1  0
 10  2  1  0
 10  8  1  0
M  END
>  <NAME>  (3313) 
1,3-DIMETHOXYBENZENE

>  <SYNONYMS>  (3313) 


>  <SPECTRUM TYPE>  (3313) 
MS1

>  <INSTRUMENT TYPE>  (3313) 
EI-B

>  <INSTRUMENT>  (3313) 
HITACHI RMU-6M

>  <ION MODE>  (3313) 
P

>  <INCHIKEY>  (3313) 
DPZNOMCNRMUKPS-UHFFFAOYSA-N

>  <FORMULA>  (3313) 
C8H10O2

>  <EXACT MASS>  (3313) 
138.06807956

>  <MW>  (3313) 
138

>  <ID>  (3313) 
JP007364

>  <CONTRIBUTOR>  (3313) 
University of Tokyo Team, {Faculty of Engineering, University of Tokyo

>  <COMMENT>  (3313) 
SMILES=COc(c1)cc(OC)cc1
cas=151-10-0
InChI=InChI=1S/C8H10O2/c1-9-7-4-3-5-8(6-7)10-2/h3-6H,1-2H3
computed SMILES=O(C1=CC=CC(OC)=C1)C
accession=JP007364
date=2016.01.19 (Created 2008.10.21, modified 2011.05.06)
author=YAMAMOTO M, DEP. CHEMISTRY, FAC. SCIENCE, NARA WOMEN'S UNIV.
license=CC BY-NC-SA
exact mass=138.06808
ionization energy=70 eV
ion type=[M]+*
computed spectral entropy=2.918478794455359
computed normalized entropy=0.7966233617328572
SPLASH=splash10-000i-9700000000-4a1b86bad29afd7b67a9
submitter=submitter = University of Tokyo Team (Faculty of Engineering, University of Tokyo)
MoNA Rating=3.75

>  <NUM PEAKS>  (3313) 
39

>  <MASS SPECTRAL PEAKS>  (3313) 
15 3.48
26 1.54
27 1.48
28 2.26
37 1.25
38 4.88
39 8.49
41 11.29
50 4.58
51 6.22
52 10.23
53 1.66
62 2.76
63 10.02
64 9.72
65 16.5
66 1.51
67 2.38
69 2.31
74 1.33
76 1.18
77 8.85
78 21.62
79 6.05
80 6.16
92 6.91
93 6.57
94 3.12
95 20.37
96 1.23
105 1.11
107 5.05
108 15.05
109 26.48
110 2.01
123 1.14
137 2.47
138 99.99
139 9.15

$$$$

     RDKit          2D

 10 10  0  0  0  0  0  0  0  0999 V2000
   -1.6328    3.1878    0.0000 C   0  0  0  0  0  0  0  0  0  0  0  0
    3.5681    0.1904    0.0000 C   0  0  0  0  0  0  0  0  0  0  0  0
   -1.6200   -1.3100    0.0000 C   0  0  0  0  0  0  0  0  0  0  0  0
   -0.3300   -2.0600    0.0000 C   0  0  0  0  0  0  0  0  0  0  0  0
   -1.6200    0.1900    0.0000 C   0  0  0  0  0  0  0  0  0  0  0  0
    0.9700   -1.3100    0.0000 C   0  0  0  0  0  0  0  0  0  0  0  0
   -0.3300    0.9400    0.0000 C   0  0  0  0  0  0  0  0  0  0  0  0
    0.9700    0.1900    0.0000 C   0  0  0  0  0  0  0  0  0  0  0  0
   -0.3325    2.4400    0.0000 O   0  0  0  0  0  0  0  0  0  0  0  0
    2.2689    0.9402    0.0000 O   0  0  0  0  0  0  0  0  0  0  0  0
  4  3  2  0
  5  3  1  0
  6  4  1  0
  7  5  2  0
  8  6  2  0
  8  7  1  0
  9  1  1  0
  9  7  1  0
 10  2  1  0
 10  8  1  0
M  END
>  <NAME>  (3314) 
1,2-DIMETHOXYBENZENE

>  <SYNONYMS>  (3314) 
VERATROLE

>  <SPECTRUM TYPE>  (3314) 
MS1

>  <INSTRUMENT TYPE>  (3314) 
EI-B

>  <INSTRUMENT>  (3314) 
HITACHI RMU-6M

>  <ION MODE>  (3314) 
P

>  <INCHIKEY>  (3314) 
ABDKAPXRBAPSQN-UHFFFAOYSA-N

>  <FORMULA>  (3314) 
C8H10O2

>  <EXACT MASS>  (3314) 
138.06807956

>  <MW>  (3314) 
138

>  <ID>  (3314) 
JP007363

>  <CONTRIBUTOR>  (3314) 
University of Tokyo Team, {Faculty of Engineering, University of Tokyo

>  <COMMENT>  (3314) 
SMILES=COc(c1)c(OC)ccc1
cas=91-16-7
InChI=InChI=1S/C8H10O2/c1-9-7-5-3-4-6-8(7)10-2/h3-6H,1-2H3
computed SMILES=O(C=1C=CC=CC1OC)C
accession=JP007363
date=2016.01.19 (Created 2008.10.21, modified 2011.05.06)
author=YAMAMOTO M, DEP. CHEMISTRY, FAC. SCIENCE, NARA WOMEN'S UNIV.
license=CC BY-NC-SA
exact mass=138.06808
ionization energy=70 eV
ion type=[M]+*
computed spectral entropy=2.7921712384487893
computed normalized entropy=0.7675890318042151
SPLASH=splash10-000i-9600000000-f768976db437187c3fe9
submitter=submitter = University of Tokyo Team (Faculty of Engineering, University of Tokyo)
MoNA Rating=3.75

>  <NUM PEAKS>  (3314) 
38

>  <MASS SPECTRAL PEAKS>  (3314) 
15 4.13
26 3.39
27 1.49
28 2.31
29 1.4
31 2.15
37 1.32
38 3.89
39 6.94
41 14.06
50 6.61
51 12.9
52 17.94
53 2.73
54 1.32
55 3.22
62 2.23
63 7.61
64 5.36
65 14.65
66 1.22
67 6.28
74 1.22
76 1.32
77 27.79
78 2.81
79 1.98
80 6.95
92 3.97
93 3.89
95 43.76
96 2.98
121 1.22
122 1.9
123 41.6
124 3.23
138 99.99
139 9.26

$$$$

     RDKit          2D

  5  4  0  0  0  0  0  0  0  0999 V2000
   -3.8971    2.2500    0.0000 C   0  0  0  0  0  0  0  0  0  0  0  0
    0.0000    1.5000    0.0000 C   0  0  0  0  0  0  0  0  0  0  0  0
   -1.2990    2.2500    0.0000 C   0  0  0  0  0  0  0  0  0  0  0  0
    1.2990    2.2500    0.0000 N   0  0  0  0  0  0  0  0  0  0  0  0
   -2.5981    1.5000    0.0000 O   0  0  0  0  0  0  0  0  0  0  0  0
  3  2  1  0
  4  2  1  0
  5  1  1  0
  5  3  1  0
M  END
>  <NAME>  (3315) 
2-METHOXYETHYLAMINE

>  <SYNONYMS>  (3315) 


>  <SPECTRUM TYPE>  (3315) 
MS1

>  <INSTRUMENT TYPE>  (3315) 
EI-B

>  <INSTRUMENT>  (3315) 
HITACHI RMU-6M

>  <ION MODE>  (3315) 
P

>  <INCHIKEY>  (3315) 
ASUDFOJKTJLAIK-UHFFFAOYSA-N

>  <FORMULA>  (3315) 
C3H9NO

>  <EXACT MASS>  (3315) 
75.068413908

>  <MW>  (3315) 
75

>  <ID>  (3315) 
JP007362

>  <CONTRIBUTOR>  (3315) 
University of Tokyo Team, {Faculty of Engineering, University of Tokyo

>  <COMMENT>  (3315) 
SMILES=NCCOC
cas=109-85-3
InChI=InChI=1S/C3H9NO/c1-5-3-2-4/h2-4H2,1H3
computed SMILES=O(C)CCN
accession=JP007362
date=2016.01.19 (Created 2008.10.21, modified 2011.05.06)
author=YAMAMOTO M, DEP. CHEMISTRY, FAC. SCIENCE, NARA WOMEN'S UNIV.
license=CC BY-NC-SA
exact mass=75.06841
ionization energy=70 eV
ion type=[M]+*
computed spectral entropy=1.3710432533682566
computed normalized entropy=0.5345303404840485
SPLASH=splash10-001i-9000000000-beccb4cdab26097bd009
submitter=submitter = University of Tokyo Team (Faculty of Engineering, University of Tokyo)
MoNA Rating=3.75

>  <NUM PEAKS>  (3315) 
13

>  <MASS SPECTRAL PEAKS>  (3315) 
15 5.92
18 4.26
27 1.63
28 5.39
29 3.54
30 99.99
31 1.46
41 1.46
42 5.81
43 1.61
44 4.59
45 11.84
75 1.25

$$$$

     RDKit          2D

 12 11  0  0  0  0  0  0  0  0999 V2000
    3.2476    5.6250    0.0000 C   0  0  0  0  0  0  0  0  0  0  0  0
   -9.7428    5.6250    0.0000 C   0  0  0  0  0  0  0  0  0  0  0  0
    1.9486    6.3750    0.0000 C   0  0  0  0  0  0  0  0  0  0  0  0
   -0.6495    6.3750    0.0000 C   0  0  0  0  0  0  0  0  0  0  0  0
   -1.9486    5.6250    0.0000 C   0  0  0  0  0  0  0  0  0  0  0  0
   -4.5466    5.6250    0.0000 C   0  0  0  0  0  0  0  0  0  0  0  0
   -5.8457    6.3750    0.0000 C   0  0  0  0  0  0  0  0  0  0  0  0
   -8.4437    6.3750    0.0000 C   0  0  0  0  0  0  0  0  0  0  0  0
   -8.4437    7.8750    0.0000 O   0  0  0  0  0  0  0  0  0  0  0  0
    0.6495    5.6250    0.0000 O   0  0  0  0  0  0  0  0  0  0  0  0
   -3.2476    6.3750    0.0000 O   0  0  0  0  0  0  0  0  0  0  0  0
   -7.1447    5.6250    0.0000 O   0  0  0  0  0  0  0  0  0  0  0  0
  3  1  1  0
  5  4  1  0
  7  6  1  0
  8  2  1  0
  9  8  2  0
 10  3  1  0
 10  4  1  0
 11  5  1  0
 11  6  1  0
 12  7  1  0
 12  8  1  0
M  END
>  <NAME>  (3316) 
2-(2-ETHOXYETHOXY)ETHYL ACETATE

>  <SYNONYMS>  (3316) 


>  <SPECTRUM TYPE>  (3316) 
MS1

>  <INSTRUMENT TYPE>  (3316) 
EI-B

>  <INSTRUMENT>  (3316) 
HITACHI RMU-6M

>  <ION MODE>  (3316) 
P

>  <INCHIKEY>  (3316) 
FPZWZCWUIYYYBU-UHFFFAOYSA-N

>  <FORMULA>  (3316) 
C8H16O4

>  <EXACT MASS>  (3316) 
176.104858992

>  <MW>  (3316) 
176

>  <ID>  (3316) 
JP007361

>  <CONTRIBUTOR>  (3316) 
University of Tokyo Team, {Faculty of Engineering, University of Tokyo

>  <COMMENT>  (3316) 
SMILES=CCOCCOCCOC(C)=O
cas=112-15-2
InChI=InChI=1S/C8H16O4/c1-3-10-4-5-11-6-7-12-8(2)9/h3-7H2,1-2H3
computed SMILES=O=C(OCCOCCOCC)C
accession=JP007361
date=2016.01.19 (Created 2008.10.21, modified 2011.05.06)
author=YAMAMOTO M, DEP. CHEMISTRY, FAC. SCIENCE, NARA WOMEN'S UNIV.
license=CC BY-NC-SA
exact mass=176.10486
ionization energy=70 eV
ion type=[M]+*
computed spectral entropy=2.532223822760577
computed normalized entropy=0.7445095178578217
SPLASH=splash10-0077-9000000000-b3fb572004c04bef21fd
submitter=submitter = University of Tokyo Team (Faculty of Engineering, University of Tokyo)
MoNA Rating=3.75

>  <NUM PEAKS>  (3316) 
30

>  <MASS SPECTRAL PEAKS>  (3316) 
26 1.07
27 8.83
28 7.93
29 16.03
31 42.26
41 2.44
42 2.77
43 99.99
44 10.65
45 55.8
46 1.29
57 1.13
58 1.98
59 49.23
60 2.03
61 6.4
72 49.06
73 19.26
74 2.49
75 1.13
86 1.81
87 59.87
88 3.4
89 3.62
101 2.21
103 3.45
104 1.18
116 4.42
117 1.75
132 2.03

$$$$

     RDKit          2D

 15 14  0  0  0  0  0  0  0  0999 V2000
    4.5466    7.8750    0.0000 C   0  0  0  0  0  0  0  0  0  0  0  0
  -13.6399    7.8750    0.0000 C   0  0  0  0  0  0  0  0  0  0  0  0
    3.2476    8.6250    0.0000 C   0  0  0  0  0  0  0  0  0  0  0  0
  -12.3409    8.6250    0.0000 C   0  0  0  0  0  0  0  0  0  0  0  0
    1.9486    7.8750    0.0000 C   0  0  0  0  0  0  0  0  0  0  0  0
  -11.0418    7.8750    0.0000 C   0  0  0  0  0  0  0  0  0  0  0  0
    0.6495    8.6250    0.0000 C   0  0  0  0  0  0  0  0  0  0  0  0
   -9.7428    8.6250    0.0000 C   0  0  0  0  0  0  0  0  0  0  0  0
   -1.9486    8.6250    0.0000 C   0  0  0  0  0  0  0  0  0  0  0  0
   -7.1447    8.6250    0.0000 C   0  0  0  0  0  0  0  0  0  0  0  0
   -3.2476    7.8750    0.0000 C   0  0  0  0  0  0  0  0  0  0  0  0
   -5.8457    7.8750    0.0000 C   0  0  0  0  0  0  0  0  0  0  0  0
   -0.6495    7.8750    0.0000 O   0  0  0  0  0  0  0  0  0  0  0  0
   -8.4437    7.8750    0.0000 O   0  0  0  0  0  0  0  0  0  0  0  0
   -4.5466    8.6250    0.0000 O   0  0  0  0  0  0  0  0  0  0  0  0
  3  1  1  0
  4  2  1  0
  5  3  1  0
  6  4  1  0
  7  5  1  0
  8  6  1  0
 11  9  1  0
 12 10  1  0
 13  7  1  0
 13  9  1  0
 14  8  1  0
 14 10  1  0
 15 11  1  0
 15 12  1  0
M  END
>  <NAME>  (3317) 
BIS(2-BUTOXYETHYL) ETHER

>  <SYNONYMS>  (3317) 


>  <SPECTRUM TYPE>  (3317) 
MS1

>  <INSTRUMENT TYPE>  (3317) 
EI-B

>  <INSTRUMENT>  (3317) 
HITACHI RMU-6M

>  <ION MODE>  (3317) 
P

>  <INCHIKEY>  (3317) 
KZVBBTZJMSWGTK-UHFFFAOYSA-N

>  <FORMULA>  (3317) 
C12H26O3

>  <EXACT MASS>  (3317) 
218.18819469199997

>  <MW>  (3317) 
218

>  <ID>  (3317) 
JP007360

>  <CONTRIBUTOR>  (3317) 
University of Tokyo Team, {Faculty of Engineering, University of Tokyo

>  <COMMENT>  (3317) 
SMILES=CCCCOCCOCCOCCCC
InChI=InChI=1S/C12H26O3/c1-3-5-7-13-9-11-15-12-10-14-8-6-4-2/h3-12H2,1-2H3
computed SMILES=O(CCOCCCC)CCOCCCC
accession=JP007360
date=2016.01.19 (Created 2008.10.21, modified 2011.05.06)
author=YAMAMOTO M, DEP. CHEMISTRY, FAC. SCIENCE, NARA WOMEN'S UNIV.
license=CC BY-NC-SA
exact mass=218.18819
ionization energy=70 eV
ion type=[M]+*
computed spectral entropy=2.644904602279988
computed normalized entropy=0.770213878148837
SPLASH=splash10-0a4i-9000000000-6ee1f836e03114a9bd1f
submitter=submitter = University of Tokyo Team (Faculty of Engineering, University of Tokyo)
MoNA Rating=3.75

>  <NUM PEAKS>  (3317) 
31

>  <MASS SPECTRAL PEAKS>  (3317) 
27 6.85
28 7.09
29 32.24
30 1.39
31 3.12
39 2.8
41 28.33
42 2.1
43 4.48
44 6.25
45 49.59
46 1.07
51 1.02
55 6.58
56 36.12
57 99.99
58 4.48
59 14.32
61 1.12
63 1.12
69 2.15
71 4.67
72 7.56
73 3.87
75 26.04
83 1.49
85 17.5
86 1.21
87 10.31
88 1.21
89 4.53

$$$$

     RDKit          2D

 11 10  0  0  0  0  0  0  0  0999 V2000
    3.2476    5.6250    0.0000 C   0  0  0  0  0  0  0  0  0  0  0  0
    1.9486    6.3750    0.0000 C   0  0  0  0  0  0  0  0  0  0  0  0
    0.6495    5.6250    0.0000 C   0  0  0  0  0  0  0  0  0  0  0  0
   -8.4437    6.3750    0.0000 C   0  0  0  0  0  0  0  0  0  0  0  0
   -0.6495    6.3750    0.0000 C   0  0  0  0  0  0  0  0  0  0  0  0
   -7.1447    5.6250    0.0000 C   0  0  0  0  0  0  0  0  0  0  0  0
   -3.2476    6.3750    0.0000 C   0  0  0  0  0  0  0  0  0  0  0  0
   -4.5466    5.6250    0.0000 C   0  0  0  0  0  0  0  0  0  0  0  0
   -9.7428    5.6250    0.0000 O   0  0  0  0  0  0  0  0  0  0  0  0
   -1.9486    5.6250    0.0000 O   0  0  0  0  0  0  0  0  0  0  0  0
   -5.8457    6.3750    0.0000 O   0  0  0  0  0  0  0  0  0  0  0  0
  2  1  1  0
  3  2  1  0
  5  3  1  0
  6  4  1  0
  8  7  1  0
  9  4  1  0
 10  5  1  0
 10  7  1  0
 11  6  1  0
 11  8  1  0
M  END
>  <NAME>  (3318) 
BIS(2-ETHOXYETHYL) ETHER

>  <SYNONYMS>  (3318) 
DIETHYL CARBITOL

>  <SPECTRUM TYPE>  (3318) 
MS1

>  <INSTRUMENT TYPE>  (3318) 
EI-B

>  <INSTRUMENT>  (3318) 
HITACHI RMU-6M

>  <ION MODE>  (3318) 
P

>  <INCHIKEY>  (3318) 
OAYXUHPQHDHDDZ-UHFFFAOYSA-N

>  <FORMULA>  (3318) 
C8H18O3

>  <EXACT MASS>  (3318) 
162.12559443599997

>  <MW>  (3318) 
162

>  <ID>  (3318) 
JP007359

>  <CONTRIBUTOR>  (3318) 
University of Tokyo Team, {Faculty of Engineering, University of Tokyo

>  <COMMENT>  (3318) 
SMILES=CCCCOCCOCCO
cas=112-34-5
InChI=InChI=1S/C8H18O3/c1-2-3-5-10-7-8-11-6-4-9/h9H,2-8H2,1H3
computed SMILES=OCCOCCOCCCC
accession=JP007359
date=2016.01.19 (Created 2008.10.21, modified 2011.05.06)
author=YAMAMOTO M, DEP. CHEMISTRY, FAC. SCIENCE, NARA WOMEN'S UNIV.
license=CC BY-NC-SA
exact mass=162.12559
ionization energy=70 eV
ion type=[M]+*
computed spectral entropy=2.225517549368608
computed normalized entropy=0.7428960087706243
SPLASH=splash10-006t-9000000000-9b5ce4bf5bfa84239e88
submitter=submitter = University of Tokyo Team (Faculty of Engineering, University of Tokyo)
MoNA Rating=3.75

>  <NUM PEAKS>  (3318) 
20

>  <MASS SPECTRAL PEAKS>  (3318) 
27 9.63
28 5.82
29 20.17
31 28.44
41 1.47
43 10.39
44 8.05
45 99.99
46 2.28
58 1.19
59 44.06
60 1.57
72 45.15
73 42.54
74 2.01
89 2.34
90 1.52
100 1.14
102 5.6
116 2.94

$$$$

     RDKit          2D

  9  8  0  0  0  0  0  0  0  0999 V2000
    2.5981    4.5000    0.0000 C   0  0  0  0  0  0  0  0  0  0  0  0
   -7.7942    4.5000    0.0000 C   0  0  0  0  0  0  0  0  0  0  0  0
    0.0000    4.5000    0.0000 C   0  0  0  0  0  0  0  0  0  0  0  0
   -5.1962    4.5000    0.0000 C   0  0  0  0  0  0  0  0  0  0  0  0
   -1.2990    5.2500    0.0000 C   0  0  0  0  0  0  0  0  0  0  0  0
   -3.8971    5.2500    0.0000 C   0  0  0  0  0  0  0  0  0  0  0  0
    1.2990    5.2500    0.0000 O   0  0  0  0  0  0  0  0  0  0  0  0
   -6.4952    5.2500    0.0000 O   0  0  0  0  0  0  0  0  0  0  0  0
   -2.5981    4.5000    0.0000 O   0  0  0  0  0  0  0  0  0  0  0  0
  5  3  1  0
  6  4  1  0
  7  1  1  0
  7  3  1  0
  8  2  1  0
  8  4  1  0
  9  5  1  0
  9  6  1  0
M  END
>  <NAME>  (3319) 
BIS(2-METHOXYETHYL) ETHER

>  <SYNONYMS>  (3319) 
DIGLYME

>  <SPECTRUM TYPE>  (3319) 
MS1

>  <INSTRUMENT TYPE>  (3319) 
EI-B

>  <INSTRUMENT>  (3319) 
HITACHI RMU-6M

>  <ION MODE>  (3319) 
P

>  <INCHIKEY>  (3319) 
SBZXBUIDTXKZTM-UHFFFAOYSA-N

>  <FORMULA>  (3319) 
C6H14O3

>  <EXACT MASS>  (3319) 
134.094294308

>  <MW>  (3319) 
134

>  <ID>  (3319) 
JP007358

>  <CONTRIBUTOR>  (3319) 
University of Tokyo Team, {Faculty of Engineering, University of Tokyo

>  <COMMENT>  (3319) 
SMILES=COCCOCCOC
cas=111-96-6
InChI=InChI=1S/C6H14O3/c1-7-3-5-9-6-4-8-2/h3-6H2,1-2H3
computed SMILES=O(C)CCOCCOC
accession=JP007358
date=2016.01.19 (Created 2008.10.21, modified 2011.05.06)
author=YAMAMOTO M, DEP. CHEMISTRY, FAC. SCIENCE, NARA WOMEN'S UNIV.
license=CC BY-NC-SA
exact mass=134.09429
ionization energy=70 eV
ion type=[M]+*
computed spectral entropy=2.032836514293065
computed normalized entropy=0.7331907895271529
SPLASH=splash10-0a4i-9000000000-c5a72309bae5fae7f145
submitter=submitter = University of Tokyo Team (Faculty of Engineering, University of Tokyo)
MoNA Rating=3.75

>  <NUM PEAKS>  (3319) 
16

>  <MASS SPECTRAL PEAKS>  (3319) 
15 13.07
27 3.32
28 4.85
29 20.69
31 20.87
33 1.01
41 1.38
43 7.67
44 1.1
45 26.88
58 44.71
59 99.99
60 3.37
87 1.8
89 16.99
102 1.89

$$$$

     RDKit          2D

 11 10  0  0  0  0  0  0  0  0999 V2000
    3.2476    5.6250    0.0000 C   0  0  0  0  0  0  0  0  0  0  0  0
    1.9486    6.3750    0.0000 C   0  0  0  0  0  0  0  0  0  0  0  0
    0.6495    5.6250    0.0000 C   0  0  0  0  0  0  0  0  0  0  0  0
   -8.4437    6.3750    0.0000 C   0  0  0  0  0  0  0  0  0  0  0  0
   -0.6495    6.3750    0.0000 C   0  0  0  0  0  0  0  0  0  0  0  0
   -7.1447    5.6250    0.0000 C   0  0  0  0  0  0  0  0  0  0  0  0
   -3.2476    6.3750    0.0000 C   0  0  0  0  0  0  0  0  0  0  0  0
   -4.5466    5.6250    0.0000 C   0  0  0  0  0  0  0  0  0  0  0  0
   -9.7428    5.6250    0.0000 O   0  0  0  0  0  0  0  0  0  0  0  0
   -1.9486    5.6250    0.0000 O   0  0  0  0  0  0  0  0  0  0  0  0
   -5.8457    6.3750    0.0000 O   0  0  0  0  0  0  0  0  0  0  0  0
  2  1  1  0
  3  2  1  0
  5  3  1  0
  6  4  1  0
  8  7  1  0
  9  4  1  0
 10  5  1  0
 10  7  1  0
 11  6  1  0
 11  8  1  0
M  END
>  <NAME>  (3320) 
2-(2-BUTOXYETHOXY)ETHANOL

>  <SYNONYMS>  (3320) 
BUTYL CARBITOL

>  <SPECTRUM TYPE>  (3320) 
MS1

>  <INSTRUMENT TYPE>  (3320) 
EI-B

>  <INSTRUMENT>  (3320) 
HITACHI RMU-6M

>  <ION MODE>  (3320) 
P

>  <INCHIKEY>  (3320) 
OAYXUHPQHDHDDZ-UHFFFAOYSA-N

>  <FORMULA>  (3320) 
C8H18O3

>  <EXACT MASS>  (3320) 
162.12559443599997

>  <MW>  (3320) 
162

>  <ID>  (3320) 
JP007357

>  <CONTRIBUTOR>  (3320) 
University of Tokyo Team, {Faculty of Engineering, University of Tokyo

>  <COMMENT>  (3320) 
SMILES=CCCCOCCOCCO
cas=112-34-5
InChI=InChI=1S/C8H18O3/c1-2-3-5-10-7-8-11-6-4-9/h9H,2-8H2,1H3
computed SMILES=OCCOCCOCCCC
accession=JP007357
date=2016.01.19 (Created 2008.10.21, modified 2011.05.06)
author=YAMAMOTO M, DEP. CHEMISTRY, FAC. SCIENCE, NARA WOMEN'S UNIV.
license=CC BY-NC-SA
exact mass=162.12559
ionization energy=70 eV
ion type=[M]+*
computed spectral entropy=2.8191405717528135
computed normalized entropy=0.7695081573776934
SPLASH=splash10-0a6s-9000000000-883ba112448daa1186e7
submitter=submitter = University of Tokyo Team (Faculty of Engineering, University of Tokyo)
MoNA Rating=3.75

>  <NUM PEAKS>  (3320) 
39

>  <MASS SPECTRAL PEAKS>  (3320) 
27 12.18
28 10.01
29 31.1
30 1.53
31 9.91
33 1.59
39 3.85
41 28.65
42 1.96
43 6.49
44 7.71
45 99.99
46 2.45
55 5.57
56 17.75
57 99.17
58 4.28
59 9.18
60 7.04
61 2.94
62 4.1
63 1.65
69 1.22
71 4.59
72 8.63
73 3.91
75 19.59
76 1.16
77 2.33
85 4.59
87 11.51
88 1.89
89 9.67
90 1.53
100 8.39
101 5.14
131 3
132 4.22
144 1.16

$$$$

     RDKit          2D

  9  8  0  0  0  0  0  0  0  0999 V2000
    2.5981    4.5000    0.0000 C   0  0  0  0  0  0  0  0  0  0  0  0
    1.2990    5.2500    0.0000 C   0  0  0  0  0  0  0  0  0  0  0  0
   -6.4952    5.2500    0.0000 C   0  0  0  0  0  0  0  0  0  0  0  0
   -5.1962    4.5000    0.0000 C   0  0  0  0  0  0  0  0  0  0  0  0
   -1.2990    5.2500    0.0000 C   0  0  0  0  0  0  0  0  0  0  0  0
   -2.5981    4.5000    0.0000 C   0  0  0  0  0  0  0  0  0  0  0  0
   -7.7942    4.5000    0.0000 O   0  0  0  0  0  0  0  0  0  0  0  0
    0.0000    4.5000    0.0000 O   0  0  0  0  0  0  0  0  0  0  0  0
   -3.8971    5.2500    0.0000 O   0  0  0  0  0  0  0  0  0  0  0  0
  2  1  1  0
  4  3  1  0
  6  5  1  0
  7  3  1  0
  8  2  1  0
  8  5  1  0
  9  4  1  0
  9  6  1  0
M  END
>  <NAME>  (3321) 
2-(2-ETHOXYETHOXY)ETHANOL

>  <SYNONYMS>  (3321) 
CARBITOL

>  <SPECTRUM TYPE>  (3321) 
MS1

>  <INSTRUMENT TYPE>  (3321) 
EI-B

>  <INSTRUMENT>  (3321) 
HITACHI RMU-6M

>  <ION MODE>  (3321) 
P

>  <INCHIKEY>  (3321) 
XXJWXESWEXIICW-UHFFFAOYSA-N

>  <FORMULA>  (3321) 
C6H14O3

>  <EXACT MASS>  (3321) 
134.09429430799997

>  <MW>  (3321) 
134

>  <ID>  (3321) 
JP007356

>  <CONTRIBUTOR>  (3321) 
University of Tokyo Team, {Faculty of Engineering, University of Tokyo

>  <COMMENT>  (3321) 
SMILES=CCOCCOCCO
cas=111-90-0
InChI=InChI=1S/C6H14O3/c1-2-8-5-6-9-4-3-7/h7H,2-6H2,1H3
computed SMILES=OCCOCCOCC
accession=JP007356
date=2016.01.19 (Created 2008.10.21, modified 2011.05.06)
author=YAMAMOTO M, DEP. CHEMISTRY, FAC. SCIENCE, NARA WOMEN'S UNIV.
license=CC BY-NC-SA
exact mass=134.09429
ionization energy=70 eV
ion type=[M]+*
computed spectral entropy=2.3595526123128345
computed normalized entropy=0.7424520597420156
SPLASH=splash10-0006-9000000000-38592a327ca552ae4d4c
submitter=submitter = University of Tokyo Team (Faculty of Engineering, University of Tokyo)
MoNA Rating=3.75

>  <NUM PEAKS>  (3321) 
24

>  <MASS SPECTRAL PEAKS>  (3321) 
26 1.25
27 10.49
28 6.97
29 15.34
31 37.42
33 1.35
39 1.63
41 10.12
42 6.55
43 99.99
44 2.64
45 1.01
58 1.11
59 37.57
60 9.2
61 2.02
62 1.88
72 26.52
73 14.06
75 7.32
89 1.11
101 1.39
103 3.09
104 5.5

$$$$

     RDKit          2D

  8  7  0  0  0  0  0  0  0  0999 V2000
   -6.4952    4.5000    0.0000 C   0  0  0  0  0  0  0  0  0  0  0  0
    1.2990    4.5000    0.0000 C   0  0  0  0  0  0  0  0  0  0  0  0
    0.0000    3.7500    0.0000 C   0  0  0  0  0  0  0  0  0  0  0  0
   -3.8971    4.5000    0.0000 C   0  0  0  0  0  0  0  0  0  0  0  0
   -2.5981    3.7500    0.0000 C   0  0  0  0  0  0  0  0  0  0  0  0
    2.5981    3.7500    0.0000 O   0  0  0  0  0  0  0  0  0  0  0  0
   -5.1962    3.7500    0.0000 O   0  0  0  0  0  0  0  0  0  0  0  0
   -1.2990    4.5000    0.0000 O   0  0  0  0  0  0  0  0  0  0  0  0
  3  2  1  0
  5  4  1  0
  6  2  1  0
  7  1  1  0
  7  4  1  0
  8  3  1  0
  8  5  1  0
M  END
>  <NAME>  (3322) 
2-(2-METHOXYETHOXY)ETHANOL

>  <SYNONYMS>  (3322) 
METHYL CARBITOL

>  <SPECTRUM TYPE>  (3322) 
MS1

>  <INSTRUMENT TYPE>  (3322) 
EI-B

>  <INSTRUMENT>  (3322) 
HITACHI RMU-6M

>  <ION MODE>  (3322) 
P

>  <INCHIKEY>  (3322) 
SBASXUCJHJRPEV-UHFFFAOYSA-N

>  <FORMULA>  (3322) 
C5H12O3

>  <EXACT MASS>  (3322) 
120.07864424399999

>  <MW>  (3322) 
120

>  <ID>  (3322) 
JP007355

>  <CONTRIBUTOR>  (3322) 
University of Tokyo Team, {Faculty of Engineering, University of Tokyo

>  <COMMENT>  (3322) 
SMILES=COCCOCCO
cas=111-77-3
InChI=InChI=1S/C5H12O3/c1-7-4-5-8-3-2-6/h6H,2-5H2,1H3
computed SMILES=OCCOCCOC
accession=JP007355
date=2016.01.19 (Created 2008.10.21, modified 2011.05.06)
author=YAMAMOTO M, DEP. CHEMISTRY, FAC. SCIENCE, NARA WOMEN'S UNIV.
license=CC BY-NC-SA
exact mass=120.07864
ionization energy=70 eV
ion type=[M]+*
computed spectral entropy=2.2701958078142486
computed normalized entropy=0.7854338465674299
SPLASH=splash10-052b-9000000000-2d9731f748c37900378a
submitter=submitter = University of Tokyo Team (Faculty of Engineering, University of Tokyo)
MoNA Rating=3.75

>  <NUM PEAKS>  (3322) 
18

>  <MASS SPECTRAL PEAKS>  (3322) 
15 11.28
27 7.34
28 6.44
29 12.51
31 20.23
33 1.91
42 1.33
43 10.38
44 4.04
45 99.99
46 2.39
58 29.44
59 44.78
60 5.32
75 9.85
87 2.29
89 10.86
90 15.76

$$$$

     RDKit          2D

  8  7  0  0  0  0  0  0  0  0999 V2000
   -2.5981    3.7500    0.0000 C   0  0  0  0  0  0  0  0  0  0  0  0
   -1.2990    4.5000    0.0000 C   0  0  0  0  0  0  0  0  0  0  0  0
   -3.8971    4.5000    0.0000 C   0  0  0  0  0  0  0  0  0  0  0  0
    0.0000    3.7500    0.0000 C   0  0  0  0  0  0  0  0  0  0  0  0
   -5.1962    3.7500    0.0000 C   0  0  0  0  0  0  0  0  0  0  0  0
    1.2990    4.5000    0.0000 C   0  0  0  0  0  0  0  0  0  0  0  0
   -6.4952    4.5000    0.0000 N   0  0  0  0  0  0  0  0  0  0  0  0
    2.5981    3.7500    0.0000 N   0  0  0  0  0  0  0  0  0  0  0  0
  2  1  1  0
  3  1  1  0
  4  2  1  0
  5  3  1  0
  6  4  1  0
  7  5  1  0
  8  6  1  0
M  END
>  <NAME>  (3323) 
1,6-HEXANEDIAMINE

>  <SYNONYMS>  (3323) 


>  <SPECTRUM TYPE>  (3323) 
MS1

>  <INSTRUMENT TYPE>  (3323) 
EI-B

>  <INSTRUMENT>  (3323) 
HITACHI RMU-6M

>  <ION MODE>  (3323) 
P

>  <INCHIKEY>  (3323) 
NAQMVNRVTILPCV-UHFFFAOYSA-N

>  <FORMULA>  (3323) 
C6H16N2

>  <EXACT MASS>  (3323) 
116.13134851199999

>  <MW>  (3323) 
116

>  <ID>  (3323) 
JP007354

>  <CONTRIBUTOR>  (3323) 
University of Tokyo Team, {Faculty of Engineering, University of Tokyo

>  <COMMENT>  (3323) 
SMILES=NCCCCCCN
cas=124-09-4
InChI=InChI=1S/C6H16N2/c7-5-3-1-2-4-6-8/h1-8H2
computed SMILES=NCCCCCCN
accession=JP007354
date=2016.01.19 (Created 2008.10.21, modified 2011.05.06)
author=YAMAMOTO M, DEP. CHEMISTRY, FAC. SCIENCE, NARA WOMEN'S UNIV.
license=CC BY-NC-SA
exact mass=116.13135
ionization energy=70 eV
ion type=[M]+*
computed spectral entropy=2.104756304226977
computed normalized entropy=0.6622783680151006
SPLASH=splash10-001i-9000000000-85f5487a61acc057e55c
submitter=submitter = University of Tokyo Team (Faculty of Engineering, University of Tokyo)
MoNA Rating=3.75

>  <NUM PEAKS>  (3323) 
24

>  <MASS SPECTRAL PEAKS>  (3323) 
18 6.54
27 1.9
28 4.86
29 1.39
30 99.99
31 3.75
39 1.76
41 4.03
42 4.31
43 3.24
44 5.24
45 5.14
55 2.69
56 13.53
57 1.07
58 2.78
69 1.71
70 2.74
72 2.41
73 1.39
86 4.26
87 8.95
100 5.93
101 2.87

$$$$

     RDKit          2D

  6  5  0  0  0  0  0  0  0  0999 V2000
   -1.9486    3.3750    0.0000 C   0  0  0  0  0  0  0  0  0  0  0  0
   -0.6495    2.6250    0.0000 C   0  0  0  0  0  0  0  0  0  0  0  0
   -3.2476    2.6250    0.0000 C   0  0  0  0  0  0  0  0  0  0  0  0
    0.6495    3.3750    0.0000 C   0  0  0  0  0  0  0  0  0  0  0  0
   -4.5466    3.3750    0.0000 N   0  0  0  0  0  0  0  0  0  0  0  0
    1.9486    2.6250    0.0000 N   0  0  0  0  0  0  0  0  0  0  0  0
  2  1  1  0
  3  1  1  0
  4  2  1  0
  5  3  1  0
  6  4  1  0
M  END
>  <NAME>  (3324) 
1,4-BUTANEDIAMINE

>  <SYNONYMS>  (3324) 
PUTRESCINE

>  <SPECTRUM TYPE>  (3324) 
MS1

>  <INSTRUMENT TYPE>  (3324) 
EI-B

>  <INSTRUMENT>  (3324) 
HITACHI RMU-6M

>  <ION MODE>  (3324) 
P

>  <INCHIKEY>  (3324) 
KIDHWZJUCRJVML-UHFFFAOYSA-N

>  <FORMULA>  (3324) 
C4H12N2

>  <EXACT MASS>  (3324) 
88.100048384

>  <MW>  (3324) 
88

>  <ID>  (3324) 
JP007353

>  <CONTRIBUTOR>  (3324) 
University of Tokyo Team, {Faculty of Engineering, University of Tokyo

>  <COMMENT>  (3324) 
SMILES=NCCCCN
cas=110-60-1
InChI=InChI=1S/C4H12N2/c5-3-1-2-4-6/h1-6H2
computed SMILES=NCCCCN
accession=JP007353
date=2016.01.19 (Created 2008.10.21, modified 2011.05.06)
author=YAMAMOTO M, DEP. CHEMISTRY, FAC. SCIENCE, NARA WOMEN'S UNIV.
license=CC BY-NC-SA
exact mass=88.10005
ionization energy=70 eV
ion type=[M]+*
computed spectral entropy=1.9939425747951225
computed normalized entropy=0.6898567872274215
SPLASH=splash10-001i-9000000000-5759f91b24f2e27cc466
submitter=submitter = University of Tokyo Team (Faculty of Engineering, University of Tokyo)
MoNA Rating=3.75

>  <NUM PEAKS>  (3324) 
18

>  <MASS SPECTRAL PEAKS>  (3324) 
15 1.47
18 7.66
27 2.36
28 11.16
29 1.56
30 99.99
31 10.4
39 1.94
41 4.68
42 5.44
43 32.59
44 10.41
56 2.18
58 1.28
59 12.68
70 3.45
71 7.14
88 1.76

$$$$

     RDKit          2D

 18 19  0  0  0  0  0  0  0  0999 V2000
    3.8976    3.3200    0.0000 C   0  0  0  0  0  0  0  0  0  0  0  0
   -9.0928    3.3200    0.0000 C   0  0  0  0  0  0  0  0  0  0  0  0
    3.8981    4.8208    0.0000 C   0  0  0  0  0  0  0  0  0  0  0  0
    2.5981    2.5692    0.0000 C   0  0  0  0  0  0  0  0  0  0  0  0
   -7.7933    2.5692    0.0000 C   0  0  0  0  0  0  0  0  0  0  0  0
   -9.0933    4.8208    0.0000 C   0  0  0  0  0  0  0  0  0  0  0  0
    2.5990    5.5708    0.0000 C   0  0  0  0  0  0  0  0  0  0  0  0
    1.2990    3.3192    0.0000 C   0  0  0  0  0  0  0  0  0  0  0  0
   -6.4942    3.3192    0.0000 C   0  0  0  0  0  0  0  0  0  0  0  0
   -7.7942    5.5708    0.0000 C   0  0  0  0  0  0  0  0  0  0  0  0
    0.0005    5.5700    0.0000 C   0  0  0  0  0  0  0  0  0  0  0  0
   -1.2986    4.8200    0.0000 C   0  0  0  0  0  0  0  0  0  0  0  0
   -5.1957    5.5700    0.0000 C   0  0  0  0  0  0  0  0  0  0  0  0
    1.2995    4.8200    0.0000 C   0  0  0  0  0  0  0  0  0  0  0  0
   -6.4947    4.8200    0.0000 C   0  0  0  0  0  0  0  0  0  0  0  0
   -2.5976    5.5700    0.0000 C   0  0  0  0  0  0  0  0  0  0  0  0
   -2.5976    7.0700    0.0000 O   0  0  0  0  0  0  0  0  0  0  0  0
   -3.8966    4.8200    0.0000 O   0  0  0  0  0  0  0  0  0  0  0  0
  3  1  2  0
  4  1  1  0
  5  2  2  0
  6  2  1  0
  7  3  1  0
  8  4  2  0
  9  5  1  0
 10  6  2  0
 11 12  2  0
 14  7  2  0
 14  8  1  0
 14 11  1  0
 15  9  2  0
 15 10  1  0
 15 13  1  0
 16 12  1  0
 17 16  2  0
 18 13  1  0
 18 16  1  0
M  END
>  <NAME>  (3325) 
BENZYL 3-PHENYL-2-PROPENOATE

>  <SYNONYMS>  (3325) 
CINNAMIC ACID BENZYL ESTER

>  <SPECTRUM TYPE>  (3325) 
MS1

>  <INSTRUMENT TYPE>  (3325) 
EI-B

>  <INSTRUMENT>  (3325) 
ESCO EMD-05A

>  <ION MODE>  (3325) 
P

>  <INCHIKEY>  (3325) 
NGHOLYJTSCBCGC-VAWYXSNFSA-N

>  <FORMULA>  (3325) 
C16H14O2

>  <EXACT MASS>  (3325) 
238.099379688

>  <MW>  (3325) 
238

>  <ID>  (3325) 
JP007352

>  <CONTRIBUTOR>  (3325) 
University of Tokyo Team, {Faculty of Engineering, University of Tokyo

>  <COMMENT>  (3325) 
SMILES=O=C(C=Cc(c2)cccc2)OCc(c1)cccc1
cas=103-41-3
InChI=InChI=1S/C16H14O2/c17-16(12-11-14-7-3-1-4-8-14)18-13-15-9-5-2-6-10-15/h1-12H,13H2/b12-11+
computed SMILES=O=C(OCC=1C=CC=CC1)C=CC=2C=CC=CC2
accession=JP007352
date=2016.01.19 (Created 2008.10.21, modified 2011.05.06)
author=YAMAMOTO M, DEP. CHEMISTRY, FAC. SCIENCE, NARA WOMEN'S UNIV.
license=CC BY-NC-SA
exact mass=238.09938
ionization energy=70 eV
ion type=[M]+*
computed spectral entropy=3.0638933191779896
computed normalized entropy=0.8363154807057297
SPLASH=splash10-0f6x-9600000000-c2f6e1fccb7fd1daee10
submitter=submitter = University of Tokyo Team (Faculty of Engineering, University of Tokyo)
MoNA Rating=3.75

>  <NUM PEAKS>  (3325) 
39

>  <MASS SPECTRAL PEAKS>  (3325) 
39 2.37
40 5.59
51 16.41
52 19.07
53 10.67
62 2.56
63 8.34
64 3.51
65 15.27
66 2.27
74 4.88
75 3.98
76 10.53
77 51.7
78 11.05
79 6.78
89 8.11
90 6.38
91 99.99
92 6.49
101 1.56
102 14.89
103 45.68
104 11.62
105 6.35
107 4.45
115 7.73
116 2.98
131 58.68
132 6.92
147 5.55
178 3.03
179 1.8
192 25.18
193 22.53
194 3.79
220 2.51
238 16.79
239 2.98

$$$$

     RDKit          2D

 14 14  0  0  0  0  0  0  0  0999 V2000
   -7.4692    4.2571    0.0000 C   0  0  0  0  0  0  0  0  0  0  0  0
   -6.1702    3.5071    0.0000 C   0  0  0  0  0  0  0  0  0  0  0  0
    4.2221    2.0071    0.0000 C   0  0  0  0  0  0  0  0  0  0  0  0
    4.2226    3.5079    0.0000 C   0  0  0  0  0  0  0  0  0  0  0  0
    2.9226    1.2563    0.0000 C   0  0  0  0  0  0  0  0  0  0  0  0
    2.9236    4.2579    0.0000 C   0  0  0  0  0  0  0  0  0  0  0  0
    1.6236    2.0063    0.0000 C   0  0  0  0  0  0  0  0  0  0  0  0
    0.3250    4.2571    0.0000 C   0  0  0  0  0  0  0  0  0  0  0  0
   -0.9740    3.5071    0.0000 C   0  0  0  0  0  0  0  0  0  0  0  0
   -4.8712    4.2571    0.0000 C   0  0  0  0  0  0  0  0  0  0  0  0
    1.6240    3.5071    0.0000 C   0  0  0  0  0  0  0  0  0  0  0  0
   -2.2731    4.2571    0.0000 C   0  0  0  0  0  0  0  0  0  0  0  0
   -2.2731    5.7571    0.0000 O   0  0  0  0  0  0  0  0  0  0  0  0
   -3.5721    3.5071    0.0000 O   0  0  0  0  0  0  0  0  0  0  0  0
  2  1  2  0
  4  3  2  0
  5  3  1  0
  6  4  1  0
  7  5  2  0
  8  9  2  0
 10  2  1  0
 11  6  2  0
 11  7  1  0
 11  8  1  0
 12  9  1  0
 13 12  2  0
 14 10  1  0
 14 12  1  0
M  END
>  <NAME>  (3326) 
2-PROPENYL 3-PHENYL-2-PROPENOATE

>  <SYNONYMS>  (3326) 
CINNAMIC ACID ALLYL ESTER

>  <SPECTRUM TYPE>  (3326) 
MS1

>  <INSTRUMENT TYPE>  (3326) 
EI-B

>  <INSTRUMENT>  (3326) 
HITACHI RMU-6M

>  <ION MODE>  (3326) 
P

>  <INCHIKEY>  (3326) 
KCMITHMNVLRGJU-CMDGGOBGSA-N

>  <FORMULA>  (3326) 
C12H12O2

>  <EXACT MASS>  (3326) 
188.083729624

>  <MW>  (3326) 
188

>  <ID>  (3326) 
JP007351

>  <CONTRIBUTOR>  (3326) 
University of Tokyo Team, {Faculty of Engineering, University of Tokyo

>  <COMMENT>  (3326) 
SMILES=C=CCOC(=O)C=Cc(c1)cccc1
cas=1866-31-5
InChI=InChI=1S/C12H12O2/c1-2-10-14-12(13)9-8-11-6-4-3-5-7-11/h2-9H,1,10H2/b9-8+
computed SMILES=O=C(OCC=C)C=CC=1C=CC=CC1
ion type=[M]+*
accession=JP007351
date=2016.01.19 (Created 2008.10.21, modified 2011.05.06)
author=YAMAMOTO M, DEP. CHEMISTRY, FAC. SCIENCE, NARA WOMEN'S UNIV.
license=CC BY-NC-SA
exact mass=188.08373
ionization energy=70 eV
computed spectral entropy=2.824382591369625
computed normalized entropy=0.7656478414386241
SPLASH=splash10-0ue9-3900000000-ce5601cf216ab2ba71fc
submitter=submitter = University of Tokyo Team (Faculty of Engineering, University of Tokyo)
MoNA Rating=3.75

>  <NUM PEAKS>  (3326) 
40

>  <MASS SPECTRAL PEAKS>  (3326) 
27 3.85
28 2.92
29 1
38 1.36
39 10.29
40 1.07
41 12.43
50 5.15
51 15.93
52 2.85
62 1
63 3.14
69 2.79
74 2.14
75 2.89
76 3.93
77 33.01
78 3.43
91 4.93
97 2.22
101 1.28
102 9.64
103 49.72
104 35.29
105 3.64
115 1.14
116 1.43
128 4.79
129 7
130 1.57
131 99.99
132 1.78
142 4
143 16.65
144 2.57
147 5.99
148 1.71
173 3.43
188 22.57
189 3.36

$$$$

     RDKit          2D

 13 13  0  0  0  0  0  0  0  0999 V2000
   -6.8197    3.1321    0.0000 C   0  0  0  0  0  0  0  0  0  0  0  0
   -5.5207    3.8821    0.0000 C   0  0  0  0  0  0  0  0  0  0  0  0
    3.5726    1.6321    0.0000 C   0  0  0  0  0  0  0  0  0  0  0  0
    3.5731    3.1329    0.0000 C   0  0  0  0  0  0  0  0  0  0  0  0
    2.2731    0.8813    0.0000 C   0  0  0  0  0  0  0  0  0  0  0  0
    2.2740    3.8829    0.0000 C   0  0  0  0  0  0  0  0  0  0  0  0
    0.9740    1.6313    0.0000 C   0  0  0  0  0  0  0  0  0  0  0  0
   -0.3245    3.8821    0.0000 C   0  0  0  0  0  0  0  0  0  0  0  0
   -1.6236    3.1321    0.0000 C   0  0  0  0  0  0  0  0  0  0  0  0
    0.9745    3.1321    0.0000 C   0  0  0  0  0  0  0  0  0  0  0  0
   -2.9226    3.8821    0.0000 C   0  0  0  0  0  0  0  0  0  0  0  0
   -2.9226    5.3821    0.0000 O   0  0  0  0  0  0  0  0  0  0  0  0
   -4.2216    3.1321    0.0000 O   0  0  0  0  0  0  0  0  0  0  0  0
  2  1  1  0
  4  3  2  0
  5  3  1  0
  6  4  1  0
  7  5  2  0
  8  9  2  0
 10  6  2  0
 10  7  1  0
 10  8  1  0
 11  9  1  0
 12 11  2  0
 13  2  1  0
 13 11  1  0
M  END
>  <NAME>  (3327) 
ETHYL 3-PHENYL-2-PROPENOATE

>  <SYNONYMS>  (3327) 
CINNAMIC ACID ETHYL ESTER

>  <SPECTRUM TYPE>  (3327) 
MS1

>  <INSTRUMENT TYPE>  (3327) 
EI-B

>  <INSTRUMENT>  (3327) 
HITACHI RMU-6M

>  <ION MODE>  (3327) 
P

>  <INCHIKEY>  (3327) 
KBEBGUQPQBELIU-CMDGGOBGSA-N

>  <FORMULA>  (3327) 
C11H12O2

>  <EXACT MASS>  (3327) 
176.083729624

>  <MW>  (3327) 
176

>  <ID>  (3327) 
JP007350

>  <CONTRIBUTOR>  (3327) 
University of Tokyo Team, {Faculty of Engineering, University of Tokyo

>  <COMMENT>  (3327) 
SMILES=CCOC(=O)C=Cc(c1)cccc1
InChI=InChI=1S/C11H12O2/c1-2-13-11(12)9-8-10-6-4-3-5-7-10/h3-9H,2H2,1H3/b9-8+
computed SMILES=O=C(OCC)C=CC=1C=CC=CC1
accession=JP007350
date=2016.01.19 (Created 2008.10.21, modified 2011.05.06)
author=YAMAMOTO M, DEP. CHEMISTRY, FAC. SCIENCE, NARA WOMEN'S UNIV.
license=CC BY-NC-SA
exact mass=176.08373
ionization energy=70 eV
ion type=[M]+*
computed spectral entropy=2.664974795671654
computed normalized entropy=0.7557295339113779
SPLASH=splash10-0fai-3900000000-b05dd3587bd65fc4b08e
submitter=submitter = University of Tokyo Team (Faculty of Engineering, University of Tokyo)
MoNA Rating=3.75

>  <NUM PEAKS>  (3327) 
34

>  <MASS SPECTRAL PEAKS>  (3327) 
27 5.89
28 2.87
29 6.31
39 2.31
50 5.19
51 15.98
51.5 2.24
52 2.52
63 2.94
65.5 1.61
69 1.05
74 2.17
75 2.94
76 3.93
77 29.31
78 3.08
91 3.01
101 1.19
102 10.37
103 41.58
104 13.53
105 1.75
130 3.15
131 99.99
132 11.78
133 1.47
147 9.61
148 11.43
149 1.26
158 1.96
161 1.05
175 3.18
176 41.86
177 5.26

$$$$

     RDKit          2D

 12 12  0  0  0  0  0  0  0  0999 V2000
   -5.5207    3.1321    0.0000 C   0  0  0  0  0  0  0  0  0  0  0  0
    3.5726    0.8821    0.0000 C   0  0  0  0  0  0  0  0  0  0  0  0
    3.5731    2.3829    0.0000 C   0  0  0  0  0  0  0  0  0  0  0  0
    2.2731    0.1313    0.0000 C   0  0  0  0  0  0  0  0  0  0  0  0
    2.2740    3.1329    0.0000 C   0  0  0  0  0  0  0  0  0  0  0  0
    0.9740    0.8813    0.0000 C   0  0  0  0  0  0  0  0  0  0  0  0
   -0.3245    3.1321    0.0000 C   0  0  0  0  0  0  0  0  0  0  0  0
   -1.6236    2.3821    0.0000 C   0  0  0  0  0  0  0  0  0  0  0  0
    0.9745    2.3821    0.0000 C   0  0  0  0  0  0  0  0  0  0  0  0
   -2.9226    3.1321    0.0000 C   0  0  0  0  0  0  0  0  0  0  0  0
   -2.9226    4.6321    0.0000 O   0  0  0  0  0  0  0  0  0  0  0  0
   -4.2216    2.3821    0.0000 O   0  0  0  0  0  0  0  0  0  0  0  0
  3  2  2  0
  4  2  1  0
  5  3  1  0
  6  4  2  0
  7  8  2  0
  9  5  2  0
  9  6  1  0
  9  7  1  0
 10  8  1  0
 11 10  2  0
 12  1  1  0
 12 10  1  0
M  END
>  <NAME>  (3328) 
METHYL 3-PHENYL-2-PROPENOATE

>  <SYNONYMS>  (3328) 
CINNAMIC ACID METHYL ESTER

>  <SPECTRUM TYPE>  (3328) 
MS1

>  <INSTRUMENT TYPE>  (3328) 
EI-B

>  <INSTRUMENT>  (3328) 
ESCO EMD-05A

>  <ION MODE>  (3328) 
P

>  <INCHIKEY>  (3328) 
CCRCUPLGCSFEDV-BQYQJAHWSA-N

>  <FORMULA>  (3328) 
C10H10O2

>  <EXACT MASS>  (3328) 
162.06807956

>  <MW>  (3328) 
162

>  <ID>  (3328) 
JP007349

>  <CONTRIBUTOR>  (3328) 
University of Tokyo Team, {Faculty of Engineering, University of Tokyo

>  <COMMENT>  (3328) 
SMILES=COC(=O)C=Cc(c1)cccc1
cas=103-26-4
InChI=InChI=1S/C10H10O2/c1-12-10(11)8-7-9-5-3-2-4-6-9/h2-8H,1H3/b8-7+
computed SMILES=O=C(OC)C=CC=1C=CC=CC1
accession=JP007349
date=2016.01.19 (Created 2008.10.21, modified 2011.05.06)
author=YAMAMOTO M, DEP. CHEMISTRY, FAC. SCIENCE, NARA WOMEN'S UNIV.
license=CC BY-NC-SA
exact mass=162.06808
ionization energy=70 eV
ion type=[M]+*
computed spectral entropy=2.6406884460159485
computed normalized entropy=0.755236017538715
SPLASH=splash10-0gx0-3900000000-64e823d4736fb7be4e9e
submitter=submitter = University of Tokyo Team (Faculty of Engineering, University of Tokyo)
MoNA Rating=3.75

>  <NUM PEAKS>  (3328) 
33

>  <MASS SPECTRAL PEAKS>  (3328) 
38 2.4
39 3.13
50 9
51 14.7
52 3.04
53 1.46
59 1.33
62 3.94
63 4.63
74 8.36
75 6.17
76 5.4
77 42.05
78 6.13
85 3.21
91 5.36
92 1.33
94 1.5
101 1.89
102 14.66
103 64.08
104 9.94
105 1.84
115 3.04
117 2.31
121 1.97
130 1.46
131 99.99
132 11.49
137 1.33
161 19.16
162 50.45
163 4.97

$$$$

     RDKit          2D

 10 10  0  0  0  0  0  0  0  0999 V2000
    2.9231    0.5071    0.0000 C   0  0  0  0  0  0  0  0  0  0  0  0
    2.9236    2.0079    0.0000 C   0  0  0  0  0  0  0  0  0  0  0  0
    1.6236   -0.2437    0.0000 C   0  0  0  0  0  0  0  0  0  0  0  0
   -2.2731    2.0071    0.0000 C   0  0  0  0  0  0  0  0  0  0  0  0
    1.6245    2.7579    0.0000 C   0  0  0  0  0  0  0  0  0  0  0  0
    0.3245    0.5063    0.0000 C   0  0  0  0  0  0  0  0  0  0  0  0
   -0.9740    2.7571    0.0000 C   0  0  0  0  0  0  0  0  0  0  0  0
   -3.5721    2.7571    0.0000 C   0  0  0  0  0  0  0  0  0  0  0  0
    0.3250    2.0071    0.0000 C   0  0  0  0  0  0  0  0  0  0  0  0
   -4.8712    2.0071    0.0000 O   0  0  0  0  0  0  0  0  0  0  0  0
  2  1  2  0
  3  1  1  0
  5  2  1  0
  6  3  2  0
  4  7  2  0
  8  4  1  0
  9  5  2  0
  9  6  1  0
  9  7  1  0
 10  8  1  0
M  END
>  <NAME>  (3329) 
3-PHENYL-2-PROPEN-1-OL

>  <SYNONYMS>  (3329) 
CINNAMYL ALCOHOL

>  <SPECTRUM TYPE>  (3329) 
MS1

>  <INSTRUMENT TYPE>  (3329) 
EI-B

>  <INSTRUMENT>  (3329) 
HITACHI RMU-6M

>  <ION MODE>  (3329) 
P

>  <INCHIKEY>  (3329) 
OOCCDEMITAIZTP-QPJJXVBHSA-N

>  <FORMULA>  (3329) 
C9H10O

>  <EXACT MASS>  (3329) 
134.07316494

>  <MW>  (3329) 
134

>  <ID>  (3329) 
JP007348

>  <CONTRIBUTOR>  (3329) 
University of Tokyo Team, {Faculty of Engineering, University of Tokyo

>  <COMMENT>  (3329) 
SMILES=OCC=Cc(c1)cccc1
cas=104-54-1
InChI=InChI=1S/C9H10O/c10-8-4-7-9-5-2-1-3-6-9/h1-7,10H,8H2/b7-4+
computed SMILES=OCC=CC=1C=CC=CC1
accession=JP007348
date=2016.01.19 (Created 2008.10.21, modified 2011.05.06)
author=YAMAMOTO M, DEP. CHEMISTRY, FAC. SCIENCE, NARA WOMEN'S UNIV.
license=CC BY-NC-SA
exact mass=134.07316
ionization energy=70 eV
ion type=[M]+*
computed spectral entropy=3.301308243990372
computed normalized entropy=0.803067268193659
SPLASH=splash10-0036-9400000000-540e90374e70aac0f48b
submitter=submitter = University of Tokyo Team (Faculty of Engineering, University of Tokyo)
MoNA Rating=3.75

>  <NUM PEAKS>  (3329) 
61

>  <MASS SPECTRAL PEAKS>  (3329) 
26 1.1
27 11.08
28 2.42
29 4.73
30 1.66
31 4.79
38 2.97
39 15.67
40 1.36
41 1.81
43 3.07
50 10.88
51 28.07
52 6.8
53 3.07
55 21.06
56 5.54
57 4.38
57.5 3.07
58 1.31
61 1.36
62 4.33
63 11.99
64 2.42
65 9.02
65.5 1.61
66 3.93
66.5 1.87
67 2.52
74 4.73
75 4.58
76 4.62
77 40.47
78 55.41
79 24.54
80 1.46
86 1.1
87 1.16
89 7.25
90 2.67
91 69.9
92 99.99
93 7.31
101 1.15
102 6.6
103 21.27
104 4.83
105 53.39
106 6.85
107 3.27
114 1
115 35.33
116 12.35
117 8.2
118 1.26
119 1.21
131 4.73
132 1.36
133 19.66
134 85.02
135 8.36

$$$$

     RDKit          2D

 10 10  0  0  0  0  0  0  0  0999 V2000
    2.9231    0.5071    0.0000 C   0  0  0  0  0  0  0  0  0  0  0  0
    2.9236    2.0079    0.0000 C   0  0  0  0  0  0  0  0  0  0  0  0
    1.6236   -0.2437    0.0000 C   0  0  0  0  0  0  0  0  0  0  0  0
   -2.2731    2.0071    0.0000 C   0  0  0  0  0  0  0  0  0  0  0  0
    1.6245    2.7579    0.0000 C   0  0  0  0  0  0  0  0  0  0  0  0
    0.3245    0.5063    0.0000 C   0  0  0  0  0  0  0  0  0  0  0  0
   -0.9740    2.7571    0.0000 C   0  0  0  0  0  0  0  0  0  0  0  0
   -3.5721    2.7571    0.0000 C   0  0  0  0  0  0  0  0  0  0  0  0
    0.3250    2.0071    0.0000 C   0  0  0  0  0  0  0  0  0  0  0  0
   -4.8712    2.0071    0.0000 O   0  0  0  0  0  0  0  0  0  0  0  0
  2  1  2  0
  3  1  1  0
  5  2  1  0
  6  3  2  0
  4  7  2  0
  8  4  1  0
  9  5  2  0
  9  6  1  0
  9  7  1  0
 10  8  2  0
M  END
>  <NAME>  (3330) 
(E)-3-PHENYL-2-PROPENAL

>  <SYNONYMS>  (3330) 
TRANS-CINNAMALDEHYDE

>  <SPECTRUM TYPE>  (3330) 
MS1

>  <INSTRUMENT TYPE>  (3330) 
EI-B

>  <INSTRUMENT>  (3330) 
HITACHI RMU-6M

>  <ION MODE>  (3330) 
P

>  <INCHIKEY>  (3330) 
KJPRLNWUNMBNBZ-QPJJXVBHSA-N

>  <FORMULA>  (3330) 
C9H8O

>  <EXACT MASS>  (3330) 
132.057514876

>  <MW>  (3330) 
132

>  <ID>  (3330) 
JP007347

>  <CONTRIBUTOR>  (3330) 
University of Tokyo Team, {Faculty of Engineering, University of Tokyo

>  <COMMENT>  (3330) 
SMILES=O=CC=Cc(c1)cccc1
cas=14371-10-9
InChI=InChI=1S/C9H8O/c10-8-4-7-9-5-2-1-3-6-9/h1-8H/b7-4+
computed SMILES=O=CC=CC=1C=CC=CC1
accession=JP007347
date=2016.01.19 (Created 2008.10.21, modified 2011.05.06)
author=YAMAMOTO M, DEP. CHEMISTRY, FAC. SCIENCE, NARA WOMEN'S UNIV.
license=CC BY-NC-SA
exact mass=132.05751
ionization energy=70 eV
ion type=[M]+*
computed spectral entropy=2.767113459589581
computed normalized entropy=0.7356996103567671
SPLASH=splash10-0f89-6900000000-ecaba4b9d657020c3f4c
submitter=submitter = University of Tokyo Team (Faculty of Engineering, University of Tokyo)
MoNA Rating=3.75

>  <NUM PEAKS>  (3330) 
43

>  <MASS SPECTRAL PEAKS>  (3330) 
26 1.56
27 5.18
28 2.98
29 2.76
37 1.34
38 2.84
39 8.02
49 1.27
50 14.96
51 36.82
51.5 2.27
52 10.06
53 1.7
54 1.7
55 1.7
61 1.56
62 3.55
63 8.16
64 1.13
65 1.54
65.5 1.27
66 2.48
73 1.13
74 6.95
75 6.31
76 7.88
77 45.11
78 31.99
79 1.91
87 1
89 1.41
91 2.69
98 1.06
101 1.84
102 9.93
103 56.03
104 31.21
105 3.47
115 1.06
130 1.35
131 99.99
132 93.19
133 9.22

$$$$

     RDKit          2D

  9  9  0  0  0  0  0  0  0  0999 V2000
    2.6027    1.4936    0.0000 C   0  0  0  0  0  0  0  0  0  0  0  0
   -3.9180   -0.7714    0.0000 C   0  0  0  0  0  0  0  0  0  0  0  0
    1.3000   -0.7500    0.0000 C   0  0  0  0  0  0  0  0  0  0  0  0
    0.0300    1.5000    0.0000 C   0  0  0  0  0  0  0  0  0  0  0  0
    0.0300   -1.5000    0.0000 C   0  0  0  0  0  0  0  0  0  0  0  0
   -1.3200    0.7500    0.0000 C   0  0  0  0  0  0  0  0  0  0  0  0
    1.3000    0.7500    0.0000 C   0  0  0  0  0  0  0  0  0  0  0  0
   -1.3200   -0.7500    0.0000 C   0  0  0  0  0  0  0  0  0  0  0  0
   -2.6128   -1.5107    0.0000 O   0  0  0  0  0  0  0  0  0  0  0  0
  5  3  2  0
  6  4  1  0
  7  1  1  0
  7  3  1  0
  7  4  2  0
  8  5  1  0
  8  6  2  0
  9  2  1  0
  9  8  1  0
M  END
>  <NAME>  (3331) 
1-METHOXY-4-METHYLBENZENE

>  <SYNONYMS>  (3331) 
PARA-METHYLANISOLE

>  <SPECTRUM TYPE>  (3331) 
MS1

>  <INSTRUMENT TYPE>  (3331) 
EI-B

>  <INSTRUMENT>  (3331) 
HITACHI RMU-6M

>  <ION MODE>  (3331) 
P

>  <INCHIKEY>  (3331) 
CHLICZRVGGXEOD-UHFFFAOYSA-N

>  <FORMULA>  (3331) 
C8H10O

>  <EXACT MASS>  (3331) 
122.07316494

>  <MW>  (3331) 
122

>  <ID>  (3331) 
JP007346

>  <CONTRIBUTOR>  (3331) 
University of Tokyo Team, {Faculty of Engineering, University of Tokyo

>  <COMMENT>  (3331) 
SMILES=COc(c1)ccc(C)c1
cas=104-93-8
InChI=InChI=1S/C8H10O/c1-7-3-5-8(9-2)6-4-7/h3-6H,1-2H3
computed SMILES=O(C1=CC=C(C=C1)C)C
accession=JP007346
date=2016.01.19 (Created 2008.10.21, modified 2011.05.06)
author=YAMAMOTO M, DEP. CHEMISTRY, FAC. SCIENCE, NARA WOMEN'S UNIV.
license=CC BY-NC-SA
exact mass=122.07316
ionization energy=70 eV
ion type=[M]+*
computed spectral entropy=2.584499801450403
computed normalized entropy=0.7457290093462015
SPLASH=splash10-00fr-9700000000-abff1f2d64d82ac5a330
submitter=submitter = University of Tokyo Team (Faculty of Engineering, University of Tokyo)
MoNA Rating=3.75

>  <NUM PEAKS>  (3331) 
32

>  <MASS SPECTRAL PEAKS>  (3331) 
15 1.86
26 1.06
27 5.47
28 1.96
38 1.85
39 9.5
41 1.48
50 5.3
51 10.88
52 6.37
53 5.09
61 1.38
62 1.96
63 5.41
64 1.59
65 6.26
74 1.11
75 1.01
77 28.24
78 8.86
79 23.88
80 1.54
89 2.39
90 2.02
91 18.74
92 6.15
93 1.27
107 28.55
108 2.55
121 1.06
122 99.99
123 9.07

$$$$

     RDKit          2D

  9  9  0  0  0  0  0  0  0  0999 V2000
   -2.9298    0.5563    0.0000 C   0  0  0  0  0  0  0  0  0  0  0  0
    3.5660    1.3113    0.0000 C   0  0  0  0  0  0  0  0  0  0  0  0
   -0.3357    3.5491    0.0000 C   0  0  0  0  0  0  0  0  0  0  0  0
   -1.6302    2.8069    0.0000 C   0  0  0  0  0  0  0  0  0  0  0  0
    0.9634    2.7991    0.0000 C   0  0  0  0  0  0  0  0  0  0  0  0
   -0.3316    0.5561    0.0000 C   0  0  0  0  0  0  0  0  0  0  0  0
   -1.6307    1.3061    0.0000 C   0  0  0  0  0  0  0  0  0  0  0  0
    0.9679    1.3069    0.0000 C   0  0  0  0  0  0  0  0  0  0  0  0
    2.2682    0.5591    0.0000 O   0  0  0  0  0  0  0  0  0  0  0  0
  4  3  2  0
  5  3  1  0
  7  1  1  0
  7  4  1  0
  7  6  2  0
  8  5  2  0
  8  6  1  0
  9  2  1  0
  9  8  1  0
M  END
>  <NAME>  (3332) 
1-METHOXY-3-METHYLBENZENE

>  <SYNONYMS>  (3332) 
META-METHYLANISOLE

>  <SPECTRUM TYPE>  (3332) 
MS1

>  <INSTRUMENT TYPE>  (3332) 
EI-B

>  <INSTRUMENT>  (3332) 
HITACHI RMU-6M

>  <ION MODE>  (3332) 
P

>  <INCHIKEY>  (3332) 
OSIGJGFTADMDOB-UHFFFAOYSA-N

>  <FORMULA>  (3332) 
C8H10O

>  <EXACT MASS>  (3332) 
122.07316494

>  <MW>  (3332) 
122

>  <ID>  (3332) 
JP007345

>  <CONTRIBUTOR>  (3332) 
University of Tokyo Team, {Faculty of Engineering, University of Tokyo

>  <COMMENT>  (3332) 
SMILES=COc(c1)cc(C)cc1
cas=100-84-5
InChI=InChI=1S/C8H10O/c1-7-4-3-5-8(6-7)9-2/h3-6H,1-2H3
computed SMILES=O(C1=CC=CC(=C1)C)C
accession=JP007345
date=2016.01.19 (Created 2008.10.21, modified 2011.05.06)
author=YAMAMOTO M, DEP. CHEMISTRY, FAC. SCIENCE, NARA WOMEN'S UNIV.
license=CC BY-NC-SA
exact mass=122.07316
ionization energy=70 eV
ion type=[M]+*
computed spectral entropy=2.6874090384107716
computed normalized entropy=0.7754223385110796
SPLASH=splash10-00dl-9600000000-76342d24ed690bad28d5
submitter=submitter = University of Tokyo Team (Faculty of Engineering, University of Tokyo)
MoNA Rating=3.75

>  <NUM PEAKS>  (3332) 
32

>  <MASS SPECTRAL PEAKS>  (3332) 
15 1.88
27 4.7
28 1.88
38 2.91
39 13.15
40 1.12
41 1.69
50 5.07
51 9.87
52 5.69
53 5.59
61 1.5
62 2.35
63 5.92
64 2.07
65 7.14
74 1.22
75 1.03
77 26.5
78 8.27
79 25.19
80 1.78
89 2.35
90 2.44
91 39
92 17.48
93 4.89
107 16.35
108 1.5
121 12.78
122 99.99
123 8.83

$$$$

     RDKit          2D

  9  9  0  0  0  0  0  0  0  0999 V2000
   -0.9745    2.0634    0.0000 C   0  0  0  0  0  0  0  0  0  0  0  0
    2.9228   -0.1870    0.0000 C   0  0  0  0  0  0  0  0  0  0  0  0
   -2.2743   -1.6883    0.0000 C   0  0  0  0  0  0  0  0  0  0  0  0
   -0.9753   -2.4383    0.0000 C   0  0  0  0  0  0  0  0  0  0  0  0
   -2.2738   -0.1874    0.0000 C   0  0  0  0  0  0  0  0  0  0  0  0
    0.3242   -1.6874    0.0000 C   0  0  0  0  0  0  0  0  0  0  0  0
   -0.9743    0.5634    0.0000 C   0  0  0  0  0  0  0  0  0  0  0  0
    0.3247   -0.1866    0.0000 C   0  0  0  0  0  0  0  0  0  0  0  0
    1.6239    0.5632    0.0000 O   0  0  0  0  0  0  0  0  0  0  0  0
  4  3  2  0
  5  3  1  0
  6  4  1  0
  7  1  1  0
  7  5  2  0
  8  6  2  0
  8  7  1  0
  9  2  1  0
  9  8  1  0
M  END
>  <NAME>  (3333) 
1-METHOXY-2-METHYLBENZENE

>  <SYNONYMS>  (3333) 
ORTHO-METHYLANISOLE

>  <SPECTRUM TYPE>  (3333) 
MS1

>  <INSTRUMENT TYPE>  (3333) 
EI-B

>  <INSTRUMENT>  (3333) 
HITACHI RMU-6M

>  <ION MODE>  (3333) 
P

>  <INCHIKEY>  (3333) 
DTFKRVXLBCAIOZ-UHFFFAOYSA-N

>  <FORMULA>  (3333) 
C8H10O

>  <EXACT MASS>  (3333) 
122.07316494

>  <MW>  (3333) 
122

>  <ID>  (3333) 
JP007344

>  <CONTRIBUTOR>  (3333) 
University of Tokyo Team, {Faculty of Engineering, University of Tokyo

>  <COMMENT>  (3333) 
SMILES=COc(c1)c(C)ccc1
cas=578-58-5
InChI=InChI=1S/C8H10O/c1-7-5-3-4-6-8(7)9-2/h3-6H,1-2H3
computed SMILES=O(C=1C=CC=CC1C)C
accession=JP007344
date=2016.01.19 (Created 2008.10.21, modified 2011.05.06)
author=YAMAMOTO M, DEP. CHEMISTRY, FAC. SCIENCE, NARA WOMEN'S UNIV.
license=CC BY-NC-SA
exact mass=122.07316
ionization energy=70 eV
ion type=[M]+*
computed spectral entropy=2.703177361852885
computed normalized entropy=0.7731078266906816
SPLASH=splash10-00di-9800000000-fb99f44d23178994142f
submitter=submitter = University of Tokyo Team (Faculty of Engineering, University of Tokyo)
MoNA Rating=3.75

>  <NUM PEAKS>  (3333) 
33

>  <MASS SPECTRAL PEAKS>  (3333) 
15 1.85
26 1
27 5.28
28 2.25
38 2.44
39 11.82
40 1.06
41 1.65
50 5.35
51 11.49
52 6.54
53 5.15
61 1.06
62 2.25
63 5.81
64 1.84
65 8.72
74 1.06
75 1.19
77 31.11
78 8.98
79 17.64
80 1.38
89 4.49
90 7.33
91 32.03
92 9.11
93 1.91
107 48.68
108 3.89
121 15.78
122 99.99
123 8.65

$$$$

     RDKit          2D

 10 10  0  0  0  0  0  0  0  0999 V2000
   -2.2418    2.4858    0.0000 C   0  0  0  0  0  0  0  0  0  0  0  0
    4.2830    0.2248    0.0000 C   0  0  0  0  0  0  0  0  0  0  0  0
    0.3468    2.4694    0.0000 C   0  0  0  0  0  0  0  0  0  0  0  0
    1.6458    1.7194    0.0000 C   0  0  0  0  0  0  0  0  0  0  0  0
   -0.9632    0.2004    0.0000 C   0  0  0  0  0  0  0  0  0  0  0  0
   -0.9477    1.7272    0.0000 C   0  0  0  0  0  0  0  0  0  0  0  0
    0.3358   -0.5496    0.0000 C   0  0  0  0  0  0  0  0  0  0  0  0
    1.6850    0.2072    0.0000 C   0  0  0  0  0  0  0  0  0  0  0  0
    0.3265   -2.0495    0.0000 N   0  0  0  0  0  0  0  0  0  0  0  0
    2.9891   -0.5340    0.0000 O   0  0  0  0  0  0  0  0  0  0  0  0
  4  3  2  0
  6  1  1  0
  6  3  1  0
  6  5  2  0
  7  5  1  0
  8  4  1  0
  8  7  2  0
  9  7  1  0
 10  2  1  0
 10  8  1  0
M  END
>  <NAME>  (3334) 
2-METHOXY-5-METHYLANILINE

>  <SYNONYMS>  (3334) 
2-METHOXY-5-METHYL-BENZENAMINE

>  <SPECTRUM TYPE>  (3334) 
MS1

>  <INSTRUMENT TYPE>  (3334) 
EI-B

>  <INSTRUMENT>  (3334) 
ESCO EMD-05A

>  <ION MODE>  (3334) 
P

>  <INCHIKEY>  (3334) 
WXWCDTXEKCVRRO-UHFFFAOYSA-N

>  <FORMULA>  (3334) 
C8H11NO

>  <EXACT MASS>  (3334) 
137.084063972

>  <MW>  (3334) 
137

>  <ID>  (3334) 
JP007343

>  <CONTRIBUTOR>  (3334) 
University of Tokyo Team, {Faculty of Engineering, University of Tokyo

>  <COMMENT>  (3334) 
SMILES=COc(c1)c(N)cc(C)c1
cas=120-71-8
InChI=InChI=1S/C8H11NO/c1-6-3-4-8(10-2)7(9)5-6/h3-5H,9H2,1-2H3
computed SMILES=O(C1=CC=C(C=C1N)C)C
accession=JP007343
date=2016.01.19 (Created 2008.10.21, modified 2011.05.06)
author=YAMAMOTO M, DEP. CHEMISTRY, FAC. SCIENCE, NARA WOMEN'S UNIV.
license=CC BY-NC-SA
exact mass=137.08406
ionization energy=70 eV
ion type=[M]+*
computed spectral entropy=2.7101453634965997
computed normalized entropy=0.7346798390156593
SPLASH=splash10-00dr-5900000000-4226725c554c67adf1ae
submitter=submitter = University of Tokyo Team (Faculty of Engineering, University of Tokyo)
MoNA Rating=3.75

>  <NUM PEAKS>  (3334) 
40

>  <MASS SPECTRAL PEAKS>  (3334) 
38 1.29
39 10.04
40 2.13
41 7.12
42 3.86
43 2.32
50 3.46
51 3.71
52 3.76
53 2.18
54 4.9
63 1.38
65 6.68
66 10.68
67 7.81
76 1.29
77 14.34
78 2.27
79 3.66
80 2.92
91 3.86
92 4.85
93 10.93
94 34.22
95 2.72
96 1.48
104 1.83
105 1.63
106 6.38
108 2.13
120 1.04
121 6.48
122 99.99
123 8.11
124 4.99
125 1.98
126 1.14
136 2.92
137 87.29
138 7.81

$$$$

     RDKit          2D

  9  9  0  0  0  0  0  0  0  0999 V2000
    2.5989    0.0004    0.0000 C   0  0  0  0  0  0  0  0  0  0  0  0
    0.0000    1.5002    0.0000 C   0  0  0  0  0  0  0  0  0  0  0  0
    1.3000   -2.2498    0.0000 C   0  0  0  0  0  0  0  0  0  0  0  0
   -0.0000   -2.9998    0.0000 C   0  0  0  0  0  0  0  0  0  0  0  0
   -1.3000   -0.7498    0.0000 C   0  0  0  0  0  0  0  0  0  0  0  0
    1.3000   -0.7498    0.0000 C   0  0  0  0  0  0  0  0  0  0  0  0
    0.0000    0.0002    0.0000 C   0  0  0  0  0  0  0  0  0  0  0  0
   -1.3000   -2.2498    0.0000 C   0  0  0  0  0  0  0  0  0  0  0  0
   -2.5989   -3.0000    0.0000 N   0  0  0  0  0  0  0  0  0  0  0  0
  4  3  2  0
  6  1  1  0
  6  3  1  0
  7  2  1  0
  7  5  1  0
  7  6  2  0
  8  4  1  0
  8  5  2  0
  9  8  1  0
M  END
>  <NAME>  (3335) 
3,4-DIMETHYLBENZENAMINE

>  <SYNONYMS>  (3335) 
3,4-XYLIDINE

>  <SPECTRUM TYPE>  (3335) 
MS1

>  <INSTRUMENT TYPE>  (3335) 
EI-B

>  <INSTRUMENT>  (3335) 
ESCO EMD-05A

>  <ION MODE>  (3335) 
P

>  <INCHIKEY>  (3335) 
DOLQYFPDPKPQSS-UHFFFAOYSA-N

>  <FORMULA>  (3335) 
C8H11N

>  <EXACT MASS>  (3335) 
121.08914935199999

>  <MW>  (3335) 
121

>  <ID>  (3335) 
JP007342

>  <CONTRIBUTOR>  (3335) 
University of Tokyo Team, {Faculty of Engineering, University of Tokyo

>  <COMMENT>  (3335) 
SMILES=Nc(c1)cc(C)c(C)c1
InChI=InChI=1S/C8H11N/c1-6-3-4-8(9)5-7(6)2/h3-5H,9H2,1-2H3
computed SMILES=NC1=CC=C(C(=C1)C)C
accession=JP007342
date=2016.01.19 (Created 2008.10.21, modified 2011.05.06)
author=YAMAMOTO M, DEP. CHEMISTRY, FAC. SCIENCE, NARA WOMEN'S UNIV.
license=CC BY-NC-SA
exact mass=121.08915
ionization energy=70 eV
ion type=[M]+*
computed spectral entropy=2.650350626419325
computed normalized entropy=0.7339825192754134
SPLASH=splash10-00di-4900000000-6b8f7fda93582760cb05
submitter=submitter = University of Tokyo Team (Faculty of Engineering, University of Tokyo)
MoNA Rating=3.75

>  <NUM PEAKS>  (3335) 
37

>  <MASS SPECTRAL PEAKS>  (3335) 
38 1.48
39 11.05
41 3.5
42 4.08
43 1.48
47 1.69
50 3.34
51 3.25
52 3.17
53 9.97
54 3.95
59 2.14
60 1.69
61 2.18
63 1.89
65 9.6
66 1.77
69 2.76
77 19.95
78 4.65
79 4.2
80 2.76
89 1.15
91 8.41
92 3.01
93 8.41
94 2.06
103 2.51
104 3.54
105 3.87
106 58.35
107 5.03
118 4.53
119 3.05
120 61.77
121 99.99
122 8.04

$$$$

     RDKit          2D

  9  9  0  0  0  0  0  0  0  0999 V2000
   -2.8539    0.1433    0.0000 C   0  0  0  0  0  0  0  0  0  0  0  0
    2.3428    0.1427    0.0000 C   0  0  0  0  0  0  0  0  0  0  0  0
   -0.2548   -2.8581    0.0000 C   0  0  0  0  0  0  0  0  0  0  0  0
   -1.5543   -2.1073    0.0000 C   0  0  0  0  0  0  0  0  0  0  0  0
    1.0443   -2.1081    0.0000 C   0  0  0  0  0  0  0  0  0  0  0  0
   -1.5548   -0.6065    0.0000 C   0  0  0  0  0  0  0  0  0  0  0  0
    1.0438   -0.6073    0.0000 C   0  0  0  0  0  0  0  0  0  0  0  0
   -0.2557    0.1435    0.0000 C   0  0  0  0  0  0  0  0  0  0  0  0
   -0.2555    1.6435    0.0000 N   0  0  0  0  0  0  0  0  0  0  0  0
  4  3  2  0
  5  3  1  0
  6  1  1  0
  6  4  1  0
  7  2  1  0
  7  5  2  0
  8  6  2  0
  8  7  1  0
  9  8  1  0
M  END
>  <NAME>  (3336) 
2,6-DIMETHYLBENZENAMINE

>  <SYNONYMS>  (3336) 
2,6-XYLIDINE

>  <SPECTRUM TYPE>  (3336) 
MS1

>  <INSTRUMENT TYPE>  (3336) 
EI-B

>  <INSTRUMENT>  (3336) 
HITACHI RMU-6M

>  <ION MODE>  (3336) 
P

>  <INCHIKEY>  (3336) 
UFFBMTHBGFGIHF-UHFFFAOYSA-N

>  <FORMULA>  (3336) 
C8H11N

>  <EXACT MASS>  (3336) 
121.08914935199999

>  <MW>  (3336) 
121

>  <ID>  (3336) 
JP007341

>  <CONTRIBUTOR>  (3336) 
University of Tokyo Team, {Faculty of Engineering, University of Tokyo

>  <COMMENT>  (3336) 
SMILES=Cc(c1)c(N)c(C)cc1
InChI=InChI=1S/C8H11N/c1-6-4-3-5-7(2)8(6)9/h3-5H,9H2,1-2H3
computed SMILES=NC=1C(=CC=CC1C)C
accession=JP007341
date=2016.01.19 (Created 2008.10.21, modified 2011.05.06)
author=YAMAMOTO M, DEP. CHEMISTRY, FAC. SCIENCE, NARA WOMEN'S UNIV.
license=CC BY-NC-SA
exact mass=121.08915
ionization energy=70 eV
ion type=[M]+*
computed spectral entropy=2.8688021322632293
computed normalized entropy=0.7493002961556942
SPLASH=splash10-00di-4900000000-adba26f261e79021dda8
submitter=submitter = University of Tokyo Team (Faculty of Engineering, University of Tokyo)
MoNA Rating=3.75

>  <NUM PEAKS>  (3336) 
46

>  <MASS SPECTRAL PEAKS>  (3336) 
27 4.06
28 4.15
30 2.59
38 1.69
39 8.98
40 1.38
41 3.17
42 4.11
46.5 1.79
50 2.59
51 6.39
52 4.46
53 5.94
54 2.72
58.5 3.04
59.5 3.89
60 1.07
60.5 3.93
62 1.34
63 3.48
64 4.38
65 1.16
66 5.89
67 1.96
76 1.11
77 14.87
78 7.67
79 4.91
80 2.27
89 1.47
91 10.54
92 2.94
93 4.51
94 1.78
102 1.43
103 7.37
104 5.22
105 2.68
106 55.53
107 4.87
117 1
118 3.27
119 2.72
120 56.39
121 99.99
122 9.23

$$$$

     RDKit          2D

  9  9  0  0  0  0  0  0  0  0999 V2000
   -2.5989   -1.5002    0.0000 C   0  0  0  0  0  0  0  0  0  0  0  0
    2.5989    1.5002    0.0000 C   0  0  0  0  0  0  0  0  0  0  0  0
   -1.3000    0.7500    0.0000 C   0  0  0  0  0  0  0  0  0  0  0  0
    0.0000    1.5000    0.0000 C   0  0  0  0  0  0  0  0  0  0  0  0
   -0.0000   -1.5000    0.0000 C   0  0  0  0  0  0  0  0  0  0  0  0
   -1.3000   -0.7500    0.0000 C   0  0  0  0  0  0  0  0  0  0  0  0
    1.3000    0.7500    0.0000 C   0  0  0  0  0  0  0  0  0  0  0  0
    1.3000   -0.7500    0.0000 C   0  0  0  0  0  0  0  0  0  0  0  0
    2.5989   -1.5002    0.0000 N   0  0  0  0  0  0  0  0  0  0  0  0
  4  3  2  0
  6  1  1  0
  6  3  1  0
  6  5  2  0
  7  2  1  0
  7  4  1  0
  8  5  1  0
  8  7  2  0
  9  8  1  0
M  END
>  <NAME>  (3337) 
2,5-DIMETHYLBENZENAMINE

>  <SYNONYMS>  (3337) 
2,5-XYLIDINE

>  <SPECTRUM TYPE>  (3337) 
MS1

>  <INSTRUMENT TYPE>  (3337) 
EI-B

>  <INSTRUMENT>  (3337) 
HITACHI RMU-6M

>  <ION MODE>  (3337) 
P

>  <INCHIKEY>  (3337) 
VOWZNBNDMFLQGM-UHFFFAOYSA-N

>  <FORMULA>  (3337) 
C8H11N

>  <EXACT MASS>  (3337) 
121.08914935199999

>  <MW>  (3337) 
121

>  <ID>  (3337) 
JP007340

>  <CONTRIBUTOR>  (3337) 
University of Tokyo Team, {Faculty of Engineering, University of Tokyo

>  <COMMENT>  (3337) 
SMILES=Cc(c1)cc(N)c(C)c1
InChI=InChI=1S/C8H11N/c1-6-3-4-7(2)8(9)5-6/h3-5H,9H2,1-2H3
computed SMILES=NC1=CC(=CC=C1C)C
accession=JP007340
date=2016.01.19 (Created 2008.10.21, modified 2011.05.06)
author=YAMAMOTO M, DEP. CHEMISTRY, FAC. SCIENCE, NARA WOMEN'S UNIV.
license=CC BY-NC-SA
exact mass=121.08915
ionization energy=70 eV
ion type=[M]+*
computed spectral entropy=2.8082732598111226
computed normalized entropy=0.7377258339445175
SPLASH=splash10-00di-4900000000-9ae75762576c996923e6
submitter=submitter = University of Tokyo Team (Faculty of Engineering, University of Tokyo)
MoNA Rating=3.75

>  <NUM PEAKS>  (3337) 
45

>  <MASS SPECTRAL PEAKS>  (3337) 
27 4.01
28 4.36
30 1.66
38 1.86
39 8.23
40 1.26
41 3.23
42 3.92
46.5 1.56
50 2.89
51 7.05
52 4.26
53 6.13
54 2.3
58.5 3.18
59.5 3.43
60 1.17
60.5 3.44
62 1.17
63 2.74
64 1.03
65 5.29
66 2.2
76 1.02
77 15.38
78 6.66
79 5.14
80 2.74
89 1.37
91 10.53
92 2.6
93 5.43
94 1.91
102 1.27
103 5.48
104 6.11
105 2.69
106 55.25
107 4.65
117 1.07
118 3.08
119 2.69
120 60.74
121 99.99
122 9.45

$$$$

     RDKit          2D

  9  9  0  0  0  0  0  0  0  0999 V2000
   -2.5989   -1.5002    0.0000 C   0  0  0  0  0  0  0  0  0  0  0  0
    2.5989   -1.5002    0.0000 C   0  0  0  0  0  0  0  0  0  0  0  0
   -1.3000    0.7500    0.0000 C   0  0  0  0  0  0  0  0  0  0  0  0
    0.0000    1.5000    0.0000 C   0  0  0  0  0  0  0  0  0  0  0  0
   -0.0000   -1.5000    0.0000 C   0  0  0  0  0  0  0  0  0  0  0  0
   -1.3000   -0.7500    0.0000 C   0  0  0  0  0  0  0  0  0  0  0  0
    1.3000   -0.7500    0.0000 C   0  0  0  0  0  0  0  0  0  0  0  0
    1.3000    0.7500    0.0000 C   0  0  0  0  0  0  0  0  0  0  0  0
    2.5989    1.5002    0.0000 N   0  0  0  0  0  0  0  0  0  0  0  0
  4  3  2  0
  6  1  1  0
  6  3  1  0
  6  5  2  0
  7  2  1  0
  7  5  1  0
  8  4  1  0
  8  7  2  0
  9  8  1  0
M  END
>  <NAME>  (3338) 
2,4-DIMETHYLBENZENAMINE

>  <SYNONYMS>  (3338) 
2,4-XYLIDINE

>  <SPECTRUM TYPE>  (3338) 
MS1

>  <INSTRUMENT TYPE>  (3338) 
EI-B

>  <INSTRUMENT>  (3338) 
HITACHI RMU-6M

>  <ION MODE>  (3338) 
P

>  <INCHIKEY>  (3338) 
CZZZABOKJQXEBO-UHFFFAOYSA-N

>  <FORMULA>  (3338) 
C8H11N

>  <EXACT MASS>  (3338) 
121.08914935199999

>  <MW>  (3338) 
121

>  <ID>  (3338) 
JP007339

>  <CONTRIBUTOR>  (3338) 
University of Tokyo Team, {Faculty of Engineering, University of Tokyo

>  <COMMENT>  (3338) 
SMILES=Cc(c1)cc(C)c(N)c1
InChI=InChI=1S/C8H11N/c1-6-3-4-8(9)7(2)5-6/h3-5H,9H2,1-2H3
computed SMILES=NC1=CC=C(C=C1C)C
accession=JP007339
date=2016.01.19 (Created 2008.10.21, modified 2011.05.06)
author=YAMAMOTO M, DEP. CHEMISTRY, FAC. SCIENCE, NARA WOMEN'S UNIV.
license=CC BY-NC-SA
exact mass=121.08915
ionization energy=70 eV
ion type=[M]+*
computed spectral entropy=2.729520128899994
computed normalized entropy=0.7170375982202414
SPLASH=splash10-00di-4900000000-73bfbb6a2b2ba59e4f4f
submitter=submitter = University of Tokyo Team (Faculty of Engineering, University of Tokyo)
MoNA Rating=3.75

>  <NUM PEAKS>  (3338) 
45

>  <MASS SPECTRAL PEAKS>  (3338) 
27 4
28 4.3
30 1.79
38 1.59
39 8.05
40 1.18
41 3.43
42 3.07
46.5 1.84
50 2.46
51 6
52 5.02
53 6.06
54 2.56
58.5 3.69
59.5 3.28
60 1.12
60.5 3.8
62 1.28
63 3.12
64 5.22
65 2.05
66 1.12
76 1.02
77 14.66
78 5.07
79 3.95
80 2.67
89 1.24
91 9.38
92 2.41
93 4.46
94 1.69
102 1.02
103 3.79
104 3.53
105 2.1
106 55.16
107 4.51
117 1.28
118 4.56
119 4.25
120 78.39
121 99.99
122 9.02

$$$$

     RDKit          2D

  9  9  0  0  0  0  0  0  0  0999 V2000
    3.5728   -1.3131    0.0000 C   0  0  0  0  0  0  0  0  0  0  0  0
    0.9744   -2.8133    0.0000 C   0  0  0  0  0  0  0  0  0  0  0  0
    0.9737    1.6883    0.0000 C   0  0  0  0  0  0  0  0  0  0  0  0
    2.2732    0.9375    0.0000 C   0  0  0  0  0  0  0  0  0  0  0  0
   -0.3254    0.9383    0.0000 C   0  0  0  0  0  0  0  0  0  0  0  0
    2.2737   -0.5633    0.0000 C   0  0  0  0  0  0  0  0  0  0  0  0
    0.9746   -1.3133    0.0000 C   0  0  0  0  0  0  0  0  0  0  0  0
   -0.3249   -0.5625    0.0000 C   0  0  0  0  0  0  0  0  0  0  0  0
   -1.6239   -1.3125    0.0000 N   0  0  0  0  0  0  0  0  0  0  0  0
  4  3  2  0
  5  3  1  0
  6  1  1  0
  6  4  1  0
  7  2  1  0
  7  6  2  0
  8  5  2  0
  8  7  1  0
  9  8  1  0
M  END
>  <NAME>  (3339) 
2,3-DIMETHYLBENZENAMINE

>  <SYNONYMS>  (3339) 
2,3-XYLIDINE

>  <SPECTRUM TYPE>  (3339) 
MS1

>  <INSTRUMENT TYPE>  (3339) 
EI-B

>  <INSTRUMENT>  (3339) 
HITACHI RMU-6M

>  <ION MODE>  (3339) 
P

>  <INCHIKEY>  (3339) 
VVAKEQGKZNKUSU-UHFFFAOYSA-N

>  <FORMULA>  (3339) 
C8H11N

>  <EXACT MASS>  (3339) 
121.08914935199999

>  <MW>  (3339) 
121

>  <ID>  (3339) 
JP007338

>  <CONTRIBUTOR>  (3339) 
University of Tokyo Team, {Faculty of Engineering, University of Tokyo

>  <COMMENT>  (3339) 
SMILES=Cc(c1)c(C)c(N)cc1
InChI=InChI=1S/C8H11N/c1-6-4-3-5-8(9)7(6)2/h3-5H,9H2,1-2H3
computed SMILES=NC1=CC=CC(=C1C)C
accession=JP007338
date=2016.01.19 (Created 2008.10.21, modified 2011.05.06)
author=YAMAMOTO M, DEP. CHEMISTRY, FAC. SCIENCE, NARA WOMEN'S UNIV.
license=CC BY-NC-SA
exact mass=121.08915
ionization energy=70 eV
ion type=[M]+*
computed spectral entropy=2.882366195651514
computed normalized entropy=0.7486378429677084
SPLASH=splash10-00di-4900000000-601ab0447c9035fed0ce
submitter=submitter = University of Tokyo Team (Faculty of Engineering, University of Tokyo)
MoNA Rating=3.75

>  <NUM PEAKS>  (3339) 
47

>  <MASS SPECTRAL PEAKS>  (3339) 
27 4.08
28 4.64
30 2.04
38 1.92
39 9.17
40 1.3
41 3.57
42 4.3
46.5 1.86
50 2.72
51 6.34
52 4.41
53 6
54 3
58.5 3.91
59 0.96
59.5 3.91
60 1.01
60.5 3.51
62 1.41
63 3.51
64 1.3
65 5.66
66 2.09
67 1.19
76 1.24
77 16.42
78 7.76
79 6.34
80 2.99
89 1.69
91 9.75
92 2.37
93 5.39
94 2.15
102 1.58
103 8.21
104 6.06
105 2.38
106 69.95
107 6.12
117 1.41
118 4.25
119 3.45
120 49.53
121 99.99
122 9.51

$$$$

     RDKit          2D

 10  9  0  0  0  0  0  0  0  0999 V2000
    2.5981    4.5000    0.0000 C   0  0  0  0  0  0  0  0  0  0  0  0
   -7.7942    4.5000    0.0000 C   0  0  0  0  0  0  0  0  0  0  0  0
    1.2990    5.2500    0.0000 C   0  0  0  0  0  0  0  0  0  0  0  0
   -6.4952    5.2500    0.0000 C   0  0  0  0  0  0  0  0  0  0  0  0
    0.0000    4.5000    0.0000 C   0  0  0  0  0  0  0  0  0  0  0  0
   -5.1962    4.5000    0.0000 C   0  0  0  0  0  0  0  0  0  0  0  0
   -1.2990    5.2500    0.0000 C   0  0  0  0  0  0  0  0  0  0  0  0
   -3.8971    5.2500    0.0000 C   0  0  0  0  0  0  0  0  0  0  0  0
   -3.8971    6.7500    0.0000 O   0  0  0  0  0  0  0  0  0  0  0  0
   -2.5981    4.5000    0.0000 O   0  0  0  0  0  0  0  0  0  0  0  0
  3  1  1  0
  4  2  1  0
  5  3  1  0
  4  6  2  0
  7  5  1  0
  8  6  1  0
  9  8  2  0
 10  7  1  0
 10  8  1  0
M  END
>  <NAME>  (3340) 
CROTONIC ACID BUTYL ESTER

>  <SYNONYMS>  (3340) 


>  <SPECTRUM TYPE>  (3340) 
MS1

>  <INSTRUMENT TYPE>  (3340) 
EI-B

>  <INSTRUMENT>  (3340) 
HITACHI RMU-6M

>  <ION MODE>  (3340) 
P

>  <INCHIKEY>  (3340) 
GWCTUKHUBWMAMI-GQCTYLIASA-N

>  <FORMULA>  (3340) 
C8H14O2

>  <EXACT MASS>  (3340) 
142.099379688

>  <MW>  (3340) 
142

>  <ID>  (3340) 
JP007337

>  <CONTRIBUTOR>  (3340) 
University of Tokyo Team, {Faculty of Engineering, University of Tokyo

>  <COMMENT>  (3340) 
SMILES=CCCCOC(=O)C([H])=C([H])C
InChI=InChI=1S/C8H14O2/c1-3-5-7-10-8(9)6-4-2/h4,6H,3,5,7H2,1-2H3/b6-4+
computed SMILES=O=C(OCCCC)C=CC
accession=JP007337
date=2016.01.19 (Created 2008.10.21, modified 2011.05.06)
author=YAMAMOTO M, DEP. CHEMISTRY, FAC. SCIENCE, NARA WOMEN'S UNIV.
license=CC BY-NC-SA
exact mass=142.09938
ionization energy=70 eV
ion type=[M]+*
computed spectral entropy=2.089141784963881
computed normalized entropy=0.6758696512544166
SPLASH=splash10-014r-9000000000-bccd947800b3f962393b
submitter=submitter = University of Tokyo Team (Faculty of Engineering, University of Tokyo)
MoNA Rating=3.75

>  <NUM PEAKS>  (3340) 
22

>  <MASS SPECTRAL PEAKS>  (3340) 
15 1.15
27 6.45
28 2.64
29 9.53
38 1.23
39 16.91
40 3.21
41 35.01
42 1.97
43 1.69
55 4.75
56 19.41
57 3.35
68 2.02
69 99.99
70 5.07
82 1.14
86 1.2
87 62.81
88 2.99
99 1.8
127 1.48

$$$$

     RDKit          2D

  8  7  0  0  0  0  0  0  0  0999 V2000
    1.9486    3.3750    0.0000 C   0  0  0  0  0  0  0  0  0  0  0  0
   -5.8457    3.3750    0.0000 C   0  0  0  0  0  0  0  0  0  0  0  0
    0.6495    4.1250    0.0000 C   0  0  0  0  0  0  0  0  0  0  0  0
   -4.5466    4.1250    0.0000 C   0  0  0  0  0  0  0  0  0  0  0  0
   -0.6495    3.3750    0.0000 C   0  0  0  0  0  0  0  0  0  0  0  0
   -1.9486    4.1250    0.0000 C   0  0  0  0  0  0  0  0  0  0  0  0
   -1.9486    5.6250    0.0000 O   0  0  0  0  0  0  0  0  0  0  0  0
   -3.2476    3.3750    0.0000 O   0  0  0  0  0  0  0  0  0  0  0  0
  3  1  1  0
  4  2  1  0
  3  5  2  0
  6  5  1  0
  7  6  2  0
  8  4  1  0
  8  6  1  0
M  END
>  <NAME>  (3341) 
CROTONIC ACID ETHYL ESTER

>  <SYNONYMS>  (3341) 
2-BUTENOIC ACID ETHYL ESTER

>  <SPECTRUM TYPE>  (3341) 
MS1

>  <INSTRUMENT TYPE>  (3341) 
EI-B

>  <INSTRUMENT>  (3341) 
HITACHI RMU-6M

>  <ION MODE>  (3341) 
P

>  <INCHIKEY>  (3341) 
ZFDIRQKJPRINOQ-HWKANZROSA-N

>  <FORMULA>  (3341) 
C6H10O2

>  <EXACT MASS>  (3341) 
114.06807956

>  <MW>  (3341) 
114

>  <ID>  (3341) 
JP007336

>  <CONTRIBUTOR>  (3341) 
University of Tokyo Team, {Faculty of Engineering, University of Tokyo

>  <COMMENT>  (3341) 
SMILES=CC=CC(=O)OCC
cas=10544-63-5
InChI=InChI=1S/C6H10O2/c1-3-5-6(7)8-4-2/h3,5H,4H2,1-2H3/b5-3+
computed SMILES=O=C(OCC)C=CC
accession=JP007336
date=2016.01.19 (Created 2008.10.21, modified 2011.05.06)
author=YAMAMOTO M, DEP. CHEMISTRY, FAC. SCIENCE, NARA WOMEN'S UNIV.
license=CC BY-NC-SA
exact mass=114.06808
ionization energy=70 eV
ion type=[M]+*
computed spectral entropy=2.1083279122214957
computed normalized entropy=0.6924987269261259
SPLASH=splash10-014i-9000000000-67dbd4fded74f079f238
submitter=submitter = University of Tokyo Team (Faculty of Engineering, University of Tokyo)
MoNA Rating=3.75

>  <NUM PEAKS>  (3341) 
21

>  <MASS SPECTRAL PEAKS>  (3341) 
15 2.36
26 1.6
27 6.95
28 2.12
29 11.9
38 2.13
39 18.18
40 3.53
41 30.55
42 2.77
43 1.6
45 4.02
68 4.46
69 99.99
70 5.31
71 1.3
86 5.92
87 1.85
99 26.34
100 1.41
114 3.07

$$$$

     RDKit          2D

  7  6  0  0  0  0  0  0  0  0999 V2000
    1.9486    2.6250    0.0000 C   0  0  0  0  0  0  0  0  0  0  0  0
   -4.5466    3.3750    0.0000 C   0  0  0  0  0  0  0  0  0  0  0  0
    0.6495    3.3750    0.0000 C   0  0  0  0  0  0  0  0  0  0  0  0
   -0.6495    2.6250    0.0000 C   0  0  0  0  0  0  0  0  0  0  0  0
   -1.9486    3.3750    0.0000 C   0  0  0  0  0  0  0  0  0  0  0  0
   -1.9486    4.8750    0.0000 O   0  0  0  0  0  0  0  0  0  0  0  0
   -3.2476    2.6250    0.0000 O   0  0  0  0  0  0  0  0  0  0  0  0
  3  1  1  0
  3  4  2  0
  5  4  1  0
  6  5  2  0
  7  2  1  0
  7  5  1  0
M  END
>  <NAME>  (3342) 
CROTONIC ACID METHYL ESTER

>  <SYNONYMS>  (3342) 
2-BUTENOIC ACID METHYL ESTER

>  <SPECTRUM TYPE>  (3342) 
MS1

>  <INSTRUMENT TYPE>  (3342) 
EI-B

>  <INSTRUMENT>  (3342) 
HITACHI RMU-6M

>  <ION MODE>  (3342) 
P

>  <INCHIKEY>  (3342) 
MCVVUJPXSBQTRZ-ONEGZZNKSA-N

>  <FORMULA>  (3342) 
C5H8O2

>  <EXACT MASS>  (3342) 
100.052429496

>  <MW>  (3342) 
100

>  <ID>  (3342) 
JP007335

>  <CONTRIBUTOR>  (3342) 
University of Tokyo Team, {Faculty of Engineering, University of Tokyo

>  <COMMENT>  (3342) 
SMILES=CC=CC(=O)OC
cas=18707-60-3
InChI=InChI=1S/C5H8O2/c1-3-4-5(6)7-2/h3-4H,1-2H3/b4-3+
computed SMILES=O=C(OC)C=CC
accession=JP007335
date=2016.01.19 (Created 2008.10.21, modified 2011.05.06)
author=YAMAMOTO M, DEP. CHEMISTRY, FAC. SCIENCE, NARA WOMEN'S UNIV.
license=CC BY-NC-SA
exact mass=100.05243
ionization energy=70 eV
ion type=[M]+*
computed spectral entropy=2.0300110241089713
computed normalized entropy=0.7023356142901734
SPLASH=splash10-014i-9000000000-f0481ced949eddf5b69a
submitter=submitter = University of Tokyo Team (Faculty of Engineering, University of Tokyo)
MoNA Rating=3.75

>  <NUM PEAKS>  (3342) 
18

>  <MASS SPECTRAL PEAKS>  (3342) 
15 11.65
26 1.42
27 2.41
28 1.79
29 2.43
37 2.06
38 4.47
39 29.47
40 4.61
41 48.91
42 2.39
59 4.77
68 3.16
69 99.99
70 4.5
85 18.58
100 18.98
101 1.13

$$$$

     RDKit          2D

 13 12  0  0  0  0  0  0  0  0999 V2000
   -8.4437    5.6250    0.0000 C   0  0  0  0  0  0  0  0  0  0  0  0
   -4.5466    7.8750    0.0000 C   0  0  0  0  0  0  0  0  0  0  0  0
    3.2476    4.8750    0.0000 C   0  0  0  0  0  0  0  0  0  0  0  0
   -7.1447    4.8750    0.0000 C   0  0  0  0  0  0  0  0  0  0  0  0
   -3.2476    7.1250    0.0000 C   0  0  0  0  0  0  0  0  0  0  0  0
    1.9486    5.6250    0.0000 C   0  0  0  0  0  0  0  0  0  0  0  0
   -5.8457    5.6250    0.0000 C   0  0  0  0  0  0  0  0  0  0  0  0
   -4.5466    4.8750    0.0000 C   0  0  0  0  0  0  0  0  0  0  0  0
   -1.9486    4.8750    0.0000 C   0  0  0  0  0  0  0  0  0  0  0  0
   -3.2476    5.6250    0.0000 C   0  0  0  0  0  0  0  0  0  0  0  0
    0.6495    4.8750    0.0000 C   0  0  0  0  0  0  0  0  0  0  0  0
    0.6495    3.3750    0.0000 O   0  0  0  0  0  0  0  0  0  0  0  0
   -0.6495    5.6250    0.0000 O   0  0  0  0  0  0  0  0  0  0  0  0
  4  1  1  0
  5  2  1  0
  6  3  2  0
  7  4  1  0
  8  7  1  0
 10  5  1  0
 10  8  1  0
 10  9  1  0
 11  6  1  0
 12 11  2  0
 13  9  1  0
 13 11  1  0
M  END
>  <NAME>  (3343) 
ACRYLIC ACID 2-ETHYLHEXYL ESTER

>  <SYNONYMS>  (3343) 
2-PROPENOIC ACID 2-ETHYLHEXYL ESTER

>  <SPECTRUM TYPE>  (3343) 
MS1

>  <INSTRUMENT TYPE>  (3343) 
EI-B

>  <INSTRUMENT>  (3343) 
HITACHI RMU-6M

>  <ION MODE>  (3343) 
P

>  <INCHIKEY>  (3343) 
GOXQRTZXKQZDDN-UHFFFAOYSA-N

>  <FORMULA>  (3343) 
C11H20O2

>  <EXACT MASS>  (3343) 
184.14632988

>  <MW>  (3343) 
184

>  <ID>  (3343) 
JP007334

>  <CONTRIBUTOR>  (3343) 
University of Tokyo Team, {Faculty of Engineering, University of Tokyo

>  <COMMENT>  (3343) 
SMILES=CCCCC(CC)COC(=O)C=C
cas=103-11-7
InChI=InChI=1S/C11H20O2/c1-4-7-8-10(5-2)9-13-11(12)6-3/h6,10H,3-5,7-9H2,1-2H3
computed SMILES=O=C(OCC(CC)CCCC)C=C
accession=JP007334
date=2016.01.19 (Created 2008.10.21, modified 2011.05.06)
author=YAMAMOTO M, DEP. CHEMISTRY, FAC. SCIENCE, NARA WOMEN'S UNIV.
license=CC BY-NC-SA
exact mass=184.14633
ionization energy=70 eV
ion type=[M]+*
computed spectral entropy=2.847839180227008
computed normalized entropy=0.8010015140497906
SPLASH=splash10-0ab9-9000000000-6a187cc3758586a55d69
submitter=submitter = University of Tokyo Team (Faculty of Engineering, University of Tokyo)
MoNA Rating=3.75

>  <NUM PEAKS>  (3343) 
35

>  <MASS SPECTRAL PEAKS>  (3343) 
26 1.8
27 33.7
28 3.23
29 19.96
31 1.99
39 7.08
40 1.23
41 34.5
42 13.68
43 26.61
44 1.04
53 2.47
54 2.61
55 92.77
56 25.94
57 52.7
58 4.56
67 1.8
68 2.61
69 15.05
70 99.99
71 13.44
73 10.12
81 1.14
82 4.42
83 24.85
84 13.35
85 9.36
86 6.41
87 1.9
97 2.75
98 3.42
111 2.37
112 32.74
113 2.9

$$$$

     RDKit          2D

  8  7  0  0  0  0  0  0  0  0999 V2000
    1.9486    3.3750    0.0000 C   0  0  0  0  0  0  0  0  0  0  0  0
    0.6495    4.1250    0.0000 C   0  0  0  0  0  0  0  0  0  0  0  0
   -4.5466    4.1250    0.0000 C   0  0  0  0  0  0  0  0  0  0  0  0
   -3.2476    3.3750    0.0000 C   0  0  0  0  0  0  0  0  0  0  0  0
   -0.6495    3.3750    0.0000 C   0  0  0  0  0  0  0  0  0  0  0  0
   -5.8457    3.3750    0.0000 O   0  0  0  0  0  0  0  0  0  0  0  0
   -0.6495    1.8750    0.0000 O   0  0  0  0  0  0  0  0  0  0  0  0
   -1.9486    4.1250    0.0000 O   0  0  0  0  0  0  0  0  0  0  0  0
  2  1  2  0
  4  3  1  0
  5  2  1  0
  6  3  1  0
  7  5  2  0
  8  4  1  0
  8  5  1  0
M  END
>  <NAME>  (3344) 
ACRYLIC ACID 2-HYDROXYETHYL ESTER

>  <SYNONYMS>  (3344) 
2-PROPENOIC ACID 2-HYDROXYETHYL ESTER

>  <SPECTRUM TYPE>  (3344) 
MS1

>  <INSTRUMENT TYPE>  (3344) 
EI-B

>  <INSTRUMENT>  (3344) 
HITACHI RMU-6M

>  <ION MODE>  (3344) 
P

>  <INCHIKEY>  (3344) 
OMIGHNLMNHATMP-UHFFFAOYSA-N

>  <FORMULA>  (3344) 
C5H8O3

>  <EXACT MASS>  (3344) 
116.04734411599999

>  <MW>  (3344) 
116

>  <ID>  (3344) 
JP007333

>  <CONTRIBUTOR>  (3344) 
University of Tokyo Team, {Faculty of Engineering, University of Tokyo

>  <COMMENT>  (3344) 
SMILES=OCCOC(=O)C=C
cas=818-61-1
InChI=InChI=1S/C5H8O3/c1-2-5(7)8-4-3-6/h2,6H,1,3-4H2
computed SMILES=O=C(OCCO)C=C
accession=JP007333
date=2016.01.19 (Created 2008.10.21, modified 2011.05.06)
author=YAMAMOTO M, DEP. CHEMISTRY, FAC. SCIENCE, NARA WOMEN'S UNIV.
license=CC BY-NC-SA
exact mass=116.04734
ionization energy=70 eV
ion type=[M]+*
computed spectral entropy=2.009741689186008
computed normalized entropy=0.7093506365845109
SPLASH=splash10-0a4i-9000000000-2259abdace881a939ac9
submitter=submitter = University of Tokyo Team (Faculty of Engineering, University of Tokyo)
MoNA Rating=3.75

>  <NUM PEAKS>  (3344) 
17

>  <MASS SPECTRAL PEAKS>  (3344) 
15 2.52
26 4.7
27 33.1
28 2.56
29 4.85
31 9.27
42 1.43
43 4.54
44 6.67
45 4.77
55 99.99
56 4.15
57 1.08
58 4.58
73 16.99
85 7.68
86 14.94

$$$$

     RDKit          2D

 16 15  0  0  0  0  0  0  0  0999 V2000
    4.5466    7.1250    0.0000 C   0  0  0  0  0  0  0  0  0  0  0  0
  -12.3409    7.8750    0.0000 C   0  0  0  0  0  0  0  0  0  0  0  0
    3.2476    7.8750    0.0000 C   0  0  0  0  0  0  0  0  0  0  0  0
  -11.0418    7.1250    0.0000 C   0  0  0  0  0  0  0  0  0  0  0  0
   -3.2476    7.1250    0.0000 C   0  0  0  0  0  0  0  0  0  0  0  0
   -4.5466    7.8750    0.0000 C   0  0  0  0  0  0  0  0  0  0  0  0
   -1.9486    7.8750    0.0000 C   0  0  0  0  0  0  0  0  0  0  0  0
   -5.8457    7.1250    0.0000 C   0  0  0  0  0  0  0  0  0  0  0  0
    1.9486    7.1250    0.0000 C   0  0  0  0  0  0  0  0  0  0  0  0
   -9.7428    7.8750    0.0000 C   0  0  0  0  0  0  0  0  0  0  0  0
   -0.6495    7.1250    0.0000 C   0  0  0  0  0  0  0  0  0  0  0  0
   -7.1447    7.8750    0.0000 C   0  0  0  0  0  0  0  0  0  0  0  0
   -0.6495    5.6250    0.0000 O   0  0  0  0  0  0  0  0  0  0  0  0
   -7.1447    9.3750    0.0000 O   0  0  0  0  0  0  0  0  0  0  0  0
    0.6495    7.8750    0.0000 O   0  0  0  0  0  0  0  0  0  0  0  0
   -8.4437    7.1250    0.0000 O   0  0  0  0  0  0  0  0  0  0  0  0
  3  1  2  0
  4  2  2  0
  6  5  1  0
  7  5  1  0
  8  6  1  0
  9  3  1  0
 10  4  1  0
 11  7  1  0
 12  8  1  0
 13 11  2  0
 14 12  2  0
 15  9  1  0
 15 11  1  0
 16 10  1  0
 16 12  1  0
M  END
>  <NAME>  (3345) 
ADIPIC ACID DIALLYL ESTER

>  <SYNONYMS>  (3345) 
HEXANEDIOIC ACID DI-2-PROPENYL ESTER

>  <SPECTRUM TYPE>  (3345) 
MS1

>  <INSTRUMENT TYPE>  (3345) 
EI-B

>  <INSTRUMENT>  (3345) 
HITACHI RMU-6M

>  <ION MODE>  (3345) 
P

>  <INCHIKEY>  (3345) 
FPODCVUTIPDRTE-UHFFFAOYSA-N

>  <FORMULA>  (3345) 
C12H18O4

>  <EXACT MASS>  (3345) 
226.120509056

>  <MW>  (3345) 
226

>  <ID>  (3345) 
JP007332

>  <CONTRIBUTOR>  (3345) 
University of Tokyo Team, {Faculty of Engineering, University of Tokyo

>  <COMMENT>  (3345) 
SMILES=C=CCOC(=O)CCCCC(=O)OCC=C
cas=2998-04-1
InChI=InChI=1S/C12H18O4/c1-3-9-15-11(13)7-5-6-8-12(14)16-10-4-2/h3-4H,1-2,5-10H2
computed SMILES=O=C(OCC=C)CCCCC(=O)OCC=C
ion type=[M]+*
accession=JP007332
date=2016.01.19 (Created 2008.10.21, modified 2011.05.06)
author=YAMAMOTO M, DEP. CHEMISTRY, FAC. SCIENCE, NARA WOMEN'S UNIV.
license=CC BY-NC-SA
exact mass=226.12051
ionization energy=70 eV
computed spectral entropy=3.0676334747635288
computed normalized entropy=0.7882258788394679
SPLASH=splash10-06r6-9500000000-6b1cdc739a4549b86b11
submitter=submitter = University of Tokyo Team (Faculty of Engineering, University of Tokyo)
MoNA Rating=3.75

>  <NUM PEAKS>  (3345) 
49

>  <MASS SPECTRAL PEAKS>  (3345) 
15 1.8
26 1.17
27 8.26
28 8.81
29 8.14
31 1.78
39 19.22
40 2.97
41 99.99
42 4.96
43 9.5
53 1.51
54 2.19
55 25.48
56 5.25
57 7.19
58 1.76
59 4.17
67 2.77
68 1.51
69 2.75
71 1.17
79 1.17
80 2.68
81 10.72
82 1.16
83 12.65
84 7.74
85 3.67
95 3.85
98 1.37
99 5.63
100 5.49
101 10.58
109 1.65
111 61.62
112 3.93
123 1.16
127 7
129 10.03
130 4.03
131 6.2
132 2.22
143 8.2
158 2.85
159 35.75
160 3.77
161 1.01
175 1.07

$$$$

     RDKit          2D

 26 25  0  0  0  0  0  0  0  0999 V2000
  -18.1865   11.2500    0.0000 C   0  0  0  0  0  0  0  0  0  0  0  0
    6.4952   10.5000    0.0000 C   0  0  0  0  0  0  0  0  0  0  0  0
  -14.2894   13.5000    0.0000 C   0  0  0  0  0  0  0  0  0  0  0  0
    2.5981    8.2500    0.0000 C   0  0  0  0  0  0  0  0  0  0  0  0
  -16.8875   10.5000    0.0000 C   0  0  0  0  0  0  0  0  0  0  0  0
    5.1962   11.2500    0.0000 C   0  0  0  0  0  0  0  0  0  0  0  0
  -12.9904   12.7500    0.0000 C   0  0  0  0  0  0  0  0  0  0  0  0
    1.2990    9.0000    0.0000 C   0  0  0  0  0  0  0  0  0  0  0  0
  -15.5885   11.2500    0.0000 C   0  0  0  0  0  0  0  0  0  0  0  0
    3.8971   10.5000    0.0000 C   0  0  0  0  0  0  0  0  0  0  0  0
   -6.4952   10.5000    0.0000 C   0  0  0  0  0  0  0  0  0  0  0  0
   -5.1962   11.2500    0.0000 C   0  0  0  0  0  0  0  0  0  0  0  0
  -14.2894   10.5000    0.0000 C   0  0  0  0  0  0  0  0  0  0  0  0
    2.5981   11.2500    0.0000 C   0  0  0  0  0  0  0  0  0  0  0  0
   -7.7942   11.2500    0.0000 C   0  0  0  0  0  0  0  0  0  0  0  0
   -3.8971   10.5000    0.0000 C   0  0  0  0  0  0  0  0  0  0  0  0
  -11.6913   10.5000    0.0000 C   0  0  0  0  0  0  0  0  0  0  0  0
    0.0000   11.2500    0.0000 C   0  0  0  0  0  0  0  0  0  0  0  0
  -12.9904   11.2500    0.0000 C   0  0  0  0  0  0  0  0  0  0  0  0
    1.2990   10.5000    0.0000 C   0  0  0  0  0  0  0  0  0  0  0  0
   -9.0933   10.5000    0.0000 C   0  0  0  0  0  0  0  0  0  0  0  0
   -2.5981   11.2500    0.0000 C   0  0  0  0  0  0  0  0  0  0  0  0
   -9.0933    9.0000    0.0000 O   0  0  0  0  0  0  0  0  0  0  0  0
   -2.5981   12.7500    0.0000 O   0  0  0  0  0  0  0  0  0  0  0  0
  -10.3923   11.2500    0.0000 O   0  0  0  0  0  0  0  0  0  0  0  0
   -1.2990   10.5000    0.0000 O   0  0  0  0  0  0  0  0  0  0  0  0
  5  1  1  0
  6  2  1  0
  7  3  1  0
  8  4  1  0
  9  5  1  0
 10  6  1  0
 12 11  1  0
 13  9  1  0
 14 10  1  0
 15 11  1  0
 16 12  1  0
 19  7  1  0
 19 13  1  0
 19 17  1  0
 20  8  1  0
 20 14  1  0
 20 18  1  0
 21 15  1  0
 22 16  1  0
 23 21  2  0
 24 22  2  0
 25 17  1  0
 25 21  1  0
 26 18  1  0
 26 22  1  0
M  END
>  <NAME>  (3346) 
ADIPIC ACID DI-2-ETHYLHEXYL ESTER

>  <SYNONYMS>  (3346) 


>  <SPECTRUM TYPE>  (3346) 
MS1

>  <INSTRUMENT TYPE>  (3346) 
EI-B

>  <INSTRUMENT>  (3346) 
HITACHI RMU-6M

>  <ION MODE>  (3346) 
P

>  <INCHIKEY>  (3346) 
SAOKZLXYCUGLFA-UHFFFAOYSA-N

>  <FORMULA>  (3346) 
C22H42O4

>  <EXACT MASS>  (3346) 
370.308309824

>  <MW>  (3346) 
370

>  <ID>  (3346) 
JP007331

>  <CONTRIBUTOR>  (3346) 
University of Tokyo Team, {Faculty of Engineering, University of Tokyo

>  <COMMENT>  (3346) 
SMILES=CCCCC(CC)COC(=O)CCCCC(=O)OCC(CC)CCCC
cas=103-23-1
InChI=InChI=1S/C22H42O4/c1-5-9-13-19(7-3)17-25-21(23)15-11-12-16-22(24)26-18-20(8-4)14-10-6-2/h19-20H,5-18H2,1-4H3
computed SMILES=O=C(OCC(CC)CCCC)CCCCC(=O)OCC(CC)CCCC
accession=JP007331
date=2016.01.19 (Created 2008.10.21, modified 2011.05.06)
author=YAMAMOTO M, DEP. CHEMISTRY, FAC. SCIENCE, NARA WOMEN'S UNIV.
license=CC BY-NC-SA
exact mass=370.30831
ionization energy=70 eV
ion type=[M]+*
computed spectral entropy=3.1515212573139335
computed normalized entropy=0.8015414597951724
SPLASH=splash10-06vl-9700000000-a1893b9ef5a3a647a25a
submitter=submitter = University of Tokyo Team (Faculty of Engineering, University of Tokyo)
MoNA Rating=3.75

>  <NUM PEAKS>  (3346) 
51

>  <MASS SPECTRAL PEAKS>  (3346) 
27 4.52
28 3.86
29 13.47
39 2.6
41 24.93
42 5.23
43 30.39
44 1.04
53 1.21
54 1.56
55 26.12
56 12.13
57 54.42
58 2.61
59 2.56
67 1.57
68 1.39
69 38.9
70 33.46
71 1.92
72 1.42
82 2.49
83 13.18
84 8.05
85 1.47
87 7.01
97 1.3
100 4.95
101 9.08
102 3.34
111 10.86
112 43.18
113 20.64
114 1.8
128 4.88
129 99.99
130 7.37
131 1
142 2.04
146 2.91
147 22.11
148 1.31
157 1.11
160 1.09
199 2.06
213 1.75
241 12.14
242 1.92
258 1.04
259 11.5
260 1.8

$$$$

     RDKit          2D

 18 17  0  0  0  0  0  0  0  0999 V2000
    5.1962    8.2500    0.0000 C   0  0  0  0  0  0  0  0  0  0  0  0
  -14.2894    9.0000    0.0000 C   0  0  0  0  0  0  0  0  0  0  0  0
    3.8971    9.0000    0.0000 C   0  0  0  0  0  0  0  0  0  0  0  0
  -12.9904    8.2500    0.0000 C   0  0  0  0  0  0  0  0  0  0  0  0
    2.5981    8.2500    0.0000 C   0  0  0  0  0  0  0  0  0  0  0  0
  -11.6913    9.0000    0.0000 C   0  0  0  0  0  0  0  0  0  0  0  0
   -3.8971    9.0000    0.0000 C   0  0  0  0  0  0  0  0  0  0  0  0
   -5.1962    8.2500    0.0000 C   0  0  0  0  0  0  0  0  0  0  0  0
   -2.5981    8.2500    0.0000 C   0  0  0  0  0  0  0  0  0  0  0  0
   -6.4952    9.0000    0.0000 C   0  0  0  0  0  0  0  0  0  0  0  0
    1.2990    9.0000    0.0000 C   0  0  0  0  0  0  0  0  0  0  0  0
  -10.3923    8.2500    0.0000 C   0  0  0  0  0  0  0  0  0  0  0  0
   -1.2990    9.0000    0.0000 C   0  0  0  0  0  0  0  0  0  0  0  0
   -7.7942    8.2500    0.0000 C   0  0  0  0  0  0  0  0  0  0  0  0
   -1.2990   10.5000    0.0000 O   0  0  0  0  0  0  0  0  0  0  0  0
   -7.7942    6.7500    0.0000 O   0  0  0  0  0  0  0  0  0  0  0  0
    0.0000    8.2500    0.0000 O   0  0  0  0  0  0  0  0  0  0  0  0
   -9.0933    9.0000    0.0000 O   0  0  0  0  0  0  0  0  0  0  0  0
  3  1  1  0
  4  2  1  0
  5  3  1  0
  6  4  1  0
  8  7  1  0
  9  7  1  0
 10  8  1  0
 11  5  1  0
 12  6  1  0
 13  9  1  0
 14 10  1  0
 15 13  2  0
 16 14  2  0
 17 11  1  0
 17 13  1  0
 18 12  1  0
 18 14  1  0
M  END
>  <NAME>  (3347) 
ADIPIC ACID DIBUTYL ESTER

>  <SYNONYMS>  (3347) 
HEXANEDIOIC ACID DIBUTYL ESTER

>  <SPECTRUM TYPE>  (3347) 
MS1

>  <INSTRUMENT TYPE>  (3347) 
EI-B

>  <INSTRUMENT>  (3347) 
HITACHI RMU-6M

>  <ION MODE>  (3347) 
P

>  <INCHIKEY>  (3347) 
XTJFFFGAUHQWII-UHFFFAOYSA-N

>  <FORMULA>  (3347) 
C14H26O4

>  <EXACT MASS>  (3347) 
258.183109312

>  <MW>  (3347) 
258

>  <ID>  (3347) 
JP007330

>  <CONTRIBUTOR>  (3347) 
University of Tokyo Team, {Faculty of Engineering, University of Tokyo

>  <COMMENT>  (3347) 
SMILES=CCCCOC(=O)CCCCC(=O)OCCCC
cas=105-99-7
InChI=InChI=1S/C14H26O4/c1-3-5-11-17-13(15)9-7-8-10-14(16)18-12-6-4-2/h3-12H2,1-2H3
computed SMILES=O=C(OCCCC)CCCCC(=O)OCCCC
accession=JP007330
date=2016.01.19 (Created 2008.10.21, modified 2011.05.06)
author=YAMAMOTO M, DEP. CHEMISTRY, FAC. SCIENCE, NARA WOMEN'S UNIV.
license=CC BY-NC-SA
exact mass=258.18311
ionization energy=70 eV
ion type=[M]+*
computed spectral entropy=3.2479722330988774
computed normalized entropy=0.8068791207919774
SPLASH=splash10-0570-8900000000-db43311f6bef5a74bafd
submitter=submitter = University of Tokyo Team (Faculty of Engineering, University of Tokyo)
MoNA Rating=3.75

>  <NUM PEAKS>  (3347) 
56

>  <MASS SPECTRAL PEAKS>  (3347) 
26 1.24
27 13.85
28 12.16
29 48.81
30 1.31
31 2.77
39 8.99
40 1.63
41 46.25
42 4.01
43 11.82
44 1.07
45 2.44
53 2.09
54 2.63
55 31.57
56 41.09
57 38.82
59 1.85
60 7.52
61 8.13
62 3.06
68 2.05
69 2.77
73 9.96
74 1.63
82 1.37
83 16.14
84 7.22
85 1.34
86 1.02
87 32.87
88 1.54
99 1.94
100 19.11
101 29.47
102 4.44
103 1.27
110 1.66
111 43.95
112 7.58
113 1.05
127 1
128 3.15
129 87.97
130 6.15
143 28.16
144 2.6
156 23.3
157 3.48
158 3.4
184 2.5
185 99.99
186 11.43
187 1.42
203 4.13

$$$$

     RDKit          2D

 16 15  0  0  0  0  0  0  0  0999 V2000
    3.8971    6.0000    0.0000 C   0  0  0  0  0  0  0  0  0  0  0  0
    2.5981    8.2500    0.0000 C   0  0  0  0  0  0  0  0  0  0  0  0
  -10.3923    6.7500    0.0000 C   0  0  0  0  0  0  0  0  0  0  0  0
   -9.0933    4.5000    0.0000 C   0  0  0  0  0  0  0  0  0  0  0  0
   -2.5981    6.7500    0.0000 C   0  0  0  0  0  0  0  0  0  0  0  0
   -3.8971    6.0000    0.0000 C   0  0  0  0  0  0  0  0  0  0  0  0
   -1.2990    6.0000    0.0000 C   0  0  0  0  0  0  0  0  0  0  0  0
   -5.1962    6.7500    0.0000 C   0  0  0  0  0  0  0  0  0  0  0  0
    2.5981    6.7500    0.0000 C   0  0  0  0  0  0  0  0  0  0  0  0
   -9.0933    6.0000    0.0000 C   0  0  0  0  0  0  0  0  0  0  0  0
    0.0000    6.7500    0.0000 C   0  0  0  0  0  0  0  0  0  0  0  0
   -6.4952    6.0000    0.0000 C   0  0  0  0  0  0  0  0  0  0  0  0
    0.0000    8.2500    0.0000 O   0  0  0  0  0  0  0  0  0  0  0  0
   -6.4952    4.5000    0.0000 O   0  0  0  0  0  0  0  0  0  0  0  0
    1.2990    6.0000    0.0000 O   0  0  0  0  0  0  0  0  0  0  0  0
   -7.7942    6.7500    0.0000 O   0  0  0  0  0  0  0  0  0  0  0  0
  6  5  1  0
  7  5  1  0
  8  6  1  0
  9  1  1  0
  9  2  1  0
 10  3  1  0
 10  4  1  0
 11  7  1  0
 12  8  1  0
 13 11  2  0
 14 12  2  0
 15  9  1  0
 15 11  1  0
 16 10  1  0
 16 12  1  0
M  END
>  <NAME>  (3348) 
ADIPIC ACID DIISOPROPYL ESTER

>  <SYNONYMS>  (3348) 


>  <SPECTRUM TYPE>  (3348) 
MS1

>  <INSTRUMENT TYPE>  (3348) 
EI-B

>  <INSTRUMENT>  (3348) 
HITACHI RMU-6M

>  <ION MODE>  (3348) 
P

>  <INCHIKEY>  (3348) 
ZDQWESQEGGJUCH-UHFFFAOYSA-N

>  <FORMULA>  (3348) 
C12H22O4

>  <EXACT MASS>  (3348) 
230.151809184

>  <MW>  (3348) 
230

>  <ID>  (3348) 
JP007329

>  <CONTRIBUTOR>  (3348) 
University of Tokyo Team, {Faculty of Engineering, University of Tokyo

>  <COMMENT>  (3348) 
SMILES=CC(C)OC(=O)CCCCC(=O)OC(C)C
cas=6938-94-9
InChI=InChI=1S/C12H22O4/c1-9(2)15-11(13)7-5-6-8-12(14)16-10(3)4/h9-10H,5-8H2,1-4H3
computed SMILES=O=C(OC(C)C)CCCCC(=O)OC(C)C
accession=JP007329
date=2016.01.19 (Created 2008.10.21, modified 2011.05.06)
author=YAMAMOTO M, DEP. CHEMISTRY, FAC. SCIENCE, NARA WOMEN'S UNIV.
license=CC BY-NC-SA
exact mass=230.15181
ionization energy=70 eV
ion type=[M]+*
computed spectral entropy=3.2380348644210826
computed normalized entropy=0.8194976303774042
SPLASH=splash10-004l-8900000000-1203c50a00ac4df4e6fd
submitter=submitter = University of Tokyo Team (Faculty of Engineering, University of Tokyo)
MoNA Rating=3.75

>  <NUM PEAKS>  (3348) 
52

>  <MASS SPECTRAL PEAKS>  (3348) 
15 2.33
27 15.99
28 8.43
29 6.28
31 1.97
39 7.01
40 1.67
41 27.26
42 6.73
43 61.18
44 1.92
45 4.72
53 1.14
54 1.7
55 19.75
56 5.91
57 1.97
58 1.51
59 12.97
60 11.09
61 1.79
68 1.33
69 3.89
73 14.57
74 1.7
82 1.05
83 11.64
84 5.45
87 21.13
88 1.01
99 1.23
100 25.67
101 18.29
102 18.47
103 2.15
110 1.01
111 21.63
112 3.94
128 19.66
129 99.99
130 7.14
142 9.71
143 1.46
144 3.85
146 3.57
147 2.1
170 3.66
171 40.47
172 4.26
188 3.76
189 2.06
230 2.29

$$$$

     RDKit          2D

 16 15  0  0  0  0  0  0  0  0999 V2000
    4.5466    7.1250    0.0000 C   0  0  0  0  0  0  0  0  0  0  0  0
  -12.3409    7.8750    0.0000 C   0  0  0  0  0  0  0  0  0  0  0  0
    3.2476    7.8750    0.0000 C   0  0  0  0  0  0  0  0  0  0  0  0
  -11.0418    7.1250    0.0000 C   0  0  0  0  0  0  0  0  0  0  0  0
   -3.2476    7.1250    0.0000 C   0  0  0  0  0  0  0  0  0  0  0  0
   -4.5466    7.8750    0.0000 C   0  0  0  0  0  0  0  0  0  0  0  0
   -1.9486    7.8750    0.0000 C   0  0  0  0  0  0  0  0  0  0  0  0
   -5.8457    7.1250    0.0000 C   0  0  0  0  0  0  0  0  0  0  0  0
    1.9486    7.1250    0.0000 C   0  0  0  0  0  0  0  0  0  0  0  0
   -9.7428    7.8750    0.0000 C   0  0  0  0  0  0  0  0  0  0  0  0
   -0.6495    7.1250    0.0000 C   0  0  0  0  0  0  0  0  0  0  0  0
   -7.1447    7.8750    0.0000 C   0  0  0  0  0  0  0  0  0  0  0  0
   -0.6495    5.6250    0.0000 O   0  0  0  0  0  0  0  0  0  0  0  0
   -7.1447    9.3750    0.0000 O   0  0  0  0  0  0  0  0  0  0  0  0
    0.6495    7.8750    0.0000 O   0  0  0  0  0  0  0  0  0  0  0  0
   -8.4437    7.1250    0.0000 O   0  0  0  0  0  0  0  0  0  0  0  0
  3  1  1  0
  4  2  1  0
  6  5  1  0
  7  5  1  0
  8  6  1  0
  9  3  1  0
 10  4  1  0
 11  7  1  0
 12  8  1  0
 13 11  2  0
 14 12  2  0
 15  9  1  0
 15 11  1  0
 16 10  1  0
 16 12  1  0
M  END
>  <NAME>  (3349) 
ADIPIC ACID DIPROPYL ESTER

>  <SYNONYMS>  (3349) 
HEXANEDIOIC ACID DIPROPYL ESTER

>  <SPECTRUM TYPE>  (3349) 
MS1

>  <INSTRUMENT TYPE>  (3349) 
EI-B

>  <INSTRUMENT>  (3349) 
HITACHI RMU-6M

>  <ION MODE>  (3349) 
P

>  <INCHIKEY>  (3349) 
NKOUWLLFHNBUDW-UHFFFAOYSA-N

>  <FORMULA>  (3349) 
C12H22O4

>  <EXACT MASS>  (3349) 
230.151809184

>  <MW>  (3349) 
230

>  <ID>  (3349) 
JP007328

>  <CONTRIBUTOR>  (3349) 
University of Tokyo Team, {Faculty of Engineering, University of Tokyo

>  <COMMENT>  (3349) 
SMILES=CCCOC(=O)CCCCC(=O)OCCC
cas=106-19-4
InChI=InChI=1S/C12H22O4/c1-3-9-15-11(13)7-5-6-8-12(14)16-10-4-2/h3-10H2,1-2H3
computed SMILES=O=C(OCCC)CCCCC(=O)OCCC
accession=JP007328
date=2016.01.19 (Created 2008.10.21, modified 2011.05.06)
author=YAMAMOTO M, DEP. CHEMISTRY, FAC. SCIENCE, NARA WOMEN'S UNIV.
license=CC BY-NC-SA
exact mass=230.15181
ionization energy=70 eV
ion type=[M]+*
computed spectral entropy=3.2413728519456497
computed normalized entropy=0.8164066830656977
SPLASH=splash10-0096-8900000000-97b584b8a334c89cd55d
submitter=submitter = University of Tokyo Team (Faculty of Engineering, University of Tokyo)
MoNA Rating=3.75

>  <NUM PEAKS>  (3349) 
53

>  <MASS SPECTRAL PEAKS>  (3349) 
15 1.19
26 1.23
27 24.2
28 11.37
29 11.2
31 4.1
39 7.89
40 1.98
41 33.07
42 11.59
43 48.49
44 1.67
45 2.82
53 1.5
54 2.56
55 26.23
56 14.99
57 3.35
58 1.54
59 9.17
60 12.17
61 13.97
68 1.94
69 3.17
73 10.32
74 1.72
82 1.41
83 16.75
84 6.08
85 1.14
87 27.16
88 1.41
99 1.72
100 16.85
101 25.62
102 2.64
103 1.23
110 2.16
111 50.57
112 6.7
115 2.73
128 2.2
129 69.62
130 5.02
142 23.68
143 3.61
144 2.38
170 4.32
171 99.99
172 10.71
173 1.28
189 3.04
230 2.07

$$$$

     RDKit          2D

 14 13  0  0  0  0  0  0  0  0999 V2000
    3.8971    6.0000    0.0000 C   0  0  0  0  0  0  0  0  0  0  0  0
  -10.3923    6.7500    0.0000 C   0  0  0  0  0  0  0  0  0  0  0  0
    2.5981    6.7500    0.0000 C   0  0  0  0  0  0  0  0  0  0  0  0
   -9.0933    6.0000    0.0000 C   0  0  0  0  0  0  0  0  0  0  0  0
   -2.5981    6.7500    0.0000 C   0  0  0  0  0  0  0  0  0  0  0  0
   -3.8971    6.0000    0.0000 C   0  0  0  0  0  0  0  0  0  0  0  0
   -1.2990    6.0000    0.0000 C   0  0  0  0  0  0  0  0  0  0  0  0
   -5.1962    6.7500    0.0000 C   0  0  0  0  0  0  0  0  0  0  0  0
    0.0000    6.7500    0.0000 C   0  0  0  0  0  0  0  0  0  0  0  0
   -6.4952    6.0000    0.0000 C   0  0  0  0  0  0  0  0  0  0  0  0
    0.0000    8.2500    0.0000 O   0  0  0  0  0  0  0  0  0  0  0  0
   -6.4952    4.5000    0.0000 O   0  0  0  0  0  0  0  0  0  0  0  0
    1.2990    6.0000    0.0000 O   0  0  0  0  0  0  0  0  0  0  0  0
   -7.7942    6.7500    0.0000 O   0  0  0  0  0  0  0  0  0  0  0  0
  3  1  1  0
  4  2  1  0
  6  5  1  0
  7  5  1  0
  8  6  1  0
  9  7  1  0
 10  8  1  0
 11  9  2  0
 12 10  2  0
 13  3  1  0
 13  9  1  0
 14  4  1  0
 14 10  1  0
M  END
>  <NAME>  (3350) 
ADIPIC ACID DIETHYL ESTER

>  <SYNONYMS>  (3350) 
HEXANEDIOIC ACID DIETHYL ESTER

>  <SPECTRUM TYPE>  (3350) 
MS1

>  <INSTRUMENT TYPE>  (3350) 
EI-B

>  <INSTRUMENT>  (3350) 
HITACHI RMU-6M

>  <ION MODE>  (3350) 
P

>  <INCHIKEY>  (3350) 
VIZORQUEIQEFRT-UHFFFAOYSA-N

>  <FORMULA>  (3350) 
C10H18O4

>  <EXACT MASS>  (3350) 
202.120509056

>  <MW>  (3350) 
202

>  <ID>  (3350) 
JP007327

>  <CONTRIBUTOR>  (3350) 
University of Tokyo Team, {Faculty of Engineering, University of Tokyo

>  <COMMENT>  (3350) 
SMILES=CCOC(=O)CCCCC(=O)OCC
cas=141-28-6
InChI=InChI=1S/C10H18O4/c1-3-13-9(11)7-5-6-8-10(12)14-4-2/h3-8H2,1-2H3
computed SMILES=O=C(OCC)CCCCC(=O)OCC
accession=JP007327
date=2016.01.19 (Created 2008.10.21, modified 2011.05.06)
author=YAMAMOTO M, DEP. CHEMISTRY, FAC. SCIENCE, NARA WOMEN'S UNIV.
license=CC BY-NC-SA
exact mass=202.12051
ionization energy=70 eV
ion type=[M]+*
computed spectral entropy=3.340589150967355
computed normalized entropy=0.8298875247735841
SPLASH=splash10-06vi-9700000000-7a65b1450b473fe4b8b7
submitter=submitter = University of Tokyo Team (Faculty of Engineering, University of Tokyo)
MoNA Rating=3.75

>  <NUM PEAKS>  (3350) 
56

>  <MASS SPECTRAL PEAKS>  (3350) 
15 3.34
26 3.13
27 32.16
28 21.74
29 93.57
30 2.58
31 5.18
39 8.45
40 1.57
41 23.37
42 9.4
43 26.71
44 1.5
45 16.42
53 3.07
54 5.31
55 54.45
56 16.49
57 5.86
58 2.11
59 11.86
60 19.49
61 13.49
68 3.88
69 6.47
70 7.5
71 1.5
73 21.06
74 3.88
82 2.86
83 25.21
84 7.5
85 1.9
86 1.57
87 12.6
88 23.03
89 1.5
99 4.63
100 6.13
101 36.59
102 3.68
110 4.63
111 99.16
112 9.67
113 1.27
114 2.38
115 62.08
116 4.5
127 1.5
128 56.83
129 17.31
130 4.09
156 13.56
157 99.99
158 9.13
159 1.22

$$$$

     RDKit          2D

 12 11  0  0  0  0  0  0  0  0999 V2000
   -8.4437    5.6250    0.0000 C   0  0  0  0  0  0  0  0  0  0  0  0
    3.2476    4.8750    0.0000 C   0  0  0  0  0  0  0  0  0  0  0  0
   -3.2476    5.6250    0.0000 C   0  0  0  0  0  0  0  0  0  0  0  0
   -1.9486    4.8750    0.0000 C   0  0  0  0  0  0  0  0  0  0  0  0
   -4.5466    4.8750    0.0000 C   0  0  0  0  0  0  0  0  0  0  0  0
   -0.6495    5.6250    0.0000 C   0  0  0  0  0  0  0  0  0  0  0  0
   -5.8457    5.6250    0.0000 C   0  0  0  0  0  0  0  0  0  0  0  0
    0.6495    4.8750    0.0000 C   0  0  0  0  0  0  0  0  0  0  0  0
   -5.8457    7.1250    0.0000 O   0  0  0  0  0  0  0  0  0  0  0  0
    0.6495    3.3750    0.0000 O   0  0  0  0  0  0  0  0  0  0  0  0
   -7.1447    4.8750    0.0000 O   0  0  0  0  0  0  0  0  0  0  0  0
    1.9486    5.6250    0.0000 O   0  0  0  0  0  0  0  0  0  0  0  0
  4  3  1  0
  5  3  1  0
  6  4  1  0
  7  5  1  0
  8  6  1  0
  9  7  2  0
 10  8  2  0
 11  1  1  0
 11  7  1  0
 12  2  1  0
 12  8  1  0
M  END
>  <NAME>  (3351) 
ADIPIC ACID DIMETHYL ESTER

>  <SYNONYMS>  (3351) 
HEXANEDIOIC ACID DIMETHYL ESTER

>  <SPECTRUM TYPE>  (3351) 
MS1

>  <INSTRUMENT TYPE>  (3351) 
EI-B

>  <INSTRUMENT>  (3351) 
HITACHI RMU-6M

>  <ION MODE>  (3351) 
P

>  <INCHIKEY>  (3351) 
UDSFAEKRVUSQDD-UHFFFAOYSA-N

>  <FORMULA>  (3351) 
C8H14O4

>  <EXACT MASS>  (3351) 
174.089208928

>  <MW>  (3351) 
174

>  <ID>  (3351) 
JP007326

>  <CONTRIBUTOR>  (3351) 
University of Tokyo Team, {Faculty of Engineering, University of Tokyo

>  <COMMENT>  (3351) 
SMILES=COC(=O)CCCCC(=O)OC
cas=627-93-0
InChI=InChI=1S/C8H14O4/c1-11-7(9)5-3-4-6-8(10)12-2/h3-6H2,1-2H3
computed SMILES=O=C(OC)CCCCC(=O)OC
accession=JP007326
date=2016.01.19 (Created 2008.10.21, modified 2011.05.06)
author=YAMAMOTO M, DEP. CHEMISTRY, FAC. SCIENCE, NARA WOMEN'S UNIV.
license=CC BY-NC-SA
exact mass=174.08921
ionization energy=70 eV
ion type=[M]+*
computed spectral entropy=3.3701995520851864
computed normalized entropy=0.8300078447922002
SPLASH=splash10-0ntc-9500000000-f9e3777f40aee78bcb58
submitter=submitter = University of Tokyo Team (Faculty of Engineering, University of Tokyo)
MoNA Rating=3.75

>  <NUM PEAKS>  (3351) 
58

>  <MASS SPECTRAL PEAKS>  (3351) 
14 1.45
15 74.49
26 4.11
27 30.78
28 25.31
29 25.58
30 1.57
31 7.62
32 1.73
33 1.29
38 1.05
39 19.93
40 3.34
41 41.22
42 17.16
43 52.74
44 3.46
45 9.11
51 1.6
53 6.36
54 13.91
55 83.51
56 13.02
57 6.69
58 3.34
59 84.92
60 3.22
68 6.16
69 13.12
70 1.05
71 6.81
72 11.8
73 44.52
74 66.77
75 2.9
81 2.09
82 11.94
83 32.19
84 4.15
85 1.09
86 1.37
87 20.62
88 5.68
97 5.43
99 2.98
100 4.67
101 99.99
102 5.8
110 4.8
111 78.68
112 5.8
113 2.54
114 91.89
115 25.23
116 2.05
142 26.23
143 82.12
144 6.85

$$$$

     RDKit          2D

  7  7  0  0  0  0  0  0  0  0999 V2000
   -1.1700   -1.2200    0.0000 C   0  0  0  0  0  0  0  0  0  0  0  0
    0.3300   -1.2200    0.0000 C   0  0  0  0  0  0  0  0  0  0  0  0
   -1.6300    0.2000    0.0000 C   0  0  0  0  0  0  0  0  0  0  0  0
    2.2271    0.6621    0.0000 C   0  0  0  0  0  0  0  0  0  0  0  0
    0.8000    0.2000    0.0000 C   0  0  0  0  0  0  0  0  0  0  0  0
    3.3407   -0.3428    0.0000 N   0  0  0  0  0  0  0  0  0  0  0  0
   -0.4200    1.0800    0.0000 O   0  0  0  0  0  0  0  0  0  0  0  0
  2  1  1  0
  3  1  2  0
  5  2  2  0
  5  4  1  0
  6  4  1  0
  7  3  1  0
  7  5  1  0
M  END
>  <NAME>  (3352) 
FURFURYLAMINE

>  <SYNONYMS>  (3352) 
2-FRANMETHANAMINE

>  <SPECTRUM TYPE>  (3352) 
MS1

>  <INSTRUMENT TYPE>  (3352) 
EI-B

>  <INSTRUMENT>  (3352) 
HITACHI RMU-6M

>  <ION MODE>  (3352) 
P

>  <INCHIKEY>  (3352) 
DDRPCXLAQZKBJP-UHFFFAOYSA-N

>  <FORMULA>  (3352) 
C5H7NO

>  <EXACT MASS>  (3352) 
97.052763844

>  <MW>  (3352) 
97

>  <ID>  (3352) 
JP007325

>  <CONTRIBUTOR>  (3352) 
University of Tokyo Team, {Faculty of Engineering, University of Tokyo

>  <COMMENT>  (3352) 
SMILES=NCc(c1)occ1
cas=617-89-0
InChI=InChI=1S/C5H7NO/c6-4-5-2-1-3-7-5/h1-3H,4,6H2
computed SMILES=O1C=CC=C1CN
accession=JP007325
date=2016.01.19 (Created 2008.10.21, modified 2011.05.06)
author=YAMAMOTO M, DEP. CHEMISTRY, FAC. SCIENCE, NARA WOMEN'S UNIV.
license=CC BY-NC-SA
exact mass=97.05276
ionization energy=70 eV
ion type=[M]+*
computed spectral entropy=3.076195120865121
computed normalized entropy=0.823024888507388
SPLASH=splash10-0002-9000000000-24c7c2582a5ccd6e549e
submitter=submitter = University of Tokyo Team (Faculty of Engineering, University of Tokyo)
MoNA Rating=3.75

>  <NUM PEAKS>  (3352) 
42

>  <MASS SPECTRAL PEAKS>  (3352) 
14 1.48
15 4.1
26 3.54
27 15.59
28 49.95
29 6.67
30 34.41
33.5 1.07
34.5 3.32
37 6.93
38 13
39 34.13
40 7.12
41 41.14
42 10.99
43 36.19
44 1.19
48 1.9
49 1.61
50 6.18
51 10.46
52 9.6
53 38.33
54 9.55
55 1.22
56 1.42
65 1.74
66 2.22
67 5.69
68 26.82
69 70.24
70 3.67
78 7.16
79 1.49
80 23.19
81 35.74
82 1.98
94 3.11
95 1.28
96 56.33
97 99.99
98 6.28

$$$$

     RDKit          2D

  7  7  0  0  0  0  0  0  0  0999 V2000
   -1.1700   -1.2200    0.0000 C   0  0  0  0  0  0  0  0  0  0  0  0
    0.3300   -1.2200    0.0000 C   0  0  0  0  0  0  0  0  0  0  0  0
   -1.6300    0.2000    0.0000 C   0  0  0  0  0  0  0  0  0  0  0  0
    2.2271    0.6621    0.0000 C   0  0  0  0  0  0  0  0  0  0  0  0
    0.8000    0.2000    0.0000 C   0  0  0  0  0  0  0  0  0  0  0  0
    3.3407   -0.3428    0.0000 O   0  0  0  0  0  0  0  0  0  0  0  0
   -0.4200    1.0800    0.0000 O   0  0  0  0  0  0  0  0  0  0  0  0
  2  1  1  0
  3  1  2  0
  5  2  2  0
  5  4  1  0
  6  4  2  0
  7  3  1  0
  7  5  1  0
M  END
>  <NAME>  (3353) 
FURFURAL

>  <SYNONYMS>  (3353) 
2-FURANCARBOXALDEHYDE

>  <SPECTRUM TYPE>  (3353) 
MS1

>  <INSTRUMENT TYPE>  (3353) 
EI-B

>  <INSTRUMENT>  (3353) 
HITACHI RMU-6M

>  <ION MODE>  (3353) 
P

>  <INCHIKEY>  (3353) 
HYBBIBNJHNGZAN-UHFFFAOYSA-N

>  <FORMULA>  (3353) 
C5H4O2

>  <EXACT MASS>  (3353) 
96.021129368

>  <MW>  (3353) 
96

>  <ID>  (3353) 
JP007324

>  <CONTRIBUTOR>  (3353) 
University of Tokyo Team, {Faculty of Engineering, University of Tokyo

>  <COMMENT>  (3353) 
SMILES=O=Cc(c1)occ1
cas=98-01-1
InChI=InChI=1S/C5H4O2/c6-4-5-2-1-3-7-5/h1-4H
computed SMILES=O=CC=1OC=CC1
accession=JP007324
date=2016.01.19 (Created 2008.10.21, modified 2011.05.06)
author=YAMAMOTO M, DEP. CHEMISTRY, FAC. SCIENCE, NARA WOMEN'S UNIV.
license=CC BY-NC-SA
exact mass=96.02113
ionization energy=70 eV
ion type=[M]+*
computed spectral entropy=2.0635689674008075
computed normalized entropy=0.6675964495922104
SPLASH=splash10-0002-9000000000-34f068d9c1909d5f383c
submitter=submitter = University of Tokyo Team (Faculty of Engineering, University of Tokyo)
MoNA Rating=3.75

>  <NUM PEAKS>  (3353) 
22

>  <MASS SPECTRAL PEAKS>  (3353) 
14 1.44
25 1.16
26 2.24
28 5.79
29 17.24
36 1.6
37 10.96
38 17.95
39 64.48
40 6.53
41 1.65
42 5.29
49 1.71
50 2.63
51 2.7
53 1.74
66 1.25
67 5.55
68 1.35
95 90.41
96 99.99
97 6.24

$$$$

     RDKit          2D

  7  7  0  0  0  0  0  0  0  0999 V2000
   -1.1700   -1.2200    0.0000 C   0  0  0  0  0  0  0  0  0  0  0  0
    0.3300   -1.2200    0.0000 C   0  0  0  0  0  0  0  0  0  0  0  0
   -1.6300    0.2000    0.0000 C   0  0  0  0  0  0  0  0  0  0  0  0
    2.2271    0.6621    0.0000 C   0  0  0  0  0  0  0  0  0  0  0  0
    0.8000    0.2000    0.0000 C   0  0  0  0  0  0  0  0  0  0  0  0
    3.3407   -0.3428    0.0000 O   0  0  0  0  0  0  0  0  0  0  0  0
   -0.4200    1.0800    0.0000 O   0  0  0  0  0  0  0  0  0  0  0  0
  2  1  1  0
  3  1  2  0
  5  2  2  0
  5  4  1  0
  6  4  1  0
  7  3  1  0
  7  5  1  0
M  END
>  <NAME>  (3354) 
FURFURYL ALCOHOL

>  <SYNONYMS>  (3354) 
2-FURANMETHANOL

>  <SPECTRUM TYPE>  (3354) 
MS1

>  <INSTRUMENT TYPE>  (3354) 
EI-B

>  <INSTRUMENT>  (3354) 
HITACHI RMU-6M

>  <ION MODE>  (3354) 
P

>  <INCHIKEY>  (3354) 
XPFVYQJUAUNWIW-UHFFFAOYSA-N

>  <FORMULA>  (3354) 
C5H6O2

>  <EXACT MASS>  (3354) 
98.036779432

>  <MW>  (3354) 
98

>  <ID>  (3354) 
JP007323

>  <CONTRIBUTOR>  (3354) 
University of Tokyo Team, {Faculty of Engineering, University of Tokyo

>  <COMMENT>  (3354) 
SMILES=OCc(c1)occ1
cas=98-00-0
InChI=InChI=1S/C5H6O2/c6-4-5-2-1-3-7-5/h1-3,6H,4H2
computed SMILES=OCC=1OC=CC1
accession=JP007323
date=2016.01.19 (Created 2008.10.21, modified 2011.05.06)
author=YAMAMOTO M, DEP. CHEMISTRY, FAC. SCIENCE, NARA WOMEN'S UNIV.
license=CC BY-NC-SA
exact mass=98.03678
ionization energy=70 eV
ion type=[M]+*
computed spectral entropy=3.0759847098425555
computed normalized entropy=0.812851629387714
SPLASH=splash10-0005-9000000000-2210e7bfe012e42016ac
submitter=submitter = University of Tokyo Team (Faculty of Engineering, University of Tokyo)
MoNA Rating=3.75

>  <NUM PEAKS>  (3354) 
44

>  <MASS SPECTRAL PEAKS>  (3354) 
14 2.56
15 2.86
25 1.36
26 6.79
27 24.19
28 3.8
29 23.71
30 1.91
31 14.3
35 1.61
36 1.06
37 9.51
38 16.77
39 55.34
40 7.13
41 70.04
42 39.09
43 10.44
44 9
48.5 2.88
49 2.71
50 10.21
51 14.67
52 11.78
53 45.69
54 2.18
55 13.52
56 1.43
57 1.34
66 1.42
67 1.27
68 2.96
69 31.99
70 34.82
71 2.07
79 1.47
80 1.7
81 56.28
82 2.98
95 6.45
96 1.5
97 58.11
98 99.99
99 5.76

$$$$

     RDKit          2D

  5  5  0  0  0  0  0  0  0  0999 V2000
   -0.7500    1.0300    0.0000 C   0  0  0  0  0  0  0  0  0  0  0  0
    0.7500    1.0300    0.0000 C   0  0  0  0  0  0  0  0  0  0  0  0
   -1.2100   -0.3900    0.0000 C   0  0  0  0  0  0  0  0  0  0  0  0
    1.2100   -0.3900    0.0000 C   0  0  0  0  0  0  0  0  0  0  0  0
   -0.0000   -1.2800    0.0000 O   0  0  0  0  0  0  0  0  0  0  0  0
  2  1  1  0
  3  1  2  0
  4  2  2  0
  5  3  1  0
  5  4  1  0
M  END
>  <NAME>  (3355) 
FURAN

>  <SYNONYMS>  (3355) 


>  <SPECTRUM TYPE>  (3355) 
MS1

>  <INSTRUMENT TYPE>  (3355) 
EI-B

>  <INSTRUMENT>  (3355) 
HITACHI RMU-6M

>  <ION MODE>  (3355) 
P

>  <INCHIKEY>  (3355) 
YLQBMQCUIZJEEH-UHFFFAOYSA-N

>  <FORMULA>  (3355) 
C4H4O

>  <EXACT MASS>  (3355) 
68.026214748

>  <MW>  (3355) 
68

>  <ID>  (3355) 
JP007322

>  <CONTRIBUTOR>  (3355) 
University of Tokyo Team, {Faculty of Engineering, University of Tokyo

>  <COMMENT>  (3355) 
SMILES=c(c1)coc1
cas=110-00-9
InChI=InChI=1S/C4H4O/c1-2-4-5-3-1/h1-4H
computed SMILES=O1C=CC=C1
accession=JP007322
date=2016.01.19 (Created 2008.10.21, modified 2011.05.06)
author=YAMAMOTO M, DEP. CHEMISTRY, FAC. SCIENCE, NARA WOMEN'S UNIV.
license=CC BY-NC-SA
exact mass=68.02621
ionization energy=70 eV
ion type=[M]+*
computed spectral entropy=1.7296208712092809
computed normalized entropy=0.6386960147582581
SPLASH=splash10-00kr-9000000000-d007e0256578ac930b22
submitter=submitter = University of Tokyo Team (Faculty of Engineering, University of Tokyo)
MoNA Rating=3.75

>  <NUM PEAKS>  (3355) 
15

>  <MASS SPECTRAL PEAKS>  (3355) 
14 1.89
25 1.14
26 2.18
28 2.5
29 11.81
34 2.66
36 1.56
37 9.12
38 15.03
39 99.99
40 14.89
41 1.04
42 8.38
68 86.94
69 3.9

$$$$

     RDKit          2D

  5  4  0  0  0  0  0  0  0  0999 V2000
   -1.2990    2.2500    0.0000 C   0  0  0  0  0  0  0  0  0  0  0  0
   -2.5981    1.5000    0.0000 C   0  0  0  0  0  0  0  0  0  0  0  0
    0.0000    1.5000    0.0000 C   0  0  0  0  0  0  0  0  0  0  0  0
   -3.8971    2.2500    0.0000 N   0  0  0  0  0  0  0  0  0  0  0  0
    1.2990    2.2500    0.0000 N   0  0  0  0  0  0  0  0  0  0  0  0
  2  1  1  0
  3  1  1  0
  4  2  1  0
  5  3  1  0
M  END
>  <NAME>  (3356) 
1,3-DIAMINOPROPANE

>  <SYNONYMS>  (3356) 


>  <SPECTRUM TYPE>  (3356) 
MS1

>  <INSTRUMENT TYPE>  (3356) 
EI-B

>  <INSTRUMENT>  (3356) 
HITACHI RMU-6M

>  <ION MODE>  (3356) 
P

>  <INCHIKEY>  (3356) 
XFNJVJPLKCPIBV-UHFFFAOYSA-N

>  <FORMULA>  (3356) 
C3H10N2

>  <EXACT MASS>  (3356) 
74.08439831999999

>  <MW>  (3356) 
74

>  <ID>  (3356) 
JP007321

>  <CONTRIBUTOR>  (3356) 
University of Tokyo Team, {Faculty of Engineering, University of Tokyo

>  <COMMENT>  (3356) 
SMILES=NCCCN
cas=109-76-2
InChI=InChI=1S/C3H10N2/c4-2-1-3-5/h1-5H2
computed SMILES=NCCCN
accession=JP007321
date=2016.01.19 (Created 2008.10.21, modified 2011.05.06)
author=YAMAMOTO M, DEP. CHEMISTRY, FAC. SCIENCE, NARA WOMEN'S UNIV.
license=CC BY-NC-SA
exact mass=74.0844
ionization energy=70 eV
ion type=[M]+*
computed spectral entropy=2.122711994773305
computed normalized entropy=0.7085786715696802
SPLASH=splash10-053r-9000000000-95ecfa758d5699a04f9f
submitter=submitter = University of Tokyo Team (Faculty of Engineering, University of Tokyo)
MoNA Rating=3.75

>  <NUM PEAKS>  (3356) 
20

>  <MASS SPECTRAL PEAKS>  (3356) 
15 3.11
17 4.39
18 31.61
26 1.04
27 3.47
28 16.11
29 3.87
30 99.99
31 2.87
39 1.1
40 1.24
41 2.65
42 7.1
43 3.75
44 16
45 10.41
54 1.11
56 24.14
57 71.49
58 2.99

$$$$

     RDKit          2D

  5  4  0  0  0  0  0  0  0  0999 V2000
    0.0000    0.0000    0.0000 C   0  0  0  0  0  0  0  0  0  0  0  0
   -1.2990    2.2500    0.0000 C   0  0  0  0  0  0  0  0  0  0  0  0
    0.0000    1.5000    0.0000 C   0  0  0  0  0  0  0  0  0  0  0  0
   -1.2990    3.7500    0.0000 N   0  0  0  0  0  0  0  0  0  0  0  0
    1.2990    2.2500    0.0000 N   0  0  0  0  0  0  0  0  0  0  0  0
  3  1  1  0
  3  2  1  0
  4  2  1  0
  5  3  1  0
M  END
>  <NAME>  (3357) 
1,2-DIAMINOPROPANE

>  <SYNONYMS>  (3357) 


>  <SPECTRUM TYPE>  (3357) 
MS1

>  <INSTRUMENT TYPE>  (3357) 
EI-B

>  <INSTRUMENT>  (3357) 
HITACHI RMU-6M

>  <ION MODE>  (3357) 
P

>  <INCHIKEY>  (3357) 
AOHJOMMDDJHIJH-UHFFFAOYSA-N

>  <FORMULA>  (3357) 
C3H10N2

>  <EXACT MASS>  (3357) 
74.08439831999999

>  <MW>  (3357) 
74

>  <ID>  (3357) 
JP007320

>  <CONTRIBUTOR>  (3357) 
University of Tokyo Team, {Faculty of Engineering, University of Tokyo

>  <COMMENT>  (3357) 
SMILES=NCC(C)N
cas=78-90-0
InChI=InChI=1S/C3H10N2/c1-3(5)2-4/h3H,2,4-5H2,1H3
computed SMILES=NCC(N)C
accession=JP007320
date=2016.01.19 (Created 2008.10.21, modified 2011.05.06)
author=YAMAMOTO M, DEP. CHEMISTRY, FAC. SCIENCE, NARA WOMEN'S UNIV.
license=CC BY-NC-SA
exact mass=74.0844
ionization energy=70 eV
ion type=[M]+*
computed spectral entropy=1.5716249466434316
computed normalized entropy=0.5803529587463928
SPLASH=splash10-0006-9000000000-c21c110ad3799b0d0f50
submitter=submitter = University of Tokyo Team (Faculty of Engineering, University of Tokyo)
MoNA Rating=3.75

>  <NUM PEAKS>  (3357) 
15

>  <MASS SPECTRAL PEAKS>  (3357) 
15 2.29
18 16.11
27 2.09
28 7.85
29 1.56
30 23.05
41 2.22
42 6.2
43 2.85
44 99.99
45 2.82
56 2.82
57 1.19
58 1.05
74 1

$$$$

     RDKit          2D

  4  3  0  0  0  0  0  0  0  0999 V2000
   -2.5981    2.2500    0.0000 C   0  0  0  0  0  0  0  0  0  0  0  0
   -1.2990    1.5000    0.0000 C   0  0  0  0  0  0  0  0  0  0  0  0
    0.0000    2.2500    0.0000 C   0  0  0  0  0  0  0  0  0  0  0  0
    1.2990    1.5000    0.0000 N   0  0  0  0  0  0  0  0  0  0  0  0
  2  1  2  0
  3  2  1  0
  4  3  1  0
M  END
>  <NAME>  (3358) 
ALLYLAMINE

>  <SYNONYMS>  (3358) 
2-PROPEN-1-AMINE

>  <SPECTRUM TYPE>  (3358) 
MS1

>  <INSTRUMENT TYPE>  (3358) 
EI-B

>  <INSTRUMENT>  (3358) 
HITACHI RMU-6M

>  <ION MODE>  (3358) 
P

>  <INCHIKEY>  (3358) 
VVJKKWFAADXIJK-UHFFFAOYSA-N

>  <FORMULA>  (3358) 
C3H7N

>  <EXACT MASS>  (3358) 
57.057849223999995

>  <MW>  (3358) 
57

>  <ID>  (3358) 
JP007319

>  <CONTRIBUTOR>  (3358) 
University of Tokyo Team, {Faculty of Engineering, University of Tokyo

>  <COMMENT>  (3358) 
SMILES=C=CCN
cas=107-11-9
InChI=InChI=1S/C3H7N/c1-2-3-4/h2H,1,3-4H2
computed SMILES=C=CCN
accession=JP007319
date=2016.01.19 (Created 2008.10.21, modified 2011.05.06)
author=YAMAMOTO M, DEP. CHEMISTRY, FAC. SCIENCE, NARA WOMEN'S UNIV.
license=CC BY-NC-SA
exact mass=57.05785
ionization energy=70 eV
ion type=[M]+*
computed spectral entropy=2.243446254502438
computed normalized entropy=0.6969657658646392
SPLASH=splash10-0a59-9000000000-5ad0364d3fb76cf86eef
submitter=submitter = University of Tokyo Team (Faculty of Engineering, University of Tokyo)
MoNA Rating=3.75

>  <NUM PEAKS>  (3358) 
25

>  <MASS SPECTRAL PEAKS>  (3358) 
15 1.8
18 2.81
25 1.28
26 6.8
26.5 1.97
27 9.47
27.5 1.86
28 53.77
29 11.63
30 81.46
31 1.51
37 2.38
38 3.89
39 16.91
40 2.03
41 6.27
42 2.67
44 1.74
51 2.09
52 4.42
54 6.85
55 2.21
56 99.99
57 47.09
58 2.03

$$$$

     RDKit          2D

 13 14  0  0  0  0  0  0  0  0999 V2000
    2.5986    1.0700    0.0000 C   0  0  0  0  0  0  0  0  0  0  0  0
   -5.1957    1.0700    0.0000 C   0  0  0  0  0  0  0  0  0  0  0  0
    1.2990    0.3192    0.0000 C   0  0  0  0  0  0  0  0  0  0  0  0
    2.5990    2.5708    0.0000 C   0  0  0  0  0  0  0  0  0  0  0  0
   -5.1962    2.5708    0.0000 C   0  0  0  0  0  0  0  0  0  0  0  0
   -3.8962    0.3192    0.0000 C   0  0  0  0  0  0  0  0  0  0  0  0
    0.0000    1.0692    0.0000 C   0  0  0  0  0  0  0  0  0  0  0  0
    1.3000    3.3208    0.0000 C   0  0  0  0  0  0  0  0  0  0  0  0
   -3.8971    3.3208    0.0000 C   0  0  0  0  0  0  0  0  0  0  0  0
   -2.5971    1.0692    0.0000 C   0  0  0  0  0  0  0  0  0  0  0  0
    0.0005    2.5700    0.0000 C   0  0  0  0  0  0  0  0  0  0  0  0
   -2.5976    2.5700    0.0000 C   0  0  0  0  0  0  0  0  0  0  0  0
   -1.2986    3.3200    0.0000 N   0  0  0  0  0  0  0  0  0  0  0  0
  3  1  1  0
  4  1  1  0
  5  2  1  0
  6  2  1  0
  7  3  1  0
  8  4  1  0
  9  5  1  0
 10  6  1  0
 11  7  1  0
 11  8  1  0
 12  9  1  0
 12 10  1  0
 13 11  1  0
 13 12  1  0
M  END
>  <NAME>  (3359) 
DICYCLOHEXYLAMINE

>  <SYNONYMS>  (3359) 


>  <SPECTRUM TYPE>  (3359) 
MS1

>  <INSTRUMENT TYPE>  (3359) 
EI-B

>  <INSTRUMENT>  (3359) 
HITACHI RMU-6M

>  <ION MODE>  (3359) 
P

>  <INCHIKEY>  (3359) 
XBPCUCUWBYBCDP-UHFFFAOYSA-N

>  <FORMULA>  (3359) 
C12H23N

>  <EXACT MASS>  (3359) 
181.183049736

>  <MW>  (3359) 
181

>  <ID>  (3359) 
JP007318

>  <CONTRIBUTOR>  (3359) 
University of Tokyo Team, {Faculty of Engineering, University of Tokyo

>  <COMMENT>  (3359) 
SMILES=C(C2)CCC(C2)NC(C1)CCCC1
cas=101-83-7
InChI=InChI=1S/C12H23N/c1-3-7-11(8-4-1)13-12-9-5-2-6-10-12/h11-13H,1-10H2
computed SMILES=N(C1CCCCC1)C2CCCCC2
accession=JP007318
date=2016.01.19 (Created 2008.10.21, modified 2011.05.06)
author=YAMAMOTO M, DEP. CHEMISTRY, FAC. SCIENCE, NARA WOMEN'S UNIV.
license=CC BY-NC-SA
exact mass=181.18305
ionization energy=70 eV
ion type=[M]+*
computed spectral entropy=2.655502657225307
computed normalized entropy=0.7469037099318085
SPLASH=splash10-000i-9800000000-bf6991a5f5052b3dd840
submitter=submitter = University of Tokyo Team (Faculty of Engineering, University of Tokyo)
MoNA Rating=3.75

>  <NUM PEAKS>  (3359) 
35

>  <MASS SPECTRAL PEAKS>  (3359) 
27 3.56
28 5.5
29 5.38
30 5.47
39 4.05
41 16.93
42 2.14
43 3.86
44 9.59
53 2.32
54 2.58
55 15.14
56 37.51
57 1.74
67 2.4
68 2.24
69 1.42
70 3.04
79 1.18
80 1.04
81 3.6
82 7.21
83 4.43
96 1.78
98 5.06
100 5.83
110 2.42
124 1.2
125 1.8
138 99.99
139 10.8
152 3.26
180 1.18
181 15.4
182 2.2

$$$$

     RDKit          2D

  8  7  0  0  0  0  0  0  0  0999 V2000
    1.9486    2.6250    0.0000 C   0  0  0  0  0  0  0  0  0  0  0  0
    0.6495    0.3750    0.0000 C   0  0  0  0  0  0  0  0  0  0  0  0
    0.6495    3.3750    0.0000 C   0  0  0  0  0  0  0  0  0  0  0  0
   -0.6495    1.1250    0.0000 C   0  0  0  0  0  0  0  0  0  0  0  0
   -1.9486    3.3750    0.0000 C   0  0  0  0  0  0  0  0  0  0  0  0
   -3.2476    2.6250    0.0000 C   0  0  0  0  0  0  0  0  0  0  0  0
   -0.6495    2.6250    0.0000 N   0  0  0  0  0  0  0  0  0  0  0  0
   -4.5466    3.3750    0.0000 O   0  0  0  0  0  0  0  0  0  0  0  0
  3  1  1  0
  4  2  1  0
  6  5  1  0
  7  3  1  0
  7  4  1  0
  7  5  1  0
  8  6  1  0
M  END
>  <NAME>  (3360) 
2-(DIETHYLAMONO)ETHANOL

>  <SYNONYMS>  (3360) 


>  <SPECTRUM TYPE>  (3360) 
MS1

>  <INSTRUMENT TYPE>  (3360) 
EI-B

>  <INSTRUMENT>  (3360) 
HITACHI RMU-6M

>  <ION MODE>  (3360) 
P

>  <INCHIKEY>  (3360) 
BFSVOASYOCHEOV-UHFFFAOYSA-N

>  <FORMULA>  (3360) 
C6H15NO

>  <EXACT MASS>  (3360) 
117.1153641

>  <MW>  (3360) 
117

>  <ID>  (3360) 
JP007317

>  <CONTRIBUTOR>  (3360) 
University of Tokyo Team, {Faculty of Engineering, University of Tokyo

>  <COMMENT>  (3360) 
SMILES=OCCN(CC)CC
cas=100-37-8
InChI=InChI=1S/C6H15NO/c1-3-7(4-2)5-6-8/h8H,3-6H2,1-2H3
computed SMILES=OCCN(CC)CC
accession=JP007317
date=2016.01.19 (Created 2008.10.21, modified 2011.05.06)
author=YAMAMOTO M, DEP. CHEMISTRY, FAC. SCIENCE, NARA WOMEN'S UNIV.
license=CC BY-NC-SA
exact mass=117.11536
ionization energy=70 eV
ion type=[M]+*
computed spectral entropy=2.269464937717293
computed normalized entropy=0.723798157938804
SPLASH=splash10-000i-9000000000-c65d76d5528026f7e716
submitter=submitter = University of Tokyo Team (Faculty of Engineering, University of Tokyo)
MoNA Rating=3.75

>  <NUM PEAKS>  (3360) 
23

>  <MASS SPECTRAL PEAKS>  (3360) 
15 2.87
27 7.72
28 7.7
29 9.9
30 30.14
31 1.36
41 1.93
42 9.78
43 2.17
44 5.87
45 4.28
56 7.03
57 1.61
58 35.11
59 1.61
70 1.78
72 3.44
86 99.99
87 5.92
88 2.08
102 6.66
116 3.1
117 5.77

$$$$

     RDKit          2D

  6  5  0  0  0  0  0  0  0  0999 V2000
    0.0000    0.0000    0.0000 C   0  0  0  0  0  0  0  0  0  0  0  0
    1.2990    2.2500    0.0000 C   0  0  0  0  0  0  0  0  0  0  0  0
   -1.2990    2.2500    0.0000 C   0  0  0  0  0  0  0  0  0  0  0  0
   -1.2990    3.7500    0.0000 C   0  0  0  0  0  0  0  0  0  0  0  0
    0.0000    1.5000    0.0000 N   0  0  0  0  0  0  0  0  0  0  0  0
   -2.5981    4.5000    0.0000 O   0  0  0  0  0  0  0  0  0  0  0  0
  4  3  1  0
  5  1  1  0
  5  2  1  0
  5  3  1  0
  6  4  1  0
M  END
>  <NAME>  (3361) 
2-(DIMETHYLAMINO)ETHANOL

>  <SYNONYMS>  (3361) 
DEANOL

>  <SPECTRUM TYPE>  (3361) 
MS1

>  <INSTRUMENT TYPE>  (3361) 
EI-B

>  <INSTRUMENT>  (3361) 
HITACHI RMU-6M

>  <ION MODE>  (3361) 
P

>  <INCHIKEY>  (3361) 
UEEJHVSXFDXPFK-UHFFFAOYSA-N

>  <FORMULA>  (3361) 
C4H11NO

>  <EXACT MASS>  (3361) 
89.084063972

>  <MW>  (3361) 
89

>  <ID>  (3361) 
JP007316

>  <CONTRIBUTOR>  (3361) 
University of Tokyo Team, {Faculty of Engineering, University of Tokyo

>  <COMMENT>  (3361) 
SMILES=OCCN(C)C
cas=108-01-0
InChI=InChI=1S/C4H11NO/c1-5(2)3-4-6/h6H,3-4H2,1-2H3
computed SMILES=OCCN(C)C
accession=JP007316
date=2016.01.19 (Created 2008.10.21, modified 2011.05.06)
author=YAMAMOTO M, DEP. CHEMISTRY, FAC. SCIENCE, NARA WOMEN'S UNIV.
license=CC BY-NC-SA
exact mass=89.08406
ionization energy=70 eV
ion type=[M]+*
computed spectral entropy=1.8172882994501618
computed normalized entropy=0.6554482043705715
SPLASH=splash10-0a4i-9000000000-5592e4a7e549a923226d
submitter=submitter = University of Tokyo Team (Faculty of Engineering, University of Tokyo)
MoNA Rating=3.75

>  <NUM PEAKS>  (3361) 
16

>  <MASS SPECTRAL PEAKS>  (3361) 
15 6.85
27 2.72
28 3.38
29 2.98
30 11.42
41 1.98
42 14.59
43 4.57
44 14.04
45 2.19
56 1.97
57 3.06
58 99.99
59 5.4
88 2.51
89 6.68

$$$$

     RDKit          2D

 12 11  0  0  0  0  0  0  0  0999 V2000
   -2.5981    6.7500    0.0000 C   0  0  0  0  0  0  0  0  0  0  0  0
   -3.8971    6.0000    0.0000 C   0  0  0  0  0  0  0  0  0  0  0  0
   -1.2990    6.0000    0.0000 C   0  0  0  0  0  0  0  0  0  0  0  0
   -5.1962    6.7500    0.0000 C   0  0  0  0  0  0  0  0  0  0  0  0
    0.0000    6.7500    0.0000 C   0  0  0  0  0  0  0  0  0  0  0  0
   -6.4952    6.0000    0.0000 C   0  0  0  0  0  0  0  0  0  0  0  0
    1.2990    6.0000    0.0000 C   0  0  0  0  0  0  0  0  0  0  0  0
   -7.7942    6.7500    0.0000 C   0  0  0  0  0  0  0  0  0  0  0  0
    2.5981    6.7500    0.0000 C   0  0  0  0  0  0  0  0  0  0  0  0
   -9.0933    6.0000    0.0000 C   0  0  0  0  0  0  0  0  0  0  0  0
    3.8971    6.0000    0.0000 O   0  0  0  0  0  0  0  0  0  0  0  0
  -10.3923    6.7500    0.0000 O   0  0  0  0  0  0  0  0  0  0  0  0
  2  1  1  0
  3  1  1  0
  4  2  1  0
  5  3  1  0
  6  4  1  0
  7  5  1  0
  8  6  1  0
  9  7  1  0
 10  8  1  0
 11  9  1  0
 12 10  1  0
M  END
>  <NAME>  (3362) 
1,10-DECANEDIOL

>  <SYNONYMS>  (3362) 


>  <SPECTRUM TYPE>  (3362) 
MS1

>  <INSTRUMENT TYPE>  (3362) 
EI-B

>  <INSTRUMENT>  (3362) 
ESCO EMD-05A

>  <ION MODE>  (3362) 
P

>  <INCHIKEY>  (3362) 
FOTKYAAJKYLFFN-UHFFFAOYSA-N

>  <FORMULA>  (3362) 
C10H22O2

>  <EXACT MASS>  (3362) 
174.161979944

>  <MW>  (3362) 
174

>  <ID>  (3362) 
JP007315

>  <CONTRIBUTOR>  (3362) 
University of Tokyo Team, {Faculty of Engineering, University of Tokyo

>  <COMMENT>  (3362) 
SMILES=OCCCCCCCCCCO
cas=112-47-0
InChI=InChI=1S/C10H22O2/c11-9-7-5-3-1-2-4-6-8-10-12/h11-12H,1-10H2
computed SMILES=OCCCCCCCCCCO
accession=JP007315
date=2016.01.19 (Created 2008.10.21, modified 2011.05.06)
author=YAMAMOTO M, DEP. CHEMISTRY, FAC. SCIENCE, NARA WOMEN'S UNIV.
license=CC BY-NC-SA
exact mass=174.16198
ionization energy=70 eV
ion type=[M]+*
computed spectral entropy=3.2634687357497074
computed normalized entropy=0.8476217208660325
SPLASH=splash10-0apl-9000000000-18ef7d3c11ed477de740
submitter=submitter = University of Tokyo Team (Faculty of Engineering, University of Tokyo)
MoNA Rating=3.75

>  <NUM PEAKS>  (3362) 
47

>  <MASS SPECTRAL PEAKS>  (3362) 
27 38.54
28 2.27
29 25.84
30 2.55
31 98.91
40 16.25
41 6.62
42 90.47
43 13.01
44 16.23
45 3.68
46 4.92
54 12
55 68.06
56 99.99
57 19.22
58 26.2
64 1.75
65 6.05
66 30.47
67 49.43
68 69.84
69 24.73
70 18.86
71 2.27
73 2.91
80 3.27
81 2.19
82 46.47
83 36.37
84 16.98
85 9.84
86 6.34
87 1.55
94 1.13
95 38.82
96 40.83
97 17.41
98 4.3
99 3.86
109 11.49
110 16.69
111 2.29
113 2.19
126 4.51
138 1.24
174 3.22

$$$$

     RDKit          2D

 11 10  0  0  0  0  0  0  0  0999 V2000
    3.2476    5.6250    0.0000 C   0  0  0  0  0  0  0  0  0  0  0  0
    1.9486    6.3750    0.0000 C   0  0  0  0  0  0  0  0  0  0  0  0
    0.6495    5.6250    0.0000 C   0  0  0  0  0  0  0  0  0  0  0  0
   -0.6495    6.3750    0.0000 C   0  0  0  0  0  0  0  0  0  0  0  0
   -1.9486    5.6250    0.0000 C   0  0  0  0  0  0  0  0  0  0  0  0
   -3.2476    6.3750    0.0000 C   0  0  0  0  0  0  0  0  0  0  0  0
   -4.5466    5.6250    0.0000 C   0  0  0  0  0  0  0  0  0  0  0  0
   -5.8457    6.3750    0.0000 C   0  0  0  0  0  0  0  0  0  0  0  0
   -7.1447    5.6250    0.0000 C   0  0  0  0  0  0  0  0  0  0  0  0
   -8.4437    6.3750    0.0000 C   0  0  0  0  0  0  0  0  0  0  0  0
   -9.7428    5.6250    0.0000 O   0  0  0  0  0  0  0  0  0  0  0  0
  2  1  1  0
  3  2  1  0
  4  3  1  0
  5  4  1  0
  6  5  1  0
  7  6  1  0
  8  7  1  0
  9  8  1  0
 10  9  1  0
 11 10  1  0
M  END
>  <NAME>  (3363) 
1-DECANOL

>  <SYNONYMS>  (3363) 


>  <SPECTRUM TYPE>  (3363) 
MS1

>  <INSTRUMENT TYPE>  (3363) 
EI-B

>  <INSTRUMENT>  (3363) 
HITACHI RMU-6M

>  <ION MODE>  (3363) 
P

>  <INCHIKEY>  (3363) 
MWKFXSUHUHTGQN-UHFFFAOYSA-N

>  <FORMULA>  (3363) 
C10H22O

>  <EXACT MASS>  (3363) 
158.167065324

>  <MW>  (3363) 
158

>  <ID>  (3363) 
JP007314

>  <CONTRIBUTOR>  (3363) 
University of Tokyo Team, {Faculty of Engineering, University of Tokyo

>  <COMMENT>  (3363) 
SMILES=CCCCCCCCCCO
cas=112-30-1
InChI=InChI=1S/C10H22O/c1-2-3-4-5-6-7-8-9-10-11/h11H,2-10H2,1H3
computed SMILES=OCCCCCCCCCC
accession=JP007314
date=2016.01.19 (Created 2008.10.21, modified 2011.05.06)
author=YAMAMOTO M, DEP. CHEMISTRY, FAC. SCIENCE, NARA WOMEN'S UNIV.
license=CC BY-NC-SA
exact mass=158.16707
ionization energy=70 eV
ion type=[M]+*
computed spectral entropy=2.890926289491799
computed normalized entropy=0.8418570359598158
SPLASH=splash10-0a4l-9000000000-c952708ac925d4cc26ee
submitter=submitter = University of Tokyo Team (Faculty of Engineering, University of Tokyo)
MoNA Rating=3.75

>  <NUM PEAKS>  (3363) 
31

>  <MASS SPECTRAL PEAKS>  (3363) 
15 1.05
27 23.98
28 6.38
29 42.7
30 1.25
31 25.44
32 1.72
39 15.24
40 3.46
41 82.55
42 41.14
43 99.46
45 3.38
46 3.37
53 4.89
54 8.69
55 99.99
56 93.2
57 45.71
58 1.97
67 8.45
68 29.6
69 70.1
70 89.86
71 17.05
73 2.56
81 2.29
82 22.61
83 58.74
84 43.04
85 8.77

$$$$

     RDKit          2D

  4  3  0  0  0  0  0  0  0  0999 V2000
   -2.5981    2.2500    0.0000 C   0  0  0  0  0  0  0  0  0  0  0  0
   -1.2990    1.5000    0.0000 C   0  0  0  0  0  0  0  0  0  0  0  0
    0.0000    2.2500    0.0000 C   0  0  0  0  0  0  0  0  0  0  0  0
    1.2990    1.5000    0.0000 O   0  0  0  0  0  0  0  0  0  0  0  0
  2  1  2  0
  3  2  1  0
  4  3  1  0
M  END
>  <NAME>  (3364) 
ALLYL ALCOHOL

>  <SYNONYMS>  (3364) 
2-PROPEN-1-OL

>  <SPECTRUM TYPE>  (3364) 
MS1

>  <INSTRUMENT TYPE>  (3364) 
EI-B

>  <INSTRUMENT>  (3364) 
HITACHI RMU-6M

>  <ION MODE>  (3364) 
P

>  <INCHIKEY>  (3364) 
XXROGKLTLUQVRX-UHFFFAOYSA-N

>  <FORMULA>  (3364) 
C3H6O

>  <EXACT MASS>  (3364) 
58.041864812

>  <MW>  (3364) 
58

>  <ID>  (3364) 
JP007313

>  <CONTRIBUTOR>  (3364) 
University of Tokyo Team, {Faculty of Engineering, University of Tokyo

>  <COMMENT>  (3364) 
SMILES=C=CCO
cas=107-18-6
InChI=InChI=1S/C3H6O/c1-2-3-4/h2,4H,1,3H2
computed SMILES=OCC=C
accession=JP007313
date=2016.01.19 (Created 2008.10.21, modified 2011.05.06)
author=YAMAMOTO M, DEP. CHEMISTRY, FAC. SCIENCE, NARA WOMEN'S UNIV.
license=CC BY-NC-SA
exact mass=58.04186
ionization energy=70 eV
ion type=[M]+*
computed spectral entropy=2.4337167004311415
computed normalized entropy=0.7873449611754728
SPLASH=splash10-0a6r-9000000000-cdac996ba92e437d2490
submitter=submitter = University of Tokyo Team (Faculty of Engineering, University of Tokyo)
MoNA Rating=3.75

>  <NUM PEAKS>  (3364) 
22

>  <MASS SPECTRAL PEAKS>  (3364) 
14 1.32
15 2.56
25 2.23
26 11.79
27 27.97
28 17.17
29 29.54
30 16.26
31 44.07
37 4.3
38 6.08
39 29.67
40 9.51
41 5.91
42 1.28
43 4.96
53 1.57
55 5.42
56 1.73
57 99.99
58 35.21
59 1.53

$$$$

     RDKit          2D

 10  9  0  0  0  0  0  0  0  0999 V2000
   -8.4437    5.6250    0.0000 C   0  0  0  0  0  0  0  0  0  0  0  0
    3.2476    4.8750    0.0000 C   0  0  0  0  0  0  0  0  0  0  0  0
   -7.1447    4.8750    0.0000 C   0  0  0  0  0  0  0  0  0  0  0  0
    1.9486    5.6250    0.0000 C   0  0  0  0  0  0  0  0  0  0  0  0
   -5.8457    5.6250    0.0000 C   0  0  0  0  0  0  0  0  0  0  0  0
    0.6495    4.8750    0.0000 C   0  0  0  0  0  0  0  0  0  0  0  0
   -4.5466    4.8750    0.0000 C   0  0  0  0  0  0  0  0  0  0  0  0
   -0.6495    5.6250    0.0000 C   0  0  0  0  0  0  0  0  0  0  0  0
   -3.2476    5.6250    0.0000 C   0  0  0  0  0  0  0  0  0  0  0  0
   -1.9486    4.8750    0.0000 C   0  0  0  0  0  0  0  0  0  0  0  0
  3  1  1  0
  4  2  1  0
  5  3  1  0
  6  4  1  0
  7  5  1  0
  8  6  1  0
  9  7  1  0
 10  8  1  0
 10  9  1  0
M  END
>  <NAME>  (3365) 
DECANE

>  <SYNONYMS>  (3365) 


>  <SPECTRUM TYPE>  (3365) 
MS1

>  <INSTRUMENT TYPE>  (3365) 
EI-B

>  <INSTRUMENT>  (3365) 
HITACHI RMU-6M

>  <ION MODE>  (3365) 
P

>  <INCHIKEY>  (3365) 
DIOQZVSQGTUSAI-UHFFFAOYSA-N

>  <FORMULA>  (3365) 
C10H22

>  <EXACT MASS>  (3365) 
142.172150704

>  <MW>  (3365) 
142

>  <ID>  (3365) 
JP007312

>  <CONTRIBUTOR>  (3365) 
University of Tokyo Team, {Faculty of Engineering, University of Tokyo

>  <COMMENT>  (3365) 
SMILES=CCCCCCCCCC
cas=124-18-5
InChI=InChI=1S/C10H22/c1-3-5-7-9-10-8-6-4-2/h3-10H2,1-2H3
computed SMILES=CCCCCCCCCC
accession=JP007312
date=2016.01.19 (Created 2008.10.21, modified 2011.05.06)
author=YAMAMOTO M, DEP. CHEMISTRY, FAC. SCIENCE, NARA WOMEN'S UNIV.
license=CC BY-NC-SA
exact mass=142.17215
ionization energy=70 eV
ion type=[M]+*
computed spectral entropy=2.605661003914474
computed normalized entropy=0.781963110594755
SPLASH=splash10-052f-9000000000-17ab8ba53e53f7df1609
submitter=submitter = University of Tokyo Team (Faculty of Engineering, University of Tokyo)
MoNA Rating=3.75

>  <NUM PEAKS>  (3365) 
28

>  <MASS SPECTRAL PEAKS>  (3365) 
27 13.86
28 2.72
29 24.25
39 7.64
40 1.43
41 35.94
42 12.93
43 99.99
44 3.26
53 1.66
54 1.19
55 12.73
56 17.53
57 96.16
58 4.06
69 3.77
70 13.49
71 36.8
72 1.99
84 9.3
85 27.22
86 1.86
98 5.07
99 7.84
112 2.03
113 5.28
142 12.44
143 1.5

$$$$

     RDKit          2D

 25 25  0  0  1  0  0  0  0  0999 V2000
  -15.2288    7.2946    0.0000 C   0  0  0  0  0  0  0  0  0  0  0  0
    8.1543    7.2950    0.0000 C   0  0  0  0  0  0  0  0  0  0  0  0
  -13.9298    8.0446    0.0000 C   0  0  0  0  0  0  0  0  0  0  0  0
  -12.6307    7.2946    0.0000 C   0  0  0  0  0  0  0  0  0  0  0  0
  -11.3317    8.0446    0.0000 C   0  0  0  0  0  0  0  0  0  0  0  0
  -10.0327    7.2946    0.0000 C   0  0  0  0  0  0  0  0  0  0  0  0
   -8.7336    8.0446    0.0000 C   0  0  0  0  0  0  0  0  0  0  0  0
   -7.4346    7.2946    0.0000 C   0  0  0  0  0  0  0  0  0  0  0  0
   -6.1356    8.0446    0.0000 C   0  0  0  0  0  0  0  0  0  0  0  0
   -4.8365    7.2946    0.0000 C   0  0  0  0  0  0  0  0  0  0  0  0
    1.6587    8.0446    0.0000 C   0  0  0  0  0  0  0  0  0  0  0  0
    2.9572    5.7938    0.0000 C   0  0  0  0  0  0  0  0  0  0  0  0
    0.3596    7.2946    0.0000 C   0  0  0  0  0  0  0  0  0  0  0  0
    4.2563    5.0438    0.0000 C   0  0  0  0  0  0  0  0  0  0  0  0
    4.2572    8.0454    0.0000 C   0  0  0  0  0  0  0  0  0  0  0  0
   -2.2384    7.2946    0.0000 C   0  0  0  0  0  0  0  0  0  0  0  0
    2.9577    7.2946    0.0000 C   0  0  0  0  0  0  0  0  0  0  0  0
   -3.5375    8.0446    0.0000 C   0  0  0  0  0  0  0  0  0  0  0  0
   -0.9394    8.0446    0.0000 C   0  0  0  0  0  0  0  0  0  0  0  0
    5.5558    5.7946    0.0000 C   0  0  0  0  0  0  0  0  0  0  0  0
    5.5563    7.2954    0.0000 C   0  0  0  0  0  0  0  0  0  0  0  0
   -3.5375    9.5446    0.0000 O   0  0  0  0  0  0  0  0  0  0  0  0
   -0.9394    9.5446    0.0000 O   0  0  0  0  0  0  0  0  0  0  0  0
    6.8548    5.0446    0.0000 O   0  0  0  0  0  0  0  0  0  0  0  0
    6.8554    8.0452    0.0000 O   0  0  0  0  0  0  0  0  0  0  0  0
  3  1  1  0
  4  3  1  0
  5  4  1  0
  6  5  1  0
  7  6  1  0
  8  7  1  0
  9  8  1  0
 10  9  1  0
 13 11  1  0
 14 12  2  0
 17 11  1  0
 17 12  1  0
 17 15  2  0
 18 10  1  0
 18 16  1  0
 19 13  1  0
 19 16  1  0
 20 14  1  0
 21 15  1  0
 21 20  2  0
 18 22  1  6
 23 19  2  0
 24 20  1  0
 25  2  1  0
 25 21  1  0
M  END
>  <NAME>  (3366) 
5-HYDROXY-1-(4-HYDROXY-3-METHOXYPHENYL)TETRADECAN-3-ONE

>  <SYNONYMS>  (3366) 
10-GINGEROL

>  <SPECTRUM TYPE>  (3366) 
MS1

>  <INSTRUMENT TYPE>  (3366) 
EI-B

>  <INSTRUMENT>  (3366) 
HITACHI M-52

>  <ION MODE>  (3366) 
P

>  <INCHIKEY>  (3366) 
AIULWNKTYPZYAN-SFHVURJKSA-N

>  <FORMULA>  (3366) 
C21H34O4

>  <EXACT MASS>  (3366) 
350.245709568

>  <MW>  (3366) 
350

>  <ID>  (3366) 
JP007245

>  <CONTRIBUTOR>  (3366) 
University of Tokyo Team, {Faculty of Engineering, University of Tokyo

>  <COMMENT>  (3366) 
SMILES=CCCCCCCCCC([H])(O)CC(=O)CCc(c1)cc(OC)c(O)c1
cas=23513-15-7
InChI=InChI=1S/C21H34O4/c1-3-4-5-6-7-8-9-10-18(22)16-19(23)13-11-17-12-14-20(24)21(15-17)25-2/h12,14-15,18,22,24H,3-11,13,16H2,1-2H3/t18-/m0/s1
computed SMILES=O=C(CCC1=CC=C(O)C(OC)=C1)CC(O)CCCCCCCCC
accession=JP007245
date=2016.01.19 (Created 2008.10.21, modified 2011.05.06)
author=ENDO K, PHARMACEUTICAL INST., TOHOKU UNIV.
license=CC BY-NC-SA
exact mass=350.24571
ionization energy=70 eV
ion type=[M]+*
computed spectral entropy=3.8546838914762813
computed normalized entropy=0.8079938614487686
SPLASH=splash10-052o-9600000000-64ce23ed825b38f4851c
submitter=submitter = University of Tokyo Team (Faculty of Engineering, University of Tokyo)
MoNA Rating=3.75

>  <NUM PEAKS>  (3366) 
118

>  <MASS SPECTRAL PEAKS>  (3366) 
39 10.4
40 2.7
41 50
42 1.04
43 65.4
44 10.8
45 3.8
50 0.12
51 3.8
52 2.7
53 6.5
54 0.85
55 40.4
56 13.8
57 26.2
58 0.31
59 3.8
60 4.6
61 1.9
63 0.15
64 1.2
65 3.8
66 3.5
67 1.27
68 7.3
69 24.2
70 9.6
71 1.62
72 2.7
73 6.9
77 6.2
78 0.35
79 6.2
80 1.9
81 9.2
82 0.88
83 17.7
84 10.4
85 4.6
87 0.23
91 15
93 5.8
94 7.7
95 0.73
96 5
97 8.1
98 4.2
99 0.19
101 1.9
103 2.3
105 5
106 0.35
107 6.5
108 1.5
109 6.5
110 0.38
111 3.1
112 4.6
113 2.7
115 0.15
117 1.9
119 11.5
120 2.3
121 0.35
122 8.1
123 3.8
124 9.6
125 0.38
126 2.3
127 1.9
129 3.8
131 1.12
132 3.1
133 4.2
134 2.3
135 0.46
136 3.1
137 99.99
138 27.7
139 0.31
145 1.9
146 1.5
147 2.3
149 0.81
150 13.5
151 11.5
152 3.1
157 0.19
159 1.5
161 3.1
163 8.1
164 0.12
165 1.9
167 1.9
176 2.3
178 0.27
180 3.8
181 2.7
189 1.9
194 1.77
195 2.7
196 1.5
205 5.8
262 0.31
264 1.2
276 1.5
278 1.9
279 0.19
280 5
281 1.5
304 1.2
322 0.12
331 1.2
332 1.5
333 7.7
338 0.12
350 2.7
351 1.2

$$$$

     RDKit          2D

 23 23  0  0  0  0  0  0  0  0999 V2000
  -12.3059    4.4821    0.0000 C   0  0  0  0  0  0  0  0  0  0  0  0
    5.8806   -0.0179    0.0000 C   0  0  0  0  0  0  0  0  0  0  0  0
    5.8811    4.4826    0.0000 C   0  0  0  0  0  0  0  0  0  0  0  0
  -11.0069    5.2321    0.0000 C   0  0  0  0  0  0  0  0  0  0  0  0
   -9.7078    4.4821    0.0000 C   0  0  0  0  0  0  0  0  0  0  0  0
   -8.4088    5.2321    0.0000 C   0  0  0  0  0  0  0  0  0  0  0  0
   -7.1097    4.4821    0.0000 C   0  0  0  0  0  0  0  0  0  0  0  0
   -5.8107    5.2321    0.0000 C   0  0  0  0  0  0  0  0  0  0  0  0
   -4.5117    4.4821    0.0000 C   0  0  0  0  0  0  0  0  0  0  0  0
   -0.6145    5.2321    0.0000 C   0  0  0  0  0  0  0  0  0  0  0  0
    0.6840    2.9813    0.0000 C   0  0  0  0  0  0  0  0  0  0  0  0
   -1.9136    4.4821    0.0000 C   0  0  0  0  0  0  0  0  0  0  0  0
    1.9830    2.2313    0.0000 C   0  0  0  0  0  0  0  0  0  0  0  0
    1.9840    5.2330    0.0000 C   0  0  0  0  0  0  0  0  0  0  0  0
    4.5816    0.7321    0.0000 C   0  0  0  0  0  0  0  0  0  0  0  0
    0.6845    4.4821    0.0000 C   0  0  0  0  0  0  0  0  0  0  0  0
   -3.2126    5.2321    0.0000 C   0  0  0  0  0  0  0  0  0  0  0  0
    3.2826    2.9821    0.0000 C   0  0  0  0  0  0  0  0  0  0  0  0
    3.2830    4.4830    0.0000 C   0  0  0  0  0  0  0  0  0  0  0  0
    3.2826   -0.0179    0.0000 O   0  0  0  0  0  0  0  0  0  0  0  0
   -3.2126    6.7321    0.0000 O   0  0  0  0  0  0  0  0  0  0  0  0
    4.5822    5.2328    0.0000 O   0  0  0  0  0  0  0  0  0  0  0  0
    4.5816    2.2321    0.0000 O   0  0  0  0  0  0  0  0  0  0  0  0
  4  1  1  0
  5  4  1  0
  6  5  1  0
  7  6  1  0
  8  7  1  0
  8  9  2  0
 12 10  1  0
 13 11  2  0
 15  2  1  0
 16 10  1  0
 16 11  1  0
 16 14  2  0
 17  9  1  0
 17 12  1  0
 18 13  1  0
 19 14  1  0
 19 18  2  0
 20 15  2  0
 21 17  2  0
 22  3  1  0
 22 19  1  0
 23 15  1  0
 23 18  1  0
M  END
>  <NAME>  (3367) 
1-(4-ACETOXY-3-METHOXYPHENYL)DEC-4-EN-3-ONE

>  <SYNONYMS>  (3367) 
SHOGAOL ACETATE

>  <SPECTRUM TYPE>  (3367) 
MS1

>  <INSTRUMENT TYPE>  (3367) 
EI-B

>  <INSTRUMENT>  (3367) 
HITACHI M-52

>  <ION MODE>  (3367) 
P

>  <INCHIKEY>  (3367) 
UMPBPDLXVPCHRQ-CMDGGOBGSA-N

>  <FORMULA>  (3367) 
C19H26O4

>  <EXACT MASS>  (3367) 
318.183109312

>  <MW>  (3367) 
318

>  <ID>  (3367) 
JP007242

>  <CONTRIBUTOR>  (3367) 
University of Tokyo Team, {Faculty of Engineering, University of Tokyo

>  <COMMENT>  (3367) 
SMILES=CCCCCC=CC(=O)CCc(c1)cc(OC)c(OC(C)=O)c1
InChI=InChI=1S/C19H26O4/c1-4-5-6-7-8-9-17(21)12-10-16-11-13-18(23-15(2)20)19(14-16)22-3/h8-9,11,13-14H,4-7,10,12H2,1-3H3/b9-8+
computed SMILES=O=C(OC1=CC=C(C=C1OC)CCC(=O)C=CCCCCC)C
accession=JP007242
date=2016.01.19 (Created 2008.10.21, modified 2011.05.06)
author=ENDO K, PHARMACEUTICAL INST., TOHOKU UNIV.
license=CC BY-NC-SA
exact mass=318.18311
ionization energy=70 eV
ion type=[M]+*
computed spectral entropy=3.3849125811261955
computed normalized entropy=0.7160217673971558
SPLASH=splash10-052r-7940000000-9f55ac8977f6b93dec1a
submitter=submitter = University of Tokyo Team (Faculty of Engineering, University of Tokyo)
MoNA Rating=3.75

>  <NUM PEAKS>  (3367) 
113

>  <MASS SPECTRAL PEAKS>  (3367) 
39 5.9
40 0.8
41 15.2
42 0.39
43 29.6
44 1.5
45 0.8
50 0.08
51 4.1
52 2.8
53 4.4
54 0.08
55 33
56 2.6
57 4.4
59 0.1
63 2.6
65 2.3
66 1.5
67 0.18
68 1.8
69 5.9
70 1
71 0.1
73 0.8
77 5.9
78 2.8
79 0.46
80 1.3
81 5.2
82 1
83 0.34
84 0.8
85 1
89 0.8
90 0.08
91 10.3
92 1.3
93 1.3
94 0.36
95 2.8
96 1.3
97 3.1
99 0.13
103 1.3
104 0.8
105 2.6
106 0.15
107 3.9
108 1.3
109 1.5
110 0.1
111 1.3
113 0.8
115 1
116 0.1
117 1.5
118 0.8
119 7
120 0.21
121 1
122 4.4
123 1.8
124 0.39
125 6.4
126 0.8
130 1
131 0.13
132 0.8
133 0.8
134 1
135 0.31
136 1.5
137 99.99
138 10.8
139 0.15
144 1
145 2.6
146 1
147 0.18
148 0.8
149 3.9
150 8
151 1.83
152 5.9
153 1
161 1.3
163 0.1
164 0.8
166 1.5
173 1.8
177 0.13
178 1
179 4.6
187 0.8
189 0.08
190 0.8
192 0.8
194 0.8
199 0.08
204 1
205 37.4
206 6.2
207 0.13
215 0.8
243 0.8
248 0.8
275 0.13
276 51.5
277 8
278 2.1
318 0.36
319 0.3

$$$$

     RDKit          2D

 12 12  0  0  0  0  0  0  0  0999 V2000
    3.5596    3.1719    0.0000 C   0  0  0  0  0  0  0  0  0  0  0  0
    2.2461    0.9470    0.0000 C   0  0  0  0  0  0  0  0  0  0  0  0
    0.9653    3.1783    0.0000 C   0  0  0  0  0  0  0  0  0  0  0  0
    4.8441    2.4470    0.0000 C   0  0  0  0  0  0  0  0  0  0  0  0
    3.5706    0.1529    0.0000 C   0  0  0  0  0  0  0  0  0  0  0  0
   -0.3375    2.4347    0.0000 C   0  0  0  0  0  0  0  0  0  0  0  0
    2.2606    2.4219    0.0000 C   0  0  0  0  0  0  0  0  0  0  0  0
    4.8696    0.9029    0.0000 C   0  0  0  0  0  0  0  0  0  0  0  0
   -1.6328    3.1910    0.0000 C   0  0  0  0  0  0  0  0  0  0  0  0
    6.1748    0.1636    0.0000 O   0  0  0  0  0  0  0  0  0  0  0  0
   -1.6254    4.6910    0.0000 O   0  0  0  0  0  0  0  0  0  0  0  0
   -2.9355    2.4474    0.0000 O   0  0  0  0  0  0  0  0  0  0  0  0
  4  1  2  0
  5  2  1  0
  3  6  2  0
  7  1  1  0
  7  2  2  0
  7  3  1  0
  8  4  1  0
  8  5  2  0
  9  6  1  0
 10  8  1  0
 11  9  2  0
 12  9  1  0
M  END
>  <NAME>  (3368) 
3-(4-HYDROXYPHENYL)PROP-2-ENOIC ACID

>  <SYNONYMS>  (3368) 
P-COUMARIC ACID

>  <SPECTRUM TYPE>  (3368) 
MS1

>  <INSTRUMENT TYPE>  (3368) 
EI-B

>  <INSTRUMENT>  (3368) 
HITACHI M-52

>  <ION MODE>  (3368) 
P

>  <INCHIKEY>  (3368) 
NGSWKAQJJWESNS-ZZXKWVIFSA-N

>  <FORMULA>  (3368) 
C9H8O3

>  <EXACT MASS>  (3368) 
164.04734411599998

>  <MW>  (3368) 
164

>  <ID>  (3368) 
JP007236

>  <CONTRIBUTOR>  (3368) 
University of Tokyo Team, {Faculty of Engineering, University of Tokyo

>  <COMMENT>  (3368) 
SMILES=OC(=O)C=Cc(c1)ccc(O)c1
cas=7400-08-0
InChI=InChI=1S/C9H8O3/c10-8-4-1-7(2-5-8)3-6-9(11)12/h1-6,10H,(H,11,12)/b6-3+
computed SMILES=O=C(O)C=CC1=CC=C(O)C=C1
accession=JP007236
date=2016.01.19 (Created 2008.10.21, modified 2011.05.06)
author=ENDO K, PHARMACEUTICAL INST., TOHOKU UNIV.
license=CC BY-NC-SA
exact mass=164.04734
ionization energy=70 eV
ion type=[M]+*
computed spectral entropy=3.6686841626039475
computed normalized entropy=0.8019488400126554
SPLASH=splash10-03di-8900000000-3bb023f80c1f54a16adc
submitter=submitter = University of Tokyo Team (Faculty of Engineering, University of Tokyo)
MoNA Rating=3.75

>  <NUM PEAKS>  (3368) 
97

>  <MASS SPECTRAL PEAKS>  (3368) 
39 13.6
40 1.6
41 13.6
42 0.32
43 17.6
44 3.2
45 4.8
50 0.32
51 8
52 1.6
53 4.8
55 1.28
56 6.4
57 12.8
58 2.4
59 0.56
60 5.6
61 2.4
62 3.2
63 1.28
64 4
65 17.6
66 2.4
67 0.48
68 4
69 8.8
70 3.2
71 0.64
72 2.4
73 8.8
74 4
75 0.32
76 1.6
77 6.4
78 1.6
79 0.32
81 5.6
82 6.4
83 8.8
84 0.24
85 7.2
86 1.6
87 4
89 0.88
90 4.8
91 27.2
92 2.4
93 0.24
94 4.8
95 4.8
96 4
97 0.4
98 1.6
99 2.4
101 2.4
105 0.16
107 12
108 3.2
109 2.4
110 0.24
111 3.2
112 1.6
113 2.4
114 0.16
115 2.4
117 1.6
118 2.4
119 3.2
120 5.6
121 3.2
122 3.2
123 0.56
125 2.4
127 2.4
129 3.2
130 0.16
131 1.6
135 5.6
136 6.4
137 0.32
139 1.6
141 2.4
143 1.6
145 0.16
146 4
147 44
148 4.8
149 0.56
154 2.4
155 1.6
156 1.6
157 0.24
161 1.6
163 37.6
164 99.99
165 1.04
166 2.4

$$$$

     RDKit          2D

 11 11  0  0  0  0  0  0  0  0999 V2000
    1.9442    2.6174    0.0000 C   0  0  0  0  0  0  0  0  0  0  0  0
    0.6306    0.3925    0.0000 C   0  0  0  0  0  0  0  0  0  0  0  0
    3.2287    1.8925    0.0000 C   0  0  0  0  0  0  0  0  0  0  0  0
    1.9551   -0.4016    0.0000 C   0  0  0  0  0  0  0  0  0  0  0  0
   -0.6502    2.6238    0.0000 C   0  0  0  0  0  0  0  0  0  0  0  0
    0.6451    1.8674    0.0000 C   0  0  0  0  0  0  0  0  0  0  0  0
    3.2542    0.3484    0.0000 C   0  0  0  0  0  0  0  0  0  0  0  0
   -1.9529    1.8802    0.0000 C   0  0  0  0  0  0  0  0  0  0  0  0
    4.5593   -0.3909    0.0000 O   0  0  0  0  0  0  0  0  0  0  0  0
   -1.9603    0.3802    0.0000 O   0  0  0  0  0  0  0  0  0  0  0  0
   -3.2483    2.6365    0.0000 O   0  0  0  0  0  0  0  0  0  0  0  0
  3  1  2  0
  4  2  1  0
  6  1  1  0
  6  2  2  0
  6  5  1  0
  7  3  1  0
  7  4  2  0
  8  5  1  0
  9  7  1  0
 10  8  2  0
 11  8  1  0
M  END
>  <NAME>  (3369) 
2-(4-HYDROXYPHENYL)ETHANOIC ACID

>  <SYNONYMS>  (3369) 
P-HYDROXYPHENYLACETIC ACID

>  <SPECTRUM TYPE>  (3369) 
MS1

>  <INSTRUMENT TYPE>  (3369) 
EI-B

>  <INSTRUMENT>  (3369) 
HITACHI M-52

>  <ION MODE>  (3369) 
P

>  <INCHIKEY>  (3369) 
XQXPVVBIMDBYFF-UHFFFAOYSA-N

>  <FORMULA>  (3369) 
C8H8O3

>  <EXACT MASS>  (3369) 
152.04734411599998

>  <MW>  (3369) 
152

>  <ID>  (3369) 
JP007234

>  <CONTRIBUTOR>  (3369) 
University of Tokyo Team, {Faculty of Engineering, University of Tokyo

>  <COMMENT>  (3369) 
SMILES=OC(=O)Cc(c1)ccc(O)c1
InChI=InChI=1S/C8H8O3/c9-7-3-1-6(2-4-7)5-8(10)11/h1-4,9H,5H2,(H,10,11)
computed SMILES=O=C(O)CC1=CC=C(O)C=C1
author=ENDO K, PHARMACEUTICAL INST., TOHOKU UNIV.
accession=JP007234
date=2016.01.19 (Created 2008.10.21, modified 2011.05.06)
license=CC BY-NC-SA
exact mass=152.04734
ionization energy=70 eV
ion type=[M]+*
computed spectral entropy=2.686702243185034
computed normalized entropy=0.6735304558310028
SPLASH=splash10-0a4i-6900000000-fdb73325a31c758496e9
submitter=submitter = University of Tokyo Team (Faculty of Engineering, University of Tokyo)
MoNA Rating=3.75

>  <NUM PEAKS>  (3369) 
54

>  <MASS SPECTRAL PEAKS>  (3369) 
39 4.8
40 1.2
41 5.6
42 0.2
43 6
44 1.2
45 2
49 0.12
50 4
51 5.6
52 3.6
53 0.32
54 1.2
55 6
56 1.2
57 0.92
58 1.2
67 2.8
68 1.6
69 5.2
70 0.12
71 4
73 3.2
74 1.6
77 1.64
78 4
79 5.6
81 2.4
82 0.16
83 2.8
84 1.2
85 2.4
91 0.32
95 1.6
96 1.6
97 1.6
98 0.12
99 1.2
101 1.2
105 1.6
107 99.99
108 10.8
109 2.8
111 1.2
119 0.16
121 1.2
123 1.2
127 1.2
129 0.2
135 1.2
147 1.2
149 2.8
152 3.24
153 2.8

$$$$

     RDKit          2D

 13 13  0  0  0  0  0  0  0  0999 V2000
   -1.9139    3.7324    0.0000 C   0  0  0  0  0  0  0  0  0  0  0  0
   -3.2134   -0.0180    0.0000 C   0  0  0  0  0  0  0  0  0  0  0  0
    1.9837    1.4833    0.0000 C   0  0  0  0  0  0  0  0  0  0  0  0
    0.6847    2.2333    0.0000 C   0  0  0  0  0  0  0  0  0  0  0  0
    0.6837   -0.7684    0.0000 C   0  0  0  0  0  0  0  0  0  0  0  0
    1.9832   -0.0176    0.0000 C   0  0  0  0  0  0  0  0  0  0  0  0
   -0.6148    1.4824    0.0000 C   0  0  0  0  0  0  0  0  0  0  0  0
   -0.6153   -0.0184    0.0000 C   0  0  0  0  0  0  0  0  0  0  0  0
    3.2823   -0.7676    0.0000 C   0  0  0  0  0  0  0  0  0  0  0  0
    3.2823   -2.2676    0.0000 O   0  0  0  0  0  0  0  0  0  0  0  0
    4.5813   -0.0176    0.0000 O   0  0  0  0  0  0  0  0  0  0  0  0
   -1.9139    2.2324    0.0000 O   0  0  0  0  0  0  0  0  0  0  0  0
   -1.9145   -0.7682    0.0000 O   0  0  0  0  0  0  0  0  0  0  0  0
  4  3  2  0
  6  3  1  0
  6  5  2  0
  7  4  1  0
  8  5  1  0
  8  7  2  0
  9  6  1  0
 10  9  2  0
 11  9  1  0
 12  1  1  0
 12  7  1  0
 13  2  1  0
 13  8  1  0
M  END
>  <NAME>  (3370) 
3,4-DIMETHOXYBENZOIC ACID

>  <SYNONYMS>  (3370) 


>  <SPECTRUM TYPE>  (3370) 
MS1

>  <INSTRUMENT TYPE>  (3370) 
EI-B

>  <INSTRUMENT>  (3370) 
HITACHI M-52

>  <ION MODE>  (3370) 
P

>  <INCHIKEY>  (3370) 
DAUAQNGYDSHRET-UHFFFAOYSA-N

>  <FORMULA>  (3370) 
C9H10O4

>  <EXACT MASS>  (3370) 
182.0579088

>  <MW>  (3370) 
182

>  <ID>  (3370) 
JP007232

>  <CONTRIBUTOR>  (3370) 
University of Tokyo Team, {Faculty of Engineering, University of Tokyo

>  <COMMENT>  (3370) 
SMILES=COc(c1)c(OC)cc(c1)C(O)=O
cas=93-07-2
InChI=InChI=1S/C9H10O4/c1-12-7-4-3-6(9(10)11)5-8(7)13-2/h3-5H,1-2H3,(H,10,11)
computed SMILES=O=C(O)C1=CC=C(OC)C(OC)=C1
accession=JP007232
date=2016.01.19 (Created 2008.10.21, modified 2011.05.06)
author=ENDO K, PHARMACEUTICAL INST., TOHOKU UNIV.
license=CC BY-NC-SA
exact mass=182.05791
ionization energy=70 eV
ion type=[M]+*
computed spectral entropy=3.348640910388366
computed normalized entropy=0.7641763023281072
SPLASH=splash10-001i-6900000000-4a8e98b69d84f09a207d
submitter=submitter = University of Tokyo Team (Faculty of Engineering, University of Tokyo)
MoNA Rating=3.75

>  <NUM PEAKS>  (3370) 
80

>  <MASS SPECTRAL PEAKS>  (3370) 
39 4.6
40 2.5
41 6.4
42 0.16
43 5.9
44 1.3
45 3.3
50 0.64
51 10.9
52 2.3
53 4.9
55 0.6
56 2.5
57 7.4
59 1.2
60 0.16
61 1.9
62 3.4
63 6.3
64 0.15
65 6.1
66 1.2
67 5
68 0.42
69 5.3
70 1.7
71 3
73 0.24
74 1.8
76 3.1
77 17.1
78 0.26
79 12.8
80 2.2
81 6.6
82 0.16
83 3
84 1.1
85 1.6
91 0.27
92 2.4
93 7.5
94 3
95 1.76
96 4.7
97 2
98 1
105 0.14
107 3.5
108 1.4
109 3
111 1.72
112 2
115 1
119 5.7
120 0.11
121 15
122 3
123 1.2
124 0.1
125 2
129 1.1
135 1.3
136 0.2
137 3.4
138 1.1
139 7.7
149 0.71
150 1.2
151 2
157 1.2
165 0.66
166 2.7
167 34.7
168 3.1
169 0.14
181 1.1
182 99.99
183 11.7
184 1.6

$$$$

     RDKit          2D

  8  7  0  0  0  0  0  0  0  0999 V2000
   -6.4952    4.5000    0.0000 C   0  0  0  0  0  0  0  0  0  0  0  0
    2.5981    3.7500    0.0000 C   0  0  0  0  0  0  0  0  0  0  0  0
   -5.1962    3.7500    0.0000 C   0  0  0  0  0  0  0  0  0  0  0  0
    1.2990    4.5000    0.0000 C   0  0  0  0  0  0  0  0  0  0  0  0
   -2.5981    3.7500    0.0000 C   0  0  0  0  0  0  0  0  0  0  0  0
   -1.2990    4.5000    0.0000 C   0  0  0  0  0  0  0  0  0  0  0  0
   -3.8971    4.5000    0.0000 O   0  0  0  0  0  0  0  0  0  0  0  0
    0.0000    3.7500    0.0000 O   0  0  0  0  0  0  0  0  0  0  0  0
  3  1  1  0
  4  2  1  0
  6  5  1  0
  7  3  1  0
  7  5  1  0
  8  4  1  0
  8  6  1  0
M  END
>  <NAME>  (3371) 
ETHYLENE GLYCOL DIETHYL ETHER

>  <SYNONYMS>  (3371) 


>  <SPECTRUM TYPE>  (3371) 
MS1

>  <INSTRUMENT TYPE>  (3371) 
EI-B

>  <INSTRUMENT>  (3371) 
HITACHI M-80B

>  <ION MODE>  (3371) 
P

>  <INCHIKEY>  (3371) 
LZDKZFUFMNSQCJ-UHFFFAOYSA-N

>  <FORMULA>  (3371) 
C6H14O2

>  <EXACT MASS>  (3371) 
118.099379688

>  <MW>  (3371) 
118

>  <ID>  (3371) 
JP007227

>  <CONTRIBUTOR>  (3371) 
University of Tokyo Team, {Faculty of Engineering, University of Tokyo

>  <COMMENT>  (3371) 
SMILES=CCOCCOCC
InChI=InChI=1S/C6H14O2/c1-3-7-5-6-8-4-2/h3-6H2,1-2H3
computed SMILES=O(CC)CCOCC
accession=JP007227
date=2016.01.19 (Created 2008.10.21, modified 2011.05.06)
author=SODA AROMATIC CO., LTD.
license=CC BY-NC-SA
exact mass=118.09938
ionization energy=70 eV
ion type=[M]+*
computed spectral entropy=2.3175254244790513
computed normalized entropy=0.719979753979464
SPLASH=splash10-0561-9000000000-c5935820b1c819977449
submitter=submitter = University of Tokyo Team (Faculty of Engineering, University of Tokyo)
MoNA Rating=3.75

>  <NUM PEAKS>  (3371) 
25

>  <MASS SPECTRAL PEAKS>  (3371) 
15 3.38
19 1.4
26 2.77
27 26.31
28 9.39
29 45.81
30 1.67
31 99.99
41 5.19
42 1.9
43 16.94
44 10.84
45 56.77
46 1.35
47 3.52
51 1
58 1.22
59 97.67
60 2.66
61 2.43
72 3.19
73 6.95
74 43.55
75 2.09
118 1.8

$$$$

     RDKit          2D

  8  7  0  0  0  0  0  0  0  0999 V2000
   -6.4952    4.5000    0.0000 C   0  0  0  0  0  0  0  0  0  0  0  0
    2.5981    3.7500    0.0000 C   0  0  0  0  0  0  0  0  0  0  0  0
   -5.1962    3.7500    0.0000 C   0  0  0  0  0  0  0  0  0  0  0  0
    1.2990    4.5000    0.0000 C   0  0  0  0  0  0  0  0  0  0  0  0
   -2.5981    3.7500    0.0000 C   0  0  0  0  0  0  0  0  0  0  0  0
   -1.2990    4.5000    0.0000 C   0  0  0  0  0  0  0  0  0  0  0  0
   -3.8971    4.5000    0.0000 O   0  0  0  0  0  0  0  0  0  0  0  0
    0.0000    3.7500    0.0000 O   0  0  0  0  0  0  0  0  0  0  0  0
  3  1  1  0
  4  2  1  0
  6  5  1  0
  7  3  1  0
  7  5  1  0
  8  4  1  0
  8  6  1  0
M  END
>  <NAME>  (3372) 
ETHYLENE GLYCOL DIETHYL ETHER

>  <SYNONYMS>  (3372) 


>  <SPECTRUM TYPE>  (3372) 
MS1

>  <INSTRUMENT TYPE>  (3372) 
EI-B

>  <INSTRUMENT>  (3372) 
HITACHI M-80B

>  <ION MODE>  (3372) 
P

>  <INCHIKEY>  (3372) 
LZDKZFUFMNSQCJ-UHFFFAOYSA-N

>  <FORMULA>  (3372) 
C6H14O2

>  <EXACT MASS>  (3372) 
118.099379688

>  <MW>  (3372) 
118

>  <ID>  (3372) 
JP007226

>  <CONTRIBUTOR>  (3372) 
University of Tokyo Team, {Faculty of Engineering, University of Tokyo

>  <COMMENT>  (3372) 
SMILES=CCOCCOCC
InChI=InChI=1S/C6H14O2/c1-3-7-5-6-8-4-2/h3-6H2,1-2H3
computed SMILES=O(CC)CCOCC
accession=JP007226
date=2016.01.19 (Created 2008.10.21, modified 2011.05.06)
author=SODA AROMATIC CO., LTD.
license=CC BY-NC-SA
exact mass=118.09938
ionization energy=70 eV
ion type=[M]+*
computed spectral entropy=2.3175254244790513
computed normalized entropy=0.719979753979464
SPLASH=splash10-0561-9000000000-c5935820b1c819977449
submitter=submitter = University of Tokyo Team (Faculty of Engineering, University of Tokyo)
MoNA Rating=3.75

>  <NUM PEAKS>  (3372) 
25

>  <MASS SPECTRAL PEAKS>  (3372) 
15 3.38
19 1.4
26 2.77
27 26.31
28 9.39
29 45.81
30 1.67
31 99.99
41 5.19
42 1.9
43 16.94
44 10.84
45 56.77
46 1.35
47 3.52
51 1
58 1.22
59 97.67
60 2.66
61 2.43
72 3.19
73 6.95
74 43.55
75 2.09
118 1.8

$$$$

     RDKit          2D

  9  8  0  0  0  0  0  0  0  0999 V2000
   -6.4952    4.5000    0.0000 C   0  0  0  0  0  0  0  0  0  0  0  0
    2.5981    3.7500    0.0000 C   0  0  0  0  0  0  0  0  0  0  0  0
   -5.1962    3.7500    0.0000 C   0  0  0  0  0  0  0  0  0  0  0  0
    1.2990    4.5000    0.0000 C   0  0  0  0  0  0  0  0  0  0  0  0
   -3.8971    4.5000    0.0000 C   0  0  0  0  0  0  0  0  0  0  0  0
   -2.5981    3.7500    0.0000 C   0  0  0  0  0  0  0  0  0  0  0  0
   -1.2990    4.5000    0.0000 C   0  0  0  0  0  0  0  0  0  0  0  0
   -1.2990    6.0000    0.0000 O   0  0  0  0  0  0  0  0  0  0  0  0
   -0.0000    3.7500    0.0000 O   0  0  0  0  0  0  0  0  0  0  0  0
  3  1  1  0
  4  2  1  0
  5  3  1  0
  6  5  1  0
  7  6  1  0
  8  7  2  0
  9  4  1  0
  9  7  1  0
M  END
>  <NAME>  (3373) 
ETHYL VALERATE

>  <SYNONYMS>  (3373) 


>  <SPECTRUM TYPE>  (3373) 
MS1

>  <INSTRUMENT TYPE>  (3373) 
EI-B

>  <INSTRUMENT>  (3373) 
HITACHI M-80B

>  <ION MODE>  (3373) 
P

>  <INCHIKEY>  (3373) 
ICMAFTSLXCXHRK-UHFFFAOYSA-N

>  <FORMULA>  (3373) 
C7H14O2

>  <EXACT MASS>  (3373) 
130.099379688

>  <MW>  (3373) 
130

>  <ID>  (3373) 
JP007225

>  <CONTRIBUTOR>  (3373) 
University of Tokyo Team, {Faculty of Engineering, University of Tokyo

>  <COMMENT>  (3373) 
SMILES=CCCCC(=O)OCC
InChI=InChI=1S/C7H14O2/c1-3-5-6-7(8)9-4-2/h3-6H2,1-2H3
computed SMILES=O=C(OCC)CCCC
accession=JP007225
date=2016.01.19 (Created 2008.10.21, modified 2011.05.06)
author=SODA AROMATIC CO., LTD.
license=CC BY-NC-SA
exact mass=130.09938
ionization energy=70 eV
ion type=[M]+*
computed spectral entropy=2.919039028052251
computed normalized entropy=0.7967762822105251
SPLASH=splash10-002r-9000000000-909ffa0990cafcc628c8
submitter=submitter = University of Tokyo Team (Faculty of Engineering, University of Tokyo)
MoNA Rating=3.75

>  <NUM PEAKS>  (3373) 
39

>  <MASS SPECTRAL PEAKS>  (3373) 
15 2.74
26 4.88
27 44.18
28 18.59
29 94.44
30 2.24
31 2.66
38 1.23
39 16.4
40 1.98
41 43.73
42 12.45
43 13.93
44 1.51
45 20.12
51 1.02
53 2.3
55 15.95
56 10.89
57 67.19
58 3.1
59 2.16
60 46.01
61 23.51
70 17.27
73 25.23
74 2.48
83 1.85
84 1.22
85 88.36
86 4.15
87 2.32
88 99.99
89 3.66
101 24.8
102 2.76
103 7.16
115 1.88
130 1.89

$$$$

     RDKit          2D

 10 10  0  0  0  0  0  0  0  0999 V2000
    3.8971   -0.7500    0.0000 C   0  0  0  0  0  0  0  0  0  0  0  0
   -3.8971    0.7500    0.0000 C   0  0  0  0  0  0  0  0  0  0  0  0
    1.2995    0.7508    0.0000 C   0  0  0  0  0  0  0  0  0  0  0  0
   -0.0005   -1.5008    0.0000 C   0  0  0  0  0  0  0  0  0  0  0  0
    0.0005    1.5008    0.0000 C   0  0  0  0  0  0  0  0  0  0  0  0
   -1.2995   -0.7508    0.0000 C   0  0  0  0  0  0  0  0  0  0  0  0
    1.2990   -0.7500    0.0000 C   0  0  0  0  0  0  0  0  0  0  0  0
   -1.2990    0.7500    0.0000 C   0  0  0  0  0  0  0  0  0  0  0  0
    2.5981   -1.5000    0.0000 O   0  0  0  0  0  0  0  0  0  0  0  0
   -2.5981    1.5000    0.0000 O   0  0  0  0  0  0  0  0  0  0  0  0
  5  3  2  0
  6  4  1  0
  7  3  1  0
  7  4  2  0
  8  5  1  0
  8  6  2  0
  9  1  1  0
  9  7  1  0
 10  2  1  0
 10  8  1  0
M  END
>  <NAME>  (3374) 
P-DIMETHOXYBENZENE

>  <SYNONYMS>  (3374) 


>  <SPECTRUM TYPE>  (3374) 
MS1

>  <INSTRUMENT TYPE>  (3374) 
EI-B

>  <INSTRUMENT>  (3374) 
HITACHI M-80B

>  <ION MODE>  (3374) 
P

>  <INCHIKEY>  (3374) 
OHBQPCCCRFSCAX-UHFFFAOYSA-N

>  <FORMULA>  (3374) 
C8H10O2

>  <EXACT MASS>  (3374) 
138.06807956

>  <MW>  (3374) 
138

>  <ID>  (3374) 
JP007224

>  <CONTRIBUTOR>  (3374) 
University of Tokyo Team, {Faculty of Engineering, University of Tokyo

>  <COMMENT>  (3374) 
SMILES=COc(c1)ccc(OC)c1
InChI=InChI=1S/C8H10O2/c1-9-7-3-5-8(10-2)6-4-7/h3-6H,1-2H3
computed SMILES=O(C1=CC=C(OC)C=C1)C
accession=JP007224
date=2016.01.19 (Created 2008.10.21, modified 2011.05.06)
author=SODA AROMATIC CO., LTD.
license=CC BY-NC-SA
exact mass=138.06808
ionization energy=70 eV
ion type=[M]+*
computed spectral entropy=2.6376121642671704
computed normalized entropy=0.7418717151316591
SPLASH=splash10-00dr-7900000000-0d29222a67c465237ce2
submitter=submitter = University of Tokyo Team (Faculty of Engineering, University of Tokyo)
MoNA Rating=3.75

>  <NUM PEAKS>  (3374) 
35

>  <MASS SPECTRAL PEAKS>  (3374) 
15 7.32
26 3.67
27 1.34
29 2.05
38 3.79
39 6.3
41 15.38
50 4.71
51 7.37
52 10.02
53 6.91
54 6.59
55 1.14
61 1.11
62 3.13
63 11.5
64 10.51
65 7.16
66 1.32
67 1.87
69 1.43
74 1.36
77 5.8
79 3.36
80 6.7
82 1.55
92 6.05
95 35.4
96 2.09
107 1.67
108 1.76
123 99.99
124 7.99
138 82.02
139 7.57

$$$$

     RDKit          2D

 10 10  0  0  0  0  0  0  0  0999 V2000
    3.8971   -0.7500    0.0000 C   0  0  0  0  0  0  0  0  0  0  0  0
   -3.8971    0.7500    0.0000 C   0  0  0  0  0  0  0  0  0  0  0  0
    1.2995    0.7508    0.0000 C   0  0  0  0  0  0  0  0  0  0  0  0
   -0.0005   -1.5008    0.0000 C   0  0  0  0  0  0  0  0  0  0  0  0
    0.0005    1.5008    0.0000 C   0  0  0  0  0  0  0  0  0  0  0  0
   -1.2995   -0.7508    0.0000 C   0  0  0  0  0  0  0  0  0  0  0  0
    1.2990   -0.7500    0.0000 C   0  0  0  0  0  0  0  0  0  0  0  0
   -1.2990    0.7500    0.0000 C   0  0  0  0  0  0  0  0  0  0  0  0
    2.5981   -1.5000    0.0000 O   0  0  0  0  0  0  0  0  0  0  0  0
   -2.5981    1.5000    0.0000 O   0  0  0  0  0  0  0  0  0  0  0  0
  5  3  2  0
  6  4  1  0
  7  3  1  0
  7  4  2  0
  8  5  1  0
  8  6  2  0
  9  1  1  0
  9  7  1  0
 10  2  1  0
 10  8  1  0
M  END
>  <NAME>  (3375) 
P-DIMETHOXYBENZENE

>  <SYNONYMS>  (3375) 


>  <SPECTRUM TYPE>  (3375) 
MS1

>  <INSTRUMENT TYPE>  (3375) 
EI-B

>  <INSTRUMENT>  (3375) 
HITACHI M-80B

>  <ION MODE>  (3375) 
P

>  <INCHIKEY>  (3375) 
OHBQPCCCRFSCAX-UHFFFAOYSA-N

>  <FORMULA>  (3375) 
C8H10O2

>  <EXACT MASS>  (3375) 
138.06807956

>  <MW>  (3375) 
138

>  <ID>  (3375) 
JP007223

>  <CONTRIBUTOR>  (3375) 
University of Tokyo Team, {Faculty of Engineering, University of Tokyo

>  <COMMENT>  (3375) 
SMILES=COc(c1)ccc(OC)c1
InChI=InChI=1S/C8H10O2/c1-9-7-3-5-8(10-2)6-4-7/h3-6H,1-2H3
computed SMILES=O(C1=CC=C(OC)C=C1)C
accession=JP007223
date=2016.01.19 (Created 2008.10.21, modified 2011.05.06)
author=SODA AROMATIC CO., LTD.
license=CC BY-NC-SA
exact mass=138.06808
ionization energy=70 eV
ion type=[M]+*
computed spectral entropy=2.6376121642671704
computed normalized entropy=0.7418717151316591
SPLASH=splash10-00dr-7900000000-0d29222a67c465237ce2
submitter=submitter = University of Tokyo Team (Faculty of Engineering, University of Tokyo)
MoNA Rating=3.75

>  <NUM PEAKS>  (3375) 
35

>  <MASS SPECTRAL PEAKS>  (3375) 
15 7.32
26 3.67
27 1.34
29 2.05
38 3.79
39 6.3
41 15.38
50 4.71
51 7.37
52 10.02
53 6.91
54 6.59
55 1.14
61 1.11
62 3.13
63 11.5
64 10.51
65 7.16
66 1.32
67 1.87
69 1.43
74 1.36
77 5.8
79 3.36
80 6.7
82 1.55
92 6.05
95 35.4
96 2.09
107 1.67
108 1.76
123 99.99
124 7.99
138 82.02
139 7.57

$$$$

     RDKit          2D

 10 10  0  0  0  0  0  0  0  0999 V2000
   -4.8712    2.0071    0.0000 C   0  0  0  0  0  0  0  0  0  0  0  0
    2.9231    0.5071    0.0000 C   0  0  0  0  0  0  0  0  0  0  0  0
    2.9236    2.0079    0.0000 C   0  0  0  0  0  0  0  0  0  0  0  0
    1.6236   -0.2437    0.0000 C   0  0  0  0  0  0  0  0  0  0  0  0
    1.6245    2.7579    0.0000 C   0  0  0  0  0  0  0  0  0  0  0  0
    0.3245    0.5063    0.0000 C   0  0  0  0  0  0  0  0  0  0  0  0
   -0.9740    2.7571    0.0000 C   0  0  0  0  0  0  0  0  0  0  0  0
   -2.2731    2.0071    0.0000 C   0  0  0  0  0  0  0  0  0  0  0  0
    0.3250    2.0071    0.0000 C   0  0  0  0  0  0  0  0  0  0  0  0
   -3.5721    2.7571    0.0000 O   0  0  0  0  0  0  0  0  0  0  0  0
  3  2  2  0
  4  2  1  0
  5  3  1  0
  6  4  2  0
  8  7  1  0
  9  5  2  0
  9  6  1  0
  9  7  1  0
 10  1  1  0
 10  8  1  0
M  END
>  <NAME>  (3376) 
METHYL PHENYLETHYL ETHER

>  <SYNONYMS>  (3376) 


>  <SPECTRUM TYPE>  (3376) 
MS1

>  <INSTRUMENT TYPE>  (3376) 
EI-B

>  <INSTRUMENT>  (3376) 
HITACHI M-80B

>  <ION MODE>  (3376) 
P

>  <INCHIKEY>  (3376) 
CQLYXIUHVFRXLT-UHFFFAOYSA-N

>  <FORMULA>  (3376) 
C9H12O

>  <EXACT MASS>  (3376) 
136.088815004

>  <MW>  (3376) 
136

>  <ID>  (3376) 
JP007222

>  <CONTRIBUTOR>  (3376) 
University of Tokyo Team, {Faculty of Engineering, University of Tokyo

>  <COMMENT>  (3376) 
SMILES=COCCc(c1)cccc1
InChI=InChI=1S/C9H12O/c1-10-8-7-9-5-3-2-4-6-9/h2-6H,7-8H2,1H3
computed SMILES=O(C)CCC=1C=CC=CC1
accession=JP007222
date=2016.01.19 (Created 2008.10.21, modified 2011.05.06)
author=SODA AROMATIC CO., LTD.
license=CC BY-NC-SA
exact mass=136.08882
ionization energy=70 eV
ion type=[M]+*
computed spectral entropy=2.1203675119570358
computed normalized entropy=0.6762466666929255
SPLASH=splash10-0002-9200000000-f99e8bfe8490bea5575b
submitter=submitter = University of Tokyo Team (Faculty of Engineering, University of Tokyo)
MoNA Rating=3.75

>  <NUM PEAKS>  (3376) 
23

>  <MASS SPECTRAL PEAKS>  (3376) 
15 2.75
18 1.52
27 1.84
29 3.79
39 5.19
45 99.99
46 2.1
50 2.45
51 5.23
52 1.27
63 2.98
65 9.18
77 5.2
78 2.65
79 1.78
89 1.78
91 37.12
92 2.89
103 3.38
104 9.67
105 3.42
136 23.86
137 2.31

$$$$

     RDKit          2D

 10 10  0  0  0  0  0  0  0  0999 V2000
   -4.8712    2.0071    0.0000 C   0  0  0  0  0  0  0  0  0  0  0  0
   -3.5721    2.7571    0.0000 C   0  0  0  0  0  0  0  0  0  0  0  0
    2.9231    0.5071    0.0000 C   0  0  0  0  0  0  0  0  0  0  0  0
    2.9236    2.0079    0.0000 C   0  0  0  0  0  0  0  0  0  0  0  0
    1.6236   -0.2437    0.0000 C   0  0  0  0  0  0  0  0  0  0  0  0
    1.6245    2.7579    0.0000 C   0  0  0  0  0  0  0  0  0  0  0  0
    0.3245    0.5063    0.0000 C   0  0  0  0  0  0  0  0  0  0  0  0
   -0.9740    2.7571    0.0000 C   0  0  0  0  0  0  0  0  0  0  0  0
    0.3250    2.0071    0.0000 C   0  0  0  0  0  0  0  0  0  0  0  0
   -2.2731    2.0071    0.0000 O   0  0  0  0  0  0  0  0  0  0  0  0
  2  1  1  0
  4  3  2  0
  5  3  1  0
  6  4  1  0
  7  5  2  0
  9  6  2  0
  9  7  1  0
  9  8  1  0
 10  2  1  0
 10  8  1  0
M  END
>  <NAME>  (3377) 
BENZYL ETHYL ETHER

>  <SYNONYMS>  (3377) 


>  <SPECTRUM TYPE>  (3377) 
MS1

>  <INSTRUMENT TYPE>  (3377) 
EI-B

>  <INSTRUMENT>  (3377) 
HITACHI M-80B

>  <ION MODE>  (3377) 
P

>  <INCHIKEY>  (3377) 
AXPZDYVDTMMLNB-UHFFFAOYSA-N

>  <FORMULA>  (3377) 
C9H12O

>  <EXACT MASS>  (3377) 
136.088815004

>  <MW>  (3377) 
136

>  <ID>  (3377) 
JP007221

>  <CONTRIBUTOR>  (3377) 
University of Tokyo Team, {Faculty of Engineering, University of Tokyo

>  <COMMENT>  (3377) 
SMILES=CCOCc(c1)cccc1
InChI=InChI=1S/C9H12O/c1-2-10-8-9-6-4-3-5-7-9/h3-7H,2,8H2,1H3
computed SMILES=O(CC=1C=CC=CC1)CC
accession=JP007221
date=2016.01.19 (Created 2008.10.21, modified 2011.05.06)
author=SODA AROMATIC CO., LTD.
license=CC BY-NC-SA
exact mass=136.08882
ionization energy=70 eV
ion type=[M]+*
computed spectral entropy=2.5502762380493578
computed normalized entropy=0.735854176306154
SPLASH=splash10-0006-9000000000-8b4140c12301419c1c80
submitter=submitter = University of Tokyo Team (Faculty of Engineering, University of Tokyo)
MoNA Rating=3.75

>  <NUM PEAKS>  (3377) 
32

>  <MASS SPECTRAL PEAKS>  (3377) 
15 1.61
26 1.33
27 8.49
29 8.46
30 1.75
31 2.77
38 1.37
39 11
41 2.21
43 1.58
50 4.63
51 12.12
52 2.55
53 1.44
62 1.38
63 5.83
64 1.59
65 17.74
77 19.62
78 3.5
79 35.94
80 2.26
89 5.15
90 2.67
91 99.99
92 83.2
93 5.87
105 2.25
107 15.64
108 2.04
135 8.63
136 6.71

$$$$

     RDKit          2D

 10 10  0  0  0  0  0  0  0  0999 V2000
   -5.2108   -1.5321    0.0000 C   0  0  0  0  0  0  0  0  0  0  0  0
    2.6027    1.4936    0.0000 C   0  0  0  0  0  0  0  0  0  0  0  0
   -3.9180   -0.7714    0.0000 C   0  0  0  0  0  0  0  0  0  0  0  0
    1.3000   -0.7500    0.0000 C   0  0  0  0  0  0  0  0  0  0  0  0
    0.0300    1.5000    0.0000 C   0  0  0  0  0  0  0  0  0  0  0  0
    0.0300   -1.5000    0.0000 C   0  0  0  0  0  0  0  0  0  0  0  0
   -1.3200    0.7500    0.0000 C   0  0  0  0  0  0  0  0  0  0  0  0
    1.3000    0.7500    0.0000 C   0  0  0  0  0  0  0  0  0  0  0  0
   -1.3200   -0.7500    0.0000 C   0  0  0  0  0  0  0  0  0  0  0  0
   -2.6128   -1.5107    0.0000 O   0  0  0  0  0  0  0  0  0  0  0  0
  3  1  1  0
  6  4  2  0
  7  5  1  0
  8  2  1  0
  8  4  1  0
  8  5  2  0
  9  6  1  0
  9  7  2  0
 10  3  1  0
 10  9  1  0
M  END
>  <NAME>  (3378) 
P-CRESYL ETHYL ETHER

>  <SYNONYMS>  (3378) 


>  <SPECTRUM TYPE>  (3378) 
MS1

>  <INSTRUMENT TYPE>  (3378) 
EI-B

>  <INSTRUMENT>  (3378) 
HITACHI M-80B

>  <ION MODE>  (3378) 
P

>  <INCHIKEY>  (3378) 
WSWPHHNIHLTAHB-UHFFFAOYSA-N

>  <FORMULA>  (3378) 
C9H12O

>  <EXACT MASS>  (3378) 
136.088815004

>  <MW>  (3378) 
136

>  <ID>  (3378) 
JP007220

>  <CONTRIBUTOR>  (3378) 
University of Tokyo Team, {Faculty of Engineering, University of Tokyo

>  <COMMENT>  (3378) 
SMILES=CCOc(c1)ccc(C)c1
InChI=InChI=1S/C9H12O/c1-3-10-9-6-4-8(2)5-7-9/h4-7H,3H2,1-2H3
computed SMILES=O(C1=CC=C(C=C1)C)CC
author=SODA AROMATIC CO., LTD.
license=CC BY-NC-SA
exact mass=136.08882
accession=JP007220
date=2016.01.19 (Created 2008.10.21, modified 2011.05.06)
ionization energy=70 eV
ion type=[M]+*
computed spectral entropy=2.596432197472917
computed normalized entropy=0.7710733860539205
SPLASH=splash10-0a4i-6900000000-2b46767681701313373f
submitter=submitter = University of Tokyo Team (Faculty of Engineering, University of Tokyo)
MoNA Rating=3.75

>  <NUM PEAKS>  (3378) 
29

>  <MASS SPECTRAL PEAKS>  (3378) 
26 2.46
27 19.09
29 10.51
38 1.31
39 11.09
41 1.36
43 1.3
50 4.23
51 12.44
52 7.37
53 7.73
55 1.12
62 1.43
63 4.03
64 1.26
65 9.03
77 25.41
78 8.47
79 15.98
80 9.16
89 2.34
90 8.7
91 10.18
93 1.06
107 75.07
108 99.99
109 7.26
136 55.38
137 4.4

$$$$

     RDKit          2D

  9  9  0  0  0  0  0  0  0  0999 V2000
    4.8270    1.2906    0.0000 C   0  0  0  0  0  0  0  0  0  0  0  0
    3.5281    0.5404    0.0000 C   0  0  0  0  0  0  0  0  0  0  0  0
   -1.6700   -0.9600    0.0000 C   0  0  0  0  0  0  0  0  0  0  0  0
   -1.6700    0.5400    0.0000 C   0  0  0  0  0  0  0  0  0  0  0  0
   -0.3700   -1.7100    0.0000 C   0  0  0  0  0  0  0  0  0  0  0  0
   -0.3700    1.2900    0.0000 C   0  0  0  0  0  0  0  0  0  0  0  0
    0.9300   -0.9600    0.0000 C   0  0  0  0  0  0  0  0  0  0  0  0
    0.9300    0.5400    0.0000 C   0  0  0  0  0  0  0  0  0  0  0  0
    2.2289    1.2902    0.0000 O   0  0  0  0  0  0  0  0  0  0  0  0
  2  1  1  0
  4  3  2  0
  5  3  1  0
  6  4  1  0
  7  5  2  0
  8  6  2  0
  8  7  1  0
  9  2  1  0
  9  8  1  0
M  END
>  <NAME>  (3379) 
ETHYL PHENYL ETHER

>  <SYNONYMS>  (3379) 


>  <SPECTRUM TYPE>  (3379) 
MS1

>  <INSTRUMENT TYPE>  (3379) 
EI-B

>  <INSTRUMENT>  (3379) 
HITACHI M-80B

>  <ION MODE>  (3379) 
P

>  <INCHIKEY>  (3379) 
DLRJIFUOBPOJNS-UHFFFAOYSA-N

>  <FORMULA>  (3379) 
C8H10O

>  <EXACT MASS>  (3379) 
122.07316494

>  <MW>  (3379) 
122

>  <ID>  (3379) 
JP007219

>  <CONTRIBUTOR>  (3379) 
University of Tokyo Team, {Faculty of Engineering, University of Tokyo

>  <COMMENT>  (3379) 
SMILES=CCOc(c1)cccc1
InChI=InChI=1S/C8H10O/c1-2-9-8-6-4-3-5-7-8/h3-7H,2H2,1H3
computed SMILES=O(C=1C=CC=CC1)CC
accession=JP007219
date=2016.01.19 (Created 2008.10.21, modified 2011.05.06)
author=SODA AROMATIC CO., LTD.
license=CC BY-NC-SA
exact mass=122.07316
ionization energy=70 eV
ion type=[M]+*
computed spectral entropy=2.1874885417749557
computed normalized entropy=0.7076863468498535
SPLASH=splash10-0006-9100000000-74dcd4866615d45b75e6
submitter=submitter = University of Tokyo Team (Faculty of Engineering, University of Tokyo)
MoNA Rating=3.75

>  <NUM PEAKS>  (3379) 
22

>  <MASS SPECTRAL PEAKS>  (3379) 
26 1.58
27 8.85
29 5.8
38 2.35
39 14.86
40 2.56
50 2.89
51 8.72
55 2.34
62 1.28
63 3.45
64 1.45
65 12.86
66 18.66
77 9
78 1.07
79 1.31
93 1.63
94 99.99
95 7.21
122 38.94
123 3.1

$$$$

     RDKit          2D

  9  9  0  0  0  0  0  0  0  0999 V2000
    2.6027    1.4936    0.0000 C   0  0  0  0  0  0  0  0  0  0  0  0
   -3.9180   -0.7714    0.0000 C   0  0  0  0  0  0  0  0  0  0  0  0
    1.3000   -0.7500    0.0000 C   0  0  0  0  0  0  0  0  0  0  0  0
    0.0300    1.5000    0.0000 C   0  0  0  0  0  0  0  0  0  0  0  0
    0.0300   -1.5000    0.0000 C   0  0  0  0  0  0  0  0  0  0  0  0
   -1.3200    0.7500    0.0000 C   0  0  0  0  0  0  0  0  0  0  0  0
    1.3000    0.7500    0.0000 C   0  0  0  0  0  0  0  0  0  0  0  0
   -1.3200   -0.7500    0.0000 C   0  0  0  0  0  0  0  0  0  0  0  0
   -2.6128   -1.5107    0.0000 O   0  0  0  0  0  0  0  0  0  0  0  0
  5  3  2  0
  6  4  1  0
  7  1  1  0
  7  3  1  0
  7  4  2  0
  8  5  1  0
  8  6  2  0
  9  2  1  0
  9  8  1  0
M  END
>  <NAME>  (3380) 
P-CRESYL METHYL ETHER

>  <SYNONYMS>  (3380) 


>  <SPECTRUM TYPE>  (3380) 
MS1

>  <INSTRUMENT TYPE>  (3380) 
EI-B

>  <INSTRUMENT>  (3380) 
HITACHI M-80B

>  <ION MODE>  (3380) 
P

>  <INCHIKEY>  (3380) 
CHLICZRVGGXEOD-UHFFFAOYSA-N

>  <FORMULA>  (3380) 
C8H10O

>  <EXACT MASS>  (3380) 
122.07316494

>  <MW>  (3380) 
122

>  <ID>  (3380) 
JP007218

>  <CONTRIBUTOR>  (3380) 
University of Tokyo Team, {Faculty of Engineering, University of Tokyo

>  <COMMENT>  (3380) 
SMILES=COc(c1)ccc(C)c1
InChI=InChI=1S/C8H10O/c1-7-3-5-8(9-2)6-4-7/h3-6H,1-2H3
computed SMILES=O(C1=CC=C(C=C1)C)C
accession=JP007218
date=2016.01.19 (Created 2008.10.21, modified 2011.05.06)
author=SODA AROMATIC CO., LTD.
license=CC BY-NC-SA
exact mass=122.07316
ionization energy=70 eV
ion type=[M]+*
computed spectral entropy=2.7494235596980894
computed normalized entropy=0.7933159469759429
SPLASH=splash10-00fr-9700000000-8de5209fd4895b0fcbba
submitter=submitter = University of Tokyo Team (Faculty of Engineering, University of Tokyo)
MoNA Rating=3.75

>  <NUM PEAKS>  (3380) 
32

>  <MASS SPECTRAL PEAKS>  (3380) 
15 8.12
26 1.43
27 8.54
29 1.57
38 2.59
39 14.87
41 1.63
50 8.91
51 17.09
52 10.58
53 8.32
61 1.33
62 2.55
63 7.96
64 1.78
65 8.36
74 1.16
75 1.08
77 42.96
78 13.53
79 29.89
80 1.56
89 2.43
90 1.93
91 22.07
92 7.62
93 1.18
107 29.93
108 2.07
121 42.79
122 99.99
123 8.55

$$$$

     RDKit          2D

  9  9  0  0  0  0  0  0  0  0999 V2000
   -2.9298    0.5563    0.0000 C   0  0  0  0  0  0  0  0  0  0  0  0
    3.5660    1.3113    0.0000 C   0  0  0  0  0  0  0  0  0  0  0  0
   -0.3357    3.5491    0.0000 C   0  0  0  0  0  0  0  0  0  0  0  0
   -1.6302    2.8069    0.0000 C   0  0  0  0  0  0  0  0  0  0  0  0
    0.9634    2.7991    0.0000 C   0  0  0  0  0  0  0  0  0  0  0  0
   -0.3316    0.5561    0.0000 C   0  0  0  0  0  0  0  0  0  0  0  0
   -1.6307    1.3061    0.0000 C   0  0  0  0  0  0  0  0  0  0  0  0
    0.9679    1.3069    0.0000 C   0  0  0  0  0  0  0  0  0  0  0  0
    2.2682    0.5591    0.0000 O   0  0  0  0  0  0  0  0  0  0  0  0
  4  3  2  0
  5  3  1  0
  7  1  1  0
  7  4  1  0
  7  6  2  0
  8  5  2  0
  8  6  1  0
  9  2  1  0
  9  8  1  0
M  END
>  <NAME>  (3381) 
M-CRESYL METHYL ETHER

>  <SYNONYMS>  (3381) 


>  <SPECTRUM TYPE>  (3381) 
MS1

>  <INSTRUMENT TYPE>  (3381) 
EI-B

>  <INSTRUMENT>  (3381) 
HITACHI M-80B

>  <ION MODE>  (3381) 
P

>  <INCHIKEY>  (3381) 
OSIGJGFTADMDOB-UHFFFAOYSA-N

>  <FORMULA>  (3381) 
C8H10O

>  <EXACT MASS>  (3381) 
122.07316494

>  <MW>  (3381) 
122

>  <ID>  (3381) 
JP007217

>  <CONTRIBUTOR>  (3381) 
University of Tokyo Team, {Faculty of Engineering, University of Tokyo

>  <COMMENT>  (3381) 
SMILES=COc(c1)cc(C)cc1
InChI=InChI=1S/C8H10O/c1-7-4-3-5-8(6-7)9-2/h3-6H,1-2H3
computed SMILES=O(C1=CC=CC(=C1)C)C
accession=JP007217
date=2016.01.19 (Created 2008.10.21, modified 2011.05.06)
author=SODA AROMATIC CO., LTD.
license=CC BY-NC-SA
exact mass=122.07316
ionization energy=70 eV
ion type=[M]+*
computed spectral entropy=2.8609346713158987
computed normalized entropy=0.7983590209651514
SPLASH=splash10-00fu-9400000000-3a418263d092b569868d
submitter=submitter = University of Tokyo Team (Faculty of Engineering, University of Tokyo)
MoNA Rating=3.75

>  <NUM PEAKS>  (3381) 
36

>  <MASS SPECTRAL PEAKS>  (3381) 
15 7.22
26 1.11
27 7.38
29 2.06
37 1.26
38 5
39 22.04
40 1.47
41 1.94
50 8.09
51 16.66
52 9.83
53 9.01
61 1.55
62 4.03
63 9.69
64 2.6
65 11.01
66 1.23
74 1.39
75 1.12
76 1.09
77 43.02
78 13.21
79 32.92
80 1.9
89 3.74
90 2.05
91 47.1
92 21.18
93 5.71
107 17.36
108 1.35
121 11.87
122 99.99
123 8.89

$$$$

     RDKit          2D

 15 15  0  0  0  0  0  0  0  0999 V2000
    2.7195    1.0368    0.0000 C   0  0  0  0  0  0  0  0  0  0  0  0
    3.8687    1.0991    0.0000 C   0  0  0  0  0  0  0  0  0  0  0  0
   -3.1900    1.5500    0.0000 C   0  0  0  0  0  0  0  0  0  0  0  0
   -2.4400    0.2500    0.0000 C   0  0  0  0  0  0  0  0  0  0  0  0
   -2.4400    2.8500    0.0000 C   0  0  0  0  0  0  0  0  0  0  0  0
   -0.9400    0.2500    0.0000 C   0  0  0  0  0  0  0  0  0  0  0  0
   -0.9400    2.8500    0.0000 C   0  0  0  0  0  0  0  0  0  0  0  0
   -0.1900   -1.0500    0.0000 C   0  0  0  0  0  0  0  0  0  0  0  0
   -0.1900    4.1500    0.0000 C   0  0  0  0  0  0  0  0  0  0  0  0
    1.3100   -1.0500    0.0000 C   0  0  0  0  0  0  0  0  0  0  0  0
    1.3100    4.1500    0.0000 C   0  0  0  0  0  0  0  0  0  0  0  0
    2.0600    0.2500    0.0000 C   0  0  0  0  0  0  0  0  0  0  0  0
    2.0600    2.8500    0.0000 C   0  0  0  0  0  0  0  0  0  0  0  0
    1.3100    1.5500    0.0000 C   0  0  0  0  0  0  0  0  0  0  0  0
    2.7195    2.0632    0.0000 O   0  0  0  0  0  0  0  0  0  0  0  0
  4  3  1  0
  5  3  1  0
  6  4  1  0
  7  5  1  0
  8  6  1  0
  9  7  1  0
 10  8  1  0
 11  9  1  0
 12 10  1  0
 13 11  1  0
 14  1  1  0
 14 12  1  0
 14 13  1  0
 15  2  1  0
 15 14  1  0
M  END
>  <NAME>  (3382) 
1-METHOXY-1-METHYLCYCLODODECANE

>  <SYNONYMS>  (3382) 


>  <SPECTRUM TYPE>  (3382) 
MS1

>  <INSTRUMENT TYPE>  (3382) 
EI-B

>  <INSTRUMENT>  (3382) 
HITACHI M-80B

>  <ION MODE>  (3382) 
P

>  <INCHIKEY>  (3382) 
QACBYNLZEUNZSC-UHFFFAOYSA-N

>  <FORMULA>  (3382) 
C14H28O

>  <EXACT MASS>  (3382) 
212.21401551600002

>  <MW>  (3382) 
212

>  <ID>  (3382) 
JP007216

>  <CONTRIBUTOR>  (3382) 
University of Tokyo Team, {Faculty of Engineering, University of Tokyo

>  <COMMENT>  (3382) 
SMILES=COC(C)(C1)CCCCCCCCCC1
InChI=InChI=1S/C14H28O/c1-14(15-2)12-10-8-6-4-3-5-7-9-11-13-14/h3-13H2,1-2H3
computed SMILES=O(C)C1(C)CCCCCCCCCCC1
accession=JP007216
date=2016.01.19 (Created 2008.10.21, modified 2011.05.06)
author=SODA AROMATIC CO., LTD.
license=CC BY-NC-SA
exact mass=212.21402
ionization energy=70 eV
ion type=[M]+*
computed spectral entropy=2.587638120822664
computed normalized entropy=0.7337985162774371
SPLASH=splash10-0079-9000000000-d7ed4770fbefaab6b868
submitter=submitter = University of Tokyo Team (Faculty of Engineering, University of Tokyo)
MoNA Rating=3.75

>  <NUM PEAKS>  (3382) 
34

>  <MASS SPECTRAL PEAKS>  (3382) 
27 3.68
29 8.11
39 4.23
41 19.7
42 7.38
43 8.28
45 3.39
53 1.93
54 1.19
55 17.23
56 1.78
57 1.39
59 7.39
67 4.9
68 1.38
69 4.67
71 1.7
72 52.36
73 6.66
81 3.6
82 3.58
83 2.82
85 99.99
86 6.82
95 3.07
96 2.62
97 1.36
99 2.74
127 1.55
138 1.76
141 2.87
169 1.85
197 6.08
212 3.89

$$$$

     RDKit          2D

 12 12  0  0  0  0  0  0  0  0999 V2000
   -5.1970   -1.5006    0.0000 C   0  0  0  0  0  0  0  0  0  0  0  0
    0.0000    3.0000    0.0000 C   0  0  0  0  0  0  0  0  0  0  0  0
    1.8127   -2.1596    0.0000 C   0  0  0  0  0  0  0  0  0  0  0  0
    2.7772   -0.4897    0.0000 C   0  0  0  0  0  0  0  0  0  0  0  0
   -3.8981   -0.7504    0.0000 C   0  0  0  0  0  0  0  0  0  0  0  0
   -1.3000    0.7500    0.0000 C   0  0  0  0  0  0  0  0  0  0  0  0
    1.3000    0.7500    0.0000 C   0  0  0  0  0  0  0  0  0  0  0  0
   -0.0000   -1.5000    0.0000 C   0  0  0  0  0  0  0  0  0  0  0  0
    0.0000    1.5000    0.0000 C   0  0  0  0  0  0  0  0  0  0  0  0
   -1.3000   -0.7500    0.0000 C   0  0  0  0  0  0  0  0  0  0  0  0
    1.3000   -0.7500    0.0000 C   0  0  0  0  0  0  0  0  0  0  0  0
   -2.5989   -1.5002    0.0000 O   0  0  0  0  0  0  0  0  0  0  0  0
  5  1  1  0
  9  2  1  0
  9  6  1  0
  9  7  1  0
 10  6  1  0
 10  8  1  0
 11  3  1  0
 11  4  1  0
 11  7  1  0
 11  8  1  0
 12  5  1  0
 12 10  1  0
M  END
>  <NAME>  (3383) 
3,3,5-TRIMETHYLCYCLOHEXYL ETHYL ETHER

>  <SYNONYMS>  (3383) 


>  <SPECTRUM TYPE>  (3383) 
MS1

>  <INSTRUMENT TYPE>  (3383) 
EI-B

>  <INSTRUMENT>  (3383) 
HITACHI M-80B

>  <ION MODE>  (3383) 
P

>  <INCHIKEY>  (3383) 
JVBNHJDWWBSWLE-UHFFFAOYSA-N

>  <FORMULA>  (3383) 
C11H22O

>  <EXACT MASS>  (3383) 
170.167065324

>  <MW>  (3383) 
170

>  <ID>  (3383) 
JP007215

>  <CONTRIBUTOR>  (3383) 
University of Tokyo Team, {Faculty of Engineering, University of Tokyo

>  <COMMENT>  (3383) 
SMILES=CCOC(C1)CC(C)(C)CC(C)1
InChI=InChI=1S/C11H22O/c1-5-12-10-6-9(2)7-11(3,4)8-10/h9-10H,5-8H2,1-4H3
computed SMILES=O(CC)C1CC(C)CC(C)(C)C1
accession=JP007215
date=2016.01.19 (Created 2008.10.21, modified 2011.05.06)
author=SODA AROMATIC CO., LTD.
license=CC BY-NC-SA
exact mass=170.16707
ionization energy=70 eV
ion type=[M]+*
computed spectral entropy=3.137215176652468
computed normalized entropy=0.8241379909784847
SPLASH=splash10-06r5-9200000000-d6f20f40e48f3209fd65
submitter=submitter = University of Tokyo Team (Faculty of Engineering, University of Tokyo)
MoNA Rating=3.75

>  <NUM PEAKS>  (3383) 
45

>  <MASS SPECTRAL PEAKS>  (3383) 
15 2.12
27 20.56
29 34.54
31 4.1
39 10.99
41 50.24
42 4.43
43 22.22
44 10.02
45 3.51
51 1.11
53 5.99
54 1.48
55 28.96
56 9.41
57 16.68
59 2.75
65 1.43
67 12.32
69 23.85
70 2.68
71 38.97
72 7.95
77 1.9
79 1.92
80 1.29
81 7.59
82 6.73
83 22.33
84 1.33
85 22.59
86 1.09
95 3.74
96 4.67
97 1.43
99 99.99
100 5.14
109 35.73
110 2.92
113 71.12
115 4.96
124 14.77
125 2.93
157 2.22
170 3.29

$$$$

     RDKit          2D

 13 12  0  0  0  0  0  0  0  0999 V2000
    3.8971    6.7500    0.0000 C   0  0  0  0  0  0  0  0  0  0  0  0
  -11.6913    6.7500    0.0000 C   0  0  0  0  0  0  0  0  0  0  0  0
    2.5981    7.5000    0.0000 C   0  0  0  0  0  0  0  0  0  0  0  0
  -10.3923    7.5000    0.0000 C   0  0  0  0  0  0  0  0  0  0  0  0
    1.2990    6.7500    0.0000 C   0  0  0  0  0  0  0  0  0  0  0  0
    0.0000    7.5000    0.0000 C   0  0  0  0  0  0  0  0  0  0  0  0
   -1.2990    6.7500    0.0000 C   0  0  0  0  0  0  0  0  0  0  0  0
   -2.5981    7.5000    0.0000 C   0  0  0  0  0  0  0  0  0  0  0  0
   -3.8971    6.7500    0.0000 C   0  0  0  0  0  0  0  0  0  0  0  0
   -5.1962    7.5000    0.0000 C   0  0  0  0  0  0  0  0  0  0  0  0
   -6.4952    6.7500    0.0000 C   0  0  0  0  0  0  0  0  0  0  0  0
   -7.7942    7.5000    0.0000 C   0  0  0  0  0  0  0  0  0  0  0  0
   -9.0933    6.7500    0.0000 O   0  0  0  0  0  0  0  0  0  0  0  0
  3  1  1  0
  4  2  2  0
  5  3  1  0
  6  5  1  0
  7  6  1  0
  8  7  1  0
  9  8  1  0
 10  9  1  0
 11 10  1  0
 12 11  1  0
 13  4  1  0
 13 12  1  0
M  END
>  <NAME>  (3384) 
DECYL VINYL ETHER

>  <SYNONYMS>  (3384) 


>  <SPECTRUM TYPE>  (3384) 
MS1

>  <INSTRUMENT TYPE>  (3384) 
EI-B

>  <INSTRUMENT>  (3384) 
HITACHI M-80B

>  <ION MODE>  (3384) 
P

>  <INCHIKEY>  (3384) 
NSOAQRMLVFRWIT-UHFFFAOYSA-N

>  <FORMULA>  (3384) 
C12H24O

>  <EXACT MASS>  (3384) 
184.182715388

>  <MW>  (3384) 
184

>  <ID>  (3384) 
JP007214

>  <CONTRIBUTOR>  (3384) 
University of Tokyo Team, {Faculty of Engineering, University of Tokyo

>  <COMMENT>  (3384) 
SMILES=CCCCCCCCCCOC=C
InChI=InChI=1S/C12H24O/c1-3-5-6-7-8-9-10-11-12-13-4-2/h4H,2-3,5-12H2,1H3
computed SMILES=O(C=C)CCCCCCCCCC
accession=JP007214
date=2016.01.19 (Created 2008.10.21, modified 2011.05.06)
author=SODA AROMATIC CO., LTD.
license=CC BY-NC-SA
exact mass=184.18272
ionization energy=70 eV
ion type=[M]+*
computed spectral entropy=3.02972336591371
computed normalized entropy=0.8105915383995863
SPLASH=splash10-052f-9000000000-f3f5420ad6c19dea671e
submitter=submitter = University of Tokyo Team (Faculty of Engineering, University of Tokyo)
MoNA Rating=3.75

>  <NUM PEAKS>  (3384) 
42

>  <MASS SPECTRAL PEAKS>  (3384) 
15 1.2
27 17.53
29 29.87
31 7.24
39 9.21
40 1.17
41 52.83
42 14.57
43 99.99
44 6.23
45 2.86
53 2.2
54 2.59
55 37.07
56 25.56
57 67.57
58 2.37
59 3.24
67 3.23
68 8.77
69 22.17
70 23.19
71 21.89
72 1.37
81 1.9
82 10.95
83 17.5
84 11.44
85 17.43
95 2.2
96 3.24
97 9.3
98 3.49
99 1.04
100 1.16
109 1.46
110 1.42
111 2.67
112 2.42
138 5.44
169 6.27
184 1.51

$$$$

     RDKit          2D

 12 11  0  0  0  0  0  0  0  0999 V2000
    3.8971    6.0000    0.0000 C   0  0  0  0  0  0  0  0  0  0  0  0
  -10.3923    6.7500    0.0000 C   0  0  0  0  0  0  0  0  0  0  0  0
    2.5981    6.7500    0.0000 C   0  0  0  0  0  0  0  0  0  0  0  0
    1.2990    6.0000    0.0000 C   0  0  0  0  0  0  0  0  0  0  0  0
    0.0000    6.7500    0.0000 C   0  0  0  0  0  0  0  0  0  0  0  0
   -1.2990    6.0000    0.0000 C   0  0  0  0  0  0  0  0  0  0  0  0
   -2.5981    6.7500    0.0000 C   0  0  0  0  0  0  0  0  0  0  0  0
   -3.8971    6.0000    0.0000 C   0  0  0  0  0  0  0  0  0  0  0  0
   -5.1962    6.7500    0.0000 C   0  0  0  0  0  0  0  0  0  0  0  0
   -6.4952    6.0000    0.0000 C   0  0  0  0  0  0  0  0  0  0  0  0
   -7.7942    6.7500    0.0000 C   0  0  0  0  0  0  0  0  0  0  0  0
   -9.0933    6.0000    0.0000 O   0  0  0  0  0  0  0  0  0  0  0  0
  3  1  1  0
  4  3  1  0
  5  4  1  0
  6  5  1  0
  7  6  1  0
  8  7  1  0
  9  8  1  0
 10  9  1  0
 11 10  1  0
 12  2  1  0
 12 11  1  0
M  END
>  <NAME>  (3385) 
DECYL METHYL ETHER

>  <SYNONYMS>  (3385) 


>  <SPECTRUM TYPE>  (3385) 
MS1

>  <INSTRUMENT TYPE>  (3385) 
EI-B

>  <INSTRUMENT>  (3385) 
HITACHI M-80B

>  <ION MODE>  (3385) 
P

>  <INCHIKEY>  (3385) 
JPEWDCTZJFUITH-UHFFFAOYSA-N

>  <FORMULA>  (3385) 
C11H24O

>  <EXACT MASS>  (3385) 
172.182715388

>  <MW>  (3385) 
172

>  <ID>  (3385) 
JP007213

>  <CONTRIBUTOR>  (3385) 
University of Tokyo Team, {Faculty of Engineering, University of Tokyo

>  <COMMENT>  (3385) 
SMILES=CCCCCCCCCCOC
InChI=InChI=1S/C11H24O/c1-3-4-5-6-7-8-9-10-11-12-2/h3-11H2,1-2H3
computed SMILES=O(C)CCCCCCCCCC
accession=JP007213
date=2016.01.19 (Created 2008.10.21, modified 2011.05.06)
author=SODA AROMATIC CO., LTD.
license=CC BY-NC-SA
exact mass=172.18272
ionization energy=70 eV
ion type=[M]+*
computed spectral entropy=2.9486003058676955
computed normalized entropy=0.8432987070764447
SPLASH=splash10-052e-9000000000-d5adfb0aa2ce7aba039b
submitter=submitter = University of Tokyo Team (Faculty of Engineering, University of Tokyo)
MoNA Rating=3.75

>  <NUM PEAKS>  (3385) 
33

>  <MASS SPECTRAL PEAKS>  (3385) 
15 1.53
27 8.26
28 1.58
29 15
33 1.28
39 6.82
41 29.89
42 13.32
43 25.75
45 99.99
46 1.79
53 1.75
54 2.53
55 28.78
56 29.46
57 13.02
58 1.57
67 2.52
68 13.03
69 24.8
70 33.84
71 7.01
82 11.58
83 27.2
84 18.07
85 2.68
96 1.7
97 12.33
98 5.78
111 5.97
112 12.09
140 11.04
141 1.05

$$$$

     RDKit          2D

 11 10  0  0  0  0  0  0  0  0999 V2000
   -6.8200    5.0625    0.0000 C   0  0  0  0  0  0  0  0  0  0  0  0
   -5.5209    2.8125    0.0000 C   0  0  0  0  0  0  0  0  0  0  0  0
    3.5724    5.0625    0.0000 C   0  0  0  0  0  0  0  0  0  0  0  0
    2.2733    2.8125    0.0000 C   0  0  0  0  0  0  0  0  0  0  0  0
   -4.2219    5.0625    0.0000 C   0  0  0  0  0  0  0  0  0  0  0  0
    0.9743    5.0625    0.0000 C   0  0  0  0  0  0  0  0  0  0  0  0
   -2.9228    4.3125    0.0000 C   0  0  0  0  0  0  0  0  0  0  0  0
   -0.3248    4.3125    0.0000 C   0  0  0  0  0  0  0  0  0  0  0  0
   -5.5209    4.3125    0.0000 C   0  0  0  0  0  0  0  0  0  0  0  0
    2.2733    4.3125    0.0000 C   0  0  0  0  0  0  0  0  0  0  0  0
   -1.6238    5.0625    0.0000 O   0  0  0  0  0  0  0  0  0  0  0  0
  7  5  1  0
  8  6  1  0
  9  1  1  0
  9  2  1  0
  9  5  1  0
 10  3  1  0
 10  4  1  0
 10  6  1  0
 11  7  1  0
 11  8  1  0
M  END
>  <NAME>  (3386) 
DIISOPENTYL ETHER

>  <SYNONYMS>  (3386) 


>  <SPECTRUM TYPE>  (3386) 
MS1

>  <INSTRUMENT TYPE>  (3386) 
EI-B

>  <INSTRUMENT>  (3386) 
HITACHI M-80B

>  <ION MODE>  (3386) 
P

>  <INCHIKEY>  (3386) 
AQZGPSLYZOOYQP-UHFFFAOYSA-N

>  <FORMULA>  (3386) 
C10H22O

>  <EXACT MASS>  (3386) 
158.167065324

>  <MW>  (3386) 
158

>  <ID>  (3386) 
JP007212

>  <CONTRIBUTOR>  (3386) 
University of Tokyo Team, {Faculty of Engineering, University of Tokyo

>  <COMMENT>  (3386) 
SMILES=CC(C)CCOCCC(C)C
InChI=InChI=1S/C10H22O/c1-9(2)5-7-11-8-6-10(3)4/h9-10H,5-8H2,1-4H3
computed SMILES=O(CCC(C)C)CCC(C)C
accession=JP007212
date=2016.01.19 (Created 2008.10.21, modified 2011.05.06)
author=SODA AROMATIC CO., LTD.
license=CC BY-NC-SA
exact mass=158.16707
ionization energy=70 eV
ion type=[M]+*
computed spectral entropy=2.320923813596023
computed normalized entropy=0.7747434021674414
SPLASH=splash10-00dl-9000000000-6811cf92b4ec90e65f9c
submitter=submitter = University of Tokyo Team (Faculty of Engineering, University of Tokyo)
MoNA Rating=3.75

>  <NUM PEAKS>  (3386) 
20

>  <MASS SPECTRAL PEAKS>  (3386) 
27 13.66
28 1.95
29 14.12
31 2.24
39 9.03
40 1.07
41 27.23
42 11.04
43 99.99
44 3.87
45 8.59
53 1.97
55 21.57
56 3.77
57 2.68
69 40.2
70 85.5
71 70.63
72 3.93
101 14.95

$$$$

     RDKit          2D

  8  7  0  0  0  0  0  0  0  0999 V2000
   -6.4952    4.5000    0.0000 C   0  0  0  0  0  0  0  0  0  0  0  0
    2.5981    3.7500    0.0000 C   0  0  0  0  0  0  0  0  0  0  0  0
   -5.1962    3.7500    0.0000 C   0  0  0  0  0  0  0  0  0  0  0  0
   -3.8971    4.5000    0.0000 C   0  0  0  0  0  0  0  0  0  0  0  0
   -2.5981    3.7500    0.0000 C   0  0  0  0  0  0  0  0  0  0  0  0
   -1.2990    4.5000    0.0000 C   0  0  0  0  0  0  0  0  0  0  0  0
    0.0000    3.7500    0.0000 C   0  0  0  0  0  0  0  0  0  0  0  0
    1.2990    4.5000    0.0000 O   0  0  0  0  0  0  0  0  0  0  0  0
  3  1  1  0
  4  3  1  0
  5  4  1  0
  6  5  1  0
  7  6  1  0
  8  2  1  0
  8  7  1  0
M  END
>  <NAME>  (3387) 
HEXYL METHYL ETHER

>  <SYNONYMS>  (3387) 


>  <SPECTRUM TYPE>  (3387) 
MS1

>  <INSTRUMENT TYPE>  (3387) 
EI-B

>  <INSTRUMENT>  (3387) 
HITACHI M-80B

>  <ION MODE>  (3387) 
P

>  <INCHIKEY>  (3387) 
ICBJCVRQDSQPGI-UHFFFAOYSA-N

>  <FORMULA>  (3387) 
C7H16O

>  <EXACT MASS>  (3387) 
116.120115132

>  <MW>  (3387) 
116

>  <ID>  (3387) 
JP007211

>  <CONTRIBUTOR>  (3387) 
University of Tokyo Team, {Faculty of Engineering, University of Tokyo

>  <COMMENT>  (3387) 
SMILES=CCCCCCOC
InChI=InChI=1S/C7H16O/c1-3-4-5-6-7-8-2/h3-7H2,1-2H3
computed SMILES=O(C)CCCCCC
accession=JP007211
date=2016.01.19 (Created 2008.10.21, modified 2011.05.06)
author=SODA AROMATIC CO., LTD.
license=CC BY-NC-SA
exact mass=116.12012
ionization energy=70 eV
ion type=[M]+*
computed spectral entropy=2.2198719685302017
computed normalized entropy=0.7410114675890759
SPLASH=splash10-052b-9000000000-1e0f4edc8b6e4132c4e1
submitter=submitter = University of Tokyo Team (Faculty of Engineering, University of Tokyo)
MoNA Rating=3.75

>  <NUM PEAKS>  (3387) 
20

>  <MASS SPECTRAL PEAKS>  (3387) 
15 5.05
27 11.62
28 1.48
29 10.98
31 1.38
33 4.86
39 7.16
41 15.58
42 11.96
43 11.71
45 99.99
46 1.95
47 1.02
55 12.13
56 41.65
57 1.94
69 8.9
70 1.27
84 12.94
85 1.04

$$$$

     RDKit          2D

  8  7  0  0  0  0  0  0  0  0999 V2000
   -6.4952    4.5000    0.0000 C   0  0  0  0  0  0  0  0  0  0  0  0
    2.5981    3.7500    0.0000 C   0  0  0  0  0  0  0  0  0  0  0  0
   -5.1962    3.7500    0.0000 C   0  0  0  0  0  0  0  0  0  0  0  0
   -3.8971    4.5000    0.0000 C   0  0  0  0  0  0  0  0  0  0  0  0
   -2.5981    3.7500    0.0000 C   0  0  0  0  0  0  0  0  0  0  0  0
   -1.2990    4.5000    0.0000 C   0  0  0  0  0  0  0  0  0  0  0  0
    0.0000    3.7500    0.0000 C   0  0  0  0  0  0  0  0  0  0  0  0
    1.2990    4.5000    0.0000 O   0  0  0  0  0  0  0  0  0  0  0  0
  3  1  1  0
  4  3  1  0
  4  5  2  0
  6  5  1  0
  7  6  1  0
  8  2  1  0
  8  7  1  0
M  END
>  <NAME>  (3388) 
3-HEXENYL METHYL ETHER

>  <SYNONYMS>  (3388) 


>  <SPECTRUM TYPE>  (3388) 
MS1

>  <INSTRUMENT TYPE>  (3388) 
EI-B

>  <INSTRUMENT>  (3388) 
HITACHI M-80B

>  <ION MODE>  (3388) 
P

>  <INCHIKEY>  (3388) 
KUPODEXLSGEWFR-SNAWJCMRSA-N

>  <FORMULA>  (3388) 
C7H14O

>  <EXACT MASS>  (3388) 
114.104465068

>  <MW>  (3388) 
114

>  <ID>  (3388) 
JP007210

>  <CONTRIBUTOR>  (3388) 
University of Tokyo Team, {Faculty of Engineering, University of Tokyo

>  <COMMENT>  (3388) 
SMILES=CCC=CCCOC
InChI=InChI=1S/C7H14O/c1-3-4-5-6-7-8-2/h4-5H,3,6-7H2,1-2H3/b5-4+
computed SMILES=O(C)CCC=CCC
accession=JP007210
date=2016.01.19 (Created 2008.10.21, modified 2011.05.06)
author=SODA AROMATIC CO., LTD.
license=CC BY-NC-SA
exact mass=114.10447
ionization energy=70 eV
ion type=[M]+*
computed spectral entropy=2.055667919774438
computed normalized entropy=0.6752020922242201
SPLASH=splash10-00di-9000000000-1527e4ef9be742934a50
submitter=submitter = University of Tokyo Team (Faculty of Engineering, University of Tokyo)
MoNA Rating=3.75

>  <NUM PEAKS>  (3388) 
21

>  <MASS SPECTRAL PEAKS>  (3388) 
15 1.43
27 8.59
29 5.29
39 8.89
41 33.64
42 2.37
43 3.66
45 3.1
53 3.18
55 4.5
56 2.26
57 1.06
58 4.99
67 2.92
69 1.65
71 99.99
72 4.86
82 2.62
85 4.21
114 20.5
115 1.42

$$$$

     RDKit          2D

  7  6  0  0  0  0  0  0  0  0999 V2000
    1.9486    3.3750    0.0000 C   0  0  0  0  0  0  0  0  0  0  0  0
   -5.8457    3.3750    0.0000 C   0  0  0  0  0  0  0  0  0  0  0  0
    0.6495    4.1250    0.0000 C   0  0  0  0  0  0  0  0  0  0  0  0
   -4.5466    4.1250    0.0000 C   0  0  0  0  0  0  0  0  0  0  0  0
   -0.6495    3.3750    0.0000 C   0  0  0  0  0  0  0  0  0  0  0  0
   -3.2476    3.3750    0.0000 C   0  0  0  0  0  0  0  0  0  0  0  0
   -1.9486    4.1250    0.0000 O   0  0  0  0  0  0  0  0  0  0  0  0
  3  1  2  0
  4  2  2  0
  5  3  1  0
  6  4  1  0
  7  5  1  0
  7  6  1  0
M  END
>  <NAME>  (3389) 
DIALLYL ETHER

>  <SYNONYMS>  (3389) 


>  <SPECTRUM TYPE>  (3389) 
MS1

>  <INSTRUMENT TYPE>  (3389) 
EI-B

>  <INSTRUMENT>  (3389) 
HITACHI M-80B

>  <ION MODE>  (3389) 
P

>  <INCHIKEY>  (3389) 
ATVJXMYDOSMEPO-UHFFFAOYSA-N

>  <FORMULA>  (3389) 
C6H10O

>  <EXACT MASS>  (3389) 
98.07316494

>  <MW>  (3389) 
98

>  <ID>  (3389) 
JP007209

>  <CONTRIBUTOR>  (3389) 
University of Tokyo Team, {Faculty of Engineering, University of Tokyo

>  <COMMENT>  (3389) 
SMILES=C=CCOCC=C
InChI=InChI=1S/C6H10O/c1-3-5-7-6-4-2/h3-4H,1-2,5-6H2
computed SMILES=O(CC=C)CC=C
accession=JP007209
date=2016.01.19 (Created 2008.10.21, modified 2011.05.06)
author=SODA AROMATIC CO., LTD.
license=CC BY-NC-SA
exact mass=98.07316
ionization energy=70 eV
ion type=[M]+*
computed spectral entropy=2.452817904247088
computed normalized entropy=0.7717987281475794
SPLASH=splash10-0006-9000000000-b93d33efdf9eb27590be
submitter=submitter = University of Tokyo Team (Faculty of Engineering, University of Tokyo)
MoNA Rating=3.75

>  <NUM PEAKS>  (3389) 
24

>  <MASS SPECTRAL PEAKS>  (3389) 
15 1.58
26 4.46
27 15.27
28 2.35
29 12.44
31 5.96
38 3.57
39 38.3
40 5.89
41 99.99
42 22.14
43 6.39
44 1.39
45 1.25
54 13.69
55 12.1
56 14.28
57 10.76
58 1.16
68 1.03
69 14.59
70 3.58
83 6.98
97 1.09

$$$$

     RDKit          2D

 10 10  0  0  0  0  0  0  0  0999 V2000
    3.8981    0.7504    0.0000 C   0  0  0  0  0  0  0  0  0  0  0  0
    2.5987    3.0002    0.0000 C   0  0  0  0  0  0  0  0  0  0  0  0
   -2.5989   -1.5002    0.0000 C   0  0  0  0  0  0  0  0  0  0  0  0
   -1.3000    0.7500    0.0000 C   0  0  0  0  0  0  0  0  0  0  0  0
   -0.0000   -1.5000    0.0000 C   0  0  0  0  0  0  0  0  0  0  0  0
    0.0000    1.5000    0.0000 C   0  0  0  0  0  0  0  0  0  0  0  0
    1.3000   -0.7500    0.0000 C   0  0  0  0  0  0  0  0  0  0  0  0
    2.5989    1.5002    0.0000 C   0  0  0  0  0  0  0  0  0  0  0  0
   -1.3000   -0.7500    0.0000 C   0  0  0  0  0  0  0  0  0  0  0  0
    1.3000    0.7500    0.0000 C   0  0  0  0  0  0  0  0  0  0  0  0
  6  4  2  0
  7  5  1  0
  8  1  1  0
  8  2  1  0
  9  3  1  0
  9  4  1  0
  9  5  2  0
 10  6  1  0
 10  7  2  0
 10  8  1  0
M  END
>  <NAME>  (3390) 
P-CYMENE

>  <SYNONYMS>  (3390) 


>  <SPECTRUM TYPE>  (3390) 
MS1

>  <INSTRUMENT TYPE>  (3390) 
EI-B

>  <INSTRUMENT>  (3390) 
HITACHI M-80B

>  <ION MODE>  (3390) 
P

>  <INCHIKEY>  (3390) 
HFPZCAJZSCWRBC-UHFFFAOYSA-N

>  <FORMULA>  (3390) 
C10H14

>  <EXACT MASS>  (3390) 
134.109550448

>  <MW>  (3390) 
134

>  <ID>  (3390) 
JP007208

>  <CONTRIBUTOR>  (3390) 
University of Tokyo Team, {Faculty of Engineering, University of Tokyo

>  <COMMENT>  (3390) 
SMILES=CC(C)c(c1)ccc(C)c1
InChI=InChI=1S/C10H14/c1-8(2)10-6-4-9(3)5-7-10/h4-8H,1-3H3
computed SMILES=C=1C=C(C=CC1C)C(C)C
accession=JP007208
date=2016.01.19 (Created 2008.10.21, modified 2011.05.06)
author=SODA AROMATIC CO., LTD.
license=CC BY-NC-SA
exact mass=134.10955
ionization energy=70 eV
ion type=[M]+*
computed spectral entropy=2.389363125430282
computed normalized entropy=0.6894244663882444
SPLASH=splash10-014i-3900000000-18fab12c9b06d75f28d4
submitter=submitter = University of Tokyo Team (Faculty of Engineering, University of Tokyo)
MoNA Rating=3.75

>  <NUM PEAKS>  (3390) 
32

>  <MASS SPECTRAL PEAKS>  (3390) 
15 1.22
27 3.43
39 5.73
41 5.24
50 1.54
51 3.5
52 1.17
53 1.36
58 1.22
59 1.12
62 1.13
63 3.12
65 5.41
77 6
78 2.36
79 2.11
89 1.8
91 19.65
92 2.1
93 2.02
102 1.05
103 3.71
104 2.49
105 2.84
115 4.44
116 1.34
117 9.22
118 1.79
119 99.99
120 10.04
134 24.75
135 2.42

$$$$

     RDKit          2D

 10 10  0  0  0  0  0  0  0  0999 V2000
    5.1970    1.5006    0.0000 C   0  0  0  0  0  0  0  0  0  0  0  0
   -2.5989   -1.5002    0.0000 C   0  0  0  0  0  0  0  0  0  0  0  0
    3.8981    0.7504    0.0000 C   0  0  0  0  0  0  0  0  0  0  0  0
    2.5989    1.5002    0.0000 C   0  0  0  0  0  0  0  0  0  0  0  0
   -1.3000    0.7500    0.0000 C   0  0  0  0  0  0  0  0  0  0  0  0
   -0.0000   -1.5000    0.0000 C   0  0  0  0  0  0  0  0  0  0  0  0
    0.0000    1.5000    0.0000 C   0  0  0  0  0  0  0  0  0  0  0  0
    1.3000   -0.7500    0.0000 C   0  0  0  0  0  0  0  0  0  0  0  0
   -1.3000   -0.7500    0.0000 C   0  0  0  0  0  0  0  0  0  0  0  0
    1.3000    0.7500    0.0000 C   0  0  0  0  0  0  0  0  0  0  0  0
  3  1  1  0
  3  4  2  0
  7  5  2  0
  8  6  1  0
  9  2  1  0
  9  5  1  0
  9  6  2  0
 10  4  1  0
 10  7  1  0
 10  8  2  0
M  END
>  <NAME>  (3391) 
P-(1-PROPENYL)-TOLUENE

>  <SYNONYMS>  (3391) 
ALPHA,PARA-DIMETHYLSTYRENE

>  <SPECTRUM TYPE>  (3391) 
MS1

>  <INSTRUMENT TYPE>  (3391) 
EI-B

>  <INSTRUMENT>  (3391) 
HITACHI M-80B

>  <ION MODE>  (3391) 
P

>  <INCHIKEY>  (3391) 
LSMSSYSRCUNIFX-ONEGZZNKSA-N

>  <FORMULA>  (3391) 
C10H12

>  <EXACT MASS>  (3391) 
132.093900384

>  <MW>  (3391) 
132

>  <ID>  (3391) 
JP007207

>  <CONTRIBUTOR>  (3391) 
University of Tokyo Team, {Faculty of Engineering, University of Tokyo

>  <COMMENT>  (3391) 
SMILES=CC=Cc(c1)ccc(C)c1
InChI=InChI=1S/C10H12/c1-3-4-10-7-5-9(2)6-8-10/h3-8H,1-2H3/b4-3+
computed SMILES=C=1C=C(C=CC1C=CC)C
accession=JP007207
date=2016.01.19 (Created 2008.10.21, modified 2011.05.06)
author=SODA AROMATIC CO., LTD.
license=CC BY-NC-SA
exact mass=132.0939
ionization energy=70 eV
ion type=[M]+*
computed spectral entropy=2.8982150654465766
computed normalized entropy=0.7754069678254936
SPLASH=splash10-0159-5900000000-8ed113012fcaeb2a129d
submitter=submitter = University of Tokyo Team (Faculty of Engineering, University of Tokyo)
MoNA Rating=3.75

>  <NUM PEAKS>  (3391) 
42

>  <MASS SPECTRAL PEAKS>  (3391) 
15 1.38
27 6.15
38 1.75
39 17.37
40 1.4
41 4.42
50 5.41
51 11.39
52 3.29
53 3.56
57 1.47
62 3.77
63 10.73
64 5.95
65 15.42
66 1.17
74 2.3
75 2.9
76 1.58
77 8.07
78 3.57
79 1.61
87 1.18
89 6.06
90 1.41
91 36.86
92 18.43
93 1.11
102 4.15
103 3
104 2.77
105 4.31
115 36.14
116 12.18
117 81.62
118 7.98
127 1.71
128 4.31
129 3.19
131 16.35
132 99.99
133 10.59

$$$$

     RDKit          2D

 13 14  0  0  0  0  0  0  0  0999 V2000
    2.5986    1.0700    0.0000 C   0  0  0  0  0  0  0  0  0  0  0  0
   -5.1957    1.0700    0.0000 C   0  0  0  0  0  0  0  0  0  0  0  0
    2.5990    2.5708    0.0000 C   0  0  0  0  0  0  0  0  0  0  0  0
    1.2990    0.3192    0.0000 C   0  0  0  0  0  0  0  0  0  0  0  0
   -3.8962    0.3192    0.0000 C   0  0  0  0  0  0  0  0  0  0  0  0
   -5.1962    2.5708    0.0000 C   0  0  0  0  0  0  0  0  0  0  0  0
    1.3000    3.3208    0.0000 C   0  0  0  0  0  0  0  0  0  0  0  0
    0.0000    1.0692    0.0000 C   0  0  0  0  0  0  0  0  0  0  0  0
   -2.5971    1.0692    0.0000 C   0  0  0  0  0  0  0  0  0  0  0  0
   -3.8971    3.3208    0.0000 C   0  0  0  0  0  0  0  0  0  0  0  0
   -1.2986    3.3200    0.0000 C   0  0  0  0  0  0  0  0  0  0  0  0
    0.0005    2.5700    0.0000 C   0  0  0  0  0  0  0  0  0  0  0  0
   -2.5976    2.5700    0.0000 C   0  0  0  0  0  0  0  0  0  0  0  0
  3  1  2  0
  4  1  1  0
  5  2  2  0
  6  2  1  0
  7  3  1  0
  8  4  2  0
  9  5  1  0
 10  6  2  0
 12  7  2  0
 12  8  1  0
 12 11  1  0
 13  9  2  0
 13 10  1  0
 13 11  1  0
M  END
>  <NAME>  (3392) 
DIPHENYLMETHANE

>  <SYNONYMS>  (3392) 


>  <SPECTRUM TYPE>  (3392) 
MS1

>  <INSTRUMENT TYPE>  (3392) 
EI-B

>  <INSTRUMENT>  (3392) 
HITACHI M-80B

>  <ION MODE>  (3392) 
P

>  <INCHIKEY>  (3392) 
CZZYITDELCSZES-UHFFFAOYSA-N

>  <FORMULA>  (3392) 
C13H12

>  <EXACT MASS>  (3392) 
168.093900384

>  <MW>  (3392) 
168

>  <ID>  (3392) 
JP007206

>  <CONTRIBUTOR>  (3392) 
University of Tokyo Team, {Faculty of Engineering, University of Tokyo

>  <COMMENT>  (3392) 
SMILES=c(c2)ccc(c2)Cc(c1)cccc1
InChI=InChI=1S/C13H12/c1-3-7-12(8-4-1)11-13-9-5-2-6-10-13/h1-10H,11H2
computed SMILES=C=1C=CC(=CC1)CC=2C=CC=CC2
accession=JP007206
date=2016.01.19 (Created 2008.10.21, modified 2011.05.06)
author=SODA AROMATIC CO., LTD.
license=CC BY-NC-SA
exact mass=168.0939
ionization energy=70 eV
ion type=[M]+*
computed spectral entropy=2.974517197858126
computed normalized entropy=0.7769119355460634
SPLASH=splash10-014i-5900000000-a4ca1b59bfa09f1bbc67
submitter=submitter = University of Tokyo Team (Faculty of Engineering, University of Tokyo)
MoNA Rating=3.75

>  <NUM PEAKS>  (3392) 
46

>  <MASS SPECTRAL PEAKS>  (3392) 
27 4
38 1.85
39 15.91
40 1.18
41 1.89
50 7.47
51 18.66
52 2.54
62 3.09
63 12.12
64 2.5
65 18.21
66 1.27
70 1.59
71 1.39
74 2.6
75 2.73
76 3.69
77 6.56
78 1.57
82 5.41
83 8.37
84 2.01
86 1.06
87 1.83
89 10.91
90 5.36
91 31.63
92 2.01
102 1.78
115 9.44
127 1.29
128 4.29
139 5.01
141 3.93
151 1.95
152 18.13
153 15.18
154 1.47
163 2.3
164 2.95
165 30.51
166 11.06
167 89.62
168 99.99
169 13.15

$$$$

     RDKit          2D

 19 18  0  0  0  0  0  0  0  0999 V2000
  -16.2380   10.1250    0.0000 C   0  0  0  0  0  0  0  0  0  0  0  0
    5.8457    9.3750    0.0000 C   0  0  0  0  0  0  0  0  0  0  0  0
  -14.9389    9.3750    0.0000 C   0  0  0  0  0  0  0  0  0  0  0  0
    4.5466   10.1250    0.0000 C   0  0  0  0  0  0  0  0  0  0  0  0
  -13.6399   10.1250    0.0000 C   0  0  0  0  0  0  0  0  0  0  0  0
    3.2476    9.3750    0.0000 C   0  0  0  0  0  0  0  0  0  0  0  0
  -12.3409    9.3750    0.0000 C   0  0  0  0  0  0  0  0  0  0  0  0
    1.9486   10.1250    0.0000 C   0  0  0  0  0  0  0  0  0  0  0  0
  -11.0418   10.1250    0.0000 C   0  0  0  0  0  0  0  0  0  0  0  0
   -9.7428    9.3750    0.0000 C   0  0  0  0  0  0  0  0  0  0  0  0
   -8.4437   10.1250    0.0000 C   0  0  0  0  0  0  0  0  0  0  0  0
    0.6495    9.3750    0.0000 C   0  0  0  0  0  0  0  0  0  0  0  0
   -7.1447    9.3750    0.0000 C   0  0  0  0  0  0  0  0  0  0  0  0
   -0.6495   10.1250    0.0000 C   0  0  0  0  0  0  0  0  0  0  0  0
   -5.8457   10.1250    0.0000 C   0  0  0  0  0  0  0  0  0  0  0  0
   -1.9486    9.3750    0.0000 C   0  0  0  0  0  0  0  0  0  0  0  0
   -4.5466    9.3750    0.0000 C   0  0  0  0  0  0  0  0  0  0  0  0
   -4.5466    7.8750    0.0000 O   0  0  0  0  0  0  0  0  0  0  0  0
   -3.2476   10.1250    0.0000 O   0  0  0  0  0  0  0  0  0  0  0  0
  3  1  1  0
  4  2  1  0
  5  3  1  0
  6  4  1  0
  7  5  1  0
  8  6  1  0
  9  7  1  0
 10  9  1  0
 11 10  1  0
 12  8  1  0
 13 11  1  0
 14 12  1  0
 15 13  1  0
 16 14  1  0
 17 15  1  0
 18 17  2  0
 19 16  1  0
 19 17  1  0
M  END
>  <NAME>  (3393) 
HEPTYL DECANOATE

>  <SYNONYMS>  (3393) 


>  <SPECTRUM TYPE>  (3393) 
MS1

>  <INSTRUMENT TYPE>  (3393) 
EI-B

>  <INSTRUMENT>  (3393) 
HITACHI M-80B

>  <ION MODE>  (3393) 
P

>  <INCHIKEY>  (3393) 
MPLLSYWBBPPERF-UHFFFAOYSA-N

>  <FORMULA>  (3393) 
C17H34O2

>  <EXACT MASS>  (3393) 
270.255880328

>  <MW>  (3393) 
270

>  <ID>  (3393) 
JP007205

>  <CONTRIBUTOR>  (3393) 
University of Tokyo Team, {Faculty of Engineering, University of Tokyo

>  <COMMENT>  (3393) 
SMILES=CCCCCCCCCC(=O)OCCCCCCC
InChI=InChI=1S/C17H34O2/c1-3-5-7-9-10-11-13-15-17(18)19-16-14-12-8-6-4-2/h3-16H2,1-2H3
computed SMILES=O=C(OCCCCCCC)CCCCCCCCC
accession=JP007205
date=2016.01.19 (Created 2008.10.21, modified 2011.05.06)
author=SODA AROMATIC CO., LTD.
license=CC BY-NC-SA
exact mass=270.25588
ionization energy=70 eV
ion type=[M]+*
computed spectral entropy=3.239894391399106
computed normalized entropy=0.8122104158801131
SPLASH=splash10-0abc-9100000000-2b5c6bcdbd11fde41d79
submitter=submitter = University of Tokyo Team (Faculty of Engineering, University of Tokyo)
MoNA Rating=3.75

>  <NUM PEAKS>  (3393) 
54

>  <MASS SPECTRAL PEAKS>  (3393) 
27 15.37
29 36.22
39 8.78
41 66.24
42 21.78
43 84.15
44 1.97
45 1.52
53 2.99
54 6.11
55 52.84
56 56.66
57 99.99
58 4.6
59 1.2
60 16.51
61 44.86
67 5.31
68 11.91
69 38.65
70 54.65
71 23.11
72 1
73 22.77
74 1.86
81 4.75
82 1.8
83 13.51
84 6.44
85 9.31
87 6.43
89 1.97
95 3.68
96 1.16
97 6.04
98 87.39
99 6.52
101 2.46
103 1.54
110 1.64
111 1.8
112 1.54
115 3.36
116 1.61
129 11.16
130 1.01
143 3.92
155 30.13
156 2.41
171 1.51
172 8.57
173 73.39
174 7.14
270 1.29

$$$$

     RDKit          2D

 18 17  0  0  0  0  0  0  0  0999 V2000
    9.0933   15.7500    0.0000 C   0  0  0  0  0  0  0  0  0  0  0  0
  -10.3923   18.0000    0.0000 C   0  0  0  0  0  0  0  0  0  0  0  0
    7.7942   15.0000    0.0000 C   0  0  0  0  0  0  0  0  0  0  0  0
   -9.0933   17.2500    0.0000 C   0  0  0  0  0  0  0  0  0  0  0  0
    6.4952   15.7500    0.0000 C   0  0  0  0  0  0  0  0  0  0  0  0
   -9.0933   15.7500    0.0000 C   0  0  0  0  0  0  0  0  0  0  0  0
    5.1962   15.0000    0.0000 C   0  0  0  0  0  0  0  0  0  0  0  0
   -7.7942   15.0000    0.0000 C   0  0  0  0  0  0  0  0  0  0  0  0
    3.8971   15.7500    0.0000 C   0  0  0  0  0  0  0  0  0  0  0  0
    2.5981   15.0000    0.0000 C   0  0  0  0  0  0  0  0  0  0  0  0
    1.2990   15.7500    0.0000 C   0  0  0  0  0  0  0  0  0  0  0  0
    0.0000   15.0000    0.0000 C   0  0  0  0  0  0  0  0  0  0  0  0
   -6.4952   15.7500    0.0000 C   0  0  0  0  0  0  0  0  0  0  0  0
   -1.2990   15.7500    0.0000 C   0  0  0  0  0  0  0  0  0  0  0  0
   -5.1962   15.0000    0.0000 C   0  0  0  0  0  0  0  0  0  0  0  0
   -2.5981   15.0000    0.0000 C   0  0  0  0  0  0  0  0  0  0  0  0
   -2.5981   13.5000    0.0000 O   0  0  0  0  0  0  0  0  0  0  0  0
   -3.8971   15.7500    0.0000 O   0  0  0  0  0  0  0  0  0  0  0  0
  3  1  1  0
  4  2  1  0
  5  3  1  0
  6  4  1  0
  7  5  1  0
  6  8  2  0
  9  7  1  0
 10  9  1  0
 11 10  1  0
 12 11  1  0
 13  8  1  0
 14 12  1  0
 15 13  1  0
 16 14  1  0
 17 16  2  0
 18 15  1  0
 18 16  1  0
M  END
>  <NAME>  (3394) 
CIS-3-HEXENYL DECANOATE

>  <SYNONYMS>  (3394) 


>  <SPECTRUM TYPE>  (3394) 
MS1

>  <INSTRUMENT TYPE>  (3394) 
EI-B

>  <INSTRUMENT>  (3394) 
HITACHI M-80B

>  <ION MODE>  (3394) 
P

>  <INCHIKEY>  (3394) 
APSRJAGZYONPLL-VURMDHGXSA-N

>  <FORMULA>  (3394) 
C16H30O2

>  <EXACT MASS>  (3394) 
254.2245802

>  <MW>  (3394) 
254

>  <ID>  (3394) 
JP007204

>  <CONTRIBUTOR>  (3394) 
University of Tokyo Team, {Faculty of Engineering, University of Tokyo

>  <COMMENT>  (3394) 
SMILES=CCCCCCCCCC(=O)OCCC=CCC
InChI=InChI=1S/C16H30O2/c1-3-5-7-9-10-11-12-14-16(17)18-15-13-8-6-4-2/h6,8H,3-5,7,9-15H2,1-2H3/b8-6-
computed SMILES=O=C(OCCC=CCC)CCCCCCCCC
accession=JP007204
date=2016.01.19 (Created 2008.10.21, modified 2011.05.06)
author=SODA AROMATIC CO., LTD.
license=CC BY-NC-SA
exact mass=254.22458
ionization energy=70 eV
ion type=[M]+*
computed spectral entropy=2.3565151171113667
computed normalized entropy=0.7232797093674789
SPLASH=splash10-001i-9000000000-786728617e25fe6d2ae9
submitter=submitter = University of Tokyo Team (Faculty of Engineering, University of Tokyo)
MoNA Rating=3.75

>  <NUM PEAKS>  (3394) 
26

>  <MASS SPECTRAL PEAKS>  (3394) 
27 4.02
29 2.98
39 4.13
41 18.88
42 3.34
43 14.87
53 2.22
54 3.14
55 19.49
56 2.2
57 7.46
60 1.08
67 39.74
68 2.48
69 3.39
71 6.35
73 1.25
79 1.19
81 4.03
82 99.99
83 14.64
84 1.46
85 3.86
95 1.79
155 7.97
156 1.07

$$$$

     RDKit          2D

 18 17  0  0  0  0  0  0  0  0999 V2000
  -15.5885    9.0000    0.0000 C   0  0  0  0  0  0  0  0  0  0  0  0
    5.1962    9.0000    0.0000 C   0  0  0  0  0  0  0  0  0  0  0  0
  -14.2894    8.2500    0.0000 C   0  0  0  0  0  0  0  0  0  0  0  0
    3.8971    8.2500    0.0000 C   0  0  0  0  0  0  0  0  0  0  0  0
  -12.9904    9.0000    0.0000 C   0  0  0  0  0  0  0  0  0  0  0  0
    2.5981    9.0000    0.0000 C   0  0  0  0  0  0  0  0  0  0  0  0
  -11.6913    8.2500    0.0000 C   0  0  0  0  0  0  0  0  0  0  0  0
    1.2990    8.2500    0.0000 C   0  0  0  0  0  0  0  0  0  0  0  0
  -10.3923    9.0000    0.0000 C   0  0  0  0  0  0  0  0  0  0  0  0
   -9.0933    8.2500    0.0000 C   0  0  0  0  0  0  0  0  0  0  0  0
   -7.7942    9.0000    0.0000 C   0  0  0  0  0  0  0  0  0  0  0  0
   -6.4952    8.2500    0.0000 C   0  0  0  0  0  0  0  0  0  0  0  0
    0.0000    9.0000    0.0000 C   0  0  0  0  0  0  0  0  0  0  0  0
   -5.1962    9.0000    0.0000 C   0  0  0  0  0  0  0  0  0  0  0  0
   -1.2990    8.2500    0.0000 C   0  0  0  0  0  0  0  0  0  0  0  0
   -3.8971    8.2500    0.0000 C   0  0  0  0  0  0  0  0  0  0  0  0
   -3.8971    6.7500    0.0000 O   0  0  0  0  0  0  0  0  0  0  0  0
   -2.5981    9.0000    0.0000 O   0  0  0  0  0  0  0  0  0  0  0  0
  3  1  1  0
  4  2  1  0
  5  3  1  0
  6  4  1  0
  7  5  1  0
  8  6  1  0
  9  7  1  0
 10  9  1  0
 11 10  1  0
 12 11  1  0
 13  8  1  0
 14 12  1  0
 15 13  1  0
 16 14  1  0
 17 16  2  0
 18 15  1  0
 18 16  1  0
M  END
>  <NAME>  (3395) 
HEXYL DECANOATE

>  <SYNONYMS>  (3395) 


>  <SPECTRUM TYPE>  (3395) 
MS1

>  <INSTRUMENT TYPE>  (3395) 
EI-B

>  <INSTRUMENT>  (3395) 
HITACHI M-80B

>  <ION MODE>  (3395) 
P

>  <INCHIKEY>  (3395) 
DGPNTCACXCHFDI-UHFFFAOYSA-N

>  <FORMULA>  (3395) 
C16H32O2

>  <EXACT MASS>  (3395) 
256.240230264

>  <MW>  (3395) 
256

>  <ID>  (3395) 
JP007203

>  <CONTRIBUTOR>  (3395) 
University of Tokyo Team, {Faculty of Engineering, University of Tokyo

>  <COMMENT>  (3395) 
SMILES=CCCCCCCCCC(=O)OCCCCCC
InChI=InChI=1S/C16H32O2/c1-3-5-7-9-10-11-12-14-16(17)18-15-13-8-6-4-2/h3-15H2,1-2H3
computed SMILES=O=C(OCCCCCC)CCCCCCCCC
accession=JP007203
date=2016.01.19 (Created 2008.10.21, modified 2011.05.06)
author=SODA AROMATIC CO., LTD.
license=CC BY-NC-SA
exact mass=256.24023
ionization energy=70 eV
ion type=[M]+*
computed spectral entropy=3.164854741973598
computed normalized entropy=0.7971340170657832
SPLASH=splash10-0a5c-9200000000-25c8f04250baf2e801e6
submitter=submitter = University of Tokyo Team (Faculty of Engineering, University of Tokyo)
MoNA Rating=3.75

>  <NUM PEAKS>  (3395) 
53

>  <MASS SPECTRAL PEAKS>  (3395) 
27 12.81
29 22.43
31 1
39 7.65
41 45.5
42 21.57
43 99.99
44 2.57
45 1.42
53 2.14
54 2.84
55 39.2
56 50.61
57 28.57
58 1.64
59 1.09
60 17.08
61 34.19
67 3.54
68 2.47
69 25.89
70 3.29
71 16.42
73 19.84
74 1.85
81 2.83
82 1.63
83 7.48
84 86.36
85 23.08
86 1.32
87 4.35
89 1.89
95 2.6
97 2.95
98 3.21
101 2.29
103 1.42
110 1.27
111 1.54
112 1.22
115 2.81
129 11.49
143 1.35
144 1.76
155 29.26
156 3.01
157 1.49
172 7.53
173 61.73
174 7.42
213 1.03
256 1.43

$$$$

     RDKit          2D

 17 16  0  0  0  0  0  0  0  0999 V2000
    4.5466    7.8750    0.0000 C   0  0  0  0  0  0  0  0  0  0  0  0
  -13.6399    7.8750    0.0000 C   0  0  0  0  0  0  0  0  0  0  0  0
  -12.3409   10.1250    0.0000 C   0  0  0  0  0  0  0  0  0  0  0  0
    3.2476    8.6250    0.0000 C   0  0  0  0  0  0  0  0  0  0  0  0
    1.9486    7.8750    0.0000 C   0  0  0  0  0  0  0  0  0  0  0  0
    0.6495    8.6250    0.0000 C   0  0  0  0  0  0  0  0  0  0  0  0
   -0.6495    7.8750    0.0000 C   0  0  0  0  0  0  0  0  0  0  0  0
   -1.9486    8.6250    0.0000 C   0  0  0  0  0  0  0  0  0  0  0  0
   -3.2476    7.8750    0.0000 C   0  0  0  0  0  0  0  0  0  0  0  0
   -4.5466    8.6250    0.0000 C   0  0  0  0  0  0  0  0  0  0  0  0
   -5.8457    7.8750    0.0000 C   0  0  0  0  0  0  0  0  0  0  0  0
  -11.0418    7.8750    0.0000 C   0  0  0  0  0  0  0  0  0  0  0  0
   -9.7428    8.6250    0.0000 C   0  0  0  0  0  0  0  0  0  0  0  0
  -12.3409    8.6250    0.0000 C   0  0  0  0  0  0  0  0  0  0  0  0
   -7.1447    8.6250    0.0000 C   0  0  0  0  0  0  0  0  0  0  0  0
   -7.1447   10.1250    0.0000 O   0  0  0  0  0  0  0  0  0  0  0  0
   -8.4437    7.8750    0.0000 O   0  0  0  0  0  0  0  0  0  0  0  0
  4  1  1  0
  5  4  1  0
  6  5  1  0
  7  6  1  0
  8  7  1  0
  9  8  1  0
 10  9  1  0
 11 10  1  0
 13 12  1  0
 14  2  1  0
 14  3  1  0
 14 12  1  0
 15 11  1  0
 16 15  2  0
 17 13  1  0
 17 15  1  0
M  END
>  <NAME>  (3396) 
ISOPENTYL DECANOATE

>  <SYNONYMS>  (3396) 


>  <SPECTRUM TYPE>  (3396) 
MS1

>  <INSTRUMENT TYPE>  (3396) 
EI-B

>  <INSTRUMENT>  (3396) 
HITACHI M-80B

>  <ION MODE>  (3396) 
P

>  <INCHIKEY>  (3396) 
XDOGFYDZGUDBQY-UHFFFAOYSA-N

>  <FORMULA>  (3396) 
C15H30O2

>  <EXACT MASS>  (3396) 
242.2245802

>  <MW>  (3396) 
242

>  <ID>  (3396) 
JP007202

>  <CONTRIBUTOR>  (3396) 
University of Tokyo Team, {Faculty of Engineering, University of Tokyo

>  <COMMENT>  (3396) 
SMILES=CCCCCCCCCC(=O)OCCC(C)C
InChI=InChI=1S/C15H30O2/c1-4-5-6-7-8-9-10-11-15(16)17-13-12-14(2)3/h14H,4-13H2,1-3H3
computed SMILES=O=C(OCCC(C)C)CCCCCCCCC
accession=JP007202
date=2016.01.19 (Created 2008.10.21, modified 2011.05.06)
author=SODA AROMATIC CO., LTD.
license=CC BY-NC-SA
exact mass=242.22458
ionization energy=70 eV
ion type=[M]+*
computed spectral entropy=2.642102743069764
computed normalized entropy=0.7211841913076588
SPLASH=splash10-00di-9000000000-587d40b1493d6deab483
submitter=submitter = University of Tokyo Team (Faculty of Engineering, University of Tokyo)
MoNA Rating=3.75

>  <NUM PEAKS>  (3396) 
39

>  <MASS SPECTRAL PEAKS>  (3396) 
27 7
29 11.09
39 3.8
41 22.14
42 8.88
43 45.13
44 1.12
45 1.07
53 1.29
54 1.06
55 23.36
56 3.18
57 10.12
60 3.39
61 1.31
67 1.23
68 1.08
69 6.99
70 99.99
71 39.1
72 1.87
73 3.68
81 1.34
83 1.79
84 1.71
85 3.1
87 1.69
95 1.29
97 1.13
98 1.38
115 1.77
129 2.32
130 1.16
143 1.25
155 15.94
156 1.61
172 2.4
173 5.98
199 1.04

$$$$

     RDKit          2D

 17 16  0  0  0  0  0  0  0  0999 V2000
    5.1962    8.2500    0.0000 C   0  0  0  0  0  0  0  0  0  0  0  0
  -14.2894    9.0000    0.0000 C   0  0  0  0  0  0  0  0  0  0  0  0
    3.8971    9.0000    0.0000 C   0  0  0  0  0  0  0  0  0  0  0  0
  -12.9904    8.2500    0.0000 C   0  0  0  0  0  0  0  0  0  0  0  0
    2.5981    8.2500    0.0000 C   0  0  0  0  0  0  0  0  0  0  0  0
  -11.6913    9.0000    0.0000 C   0  0  0  0  0  0  0  0  0  0  0  0
    1.2990    9.0000    0.0000 C   0  0  0  0  0  0  0  0  0  0  0  0
    0.0000    8.2500    0.0000 C   0  0  0  0  0  0  0  0  0  0  0  0
   -1.2990    9.0000    0.0000 C   0  0  0  0  0  0  0  0  0  0  0  0
   -2.5981    8.2500    0.0000 C   0  0  0  0  0  0  0  0  0  0  0  0
   -3.8971    9.0000    0.0000 C   0  0  0  0  0  0  0  0  0  0  0  0
  -10.3923    8.2500    0.0000 C   0  0  0  0  0  0  0  0  0  0  0  0
   -5.1962    8.2500    0.0000 C   0  0  0  0  0  0  0  0  0  0  0  0
   -9.0933    9.0000    0.0000 C   0  0  0  0  0  0  0  0  0  0  0  0
   -6.4952    9.0000    0.0000 C   0  0  0  0  0  0  0  0  0  0  0  0
   -6.4952   10.5000    0.0000 O   0  0  0  0  0  0  0  0  0  0  0  0
   -7.7942    8.2500    0.0000 O   0  0  0  0  0  0  0  0  0  0  0  0
  3  1  1  0
  4  2  1  0
  5  3  1  0
  6  4  1  0
  7  5  1  0
  8  7  1  0
  9  8  1  0
 10  9  1  0
 11 10  1  0
 12  6  1  0
 13 11  1  0
 14 12  1  0
 15 13  1  0
 16 15  2  0
 17 14  1  0
 17 15  1  0
M  END
>  <NAME>  (3397) 
PENTYL DECANOATE

>  <SYNONYMS>  (3397) 


>  <SPECTRUM TYPE>  (3397) 
MS1

>  <INSTRUMENT TYPE>  (3397) 
EI-B

>  <INSTRUMENT>  (3397) 
HITACHI M-80B

>  <ION MODE>  (3397) 
P

>  <INCHIKEY>  (3397) 
BGYFCELTJPRWBA-UHFFFAOYSA-N

>  <FORMULA>  (3397) 
C15H30O2

>  <EXACT MASS>  (3397) 
242.2245802

>  <MW>  (3397) 
242

>  <ID>  (3397) 
JP007201

>  <CONTRIBUTOR>  (3397) 
University of Tokyo Team, {Faculty of Engineering, University of Tokyo

>  <COMMENT>  (3397) 
SMILES=CCCCCCCCCC(=O)OCCCCC
InChI=InChI=1S/C15H30O2/c1-3-5-7-8-9-10-11-13-15(16)17-14-12-6-4-2/h3-14H2,1-2H3
computed SMILES=O=C(OCCCCC)CCCCCCCCC
accession=JP007201
date=2016.01.19 (Created 2008.10.21, modified 2011.05.06)
author=SODA AROMATIC CO., LTD.
license=CC BY-NC-SA
exact mass=242.22458
ionization energy=70 eV
ion type=[M]+*
computed spectral entropy=3.1365330111229337
computed normalized entropy=0.801767527126201
SPLASH=splash10-00dl-9200000000-54dd5eeb6934d4546e5e
submitter=submitter = University of Tokyo Team (Faculty of Engineering, University of Tokyo)
MoNA Rating=3.75

>  <NUM PEAKS>  (3397) 
50

>  <MASS SPECTRAL PEAKS>  (3397) 
27 11.12
29 22.53
39 7.03
41 39.21
42 22.1
43 69.46
44 1.8
45 1.33
53 1.73
54 1.93
55 31.45
56 6.23
57 18.31
58 1.12
60 18.51
61 15.95
67 2.36
68 2.17
69 14.91
70 99.99
71 30.64
72 1.55
73 18.7
74 1.81
81 2.43
83 5.03
84 4.41
85 6.48
87 5.35
89 1.52
95 2.14
97 2.52
98 2.81
101 1.92
102 2.14
103 1.51
110 1.19
111 1.37
112 1.1
115 5.94
129 8.55
130 6.13
131 1.24
143 2.9
155 26.81
156 2.61
172 5.28
173 51
174 6.02
242 1.09

$$$$

     RDKit          2D

 16 15  0  0  0  0  0  0  0  0999 V2000
    4.2219    7.6875    0.0000 C   0  0  0  0  0  0  0  0  0  0  0  0
  -12.6656    8.4375    0.0000 C   0  0  0  0  0  0  0  0  0  0  0  0
  -11.3666    6.1875    0.0000 C   0  0  0  0  0  0  0  0  0  0  0  0
    2.9228    8.4375    0.0000 C   0  0  0  0  0  0  0  0  0  0  0  0
    1.6238    7.6875    0.0000 C   0  0  0  0  0  0  0  0  0  0  0  0
    0.3248    8.4375    0.0000 C   0  0  0  0  0  0  0  0  0  0  0  0
   -0.9743    7.6875    0.0000 C   0  0  0  0  0  0  0  0  0  0  0  0
   -2.2733    8.4375    0.0000 C   0  0  0  0  0  0  0  0  0  0  0  0
   -3.5724    7.6875    0.0000 C   0  0  0  0  0  0  0  0  0  0  0  0
   -4.8714    8.4375    0.0000 C   0  0  0  0  0  0  0  0  0  0  0  0
   -6.1704    7.6875    0.0000 C   0  0  0  0  0  0  0  0  0  0  0  0
  -10.0675    8.4375    0.0000 C   0  0  0  0  0  0  0  0  0  0  0  0
  -11.3666    7.6875    0.0000 C   0  0  0  0  0  0  0  0  0  0  0  0
   -7.4695    8.4375    0.0000 C   0  0  0  0  0  0  0  0  0  0  0  0
   -7.4695    9.9375    0.0000 O   0  0  0  0  0  0  0  0  0  0  0  0
   -8.7685    7.6875    0.0000 O   0  0  0  0  0  0  0  0  0  0  0  0
  4  1  1  0
  5  4  1  0
  6  5  1  0
  7  6  1  0
  8  7  1  0
  9  8  1  0
 10  9  1  0
 11 10  1  0
 13  2  1  0
 13  3  1  0
 13 12  1  0
 14 11  1  0
 15 14  2  0
 16 12  1  0
 16 14  1  0
M  END
>  <NAME>  (3398) 
ISOBUTYL DECANOATE

>  <SYNONYMS>  (3398) 


>  <SPECTRUM TYPE>  (3398) 
MS1

>  <INSTRUMENT TYPE>  (3398) 
EI-B

>  <INSTRUMENT>  (3398) 
HITACHI M-80B

>  <ION MODE>  (3398) 
P

>  <INCHIKEY>  (3398) 
AXTPGRJJIGEOOY-UHFFFAOYSA-N

>  <FORMULA>  (3398) 
C14H28O2

>  <EXACT MASS>  (3398) 
228.208930136

>  <MW>  (3398) 
228

>  <ID>  (3398) 
JP007200

>  <CONTRIBUTOR>  (3398) 
University of Tokyo Team, {Faculty of Engineering, University of Tokyo

>  <COMMENT>  (3398) 
SMILES=CCCCCCCCCC(=O)OCC(C)C
InChI=InChI=1S/C14H28O2/c1-4-5-6-7-8-9-10-11-14(15)16-12-13(2)3/h13H,4-12H2,1-3H3
computed SMILES=O=C(OCC(C)C)CCCCCCCCC
accession=JP007200
date=2016.01.19 (Created 2008.10.21, modified 2011.05.06)
author=SODA AROMATIC CO., LTD.
license=CC BY-NC-SA
exact mass=228.20893
ionization energy=70 eV
ion type=[M]+*
computed spectral entropy=3.0040155712531846
computed normalized entropy=0.7846165937629727
SPLASH=splash10-0a4i-9200000000-e8404a98518ed8ad4134
submitter=submitter = University of Tokyo Team (Faculty of Engineering, University of Tokyo)
MoNA Rating=3.75

>  <NUM PEAKS>  (3398) 
46

>  <MASS SPECTRAL PEAKS>  (3398) 
27 11.28
29 26.13
31 1.4
39 8.34
41 47.91
42 10.06
43 39.75
44 1
53 1.63
54 1.65
55 21.07
56 99.99
57 82.29
58 3.07
60 22.44
61 6.17
67 2.33
68 2.23
69 9.84
70 2.64
71 18.25
73 15.09
74 1.65
81 2.7
83 4.93
84 3.13
85 8.43
86 1.02
87 4.55
95 2.67
97 2.24
98 2.59
101 1.77
110 1.07
111 1.17
112 1.36
115 2.01
116 5.67
117 1.11
129 9.11
143 1.27
155 49.68
156 5.02
172 9.03
173 28.22
174 2.57

$$$$

     RDKit          2D

 16 15  0  0  0  0  0  0  0  0999 V2000
    4.5466    7.8750    0.0000 C   0  0  0  0  0  0  0  0  0  0  0  0
  -13.6399    7.8750    0.0000 C   0  0  0  0  0  0  0  0  0  0  0  0
    3.2476    8.6250    0.0000 C   0  0  0  0  0  0  0  0  0  0  0  0
  -12.3409    8.6250    0.0000 C   0  0  0  0  0  0  0  0  0  0  0  0
    1.9486    7.8750    0.0000 C   0  0  0  0  0  0  0  0  0  0  0  0
  -11.0418    7.8750    0.0000 C   0  0  0  0  0  0  0  0  0  0  0  0
    0.6495    8.6250    0.0000 C   0  0  0  0  0  0  0  0  0  0  0  0
   -0.6495    7.8750    0.0000 C   0  0  0  0  0  0  0  0  0  0  0  0
   -1.9486    8.6250    0.0000 C   0  0  0  0  0  0  0  0  0  0  0  0
   -3.2476    7.8750    0.0000 C   0  0  0  0  0  0  0  0  0  0  0  0
   -4.5466    8.6250    0.0000 C   0  0  0  0  0  0  0  0  0  0  0  0
   -5.8457    7.8750    0.0000 C   0  0  0  0  0  0  0  0  0  0  0  0
   -9.7428    8.6250    0.0000 C   0  0  0  0  0  0  0  0  0  0  0  0
   -7.1447    8.6250    0.0000 C   0  0  0  0  0  0  0  0  0  0  0  0
   -7.1447   10.1250    0.0000 O   0  0  0  0  0  0  0  0  0  0  0  0
   -8.4437    7.8750    0.0000 O   0  0  0  0  0  0  0  0  0  0  0  0
  3  1  1  0
  4  2  1  0
  5  3  1  0
  6  4  1  0
  7  5  1  0
  8  7  1  0
  9  8  1  0
 10  9  1  0
 11 10  1  0
 12 11  1  0
 13  6  1  0
 14 12  1  0
 15 14  2  0
 16 13  1  0
 16 14  1  0
M  END
>  <NAME>  (3399) 
BUTYL DECANOATE

>  <SYNONYMS>  (3399) 


>  <SPECTRUM TYPE>  (3399) 
MS1

>  <INSTRUMENT TYPE>  (3399) 
EI-B

>  <INSTRUMENT>  (3399) 
HITACHI M-80B

>  <ION MODE>  (3399) 
P

>  <INCHIKEY>  (3399) 
ZRNCNTSXSYXHOW-UHFFFAOYSA-N

>  <FORMULA>  (3399) 
C14H28O2

>  <EXACT MASS>  (3399) 
228.208930136

>  <MW>  (3399) 
228

>  <ID>  (3399) 
JP007199

>  <CONTRIBUTOR>  (3399) 
University of Tokyo Team, {Faculty of Engineering, University of Tokyo

>  <COMMENT>  (3399) 
SMILES=CCCCCCCCCC(=O)OCCCC
InChI=InChI=1S/C14H28O2/c1-3-5-7-8-9-10-11-12-14(15)16-13-6-4-2/h3-13H2,1-2H3
computed SMILES=O=C(OCCCC)CCCCCCCCC
accession=JP007199
date=2016.01.19 (Created 2008.10.21, modified 2011.05.06)
author=SODA AROMATIC CO., LTD.
license=CC BY-NC-SA
exact mass=228.20893
ionization energy=70 eV
ion type=[M]+*
computed spectral entropy=3.1531317984961484
computed normalized entropy=0.8060105459811984
SPLASH=splash10-0a4i-9200000000-15bec7cf55b2a95aaeb0
submitter=submitter = University of Tokyo Team (Faculty of Engineering, University of Tokyo)
MoNA Rating=3.75

>  <NUM PEAKS>  (3399) 
50

>  <MASS SPECTRAL PEAKS>  (3399) 
27 12.22
29 31.47
31 1.21
39 7.74
41 46.44
42 9.32
43 35.91
45 1.14
53 1.81
54 1.67
55 25.04
56 99.99
57 41.65
58 1.53
60 28.55
61 12.11
67 2.18
68 2.21
69 11.48
70 2.46
71 14.26
73 23.56
74 2.12
81 2.39
82 1.04
83 5.99
84 4.58
85 6.52
87 5.64
89 1.49
95 2.16
97 3.4
98 3.97
101 5.81
103 1.35
110 1.28
111 1.42
115 2.34
116 7.84
117 1.95
129 12.77
130 1.02
143 1.64
155 30.27
156 3.09
172 4.57
173 45.08
174 5.27
185 1.32
228 1.26

$$$$

     RDKit          2D

 15 14  0  0  0  0  0  0  0  0999 V2000
    3.8971    6.7500    0.0000 C   0  0  0  0  0  0  0  0  0  0  0  0
  -11.6913    6.7500    0.0000 C   0  0  0  0  0  0  0  0  0  0  0  0
  -10.3923    9.0000    0.0000 C   0  0  0  0  0  0  0  0  0  0  0  0
    2.5981    7.5000    0.0000 C   0  0  0  0  0  0  0  0  0  0  0  0
    1.2990    6.7500    0.0000 C   0  0  0  0  0  0  0  0  0  0  0  0
    0.0000    7.5000    0.0000 C   0  0  0  0  0  0  0  0  0  0  0  0
   -1.2990    6.7500    0.0000 C   0  0  0  0  0  0  0  0  0  0  0  0
   -2.5981    7.5000    0.0000 C   0  0  0  0  0  0  0  0  0  0  0  0
   -3.8971    6.7500    0.0000 C   0  0  0  0  0  0  0  0  0  0  0  0
   -5.1962    7.5000    0.0000 C   0  0  0  0  0  0  0  0  0  0  0  0
   -6.4952    6.7500    0.0000 C   0  0  0  0  0  0  0  0  0  0  0  0
  -10.3923    7.5000    0.0000 C   0  0  0  0  0  0  0  0  0  0  0  0
   -7.7942    7.5000    0.0000 C   0  0  0  0  0  0  0  0  0  0  0  0
   -7.7942    9.0000    0.0000 O   0  0  0  0  0  0  0  0  0  0  0  0
   -9.0933    6.7500    0.0000 O   0  0  0  0  0  0  0  0  0  0  0  0
  4  1  1  0
  5  4  1  0
  6  5  1  0
  7  6  1  0
  8  7  1  0
  9  8  1  0
 10  9  1  0
 11 10  1  0
 12  2  1  0
 12  3  1  0
 13 11  1  0
 14 13  2  0
 15 12  1  0
 15 13  1  0
M  END
>  <NAME>  (3400) 
ISOPROPYL DECANOATE

>  <SYNONYMS>  (3400) 


>  <SPECTRUM TYPE>  (3400) 
MS1

>  <INSTRUMENT TYPE>  (3400) 
EI-B

>  <INSTRUMENT>  (3400) 
HITACHI M-80B

>  <ION MODE>  (3400) 
P

>  <INCHIKEY>  (3400) 
PKPPDYGHKDIKBH-UHFFFAOYSA-N

>  <FORMULA>  (3400) 
C13H26O2

>  <EXACT MASS>  (3400) 
214.193280072

>  <MW>  (3400) 
214

>  <ID>  (3400) 
JP007198

>  <CONTRIBUTOR>  (3400) 
University of Tokyo Team, {Faculty of Engineering, University of Tokyo

>  <COMMENT>  (3400) 
SMILES=CCCCCCCCCC(=O)OC(C)C
InChI=InChI=1S/C13H26O2/c1-4-5-6-7-8-9-10-11-13(14)15-12(2)3/h12H,4-11H2,1-3H3
computed SMILES=O=C(OC(C)C)CCCCCCCCC
accession=JP007198
date=2016.01.19 (Created 2008.10.21, modified 2011.05.06)
author=SODA AROMATIC CO., LTD.
license=CC BY-NC-SA
exact mass=214.19328
ionization energy=70 eV
ion type=[M]+*
computed spectral entropy=3.247718839339613
computed normalized entropy=0.8301890952157555
SPLASH=splash10-0006-9200000000-408a7325a368f7b0a84e
submitter=submitter = University of Tokyo Team (Faculty of Engineering, University of Tokyo)
MoNA Rating=3.75

>  <NUM PEAKS>  (3400) 
50

>  <MASS SPECTRAL PEAKS>  (3400) 
15 1.08
27 18.74
29 20.33
39 10.59
41 50.5
42 17.57
43 99.99
44 2.33
45 4.21
53 1.99
54 2.01
55 24.06
56 7.83
57 26.75
58 1.22
59 20.21
60 58.93
61 10.9
67 2.61
68 2.76
69 14.17
70 4.93
71 23.19
73 23.65
74 2.58
81 2.76
82 1.41
83 7.69
84 5.57
85 7.14
87 7.39
89 1.03
95 2.29
97 2.96
98 3.05
101 1.89
102 36.25
103 3.81
110 1.53
111 1.56
112 4.4
113 1.31
115 2.95
129 12.92
143 1.63
155 24.36
156 2.23
172 16.97
173 19.54
174 1.59

$$$$

     RDKit          2D

 15 14  0  0  0  0  0  0  0  0999 V2000
    4.5466    7.1250    0.0000 C   0  0  0  0  0  0  0  0  0  0  0  0
  -12.3409    7.8750    0.0000 C   0  0  0  0  0  0  0  0  0  0  0  0
    3.2476    7.8750    0.0000 C   0  0  0  0  0  0  0  0  0  0  0  0
  -11.0418    7.1250    0.0000 C   0  0  0  0  0  0  0  0  0  0  0  0
    1.9486    7.1250    0.0000 C   0  0  0  0  0  0  0  0  0  0  0  0
    0.6495    7.8750    0.0000 C   0  0  0  0  0  0  0  0  0  0  0  0
   -0.6495    7.1250    0.0000 C   0  0  0  0  0  0  0  0  0  0  0  0
   -1.9486    7.8750    0.0000 C   0  0  0  0  0  0  0  0  0  0  0  0
   -3.2476    7.1250    0.0000 C   0  0  0  0  0  0  0  0  0  0  0  0
   -4.5466    7.8750    0.0000 C   0  0  0  0  0  0  0  0  0  0  0  0
   -5.8457    7.1250    0.0000 C   0  0  0  0  0  0  0  0  0  0  0  0
   -9.7428    7.8750    0.0000 C   0  0  0  0  0  0  0  0  0  0  0  0
   -7.1447    7.8750    0.0000 C   0  0  0  0  0  0  0  0  0  0  0  0
   -7.1447    9.3750    0.0000 O   0  0  0  0  0  0  0  0  0  0  0  0
   -8.4437    7.1250    0.0000 O   0  0  0  0  0  0  0  0  0  0  0  0
  3  1  1  0
  4  2  1  0
  5  3  1  0
  6  5  1  0
  7  6  1  0
  8  7  1  0
  9  8  1  0
 10  9  1  0
 11 10  1  0
 12  4  1  0
 13 11  1  0
 14 13  2  0
 15 12  1  0
 15 13  1  0
M  END
>  <NAME>  (3401) 
PROPYL DECANOATE

>  <SYNONYMS>  (3401) 


>  <SPECTRUM TYPE>  (3401) 
MS1

>  <INSTRUMENT TYPE>  (3401) 
EI-B

>  <INSTRUMENT>  (3401) 
HITACHI M-80B

>  <ION MODE>  (3401) 
P

>  <INCHIKEY>  (3401) 
OVFMRFMJVFDSAA-UHFFFAOYSA-N

>  <FORMULA>  (3401) 
C13H26O2

>  <EXACT MASS>  (3401) 
214.193280072

>  <MW>  (3401) 
214

>  <ID>  (3401) 
JP007197

>  <CONTRIBUTOR>  (3401) 
University of Tokyo Team, {Faculty of Engineering, University of Tokyo

>  <COMMENT>  (3401) 
SMILES=CCCCCCCCCC(=O)OCCC
InChI=InChI=1S/C13H26O2/c1-3-5-6-7-8-9-10-11-13(14)15-12-4-2/h3-12H2,1-2H3
computed SMILES=O=C(OCCC)CCCCCCCCC
accession=JP007197
date=2016.01.19 (Created 2008.10.21, modified 2011.05.06)
author=SODA AROMATIC CO., LTD.
license=CC BY-NC-SA
exact mass=214.19328
ionization energy=70 eV
ion type=[M]+*
computed spectral entropy=3.3395182461278377
computed normalized entropy=0.809161499133339
SPLASH=splash10-01vo-9300000000-3ab83e541031f18e243f
submitter=submitter = University of Tokyo Team (Faculty of Engineering, University of Tokyo)
MoNA Rating=3.75

>  <NUM PEAKS>  (3401) 
62

>  <MASS SPECTRAL PEAKS>  (3401) 
26 0.13
27 26.18
29 27.47
31 3.14
39 12.54
41 67.55
42 29.92
43 95.31
44 1.82
45 2.61
53 2.93
54 2.85
55 35.6
56 9.48
57 28.12
58 2.15
59 5.57
60 65.92
61 99.99
62 2.45
67 3.74
68 3.73
69 21.8
70 4.5
71 21.98
72 1.49
73 43.29
74 4.29
75 1.16
79 1.05
81 4.15
82 1.48
83 10.01
84 6.77
85 10.02
87 14.33
89 2.35
95 3.72
97 5.19
98 4.96
99 1.03
101 3.07
102 39.39
103 6.65
110 2.23
111 2.43
112 1.32
115 20.98
116 1.69
129 15.16
130 1.3
135 1.2
143 2.54
153 1.55
155 56.15
156 5.32
157 1.65
171 5.08
172 4.92
173 60.42
174 5.92
214 2.65

$$$$

     RDKit          2D

 15 14  0  0  0  0  0  0  0  0999 V2000
    4.5466    7.1250    0.0000 C   0  0  0  0  0  0  0  0  0  0  0  0
  -12.3409    7.8750    0.0000 C   0  0  0  0  0  0  0  0  0  0  0  0
    3.2476    7.8750    0.0000 C   0  0  0  0  0  0  0  0  0  0  0  0
  -11.0418    7.1250    0.0000 C   0  0  0  0  0  0  0  0  0  0  0  0
    1.9486    7.1250    0.0000 C   0  0  0  0  0  0  0  0  0  0  0  0
    0.6495    7.8750    0.0000 C   0  0  0  0  0  0  0  0  0  0  0  0
   -0.6495    7.1250    0.0000 C   0  0  0  0  0  0  0  0  0  0  0  0
   -1.9486    7.8750    0.0000 C   0  0  0  0  0  0  0  0  0  0  0  0
   -3.2476    7.1250    0.0000 C   0  0  0  0  0  0  0  0  0  0  0  0
   -4.5466    7.8750    0.0000 C   0  0  0  0  0  0  0  0  0  0  0  0
   -5.8457    7.1250    0.0000 C   0  0  0  0  0  0  0  0  0  0  0  0
   -9.7428    7.8750    0.0000 C   0  0  0  0  0  0  0  0  0  0  0  0
   -7.1447    7.8750    0.0000 C   0  0  0  0  0  0  0  0  0  0  0  0
   -7.1447    9.3750    0.0000 O   0  0  0  0  0  0  0  0  0  0  0  0
   -8.4437    7.1250    0.0000 O   0  0  0  0  0  0  0  0  0  0  0  0
  3  1  1  0
  4  2  2  0
  5  3  1  0
  6  5  1  0
  7  6  1  0
  8  7  1  0
  9  8  1  0
 10  9  1  0
 11 10  1  0
 12  4  1  0
 13 11  1  0
 14 13  2  0
 15 12  1  0
 15 13  1  0
M  END
>  <NAME>  (3402) 
ALLYL DECANOATE

>  <SYNONYMS>  (3402) 


>  <SPECTRUM TYPE>  (3402) 
MS1

>  <INSTRUMENT TYPE>  (3402) 
EI-B

>  <INSTRUMENT>  (3402) 
HITACHI M-80B

>  <ION MODE>  (3402) 
P

>  <INCHIKEY>  (3402) 
DQVOTEHORLHPRW-UHFFFAOYSA-N

>  <FORMULA>  (3402) 
C13H24O2

>  <EXACT MASS>  (3402) 
212.177630008

>  <MW>  (3402) 
212

>  <ID>  (3402) 
JP007196

>  <CONTRIBUTOR>  (3402) 
University of Tokyo Team, {Faculty of Engineering, University of Tokyo

>  <COMMENT>  (3402) 
SMILES=CCCCCCCCCC(=O)OCC=C
InChI=InChI=1S/C13H24O2/c1-3-5-6-7-8-9-10-11-13(14)15-12-4-2/h4H,2-3,5-12H2,1H3
computed SMILES=O=C(OCC=C)CCCCCCCCC
accession=JP007196
date=2016.01.19 (Created 2008.10.21, modified 2011.05.06)
author=SODA AROMATIC CO., LTD.
license=CC BY-NC-SA
exact mass=212.17763
ionization energy=70 eV
ion type=[M]+*
computed spectral entropy=3.2279563605999804
computed normalized entropy=0.8209815648318461
SPLASH=splash10-052f-9200000000-1717286a3d950c9e8936
submitter=submitter = University of Tokyo Team (Faculty of Engineering, University of Tokyo)
MoNA Rating=3.75

>  <NUM PEAKS>  (3402) 
51

>  <MASS SPECTRAL PEAKS>  (3402) 
15 1.08
26 1.15
27 17.38
29 27.51
31 1.03
39 22.84
41 99.99
42 13.64
43 63.34
44 1.52
45 1.61
53 2.63
54 12.34
55 42.99
56 16.05
57 39.19
58 10.89
59 1.76
60 1.29
67 7.43
68 2.41
69 30.28
70 3.55
71 30.87
72 1.87
73 3.03
79 1.11
81 9.36
82 5.31
83 11.87
84 4.79
85 16.85
86 1.01
87 1.39
93 1.18
95 8.35
97 7.17
98 3.35
99 3.83
100 40.8
101 5.83
109 1.8
111 6.13
113 18.48
114 1.37
127 1.86
135 2.74
153 2.38
155 34.36
156 3.56
169 4.5

$$$$

     RDKit          2D

 14 13  0  0  0  0  0  0  0  0999 V2000
    3.8971    6.7500    0.0000 C   0  0  0  0  0  0  0  0  0  0  0  0
  -11.6913    6.7500    0.0000 C   0  0  0  0  0  0  0  0  0  0  0  0
    2.5981    7.5000    0.0000 C   0  0  0  0  0  0  0  0  0  0  0  0
  -10.3923    7.5000    0.0000 C   0  0  0  0  0  0  0  0  0  0  0  0
    1.2990    6.7500    0.0000 C   0  0  0  0  0  0  0  0  0  0  0  0
    0.0000    7.5000    0.0000 C   0  0  0  0  0  0  0  0  0  0  0  0
   -1.2990    6.7500    0.0000 C   0  0  0  0  0  0  0  0  0  0  0  0
   -2.5981    7.5000    0.0000 C   0  0  0  0  0  0  0  0  0  0  0  0
   -3.8971    6.7500    0.0000 C   0  0  0  0  0  0  0  0  0  0  0  0
   -5.1962    7.5000    0.0000 C   0  0  0  0  0  0  0  0  0  0  0  0
   -6.4952    6.7500    0.0000 C   0  0  0  0  0  0  0  0  0  0  0  0
   -7.7942    7.5000    0.0000 C   0  0  0  0  0  0  0  0  0  0  0  0
   -7.7942    9.0000    0.0000 O   0  0  0  0  0  0  0  0  0  0  0  0
   -9.0933    6.7500    0.0000 O   0  0  0  0  0  0  0  0  0  0  0  0
  3  1  1  0
  4  2  1  0
  5  3  1  0
  6  5  1  0
  7  6  1  0
  8  7  1  0
  9  8  1  0
 10  9  1  0
 11 10  1  0
 12 11  1  0
 13 12  2  0
 14  4  1  0
 14 12  1  0
M  END
>  <NAME>  (3403) 
ETHYL DECANOATE

>  <SYNONYMS>  (3403) 


>  <SPECTRUM TYPE>  (3403) 
MS1

>  <INSTRUMENT TYPE>  (3403) 
EI-B

>  <INSTRUMENT>  (3403) 
HITACHI M-80B

>  <ION MODE>  (3403) 
P

>  <INCHIKEY>  (3403) 
RGXWDWUGBIJHDO-UHFFFAOYSA-N

>  <FORMULA>  (3403) 
C12H24O2

>  <EXACT MASS>  (3403) 
200.177630008

>  <MW>  (3403) 
200

>  <ID>  (3403) 
JP007195

>  <CONTRIBUTOR>  (3403) 
University of Tokyo Team, {Faculty of Engineering, University of Tokyo

>  <COMMENT>  (3403) 
SMILES=CCCCCCCCCC(=O)OCC
InChI=InChI=1S/C12H24O2/c1-3-5-6-7-8-9-10-11-12(13)14-4-2/h3-11H2,1-2H3
computed SMILES=O=C(OCC)CCCCCCCCC
accession=JP007195
date=2016.01.19 (Created 2008.10.21, modified 2011.05.06)
author=SODA AROMATIC CO., LTD.
license=CC BY-NC-SA
exact mass=200.17763
ionization energy=70 eV
ion type=[M]+*
computed spectral entropy=3.0926302439535935
computed normalized entropy=0.8274220463000612
SPLASH=splash10-000l-9100000000-7ac6d7b76bef37c40833
submitter=submitter = University of Tokyo Team (Faculty of Engineering, University of Tokyo)
MoNA Rating=3.75

>  <NUM PEAKS>  (3403) 
42

>  <MASS SPECTRAL PEAKS>  (3403) 
27 13.24
29 30.53
39 6.83
41 30.32
42 8.68
43 27.6
45 8.66
53 1.7
54 1.62
55 20.26
56 5.04
57 11.93
59 1.2
60 19.63
61 16.17
67 1.9
68 1.53
69 10.82
70 14.45
71 8.63
73 19.58
74 2.47
81 1.8
83 4.09
84 3.46
85 3.43
87 2.69
88 99.99
89 9.23
95 1.5
97 2.65
98 2.28
101 40.86
102 2.97
115 5.95
129 2
143 2.86
155 14.77
156 1.29
157 10.15
171 1.36
200 2.68

$$$$

     RDKit          2D

 13 12  0  0  0  0  0  0  0  0999 V2000
    3.8971    6.0000    0.0000 C   0  0  0  0  0  0  0  0  0  0  0  0
  -10.3923    6.7500    0.0000 C   0  0  0  0  0  0  0  0  0  0  0  0
    2.5981    6.7500    0.0000 C   0  0  0  0  0  0  0  0  0  0  0  0
    1.2990    6.0000    0.0000 C   0  0  0  0  0  0  0  0  0  0  0  0
    0.0000    6.7500    0.0000 C   0  0  0  0  0  0  0  0  0  0  0  0
   -1.2990    6.0000    0.0000 C   0  0  0  0  0  0  0  0  0  0  0  0
   -2.5981    6.7500    0.0000 C   0  0  0  0  0  0  0  0  0  0  0  0
   -3.8971    6.0000    0.0000 C   0  0  0  0  0  0  0  0  0  0  0  0
   -5.1962    6.7500    0.0000 C   0  0  0  0  0  0  0  0  0  0  0  0
   -6.4952    6.0000    0.0000 C   0  0  0  0  0  0  0  0  0  0  0  0
   -7.7942    6.7500    0.0000 C   0  0  0  0  0  0  0  0  0  0  0  0
   -7.7942    8.2500    0.0000 O   0  0  0  0  0  0  0  0  0  0  0  0
   -9.0933    6.0000    0.0000 O   0  0  0  0  0  0  0  0  0  0  0  0
  3  1  1  0
  4  3  1  0
  5  4  1  0
  6  5  1  0
  7  6  1  0
  8  7  1  0
  9  8  1  0
 10  9  1  0
 11 10  1  0
 12 11  2  0
 13  2  1  0
 13 11  1  0
M  END
>  <NAME>  (3404) 
METHYL DECANOATE

>  <SYNONYMS>  (3404) 


>  <SPECTRUM TYPE>  (3404) 
MS1

>  <INSTRUMENT TYPE>  (3404) 
EI-B

>  <INSTRUMENT>  (3404) 
HITACHI M-80B

>  <ION MODE>  (3404) 
P

>  <INCHIKEY>  (3404) 
YRHYCMZPEVDGFQ-UHFFFAOYSA-N

>  <FORMULA>  (3404) 
C11H22O2

>  <EXACT MASS>  (3404) 
186.161979944

>  <MW>  (3404) 
186

>  <ID>  (3404) 
JP007194

>  <CONTRIBUTOR>  (3404) 
University of Tokyo Team, {Faculty of Engineering, University of Tokyo

>  <COMMENT>  (3404) 
SMILES=CCCCCCCCCC(=O)OC
InChI=InChI=1S/C11H22O2/c1-3-4-5-6-7-8-9-10-11(12)13-2/h3-10H2,1-2H3
computed SMILES=O=C(OC)CCCCCCCCC
accession=JP007194
date=2016.01.19 (Created 2008.10.21, modified 2011.05.06)
author=SODA AROMATIC CO., LTD.
license=CC BY-NC-SA
exact mass=186.16198
ionization energy=70 eV
ion type=[M]+*
computed spectral entropy=2.7270066068842174
computed normalized entropy=0.7609856829887707
SPLASH=splash10-00dl-9000000000-e9af40c8b9364ca00540
submitter=submitter = University of Tokyo Team (Faculty of Engineering, University of Tokyo)
MoNA Rating=3.75

>  <NUM PEAKS>  (3404) 
36

>  <MASS SPECTRAL PEAKS>  (3404) 
15 4.02
27 8.71
29 11.62
39 6.13
41 22.69
42 5.99
43 22.11
45 1.3
53 1.63
54 1.01
55 16.42
56 2.78
57 7.36
59 10.03
67 1.42
69 8.31
70 1.38
71 2.69
73 1.51
74 99.99
75 10.02
83 2.57
84 2.47
85 1.46
87 47.67
88 4.96
97 1.8
98 1.54
101 5.23
115 1.06
129 2.69
143 10.85
144 1.03
155 7.5
157 1.57
186 1.95

$$$$

     RDKit          2D

 19 19  0  0  0  0  0  0  0  0999 V2000
  -12.6654    6.5071    0.0000 C   0  0  0  0  0  0  0  0  0  0  0  0
  -11.3663    7.2571    0.0000 C   0  0  0  0  0  0  0  0  0  0  0  0
  -10.0673    6.5071    0.0000 C   0  0  0  0  0  0  0  0  0  0  0  0
   -8.7683    7.2571    0.0000 C   0  0  0  0  0  0  0  0  0  0  0  0
   -7.4692    6.5071    0.0000 C   0  0  0  0  0  0  0  0  0  0  0  0
   -6.1702    7.2571    0.0000 C   0  0  0  0  0  0  0  0  0  0  0  0
    5.5212    5.0071    0.0000 C   0  0  0  0  0  0  0  0  0  0  0  0
    5.5216    6.5079    0.0000 C   0  0  0  0  0  0  0  0  0  0  0  0
    4.2216    4.2563    0.0000 C   0  0  0  0  0  0  0  0  0  0  0  0
   -4.8712    6.5071    0.0000 C   0  0  0  0  0  0  0  0  0  0  0  0
    4.2226    7.2579    0.0000 C   0  0  0  0  0  0  0  0  0  0  0  0
    2.9226    5.0063    0.0000 C   0  0  0  0  0  0  0  0  0  0  0  0
   -3.5721    7.2571    0.0000 C   0  0  0  0  0  0  0  0  0  0  0  0
    1.6240    7.2571    0.0000 C   0  0  0  0  0  0  0  0  0  0  0  0
    0.3250    6.5071    0.0000 C   0  0  0  0  0  0  0  0  0  0  0  0
    2.9231    6.5071    0.0000 C   0  0  0  0  0  0  0  0  0  0  0  0
   -2.2731    6.5071    0.0000 C   0  0  0  0  0  0  0  0  0  0  0  0
   -2.2731    5.0071    0.0000 O   0  0  0  0  0  0  0  0  0  0  0  0
   -0.9740    7.2571    0.0000 O   0  0  0  0  0  0  0  0  0  0  0  0
  2  1  1  0
  3  2  1  0
  4  3  1  0
  5  4  1  0
  6  5  1  0
  8  7  2  0
  9  7  1  0
 10  6  1  0
 11  8  1  0
 12  9  2  0
 13 10  1  0
 15 14  1  0
 16 11  2  0
 16 12  1  0
 16 14  1  0
 17 13  1  0
 18 17  2  0
 19 15  1  0
 19 17  1  0
M  END
>  <NAME>  (3405) 
PHENYLETHYL NONANOATE

>  <SYNONYMS>  (3405) 


>  <SPECTRUM TYPE>  (3405) 
MS1

>  <INSTRUMENT TYPE>  (3405) 
EI-B

>  <INSTRUMENT>  (3405) 
HITACHI M-80B

>  <ION MODE>  (3405) 
P

>  <INCHIKEY>  (3405) 
AFBMLGHBGGLHOF-UHFFFAOYSA-N

>  <FORMULA>  (3405) 
C17H26O2

>  <EXACT MASS>  (3405) 
262.193280072

>  <MW>  (3405) 
262

>  <ID>  (3405) 
JP007193

>  <CONTRIBUTOR>  (3405) 
University of Tokyo Team, {Faculty of Engineering, University of Tokyo

>  <COMMENT>  (3405) 
SMILES=CCCCCCCCC(=O)OCCc(c1)cccc1
InChI=InChI=1S/C17H26O2/c1-2-3-4-5-6-10-13-17(18)19-15-14-16-11-8-7-9-12-16/h7-9,11-12H,2-6,10,13-15H2,1H3
computed SMILES=O=C(OCCC=1C=CC=CC1)CCCCCCCC
accession=JP007193
date=2016.01.19 (Created 2008.10.21, modified 2011.05.06)
author=SODA AROMATIC CO., LTD.
license=CC BY-NC-SA
exact mass=262.19328
ionization energy=70 eV
ion type=[M]+*
computed spectral entropy=1.7584159961543209
computed normalized entropy=0.5869736797501673
SPLASH=splash10-0udi-3900000000-168e718f199c65b61cd6
submitter=submitter = University of Tokyo Team (Faculty of Engineering, University of Tokyo)
MoNA Rating=3.75

>  <NUM PEAKS>  (3405) 
20

>  <MASS SPECTRAL PEAKS>  (3405) 
27 2.18
39 1.65
41 5.17
42 1.3
43 5.94
51 1.24
55 3.16
57 5.85
65 1.42
71 4.08
77 2.5
78 1.66
79 2.79
91 4.43
92 1.25
103 2.38
104 99.99
105 26.53
106 1.91
141 2.21

$$$$

     RDKit          2D

 18 18  0  0  0  0  0  0  0  0999 V2000
  -11.3663    6.5071    0.0000 C   0  0  0  0  0  0  0  0  0  0  0  0
  -10.0673    5.7571    0.0000 C   0  0  0  0  0  0  0  0  0  0  0  0
   -8.7683    6.5071    0.0000 C   0  0  0  0  0  0  0  0  0  0  0  0
   -7.4692    5.7571    0.0000 C   0  0  0  0  0  0  0  0  0  0  0  0
   -6.1702    6.5071    0.0000 C   0  0  0  0  0  0  0  0  0  0  0  0
   -4.8712    5.7571    0.0000 C   0  0  0  0  0  0  0  0  0  0  0  0
    5.5212    4.2571    0.0000 C   0  0  0  0  0  0  0  0  0  0  0  0
    5.5216    5.7579    0.0000 C   0  0  0  0  0  0  0  0  0  0  0  0
    4.2216    3.5063    0.0000 C   0  0  0  0  0  0  0  0  0  0  0  0
   -3.5721    6.5071    0.0000 C   0  0  0  0  0  0  0  0  0  0  0  0
    4.2226    6.5079    0.0000 C   0  0  0  0  0  0  0  0  0  0  0  0
    2.9226    4.2563    0.0000 C   0  0  0  0  0  0  0  0  0  0  0  0
   -2.2731    5.7571    0.0000 C   0  0  0  0  0  0  0  0  0  0  0  0
    1.6240    6.5071    0.0000 C   0  0  0  0  0  0  0  0  0  0  0  0
    2.9231    5.7571    0.0000 C   0  0  0  0  0  0  0  0  0  0  0  0
   -0.9740    6.5071    0.0000 C   0  0  0  0  0  0  0  0  0  0  0  0
   -0.9740    8.0071    0.0000 O   0  0  0  0  0  0  0  0  0  0  0  0
    0.3250    5.7571    0.0000 O   0  0  0  0  0  0  0  0  0  0  0  0
  2  1  1  0
  3  2  1  0
  4  3  1  0
  5  4  1  0
  6  5  1  0
  8  7  2  0
  9  7  1  0
 10  6  1  0
 11  8  1  0
 12  9  2  0
 13 10  1  0
 15 11  2  0
 15 12  1  0
 15 14  1  0
 16 13  1  0
 17 16  2  0
 18 14  1  0
 18 16  1  0
M  END
>  <NAME>  (3406) 
BENZYL NONANOATE

>  <SYNONYMS>  (3406) 


>  <SPECTRUM TYPE>  (3406) 
MS1

>  <INSTRUMENT TYPE>  (3406) 
EI-B

>  <INSTRUMENT>  (3406) 
HITACHI M-80B

>  <ION MODE>  (3406) 
P

>  <INCHIKEY>  (3406) 
KVIQEJMWUXBBQJ-UHFFFAOYSA-N

>  <FORMULA>  (3406) 
C16H24O2

>  <EXACT MASS>  (3406) 
248.177630008

>  <MW>  (3406) 
248

>  <ID>  (3406) 
JP007192

>  <CONTRIBUTOR>  (3406) 
University of Tokyo Team, {Faculty of Engineering, University of Tokyo

>  <COMMENT>  (3406) 
SMILES=CCCCCCCCC(=O)OCc(c1)cccc1
InChI=InChI=1S/C16H24O2/c1-2-3-4-5-6-10-13-16(17)18-14-15-11-8-7-9-12-15/h7-9,11-12H,2-6,10,13-14H2,1H3
computed SMILES=O=C(OCC=1C=CC=CC1)CCCCCCCC
accession=JP007192
date=2016.01.19 (Created 2008.10.21, modified 2011.05.06)
author=SODA AROMATIC CO., LTD.
license=CC BY-NC-SA
exact mass=248.17763
ionization energy=70 eV
ion type=[M]+*
computed spectral entropy=2.9268540611011793
computed normalized entropy=0.7881506023117739
SPLASH=splash10-0006-9200000000-3d6da2c592e434f8a1e0
submitter=submitter = University of Tokyo Team (Faculty of Engineering, University of Tokyo)
MoNA Rating=3.75

>  <NUM PEAKS>  (3406) 
41

>  <MASS SPECTRAL PEAKS>  (3406) 
27 9.68
29 12.48
39 8.63
41 22.85
42 4.47
43 20.77
51 3.33
52 1.17
53 1.46
55 11.85
56 2.25
57 15.06
63 1.79
65 12.78
67 1.92
69 7.11
71 9.64
77 7.29
78 1.5
79 5.81
81 2.25
83 1.6
89 3
90 7.65
91 99.99
92 19.84
93 1.52
95 1.15
96 1.07
97 4.6
105 1.84
107 3.93
108 40.99
109 2.76
111 1.24
121 1.23
138 1
139 6.56
141 4.84
157 4.11
248 1.64

$$$$

     RDKit          2D

 21 20  0  0  0  0  0  0  0  0999 V2000
    6.4952   10.5000    0.0000 C   0  0  0  0  0  0  0  0  0  0  0  0
  -18.1865   11.2500    0.0000 C   0  0  0  0  0  0  0  0  0  0  0  0
    5.1962   11.2500    0.0000 C   0  0  0  0  0  0  0  0  0  0  0  0
  -16.8875   10.5000    0.0000 C   0  0  0  0  0  0  0  0  0  0  0  0
    3.8971   10.5000    0.0000 C   0  0  0  0  0  0  0  0  0  0  0  0
  -15.5885   11.2500    0.0000 C   0  0  0  0  0  0  0  0  0  0  0  0
    2.5981   11.2500    0.0000 C   0  0  0  0  0  0  0  0  0  0  0  0
  -14.2894   10.5000    0.0000 C   0  0  0  0  0  0  0  0  0  0  0  0
    1.2990   10.5000    0.0000 C   0  0  0  0  0  0  0  0  0  0  0  0
  -12.9904   11.2500    0.0000 C   0  0  0  0  0  0  0  0  0  0  0  0
    0.0000   11.2500    0.0000 C   0  0  0  0  0  0  0  0  0  0  0  0
   -1.2990   10.5000    0.0000 C   0  0  0  0  0  0  0  0  0  0  0  0
  -11.6913   10.5000    0.0000 C   0  0  0  0  0  0  0  0  0  0  0  0
   -2.5981   11.2500    0.0000 C   0  0  0  0  0  0  0  0  0  0  0  0
  -10.3923   11.2500    0.0000 C   0  0  0  0  0  0  0  0  0  0  0  0
   -3.8971   10.5000    0.0000 C   0  0  0  0  0  0  0  0  0  0  0  0
   -9.0933   10.5000    0.0000 C   0  0  0  0  0  0  0  0  0  0  0  0
   -5.1962   11.2500    0.0000 C   0  0  0  0  0  0  0  0  0  0  0  0
   -7.7942   11.2500    0.0000 C   0  0  0  0  0  0  0  0  0  0  0  0
   -7.7942   12.7500    0.0000 O   0  0  0  0  0  0  0  0  0  0  0  0
   -6.4952   10.5000    0.0000 O   0  0  0  0  0  0  0  0  0  0  0  0
  3  1  1  0
  4  2  1  0
  5  3  1  0
  6  4  1  0
  7  5  1  0
  8  6  1  0
  9  7  1  0
 10  8  1  0
 11  9  1  0
 12 11  1  0
 13 10  1  0
 14 12  1  0
 15 13  1  0
 16 14  1  0
 17 15  1  0
 18 16  1  0
 19 17  1  0
 20 19  2  0
 21 18  1  0
 21 19  1  0
M  END
>  <NAME>  (3407) 
DECYL NONANOATE

>  <SYNONYMS>  (3407) 


>  <SPECTRUM TYPE>  (3407) 
MS1

>  <INSTRUMENT TYPE>  (3407) 
EI-B

>  <INSTRUMENT>  (3407) 
HITACHI M-80B

>  <ION MODE>  (3407) 
P

>  <INCHIKEY>  (3407) 
KEGIMMCZWZCLGJ-UHFFFAOYSA-N

>  <FORMULA>  (3407) 
C19H38O2

>  <EXACT MASS>  (3407) 
298.287180456

>  <MW>  (3407) 
298

>  <ID>  (3407) 
JP007191

>  <CONTRIBUTOR>  (3407) 
University of Tokyo Team, {Faculty of Engineering, University of Tokyo

>  <COMMENT>  (3407) 
SMILES=CCCCCCCCCCOC(=O)CCCCCCCC
InChI=InChI=1S/C19H38O2/c1-3-5-7-9-11-12-14-16-18-21-19(20)17-15-13-10-8-6-4-2/h3-18H2,1-2H3
computed SMILES=O=C(OCCCCCCCCCC)CCCCCCCC
accession=JP007191
date=2016.01.19 (Created 2008.10.21, modified 2011.05.06)
author=SODA AROMATIC CO., LTD.
license=CC BY-NC-SA
exact mass=298.28718
ionization energy=70 eV
ion type=[M]+*
computed spectral entropy=3.432202645660409
computed normalized entropy=0.8284072018699931
SPLASH=splash10-0a4l-9300000000-118da093eeb901a76c2d
submitter=submitter = University of Tokyo Team (Faculty of Engineering, University of Tokyo)
MoNA Rating=3.75

>  <NUM PEAKS>  (3407) 
63

>  <MASS SPECTRAL PEAKS>  (3407) 
27 10.9
29 23.8
30 1.11
31 1.15
39 6.7
41 63.86
42 18.14
43 99.99
44 1.19
45 1.82
53 2.94
54 6.12
55 62.56
56 42.29
57 80.05
58 3.55
59 1.42
60 8.98
61 21.37
67 6.51
68 11.08
69 38.89
70 41.82
71 41.81
72 2.2
73 12.45
74 1.5
79 1.12
81 4.89
82 13.79
83 34.58
84 28.32
85 15.31
86 1.23
87 4.52
89 2.77
95 1.94
96 6.8
97 32.59
98 20.53
99 3.35
101 3.15
103 2.05
110 2.39
111 15.03
112 23.76
113 2.27
115 6.68
116 3.4
123 1.29
125 1.22
129 6
139 1.7
140 48.8
141 39.26
142 3.28
157 1.25
158 8.79
159 99.57
160 8.86
185 2.94
214 1.2
298 1.69

$$$$

     RDKit          2D

 19 18  0  0  0  0  0  0  0  0999 V2000
  -16.2380   10.1250    0.0000 C   0  0  0  0  0  0  0  0  0  0  0  0
    5.8457    9.3750    0.0000 C   0  0  0  0  0  0  0  0  0  0  0  0
  -14.9389    9.3750    0.0000 C   0  0  0  0  0  0  0  0  0  0  0  0
    4.5466   10.1250    0.0000 C   0  0  0  0  0  0  0  0  0  0  0  0
  -13.6399   10.1250    0.0000 C   0  0  0  0  0  0  0  0  0  0  0  0
    3.2476    9.3750    0.0000 C   0  0  0  0  0  0  0  0  0  0  0  0
  -12.3409    9.3750    0.0000 C   0  0  0  0  0  0  0  0  0  0  0  0
    1.9486   10.1250    0.0000 C   0  0  0  0  0  0  0  0  0  0  0  0
  -11.0418   10.1250    0.0000 C   0  0  0  0  0  0  0  0  0  0  0  0
    0.6495    9.3750    0.0000 C   0  0  0  0  0  0  0  0  0  0  0  0
   -9.7428    9.3750    0.0000 C   0  0  0  0  0  0  0  0  0  0  0  0
   -0.6495   10.1250    0.0000 C   0  0  0  0  0  0  0  0  0  0  0  0
   -8.4437   10.1250    0.0000 C   0  0  0  0  0  0  0  0  0  0  0  0
   -1.9486    9.3750    0.0000 C   0  0  0  0  0  0  0  0  0  0  0  0
   -7.1447    9.3750    0.0000 C   0  0  0  0  0  0  0  0  0  0  0  0
   -3.2476   10.1250    0.0000 C   0  0  0  0  0  0  0  0  0  0  0  0
   -5.8457   10.1250    0.0000 C   0  0  0  0  0  0  0  0  0  0  0  0
   -5.8457   11.6250    0.0000 O   0  0  0  0  0  0  0  0  0  0  0  0
   -4.5466    9.3750    0.0000 O   0  0  0  0  0  0  0  0  0  0  0  0
  3  1  1  0
  4  2  1  0
  5  3  1  0
  6  4  1  0
  7  5  1  0
  8  6  1  0
  9  7  1  0
 10  8  1  0
 11  9  1  0
 12 10  1  0
 13 11  1  0
 14 12  1  0
 15 13  1  0
 16 14  1  0
 17 15  1  0
 18 17  2  0
 19 16  1  0
 19 17  1  0
M  END
>  <NAME>  (3408) 
OCTYL NONANOATE

>  <SYNONYMS>  (3408) 


>  <SPECTRUM TYPE>  (3408) 
MS1

>  <INSTRUMENT TYPE>  (3408) 
EI-B

>  <INSTRUMENT>  (3408) 
HITACHI M-80B

>  <ION MODE>  (3408) 
P

>  <INCHIKEY>  (3408) 
XMCQOINBECWLBL-UHFFFAOYSA-N

>  <FORMULA>  (3408) 
C17H34O2

>  <EXACT MASS>  (3408) 
270.255880328

>  <MW>  (3408) 
270

>  <ID>  (3408) 
JP007190

>  <CONTRIBUTOR>  (3408) 
University of Tokyo Team, {Faculty of Engineering, University of Tokyo

>  <COMMENT>  (3408) 
SMILES=CCCCCCCCC(=O)OCCCCCCCC
InChI=InChI=1S/C17H34O2/c1-3-5-7-9-11-13-15-17(18)19-16-14-12-10-8-6-4-2/h3-16H2,1-2H3
computed SMILES=O=C(OCCCCCCCC)CCCCCCCC
accession=JP007190
date=2016.01.19 (Created 2008.10.21, modified 2011.05.06)
author=SODA AROMATIC CO., LTD.
license=CC BY-NC-SA
exact mass=270.25588
ionization energy=70 eV
ion type=[M]+*
computed spectral entropy=3.3595914563386358
computed normalized entropy=0.8048106797773529
SPLASH=splash10-0a4l-9200000000-373af0a79c07e96a0373
submitter=submitter = University of Tokyo Team (Faculty of Engineering, University of Tokyo)
MoNA Rating=3.75

>  <NUM PEAKS>  (3408) 
65

>  <MASS SPECTRAL PEAKS>  (3408) 
14 1.57
27 18.24
29 35.33
30 1.08
31 1.26
39 8.46
41 75.59
42 27.49
43 99.99
44 1.46
45 2.17
53 3.57
54 5.24
55 60.03
56 47.03
57 95.96
58 3.45
59 1.96
60 15.36
61 37.37
62 1.07
67 6.18
68 10.94
69 41.33
70 57.3
71 58.55
72 3.13
73 22.2
74 1.92
79 1.17
81 5.31
82 13.16
83 45.35
84 47.51
85 4.23
87 5.65
89 3.3
95 1.51
96 2.44
97 8.89
98 6.39
101 3.71
103 2.57
110 1
111 2.42
112 73.14
113 5.99
115 7.24
116 2.67
123 1.25
126 1.1
127 1.46
129 7.24
130 1.09
139 1.45
141 40.33
142 3.71
145 1.83
157 2.63
158 8.86
159 96.58
160 8.13
173 2.37
185 1.33
270 1.44

$$$$

     RDKit          2D

 13 12  0  0  0  0  0  0  0  0999 V2000
   -4.8714    4.3125    0.0000 C   0  0  0  0  0  0  0  0  0  0  0  0
    8.1190    7.3125    0.0000 C   0  0  0  0  0  0  0  0  0  0  0  0
   -3.5724    5.0625    0.0000 C   0  0  0  0  0  0  0  0  0  0  0  0
    6.8200    6.5625    0.0000 C   0  0  0  0  0  0  0  0  0  0  0  0
   -3.5724    6.5625    0.0000 C   0  0  0  0  0  0  0  0  0  0  0  0
    5.5209    7.3125    0.0000 C   0  0  0  0  0  0  0  0  0  0  0  0
   -2.2733    7.3125    0.0000 C   0  0  0  0  0  0  0  0  0  0  0  0
   -0.9743    6.5625    0.0000 C   0  0  0  0  0  0  0  0  0  0  0  0
    4.2219    6.5625    0.0000 C   0  0  0  0  0  0  0  0  0  0  0  0
    0.3248    7.3125    0.0000 C   0  0  0  0  0  0  0  0  0  0  0  0
    2.9228    7.3125    0.0000 C   0  0  0  0  0  0  0  0  0  0  0  0
    2.9228    8.8125    0.0000 O   0  0  0  0  0  0  0  0  0  0  0  0
    1.6238    6.5625    0.0000 O   0  0  0  0  0  0  0  0  0  0  0  0
  3  1  1  0
  4  2  1  0
  5  3  1  0
  6  4  1  0
  5  7  2  0
  8  7  1  0
  9  6  1  0
 10  8  1  0
 11  9  1  0
 12 11  2  0
 13 10  1  0
 13 11  1  0
M  END
>  <NAME>  (3409) 
CIS-3-HEXENYL VALERATE

>  <SYNONYMS>  (3409) 


>  <SPECTRUM TYPE>  (3409) 
MS1

>  <INSTRUMENT TYPE>  (3409) 
EI-B

>  <INSTRUMENT>  (3409) 
HITACHI M-80B

>  <ION MODE>  (3409) 
P

>  <INCHIKEY>  (3409) 
XPFTVTFOOTVHIA-ALCCZGGFSA-N

>  <FORMULA>  (3409) 
C11H20O2

>  <EXACT MASS>  (3409) 
184.14632988

>  <MW>  (3409) 
184

>  <ID>  (3409) 
JP007189

>  <CONTRIBUTOR>  (3409) 
University of Tokyo Team, {Faculty of Engineering, University of Tokyo

>  <COMMENT>  (3409) 
SMILES=CCC=CCCOC(=O)CCCC
InChI=InChI=1S/C11H20O2/c1-3-5-7-8-10-13-11(12)9-6-4-2/h5,7H,3-4,6,8-10H2,1-2H3/b7-5-
computed SMILES=O=C(OCCC=CCC)CCCC
accession=JP007189
date=2016.01.19 (Created 2008.10.21, modified 2011.05.06)
author=SODA AROMATIC CO., LTD.
license=CC BY-NC-SA
exact mass=184.14633
ionization energy=70 eV
ion type=[M]+*
computed spectral entropy=2.4085709643815543
computed normalized entropy=0.7792099269826337
SPLASH=splash10-05o9-9000000000-3e1a4f898f761efb7fa6
submitter=submitter = University of Tokyo Team (Faculty of Engineering, University of Tokyo)
MoNA Rating=3.75

>  <NUM PEAKS>  (3409) 
22

>  <MASS SPECTRAL PEAKS>  (3409) 
27 13.49
29 22.57
39 13.63
41 38.36
42 5.45
43 3.2
53 5.3
54 7.17
55 22.26
56 2.97
57 46.34
58 1.82
67 78.41
68 4.76
69 1.32
79 1.05
81 5.75
82 99.99
83 11.65
85 51.12
86 2.51
103 1.42

$$$$

     RDKit          2D

 12 11  0  0  0  0  0  0  0  0999 V2000
    2.9228    5.4375    0.0000 C   0  0  0  0  0  0  0  0  0  0  0  0
   -8.7685    6.1875    0.0000 C   0  0  0  0  0  0  0  0  0  0  0  0
   -7.4695    3.9375    0.0000 C   0  0  0  0  0  0  0  0  0  0  0  0
    1.6238    6.1875    0.0000 C   0  0  0  0  0  0  0  0  0  0  0  0
    0.3248    5.4375    0.0000 C   0  0  0  0  0  0  0  0  0  0  0  0
   -0.9743    6.1875    0.0000 C   0  0  0  0  0  0  0  0  0  0  0  0
   -6.1704    6.1875    0.0000 C   0  0  0  0  0  0  0  0  0  0  0  0
   -4.8714    5.4375    0.0000 C   0  0  0  0  0  0  0  0  0  0  0  0
   -7.4695    5.4375    0.0000 C   0  0  0  0  0  0  0  0  0  0  0  0
   -2.2733    5.4375    0.0000 C   0  0  0  0  0  0  0  0  0  0  0  0
   -2.2733    3.9375    0.0000 O   0  0  0  0  0  0  0  0  0  0  0  0
   -3.5724    6.1875    0.0000 O   0  0  0  0  0  0  0  0  0  0  0  0
  4  1  1  0
  5  4  1  0
  6  5  1  0
  8  7  1  0
  9  2  1  0
  9  3  1  0
  9  7  1  0
 10  6  1  0
 11 10  2  0
 12  8  1  0
 12 10  1  0
M  END
>  <NAME>  (3410) 
ISOPENTYL VALERATE

>  <SYNONYMS>  (3410) 


>  <SPECTRUM TYPE>  (3410) 
MS1

>  <INSTRUMENT TYPE>  (3410) 
EI-B

>  <INSTRUMENT>  (3410) 
HITACHI M-80B

>  <ION MODE>  (3410) 
P

>  <INCHIKEY>  (3410) 
UBLAMKHIFZBBSS-UHFFFAOYSA-N

>  <FORMULA>  (3410) 
C10H20O2

>  <EXACT MASS>  (3410) 
172.14632988

>  <MW>  (3410) 
172

>  <ID>  (3410) 
JP007188

>  <CONTRIBUTOR>  (3410) 
University of Tokyo Team, {Faculty of Engineering, University of Tokyo

>  <COMMENT>  (3410) 
SMILES=CCCCC(=O)OCCC(C)C
InChI=InChI=1S/C10H20O2/c1-4-5-6-10(11)12-8-7-9(2)3/h9H,4-8H2,1-3H3
computed SMILES=O=C(OCCC(C)C)CCCC
accession=JP007188
date=2016.01.19 (Created 2008.10.21, modified 2011.05.06)
author=SODA AROMATIC CO., LTD.
license=CC BY-NC-SA
exact mass=172.14633
ionization energy=70 eV
ion type=[M]+*
computed spectral entropy=2.5941724291684216
computed normalized entropy=0.7704022931596247
SPLASH=splash10-05g3-9000000000-f26ec4e2b9dccb224862
submitter=submitter = University of Tokyo Team (Faculty of Engineering, University of Tokyo)
MoNA Rating=3.75

>  <NUM PEAKS>  (3410) 
29

>  <MASS SPECTRAL PEAKS>  (3410) 
27 15.51
29 23.89
31 1.05
39 10.07
41 32.42
42 11.93
43 38.62
44 1.28
45 1.76
53 1.73
55 32.65
56 5.45
57 36.52
58 1.69
60 5.27
61 1.04
69 4.69
70 99.99
71 24.57
72 1.28
73 2.93
85 65.11
86 3.47
87 1.12
102 1.43
103 14.21
115 1.86
129 2.41
130 1.05

$$$$

     RDKit          2D

 12 11  0  0  0  0  0  0  0  0999 V2000
    3.2476    5.6250    0.0000 C   0  0  0  0  0  0  0  0  0  0  0  0
   -9.7428    5.6250    0.0000 C   0  0  0  0  0  0  0  0  0  0  0  0
    1.9486    6.3750    0.0000 C   0  0  0  0  0  0  0  0  0  0  0  0
   -8.4437    6.3750    0.0000 C   0  0  0  0  0  0  0  0  0  0  0  0
    0.6495    5.6250    0.0000 C   0  0  0  0  0  0  0  0  0  0  0  0
   -7.1447    5.6250    0.0000 C   0  0  0  0  0  0  0  0  0  0  0  0
   -0.6495    6.3750    0.0000 C   0  0  0  0  0  0  0  0  0  0  0  0
   -5.8457    6.3750    0.0000 C   0  0  0  0  0  0  0  0  0  0  0  0
   -1.9486    5.6250    0.0000 C   0  0  0  0  0  0  0  0  0  0  0  0
   -4.5466    5.6250    0.0000 C   0  0  0  0  0  0  0  0  0  0  0  0
   -4.5466    4.1250    0.0000 O   0  0  0  0  0  0  0  0  0  0  0  0
   -3.2476    6.3750    0.0000 O   0  0  0  0  0  0  0  0  0  0  0  0
  3  1  1  0
  4  2  1  0
  5  3  1  0
  6  4  1  0
  7  5  1  0
  8  6  1  0
  9  7  1  0
 10  8  1  0
 11 10  2  0
 12  9  1  0
 12 10  1  0
M  END
>  <NAME>  (3411) 
PENTYL VALERATE

>  <SYNONYMS>  (3411) 


>  <SPECTRUM TYPE>  (3411) 
MS1

>  <INSTRUMENT TYPE>  (3411) 
EI-B

>  <INSTRUMENT>  (3411) 
HITACHI M-80B

>  <ION MODE>  (3411) 
P

>  <INCHIKEY>  (3411) 
FGPPDYNPZTUNIU-UHFFFAOYSA-N

>  <FORMULA>  (3411) 
C10H20O2

>  <EXACT MASS>  (3411) 
172.14632988

>  <MW>  (3411) 
172

>  <ID>  (3411) 
JP007187

>  <CONTRIBUTOR>  (3411) 
University of Tokyo Team, {Faculty of Engineering, University of Tokyo

>  <COMMENT>  (3411) 
SMILES=CCCCCOC(=O)CCCC
InChI=InChI=1S/C10H20O2/c1-3-5-7-9-12-10(11)8-6-4-2/h3-9H2,1-2H3
computed SMILES=O=C(OCCCCC)CCCC
accession=JP007187
date=2016.01.19 (Created 2008.10.21, modified 2011.05.06)
author=SODA AROMATIC CO., LTD.
license=CC BY-NC-SA
exact mass=172.14633
ionization energy=70 eV
ion type=[M]+*
computed spectral entropy=2.832535307282567
computed normalized entropy=0.7786854201951402
SPLASH=splash10-0kif-9100000000-276cac5b0e38b79730e7
submitter=submitter = University of Tokyo Team (Faculty of Engineering, University of Tokyo)
MoNA Rating=3.75

>  <NUM PEAKS>  (3411) 
38

>  <MASS SPECTRAL PEAKS>  (3411) 
26 1.78
27 30.09
29 53.23
30 1.4
31 2.06
39 16.29
41 57.3
42 34.42
43 57.35
44 1.66
45 2.49
53 2.1
54 1.3
55 36.55
56 7.17
57 62.32
58 2.99
59 1.39
60 19.75
61 10.67
69 7.58
70 91.9
71 14.31
73 14.58
74 1.2
75 3.06
83 1.16
84 1.02
85 99.99
86 5.62
87 2.32
100 1.08
101 1.08
102 5.44
103 82.79
104 3.23
115 3.24
130 2.3

$$$$

     RDKit          2D

 11 10  0  0  0  0  0  0  0  0999 V2000
    2.5981    4.5000    0.0000 C   0  0  0  0  0  0  0  0  0  0  0  0
   -7.7942    4.5000    0.0000 C   0  0  0  0  0  0  0  0  0  0  0  0
   -6.4952    6.7500    0.0000 C   0  0  0  0  0  0  0  0  0  0  0  0
    1.2990    5.2500    0.0000 C   0  0  0  0  0  0  0  0  0  0  0  0
    0.0000    4.5000    0.0000 C   0  0  0  0  0  0  0  0  0  0  0  0
   -1.2990    5.2500    0.0000 C   0  0  0  0  0  0  0  0  0  0  0  0
   -5.1962    4.5000    0.0000 C   0  0  0  0  0  0  0  0  0  0  0  0
   -6.4952    5.2500    0.0000 C   0  0  0  0  0  0  0  0  0  0  0  0
   -2.5981    4.5000    0.0000 C   0  0  0  0  0  0  0  0  0  0  0  0
   -2.5981    3.0000    0.0000 O   0  0  0  0  0  0  0  0  0  0  0  0
   -3.8971    5.2500    0.0000 O   0  0  0  0  0  0  0  0  0  0  0  0
  4  1  1  0
  5  4  1  0
  6  5  1  0
  8  2  1  0
  8  3  1  0
  8  7  1  0
  9  6  1  0
 10  9  2  0
 11  7  1  0
 11  9  1  0
M  END
>  <NAME>  (3412) 
ISOBUTYL VALERATE

>  <SYNONYMS>  (3412) 


>  <SPECTRUM TYPE>  (3412) 
MS1

>  <INSTRUMENT TYPE>  (3412) 
EI-B

>  <INSTRUMENT>  (3412) 
HITACHI M-80B

>  <ION MODE>  (3412) 
P

>  <INCHIKEY>  (3412) 
ADNADZOSMJDVIS-UHFFFAOYSA-N

>  <FORMULA>  (3412) 
C9H18O2

>  <EXACT MASS>  (3412) 
158.130679816

>  <MW>  (3412) 
158

>  <ID>  (3412) 
JP007186

>  <CONTRIBUTOR>  (3412) 
University of Tokyo Team, {Faculty of Engineering, University of Tokyo

>  <COMMENT>  (3412) 
SMILES=CCCCC(=O)OCC(C)C
InChI=InChI=1S/C9H18O2/c1-4-5-6-9(10)11-7-8(2)3/h8H,4-7H2,1-3H3
computed SMILES=O=C(OCC(C)C)CCCC
accession=JP007186
date=2016.01.19 (Created 2008.10.21, modified 2011.05.06)
author=SODA AROMATIC CO., LTD.
license=CC BY-NC-SA
exact mass=158.13068
ionization energy=70 eV
ion type=[M]+*
computed spectral entropy=2.4069123535235093
computed normalized entropy=0.7573541802657229
SPLASH=splash10-0a4r-9000000000-6390059d2cbbf6e2230e
submitter=submitter = University of Tokyo Team (Faculty of Engineering, University of Tokyo)
MoNA Rating=3.75

>  <NUM PEAKS>  (3412) 
24

>  <MASS SPECTRAL PEAKS>  (3412) 
27 14.78
29 28.3
31 1.72
39 11.28
41 38.29
42 5.64
43 8.29
53 1.07
55 7.09
56 54.14
57 73.74
58 3.13
60 12.68
61 1.51
73 8.42
85 99.99
86 7.11
87 1.35
102 2.28
103 20.97
104 1.1
115 3.13
116 2
128 1.41

$$$$

     RDKit          2D

 11 10  0  0  0  0  0  0  0  0999 V2000
   -8.4437    5.6250    0.0000 C   0  0  0  0  0  0  0  0  0  0  0  0
    3.2476    4.8750    0.0000 C   0  0  0  0  0  0  0  0  0  0  0  0
   -7.1447    4.8750    0.0000 C   0  0  0  0  0  0  0  0  0  0  0  0
    1.9486    5.6250    0.0000 C   0  0  0  0  0  0  0  0  0  0  0  0
   -5.8457    5.6250    0.0000 C   0  0  0  0  0  0  0  0  0  0  0  0
    0.6495    4.8750    0.0000 C   0  0  0  0  0  0  0  0  0  0  0  0
   -4.5466    4.8750    0.0000 C   0  0  0  0  0  0  0  0  0  0  0  0
   -0.6495    5.6250    0.0000 C   0  0  0  0  0  0  0  0  0  0  0  0
   -3.2476    5.6250    0.0000 C   0  0  0  0  0  0  0  0  0  0  0  0
   -3.2476    7.1250    0.0000 O   0  0  0  0  0  0  0  0  0  0  0  0
   -1.9486    4.8750    0.0000 O   0  0  0  0  0  0  0  0  0  0  0  0
  3  1  1  0
  4  2  1  0
  5  3  1  0
  6  4  1  0
  7  5  1  0
  8  6  1  0
  9  7  1  0
 10  9  2  0
 11  8  1  0
 11  9  1  0
M  END
>  <NAME>  (3413) 
BUTYL VALERATE

>  <SYNONYMS>  (3413) 


>  <SPECTRUM TYPE>  (3413) 
MS1

>  <INSTRUMENT TYPE>  (3413) 
EI-B

>  <INSTRUMENT>  (3413) 
HITACHI M-80B

>  <ION MODE>  (3413) 
P

>  <INCHIKEY>  (3413) 
OKJADYKTJJGKDX-UHFFFAOYSA-N

>  <FORMULA>  (3413) 
C9H18O2

>  <EXACT MASS>  (3413) 
158.130679816

>  <MW>  (3413) 
158

>  <ID>  (3413) 
JP007185

>  <CONTRIBUTOR>  (3413) 
University of Tokyo Team, {Faculty of Engineering, University of Tokyo

>  <COMMENT>  (3413) 
SMILES=CCCCOC(=O)CCCC
InChI=InChI=1S/C9H18O2/c1-3-5-7-9(10)11-8-6-4-2/h3-8H2,1-2H3
computed SMILES=O=C(OCCCC)CCCC
accession=JP007185
date=2016.01.19 (Created 2008.10.21, modified 2011.05.06)
author=SODA AROMATIC CO., LTD.
license=CC BY-NC-SA
exact mass=158.13068
ionization energy=70 eV
ion type=[M]+*
computed spectral entropy=2.6372738185098856
computed normalized entropy=0.7542594352073356
SPLASH=splash10-0a4r-9100000000-da6ad2858de2212d672c
submitter=submitter = University of Tokyo Team (Faculty of Engineering, University of Tokyo)
MoNA Rating=3.75

>  <NUM PEAKS>  (3413) 
33

>  <MASS SPECTRAL PEAKS>  (3413) 
15 1.07
26 1.81
27 25.4
29 52.19
30 1.28
31 2.01
39 14.53
41 56.15
42 6.94
43 8.86
45 2.3
53 1.59
54 1.03
55 16.12
56 81.47
57 80.93
58 3.29
59 1.02
60 24.37
61 6.61
73 16.8
74 1.22
75 4.25
83 1.03
85 99.99
86 7.44
87 2
101 2.3
102 3.81
103 70.12
104 4.22
115 2.04
116 3.57

$$$$

     RDKit          2D

 10  9  0  0  0  0  0  0  0  0999 V2000
   -7.4695    3.9375    0.0000 C   0  0  0  0  0  0  0  0  0  0  0  0
    1.6238    3.1875    0.0000 C   0  0  0  0  0  0  0  0  0  0  0  0
    0.3248    5.4375    0.0000 C   0  0  0  0  0  0  0  0  0  0  0  0
   -6.1704    3.1875    0.0000 C   0  0  0  0  0  0  0  0  0  0  0  0
   -4.8714    3.9375    0.0000 C   0  0  0  0  0  0  0  0  0  0  0  0
   -3.5724    3.1875    0.0000 C   0  0  0  0  0  0  0  0  0  0  0  0
    0.3248    3.9375    0.0000 C   0  0  0  0  0  0  0  0  0  0  0  0
   -2.2733    3.9375    0.0000 C   0  0  0  0  0  0  0  0  0  0  0  0
   -2.2733    5.4375    0.0000 O   0  0  0  0  0  0  0  0  0  0  0  0
   -0.9743    3.1875    0.0000 O   0  0  0  0  0  0  0  0  0  0  0  0
  4  1  1  0
  5  4  1  0
  6  5  1  0
  7  2  1  0
  7  3  1  0
  8  6  1  0
  9  8  2  0
 10  7  1  0
 10  8  1  0
M  END
>  <NAME>  (3414) 
ISOPROPYL VALERATE

>  <SYNONYMS>  (3414) 


>  <SPECTRUM TYPE>  (3414) 
MS1

>  <INSTRUMENT TYPE>  (3414) 
EI-B

>  <INSTRUMENT>  (3414) 
HITACHI M-80B

>  <ION MODE>  (3414) 
P

>  <INCHIKEY>  (3414) 
OCAIYHCKLADPEG-UHFFFAOYSA-N

>  <FORMULA>  (3414) 
C8H16O2

>  <EXACT MASS>  (3414) 
144.115029752

>  <MW>  (3414) 
144

>  <ID>  (3414) 
JP007184

>  <CONTRIBUTOR>  (3414) 
University of Tokyo Team, {Faculty of Engineering, University of Tokyo

>  <COMMENT>  (3414) 
SMILES=CCCCC(=O)OC(C)C
InChI=InChI=1S/C8H16O2/c1-4-5-6-8(9)10-7(2)3/h7H,4-6H2,1-3H3
computed SMILES=O=C(OC(C)C)CCCC
ionization energy=70 eV
accession=JP007184
date=2016.01.19 (Created 2008.10.21, modified 2011.05.06)
author=SODA AROMATIC CO., LTD.
license=CC BY-NC-SA
exact mass=144.11503
ion type=[M]+*
computed spectral entropy=2.733255773829474
computed normalized entropy=0.8036157467855451
SPLASH=splash10-052o-9100000000-c6c0fb7407fd03195a8d
submitter=submitter = University of Tokyo Team (Faculty of Engineering, University of Tokyo)
MoNA Rating=3.75

>  <NUM PEAKS>  (3414) 
30

>  <MASS SPECTRAL PEAKS>  (3414) 
15 3.06
26 2.53
27 28.95
29 25.15
31 1.38
39 17.43
41 48.44
42 13.86
43 99.99
44 3.57
45 5.36
53 1.12
55 8.43
56 8.22
57 54.08
58 2.5
59 24.4
60 53.41
61 4.96
73 18.32
74 1.62
75 2.9
83 1.18
85 95.42
86 5.42
87 1.67
102 30.2
103 39.67
104 1.71
129 5.17

$$$$

     RDKit          2D

 10  9  0  0  0  0  0  0  0  0999 V2000
    2.5981    4.5000    0.0000 C   0  0  0  0  0  0  0  0  0  0  0  0
   -7.7942    4.5000    0.0000 C   0  0  0  0  0  0  0  0  0  0  0  0
    1.2990    5.2500    0.0000 C   0  0  0  0  0  0  0  0  0  0  0  0
   -6.4952    5.2500    0.0000 C   0  0  0  0  0  0  0  0  0  0  0  0
    0.0000    4.5000    0.0000 C   0  0  0  0  0  0  0  0  0  0  0  0
   -1.2990    5.2500    0.0000 C   0  0  0  0  0  0  0  0  0  0  0  0
   -5.1962    4.5000    0.0000 C   0  0  0  0  0  0  0  0  0  0  0  0
   -2.5981    4.5000    0.0000 C   0  0  0  0  0  0  0  0  0  0  0  0
   -2.5981    3.0000    0.0000 O   0  0  0  0  0  0  0  0  0  0  0  0
   -3.8971    5.2500    0.0000 O   0  0  0  0  0  0  0  0  0  0  0  0
  3  1  1  0
  4  2  1  0
  5  3  1  0
  6  5  1  0
  7  4  1  0
  8  6  1  0
  9  8  2  0
 10  7  1  0
 10  8  1  0
M  END
>  <NAME>  (3415) 
PROPYL VALERATE

>  <SYNONYMS>  (3415) 


>  <SPECTRUM TYPE>  (3415) 
MS1

>  <INSTRUMENT TYPE>  (3415) 
EI-B

>  <INSTRUMENT>  (3415) 
HITACHI M-80B

>  <ION MODE>  (3415) 
P

>  <INCHIKEY>  (3415) 
ROJKPKOYARNFNB-UHFFFAOYSA-N

>  <FORMULA>  (3415) 
C8H16O2

>  <EXACT MASS>  (3415) 
144.115029752

>  <MW>  (3415) 
144

>  <ID>  (3415) 
JP007183

>  <CONTRIBUTOR>  (3415) 
University of Tokyo Team, {Faculty of Engineering, University of Tokyo

>  <COMMENT>  (3415) 
SMILES=CCCCC(=O)OCCC
InChI=InChI=1S/C8H16O2/c1-3-5-6-8(9)10-7-4-2/h3-7H2,1-2H3
computed SMILES=O=C(OCCC)CCCC
accession=JP007183
date=2016.01.19 (Created 2008.10.21, modified 2011.05.06)
author=SODA AROMATIC CO., LTD.
license=CC BY-NC-SA
exact mass=144.11503
ionization energy=70 eV
ion type=[M]+*
computed spectral entropy=2.779758206213264
computed normalized entropy=0.8094841479265296
SPLASH=splash10-0m0f-9100000000-15e702dc79f3d55c1762
submitter=submitter = University of Tokyo Team (Faculty of Engineering, University of Tokyo)
MoNA Rating=3.75

>  <NUM PEAKS>  (3415) 
31

>  <MASS SPECTRAL PEAKS>  (3415) 
15 1.57
26 2.39
27 33.87
29 32.48
30 1.34
31 4.27
39 15.88
41 45.91
42 19.57
43 40.31
44 1.09
45 2.44
53 1.14
55 8.54
56 6.92
57 54.37
58 2.14
59 7.61
60 34.52
61 29.7
73 18.91
74 1.46
75 4.36
83 1.05
85 99.99
86 5.59
87 2.8
102 11.39
103 68.34
104 3.39
115 4.58

$$$$

     RDKit          2D

 10  9  0  0  0  0  0  0  0  0999 V2000
    2.5981    4.5000    0.0000 C   0  0  0  0  0  0  0  0  0  0  0  0
   -7.7942    4.5000    0.0000 C   0  0  0  0  0  0  0  0  0  0  0  0
    1.2990    5.2500    0.0000 C   0  0  0  0  0  0  0  0  0  0  0  0
   -6.4952    5.2500    0.0000 C   0  0  0  0  0  0  0  0  0  0  0  0
    0.0000    4.5000    0.0000 C   0  0  0  0  0  0  0  0  0  0  0  0
   -1.2990    5.2500    0.0000 C   0  0  0  0  0  0  0  0  0  0  0  0
   -5.1962    4.5000    0.0000 C   0  0  0  0  0  0  0  0  0  0  0  0
   -2.5981    4.5000    0.0000 C   0  0  0  0  0  0  0  0  0  0  0  0
   -2.5981    3.0000    0.0000 O   0  0  0  0  0  0  0  0  0  0  0  0
   -3.8971    5.2500    0.0000 O   0  0  0  0  0  0  0  0  0  0  0  0
  3  1  1  0
  4  2  2  0
  5  3  1  0
  6  5  1  0
  7  4  1  0
  8  6  1  0
  9  8  2  0
 10  7  1  0
 10  8  1  0
M  END
>  <NAME>  (3416) 
ALLYL VALERATE

>  <SYNONYMS>  (3416) 


>  <SPECTRUM TYPE>  (3416) 
MS1

>  <INSTRUMENT TYPE>  (3416) 
EI-B

>  <INSTRUMENT>  (3416) 
HITACHI M-80B

>  <ION MODE>  (3416) 
P

>  <INCHIKEY>  (3416) 
PWYXVVREDGESBB-UHFFFAOYSA-N

>  <FORMULA>  (3416) 
C8H14O2

>  <EXACT MASS>  (3416) 
142.099379688

>  <MW>  (3416) 
142

>  <ID>  (3416) 
JP007182

>  <CONTRIBUTOR>  (3416) 
University of Tokyo Team, {Faculty of Engineering, University of Tokyo

>  <COMMENT>  (3416) 
SMILES=CCCCC(=O)OCC=C
InChI=InChI=1S/C8H14O2/c1-3-5-6-8(9)10-7-4-2/h4H,2-3,5-7H2,1H3
computed SMILES=O=C(OCC=C)CCCC
accession=JP007182
date=2016.01.19 (Created 2008.10.21, modified 2011.05.06)
author=SODA AROMATIC CO., LTD.
license=CC BY-NC-SA
exact mass=142.09938
ionization energy=70 eV
ion type=[M]+*
computed spectral entropy=2.4460119091066694
computed normalized entropy=0.7264024405947411
SPLASH=splash10-052u-9000000000-40c62462ebbb0d0d2527
submitter=submitter = University of Tokyo Team (Faculty of Engineering, University of Tokyo)
MoNA Rating=3.75

>  <NUM PEAKS>  (3416) 
29

>  <MASS SPECTRAL PEAKS>  (3416) 
15 1.73
26 3.36
27 22.44
29 39.56
30 1.12
31 1.75
38 1.92
39 33.39
40 2.32
41 94.22
42 7.41
43 9.13
45 1.54
53 1.28
54 4.6
55 24.16
56 9.17
57 96.57
58 7.85
59 5.04
82 1.84
83 5.37
85 99.99
86 5.81
99 1.1
100 15.3
101 1.43
103 1.34
113 3.29

$$$$

     RDKit          2D

  8  7  0  0  0  0  0  0  0  0999 V2000
    1.9486    3.3750    0.0000 C   0  0  0  0  0  0  0  0  0  0  0  0
   -5.8457    3.3750    0.0000 C   0  0  0  0  0  0  0  0  0  0  0  0
    0.6495    4.1250    0.0000 C   0  0  0  0  0  0  0  0  0  0  0  0
   -0.6495    3.3750    0.0000 C   0  0  0  0  0  0  0  0  0  0  0  0
   -1.9486    4.1250    0.0000 C   0  0  0  0  0  0  0  0  0  0  0  0
   -3.2476    3.3750    0.0000 C   0  0  0  0  0  0  0  0  0  0  0  0
   -3.2476    1.8750    0.0000 O   0  0  0  0  0  0  0  0  0  0  0  0
   -4.5466    4.1250    0.0000 O   0  0  0  0  0  0  0  0  0  0  0  0
  3  1  1  0
  4  3  1  0
  5  4  1  0
  6  5  1  0
  7  6  2  0
  8  2  1  0
  8  6  1  0
M  END
>  <NAME>  (3417) 
METHYL VALERATE

>  <SYNONYMS>  (3417) 


>  <SPECTRUM TYPE>  (3417) 
MS1

>  <INSTRUMENT TYPE>  (3417) 
EI-B

>  <INSTRUMENT>  (3417) 
HITACHI M-80B

>  <ION MODE>  (3417) 
P

>  <INCHIKEY>  (3417) 
HNBDRPTVWVGKBR-UHFFFAOYSA-N

>  <FORMULA>  (3417) 
C6H12O2

>  <EXACT MASS>  (3417) 
116.083729624

>  <MW>  (3417) 
116

>  <ID>  (3417) 
JP007181

>  <CONTRIBUTOR>  (3417) 
University of Tokyo Team, {Faculty of Engineering, University of Tokyo

>  <COMMENT>  (3417) 
SMILES=CCCCC(=O)OC
InChI=InChI=1S/C6H12O2/c1-3-4-5-6(7)8-2/h3-5H2,1-2H3
computed SMILES=O=C(OC)CCCC
accession=JP007181
date=2016.01.19 (Created 2008.10.21, modified 2011.05.06)
author=SODA AROMATIC CO., LTD.
license=CC BY-NC-SA
exact mass=116.08373
ionization energy=70 eV
ion type=[M]+*
computed spectral entropy=2.653844288792637
computed normalized entropy=0.8052110576728864
SPLASH=splash10-05ic-9000000000-ea14ad55305a1e4329ac
submitter=submitter = University of Tokyo Team (Faculty of Engineering, University of Tokyo)
MoNA Rating=3.75

>  <NUM PEAKS>  (3417) 
27

>  <MASS SPECTRAL PEAKS>  (3417) 
15 14.89
26 3.39
27 23.82
29 32.26
30 1.16
31 4.09
38 1.02
39 14.14
41 32.89
42 8.47
43 36.73
44 2.23
45 3.39
53 1.53
55 14.07
56 6.65
57 35.66
58 1.38
59 22.61
73 1.13
74 99.99
75 3.56
85 34.21
86 1.4
87 31.04
88 2.34
101 1.62

$$$$

     RDKit          2D

 17 17  0  0  0  0  0  0  0  0999 V2000
   -7.7940    4.8196    0.0000 C   0  0  0  0  0  0  0  0  0  0  0  0
   -6.4949    2.5696    0.0000 C   0  0  0  0  0  0  0  0  0  0  0  0
   -1.6337    5.9687    0.0000 C   0  0  0  0  0  0  0  0  0  0  0  0
   -3.5620    5.9687    0.0000 C   0  0  0  0  0  0  0  0  0  0  0  0
    3.8974    2.5696    0.0000 C   0  0  0  0  0  0  0  0  0  0  0  0
    3.8978    4.0704    0.0000 C   0  0  0  0  0  0  0  0  0  0  0  0
    2.5978    1.8188    0.0000 C   0  0  0  0  0  0  0  0  0  0  0  0
    2.5988    4.8204    0.0000 C   0  0  0  0  0  0  0  0  0  0  0  0
    1.2988    2.5688    0.0000 C   0  0  0  0  0  0  0  0  0  0  0  0
    0.0002    4.8196    0.0000 C   0  0  0  0  0  0  0  0  0  0  0  0
   -1.2988    4.0696    0.0000 C   0  0  0  0  0  0  0  0  0  0  0  0
   -6.4949    4.0696    0.0000 C   0  0  0  0  0  0  0  0  0  0  0  0
    1.2993    4.0696    0.0000 C   0  0  0  0  0  0  0  0  0  0  0  0
   -5.1959    4.8196    0.0000 C   0  0  0  0  0  0  0  0  0  0  0  0
   -2.5978    4.8196    0.0000 C   0  0  0  0  0  0  0  0  0  0  0  0
   -5.1959    6.3196    0.0000 O   0  0  0  0  0  0  0  0  0  0  0  0
   -3.8969    4.0696    0.0000 O   0  0  0  0  0  0  0  0  0  0  0  0
  6  5  2  0
  7  5  1  0
  8  6  1  0
  9  7  2  0
 11 10  1  0
 12  1  1  0
 12  2  1  0
 13  8  2  0
 13  9  1  0
 13 10  1  0
 14 12  1  0
 15  3  1  0
 15  4  1  0
 15 11  1  0
 16 14  2  0
 17 14  1  0
 17 15  1  0
M  END
>  <NAME>  (3418) 
ALPHA,ALPHA-DIMETHYL-GAMMA-PHENYLETHYL ISOBUTYRATE

>  <SYNONYMS>  (3418) 


>  <SPECTRUM TYPE>  (3418) 
MS1

>  <INSTRUMENT TYPE>  (3418) 
EI-B

>  <INSTRUMENT>  (3418) 
HITACHI M-80B

>  <ION MODE>  (3418) 
P

>  <INCHIKEY>  (3418) 
WCEXWNUHYPYHDN-UHFFFAOYSA-N

>  <FORMULA>  (3418) 
C15H22O2

>  <EXACT MASS>  (3418) 
234.161979944

>  <MW>  (3418) 
234

>  <ID>  (3418) 
JP007180

>  <CONTRIBUTOR>  (3418) 
University of Tokyo Team, {Faculty of Engineering, University of Tokyo

>  <COMMENT>  (3418) 
SMILES=CC(C)C(=O)OC(C)(C)CCc(c1)cccc1
InChI=InChI=1S/C15H22O2/c1-12(2)14(16)17-15(3,4)11-10-13-8-6-5-7-9-13/h5-9,12H,10-11H2,1-4H3
computed SMILES=O=C(OC(C)(C)CCC=1C=CC=CC1)C(C)C
accession=JP007180
date=2016.01.19 (Created 2008.10.21, modified 2011.05.06)
author=SODA AROMATIC CO., LTD.
license=CC BY-NC-SA
exact mass=234.16198
ionization energy=70 eV
ion type=[M]+*
computed spectral entropy=2.5890851958584915
computed normalized entropy=0.7282227087420147
SPLASH=splash10-000x-9600000000-9768ee774beb04d68f95
submitter=submitter = University of Tokyo Team (Faculty of Engineering, University of Tokyo)
MoNA Rating=3.75

>  <NUM PEAKS>  (3418) 
35

>  <MASS SPECTRAL PEAKS>  (3418) 
27 8.89
28 1.43
29 1.65
39 7.46
41 16.02
42 1.5
43 42.53
51 3.06
53 1.2
55 1.31
56 4.32
59 4.08
63 1.52
65 11.16
68 1.93
71 25.17
77 4.27
78 2.08
79 2.21
89 2.21
90 1.17
91 99.99
92 8.39
103 2.37
104 2.63
105 10.77
115 1.6
117 1.85
129 1.52
131 84.35
132 8.7
145 2
146 53.49
147 17.11
148 1.4

$$$$

     RDKit          2D

 16 16  0  0  0  0  0  0  0  0999 V2000
   -6.8197    3.1321    0.0000 C   0  0  0  0  0  0  0  0  0  0  0  0
   -5.5207    5.3821    0.0000 C   0  0  0  0  0  0  0  0  0  0  0  0
   -2.5877    1.9830    0.0000 C   0  0  0  0  0  0  0  0  0  0  0  0
   -0.6594    1.9830    0.0000 C   0  0  0  0  0  0  0  0  0  0  0  0
    3.5726    1.6321    0.0000 C   0  0  0  0  0  0  0  0  0  0  0  0
    3.5731    3.1329    0.0000 C   0  0  0  0  0  0  0  0  0  0  0  0
    2.2731    0.8813    0.0000 C   0  0  0  0  0  0  0  0  0  0  0  0
    2.2740    3.8829    0.0000 C   0  0  0  0  0  0  0  0  0  0  0  0
    0.9740    1.6313    0.0000 C   0  0  0  0  0  0  0  0  0  0  0  0
   -0.3245    3.8821    0.0000 C   0  0  0  0  0  0  0  0  0  0  0  0
   -5.5207    3.8821    0.0000 C   0  0  0  0  0  0  0  0  0  0  0  0
    0.9745    3.1321    0.0000 C   0  0  0  0  0  0  0  0  0  0  0  0
   -4.2216    3.1321    0.0000 C   0  0  0  0  0  0  0  0  0  0  0  0
   -1.6236    3.1321    0.0000 C   0  0  0  0  0  0  0  0  0  0  0  0
   -4.2216    1.6321    0.0000 O   0  0  0  0  0  0  0  0  0  0  0  0
   -2.9226    3.8821    0.0000 O   0  0  0  0  0  0  0  0  0  0  0  0
  6  5  2  0
  7  5  1  0
  8  6  1  0
  9  7  2  0
 11  1  1  0
 11  2  1  0
 12  8  2  0
 12  9  1  0
 12 10  1  0
 13 11  1  0
 14  3  1  0
 14  4  1  0
 14 10  1  0
 15 13  2  0
 16 13  1  0
 16 14  1  0
M  END
>  <NAME>  (3419) 
ALPHA,ALPHA-DIMETHYL-BETA-PHENYLETHYL ISOBUTYRATE

>  <SYNONYMS>  (3419) 


>  <SPECTRUM TYPE>  (3419) 
MS1

>  <INSTRUMENT TYPE>  (3419) 
EI-B

>  <INSTRUMENT>  (3419) 
HITACHI M-80B

>  <ION MODE>  (3419) 
P

>  <INCHIKEY>  (3419) 
KOEHGIXXSWVEPT-UHFFFAOYSA-N

>  <FORMULA>  (3419) 
C14H20O2

>  <EXACT MASS>  (3419) 
220.14632988

>  <MW>  (3419) 
220

>  <ID>  (3419) 
JP007179

>  <CONTRIBUTOR>  (3419) 
University of Tokyo Team, {Faculty of Engineering, University of Tokyo

>  <COMMENT>  (3419) 
SMILES=CC(C)C(=O)OC(C)(C)Cc(c1)cccc1
InChI=InChI=1S/C14H20O2/c1-11(2)13(15)16-14(3,4)10-12-8-6-5-7-9-12/h5-9,11H,10H2,1-4H3
computed SMILES=O=C(OC(C)(C)CC=1C=CC=CC1)C(C)C
accession=JP007179
date=2016.01.19 (Created 2008.10.21, modified 2011.05.06)
author=SODA AROMATIC CO., LTD.
license=CC BY-NC-SA
exact mass=220.14633
ionization energy=70 eV
ion type=[M]+*
computed spectral entropy=2.557615823530009
computed normalized entropy=0.7252848384832691
SPLASH=splash10-006x-9200000000-faf3b543432255b60b39
submitter=submitter = University of Tokyo Team (Faculty of Engineering, University of Tokyo)
MoNA Rating=3.75

>  <NUM PEAKS>  (3419) 
34

>  <MASS SPECTRAL PEAKS>  (3419) 
27 8.07
29 2.74
31 1.36
39 8.11
40 1.02
41 11.56
42 2.02
43 75.19
44 2.2
51 2.67
53 1.14
55 6.73
59 14.89
63 1.66
65 8.81
71 99.99
72 3.39
77 2.34
78 1.9
89 1.52
91 49.53
92 5.58
103 1.12
105 3.19
115 3.51
116 1.22
117 11.62
118 1.58
129 6.09
131 1.56
132 44.24
133 21.49
134 1.8
162 1.88

$$$$

     RDKit          2D

 15 15  0  0  0  0  0  0  0  0999 V2000
   -7.7940    4.8196    0.0000 C   0  0  0  0  0  0  0  0  0  0  0  0
   -6.4949    2.5696    0.0000 C   0  0  0  0  0  0  0  0  0  0  0  0
    3.8974    2.5696    0.0000 C   0  0  0  0  0  0  0  0  0  0  0  0
    3.8978    4.0704    0.0000 C   0  0  0  0  0  0  0  0  0  0  0  0
    2.5978    1.8188    0.0000 C   0  0  0  0  0  0  0  0  0  0  0  0
   -1.2988    4.0696    0.0000 C   0  0  0  0  0  0  0  0  0  0  0  0
    2.5988    4.8204    0.0000 C   0  0  0  0  0  0  0  0  0  0  0  0
    1.2988    2.5688    0.0000 C   0  0  0  0  0  0  0  0  0  0  0  0
    0.0002    4.8196    0.0000 C   0  0  0  0  0  0  0  0  0  0  0  0
   -2.5978    4.8196    0.0000 C   0  0  0  0  0  0  0  0  0  0  0  0
   -6.4949    4.0696    0.0000 C   0  0  0  0  0  0  0  0  0  0  0  0
    1.2993    4.0696    0.0000 C   0  0  0  0  0  0  0  0  0  0  0  0
   -5.1959    4.8196    0.0000 C   0  0  0  0  0  0  0  0  0  0  0  0
   -5.1959    6.3196    0.0000 O   0  0  0  0  0  0  0  0  0  0  0  0
   -3.8969    4.0696    0.0000 O   0  0  0  0  0  0  0  0  0  0  0  0
  4  3  2  0
  5  3  1  0
  7  4  1  0
  8  5  2  0
  9  6  1  0
 10  6  1  0
 11  1  1  0
 11  2  1  0
 12  7  2  0
 12  8  1  0
 12  9  1  0
 13 11  1  0
 14 13  2  0
 15 10  1  0
 15 13  1  0
M  END
>  <NAME>  (3420) 
3-PHENYLPROPYL ISOBUTYRATE

>  <SYNONYMS>  (3420) 


>  <SPECTRUM TYPE>  (3420) 
MS1

>  <INSTRUMENT TYPE>  (3420) 
EI-B

>  <INSTRUMENT>  (3420) 
HITACHI M-80B

>  <ION MODE>  (3420) 
P

>  <INCHIKEY>  (3420) 
VBTAKMZSMFMLGT-UHFFFAOYSA-N

>  <FORMULA>  (3420) 
C13H18O2

>  <EXACT MASS>  (3420) 
206.130679816

>  <MW>  (3420) 
206

>  <ID>  (3420) 
JP007178

>  <CONTRIBUTOR>  (3420) 
University of Tokyo Team, {Faculty of Engineering, University of Tokyo

>  <COMMENT>  (3420) 
SMILES=CC(C)C(=O)OCCCc(c1)cccc1
InChI=InChI=1S/C13H18O2/c1-11(2)13(14)15-10-6-9-12-7-4-3-5-8-12/h3-5,7-8,11H,6,9-10H2,1-2H3
computed SMILES=O=C(OCCCC=1C=CC=CC1)C(C)C
accession=JP007178
date=2016.01.19 (Created 2008.10.21, modified 2011.05.06)
author=SODA AROMATIC CO., LTD.
license=CC BY-NC-SA
exact mass=206.13068
ionization energy=70 eV
ion type=[M]+*
computed spectral entropy=2.3173702981026865
computed normalized entropy=0.7112650810248665
SPLASH=splash10-014i-6900000000-1f95902461c802bf7017
submitter=submitter = University of Tokyo Team (Faculty of Engineering, University of Tokyo)
MoNA Rating=3.75

>  <NUM PEAKS>  (3420) 
26

>  <MASS SPECTRAL PEAKS>  (3420) 
27 9.07
28 1.23
39 6.58
41 13.77
42 1.35
43 32.97
44 1.35
51 3.45
52 1.04
63 1.5
65 8.59
71 6.97
77 4.68
78 3.33
79 2.45
89 1.71
91 38.6
92 3.71
103 3.2
104 1.99
105 3.39
115 2.24
116 2.58
117 69.39
118 99.99
119 10.99

$$$$

     RDKit          2D

 15 15  0  0  0  0  0  0  0  0999 V2000
   -5.8011    3.6178    0.0000 C   0  0  0  0  0  0  0  0  0  0  0  0
   -4.5021    1.3678    0.0000 C   0  0  0  0  0  0  0  0  0  0  0  0
    0.3592    4.7669    0.0000 C   0  0  0  0  0  0  0  0  0  0  0  0
   -1.5692    4.7669    0.0000 C   0  0  0  0  0  0  0  0  0  0  0  0
    3.2921    1.3678    0.0000 C   0  0  0  0  0  0  0  0  0  0  0  0
    3.2926    2.8687    0.0000 C   0  0  0  0  0  0  0  0  0  0  0  0
    1.9926    0.6170    0.0000 C   0  0  0  0  0  0  0  0  0  0  0  0
    1.9936    3.6187    0.0000 C   0  0  0  0  0  0  0  0  0  0  0  0
    0.6936    1.3670    0.0000 C   0  0  0  0  0  0  0  0  0  0  0  0
   -4.5021    2.8678    0.0000 C   0  0  0  0  0  0  0  0  0  0  0  0
    0.6941    2.8678    0.0000 C   0  0  0  0  0  0  0  0  0  0  0  0
   -3.2031    3.6178    0.0000 C   0  0  0  0  0  0  0  0  0  0  0  0
   -0.6050    3.6178    0.0000 C   0  0  0  0  0  0  0  0  0  0  0  0
   -3.2031    5.1178    0.0000 O   0  0  0  0  0  0  0  0  0  0  0  0
   -1.9040    2.8678    0.0000 O   0  0  0  0  0  0  0  0  0  0  0  0
  6  5  2  0
  7  5  1  0
  8  6  1  0
  9  7  2  0
 10  1  1  0
 10  2  1  0
 11  8  2  0
 11  9  1  0
 12 10  1  0
 13  3  1  0
 13  4  1  0
 13 11  1  0
 14 12  2  0
 15 12  1  0
 15 13  1  0
M  END
>  <NAME>  (3421) 
ALPHA,ALPHA-DIMETHYLBENZYL ISOBUTYRATE

>  <SYNONYMS>  (3421) 


>  <SPECTRUM TYPE>  (3421) 
MS1

>  <INSTRUMENT TYPE>  (3421) 
EI-B

>  <INSTRUMENT>  (3421) 
HITACHI M-80B

>  <ION MODE>  (3421) 
P

>  <INCHIKEY>  (3421) 
LQOHUFIIIKBPQC-UHFFFAOYSA-N

>  <FORMULA>  (3421) 
C13H18O2

>  <EXACT MASS>  (3421) 
206.130679816

>  <MW>  (3421) 
206

>  <ID>  (3421) 
JP007177

>  <CONTRIBUTOR>  (3421) 
University of Tokyo Team, {Faculty of Engineering, University of Tokyo

>  <COMMENT>  (3421) 
SMILES=CC(C)C(=O)OC(C)(C)c(c1)cccc1
InChI=InChI=1S/C13H18O2/c1-10(2)12(14)15-13(3,4)11-8-6-5-7-9-11/h5-10H,1-4H3
computed SMILES=O=C(OC(C=1C=CC=CC1)(C)C)C(C)C
accession=JP007177
date=2016.01.19 (Created 2008.10.21, modified 2011.05.06)
author=SODA AROMATIC CO., LTD.
license=CC BY-NC-SA
exact mass=206.13068
ionization energy=70 eV
ion type=[M]+*
computed spectral entropy=2.4980286275623174
computed normalized entropy=0.7344556481875033
SPLASH=splash10-014l-9800000000-1f8955786d281417dab7
submitter=submitter = University of Tokyo Team (Faculty of Engineering, University of Tokyo)
MoNA Rating=3.75

>  <NUM PEAKS>  (3421) 
30

>  <MASS SPECTRAL PEAKS>  (3421) 
27 5.17
28 1.88
39 5.9
41 19.34
42 1.71
43 30.97
50 1.33
51 4.82
52 1.21
63 1.21
65 1.79
71 14.27
77 11.67
78 4.07
79 3.92
91 29.85
92 2.41
102 1.01
103 5.12
104 1.54
105 2.99
115 1.72
117 4.85
118 6.47
119 99.99
120 10.36
121 2.54
135 1.32
136 3.49
206 3.26

$$$$

     RDKit          2D

 15 15  0  0  0  0  0  0  0  0999 V2000
   -7.7940    4.8196    0.0000 C   0  0  0  0  0  0  0  0  0  0  0  0
   -6.4949    2.5696    0.0000 C   0  0  0  0  0  0  0  0  0  0  0  0
    3.8974    2.5696    0.0000 C   0  0  0  0  0  0  0  0  0  0  0  0
    3.8978    4.0704    0.0000 C   0  0  0  0  0  0  0  0  0  0  0  0
    2.5978    1.8188    0.0000 C   0  0  0  0  0  0  0  0  0  0  0  0
   -1.2988    4.0696    0.0000 C   0  0  0  0  0  0  0  0  0  0  0  0
    2.5988    4.8204    0.0000 C   0  0  0  0  0  0  0  0  0  0  0  0
    1.2988    2.5688    0.0000 C   0  0  0  0  0  0  0  0  0  0  0  0
    0.0002    4.8196    0.0000 C   0  0  0  0  0  0  0  0  0  0  0  0
   -2.5978    4.8196    0.0000 C   0  0  0  0  0  0  0  0  0  0  0  0
   -6.4949    4.0696    0.0000 C   0  0  0  0  0  0  0  0  0  0  0  0
    1.2993    4.0696    0.0000 C   0  0  0  0  0  0  0  0  0  0  0  0
   -5.1959    4.8196    0.0000 C   0  0  0  0  0  0  0  0  0  0  0  0
   -5.1959    6.3196    0.0000 O   0  0  0  0  0  0  0  0  0  0  0  0
   -3.8969    4.0696    0.0000 O   0  0  0  0  0  0  0  0  0  0  0  0
  4  3  2  0
  5  3  1  0
  7  4  1  0
  8  5  2  0
  6  9  2  0
 10  6  1  0
 11  1  1  0
 11  2  1  0
 12  7  2  0
 12  8  1  0
 12  9  1  0
 13 11  1  0
 14 13  2  0
 15 10  1  0
 15 13  1  0
M  END
>  <NAME>  (3422) 
CINNAMYL ISOBUTYRATE

>  <SYNONYMS>  (3422) 


>  <SPECTRUM TYPE>  (3422) 
MS1

>  <INSTRUMENT TYPE>  (3422) 
EI-B

>  <INSTRUMENT>  (3422) 
HITACHI M-80B

>  <ION MODE>  (3422) 
P

>  <INCHIKEY>  (3422) 
KLKQSZIWHVEARN-RMKNXTFCSA-N

>  <FORMULA>  (3422) 
C13H16O2

>  <EXACT MASS>  (3422) 
204.115029752

>  <MW>  (3422) 
204

>  <ID>  (3422) 
JP007176

>  <CONTRIBUTOR>  (3422) 
University of Tokyo Team, {Faculty of Engineering, University of Tokyo

>  <COMMENT>  (3422) 
SMILES=CC(C)C(=O)OCC=Cc(c1)cccc1
InChI=InChI=1S/C13H16O2/c1-11(2)13(14)15-10-6-9-12-7-4-3-5-8-12/h3-9,11H,10H2,1-2H3/b9-6+
computed SMILES=O=C(OCC=CC=1C=CC=CC1)C(C)C
accession=JP007176
date=2016.01.19 (Created 2008.10.21, modified 2011.05.06)
author=SODA AROMATIC CO., LTD.
license=CC BY-NC-SA
exact mass=204.11503
ionization energy=70 eV
ion type=[M]+*
computed spectral entropy=2.699259098688866
computed normalized entropy=0.7367854998538066
SPLASH=splash10-00r6-9400000000-2d4b635b4cb06ed1182c
submitter=submitter = University of Tokyo Team (Faculty of Engineering, University of Tokyo)
MoNA Rating=3.75

>  <NUM PEAKS>  (3422) 
39

>  <MASS SPECTRAL PEAKS>  (3422) 
27 12.45
28 1.38
39 11.61
40 1.08
41 12.41
42 1.5
43 99.99
44 2.64
50 1.94
51 6.98
52 1.7
55 1.85
57 1.43
63 3.64
65 3.72
70 1.7
71 84.13
72 2.85
75 1.1
76 1.06
77 9.75
78 3.96
79 2.22
89 2.59
91 14.53
92 3.77
102 2.87
103 3.75
104 1.39
105 5.95
115 40.52
116 18.46
117 51.16
118 4.21
131 1.2
133 8.4
134 2.65
204 11.46
205 1.43

$$$$

     RDKit          2D

 14 14  0  0  0  0  0  0  0  0999 V2000
   -6.8197    3.1321    0.0000 C   0  0  0  0  0  0  0  0  0  0  0  0
   -5.5207    5.3821    0.0000 C   0  0  0  0  0  0  0  0  0  0  0  0
    3.5726    1.6321    0.0000 C   0  0  0  0  0  0  0  0  0  0  0  0
    3.5731    3.1329    0.0000 C   0  0  0  0  0  0  0  0  0  0  0  0
    2.2731    0.8813    0.0000 C   0  0  0  0  0  0  0  0  0  0  0  0
    2.2740    3.8829    0.0000 C   0  0  0  0  0  0  0  0  0  0  0  0
    0.9740    1.6313    0.0000 C   0  0  0  0  0  0  0  0  0  0  0  0
   -0.3245    3.8821    0.0000 C   0  0  0  0  0  0  0  0  0  0  0  0
   -1.6236    3.1321    0.0000 C   0  0  0  0  0  0  0  0  0  0  0  0
   -5.5207    3.8821    0.0000 C   0  0  0  0  0  0  0  0  0  0  0  0
    0.9745    3.1321    0.0000 C   0  0  0  0  0  0  0  0  0  0  0  0
   -4.2216    3.1321    0.0000 C   0  0  0  0  0  0  0  0  0  0  0  0
   -4.2216    1.6321    0.0000 O   0  0  0  0  0  0  0  0  0  0  0  0
   -2.9226    3.8821    0.0000 O   0  0  0  0  0  0  0  0  0  0  0  0
  4  3  2  0
  5  3  1  0
  6  4  1  0
  7  5  2  0
  9  8  1  0
 10  1  1  0
 10  2  1  0
 11  6  2  0
 11  7  1  0
 11  8  1  0
 12 10  1  0
 13 12  2  0
 14  9  1  0
 14 12  1  0
M  END
>  <NAME>  (3423) 
PHENYLETHYL ISOBUTYRATE

>  <SYNONYMS>  (3423) 


>  <SPECTRUM TYPE>  (3423) 
MS1

>  <INSTRUMENT TYPE>  (3423) 
EI-B

>  <INSTRUMENT>  (3423) 
HITACHI M-80B

>  <ION MODE>  (3423) 
P

>  <INCHIKEY>  (3423) 
JDQVBGQWADMTAM-UHFFFAOYSA-N

>  <FORMULA>  (3423) 
C12H16O2

>  <EXACT MASS>  (3423) 
192.115029752

>  <MW>  (3423) 
192

>  <ID>  (3423) 
JP007175

>  <CONTRIBUTOR>  (3423) 
University of Tokyo Team, {Faculty of Engineering, University of Tokyo

>  <COMMENT>  (3423) 
SMILES=CC(C)C(=O)OCCc(c1)cccc1
InChI=InChI=1S/C12H16O2/c1-10(2)12(13)14-9-8-11-6-4-3-5-7-11/h3-7,10H,8-9H2,1-2H3
computed SMILES=O=C(OCCC=1C=CC=CC1)C(C)C
accession=JP007175
date=2016.01.19 (Created 2008.10.21, modified 2011.05.06)
author=SODA AROMATIC CO., LTD.
license=CC BY-NC-SA
exact mass=192.11503
ionization energy=70 eV
ion type=[M]+*
computed spectral entropy=1.987550963360875
computed normalized entropy=0.6876454414319243
SPLASH=splash10-0udi-8900000000-03330b63424030d17f57
submitter=submitter = University of Tokyo Team (Faculty of Engineering, University of Tokyo)
MoNA Rating=3.75

>  <NUM PEAKS>  (3423) 
18

>  <MASS SPECTRAL PEAKS>  (3423) 
27 8.02
39 6.27
42 1.29
43 43.07
44 1.32
50 1.02
51 4.39
63 1.23
65 4.75
71 14.9
77 6.92
78 3.65
79 2.91
91 9.86
92 1.3
103 4.67
104 99.99
105 17.5

$$$$

     RDKit          2D

 14 14  0  0  0  0  0  0  0  0999 V2000
   -5.8454    3.6946    0.0000 C   0  0  0  0  0  0  0  0  0  0  0  0
   -4.5464    1.4446    0.0000 C   0  0  0  0  0  0  0  0  0  0  0  0
   -0.6493    5.1946    0.0000 C   0  0  0  0  0  0  0  0  0  0  0  0
    3.2478    1.4446    0.0000 C   0  0  0  0  0  0  0  0  0  0  0  0
    3.2483    2.9454    0.0000 C   0  0  0  0  0  0  0  0  0  0  0  0
    1.9483    0.6938    0.0000 C   0  0  0  0  0  0  0  0  0  0  0  0
    1.9493    3.6954    0.0000 C   0  0  0  0  0  0  0  0  0  0  0  0
    0.6493    1.4438    0.0000 C   0  0  0  0  0  0  0  0  0  0  0  0
   -4.5464    2.9446    0.0000 C   0  0  0  0  0  0  0  0  0  0  0  0
   -0.6493    3.6946    0.0000 C   0  0  0  0  0  0  0  0  0  0  0  0
    0.6498    2.9446    0.0000 C   0  0  0  0  0  0  0  0  0  0  0  0
   -3.2474    3.6946    0.0000 C   0  0  0  0  0  0  0  0  0  0  0  0
   -3.2474    5.1946    0.0000 O   0  0  0  0  0  0  0  0  0  0  0  0
   -1.9483    2.9446    0.0000 O   0  0  0  0  0  0  0  0  0  0  0  0
  5  4  2  0
  6  4  1  0
  7  5  1  0
  8  6  2  0
  9  1  1  0
  9  2  1  0
 10  3  1  0
 11  7  2  0
 11  8  1  0
 11 10  1  0
 12  9  1  0
 13 12  2  0
 14 10  1  0
 14 12  1  0
M  END
>  <NAME>  (3424) 
ALPHA-PHENYLETHYL ISOBUTYRATE

>  <SYNONYMS>  (3424) 


>  <SPECTRUM TYPE>  (3424) 
MS1

>  <INSTRUMENT TYPE>  (3424) 
EI-B

>  <INSTRUMENT>  (3424) 
HITACHI M-80B

>  <ION MODE>  (3424) 
P

>  <INCHIKEY>  (3424) 
JZCCYSDOUYQZMW-UHFFFAOYSA-N

>  <FORMULA>  (3424) 
C12H16O2

>  <EXACT MASS>  (3424) 
192.115029752

>  <MW>  (3424) 
192

>  <ID>  (3424) 
JP007174

>  <CONTRIBUTOR>  (3424) 
University of Tokyo Team, {Faculty of Engineering, University of Tokyo

>  <COMMENT>  (3424) 
SMILES=CC(C)C(=O)OC(C)c(c1)cccc1
InChI=InChI=1S/C12H16O2/c1-9(2)12(13)14-10(3)11-7-5-4-6-8-11/h4-10H,1-3H3
computed SMILES=O=C(OC(C=1C=CC=CC1)C)C(C)C
accession=JP007174
date=2016.01.19 (Created 2008.10.21, modified 2011.05.06)
author=SODA AROMATIC CO., LTD.
license=CC BY-NC-SA
exact mass=192.11503
ionization energy=70 eV
ion type=[M]+*
computed spectral entropy=2.48058259645261
computed normalized entropy=0.7805351101246218
SPLASH=splash10-0a4i-5900000000-5b2900d4351c60efb106
submitter=submitter = University of Tokyo Team (Faculty of Engineering, University of Tokyo)
MoNA Rating=3.75

>  <NUM PEAKS>  (3424) 
24

>  <MASS SPECTRAL PEAKS>  (3424) 
27 11.25
28 1.37
39 6.45
41 8.05
42 1.29
43 31.47
50 1.81
51 8.51
52 1.69
63 1.38
65 1.22
71 14.73
77 19.27
78 7.9
79 10.84
103 8.72
104 30.68
105 99.99
106 8.31
107 2.05
121 2.57
122 28.23
123 1.85
192 8.9

$$$$

     RDKit          2D

 13 13  0  0  0  0  0  0  0  0999 V2000
    0.3463   -4.7011    0.0000 C   0  0  0  0  0  0  0  0  0  0  0  0
    1.6267   -2.4405    0.0000 C   0  0  0  0  0  0  0  0  0  0  0  0
   -6.1932    2.0527    0.0000 C   0  0  0  0  0  0  0  0  0  0  0  0
   -3.5988    2.0463    0.0000 C   0  0  0  0  0  0  0  0  0  0  0  0
   -4.9124   -0.1786    0.0000 C   0  0  0  0  0  0  0  0  0  0  0  0
   -2.3143    1.3214    0.0000 C   0  0  0  0  0  0  0  0  0  0  0  0
   -3.5879   -0.9727    0.0000 C   0  0  0  0  0  0  0  0  0  0  0  0
    0.3339   -3.2012    0.0000 C   0  0  0  0  0  0  0  0  0  0  0  0
   -4.8979    1.2963    0.0000 C   0  0  0  0  0  0  0  0  0  0  0  0
   -2.2888   -0.2227    0.0000 C   0  0  0  0  0  0  0  0  0  0  0  0
   -0.9713   -2.4619    0.0000 C   0  0  0  0  0  0  0  0  0  0  0  0
   -2.2641   -3.2226    0.0000 O   0  0  0  0  0  0  0  0  0  0  0  0
   -0.9837   -0.9620    0.0000 O   0  0  0  0  0  0  0  0  0  0  0  0
  6  4  2  0
  7  5  1  0
  8  1  1  0
  8  2  1  0
  9  3  1  0
  9  4  1  0
  9  5  2  0
 10  6  1  0
 10  7  2  0
 11  8  1  0
 12 11  2  0
 13 10  1  0
 13 11  1  0
M  END
>  <NAME>  (3425) 
P-CRESYL ISOBUTYRATE

>  <SYNONYMS>  (3425) 


>  <SPECTRUM TYPE>  (3425) 
MS1

>  <INSTRUMENT TYPE>  (3425) 
EI-B

>  <INSTRUMENT>  (3425) 
HITACHI M-80B

>  <ION MODE>  (3425) 
P

>  <INCHIKEY>  (3425) 
UPPSFGGDKACIKP-UHFFFAOYSA-N

>  <FORMULA>  (3425) 
C11H14O2

>  <EXACT MASS>  (3425) 
178.099379688

>  <MW>  (3425) 
178

>  <ID>  (3425) 
JP007173

>  <CONTRIBUTOR>  (3425) 
University of Tokyo Team, {Faculty of Engineering, University of Tokyo

>  <COMMENT>  (3425) 
SMILES=CC(C)C(=O)Oc(c1)ccc(C)c1
InChI=InChI=1S/C11H14O2/c1-8(2)11(12)13-10-6-4-9(3)5-7-10/h4-8H,1-3H3
computed SMILES=O=C(OC1=CC=C(C=C1)C)C(C)C
accession=JP007173
date=2016.01.19 (Created 2008.10.21, modified 2011.05.06)
author=SODA AROMATIC CO., LTD.
license=CC BY-NC-SA
exact mass=178.09938
ionization energy=70 eV
ion type=[M]+*
computed spectral entropy=2.461960112848212
computed normalized entropy=0.7388382391688092
SPLASH=splash10-0a4l-9700000000-7f3009ff6f506c7ee841
submitter=submitter = University of Tokyo Team (Faculty of Engineering, University of Tokyo)
MoNA Rating=3.75

>  <NUM PEAKS>  (3425) 
28

>  <MASS SPECTRAL PEAKS>  (3425) 
26 1.01
27 12.08
39 8.21
40 1.08
41 10.29
42 2.33
43 62.46
44 1.78
50 1.88
51 5.65
52 2.9
53 3.84
55 1.26
63 1.68
65 2.59
70 8.15
71 16.86
77 14.06
78 4.86
79 6.05
80 2.35
90 2.01
91 4.12
107 24.62
108 99.99
109 7.57
178 10.98
179 1.33

$$$$

     RDKit          2D

 13 13  0  0  0  0  0  0  0  0999 V2000
   -5.8454    3.6946    0.0000 C   0  0  0  0  0  0  0  0  0  0  0  0
   -4.5464    1.4446    0.0000 C   0  0  0  0  0  0  0  0  0  0  0  0
    3.2478    1.4446    0.0000 C   0  0  0  0  0  0  0  0  0  0  0  0
    3.2483    2.9454    0.0000 C   0  0  0  0  0  0  0  0  0  0  0  0
    1.9483    0.6938    0.0000 C   0  0  0  0  0  0  0  0  0  0  0  0
    1.9493    3.6954    0.0000 C   0  0  0  0  0  0  0  0  0  0  0  0
    0.6493    1.4438    0.0000 C   0  0  0  0  0  0  0  0  0  0  0  0
   -0.6493    3.6946    0.0000 C   0  0  0  0  0  0  0  0  0  0  0  0
   -4.5464    2.9446    0.0000 C   0  0  0  0  0  0  0  0  0  0  0  0
    0.6498    2.9446    0.0000 C   0  0  0  0  0  0  0  0  0  0  0  0
   -3.2474    3.6946    0.0000 C   0  0  0  0  0  0  0  0  0  0  0  0
   -3.2474    5.1946    0.0000 O   0  0  0  0  0  0  0  0  0  0  0  0
   -1.9483    2.9446    0.0000 O   0  0  0  0  0  0  0  0  0  0  0  0
  4  3  2  0
  5  3  1  0
  6  4  1  0
  7  5  2  0
  9  1  1  0
  9  2  1  0
 10  6  2  0
 10  7  1  0
 10  8  1  0
 11  9  1  0
 12 11  2  0
 13  8  1  0
 13 11  1  0
M  END
>  <NAME>  (3426) 
BENZYL ISOBUTYRATE

>  <SYNONYMS>  (3426) 


>  <SPECTRUM TYPE>  (3426) 
MS1

>  <INSTRUMENT TYPE>  (3426) 
EI-B

>  <INSTRUMENT>  (3426) 
HITACHI M-80B

>  <ION MODE>  (3426) 
P

>  <INCHIKEY>  (3426) 
UIKJRDSCEYGECG-UHFFFAOYSA-N

>  <FORMULA>  (3426) 
C11H14O2

>  <EXACT MASS>  (3426) 
178.099379688

>  <MW>  (3426) 
178

>  <ID>  (3426) 
JP007172

>  <CONTRIBUTOR>  (3426) 
University of Tokyo Team, {Faculty of Engineering, University of Tokyo

>  <COMMENT>  (3426) 
SMILES=CC(C)C(=O)OCc(c1)cccc1
InChI=InChI=1S/C11H14O2/c1-9(2)11(12)13-8-10-6-4-3-5-7-10/h3-7,9H,8H2,1-2H3
computed SMILES=O=C(OCC=1C=CC=CC1)C(C)C
accession=JP007172
date=2016.01.19 (Created 2008.10.21, modified 2011.05.06)
author=SODA AROMATIC CO., LTD.
license=CC BY-NC-SA
exact mass=178.09938
ionization energy=70 eV
ion type=[M]+*
computed spectral entropy=2.4018246875584164
computed normalized entropy=0.7557533055679725
SPLASH=splash10-0006-9100000000-b537162bf87c98d73dae
submitter=submitter = University of Tokyo Team (Faculty of Engineering, University of Tokyo)
MoNA Rating=3.75

>  <NUM PEAKS>  (3426) 
24

>  <MASS SPECTRAL PEAKS>  (3426) 
27 8.3
39 10.2
41 10.26
42 1.22
43 32.62
50 1.54
51 6.23
52 1.39
63 2.64
65 11.91
71 13.56
77 7.48
78 1.49
79 4.99
89 3.75
90 7.16
91 99.99
92 7.72
105 1.61
107 2.87
108 21.65
109 1.28
178 14.94
179 1.52

$$$$

     RDKit          2D

 15 15  0  0  0  0  0  0  0  0999 V2000
    2.7772    0.7502    0.0000 C   0  0  0  0  0  0  0  0  0  0  0  0
    1.4778    3.0000    0.0000 C   0  0  0  0  0  0  0  0  0  0  0  0
   -3.7189   -3.0006    0.0000 C   0  0  0  0  0  0  0  0  0  0  0  0
   -5.5316    2.1590    0.0000 C   0  0  0  0  0  0  0  0  0  0  0  0
   -6.4962    0.4891    0.0000 C   0  0  0  0  0  0  0  0  0  0  0  0
   -2.4189   -0.7506    0.0000 C   0  0  0  0  0  0  0  0  0  0  0  0
   -5.0189   -0.7506    0.0000 C   0  0  0  0  0  0  0  0  0  0  0  0
   -3.7189    1.4994    0.0000 C   0  0  0  0  0  0  0  0  0  0  0  0
    1.4781    1.5000    0.0000 C   0  0  0  0  0  0  0  0  0  0  0  0
   -3.7189   -1.5006    0.0000 C   0  0  0  0  0  0  0  0  0  0  0  0
   -2.4189    0.7494    0.0000 C   0  0  0  0  0  0  0  0  0  0  0  0
    0.1792    0.7498    0.0000 C   0  0  0  0  0  0  0  0  0  0  0  0
   -5.0189    0.7494    0.0000 C   0  0  0  0  0  0  0  0  0  0  0  0
    0.1794   -0.7502    0.0000 O   0  0  0  0  0  0  0  0  0  0  0  0
   -1.1200    1.4996    0.0000 O   0  0  0  0  0  0  0  0  0  0  0  0
  9  1  1  0
  9  2  1  0
 10  3  1  0
 10  6  1  0
 10  7  1  0
 11  6  1  0
 11  8  1  0
 12  9  1  0
 13  4  1  0
 13  5  1  0
 13  7  1  0
 13  8  1  0
 14 12  2  0
 15 11  1  0
 15 12  1  0
M  END
>  <NAME>  (3427) 
3,3,5-TRIMETHYLCYCLOHEXYL ISOBUTYRATE

>  <SYNONYMS>  (3427) 


>  <SPECTRUM TYPE>  (3427) 
MS1

>  <INSTRUMENT TYPE>  (3427) 
EI-B

>  <INSTRUMENT>  (3427) 
HITACHI M-80B

>  <ION MODE>  (3427) 
P

>  <INCHIKEY>  (3427) 
RXJFMOVDBZCVES-UHFFFAOYSA-N

>  <FORMULA>  (3427) 
C13H24O2

>  <EXACT MASS>  (3427) 
212.177630008

>  <MW>  (3427) 
212

>  <ID>  (3427) 
JP007171

>  <CONTRIBUTOR>  (3427) 
University of Tokyo Team, {Faculty of Engineering, University of Tokyo

>  <COMMENT>  (3427) 
SMILES=CC(C)C(=O)OC(C1)CC(C)(C)CC(C)1
InChI=InChI=1S/C13H24O2/c1-9(2)12(14)15-11-6-10(3)7-13(4,5)8-11/h9-11H,6-8H2,1-5H3
computed SMILES=O=C(OC1CC(C)CC(C)(C)C1)C(C)C
accession=JP007171
date=2016.01.19 (Created 2008.10.21, modified 2011.05.06)
author=SODA AROMATIC CO., LTD.
license=CC BY-NC-SA
exact mass=212.17763
ionization energy=70 eV
ion type=[M]+*
computed spectral entropy=2.975574933269436
computed normalized entropy=0.8122082335950234
SPLASH=splash10-05tf-9300000000-348e538c4a34d627b48e
submitter=submitter = University of Tokyo Team (Faculty of Engineering, University of Tokyo)
MoNA Rating=3.75

>  <NUM PEAKS>  (3427) 
39

>  <MASS SPECTRAL PEAKS>  (3427) 
27 18.69
28 2.44
29 11.67
39 12.05
40 2.28
41 57.95
42 6.67
43 80.93
44 2.4
53 5.58
54 1.07
55 29.66
56 7.54
57 16.15
65 1.02
67 13.36
68 31.3
69 99.99
70 6.22
71 28.62
77 1.46
79 1.88
80 1.35
81 14.63
82 28.08
83 34.7
84 2.24
85 1.03
89 5.47
91 1.06
93 1.25
95 17.96
96 3.76
109 84.2
110 7.69
123 1.42
124 58.83
125 29.39
126 2.29

$$$$

     RDKit          2D

 12 11  0  0  0  0  0  0  0  0999 V2000
    2.9228    5.4375    0.0000 C   0  0  0  0  0  0  0  0  0  0  0  0
   -8.7685    6.1875    0.0000 C   0  0  0  0  0  0  0  0  0  0  0  0
   -7.4695    3.9375    0.0000 C   0  0  0  0  0  0  0  0  0  0  0  0
    1.6238    6.1875    0.0000 C   0  0  0  0  0  0  0  0  0  0  0  0
    0.3248    5.4375    0.0000 C   0  0  0  0  0  0  0  0  0  0  0  0
   -0.9743    6.1875    0.0000 C   0  0  0  0  0  0  0  0  0  0  0  0
   -2.2733    5.4375    0.0000 C   0  0  0  0  0  0  0  0  0  0  0  0
   -3.5724    6.1875    0.0000 C   0  0  0  0  0  0  0  0  0  0  0  0
   -7.4695    5.4375    0.0000 C   0  0  0  0  0  0  0  0  0  0  0  0
   -6.1704    6.1875    0.0000 C   0  0  0  0  0  0  0  0  0  0  0  0
   -6.1704    7.6875    0.0000 O   0  0  0  0  0  0  0  0  0  0  0  0
   -4.8714    5.4375    0.0000 O   0  0  0  0  0  0  0  0  0  0  0  0
  4  1  1  0
  5  4  1  0
  6  5  1  0
  7  6  1  0
  8  7  1  0
  9  2  1  0
  9  3  1  0
 10  9  1  0
 11 10  2  0
 12  8  1  0
 12 10  1  0
M  END
>  <NAME>  (3428) 
HEXYL ISOBUTYRATE

>  <SYNONYMS>  (3428) 


>  <SPECTRUM TYPE>  (3428) 
MS1

>  <INSTRUMENT TYPE>  (3428) 
EI-B

>  <INSTRUMENT>  (3428) 
HITACHI M-80B

>  <ION MODE>  (3428) 
P

>  <INCHIKEY>  (3428) 
CYHBDKTZDLSRMY-UHFFFAOYSA-N

>  <FORMULA>  (3428) 
C10H20O2

>  <EXACT MASS>  (3428) 
172.14632988

>  <MW>  (3428) 
172

>  <ID>  (3428) 
JP007170

>  <CONTRIBUTOR>  (3428) 
University of Tokyo Team, {Faculty of Engineering, University of Tokyo

>  <COMMENT>  (3428) 
SMILES=CCCCCCOC(=O)C(C)C
InChI=InChI=1S/C10H20O2/c1-4-5-6-7-8-12-10(11)9(2)3/h9H,4-8H2,1-3H3
computed SMILES=O=C(OCCCCCC)C(C)C
accession=JP007170
date=2016.01.19 (Created 2008.10.21, modified 2011.05.06)
author=SODA AROMATIC CO., LTD.
license=CC BY-NC-SA
exact mass=172.14633
ionization energy=70 eV
ion type=[M]+*
computed spectral entropy=2.547429029422592
computed normalized entropy=0.7644876002189467
SPLASH=splash10-0006-9000000000-e382ce27aa50afae3581
submitter=submitter = University of Tokyo Team (Faculty of Engineering, University of Tokyo)
MoNA Rating=3.75

>  <NUM PEAKS>  (3428) 
28

>  <MASS SPECTRAL PEAKS>  (3428) 
27 17.15
28 4.65
29 12.29
39 8.89
40 1.83
41 29.89
42 16.44
43 99.99
44 3.54
53 1.05
54 1.02
55 14.93
56 24.25
57 6.45
69 8.85
70 1.16
71 41.18
72 1.53
73 1.54
83 1.95
84 21.78
85 3.35
88 1.27
89 45.65
90 1.84
99 1.11
101 1.39
129 1.23

$$$$

     RDKit          2D

 12 11  0  0  0  0  0  0  0  0999 V2000
    2.9228    5.4375    0.0000 C   0  0  0  0  0  0  0  0  0  0  0  0
   -8.7685    6.1875    0.0000 C   0  0  0  0  0  0  0  0  0  0  0  0
   -7.4695    3.9375    0.0000 C   0  0  0  0  0  0  0  0  0  0  0  0
    1.6238    6.1875    0.0000 C   0  0  0  0  0  0  0  0  0  0  0  0
    0.3248    5.4375    0.0000 C   0  0  0  0  0  0  0  0  0  0  0  0
   -0.9743    6.1875    0.0000 C   0  0  0  0  0  0  0  0  0  0  0  0
   -2.2733    5.4375    0.0000 C   0  0  0  0  0  0  0  0  0  0  0  0
   -3.5724    6.1875    0.0000 C   0  0  0  0  0  0  0  0  0  0  0  0
   -7.4695    5.4375    0.0000 C   0  0  0  0  0  0  0  0  0  0  0  0
   -6.1704    6.1875    0.0000 C   0  0  0  0  0  0  0  0  0  0  0  0
   -6.1704    7.6875    0.0000 O   0  0  0  0  0  0  0  0  0  0  0  0
   -4.8714    5.4375    0.0000 O   0  0  0  0  0  0  0  0  0  0  0  0
  4  1  1  0
  5  4  1  0
  5  6  2  0
  7  6  1  0
  8  7  1  0
  9  2  1  0
  9  3  1  0
 10  9  1  0
 11 10  2  0
 12  8  1  0
 12 10  1  0
M  END
>  <NAME>  (3429) 
TRANS-3-HEXENYL ISOBUTYRATE

>  <SYNONYMS>  (3429) 


>  <SPECTRUM TYPE>  (3429) 
MS1

>  <INSTRUMENT TYPE>  (3429) 
EI-B

>  <INSTRUMENT>  (3429) 
HITACHI M-80B

>  <ION MODE>  (3429) 
P

>  <INCHIKEY>  (3429) 
OSMAJVWUIUORGC-AATRIKPKSA-N

>  <FORMULA>  (3429) 
C10H18O2

>  <EXACT MASS>  (3429) 
170.130679816

>  <MW>  (3429) 
170

>  <ID>  (3429) 
JP007169

>  <CONTRIBUTOR>  (3429) 
University of Tokyo Team, {Faculty of Engineering, University of Tokyo

>  <COMMENT>  (3429) 
SMILES=CCC=CCCOC(=O)C(C)C
InChI=InChI=1S/C10H18O2/c1-4-5-6-7-8-12-10(11)9(2)3/h5-6,9H,4,7-8H2,1-3H3/b6-5+
computed SMILES=O=C(OCCC=CCC)C(C)C
accession=JP007169
date=2016.01.19 (Created 2008.10.21, modified 2011.05.06)
author=SODA AROMATIC CO., LTD.
license=CC BY-NC-SA
exact mass=170.13068
ionization energy=70 eV
ion type=[M]+*
computed spectral entropy=2.4243687082764898
computed normalized entropy=0.7275569974392175
SPLASH=splash10-00l6-9000000000-f0d8231210d59e59e634
submitter=submitter = University of Tokyo Team (Faculty of Engineering, University of Tokyo)
MoNA Rating=3.75

>  <NUM PEAKS>  (3429) 
28

>  <MASS SPECTRAL PEAKS>  (3429) 
26 1.24
27 22.93
28 4.87
29 7.46
39 17.82
40 2.88
41 42.02
42 6.28
43 99.99
44 2.79
51 1.21
53 5.23
54 7.33
55 20.57
56 1.26
65 1.04
66 1.2
67 81.54
68 4.76
69 1.77
70 1.13
71 52.73
72 2.07
79 1.01
81 4.92
82 84.15
83 6.57
89 1.54

$$$$

     RDKit          2D

 16 16  0  0  1  0  0  0  0  0999 V2000
   -2.5636    1.1076    0.0000 C   0  0  0  0  0  0  0  0  0  0  0  0
   -3.8626   -1.1424    0.0000 C   0  0  0  0  0  0  0  0  0  0  0  0
    6.5302   -1.1424    0.0000 C   0  0  0  0  0  0  0  0  0  0  0  0
    5.2315    1.1078    0.0000 C   0  0  0  0  0  0  0  0  0  0  0  0
    2.6326   -3.3924    0.0000 C   0  0  0  0  0  0  0  0  0  0  0  0
    0.0340   -3.3933    0.0000 C   0  0  0  0  0  0  0  0  0  0  0  0
   -1.2650   -2.6433    0.0000 C   0  0  0  0  0  0  0  0  0  0  0  0
    0.0350   -0.3916    0.0000 C   0  0  0  0  0  0  0  0  0  0  0  0
   -2.5636   -0.3924    0.0000 C   0  0  0  0  0  0  0  0  0  0  0  0
    5.2312   -0.3922    0.0000 C   0  0  0  0  0  0  0  0  0  0  0  0
    1.3335   -2.6424    0.0000 C   0  0  0  0  0  0  0  0  0  0  0  0
   -1.2645   -1.1424    0.0000 C   0  0  0  0  0  0  0  0  0  0  0  0
    1.3340   -1.1416    0.0000 C   0  0  0  0  0  0  0  0  0  0  0  0
    3.9321   -1.1420    0.0000 C   0  0  0  0  0  0  0  0  0  0  0  0
    3.9318   -2.6420    0.0000 O   0  0  0  0  0  0  0  0  0  0  0  0
    2.6332   -0.3918    0.0000 O   0  0  0  0  0  0  0  0  0  0  0  0
  7  6  1  0
  9  1  2  0
  9  2  1  0
 10  3  1  0
 10  4  1  0
 11  5  1  0
 11  6  2  0
 12  7  1  0
 12  8  1  0
 12  9  1  1
 13  8  1  0
 13 11  1  0
 14 10  1  0
 15 14  2  0
 13 16  1  6
 16 14  1  0
M  END
>  <NAME>  (3430) 
TRANS-L-CARVYL ISOBUTYRATE

>  <SYNONYMS>  (3430) 


>  <SPECTRUM TYPE>  (3430) 
MS1

>  <INSTRUMENT TYPE>  (3430) 
EI-B

>  <INSTRUMENT>  (3430) 
HITACHI M-80B

>  <ION MODE>  (3430) 
P

>  <INCHIKEY>  (3430) 
FCZDTLWQNRALDC-OLZOCXBDSA-N

>  <FORMULA>  (3430) 
C14H22O2

>  <EXACT MASS>  (3430) 
222.161979944

>  <MW>  (3430) 
222

>  <ID>  (3430) 
JP007168

>  <CONTRIBUTOR>  (3430) 
University of Tokyo Team, {Faculty of Engineering, University of Tokyo

>  <COMMENT>  (3430) 
SMILES=CC(C)C(=O)OC(C1)C(C)=CCC(C(C)=C)1
InChI=InChI=1S/C14H22O2/c1-9(2)12-7-6-11(5)13(8-12)16-14(15)10(3)4/h6,10,12-13H,1,7-8H2,2-5H3/t12-,13+/m1/s1
computed SMILES=O=C(OC1C(=CCC(C(=C)C)C1)C)C(C)C
accession=JP007168
date=2016.01.19 (Created 2008.10.21, modified 2011.05.06)
author=SODA AROMATIC CO., LTD.
license=CC BY-NC-SA
exact mass=222.16198
ionization energy=70 eV
ion type=[M]+*
computed spectral entropy=3.3842985698773043
computed normalized entropy=0.8265788378202745
SPLASH=splash10-0006-9500000000-ae19943fbfb51e93cec5
submitter=submitter = University of Tokyo Team (Faculty of Engineering, University of Tokyo)
MoNA Rating=3.75

>  <NUM PEAKS>  (3430) 
60

>  <MASS SPECTRAL PEAKS>  (3430) 
27 14.71
29 6.04
39 16.41
40 3.14
41 34.03
42 3.67
43 99.99
44 3.19
51 3.13
52 1.62
53 10.51
54 2.36
55 17.12
56 1.31
65 5.39
66 2.08
67 6.69
68 2.97
69 3.38
70 1.19
71 72.17
72 3.59
77 16.47
78 4.81
79 16.47
80 5.34
81 6.01
82 2.98
83 2.33
84 5.63
91 27.38
92 20.08
93 38.24
94 4.83
95 3.21
96 1.99
97 1.88
103 1.46
105 17.83
106 9.17
107 21.09
108 7.35
109 34.93
110 3.21
115 1.09
117 2.58
119 57.34
120 6.9
123 1.55
133 2.83
134 24.51
135 8.6
137 1.74
151 1.16
152 50.39
153 7.31
178 1.43
179 10.67
180 1.06
222 1.72

$$$$

     RDKit          2D

 16 15  0  0  0  0  0  0  0  0999 V2000
    3.8971    6.0000    0.0000 C   0  0  0  0  0  0  0  0  0  0  0  0
    2.5981    8.2500    0.0000 C   0  0  0  0  0  0  0  0  0  0  0  0
  -10.3923    6.7500    0.0000 C   0  0  0  0  0  0  0  0  0  0  0  0
   -9.0933    4.5000    0.0000 C   0  0  0  0  0  0  0  0  0  0  0  0
   -2.5981    8.2500    0.0000 C   0  0  0  0  0  0  0  0  0  0  0  0
    0.0000    6.7500    0.0000 C   0  0  0  0  0  0  0  0  0  0  0  0
    1.2990    6.0000    0.0000 C   0  0  0  0  0  0  0  0  0  0  0  0
   -1.2990    6.0000    0.0000 C   0  0  0  0  0  0  0  0  0  0  0  0
   -3.8971    6.0000    0.0000 C   0  0  0  0  0  0  0  0  0  0  0  0
   -5.1962    6.7500    0.0000 C   0  0  0  0  0  0  0  0  0  0  0  0
    2.5981    6.7500    0.0000 C   0  0  0  0  0  0  0  0  0  0  0  0
   -9.0933    6.0000    0.0000 C   0  0  0  0  0  0  0  0  0  0  0  0
   -2.5981    6.7500    0.0000 C   0  0  0  0  0  0  0  0  0  0  0  0
   -7.7942    6.7500    0.0000 C   0  0  0  0  0  0  0  0  0  0  0  0
   -7.7942    8.2500    0.0000 O   0  0  0  0  0  0  0  0  0  0  0  0
   -6.4952    6.0000    0.0000 O   0  0  0  0  0  0  0  0  0  0  0  0
  7  6  1  0
  8  6  1  0
 10  9  1  0
 11  1  1  0
 11  2  1  0
 11  7  2  0
 12  3  1  0
 12  4  1  0
 13  5  1  0
 13  8  1  0
 13  9  1  0
 14 12  1  0
 15 14  2  0
 16 10  1  0
 16 14  1  0
M  END
>  <NAME>  (3431) 
CITRONELLYL ISOBUTYRATE

>  <SYNONYMS>  (3431) 


>  <SPECTRUM TYPE>  (3431) 
MS1

>  <INSTRUMENT TYPE>  (3431) 
EI-B

>  <INSTRUMENT>  (3431) 
HITACHI M-80B

>  <ION MODE>  (3431) 
P

>  <INCHIKEY>  (3431) 
ZGPPERKMXSGYRK-UHFFFAOYSA-N

>  <FORMULA>  (3431) 
C14H26O2

>  <EXACT MASS>  (3431) 
226.193280072

>  <MW>  (3431) 
226

>  <ID>  (3431) 
JP007167

>  <CONTRIBUTOR>  (3431) 
University of Tokyo Team, {Faculty of Engineering, University of Tokyo

>  <COMMENT>  (3431) 
SMILES=CC(C)=CCCC(C)CCOC(=O)C(C)C
InChI=InChI=1S/C14H26O2/c1-11(2)7-6-8-13(5)9-10-16-14(15)12(3)4/h7,12-13H,6,8-10H2,1-5H3
computed SMILES=O=C(OCCC(C)CCC=C(C)C)C(C)C
accession=JP007167
date=2016.01.19 (Created 2008.10.21, modified 2011.05.06)
author=SODA AROMATIC CO., LTD.
license=CC BY-NC-SA
exact mass=226.19328
ion type=[M]+*
ionization energy=70 eV
computed spectral entropy=3.1264119848347054
computed normalized entropy=0.8076077620421693
SPLASH=splash10-00rx-9100000000-a6ccc17946f97bcd2f3d
submitter=submitter = University of Tokyo Team (Faculty of Engineering, University of Tokyo)
MoNA Rating=3.75

>  <NUM PEAKS>  (3431) 
48

>  <MASS SPECTRAL PEAKS>  (3431) 
27 17.71
29 10.9
31 1.76
39 14.51
40 3.61
41 99.99
42 11.47
43 96.94
44 3.03
45 1.21
51 1.22
52 1.1
53 9.63
54 3.9
55 42.15
56 11.08
57 9.22
65 2
66 1.48
67 44.74
68 30.63
69 85.63
70 8.74
71 37.91
72 1.82
77 2.29
79 2.99
80 5.95
81 87.18
82 70.02
83 13.73
84 1.13
89 5.48
91 2.18
93 1.75
94 4.57
95 72.83
96 16.3
97 2.8
107 1.29
109 32.33
110 6.3
111 1.7
123 60.61
124 6.06
137 2.72
138 37.42
139 3.74

$$$$

     RDKit          2D

 14 13  0  0  0  0  0  0  0  0999 V2000
    2.2733   11.8125    0.0000 C   0  0  0  0  0  0  0  0  0  0  0  0
    3.5724    9.5625    0.0000 C   0  0  0  0  0  0  0  0  0  0  0  0
    0.9743    5.0625    0.0000 C   0  0  0  0  0  0  0  0  0  0  0  0
   -6.8200    5.0625    0.0000 C   0  0  0  0  0  0  0  0  0  0  0  0
    0.9743    8.0625    0.0000 C   0  0  0  0  0  0  0  0  0  0  0  0
    0.9743    9.5625    0.0000 C   0  0  0  0  0  0  0  0  0  0  0  0
   -0.3248    7.3125    0.0000 C   0  0  0  0  0  0  0  0  0  0  0  0
   -1.6238    5.0625    0.0000 C   0  0  0  0  0  0  0  0  0  0  0  0
   -2.9228    5.8125    0.0000 C   0  0  0  0  0  0  0  0  0  0  0  0
    2.2733   10.3125    0.0000 C   0  0  0  0  0  0  0  0  0  0  0  0
   -0.3248    5.8125    0.0000 C   0  0  0  0  0  0  0  0  0  0  0  0
   -5.5209    5.8125    0.0000 C   0  0  0  0  0  0  0  0  0  0  0  0
   -5.5209    7.3125    0.0000 O   0  0  0  0  0  0  0  0  0  0  0  0
   -4.2219    5.0625    0.0000 O   0  0  0  0  0  0  0  0  0  0  0  0
  6  5  1  0
  7  5  1  0
  9  8  1  0
 10  1  1  0
 10  2  1  0
 10  6  2  0
 11  3  1  0
 11  7  1  0
  8 11  2  0
 12  4  1  0
 13 12  2  0
 14  9  1  0
 14 12  1  0
M  END
>  <NAME>  (3432) 
NERYL ACETATE

>  <SYNONYMS>  (3432) 


>  <SPECTRUM TYPE>  (3432) 
MS1

>  <INSTRUMENT TYPE>  (3432) 
EI-B

>  <INSTRUMENT>  (3432) 
HITACHI M-80B

>  <ION MODE>  (3432) 
P

>  <INCHIKEY>  (3432) 
HIGQPQRQIQDZMP-FLIBITNWSA-N

>  <FORMULA>  (3432) 
C12H20O2

>  <EXACT MASS>  (3432) 
196.14632988

>  <MW>  (3432) 
196

>  <ID>  (3432) 
JP007166

>  <CONTRIBUTOR>  (3432) 
University of Tokyo Team, {Faculty of Engineering, University of Tokyo

>  <COMMENT>  (3432) 
SMILES=CC(C)=CCCC(C)=CCOC(C)=O
InChI=InChI=1S/C12H20O2/c1-10(2)6-5-7-11(3)8-9-14-12(4)13/h6,8H,5,7,9H2,1-4H3/b11-8-
computed SMILES=O=C(OCC=C(C)CCC=C(C)C)C
accession=JP007166
date=2016.01.19 (Created 2008.10.21, modified 2011.05.06)
author=SODA AROMATIC CO., LTD.
license=CC BY-NC-SA
exact mass=196.14633
ionization energy=70 eV
ion type=[M]+*
computed spectral entropy=2.940462529901164
computed normalized entropy=0.768017222139843
SPLASH=splash10-014l-9100000000-93c6abc7985ec7f0a488
submitter=submitter = University of Tokyo Team (Faculty of Engineering, University of Tokyo)
MoNA Rating=3.75

>  <NUM PEAKS>  (3432) 
46

>  <MASS SPECTRAL PEAKS>  (3432) 
18 1.13
27 5.34
28 1.24
29 4.04
39 9.03
40 2.39
41 48.66
42 3.35
43 45.97
44 1.15
51 1.58
52 1.14
53 10.58
54 1.15
55 4.75
65 2.12
66 1.42
67 12.89
68 41.76
69 99.99
70 6.09
71 1.23
77 3.08
79 5.16
80 16.9
81 8.89
82 1.18
83 1.82
84 6.25
85 4.34
91 3.46
92 6.72
93 35.69
94 5.6
95 2.46
97 1.41
105 1.46
107 5.08
108 1.25
121 15.03
122 1.44
123 1.59
127 1.01
136 14.9
137 2.5
154 2.22

$$$$

     RDKit          2D

 14 13  0  0  0  0  0  0  0  0999 V2000
    1.3335    2.5304    0.0000 C   0  0  0  0  0  0  0  0  0  0  0  0
   -7.6031    4.1690    0.0000 C   0  0  0  0  0  0  0  0  0  0  0  0
   -6.3041    1.9190    0.0000 C   0  0  0  0  0  0  0  0  0  0  0  0
    1.4902    6.4190    0.0000 C   0  0  0  0  0  0  0  0  0  0  0  0
   -2.0721    2.2699    0.0000 C   0  0  0  0  0  0  0  0  0  0  0  0
   -0.1437    2.2699    0.0000 C   0  0  0  0  0  0  0  0  0  0  0  0
   -3.7060    3.4190    0.0000 C   0  0  0  0  0  0  0  0  0  0  0  0
   -5.0050    4.1690    0.0000 C   0  0  0  0  0  0  0  0  0  0  0  0
   -2.4069    4.1690    0.0000 C   0  0  0  0  0  0  0  0  0  0  0  0
   -6.3041    3.4190    0.0000 C   0  0  0  0  0  0  0  0  0  0  0  0
    0.1911    5.6690    0.0000 C   0  0  0  0  0  0  0  0  0  0  0  0
   -1.1079    3.4190    0.0000 C   0  0  0  0  0  0  0  0  0  0  0  0
   -1.1079    6.4190    0.0000 O   0  0  0  0  0  0  0  0  0  0  0  0
    0.1911    4.1690    0.0000 O   0  0  0  0  0  0  0  0  0  0  0  0
  6  1  2  0
  8  7  1  0
  9  7  1  0
 10  2  1  0
 10  3  1  0
 10  8  2  0
 11  4  1  0
 12  5  1  0
 12  6  1  0
 12  9  1  0
 13 11  2  0
 14 11  1  0
 14 12  1  0
M  END
>  <NAME>  (3433) 
LINALYL ACETATE

>  <SYNONYMS>  (3433) 


>  <SPECTRUM TYPE>  (3433) 
MS1

>  <INSTRUMENT TYPE>  (3433) 
EI-B

>  <INSTRUMENT>  (3433) 
HITACHI M-80B

>  <ION MODE>  (3433) 
P

>  <INCHIKEY>  (3433) 
UWKAYLJWKGQEPM-UHFFFAOYSA-N

>  <FORMULA>  (3433) 
C12H20O2

>  <EXACT MASS>  (3433) 
196.14632988

>  <MW>  (3433) 
196

>  <ID>  (3433) 
JP007165

>  <CONTRIBUTOR>  (3433) 
University of Tokyo Team, {Faculty of Engineering, University of Tokyo

>  <COMMENT>  (3433) 
SMILES=CC(C)=CCCC(C)(C=C)OC(C)=O
InChI=InChI=1S/C12H20O2/c1-6-12(5,14-11(4)13)9-7-8-10(2)3/h6,8H,1,7,9H2,2-5H3
computed SMILES=O=C(OC(C=C)(C)CCC=C(C)C)C
accession=JP007165
date=2016.01.19 (Created 2008.10.21, modified 2011.05.06)
author=SODA AROMATIC CO., LTD.
license=CC BY-NC-SA
exact mass=196.14633
ionization energy=70 eV
ion type=[M]+*
computed spectral entropy=3.1277534689734012
computed normalized entropy=0.7954964846206086
SPLASH=splash10-0006-9100000000-b497b7871d82184bce3a
submitter=submitter = University of Tokyo Team (Faculty of Engineering, University of Tokyo)
MoNA Rating=3.75

>  <NUM PEAKS>  (3433) 
51

>  <MASS SPECTRAL PEAKS>  (3433) 
15 2.15
27 12.54
28 2.09
29 7.72
39 14.99
40 4.13
41 49.21
42 4.29
43 89.71
44 2.19
51 2.41
52 1.44
53 12.82
54 1.6
55 21.98
56 1.85
57 1.12
65 2.48
66 1.48
67 15.22
68 14.5
69 34.79
70 2.32
71 23.9
72 3.15
77 5.97
78 1.12
79 12.86
80 42.69
81 12.74
82 4.07
83 5.04
84 1.19
85 1.52
91 7.67
92 16.04
93 99.99
94 11.45
95 3.48
105 5.66
106 1.17
107 8.32
108 1.72
109 2.07
111 1.13
113 1.21
119 1.09
121 30.5
122 2.4
136 8.77
137 1.63

$$$$

     RDKit          2D

 14 13  0  0  1  0  0  0  0  0999 V2000
    2.9228    3.9375    0.0000 C   0  0  0  0  0  0  0  0  0  0  0  0
    1.6238    6.1875    0.0000 C   0  0  0  0  0  0  0  0  0  0  0  0
   -0.9743    1.6875    0.0000 C   0  0  0  0  0  0  0  0  0  0  0  0
   -3.5724    1.6875    0.0000 C   0  0  0  0  0  0  0  0  0  0  0  0
   -7.4695    3.9375    0.0000 C   0  0  0  0  0  0  0  0  0  0  0  0
    0.3248    3.9375    0.0000 C   0  0  0  0  0  0  0  0  0  0  0  0
   -0.9743    4.6875    0.0000 C   0  0  0  0  0  0  0  0  0  0  0  0
   -3.5724    4.6875    0.0000 C   0  0  0  0  0  0  0  0  0  0  0  0
    1.6238    4.6875    0.0000 C   0  0  0  0  0  0  0  0  0  0  0  0
   -2.2733    2.4375    0.0000 C   0  0  0  0  0  0  0  0  0  0  0  0
   -6.1704    4.6875    0.0000 C   0  0  0  0  0  0  0  0  0  0  0  0
   -2.2733    3.9375    0.0000 C   0  0  0  0  0  0  0  0  0  0  0  0
   -6.1704    6.1875    0.0000 O   0  0  0  0  0  0  0  0  0  0  0  0
   -4.8714    3.9375    0.0000 O   0  0  0  0  0  0  0  0  0  0  0  0
  7  6  1  0
  9  1  1  0
  9  2  1  0
  9  6  2  0
 10  3  2  0
 10  4  1  0
 11  5  1  0
 12  7  1  6
 12  8  1  0
 12 10  1  0
 13 11  2  0
 14  8  1  0
 14 11  1  0
M  END
>  <NAME>  (3434) 
LAVANDULYL ACETATE

>  <SYNONYMS>  (3434) 


>  <SPECTRUM TYPE>  (3434) 
MS1

>  <INSTRUMENT TYPE>  (3434) 
EI-B

>  <INSTRUMENT>  (3434) 
HITACHI M-80B

>  <ION MODE>  (3434) 
P

>  <INCHIKEY>  (3434) 
HYNGAVZPWWXQIU-LBPRGKRZSA-N

>  <FORMULA>  (3434) 
C12H20O2

>  <EXACT MASS>  (3434) 
196.14632988

>  <MW>  (3434) 
196

>  <ID>  (3434) 
JP007164

>  <CONTRIBUTOR>  (3434) 
University of Tokyo Team, {Faculty of Engineering, University of Tokyo

>  <COMMENT>  (3434) 
SMILES=CC(C)=CCC([H])(COC(C)=O)C(C)=C
InChI=InChI=1S/C12H20O2/c1-9(2)6-7-12(10(3)4)8-14-11(5)13/h6,12H,3,7-8H2,1-2,4-5H3/t12-/m0/s1
computed SMILES=O=C(OCC(C(=C)C)CC=C(C)C)C
accession=JP007164
date=2016.01.19 (Created 2008.10.21, modified 2011.05.06)
author=SODA AROMATIC CO., LTD.
license=CC BY-NC-SA
exact mass=196.14633
ionization energy=70 eV
ion type=[M]+*
computed spectral entropy=2.899631685494
computed normalized entropy=0.7709325737270191
SPLASH=splash10-00kf-9100000000-86d590db81460b1972b1
submitter=submitter = University of Tokyo Team (Faculty of Engineering, University of Tokyo)
MoNA Rating=3.75

>  <NUM PEAKS>  (3434) 
43

>  <MASS SPECTRAL PEAKS>  (3434) 
15 2.65
27 6.21
29 4.95
39 10.6
40 2.55
41 50.83
42 3.25
43 75.06
44 1.49
51 1.5
52 1.04
53 8.85
55 5.22
57 1.05
65 2.44
66 1.25
67 14.01
68 44.03
69 99.99
70 6.01
77 4.91
79 7.33
80 11.58
81 8.13
82 3.45
83 1.16
84 1.81
85 5.84
86 1.54
91 6.3
92 8.97
93 63.37
94 8.06
95 2.42
105 3.22
107 6.94
108 1.73
121 19.99
122 1.72
123 3.06
127 1.86
136 18.36
137 2.78

$$$$

     RDKit          2D

 14 13  0  0  0  0  0  0  0  0999 V2000
   -8.7685    6.1875    0.0000 C   0  0  0  0  0  0  0  0  0  0  0  0
   -7.4695    3.9375    0.0000 C   0  0  0  0  0  0  0  0  0  0  0  0
   -2.2733    3.9375    0.0000 C   0  0  0  0  0  0  0  0  0  0  0  0
    4.2219    6.1875    0.0000 C   0  0  0  0  0  0  0  0  0  0  0  0
   -4.8714    5.4375    0.0000 C   0  0  0  0  0  0  0  0  0  0  0  0
   -6.1704    6.1875    0.0000 C   0  0  0  0  0  0  0  0  0  0  0  0
   -3.5724    6.1875    0.0000 C   0  0  0  0  0  0  0  0  0  0  0  0
   -0.9743    6.1875    0.0000 C   0  0  0  0  0  0  0  0  0  0  0  0
    0.3248    5.4375    0.0000 C   0  0  0  0  0  0  0  0  0  0  0  0
   -7.4695    5.4375    0.0000 C   0  0  0  0  0  0  0  0  0  0  0  0
   -2.2733    5.4375    0.0000 C   0  0  0  0  0  0  0  0  0  0  0  0
    2.9228    5.4375    0.0000 C   0  0  0  0  0  0  0  0  0  0  0  0
    2.9228    3.9375    0.0000 O   0  0  0  0  0  0  0  0  0  0  0  0
    1.6238    6.1875    0.0000 O   0  0  0  0  0  0  0  0  0  0  0  0
  6  5  1  0
  7  5  1  0
  9  8  1  0
 10  1  1  0
 10  2  1  0
 10  6  2  0
 11  3  1  0
 11  7  1  0
  8 11  2  0
 12  4  1  0
 13 12  2  0
 14  9  1  0
 14 12  1  0
M  END
>  <NAME>  (3435) 
GERANYL ACETATE

>  <SYNONYMS>  (3435) 


>  <SPECTRUM TYPE>  (3435) 
MS1

>  <INSTRUMENT TYPE>  (3435) 
EI-B

>  <INSTRUMENT>  (3435) 
HITACHI M-80B

>  <ION MODE>  (3435) 
P

>  <INCHIKEY>  (3435) 
HIGQPQRQIQDZMP-DHZHZOJOSA-N

>  <FORMULA>  (3435) 
C12H20O2

>  <EXACT MASS>  (3435) 
196.14632988

>  <MW>  (3435) 
196

>  <ID>  (3435) 
JP007163

>  <CONTRIBUTOR>  (3435) 
University of Tokyo Team, {Faculty of Engineering, University of Tokyo

>  <COMMENT>  (3435) 
SMILES=CC(C)=CCCC(C)=CCOC(C)=O
InChI=InChI=1S/C12H20O2/c1-10(2)6-5-7-11(3)8-9-14-12(4)13/h6,8H,5,7,9H2,1-4H3/b11-8+
computed SMILES=O=C(OCC=C(C)CCC=C(C)C)C
accession=JP007163
date=2016.01.19 (Created 2008.10.21, modified 2011.05.06)
author=SODA AROMATIC CO., LTD.
license=CC BY-NC-SA
exact mass=196.14633
ionization energy=70 eV
ion type=[M]+*
computed spectral entropy=2.7562790496111482
computed normalized entropy=0.7523495755893741
SPLASH=splash10-014l-9100000000-4f64489866a4bb04a91b
submitter=submitter = University of Tokyo Team (Faculty of Engineering, University of Tokyo)
MoNA Rating=3.75

>  <NUM PEAKS>  (3435) 
39

>  <MASS SPECTRAL PEAKS>  (3435) 
15 1.43
27 5.56
29 4.08
39 9.08
40 2.26
41 49.79
42 2.47
43 53.98
44 1.41
51 1.16
53 8.68
54 1.07
55 3.64
65 1.79
67 12.25
68 38.44
69 99.99
70 5.65
77 2.12
79 2.97
80 10.96
81 5.36
84 2.33
85 6.25
86 1.15
91 2.06
92 5.07
93 20.67
94 4.44
95 1.59
107 4.33
108 1.14
121 12.81
122 1.27
123 1.88
127 1.53
136 15.76
137 2.22
154 1.34

$$$$

     RDKit          2D

 14 15  0  0  1  0  0  0  0  0999 V2000
    3.2876    3.5904    0.0000 C   0  0  0  0  0  0  0  0  0  0  0  0
    1.2027   -2.3196    0.0000 C   0  0  0  0  0  0  0  0  0  0  0  0
    2.1672   -0.6497    0.0000 C   0  0  0  0  0  0  0  0  0  0  0  0
   -0.6100    2.8400    0.0000 C   0  0  0  0  0  0  0  0  0  0  0  0
   -1.9100   -0.9100    0.0000 C   0  0  0  0  0  0  0  0  0  0  0  0
   -1.9100    0.5900    0.0000 C   0  0  0  0  0  0  0  0  0  0  0  0
   -1.3600   -0.1500    0.0000 C   0  0  0  0  0  0  0  0  0  0  0  0
    1.9887    2.8402    0.0000 C   0  0  0  0  0  0  0  0  0  0  0  0
   -0.6100   -1.6600    0.0000 C   0  0  0  0  0  0  0  0  0  0  0  0
    0.6900    0.5900    0.0000 C   0  0  0  0  0  0  0  0  0  0  0  0
    0.6900   -0.9100    0.0000 C   0  0  0  0  0  0  0  0  0  0  0  0
   -0.6100    1.3400    0.0000 C   0  0  0  0  0  0  0  0  0  0  0  0
    0.6895    3.5900    0.0000 O   0  0  0  0  0  0  0  0  0  0  0  0
    1.9889    1.3402    0.0000 O   0  0  0  0  0  0  0  0  0  0  0  0
  6  5  1  0
  8  1  1  0
  9  5  1  0
  9  7  1  0
 11  2  1  0
 11  3  1  0
 11  9  1  0
 11 10  1  0
 12  4  1  0
 12  6  1  0
 12  7  1  0
 12 10  1  0
 13  8  2  0
 14  8  1  0
 10 14  1  6
M  END
>  <NAME>  (3436) 
ALPHA-FENCHYL ACETATE

>  <SYNONYMS>  (3436) 


>  <SPECTRUM TYPE>  (3436) 
MS1

>  <INSTRUMENT TYPE>  (3436) 
EI-B

>  <INSTRUMENT>  (3436) 
HITACHI M-80B

>  <ION MODE>  (3436) 
P

>  <INCHIKEY>  (3436) 
JUWUWIGZUVEFQB-SQLBVSGCSA-N

>  <FORMULA>  (3436) 
C12H20O2

>  <EXACT MASS>  (3436) 
196.14632988

>  <MW>  (3436) 
196

>  <ID>  (3436) 
JP007162

>  <CONTRIBUTOR>  (3436) 
University of Tokyo Team, {Faculty of Engineering, University of Tokyo

>  <COMMENT>  (3436) 
SMILES=CC(=O)OC([H])(C(C)21)C(C)(C)C([H])(CC2)C1
InChI=InChI=1S/C12H20O2/c1-8(13)14-10-11(2,3)9-5-6-12(10,4)7-9/h9-10H,5-7H2,1-4H3/t9?,10-,12?/m1/s1
computed SMILES=O=C(OC1C(C)(C)C2CCC1(C)C2)C
accession=JP007162
date=2016.01.19 (Created 2008.10.21, modified 2011.05.06)
author=SODA AROMATIC CO., LTD.
license=CC BY-NC-SA
exact mass=196.14633
ionization energy=70 eV
ion type=[M]+*
computed spectral entropy=3.1993277582165596
computed normalized entropy=0.7846225331414846
SPLASH=splash10-001l-9200000000-eecec9749be8cea70b0a
submitter=submitter = University of Tokyo Team (Faculty of Engineering, University of Tokyo)
MoNA Rating=3.75

>  <NUM PEAKS>  (3436) 
59

>  <MASS SPECTRAL PEAKS>  (3436) 
15 1.99
27 5.13
29 4.59
39 6.67
41 21.3
42 1.73
43 74.3
44 1.38
45 1.6
53 6.36
54 1.17
55 9.26
56 2.04
57 3.47
59 1.39
65 1.7
67 10.06
68 1.91
69 12.82
70 1.28
71 6.12
72 8.64
77 3.65
79 7.08
80 44.2
81 99.99
82 11.61
83 5.24
84 5.05
85 1.56
86 1.5
91 3.19
92 6
93 23.71
94 3.34
95 6.31
96 1.22
97 1.88
98 1.41
99 1.15
105 1.17
107 12.89
108 2.32
109 7.61
110 1.39
111 5.61
113 1.52
114 1.82
115 3.09
121 18.03
122 1.48
123 2.77
135 3.58
136 32.54
137 4.02
139 1.92
153 2.59
154 3.74
196 1.27

$$$$

     RDKit          2D

 14 14  0  0  1  0  0  0  0  0999 V2000
   -2.2389    2.0451    0.0000 C   0  0  0  0  0  0  0  0  0  0  0  0
   -3.5379   -0.2049    0.0000 C   0  0  0  0  0  0  0  0  0  0  0  0
    2.9573   -2.4549    0.0000 C   0  0  0  0  0  0  0  0  0  0  0  0
    5.5560    0.5453    0.0000 C   0  0  0  0  0  0  0  0  0  0  0  0
    0.3587   -2.4557    0.0000 C   0  0  0  0  0  0  0  0  0  0  0  0
   -0.9403   -1.7057    0.0000 C   0  0  0  0  0  0  0  0  0  0  0  0
    0.3597    0.5459    0.0000 C   0  0  0  0  0  0  0  0  0  0  0  0
   -2.2389    0.5451    0.0000 C   0  0  0  0  0  0  0  0  0  0  0  0
    1.6583   -1.7049    0.0000 C   0  0  0  0  0  0  0  0  0  0  0  0
    4.2568   -0.2045    0.0000 C   0  0  0  0  0  0  0  0  0  0  0  0
   -0.9398   -0.2049    0.0000 C   0  0  0  0  0  0  0  0  0  0  0  0
    1.6587   -0.2041    0.0000 C   0  0  0  0  0  0  0  0  0  0  0  0
    4.2566   -1.7045    0.0000 O   0  0  0  0  0  0  0  0  0  0  0  0
    2.9579    0.5457    0.0000 O   0  0  0  0  0  0  0  0  0  0  0  0
  6  5  1  0
  8  1  2  0
  8  2  1  0
  9  3  1  6
  9  5  1  0
 10  4  1  0
 11  6  1  0
 11  7  1  0
 11  8  1  1
 12  7  1  0
 12  9  1  0
 13 10  2  0
 14 10  1  0
 12 14  1  1
M  END
>  <NAME>  (3437) 
DIHYDROCARVYL ACETATE

>  <SYNONYMS>  (3437) 


>  <SPECTRUM TYPE>  (3437) 
MS1

>  <INSTRUMENT TYPE>  (3437) 
EI-B

>  <INSTRUMENT>  (3437) 
HITACHI M-80B

>  <ION MODE>  (3437) 
P

>  <INCHIKEY>  (3437) 
TUSIZTVSUSBSQI-YUSALJHKSA-N

>  <FORMULA>  (3437) 
C12H20O2

>  <EXACT MASS>  (3437) 
196.14632988

>  <MW>  (3437) 
196

>  <ID>  (3437) 
JP007161

>  <CONTRIBUTOR>  (3437) 
University of Tokyo Team, {Faculty of Engineering, University of Tokyo

>  <COMMENT>  (3437) 
SMILES=CC(=O)OC([H])(C1)C([H])(C)CCC([H])(C(C)=C)1
InChI=InChI=1S/C12H20O2/c1-8(2)11-6-5-9(3)12(7-11)14-10(4)13/h9,11-12H,1,5-7H2,2-4H3/t9-,11-,12-/m1/s1
computed SMILES=O=C(OC1CC(C(=C)C)CCC1C)C
accession=JP007161
date=2016.01.19 (Created 2008.10.21, modified 2011.05.06)
author=SODA AROMATIC CO., LTD.
license=CC BY-NC-SA
exact mass=196.14633
ionization energy=70 eV
ion type=[M]+*
computed spectral entropy=3.2597948141387656
computed normalized entropy=0.8134573950954518
SPLASH=splash10-0006-9400000000-aaf83a734714670b7834
submitter=submitter = University of Tokyo Team (Faculty of Engineering, University of Tokyo)
MoNA Rating=3.75

>  <NUM PEAKS>  (3437) 
55

>  <MASS SPECTRAL PEAKS>  (3437) 
15 2.63
27 7.97
29 9.47
39 13.36
40 2.76
41 31.65
42 3.76
43 99.99
44 2.09
45 1.04
51 1.59
53 10.73
54 2.17
55 17.54
56 2.02
57 1.91
65 2.66
66 1.83
67 18.41
68 22.45
69 10.69
70 1.53
71 2.01
72 2.31
77 4.79
78 1.55
79 28.93
80 11.81
81 21.53
82 8.05
83 3.43
84 2.11
85 1.1
91 5.73
92 11.35
93 57.52
94 27.7
95 14.27
96 2.22
97 6.96
105 2.6
106 1.08
107 58.15
108 13.78
109 2.96
110 1.3
111 3.2
121 53.74
122 4.74
123 1.06
135 1.59
136 58.39
137 7.65
154 4.4
196 1.94

$$$$

     RDKit          2D

 14 15  0  0  1  0  0  0  0  0999 V2000
   -3.0705    5.9843    0.0000 C   0  0  0  0  0  0  0  0  0  0  0  0
    1.3259   -2.1785    0.0000 C   0  0  0  0  0  0  0  0  0  0  0  0
    2.2869   -0.5080    0.0000 C   0  0  0  0  0  0  0  0  0  0  0  0
   -1.7800    0.7300    0.0000 C   0  0  0  0  0  0  0  0  0  0  0  0
   -1.7800   -0.7700    0.0000 C   0  0  0  0  0  0  0  0  0  0  0  0
   -0.4800   -0.0200    0.0000 C   0  0  0  0  0  0  0  0  0  0  0  0
   -0.4775    2.9800    0.0000 C   0  0  0  0  0  0  0  0  0  0  0  0
   -1.7728    5.2322    0.0000 C   0  0  0  0  0  0  0  0  0  0  0  0
   -0.4800    1.4800    0.0000 C   0  0  0  0  0  0  0  0  0  0  0  0
   -0.4800   -1.5200    0.0000 C   0  0  0  0  0  0  0  0  0  0  0  0
    0.8100    0.7300    0.0000 C   0  0  0  0  0  0  0  0  0  0  0  0
    0.8100   -0.7700    0.0000 C   0  0  0  0  0  0  0  0  0  0  0  0
   -0.4725    5.9800    0.0000 O   0  0  0  0  0  0  0  0  0  0  0  0
   -1.7753    3.7322    0.0000 O   0  0  0  0  0  0  0  0  0  0  0  0
  5  4  1  0
  8  1  1  0
  9  4  2  0
  9  7  1  0
 10  5  1  1
 10  6  1  0
 11  6  1  6
 11  9  1  0
 12  2  1  0
 12  3  1  0
 12 10  1  0
 12 11  1  0
 13  8  2  0
 14  7  1  0
 14  8  1  0
M  END
>  <NAME>  (3438) 
MYRTENYL ACETATE

>  <SYNONYMS>  (3438) 


>  <SPECTRUM TYPE>  (3438) 
MS1

>  <INSTRUMENT TYPE>  (3438) 
EI-B

>  <INSTRUMENT>  (3438) 
HITACHI M-80B

>  <ION MODE>  (3438) 
P

>  <INCHIKEY>  (3438) 
BKATZVAUANSCKN-QWRGUYRKSA-N

>  <FORMULA>  (3438) 
C12H18O2

>  <EXACT MASS>  (3438) 
194.130679816

>  <MW>  (3438) 
194

>  <ID>  (3438) 
JP007158

>  <CONTRIBUTOR>  (3438) 
University of Tokyo Team, {Faculty of Engineering, University of Tokyo

>  <COMMENT>  (3438) 
SMILES=CC(=O)OCC(=C2)C(C1)C(C)(C)C(C2)1
InChI=InChI=1S/C12H18O2/c1-8(13)14-7-9-4-5-10-6-11(9)12(10,2)3/h4,10-11H,5-7H2,1-3H3/t10-,11-/m0/s1
computed SMILES=O=C(OCC1=CCC2CC1C2(C)C)C
accession=JP007158
ion type=[M]+*
date=2016.01.19 (Created 2008.10.21, modified 2011.05.06)
author=SODA AROMATIC CO., LTD.
license=CC BY-NC-SA
exact mass=194.13068
ionization energy=70 eV
computed spectral entropy=2.8716863341729977
computed normalized entropy=0.7683093016369653
SPLASH=splash10-0006-9300000000-10d5cf3a113fc8112ea8
submitter=submitter = University of Tokyo Team (Faculty of Engineering, University of Tokyo)
MoNA Rating=3.75

>  <NUM PEAKS>  (3438) 
42

>  <MASS SPECTRAL PEAKS>  (3438) 
15 1.91
27 5.3
29 3.52
39 9.09
40 1.15
41 15.58
42 1.32
43 54.24
44 1.14
51 2.29
52 1.43
53 6.16
55 4.99
65 4.79
66 1.33
67 4.5
68 1.53
69 2.74
77 10.23
78 6.35
79 14.28
80 1.85
81 2.33
85 1.12
91 99.99
92 34.91
93 13.59
95 1.2
96 1.13
103 1.64
105 9.12
106 4.78
107 2.22
108 15.96
109 2.32
117 2.11
119 38.48
120 4.02
121 1.85
134 16.84
135 2.18
152 3.56

$$$$

     RDKit          2D

 14 14  0  0  1  0  0  0  0  0999 V2000
   -2.2389    2.0451    0.0000 C   0  0  0  0  0  0  0  0  0  0  0  0
   -3.5379   -0.2049    0.0000 C   0  0  0  0  0  0  0  0  0  0  0  0
    2.9573   -2.4549    0.0000 C   0  0  0  0  0  0  0  0  0  0  0  0
    5.5560    0.5453    0.0000 C   0  0  0  0  0  0  0  0  0  0  0  0
    0.3587   -2.4557    0.0000 C   0  0  0  0  0  0  0  0  0  0  0  0
   -0.9403   -1.7057    0.0000 C   0  0  0  0  0  0  0  0  0  0  0  0
    0.3597    0.5459    0.0000 C   0  0  0  0  0  0  0  0  0  0  0  0
   -2.2389    0.5451    0.0000 C   0  0  0  0  0  0  0  0  0  0  0  0
    1.6583   -1.7049    0.0000 C   0  0  0  0  0  0  0  0  0  0  0  0
    4.2568   -0.2045    0.0000 C   0  0  0  0  0  0  0  0  0  0  0  0
   -0.9398   -0.2049    0.0000 C   0  0  0  0  0  0  0  0  0  0  0  0
    1.6587   -0.2041    0.0000 C   0  0  0  0  0  0  0  0  0  0  0  0
    4.2566   -1.7045    0.0000 O   0  0  0  0  0  0  0  0  0  0  0  0
    2.9579    0.5457    0.0000 O   0  0  0  0  0  0  0  0  0  0  0  0
  6  5  1  0
  8  1  2  0
  8  2  1  0
  9  3  1  0
  9  5  2  0
 10  4  1  0
 11  6  1  0
 11  7  1  0
 11  8  1  1
 12  7  1  0
 12  9  1  0
 13 10  2  0
 14 10  1  0
 12 14  1  6
M  END
>  <NAME>  (3439) 
TRANS-L-CARVYL ACETATE

>  <SYNONYMS>  (3439) 


>  <SPECTRUM TYPE>  (3439) 
MS1

>  <INSTRUMENT TYPE>  (3439) 
EI-B

>  <INSTRUMENT>  (3439) 
HITACHI M-80B

>  <ION MODE>  (3439) 
P

>  <INCHIKEY>  (3439) 
YTHRBOFHFYZBRJ-NEPJUHHUSA-N

>  <FORMULA>  (3439) 
C12H18O2

>  <EXACT MASS>  (3439) 
194.130679816

>  <MW>  (3439) 
194

>  <ID>  (3439) 
JP007157

>  <CONTRIBUTOR>  (3439) 
University of Tokyo Team, {Faculty of Engineering, University of Tokyo

>  <COMMENT>  (3439) 
SMILES=CC(=O)OC(C1)C(C)=CCC(C(C)=C)1
InChI=InChI=1S/C12H18O2/c1-8(2)11-6-5-9(3)12(7-11)14-10(4)13/h5,11-12H,1,6-7H2,2-4H3/t11-,12+/m1/s1
computed SMILES=O=C(OC1C(=CCC(C(=C)C)C1)C)C
accession=JP007157
date=2016.01.19 (Created 2008.10.21, modified 2011.05.06)
author=SODA AROMATIC CO., LTD.
license=CC BY-NC-SA
exact mass=194.13068
ionization energy=70 eV
ion type=[M]+*
computed spectral entropy=3.4795705461352644
computed normalized entropy=0.8217957064512327
SPLASH=splash10-000x-9600000000-35a1a4caf167f3c07bf2
submitter=submitter = University of Tokyo Team (Faculty of Engineering, University of Tokyo)
MoNA Rating=3.75

>  <NUM PEAKS>  (3439) 
69

>  <MASS SPECTRAL PEAKS>  (3439) 
15 3.69
27 11.57
29 7.69
39 23.35
40 3.69
41 36.32
42 2.77
43 99.99
44 2.3
45 1.39
50 1.04
51 5.75
52 2.85
53 16.96
54 3.24
55 23.82
56 3.38
61 1.1
63 1.98
65 7.78
66 3.57
67 10.75
68 4.8
69 5.8
71 1.6
77 23.07
78 5.95
79 23.17
80 12.24
81 9.57
82 6.17
83 8.12
84 90.5
85 4.28
89 1.02
91 48.73
92 32.54
93 36.04
94 5.97
95 5.68
96 5.7
97 3.43
103 2.87
104 1.4
105 25.49
106 13.37
107 17.25
108 16.42
109 87.85
110 7.7
111 1.45
115 2.55
117 4.91
118 1.67
119 90.9
120 8.47
121 1.19
123 3.88
124 2.65
126 2.79
133 3.95
134 39.49
135 6.86
137 6.82
150 1.93
151 11.24
152 90.5
153 11.71
194 1.56

$$$$

     RDKit          2D

 14 14  0  0  1  0  0  0  0  0999 V2000
   -2.2389    2.0451    0.0000 C   0  0  0  0  0  0  0  0  0  0  0  0
   -3.5379   -0.2049    0.0000 C   0  0  0  0  0  0  0  0  0  0  0  0
    2.9573   -2.4549    0.0000 C   0  0  0  0  0  0  0  0  0  0  0  0
    5.5560    0.5453    0.0000 C   0  0  0  0  0  0  0  0  0  0  0  0
    0.3587   -2.4557    0.0000 C   0  0  0  0  0  0  0  0  0  0  0  0
   -0.9403   -1.7057    0.0000 C   0  0  0  0  0  0  0  0  0  0  0  0
    0.3597    0.5459    0.0000 C   0  0  0  0  0  0  0  0  0  0  0  0
   -2.2389    0.5451    0.0000 C   0  0  0  0  0  0  0  0  0  0  0  0
    1.6583   -1.7049    0.0000 C   0  0  0  0  0  0  0  0  0  0  0  0
    4.2568   -0.2045    0.0000 C   0  0  0  0  0  0  0  0  0  0  0  0
   -0.9398   -0.2049    0.0000 C   0  0  0  0  0  0  0  0  0  0  0  0
    1.6587   -0.2041    0.0000 C   0  0  0  0  0  0  0  0  0  0  0  0
    4.2566   -1.7045    0.0000 O   0  0  0  0  0  0  0  0  0  0  0  0
    2.9579    0.5457    0.0000 O   0  0  0  0  0  0  0  0  0  0  0  0
  6  5  1  0
  8  1  2  0
  8  2  1  0
  9  3  1  0
  9  5  2  0
 10  4  1  0
 11  6  1  0
 11  7  1  0
 11  8  1  1
 12  7  1  0
 12  9  1  0
 13 10  2  0
 14 10  1  0
 12 14  1  1
M  END
>  <NAME>  (3440) 
CIS-L-CARVYL ACETATE

>  <SYNONYMS>  (3440) 


>  <SPECTRUM TYPE>  (3440) 
MS1

>  <INSTRUMENT TYPE>  (3440) 
EI-B

>  <INSTRUMENT>  (3440) 
HITACHI M-80B

>  <ION MODE>  (3440) 
P

>  <INCHIKEY>  (3440) 
YTHRBOFHFYZBRJ-VXGBXAGGSA-N

>  <FORMULA>  (3440) 
C12H18O2

>  <EXACT MASS>  (3440) 
194.130679816

>  <MW>  (3440) 
194

>  <ID>  (3440) 
JP007156

>  <CONTRIBUTOR>  (3440) 
University of Tokyo Team, {Faculty of Engineering, University of Tokyo

>  <COMMENT>  (3440) 
SMILES=CC(=O)OC([H])(C(C)=1)CC([H])(C(C)=C)CC1
InChI=InChI=1S/C12H18O2/c1-8(2)11-6-5-9(3)12(7-11)14-10(4)13/h5,11-12H,1,6-7H2,2-4H3/t11-,12-/m1/s1
computed SMILES=O=C(OC1C(=CCC(C(=C)C)C1)C)C
accession=JP007156
date=2016.01.19 (Created 2008.10.21, modified 2011.05.06)
author=SODA AROMATIC CO., LTD.
license=CC BY-NC-SA
exact mass=194.13068
ionization energy=70 eV
ion type=[M]+*
computed spectral entropy=3.584684421105128
computed normalized entropy=0.8381959969159029
SPLASH=splash10-000x-9500000000-9ea671d266cfa2912429
submitter=submitter = University of Tokyo Team (Faculty of Engineering, University of Tokyo)
MoNA Rating=3.75

>  <NUM PEAKS>  (3440) 
72

>  <MASS SPECTRAL PEAKS>  (3440) 
15 3.56
27 12.49
29 7.73
38 1.01
39 30.01
40 3.78
41 36.04
42 3.26
43 97.82
44 2.55
45 1.13
50 1.81
51 6.09
52 3.89
53 18.76
54 18.14
55 20.79
56 3.62
58 2.95
61 1.76
63 1.72
65 8
66 3.55
67 12.18
68 6.42
69 7.4
71 1.14
72 1.14
77 18.58
78 4.94
79 26.08
80 11.91
81 10.27
82 38.36
83 9.63
84 99.99
85 5.3
89 1.02
91 45.65
92 30.03
93 36.67
94 7.85
95 6.42
96 4.51
97 3.7
103 2.75
104 1.61
105 23.32
106 12.7
107 18.35
108 21.26
109 65.92
110 6.52
111 1.35
115 2.42
117 5.37
118 1.3
119 83.02
120 7.46
121 1.87
122 1.86
123 4.49
124 2.39
126 3.71
133 4.09
134 50.57
135 6.66
137 5.23
150 4.27
151 10.11
152 57.23
153 5.98

$$$$

     RDKit          2D

 14 14  0  0  0  0  0  0  0  0999 V2000
    3.8981    0.7504    0.0000 C   0  0  0  0  0  0  0  0  0  0  0  0
    2.5987    3.0002    0.0000 C   0  0  0  0  0  0  0  0  0  0  0  0
   -6.4962   -0.7508    0.0000 C   0  0  0  0  0  0  0  0  0  0  0  0
   -1.3000    0.7500    0.0000 C   0  0  0  0  0  0  0  0  0  0  0  0
    0.0000   -1.5000    0.0000 C   0  0  0  0  0  0  0  0  0  0  0  0
    0.0000    1.5000    0.0000 C   0  0  0  0  0  0  0  0  0  0  0  0
    1.3000   -0.7500    0.0000 C   0  0  0  0  0  0  0  0  0  0  0  0
   -2.5989   -1.5002    0.0000 C   0  0  0  0  0  0  0  0  0  0  0  0
    2.5989    1.5002    0.0000 C   0  0  0  0  0  0  0  0  0  0  0  0
   -5.1970   -1.5006    0.0000 C   0  0  0  0  0  0  0  0  0  0  0  0
   -1.3000   -0.7500    0.0000 C   0  0  0  0  0  0  0  0  0  0  0  0
    1.3000    0.7500    0.0000 C   0  0  0  0  0  0  0  0  0  0  0  0
   -5.1968   -3.0006    0.0000 O   0  0  0  0  0  0  0  0  0  0  0  0
   -3.8981   -0.7504    0.0000 O   0  0  0  0  0  0  0  0  0  0  0  0
  6  4  2  0
  7  5  1  0
  9  1  1  0
  9  2  1  0
 10  3  1  0
 11  4  1  0
 11  5  2  0
 11  8  1  0
 12  6  1  0
 12  7  2  0
 12  9  1  0
 13 10  2  0
 14  8  1  0
 14 10  1  0
M  END
>  <NAME>  (3441) 
CUMINYL ACETATE

>  <SYNONYMS>  (3441) 
P-ISOPROPYLBENZYL ACETATE

>  <SPECTRUM TYPE>  (3441) 
MS1

>  <INSTRUMENT TYPE>  (3441) 
EI-B

>  <INSTRUMENT>  (3441) 
HITACHI M-80B

>  <ION MODE>  (3441) 
P

>  <INCHIKEY>  (3441) 
QBCRVYRADYXNOW-UHFFFAOYSA-N

>  <FORMULA>  (3441) 
C12H16O2

>  <EXACT MASS>  (3441) 
192.115029752

>  <MW>  (3441) 
192

>  <ID>  (3441) 
JP007155

>  <CONTRIBUTOR>  (3441) 
University of Tokyo Team, {Faculty of Engineering, University of Tokyo

>  <COMMENT>  (3441) 
SMILES=CC(=O)OCc(c1)ccc(C(C)C)c1
InChI=InChI=1S/C12H16O2/c1-9(2)12-6-4-11(5-7-12)8-14-10(3)13/h4-7,9H,8H2,1-3H3
computed SMILES=O=C(OCC1=CC=C(C=C1)C(C)C)C
accession=JP007155
date=2016.01.19 (Created 2008.10.21, modified 2011.05.06)
author=SODA AROMATIC CO., LTD.
license=CC BY-NC-SA
exact mass=192.11503
ionization energy=70 eV
ion type=[M]+*
computed spectral entropy=3.230582109538778
computed normalized entropy=0.8025589706793488
SPLASH=splash10-052f-4900000000-b17cacf429d93acca805
submitter=submitter = University of Tokyo Team (Faculty of Engineering, University of Tokyo)
MoNA Rating=3.75

>  <NUM PEAKS>  (3441) 
56

>  <MASS SPECTRAL PEAKS>  (3441) 
15 4.42
27 5.12
29 1.52
39 7.08
41 8.59
42 1.52
43 89.03
44 1.88
50 2.13
51 5.76
52 1.62
53 2.03
57 1.02
58 1.19
63 3.52
64 1.53
65 6
71 3.9
75 1.29
76 1.49
77 14.75
78 4.98
79 16.58
80 1.29
89 4.55
90 2.37
91 34.71
92 3.27
93 3.38
102 2.25
103 6.83
104 4.55
105 20.64
106 2.04
107 99.99
108 6.11
115 18.54
116 5.01
117 71.92
118 16.36
119 6.88
128 1.02
129 1.37
131 10.37
132 19.65
133 33.27
134 4.63
135 11.74
136 1.77
149 17.03
150 40.58
151 4.05
177 50.01
178 4.92
192 56.1
193 6.44

$$$$

     RDKit          2D

  8  7  0  0  0  0  0  0  0  0999 V2000
    2.2733    2.8125    0.0000 C   0  0  0  0  0  0  0  0  0  0  0  0
   -5.5209    2.8125    0.0000 C   0  0  0  0  0  0  0  0  0  0  0  0
   -2.9228    2.8125    0.0000 C   0  0  0  0  0  0  0  0  0  0  0  0
   -1.6238    3.5625    0.0000 C   0  0  0  0  0  0  0  0  0  0  0  0
    0.9743    3.5625    0.0000 C   0  0  0  0  0  0  0  0  0  0  0  0
    0.9743    5.0625    0.0000 O   0  0  0  0  0  0  0  0  0  0  0  0
   -4.2219    3.5625    0.0000 O   0  0  0  0  0  0  0  0  0  0  0  0
   -0.3248    2.8125    0.0000 O   0  0  0  0  0  0  0  0  0  0  0  0
  4  3  1  0
  5  1  1  0
  6  5  2  0
  7  2  1  0
  7  3  1  0
  8  4  1  0
  8  5  1  0
M  END
>  <NAME>  (3442) 
2-METHOXYETHYL ACETATE

>  <SYNONYMS>  (3442) 


>  <SPECTRUM TYPE>  (3442) 
MS1

>  <INSTRUMENT TYPE>  (3442) 
EI-B

>  <INSTRUMENT>  (3442) 
HITACHI M-80B

>  <ION MODE>  (3442) 
P

>  <INCHIKEY>  (3442) 
XLLIQLLCWZCATF-UHFFFAOYSA-N

>  <FORMULA>  (3442) 
C5H10O3

>  <EXACT MASS>  (3442) 
118.06299417999999

>  <MW>  (3442) 
118

>  <ID>  (3442) 
JP007154

>  <CONTRIBUTOR>  (3442) 
University of Tokyo Team, {Faculty of Engineering, University of Tokyo

>  <COMMENT>  (3442) 
SMILES=COCCOC(C)=O
InChI=InChI=1S/C5H10O3/c1-5(6)8-4-3-7-2/h3-4H2,1-2H3
computed SMILES=O=C(OCCOC)C
author=SODA AROMATIC CO., LTD.
license=CC BY-NC-SA
exact mass=118.06299
accession=JP007154
date=2016.01.19 (Created 2008.10.21, modified 2011.05.06)
ionization energy=70 eV
ion type=[M]+*
computed spectral entropy=1.8242062948847642
computed normalized entropy=0.6311320645523336
SPLASH=splash10-052g-9000000000-469bbb2759202da7d5e6
submitter=submitter = University of Tokyo Team (Faculty of Engineering, University of Tokyo)
MoNA Rating=3.75

>  <NUM PEAKS>  (3442) 
18

>  <MASS SPECTRAL PEAKS>  (3442) 
15 7.63
18 2.58
27 2.56
28 3.68
29 11.37
30 1
31 3.1
42 3.8
43 99.99
44 2.97
45 51.11
46 1.03
58 51.04
59 3.1
61 1.44
73 3.61
75 1.02
88 1.49

$$$$

     RDKit          2D

 15 14  0  0  0  0  0  0  0  0999 V2000
    2.9228    3.9375    0.0000 C   0  0  0  0  0  0  0  0  0  0  0  0
   -7.4695    3.9375    0.0000 C   0  0  0  0  0  0  0  0  0  0  0  0
   -0.9743    0.1875    0.0000 C   0  0  0  0  0  0  0  0  0  0  0  0
   -0.9743    4.6875    0.0000 C   0  0  0  0  0  0  0  0  0  0  0  0
   -3.5724    4.6875    0.0000 C   0  0  0  0  0  0  0  0  0  0  0  0
    1.6238    4.6875    0.0000 C   0  0  0  0  0  0  0  0  0  0  0  0
   -6.1704    4.6875    0.0000 C   0  0  0  0  0  0  0  0  0  0  0  0
   -0.9743    1.6875    0.0000 C   0  0  0  0  0  0  0  0  0  0  0  0
   -2.2733    3.9375    0.0000 C   0  0  0  0  0  0  0  0  0  0  0  0
    1.6238    6.1875    0.0000 O   0  0  0  0  0  0  0  0  0  0  0  0
   -6.1704    6.1875    0.0000 O   0  0  0  0  0  0  0  0  0  0  0  0
    0.3248    2.4375    0.0000 O   0  0  0  0  0  0  0  0  0  0  0  0
    0.3248    3.9375    0.0000 O   0  0  0  0  0  0  0  0  0  0  0  0
   -4.8714    3.9375    0.0000 O   0  0  0  0  0  0  0  0  0  0  0  0
   -2.2733    2.4375    0.0000 O   0  0  0  0  0  0  0  0  0  0  0  0
  6  1  1  0
  7  2  1  0
  8  3  1  0
  9  4  1  0
  9  5  1  0
 10  6  2  0
 11  7  2  0
 12  8  2  0
 13  4  1  0
 13  6  1  0
 14  5  1  0
 14  7  1  0
 15  8  1  0
 15  9  1  0
M  END
>  <NAME>  (3443) 
TRIACETIN

>  <SYNONYMS>  (3443) 
1,2,3-PROPANETRIOL ACETATE

>  <SPECTRUM TYPE>  (3443) 
MS1

>  <INSTRUMENT TYPE>  (3443) 
EI-B

>  <INSTRUMENT>  (3443) 
HITACHI M-80B

>  <ION MODE>  (3443) 
P

>  <INCHIKEY>  (3443) 
URAYPUMNDPQOKB-UHFFFAOYSA-N

>  <FORMULA>  (3443) 
C9H14O6

>  <EXACT MASS>  (3443) 
218.07903816799998

>  <MW>  (3443) 
218

>  <ID>  (3443) 
JP007153

>  <CONTRIBUTOR>  (3443) 
University of Tokyo Team, {Faculty of Engineering, University of Tokyo

>  <COMMENT>  (3443) 
SMILES=CC(=O)OCC(COC(C)=O)OC(C)=O
InChI=InChI=1S/C9H14O6/c1-6(10)13-4-9(15-8(3)12)5-14-7(2)11/h9H,4-5H2,1-3H3
computed SMILES=O=C(OCC(OC(=O)C)COC(=O)C)C
accession=JP007153
date=2016.01.19 (Created 2008.10.21, modified 2011.05.06)
author=SODA AROMATIC CO., LTD.
license=CC BY-NC-SA
exact mass=218.07904
ionization energy=70 eV
ion type=[M]+*
computed spectral entropy=1.0875394256442583
computed normalized entropy=0.45353916744457634
SPLASH=splash10-0006-9100000000-4831fd0c53a09c852378
submitter=submitter = University of Tokyo Team (Faculty of Engineering, University of Tokyo)
MoNA Rating=3.75

>  <NUM PEAKS>  (3443) 
11

>  <MASS SPECTRAL PEAKS>  (3443) 
15 5.1
42 1.78
43 99.99
44 2.11
61 1
73 1.25
86 1.64
103 8.9
115 1.92
116 3.42
145 6.94

$$$$

     RDKit          2D

 10  9  0  0  0  0  0  0  0  0999 V2000
   -6.4952    4.5000    0.0000 C   0  0  0  0  0  0  0  0  0  0  0  0
    2.5981    3.7500    0.0000 C   0  0  0  0  0  0  0  0  0  0  0  0
   -2.5981    3.7500    0.0000 C   0  0  0  0  0  0  0  0  0  0  0  0
   -1.2990    4.5000    0.0000 C   0  0  0  0  0  0  0  0  0  0  0  0
   -5.1962    3.7500    0.0000 C   0  0  0  0  0  0  0  0  0  0  0  0
    1.2990    4.5000    0.0000 C   0  0  0  0  0  0  0  0  0  0  0  0
   -5.1962    2.2500    0.0000 O   0  0  0  0  0  0  0  0  0  0  0  0
    1.2990    6.0000    0.0000 O   0  0  0  0  0  0  0  0  0  0  0  0
   -3.8971    4.5000    0.0000 O   0  0  0  0  0  0  0  0  0  0  0  0
    0.0000    3.7500    0.0000 O   0  0  0  0  0  0  0  0  0  0  0  0
  4  3  1  0
  5  1  1  0
  6  2  1  0
  7  5  2  0
  8  6  2  0
  9  3  1  0
  9  5  1  0
 10  4  1  0
 10  6  1  0
M  END
>  <NAME>  (3444) 
ETHYLENEGLYCOL DIACETATE

>  <SYNONYMS>  (3444) 


>  <SPECTRUM TYPE>  (3444) 
MS1

>  <INSTRUMENT TYPE>  (3444) 
EI-B

>  <INSTRUMENT>  (3444) 
HITACHI M-80B

>  <ION MODE>  (3444) 
P

>  <INCHIKEY>  (3444) 
JTXMVXSTHSMVQF-UHFFFAOYSA-N

>  <FORMULA>  (3444) 
C6H10O4

>  <EXACT MASS>  (3444) 
146.0579088

>  <MW>  (3444) 
146

>  <ID>  (3444) 
JP007152

>  <CONTRIBUTOR>  (3444) 
University of Tokyo Team, {Faculty of Engineering, University of Tokyo

>  <COMMENT>  (3444) 
SMILES=CC(=O)OCCOC(C)=O
InChI=InChI=1S/C6H10O4/c1-5(7)9-3-4-10-6(2)8/h3-4H2,1-2H3
computed SMILES=O=C(OCCOC(=O)C)C
accession=JP007152
date=2016.01.19 (Created 2008.10.21, modified 2011.05.06)
author=SODA AROMATIC CO., LTD.
license=CC BY-NC-SA
exact mass=146.05791
ionization energy=70 eV
ion type=[M]+*
computed spectral entropy=1.165668513380855
computed normalized entropy=0.48612152774316403
SPLASH=splash10-0006-9000000000-be43eea8c0d799efc407
submitter=submitter = University of Tokyo Team (Faculty of Engineering, University of Tokyo)
MoNA Rating=3.75

>  <NUM PEAKS>  (3444) 
11

>  <MASS SPECTRAL PEAKS>  (3444) 
15 6.28
28 1.46
29 1.77
42 3.27
43 99.99
44 2.97
73 4.47
74 1.04
86 11.21
103 1.79
116 4.34

$$$$

     RDKit          2D

 14 15  0  0  0  0  0  0  0  0999 V2000
    2.5986    1.0700    0.0000 C   0  0  0  0  0  0  0  0  0  0  0  0
   -5.1957    1.0700    0.0000 C   0  0  0  0  0  0  0  0  0  0  0  0
    2.5990    2.5708    0.0000 C   0  0  0  0  0  0  0  0  0  0  0  0
    1.2990    0.3192    0.0000 C   0  0  0  0  0  0  0  0  0  0  0  0
   -3.8962    0.3192    0.0000 C   0  0  0  0  0  0  0  0  0  0  0  0
   -5.1962    2.5708    0.0000 C   0  0  0  0  0  0  0  0  0  0  0  0
    1.3000    3.3208    0.0000 C   0  0  0  0  0  0  0  0  0  0  0  0
    0.0000    1.0692    0.0000 C   0  0  0  0  0  0  0  0  0  0  0  0
   -2.5971    1.0692    0.0000 C   0  0  0  0  0  0  0  0  0  0  0  0
   -3.8971    3.3208    0.0000 C   0  0  0  0  0  0  0  0  0  0  0  0
    0.0005    2.5700    0.0000 C   0  0  0  0  0  0  0  0  0  0  0  0
   -2.5976    2.5700    0.0000 C   0  0  0  0  0  0  0  0  0  0  0  0
   -1.2986    3.3200    0.0000 C   0  0  0  0  0  0  0  0  0  0  0  0
   -1.2986    4.8200    0.0000 O   0  0  0  0  0  0  0  0  0  0  0  0
  3  1  2  0
  4  1  1  0
  5  2  2  0
  6  2  1  0
  7  3  1  0
  8  4  2  0
  9  5  1  0
 10  6  2  0
 11  7  2  0
 11  8  1  0
 12  9  2  0
 12 10  1  0
 13 11  1  0
 13 12  1  0
 14 13  2  0
M  END
>  <NAME>  (3445) 
BENZOPHENONE

>  <SYNONYMS>  (3445) 


>  <SPECTRUM TYPE>  (3445) 
MS1

>  <INSTRUMENT TYPE>  (3445) 
EI-B

>  <INSTRUMENT>  (3445) 
HITACHI M-80B

>  <ION MODE>  (3445) 
P

>  <INCHIKEY>  (3445) 
RWCCWEUUXYIKHB-UHFFFAOYSA-N

>  <FORMULA>  (3445) 
C13H10O

>  <EXACT MASS>  (3445) 
182.07316494

>  <MW>  (3445) 
182

>  <ID>  (3445) 
JP007151

>  <CONTRIBUTOR>  (3445) 
University of Tokyo Team, {Faculty of Engineering, University of Tokyo

>  <COMMENT>  (3445) 
SMILES=c(c2)ccc(c2)C(=O)c(c1)cccc1
cas=119-61-9
InChI=InChI=1S/C13H10O/c14-13(11-7-3-1-4-8-11)12-9-5-2-6-10-12/h1-10H
computed SMILES=O=C(C=1C=CC=CC1)C=2C=CC=CC2
accession=JP007151
date=2016.01.19 (Created 2008.10.21, modified 2011.05.06)
author=SODA AROMATIC CO., LTD.
license=CC BY-NC-SA
exact mass=182.07316
ionization energy=70 eV
ion type=[M]+*
computed spectral entropy=1.9582116017890083
computed normalized entropy=0.6650542312625446
SPLASH=splash10-0a6r-7900000000-95f4bdf3395ce8c0bc20
submitter=submitter = University of Tokyo Team (Faculty of Engineering, University of Tokyo)
MoNA Rating=3.75

>  <NUM PEAKS>  (3445) 
19

>  <MASS SPECTRAL PEAKS>  (3445) 
27 1.96
39 1.98
50 10.38
51 31.56
52 1.71
63 1.05
74 2.87
75 2.1
76 4.21
77 69.37
78 3.81
105 99.99
106 5.89
152 2.4
153 1.38
154 1.56
181 4.43
182 41.07
183 4.47

$$$$

     RDKit          2D

 13 13  0  0  0  0  0  0  0  0999 V2000
   -6.8197    3.1321    0.0000 C   0  0  0  0  0  0  0  0  0  0  0  0
   -5.5207    3.8821    0.0000 C   0  0  0  0  0  0  0  0  0  0  0  0
   -4.2216    3.1321    0.0000 C   0  0  0  0  0  0  0  0  0  0  0  0
    3.5726    1.6321    0.0000 C   0  0  0  0  0  0  0  0  0  0  0  0
   -2.9226    3.8821    0.0000 C   0  0  0  0  0  0  0  0  0  0  0  0
    3.5731    3.1329    0.0000 C   0  0  0  0  0  0  0  0  0  0  0  0
    2.2731    0.8813    0.0000 C   0  0  0  0  0  0  0  0  0  0  0  0
    2.2740    3.8829    0.0000 C   0  0  0  0  0  0  0  0  0  0  0  0
    0.9740    1.6313    0.0000 C   0  0  0  0  0  0  0  0  0  0  0  0
   -1.6236    3.1321    0.0000 C   0  0  0  0  0  0  0  0  0  0  0  0
    0.9745    3.1321    0.0000 C   0  0  0  0  0  0  0  0  0  0  0  0
   -0.3245    3.8821    0.0000 C   0  0  0  0  0  0  0  0  0  0  0  0
   -0.3245    5.3821    0.0000 O   0  0  0  0  0  0  0  0  0  0  0  0
  2  1  1  0
  3  2  1  0
  5  3  1  0
  6  4  2  0
  7  4  1  0
  8  6  1  0
  9  7  2  0
 10  5  1  0
 11  8  2  0
 11  9  1  0
 12 10  1  0
 12 11  1  0
 13 12  2  0
M  END
>  <NAME>  (3446) 
PENTYL PHENYL KETONE

>  <SYNONYMS>  (3446) 
HEXANOPHENONE

>  <SPECTRUM TYPE>  (3446) 
MS1

>  <INSTRUMENT TYPE>  (3446) 
EI-B

>  <INSTRUMENT>  (3446) 
HITACHI M-80B

>  <ION MODE>  (3446) 
P

>  <INCHIKEY>  (3446) 
MAHPVQDVMLWUAG-UHFFFAOYSA-N

>  <FORMULA>  (3446) 
C12H16O

>  <EXACT MASS>  (3446) 
176.120115132

>  <MW>  (3446) 
176

>  <ID>  (3446) 
JP007150

>  <CONTRIBUTOR>  (3446) 
University of Tokyo Team, {Faculty of Engineering, University of Tokyo

>  <COMMENT>  (3446) 
SMILES=CCCCCC(=O)c(c1)cccc1
cas=942-92-7
InChI=InChI=1S/C12H16O/c1-2-3-5-10-12(13)11-8-6-4-7-9-11/h4,6-9H,2-3,5,10H2,1H3
computed SMILES=O=C(C=1C=CC=CC1)CCCCC
accession=JP007150
date=2016.01.19 (Created 2008.10.21, modified 2011.05.06)
author=SODA AROMATIC CO., LTD.
license=CC BY-NC-SA
exact mass=176.12012
ionization energy=70 eV
ion type=[M]+*
computed spectral entropy=2.0764027824488176
computed normalized entropy=0.693120276728025
SPLASH=splash10-0adi-5900000000-3544c4df248702359c39
submitter=submitter = University of Tokyo Team (Faculty of Engineering, University of Tokyo)
MoNA Rating=3.75

>  <NUM PEAKS>  (3446) 
20

>  <MASS SPECTRAL PEAKS>  (3446) 
27 7.56
29 5.34
39 3.92
41 4.13
42 1.08
43 3.01
50 3.07
51 14.55
52 1.12
55 2.93
76 1.84
77 50.49
78 7.53
91 1.75
105 99.99
106 7.69
120 54.17
121 4.09
133 4.01
176 5.18

$$$$

     RDKit          2D

 12 12  0  0  0  0  0  0  0  0999 V2000
   -5.5207    3.1321    0.0000 C   0  0  0  0  0  0  0  0  0  0  0  0
   -4.2216    2.3821    0.0000 C   0  0  0  0  0  0  0  0  0  0  0  0
   -2.9226    3.1321    0.0000 C   0  0  0  0  0  0  0  0  0  0  0  0
    3.5726    0.8821    0.0000 C   0  0  0  0  0  0  0  0  0  0  0  0
    3.5731    2.3829    0.0000 C   0  0  0  0  0  0  0  0  0  0  0  0
    2.2731    0.1313    0.0000 C   0  0  0  0  0  0  0  0  0  0  0  0
    2.2740    3.1329    0.0000 C   0  0  0  0  0  0  0  0  0  0  0  0
    0.9740    0.8813    0.0000 C   0  0  0  0  0  0  0  0  0  0  0  0
   -1.6236    2.3821    0.0000 C   0  0  0  0  0  0  0  0  0  0  0  0
    0.9745    2.3821    0.0000 C   0  0  0  0  0  0  0  0  0  0  0  0
   -0.3245    3.1321    0.0000 C   0  0  0  0  0  0  0  0  0  0  0  0
   -0.3245    4.6321    0.0000 O   0  0  0  0  0  0  0  0  0  0  0  0
  2  1  1  0
  3  2  1  0
  5  4  2  0
  6  4  1  0
  7  5  1  0
  8  6  2  0
  9  3  1  0
 10  7  2  0
 10  8  1  0
 11  9  1  0
 11 10  1  0
 12 11  2  0
M  END
>  <NAME>  (3447) 
VALEROPHENONE

>  <SYNONYMS>  (3447) 


>  <SPECTRUM TYPE>  (3447) 
MS1

>  <INSTRUMENT TYPE>  (3447) 
EI-B

>  <INSTRUMENT>  (3447) 
HITACHI M-80B

>  <ION MODE>  (3447) 
P

>  <INCHIKEY>  (3447) 
XKGLSKVNOSHTAD-UHFFFAOYSA-N

>  <FORMULA>  (3447) 
C11H14O

>  <EXACT MASS>  (3447) 
162.104465068

>  <MW>  (3447) 
162

>  <ID>  (3447) 
JP007149

>  <CONTRIBUTOR>  (3447) 
University of Tokyo Team, {Faculty of Engineering, University of Tokyo

>  <COMMENT>  (3447) 
SMILES=CCCCC(=O)c(c1)cccc1
cas=1009-14-9
InChI=InChI=1S/C11H14O/c1-2-3-9-11(12)10-7-5-4-6-8-10/h4-8H,2-3,9H2,1H3
computed SMILES=O=C(C=1C=CC=CC1)CCCC
accession=JP007149
date=2016.01.19 (Created 2008.10.21, modified 2011.05.06)
author=SODA AROMATIC CO., LTD.
license=CC BY-NC-SA
exact mass=162.10447
ionization energy=70 eV
ion type=[M]+*
computed spectral entropy=2.0589673853730224
computed normalized entropy=0.6873001982017451
SPLASH=splash10-0a6r-6900000000-19cf24e12d8e892de5bf
submitter=submitter = University of Tokyo Team (Faculty of Engineering, University of Tokyo)
MoNA Rating=3.75

>  <NUM PEAKS>  (3447) 
20

>  <MASS SPECTRAL PEAKS>  (3447) 
27 7.17
29 6.3
39 3.84
41 3.38
50 4.66
51 18.19
52 1.3
55 2.21
57 1.1
74 1.09
76 1.98
77 52.11
78 7.5
91 1.48
105 99.99
106 7.7
120 43
121 3.08
133 2.21
162 5.45

$$$$

     RDKit          2D

 12 12  0  0  0  0  0  0  0  0999 V2000
   -4.8712    2.0071    0.0000 C   0  0  0  0  0  0  0  0  0  0  0  0
    2.9231    0.5071    0.0000 C   0  0  0  0  0  0  0  0  0  0  0  0
    2.9236    2.0079    0.0000 C   0  0  0  0  0  0  0  0  0  0  0  0
    1.6236   -0.2437    0.0000 C   0  0  0  0  0  0  0  0  0  0  0  0
    1.6245    2.7579    0.0000 C   0  0  0  0  0  0  0  0  0  0  0  0
    0.3245    0.5063    0.0000 C   0  0  0  0  0  0  0  0  0  0  0  0
   -2.2731    2.0071    0.0000 C   0  0  0  0  0  0  0  0  0  0  0  0
   -3.5721    2.7571    0.0000 C   0  0  0  0  0  0  0  0  0  0  0  0
    0.3250    2.0071    0.0000 C   0  0  0  0  0  0  0  0  0  0  0  0
   -0.9740    2.7571    0.0000 C   0  0  0  0  0  0  0  0  0  0  0  0
   -3.5721    4.2571    0.0000 O   0  0  0  0  0  0  0  0  0  0  0  0
   -0.9740    4.2571    0.0000 O   0  0  0  0  0  0  0  0  0  0  0  0
  3  2  2  0
  4  2  1  0
  5  3  1  0
  6  4  2  0
  8  1  1  0
  8  7  1  0
  9  5  2  0
  9  6  1  0
 10  7  1  0
 10  9  1  0
 11  8  2  0
 12 10  2  0
M  END
>  <NAME>  (3448) 
BENZOYLACETONE

>  <SYNONYMS>  (3448) 
1-PHENYL-1,3-BUTANEDIONE

>  <SPECTRUM TYPE>  (3448) 
MS1

>  <INSTRUMENT TYPE>  (3448) 
EI-B

>  <INSTRUMENT>  (3448) 
HITACHI M-80B

>  <ION MODE>  (3448) 
P

>  <INCHIKEY>  (3448) 
CVBUKMMMRLOKQR-UHFFFAOYSA-N

>  <FORMULA>  (3448) 
C10H10O2

>  <EXACT MASS>  (3448) 
162.06807956

>  <MW>  (3448) 
162

>  <ID>  (3448) 
JP007148

>  <CONTRIBUTOR>  (3448) 
University of Tokyo Team, {Faculty of Engineering, University of Tokyo

>  <COMMENT>  (3448) 
SMILES=CC(=O)CC(=O)c(c1)cccc1
cas=93-91-4
InChI=InChI=1S/C10H10O2/c1-8(11)7-10(12)9-5-3-2-4-6-9/h2-6H,7H2,1H3
computed SMILES=O=C(C=1C=CC=CC1)CC(=O)C
accession=JP007148
date=2016.01.19 (Created 2008.10.21, modified 2011.05.06)
author=SODA AROMATIC CO., LTD.
license=CC BY-NC-SA
exact mass=162.06808
ionization energy=70 eV
ion type=[M]+*
computed spectral entropy=3.000150344961246
computed normalized entropy=0.7630425723844904
SPLASH=splash10-0cfu-9500000000-4c8eabc1396875b174a8
submitter=submitter = University of Tokyo Team (Faculty of Engineering, University of Tokyo)
MoNA Rating=3.75

>  <NUM PEAKS>  (3448) 
51

>  <MASS SPECTRAL PEAKS>  (3448) 
14 1.32
15 4.89
18 2.27
26 1.29
27 6.79
29 3.47
31 2.45
38 2.07
39 10.62
41 3.75
42 4.05
43 53.93
44 1.21
50 12.96
51 46.92
52 3.83
53 1.85
55 3.43
62 2.46
63 5.83
64 1.54
65 7.2
66 1.67
67 2.15
69 79.7
70 2.48
74 5.49
75 4.13
76 5.43
77 78.38
78 13.91
79 2.51
85 15.53
86 1.6
89 3.49
90 1.74
91 7.95
92 1.22
102 1.97
103 3.21
105 99.99
106 5.77
115 1.53
120 5.93
145 1.43
147 49.66
148 4.06
160 1.04
161 32.07
162 59.71
163 5.43

$$$$

     RDKit          2D

 11 11  0  0  0  0  0  0  0  0999 V2000
   -2.5989   -1.5002    0.0000 C   0  0  0  0  0  0  0  0  0  0  0  0
    2.5989   -1.5002    0.0000 C   0  0  0  0  0  0  0  0  0  0  0  0
    2.5987    3.0002    0.0000 C   0  0  0  0  0  0  0  0  0  0  0  0
   -1.3000    0.7500    0.0000 C   0  0  0  0  0  0  0  0  0  0  0  0
    0.0000    1.5000    0.0000 C   0  0  0  0  0  0  0  0  0  0  0  0
   -0.0000   -1.5000    0.0000 C   0  0  0  0  0  0  0  0  0  0  0  0
   -1.3000   -0.7500    0.0000 C   0  0  0  0  0  0  0  0  0  0  0  0
    1.3000   -0.7500    0.0000 C   0  0  0  0  0  0  0  0  0  0  0  0
    2.5989    1.5002    0.0000 C   0  0  0  0  0  0  0  0  0  0  0  0
    1.3000    0.7500    0.0000 C   0  0  0  0  0  0  0  0  0  0  0  0
    3.8981    0.7504    0.0000 O   0  0  0  0  0  0  0  0  0  0  0  0
  5  4  2  0
  7  1  1  0
  7  4  1  0
  7  6  2  0
  8  2  1  0
  8  6  1  0
  9  3  1  0
 10  5  1  0
 10  8  2  0
 10  9  1  0
 11  9  2  0
M  END
>  <NAME>  (3449) 
2,4-DIMETHYLACETOPHENONE

>  <SYNONYMS>  (3449) 


>  <SPECTRUM TYPE>  (3449) 
MS1

>  <INSTRUMENT TYPE>  (3449) 
EI-B

>  <INSTRUMENT>  (3449) 
HITACHI M-80B

>  <ION MODE>  (3449) 
P

>  <INCHIKEY>  (3449) 
HSDSKVWQTONQBJ-UHFFFAOYSA-N

>  <FORMULA>  (3449) 
C10H12O

>  <EXACT MASS>  (3449) 
148.088815004

>  <MW>  (3449) 
148

>  <ID>  (3449) 
JP007147

>  <CONTRIBUTOR>  (3449) 
University of Tokyo Team, {Faculty of Engineering, University of Tokyo

>  <COMMENT>  (3449) 
SMILES=Cc(c1)cc(C)c(c1)C(C)=O
InChI=InChI=1S/C10H12O/c1-7-4-5-10(9(3)11)8(2)6-7/h4-6H,1-3H3
computed SMILES=O=C(C1=CC=C(C=C1C)C)C
accession=JP007147
date=2016.01.19 (Created 2008.10.21, modified 2011.05.06)
author=SODA AROMATIC CO., LTD.
license=CC BY-NC-SA
exact mass=148.08882
ionization energy=70 eV
ion type=[M]+*
computed spectral entropy=2.624585081768603
computed normalized entropy=0.7572951763717437
SPLASH=splash10-001i-4900000000-23b7ac8b5ecc4ad91bf0
submitter=submitter = University of Tokyo Team (Faculty of Engineering, University of Tokyo)
MoNA Rating=3.75

>  <NUM PEAKS>  (3449) 
32

>  <MASS SPECTRAL PEAKS>  (3449) 
15 2.2
27 6.43
38 1.24
39 10.63
41 1.76
43 14.45
50 3.19
51 10.59
52 2.47
53 3.35
62 1.89
63 7.61
64 1.46
65 5.07
74 1.36
75 1.31
76 1.22
77 21.93
78 7.89
79 14.46
89 1.95
91 3.47
102 1.81
103 10.77
104 3.44
105 55.14
106 5.04
115 1.69
133 99.99
134 10.32
148 40.19
149 4.54

$$$$

     RDKit          2D

 11 11  0  0  0  0  0  0  0  0999 V2000
   -3.8981   -0.7504    0.0000 C   0  0  0  0  0  0  0  0  0  0  0  0
    3.8981    0.7504    0.0000 C   0  0  0  0  0  0  0  0  0  0  0  0
   -2.5989   -1.5002    0.0000 C   0  0  0  0  0  0  0  0  0  0  0  0
   -1.3000    0.7500    0.0000 C   0  0  0  0  0  0  0  0  0  0  0  0
   -0.0000   -1.5000    0.0000 C   0  0  0  0  0  0  0  0  0  0  0  0
    0.0000    1.5000    0.0000 C   0  0  0  0  0  0  0  0  0  0  0  0
    1.3000   -0.7500    0.0000 C   0  0  0  0  0  0  0  0  0  0  0  0
    2.5989    1.5002    0.0000 C   0  0  0  0  0  0  0  0  0  0  0  0
   -1.3000   -0.7500    0.0000 C   0  0  0  0  0  0  0  0  0  0  0  0
    1.3000    0.7500    0.0000 C   0  0  0  0  0  0  0  0  0  0  0  0
    2.5987    3.0002    0.0000 O   0  0  0  0  0  0  0  0  0  0  0  0
  3  1  1  0
  6  4  2  0
  7  5  1  0
  8  2  1  0
  9  3  1  0
  9  4  1  0
  9  5  2  0
 10  6  1  0
 10  7  2  0
 10  8  1  0
 11  8  2  0
M  END
>  <NAME>  (3450) 
P-ETHYLACETOPHENONE

>  <SYNONYMS>  (3450) 
4-ETHYLACETOPHENONE

>  <SPECTRUM TYPE>  (3450) 
MS1

>  <INSTRUMENT TYPE>  (3450) 
EI-B

>  <INSTRUMENT>  (3450) 
HITACHI M-80B

>  <ION MODE>  (3450) 
P

>  <INCHIKEY>  (3450) 
NODGRWCMFMEGJH-UHFFFAOYSA-N

>  <FORMULA>  (3450) 
C10H12O

>  <EXACT MASS>  (3450) 
148.088815004

>  <MW>  (3450) 
148

>  <ID>  (3450) 
JP007146

>  <CONTRIBUTOR>  (3450) 
University of Tokyo Team, {Faculty of Engineering, University of Tokyo

>  <COMMENT>  (3450) 
SMILES=CCc(c1)ccc(c1)C(C)=O
cas=937-30-4
InChI=InChI=1S/C10H12O/c1-3-9-4-6-10(7-5-9)8(2)11/h4-7H,3H2,1-2H3
computed SMILES=O=C(C1=CC=C(C=C1)CC)C
accession=JP007146
date=2016.01.19 (Created 2008.10.21, modified 2011.05.06)
author=SODA AROMATIC CO., LTD.
license=CC BY-NC-SA
exact mass=148.08882
ionization energy=70 eV
ion type=[M]+*
computed spectral entropy=2.628761222863834
computed normalized entropy=0.7655128182861011
SPLASH=splash10-001i-6900000000-d32258557d74b6114aea
submitter=submitter = University of Tokyo Team (Faculty of Engineering, University of Tokyo)
MoNA Rating=3.75

>  <NUM PEAKS>  (3450) 
31

>  <MASS SPECTRAL PEAKS>  (3450) 
15 2.57
27 6
39 7.27
41 1.09
43 19.68
50 3.94
51 10.49
52 1.7
53 1.8
62 1.85
63 6.07
64 1.59
65 3.06
74 1.64
75 1.75
76 2.04
77 19.73
78 5.02
79 15.8
89 5.96
90 5.24
91 2.86
102 1.31
103 10.17
104 2.85
105 25.05
106 1.81
133 99.99
134 10.21
148 24.68
149 2.11

$$$$

     RDKit          2D

 11 11  0  0  0  0  0  0  0  0999 V2000
   -4.8712    2.0071    0.0000 C   0  0  0  0  0  0  0  0  0  0  0  0
   -3.5721    2.7571    0.0000 C   0  0  0  0  0  0  0  0  0  0  0  0
    2.9231    0.5071    0.0000 C   0  0  0  0  0  0  0  0  0  0  0  0
    2.9236    2.0079    0.0000 C   0  0  0  0  0  0  0  0  0  0  0  0
    1.6236   -0.2437    0.0000 C   0  0  0  0  0  0  0  0  0  0  0  0
   -2.2731    2.0071    0.0000 C   0  0  0  0  0  0  0  0  0  0  0  0
    1.6245    2.7579    0.0000 C   0  0  0  0  0  0  0  0  0  0  0  0
    0.3245    0.5063    0.0000 C   0  0  0  0  0  0  0  0  0  0  0  0
    0.3250    2.0071    0.0000 C   0  0  0  0  0  0  0  0  0  0  0  0
   -0.9740    2.7571    0.0000 C   0  0  0  0  0  0  0  0  0  0  0  0
   -0.9740    4.2571    0.0000 O   0  0  0  0  0  0  0  0  0  0  0  0
  2  1  1  0
  4  3  2  0
  5  3  1  0
  6  2  1  0
  7  4  1  0
  8  5  2  0
  9  7  2  0
  9  8  1  0
 10  6  1  0
 10  9  1  0
 11 10  2  0
M  END
>  <NAME>  (3451) 
BUTYROPHENONE

>  <SYNONYMS>  (3451) 


>  <SPECTRUM TYPE>  (3451) 
MS1

>  <INSTRUMENT TYPE>  (3451) 
EI-B

>  <INSTRUMENT>  (3451) 
HITACHI M-80B

>  <ION MODE>  (3451) 
P

>  <INCHIKEY>  (3451) 
FFSAXUULYPJSKH-UHFFFAOYSA-N

>  <FORMULA>  (3451) 
C10H12O

>  <EXACT MASS>  (3451) 
148.088815004

>  <MW>  (3451) 
148

>  <ID>  (3451) 
JP007145

>  <CONTRIBUTOR>  (3451) 
University of Tokyo Team, {Faculty of Engineering, University of Tokyo

>  <COMMENT>  (3451) 
SMILES=CCCC(=O)c(c1)cccc1
cas=495-40-9
InChI=InChI=1S/C10H12O/c1-2-6-10(11)9-7-4-3-5-8-9/h3-5,7-8H,2,6H2,1H3
computed SMILES=O=C(C=1C=CC=CC1)CCC
accession=JP007145
date=2016.01.19 (Created 2008.10.21, modified 2011.05.06)
author=SODA AROMATIC CO., LTD.
license=CC BY-NC-SA
exact mass=148.08882
ionization energy=70 eV
ion type=[M]+*
computed spectral entropy=2.004947204543207
computed normalized entropy=0.6585424300707172
SPLASH=splash10-0a4i-6900000000-fac46dd712294eda9140
submitter=submitter = University of Tokyo Team (Faculty of Engineering, University of Tokyo)
MoNA Rating=3.75

>  <NUM PEAKS>  (3451) 
21

>  <MASS SPECTRAL PEAKS>  (3451) 
27 6.19
39 4.81
41 3.92
43 2.15
50 5.75
51 18.48
52 1.18
55 1.4
65 1.03
74 1.37
75 1
76 1.81
77 48.94
78 4.96
91 1.41
105 99.99
106 7.68
120 8.01
133 1.11
148 16.31
149 1.56

$$$$

     RDKit          2D

 11 11  0  0  0  0  0  0  0  0999 V2000
   -4.8712    2.0071    0.0000 C   0  0  0  0  0  0  0  0  0  0  0  0
    2.9231    0.5071    0.0000 C   0  0  0  0  0  0  0  0  0  0  0  0
    2.9236    2.0079    0.0000 C   0  0  0  0  0  0  0  0  0  0  0  0
    1.6236   -0.2437    0.0000 C   0  0  0  0  0  0  0  0  0  0  0  0
    1.6245    2.7579    0.0000 C   0  0  0  0  0  0  0  0  0  0  0  0
    0.3245    0.5063    0.0000 C   0  0  0  0  0  0  0  0  0  0  0  0
   -2.2731    2.0071    0.0000 C   0  0  0  0  0  0  0  0  0  0  0  0
   -0.9740    2.7571    0.0000 C   0  0  0  0  0  0  0  0  0  0  0  0
   -3.5721    2.7571    0.0000 C   0  0  0  0  0  0  0  0  0  0  0  0
    0.3250    2.0071    0.0000 C   0  0  0  0  0  0  0  0  0  0  0  0
   -3.5721    4.2571    0.0000 O   0  0  0  0  0  0  0  0  0  0  0  0
  3  2  2  0
  4  2  1  0
  5  3  1  0
  6  4  2  0
  8  7  1  0
  9  1  1  0
  9  7  1  0
 10  5  2  0
 10  6  1  0
 10  8  1  0
 11  9  2  0
M  END
>  <NAME>  (3452) 
BENZYLACETONE

>  <SYNONYMS>  (3452) 
4-PHENYL-2-BUTANONE

>  <SPECTRUM TYPE>  (3452) 
MS1

>  <INSTRUMENT TYPE>  (3452) 
EI-B

>  <INSTRUMENT>  (3452) 
HITACHI M-80B

>  <ION MODE>  (3452) 
P

>  <INCHIKEY>  (3452) 
AKGGYBADQZYZPD-UHFFFAOYSA-N

>  <FORMULA>  (3452) 
C10H12O

>  <EXACT MASS>  (3452) 
148.088815004

>  <MW>  (3452) 
148

>  <ID>  (3452) 
JP007144

>  <CONTRIBUTOR>  (3452) 
University of Tokyo Team, {Faculty of Engineering, University of Tokyo

>  <COMMENT>  (3452) 
SMILES=CC(=O)CCc(c1)cccc1
cas=2550-26-7
InChI=InChI=1S/C10H12O/c1-9(11)7-8-10-5-3-2-4-6-10/h2-6H,7-8H2,1H3
computed SMILES=O=C(C)CCC=1C=CC=CC1
accession=JP007144
date=2016.01.19 (Created 2008.10.21, modified 2011.05.06)
author=SODA AROMATIC CO., LTD.
license=CC BY-NC-SA
exact mass=148.08882
ionization energy=70 eV
ion type=[M]+*
computed spectral entropy=2.7738537021970764
computed normalized entropy=0.7681852009108183
SPLASH=splash10-0006-9500000000-71d38ef53ad7e770709b
submitter=submitter = University of Tokyo Team (Faculty of Engineering, University of Tokyo)
MoNA Rating=3.75

>  <NUM PEAKS>  (3452) 
37

>  <MASS SPECTRAL PEAKS>  (3452) 
15 5.21
27 8.51
38 1.41
39 10.83
41 2.04
42 1.95
43 99.99
44 1.83
50 6.91
51 17.75
52 3.27
53 1.75
55 2.87
62 1.43
63 6.56
64 1.21
65 11.58
74 1.74
75 1.46
76 1.49
77 21.32
78 13.65
79 12.29
89 2.36
91 55.57
92 3.96
102 1.44
103 9.9
104 10.48
105 67.47
106 7.49
115 2.82
129 1.61
133 10.69
147 2.14
148 56.16
149 5.91

$$$$

     RDKit          2D

 11 11  0  0  0  0  0  0  0  0999 V2000
   -4.8712    2.0071    0.0000 C   0  0  0  0  0  0  0  0  0  0  0  0
    2.9231    0.5071    0.0000 C   0  0  0  0  0  0  0  0  0  0  0  0
    2.9236    2.0079    0.0000 C   0  0  0  0  0  0  0  0  0  0  0  0
    1.6236   -0.2437    0.0000 C   0  0  0  0  0  0  0  0  0  0  0  0
    1.6245    2.7579    0.0000 C   0  0  0  0  0  0  0  0  0  0  0  0
    0.3245    0.5063    0.0000 C   0  0  0  0  0  0  0  0  0  0  0  0
   -2.2731    2.0071    0.0000 C   0  0  0  0  0  0  0  0  0  0  0  0
   -0.9740    2.7571    0.0000 C   0  0  0  0  0  0  0  0  0  0  0  0
   -3.5721    2.7571    0.0000 C   0  0  0  0  0  0  0  0  0  0  0  0
    0.3250    2.0071    0.0000 C   0  0  0  0  0  0  0  0  0  0  0  0
   -3.5721    4.2571    0.0000 O   0  0  0  0  0  0  0  0  0  0  0  0
  3  2  2  0
  4  2  1  0
  5  3  1  0
  6  4  2  0
  7  8  2  0
  9  1  1  0
  9  7  1  0
 10  5  2  0
 10  6  1  0
 10  8  1  0
 11  9  2  0
M  END
>  <NAME>  (3453) 
BENZYLIDENEACETONE

>  <SYNONYMS>  (3453) 
TRANS-4-PHENYL-3-BUTEN-2-ONE

>  <SPECTRUM TYPE>  (3453) 
MS1

>  <INSTRUMENT TYPE>  (3453) 
EI-B

>  <INSTRUMENT>  (3453) 
HITACHI M-80B

>  <ION MODE>  (3453) 
P

>  <INCHIKEY>  (3453) 
BWHOZHOGCMHOBV-BQYQJAHWSA-N

>  <FORMULA>  (3453) 
C10H10O

>  <EXACT MASS>  (3453) 
146.07316494

>  <MW>  (3453) 
146

>  <ID>  (3453) 
JP007143

>  <CONTRIBUTOR>  (3453) 
University of Tokyo Team, {Faculty of Engineering, University of Tokyo

>  <COMMENT>  (3453) 
SMILES=CC(=O)C=Cc(c1)cccc1
cas=1896-62-4
InChI=InChI=1S/C10H10O/c1-9(11)7-8-10-5-3-2-4-6-10/h2-8H,1H3/b8-7+
computed SMILES=O=C(C=CC=1C=CC=CC1)C
accession=JP007143
date=2016.01.19 (Created 2008.10.21, modified 2011.05.06)
author=SODA AROMATIC CO., LTD.
license=CC BY-NC-SA
exact mass=146.07316
ionization energy=70 eV
ion type=[M]+*
computed spectral entropy=2.6950482735366403
computed normalized entropy=0.7520675402646958
SPLASH=splash10-0uea-5900000000-bbca89d5b1a35227985d
submitter=submitter = University of Tokyo Team (Faculty of Engineering, University of Tokyo)
MoNA Rating=3.75

>  <NUM PEAKS>  (3453) 
36

>  <MASS SPECTRAL PEAKS>  (3453) 
15 5.34
26 1.21
27 3.52
38 2.53
39 7.03
42 1.91
43 32.42
50 14.69
51 38.34
52 4.93
53 1.49
58 1.33
62 3.38
63 8.33
64 1.12
65 2.06
73 1.22
74 5.79
75 5.66
76 6.96
77 55.65
78 4.03
87 1.01
89 1.41
91 2.75
101 1.97
102 14.13
103 96.21
104 7.28
115 3.48
117 2.2
131 99.99
132 7.91
145 46.31
146 60.43
147 5.28

$$$$

     RDKit          2D

 10 10  0  0  0  0  0  0  0  0999 V2000
   -3.5724    2.0075    0.0000 C   0  0  0  0  0  0  0  0  0  0  0  0
   -2.2733    1.2575    0.0000 C   0  0  0  0  0  0  0  0  0  0  0  0
    2.9228   -0.2425    0.0000 C   0  0  0  0  0  0  0  0  0  0  0  0
    2.9233    1.2583    0.0000 C   0  0  0  0  0  0  0  0  0  0  0  0
    1.6233   -0.9933    0.0000 C   0  0  0  0  0  0  0  0  0  0  0  0
    1.6243    2.0083    0.0000 C   0  0  0  0  0  0  0  0  0  0  0  0
    0.3243   -0.2433    0.0000 C   0  0  0  0  0  0  0  0  0  0  0  0
    0.3248    1.2575    0.0000 C   0  0  0  0  0  0  0  0  0  0  0  0
   -0.9743    2.0075    0.0000 C   0  0  0  0  0  0  0  0  0  0  0  0
   -0.9743    3.5075    0.0000 O   0  0  0  0  0  0  0  0  0  0  0  0
  2  1  1  0
  4  3  2  0
  5  3  1  0
  6  4  1  0
  7  5  2  0
  8  6  2  0
  8  7  1  0
  9  2  1  0
  9  8  1  0
 10  9  2  0
M  END
>  <NAME>  (3454) 
PROPIOPHENONE

>  <SYNONYMS>  (3454) 


>  <SPECTRUM TYPE>  (3454) 
MS1

>  <INSTRUMENT TYPE>  (3454) 
EI-B

>  <INSTRUMENT>  (3454) 
HITACHI M-80B

>  <ION MODE>  (3454) 
P

>  <INCHIKEY>  (3454) 
KRIOVPPHQSLHCZ-UHFFFAOYSA-N

>  <FORMULA>  (3454) 
C9H10O

>  <EXACT MASS>  (3454) 
134.07316494

>  <MW>  (3454) 
134

>  <ID>  (3454) 
JP007142

>  <CONTRIBUTOR>  (3454) 
University of Tokyo Team, {Faculty of Engineering, University of Tokyo

>  <COMMENT>  (3454) 
SMILES=CCC(=O)c(c1)cccc1
cas=93-55-0
InChI=InChI=1S/C9H10O/c1-2-9(10)8-6-4-3-5-7-8/h3-7H,2H2,1H3
computed SMILES=O=C(C=1C=CC=CC1)CC
accession=JP007142
date=2016.01.19 (Created 2008.10.21, modified 2011.05.06)
author=SODA AROMATIC CO., LTD.
license=CC BY-NC-SA
exact mass=134.07316
ionization energy=70 eV
ion type=[M]+*
computed spectral entropy=1.8193244988951642
computed normalized entropy=0.6178849389537046
SPLASH=splash10-0a4i-6900000000-d26de44f3cfd2a7ab948
submitter=submitter = University of Tokyo Team (Faculty of Engineering, University of Tokyo)
MoNA Rating=3.75

>  <NUM PEAKS>  (3454) 
19

>  <MASS SPECTRAL PEAKS>  (3454) 
27 4.52
29 2.21
38 1.03
39 1.71
50 5.21
51 18.19
52 1.23
57 1.12
63 1.03
74 1.68
75 1.44
76 2.34
77 46.59
78 3.82
105 99.99
106 7.84
133 1
134 16.72
135 1.67

$$$$

     RDKit          2D

 10 10  0  0  0  0  0  0  0  0999 V2000
   -3.8969    2.5696    0.0000 C   0  0  0  0  0  0  0  0  0  0  0  0
    2.5983    0.3196    0.0000 C   0  0  0  0  0  0  0  0  0  0  0  0
    2.5988    1.8204    0.0000 C   0  0  0  0  0  0  0  0  0  0  0  0
    1.2988   -0.4312    0.0000 C   0  0  0  0  0  0  0  0  0  0  0  0
    1.2998    2.5704    0.0000 C   0  0  0  0  0  0  0  0  0  0  0  0
   -0.0002    0.3188    0.0000 C   0  0  0  0  0  0  0  0  0  0  0  0
   -1.2988    2.5696    0.0000 C   0  0  0  0  0  0  0  0  0  0  0  0
   -2.5978    1.8196    0.0000 C   0  0  0  0  0  0  0  0  0  0  0  0
    0.0002    1.8196    0.0000 C   0  0  0  0  0  0  0  0  0  0  0  0
   -2.5978    0.3196    0.0000 O   0  0  0  0  0  0  0  0  0  0  0  0
  3  2  2  0
  4  2  1  0
  5  3  1  0
  6  4  2  0
  8  1  1  0
  8  7  1  0
  9  5  2  0
  9  6  1  0
  9  7  1  0
 10  8  2  0
M  END
>  <NAME>  (3455) 
PHENYLACETONE

>  <SYNONYMS>  (3455) 


>  <SPECTRUM TYPE>  (3455) 
MS1

>  <INSTRUMENT TYPE>  (3455) 
EI-B

>  <INSTRUMENT>  (3455) 
HITACHI M-80B

>  <ION MODE>  (3455) 
P

>  <INCHIKEY>  (3455) 
QCCDLTOVEPVEJK-UHFFFAOYSA-N

>  <FORMULA>  (3455) 
C9H10O

>  <EXACT MASS>  (3455) 
134.07316494

>  <MW>  (3455) 
134

>  <ID>  (3455) 
JP007141

>  <CONTRIBUTOR>  (3455) 
University of Tokyo Team, {Faculty of Engineering, University of Tokyo

>  <COMMENT>  (3455) 
SMILES=CC(=O)Cc(c1)cccc1
cas=103-79-7
InChI=InChI=1S/C9H10O/c1-8(10)7-9-5-3-2-4-6-9/h2-6H,7H2,1H3
computed SMILES=O=C(C)CC=1C=CC=CC1
accession=JP007141
date=2016.01.19 (Created 2008.10.21, modified 2011.05.06)
author=SODA AROMATIC CO., LTD.
license=CC BY-NC-SA
exact mass=134.07316
ionization energy=70 eV
ion type=[M]+*
computed spectral entropy=2.079523229969872
computed normalized entropy=0.6727579000768943
SPLASH=splash10-0006-9000000000-f1e53fad0477c0100995
submitter=submitter = University of Tokyo Team (Faculty of Engineering, University of Tokyo)
MoNA Rating=3.75

>  <NUM PEAKS>  (3455) 
22

>  <MASS SPECTRAL PEAKS>  (3455) 
15 3.06
27 1.57
38 1.64
39 12.2
41 1.82
42 1.08
43 99.99
44 1.69
50 2.54
51 6.4
52 1.54
62 2.05
63 7.11
64 1.59
65 16.73
77 1.24
89 4.62
90 1.68
91 55.11
92 18.17
134 17.65
135 1.44

$$$$

     RDKit          2D

 10 10  0  0  0  0  0  0  0  0999 V2000
   -2.5989   -1.5002    0.0000 C   0  0  0  0  0  0  0  0  0  0  0  0
    3.8981    0.7504    0.0000 C   0  0  0  0  0  0  0  0  0  0  0  0
   -1.3000    0.7500    0.0000 C   0  0  0  0  0  0  0  0  0  0  0  0
   -0.0000   -1.5000    0.0000 C   0  0  0  0  0  0  0  0  0  0  0  0
    0.0000    1.5000    0.0000 C   0  0  0  0  0  0  0  0  0  0  0  0
    1.3000   -0.7500    0.0000 C   0  0  0  0  0  0  0  0  0  0  0  0
   -1.3000   -0.7500    0.0000 C   0  0  0  0  0  0  0  0  0  0  0  0
    2.5989    1.5002    0.0000 C   0  0  0  0  0  0  0  0  0  0  0  0
    1.3000    0.7500    0.0000 C   0  0  0  0  0  0  0  0  0  0  0  0
    2.5987    3.0002    0.0000 O   0  0  0  0  0  0  0  0  0  0  0  0
  5  3  2  0
  6  4  1  0
  7  1  1  0
  7  3  1  0
  7  4  2  0
  8  2  1  0
  9  5  1  0
  9  6  2  0
  9  8  1  0
 10  8  2  0
M  END
>  <NAME>  (3456) 
P-METHYLACETOPHENONE

>  <SYNONYMS>  (3456) 
4-METHYLACETOPHENONE

>  <SPECTRUM TYPE>  (3456) 
MS1

>  <INSTRUMENT TYPE>  (3456) 
EI-B

>  <INSTRUMENT>  (3456) 
HITACHI M-80B

>  <ION MODE>  (3456) 
P

>  <INCHIKEY>  (3456) 
GNKZMNRKLCTJAY-UHFFFAOYSA-N

>  <FORMULA>  (3456) 
C9H10O

>  <EXACT MASS>  (3456) 
134.07316494

>  <MW>  (3456) 
134

>  <ID>  (3456) 
JP007140

>  <CONTRIBUTOR>  (3456) 
University of Tokyo Team, {Faculty of Engineering, University of Tokyo

>  <COMMENT>  (3456) 
SMILES=Cc(c1)ccc(c1)C(C)=O
cas=122-00-9
InChI=InChI=1S/C9H10O/c1-7-3-5-9(6-4-7)8(2)10/h3-6H,1-2H3
computed SMILES=O=C(C1=CC=C(C=C1)C)C
accession=JP007140
date=2016.01.19 (Created 2008.10.21, modified 2011.05.06)
author=SODA AROMATIC CO., LTD.
license=CC BY-NC-SA
exact mass=134.07316
ionization energy=70 eV
ion type=[M]+*
computed spectral entropy=2.396104865907594
computed normalized entropy=0.7115813361480683
SPLASH=splash10-014l-9600000000-85f57b491dbb01accb9b
submitter=submitter = University of Tokyo Team (Faculty of Engineering, University of Tokyo)
MoNA Rating=3.75

>  <NUM PEAKS>  (3456) 
29

>  <MASS SPECTRAL PEAKS>  (3456) 
15 2.81
27 2.38
38 2.13
39 14.46
41 2.55
42 1.16
43 14.44
46 1.02
50 5.4
51 8.31
52 1.5
53 1.14
62 3.56
63 11.47
64 2.41
65 24.41
66 1.22
74 1.31
75 1.12
77 2.6
89 8.26
90 3.36
91 75.02
92 6.01
105 1.25
119 99.99
120 8.85
134 31.66
135 2.57

$$$$

     RDKit          2D

 10 10  0  0  0  0  0  0  0  0999 V2000
   -0.3325    2.8100    0.0000 C   0  0  0  0  0  0  0  0  0  0  0  0
    2.2687   -3.1902    0.0000 C   0  0  0  0  0  0  0  0  0  0  0  0
   -1.6200   -0.9400    0.0000 C   0  0  0  0  0  0  0  0  0  0  0  0
   -1.6200    0.5600    0.0000 C   0  0  0  0  0  0  0  0  0  0  0  0
   -0.3300   -1.6900    0.0000 C   0  0  0  0  0  0  0  0  0  0  0  0
    0.9700    0.5600    0.0000 C   0  0  0  0  0  0  0  0  0  0  0  0
   -0.3300    1.3100    0.0000 C   0  0  0  0  0  0  0  0  0  0  0  0
    2.2689   -1.6902    0.0000 C   0  0  0  0  0  0  0  0  0  0  0  0
    0.9700   -0.9400    0.0000 C   0  0  0  0  0  0  0  0  0  0  0  0
    3.5681   -0.9404    0.0000 O   0  0  0  0  0  0  0  0  0  0  0  0
  4  3  2  0
  5  3  1  0
  7  1  1  0
  7  4  1  0
  7  6  2  0
  8  2  1  0
  9  5  2  0
  9  6  1  0
  9  8  1  0
 10  8  2  0
M  END
>  <NAME>  (3457) 
M-METHYLACETOPHENONE

>  <SYNONYMS>  (3457) 
3-METHYLACETOPHENONE

>  <SPECTRUM TYPE>  (3457) 
MS1

>  <INSTRUMENT TYPE>  (3457) 
EI-B

>  <INSTRUMENT>  (3457) 
HITACHI M-80B

>  <ION MODE>  (3457) 
P

>  <INCHIKEY>  (3457) 
FSPSELPMWGWDRY-UHFFFAOYSA-N

>  <FORMULA>  (3457) 
C9H10O

>  <EXACT MASS>  (3457) 
134.07316494

>  <MW>  (3457) 
134

>  <ID>  (3457) 
JP007139

>  <CONTRIBUTOR>  (3457) 
University of Tokyo Team, {Faculty of Engineering, University of Tokyo

>  <COMMENT>  (3457) 
SMILES=CC(=O)c(c1)cc(C)cc1
cas=585-74-0
InChI=InChI=1S/C9H10O/c1-7-4-3-5-9(6-7)8(2)10/h3-6H,1-2H3
computed SMILES=O=C(C1=CC=CC(=C1)C)C
accession=JP007139
date=2016.01.19 (Created 2008.10.21, modified 2011.05.06)
author=SODA AROMATIC CO., LTD.
license=CC BY-NC-SA
exact mass=134.07316
ionization energy=70 eV
ion type=[M]+*
computed spectral entropy=2.3850602729164754
computed normalized entropy=0.7083013769319032
SPLASH=splash10-014l-9500000000-f84759bf57ca8e059fc2
submitter=submitter = University of Tokyo Team (Faculty of Engineering, University of Tokyo)
MoNA Rating=3.75

>  <NUM PEAKS>  (3457) 
29

>  <MASS SPECTRAL PEAKS>  (3457) 
15 2.69
27 2.13
38 2.3
39 16.58
41 2.69
42 1.31
43 18.52
46 1.17
50 4.72
51 8.46
52 1.52
59 1.02
61 1.1
62 3.57
63 13.17
64 2.68
65 25.32
66 1.17
74 1.41
75 1.12
77 2.48
89 8.84
90 3.36
91 89.49
92 7.43
119 99.99
120 8.59
134 37.1
135 3.03

$$$$

     RDKit          2D

 10 10  0  0  0  0  0  0  0  0999 V2000
    2.2806   -2.0598    0.0000 C   0  0  0  0  0  0  0  0  0  0  0  0
   -1.6200    0.1898    0.0000 C   0  0  0  0  0  0  0  0  0  0  0  0
    3.5681    1.6902    0.0000 C   0  0  0  0  0  0  0  0  0  0  0  0
    2.2781    2.4402    0.0000 C   0  0  0  0  0  0  0  0  0  0  0  0
    3.5681    0.1902    0.0000 C   0  0  0  0  0  0  0  0  0  0  0  0
    0.9781    1.6902    0.0000 C   0  0  0  0  0  0  0  0  0  0  0  0
    2.2781   -0.5598    0.0000 C   0  0  0  0  0  0  0  0  0  0  0  0
   -0.3208   -0.5600    0.0000 C   0  0  0  0  0  0  0  0  0  0  0  0
    0.9781    0.1902    0.0000 C   0  0  0  0  0  0  0  0  0  0  0  0
   -0.3206   -2.0600    0.0000 O   0  0  0  0  0  0  0  0  0  0  0  0
  4  3  2  0
  5  3  1  0
  6  4  1  0
  7  1  1  0
  7  5  2  0
  8  2  1  0
  9  6  2  0
  9  7  1  0
  9  8  1  0
 10  8  2  0
M  END
>  <NAME>  (3458) 
O-METHYLACETOPHENONE

>  <SYNONYMS>  (3458) 
2-METHYLACETOPHENONE

>  <SPECTRUM TYPE>  (3458) 
MS1

>  <INSTRUMENT TYPE>  (3458) 
EI-B

>  <INSTRUMENT>  (3458) 
HITACHI M-80B

>  <ION MODE>  (3458) 
P

>  <INCHIKEY>  (3458) 
YXWWHNCQZBVZPV-UHFFFAOYSA-N

>  <FORMULA>  (3458) 
C9H10O

>  <EXACT MASS>  (3458) 
134.07316494

>  <MW>  (3458) 
134

>  <ID>  (3458) 
JP007138

>  <CONTRIBUTOR>  (3458) 
University of Tokyo Team, {Faculty of Engineering, University of Tokyo

>  <COMMENT>  (3458) 
SMILES=CC(=O)c(c1)c(C)ccc1
cas=577-16-2
InChI=InChI=1S/C9H10O/c1-7-5-3-4-6-9(7)8(2)10/h3-6H,1-2H3
computed SMILES=O=C(C=1C=CC=CC1C)C
accession=JP007138
date=2016.01.19 (Created 2008.10.21, modified 2011.05.06)
author=SODA AROMATIC CO., LTD.
license=CC BY-NC-SA
exact mass=134.07316
ionization energy=70 eV
ion type=[M]+*
computed spectral entropy=2.4723289496202043
computed normalized entropy=0.7070852575486145
SPLASH=splash10-014l-9500000000-bee0213182674ae55581
submitter=submitter = University of Tokyo Team (Faculty of Engineering, University of Tokyo)
MoNA Rating=3.75

>  <NUM PEAKS>  (3458) 
33

>  <MASS SPECTRAL PEAKS>  (3458) 
15 3
27 2.6
38 2.35
39 19.01
41 2.6
42 1.19
43 20.75
46 1.58
50 5.96
51 10.25
52 1.81
53 1.09
61 1.29
62 3.74
63 14.07
64 2.91
65 27.66
66 2.1
74 1.62
75 1.4
77 3.99
78 1.03
79 1.13
89 9.4
90 3.45
91 99.28
92 7.76
103 1.19
115 1.31
119 99.99
120 8.51
134 47.25
135 3.73

$$$$

     RDKit          2D

  9  9  0  0  0  0  0  0  0  0999 V2000
   -2.9228    0.8825    0.0000 C   0  0  0  0  0  0  0  0  0  0  0  0
    2.2733   -0.6175    0.0000 C   0  0  0  0  0  0  0  0  0  0  0  0
    2.2738    0.8833    0.0000 C   0  0  0  0  0  0  0  0  0  0  0  0
    0.9738   -1.3683    0.0000 C   0  0  0  0  0  0  0  0  0  0  0  0
    0.9748    1.6333    0.0000 C   0  0  0  0  0  0  0  0  0  0  0  0
   -0.3252   -0.6183    0.0000 C   0  0  0  0  0  0  0  0  0  0  0  0
   -1.6238    1.6325    0.0000 C   0  0  0  0  0  0  0  0  0  0  0  0
   -0.3248    0.8825    0.0000 C   0  0  0  0  0  0  0  0  0  0  0  0
   -1.6238    3.1325    0.0000 O   0  0  0  0  0  0  0  0  0  0  0  0
  3  2  2  0
  4  2  1  0
  5  3  1  0
  6  4  2  0
  7  1  1  0
  8  5  2  0
  8  6  1  0
  8  7  1  0
  9  7  2  0
M  END
>  <NAME>  (3459) 
ACETOPHENONE

>  <SYNONYMS>  (3459) 


>  <SPECTRUM TYPE>  (3459) 
MS1

>  <INSTRUMENT TYPE>  (3459) 
EI-B

>  <INSTRUMENT>  (3459) 
HITACHI M-80B

>  <ION MODE>  (3459) 
P

>  <INCHIKEY>  (3459) 
KWOLFJPFCHCOCG-UHFFFAOYSA-N

>  <FORMULA>  (3459) 
C8H8O

>  <EXACT MASS>  (3459) 
120.057514876

>  <MW>  (3459) 
120

>  <ID>  (3459) 
JP007137

>  <CONTRIBUTOR>  (3459) 
University of Tokyo Team, {Faculty of Engineering, University of Tokyo

>  <COMMENT>  (3459) 
SMILES=CC(=O)c(c1)cccc1
cas=98-86-2
InChI=InChI=1S/C8H8O/c1-7(9)8-5-3-2-4-6-8/h2-6H,1H3
computed SMILES=O=C(C=1C=CC=CC1)C
accession=JP007137
date=2016.01.19 (Created 2008.10.21, modified 2011.05.06)
author=SODA AROMATIC CO., LTD.
license=CC BY-NC-SA
exact mass=120.05751
ionization energy=70 eV
ion type=[M]+*
computed spectral entropy=2.191961307632904
computed normalized entropy=0.6809710678176458
SPLASH=splash10-0a6r-9600000000-558d4c95783742599522
submitter=submitter = University of Tokyo Team (Faculty of Engineering, University of Tokyo)
MoNA Rating=3.75

>  <NUM PEAKS>  (3459) 
25

>  <MASS SPECTRAL PEAKS>  (3459) 
15 2.57
27 2.18
37 1.03
38 2.36
39 5.65
42 1.37
43 15.81
49 1.07
50 14.24
51 31.73
52 2.43
53 1.1
62 1.53
63 2.42
65 1.72
74 4.68
75 2.17
76 2.8
77 79.8
78 8.19
91 1.44
105 99.99
106 8
120 29.91
121 1.98

$$$$

     RDKit          2D

 16 17  0  0  1  0  0  0  0  0999 V2000
    3.8987    3.0002    0.0000 C   0  0  0  0  0  0  0  0  0  0  0  0
    5.1981    0.7504    0.0000 C   0  0  0  0  0  0  0  0  0  0  0  0
   -1.3000    3.0000    0.0000 C   0  0  0  0  0  0  0  0  0  0  0  0
    0.0000    2.2500    0.0000 C   0  0  0  0  0  0  0  0  0  0  0  0
    2.6000   -0.7500    0.0000 C   0  0  0  0  0  0  0  0  0  0  0  0
    1.3000   -1.5000    0.0000 C   0  0  0  0  0  0  0  0  0  0  0  0
   -2.6000    0.7500    0.0000 C   0  0  0  0  0  0  0  0  0  0  0  0
   -1.3000   -1.5000    0.0000 C   0  0  0  0  0  0  0  0  0  0  0  0
    1.3000    1.5000    0.0000 C   0  0  0  0  0  0  0  0  0  0  0  0
    3.8989    1.5002    0.0000 C   0  0  0  0  0  0  0  0  0  0  0  0
   -1.3000    1.5000    0.0000 C   0  0  0  0  0  0  0  0  0  0  0  0
    2.6000    0.7500    0.0000 C   0  0  0  0  0  0  0  0  0  0  0  0
    0.0000   -0.7500    0.0000 C   0  0  0  0  0  0  0  0  0  0  0  0
   -2.6000   -0.7500    0.0000 C   0  0  0  0  0  0  0  0  0  0  0  0
    0.0000    0.7500    0.0000 C   0  0  0  0  0  0  0  0  0  0  0  0
   -3.8989   -1.5002    0.0000 O   0  0  0  0  0  0  0  0  0  0  0  0
  6  5  1  0
 10  1  2  0
 10  2  1  0
 11  3  1  1
 11  7  1  0
 12  5  1  0
 12  9  1  0
 12 10  1  6
 13  6  1  0
 13  8  2  0
 14  7  1  0
 14  8  1  0
 15  4  1  1
 15  9  1  0
 15 11  1  0
 15 13  1  0
 16 14  2  0
M  END
>  <NAME>  (3460) 
NOOTKATONE

>  <SYNONYMS>  (3460) 


>  <SPECTRUM TYPE>  (3460) 
MS1

>  <INSTRUMENT TYPE>  (3460) 
EI-B

>  <INSTRUMENT>  (3460) 
HITACHI M-80B

>  <ION MODE>  (3460) 
P

>  <INCHIKEY>  (3460) 
WTOYNNBCKUYIKC-JMSVASOKSA-N

>  <FORMULA>  (3460) 
C15H22O

>  <EXACT MASS>  (3460) 
218.167065324

>  <MW>  (3460) 
218

>  <ID>  (3460) 
JP007136

>  <CONTRIBUTOR>  (3460) 
University of Tokyo Team, {Faculty of Engineering, University of Tokyo

>  <COMMENT>  (3460) 
SMILES=CC(=C)C(C2)CC(C)(C(C)1)C(C2)=CC(=O)C1
cas=4674-50-4
InChI=InChI=1S/C15H22O/c1-10(2)12-5-6-13-8-14(16)7-11(3)15(13,4)9-12/h8,11-12H,1,5-7,9H2,2-4H3/t11-,12-,15+/m1/s1
computed SMILES=O=C1C=C2CCC(C(=C)C)CC2(C)C(C)C1
accession=JP007136
date=2016.01.19 (Created 2008.10.21, modified 2011.05.06)
author=SODA AROMATIC CO., LTD.
license=CC BY-NC-SA
exact mass=218.16707
ionization energy=70 eV
ion type=[M]+*
computed spectral entropy=4.171003662248538
computed normalized entropy=0.9057219372563973
SPLASH=splash10-0006-8900000000-d37f29b95780c19e7388
submitter=submitter = University of Tokyo Team (Faculty of Engineering, University of Tokyo)
MoNA Rating=3.75

>  <NUM PEAKS>  (3460) 
100

>  <MASS SPECTRAL PEAKS>  (3460) 
15 2.04
27 25.22
28 7.41
29 25.99
39 58.77
40 14.23
41 99.99
42 11.39
43 17.31
50 2.35
51 17.16
52 12.62
53 42.7
54 6.75
55 40.06
56 2.17
57 2.24
60 2.16
63 5.38
64 2.92
65 27.59
66 11.8
67 36.84
68 12.01
69 28.42
71 2.68
73 2.16
74 3.27
77 53.11
78 15.28
79 74.73
80 45.13
81 24.45
82 11.6
83 5.76
89 2.38
91 79.17
92 14.25
93 55.49
94 12.14
95 29.28
96 6.32
97 5.27
103 8.04
104 5.49
105 48.89
106 17.63
107 42.28
108 64.27
109 17.75
110 4.3
115 10.04
116 4.5
117 10.71
118 4.79
119 37.31
120 31.39
121 76.11
122 14.5
123 7.39
128 5.22
129 4.03
131 7.98
132 6.75
133 57.18
134 27.8
135 27.27
136 16.78
137 10.32
143 3.99
145 7.68
146 51
147 79.91
148 31.07
149 16.92
150 11.32
157 13.17
158 2.92
159 4.61
160 4.42
161 54.01
162 28.43
163 5.99
171 3.04
172 16.66
173 2.92
174 2.37
175 47.88
176 36.99
177 6.82
185 9.73
189 10.1
190 43.34
191 6.75
200 30.86
201 6.09
203 37.68
204 6.01
218 26.16
219 5.51

$$$$

     RDKit          2D

 14 14  0  0  0  0  0  0  0  0999 V2000
    2.0789   -2.0602    0.0000 C   0  0  0  0  0  0  0  0  0  0  0  0
    5.9762    0.1908    0.0000 C   0  0  0  0  0  0  0  0  0  0  0  0
    0.4441    2.0892    0.0000 C   0  0  0  0  0  0  0  0  0  0  0  0
   -1.4841    2.0892    0.0000 C   0  0  0  0  0  0  0  0  0  0  0  0
   -1.8200   -1.3100    0.0000 C   0  0  0  0  0  0  0  0  0  0  0  0
   -0.5200   -2.0600    0.0000 C   0  0  0  0  0  0  0  0  0  0  0  0
    3.3781    0.1904    0.0000 C   0  0  0  0  0  0  0  0  0  0  0  0
    2.0789    0.9402    0.0000 C   0  0  0  0  0  0  0  0  0  0  0  0
   -1.8200    0.1900    0.0000 C   0  0  0  0  0  0  0  0  0  0  0  0
    0.7800   -1.3100    0.0000 C   0  0  0  0  0  0  0  0  0  0  0  0
    4.6770    0.9406    0.0000 C   0  0  0  0  0  0  0  0  0  0  0  0
    0.7800    0.1900    0.0000 C   0  0  0  0  0  0  0  0  0  0  0  0
   -0.5200    0.9400    0.0000 C   0  0  0  0  0  0  0  0  0  0  0  0
    4.6768    2.4406    0.0000 O   0  0  0  0  0  0  0  0  0  0  0  0
  6  5  1  0
  7  8  2  0
  9  5  1  0
 10  1  1  0
 10  6  1  0
 11  2  1  0
 11  7  1  0
 12  8  1  0
 12 10  2  0
 13  3  1  0
 13  4  1  0
 13  9  1  0
 13 12  1  0
 14 11  2  0
M  END
>  <NAME>  (3461) 
BETA-IONONE

>  <SYNONYMS>  (3461) 
4-(2,6,6-TRIMETHYL-1-CYCLOHEXEN-1-YL)-3-BUTEN-2-ONE

>  <SPECTRUM TYPE>  (3461) 
MS1

>  <INSTRUMENT TYPE>  (3461) 
EI-B

>  <INSTRUMENT>  (3461) 
HITACHI M-80B

>  <ION MODE>  (3461) 
P

>  <INCHIKEY>  (3461) 
PSQYTAPXSHCGMF-BQYQJAHWSA-N

>  <FORMULA>  (3461) 
C13H20O

>  <EXACT MASS>  (3461) 
192.15141526

>  <MW>  (3461) 
192

>  <ID>  (3461) 
JP007135

>  <CONTRIBUTOR>  (3461) 
University of Tokyo Team, {Faculty of Engineering, University of Tokyo

>  <COMMENT>  (3461) 
SMILES=CC(=O)C=CC(=C(C)1)C(C)(C)CCC1
InChI=InChI=1S/C13H20O/c1-10-6-5-9-13(3,4)12(10)8-7-11(2)14/h7-8H,5-6,9H2,1-4H3/b8-7+
computed SMILES=O=C(C=CC1=C(C)CCCC1(C)C)C
accession=JP007135
date=2016.01.19 (Created 2008.10.21, modified 2011.05.06)
author=SODA AROMATIC CO., LTD.
license=CC BY-NC-SA
exact mass=192.15142
ionization energy=70 eV
ion type=[M]+*
computed spectral entropy=3.198607334242227
computed normalized entropy=0.7911369711508492
SPLASH=splash10-004l-9800000000-3e2f914b8442dedd62d9
submitter=submitter = University of Tokyo Team (Faculty of Engineering, University of Tokyo)
MoNA Rating=3.75

>  <NUM PEAKS>  (3461) 
57

>  <MASS SPECTRAL PEAKS>  (3461) 
15 3.02
27 6.89
29 6.25
39 11.21
41 20.6
42 1.71
43 73.42
44 1.81
51 3.89
52 1.98
53 7.02
55 7.2
63 1.81
64 1
65 5.46
66 1.58
67 3.67
69 4.59
71 2.19
77 10.98
78 2.94
79 8.25
80 1.58
81 4.36
91 16.03
92 2.5
93 10.97
94 1.52
95 7.17
96 1.33
103 1.82
105 7.21
106 1.48
107 6.83
108 1.69
109 4.87
110 1.58
115 2.29
117 2.21
119 5.77
121 7.18
122 5.78
123 3.12
131 1.77
133 6.6
134 1.37
135 14.53
136 3.83
147 1.07
149 6.4
159 4.13
161 1.01
162 1.55
177 99.99
178 11.84
179 1.02
192 5.51

$$$$

     RDKit          2D

 11 12  0  0  0  0  0  0  0  0999 V2000
    1.1800    2.7300    0.0000 C   0  0  0  0  0  0  0  0  0  0  0  0
   -2.7200   -1.0200    0.0000 C   0  0  0  0  0  0  0  0  0  0  0  0
   -2.7200    0.4800    0.0000 C   0  0  0  0  0  0  0  0  0  0  0  0
    2.4800   -1.0200    0.0000 C   0  0  0  0  0  0  0  0  0  0  0  0
    2.4800    0.4800    0.0000 C   0  0  0  0  0  0  0  0  0  0  0  0
   -1.4200   -1.7700    0.0000 C   0  0  0  0  0  0  0  0  0  0  0  0
    1.1800   -1.7700    0.0000 C   0  0  0  0  0  0  0  0  0  0  0  0
   -1.4200    1.2300    0.0000 C   0  0  0  0  0  0  0  0  0  0  0  0
    1.1800    1.2300    0.0000 C   0  0  0  0  0  0  0  0  0  0  0  0
   -0.1200   -1.0200    0.0000 C   0  0  0  0  0  0  0  0  0  0  0  0
   -0.1200    0.4800    0.0000 C   0  0  0  0  0  0  0  0  0  0  0  0
  3  2  2  0
  5  4  1  0
  6  2  1  0
  7  4  2  0
  8  3  1  0
  9  1  1  0
  9  5  2  0
 10  6  2  0
 10  7  1  0
 11  8  2  0
 11  9  1  0
 11 10  1  0
M  END
>  <NAME>  (3462) 
1-METHYLNAPHTHALENE

>  <SYNONYMS>  (3462) 


>  <SPECTRUM TYPE>  (3462) 
MS1

>  <INSTRUMENT TYPE>  (3462) 
EI-B

>  <INSTRUMENT>  (3462) 
HITACHI M-80B

>  <ION MODE>  (3462) 
P

>  <INCHIKEY>  (3462) 
QPUYECUOLPXSFR-UHFFFAOYSA-N

>  <FORMULA>  (3462) 
C11H10

>  <EXACT MASS>  (3462) 
142.07825032

>  <MW>  (3462) 
142

>  <ID>  (3462) 
JP007134

>  <CONTRIBUTOR>  (3462) 
University of Tokyo Team, {Faculty of Engineering, University of Tokyo

>  <COMMENT>  (3462) 
SMILES=Cc(c1)c(c2)c(ccc2)cc1
cas=90-12-0
InChI=InChI=1S/C11H10/c1-9-5-4-7-10-6-2-3-8-11(9)10/h2-8H,1H3
computed SMILES=C=1C=CC2=C(C1)C=CC=C2C
accession=JP007134
date=2016.01.19 (Created 2008.10.21, modified 2011.05.06)
author=SODA AROMATIC CO., LTD.
license=CC BY-NC-SA
exact mass=142.07825
ionization energy=70 eV
ion type=[M]+*
computed spectral entropy=2.5905884931884726
computed normalized entropy=0.7174321199928417
SPLASH=splash10-0006-3900000000-466eebbbc710f9d74e3b
submitter=submitter = University of Tokyo Team (Faculty of Engineering, University of Tokyo)
MoNA Rating=3.75

>  <NUM PEAKS>  (3462) 
37

>  <MASS SPECTRAL PEAKS>  (3462) 
26 1.41
27 4.06
38 1.98
39 9.86
50 6.58
51 8.41
52 1.55
58 6.82
61 1.15
62 4.44
63 13.54
64 1.77
65 3.19
69 1.32
70 3.57
71 8.23
74 4.51
75 4.13
76 2.22
77 2.17
86 2.84
87 3.67
88 1.59
89 5.94
91 1.8
98 1.07
102 1.41
113 2.35
114 1.58
115 41.39
116 3.77
126 1.37
139 10.21
140 3.21
141 76.82
142 99.99
143 10.68

$$$$

     RDKit          2D

 10 10  0  0  0  0  0  0  0  0999 V2000
    2.0490    0.5210    0.0000 C   0  0  0  0  0  0  0  0  0  0  0  0
    2.5981    2.5700    0.0000 C   0  0  0  0  0  0  0  0  0  0  0  0
    0.5490    3.1190    0.0000 C   0  0  0  0  0  0  0  0  0  0  0  0
   -2.5981   -0.4300    0.0000 C   0  0  0  0  0  0  0  0  0  0  0  0
   -1.2986   -1.1808    0.0000 C   0  0  0  0  0  0  0  0  0  0  0  0
   -2.5986    1.0708    0.0000 C   0  0  0  0  0  0  0  0  0  0  0  0
    0.0005   -0.4308    0.0000 C   0  0  0  0  0  0  0  0  0  0  0  0
   -1.2995    1.8208    0.0000 C   0  0  0  0  0  0  0  0  0  0  0  0
    0.0000    1.0700    0.0000 C   0  0  0  0  0  0  0  0  0  0  0  0
    1.2990    1.8200    0.0000 C   0  0  0  0  0  0  0  0  0  0  0  0
  5  4  2  0
  6  4  1  0
  7  5  1  0
  8  6  2  0
  9  7  2  0
  9  8  1  0
 10  1  1  0
 10  2  1  0
 10  3  1  0
 10  9  1  0
M  END
>  <NAME>  (3463) 
TERT-BUTYLBENZENE

>  <SYNONYMS>  (3463) 


>  <SPECTRUM TYPE>  (3463) 
MS1

>  <INSTRUMENT TYPE>  (3463) 
EI-B

>  <INSTRUMENT>  (3463) 
HITACHI M-80B

>  <ION MODE>  (3463) 
P

>  <INCHIKEY>  (3463) 
YTZKOQUCBOVLHL-UHFFFAOYSA-N

>  <FORMULA>  (3463) 
C10H14

>  <EXACT MASS>  (3463) 
134.109550448

>  <MW>  (3463) 
134

>  <ID>  (3463) 
JP007133

>  <CONTRIBUTOR>  (3463) 
University of Tokyo Team, {Faculty of Engineering, University of Tokyo

>  <COMMENT>  (3463) 
SMILES=CC(C)(C)c(c1)cccc1
cas=98-06-6
InChI=InChI=1S/C10H14/c1-10(2,3)9-7-5-4-6-8-9/h4-8H,1-3H3
computed SMILES=C=1C=CC(=CC1)C(C)(C)C
accession=JP007133
date=2016.01.19 (Created 2008.10.21, modified 2011.05.06)
author=SODA AROMATIC CO., LTD.
license=CC BY-NC-SA
exact mass=134.10955
ionization energy=70 eV
ion type=[M]+*
computed spectral entropy=2.5034152029069903
computed normalized entropy=0.7099147082187471
SPLASH=splash10-014l-9800000000-a0bc8ad01060554d93d9
submitter=submitter = University of Tokyo Team (Faculty of Engineering, University of Tokyo)
MoNA Rating=3.75

>  <NUM PEAKS>  (3463) 
34

>  <MASS SPECTRAL PEAKS>  (3463) 
15 1.52
27 3.41
28 1.86
29 2.35
39 10.75
41 19.57
50 3.09
51 10.62
52 2.22
53 1.38
57 1.04
58 2.01
63 2.74
65 4.25
74 1.01
75 1.15
76 1.11
77 13.17
78 4.88
79 9.67
89 1.35
91 61.67
92 4.15
102 1.81
103 5.74
104 1.69
115 3.24
116 1.01
117 2.51
118 1.11
119 99.99
120 9.19
134 24.1
135 2.37

$$$$

     RDKit          2D

 10 10  0  0  0  0  0  0  0  0999 V2000
   -3.5724    2.0075    0.0000 C   0  0  0  0  0  0  0  0  0  0  0  0
   -0.9743    3.5075    0.0000 C   0  0  0  0  0  0  0  0  0  0  0  0
   -2.2733    1.2575    0.0000 C   0  0  0  0  0  0  0  0  0  0  0  0
    2.9228   -0.2425    0.0000 C   0  0  0  0  0  0  0  0  0  0  0  0
    2.9233    1.2583    0.0000 C   0  0  0  0  0  0  0  0  0  0  0  0
    1.6233   -0.9933    0.0000 C   0  0  0  0  0  0  0  0  0  0  0  0
    1.6243    2.0083    0.0000 C   0  0  0  0  0  0  0  0  0  0  0  0
    0.3243   -0.2433    0.0000 C   0  0  0  0  0  0  0  0  0  0  0  0
   -0.9743    2.0075    0.0000 C   0  0  0  0  0  0  0  0  0  0  0  0
    0.3248    1.2575    0.0000 C   0  0  0  0  0  0  0  0  0  0  0  0
  3  1  1  0
  5  4  2  0
  6  4  1  0
  7  5  1  0
  8  6  2  0
  9  2  1  0
  9  3  1  0
 10  7  2  0
 10  8  1  0
 10  9  1  0
M  END
>  <NAME>  (3464) 
SEC-BUTYLBENZENE

>  <SYNONYMS>  (3464) 


>  <SPECTRUM TYPE>  (3464) 
MS1

>  <INSTRUMENT TYPE>  (3464) 
EI-B

>  <INSTRUMENT>  (3464) 
HITACHI M-80B

>  <ION MODE>  (3464) 
P

>  <INCHIKEY>  (3464) 
ZJMWRROPUADPEA-UHFFFAOYSA-N

>  <FORMULA>  (3464) 
C10H14

>  <EXACT MASS>  (3464) 
134.109550448

>  <MW>  (3464) 
134

>  <ID>  (3464) 
JP007132

>  <CONTRIBUTOR>  (3464) 
University of Tokyo Team, {Faculty of Engineering, University of Tokyo

>  <COMMENT>  (3464) 
SMILES=CCC(C)c(c1)cccc1
cas=135-98-8
InChI=InChI=1S/C10H14/c1-3-9(2)10-7-5-4-6-8-10/h4-9H,3H2,1-2H3
computed SMILES=C=1C=CC(=CC1)C(C)CC
accession=JP007132
date=2016.01.19 (Created 2008.10.21, modified 2011.05.06)
author=SODA AROMATIC CO., LTD.
license=CC BY-NC-SA
exact mass=134.10955
ionization energy=70 eV
ion type=[M]+*
computed spectral entropy=2.211893694844768
computed normalized entropy=0.687163412069596
SPLASH=splash10-0a4i-4900000000-284d2852d16640633815
submitter=submitter = University of Tokyo Team (Faculty of Engineering, University of Tokyo)
MoNA Rating=3.75

>  <NUM PEAKS>  (3464) 
25

>  <MASS SPECTRAL PEAKS>  (3464) 
27 5.69
29 2.93
39 5.06
41 2.87
50 1.98
51 7.14
52 1.47
53 1.23
63 2.21
65 2.72
77 12.74
78 4.1
79 9.03
91 15.63
92 1.06
102 1.07
103 6.71
104 3.11
105 99.99
106 8.19
115 1.72
117 1.01
119 1.35
134 17.98
135 1.63

$$$$

     RDKit          2D

 10 10  0  0  0  0  0  0  0  0999 V2000
   -4.8712    2.0071    0.0000 C   0  0  0  0  0  0  0  0  0  0  0  0
   -3.5721    2.7571    0.0000 C   0  0  0  0  0  0  0  0  0  0  0  0
   -2.2731    2.0071    0.0000 C   0  0  0  0  0  0  0  0  0  0  0  0
    2.9231    0.5071    0.0000 C   0  0  0  0  0  0  0  0  0  0  0  0
    2.9236    2.0079    0.0000 C   0  0  0  0  0  0  0  0  0  0  0  0
    1.6236   -0.2437    0.0000 C   0  0  0  0  0  0  0  0  0  0  0  0
   -0.9740    2.7571    0.0000 C   0  0  0  0  0  0  0  0  0  0  0  0
    1.6245    2.7579    0.0000 C   0  0  0  0  0  0  0  0  0  0  0  0
    0.3245    0.5063    0.0000 C   0  0  0  0  0  0  0  0  0  0  0  0
    0.3250    2.0071    0.0000 C   0  0  0  0  0  0  0  0  0  0  0  0
  2  1  1  0
  3  2  1  0
  5  4  2  0
  6  4  1  0
  7  3  1  0
  8  5  1  0
  9  6  2  0
 10  7  1  0
 10  8  2  0
 10  9  1  0
M  END
>  <NAME>  (3465) 
BUTYLBENZENE

>  <SYNONYMS>  (3465) 


>  <SPECTRUM TYPE>  (3465) 
MS1

>  <INSTRUMENT TYPE>  (3465) 
EI-B

>  <INSTRUMENT>  (3465) 
HITACHI M-80B

>  <ION MODE>  (3465) 
P

>  <INCHIKEY>  (3465) 
OCKPCBLVNKHBMX-UHFFFAOYSA-N

>  <FORMULA>  (3465) 
C10H14

>  <EXACT MASS>  (3465) 
134.109550448

>  <MW>  (3465) 
134

>  <ID>  (3465) 
JP007131

>  <CONTRIBUTOR>  (3465) 
University of Tokyo Team, {Faculty of Engineering, University of Tokyo

>  <COMMENT>  (3465) 
SMILES=CCCCc(c1)cccc1
cas=104-51-8
InChI=InChI=1S/C10H14/c1-2-3-7-10-8-5-4-6-9-10/h4-6,8-9H,2-3,7H2,1H3
computed SMILES=C=1C=CC(=CC1)CCCC
accession=JP007131
date=2016.01.19 (Created 2008.10.21, modified 2011.05.06)
author=SODA AROMATIC CO., LTD.
license=CC BY-NC-SA
exact mass=134.10955
ionization energy=70 eV
ion type=[M]+*
computed spectral entropy=2.223182068757787
computed normalized entropy=0.6995419799149167
SPLASH=splash10-0006-9100000000-2abba1d0f83ffb43df97
submitter=submitter = University of Tokyo Team (Faculty of Engineering, University of Tokyo)
MoNA Rating=3.75

>  <NUM PEAKS>  (3465) 
24

>  <MASS SPECTRAL PEAKS>  (3465) 
27 7.35
29 2.56
39 8.31
41 4.48
43 1.73
50 1.93
51 6.92
52 1.43
63 3.27
65 12.25
77 7.4
78 7.07
79 2.8
89 1.82
90 1.06
91 99.99
92 55.71
93 4.08
103 2.51
104 1.95
105 8.79
115 1.33
134 25.21
135 2.34

$$$$

     RDKit          2D

  9  9  0  0  0  0  0  0  0  0999 V2000
   -0.0000   -1.5002    0.0000 C   0  0  0  0  0  0  0  0  0  0  0  0
   -2.5989    3.0000    0.0000 C   0  0  0  0  0  0  0  0  0  0  0  0
    2.5989    3.0000    0.0000 C   0  0  0  0  0  0  0  0  0  0  0  0
   -1.3000    0.7498    0.0000 C   0  0  0  0  0  0  0  0  0  0  0  0
    1.3000    0.7498    0.0000 C   0  0  0  0  0  0  0  0  0  0  0  0
   -0.0000    2.9998    0.0000 C   0  0  0  0  0  0  0  0  0  0  0  0
   -0.0000   -0.0002    0.0000 C   0  0  0  0  0  0  0  0  0  0  0  0
   -1.3000    2.2498    0.0000 C   0  0  0  0  0  0  0  0  0  0  0  0
    1.3000    2.2498    0.0000 C   0  0  0  0  0  0  0  0  0  0  0  0
  7  1  1  0
  7  4  2  0
  7  5  1  0
  8  2  1  0
  8  4  1  0
  8  6  2  0
  9  3  1  0
  9  5  2  0
  9  6  1  0
M  END
>  <NAME>  (3466) 
1,3,5-TRIMETHYLBENZENE

>  <SYNONYMS>  (3466) 
MESITYLENE

>  <SPECTRUM TYPE>  (3466) 
MS1

>  <INSTRUMENT TYPE>  (3466) 
EI-B

>  <INSTRUMENT>  (3466) 
HITACHI M-80B

>  <ION MODE>  (3466) 
P

>  <INCHIKEY>  (3466) 
AUHZEENZYGFFBQ-UHFFFAOYSA-N

>  <FORMULA>  (3466) 
C9H12

>  <EXACT MASS>  (3466) 
120.093900384

>  <MW>  (3466) 
120

>  <ID>  (3466) 
JP007130

>  <CONTRIBUTOR>  (3466) 
University of Tokyo Team, {Faculty of Engineering, University of Tokyo

>  <COMMENT>  (3466) 
SMILES=Cc(c1)cc(C)cc(C)1
cas=108-67-8
InChI=InChI=1S/C9H12/c1-7-4-8(2)6-9(3)5-7/h4-6H,1-3H3
computed SMILES=C=1C(=CC(=CC1C)C)C
accession=JP007130
date=2016.01.19 (Created 2008.10.21, modified 2011.05.06)
author=SODA AROMATIC CO., LTD.
license=CC BY-NC-SA
exact mass=120.0939
ionization energy=70 eV
ion type=[M]+*
computed spectral entropy=2.4781662853109063
computed normalized entropy=0.7087547336152568
SPLASH=splash10-0ab9-4900000000-5c2bc7e7be9e0d07f7c2
submitter=submitter = University of Tokyo Team (Faculty of Engineering, University of Tokyo)
MoNA Rating=3.75

>  <NUM PEAKS>  (3466) 
33

>  <MASS SPECTRAL PEAKS>  (3466) 
15 1.05
27 4.92
38 1.31
39 10.44
40 1.01
41 3.5
50 2.97
51 7.72
52 2.51
53 3.26
58 1.39
59 1.86
62 1.29
63 3.89
65 4.44
74 1.23
75 1.06
77 13.84
78 4.3
79 5.89
89 1.25
91 11.3
92 1.82
102 1.19
103 5.77
104 2.97
105 99.99
106 9.3
115 2.98
117 2.28
119 15.03
120 62.07
121 5.3

$$$$

     RDKit          2D

  9  9  0  0  0  0  0  0  0  0999 V2000
    3.5728   -1.3131    0.0000 C   0  0  0  0  0  0  0  0  0  0  0  0
   -1.6239   -1.3125    0.0000 C   0  0  0  0  0  0  0  0  0  0  0  0
    0.9744   -2.8133    0.0000 C   0  0  0  0  0  0  0  0  0  0  0  0
    0.9737    1.6883    0.0000 C   0  0  0  0  0  0  0  0  0  0  0  0
    2.2732    0.9375    0.0000 C   0  0  0  0  0  0  0  0  0  0  0  0
   -0.3254    0.9383    0.0000 C   0  0  0  0  0  0  0  0  0  0  0  0
    2.2737   -0.5633    0.0000 C   0  0  0  0  0  0  0  0  0  0  0  0
   -0.3249   -0.5625    0.0000 C   0  0  0  0  0  0  0  0  0  0  0  0
    0.9746   -1.3133    0.0000 C   0  0  0  0  0  0  0  0  0  0  0  0
  5  4  2  0
  6  4  1  0
  7  1  1  0
  7  5  1  0
  8  2  1  0
  8  6  2  0
  9  3  1  0
  9  7  2  0
  9  8  1  0
M  END
>  <NAME>  (3467) 
1,2,3-TRIMETHYLBENZENE

>  <SYNONYMS>  (3467) 


>  <SPECTRUM TYPE>  (3467) 
MS1

>  <INSTRUMENT TYPE>  (3467) 
EI-B

>  <INSTRUMENT>  (3467) 
HITACHI M-80B

>  <ION MODE>  (3467) 
P

>  <INCHIKEY>  (3467) 
FYGHSUNMUKGBRK-UHFFFAOYSA-N

>  <FORMULA>  (3467) 
C9H12

>  <EXACT MASS>  (3467) 
120.093900384

>  <MW>  (3467) 
120

>  <ID>  (3467) 
JP007129

>  <CONTRIBUTOR>  (3467) 
University of Tokyo Team, {Faculty of Engineering, University of Tokyo

>  <COMMENT>  (3467) 
SMILES=Cc(c1)c(C)c(C)cc1
cas=526-73-8
InChI=InChI=1S/C9H12/c1-7-5-4-6-8(2)9(7)3/h4-6H,1-3H3
computed SMILES=C=1C=C(C(=C(C1)C)C)C
accession=JP007129
date=2016.01.19 (Created 2008.10.21, modified 2011.05.06)
author=SODA AROMATIC CO., LTD.
license=CC BY-NC-SA
exact mass=120.0939
ionization energy=70 eV
ion type=[M]+*
computed spectral entropy=2.465092012767107
computed normalized entropy=0.7112752044308198
SPLASH=splash10-0a4i-4900000000-82bebdcf0868386b88db
submitter=submitter = University of Tokyo Team (Faculty of Engineering, University of Tokyo)
MoNA Rating=3.75

>  <NUM PEAKS>  (3467) 
32

>  <MASS SPECTRAL PEAKS>  (3467) 
15 1.27
27 5.1
38 1.26
39 10.22
40 1.15
41 3.55
50 2.85
51 6.92
52 2.28
53 3.25
58 1.38
59 1.5
62 1.36
63 4.15
65 4.6
74 1.04
77 12.53
78 4.46
79 6.43
89 1.26
91 9.24
92 1.58
102 1.43
103 5.39
104 2.56
105 99.99
106 7.27
115 2.87
117 2.41
119 10.62
120 48.09
121 4.18

$$$$

     RDKit          2D

  9  9  0  0  0  0  0  0  0  0999 V2000
   -3.5724    2.0075    0.0000 C   0  0  0  0  0  0  0  0  0  0  0  0
   -2.2733    1.2575    0.0000 C   0  0  0  0  0  0  0  0  0  0  0  0
    2.9228   -0.2425    0.0000 C   0  0  0  0  0  0  0  0  0  0  0  0
    2.9233    1.2583    0.0000 C   0  0  0  0  0  0  0  0  0  0  0  0
    1.6233   -0.9933    0.0000 C   0  0  0  0  0  0  0  0  0  0  0  0
   -0.9743    2.0075    0.0000 C   0  0  0  0  0  0  0  0  0  0  0  0
    1.6243    2.0083    0.0000 C   0  0  0  0  0  0  0  0  0  0  0  0
    0.3243   -0.2433    0.0000 C   0  0  0  0  0  0  0  0  0  0  0  0
    0.3248    1.2575    0.0000 C   0  0  0  0  0  0  0  0  0  0  0  0
  2  1  1  0
  4  3  2  0
  5  3  1  0
  6  2  1  0
  7  4  1  0
  8  5  2  0
  9  6  1  0
  9  7  2  0
  9  8  1  0
M  END
>  <NAME>  (3468) 
PROPYLBENZENE

>  <SYNONYMS>  (3468) 


>  <SPECTRUM TYPE>  (3468) 
MS1

>  <INSTRUMENT TYPE>  (3468) 
EI-B

>  <INSTRUMENT>  (3468) 
HITACHI M-80B

>  <ION MODE>  (3468) 
P

>  <INCHIKEY>  (3468) 
ODLMAHJVESYWTB-UHFFFAOYSA-N

>  <FORMULA>  (3468) 
C9H12

>  <EXACT MASS>  (3468) 
120.093900384

>  <MW>  (3468) 
120

>  <ID>  (3468) 
JP007128

>  <CONTRIBUTOR>  (3468) 
University of Tokyo Team, {Faculty of Engineering, University of Tokyo

>  <COMMENT>  (3468) 
SMILES=CCCc(c1)cccc1
cas=103-65-1
InChI=InChI=1S/C9H12/c1-2-6-9-7-4-3-5-8-9/h3-5,7-8H,2,6H2,1H3
computed SMILES=C=1C=CC(=CC1)CCC
accession=JP007128
date=2016.01.19 (Created 2008.10.21, modified 2011.05.06)
author=SODA AROMATIC CO., LTD.
license=CC BY-NC-SA
exact mass=120.0939
ionization energy=70 eV
ion type=[M]+*
computed spectral entropy=1.8633512684233995
computed normalized entropy=0.6328374544718557
SPLASH=splash10-0006-9100000000-d08eb3639b3ae1a56d8b
submitter=submitter = University of Tokyo Team (Faculty of Engineering, University of Tokyo)
MoNA Rating=3.75

>  <NUM PEAKS>  (3468) 
19

>  <MASS SPECTRAL PEAKS>  (3468) 
27 3.05
29 1.25
39 7.08
41 2.22
50 2.02
51 5.83
52 1.32
63 3.3
65 10.91
77 4.02
78 6.49
79 1.22
89 2.1
91 99.99
92 10.39
103 1.02
105 2.83
120 21.5
121 1.82

$$$$

     RDKit          2D

  9  9  0  0  0  0  0  0  0  0999 V2000
   -2.9228    0.8825    0.0000 C   0  0  0  0  0  0  0  0  0  0  0  0
   -1.6238    3.1325    0.0000 C   0  0  0  0  0  0  0  0  0  0  0  0
    2.2733   -0.6175    0.0000 C   0  0  0  0  0  0  0  0  0  0  0  0
    2.2738    0.8833    0.0000 C   0  0  0  0  0  0  0  0  0  0  0  0
    0.9738   -1.3683    0.0000 C   0  0  0  0  0  0  0  0  0  0  0  0
    0.9748    1.6333    0.0000 C   0  0  0  0  0  0  0  0  0  0  0  0
   -0.3252   -0.6183    0.0000 C   0  0  0  0  0  0  0  0  0  0  0  0
   -1.6238    1.6325    0.0000 C   0  0  0  0  0  0  0  0  0  0  0  0
   -0.3248    0.8825    0.0000 C   0  0  0  0  0  0  0  0  0  0  0  0
  4  3  2  0
  5  3  1  0
  6  4  1  0
  7  5  2  0
  8  1  1  0
  8  2  1  0
  9  6  2  0
  9  7  1  0
  9  8  1  0
M  END
>  <NAME>  (3469) 
ISOPROPYLBENZENE

>  <SYNONYMS>  (3469) 
CUMENE

>  <SPECTRUM TYPE>  (3469) 
MS1

>  <INSTRUMENT TYPE>  (3469) 
EI-B

>  <INSTRUMENT>  (3469) 
HITACHI M-80B

>  <ION MODE>  (3469) 
P

>  <INCHIKEY>  (3469) 
RWGFKTVRMDUZSP-UHFFFAOYSA-N

>  <FORMULA>  (3469) 
C9H12

>  <EXACT MASS>  (3469) 
120.093900384

>  <MW>  (3469) 
120

>  <ID>  (3469) 
JP007127

>  <CONTRIBUTOR>  (3469) 
University of Tokyo Team, {Faculty of Engineering, University of Tokyo

>  <COMMENT>  (3469) 
SMILES=CC(C)c(c1)cccc1
cas=98-82-8
InChI=InChI=1S/C9H12/c1-8(2)9-6-4-3-5-7-9/h3-8H,1-2H3
computed SMILES=C=1C=CC(=CC1)C(C)C
accession=JP007127
date=2016.01.19 (Created 2008.10.21, modified 2011.05.06)
author=SODA AROMATIC CO., LTD.
license=CC BY-NC-SA
exact mass=120.0939
ionization energy=70 eV
ion type=[M]+*
computed spectral entropy=2.2709578696544415
computed normalized entropy=0.7055127296646889
SPLASH=splash10-0a4i-5900000000-b19bd34b1ebead05ac65
submitter=submitter = University of Tokyo Team (Faculty of Engineering, University of Tokyo)
MoNA Rating=3.75

>  <NUM PEAKS>  (3469) 
25

>  <MASS SPECTRAL PEAKS>  (3469) 
15 1.29
27 4.77
39 8.36
41 3.37
50 3.91
51 12.2
52 2.51
53 1.39
62 1.1
63 2.96
65 2.49
74 1.3
75 1.17
76 1.2
77 14.9
78 7.19
79 12.17
91 6.2
102 1.11
103 7.79
104 2.2
105 99.99
106 8.27
120 23.95
121 1.88

$$$$

     RDKit          2D

 15 17  0  0  1  0  0  0  0  0999 V2000
   -1.2048    0.5599    0.0000 C   0  0  0  0  0  0  0  0  0  0  0  0
    0.5698    2.6589    0.0000 C   0  0  0  0  0  0  0  0  0  0  0  0
   -1.2515    3.0711    0.0000 C   0  0  0  0  0  0  0  0  0  0  0  0
   -0.2698   -3.1132    0.0000 C   0  0  0  0  0  0  0  0  0  0  0  0
   -2.7100    0.0400    0.0000 C   0  0  0  0  0  0  0  0  0  0  0  0
    2.8800    0.0400    0.0000 C   0  0  0  0  0  0  0  0  0  0  0  0
    2.0000   -1.1800    0.0000 C   0  0  0  0  0  0  0  0  0  0  0  0
   -2.0600    1.3900    0.0000 C   0  0  0  0  0  0  0  0  0  0  0  0
   -2.0600   -1.3100    0.0000 C   0  0  0  0  0  0  0  0  0  0  0  0
   -0.0200   -0.3600    0.0000 C   0  0  0  0  0  0  0  0  0  0  0  0
    2.0000    1.2500    0.0000 C   0  0  0  0  0  0  0  0  0  0  0  0
    0.5800   -0.7100    0.0000 C   0  0  0  0  0  0  0  0  0  0  0  0
    0.5800    0.7900    0.0000 C   0  0  0  0  0  0  0  0  0  0  0  0
   -0.6000    1.7200    0.0000 C   0  0  0  0  0  0  0  0  0  0  0  0
   -0.6000   -1.6500    0.0000 C   0  0  0  0  0  0  0  0  0  0  0  0
  7  6  1  0
  8  5  1  0
  9  5  1  0
 10  1  2  0
 11  6  1  0
 11 10  1  0
 12  7  1  0
 13 11  1  0
 13 12  1  0
 14  2  1  0
 14  3  1  0
 14  8  1  0
 13 14  1  1
 15  4  1  1
 15  9  1  0
 15 10  1  0
 15 12  1  0
M  END
>  <NAME>  (3470) 
LONGIFOLENE

>  <SYNONYMS>  (3470) 
DECAHYDRO-4,8,8-TRIMETHYL-9-METHYLENE-1,4-METHANOAZULENE

>  <SPECTRUM TYPE>  (3470) 
MS1

>  <INSTRUMENT TYPE>  (3470) 
EI-B

>  <INSTRUMENT>  (3470) 
HITACHI M-80B

>  <ION MODE>  (3470) 
P

>  <INCHIKEY>  (3470) 
PDSNLYSELAIEBU-NSOJWWLLSA-N

>  <FORMULA>  (3470) 
C15H24

>  <EXACT MASS>  (3470) 
204.187800768

>  <MW>  (3470) 
204

>  <ID>  (3470) 
JP007126

>  <CONTRIBUTOR>  (3470) 
University of Tokyo Team, {Faculty of Engineering, University of Tokyo

>  <COMMENT>  (3470) 
SMILES=CC(C)(C2)C(C31)C(CC3)C(C)(CC2)C(=C)1
cas=475-20-7
InChI=InChI=1S/C15H24/c1-10-11-6-7-12-13(11)14(2,3)8-5-9-15(10,12)4/h11-13H,1,5-9H2,2-4H3/t11?,12?,13-,15+/m0/s1
computed SMILES=C=C1C2CCC3C2C(C)(C)CCCC13C
accession=JP007126
date=2016.01.19 (Created 2008.10.21, modified 2011.05.06)
author=SODA AROMATIC CO., LTD.
license=CC BY-NC-SA
exact mass=204.1878
ionization energy=70 eV
ion type=[M]+*
computed spectral entropy=3.909956511828038
computed normalized entropy=0.8755120812933264
SPLASH=splash10-052f-9700000000-e353fe7ae8dde0511983
submitter=submitter = University of Tokyo Team (Faculty of Engineering, University of Tokyo)
MoNA Rating=3.75

>  <NUM PEAKS>  (3470) 
87

>  <MASS SPECTRAL PEAKS>  (3470) 
15 1.71
27 20.57
28 4.3
29 30.43
39 40.45
40 4.76
41 99.99
42 6.64
43 15.78
50 1.82
51 9.8
52 4.83
53 24.23
54 3.8
55 55.39
56 7.72
57 5.72
63 3.36
64 2.05
65 19.4
66 6.48
67 40.45
68 4.06
69 23.53
70 2.36
71 1.65
77 41.82
78 10.28
79 60.95
80 10.21
81 35.55
82 13.71
83 8.19
89 1.63
91 94.02
92 23.04
93 68.14
94 77.46
95 56.66
96 7.4
97 2.66
103 6.67
104 4.36
105 74.22
106 25.15
107 68.4
108 42.12
109 45.31
110 5.53
111 3.41
115 8.49
116 3.33
117 10.91
118 3.2
119 49.97
120 20.92
121 34.53
122 16.38
123 7.98
128 3.4
129 3.42
130 1.84
131 6.5
132 2.56
133 45.36
134 18.69
135 44.04
136 10.77
137 7.64
138 1.93
145 4.07
146 1.52
147 24.2
148 12.61
149 5.57
150 2.47
159 1.31
161 91.08
162 14.98
163 7.28
175 12.78
176 6.53
177 1.13
189 48.04
190 6.03
204 37.51
205 5.28

$$$$

     RDKit          2D

 15 17  0  0  0  0  0  0  0  0999 V2000
    3.8500    0.1922    0.0000 C   0  0  0  0  0  0  0  0  0  0  0  0
   -2.8253    2.8260    0.0000 C   0  0  0  0  0  0  0  0  0  0  0  0
   -0.9357   -2.4316    0.0000 C   0  0  0  0  0  0  0  0  0  0  0  0
    0.8873   -2.8531    0.0000 C   0  0  0  0  0  0  0  0  0  0  0  0
   -3.2400    0.1900    0.0000 C   0  0  0  0  0  0  0  0  0  0  0  0
   -2.3600   -1.0300    0.0000 C   0  0  0  0  0  0  0  0  0  0  0  0
    1.7000    1.5400    0.0000 C   0  0  0  0  0  0  0  0  0  0  0  0
    0.2400    1.8700    0.0000 C   0  0  0  0  0  0  0  0  0  0  0  0
    0.7700    0.3700    0.0000 C   0  0  0  0  0  0  0  0  0  0  0  0
    2.3500    0.1900    0.0000 C   0  0  0  0  0  0  0  0  0  0  0  0
   -2.3600    1.4000    0.0000 C   0  0  0  0  0  0  0  0  0  0  0  0
    1.7000   -1.1700    0.0000 C   0  0  0  0  0  0  0  0  0  0  0  0
   -0.9300   -0.5600    0.0000 C   0  0  0  0  0  0  0  0  0  0  0  0
    0.2400   -1.5000    0.0000 C   0  0  0  0  0  0  0  0  0  0  0  0
   -0.9300    0.9400    0.0000 C   0  0  0  0  0  0  0  0  0  0  0  0
  6  5  1  0
  8  7  1  0
 10  1  1  0
 10  7  2  0
 11  2  1  0
 11  5  1  0
 12  9  1  0
 12 10  1  0
 13  6  1  0
 14  3  1  0
 14  4  1  0
 14 12  1  0
 14 13  1  0
 15  8  1  0
 15  9  1  0
 15 11  1  0
 15 13  1  0
M  END
>  <NAME>  (3471) 
ALPHA-CEDRENE

>  <SYNONYMS>  (3471) 


>  <SPECTRUM TYPE>  (3471) 
MS1

>  <INSTRUMENT TYPE>  (3471) 
EI-B

>  <INSTRUMENT>  (3471) 
HITACHI M-80B

>  <ION MODE>  (3471) 
P

>  <INCHIKEY>  (3471) 
IRAQOCYXUMOFCW-UHFFFAOYSA-N

>  <FORMULA>  (3471) 
C15H24

>  <EXACT MASS>  (3471) 
204.187800768

>  <MW>  (3471) 
204

>  <ID>  (3471) 
JP007125

>  <CONTRIBUTOR>  (3471) 
University of Tokyo Team, {Faculty of Engineering, University of Tokyo

>  <COMMENT>  (3471) 
SMILES=CC(=C3)C(C1)C(C)(C)C(C2)C(C3)(C(C)C2)1
cas=469-61-4
InChI=InChI=1S/C15H24/c1-10-7-8-15-9-12(10)14(3,4)13(15)6-5-11(15)2/h7,11-13H,5-6,8-9H2,1-4H3
computed SMILES=C1=C(C)C2CC3(C1)C(C)CCC3C2(C)C
accession=JP007125
date=2016.01.19 (Created 2008.10.21, modified 2011.05.06)
author=SODA AROMATIC CO., LTD.
license=CC BY-NC-SA
exact mass=204.1878
ionization energy=70 eV
ion type=[M]+*
computed spectral entropy=3.4392077290840186
computed normalized entropy=0.8434521513037857
SPLASH=splash10-014l-9800000000-ad1af0c9dd1f9349ef88
submitter=submitter = University of Tokyo Team (Faculty of Engineering, University of Tokyo)
MoNA Rating=3.75

>  <NUM PEAKS>  (3471) 
59

>  <MASS SPECTRAL PEAKS>  (3471) 
27 5.46
29 5.55
39 7.78
41 26.47
42 3.13
43 5.31
51 2.07
53 7.64
55 14.72
56 11.02
57 3.57
65 4.65
66 1.11
67 5.97
68 2.41
69 18.39
70 5
77 15.08
78 3.25
79 10.17
80 2.56
81 7.91
82 2.26
83 1.26
84 1.09
91 20.02
92 14.06
93 45
94 6.93
95 3.7
103 1.63
105 29.69
106 4.45
107 5.9
108 3.92
109 4.93
115 1.81
117 2.93
118 1.69
119 99.99
120 14.64
121 13.79
122 3.65
123 1.86
128 1.09
131 1.57
133 4.97
134 3.58
135 2.74
136 7.42
146 1.11
147 9.09
148 4.67
149 1.07
161 17.41
162 3.45
189 3.62
204 20.4
205 3.64

$$$$

     RDKit          2D

 15 16  0  0  1  0  0  0  0  0999 V2000
   -0.3702    3.9989    0.0000 C   0  0  0  0  0  0  0  0  0  0  0  0
    0.7585   -1.3488    0.0000 C   0  0  0  0  0  0  0  0  0  0  0  0
   -4.6790    0.6491    0.0000 C   0  0  0  0  0  0  0  0  0  0  0  0
   -5.2283   -1.3998    0.0000 C   0  0  0  0  0  0  0  0  0  0  0  0
    2.6300    1.4000    0.0000 C   0  0  0  0  0  0  0  0  0  0  0  0
    1.8800    2.7000    0.0000 C   0  0  0  0  0  0  0  0  0  0  0  0
    1.8800    0.1000    0.0000 C   0  0  0  0  0  0  0  0  0  0  0  0
   -0.3700    1.4000    0.0000 C   0  0  0  0  0  0  0  0  0  0  0  0
   -1.8800    1.4000    0.0000 C   0  0  0  0  0  0  0  0  0  0  0  0
   -3.1796   -1.9492    0.0000 C   0  0  0  0  0  0  0  0  0  0  0  0
    0.3800    2.7000    0.0000 C   0  0  0  0  0  0  0  0  0  0  0  0
    0.3700    0.1000    0.0000 C   0  0  0  0  0  0  0  0  0  0  0  0
   -1.8800   -1.2000    0.0000 C   0  0  0  0  0  0  0  0  0  0  0  0
   -2.6300    0.1000    0.0000 C   0  0  0  0  0  0  0  0  0  0  0  0
   -3.9291   -0.6500    0.0000 C   0  0  0  0  0  0  0  0  0  0  0  0
  6  5  1  0
  7  5  1  0
  9  8  1  0
 11  1  1  0
  6 11  2  0
 11  8  1  0
 12  2  2  0
 12  7  1  0
 13 10  1  1
 13 12  1  0
 14  9  1  6
 14 13  1  0
 15  3  1  0
 15  4  1  0
 15 10  1  0
 15 14  1  0
M  END
>  <NAME>  (3472) 
CARYOPHYLLENE

>  <SYNONYMS>  (3472) 
4,11,11-TRIMETHYL-8-METHYLENEBICYCLO(7.2.0)UNDEC-4-ENE

>  <SPECTRUM TYPE>  (3472) 
MS1

>  <INSTRUMENT TYPE>  (3472) 
EI-B

>  <INSTRUMENT>  (3472) 
HITACHI M-80B

>  <ION MODE>  (3472) 
P

>  <INCHIKEY>  (3472) 
NPNUFJAVOOONJE-FLFDDASRSA-N

>  <FORMULA>  (3472) 
C15H24

>  <EXACT MASS>  (3472) 
204.187800768

>  <MW>  (3472) 
204

>  <ID>  (3472) 
JP007124

>  <CONTRIBUTOR>  (3472) 
University of Tokyo Team, {Faculty of Engineering, University of Tokyo

>  <COMMENT>  (3472) 
SMILES=[H]C(C2)=C(C)CCC([H])(C(C)(C)1)C([H])(C(=C)C2)C1
InChI=InChI=1S/C15H24/c1-11-6-5-7-12(2)13-10-15(3,4)14(13)9-8-11/h6,13-14H,2,5,7-10H2,1,3-4H3/b11-6-/t13-,14-/m1/s1
computed SMILES=C=C1CCC=C(C)CCC2C1CC2(C)C
accession=JP007124
date=2016.01.19 (Created 2008.10.21, modified 2011.05.06)
author=SODA AROMATIC CO., LTD.
license=CC BY-NC-SA
exact mass=204.1878
ionization energy=70 eV
ion type=[M]+*
computed spectral entropy=3.71254712826421
computed normalized entropy=0.868093749885335
SPLASH=splash10-0006-9400000000-17580c580b9bac158421
submitter=submitter = University of Tokyo Team (Faculty of Engineering, University of Tokyo)
MoNA Rating=3.75

>  <NUM PEAKS>  (3472) 
72

>  <MASS SPECTRAL PEAKS>  (3472) 
27 21.54
29 18.01
39 34.51
40 7.34
41 99.99
42 4.65
43 10.09
50 1.14
51 6.04
52 5.35
53 31.14
54 3.54
55 35.4
56 7.04
57 5.38
63 1.81
65 14.68
66 4.77
67 34.46
68 7.9
69 76
70 3.86
71 2.23
77 33.32
78 7.58
79 57.17
80 15.34
81 34.03
82 7.88
83 2.66
91 56.57
92 19.01
93 79
94 17.12
95 16.54
96 1.85
103 2.55
104 1.81
105 37.53
106 24.28
107 33.09
108 6.9
109 15.56
110 1.97
111 2.33
115 2.5
116 1.15
117 3.49
118 1.11
119 24.45
120 30.45
121 20.59
122 4.94
123 4
131 1.83
133 58.25
134 16.4
135 10.14
136 4.2
137 1.51
147 19.59
148 20.98
149 4.59
161 19.37
162 4.65
163 1.81
175 5.3
176 3.47
189 12.12
190 1.35
204 7.43
205 1.14

$$$$

     RDKit          2D

 10 10  0  0  1  0  0  0  0  0999 V2000
    3.8981    0.7504    0.0000 C   0  0  0  0  0  0  0  0  0  0  0  0
    2.5987    3.0002    0.0000 C   0  0  0  0  0  0  0  0  0  0  0  0
   -2.5989   -1.5002    0.0000 C   0  0  0  0  0  0  0  0  0  0  0  0
   -1.3000    0.7500    0.0000 C   0  0  0  0  0  0  0  0  0  0  0  0
   -0.0000   -1.5000    0.0000 C   0  0  0  0  0  0  0  0  0  0  0  0
    0.0000    1.5000    0.0000 C   0  0  0  0  0  0  0  0  0  0  0  0
    1.3000   -0.7500    0.0000 C   0  0  0  0  0  0  0  0  0  0  0  0
    2.5989    1.5002    0.0000 C   0  0  0  0  0  0  0  0  0  0  0  0
   -1.3000   -0.7500    0.0000 C   0  0  0  0  0  0  0  0  0  0  0  0
    1.3000    0.7500    0.0000 C   0  0  0  0  0  0  0  0  0  0  0  0
  6  4  1  0
  7  5  1  0
  8  1  1  0
  8  2  1  0
  9  3  1  1
  9  4  1  0
  9  5  1  0
 10  6  1  0
 10  7  1  0
 10  8  1  1
M  END
>  <NAME>  (3473) 
CIS-P-MENTHANE

>  <SYNONYMS>  (3473) 


>  <SPECTRUM TYPE>  (3473) 
MS1

>  <INSTRUMENT TYPE>  (3473) 
EI-B

>  <INSTRUMENT>  (3473) 
HITACHI M-80B

>  <ION MODE>  (3473) 
P

>  <INCHIKEY>  (3473) 
CFJYNSNXFXLKNS-AOOOYVTPSA-N

>  <FORMULA>  (3473) 
C10H20

>  <EXACT MASS>  (3473) 
140.15650064

>  <MW>  (3473) 
140

>  <ID>  (3473) 
JP007123

>  <CONTRIBUTOR>  (3473) 
University of Tokyo Team, {Faculty of Engineering, University of Tokyo

>  <COMMENT>  (3473) 
SMILES=CC(C)C([H])(C1)CCC([H])(C)C1
cas=6069-98-3
InChI=InChI=1S/C10H20/c1-8(2)10-6-4-9(3)5-7-10/h8-10H,4-7H2,1-3H3/t9-,10+
computed SMILES=CC(C)C1CCC(C)CC1
accession=JP007123
date=2016.01.19 (Created 2008.10.21, modified 2011.05.06)
author=SODA AROMATIC CO., LTD.
license=CC BY-NC-SA
exact mass=140.1565
ionization energy=70 eV
ion type=[M]+*
computed spectral entropy=2.5416240918320168
computed normalized entropy=0.7547967924880025
SPLASH=splash10-052b-9000000000-4a51127fe497beb23a3a
submitter=submitter = University of Tokyo Team (Faculty of Engineering, University of Tokyo)
MoNA Rating=3.75

>  <NUM PEAKS>  (3473) 
29

>  <MASS SPECTRAL PEAKS>  (3473) 
27 11.1
29 8.31
39 13.17
40 2.04
41 31.69
42 3.98
43 17.82
51 1.09
53 5.5
54 5.67
55 99.99
56 6.99
57 2.64
65 1.21
67 6.61
68 3.8
69 17.72
70 1.98
77 1.55
79 1.59
81 23.29
82 2.16
83 4.73
95 1.46
96 55.31
97 87.85
98 6.48
140 10.96
141 1.14

$$$$

     RDKit          2D

 10 10  0  0  1  0  0  0  0  0999 V2000
    3.8981    0.7504    0.0000 C   0  0  0  0  0  0  0  0  0  0  0  0
    2.5987    3.0002    0.0000 C   0  0  0  0  0  0  0  0  0  0  0  0
   -2.5989   -1.5002    0.0000 C   0  0  0  0  0  0  0  0  0  0  0  0
   -1.3000    0.7500    0.0000 C   0  0  0  0  0  0  0  0  0  0  0  0
   -0.0000   -1.5000    0.0000 C   0  0  0  0  0  0  0  0  0  0  0  0
    0.0000    1.5000    0.0000 C   0  0  0  0  0  0  0  0  0  0  0  0
    1.3000   -0.7500    0.0000 C   0  0  0  0  0  0  0  0  0  0  0  0
    2.5989    1.5002    0.0000 C   0  0  0  0  0  0  0  0  0  0  0  0
   -1.3000   -0.7500    0.0000 C   0  0  0  0  0  0  0  0  0  0  0  0
    1.3000    0.7500    0.0000 C   0  0  0  0  0  0  0  0  0  0  0  0
  6  4  1  0
  7  5  1  0
  8  1  1  0
  8  2  1  0
  9  3  1  1
  9  4  1  0
  9  5  1  0
 10  6  1  0
 10  7  1  0
 10  8  1  6
M  END
>  <NAME>  (3474) 
TRANS-P-MENTHANE

>  <SYNONYMS>  (3474) 


>  <SPECTRUM TYPE>  (3474) 
MS1

>  <INSTRUMENT TYPE>  (3474) 
EI-B

>  <INSTRUMENT>  (3474) 
HITACHI M-80B

>  <ION MODE>  (3474) 
P

>  <INCHIKEY>  (3474) 
CFJYNSNXFXLKNS-MGCOHNPYSA-N

>  <FORMULA>  (3474) 
C10H20

>  <EXACT MASS>  (3474) 
140.15650064

>  <MW>  (3474) 
140

>  <ID>  (3474) 
JP007122

>  <CONTRIBUTOR>  (3474) 
University of Tokyo Team, {Faculty of Engineering, University of Tokyo

>  <COMMENT>  (3474) 
SMILES=CC(C1)CCC(C1)C(C)C
cas=1678-82-6
InChI=InChI=1S/C10H20/c1-8(2)10-6-4-9(3)5-7-10/h8-10H,4-7H2,1-3H3/t9-,10-
computed SMILES=CC(C)C1CCC(C)CC1
accession=JP007122
date=2016.01.19 (Created 2008.10.21, modified 2011.05.06)
author=SODA AROMATIC CO., LTD.
license=CC BY-NC-SA
exact mass=140.1565
ionization energy=70 eV
ion type=[M]+*
computed spectral entropy=2.571894943684826
computed normalized entropy=0.7637864546326947
SPLASH=splash10-052b-9000000000-74497333e90139ca9b36
submitter=submitter = University of Tokyo Team (Faculty of Engineering, University of Tokyo)
MoNA Rating=3.75

>  <NUM PEAKS>  (3474) 
29

>  <MASS SPECTRAL PEAKS>  (3474) 
27 11.48
29 10.28
39 12.33
40 1.76
41 29.95
42 4.91
43 13.65
51 1.08
53 6.41
54 6.23
55 99.99
56 8.4
57 3.39
65 1.08
67 7.71
68 4.38
69 17.87
70 1.98
77 1.36
79 1.42
81 20.47
82 1.9
83 6.9
95 1.21
96 52.29
97 91.15
98 8.04
140 14.16
141 1.35

$$$$

     RDKit          2D

 10 10  0  0  0  0  0  0  0  0999 V2000
    3.8981    0.7504    0.0000 C   0  0  0  0  0  0  0  0  0  0  0  0
    2.5987    3.0002    0.0000 C   0  0  0  0  0  0  0  0  0  0  0  0
   -2.5989   -1.5002    0.0000 C   0  0  0  0  0  0  0  0  0  0  0  0
   -1.3000    0.7500    0.0000 C   0  0  0  0  0  0  0  0  0  0  0  0
   -0.0000   -1.5000    0.0000 C   0  0  0  0  0  0  0  0  0  0  0  0
    0.0000    1.5000    0.0000 C   0  0  0  0  0  0  0  0  0  0  0  0
    1.3000   -0.7500    0.0000 C   0  0  0  0  0  0  0  0  0  0  0  0
    2.5989    1.5002    0.0000 C   0  0  0  0  0  0  0  0  0  0  0  0
   -1.3000   -0.7500    0.0000 C   0  0  0  0  0  0  0  0  0  0  0  0
    1.3000    0.7500    0.0000 C   0  0  0  0  0  0  0  0  0  0  0  0
  6  4  1  0
  7  5  1  0
  8  1  1  0
  8  2  1  0
  9  3  1  0
  9  4  2  0
  9  5  1  0
 10  6  1  0
 10  7  1  0
 10  8  2  0
M  END
>  <NAME>  (3475) 
TERPINOLENE

>  <SYNONYMS>  (3475) 


>  <SPECTRUM TYPE>  (3475) 
MS1

>  <INSTRUMENT TYPE>  (3475) 
EI-B

>  <INSTRUMENT>  (3475) 
HITACHI M-80B

>  <ION MODE>  (3475) 
P

>  <INCHIKEY>  (3475) 
MOYAFQVGZZPNRA-UHFFFAOYSA-N

>  <FORMULA>  (3475) 
C10H16

>  <EXACT MASS>  (3475) 
136.125200512

>  <MW>  (3475) 
136

>  <ID>  (3475) 
JP007121

>  <CONTRIBUTOR>  (3475) 
University of Tokyo Team, {Faculty of Engineering, University of Tokyo

>  <COMMENT>  (3475) 
SMILES=CC(C1)=CCC(C1)=C(C)C
cas=586-62-9
InChI=InChI=1S/C10H16/c1-8(2)10-6-4-9(3)5-7-10/h4H,5-7H2,1-3H3
computed SMILES=C1=C(C)CCC(=C(C)C)C1
accession=JP007121
date=2016.01.19 (Created 2008.10.21, modified 2011.05.06)
author=SODA AROMATIC CO., LTD.
license=CC BY-NC-SA
exact mass=136.1252
ionization energy=70 eV
ion type=[M]+*
computed spectral entropy=3.1786327082480104
computed normalized entropy=0.808436844653654
SPLASH=splash10-009f-9400000000-68d00c428f3eca0ec8a8
submitter=submitter = University of Tokyo Team (Faculty of Engineering, University of Tokyo)
MoNA Rating=3.75

>  <NUM PEAKS>  (3475) 
51

>  <MASS SPECTRAL PEAKS>  (3475) 
15 2.03
26 1.09
27 22.56
28 1.85
29 13.91
38 1.7
39 35.27
40 5.17
41 35.88
42 2.62
43 20.44
50 2.98
51 12.62
52 4.43
53 20.97
54 1.86
55 11.37
58 1.5
62 1.16
63 4.37
64 1.42
65 12.05
66 2.86
67 13.89
68 3.3
77 37.1
78 7.97
79 42.23
80 7.31
81 4.01
89 1.58
91 43.78
92 11.19
93 99.99
94 9.18
95 1.28
103 3.2
104 1.2
105 21.28
106 4.87
107 18.47
108 4.29
115 1.88
117 1.39
119 4.24
120 1.69
121 98.76
122 9.01
135 1.25
136 72.56
137 7.57

$$$$

     RDKit          2D

 10 10  0  0  0  0  0  0  0  0999 V2000
    3.8981    0.7504    0.0000 C   0  0  0  0  0  0  0  0  0  0  0  0
    2.5987    3.0002    0.0000 C   0  0  0  0  0  0  0  0  0  0  0  0
   -2.5989   -1.5002    0.0000 C   0  0  0  0  0  0  0  0  0  0  0  0
   -1.3000    0.7500    0.0000 C   0  0  0  0  0  0  0  0  0  0  0  0
   -0.0000   -1.5000    0.0000 C   0  0  0  0  0  0  0  0  0  0  0  0
    0.0000    1.5000    0.0000 C   0  0  0  0  0  0  0  0  0  0  0  0
    1.3000   -0.7500    0.0000 C   0  0  0  0  0  0  0  0  0  0  0  0
    2.5989    1.5002    0.0000 C   0  0  0  0  0  0  0  0  0  0  0  0
   -1.3000   -0.7500    0.0000 C   0  0  0  0  0  0  0  0  0  0  0  0
    1.3000    0.7500    0.0000 C   0  0  0  0  0  0  0  0  0  0  0  0
  6  4  1  0
  7  5  1  0
  8  1  1  0
  8  2  1  0
  9  3  1  0
  9  4  2  0
  9  5  1  0
 10  6  1  0
 10  7  2  0
 10  8  1  0
M  END
>  <NAME>  (3476) 
GAMMA-TERPINENE

>  <SYNONYMS>  (3476) 
1-ISOPROPYL-4-METHYL-1,4-CYCLOHEXADIENE

>  <SPECTRUM TYPE>  (3476) 
MS1

>  <INSTRUMENT TYPE>  (3476) 
EI-B

>  <INSTRUMENT>  (3476) 
HITACHI M-80B

>  <ION MODE>  (3476) 
P

>  <INCHIKEY>  (3476) 
YKFLAYDHMOASIY-UHFFFAOYSA-N

>  <FORMULA>  (3476) 
C10H16

>  <EXACT MASS>  (3476) 
136.125200512

>  <MW>  (3476) 
136

>  <ID>  (3476) 
JP007120

>  <CONTRIBUTOR>  (3476) 
University of Tokyo Team, {Faculty of Engineering, University of Tokyo

>  <COMMENT>  (3476) 
SMILES=CC(C)C(C1)=C([H])CC(C)=C([H])1
cas=99-85-4
InChI=InChI=1S/C10H16/c1-8(2)10-6-4-9(3)5-7-10/h4,7-8H,5-6H2,1-3H3
computed SMILES=C1=C(C)CC=C(C1)C(C)C
accession=JP007120
date=2016.01.19 (Created 2008.10.21, modified 2011.05.06)
author=SODA AROMATIC CO., LTD.
license=CC BY-NC-SA
exact mass=136.1252
ionization energy=70 eV
ion type=[M]+*
computed spectral entropy=2.9093689997414063
computed normalized entropy=0.7998075844780114
SPLASH=splash10-0006-9200000000-b05d52aa0731550051f6
submitter=submitter = University of Tokyo Team (Faculty of Engineering, University of Tokyo)
MoNA Rating=3.75

>  <NUM PEAKS>  (3476) 
38

>  <MASS SPECTRAL PEAKS>  (3476) 
15 1.23
27 12.02
29 4.03
39 14.02
40 1.46
41 15.47
43 19.48
50 1.48
51 7.28
52 2.33
53 6.95
55 2.68
63 2.67
65 7.42
66 1.18
67 2.28
77 30.65
78 6.05
79 19.05
80 7.56
81 1.45
89 1.26
91 35.42
92 20.74
93 99.99
94 8.67
103 1.9
104 1.12
105 9.47
106 1.88
107 7.11
115 1.24
117 1
119 2.51
121 28.27
122 2.38
136 33.14
137 2.89

$$$$

     RDKit          2D

 10 10  0  0  0  0  0  0  0  0999 V2000
    3.8981    0.7504    0.0000 C   0  0  0  0  0  0  0  0  0  0  0  0
    2.5987    3.0002    0.0000 C   0  0  0  0  0  0  0  0  0  0  0  0
   -2.5989   -1.5002    0.0000 C   0  0  0  0  0  0  0  0  0  0  0  0
   -1.3000    0.7500    0.0000 C   0  0  0  0  0  0  0  0  0  0  0  0
   -0.0000   -1.5000    0.0000 C   0  0  0  0  0  0  0  0  0  0  0  0
    0.0000    1.5000    0.0000 C   0  0  0  0  0  0  0  0  0  0  0  0
    1.3000   -0.7500    0.0000 C   0  0  0  0  0  0  0  0  0  0  0  0
    2.5989    1.5002    0.0000 C   0  0  0  0  0  0  0  0  0  0  0  0
   -1.3000   -0.7500    0.0000 C   0  0  0  0  0  0  0  0  0  0  0  0
    1.3000    0.7500    0.0000 C   0  0  0  0  0  0  0  0  0  0  0  0
  6  4  1  0
  7  5  1  0
  8  1  1  0
  8  2  1  0
  9  3  1  0
  9  4  2  0
  9  5  1  0
 10  6  2  0
 10  7  1  0
 10  8  1  0
M  END
>  <NAME>  (3477) 
ALPHA-TERPINENE

>  <SYNONYMS>  (3477) 
1-ISOPROPYL-4-METHYL-1,3-CYCLOHEXADIENE

>  <SPECTRUM TYPE>  (3477) 
MS1

>  <INSTRUMENT TYPE>  (3477) 
EI-B

>  <INSTRUMENT>  (3477) 
HITACHI M-80B

>  <ION MODE>  (3477) 
P

>  <INCHIKEY>  (3477) 
YHQGMYUVUMAZJR-UHFFFAOYSA-N

>  <FORMULA>  (3477) 
C10H16

>  <EXACT MASS>  (3477) 
136.125200512

>  <MW>  (3477) 
136

>  <ID>  (3477) 
JP007119

>  <CONTRIBUTOR>  (3477) 
University of Tokyo Team, {Faculty of Engineering, University of Tokyo

>  <COMMENT>  (3477) 
SMILES=CC(C)C(C1)=C([H])C([H])=C(C)C1
cas=99-86-5
InChI=InChI=1S/C10H16/c1-8(2)10-6-4-9(3)5-7-10/h4,6,8H,5,7H2,1-3H3
computed SMILES=C=1C=C(CCC1C)C(C)C
accession=JP007119
date=2016.01.19 (Created 2008.10.21, modified 2011.05.06)
author=SODA AROMATIC CO., LTD.
license=CC BY-NC-SA
exact mass=136.1252
ionization energy=70 eV
ion type=[M]+*
computed spectral entropy=2.9865516955284375
computed normalized entropy=0.7990411139923321
SPLASH=splash10-006x-9500000000-e60fb974334faa2cf625
submitter=submitter = University of Tokyo Team (Faculty of Engineering, University of Tokyo)
MoNA Rating=3.75

>  <NUM PEAKS>  (3477) 
42

>  <MASS SPECTRAL PEAKS>  (3477) 
15 1.71
27 13.55
29 7.19
39 17.47
40 1.84
41 18.24
43 14.19
50 2.13
51 8.62
52 2.96
53 8.9
55 5.89
62 1.02
63 3.37
64 1.06
65 9.54
66 1.55
67 3.08
77 32.25
78 7.49
79 26.55
80 6.34
81 2.42
89 1.45
91 37.08
92 11.42
93 85.39
94 8.26
103 3.08
104 1.3
105 17.25
106 3.55
107 11.84
108 3.76
115 1.58
117 1.17
119 3.39
120 1.34
121 99.99
122 9.63
136 48.53
137 5.29

$$$$

     RDKit          2D

 10 11  0  0  0  0  0  0  0  0999 V2000
   -0.4775    2.9800    0.0000 C   0  0  0  0  0  0  0  0  0  0  0  0
    1.3259   -2.1785    0.0000 C   0  0  0  0  0  0  0  0  0  0  0  0
    2.2869   -0.5080    0.0000 C   0  0  0  0  0  0  0  0  0  0  0  0
   -1.7800    0.7300    0.0000 C   0  0  0  0  0  0  0  0  0  0  0  0
   -1.7800   -0.7700    0.0000 C   0  0  0  0  0  0  0  0  0  0  0  0
   -0.4800   -0.0200    0.0000 C   0  0  0  0  0  0  0  0  0  0  0  0
   -0.4800    1.4800    0.0000 C   0  0  0  0  0  0  0  0  0  0  0  0
   -0.4800   -1.5200    0.0000 C   0  0  0  0  0  0  0  0  0  0  0  0
    0.8100    0.7300    0.0000 C   0  0  0  0  0  0  0  0  0  0  0  0
    0.8100   -0.7700    0.0000 C   0  0  0  0  0  0  0  0  0  0  0  0
  5  4  1  0
  7  1  2  0
  7  4  1  0
  8  5  1  0
  8  6  1  0
  9  6  1  0
  9  7  1  0
 10  2  1  0
 10  3  1  0
 10  8  1  0
 10  9  1  0
M  END
>  <NAME>  (3478) 
BETA-PINENE

>  <SYNONYMS>  (3478) 
6,6-DIMETHYL-2-METHYLENEBICYCLO(3.1.1)HEPTANE

>  <SPECTRUM TYPE>  (3478) 
MS1

>  <INSTRUMENT TYPE>  (3478) 
EI-B

>  <INSTRUMENT>  (3478) 
HITACHI M-80B

>  <ION MODE>  (3478) 
P

>  <INCHIKEY>  (3478) 
WTARULDDTDQWMU-UHFFFAOYSA-N

>  <FORMULA>  (3478) 
C10H16

>  <EXACT MASS>  (3478) 
136.125200512

>  <MW>  (3478) 
136

>  <ID>  (3478) 
JP007118

>  <CONTRIBUTOR>  (3478) 
University of Tokyo Team, {Faculty of Engineering, University of Tokyo

>  <COMMENT>  (3478) 
SMILES=C=C(C2)C(C1)C(C)(C)C(C2)1
cas=18172-67-3
InChI=InChI=1S/C10H16/c1-7-4-5-8-6-9(7)10(8,2)3/h8-9H,1,4-6H2,2-3H3
computed SMILES=C=C1CCC2CC1C2(C)C
accession=JP007118
date=2016.01.19 (Created 2008.10.21, modified 2011.05.06)
author=SODA AROMATIC CO., LTD.
license=CC BY-NC-SA
exact mass=136.1252
ionization energy=70 eV
ion type=[M]+*
computed spectral entropy=2.90714075751574
computed normalized entropy=0.8112530748248886
SPLASH=splash10-0006-9000000000-a27a5e806c4c8566e6a9
submitter=submitter = University of Tokyo Team (Faculty of Engineering, University of Tokyo)
MoNA Rating=3.75

>  <NUM PEAKS>  (3478) 
36

>  <MASS SPECTRAL PEAKS>  (3478) 
27 13.98
29 6
39 21.58
40 3.77
41 45.36
42 2.02
43 4.32
50 1.44
51 5.6
52 3.06
53 11.23
54 1.28
55 6.57
63 1.51
65 5.79
66 1.97
67 9.96
68 2.8
69 35.75
70 1.51
77 20.24
78 4.11
79 21.9
80 10.66
81 3.04
82 1.19
91 17.74
92 9.44
93 99.99
94 13.25
95 2.51
105 2.6
107 4.46
108 1.27
121 10.84
136 9.35

$$$$

     RDKit          2D

 10 11  0  0  0  0  0  0  0  0999 V2000
   -0.4775    2.9800    0.0000 C   0  0  0  0  0  0  0  0  0  0  0  0
    1.3259   -2.1785    0.0000 C   0  0  0  0  0  0  0  0  0  0  0  0
    2.2869   -0.5080    0.0000 C   0  0  0  0  0  0  0  0  0  0  0  0
   -1.7800    0.7300    0.0000 C   0  0  0  0  0  0  0  0  0  0  0  0
   -1.7800   -0.7700    0.0000 C   0  0  0  0  0  0  0  0  0  0  0  0
   -0.4800   -0.0200    0.0000 C   0  0  0  0  0  0  0  0  0  0  0  0
   -0.4800    1.4800    0.0000 C   0  0  0  0  0  0  0  0  0  0  0  0
   -0.4800   -1.5200    0.0000 C   0  0  0  0  0  0  0  0  0  0  0  0
    0.8100    0.7300    0.0000 C   0  0  0  0  0  0  0  0  0  0  0  0
    0.8100   -0.7700    0.0000 C   0  0  0  0  0  0  0  0  0  0  0  0
  5  4  1  0
  7  1  1  0
  7  4  2  0
  8  5  1  0
  8  6  1  0
  9  6  1  0
  9  7  1  0
 10  2  1  0
 10  3  1  0
 10  8  1  0
 10  9  1  0
M  END
>  <NAME>  (3479) 
ALPHA-PINENE

>  <SYNONYMS>  (3479) 
2,6,6-TRIMETHYLBICYCLO(3.1.1)HEPT-2-ENE

>  <SPECTRUM TYPE>  (3479) 
MS1

>  <INSTRUMENT TYPE>  (3479) 
EI-B

>  <INSTRUMENT>  (3479) 
HITACHI M-80B

>  <ION MODE>  (3479) 
P

>  <INCHIKEY>  (3479) 
GRWFGVWFFZKLTI-UHFFFAOYSA-N

>  <FORMULA>  (3479) 
C10H16

>  <EXACT MASS>  (3479) 
136.125200512

>  <MW>  (3479) 
136

>  <ID>  (3479) 
JP007117

>  <CONTRIBUTOR>  (3479) 
University of Tokyo Team, {Faculty of Engineering, University of Tokyo

>  <COMMENT>  (3479) 
SMILES=CC(=C2)C(C1)C(C)(C)C(C2)1
cas=80-56-8
InChI=InChI=1S/C10H16/c1-7-4-5-8-6-9(7)10(8,2)3/h4,8-9H,5-6H2,1-3H3
computed SMILES=C1=C(C)C2CC(C1)C2(C)C
accession=JP007117
date=2016.01.19 (Created 2008.10.21, modified 2011.05.06)
author=SODA AROMATIC CO., LTD.
license=CC BY-NC-SA
exact mass=136.1252
ionization energy=70 eV
ion type=[M]+*
computed spectral entropy=2.8703358480944945
computed normalized entropy=0.7890770753071035
SPLASH=splash10-0006-9100000000-1005b74eeee7aefc15d2
submitter=submitter = University of Tokyo Team (Faculty of Engineering, University of Tokyo)
MoNA Rating=3.75

>  <NUM PEAKS>  (3479) 
38

>  <MASS SPECTRAL PEAKS>  (3479) 
27 7.54
29 3.48
39 12.38
40 1.19
41 11.25
42 1.67
43 4.69
50 1.45
51 4.3
52 2.19
53 6.99
55 5.02
63 1.78
65 5.24
66 2.06
67 6.2
68 2.99
69 1.09
77 25.02
78 4.73
79 20.1
80 7.87
81 3.14
91 28.46
92 32.94
93 99.99
94 8.64
95 1.91
103 1.65
105 8.73
106 2.49
107 5.75
108 1.38
119 1.81
121 13.71
122 1.24
136 8.9
137 1.27

$$$$

     RDKit          2D

 10 10  0  0  0  0  0  0  0  0999 V2000
    3.8981    0.7504    0.0000 C   0  0  0  0  0  0  0  0  0  0  0  0
    2.5987    3.0002    0.0000 C   0  0  0  0  0  0  0  0  0  0  0  0
   -2.5989   -1.5002    0.0000 C   0  0  0  0  0  0  0  0  0  0  0  0
   -1.3000    0.7500    0.0000 C   0  0  0  0  0  0  0  0  0  0  0  0
   -0.0000   -1.5000    0.0000 C   0  0  0  0  0  0  0  0  0  0  0  0
    0.0000    1.5000    0.0000 C   0  0  0  0  0  0  0  0  0  0  0  0
    1.3000   -0.7500    0.0000 C   0  0  0  0  0  0  0  0  0  0  0  0
    2.5989    1.5002    0.0000 C   0  0  0  0  0  0  0  0  0  0  0  0
   -1.3000   -0.7500    0.0000 C   0  0  0  0  0  0  0  0  0  0  0  0
    1.3000    0.7500    0.0000 C   0  0  0  0  0  0  0  0  0  0  0  0
  6  4  2  0
  7  5  1  0
  8  1  1  0
  8  2  1  0
  9  3  1  0
  9  4  1  0
  9  5  2  0
 10  6  1  0
 10  7  1  0
 10  8  1  0
M  END
>  <NAME>  (3480) 
ALPHA-PHELLANDRENE

>  <SYNONYMS>  (3480) 
2-METHYL-5-(1-METHYLETHYL)-1,3-CYCLOHEXADIENE

>  <SPECTRUM TYPE>  (3480) 
MS1

>  <INSTRUMENT TYPE>  (3480) 
EI-B

>  <INSTRUMENT>  (3480) 
HITACHI M-80B

>  <ION MODE>  (3480) 
P

>  <INCHIKEY>  (3480) 
OGLDWXZKYODSOB-UHFFFAOYSA-N

>  <FORMULA>  (3480) 
C10H16

>  <EXACT MASS>  (3480) 
136.125200512

>  <MW>  (3480) 
136

>  <ID>  (3480) 
JP007116

>  <CONTRIBUTOR>  (3480) 
University of Tokyo Team, {Faculty of Engineering, University of Tokyo

>  <COMMENT>  (3480) 
SMILES=CC(C)C(C1)C=CC(C)=C1
cas=99-83-2
InChI=InChI=1S/C10H16/c1-8(2)10-6-4-9(3)5-7-10/h4-6,8,10H,7H2,1-3H3
computed SMILES=C1=CC(CC=C1C)C(C)C
accession=JP007116
date=2016.01.19 (Created 2008.10.21, modified 2011.05.06)
author=SODA AROMATIC CO., LTD.
license=CC BY-NC-SA
exact mass=136.1252
ionization energy=70 eV
ion type=[M]+*
computed spectral entropy=2.345475784724679
computed normalized entropy=0.7286630216065313
SPLASH=splash10-0006-9000000000-d9c4d62513c800749790
submitter=submitter = University of Tokyo Team (Faculty of Engineering, University of Tokyo)
MoNA Rating=3.75

>  <NUM PEAKS>  (3480) 
25

>  <MASS SPECTRAL PEAKS>  (3480) 
27 7.88
28 1.14
29 1.73
39 9.84
41 9.22
43 3.82
50 1.24
51 4.03
52 1.76
53 2.94
55 1.09
63 2.02
65 6.21
77 33.21
78 5.42
79 4.3
80 1.57
91 37.85
92 28.21
93 99.99
94 8.6
105 1.96
121 1.48
136 17.89
137 1.62

$$$$

     RDKit          2D

  6  5  0  0  0  0  0  0  0  0999 V2000
    1.2990    2.2500    0.0000 C   0  0  0  0  0  0  0  0  0  0  0  0
   -1.2990    0.7500    0.0000 C   0  0  0  0  0  0  0  0  0  0  0  0
    0.0000    3.0000    0.0000 C   0  0  0  0  0  0  0  0  0  0  0  0
   -2.5981    3.0000    0.0000 C   0  0  0  0  0  0  0  0  0  0  0  0
   -1.2990    2.2500    0.0000 C   0  0  0  0  0  0  0  0  0  0  0  0
   -3.8971    2.2500    0.0000 O   0  0  0  0  0  0  0  0  0  0  0  0
  3  1  1  0
  5  2  1  0
  5  3  1  0
  5  4  1  0
  6  4  1  0
M  END
>  <NAME>  (3481) 
2-METHYLBUTANOL

>  <SYNONYMS>  (3481) 
2-METHYL-1-BUTANOL

>  <SPECTRUM TYPE>  (3481) 
MS1

>  <INSTRUMENT TYPE>  (3481) 
EI-B

>  <INSTRUMENT>  (3481) 
HITACHI M-80B

>  <ION MODE>  (3481) 
P

>  <INCHIKEY>  (3481) 
QPRQEDXDYOZYLA-UHFFFAOYSA-N

>  <FORMULA>  (3481) 
C5H12O

>  <EXACT MASS>  (3481) 
88.088815004

>  <MW>  (3481) 
88

>  <ID>  (3481) 
JP007115

>  <CONTRIBUTOR>  (3481) 
University of Tokyo Team, {Faculty of Engineering, University of Tokyo

>  <COMMENT>  (3481) 
SMILES=CCC(C)CO
cas=137-32-6
InChI=InChI=1S/C5H12O/c1-3-5(2)4-6/h5-6H,3-4H2,1-2H3
computed SMILES=OCC(C)CC
accession=JP007115
date=2016.01.19 (Created 2008.10.21, modified 2011.05.06)
author=SODA AROMATIC CO., LTD.
license=CC BY-NC-SA
exact mass=88.08882
ionization energy=70 eV
ion type=[M]+*
computed spectral entropy=2.462047390657117
computed normalized entropy=0.7648780271783014
SPLASH=splash10-0a4i-9000000000-69d3eb6fa5d3cbace4d2
submitter=submitter = University of Tokyo Team (Faculty of Engineering, University of Tokyo)
MoNA Rating=3.75

>  <NUM PEAKS>  (3481) 
25

>  <MASS SPECTRAL PEAKS>  (3481) 
15 2.88
26 4.01
27 31.09
28 7.21
29 74.93
30 2.33
31 45.93
33 1.21
38 2.03
39 25.12
40 3.51
41 93.23
43 14.51
45 6.88
50 1.35
51 1.68
53 2.95
55 28.31
56 91.97
57 99.99
58 5.5
59 3.88
69 1.03
70 42.72
71 2.74

$$$$

     RDKit          2D

  6  5  0  0  0  0  0  0  0  0999 V2000
   -4.5466    3.3750    0.0000 C   0  0  0  0  0  0  0  0  0  0  0  0
   -3.2476    2.6250    0.0000 C   0  0  0  0  0  0  0  0  0  0  0  0
   -1.9486    3.3750    0.0000 C   0  0  0  0  0  0  0  0  0  0  0  0
   -0.6495    2.6250    0.0000 C   0  0  0  0  0  0  0  0  0  0  0  0
    0.6495    3.3750    0.0000 C   0  0  0  0  0  0  0  0  0  0  0  0
    1.9486    2.6250    0.0000 O   0  0  0  0  0  0  0  0  0  0  0  0
  2  1  1  0
  3  2  1  0
  4  3  1  0
  5  4  1  0
  6  5  1  0
M  END
>  <NAME>  (3482) 
PENTYL ALCOHOL

>  <SYNONYMS>  (3482) 
1-PENTANOL

>  <SPECTRUM TYPE>  (3482) 
MS1

>  <INSTRUMENT TYPE>  (3482) 
EI-B

>  <INSTRUMENT>  (3482) 
HITACHI M-80B

>  <ION MODE>  (3482) 
P

>  <INCHIKEY>  (3482) 
AMQJEAYHLZJPGS-UHFFFAOYSA-N

>  <FORMULA>  (3482) 
C5H12O

>  <EXACT MASS>  (3482) 
88.088815004

>  <MW>  (3482) 
88

>  <ID>  (3482) 
JP007114

>  <CONTRIBUTOR>  (3482) 
University of Tokyo Team, {Faculty of Engineering, University of Tokyo

>  <COMMENT>  (3482) 
SMILES=CCCCCO
cas=71-41-0
InChI=InChI=1S/C5H12O/c1-2-3-4-5-6/h6H,2-5H2,1H3
computed SMILES=OCCCCC
accession=JP007114
date=2016.01.19 (Created 2008.10.21, modified 2011.05.06)
author=SODA AROMATIC CO., LTD.
license=CC BY-NC-SA
exact mass=88.08882
ionization energy=70 eV
ion type=[M]+*
computed spectral entropy=2.59286631302086
computed normalized entropy=0.7867095425036289
SPLASH=splash10-0006-9000000000-86ba80dfb4a247abdead
submitter=submitter = University of Tokyo Team (Faculty of Engineering, University of Tokyo)
MoNA Rating=3.75

>  <NUM PEAKS>  (3482) 
27

>  <MASS SPECTRAL PEAKS>  (3482) 
15 2.66
26 3.98
27 31.65
28 10.49
29 49.52
30 1.92
31 56.58
38 1.52
39 19.93
40 3.34
41 63.09
42 99.99
43 25.79
44 3.69
45 5.58
50 1.02
51 1.38
53 2.23
54 1.48
55 71.19
56 15.84
57 22.65
58 2
60 1.12
69 5.73
70 49.92
71 3.6

$$$$

     RDKit          2D

  6  5  0  0  0  0  0  0  0  0999 V2000
    1.2990    2.2500    0.0000 C   0  0  0  0  0  0  0  0  0  0  0  0
   -3.8971    2.2500    0.0000 C   0  0  0  0  0  0  0  0  0  0  0  0
    0.0000    3.0000    0.0000 C   0  0  0  0  0  0  0  0  0  0  0  0
   -2.5981    3.0000    0.0000 C   0  0  0  0  0  0  0  0  0  0  0  0
   -1.2990    2.2500    0.0000 C   0  0  0  0  0  0  0  0  0  0  0  0
   -1.2990    0.7500    0.0000 O   0  0  0  0  0  0  0  0  0  0  0  0
  3  1  2  0
  4  2  1  0
  5  3  1  0
  5  4  1  0
  6  5  1  0
M  END
>  <NAME>  (3483) 
CIS-3-PENTENOL

>  <SYNONYMS>  (3483) 


>  <SPECTRUM TYPE>  (3483) 
MS1

>  <INSTRUMENT TYPE>  (3483) 
EI-B

>  <INSTRUMENT>  (3483) 
HITACHI M-80B

>  <ION MODE>  (3483) 
P

>  <INCHIKEY>  (3483) 
VHVMXWZXFBOANQ-UHFFFAOYSA-N

>  <FORMULA>  (3483) 
C5H10O

>  <EXACT MASS>  (3483) 
86.07316494

>  <MW>  (3483) 
86

>  <ID>  (3483) 
JP007113

>  <CONTRIBUTOR>  (3483) 
University of Tokyo Team, {Faculty of Engineering, University of Tokyo

>  <COMMENT>  (3483) 
SMILES=CCC(O)C=C
cas=616-25-1
InChI=InChI=1S/C5H10O/c1-3-5(6)4-2/h3,5-6H,1,4H2,2H3
computed SMILES=OC(C=C)CC
accession=JP007113
date=2016.01.19 (Created 2008.10.21, modified 2011.05.06)
author=SODA AROMATIC CO., LTD.
license=CC BY-NC-SA
exact mass=86.07316
ionization energy=70 eV
ion type=[M]+*
computed spectral entropy=2.83968186630416
computed normalized entropy=0.8121480695763635
SPLASH=splash10-0ar0-9000000000-060003f5465df3a7a553
submitter=submitter = University of Tokyo Team (Faculty of Engineering, University of Tokyo)
MoNA Rating=3.75

>  <NUM PEAKS>  (3483) 
33

>  <MASS SPECTRAL PEAKS>  (3483) 
15 3.33
26 8.51
27 56.36
28 10.83
29 67.44
30 2.09
31 64.09
37 2.38
38 6.48
39 56.9
40 9.87
41 69.97
42 8.02
43 12.31
44 14.56
45 2.9
49 1.28
50 6.37
51 8.25
52 2.71
53 26.74
54 15.14
55 99.99
56 90.97
57 20.34
58 3.4
65 1.33
66 1.39
67 22.83
68 88.43
69 5.69
71 1.56
86 6

$$$$

     RDKit          2D

  5  4  0  0  0  0  0  0  0  0999 V2000
   -1.2990    0.7500    0.0000 C   0  0  0  0  0  0  0  0  0  0  0  0
    0.7500    0.2010    0.0000 C   0  0  0  0  0  0  0  0  0  0  0  0
    1.2990    2.2500    0.0000 C   0  0  0  0  0  0  0  0  0  0  0  0
    0.0000    1.5000    0.0000 C   0  0  0  0  0  0  0  0  0  0  0  0
   -0.7500    2.7990    0.0000 O   0  0  0  0  0  0  0  0  0  0  0  0
  4  1  1  0
  4  2  1  0
  4  3  1  0
  5  4  1  0
M  END
>  <NAME>  (3484) 
TERT-BUTYL ALCOHOL

>  <SYNONYMS>  (3484) 
2-METHYL-2-PROPANOL

>  <SPECTRUM TYPE>  (3484) 
MS1

>  <INSTRUMENT TYPE>  (3484) 
EI-B

>  <INSTRUMENT>  (3484) 
HITACHI M-80B

>  <ION MODE>  (3484) 
P

>  <INCHIKEY>  (3484) 
DKGAVHZHDRPRBM-UHFFFAOYSA-N

>  <FORMULA>  (3484) 
C4H10O

>  <EXACT MASS>  (3484) 
74.07316494

>  <MW>  (3484) 
74

>  <ID>  (3484) 
JP007112

>  <CONTRIBUTOR>  (3484) 
University of Tokyo Team, {Faculty of Engineering, University of Tokyo

>  <COMMENT>  (3484) 
SMILES=CC(C)(C)O
cas=75-65-0
InChI=InChI=1S/C4H10O/c1-4(2,3)5/h5H,1-3H3
computed SMILES=OC(C)(C)C
accession=JP007112
date=2016.01.19 (Created 2008.10.21, modified 2011.05.06)
author=SODA AROMATIC CO., LTD.
license=CC BY-NC-SA
exact mass=74.07316
ionization energy=70 eV
ion type=[M]+*
computed spectral entropy=1.720576057914792
computed normalized entropy=0.6353560422234773
SPLASH=splash10-0a4i-9000000000-de7e1d9fd31a3d61613f
submitter=submitter = University of Tokyo Team (Faculty of Engineering, University of Tokyo)
MoNA Rating=3.75

>  <NUM PEAKS>  (3484) 
15

>  <MASS SPECTRAL PEAKS>  (3484) 
15 2.97
27 3.81
28 1.23
29 5.6
31 17.71
39 5.2
41 14.05
42 2.66
43 11.3
44 1.31
55 1.63
56 1.4
57 8.52
59 99.99
60 3.77

$$$$

     RDKit          2D

  5  4  0  0  0  0  0  0  0  0999 V2000
   -0.0000   -0.0000    0.0000 C   0  0  0  0  0  0  0  0  0  0  0  0
   -1.2990    3.7500    0.0000 C   0  0  0  0  0  0  0  0  0  0  0  0
    0.0000    1.5000    0.0000 C   0  0  0  0  0  0  0  0  0  0  0  0
   -1.2990    2.2500    0.0000 C   0  0  0  0  0  0  0  0  0  0  0  0
   -2.5981    1.5000    0.0000 O   0  0  0  0  0  0  0  0  0  0  0  0
  3  1  1  0
  4  2  1  0
  4  3  1  0
  5  4  1  0
M  END
>  <NAME>  (3485) 
SEC-BUTYL ALCOHOL

>  <SYNONYMS>  (3485) 
2-BUTANOL

>  <SPECTRUM TYPE>  (3485) 
MS1

>  <INSTRUMENT TYPE>  (3485) 
EI-B

>  <INSTRUMENT>  (3485) 
HITACHI M-80B

>  <ION MODE>  (3485) 
P

>  <INCHIKEY>  (3485) 
BTANRVKWQNVYAZ-UHFFFAOYSA-N

>  <FORMULA>  (3485) 
C4H10O

>  <EXACT MASS>  (3485) 
74.07316494

>  <MW>  (3485) 
74

>  <ID>  (3485) 
JP007111

>  <CONTRIBUTOR>  (3485) 
University of Tokyo Team, {Faculty of Engineering, University of Tokyo

>  <COMMENT>  (3485) 
SMILES=CCC(C)O
cas=78-92-2
InChI=InChI=1S/C4H10O/c1-3-4(2)5/h4-5H,3H2,1-2H3
computed SMILES=OC(C)CC
accession=JP007111
date=2016.01.19 (Created 2008.10.21, modified 2011.05.06)
author=SODA AROMATIC CO., LTD.
license=CC BY-NC-SA
exact mass=74.07316
ionization energy=70 eV
ion type=[M]+*
computed spectral entropy=1.9677402931191883
computed normalized entropy=0.6945259866318576
SPLASH=splash10-0002-9000000000-ef7cd62aa636fe20c0eb
submitter=submitter = University of Tokyo Team (Faculty of Engineering, University of Tokyo)
MoNA Rating=3.75

>  <NUM PEAKS>  (3485) 
17

>  <MASS SPECTRAL PEAKS>  (3485) 
15 2.66
19 2.04
26 2.33
27 13.12
29 10.92
31 16.62
39 3.37
41 10.46
42 1.41
43 10.62
44 8.44
45 99.99
46 2.26
55 2.16
57 2.75
59 21.81
73 1.17

$$$$

     RDKit          2D

  5  4  0  0  0  0  0  0  0  0999 V2000
    0.0000    0.0000    0.0000 C   0  0  0  0  0  0  0  0  0  0  0  0
    1.2990    2.2500    0.0000 C   0  0  0  0  0  0  0  0  0  0  0  0
   -1.2990    2.2500    0.0000 C   0  0  0  0  0  0  0  0  0  0  0  0
    0.0000    1.5000    0.0000 C   0  0  0  0  0  0  0  0  0  0  0  0
   -1.2990    3.7500    0.0000 O   0  0  0  0  0  0  0  0  0  0  0  0
  4  1  1  0
  4  2  1  0
  4  3  1  0
  5  3  1  0
M  END
>  <NAME>  (3486) 
ISOBUTYL ALCOHOL

>  <SYNONYMS>  (3486) 
2-METHYL-1-PROPANOL

>  <SPECTRUM TYPE>  (3486) 
MS1

>  <INSTRUMENT TYPE>  (3486) 
EI-B

>  <INSTRUMENT>  (3486) 
HITACHI M-80B

>  <ION MODE>  (3486) 
P

>  <INCHIKEY>  (3486) 
ZXEKIIBDNHEJCQ-UHFFFAOYSA-N

>  <FORMULA>  (3486) 
C4H10O

>  <EXACT MASS>  (3486) 
74.07316494

>  <MW>  (3486) 
74

>  <ID>  (3486) 
JP007110

>  <CONTRIBUTOR>  (3486) 
University of Tokyo Team, {Faculty of Engineering, University of Tokyo

>  <COMMENT>  (3486) 
SMILES=OCC(C)C
cas=78-83-1
InChI=InChI=1S/C4H10O/c1-4(2)3-5/h4-5H,3H2,1-2H3
computed SMILES=OCC(C)C
accession=JP007110
date=2016.01.19 (Created 2008.10.21, modified 2011.05.06)
author=SODA AROMATIC CO., LTD.
license=CC BY-NC-SA
exact mass=74.07316
ionization energy=70 eV
ion type=[M]+*
computed spectral entropy=2.45178217404927
computed normalized entropy=0.7616889583336629
SPLASH=splash10-0006-9000000000-a022508915e78517db51
submitter=submitter = University of Tokyo Team (Faculty of Engineering, University of Tokyo)
MoNA Rating=3.75

>  <NUM PEAKS>  (3486) 
25

>  <MASS SPECTRAL PEAKS>  (3486) 
15 4.19
26 3.72
27 35.98
28 4.2
29 17.83
30 1.33
31 54.88
32 1.2
33 49.19
37 1.42
38 3.87
39 22.24
40 4.29
41 63.19
42 59.12
43 99.99
44 3.42
45 3.08
53 1.03
55 5.8
56 4.27
57 5.25
59 3.77
73 1.59
74 10.1

$$$$

     RDKit          2D

  5  4  0  0  0  0  0  0  0  0999 V2000
   -3.8971    2.2500    0.0000 C   0  0  0  0  0  0  0  0  0  0  0  0
   -2.5981    1.5000    0.0000 C   0  0  0  0  0  0  0  0  0  0  0  0
   -1.2990    2.2500    0.0000 C   0  0  0  0  0  0  0  0  0  0  0  0
    0.0000    1.5000    0.0000 C   0  0  0  0  0  0  0  0  0  0  0  0
    1.2990    2.2500    0.0000 O   0  0  0  0  0  0  0  0  0  0  0  0
  2  1  1  0
  3  2  1  0
  4  3  1  0
  5  4  1  0
M  END
>  <NAME>  (3487) 
BUTYL ALCOHOL

>  <SYNONYMS>  (3487) 
1-BUTANOL

>  <SPECTRUM TYPE>  (3487) 
MS1

>  <INSTRUMENT TYPE>  (3487) 
EI-B

>  <INSTRUMENT>  (3487) 
HITACHI M-80B

>  <ION MODE>  (3487) 
P

>  <INCHIKEY>  (3487) 
LRHPLDYGYMQRHN-UHFFFAOYSA-N

>  <FORMULA>  (3487) 
C4H10O

>  <EXACT MASS>  (3487) 
74.07316494

>  <MW>  (3487) 
74

>  <ID>  (3487) 
JP007109

>  <CONTRIBUTOR>  (3487) 
University of Tokyo Team, {Faculty of Engineering, University of Tokyo

>  <COMMENT>  (3487) 
SMILES=CCCCO
cas=71-36-3
InChI=InChI=1S/C4H10O/c1-2-3-4-5/h5H,2-4H2,1H3
computed SMILES=OCCCC
accession=JP007109
date=2016.01.19 (Created 2008.10.21, modified 2011.05.06)
author=SODA AROMATIC CO., LTD.
license=CC BY-NC-SA
exact mass=74.07316
ionization energy=70 eV
ion type=[M]+*
computed spectral entropy=2.469616242714195
computed normalized entropy=0.7579935750503879
SPLASH=splash10-055f-9000000000-7e23cd40dde01cb89b6f
submitter=submitter = University of Tokyo Team (Faculty of Engineering, University of Tokyo)
MoNA Rating=3.75

>  <NUM PEAKS>  (3487) 
26

>  <MASS SPECTRAL PEAKS>  (3487) 
14 1.19
15 4.17
19 2.38
26 5.52
27 46.53
28 14.22
29 26.61
30 1.79
31 95.1
33 7.9
37 1.29
38 2.65
39 20.15
40 4.28
41 73.58
42 33.78
43 64.1
44 3.65
45 7.55
50 1.08
51 1.22
53 1.19
55 15.51
56 99.99
57 6.28
73 1.43

$$$$

     RDKit          2D

  4  3  0  0  0  0  0  0  0  0999 V2000
    0.9743    0.5625    0.0000 C   0  0  0  0  0  0  0  0  0  0  0  0
   -1.6238    0.5625    0.0000 C   0  0  0  0  0  0  0  0  0  0  0  0
   -0.3248    1.3125    0.0000 C   0  0  0  0  0  0  0  0  0  0  0  0
   -0.3248    2.8125    0.0000 O   0  0  0  0  0  0  0  0  0  0  0  0
  3  1  1  0
  3  2  1  0
  4  3  1  0
M  END
>  <NAME>  (3488) 
ISOPROPYL ALCOHOL

>  <SYNONYMS>  (3488) 
2-PROPANOL

>  <SPECTRUM TYPE>  (3488) 
MS1

>  <INSTRUMENT TYPE>  (3488) 
EI-B

>  <INSTRUMENT>  (3488) 
HITACHI M-80B

>  <ION MODE>  (3488) 
P

>  <INCHIKEY>  (3488) 
KFZMGEQAYNKOFK-UHFFFAOYSA-N

>  <FORMULA>  (3488) 
C3H8O

>  <EXACT MASS>  (3488) 
60.057514876

>  <MW>  (3488) 
60

>  <ID>  (3488) 
JP007108

>  <CONTRIBUTOR>  (3488) 
University of Tokyo Team, {Faculty of Engineering, University of Tokyo

>  <COMMENT>  (3488) 
SMILES=CC(C)O
cas=67-63-0
InChI=InChI=1S/C3H8O/c1-3(2)4/h3-4H,1-2H3
computed SMILES=OC(C)C
accession=JP007108
date=2016.01.19 (Created 2008.10.21, modified 2011.05.06)
author=SODA AROMATIC CO., LTD.
license=CC BY-NC-SA
exact mass=60.05751
ionization energy=70 eV
ion type=[M]+*
computed spectral entropy=1.7099886660281352
computed normalized entropy=0.6167480421137811
SPLASH=splash10-0002-9000000000-3c81c56ab53eb5aaa2ec
submitter=submitter = University of Tokyo Team (Faculty of Engineering, University of Tokyo)
MoNA Rating=3.75

>  <NUM PEAKS>  (3488) 
16

>  <MASS SPECTRAL PEAKS>  (3488) 
15 3.39
19 2.86
26 1.36
27 8.58
29 6.29
31 3.53
38 1.42
39 5.63
41 7.15
42 3.55
43 15.78
44 4.37
45 99.99
46 2.6
57 1.11
59 3.94

$$$$

     RDKit          2D

  4  3  0  0  0  0  0  0  0  0999 V2000
   -2.5981    2.2500    0.0000 C   0  0  0  0  0  0  0  0  0  0  0  0
   -1.2990    1.5000    0.0000 C   0  0  0  0  0  0  0  0  0  0  0  0
    0.0000    2.2500    0.0000 C   0  0  0  0  0  0  0  0  0  0  0  0
    1.2990    1.5000    0.0000 O   0  0  0  0  0  0  0  0  0  0  0  0
  2  1  1  0
  3  2  1  0
  4  3  1  0
M  END
>  <NAME>  (3489) 
PROPYL ALCOHOL

>  <SYNONYMS>  (3489) 
1-PROPANOL

>  <SPECTRUM TYPE>  (3489) 
MS1

>  <INSTRUMENT TYPE>  (3489) 
EI-B

>  <INSTRUMENT>  (3489) 
HITACHI M-80B

>  <ION MODE>  (3489) 
P

>  <INCHIKEY>  (3489) 
BDERNNFJNOPAEC-UHFFFAOYSA-N

>  <FORMULA>  (3489) 
C3H8O

>  <EXACT MASS>  (3489) 
60.057514876

>  <MW>  (3489) 
60

>  <ID>  (3489) 
JP007107

>  <CONTRIBUTOR>  (3489) 
University of Tokyo Team, {Faculty of Engineering, University of Tokyo

>  <COMMENT>  (3489) 
SMILES=CCCO
cas=71-23-8
InChI=InChI=1S/C3H8O/c1-2-3-4/h4H,2-3H2,1H3
computed SMILES=OCCC
accession=JP007107
date=2016.01.19 (Created 2008.10.21, modified 2011.05.06)
author=SODA AROMATIC CO., LTD.
license=CC BY-NC-SA
exact mass=60.05751
ionization energy=70 eV
ion type=[M]+*
computed spectral entropy=1.9702942266620942
computed normalized entropy=0.6691577718550232
SPLASH=splash10-001i-9000000000-425940a0b79c32c50c90
submitter=submitter = University of Tokyo Team (Faculty of Engineering, University of Tokyo)
MoNA Rating=3.75

>  <NUM PEAKS>  (3489) 
19

>  <MASS SPECTRAL PEAKS>  (3489) 
15 1.57
17 1.66
18 7.41
26 3.82
27 14.22
28 3.35
29 10.55
30 1.66
31 99.99
32 1.13
38 1.17
39 4.94
41 6.97
42 10.59
43 3.52
45 1.58
57 1.12
59 14.69
60 8.75

$$$$

     RDKit          2D

  4  3  0  0  0  0  0  0  0  0999 V2000
   -2.5981    2.2500    0.0000 C   0  0  0  0  0  0  0  0  0  0  0  0
   -1.2990    1.5000    0.0000 C   0  0  0  0  0  0  0  0  0  0  0  0
    0.0000    2.2500    0.0000 C   0  0  0  0  0  0  0  0  0  0  0  0
    1.2990    1.5000    0.0000 O   0  0  0  0  0  0  0  0  0  0  0  0
  2  1  2  0
  3  2  1  0
  4  3  1  0
M  END
>  <NAME>  (3490) 
ALLYL ALCOHOL

>  <SYNONYMS>  (3490) 
2-PROPEN-1-OL

>  <SPECTRUM TYPE>  (3490) 
MS1

>  <INSTRUMENT TYPE>  (3490) 
EI-B

>  <INSTRUMENT>  (3490) 
HITACHI M-80B

>  <ION MODE>  (3490) 
P

>  <INCHIKEY>  (3490) 
XXROGKLTLUQVRX-UHFFFAOYSA-N

>  <FORMULA>  (3490) 
C3H6O

>  <EXACT MASS>  (3490) 
58.041864812

>  <MW>  (3490) 
58

>  <ID>  (3490) 
JP007106

>  <CONTRIBUTOR>  (3490) 
University of Tokyo Team, {Faculty of Engineering, University of Tokyo

>  <COMMENT>  (3490) 
SMILES=C=CCO
cas=107-18-6
InChI=InChI=1S/C3H6O/c1-2-3-4/h2,4H,1,3H2
computed SMILES=OCC=C
accession=JP007106
date=2016.01.19 (Created 2008.10.21, modified 2011.05.06)
author=SODA AROMATIC CO., LTD.
license=CC BY-NC-SA
exact mass=58.04186
ionization energy=70 eV
ion type=[M]+*
computed spectral entropy=2.393840281356618
computed normalized entropy=0.7862777595906436
SPLASH=splash10-0a6r-9000000000-50896c7e8c3df69a58ba
submitter=submitter = University of Tokyo Team (Faculty of Engineering, University of Tokyo)
MoNA Rating=3.75

>  <NUM PEAKS>  (3490) 
21

>  <MASS SPECTRAL PEAKS>  (3490) 
14 1.14
15 1.7
25 2.03
26 12.63
27 26.98
28 12.57
29 45.24
30 14.06
31 38.21
37 5.24
38 7.11
39 31.7
40 8.13
41 6.03
42 1.7
43 4.94
53 1.46
55 5.52
56 1.26
57 99.99
58 24.6

$$$$

     RDKit          2D

 21 20  0  0  0  0  0  0  0  0999 V2000
    6.4952   10.5000    0.0000 C   0  0  0  0  0  0  0  0  0  0  0  0
  -18.1865   11.2500    0.0000 C   0  0  0  0  0  0  0  0  0  0  0  0
    5.1962   11.2500    0.0000 C   0  0  0  0  0  0  0  0  0  0  0  0
    3.8971   10.5000    0.0000 C   0  0  0  0  0  0  0  0  0  0  0  0
    2.5981   11.2500    0.0000 C   0  0  0  0  0  0  0  0  0  0  0  0
    1.2990   10.5000    0.0000 C   0  0  0  0  0  0  0  0  0  0  0  0
    0.0000   11.2500    0.0000 C   0  0  0  0  0  0  0  0  0  0  0  0
   -1.2990   10.5000    0.0000 C   0  0  0  0  0  0  0  0  0  0  0  0
   -2.5981   11.2500    0.0000 C   0  0  0  0  0  0  0  0  0  0  0  0
   -3.8971   10.5000    0.0000 C   0  0  0  0  0  0  0  0  0  0  0  0
   -5.1962   11.2500    0.0000 C   0  0  0  0  0  0  0  0  0  0  0  0
   -6.4952   10.5000    0.0000 C   0  0  0  0  0  0  0  0  0  0  0  0
   -7.7942   11.2500    0.0000 C   0  0  0  0  0  0  0  0  0  0  0  0
   -9.0933   10.5000    0.0000 C   0  0  0  0  0  0  0  0  0  0  0  0
  -10.3923   11.2500    0.0000 C   0  0  0  0  0  0  0  0  0  0  0  0
  -11.6913   10.5000    0.0000 C   0  0  0  0  0  0  0  0  0  0  0  0
  -12.9904   11.2500    0.0000 C   0  0  0  0  0  0  0  0  0  0  0  0
  -14.2894   10.5000    0.0000 C   0  0  0  0  0  0  0  0  0  0  0  0
  -15.5885   11.2500    0.0000 C   0  0  0  0  0  0  0  0  0  0  0  0
  -15.5885   12.7500    0.0000 O   0  0  0  0  0  0  0  0  0  0  0  0
  -16.8875   10.5000    0.0000 O   0  0  0  0  0  0  0  0  0  0  0  0
  3  1  1  0
  4  3  1  0
  5  4  1  0
  6  5  1  0
  7  6  1  0
  8  7  1  0
  9  8  1  0
 10  9  1  0
 11 10  1  0
 12 11  1  0
 13 12  1  0
 14 13  1  0
 15 14  1  0
 16 15  1  0
 17 16  1  0
 18 17  1  0
 19 18  1  0
 20 19  2  0
 21  2  1  0
 21 19  1  0
M  END
>  <NAME>  (3491) 
METHYL STEARATE

>  <SYNONYMS>  (3491) 
METHYL OCTADECANOATE

>  <SPECTRUM TYPE>  (3491) 
MS1

>  <INSTRUMENT TYPE>  (3491) 
EI-B

>  <INSTRUMENT>  (3491) 
HITACHI M-80B

>  <ION MODE>  (3491) 
P

>  <INCHIKEY>  (3491) 
HPEUJPJOZXNMSJ-UHFFFAOYSA-N

>  <FORMULA>  (3491) 
C19H38O2

>  <EXACT MASS>  (3491) 
298.287180456

>  <MW>  (3491) 
298

>  <ID>  (3491) 
JP007105

>  <CONTRIBUTOR>  (3491) 
University of Tokyo Team, {Faculty of Engineering, University of Tokyo

>  <COMMENT>  (3491) 
SMILES=CCCCCCCCCCCCCCCCCC(=O)OC
cas=112-61-8
InChI=InChI=1S/C19H38O2/c1-3-4-5-6-7-8-9-10-11-12-13-14-15-16-17-18-19(20)21-2/h3-18H2,1-2H3
computed SMILES=O=C(OC)CCCCCCCCCCCCCCCCC
accession=JP007105
date=2016.01.19 (Created 2008.10.21, modified 2011.05.06)
author=SODA AROMATIC CO., LTD.
license=CC BY-NC-SA
exact mass=298.28718
ionization energy=70 eV
ion type=[M]+*
computed spectral entropy=3.0744091425520232
computed normalized entropy=0.7671957884314708
SPLASH=splash10-059f-9000000000-7bd9ba6fa57c2802c608
submitter=submitter = University of Tokyo Team (Faculty of Engineering, University of Tokyo)
MoNA Rating=3.75

>  <NUM PEAKS>  (3491) 
55

>  <MASS SPECTRAL PEAKS>  (3491) 
15 2.47
27 5.94
39 4.68
41 46.02
42 8.79
43 57.95
53 1.97
54 2.5
55 36.91
56 6.66
57 25.21
58 1.17
59 14.32
67 3.55
68 2.11
69 18.61
70 3.08
71 6.2
73 3.66
74 99.99
75 19.2
76 1.15
79 1.04
81 3.2
82 1.56
83 10.1
84 2.31
85 3.14
87 62.11
88 5
95 1.71
96 1.02
97 5.61
98 2.6
99 1.03
101 4.33
109 1.02
111 2.53
115 1.71
116 1.03
125 1.15
129 4.75
130 1.09
143 11.52
144 1.44
157 1.57
185 1.65
199 4.19
213 1.32
255 5.95
256 1.29
267 2.97
269 1.48
298 11.44
299 2.56

$$$$

     RDKit          2D

 21 20  0  0  0  0  0  0  0  0999 V2000
    6.4952   10.5000    0.0000 C   0  0  0  0  0  0  0  0  0  0  0  0
  -18.1865   11.2500    0.0000 C   0  0  0  0  0  0  0  0  0  0  0  0
    5.1962   11.2500    0.0000 C   0  0  0  0  0  0  0  0  0  0  0  0
  -16.8875   10.5000    0.0000 C   0  0  0  0  0  0  0  0  0  0  0  0
    3.8971   10.5000    0.0000 C   0  0  0  0  0  0  0  0  0  0  0  0
    2.5981   11.2500    0.0000 C   0  0  0  0  0  0  0  0  0  0  0  0
    1.2990   10.5000    0.0000 C   0  0  0  0  0  0  0  0  0  0  0  0
    0.0000   11.2500    0.0000 C   0  0  0  0  0  0  0  0  0  0  0  0
   -1.2990   10.5000    0.0000 C   0  0  0  0  0  0  0  0  0  0  0  0
   -2.5981   11.2500    0.0000 C   0  0  0  0  0  0  0  0  0  0  0  0
   -3.8971   10.5000    0.0000 C   0  0  0  0  0  0  0  0  0  0  0  0
   -5.1962   11.2500    0.0000 C   0  0  0  0  0  0  0  0  0  0  0  0
   -6.4952   10.5000    0.0000 C   0  0  0  0  0  0  0  0  0  0  0  0
   -7.7942   11.2500    0.0000 C   0  0  0  0  0  0  0  0  0  0  0  0
   -9.0933   10.5000    0.0000 C   0  0  0  0  0  0  0  0  0  0  0  0
  -10.3923   11.2500    0.0000 C   0  0  0  0  0  0  0  0  0  0  0  0
  -11.6913   10.5000    0.0000 C   0  0  0  0  0  0  0  0  0  0  0  0
  -15.5885   11.2500    0.0000 C   0  0  0  0  0  0  0  0  0  0  0  0
  -12.9904   11.2500    0.0000 C   0  0  0  0  0  0  0  0  0  0  0  0
  -12.9904   12.7500    0.0000 O   0  0  0  0  0  0  0  0  0  0  0  0
  -14.2894   10.5000    0.0000 O   0  0  0  0  0  0  0  0  0  0  0  0
  3  1  1  0
  4  2  1  0
  5  3  1  0
  6  5  1  0
  7  6  1  0
  8  7  1  0
  9  8  1  0
 10  9  1  0
 11 10  1  0
 12 11  1  0
 13 12  1  0
 14 13  1  0
 15 14  1  0
 16 15  1  0
 17 16  1  0
 18  4  1  0
 19 17  1  0
 20 19  2  0
 21 18  1  0
 21 19  1  0
M  END
>  <NAME>  (3492) 
PROPYL PALMITATE

>  <SYNONYMS>  (3492) 
PROPYL HEXADECANOATE

>  <SPECTRUM TYPE>  (3492) 
MS1

>  <INSTRUMENT TYPE>  (3492) 
EI-B

>  <INSTRUMENT>  (3492) 
HITACHI M-80B

>  <ION MODE>  (3492) 
P

>  <INCHIKEY>  (3492) 
BEKZXQKGTDVSKX-UHFFFAOYSA-N

>  <FORMULA>  (3492) 
C19H38O2

>  <EXACT MASS>  (3492) 
298.287180456

>  <MW>  (3492) 
298

>  <ID>  (3492) 
JP007104

>  <CONTRIBUTOR>  (3492) 
University of Tokyo Team, {Faculty of Engineering, University of Tokyo

>  <COMMENT>  (3492) 
SMILES=CCCCCCCCCCCCCCCC(=O)OCCC
InChI=InChI=1S/C19H38O2/c1-3-5-6-7-8-9-10-11-12-13-14-15-16-17-19(20)21-18-4-2/h3-18H2,1-2H3
computed SMILES=O=C(OCCC)CCCCCCCCCCCCCCC
accession=JP007104
date=2016.01.19 (Created 2008.10.21, modified 2011.05.06)
author=SODA AROMATIC CO., LTD.
license=CC BY-NC-SA
exact mass=298.28718
ionization energy=70 eV
ion type=[M]+*
computed spectral entropy=3.5028035369899104
computed normalized entropy=0.8164168861254506
SPLASH=splash10-06r6-9210000000-da8f8cd6f4d3ec14db77
submitter=submitter = University of Tokyo Team (Faculty of Engineering, University of Tokyo)
MoNA Rating=3.75

>  <NUM PEAKS>  (3492) 
73

>  <MASS SPECTRAL PEAKS>  (3492) 
27 12.27
29 20.24
31 1.68
39 5.25
41 54.46
42 23.43
43 99.99
44 2.43
45 1.62
53 2.02
54 3.31
55 41.04
56 10.85
57 43.78
58 3.04
59 4.03
60 43.97
61 97.06
62 1.98
67 4.86
68 3.15
69 23.82
70 4.75
71 20.89
72 1.27
73 42
74 3.48
75 1.26
79 1.25
81 4.4
82 2.38
83 15.34
84 6.05
85 10.94
87 11
95 3.87
96 1.85
97 11.8
98 5.98
99 2.24
101 3.68
102 51.88
103 15.74
109 1.94
111 4.18
112 1.93
113 1.06
115 34.96
116 3.02
123 1.16
125 2.5
129 10.85
130 1.08
139 1.49
143 1.83
144 1.02
157 4.3
158 1.01
171 10.32
172 1.12
185 2.01
199 1.82
213 5.7
227 2.15
237 1.05
239 25.64
240 3.87
255 3.48
256 4.99
257 24.85
258 3.61
298 15.53
299 2.95

$$$$

     RDKit          2D

 19 18  0  0  0  0  0  0  0  0999 V2000
  -16.2380   10.1250    0.0000 C   0  0  0  0  0  0  0  0  0  0  0  0
    5.8457    9.3750    0.0000 C   0  0  0  0  0  0  0  0  0  0  0  0
  -14.9389    9.3750    0.0000 C   0  0  0  0  0  0  0  0  0  0  0  0
  -13.6399   10.1250    0.0000 C   0  0  0  0  0  0  0  0  0  0  0  0
  -12.3409    9.3750    0.0000 C   0  0  0  0  0  0  0  0  0  0  0  0
  -11.0418   10.1250    0.0000 C   0  0  0  0  0  0  0  0  0  0  0  0
   -9.7428    9.3750    0.0000 C   0  0  0  0  0  0  0  0  0  0  0  0
   -8.4437   10.1250    0.0000 C   0  0  0  0  0  0  0  0  0  0  0  0
   -7.1447    9.3750    0.0000 C   0  0  0  0  0  0  0  0  0  0  0  0
   -5.8457   10.1250    0.0000 C   0  0  0  0  0  0  0  0  0  0  0  0
   -4.5466    9.3750    0.0000 C   0  0  0  0  0  0  0  0  0  0  0  0
   -3.2476   10.1250    0.0000 C   0  0  0  0  0  0  0  0  0  0  0  0
   -1.9486    9.3750    0.0000 C   0  0  0  0  0  0  0  0  0  0  0  0
   -0.6495   10.1250    0.0000 C   0  0  0  0  0  0  0  0  0  0  0  0
    0.6495    9.3750    0.0000 C   0  0  0  0  0  0  0  0  0  0  0  0
    1.9486   10.1250    0.0000 C   0  0  0  0  0  0  0  0  0  0  0  0
    3.2476    9.3750    0.0000 C   0  0  0  0  0  0  0  0  0  0  0  0
    3.2476    7.8750    0.0000 O   0  0  0  0  0  0  0  0  0  0  0  0
    4.5466   10.1250    0.0000 O   0  0  0  0  0  0  0  0  0  0  0  0
  3  1  1  0
  4  3  1  0
  5  4  1  0
  6  5  1  0
  7  6  1  0
  8  7  1  0
  9  8  1  0
 10  9  1  0
 11 10  1  0
 12 11  1  0
 13 12  1  0
 14 13  1  0
 15 14  1  0
 16 15  1  0
 17 16  1  0
 18 17  2  0
 19  2  1  0
 19 17  1  0
M  END
>  <NAME>  (3493) 
METHYL PALMITATE

>  <SYNONYMS>  (3493) 
METHYL HEXADECANOATE

>  <SPECTRUM TYPE>  (3493) 
MS1

>  <INSTRUMENT TYPE>  (3493) 
EI-B

>  <INSTRUMENT>  (3493) 
HITACHI M-80B

>  <ION MODE>  (3493) 
P

>  <INCHIKEY>  (3493) 
FLIACVVOZYBSBS-UHFFFAOYSA-N

>  <FORMULA>  (3493) 
C17H34O2

>  <EXACT MASS>  (3493) 
270.255880328

>  <MW>  (3493) 
270

>  <ID>  (3493) 
JP007103

>  <CONTRIBUTOR>  (3493) 
University of Tokyo Team, {Faculty of Engineering, University of Tokyo

>  <COMMENT>  (3493) 
SMILES=CCCCCCCCCCCCCCCC(=O)OC
cas=112-39-0
InChI=InChI=1S/C17H34O2/c1-3-4-5-6-7-8-9-10-11-12-13-14-15-16-17(18)19-2/h3-16H2,1-2H3
computed SMILES=O=C(OC)CCCCCCCCCCCCCCC
accession=JP007103
date=2016.01.19 (Created 2008.10.21, modified 2011.05.06)
author=SODA AROMATIC CO., LTD.
license=CC BY-NC-SA
exact mass=270.25588
ionization energy=70 eV
ion type=[M]+*
computed spectral entropy=2.9717141482123917
computed normalized entropy=0.7635794873815419
SPLASH=splash10-05g3-9000000000-a2b255dd0fdd1efd2edc
submitter=submitter = University of Tokyo Team (Faculty of Engineering, University of Tokyo)
MoNA Rating=3.75

>  <NUM PEAKS>  (3493) 
49

>  <MASS SPECTRAL PEAKS>  (3493) 
15 3.06
26 1.28
27 7.18
29 1.63
31 1.25
39 5.74
41 45.59
42 9.53
43 49.22
53 2.68
54 2.8
55 34.77
56 5.88
57 20.57
59 14.27
67 2.58
68 1.94
69 14.99
70 2.45
71 4.75
73 1.91
74 99.99
75 17.27
81 2.03
82 1.22
83 7.33
84 3.31
85 2.19
87 61.27
88 5.41
95 1
97 4.51
98 1.97
101 4.76
111 2.01
115 1.81
125 1.03
129 4.12
143 8.37
144 1.09
171 1.67
185 2.35
199 1.52
227 4.7
228 1.01
239 3.24
241 1.43
270 6.86
271 1.34

$$$$

     RDKit          2D

 19 18  0  0  0  0  0  0  0  0999 V2000
  -15.5885    9.0000    0.0000 C   0  0  0  0  0  0  0  0  0  0  0  0
    5.1962    9.0000    0.0000 C   0  0  0  0  0  0  0  0  0  0  0  0
    3.8971    6.7500    0.0000 C   0  0  0  0  0  0  0  0  0  0  0  0
  -14.2894    8.2500    0.0000 C   0  0  0  0  0  0  0  0  0  0  0  0
  -12.9904    9.0000    0.0000 C   0  0  0  0  0  0  0  0  0  0  0  0
  -11.6913    8.2500    0.0000 C   0  0  0  0  0  0  0  0  0  0  0  0
  -10.3923    9.0000    0.0000 C   0  0  0  0  0  0  0  0  0  0  0  0
   -9.0933    8.2500    0.0000 C   0  0  0  0  0  0  0  0  0  0  0  0
   -7.7942    9.0000    0.0000 C   0  0  0  0  0  0  0  0  0  0  0  0
   -6.4952    8.2500    0.0000 C   0  0  0  0  0  0  0  0  0  0  0  0
   -5.1962    9.0000    0.0000 C   0  0  0  0  0  0  0  0  0  0  0  0
   -3.8971    8.2500    0.0000 C   0  0  0  0  0  0  0  0  0  0  0  0
   -2.5981    9.0000    0.0000 C   0  0  0  0  0  0  0  0  0  0  0  0
   -1.2990    8.2500    0.0000 C   0  0  0  0  0  0  0  0  0  0  0  0
    0.0000    9.0000    0.0000 C   0  0  0  0  0  0  0  0  0  0  0  0
    3.8971    8.2500    0.0000 C   0  0  0  0  0  0  0  0  0  0  0  0
    1.2990    8.2500    0.0000 C   0  0  0  0  0  0  0  0  0  0  0  0
    1.2990    6.7500    0.0000 O   0  0  0  0  0  0  0  0  0  0  0  0
    2.5981    9.0000    0.0000 O   0  0  0  0  0  0  0  0  0  0  0  0
  4  1  1  0
  5  4  1  0
  6  5  1  0
  7  6  1  0
  8  7  1  0
  9  8  1  0
 10  9  1  0
 11 10  1  0
 12 11  1  0
 13 12  1  0
 14 13  1  0
 15 14  1  0
 16  2  1  0
 16  3  1  0
 17 15  1  0
 18 17  2  0
 19 16  1  0
 19 17  1  0
M  END
>  <NAME>  (3494) 
ISOPROPYL MYRISTATE

>  <SYNONYMS>  (3494) 
ISOPROPYL TETRADECANOATE

>  <SPECTRUM TYPE>  (3494) 
MS1

>  <INSTRUMENT TYPE>  (3494) 
EI-B

>  <INSTRUMENT>  (3494) 
HITACHI M-80B

>  <ION MODE>  (3494) 
P

>  <INCHIKEY>  (3494) 
AXISYYRBXTVTFY-UHFFFAOYSA-N

>  <FORMULA>  (3494) 
C17H34O2

>  <EXACT MASS>  (3494) 
270.255880328

>  <MW>  (3494) 
270

>  <ID>  (3494) 
JP007102

>  <CONTRIBUTOR>  (3494) 
University of Tokyo Team, {Faculty of Engineering, University of Tokyo

>  <COMMENT>  (3494) 
SMILES=CCCCCCCCCCCCCC(=O)OC(C)C
cas=110-27-0
InChI=InChI=1S/C17H34O2/c1-4-5-6-7-8-9-10-11-12-13-14-15-17(18)19-16(2)3/h16H,4-15H2,1-3H3
computed SMILES=O=C(OC(C)C)CCCCCCCCCCCCC
accession=JP007102
date=2016.01.19 (Created 2008.10.21, modified 2011.05.06)
author=SODA AROMATIC CO., LTD.
license=CC BY-NC-SA
exact mass=270.25588
ionization energy=70 eV
ion type=[M]+*
computed spectral entropy=3.427576787216766
computed normalized entropy=0.8304979841792376
SPLASH=splash10-01ox-9210000000-fe05458ea214ddbf37c9
submitter=submitter = University of Tokyo Team (Faculty of Engineering, University of Tokyo)
MoNA Rating=3.75

>  <NUM PEAKS>  (3494) 
62

>  <MASS SPECTRAL PEAKS>  (3494) 
27 11.02
29 16.82
39 7.02
41 47.52
42 15.64
43 99.99
44 2.64
45 3.32
53 2.05
54 2.81
55 33.01
56 10.13
57 38.82
58 2.13
59 16.09
60 56.08
61 15.04
67 3.64
68 2.53
69 19.04
70 5.45
71 19.19
72 1.08
73 26.26
74 2.94
81 3.47
82 2.02
83 12.2
84 7.29
85 12.71
87 7.21
95 2.94
96 1.67
97 8.98
98 8.26
99 3.19
101 3.24
102 58.01
103 8.1
109 1.71
111 4.2
112 1.86
113 1.71
115 4.07
116 1.25
125 2.38
129 13.24
130 1.3
139 1.13
143 2.62
157 1
166 1.26
168 1.26
171 2.25
185 8.12
199 1.29
211 21.38
212 2.71
228 34.84
229 23.87
230 3.09
270 1.23

$$$$

     RDKit          2D

 17 16  0  0  0  0  0  0  0  0999 V2000
    5.1962    8.2500    0.0000 C   0  0  0  0  0  0  0  0  0  0  0  0
  -14.2894    9.0000    0.0000 C   0  0  0  0  0  0  0  0  0  0  0  0
    3.8971    9.0000    0.0000 C   0  0  0  0  0  0  0  0  0  0  0  0
    2.5981    8.2500    0.0000 C   0  0  0  0  0  0  0  0  0  0  0  0
    1.2990    9.0000    0.0000 C   0  0  0  0  0  0  0  0  0  0  0  0
    0.0000    8.2500    0.0000 C   0  0  0  0  0  0  0  0  0  0  0  0
   -1.2990    9.0000    0.0000 C   0  0  0  0  0  0  0  0  0  0  0  0
   -2.5981    8.2500    0.0000 C   0  0  0  0  0  0  0  0  0  0  0  0
   -3.8971    9.0000    0.0000 C   0  0  0  0  0  0  0  0  0  0  0  0
   -5.1962    8.2500    0.0000 C   0  0  0  0  0  0  0  0  0  0  0  0
   -6.4952    9.0000    0.0000 C   0  0  0  0  0  0  0  0  0  0  0  0
   -7.7942    8.2500    0.0000 C   0  0  0  0  0  0  0  0  0  0  0  0
   -9.0933    9.0000    0.0000 C   0  0  0  0  0  0  0  0  0  0  0  0
  -10.3923    8.2500    0.0000 C   0  0  0  0  0  0  0  0  0  0  0  0
  -11.6913    9.0000    0.0000 C   0  0  0  0  0  0  0  0  0  0  0  0
  -11.6913   10.5000    0.0000 O   0  0  0  0  0  0  0  0  0  0  0  0
  -12.9904    8.2500    0.0000 O   0  0  0  0  0  0  0  0  0  0  0  0
  3  1  1  0
  4  3  1  0
  5  4  1  0
  6  5  1  0
  7  6  1  0
  8  7  1  0
  9  8  1  0
 10  9  1  0
 11 10  1  0
 12 11  1  0
 13 12  1  0
 14 13  1  0
 15 14  1  0
 16 15  2  0
 17  2  1  0
 17 15  1  0
M  END
>  <NAME>  (3495) 
METHYL MYRISTATE

>  <SYNONYMS>  (3495) 
METHYL TETRADECANOATE

>  <SPECTRUM TYPE>  (3495) 
MS1

>  <INSTRUMENT TYPE>  (3495) 
EI-B

>  <INSTRUMENT>  (3495) 
HITACHI M-80B

>  <ION MODE>  (3495) 
P

>  <INCHIKEY>  (3495) 
ZAZKJZBWRNNLDS-UHFFFAOYSA-N

>  <FORMULA>  (3495) 
C15H30O2

>  <EXACT MASS>  (3495) 
242.2245802

>  <MW>  (3495) 
242

>  <ID>  (3495) 
JP007101

>  <CONTRIBUTOR>  (3495) 
University of Tokyo Team, {Faculty of Engineering, University of Tokyo

>  <COMMENT>  (3495) 
SMILES=CCCCCCCCCCCCCC(=O)OC
cas=124-10-7
InChI=InChI=1S/C15H30O2/c1-3-4-5-6-7-8-9-10-11-12-13-14-15(16)17-2/h3-14H2,1-2H3
computed SMILES=O=C(OC)CCCCCCCCCCCCC
accession=JP007101
date=2016.01.19 (Created 2008.10.21, modified 2011.05.06)
author=SODA AROMATIC CO., LTD.
license=CC BY-NC-SA
exact mass=242.22458
ionization energy=70 eV
ion type=[M]+*
computed spectral entropy=2.821571517020817
computed normalized entropy=0.7648858012625285
SPLASH=splash10-00du-9000000000-5a629735a82f6a4f1e6e
submitter=submitter = University of Tokyo Team (Faculty of Engineering, University of Tokyo)
MoNA Rating=3.75

>  <NUM PEAKS>  (3495) 
40

>  <MASS SPECTRAL PEAKS>  (3495) 
15 2.8
27 6.34
29 13.27
39 3.69
41 27.5
42 5.99
43 30.18
45 1.23
53 1.63
54 1.79
55 22.47
56 3.77
57 12.54
59 9.03
67 2.06
69 11.33
70 1.74
71 3.23
73 1.76
74 99.99
75 14.44
81 1.31
83 5.48
84 2.29
85 1.57
87 60.05
88 5.11
97 3.2
98 1.88
101 3.43
111 1.13
115 1.08
129 3.27
143 10.79
157 1.46
185 1.44
199 6.09
211 3.34
213 1.12
242 4.96

$$$$

     RDKit          2D

 21 21  0  0  0  0  0  0  0  0999 V2000
  -14.6139    7.6321    0.0000 C   0  0  0  0  0  0  0  0  0  0  0  0
  -13.3149    8.3821    0.0000 C   0  0  0  0  0  0  0  0  0  0  0  0
  -12.0159    7.6321    0.0000 C   0  0  0  0  0  0  0  0  0  0  0  0
  -10.7168    8.3821    0.0000 C   0  0  0  0  0  0  0  0  0  0  0  0
   -9.4178    7.6321    0.0000 C   0  0  0  0  0  0  0  0  0  0  0  0
   -8.1187    8.3821    0.0000 C   0  0  0  0  0  0  0  0  0  0  0  0
   -6.8197    7.6321    0.0000 C   0  0  0  0  0  0  0  0  0  0  0  0
   -5.5207    8.3821    0.0000 C   0  0  0  0  0  0  0  0  0  0  0  0
   -4.2216    7.6321    0.0000 C   0  0  0  0  0  0  0  0  0  0  0  0
    6.1707    6.1321    0.0000 C   0  0  0  0  0  0  0  0  0  0  0  0
    6.1712    7.6329    0.0000 C   0  0  0  0  0  0  0  0  0  0  0  0
    4.8712    5.3813    0.0000 C   0  0  0  0  0  0  0  0  0  0  0  0
   -2.9226    8.3821    0.0000 C   0  0  0  0  0  0  0  0  0  0  0  0
    4.8721    8.3829    0.0000 C   0  0  0  0  0  0  0  0  0  0  0  0
    3.5721    6.1313    0.0000 C   0  0  0  0  0  0  0  0  0  0  0  0
   -1.6236    7.6321    0.0000 C   0  0  0  0  0  0  0  0  0  0  0  0
    2.2736    8.3821    0.0000 C   0  0  0  0  0  0  0  0  0  0  0  0
    3.5726    7.6321    0.0000 C   0  0  0  0  0  0  0  0  0  0  0  0
   -0.3245    8.3821    0.0000 C   0  0  0  0  0  0  0  0  0  0  0  0
   -0.3245    9.8821    0.0000 O   0  0  0  0  0  0  0  0  0  0  0  0
    0.9745    7.6321    0.0000 O   0  0  0  0  0  0  0  0  0  0  0  0
  2  1  1  0
  3  2  1  0
  4  3  1  0
  5  4  1  0
  6  5  1  0
  7  6  1  0
  8  7  1  0
  9  8  1  0
 11 10  2  0
 12 10  1  0
 13  9  1  0
 14 11  1  0
 15 12  2  0
 16 13  1  0
 18 14  2  0
 18 15  1  0
 18 17  1  0
 19 16  1  0
 20 19  2  0
 21 17  1  0
 21 19  1  0
M  END
>  <NAME>  (3496) 
BENZYL LAURATE

>  <SYNONYMS>  (3496) 


>  <SPECTRUM TYPE>  (3496) 
MS1

>  <INSTRUMENT TYPE>  (3496) 
EI-B

>  <INSTRUMENT>  (3496) 
HITACHI M-80B

>  <ION MODE>  (3496) 
P

>  <INCHIKEY>  (3496) 
QNRYOQRUGRVBRL-UHFFFAOYSA-N

>  <FORMULA>  (3496) 
C19H30O2

>  <EXACT MASS>  (3496) 
290.2245802

>  <MW>  (3496) 
290

>  <ID>  (3496) 
JP007100

>  <CONTRIBUTOR>  (3496) 
University of Tokyo Team, {Faculty of Engineering, University of Tokyo

>  <COMMENT>  (3496) 
SMILES=CCCCCCCCCCCC(=O)OCc(c1)cccc1
InChI=InChI=1S/C19H30O2/c1-2-3-4-5-6-7-8-9-13-16-19(20)21-17-18-14-11-10-12-15-18/h10-12,14-15H,2-9,13,16-17H2,1H3
computed SMILES=O=C(OCC=1C=CC=CC1)CCCCCCCCCCC
accession=JP007100
date=2016.01.19 (Created 2008.10.21, modified 2011.05.06)
author=SODA AROMATIC CO., LTD.
license=CC BY-NC-SA
exact mass=290.22458
ionization energy=70 eV
ion type=[M]+*
computed spectral entropy=2.9937948642413397
computed normalized entropy=0.7733504036100729
SPLASH=splash10-0006-9200000000-9cda43e1835ed556a220
submitter=submitter = University of Tokyo Team (Faculty of Engineering, University of Tokyo)
MoNA Rating=3.75

>  <NUM PEAKS>  (3496) 
48

>  <MASS SPECTRAL PEAKS>  (3496) 
27 5.69
29 10.2
39 6.42
41 27.12
42 5.26
43 32.16
51 2.66
53 1.26
54 1.33
55 12.8
56 3.54
57 20.83
58 1.15
63 1.58
65 9.09
67 2.27
69 5.14
70 1.39
71 6.1
77 4.95
78 1.53
79 4.68
81 1.82
83 5.92
84 1.83
85 4.03
89 2.72
90 5.95
91 99.99
92 20.23
93 1.67
95 2.65
96 1.1
97 5.42
98 1.93
101 1.13
105 1.85
107 4.36
108 45.31
109 4.26
111 2.2
125 1.37
139 1.26
163 2.36
181 2.7
183 2.82
199 3.38
290 1.2

$$$$

     RDKit          2D

 19 18  0  0  0  0  0  0  0  0999 V2000
  -15.5885    9.0000    0.0000 C   0  0  0  0  0  0  0  0  0  0  0  0
    5.1962    9.0000    0.0000 C   0  0  0  0  0  0  0  0  0  0  0  0
    3.8971    6.7500    0.0000 C   0  0  0  0  0  0  0  0  0  0  0  0
  -14.2894    8.2500    0.0000 C   0  0  0  0  0  0  0  0  0  0  0  0
  -12.9904    9.0000    0.0000 C   0  0  0  0  0  0  0  0  0  0  0  0
  -11.6913    8.2500    0.0000 C   0  0  0  0  0  0  0  0  0  0  0  0
  -10.3923    9.0000    0.0000 C   0  0  0  0  0  0  0  0  0  0  0  0
   -9.0933    8.2500    0.0000 C   0  0  0  0  0  0  0  0  0  0  0  0
   -7.7942    9.0000    0.0000 C   0  0  0  0  0  0  0  0  0  0  0  0
   -6.4952    8.2500    0.0000 C   0  0  0  0  0  0  0  0  0  0  0  0
   -5.1962    9.0000    0.0000 C   0  0  0  0  0  0  0  0  0  0  0  0
   -3.8971    8.2500    0.0000 C   0  0  0  0  0  0  0  0  0  0  0  0
   -2.5981    9.0000    0.0000 C   0  0  0  0  0  0  0  0  0  0  0  0
    2.5981    9.0000    0.0000 C   0  0  0  0  0  0  0  0  0  0  0  0
    1.2990    8.2500    0.0000 C   0  0  0  0  0  0  0  0  0  0  0  0
    3.8971    8.2500    0.0000 C   0  0  0  0  0  0  0  0  0  0  0  0
   -1.2990    8.2500    0.0000 C   0  0  0  0  0  0  0  0  0  0  0  0
   -1.2990    6.7500    0.0000 O   0  0  0  0  0  0  0  0  0  0  0  0
    0.0000    9.0000    0.0000 O   0  0  0  0  0  0  0  0  0  0  0  0
  4  1  1  0
  5  4  1  0
  6  5  1  0
  7  6  1  0
  8  7  1  0
  9  8  1  0
 10  9  1  0
 11 10  1  0
 12 11  1  0
 13 12  1  0
 15 14  1  0
 16  2  1  0
 16  3  1  0
 16 14  1  0
 17 13  1  0
 18 17  2  0
 19 15  1  0
 19 17  1  0
M  END
>  <NAME>  (3497) 
ISOPENTYL LAURATE

>  <SYNONYMS>  (3497) 


>  <SPECTRUM TYPE>  (3497) 
MS1

>  <INSTRUMENT TYPE>  (3497) 
EI-B

>  <INSTRUMENT>  (3497) 
HITACHI M-80B

>  <ION MODE>  (3497) 
P

>  <INCHIKEY>  (3497) 
FVKRIDSRWFEQME-UHFFFAOYSA-N

>  <FORMULA>  (3497) 
C17H34O2

>  <EXACT MASS>  (3497) 
270.255880328

>  <MW>  (3497) 
270

>  <ID>  (3497) 
JP007099

>  <CONTRIBUTOR>  (3497) 
University of Tokyo Team, {Faculty of Engineering, University of Tokyo

>  <COMMENT>  (3497) 
SMILES=CCCCCCCCCCCC(=O)OCCC(C)C
InChI=InChI=1S/C17H34O2/c1-4-5-6-7-8-9-10-11-12-13-17(18)19-15-14-16(2)3/h16H,4-15H2,1-3H3
computed SMILES=O=C(OCCC(C)C)CCCCCCCCCCC
accession=JP007099
date=2016.01.19 (Created 2008.10.21, modified 2011.05.06)
author=SODA AROMATIC CO., LTD.
license=CC BY-NC-SA
exact mass=270.25588
ionization energy=70 eV
ion type=[M]+*
computed spectral entropy=2.623487250895689
computed normalized entropy=0.7212165253820474
SPLASH=splash10-00di-9000000000-f04bbe3cb1e2c9229262
submitter=submitter = University of Tokyo Team (Faculty of Engineering, University of Tokyo)
MoNA Rating=3.75

>  <NUM PEAKS>  (3497) 
38

>  <MASS SPECTRAL PEAKS>  (3497) 
27 5.71
29 10.56
39 3.73
41 22.23
42 7.69
43 47
44 1.25
53 1.15
54 1.21
55 22.23
56 3.84
57 13.77
60 4.43
61 1.47
67 1.26
68 1.01
69 6.66
70 99.99
71 40.1
72 1.73
73 4.94
81 1.09
83 2.9
84 1.51
85 3.72
87 1.25
95 1.3
97 1.81
98 1.77
101 1.05
115 1.78
129 1.44
143 1.14
157 1.22
183 9.82
184 1.17
200 2.99
201 4.3

$$$$

     RDKit          2D

  7  6  0  0  0  0  0  0  0  0999 V2000
    1.9486    2.6250    0.0000 C   0  0  0  0  0  0  0  0  0  0  0  0
   -4.5466    3.3750    0.0000 C   0  0  0  0  0  0  0  0  0  0  0  0
    0.6495    3.3750    0.0000 C   0  0  0  0  0  0  0  0  0  0  0  0
   -0.6495    2.6250    0.0000 C   0  0  0  0  0  0  0  0  0  0  0  0
   -1.9486    3.3750    0.0000 C   0  0  0  0  0  0  0  0  0  0  0  0
   -1.9486    4.8750    0.0000 O   0  0  0  0  0  0  0  0  0  0  0  0
   -3.2476    2.6250    0.0000 O   0  0  0  0  0  0  0  0  0  0  0  0
  3  1  1  0
  3  4  2  0
  5  4  1  0
  6  5  2  0
  7  2  1  0
  7  5  1  0
M  END
>  <NAME>  (3498) 
METHYL CROTONATE

>  <SYNONYMS>  (3498) 


>  <SPECTRUM TYPE>  (3498) 
MS1

>  <INSTRUMENT TYPE>  (3498) 
EI-B

>  <INSTRUMENT>  (3498) 
HITACHI M-80B

>  <ION MODE>  (3498) 
P

>  <INCHIKEY>  (3498) 
MCVVUJPXSBQTRZ-ONEGZZNKSA-N

>  <FORMULA>  (3498) 
C5H8O2

>  <EXACT MASS>  (3498) 
100.052429496

>  <MW>  (3498) 
100

>  <ID>  (3498) 
JP007098

>  <CONTRIBUTOR>  (3498) 
University of Tokyo Team, {Faculty of Engineering, University of Tokyo

>  <COMMENT>  (3498) 
SMILES=CC=CC(=O)OC
cas=623-43-8
InChI=InChI=1S/C5H8O2/c1-3-4-5(6)7-2/h3-4H,1-2H3/b4-3+
computed SMILES=O=C(OC)C=CC
accession=JP007098
date=2016.01.19 (Created 2008.10.21, modified 2011.05.06)
author=SODA AROMATIC CO., LTD.
license=CC BY-NC-SA
exact mass=100.05243
ionization energy=70 eV
ion type=[M]+*
computed spectral entropy=2.045126402585505
computed normalized entropy=0.7218398878700629
SPLASH=splash10-014r-9000000000-3ce10c58a2f5f2b26b75
submitter=submitter = University of Tokyo Team (Faculty of Engineering, University of Tokyo)
MoNA Rating=3.75

>  <NUM PEAKS>  (3498) 
17

>  <MASS SPECTRAL PEAKS>  (3498) 
15 9.78
26 1.73
27 3.27
29 6.17
37 2.43
38 6.89
39 40.21
40 2.83
41 47.02
42 2.65
53 1.1
59 5.35
68 2.47
69 99.99
70 4.9
85 21.93
100 15.56

$$$$

     RDKit          2D

 15 15  0  0  0  0  0  0  0  0999 V2000
   -7.4692    4.2571    0.0000 C   0  0  0  0  0  0  0  0  0  0  0  0
   -4.8712    5.7571    0.0000 C   0  0  0  0  0  0  0  0  0  0  0  0
   -6.1702    3.5071    0.0000 C   0  0  0  0  0  0  0  0  0  0  0  0
    4.2221    2.0071    0.0000 C   0  0  0  0  0  0  0  0  0  0  0  0
    4.2226    3.5079    0.0000 C   0  0  0  0  0  0  0  0  0  0  0  0
    2.9226    1.2563    0.0000 C   0  0  0  0  0  0  0  0  0  0  0  0
    2.9236    4.2579    0.0000 C   0  0  0  0  0  0  0  0  0  0  0  0
    1.6236    2.0063    0.0000 C   0  0  0  0  0  0  0  0  0  0  0  0
    0.3250    4.2571    0.0000 C   0  0  0  0  0  0  0  0  0  0  0  0
   -0.9740    3.5071    0.0000 C   0  0  0  0  0  0  0  0  0  0  0  0
   -4.8712    4.2571    0.0000 C   0  0  0  0  0  0  0  0  0  0  0  0
    1.6240    3.5071    0.0000 C   0  0  0  0  0  0  0  0  0  0  0  0
   -3.5721    3.5071    0.0000 C   0  0  0  0  0  0  0  0  0  0  0  0
   -3.5721    2.0071    0.0000 O   0  0  0  0  0  0  0  0  0  0  0  0
   -2.2731    4.2571    0.0000 O   0  0  0  0  0  0  0  0  0  0  0  0
  3  1  1  0
  5  4  2  0
  6  4  1  0
  7  5  1  0
  8  6  2  0
 10  9  1  0
 11  2  1  0
 11  3  1  0
 12  7  2  0
 12  8  1  0
 12  9  1  0
 13 11  1  0
 14 13  2  0
 15 10  1  0
 15 13  1  0
M  END
>  <NAME>  (3499) 
PHENYLETHYL 2-METHYLBUTYRATE

>  <SYNONYMS>  (3499) 


>  <SPECTRUM TYPE>  (3499) 
MS1

>  <INSTRUMENT TYPE>  (3499) 
EI-B

>  <INSTRUMENT>  (3499) 
HITACHI M-80B

>  <ION MODE>  (3499) 
P

>  <INCHIKEY>  (3499) 
KVKKTLBBYFABAZ-UHFFFAOYSA-N

>  <FORMULA>  (3499) 
C13H18O2

>  <EXACT MASS>  (3499) 
206.130679816

>  <MW>  (3499) 
206

>  <ID>  (3499) 
JP007097

>  <CONTRIBUTOR>  (3499) 
University of Tokyo Team, {Faculty of Engineering, University of Tokyo

>  <COMMENT>  (3499) 
SMILES=CCC(C)C(=O)OCCc(c1)cccc1
InChI=InChI=1S/C13H18O2/c1-3-11(2)13(14)15-10-9-12-7-5-4-6-8-12/h4-8,11H,3,9-10H2,1-2H3
computed SMILES=O=C(OCCC=1C=CC=CC1)C(C)CC
accession=JP007097
date=2016.01.19 (Created 2008.10.21, modified 2011.05.06)
author=SODA AROMATIC CO., LTD.
license=CC BY-NC-SA
exact mass=206.13068
ionization energy=70 eV
ion type=[M]+*
computed spectral entropy=1.9583693915300473
computed normalized entropy=0.6537197628834613
SPLASH=splash10-0udi-6900000000-9602626c2b7551635129
submitter=submitter = University of Tokyo Team (Faculty of Engineering, University of Tokyo)
MoNA Rating=3.75

>  <NUM PEAKS>  (3499) 
20

>  <MASS SPECTRAL PEAKS>  (3499) 
27 3.57
29 7.24
39 3.47
41 7.61
51 2.24
55 1.27
56 1
57 30.79
58 1.14
65 2.55
77 5.79
78 2.36
79 3.12
85 5.93
91 6.58
92 1.08
103 3.83
104 99.99
105 17.66
106 1.02

$$$$

     RDKit          2D

 17 17  0  0  1  0  0  0  0  0999 V2000
    7.5051   -1.3310    0.0000 C   0  0  0  0  0  0  0  0  0  0  0  0
   -1.5890   -3.5800    0.0000 C   0  0  0  0  0  0  0  0  0  0  0  0
    1.0090   -3.5800    0.0000 C   0  0  0  0  0  0  0  0  0  0  0  0
   -0.2900    3.1700    0.0000 C   0  0  0  0  0  0  0  0  0  0  0  0
    4.9068   -2.8306    0.0000 C   0  0  0  0  0  0  0  0  0  0  0  0
    6.2062   -0.5808    0.0000 C   0  0  0  0  0  0  0  0  0  0  0  0
   -1.5900    0.9200    0.0000 C   0  0  0  0  0  0  0  0  0  0  0  0
   -1.5900   -0.5800    0.0000 C   0  0  0  0  0  0  0  0  0  0  0  0
    1.0100    0.9200    0.0000 C   0  0  0  0  0  0  0  0  0  0  0  0
   -0.2900   -2.8300    0.0000 C   0  0  0  0  0  0  0  0  0  0  0  0
   -0.2900    1.6700    0.0000 C   0  0  0  0  0  0  0  0  0  0  0  0
    4.9070   -1.3306    0.0000 C   0  0  0  0  0  0  0  0  0  0  0  0
   -0.2900   -1.3300    0.0000 C   0  0  0  0  0  0  0  0  0  0  0  0
    1.0100   -0.5800    0.0000 C   0  0  0  0  0  0  0  0  0  0  0  0
    3.6081   -0.5804    0.0000 C   0  0  0  0  0  0  0  0  0  0  0  0
    3.6083    0.9196    0.0000 O   0  0  0  0  0  0  0  0  0  0  0  0
    2.3089   -1.3302    0.0000 O   0  0  0  0  0  0  0  0  0  0  0  0
  6  1  1  0
  8  7  1  0
 10  2  1  0
 10  3  1  0
 11  4  1  6
 11  7  1  0
 11  9  1  0
 12  5  1  0
 12  6  1  0
 13  8  1  0
 13 10  1  1
 14  9  1  0
 14 13  1  0
 15 12  1  0
 16 15  2  0
 14 17  1  6
 17 15  1  0
M  END
>  <NAME>  (3500) 
L-MENTHYL 2-METHYLBUTYRATE

>  <SYNONYMS>  (3500) 
5-METHYL-2-(1-METHYLETHYL)CYCLOHEXYL 2-METHYLBUTYRATE

>  <SPECTRUM TYPE>  (3500) 
MS1

>  <INSTRUMENT TYPE>  (3500) 
EI-B

>  <INSTRUMENT>  (3500) 
HITACHI M-80B

>  <ION MODE>  (3500) 
P

>  <INCHIKEY>  (3500) 
FGHREPYEIHRUKM-FUEJHIMDSA-N

>  <FORMULA>  (3500) 
C15H28O2

>  <EXACT MASS>  (3500) 
240.208930136

>  <MW>  (3500) 
240

>  <ID>  (3500) 
JP007096

>  <CONTRIBUTOR>  (3500) 
University of Tokyo Team, {Faculty of Engineering, University of Tokyo

>  <COMMENT>  (3500) 
SMILES=CCC(C)C(=O)OC([H])(C1)C([H])(C(C)C)CCC([H])(C)1
InChI=InChI=1S/C15H28O2/c1-6-12(5)15(16)17-14-9-11(4)7-8-13(14)10(2)3/h10-14H,6-9H2,1-5H3/t11-,12?,13+,14-/m0/s1
computed SMILES=O=C(OC1CC(C)CCC1C(C)C)C(C)CC
accession=JP007096
date=2016.01.19 (Created 2008.10.21, modified 2011.05.06)
author=SODA AROMATIC CO., LTD.
license=CC BY-NC-SA
exact mass=240.20893
ionization energy=70 eV
ion type=[M]+*
computed spectral entropy=3.045830541825797
computed normalized entropy=0.8256790658824609
SPLASH=splash10-0a5i-9100000000-06b1de184280581c4051
submitter=submitter = University of Tokyo Team (Faculty of Engineering, University of Tokyo)
MoNA Rating=3.75

>  <NUM PEAKS>  (3500) 
40

>  <MASS SPECTRAL PEAKS>  (3500) 
27 10.31
29 22.02
39 7.46
41 41.42
42 2.84
43 18.16
53 3.94
54 3.89
55 31.02
56 5.52
57 99.99
58 3.42
65 1.17
67 11.25
68 3.96
69 21.47
70 1.85
71 3.8
77 1.41
79 2.48
80 2.77
81 33.14
82 13.24
83 48.4
84 3.32
85 29.35
86 1.44
93 1.2
94 4.91
95 51.15
96 13.75
97 9.13
103 2.79
109 3.35
110 2.21
123 15.98
124 1.34
137 2.09
138 48.73
139 11.48

$$$$

     RDKit          2D

 15 14  0  0  0  0  0  0  0  0999 V2000
    3.8971    6.7500    0.0000 C   0  0  0  0  0  0  0  0  0  0  0  0
  -11.6913    6.7500    0.0000 C   0  0  0  0  0  0  0  0  0  0  0  0
   -9.0933    5.2500    0.0000 C   0  0  0  0  0  0  0  0  0  0  0  0
    2.5981    7.5000    0.0000 C   0  0  0  0  0  0  0  0  0  0  0  0
  -10.3923    7.5000    0.0000 C   0  0  0  0  0  0  0  0  0  0  0  0
    1.2990    6.7500    0.0000 C   0  0  0  0  0  0  0  0  0  0  0  0
    0.0000    7.5000    0.0000 C   0  0  0  0  0  0  0  0  0  0  0  0
   -1.2990    6.7500    0.0000 C   0  0  0  0  0  0  0  0  0  0  0  0
   -2.5981    7.5000    0.0000 C   0  0  0  0  0  0  0  0  0  0  0  0
   -3.8971    6.7500    0.0000 C   0  0  0  0  0  0  0  0  0  0  0  0
   -5.1962    7.5000    0.0000 C   0  0  0  0  0  0  0  0  0  0  0  0
   -9.0933    6.7500    0.0000 C   0  0  0  0  0  0  0  0  0  0  0  0
   -7.7942    7.5000    0.0000 C   0  0  0  0  0  0  0  0  0  0  0  0
   -7.7942    9.0000    0.0000 O   0  0  0  0  0  0  0  0  0  0  0  0
   -6.4952    6.7500    0.0000 O   0  0  0  0  0  0  0  0  0  0  0  0
  4  1  1  0
  5  2  1  0
  6  4  1  0
  7  6  1  0
  8  7  1  0
  9  8  1  0
 10  9  1  0
 11 10  1  0
 12  3  1  0
 12  5  1  0
 13 12  1  0
 14 13  2  0
 15 11  1  0
 15 13  1  0
M  END
>  <NAME>  (3501) 
OCTYL 2-METHYLBUTYRATE

>  <SYNONYMS>  (3501) 


>  <SPECTRUM TYPE>  (3501) 
MS1

>  <INSTRUMENT TYPE>  (3501) 
EI-B

>  <INSTRUMENT>  (3501) 
HITACHI M-80B

>  <ION MODE>  (3501) 
P

>  <INCHIKEY>  (3501) 
BCOJVEMHTBSAOE-UHFFFAOYSA-N

>  <FORMULA>  (3501) 
C13H26O2

>  <EXACT MASS>  (3501) 
214.193280072

>  <MW>  (3501) 
214

>  <ID>  (3501) 
JP007095

>  <CONTRIBUTOR>  (3501) 
University of Tokyo Team, {Faculty of Engineering, University of Tokyo

>  <COMMENT>  (3501) 
SMILES=CCCCCCCCOC(=O)C(C)CC
InChI=InChI=1S/C13H26O2/c1-4-6-7-8-9-10-11-15-13(14)12(3)5-2/h12H,4-11H2,1-3H3
computed SMILES=O=C(OCCCCCCCC)C(C)CC
accession=JP007095
date=2016.01.19 (Created 2008.10.21, modified 2011.05.06)
author=SODA AROMATIC CO., LTD.
license=CC BY-NC-SA
exact mass=214.19328
ionization energy=70 eV
ion type=[M]+*
computed spectral entropy=2.904860579347467
computed normalized entropy=0.8237559827107174
SPLASH=splash10-0pbc-9200000000-deeb56bfe2fe67b6bd5a
submitter=submitter = University of Tokyo Team (Faculty of Engineering, University of Tokyo)
MoNA Rating=3.75

>  <NUM PEAKS>  (3501) 
34

>  <MASS SPECTRAL PEAKS>  (3501) 
27 13.36
29 32.74
39 8.69
41 49.74
42 14.44
43 34.96
53 1.92
54 2.18
55 23.62
56 28.4
57 99.99
58 3.4
67 1.63
68 3.3
69 16.49
70 30.63
71 19.24
72 1.15
74 15.48
75 2.72
82 3.58
83 18.14
84 16.68
85 35.97
86 1.78
87 3.55
97 1.78
102 2.97
103 82.48
104 4.26
112 20.79
113 1.7
157 1.54
186 1.28

$$$$

     RDKit          2D

 13 12  0  0  0  0  0  0  0  0999 V2000
   -9.7428    5.6250    0.0000 C   0  0  0  0  0  0  0  0  0  0  0  0
    3.2476    5.6250    0.0000 C   0  0  0  0  0  0  0  0  0  0  0  0
    0.6495    7.1250    0.0000 C   0  0  0  0  0  0  0  0  0  0  0  0
   -8.4437    4.8750    0.0000 C   0  0  0  0  0  0  0  0  0  0  0  0
    1.9486    4.8750    0.0000 C   0  0  0  0  0  0  0  0  0  0  0  0
   -7.1447    5.6250    0.0000 C   0  0  0  0  0  0  0  0  0  0  0  0
   -5.8457    4.8750    0.0000 C   0  0  0  0  0  0  0  0  0  0  0  0
   -4.5466    5.6250    0.0000 C   0  0  0  0  0  0  0  0  0  0  0  0
   -3.2476    4.8750    0.0000 C   0  0  0  0  0  0  0  0  0  0  0  0
    0.6495    5.6250    0.0000 C   0  0  0  0  0  0  0  0  0  0  0  0
   -0.6495    4.8750    0.0000 C   0  0  0  0  0  0  0  0  0  0  0  0
   -0.6495    3.3750    0.0000 O   0  0  0  0  0  0  0  0  0  0  0  0
   -1.9486    5.6250    0.0000 O   0  0  0  0  0  0  0  0  0  0  0  0
  4  1  1  0
  5  2  1  0
  6  4  1  0
  7  6  1  0
  8  7  1  0
  9  8  1  0
 10  3  1  0
 10  5  1  0
 11 10  1  0
 12 11  2  0
 13  9  1  0
 13 11  1  0
M  END
>  <NAME>  (3502) 
HEXYL 2-METHYLBUTYRATE

>  <SYNONYMS>  (3502) 


>  <SPECTRUM TYPE>  (3502) 
MS1

>  <INSTRUMENT TYPE>  (3502) 
EI-B

>  <INSTRUMENT>  (3502) 
HITACHI M-80B

>  <ION MODE>  (3502) 
P

>  <INCHIKEY>  (3502) 
YUECNVSODFDKOQ-UHFFFAOYSA-N

>  <FORMULA>  (3502) 
C11H22O2

>  <EXACT MASS>  (3502) 
186.161979944

>  <MW>  (3502) 
186

>  <ID>  (3502) 
JP007094

>  <CONTRIBUTOR>  (3502) 
University of Tokyo Team, {Faculty of Engineering, University of Tokyo

>  <COMMENT>  (3502) 
SMILES=CCCCCCOC(=O)C(C)CC
InChI=InChI=1S/C11H22O2/c1-4-6-7-8-9-13-11(12)10(3)5-2/h10H,4-9H2,1-3H3
computed SMILES=O=C(OCCCCCC)C(C)CC
accession=JP007094
date=2016.01.19 (Created 2008.10.21, modified 2011.05.06)
author=SODA AROMATIC CO., LTD.
license=CC BY-NC-SA
exact mass=186.16198
ionization energy=70 eV
ion type=[M]+*
computed spectral entropy=2.680215678611387
computed normalized entropy=0.7733467736090992
SPLASH=splash10-0pbc-9100000000-1821ad6839ddf9e7fae2
submitter=submitter = University of Tokyo Team (Faculty of Engineering, University of Tokyo)
MoNA Rating=3.75

>  <NUM PEAKS>  (3502) 
32

>  <MASS SPECTRAL PEAKS>  (3502) 
26 1.09
27 22.21
29 45.51
31 1.18
39 13.17
41 56.63
42 20.09
43 77.51
44 1.99
45 1.48
53 2.2
54 1.85
56 45.43
57 99.99
58 4.47
69 15.13
70 1.11
73 1.47
74 21.37
75 4.15
83 2.5
84 37.94
85 56.83
86 3.3
87 6.96
99 1.01
102 4.54
103 97.04
104 5.82
115 1.05
129 2.29
158 2.16

$$$$

     RDKit          2D

 13 12  0  0  0  0  0  0  0  0999 V2000
    6.8200    7.3125    0.0000 C   0  0  0  0  0  0  0  0  0  0  0  0
   -4.8714    5.0625    0.0000 C   0  0  0  0  0  0  0  0  0  0  0  0
   -2.2733    6.5625    0.0000 C   0  0  0  0  0  0  0  0  0  0  0  0
    5.5209    6.5625    0.0000 C   0  0  0  0  0  0  0  0  0  0  0  0
   -3.5724    4.3125    0.0000 C   0  0  0  0  0  0  0  0  0  0  0  0
    5.5209    5.0625    0.0000 C   0  0  0  0  0  0  0  0  0  0  0  0
    4.2219    4.3125    0.0000 C   0  0  0  0  0  0  0  0  0  0  0  0
    2.9228    5.0625    0.0000 C   0  0  0  0  0  0  0  0  0  0  0  0
    1.6238    4.3125    0.0000 C   0  0  0  0  0  0  0  0  0  0  0  0
   -2.2733    5.0625    0.0000 C   0  0  0  0  0  0  0  0  0  0  0  0
   -0.9743    4.3125    0.0000 C   0  0  0  0  0  0  0  0  0  0  0  0
   -0.9743    2.8125    0.0000 O   0  0  0  0  0  0  0  0  0  0  0  0
    0.3248    5.0625    0.0000 O   0  0  0  0  0  0  0  0  0  0  0  0
  4  1  1  0
  5  2  1  0
  6  4  1  0
  6  7  2  0
  8  7  1  0
  9  8  1  0
 10  3  1  0
 10  5  1  0
 11 10  1  0
 12 11  2  0
 13  9  1  0
 13 11  1  0
M  END
>  <NAME>  (3503) 
CIS-3-HEXENYL 2-METHYLBUTYRATE

>  <SYNONYMS>  (3503) 


>  <SPECTRUM TYPE>  (3503) 
MS1

>  <INSTRUMENT TYPE>  (3503) 
EI-B

>  <INSTRUMENT>  (3503) 
HITACHI M-80B

>  <ION MODE>  (3503) 
P

>  <INCHIKEY>  (3503) 
JKKGTSUICJWEKB-SREVYHEPSA-N

>  <FORMULA>  (3503) 
C11H20O2

>  <EXACT MASS>  (3503) 
184.14632988

>  <MW>  (3503) 
184

>  <ID>  (3503) 
JP007093

>  <CONTRIBUTOR>  (3503) 
University of Tokyo Team, {Faculty of Engineering, University of Tokyo

>  <COMMENT>  (3503) 
SMILES=CCC=CCCOC(=O)C(C)CC
InChI=InChI=1S/C11H20O2/c1-4-6-7-8-9-13-11(12)10(3)5-2/h6-7,10H,4-5,8-9H2,1-3H3/b7-6-
computed SMILES=O=C(OCCC=CCC)C(C)CC
accession=JP007093
date=2016.01.19 (Created 2008.10.21, modified 2011.05.06)
author=SODA AROMATIC CO., LTD.
license=CC BY-NC-SA
exact mass=184.14633
ionization energy=70 eV
ion type=[M]+*
computed spectral entropy=2.3537128486833683
computed normalized entropy=0.7614624788236527
SPLASH=splash10-0api-9000000000-e7e4b03dfecd1df03363
submitter=submitter = University of Tokyo Team (Faculty of Engineering, University of Tokyo)
MoNA Rating=3.75

>  <NUM PEAKS>  (3503) 
22

>  <MASS SPECTRAL PEAKS>  (3503) 
27 12.63
29 23.62
39 13.78
41 39.22
42 3.47
43 1.8
53 5.51
54 6.93
55 20.41
56 4.29
57 84.87
58 3.06
67 75.43
68 4.86
69 1.32
79 1.05
81 5.75
82 99.99
83 9.32
85 28.88
86 1.45
103 1.81

$$$$

     RDKit          2D

 12 11  0  0  0  0  0  0  0  0999 V2000
    2.5981    4.5000    0.0000 C   0  0  0  0  0  0  0  0  0  0  0  0
   -7.7942    4.5000    0.0000 C   0  0  0  0  0  0  0  0  0  0  0  0
    0.0000    3.0000    0.0000 C   0  0  0  0  0  0  0  0  0  0  0  0
   -5.1962    3.0000    0.0000 C   0  0  0  0  0  0  0  0  0  0  0  0
    1.2990    5.2500    0.0000 C   0  0  0  0  0  0  0  0  0  0  0  0
   -6.4952    5.2500    0.0000 C   0  0  0  0  0  0  0  0  0  0  0  0
   -1.2990    5.2500    0.0000 C   0  0  0  0  0  0  0  0  0  0  0  0
    0.0000    4.5000    0.0000 C   0  0  0  0  0  0  0  0  0  0  0  0
   -5.1962    4.5000    0.0000 C   0  0  0  0  0  0  0  0  0  0  0  0
   -3.8971    5.2500    0.0000 C   0  0  0  0  0  0  0  0  0  0  0  0
   -3.8971    6.7500    0.0000 O   0  0  0  0  0  0  0  0  0  0  0  0
   -2.5981    4.5000    0.0000 O   0  0  0  0  0  0  0  0  0  0  0  0
  5  1  1  0
  6  2  1  0
  8  3  1  0
  8  5  1  0
  8  7  1  0
  9  4  1  0
  9  6  1  0
 10  9  1  0
 11 10  2  0
 12  7  1  0
 12 10  1  0
M  END
>  <NAME>  (3504) 
2-METHYLBUTYL 2-METHYLBUTYRATE

>  <SYNONYMS>  (3504) 


>  <SPECTRUM TYPE>  (3504) 
MS1

>  <INSTRUMENT TYPE>  (3504) 
EI-B

>  <INSTRUMENT>  (3504) 
HITACHI M-80B

>  <ION MODE>  (3504) 
P

>  <INCHIKEY>  (3504) 
PVYFCGRBIREQLL-UHFFFAOYSA-N

>  <FORMULA>  (3504) 
C10H20O2

>  <EXACT MASS>  (3504) 
172.14632988

>  <MW>  (3504) 
172

>  <ID>  (3504) 
JP007092

>  <CONTRIBUTOR>  (3504) 
University of Tokyo Team, {Faculty of Engineering, University of Tokyo

>  <COMMENT>  (3504) 
SMILES=CCC(C)COC(=O)C(C)CC
cas=2445-78-5
InChI=InChI=1S/C10H20O2/c1-5-8(3)7-12-10(11)9(4)6-2/h8-9H,5-7H2,1-4H3
computed SMILES=O=C(OCC(C)CC)C(C)CC
accession=JP007092
date=2016.01.19 (Created 2008.10.21, modified 2011.05.06)
author=SODA AROMATIC CO., LTD.
license=CC BY-NC-SA
exact mass=172.14633
ionization energy=70 eV
ion type=[M]+*
computed spectral entropy=2.5966622406554793
computed normalized entropy=0.779262567086241
SPLASH=splash10-0abl-9000000000-82e9fdbb043817d4c2eb
submitter=submitter = University of Tokyo Team (Faculty of Engineering, University of Tokyo)
MoNA Rating=3.75

>  <NUM PEAKS>  (3504) 
28

>  <MASS SPECTRAL PEAKS>  (3504) 
26 1.21
27 18.58
29 38.5
31 1.36
39 13.25
41 43.08
42 12.62
43 52.55
44 1.29
45 2.3
53 1.94
55 27.44
56 9.02
57 99.99
58 4.44
69 2.97
70 93.9
71 27.86
72 1.18
73 1.07
74 10.06
85 81.75
86 4.74
87 4.94
102 2.98
103 16.64
115 3.25
144 2.33

$$$$

     RDKit          2D

 12 11  0  0  0  0  0  0  0  0999 V2000
    2.5981    4.5000    0.0000 C   0  0  0  0  0  0  0  0  0  0  0  0
   -7.7942    4.5000    0.0000 C   0  0  0  0  0  0  0  0  0  0  0  0
   -6.4952    6.7500    0.0000 C   0  0  0  0  0  0  0  0  0  0  0  0
    0.0000    3.0000    0.0000 C   0  0  0  0  0  0  0  0  0  0  0  0
    1.2990    5.2500    0.0000 C   0  0  0  0  0  0  0  0  0  0  0  0
   -5.1962    4.5000    0.0000 C   0  0  0  0  0  0  0  0  0  0  0  0
   -3.8971    5.2500    0.0000 C   0  0  0  0  0  0  0  0  0  0  0  0
   -6.4952    5.2500    0.0000 C   0  0  0  0  0  0  0  0  0  0  0  0
    0.0000    4.5000    0.0000 C   0  0  0  0  0  0  0  0  0  0  0  0
   -1.2990    5.2500    0.0000 C   0  0  0  0  0  0  0  0  0  0  0  0
   -1.2990    6.7500    0.0000 O   0  0  0  0  0  0  0  0  0  0  0  0
   -2.5981    4.5000    0.0000 O   0  0  0  0  0  0  0  0  0  0  0  0
  5  1  1  0
  7  6  1  0
  8  2  1  0
  8  3  1  0
  8  6  1  0
  9  4  1  0
  9  5  1  0
 10  9  1  0
 11 10  2  0
 12  7  1  0
 12 10  1  0
M  END
>  <NAME>  (3505) 
ISOPENTYL 2-METHYLBUTYRATE

>  <SYNONYMS>  (3505) 


>  <SPECTRUM TYPE>  (3505) 
MS1

>  <INSTRUMENT TYPE>  (3505) 
EI-B

>  <INSTRUMENT>  (3505) 
HITACHI M-80B

>  <ION MODE>  (3505) 
P

>  <INCHIKEY>  (3505) 
VGIRHYHLQKDEPP-UHFFFAOYSA-N

>  <FORMULA>  (3505) 
C10H20O2

>  <EXACT MASS>  (3505) 
172.14632988

>  <MW>  (3505) 
172

>  <ID>  (3505) 
JP007091

>  <CONTRIBUTOR>  (3505) 
University of Tokyo Team, {Faculty of Engineering, University of Tokyo

>  <COMMENT>  (3505) 
SMILES=CCC(C)C(=O)OCCC(C)C
InChI=InChI=1S/C10H20O2/c1-5-9(4)10(11)12-7-6-8(2)3/h8-9H,5-7H2,1-4H3
computed SMILES=O=C(OCCC(C)C)C(C)CC
ionization energy=70 eV
accession=JP007091
date=2016.01.19 (Created 2008.10.21, modified 2011.05.06)
author=SODA AROMATIC CO., LTD.
license=CC BY-NC-SA
exact mass=172.14633
ion type=[M]+*
computed spectral entropy=2.5765030520443264
computed normalized entropy=0.7732127617547869
SPLASH=splash10-05fu-9000000000-f126e8948b12ca2028a9
submitter=submitter = University of Tokyo Team (Faculty of Engineering, University of Tokyo)
MoNA Rating=3.75

>  <NUM PEAKS>  (3505) 
28

>  <MASS SPECTRAL PEAKS>  (3505) 
27 14.46
29 26.22
39 10.63
41 37.07
42 10.53
43 51.67
44 1.32
45 1.55
53 1.76
54 1.01
55 32.24
56 7.39
57 72.31
58 2.65
69 4.17
70 99.99
71 26
72 1.17
74 5.47
85 40.69
86 2.1
87 2.77
102 1.91
103 20.53
104 1.01
115 1.82
129 2.22
144 1.14

$$$$

     RDKit          2D

 12 11  0  0  0  0  0  0  0  0999 V2000
   -8.4437    5.6250    0.0000 C   0  0  0  0  0  0  0  0  0  0  0  0
    3.2476    4.8750    0.0000 C   0  0  0  0  0  0  0  0  0  0  0  0
    0.6495    3.3750    0.0000 C   0  0  0  0  0  0  0  0  0  0  0  0
   -7.1447    4.8750    0.0000 C   0  0  0  0  0  0  0  0  0  0  0  0
    1.9486    5.6250    0.0000 C   0  0  0  0  0  0  0  0  0  0  0  0
   -5.8457    5.6250    0.0000 C   0  0  0  0  0  0  0  0  0  0  0  0
   -4.5466    4.8750    0.0000 C   0  0  0  0  0  0  0  0  0  0  0  0
   -3.2476    5.6250    0.0000 C   0  0  0  0  0  0  0  0  0  0  0  0
    0.6495    4.8750    0.0000 C   0  0  0  0  0  0  0  0  0  0  0  0
   -0.6495    5.6250    0.0000 C   0  0  0  0  0  0  0  0  0  0  0  0
   -0.6495    7.1250    0.0000 O   0  0  0  0  0  0  0  0  0  0  0  0
   -1.9486    4.8750    0.0000 O   0  0  0  0  0  0  0  0  0  0  0  0
  4  1  1  0
  5  2  1  0
  6  4  1  0
  7  6  1  0
  8  7  1  0
  9  3  1  0
  9  5  1  0
 10  9  1  0
 11 10  2  0
 12  8  1  0
 12 10  1  0
M  END
>  <NAME>  (3506) 
PENTYL 2-METHYLBUTYRATE

>  <SYNONYMS>  (3506) 


>  <SPECTRUM TYPE>  (3506) 
MS1

>  <INSTRUMENT TYPE>  (3506) 
EI-B

>  <INSTRUMENT>  (3506) 
HITACHI M-80B

>  <ION MODE>  (3506) 
P

>  <INCHIKEY>  (3506) 
RHNBXPIJLXBHMF-UHFFFAOYSA-N

>  <FORMULA>  (3506) 
C10H20O2

>  <EXACT MASS>  (3506) 
172.14632988

>  <MW>  (3506) 
172

>  <ID>  (3506) 
JP007090

>  <CONTRIBUTOR>  (3506) 
University of Tokyo Team, {Faculty of Engineering, University of Tokyo

>  <COMMENT>  (3506) 
SMILES=CCCCCOC(=O)C(C)CC
InChI=InChI=1S/C10H20O2/c1-4-6-7-8-12-10(11)9(3)5-2/h9H,4-8H2,1-3H3
computed SMILES=O=C(OCCCCC)C(C)CC
accession=JP007090
date=2016.01.19 (Created 2008.10.21, modified 2011.05.06)
author=SODA AROMATIC CO., LTD.
license=CC BY-NC-SA
exact mass=172.14633
ionization energy=70 eV
ion type=[M]+*
computed spectral entropy=2.740171662817596
computed normalized entropy=0.7979562822012398
SPLASH=splash10-0kfx-9100000000-977abe58a768150e0a15
submitter=submitter = University of Tokyo Team (Faculty of Engineering, University of Tokyo)
MoNA Rating=3.75

>  <NUM PEAKS>  (3506) 
31

>  <MASS SPECTRAL PEAKS>  (3506) 
26 1.54
27 21.81
29 47.54
30 1.04
31 1.53
39 14.24
41 52.65
42 25.22
43 64.49
44 1.99
45 1.75
53 2.16
54 1
55 25.17
56 10.46
57 99.99
58 4.8
69 6.37
70 53.4
71 12.67
73 2.01
74 23.3
75 2.26
85 63.42
86 3.13
87 9.81
102 5.23
103 98.42
104 5.92
115 4.29
144 3.86

$$$$

     RDKit          2D

 11 10  0  0  0  0  0  0  0  0999 V2000
    2.2733    4.3125    0.0000 C   0  0  0  0  0  0  0  0  0  0  0  0
   -6.8200    5.0625    0.0000 C   0  0  0  0  0  0  0  0  0  0  0  0
   -5.5209    2.8125    0.0000 C   0  0  0  0  0  0  0  0  0  0  0  0
   -0.3248    2.8125    0.0000 C   0  0  0  0  0  0  0  0  0  0  0  0
    0.9743    5.0625    0.0000 C   0  0  0  0  0  0  0  0  0  0  0  0
   -4.2219    5.0625    0.0000 C   0  0  0  0  0  0  0  0  0  0  0  0
   -5.5209    4.3125    0.0000 C   0  0  0  0  0  0  0  0  0  0  0  0
   -0.3248    4.3125    0.0000 C   0  0  0  0  0  0  0  0  0  0  0  0
   -1.6238    5.0625    0.0000 C   0  0  0  0  0  0  0  0  0  0  0  0
   -1.6238    6.5625    0.0000 O   0  0  0  0  0  0  0  0  0  0  0  0
   -2.9228    4.3125    0.0000 O   0  0  0  0  0  0  0  0  0  0  0  0
  5  1  1  0
  7  2  1  0
  7  3  1  0
  7  6  1  0
  8  4  1  0
  8  5  1  0
  9  8  1  0
 10  9  2  0
 11  6  1  0
 11  9  1  0
M  END
>  <NAME>  (3507) 
ISOBUTYL 2-METHYLBUTYRATE

>  <SYNONYMS>  (3507) 


>  <SPECTRUM TYPE>  (3507) 
MS1

>  <INSTRUMENT TYPE>  (3507) 
EI-B

>  <INSTRUMENT>  (3507) 
HITACHI M-80B

>  <ION MODE>  (3507) 
P

>  <INCHIKEY>  (3507) 
NWZQCEQAPBRMFX-UHFFFAOYSA-N

>  <FORMULA>  (3507) 
C9H18O2

>  <EXACT MASS>  (3507) 
158.130679816

>  <MW>  (3507) 
158

>  <ID>  (3507) 
JP007089

>  <CONTRIBUTOR>  (3507) 
University of Tokyo Team, {Faculty of Engineering, University of Tokyo

>  <COMMENT>  (3507) 
SMILES=CCC(C)C(=O)OCC(C)C
cas=2445-67-2
InChI=InChI=1S/C9H18O2/c1-5-8(4)9(10)11-6-7(2)3/h7-8H,5-6H2,1-4H3
computed SMILES=O=C(OCC(C)C)C(C)CC
accession=JP007089
date=2016.01.19 (Created 2008.10.21, modified 2011.05.06)
author=SODA AROMATIC CO., LTD.
license=CC BY-NC-SA
exact mass=158.13068
ionization energy=70 eV
ion type=[M]+*
computed spectral entropy=2.281422894765449
computed normalized entropy=0.761557671526795
SPLASH=splash10-0a4i-9100000000-51b1e6cba3f9da42b5ad
submitter=submitter = University of Tokyo Team (Faculty of Engineering, University of Tokyo)
MoNA Rating=3.75

>  <NUM PEAKS>  (3507) 
20

>  <MASS SPECTRAL PEAKS>  (3507) 
27 10.59
29 25.52
39 9.15
41 34.96
42 2.33
43 4.66
55 4.92
56 37.7
57 99.99
58 4.71
73 2.17
74 10.19
85 66.57
86 2.98
87 4.51
102 2.13
103 29
104 1.4
115 2.16
130 3.79

$$$$

     RDKit          2D

 11 10  0  0  0  0  0  0  0  0999 V2000
    2.5981    4.5000    0.0000 C   0  0  0  0  0  0  0  0  0  0  0  0
   -7.7942    4.5000    0.0000 C   0  0  0  0  0  0  0  0  0  0  0  0
   -5.1962    3.0000    0.0000 C   0  0  0  0  0  0  0  0  0  0  0  0
    1.2990    5.2500    0.0000 C   0  0  0  0  0  0  0  0  0  0  0  0
   -6.4952    5.2500    0.0000 C   0  0  0  0  0  0  0  0  0  0  0  0
    0.0000    4.5000    0.0000 C   0  0  0  0  0  0  0  0  0  0  0  0
   -1.2990    5.2500    0.0000 C   0  0  0  0  0  0  0  0  0  0  0  0
   -5.1962    4.5000    0.0000 C   0  0  0  0  0  0  0  0  0  0  0  0
   -3.8971    5.2500    0.0000 C   0  0  0  0  0  0  0  0  0  0  0  0
   -3.8971    6.7500    0.0000 O   0  0  0  0  0  0  0  0  0  0  0  0
   -2.5981    4.5000    0.0000 O   0  0  0  0  0  0  0  0  0  0  0  0
  4  1  1  0
  5  2  1  0
  6  4  1  0
  7  6  1  0
  8  3  1  0
  8  5  1  0
  9  8  1  0
 10  9  2  0
 11  7  1  0
 11  9  1  0
M  END
>  <NAME>  (3508) 
BUTYL 2-METHYLBUTYRATE

>  <SYNONYMS>  (3508) 


>  <SPECTRUM TYPE>  (3508) 
MS1

>  <INSTRUMENT TYPE>  (3508) 
EI-B

>  <INSTRUMENT>  (3508) 
HITACHI M-80B

>  <ION MODE>  (3508) 
P

>  <INCHIKEY>  (3508) 
OTKQNSSMCDLVQV-UHFFFAOYSA-N

>  <FORMULA>  (3508) 
C9H18O2

>  <EXACT MASS>  (3508) 
158.130679816

>  <MW>  (3508) 
158

>  <ID>  (3508) 
JP007088

>  <CONTRIBUTOR>  (3508) 
University of Tokyo Team, {Faculty of Engineering, University of Tokyo

>  <COMMENT>  (3508) 
SMILES=CCCCOC(=O)C(C)CC
InChI=InChI=1S/C9H18O2/c1-4-6-7-11-9(10)8(3)5-2/h8H,4-7H2,1-3H3
computed SMILES=O=C(OCCCC)C(C)CC
accession=JP007088
date=2016.01.19 (Created 2008.10.21, modified 2011.05.06)
author=SODA AROMATIC CO., LTD.
license=CC BY-NC-SA
exact mass=158.13068
ionization energy=70 eV
ion type=[M]+*
computed spectral entropy=2.4794300666769895
computed normalized entropy=0.7610057092361827
SPLASH=splash10-0a4i-9100000000-bfda478a0239c2a9e67c
submitter=submitter = University of Tokyo Team (Faculty of Engineering, University of Tokyo)
MoNA Rating=3.75

>  <NUM PEAKS>  (3508) 
26

>  <MASS SPECTRAL PEAKS>  (3508) 
26 1.39
27 16.92
29 42.67
30 1.03
31 1.15
39 10.99
41 46.92
42 3.11
43 5.46
45 1.35
53 1.3
55 8.62
56 37.46
57 99.99
58 4.9
73 2.66
74 18.56
75 1.53
85 52.93
86 3.22
87 8.23
102 3.48
103 62.86
104 3.81
115 1.22
130 4.96

$$$$

     RDKit          2D

 10  9  0  0  0  0  0  0  0  0999 V2000
    1.9486    3.3750    0.0000 C   0  0  0  0  0  0  0  0  0  0  0  0
   -5.8457    3.3750    0.0000 C   0  0  0  0  0  0  0  0  0  0  0  0
   -4.5466    5.6250    0.0000 C   0  0  0  0  0  0  0  0  0  0  0  0
   -0.6495    1.8750    0.0000 C   0  0  0  0  0  0  0  0  0  0  0  0
    0.6495    4.1250    0.0000 C   0  0  0  0  0  0  0  0  0  0  0  0
   -4.5466    4.1250    0.0000 C   0  0  0  0  0  0  0  0  0  0  0  0
   -0.6495    3.3750    0.0000 C   0  0  0  0  0  0  0  0  0  0  0  0
   -1.9486    4.1250    0.0000 C   0  0  0  0  0  0  0  0  0  0  0  0
   -1.9486    5.6250    0.0000 O   0  0  0  0  0  0  0  0  0  0  0  0
   -3.2476    3.3750    0.0000 O   0  0  0  0  0  0  0  0  0  0  0  0
  5  1  1  0
  6  2  1  0
  6  3  1  0
  7  4  1  0
  7  5  1  0
  8  7  1  0
  9  8  2  0
 10  6  1  0
 10  8  1  0
M  END
>  <NAME>  (3509) 
ISOPROPYL 2-METHYLBUTYRATE

>  <SYNONYMS>  (3509) 


>  <SPECTRUM TYPE>  (3509) 
MS1

>  <INSTRUMENT TYPE>  (3509) 
EI-B

>  <INSTRUMENT>  (3509) 
HITACHI M-80B

>  <ION MODE>  (3509) 
P

>  <INCHIKEY>  (3509) 
DIRDKDDFAMNBNY-UHFFFAOYSA-N

>  <FORMULA>  (3509) 
C8H16O2

>  <EXACT MASS>  (3509) 
144.115029752

>  <MW>  (3509) 
144

>  <ID>  (3509) 
JP007087

>  <CONTRIBUTOR>  (3509) 
University of Tokyo Team, {Faculty of Engineering, University of Tokyo

>  <COMMENT>  (3509) 
SMILES=CCC(C)C(=O)OC(C)C
InChI=InChI=1S/C8H16O2/c1-5-7(4)8(9)10-6(2)3/h6-7H,5H2,1-4H3
computed SMILES=O=C(OC(C)C)C(C)CC
accession=JP007087
date=2016.01.19 (Created 2008.10.21, modified 2011.05.06)
author=SODA AROMATIC CO., LTD.
license=CC BY-NC-SA
exact mass=144.11503
ionization energy=70 eV
ion type=[M]+*
computed spectral entropy=2.574971480519174
computed normalized entropy=0.7727531346459239
SPLASH=splash10-052f-9100000000-7ab9569d04b425087b93
submitter=submitter = University of Tokyo Team (Faculty of Engineering, University of Tokyo)
MoNA Rating=3.75

>  <NUM PEAKS>  (3509) 
28

>  <MASS SPECTRAL PEAKS>  (3509) 
15 1.07
17 1.79
18 9.47
26 1.3
27 14.63
29 13.89
39 11.69
41 36.23
42 5.34
43 99.99
44 2.28
45 3.45
53 1.06
55 3.67
56 10.95
57 79.41
58 2.98
59 10.32
73 1.99
74 17.44
85 48.89
86 2.46
87 6.15
102 5.92
103 23.78
104 1.23
116 14.15
129 2.93

$$$$

     RDKit          2D

 10  9  0  0  0  0  0  0  0  0999 V2000
   -6.4952    4.5000    0.0000 C   0  0  0  0  0  0  0  0  0  0  0  0
    2.5981    3.7500    0.0000 C   0  0  0  0  0  0  0  0  0  0  0  0
   -0.0000    2.2500    0.0000 C   0  0  0  0  0  0  0  0  0  0  0  0
   -5.1962    3.7500    0.0000 C   0  0  0  0  0  0  0  0  0  0  0  0
    1.2990    4.5000    0.0000 C   0  0  0  0  0  0  0  0  0  0  0  0
   -3.8971    4.5000    0.0000 C   0  0  0  0  0  0  0  0  0  0  0  0
   -0.0000    3.7500    0.0000 C   0  0  0  0  0  0  0  0  0  0  0  0
   -1.2990    4.5000    0.0000 C   0  0  0  0  0  0  0  0  0  0  0  0
   -1.2990    6.0000    0.0000 O   0  0  0  0  0  0  0  0  0  0  0  0
   -2.5981    3.7500    0.0000 O   0  0  0  0  0  0  0  0  0  0  0  0
  4  1  1  0
  5  2  1  0
  6  4  1  0
  7  3  1  0
  7  5  1  0
  8  7  1  0
  9  8  2  0
 10  6  1  0
 10  8  1  0
M  END
>  <NAME>  (3510) 
PROPYL 2-METHYLBUTYRATE

>  <SYNONYMS>  (3510) 


>  <SPECTRUM TYPE>  (3510) 
MS1

>  <INSTRUMENT TYPE>  (3510) 
EI-B

>  <INSTRUMENT>  (3510) 
HITACHI M-80B

>  <ION MODE>  (3510) 
P

>  <INCHIKEY>  (3510) 
TZFQMSDUSOTCJC-UHFFFAOYSA-N

>  <FORMULA>  (3510) 
C8H16O2

>  <EXACT MASS>  (3510) 
144.115029752

>  <MW>  (3510) 
144

>  <ID>  (3510) 
JP007086

>  <CONTRIBUTOR>  (3510) 
University of Tokyo Team, {Faculty of Engineering, University of Tokyo

>  <COMMENT>  (3510) 
SMILES=CCCOC(=O)C(C)CC
InChI=InChI=1S/C8H16O2/c1-4-6-10-8(9)7(3)5-2/h7H,4-6H2,1-3H3
computed SMILES=O=C(OCCC)C(C)CC
accession=JP007086
date=2016.01.19 (Created 2008.10.21, modified 2011.05.06)
author=SODA AROMATIC CO., LTD.
license=CC BY-NC-SA
exact mass=144.11503
ionization energy=70 eV
ion type=[M]+*
computed spectral entropy=2.661377432989335
computed normalized entropy=0.7824825008211453
SPLASH=splash10-0pdu-9100000000-1c59ecccd9fed67fec30
submitter=submitter = University of Tokyo Team (Faculty of Engineering, University of Tokyo)
MoNA Rating=3.75

>  <NUM PEAKS>  (3510) 
30

>  <MASS SPECTRAL PEAKS>  (3510) 
15 1.07
26 2.35
27 27.07
29 32.99
30 1.2
31 2.74
39 14
41 49.82
42 11.2
43 49.39
44 1.23
45 2.48
53 1.22
55 5.74
56 11.38
57 99.99
58 4.63
59 4.99
69 1.27
73 3.57
74 25
75 3.57
85 68.29
86 4.44
87 12.81
102 3.65
103 70.05
104 4.19
115 1.96
116 12.24

$$$$

     RDKit          2D

  9  8  0  0  0  0  0  0  0  0999 V2000
    1.9486    3.3750    0.0000 C   0  0  0  0  0  0  0  0  0  0  0  0
   -5.8457    3.3750    0.0000 C   0  0  0  0  0  0  0  0  0  0  0  0
   -0.6495    1.8750    0.0000 C   0  0  0  0  0  0  0  0  0  0  0  0
    0.6495    4.1250    0.0000 C   0  0  0  0  0  0  0  0  0  0  0  0
   -4.5466    4.1250    0.0000 C   0  0  0  0  0  0  0  0  0  0  0  0
   -0.6495    3.3750    0.0000 C   0  0  0  0  0  0  0  0  0  0  0  0
   -1.9486    4.1250    0.0000 C   0  0  0  0  0  0  0  0  0  0  0  0
   -1.9486    5.6250    0.0000 O   0  0  0  0  0  0  0  0  0  0  0  0
   -3.2476    3.3750    0.0000 O   0  0  0  0  0  0  0  0  0  0  0  0
  4  1  1  0
  5  2  1  0
  6  3  1  0
  6  4  1  0
  7  6  1  0
  8  7  2  0
  9  5  1  0
  9  7  1  0
M  END
>  <NAME>  (3511) 
ETHYL 2-METHYLBUTYRATE

>  <SYNONYMS>  (3511) 


>  <SPECTRUM TYPE>  (3511) 
MS1

>  <INSTRUMENT TYPE>  (3511) 
EI-B

>  <INSTRUMENT>  (3511) 
HITACHI M-80B

>  <ION MODE>  (3511) 
P

>  <INCHIKEY>  (3511) 
HCRBXQFHJMCTLF-UHFFFAOYSA-N

>  <FORMULA>  (3511) 
C7H14O2

>  <EXACT MASS>  (3511) 
130.099379688

>  <MW>  (3511) 
130

>  <ID>  (3511) 
JP007085

>  <CONTRIBUTOR>  (3511) 
University of Tokyo Team, {Faculty of Engineering, University of Tokyo

>  <COMMENT>  (3511) 
SMILES=CCOC(=O)C(C)CC
cas=7452-79-1
InChI=InChI=1S/C7H14O2/c1-4-6(3)7(8)9-5-2/h6H,4-5H2,1-3H3
computed SMILES=O=C(OCC)C(C)CC
accession=JP007085
date=2016.01.19 (Created 2008.10.21, modified 2011.05.06)
author=SODA AROMATIC CO., LTD.
license=CC BY-NC-SA
exact mass=130.09938
ionization energy=70 eV
ion type=[M]+*
computed spectral entropy=2.5042072114490175
computed normalized entropy=0.7779757119246916
SPLASH=splash10-0pdi-9200000000-bdeaf3cfa63daefe3b19
submitter=submitter = University of Tokyo Team (Faculty of Engineering, University of Tokyo)
MoNA Rating=3.75

>  <NUM PEAKS>  (3511) 
25

>  <MASS SPECTRAL PEAKS>  (3511) 
26 2.19
27 19.02
29 52.61
30 1.35
39 8.75
41 36.01
42 2.14
43 2.73
45 7.91
53 1.39
55 6.87
56 12.58
57 99.99
58 4.1
69 1.65
73 5.63
74 22.72
75 2.04
85 39.65
86 2
87 13.52
102 70.68
103 8.7
115 9.12
130 1.65

$$$$

     RDKit          2D

  8  7  0  0  0  0  0  0  0  0999 V2000
    1.9486    2.6250    0.0000 C   0  0  0  0  0  0  0  0  0  0  0  0
   -0.6495    1.1250    0.0000 C   0  0  0  0  0  0  0  0  0  0  0  0
   -4.5466    3.3750    0.0000 C   0  0  0  0  0  0  0  0  0  0  0  0
    0.6495    3.3750    0.0000 C   0  0  0  0  0  0  0  0  0  0  0  0
   -0.6495    2.6250    0.0000 C   0  0  0  0  0  0  0  0  0  0  0  0
   -1.9486    3.3750    0.0000 C   0  0  0  0  0  0  0  0  0  0  0  0
   -1.9486    4.8750    0.0000 O   0  0  0  0  0  0  0  0  0  0  0  0
   -3.2476    2.6250    0.0000 O   0  0  0  0  0  0  0  0  0  0  0  0
  4  1  1  0
  5  2  1  0
  5  4  1  0
  6  5  1  0
  7  6  2  0
  8  3  1  0
  8  6  1  0
M  END
>  <NAME>  (3512) 
METHYL 2-METHYLBUTYRATE

>  <SYNONYMS>  (3512) 


>  <SPECTRUM TYPE>  (3512) 
MS1

>  <INSTRUMENT TYPE>  (3512) 
EI-B

>  <INSTRUMENT>  (3512) 
HITACHI M-80B

>  <ION MODE>  (3512) 
P

>  <INCHIKEY>  (3512) 
OCWLYWIFNDCWRZ-UHFFFAOYSA-N

>  <FORMULA>  (3512) 
C6H12O2

>  <EXACT MASS>  (3512) 
116.083729624

>  <MW>  (3512) 
116

>  <ID>  (3512) 
JP007084

>  <CONTRIBUTOR>  (3512) 
University of Tokyo Team, {Faculty of Engineering, University of Tokyo

>  <COMMENT>  (3512) 
SMILES=CCC(C)C(=O)OC
cas=868-57-5
InChI=InChI=1S/C6H12O2/c1-4-5(2)6(7)8-3/h5H,4H2,1-3H3
computed SMILES=O=C(OC)C(C)CC
accession=JP007084
date=2016.01.19 (Created 2008.10.21, modified 2011.05.06)
author=SODA AROMATIC CO., LTD.
license=CC BY-NC-SA
exact mass=116.08373
ionization energy=70 eV
ion type=[M]+*
computed spectral entropy=2.618836487228321
computed normalized entropy=0.7699748627786204
SPLASH=splash10-052r-9000000000-8e5fb68d71a8de2419d0
submitter=submitter = University of Tokyo Team (Faculty of Engineering, University of Tokyo)
MoNA Rating=3.75

>  <NUM PEAKS>  (3512) 
30

>  <MASS SPECTRAL PEAKS>  (3512) 
15 12.34
26 3.49
27 22.58
29 44.19
30 1.26
31 2.53
38 1.24
39 17.05
41 54.04
42 4.23
43 2.25
45 2.44
51 1.02
53 2.69
55 11.52
56 19.27
57 97.58
58 4.59
59 23.22
60 1.09
61 1.26
69 8.55
73 2.66
85 31.39
86 1.46
87 8.66
88 99.99
89 5.22
101 27.61
102 1.24

$$$$

     RDKit          2D

 13 13  0  0  0  0  0  0  0  0999 V2000
    7.4251    1.2910    0.0000 C   0  0  0  0  0  0  0  0  0  0  0  0
    6.1264   -0.9592    0.0000 C   0  0  0  0  0  0  0  0  0  0  0  0
   -1.6700   -0.9600    0.0000 C   0  0  0  0  0  0  0  0  0  0  0  0
   -1.6700    0.5400    0.0000 C   0  0  0  0  0  0  0  0  0  0  0  0
   -0.3700   -1.7100    0.0000 C   0  0  0  0  0  0  0  0  0  0  0  0
   -0.3700    1.2900    0.0000 C   0  0  0  0  0  0  0  0  0  0  0  0
    0.9300   -0.9600    0.0000 C   0  0  0  0  0  0  0  0  0  0  0  0
    4.8270    1.2906    0.0000 C   0  0  0  0  0  0  0  0  0  0  0  0
    6.1262    0.5408    0.0000 C   0  0  0  0  0  0  0  0  0  0  0  0
    0.9300    0.5400    0.0000 C   0  0  0  0  0  0  0  0  0  0  0  0
    3.5281    0.5404    0.0000 C   0  0  0  0  0  0  0  0  0  0  0  0
    3.5283   -0.9596    0.0000 O   0  0  0  0  0  0  0  0  0  0  0  0
    2.2289    1.2902    0.0000 O   0  0  0  0  0  0  0  0  0  0  0  0
  4  3  1  0
  5  3  1  0
  6  4  1  0
  7  5  1  0
  9  1  1  0
  9  2  1  0
  9  8  1  0
 10  6  1  0
 10  7  1  0
 11  8  1  0
 12 11  2  0
 13 10  1  0
 13 11  1  0
M  END
>  <NAME>  (3513) 
CYCLOHEXYL ISOVALERATE

>  <SYNONYMS>  (3513) 


>  <SPECTRUM TYPE>  (3513) 
MS1

>  <INSTRUMENT TYPE>  (3513) 
EI-B

>  <INSTRUMENT>  (3513) 
HITACHI M-80B

>  <ION MODE>  (3513) 
P

>  <INCHIKEY>  (3513) 
SQPOKBBCNZIWFI-UHFFFAOYSA-N

>  <FORMULA>  (3513) 
C11H20O2

>  <EXACT MASS>  (3513) 
184.14632988

>  <MW>  (3513) 
184

>  <ID>  (3513) 
JP007083

>  <CONTRIBUTOR>  (3513) 
University of Tokyo Team, {Faculty of Engineering, University of Tokyo

>  <COMMENT>  (3513) 
SMILES=CC(C)CC(=O)OC(C1)CCCC1
InChI=InChI=1S/C11H20O2/c1-9(2)8-11(12)13-10-6-4-3-5-7-10/h9-10H,3-8H2,1-2H3
computed SMILES=O=C(OC1CCCCC1)CC(C)C
accession=JP007083
date=2016.01.19 (Created 2008.10.21, modified 2011.05.06)
author=SODA AROMATIC CO., LTD.
license=CC BY-NC-SA
exact mass=184.14633
ionization energy=70 eV
ion type=[M]+*
computed spectral entropy=2.96832887106185
computed normalized entropy=0.7891972720825284
SPLASH=splash10-0pc9-9100000000-52aceb07beaebd89d23a
submitter=submitter = University of Tokyo Team (Faculty of Engineering, University of Tokyo)
MoNA Rating=3.75

>  <NUM PEAKS>  (3513) 
43

>  <MASS SPECTRAL PEAKS>  (3513) 
15 1.56
26 1.11
27 22.03
29 26.46
31 1.18
39 27.72
41 71.9
42 15.94
43 22.81
44 2.3
45 2.02
51 1.32
53 5.78
54 21.65
55 58.29
56 5.35
57 96.14
58 5.07
59 3.16
60 18.85
61 5.67
66 1.05
67 60
68 2.89
69 3.29
77 1
79 2.36
81 8.06
82 90.35
83 54.37
84 3.33
85 92.97
86 4.28
87 10.36
99 5.5
100 3.72
101 1.68
102 21.71
103 99.99
104 4.34
127 1.24
141 3.15
142 1.19

$$$$

     RDKit          2D

 13 13  0  0  0  0  0  0  0  0999 V2000
   -1.8335    0.5083    0.0000 C   0  0  0  0  0  0  0  0  0  0  0  0
   -0.5368   -1.7431    0.0000 C   0  0  0  0  0  0  0  0  0  0  0  0
    7.5924    2.2989    0.0000 C   0  0  0  0  0  0  0  0  0  0  0  0
    6.1252    1.9870    0.0000 C   0  0  0  0  0  0  0  0  0  0  0  0
    8.3376    1.0055    0.0000 C   0  0  0  0  0  0  0  0  0  0  0  0
    0.7645    0.5056    0.0000 C   0  0  0  0  0  0  0  0  0  0  0  0
    4.6609   -0.2484    0.0000 C   0  0  0  0  0  0  0  0  0  0  0  0
   -0.5353   -0.2431    0.0000 C   0  0  0  0  0  0  0  0  0  0  0  0
    5.9607    0.5003    0.0000 C   0  0  0  0  0  0  0  0  0  0  0  0
    2.0628   -0.2457    0.0000 C   0  0  0  0  0  0  0  0  0  0  0  0
    2.0613   -1.7457    0.0000 O   0  0  0  0  0  0  0  0  0  0  0  0
    7.3370   -0.1068    0.0000 O   0  0  0  0  0  0  0  0  0  0  0  0
    3.3626    0.5030    0.0000 O   0  0  0  0  0  0  0  0  0  0  0  0
  4  3  1  0
  5  3  2  0
  8  1  1  0
  8  2  1  0
  8  6  1  0
  9  4  2  0
  9  7  1  0
 10  6  1  0
 11 10  2  0
 12  5  1  0
 12  9  1  0
 13  7  1  0
 13 10  1  0
M  END
>  <NAME>  (3514) 
FURFURYL ISOVALERATE

>  <SYNONYMS>  (3514) 


>  <SPECTRUM TYPE>  (3514) 
MS1

>  <INSTRUMENT TYPE>  (3514) 
EI-B

>  <INSTRUMENT>  (3514) 
HITACHI M-80B

>  <ION MODE>  (3514) 
P

>  <INCHIKEY>  (3514) 
FKGUIBCHHSHJNQ-UHFFFAOYSA-N

>  <FORMULA>  (3514) 
C10H14O3

>  <EXACT MASS>  (3514) 
182.09429430799997

>  <MW>  (3514) 
182

>  <ID>  (3514) 
JP007082

>  <CONTRIBUTOR>  (3514) 
University of Tokyo Team, {Faculty of Engineering, University of Tokyo

>  <COMMENT>  (3514) 
SMILES=CC(C)CC(=O)OCc(c1)occ1
InChI=InChI=1S/C10H14O3/c1-8(2)6-10(11)13-7-9-4-3-5-12-9/h3-5,8H,6-7H2,1-2H3
computed SMILES=O=C(OCC=1OC=CC1)CC(C)C
accession=JP007082
date=2016.01.19 (Created 2008.10.21, modified 2011.05.06)
author=SODA AROMATIC CO., LTD.
license=CC BY-NC-SA
exact mass=182.09429
ionization energy=70 eV
ion type=[M]+*
computed spectral entropy=2.4863894266109385
computed normalized entropy=0.7383935217301433
SPLASH=splash10-001i-9000000000-53a8460f17b1f9b4430b
submitter=submitter = University of Tokyo Team (Faculty of Engineering, University of Tokyo)
MoNA Rating=3.75

>  <NUM PEAKS>  (3514) 
29

>  <MASS SPECTRAL PEAKS>  (3514) 
26 1.18
27 12.85
29 4.36
38 1.88
39 8.66
41 13.74
42 3.76
43 3.71
50 1.8
51 3.52
52 11.87
53 17.82
54 1.15
55 1.24
57 16.68
59 1.12
69 1.77
70 1.27
80 6.23
81 99.99
82 5.21
85 7.58
95 2.53
96 1.35
97 3.29
98 20.52
99 1.25
182 8.06
183 1.13

$$$$

     RDKit          2D

 16 16  0  0  0  0  0  0  0  0999 V2000
    4.8721    3.8829    0.0000 C   0  0  0  0  0  0  0  0  0  0  0  0
    3.5731    1.6329    0.0000 C   0  0  0  0  0  0  0  0  0  0  0  0
   -8.1183    5.3829    0.0000 C   0  0  0  0  0  0  0  0  0  0  0  0
   -8.1187    3.8821    0.0000 C   0  0  0  0  0  0  0  0  0  0  0  0
   -6.8187    6.1337    0.0000 C   0  0  0  0  0  0  0  0  0  0  0  0
   -2.9221    3.8829    0.0000 C   0  0  0  0  0  0  0  0  0  0  0  0
   -6.8197    3.1321    0.0000 C   0  0  0  0  0  0  0  0  0  0  0  0
   -5.5197    5.3837    0.0000 C   0  0  0  0  0  0  0  0  0  0  0  0
   -4.2212    3.1329    0.0000 C   0  0  0  0  0  0  0  0  0  0  0  0
   -1.6231    3.1329    0.0000 C   0  0  0  0  0  0  0  0  0  0  0  0
    2.2740    3.8829    0.0000 C   0  0  0  0  0  0  0  0  0  0  0  0
    3.5731    3.1329    0.0000 C   0  0  0  0  0  0  0  0  0  0  0  0
   -5.5202    3.8829    0.0000 C   0  0  0  0  0  0  0  0  0  0  0  0
    0.9750    3.1329    0.0000 C   0  0  0  0  0  0  0  0  0  0  0  0
    0.9750    1.6329    0.0000 O   0  0  0  0  0  0  0  0  0  0  0  0
   -0.3240    3.8829    0.0000 O   0  0  0  0  0  0  0  0  0  0  0  0
  4  3  2  0
  5  3  1  0
  7  4  1  0
  8  5  2  0
  9  6  1  0
 10  6  1  0
 12  1  1  0
 12  2  1  0
 12 11  1  0
 13  7  2  0
 13  8  1  0
 13  9  1  0
 14 11  1  0
 15 14  2  0
 16 10  1  0
 16 14  1  0
M  END
>  <NAME>  (3515) 
3-PHENYLPROPYL ISOVALERATE

>  <SYNONYMS>  (3515) 


>  <SPECTRUM TYPE>  (3515) 
MS1

>  <INSTRUMENT TYPE>  (3515) 
EI-B

>  <INSTRUMENT>  (3515) 
HITACHI M-80B

>  <ION MODE>  (3515) 
P

>  <INCHIKEY>  (3515) 
LBNFCOMOXOWXCD-UHFFFAOYSA-N

>  <FORMULA>  (3515) 
C14H20O2

>  <EXACT MASS>  (3515) 
220.14632988

>  <MW>  (3515) 
220

>  <ID>  (3515) 
JP007081

>  <CONTRIBUTOR>  (3515) 
University of Tokyo Team, {Faculty of Engineering, University of Tokyo

>  <COMMENT>  (3515) 
SMILES=CC(C)CC(=O)OCCCc(c1)cccc1
InChI=InChI=1S/C14H20O2/c1-12(2)11-14(15)16-10-6-9-13-7-4-3-5-8-13/h3-5,7-8,12H,6,9-11H2,1-2H3
computed SMILES=O=C(OCCCC=1C=CC=CC1)CC(C)C
accession=JP007081
date=2016.01.19 (Created 2008.10.21, modified 2011.05.06)
author=SODA AROMATIC CO., LTD.
license=CC BY-NC-SA
exact mass=220.14633
ionization energy=70 eV
ion type=[M]+*
computed spectral entropy=2.458013292988154
computed normalized entropy=0.745793372949341
SPLASH=splash10-014i-8900000000-bd7f39a5199a6656fcc4
submitter=submitter = University of Tokyo Team (Faculty of Engineering, University of Tokyo)
MoNA Rating=3.75

>  <NUM PEAKS>  (3515) 
27

>  <MASS SPECTRAL PEAKS>  (3515) 
27 6.74
29 8.73
39 8.9
41 20.33
42 2.97
43 7.57
51 3.04
52 1.02
55 1.44
57 20.67
63 1.5
65 7.84
77 5.42
78 3.04
79 2.11
85 7.63
89 1.3
91 41.28
92 4.35
103 3
104 1.9
105 2.39
115 1.99
116 2.04
117 49.13
118 99.99
119 12.01

$$$$

     RDKit          2D

 16 16  0  0  0  0  0  0  0  0999 V2000
    4.8721    3.8829    0.0000 C   0  0  0  0  0  0  0  0  0  0  0  0
    3.5731    1.6329    0.0000 C   0  0  0  0  0  0  0  0  0  0  0  0
   -8.1183    5.3829    0.0000 C   0  0  0  0  0  0  0  0  0  0  0  0
   -8.1187    3.8821    0.0000 C   0  0  0  0  0  0  0  0  0  0  0  0
   -6.8187    6.1337    0.0000 C   0  0  0  0  0  0  0  0  0  0  0  0
   -2.9221    3.8829    0.0000 C   0  0  0  0  0  0  0  0  0  0  0  0
   -6.8197    3.1321    0.0000 C   0  0  0  0  0  0  0  0  0  0  0  0
   -5.5197    5.3837    0.0000 C   0  0  0  0  0  0  0  0  0  0  0  0
   -4.2212    3.1329    0.0000 C   0  0  0  0  0  0  0  0  0  0  0  0
   -1.6231    3.1329    0.0000 C   0  0  0  0  0  0  0  0  0  0  0  0
    2.2740    3.8829    0.0000 C   0  0  0  0  0  0  0  0  0  0  0  0
    3.5731    3.1329    0.0000 C   0  0  0  0  0  0  0  0  0  0  0  0
   -5.5202    3.8829    0.0000 C   0  0  0  0  0  0  0  0  0  0  0  0
    0.9750    3.1329    0.0000 C   0  0  0  0  0  0  0  0  0  0  0  0
    0.9750    1.6329    0.0000 O   0  0  0  0  0  0  0  0  0  0  0  0
   -0.3240    3.8829    0.0000 O   0  0  0  0  0  0  0  0  0  0  0  0
  4  3  2  0
  5  3  1  0
  7  4  1  0
  8  5  2  0
  6  9  2  0
 10  6  1  0
 12  1  1  0
 12  2  1  0
 12 11  1  0
 13  7  2  0
 13  8  1  0
 13  9  1  0
 14 11  1  0
 15 14  2  0
 16 10  1  0
 16 14  1  0
M  END
>  <NAME>  (3516) 
CINNAMYL ISOVALERATE

>  <SYNONYMS>  (3516) 


>  <SPECTRUM TYPE>  (3516) 
MS1

>  <INSTRUMENT TYPE>  (3516) 
EI-B

>  <INSTRUMENT>  (3516) 
HITACHI M-80B

>  <ION MODE>  (3516) 
P

>  <INCHIKEY>  (3516) 
FOCMOGKCPPTERB-RMKNXTFCSA-N

>  <FORMULA>  (3516) 
C14H18O2

>  <EXACT MASS>  (3516) 
218.130679816

>  <MW>  (3516) 
218

>  <ID>  (3516) 
JP007080

>  <CONTRIBUTOR>  (3516) 
University of Tokyo Team, {Faculty of Engineering, University of Tokyo

>  <COMMENT>  (3516) 
SMILES=CC(C)CC(=O)OCC=Cc(c1)cccc1
cas=140-27-2
InChI=InChI=1S/C14H18O2/c1-12(2)11-14(15)16-10-6-9-13-7-4-3-5-8-13/h3-9,12H,10-11H2,1-2H3/b9-6+
computed SMILES=O=C(OCC=CC=1C=CC=CC1)CC(C)C
accession=JP007080
date=2016.01.19 (Created 2008.10.21, modified 2011.05.06)
author=SODA AROMATIC CO., LTD.
license=CC BY-NC-SA
exact mass=218.13068
ionization energy=70 eV
ion type=[M]+*
computed spectral entropy=2.7758025453078887
computed normalized entropy=0.7576786781356261
SPLASH=splash10-05n0-9300000000-e5ffc7977091a2b810ad
submitter=submitter = University of Tokyo Team (Faculty of Engineering, University of Tokyo)
MoNA Rating=3.75

>  <NUM PEAKS>  (3516) 
39

>  <MASS SPECTRAL PEAKS>  (3516) 
27 9.11
29 11.65
39 14.24
41 24.4
42 3.62
43 11.08
50 2.04
51 5.84
52 1.56
55 2.62
57 90.9
58 3.56
59 1.13
63 3.19
65 3.66
69 1.12
75 1
76 1.36
77 9.58
78 3.94
79 2.05
85 99.99
86 4.57
89 2.76
91 16.54
92 3.49
102 2.49
103 4.04
104 2.66
105 3.79
115 38.1
116 18.23
117 47.13
118 4.33
131 1.07
133 5.88
134 4.32
218 6.67
219 1.2

$$$$

     RDKit          2D

 15 15  0  0  0  0  0  0  0  0999 V2000
   -7.7940    4.8196    0.0000 C   0  0  0  0  0  0  0  0  0  0  0  0
   -6.4949    2.5696    0.0000 C   0  0  0  0  0  0  0  0  0  0  0  0
    3.8974    2.5696    0.0000 C   0  0  0  0  0  0  0  0  0  0  0  0
    3.8978    4.0704    0.0000 C   0  0  0  0  0  0  0  0  0  0  0  0
    2.5978    1.8188    0.0000 C   0  0  0  0  0  0  0  0  0  0  0  0
    2.5988    4.8204    0.0000 C   0  0  0  0  0  0  0  0  0  0  0  0
    1.2988    2.5688    0.0000 C   0  0  0  0  0  0  0  0  0  0  0  0
    0.0002    4.8196    0.0000 C   0  0  0  0  0  0  0  0  0  0  0  0
   -1.2988    4.0696    0.0000 C   0  0  0  0  0  0  0  0  0  0  0  0
   -5.1959    4.8196    0.0000 C   0  0  0  0  0  0  0  0  0  0  0  0
   -6.4949    4.0696    0.0000 C   0  0  0  0  0  0  0  0  0  0  0  0
    1.2993    4.0696    0.0000 C   0  0  0  0  0  0  0  0  0  0  0  0
   -3.8969    4.0696    0.0000 C   0  0  0  0  0  0  0  0  0  0  0  0
   -3.8969    2.5696    0.0000 O   0  0  0  0  0  0  0  0  0  0  0  0
   -2.5978    4.8196    0.0000 O   0  0  0  0  0  0  0  0  0  0  0  0
  4  3  2  0
  5  3  1  0
  6  4  1  0
  7  5  2  0
  9  8  1  0
 11  1  1  0
 11  2  1  0
 11 10  1  0
 12  6  2  0
 12  7  1  0
 12  8  1  0
 13 10  1  0
 14 13  2  0
 15  9  1  0
 15 13  1  0
M  END
>  <NAME>  (3517) 
PHENYLETHYL ISOVALERATE

>  <SYNONYMS>  (3517) 


>  <SPECTRUM TYPE>  (3517) 
MS1

>  <INSTRUMENT TYPE>  (3517) 
EI-B

>  <INSTRUMENT>  (3517) 
HITACHI M-80B

>  <ION MODE>  (3517) 
P

>  <INCHIKEY>  (3517) 
JIMGVOCOYZFDKB-UHFFFAOYSA-N

>  <FORMULA>  (3517) 
C13H18O2

>  <EXACT MASS>  (3517) 
206.130679816

>  <MW>  (3517) 
206

>  <ID>  (3517) 
JP007079

>  <CONTRIBUTOR>  (3517) 
University of Tokyo Team, {Faculty of Engineering, University of Tokyo

>  <COMMENT>  (3517) 
SMILES=CC(C)CC(=O)OCCc(c1)cccc1
InChI=InChI=1S/C13H18O2/c1-11(2)10-13(14)15-9-8-12-6-4-3-5-7-12/h3-7,11H,8-10H2,1-2H3
computed SMILES=O=C(OCCC=1C=CC=CC1)CC(C)C
accession=JP007079
date=2016.01.19 (Created 2008.10.21, modified 2011.05.06)
author=SODA AROMATIC CO., LTD.
license=CC BY-NC-SA
exact mass=206.13068
ionization energy=70 eV
ion type=[M]+*
computed spectral entropy=2.1827603137146356
computed normalized entropy=0.7169466996429233
SPLASH=splash10-0udi-7900000000-baa61a546a03d2c7b7c3
submitter=submitter = University of Tokyo Team (Faculty of Engineering, University of Tokyo)
MoNA Rating=3.75

>  <NUM PEAKS>  (3517) 
21

>  <MASS SPECTRAL PEAKS>  (3517) 
27 5.25
29 5.66
39 6.42
41 12.08
42 2.68
43 5.49
51 3.08
55 1.24
57 26.05
63 1.17
65 3.69
77 6.87
78 3.1
79 3.19
85 12.7
91 8.56
92 1.05
103 3.41
104 99.99
105 23.68
106 1.34

$$$$

     RDKit          2D

 14 14  0  0  0  0  0  0  0  0999 V2000
    2.6027    1.5000    0.0000 C   0  0  0  0  0  0  0  0  0  0  0  0
    1.3223   -0.7606    0.0000 C   0  0  0  0  0  0  0  0  0  0  0  0
   -7.8088   -1.5472    0.0000 C   0  0  0  0  0  0  0  0  0  0  0  0
   -6.5061    0.6964    0.0000 C   0  0  0  0  0  0  0  0  0  0  0  0
   -5.2361   -1.5536    0.0000 C   0  0  0  0  0  0  0  0  0  0  0  0
   -5.2361    1.4464    0.0000 C   0  0  0  0  0  0  0  0  0  0  0  0
   -3.8861   -0.8036    0.0000 C   0  0  0  0  0  0  0  0  0  0  0  0
    0.0047    1.4786    0.0000 C   0  0  0  0  0  0  0  0  0  0  0  0
    1.3099    0.7393    0.0000 C   0  0  0  0  0  0  0  0  0  0  0  0
   -6.5061   -0.8036    0.0000 C   0  0  0  0  0  0  0  0  0  0  0  0
   -3.8861    0.6964    0.0000 C   0  0  0  0  0  0  0  0  0  0  0  0
   -1.2881    0.7179    0.0000 C   0  0  0  0  0  0  0  0  0  0  0  0
   -1.2757   -0.7821    0.0000 O   0  0  0  0  0  0  0  0  0  0  0  0
   -2.5933    1.4571    0.0000 O   0  0  0  0  0  0  0  0  0  0  0  0
  6  4  2  0
  7  5  1  0
  9  1  1  0
  9  2  1  0
  9  8  1  0
 10  3  1  0
 10  4  1  0
 10  5  2  0
 11  6  1  0
 11  7  2  0
 12  8  1  0
 13 12  2  0
 14 11  1  0
 14 12  1  0
M  END
>  <NAME>  (3518) 
P-CRESYL ISOVALERATE

>  <SYNONYMS>  (3518) 


>  <SPECTRUM TYPE>  (3518) 
MS1

>  <INSTRUMENT TYPE>  (3518) 
EI-B

>  <INSTRUMENT>  (3518) 
HITACHI M-80B

>  <ION MODE>  (3518) 
P

>  <INCHIKEY>  (3518) 
MVDPTWHTUYDLTL-UHFFFAOYSA-N

>  <FORMULA>  (3518) 
C12H16O2

>  <EXACT MASS>  (3518) 
192.115029752

>  <MW>  (3518) 
192

>  <ID>  (3518) 
JP007078

>  <CONTRIBUTOR>  (3518) 
University of Tokyo Team, {Faculty of Engineering, University of Tokyo

>  <COMMENT>  (3518) 
SMILES=CC(C)CC(=O)Oc(c1)ccc(C)c1
InChI=InChI=1S/C12H16O2/c1-9(2)8-12(13)14-11-6-4-10(3)5-7-11/h4-7,9H,8H2,1-3H3
computed SMILES=O=C(OC1=CC=C(C=C1)C)CC(C)C
accession=JP007078
date=2016.01.19 (Created 2008.10.21, modified 2011.05.06)
author=SODA AROMATIC CO., LTD.
license=CC BY-NC-SA
exact mass=192.11503
ionization energy=70 eV
ion type=[M]+*
computed spectral entropy=2.4520119971901853
computed normalized entropy=0.735852793459325
SPLASH=splash10-0a4i-9800000000-ae3fe62535d29d3a9e9e
submitter=submitter = University of Tokyo Team (Faculty of Engineering, University of Tokyo)
MoNA Rating=3.75

>  <NUM PEAKS>  (3518) 
28

>  <MASS SPECTRAL PEAKS>  (3518) 
27 7.3
29 7.59
39 8.96
41 15.14
42 2.22
43 5.37
50 1.38
51 3.39
52 2.32
53 2.78
55 1.63
57 33.36
58 1.25
63 1.39
65 2.53
69 1.91
77 11.6
78 3.1
79 4.45
80 1.78
85 9.51
90 1.15
91 4.46
107 14.7
108 99.99
109 9.93
135 1.16
192 6.08

$$$$

     RDKit          2D

 14 14  0  0  0  0  0  0  0  0999 V2000
   -6.8197    3.1321    0.0000 C   0  0  0  0  0  0  0  0  0  0  0  0
   -5.5207    5.3821    0.0000 C   0  0  0  0  0  0  0  0  0  0  0  0
    3.5726    1.6321    0.0000 C   0  0  0  0  0  0  0  0  0  0  0  0
    3.5731    3.1329    0.0000 C   0  0  0  0  0  0  0  0  0  0  0  0
    2.2731    0.8813    0.0000 C   0  0  0  0  0  0  0  0  0  0  0  0
    2.2740    3.8829    0.0000 C   0  0  0  0  0  0  0  0  0  0  0  0
    0.9740    1.6313    0.0000 C   0  0  0  0  0  0  0  0  0  0  0  0
   -4.2216    3.1321    0.0000 C   0  0  0  0  0  0  0  0  0  0  0  0
   -0.3245    3.8821    0.0000 C   0  0  0  0  0  0  0  0  0  0  0  0
   -5.5207    3.8821    0.0000 C   0  0  0  0  0  0  0  0  0  0  0  0
    0.9745    3.1321    0.0000 C   0  0  0  0  0  0  0  0  0  0  0  0
   -2.9226    3.8821    0.0000 C   0  0  0  0  0  0  0  0  0  0  0  0
   -2.9226    5.3821    0.0000 O   0  0  0  0  0  0  0  0  0  0  0  0
   -1.6236    3.1321    0.0000 O   0  0  0  0  0  0  0  0  0  0  0  0
  4  3  2  0
  5  3  1  0
  6  4  1  0
  7  5  2  0
 10  1  1  0
 10  2  1  0
 10  8  1  0
 11  6  2  0
 11  7  1  0
 11  9  1  0
 12  8  1  0
 13 12  2  0
 14  9  1  0
 14 12  1  0
M  END
>  <NAME>  (3519) 
BENZYL ISOVALERATE

>  <SYNONYMS>  (3519) 


>  <SPECTRUM TYPE>  (3519) 
MS1

>  <INSTRUMENT TYPE>  (3519) 
EI-B

>  <INSTRUMENT>  (3519) 
HITACHI M-80B

>  <ION MODE>  (3519) 
P

>  <INCHIKEY>  (3519) 
HVJKZICIMIWFCP-UHFFFAOYSA-N

>  <FORMULA>  (3519) 
C12H16O2

>  <EXACT MASS>  (3519) 
192.115029752

>  <MW>  (3519) 
192

>  <ID>  (3519) 
JP007077

>  <CONTRIBUTOR>  (3519) 
University of Tokyo Team, {Faculty of Engineering, University of Tokyo

>  <COMMENT>  (3519) 
SMILES=CC(C)CC(=O)OCc(c1)cccc1
cas=103-38-8
InChI=InChI=1S/C12H16O2/c1-10(2)8-12(13)14-9-11-6-4-3-5-7-11/h3-7,10H,8-9H2,1-2H3
computed SMILES=O=C(OCC=1C=CC=CC1)CC(C)C
accession=JP007077
date=2016.01.19 (Created 2008.10.21, modified 2011.05.06)
author=SODA AROMATIC CO., LTD.
license=CC BY-NC-SA
exact mass=192.11503
ionization energy=70 eV
ion type=[M]+*
computed spectral entropy=2.4392131969507327
computed normalized entropy=0.7400891779901368
SPLASH=splash10-0006-9100000000-f2c708c08313abae60ff
submitter=submitter = University of Tokyo Team (Faculty of Engineering, University of Tokyo)
MoNA Rating=3.75

>  <NUM PEAKS>  (3519) 
27

>  <MASS SPECTRAL PEAKS>  (3519) 
27 5.79
29 12.65
39 7.6
41 12.25
50 1.23
51 4.63
52 1.15
55 1.54
56 1.1
57 36
58 1.34
63 2.4
65 10.35
77 6.09
78 1.29
79 4.2
85 11.4
89 3.48
90 5.39
91 99.99
92 9.13
105 1.32
107 3.3
108 16.41
109 1.09
192 12.53
193 1.38

$$$$

     RDKit          2D

 17 17  0  0  0  0  0  0  0  0999 V2000
    7.5051   -1.3310    0.0000 C   0  0  0  0  0  0  0  0  0  0  0  0
    6.2064    0.9192    0.0000 C   0  0  0  0  0  0  0  0  0  0  0  0
   -1.5890   -3.5800    0.0000 C   0  0  0  0  0  0  0  0  0  0  0  0
    1.0090   -3.5800    0.0000 C   0  0  0  0  0  0  0  0  0  0  0  0
   -0.2900    3.1700    0.0000 C   0  0  0  0  0  0  0  0  0  0  0  0
   -1.5900    0.9200    0.0000 C   0  0  0  0  0  0  0  0  0  0  0  0
   -1.5900   -0.5800    0.0000 C   0  0  0  0  0  0  0  0  0  0  0  0
    4.9070   -1.3306    0.0000 C   0  0  0  0  0  0  0  0  0  0  0  0
    1.0100    0.9200    0.0000 C   0  0  0  0  0  0  0  0  0  0  0  0
    6.2062   -0.5808    0.0000 C   0  0  0  0  0  0  0  0  0  0  0  0
   -0.2900   -2.8300    0.0000 C   0  0  0  0  0  0  0  0  0  0  0  0
   -0.2900    1.6700    0.0000 C   0  0  0  0  0  0  0  0  0  0  0  0
   -0.2900   -1.3300    0.0000 C   0  0  0  0  0  0  0  0  0  0  0  0
    1.0100   -0.5800    0.0000 C   0  0  0  0  0  0  0  0  0  0  0  0
    3.6081   -0.5804    0.0000 C   0  0  0  0  0  0  0  0  0  0  0  0
    3.6083    0.9196    0.0000 O   0  0  0  0  0  0  0  0  0  0  0  0
    2.3089   -1.3302    0.0000 O   0  0  0  0  0  0  0  0  0  0  0  0
  7  6  1  0
 10  1  1  0
 10  2  1  0
 10  8  1  0
 11  3  1  0
 11  4  1  0
 12  5  1  0
 12  6  1  0
 12  9  1  0
 13  7  1  0
 13 11  1  0
 14  9  1  0
 14 13  1  0
 15  8  1  0
 16 15  2  0
 17 14  1  0
 17 15  1  0
M  END
>  <NAME>  (3520) 
MENTHYL ISOVALERATE

>  <SYNONYMS>  (3520) 
3-MENTHYLBUTANOIC ACID METHYL ESTER

>  <SPECTRUM TYPE>  (3520) 
MS1

>  <INSTRUMENT TYPE>  (3520) 
EI-B

>  <INSTRUMENT>  (3520) 
HITACHI M-80B

>  <ION MODE>  (3520) 
P

>  <INCHIKEY>  (3520) 
VYQSSWZYPCCBRN-UHFFFAOYSA-N

>  <FORMULA>  (3520) 
C15H28O2

>  <EXACT MASS>  (3520) 
240.208930136

>  <MW>  (3520) 
240

>  <ID>  (3520) 
JP007076

>  <CONTRIBUTOR>  (3520) 
University of Tokyo Team, {Faculty of Engineering, University of Tokyo

>  <COMMENT>  (3520) 
SMILES=CC(C)CC(=O)OC(C1)C(CCC(C)1)C(C)C
cas=556-24-1
InChI=InChI=1S/C15H28O2/c1-10(2)8-15(16)17-14-9-12(5)6-7-13(14)11(3)4/h10-14H,6-9H2,1-5H3
computed SMILES=O=C(OC1CC(C)CCC1C(C)C)CC(C)C
accession=JP007076
date=2016.01.19 (Created 2008.10.21, modified 2011.05.06)
author=SODA AROMATIC CO., LTD.
license=CC BY-NC-SA
exact mass=240.20893
ionization energy=70 eV
ion type=[M]+*
computed spectral entropy=3.319880099570655
computed normalized entropy=0.8075850072909684
SPLASH=splash10-053m-9100000000-f0c9714bb1174870b5ed
submitter=submitter = University of Tokyo Team (Faculty of Engineering, University of Tokyo)
MoNA Rating=3.75

>  <NUM PEAKS>  (3520) 
61

>  <MASS SPECTRAL PEAKS>  (3520) 
15 1.47
27 12.61
28 15.46
29 15.31
31 1.27
32 2.96
34 1.33
38 1.33
39 13.61
41 52.53
42 6.52
43 28.22
45 1.59
51 2.33
52 1.82
53 8.25
54 6.13
55 37.48
56 6.15
57 80.56
58 3.68
59 2.41
60 1.91
63 1.08
65 2.8
66 1.71
67 20.68
68 9.03
69 16.84
70 2.86
71 3.92
77 4.46
78 1.74
79 7.54
80 6.04
81 62.67
82 20.48
83 25.78
84 3.42
85 73.94
86 4.04
91 3.06
93 3.59
94 10.36
95 99.99
96 19.75
97 6.84
103 2.42
107 1.42
109 6.22
110 4.25
111 1.51
112 1.91
123 24.5
124 3.16
137 2.78
138 69.07
139 11.52
140 1.49
142 1.7
155 1.33

$$$$

     RDKit          2D

 17 16  0  0  0  0  0  0  0  0999 V2000
   -7.1792    7.1532    0.0000 C   0  0  0  0  0  0  0  0  0  0  0  0
    1.7574    5.5147    0.0000 C   0  0  0  0  0  0  0  0  0  0  0  0
    0.4584    7.7647    0.0000 C   0  0  0  0  0  0  0  0  0  0  0  0
   -8.6349    1.0147    0.0000 C   0  0  0  0  0  0  0  0  0  0  0  0
   -6.0368    1.0147    0.0000 C   0  0  0  0  0  0  0  0  0  0  0  0
   -3.7736    7.4137    0.0000 C   0  0  0  0  0  0  0  0  0  0  0  0
   -5.7019    7.4137    0.0000 C   0  0  0  0  0  0  0  0  0  0  0  0
   -2.1397    6.2647    0.0000 C   0  0  0  0  0  0  0  0  0  0  0  0
   -0.8406    5.5147    0.0000 C   0  0  0  0  0  0  0  0  0  0  0  0
   -3.4387    5.5147    0.0000 C   0  0  0  0  0  0  0  0  0  0  0  0
   -7.3358    3.2647    0.0000 C   0  0  0  0  0  0  0  0  0  0  0  0
    0.4584    6.2647    0.0000 C   0  0  0  0  0  0  0  0  0  0  0  0
   -7.3358    1.7647    0.0000 C   0  0  0  0  0  0  0  0  0  0  0  0
   -6.0368    4.0147    0.0000 C   0  0  0  0  0  0  0  0  0  0  0  0
   -4.7378    6.2647    0.0000 C   0  0  0  0  0  0  0  0  0  0  0  0
   -4.7378    3.2647    0.0000 O   0  0  0  0  0  0  0  0  0  0  0  0
   -6.0368    5.5147    0.0000 O   0  0  0  0  0  0  0  0  0  0  0  0
  7  1  2  0
  9  8  1  0
 10  8  1  0
 12  2  1  0
 12  3  1  0
 12  9  2  0
 13  4  1  0
 13  5  1  0
 13 11  1  0
 14 11  1  0
 15  6  1  0
 15  7  1  0
 15 10  1  0
 16 14  2  0
 17 14  1  0
 17 15  1  0
M  END
>  <NAME>  (3521) 
LINALYL ISOVALERATE

>  <SYNONYMS>  (3521) 


>  <SPECTRUM TYPE>  (3521) 
MS1

>  <INSTRUMENT TYPE>  (3521) 
EI-B

>  <INSTRUMENT>  (3521) 
HITACHI M-80B

>  <ION MODE>  (3521) 
P

>  <INCHIKEY>  (3521) 
WCDGWAIZRYMVOW-UHFFFAOYSA-N

>  <FORMULA>  (3521) 
C15H26O2

>  <EXACT MASS>  (3521) 
238.193280072

>  <MW>  (3521) 
238

>  <ID>  (3521) 
JP007075

>  <CONTRIBUTOR>  (3521) 
University of Tokyo Team, {Faculty of Engineering, University of Tokyo

>  <COMMENT>  (3521) 
SMILES=CC(C)=CCCC(C)(C=C)OC(=O)CC(C)C
InChI=InChI=1S/C15H26O2/c1-7-15(6,10-8-9-12(2)3)17-14(16)11-13(4)5/h7,9,13H,1,8,10-11H2,2-6H3
computed SMILES=O=C(OC(C=C)(C)CCC=C(C)C)CC(C)C
accession=JP007075
date=2016.01.19 (Created 2008.10.21, modified 2011.05.06)
author=SODA AROMATIC CO., LTD.
license=CC BY-NC-SA
exact mass=238.19328
ionization energy=70 eV
ion type=[M]+*
computed spectral entropy=3.1718953899165787
computed normalized entropy=0.819356933669712
SPLASH=splash10-0006-9000000000-5d233945f4b2049b1bf8
submitter=submitter = University of Tokyo Team (Faculty of Engineering, University of Tokyo)
MoNA Rating=3.75

>  <NUM PEAKS>  (3521) 
48

>  <MASS SPECTRAL PEAKS>  (3521) 
18 4.94
26 1
27 21.25
29 10.83
38 1.54
39 28.98
40 2.74
41 76.06
42 4.66
43 11.4
45 1.24
50 1.87
51 5.42
52 3.37
53 17.44
54 1.69
55 10.04
57 10.26
60 3.33
63 1.77
65 5.33
66 2.46
67 17.07
68 16.2
69 52.63
70 2.45
77 18.69
78 2.84
79 21.97
80 22.05
81 6.88
82 1.63
85 6.22
91 19.5
92 17.52
93 99.99
94 12.1
95 2.1
103 1.28
105 5.44
106 1.75
107 5.4
108 1.58
119 2.07
121 17.44
122 1.55
136 6.85
137 1.5

$$$$

     RDKit          2D

 10  9  0  0  0  0  0  0  0  0999 V2000
    2.5981    4.5000    0.0000 C   0  0  0  0  0  0  0  0  0  0  0  0
   -7.7942    4.5000    0.0000 C   0  0  0  0  0  0  0  0  0  0  0  0
    1.2990    5.2500    0.0000 C   0  0  0  0  0  0  0  0  0  0  0  0
    0.0000    4.5000    0.0000 C   0  0  0  0  0  0  0  0  0  0  0  0
   -1.2990    5.2500    0.0000 C   0  0  0  0  0  0  0  0  0  0  0  0
   -2.5981    4.5000    0.0000 C   0  0  0  0  0  0  0  0  0  0  0  0
   -3.8971    5.2500    0.0000 C   0  0  0  0  0  0  0  0  0  0  0  0
   -6.4952    5.2500    0.0000 C   0  0  0  0  0  0  0  0  0  0  0  0
   -6.4952    6.7500    0.0000 O   0  0  0  0  0  0  0  0  0  0  0  0
   -5.1962    4.5000    0.0000 O   0  0  0  0  0  0  0  0  0  0  0  0
  3  1  1  0
  4  3  1  0
  5  4  1  0
  5  6  2  0
  7  6  1  0
  8  2  1  0
  9  8  2  0
 10  7  1  0
 10  8  1  0
M  END
>  <NAME>  (3522) 
TRANS-2-HEXENYL ACETATE

>  <SYNONYMS>  (3522) 


>  <SPECTRUM TYPE>  (3522) 
MS1

>  <INSTRUMENT TYPE>  (3522) 
EI-B

>  <INSTRUMENT>  (3522) 
HITACHI M-80B

>  <ION MODE>  (3522) 
P

>  <INCHIKEY>  (3522) 
HRHOWZHRCRZVCU-AATRIKPKSA-N

>  <FORMULA>  (3522) 
C8H14O2

>  <EXACT MASS>  (3522) 
142.099379688

>  <MW>  (3522) 
142

>  <ID>  (3522) 
JP007074

>  <CONTRIBUTOR>  (3522) 
University of Tokyo Team, {Faculty of Engineering, University of Tokyo

>  <COMMENT>  (3522) 
SMILES=CCCC=CCOC(C)=O
cas=2497-18-9
InChI=InChI=1S/C8H14O2/c1-3-4-5-6-7-10-8(2)9/h5-6H,3-4,7H2,1-2H3/b6-5+
computed SMILES=O=C(OCC=CCCC)C
accession=JP007074
date=2016.01.19 (Created 2008.10.21, modified 2011.05.06)
author=SODA AROMATIC CO., LTD.
license=CC BY-NC-SA
exact mass=142.09938
ionization energy=70 eV
ion type=[M]+*
computed spectral entropy=2.5444974341388638
computed normalized entropy=0.7720337922015105
SPLASH=splash10-0006-9000000000-3a62a93aa8045a5352a2
submitter=submitter = University of Tokyo Team (Faculty of Engineering, University of Tokyo)
MoNA Rating=3.75

>  <NUM PEAKS>  (3522) 
27

>  <MASS SPECTRAL PEAKS>  (3522) 
15 4.59
27 12.27
28 2.32
29 7.88
39 13.24
40 1.76
41 19.84
42 3.59
43 99.99
44 3.1
51 1.27
53 5.08
54 7.58
55 11.97
56 4.88
57 11.79
58 1.47
61 1.78
67 25.82
68 1.22
71 5.04
72 1.52
81 2.46
82 18.83
83 4.44
99 3.73
100 10.22

$$$$

     RDKit          2D

 10  9  0  0  0  0  0  0  0  0999 V2000
    2.5981    4.5000    0.0000 C   0  0  0  0  0  0  0  0  0  0  0  0
   -7.7942    4.5000    0.0000 C   0  0  0  0  0  0  0  0  0  0  0  0
    1.2990    5.2500    0.0000 C   0  0  0  0  0  0  0  0  0  0  0  0
    0.0000    4.5000    0.0000 C   0  0  0  0  0  0  0  0  0  0  0  0
   -1.2990    5.2500    0.0000 C   0  0  0  0  0  0  0  0  0  0  0  0
   -2.5981    4.5000    0.0000 C   0  0  0  0  0  0  0  0  0  0  0  0
   -3.8971    5.2500    0.0000 C   0  0  0  0  0  0  0  0  0  0  0  0
   -6.4952    5.2500    0.0000 C   0  0  0  0  0  0  0  0  0  0  0  0
   -6.4952    6.7500    0.0000 O   0  0  0  0  0  0  0  0  0  0  0  0
   -5.1962    4.5000    0.0000 O   0  0  0  0  0  0  0  0  0  0  0  0
  3  1  1  0
  3  4  2  0
  5  4  1  0
  5  6  2  0
  7  6  1  0
  8  2  1  0
  9  8  2  0
 10  7  1  0
 10  8  1  0
M  END
>  <NAME>  (3523) 
TRANS,TRANS-2,4-HEXADIENYL ACETATE

>  <SYNONYMS>  (3523) 


>  <SPECTRUM TYPE>  (3523) 
MS1

>  <INSTRUMENT TYPE>  (3523) 
EI-B

>  <INSTRUMENT>  (3523) 
HITACHI M-80B

>  <ION MODE>  (3523) 
P

>  <INCHIKEY>  (3523) 
PXVKYPFROMBALG-VNKDHWASSA-N

>  <FORMULA>  (3523) 
C8H12O2

>  <EXACT MASS>  (3523) 
140.083729624

>  <MW>  (3523) 
140

>  <ID>  (3523) 
JP007073

>  <CONTRIBUTOR>  (3523) 
University of Tokyo Team, {Faculty of Engineering, University of Tokyo

>  <COMMENT>  (3523) 
SMILES=CC=CC=CCOC(C)=O
InChI=InChI=1S/C8H12O2/c1-3-4-5-6-7-10-8(2)9/h3-6H,7H2,1-2H3/b4-3+,6-5+
computed SMILES=O=C(OCC=CC=CC)C
accession=JP007073
date=2016.01.19 (Created 2008.10.21, modified 2011.05.06)
author=SODA AROMATIC CO., LTD.
license=CC BY-NC-SA
exact mass=140.08373
ionization energy=70 eV
ion type=[M]+*
computed spectral entropy=2.6954244667595955
computed normalized entropy=0.7643644057219555
SPLASH=splash10-0006-9000000000-f433eb484f94ecf93aba
submitter=submitter = University of Tokyo Team (Faculty of Engineering, University of Tokyo)
MoNA Rating=3.75

>  <NUM PEAKS>  (3523) 
34

>  <MASS SPECTRAL PEAKS>  (3523) 
15 4.54
27 7.74
29 3.25
38 1.2
39 14.82
40 2.7
41 23.38
42 3.5
43 99.99
44 2.13
50 1.49
51 3.65
52 3.07
53 8.97
54 1.7
55 3.88
56 1.14
63 1.06
65 4.32
66 2.76
67 2.01
69 7.45
70 1.83
77 5.14
78 1.4
79 31.07
80 12.53
81 18.27
82 1.59
83 4.16
97 5.03
98 8.23
140 16.87
141 1.29

$$$$

     RDKit          2D

  9  8  0  0  0  0  0  0  0  0999 V2000
    2.2733    2.8125    0.0000 C   0  0  0  0  0  0  0  0  0  0  0  0
    0.9743    5.0625    0.0000 C   0  0  0  0  0  0  0  0  0  0  0  0
   -5.5209    2.8125    0.0000 C   0  0  0  0  0  0  0  0  0  0  0  0
   -0.3248    2.8125    0.0000 C   0  0  0  0  0  0  0  0  0  0  0  0
   -1.6238    3.5625    0.0000 C   0  0  0  0  0  0  0  0  0  0  0  0
    0.9743    3.5625    0.0000 C   0  0  0  0  0  0  0  0  0  0  0  0
   -4.2219    3.5625    0.0000 C   0  0  0  0  0  0  0  0  0  0  0  0
   -4.2219    5.0625    0.0000 O   0  0  0  0  0  0  0  0  0  0  0  0
   -2.9228    2.8125    0.0000 O   0  0  0  0  0  0  0  0  0  0  0  0
  5  4  1  0
  6  1  1  0
  6  2  1  0
  6  4  1  0
  7  3  1  0
  8  7  2  0
  9  5  1  0
  9  7  1  0
M  END
>  <NAME>  (3524) 
ISOPENTYL ACETATE

>  <SYNONYMS>  (3524) 


>  <SPECTRUM TYPE>  (3524) 
MS1

>  <INSTRUMENT TYPE>  (3524) 
EI-B

>  <INSTRUMENT>  (3524) 
HITACHI M-80B

>  <ION MODE>  (3524) 
P

>  <INCHIKEY>  (3524) 
MLFHJEHSLIIPHL-UHFFFAOYSA-N

>  <FORMULA>  (3524) 
C7H14O2

>  <EXACT MASS>  (3524) 
130.099379688

>  <MW>  (3524) 
130

>  <ID>  (3524) 
JP007072

>  <CONTRIBUTOR>  (3524) 
University of Tokyo Team, {Faculty of Engineering, University of Tokyo

>  <COMMENT>  (3524) 
SMILES=CC(C)CCOC(C)=O
cas=123-92-2
InChI=InChI=1S/C7H14O2/c1-6(2)4-5-9-7(3)8/h6H,4-5H2,1-3H3
computed SMILES=O=C(OCCC(C)C)C
accession=JP007072
date=2016.01.19 (Created 2008.10.21, modified 2011.05.06)
author=SODA AROMATIC CO., LTD.
license=CC BY-NC-SA
exact mass=130.09938
ionization energy=70 eV
ion type=[M]+*
computed spectral entropy=2.3022782051207957
computed normalized entropy=0.7342632601344331
SPLASH=splash10-0006-9000000000-fe72c0ec89d09374d63a
submitter=submitter = University of Tokyo Team (Faculty of Engineering, University of Tokyo)
MoNA Rating=3.75

>  <NUM PEAKS>  (3524) 
23

>  <MASS SPECTRAL PEAKS>  (3524) 
15 5.74
27 9.17
28 1.63
29 6.96
39 7.2
40 1.02
41 14.76
42 12.37
43 99.99
44 2.89
45 1.68
53 1.08
55 36.48
56 2.37
57 2.49
58 1.94
61 11.25
69 4.74
70 48.15
71 3.58
73 8.56
87 8.8
88 1.25

$$$$

     RDKit          2D

  9  8  0  0  0  0  0  0  0  0999 V2000
   -7.4695    3.9375    0.0000 C   0  0  0  0  0  0  0  0  0  0  0  0
    1.6238    3.1875    0.0000 C   0  0  0  0  0  0  0  0  0  0  0  0
   -6.1704    3.1875    0.0000 C   0  0  0  0  0  0  0  0  0  0  0  0
   -4.8714    3.9375    0.0000 C   0  0  0  0  0  0  0  0  0  0  0  0
   -3.5724    3.1875    0.0000 C   0  0  0  0  0  0  0  0  0  0  0  0
   -2.2733    3.9375    0.0000 C   0  0  0  0  0  0  0  0  0  0  0  0
    0.3248    3.9375    0.0000 C   0  0  0  0  0  0  0  0  0  0  0  0
    0.3248    5.4375    0.0000 O   0  0  0  0  0  0  0  0  0  0  0  0
   -0.9743    3.1875    0.0000 O   0  0  0  0  0  0  0  0  0  0  0  0
  3  1  1  0
  4  3  1  0
  5  4  1  0
  6  5  1  0
  7  2  1  0
  8  7  2  0
  9  6  1  0
  9  7  1  0
M  END
>  <NAME>  (3525) 
PENTYL ACETATE

>  <SYNONYMS>  (3525) 


>  <SPECTRUM TYPE>  (3525) 
MS1

>  <INSTRUMENT TYPE>  (3525) 
EI-B

>  <INSTRUMENT>  (3525) 
HITACHI M-80B

>  <ION MODE>  (3525) 
P

>  <INCHIKEY>  (3525) 
PGMYKACGEOXYJE-UHFFFAOYSA-N

>  <FORMULA>  (3525) 
C7H14O2

>  <EXACT MASS>  (3525) 
130.099379688

>  <MW>  (3525) 
130

>  <ID>  (3525) 
JP007071

>  <CONTRIBUTOR>  (3525) 
University of Tokyo Team, {Faculty of Engineering, University of Tokyo

>  <COMMENT>  (3525) 
SMILES=CCCCCOC(C)=O
cas=628-63-7
InChI=InChI=1S/C7H14O2/c1-3-4-5-6-9-7(2)8/h3-6H2,1-2H3
computed SMILES=O=C(OCCCCC)C
accession=JP007071
date=2016.01.19 (Created 2008.10.21, modified 2011.05.06)
author=SODA AROMATIC CO., LTD.
license=CC BY-NC-SA
exact mass=130.09938
ionization energy=70 eV
ion type=[M]+*
computed spectral entropy=2.2606869362943542
computed normalized entropy=0.7425423798107427
SPLASH=splash10-0006-9000000000-cdadbdf8f1d5ef30794f
submitter=submitter = University of Tokyo Team (Faculty of Engineering, University of Tokyo)
MoNA Rating=3.75

>  <NUM PEAKS>  (3525) 
21

>  <MASS SPECTRAL PEAKS>  (3525) 
15 4.61
27 8.92
28 2.35
29 8.85
31 1.09
39 6.33
40 1.06
41 13.93
42 22.98
43 99.99
44 2.41
55 19.25
56 1.22
57 1.18
58 3.42
61 22.33
69 6.71
70 38.68
71 2.41
73 11.44
87 1.2

$$$$

     RDKit          2D

  8  7  0  0  0  0  0  0  0  0999 V2000
    1.8983    1.9620    0.0000 C   0  0  0  0  0  0  0  0  0  0  0  0
   -1.2488    4.0111    0.0000 C   0  0  0  0  0  0  0  0  0  0  0  0
   -3.2978    3.4620    0.0000 C   0  0  0  0  0  0  0  0  0  0  0  0
   -2.7488    1.4130    0.0000 C   0  0  0  0  0  0  0  0  0  0  0  0
    0.5993    2.7120    0.0000 C   0  0  0  0  0  0  0  0  0  0  0  0
   -1.9988    2.7120    0.0000 C   0  0  0  0  0  0  0  0  0  0  0  0
    0.5993    4.2120    0.0000 O   0  0  0  0  0  0  0  0  0  0  0  0
   -0.6998    1.9620    0.0000 O   0  0  0  0  0  0  0  0  0  0  0  0
  5  1  1  0
  6  2  1  0
  6  3  1  0
  6  4  1  0
  7  5  2  0
  8  5  1  0
  8  6  1  0
M  END
>  <NAME>  (3526) 
TERT-BUTYL ACETATE

>  <SYNONYMS>  (3526) 


>  <SPECTRUM TYPE>  (3526) 
MS1

>  <INSTRUMENT TYPE>  (3526) 
EI-B

>  <INSTRUMENT>  (3526) 
HITACHI M-80B

>  <ION MODE>  (3526) 
P

>  <INCHIKEY>  (3526) 
WMOVHXAZOJBABW-UHFFFAOYSA-N

>  <FORMULA>  (3526) 
C6H12O2

>  <EXACT MASS>  (3526) 
116.083729624

>  <MW>  (3526) 
116

>  <ID>  (3526) 
JP007070

>  <CONTRIBUTOR>  (3526) 
University of Tokyo Team, {Faculty of Engineering, University of Tokyo

>  <COMMENT>  (3526) 
SMILES=CC(=O)OC(C)(C)C
cas=540-88-5
InChI=InChI=1S/C6H12O2/c1-5(7)8-6(2,3)4/h1-4H3
computed SMILES=O=C(OC(C)(C)C)C
accession=JP007070
date=2016.01.19 (Created 2008.10.21, modified 2011.05.06)
author=SODA AROMATIC CO., LTD.
license=CC BY-NC-SA
exact mass=116.08373
ionization energy=70 eV
ion type=[M]+*
computed spectral entropy=2.2234754613952434
computed normalized entropy=0.7692697160221564
SPLASH=splash10-052f-9000000000-d84d771268471c3e5ca5
submitter=submitter = University of Tokyo Team (Faculty of Engineering, University of Tokyo)
MoNA Rating=3.75

>  <NUM PEAKS>  (3526) 
18

>  <MASS SPECTRAL PEAKS>  (3526) 
15 8.12
27 7.59
28 1.76
29 15.99
31 2.72
39 11.94
40 1.78
41 32.58
42 4.39
43 99.99
44 2.39
55 2.75
56 29.67
57 54.56
58 2.62
59 33.82
61 1.85
101 15.93

$$$$

     RDKit          2D

  8  7  0  0  0  0  0  0  0  0999 V2000
    0.0000    0.0000    0.0000 C   0  0  0  0  0  0  0  0  0  0  0  0
    1.2990    2.2500    0.0000 C   0  0  0  0  0  0  0  0  0  0  0  0
   -2.5981    6.0000    0.0000 C   0  0  0  0  0  0  0  0  0  0  0  0
   -1.2990    2.2500    0.0000 C   0  0  0  0  0  0  0  0  0  0  0  0
    0.0000    1.5000    0.0000 C   0  0  0  0  0  0  0  0  0  0  0  0
   -2.5981    4.5000    0.0000 C   0  0  0  0  0  0  0  0  0  0  0  0
   -3.8971    3.7500    0.0000 O   0  0  0  0  0  0  0  0  0  0  0  0
   -1.2990    3.7500    0.0000 O   0  0  0  0  0  0  0  0  0  0  0  0
  5  1  1  0
  5  2  1  0
  5  4  1  0
  6  3  1  0
  7  6  2  0
  8  4  1  0
  8  6  1  0
M  END
>  <NAME>  (3527) 
ISOBUTYL ACETATE

>  <SYNONYMS>  (3527) 


>  <SPECTRUM TYPE>  (3527) 
MS1

>  <INSTRUMENT TYPE>  (3527) 
EI-B

>  <INSTRUMENT>  (3527) 
HITACHI M-80B

>  <ION MODE>  (3527) 
P

>  <INCHIKEY>  (3527) 
GJRQTCIYDGXPES-UHFFFAOYSA-N

>  <FORMULA>  (3527) 
C6H12O2

>  <EXACT MASS>  (3527) 
116.083729624

>  <MW>  (3527) 
116

>  <ID>  (3527) 
JP007069

>  <CONTRIBUTOR>  (3527) 
University of Tokyo Team, {Faculty of Engineering, University of Tokyo

>  <COMMENT>  (3527) 
SMILES=CC(C)COC(C)=O
cas=110-19-0
InChI=InChI=1S/C6H12O2/c1-5(2)4-8-6(3)7/h5H,4H2,1-3H3
computed SMILES=O=C(OCC(C)C)C
accession=JP007069
date=2016.01.19 (Created 2008.10.21, modified 2011.05.06)
author=SODA AROMATIC CO., LTD.
license=CC BY-NC-SA
exact mass=116.08373
ionization energy=70 eV
ion type=[M]+*
computed spectral entropy=1.8518413468685628
computed normalized entropy=0.6536187438032266
SPLASH=splash10-0006-9000000000-ef6ece5c35a5dd154ad5
submitter=submitter = University of Tokyo Team (Faculty of Engineering, University of Tokyo)
MoNA Rating=3.75

>  <NUM PEAKS>  (3527) 
17

>  <MASS SPECTRAL PEAKS>  (3527) 
15 3.28
27 4.78
29 3.98
39 5.33
40 1.04
41 11.6
42 3.16
43 99.99
44 2.5
55 2.32
56 32.38
57 4.06
61 3.14
71 3.43
73 19.57
74 1.72
86 2.32

$$$$

     RDKit          2D

  8  7  0  0  0  0  0  0  0  0999 V2000
    1.9486    3.3750    0.0000 C   0  0  0  0  0  0  0  0  0  0  0  0
   -5.8457    3.3750    0.0000 C   0  0  0  0  0  0  0  0  0  0  0  0
    0.6495    4.1250    0.0000 C   0  0  0  0  0  0  0  0  0  0  0  0
   -0.6495    3.3750    0.0000 C   0  0  0  0  0  0  0  0  0  0  0  0
   -1.9486    4.1250    0.0000 C   0  0  0  0  0  0  0  0  0  0  0  0
   -4.5466    4.1250    0.0000 C   0  0  0  0  0  0  0  0  0  0  0  0
   -4.5466    5.6250    0.0000 O   0  0  0  0  0  0  0  0  0  0  0  0
   -3.2476    3.3750    0.0000 O   0  0  0  0  0  0  0  0  0  0  0  0
  3  1  1  0
  4  3  1  0
  5  4  1  0
  6  2  1  0
  7  6  2  0
  8  5  1  0
  8  6  1  0
M  END
>  <NAME>  (3528) 
BUTYL ACETATE

>  <SYNONYMS>  (3528) 


>  <SPECTRUM TYPE>  (3528) 
MS1

>  <INSTRUMENT TYPE>  (3528) 
EI-B

>  <INSTRUMENT>  (3528) 
HITACHI M-80B

>  <ION MODE>  (3528) 
P

>  <INCHIKEY>  (3528) 
DKPFZGUDAPQIHT-UHFFFAOYSA-N

>  <FORMULA>  (3528) 
C6H12O2

>  <EXACT MASS>  (3528) 
116.083729624

>  <MW>  (3528) 
116

>  <ID>  (3528) 
JP007068

>  <CONTRIBUTOR>  (3528) 
University of Tokyo Team, {Faculty of Engineering, University of Tokyo

>  <COMMENT>  (3528) 
SMILES=CCCCOC(C)=O
cas=123-86-4
InChI=InChI=1S/C6H12O2/c1-3-4-5-8-6(2)7/h3-5H2,1-2H3
computed SMILES=O=C(OCCCC)C
accession=JP007068
date=2016.01.19 (Created 2008.10.21, modified 2011.05.06)
author=SODA AROMATIC CO., LTD.
license=CC BY-NC-SA
exact mass=116.08373
ionization energy=70 eV
ion type=[M]+*
computed spectral entropy=2.06051010618935
computed normalized entropy=0.7128875725277458
SPLASH=splash10-0006-9000000000-39d2240c612740224374
submitter=submitter = University of Tokyo Team (Faculty of Engineering, University of Tokyo)
MoNA Rating=3.75

>  <NUM PEAKS>  (3528) 
18

>  <MASS SPECTRAL PEAKS>  (3528) 
15 4.98
27 8.34
28 2.94
29 8.14
31 1.37
39 5.31
41 16.31
42 4.26
43 99.99
44 3.09
55 6.98
56 39.8
57 3.92
58 1.62
61 13.76
71 1.25
73 16.49
87 1.28

$$$$

     RDKit          2D

  7  6  0  0  0  0  0  0  0  0999 V2000
    1.6238    1.6875    0.0000 C   0  0  0  0  0  0  0  0  0  0  0  0
    0.3248    3.9375    0.0000 C   0  0  0  0  0  0  0  0  0  0  0  0
   -3.5724    1.6875    0.0000 C   0  0  0  0  0  0  0  0  0  0  0  0
    0.3248    2.4375    0.0000 C   0  0  0  0  0  0  0  0  0  0  0  0
   -2.2733    2.4375    0.0000 C   0  0  0  0  0  0  0  0  0  0  0  0
   -2.2733    3.9375    0.0000 O   0  0  0  0  0  0  0  0  0  0  0  0
   -0.9743    1.6875    0.0000 O   0  0  0  0  0  0  0  0  0  0  0  0
  4  1  1  0
  4  2  1  0
  5  3  1  0
  6  5  2  0
  7  4  1  0
  7  5  1  0
M  END
>  <NAME>  (3529) 
ISOPROPYL ACETATE

>  <SYNONYMS>  (3529) 


>  <SPECTRUM TYPE>  (3529) 
MS1

>  <INSTRUMENT TYPE>  (3529) 
EI-B

>  <INSTRUMENT>  (3529) 
HITACHI M-80B

>  <ION MODE>  (3529) 
P

>  <INCHIKEY>  (3529) 
JMMWKPVZQRWMSS-UHFFFAOYSA-N

>  <FORMULA>  (3529) 
C5H10O2

>  <EXACT MASS>  (3529) 
102.06807956

>  <MW>  (3529) 
102

>  <ID>  (3529) 
JP007067

>  <CONTRIBUTOR>  (3529) 
University of Tokyo Team, {Faculty of Engineering, University of Tokyo

>  <COMMENT>  (3529) 
SMILES=CC(C)OC(C)=O
cas=108-21-4
InChI=InChI=1S/C5H10O2/c1-4(2)7-5(3)6/h4H,1-3H3
computed SMILES=O=C(OC(C)C)C
accession=JP007067
date=2016.01.19 (Created 2008.10.21, modified 2011.05.06)
author=SODA AROMATIC CO., LTD.
license=CC BY-NC-SA
exact mass=102.06808
ionization energy=70 eV
ion type=[M]+*
computed spectral entropy=1.735346051307084
computed normalized entropy=0.6765615259649845
SPLASH=splash10-0006-9000000000-7221a10e3a0d24de1b8d
submitter=submitter = University of Tokyo Team (Faculty of Engineering, University of Tokyo)
MoNA Rating=3.75

>  <NUM PEAKS>  (3529) 
13

>  <MASS SPECTRAL PEAKS>  (3529) 
15 7.8
27 7.23
29 2.27
31 1.4
39 5.35
41 11
42 6.49
43 99.99
44 2.56
45 3.49
59 8.33
61 18.4
87 10.01

$$$$

     RDKit          2D

  7  6  0  0  0  0  0  0  0  0999 V2000
    1.6238    3.1875    0.0000 C   0  0  0  0  0  0  0  0  0  0  0  0
   -4.8714    3.9375    0.0000 C   0  0  0  0  0  0  0  0  0  0  0  0
    0.3248    3.9375    0.0000 C   0  0  0  0  0  0  0  0  0  0  0  0
   -0.9743    3.1875    0.0000 C   0  0  0  0  0  0  0  0  0  0  0  0
   -3.5724    3.1875    0.0000 C   0  0  0  0  0  0  0  0  0  0  0  0
   -3.5724    1.6875    0.0000 O   0  0  0  0  0  0  0  0  0  0  0  0
   -2.2733    3.9375    0.0000 O   0  0  0  0  0  0  0  0  0  0  0  0
  3  1  1  0
  4  3  1  0
  5  2  1  0
  6  5  2  0
  7  4  1  0
  7  5  1  0
M  END
>  <NAME>  (3530) 
PROPYL ACETATE

>  <SYNONYMS>  (3530) 


>  <SPECTRUM TYPE>  (3530) 
MS1

>  <INSTRUMENT TYPE>  (3530) 
EI-B

>  <INSTRUMENT>  (3530) 
HITACHI M-80B

>  <ION MODE>  (3530) 
P

>  <INCHIKEY>  (3530) 
YKYONYBAUNKHLG-UHFFFAOYSA-N

>  <FORMULA>  (3530) 
C5H10O2

>  <EXACT MASS>  (3530) 
102.06807956

>  <MW>  (3530) 
102

>  <ID>  (3530) 
JP007066

>  <CONTRIBUTOR>  (3530) 
University of Tokyo Team, {Faculty of Engineering, University of Tokyo

>  <COMMENT>  (3530) 
SMILES=CCCOC(C)=O
cas=109-60-4
InChI=InChI=1S/C5H10O2/c1-3-4-7-5(2)6/h3-4H2,1-2H3
computed SMILES=O=C(OCCC)C
accession=JP007066
date=2016.01.19 (Created 2008.10.21, modified 2011.05.06)
author=SODA AROMATIC CO., LTD.
license=CC BY-NC-SA
exact mass=102.06808
ionization energy=70 eV
ion type=[M]+*
computed spectral entropy=1.7728343022345938
computed normalized entropy=0.6546534113411295
SPLASH=splash10-0006-9000000000-4de83bd1697d62bc041f
submitter=submitter = University of Tokyo Team (Faculty of Engineering, University of Tokyo)
MoNA Rating=3.75

>  <NUM PEAKS>  (3530) 
15

>  <MASS SPECTRAL PEAKS>  (3530) 
14 1.02
15 6.53
26 1.17
27 8.76
28 1.2
29 4.26
31 3.69
39 3.92
41 7.25
42 8.87
43 99.99
44 1.95
59 4.39
61 25.36
73 12.12

$$$$

     RDKit          2D

  7  6  0  0  0  0  0  0  0  0999 V2000
    1.6238    3.1875    0.0000 C   0  0  0  0  0  0  0  0  0  0  0  0
   -4.8714    3.9375    0.0000 C   0  0  0  0  0  0  0  0  0  0  0  0
    0.3248    3.9375    0.0000 C   0  0  0  0  0  0  0  0  0  0  0  0
   -0.9743    3.1875    0.0000 C   0  0  0  0  0  0  0  0  0  0  0  0
   -3.5724    3.1875    0.0000 C   0  0  0  0  0  0  0  0  0  0  0  0
   -3.5724    1.6875    0.0000 O   0  0  0  0  0  0  0  0  0  0  0  0
   -2.2733    3.9375    0.0000 O   0  0  0  0  0  0  0  0  0  0  0  0
  3  1  2  0
  4  3  1  0
  5  2  1  0
  6  5  2  0
  7  4  1  0
  7  5  1  0
M  END
>  <NAME>  (3531) 
ALLYL ACETATE

>  <SYNONYMS>  (3531) 


>  <SPECTRUM TYPE>  (3531) 
MS1

>  <INSTRUMENT TYPE>  (3531) 
EI-B

>  <INSTRUMENT>  (3531) 
HITACHI M-80B

>  <ION MODE>  (3531) 
P

>  <INCHIKEY>  (3531) 
FWZUNOYOVVKUNF-UHFFFAOYSA-N

>  <FORMULA>  (3531) 
C5H8O2

>  <EXACT MASS>  (3531) 
100.052429496

>  <MW>  (3531) 
100

>  <ID>  (3531) 
JP007065

>  <CONTRIBUTOR>  (3531) 
University of Tokyo Team, {Faculty of Engineering, University of Tokyo

>  <COMMENT>  (3531) 
SMILES=C=CCOC(C)=O
cas=591-87-7
InChI=InChI=1S/C5H8O2/c1-3-4-7-5(2)6/h3H,1,4H2,2H3
computed SMILES=O=C(OCC=C)C
accession=JP007065
date=2016.01.19 (Created 2008.10.21, modified 2011.05.06)
author=SODA AROMATIC CO., LTD.
license=CC BY-NC-SA
exact mass=100.05243
ionization energy=70 eV
ion type=[M]+*
computed spectral entropy=2.1131739994775263
computed normalized entropy=0.6940904666341289
SPLASH=splash10-0006-9000000000-12306a8743c250d0064d
submitter=submitter = University of Tokyo Team (Faculty of Engineering, University of Tokyo)
MoNA Rating=3.75

>  <NUM PEAKS>  (3531) 
21

>  <MASS SPECTRAL PEAKS>  (3531) 
14 1.22
15 7.73
18 3.78
26 2.93
27 6.81
28 2.31
29 5.68
31 1.29
37 1.17
38 2.92
39 20.09
40 4.24
41 20.65
42 5.12
43 99.99
44 3.87
55 1.02
57 10.87
58 14.5
61 3.16
72 1.28

$$$$

     RDKit          2D

  6  5  0  0  0  0  0  0  0  0999 V2000
    1.2990    2.2500    0.0000 C   0  0  0  0  0  0  0  0  0  0  0  0
   -3.8971    2.2500    0.0000 C   0  0  0  0  0  0  0  0  0  0  0  0
    0.0000    3.0000    0.0000 C   0  0  0  0  0  0  0  0  0  0  0  0
   -2.5981    3.0000    0.0000 C   0  0  0  0  0  0  0  0  0  0  0  0
   -2.5981    4.5000    0.0000 O   0  0  0  0  0  0  0  0  0  0  0  0
   -1.2990    2.2500    0.0000 O   0  0  0  0  0  0  0  0  0  0  0  0
  3  1  1  0
  4  2  1  0
  5  4  2  0
  6  3  1  0
  6  4  1  0
M  END
>  <NAME>  (3532) 
ETHYL ACETATE

>  <SYNONYMS>  (3532) 


>  <SPECTRUM TYPE>  (3532) 
MS1

>  <INSTRUMENT TYPE>  (3532) 
EI-B

>  <INSTRUMENT>  (3532) 
HITACHI M-80B

>  <ION MODE>  (3532) 
P

>  <INCHIKEY>  (3532) 
XEKOWRVHYACXOJ-UHFFFAOYSA-N

>  <FORMULA>  (3532) 
C4H8O2

>  <EXACT MASS>  (3532) 
88.052429496

>  <MW>  (3532) 
88

>  <ID>  (3532) 
JP007064

>  <CONTRIBUTOR>  (3532) 
University of Tokyo Team, {Faculty of Engineering, University of Tokyo

>  <COMMENT>  (3532) 
SMILES=CCOC(C)=O
cas=141-78-6
InChI=InChI=1S/C4H8O2/c1-3-6-4(2)5/h3H2,1-2H3
computed SMILES=O=C(OCC)C
accession=JP007064
date=2016.01.19 (Created 2008.10.21, modified 2011.05.06)
author=SODA AROMATIC CO., LTD.
license=CC BY-NC-SA
exact mass=88.05243
ionization energy=70 eV
ion type=[M]+*
computed spectral entropy=1.8718998720051025
computed normalized entropy=0.6751451655956118
SPLASH=splash10-0006-9000000000-6209b0c76b2469152461
submitter=submitter = University of Tokyo Team (Faculty of Engineering, University of Tokyo)
MoNA Rating=3.75

>  <NUM PEAKS>  (3532) 
16

>  <MASS SPECTRAL PEAKS>  (3532) 
14 1.72
15 8.98
26 2.32
27 10.2
28 2.08
29 15.74
30 1.04
31 1.01
42 5.95
43 99.99
44 2.57
45 13.08
61 12.68
70 7.38
73 4.55
88 5.1

$$$$

     RDKit          2D

  5  4  0  0  0  0  0  0  0  0999 V2000
    0.0000    0.0000    0.0000 C   0  0  0  0  0  0  0  0  0  0  0  0
   -1.2990    3.7500    0.0000 C   0  0  0  0  0  0  0  0  0  0  0  0
    0.0000    1.5000    0.0000 C   0  0  0  0  0  0  0  0  0  0  0  0
    1.2990    2.2500    0.0000 O   0  0  0  0  0  0  0  0  0  0  0  0
   -1.2990    2.2500    0.0000 O   0  0  0  0  0  0  0  0  0  0  0  0
  3  1  1  0
  4  3  2  0
  5  2  1  0
  5  3  1  0
M  END
>  <NAME>  (3533) 
METHYL ACETATE

>  <SYNONYMS>  (3533) 


>  <SPECTRUM TYPE>  (3533) 
MS1

>  <INSTRUMENT TYPE>  (3533) 
EI-B

>  <INSTRUMENT>  (3533) 
HITACHI M-80B

>  <ION MODE>  (3533) 
P

>  <INCHIKEY>  (3533) 
KXKVLQRXCPHEJC-UHFFFAOYSA-N

>  <FORMULA>  (3533) 
C3H6O2

>  <EXACT MASS>  (3533) 
74.036779432

>  <MW>  (3533) 
74

>  <ID>  (3533) 
JP007063

>  <CONTRIBUTOR>  (3533) 
University of Tokyo Team, {Faculty of Engineering, University of Tokyo

>  <COMMENT>  (3533) 
SMILES=COC(C)=O
cas=79-20-9
InChI=InChI=1S/C3H6O2/c1-3(4)5-2/h1-2H3
computed SMILES=O=C(OC)C
accession=JP007063
date=2016.01.19 (Created 2008.10.21, modified 2011.05.06)
author=SODA AROMATIC CO., LTD.
license=CC BY-NC-SA
exact mass=74.03678
ionization energy=70 eV
ion type=[M]+*
computed spectral entropy=1.5363398718572479
computed normalized entropy=0.6182686468275662
SPLASH=splash10-0006-9000000000-8e16bef1c0d338a20817
submitter=submitter = University of Tokyo Team (Faculty of Engineering, University of Tokyo)
MoNA Rating=3.75

>  <NUM PEAKS>  (3533) 
12

>  <MASS SPECTRAL PEAKS>  (3533) 
14 3.96
15 22.79
29 7.89
30 1.04
31 2.05
41 1.03
42 10.25
43 99.99
44 2.23
45 1.04
59 6.94
74 19.3

$$$$

     RDKit          2D

 12 12  0  0  0  0  0  0  0  0999 V2000
   -3.9180   -0.7714    0.0000 C   0  0  0  0  0  0  0  0  0  0  0  0
    1.3000   -0.7500    0.0000 C   0  0  0  0  0  0  0  0  0  0  0  0
    0.0300    1.5000    0.0000 C   0  0  0  0  0  0  0  0  0  0  0  0
    0.0300   -1.5000    0.0000 C   0  0  0  0  0  0  0  0  0  0  0  0
   -1.3200    0.7500    0.0000 C   0  0  0  0  0  0  0  0  0  0  0  0
    2.6027    1.4936    0.0000 C   0  0  0  0  0  0  0  0  0  0  0  0
    5.2008    1.4808    0.0000 C   0  0  0  0  0  0  0  0  0  0  0  0
    1.3000    0.7500    0.0000 C   0  0  0  0  0  0  0  0  0  0  0  0
   -1.3200   -0.7500    0.0000 C   0  0  0  0  0  0  0  0  0  0  0  0
    6.4961    0.7244    0.0000 O   0  0  0  0  0  0  0  0  0  0  0  0
   -2.6128   -1.5107    0.0000 O   0  0  0  0  0  0  0  0  0  0  0  0
    3.8980    0.7372    0.0000 O   0  0  0  0  0  0  0  0  0  0  0  0
  4  2  2  0
  5  3  1  0
  8  2  1  0
  8  3  2  0
  8  6  1  0
  9  4  1  0
  9  5  2  0
 10  7  2  0
 11  1  1  0
 11  9  1  0
 12  6  1  0
 12  7  1  0
M  END
>  <NAME>  (3534) 
ANISYL FORMATE

>  <SYNONYMS>  (3534) 
P-METHOXYBENZYL FORMATE

>  <SPECTRUM TYPE>  (3534) 
MS1

>  <INSTRUMENT TYPE>  (3534) 
EI-B

>  <INSTRUMENT>  (3534) 
HITACHI M-80B

>  <ION MODE>  (3534) 
P

>  <INCHIKEY>  (3534) 
XPDORSROGAZEGY-UHFFFAOYSA-N

>  <FORMULA>  (3534) 
C9H10O3

>  <EXACT MASS>  (3534) 
166.06299417999998

>  <MW>  (3534) 
166

>  <ID>  (3534) 
JP007062

>  <CONTRIBUTOR>  (3534) 
University of Tokyo Team, {Faculty of Engineering, University of Tokyo

>  <COMMENT>  (3534) 
InChI=InChI=1S/C9H10O3/c1-11-9-4-2-8(3-5-9)6-12-7-10/h2-5,7H,6H2,1H3
SMILES=O=COCc(c1)ccc(OC)c1
cas=122-91-8
computed SMILES=O=COCC1=CC=C(OC)C=C1
accession=JP007062
date=2016.01.19 (Created 2008.10.21, modified 2011.05.06)
author=SODA AROMATIC CO., LTD.
license=CC BY-NC-SA
exact mass=166.06299
ionization energy=70 eV
ion type=[M]+*
computed spectral entropy=2.659892943645409
computed normalized entropy=0.7366251485062442
SPLASH=splash10-00di-5900000000-f68b828805d0c2f3d9f5
submitter=submitter = University of Tokyo Team (Faculty of Engineering, University of Tokyo)
MoNA Rating=3.75

>  <NUM PEAKS>  (3534) 
37

>  <MASS SPECTRAL PEAKS>  (3534) 
15 1.3
27 1.22
29 8.39
31 1.08
38 1.47
39 6.16
41 1.86
50 4.27
51 9.22
52 5.16
53 1.67
62 1.53
63 5.44
64 2.98
65 4.13
66 1.91
76 1.08
77 15.94
78 12.46
79 1.88
89 4.46
90 3.11
91 9.38
92 4
94 2.41
105 2.33
106 1.43
107 1.38
109 1.72
119 1.38
120 15.65
121 99.99
122 8.38
135 1.88
137 1.08
166 30.7
167 3

$$$$

     RDKit          2D

 11 11  0  0  0  0  0  0  0  0999 V2000
    3.5726    0.8821    0.0000 C   0  0  0  0  0  0  0  0  0  0  0  0
    3.5731    2.3829    0.0000 C   0  0  0  0  0  0  0  0  0  0  0  0
    2.2731    0.1313    0.0000 C   0  0  0  0  0  0  0  0  0  0  0  0
    2.2740    3.1329    0.0000 C   0  0  0  0  0  0  0  0  0  0  0  0
    0.9740    0.8813    0.0000 C   0  0  0  0  0  0  0  0  0  0  0  0
   -0.3245    3.1321    0.0000 C   0  0  0  0  0  0  0  0  0  0  0  0
   -1.6236    2.3821    0.0000 C   0  0  0  0  0  0  0  0  0  0  0  0
   -4.2216    2.3821    0.0000 C   0  0  0  0  0  0  0  0  0  0  0  0
    0.9745    2.3821    0.0000 C   0  0  0  0  0  0  0  0  0  0  0  0
   -5.5207    3.1321    0.0000 O   0  0  0  0  0  0  0  0  0  0  0  0
   -2.9226    3.1321    0.0000 O   0  0  0  0  0  0  0  0  0  0  0  0
  2  1  2  0
  3  1  1  0
  4  2  1  0
  5  3  2  0
  7  6  1  0
  9  4  2  0
  9  5  1  0
  9  6  1  0
 10  8  2  0
 11  7  1  0
 11  8  1  0
M  END
>  <NAME>  (3535) 
2-PHENYLETHYL FORMATE

>  <SYNONYMS>  (3535) 


>  <SPECTRUM TYPE>  (3535) 
MS1

>  <INSTRUMENT TYPE>  (3535) 
EI-B

>  <INSTRUMENT>  (3535) 
HITACHI M-80B

>  <ION MODE>  (3535) 
P

>  <INCHIKEY>  (3535) 
IKDIJXDZEYHZSD-UHFFFAOYSA-N

>  <FORMULA>  (3535) 
C9H10O2

>  <EXACT MASS>  (3535) 
150.06807956

>  <MW>  (3535) 
150

>  <ID>  (3535) 
JP007061

>  <CONTRIBUTOR>  (3535) 
University of Tokyo Team, {Faculty of Engineering, University of Tokyo

>  <COMMENT>  (3535) 
SMILES=O=COCCc(c1)cccc1
cas=104-62-1
InChI=InChI=1S/C9H10O2/c10-8-11-7-6-9-4-2-1-3-5-9/h1-5,8H,6-7H2
computed SMILES=O=COCCC=1C=CC=CC1
accession=JP007061
date=2016.01.19 (Created 2008.10.21, modified 2011.05.06)
author=SODA AROMATIC CO., LTD.
license=CC BY-NC-SA
exact mass=150.06808
ionization energy=70 eV
ion type=[M]+*
computed spectral entropy=2.1807071985746838
computed normalized entropy=0.7162723360335399
SPLASH=splash10-0udl-9700000000-2305889f29c68dad4bf8
submitter=submitter = University of Tokyo Team (Faculty of Engineering, University of Tokyo)
MoNA Rating=3.75

>  <NUM PEAKS>  (3535) 
21

>  <MASS SPECTRAL PEAKS>  (3535) 
27 2.86
29 7.3
31 7.61
38 1.05
39 8.35
41 1.39
50 3.6
51 8.43
52 1.78
62 1.18
63 4.55
65 12.32
77 8.22
78 6.91
79 2.92
89 2.12
91 52.31
92 5.87
103 7.47
104 99.99
105 11.85

$$$$

     RDKit          2D

 12 12  0  0  0  0  0  0  0  0999 V2000
    3.5726    1.6321    0.0000 C   0  0  0  0  0  0  0  0  0  0  0  0
    3.5731    3.1329    0.0000 C   0  0  0  0  0  0  0  0  0  0  0  0
    2.2731    0.8813    0.0000 C   0  0  0  0  0  0  0  0  0  0  0  0
   -1.6236    3.1321    0.0000 C   0  0  0  0  0  0  0  0  0  0  0  0
    2.2740    3.8829    0.0000 C   0  0  0  0  0  0  0  0  0  0  0  0
    0.9740    1.6313    0.0000 C   0  0  0  0  0  0  0  0  0  0  0  0
   -0.3245    3.8821    0.0000 C   0  0  0  0  0  0  0  0  0  0  0  0
   -2.9226    3.8821    0.0000 C   0  0  0  0  0  0  0  0  0  0  0  0
   -5.5207    3.8821    0.0000 C   0  0  0  0  0  0  0  0  0  0  0  0
    0.9745    3.1321    0.0000 C   0  0  0  0  0  0  0  0  0  0  0  0
   -6.8197    3.1321    0.0000 O   0  0  0  0  0  0  0  0  0  0  0  0
   -4.2216    3.1321    0.0000 O   0  0  0  0  0  0  0  0  0  0  0  0
  2  1  2  0
  3  1  1  0
  5  2  1  0
  6  3  2  0
  4  7  2  0
  8  4  1  0
 10  5  2  0
 10  6  1  0
 10  7  1  0
 11  9  2  0
 12  8  1  0
 12  9  1  0
M  END
>  <NAME>  (3536) 
CINNAMYL FORMATE

>  <SYNONYMS>  (3536) 


>  <SPECTRUM TYPE>  (3536) 
MS1

>  <INSTRUMENT TYPE>  (3536) 
EI-B

>  <INSTRUMENT>  (3536) 
HITACHI M-80B

>  <ION MODE>  (3536) 
P

>  <INCHIKEY>  (3536) 
LBHJXKYRYCUGPD-QPJJXVBHSA-N

>  <FORMULA>  (3536) 
C10H10O2

>  <EXACT MASS>  (3536) 
162.06807956

>  <MW>  (3536) 
162

>  <ID>  (3536) 
JP007060

>  <CONTRIBUTOR>  (3536) 
University of Tokyo Team, {Faculty of Engineering, University of Tokyo

>  <COMMENT>  (3536) 
SMILES=O=COCC=Cc(c1)cccc1
InChI=InChI=1S/C10H10O2/c11-9-12-8-4-7-10-5-2-1-3-6-10/h1-7,9H,8H2/b7-4+
computed SMILES=O=COCC=CC=1C=CC=CC1
accession=JP007060
date=2016.01.19 (Created 2008.10.21, modified 2011.05.06)
author=SODA AROMATIC CO., LTD.
license=CC BY-NC-SA
exact mass=162.06808
ionization energy=70 eV
ion type=[M]+*
computed spectral entropy=3.2385202872316787
computed normalized entropy=0.8196204835459681
SPLASH=splash10-014i-8900000000-dc39a09b4ea9d66fbc6f
submitter=submitter = University of Tokyo Team (Faculty of Engineering, University of Tokyo)
MoNA Rating=3.75

>  <NUM PEAKS>  (3536) 
52

>  <MASS SPECTRAL PEAKS>  (3536) 
26 1.4
27 8.39
29 21.75
31 3.49
38 2.94
39 21.21
40 1.41
41 1.84
43 1.19
50 11.27
51 26.07
52 4.52
53 2.35
55 7.88
56 2.06
57 3.42
61 1.23
62 4.46
63 15.28
64 2.41
65 10.65
66 1.17
74 3.89
75 3.89
76 4.31
77 31.8
78 30.37
79 12.96
86 1.06
87 1.71
89 9.59
90 1.91
91 48.81
92 50.23
93 2.89
102 7.92
103 14.14
104 3.37
105 29.8
106 3.51
107 1.04
113 1.03
114 2.41
115 99.99
116 55.56
117 65.93
118 5.91
131 2.56
133 31.89
134 7.6
162 52.52
163 5.02

$$$$

     RDKit          2D

 10 10  0  0  0  0  0  0  0  0999 V2000
    2.6027    1.4936    0.0000 C   0  0  0  0  0  0  0  0  0  0  0  0
    1.3000   -0.7500    0.0000 C   0  0  0  0  0  0  0  0  0  0  0  0
    0.0300    1.5000    0.0000 C   0  0  0  0  0  0  0  0  0  0  0  0
    0.0300   -1.5000    0.0000 C   0  0  0  0  0  0  0  0  0  0  0  0
   -1.3200    0.7500    0.0000 C   0  0  0  0  0  0  0  0  0  0  0  0
   -3.9180   -0.7714    0.0000 C   0  0  0  0  0  0  0  0  0  0  0  0
    1.3000    0.7500    0.0000 C   0  0  0  0  0  0  0  0  0  0  0  0
   -1.3200   -0.7500    0.0000 C   0  0  0  0  0  0  0  0  0  0  0  0
   -5.2108   -1.5321    0.0000 O   0  0  0  0  0  0  0  0  0  0  0  0
   -2.6128   -1.5107    0.0000 O   0  0  0  0  0  0  0  0  0  0  0  0
  4  2  2  0
  5  3  1  0
  7  1  1  0
  7  2  1  0
  7  3  2  0
  8  4  1  0
  8  5  2  0
  9  6  2  0
 10  6  1  0
 10  8  1  0
M  END
>  <NAME>  (3537) 
P-CRESYL FORMATE

>  <SYNONYMS>  (3537) 


>  <SPECTRUM TYPE>  (3537) 
MS1

>  <INSTRUMENT TYPE>  (3537) 
EI-B

>  <INSTRUMENT>  (3537) 
HITACHI M-80B

>  <ION MODE>  (3537) 
P

>  <INCHIKEY>  (3537) 
NEIANUMOAXBNRT-UHFFFAOYSA-N

>  <FORMULA>  (3537) 
C8H8O2

>  <EXACT MASS>  (3537) 
136.052429496

>  <MW>  (3537) 
136

>  <ID>  (3537) 
JP007059

>  <CONTRIBUTOR>  (3537) 
University of Tokyo Team, {Faculty of Engineering, University of Tokyo

>  <COMMENT>  (3537) 
SMILES=O=COc(c1)ccc(C)c1
InChI=InChI=1S/C8H8O2/c1-7-2-4-8(5-3-7)10-6-9/h2-6H,1H3
computed SMILES=O=COC1=CC=C(C=C1)C
accession=JP007059
date=2016.01.19 (Created 2008.10.21, modified 2011.05.06)
author=SODA AROMATIC CO., LTD.
license=CC BY-NC-SA
exact mass=136.05243
ionization energy=70 eV
ion type=[M]+*
computed spectral entropy=2.7123978446848436
computed normalized entropy=0.7691776906390148
SPLASH=splash10-0a4i-8900000000-e9466d9d0c9014bf2c19
submitter=submitter = University of Tokyo Team (Faculty of Engineering, University of Tokyo)
MoNA Rating=3.75

>  <NUM PEAKS>  (3537) 
34

>  <MASS SPECTRAL PEAKS>  (3537) 
26 2.22
27 11.78
29 17.74
37 1.1
38 2.59
39 14.23
40 1.16
41 1.14
49 1.03
50 10.42
51 18.07
52 10.27
53 11.37
55 2.14
61 1.16
62 2.69
63 7.19
64 1.61
65 5.81
74 1.56
77 29.59
78 9.8
79 21.15
80 7.39
81 1.33
89 2.36
90 8.63
91 5.82
106 1.06
107 99.99
108 85.05
109 6.89
136 34.51
137 2.47

$$$$

     RDKit          2D

 10 10  0  0  0  0  0  0  0  0999 V2000
    2.9231    0.5071    0.0000 C   0  0  0  0  0  0  0  0  0  0  0  0
    2.9236    2.0079    0.0000 C   0  0  0  0  0  0  0  0  0  0  0  0
    1.6236   -0.2437    0.0000 C   0  0  0  0  0  0  0  0  0  0  0  0
    1.6245    2.7579    0.0000 C   0  0  0  0  0  0  0  0  0  0  0  0
    0.3245    0.5063    0.0000 C   0  0  0  0  0  0  0  0  0  0  0  0
   -0.9740    2.7571    0.0000 C   0  0  0  0  0  0  0  0  0  0  0  0
   -3.5721    2.7571    0.0000 C   0  0  0  0  0  0  0  0  0  0  0  0
    0.3250    2.0071    0.0000 C   0  0  0  0  0  0  0  0  0  0  0  0
   -4.8712    2.0071    0.0000 O   0  0  0  0  0  0  0  0  0  0  0  0
   -2.2731    2.0071    0.0000 O   0  0  0  0  0  0  0  0  0  0  0  0
  2  1  2  0
  3  1  1  0
  4  2  1  0
  5  3  2  0
  8  4  2  0
  8  5  1  0
  8  6  1  0
  9  7  2  0
 10  6  1  0
 10  7  1  0
M  END
>  <NAME>  (3538) 
BENZYL FORMATE

>  <SYNONYMS>  (3538) 
FORMIC ACID BENZYL ESTER

>  <SPECTRUM TYPE>  (3538) 
MS1

>  <INSTRUMENT TYPE>  (3538) 
EI-B

>  <INSTRUMENT>  (3538) 
HITACHI M-80B

>  <ION MODE>  (3538) 
P

>  <INCHIKEY>  (3538) 
UYWQUFXKFGHYNT-UHFFFAOYSA-N

>  <FORMULA>  (3538) 
C8H8O2

>  <EXACT MASS>  (3538) 
136.052429496

>  <MW>  (3538) 
136

>  <ID>  (3538) 
JP007058

>  <CONTRIBUTOR>  (3538) 
University of Tokyo Team, {Faculty of Engineering, University of Tokyo

>  <COMMENT>  (3538) 
SMILES=O=COCc(c1)cccc1
cas=104-57-4
InChI=InChI=1S/C8H8O2/c9-7-10-6-8-4-2-1-3-5-8/h1-5,7H,6H2
computed SMILES=O=COCC=1C=CC=CC1
accession=JP007058
date=2016.01.19 (Created 2008.10.21, modified 2011.05.06)
author=SODA AROMATIC CO., LTD.
license=CC BY-NC-SA
exact mass=136.05243
ionization energy=70 eV
ion type=[M]+*
computed spectral entropy=2.885129886158294
computed normalized entropy=0.7990017928836144
SPLASH=splash10-0006-9200000000-52dbf7a517edbbca660d
submitter=submitter = University of Tokyo Team (Faculty of Engineering, University of Tokyo)
MoNA Rating=3.75

>  <NUM PEAKS>  (3538) 
37

>  <MASS SPECTRAL PEAKS>  (3538) 
26 1.28
27 4.67
29 17.67
31 2.21
37 1.42
38 4.96
39 19.95
40 1.19
41 2.25
49 1
50 12.46
51 25.74
52 6.82
53 2.6
61 1.61
62 5.06
63 12.68
64 3.83
65 24.65
66 1.3
74 2.52
75 1.67
76 1.63
77 32.62
78 6.5
79 32.28
80 3.59
89 19.74
90 80.41
91 99.99
92 8.07
105 3.61
107 27.58
108 30.77
109 1.97
136 60.54
137 5.36

$$$$

     RDKit          2D

 13 13  0  0  0  0  0  0  0  0999 V2000
    3.3463    0.1909    0.0000 C   0  0  0  0  0  0  0  0  0  0  0  0
    3.9054    2.2372    0.0000 C   0  0  0  0  0  0  0  0  0  0  0  0
    1.8591    2.7963    0.0000 C   0  0  0  0  0  0  0  0  0  0  0  0
    1.3000   -0.7500    0.0000 C   0  0  0  0  0  0  0  0  0  0  0  0
    0.0300    1.5000    0.0000 C   0  0  0  0  0  0  0  0  0  0  0  0
    0.0300   -1.5000    0.0000 C   0  0  0  0  0  0  0  0  0  0  0  0
   -1.3200    0.7500    0.0000 C   0  0  0  0  0  0  0  0  0  0  0  0
   -3.9180   -0.7714    0.0000 C   0  0  0  0  0  0  0  0  0  0  0  0
    1.3000    0.7500    0.0000 C   0  0  0  0  0  0  0  0  0  0  0  0
   -1.3200   -0.7500    0.0000 C   0  0  0  0  0  0  0  0  0  0  0  0
    2.6027    1.4936    0.0000 C   0  0  0  0  0  0  0  0  0  0  0  0
   -5.2108   -1.5321    0.0000 O   0  0  0  0  0  0  0  0  0  0  0  0
   -2.6128   -1.5107    0.0000 O   0  0  0  0  0  0  0  0  0  0  0  0
  6  4  1  0
  7  5  1  0
  9  4  1  0
  9  5  1  0
 10  6  1  0
 10  7  1  0
 11  1  1  0
 11  2  1  0
 11  3  1  0
 11  9  1  0
 12  8  2  0
 13  8  1  0
 13 10  1  0
M  END
>  <NAME>  (3539) 
P-TERT-BUTYLCYCLOHEXYL FORMATE

>  <SYNONYMS>  (3539) 


>  <SPECTRUM TYPE>  (3539) 
MS1

>  <INSTRUMENT TYPE>  (3539) 
EI-B

>  <INSTRUMENT>  (3539) 
HITACHI M-80B

>  <ION MODE>  (3539) 
P

>  <INCHIKEY>  (3539) 
ZIIKTNCFALFPNK-UHFFFAOYSA-N

>  <FORMULA>  (3539) 
C11H20O2

>  <EXACT MASS>  (3539) 
184.14632988

>  <MW>  (3539) 
184

>  <ID>  (3539) 
JP007057

>  <CONTRIBUTOR>  (3539) 
University of Tokyo Team, {Faculty of Engineering, University of Tokyo

>  <COMMENT>  (3539) 
SMILES=O=COC(C1)CCC(C1)C(C)(C)C
InChI=InChI=1S/C11H20O2/c1-11(2,3)9-4-6-10(7-5-9)13-8-12/h8-10H,4-7H2,1-3H3
computed SMILES=O=COC1CCC(CC1)C(C)(C)C
accession=JP007057
date=2016.01.19 (Created 2008.10.21, modified 2011.05.06)
author=SODA AROMATIC CO., LTD.
license=CC BY-NC-SA
exact mass=184.14633
ionization energy=70 eV
ion type=[M]+*
computed spectral entropy=2.823117788049303
computed normalized entropy=0.8005754852183171
SPLASH=splash10-0a59-9000000000-d9b83528905a7fff432a
submitter=submitter = University of Tokyo Team (Faculty of Engineering, University of Tokyo)
MoNA Rating=3.75

>  <NUM PEAKS>  (3539) 
34

>  <MASS SPECTRAL PEAKS>  (3539) 
27 5.11
29 13.44
31 1.05
39 7.4
40 1.09
41 30.9
42 1.76
43 6.87
44 2.06
53 4.69
54 6.22
55 12.69
56 32.87
57 99.99
58 4.98
65 1.05
67 32.34
68 2.23
69 5.66
77 1.52
79 5.12
80 13.45
81 21.49
82 38.89
83 26.93
84 1.52
95 2.29
123 15.36
124 1.21
127 3.43
128 3.24
129 8.38
138 4.86
139 1.51

$$$$

     RDKit          2D

  9  9  0  0  0  0  0  0  0  0999 V2000
   -1.6700   -0.9600    0.0000 C   0  0  0  0  0  0  0  0  0  0  0  0
   -1.6700    0.5400    0.0000 C   0  0  0  0  0  0  0  0  0  0  0  0
   -0.3700   -1.7100    0.0000 C   0  0  0  0  0  0  0  0  0  0  0  0
   -0.3700    1.2900    0.0000 C   0  0  0  0  0  0  0  0  0  0  0  0
    0.9300   -0.9600    0.0000 C   0  0  0  0  0  0  0  0  0  0  0  0
    3.5281    0.5404    0.0000 C   0  0  0  0  0  0  0  0  0  0  0  0
    0.9300    0.5400    0.0000 C   0  0  0  0  0  0  0  0  0  0  0  0
    4.8270    1.2906    0.0000 O   0  0  0  0  0  0  0  0  0  0  0  0
    2.2289    1.2902    0.0000 O   0  0  0  0  0  0  0  0  0  0  0  0
  2  1  1  0
  3  1  1  0
  4  2  1  0
  5  3  1  0
  7  4  1  0
  7  5  1  0
  8  6  2  0
  9  6  1  0
  9  7  1  0
M  END
>  <NAME>  (3540) 
CYCLOHEXYL FORMATE

>  <SYNONYMS>  (3540) 


>  <SPECTRUM TYPE>  (3540) 
MS1

>  <INSTRUMENT TYPE>  (3540) 
EI-B

>  <INSTRUMENT>  (3540) 
HITACHI M-80B

>  <ION MODE>  (3540) 
P

>  <INCHIKEY>  (3540) 
VUXKVKAHWOVIDN-UHFFFAOYSA-N

>  <FORMULA>  (3540) 
C7H12O2

>  <EXACT MASS>  (3540) 
128.083729624

>  <MW>  (3540) 
128

>  <ID>  (3540) 
JP007056

>  <CONTRIBUTOR>  (3540) 
University of Tokyo Team, {Faculty of Engineering, University of Tokyo

>  <COMMENT>  (3540) 
SMILES=O=COC(C1)CCCC1
cas=4351-54-6
InChI=InChI=1S/C7H12O2/c8-6-9-7-4-2-1-3-5-7/h6-7H,1-5H2
computed SMILES=O=COC1CCCCC1
accession=JP007056
date=2016.01.19 (Created 2008.10.21, modified 2011.05.06)
author=SODA AROMATIC CO., LTD.
license=CC BY-NC-SA
exact mass=128.08373
ionization energy=70 eV
ion type=[M]+*
computed spectral entropy=2.61614920770068
computed normalized entropy=0.7769288294789319
SPLASH=splash10-05o0-9000000000-a2aec3378d1a4e443f77
submitter=submitter = University of Tokyo Team (Faculty of Engineering, University of Tokyo)
MoNA Rating=3.75

>  <NUM PEAKS>  (3540) 
29

>  <MASS SPECTRAL PEAKS>  (3540) 
26 1.31
27 14.75
28 2.71
29 19.27
31 4.67
39 18.63
40 2.94
41 32.94
42 6.88
43 9.46
44 12.92
45 1.39
51 2.26
53 6.29
54 37.37
55 28.56
56 4.82
57 41.09
58 2.74
66 1.16
67 99.6
68 6.22
69 1.04
71 1.97
77 1.08
79 2.43
81 8.71
82 99.99
83 19.85

$$$$

     RDKit          2D

 18 17  0  0  0  0  0  0  0  0999 V2000
    4.1274    7.8511    0.0000 C   0  0  0  0  0  0  0  0  0  0  0  0
  -10.1620    8.6011    0.0000 C   0  0  0  0  0  0  0  0  0  0  0  0
   -8.8630    6.3511    0.0000 C   0  0  0  0  0  0  0  0  0  0  0  0
   -3.6668    6.3511    0.0000 C   0  0  0  0  0  0  0  0  0  0  0  0
    0.5652    6.7020    0.0000 C   0  0  0  0  0  0  0  0  0  0  0  0
    2.8284    8.6011    0.0000 C   0  0  0  0  0  0  0  0  0  0  0  0
   -6.2649    7.8511    0.0000 C   0  0  0  0  0  0  0  0  0  0  0  0
   -1.0687    7.8511    0.0000 C   0  0  0  0  0  0  0  0  0  0  0  0
   -7.5639    8.6011    0.0000 C   0  0  0  0  0  0  0  0  0  0  0  0
   -4.9659    8.6011    0.0000 C   0  0  0  0  0  0  0  0  0  0  0  0
   -2.3678    8.6011    0.0000 C   0  0  0  0  0  0  0  0  0  0  0  0
    0.2303    8.6011    0.0000 C   0  0  0  0  0  0  0  0  0  0  0  0
    3.9707    6.9625    0.0000 C   0  0  0  0  0  0  0  0  0  0  0  0
   -8.8630    7.8511    0.0000 C   0  0  0  0  0  0  0  0  0  0  0  0
   -3.6668    7.8511    0.0000 C   0  0  0  0  0  0  0  0  0  0  0  0
    1.5293    7.8511    0.0000 C   0  0  0  0  0  0  0  0  0  0  0  0
    4.9349    5.8134    0.0000 O   0  0  0  0  0  0  0  0  0  0  0  0
    2.4935    6.7020    0.0000 O   0  0  0  0  0  0  0  0  0  0  0  0
  6  1  2  0
  9  7  1  0
 10  7  1  0
 11  8  1  0
 12  8  1  0
 14  2  1  0
 14  3  1  0
 14  9  2  0
 15  4  1  0
 15 10  1  0
 11 15  2  0
 16  5  1  0
 16  6  1  0
 16 12  1  0
 17 13  2  0
 18 13  1  0
 18 16  1  0
M  END
>  <NAME>  (3541) 
TRANS-NEROLIDYL FORMATE

>  <SYNONYMS>  (3541) 
TRANS-3,7,11-TRIMETHYL-1,6,10-DODECATRIEN-3-YL FORMATE

>  <SPECTRUM TYPE>  (3541) 
MS1

>  <INSTRUMENT TYPE>  (3541) 
EI-B

>  <INSTRUMENT>  (3541) 
HITACHI M-80B

>  <ION MODE>  (3541) 
P

>  <INCHIKEY>  (3541) 
GJPVEZJRYIBIOD-RVDMUPIBSA-N

>  <FORMULA>  (3541) 
C16H26O2

>  <EXACT MASS>  (3541) 
250.193280072

>  <MW>  (3541) 
250

>  <ID>  (3541) 
JP007055

>  <CONTRIBUTOR>  (3541) 
University of Tokyo Team, {Faculty of Engineering, University of Tokyo

>  <COMMENT>  (3541) 
SMILES=O=COC(C)(C=C)CCC=C(C)CCC=C(C)C
InChI=InChI=1S/C16H26O2/c1-6-16(5,18-13-17)12-8-11-15(4)10-7-9-14(2)3/h6,9,11,13H,1,7-8,10,12H2,2-5H3/b15-11+
computed SMILES=O=COC(C=C)(C)CCC=C(C)CCC=C(C)C
accession=JP007055
date=2016.01.19 (Created 2008.10.21, modified 2011.05.06)
author=SODA AROMATIC CO., LTD.
license=CC BY-NC-SA
exact mass=250.19328
ionization energy=70 eV
ion type=[M]+*
computed spectral entropy=3.400970550608162
computed normalized entropy=0.8088511714087627
SPLASH=splash10-00kf-9200000000-0d04e4fcd1e34807df08
submitter=submitter = University of Tokyo Team (Faculty of Engineering, University of Tokyo)
MoNA Rating=3.75

>  <NUM PEAKS>  (3541) 
67

>  <MASS SPECTRAL PEAKS>  (3541) 
27 9.75
29 7.49
31 1.68
39 11.07
40 2.73
41 73.35
42 5.01
43 50.87
44 1.14
45 2.02
51 2.1
52 1.39
53 11.11
54 2.59
55 32.16
56 2.18
57 4.25
58 1.92
59 1.25
65 3.43
66 1.64
67 25.7
68 10.16
69 99.99
70 8.31
71 48.52
72 2.44
77 5.33
78 1.45
79 14.7
80 11.28
81 28.25
83 4.77
84 1.25
91 7.8
92 2.47
93 53.33
94 7.15
96 2.11
97 3.81
105 4.48
106 1.5
107 31.14
108 4.28
109 11.84
110 1.67
111 2.4
119 5.54
120 2.19
121 9.87
122 4.07
123 10.97
124 2.17
125 1.07
133 2.41
135 8.95
136 17.41
137 3.53
139 1.21
147 1.6
148 2.26
149 1.38
161 11.1
162 2.79
179 1.49
189 2.58
204 2.11

$$$$

     RDKit          2D

 13 12  0  0  0  0  0  0  0  0999 V2000
   -8.7685    6.1875    0.0000 C   0  0  0  0  0  0  0  0  0  0  0  0
   -7.4695    3.9375    0.0000 C   0  0  0  0  0  0  0  0  0  0  0  0
   -2.2733    3.9375    0.0000 C   0  0  0  0  0  0  0  0  0  0  0  0
   -4.8714    5.4375    0.0000 C   0  0  0  0  0  0  0  0  0  0  0  0
   -6.1704    6.1875    0.0000 C   0  0  0  0  0  0  0  0  0  0  0  0
   -3.5724    6.1875    0.0000 C   0  0  0  0  0  0  0  0  0  0  0  0
   -0.9743    6.1875    0.0000 C   0  0  0  0  0  0  0  0  0  0  0  0
    0.3248    5.4375    0.0000 C   0  0  0  0  0  0  0  0  0  0  0  0
    2.9228    5.4375    0.0000 C   0  0  0  0  0  0  0  0  0  0  0  0
   -7.4695    5.4375    0.0000 C   0  0  0  0  0  0  0  0  0  0  0  0
   -2.2733    5.4375    0.0000 C   0  0  0  0  0  0  0  0  0  0  0  0
    4.2219    6.1875    0.0000 O   0  0  0  0  0  0  0  0  0  0  0  0
    1.6238    6.1875    0.0000 O   0  0  0  0  0  0  0  0  0  0  0  0
  5  4  1  0
  6  4  1  0
  8  7  1  0
 10  1  1  0
 10  2  1  0
 10  5  1  0
 11  3  1  0
 11  6  1  0
 11  7  1  0
 12  9  2  0
 13  8  1  0
 13  9  1  0
M  END
>  <NAME>  (3542) 
TETRAHYDROGERANYL FORMATE

>  <SYNONYMS>  (3542) 
3,7-DIMETHYLOCTYL FORMATE

>  <SPECTRUM TYPE>  (3542) 
MS1

>  <INSTRUMENT TYPE>  (3542) 
EI-B

>  <INSTRUMENT>  (3542) 
HITACHI M-80B

>  <ION MODE>  (3542) 
P

>  <INCHIKEY>  (3542) 
AGARWNGUJKCDII-UHFFFAOYSA-N

>  <FORMULA>  (3542) 
C11H22O2

>  <EXACT MASS>  (3542) 
186.161979944

>  <MW>  (3542) 
186

>  <ID>  (3542) 
JP007054

>  <CONTRIBUTOR>  (3542) 
University of Tokyo Team, {Faculty of Engineering, University of Tokyo

>  <COMMENT>  (3542) 
SMILES=O=COCCC(C)CCCC(C)C
InChI=InChI=1S/C11H22O2/c1-10(2)5-4-6-11(3)7-8-13-9-12/h9-11H,4-8H2,1-3H3
computed SMILES=O=COCCC(C)CCCC(C)C
accession=JP007054
date=2016.01.19 (Created 2008.10.21, modified 2011.05.06)
author=SODA AROMATIC CO., LTD.
license=CC BY-NC-SA
exact mass=186.16198
ionization energy=70 eV
ion type=[M]+*
computed spectral entropy=3.0320562883850615
computed normalized entropy=0.8164797219287377
SPLASH=splash10-0abc-9000000000-161077e92ae4b9705661
submitter=submitter = University of Tokyo Team (Faculty of Engineering, University of Tokyo)
MoNA Rating=3.75

>  <NUM PEAKS>  (3542) 
41

>  <MASS SPECTRAL PEAKS>  (3542) 
18 2.35
27 25.23
28 5.81
29 29.3
31 27.44
39 19.67
40 4.4
41 80.66
42 23.54
43 90.56
44 3.86
45 3.97
47 1.71
51 1.08
53 7.94
54 6.09
55 99.99
56 79.82
57 55.93
58 2.34
67 6.21
68 6.11
69 61.31
70 88.74
71 29.74
72 1.31
73 2.26
74 1.73
81 4.01
82 4.83
83 28.48
84 21.84
85 5.31
96 6.87
97 19.2
98 3.53
111 9.67
112 12.83
113 1.16
125 3.67
140 2.31

$$$$

     RDKit          2D

 14 13  0  0  0  0  0  0  0  0999 V2000
    3.8971    6.7500    0.0000 C   0  0  0  0  0  0  0  0  0  0  0  0
  -11.6913    6.7500    0.0000 C   0  0  0  0  0  0  0  0  0  0  0  0
    2.5981    7.5000    0.0000 C   0  0  0  0  0  0  0  0  0  0  0  0
    1.2990    6.7500    0.0000 C   0  0  0  0  0  0  0  0  0  0  0  0
    0.0000    7.5000    0.0000 C   0  0  0  0  0  0  0  0  0  0  0  0
   -1.2990    6.7500    0.0000 C   0  0  0  0  0  0  0  0  0  0  0  0
   -2.5981    7.5000    0.0000 C   0  0  0  0  0  0  0  0  0  0  0  0
   -3.8971    6.7500    0.0000 C   0  0  0  0  0  0  0  0  0  0  0  0
   -5.1962    7.5000    0.0000 C   0  0  0  0  0  0  0  0  0  0  0  0
   -6.4952    6.7500    0.0000 C   0  0  0  0  0  0  0  0  0  0  0  0
   -7.7942    7.5000    0.0000 C   0  0  0  0  0  0  0  0  0  0  0  0
   -9.0933    6.7500    0.0000 C   0  0  0  0  0  0  0  0  0  0  0  0
  -10.3923    7.5000    0.0000 C   0  0  0  0  0  0  0  0  0  0  0  0
  -10.3923    9.0000    0.0000 O   0  0  0  0  0  0  0  0  0  0  0  0
  3  1  1  0
  4  3  1  0
  5  4  1  0
  6  5  1  0
  7  6  1  0
  8  7  1  0
  9  8  1  0
 10  9  1  0
 11 10  1  0
 12 11  1  0
 13  2  1  0
 13 12  1  0
 14 13  2  0
M  END
>  <NAME>  (3543) 
2-TRIDECANONE

>  <SYNONYMS>  (3543) 


>  <SPECTRUM TYPE>  (3543) 
MS1

>  <INSTRUMENT TYPE>  (3543) 
EI-B

>  <INSTRUMENT>  (3543) 
HITACHI M-80B

>  <ION MODE>  (3543) 
P

>  <INCHIKEY>  (3543) 
CYIFVRUOHKNECG-UHFFFAOYSA-N

>  <FORMULA>  (3543) 
C13H26O

>  <EXACT MASS>  (3543) 
198.198365452

>  <MW>  (3543) 
198

>  <ID>  (3543) 
JP007053

>  <CONTRIBUTOR>  (3543) 
University of Tokyo Team, {Faculty of Engineering, University of Tokyo

>  <COMMENT>  (3543) 
SMILES=CCCCCCCCCCCC(C)=O
InChI=InChI=1S/C13H26O/c1-3-4-5-6-7-8-9-10-11-12-13(2)14/h3-12H2,1-2H3
computed SMILES=O=C(C)CCCCCCCCCCC
accession=JP007053
date=2016.01.19 (Created 2008.10.21, modified 2011.05.06)
author=SODA AROMATIC CO., LTD.
license=CC BY-NC-SA
exact mass=198.19837
ionization energy=70 eV
ion type=[M]+*
computed spectral entropy=2.5874658835442337
computed normalized entropy=0.716567351056028
SPLASH=splash10-0a4l-9000000000-f27d8cbcbb2a9eea32df
submitter=submitter = University of Tokyo Team (Faculty of Engineering, University of Tokyo)
MoNA Rating=3.75

>  <NUM PEAKS>  (3543) 
37

>  <MASS SPECTRAL PEAKS>  (3543) 
15 1.47
27 8.02
29 13.74
39 5.55
41 24.02
42 5.77
43 77.98
44 1.86
53 1.6
54 1.48
55 13.3
56 4.48
57 13.76
58 99.99
59 38.2
60 1.32
67 2.04
68 1.36
69 3.29
70 2.33
71 31.68
72 1.83
81 1.68
82 3.09
83 2.18
84 1.54
85 7.49
95 1.89
96 2.96
97 2.2
110 1.32
111 1.23
127 1.18
138 2.28
140 3.31
183 1.24
198 3.09

$$$$

     RDKit          2D

 13 12  0  0  0  0  0  0  0  0999 V2000
    3.5724    6.5625    0.0000 C   0  0  0  0  0  0  0  0  0  0  0  0
  -10.7171    7.3125    0.0000 C   0  0  0  0  0  0  0  0  0  0  0  0
    2.2733    7.3125    0.0000 C   0  0  0  0  0  0  0  0  0  0  0  0
    0.9743    6.5625    0.0000 C   0  0  0  0  0  0  0  0  0  0  0  0
   -0.3248    7.3125    0.0000 C   0  0  0  0  0  0  0  0  0  0  0  0
   -1.6238    6.5625    0.0000 C   0  0  0  0  0  0  0  0  0  0  0  0
   -2.9228    7.3125    0.0000 C   0  0  0  0  0  0  0  0  0  0  0  0
   -4.2219    6.5625    0.0000 C   0  0  0  0  0  0  0  0  0  0  0  0
   -5.5209    7.3125    0.0000 C   0  0  0  0  0  0  0  0  0  0  0  0
   -6.8200    6.5625    0.0000 C   0  0  0  0  0  0  0  0  0  0  0  0
   -8.1190    7.3125    0.0000 C   0  0  0  0  0  0  0  0  0  0  0  0
   -9.4180    6.5625    0.0000 C   0  0  0  0  0  0  0  0  0  0  0  0
   -9.4180    5.0625    0.0000 O   0  0  0  0  0  0  0  0  0  0  0  0
  3  1  1  0
  4  3  1  0
  5  4  1  0
  6  5  1  0
  7  6  1  0
  8  7  1  0
  9  8  1  0
 10  9  1  0
 11 10  1  0
 12  2  1  0
 12 11  1  0
 13 12  2  0
M  END
>  <NAME>  (3544) 
2-DODECANONE

>  <SYNONYMS>  (3544) 


>  <SPECTRUM TYPE>  (3544) 
MS1

>  <INSTRUMENT TYPE>  (3544) 
EI-B

>  <INSTRUMENT>  (3544) 
HITACHI M-80B

>  <ION MODE>  (3544) 
P

>  <INCHIKEY>  (3544) 
LSKONYYRONEBKA-UHFFFAOYSA-N

>  <FORMULA>  (3544) 
C12H24O

>  <EXACT MASS>  (3544) 
184.182715388

>  <MW>  (3544) 
184

>  <ID>  (3544) 
JP007052

>  <CONTRIBUTOR>  (3544) 
University of Tokyo Team, {Faculty of Engineering, University of Tokyo

>  <COMMENT>  (3544) 
SMILES=CCCCCCCCCCC(C)=O
InChI=InChI=1S/C12H24O/c1-3-4-5-6-7-8-9-10-11-12(2)13/h3-11H2,1-2H3
computed SMILES=O=C(C)CCCCCCCCCC
accession=JP007052
date=2016.01.19 (Created 2008.10.21, modified 2011.05.06)
author=SODA AROMATIC CO., LTD.
license=CC BY-NC-SA
exact mass=184.18272
ionization energy=70 eV
ion type=[M]+*
computed spectral entropy=2.4785887434206217
computed normalized entropy=0.7151695377072277
SPLASH=splash10-0a4l-9000000000-34e6acbca9cad7e87122
submitter=submitter = University of Tokyo Team (Faculty of Engineering, University of Tokyo)
MoNA Rating=3.75

>  <NUM PEAKS>  (3544) 
32

>  <MASS SPECTRAL PEAKS>  (3544) 
15 2.26
27 10.12
29 14.07
39 6.76
41 25.55
42 6.03
43 86.58
44 2
53 1.54
54 1.46
55 11.8
56 4.1
57 11.52
58 99.99
59 31.93
67 1.64
68 1.19
69 3.36
70 2.4
71 27.85
72 1.51
81 1.33
82 3.32
83 2.26
84 1.44
85 6.28
95 1.58
96 1.83
97 1.61
124 2.17
126 3.28
184 2.56

$$$$

     RDKit          2D

 12 11  0  0  0  0  0  0  0  0999 V2000
   -6.8200    5.0625    0.0000 C   0  0  0  0  0  0  0  0  0  0  0  0
   -5.5209    2.8125    0.0000 C   0  0  0  0  0  0  0  0  0  0  0  0
    3.5724    5.0625    0.0000 C   0  0  0  0  0  0  0  0  0  0  0  0
    2.2733    2.8125    0.0000 C   0  0  0  0  0  0  0  0  0  0  0  0
   -4.2219    5.0625    0.0000 C   0  0  0  0  0  0  0  0  0  0  0  0
    0.9743    5.0625    0.0000 C   0  0  0  0  0  0  0  0  0  0  0  0
   -2.9228    4.3125    0.0000 C   0  0  0  0  0  0  0  0  0  0  0  0
   -0.3248    4.3125    0.0000 C   0  0  0  0  0  0  0  0  0  0  0  0
   -5.5209    4.3125    0.0000 C   0  0  0  0  0  0  0  0  0  0  0  0
    2.2733    4.3125    0.0000 C   0  0  0  0  0  0  0  0  0  0  0  0
   -1.6238    5.0625    0.0000 C   0  0  0  0  0  0  0  0  0  0  0  0
   -1.6238    6.5625    0.0000 O   0  0  0  0  0  0  0  0  0  0  0  0
  7  5  1  0
  8  6  1  0
  9  1  1  0
  9  2  1  0
  9  5  1  0
 10  3  1  0
 10  4  1  0
 10  6  1  0
 11  7  1  0
 11  8  1  0
 12 11  2  0
M  END
>  <NAME>  (3545) 
2,8-DIMETHYL-5-NONANONE

>  <SYNONYMS>  (3545) 


>  <SPECTRUM TYPE>  (3545) 
MS1

>  <INSTRUMENT TYPE>  (3545) 
EI-B

>  <INSTRUMENT>  (3545) 
HITACHI M-80B

>  <ION MODE>  (3545) 
P

>  <INCHIKEY>  (3545) 
JQCWLRHNAHIIGW-UHFFFAOYSA-N

>  <FORMULA>  (3545) 
C11H22O

>  <EXACT MASS>  (3545) 
170.167065324

>  <MW>  (3545) 
170

>  <ID>  (3545) 
JP007051

>  <CONTRIBUTOR>  (3545) 
University of Tokyo Team, {Faculty of Engineering, University of Tokyo

>  <COMMENT>  (3545) 
SMILES=CC(C)CCC(=O)CCC(C)C
InChI=InChI=1S/C11H22O/c1-9(2)5-7-11(12)8-6-10(3)4/h9-10H,5-8H2,1-4H3
computed SMILES=O=C(CCC(C)C)CCC(C)C
accession=JP007051
date=2016.01.19 (Created 2008.10.21, modified 2011.05.06)
author=SODA AROMATIC CO., LTD.
license=CC BY-NC-SA
exact mass=170.16707
ionization energy=70 eV
ion type=[M]+*
computed spectral entropy=2.706335330690791
computed normalized entropy=0.7808833121140394
SPLASH=splash10-0a4l-9000000000-5b105704261ff75420a9
submitter=submitter = University of Tokyo Team (Faculty of Engineering, University of Tokyo)
MoNA Rating=3.75

>  <NUM PEAKS>  (3545) 
32

>  <MASS SPECTRAL PEAKS>  (3545) 
15 1.21
27 22.46
28 4.75
29 22.57
39 13.85
40 1.37
41 40.38
42 5.85
43 99.99
44 2.94
53 4.89
55 16.75
56 8.18
57 29.58
58 90.73
59 28.62
67 1.29
69 1.79
70 1.17
71 30.99
72 2.93
81 40.72
82 2.35
83 1.12
85 2.8
86 1.49
99 31.56
100 1.77
114 6.71
115 1.58
127 2.69
170 3.38

$$$$

     RDKit          2D

 12 11  0  0  0  0  0  0  0  0999 V2000
    3.2476    5.6250    0.0000 C   0  0  0  0  0  0  0  0  0  0  0  0
   -9.7428    5.6250    0.0000 C   0  0  0  0  0  0  0  0  0  0  0  0
    1.9486    6.3750    0.0000 C   0  0  0  0  0  0  0  0  0  0  0  0
   -8.4437    6.3750    0.0000 C   0  0  0  0  0  0  0  0  0  0  0  0
    0.6495    5.6250    0.0000 C   0  0  0  0  0  0  0  0  0  0  0  0
   -7.1447    5.6250    0.0000 C   0  0  0  0  0  0  0  0  0  0  0  0
   -0.6495    6.3750    0.0000 C   0  0  0  0  0  0  0  0  0  0  0  0
   -5.8457    6.3750    0.0000 C   0  0  0  0  0  0  0  0  0  0  0  0
   -1.9486    5.6250    0.0000 C   0  0  0  0  0  0  0  0  0  0  0  0
   -4.5466    5.6250    0.0000 C   0  0  0  0  0  0  0  0  0  0  0  0
   -3.2476    6.3750    0.0000 C   0  0  0  0  0  0  0  0  0  0  0  0
   -3.2476    7.8750    0.0000 O   0  0  0  0  0  0  0  0  0  0  0  0
  3  1  1  0
  4  2  1  0
  5  3  1  0
  6  4  1  0
  7  5  1  0
  8  6  1  0
  9  7  1  0
 10  8  1  0
 11  9  1  0
 11 10  1  0
 12 11  2  0
M  END
>  <NAME>  (3546) 
6-UNDECANONE

>  <SYNONYMS>  (3546) 


>  <SPECTRUM TYPE>  (3546) 
MS1

>  <INSTRUMENT TYPE>  (3546) 
EI-B

>  <INSTRUMENT>  (3546) 
HITACHI M-80B

>  <ION MODE>  (3546) 
P

>  <INCHIKEY>  (3546) 
ZPQAKYPOZRXKFA-UHFFFAOYSA-N

>  <FORMULA>  (3546) 
C11H22O

>  <EXACT MASS>  (3546) 
170.167065324

>  <MW>  (3546) 
170

>  <ID>  (3546) 
JP007050

>  <CONTRIBUTOR>  (3546) 
University of Tokyo Team, {Faculty of Engineering, University of Tokyo

>  <COMMENT>  (3546) 
SMILES=CCCCCC(=O)CCCCC
InChI=InChI=1S/C11H22O/c1-3-5-7-9-11(12)10-8-6-4-2/h3-10H2,1-2H3
computed SMILES=O=C(CCCCC)CCCCC
accession=JP007050
date=2016.01.19 (Created 2008.10.21, modified 2011.05.06)
author=SODA AROMATIC CO., LTD.
license=CC BY-NC-SA
exact mass=170.16707
ionization energy=70 eV
ion type=[M]+*
computed spectral entropy=2.559986557238811
computed normalized entropy=0.7682561347665332
SPLASH=splash10-052f-9000000000-4a5d3bb589e03dc4bf3b
submitter=submitter = University of Tokyo Team (Faculty of Engineering, University of Tokyo)
MoNA Rating=3.75

>  <NUM PEAKS>  (3546) 
28

>  <MASS SPECTRAL PEAKS>  (3546) 
27 23.34
28 1.22
29 32.24
39 12.13
40 1.17
41 29.74
42 10.74
43 99.99
44 2.64
53 2.2
55 13.89
56 2.27
57 3.32
58 50.31
59 13.61
67 1.01
69 1.16
70 1.08
71 54.33
72 9.62
81 1.37
85 4.71
99 47.46
100 2.62
114 5.79
115 1.48
127 4.22
170 2.36

$$$$

     RDKit          2D

 12 11  0  0  0  0  0  0  0  0999 V2000
    3.2476    5.6250    0.0000 C   0  0  0  0  0  0  0  0  0  0  0  0
   -9.7428    5.6250    0.0000 C   0  0  0  0  0  0  0  0  0  0  0  0
    1.9486    6.3750    0.0000 C   0  0  0  0  0  0  0  0  0  0  0  0
   -8.4437    6.3750    0.0000 C   0  0  0  0  0  0  0  0  0  0  0  0
    0.6495    5.6250    0.0000 C   0  0  0  0  0  0  0  0  0  0  0  0
   -7.1447    5.6250    0.0000 C   0  0  0  0  0  0  0  0  0  0  0  0
   -0.6495    6.3750    0.0000 C   0  0  0  0  0  0  0  0  0  0  0  0
   -1.9486    5.6250    0.0000 C   0  0  0  0  0  0  0  0  0  0  0  0
   -5.8457    6.3750    0.0000 C   0  0  0  0  0  0  0  0  0  0  0  0
   -3.2476    6.3750    0.0000 C   0  0  0  0  0  0  0  0  0  0  0  0
   -4.5466    5.6250    0.0000 C   0  0  0  0  0  0  0  0  0  0  0  0
   -4.5466    4.1250    0.0000 O   0  0  0  0  0  0  0  0  0  0  0  0
  3  1  1  0
  4  2  1  0
  5  3  1  0
  6  4  1  0
  7  5  1  0
  8  7  1  0
  9  6  1  0
 10  8  1  0
 11  9  1  0
 11 10  1  0
 12 11  2  0
M  END
>  <NAME>  (3547) 
5-UNDECANONE

>  <SYNONYMS>  (3547) 


>  <SPECTRUM TYPE>  (3547) 
MS1

>  <INSTRUMENT TYPE>  (3547) 
EI-B

>  <INSTRUMENT>  (3547) 
HITACHI M-80B

>  <ION MODE>  (3547) 
P

>  <INCHIKEY>  (3547) 
WENNKWXPAWNIOO-UHFFFAOYSA-N

>  <FORMULA>  (3547) 
C11H22O

>  <EXACT MASS>  (3547) 
170.167065324

>  <MW>  (3547) 
170

>  <ID>  (3547) 
JP007049

>  <CONTRIBUTOR>  (3547) 
University of Tokyo Team, {Faculty of Engineering, University of Tokyo

>  <COMMENT>  (3547) 
SMILES=CCCCCCC(=O)CCCC
InChI=InChI=1S/C11H22O/c1-3-5-7-8-10-11(12)9-6-4-2/h3-10H2,1-2H3
computed SMILES=O=C(CCCC)CCCCCC
accession=JP007049
date=2016.01.19 (Created 2008.10.21, modified 2011.05.06)
author=SODA AROMATIC CO., LTD.
license=CC BY-NC-SA
exact mass=170.16707
ionization energy=70 eV
ion type=[M]+*
computed spectral entropy=2.7379509708745817
computed normalized entropy=0.7700936514574592
SPLASH=splash10-0a4l-9100000000-699fb7c1dbc49f9c103e
submitter=submitter = University of Tokyo Team (Faculty of Engineering, University of Tokyo)
MoNA Rating=3.75

>  <NUM PEAKS>  (3547) 
35

>  <MASS SPECTRAL PEAKS>  (3547) 
15 1.1
26 1.5
27 28.38
28 6.37
29 52.11
39 15.29
41 56.86
42 10.09
43 86.34
44 2.38
53 2.85
55 15.8
56 3.98
57 72.89
58 99.99
59 11.68
67 1.48
68 3.76
69 3.07
70 1.78
71 18.93
72 5.43
81 1.06
83 1.04
84 1.06
85 66.51
86 4.91
95 2.4
100 10.73
101 3.03
113 41.71
114 2.84
128 3.49
141 2.07
170 2.56

$$$$

     RDKit          2D

 12 11  0  0  0  0  0  0  0  0999 V2000
    3.2476    5.6250    0.0000 C   0  0  0  0  0  0  0  0  0  0  0  0
   -9.7428    5.6250    0.0000 C   0  0  0  0  0  0  0  0  0  0  0  0
    1.9486    6.3750    0.0000 C   0  0  0  0  0  0  0  0  0  0  0  0
   -8.4437    6.3750    0.0000 C   0  0  0  0  0  0  0  0  0  0  0  0
    0.6495    5.6250    0.0000 C   0  0  0  0  0  0  0  0  0  0  0  0
   -0.6495    6.3750    0.0000 C   0  0  0  0  0  0  0  0  0  0  0  0
   -1.9486    5.6250    0.0000 C   0  0  0  0  0  0  0  0  0  0  0  0
   -3.2476    6.3750    0.0000 C   0  0  0  0  0  0  0  0  0  0  0  0
   -7.1447    5.6250    0.0000 C   0  0  0  0  0  0  0  0  0  0  0  0
   -4.5466    5.6250    0.0000 C   0  0  0  0  0  0  0  0  0  0  0  0
   -5.8457    6.3750    0.0000 C   0  0  0  0  0  0  0  0  0  0  0  0
   -5.8457    7.8750    0.0000 O   0  0  0  0  0  0  0  0  0  0  0  0
  3  1  1  0
  4  2  1  0
  5  3  1  0
  6  5  1  0
  7  6  1  0
  8  7  1  0
  9  4  1  0
 10  8  1  0
 11  9  1  0
 11 10  1  0
 12 11  2  0
M  END
>  <NAME>  (3548) 
4-UNDECANONE

>  <SYNONYMS>  (3548) 


>  <SPECTRUM TYPE>  (3548) 
MS1

>  <INSTRUMENT TYPE>  (3548) 
EI-B

>  <INSTRUMENT>  (3548) 
HITACHI M-80B

>  <ION MODE>  (3548) 
P

>  <INCHIKEY>  (3548) 
NBSLHMOSERBUOV-UHFFFAOYSA-N

>  <FORMULA>  (3548) 
C11H22O

>  <EXACT MASS>  (3548) 
170.167065324

>  <MW>  (3548) 
170

>  <ID>  (3548) 
JP007048

>  <CONTRIBUTOR>  (3548) 
University of Tokyo Team, {Faculty of Engineering, University of Tokyo

>  <COMMENT>  (3548) 
SMILES=CCCCCCCC(=O)CCC
InChI=InChI=1S/C11H22O/c1-3-5-6-7-8-10-11(12)9-4-2/h3-10H2,1-2H3
computed SMILES=O=C(CCC)CCCCCCC
accession=JP007048
date=2016.01.19 (Created 2008.10.21, modified 2011.05.06)
author=SODA AROMATIC CO., LTD.
license=CC BY-NC-SA
exact mass=170.16707
ionization energy=70 eV
ion type=[M]+*
computed spectral entropy=2.6494793265944074
computed normalized entropy=0.7644781370831164
SPLASH=splash10-0a6u-9000000000-46499d5c3619d07f2974
submitter=submitter = University of Tokyo Team (Faculty of Engineering, University of Tokyo)
MoNA Rating=3.75

>  <NUM PEAKS>  (3548) 
32

>  <MASS SPECTRAL PEAKS>  (3548) 
15 1.15
26 1.04
27 30.97
28 1.36
29 24.51
39 14.28
40 1.4
41 52.7
42 11.26
43 99.99
44 2.46
53 2.17
54 1.1
55 16.45
56 2.37
57 83.98
58 71.51
59 2.74
67 2.66
69 2.02
70 2.07
71 74.14
72 2.76
82 1.36
83 1.41
86 43.77
87 10.54
99 12.45
109 2.98
127 33.92
128 3.12
170 3

$$$$

     RDKit          2D

 12 11  0  0  0  0  0  0  0  0999 V2000
   -9.7428    5.6250    0.0000 C   0  0  0  0  0  0  0  0  0  0  0  0
    3.2476    5.6250    0.0000 C   0  0  0  0  0  0  0  0  0  0  0  0
   -8.4437    4.8750    0.0000 C   0  0  0  0  0  0  0  0  0  0  0  0
    1.9486    4.8750    0.0000 C   0  0  0  0  0  0  0  0  0  0  0  0
   -7.1447    5.6250    0.0000 C   0  0  0  0  0  0  0  0  0  0  0  0
   -5.8457    4.8750    0.0000 C   0  0  0  0  0  0  0  0  0  0  0  0
   -4.5466    5.6250    0.0000 C   0  0  0  0  0  0  0  0  0  0  0  0
   -3.2476    4.8750    0.0000 C   0  0  0  0  0  0  0  0  0  0  0  0
   -1.9486    5.6250    0.0000 C   0  0  0  0  0  0  0  0  0  0  0  0
   -0.6495    4.8750    0.0000 C   0  0  0  0  0  0  0  0  0  0  0  0
    0.6495    5.6250    0.0000 C   0  0  0  0  0  0  0  0  0  0  0  0
    0.6495    7.1250    0.0000 O   0  0  0  0  0  0  0  0  0  0  0  0
  3  1  1  0
  4  2  1  0
  5  3  1  0
  6  5  1  0
  7  6  1  0
  8  7  1  0
  9  8  1  0
 10  9  1  0
 11  4  1  0
 11 10  1  0
 12 11  2  0
M  END
>  <NAME>  (3549) 
3-UNDECANONE

>  <SYNONYMS>  (3549) 


>  <SPECTRUM TYPE>  (3549) 
MS1

>  <INSTRUMENT TYPE>  (3549) 
EI-B

>  <INSTRUMENT>  (3549) 
HITACHI M-80B

>  <ION MODE>  (3549) 
P

>  <INCHIKEY>  (3549) 
YNMZZHPSYMOGCI-UHFFFAOYSA-N

>  <FORMULA>  (3549) 
C11H22O

>  <EXACT MASS>  (3549) 
170.167065324

>  <MW>  (3549) 
170

>  <ID>  (3549) 
JP007047

>  <CONTRIBUTOR>  (3549) 
University of Tokyo Team, {Faculty of Engineering, University of Tokyo

>  <COMMENT>  (3549) 
SMILES=CCCCCCCCC(=O)CC
InChI=InChI=1S/C11H22O/c1-3-5-6-7-8-9-10-11(12)4-2/h3-10H2,1-2H3
computed SMILES=O=C(CC)CCCCCCCC
accession=JP007047
author=SODA AROMATIC CO., LTD.
date=2016.01.19 (Created 2008.10.21, modified 2011.05.06)
license=CC BY-NC-SA
exact mass=170.16707
ionization energy=70 eV
ion type=[M]+*
computed spectral entropy=2.6472182385340868
computed normalized entropy=0.7506941562142833
SPLASH=splash10-05i3-9000000000-f0ca7f5c1ff3fa97a13e
submitter=submitter = University of Tokyo Team (Faculty of Engineering, University of Tokyo)
MoNA Rating=3.75

>  <NUM PEAKS>  (3549) 
34

>  <MASS SPECTRAL PEAKS>  (3549) 
26 1.1
27 24.03
28 1.76
29 61.02
30 1.21
39 10.92
41 35.58
42 8.5
43 47.13
44 1.26
53 2.49
54 1.61
55 17.17
56 4.61
57 99.99
58 3.21
67 3.5
68 1.15
69 2.74
70 1.13
71 32.76
72 88.46
73 19.29
81 4.56
83 1.09
85 15.55
86 1
96 2.19
98 1.16
99 1.72
123 1.6
141 26.81
142 2.14
170 2.4

$$$$

     RDKit          2D

 12 11  0  0  0  0  0  0  0  0999 V2000
    3.2476    5.6250    0.0000 C   0  0  0  0  0  0  0  0  0  0  0  0
   -9.7428    5.6250    0.0000 C   0  0  0  0  0  0  0  0  0  0  0  0
    1.9486    6.3750    0.0000 C   0  0  0  0  0  0  0  0  0  0  0  0
    0.6495    5.6250    0.0000 C   0  0  0  0  0  0  0  0  0  0  0  0
   -0.6495    6.3750    0.0000 C   0  0  0  0  0  0  0  0  0  0  0  0
   -1.9486    5.6250    0.0000 C   0  0  0  0  0  0  0  0  0  0  0  0
   -3.2476    6.3750    0.0000 C   0  0  0  0  0  0  0  0  0  0  0  0
   -4.5466    5.6250    0.0000 C   0  0  0  0  0  0  0  0  0  0  0  0
   -5.8457    6.3750    0.0000 C   0  0  0  0  0  0  0  0  0  0  0  0
   -7.1447    5.6250    0.0000 C   0  0  0  0  0  0  0  0  0  0  0  0
   -8.4437    6.3750    0.0000 C   0  0  0  0  0  0  0  0  0  0  0  0
   -8.4437    7.8750    0.0000 O   0  0  0  0  0  0  0  0  0  0  0  0
  3  1  1  0
  4  3  1  0
  5  4  1  0
  6  5  1  0
  7  6  1  0
  8  7  1  0
  9  8  1  0
 10  9  1  0
 11  2  1  0
 11 10  1  0
 12 11  2  0
M  END
>  <NAME>  (3550) 
2-UNDECANONE

>  <SYNONYMS>  (3550) 


>  <SPECTRUM TYPE>  (3550) 
MS1

>  <INSTRUMENT TYPE>  (3550) 
EI-B

>  <INSTRUMENT>  (3550) 
HITACHI M-80B

>  <ION MODE>  (3550) 
P

>  <INCHIKEY>  (3550) 
KYWIYKKSMDLRDC-UHFFFAOYSA-N

>  <FORMULA>  (3550) 
C11H22O

>  <EXACT MASS>  (3550) 
170.167065324

>  <MW>  (3550) 
170

>  <ID>  (3550) 
JP007046

>  <CONTRIBUTOR>  (3550) 
University of Tokyo Team, {Faculty of Engineering, University of Tokyo

>  <COMMENT>  (3550) 
SMILES=CCCCCCCCCC(C)=O
InChI=InChI=1S/C11H22O/c1-3-4-5-6-7-8-9-10-11(2)12/h3-10H2,1-2H3
computed SMILES=O=C(C)CCCCCCCCC
accession=JP007046
date=2016.01.19 (Created 2008.10.21, modified 2011.05.06)
author=SODA AROMATIC CO., LTD.
license=CC BY-NC-SA
exact mass=170.16707
ionization energy=70 eV
ion type=[M]+*
computed spectral entropy=2.4666273362208684
computed normalized entropy=0.6994824604581111
SPLASH=splash10-0a4l-9000000000-0b50ecd5a4e139569f95
submitter=submitter = University of Tokyo Team (Faculty of Engineering, University of Tokyo)
MoNA Rating=3.75

>  <NUM PEAKS>  (3550) 
34

>  <MASS SPECTRAL PEAKS>  (3550) 
15 2.18
27 11.31
28 2.63
29 15.19
39 7.25
41 24.76
42 6.16
43 89.28
44 1.83
53 1.71
54 1.28
55 9.8
56 2.89
57 9.84
58 99.99
59 28.98
67 1.58
68 1.32
69 2.73
70 2.56
71 27.06
72 1.57
81 1.64
82 1.94
83 1.84
84 1.03
85 5.55
95 1.31
96 1.11
110 2.4
112 2.95
127 1.14
155 1.08
170 2.81

$$$$

     RDKit          2D

  9  8  0  0  0  0  0  0  0  0999 V2000
    1.9486    3.3750    0.0000 C   0  0  0  0  0  0  0  0  0  0  0  0
   -5.8457    3.3750    0.0000 C   0  0  0  0  0  0  0  0  0  0  0  0
   -4.5466    5.6250    0.0000 C   0  0  0  0  0  0  0  0  0  0  0  0
    0.6495    4.1250    0.0000 C   0  0  0  0  0  0  0  0  0  0  0  0
   -3.2476    3.3750    0.0000 C   0  0  0  0  0  0  0  0  0  0  0  0
   -1.9486    4.1250    0.0000 C   0  0  0  0  0  0  0  0  0  0  0  0
   -4.5466    4.1250    0.0000 C   0  0  0  0  0  0  0  0  0  0  0  0
   -0.6495    3.3750    0.0000 C   0  0  0  0  0  0  0  0  0  0  0  0
   -0.6495    1.8750    0.0000 O   0  0  0  0  0  0  0  0  0  0  0  0
  4  1  1  0
  6  5  1  0
  7  2  1  0
  7  3  1  0
  7  5  1  0
  8  4  1  0
  8  6  1  0
  9  8  2  0
M  END
>  <NAME>  (3551) 
6-METHYL-3-HEPTANONE

>  <SYNONYMS>  (3551) 


>  <SPECTRUM TYPE>  (3551) 
MS1

>  <INSTRUMENT TYPE>  (3551) 
EI-B

>  <INSTRUMENT>  (3551) 
HITACHI M-80B

>  <ION MODE>  (3551) 
P

>  <INCHIKEY>  (3551) 
CCCIYAQYQZQDIZ-UHFFFAOYSA-N

>  <FORMULA>  (3551) 
C8H16O

>  <EXACT MASS>  (3551) 
128.120115132

>  <MW>  (3551) 
128

>  <ID>  (3551) 
JP007045

>  <CONTRIBUTOR>  (3551) 
University of Tokyo Team, {Faculty of Engineering, University of Tokyo

>  <COMMENT>  (3551) 
SMILES=CCC(=O)CCC(C)C
InChI=InChI=1S/C8H16O/c1-4-8(9)6-5-7(2)3/h7H,4-6H2,1-3H3
computed SMILES=O=C(CC)CCC(C)C
computed spectral entropy=2.5214687680984778
accession=JP007045
date=2016.01.19 (Created 2008.10.21, modified 2011.05.06)
author=SODA AROMATIC CO., LTD.
license=CC BY-NC-SA
exact mass=128.12012
ionization energy=70 eV
ion type=[M]+*
computed normalized entropy=0.7650465938125609
SPLASH=splash10-05bf-9000000000-1c93e80f0d0966d81013
submitter=submitter = University of Tokyo Team (Faculty of Engineering, University of Tokyo)
MoNA Rating=3.75

>  <NUM PEAKS>  (3551) 
27

>  <MASS SPECTRAL PEAKS>  (3551) 
15 2.42
26 2.8
27 38.97
28 3.17
29 71.27
30 1.29
39 16.14
41 29.83
42 5
43 85.15
44 2.36
51 1.12
53 2.91
54 1.06
55 9.97
56 4.55
57 99.99
58 2.15
71 20.01
72 52.42
73 5.87
81 28.25
82 1.54
85 3.08
99 16.19
100 1.05
128 7.61

$$$$

     RDKit          2D

 11 10  0  0  0  0  0  0  0  0999 V2000
   -8.4437    5.6250    0.0000 C   0  0  0  0  0  0  0  0  0  0  0  0
    3.2476    4.8750    0.0000 C   0  0  0  0  0  0  0  0  0  0  0  0
   -7.1447    4.8750    0.0000 C   0  0  0  0  0  0  0  0  0  0  0  0
    1.9486    5.6250    0.0000 C   0  0  0  0  0  0  0  0  0  0  0  0
   -5.8457    5.6250    0.0000 C   0  0  0  0  0  0  0  0  0  0  0  0
   -4.5466    4.8750    0.0000 C   0  0  0  0  0  0  0  0  0  0  0  0
   -3.2476    5.6250    0.0000 C   0  0  0  0  0  0  0  0  0  0  0  0
   -1.9486    4.8750    0.0000 C   0  0  0  0  0  0  0  0  0  0  0  0
   -0.6495    5.6250    0.0000 C   0  0  0  0  0  0  0  0  0  0  0  0
    0.6495    4.8750    0.0000 C   0  0  0  0  0  0  0  0  0  0  0  0
    0.6495    3.3750    0.0000 O   0  0  0  0  0  0  0  0  0  0  0  0
  3  1  1  0
  4  2  1  0
  5  3  1  0
  6  5  1  0
  7  6  1  0
  8  7  1  0
  9  8  1  0
 10  4  1  0
 10  9  1  0
 11 10  2  0
M  END
>  <NAME>  (3552) 
3-DECANONE

>  <SYNONYMS>  (3552) 


>  <SPECTRUM TYPE>  (3552) 
MS1

>  <INSTRUMENT TYPE>  (3552) 
EI-B

>  <INSTRUMENT>  (3552) 
HITACHI M-80B

>  <ION MODE>  (3552) 
P

>  <INCHIKEY>  (3552) 
XJLDYKIEURAVBW-UHFFFAOYSA-N

>  <FORMULA>  (3552) 
C10H20O

>  <EXACT MASS>  (3552) 
156.15141526

>  <MW>  (3552) 
156

>  <ID>  (3552) 
JP007044

>  <CONTRIBUTOR>  (3552) 
University of Tokyo Team, {Faculty of Engineering, University of Tokyo

>  <COMMENT>  (3552) 
SMILES=CCCCCCCC(=O)CC
InChI=InChI=1S/C10H20O/c1-3-5-6-7-8-9-10(11)4-2/h3-9H2,1-2H3
computed SMILES=O=C(CC)CCCCCCC
accession=JP007044
date=2016.01.19 (Created 2008.10.21, modified 2011.05.06)
author=SODA AROMATIC CO., LTD.
license=CC BY-NC-SA
exact mass=156.15142
ionization energy=70 eV
ion type=[M]+*
computed spectral entropy=2.40615759367985
computed normalized entropy=0.7475148855045913
SPLASH=splash10-0adl-9000000000-b30cfbbcc6f4484764aa
submitter=submitter = University of Tokyo Team (Faculty of Engineering, University of Tokyo)
MoNA Rating=3.75

>  <NUM PEAKS>  (3552) 
25

>  <MASS SPECTRAL PEAKS>  (3552) 
26 1.2
27 20.56
29 51
39 9.32
41 27.74
42 7.03
43 31.47
44 1.03
53 1.96
55 10.48
56 2.68
57 99.99
58 3.93
67 2.04
69 1.02
71 1.47
72 60.61
73 10.99
82 1.15
83 1.02
85 10.23
109 2.33
127 22.08
128 1.71
156 2.18

$$$$

     RDKit          2D

 11 10  0  0  0  0  0  0  0  0999 V2000
    2.9228    5.4375    0.0000 C   0  0  0  0  0  0  0  0  0  0  0  0
   -8.7685    6.1875    0.0000 C   0  0  0  0  0  0  0  0  0  0  0  0
    1.6238    6.1875    0.0000 C   0  0  0  0  0  0  0  0  0  0  0  0
    0.3248    5.4375    0.0000 C   0  0  0  0  0  0  0  0  0  0  0  0
   -0.9743    6.1875    0.0000 C   0  0  0  0  0  0  0  0  0  0  0  0
   -2.2733    5.4375    0.0000 C   0  0  0  0  0  0  0  0  0  0  0  0
   -3.5724    6.1875    0.0000 C   0  0  0  0  0  0  0  0  0  0  0  0
   -4.8714    5.4375    0.0000 C   0  0  0  0  0  0  0  0  0  0  0  0
   -6.1704    6.1875    0.0000 C   0  0  0  0  0  0  0  0  0  0  0  0
   -7.4695    5.4375    0.0000 C   0  0  0  0  0  0  0  0  0  0  0  0
   -7.4695    3.9375    0.0000 O   0  0  0  0  0  0  0  0  0  0  0  0
  3  1  1  0
  4  3  1  0
  5  4  1  0
  6  5  1  0
  7  6  1  0
  8  7  1  0
  9  8  1  0
 10  2  1  0
 10  9  1  0
 11 10  2  0
M  END
>  <NAME>  (3553) 
2-DECANONE

>  <SYNONYMS>  (3553) 


>  <SPECTRUM TYPE>  (3553) 
MS1

>  <INSTRUMENT TYPE>  (3553) 
EI-B

>  <INSTRUMENT>  (3553) 
HITACHI M-80B

>  <ION MODE>  (3553) 
P

>  <INCHIKEY>  (3553) 
ZAJNGDIORYACQU-UHFFFAOYSA-N

>  <FORMULA>  (3553) 
C10H20O

>  <EXACT MASS>  (3553) 
156.15141526

>  <MW>  (3553) 
156

>  <ID>  (3553) 
JP007043

>  <CONTRIBUTOR>  (3553) 
University of Tokyo Team, {Faculty of Engineering, University of Tokyo

>  <COMMENT>  (3553) 
SMILES=CCCCCCCCC(C)=O
InChI=InChI=1S/C10H20O/c1-3-4-5-6-7-8-9-10(2)11/h3-9H2,1-2H3
computed SMILES=O=C(C)CCCCCCCC
accession=JP007043
date=2016.01.19 (Created 2008.10.21, modified 2011.05.06)
author=SODA AROMATIC CO., LTD.
license=CC BY-NC-SA
exact mass=156.15142
ionization energy=70 eV
ion type=[M]+*
computed spectral entropy=2.357783587265143
computed normalized entropy=0.7075746941898153
SPLASH=splash10-0a4l-9000000000-19def653e5bb9fe84806
submitter=submitter = University of Tokyo Team (Faculty of Engineering, University of Tokyo)
MoNA Rating=3.75

>  <NUM PEAKS>  (3553) 
28

>  <MASS SPECTRAL PEAKS>  (3553) 
15 2.76
27 11.45
29 13.54
39 8.14
41 22.52
42 5.58
43 90.35
44 1.82
53 1.53
54 1.27
55 8.76
56 4.28
57 14.11
58 99.99
59 24.34
67 1.28
69 2.01
70 1.73
71 26.84
72 1.44
81 1.24
82 1.1
85 3.4
96 2.77
98 3.75
113 1.42
141 1.36
156 3.98

$$$$

     RDKit          2D

 10  9  0  0  0  0  0  0  0  0999 V2000
    2.2733    2.8125    0.0000 C   0  0  0  0  0  0  0  0  0  0  0  0
    0.9743    5.0625    0.0000 C   0  0  0  0  0  0  0  0  0  0  0  0
   -5.5209    2.8125    0.0000 C   0  0  0  0  0  0  0  0  0  0  0  0
   -4.2219    5.0625    0.0000 C   0  0  0  0  0  0  0  0  0  0  0  0
   -0.3248    2.8125    0.0000 C   0  0  0  0  0  0  0  0  0  0  0  0
   -2.9228    2.8125    0.0000 C   0  0  0  0  0  0  0  0  0  0  0  0
    0.9743    3.5625    0.0000 C   0  0  0  0  0  0  0  0  0  0  0  0
   -4.2219    3.5625    0.0000 C   0  0  0  0  0  0  0  0  0  0  0  0
   -1.6238    3.5625    0.0000 C   0  0  0  0  0  0  0  0  0  0  0  0
   -1.6238    5.0625    0.0000 O   0  0  0  0  0  0  0  0  0  0  0  0
  7  1  1  0
  7  2  1  0
  7  5  1  0
  8  3  1  0
  8  4  1  0
  8  6  1  0
  9  5  1  0
  9  6  1  0
 10  9  2  0
M  END
>  <NAME>  (3554) 
2,6-DIMETHYL-4-HEPTANONE

>  <SYNONYMS>  (3554) 


>  <SPECTRUM TYPE>  (3554) 
MS1

>  <INSTRUMENT TYPE>  (3554) 
EI-B

>  <INSTRUMENT>  (3554) 
HITACHI M-80B

>  <ION MODE>  (3554) 
P

>  <INCHIKEY>  (3554) 
PTTPXKJBFFKCEK-UHFFFAOYSA-N

>  <FORMULA>  (3554) 
C9H18O

>  <EXACT MASS>  (3554) 
142.135765196

>  <MW>  (3554) 
142

>  <ID>  (3554) 
JP007042

>  <CONTRIBUTOR>  (3554) 
University of Tokyo Team, {Faculty of Engineering, University of Tokyo

>  <COMMENT>  (3554) 
SMILES=CC(C)CC(=O)CC(C)C
InChI=InChI=1S/C9H18O/c1-7(2)5-9(10)6-8(3)4/h7-8H,5-6H2,1-4H3
computed SMILES=O=C(CC(C)C)CC(C)C
accession=JP007042
date=2016.01.19 (Created 2008.10.21, modified 2011.05.06)
author=SODA AROMATIC CO., LTD.
license=CC BY-NC-SA
exact mass=142.13577
ionization energy=70 eV
ion type=[M]+*
computed spectral entropy=2.2271605853737615
computed normalized entropy=0.7315303568723727
SPLASH=splash10-0a4r-9000000000-1969d8f7cb8d04d73fe5
submitter=submitter = University of Tokyo Team (Faculty of Engineering, University of Tokyo)
MoNA Rating=3.75

>  <NUM PEAKS>  (3554) 
21

>  <MASS SPECTRAL PEAKS>  (3554) 
15 1.61
27 15.24
29 21.52
39 15.2
40 1.74
41 40.57
42 8.01
43 17.83
53 1.24
55 2.12
56 1.94
57 99.99
58 24.63
59 1.22
67 1.01
69 2.24
85 73
86 3.94
100 1.72
127 3.54
142 8.29

$$$$

     RDKit          2D

 10  9  0  0  0  0  0  0  0  0999 V2000
    2.5981    4.5000    0.0000 C   0  0  0  0  0  0  0  0  0  0  0  0
   -7.7942    4.5000    0.0000 C   0  0  0  0  0  0  0  0  0  0  0  0
    1.2990    5.2500    0.0000 C   0  0  0  0  0  0  0  0  0  0  0  0
   -6.4952    5.2500    0.0000 C   0  0  0  0  0  0  0  0  0  0  0  0
    0.0000    4.5000    0.0000 C   0  0  0  0  0  0  0  0  0  0  0  0
   -5.1962    4.5000    0.0000 C   0  0  0  0  0  0  0  0  0  0  0  0
   -1.2990    5.2500    0.0000 C   0  0  0  0  0  0  0  0  0  0  0  0
   -3.8971    5.2500    0.0000 C   0  0  0  0  0  0  0  0  0  0  0  0
   -2.5981    4.5000    0.0000 C   0  0  0  0  0  0  0  0  0  0  0  0
   -2.5981    3.0000    0.0000 O   0  0  0  0  0  0  0  0  0  0  0  0
  3  1  1  0
  4  2  1  0
  5  3  1  0
  6  4  1  0
  7  5  1  0
  8  6  1  0
  9  7  1  0
  9  8  1  0
 10  9  2  0
M  END
>  <NAME>  (3555) 
5-NONANONE

>  <SYNONYMS>  (3555) 


>  <SPECTRUM TYPE>  (3555) 
MS1

>  <INSTRUMENT TYPE>  (3555) 
EI-B

>  <INSTRUMENT>  (3555) 
HITACHI M-80B

>  <ION MODE>  (3555) 
P

>  <INCHIKEY>  (3555) 
WSGCRAOTEDLMFQ-UHFFFAOYSA-N

>  <FORMULA>  (3555) 
C9H18O

>  <EXACT MASS>  (3555) 
142.135765196

>  <MW>  (3555) 
142

>  <ID>  (3555) 
JP007041

>  <CONTRIBUTOR>  (3555) 
University of Tokyo Team, {Faculty of Engineering, University of Tokyo

>  <COMMENT>  (3555) 
SMILES=CCCCC(=O)CCCC
InChI=InChI=1S/C9H18O/c1-3-5-7-9(10)8-6-4-2/h3-8H2,1-2H3
computed SMILES=O=C(CCCC)CCCC
accession=JP007041
date=2016.01.19 (Created 2008.10.21, modified 2011.05.06)
author=SODA AROMATIC CO., LTD.
license=CC BY-NC-SA
exact mass=142.13577
ionization energy=70 eV
ion type=[M]+*
computed spectral entropy=2.393981452954438
computed normalized entropy=0.7437321547041852
SPLASH=splash10-0a6r-9000000000-7c37e6cffccad22e7dd5
submitter=submitter = University of Tokyo Team (Faculty of Engineering, University of Tokyo)
MoNA Rating=3.75

>  <NUM PEAKS>  (3555) 
25

>  <MASS SPECTRAL PEAKS>  (3555) 
15 1.61
26 1.98
27 28.99
28 7.53
29 56.2
30 1.15
39 15.05
40 1.03
41 48.71
42 7.08
43 8.04
53 2.36
55 7.9
56 2.35
57 99.99
58 67.13
59 4.29
71 5.57
72 1.67
85 65.82
86 2.71
100 5.59
113 2.38
142 6.26
143 1.12

$$$$

     RDKit          2D

 10  9  0  0  0  0  0  0  0  0999 V2000
    2.5981    4.5000    0.0000 C   0  0  0  0  0  0  0  0  0  0  0  0
   -7.7942    4.5000    0.0000 C   0  0  0  0  0  0  0  0  0  0  0  0
    1.2990    5.2500    0.0000 C   0  0  0  0  0  0  0  0  0  0  0  0
   -6.4952    5.2500    0.0000 C   0  0  0  0  0  0  0  0  0  0  0  0
    0.0000    4.5000    0.0000 C   0  0  0  0  0  0  0  0  0  0  0  0
   -1.2990    5.2500    0.0000 C   0  0  0  0  0  0  0  0  0  0  0  0
   -2.5981    4.5000    0.0000 C   0  0  0  0  0  0  0  0  0  0  0  0
   -3.8971    5.2500    0.0000 C   0  0  0  0  0  0  0  0  0  0  0  0
   -5.1962    4.5000    0.0000 C   0  0  0  0  0  0  0  0  0  0  0  0
   -5.1962    3.0000    0.0000 O   0  0  0  0  0  0  0  0  0  0  0  0
  3  1  1  0
  4  2  1  0
  5  3  1  0
  6  5  1  0
  7  6  1  0
  8  7  1  0
  9  4  1  0
  9  8  1  0
 10  9  2  0
M  END
>  <NAME>  (3556) 
3-NONANONE

>  <SYNONYMS>  (3556) 


>  <SPECTRUM TYPE>  (3556) 
MS1

>  <INSTRUMENT TYPE>  (3556) 
EI-B

>  <INSTRUMENT>  (3556) 
HITACHI M-80B

>  <ION MODE>  (3556) 
P

>  <INCHIKEY>  (3556) 
IYTXKIXETAELAV-UHFFFAOYSA-N

>  <FORMULA>  (3556) 
C9H18O

>  <EXACT MASS>  (3556) 
142.135765196

>  <MW>  (3556) 
142

>  <ID>  (3556) 
JP007040

>  <CONTRIBUTOR>  (3556) 
University of Tokyo Team, {Faculty of Engineering, University of Tokyo

>  <COMMENT>  (3556) 
SMILES=CCCCCCC(=O)CC
InChI=InChI=1S/C9H18O/c1-3-5-6-7-8-9(10)4-2/h3-8H2,1-2H3
computed SMILES=O=C(CC)CCCCCC
accession=JP007040
date=2016.01.19 (Created 2008.10.21, modified 2011.05.06)
author=SODA AROMATIC CO., LTD.
license=CC BY-NC-SA
exact mass=142.13577
ionization energy=70 eV
ion type=[M]+*
computed spectral entropy=2.4877332320187557
computed normalized entropy=0.7387925972719624
SPLASH=splash10-054o-9000000000-576b2a3e3912b972f8c1
submitter=submitter = University of Tokyo Team (Faculty of Engineering, University of Tokyo)
MoNA Rating=3.75

>  <NUM PEAKS>  (3556) 
29

>  <MASS SPECTRAL PEAKS>  (3556) 
15 1.13
26 1.88
27 31.86
28 3.25
29 62.78
30 1.23
39 13.35
40 1.04
41 30.38
42 6.58
43 99.99
44 2.81
53 2.36
55 10.24
56 3.41
57 82.36
58 2.39
68 1.09
69 1.83
71 1.34
72 64.76
73 9.57
85 24.97
86 1.78
95 2.26
99 1.42
113 35.57
114 2.22
142 2.4

$$$$

     RDKit          2D

 10  9  0  0  0  0  0  0  0  0999 V2000
    2.5981    4.5000    0.0000 C   0  0  0  0  0  0  0  0  0  0  0  0
   -7.7942    4.5000    0.0000 C   0  0  0  0  0  0  0  0  0  0  0  0
    1.2990    5.2500    0.0000 C   0  0  0  0  0  0  0  0  0  0  0  0
    0.0000    4.5000    0.0000 C   0  0  0  0  0  0  0  0  0  0  0  0
   -1.2990    5.2500    0.0000 C   0  0  0  0  0  0  0  0  0  0  0  0
   -2.5981    4.5000    0.0000 C   0  0  0  0  0  0  0  0  0  0  0  0
   -3.8971    5.2500    0.0000 C   0  0  0  0  0  0  0  0  0  0  0  0
   -5.1962    4.5000    0.0000 C   0  0  0  0  0  0  0  0  0  0  0  0
   -6.4952    5.2500    0.0000 C   0  0  0  0  0  0  0  0  0  0  0  0
   -6.4952    6.7500    0.0000 O   0  0  0  0  0  0  0  0  0  0  0  0
  3  1  1  0
  4  3  1  0
  5  4  1  0
  6  5  1  0
  7  6  1  0
  8  7  1  0
  9  2  1  0
  9  8  1  0
 10  9  2  0
M  END
>  <NAME>  (3557) 
2-NONANONE

>  <SYNONYMS>  (3557) 


>  <SPECTRUM TYPE>  (3557) 
MS1

>  <INSTRUMENT TYPE>  (3557) 
EI-B

>  <INSTRUMENT>  (3557) 
HITACHI M-80B

>  <ION MODE>  (3557) 
P

>  <INCHIKEY>  (3557) 
VKCYHJWLYTUGCC-UHFFFAOYSA-N

>  <FORMULA>  (3557) 
C9H18O

>  <EXACT MASS>  (3557) 
142.135765196

>  <MW>  (3557) 
142

>  <ID>  (3557) 
JP007039

>  <CONTRIBUTOR>  (3557) 
University of Tokyo Team, {Faculty of Engineering, University of Tokyo

>  <COMMENT>  (3557) 
SMILES=CCCCCCCC(C)=O
InChI=InChI=1S/C9H18O/c1-3-4-5-6-7-8-9(2)10/h3-8H2,1-2H3
computed SMILES=O=C(C)CCCCCCC
accession=JP007039
date=2016.01.19 (Created 2008.10.21, modified 2011.05.06)
author=SODA AROMATIC CO., LTD.
license=CC BY-NC-SA
exact mass=142.13577
ionization energy=70 eV
ion type=[M]+*
computed spectral entropy=2.272946703047122
computed normalized entropy=0.7152008192379393
SPLASH=splash10-0a4l-9000000000-d4d90ed2a739f3ba43a2
submitter=submitter = University of Tokyo Team (Faculty of Engineering, University of Tokyo)
MoNA Rating=3.75

>  <NUM PEAKS>  (3557) 
24

>  <MASS SPECTRAL PEAKS>  (3557) 
15 3.86
27 13.83
29 14.35
39 9.45
41 22.57
42 5.87
43 98.6
44 2.07
53 1.56
55 7.73
56 2.17
57 21.21
58 99.99
59 21.94
67 1.28
69 1.26
71 21.42
72 1.26
82 2.12
84 2.93
85 3.46
99 1.24
127 1.61
142 4.84

$$$$

     RDKit          2D

  9  8  0  0  0  0  0  0  0  0999 V2000
    1.9486    3.3750    0.0000 C   0  0  0  0  0  0  0  0  0  0  0  0
   -5.8457    3.3750    0.0000 C   0  0  0  0  0  0  0  0  0  0  0  0
   -0.6495    1.8750    0.0000 C   0  0  0  0  0  0  0  0  0  0  0  0
    0.6495    4.1250    0.0000 C   0  0  0  0  0  0  0  0  0  0  0  0
   -4.5466    4.1250    0.0000 C   0  0  0  0  0  0  0  0  0  0  0  0
   -1.9486    4.1250    0.0000 C   0  0  0  0  0  0  0  0  0  0  0  0
   -0.6495    3.3750    0.0000 C   0  0  0  0  0  0  0  0  0  0  0  0
   -3.2476    3.3750    0.0000 C   0  0  0  0  0  0  0  0  0  0  0  0
   -3.2476    1.8750    0.0000 O   0  0  0  0  0  0  0  0  0  0  0  0
  4  1  1  0
  5  2  1  0
  7  3  1  0
  7  4  1  0
  7  6  1  0
  8  5  1  0
  8  6  1  0
  9  8  2  0
M  END
>  <NAME>  (3558) 
5-METHYL-3-HEPTANONE

>  <SYNONYMS>  (3558) 


>  <SPECTRUM TYPE>  (3558) 
MS1

>  <INSTRUMENT TYPE>  (3558) 
EI-B

>  <INSTRUMENT>  (3558) 
HITACHI M-80B

>  <ION MODE>  (3558) 
P

>  <INCHIKEY>  (3558) 
PSBKJPTZCVYXSD-UHFFFAOYSA-N

>  <FORMULA>  (3558) 
C8H16O

>  <EXACT MASS>  (3558) 
128.120115132

>  <MW>  (3558) 
128

>  <ID>  (3558) 
JP007038

>  <CONTRIBUTOR>  (3558) 
University of Tokyo Team, {Faculty of Engineering, University of Tokyo

>  <COMMENT>  (3558) 
SMILES=CCC(C)CC(=O)CC
InChI=InChI=1S/C8H16O/c1-4-7(3)6-8(9)5-2/h7H,4-6H2,1-3H3
computed SMILES=O=C(CC)CC(C)CC
accession=JP007038
date=2016.01.19 (Created 2008.10.21, modified 2011.05.06)
author=SODA AROMATIC CO., LTD.
license=CC BY-NC-SA
exact mass=128.12012
ionization energy=70 eV
ion type=[M]+*
computed spectral entropy=2.5510951008325615
computed normalized entropy=0.7740356105444481
SPLASH=splash10-05i3-9000000000-dc6ec3b7c79e063d449c
submitter=submitter = University of Tokyo Team (Faculty of Engineering, University of Tokyo)
MoNA Rating=3.75

>  <NUM PEAKS>  (3558) 
27

>  <MASS SPECTRAL PEAKS>  (3558) 
15 1.77
26 2.79
27 40.38
28 3.88
29 83.71
30 1.64
39 19.87
40 1.26
41 35.8
42 12.25
43 90.71
44 2.62
51 1.22
53 3.08
54 1.19
55 11.29
56 4.88
57 99.99
58 2.9
69 1.97
71 72.64
72 59.88
73 15.75
99 46.99
100 2.59
128 13.55
129 1.29

$$$$

     RDKit          2D

  9  8  0  0  0  0  0  0  0  0999 V2000
   -6.4952    4.5000    0.0000 C   0  0  0  0  0  0  0  0  0  0  0  0
    2.5981    3.7500    0.0000 C   0  0  0  0  0  0  0  0  0  0  0  0
   -5.1962    3.7500    0.0000 C   0  0  0  0  0  0  0  0  0  0  0  0
    1.2990    4.5000    0.0000 C   0  0  0  0  0  0  0  0  0  0  0  0
   -3.8971    4.5000    0.0000 C   0  0  0  0  0  0  0  0  0  0  0  0
   -2.5981    3.7500    0.0000 C   0  0  0  0  0  0  0  0  0  0  0  0
   -1.2990    4.5000    0.0000 C   0  0  0  0  0  0  0  0  0  0  0  0
    0.0000    3.7500    0.0000 C   0  0  0  0  0  0  0  0  0  0  0  0
   -0.0000    2.2500    0.0000 O   0  0  0  0  0  0  0  0  0  0  0  0
  3  1  1  0
  4  2  1  0
  5  3  1  0
  6  5  1  0
  7  6  1  0
  8  4  1  0
  8  7  1  0
  9  8  2  0
M  END
>  <NAME>  (3559) 
3-OCTANONE

>  <SYNONYMS>  (3559) 


>  <SPECTRUM TYPE>  (3559) 
MS1

>  <INSTRUMENT TYPE>  (3559) 
EI-B

>  <INSTRUMENT>  (3559) 
HITACHI M-80B

>  <ION MODE>  (3559) 
P

>  <INCHIKEY>  (3559) 
RHLVCLIPMVJYKS-UHFFFAOYSA-N

>  <FORMULA>  (3559) 
C8H16O

>  <EXACT MASS>  (3559) 
128.120115132

>  <MW>  (3559) 
128

>  <ID>  (3559) 
JP007037

>  <CONTRIBUTOR>  (3559) 
University of Tokyo Team, {Faculty of Engineering, University of Tokyo

>  <COMMENT>  (3559) 
SMILES=CCCCCC(=O)CC
InChI=InChI=1S/C8H16O/c1-3-5-6-7-8(9)4-2/h3-7H2,1-2H3
computed SMILES=O=C(CC)CCCCC
accession=JP007037
date=2016.01.19 (Created 2008.10.21, modified 2011.05.06)
author=SODA AROMATIC CO., LTD.
license=CC BY-NC-SA
exact mass=128.12012
ionization energy=70 eV
ion type=[M]+*
computed spectral entropy=2.5167065630227246
computed normalized entropy=0.7724468976450356
SPLASH=splash10-05bf-9000000000-c5ad6888f5d8235bbcbd
submitter=submitter = University of Tokyo Team (Faculty of Engineering, University of Tokyo)
MoNA Rating=3.75

>  <NUM PEAKS>  (3559) 
26

>  <MASS SPECTRAL PEAKS>  (3559) 
15 1.57
26 2.91
27 38.42
28 3.12
29 75.01
30 1.38
39 15
40 1.26
41 26.06
42 11.8
43 99.99
44 2.9
53 2.4
54 1.05
55 11.74
56 2.9
57 91.65
58 2.54
71 43.56
72 55.55
73 7
85 8.15
86 2.03
99 41.48
100 2.49
128 8.03

$$$$

     RDKit          2D

  9  8  0  0  0  0  0  0  0  0999 V2000
   -7.4695    3.9375    0.0000 C   0  0  0  0  0  0  0  0  0  0  0  0
    1.6238    3.1875    0.0000 C   0  0  0  0  0  0  0  0  0  0  0  0
   -6.1704    3.1875    0.0000 C   0  0  0  0  0  0  0  0  0  0  0  0
   -4.8714    3.9375    0.0000 C   0  0  0  0  0  0  0  0  0  0  0  0
   -3.5724    3.1875    0.0000 C   0  0  0  0  0  0  0  0  0  0  0  0
   -2.2733    3.9375    0.0000 C   0  0  0  0  0  0  0  0  0  0  0  0
   -0.9743    3.1875    0.0000 C   0  0  0  0  0  0  0  0  0  0  0  0
    0.3248    3.9375    0.0000 C   0  0  0  0  0  0  0  0  0  0  0  0
    0.3248    5.4375    0.0000 O   0  0  0  0  0  0  0  0  0  0  0  0
  3  1  1  0
  4  3  1  0
  5  4  1  0
  6  5  1  0
  7  6  1  0
  8  2  1  0
  8  7  1  0
  9  8  2  0
M  END
>  <NAME>  (3560) 
2-OCTANONE

>  <SYNONYMS>  (3560) 


>  <SPECTRUM TYPE>  (3560) 
MS1

>  <INSTRUMENT TYPE>  (3560) 
EI-B

>  <INSTRUMENT>  (3560) 
HITACHI M-80B

>  <ION MODE>  (3560) 
P

>  <INCHIKEY>  (3560) 
ZPVFWPFBNIEHGJ-UHFFFAOYSA-N

>  <FORMULA>  (3560) 
C8H16O

>  <EXACT MASS>  (3560) 
128.120115132

>  <MW>  (3560) 
128

>  <ID>  (3560) 
JP007036

>  <CONTRIBUTOR>  (3560) 
University of Tokyo Team, {Faculty of Engineering, University of Tokyo

>  <COMMENT>  (3560) 
SMILES=CCCCCCC(C)=O
InChI=InChI=1S/C8H16O/c1-3-4-5-6-7-8(2)9/h3-7H2,1-2H3
computed SMILES=O=C(C)CCCCCC
accession=JP007036
date=2016.01.19 (Created 2008.10.21, modified 2011.05.06)
author=SODA AROMATIC CO., LTD.
license=CC BY-NC-SA
exact mass=128.12012
ionization energy=70 eV
ion type=[M]+*
computed spectral entropy=2.0893092799042043
computed normalized entropy=0.6974285714208865
SPLASH=splash10-052f-9000000000-e8eee7d65060bf23e4f7
submitter=submitter = University of Tokyo Team (Faculty of Engineering, University of Tokyo)
MoNA Rating=3.75

>  <NUM PEAKS>  (3560) 
20

>  <MASS SPECTRAL PEAKS>  (3560) 
15 3.96
27 12.37
29 10.23
39 9.11
41 17.14
42 4.57
43 99.99
44 2.02
53 1.23
55 4.45
57 3.78
58 78.85
59 14.74
68 1.16
70 1.53
71 15.29
72 1.09
85 4.7
113 2.01
128 5.09

$$$$

     RDKit          2D

  9  8  0  0  0  0  0  0  0  0999 V2000
    2.2733    2.8125    0.0000 C   0  0  0  0  0  0  0  0  0  0  0  0
    0.9743    5.0625    0.0000 C   0  0  0  0  0  0  0  0  0  0  0  0
   -5.5209    2.8125    0.0000 C   0  0  0  0  0  0  0  0  0  0  0  0
   -1.6238    3.5625    0.0000 C   0  0  0  0  0  0  0  0  0  0  0  0
   -0.3248    2.8125    0.0000 C   0  0  0  0  0  0  0  0  0  0  0  0
   -2.9228    2.8125    0.0000 C   0  0  0  0  0  0  0  0  0  0  0  0
    0.9743    3.5625    0.0000 C   0  0  0  0  0  0  0  0  0  0  0  0
   -4.2219    3.5625    0.0000 C   0  0  0  0  0  0  0  0  0  0  0  0
   -4.2219    5.0625    0.0000 O   0  0  0  0  0  0  0  0  0  0  0  0
  5  4  1  0
  6  4  1  0
  7  1  1  0
  7  2  1  0
  7  5  2  0
  8  3  1  0
  8  6  1  0
  9  8  2  0
M  END
>  <NAME>  (3561) 
6-METHYL-5-HEPTEN-2-ONE

>  <SYNONYMS>  (3561) 


>  <SPECTRUM TYPE>  (3561) 
MS1

>  <INSTRUMENT TYPE>  (3561) 
EI-B

>  <INSTRUMENT>  (3561) 
HITACHI M-80B

>  <ION MODE>  (3561) 
P

>  <INCHIKEY>  (3561) 
UHEPJGULSIKKTP-UHFFFAOYSA-N

>  <FORMULA>  (3561) 
C8H14O

>  <EXACT MASS>  (3561) 
126.104465068

>  <MW>  (3561) 
126

>  <ID>  (3561) 
JP007035

>  <CONTRIBUTOR>  (3561) 
University of Tokyo Team, {Faculty of Engineering, University of Tokyo

>  <COMMENT>  (3561) 
SMILES=CC(C)=CCCC(C)=O
InChI=InChI=1S/C8H14O/c1-7(2)5-4-6-8(3)9/h5H,4,6H2,1-3H3
computed SMILES=O=C(C)CCC=C(C)C
accession=JP007035
date=2016.01.19 (Created 2008.10.21, modified 2011.05.06)
author=SODA AROMATIC CO., LTD.
license=CC BY-NC-SA
exact mass=126.10447
ionization energy=70 eV
ion type=[M]+*
computed spectral entropy=2.8279500800854134
computed normalized entropy=0.7831665378442639
SPLASH=splash10-0006-9000000000-52448d8f5e75dfce2601
submitter=submitter = University of Tokyo Team (Faculty of Engineering, University of Tokyo)
MoNA Rating=3.75

>  <NUM PEAKS>  (3561) 
37

>  <MASS SPECTRAL PEAKS>  (3561) 
15 6.41
26 1.07
27 15.96
29 6.85
38 1.39
39 22.47
40 2.93
41 54.76
42 5.48
43 99.99
44 1.72
45 1.03
50 1.29
51 2.59
52 1.19
53 9.08
54 1.22
55 31.79
56 7.54
57 1.28
58 15.4
65 1.52
67 11.87
68 12.52
69 30.62
70 1.52
71 11.74
77 1.41
79 1.02
81 1.39
82 1.31
83 6.62
93 7.76
108 20.74
109 1.64
111 11.68
126 6.05

$$$$

     RDKit          2D

  8  7  0  0  0  0  0  0  0  0999 V2000
   -2.2733    0.5625    0.0000 C   0  0  0  0  0  0  0  0  0  0  0  0
    0.3248    0.5625    0.0000 C   0  0  0  0  0  0  0  0  0  0  0  0
    0.3248    5.0625    0.0000 C   0  0  0  0  0  0  0  0  0  0  0  0
    1.6238    2.8125    0.0000 C   0  0  0  0  0  0  0  0  0  0  0  0
   -0.9743    1.3125    0.0000 C   0  0  0  0  0  0  0  0  0  0  0  0
    0.3248    3.5625    0.0000 C   0  0  0  0  0  0  0  0  0  0  0  0
   -0.9743    2.8125    0.0000 C   0  0  0  0  0  0  0  0  0  0  0  0
   -2.2733    3.5625    0.0000 O   0  0  0  0  0  0  0  0  0  0  0  0
  5  1  1  0
  5  2  1  0
  6  3  1  0
  6  4  1  0
  7  5  1  0
  7  6  1  0
  8  7  2  0
M  END
>  <NAME>  (3562) 
2,4-DIMETHYL-3-PENTANONE

>  <SYNONYMS>  (3562) 


>  <SPECTRUM TYPE>  (3562) 
MS1

>  <INSTRUMENT TYPE>  (3562) 
EI-B

>  <INSTRUMENT>  (3562) 
HITACHI M-80B

>  <ION MODE>  (3562) 
P

>  <INCHIKEY>  (3562) 
HXVNBWAKAOHACI-UHFFFAOYSA-N

>  <FORMULA>  (3562) 
C7H14O

>  <EXACT MASS>  (3562) 
114.104465068

>  <MW>  (3562) 
114

>  <ID>  (3562) 
JP007034

>  <CONTRIBUTOR>  (3562) 
University of Tokyo Team, {Faculty of Engineering, University of Tokyo

>  <COMMENT>  (3562) 
SMILES=CC(C)C(=O)C(C)C
InChI=InChI=1S/C7H14O/c1-5(2)7(8)6(3)4/h5-6H,1-4H3
computed SMILES=O=C(C(C)C)C(C)C
accession=JP007034
date=2016.01.19 (Created 2008.10.21, modified 2011.05.06)
author=SODA AROMATIC CO., LTD.
license=CC BY-NC-SA
exact mass=114.10447
ionization energy=70 eV
ion type=[M]+*
computed spectral entropy=1.9485669563728207
computed normalized entropy=0.674157900640137
SPLASH=splash10-0006-9000000000-ae8109b01439d115af03
submitter=submitter = University of Tokyo Team (Faculty of Engineering, University of Tokyo)
MoNA Rating=3.75

>  <NUM PEAKS>  (3562) 
18

>  <MASS SPECTRAL PEAKS>  (3562) 
15 1.63
18 1.81
26 1.69
27 20.8
28 2.47
29 1.4
39 13.03
40 1.56
41 25.31
42 7.49
43 99.99
44 4.1
55 1.75
56 1
70 6.76
71 34.91
72 1.24
114 5.42

$$$$

     RDKit          2D

 11 12  0  0  0  0  0  0  0  0999 V2000
    1.3259   -2.1785    0.0000 C   0  0  0  0  0  0  0  0  0  0  0  0
    2.2869   -0.5080    0.0000 C   0  0  0  0  0  0  0  0  0  0  0  0
   -1.7800    0.7300    0.0000 C   0  0  0  0  0  0  0  0  0  0  0  0
   -1.7800   -0.7700    0.0000 C   0  0  0  0  0  0  0  0  0  0  0  0
   -0.4800   -0.0200    0.0000 C   0  0  0  0  0  0  0  0  0  0  0  0
   -0.4775    2.9800    0.0000 C   0  0  0  0  0  0  0  0  0  0  0  0
   -0.4800    1.4800    0.0000 C   0  0  0  0  0  0  0  0  0  0  0  0
   -0.4800   -1.5200    0.0000 C   0  0  0  0  0  0  0  0  0  0  0  0
    0.8100    0.7300    0.0000 C   0  0  0  0  0  0  0  0  0  0  0  0
    0.8100   -0.7700    0.0000 C   0  0  0  0  0  0  0  0  0  0  0  0
   -1.7753    3.7322    0.0000 O   0  0  0  0  0  0  0  0  0  0  0  0
  4  3  1  0
  7  3  2  0
  7  6  1  0
  8  4  1  0
  8  5  1  0
  9  5  1  0
  9  7  1  0
 10  1  1  0
 10  2  1  0
 10  8  1  0
 10  9  1  0
 11  6  1  0
M  END
>  <NAME>  (3563) 
MYRTENOL

>  <SYNONYMS>  (3563) 


>  <SPECTRUM TYPE>  (3563) 
MS1

>  <INSTRUMENT TYPE>  (3563) 
EI-B

>  <INSTRUMENT>  (3563) 
HITACHI M-80B

>  <ION MODE>  (3563) 
P

>  <INCHIKEY>  (3563) 
RXBQNMWIQKOSCS-UHFFFAOYSA-N

>  <FORMULA>  (3563) 
C10H16O

>  <EXACT MASS>  (3563) 
152.120115132

>  <MW>  (3563) 
152

>  <ID>  (3563) 
JP007033

>  <CONTRIBUTOR>  (3563) 
University of Tokyo Team, {Faculty of Engineering, University of Tokyo

>  <COMMENT>  (3563) 
SMILES=OCC(=C2)C(C1)C(C)(C)C(C2)1
InChI=InChI=1S/C10H16O/c1-10(2)8-4-3-7(6-11)9(10)5-8/h3,8-9,11H,4-6H2,1-2H3
computed SMILES=OCC1=CCC2CC1C2(C)C
accession=JP007033
date=2016.01.19 (Created 2008.10.21, modified 2011.05.06)
author=SODA AROMATIC CO., LTD.
license=CC BY-NC-SA
exact mass=152.12012
ionization energy=70 eV
ion type=[M]+*
computed spectral entropy=3.275346156612181
computed normalized entropy=0.8330344380869006
SPLASH=splash10-004l-9200000000-7a93d65b58c2e5897441
submitter=submitter = University of Tokyo Team (Faculty of Engineering, University of Tokyo)
MoNA Rating=3.75

>  <NUM PEAKS>  (3563) 
51

>  <MASS SPECTRAL PEAKS>  (3563) 
27 11.49
28 1.41
29 6.85
31 8.91
39 17.07
40 2.66
41 24.07
42 2.31
43 12.61
50 1.58
51 6.56
52 3.07
53 9.79
54 1.7
55 10.61
56 1.29
57 1.4
59 1.73
63 1.75
65 6.57
66 2.99
67 12.11
68 3.07
69 4.52
70 1.54
77 16.95
78 6.08
79 99.99
80 8.97
81 7.94
82 2.71
83 2.73
85 2.43
91 40.68
92 8.19
93 16.66
94 2.65
95 4.79
96 3.03
103 1.73
105 7.63
106 2.86
107 7.41
108 28.14
109 8.01
117 1.36
119 14.73
120 1.39
121 8.35
134 1.58
152 4.45

$$$$

     RDKit          2D

 11 11  0  0  1  0  0  0  0  0999 V2000
   -2.2386    2.7951    0.0000 C   0  0  0  0  0  0  0  0  0  0  0  0
   -3.5376    0.5451    0.0000 C   0  0  0  0  0  0  0  0  0  0  0  0
    2.9576   -1.7049    0.0000 C   0  0  0  0  0  0  0  0  0  0  0  0
    0.3590   -1.7058    0.0000 C   0  0  0  0  0  0  0  0  0  0  0  0
   -0.9400   -0.9558    0.0000 C   0  0  0  0  0  0  0  0  0  0  0  0
    0.3600    1.2959    0.0000 C   0  0  0  0  0  0  0  0  0  0  0  0
   -2.2386    1.2951    0.0000 C   0  0  0  0  0  0  0  0  0  0  0  0
    1.6585   -0.9549    0.0000 C   0  0  0  0  0  0  0  0  0  0  0  0
   -0.9395    0.5451    0.0000 C   0  0  0  0  0  0  0  0  0  0  0  0
    1.6590    0.5459    0.0000 C   0  0  0  0  0  0  0  0  0  0  0  0
    2.9582    1.2957    0.0000 O   0  0  0  0  0  0  0  0  0  0  0  0
  5  4  1  0
  7  1  2  0
  7  2  1  0
  8  3  1  0
  8  4  2  0
  9  5  1  0
  9  6  1  0
  9  7  1  1
 10  6  1  0
 10  8  1  0
 10 11  1  6
M  END
>  <NAME>  (3564) 
L-TRANS-CARVEOL

>  <SYNONYMS>  (3564) 
L-TRANS-2-METHYL-5-(1-METHYLETHENYL)-2-CYCLOHEXEN-1-OL

>  <SPECTRUM TYPE>  (3564) 
MS1

>  <INSTRUMENT TYPE>  (3564) 
EI-B

>  <INSTRUMENT>  (3564) 
HITACHI M-80B

>  <ION MODE>  (3564) 
P

>  <INCHIKEY>  (3564) 
BAVONGHXFVOKBV-ZJUUUORDSA-N

>  <FORMULA>  (3564) 
C10H16O

>  <EXACT MASS>  (3564) 
152.120115132

>  <MW>  (3564) 
152

>  <ID>  (3564) 
JP007032

>  <CONTRIBUTOR>  (3564) 
University of Tokyo Team, {Faculty of Engineering, University of Tokyo

>  <COMMENT>  (3564) 
SMILES=CC(=C)C(C1)CC(O)C(C)=C1
InChI=InChI=1S/C10H16O/c1-7(2)9-5-4-8(3)10(11)6-9/h4,9-11H,1,5-6H2,2-3H3/t9-,10+/m1/s1
computed SMILES=OC1C(=CCC(C(=C)C)C1)C
accession=JP007032
date=2016.01.19 (Created 2008.10.21, modified 2011.05.06)
author=SODA AROMATIC CO., LTD.
license=CC BY-NC-SA
exact mass=152.12012
ionization energy=70 eV
ion type=[M]+*
computed spectral entropy=3.589229613847713
computed normalized entropy=0.8566886378116441
SPLASH=splash10-0a5c-9300000000-0497c064b7fcb0223af5
submitter=submitter = University of Tokyo Team (Faculty of Engineering, University of Tokyo)
MoNA Rating=3.75

>  <NUM PEAKS>  (3564) 
66

>  <MASS SPECTRAL PEAKS>  (3564) 
15 1.38
26 1
27 20.71
28 2.62
29 12.31
31 2.19
38 1.49
39 34.11
40 7.31
41 43.25
42 3.41
43 23.92
44 3.24
45 2.06
50 2.25
51 8.38
52 3.52
53 19.88
54 5.68
55 34.81
56 17.78
57 2.87
63 2.45
65 8.47
66 3.67
67 18.41
68 6.77
69 24.92
70 1.33
71 2.32
72 1.23
77 16.24
78 3.74
79 13.92
80 11.26
81 14.97
82 12.22
83 33.91
84 75.61
85 3.9
91 21.68
92 6.35
93 17.06
94 5.52
95 17.84
96 8.35
97 5.63
103 1.33
105 6.61
106 2
107 5.07
108 12.26
109 99.99
110 10.72
111 1.79
115 1.15
117 1.42
119 14.01
120 1.44
121 1.32
123 8.47
124 2.87
134 3.14
137 12.39
152 19.18
153 1.96

$$$$

     RDKit          2D

 11 11  0  0  0  0  0  0  0  0999 V2000
   -2.5989   -1.5002    0.0000 C   0  0  0  0  0  0  0  0  0  0  0  0
    3.3491    0.2013    0.0000 C   0  0  0  0  0  0  0  0  0  0  0  0
    3.8978    2.2504    0.0000 C   0  0  0  0  0  0  0  0  0  0  0  0
   -1.3000    0.7500    0.0000 C   0  0  0  0  0  0  0  0  0  0  0  0
   -0.0000   -1.5000    0.0000 C   0  0  0  0  0  0  0  0  0  0  0  0
    0.0000    1.5000    0.0000 C   0  0  0  0  0  0  0  0  0  0  0  0
    1.3000   -0.7500    0.0000 C   0  0  0  0  0  0  0  0  0  0  0  0
   -1.3000   -0.7500    0.0000 C   0  0  0  0  0  0  0  0  0  0  0  0
    1.3000    0.7500    0.0000 C   0  0  0  0  0  0  0  0  0  0  0  0
    2.5989    1.5002    0.0000 C   0  0  0  0  0  0  0  0  0  0  0  0
    1.8487    2.7991    0.0000 O   0  0  0  0  0  0  0  0  0  0  0  0
  6  4  2  0
  7  5  1  0
  8  1  1  0
  8  4  1  0
  8  5  2  0
  9  6  1  0
  9  7  2  0
 10  2  1  0
 10  3  1  0
 10  9  1  0
 11 10  1  0
M  END
>  <NAME>  (3565) 
P-CYMEN-8-OL

>  <SYNONYMS>  (3565) 


>  <SPECTRUM TYPE>  (3565) 
MS1

>  <INSTRUMENT TYPE>  (3565) 
EI-B

>  <INSTRUMENT>  (3565) 
HITACHI M-80B

>  <ION MODE>  (3565) 
P

>  <INCHIKEY>  (3565) 
XLPDVYGDNRIQFV-UHFFFAOYSA-N

>  <FORMULA>  (3565) 
C10H14O

>  <EXACT MASS>  (3565) 
150.104465068

>  <MW>  (3565) 
150

>  <ID>  (3565) 
JP007031

>  <CONTRIBUTOR>  (3565) 
University of Tokyo Team, {Faculty of Engineering, University of Tokyo

>  <COMMENT>  (3565) 
SMILES=Cc(c1)ccc(c1)C(C)(C)O
InChI=InChI=1S/C10H14O/c1-8-4-6-9(7-5-8)10(2,3)11/h4-7,11H,1-3H3
computed SMILES=OC(C1=CC=C(C=C1)C)(C)C
accession=JP007031
date=2016.01.19 (Created 2008.10.21, modified 2011.05.06)
author=SODA AROMATIC CO., LTD.
license=CC BY-NC-SA
exact mass=150.10447
ionization energy=70 eV
ion type=[M]+*
computed spectral entropy=2.2833638819653514
computed normalized entropy=0.6422335710807453
SPLASH=splash10-000f-9400000000-39274520f6ff7fa8357c
submitter=submitter = University of Tokyo Team (Faculty of Engineering, University of Tokyo)
MoNA Rating=3.75

>  <NUM PEAKS>  (3565) 
35

>  <MASS SPECTRAL PEAKS>  (3565) 
15 1.7
27 2.14
29 1.15
31 1.32
39 6.22
41 2.82
43 99.99
44 2.06
50 1.4
51 4.22
53 1.13
59 2.18
63 3.8
64 1.13
65 7.69
66 1.01
67 1.98
68 1.76
74 1.11
77 4
79 1
89 2.18
90 1
91 14.3
92 2.94
93 1.14
105 2.2
107 1.5
115 2.89
117 1.26
119 3.31
133 1.22
135 60.79
136 6.27
150 8.33

$$$$

     RDKit          2D

 11 11  0  0  0  0  0  0  0  0999 V2000
    3.8981    0.7504    0.0000 C   0  0  0  0  0  0  0  0  0  0  0  0
    2.5987    3.0002    0.0000 C   0  0  0  0  0  0  0  0  0  0  0  0
   -1.3000    0.7500    0.0000 C   0  0  0  0  0  0  0  0  0  0  0  0
   -0.0000   -1.5000    0.0000 C   0  0  0  0  0  0  0  0  0  0  0  0
    0.0000    1.5000    0.0000 C   0  0  0  0  0  0  0  0  0  0  0  0
    1.3000   -0.7500    0.0000 C   0  0  0  0  0  0  0  0  0  0  0  0
   -2.5989   -1.5002    0.0000 C   0  0  0  0  0  0  0  0  0  0  0  0
    2.5989    1.5002    0.0000 C   0  0  0  0  0  0  0  0  0  0  0  0
   -1.3000   -0.7500    0.0000 C   0  0  0  0  0  0  0  0  0  0  0  0
    1.3000    0.7500    0.0000 C   0  0  0  0  0  0  0  0  0  0  0  0
   -3.8981   -0.7504    0.0000 O   0  0  0  0  0  0  0  0  0  0  0  0
  5  3  2  0
  6  4  1  0
  8  1  1  0
  8  2  1  0
  9  3  1  0
  9  4  2  0
  9  7  1  0
 10  5  1  0
 10  6  2  0
 10  8  1  0
 11  7  1  0
M  END
>  <NAME>  (3566) 
CUMINYL ALCOHOL

>  <SYNONYMS>  (3566) 
4-(1-METHYLETHYL)BENZENEMETHANOL

>  <SPECTRUM TYPE>  (3566) 
MS1

>  <INSTRUMENT TYPE>  (3566) 
EI-B

>  <INSTRUMENT>  (3566) 
HITACHI M-80B

>  <ION MODE>  (3566) 
P

>  <INCHIKEY>  (3566) 
OIGWAXDAPKFNCQ-UHFFFAOYSA-N

>  <FORMULA>  (3566) 
C10H14O

>  <EXACT MASS>  (3566) 
150.104465068

>  <MW>  (3566) 
150

>  <ID>  (3566) 
JP007030

>  <CONTRIBUTOR>  (3566) 
University of Tokyo Team, {Faculty of Engineering, University of Tokyo

>  <COMMENT>  (3566) 
SMILES=OCc(c1)ccc(C(C)C)c1
InChI=InChI=1S/C10H14O/c1-8(2)10-5-3-9(7-11)4-6-10/h3-6,8,11H,7H2,1-2H3
computed SMILES=OCC1=CC=C(C=C1)C(C)C
accession=JP007030
date=2016.01.19 (Created 2008.10.21, modified 2011.05.06)
author=SODA AROMATIC CO., LTD.
license=CC BY-NC-SA
exact mass=150.10447
ionization energy=70 eV
ion type=[M]+*
computed spectral entropy=3.1969588314417283
computed normalized entropy=0.7977771459640355
SPLASH=splash10-0kbr-6900000000-b8aff71f0bcacbaf724d
submitter=submitter = University of Tokyo Team (Faculty of Engineering, University of Tokyo)
MoNA Rating=3.75

>  <NUM PEAKS>  (3566) 
55

>  <MASS SPECTRAL PEAKS>  (3566) 
15 1.39
18 2.32
27 9.06
28 1.94
29 4.58
31 8.05
39 11.72
40 1.09
41 11.44
43 8.6
50 3.73
51 12.33
52 2.44
53 3.06
55 1.22
60 2.03
62 1.61
63 5.77
64 1.54
65 7.22
66 1.66
67 1.87
74 1.54
75 1.81
76 1.68
77 24.64
78 7.64
79 39.82
80 2.29
89 3.02
91 31.35
92 3.08
93 1.79
102 1.97
103 9.03
104 2.52
105 44.15
106 3.52
107 35.61
108 2.5
115 7.11
116 1.6
117 11.8
118 2.63
119 26.01
120 3.08
121 1.75
132 1.34
133 2.66
134 1.44
135 99.99
136 9.93
149 1.49
150 48.05
151 4.52

$$$$

     RDKit          2D

 11 10  0  0  0  0  0  0  0  0999 V2000
    1.9486    3.3750    0.0000 C   0  0  0  0  0  0  0  0  0  0  0  0
    0.6495    5.6250    0.0000 C   0  0  0  0  0  0  0  0  0  0  0  0
   -5.8457    3.3750    0.0000 C   0  0  0  0  0  0  0  0  0  0  0  0
   -4.5466    5.6250    0.0000 C   0  0  0  0  0  0  0  0  0  0  0  0
   -0.6495    3.3750    0.0000 C   0  0  0  0  0  0  0  0  0  0  0  0
   -1.9486    4.1250    0.0000 C   0  0  0  0  0  0  0  0  0  0  0  0
   -3.2476    1.8750    0.0000 C   0  0  0  0  0  0  0  0  0  0  0  0
    0.6495    4.1250    0.0000 C   0  0  0  0  0  0  0  0  0  0  0  0
   -4.5466    4.1250    0.0000 C   0  0  0  0  0  0  0  0  0  0  0  0
   -3.2476    3.3750    0.0000 C   0  0  0  0  0  0  0  0  0  0  0  0
   -4.5466    1.1250    0.0000 O   0  0  0  0  0  0  0  0  0  0  0  0
  6  5  1  0
  8  1  1  0
  8  2  1  0
  8  5  1  0
  9  3  1  0
  9  4  1  0
 10  6  1  0
 10  7  1  0
 10  9  1  0
 11  7  1  0
M  END
>  <NAME>  (3567) 
TETRAHYDROLAVANDULOL

>  <SYNONYMS>  (3567) 
5-METHYL-2-ISOPROPYLHEXANOL

>  <SPECTRUM TYPE>  (3567) 
MS1

>  <INSTRUMENT TYPE>  (3567) 
EI-B

>  <INSTRUMENT>  (3567) 
HITACHI M-80B

>  <ION MODE>  (3567) 
P

>  <INCHIKEY>  (3567) 
SFIQHFBITUEIBP-UHFFFAOYSA-N

>  <FORMULA>  (3567) 
C10H22O

>  <EXACT MASS>  (3567) 
158.167065324

>  <MW>  (3567) 
158

>  <ID>  (3567) 
JP007029

>  <CONTRIBUTOR>  (3567) 
University of Tokyo Team, {Faculty of Engineering, University of Tokyo

>  <COMMENT>  (3567) 
SMILES=OCC(CCC(C)C)C(C)C
InChI=InChI=1S/C10H22O/c1-8(2)5-6-10(7-11)9(3)4/h8-11H,5-7H2,1-4H3
computed SMILES=OCC(CCC(C)C)C(C)C
accession=JP007029
date=2016.01.19 (Created 2008.10.21, modified 2011.05.06)
author=SODA AROMATIC CO., LTD.
license=CC BY-NC-SA
exact mass=158.16707
ionization energy=70 eV
ion type=[M]+*
computed spectral entropy=2.954206873078013
computed normalized entropy=0.8063756416379596
SPLASH=splash10-0abc-9000000000-f99fb54913596259edd5
submitter=submitter = University of Tokyo Team (Faculty of Engineering, University of Tokyo)
MoNA Rating=3.75

>  <NUM PEAKS>  (3567) 
39

>  <MASS SPECTRAL PEAKS>  (3567) 
27 22.02
28 2.21
29 21.67
31 12.84
39 16.26
40 2.78
41 63.52
42 9.32
43 99.99
44 4.45
45 4.12
53 5.89
54 3.11
55 57.35
56 49.61
57 86.07
58 4.02
59 1.48
67 4.02
68 2.77
69 48.63
70 25.26
71 77.69
72 4.41
81 2.21
82 2.61
83 12.88
84 21.74
85 32.09
86 1.73
96 2.96
97 18.61
98 3.5
112 2.82
115 2.23
125 1.97
126 2.04
127 4.03
140 3.72

$$$$

     RDKit          2D

 11 10  0  0  0  0  0  0  0  0999 V2000
   -7.4695    3.9375    0.0000 C   0  0  0  0  0  0  0  0  0  0  0  0
    1.6238    3.1875    0.0000 C   0  0  0  0  0  0  0  0  0  0  0  0
    0.3248    5.4375    0.0000 C   0  0  0  0  0  0  0  0  0  0  0  0
   -3.9072    5.0866    0.0000 C   0  0  0  0  0  0  0  0  0  0  0  0
   -6.1704    3.1875    0.0000 C   0  0  0  0  0  0  0  0  0  0  0  0
   -2.2733    3.9375    0.0000 C   0  0  0  0  0  0  0  0  0  0  0  0
   -0.9743    3.1875    0.0000 C   0  0  0  0  0  0  0  0  0  0  0  0
   -3.5724    3.1875    0.0000 C   0  0  0  0  0  0  0  0  0  0  0  0
    0.3248    3.9375    0.0000 C   0  0  0  0  0  0  0  0  0  0  0  0
   -4.8714    3.9375    0.0000 C   0  0  0  0  0  0  0  0  0  0  0  0
   -5.8356    5.0866    0.0000 O   0  0  0  0  0  0  0  0  0  0  0  0
  5  1  1  0
  7  6  1  0
  8  6  1  0
  9  2  1  0
  9  3  1  0
  9  7  1  0
 10  4  1  0
 10  5  1  0
 10  8  1  0
 11 10  1  0
M  END
>  <NAME>  (3568) 
TETRAHYDROLINALOOL

>  <SYNONYMS>  (3568) 
3,7-DIMETHYL-3-OCTANOL

>  <SPECTRUM TYPE>  (3568) 
MS1

>  <INSTRUMENT TYPE>  (3568) 
EI-B

>  <INSTRUMENT>  (3568) 
HITACHI M-80B

>  <ION MODE>  (3568) 
P

>  <INCHIKEY>  (3568) 
DLHQZZUEERVIGQ-UHFFFAOYSA-N

>  <FORMULA>  (3568) 
C10H22O

>  <EXACT MASS>  (3568) 
158.167065324

>  <MW>  (3568) 
158

>  <ID>  (3568) 
JP007028

>  <CONTRIBUTOR>  (3568) 
University of Tokyo Team, {Faculty of Engineering, University of Tokyo

>  <COMMENT>  (3568) 
SMILES=CC(C)CCCC(C)(O)CC
InChI=InChI=1S/C10H22O/c1-5-10(4,11)8-6-7-9(2)3/h9,11H,5-8H2,1-4H3
computed SMILES=OC(C)(CC)CCCC(C)C
accession=JP007028
date=2016.01.19 (Created 2008.10.21, modified 2011.05.06)
author=SODA AROMATIC CO., LTD.
license=CC BY-NC-SA
exact mass=158.16707
ionization energy=70 eV
ion type=[M]+*
computed spectral entropy=2.455172752831521
computed normalized entropy=0.7449315159242156
SPLASH=splash10-00di-9000000000-03f4bb0960531ca3cf0d
submitter=submitter = University of Tokyo Team (Faculty of Engineering, University of Tokyo)
MoNA Rating=3.75

>  <NUM PEAKS>  (3568) 
27

>  <MASS SPECTRAL PEAKS>  (3568) 
27 5.36
28 1.07
29 10.86
31 1.73
39 3.67
41 10.61
42 1.22
43 20.6
45 5.48
53 1.35
55 20.87
56 1.52
57 6.48
58 4.07
59 1.76
69 26.35
70 4.28
71 4.22
72 3.14
73 99.99
74 4.69
83 4.62
85 1.23
111 6.13
129 14.78
130 1.05
143 4.71

$$$$

     RDKit          2D

  8  7  0  0  0  0  0  0  0  0999 V2000
    1.8983    1.9620    0.0000 C   0  0  0  0  0  0  0  0  0  0  0  0
   -1.2488    4.0111    0.0000 C   0  0  0  0  0  0  0  0  0  0  0  0
   -3.2978    3.4620    0.0000 C   0  0  0  0  0  0  0  0  0  0  0  0
   -0.6998    1.9620    0.0000 C   0  0  0  0  0  0  0  0  0  0  0  0
    0.5993    2.7120    0.0000 C   0  0  0  0  0  0  0  0  0  0  0  0
   -1.9988    2.7120    0.0000 C   0  0  0  0  0  0  0  0  0  0  0  0
    0.5993    4.2120    0.0000 O   0  0  0  0  0  0  0  0  0  0  0  0
   -2.7488    1.4130    0.0000 O   0  0  0  0  0  0  0  0  0  0  0  0
  5  1  1  0
  5  4  1  0
  6  2  1  0
  6  3  1  0
  6  4  1  0
  7  5  1  0
  8  6  1  0
M  END
>  <NAME>  (3569) 
2-METHYL-2,4-PENTANEDIOL

>  <SYNONYMS>  (3569) 


>  <SPECTRUM TYPE>  (3569) 
MS1

>  <INSTRUMENT TYPE>  (3569) 
EI-B

>  <INSTRUMENT>  (3569) 
HITACHI M-80B

>  <ION MODE>  (3569) 
P

>  <INCHIKEY>  (3569) 
SVTBMSDMJJWYQN-UHFFFAOYSA-N

>  <FORMULA>  (3569) 
C6H14O2

>  <EXACT MASS>  (3569) 
118.099379688

>  <MW>  (3569) 
118

>  <ID>  (3569) 
JP007027

>  <CONTRIBUTOR>  (3569) 
University of Tokyo Team, {Faculty of Engineering, University of Tokyo

>  <COMMENT>  (3569) 
SMILES=CC(O)CC(C)(C)O
InChI=InChI=1S/C6H14O2/c1-5(7)4-6(2,3)8/h5,7-8H,4H2,1-3H3
computed SMILES=OC(C)CC(O)(C)C
accession=JP007027
date=2016.01.19 (Created 2008.10.21, modified 2011.05.06)
author=SODA AROMATIC CO., LTD.
license=CC BY-NC-SA
exact mass=118.09938
ionization energy=70 eV
ion type=[M]+*
computed spectral entropy=2.373195454526649
computed normalized entropy=0.7677654028815587
SPLASH=splash10-0a4l-9000000000-58b9c84e91a742088086
submitter=submitter = University of Tokyo Team (Faculty of Engineering, University of Tokyo)
MoNA Rating=3.75

>  <NUM PEAKS>  (3569) 
22

>  <MASS SPECTRAL PEAKS>  (3569) 
15 4.18
19 1.08
27 6.65
28 1.3
29 6.11
31 13.3
39 7.02
40 1.54
41 21.48
42 13.77
43 78.35
44 4.15
45 20.17
55 3.01
56 26.59
57 13.23
58 3.64
59 99.99
60 3.24
61 9.34
85 9.32
103 5.96

$$$$

     RDKit          2D

 21 20  0  0  0  0  0  0  0  0999 V2000
    4.8714    8.8125    0.0000 C   0  0  0  0  0  0  0  0  0  0  0  0
  -14.6142    9.5625    0.0000 C   0  0  0  0  0  0  0  0  0  0  0  0
  -13.3151    7.3125    0.0000 C   0  0  0  0  0  0  0  0  0  0  0  0
   -8.1190    7.3125    0.0000 C   0  0  0  0  0  0  0  0  0  0  0  0
   -2.9228    7.3125    0.0000 C   0  0  0  0  0  0  0  0  0  0  0  0
    1.3091    7.6634    0.0000 C   0  0  0  0  0  0  0  0  0  0  0  0
    3.5724    9.5625    0.0000 C   0  0  0  0  0  0  0  0  0  0  0  0
  -10.7171    8.8125    0.0000 C   0  0  0  0  0  0  0  0  0  0  0  0
   -5.5209    8.8125    0.0000 C   0  0  0  0  0  0  0  0  0  0  0  0
   -0.3248    8.8125    0.0000 C   0  0  0  0  0  0  0  0  0  0  0  0
  -12.0161    9.5625    0.0000 C   0  0  0  0  0  0  0  0  0  0  0  0
   -9.4180    9.5625    0.0000 C   0  0  0  0  0  0  0  0  0  0  0  0
   -6.8200    9.5625    0.0000 C   0  0  0  0  0  0  0  0  0  0  0  0
   -4.2219    9.5625    0.0000 C   0  0  0  0  0  0  0  0  0  0  0  0
   -1.6238    9.5625    0.0000 C   0  0  0  0  0  0  0  0  0  0  0  0
    0.9743    9.5625    0.0000 C   0  0  0  0  0  0  0  0  0  0  0  0
  -13.3151    8.8125    0.0000 C   0  0  0  0  0  0  0  0  0  0  0  0
   -8.1190    8.8125    0.0000 C   0  0  0  0  0  0  0  0  0  0  0  0
   -2.9228    8.8125    0.0000 C   0  0  0  0  0  0  0  0  0  0  0  0
    2.2733    8.8125    0.0000 C   0  0  0  0  0  0  0  0  0  0  0  0
    3.2375    7.6634    0.0000 O   0  0  0  0  0  0  0  0  0  0  0  0
  7  1  2  0
 11  8  1  0
 12  8  1  0
 13  9  1  0
 14  9  1  0
 15 10  1  0
 16 10  1  0
 17  2  1  0
 17  3  1  0
 17 11  1  0
 18  4  1  0
 18 12  1  0
 18 13  1  0
 19  5  1  0
 19 14  1  0
 19 15  1  0
 20  6  1  0
 20  7  1  0
 20 16  1  0
 21 20  1  0
M  END
>  <NAME>  (3570) 
ISOPHYTOL

>  <SYNONYMS>  (3570) 
3,7,11,15-TETRAMETHYL-1-HEXADECEN-3-OL

>  <SPECTRUM TYPE>  (3570) 
MS1

>  <INSTRUMENT TYPE>  (3570) 
EI-B

>  <INSTRUMENT>  (3570) 
HITACHI M-80B

>  <ION MODE>  (3570) 
P

>  <INCHIKEY>  (3570) 
KEVYVLWNCKMXJX-UHFFFAOYSA-N

>  <FORMULA>  (3570) 
C20H40O

>  <EXACT MASS>  (3570) 
296.3079159

>  <MW>  (3570) 
296

>  <ID>  (3570) 
JP007026

>  <CONTRIBUTOR>  (3570) 
University of Tokyo Team, {Faculty of Engineering, University of Tokyo

>  <COMMENT>  (3570) 
SMILES=CC(C)CCCC(C)CCCC(C)CCCC(C)(O)C=C
InChI=InChI=1S/C20H40O/c1-7-20(6,21)16-10-15-19(5)14-9-13-18(4)12-8-11-17(2)3/h7,17-19,21H,1,8-16H2,2-6H3
computed SMILES=OC(C=C)(C)CCCC(C)CCCC(C)CCCC(C)C
accession=JP007026
date=2016.01.19 (Created 2008.10.21, modified 2011.05.06)
author=SODA AROMATIC CO., LTD.
license=CC BY-NC-SA
exact mass=296.30792
ionization energy=70 eV
ion type=[M]+*
computed spectral entropy=2.386781233531279
computed normalized entropy=0.7017473453319153
SPLASH=splash10-00di-9000000000-727a667560f41279ecd4
submitter=submitter = University of Tokyo Team (Faculty of Engineering, University of Tokyo)
MoNA Rating=3.75

>  <NUM PEAKS>  (3570) 
30

>  <MASS SPECTRAL PEAKS>  (3570) 
27 1.79
29 3.61
39 1.04
41 10.51
42 2.07
43 19.58
53 1.05
55 11.11
56 3.76
57 11.61
58 3.34
59 1.5
67 1.76
68 1.73
69 6.73
70 3.15
71 99.99
72 5.83
80 1.01
81 5.75
82 7.73
83 4.46
85 2.31
95 3.83
96 1.99
97 2.72
109 1.57
111 1.38
123 4.21
124 1.32

$$$$

     RDKit          2D

  9  8  0  0  0  0  0  0  0  0999 V2000
    2.5981    4.5000    0.0000 C   0  0  0  0  0  0  0  0  0  0  0  0
    1.2990    5.2500    0.0000 C   0  0  0  0  0  0  0  0  0  0  0  0
   -6.4952    5.2500    0.0000 C   0  0  0  0  0  0  0  0  0  0  0  0
   -5.1962    4.5000    0.0000 C   0  0  0  0  0  0  0  0  0  0  0  0
   -1.2990    5.2500    0.0000 C   0  0  0  0  0  0  0  0  0  0  0  0
   -2.5981    4.5000    0.0000 C   0  0  0  0  0  0  0  0  0  0  0  0
   -7.7942    4.5000    0.0000 O   0  0  0  0  0  0  0  0  0  0  0  0
    0.0000    4.5000    0.0000 O   0  0  0  0  0  0  0  0  0  0  0  0
   -3.8971    5.2500    0.0000 O   0  0  0  0  0  0  0  0  0  0  0  0
  2  1  1  0
  4  3  1  0
  6  5  1  0
  7  3  1  0
  8  2  1  0
  8  5  1  0
  9  4  1  0
  9  6  1  0
M  END
>  <NAME>  (3571) 
DIETHYLENE GLYCOL MONOETHYL ETHER

>  <SYNONYMS>  (3571) 


>  <SPECTRUM TYPE>  (3571) 
MS1

>  <INSTRUMENT TYPE>  (3571) 
EI-B

>  <INSTRUMENT>  (3571) 
HITACHI M-80B

>  <ION MODE>  (3571) 
P

>  <INCHIKEY>  (3571) 
XXJWXESWEXIICW-UHFFFAOYSA-N

>  <FORMULA>  (3571) 
C6H14O3

>  <EXACT MASS>  (3571) 
134.094294308

>  <MW>  (3571) 
134

>  <ID>  (3571) 
JP007025

>  <CONTRIBUTOR>  (3571) 
University of Tokyo Team, {Faculty of Engineering, University of Tokyo

>  <COMMENT>  (3571) 
SMILES=CCOCCOCCO
InChI=InChI=1S/C6H14O3/c1-2-8-5-6-9-4-3-7/h7H,2-6H2,1H3
computed SMILES=OCCOCCOCC
accession=JP007025
date=2016.01.19 (Created 2008.10.21, modified 2011.05.06)
author=SODA AROMATIC CO., LTD.
license=CC BY-NC-SA
exact mass=134.09429
ionization energy=70 eV
ion type=[M]+*
computed spectral entropy=2.325685696585318
computed normalized entropy=0.7417285877199875
SPLASH=splash10-0002-9000000000-f3cf05e953c5a05199b9
submitter=submitter = University of Tokyo Team (Faculty of Engineering, University of Tokyo)
MoNA Rating=3.75

>  <NUM PEAKS>  (3571) 
23

>  <MASS SPECTRAL PEAKS>  (3571) 
15 3.92
19 2.44
26 1.21
27 13.38
28 3.19
29 16.52
30 1.02
31 40.92
41 1.4
42 1.11
43 12.21
44 6.67
45 99.99
46 1.86
59 32.56
60 8.39
61 1.77
62 1.33
72 23.05
73 12.59
75 6.48
103 2.56
104 3.78

$$$$

     RDKit          2D

  8  7  0  0  0  0  0  0  0  0999 V2000
   -6.4952    4.5000    0.0000 C   0  0  0  0  0  0  0  0  0  0  0  0
   -5.1962    3.7500    0.0000 C   0  0  0  0  0  0  0  0  0  0  0  0
   -3.8971    4.5000    0.0000 C   0  0  0  0  0  0  0  0  0  0  0  0
    1.2990    4.5000    0.0000 C   0  0  0  0  0  0  0  0  0  0  0  0
   -2.5981    3.7500    0.0000 C   0  0  0  0  0  0  0  0  0  0  0  0
    0.0000    3.7500    0.0000 C   0  0  0  0  0  0  0  0  0  0  0  0
    2.5981    3.7500    0.0000 O   0  0  0  0  0  0  0  0  0  0  0  0
   -1.2990    4.5000    0.0000 O   0  0  0  0  0  0  0  0  0  0  0  0
  2  1  1  0
  3  2  1  0
  5  3  1  0
  6  4  1  0
  7  4  1  0
  8  5  1  0
  8  6  1  0
M  END
>  <NAME>  (3572) 
2-BUTOXYETHANOL

>  <SYNONYMS>  (3572) 


>  <SPECTRUM TYPE>  (3572) 
MS1

>  <INSTRUMENT TYPE>  (3572) 
EI-B

>  <INSTRUMENT>  (3572) 
HITACHI M-80B

>  <ION MODE>  (3572) 
P

>  <INCHIKEY>  (3572) 
POAOYUHQDCAZBD-UHFFFAOYSA-N

>  <FORMULA>  (3572) 
C6H14O2

>  <EXACT MASS>  (3572) 
118.099379688

>  <MW>  (3572) 
118

>  <ID>  (3572) 
JP007024

>  <CONTRIBUTOR>  (3572) 
University of Tokyo Team, {Faculty of Engineering, University of Tokyo

>  <COMMENT>  (3572) 
SMILES=CCCCOCCO
InChI=InChI=1S/C6H14O2/c1-2-3-5-8-6-4-7/h7H,2-6H2,1H3
computed SMILES=OCCOCCCC
accession=JP007024
date=2016.01.19 (Created 2008.10.21, modified 2011.05.06)
author=SODA AROMATIC CO., LTD.
license=CC BY-NC-SA
exact mass=118.09938
ionization energy=70 eV
ion type=[M]+*
computed spectral entropy=2.4267598534218906
computed normalized entropy=0.7448397630647156
SPLASH=splash10-0a4i-9000000000-5b26a54363815eed68aa
submitter=submitter = University of Tokyo Team (Faculty of Engineering, University of Tokyo)
MoNA Rating=3.75

>  <NUM PEAKS>  (3572) 
26

>  <MASS SPECTRAL PEAKS>  (3572) 
15 1.8
19 1.67
26 1.25
27 14.98
28 4.32
29 33.85
30 1.09
31 13.59
39 7.09
41 36.25
42 2.29
43 6.05
44 3.76
45 45.72
46 1.04
55 6.04
56 8.41
57 99.99
58 4.58
63 1.39
71 4.27
72 1.48
73 1.3
75 7.57
87 16.94
100 2.63

$$$$

     RDKit          2D

  5  4  0  0  0  0  0  0  0  0999 V2000
    0.0000    0.0000    0.0000 C   0  0  0  0  0  0  0  0  0  0  0  0
   -1.2990    2.2500    0.0000 C   0  0  0  0  0  0  0  0  0  0  0  0
    0.0000    1.5000    0.0000 C   0  0  0  0  0  0  0  0  0  0  0  0
   -1.2990    3.7500    0.0000 O   0  0  0  0  0  0  0  0  0  0  0  0
    1.2990    2.2500    0.0000 O   0  0  0  0  0  0  0  0  0  0  0  0
  3  1  1  0
  3  2  1  0
  4  2  1  0
  5  3  2  0
M  END
>  <NAME>  (3573) 
1-HYDROXY-2-PROPANONE

>  <SYNONYMS>  (3573) 


>  <SPECTRUM TYPE>  (3573) 
MS1

>  <INSTRUMENT TYPE>  (3573) 
EI-B

>  <INSTRUMENT>  (3573) 
HITACHI M-80B

>  <ION MODE>  (3573) 
P

>  <INCHIKEY>  (3573) 
XLSMFKSTNGKWQX-UHFFFAOYSA-N

>  <FORMULA>  (3573) 
C3H6O2

>  <EXACT MASS>  (3573) 
74.036779432

>  <MW>  (3573) 
74

>  <ID>  (3573) 
JP007023

>  <CONTRIBUTOR>  (3573) 
University of Tokyo Team, {Faculty of Engineering, University of Tokyo

>  <COMMENT>  (3573) 
SMILES=OCC(C)=O
InChI=InChI=1S/C3H6O2/c1-3(5)2-4/h4H,2H2,1H3
computed SMILES=O=C(C)CO
accession=JP007023
date=2016.01.19 (Created 2008.10.21, modified 2011.05.06)
author=SODA AROMATIC CO., LTD.
license=CC BY-NC-SA
exact mass=74.03678
ionization energy=70 eV
ion type=[M]+*
computed spectral entropy=1.6498305310652022
computed normalized entropy=0.6251590340804483
SPLASH=splash10-0006-9000000000-2534cfaae5c1ba708730
submitter=submitter = University of Tokyo Team (Faculty of Engineering, University of Tokyo)
MoNA Rating=3.75

>  <NUM PEAKS>  (3573) 
14

>  <MASS SPECTRAL PEAKS>  (3573) 
14 3.14
15 14.91
26 2.06
27 4.22
28 1.09
29 13.47
30 1.58
31 22.47
41 1.14
42 6.91
43 99.99
44 1.99
45 2.09
74 7.37

$$$$

     RDKit          2D

 10  9  0  0  0  0  0  0  0  0999 V2000
    1.3260   -0.6495    0.0000 C   0  0  0  0  0  0  0  0  0  0  0  0
   -0.1740    1.9486    0.0000 C   0  0  0  0  0  0  0  0  0  0  0  0
    3.9240    2.3505    0.0000 C   0  0  0  0  0  0  0  0  0  0  0  0
    4.4731    4.3995    0.0000 C   0  0  0  0  0  0  0  0  0  0  0  0
    1.8750    1.3995    0.0000 C   0  0  0  0  0  0  0  0  0  0  0  0
    1.8750    2.8995    0.0000 C   0  0  0  0  0  0  0  0  0  0  0  0
    0.5760    0.6495    0.0000 C   0  0  0  0  0  0  0  0  0  0  0  0
    3.1740    3.6495    0.0000 C   0  0  0  0  0  0  0  0  0  0  0  0
   -0.7231   -0.1005    0.0000 O   0  0  0  0  0  0  0  0  0  0  0  0
    2.4240    4.9486    0.0000 O   0  0  0  0  0  0  0  0  0  0  0  0
  6  5  1  0
  7  1  1  0
  7  2  1  0
  7  5  1  0
  8  3  1  0
  8  4  1  0
  8  6  1  0
  9  7  1  0
 10  8  1  0
M  END
>  <NAME>  (3574) 
2,5-DIMETHYL-2,5-HEXANEDIOL

>  <SYNONYMS>  (3574) 


>  <SPECTRUM TYPE>  (3574) 
MS1

>  <INSTRUMENT TYPE>  (3574) 
EI-B

>  <INSTRUMENT>  (3574) 
HITACHI M-80B

>  <ION MODE>  (3574) 
P

>  <INCHIKEY>  (3574) 
ZWNMRZQYWRLGMM-UHFFFAOYSA-N

>  <FORMULA>  (3574) 
C8H18O2

>  <EXACT MASS>  (3574) 
146.130679816

>  <MW>  (3574) 
146

>  <ID>  (3574) 
JP007022

>  <CONTRIBUTOR>  (3574) 
University of Tokyo Team, {Faculty of Engineering, University of Tokyo

>  <COMMENT>  (3574) 
SMILES=CC(C)(O)CCC(C)(C)O
InChI=InChI=1S/C8H18O2/c1-7(2,9)5-6-8(3,4)10/h9-10H,5-6H2,1-4H3
computed SMILES=OC(C)(C)CCC(O)(C)C
accession=JP007022
date=2016.01.19 (Created 2008.10.21, modified 2011.05.06)
author=SODA AROMATIC CO., LTD.
license=CC BY-NC-SA
exact mass=146.13068
ionization energy=70 eV
ion type=[M]+*
computed spectral entropy=2.44237288032403
computed normalized entropy=0.7496318331338303
SPLASH=splash10-052f-9000000000-9b1218f22dfda21077ab
submitter=submitter = University of Tokyo Team (Faculty of Engineering, University of Tokyo)
MoNA Rating=3.75

>  <NUM PEAKS>  (3574) 
26

>  <MASS SPECTRAL PEAKS>  (3574) 
15 2.65
27 5.95
29 7.76
31 13.83
39 6.2
41 12.27
42 9.99
43 99.99
44 2.78
45 2.01
53 1.99
55 28.51
56 1.69
57 3.63
58 6.4
59 76.11
60 1.83
67 1.82
69 6.35
70 46.1
71 5.4
77 1.3
95 11.23
111 1.92
113 27.02
114 1.53

$$$$

     RDKit          2D

  6  5  0  0  0  0  0  0  0  0999 V2000
   -1.9486    3.3750    0.0000 C   0  0  0  0  0  0  0  0  0  0  0  0
   -0.6495    2.6250    0.0000 C   0  0  0  0  0  0  0  0  0  0  0  0
   -3.2476    2.6250    0.0000 C   0  0  0  0  0  0  0  0  0  0  0  0
    0.6495    3.3750    0.0000 C   0  0  0  0  0  0  0  0  0  0  0  0
   -4.5466    3.3750    0.0000 O   0  0  0  0  0  0  0  0  0  0  0  0
    1.9486    2.6250    0.0000 O   0  0  0  0  0  0  0  0  0  0  0  0
  2  1  1  0
  3  1  1  0
  4  2  1  0
  5  3  1  0
  6  4  1  0
M  END
>  <NAME>  (3575) 
1,4-BUTANEDIOL

>  <SYNONYMS>  (3575) 


>  <SPECTRUM TYPE>  (3575) 
MS1

>  <INSTRUMENT TYPE>  (3575) 
EI-B

>  <INSTRUMENT>  (3575) 
HITACHI M-80B

>  <ION MODE>  (3575) 
P

>  <INCHIKEY>  (3575) 
WERYXYBDKMZEQL-UHFFFAOYSA-N

>  <FORMULA>  (3575) 
C4H10O2

>  <EXACT MASS>  (3575) 
90.06807956

>  <MW>  (3575) 
90

>  <ID>  (3575) 
JP007021

>  <CONTRIBUTOR>  (3575) 
University of Tokyo Team, {Faculty of Engineering, University of Tokyo

>  <COMMENT>  (3575) 
SMILES=OCCCCO
InChI=InChI=1S/C4H10O2/c5-3-1-2-4-6/h5-6H,1-4H2
computed SMILES=OCCCCO
accession=JP007021
date=2016.01.19 (Created 2008.10.21, modified 2011.05.06)
author=SODA AROMATIC CO., LTD.
license=CC BY-NC-SA
exact mass=90.06808
ionization energy=70 eV
ion type=[M]+*
computed spectral entropy=2.408679033003045
computed normalized entropy=0.748298214673028
SPLASH=splash10-0006-9000000000-e73d0286021e82006c29
submitter=submitter = University of Tokyo Team (Faculty of Engineering, University of Tokyo)
MoNA Rating=3.75

>  <NUM PEAKS>  (3575) 
25

>  <MASS SPECTRAL PEAKS>  (3575) 
15 2.72
19 2.27
26 2.79
27 22.64
28 5.99
29 22.53
30 1.88
31 97.35
32 1.46
38 1.08
39 13.08
40 6.52
41 39.77
42 99.99
43 20.35
44 86.52
45 5.4
53 1.81
54 1.01
55 1.89
57 21.84
60 3.28
62 2.23
71 23.05
72 7.31

$$$$

     RDKit          2D

 14 13  0  0  0  0  0  0  0  0999 V2000
    4.5466    7.1250    0.0000 C   0  0  0  0  0  0  0  0  0  0  0  0
    3.2476    7.8750    0.0000 C   0  0  0  0  0  0  0  0  0  0  0  0
    1.9486    7.1250    0.0000 C   0  0  0  0  0  0  0  0  0  0  0  0
    0.6495    7.8750    0.0000 C   0  0  0  0  0  0  0  0  0  0  0  0
   -0.6495    7.1250    0.0000 C   0  0  0  0  0  0  0  0  0  0  0  0
   -1.9486    7.8750    0.0000 C   0  0  0  0  0  0  0  0  0  0  0  0
   -3.2476    7.1250    0.0000 C   0  0  0  0  0  0  0  0  0  0  0  0
   -4.5466    7.8750    0.0000 C   0  0  0  0  0  0  0  0  0  0  0  0
   -5.8457    7.1250    0.0000 C   0  0  0  0  0  0  0  0  0  0  0  0
   -7.1447    7.8750    0.0000 C   0  0  0  0  0  0  0  0  0  0  0  0
   -8.4437    7.1250    0.0000 C   0  0  0  0  0  0  0  0  0  0  0  0
   -9.7428    7.8750    0.0000 C   0  0  0  0  0  0  0  0  0  0  0  0
  -11.0418    7.1250    0.0000 C   0  0  0  0  0  0  0  0  0  0  0  0
  -12.3409    7.8750    0.0000 O   0  0  0  0  0  0  0  0  0  0  0  0
  2  1  1  0
  3  2  1  0
  4  3  1  0
  5  4  1  0
  6  5  1  0
  7  6  1  0
  8  7  1  0
  9  8  1  0
 10  9  1  0
 11 10  1  0
 12 11  1  0
 13 12  1  0
 14 13  1  0
M  END
>  <NAME>  (3576) 
TRIDECANOL

>  <SYNONYMS>  (3576) 


>  <SPECTRUM TYPE>  (3576) 
MS1

>  <INSTRUMENT TYPE>  (3576) 
EI-B

>  <INSTRUMENT>  (3576) 
HITACHI M-80B

>  <ION MODE>  (3576) 
P

>  <INCHIKEY>  (3576) 
XFRVVPUIAFSTFO-UHFFFAOYSA-N

>  <FORMULA>  (3576) 
C13H28O

>  <EXACT MASS>  (3576) 
200.21401551600002

>  <MW>  (3576) 
200

>  <ID>  (3576) 
JP007020

>  <CONTRIBUTOR>  (3576) 
University of Tokyo Team, {Faculty of Engineering, University of Tokyo

>  <COMMENT>  (3576) 
SMILES=CCCCCCCCCCCCCO
InChI=InChI=1S/C13H28O/c1-2-3-4-5-6-7-8-9-10-11-12-13-14/h14H,2-13H2,1H3
computed SMILES=OCCCCCCCCCCCCC
accession=JP007020
date=2016.01.19 (Created 2008.10.21, modified 2011.05.06)
author=SODA AROMATIC CO., LTD.
license=CC BY-NC-SA
exact mass=200.21402
ionization energy=70 eV
ion type=[M]+*
computed spectral entropy=3.1229141073606024
computed normalized entropy=0.8585127527523647
SPLASH=splash10-0a4l-9000000000-31719e7c569e2c37eeac
submitter=submitter = University of Tokyo Team (Faculty of Engineering, University of Tokyo)
MoNA Rating=3.75

>  <NUM PEAKS>  (3576) 
38

>  <MASS SPECTRAL PEAKS>  (3576) 
17 1.39
27 20.01
29 36.47
31 32.41
39 13.88
40 1.36
41 84.8
42 25.74
43 99.99
44 5.78
45 1.75
53 5.7
54 10.6
55 96.79
56 61.27
57 64.2
58 2.47
67 11.53
68 27.96
69 75.12
70 54.53
71 19.58
81 3.66
82 26.06
83 63.32
84 31.47
85 9.98
95 1.25
96 6.25
97 37.3
98 16.61
110 2.95
111 16.87
112 9.99
125 6.73
126 5.3
139 1.07
154 6.94

$$$$

     RDKit          2D

 11 10  0  0  0  0  0  0  0  0999 V2000
   -8.4437    5.6250    0.0000 C   0  0  0  0  0  0  0  0  0  0  0  0
    3.2476    4.8750    0.0000 C   0  0  0  0  0  0  0  0  0  0  0  0
   -7.1447    4.8750    0.0000 C   0  0  0  0  0  0  0  0  0  0  0  0
    1.9486    5.6250    0.0000 C   0  0  0  0  0  0  0  0  0  0  0  0
   -5.8457    5.6250    0.0000 C   0  0  0  0  0  0  0  0  0  0  0  0
   -4.5466    4.8750    0.0000 C   0  0  0  0  0  0  0  0  0  0  0  0
   -3.2476    5.6250    0.0000 C   0  0  0  0  0  0  0  0  0  0  0  0
    0.6495    4.8750    0.0000 C   0  0  0  0  0  0  0  0  0  0  0  0
   -1.9486    4.8750    0.0000 C   0  0  0  0  0  0  0  0  0  0  0  0
   -0.6495    5.6250    0.0000 C   0  0  0  0  0  0  0  0  0  0  0  0
   -0.6495    7.1250    0.0000 O   0  0  0  0  0  0  0  0  0  0  0  0
  3  1  1  0
  4  2  1  0
  5  3  1  0
  6  5  1  0
  7  6  1  0
  8  4  1  0
  9  7  1  0
 10  8  1  0
 10  9  1  0
 11 10  1  0
M  END
>  <NAME>  (3577) 
4-DECANOL

>  <SYNONYMS>  (3577) 


>  <SPECTRUM TYPE>  (3577) 
MS1

>  <INSTRUMENT TYPE>  (3577) 
EI-B

>  <INSTRUMENT>  (3577) 
HITACHI M-80B

>  <ION MODE>  (3577) 
P

>  <INCHIKEY>  (3577) 
DTDMYWXTWWFLGJ-UHFFFAOYSA-N

>  <FORMULA>  (3577) 
C10H22O

>  <EXACT MASS>  (3577) 
158.167065324

>  <MW>  (3577) 
158

>  <ID>  (3577) 
JP007019

>  <CONTRIBUTOR>  (3577) 
University of Tokyo Team, {Faculty of Engineering, University of Tokyo

>  <COMMENT>  (3577) 
SMILES=CCCCCCC(O)CCC
InChI=InChI=1S/C10H22O/c1-3-5-6-7-9-10(11)8-4-2/h10-11H,3-9H2,1-2H3
computed SMILES=OC(CCC)CCCCCC
accession=JP007019
date=2016.01.19 (Created 2008.10.21, modified 2011.05.06)
author=SODA AROMATIC CO., LTD.
license=CC BY-NC-SA
exact mass=158.16707
ionization energy=70 eV
ion type=[M]+*
computed spectral entropy=2.4734424637530052
computed normalized entropy=0.7782884103892611
SPLASH=splash10-0abc-9000000000-72cfd58a734ffbf87741
submitter=submitter = University of Tokyo Team (Faculty of Engineering, University of Tokyo)
MoNA Rating=3.75

>  <NUM PEAKS>  (3577) 
24

>  <MASS SPECTRAL PEAKS>  (3577) 
27 11.97
29 13.61
31 7.79
39 5.99
41 21.16
42 3.53
43 28.84
44 5.84
45 2.57
53 1.27
55 99.99
56 7
57 8
58 1.54
69 10.21
70 2.81
71 1.94
72 5.83
73 55.9
74 2.25
97 41.86
98 2.7
115 16.75
140 2.14

$$$$

     RDKit          2D

 11 10  0  0  0  0  0  0  0  0999 V2000
   -8.4437    5.6250    0.0000 C   0  0  0  0  0  0  0  0  0  0  0  0
    3.2476    4.8750    0.0000 C   0  0  0  0  0  0  0  0  0  0  0  0
   -7.1447    4.8750    0.0000 C   0  0  0  0  0  0  0  0  0  0  0  0
    1.9486    5.6250    0.0000 C   0  0  0  0  0  0  0  0  0  0  0  0
   -5.8457    5.6250    0.0000 C   0  0  0  0  0  0  0  0  0  0  0  0
   -4.5466    4.8750    0.0000 C   0  0  0  0  0  0  0  0  0  0  0  0
   -3.2476    5.6250    0.0000 C   0  0  0  0  0  0  0  0  0  0  0  0
   -1.9486    4.8750    0.0000 C   0  0  0  0  0  0  0  0  0  0  0  0
   -0.6495    5.6250    0.0000 C   0  0  0  0  0  0  0  0  0  0  0  0
    0.6495    4.8750    0.0000 C   0  0  0  0  0  0  0  0  0  0  0  0
    0.6495    3.3750    0.0000 O   0  0  0  0  0  0  0  0  0  0  0  0
  3  1  1  0
  4  2  1  0
  5  3  1  0
  6  5  1  0
  7  6  1  0
  8  7  1  0
  9  8  1  0
 10  4  1  0
 10  9  1  0
 11 10  1  0
M  END
>  <NAME>  (3578) 
3-DECANOL

>  <SYNONYMS>  (3578) 


>  <SPECTRUM TYPE>  (3578) 
MS1

>  <INSTRUMENT TYPE>  (3578) 
EI-B

>  <INSTRUMENT>  (3578) 
HITACHI M-80B

>  <ION MODE>  (3578) 
P

>  <INCHIKEY>  (3578) 
ICEQLCZWZXUUIJ-UHFFFAOYSA-N

>  <FORMULA>  (3578) 
C10H22O

>  <EXACT MASS>  (3578) 
158.167065324

>  <MW>  (3578) 
158

>  <ID>  (3578) 
JP007018

>  <CONTRIBUTOR>  (3578) 
University of Tokyo Team, {Faculty of Engineering, University of Tokyo

>  <COMMENT>  (3578) 
SMILES=CCCCCCCC(O)CC
InChI=InChI=1S/C10H22O/c1-3-5-6-7-8-9-10(11)4-2/h10-11H,3-9H2,1-2H3
computed SMILES=OC(CC)CCCCCCC
accession=JP007018
author=SODA AROMATIC CO., LTD.
date=2016.01.19 (Created 2008.10.21, modified 2011.05.06)
license=CC BY-NC-SA
exact mass=158.16707
ionization energy=70 eV
ion type=[M]+*
computed spectral entropy=2.6356790483047883
computed normalized entropy=0.7604962184728521
SPLASH=splash10-0a4i-9000000000-3b5fbb368c5a3ae8d657
submitter=submitter = University of Tokyo Team (Faculty of Engineering, University of Tokyo)
MoNA Rating=3.75

>  <NUM PEAKS>  (3578) 
32

>  <MASS SPECTRAL PEAKS>  (3578) 
27 11.57
29 16.88
31 16.07
39 4.9
41 30.43
42 4.9
43 18.26
44 2.79
45 1.42
53 1.34
54 1.02
55 33.17
56 5.19
57 15.39
58 10.49
59 99.99
60 2.75
67 1.48
69 71.19
70 5.23
71 1.56
72 1.22
83 5.21
84 1.86
85 1.26
97 1.41
98 1.1
111 15.88
112 1.9
129 19.07
130 1.6
140 2.01

$$$$

     RDKit          2D

 11 10  0  0  0  0  0  0  0  0999 V2000
    2.9228    5.4375    0.0000 C   0  0  0  0  0  0  0  0  0  0  0  0
   -8.7685    6.1875    0.0000 C   0  0  0  0  0  0  0  0  0  0  0  0
    1.6238    6.1875    0.0000 C   0  0  0  0  0  0  0  0  0  0  0  0
    0.3248    5.4375    0.0000 C   0  0  0  0  0  0  0  0  0  0  0  0
   -0.9743    6.1875    0.0000 C   0  0  0  0  0  0  0  0  0  0  0  0
   -2.2733    5.4375    0.0000 C   0  0  0  0  0  0  0  0  0  0  0  0
   -3.5724    6.1875    0.0000 C   0  0  0  0  0  0  0  0  0  0  0  0
   -4.8714    5.4375    0.0000 C   0  0  0  0  0  0  0  0  0  0  0  0
   -6.1704    6.1875    0.0000 C   0  0  0  0  0  0  0  0  0  0  0  0
   -7.4695    5.4375    0.0000 C   0  0  0  0  0  0  0  0  0  0  0  0
   -7.4695    3.9375    0.0000 O   0  0  0  0  0  0  0  0  0  0  0  0
  3  1  1  0
  4  3  1  0
  5  4  1  0
  6  5  1  0
  7  6  1  0
  8  7  1  0
  9  8  1  0
 10  2  1  0
 10  9  1  0
 11 10  1  0
M  END
>  <NAME>  (3579) 
2-DECANOL

>  <SYNONYMS>  (3579) 


>  <SPECTRUM TYPE>  (3579) 
MS1

>  <INSTRUMENT TYPE>  (3579) 
EI-B

>  <INSTRUMENT>  (3579) 
HITACHI M-80B

>  <ION MODE>  (3579) 
P

>  <INCHIKEY>  (3579) 
ACUZDYFTRHEKOS-UHFFFAOYSA-N

>  <FORMULA>  (3579) 
C10H22O

>  <EXACT MASS>  (3579) 
158.167065324

>  <MW>  (3579) 
158

>  <ID>  (3579) 
JP007017

>  <CONTRIBUTOR>  (3579) 
University of Tokyo Team, {Faculty of Engineering, University of Tokyo

>  <COMMENT>  (3579) 
SMILES=CCCCCCCCC(C)O
InChI=InChI=1S/C10H22O/c1-3-4-5-6-7-8-9-10(2)11/h10-11H,3-9H2,1-2H3
computed SMILES=OC(C)CCCCCCCC
accession=JP007017
date=2016.01.19 (Created 2008.10.21, modified 2011.05.06)
author=SODA AROMATIC CO., LTD.
license=CC BY-NC-SA
exact mass=158.16707
ionization energy=70 eV
ion type=[M]+*
computed spectral entropy=2.560684607278989
computed normalized entropy=0.7604572738978134
SPLASH=splash10-0002-9000000000-9a5d43440a4c24aeead0
submitter=submitter = University of Tokyo Team (Faculty of Engineering, University of Tokyo)
MoNA Rating=3.75

>  <NUM PEAKS>  (3579) 
29

>  <MASS SPECTRAL PEAKS>  (3579) 
27 7.22
29 9.99
31 1.11
39 4.27
41 18.39
42 5.41
43 16.74
44 6.43
45 99.99
46 2.02
54 1.09
55 14.91
56 9.59
57 9.74
58 1.59
67 1.07
69 15.71
70 7.47
71 4.85
82 1.18
83 8.84
84 4.41
85 2.83
97 3.23
98 2.38
111 2.18
112 4.51
140 1.83
143 1.96

$$$$

     RDKit          2D

 18 17  0  0  0  0  0  0  0  0999 V2000
  -15.5885    9.0000    0.0000 C   0  0  0  0  0  0  0  0  0  0  0  0
    5.1962    9.0000    0.0000 C   0  0  0  0  0  0  0  0  0  0  0  0
  -14.2894    8.2500    0.0000 C   0  0  0  0  0  0  0  0  0  0  0  0
    3.8971    8.2500    0.0000 C   0  0  0  0  0  0  0  0  0  0  0  0
  -12.9904    9.0000    0.0000 C   0  0  0  0  0  0  0  0  0  0  0  0
    2.5981    9.0000    0.0000 C   0  0  0  0  0  0  0  0  0  0  0  0
  -11.6913    8.2500    0.0000 C   0  0  0  0  0  0  0  0  0  0  0  0
    1.2990    8.2500    0.0000 C   0  0  0  0  0  0  0  0  0  0  0  0
  -10.3923    9.0000    0.0000 C   0  0  0  0  0  0  0  0  0  0  0  0
   -9.0933    8.2500    0.0000 C   0  0  0  0  0  0  0  0  0  0  0  0
    0.0000    9.0000    0.0000 C   0  0  0  0  0  0  0  0  0  0  0  0
   -7.7942    9.0000    0.0000 C   0  0  0  0  0  0  0  0  0  0  0  0
   -1.2990    8.2500    0.0000 C   0  0  0  0  0  0  0  0  0  0  0  0
   -6.4952    8.2500    0.0000 C   0  0  0  0  0  0  0  0  0  0  0  0
   -2.5981    9.0000    0.0000 C   0  0  0  0  0  0  0  0  0  0  0  0
   -5.1962    9.0000    0.0000 C   0  0  0  0  0  0  0  0  0  0  0  0
   -5.1962   10.5000    0.0000 O   0  0  0  0  0  0  0  0  0  0  0  0
   -3.8971    8.2500    0.0000 O   0  0  0  0  0  0  0  0  0  0  0  0
  3  1  1  0
  4  2  1  0
  5  3  1  0
  6  4  1  0
  7  5  1  0
  8  6  1  0
  9  7  1  0
 10  9  1  0
 11  8  1  0
 12 10  1  0
 13 11  1  0
 14 12  1  0
 15 13  1  0
 16 14  1  0
 17 16  2  0
 18 15  1  0
 18 16  1  0
M  END
>  <NAME>  (3580) 
HEPTYL NONANOATE

>  <SYNONYMS>  (3580) 


>  <SPECTRUM TYPE>  (3580) 
MS1

>  <INSTRUMENT TYPE>  (3580) 
EI-B

>  <INSTRUMENT>  (3580) 
HITACHI M-80B

>  <ION MODE>  (3580) 
P

>  <INCHIKEY>  (3580) 
ARSLOAKOWGOSEX-UHFFFAOYSA-N

>  <FORMULA>  (3580) 
C16H32O2

>  <EXACT MASS>  (3580) 
256.240230264

>  <MW>  (3580) 
256

>  <ID>  (3580) 
JP007016

>  <CONTRIBUTOR>  (3580) 
University of Tokyo Team, {Faculty of Engineering, University of Tokyo

>  <COMMENT>  (3580) 
SMILES=CCCCCCCCC(=O)OCCCCCCC
InChI=InChI=1S/C16H32O2/c1-3-5-7-9-10-12-14-16(17)18-15-13-11-8-6-4-2/h3-15H2,1-2H3
computed SMILES=O=C(OCCCCCCC)CCCCCCCC
accession=JP007016
date=2016.01.19 (Created 2008.10.21, modified 2011.05.06)
author=SODA AROMATIC CO., LTD.
license=CC BY-NC-SA
exact mass=256.24023
ionization energy=70 eV
ion type=[M]+*
computed spectral entropy=3.2014810583250948
computed normalized entropy=0.8102464151400127
SPLASH=splash10-0a4l-9100000000-cc9f1c2e7e45adbb7aa9
submitter=submitter = University of Tokyo Team (Faculty of Engineering, University of Tokyo)
MoNA Rating=3.75

>  <NUM PEAKS>  (3580) 
52

>  <MASS SPECTRAL PEAKS>  (3580) 
27 14.94
29 31.96
31 1.23
39 8.88
41 60.61
42 19.57
43 68.83
44 1.53
45 1.68
53 2.62
54 4.62
55 47.02
56 52.95
57 99.99
58 4
59 1.46
60 14.78
61 35.41
67 3.88
68 10.44
69 31.83
70 47.97
71 21.9
72 1.12
73 18.03
74 1.55
81 3.64
82 1.49
83 10.95
84 5.27
85 1.61
87 4.2
89 2.66
96 1.98
97 5.5
98 72.64
99 5.13
101 3.14
103 1.93
112 2.8
115 6.36
116 1.75
127 1.31
129 4.87
139 1.11
141 32.45
142 2.36
143 1.76
145 2.59
158 6.15
159 67.19
160 5.19

$$$$

     RDKit          2D

 17 16  0  0  0  0  0  0  0  0999 V2000
    5.1962    8.2500    0.0000 C   0  0  0  0  0  0  0  0  0  0  0  0
  -14.2894    9.0000    0.0000 C   0  0  0  0  0  0  0  0  0  0  0  0
    3.8971    9.0000    0.0000 C   0  0  0  0  0  0  0  0  0  0  0  0
  -12.9904    8.2500    0.0000 C   0  0  0  0  0  0  0  0  0  0  0  0
    2.5981    8.2500    0.0000 C   0  0  0  0  0  0  0  0  0  0  0  0
  -11.6913    9.0000    0.0000 C   0  0  0  0  0  0  0  0  0  0  0  0
    1.2990    9.0000    0.0000 C   0  0  0  0  0  0  0  0  0  0  0  0
  -10.3923    8.2500    0.0000 C   0  0  0  0  0  0  0  0  0  0  0  0
    0.0000    8.2500    0.0000 C   0  0  0  0  0  0  0  0  0  0  0  0
   -1.2990    9.0000    0.0000 C   0  0  0  0  0  0  0  0  0  0  0  0
   -2.5981    8.2500    0.0000 C   0  0  0  0  0  0  0  0  0  0  0  0
   -9.0933    9.0000    0.0000 C   0  0  0  0  0  0  0  0  0  0  0  0
   -3.8971    9.0000    0.0000 C   0  0  0  0  0  0  0  0  0  0  0  0
   -7.7942    8.2500    0.0000 C   0  0  0  0  0  0  0  0  0  0  0  0
   -5.1962    8.2500    0.0000 C   0  0  0  0  0  0  0  0  0  0  0  0
   -5.1962    6.7500    0.0000 O   0  0  0  0  0  0  0  0  0  0  0  0
   -6.4952    9.0000    0.0000 O   0  0  0  0  0  0  0  0  0  0  0  0
  3  1  1  0
  4  2  1  0
  5  3  1  0
  6  4  1  0
  7  5  1  0
  8  6  1  0
  9  7  1  0
 10  9  1  0
 11 10  1  0
 12  8  1  0
 13 11  1  0
 14 12  1  0
 15 13  1  0
 16 15  2  0
 17 14  1  0
 17 15  1  0
M  END
>  <NAME>  (3581) 
HEXYL NONANOATE

>  <SYNONYMS>  (3581) 


>  <SPECTRUM TYPE>  (3581) 
MS1

>  <INSTRUMENT TYPE>  (3581) 
EI-B

>  <INSTRUMENT>  (3581) 
HITACHI M-80B

>  <ION MODE>  (3581) 
P

>  <INCHIKEY>  (3581) 
GPHBCFMWKGZPRP-UHFFFAOYSA-N

>  <FORMULA>  (3581) 
C15H30O2

>  <EXACT MASS>  (3581) 
242.2245802

>  <MW>  (3581) 
242

>  <ID>  (3581) 
JP007015

>  <CONTRIBUTOR>  (3581) 
University of Tokyo Team, {Faculty of Engineering, University of Tokyo

>  <COMMENT>  (3581) 
SMILES=CCCCCCCCC(=O)OCCCCCC
InChI=InChI=1S/C15H30O2/c1-3-5-7-9-10-11-13-15(16)17-14-12-8-6-4-2/h3-14H2,1-2H3
computed SMILES=O=C(OCCCCCC)CCCCCCCC
accession=JP007015
date=2016.01.19 (Created 2008.10.21, modified 2011.05.06)
author=SODA AROMATIC CO., LTD.
license=CC BY-NC-SA
exact mass=242.22458
ionization energy=70 eV
ion type=[M]+*
computed spectral entropy=3.1628385666445173
computed normalized entropy=0.7928932604703398
SPLASH=splash10-0a4l-9200000000-060881b784558ff6aba0
submitter=submitter = University of Tokyo Team (Faculty of Engineering, University of Tokyo)
MoNA Rating=3.75

>  <NUM PEAKS>  (3581) 
54

>  <MASS SPECTRAL PEAKS>  (3581) 
27 15.34
29 24.48
31 1.06
39 7.39
41 51.55
42 23.43
43 99.99
44 2.01
45 1.6
53 2.2
54 3.23
55 42.73
56 53
57 42.66
58 1.87
59 1.21
60 16.66
61 34.55
67 3.78
68 2.96
69 24.6
70 4.19
71 17.89
72 1.14
73 19.55
74 1.95
81 3.37
82 1.35
83 5.44
84 86.9
85 16.32
87 4.57
89 2.7
96 1.68
97 3.51
98 3.78
99 1.22
101 2.45
103 1.71
112 1.88
113 1.32
115 5.85
129 6.34
131 1.97
139 1.09
141 36.21
142 3.01
144 1.7
145 1.86
157 1.63
158 5.86
159 67.47
160 5.68
242 1

$$$$

     RDKit          2D

 16 15  0  0  0  0  0  0  0  0999 V2000
    4.2219    7.6875    0.0000 C   0  0  0  0  0  0  0  0  0  0  0  0
  -12.6656    8.4375    0.0000 C   0  0  0  0  0  0  0  0  0  0  0  0
  -11.3666    6.1875    0.0000 C   0  0  0  0  0  0  0  0  0  0  0  0
    2.9228    8.4375    0.0000 C   0  0  0  0  0  0  0  0  0  0  0  0
    1.6238    7.6875    0.0000 C   0  0  0  0  0  0  0  0  0  0  0  0
    0.3248    8.4375    0.0000 C   0  0  0  0  0  0  0  0  0  0  0  0
   -0.9743    7.6875    0.0000 C   0  0  0  0  0  0  0  0  0  0  0  0
   -2.2733    8.4375    0.0000 C   0  0  0  0  0  0  0  0  0  0  0  0
   -3.5724    7.6875    0.0000 C   0  0  0  0  0  0  0  0  0  0  0  0
   -4.8714    8.4375    0.0000 C   0  0  0  0  0  0  0  0  0  0  0  0
  -10.0675    8.4375    0.0000 C   0  0  0  0  0  0  0  0  0  0  0  0
   -8.7685    7.6875    0.0000 C   0  0  0  0  0  0  0  0  0  0  0  0
  -11.3666    7.6875    0.0000 C   0  0  0  0  0  0  0  0  0  0  0  0
   -6.1704    7.6875    0.0000 C   0  0  0  0  0  0  0  0  0  0  0  0
   -6.1704    6.1875    0.0000 O   0  0  0  0  0  0  0  0  0  0  0  0
   -7.4695    8.4375    0.0000 O   0  0  0  0  0  0  0  0  0  0  0  0
  4  1  1  0
  5  4  1  0
  6  5  1  0
  7  6  1  0
  8  7  1  0
  9  8  1  0
 10  9  1  0
 12 11  1  0
 13  2  1  0
 13  3  1  0
 13 11  1  0
 14 10  1  0
 15 14  2  0
 16 12  1  0
 16 14  1  0
M  END
>  <NAME>  (3582) 
ISOPENTYL NONANOATE

>  <SYNONYMS>  (3582) 


>  <SPECTRUM TYPE>  (3582) 
MS1

>  <INSTRUMENT TYPE>  (3582) 
EI-B

>  <INSTRUMENT>  (3582) 
HITACHI M-80B

>  <ION MODE>  (3582) 
P

>  <INCHIKEY>  (3582) 
SHGMLOSSRPFLKG-UHFFFAOYSA-N

>  <FORMULA>  (3582) 
C14H28O2

>  <EXACT MASS>  (3582) 
228.208930136

>  <MW>  (3582) 
228

>  <ID>  (3582) 
JP007014

>  <CONTRIBUTOR>  (3582) 
University of Tokyo Team, {Faculty of Engineering, University of Tokyo

>  <COMMENT>  (3582) 
SMILES=CCCCCCCCC(=O)OCCC(C)C
InChI=InChI=1S/C14H28O2/c1-4-5-6-7-8-9-10-14(15)16-12-11-13(2)3/h13H,4-12H2,1-3H3
computed SMILES=O=C(OCCC(C)C)CCCCCCCC
accession=JP007014
date=2016.01.19 (Created 2008.10.21, modified 2011.05.06)
author=SODA AROMATIC CO., LTD.
license=CC BY-NC-SA
exact mass=228.20893
ionization energy=70 eV
ion type=[M]+*
computed spectral entropy=2.558297702951999
computed normalized entropy=0.7254782048215179
SPLASH=splash10-00dl-9100000000-eb57ad7d23fb9c3af2c8
submitter=submitter = University of Tokyo Team (Faculty of Engineering, University of Tokyo)
MoNA Rating=3.75

>  <NUM PEAKS>  (3582) 
34

>  <MASS SPECTRAL PEAKS>  (3582) 
27 6.11
29 10.03
39 3.56
41 20.46
42 8
43 40.37
45 1.08
53 1.11
54 1.16
55 22.1
56 2.89
57 16.08
60 4.03
61 1.38
67 1.25
68 1.01
69 4.16
70 99.99
71 37.8
72 1.92
73 3.67
81 1.49
83 1.22
84 1.59
87 1.51
97 1.37
98 1.25
115 2.89
129 1.6
130 1.25
141 23.21
142 1.96
158 2.36
159 5.15

$$$$

     RDKit          2D

 16 15  0  0  0  0  0  0  0  0999 V2000
    4.5466    7.8750    0.0000 C   0  0  0  0  0  0  0  0  0  0  0  0
  -13.6399    7.8750    0.0000 C   0  0  0  0  0  0  0  0  0  0  0  0
    3.2476    8.6250    0.0000 C   0  0  0  0  0  0  0  0  0  0  0  0
  -12.3409    8.6250    0.0000 C   0  0  0  0  0  0  0  0  0  0  0  0
    1.9486    7.8750    0.0000 C   0  0  0  0  0  0  0  0  0  0  0  0
  -11.0418    7.8750    0.0000 C   0  0  0  0  0  0  0  0  0  0  0  0
    0.6495    8.6250    0.0000 C   0  0  0  0  0  0  0  0  0  0  0  0
   -0.6495    7.8750    0.0000 C   0  0  0  0  0  0  0  0  0  0  0  0
   -1.9486    8.6250    0.0000 C   0  0  0  0  0  0  0  0  0  0  0  0
   -3.2476    7.8750    0.0000 C   0  0  0  0  0  0  0  0  0  0  0  0
   -9.7428    8.6250    0.0000 C   0  0  0  0  0  0  0  0  0  0  0  0
   -4.5466    8.6250    0.0000 C   0  0  0  0  0  0  0  0  0  0  0  0
   -8.4437    7.8750    0.0000 C   0  0  0  0  0  0  0  0  0  0  0  0
   -5.8457    7.8750    0.0000 C   0  0  0  0  0  0  0  0  0  0  0  0
   -5.8457    6.3750    0.0000 O   0  0  0  0  0  0  0  0  0  0  0  0
   -7.1447    8.6250    0.0000 O   0  0  0  0  0  0  0  0  0  0  0  0
  3  1  1  0
  4  2  1  0
  5  3  1  0
  6  4  1  0
  7  5  1  0
  8  7  1  0
  9  8  1  0
 10  9  1  0
 11  6  1  0
 12 10  1  0
 13 11  1  0
 14 12  1  0
 15 14  2  0
 16 13  1  0
 16 14  1  0
M  END
>  <NAME>  (3583) 
PENTYL NONANOATE

>  <SYNONYMS>  (3583) 


>  <SPECTRUM TYPE>  (3583) 
MS1

>  <INSTRUMENT TYPE>  (3583) 
EI-B

>  <INSTRUMENT>  (3583) 
HITACHI M-80B

>  <ION MODE>  (3583) 
P

>  <INCHIKEY>  (3583) 
DZOQJRHASSOUOU-UHFFFAOYSA-N

>  <FORMULA>  (3583) 
C14H28O2

>  <EXACT MASS>  (3583) 
228.208930136

>  <MW>  (3583) 
228

>  <ID>  (3583) 
JP007013

>  <CONTRIBUTOR>  (3583) 
University of Tokyo Team, {Faculty of Engineering, University of Tokyo

>  <COMMENT>  (3583) 
SMILES=CCCCCCCCC(=O)OCCCCC
InChI=InChI=1S/C14H28O2/c1-3-5-7-8-9-10-12-14(15)16-13-11-6-4-2/h3-13H2,1-2H3
computed SMILES=O=C(OCCCCC)CCCCCCCC
accession=JP007013
date=2016.01.19 (Created 2008.10.21, modified 2011.05.06)
author=SODA AROMATIC CO., LTD.
license=CC BY-NC-SA
exact mass=228.20893
ionization energy=70 eV
ion type=[M]+*
computed spectral entropy=3.0949070917147377
computed normalized entropy=0.7952338121102949
SPLASH=splash10-0596-9200000000-3c2051d8b43616956b01
submitter=submitter = University of Tokyo Team (Faculty of Engineering, University of Tokyo)
MoNA Rating=3.75

>  <NUM PEAKS>  (3583) 
49

>  <MASS SPECTRAL PEAKS>  (3583) 
27 15.14
29 26.09
31 2.1
39 8.27
41 44.19
42 26
43 67.09
44 2.08
45 1.81
53 2.23
54 1.78
55 36.27
56 5.71
57 27.83
58 1.48
59 1.2
60 18.63
61 15.09
67 2.64
68 2.29
69 12.78
70 99.99
71 31.58
72 1.38
73 18.19
74 1.64
81 2.78
83 3.31
84 2.66
85 1.18
87 4.27
89 2.82
96 1.35
97 3.26
98 2.37
101 2.12
102 1.99
103 1.97
112 1.18
115 10.02
129 4.99
130 4.44
139 1.09
141 34.86
142 2.98
143 1.78
158 4.57
159 61.22
160 5.61

$$$$

     RDKit          2D

 15 14  0  0  0  0  0  0  0  0999 V2000
    3.8971    6.7500    0.0000 C   0  0  0  0  0  0  0  0  0  0  0  0
  -11.6913    6.7500    0.0000 C   0  0  0  0  0  0  0  0  0  0  0  0
  -10.3923    9.0000    0.0000 C   0  0  0  0  0  0  0  0  0  0  0  0
    2.5981    7.5000    0.0000 C   0  0  0  0  0  0  0  0  0  0  0  0
    1.2990    6.7500    0.0000 C   0  0  0  0  0  0  0  0  0  0  0  0
    0.0000    7.5000    0.0000 C   0  0  0  0  0  0  0  0  0  0  0  0
   -1.2990    6.7500    0.0000 C   0  0  0  0  0  0  0  0  0  0  0  0
   -2.5981    7.5000    0.0000 C   0  0  0  0  0  0  0  0  0  0  0  0
   -3.8971    6.7500    0.0000 C   0  0  0  0  0  0  0  0  0  0  0  0
   -5.1962    7.5000    0.0000 C   0  0  0  0  0  0  0  0  0  0  0  0
   -9.0933    6.7500    0.0000 C   0  0  0  0  0  0  0  0  0  0  0  0
  -10.3923    7.5000    0.0000 C   0  0  0  0  0  0  0  0  0  0  0  0
   -6.4952    6.7500    0.0000 C   0  0  0  0  0  0  0  0  0  0  0  0
   -6.4952    5.2500    0.0000 O   0  0  0  0  0  0  0  0  0  0  0  0
   -7.7942    7.5000    0.0000 O   0  0  0  0  0  0  0  0  0  0  0  0
  4  1  1  0
  5  4  1  0
  6  5  1  0
  7  6  1  0
  8  7  1  0
  9  8  1  0
 10  9  1  0
 12  2  1  0
 12  3  1  0
 12 11  1  0
 13 10  1  0
 14 13  2  0
 15 11  1  0
 15 13  1  0
M  END
>  <NAME>  (3584) 
ISOBUTYL NONANOATE

>  <SYNONYMS>  (3584) 


>  <SPECTRUM TYPE>  (3584) 
MS1

>  <INSTRUMENT TYPE>  (3584) 
EI-B

>  <INSTRUMENT>  (3584) 
HITACHI M-80B

>  <ION MODE>  (3584) 
P

>  <INCHIKEY>  (3584) 
NVVLMTNIHQHZPR-UHFFFAOYSA-N

>  <FORMULA>  (3584) 
C13H26O2

>  <EXACT MASS>  (3584) 
214.193280072

>  <MW>  (3584) 
214

>  <ID>  (3584) 
JP007012

>  <CONTRIBUTOR>  (3584) 
University of Tokyo Team, {Faculty of Engineering, University of Tokyo

>  <COMMENT>  (3584) 
SMILES=CCCCCCCCC(=O)OCC(C)C
InChI=InChI=1S/C13H26O2/c1-4-5-6-7-8-9-10-13(14)15-11-12(2)3/h12H,4-11H2,1-3H3
computed SMILES=O=C(OCC(C)C)CCCCCCCC
accession=JP007012
date=2016.01.19 (Created 2008.10.21, modified 2011.05.06)
author=SODA AROMATIC CO., LTD.
license=CC BY-NC-SA
exact mass=214.19328
ionization energy=70 eV
ion type=[M]+*
computed spectral entropy=2.9123981329690523
computed normalized entropy=0.7743268221270934
SPLASH=splash10-0a4l-9200000000-12fbf3c76127b2e85450
submitter=submitter = University of Tokyo Team (Faculty of Engineering, University of Tokyo)
MoNA Rating=3.75

>  <NUM PEAKS>  (3584) 
43

>  <MASS SPECTRAL PEAKS>  (3584) 
27 13.44
29 28.11
31 1.54
39 9.81
41 50.57
42 10.22
43 37.56
45 1.09
53 1.75
54 1.76
55 21.52
56 99.99
57 94.31
58 3.68
59 1.05
60 22.55
61 5.6
67 2.31
68 1.8
69 7.37
70 2.25
71 19.75
72 1.15
73 14.35
74 1.51
81 2.93
83 2.84
84 2.68
87 4.21
89 1.01
96 1.23
97 2.54
98 2.87
101 1.96
115 5.92
116 5.34
123 1.07
129 5.66
141 60.96
142 6.02
158 8.09
159 29.44
160 2.46

$$$$

     RDKit          2D

 15 14  0  0  0  0  0  0  0  0999 V2000
    4.5466    7.1250    0.0000 C   0  0  0  0  0  0  0  0  0  0  0  0
  -12.3409    7.8750    0.0000 C   0  0  0  0  0  0  0  0  0  0  0  0
    3.2476    7.8750    0.0000 C   0  0  0  0  0  0  0  0  0  0  0  0
  -11.0418    7.1250    0.0000 C   0  0  0  0  0  0  0  0  0  0  0  0
    1.9486    7.1250    0.0000 C   0  0  0  0  0  0  0  0  0  0  0  0
   -9.7428    7.8750    0.0000 C   0  0  0  0  0  0  0  0  0  0  0  0
    0.6495    7.8750    0.0000 C   0  0  0  0  0  0  0  0  0  0  0  0
   -0.6495    7.1250    0.0000 C   0  0  0  0  0  0  0  0  0  0  0  0
   -1.9486    7.8750    0.0000 C   0  0  0  0  0  0  0  0  0  0  0  0
   -3.2476    7.1250    0.0000 C   0  0  0  0  0  0  0  0  0  0  0  0
   -4.5466    7.8750    0.0000 C   0  0  0  0  0  0  0  0  0  0  0  0
   -8.4437    7.1250    0.0000 C   0  0  0  0  0  0  0  0  0  0  0  0
   -5.8457    7.1250    0.0000 C   0  0  0  0  0  0  0  0  0  0  0  0
   -5.8457    5.6250    0.0000 O   0  0  0  0  0  0  0  0  0  0  0  0
   -7.1447    7.8750    0.0000 O   0  0  0  0  0  0  0  0  0  0  0  0
  3  1  1  0
  4  2  1  0
  5  3  1  0
  6  4  1  0
  7  5  1  0
  8  7  1  0
  9  8  1  0
 10  9  1  0
 11 10  1  0
 12  6  1  0
 13 11  1  0
 14 13  2  0
 15 12  1  0
 15 13  1  0
M  END
>  <NAME>  (3585) 
BUTYL NONANOATE

>  <SYNONYMS>  (3585) 


>  <SPECTRUM TYPE>  (3585) 
MS1

>  <INSTRUMENT TYPE>  (3585) 
EI-B

>  <INSTRUMENT>  (3585) 
HITACHI M-80B

>  <ION MODE>  (3585) 
P

>  <INCHIKEY>  (3585) 
DOLFPCDDMUMIMR-UHFFFAOYSA-N

>  <FORMULA>  (3585) 
C13H26O2

>  <EXACT MASS>  (3585) 
214.193280072

>  <MW>  (3585) 
214

>  <ID>  (3585) 
JP007011

>  <CONTRIBUTOR>  (3585) 
University of Tokyo Team, {Faculty of Engineering, University of Tokyo

>  <COMMENT>  (3585) 
SMILES=CCCCCCCCC(=O)OCCCC
InChI=InChI=1S/C13H26O2/c1-3-5-7-8-9-10-11-13(14)15-12-6-4-2/h3-12H2,1-2H3
computed SMILES=O=C(OCCCC)CCCCCCCC
accession=JP007011
date=2016.01.19 (Created 2008.10.21, modified 2011.05.06)
author=SODA AROMATIC CO., LTD.
license=CC BY-NC-SA
exact mass=214.19328
ionization energy=70 eV
ion type=[M]+*
computed spectral entropy=3.0328999920090407
computed normalized entropy=0.8014661751685755
SPLASH=splash10-0a4l-9200000000-6e2ef76ad18f0e4054ab
submitter=submitter = University of Tokyo Team (Faculty of Engineering, University of Tokyo)
MoNA Rating=3.75

>  <NUM PEAKS>  (3585) 
44

>  <MASS SPECTRAL PEAKS>  (3585) 
27 14.43
29 30.6
31 1.38
39 8.81
41 47.72
42 8.81
43 29.81
45 1.53
53 1.86
54 1.68
55 23.74
56 99.99
57 52.42
58 2.18
60 27.12
61 11.74
67 2.18
68 1.84
69 8.94
70 2.28
71 15.52
72 1.03
73 22.01
74 2
81 2.61
83 3.53
84 3.17
87 4.12
89 2.12
96 1.43
97 3.1
98 2.24
101 4.57
103 1.67
112 1.02
115 5.94
116 6.33
117 1.5
129 8.54
141 37.65
142 3.3
158 3.48
159 50.07
160 4.47

$$$$

     RDKit          2D

 14 13  0  0  0  0  0  0  0  0999 V2000
    3.5724    6.5625    0.0000 C   0  0  0  0  0  0  0  0  0  0  0  0
  -10.7171    7.3125    0.0000 C   0  0  0  0  0  0  0  0  0  0  0  0
   -9.4180    5.0625    0.0000 C   0  0  0  0  0  0  0  0  0  0  0  0
    2.2733    7.3125    0.0000 C   0  0  0  0  0  0  0  0  0  0  0  0
    0.9743    6.5625    0.0000 C   0  0  0  0  0  0  0  0  0  0  0  0
   -0.3248    7.3125    0.0000 C   0  0  0  0  0  0  0  0  0  0  0  0
   -1.6238    6.5625    0.0000 C   0  0  0  0  0  0  0  0  0  0  0  0
   -2.9228    7.3125    0.0000 C   0  0  0  0  0  0  0  0  0  0  0  0
   -4.2219    6.5625    0.0000 C   0  0  0  0  0  0  0  0  0  0  0  0
   -5.5209    7.3125    0.0000 C   0  0  0  0  0  0  0  0  0  0  0  0
   -9.4180    6.5625    0.0000 C   0  0  0  0  0  0  0  0  0  0  0  0
   -6.8200    6.5625    0.0000 C   0  0  0  0  0  0  0  0  0  0  0  0
   -6.8200    5.0625    0.0000 O   0  0  0  0  0  0  0  0  0  0  0  0
   -8.1190    7.3125    0.0000 O   0  0  0  0  0  0  0  0  0  0  0  0
  4  1  1  0
  5  4  1  0
  6  5  1  0
  7  6  1  0
  8  7  1  0
  9  8  1  0
 10  9  1  0
 11  2  1  0
 11  3  1  0
 12 10  1  0
 13 12  2  0
 14 11  1  0
 14 12  1  0
M  END
>  <NAME>  (3586) 
ISOPROPYL NONANOATE

>  <SYNONYMS>  (3586) 


>  <SPECTRUM TYPE>  (3586) 
MS1

>  <INSTRUMENT TYPE>  (3586) 
EI-B

>  <INSTRUMENT>  (3586) 
HITACHI M-80B

>  <ION MODE>  (3586) 
P

>  <INCHIKEY>  (3586) 
DVFZGWDMFKTMFQ-UHFFFAOYSA-N

>  <FORMULA>  (3586) 
C12H24O2

>  <EXACT MASS>  (3586) 
200.177630008

>  <MW>  (3586) 
200

>  <ID>  (3586) 
JP007010

>  <CONTRIBUTOR>  (3586) 
University of Tokyo Team, {Faculty of Engineering, University of Tokyo

>  <COMMENT>  (3586) 
SMILES=CCCCCCCCC(=O)OC(C)C
InChI=InChI=1S/C12H24O2/c1-4-5-6-7-8-9-10-12(13)14-11(2)3/h11H,4-10H2,1-3H3
computed SMILES=O=C(OC(C)C)CCCCCCCC
accession=JP007010
date=2016.01.19 (Created 2008.10.21, modified 2011.05.06)
author=SODA AROMATIC CO., LTD.
license=CC BY-NC-SA
exact mass=200.17763
ionization energy=70 eV
ion type=[M]+*
computed spectral entropy=3.216540501848097
computed normalized entropy=0.8354330364943562
SPLASH=splash10-052f-9200000000-05bb49b0e2e228cd1e4f
submitter=submitter = University of Tokyo Team (Faculty of Engineering, University of Tokyo)
MoNA Rating=3.75

>  <NUM PEAKS>  (3586) 
47

>  <MASS SPECTRAL PEAKS>  (3586) 
15 1.06
27 21.95
29 21.05
31 1.12
39 11.87
41 52.22
42 18.58
43 99.99
44 2.8
45 4.58
53 1.87
54 2.07
55 25.02
56 9.09
57 41.34
58 1.7
59 23.44
60 62.17
61 11.45
67 2.59
68 2.41
69 11.54
70 4.35
71 17.5
73 24.31
74 2.54
81 3.07
83 4.95
84 4.62
87 6.86
89 1.58
96 1.82
97 4.64
98 10.06
99 2.02
101 2.74
102 37.07
103 3.32
112 1.26
115 10.7
129 9.02
139 1.5
141 37.17
142 3.17
158 19.01
159 28.32
160 2.31

$$$$

     RDKit          2D

 14 13  0  0  0  0  0  0  0  0999 V2000
    3.8971    6.7500    0.0000 C   0  0  0  0  0  0  0  0  0  0  0  0
  -11.6913    6.7500    0.0000 C   0  0  0  0  0  0  0  0  0  0  0  0
    2.5981    7.5000    0.0000 C   0  0  0  0  0  0  0  0  0  0  0  0
  -10.3923    7.5000    0.0000 C   0  0  0  0  0  0  0  0  0  0  0  0
    1.2990    6.7500    0.0000 C   0  0  0  0  0  0  0  0  0  0  0  0
    0.0000    7.5000    0.0000 C   0  0  0  0  0  0  0  0  0  0  0  0
   -1.2990    6.7500    0.0000 C   0  0  0  0  0  0  0  0  0  0  0  0
   -2.5981    7.5000    0.0000 C   0  0  0  0  0  0  0  0  0  0  0  0
   -3.8971    6.7500    0.0000 C   0  0  0  0  0  0  0  0  0  0  0  0
   -5.1962    7.5000    0.0000 C   0  0  0  0  0  0  0  0  0  0  0  0
   -9.0933    6.7500    0.0000 C   0  0  0  0  0  0  0  0  0  0  0  0
   -6.4952    6.7500    0.0000 C   0  0  0  0  0  0  0  0  0  0  0  0
   -6.4952    5.2500    0.0000 O   0  0  0  0  0  0  0  0  0  0  0  0
   -7.7942    7.5000    0.0000 O   0  0  0  0  0  0  0  0  0  0  0  0
  3  1  1  0
  4  2  1  0
  5  3  1  0
  6  5  1  0
  7  6  1  0
  8  7  1  0
  9  8  1  0
 10  9  1  0
 11  4  1  0
 12 10  1  0
 13 12  2  0
 14 11  1  0
 14 12  1  0
M  END
>  <NAME>  (3587) 
PROPYL NONANOATE

>  <SYNONYMS>  (3587) 


>  <SPECTRUM TYPE>  (3587) 
MS1

>  <INSTRUMENT TYPE>  (3587) 
EI-B

>  <INSTRUMENT>  (3587) 
HITACHI M-80B

>  <ION MODE>  (3587) 
P

>  <INCHIKEY>  (3587) 
HCMSDHYNNJTLRW-UHFFFAOYSA-N

>  <FORMULA>  (3587) 
C12H24O2

>  <EXACT MASS>  (3587) 
200.177630008

>  <MW>  (3587) 
200

>  <ID>  (3587) 
JP007009

>  <CONTRIBUTOR>  (3587) 
University of Tokyo Team, {Faculty of Engineering, University of Tokyo

>  <COMMENT>  (3587) 
SMILES=CCCCCCCCC(=O)OCCC
InChI=InChI=1S/C12H24O2/c1-3-5-6-7-8-9-10-12(13)14-11-4-2/h3-11H2,1-2H3
computed SMILES=O=C(OCCC)CCCCCCCC
accession=JP007009
date=2016.01.19 (Created 2008.10.21, modified 2011.05.06)
author=SODA AROMATIC CO., LTD.
license=CC BY-NC-SA
exact mass=200.17763
ionization energy=70 eV
ion type=[M]+*
computed spectral entropy=3.24294173618987
computed normalized entropy=0.7986669749499731
SPLASH=splash10-06r6-9300000000-fc5c25192961fe295d80
submitter=submitter = University of Tokyo Team (Faculty of Engineering, University of Tokyo)
MoNA Rating=3.75

>  <NUM PEAKS>  (3587) 
58

>  <MASS SPECTRAL PEAKS>  (3587) 
26 1.24
27 33.05
29 33.6
30 1.14
31 3.51
39 15.97
41 73.14
42 32.79
43 94.57
44 2.48
45 2.76
53 2.65
54 2.78
55 39.44
56 10.89
57 44.68
58 2.45
59 7.59
60 69.79
61 99.99
62 2.13
67 4.05
68 3.36
69 17.89
70 3.64
72 1.61
73 42.21
74 4.08
75 1.25
81 4.35
83 7.51
84 7.06
85 1.15
87 12.96
89 3.97
95 1.22
96 2.28
97 6.9
98 3.56
101 3.57
102 35.84
103 6.74
111 1.26
112 1.73
115 23.86
116 1.53
123 1.21
129 9.9
139 2.01
141 68.25
142 6.06
143 1.01
157 3.22
158 4.31
159 72.88
160 6.87
171 2.38
200 1.67

$$$$

     RDKit          2D

 14 13  0  0  0  0  0  0  0  0999 V2000
    3.8971    6.7500    0.0000 C   0  0  0  0  0  0  0  0  0  0  0  0
  -11.6913    6.7500    0.0000 C   0  0  0  0  0  0  0  0  0  0  0  0
    2.5981    7.5000    0.0000 C   0  0  0  0  0  0  0  0  0  0  0  0
  -10.3923    7.5000    0.0000 C   0  0  0  0  0  0  0  0  0  0  0  0
    1.2990    6.7500    0.0000 C   0  0  0  0  0  0  0  0  0  0  0  0
    0.0000    7.5000    0.0000 C   0  0  0  0  0  0  0  0  0  0  0  0
   -1.2990    6.7500    0.0000 C   0  0  0  0  0  0  0  0  0  0  0  0
   -2.5981    7.5000    0.0000 C   0  0  0  0  0  0  0  0  0  0  0  0
   -3.8971    6.7500    0.0000 C   0  0  0  0  0  0  0  0  0  0  0  0
   -5.1962    7.5000    0.0000 C   0  0  0  0  0  0  0  0  0  0  0  0
   -9.0933    6.7500    0.0000 C   0  0  0  0  0  0  0  0  0  0  0  0
   -6.4952    6.7500    0.0000 C   0  0  0  0  0  0  0  0  0  0  0  0
   -6.4952    5.2500    0.0000 O   0  0  0  0  0  0  0  0  0  0  0  0
   -7.7942    7.5000    0.0000 O   0  0  0  0  0  0  0  0  0  0  0  0
  3  1  1  0
  4  2  2  0
  5  3  1  0
  6  5  1  0
  7  6  1  0
  8  7  1  0
  9  8  1  0
 10  9  1  0
 11  4  1  0
 12 10  1  0
 13 12  2  0
 14 11  1  0
 14 12  1  0
M  END
>  <NAME>  (3588) 
ALLYL NONANOATE

>  <SYNONYMS>  (3588) 


>  <SPECTRUM TYPE>  (3588) 
MS1

>  <INSTRUMENT TYPE>  (3588) 
EI-B

>  <INSTRUMENT>  (3588) 
HITACHI M-80B

>  <ION MODE>  (3588) 
P

>  <INCHIKEY>  (3588) 
MFLWLDDOGSNSKO-UHFFFAOYSA-N

>  <FORMULA>  (3588) 
C12H22O2

>  <EXACT MASS>  (3588) 
198.161979944

>  <MW>  (3588) 
198

>  <ID>  (3588) 
JP007008

>  <CONTRIBUTOR>  (3588) 
University of Tokyo Team, {Faculty of Engineering, University of Tokyo

>  <COMMENT>  (3588) 
SMILES=CCCCCCCCC(=O)OCC=C
InChI=InChI=1S/C12H22O2/c1-3-5-6-7-8-9-10-12(13)14-11-4-2/h4H,2-3,5-11H2,1H3
computed SMILES=O=C(OCC=C)CCCCCCCC
computed spectral entropy=3.1432004502048327
computed normalized entropy=0.7994251891650999
accession=JP007008
date=2016.01.19 (Created 2008.10.21, modified 2011.05.06)
author=SODA AROMATIC CO., LTD.
license=CC BY-NC-SA
exact mass=198.16198
ionization energy=70 eV
ion type=[M]+*
SPLASH=splash10-052f-9200000000-7f15547ccc42a9cd0d8a
submitter=submitter = University of Tokyo Team (Faculty of Engineering, University of Tokyo)
MoNA Rating=3.75

>  <NUM PEAKS>  (3588) 
51

>  <MASS SPECTRAL PEAKS>  (3588) 
15 1.09
26 1.43
27 18.84
29 27.44
31 1.19
39 25.08
41 99.99
42 13.12
43 54.26
44 1.32
45 1.69
53 2.63
54 11.34
55 48.04
56 15.86
57 58.96
58 11.48
59 2.25
60 1.25
67 6.87
68 2.09
69 20.86
70 2.55
71 38.56
72 2.27
73 3.04
79 1.03
81 8.77
82 4.59
83 6.77
84 3.87
85 2.7
93 1.12
95 3.43
96 1.28
97 12.42
98 2.23
99 2.75
100 37.48
101 5.02
111 1.73
113 16.55
114 1.15
121 1.88
123 2.06
127 1.32
139 3.43
141 43.25
142 4.24
155 2.74
169 2.45

$$$$

     RDKit          2D

 13 12  0  0  0  0  0  0  0  0999 V2000
  -10.3923    6.7500    0.0000 C   0  0  0  0  0  0  0  0  0  0  0  0
    3.8971    6.0000    0.0000 C   0  0  0  0  0  0  0  0  0  0  0  0
   -9.0933    6.0000    0.0000 C   0  0  0  0  0  0  0  0  0  0  0  0
    2.5981    6.7500    0.0000 C   0  0  0  0  0  0  0  0  0  0  0  0
   -7.7942    6.7500    0.0000 C   0  0  0  0  0  0  0  0  0  0  0  0
   -6.4952    6.0000    0.0000 C   0  0  0  0  0  0  0  0  0  0  0  0
   -5.1962    6.7500    0.0000 C   0  0  0  0  0  0  0  0  0  0  0  0
   -3.8971    6.0000    0.0000 C   0  0  0  0  0  0  0  0  0  0  0  0
   -2.5981    6.7500    0.0000 C   0  0  0  0  0  0  0  0  0  0  0  0
   -1.2990    6.0000    0.0000 C   0  0  0  0  0  0  0  0  0  0  0  0
    0.0000    6.7500    0.0000 C   0  0  0  0  0  0  0  0  0  0  0  0
    0.0000    8.2500    0.0000 O   0  0  0  0  0  0  0  0  0  0  0  0
    1.2990    6.0000    0.0000 O   0  0  0  0  0  0  0  0  0  0  0  0
  3  1  1  0
  4  2  1  0
  5  3  1  0
  6  5  1  0
  7  6  1  0
  8  7  1  0
  9  8  1  0
 10  9  1  0
 11 10  1  0
 12 11  2  0
 13  4  1  0
 13 11  1  0
M  END
>  <NAME>  (3589) 
ETHYL NONANOATE

>  <SYNONYMS>  (3589) 


>  <SPECTRUM TYPE>  (3589) 
MS1

>  <INSTRUMENT TYPE>  (3589) 
EI-B

>  <INSTRUMENT>  (3589) 
HITACHI M-80B

>  <ION MODE>  (3589) 
P

>  <INCHIKEY>  (3589) 
BYEVBITUADOIGY-UHFFFAOYSA-N

>  <FORMULA>  (3589) 
C11H22O2

>  <EXACT MASS>  (3589) 
186.161979944

>  <MW>  (3589) 
186

>  <ID>  (3589) 
JP007007

>  <CONTRIBUTOR>  (3589) 
University of Tokyo Team, {Faculty of Engineering, University of Tokyo

>  <COMMENT>  (3589) 
SMILES=CCCCCCCCC(=O)OCC
InChI=InChI=1S/C11H22O2/c1-3-5-6-7-8-9-10-11(12)13-4-2/h3-10H2,1-2H3
computed SMILES=O=C(OCC)CCCCCCCC
accession=JP007007
date=2016.01.19 (Created 2008.10.21, modified 2011.05.06)
author=SODA AROMATIC CO., LTD.
license=CC BY-NC-SA
exact mass=186.16198
ionization energy=70 eV
ion type=[M]+*
computed spectral entropy=3.0968525963541875
computed normalized entropy=0.828551721427028
SPLASH=splash10-000l-9100000000-ec6b2f11765bff0f80ab
submitter=submitter = University of Tokyo Team (Faculty of Engineering, University of Tokyo)
MoNA Rating=3.75

>  <NUM PEAKS>  (3589) 
42

>  <MASS SPECTRAL PEAKS>  (3589) 
26 1.01
27 17
29 34.67
31 1.03
39 7.94
41 32.03
42 9.05
43 25.43
45 10.1
53 1.85
54 1.55
55 21.45
56 5.79
57 18.11
59 1.26
60 23.1
61 18.73
67 1.94
68 1.63
69 9.35
70 15.3
71 10.76
73 21.72
74 2.45
81 1.82
83 3.76
84 4.41
87 2.67
88 99.99
89 8.13
97 2.55
98 1.48
101 37.72
102 2.81
112 1
115 6.3
129 1.89
141 18
142 1.5
143 7.11
157 5.98
186 1.92

$$$$

     RDKit          2D

 12 11  0  0  0  0  0  0  0  0999 V2000
   -9.7428    5.6250    0.0000 C   0  0  0  0  0  0  0  0  0  0  0  0
    3.2476    5.6250    0.0000 C   0  0  0  0  0  0  0  0  0  0  0  0
   -8.4437    4.8750    0.0000 C   0  0  0  0  0  0  0  0  0  0  0  0
   -7.1447    5.6250    0.0000 C   0  0  0  0  0  0  0  0  0  0  0  0
   -5.8457    4.8750    0.0000 C   0  0  0  0  0  0  0  0  0  0  0  0
   -4.5466    5.6250    0.0000 C   0  0  0  0  0  0  0  0  0  0  0  0
   -3.2476    4.8750    0.0000 C   0  0  0  0  0  0  0  0  0  0  0  0
   -1.9486    5.6250    0.0000 C   0  0  0  0  0  0  0  0  0  0  0  0
   -0.6495    4.8750    0.0000 C   0  0  0  0  0  0  0  0  0  0  0  0
    0.6495    5.6250    0.0000 C   0  0  0  0  0  0  0  0  0  0  0  0
    0.6495    7.1250    0.0000 O   0  0  0  0  0  0  0  0  0  0  0  0
    1.9486    4.8750    0.0000 O   0  0  0  0  0  0  0  0  0  0  0  0
  3  1  1  0
  4  3  1  0
  5  4  1  0
  6  5  1  0
  7  6  1  0
  8  7  1  0
  9  8  1  0
 10  9  1  0
 11 10  2  0
 12  2  1  0
 12 10  1  0
M  END
>  <NAME>  (3590) 
METHYL NONANOATE

>  <SYNONYMS>  (3590) 


>  <SPECTRUM TYPE>  (3590) 
MS1

>  <INSTRUMENT TYPE>  (3590) 
EI-B

>  <INSTRUMENT>  (3590) 
HITACHI M-80B

>  <ION MODE>  (3590) 
P

>  <INCHIKEY>  (3590) 
IJXHLVMUNBOGRR-UHFFFAOYSA-N

>  <FORMULA>  (3590) 
C10H20O2

>  <EXACT MASS>  (3590) 
172.14632988

>  <MW>  (3590) 
172

>  <ID>  (3590) 
JP007006

>  <CONTRIBUTOR>  (3590) 
University of Tokyo Team, {Faculty of Engineering, University of Tokyo

>  <COMMENT>  (3590) 
SMILES=CCCCCCCCC(=O)OC
InChI=InChI=1S/C10H20O2/c1-3-4-5-6-7-8-9-10(11)12-2/h3-9H2,1-2H3
computed SMILES=O=C(OC)CCCCCCCC
accession=JP007006
date=2016.01.19 (Created 2008.10.21, modified 2011.05.06)
author=SODA AROMATIC CO., LTD.
license=CC BY-NC-SA
exact mass=172.14633
ionization energy=70 eV
ion type=[M]+*
computed spectral entropy=2.687331206183513
computed normalized entropy=0.7620693310920115
SPLASH=splash10-00di-9000000000-6b14d9620e385334bcce
submitter=submitter = University of Tokyo Team (Faculty of Engineering, University of Tokyo)
MoNA Rating=3.75

>  <NUM PEAKS>  (3590) 
34

>  <MASS SPECTRAL PEAKS>  (3590) 
15 3.58
27 8.8
29 11.05
39 6.53
41 21.62
42 5.37
43 21.57
45 1.36
53 1.53
54 1.12
55 16.39
56 3.23
57 7.89
59 11.46
67 1.16
68 1.1
69 6.88
70 1.2
71 3.03
73 1.71
74 99.99
75 8.93
83 2.3
84 2.5
87 44.69
88 3.96
97 1.49
98 1.38
101 3.69
115 1.28
129 7.35
141 8.9
143 5.73
172 1.4

$$$$

     RDKit          2D

 18 17  0  0  0  0  0  0  0  0999 V2000
    3.8971    6.7500    0.0000 C   0  0  0  0  0  0  0  0  0  0  0  0
   -7.6375    8.3886    0.0000 C   0  0  0  0  0  0  0  0  0  0  0  0
  -11.6913    6.7500    0.0000 C   0  0  0  0  0  0  0  0  0  0  0  0
  -10.3923    9.0000    0.0000 C   0  0  0  0  0  0  0  0  0  0  0  0
   -4.2320    8.6491    0.0000 C   0  0  0  0  0  0  0  0  0  0  0  0
    2.5981    7.5000    0.0000 C   0  0  0  0  0  0  0  0  0  0  0  0
   -6.1603    8.6491    0.0000 C   0  0  0  0  0  0  0  0  0  0  0  0
    1.2990    6.7500    0.0000 C   0  0  0  0  0  0  0  0  0  0  0  0
    0.0000    7.5000    0.0000 C   0  0  0  0  0  0  0  0  0  0  0  0
   -7.7942    7.5000    0.0000 C   0  0  0  0  0  0  0  0  0  0  0  0
   -9.0933    6.7500    0.0000 C   0  0  0  0  0  0  0  0  0  0  0  0
   -1.2990    6.7500    0.0000 C   0  0  0  0  0  0  0  0  0  0  0  0
   -6.4952    6.7500    0.0000 C   0  0  0  0  0  0  0  0  0  0  0  0
  -10.3923    7.5000    0.0000 C   0  0  0  0  0  0  0  0  0  0  0  0
   -2.5981    7.5000    0.0000 C   0  0  0  0  0  0  0  0  0  0  0  0
   -5.1962    7.5000    0.0000 C   0  0  0  0  0  0  0  0  0  0  0  0
   -2.5981    9.0000    0.0000 O   0  0  0  0  0  0  0  0  0  0  0  0
   -3.8971    6.7500    0.0000 O   0  0  0  0  0  0  0  0  0  0  0  0
  6  1  1  0
  7  2  2  0
  8  6  1  0
  9  8  1  0
 11 10  1  0
 12  9  1  0
 13 10  1  0
 14  3  1  0
 14  4  1  0
 14 11  2  0
 15 12  1  0
 16  5  1  0
 16  7  1  0
 16 13  1  0
 17 15  2  0
 18 15  1  0
 18 16  1  0
M  END
>  <NAME>  (3591) 
LINALYL HEXANOATE

>  <SYNONYMS>  (3591) 
3,7-DIMETHYL-1,6-OCTADIEN-3-YL HEXANOATE

>  <SPECTRUM TYPE>  (3591) 
MS1

>  <INSTRUMENT TYPE>  (3591) 
EI-B

>  <INSTRUMENT>  (3591) 
HITACHI M-80B

>  <ION MODE>  (3591) 
P

>  <INCHIKEY>  (3591) 
ALKCLFLTXBBMMP-UHFFFAOYSA-N

>  <FORMULA>  (3591) 
C16H28O2

>  <EXACT MASS>  (3591) 
252.208930136

>  <MW>  (3591) 
252

>  <ID>  (3591) 
JP007005

>  <CONTRIBUTOR>  (3591) 
University of Tokyo Team, {Faculty of Engineering, University of Tokyo

>  <COMMENT>  (3591) 
SMILES=CCCCCC(=O)OC(C)(C=C)CCC=C(C)C
InChI=InChI=1S/C16H28O2/c1-6-8-9-12-15(17)18-16(5,7-2)13-10-11-14(3)4/h7,11H,2,6,8-10,12-13H2,1,3-5H3
computed SMILES=O=C(OC(C=C)(C)CCC=C(C)C)CCCCC
accession=JP007005
date=2016.01.19 (Created 2008.10.21, modified 2011.05.06)
author=SODA AROMATIC CO., LTD.
license=CC BY-NC-SA
exact mass=252.20893
ionization energy=70 eV
ion type=[M]+*
computed spectral entropy=3.2750213568313087
computed normalized entropy=0.8415140232505707
SPLASH=splash10-0006-9000000000-ad70669a159f23693897
submitter=submitter = University of Tokyo Team (Faculty of Engineering, University of Tokyo)
MoNA Rating=3.75

>  <NUM PEAKS>  (3591) 
49

>  <MASS SPECTRAL PEAKS>  (3591) 
27 16.95
29 13.14
39 17.96
40 2.26
41 57.4
42 6.76
43 30.37
45 3.35
50 1.07
51 2.92
52 1.7
53 12.88
54 1.61
55 14.95
56 2.55
57 2.44
60 21.4
61 1.93
65 3.05
66 1.71
67 12.15
68 19.6
69 48.49
70 3.05
71 11.19
73 10.58
74 1.29
77 10.27
78 1.56
79 13.51
80 32.45
81 13.19
82 1.85
83 1.81
87 2.42
91 11.46
92 18.11
93 99.99
94 12.24
95 2.46
99 14.78
105 4.55
106 1.06
107 7.73
108 1.7
121 25.75
122 2.13
136 11.36
137 2.88

$$$$

     RDKit          2D

 20 19  0  0  0  0  0  0  0  0999 V2000
    5.8457   10.1250    0.0000 C   0  0  0  0  0  0  0  0  0  0  0  0
  -17.5370   10.1250    0.0000 C   0  0  0  0  0  0  0  0  0  0  0  0
    4.5466   10.8750    0.0000 C   0  0  0  0  0  0  0  0  0  0  0  0
  -16.2380   10.8750    0.0000 C   0  0  0  0  0  0  0  0  0  0  0  0
    3.2476   10.1250    0.0000 C   0  0  0  0  0  0  0  0  0  0  0  0
  -14.9389   10.1250    0.0000 C   0  0  0  0  0  0  0  0  0  0  0  0
    1.9486   10.8750    0.0000 C   0  0  0  0  0  0  0  0  0  0  0  0
  -13.6399   10.8750    0.0000 C   0  0  0  0  0  0  0  0  0  0  0  0
    0.6495   10.1250    0.0000 C   0  0  0  0  0  0  0  0  0  0  0  0
   -0.6495   10.8750    0.0000 C   0  0  0  0  0  0  0  0  0  0  0  0
   -1.9486   10.1250    0.0000 C   0  0  0  0  0  0  0  0  0  0  0  0
  -12.3409   10.1250    0.0000 C   0  0  0  0  0  0  0  0  0  0  0  0
   -3.2476   10.8750    0.0000 C   0  0  0  0  0  0  0  0  0  0  0  0
  -11.0418   10.8750    0.0000 C   0  0  0  0  0  0  0  0  0  0  0  0
   -4.5466   10.1250    0.0000 C   0  0  0  0  0  0  0  0  0  0  0  0
   -9.7428   10.1250    0.0000 C   0  0  0  0  0  0  0  0  0  0  0  0
   -5.8457   10.8750    0.0000 C   0  0  0  0  0  0  0  0  0  0  0  0
   -8.4437   10.8750    0.0000 C   0  0  0  0  0  0  0  0  0  0  0  0
   -8.4437   12.3750    0.0000 O   0  0  0  0  0  0  0  0  0  0  0  0
   -7.1447   10.1250    0.0000 O   0  0  0  0  0  0  0  0  0  0  0  0
  3  1  1  0
  4  2  1  0
  5  3  1  0
  6  4  1  0
  7  5  1  0
  8  6  1  0
  9  7  1  0
 10  9  1  0
 11 10  1  0
 12  8  1  0
 13 11  1  0
 14 12  1  0
 15 13  1  0
 16 14  1  0
 17 15  1  0
 18 16  1  0
 19 18  2  0
 20 17  1  0
 20 18  1  0
M  END
>  <NAME>  (3592) 
DECYL OCTANOATE

>  <SYNONYMS>  (3592) 


>  <SPECTRUM TYPE>  (3592) 
MS1

>  <INSTRUMENT TYPE>  (3592) 
EI-B

>  <INSTRUMENT>  (3592) 
HITACHI M-80B

>  <ION MODE>  (3592) 
P

>  <INCHIKEY>  (3592) 
WVWRBUIUZMBLNI-UHFFFAOYSA-N

>  <FORMULA>  (3592) 
C18H36O2

>  <EXACT MASS>  (3592) 
284.271530392

>  <MW>  (3592) 
284

>  <ID>  (3592) 
JP007004

>  <CONTRIBUTOR>  (3592) 
University of Tokyo Team, {Faculty of Engineering, University of Tokyo

>  <COMMENT>  (3592) 
SMILES=CCCCCCCCCCOC(=O)CCCCCCC
InChI=InChI=1S/C18H36O2/c1-3-5-7-9-10-11-13-15-17-20-18(19)16-14-12-8-6-4-2/h3-17H2,1-2H3
computed SMILES=O=C(OCCCCCCCCCC)CCCCCCC
accession=JP007004
date=2016.01.19 (Created 2008.10.21, modified 2011.05.06)
author=SODA AROMATIC CO., LTD.
license=CC BY-NC-SA
exact mass=284.27153
ionization energy=70 eV
ion type=[M]+*
computed spectral entropy=3.3836596815768685
computed normalized entropy=0.8333227859098865
SPLASH=splash10-052f-9200000000-1d3b38f495f09ffc8f6a
submitter=submitter = University of Tokyo Team (Faculty of Engineering, University of Tokyo)
MoNA Rating=3.75

>  <NUM PEAKS>  (3592) 
58

>  <MASS SPECTRAL PEAKS>  (3592) 
26 1.15
27 15.64
29 30.04
31 1.05
39 7.65
41 73.25
42 23.57
43 98.06
44 2.05
45 1.69
53 2.91
54 5.68
55 64.32
56 41.39
57 99.99
58 4.25
59 1.67
60 8.65
61 20.35
67 6.99
68 11.89
69 34.96
70 40.99
71 21.27
72 1.11
73 10.94
74 1.06
81 2.95
82 16.74
83 37.06
84 29.66
85 18.36
86 1.22
87 4.91
89 3.35
96 5.82
97 29.75
98 19.62
99 2.29
101 6.57
103 1.64
109 1.95
110 2.06
111 18.68
112 20.69
113 1.96
115 3.1
116 2.75
125 1.97
127 37.37
128 3.05
129 1.27
140 37.59
141 3.75
144 7.98
145 91.27
146 6.31
185 2.36

$$$$

     RDKit          2D

 18 17  0  0  0  0  0  0  0  0999 V2000
  -15.5885    9.0000    0.0000 C   0  0  0  0  0  0  0  0  0  0  0  0
    5.1962    9.0000    0.0000 C   0  0  0  0  0  0  0  0  0  0  0  0
  -14.2894    8.2500    0.0000 C   0  0  0  0  0  0  0  0  0  0  0  0
    3.8971    8.2500    0.0000 C   0  0  0  0  0  0  0  0  0  0  0  0
  -12.9904    9.0000    0.0000 C   0  0  0  0  0  0  0  0  0  0  0  0
    2.5981    9.0000    0.0000 C   0  0  0  0  0  0  0  0  0  0  0  0
  -11.6913    8.2500    0.0000 C   0  0  0  0  0  0  0  0  0  0  0  0
    1.2990    8.2500    0.0000 C   0  0  0  0  0  0  0  0  0  0  0  0
  -10.3923    9.0000    0.0000 C   0  0  0  0  0  0  0  0  0  0  0  0
    0.0000    9.0000    0.0000 C   0  0  0  0  0  0  0  0  0  0  0  0
   -9.0933    8.2500    0.0000 C   0  0  0  0  0  0  0  0  0  0  0  0
   -1.2990    8.2500    0.0000 C   0  0  0  0  0  0  0  0  0  0  0  0
   -7.7942    9.0000    0.0000 C   0  0  0  0  0  0  0  0  0  0  0  0
   -2.5981    9.0000    0.0000 C   0  0  0  0  0  0  0  0  0  0  0  0
   -6.4952    8.2500    0.0000 C   0  0  0  0  0  0  0  0  0  0  0  0
   -3.8971    8.2500    0.0000 C   0  0  0  0  0  0  0  0  0  0  0  0
   -3.8971    6.7500    0.0000 O   0  0  0  0  0  0  0  0  0  0  0  0
   -5.1962    9.0000    0.0000 O   0  0  0  0  0  0  0  0  0  0  0  0
  3  1  1  0
  4  2  1  0
  5  3  1  0
  6  4  1  0
  7  5  1  0
  8  6  1  0
  9  7  1  0
 10  8  1  0
 11  9  1  0
 12 10  1  0
 13 11  1  0
 14 12  1  0
 15 13  1  0
 16 14  1  0
 17 16  2  0
 18 15  1  0
 18 16  1  0
M  END
>  <NAME>  (3593) 
OCTYL OCTANOATE

>  <SYNONYMS>  (3593) 


>  <SPECTRUM TYPE>  (3593) 
MS1

>  <INSTRUMENT TYPE>  (3593) 
EI-B

>  <INSTRUMENT>  (3593) 
HITACHI M-80B

>  <ION MODE>  (3593) 
P

>  <INCHIKEY>  (3593) 
DJNTZVRUYMHBTD-UHFFFAOYSA-N

>  <FORMULA>  (3593) 
C16H32O2

>  <EXACT MASS>  (3593) 
256.240230264

>  <MW>  (3593) 
256

>  <ID>  (3593) 
JP007003

>  <CONTRIBUTOR>  (3593) 
University of Tokyo Team, {Faculty of Engineering, University of Tokyo

>  <COMMENT>  (3593) 
SMILES=CCCCCCCCOC(=O)CCCCCCC
InChI=InChI=1S/C16H32O2/c1-3-5-7-9-11-13-15-18-16(17)14-12-10-8-6-4-2/h3-15H2,1-2H3
computed SMILES=O=C(OCCCCCCCC)CCCCCCC
accession=JP007003
date=2016.01.19 (Created 2008.10.21, modified 2011.05.06)
author=SODA AROMATIC CO., LTD.
license=CC BY-NC-SA
exact mass=256.24023
ionization energy=70 eV
ion type=[M]+*
computed spectral entropy=3.2503971783575074
computed normalized entropy=0.8266890452375776
SPLASH=splash10-0a4l-9200000000-824d947af760517f1948
submitter=submitter = University of Tokyo Team (Faculty of Engineering, University of Tokyo)
MoNA Rating=3.75

>  <NUM PEAKS>  (3593) 
51

>  <MASS SPECTRAL PEAKS>  (3593) 
27 18.75
29 35.41
31 1.16
39 11.14
41 71.7
42 26.74
43 81.34
44 1.71
45 1.66
53 2.94
54 4.14
55 53.2
56 41.55
57 99.99
58 3.62
59 1.8
60 13.67
61 28.69
67 5.25
68 9.83
69 29.78
70 48.15
71 30.59
72 1.48
73 15.31
74 1.21
81 2.09
82 13.81
83 40.86
84 41.71
85 4.48
87 4.94
89 3.7
97 5.77
98 3.4
101 8.17
103 1.72
109 1.86
111 1.45
112 53.58
113 4.25
115 2.95
116 2.17
125 1.33
127 39.21
128 2.92
129 1.24
144 6.85
145 83.68
146 5.79
157 1.81

$$$$

     RDKit          2D

 17 16  0  0  0  0  0  0  0  0999 V2000
    5.1962    8.2500    0.0000 C   0  0  0  0  0  0  0  0  0  0  0  0
  -14.2894    9.0000    0.0000 C   0  0  0  0  0  0  0  0  0  0  0  0
    3.8971    9.0000    0.0000 C   0  0  0  0  0  0  0  0  0  0  0  0
  -12.9904    8.2500    0.0000 C   0  0  0  0  0  0  0  0  0  0  0  0
    2.5981    8.2500    0.0000 C   0  0  0  0  0  0  0  0  0  0  0  0
  -11.6913    9.0000    0.0000 C   0  0  0  0  0  0  0  0  0  0  0  0
    1.2990    9.0000    0.0000 C   0  0  0  0  0  0  0  0  0  0  0  0
  -10.3923    8.2500    0.0000 C   0  0  0  0  0  0  0  0  0  0  0  0
    0.0000    8.2500    0.0000 C   0  0  0  0  0  0  0  0  0  0  0  0
   -9.0933    9.0000    0.0000 C   0  0  0  0  0  0  0  0  0  0  0  0
   -1.2990    9.0000    0.0000 C   0  0  0  0  0  0  0  0  0  0  0  0
   -7.7942    8.2500    0.0000 C   0  0  0  0  0  0  0  0  0  0  0  0
   -2.5981    8.2500    0.0000 C   0  0  0  0  0  0  0  0  0  0  0  0
   -6.4952    9.0000    0.0000 C   0  0  0  0  0  0  0  0  0  0  0  0
   -3.8971    9.0000    0.0000 C   0  0  0  0  0  0  0  0  0  0  0  0
   -3.8971   10.5000    0.0000 O   0  0  0  0  0  0  0  0  0  0  0  0
   -5.1962    8.2500    0.0000 O   0  0  0  0  0  0  0  0  0  0  0  0
  3  1  1  0
  4  2  1  0
  5  3  1  0
  6  4  1  0
  7  5  1  0
  8  6  1  0
  9  7  1  0
 10  8  1  0
 11  9  1  0
 12 10  1  0
 13 11  1  0
 14 12  1  0
 15 13  1  0
 16 15  2  0
 17 14  1  0
 17 15  1  0
M  END
>  <NAME>  (3594) 
HEPTYL OCTANOATE

>  <SYNONYMS>  (3594) 


>  <SPECTRUM TYPE>  (3594) 
MS1

>  <INSTRUMENT TYPE>  (3594) 
EI-B

>  <INSTRUMENT>  (3594) 
HITACHI M-80B

>  <ION MODE>  (3594) 
P

>  <INCHIKEY>  (3594) 
TZXWLJYLYILFGM-UHFFFAOYSA-N

>  <FORMULA>  (3594) 
C15H30O2

>  <EXACT MASS>  (3594) 
242.2245802

>  <MW>  (3594) 
242

>  <ID>  (3594) 
JP007002

>  <CONTRIBUTOR>  (3594) 
University of Tokyo Team, {Faculty of Engineering, University of Tokyo

>  <COMMENT>  (3594) 
SMILES=CCCCCCCC(=O)OCCCCCCC
InChI=InChI=1S/C15H30O2/c1-3-5-7-9-11-13-15(16)17-14-12-10-8-6-4-2/h3-14H2,1-2H3
computed SMILES=O=C(OCCCCCCC)CCCCCCC
accession=JP007002
date=2016.01.19 (Created 2008.10.21, modified 2011.05.06)
author=SODA AROMATIC CO., LTD.
license=CC BY-NC-SA
exact mass=242.22458
ionization energy=70 eV
ion type=[M]+*
computed spectral entropy=3.0979182967023684
computed normalized entropy=0.813814806284359
SPLASH=splash10-0a4m-9100000000-af9e15cd18215dc28475
submitter=submitter = University of Tokyo Team (Faculty of Engineering, University of Tokyo)
MoNA Rating=3.75

>  <NUM PEAKS>  (3594) 
45

>  <MASS SPECTRAL PEAKS>  (3594) 
27 15.59
29 30.69
39 9.44
41 58.45
42 19.54
43 54.65
44 1.1
45 1.49
53 2.71
54 3.59
55 42.68
56 49.25
57 99.99
58 3.87
59 1.38
60 11.66
61 28.76
67 3.68
68 9.24
69 26.65
70 44.53
71 3.65
73 13.22
81 1.58
82 1.91
83 9.62
84 3.73
85 2.13
87 4.28
89 3.46
97 3.66
98 60.05
99 4.18
101 7.35
103 1.73
109 1.59
115 2.46
116 1.43
125 1.08
127 34.34
128 2.68
143 1.32
144 5.27
145 63.84
146 4.45

$$$$

     RDKit          2D

 17 17  0  0  0  0  0  0  0  0999 V2000
    2.6027    1.5000    0.0000 C   0  0  0  0  0  0  0  0  0  0  0  0
  -13.0048   -1.5900    0.0000 C   0  0  0  0  0  0  0  0  0  0  0  0
    1.3099    0.7393    0.0000 C   0  0  0  0  0  0  0  0  0  0  0  0
    0.0047    1.4786    0.0000 C   0  0  0  0  0  0  0  0  0  0  0  0
   -1.2881    0.7179    0.0000 C   0  0  0  0  0  0  0  0  0  0  0  0
   -2.5933    1.4571    0.0000 C   0  0  0  0  0  0  0  0  0  0  0  0
   -3.8861    0.6964    0.0000 C   0  0  0  0  0  0  0  0  0  0  0  0
   -5.1912    1.4357    0.0000 C   0  0  0  0  0  0  0  0  0  0  0  0
  -11.7020    0.6536    0.0000 C   0  0  0  0  0  0  0  0  0  0  0  0
  -10.4320   -1.5964    0.0000 C   0  0  0  0  0  0  0  0  0  0  0  0
  -10.4320    1.4036    0.0000 C   0  0  0  0  0  0  0  0  0  0  0  0
   -9.0820   -0.8464    0.0000 C   0  0  0  0  0  0  0  0  0  0  0  0
  -11.7020   -0.8464    0.0000 C   0  0  0  0  0  0  0  0  0  0  0  0
   -9.0820    0.6536    0.0000 C   0  0  0  0  0  0  0  0  0  0  0  0
   -6.4841    0.6750    0.0000 C   0  0  0  0  0  0  0  0  0  0  0  0
   -6.4717   -0.8249    0.0000 O   0  0  0  0  0  0  0  0  0  0  0  0
   -7.7892    1.4143    0.0000 O   0  0  0  0  0  0  0  0  0  0  0  0
  3  1  1  0
  4  3  1  0
  5  4  1  0
  6  5  1  0
  7  6  1  0
  8  7  1  0
 11  9  2  0
 12 10  1  0
 13  2  1  0
 13  9  1  0
 13 10  2  0
 14 11  1  0
 14 12  2  0
 15  8  1  0
 16 15  2  0
 17 14  1  0
 17 15  1  0
M  END
>  <NAME>  (3595) 
P-CRESYL OCTANOATE

>  <SYNONYMS>  (3595) 


>  <SPECTRUM TYPE>  (3595) 
MS1

>  <INSTRUMENT TYPE>  (3595) 
EI-B

>  <INSTRUMENT>  (3595) 
HITACHI M-80B

>  <ION MODE>  (3595) 
P

>  <INCHIKEY>  (3595) 
ALRYNTSLFYRKGF-UHFFFAOYSA-N

>  <FORMULA>  (3595) 
C15H22O2

>  <EXACT MASS>  (3595) 
234.161979944

>  <MW>  (3595) 
234

>  <ID>  (3595) 
JP007001

>  <CONTRIBUTOR>  (3595) 
University of Tokyo Team, {Faculty of Engineering, University of Tokyo

>  <COMMENT>  (3595) 
SMILES=CCCCCCCC(=O)Oc(c1)ccc(C)c1
InChI=InChI=1S/C15H22O2/c1-3-4-5-6-7-8-15(16)17-14-11-9-13(2)10-12-14/h9-12H,3-8H2,1-2H3
computed SMILES=O=C(OC1=CC=C(C=C1)C)CCCCCCC
accession=JP007001
date=2016.01.19 (Created 2008.10.21, modified 2011.05.06)
author=SODA AROMATIC CO., LTD.
license=CC BY-NC-SA
exact mass=234.16198
ionization energy=70 eV
ion type=[M]+*
computed spectral entropy=1.9919104625666737
computed normalized entropy=0.664916047455592
SPLASH=splash10-0a4i-5900000000-9a401aa2fda6f6734636
submitter=submitter = University of Tokyo Team (Faculty of Engineering, University of Tokyo)
MoNA Rating=3.75

>  <NUM PEAKS>  (3595) 
20

>  <MASS SPECTRAL PEAKS>  (3595) 
27 3.76
29 4.23
39 2.4
41 8.86
42 1.64
43 9.47
51 1.15
53 1.48
55 6.89
57 21.52
65 1.44
77 5.33
78 1.26
79 2.08
91 2.08
107 8.26
108 99.99
109 10.05
127 3.94
234 3.48

$$$$

     RDKit          2D

 17 17  0  0  0  0  0  0  0  0999 V2000
    5.5216    5.0079    0.0000 C   0  0  0  0  0  0  0  0  0  0  0  0
    4.2226    4.2579    0.0000 C   0  0  0  0  0  0  0  0  0  0  0  0
    2.9236    5.0079    0.0000 C   0  0  0  0  0  0  0  0  0  0  0  0
  -10.0668    6.5079    0.0000 C   0  0  0  0  0  0  0  0  0  0  0  0
    1.6245    4.2579    0.0000 C   0  0  0  0  0  0  0  0  0  0  0  0
  -10.0673    5.0071    0.0000 C   0  0  0  0  0  0  0  0  0  0  0  0
   -8.7673    7.2587    0.0000 C   0  0  0  0  0  0  0  0  0  0  0  0
   -4.8707    5.0079    0.0000 C   0  0  0  0  0  0  0  0  0  0  0  0
   -8.7683    4.2571    0.0000 C   0  0  0  0  0  0  0  0  0  0  0  0
   -7.4683    6.5087    0.0000 C   0  0  0  0  0  0  0  0  0  0  0  0
   -6.1697    4.2579    0.0000 C   0  0  0  0  0  0  0  0  0  0  0  0
    0.3255    5.0079    0.0000 C   0  0  0  0  0  0  0  0  0  0  0  0
   -3.5716    4.2579    0.0000 C   0  0  0  0  0  0  0  0  0  0  0  0
   -7.4687    5.0079    0.0000 C   0  0  0  0  0  0  0  0  0  0  0  0
   -0.9736    4.2579    0.0000 C   0  0  0  0  0  0  0  0  0  0  0  0
   -0.9736    2.7579    0.0000 O   0  0  0  0  0  0  0  0  0  0  0  0
   -2.2726    5.0079    0.0000 O   0  0  0  0  0  0  0  0  0  0  0  0
  2  1  1  0
  3  2  1  0
  5  3  1  0
  6  4  2  0
  7  4  1  0
  9  6  1  0
 10  7  2  0
 11  8  1  0
 12  5  1  0
 13  8  1  0
 14  9  2  0
 14 10  1  0
 14 11  1  0
 15 12  1  0
 16 15  2  0
 17 13  1  0
 17 15  1  0
M  END
>  <NAME>  (3596) 
3-PHENYLPROPYL HEXANOATE

>  <SYNONYMS>  (3596) 


>  <SPECTRUM TYPE>  (3596) 
MS1

>  <INSTRUMENT TYPE>  (3596) 
EI-B

>  <INSTRUMENT>  (3596) 
HITACHI M-80B

>  <ION MODE>  (3596) 
P

>  <INCHIKEY>  (3596) 
RSOGLEKUVSFLMO-UHFFFAOYSA-N

>  <FORMULA>  (3596) 
C15H22O2

>  <EXACT MASS>  (3596) 
234.161979944

>  <MW>  (3596) 
234

>  <ID>  (3596) 
JP007000

>  <CONTRIBUTOR>  (3596) 
University of Tokyo Team, {Faculty of Engineering, University of Tokyo

>  <COMMENT>  (3596) 
SMILES=CCCCCC(=O)OCCCc(c1)cccc1
InChI=InChI=1S/C15H22O2/c1-2-3-5-12-15(16)17-13-8-11-14-9-6-4-7-10-14/h4,6-7,9-10H,2-3,5,8,11-13H2,1H3
computed SMILES=O=C(OCCCC=1C=CC=CC1)CCCCC
accession=JP007000
date=2016.01.19 (Created 2008.10.21, modified 2011.05.06)
author=SODA AROMATIC CO., LTD.
license=CC BY-NC-SA
exact mass=234.16198
ionization energy=70 eV
ion type=[M]+*
computed spectral entropy=2.143563698150283
computed normalized entropy=0.6744894242133076
SPLASH=splash10-014i-4900000000-ffb492a7384f4211f837
submitter=submitter = University of Tokyo Team (Faculty of Engineering, University of Tokyo)
MoNA Rating=3.75

>  <NUM PEAKS>  (3596) 
24

>  <MASS SPECTRAL PEAKS>  (3596) 
27 3.67
29 3.65
39 3.38
41 8.35
42 1.57
43 12.21
51 1.55
55 2.24
65 4.15
71 3.99
77 2.82
78 1.89
79 1.39
91 29.12
92 2.85
99 3.76
103 1.88
104 1.24
105 1.67
115 1.57
116 1.85
117 40.99
118 99.99
119 11.04

$$$$

     RDKit          2D

 16 16  0  0  0  0  0  0  0  0999 V2000
    5.5216    4.2579    0.0000 C   0  0  0  0  0  0  0  0  0  0  0  0
    4.2226    5.0079    0.0000 C   0  0  0  0  0  0  0  0  0  0  0  0
    2.9236    4.2579    0.0000 C   0  0  0  0  0  0  0  0  0  0  0  0
   -8.7678    6.5079    0.0000 C   0  0  0  0  0  0  0  0  0  0  0  0
    1.6245    5.0079    0.0000 C   0  0  0  0  0  0  0  0  0  0  0  0
   -8.7683    5.0071    0.0000 C   0  0  0  0  0  0  0  0  0  0  0  0
   -7.4683    7.2587    0.0000 C   0  0  0  0  0  0  0  0  0  0  0  0
   -7.4692    4.2571    0.0000 C   0  0  0  0  0  0  0  0  0  0  0  0
   -6.1692    6.5087    0.0000 C   0  0  0  0  0  0  0  0  0  0  0  0
    0.3255    4.2579    0.0000 C   0  0  0  0  0  0  0  0  0  0  0  0
   -4.8707    4.2579    0.0000 C   0  0  0  0  0  0  0  0  0  0  0  0
   -3.5716    5.0079    0.0000 C   0  0  0  0  0  0  0  0  0  0  0  0
   -6.1697    5.0079    0.0000 C   0  0  0  0  0  0  0  0  0  0  0  0
   -0.9736    5.0079    0.0000 C   0  0  0  0  0  0  0  0  0  0  0  0
   -0.9736    6.5079    0.0000 O   0  0  0  0  0  0  0  0  0  0  0  0
   -2.2726    4.2579    0.0000 O   0  0  0  0  0  0  0  0  0  0  0  0
  2  1  1  0
  3  2  1  0
  5  3  1  0
  6  4  2  0
  7  4  1  0
  8  6  1  0
  9  7  2  0
 10  5  1  0
 12 11  1  0
 13  8  2  0
 13  9  1  0
 13 11  1  0
 14 10  1  0
 15 14  2  0
 16 12  1  0
 16 14  1  0
M  END
>  <NAME>  (3597) 
PHENYLETHYL HEXANOATE

>  <SYNONYMS>  (3597) 


>  <SPECTRUM TYPE>  (3597) 
MS1

>  <INSTRUMENT TYPE>  (3597) 
EI-B

>  <INSTRUMENT>  (3597) 
HITACHI M-80B

>  <ION MODE>  (3597) 
P

>  <INCHIKEY>  (3597) 
BUYNWUMUDHPPDS-UHFFFAOYSA-N

>  <FORMULA>  (3597) 
C14H20O2

>  <EXACT MASS>  (3597) 
220.14632988

>  <MW>  (3597) 
220

>  <ID>  (3597) 
JP006999

>  <CONTRIBUTOR>  (3597) 
University of Tokyo Team, {Faculty of Engineering, University of Tokyo

>  <COMMENT>  (3597) 
SMILES=CCCCCC(=O)OCCc(c1)cccc1
InChI=InChI=1S/C14H20O2/c1-2-3-5-10-14(15)16-12-11-13-8-6-4-7-9-13/h4,6-9H,2-3,5,10-12H2,1H3
computed SMILES=O=C(OCCC=1C=CC=CC1)CCCCC
accession=JP006999
date=2016.01.19 (Created 2008.10.21, modified 2011.05.06)
author=SODA AROMATIC CO., LTD.
license=CC BY-NC-SA
exact mass=220.14633
ionization energy=70 eV
ion type=[M]+*
computed spectral entropy=1.9082898709980554
computed normalized entropy=0.6480996497126543
SPLASH=splash10-0udi-4900000000-0841c992786af8b784b3
submitter=submitter = University of Tokyo Team (Faculty of Engineering, University of Tokyo)
MoNA Rating=3.75

>  <NUM PEAKS>  (3597) 
19

>  <MASS SPECTRAL PEAKS>  (3597) 
27 3.77
29 2.88
39 2.22
41 5.21
42 1.68
43 16.75
51 1.53
55 1.98
65 2.06
71 7.4
77 4.94
78 2.32
79 2.53
91 5.47
99 7.79
103 2.74
104 99.99
105 21.11
106 1.27

$$$$

     RDKit          2D

 14 14  0  0  0  0  0  0  0  0999 V2000
   10.0231    1.2915    0.0000 C   0  0  0  0  0  0  0  0  0  0  0  0
    8.7242    0.5412    0.0000 C   0  0  0  0  0  0  0  0  0  0  0  0
    7.4251    1.2910    0.0000 C   0  0  0  0  0  0  0  0  0  0  0  0
   -1.6700   -0.9600    0.0000 C   0  0  0  0  0  0  0  0  0  0  0  0
    6.1262    0.5408    0.0000 C   0  0  0  0  0  0  0  0  0  0  0  0
   -1.6700    0.5400    0.0000 C   0  0  0  0  0  0  0  0  0  0  0  0
   -0.3700   -1.7100    0.0000 C   0  0  0  0  0  0  0  0  0  0  0  0
   -0.3700    1.2900    0.0000 C   0  0  0  0  0  0  0  0  0  0  0  0
    0.9300   -0.9600    0.0000 C   0  0  0  0  0  0  0  0  0  0  0  0
    4.8270    1.2906    0.0000 C   0  0  0  0  0  0  0  0  0  0  0  0
    0.9300    0.5400    0.0000 C   0  0  0  0  0  0  0  0  0  0  0  0
    3.5281    0.5404    0.0000 C   0  0  0  0  0  0  0  0  0  0  0  0
    3.5283   -0.9596    0.0000 O   0  0  0  0  0  0  0  0  0  0  0  0
    2.2289    1.2902    0.0000 O   0  0  0  0  0  0  0  0  0  0  0  0
  2  1  1  0
  3  2  1  0
  5  3  1  0
  6  4  1  0
  7  4  1  0
  8  6  1  0
  9  7  1  0
 10  5  1  0
 11  8  1  0
 11  9  1  0
 12 10  1  0
 13 12  2  0
 14 11  1  0
 14 12  1  0
M  END
>  <NAME>  (3598) 
CYCLOHEXYL HEXANOATE

>  <SYNONYMS>  (3598) 


>  <SPECTRUM TYPE>  (3598) 
MS1

>  <INSTRUMENT TYPE>  (3598) 
EI-B

>  <INSTRUMENT>  (3598) 
HITACHI M-80B

>  <ION MODE>  (3598) 
P

>  <INCHIKEY>  (3598) 
DTNOERNOMHQUCN-UHFFFAOYSA-N

>  <FORMULA>  (3598) 
C12H22O2

>  <EXACT MASS>  (3598) 
198.161979944

>  <MW>  (3598) 
198

>  <ID>  (3598) 
JP006998

>  <CONTRIBUTOR>  (3598) 
University of Tokyo Team, {Faculty of Engineering, University of Tokyo

>  <COMMENT>  (3598) 
SMILES=CCCCCC(=O)OC(C1)CCCC1
InChI=InChI=1S/C12H22O2/c1-2-3-5-10-12(13)14-11-8-6-4-7-9-11/h11H,2-10H2,1H3
computed SMILES=O=C(OC1CCCCC1)CCCCC
accession=JP006998
date=2016.01.19 (Created 2008.10.21, modified 2011.05.06)
author=SODA AROMATIC CO., LTD.
license=CC BY-NC-SA
exact mass=198.16198
ionization energy=70 eV
ion type=[M]+*
computed spectral entropy=3.056676690830982
computed normalized entropy=0.7774191880205631
SPLASH=splash10-015c-9100000000-9c0bfb7312013832fbfb
submitter=submitter = University of Tokyo Team (Faculty of Engineering, University of Tokyo)
MoNA Rating=3.75

>  <NUM PEAKS>  (3598) 
51

>  <MASS SPECTRAL PEAKS>  (3598) 
26 1.14
27 20.82
29 24.83
39 18.75
41 55.46
42 15.22
43 63.4
44 2.81
45 1.81
51 1.51
53 5.23
54 22.91
55 58.62
56 10.26
57 4.89
58 1.81
59 1.52
60 18.82
61 4.26
65 1.24
66 1.21
67 60.95
68 3.25
69 4.1
70 3.22
71 39.21
72 2.19
73 6.6
75 1.1
77 1.26
79 2.12
80 1.29
81 10.92
82 97.77
83 43.15
84 2.72
87 3.97
89 2.23
97 1.02
98 1.39
99 70.29
100 3.76
114 2.09
115 1.12
116 17.56
117 99.99
118 5.21
124 1.14
127 1.37
142 1.25
155 1.19

$$$$

     RDKit          2D

 18 17  0  0  0  0  0  0  0  0999 V2000
    4.5466    7.8750    0.0000 C   0  0  0  0  0  0  0  0  0  0  0  0
  -13.6399    7.8750    0.0000 C   0  0  0  0  0  0  0  0  0  0  0  0
  -12.3409   10.1250    0.0000 C   0  0  0  0  0  0  0  0  0  0  0  0
   -7.1447   10.1250    0.0000 C   0  0  0  0  0  0  0  0  0  0  0  0
    3.2476    8.6250    0.0000 C   0  0  0  0  0  0  0  0  0  0  0  0
    1.9486    7.8750    0.0000 C   0  0  0  0  0  0  0  0  0  0  0  0
    0.6495    8.6250    0.0000 C   0  0  0  0  0  0  0  0  0  0  0  0
   -9.7428    8.6250    0.0000 C   0  0  0  0  0  0  0  0  0  0  0  0
  -11.0418    7.8750    0.0000 C   0  0  0  0  0  0  0  0  0  0  0  0
   -8.4437    7.8750    0.0000 C   0  0  0  0  0  0  0  0  0  0  0  0
   -0.6495    7.8750    0.0000 C   0  0  0  0  0  0  0  0  0  0  0  0
   -5.8457    7.8750    0.0000 C   0  0  0  0  0  0  0  0  0  0  0  0
   -4.5466    8.6250    0.0000 C   0  0  0  0  0  0  0  0  0  0  0  0
  -12.3409    8.6250    0.0000 C   0  0  0  0  0  0  0  0  0  0  0  0
   -7.1447    8.6250    0.0000 C   0  0  0  0  0  0  0  0  0  0  0  0
   -1.9486    8.6250    0.0000 C   0  0  0  0  0  0  0  0  0  0  0  0
   -1.9486   10.1250    0.0000 O   0  0  0  0  0  0  0  0  0  0  0  0
   -3.2476    7.8750    0.0000 O   0  0  0  0  0  0  0  0  0  0  0  0
  5  1  1  0
  6  5  1  0
  7  6  1  0
  9  8  1  0
 10  8  1  0
 11  7  1  0
 13 12  1  0
 14  2  1  0
 14  3  1  0
 14  9  2  0
 15  4  1  0
 15 10  1  0
 15 12  1  0
 16 11  1  0
 17 16  2  0
 18 13  1  0
 18 16  1  0
M  END
>  <NAME>  (3599) 
CITRONELLYL HEXANOATE

>  <SYNONYMS>  (3599) 
3,7-DIMETHYL-6-OCTEN-1-YL HEXANOATE

>  <SPECTRUM TYPE>  (3599) 
MS1

>  <INSTRUMENT TYPE>  (3599) 
EI-B

>  <INSTRUMENT>  (3599) 
HITACHI M-80B

>  <ION MODE>  (3599) 
P

>  <INCHIKEY>  (3599) 
KNYRCCKTQMBSFP-UHFFFAOYSA-N

>  <FORMULA>  (3599) 
C16H30O2

>  <EXACT MASS>  (3599) 
254.2245802

>  <MW>  (3599) 
254

>  <ID>  (3599) 
JP006997

>  <CONTRIBUTOR>  (3599) 
University of Tokyo Team, {Faculty of Engineering, University of Tokyo

>  <COMMENT>  (3599) 
SMILES=CCCCCC(=O)OCCC(C)CCC=C(C)C
InChI=InChI=1S/C16H30O2/c1-5-6-7-11-16(17)18-13-12-15(4)10-8-9-14(2)3/h9,15H,5-8,10-13H2,1-4H3
computed SMILES=O=C(OCCC(C)CCC=C(C)C)CCCCC
accession=JP006997
date=2016.01.19 (Created 2008.10.21, modified 2011.05.06)
author=SODA AROMATIC CO., LTD.
license=CC BY-NC-SA
exact mass=254.22458
ionization energy=70 eV
ion type=[M]+*
computed spectral entropy=3.1847203540531397
computed normalized entropy=0.8183112554295571
SPLASH=splash10-00lu-9100000000-5269369ec1134da096ec
submitter=submitter = University of Tokyo Team (Faculty of Engineering, University of Tokyo)
MoNA Rating=3.75

>  <NUM PEAKS>  (3599) 
49

>  <MASS SPECTRAL PEAKS>  (3599) 
27 14.41
29 21.48
31 1.01
39 12.01
41 87.13
42 13.43
43 55.91
44 1.04
45 1.28
53 10.03
54 3.18
55 46.44
56 11.75
57 15.54
60 3
65 1.36
66 1.08
67 41.29
68 31.38
69 94.95
70 11.95
71 22.93
72 1.24
73 1.82
77 1.46
79 2.75
80 9.06
81 99.99
82 75.88
83 20.14
84 1.33
87 1.08
93 1.41
94 6.57
95 84.19
96 21.14
97 3.37
99 28.42
100 1.54
109 31.27
110 8.95
111 1.47
117 3.09
121 1.14
123 73.65
124 7.74
137 2.58
138 39.17
139 4.73

$$$$

     RDKit          2D

 18 17  0  0  0  0  0  0  0  0999 V2000
    4.5466    7.8750    0.0000 C   0  0  0  0  0  0  0  0  0  0  0  0
  -13.6399    7.8750    0.0000 C   0  0  0  0  0  0  0  0  0  0  0  0
  -12.3409   10.1250    0.0000 C   0  0  0  0  0  0  0  0  0  0  0  0
   -7.1447   10.1250    0.0000 C   0  0  0  0  0  0  0  0  0  0  0  0
    3.2476    8.6250    0.0000 C   0  0  0  0  0  0  0  0  0  0  0  0
    1.9486    7.8750    0.0000 C   0  0  0  0  0  0  0  0  0  0  0  0
    0.6495    8.6250    0.0000 C   0  0  0  0  0  0  0  0  0  0  0  0
   -9.7428    8.6250    0.0000 C   0  0  0  0  0  0  0  0  0  0  0  0
  -11.0418    7.8750    0.0000 C   0  0  0  0  0  0  0  0  0  0  0  0
   -8.4437    7.8750    0.0000 C   0  0  0  0  0  0  0  0  0  0  0  0
   -0.6495    7.8750    0.0000 C   0  0  0  0  0  0  0  0  0  0  0  0
   -5.8457    7.8750    0.0000 C   0  0  0  0  0  0  0  0  0  0  0  0
   -4.5466    8.6250    0.0000 C   0  0  0  0  0  0  0  0  0  0  0  0
  -12.3409    8.6250    0.0000 C   0  0  0  0  0  0  0  0  0  0  0  0
   -7.1447    8.6250    0.0000 C   0  0  0  0  0  0  0  0  0  0  0  0
   -1.9486    8.6250    0.0000 C   0  0  0  0  0  0  0  0  0  0  0  0
   -1.9486   10.1250    0.0000 O   0  0  0  0  0  0  0  0  0  0  0  0
   -3.2476    7.8750    0.0000 O   0  0  0  0  0  0  0  0  0  0  0  0
  5  1  1  0
  6  5  1  0
  7  6  1  0
  9  8  1  0
 10  8  1  0
 11  7  1  0
 13 12  1  0
 14  2  1  0
 14  3  1  0
 14  9  2  0
 15  4  1  0
 15 10  1  0
 12 15  2  0
 16 11  1  0
 17 16  2  0
 18 13  1  0
 18 16  1  0
M  END
>  <NAME>  (3600) 
GERANYL HEXANOATE

>  <SYNONYMS>  (3600) 
3,7-DIMETHYL-2,6-OCTADIEN-1-YL HEXANOATE

>  <SPECTRUM TYPE>  (3600) 
MS1

>  <INSTRUMENT TYPE>  (3600) 
EI-B

>  <INSTRUMENT>  (3600) 
HITACHI M-80B

>  <ION MODE>  (3600) 
P

>  <INCHIKEY>  (3600) 
ARVSCQUZFFSNKF-NTCAYCPXSA-N

>  <FORMULA>  (3600) 
C16H28O2

>  <EXACT MASS>  (3600) 
252.208930136

>  <MW>  (3600) 
252

>  <ID>  (3600) 
JP006996

>  <CONTRIBUTOR>  (3600) 
University of Tokyo Team, {Faculty of Engineering, University of Tokyo

>  <COMMENT>  (3600) 
SMILES=CCCCCC(=O)OCC=C(C)CCC=C(C)C
InChI=InChI=1S/C16H28O2/c1-5-6-7-11-16(17)18-13-12-15(4)10-8-9-14(2)3/h9,12H,5-8,10-11,13H2,1-4H3/b15-12+
computed SMILES=O=C(OCC=C(C)CCC=C(C)C)CCCCC
accession=JP006996
date=2016.01.19 (Created 2008.10.21, modified 2011.05.06)
author=SODA AROMATIC CO., LTD.
license=CC BY-NC-SA
exact mass=252.20893
ionization energy=70 eV
ion type=[M]+*
computed spectral entropy=3.106505517634258
computed normalized entropy=0.7982140180373648
SPLASH=splash10-014l-9000000000-2a150d1afd565a86c8b9
submitter=submitter = University of Tokyo Team (Faculty of Engineering, University of Tokyo)
MoNA Rating=3.75

>  <NUM PEAKS>  (3600) 
49

>  <MASS SPECTRAL PEAKS>  (3600) 
27 12.69
29 8.06
39 16.32
41 66.55
42 4.25
43 29.58
51 2.63
52 1.4
53 11.97
54 1.31
55 9.67
56 1.46
57 1.27
60 1.79
65 3.29
66 1.68
67 16.55
68 51.59
69 99.99
70 4.67
71 15.96
77 6.96
78 1.56
79 10.22
80 21.62
81 10.62
82 3.08
83 1.32
84 1.27
85 1.19
91 6.77
92 13.48
93 68.08
94 10.35
95 3.68
99 23.43
100 1.49
105 2.89
107 5.64
108 1.95
109 1.41
119 1.09
121 21.19
122 1.86
123 3.77
136 13.89
137 2.18
138 1.27
154 1.26

$$$$

     RDKit          2D

 17 16  0  0  0  0  0  0  0  0999 V2000
    5.1962    8.2500    0.0000 C   0  0  0  0  0  0  0  0  0  0  0  0
  -14.2894    9.0000    0.0000 C   0  0  0  0  0  0  0  0  0  0  0  0
    3.8971    9.0000    0.0000 C   0  0  0  0  0  0  0  0  0  0  0  0
  -12.9904    8.2500    0.0000 C   0  0  0  0  0  0  0  0  0  0  0  0
    2.5981    8.2500    0.0000 C   0  0  0  0  0  0  0  0  0  0  0  0
  -11.6913    9.0000    0.0000 C   0  0  0  0  0  0  0  0  0  0  0  0
    1.2990    9.0000    0.0000 C   0  0  0  0  0  0  0  0  0  0  0  0
    0.0000    8.2500    0.0000 C   0  0  0  0  0  0  0  0  0  0  0  0
   -1.2990    9.0000    0.0000 C   0  0  0  0  0  0  0  0  0  0  0  0
   -2.5981    8.2500    0.0000 C   0  0  0  0  0  0  0  0  0  0  0  0
  -10.3923    8.2500    0.0000 C   0  0  0  0  0  0  0  0  0  0  0  0
   -3.8971    9.0000    0.0000 C   0  0  0  0  0  0  0  0  0  0  0  0
   -9.0933    9.0000    0.0000 C   0  0  0  0  0  0  0  0  0  0  0  0
   -5.1962    8.2500    0.0000 C   0  0  0  0  0  0  0  0  0  0  0  0
   -7.7942    8.2500    0.0000 C   0  0  0  0  0  0  0  0  0  0  0  0
   -7.7942    6.7500    0.0000 O   0  0  0  0  0  0  0  0  0  0  0  0
   -6.4952    9.0000    0.0000 O   0  0  0  0  0  0  0  0  0  0  0  0
  3  1  1  0
  4  2  1  0
  5  3  1  0
  6  4  1  0
  7  5  1  0
  8  7  1  0
  9  8  1  0
 10  9  1  0
 11  6  1  0
 12 10  1  0
 13 11  1  0
 14 12  1  0
 15 13  1  0
 16 15  2  0
 17 14  1  0
 17 15  1  0
M  END
>  <NAME>  (3601) 
NONYL HEXANOATE

>  <SYNONYMS>  (3601) 


>  <SPECTRUM TYPE>  (3601) 
MS1

>  <INSTRUMENT TYPE>  (3601) 
EI-B

>  <INSTRUMENT>  (3601) 
HITACHI M-80B

>  <ION MODE>  (3601) 
P

>  <INCHIKEY>  (3601) 
UQLYLJOCUOEHOM-UHFFFAOYSA-N

>  <FORMULA>  (3601) 
C15H30O2

>  <EXACT MASS>  (3601) 
242.2245802

>  <MW>  (3601) 
242

>  <ID>  (3601) 
JP006995

>  <CONTRIBUTOR>  (3601) 
University of Tokyo Team, {Faculty of Engineering, University of Tokyo

>  <COMMENT>  (3601) 
SMILES=CCCCCCCCCOC(=O)CCCCC
InChI=InChI=1S/C15H30O2/c1-3-5-7-8-9-10-12-14-17-15(16)13-11-6-4-2/h3-14H2,1-2H3
computed SMILES=O=C(OCCCCCCCCC)CCCCC
accession=JP006995
date=2016.01.19 (Created 2008.10.21, modified 2011.05.06)
author=SODA AROMATIC CO., LTD.
license=CC BY-NC-SA
exact mass=242.22458
ionization energy=70 eV
ion type=[M]+*
computed spectral entropy=3.213745238285797
computed normalized entropy=0.84925586431518
SPLASH=splash10-05tf-9100000000-96d56873cbb41ecbdf0a
submitter=submitter = University of Tokyo Team (Faculty of Engineering, University of Tokyo)
MoNA Rating=3.75

>  <NUM PEAKS>  (3601) 
44

>  <MASS SPECTRAL PEAKS>  (3601) 
27 16.61
29 29.79
31 1.09
39 9.29
41 55.61
42 20.64
43 99.99
44 2.13
45 1.8
53 2.77
54 4.19
55 46.77
56 39.53
57 27.44
58 1.43
60 9.08
61 13.35
67 3.6
68 9.01
69 29.58
70 36.12
71 42.9
72 1.83
73 9.63
81 1.69
82 10
83 22.15
84 26.11
85 10.97
87 5.15
89 2.11
96 3.07
97 24.99
98 22.49
99 50.08
100 2.59
101 1.21
115 1.04
116 7.5
117 83.95
118 4.18
126 29.93
127 2.83
171 1.45

$$$$

     RDKit          2D

 16 15  0  0  0  0  0  0  0  0999 V2000
    4.5466    7.8750    0.0000 C   0  0  0  0  0  0  0  0  0  0  0  0
  -13.6399    7.8750    0.0000 C   0  0  0  0  0  0  0  0  0  0  0  0
    3.2476    8.6250    0.0000 C   0  0  0  0  0  0  0  0  0  0  0  0
  -12.3409    8.6250    0.0000 C   0  0  0  0  0  0  0  0  0  0  0  0
    1.9486    7.8750    0.0000 C   0  0  0  0  0  0  0  0  0  0  0  0
  -11.0418    7.8750    0.0000 C   0  0  0  0  0  0  0  0  0  0  0  0
    0.6495    8.6250    0.0000 C   0  0  0  0  0  0  0  0  0  0  0  0
   -0.6495    7.8750    0.0000 C   0  0  0  0  0  0  0  0  0  0  0  0
   -1.9486    8.6250    0.0000 C   0  0  0  0  0  0  0  0  0  0  0  0
   -9.7428    8.6250    0.0000 C   0  0  0  0  0  0  0  0  0  0  0  0
   -3.2476    7.8750    0.0000 C   0  0  0  0  0  0  0  0  0  0  0  0
   -8.4437    7.8750    0.0000 C   0  0  0  0  0  0  0  0  0  0  0  0
   -4.5466    8.6250    0.0000 C   0  0  0  0  0  0  0  0  0  0  0  0
   -7.1447    8.6250    0.0000 C   0  0  0  0  0  0  0  0  0  0  0  0
   -7.1447   10.1250    0.0000 O   0  0  0  0  0  0  0  0  0  0  0  0
   -5.8457    7.8750    0.0000 O   0  0  0  0  0  0  0  0  0  0  0  0
  3  1  1  0
  4  2  1  0
  5  3  1  0
  6  4  1  0
  7  5  1  0
  8  7  1  0
  9  8  1  0
 10  6  1  0
 11  9  1  0
 12 10  1  0
 13 11  1  0
 14 12  1  0
 15 14  2  0
 16 13  1  0
 16 14  1  0
M  END
>  <NAME>  (3602) 
OCTYL HEXANOATE

>  <SYNONYMS>  (3602) 


>  <SPECTRUM TYPE>  (3602) 
MS1

>  <INSTRUMENT TYPE>  (3602) 
EI-B

>  <INSTRUMENT>  (3602) 
HITACHI M-80B

>  <ION MODE>  (3602) 
P

>  <INCHIKEY>  (3602) 
CMNMHJVRZHGAAK-UHFFFAOYSA-N

>  <FORMULA>  (3602) 
C14H28O2

>  <EXACT MASS>  (3602) 
228.208930136

>  <MW>  (3602) 
228

>  <ID>  (3602) 
JP006994

>  <CONTRIBUTOR>  (3602) 
University of Tokyo Team, {Faculty of Engineering, University of Tokyo

>  <COMMENT>  (3602) 
SMILES=CCCCCCCCOC(=O)CCCCC
InChI=InChI=1S/C14H28O2/c1-3-5-7-8-9-11-13-16-14(15)12-10-6-4-2/h3-13H2,1-2H3
computed SMILES=O=C(OCCCCCCCC)CCCCC
accession=JP006994
date=2016.01.19 (Created 2008.10.21, modified 2011.05.06)
author=SODA AROMATIC CO., LTD.
license=CC BY-NC-SA
exact mass=228.20893
ionization energy=70 eV
ion type=[M]+*
computed spectral entropy=3.161191514765198
computed normalized entropy=0.8304365105286582
SPLASH=splash10-05tf-9100000000-8ec46428809c0ee0e62c
submitter=submitter = University of Tokyo Team (Faculty of Engineering, University of Tokyo)
MoNA Rating=3.75

>  <NUM PEAKS>  (3602) 
45

>  <MASS SPECTRAL PEAKS>  (3602) 
27 20.47
29 36.59
31 1.38
39 11.75
41 63.84
42 25.76
43 99.99
44 2.16
45 2.11
53 2.95
54 3.36
55 42.86
56 40.64
57 40.54
58 1.77
60 11.87
61 18.26
67 3.15
68 9.81
69 31.33
70 49.75
71 49.84
72 2.13
73 11.89
74 1.21
75 1.13
81 1.39
82 10.01
83 34.37
84 35.69
85 2.04
87 7.63
89 2.38
97 4.05
98 1.49
99 57.65
100 2.71
101 1.3
112 39.01
113 3
115 1.13
116 7.47
117 88.02
118 4.47
157 1.76

$$$$

     RDKit          2D

 15 14  0  0  0  0  0  0  0  0999 V2000
    4.5466    7.1250    0.0000 C   0  0  0  0  0  0  0  0  0  0  0  0
  -12.3409    7.8750    0.0000 C   0  0  0  0  0  0  0  0  0  0  0  0
    3.2476    7.8750    0.0000 C   0  0  0  0  0  0  0  0  0  0  0  0
  -11.0418    7.1250    0.0000 C   0  0  0  0  0  0  0  0  0  0  0  0
    1.9486    7.1250    0.0000 C   0  0  0  0  0  0  0  0  0  0  0  0
   -9.7428    7.8750    0.0000 C   0  0  0  0  0  0  0  0  0  0  0  0
    0.6495    7.8750    0.0000 C   0  0  0  0  0  0  0  0  0  0  0  0
   -0.6495    7.1250    0.0000 C   0  0  0  0  0  0  0  0  0  0  0  0
   -8.4437    7.1250    0.0000 C   0  0  0  0  0  0  0  0  0  0  0  0
   -1.9486    7.8750    0.0000 C   0  0  0  0  0  0  0  0  0  0  0  0
   -7.1447    7.8750    0.0000 C   0  0  0  0  0  0  0  0  0  0  0  0
   -3.2476    7.1250    0.0000 C   0  0  0  0  0  0  0  0  0  0  0  0
   -5.8457    7.1250    0.0000 C   0  0  0  0  0  0  0  0  0  0  0  0
   -5.8457    5.6250    0.0000 O   0  0  0  0  0  0  0  0  0  0  0  0
   -4.5466    7.8750    0.0000 O   0  0  0  0  0  0  0  0  0  0  0  0
  3  1  1  0
  4  2  1  0
  5  3  1  0
  6  4  1  0
  7  5  1  0
  8  7  1  0
  9  6  1  0
 10  8  1  0
 11  9  1  0
 12 10  1  0
 13 11  1  0
 14 13  2  0
 15 12  1  0
 15 13  1  0
M  END
>  <NAME>  (3603) 
HEPTYL HEXANOATE

>  <SYNONYMS>  (3603) 


>  <SPECTRUM TYPE>  (3603) 
MS1

>  <INSTRUMENT TYPE>  (3603) 
EI-B

>  <INSTRUMENT>  (3603) 
HITACHI M-80B

>  <ION MODE>  (3603) 
P

>  <INCHIKEY>  (3603) 
QEKCBKVWQYEUGY-UHFFFAOYSA-N

>  <FORMULA>  (3603) 
C13H26O2

>  <EXACT MASS>  (3603) 
214.193280072

>  <MW>  (3603) 
214

>  <ID>  (3603) 
JP006993

>  <CONTRIBUTOR>  (3603) 
University of Tokyo Team, {Faculty of Engineering, University of Tokyo

>  <COMMENT>  (3603) 
SMILES=CCCCCCCOC(=O)CCCCC
InChI=InChI=1S/C13H26O2/c1-3-5-7-8-10-12-15-13(14)11-9-6-4-2/h3-12H2,1-2H3
computed SMILES=O=C(OCCCCCCC)CCCCC
accession=JP006993
date=2016.01.19 (Created 2008.10.21, modified 2011.05.06)
author=SODA AROMATIC CO., LTD.
license=CC BY-NC-SA
exact mass=214.19328
ionization energy=70 eV
ion type=[M]+*
computed spectral entropy=3.0653980518219672
computed normalized entropy=0.8052718254007653
SPLASH=splash10-0aov-9100000000-a3f7da3a3184f4cd0891
submitter=submitter = University of Tokyo Team (Faculty of Engineering, University of Tokyo)
MoNA Rating=3.75

>  <NUM PEAKS>  (3603) 
45

>  <MASS SPECTRAL PEAKS>  (3603) 
26 1.35
27 24.38
29 41.01
30 1.02
31 1.52
39 14.84
41 69.79
42 27.78
43 99.99
44 2.34
45 2.51
53 3.26
54 4.44
55 48.61
56 67.71
57 68.03
58 3.12
59 1.23
60 14.84
61 26.08
67 2.12
68 9.57
69 35.94
70 60.43
71 32.16
72 1.65
73 15.06
74 1.51
75 1.6
81 1.6
83 7.22
84 1.22
87 8.33
89 3.42
97 3.58
98 62.53
99 73.37
100 4.23
101 1.56
113 1.12
115 1.36
116 6.35
117 97.22
118 5.24
143 1.84

$$$$

     RDKit          2D

 14 13  0  0  0  0  0  0  0  0999 V2000
    3.8971    6.7500    0.0000 C   0  0  0  0  0  0  0  0  0  0  0  0
  -11.6913    6.7500    0.0000 C   0  0  0  0  0  0  0  0  0  0  0  0
    2.5981    7.5000    0.0000 C   0  0  0  0  0  0  0  0  0  0  0  0
  -10.3923    7.5000    0.0000 C   0  0  0  0  0  0  0  0  0  0  0  0
    1.2990    6.7500    0.0000 C   0  0  0  0  0  0  0  0  0  0  0  0
   -9.0933    6.7500    0.0000 C   0  0  0  0  0  0  0  0  0  0  0  0
    0.0000    7.5000    0.0000 C   0  0  0  0  0  0  0  0  0  0  0  0
   -7.7942    7.5000    0.0000 C   0  0  0  0  0  0  0  0  0  0  0  0
   -1.2990    6.7500    0.0000 C   0  0  0  0  0  0  0  0  0  0  0  0
   -6.4952    6.7500    0.0000 C   0  0  0  0  0  0  0  0  0  0  0  0
   -2.5981    7.5000    0.0000 C   0  0  0  0  0  0  0  0  0  0  0  0
   -5.1962    7.5000    0.0000 C   0  0  0  0  0  0  0  0  0  0  0  0
   -5.1962    9.0000    0.0000 O   0  0  0  0  0  0  0  0  0  0  0  0
   -3.8971    6.7500    0.0000 O   0  0  0  0  0  0  0  0  0  0  0  0
  3  1  1  0
  4  2  1  0
  5  3  1  0
  6  4  1  0
  7  5  1  0
  8  6  1  0
  9  7  1  0
 10  8  1  0
 11  9  1  0
 12 10  1  0
 13 12  2  0
 14 11  1  0
 14 12  1  0
M  END
>  <NAME>  (3604) 
HEXYL HEXANOATE

>  <SYNONYMS>  (3604) 


>  <SPECTRUM TYPE>  (3604) 
MS1

>  <INSTRUMENT TYPE>  (3604) 
EI-B

>  <INSTRUMENT>  (3604) 
HITACHI M-80B

>  <ION MODE>  (3604) 
P

>  <INCHIKEY>  (3604) 
NCDCLPBOMHPFCV-UHFFFAOYSA-N

>  <FORMULA>  (3604) 
C12H24O2

>  <EXACT MASS>  (3604) 
200.177630008

>  <MW>  (3604) 
200

>  <ID>  (3604) 
JP006992

>  <CONTRIBUTOR>  (3604) 
University of Tokyo Team, {Faculty of Engineering, University of Tokyo

>  <COMMENT>  (3604) 
SMILES=CCCCCCOC(=O)CCCCC
InChI=InChI=1S/C12H24O2/c1-3-5-7-9-11-14-12(13)10-8-6-4-2/h3-11H2,1-2H3
computed SMILES=O=C(OCCCCCC)CCCCC
accession=JP006992
date=2016.01.19 (Created 2008.10.21, modified 2011.05.06)
author=SODA AROMATIC CO., LTD.
license=CC BY-NC-SA
exact mass=200.17763
ionization energy=70 eV
ion type=[M]+*
computed spectral entropy=2.9460578851560184
computed normalized entropy=0.7986321921879276
SPLASH=splash10-0006-9100000000-33bceaef03295494e537
submitter=submitter = University of Tokyo Team (Faculty of Engineering, University of Tokyo)
MoNA Rating=3.75

>  <NUM PEAKS>  (3604) 
40

>  <MASS SPECTRAL PEAKS>  (3604) 
27 20.16
29 27.83
31 1.37
39 11.17
41 44.73
42 23.83
43 99.99
44 2.41
45 1.84
53 2.1
54 2.17
55 29.86
56 47.88
57 9.48
59 1.03
60 12.72
61 18.39
67 1.45
68 1.04
69 20.46
70 4.79
71 21.65
72 1.09
73 11.07
74 1.1
75 1.19
83 2.89
84 54.79
85 9.69
87 7.19
89 2.6
99 54.98
100 3
101 1.23
116 3.21
117 67.4
118 3.49
129 1.75
131 1.18
144 1.05

$$$$

     RDKit          2D

 13 12  0  0  0  0  0  0  0  0999 V2000
    3.2476    5.6250    0.0000 C   0  0  0  0  0  0  0  0  0  0  0  0
   -9.7428    5.6250    0.0000 C   0  0  0  0  0  0  0  0  0  0  0  0
   -8.4437    7.8750    0.0000 C   0  0  0  0  0  0  0  0  0  0  0  0
    1.9486    6.3750    0.0000 C   0  0  0  0  0  0  0  0  0  0  0  0
    0.6495    5.6250    0.0000 C   0  0  0  0  0  0  0  0  0  0  0  0
   -0.6495    6.3750    0.0000 C   0  0  0  0  0  0  0  0  0  0  0  0
   -1.9486    5.6250    0.0000 C   0  0  0  0  0  0  0  0  0  0  0  0
   -7.1447    5.6250    0.0000 C   0  0  0  0  0  0  0  0  0  0  0  0
   -5.8457    6.3750    0.0000 C   0  0  0  0  0  0  0  0  0  0  0  0
   -8.4437    6.3750    0.0000 C   0  0  0  0  0  0  0  0  0  0  0  0
   -3.2476    6.3750    0.0000 C   0  0  0  0  0  0  0  0  0  0  0  0
   -3.2476    7.8750    0.0000 O   0  0  0  0  0  0  0  0  0  0  0  0
   -4.5466    5.6250    0.0000 O   0  0  0  0  0  0  0  0  0  0  0  0
  4  1  1  0
  5  4  1  0
  6  5  1  0
  7  6  1  0
  9  8  1  0
 10  2  1  0
 10  3  1  0
 10  8  1  0
 11  7  1  0
 12 11  2  0
 13  9  1  0
 13 11  1  0
M  END
>  <NAME>  (3605) 
ISOPENTYL HEXANOATE

>  <SYNONYMS>  (3605) 


>  <SPECTRUM TYPE>  (3605) 
MS1

>  <INSTRUMENT TYPE>  (3605) 
EI-B

>  <INSTRUMENT>  (3605) 
HITACHI M-80B

>  <ION MODE>  (3605) 
P

>  <INCHIKEY>  (3605) 
XVSZRAWFCDHCBP-UHFFFAOYSA-N

>  <FORMULA>  (3605) 
C11H22O2

>  <EXACT MASS>  (3605) 
186.161979944

>  <MW>  (3605) 
186

>  <ID>  (3605) 
JP006991

>  <CONTRIBUTOR>  (3605) 
University of Tokyo Team, {Faculty of Engineering, University of Tokyo

>  <COMMENT>  (3605) 
SMILES=CCCCCC(=O)OCCC(C)C
InChI=InChI=1S/C11H22O2/c1-4-5-6-7-11(12)13-9-8-10(2)3/h10H,4-9H2,1-3H3
computed SMILES=O=C(OCCC(C)C)CCCCC
accession=JP006991
date=2016.01.19 (Created 2008.10.21, modified 2011.05.06)
author=SODA AROMATIC CO., LTD.
license=CC BY-NC-SA
exact mass=186.16198
ionization energy=70 eV
ion type=[M]+*
computed spectral entropy=2.447445542653675
computed normalized entropy=0.7511887735959829
SPLASH=splash10-00dl-9000000000-ce193357386508bde105
submitter=submitter = University of Tokyo Team (Faculty of Engineering, University of Tokyo)
MoNA Rating=3.75

>  <NUM PEAKS>  (3605) 
26

>  <MASS SPECTRAL PEAKS>  (3605) 
27 12.68
29 13.99
39 8.12
41 23.48
42 12.14
43 61.29
44 1.75
45 1.79
53 1.72
55 27.72
56 2.84
57 1.84
60 3.94
61 1.19
69 5.36
70 99.99
71 41.11
72 2.11
73 3.07
87 2.2
99 42.7
100 2.62
115 1.33
116 1.25
117 10.43
143 1.86

$$$$

     RDKit          2D

 13 12  0  0  0  0  0  0  0  0999 V2000
    3.8971    6.0000    0.0000 C   0  0  0  0  0  0  0  0  0  0  0  0
  -10.3923    6.7500    0.0000 C   0  0  0  0  0  0  0  0  0  0  0  0
    2.5981    6.7500    0.0000 C   0  0  0  0  0  0  0  0  0  0  0  0
   -9.0933    6.0000    0.0000 C   0  0  0  0  0  0  0  0  0  0  0  0
    1.2990    6.0000    0.0000 C   0  0  0  0  0  0  0  0  0  0  0  0
   -7.7942    6.7500    0.0000 C   0  0  0  0  0  0  0  0  0  0  0  0
    0.0000    6.7500    0.0000 C   0  0  0  0  0  0  0  0  0  0  0  0
   -6.4952    6.0000    0.0000 C   0  0  0  0  0  0  0  0  0  0  0  0
   -1.2990    6.0000    0.0000 C   0  0  0  0  0  0  0  0  0  0  0  0
   -5.1962    6.7500    0.0000 C   0  0  0  0  0  0  0  0  0  0  0  0
   -2.5981    6.7500    0.0000 C   0  0  0  0  0  0  0  0  0  0  0  0
   -2.5981    8.2500    0.0000 O   0  0  0  0  0  0  0  0  0  0  0  0
   -3.8971    6.0000    0.0000 O   0  0  0  0  0  0  0  0  0  0  0  0
  3  1  1  0
  4  2  1  0
  5  3  1  0
  6  4  1  0
  7  5  1  0
  8  6  1  0
  9  7  1  0
 10  8  1  0
 11  9  1  0
 12 11  2  0
 13 10  1  0
 13 11  1  0
M  END
>  <NAME>  (3606) 
PENTYL HEXANOATE

>  <SYNONYMS>  (3606) 


>  <SPECTRUM TYPE>  (3606) 
MS1

>  <INSTRUMENT TYPE>  (3606) 
EI-B

>  <INSTRUMENT>  (3606) 
HITACHI M-80B

>  <ION MODE>  (3606) 
P

>  <INCHIKEY>  (3606) 
WRFZKAGPPQGDDQ-UHFFFAOYSA-N

>  <FORMULA>  (3606) 
C11H22O2

>  <EXACT MASS>  (3606) 
186.161979944

>  <MW>  (3606) 
186

>  <ID>  (3606) 
JP006990

>  <CONTRIBUTOR>  (3606) 
University of Tokyo Team, {Faculty of Engineering, University of Tokyo

>  <COMMENT>  (3606) 
SMILES=CCCCCC(=O)OCCCCC
InChI=InChI=1S/C11H22O2/c1-3-5-7-9-11(12)13-10-8-6-4-2/h3-10H2,1-2H3
computed SMILES=O=C(OCCCCC)CCCCC
accession=JP006990
date=2016.01.19 (Created 2008.10.21, modified 2011.05.06)
author=SODA AROMATIC CO., LTD.
license=CC BY-NC-SA
exact mass=186.16198
ionization energy=70 eV
ion type=[M]+*
computed spectral entropy=2.843234815792665
computed normalized entropy=0.7760848841717698
SPLASH=splash10-006x-9100000000-b7ff3c25d7676b000ff7
submitter=submitter = University of Tokyo Team (Faculty of Engineering, University of Tokyo)
MoNA Rating=3.75

>  <NUM PEAKS>  (3606) 
39

>  <MASS SPECTRAL PEAKS>  (3606) 
26 1.25
27 24.52
29 33.64
31 1.69
39 13.86
41 47.87
42 34.77
43 99.99
44 3.15
45 2.33
53 2.14
54 1.28
55 34.29
56 6.26
57 4.52
60 19.07
61 12.8
69 11.58
70 98.25
71 39.9
72 1.76
73 15.71
74 1.75
75 1.61
83 1.05
85 1.94
87 9.14
89 3.36
97 1.18
99 70.71
100 5.05
101 1.07
102 1.29
103 1.27
115 2.38
116 3.44
117 75.64
118 4.86
130 2.72

$$$$

     RDKit          2D

 12 11  0  0  0  0  0  0  0  0999 V2000
    2.9228    5.4375    0.0000 C   0  0  0  0  0  0  0  0  0  0  0  0
   -8.7685    6.1875    0.0000 C   0  0  0  0  0  0  0  0  0  0  0  0
   -7.4695    3.9375    0.0000 C   0  0  0  0  0  0  0  0  0  0  0  0
    1.6238    6.1875    0.0000 C   0  0  0  0  0  0  0  0  0  0  0  0
    0.3248    5.4375    0.0000 C   0  0  0  0  0  0  0  0  0  0  0  0
   -0.9743    6.1875    0.0000 C   0  0  0  0  0  0  0  0  0  0  0  0
   -2.2733    5.4375    0.0000 C   0  0  0  0  0  0  0  0  0  0  0  0
   -6.1704    6.1875    0.0000 C   0  0  0  0  0  0  0  0  0  0  0  0
   -7.4695    5.4375    0.0000 C   0  0  0  0  0  0  0  0  0  0  0  0
   -3.5724    6.1875    0.0000 C   0  0  0  0  0  0  0  0  0  0  0  0
   -3.5724    7.6875    0.0000 O   0  0  0  0  0  0  0  0  0  0  0  0
   -4.8714    5.4375    0.0000 O   0  0  0  0  0  0  0  0  0  0  0  0
  4  1  1  0
  5  4  1  0
  6  5  1  0
  7  6  1  0
  9  2  1  0
  9  3  1  0
  9  8  1  0
 10  7  1  0
 11 10  2  0
 12  8  1  0
 12 10  1  0
M  END
>  <NAME>  (3607) 
ISOBUTYL HEXANOATE

>  <SYNONYMS>  (3607) 


>  <SPECTRUM TYPE>  (3607) 
MS1

>  <INSTRUMENT TYPE>  (3607) 
EI-B

>  <INSTRUMENT>  (3607) 
HITACHI M-80B

>  <ION MODE>  (3607) 
P

>  <INCHIKEY>  (3607) 
UXUPPWPIGVTVQI-UHFFFAOYSA-N

>  <FORMULA>  (3607) 
C10H20O2

>  <EXACT MASS>  (3607) 
172.14632988

>  <MW>  (3607) 
172

>  <ID>  (3607) 
JP006989

>  <CONTRIBUTOR>  (3607) 
University of Tokyo Team, {Faculty of Engineering, University of Tokyo

>  <COMMENT>  (3607) 
SMILES=CCCCCC(=O)OCC(C)C
InChI=InChI=1S/C10H20O2/c1-4-5-6-7-10(11)12-8-9(2)3/h9H,4-8H2,1-3H3
computed SMILES=O=C(OCC(C)C)CCCCC
accession=JP006989
date=2016.01.19 (Created 2008.10.21, modified 2011.05.06)
author=SODA AROMATIC CO., LTD.
license=CC BY-NC-SA
exact mass=172.14633
ionization energy=70 eV
ion type=[M]+*
computed spectral entropy=2.7251826508703116
computed normalized entropy=0.7863214991854476
SPLASH=splash10-0a4m-9000000000-2cad1057395421f637d5
submitter=submitter = University of Tokyo Team (Faculty of Engineering, University of Tokyo)
MoNA Rating=3.75

>  <NUM PEAKS>  (3607) 
32

>  <MASS SPECTRAL PEAKS>  (3607) 
27 18.77
29 27.55
31 1.78
39 13.41
41 43.28
42 11.7
43 55.31
44 1.32
45 1.46
53 1.74
55 12.62
56 76.41
57 47.17
58 1.89
60 18.43
61 2.95
69 2.9
70 4.49
71 27.22
72 1.36
73 11.98
74 1.4
86 1.09
87 6.02
89 1.06
99 99.99
100 7.34
116 6.92
117 29.24
118 1.73
129 1.61
142 1.09

$$$$

     RDKit          2D

 12 11  0  0  0  0  0  0  0  0999 V2000
    3.2476    5.6250    0.0000 C   0  0  0  0  0  0  0  0  0  0  0  0
   -9.7428    5.6250    0.0000 C   0  0  0  0  0  0  0  0  0  0  0  0
    1.9486    6.3750    0.0000 C   0  0  0  0  0  0  0  0  0  0  0  0
   -8.4437    6.3750    0.0000 C   0  0  0  0  0  0  0  0  0  0  0  0
    0.6495    5.6250    0.0000 C   0  0  0  0  0  0  0  0  0  0  0  0
   -7.1447    5.6250    0.0000 C   0  0  0  0  0  0  0  0  0  0  0  0
   -0.6495    6.3750    0.0000 C   0  0  0  0  0  0  0  0  0  0  0  0
   -1.9486    5.6250    0.0000 C   0  0  0  0  0  0  0  0  0  0  0  0
   -5.8457    6.3750    0.0000 C   0  0  0  0  0  0  0  0  0  0  0  0
   -3.2476    6.3750    0.0000 C   0  0  0  0  0  0  0  0  0  0  0  0
   -3.2476    7.8750    0.0000 O   0  0  0  0  0  0  0  0  0  0  0  0
   -4.5466    5.6250    0.0000 O   0  0  0  0  0  0  0  0  0  0  0  0
  3  1  1  0
  4  2  1  0
  5  3  1  0
  6  4  1  0
  7  5  1  0
  8  7  1  0
  9  6  1  0
 10  8  1  0
 11 10  2  0
 12  9  1  0
 12 10  1  0
M  END
>  <NAME>  (3608) 
BUTYL HEXANOATE

>  <SYNONYMS>  (3608) 


>  <SPECTRUM TYPE>  (3608) 
MS1

>  <INSTRUMENT TYPE>  (3608) 
EI-B

>  <INSTRUMENT>  (3608) 
HITACHI M-80B

>  <ION MODE>  (3608) 
P

>  <INCHIKEY>  (3608) 
RPRPDTXKGSIXMD-UHFFFAOYSA-N

>  <FORMULA>  (3608) 
C10H20O2

>  <EXACT MASS>  (3608) 
172.14632988

>  <MW>  (3608) 
172

>  <ID>  (3608) 
JP006988

>  <CONTRIBUTOR>  (3608) 
University of Tokyo Team, {Faculty of Engineering, University of Tokyo

>  <COMMENT>  (3608) 
SMILES=CCCCCC(=O)OCCCC
InChI=InChI=1S/C10H20O2/c1-3-5-7-8-10(11)12-9-6-4-2/h3-9H2,1-2H3
computed SMILES=O=C(OCCCC)CCCCC
accession=JP006988
date=2016.01.19 (Created 2008.10.21, modified 2011.05.06)
author=SODA AROMATIC CO., LTD.
license=CC BY-NC-SA
exact mass=172.14633
ionization energy=70 eV
ion type=[M]+*
computed spectral entropy=2.8795494633440666
computed normalized entropy=0.7916099679576146
SPLASH=splash10-0ar4-9100000000-a9080f56e2b36fd03d56
submitter=submitter = University of Tokyo Team (Faculty of Engineering, University of Tokyo)
MoNA Rating=3.75

>  <NUM PEAKS>  (3608) 
38

>  <MASS SPECTRAL PEAKS>  (3608) 
26 1.58
27 28.4
29 46.21
30 1.16
31 2.08
39 16.18
41 57.58
42 15.22
43 67.88
44 1.7
45 2.79
53 2.09
54 1.06
55 21.55
56 99.99
57 32.57
58 1.32
60 29.96
61 9.75
69 5.9
70 4.56
71 28.25
72 1.55
73 20.89
74 2.19
75 1.91
83 1.18
86 1.19
87 10.5
89 4.67
97 1.23
99 85.97
100 5.94
101 3.19
116 8.47
117 75.06
118 5.06
129 1.98

$$$$

     RDKit          2D

 11 10  0  0  0  0  0  0  0  0999 V2000
    2.5981    4.5000    0.0000 C   0  0  0  0  0  0  0  0  0  0  0  0
   -7.7942    4.5000    0.0000 C   0  0  0  0  0  0  0  0  0  0  0  0
   -6.4952    6.7500    0.0000 C   0  0  0  0  0  0  0  0  0  0  0  0
    1.2990    5.2500    0.0000 C   0  0  0  0  0  0  0  0  0  0  0  0
    0.0000    4.5000    0.0000 C   0  0  0  0  0  0  0  0  0  0  0  0
   -1.2990    5.2500    0.0000 C   0  0  0  0  0  0  0  0  0  0  0  0
   -2.5981    4.5000    0.0000 C   0  0  0  0  0  0  0  0  0  0  0  0
   -6.4952    5.2500    0.0000 C   0  0  0  0  0  0  0  0  0  0  0  0
   -3.8971    5.2500    0.0000 C   0  0  0  0  0  0  0  0  0  0  0  0
   -3.8971    6.7500    0.0000 O   0  0  0  0  0  0  0  0  0  0  0  0
   -5.1962    4.5000    0.0000 O   0  0  0  0  0  0  0  0  0  0  0  0
  4  1  1  0
  5  4  1  0
  6  5  1  0
  7  6  1  0
  8  2  1  0
  8  3  1  0
  9  7  1  0
 10  9  2  0
 11  8  1  0
 11  9  1  0
M  END
>  <NAME>  (3609) 
ISOPROPYL HEXANOATE

>  <SYNONYMS>  (3609) 


>  <SPECTRUM TYPE>  (3609) 
MS1

>  <INSTRUMENT TYPE>  (3609) 
EI-B

>  <INSTRUMENT>  (3609) 
HITACHI M-80B

>  <ION MODE>  (3609) 
P

>  <INCHIKEY>  (3609) 
JSHDAORXSNJOBA-UHFFFAOYSA-N

>  <FORMULA>  (3609) 
C9H18O2

>  <EXACT MASS>  (3609) 
158.130679816

>  <MW>  (3609) 
158

>  <ID>  (3609) 
JP006987

>  <CONTRIBUTOR>  (3609) 
University of Tokyo Team, {Faculty of Engineering, University of Tokyo

>  <COMMENT>  (3609) 
SMILES=CCCCCC(=O)OC(C)C
InChI=InChI=1S/C9H18O2/c1-4-5-6-7-9(10)11-8(2)3/h8H,4-7H2,1-3H3
computed SMILES=O=C(OC(C)C)CCCCC
accession=JP006987
date=2016.01.19 (Created 2008.10.21, modified 2011.05.06)
author=SODA AROMATIC CO., LTD.
license=CC BY-NC-SA
exact mass=158.13068
ionization energy=70 eV
ion type=[M]+*
computed spectral entropy=2.878854724460254
computed normalized entropy=0.7804144213088012
SPLASH=splash10-0006-9100000000-65c44990c986622035d4
submitter=submitter = University of Tokyo Team (Faculty of Engineering, University of Tokyo)
MoNA Rating=3.75

>  <NUM PEAKS>  (3609) 
40

>  <MASS SPECTRAL PEAKS>  (3609) 
14 1.11
15 1.09
26 1.58
27 15.5
29 6.34
31 1.21
39 10.83
41 31.25
42 17.55
43 99.99
44 1.91
45 3.6
53 1.53
55 8.74
56 5.85
57 3.32
58 1.08
59 18.05
60 49.48
61 6.86
69 4.67
70 4.17
71 21.68
72 1.54
73 13.31
74 2.44
75 1.25
83 1.04
87 7.39
89 2.37
97 1.77
98 1.06
99 69.53
100 4.7
102 18.97
103 1.39
116 10.9
117 36.68
118 2.44
143 2.85

$$$$

     RDKit          2D

 11 10  0  0  0  0  0  0  0  0999 V2000
   -8.4437    5.6250    0.0000 C   0  0  0  0  0  0  0  0  0  0  0  0
    3.2476    4.8750    0.0000 C   0  0  0  0  0  0  0  0  0  0  0  0
   -7.1447    4.8750    0.0000 C   0  0  0  0  0  0  0  0  0  0  0  0
    1.9486    5.6250    0.0000 C   0  0  0  0  0  0  0  0  0  0  0  0
   -5.8457    5.6250    0.0000 C   0  0  0  0  0  0  0  0  0  0  0  0
   -4.5466    4.8750    0.0000 C   0  0  0  0  0  0  0  0  0  0  0  0
   -3.2476    5.6250    0.0000 C   0  0  0  0  0  0  0  0  0  0  0  0
    0.6495    4.8750    0.0000 C   0  0  0  0  0  0  0  0  0  0  0  0
   -1.9486    4.8750    0.0000 C   0  0  0  0  0  0  0  0  0  0  0  0
   -1.9486    3.3750    0.0000 O   0  0  0  0  0  0  0  0  0  0  0  0
   -0.6495    5.6250    0.0000 O   0  0  0  0  0  0  0  0  0  0  0  0
  3  1  1  0
  4  2  1  0
  5  3  1  0
  6  5  1  0
  7  6  1  0
  8  4  1  0
  9  7  1  0
 10  9  2  0
 11  8  1  0
 11  9  1  0
M  END
>  <NAME>  (3610) 
PROPYL HEXANOATE

>  <SYNONYMS>  (3610) 


>  <SPECTRUM TYPE>  (3610) 
MS1

>  <INSTRUMENT TYPE>  (3610) 
EI-B

>  <INSTRUMENT>  (3610) 
HITACHI M-80B

>  <ION MODE>  (3610) 
P

>  <INCHIKEY>  (3610) 
HTUIWRWYYVBCFT-UHFFFAOYSA-N

>  <FORMULA>  (3610) 
C9H18O2

>  <EXACT MASS>  (3610) 
158.130679816

>  <MW>  (3610) 
158

>  <ID>  (3610) 
JP006986

>  <CONTRIBUTOR>  (3610) 
University of Tokyo Team, {Faculty of Engineering, University of Tokyo

>  <COMMENT>  (3610) 
SMILES=CCCCCC(=O)OCCC
InChI=InChI=1S/C9H18O2/c1-3-5-6-7-9(10)11-8-4-2/h3-8H2,1-2H3
computed SMILES=O=C(OCCC)CCCCC
accession=JP006986
date=2016.01.19 (Created 2008.10.21, modified 2011.05.06)
author=SODA AROMATIC CO., LTD.
license=CC BY-NC-SA
exact mass=158.13068
ionization energy=70 eV
ion type=[M]+*
computed spectral entropy=2.89419386711451
computed normalized entropy=0.8015119526755269
SPLASH=splash10-0006-9100000000-78e2f22b459e7b745a6c
submitter=submitter = University of Tokyo Team (Faculty of Engineering, University of Tokyo)
MoNA Rating=3.75

>  <NUM PEAKS>  (3610) 
37

>  <MASS SPECTRAL PEAKS>  (3610) 
15 1.76
26 2.13
27 40.12
29 27.59
30 1.14
31 4.44
39 17.81
41 49.71
42 30.48
43 99.99
44 2.09
45 3.74
53 1.47
55 14.94
56 2.6
57 2.56
59 6.99
60 41.71
61 42.18
69 6.15
70 4.68
71 23.73
72 1.47
73 20.8
74 2.18
75 1.88
83 1.07
87 10.86
89 4.06
99 67.43
100 4.01
102 9.91
115 2.2
116 1.86
117 50.65
118 2.35
129 1.18

$$$$

     RDKit          2D

 10  9  0  0  0  0  0  0  0  0999 V2000
    2.5981    4.5000    0.0000 C   0  0  0  0  0  0  0  0  0  0  0  0
   -7.7942    4.5000    0.0000 C   0  0  0  0  0  0  0  0  0  0  0  0
    1.2990    5.2500    0.0000 C   0  0  0  0  0  0  0  0  0  0  0  0
   -6.4952    5.2500    0.0000 C   0  0  0  0  0  0  0  0  0  0  0  0
    0.0000    4.5000    0.0000 C   0  0  0  0  0  0  0  0  0  0  0  0
   -1.2990    5.2500    0.0000 C   0  0  0  0  0  0  0  0  0  0  0  0
   -2.5981    4.5000    0.0000 C   0  0  0  0  0  0  0  0  0  0  0  0
   -3.8971    5.2500    0.0000 C   0  0  0  0  0  0  0  0  0  0  0  0
   -3.8971    6.7500    0.0000 O   0  0  0  0  0  0  0  0  0  0  0  0
   -5.1962    4.5000    0.0000 O   0  0  0  0  0  0  0  0  0  0  0  0
  3  1  1  0
  4  2  1  0
  5  3  1  0
  6  5  1  0
  7  6  1  0
  8  7  1  0
  9  8  2  0
 10  4  1  0
 10  8  1  0
M  END
>  <NAME>  (3611) 
ETHYL HEXANOATE

>  <SYNONYMS>  (3611) 


>  <SPECTRUM TYPE>  (3611) 
MS1

>  <INSTRUMENT TYPE>  (3611) 
EI-B

>  <INSTRUMENT>  (3611) 
HITACHI M-80B

>  <ION MODE>  (3611) 
P

>  <INCHIKEY>  (3611) 
SHZIWNPUGXLXDT-UHFFFAOYSA-N

>  <FORMULA>  (3611) 
C8H16O2

>  <EXACT MASS>  (3611) 
144.115029752

>  <MW>  (3611) 
144

>  <ID>  (3611) 
JP006985

>  <CONTRIBUTOR>  (3611) 
University of Tokyo Team, {Faculty of Engineering, University of Tokyo

>  <COMMENT>  (3611) 
SMILES=CCCCCC(=O)OCC
InChI=InChI=1S/C8H16O2/c1-3-5-6-7-8(9)10-4-2/h3-7H2,1-2H3
computed SMILES=O=C(OCC)CCCCC
accession=JP006985
date=2016.01.19 (Created 2008.10.21, modified 2011.05.06)
author=SODA AROMATIC CO., LTD.
license=CC BY-NC-SA
exact mass=144.11503
ionization energy=70 eV
ion type=[M]+*
computed spectral entropy=2.96900067256779
computed normalized entropy=0.8162007832114455
SPLASH=splash10-01tl-9000000000-b511103509087502c6df
submitter=submitter = University of Tokyo Team (Faculty of Engineering, University of Tokyo)
MoNA Rating=3.75

>  <NUM PEAKS>  (3611) 
38

>  <MASS SPECTRAL PEAKS>  (3611) 
15 2.8
26 4
27 47.13
29 79.07
30 1.95
31 2.37
39 19.35
41 41.9
42 23.86
43 77.63
44 2.36
45 22.83
53 2.43
54 1.04
55 20.66
56 3.15
57 2.9
59 1.25
60 46.17
61 26.33
69 7.62
70 25.5
71 26.83
72 1.1
73 28.16
74 4.47
83 1.09
87 7.36
88 99.99
89 4.98
97 1.71
98 1.02
99 53.52
100 2.61
101 25.86
102 2.6
115 7.83
117 3.53

$$$$

     RDKit          2D

  9  8  0  0  0  0  0  0  0  0999 V2000
   -6.4952    4.5000    0.0000 C   0  0  0  0  0  0  0  0  0  0  0  0
    2.5981    3.7500    0.0000 C   0  0  0  0  0  0  0  0  0  0  0  0
   -5.1962    3.7500    0.0000 C   0  0  0  0  0  0  0  0  0  0  0  0
   -3.8971    4.5000    0.0000 C   0  0  0  0  0  0  0  0  0  0  0  0
   -2.5981    3.7500    0.0000 C   0  0  0  0  0  0  0  0  0  0  0  0
   -1.2990    4.5000    0.0000 C   0  0  0  0  0  0  0  0  0  0  0  0
    0.0000    3.7500    0.0000 C   0  0  0  0  0  0  0  0  0  0  0  0
   -0.0000    2.2500    0.0000 O   0  0  0  0  0  0  0  0  0  0  0  0
    1.2990    4.5000    0.0000 O   0  0  0  0  0  0  0  0  0  0  0  0
  3  1  1  0
  4  3  1  0
  5  4  1  0
  6  5  1  0
  7  6  1  0
  8  7  2  0
  9  2  1  0
  9  7  1  0
M  END
>  <NAME>  (3612) 
METHYL HEXANOATE

>  <SYNONYMS>  (3612) 


>  <SPECTRUM TYPE>  (3612) 
MS1

>  <INSTRUMENT TYPE>  (3612) 
EI-B

>  <INSTRUMENT>  (3612) 
HITACHI M-80B

>  <ION MODE>  (3612) 
P

>  <INCHIKEY>  (3612) 
NUKZAGXMHTUAFE-UHFFFAOYSA-N

>  <FORMULA>  (3612) 
C7H14O2

>  <EXACT MASS>  (3612) 
130.099379688

>  <MW>  (3612) 
130

>  <ID>  (3612) 
JP006984

>  <CONTRIBUTOR>  (3612) 
University of Tokyo Team, {Faculty of Engineering, University of Tokyo

>  <COMMENT>  (3612) 
SMILES=CCCCCC(=O)OC
InChI=InChI=1S/C7H14O2/c1-3-4-5-6-7(8)9-2/h3-6H2,1-2H3
computed SMILES=O=C(OC)CCCCC
accession=JP006984
date=2016.01.19 (Created 2008.10.21, modified 2011.05.06)
author=SODA AROMATIC CO., LTD.
license=CC BY-NC-SA
exact mass=130.09938
ionization energy=70 eV
ion type=[M]+*
computed spectral entropy=2.6213471522209373
computed normalized entropy=0.7953510015193495
SPLASH=splash10-00dl-9000000000-a2223723dd919d58ae77
submitter=submitter = University of Tokyo Team (Faculty of Engineering, University of Tokyo)
MoNA Rating=3.75

>  <NUM PEAKS>  (3612) 
27

>  <MASS SPECTRAL PEAKS>  (3612) 
15 8.48
26 1.23
27 15.35
29 13.07
31 2.08
39 11.87
41 22.13
42 11.28
43 39.88
44 1.51
45 1.96
53 1.45
55 12.69
56 1.68
57 4.2
59 21.15
69 2.99
70 3.76
71 8.63
73 1.23
74 99.99
75 5.09
87 32.45
88 4.49
99 19.89
100 1.19
101 8.04

$$$$

     RDKit          2D

 16 15  0  0  0  0  0  0  0  0999 V2000
    2.5981   12.7500    0.0000 C   0  0  0  0  0  0  0  0  0  0  0  0
    3.8971   10.5000    0.0000 C   0  0  0  0  0  0  0  0  0  0  0  0
   -7.7942    6.7500    0.0000 C   0  0  0  0  0  0  0  0  0  0  0  0
   -6.4952    4.5000    0.0000 C   0  0  0  0  0  0  0  0  0  0  0  0
    1.2990    6.0000    0.0000 C   0  0  0  0  0  0  0  0  0  0  0  0
    1.2990    9.0000    0.0000 C   0  0  0  0  0  0  0  0  0  0  0  0
    1.2990   10.5000    0.0000 C   0  0  0  0  0  0  0  0  0  0  0  0
    0.0000    8.2500    0.0000 C   0  0  0  0  0  0  0  0  0  0  0  0
   -1.2990    6.0000    0.0000 C   0  0  0  0  0  0  0  0  0  0  0  0
   -2.5981    6.7500    0.0000 C   0  0  0  0  0  0  0  0  0  0  0  0
    2.5981   11.2500    0.0000 C   0  0  0  0  0  0  0  0  0  0  0  0
   -6.4952    6.0000    0.0000 C   0  0  0  0  0  0  0  0  0  0  0  0
    0.0000    6.7500    0.0000 C   0  0  0  0  0  0  0  0  0  0  0  0
   -5.1962    6.7500    0.0000 C   0  0  0  0  0  0  0  0  0  0  0  0
   -5.1962    8.2500    0.0000 O   0  0  0  0  0  0  0  0  0  0  0  0
   -3.8971    6.0000    0.0000 O   0  0  0  0  0  0  0  0  0  0  0  0
  7  6  1  0
  8  6  1  0
 10  9  1  0
 11  1  1  0
 11  2  1  0
 11  7  2  0
 12  3  1  0
 12  4  1  0
 13  5  1  0
 13  8  1  0
  9 13  2  0
 14 12  1  0
 15 14  2  0
 16 10  1  0
 16 14  1  0
M  END
>  <NAME>  (3613) 
NERYL ISOBUTYRATE

>  <SYNONYMS>  (3613) 
3,7-DIMETHYL-2,6-OCTADIEN-1-YL ISOBUTYRATE

>  <SPECTRUM TYPE>  (3613) 
MS1

>  <INSTRUMENT TYPE>  (3613) 
EI-B

>  <INSTRUMENT>  (3613) 
HITACHI M-80B

>  <ION MODE>  (3613) 
P

>  <INCHIKEY>  (3613) 
OGJYXQFXLSCKTP-LCYFTJDESA-N

>  <FORMULA>  (3613) 
C14H24O2

>  <EXACT MASS>  (3613) 
224.177630008

>  <MW>  (3613) 
224

>  <ID>  (3613) 
JP006983

>  <CONTRIBUTOR>  (3613) 
University of Tokyo Team, {Faculty of Engineering, University of Tokyo

>  <COMMENT>  (3613) 
SMILES=CC(C)=CCCC(C)=CCOC(=O)C(C)C
InChI=InChI=1S/C14H24O2/c1-11(2)7-6-8-13(5)9-10-16-14(15)12(3)4/h7,9,12H,6,8,10H2,1-5H3/b13-9-
computed SMILES=O=C(OCC=C(C)CCC=C(C)C)C(C)C
accession=JP006983
date=2016.01.19 (Created 2008.10.21, modified 2011.05.06)
author=SODA AROMATIC CO., LTD.
license=CC BY-NC-SA
exact mass=224.17763
ionization energy=70 eV
ion type=[M]+*
computed spectral entropy=2.9162507637812203
computed normalized entropy=0.7706407569119755
SPLASH=splash10-00kf-9000000000-0700f13d233209c71240
submitter=submitter = University of Tokyo Team (Faculty of Engineering, University of Tokyo)
MoNA Rating=3.75

>  <NUM PEAKS>  (3613) 
44

>  <MASS SPECTRAL PEAKS>  (3613) 
27 12.44
28 1.06
29 4.49
39 12.42
40 3.13
41 62.23
42 4.63
43 56.25
44 1.99
51 1.09
52 1.26
53 12.05
54 1.53
55 4.98
57 1.23
65 1.97
66 1.34
67 13.91
68 47.64
69 99.99
70 4.74
71 32.55
77 2.53
79 4.23
80 22.66
81 13.62
82 1.61
84 1.47
85 1.04
89 1.01
91 2.49
92 7.83
93 48.52
95 3.19
105 1.6
107 5.06
108 1.67
121 20.11
122 2.04
123 2.14
136 15.8
137 3.1
154 1.93
155 1.14

$$$$

     RDKit          2D

 16 15  0  0  0  0  0  0  0  0999 V2000
   -6.8544    6.5907    0.0000 C   0  0  0  0  0  0  0  0  0  0  0  0
    2.0822    4.9522    0.0000 C   0  0  0  0  0  0  0  0  0  0  0  0
    0.7831    7.2022    0.0000 C   0  0  0  0  0  0  0  0  0  0  0  0
   -7.0111    1.2022    0.0000 C   0  0  0  0  0  0  0  0  0  0  0  0
   -8.3101    3.4522    0.0000 C   0  0  0  0  0  0  0  0  0  0  0  0
   -3.4488    6.8512    0.0000 C   0  0  0  0  0  0  0  0  0  0  0  0
   -5.3772    6.8512    0.0000 C   0  0  0  0  0  0  0  0  0  0  0  0
   -1.8149    5.7022    0.0000 C   0  0  0  0  0  0  0  0  0  0  0  0
   -0.5159    4.9522    0.0000 C   0  0  0  0  0  0  0  0  0  0  0  0
   -3.1140    4.9522    0.0000 C   0  0  0  0  0  0  0  0  0  0  0  0
    0.7831    5.7022    0.0000 C   0  0  0  0  0  0  0  0  0  0  0  0
   -7.0111    2.7022    0.0000 C   0  0  0  0  0  0  0  0  0  0  0  0
   -5.7120    3.4522    0.0000 C   0  0  0  0  0  0  0  0  0  0  0  0
   -4.4130    5.7022    0.0000 C   0  0  0  0  0  0  0  0  0  0  0  0
   -4.4130    2.7022    0.0000 O   0  0  0  0  0  0  0  0  0  0  0  0
   -5.7120    4.9522    0.0000 O   0  0  0  0  0  0  0  0  0  0  0  0
  7  1  2  0
  9  8  1  0
 10  8  1  0
 11  2  1  0
 11  3  1  0
 11  9  2  0
 12  4  1  0
 12  5  1  0
 13 12  1  0
 14  6  1  0
 14  7  1  0
 14 10  1  0
 15 13  2  0
 16 13  1  0
 16 14  1  0
M  END
>  <NAME>  (3614) 
LINALYL ISOBUTYRATE

>  <SYNONYMS>  (3614) 
3,7-DIMETHYL-1,6-OCTADIEN-3-YL ISOBUTYRATE

>  <SPECTRUM TYPE>  (3614) 
MS1

>  <INSTRUMENT TYPE>  (3614) 
EI-B

>  <INSTRUMENT>  (3614) 
HITACHI M-80B

>  <ION MODE>  (3614) 
P

>  <INCHIKEY>  (3614) 
JZIARAQCPRDGAC-UHFFFAOYSA-N

>  <FORMULA>  (3614) 
C14H24O2

>  <EXACT MASS>  (3614) 
224.177630008

>  <MW>  (3614) 
224

>  <ID>  (3614) 
JP006982

>  <CONTRIBUTOR>  (3614) 
University of Tokyo Team, {Faculty of Engineering, University of Tokyo

>  <COMMENT>  (3614) 
SMILES=CC(C)=CCCC(C)(C=C)OC(=O)C(C)C
InChI=InChI=1S/C14H24O2/c1-7-14(6,10-8-9-11(2)3)16-13(15)12(4)5/h7,9,12H,1,8,10H2,2-6H3
computed SMILES=O=C(OC(C=C)(C)CCC=C(C)C)C(C)C
computed spectral entropy=3.0590652582809272
accession=JP006982
date=2016.01.19 (Created 2008.10.21, modified 2011.05.06)
author=SODA AROMATIC CO., LTD.
license=CC BY-NC-SA
exact mass=224.17763
ionization energy=70 eV
ion type=[M]+*
computed normalized entropy=0.7989949805918419
SPLASH=splash10-0006-9100000000-95e0e1093fb13ae05231
submitter=submitter = University of Tokyo Team (Faculty of Engineering, University of Tokyo)
MoNA Rating=3.75

>  <NUM PEAKS>  (3614) 
46

>  <MASS SPECTRAL PEAKS>  (3614) 
17 1.88
18 2.97
27 15.04
29 5
39 9.94
40 2.62
41 53.2
42 4.49
43 65.45
44 2.39
51 1.48
52 1.22
53 10.33
54 1.61
55 14.05
56 1.28
57 1.14
65 1.83
66 1.31
67 13.84
68 15.7
69 47.89
70 3.4
71 38.12
72 1.72
77 4.1
78 1.17
79 6.66
80 41.95
81 25.53
82 2.68
83 3.8
91 5.09
92 15.68
93 99.99
94 9.46
95 3.88
105 3.31
107 7.38
108 2.05
109 1.4
121 34.43
122 3.13
136 9.5
137 4.91
154 1.33

$$$$

     RDKit          2D

 16 15  0  0  0  0  0  0  0  0999 V2000
    3.8971    6.0000    0.0000 C   0  0  0  0  0  0  0  0  0  0  0  0
    2.5981    8.2500    0.0000 C   0  0  0  0  0  0  0  0  0  0  0  0
  -10.3923    6.7500    0.0000 C   0  0  0  0  0  0  0  0  0  0  0  0
   -9.0933    4.5000    0.0000 C   0  0  0  0  0  0  0  0  0  0  0  0
   -2.5981    8.2500    0.0000 C   0  0  0  0  0  0  0  0  0  0  0  0
    0.0000    6.7500    0.0000 C   0  0  0  0  0  0  0  0  0  0  0  0
    1.2990    6.0000    0.0000 C   0  0  0  0  0  0  0  0  0  0  0  0
   -1.2990    6.0000    0.0000 C   0  0  0  0  0  0  0  0  0  0  0  0
   -3.8971    6.0000    0.0000 C   0  0  0  0  0  0  0  0  0  0  0  0
   -5.1962    6.7500    0.0000 C   0  0  0  0  0  0  0  0  0  0  0  0
    2.5981    6.7500    0.0000 C   0  0  0  0  0  0  0  0  0  0  0  0
   -9.0933    6.0000    0.0000 C   0  0  0  0  0  0  0  0  0  0  0  0
   -2.5981    6.7500    0.0000 C   0  0  0  0  0  0  0  0  0  0  0  0
   -7.7942    6.7500    0.0000 C   0  0  0  0  0  0  0  0  0  0  0  0
   -7.7942    8.2500    0.0000 O   0  0  0  0  0  0  0  0  0  0  0  0
   -6.4952    6.0000    0.0000 O   0  0  0  0  0  0  0  0  0  0  0  0
  7  6  1  0
  8  6  1  0
 10  9  1  0
 11  1  1  0
 11  2  1  0
 11  7  2  0
 12  3  1  0
 12  4  1  0
 13  5  1  0
 13  8  1  0
  9 13  2  0
 14 12  1  0
 15 14  2  0
 16 10  1  0
 16 14  1  0
M  END
>  <NAME>  (3615) 
GERANYL ISOBUTYRATE

>  <SYNONYMS>  (3615) 
3,7-DIMETHYL-2,6-OCTADIENYL ISOBUTYRATE

>  <SPECTRUM TYPE>  (3615) 
MS1

>  <INSTRUMENT TYPE>  (3615) 
EI-B

>  <INSTRUMENT>  (3615) 
HITACHI M-80B

>  <ION MODE>  (3615) 
P

>  <INCHIKEY>  (3615) 
OGJYXQFXLSCKTP-UKTHLTGXSA-N

>  <FORMULA>  (3615) 
C14H24O2

>  <EXACT MASS>  (3615) 
224.177630008

>  <MW>  (3615) 
224

>  <ID>  (3615) 
JP006981

>  <CONTRIBUTOR>  (3615) 
University of Tokyo Team, {Faculty of Engineering, University of Tokyo

>  <COMMENT>  (3615) 
SMILES=CC(C)=CCCC(C)=CCOC(=O)C(C)C
InChI=InChI=1S/C14H24O2/c1-11(2)7-6-8-13(5)9-10-16-14(15)12(3)4/h7,9,12H,6,8,10H2,1-5H3/b13-9+
computed SMILES=O=C(OCC=C(C)CCC=C(C)C)C(C)C
accession=JP006981
date=2016.01.19 (Created 2008.10.21, modified 2011.05.06)
author=SODA AROMATIC CO., LTD.
license=CC BY-NC-SA
exact mass=224.17763
ionization energy=70 eV
ion type=[M]+*
computed spectral entropy=2.833980589349023
computed normalized entropy=0.7735588651396024
SPLASH=splash10-014l-9000000000-8e78ac6db5b26d52fea5
submitter=submitter = University of Tokyo Team (Faculty of Engineering, University of Tokyo)
MoNA Rating=3.75

>  <NUM PEAKS>  (3615) 
39

>  <MASS SPECTRAL PEAKS>  (3615) 
27 11.47
29 4.49
39 10.78
40 3.34
41 55.73
42 3.79
43 54.33
44 1.66
51 1.04
53 10.51
54 1.14
55 4.92
65 1.6
66 1.02
67 12.33
68 44.6
69 99.99
70 5.54
71 35.93
72 1.45
77 2
79 3.69
80 14.5
81 8.8
85 1.06
91 1.96
92 6.63
93 29.82
94 5.43
95 2.13
107 4.51
108 1.44
121 15.36
122 1.39
123 1.97
136 13.36
137 2.3
154 1.22
155 1.28

$$$$

     RDKit          2D

 16 17  0  0  0  0  0  0  0  0999 V2000
    8.9311    0.3321    0.0000 C   0  0  0  0  0  0  0  0  0  0  0  0
    7.6355    2.5841    0.0000 C   0  0  0  0  0  0  0  0  0  0  0  0
   -0.6759    1.4813    0.0000 C   0  0  0  0  0  0  0  0  0  0  0  0
   -0.6759   -2.3013    0.0000 C   0  0  0  0  0  0  0  0  0  0  0  0
    2.4475    2.5900    0.0000 C   0  0  0  0  0  0  0  0  0  0  0  0
    1.1450   -1.1600    0.0000 C   0  0  0  0  0  0  0  0  0  0  0  0
    1.1450    0.3400    0.0000 C   0  0  0  0  0  0  0  0  0  0  0  0
    3.7350   -1.1600    0.0000 C   0  0  0  0  0  0  0  0  0  0  0  0
    7.6332    1.0841    0.0000 C   0  0  0  0  0  0  0  0  0  0  0  0
    2.4450   -1.9100    0.0000 C   0  0  0  0  0  0  0  0  0  0  0  0
    3.7350    0.3400    0.0000 C   0  0  0  0  0  0  0  0  0  0  0  0
    6.3331    0.3361    0.0000 C   0  0  0  0  0  0  0  0  0  0  0  0
    1.5750   -0.4100    0.0000 C   0  0  0  0  0  0  0  0  0  0  0  0
    2.4450    1.0900    0.0000 C   0  0  0  0  0  0  0  0  0  0  0  0
    6.3308   -1.1639    0.0000 O   0  0  0  0  0  0  0  0  0  0  0  0
    5.0352    1.0880    0.0000 O   0  0  0  0  0  0  0  0  0  0  0  0
  7  6  1  0
  9  1  1  0
  9  2  1  0
 10  6  1  0
 10  8  1  0
 11  8  1  0
 12  9  1  0
 13  3  1  0
 13  4  1  0
 13 10  1  0
 14  5  1  0
 14  7  1  0
 14 11  1  0
 14 13  1  0
 15 12  2  0
 16 11  1  0
 16 12  1  0
M  END
>  <NAME>  (3616) 
BORNYL ISOBUTYRATE

>  <SYNONYMS>  (3616) 
ENDO-1,7,7-TRIMETHYLBICYCLO(2.2.1)HEPTAN-2-YL ISOBUTYRATE

>  <SPECTRUM TYPE>  (3616) 
MS1

>  <INSTRUMENT TYPE>  (3616) 
EI-B

>  <INSTRUMENT>  (3616) 
HITACHI M-80B

>  <ION MODE>  (3616) 
P

>  <INCHIKEY>  (3616) 
KRKIAJBQOUBNSE-UHFFFAOYSA-N

>  <FORMULA>  (3616) 
C14H24O2

>  <EXACT MASS>  (3616) 
224.177630008

>  <MW>  (3616) 
224

>  <ID>  (3616) 
JP006980

>  <CONTRIBUTOR>  (3616) 
University of Tokyo Team, {Faculty of Engineering, University of Tokyo

>  <COMMENT>  (3616) 
SMILES=CC(C)C(=O)OC(C1)C(C)(C2)C(C)(C)C(C2)1
InChI=InChI=1S/C14H24O2/c1-9(2)12(15)16-11-8-10-6-7-14(11,5)13(10,3)4/h9-11H,6-8H2,1-5H3
computed SMILES=O=C(OC1CC2CCC1(C)C2(C)C)C(C)C
accession=JP006980
date=2016.01.19 (Created 2008.10.21, modified 2011.05.06)
author=SODA AROMATIC CO., LTD.
license=CC BY-NC-SA
exact mass=224.17763
ionization energy=70 eV
ion type=[M]+*
computed spectral entropy=3.3015370124994643
computed normalized entropy=0.827663629124586
SPLASH=splash10-006x-9300000000-ac1847be3880d4337fbf
submitter=submitter = University of Tokyo Team (Faculty of Engineering, University of Tokyo)
MoNA Rating=3.75

>  <NUM PEAKS>  (3616) 
54

>  <MASS SPECTRAL PEAKS>  (3616) 
18 1.05
27 13.57
28 1.33
29 7.4
39 10.65
40 1.9
41 42.03
42 4.5
43 99.99
44 3.13
51 1.07
53 7.26
54 1.19
55 16.11
56 1.36
57 3.11
65 2.32
66 1
67 11.24
68 6.19
69 18.11
70 2.26
71 63.72
72 2.78
77 6.03
78 1.17
79 8.21
80 12.36
81 17.14
82 3.23
83 5.01
91 5.69
92 11.03
93 36.38
94 6.53
95 59.72
96 5.25
97 1.78
105 1.6
107 6.54
108 25.72
109 33.36
110 12.35
111 2.82
121 26.47
122 2.15
123 1.39
135 2.82
136 34.52
137 10.55
153 2.49
154 7.01
224 13.1
225 1.57

$$$$

     RDKit          2D

 16 16  0  0  0  0  0  0  0  0999 V2000
    2.5987    3.0002    0.0000 C   0  0  0  0  0  0  0  0  0  0  0  0
    3.8981    0.7504    0.0000 C   0  0  0  0  0  0  0  0  0  0  0  0
   -7.7951   -1.5010    0.0000 C   0  0  0  0  0  0  0  0  0  0  0  0
   -6.4964    0.7492    0.0000 C   0  0  0  0  0  0  0  0  0  0  0  0
   -1.3000    0.7500    0.0000 C   0  0  0  0  0  0  0  0  0  0  0  0
   -0.0000   -1.5000    0.0000 C   0  0  0  0  0  0  0  0  0  0  0  0
    0.0000    1.5000    0.0000 C   0  0  0  0  0  0  0  0  0  0  0  0
    1.3000   -0.7500    0.0000 C   0  0  0  0  0  0  0  0  0  0  0  0
   -2.5989   -1.5002    0.0000 C   0  0  0  0  0  0  0  0  0  0  0  0
    2.5989    1.5002    0.0000 C   0  0  0  0  0  0  0  0  0  0  0  0
   -6.4962   -0.7508    0.0000 C   0  0  0  0  0  0  0  0  0  0  0  0
   -1.3000   -0.7500    0.0000 C   0  0  0  0  0  0  0  0  0  0  0  0
    1.3000    0.7500    0.0000 C   0  0  0  0  0  0  0  0  0  0  0  0
   -5.1970   -1.5006    0.0000 C   0  0  0  0  0  0  0  0  0  0  0  0
   -5.1968   -3.0006    0.0000 O   0  0  0  0  0  0  0  0  0  0  0  0
   -3.8981   -0.7504    0.0000 O   0  0  0  0  0  0  0  0  0  0  0  0
  7  5  1  0
  8  6  1  0
 10  1  2  0
 10  2  1  0
 11  3  1  0
 11  4  1  0
 12  5  2  0
 12  6  1  0
 12  9  1  0
 13  7  1  0
 13  8  1  0
 13 10  1  0
 14 11  1  0
 15 14  2  0
 16  9  1  0
 16 14  1  0
M  END
>  <NAME>  (3617) 
PERILLYL ISOBUTYRATE

>  <SYNONYMS>  (3617) 
4-(1-METHYLETHENYL)-1-CYCLOHEXENYLMETHYL ISOBUTYRATE

>  <SPECTRUM TYPE>  (3617) 
MS1

>  <INSTRUMENT TYPE>  (3617) 
EI-B

>  <INSTRUMENT>  (3617) 
HITACHI M-80B

>  <ION MODE>  (3617) 
P

>  <INCHIKEY>  (3617) 
KAQYLYYVKDTFRT-UHFFFAOYSA-N

>  <FORMULA>  (3617) 
C14H22O2

>  <EXACT MASS>  (3617) 
222.161979944

>  <MW>  (3617) 
222

>  <ID>  (3617) 
JP006979

>  <CONTRIBUTOR>  (3617) 
University of Tokyo Team, {Faculty of Engineering, University of Tokyo

>  <COMMENT>  (3617) 
SMILES=CC(C)C(=O)OCC(C1)=CCC(C(C)=C)C1
InChI=InChI=1S/C14H22O2/c1-10(2)13-7-5-12(6-8-13)9-16-14(15)11(3)4/h5,11,13H,1,6-9H2,2-4H3
computed SMILES=O=C(OCC1=CCC(C(=C)C)CC1)C(C)C
accession=JP006979
date=2016.01.19 (Created 2008.10.21, modified 2011.05.06)
author=SODA AROMATIC CO., LTD.
license=CC BY-NC-SA
exact mass=222.16198
ionization energy=70 eV
ion type=[M]+*
computed spectral entropy=3.3053550673447276
computed normalized entropy=0.8325219251668344
SPLASH=splash10-0006-9300000000-ae62f01e72d4ca0de677
submitter=submitter = University of Tokyo Team (Faculty of Engineering, University of Tokyo)
MoNA Rating=3.75

>  <NUM PEAKS>  (3617) 
53

>  <MASS SPECTRAL PEAKS>  (3617) 
27 17.02
29 5.96
39 17.5
40 4.84
41 42.39
42 3.76
43 99.99
44 2.65
51 2.66
52 1.85
53 14.39
54 1.47
55 14.47
56 1.55
57 1.19
65 7.11
66 5.01
67 20.93
68 34.45
69 4.36
70 1.54
71 57.97
72 2.41
77 14.58
78 7.16
79 29.76
80 7.81
81 8.65
83 1.72
84 2.12
89 2.19
91 54.85
92 47.77
93 39.58
94 3.67
95 1.43
103 1.16
105 25.53
106 31.88
107 7.97
108 2.12
109 5.51
117 2.18
119 53.57
120 5.42
121 1.68
133 3.43
134 44.77
135 10
151 1.28
152 15.27
153 1.58
222 2.31

$$$$

     RDKit          2D

 13 12  0  0  0  0  0  0  0  0999 V2000
   -9.7428    5.6250    0.0000 C   0  0  0  0  0  0  0  0  0  0  0  0
    3.2476    5.6250    0.0000 C   0  0  0  0  0  0  0  0  0  0  0  0
    1.9486    3.3750    0.0000 C   0  0  0  0  0  0  0  0  0  0  0  0
   -8.4437    4.8750    0.0000 C   0  0  0  0  0  0  0  0  0  0  0  0
   -7.1447    5.6250    0.0000 C   0  0  0  0  0  0  0  0  0  0  0  0
   -5.8457    4.8750    0.0000 C   0  0  0  0  0  0  0  0  0  0  0  0
   -4.5466    5.6250    0.0000 C   0  0  0  0  0  0  0  0  0  0  0  0
   -3.2476    4.8750    0.0000 C   0  0  0  0  0  0  0  0  0  0  0  0
   -1.9486    5.6250    0.0000 C   0  0  0  0  0  0  0  0  0  0  0  0
    1.9486    4.8750    0.0000 C   0  0  0  0  0  0  0  0  0  0  0  0
    0.6495    5.6250    0.0000 C   0  0  0  0  0  0  0  0  0  0  0  0
    0.6495    7.1250    0.0000 O   0  0  0  0  0  0  0  0  0  0  0  0
   -0.6495    4.8750    0.0000 O   0  0  0  0  0  0  0  0  0  0  0  0
  4  1  1  0
  5  4  1  0
  6  5  1  0
  7  6  1  0
  8  7  1  0
  9  8  1  0
 10  2  1  0
 10  3  1  0
 11 10  1  0
 12 11  2  0
 13  9  1  0
 13 11  1  0
M  END
>  <NAME>  (3618) 
HEPTYL ISOBUTYRATE

>  <SYNONYMS>  (3618) 


>  <SPECTRUM TYPE>  (3618) 
MS1

>  <INSTRUMENT TYPE>  (3618) 
EI-B

>  <INSTRUMENT>  (3618) 
HITACHI M-80B

>  <ION MODE>  (3618) 
P

>  <INCHIKEY>  (3618) 
RFDUMBPGZUIKOG-UHFFFAOYSA-N

>  <FORMULA>  (3618) 
C11H22O2

>  <EXACT MASS>  (3618) 
186.161979944

>  <MW>  (3618) 
186

>  <ID>  (3618) 
JP006977

>  <CONTRIBUTOR>  (3618) 
University of Tokyo Team, {Faculty of Engineering, University of Tokyo

>  <COMMENT>  (3618) 
SMILES=CCCCCCCOC(=O)C(C)C
InChI=InChI=1S/C11H22O2/c1-4-5-6-7-8-9-13-11(12)10(2)3/h10H,4-9H2,1-3H3
computed SMILES=O=C(OCCCCCCC)C(C)C
accession=JP006977
date=2016.01.19 (Created 2008.10.21, modified 2011.05.06)
author=SODA AROMATIC CO., LTD.
license=CC BY-NC-SA
exact mass=186.16198
ionization energy=70 eV
ion type=[M]+*
computed spectral entropy=2.7489844828922902
computed normalized entropy=0.800522634243316
SPLASH=splash10-0596-9000000000-5dbbf52836e457833bc1
submitter=submitter = University of Tokyo Team (Faculty of Engineering, University of Tokyo)
MoNA Rating=3.75

>  <NUM PEAKS>  (3618) 
31

>  <MASS SPECTRAL PEAKS>  (3618) 
27 23.14
28 5.3
29 19.59
31 1.64
39 11.47
40 2.31
41 50.8
42 19.29
43 99.99
44 3.45
53 1.43
54 3.06
55 23.59
56 42.31
57 54.19
58 2.17
68 3.43
69 17.71
70 30.67
71 50.97
72 1.89
73 1.81
83 3.35
88 1.64
89 61.98
90 2.49
97 2.31
98 26.43
99 1.93
101 1.42
113 1.01

$$$$

     RDKit          2D

 12 11  0  0  0  0  0  0  0  0999 V2000
   -6.4952    4.5000    0.0000 C   0  0  0  0  0  0  0  0  0  0  0  0
   -3.8971    1.5000    0.0000 C   0  0  0  0  0  0  0  0  0  0  0  0
    2.5981    3.7500    0.0000 C   0  0  0  0  0  0  0  0  0  0  0  0
    1.2990    6.0000    0.0000 C   0  0  0  0  0  0  0  0  0  0  0  0
   -5.1962    3.7500    0.0000 C   0  0  0  0  0  0  0  0  0  0  0  0
   -2.5981    2.2500    0.0000 C   0  0  0  0  0  0  0  0  0  0  0  0
   -3.8971    4.5000    0.0000 C   0  0  0  0  0  0  0  0  0  0  0  0
    1.2990    4.5000    0.0000 C   0  0  0  0  0  0  0  0  0  0  0  0
   -2.5981    3.7500    0.0000 C   0  0  0  0  0  0  0  0  0  0  0  0
    0.0000    3.7500    0.0000 C   0  0  0  0  0  0  0  0  0  0  0  0
   -0.0000    2.2500    0.0000 O   0  0  0  0  0  0  0  0  0  0  0  0
   -1.2990    4.5000    0.0000 O   0  0  0  0  0  0  0  0  0  0  0  0
  5  1  1  0
  6  2  1  0
  7  5  1  0
  8  3  1  0
  8  4  1  0
  9  6  1  0
  9  7  1  0
 10  8  1  0
 11 10  2  0
 12  9  1  0
 12 10  1  0
M  END
>  <NAME>  (3619) 
1-ETHYLBUTYL ISOBUTYRATE

>  <SYNONYMS>  (3619) 
3-HEXYL ISOBUTYRATE

>  <SPECTRUM TYPE>  (3619) 
MS1

>  <INSTRUMENT TYPE>  (3619) 
EI-B

>  <INSTRUMENT>  (3619) 
HITACHI M-80B

>  <ION MODE>  (3619) 
P

>  <INCHIKEY>  (3619) 
VZZDUJNRNFKSFD-UHFFFAOYSA-N

>  <FORMULA>  (3619) 
C10H20O2

>  <EXACT MASS>  (3619) 
172.14632988

>  <MW>  (3619) 
172

>  <ID>  (3619) 
JP006976

>  <CONTRIBUTOR>  (3619) 
University of Tokyo Team, {Faculty of Engineering, University of Tokyo

>  <COMMENT>  (3619) 
SMILES=CCCC(CC)OC(=O)C(C)C
InChI=InChI=1S/C10H20O2/c1-5-7-9(6-2)12-10(11)8(3)4/h8-9H,5-7H2,1-4H3
computed SMILES=O=C(OC(CC)CCC)C(C)C
accession=JP006976
date=2016.01.19 (Created 2008.10.21, modified 2011.05.06)
author=SODA AROMATIC CO., LTD.
license=CC BY-NC-SA
exact mass=172.14633
ionization energy=70 eV
ion type=[M]+*
computed spectral entropy=2.4153603249684448
computed normalized entropy=0.7503738747260758
SPLASH=splash10-006x-9000000000-92d2183b46b5144a1dbd
submitter=submitter = University of Tokyo Team (Faculty of Engineering, University of Tokyo)
MoNA Rating=3.75

>  <NUM PEAKS>  (3619) 
25

>  <MASS SPECTRAL PEAKS>  (3619) 
27 16.83
28 3.12
29 10.07
31 1.92
39 8.03
40 1.31
41 23.7
42 7.6
43 99.99
44 4.74
55 12.16
56 7.96
57 8.15
59 5.42
69 3.99
71 98.14
72 4.67
73 2.01
84 14.12
85 24.53
86 1.46
89 9.74
101 1.08
129 6.16
143 4.11

$$$$

     RDKit          2D

 12 11  0  0  0  0  0  0  0  0999 V2000
    2.5981    4.5000    0.0000 C   0  0  0  0  0  0  0  0  0  0  0  0
   -7.7942    4.5000    0.0000 C   0  0  0  0  0  0  0  0  0  0  0  0
   -6.4952    6.7500    0.0000 C   0  0  0  0  0  0  0  0  0  0  0  0
   -2.5981    3.0000    0.0000 C   0  0  0  0  0  0  0  0  0  0  0  0
    1.2990    5.2500    0.0000 C   0  0  0  0  0  0  0  0  0  0  0  0
    0.0000    4.5000    0.0000 C   0  0  0  0  0  0  0  0  0  0  0  0
   -1.2990    5.2500    0.0000 C   0  0  0  0  0  0  0  0  0  0  0  0
   -6.4952    5.2500    0.0000 C   0  0  0  0  0  0  0  0  0  0  0  0
   -2.5981    4.5000    0.0000 C   0  0  0  0  0  0  0  0  0  0  0  0
   -5.1962    4.5000    0.0000 C   0  0  0  0  0  0  0  0  0  0  0  0
   -5.1962    3.0000    0.0000 O   0  0  0  0  0  0  0  0  0  0  0  0
   -3.8971    5.2500    0.0000 O   0  0  0  0  0  0  0  0  0  0  0  0
  5  1  1  0
  6  5  1  0
  7  6  1  0
  8  2  1  0
  8  3  1  0
  9  4  1  0
  9  7  1  0
 10  8  1  0
 11 10  2  0
 12  9  1  0
 12 10  1  0
M  END
>  <NAME>  (3620) 
1-METHYLPENTYL ISOBUTYRATE

>  <SYNONYMS>  (3620) 
2-HEXYL ISOBUTYRATE

>  <SPECTRUM TYPE>  (3620) 
MS1

>  <INSTRUMENT TYPE>  (3620) 
EI-B

>  <INSTRUMENT>  (3620) 
HITACHI M-80B

>  <ION MODE>  (3620) 
P

>  <INCHIKEY>  (3620) 
QLUIRWJNPGJBRM-UHFFFAOYSA-N

>  <FORMULA>  (3620) 
C10H20O2

>  <EXACT MASS>  (3620) 
172.14632988

>  <MW>  (3620) 
172

>  <ID>  (3620) 
JP006975

>  <CONTRIBUTOR>  (3620) 
University of Tokyo Team, {Faculty of Engineering, University of Tokyo

>  <COMMENT>  (3620) 
SMILES=CCCCC(C)OC(=O)C(C)C
InChI=InChI=1S/C10H20O2/c1-5-6-7-9(4)12-10(11)8(2)3/h8-9H,5-7H2,1-4H3
computed SMILES=O=C(OC(C)CCCC)C(C)C
accession=JP006975
date=2016.01.19 (Created 2008.10.21, modified 2011.05.06)
author=SODA AROMATIC CO., LTD.
license=CC BY-NC-SA
exact mass=172.14633
ionization energy=70 eV
ion type=[M]+*
computed spectral entropy=2.4688359089631713
computed normalized entropy=0.7873833402150208
SPLASH=splash10-006x-9000000000-c5282e0a0c9b70f259bc
submitter=submitter = University of Tokyo Team (Faculty of Engineering, University of Tokyo)
MoNA Rating=3.75

>  <NUM PEAKS>  (3620) 
23

>  <MASS SPECTRAL PEAKS>  (3620) 
27 14.87
28 2.93
29 10.6
39 7.9
40 1.37
41 24.88
42 9.11
43 99.99
44 4.55
45 8.4
55 9.55
56 8
57 8.23
69 5.28
71 74.48
72 3.69
84 16
85 28.7
86 2.45
88 1.26
89 11.65
101 1.39
115 12.22

$$$$

     RDKit          2D

 12 11  0  0  0  0  0  0  0  0999 V2000
   -6.4952    4.5000    0.0000 C   0  0  0  0  0  0  0  0  0  0  0  0
   -5.1962    2.2500    0.0000 C   0  0  0  0  0  0  0  0  0  0  0  0
    2.5981    3.7500    0.0000 C   0  0  0  0  0  0  0  0  0  0  0  0
    1.2990    6.0000    0.0000 C   0  0  0  0  0  0  0  0  0  0  0  0
   -2.5981    2.2500    0.0000 C   0  0  0  0  0  0  0  0  0  0  0  0
   -3.8971    4.5000    0.0000 C   0  0  0  0  0  0  0  0  0  0  0  0
   -5.1962    3.7500    0.0000 C   0  0  0  0  0  0  0  0  0  0  0  0
    1.2990    4.5000    0.0000 C   0  0  0  0  0  0  0  0  0  0  0  0
   -2.5981    3.7500    0.0000 C   0  0  0  0  0  0  0  0  0  0  0  0
    0.0000    3.7500    0.0000 C   0  0  0  0  0  0  0  0  0  0  0  0
   -0.0000    2.2500    0.0000 O   0  0  0  0  0  0  0  0  0  0  0  0
   -1.2990    4.5000    0.0000 O   0  0  0  0  0  0  0  0  0  0  0  0
  7  1  1  0
  7  2  1  0
  7  6  1  0
  8  3  1  0
  8  4  1  0
  9  5  1  0
  9  6  1  0
 10  8  1  0
 11 10  2  0
 12  9  1  0
 12 10  1  0
M  END
>  <NAME>  (3621) 
1,3-DIMETHYLBUTYL ISOBUTYRATE

>  <SYNONYMS>  (3621) 


>  <SPECTRUM TYPE>  (3621) 
MS1

>  <INSTRUMENT TYPE>  (3621) 
EI-B

>  <INSTRUMENT>  (3621) 
HITACHI M-80B

>  <ION MODE>  (3621) 
P

>  <INCHIKEY>  (3621) 
KOTIQBSLRXNDQH-UHFFFAOYSA-N

>  <FORMULA>  (3621) 
C10H20O2

>  <EXACT MASS>  (3621) 
172.14632988

>  <MW>  (3621) 
172

>  <ID>  (3621) 
JP006974

>  <CONTRIBUTOR>  (3621) 
University of Tokyo Team, {Faculty of Engineering, University of Tokyo

>  <COMMENT>  (3621) 
SMILES=CC(C)CC(C)OC(=O)C(C)C
InChI=InChI=1S/C10H20O2/c1-7(2)6-9(5)12-10(11)8(3)4/h7-9H,6H2,1-5H3
computed SMILES=O=C(OC(C)CC(C)C)C(C)C
accession=JP006974
date=2016.01.19 (Created 2008.10.21, modified 2011.05.06)
author=SODA AROMATIC CO., LTD.
license=CC BY-NC-SA
exact mass=172.14633
ionization energy=70 eV
ion type=[M]+*
computed spectral entropy=2.3871788139393355
computed normalized entropy=0.7722892357384947
SPLASH=splash10-006x-9000000000-d52f9874f8640dde8883
submitter=submitter = University of Tokyo Team (Faculty of Engineering, University of Tokyo)
MoNA Rating=3.75

>  <NUM PEAKS>  (3621) 
22

>  <MASS SPECTRAL PEAKS>  (3621) 
27 13.41
29 5.37
39 8.78
40 1.23
41 27.11
42 8.74
43 99.99
44 3.48
45 7.29
55 5.41
56 2.49
57 9
69 21.77
70 1.54
71 74.2
72 2.61
83 1.05
84 25.24
85 35.47
86 1.98
89 5.64
115 11.01

$$$$

     RDKit          2D

 12 11  0  0  0  0  0  0  0  0999 V2000
   -3.8971    3.7500    0.0000 C   0  0  0  0  0  0  0  0  0  0  0  0
    6.4952    6.7500    0.0000 C   0  0  0  0  0  0  0  0  0  0  0  0
    5.1962    4.5000    0.0000 C   0  0  0  0  0  0  0  0  0  0  0  0
   -2.5981    4.5000    0.0000 C   0  0  0  0  0  0  0  0  0  0  0  0
   -2.5981    6.0000    0.0000 C   0  0  0  0  0  0  0  0  0  0  0  0
   -1.2990    6.7500    0.0000 C   0  0  0  0  0  0  0  0  0  0  0  0
    0.0000    6.0000    0.0000 C   0  0  0  0  0  0  0  0  0  0  0  0
    1.2990    6.7500    0.0000 C   0  0  0  0  0  0  0  0  0  0  0  0
    5.1962    6.0000    0.0000 C   0  0  0  0  0  0  0  0  0  0  0  0
    3.8971    6.7500    0.0000 C   0  0  0  0  0  0  0  0  0  0  0  0
    3.8971    8.2500    0.0000 O   0  0  0  0  0  0  0  0  0  0  0  0
    2.5981    6.0000    0.0000 O   0  0  0  0  0  0  0  0  0  0  0  0
  4  1  1  0
  5  4  1  0
  5  6  2  0
  7  6  1  0
  8  7  1  0
  9  2  1  0
  9  3  1  0
 10  9  1  0
 11 10  2  0
 12  8  1  0
 12 10  1  0
M  END
>  <NAME>  (3622) 
CIS-3-HEXENYL ISOBUTYRATE

>  <SYNONYMS>  (3622) 


>  <SPECTRUM TYPE>  (3622) 
MS1

>  <INSTRUMENT TYPE>  (3622) 
EI-B

>  <INSTRUMENT>  (3622) 
HITACHI M-80B

>  <ION MODE>  (3622) 
P

>  <INCHIKEY>  (3622) 
OSMAJVWUIUORGC-WAYWQWQTSA-N

>  <FORMULA>  (3622) 
C10H18O2

>  <EXACT MASS>  (3622) 
170.130679816

>  <MW>  (3622) 
170

>  <ID>  (3622) 
JP006973

>  <CONTRIBUTOR>  (3622) 
University of Tokyo Team, {Faculty of Engineering, University of Tokyo

>  <COMMENT>  (3622) 
SMILES=CCC=CCCOC(=O)C(C)C
InChI=InChI=1S/C10H18O2/c1-4-5-6-7-8-12-10(11)9(2)3/h5-6,9H,4,7-8H2,1-3H3/b6-5-
computed SMILES=O=C(OCCC=CCC)C(C)C
accession=JP006973
date=2016.01.19 (Created 2008.10.21, modified 2011.05.06)
author=SODA AROMATIC CO., LTD.
license=CC BY-NC-SA
exact mass=170.13068
ionization energy=70 eV
ion type=[M]+*
computed spectral entropy=2.4186067354094996
computed normalized entropy=0.7258278199984586
SPLASH=splash10-00l6-9000000000-3c37790c710a424b9299
submitter=submitter = University of Tokyo Team (Faculty of Engineering, University of Tokyo)
MoNA Rating=3.75

>  <NUM PEAKS>  (3622) 
28

>  <MASS SPECTRAL PEAKS>  (3622) 
15 1.25
26 1.22
27 23.56
28 2.5
29 8.57
39 19.9
40 2.53
41 43.72
42 6.47
43 99.99
44 3.29
51 1.38
53 5.24
54 7.31
55 18.67
56 1.46
66 1.15
67 83.1
68 4.55
69 2.05
70 1.19
71 53.61
72 2.1
79 1.24
81 4.93
82 86.45
83 6.35
89 1.41

$$$$

     RDKit          2D

 12 11  0  0  0  0  0  0  0  0999 V2000
    2.9228    5.4375    0.0000 C   0  0  0  0  0  0  0  0  0  0  0  0
   -8.7685    6.1875    0.0000 C   0  0  0  0  0  0  0  0  0  0  0  0
   -7.4695    3.9375    0.0000 C   0  0  0  0  0  0  0  0  0  0  0  0
    1.6238    6.1875    0.0000 C   0  0  0  0  0  0  0  0  0  0  0  0
    0.3248    5.4375    0.0000 C   0  0  0  0  0  0  0  0  0  0  0  0
   -0.9743    6.1875    0.0000 C   0  0  0  0  0  0  0  0  0  0  0  0
   -2.2733    5.4375    0.0000 C   0  0  0  0  0  0  0  0  0  0  0  0
   -3.5724    6.1875    0.0000 C   0  0  0  0  0  0  0  0  0  0  0  0
   -7.4695    5.4375    0.0000 C   0  0  0  0  0  0  0  0  0  0  0  0
   -6.1704    6.1875    0.0000 C   0  0  0  0  0  0  0  0  0  0  0  0
   -6.1704    7.6875    0.0000 O   0  0  0  0  0  0  0  0  0  0  0  0
   -4.8714    5.4375    0.0000 O   0  0  0  0  0  0  0  0  0  0  0  0
  4  1  1  0
  5  4  1  0
  6  5  1  0
  6  7  2  0
  8  7  1  0
  9  2  1  0
  9  3  1  0
 10  9  1  0
 11 10  2  0
 12  8  1  0
 12 10  1  0
M  END
>  <NAME>  (3623) 
TRANS-2-HEXENYL ISOBUTYRATE

>  <SYNONYMS>  (3623) 


>  <SPECTRUM TYPE>  (3623) 
MS1

>  <INSTRUMENT TYPE>  (3623) 
EI-B

>  <INSTRUMENT>  (3623) 
HITACHI M-80B

>  <ION MODE>  (3623) 
P

>  <INCHIKEY>  (3623) 
DSFNTAVCWZDPEB-VOTSOKGWSA-N

>  <FORMULA>  (3623) 
C10H18O2

>  <EXACT MASS>  (3623) 
170.130679816

>  <MW>  (3623) 
170

>  <ID>  (3623) 
JP006972

>  <CONTRIBUTOR>  (3623) 
University of Tokyo Team, {Faculty of Engineering, University of Tokyo

>  <COMMENT>  (3623) 
SMILES=CCCC=CCOC(=O)C(C)C
InChI=InChI=1S/C10H18O2/c1-4-5-6-7-8-12-10(11)9(2)3/h6-7,9H,4-5,8H2,1-3H3/b7-6+
computed SMILES=O=C(OCC=CCCC)C(C)C
accession=JP006972
date=2016.01.19 (Created 2008.10.21, modified 2011.05.06)
author=SODA AROMATIC CO., LTD.
license=CC BY-NC-SA
exact mass=170.13068
ionization energy=70 eV
ion type=[M]+*
computed spectral entropy=2.603704637069845
computed normalized entropy=0.7512703535680527
SPLASH=splash10-0006-9000000000-117dcd37f554d0254aa9
submitter=submitter = University of Tokyo Team (Faculty of Engineering, University of Tokyo)
MoNA Rating=3.75

>  <NUM PEAKS>  (3623) 
32

>  <MASS SPECTRAL PEAKS>  (3623) 
18 1.58
26 1.2
27 23.11
28 2.21
29 11
39 18.83
40 2.4
41 50.68
42 6.1
43 99.99
44 2.88
51 1.1
53 5.49
54 10.63
55 50.06
56 3.95
57 8.79
67 21.66
68 1.36
70 1.58
71 71.49
72 2.92
81 2.69
82 15.21
83 24.92
84 1.5
89 1.96
99 1.65
100 1.15
127 1.63
141 1.01
170 3.22

$$$$

     RDKit          2D

 11 10  0  0  0  0  0  0  0  0999 V2000
   -6.4952    4.5000    0.0000 C   0  0  0  0  0  0  0  0  0  0  0  0
   -5.1962    2.2500    0.0000 C   0  0  0  0  0  0  0  0  0  0  0  0
    2.5981    3.7500    0.0000 C   0  0  0  0  0  0  0  0  0  0  0  0
    1.2990    6.0000    0.0000 C   0  0  0  0  0  0  0  0  0  0  0  0
   -3.8971    4.5000    0.0000 C   0  0  0  0  0  0  0  0  0  0  0  0
   -2.5981    3.7500    0.0000 C   0  0  0  0  0  0  0  0  0  0  0  0
   -5.1962    3.7500    0.0000 C   0  0  0  0  0  0  0  0  0  0  0  0
    1.2990    4.5000    0.0000 C   0  0  0  0  0  0  0  0  0  0  0  0
    0.0000    3.7500    0.0000 C   0  0  0  0  0  0  0  0  0  0  0  0
   -0.0000    2.2500    0.0000 O   0  0  0  0  0  0  0  0  0  0  0  0
   -1.2990    4.5000    0.0000 O   0  0  0  0  0  0  0  0  0  0  0  0
  6  5  1  0
  7  1  1  0
  7  2  1  0
  7  5  1  0
  8  3  1  0
  8  4  1  0
  9  8  1  0
 10  9  2  0
 11  6  1  0
 11  9  1  0
M  END
>  <NAME>  (3624) 
ISOPENTYL ISOBUTYRATE

>  <SYNONYMS>  (3624) 


>  <SPECTRUM TYPE>  (3624) 
MS1

>  <INSTRUMENT TYPE>  (3624) 
EI-B

>  <INSTRUMENT>  (3624) 
HITACHI M-80B

>  <ION MODE>  (3624) 
P

>  <INCHIKEY>  (3624) 
VFTGLSWXJMRZNB-UHFFFAOYSA-N

>  <FORMULA>  (3624) 
C9H18O2

>  <EXACT MASS>  (3624) 
158.130679816

>  <MW>  (3624) 
158

>  <ID>  (3624) 
JP006971

>  <CONTRIBUTOR>  (3624) 
University of Tokyo Team, {Faculty of Engineering, University of Tokyo

>  <COMMENT>  (3624) 
SMILES=CC(C)CCOC(=O)C(C)C
InChI=InChI=1S/C9H18O2/c1-7(2)5-6-11-9(10)8(3)4/h7-8H,5-6H2,1-4H3
computed SMILES=O=C(OCCC(C)C)C(C)C
accession=JP006971
date=2016.01.19 (Created 2008.10.21, modified 2011.05.06)
author=SODA AROMATIC CO., LTD.
license=CC BY-NC-SA
exact mass=158.13068
ionization energy=70 eV
ion type=[M]+*
computed spectral entropy=2.311242222777973
computed normalized entropy=0.7180277676205818
SPLASH=splash10-006x-9000000000-f52f38a23e150d10c7c8
submitter=submitter = University of Tokyo Team (Faculty of Engineering, University of Tokyo)
MoNA Rating=3.75

>  <NUM PEAKS>  (3624) 
25

>  <MASS SPECTRAL PEAKS>  (3624) 
15 1.15
27 18.62
28 4.66
29 8.46
39 10.33
40 1.64
41 28.79
42 13.03
43 99.99
44 3.11
45 1.51
53 1.34
55 24.3
56 1.64
57 1.74
69 3.63
70 66.38
71 56.51
72 2.06
73 1.25
85 1.13
88 1.08
89 11.5
101 1.51
115 2.66

$$$$

     RDKit          2D

 11 10  0  0  0  0  0  0  0  0999 V2000
    2.5981    4.5000    0.0000 C   0  0  0  0  0  0  0  0  0  0  0  0
   -7.7942    4.5000    0.0000 C   0  0  0  0  0  0  0  0  0  0  0  0
   -6.4952    6.7500    0.0000 C   0  0  0  0  0  0  0  0  0  0  0  0
    1.2990    5.2500    0.0000 C   0  0  0  0  0  0  0  0  0  0  0  0
    0.0000    4.5000    0.0000 C   0  0  0  0  0  0  0  0  0  0  0  0
   -1.2990    5.2500    0.0000 C   0  0  0  0  0  0  0  0  0  0  0  0
   -2.5981    4.5000    0.0000 C   0  0  0  0  0  0  0  0  0  0  0  0
   -6.4952    5.2500    0.0000 C   0  0  0  0  0  0  0  0  0  0  0  0
   -5.1962    4.5000    0.0000 C   0  0  0  0  0  0  0  0  0  0  0  0
   -5.1962    3.0000    0.0000 O   0  0  0  0  0  0  0  0  0  0  0  0
   -3.8971    5.2500    0.0000 O   0  0  0  0  0  0  0  0  0  0  0  0
  4  1  1  0
  5  4  1  0
  6  5  1  0
  7  6  1  0
  8  2  1  0
  8  3  1  0
  9  8  1  0
 10  9  2  0
 11  7  1  0
 11  9  1  0
M  END
>  <NAME>  (3625) 
PENTYL ISOBUTYRATE

>  <SYNONYMS>  (3625) 


>  <SPECTRUM TYPE>  (3625) 
MS1

>  <INSTRUMENT TYPE>  (3625) 
EI-B

>  <INSTRUMENT>  (3625) 
HITACHI M-80B

>  <ION MODE>  (3625) 
P

>  <INCHIKEY>  (3625) 
UYGGIIOLYXRSQY-UHFFFAOYSA-N

>  <FORMULA>  (3625) 
C9H18O2

>  <EXACT MASS>  (3625) 
158.130679816

>  <MW>  (3625) 
158

>  <ID>  (3625) 
JP006970

>  <CONTRIBUTOR>  (3625) 
University of Tokyo Team, {Faculty of Engineering, University of Tokyo

>  <COMMENT>  (3625) 
SMILES=CCCCCOC(=O)C(C)C
InChI=InChI=1S/C9H18O2/c1-4-5-6-7-11-9(10)8(2)3/h8H,4-7H2,1-3H3
computed SMILES=O=C(OCCCCC)C(C)C
accession=JP006970
date=2016.01.19 (Created 2008.10.21, modified 2011.05.06)
author=SODA AROMATIC CO., LTD.
license=CC BY-NC-SA
exact mass=158.13068
ionization energy=70 eV
ion type=[M]+*
computed spectral entropy=2.4064172988006565
computed normalized entropy=0.7301384736672508
SPLASH=splash10-006x-9000000000-0a88a24520975daafc0c
submitter=submitter = University of Tokyo Team (Faculty of Engineering, University of Tokyo)
MoNA Rating=3.75

>  <NUM PEAKS>  (3625) 
27

>  <MASS SPECTRAL PEAKS>  (3625) 
18 1.99
26 1
27 18.55
28 3.35
29 12.89
31 1.03
39 9.56
40 1.86
41 27.61
42 17.67
43 99.99
44 3.04
45 1.18
55 13.17
56 1.6
57 1.52
69 3.85
70 34.03
71 50.64
72 2.02
73 1.98
85 1.15
88 1.54
89 45.34
90 2.08
101 1.97
115 1.15

$$$$

     RDKit          2D

 10  9  0  0  0  0  0  0  0  0999 V2000
    2.2733    2.8125    0.0000 C   0  0  0  0  0  0  0  0  0  0  0  0
    0.9743    5.0625    0.0000 C   0  0  0  0  0  0  0  0  0  0  0  0
   -5.5209    2.8125    0.0000 C   0  0  0  0  0  0  0  0  0  0  0  0
   -4.2219    5.0625    0.0000 C   0  0  0  0  0  0  0  0  0  0  0  0
   -0.3248    2.8125    0.0000 C   0  0  0  0  0  0  0  0  0  0  0  0
    0.9743    3.5625    0.0000 C   0  0  0  0  0  0  0  0  0  0  0  0
   -4.2219    3.5625    0.0000 C   0  0  0  0  0  0  0  0  0  0  0  0
   -2.9228    2.8125    0.0000 C   0  0  0  0  0  0  0  0  0  0  0  0
   -2.9228    1.3125    0.0000 O   0  0  0  0  0  0  0  0  0  0  0  0
   -1.6238    3.5625    0.0000 O   0  0  0  0  0  0  0  0  0  0  0  0
  6  1  1  0
  6  2  1  0
  6  5  1  0
  7  3  1  0
  7  4  1  0
  8  7  1  0
  9  8  2  0
 10  5  1  0
 10  8  1  0
M  END
>  <NAME>  (3626) 
ISOBUTYL ISOBUTYRATE

>  <SYNONYMS>  (3626) 


>  <SPECTRUM TYPE>  (3626) 
MS1

>  <INSTRUMENT TYPE>  (3626) 
EI-B

>  <INSTRUMENT>  (3626) 
HITACHI M-80B

>  <ION MODE>  (3626) 
P

>  <INCHIKEY>  (3626) 
RXGUIWHIADMCFC-UHFFFAOYSA-N

>  <FORMULA>  (3626) 
C8H16O2

>  <EXACT MASS>  (3626) 
144.115029752

>  <MW>  (3626) 
144

>  <ID>  (3626) 
JP006969

>  <CONTRIBUTOR>  (3626) 
University of Tokyo Team, {Faculty of Engineering, University of Tokyo

>  <COMMENT>  (3626) 
SMILES=CC(C)COC(=O)C(C)C
InChI=InChI=1S/C8H16O2/c1-6(2)5-10-8(9)7(3)4/h6-7H,5H2,1-4H3
computed SMILES=O=C(OCC(C)C)C(C)C
accession=JP006969
date=2016.01.19 (Created 2008.10.21, modified 2011.05.06)
author=SODA AROMATIC CO., LTD.
license=CC BY-NC-SA
exact mass=144.11503
ionization energy=70 eV
ion type=[M]+*
computed spectral entropy=2.4021046962869756
computed normalized entropy=0.7558414125490076
SPLASH=splash10-0596-9000000000-cc0e2f654a9c0d39e1ad
submitter=submitter = University of Tokyo Team (Faculty of Engineering, University of Tokyo)
MoNA Rating=3.75

>  <NUM PEAKS>  (3626) 
24

>  <MASS SPECTRAL PEAKS>  (3626) 
15 1.52
26 1.35
27 21.71
28 3.98
29 19.76
31 1.57
39 15.87
40 2.42
41 45.44
42 8.92
43 91.71
44 3.24
55 4.3
56 45.68
57 38.49
58 1.41
70 2.18
71 99.99
72 4.66
73 4.51
88 1.65
89 24.48
90 1.09
101 6.42

$$$$

     RDKit          2D

 10  9  0  0  0  0  0  0  0  0999 V2000
   -7.4695    3.9375    0.0000 C   0  0  0  0  0  0  0  0  0  0  0  0
    1.6238    3.1875    0.0000 C   0  0  0  0  0  0  0  0  0  0  0  0
    0.3248    5.4375    0.0000 C   0  0  0  0  0  0  0  0  0  0  0  0
   -6.1704    3.1875    0.0000 C   0  0  0  0  0  0  0  0  0  0  0  0
   -4.8714    3.9375    0.0000 C   0  0  0  0  0  0  0  0  0  0  0  0
   -3.5724    3.1875    0.0000 C   0  0  0  0  0  0  0  0  0  0  0  0
    0.3248    3.9375    0.0000 C   0  0  0  0  0  0  0  0  0  0  0  0
   -0.9743    3.1875    0.0000 C   0  0  0  0  0  0  0  0  0  0  0  0
   -0.9743    1.6875    0.0000 O   0  0  0  0  0  0  0  0  0  0  0  0
   -2.2733    3.9375    0.0000 O   0  0  0  0  0  0  0  0  0  0  0  0
  4  1  1  0
  5  4  1  0
  6  5  1  0
  7  2  1  0
  7  3  1  0
  8  7  1  0
  9  8  2  0
 10  6  1  0
 10  8  1  0
M  END
>  <NAME>  (3627) 
BUTYL ISOBUTYRATE

>  <SYNONYMS>  (3627) 


>  <SPECTRUM TYPE>  (3627) 
MS1

>  <INSTRUMENT TYPE>  (3627) 
EI-B

>  <INSTRUMENT>  (3627) 
HITACHI M-80B

>  <ION MODE>  (3627) 
P

>  <INCHIKEY>  (3627) 
JSLCOZYBKYHZNL-UHFFFAOYSA-N

>  <FORMULA>  (3627) 
C8H16O2

>  <EXACT MASS>  (3627) 
144.115029752

>  <MW>  (3627) 
144

>  <ID>  (3627) 
JP006968

>  <CONTRIBUTOR>  (3627) 
University of Tokyo Team, {Faculty of Engineering, University of Tokyo

>  <COMMENT>  (3627) 
SMILES=CCCCOC(=O)C(C)C
InChI=InChI=1S/C8H16O2/c1-4-5-6-10-8(9)7(2)3/h7H,4-6H2,1-3H3
computed SMILES=O=C(OCCCC)C(C)C
accession=JP006968
date=2016.01.19 (Created 2008.10.21, modified 2011.05.06)
author=SODA AROMATIC CO., LTD.
license=CC BY-NC-SA
exact mass=144.11503
ion type=[M]+*
ionization energy=70 eV
computed spectral entropy=2.5129366943627325
computed normalized entropy=0.7712898206167774
SPLASH=splash10-052f-9000000000-ddfd71ef6bb2b00f9175
submitter=submitter = University of Tokyo Team (Faculty of Engineering, University of Tokyo)
MoNA Rating=3.75

>  <NUM PEAKS>  (3627) 
26

>  <MASS SPECTRAL PEAKS>  (3627) 
15 1.76
26 2.26
27 32.21
28 10.85
29 35.4
31 2.06
38 1.01
39 16.74
40 2.59
41 58.02
42 9.07
43 99.99
44 3.07
45 1.34
55 8.62
56 43.65
57 41.56
58 1.72
70 1.04
71 77.96
72 3.27
73 5.55
88 2.57
89 60.04
90 2.21
101 3.91

$$$$

     RDKit          2D

  9  8  0  0  0  0  0  0  0  0999 V2000
    1.9486    2.6250    0.0000 C   0  0  0  0  0  0  0  0  0  0  0  0
    0.6495    4.8750    0.0000 C   0  0  0  0  0  0  0  0  0  0  0  0
   -4.5466    3.3750    0.0000 C   0  0  0  0  0  0  0  0  0  0  0  0
   -3.2476    1.1250    0.0000 C   0  0  0  0  0  0  0  0  0  0  0  0
    0.6495    3.3750    0.0000 C   0  0  0  0  0  0  0  0  0  0  0  0
   -3.2476    2.6250    0.0000 C   0  0  0  0  0  0  0  0  0  0  0  0
   -0.6495    2.6250    0.0000 C   0  0  0  0  0  0  0  0  0  0  0  0
   -0.6495    1.1250    0.0000 O   0  0  0  0  0  0  0  0  0  0  0  0
   -1.9486    3.3750    0.0000 O   0  0  0  0  0  0  0  0  0  0  0  0
  5  1  1  0
  5  2  1  0
  6  3  1  0
  6  4  1  0
  7  5  1  0
  8  7  2  0
  9  6  1  0
  9  7  1  0
M  END
>  <NAME>  (3628) 
ISOPROPYL ISOBUTYRATE

>  <SYNONYMS>  (3628) 


>  <SPECTRUM TYPE>  (3628) 
MS1

>  <INSTRUMENT TYPE>  (3628) 
EI-B

>  <INSTRUMENT>  (3628) 
HITACHI M-80B

>  <ION MODE>  (3628) 
P

>  <INCHIKEY>  (3628) 
WVRPFQGZHKZCEB-UHFFFAOYSA-N

>  <FORMULA>  (3628) 
C7H14O2

>  <EXACT MASS>  (3628) 
130.099379688

>  <MW>  (3628) 
130

>  <ID>  (3628) 
JP006967

>  <CONTRIBUTOR>  (3628) 
University of Tokyo Team, {Faculty of Engineering, University of Tokyo

>  <COMMENT>  (3628) 
SMILES=CC(C)OC(=O)C(C)C
InChI=InChI=1S/C7H14O2/c1-5(2)7(8)9-6(3)4/h5-6H,1-4H3
computed SMILES=O=C(OC(C)C)C(C)C
accession=JP006967
date=2016.01.19 (Created 2008.10.21, modified 2011.05.06)
author=SODA AROMATIC CO., LTD.
license=CC BY-NC-SA
exact mass=130.09938
ionization energy=70 eV
ion type=[M]+*
computed spectral entropy=1.918756469782993
computed normalized entropy=0.6638441800924639
SPLASH=splash10-0006-9000000000-5c39f457ab2fbfc2aa2a
submitter=submitter = University of Tokyo Team (Faculty of Engineering, University of Tokyo)
MoNA Rating=3.75

>  <NUM PEAKS>  (3628) 
18

>  <MASS SPECTRAL PEAKS>  (3628) 
15 1.41
18 1.35
27 10.33
29 1.19
39 5.8
40 1.25
41 20.15
42 6.08
43 99.99
44 3.52
45 5.34
59 4.11
71 33.63
72 1.57
73 1.86
88 1.84
89 13.67
115 3.03

$$$$

     RDKit          2D

  9  8  0  0  0  0  0  0  0  0999 V2000
    1.9486    3.3750    0.0000 C   0  0  0  0  0  0  0  0  0  0  0  0
   -5.8457    3.3750    0.0000 C   0  0  0  0  0  0  0  0  0  0  0  0
   -4.5466    5.6250    0.0000 C   0  0  0  0  0  0  0  0  0  0  0  0
    0.6495    4.1250    0.0000 C   0  0  0  0  0  0  0  0  0  0  0  0
   -0.6495    3.3750    0.0000 C   0  0  0  0  0  0  0  0  0  0  0  0
   -4.5466    4.1250    0.0000 C   0  0  0  0  0  0  0  0  0  0  0  0
   -3.2476    3.3750    0.0000 C   0  0  0  0  0  0  0  0  0  0  0  0
   -3.2476    1.8750    0.0000 O   0  0  0  0  0  0  0  0  0  0  0  0
   -1.9486    4.1250    0.0000 O   0  0  0  0  0  0  0  0  0  0  0  0
  4  1  1  0
  5  4  1  0
  6  2  1  0
  6  3  1  0
  7  6  1  0
  8  7  2  0
  9  5  1  0
  9  7  1  0
M  END
>  <NAME>  (3629) 
PROPYL ISOBUTYRATE

>  <SYNONYMS>  (3629) 


>  <SPECTRUM TYPE>  (3629) 
MS1

>  <INSTRUMENT TYPE>  (3629) 
EI-B

>  <INSTRUMENT>  (3629) 
HITACHI M-80B

>  <ION MODE>  (3629) 
P

>  <INCHIKEY>  (3629) 
AZFUASHXSOTBNU-UHFFFAOYSA-N

>  <FORMULA>  (3629) 
C7H14O2

>  <EXACT MASS>  (3629) 
130.099379688

>  <MW>  (3629) 
130

>  <ID>  (3629) 
JP006966

>  <CONTRIBUTOR>  (3629) 
University of Tokyo Team, {Faculty of Engineering, University of Tokyo

>  <COMMENT>  (3629) 
SMILES=CCCOC(=O)C(C)C
InChI=InChI=1S/C7H14O2/c1-4-5-9-7(8)6(2)3/h6H,4-5H2,1-3H3
computed SMILES=O=C(OCCC)C(C)C
accession=JP006966
date=2016.01.19 (Created 2008.10.21, modified 2011.05.06)
author=SODA AROMATIC CO., LTD.
license=CC BY-NC-SA
exact mass=130.09938
ionization energy=70 eV
ion type=[M]+*
computed spectral entropy=2.1568347315117555
computed normalized entropy=0.697769365531821
SPLASH=splash10-0006-9000000000-360dc434f089103e8062
submitter=submitter = University of Tokyo Team (Faculty of Engineering, University of Tokyo)
MoNA Rating=3.75

>  <NUM PEAKS>  (3629) 
22

>  <MASS SPECTRAL PEAKS>  (3629) 
15 1.6
26 1.72
27 23.75
28 3.39
29 4.88
31 2.31
39 10.75
40 1.7
41 27.71
42 11.9
43 99.99
44 2.99
55 1.24
57 1.29
59 3.25
71 48.01
72 1.88
73 2.72
88 1.4
89 34.15
90 1.43
101 2.18

$$$$

     RDKit          2D

  9  8  0  0  0  0  0  0  0  0999 V2000
    1.9486    3.3750    0.0000 C   0  0  0  0  0  0  0  0  0  0  0  0
   -5.8457    3.3750    0.0000 C   0  0  0  0  0  0  0  0  0  0  0  0
   -4.5466    5.6250    0.0000 C   0  0  0  0  0  0  0  0  0  0  0  0
    0.6495    4.1250    0.0000 C   0  0  0  0  0  0  0  0  0  0  0  0
   -0.6495    3.3750    0.0000 C   0  0  0  0  0  0  0  0  0  0  0  0
   -4.5466    4.1250    0.0000 C   0  0  0  0  0  0  0  0  0  0  0  0
   -3.2476    3.3750    0.0000 C   0  0  0  0  0  0  0  0  0  0  0  0
   -3.2476    1.8750    0.0000 O   0  0  0  0  0  0  0  0  0  0  0  0
   -1.9486    4.1250    0.0000 O   0  0  0  0  0  0  0  0  0  0  0  0
  4  1  2  0
  5  4  1  0
  6  2  1  0
  6  3  1  0
  7  6  1  0
  8  7  2  0
  9  5  1  0
  9  7  1  0
M  END
>  <NAME>  (3630) 
ALLYL ISOBUTYRATE

>  <SYNONYMS>  (3630) 


>  <SPECTRUM TYPE>  (3630) 
MS1

>  <INSTRUMENT TYPE>  (3630) 
EI-B

>  <INSTRUMENT>  (3630) 
HITACHI M-80B

>  <ION MODE>  (3630) 
P

>  <INCHIKEY>  (3630) 
QNBDJTKBKITRJI-UHFFFAOYSA-N

>  <FORMULA>  (3630) 
C7H12O2

>  <EXACT MASS>  (3630) 
128.083729624

>  <MW>  (3630) 
128

>  <ID>  (3630) 
JP006965

>  <CONTRIBUTOR>  (3630) 
University of Tokyo Team, {Faculty of Engineering, University of Tokyo

>  <COMMENT>  (3630) 
SMILES=C=CCOC(=O)C(C)C
InChI=InChI=1S/C7H12O2/c1-4-5-9-7(8)6(2)3/h4,6H,1,5H2,2-3H3
computed SMILES=O=C(OCC=C)C(C)C
accession=JP006965
date=2016.01.19 (Created 2008.10.21, modified 2011.05.06)
author=SODA AROMATIC CO., LTD.
license=CC BY-NC-SA
exact mass=128.08373
ionization energy=70 eV
ion type=[M]+*
computed spectral entropy=1.966983529648064
computed normalized entropy=0.6565952328291775
SPLASH=splash10-0006-9000000000-5aba6975562cf61c90ba
submitter=submitter = University of Tokyo Team (Faculty of Engineering, University of Tokyo)
MoNA Rating=3.75

>  <NUM PEAKS>  (3630) 
20

>  <MASS SPECTRAL PEAKS>  (3630) 
15 2.06
18 2.36
26 2.25
27 19.12
28 1.84
29 2.1
38 1.82
39 21.07
40 1.93
41 55.8
42 4.64
43 99.99
44 2.61
45 1.19
55 1.75
57 5.89
58 2.45
70 1.2
71 45.05
72 1.65

$$$$

     RDKit          2D

  8  7  0  0  0  0  0  0  0  0999 V2000
    1.6238    3.1875    0.0000 C   0  0  0  0  0  0  0  0  0  0  0  0
   -4.8714    3.9375    0.0000 C   0  0  0  0  0  0  0  0  0  0  0  0
   -3.5724    1.6875    0.0000 C   0  0  0  0  0  0  0  0  0  0  0  0
    0.3248    3.9375    0.0000 C   0  0  0  0  0  0  0  0  0  0  0  0
   -3.5724    3.1875    0.0000 C   0  0  0  0  0  0  0  0  0  0  0  0
   -2.2733    3.9375    0.0000 C   0  0  0  0  0  0  0  0  0  0  0  0
   -2.2733    5.4375    0.0000 O   0  0  0  0  0  0  0  0  0  0  0  0
   -0.9743    3.1875    0.0000 O   0  0  0  0  0  0  0  0  0  0  0  0
  4  1  1  0
  5  2  1  0
  5  3  1  0
  6  5  1  0
  7  6  2  0
  8  4  1  0
  8  6  1  0
M  END
>  <NAME>  (3631) 
ETHYL ISOBUTYRATE

>  <SYNONYMS>  (3631) 


>  <SPECTRUM TYPE>  (3631) 
MS1

>  <INSTRUMENT TYPE>  (3631) 
EI-B

>  <INSTRUMENT>  (3631) 
HITACHI M-80B

>  <ION MODE>  (3631) 
P

>  <INCHIKEY>  (3631) 
WDAXFOBOLVPGLV-UHFFFAOYSA-N

>  <FORMULA>  (3631) 
C6H12O2

>  <EXACT MASS>  (3631) 
116.083729624

>  <MW>  (3631) 
116

>  <ID>  (3631) 
JP006964

>  <CONTRIBUTOR>  (3631) 
University of Tokyo Team, {Faculty of Engineering, University of Tokyo

>  <COMMENT>  (3631) 
SMILES=CCOC(=O)C(C)C
InChI=InChI=1S/C6H12O2/c1-4-8-6(7)5(2)3/h5H,4H2,1-3H3
computed SMILES=O=C(OCC)C(C)C
accession=JP006964
date=2016.01.19 (Created 2008.10.21, modified 2011.05.06)
author=SODA AROMATIC CO., LTD.
license=CC BY-NC-SA
exact mass=116.08373
ionization energy=70 eV
ion type=[M]+*
computed spectral entropy=2.4073358502895736
computed normalized entropy=0.7388779989163418
SPLASH=splash10-002f-9000000000-a2cde32043924be5f69d
submitter=submitter = University of Tokyo Team (Faculty of Engineering, University of Tokyo)
MoNA Rating=3.75

>  <NUM PEAKS>  (3631) 
26

>  <MASS SPECTRAL PEAKS>  (3631) 
15 3.08
18 1.29
26 3.31
27 30.63
28 4.36
29 46.09
30 1.48
31 1.15
38 1.11
39 10.39
40 2.11
41 26.76
42 13.26
43 99.99
44 3.24
45 9.73
55 1.82
57 1.39
70 1.02
71 39.81
72 1.59
73 7.73
88 7.3
89 5.19
101 1.47
116 9.79

$$$$

     RDKit          2D

  7  6  0  0  0  0  0  0  0  0999 V2000
    1.6238    1.6875    0.0000 C   0  0  0  0  0  0  0  0  0  0  0  0
    0.3248    3.9375    0.0000 C   0  0  0  0  0  0  0  0  0  0  0  0
   -3.5724    1.6875    0.0000 C   0  0  0  0  0  0  0  0  0  0  0  0
    0.3248    2.4375    0.0000 C   0  0  0  0  0  0  0  0  0  0  0  0
   -0.9743    1.6875    0.0000 C   0  0  0  0  0  0  0  0  0  0  0  0
   -0.9743    0.1875    0.0000 O   0  0  0  0  0  0  0  0  0  0  0  0
   -2.2733    2.4375    0.0000 O   0  0  0  0  0  0  0  0  0  0  0  0
  4  1  1  0
  4  2  1  0
  5  4  1  0
  6  5  2  0
  7  3  1  0
  7  5  1  0
M  END
>  <NAME>  (3632) 
METHYL ISOBUTYRATE

>  <SYNONYMS>  (3632) 


>  <SPECTRUM TYPE>  (3632) 
MS1

>  <INSTRUMENT TYPE>  (3632) 
EI-B

>  <INSTRUMENT>  (3632) 
HITACHI M-80B

>  <ION MODE>  (3632) 
P

>  <INCHIKEY>  (3632) 
BHIWKHZACMWKOJ-UHFFFAOYSA-N

>  <FORMULA>  (3632) 
C5H10O2

>  <EXACT MASS>  (3632) 
102.06807956

>  <MW>  (3632) 
102

>  <ID>  (3632) 
JP006963

>  <CONTRIBUTOR>  (3632) 
University of Tokyo Team, {Faculty of Engineering, University of Tokyo

>  <COMMENT>  (3632) 
SMILES=COC(=O)C(C)C
InChI=InChI=1S/C5H10O2/c1-4(2)5(6)7-3/h4H,1-3H3
computed SMILES=O=C(OC)C(C)C
accession=JP006963
date=2016.01.19 (Created 2008.10.21, modified 2011.05.06)
author=SODA AROMATIC CO., LTD.
license=CC BY-NC-SA
exact mass=102.06808
ionization energy=70 eV
ion type=[M]+*
computed spectral entropy=2.4846035248827083
computed normalized entropy=0.7818003273439469
SPLASH=splash10-0006-9000000000-036e1ab23d11bbe83602
submitter=submitter = University of Tokyo Team (Faculty of Engineering, University of Tokyo)
MoNA Rating=3.75

>  <NUM PEAKS>  (3632) 
24

>  <MASS SPECTRAL PEAKS>  (3632) 
15 15.69
26 2.99
27 25.03
28 3.94
29 5.66
31 2.16
33 1.25
38 1.79
39 16.74
40 2.6
41 36.85
42 15.08
43 99.99
44 3.1
45 2.23
55 6.49
59 26.65
61 4.43
70 1.01
71 35.38
72 1.39
74 2.94
87 19
102 12.14

$$$$

     RDKit          2D

 15 15  0  0  0  0  0  0  0  0999 V2000
    7.7988    1.4680    0.0000 C   0  0  0  0  0  0  0  0  0  0  0  0
    6.4887   -0.7756    0.0000 C   0  0  0  0  0  0  0  0  0  0  0  0
   -3.9180   -0.7714    0.0000 C   0  0  0  0  0  0  0  0  0  0  0  0
    1.3000   -0.7500    0.0000 C   0  0  0  0  0  0  0  0  0  0  0  0
    0.0300    1.5000    0.0000 C   0  0  0  0  0  0  0  0  0  0  0  0
    0.0300   -1.5000    0.0000 C   0  0  0  0  0  0  0  0  0  0  0  0
   -1.3200    0.7500    0.0000 C   0  0  0  0  0  0  0  0  0  0  0  0
    2.6027    1.4936    0.0000 C   0  0  0  0  0  0  0  0  0  0  0  0
    6.4961    0.7244    0.0000 C   0  0  0  0  0  0  0  0  0  0  0  0
    1.3000    0.7500    0.0000 C   0  0  0  0  0  0  0  0  0  0  0  0
   -1.3200   -0.7500    0.0000 C   0  0  0  0  0  0  0  0  0  0  0  0
    5.2008    1.4808    0.0000 C   0  0  0  0  0  0  0  0  0  0  0  0
    5.2081    2.9808    0.0000 O   0  0  0  0  0  0  0  0  0  0  0  0
   -2.6128   -1.5107    0.0000 O   0  0  0  0  0  0  0  0  0  0  0  0
    3.8980    0.7372    0.0000 O   0  0  0  0  0  0  0  0  0  0  0  0
  6  4  2  0
  7  5  1  0
  9  1  1  0
  9  2  1  0
 10  4  1  0
 10  5  2  0
 10  8  1  0
 11  6  1  0
 11  7  2  0
 12  9  1  0
 13 12  2  0
 14  3  1  0
 14 11  1  0
 15  8  1  0
 15 12  1  0
M  END
>  <NAME>  (3633) 
P-METHOXYBENZYL ISOBUTYRATE

>  <SYNONYMS>  (3633) 


>  <SPECTRUM TYPE>  (3633) 
MS1

>  <INSTRUMENT TYPE>  (3633) 
EI-B

>  <INSTRUMENT>  (3633) 
HITACHI M-80B

>  <ION MODE>  (3633) 
P

>  <INCHIKEY>  (3633) 
ZOXXODFRADWDHG-UHFFFAOYSA-N

>  <FORMULA>  (3633) 
C12H16O3

>  <EXACT MASS>  (3633) 
208.10994437199997

>  <MW>  (3633) 
208

>  <ID>  (3633) 
JP006962

>  <CONTRIBUTOR>  (3633) 
University of Tokyo Team, {Faculty of Engineering, University of Tokyo

>  <COMMENT>  (3633) 
SMILES=COc(c1)ccc(COC(=O)C(C)C)c1
InChI=InChI=1S/C12H16O3/c1-9(2)12(13)15-8-10-4-6-11(14-3)7-5-10/h4-7,9H,8H2,1-3H3
computed SMILES=O=C(OCC1=CC=C(OC)C=C1)C(C)C
accession=JP006962
date=2016.01.19 (Created 2008.10.21, modified 2011.05.06)
author=SODA AROMATIC CO., LTD.
license=CC BY-NC-SA
exact mass=208.10994
ionization energy=70 eV
ion type=[M]+*
computed spectral entropy=2.299567433672959
computed normalized entropy=0.6761052581279969
SPLASH=splash10-00di-5910000000-2853e02f231ebdfc0a49
submitter=submitter = University of Tokyo Team (Faculty of Engineering, University of Tokyo)
MoNA Rating=3.75

>  <NUM PEAKS>  (3633) 
30

>  <MASS SPECTRAL PEAKS>  (3633) 
27 5.01
28 1.23
39 4.54
41 6.01
43 13.52
50 1.08
51 3.98
52 2.3
63 1.66
64 1.15
65 1.78
71 1.82
77 8.47
78 9.17
89 2.43
90 1.65
91 5.52
92 1.99
94 1.04
105 1.32
106 1.16
109 1.93
120 7.35
121 99.99
122 8.54
135 1.36
137 1.21
138 2.27
208 12.83
209 1.39

$$$$

     RDKit          2D

 15 15  0  0  0  0  0  0  0  0999 V2000
   10.0231    1.2915    0.0000 C   0  0  0  0  0  0  0  0  0  0  0  0
    8.7245   -0.9588    0.0000 C   0  0  0  0  0  0  0  0  0  0  0  0
   -1.6700   -0.9600    0.0000 C   0  0  0  0  0  0  0  0  0  0  0  0
   -1.6700    0.5400    0.0000 C   0  0  0  0  0  0  0  0  0  0  0  0
   -0.3700   -1.7100    0.0000 C   0  0  0  0  0  0  0  0  0  0  0  0
   -0.3700    1.2900    0.0000 C   0  0  0  0  0  0  0  0  0  0  0  0
    0.9300   -0.9600    0.0000 C   0  0  0  0  0  0  0  0  0  0  0  0
    3.5281    0.5404    0.0000 C   0  0  0  0  0  0  0  0  0  0  0  0
    4.8270    1.2906    0.0000 C   0  0  0  0  0  0  0  0  0  0  0  0
    8.7242    0.5412    0.0000 C   0  0  0  0  0  0  0  0  0  0  0  0
    0.9300    0.5400    0.0000 C   0  0  0  0  0  0  0  0  0  0  0  0
    7.4251    1.2910    0.0000 C   0  0  0  0  0  0  0  0  0  0  0  0
    7.4248    2.7910    0.0000 O   0  0  0  0  0  0  0  0  0  0  0  0
    2.2289    1.2902    0.0000 O   0  0  0  0  0  0  0  0  0  0  0  0
    6.1262    0.5408    0.0000 O   0  0  0  0  0  0  0  0  0  0  0  0
  4  3  2  0
  5  3  1  0
  6  4  1  0
  7  5  2  0
  9  8  1  0
 10  1  1  0
 10  2  1  0
 11  6  2  0
 11  7  1  0
 12 10  1  0
 13 12  2  0
 14  8  1  0
 14 11  1  0
 15  9  1  0
 15 12  1  0
M  END
>  <NAME>  (3634) 
PHENOXYETHYL ISOBUTYRATE

>  <SYNONYMS>  (3634) 


>  <SPECTRUM TYPE>  (3634) 
MS1

>  <INSTRUMENT TYPE>  (3634) 
EI-B

>  <INSTRUMENT>  (3634) 
HITACHI M-80B

>  <ION MODE>  (3634) 
P

>  <INCHIKEY>  (3634) 
MJTPMXWJHPOWGH-UHFFFAOYSA-N

>  <FORMULA>  (3634) 
C12H16O3

>  <EXACT MASS>  (3634) 
208.10994437199997

>  <MW>  (3634) 
208

>  <ID>  (3634) 
JP006961

>  <CONTRIBUTOR>  (3634) 
University of Tokyo Team, {Faculty of Engineering, University of Tokyo

>  <COMMENT>  (3634) 
SMILES=CC(C)C(=O)OCCOc(c1)cccc1
InChI=InChI=1S/C12H16O3/c1-10(2)12(13)15-9-8-14-11-6-4-3-5-7-11/h3-7,10H,8-9H2,1-2H3
computed SMILES=O=C(OCCOC=1C=CC=CC1)C(C)C
accession=JP006961
date=2016.01.19 (Created 2008.10.21, modified 2011.05.06)
author=SODA AROMATIC CO., LTD.
license=CC BY-NC-SA
exact mass=208.10994
ionization energy=70 eV
ion type=[M]+*
computed spectral entropy=2.315177404462344
computed normalized entropy=0.6875479676734086
SPLASH=splash10-014l-9500000000-69ef91cea075b4387062
submitter=submitter = University of Tokyo Team (Faculty of Engineering, University of Tokyo)
MoNA Rating=3.75

>  <NUM PEAKS>  (3634) 
29

>  <MASS SPECTRAL PEAKS>  (3634) 
27 9.09
38 1.11
39 11.28
40 1.3
41 10.61
42 1.86
43 68.82
44 2.3
45 1.72
50 1.48
51 7.5
55 1.78
63 1.63
65 10.73
66 1.82
71 13.89
77 21.06
78 1.65
79 1.05
91 2.84
93 1.72
94 6.63
107 1.56
115 99.99
116 7.23
119 1.1
120 4.56
121 1.45
208 1.68

$$$$

     RDKit          2D

 16 16  0  0  0  0  0  0  0  0999 V2000
   -7.4692    4.2571    0.0000 C   0  0  0  0  0  0  0  0  0  0  0  0
   -1.9382    2.3580    0.0000 C   0  0  0  0  0  0  0  0  0  0  0  0
   -0.0099    2.3580    0.0000 C   0  0  0  0  0  0  0  0  0  0  0  0
   -6.1702    3.5071    0.0000 C   0  0  0  0  0  0  0  0  0  0  0  0
    4.2221    2.0071    0.0000 C   0  0  0  0  0  0  0  0  0  0  0  0
    4.2226    3.5079    0.0000 C   0  0  0  0  0  0  0  0  0  0  0  0
    2.9226    1.2563    0.0000 C   0  0  0  0  0  0  0  0  0  0  0  0
   -4.8712    4.2571    0.0000 C   0  0  0  0  0  0  0  0  0  0  0  0
    2.9236    4.2579    0.0000 C   0  0  0  0  0  0  0  0  0  0  0  0
    1.6236    2.0063    0.0000 C   0  0  0  0  0  0  0  0  0  0  0  0
    0.3250    4.2571    0.0000 C   0  0  0  0  0  0  0  0  0  0  0  0
    1.6240    3.5071    0.0000 C   0  0  0  0  0  0  0  0  0  0  0  0
   -3.5721    3.5071    0.0000 C   0  0  0  0  0  0  0  0  0  0  0  0
   -0.9740    3.5071    0.0000 C   0  0  0  0  0  0  0  0  0  0  0  0
   -3.5721    2.0071    0.0000 O   0  0  0  0  0  0  0  0  0  0  0  0
   -2.2731    4.2571    0.0000 O   0  0  0  0  0  0  0  0  0  0  0  0
  4  1  1  0
  6  5  2  0
  7  5  1  0
  8  4  1  0
  9  6  1  0
 10  7  2  0
 12  9  2  0
 12 10  1  0
 12 11  1  0
 13  8  1  0
 14  2  1  0
 14  3  1  0
 14 11  1  0
 15 13  2  0
 16 13  1  0
 16 14  1  0
M  END
>  <NAME>  (3635) 
1,1-DIMETHYL-2-PHENYLETHYL BUTYRATE

>  <SYNONYMS>  (3635) 


>  <SPECTRUM TYPE>  (3635) 
MS1

>  <INSTRUMENT TYPE>  (3635) 
EI-B

>  <INSTRUMENT>  (3635) 
HITACHI M-80B

>  <ION MODE>  (3635) 
P

>  <INCHIKEY>  (3635) 
SHSGYHAHMQLYRB-UHFFFAOYSA-N

>  <FORMULA>  (3635) 
C14H20O2

>  <EXACT MASS>  (3635) 
220.14632988

>  <MW>  (3635) 
220

>  <ID>  (3635) 
JP006960

>  <CONTRIBUTOR>  (3635) 
University of Tokyo Team, {Faculty of Engineering, University of Tokyo

>  <COMMENT>  (3635) 
SMILES=CCCC(=O)OC(C)(C)Cc(c1)cccc1
InChI=InChI=1S/C14H20O2/c1-4-8-13(15)16-14(2,3)11-12-9-6-5-7-10-12/h5-7,9-10H,4,8,11H2,1-3H3
computed SMILES=O=C(OC(C)(C)CC=1C=CC=CC1)CCC
accession=JP006960
date=2016.01.19 (Created 2008.10.21, modified 2011.05.06)
author=SODA AROMATIC CO., LTD.
license=CC BY-NC-SA
exact mass=220.14633
ionization energy=70 eV
ion type=[M]+*
computed spectral entropy=2.3092567595347595
computed normalized entropy=0.7006586956272387
SPLASH=splash10-00dl-9200000000-c7d5914837406e6d5d1e
submitter=submitter = University of Tokyo Team (Faculty of Engineering, University of Tokyo)
MoNA Rating=3.75

>  <NUM PEAKS>  (3635) 
27

>  <MASS SPECTRAL PEAKS>  (3635) 
27 7.11
29 2.38
39 5.9
41 9.47
42 1.97
43 41.62
44 1
51 1.79
55 4.21
59 2.39
63 1.2
65 5.61
71 99.99
72 3.27
77 1.94
78 1.1
89 1.25
91 28.24
92 2.3
105 1.66
115 2.24
117 8.07
129 3.3
131 1.28
132 30.34
133 9.52
162 1.86

$$$$

     RDKit          2D

 15 15  0  0  0  0  0  0  0  0999 V2000
    4.8721    3.8829    0.0000 C   0  0  0  0  0  0  0  0  0  0  0  0
    3.5731    3.1329    0.0000 C   0  0  0  0  0  0  0  0  0  0  0  0
   -8.1183    5.3829    0.0000 C   0  0  0  0  0  0  0  0  0  0  0  0
   -8.1187    3.8821    0.0000 C   0  0  0  0  0  0  0  0  0  0  0  0
   -6.8187    6.1337    0.0000 C   0  0  0  0  0  0  0  0  0  0  0  0
   -2.9221    3.8829    0.0000 C   0  0  0  0  0  0  0  0  0  0  0  0
    2.2740    3.8829    0.0000 C   0  0  0  0  0  0  0  0  0  0  0  0
   -6.8197    3.1321    0.0000 C   0  0  0  0  0  0  0  0  0  0  0  0
   -5.5197    5.3837    0.0000 C   0  0  0  0  0  0  0  0  0  0  0  0
   -4.2212    3.1329    0.0000 C   0  0  0  0  0  0  0  0  0  0  0  0
   -1.6231    3.1329    0.0000 C   0  0  0  0  0  0  0  0  0  0  0  0
   -5.5202    3.8829    0.0000 C   0  0  0  0  0  0  0  0  0  0  0  0
    0.9750    3.1329    0.0000 C   0  0  0  0  0  0  0  0  0  0  0  0
    0.9750    1.6329    0.0000 O   0  0  0  0  0  0  0  0  0  0  0  0
   -0.3240    3.8829    0.0000 O   0  0  0  0  0  0  0  0  0  0  0  0
  2  1  1  0
  4  3  2  0
  5  3  1  0
  7  2  1  0
  8  4  1  0
  9  5  2  0
 10  6  1  0
 11  6  1  0
 12  8  2  0
 12  9  1  0
 12 10  1  0
 13  7  1  0
 14 13  2  0
 15 11  1  0
 15 13  1  0
M  END
>  <NAME>  (3636) 
3-PHENYLPROPYL BUTYRATE

>  <SYNONYMS>  (3636) 


>  <SPECTRUM TYPE>  (3636) 
MS1

>  <INSTRUMENT TYPE>  (3636) 
EI-B

>  <INSTRUMENT>  (3636) 
HITACHI M-80B

>  <ION MODE>  (3636) 
P

>  <INCHIKEY>  (3636) 
IWBHCESPSIQPME-UHFFFAOYSA-N

>  <FORMULA>  (3636) 
C13H18O2

>  <EXACT MASS>  (3636) 
206.130679816

>  <MW>  (3636) 
206

>  <ID>  (3636) 
JP006959

>  <CONTRIBUTOR>  (3636) 
University of Tokyo Team, {Faculty of Engineering, University of Tokyo

>  <COMMENT>  (3636) 
SMILES=CCCC(=O)OCCCc(c1)cccc1
InChI=InChI=1S/C13H18O2/c1-2-7-13(14)15-11-6-10-12-8-4-3-5-9-12/h3-5,8-9H,2,6-7,10-11H2,1H3
computed SMILES=O=C(OCCCC=1C=CC=CC1)CCC
accession=JP006959
date=2016.01.19 (Created 2008.10.21, modified 2011.05.06)
author=SODA AROMATIC CO., LTD.
license=CC BY-NC-SA
exact mass=206.13068
ionization energy=70 eV
ion type=[M]+*
computed spectral entropy=2.3452109015307236
computed normalized entropy=0.7198101327454468
SPLASH=splash10-014i-6900000000-f0baf07b16566c201abc
submitter=submitter = University of Tokyo Team (Faculty of Engineering, University of Tokyo)
MoNA Rating=3.75

>  <NUM PEAKS>  (3636) 
26

>  <MASS SPECTRAL PEAKS>  (3636) 
27 9.07
28 1.46
29 1.54
39 7.19
41 12.17
42 2.03
43 24.2
51 3.41
52 1
63 1.62
65 7.53
71 12.21
77 5.61
78 3.27
79 2.43
89 1.55
91 35.54
92 3.46
103 3.5
104 2.09
105 3.33
115 2.5
116 2.64
117 68.9
118 99.99
119 10.55

$$$$

     RDKit          2D

 11 11  0  0  0  0  0  0  0  0999 V2000
   -0.3123    3.2070    0.0000 C   0  0  0  0  0  0  0  0  0  0  0  0
   -2.3640    2.6681    0.0000 C   0  0  0  0  0  0  0  0  0  0  0  0
   -1.8251    0.6164    0.0000 C   0  0  0  0  0  0  0  0  0  0  0  0
    1.5257    1.9053    0.0000 C   0  0  0  0  0  0  0  0  0  0  0  0
    0.2121   -0.3195    0.0000 C   0  0  0  0  0  0  0  0  0  0  0  0
    2.8102    1.1805    0.0000 C   0  0  0  0  0  0  0  0  0  0  0  0
    1.5366   -1.1137    0.0000 C   0  0  0  0  0  0  0  0  0  0  0  0
    0.2266    1.1553    0.0000 C   0  0  0  0  0  0  0  0  0  0  0  0
    2.8357   -0.3637    0.0000 C   0  0  0  0  0  0  0  0  0  0  0  0
   -1.0687    1.9117    0.0000 C   0  0  0  0  0  0  0  0  0  0  0  0
    4.1409   -1.1029    0.0000 O   0  0  0  0  0  0  0  0  0  0  0  0
  6  4  1  0
  7  5  1  0
  8  4  1  0
  8  5  1  0
  9  6  1  0
  9  7  1  0
 10  1  1  0
 10  2  1  0
 10  3  1  0
 10  8  1  0
 11  9  2  0
M  END
>  <NAME>  (3637) 
4-TERT-BUTYLCYCLOHEXANONE

>  <SYNONYMS>  (3637) 
4-(1,1-DIMETHYLETHYL)CYCLOHEXANONE

>  <SPECTRUM TYPE>  (3637) 
MS1

>  <INSTRUMENT TYPE>  (3637) 
EI-B

>  <INSTRUMENT>  (3637) 
HITACHI M-80B

>  <ION MODE>  (3637) 
P

>  <INCHIKEY>  (3637) 
YKFKEYKJGVSEIX-UHFFFAOYSA-N

>  <FORMULA>  (3637) 
C10H18O

>  <EXACT MASS>  (3637) 
154.135765196

>  <MW>  (3637) 
154

>  <ID>  (3637) 
JP006958

>  <CONTRIBUTOR>  (3637) 
University of Tokyo Team, {Faculty of Engineering, University of Tokyo

>  <COMMENT>  (3637) 
SMILES=O=C(C1)CCC(C1)C(C)(C)C
InChI=InChI=1S/C10H18O/c1-10(2,3)8-4-6-9(11)7-5-8/h8H,4-7H2,1-3H3
computed SMILES=O=C1CCC(CC1)C(C)(C)C
accession=JP006958
date=2016.01.19 (Created 2008.10.21, modified 2011.05.06)
author=TAJIMA S, GUNMA COLLEGE OF TECHNOLOGY
license=CC BY-NC-SA
exact mass=154.13577
ionization energy=70 eV
ion type=[M]+*
computed spectral entropy=2.7758513248259886
computed normalized entropy=0.7746160610558711
SPLASH=splash10-0a4l-9000000000-c3620720df14df5e00ad
submitter=submitter = University of Tokyo Team (Faculty of Engineering, University of Tokyo)
MoNA Rating=3.75

>  <NUM PEAKS>  (3637) 
36

>  <MASS SPECTRAL PEAKS>  (3637) 
15 2.16
27 14.19
28 6.79
29 19.05
32 1.26
39 18.1
40 2.29
41 49.77
42 6.44
43 14.53
51 1.74
53 6.25
54 2.86
55 23.43
56 5.5
57 99.99
58 3.96
65 1.29
67 4.99
68 1.97
69 14.5
70 6.8
77 1.07
79 1.98
80 1.23
81 2.19
83 18.99
84 1.03
95 1.48
97 6.47
98 54.47
99 5.97
121 1.05
139 2.18
154 11.13
155 1.17

$$$$

     RDKit          2D

 11 11  0  0  0  0  0  0  0  0999 V2000
   -7.2984   -0.2095    0.0000 C   0  0  0  0  0  0  0  0  0  0  0  0
   -6.1861    0.7970    0.0000 C   0  0  0  0  0  0  0  0  0  0  0  0
   -4.7584    0.3370    0.0000 C   0  0  0  0  0  0  0  0  0  0  0  0
   -3.6462    1.3435    0.0000 C   0  0  0  0  0  0  0  0  0  0  0  0
    0.1038    3.9857    0.0000 C   0  0  0  0  0  0  0  0  0  0  0  0
   -2.2185    0.8835    0.0000 C   0  0  0  0  0  0  0  0  0  0  0  0
   -1.2720    3.3828    0.0000 C   0  0  0  0  0  0  0  0  0  0  0  0
    1.1035    2.8774    0.0000 C   0  0  0  0  0  0  0  0  0  0  0  0
   -1.1062    1.8900    0.0000 C   0  0  0  0  0  0  0  0  0  0  0  0
    0.3535    1.5783    0.0000 C   0  0  0  0  0  0  0  0  0  0  0  0
    0.9630    0.2077    0.0000 O   0  0  0  0  0  0  0  0  0  0  0  0
  2  1  1  0
  3  2  1  0
  4  3  1  0
  6  4  1  0
  7  5  1  0
  8  5  1  0
  9  6  1  0
  9  7  1  0
 10  8  1  0
 10  9  1  0
 11 10  2  0
M  END
>  <NAME>  (3638) 
2-PENTYLCYCLOPENTANONE

>  <SYNONYMS>  (3638) 


>  <SPECTRUM TYPE>  (3638) 
MS1

>  <INSTRUMENT TYPE>  (3638) 
EI-B

>  <INSTRUMENT>  (3638) 
HITACHI M-80B

>  <ION MODE>  (3638) 
P

>  <INCHIKEY>  (3638) 
VNWOJVJCRAHBJJ-UHFFFAOYSA-N

>  <FORMULA>  (3638) 
C10H18O

>  <EXACT MASS>  (3638) 
154.135765196

>  <MW>  (3638) 
154

>  <ID>  (3638) 
JP006957

>  <CONTRIBUTOR>  (3638) 
University of Tokyo Team, {Faculty of Engineering, University of Tokyo

>  <COMMENT>  (3638) 
SMILES=CCCCCC(C1)C(=O)CC1
InChI=InChI=1S/C10H18O/c1-2-3-4-6-9-7-5-8-10(9)11/h9H,2-8H2,1H3
computed SMILES=O=C1CCCC1CCCCC
accession=JP006957
date=2016.01.19 (Created 2008.10.21, modified 2011.05.06)
author=TAJIMA S, GUNMA COLLEGE OF TECHNOLOGY
license=CC BY-NC-SA
exact mass=154.13577
ionization energy=70 eV
ion type=[M]+*
computed spectral entropy=2.5511194327830324
computed normalized entropy=0.7576166638121842
SPLASH=splash10-001i-9000000000-7f42ad28534ef6a15ae4
submitter=submitter = University of Tokyo Team (Faculty of Engineering, University of Tokyo)
MoNA Rating=3.75

>  <NUM PEAKS>  (3638) 
29

>  <MASS SPECTRAL PEAKS>  (3638) 
26 1.11
27 16.66
28 1.76
29 17.13
39 15.12
40 1.34
41 35.06
42 7.83
43 7.03
53 3.57
54 4.59
55 22.86
56 11.61
57 2.92
67 2.88
68 1.56
69 6.32
70 3.68
79 1.18
81 1.37
82 1.12
83 16.41
84 99.99
85 4.72
97 14.24
98 1.46
111 1.03
112 1.12
154 3.95

$$$$

     RDKit          2D

 11 11  0  0  0  0  0  0  0  0999 V2000
   -7.2984   -0.2095    0.0000 C   0  0  0  0  0  0  0  0  0  0  0  0
   -6.1861    0.7970    0.0000 C   0  0  0  0  0  0  0  0  0  0  0  0
   -4.7584    0.3370    0.0000 C   0  0  0  0  0  0  0  0  0  0  0  0
   -3.6462    1.3435    0.0000 C   0  0  0  0  0  0  0  0  0  0  0  0
    0.1038    3.9857    0.0000 C   0  0  0  0  0  0  0  0  0  0  0  0
   -2.2185    0.8835    0.0000 C   0  0  0  0  0  0  0  0  0  0  0  0
   -1.2720    3.3828    0.0000 C   0  0  0  0  0  0  0  0  0  0  0  0
    1.1035    2.8774    0.0000 C   0  0  0  0  0  0  0  0  0  0  0  0
   -1.1062    1.8900    0.0000 C   0  0  0  0  0  0  0  0  0  0  0  0
    0.3535    1.5783    0.0000 C   0  0  0  0  0  0  0  0  0  0  0  0
    0.9630    0.2077    0.0000 O   0  0  0  0  0  0  0  0  0  0  0  0
  2  1  1  0
  3  2  1  0
  4  3  1  0
  6  4  1  0
  7  5  1  0
  8  5  1  0
  9  6  1  0
  9  7  2  0
 10  8  1  0
 10  9  1  0
 11 10  2  0
M  END
>  <NAME>  (3639) 
2-PENTYL-2-CYCLOPENTENONE

>  <SYNONYMS>  (3639) 


>  <SPECTRUM TYPE>  (3639) 
MS1

>  <INSTRUMENT TYPE>  (3639) 
EI-B

>  <INSTRUMENT>  (3639) 
HITACHI M-80B

>  <ION MODE>  (3639) 
P

>  <INCHIKEY>  (3639) 
ILHZVKAXFCDFMT-UHFFFAOYSA-N

>  <FORMULA>  (3639) 
C10H16O

>  <EXACT MASS>  (3639) 
152.120115132

>  <MW>  (3639) 
152

>  <ID>  (3639) 
JP006956

>  <CONTRIBUTOR>  (3639) 
University of Tokyo Team, {Faculty of Engineering, University of Tokyo

>  <COMMENT>  (3639) 
SMILES=CCCCCC(=C1)C(=O)CC1
InChI=InChI=1S/C10H16O/c1-2-3-4-6-9-7-5-8-10(9)11/h7H,2-6,8H2,1H3
computed SMILES=O=C1C(=CCC1)CCCCC
accession=JP006956
date=2016.01.19 (Created 2008.10.21, modified 2011.05.06)
author=TAJIMA S, GUNMA COLLEGE OF TECHNOLOGY
license=CC BY-NC-SA
exact mass=152.12012
ionization energy=70 eV
ion type=[M]+*
computed spectral entropy=3.357565064578564
computed normalized entropy=0.8456720910414453
SPLASH=splash10-0002-9100000000-9bf391a89a17ea3452e5
submitter=submitter = University of Tokyo Team (Faculty of Engineering, University of Tokyo)
MoNA Rating=3.75

>  <NUM PEAKS>  (3639) 
53

>  <MASS SPECTRAL PEAKS>  (3639) 
15 2.25
26 4
27 43.57
28 10.67
29 30.77
38 2
39 45.24
40 5.18
41 75.49
42 6.06
43 9.99
44 1.48
50 3.1
51 8.94
52 8.04
53 24.02
54 7.89
55 18.32
56 1.1
57 1.27
63 2.84
65 12.54
66 10.18
67 54.45
68 22.85
69 5.22
77 9.38
78 3.46
79 17.51
80 3.62
81 22.23
82 4.91
83 3.68
84 1.25
91 4.57
93 4.23
94 2.5
95 30.69
96 99.99
97 70.75
98 4.54
105 1.77
108 3.22
109 35.29
110 21.27
111 3.29
119 2.82
123 29.27
124 6.33
137 10.15
151 4.25
152 25.72
153 3.65

$$$$

     RDKit          2D

 10 10  0  0  0  0  0  0  0  0999 V2000
    0.1783   -2.1596    0.0000 C   0  0  0  0  0  0  0  0  0  0  0  0
   -1.6344    3.0000    0.0000 C   0  0  0  0  0  0  0  0  0  0  0  0
   -2.5989    1.3300    0.0000 C   0  0  0  0  0  0  0  0  0  0  0  0
    1.4783    0.0904    0.0000 C   0  0  0  0  0  0  0  0  0  0  0  0
   -1.1217    0.0904    0.0000 C   0  0  0  0  0  0  0  0  0  0  0  0
    0.1783    2.3404    0.0000 C   0  0  0  0  0  0  0  0  0  0  0  0
    0.1783   -0.6596    0.0000 C   0  0  0  0  0  0  0  0  0  0  0  0
    1.4783    1.5904    0.0000 C   0  0  0  0  0  0  0  0  0  0  0  0
   -1.1217    1.5904    0.0000 C   0  0  0  0  0  0  0  0  0  0  0  0
    2.7772    2.3406    0.0000 O   0  0  0  0  0  0  0  0  0  0  0  0
  7  1  1  0
  7  4  1  0
  7  5  1  0
  8  4  1  0
  8  6  1  0
  9  2  1  0
  9  3  1  0
  9  5  1  0
  9  6  1  0
 10  8  2  0
M  END
>  <NAME>  (3640) 
3,3,5-TRIMETHYLCYCLOHEXANONE

>  <SYNONYMS>  (3640) 


>  <SPECTRUM TYPE>  (3640) 
MS1

>  <INSTRUMENT TYPE>  (3640) 
EI-B

>  <INSTRUMENT>  (3640) 
HITACHI M-80B

>  <ION MODE>  (3640) 
P

>  <INCHIKEY>  (3640) 
POSWICCRDBKBMH-UHFFFAOYSA-N

>  <FORMULA>  (3640) 
C9H16O

>  <EXACT MASS>  (3640) 
140.120115132

>  <MW>  (3640) 
140

>  <ID>  (3640) 
JP006955

>  <CONTRIBUTOR>  (3640) 
University of Tokyo Team, {Faculty of Engineering, University of Tokyo

>  <COMMENT>  (3640) 
SMILES=CC(C1)CC(C)(C)CC(=O)1
InChI=InChI=1S/C9H16O/c1-7-4-8(10)6-9(2,3)5-7/h7H,4-6H2,1-3H3
computed SMILES=O=C1CC(C)CC(C)(C)C1
accession=JP006955
date=2016.01.19 (Created 2008.10.21, modified 2011.05.06)
author=TAJIMA S, GUNMA COLLEGE OF TECHNOLOGY
license=CC BY-NC-SA
exact mass=140.12012
ionization energy=70 eV
ion type=[M]+*
computed spectral entropy=2.703803966524103
computed normalized entropy=0.766740651629319
SPLASH=splash10-05o3-9000000000-a2dc833e3c23bcea90c1
submitter=submitter = University of Tokyo Team (Faculty of Engineering, University of Tokyo)
MoNA Rating=3.75

>  <NUM PEAKS>  (3640) 
34

>  <MASS SPECTRAL PEAKS>  (3640) 
15 3.18
27 18.28
28 2.68
29 15.51
38 1.19
39 27.62
40 3.79
41 48.57
42 13.76
43 6.78
51 1.95
52 1.02
53 5.63
54 1.77
55 43.98
56 37.68
57 9.09
67 3.31
69 54.41
70 3.31
77 1
79 1.17
81 1.47
82 1.91
83 99.99
84 9.01
85 1.26
96 1.87
97 3.8
98 2.36
107 1.08
125 7.18
140 18.29
141 1.41

$$$$

     RDKit          2D

 10 10  0  0  0  0  0  0  0  0999 V2000
   -2.9242    2.0631    0.0000 C   0  0  0  0  0  0  0  0  0  0  0  0
   -1.6250    1.3133    0.0000 C   0  0  0  0  0  0  0  0  0  0  0  0
    2.2730   -0.9380    0.0000 C   0  0  0  0  0  0  0  0  0  0  0  0
    3.5721   -0.1880    0.0000 C   0  0  0  0  0  0  0  0  0  0  0  0
   -0.3261    2.0635    0.0000 C   0  0  0  0  0  0  0  0  0  0  0  0
    0.9735   -0.1871    0.0000 C   0  0  0  0  0  0  0  0  0  0  0  0
    3.5716    1.3129    0.0000 C   0  0  0  0  0  0  0  0  0  0  0  0
    0.9730    1.3137    0.0000 C   0  0  0  0  0  0  0  0  0  0  0  0
    2.2721    2.0637    0.0000 C   0  0  0  0  0  0  0  0  0  0  0  0
    2.2723    3.5637    0.0000 O   0  0  0  0  0  0  0  0  0  0  0  0
  2  1  1  0
  4  3  1  0
  5  2  1  0
  6  3  1  0
  7  4  1  0
  8  5  1  0
  8  6  1  0
  9  7  1  0
  9  8  1  0
 10  9  2  0
M  END
>  <NAME>  (3641) 
2-PROPYLCYCLOHEXANONE

>  <SYNONYMS>  (3641) 


>  <SPECTRUM TYPE>  (3641) 
MS1

>  <INSTRUMENT TYPE>  (3641) 
EI-B

>  <INSTRUMENT>  (3641) 
HITACHI M-80B

>  <ION MODE>  (3641) 
P

>  <INCHIKEY>  (3641) 
OCJLPZCBZSCVCO-UHFFFAOYSA-N

>  <FORMULA>  (3641) 
C9H16O

>  <EXACT MASS>  (3641) 
140.120115132

>  <MW>  (3641) 
140

>  <ID>  (3641) 
JP006954

>  <CONTRIBUTOR>  (3641) 
University of Tokyo Team, {Faculty of Engineering, University of Tokyo

>  <COMMENT>  (3641) 
SMILES=CCCC(C1)C(=O)CCC1
InChI=InChI=1S/C9H16O/c1-2-5-8-6-3-4-7-9(8)10/h8H,2-7H2,1H3
computed SMILES=O=C1CCCCC1CCC
accession=JP006954
date=2016.01.19 (Created 2008.10.21, modified 2011.05.06)
author=TAJIMA S, GUNMA COLLEGE OF TECHNOLOGY
license=CC BY-NC-SA
exact mass=140.12012
ionization energy=70 eV
ion type=[M]+*
computed spectral entropy=2.845984483110978
computed normalized entropy=0.8004798500427923
SPLASH=splash10-0005-9000000000-7f16b98b0aedf3f3ad57
submitter=submitter = University of Tokyo Team (Faculty of Engineering, University of Tokyo)
MoNA Rating=3.75

>  <NUM PEAKS>  (3641) 
35

>  <MASS SPECTRAL PEAKS>  (3641) 
15 1.68
26 1.76
27 26.19
28 10.58
29 16.17
39 23.39
40 2.66
41 46.6
42 18.1
43 10.89
51 1.68
52 1.07
53 5.18
54 7.58
55 35.6
56 13.4
57 2.36
65 1.36
67 5.34
68 2.11
69 11.63
70 20.88
71 1.51
77 1.32
79 1.65
81 4.05
83 19.06
84 3.21
93 1.03
96 1.68
97 13.23
98 99.99
99 5.23
111 5.47
140 1.93

$$$$

     RDKit          2D

 10 10  0  0  0  0  0  0  0  0999 V2000
    0.1783   -2.1596    0.0000 C   0  0  0  0  0  0  0  0  0  0  0  0
   -1.6344    3.0000    0.0000 C   0  0  0  0  0  0  0  0  0  0  0  0
   -2.5989    1.3300    0.0000 C   0  0  0  0  0  0  0  0  0  0  0  0
    1.4783    0.0904    0.0000 C   0  0  0  0  0  0  0  0  0  0  0  0
   -1.1217    0.0904    0.0000 C   0  0  0  0  0  0  0  0  0  0  0  0
    0.1783    2.3404    0.0000 C   0  0  0  0  0  0  0  0  0  0  0  0
    0.1783   -0.6596    0.0000 C   0  0  0  0  0  0  0  0  0  0  0  0
    1.4783    1.5904    0.0000 C   0  0  0  0  0  0  0  0  0  0  0  0
   -1.1217    1.5904    0.0000 C   0  0  0  0  0  0  0  0  0  0  0  0
    2.7772    2.3406    0.0000 O   0  0  0  0  0  0  0  0  0  0  0  0
  7  1  1  0
  7  4  2  0
  7  5  1  0
  8  4  1  0
  8  6  1  0
  9  2  1  0
  9  3  1  0
  9  5  1  0
  9  6  1  0
 10  8  2  0
M  END
>  <NAME>  (3642) 
3,5,5-TRIMETHYL-2-CYCLOHEXENONE

>  <SYNONYMS>  (3642) 


>  <SPECTRUM TYPE>  (3642) 
MS1

>  <INSTRUMENT TYPE>  (3642) 
EI-B

>  <INSTRUMENT>  (3642) 
HITACHI M-80B

>  <ION MODE>  (3642) 
P

>  <INCHIKEY>  (3642) 
HJOVHMDZYOCNQW-UHFFFAOYSA-N

>  <FORMULA>  (3642) 
C9H14O

>  <EXACT MASS>  (3642) 
138.104465068

>  <MW>  (3642) 
138

>  <ID>  (3642) 
JP006953

>  <CONTRIBUTOR>  (3642) 
University of Tokyo Team, {Faculty of Engineering, University of Tokyo

>  <COMMENT>  (3642) 
SMILES=CC(=C1)CC(C)(C)CC(=O)1
InChI=InChI=1S/C9H14O/c1-7-4-8(10)6-9(2,3)5-7/h4H,5-6H2,1-3H3
computed SMILES=O=C1C=C(C)CC(C)(C)C1
computed spectral entropy=2.3047617325944962
computed normalized entropy=0.699294845678648
accession=JP006953
date=2016.01.19 (Created 2008.10.21, modified 2011.05.06)
author=TAJIMA S, GUNMA COLLEGE OF TECHNOLOGY
license=CC BY-NC-SA
exact mass=138.10447
ionization energy=70 eV
ion type=[M]+*
SPLASH=splash10-001i-9000000000-35f5f51e1d1c8b9f41eb
submitter=submitter = University of Tokyo Team (Faculty of Engineering, University of Tokyo)
MoNA Rating=3.75

>  <NUM PEAKS>  (3642) 
27

>  <MASS SPECTRAL PEAKS>  (3642) 
15 1.14
28 33.31
29 7.49
38 1.11
39 21.22
40 1.45
41 10.41
42 1.96
43 1.06
50 1.13
51 3.09
52 1.51
53 7.27
54 14.35
55 5.77
65 1.25
67 4.5
69 1.07
77 2.8
79 2.69
81 1.12
82 99.99
83 6.16
95 5.71
123 1.35
138 14.86
139 1.27

$$$$

     RDKit          2D

  8  8  0  0  0  0  0  0  0  0999 V2000
   -0.6520   -2.2491    0.0000 C   0  0  0  0  0  0  0  0  0  0  0  0
   -1.9467    1.4939    0.0000 C   0  0  0  0  0  0  0  0  0  0  0  0
   -1.9512    0.0017    0.0000 C   0  0  0  0  0  0  0  0  0  0  0  0
   -0.6477    2.2439    0.0000 C   0  0  0  0  0  0  0  0  0  0  0  0
    0.6473    0.0009    0.0000 C   0  0  0  0  0  0  0  0  0  0  0  0
   -0.6517   -0.7491    0.0000 C   0  0  0  0  0  0  0  0  0  0  0  0
    0.6468    1.5017    0.0000 C   0  0  0  0  0  0  0  0  0  0  0  0
    1.9446    2.2539    0.0000 O   0  0  0  0  0  0  0  0  0  0  0  0
  3  2  1  0
  4  2  1  0
  6  1  1  0
  6  3  1  0
  6  5  1  0
  7  4  1  0
  7  5  1  0
  8  7  2  0
M  END
>  <NAME>  (3643) 
3-METHYLCYCLOHEXANONE

>  <SYNONYMS>  (3643) 


>  <SPECTRUM TYPE>  (3643) 
MS1

>  <INSTRUMENT TYPE>  (3643) 
EI-B

>  <INSTRUMENT>  (3643) 
HITACHI M-80B

>  <ION MODE>  (3643) 
P

>  <INCHIKEY>  (3643) 
UJBOOUHRTQVGRU-UHFFFAOYSA-N

>  <FORMULA>  (3643) 
C7H12O

>  <EXACT MASS>  (3643) 
112.088815004

>  <MW>  (3643) 
112

>  <ID>  (3643) 
JP006952

>  <CONTRIBUTOR>  (3643) 
University of Tokyo Team, {Faculty of Engineering, University of Tokyo

>  <COMMENT>  (3643) 
SMILES=CC(C1)CC(=O)CC1
InChI=InChI=1S/C7H12O/c1-6-3-2-4-7(8)5-6/h6H,2-5H2,1H3
computed SMILES=O=C1CCCC(C)C1
accession=JP006952
date=2016.01.19 (Created 2008.10.21, modified 2011.05.06)
author=TAJIMA S, GUNMA COLLEGE OF TECHNOLOGY
license=CC BY-NC-SA
exact mass=112.08882
ionization energy=70 eV
ion type=[M]+*
computed spectral entropy=2.6923818168490223
computed normalized entropy=0.7840395599996675
SPLASH=splash10-066u-9000000000-34156a09713322b57d8e
submitter=submitter = University of Tokyo Team (Faculty of Engineering, University of Tokyo)
MoNA Rating=3.75

>  <NUM PEAKS>  (3643) 
31

>  <MASS SPECTRAL PEAKS>  (3643) 
15 3.72
26 2.7
27 23.56
28 3.82
29 9.13
38 2.69
39 35.65
40 6.35
41 51.92
42 39.76
43 7.16
50 1.6
51 2.36
52 1.2
53 5
54 2.07
55 34.6
56 49.17
57 3.34
65 1.03
67 2.72
68 7.16
69 99.99
70 8.09
79 2.77
83 2.49
84 3.4
94 3.62
97 12.36
112 28.97
113 1.97

$$$$

     RDKit          2D

  7  7  0  0  0  0  0  0  0  0999 V2000
   -1.6700   -0.9600    0.0000 C   0  0  0  0  0  0  0  0  0  0  0  0
   -1.6700    0.5400    0.0000 C   0  0  0  0  0  0  0  0  0  0  0  0
   -0.3700   -1.7100    0.0000 C   0  0  0  0  0  0  0  0  0  0  0  0
   -0.3700    1.2900    0.0000 C   0  0  0  0  0  0  0  0  0  0  0  0
    0.9300   -0.9600    0.0000 C   0  0  0  0  0  0  0  0  0  0  0  0
    0.9300    0.5400    0.0000 C   0  0  0  0  0  0  0  0  0  0  0  0
    2.2289    1.2902    0.0000 O   0  0  0  0  0  0  0  0  0  0  0  0
  2  1  1  0
  3  1  1  0
  4  2  1  0
  5  3  1  0
  6  4  1  0
  6  5  1  0
  7  6  2  0
M  END
>  <NAME>  (3644) 
CYCLOHEXANONE

>  <SYNONYMS>  (3644) 


>  <SPECTRUM TYPE>  (3644) 
MS1

>  <INSTRUMENT TYPE>  (3644) 
EI-B

>  <INSTRUMENT>  (3644) 
HITACHI M-80B

>  <ION MODE>  (3644) 
P

>  <INCHIKEY>  (3644) 
JHIVVAPYMSGYDF-UHFFFAOYSA-N

>  <FORMULA>  (3644) 
C6H10O

>  <EXACT MASS>  (3644) 
98.07316494

>  <MW>  (3644) 
98

>  <ID>  (3644) 
JP006951

>  <CONTRIBUTOR>  (3644) 
University of Tokyo Team, {Faculty of Engineering, University of Tokyo

>  <COMMENT>  (3644) 
SMILES=O=C(C1)CCCC1
InChI=InChI=1S/C6H10O/c7-6-4-2-1-3-5-6/h1-5H2
computed SMILES=O=C1CCCCC1
accession=JP006951
date=2016.01.19 (Created 2008.10.21, modified 2011.05.06)
author=TAJIMA S, GUNMA COLLEGE OF TECHNOLOGY
license=CC BY-NC-SA
exact mass=98.07316
ionization energy=70 eV
ion type=[M]+*
computed spectral entropy=2.6174223632713294
computed normalized entropy=0.7854927136911258
SPLASH=splash10-052f-9000000000-6c26c5016354e3daff39
submitter=submitter = University of Tokyo Team (Faculty of Engineering, University of Tokyo)
MoNA Rating=3.75

>  <NUM PEAKS>  (3644) 
28

>  <MASS SPECTRAL PEAKS>  (3644) 
15 2.98
26 6.52
27 29.97
28 10.95
29 6.28
37 1.4
38 3.75
39 33.99
40 5.94
41 38.31
42 67.75
43 11.06
44 1.04
50 1.85
51 2.61
53 3.35
54 6.28
55 99.99
56 10.41
57 1.09
69 25.26
70 21.98
71 1.27
80 3.71
83 7.11
97 1.47
98 36.42
99 2.31

$$$$

     RDKit          2D

  6  6  0  0  0  0  0  0  0  0999 V2000
    2.0279    0.1311    0.0000 C   0  0  0  0  0  0  0  0  0  0  0  0
    1.2779   -1.1679    0.0000 C   0  0  0  0  0  0  0  0  0  0  0  0
    0.9958    1.2235    0.0000 C   0  0  0  0  0  0  0  0  0  0  0  0
   -0.1745   -0.8836    0.0000 C   0  0  0  0  0  0  0  0  0  0  0  0
   -0.3540    0.6056    0.0000 C   0  0  0  0  0  0  0  0  0  0  0  0
   -1.6625    1.3389    0.0000 O   0  0  0  0  0  0  0  0  0  0  0  0
  2  1  1  0
  3  1  1  0
  4  2  1  0
  5  3  1  0
  5  4  1  0
  6  5  2  0
M  END
>  <NAME>  (3645) 
CYCLOPENTANONE

>  <SYNONYMS>  (3645) 


>  <SPECTRUM TYPE>  (3645) 
MS1

>  <INSTRUMENT TYPE>  (3645) 
EI-B

>  <INSTRUMENT>  (3645) 
HITACHI M-80B

>  <ION MODE>  (3645) 
P

>  <INCHIKEY>  (3645) 
BGTOWKSIORTVQH-UHFFFAOYSA-N

>  <FORMULA>  (3645) 
C5H8O

>  <EXACT MASS>  (3645) 
84.057514876

>  <MW>  (3645) 
84

>  <ID>  (3645) 
JP006950

>  <CONTRIBUTOR>  (3645) 
University of Tokyo Team, {Faculty of Engineering, University of Tokyo

>  <COMMENT>  (3645) 
SMILES=O=C(C1)CCC1
InChI=InChI=1S/C5H8O/c6-5-3-1-2-4-5/h1-4H2
computed SMILES=O=C1CCCC1
accession=JP006950
date=2016.01.19 (Created 2008.10.21, modified 2011.05.06)
author=TAJIMA S, GUNMA COLLEGE OF TECHNOLOGY
license=CC BY-NC-SA
exact mass=84.05751
ionization energy=70 eV
ion type=[M]+*
computed spectral entropy=2.4279454625324766
computed normalized entropy=0.7639724158689457
SPLASH=splash10-0a6r-9000000000-92f1cd24f64620f953d5
submitter=submitter = University of Tokyo Team (Faculty of Engineering, University of Tokyo)
MoNA Rating=3.75

>  <NUM PEAKS>  (3645) 
24

>  <MASS SPECTRAL PEAKS>  (3645) 
14 1.26
15 2.67
26 14.6
27 35.48
28 54.42
29 9.1
37 1.94
38 4.05
39 25.02
40 3.32
41 45.24
42 19.47
43 3.55
50 3.17
51 2.72
52 1.14
53 3.09
54 1.39
55 99.99
56 30.3
57 1.59
83 1.3
84 39.35
85 2.08

$$$$

     RDKit          2D

 12 12  0  0  0  0  0  0  0  0999 V2000
    8.6822   -0.3444    0.0000 C   0  0  0  0  0  0  0  0  0  0  0  0
    7.3839    0.4069    0.0000 C   0  0  0  0  0  0  0  0  0  0  0  0
    6.0841   -0.3418    0.0000 C   0  0  0  0  0  0  0  0  0  0  0  0
    4.7859    0.4095    0.0000 C   0  0  0  0  0  0  0  0  0  0  0  0
   -0.7437   -2.1350    0.0000 C   0  0  0  0  0  0  0  0  0  0  0  0
    3.4861   -0.3391    0.0000 C   0  0  0  0  0  0  0  0  0  0  0  0
    0.7235   -1.8232    0.0000 C   0  0  0  0  0  0  0  0  0  0  0  0
   -1.4889   -0.8417    0.0000 C   0  0  0  0  0  0  0  0  0  0  0  0
    2.1878    0.4122    0.0000 C   0  0  0  0  0  0  0  0  0  0  0  0
    0.8880   -0.3365    0.0000 C   0  0  0  0  0  0  0  0  0  0  0  0
    2.1893    1.9122    0.0000 O   0  0  0  0  0  0  0  0  0  0  0  0
   -0.4883    0.2706    0.0000 O   0  0  0  0  0  0  0  0  0  0  0  0
  2  1  1  0
  3  2  1  0
  4  3  1  0
  6  4  1  0
  7  5  1  0
  8  5  2  0
  9  6  1  0
 10  7  2  0
 10  9  1  0
 11  9  2  0
 12  8  1  0
 12 10  1  0
M  END
>  <NAME>  (3646) 
2-FURYL PENTYL KETONE

>  <SYNONYMS>  (3646) 


>  <SPECTRUM TYPE>  (3646) 
MS1

>  <INSTRUMENT TYPE>  (3646) 
EI-B

>  <INSTRUMENT>  (3646) 
HITACHI M-80B

>  <ION MODE>  (3646) 
P

>  <INCHIKEY>  (3646) 
YUAYWSBSIJVIBS-UHFFFAOYSA-N

>  <FORMULA>  (3646) 
C10H14O2

>  <EXACT MASS>  (3646) 
166.099379688

>  <MW>  (3646) 
166

>  <ID>  (3646) 
JP006949

>  <CONTRIBUTOR>  (3646) 
University of Tokyo Team, {Faculty of Engineering, University of Tokyo

>  <COMMENT>  (3646) 
SMILES=CCCCCC(=O)c(c1)occ1
InChI=InChI=1S/C10H14O2/c1-2-3-4-6-9(11)10-7-5-8-12-10/h5,7-8H,2-4,6H2,1H3
computed SMILES=O=C(C=1OC=CC1)CCCCC
accession=JP006949
date=2016.01.19 (Created 2008.10.21, modified 2011.05.06)
author=TAJIMA S, GUNMA COLLEGE OF TECHNOLOGY
license=CC BY-NC-SA
exact mass=166.09938
ionization energy=70 eV
ion type=[M]+*
computed spectral entropy=2.1454084138770777
computed normalized entropy=0.7046781417322487
SPLASH=splash10-03dj-9500000000-e7a6b6f1f89c163e9cee
submitter=submitter = University of Tokyo Team (Faculty of Engineering, University of Tokyo)
MoNA Rating=3.75

>  <NUM PEAKS>  (3646) 
21

>  <MASS SPECTRAL PEAKS>  (3646) 
27 13.87
29 9.51
37 1.13
38 3.68
39 29.88
41 10.77
42 2.5
43 6.62
51 1.67
53 4.48
54 1.96
55 6.38
67 2.55
68 3.5
81 3.34
95 70.64
96 3.33
97 1.01
110 99.99
111 6.32
123 9.91

$$$$

     RDKit          2D

 10 10  0  0  0  0  0  0  0  0999 V2000
   -1.6300    1.2517    0.0000 C   0  0  0  0  0  0  0  0  0  0  0  0
    5.4215    1.5862    0.0000 C   0  0  0  0  0  0  0  0  0  0  0  0
    3.9215    1.5862    0.0000 C   0  0  0  0  0  0  0  0  0  0  0  0
    0.9107    0.7090    0.0000 C   0  0  0  0  0  0  0  0  0  0  0  0
    2.0244   -0.2959    0.0000 C   0  0  0  0  0  0  0  0  0  0  0  0
    5.8815    0.1662    0.0000 C   0  0  0  0  0  0  0  0  0  0  0  0
   -0.5163    0.2469    0.0000 C   0  0  0  0  0  0  0  0  0  0  0  0
    3.4515    0.1662    0.0000 C   0  0  0  0  0  0  0  0  0  0  0  0
   -0.8297   -1.2200    0.0000 O   0  0  0  0  0  0  0  0  0  0  0  0
    4.6715   -0.7138    0.0000 O   0  0  0  0  0  0  0  0  0  0  0  0
  3  2  1  0
  4  5  2  0
  6  2  2  0
  7  1  1  0
  7  4  1  0
  8  3  2  0
  8  5  1  0
  9  7  2  0
 10  6  1  0
 10  8  1  0
M  END
>  <NAME>  (3647) 
FURFURYLIDENE ACETONE

>  <SYNONYMS>  (3647) 
1-ACETYL-2-(2-FURYL)ETHYLENE

>  <SPECTRUM TYPE>  (3647) 
MS1

>  <INSTRUMENT TYPE>  (3647) 
EI-B

>  <INSTRUMENT>  (3647) 
HITACHI M-80B

>  <ION MODE>  (3647) 
P

>  <INCHIKEY>  (3647) 
GBKGJMYPQZODMI-SNAWJCMRSA-N

>  <FORMULA>  (3647) 
C8H8O2

>  <EXACT MASS>  (3647) 
136.052429496

>  <MW>  (3647) 
136

>  <ID>  (3647) 
JP006948

>  <CONTRIBUTOR>  (3647) 
University of Tokyo Team, {Faculty of Engineering, University of Tokyo

>  <COMMENT>  (3647) 
SMILES=CC(=O)C=Cc(o1)c([H])c([H])c([H])1
InChI=InChI=1S/C8H8O2/c1-7(9)4-5-8-3-2-6-10-8/h2-6H,1H3/b5-4+
computed SMILES=O=C(C=CC=1OC=CC1)C
accession=JP006948
date=2016.01.19 (Created 2008.10.21, modified 2011.05.06)
author=TAJIMA S, GUNMA COLLEGE OF TECHNOLOGY
license=CC BY-NC-SA
exact mass=136.05243
ionization energy=70 eV
ion type=[M]+*
computed spectral entropy=2.908349247496981
computed normalized entropy=0.7640155268066491
SPLASH=splash10-00rl-9300000000-f727b89d15e4bb8555af
submitter=submitter = University of Tokyo Team (Faculty of Engineering, University of Tokyo)
MoNA Rating=3.75

>  <NUM PEAKS>  (3647) 
45

>  <MASS SPECTRAL PEAKS>  (3647) 
14 1.28
15 9.35
26 3.49
27 5.17
29 8.18
37 4.29
38 13.51
39 53.49
40 1.98
41 1.22
42 4.18
43 65.35
44 1.76
49 1.02
50 6.52
51 8.97
52 2.62
53 4.99
54 3.2
55 1.49
60 1.9
61 2.96
62 7.72
63 20.59
64 7.95
65 93.49
66 6.84
74 1.47
77 7.56
78 1.65
79 7.25
80 1.36
81 2
82 3.75
92 2.32
93 14.05
94 35.3
95 2.61
107 3.81
108 3.4
121 99.99
122 7.75
135 3.02
136 59.75
137 4.43

$$$$

     RDKit          2D

  9  9  0  0  0  0  0  0  0  0999 V2000
    4.7678    0.1193    0.0000 C   0  0  0  0  0  0  0  0  0  0  0  0
    3.3407   -0.3428    0.0000 C   0  0  0  0  0  0  0  0  0  0  0  0
   -1.1700   -1.2200    0.0000 C   0  0  0  0  0  0  0  0  0  0  0  0
    0.3300   -1.2200    0.0000 C   0  0  0  0  0  0  0  0  0  0  0  0
   -1.6300    0.2000    0.0000 C   0  0  0  0  0  0  0  0  0  0  0  0
    2.2271    0.6621    0.0000 C   0  0  0  0  0  0  0  0  0  0  0  0
    0.8000    0.2000    0.0000 C   0  0  0  0  0  0  0  0  0  0  0  0
    2.5404    2.1290    0.0000 O   0  0  0  0  0  0  0  0  0  0  0  0
   -0.4200    1.0800    0.0000 O   0  0  0  0  0  0  0  0  0  0  0  0
  2  1  1  0
  4  3  1  0
  5  3  2  0
  6  2  1  0
  7  4  2  0
  7  6  1  0
  8  6  2  0
  9  5  1  0
  9  7  1  0
M  END
>  <NAME>  (3648) 
ETHYL 2-FURYL KETONE

>  <SYNONYMS>  (3648) 
2-PROPIONYLFURAN

>  <SPECTRUM TYPE>  (3648) 
MS1

>  <INSTRUMENT TYPE>  (3648) 
EI-B

>  <INSTRUMENT>  (3648) 
HITACHI M-80B

>  <ION MODE>  (3648) 
P

>  <INCHIKEY>  (3648) 
HCPORNAVHSWTOJ-UHFFFAOYSA-N

>  <FORMULA>  (3648) 
C7H8O2

>  <EXACT MASS>  (3648) 
124.052429496

>  <MW>  (3648) 
124

>  <ID>  (3648) 
JP006947

>  <CONTRIBUTOR>  (3648) 
University of Tokyo Team, {Faculty of Engineering, University of Tokyo

>  <COMMENT>  (3648) 
SMILES=CCC(=O)c(c1)occ1
InChI=InChI=1S/C7H8O2/c1-2-6(8)7-4-3-5-9-7/h3-5H,2H2,1H3
computed SMILES=O=C(C=1OC=CC1)CC
accession=JP006947
date=2016.01.19 (Created 2008.10.21, modified 2011.05.06)
author=TAJIMA S, GUNMA COLLEGE OF TECHNOLOGY
license=CC BY-NC-SA
exact mass=124.05243
ionization energy=70 eV
ion type=[M]+*
computed spectral entropy=1.796501217182728
computed normalized entropy=0.634086106135141
SPLASH=splash10-0002-9100000000-d7c54af08048741a298f
submitter=submitter = University of Tokyo Team (Faculty of Engineering, University of Tokyo)
MoNA Rating=3.75

>  <NUM PEAKS>  (3648) 
17

>  <MASS SPECTRAL PEAKS>  (3648) 
26 2.21
27 10.5
29 7.56
37 3.18
38 7.96
39 25.75
41 1.37
51 1.87
53 1.73
55 1.32
57 1.25
67 2.85
68 1.17
95 99.99
96 5.6
124 22.77
125 1.45

$$$$

     RDKit          2D

  8  8  0  0  0  0  0  0  0  0999 V2000
    3.3407   -0.3428    0.0000 C   0  0  0  0  0  0  0  0  0  0  0  0
   -1.1700   -1.2200    0.0000 C   0  0  0  0  0  0  0  0  0  0  0  0
    0.3300   -1.2200    0.0000 C   0  0  0  0  0  0  0  0  0  0  0  0
   -1.6300    0.2000    0.0000 C   0  0  0  0  0  0  0  0  0  0  0  0
    2.2271    0.6621    0.0000 C   0  0  0  0  0  0  0  0  0  0  0  0
    0.8000    0.2000    0.0000 C   0  0  0  0  0  0  0  0  0  0  0  0
    2.5404    2.1290    0.0000 O   0  0  0  0  0  0  0  0  0  0  0  0
   -0.4200    1.0800    0.0000 O   0  0  0  0  0  0  0  0  0  0  0  0
  3  2  1  0
  4  2  2  0
  5  1  1  0
  6  3  2  0
  6  5  1  0
  7  5  2  0
  8  4  1  0
  8  6  1  0
M  END
>  <NAME>  (3649) 
2-ACETYLFURAN

>  <SYNONYMS>  (3649) 


>  <SPECTRUM TYPE>  (3649) 
MS1

>  <INSTRUMENT TYPE>  (3649) 
EI-B

>  <INSTRUMENT>  (3649) 
HITACHI M-80B

>  <ION MODE>  (3649) 
P

>  <INCHIKEY>  (3649) 
IEMMBWWQXVXBEU-UHFFFAOYSA-N

>  <FORMULA>  (3649) 
C6H6O2

>  <EXACT MASS>  (3649) 
110.036779432

>  <MW>  (3649) 
110

>  <ID>  (3649) 
JP006946

>  <CONTRIBUTOR>  (3649) 
University of Tokyo Team, {Faculty of Engineering, University of Tokyo

>  <COMMENT>  (3649) 
SMILES=[H]c(o1)c([H])c([H])c1C(C)=O
InChI=InChI=1S/C6H6O2/c1-5(7)6-3-2-4-8-6/h2-4H,1H3
computed SMILES=O=C(C=1OC=CC1)C
accession=JP006946
date=2016.01.19 (Created 2008.10.21, modified 2011.05.06)
author=TAJIMA S, GUNMA COLLEGE OF TECHNOLOGY
license=CC BY-NC-SA
exact mass=110.03678
ionization energy=70 eV
ion type=[M]+*
computed spectral entropy=2.1994279780927037
computed normalized entropy=0.7115489390005296
SPLASH=splash10-0002-9100000000-626116be3c33a62f5993
submitter=submitter = University of Tokyo Team (Faculty of Engineering, University of Tokyo)
MoNA Rating=3.75

>  <NUM PEAKS>  (3649) 
22

>  <MASS SPECTRAL PEAKS>  (3649) 
14 1.51
15 6.34
26 1.79
27 4.16
29 4.13
37 5.72
38 10.38
39 29.84
40 3.08
41 1.5
42 3.77
43 18.57
50 3.37
51 4.08
52 1.03
53 3.75
67 4.08
68 3.08
95 99.99
96 5.74
110 37.53
111 2.79

$$$$

     RDKit          2D

  8  7  0  0  0  0  0  0  0  0999 V2000
    1.9486    2.6250    0.0000 C   0  0  0  0  0  0  0  0  0  0  0  0
   -4.5466    3.3750    0.0000 C   0  0  0  0  0  0  0  0  0  0  0  0
    0.6495    3.3750    0.0000 C   0  0  0  0  0  0  0  0  0  0  0  0
   -3.2476    2.6250    0.0000 C   0  0  0  0  0  0  0  0  0  0  0  0
   -0.6495    2.6250    0.0000 C   0  0  0  0  0  0  0  0  0  0  0  0
   -1.9486    3.3750    0.0000 C   0  0  0  0  0  0  0  0  0  0  0  0
   -0.6495    1.1250    0.0000 O   0  0  0  0  0  0  0  0  0  0  0  0
   -1.9486    4.8750    0.0000 O   0  0  0  0  0  0  0  0  0  0  0  0
  3  1  1  0
  4  2  1  0
  5  3  1  0
  6  4  1  0
  6  5  1  0
  7  5  2  0
  8  6  2  0
M  END
>  <NAME>  (3650) 
3,4-HEXANEDIONE

>  <SYNONYMS>  (3650) 


>  <SPECTRUM TYPE>  (3650) 
MS1

>  <INSTRUMENT TYPE>  (3650) 
EI-B

>  <INSTRUMENT>  (3650) 
HITACHI M-80B

>  <ION MODE>  (3650) 
P

>  <INCHIKEY>  (3650) 
KVFQMAZOBTXCAZ-UHFFFAOYSA-N

>  <FORMULA>  (3650) 
C6H10O2

>  <EXACT MASS>  (3650) 
114.06807956

>  <MW>  (3650) 
114

>  <ID>  (3650) 
JP006945

>  <CONTRIBUTOR>  (3650) 
University of Tokyo Team, {Faculty of Engineering, University of Tokyo

>  <COMMENT>  (3650) 
SMILES=CCC(=O)C(=O)CC
InChI=InChI=1S/C6H10O2/c1-3-5(7)6(8)4-2/h3-4H2,1-2H3
computed SMILES=O=C(C(=O)CC)CC
accession=JP006945
date=2016.01.19 (Created 2008.10.21, modified 2011.05.06)
author=TAJIMA S, GUNMA COLLEGE OF TECHNOLOGY
license=CC BY-NC-SA
exact mass=114.06808
ionization energy=70 eV
ion type=[M]+*
computed spectral entropy=1.47509778534566
computed normalized entropy=0.5936230181811891
SPLASH=splash10-0a6r-9000000000-caf9127e49f75f70f432
submitter=submitter = University of Tokyo Team (Faculty of Engineering, University of Tokyo)
MoNA Rating=3.75

>  <NUM PEAKS>  (3650) 
12

>  <MASS SPECTRAL PEAKS>  (3650) 
15 1
26 5.43
27 25.88
28 3.35
29 73.2
30 1.39
39 1.2
42 2.57
55 1.27
57 99.99
58 3.07
114 9.25

$$$$

     RDKit          2D

  8  7  0  0  0  0  0  0  0  0999 V2000
    0.0000    0.0000    0.0000 C   0  0  0  0  0  0  0  0  0  0  0  0
   -2.5981    6.0000    0.0000 C   0  0  0  0  0  0  0  0  0  0  0  0
   -1.2990    2.2500    0.0000 C   0  0  0  0  0  0  0  0  0  0  0  0
   -1.2990    3.7500    0.0000 C   0  0  0  0  0  0  0  0  0  0  0  0
    0.0000    1.5000    0.0000 C   0  0  0  0  0  0  0  0  0  0  0  0
   -2.5981    4.5000    0.0000 C   0  0  0  0  0  0  0  0  0  0  0  0
    1.2990    2.2500    0.0000 O   0  0  0  0  0  0  0  0  0  0  0  0
   -3.8971    3.7500    0.0000 O   0  0  0  0  0  0  0  0  0  0  0  0
  4  3  1  0
  5  1  1  0
  5  3  1  0
  6  2  1  0
  6  4  1  0
  7  5  2  0
  8  6  2  0
M  END
>  <NAME>  (3651) 
2,5-HEXANEDIONE

>  <SYNONYMS>  (3651) 


>  <SPECTRUM TYPE>  (3651) 
MS1

>  <INSTRUMENT TYPE>  (3651) 
EI-B

>  <INSTRUMENT>  (3651) 
HITACHI M-80B

>  <ION MODE>  (3651) 
P

>  <INCHIKEY>  (3651) 
OJVAMHKKJGICOG-UHFFFAOYSA-N

>  <FORMULA>  (3651) 
C6H10O2

>  <EXACT MASS>  (3651) 
114.06807956

>  <MW>  (3651) 
114

>  <ID>  (3651) 
JP006944

>  <CONTRIBUTOR>  (3651) 
University of Tokyo Team, {Faculty of Engineering, University of Tokyo

>  <COMMENT>  (3651) 
SMILES=CC(=O)CCC(C)=O
InChI=InChI=1S/C6H10O2/c1-5(7)3-4-6(2)8/h3-4H2,1-2H3
computed SMILES=O=C(C)CCC(=O)C
accession=JP006944
date=2016.01.19 (Created 2008.10.21, modified 2011.05.06)
author=TAJIMA S, GUNMA COLLEGE OF TECHNOLOGY
license=CC BY-NC-SA
exact mass=114.06808
ionization energy=70 eV
ion type=[M]+*
computed spectral entropy=1.5925363084885937
computed normalized entropy=0.5743860586730276
SPLASH=splash10-0006-9000000000-f033b75304f48c79ed31
submitter=submitter = University of Tokyo Team (Faculty of Engineering, University of Tokyo)
MoNA Rating=3.75

>  <NUM PEAKS>  (3651) 
16

>  <MASS SPECTRAL PEAKS>  (3651) 
15 8.65
26 1.58
27 6.27
28 1.46
29 1.32
39 2.03
41 1.33
42 4.88
43 99.99
44 2
55 1.14
57 4.31
71 9.14
72 1.41
99 15.97
114 3.23

$$$$

     RDKit          2D

  8  7  0  0  0  0  0  0  0  0999 V2000
    1.6238    3.1875    0.0000 C   0  0  0  0  0  0  0  0  0  0  0  0
   -4.8714    3.9375    0.0000 C   0  0  0  0  0  0  0  0  0  0  0  0
    0.3248    3.9375    0.0000 C   0  0  0  0  0  0  0  0  0  0  0  0
   -0.9743    3.1875    0.0000 C   0  0  0  0  0  0  0  0  0  0  0  0
   -3.5724    3.1875    0.0000 C   0  0  0  0  0  0  0  0  0  0  0  0
   -2.2733    3.9375    0.0000 C   0  0  0  0  0  0  0  0  0  0  0  0
   -3.5724    1.6875    0.0000 O   0  0  0  0  0  0  0  0  0  0  0  0
   -2.2733    5.4375    0.0000 O   0  0  0  0  0  0  0  0  0  0  0  0
  3  1  1  0
  4  3  1  0
  5  2  1  0
  6  4  1  0
  6  5  1  0
  7  5  2  0
  8  6  2  0
M  END
>  <NAME>  (3652) 
2,3-HEXANEDIONE

>  <SYNONYMS>  (3652) 


>  <SPECTRUM TYPE>  (3652) 
MS1

>  <INSTRUMENT TYPE>  (3652) 
EI-B

>  <INSTRUMENT>  (3652) 
HITACHI M-80B

>  <ION MODE>  (3652) 
P

>  <INCHIKEY>  (3652) 
MWVFCEVNXHTDNF-UHFFFAOYSA-N

>  <FORMULA>  (3652) 
C6H10O2

>  <EXACT MASS>  (3652) 
114.06807956

>  <MW>  (3652) 
114

>  <ID>  (3652) 
JP006943

>  <CONTRIBUTOR>  (3652) 
University of Tokyo Team, {Faculty of Engineering, University of Tokyo

>  <COMMENT>  (3652) 
SMILES=CCCC(=O)C(C)=O
InChI=InChI=1S/C6H10O2/c1-3-4-6(8)5(2)7/h3-4H2,1-2H3
computed SMILES=O=C(C(=O)CCC)C
accession=JP006943
date=2016.01.19 (Created 2008.10.21, modified 2011.05.06)
author=TAJIMA S, GUNMA COLLEGE OF TECHNOLOGY
license=CC BY-NC-SA
exact mass=114.06808
ionization energy=70 eV
ion type=[M]+*
computed spectral entropy=1.8256440984677362
computed normalized entropy=0.6741544516880361
SPLASH=splash10-0006-9000000000-834d76c0fa32b0bcd9c1
submitter=submitter = University of Tokyo Team (Faculty of Engineering, University of Tokyo)
MoNA Rating=3.75

>  <NUM PEAKS>  (3652) 
15

>  <MASS SPECTRAL PEAKS>  (3652) 
14 1.34
15 8.34
26 1.77
27 20.81
29 1.65
38 1.13
39 8.89
41 24.58
42 7.48
43 99.99
44 3.36
55 1.09
71 25.18
72 1.56
114 5.91

$$$$

     RDKit          2D

  7  6  0  0  0  0  0  0  0  0999 V2000
    1.6238    1.6875    0.0000 C   0  0  0  0  0  0  0  0  0  0  0  0
   -3.5724    1.6875    0.0000 C   0  0  0  0  0  0  0  0  0  0  0  0
   -0.9743    1.6875    0.0000 C   0  0  0  0  0  0  0  0  0  0  0  0
    0.3248    2.4375    0.0000 C   0  0  0  0  0  0  0  0  0  0  0  0
   -2.2733    2.4375    0.0000 C   0  0  0  0  0  0  0  0  0  0  0  0
    0.3248    3.9375    0.0000 O   0  0  0  0  0  0  0  0  0  0  0  0
   -2.2733    3.9375    0.0000 O   0  0  0  0  0  0  0  0  0  0  0  0
  4  1  1  0
  4  3  1  0
  5  2  1  0
  5  3  1  0
  6  4  2  0
  7  5  2  0
M  END
>  <NAME>  (3653) 
2,4-PENTANEDIONE

>  <SYNONYMS>  (3653) 


>  <SPECTRUM TYPE>  (3653) 
MS1

>  <INSTRUMENT TYPE>  (3653) 
EI-B

>  <INSTRUMENT>  (3653) 
HITACHI M-80B

>  <ION MODE>  (3653) 
P

>  <INCHIKEY>  (3653) 
YRKCREAYFQTBPV-UHFFFAOYSA-N

>  <FORMULA>  (3653) 
C5H8O2

>  <EXACT MASS>  (3653) 
100.052429496

>  <MW>  (3653) 
100

>  <ID>  (3653) 
JP006942

>  <CONTRIBUTOR>  (3653) 
University of Tokyo Team, {Faculty of Engineering, University of Tokyo

>  <COMMENT>  (3653) 
SMILES=CC(=O)CC(C)=O
InChI=InChI=1S/C5H8O2/c1-4(6)3-5(2)7/h3H2,1-2H3
computed SMILES=O=C(C)CC(=O)C
accession=JP006942
date=2016.01.19 (Created 2008.10.21, modified 2011.05.06)
author=TAJIMA S, GUNMA COLLEGE OF TECHNOLOGY
license=CC BY-NC-SA
exact mass=100.05243
ionization energy=70 eV
ion type=[M]+*
computed spectral entropy=2.0194660442708874
computed normalized entropy=0.6741143266033888
SPLASH=splash10-0006-9100000000-bbf09a0b601d6c1b37f4
submitter=submitter = University of Tokyo Team (Faculty of Engineering, University of Tokyo)
MoNA Rating=3.75

>  <NUM PEAKS>  (3653) 
20

>  <MASS SPECTRAL PEAKS>  (3653) 
14 1.29
15 9.17
26 2.22
27 8
29 5.69
31 3.52
37 1
38 1.66
39 5.99
41 5.36
42 8.15
43 99.99
44 2.02
55 1.63
58 3.47
72 4.61
85 34.47
86 1.36
100 22.63
101 1.52

$$$$

     RDKit          2D

  7  6  0  0  0  0  0  0  0  0999 V2000
   -3.8971    2.2500    0.0000 C   0  0  0  0  0  0  0  0  0  0  0  0
    1.2990    2.2500    0.0000 C   0  0  0  0  0  0  0  0  0  0  0  0
   -2.5981    1.5000    0.0000 C   0  0  0  0  0  0  0  0  0  0  0  0
    0.0000    1.5000    0.0000 C   0  0  0  0  0  0  0  0  0  0  0  0
   -1.2990    2.2500    0.0000 C   0  0  0  0  0  0  0  0  0  0  0  0
   -0.0000    0.0000    0.0000 O   0  0  0  0  0  0  0  0  0  0  0  0
   -1.2990    3.7500    0.0000 O   0  0  0  0  0  0  0  0  0  0  0  0
  3  1  1  0
  4  2  1  0
  5  3  1  0
  5  4  1  0
  6  4  2  0
  7  5  2  0
M  END
>  <NAME>  (3654) 
2,3-PENTANEDIONE

>  <SYNONYMS>  (3654) 


>  <SPECTRUM TYPE>  (3654) 
MS1

>  <INSTRUMENT TYPE>  (3654) 
EI-B

>  <INSTRUMENT>  (3654) 
HITACHI M-80B

>  <ION MODE>  (3654) 
P

>  <INCHIKEY>  (3654) 
TZMFJUDUGYTVRY-UHFFFAOYSA-N

>  <FORMULA>  (3654) 
C5H8O2

>  <EXACT MASS>  (3654) 
100.052429496

>  <MW>  (3654) 
100

>  <ID>  (3654) 
JP006941

>  <CONTRIBUTOR>  (3654) 
University of Tokyo Team, {Faculty of Engineering, University of Tokyo

>  <COMMENT>  (3654) 
SMILES=CCC(=O)C(C)=O
InChI=InChI=1S/C5H8O2/c1-3-5(7)4(2)6/h3H2,1-2H3
computed SMILES=O=C(C(=O)CC)C
accession=JP006941
date=2016.01.19 (Created 2008.10.21, modified 2011.05.06)
author=TAJIMA S, GUNMA COLLEGE OF TECHNOLOGY
license=CC BY-NC-SA
exact mass=100.05243
ionization energy=70 eV
ion type=[M]+*
computed spectral entropy=1.881098138294603
computed normalized entropy=0.6946319302090385
SPLASH=splash10-002f-9000000000-0ce95c5163dd022c1c85
submitter=submitter = University of Tokyo Team (Faculty of Engineering, University of Tokyo)
MoNA Rating=3.75

>  <NUM PEAKS>  (3654) 
15

>  <MASS SPECTRAL PEAKS>  (3654) 
14 3.2
15 11.5
26 6.9
27 21.84
28 2.62
29 59.1
30 1.06
39 1.16
41 1.31
42 7.37
43 99.99
44 2.99
57 38.91
58 1.02
100 11.35

$$$$

     RDKit          2D

  6  5  0  0  0  0  0  0  0  0999 V2000
   -0.0000   -0.0000    0.0000 C   0  0  0  0  0  0  0  0  0  0  0  0
   -1.2990    3.7500    0.0000 C   0  0  0  0  0  0  0  0  0  0  0  0
   -0.0000    1.5000    0.0000 C   0  0  0  0  0  0  0  0  0  0  0  0
   -1.2990    2.2500    0.0000 C   0  0  0  0  0  0  0  0  0  0  0  0
    1.2990    2.2500    0.0000 O   0  0  0  0  0  0  0  0  0  0  0  0
   -2.5981    1.5000    0.0000 O   0  0  0  0  0  0  0  0  0  0  0  0
  3  1  1  0
  4  2  1  0
  4  3  1  0
  5  3  2  0
  6  4  2  0
M  END
>  <NAME>  (3655) 
2,3-BUTANEDIONE

>  <SYNONYMS>  (3655) 


>  <SPECTRUM TYPE>  (3655) 
MS1

>  <INSTRUMENT TYPE>  (3655) 
EI-B

>  <INSTRUMENT>  (3655) 
HITACHI M-80B

>  <ION MODE>  (3655) 
P

>  <INCHIKEY>  (3655) 
QSJXEFYPDANLFS-UHFFFAOYSA-N

>  <FORMULA>  (3655) 
C4H6O2

>  <EXACT MASS>  (3655) 
86.036779432

>  <MW>  (3655) 
86

>  <ID>  (3655) 
JP006940

>  <CONTRIBUTOR>  (3655) 
University of Tokyo Team, {Faculty of Engineering, University of Tokyo

>  <COMMENT>  (3655) 
SMILES=CC(=O)C(C)=O
InChI=InChI=1S/C4H6O2/c1-3(5)4(2)6/h1-2H3
computed SMILES=O=C(C(=O)C)C
accession=JP006940
date=2016.01.19 (Created 2008.10.21, modified 2011.05.06)
author=TAJIMA S, GUNMA COLLEGE OF TECHNOLOGY
license=CC BY-NC-SA
exact mass=86.03678
ionization energy=70 eV
ion type=[M]+*
computed spectral entropy=1.283643841200245
computed normalized entropy=0.5353210608327437
SPLASH=splash10-0006-9000000000-eeaaf8aa838a1d6a7dde
submitter=submitter = University of Tokyo Team (Faculty of Engineering, University of Tokyo)
MoNA Rating=3.75

>  <NUM PEAKS>  (3655) 
11

>  <MASS SPECTRAL PEAKS>  (3655) 
13 1.24
14 5.45
15 20.26
26 1.53
27 1.08
29 1.55
41 1.8
42 8.35
43 99.99
44 2.28
86 10.17

$$$$

     RDKit          2D

 17 16  0  0  0  0  0  0  0  0999 V2000
    5.1962    8.2500    0.0000 C   0  0  0  0  0  0  0  0  0  0  0  0
  -14.2894    9.0000    0.0000 C   0  0  0  0  0  0  0  0  0  0  0  0
    3.8971    9.0000    0.0000 C   0  0  0  0  0  0  0  0  0  0  0  0
  -12.9904    8.2500    0.0000 C   0  0  0  0  0  0  0  0  0  0  0  0
    2.5981    8.2500    0.0000 C   0  0  0  0  0  0  0  0  0  0  0  0
    1.2990    9.0000    0.0000 C   0  0  0  0  0  0  0  0  0  0  0  0
    0.0000    8.2500    0.0000 C   0  0  0  0  0  0  0  0  0  0  0  0
   -1.2990    9.0000    0.0000 C   0  0  0  0  0  0  0  0  0  0  0  0
   -2.5981    8.2500    0.0000 C   0  0  0  0  0  0  0  0  0  0  0  0
   -3.8971    9.0000    0.0000 C   0  0  0  0  0  0  0  0  0  0  0  0
   -5.1962    8.2500    0.0000 C   0  0  0  0  0  0  0  0  0  0  0  0
   -6.4952    9.0000    0.0000 C   0  0  0  0  0  0  0  0  0  0  0  0
   -7.7942    8.2500    0.0000 C   0  0  0  0  0  0  0  0  0  0  0  0
   -9.0933    9.0000    0.0000 C   0  0  0  0  0  0  0  0  0  0  0  0
  -10.3923    8.2500    0.0000 C   0  0  0  0  0  0  0  0  0  0  0  0
  -11.6913    9.0000    0.0000 C   0  0  0  0  0  0  0  0  0  0  0  0
  -11.6913   10.5000    0.0000 O   0  0  0  0  0  0  0  0  0  0  0  0
  3  1  1  0
  4  2  1  0
  5  3  1  0
  6  5  1  0
  7  6  1  0
  8  7  1  0
  9  8  1  0
 10  9  1  0
 11 10  1  0
 12 11  1  0
 13 12  1  0
 14 13  1  0
 15 14  1  0
 16  4  1  0
 16 15  1  0
 17 16  2  0
M  END
>  <NAME>  (3656) 
3-HEXADECANONE

>  <SYNONYMS>  (3656) 


>  <SPECTRUM TYPE>  (3656) 
MS1

>  <INSTRUMENT TYPE>  (3656) 
EI-B

>  <INSTRUMENT>  (3656) 
HITACHI M-80B

>  <ION MODE>  (3656) 
P

>  <INCHIKEY>  (3656) 
LTMXHUUHBSCKEK-UHFFFAOYSA-N

>  <FORMULA>  (3656) 
C16H32O

>  <EXACT MASS>  (3656) 
240.24531564400002

>  <MW>  (3656) 
240

>  <ID>  (3656) 
JP006939

>  <CONTRIBUTOR>  (3656) 
University of Tokyo Team, {Faculty of Engineering, University of Tokyo

>  <COMMENT>  (3656) 
SMILES=CCCCCCCCCCCCCC(=O)CC
InChI=InChI=1S/C16H32O/c1-3-5-6-7-8-9-10-11-12-13-14-15-16(17)4-2/h3-15H2,1-2H3
computed SMILES=O=C(CC)CCCCCCCCCCCCC
accession=JP006939
date=2016.01.19 (Created 2008.10.21, modified 2011.05.06)
author=TAJIMA S, GUNMA COLLEGE OF TECHNOLOGY
license=CC BY-NC-SA
exact mass=240.24532
ionization energy=70 eV
ion type=[M]+*
computed spectral entropy=2.873682634673894
computed normalized entropy=0.7688434046221867
SPLASH=splash10-05fr-9000000000-975661aba94df998e46f
submitter=submitter = University of Tokyo Team (Faculty of Engineering, University of Tokyo)
MoNA Rating=3.75

>  <NUM PEAKS>  (3656) 
42

>  <MASS SPECTRAL PEAKS>  (3656) 
27 10.63
28 2.17
29 43.93
39 5.22
41 36.04
42 8.11
43 44.65
44 1.09
53 2.09
54 1.98
55 22.62
56 6.72
57 82.24
58 3.57
67 4.06
68 1.65
69 10.17
70 2.99
71 19.68
72 99.99
73 42.13
74 1.69
81 3.89
82 1.56
83 5.54
84 1.65
85 27.51
86 1.74
95 6.15
96 2.23
97 3.78
98 1.51
99 4.21
109 3.34
110 1.27
111 1.88
114 1.7
123 1.29
166 1.63
211 22.75
212 3.36
240 1.46

$$$$

     RDKit          2D

 16 15  0  0  0  0  0  0  0  0999 V2000
    4.5466    7.8750    0.0000 C   0  0  0  0  0  0  0  0  0  0  0  0
  -13.6399    7.8750    0.0000 C   0  0  0  0  0  0  0  0  0  0  0  0
    3.2476    8.6250    0.0000 C   0  0  0  0  0  0  0  0  0  0  0  0
    1.9486    7.8750    0.0000 C   0  0  0  0  0  0  0  0  0  0  0  0
    0.6495    8.6250    0.0000 C   0  0  0  0  0  0  0  0  0  0  0  0
   -0.6495    7.8750    0.0000 C   0  0  0  0  0  0  0  0  0  0  0  0
   -1.9486    8.6250    0.0000 C   0  0  0  0  0  0  0  0  0  0  0  0
   -3.2476    7.8750    0.0000 C   0  0  0  0  0  0  0  0  0  0  0  0
   -4.5466    8.6250    0.0000 C   0  0  0  0  0  0  0  0  0  0  0  0
   -5.8457    7.8750    0.0000 C   0  0  0  0  0  0  0  0  0  0  0  0
   -7.1447    8.6250    0.0000 C   0  0  0  0  0  0  0  0  0  0  0  0
   -8.4437    7.8750    0.0000 C   0  0  0  0  0  0  0  0  0  0  0  0
   -9.7428    8.6250    0.0000 C   0  0  0  0  0  0  0  0  0  0  0  0
  -11.0418    7.8750    0.0000 C   0  0  0  0  0  0  0  0  0  0  0  0
  -12.3409    8.6250    0.0000 C   0  0  0  0  0  0  0  0  0  0  0  0
  -12.3409   10.1250    0.0000 O   0  0  0  0  0  0  0  0  0  0  0  0
  3  1  1  0
  4  3  1  0
  5  4  1  0
  6  5  1  0
  7  6  1  0
  8  7  1  0
  9  8  1  0
 10  9  1  0
 11 10  1  0
 12 11  1  0
 13 12  1  0
 14 13  1  0
 15  2  1  0
 15 14  1  0
 16 15  2  0
M  END
>  <NAME>  (3657) 
2-PENTADECANONE

>  <SYNONYMS>  (3657) 


>  <SPECTRUM TYPE>  (3657) 
MS1

>  <INSTRUMENT TYPE>  (3657) 
EI-B

>  <INSTRUMENT>  (3657) 
HITACHI M-80B

>  <ION MODE>  (3657) 
P

>  <INCHIKEY>  (3657) 
CJPNOLIZCWDHJK-UHFFFAOYSA-N

>  <FORMULA>  (3657) 
C15H30O

>  <EXACT MASS>  (3657) 
226.22966558000002

>  <MW>  (3657) 
226

>  <ID>  (3657) 
JP006938

>  <CONTRIBUTOR>  (3657) 
University of Tokyo Team, {Faculty of Engineering, University of Tokyo

>  <COMMENT>  (3657) 
SMILES=CCCCCCCCCCCCCC(C)=O
InChI=InChI=1S/C15H30O/c1-3-4-5-6-7-8-9-10-11-12-13-14-15(2)16/h3-14H2,1-2H3
computed SMILES=O=C(C)CCCCCCCCCCCCC
accession=JP006938
date=2016.01.19 (Created 2008.10.21, modified 2011.05.06)
author=TAJIMA S, GUNMA COLLEGE OF TECHNOLOGY
license=CC BY-NC-SA
exact mass=226.22967
ionization energy=70 eV
ion type=[M]+*
computed spectral entropy=2.588513370230777
computed normalized entropy=0.7168574398123732
SPLASH=splash10-0a4l-9000000000-3fd5f39b5a24aa916a28
submitter=submitter = University of Tokyo Team (Faculty of Engineering, University of Tokyo)
MoNA Rating=3.75

>  <NUM PEAKS>  (3657) 
37

>  <MASS SPECTRAL PEAKS>  (3657) 
15 1.15
27 6.93
29 14
39 4.79
41 26.36
42 5.82
43 81.54
44 1.56
53 1.42
54 1.75
55 15.63
56 4.7
57 14.92
58 99.99
59 47.43
60 1.45
67 2.69
68 1.65
69 6.03
70 2.53
71 32.85
72 1.71
81 1.79
82 4.99
83 3.46
84 1.44
85 7.72
95 1.92
96 4.1
97 2.32
100 1.06
110 1
111 1.17
127 1.08
166 1.27
168 2
226 2.18

$$$$

     RDKit          2D

 16 16  0  0  1  0  0  0  0  0999 V2000
    3.2899    2.4204    0.0000 C   0  0  0  0  0  0  0  0  0  0  0  0
    3.8981   -0.7504    0.0000 C   0  0  0  0  0  0  0  0  0  0  0  0
    2.5987   -3.0002    0.0000 C   0  0  0  0  0  0  0  0  0  0  0  0
   -3.3491   -0.2013    0.0000 C   0  0  0  0  0  0  0  0  0  0  0  0
   -3.8978   -2.2504    0.0000 C   0  0  0  0  0  0  0  0  0  0  0  0
    2.7772    0.4897    0.0000 C   0  0  0  0  0  0  0  0  0  0  0  0
    1.8127    2.1596    0.0000 C   0  0  0  0  0  0  0  0  0  0  0  0
   -1.3000    0.7500    0.0000 C   0  0  0  0  0  0  0  0  0  0  0  0
    0.0000    1.5000    0.0000 C   0  0  0  0  0  0  0  0  0  0  0  0
   -0.0000   -1.5000    0.0000 C   0  0  0  0  0  0  0  0  0  0  0  0
    2.5989   -1.5002    0.0000 C   0  0  0  0  0  0  0  0  0  0  0  0
   -1.3000   -0.7500    0.0000 C   0  0  0  0  0  0  0  0  0  0  0  0
    1.3000   -0.7500    0.0000 C   0  0  0  0  0  0  0  0  0  0  0  0
   -2.5989   -1.5002    0.0000 C   0  0  0  0  0  0  0  0  0  0  0  0
    1.3000    0.7500    0.0000 C   0  0  0  0  0  0  0  0  0  0  0  0
   -1.8487   -2.7991    0.0000 O   0  0  0  0  0  0  0  0  0  0  0  0
  7  1  2  0
  9  8  1  0
 11  2  2  0
 11  3  1  0
 12  8  1  0
 12 10  1  0
 13 10  1  0
 13 11  1  6
 14  4  1  0
 14  5  1  0
 12 14  1  6
 15  6  1  6
 15  7  1  0
 15  9  1  0
 15 13  1  0
 14 16  1  0
M  END
>  <NAME>  (3658) 
ELEMOL

>  <SYNONYMS>  (3658) 
4-ETHENYL-3-(1-METHYLETHENYL)-ALPHA,ALPHA,4-TRIMETHYLCYCLOHEXYLMETHANOL

>  <SPECTRUM TYPE>  (3658) 
MS1

>  <INSTRUMENT TYPE>  (3658) 
EI-B

>  <INSTRUMENT>  (3658) 
HITACHI M-80B

>  <ION MODE>  (3658) 
P

>  <INCHIKEY>  (3658) 
GFJIQNADMLPFOW-VNHYZAJKSA-N

>  <FORMULA>  (3658) 
C15H26O

>  <EXACT MASS>  (3658) 
222.198365452

>  <MW>  (3658) 
222

>  <ID>  (3658) 
JP006937

>  <CONTRIBUTOR>  (3658) 
University of Tokyo Team, {Faculty of Engineering, University of Tokyo

>  <COMMENT>  (3658) 
SMILES=C=CC(C)(C1)C([H])(C(C)=C)CC([H])(C1)C(C)(C)O
InChI=InChI=1S/C15H26O/c1-7-15(6)9-8-12(14(4,5)16)10-13(15)11(2)3/h7,12-13,16H,1-2,8-10H2,3-6H3/t12-,13+,15-/m1/s1
computed SMILES=OC(C)(C)C1CCC(C=C)(C)C(C(=C)C)C1
accession=JP006937
date=2016.01.19 (Created 2008.10.21, modified 2011.05.06)
author=TAJIMA S, GUNMA COLLEGE OF TECHNOLOGY
license=CC BY-NC-SA
exact mass=222.19837
ionization energy=70 eV
ion type=[M]+*
computed spectral entropy=3.7959993661083606
computed normalized entropy=0.881956774329921
SPLASH=splash10-052f-9400000000-2a2b8eb2d7a95cb7b5c3
submitter=submitter = University of Tokyo Team (Faculty of Engineering, University of Tokyo)
MoNA Rating=3.75

>  <NUM PEAKS>  (3658) 
74

>  <MASS SPECTRAL PEAKS>  (3658) 
27 8.3
29 10.79
31 10.8
39 14.32
40 3.23
41 40.27
42 3.12
43 39.02
44 1.04
45 2.31
51 2
52 1.55
53 18.15
54 2.19
55 23.54
56 1.67
57 3.69
59 99.99
60 2.8
65 5.53
66 2.51
67 27.36
68 20.53
69 20.62
70 2.62
71 17.51
72 1.32
77 12.51
78 2.71
79 23.83
80 13.83
81 31.96
82 10.77
83 6.16
84 3.92
85 1.65
91 15.4
92 9.01
93 55.55
94 16.89
95 22.41
96 7.73
97 1.72
105 14.22
106 3.33
107 31.38
108 12.65
109 14.54
110 2.13
111 1.1
119 13.4
120 3.86
121 26.72
122 7.62
123 9.99
124 1.51
133 8.7
134 4.92
135 21.71
136 8.53
137 2.13
147 7.42
148 3.28
149 10.83
150 1.25
161 35.88
162 9.26
163 10.01
164 3.97
175 1.86
189 13.6
190 1.81
204 9.59
205 1.46

$$$$

     RDKit          2D

 14 14  0  0  0  0  0  0  0  0999 V2000
    2.0789   -2.0602    0.0000 C   0  0  0  0  0  0  0  0  0  0  0  0
    5.9762    0.1908    0.0000 C   0  0  0  0  0  0  0  0  0  0  0  0
    0.4441    2.0892    0.0000 C   0  0  0  0  0  0  0  0  0  0  0  0
   -1.4841    2.0892    0.0000 C   0  0  0  0  0  0  0  0  0  0  0  0
   -1.8200   -1.3100    0.0000 C   0  0  0  0  0  0  0  0  0  0  0  0
   -0.5200   -2.0600    0.0000 C   0  0  0  0  0  0  0  0  0  0  0  0
    3.3781    0.1904    0.0000 C   0  0  0  0  0  0  0  0  0  0  0  0
    2.0789    0.9402    0.0000 C   0  0  0  0  0  0  0  0  0  0  0  0
   -1.8200    0.1900    0.0000 C   0  0  0  0  0  0  0  0  0  0  0  0
    0.7800   -1.3100    0.0000 C   0  0  0  0  0  0  0  0  0  0  0  0
    4.6770    0.9406    0.0000 C   0  0  0  0  0  0  0  0  0  0  0  0
    0.7800    0.1900    0.0000 C   0  0  0  0  0  0  0  0  0  0  0  0
   -0.5200    0.9400    0.0000 C   0  0  0  0  0  0  0  0  0  0  0  0
    4.6768    2.4406    0.0000 O   0  0  0  0  0  0  0  0  0  0  0  0
  6  5  1  0
  7  8  2  0
  9  5  1  0
 10  1  1  0
 10  6  2  0
 11  2  1  0
 11  7  1  0
 12  8  1  0
 12 10  1  0
 13  3  1  0
 13  4  1  0
 13  9  1  0
 13 12  1  0
 14 11  1  0
M  END
>  <NAME>  (3659) 
ALPHA-IONOL

>  <SYNONYMS>  (3659) 
3-(3-HYDROXY-1-BUTENYL)-2,4,4-TRIMETHYL-1-CYCLOHEXENE

>  <SPECTRUM TYPE>  (3659) 
MS1

>  <INSTRUMENT TYPE>  (3659) 
EI-B

>  <INSTRUMENT>  (3659) 
HITACHI M-80B

>  <ION MODE>  (3659) 
P

>  <INCHIKEY>  (3659) 
PWDOJWCZWKWKSE-BQYQJAHWSA-N

>  <FORMULA>  (3659) 
C13H22O

>  <EXACT MASS>  (3659) 
194.167065324

>  <MW>  (3659) 
194

>  <ID>  (3659) 
JP006936

>  <CONTRIBUTOR>  (3659) 
University of Tokyo Team, {Faculty of Engineering, University of Tokyo

>  <COMMENT>  (3659) 
SMILES=CC(O)C=CC(C(C)=1)C(C)(C)CCC1
InChI=InChI=1S/C13H22O/c1-10-6-5-9-13(3,4)12(10)8-7-11(2)14/h6-8,11-12,14H,5,9H2,1-4H3/b8-7+
computed SMILES=OC(C=CC1C(=CCCC1(C)C)C)C
accession=JP006936
date=2016.01.19 (Created 2008.10.21, modified 2011.05.06)
author=TAJIMA S, GUNMA COLLEGE OF TECHNOLOGY
license=CC BY-NC-SA
exact mass=194.16707
ionization energy=70 eV
ion type=[M]+*
computed spectral entropy=3.2689331970713167
computed normalized entropy=0.8085312256804872
SPLASH=splash10-0005-9200000000-79a43e185c1f45743976
submitter=submitter = University of Tokyo Team (Faculty of Engineering, University of Tokyo)
MoNA Rating=3.75

>  <NUM PEAKS>  (3659) 
57

>  <MASS SPECTRAL PEAKS>  (3659) 
18 1.24
27 8.47
28 1.22
29 7.91
31 1.01
39 10.24
40 1.61
41 22.27
42 1.19
43 55.13
44 1.3
45 7.72
51 2.29
52 1.16
53 8.11
54 1.02
55 12.33
56 4.83
57 2.16
58 1.24
65 4.6
66 1.34
67 9.04
68 5.31
69 4.78
71 2.85
77 12.33
78 2.67
79 14.52
80 10.14
81 14.9
82 1.64
83 1.06
91 12.86
92 3.25
93 14.79
94 7.62
95 99.99
96 13.33
97 1.25
105 8.12
106 1.19
107 7.02
108 1.5
109 8.77
119 2.28
120 4.34
121 7.35
122 1.14
123 14.17
124 1.17
135 1.2
136 1.04
138 41.28
139 4.71
161 1.52
194 2.07

$$$$

     RDKit          2D

 11 11  0  0  0  0  0  0  0  0999 V2000
    3.7413    1.6389    0.0000 C   0  0  0  0  0  0  0  0  0  0  0  0
    3.2904   -0.9198    0.0000 C   0  0  0  0  0  0  0  0  0  0  0  0
   -2.5989   -1.5002    0.0000 C   0  0  0  0  0  0  0  0  0  0  0  0
   -1.3000    0.7500    0.0000 C   0  0  0  0  0  0  0  0  0  0  0  0
   -0.0000   -1.5000    0.0000 C   0  0  0  0  0  0  0  0  0  0  0  0
    0.0000    1.5000    0.0000 C   0  0  0  0  0  0  0  0  0  0  0  0
    1.3000   -0.7500    0.0000 C   0  0  0  0  0  0  0  0  0  0  0  0
    2.7772    0.4897    0.0000 C   0  0  0  0  0  0  0  0  0  0  0  0
   -1.3000   -0.7500    0.0000 C   0  0  0  0  0  0  0  0  0  0  0  0
    1.3000    0.7500    0.0000 C   0  0  0  0  0  0  0  0  0  0  0  0
    1.8127    2.1596    0.0000 O   0  0  0  0  0  0  0  0  0  0  0  0
  6  4  1  0
  7  5  1  0
  8  1  1  0
  8  2  1  0
  9  3  1  0
  9  4  1  0
  9  5  1  0
 10  6  1  0
 10  7  1  0
 10  8  1  0
 11 10  1  0
M  END
>  <NAME>  (3660) 
P-MENTHAN-4-OL

>  <SYNONYMS>  (3660) 
4-METHYL-1-(1-METHYLETHYL)CYCLOHEXAN-1-OL

>  <SPECTRUM TYPE>  (3660) 
MS1

>  <INSTRUMENT TYPE>  (3660) 
EI-B

>  <INSTRUMENT>  (3660) 
HITACHI M-80B

>  <ION MODE>  (3660) 
P

>  <INCHIKEY>  (3660) 
LWKGCZOYSGKTLB-UHFFFAOYSA-N

>  <FORMULA>  (3660) 
C10H20O

>  <EXACT MASS>  (3660) 
156.15141526

>  <MW>  (3660) 
156

>  <ID>  (3660) 
JP006934

>  <CONTRIBUTOR>  (3660) 
University of Tokyo Team, {Faculty of Engineering, University of Tokyo

>  <COMMENT>  (3660) 
SMILES=CC(C1)CCC(O)(C1)C(C)C
InChI=InChI=1S/C10H20O/c1-8(2)10(11)6-4-9(3)5-7-10/h8-9,11H,4-7H2,1-3H3
computed SMILES=OC1(CCC(C)CC1)C(C)C
accession=JP006934
date=2016.01.19 (Created 2008.10.21, modified 2011.05.06)
author=TAJIMA S, GUNMA COLLEGE OF TECHNOLOGY
license=CC BY-NC-SA
exact mass=156.15142
ionization energy=70 eV
ion type=[M]+*
computed spectral entropy=2.7182354345161213
computed normalized entropy=0.7419652505063724
SPLASH=splash10-03dm-9300000000-d9a61286039548b76367
submitter=submitter = University of Tokyo Team (Faculty of Engineering, University of Tokyo)
MoNA Rating=3.75

>  <NUM PEAKS>  (3660) 
39

>  <MASS SPECTRAL PEAKS>  (3660) 
27 11.19
28 2.55
29 7.82
31 1.74
39 8.24
40 1.25
41 24.94
42 4.52
43 62.97
44 1.58
45 1.84
53 6.56
54 1.07
55 14.21
56 2.26
57 6.98
59 1
67 9.56
68 1.18
69 8.23
70 4.52
71 9.01
77 1.3
79 1.21
81 3.72
83 2.32
85 1.21
86 4.8
87 1.26
93 1.46
95 60.82
96 4.99
97 1.59
99 32.17
100 2.15
112 2.99
113 99.99
114 7.83
123 1.07

$$$$

     RDKit          2D

 11 11  0  0  0  0  0  0  0  0999 V2000
   -3.5376   -0.2051    0.0000 C   0  0  0  0  0  0  0  0  0  0  0  0
   -2.2386   -2.4551    0.0000 C   0  0  0  0  0  0  0  0  0  0  0  0
    2.9576    2.0449    0.0000 C   0  0  0  0  0  0  0  0  0  0  0  0
    0.3590    2.0458    0.0000 C   0  0  0  0  0  0  0  0  0  0  0  0
   -0.9400    1.2958    0.0000 C   0  0  0  0  0  0  0  0  0  0  0  0
    1.6590   -0.2059    0.0000 C   0  0  0  0  0  0  0  0  0  0  0  0
   -2.2386   -0.9551    0.0000 C   0  0  0  0  0  0  0  0  0  0  0  0
    1.6585    1.2949    0.0000 C   0  0  0  0  0  0  0  0  0  0  0  0
   -0.9395   -0.2051    0.0000 C   0  0  0  0  0  0  0  0  0  0  0  0
    0.3600   -0.9559    0.0000 C   0  0  0  0  0  0  0  0  0  0  0  0
    0.3597   -2.4559    0.0000 O   0  0  0  0  0  0  0  0  0  0  0  0
  5  4  1  0
  7  1  1  0
  7  2  1  0
  8  3  1  0
  8  4  1  0
  8  6  1  0
  9  5  1  0
  9  7  1  0
 10  6  1  0
 10  9  1  0
 11 10  1  0
M  END
>  <NAME>  (3661) 
MENTHOL

>  <SYNONYMS>  (3661) 
1ALPHA,2BETA,5ALPHA-5-METHYL-2-(1-METHYLETHYL)CYCLOHEXAN-1-OL

>  <SPECTRUM TYPE>  (3661) 
MS1

>  <INSTRUMENT TYPE>  (3661) 
EI-B

>  <INSTRUMENT>  (3661) 
HITACHI M-80B

>  <ION MODE>  (3661) 
P

>  <INCHIKEY>  (3661) 
NOOLISFMXDJSKH-UHFFFAOYSA-N

>  <FORMULA>  (3661) 
C10H20O

>  <EXACT MASS>  (3661) 
156.15141526

>  <MW>  (3661) 
156

>  <ID>  (3661) 
JP006932

>  <CONTRIBUTOR>  (3661) 
University of Tokyo Team, {Faculty of Engineering, University of Tokyo

>  <COMMENT>  (3661) 
SMILES=CC(C1)CC(O)C(C1)C(C)C
InChI=InChI=1S/C10H20O/c1-7(2)9-5-4-8(3)6-10(9)11/h7-11H,4-6H2,1-3H3
computed SMILES=OC1CC(C)CCC1C(C)C
accession=JP006932
date=2016.01.19 (Created 2008.10.21, modified 2011.05.06)
author=TAJIMA S, GUNMA COLLEGE OF TECHNOLOGY
license=CC BY-NC-SA
exact mass=156.15142
ionization energy=70 eV
ion type=[M]+*
computed spectral entropy=3.317726243997758
computed normalized entropy=0.8356378614562551
SPLASH=splash10-05gm-9100000000-8a126fba3de41f12e6be
submitter=submitter = University of Tokyo Team (Faculty of Engineering, University of Tokyo)
MoNA Rating=3.75

>  <NUM PEAKS>  (3661) 
53

>  <MASS SPECTRAL PEAKS>  (3661) 
15 1.21
27 21
28 2.24
29 18.49
31 4.06
39 17.64
40 2.77
41 54.65
42 8.53
43 35.26
44 6.18
45 2.37
51 1.58
53 11.25
54 4.33
55 43.61
56 19.8
57 30.37
58 2.76
59 1.65
65 1.86
67 25.2
68 12.57
69 32.49
70 12.86
71 99.99
72 4.49
73 1.24
77 2.34
79 2.99
80 9.36
81 73.52
82 35.18
83 13.38
84 2.42
85 9.34
86 3.5
91 1.1
93 1.98
94 3.75
95 68.53
96 27.27
97 3.89
99 3.11
109 10.45
110 7.33
111 1.68
112 1.55
113 1.23
123 31.13
124 2.54
138 26.13
139 2.54

$$$$

     RDKit          2D

 11 11  0  0  1  0  0  0  0  0999 V2000
   -3.5376   -0.2051    0.0000 C   0  0  0  0  0  0  0  0  0  0  0  0
   -2.2386   -2.4551    0.0000 C   0  0  0  0  0  0  0  0  0  0  0  0
    2.9576    2.0449    0.0000 C   0  0  0  0  0  0  0  0  0  0  0  0
    0.3590    2.0458    0.0000 C   0  0  0  0  0  0  0  0  0  0  0  0
   -0.9400    1.2958    0.0000 C   0  0  0  0  0  0  0  0  0  0  0  0
    1.6590   -0.2059    0.0000 C   0  0  0  0  0  0  0  0  0  0  0  0
   -2.2386   -0.9551    0.0000 C   0  0  0  0  0  0  0  0  0  0  0  0
    1.6585    1.2949    0.0000 C   0  0  0  0  0  0  0  0  0  0  0  0
   -0.9395   -0.2051    0.0000 C   0  0  0  0  0  0  0  0  0  0  0  0
    0.3600   -0.9559    0.0000 C   0  0  0  0  0  0  0  0  0  0  0  0
    0.3597   -2.4559    0.0000 O   0  0  0  0  0  0  0  0  0  0  0  0
  5  4  1  0
  7  1  1  0
  7  2  1  0
  8  3  1  6
  8  4  1  0
  8  6  1  0
  9  5  1  0
  9  7  1  6
 10  6  1  0
 10  9  1  0
 10 11  1  1
M  END
>  <NAME>  (3662) 
ISOMENTHOL

>  <SYNONYMS>  (3662) 
1BETA,2ALPHA,5ALPHA-5-METHYL-2-(1-METHYLETHYL)CYCLOHEXAN-1-OL

>  <SPECTRUM TYPE>  (3662) 
MS1

>  <INSTRUMENT TYPE>  (3662) 
EI-B

>  <INSTRUMENT>  (3662) 
HITACHI M-80B

>  <ION MODE>  (3662) 
P

>  <INCHIKEY>  (3662) 
NOOLISFMXDJSKH-LPEHRKFASA-N

>  <FORMULA>  (3662) 
C10H20O

>  <EXACT MASS>  (3662) 
156.15141526

>  <MW>  (3662) 
156

>  <ID>  (3662) 
JP006931

>  <CONTRIBUTOR>  (3662) 
University of Tokyo Team, {Faculty of Engineering, University of Tokyo

>  <COMMENT>  (3662) 
SMILES=CC(C)C([H])(C1)C([H])(O)CC([H])(C)C1
InChI=InChI=1S/C10H20O/c1-7(2)9-5-4-8(3)6-10(9)11/h7-11H,4-6H2,1-3H3/t8-,9-,10+/m0/s1
computed SMILES=OC1CC(C)CCC1C(C)C
accession=JP006931
date=2016.01.19 (Created 2008.10.21, modified 2011.05.06)
author=TAJIMA S, GUNMA COLLEGE OF TECHNOLOGY
license=CC BY-NC-SA
exact mass=156.15142
ionization energy=70 eV
ion type=[M]+*
computed spectral entropy=3.311370215585472
computed normalized entropy=0.8340369644565684
SPLASH=splash10-05gl-9000000000-5c2cebfdcb036e0aecdc
submitter=submitter = University of Tokyo Team (Faculty of Engineering, University of Tokyo)
MoNA Rating=3.75

>  <NUM PEAKS>  (3662) 
53

>  <MASS SPECTRAL PEAKS>  (3662) 
15 1.32
27 19.45
28 1.98
29 16.97
31 4.08
39 18.02
40 2.62
41 48.86
42 7.58
43 31.82
44 4.65
45 2.27
51 1.55
53 9.83
54 3.43
55 37.7
56 19.44
57 25.16
58 2.49
59 1.11
65 1.48
67 21.11
68 11.67
69 26.36
70 10.93
71 99.99
72 4.79
73 1.28
77 2.07
79 2.84
80 6.84
81 55.47
82 28.84
83 9.59
84 2.33
85 8.58
86 3.45
91 1.05
93 1.68
94 2.98
95 51.91
96 16.97
97 3.21
99 3.12
109 8.89
110 4.76
111 1.09
112 1.43
113 1.36
123 23.31
124 2.13
138 19.18
139 2.25

$$$$

     RDKit          2D

 11 11  0  0  0  0  0  0  0  0999 V2000
    3.7413    1.6389    0.0000 C   0  0  0  0  0  0  0  0  0  0  0  0
    3.2904   -0.9198    0.0000 C   0  0  0  0  0  0  0  0  0  0  0  0
   -2.5989   -1.5002    0.0000 C   0  0  0  0  0  0  0  0  0  0  0  0
   -1.3000    0.7500    0.0000 C   0  0  0  0  0  0  0  0  0  0  0  0
   -0.0000   -1.5000    0.0000 C   0  0  0  0  0  0  0  0  0  0  0  0
    0.0000    1.5000    0.0000 C   0  0  0  0  0  0  0  0  0  0  0  0
    1.3000   -0.7500    0.0000 C   0  0  0  0  0  0  0  0  0  0  0  0
    2.7772    0.4897    0.0000 C   0  0  0  0  0  0  0  0  0  0  0  0
   -1.3000   -0.7500    0.0000 C   0  0  0  0  0  0  0  0  0  0  0  0
    1.3000    0.7500    0.0000 C   0  0  0  0  0  0  0  0  0  0  0  0
    1.8127    2.1596    0.0000 O   0  0  0  0  0  0  0  0  0  0  0  0
  6  4  1  0
  7  5  1  0
  8  1  1  0
  8  2  1  0
  9  3  1  0
  9  4  2  0
  9  5  1  0
 10  6  1  0
 10  7  1  0
 10  8  1  0
 11 10  1  0
M  END
>  <NAME>  (3663) 
4-TERPINENOL

>  <SYNONYMS>  (3663) 
4-METHYL-1-(1-METHYLETHYL)-3-CYCLOHEXEN-1-OL

>  <SPECTRUM TYPE>  (3663) 
MS1

>  <INSTRUMENT TYPE>  (3663) 
EI-B

>  <INSTRUMENT>  (3663) 
HITACHI M-80B

>  <ION MODE>  (3663) 
P

>  <INCHIKEY>  (3663) 
WRYLYDPHFGVWKC-UHFFFAOYSA-N

>  <FORMULA>  (3663) 
C10H18O

>  <EXACT MASS>  (3663) 
154.135765196

>  <MW>  (3663) 
154

>  <ID>  (3663) 
JP006930

>  <CONTRIBUTOR>  (3663) 
University of Tokyo Team, {Faculty of Engineering, University of Tokyo

>  <COMMENT>  (3663) 
SMILES=CC(C1)=CCC(O)(C1)C(C)C
InChI=InChI=1S/C10H18O/c1-8(2)10(11)6-4-9(3)5-7-10/h4,8,11H,5-7H2,1-3H3
computed SMILES=OC1(CC=C(C)CC1)C(C)C
accession=JP006930
date=2016.01.19 (Created 2008.10.21, modified 2011.05.06)
author=TAJIMA S, GUNMA COLLEGE OF TECHNOLOGY
license=CC BY-NC-SA
exact mass=154.13577
ionization energy=70 eV
ion type=[M]+*
computed spectral entropy=3.311399336954136
computed normalized entropy=0.8121076464676854
SPLASH=splash10-006x-9100000000-575f0430fad8f36207fc
submitter=submitter = University of Tokyo Team (Faculty of Engineering, University of Tokyo)
MoNA Rating=3.75

>  <NUM PEAKS>  (3663) 
59

>  <MASS SPECTRAL PEAKS>  (3663) 
15 1.22
27 17.75
28 1.54
29 6.65
31 2.04
39 16.37
40 4.17
41 32.84
42 4.1
43 44.78
44 1.5
45 1.7
51 3.73
52 1.69
53 13.69
54 1.82
55 22.37
56 1.28
57 3.27
58 1.44
59 1.29
65 4.43
66 1.82
67 16.03
68 15.24
69 21.1
70 4.56
71 99.99
72 5.1
77 10.36
78 1.7
79 4.82
81 11.77
82 3.96
83 10.15
84 1.33
85 1.45
86 26.78
87 1.68
91 8.66
92 7.19
93 43.32
94 4.83
95 7.87
96 1.04
97 1.21
98 1.3
107 1.02
109 1.3
110 6.34
111 52.64
112 4.1
121 1.57
125 1.93
136 7.39
137 1.21
139 1.95
154 17.62
155 1.7

$$$$

     RDKit          2D

 11 11  0  0  0  0  0  0  0  0999 V2000
    1.4778    2.1596    0.0000 C   0  0  0  0  0  0  0  0  0  0  0  0
    2.7772   -0.0901    0.0000 C   0  0  0  0  0  0  0  0  0  0  0  0
   -3.8981   -1.3302    0.0000 C   0  0  0  0  0  0  0  0  0  0  0  0
    0.1792   -1.5906    0.0000 C   0  0  0  0  0  0  0  0  0  0  0  0
   -1.1208    0.6594    0.0000 C   0  0  0  0  0  0  0  0  0  0  0  0
   -1.1208   -2.3406    0.0000 C   0  0  0  0  0  0  0  0  0  0  0  0
   -2.4208   -0.0906    0.0000 C   0  0  0  0  0  0  0  0  0  0  0  0
    1.4781    0.6596    0.0000 C   0  0  0  0  0  0  0  0  0  0  0  0
    0.1792   -0.0906    0.0000 C   0  0  0  0  0  0  0  0  0  0  0  0
   -2.4208   -1.5906    0.0000 C   0  0  0  0  0  0  0  0  0  0  0  0
   -2.9336   -3.0002    0.0000 O   0  0  0  0  0  0  0  0  0  0  0  0
  6  4  1  0
  7  5  1  0
  8  1  2  0
  8  2  1  0
  9  4  1  0
  9  5  1  0
  9  8  1  0
 10  3  1  0
 10  6  1  0
 10  7  1  0
 11 10  1  0
M  END
>  <NAME>  (3664) 
BETA-TERPINEOL

>  <SYNONYMS>  (3664) 
1-METHYL-4-(1-METHYLETHENYL)CYCLOHEXAN-1-OL

>  <SPECTRUM TYPE>  (3664) 
MS1

>  <INSTRUMENT TYPE>  (3664) 
EI-B

>  <INSTRUMENT>  (3664) 
HITACHI M-80B

>  <ION MODE>  (3664) 
P

>  <INCHIKEY>  (3664) 
RUJPNZNXGCHGID-UHFFFAOYSA-N

>  <FORMULA>  (3664) 
C10H18O

>  <EXACT MASS>  (3664) 
154.135765196

>  <MW>  (3664) 
154

>  <ID>  (3664) 
JP006929

>  <CONTRIBUTOR>  (3664) 
University of Tokyo Team, {Faculty of Engineering, University of Tokyo

>  <COMMENT>  (3664) 
SMILES=CC(=C)C(C1)CCC(C)(O)C1
InChI=InChI=1S/C10H18O/c1-8(2)9-4-6-10(3,11)7-5-9/h9,11H,1,4-7H2,2-3H3
computed SMILES=OC1(C)CCC(C(=C)C)CC1
accession=JP006929
date=2016.01.19 (Created 2008.10.21, modified 2011.05.06)
author=TAJIMA S, GUNMA COLLEGE OF TECHNOLOGY
license=CC BY-NC-SA
exact mass=154.13577
ionization energy=70 eV
ion type=[M]+*
computed spectral entropy=3.5286024690065085
computed normalized entropy=0.8516745657652675
SPLASH=splash10-006x-9100000000-1e530cbd646d0e92b81e
submitter=submitter = University of Tokyo Team (Faculty of Engineering, University of Tokyo)
MoNA Rating=3.75

>  <NUM PEAKS>  (3664) 
63

>  <MASS SPECTRAL PEAKS>  (3664) 
15 2.77
27 18.43
28 5.86
29 14.12
31 2.98
38 1.08
39 27.61
40 6.89
41 40.81
42 5.44
43 86.85
44 1.97
45 3.9
50 1.05
51 4.57
52 2.31
53 19.06
54 3.2
55 27.25
56 6.75
57 6.02
58 28.83
59 2.61
62 1.27
63 1.56
65 4.94
66 2.86
67 24.39
68 34.92
69 42.72
70 3.82
71 99.99
72 5.2
77 7.36
78 1.7
79 21.7
80 9.4
81 20.79
82 4.61
83 14.05
84 22.2
85 1.7
91 6.12
92 16.98
93 55.68
94 27.41
95 13.41
96 2.97
97 6.22
105 1.96
107 30.96
108 20.26
109 2.18
111 12.52
112 1.02
121 33.4
122 2.7
123 1.15
125 1.01
126 1.2
136 45.88
137 5.64
139 6.35

$$$$

     RDKit          2D

 11 10  0  0  0  0  0  0  0  0999 V2000
    2.1863    4.2623    0.0000 C   0  0  0  0  0  0  0  0  0  0  0  0
   -0.4118    2.7623    0.0000 C   0  0  0  0  0  0  0  0  0  0  0  0
   -6.3579    5.5613    0.0000 C   0  0  0  0  0  0  0  0  0  0  0  0
   -6.9070    3.5123    0.0000 C   0  0  0  0  0  0  0  0  0  0  0  0
    0.8873    5.0123    0.0000 C   0  0  0  0  0  0  0  0  0  0  0  0
   -3.0099    4.2623    0.0000 C   0  0  0  0  0  0  0  0  0  0  0  0
   -1.7108    5.0123    0.0000 C   0  0  0  0  0  0  0  0  0  0  0  0
   -4.3089    5.0123    0.0000 C   0  0  0  0  0  0  0  0  0  0  0  0
   -0.4118    4.2623    0.0000 C   0  0  0  0  0  0  0  0  0  0  0  0
   -5.6079    4.2623    0.0000 C   0  0  0  0  0  0  0  0  0  0  0  0
   -4.8579    2.9632    0.0000 O   0  0  0  0  0  0  0  0  0  0  0  0
  5  1  2  0
  7  6  1  0
  8  6  1  0
  9  2  2  0
  9  5  1  0
  9  7  1  0
 10  3  1  0
 10  4  1  0
 10  8  1  0
 11 10  1  0
M  END
>  <NAME>  (3665) 
MYRCENOL

>  <SYNONYMS>  (3665) 
2-METHYL-6-METHYLENE-7-OCTEN-2-OL

>  <SPECTRUM TYPE>  (3665) 
MS1

>  <INSTRUMENT TYPE>  (3665) 
EI-B

>  <INSTRUMENT>  (3665) 
HITACHI M-80B

>  <ION MODE>  (3665) 
P

>  <INCHIKEY>  (3665) 
DUNCVNHORHNONW-UHFFFAOYSA-N

>  <FORMULA>  (3665) 
C10H18O

>  <EXACT MASS>  (3665) 
154.135765196

>  <MW>  (3665) 
154

>  <ID>  (3665) 
JP006928

>  <CONTRIBUTOR>  (3665) 
University of Tokyo Team, {Faculty of Engineering, University of Tokyo

>  <COMMENT>  (3665) 
SMILES=C=CC(=C)CCCC(C)(C)O
InChI=InChI=1S/C10H18O/c1-5-9(2)7-6-8-10(3,4)11/h5,11H,1-2,6-8H2,3-4H3
computed SMILES=OC(C)(C)CCCC(=C)C=C
accession=JP006928
date=2016.01.19 (Created 2008.10.21, modified 2011.05.06)
author=TAJIMA S, GUNMA COLLEGE OF TECHNOLOGY
license=CC BY-NC-SA
exact mass=154.13577
ionization energy=70 eV
ion type=[M]+*
computed spectral entropy=3.2132759913430755
computed normalized entropy=0.825648602763862
SPLASH=splash10-0536-9000000000-a3e3c12bf43c30f0cae0
submitter=submitter = University of Tokyo Team (Faculty of Engineering, University of Tokyo)
MoNA Rating=3.75

>  <NUM PEAKS>  (3665) 
49

>  <MASS SPECTRAL PEAKS>  (3665) 
15 1.8
27 13.7
28 1.8
29 6.53
31 11.32
39 17.51
40 3.93
41 30.86
42 2.14
43 44.09
44 1.11
45 2.17
50 1.37
51 4.52
52 3.87
53 13.39
54 2.08
55 9.32
56 2.38
57 2.89
58 4.36
59 99.99
60 2.85
65 4.38
66 3.72
67 14.41
68 33.33
69 15.4
70 1.67
71 8.77
77 4.76
78 1.61
79 32.5
80 32.6
81 37.59
82 4.36
83 2.1
91 1.89
92 4.41
93 34.47
94 5.23
95 5.09
107 5.22
108 1.31
121 15.01
122 1.32
136 11.56
137 1.18
139 3.68

$$$$

     RDKit          2D

 11 10  0  0  0  0  0  0  0  0999 V2000
    1.9486    3.3750    0.0000 C   0  0  0  0  0  0  0  0  0  0  0  0
    0.6495    5.6250    0.0000 C   0  0  0  0  0  0  0  0  0  0  0  0
   -4.5466    5.6250    0.0000 C   0  0  0  0  0  0  0  0  0  0  0  0
   -5.8457    3.3750    0.0000 C   0  0  0  0  0  0  0  0  0  0  0  0
   -0.6495    3.3750    0.0000 C   0  0  0  0  0  0  0  0  0  0  0  0
   -1.9486    4.1250    0.0000 C   0  0  0  0  0  0  0  0  0  0  0  0
   -3.2476    1.8750    0.0000 C   0  0  0  0  0  0  0  0  0  0  0  0
    0.6495    4.1250    0.0000 C   0  0  0  0  0  0  0  0  0  0  0  0
   -4.5466    4.1250    0.0000 C   0  0  0  0  0  0  0  0  0  0  0  0
   -3.2476    3.3750    0.0000 C   0  0  0  0  0  0  0  0  0  0  0  0
   -4.5466    1.1250    0.0000 O   0  0  0  0  0  0  0  0  0  0  0  0
  6  5  1  0
  8  1  1  0
  8  2  1  0
  8  5  2  0
  9  3  2  0
  9  4  1  0
 10  6  1  0
 10  7  1  0
 10  9  1  0
 11  7  1  0
M  END
>  <NAME>  (3666) 
LAVANDULOL

>  <SYNONYMS>  (3666) 
5-METHYL-2-(1-METHYLETHENYL)-4-HEXEN-1-OL

>  <SPECTRUM TYPE>  (3666) 
MS1

>  <INSTRUMENT TYPE>  (3666) 
EI-B

>  <INSTRUMENT>  (3666) 
HITACHI M-80B

>  <ION MODE>  (3666) 
P

>  <INCHIKEY>  (3666) 
CZVXBFUKBZRMKR-UHFFFAOYSA-N

>  <FORMULA>  (3666) 
C10H18O

>  <EXACT MASS>  (3666) 
154.135765196

>  <MW>  (3666) 
154

>  <ID>  (3666) 
JP006927

>  <CONTRIBUTOR>  (3666) 
University of Tokyo Team, {Faculty of Engineering, University of Tokyo

>  <COMMENT>  (3666) 
SMILES=OCC(CC=C(C)C)C(C)=C
InChI=InChI=1S/C10H18O/c1-8(2)5-6-10(7-11)9(3)4/h5,10-11H,3,6-7H2,1-2,4H3
computed SMILES=OCC(C(=C)C)CC=C(C)C
accession=JP006927
date=2016.01.19 (Created 2008.10.21, modified 2011.05.06)
author=TAJIMA S, GUNMA COLLEGE OF TECHNOLOGY
license=CC BY-NC-SA
exact mass=154.13577
ionization energy=70 eV
ion type=[M]+*
computed spectral entropy=3.0763208671575732
computed normalized entropy=0.7904580971148755
SPLASH=splash10-014l-9100000000-5dff60fa1c2b4a4aa1bf
submitter=submitter = University of Tokyo Team (Faculty of Engineering, University of Tokyo)
MoNA Rating=3.75

>  <NUM PEAKS>  (3666) 
49

>  <MASS SPECTRAL PEAKS>  (3666) 
18 1.25
27 11.73
28 2.87
29 12.01
31 10.45
39 20.68
40 3.62
41 73.69
42 4.25
43 8.79
51 2.88
52 1.56
53 12.8
54 1.32
55 9.88
56 1.96
57 2.83
65 3.51
66 1.5
67 14.33
68 21.25
69 99.99
70 7.72
71 6.1
77 6.19
78 1.13
79 7.18
80 2.38
81 10.47
82 1.28
83 2.63
84 4.32
85 2.61
91 6.58
92 1.75
93 17.03
94 1.96
95 2
105 1.8
107 3.31
109 1.95
110 2.28
111 24.92
112 1.76
121 6.08
122 1.02
123 9.93
124 1.69
136 1.39

$$$$

     RDKit          2D

 11 12  0  0  1  0  0  0  0  0999 V2000
   -0.6759    1.4813    0.0000 C   0  0  0  0  0  0  0  0  0  0  0  0
   -0.6759   -2.3013    0.0000 C   0  0  0  0  0  0  0  0  0  0  0  0
    2.4475    2.5900    0.0000 C   0  0  0  0  0  0  0  0  0  0  0  0
    1.1450   -1.1600    0.0000 C   0  0  0  0  0  0  0  0  0  0  0  0
    1.1450    0.3400    0.0000 C   0  0  0  0  0  0  0  0  0  0  0  0
    3.7350   -1.1600    0.0000 C   0  0  0  0  0  0  0  0  0  0  0  0
    2.4450   -1.9100    0.0000 C   0  0  0  0  0  0  0  0  0  0  0  0
    3.7350    0.3400    0.0000 C   0  0  0  0  0  0  0  0  0  0  0  0
    1.5750   -0.4100    0.0000 C   0  0  0  0  0  0  0  0  0  0  0  0
    2.4450    1.0900    0.0000 C   0  0  0  0  0  0  0  0  0  0  0  0
    5.0352    1.0880    0.0000 O   0  0  0  0  0  0  0  0  0  0  0  0
  5  4  1  0
  7  4  1  6
  7  6  1  0
  8  6  1  0
  9  1  1  0
  9  2  1  0
  9  7  1  0
 10  3  1  1
 10  5  1  0
 10  8  1  0
 10  9  1  0
  8 11  1  1
M  END
>  <NAME>  (3667) 
ISOBORNEOL

>  <SYNONYMS>  (3667) 
EXO-1,7,7-TRIMETHYLBICYCLO(2.2.1)HEPTAN-2-OL

>  <SPECTRUM TYPE>  (3667) 
MS1

>  <INSTRUMENT TYPE>  (3667) 
EI-B

>  <INSTRUMENT>  (3667) 
HITACHI M-80B

>  <ION MODE>  (3667) 
P

>  <INCHIKEY>  (3667) 
DTGKSKDOIYIVQL-OYNCUSHFSA-N

>  <FORMULA>  (3667) 
C10H18O

>  <EXACT MASS>  (3667) 
154.135765196

>  <MW>  (3667) 
154

>  <ID>  (3667) 
JP006925

>  <CONTRIBUTOR>  (3667) 
University of Tokyo Team, {Faculty of Engineering, University of Tokyo

>  <COMMENT>  (3667) 
SMILES=OC(C1)C(C)(C2)C(C)(C)C(C2)1
InChI=InChI=1S/C10H18O/c1-9(2)7-4-5-10(9,3)8(11)6-7/h7-8,11H,4-6H2,1-3H3/t7-,8-,10+/m0/s1
computed SMILES=OC1CC2CCC1(C)C2(C)C
accession=JP006925
date=2016.01.19 (Created 2008.10.21, modified 2011.05.06)
author=TAJIMA S, GUNMA COLLEGE OF TECHNOLOGY
license=CC BY-NC-SA
exact mass=154.13577
ionization energy=70 eV
ion type=[M]+*
computed spectral entropy=3.2457518441511084
computed normalized entropy=0.8296862875416249
SPLASH=splash10-0005-9100000000-d50d0d9d1dd88bfb8d8c
submitter=submitter = University of Tokyo Team (Faculty of Engineering, University of Tokyo)
MoNA Rating=3.75

>  <NUM PEAKS>  (3667) 
50

>  <MASS SPECTRAL PEAKS>  (3667) 
27 10.18
28 1.27
29 8.74
31 1.55
39 12.52
40 1.98
41 27.77
42 2.25
43 15.64
44 1.72
45 1.02
51 2
53 8.28
54 1.63
55 16.38
56 1.73
57 3.6
59 5.43
65 2.23
67 13.09
68 2.71
69 9.67
70 2.71
71 8.08
72 5.07
77 4.64
79 5.75
80 1.6
81 6.49
82 9.91
83 6.14
84 4.79
85 1.16
91 3.06
92 7.2
93 16.46
94 2.27
95 99.99
96 8.83
97 1.7
105 1.1
107 2.08
108 2.83
109 2.04
110 18.03
111 6.06
121 12.25
136 12.23
137 1.25
139 8.46

$$$$

     RDKit          2D

 11 12  0  0  1  0  0  0  0  0999 V2000
   -0.6759    1.4813    0.0000 C   0  0  0  0  0  0  0  0  0  0  0  0
   -0.6759   -2.3013    0.0000 C   0  0  0  0  0  0  0  0  0  0  0  0
    2.4475    2.5900    0.0000 C   0  0  0  0  0  0  0  0  0  0  0  0
    1.1450   -1.1600    0.0000 C   0  0  0  0  0  0  0  0  0  0  0  0
    1.1450    0.3400    0.0000 C   0  0  0  0  0  0  0  0  0  0  0  0
    3.7350   -1.1600    0.0000 C   0  0  0  0  0  0  0  0  0  0  0  0
    2.4450   -1.9100    0.0000 C   0  0  0  0  0  0  0  0  0  0  0  0
    3.7350    0.3400    0.0000 C   0  0  0  0  0  0  0  0  0  0  0  0
    1.5750   -0.4100    0.0000 C   0  0  0  0  0  0  0  0  0  0  0  0
    2.4450    1.0900    0.0000 C   0  0  0  0  0  0  0  0  0  0  0  0
    5.0352    1.0880    0.0000 O   0  0  0  0  0  0  0  0  0  0  0  0
  5  4  1  0
  7  4  1  6
  7  6  1  0
  8  6  1  0
  9  1  1  0
  9  2  1  0
  9  7  1  0
 10  3  1  1
 10  5  1  0
 10  8  1  0
 10  9  1  0
  8 11  1  6
M  END
>  <NAME>  (3668) 
BORNEOL

>  <SYNONYMS>  (3668) 
ENDO-1,7,7-TRIMETHYLBICYCLO(2.2.1)HEPTAN-2-OL

>  <SPECTRUM TYPE>  (3668) 
MS1

>  <INSTRUMENT TYPE>  (3668) 
EI-B

>  <INSTRUMENT>  (3668) 
HITACHI M-80B

>  <ION MODE>  (3668) 
P

>  <INCHIKEY>  (3668) 
DTGKSKDOIYIVQL-QXFUBDJGSA-N

>  <FORMULA>  (3668) 
C10H18O

>  <EXACT MASS>  (3668) 
154.135765196

>  <MW>  (3668) 
154

>  <ID>  (3668) 
JP006924

>  <CONTRIBUTOR>  (3668) 
University of Tokyo Team, {Faculty of Engineering, University of Tokyo

>  <COMMENT>  (3668) 
SMILES=OC(C1)C(C)(C2)C(C)(C)C(C2)1
InChI=InChI=1S/C10H18O/c1-9(2)7-4-5-10(9,3)8(11)6-7/h7-8,11H,4-6H2,1-3H3/t7-,8+,10+/m0/s1
computed SMILES=OC1CC2CCC1(C)C2(C)C
accession=JP006924
date=2016.01.19 (Created 2008.10.21, modified 2011.05.06)
author=TAJIMA S, GUNMA COLLEGE OF TECHNOLOGY
license=CC BY-NC-SA
exact mass=154.13577
ionization energy=70 eV
ion type=[M]+*
computed spectral entropy=2.9003831814232095
computed normalized entropy=0.775987039420379
SPLASH=splash10-0002-9100000000-1bb77820d7f610ff89a7
submitter=submitter = University of Tokyo Team (Faculty of Engineering, University of Tokyo)
MoNA Rating=3.75

>  <NUM PEAKS>  (3668) 
42

>  <MASS SPECTRAL PEAKS>  (3668) 
27 6.4
29 5.62
39 8.55
40 1.27
41 18.02
42 1.46
43 10.03
44 1.08
51 1.34
53 5.43
55 10.39
56 1.1
57 2.95
65 1.59
67 8.54
68 1.36
69 7.03
70 2.25
71 5.78
72 1.96
77 3.42
79 4.05
81 3.25
82 4.3
83 3.76
84 3.45
91 2.83
92 2.25
93 6.73
94 1.16
95 99.99
96 8.4
97 1.28
105 1.01
107 1.12
108 2.56
109 2.34
110 20.68
111 4.11
121 5.71
136 5.83
139 8.58

$$$$

     RDKit          2D

 11 10  0  0  0  0  0  0  0  0999 V2000
   -6.8200    5.0625    0.0000 C   0  0  0  0  0  0  0  0  0  0  0  0
   -5.5209    2.8125    0.0000 C   0  0  0  0  0  0  0  0  0  0  0  0
   -0.3248    2.8125    0.0000 C   0  0  0  0  0  0  0  0  0  0  0  0
   -2.9228    4.3125    0.0000 C   0  0  0  0  0  0  0  0  0  0  0  0
   -4.2219    5.0625    0.0000 C   0  0  0  0  0  0  0  0  0  0  0  0
   -1.6238    5.0625    0.0000 C   0  0  0  0  0  0  0  0  0  0  0  0
    0.9743    5.0625    0.0000 C   0  0  0  0  0  0  0  0  0  0  0  0
    2.2733    4.3125    0.0000 C   0  0  0  0  0  0  0  0  0  0  0  0
   -5.5209    4.3125    0.0000 C   0  0  0  0  0  0  0  0  0  0  0  0
   -0.3248    4.3125    0.0000 C   0  0  0  0  0  0  0  0  0  0  0  0
    3.5724    5.0625    0.0000 O   0  0  0  0  0  0  0  0  0  0  0  0
  5  4  1  0
  6  4  1  0
  8  7  1  0
  9  1  1  0
  9  2  1  0
  9  5  1  0
 10  3  1  0
 10  6  1  0
 10  7  1  0
 11  8  1  0
M  END
>  <NAME>  (3669) 
TETRAHYDROGERANIOL

>  <SYNONYMS>  (3669) 
3,7-DIMETHYLOCTANOL

>  <SPECTRUM TYPE>  (3669) 
MS1

>  <INSTRUMENT TYPE>  (3669) 
EI-B

>  <INSTRUMENT>  (3669) 
HITACHI M-80B

>  <ION MODE>  (3669) 
P

>  <INCHIKEY>  (3669) 
PRNCMAKCNVRZFX-UHFFFAOYSA-N

>  <FORMULA>  (3669) 
C10H22O

>  <EXACT MASS>  (3669) 
158.167065324

>  <MW>  (3669) 
158

>  <ID>  (3669) 
JP006923

>  <CONTRIBUTOR>  (3669) 
University of Tokyo Team, {Faculty of Engineering, University of Tokyo

>  <COMMENT>  (3669) 
SMILES=OCCC(C)CCCC(C)C
InChI=InChI=1S/C10H22O/c1-9(2)5-4-6-10(3)7-8-11/h9-11H,4-8H2,1-3H3
computed SMILES=OCCC(C)CCCC(C)C
accession=JP006923
date=2016.01.19 (Created 2008.10.21, modified 2011.05.06)
author=TAJIMA S, GUNMA COLLEGE OF TECHNOLOGY
license=CC BY-NC-SA
exact mass=158.16707
ionization energy=70 eV
ion type=[M]+*
computed spectral entropy=2.979567345241777
computed normalized entropy=0.8191056416010489
SPLASH=splash10-0a4l-9000000000-cf4e5b3123dc8268afe3
submitter=submitter = University of Tokyo Team (Faculty of Engineering, University of Tokyo)
MoNA Rating=3.75

>  <NUM PEAKS>  (3669) 
38

>  <MASS SPECTRAL PEAKS>  (3669) 
15 1.27
18 1.24
27 25.04
28 3.86
29 28.36
31 32.52
39 20.32
40 3.93
41 79.34
42 24.76
43 99.99
44 4.75
45 4.21
53 7.12
54 3.8
55 89.76
56 99.67
57 71.49
58 2.64
67 5.49
68 5.15
69 66.91
70 76.44
71 32.47
72 1.76
81 2.77
82 4.73
83 25.51
84 22.97
85 5.89
96 6.66
97 21.83
98 2.76
111 8.26
112 19.92
113 1.86
125 2.38
140 1.51

$$$$

     RDKit          2D

 13 13  0  0  0  0  0  0  0  0999 V2000
   -5.5207    3.1321    0.0000 C   0  0  0  0  0  0  0  0  0  0  0  0
   -0.3245    4.6321    0.0000 C   0  0  0  0  0  0  0  0  0  0  0  0
   -4.2216    2.3821    0.0000 C   0  0  0  0  0  0  0  0  0  0  0  0
    3.5726    0.8821    0.0000 C   0  0  0  0  0  0  0  0  0  0  0  0
    3.5731    2.3829    0.0000 C   0  0  0  0  0  0  0  0  0  0  0  0
    2.2731    0.1313    0.0000 C   0  0  0  0  0  0  0  0  0  0  0  0
    2.2740    3.1329    0.0000 C   0  0  0  0  0  0  0  0  0  0  0  0
    0.9740    0.8813    0.0000 C   0  0  0  0  0  0  0  0  0  0  0  0
   -0.3245    3.1321    0.0000 C   0  0  0  0  0  0  0  0  0  0  0  0
    0.9745    2.3821    0.0000 C   0  0  0  0  0  0  0  0  0  0  0  0
   -2.9226    3.1321    0.0000 C   0  0  0  0  0  0  0  0  0  0  0  0
   -2.9226    4.6321    0.0000 O   0  0  0  0  0  0  0  0  0  0  0  0
   -1.6236    2.3821    0.0000 O   0  0  0  0  0  0  0  0  0  0  0  0
  3  1  1  0
  5  4  2  0
  6  4  1  0
  7  5  1  0
  8  6  2  0
  9  2  1  0
 10  7  2  0
 10  8  1  0
 10  9  1  0
 11  3  1  0
 12 11  2  0
 13  9  1  0
 13 11  1  0
M  END
>  <NAME>  (3670) 
1-PHENYLETHYL PROPIONATE

>  <SYNONYMS>  (3670) 


>  <SPECTRUM TYPE>  (3670) 
MS1

>  <INSTRUMENT TYPE>  (3670) 
EI-B

>  <INSTRUMENT>  (3670) 
HITACHI M-80B

>  <ION MODE>  (3670) 
P

>  <INCHIKEY>  (3670) 
WCIQNYOXLZQQMU-UHFFFAOYSA-N

>  <FORMULA>  (3670) 
C11H14O2

>  <EXACT MASS>  (3670) 
178.099379688

>  <MW>  (3670) 
178

>  <ID>  (3670) 
JP006922

>  <CONTRIBUTOR>  (3670) 
University of Tokyo Team, {Faculty of Engineering, University of Tokyo

>  <COMMENT>  (3670) 
SMILES=CCC(=O)OC(C)c(c1)cccc1
InChI=InChI=1S/C11H14O2/c1-3-11(12)13-9(2)10-7-5-4-6-8-10/h4-9H,3H2,1-2H3
computed SMILES=O=C(OC(C=1C=CC=CC1)C)CC
accession=JP006922
date=2016.01.19 (Created 2008.10.21, modified 2011.05.06)
author=TAJIMA S, GUNMA COLLEGE OF TECHNOLOGY
license=CC BY-NC-SA
exact mass=178.09938
ionization energy=70 eV
ion type=[M]+*
computed spectral entropy=2.7584115525922885
computed normalized entropy=0.7758485259068361
SPLASH=splash10-0pdi-7900000000-4d55059169fcb8fc7c47
submitter=submitter = University of Tokyo Team (Faculty of Engineering, University of Tokyo)
MoNA Rating=3.75

>  <NUM PEAKS>  (3670) 
35

>  <MASS SPECTRAL PEAKS>  (3670) 
15 1.07
26 2.26
27 21.32
28 4.26
29 40.09
39 6.93
43 13.31
50 5.34
51 18.28
52 3.38
53 1.76
57 67.66
58 1.7
62 1
63 3.11
65 2.28
74 1.18
75 1.89
76 1.84
77 36.62
78 18.19
79 18.36
89 1.39
91 1.33
102 1.99
103 17.34
104 86.04
105 99.99
106 7.7
107 8.72
121 5.89
122 70.59
123 5.69
178 15.96
179 1.4

$$$$

     RDKit          2D

 11 11  0  0  0  0  0  0  0  0999 V2000
   -1.6700   -0.9602    0.0000 C   0  0  0  0  0  0  0  0  0  0  0  0
   -0.3708   -1.7100    0.0000 C   0  0  0  0  0  0  0  0  0  0  0  0
    6.1262    0.5406    0.0000 C   0  0  0  0  0  0  0  0  0  0  0  0
    6.1262   -0.9594    0.0000 C   0  0  0  0  0  0  0  0  0  0  0  0
    4.8262    1.2906    0.0000 C   0  0  0  0  0  0  0  0  0  0  0  0
    4.8262   -1.7094    0.0000 C   0  0  0  0  0  0  0  0  0  0  0  0
    3.5262    0.5406    0.0000 C   0  0  0  0  0  0  0  0  0  0  0  0
    3.5262   -0.9594    0.0000 C   0  0  0  0  0  0  0  0  0  0  0  0
    0.9281   -0.9598    0.0000 C   0  0  0  0  0  0  0  0  0  0  0  0
    0.9278    0.5402    0.0000 O   0  0  0  0  0  0  0  0  0  0  0  0
    2.2272   -1.7096    0.0000 O   0  0  0  0  0  0  0  0  0  0  0  0
  2  1  1  0
  4  3  2  0
  5  3  1  0
  6  4  1  0
  7  5  2  0
  8  6  2  0
  8  7  1  0
  9  2  1  0
 10  9  2  0
 11  8  1  0
 11  9  1  0
M  END
>  <NAME>  (3671) 
PHENYL PROPIONATE

>  <SYNONYMS>  (3671) 


>  <SPECTRUM TYPE>  (3671) 
MS1

>  <INSTRUMENT TYPE>  (3671) 
EI-B

>  <INSTRUMENT>  (3671) 
HITACHI M-80B

>  <ION MODE>  (3671) 
P

>  <INCHIKEY>  (3671) 
DYUMLJSJISTVPV-UHFFFAOYSA-N

>  <FORMULA>  (3671) 
C9H10O2

>  <EXACT MASS>  (3671) 
150.06807956

>  <MW>  (3671) 
150

>  <ID>  (3671) 
JP006921

>  <CONTRIBUTOR>  (3671) 
University of Tokyo Team, {Faculty of Engineering, University of Tokyo

>  <COMMENT>  (3671) 
SMILES=CCC(=O)Oc(c1)cccc1
InChI=InChI=1S/C9H10O2/c1-2-9(10)11-8-6-4-3-5-7-8/h3-7H,2H2,1H3
computed SMILES=O=C(OC=1C=CC=CC1)CC
accession=JP006921
date=2016.01.19 (Created 2008.10.21, modified 2011.05.06)
author=TAJIMA S, GUNMA COLLEGE OF TECHNOLOGY
license=CC BY-NC-SA
exact mass=150.06808
ionization energy=70 eV
ion type=[M]+*
computed spectral entropy=2.2872170825003444
computed normalized entropy=0.7196911080168616
SPLASH=splash10-002f-9000000000-58fb3efeca6152d0c476
submitter=submitter = University of Tokyo Team (Faculty of Engineering, University of Tokyo)
MoNA Rating=3.75

>  <NUM PEAKS>  (3671) 
24

>  <MASS SPECTRAL PEAKS>  (3671) 
26 2.23
27 12.95
28 2.68
29 40.2
38 2.66
39 17.33
40 1.81
50 2.25
51 5.83
55 2.13
56 1.92
57 46.23
58 1.36
62 1.03
63 3.38
64 1.26
65 13.23
66 8.08
77 6.24
93 1.21
94 99.99
95 7.23
150 15.48
151 1.39

$$$$

     RDKit          2D

 11 11  0  0  0  0  0  0  0  0999 V2000
    7.3370    0.5190    0.0000 C   0  0  0  0  0  0  0  0  0  0  0  0
    6.0372   -0.2297    0.0000 C   0  0  0  0  0  0  0  0  0  0  0  0
   -0.7907   -2.0229    0.0000 C   0  0  0  0  0  0  0  0  0  0  0  0
    0.6766   -1.7110    0.0000 C   0  0  0  0  0  0  0  0  0  0  0  0
   -1.5358   -0.7296    0.0000 C   0  0  0  0  0  0  0  0  0  0  0  0
    2.1409    0.5243    0.0000 C   0  0  0  0  0  0  0  0  0  0  0  0
    0.8410   -0.2244    0.0000 C   0  0  0  0  0  0  0  0  0  0  0  0
    4.7389    0.5217    0.0000 C   0  0  0  0  0  0  0  0  0  0  0  0
    4.7405    2.0217    0.0000 O   0  0  0  0  0  0  0  0  0  0  0  0
   -0.5353    0.3828    0.0000 O   0  0  0  0  0  0  0  0  0  0  0  0
    3.4391   -0.2270    0.0000 O   0  0  0  0  0  0  0  0  0  0  0  0
  2  1  1  0
  4  3  1  0
  5  3  1  0
  7  4  1  0
  7  6  1  0
  8  2  1  0
  9  8  2  0
 10  5  1  0
 10  7  1  0
 11  6  1  0
 11  8  1  0
M  END
>  <NAME>  (3672) 
TETRAHYDROFURFURYL PROPIONATE

>  <SYNONYMS>  (3672) 


>  <SPECTRUM TYPE>  (3672) 
MS1

>  <INSTRUMENT TYPE>  (3672) 
EI-B

>  <INSTRUMENT>  (3672) 
HITACHI M-80B

>  <ION MODE>  (3672) 
P

>  <INCHIKEY>  (3672) 
FMKCDSXOYLTWBR-UHFFFAOYSA-N

>  <FORMULA>  (3672) 
C8H14O3

>  <EXACT MASS>  (3672) 
158.094294308

>  <MW>  (3672) 
158

>  <ID>  (3672) 
JP006920

>  <CONTRIBUTOR>  (3672) 
University of Tokyo Team, {Faculty of Engineering, University of Tokyo

>  <COMMENT>  (3672) 
SMILES=CCC(=O)OCC(C1)OCC1
InChI=InChI=1S/C8H14O3/c1-2-8(9)11-6-7-4-3-5-10-7/h7H,2-6H2,1H3
computed SMILES=O=C(OCC1OCCC1)CC
accession=JP006920
date=2016.01.19 (Created 2008.10.21, modified 2011.05.06)
author=TAJIMA S, GUNMA COLLEGE OF TECHNOLOGY
license=CC BY-NC-SA
exact mass=158.09429
ionization energy=70 eV
ion type=[M]+*
computed spectral entropy=2.1271300408972134
computed normalized entropy=0.7100534515968911
SPLASH=splash10-00di-9000000000-32e9a1d39997c3b8db61
submitter=submitter = University of Tokyo Team (Faculty of Engineering, University of Tokyo)
MoNA Rating=3.75

>  <NUM PEAKS>  (3672) 
20

>  <MASS SPECTRAL PEAKS>  (3672) 
15 1.61
26 1.69
27 16.16
28 2.05
29 24.53
31 2.38
39 6.15
40 1.11
41 12.98
42 6.72
43 35.54
44 1.15
54 1.47
55 2.73
56 1.76
57 22.45
70 1.67
71 99.99
72 4.02
84 11.36

$$$$

     RDKit          2D

 15 15  0  0  0  0  0  0  0  0999 V2000
    6.3804    5.2974    0.0000 C   0  0  0  0  0  0  0  0  0  0  0  0
    4.8804    5.2976    0.0000 C   0  0  0  0  0  0  0  0  0  0  0  0
   -1.8800   -1.2000    0.0000 C   0  0  0  0  0  0  0  0  0  0  0  0
   -2.6300    0.1000    0.0000 C   0  0  0  0  0  0  0  0  0  0  0  0
   -0.3800   -1.2000    0.0000 C   0  0  0  0  0  0  0  0  0  0  0  0
   -1.8800    1.4000    0.0000 C   0  0  0  0  0  0  0  0  0  0  0  0
    0.3700    0.1000    0.0000 C   0  0  0  0  0  0  0  0  0  0  0  0
   -0.3700    1.4000    0.0000 C   0  0  0  0  0  0  0  0  0  0  0  0
    1.8800    0.1000    0.0000 C   0  0  0  0  0  0  0  0  0  0  0  0
    0.3800    2.7000    0.0000 C   0  0  0  0  0  0  0  0  0  0  0  0
    2.6300    1.4000    0.0000 C   0  0  0  0  0  0  0  0  0  0  0  0
    1.8800    2.7000    0.0000 C   0  0  0  0  0  0  0  0  0  0  0  0
    4.1302    3.9987    0.0000 C   0  0  0  0  0  0  0  0  0  0  0  0
    4.8800    2.6995    0.0000 O   0  0  0  0  0  0  0  0  0  0  0  0
    2.6302    3.9989    0.0000 O   0  0  0  0  0  0  0  0  0  0  0  0
  2  1  1  0
  4  3  1  0
  5  3  1  0
  6  4  1  0
  7  5  1  0
  8  6  1  0
  9  7  1  0
 10  8  1  0
 11  9  1  0
 12 10  1  0
 12 11  1  0
 13  2  1  0
 14 13  2  0
 15 12  1  0
 15 13  1  0
M  END
>  <NAME>  (3673) 
CYCLODECYL PROPIONATE

>  <SYNONYMS>  (3673) 


>  <SPECTRUM TYPE>  (3673) 
MS1

>  <INSTRUMENT TYPE>  (3673) 
EI-B

>  <INSTRUMENT>  (3673) 
HITACHI M-80B

>  <ION MODE>  (3673) 
P

>  <INCHIKEY>  (3673) 
JBOWYBVZEHROJP-UHFFFAOYSA-N

>  <FORMULA>  (3673) 
C13H24O2

>  <EXACT MASS>  (3673) 
212.177630008

>  <MW>  (3673) 
212

>  <ID>  (3673) 
JP006919

>  <CONTRIBUTOR>  (3673) 
University of Tokyo Team, {Faculty of Engineering, University of Tokyo

>  <COMMENT>  (3673) 
SMILES=CCC(=O)OC(C1)CCCCCCCC1
InChI=InChI=1S/C13H24O2/c1-2-13(14)15-12-10-8-6-4-3-5-7-9-11-12/h12H,2-11H2,1H3
computed SMILES=O=C(OC1CCCCCCCCC1)CC
accession=JP006919
date=2016.01.19 (Created 2008.10.21, modified 2011.05.06)
author=TAJIMA S, GUNMA COLLEGE OF TECHNOLOGY
license=CC BY-NC-SA
exact mass=212.17763
ionization energy=70 eV
ion type=[M]+*
computed spectral entropy=2.7152066194628075
computed normalized entropy=0.7906862949042046
SPLASH=splash10-0a59-9000000000-709f2d2f26b843f72b6d
submitter=submitter = University of Tokyo Team (Faculty of Engineering, University of Tokyo)
MoNA Rating=3.75

>  <NUM PEAKS>  (3673) 
31

>  <MASS SPECTRAL PEAKS>  (3673) 
27 6.67
28 2.07
29 29.32
39 3.29
41 23.02
42 1.29
43 5.22
53 2.67
54 4.04
55 9.66
56 16.01
57 99.99
58 3.31
67 22.63
68 1.58
69 4.13
70 1.34
75 28.01
77 1.06
79 2.93
80 22.15
81 17.55
82 31.81
83 9.72
84 1.19
95 3.39
96 1.78
97 1.02
110 1.02
123 10.18
138 7.41

$$$$

     RDKit          2D

 14 13  0  0  0  0  0  0  0  0999 V2000
    2.8358    5.3873    0.0000 C   0  0  0  0  0  0  0  0  0  0  0  0
   -4.9584    3.8873    0.0000 C   0  0  0  0  0  0  0  0  0  0  0  0
   -8.3065    6.6863    0.0000 C   0  0  0  0  0  0  0  0  0  0  0  0
   -8.8555    4.6373    0.0000 C   0  0  0  0  0  0  0  0  0  0  0  0
   -6.8065    4.0882    0.0000 C   0  0  0  0  0  0  0  0  0  0  0  0
    1.5368    6.1373    0.0000 C   0  0  0  0  0  0  0  0  0  0  0  0
   -3.6594    6.1373    0.0000 C   0  0  0  0  0  0  0  0  0  0  0  0
   -2.3603    5.3873    0.0000 C   0  0  0  0  0  0  0  0  0  0  0  0
   -6.2575    6.1373    0.0000 C   0  0  0  0  0  0  0  0  0  0  0  0
   -4.9584    5.3873    0.0000 C   0  0  0  0  0  0  0  0  0  0  0  0
    0.2377    5.3873    0.0000 C   0  0  0  0  0  0  0  0  0  0  0  0
   -7.5565    5.3873    0.0000 C   0  0  0  0  0  0  0  0  0  0  0  0
    0.2377    3.8873    0.0000 O   0  0  0  0  0  0  0  0  0  0  0  0
   -1.0613    6.1373    0.0000 O   0  0  0  0  0  0  0  0  0  0  0  0
  6  1  1  0
  8  7  1  0
 10  2  1  0
 10  7  1  0
 10  9  1  0
 11  6  1  0
 12  3  1  0
 12  4  1  0
 12  5  1  0
 12  9  1  0
 13 11  2  0
 14  8  1  0
 14 11  1  0
M  END
>  <NAME>  (3674) 
3,5,5-TRIMETHYLHEXYL PROPIONATE

>  <SYNONYMS>  (3674) 


>  <SPECTRUM TYPE>  (3674) 
MS1

>  <INSTRUMENT TYPE>  (3674) 
EI-B

>  <INSTRUMENT>  (3674) 
HITACHI M-80B

>  <ION MODE>  (3674) 
P

>  <INCHIKEY>  (3674) 
FJTRXKOPFZBNTF-UHFFFAOYSA-N

>  <FORMULA>  (3674) 
C12H24O2

>  <EXACT MASS>  (3674) 
200.177630008

>  <MW>  (3674) 
200

>  <ID>  (3674) 
JP006918

>  <CONTRIBUTOR>  (3674) 
University of Tokyo Team, {Faculty of Engineering, University of Tokyo

>  <COMMENT>  (3674) 
SMILES=CCC(=O)OCCC(C)CC(C)(C)C
InChI=InChI=1S/C12H24O2/c1-6-11(13)14-8-7-10(2)9-12(3,4)5/h10H,6-9H2,1-5H3
computed SMILES=O=C(OCCC(C)CC(C)(C)C)CC
accession=JP006918
date=2016.01.19 (Created 2008.10.21, modified 2011.05.06)
author=TAJIMA S, GUNMA COLLEGE OF TECHNOLOGY
license=CC BY-NC-SA
exact mass=200.17763
ionization energy=70 eV
ion type=[M]+*
computed spectral entropy=2.7187493210263836
computed normalized entropy=0.8073984165024504
SPLASH=splash10-0a4i-9100000000-7b4fc9210ff98e36a0d0
submitter=submitter = University of Tokyo Team (Faculty of Engineering, University of Tokyo)
MoNA Rating=3.75

>  <NUM PEAKS>  (3674) 
29

>  <MASS SPECTRAL PEAKS>  (3674) 
27 9.39
28 3.93
29 35.23
39 5.71
40 1.22
41 28.37
42 11.06
43 12.07
53 1.75
54 1.03
55 23.96
56 13.31
57 99.99
58 4.36
67 1.21
69 22.65
70 37.32
71 15.75
74 2.35
75 25.59
83 9.76
84 2.42
98 1.93
102 1.08
111 12.56
112 1.06
115 28.83
116 1.87
126 1.34

$$$$

     RDKit          2D

 12 12  0  0  0  0  0  0  0  0999 V2000
   -5.5207    3.1321    0.0000 C   0  0  0  0  0  0  0  0  0  0  0  0
    3.5726    0.8821    0.0000 C   0  0  0  0  0  0  0  0  0  0  0  0
    3.5731    2.3829    0.0000 C   0  0  0  0  0  0  0  0  0  0  0  0
    2.2731    0.1313    0.0000 C   0  0  0  0  0  0  0  0  0  0  0  0
    2.2740    3.1329    0.0000 C   0  0  0  0  0  0  0  0  0  0  0  0
    0.9740    0.8813    0.0000 C   0  0  0  0  0  0  0  0  0  0  0  0
   -0.3245    3.1321    0.0000 C   0  0  0  0  0  0  0  0  0  0  0  0
   -1.6236    2.3821    0.0000 C   0  0  0  0  0  0  0  0  0  0  0  0
    0.9745    2.3821    0.0000 C   0  0  0  0  0  0  0  0  0  0  0  0
   -2.9226    3.1321    0.0000 C   0  0  0  0  0  0  0  0  0  0  0  0
   -2.9226    4.6321    0.0000 O   0  0  0  0  0  0  0  0  0  0  0  0
   -4.2216    2.3821    0.0000 O   0  0  0  0  0  0  0  0  0  0  0  0
  3  2  1  0
  4  2  1  0
  5  3  1  0
  6  4  1  0
  8  7  1  0
  9  5  1  0
  9  6  1  0
  9  7  1  0
 10  8  1  0
 11 10  2  0
 12  1  1  0
 12 10  1  0
M  END
>  <NAME>  (3675) 
METHYL 3-CYCLOHEXYLPROPIONATE

>  <SYNONYMS>  (3675) 


>  <SPECTRUM TYPE>  (3675) 
MS1

>  <INSTRUMENT TYPE>  (3675) 
EI-B

>  <INSTRUMENT>  (3675) 
HITACHI M-80B

>  <ION MODE>  (3675) 
P

>  <INCHIKEY>  (3675) 
PPALFHZGSIENQB-UHFFFAOYSA-N

>  <FORMULA>  (3675) 
C10H18O2

>  <EXACT MASS>  (3675) 
170.130679816

>  <MW>  (3675) 
170

>  <ID>  (3675) 
JP006917

>  <CONTRIBUTOR>  (3675) 
University of Tokyo Team, {Faculty of Engineering, University of Tokyo

>  <COMMENT>  (3675) 
SMILES=COC(=O)CCC(C1)CCCC1
InChI=InChI=1S/C10H18O2/c1-12-10(11)8-7-9-5-3-2-4-6-9/h9H,2-8H2,1H3
computed SMILES=O=C(OC)CCC1CCCCC1
accession=JP006917
date=2016.01.19 (Created 2008.10.21, modified 2011.05.06)
author=TAJIMA S, GUNMA COLLEGE OF TECHNOLOGY
license=CC BY-NC-SA
exact mass=170.13068
ionization energy=70 eV
ion type=[M]+*
computed spectral entropy=3.2250415885622794
computed normalized entropy=0.7976751653435266
SPLASH=splash10-059m-9000000000-3b5db447fe33aea51570
submitter=submitter = University of Tokyo Team (Faculty of Engineering, University of Tokyo)
MoNA Rating=3.75

>  <NUM PEAKS>  (3675) 
57

>  <MASS SPECTRAL PEAKS>  (3675) 
15 11.88
26 1.12
27 18.96
28 3.86
29 18.39
31 2.56
39 23.62
40 3.22
41 56.08
42 8.41
43 25.91
44 1.11
45 2.08
51 1.8
52 1.27
53 11
54 12.8
55 80.87
56 6.27
57 12.95
59 14.52
65 2.13
66 1.41
67 21.77
68 5.14
69 11.47
71 1.13
74 94.41
75 19.78
77 2.34
79 5.14
80 1.2
81 14.66
82 3.58
83 13.2
84 1.12
85 1.38
87 99.99
88 19.63
89 1.29
91 1.59
93 2.4
94 3.71
95 10.85
96 23.21
97 95.15
98 7.2
109 2.14
110 1.83
120 1.59
121 10.54
137 1.04
138 3.71
139 11.97
141 10.89
142 1.14
170 1.06

$$$$

     RDKit          2D

 15 15  0  0  0  0  0  0  0  0999 V2000
    6.2062   -0.5808    0.0000 C   0  0  0  0  0  0  0  0  0  0  0  0
   -1.5890   -3.5800    0.0000 C   0  0  0  0  0  0  0  0  0  0  0  0
    1.0090   -3.5800    0.0000 C   0  0  0  0  0  0  0  0  0  0  0  0
   -0.2900    3.1700    0.0000 C   0  0  0  0  0  0  0  0  0  0  0  0
    4.9070   -1.3306    0.0000 C   0  0  0  0  0  0  0  0  0  0  0  0
   -1.5900    0.9200    0.0000 C   0  0  0  0  0  0  0  0  0  0  0  0
   -1.5900   -0.5800    0.0000 C   0  0  0  0  0  0  0  0  0  0  0  0
    1.0100    0.9200    0.0000 C   0  0  0  0  0  0  0  0  0  0  0  0
   -0.2900   -2.8300    0.0000 C   0  0  0  0  0  0  0  0  0  0  0  0
   -0.2900    1.6700    0.0000 C   0  0  0  0  0  0  0  0  0  0  0  0
   -0.2900   -1.3300    0.0000 C   0  0  0  0  0  0  0  0  0  0  0  0
    1.0100   -0.5800    0.0000 C   0  0  0  0  0  0  0  0  0  0  0  0
    3.6081   -0.5804    0.0000 C   0  0  0  0  0  0  0  0  0  0  0  0
    3.6083    0.9196    0.0000 O   0  0  0  0  0  0  0  0  0  0  0  0
    2.3089   -1.3302    0.0000 O   0  0  0  0  0  0  0  0  0  0  0  0
  5  1  1  0
  7  6  1  0
  9  2  1  0
  9  3  1  0
 10  4  1  0
 10  6  1  0
 10  8  1  0
 11  7  1  0
 11  9  1  0
 12  8  1  0
 12 11  1  0
 13  5  1  0
 14 13  2  0
 15 12  1  0
 15 13  1  0
M  END
>  <NAME>  (3676) 
MENTHYL PROPIONATE

>  <SYNONYMS>  (3676) 
5-METHYL-2-(1-METHYLETHYL)CYCLOHEXYL PROPIONATE

>  <SPECTRUM TYPE>  (3676) 
MS1

>  <INSTRUMENT TYPE>  (3676) 
EI-B

>  <INSTRUMENT>  (3676) 
HITACHI M-80B

>  <ION MODE>  (3676) 
P

>  <INCHIKEY>  (3676) 
PELLUIPPBKHUAB-UHFFFAOYSA-N

>  <FORMULA>  (3676) 
C13H24O2

>  <EXACT MASS>  (3676) 
212.177630008

>  <MW>  (3676) 
212

>  <ID>  (3676) 
JP006916

>  <CONTRIBUTOR>  (3676) 
University of Tokyo Team, {Faculty of Engineering, University of Tokyo

>  <COMMENT>  (3676) 
SMILES=CCC(=O)OC(C1)C(CCC(C)1)C(C)C
InChI=InChI=1S/C13H24O2/c1-5-13(14)15-12-8-10(4)6-7-11(12)9(2)3/h9-12H,5-8H2,1-4H3
computed SMILES=O=C(OC1CC(C)CCC1C(C)C)CC
accession=JP006916
date=2016.01.19 (Created 2008.10.21, modified 2011.05.06)
author=TAJIMA S, GUNMA COLLEGE OF TECHNOLOGY
license=CC BY-NC-SA
exact mass=212.17763
ionization energy=70 eV
ion type=[M]+*
computed spectral entropy=3.0248529822891497
computed normalized entropy=0.794620744659624
SPLASH=splash10-0a5j-9200000000-78eca66d5d105c0990ba
submitter=submitter = University of Tokyo Team (Faculty of Engineering, University of Tokyo)
MoNA Rating=3.75

>  <NUM PEAKS>  (3676) 
45

>  <MASS SPECTRAL PEAKS>  (3676) 
27 10.51
29 36.46
39 5.02
41 22.63
42 2.19
43 15.13
53 3.57
54 3.11
55 24.48
56 4.86
57 99.99
58 3.07
65 1.04
67 12.91
68 5.24
69 16.43
70 1.98
71 4.61
75 2.31
77 1.4
79 3.27
80 5.19
81 50.79
82 25.03
83 19.3
84 1.85
85 1.64
93 1.25
94 9.67
95 85.35
96 23.81
97 4.45
98 1.02
99 1.68
109 7.06
110 4.64
111 1.51
113 1.42
123 34.58
124 2.62
127 1.84
137 2.63
138 69.44
139 11.53
141 1.59

$$$$

     RDKit          2D

 15 14  0  0  0  0  0  0  0  0999 V2000
    3.5724    6.5625    0.0000 C   0  0  0  0  0  0  0  0  0  0  0  0
  -10.7171    7.3125    0.0000 C   0  0  0  0  0  0  0  0  0  0  0  0
   -9.4180    5.0625    0.0000 C   0  0  0  0  0  0  0  0  0  0  0  0
   -4.2219    5.0625    0.0000 C   0  0  0  0  0  0  0  0  0  0  0  0
    2.2733    7.3125    0.0000 C   0  0  0  0  0  0  0  0  0  0  0  0
   -6.8200    6.5625    0.0000 C   0  0  0  0  0  0  0  0  0  0  0  0
   -8.1190    7.3125    0.0000 C   0  0  0  0  0  0  0  0  0  0  0  0
   -5.5209    7.3125    0.0000 C   0  0  0  0  0  0  0  0  0  0  0  0
   -2.9228    7.3125    0.0000 C   0  0  0  0  0  0  0  0  0  0  0  0
   -1.6238    6.5625    0.0000 C   0  0  0  0  0  0  0  0  0  0  0  0
   -9.4180    6.5625    0.0000 C   0  0  0  0  0  0  0  0  0  0  0  0
   -4.2219    6.5625    0.0000 C   0  0  0  0  0  0  0  0  0  0  0  0
    0.9743    6.5625    0.0000 C   0  0  0  0  0  0  0  0  0  0  0  0
    0.9743    5.0625    0.0000 O   0  0  0  0  0  0  0  0  0  0  0  0
   -0.3248    7.3125    0.0000 O   0  0  0  0  0  0  0  0  0  0  0  0
  5  1  1  0
  7  6  1  0
  8  6  1  0
 10  9  1  0
 11  2  1  0
 11  3  1  0
 11  7  2  0
 12  4  1  0
 12  8  1  0
 12  9  1  0
 13  5  1  0
 14 13  2  0
 15 10  1  0
 15 13  1  0
M  END
>  <NAME>  (3677) 
CITRONELLYL PROPIONATE

>  <SYNONYMS>  (3677) 
3,7-DIMETHYL-6-OCTENYL PROPIONATE

>  <SPECTRUM TYPE>  (3677) 
MS1

>  <INSTRUMENT TYPE>  (3677) 
EI-B

>  <INSTRUMENT>  (3677) 
HITACHI M-80B

>  <ION MODE>  (3677) 
P

>  <INCHIKEY>  (3677) 
POPNTVRHTZDEBW-UHFFFAOYSA-N

>  <FORMULA>  (3677) 
C13H24O2

>  <EXACT MASS>  (3677) 
212.177630008

>  <MW>  (3677) 
212

>  <ID>  (3677) 
JP006915

>  <CONTRIBUTOR>  (3677) 
University of Tokyo Team, {Faculty of Engineering, University of Tokyo

>  <COMMENT>  (3677) 
SMILES=CCC(=O)OCCC(C)CCC=C(C)C
InChI=InChI=1S/C13H24O2/c1-5-13(14)15-10-9-12(4)8-6-7-11(2)3/h7,12H,5-6,8-10H2,1-4H3
computed SMILES=O=C(OCCC(C)CCC=C(C)C)CC
accession=JP006915
date=2016.01.19 (Created 2008.10.21, modified 2011.05.06)
author=TAJIMA S, GUNMA COLLEGE OF TECHNOLOGY
license=CC BY-NC-SA
exact mass=212.17763
ionization energy=70 eV
ion type=[M]+*
computed spectral entropy=3.1224199784190168
computed normalized entropy=0.806576555859788
SPLASH=splash10-05o1-9100000000-717a571be4855f62445f
submitter=submitter = University of Tokyo Team (Faculty of Engineering, University of Tokyo)
MoNA Rating=3.75

>  <NUM PEAKS>  (3677) 
48

>  <MASS SPECTRAL PEAKS>  (3677) 
26 1.31
27 17.08
28 3.46
29 54.95
30 1.51
31 1.86
39 12.87
40 2.77
41 85.19
42 9.14
43 13.43
51 1.22
53 11.67
54 4.13
55 49.89
56 14.28
57 90.17
58 3.07
59 1.05
65 1.61
66 1.49
67 51.62
68 41.92
69 99.99
70 12.41
71 2.53
75 6.6
77 1.97
79 3.64
80 6.18
81 99.71
82 80.34
83 18.78
84 1.37
93 1.75
94 4.95
95 91.32
96 20.61
97 2.6
99 1.43
109 33.72
110 7.81
111 1.88
123 71.19
124 5.66
137 2.97
138 48.69
139 4.38

$$$$

     RDKit          2D

 15 15  0  0  0  0  0  0  0  0999 V2000
    7.7951    1.5010    0.0000 C   0  0  0  0  0  0  0  0  0  0  0  0
   -2.5989   -1.5002    0.0000 C   0  0  0  0  0  0  0  0  0  0  0  0
    3.5629    2.6494    0.0000 C   0  0  0  0  0  0  0  0  0  0  0  0
    1.6346    2.6491    0.0000 C   0  0  0  0  0  0  0  0  0  0  0  0
    6.4962    0.7508    0.0000 C   0  0  0  0  0  0  0  0  0  0  0  0
   -1.3000    0.7500    0.0000 C   0  0  0  0  0  0  0  0  0  0  0  0
   -0.0000   -1.5000    0.0000 C   0  0  0  0  0  0  0  0  0  0  0  0
    0.0000    1.5000    0.0000 C   0  0  0  0  0  0  0  0  0  0  0  0
    1.3000   -0.7500    0.0000 C   0  0  0  0  0  0  0  0  0  0  0  0
   -1.3000   -0.7500    0.0000 C   0  0  0  0  0  0  0  0  0  0  0  0
    1.3000    0.7500    0.0000 C   0  0  0  0  0  0  0  0  0  0  0  0
    5.1970    1.5006    0.0000 C   0  0  0  0  0  0  0  0  0  0  0  0
    2.5989    1.5002    0.0000 C   0  0  0  0  0  0  0  0  0  0  0  0
    5.1968    3.0006    0.0000 O   0  0  0  0  0  0  0  0  0  0  0  0
    3.8981    0.7504    0.0000 O   0  0  0  0  0  0  0  0  0  0  0  0
  5  1  1  0
  8  6  1  0
  9  7  1  0
 10  2  1  0
 10  6  2  0
 10  7  1  0
 11  8  1  0
 11  9  1  0
 12  5  1  0
 13  3  1  0
 13  4  1  0
 13 11  1  0
 14 12  2  0
 15 12  1  0
 15 13  1  0
M  END
>  <NAME>  (3678) 
ALPHA-TERPINYL PROPIONATE

>  <SYNONYMS>  (3678) 
ALPHA,ALPHA,4-TRIMETHYL-3-CYCLOHEXENEMETHYL PROPIONATE

>  <SPECTRUM TYPE>  (3678) 
MS1

>  <INSTRUMENT TYPE>  (3678) 
EI-B

>  <INSTRUMENT>  (3678) 
HITACHI M-80B

>  <ION MODE>  (3678) 
P

>  <INCHIKEY>  (3678) 
CMKQOKAXUWQAHG-UHFFFAOYSA-N

>  <FORMULA>  (3678) 
C13H22O2

>  <EXACT MASS>  (3678) 
210.161979944

>  <MW>  (3678) 
210

>  <ID>  (3678) 
JP006914

>  <CONTRIBUTOR>  (3678) 
University of Tokyo Team, {Faculty of Engineering, University of Tokyo

>  <COMMENT>  (3678) 
SMILES=CCC(=O)OC(C)(C)C(C1)CC=C(C)C1
InChI=InChI=1S/C13H22O2/c1-5-12(14)15-13(3,4)11-8-6-10(2)7-9-11/h6,11H,5,7-9H2,1-4H3
computed SMILES=O=C(OC(C)(C)C1CC=C(C)CC1)CC
accession=JP006914
date=2016.01.19 (Created 2008.10.21, modified 2011.05.06)
author=TAJIMA S, GUNMA COLLEGE OF TECHNOLOGY
license=CC BY-NC-SA
exact mass=210.16198
ionization energy=70 eV
ion type=[M]+*
computed spectral entropy=3.0120136548892336
computed normalized entropy=0.7959468066536893
SPLASH=splash10-059f-9500000000-efa383b242ac218473ab
submitter=submitter = University of Tokyo Team (Faculty of Engineering, University of Tokyo)
MoNA Rating=3.75

>  <NUM PEAKS>  (3678) 
44

>  <MASS SPECTRAL PEAKS>  (3678) 
27 8.75
29 25.56
31 1.35
39 7.03
40 1.54
41 20.98
42 1.61
43 13.29
51 1.52
53 7.92
55 7.7
56 1.06
57 76.51
58 2.54
59 3.78
65 2.11
66 1.09
67 11.08
68 8.6
69 9.83
71 1.05
77 9.03
78 1.91
79 12.65
80 7.55
81 22.69
82 1.54
91 8.19
92 15.7
93 70.06
94 9.66
95 11.14
105 3.58
107 11.87
108 6.04
115 1.78
121 99.99
122 9.71
123 2.36
136 77.13
137 18.71
138 1.36
139 3.47
195 1.33

$$$$

     RDKit          2D

 15 14  0  0  0  0  0  0  0  0999 V2000
    0.0000    0.0000    0.0000 C   0  0  0  0  0  0  0  0  0  0  0  0
  -10.3923    6.0000    0.0000 C   0  0  0  0  0  0  0  0  0  0  0  0
   -9.0933    8.2500    0.0000 C   0  0  0  0  0  0  0  0  0  0  0  0
   -3.8971    8.2500    0.0000 C   0  0  0  0  0  0  0  0  0  0  0  0
    0.0000    1.5000    0.0000 C   0  0  0  0  0  0  0  0  0  0  0  0
   -6.4952    6.7500    0.0000 C   0  0  0  0  0  0  0  0  0  0  0  0
   -7.7942    6.0000    0.0000 C   0  0  0  0  0  0  0  0  0  0  0  0
   -5.1962    6.0000    0.0000 C   0  0  0  0  0  0  0  0  0  0  0  0
   -2.5981    6.0000    0.0000 C   0  0  0  0  0  0  0  0  0  0  0  0
   -2.5981    4.5000    0.0000 C   0  0  0  0  0  0  0  0  0  0  0  0
   -9.0933    6.7500    0.0000 C   0  0  0  0  0  0  0  0  0  0  0  0
   -3.8971    6.7500    0.0000 C   0  0  0  0  0  0  0  0  0  0  0  0
   -1.2990    2.2500    0.0000 C   0  0  0  0  0  0  0  0  0  0  0  0
   -2.5981    1.5000    0.0000 O   0  0  0  0  0  0  0  0  0  0  0  0
   -1.2990    3.7500    0.0000 O   0  0  0  0  0  0  0  0  0  0  0  0
  5  1  1  0
  7  6  1  0
  8  6  1  0
 10  9  1  0
 11  2  1  0
 11  3  1  0
 11  7  2  0
 12  4  1  0
 12  8  1  0
  9 12  2  0
 13  5  1  0
 14 13  2  0
 15 10  1  0
 15 13  1  0
M  END
>  <NAME>  (3679) 
NERYL PROPIONATE

>  <SYNONYMS>  (3679) 
(Z)-3,7-DIMETHYL-2,6-OCTADIENYL PROPIONATE

>  <SPECTRUM TYPE>  (3679) 
MS1

>  <INSTRUMENT TYPE>  (3679) 
EI-B

>  <INSTRUMENT>  (3679) 
HITACHI M-80B

>  <ION MODE>  (3679) 
P

>  <INCHIKEY>  (3679) 
BYCHQEILESTMQU-XFXZXTDPSA-N

>  <FORMULA>  (3679) 
C13H22O2

>  <EXACT MASS>  (3679) 
210.161979944

>  <MW>  (3679) 
210

>  <ID>  (3679) 
JP006913

>  <CONTRIBUTOR>  (3679) 
University of Tokyo Team, {Faculty of Engineering, University of Tokyo

>  <COMMENT>  (3679) 
SMILES=CCC(=O)OCC([H])=C(C)CCC=C(C)C
InChI=InChI=1S/C13H22O2/c1-5-13(14)15-10-9-12(4)8-6-7-11(2)3/h7,9H,5-6,8,10H2,1-4H3/b12-9-
computed SMILES=O=C(OCC=C(C)CCC=C(C)C)CC
accession=JP006913
date=2016.01.19 (Created 2008.10.21, modified 2011.05.06)
author=TAJIMA S, GUNMA COLLEGE OF TECHNOLOGY
license=CC BY-NC-SA
exact mass=210.16198
ionization energy=70 eV
ion type=[M]+*
computed spectral entropy=2.935992112183875
computed normalized entropy=0.7855140801696414
SPLASH=splash10-014l-9100000000-2e0f1e77d40cf1eab2f5
submitter=submitter = University of Tokyo Team (Faculty of Engineering, University of Tokyo)
MoNA Rating=3.75

>  <NUM PEAKS>  (3679) 
42

>  <MASS SPECTRAL PEAKS>  (3679) 
27 8.86
29 23.9
39 8.88
40 2.61
41 51.54
42 3.12
43 4.11
51 1.17
53 9.52
55 4.61
57 50.23
58 1.28
65 1.73
66 1.06
67 12.65
68 49.18
69 99.99
70 5.6
77 2.88
79 4.91
80 22.78
81 10.57
82 1.28
83 1.25
84 4.9
85 3.29
91 3.01
92 9.64
93 45.23
94 7.42
95 2.75
97 1.15
105 1.54
107 5.68
108 1.4
109 1.02
121 18.49
122 1.75
123 1.91
136 18.12
137 3.45
154 2.06

$$$$

     RDKit          2D

 15 14  0  0  0  0  0  0  0  0999 V2000
    2.5981    4.5000    0.0000 C   0  0  0  0  0  0  0  0  0  0  0  0
   -2.1469    1.9414    0.0000 C   0  0  0  0  0  0  0  0  0  0  0  0
   -5.1962   10.5000    0.0000 C   0  0  0  0  0  0  0  0  0  0  0  0
   -6.4952    8.2500    0.0000 C   0  0  0  0  0  0  0  0  0  0  0  0
   -4.0753    4.7605    0.0000 C   0  0  0  0  0  0  0  0  0  0  0  0
    1.2990    3.7500    0.0000 C   0  0  0  0  0  0  0  0  0  0  0  0
   -3.1111    3.0905    0.0000 C   0  0  0  0  0  0  0  0  0  0  0  0
   -3.8971    6.7500    0.0000 C   0  0  0  0  0  0  0  0  0  0  0  0
   -3.8971    8.2500    0.0000 C   0  0  0  0  0  0  0  0  0  0  0  0
   -2.5981    6.0000    0.0000 C   0  0  0  0  0  0  0  0  0  0  0  0
   -5.1962    9.0000    0.0000 C   0  0  0  0  0  0  0  0  0  0  0  0
    0.0000    4.5000    0.0000 C   0  0  0  0  0  0  0  0  0  0  0  0
   -2.5981    4.5000    0.0000 C   0  0  0  0  0  0  0  0  0  0  0  0
    0.0000    6.0000    0.0000 O   0  0  0  0  0  0  0  0  0  0  0  0
   -1.2990    3.7500    0.0000 O   0  0  0  0  0  0  0  0  0  0  0  0
  6  1  1  0
  7  2  2  0
  9  8  1  0
 10  8  1  0
 11  3  1  0
 11  4  1  0
 11  9  2  0
 12  6  1  0
 13  5  1  0
 13  7  1  0
 13 10  1  0
 14 12  2  0
 15 12  1  0
 15 13  1  0
M  END
>  <NAME>  (3680) 
LINALYL PROPIONATE

>  <SYNONYMS>  (3680) 
3,7-DIMETHYL-1,6-OCTADIEN-3-YL PROPIONATE

>  <SPECTRUM TYPE>  (3680) 
MS1

>  <INSTRUMENT TYPE>  (3680) 
EI-B

>  <INSTRUMENT>  (3680) 
HITACHI M-80B

>  <ION MODE>  (3680) 
P

>  <INCHIKEY>  (3680) 
WAQIIHCCEMGYKP-UHFFFAOYSA-N

>  <FORMULA>  (3680) 
C13H22O2

>  <EXACT MASS>  (3680) 
210.161979944

>  <MW>  (3680) 
210

>  <ID>  (3680) 
JP006912

>  <CONTRIBUTOR>  (3680) 
University of Tokyo Team, {Faculty of Engineering, University of Tokyo

>  <COMMENT>  (3680) 
SMILES=CCC(=O)OC(C)(C=C)CCC=C(C)C
InChI=InChI=1S/C13H22O2/c1-6-12(14)15-13(5,7-2)10-8-9-11(3)4/h7,9H,2,6,8,10H2,1,3-5H3
computed SMILES=O=C(OC(C=C)(C)CCC=C(C)C)CC
accession=JP006912
date=2016.01.19 (Created 2008.10.21, modified 2011.05.06)
author=TAJIMA S, GUNMA COLLEGE OF TECHNOLOGY
license=CC BY-NC-SA
exact mass=210.16198
ionization energy=70 eV
ion type=[M]+*
computed spectral entropy=3.0378664900189953
computed normalized entropy=0.8127702018281172
SPLASH=splash10-0006-9100000000-fa9b80fbc07bb1017509
submitter=submitter = University of Tokyo Team (Faculty of Engineering, University of Tokyo)
MoNA Rating=3.75

>  <NUM PEAKS>  (3680) 
42

>  <MASS SPECTRAL PEAKS>  (3680) 
27 10.32
29 27
39 9.05
40 2.38
41 34.34
42 2.21
43 11.71
51 1.11
53 9.05
54 1.06
55 13.64
56 1.22
57 58.84
58 1.78
65 1.51
66 1.1
67 11.04
68 11.61
69 30.24
70 1.68
71 4.21
72 1.21
77 4.24
79 8.75
80 41.64
81 15.03
82 3.1
83 4.11
91 5.56
92 15.38
93 99.99
94 11.89
95 3.66
105 4.15
107 8.66
108 1.66
109 1.45
121 32.82
122 2.85
136 11.47
137 3.23
139 1.04

$$$$

     RDKit          2D

 15 14  0  0  0  0  0  0  0  0999 V2000
    3.5724    6.5625    0.0000 C   0  0  0  0  0  0  0  0  0  0  0  0
  -10.7171    7.3125    0.0000 C   0  0  0  0  0  0  0  0  0  0  0  0
   -9.4180    5.0625    0.0000 C   0  0  0  0  0  0  0  0  0  0  0  0
   -4.2219    5.0625    0.0000 C   0  0  0  0  0  0  0  0  0  0  0  0
    2.2733    7.3125    0.0000 C   0  0  0  0  0  0  0  0  0  0  0  0
   -6.8200    6.5625    0.0000 C   0  0  0  0  0  0  0  0  0  0  0  0
   -8.1190    7.3125    0.0000 C   0  0  0  0  0  0  0  0  0  0  0  0
   -5.5209    7.3125    0.0000 C   0  0  0  0  0  0  0  0  0  0  0  0
   -2.9228    7.3125    0.0000 C   0  0  0  0  0  0  0  0  0  0  0  0
   -1.6238    6.5625    0.0000 C   0  0  0  0  0  0  0  0  0  0  0  0
   -9.4180    6.5625    0.0000 C   0  0  0  0  0  0  0  0  0  0  0  0
   -4.2219    6.5625    0.0000 C   0  0  0  0  0  0  0  0  0  0  0  0
    0.9743    6.5625    0.0000 C   0  0  0  0  0  0  0  0  0  0  0  0
    0.9743    5.0625    0.0000 O   0  0  0  0  0  0  0  0  0  0  0  0
   -0.3248    7.3125    0.0000 O   0  0  0  0  0  0  0  0  0  0  0  0
  5  1  1  0
  7  6  1  0
  8  6  1  0
 10  9  1  0
 11  2  1  0
 11  3  1  0
 11  7  2  0
 12  4  1  0
 12  8  1  0
  9 12  2  0
 13  5  1  0
 14 13  2  0
 15 10  1  0
 15 13  1  0
M  END
>  <NAME>  (3681) 
GERANYL PROPIONATE

>  <SYNONYMS>  (3681) 
(E)-3,7-DIMETHYL-2,6-OCTADIENYL PROPIONATE

>  <SPECTRUM TYPE>  (3681) 
MS1

>  <INSTRUMENT TYPE>  (3681) 
EI-B

>  <INSTRUMENT>  (3681) 
HITACHI M-80B

>  <ION MODE>  (3681) 
P

>  <INCHIKEY>  (3681) 
BYCHQEILESTMQU-FMIVXFBMSA-N

>  <FORMULA>  (3681) 
C13H22O2

>  <EXACT MASS>  (3681) 
210.161979944

>  <MW>  (3681) 
210

>  <ID>  (3681) 
JP006911

>  <CONTRIBUTOR>  (3681) 
University of Tokyo Team, {Faculty of Engineering, University of Tokyo

>  <COMMENT>  (3681) 
SMILES=CCC(=O)OCC([H])=C(C)CCC=C(C)C
InChI=InChI=1S/C13H22O2/c1-5-13(14)15-10-9-12(4)8-6-7-11(2)3/h7,9H,5-6,8,10H2,1-4H3/b12-9+
computed SMILES=O=C(OCC=C(C)CCC=C(C)C)CC
accession=JP006911
date=2016.01.19 (Created 2008.10.21, modified 2011.05.06)
author=TAJIMA S, GUNMA COLLEGE OF TECHNOLOGY
license=CC BY-NC-SA
exact mass=210.16198
ionization energy=70 eV
ion type=[M]+*
computed spectral entropy=2.773829092142833
computed normalized entropy=0.7681783854542396
SPLASH=splash10-014i-9100000000-03915bc43c28d42c8c14
submitter=submitter = University of Tokyo Team (Faculty of Engineering, University of Tokyo)
MoNA Rating=3.75

>  <NUM PEAKS>  (3681) 
37

>  <MASS SPECTRAL PEAKS>  (3681) 
27 7.05
29 19.33
39 6.41
40 1.79
41 40.89
42 2.24
43 2.26
53 7.92
54 1.11
55 3.62
57 55.87
58 1.81
65 1.33
67 10.66
68 43.97
69 99.99
70 5.52
77 1.62
79 2.48
80 12.59
81 6.74
84 1.86
85 4.4
91 1.67
92 6.33
93 26.75
94 4.88
95 1.92
107 4.54
108 1.42
121 15.81
122 1.28
123 2.13
136 16.82
137 2.6
141 1.36
154 1.62

$$$$

     RDKit          2D

 15 16  0  0  1  0  0  0  0  0999 V2000
    8.9311    0.3321    0.0000 C   0  0  0  0  0  0  0  0  0  0  0  0
   -0.6759    1.4813    0.0000 C   0  0  0  0  0  0  0  0  0  0  0  0
   -0.6759   -2.3013    0.0000 C   0  0  0  0  0  0  0  0  0  0  0  0
    2.4475    2.5900    0.0000 C   0  0  0  0  0  0  0  0  0  0  0  0
    7.6332    1.0841    0.0000 C   0  0  0  0  0  0  0  0  0  0  0  0
    1.1450   -1.1600    0.0000 C   0  0  0  0  0  0  0  0  0  0  0  0
    1.1450    0.3400    0.0000 C   0  0  0  0  0  0  0  0  0  0  0  0
    3.7350   -1.1600    0.0000 C   0  0  0  0  0  0  0  0  0  0  0  0
    2.4450   -1.9100    0.0000 C   0  0  0  0  0  0  0  0  0  0  0  0
    3.7350    0.3400    0.0000 C   0  0  0  0  0  0  0  0  0  0  0  0
    6.3331    0.3361    0.0000 C   0  0  0  0  0  0  0  0  0  0  0  0
    1.5750   -0.4100    0.0000 C   0  0  0  0  0  0  0  0  0  0  0  0
    2.4450    1.0900    0.0000 C   0  0  0  0  0  0  0  0  0  0  0  0
    6.3308   -1.1639    0.0000 O   0  0  0  0  0  0  0  0  0  0  0  0
    5.0352    1.0880    0.0000 O   0  0  0  0  0  0  0  0  0  0  0  0
  5  1  1  0
  7  6  1  0
  9  6  1  6
  9  8  1  0
 10  8  1  0
 11  5  1  0
 12  2  1  0
 12  3  1  0
 12  9  1  0
 13  4  1  1
 13  7  1  0
 13 10  1  0
 13 12  1  0
 14 11  2  0
 15 10  1  0
 15 11  1  0
M  END
>  <NAME>  (3682) 
ISOBORNYL PROPIONATE

>  <SYNONYMS>  (3682) 
EXO-1,7,7-TRIMETHYLBICYCLO(2.2.1)HEPT-2-YLPROPIONATE

>  <SPECTRUM TYPE>  (3682) 
MS1

>  <INSTRUMENT TYPE>  (3682) 
EI-B

>  <INSTRUMENT>  (3682) 
HITACHI M-80B

>  <ION MODE>  (3682) 
P

>  <INCHIKEY>  (3682) 
FAFMZORPAAGQFV-BOURZNODSA-N

>  <FORMULA>  (3682) 
C13H22O2

>  <EXACT MASS>  (3682) 
210.161979944

>  <MW>  (3682) 
210

>  <ID>  (3682) 
JP006910

>  <CONTRIBUTOR>  (3682) 
University of Tokyo Team, {Faculty of Engineering, University of Tokyo

>  <COMMENT>  (3682) 
SMILES=CCC(=O)OC(C1)C(C)(C2)C(C)(C)C(C2)1
InChI=InChI=1S/C13H22O2/c1-5-11(14)15-10-8-9-6-7-13(10,4)12(9,2)3/h9-10H,5-8H2,1-4H3/t9-,10?,13+/m0/s1
computed SMILES=O=C(OC1CC2CCC1(C)C2(C)C)CC
accession=JP006910
date=2016.01.19 (Created 2008.10.21, modified 2011.05.06)
author=TAJIMA S, GUNMA COLLEGE OF TECHNOLOGY
license=CC BY-NC-SA
exact mass=210.16198
ionization energy=70 eV
ion type=[M]+*
computed spectral entropy=3.306958217895406
computed normalized entropy=0.8215327434635796
SPLASH=splash10-0a4j-9400000000-598c79dacceaa267432b
submitter=submitter = University of Tokyo Team (Faculty of Engineering, University of Tokyo)
MoNA Rating=3.75

>  <NUM PEAKS>  (3682) 
56

>  <MASS SPECTRAL PEAKS>  (3682) 
27 11.47
28 1.07
29 40.06
39 8.11
40 1.46
41 29.64
42 1.88
43 13.92
51 1.43
53 8.49
54 1.28
55 18.34
56 1.84
57 94.97
58 2.82
65 2.28
66 1.28
67 14.04
68 5.32
69 19.3
70 1.59
71 3.18
72 3.4
77 6.72
78 1.19
79 10.14
80 8.9
81 13.89
82 11.75
83 8.27
84 2.79
91 6.09
92 11.89
93 43.32
94 7.54
95 99.99
96 8.16
97 2.52
105 2.29
107 10.21
108 34.68
109 26.78
110 23.07
111 6.82
121 47.58
122 4.03
123 1.97
135 2.56
136 76.23
137 15.5
138 1.28
139 3.34
153 1.89
154 13.23
155 1.44
210 1.92

$$$$

     RDKit          2D

 15 16  0  0  0  0  0  0  0  0999 V2000
    8.9311    0.3321    0.0000 C   0  0  0  0  0  0  0  0  0  0  0  0
   -0.6759    1.4813    0.0000 C   0  0  0  0  0  0  0  0  0  0  0  0
   -0.6759   -2.3013    0.0000 C   0  0  0  0  0  0  0  0  0  0  0  0
    2.4475    2.5900    0.0000 C   0  0  0  0  0  0  0  0  0  0  0  0
    7.6332    1.0841    0.0000 C   0  0  0  0  0  0  0  0  0  0  0  0
    1.1450   -1.1600    0.0000 C   0  0  0  0  0  0  0  0  0  0  0  0
    1.1450    0.3400    0.0000 C   0  0  0  0  0  0  0  0  0  0  0  0
    3.7350   -1.1600    0.0000 C   0  0  0  0  0  0  0  0  0  0  0  0
    2.4450   -1.9100    0.0000 C   0  0  0  0  0  0  0  0  0  0  0  0
    3.7350    0.3400    0.0000 C   0  0  0  0  0  0  0  0  0  0  0  0
    6.3331    0.3361    0.0000 C   0  0  0  0  0  0  0  0  0  0  0  0
    1.5750   -0.4100    0.0000 C   0  0  0  0  0  0  0  0  0  0  0  0
    2.4450    1.0900    0.0000 C   0  0  0  0  0  0  0  0  0  0  0  0
    6.3308   -1.1639    0.0000 O   0  0  0  0  0  0  0  0  0  0  0  0
    5.0352    1.0880    0.0000 O   0  0  0  0  0  0  0  0  0  0  0  0
  5  1  1  0
  7  6  1  0
  9  6  1  0
  9  8  1  0
 10  8  1  0
 11  5  1  0
 12  2  1  0
 12  3  1  0
 12  9  1  0
 13  4  1  0
 13  7  1  0
 13 10  1  0
 13 12  1  0
 14 11  2  0
 15 10  1  0
 15 11  1  0
M  END
>  <NAME>  (3683) 
BORNYL PROPIONATE

>  <SYNONYMS>  (3683) 
ENDO-1,7,7-TRIMETHYLBICYCLO(2.2.1)HEPT-2-YL PROPIONATE

>  <SPECTRUM TYPE>  (3683) 
MS1

>  <INSTRUMENT TYPE>  (3683) 
EI-B

>  <INSTRUMENT>  (3683) 
HITACHI M-80B

>  <ION MODE>  (3683) 
P

>  <INCHIKEY>  (3683) 
FAFMZORPAAGQFV-UHFFFAOYSA-N

>  <FORMULA>  (3683) 
C13H22O2

>  <EXACT MASS>  (3683) 
210.161979944

>  <MW>  (3683) 
210

>  <ID>  (3683) 
JP006909

>  <CONTRIBUTOR>  (3683) 
University of Tokyo Team, {Faculty of Engineering, University of Tokyo

>  <COMMENT>  (3683) 
SMILES=CCC(=O)OC(C1)C(C)(C2)C(C)(C)C(C2)1
InChI=InChI=1S/C13H22O2/c1-5-11(14)15-10-8-9-6-7-13(10,4)12(9,2)3/h9-10H,5-8H2,1-4H3
computed SMILES=O=C(OC1CC2CCC1(C)C2(C)C)CC
accession=JP006909
date=2016.01.19 (Created 2008.10.21, modified 2011.05.06)
author=TAJIMA S, GUNMA COLLEGE OF TECHNOLOGY
license=CC BY-NC-SA
exact mass=210.16198
ionization energy=70 eV
ion type=[M]+*
computed spectral entropy=3.303888580817957
computed normalized entropy=0.8282531447233056
SPLASH=splash10-0a4m-9300000000-89def25b097fd073ece5
submitter=submitter = University of Tokyo Team (Faculty of Engineering, University of Tokyo)
MoNA Rating=3.75

>  <NUM PEAKS>  (3683) 
54

>  <MASS SPECTRAL PEAKS>  (3683) 
27 10.99
29 39.12
39 7.06
40 1.29
41 28.5
42 2.02
43 12.11
51 1.17
53 7.85
54 1.11
55 16.27
56 1.67
57 88.5
58 2.75
65 2.16
67 11.86
68 5.22
69 19.07
70 1.69
71 2.6
72 2.02
77 6.19
78 1.17
79 8.76
80 17.65
81 14.2
82 7.06
83 6.41
84 2.72
91 5.95
92 14.41
93 50.37
94 8.35
95 99.99
96 8.93
97 2.15
105 1.99
107 8.83
108 26.36
109 28.76
110 15.15
111 6.04
121 40.66
122 3.68
123 1.87
125 1.19
135 2.43
136 51.91
137 9.5
153 1.7
154 10.76
155 1.24
210 11.41
211 1.62

$$$$

     RDKit          2D

 15 15  0  0  0  0  0  0  0  0999 V2000
   -4.1878   -0.5805    0.0000 C   0  0  0  0  0  0  0  0  0  0  0  0
    4.9060   -2.8305    0.0000 C   0  0  0  0  0  0  0  0  0  0  0  0
    6.2050   -0.5805    0.0000 C   0  0  0  0  0  0  0  0  0  0  0  0
   -0.2902    1.6695    0.0000 C   0  0  0  0  0  0  0  0  0  0  0  0
   -2.8889   -1.3307    0.0000 C   0  0  0  0  0  0  0  0  0  0  0  0
    2.3084    1.6703    0.0000 C   0  0  0  0  0  0  0  0  0  0  0  0
    3.6074    0.9203    0.0000 C   0  0  0  0  0  0  0  0  0  0  0  0
    2.3074   -1.3314    0.0000 C   0  0  0  0  0  0  0  0  0  0  0  0
    4.9060   -1.3305    0.0000 C   0  0  0  0  0  0  0  0  0  0  0  0
    1.0089    0.9195    0.0000 C   0  0  0  0  0  0  0  0  0  0  0  0
    3.6069   -0.5805    0.0000 C   0  0  0  0  0  0  0  0  0  0  0  0
    1.0084   -0.5814    0.0000 C   0  0  0  0  0  0  0  0  0  0  0  0
   -1.5897   -0.5809    0.0000 C   0  0  0  0  0  0  0  0  0  0  0  0
   -1.5895    0.9191    0.0000 O   0  0  0  0  0  0  0  0  0  0  0  0
   -0.2908   -1.3311    0.0000 O   0  0  0  0  0  0  0  0  0  0  0  0
  5  1  1  0
  7  6  1  0
  9  2  2  0
  9  3  1  0
 10  4  1  0
 10  6  2  0
 11  7  1  0
 11  8  1  0
 11  9  1  0
 12  8  1  0
 12 10  1  0
 13  5  1  0
 14 13  2  0
 15 12  1  0
 15 13  1  0
M  END
>  <NAME>  (3684) 
CARVYL PROPIONATE

>  <SYNONYMS>  (3684) 
2-METHYL-5-(1-METHYLETHENYL)-2-CYCLOHEXENYL PROPIONATE

>  <SPECTRUM TYPE>  (3684) 
MS1

>  <INSTRUMENT TYPE>  (3684) 
EI-B

>  <INSTRUMENT>  (3684) 
HITACHI M-80B

>  <ION MODE>  (3684) 
P

>  <INCHIKEY>  (3684) 
DFVXNZOMAOGTBL-UHFFFAOYSA-N

>  <FORMULA>  (3684) 
C13H20O2

>  <EXACT MASS>  (3684) 
208.14632988

>  <MW>  (3684) 
208

>  <ID>  (3684) 
JP006908

>  <CONTRIBUTOR>  (3684) 
University of Tokyo Team, {Faculty of Engineering, University of Tokyo

>  <COMMENT>  (3684) 
SMILES=CCC(=O)OC(C1)C(C)=CCC(C(C)=C)1
InChI=InChI=1S/C13H20O2/c1-5-13(14)15-12-8-11(9(2)3)7-6-10(12)4/h6,11-12H,2,5,7-8H2,1,3-4H3
computed SMILES=O=C(OC1C(=CCC(C(=C)C)C1)C)CC
accession=JP006908
date=2016.01.19 (Created 2008.10.21, modified 2011.05.06)
author=TAJIMA S, GUNMA COLLEGE OF TECHNOLOGY
license=CC BY-NC-SA
exact mass=208.14633
ionization energy=70 eV
ion type=[M]+*
computed spectral entropy=3.420562866789794
computed normalized entropy=0.8287985191818323
SPLASH=splash10-0a6u-9400000000-79a6d0ea4ebd40345e30
submitter=submitter = University of Tokyo Team (Faculty of Engineering, University of Tokyo)
MoNA Rating=3.75

>  <NUM PEAKS>  (3684) 
62

>  <MASS SPECTRAL PEAKS>  (3684) 
26 1.34
27 20.37
28 1.54
29 54.35
30 1.17
39 18.08
40 2.46
41 28.31
42 1.89
43 8.31
51 3.9
52 2.4
53 10.91
54 2.5
55 17.56
56 1.81
57 99.99
58 3.03
63 1.2
65 5.8
66 2.47
67 5.92
68 3.6
69 2.58
77 17.39
78 4.35
79 14.42
80 5.75
81 5.85
82 3.78
83 3.21
84 19.62
85 1.17
91 30.12
92 21.41
93 25.95
94 3.88
95 2.87
96 3.53
97 2.12
103 1.76
104 1.22
105 16.19
106 6.92
107 12.9
108 6.48
109 46.91
110 3.9
115 1.52
117 2.32
119 52.68
120 5.28
123 2.07
124 1.25
133 2.61
134 17.96
135 3.53
137 3.01
140 1.42
152 39.84
153 3.74
165 4.72

$$$$

     RDKit          2D

 10  9  0  0  0  0  0  0  0  0999 V2000
    2.5981    4.5000    0.0000 C   0  0  0  0  0  0  0  0  0  0  0  0
   -7.7942    4.5000    0.0000 C   0  0  0  0  0  0  0  0  0  0  0  0
    1.2990    5.2500    0.0000 C   0  0  0  0  0  0  0  0  0  0  0  0
   -6.4952    5.2500    0.0000 C   0  0  0  0  0  0  0  0  0  0  0  0
   -2.5981    4.5000    0.0000 C   0  0  0  0  0  0  0  0  0  0  0  0
   -1.2990    5.2500    0.0000 C   0  0  0  0  0  0  0  0  0  0  0  0
   -3.8971    5.2500    0.0000 C   0  0  0  0  0  0  0  0  0  0  0  0
   -3.8971    6.7500    0.0000 O   0  0  0  0  0  0  0  0  0  0  0  0
    0.0000    4.5000    0.0000 O   0  0  0  0  0  0  0  0  0  0  0  0
   -5.1962    4.5000    0.0000 O   0  0  0  0  0  0  0  0  0  0  0  0
  3  1  1  0
  4  2  1  0
  6  5  1  0
  7  5  1  0
  8  7  2  0
  9  3  1  0
  9  6  1  0
 10  4  1  0
 10  7  1  0
M  END
>  <NAME>  (3685) 
ETHYL 3-ETHOXYPROPIONATE

>  <SYNONYMS>  (3685) 


>  <SPECTRUM TYPE>  (3685) 
MS1

>  <INSTRUMENT TYPE>  (3685) 
EI-B

>  <INSTRUMENT>  (3685) 
HITACHI M-80B

>  <ION MODE>  (3685) 
P

>  <INCHIKEY>  (3685) 
BHXIWUJLHYHGSJ-UHFFFAOYSA-N

>  <FORMULA>  (3685) 
C7H14O3

>  <EXACT MASS>  (3685) 
146.094294308

>  <MW>  (3685) 
146

>  <ID>  (3685) 
JP006907

>  <CONTRIBUTOR>  (3685) 
University of Tokyo Team, {Faculty of Engineering, University of Tokyo

>  <COMMENT>  (3685) 
SMILES=CCOCCC(=O)OCC
InChI=InChI=1S/C7H14O3/c1-3-9-6-5-7(8)10-4-2/h3-6H2,1-2H3
computed SMILES=O=C(OCC)CCOCC
accession=JP006907
date=2016.01.19 (Created 2008.10.21, modified 2011.05.06)
author=TAJIMA S, GUNMA COLLEGE OF TECHNOLOGY
license=CC BY-NC-SA
exact mass=146.09429
ionization energy=70 eV
ion type=[M]+*
computed spectral entropy=2.977758192766778
computed normalized entropy=0.8516378530346629
SPLASH=splash10-0ke9-9100000000-0b838143d4cd497ae86b
submitter=submitter = University of Tokyo Team (Faculty of Engineering, University of Tokyo)
MoNA Rating=3.75

>  <NUM PEAKS>  (3685) 
33

>  <MASS SPECTRAL PEAKS>  (3685) 
15 4.91
19 1.98
26 6.48
27 41.55
28 17.73
29 84.1
30 4.17
31 63.72
41 3.56
42 11.08
43 36.27
44 12.44
45 34.83
47 3.61
55 10.67
56 4.22
57 6.2
58 1.6
59 99.99
60 9.99
61 2.23
71 56.66
72 18.37
73 24.4
74 20.31
75 10.6
89 19.27
100 1.09
101 39.69
102 31.02
103 2.6
117 39.07
118 2.28

$$$$

     RDKit          2D

 13 12  0  0  0  0  0  0  0  0999 V2000
    3.8971    6.0000    0.0000 C   0  0  0  0  0  0  0  0  0  0  0  0
  -10.3923    6.7500    0.0000 C   0  0  0  0  0  0  0  0  0  0  0  0
    2.5981    6.7500    0.0000 C   0  0  0  0  0  0  0  0  0  0  0  0
   -9.0933    6.0000    0.0000 C   0  0  0  0  0  0  0  0  0  0  0  0
    1.2990    6.0000    0.0000 C   0  0  0  0  0  0  0  0  0  0  0  0
    0.0000    6.7500    0.0000 C   0  0  0  0  0  0  0  0  0  0  0  0
   -1.2990    6.0000    0.0000 C   0  0  0  0  0  0  0  0  0  0  0  0
   -2.5981    6.7500    0.0000 C   0  0  0  0  0  0  0  0  0  0  0  0
   -3.8971    6.0000    0.0000 C   0  0  0  0  0  0  0  0  0  0  0  0
   -5.1962    6.7500    0.0000 C   0  0  0  0  0  0  0  0  0  0  0  0
   -7.7942    6.7500    0.0000 C   0  0  0  0  0  0  0  0  0  0  0  0
   -7.7942    8.2500    0.0000 O   0  0  0  0  0  0  0  0  0  0  0  0
   -6.4952    6.0000    0.0000 O   0  0  0  0  0  0  0  0  0  0  0  0
  3  1  1  0
  4  2  1  0
  5  3  1  0
  6  5  1  0
  7  6  1  0
  8  7  1  0
  9  8  1  0
 10  9  1  0
 11  4  1  0
 12 11  2  0
 13 10  1  0
 13 11  1  0
M  END
>  <NAME>  (3686) 
OCTYL PROPIONATE

>  <SYNONYMS>  (3686) 


>  <SPECTRUM TYPE>  (3686) 
MS1

>  <INSTRUMENT TYPE>  (3686) 
EI-B

>  <INSTRUMENT>  (3686) 
HITACHI M-80B

>  <ION MODE>  (3686) 
P

>  <INCHIKEY>  (3686) 
CEQGYPPMTKWBIU-UHFFFAOYSA-N

>  <FORMULA>  (3686) 
C11H22O2

>  <EXACT MASS>  (3686) 
186.161979944

>  <MW>  (3686) 
186

>  <ID>  (3686) 
JP006906

>  <CONTRIBUTOR>  (3686) 
University of Tokyo Team, {Faculty of Engineering, University of Tokyo

>  <COMMENT>  (3686) 
SMILES=CCCCCCCCOC(=O)CC
InChI=InChI=1S/C11H22O2/c1-3-5-6-7-8-9-10-13-11(12)4-2/h3-10H2,1-2H3
computed SMILES=O=C(OCCCCCCCC)CC
accession=JP006906
date=2016.01.19 (Created 2008.10.21, modified 2011.05.06)
author=TAJIMA S, GUNMA COLLEGE OF TECHNOLOGY
license=CC BY-NC-SA
exact mass=186.16198
ionization energy=70 eV
ion type=[M]+*
computed spectral entropy=2.882195039592578
computed normalized entropy=0.8042918396949553
SPLASH=splash10-0a6r-9000000000-85a6c9399d2a9ba7b4c4
submitter=submitter = University of Tokyo Team (Faculty of Engineering, University of Tokyo)
MoNA Rating=3.75

>  <NUM PEAKS>  (3686) 
36

>  <MASS SPECTRAL PEAKS>  (3686) 
26 1.5
27 20.72
28 6.76
29 58.78
30 1.18
31 2.56
39 8.01
40 1.54
41 33.75
42 20.03
43 31.17
44 1.45
53 2.01
54 2.57
55 27.06
56 33.17
57 99.99
58 2.77
67 2.01
68 4.81
69 20.7
70 33.76
71 10.62
72 1.66
74 1.82
75 43.05
76 1.15
82 3.62
83 18.94
84 20.64
85 1.58
87 2.81
97 1.65
112 11.78
113 1.02
130 1.04

$$$$

     RDKit          2D

 12 11  0  0  0  0  0  0  0  0999 V2000
   -9.7428    5.6250    0.0000 C   0  0  0  0  0  0  0  0  0  0  0  0
    3.2476    5.6250    0.0000 C   0  0  0  0  0  0  0  0  0  0  0  0
   -8.4437    4.8750    0.0000 C   0  0  0  0  0  0  0  0  0  0  0  0
    1.9486    4.8750    0.0000 C   0  0  0  0  0  0  0  0  0  0  0  0
   -7.1447    5.6250    0.0000 C   0  0  0  0  0  0  0  0  0  0  0  0
   -5.8457    4.8750    0.0000 C   0  0  0  0  0  0  0  0  0  0  0  0
   -4.5466    5.6250    0.0000 C   0  0  0  0  0  0  0  0  0  0  0  0
   -3.2476    4.8750    0.0000 C   0  0  0  0  0  0  0  0  0  0  0  0
   -1.9486    5.6250    0.0000 C   0  0  0  0  0  0  0  0  0  0  0  0
    0.6495    5.6250    0.0000 C   0  0  0  0  0  0  0  0  0  0  0  0
    0.6495    7.1250    0.0000 O   0  0  0  0  0  0  0  0  0  0  0  0
   -0.6495    4.8750    0.0000 O   0  0  0  0  0  0  0  0  0  0  0  0
  3  1  1  0
  4  2  1  0
  5  3  1  0
  6  5  1  0
  7  6  1  0
  8  7  1  0
  9  8  1  0
 10  4  1  0
 11 10  2  0
 12  9  1  0
 12 10  1  0
M  END
>  <NAME>  (3687) 
HEPTYL PROPIONATE

>  <SYNONYMS>  (3687) 


>  <SPECTRUM TYPE>  (3687) 
MS1

>  <INSTRUMENT TYPE>  (3687) 
EI-B

>  <INSTRUMENT>  (3687) 
HITACHI M-80B

>  <ION MODE>  (3687) 
P

>  <INCHIKEY>  (3687) 
BGYICJVBGZQOCY-UHFFFAOYSA-N

>  <FORMULA>  (3687) 
C10H20O2

>  <EXACT MASS>  (3687) 
172.14632988

>  <MW>  (3687) 
172

>  <ID>  (3687) 
JP006905

>  <CONTRIBUTOR>  (3687) 
University of Tokyo Team, {Faculty of Engineering, University of Tokyo

>  <COMMENT>  (3687) 
SMILES=CCCCCCCOC(=O)CC
InChI=InChI=1S/C10H20O2/c1-3-5-6-7-8-9-12-10(11)4-2/h3-9H2,1-2H3
computed SMILES=O=C(OCCCCCCC)CC
computed spectral entropy=2.6838526944360166
computed normalized entropy=0.7890905446729544
accession=JP006905
date=2016.01.19 (Created 2008.10.21, modified 2011.05.06)
author=TAJIMA S, GUNMA COLLEGE OF TECHNOLOGY
license=CC BY-NC-SA
exact mass=172.14633
ionization energy=70 eV
ion type=[M]+*
SPLASH=splash10-0a6r-9000000000-e153617a8287cd2b0284
submitter=submitter = University of Tokyo Team (Faculty of Engineering, University of Tokyo)
MoNA Rating=3.75

>  <NUM PEAKS>  (3687) 
30

>  <MASS SPECTRAL PEAKS>  (3687) 
26 1.49
27 22.86
28 8.09
29 57.9
30 1.16
31 2.29
39 8.5
40 1.59
41 31.26
42 16.13
43 21.93
53 1.54
54 2.8
55 24.5
56 42.49
57 99.99
58 2.87
68 3.55
69 18.12
70 33.29
71 1.71
72 1.38
74 1.69
75 42.26
76 1.09
83 2.93
87 3.1
97 2.06
98 18.01
99 1.02

$$$$

     RDKit          2D

 12 12  0  0  0  0  0  0  0  0999 V2000
    4.8787   -2.0594    0.0000 C   0  0  0  0  0  0  0  0  0  0  0  0
   -1.6200    0.1898    0.0000 C   0  0  0  0  0  0  0  0  0  0  0  0
    6.1662    1.6906    0.0000 C   0  0  0  0  0  0  0  0  0  0  0  0
    4.8762    2.4406    0.0000 C   0  0  0  0  0  0  0  0  0  0  0  0
    6.1662    0.1906    0.0000 C   0  0  0  0  0  0  0  0  0  0  0  0
    3.5762    1.6906    0.0000 C   0  0  0  0  0  0  0  0  0  0  0  0
    2.2772   -0.5596    0.0000 C   0  0  0  0  0  0  0  0  0  0  0  0
    4.8762   -0.5594    0.0000 C   0  0  0  0  0  0  0  0  0  0  0  0
   -0.3208   -0.5600    0.0000 C   0  0  0  0  0  0  0  0  0  0  0  0
    3.5762    0.1906    0.0000 C   0  0  0  0  0  0  0  0  0  0  0  0
   -0.3206   -2.0600    0.0000 O   0  0  0  0  0  0  0  0  0  0  0  0
    0.9781    0.1902    0.0000 O   0  0  0  0  0  0  0  0  0  0  0  0
  4  3  2  0
  5  3  1  0
  6  4  1  0
  8  1  1  0
  8  5  2  0
  9  2  1  0
 10  6  2  0
 10  7  1  0
 10  8  1  0
 11  9  2  0
 12  7  1  0
 12  9  1  0
M  END
>  <NAME>  (3688) 
O-METHYLBENZYL ACETATE

>  <SYNONYMS>  (3688) 
1-ACETOXYMETHYL-2-METHYLBENZENE

>  <SPECTRUM TYPE>  (3688) 
MS1

>  <INSTRUMENT TYPE>  (3688) 
EI-B

>  <INSTRUMENT>  (3688) 
HITACHI M-80B

>  <ION MODE>  (3688) 
P

>  <INCHIKEY>  (3688) 
BKKDUUVBVHYZFA-UHFFFAOYSA-N

>  <FORMULA>  (3688) 
C10H12O2

>  <EXACT MASS>  (3688) 
164.083729624

>  <MW>  (3688) 
164

>  <ID>  (3688) 
JP006904

>  <CONTRIBUTOR>  (3688) 
University of Tokyo Team, {Faculty of Engineering, University of Tokyo

>  <COMMENT>  (3688) 
SMILES=CC(=O)OCc(c1)c(C)ccc1
InChI=InChI=1S/C10H12O2/c1-8-5-3-4-6-10(8)7-12-9(2)11/h3-6H,7H2,1-2H3
computed SMILES=O=C(OCC=1C=CC=CC1C)C
accession=JP006904
date=2016.01.19 (Created 2008.10.21, modified 2011.05.06)
author=TAJIMA S, GUNMA COLLEGE OF TECHNOLOGY
license=CC BY-NC-SA
exact mass=164.08373
ionization energy=70 eV
ion type=[M]+*
computed spectral entropy=2.347315029192708
computed normalized entropy=0.7204559477596519
SPLASH=splash10-0udi-5900000000-78ff90a7a4c5e2dccf1e
submitter=submitter = University of Tokyo Team (Faculty of Engineering, University of Tokyo)
MoNA Rating=3.75

>  <NUM PEAKS>  (3688) 
26

>  <MASS SPECTRAL PEAKS>  (3688) 
15 2.95
27 2.01
39 5.71
41 1.13
43 20.57
50 1.5
51 4.77
52 1.35
53 1.3
63 3.12
65 5.95
77 12.11
78 11.37
79 6.52
89 1.78
91 8.6
93 3.79
102 1.1
103 11.23
104 99.99
105 28.87
106 2.48
107 7.11
119 1.54
121 1.11
122 4.06

$$$$

     RDKit          2D

 12 12  0  0  0  0  0  0  0  0999 V2000
   -2.9271   -0.9465    0.0000 C   0  0  0  0  0  0  0  0  0  0  0  0
    6.1679   -1.6943    0.0000 C   0  0  0  0  0  0  0  0  0  0  0  0
   -0.3233   -3.9365    0.0000 C   0  0  0  0  0  0  0  0  0  0  0  0
   -1.6223   -3.1865    0.0000 C   0  0  0  0  0  0  0  0  0  0  0  0
    0.9713   -3.1943    0.0000 C   0  0  0  0  0  0  0  0  0  0  0  0
   -0.3273   -0.9434    0.0000 C   0  0  0  0  0  0  0  0  0  0  0  0
    2.2709   -0.9437    0.0000 C   0  0  0  0  0  0  0  0  0  0  0  0
   -1.6268   -1.6943    0.0000 C   0  0  0  0  0  0  0  0  0  0  0  0
    4.8690   -0.9441    0.0000 C   0  0  0  0  0  0  0  0  0  0  0  0
    0.9717   -1.6934    0.0000 C   0  0  0  0  0  0  0  0  0  0  0  0
    4.8692    0.5559    0.0000 O   0  0  0  0  0  0  0  0  0  0  0  0
    3.5698   -1.6939    0.0000 O   0  0  0  0  0  0  0  0  0  0  0  0
  4  3  2  0
  5  3  1  0
  8  1  1  0
  8  4  1  0
  8  6  2  0
  9  2  1  0
 10  5  2  0
 10  6  1  0
 10  7  1  0
 11  9  2  0
 12  7  1  0
 12  9  1  0
M  END
>  <NAME>  (3689) 
M-METHYLBENZYL ACETATE

>  <SYNONYMS>  (3689) 
1-ACETOXYMETHYL-3-METHYLBENZENE

>  <SPECTRUM TYPE>  (3689) 
MS1

>  <INSTRUMENT TYPE>  (3689) 
EI-B

>  <INSTRUMENT>  (3689) 
HITACHI M-80B

>  <ION MODE>  (3689) 
P

>  <INCHIKEY>  (3689) 
QPTQLFCBVFKFLY-UHFFFAOYSA-N

>  <FORMULA>  (3689) 
C10H12O2

>  <EXACT MASS>  (3689) 
164.083729624

>  <MW>  (3689) 
164

>  <ID>  (3689) 
JP006903

>  <CONTRIBUTOR>  (3689) 
University of Tokyo Team, {Faculty of Engineering, University of Tokyo

>  <COMMENT>  (3689) 
SMILES=CC(=O)OCc(c1)cc(C)cc1
InChI=InChI=1S/C10H12O2/c1-8-4-3-5-10(6-8)7-12-9(2)11/h3-6H,7H2,1-2H3
computed SMILES=O=C(OCC=1C=CC=C(C1)C)C
accession=JP006903
date=2016.01.19 (Created 2008.10.21, modified 2011.05.06)
author=TAJIMA S, GUNMA COLLEGE OF TECHNOLOGY
license=CC BY-NC-SA
exact mass=164.08373
ionization energy=70 eV
ion type=[M]+*
computed spectral entropy=3.129484861760336
computed normalized entropy=0.8173878244721763
SPLASH=splash10-0ki6-9800000000-94cc9f0400be635d6dec
submitter=submitter = University of Tokyo Team (Faculty of Engineering, University of Tokyo)
MoNA Rating=3.75

>  <NUM PEAKS>  (3689) 
46

>  <MASS SPECTRAL PEAKS>  (3689) 
14 2.61
15 9.58
27 7.55
29 2.56
38 2.65
39 20.35
40 1.64
41 4.23
42 3.1
43 75.47
44 2.01
50 5.04
51 12.96
52 4.3
53 4.23
62 2.85
63 9.96
64 3.1
65 18.24
66 1.49
74 1.29
75 1.12
76 1.79
77 36.65
78 30.87
79 18.64
89 5.21
90 2.67
91 28.89
92 2.97
93 23.67
94 1.65
102 2.22
103 24.31
104 33.54
105 65.97
106 5.25
107 36.94
108 2.68
119 5.17
120 1.32
121 7.52
122 99.99
123 7.86
164 33.06
165 3.3

$$$$

     RDKit          2D

 12 12  0  0  0  0  0  0  0  0999 V2000
   -2.5989   -1.5002    0.0000 C   0  0  0  0  0  0  0  0  0  0  0  0
    6.4962    0.7508    0.0000 C   0  0  0  0  0  0  0  0  0  0  0  0
   -1.3000    0.7500    0.0000 C   0  0  0  0  0  0  0  0  0  0  0  0
   -0.0000   -1.5000    0.0000 C   0  0  0  0  0  0  0  0  0  0  0  0
    0.0000    1.5000    0.0000 C   0  0  0  0  0  0  0  0  0  0  0  0
    1.3000   -0.7500    0.0000 C   0  0  0  0  0  0  0  0  0  0  0  0
    2.5989    1.5002    0.0000 C   0  0  0  0  0  0  0  0  0  0  0  0
   -1.3000   -0.7500    0.0000 C   0  0  0  0  0  0  0  0  0  0  0  0
    5.1970    1.5006    0.0000 C   0  0  0  0  0  0  0  0  0  0  0  0
    1.3000    0.7500    0.0000 C   0  0  0  0  0  0  0  0  0  0  0  0
    5.1968    3.0006    0.0000 O   0  0  0  0  0  0  0  0  0  0  0  0
    3.8981    0.7504    0.0000 O   0  0  0  0  0  0  0  0  0  0  0  0
  5  3  2  0
  6  4  1  0
  8  1  1  0
  8  3  1  0
  8  4  2  0
  9  2  1  0
 10  5  1  0
 10  6  2  0
 10  7  1  0
 11  9  2  0
 12  7  1  0
 12  9  1  0
M  END
>  <NAME>  (3690) 
P-METHYLBENZYL ACETATE

>  <SYNONYMS>  (3690) 
1-ACETOXYMETHYL-4-METHYLBENZENE

>  <SPECTRUM TYPE>  (3690) 
MS1

>  <INSTRUMENT TYPE>  (3690) 
EI-B

>  <INSTRUMENT>  (3690) 
HITACHI M-80B

>  <ION MODE>  (3690) 
P

>  <INCHIKEY>  (3690) 
WDCUPFMSLUIQBH-UHFFFAOYSA-N

>  <FORMULA>  (3690) 
C10H12O2

>  <EXACT MASS>  (3690) 
164.083729624

>  <MW>  (3690) 
164

>  <ID>  (3690) 
JP006902

>  <CONTRIBUTOR>  (3690) 
University of Tokyo Team, {Faculty of Engineering, University of Tokyo

>  <COMMENT>  (3690) 
SMILES=CC(=O)OCc(c1)ccc(C)c1
InChI=InChI=1S/C10H12O2/c1-8-3-5-10(6-4-8)7-12-9(2)11/h3-6H,7H2,1-2H3
computed SMILES=O=C(OCC1=CC=C(C=C1)C)C
accession=JP006902
date=2016.01.19 (Created 2008.10.21, modified 2011.05.06)
author=TAJIMA S, GUNMA COLLEGE OF TECHNOLOGY
license=CC BY-NC-SA
exact mass=164.08373
ionization energy=70 eV
ion type=[M]+*
computed spectral entropy=3.0603304837525434
computed normalized entropy=0.7993254438921595
SPLASH=splash10-0pi3-6900000000-569e1bb316405f2b0d4e
submitter=submitter = University of Tokyo Team (Faculty of Engineering, University of Tokyo)
MoNA Rating=3.75

>  <NUM PEAKS>  (3690) 
46

>  <MASS SPECTRAL PEAKS>  (3690) 
14 1.19
15 8.19
27 7.5
29 1.82
38 1.59
39 15.59
40 1.27
41 3.94
42 1.88
43 58.67
44 1.64
50 5.62
51 14.44
52 4.63
53 5.04
62 2.39
63 9.46
64 2.32
65 18.24
66 1.49
74 1.12
75 1.28
76 1.4
77 35.53
78 33.33
79 18.47
89 6.67
90 2.17
91 26.88
92 2.79
93 16.78
94 1.61
102 3.11
103 30.83
104 70.99
105 99.99
106 9.26
107 47.41
108 3.4
119 5.93
120 1.25
121 7.93
122 98.13
123 8.32
164 62.42
165 6.74

$$$$

     RDKit          2D

 12 12  0  0  0  0  0  0  0  0999 V2000
   -0.9740    4.2571    0.0000 C   0  0  0  0  0  0  0  0  0  0  0  0
   -4.8712    2.0071    0.0000 C   0  0  0  0  0  0  0  0  0  0  0  0
    2.9231    0.5071    0.0000 C   0  0  0  0  0  0  0  0  0  0  0  0
    2.9236    2.0079    0.0000 C   0  0  0  0  0  0  0  0  0  0  0  0
    1.6236   -0.2437    0.0000 C   0  0  0  0  0  0  0  0  0  0  0  0
    1.6245    2.7579    0.0000 C   0  0  0  0  0  0  0  0  0  0  0  0
    0.3245    0.5063    0.0000 C   0  0  0  0  0  0  0  0  0  0  0  0
   -0.9740    2.7571    0.0000 C   0  0  0  0  0  0  0  0  0  0  0  0
   -3.5721    2.7571    0.0000 C   0  0  0  0  0  0  0  0  0  0  0  0
    0.3250    2.0071    0.0000 C   0  0  0  0  0  0  0  0  0  0  0  0
   -3.5721    4.2571    0.0000 O   0  0  0  0  0  0  0  0  0  0  0  0
   -2.2731    2.0071    0.0000 O   0  0  0  0  0  0  0  0  0  0  0  0
  4  3  2  0
  5  3  1  0
  6  4  1  0
  7  5  2  0
  8  1  1  0
  9  2  1  0
 10  6  2  0
 10  7  1  0
 10  8  1  0
 11  9  2  0
 12  8  1  0
 12  9  1  0
M  END
>  <NAME>  (3691) 
1-PHENYLETHYL ACETATE

>  <SYNONYMS>  (3691) 


>  <SPECTRUM TYPE>  (3691) 
MS1

>  <INSTRUMENT TYPE>  (3691) 
EI-B

>  <INSTRUMENT>  (3691) 
HITACHI M-80B

>  <ION MODE>  (3691) 
P

>  <INCHIKEY>  (3691) 
QUMXDOLUJCHOAY-UHFFFAOYSA-N

>  <FORMULA>  (3691) 
C10H12O2

>  <EXACT MASS>  (3691) 
164.083729624

>  <MW>  (3691) 
164

>  <ID>  (3691) 
JP006901

>  <CONTRIBUTOR>  (3691) 
University of Tokyo Team, {Faculty of Engineering, University of Tokyo

>  <COMMENT>  (3691) 
SMILES=CC(=O)OC(C)c(c1)cccc1
InChI=InChI=1S/C10H12O2/c1-8(12-9(2)11)10-6-4-3-5-7-10/h3-8H,1-2H3
computed SMILES=O=C(OC(C=1C=CC=CC1)C)C
accession=JP006901
date=2016.01.19 (Created 2008.10.21, modified 2011.05.06)
author=TAJIMA S, GUNMA COLLEGE OF TECHNOLOGY
license=CC BY-NC-SA
exact mass=164.08373
ionization energy=70 eV
ion type=[M]+*
computed spectral entropy=2.7284291159613168
computed normalized entropy=0.7674154734707797
SPLASH=splash10-0zou-6900000000-fa56fe4a4c07ec5d1313
submitter=submitter = University of Tokyo Team (Faculty of Engineering, University of Tokyo)
MoNA Rating=3.75

>  <NUM PEAKS>  (3691) 
35

>  <MASS SPECTRAL PEAKS>  (3691) 
15 7.31
27 6.63
38 1.09
39 8.4
42 1.83
43 99.99
44 2.08
50 8.21
51 23.82
52 5.36
53 1.81
62 1.2
63 4.82
65 2.38
74 2.05
75 1.86
76 2.39
77 42.49
78 23.82
79 25.85
80 1.35
89 1.59
91 2.24
102 2.46
103 21.25
104 97.1
105 76.44
106 6.47
107 35.54
108 2.2
121 8.3
122 81.95
123 6.61
164 20.15
165 1.85

$$$$

     RDKit          2D

 11 11  0  0  0  0  0  0  0  0999 V2000
    1.9489    1.5002    0.0000 C   0  0  0  0  0  0  0  0  0  0  0  0
    3.2476   -3.7504    0.0000 C   0  0  0  0  0  0  0  0  0  0  0  0
   -1.9500    0.7500    0.0000 C   0  0  0  0  0  0  0  0  0  0  0  0
   -1.9500   -0.7500    0.0000 C   0  0  0  0  0  0  0  0  0  0  0  0
   -0.6500    1.5000    0.0000 C   0  0  0  0  0  0  0  0  0  0  0  0
   -0.6500   -1.5000    0.0000 C   0  0  0  0  0  0  0  0  0  0  0  0
    0.6500    0.7500    0.0000 C   0  0  0  0  0  0  0  0  0  0  0  0
    1.9487   -3.0002    0.0000 C   0  0  0  0  0  0  0  0  0  0  0  0
    0.6500   -0.7500    0.0000 C   0  0  0  0  0  0  0  0  0  0  0  0
    0.6495   -3.7500    0.0000 O   0  0  0  0  0  0  0  0  0  0  0  0
    1.9489   -1.5002    0.0000 O   0  0  0  0  0  0  0  0  0  0  0  0
  4  3  2  0
  5  3  1  0
  6  4  1  0
  7  1  1  0
  7  5  2  0
  8  2  1  0
  9  6  2  0
  9  7  1  0
 10  8  2  0
 11  8  1  0
 11  9  1  0
M  END
>  <NAME>  (3692) 
O-CRESYL ACETATE

>  <SYNONYMS>  (3692) 
1-ACETOXY-2-METHYLBENZENE

>  <SPECTRUM TYPE>  (3692) 
MS1

>  <INSTRUMENT TYPE>  (3692) 
EI-B

>  <INSTRUMENT>  (3692) 
HITACHI M-80B

>  <ION MODE>  (3692) 
P

>  <INCHIKEY>  (3692) 
AMZORBZSQRUXNC-UHFFFAOYSA-N

>  <FORMULA>  (3692) 
C9H10O2

>  <EXACT MASS>  (3692) 
150.06807956

>  <MW>  (3692) 
150

>  <ID>  (3692) 
JP006900

>  <CONTRIBUTOR>  (3692) 
University of Tokyo Team, {Faculty of Engineering, University of Tokyo

>  <COMMENT>  (3692) 
SMILES=CC(=O)Oc(c1)c(C)ccc1
InChI=InChI=1S/C9H10O2/c1-7-5-3-4-6-9(7)11-8(2)10/h3-6H,1-2H3
computed SMILES=O=C(OC=1C=CC=CC1C)C
accession=JP006900
date=2016.01.19 (Created 2008.10.21, modified 2011.05.06)
author=TAJIMA S, GUNMA COLLEGE OF TECHNOLOGY
license=CC BY-NC-SA
exact mass=150.06808
ionization energy=70 eV
ion type=[M]+*
computed spectral entropy=2.6635739055813916
computed normalized entropy=0.7831282947418097
SPLASH=splash10-0a4i-9700000000-b6838ccde642e4daeb0b
submitter=submitter = University of Tokyo Team (Faculty of Engineering, University of Tokyo)
MoNA Rating=3.75

>  <NUM PEAKS>  (3692) 
30

>  <MASS SPECTRAL PEAKS>  (3692) 
14 1.36
15 9.52
18 2.21
26 1.18
27 6.89
28 1.67
38 1.98
39 11.04
41 1.03
42 2.14
43 42.21
50 5.59
51 11.77
52 7.45
53 6.52
62 1.28
63 3.82
64 1.27
65 3.08
77 22.75
78 8.75
79 13.69
80 9.67
89 2.2
90 10.82
91 3.75
107 33.36
108 99.99
109 7.72
150 11.46

$$$$

     RDKit          2D

 11 11  0  0  0  0  0  0  0  0999 V2000
   -4.8712    2.0071    0.0000 C   0  0  0  0  0  0  0  0  0  0  0  0
    2.9231    0.5071    0.0000 C   0  0  0  0  0  0  0  0  0  0  0  0
    2.9236    2.0079    0.0000 C   0  0  0  0  0  0  0  0  0  0  0  0
    1.6236   -0.2437    0.0000 C   0  0  0  0  0  0  0  0  0  0  0  0
    1.6245    2.7579    0.0000 C   0  0  0  0  0  0  0  0  0  0  0  0
    0.3245    0.5063    0.0000 C   0  0  0  0  0  0  0  0  0  0  0  0
   -0.9740    2.7571    0.0000 C   0  0  0  0  0  0  0  0  0  0  0  0
   -3.5721    2.7571    0.0000 C   0  0  0  0  0  0  0  0  0  0  0  0
    0.3250    2.0071    0.0000 C   0  0  0  0  0  0  0  0  0  0  0  0
   -3.5721    4.2571    0.0000 O   0  0  0  0  0  0  0  0  0  0  0  0
   -2.2731    2.0071    0.0000 O   0  0  0  0  0  0  0  0  0  0  0  0
  3  2  2  0
  4  2  1  0
  5  3  1  0
  6  4  2  0
  8  1  1  0
  9  5  2  0
  9  6  1  0
  9  7  1  0
 10  8  2  0
 11  7  1  0
 11  8  1  0
M  END
>  <NAME>  (3693) 
BENZYL ACETATE

>  <SYNONYMS>  (3693) 


>  <SPECTRUM TYPE>  (3693) 
MS1

>  <INSTRUMENT TYPE>  (3693) 
EI-B

>  <INSTRUMENT>  (3693) 
HITACHI M-80B

>  <ION MODE>  (3693) 
P

>  <INCHIKEY>  (3693) 
QUKGYYKBILRGFE-UHFFFAOYSA-N

>  <FORMULA>  (3693) 
C9H10O2

>  <EXACT MASS>  (3693) 
150.06807956

>  <MW>  (3693) 
150

>  <ID>  (3693) 
JP006899

>  <CONTRIBUTOR>  (3693) 
University of Tokyo Team, {Faculty of Engineering, University of Tokyo

>  <COMMENT>  (3693) 
SMILES=CC(=O)OCc(c1)cccc1
InChI=InChI=1S/C9H10O2/c1-8(10)11-7-9-5-3-2-4-6-9/h2-6H,7H2,1H3
computed SMILES=O=C(OCC=1C=CC=CC1)C
accession=JP006899
date=2016.01.19 (Created 2008.10.21, modified 2011.05.06)
author=TAJIMA S, GUNMA COLLEGE OF TECHNOLOGY
license=CC BY-NC-SA
exact mass=150.06808
ionization energy=70 eV
ion type=[M]+*
computed spectral entropy=2.7850077684668006
computed normalized entropy=0.7771712153045486
SPLASH=splash10-052f-9400000000-623c61f61fdb6da2b8d5
submitter=submitter = University of Tokyo Team (Faculty of Engineering, University of Tokyo)
MoNA Rating=3.75

>  <NUM PEAKS>  (3693) 
36

>  <MASS SPECTRAL PEAKS>  (3693) 
14 1.01
15 6.75
27 2.17
29 1.93
38 2.15
39 12.48
41 2.42
42 1.91
43 56.38
44 1.39
45 1.07
50 7.2
51 18.17
52 3.67
53 1.48
62 2.28
63 7.68
64 1.98
65 17.12
74 1.33
75 1.05
76 1.27
77 22.42
78 5.72
79 25.08
80 1.97
89 12.87
90 42.15
91 71.02
92 5.26
105 4.5
107 17.88
108 99.99
109 7.58
150 32.69
151 2.59

$$$$

     RDKit          2D

 15 15  0  0  0  0  0  0  0  0999 V2000
   -3.2474    0.6946    0.0000 C   0  0  0  0  0  0  0  0  0  0  0  0
   -0.6493    0.6946    0.0000 C   0  0  0  0  0  0  0  0  0  0  0  0
   -5.8454    3.6946    0.0000 C   0  0  0  0  0  0  0  0  0  0  0  0
    3.2478    1.4446    0.0000 C   0  0  0  0  0  0  0  0  0  0  0  0
    3.2483    2.9454    0.0000 C   0  0  0  0  0  0  0  0  0  0  0  0
    1.9483    0.6938    0.0000 C   0  0  0  0  0  0  0  0  0  0  0  0
    1.9493    3.6954    0.0000 C   0  0  0  0  0  0  0  0  0  0  0  0
    0.6493    1.4438    0.0000 C   0  0  0  0  0  0  0  0  0  0  0  0
   -0.6493    3.6946    0.0000 C   0  0  0  0  0  0  0  0  0  0  0  0
   -1.9483    1.4446    0.0000 C   0  0  0  0  0  0  0  0  0  0  0  0
   -4.5464    2.9446    0.0000 C   0  0  0  0  0  0  0  0  0  0  0  0
    0.6498    2.9446    0.0000 C   0  0  0  0  0  0  0  0  0  0  0  0
   -1.9483    2.9446    0.0000 C   0  0  0  0  0  0  0  0  0  0  0  0
   -4.5464    1.4446    0.0000 O   0  0  0  0  0  0  0  0  0  0  0  0
   -3.2474    3.6946    0.0000 O   0  0  0  0  0  0  0  0  0  0  0  0
  5  4  2  0
  6  4  1  0
  7  5  1  0
  8  6  2  0
 10  1  1  0
 10  2  1  0
 11  3  1  0
 12  7  2  0
 12  8  1  0
 12  9  1  0
 13  9  1  0
 13 10  1  0
 14 11  2  0
 15 11  1  0
 15 13  1  0
M  END
>  <NAME>  (3694) 
1-BENZYL-2-METHYLPROPYL ACETATE

>  <SYNONYMS>  (3694) 


>  <SPECTRUM TYPE>  (3694) 
MS1

>  <INSTRUMENT TYPE>  (3694) 
EI-B

>  <INSTRUMENT>  (3694) 
HITACHI M-80B

>  <ION MODE>  (3694) 
P

>  <INCHIKEY>  (3694) 
OOYSHHTYKLXILA-UHFFFAOYSA-N

>  <FORMULA>  (3694) 
C13H18O2

>  <EXACT MASS>  (3694) 
206.130679816

>  <MW>  (3694) 
206

>  <ID>  (3694) 
JP006898

>  <CONTRIBUTOR>  (3694) 
University of Tokyo Team, {Faculty of Engineering, University of Tokyo

>  <COMMENT>  (3694) 
SMILES=CC(=O)OC(C(C)C)Cc(c1)cccc1
InChI=InChI=1S/C13H18O2/c1-10(2)13(15-11(3)14)9-12-7-5-4-6-8-12/h4-8,10,13H,9H2,1-3H3
computed SMILES=O=C(OC(CC=1C=CC=CC1)C(C)C)C
accession=JP006898
date=2016.01.19 (Created 2008.10.21, modified 2011.05.06)
author=TAJIMA S, GUNMA COLLEGE OF TECHNOLOGY
license=CC BY-NC-SA
exact mass=206.13068
ionization energy=70 eV
ion type=[M]+*
computed spectral entropy=1.920180428620722
computed normalized entropy=0.6307000417630554
SPLASH=splash10-0006-9200000000-197180017029b2572b00
submitter=submitter = University of Tokyo Team (Faculty of Engineering, University of Tokyo)
MoNA Rating=3.75

>  <NUM PEAKS>  (3694) 
21

>  <MASS SPECTRAL PEAKS>  (3694) 
15 1.8
27 2.62
39 3.59
41 4.08
43 99.99
44 2.26
51 1.64
55 1.07
63 1.22
65 5.7
73 1.16
77 1.92
89 1.07
91 21.77
92 5.88
103 1.46
115 3.01
131 18.92
132 1.57
146 19.44
147 2.14

$$$$

     RDKit          2D

 13 13  0  0  0  0  0  0  0  0999 V2000
   -6.8197    3.1321    0.0000 C   0  0  0  0  0  0  0  0  0  0  0  0
    3.5726    1.6321    0.0000 C   0  0  0  0  0  0  0  0  0  0  0  0
    3.5731    3.1329    0.0000 C   0  0  0  0  0  0  0  0  0  0  0  0
    2.2731    0.8813    0.0000 C   0  0  0  0  0  0  0  0  0  0  0  0
   -1.6236    3.1321    0.0000 C   0  0  0  0  0  0  0  0  0  0  0  0
    2.2740    3.8829    0.0000 C   0  0  0  0  0  0  0  0  0  0  0  0
    0.9740    1.6313    0.0000 C   0  0  0  0  0  0  0  0  0  0  0  0
   -0.3245    3.8821    0.0000 C   0  0  0  0  0  0  0  0  0  0  0  0
   -2.9226    3.8821    0.0000 C   0  0  0  0  0  0  0  0  0  0  0  0
   -5.5207    3.8821    0.0000 C   0  0  0  0  0  0  0  0  0  0  0  0
    0.9745    3.1321    0.0000 C   0  0  0  0  0  0  0  0  0  0  0  0
   -5.5207    5.3821    0.0000 O   0  0  0  0  0  0  0  0  0  0  0  0
   -4.2216    3.1321    0.0000 O   0  0  0  0  0  0  0  0  0  0  0  0
  3  2  2  0
  4  2  1  0
  6  3  1  0
  7  4  2  0
  5  8  2  0
  9  5  1  0
 10  1  1  0
 11  6  2  0
 11  7  1  0
 11  8  1  0
 12 10  2  0
 13  9  1  0
 13 10  1  0
M  END
>  <NAME>  (3695) 
CINNAMYL ACETATE

>  <SYNONYMS>  (3695) 


>  <SPECTRUM TYPE>  (3695) 
MS1

>  <INSTRUMENT TYPE>  (3695) 
EI-B

>  <INSTRUMENT>  (3695) 
HITACHI M-80B

>  <ION MODE>  (3695) 
P

>  <INCHIKEY>  (3695) 
WJSDHUCWMSHDCR-VMPITWQZSA-N

>  <FORMULA>  (3695) 
C11H12O2

>  <EXACT MASS>  (3695) 
176.083729624

>  <MW>  (3695) 
176

>  <ID>  (3695) 
JP006897

>  <CONTRIBUTOR>  (3695) 
University of Tokyo Team, {Faculty of Engineering, University of Tokyo

>  <COMMENT>  (3695) 
SMILES=CC(=O)OCC=Cc(c1)cccc1
InChI=InChI=1S/C11H12O2/c1-10(12)13-9-5-8-11-6-3-2-4-7-11/h2-8H,9H2,1H3/b8-5+
computed SMILES=O=C(OCC=CC=1C=CC=CC1)C
accession=JP006897
date=2016.01.19 (Created 2008.10.21, modified 2011.05.06)
author=TAJIMA S, GUNMA COLLEGE OF TECHNOLOGY
license=CC BY-NC-SA
exact mass=176.08373
ionization energy=70 eV
ion type=[M]+*
computed spectral entropy=2.9934242771356163
computed normalized entropy=0.7910344265797634
SPLASH=splash10-00kf-9700000000-b6077d3a33c63d2a1048
submitter=submitter = University of Tokyo Team (Faculty of Engineering, University of Tokyo)
MoNA Rating=3.75

>  <NUM PEAKS>  (3695) 
44

>  <MASS SPECTRAL PEAKS>  (3695) 
15 5.51
27 3.61
29 1.95
38 1.1
39 9.98
42 1.72
43 99.99
44 2.25
50 3.77
51 12.19
52 2.39
53 1.21
55 2.39
57 1.92
62 1.95
63 5.36
64 1.1
65 4.37
74 1.33
75 1.86
76 2.27
77 15.32
78 9.15
79 4.82
89 3.21
91 13.91
92 17.18
93 1.08
102 3.73
103 6.8
104 2.12
105 21.94
106 2.2
114 1.02
115 45.51
116 22.26
117 20.87
118 1.69
131 1.65
133 15.01
134 21.46
135 1.77
176 12.12
177 1.37

$$$$

     RDKit          2D

 10 10  0  0  0  0  0  0  0  0999 V2000
    4.8270    1.2906    0.0000 C   0  0  0  0  0  0  0  0  0  0  0  0
   -1.6700   -0.9600    0.0000 C   0  0  0  0  0  0  0  0  0  0  0  0
   -1.6700    0.5400    0.0000 C   0  0  0  0  0  0  0  0  0  0  0  0
   -0.3700   -1.7100    0.0000 C   0  0  0  0  0  0  0  0  0  0  0  0
   -0.3700    1.2900    0.0000 C   0  0  0  0  0  0  0  0  0  0  0  0
    0.9300   -0.9600    0.0000 C   0  0  0  0  0  0  0  0  0  0  0  0
    3.5281    0.5404    0.0000 C   0  0  0  0  0  0  0  0  0  0  0  0
    0.9300    0.5400    0.0000 C   0  0  0  0  0  0  0  0  0  0  0  0
    3.5283   -0.9596    0.0000 O   0  0  0  0  0  0  0  0  0  0  0  0
    2.2289    1.2902    0.0000 O   0  0  0  0  0  0  0  0  0  0  0  0
  3  2  2  0
  4  2  1  0
  5  3  1  0
  6  4  2  0
  7  1  1  0
  8  5  2  0
  8  6  1  0
  9  7  2  0
 10  7  1  0
 10  8  1  0
M  END
>  <NAME>  (3696) 
PHENYL ACETATE

>  <SYNONYMS>  (3696) 


>  <SPECTRUM TYPE>  (3696) 
MS1

>  <INSTRUMENT TYPE>  (3696) 
EI-B

>  <INSTRUMENT>  (3696) 
HITACHI M-80B

>  <ION MODE>  (3696) 
P

>  <INCHIKEY>  (3696) 
IPBVNPXQWQGGJP-UHFFFAOYSA-N

>  <FORMULA>  (3696) 
C8H8O2

>  <EXACT MASS>  (3696) 
136.052429496

>  <MW>  (3696) 
136

>  <ID>  (3696) 
JP006896

>  <CONTRIBUTOR>  (3696) 
University of Tokyo Team, {Faculty of Engineering, University of Tokyo

>  <COMMENT>  (3696) 
SMILES=CC(=O)Oc(c1)cccc1
InChI=InChI=1S/C8H8O2/c1-7(9)10-8-5-3-2-4-6-8/h2-6H,1H3
computed SMILES=O=C(OC=1C=CC=CC1)C
accession=JP006896
date=2016.01.19 (Created 2008.10.21, modified 2011.05.06)
author=TAJIMA S, GUNMA COLLEGE OF TECHNOLOGY
license=CC BY-NC-SA
exact mass=136.05243
ionization energy=70 eV
ion type=[M]+*
computed spectral entropy=2.008829692528469
computed normalized entropy=0.6705638251662894
SPLASH=splash10-0006-9000000000-c511fa85854cadfd24e7
submitter=submitter = University of Tokyo Team (Faculty of Engineering, University of Tokyo)
MoNA Rating=3.75

>  <NUM PEAKS>  (3696) 
20

>  <MASS SPECTRAL PEAKS>  (3696) 
15 3.31
38 3.21
39 14.81
40 1.94
42 1.65
43 28.57
50 2.17
51 4.15
55 1.44
62 1.34
63 3.28
64 1.45
65 11.19
66 12.08
77 2.28
93 1.41
94 99.99
95 7.31
136 13.82
137 1.1

$$$$

     RDKit          2D

 12 12  0  0  0  0  0  0  0  0999 V2000
   -5.8454    3.6946    0.0000 C   0  0  0  0  0  0  0  0  0  0  0  0
    3.2478    1.4446    0.0000 C   0  0  0  0  0  0  0  0  0  0  0  0
    3.2483    2.9454    0.0000 C   0  0  0  0  0  0  0  0  0  0  0  0
    1.9483    0.6938    0.0000 C   0  0  0  0  0  0  0  0  0  0  0  0
    1.9493    3.6954    0.0000 C   0  0  0  0  0  0  0  0  0  0  0  0
    0.6493    1.4438    0.0000 C   0  0  0  0  0  0  0  0  0  0  0  0
   -0.6493    3.6946    0.0000 C   0  0  0  0  0  0  0  0  0  0  0  0
   -1.9483    2.9446    0.0000 C   0  0  0  0  0  0  0  0  0  0  0  0
   -4.5464    2.9446    0.0000 C   0  0  0  0  0  0  0  0  0  0  0  0
    0.6498    2.9446    0.0000 C   0  0  0  0  0  0  0  0  0  0  0  0
   -4.5464    1.4446    0.0000 O   0  0  0  0  0  0  0  0  0  0  0  0
   -3.2474    3.6946    0.0000 O   0  0  0  0  0  0  0  0  0  0  0  0
  3  2  1  0
  4  2  1  0
  5  3  1  0
  6  4  1  0
  8  7  1  0
  9  1  1  0
 10  5  1  0
 10  6  1  0
 10  7  1  0
 11  9  2  0
 12  8  1  0
 12  9  1  0
M  END
>  <NAME>  (3697) 
2-CYCLOHEXYLETHYL ACETATE

>  <SYNONYMS>  (3697) 


>  <SPECTRUM TYPE>  (3697) 
MS1

>  <INSTRUMENT TYPE>  (3697) 
EI-B

>  <INSTRUMENT>  (3697) 
HITACHI M-80B

>  <ION MODE>  (3697) 
P

>  <INCHIKEY>  (3697) 
NOTFZGFABLVTIG-UHFFFAOYSA-N

>  <FORMULA>  (3697) 
C10H18O2

>  <EXACT MASS>  (3697) 
170.130679816

>  <MW>  (3697) 
170

>  <ID>  (3697) 
JP006895

>  <CONTRIBUTOR>  (3697) 
University of Tokyo Team, {Faculty of Engineering, University of Tokyo

>  <COMMENT>  (3697) 
SMILES=CC(=O)OCCC(C1)CCCC1
InChI=InChI=1S/C10H18O2/c1-9(11)12-8-7-10-5-3-2-4-6-10/h10H,2-8H2,1H3
computed SMILES=O=C(OCCC1CCCCC1)C
accession=JP006895
date=2016.01.19 (Created 2008.10.21, modified 2011.05.06)
author=TAJIMA S, GUNMA COLLEGE OF TECHNOLOGY
license=CC BY-NC-SA
exact mass=170.13068
ionization energy=70 eV
ion type=[M]+*
computed spectral entropy=2.9041675046635507
computed normalized entropy=0.7820415094949049
SPLASH=splash10-00lu-9000000000-4ee0e254163cd90a6c03
submitter=submitter = University of Tokyo Team (Faculty of Engineering, University of Tokyo)
MoNA Rating=3.75

>  <NUM PEAKS>  (3697) 
41

>  <MASS SPECTRAL PEAKS>  (3697) 
15 8.07
27 12.46
28 4.06
29 12.67
31 1.35
39 16.93
40 2.49
41 41.18
42 7.32
43 99.99
44 2.35
45 1.15
51 1.36
53 8.22
54 26.77
55 45.2
56 3.23
61 10.55
65 1.65
66 3.49
67 68.58
68 20.39
69 14.43
70 1.81
73 1.76
77 1.49
79 3.77
80 5.34
81 83.69
82 87.17
83 12.45
87 2.71
88 1.51
93 1.16
94 1.19
95 14.22
108 1.28
109 7.68
110 38.24
111 3.37
155 1.06

$$$$

     RDKit          2D

 10 10  0  0  0  0  0  0  0  0999 V2000
    4.8270    1.2906    0.0000 C   0  0  0  0  0  0  0  0  0  0  0  0
   -1.6700   -0.9600    0.0000 C   0  0  0  0  0  0  0  0  0  0  0  0
   -1.6700    0.5400    0.0000 C   0  0  0  0  0  0  0  0  0  0  0  0
   -0.3700   -1.7100    0.0000 C   0  0  0  0  0  0  0  0  0  0  0  0
   -0.3700    1.2900    0.0000 C   0  0  0  0  0  0  0  0  0  0  0  0
    0.9300   -0.9600    0.0000 C   0  0  0  0  0  0  0  0  0  0  0  0
    3.5281    0.5404    0.0000 C   0  0  0  0  0  0  0  0  0  0  0  0
    0.9300    0.5400    0.0000 C   0  0  0  0  0  0  0  0  0  0  0  0
    3.5283   -0.9596    0.0000 O   0  0  0  0  0  0  0  0  0  0  0  0
    2.2289    1.2902    0.0000 O   0  0  0  0  0  0  0  0  0  0  0  0
  3  2  1  0
  4  2  1  0
  5  3  1  0
  6  4  1  0
  7  1  1  0
  8  5  1  0
  8  6  1  0
  9  7  2  0
 10  7  1  0
 10  8  1  0
M  END
>  <NAME>  (3698) 
CYCLOHEXYL ACETATE

>  <SYNONYMS>  (3698) 


>  <SPECTRUM TYPE>  (3698) 
MS1

>  <INSTRUMENT TYPE>  (3698) 
EI-B

>  <INSTRUMENT>  (3698) 
HITACHI M-80B

>  <ION MODE>  (3698) 
P

>  <INCHIKEY>  (3698) 
YYLLIJHXUHJATK-UHFFFAOYSA-N

>  <FORMULA>  (3698) 
C8H14O2

>  <EXACT MASS>  (3698) 
142.099379688

>  <MW>  (3698) 
142

>  <ID>  (3698) 
JP006894

>  <CONTRIBUTOR>  (3698) 
University of Tokyo Team, {Faculty of Engineering, University of Tokyo

>  <COMMENT>  (3698) 
SMILES=CC(=O)OC(C1)CCCC1
InChI=InChI=1S/C8H14O2/c1-7(9)10-8-5-3-2-4-6-8/h8H,2-6H2,1H3
computed SMILES=O=C(OC1CCCCC1)C
accession=JP006894
date=2016.01.19 (Created 2008.10.21, modified 2011.05.06)
author=TAJIMA S, GUNMA COLLEGE OF TECHNOLOGY
license=CC BY-NC-SA
exact mass=142.09938
ionization energy=70 eV
ion type=[M]+*
computed spectral entropy=2.5304104159706386
computed normalized entropy=0.7677596066938693
SPLASH=splash10-000x-9000000000-19ac28671ee5bdd23df4
submitter=submitter = University of Tokyo Team (Faculty of Engineering, University of Tokyo)
MoNA Rating=3.75

>  <NUM PEAKS>  (3698) 
27

>  <MASS SPECTRAL PEAKS>  (3698) 
15 5.35
27 9.78
28 3.26
29 7.13
39 11.4
40 1.54
41 18.18
42 5.97
43 99.99
44 5.11
53 3.12
54 16.08
55 16.4
56 1.69
57 7.43
58 6.59
59 1.07
61 6.93
67 44.28
68 2.46
71 2.69
79 1.09
81 6.12
82 61.51
83 8.71
99 3.22
100 3.1

$$$$

     RDKit          2D

 10 10  0  0  0  0  0  0  0  0999 V2000
   -1.6300    1.2517    0.0000 C   0  0  0  0  0  0  0  0  0  0  0  0
    5.4215    1.5862    0.0000 C   0  0  0  0  0  0  0  0  0  0  0  0
    3.9215    1.5862    0.0000 C   0  0  0  0  0  0  0  0  0  0  0  0
    5.8815    0.1662    0.0000 C   0  0  0  0  0  0  0  0  0  0  0  0
    2.0244   -0.2959    0.0000 C   0  0  0  0  0  0  0  0  0  0  0  0
   -0.5163    0.2469    0.0000 C   0  0  0  0  0  0  0  0  0  0  0  0
    3.4515    0.1662    0.0000 C   0  0  0  0  0  0  0  0  0  0  0  0
   -0.8297   -1.2200    0.0000 O   0  0  0  0  0  0  0  0  0  0  0  0
    4.6715   -0.7138    0.0000 O   0  0  0  0  0  0  0  0  0  0  0  0
    0.9107    0.7090    0.0000 O   0  0  0  0  0  0  0  0  0  0  0  0
  3  2  1  0
  4  2  2  0
  6  1  1  0
  7  3  2  0
  7  5  1  0
  8  6  2  0
  9  4  1  0
  9  7  1  0
 10  5  1  0
 10  6  1  0
M  END
>  <NAME>  (3699) 
FURFURYL ACETATE

>  <SYNONYMS>  (3699) 


>  <SPECTRUM TYPE>  (3699) 
MS1

>  <INSTRUMENT TYPE>  (3699) 
EI-B

>  <INSTRUMENT>  (3699) 
HITACHI M-80B

>  <ION MODE>  (3699) 
P

>  <INCHIKEY>  (3699) 
CKOYRRWBOKMNRG-UHFFFAOYSA-N

>  <FORMULA>  (3699) 
C7H8O3

>  <EXACT MASS>  (3699) 
140.04734411599998

>  <MW>  (3699) 
140

>  <ID>  (3699) 
JP006893

>  <CONTRIBUTOR>  (3699) 
University of Tokyo Team, {Faculty of Engineering, University of Tokyo

>  <COMMENT>  (3699) 
SMILES=CC(=O)OCc(c1)occ1
InChI=InChI=1S/C7H8O3/c1-6(8)10-5-7-3-2-4-9-7/h2-4H,5H2,1H3
computed SMILES=O=C(OCC=1OC=CC1)C
accession=JP006893
date=2016.01.19 (Created 2008.10.21, modified 2011.05.06)
author=TAJIMA S, GUNMA COLLEGE OF TECHNOLOGY
license=CC BY-NC-SA
exact mass=140.04734
ionization energy=70 eV
ion type=[M]+*
computed spectral entropy=2.809251976840099
computed normalized entropy=0.7966434393845426
SPLASH=splash10-0f8c-9000000000-8acbf2c440658554923f
submitter=submitter = University of Tokyo Team (Faculty of Engineering, University of Tokyo)
MoNA Rating=3.75

>  <NUM PEAKS>  (3699) 
34

>  <MASS SPECTRAL PEAKS>  (3699) 
14 2.36
15 11.72
26 3.14
27 21.01
28 1.55
29 9.67
37 2.52
38 6.29
39 19.08
40 1.47
41 11.15
42 11.26
43 63.41
44 1.94
50 7.58
51 12.6
52 49.74
53 41.82
54 1.87
55 1.51
61 1.62
68 1.13
69 5.74
70 2.95
79 1.15
80 16.61
81 99.99
82 5.44
95 5.02
97 10.08
98 51.74
99 2.63
140 31.03
141 2.25

$$$$

     RDKit          2D

 10 10  0  0  1  0  0  0  0  0999 V2000
    2.5987    3.0002    0.0000 C   0  0  0  0  0  0  0  0  0  0  0  0
    3.8981    0.7504    0.0000 C   0  0  0  0  0  0  0  0  0  0  0  0
   -2.5989   -1.5002    0.0000 C   0  0  0  0  0  0  0  0  0  0  0  0
   -1.3000    0.7500    0.0000 C   0  0  0  0  0  0  0  0  0  0  0  0
   -0.0000   -1.5000    0.0000 C   0  0  0  0  0  0  0  0  0  0  0  0
    0.0000    1.5000    0.0000 C   0  0  0  0  0  0  0  0  0  0  0  0
    1.3000   -0.7500    0.0000 C   0  0  0  0  0  0  0  0  0  0  0  0
    2.5989    1.5002    0.0000 C   0  0  0  0  0  0  0  0  0  0  0  0
   -1.3000   -0.7500    0.0000 C   0  0  0  0  0  0  0  0  0  0  0  0
    1.3000    0.7500    0.0000 C   0  0  0  0  0  0  0  0  0  0  0  0
  6  4  1  0
  7  5  1  0
  8  1  2  0
  8  2  1  0
  9  3  1  0
  9  4  2  0
  9  5  1  0
 10  6  1  0
 10  7  1  0
 10  8  1  6
M  END
>  <NAME>  (3700) 
LIMONENE

>  <SYNONYMS>  (3700) 
P-MENTHA-1,8-DIENE

>  <SPECTRUM TYPE>  (3700) 
MS1

>  <INSTRUMENT TYPE>  (3700) 
EI-B

>  <INSTRUMENT>  (3700) 
HITACHI M-80B

>  <ION MODE>  (3700) 
P

>  <INCHIKEY>  (3700) 
XMGQYMWWDOXHJM-JTQLQIEISA-N

>  <FORMULA>  (3700) 
C10H16

>  <EXACT MASS>  (3700) 
136.125200512

>  <MW>  (3700) 
136

>  <ID>  (3700) 
JP006892

>  <CONTRIBUTOR>  (3700) 
University of Tokyo Team, {Faculty of Engineering, University of Tokyo

>  <COMMENT>  (3700) 
SMILES=CC1=CC[C@@H](CC1)C(=C)C
InChI=InChI=1S/C10H16/c1-8(2)10-6-4-9(3)5-7-10/h4,10H,1,5-7H2,2-3H3/t10-/m0/s1
computed SMILES=C=C(C)C1CC=C(C)CC1
accession=JP006892
date=2016.01.19 (Created 2008.10.21, modified 2011.05.06)
author=TAJIMA S, GUNMA COLLEGE OF TECHNOLOGY
license=CC BY-NC-SA
exact mass=136.1252
ionization energy=70 eV
ion type=[M]+*
computed spectral entropy=3.1166311348706577
computed normalized entropy=0.8448720468203177
SPLASH=splash10-014l-9100000000-507f7afbc17b7c2556e2
submitter=submitter = University of Tokyo Team (Faculty of Engineering, University of Tokyo)
MoNA Rating=3.75

>  <NUM PEAKS>  (3700) 
40

>  <MASS SPECTRAL PEAKS>  (3700) 
27 15.02
28 2.85
29 7.8
38 1.46
39 26.52
40 8.01
41 24.01
42 3.24
43 2.09
50 1.84
51 7.21
52 3.17
53 24.1
54 2.03
55 7.74
63 1.88
65 7.46
66 4.29
67 44.62
68 99.99
69 7.69
77 15.9
78 3.29
79 27.53
80 10.7
81 10.5
82 1.69
91 14.64
92 18.07
93 58.42
94 21.11
95 7.23
105 3.56
106 1.09
107 16.48
108 5.13
121 17.64
122 1.51
136 20.42
137 1.98

$$$$

     RDKit          2D

 10 11  0  0  0  0  0  0  0  0999 V2000
   -1.9089    1.6302    0.0000 C   0  0  0  0  0  0  0  0  0  0  0  0
   -2.0872   -0.3597    0.0000 C   0  0  0  0  0  0  0  0  0  0  0  0
   -1.1227   -2.0296    0.0000 C   0  0  0  0  0  0  0  0  0  0  0  0
    1.9900    0.8800    0.0000 C   0  0  0  0  0  0  0  0  0  0  0  0
    1.9900   -0.6200    0.0000 C   0  0  0  0  0  0  0  0  0  0  0  0
    1.2400    0.1300    0.0000 C   0  0  0  0  0  0  0  0  0  0  0  0
   -0.6100    0.8800    0.0000 C   0  0  0  0  0  0  0  0  0  0  0  0
    0.6900    1.6300    0.0000 C   0  0  0  0  0  0  0  0  0  0  0  0
    0.6900   -1.3700    0.0000 C   0  0  0  0  0  0  0  0  0  0  0  0
   -0.6100   -0.6200    0.0000 C   0  0  0  0  0  0  0  0  0  0  0  0
  5  4  1  0
  7  1  2  0
  8  4  1  0
  8  6  1  0
  8  7  1  0
  9  5  1  0
  9  6  1  0
 10  2  1  0
 10  3  1  0
 10  7  1  0
 10  9  1  0
M  END
>  <NAME>  (3701) 
CAMPHENE

>  <SYNONYMS>  (3701) 
2,2-DIMETHYL-3-METHYLENEBICYCLO(2.2.1)HEPTANE

>  <SPECTRUM TYPE>  (3701) 
MS1

>  <INSTRUMENT TYPE>  (3701) 
EI-B

>  <INSTRUMENT>  (3701) 
HITACHI M-80B

>  <ION MODE>  (3701) 
P

>  <INCHIKEY>  (3701) 
CRPUJAZIXJMDBK-UHFFFAOYSA-N

>  <FORMULA>  (3701) 
C10H16

>  <EXACT MASS>  (3701) 
136.125200512

>  <MW>  (3701) 
136

>  <ID>  (3701) 
JP006891

>  <CONTRIBUTOR>  (3701) 
University of Tokyo Team, {Faculty of Engineering, University of Tokyo

>  <COMMENT>  (3701) 
SMILES=C=C(C21)C(C)(C)C(CC2)C1
InChI=InChI=1S/C10H16/c1-7-8-4-5-9(6-8)10(7,2)3/h8-9H,1,4-6H2,2-3H3
computed SMILES=C=C1C2CCC(C2)C1(C)C
accession=JP006891
date=2016.01.19 (Created 2008.10.21, modified 2011.05.06)
author=TAJIMA S, GUNMA COLLEGE OF TECHNOLOGY
license=CC BY-NC-SA
exact mass=136.1252
ionization energy=70 eV
ion type=[M]+*
computed spectral entropy=3.214027277270656
computed normalized entropy=0.8545217426374538
SPLASH=splash10-0006-9200000000-16357f038546002c5eb6
submitter=submitter = University of Tokyo Team (Faculty of Engineering, University of Tokyo)
MoNA Rating=3.75

>  <NUM PEAKS>  (3701) 
43

>  <MASS SPECTRAL PEAKS>  (3701) 
15 1.39
27 18.95
29 7.58
38 1.48
39 31.24
40 5.96
41 37.83
42 2.93
43 5.29
50 1.95
51 9
52 4.5
53 17.02
54 1.92
55 10.93
63 3.03
65 10.54
66 8.25
67 29.86
68 17.47
69 7.05
70 1.55
77 23.75
78 5.14
79 37.45
80 10.15
81 7.72
82 4.76
91 27.08
92 11.11
93 99.99
94 16.83
95 19.17
96 1.12
103 1.1
105 6.07
106 1.5
107 28.93
108 9.63
121 66.96
122 6.53
136 16.35
137 1.53

$$$$

     RDKit          2D

  6  6  0  0  0  0  0  0  0  0999 V2000
   -1.3000    0.7500    0.0000 C   0  0  0  0  0  0  0  0  0  0  0  0
    0.0000    1.5000    0.0000 C   0  0  0  0  0  0  0  0  0  0  0  0
   -1.3000   -0.7500    0.0000 C   0  0  0  0  0  0  0  0  0  0  0  0
    1.3000    0.7500    0.0000 C   0  0  0  0  0  0  0  0  0  0  0  0
   -0.0000   -1.5000    0.0000 C   0  0  0  0  0  0  0  0  0  0  0  0
    1.3000   -0.7500    0.0000 C   0  0  0  0  0  0  0  0  0  0  0  0
  2  1  1  0
  3  1  1  0
  4  2  1  0
  5  3  1  0
  6  4  1  0
  6  5  1  0
M  END
>  <NAME>  (3702) 
CYCLOHEXANE

>  <SYNONYMS>  (3702) 


>  <SPECTRUM TYPE>  (3702) 
MS1

>  <INSTRUMENT TYPE>  (3702) 
EI-B

>  <INSTRUMENT>  (3702) 
HITACHI M-80B

>  <ION MODE>  (3702) 
P

>  <INCHIKEY>  (3702) 
XDTMQSROBMDMFD-UHFFFAOYSA-N

>  <FORMULA>  (3702) 
C6H12

>  <EXACT MASS>  (3702) 
84.093900384

>  <MW>  (3702) 
84

>  <ID>  (3702) 
JP006890

>  <CONTRIBUTOR>  (3702) 
University of Tokyo Team, {Faculty of Engineering, University of Tokyo

>  <COMMENT>  (3702) 
SMILES=C(C1)CCCC1
InChI=InChI=1S/C6H12/c1-2-4-6-5-3-1/h1-6H2
computed SMILES=C1CCCCC1
computed normalized entropy=0.7884721673424752
accession=JP006890
date=2016.01.19 (Created 2008.10.21, modified 2011.05.06)
author=TAJIMA S, GUNMA COLLEGE OF TECHNOLOGY
license=CC BY-NC-SA
exact mass=84.0939
ionization energy=70 eV
ion type=[M]+*
computed spectral entropy=2.568918438744813
SPLASH=splash10-0a4l-9000000000-34ac8fd123caac81b782
submitter=submitter = University of Tokyo Team (Faculty of Engineering, University of Tokyo)
MoNA Rating=3.75

>  <NUM PEAKS>  (3702) 
26

>  <MASS SPECTRAL PEAKS>  (3702) 
15 2.75
26 4.02
27 30.39
28 12.18
29 10.91
38 2.39
39 34.44
40 5.52
41 71.56
42 30.92
43 12.75
50 2.34
51 3.68
52 1.55
53 5.6
54 6.4
55 37.87
56 99.99
57 3.73
67 2.91
68 1.72
69 23.03
70 1.41
83 4.37
84 59.02
85 3.23

$$$$

     RDKit          2D

 20 19  0  0  0  0  0  0  0  0999 V2000
    6.4952   10.5000    0.0000 C   0  0  0  0  0  0  0  0  0  0  0  0
  -18.1865   11.2500    0.0000 C   0  0  0  0  0  0  0  0  0  0  0  0
    5.1962   11.2500    0.0000 C   0  0  0  0  0  0  0  0  0  0  0  0
  -16.8875   10.5000    0.0000 C   0  0  0  0  0  0  0  0  0  0  0  0
    3.8971   10.5000    0.0000 C   0  0  0  0  0  0  0  0  0  0  0  0
  -15.5885   11.2500    0.0000 C   0  0  0  0  0  0  0  0  0  0  0  0
    2.5981   11.2500    0.0000 C   0  0  0  0  0  0  0  0  0  0  0  0
  -14.2894   10.5000    0.0000 C   0  0  0  0  0  0  0  0  0  0  0  0
    1.2990   10.5000    0.0000 C   0  0  0  0  0  0  0  0  0  0  0  0
  -12.9904   11.2500    0.0000 C   0  0  0  0  0  0  0  0  0  0  0  0
    0.0000   11.2500    0.0000 C   0  0  0  0  0  0  0  0  0  0  0  0
  -11.6913   10.5000    0.0000 C   0  0  0  0  0  0  0  0  0  0  0  0
   -1.2990   10.5000    0.0000 C   0  0  0  0  0  0  0  0  0  0  0  0
  -10.3923   11.2500    0.0000 C   0  0  0  0  0  0  0  0  0  0  0  0
   -2.5981   11.2500    0.0000 C   0  0  0  0  0  0  0  0  0  0  0  0
   -9.0933   10.5000    0.0000 C   0  0  0  0  0  0  0  0  0  0  0  0
   -3.8971   10.5000    0.0000 C   0  0  0  0  0  0  0  0  0  0  0  0
   -7.7942   11.2500    0.0000 C   0  0  0  0  0  0  0  0  0  0  0  0
   -5.1962   11.2500    0.0000 C   0  0  0  0  0  0  0  0  0  0  0  0
   -6.4952   10.5000    0.0000 C   0  0  0  0  0  0  0  0  0  0  0  0
  3  1  1  0
  4  2  1  0
  5  3  1  0
  6  4  1  0
  7  5  1  0
  8  6  1  0
  9  7  1  0
 10  8  1  0
 11  9  1  0
 12 10  1  0
 13 11  1  0
 14 12  1  0
 15 13  1  0
 16 14  1  0
 17 15  1  0
 18 16  1  0
 19 17  1  0
 20 18  1  0
 20 19  1  0
M  END
>  <NAME>  (3703) 
EICOSANE

>  <SYNONYMS>  (3703) 
ICOSANE

>  <SPECTRUM TYPE>  (3703) 
MS1

>  <INSTRUMENT TYPE>  (3703) 
EI-B

>  <INSTRUMENT>  (3703) 
HITACHI M-80B

>  <ION MODE>  (3703) 
P

>  <INCHIKEY>  (3703) 
CBFCDTFDPHXCNY-UHFFFAOYSA-N

>  <FORMULA>  (3703) 
C20H42

>  <EXACT MASS>  (3703) 
282.328651344

>  <MW>  (3703) 
282

>  <ID>  (3703) 
JP006889

>  <CONTRIBUTOR>  (3703) 
University of Tokyo Team, {Faculty of Engineering, University of Tokyo

>  <COMMENT>  (3703) 
SMILES=CCCCCCCCCCCCCCCCCCCC
InChI=InChI=1S/C20H42/c1-3-5-7-9-11-13-15-17-19-20-18-16-14-12-10-8-6-4-2/h3-20H2,1-2H3
computed SMILES=CCCCCCCCCCCCCCCCCCCC
accession=JP006889
date=2016.01.19 (Created 2008.10.21, modified 2011.05.06)
author=TAJIMA S, GUNMA COLLEGE OF TECHNOLOGY
license=CC BY-NC-SA
exact mass=282.32865
ionization energy=70 eV
ion type=[M]+*
computed spectral entropy=2.740571200232778
computed normalized entropy=0.7480619858350255
SPLASH=splash10-0a4l-9000000000-e134070d5bd2cd5dee70
submitter=submitter = University of Tokyo Team (Faculty of Engineering, University of Tokyo)
MoNA Rating=3.75

>  <NUM PEAKS>  (3703) 
39

>  <MASS SPECTRAL PEAKS>  (3703) 
27 7.18
29 20.22
39 4.11
41 40.1
42 9.9
43 90.26
44 2.2
53 1.55
54 2.16
55 26.74
56 16.13
57 99.99
58 4.55
67 1.93
68 1.75
69 11.46
70 11.06
71 58.74
72 2.22
82 1.3
83 6.77
84 5.85
85 37.11
86 1.94
97 4.16
98 4.03
99 9.92
111 1.52
112 2.1
113 5.67
126 1.86
127 3.89
140 1.23
141 2.24
154 1.07
155 1.6
169 1.43
183 1.22
282 1.52

$$$$

     RDKit          2D

 19 18  0  0  0  0  0  0  0  0999 V2000
    5.8457   10.1250    0.0000 C   0  0  0  0  0  0  0  0  0  0  0  0
  -17.5370   10.1250    0.0000 C   0  0  0  0  0  0  0  0  0  0  0  0
    4.5466   10.8750    0.0000 C   0  0  0  0  0  0  0  0  0  0  0  0
  -16.2380   10.8750    0.0000 C   0  0  0  0  0  0  0  0  0  0  0  0
    3.2476   10.1250    0.0000 C   0  0  0  0  0  0  0  0  0  0  0  0
  -14.9389   10.1250    0.0000 C   0  0  0  0  0  0  0  0  0  0  0  0
    1.9486   10.8750    0.0000 C   0  0  0  0  0  0  0  0  0  0  0  0
  -13.6399   10.8750    0.0000 C   0  0  0  0  0  0  0  0  0  0  0  0
    0.6495   10.1250    0.0000 C   0  0  0  0  0  0  0  0  0  0  0  0
  -12.3409   10.1250    0.0000 C   0  0  0  0  0  0  0  0  0  0  0  0
   -0.6495   10.8750    0.0000 C   0  0  0  0  0  0  0  0  0  0  0  0
  -11.0418   10.8750    0.0000 C   0  0  0  0  0  0  0  0  0  0  0  0
   -1.9486   10.1250    0.0000 C   0  0  0  0  0  0  0  0  0  0  0  0
   -9.7428   10.1250    0.0000 C   0  0  0  0  0  0  0  0  0  0  0  0
   -3.2476   10.8750    0.0000 C   0  0  0  0  0  0  0  0  0  0  0  0
   -8.4437   10.8750    0.0000 C   0  0  0  0  0  0  0  0  0  0  0  0
   -4.5466   10.1250    0.0000 C   0  0  0  0  0  0  0  0  0  0  0  0
   -7.1447   10.1250    0.0000 C   0  0  0  0  0  0  0  0  0  0  0  0
   -5.8457   10.8750    0.0000 C   0  0  0  0  0  0  0  0  0  0  0  0
  3  1  1  0
  4  2  1  0
  5  3  1  0
  6  4  1  0
  7  5  1  0
  8  6  1  0
  9  7  1  0
 10  8  1  0
 11  9  1  0
 12 10  1  0
 13 11  1  0
 14 12  1  0
 15 13  1  0
 16 14  1  0
 17 15  1  0
 18 16  1  0
 19 17  1  0
 19 18  1  0
M  END
>  <NAME>  (3704) 
NONADECANE

>  <SYNONYMS>  (3704) 


>  <SPECTRUM TYPE>  (3704) 
MS1

>  <INSTRUMENT TYPE>  (3704) 
EI-B

>  <INSTRUMENT>  (3704) 
HITACHI M-80B

>  <ION MODE>  (3704) 
P

>  <INCHIKEY>  (3704) 
LQERIDTXQFOHKA-UHFFFAOYSA-N

>  <FORMULA>  (3704) 
C19H40

>  <EXACT MASS>  (3704) 
268.31300128

>  <MW>  (3704) 
268

>  <ID>  (3704) 
JP006888

>  <CONTRIBUTOR>  (3704) 
University of Tokyo Team, {Faculty of Engineering, University of Tokyo

>  <COMMENT>  (3704) 
SMILES=CCCCCCCCCCCCCCCCCCC
InChI=InChI=1S/C19H40/c1-3-5-7-9-11-13-15-17-19-18-16-14-12-10-8-6-4-2/h3-19H2,1-2H3
computed SMILES=CCCCCCCCCCCCCCCCCCC
accession=JP006888
date=2016.01.19 (Created 2008.10.21, modified 2011.05.06)
author=TAJIMA S, GUNMA COLLEGE OF TECHNOLOGY
license=CC BY-NC-SA
exact mass=268.313
ionization energy=70 eV
ion type=[M]+*
computed spectral entropy=2.7625724406091074
computed normalized entropy=0.7488920348232614
SPLASH=splash10-052f-9000000000-7abd4eb0d6279ef16343
submitter=submitter = University of Tokyo Team (Faculty of Engineering, University of Tokyo)
MoNA Rating=3.75

>  <NUM PEAKS>  (3704) 
40

>  <MASS SPECTRAL PEAKS>  (3704) 
27 7.24
29 21.2
39 4.21
41 40.96
42 10.46
43 90.09
44 2.64
53 1.56
54 1.96
55 25.06
56 15.2
57 99.99
58 4.54
67 1.96
68 1.57
69 11.09
70 10.27
71 59.97
72 3.58
82 1.14
83 6.41
84 6.08
85 38.3
86 2.68
97 4.08
98 4.05
99 9.8
111 1.55
112 3.34
113 5.1
126 1.76
127 3.73
140 1.24
141 2.42
154 1.12
155 1.85
169 1.33
183 1.31
197 1.14
268 1.79

$$$$

     RDKit          2D

 18 17  0  0  0  0  0  0  0  0999 V2000
  -16.2380   10.1250    0.0000 C   0  0  0  0  0  0  0  0  0  0  0  0
    5.8457    9.3750    0.0000 C   0  0  0  0  0  0  0  0  0  0  0  0
  -14.9389    9.3750    0.0000 C   0  0  0  0  0  0  0  0  0  0  0  0
    4.5466   10.1250    0.0000 C   0  0  0  0  0  0  0  0  0  0  0  0
  -13.6399   10.1250    0.0000 C   0  0  0  0  0  0  0  0  0  0  0  0
    3.2476    9.3750    0.0000 C   0  0  0  0  0  0  0  0  0  0  0  0
  -12.3409    9.3750    0.0000 C   0  0  0  0  0  0  0  0  0  0  0  0
    1.9486   10.1250    0.0000 C   0  0  0  0  0  0  0  0  0  0  0  0
  -11.0418   10.1250    0.0000 C   0  0  0  0  0  0  0  0  0  0  0  0
    0.6495    9.3750    0.0000 C   0  0  0  0  0  0  0  0  0  0  0  0
   -9.7428    9.3750    0.0000 C   0  0  0  0  0  0  0  0  0  0  0  0
   -0.6495   10.1250    0.0000 C   0  0  0  0  0  0  0  0  0  0  0  0
   -8.4437   10.1250    0.0000 C   0  0  0  0  0  0  0  0  0  0  0  0
   -1.9486    9.3750    0.0000 C   0  0  0  0  0  0  0  0  0  0  0  0
   -7.1447    9.3750    0.0000 C   0  0  0  0  0  0  0  0  0  0  0  0
   -3.2476   10.1250    0.0000 C   0  0  0  0  0  0  0  0  0  0  0  0
   -5.8457   10.1250    0.0000 C   0  0  0  0  0  0  0  0  0  0  0  0
   -4.5466    9.3750    0.0000 C   0  0  0  0  0  0  0  0  0  0  0  0
  3  1  1  0
  4  2  1  0
  5  3  1  0
  6  4  1  0
  7  5  1  0
  8  6  1  0
  9  7  1  0
 10  8  1  0
 11  9  1  0
 12 10  1  0
 13 11  1  0
 14 12  1  0
 15 13  1  0
 16 14  1  0
 17 15  1  0
 18 16  1  0
 18 17  1  0
M  END
>  <NAME>  (3705) 
OCTADECANE

>  <SYNONYMS>  (3705) 


>  <SPECTRUM TYPE>  (3705) 
MS1

>  <INSTRUMENT TYPE>  (3705) 
EI-B

>  <INSTRUMENT>  (3705) 
HITACHI M-80B

>  <ION MODE>  (3705) 
P

>  <INCHIKEY>  (3705) 
RZJRJXONCZWCBN-UHFFFAOYSA-N

>  <FORMULA>  (3705) 
C18H38

>  <EXACT MASS>  (3705) 
254.29735121599998

>  <MW>  (3705) 
254

>  <ID>  (3705) 
JP006887

>  <CONTRIBUTOR>  (3705) 
University of Tokyo Team, {Faculty of Engineering, University of Tokyo

>  <COMMENT>  (3705) 
SMILES=CCCCCCCCCCCCCCCCCC
InChI=InChI=1S/C18H38/c1-3-5-7-9-11-13-15-17-18-16-14-12-10-8-6-4-2/h3-18H2,1-2H3
computed SMILES=CCCCCCCCCCCCCCCCCC
accession=JP006887
date=2016.01.19 (Created 2008.10.21, modified 2011.05.06)
author=TAJIMA S, GUNMA COLLEGE OF TECHNOLOGY
license=CC BY-NC-SA
exact mass=254.29735
ionization energy=70 eV
ion type=[M]+*
computed spectral entropy=2.7632568061738265
computed normalized entropy=0.7542542129987241
SPLASH=splash10-0596-9000000000-b09d63469160a7383701
submitter=submitter = University of Tokyo Team (Faculty of Engineering, University of Tokyo)
MoNA Rating=3.75

>  <NUM PEAKS>  (3705) 
39

>  <MASS SPECTRAL PEAKS>  (3705) 
27 8.76
29 25.11
39 5.62
41 42.56
42 10.74
43 89.74
44 2.9
53 1.68
54 2.28
55 25.48
56 14.86
57 99.99
58 4.14
67 1.65
68 1.49
69 9.7
70 11.52
71 62.27
72 3.44
82 1.19
83 5.87
84 5.39
85 37.1
86 2.27
97 4.65
98 3.96
99 9.07
111 1.38
112 3.07
113 6.17
126 2.2
127 4.13
140 1.29
141 2.65
155 1.76
169 1.45
183 1.1
197 1.1
254 2.12

$$$$

     RDKit          2D

 17 16  0  0  0  0  0  0  0  0999 V2000
  -15.5885    9.0000    0.0000 C   0  0  0  0  0  0  0  0  0  0  0  0
    5.1962    9.0000    0.0000 C   0  0  0  0  0  0  0  0  0  0  0  0
  -14.2894    8.2500    0.0000 C   0  0  0  0  0  0  0  0  0  0  0  0
    3.8971    8.2500    0.0000 C   0  0  0  0  0  0  0  0  0  0  0  0
  -12.9904    9.0000    0.0000 C   0  0  0  0  0  0  0  0  0  0  0  0
    2.5981    9.0000    0.0000 C   0  0  0  0  0  0  0  0  0  0  0  0
  -11.6913    8.2500    0.0000 C   0  0  0  0  0  0  0  0  0  0  0  0
    1.2990    8.2500    0.0000 C   0  0  0  0  0  0  0  0  0  0  0  0
  -10.3923    9.0000    0.0000 C   0  0  0  0  0  0  0  0  0  0  0  0
    0.0000    9.0000    0.0000 C   0  0  0  0  0  0  0  0  0  0  0  0
   -9.0933    8.2500    0.0000 C   0  0  0  0  0  0  0  0  0  0  0  0
   -1.2990    8.2500    0.0000 C   0  0  0  0  0  0  0  0  0  0  0  0
   -7.7942    9.0000    0.0000 C   0  0  0  0  0  0  0  0  0  0  0  0
   -2.5981    9.0000    0.0000 C   0  0  0  0  0  0  0  0  0  0  0  0
   -6.4952    8.2500    0.0000 C   0  0  0  0  0  0  0  0  0  0  0  0
   -3.8971    8.2500    0.0000 C   0  0  0  0  0  0  0  0  0  0  0  0
   -5.1962    9.0000    0.0000 C   0  0  0  0  0  0  0  0  0  0  0  0
  3  1  1  0
  4  2  1  0
  5  3  1  0
  6  4  1  0
  7  5  1  0
  8  6  1  0
  9  7  1  0
 10  8  1  0
 11  9  1  0
 12 10  1  0
 13 11  1  0
 14 12  1  0
 15 13  1  0
 16 14  1  0
 17 15  1  0
 17 16  1  0
M  END
>  <NAME>  (3706) 
HEPTADECANE

>  <SYNONYMS>  (3706) 


>  <SPECTRUM TYPE>  (3706) 
MS1

>  <INSTRUMENT TYPE>  (3706) 
EI-B

>  <INSTRUMENT>  (3706) 
HITACHI M-80B

>  <ION MODE>  (3706) 
P

>  <INCHIKEY>  (3706) 
NDJKXXJCMXVBJW-UHFFFAOYSA-N

>  <FORMULA>  (3706) 
C17H36

>  <EXACT MASS>  (3706) 
240.28170115199998

>  <MW>  (3706) 
240

>  <ID>  (3706) 
JP006886

>  <CONTRIBUTOR>  (3706) 
University of Tokyo Team, {Faculty of Engineering, University of Tokyo

>  <COMMENT>  (3706) 
SMILES=CCCCCCCCCCCCCCCCC
InChI=InChI=1S/C17H36/c1-3-5-7-9-11-13-15-17-16-14-12-10-8-6-4-2/h3-17H2,1-2H3
computed SMILES=CCCCCCCCCCCCCCCCC
accession=JP006886
date=2016.01.19 (Created 2008.10.21, modified 2011.05.06)
author=TAJIMA S, GUNMA COLLEGE OF TECHNOLOGY
license=CC BY-NC-SA
exact mass=240.2817
ionization energy=70 eV
ion type=[M]+*
computed spectral entropy=2.7328723087134574
computed normalized entropy=0.7568359001305055
SPLASH=splash10-052f-9000000000-4a1e4072537ab44135b1
submitter=submitter = University of Tokyo Team (Faculty of Engineering, University of Tokyo)
MoNA Rating=3.75

>  <NUM PEAKS>  (3706) 
37

>  <MASS SPECTRAL PEAKS>  (3706) 
27 9.28
29 25.39
39 5.37
41 41.91
42 10.99
43 88.81
44 2.96
53 2.08
54 2.55
55 22.73
56 14.91
57 99.99
58 4.2
67 1.6
68 1.37
69 9.52
70 10.37
71 58.65
72 2.91
82 1.36
83 5.28
84 5.59
85 36.02
86 1.65
97 2.82
98 3.99
99 8.93
112 2.85
113 4.83
126 2.22
127 3.56
140 1.41
141 3.03
155 1.49
169 1.57
183 1.28
240 2.73

$$$$

     RDKit          2D

 17 16  0  0  0  0  0  0  0  0999 V2000
  -15.5885    9.0000    0.0000 C   0  0  0  0  0  0  0  0  0  0  0  0
    5.1962    9.0000    0.0000 C   0  0  0  0  0  0  0  0  0  0  0  0
  -14.2894    8.2500    0.0000 C   0  0  0  0  0  0  0  0  0  0  0  0
    3.8971    8.2500    0.0000 C   0  0  0  0  0  0  0  0  0  0  0  0
  -12.9904    9.0000    0.0000 C   0  0  0  0  0  0  0  0  0  0  0  0
    2.5981    9.0000    0.0000 C   0  0  0  0  0  0  0  0  0  0  0  0
  -11.6913    8.2500    0.0000 C   0  0  0  0  0  0  0  0  0  0  0  0
    1.2990    8.2500    0.0000 C   0  0  0  0  0  0  0  0  0  0  0  0
  -10.3923    9.0000    0.0000 C   0  0  0  0  0  0  0  0  0  0  0  0
    0.0000    9.0000    0.0000 C   0  0  0  0  0  0  0  0  0  0  0  0
   -9.0933    8.2500    0.0000 C   0  0  0  0  0  0  0  0  0  0  0  0
   -1.2990    8.2500    0.0000 C   0  0  0  0  0  0  0  0  0  0  0  0
   -7.7942    9.0000    0.0000 C   0  0  0  0  0  0  0  0  0  0  0  0
   -2.5981    9.0000    0.0000 C   0  0  0  0  0  0  0  0  0  0  0  0
   -6.4952    8.2500    0.0000 C   0  0  0  0  0  0  0  0  0  0  0  0
   -3.8971    8.2500    0.0000 C   0  0  0  0  0  0  0  0  0  0  0  0
   -5.1962    9.0000    0.0000 C   0  0  0  0  0  0  0  0  0  0  0  0
  3  1  2  0
  4  2  1  0
  5  3  1  0
  6  4  1  0
  7  5  1  0
  8  6  1  0
  9  7  1  0
 10  8  1  0
 11  9  1  0
 12 10  1  0
 13 11  1  0
 14 12  1  0
 15 13  1  0
 16 14  1  0
 17 15  1  0
 17 16  1  0
M  END
>  <NAME>  (3707) 
1-HEPTADECENE

>  <SYNONYMS>  (3707) 


>  <SPECTRUM TYPE>  (3707) 
MS1

>  <INSTRUMENT TYPE>  (3707) 
EI-B

>  <INSTRUMENT>  (3707) 
HITACHI M-80B

>  <ION MODE>  (3707) 
P

>  <INCHIKEY>  (3707) 
ADOBXTDBFNCOBN-UHFFFAOYSA-N

>  <FORMULA>  (3707) 
C17H34

>  <EXACT MASS>  (3707) 
238.26605108799998

>  <MW>  (3707) 
238

>  <ID>  (3707) 
JP006885

>  <CONTRIBUTOR>  (3707) 
University of Tokyo Team, {Faculty of Engineering, University of Tokyo

>  <COMMENT>  (3707) 
SMILES=CCCCCCCCCCCCCCCC=C
InChI=InChI=1S/C17H34/c1-3-5-7-9-11-13-15-17-16-14-12-10-8-6-4-2/h3H,1,4-17H2,2H3
computed SMILES=C=CCCCCCCCCCCCCCCC
exact mass=238.26605
accession=JP006885
date=2016.01.19 (Created 2008.10.21, modified 2011.05.06)
author=TAJIMA S, GUNMA COLLEGE OF TECHNOLOGY
license=CC BY-NC-SA
ionization energy=70 eV
ion type=[M]+*
computed spectral entropy=3.1365345333869676
computed normalized entropy=0.8288523665076762
SPLASH=splash10-0a4l-9000000000-56b286aca9b81df86224
submitter=submitter = University of Tokyo Team (Faculty of Engineering, University of Tokyo)
MoNA Rating=3.75

>  <NUM PEAKS>  (3707) 
44

>  <MASS SPECTRAL PEAKS>  (3707) 
27 16.67
29 40.49
39 17.56
40 2.21
41 96.89
42 23.83
43 99.99
44 2.93
53 8.22
54 14.8
55 88.92
56 45.2
57 74.89
58 2.5
67 14.31
68 13.17
69 57.29
70 39.62
71 32.43
72 1.23
79 1.07
81 6.08
82 17.54
83 63.41
84 26.16
85 15.82
95 1.76
96 8.07
97 48.25
98 15.4
99 2.28
110 2.69
111 20.99
112 9.23
113 1.56
124 1.22
125 7.75
126 3.9
139 2.09
140 2.5
153 1.07
154 1.71
168 1.21
238 1.8

$$$$

     RDKit          2D

 16 15  0  0  0  0  0  0  0  0999 V2000
    5.1962    8.2500    0.0000 C   0  0  0  0  0  0  0  0  0  0  0  0
  -14.2894    9.0000    0.0000 C   0  0  0  0  0  0  0  0  0  0  0  0
    3.8971    9.0000    0.0000 C   0  0  0  0  0  0  0  0  0  0  0  0
  -12.9904    8.2500    0.0000 C   0  0  0  0  0  0  0  0  0  0  0  0
    2.5981    8.2500    0.0000 C   0  0  0  0  0  0  0  0  0  0  0  0
  -11.6913    9.0000    0.0000 C   0  0  0  0  0  0  0  0  0  0  0  0
    1.2990    9.0000    0.0000 C   0  0  0  0  0  0  0  0  0  0  0  0
  -10.3923    8.2500    0.0000 C   0  0  0  0  0  0  0  0  0  0  0  0
    0.0000    8.2500    0.0000 C   0  0  0  0  0  0  0  0  0  0  0  0
   -9.0933    9.0000    0.0000 C   0  0  0  0  0  0  0  0  0  0  0  0
   -1.2990    9.0000    0.0000 C   0  0  0  0  0  0  0  0  0  0  0  0
   -7.7942    8.2500    0.0000 C   0  0  0  0  0  0  0  0  0  0  0  0
   -2.5981    8.2500    0.0000 C   0  0  0  0  0  0  0  0  0  0  0  0
   -6.4952    9.0000    0.0000 C   0  0  0  0  0  0  0  0  0  0  0  0
   -3.8971    9.0000    0.0000 C   0  0  0  0  0  0  0  0  0  0  0  0
   -5.1962    8.2500    0.0000 C   0  0  0  0  0  0  0  0  0  0  0  0
  3  1  1  0
  4  2  1  0
  5  3  1  0
  6  4  1  0
  7  5  1  0
  8  6  1  0
  9  7  1  0
 10  8  1  0
 11  9  1  0
 12 10  1  0
 13 11  1  0
 14 12  1  0
 15 13  1  0
 16 14  1  0
 16 15  1  0
M  END
>  <NAME>  (3708) 
HEXADECANE

>  <SYNONYMS>  (3708) 


>  <SPECTRUM TYPE>  (3708) 
MS1

>  <INSTRUMENT TYPE>  (3708) 
EI-B

>  <INSTRUMENT>  (3708) 
HITACHI M-80B

>  <ION MODE>  (3708) 
P

>  <INCHIKEY>  (3708) 
DCAYPVUWAIABOU-UHFFFAOYSA-N

>  <FORMULA>  (3708) 
C16H34

>  <EXACT MASS>  (3708) 
226.26605108799998

>  <MW>  (3708) 
226

>  <ID>  (3708) 
JP006884

>  <CONTRIBUTOR>  (3708) 
University of Tokyo Team, {Faculty of Engineering, University of Tokyo

>  <COMMENT>  (3708) 
SMILES=CCCCCCCCCCCCCCCC
InChI=InChI=1S/C16H34/c1-3-5-7-9-11-13-15-16-14-12-10-8-6-4-2/h3-16H2,1-2H3
computed SMILES=CCCCCCCCCCCCCCCC
accession=JP006884
date=2016.01.19 (Created 2008.10.21, modified 2011.05.06)
author=TAJIMA S, GUNMA COLLEGE OF TECHNOLOGY
license=CC BY-NC-SA
ionization energy=70 eV
ion type=[M]+*
exact mass=226.26605
computed spectral entropy=2.728193010513447
computed normalized entropy=0.7555400251443627
SPLASH=splash10-052f-9000000000-2ba63d5e4e2ba2027b77
submitter=submitter = University of Tokyo Team (Faculty of Engineering, University of Tokyo)
MoNA Rating=3.75

>  <NUM PEAKS>  (3708) 
37

>  <MASS SPECTRAL PEAKS>  (3708) 
27 10.46
29 25.03
39 5.63
41 43.05
42 12.33
43 88.24
44 2.68
53 2.21
54 2.26
55 22.06
56 15.16
57 99.99
58 4.23
67 1.59
68 1.4
69 9.21
70 10.48
71 58.38
72 3.53
82 1.01
83 4.74
84 6.55
85 36.03
86 2.12
97 3.06
98 3.94
99 8.22
111 1.03
112 2.59
113 4.31
126 1.71
127 3.45
140 1.41
141 2.48
155 1.59
169 1.11
226 2.85

$$$$

     RDKit          2D

 16 15  0  0  0  0  0  0  0  0999 V2000
    5.1962    8.2500    0.0000 C   0  0  0  0  0  0  0  0  0  0  0  0
  -14.2894    9.0000    0.0000 C   0  0  0  0  0  0  0  0  0  0  0  0
    3.8971    9.0000    0.0000 C   0  0  0  0  0  0  0  0  0  0  0  0
  -12.9904    8.2500    0.0000 C   0  0  0  0  0  0  0  0  0  0  0  0
    2.5981    8.2500    0.0000 C   0  0  0  0  0  0  0  0  0  0  0  0
  -11.6913    9.0000    0.0000 C   0  0  0  0  0  0  0  0  0  0  0  0
    1.2990    9.0000    0.0000 C   0  0  0  0  0  0  0  0  0  0  0  0
  -10.3923    8.2500    0.0000 C   0  0  0  0  0  0  0  0  0  0  0  0
    0.0000    8.2500    0.0000 C   0  0  0  0  0  0  0  0  0  0  0  0
   -9.0933    9.0000    0.0000 C   0  0  0  0  0  0  0  0  0  0  0  0
   -1.2990    9.0000    0.0000 C   0  0  0  0  0  0  0  0  0  0  0  0
   -7.7942    8.2500    0.0000 C   0  0  0  0  0  0  0  0  0  0  0  0
   -2.5981    8.2500    0.0000 C   0  0  0  0  0  0  0  0  0  0  0  0
   -6.4952    9.0000    0.0000 C   0  0  0  0  0  0  0  0  0  0  0  0
   -3.8971    9.0000    0.0000 C   0  0  0  0  0  0  0  0  0  0  0  0
   -5.1962    8.2500    0.0000 C   0  0  0  0  0  0  0  0  0  0  0  0
  3  1  2  0
  4  2  1  0
  5  3  1  0
  6  4  1  0
  7  5  1  0
  8  6  1  0
  9  7  1  0
 10  8  1  0
 11  9  1  0
 12 10  1  0
 13 11  1  0
 14 12  1  0
 15 13  1  0
 16 14  1  0
 16 15  1  0
M  END
>  <NAME>  (3709) 
1-HEXADECENE

>  <SYNONYMS>  (3709) 


>  <SPECTRUM TYPE>  (3709) 
MS1

>  <INSTRUMENT TYPE>  (3709) 
EI-B

>  <INSTRUMENT>  (3709) 
HITACHI M-80B

>  <ION MODE>  (3709) 
P

>  <INCHIKEY>  (3709) 
GQEZCXVZFLOKMC-UHFFFAOYSA-N

>  <FORMULA>  (3709) 
C16H32

>  <EXACT MASS>  (3709) 
224.25040102399998

>  <MW>  (3709) 
224

>  <ID>  (3709) 
JP006883

>  <CONTRIBUTOR>  (3709) 
University of Tokyo Team, {Faculty of Engineering, University of Tokyo

>  <COMMENT>  (3709) 
SMILES=CCCCCCCCCCCCCCC=C
InChI=InChI=1S/C16H32/c1-3-5-7-9-11-13-15-16-14-12-10-8-6-4-2/h3H,1,4-16H2,2H3
computed SMILES=C=CCCCCCCCCCCCCCC
accession=JP006883
date=2016.01.19 (Created 2008.10.21, modified 2011.05.06)
author=TAJIMA S, GUNMA COLLEGE OF TECHNOLOGY
license=CC BY-NC-SA
exact mass=224.2504
ionization energy=70 eV
ion type=[M]+*
computed spectral entropy=3.128228345684413
computed normalized entropy=0.8369461897815199
SPLASH=splash10-0a4l-9000000000-a2f78357e09533acfead
submitter=submitter = University of Tokyo Team (Faculty of Engineering, University of Tokyo)
MoNA Rating=3.75

>  <NUM PEAKS>  (3709) 
42

>  <MASS SPECTRAL PEAKS>  (3709) 
27 18.64
28 7.85
29 44.16
39 19.73
40 2.93
41 99.99
42 22.09
43 95.83
44 2.72
53 6.87
54 14.44
55 88.18
56 46.99
57 71.28
58 2.59
67 13.94
68 12.98
69 58
70 44.16
71 29.14
72 1.36
81 4.42
82 15.63
83 56.9
84 26.68
85 14.31
95 1.84
96 6.05
97 44.32
98 15.42
99 2.16
110 2.47
111 17.78
112 8.93
113 1
124 1.12
125 7.63
126 3.82
139 1.76
140 2.22
154 1.46
224 1.66

$$$$

     RDKit          2D

 15 14  0  0  0  0  0  0  0  0999 V2000
    4.5466    7.8750    0.0000 C   0  0  0  0  0  0  0  0  0  0  0  0
  -13.6399    7.8750    0.0000 C   0  0  0  0  0  0  0  0  0  0  0  0
    3.2476    8.6250    0.0000 C   0  0  0  0  0  0  0  0  0  0  0  0
  -12.3409    8.6250    0.0000 C   0  0  0  0  0  0  0  0  0  0  0  0
    1.9486    7.8750    0.0000 C   0  0  0  0  0  0  0  0  0  0  0  0
  -11.0418    7.8750    0.0000 C   0  0  0  0  0  0  0  0  0  0  0  0
    0.6495    8.6250    0.0000 C   0  0  0  0  0  0  0  0  0  0  0  0
   -9.7428    8.6250    0.0000 C   0  0  0  0  0  0  0  0  0  0  0  0
   -0.6495    7.8750    0.0000 C   0  0  0  0  0  0  0  0  0  0  0  0
   -8.4437    7.8750    0.0000 C   0  0  0  0  0  0  0  0  0  0  0  0
   -1.9486    8.6250    0.0000 C   0  0  0  0  0  0  0  0  0  0  0  0
   -7.1447    8.6250    0.0000 C   0  0  0  0  0  0  0  0  0  0  0  0
   -3.2476    7.8750    0.0000 C   0  0  0  0  0  0  0  0  0  0  0  0
   -5.8457    7.8750    0.0000 C   0  0  0  0  0  0  0  0  0  0  0  0
   -4.5466    8.6250    0.0000 C   0  0  0  0  0  0  0  0  0  0  0  0
  3  1  1  0
  4  2  1  0
  5  3  1  0
  6  4  1  0
  7  5  1  0
  8  6  1  0
  9  7  1  0
 10  8  1  0
 11  9  1  0
 12 10  1  0
 13 11  1  0
 14 12  1  0
 15 13  1  0
 15 14  1  0
M  END
>  <NAME>  (3710) 
PENTADECANE

>  <SYNONYMS>  (3710) 


>  <SPECTRUM TYPE>  (3710) 
MS1

>  <INSTRUMENT TYPE>  (3710) 
EI-B

>  <INSTRUMENT>  (3710) 
HITACHI M-80B

>  <ION MODE>  (3710) 
P

>  <INCHIKEY>  (3710) 
YCOZIPAWZNQLMR-UHFFFAOYSA-N

>  <FORMULA>  (3710) 
C15H32

>  <EXACT MASS>  (3710) 
212.25040102399998

>  <MW>  (3710) 
212

>  <ID>  (3710) 
JP006882

>  <CONTRIBUTOR>  (3710) 
University of Tokyo Team, {Faculty of Engineering, University of Tokyo

>  <COMMENT>  (3710) 
SMILES=CCCCCCCCCCCCCCC
InChI=InChI=1S/C15H32/c1-3-5-7-9-11-13-15-14-12-10-8-6-4-2/h3-15H2,1-2H3
computed SMILES=CCCCCCCCCCCCCCC
accession=JP006882
date=2016.01.19 (Created 2008.10.21, modified 2011.05.06)
author=TAJIMA S, GUNMA COLLEGE OF TECHNOLOGY
license=CC BY-NC-SA
exact mass=212.2504
ionization energy=70 eV
ion type=[M]+*
computed spectral entropy=2.705530664742895
computed normalized entropy=0.7549927072266348
SPLASH=splash10-052f-9000000000-d5a220c9089d2bec52c2
submitter=submitter = University of Tokyo Team (Faculty of Engineering, University of Tokyo)
MoNA Rating=3.75

>  <NUM PEAKS>  (3710) 
36

>  <MASS SPECTRAL PEAKS>  (3710) 
27 10.57
29 26.97
39 6.16
41 44.21
42 12.09
43 89.7
44 2.72
53 1.82
54 1.73
55 22.4
56 15.3
57 99.99
58 4.43
67 1.83
68 1.3
69 8.46
70 10.77
71 57.39
72 3.26
82 1.02
83 4.15
84 5.63
85 35.84
86 2.17
97 1.92
98 4.12
99 7.18
112 3.29
113 3.84
126 1.86
127 3.7
140 1.17
141 2.15
155 1.62
169 1.2
212 3.72

$$$$

     RDKit          2D

 14 13  0  0  0  0  0  0  0  0999 V2000
    4.5466    7.1250    0.0000 C   0  0  0  0  0  0  0  0  0  0  0  0
  -12.3409    7.8750    0.0000 C   0  0  0  0  0  0  0  0  0  0  0  0
    3.2476    7.8750    0.0000 C   0  0  0  0  0  0  0  0  0  0  0  0
  -11.0418    7.1250    0.0000 C   0  0  0  0  0  0  0  0  0  0  0  0
    1.9486    7.1250    0.0000 C   0  0  0  0  0  0  0  0  0  0  0  0
   -9.7428    7.8750    0.0000 C   0  0  0  0  0  0  0  0  0  0  0  0
    0.6495    7.8750    0.0000 C   0  0  0  0  0  0  0  0  0  0  0  0
   -8.4437    7.1250    0.0000 C   0  0  0  0  0  0  0  0  0  0  0  0
   -0.6495    7.1250    0.0000 C   0  0  0  0  0  0  0  0  0  0  0  0
   -7.1447    7.8750    0.0000 C   0  0  0  0  0  0  0  0  0  0  0  0
   -1.9486    7.8750    0.0000 C   0  0  0  0  0  0  0  0  0  0  0  0
   -5.8457    7.1250    0.0000 C   0  0  0  0  0  0  0  0  0  0  0  0
   -3.2476    7.1250    0.0000 C   0  0  0  0  0  0  0  0  0  0  0  0
   -4.5466    7.8750    0.0000 C   0  0  0  0  0  0  0  0  0  0  0  0
  3  1  1  0
  4  2  1  0
  5  3  1  0
  6  4  1  0
  7  5  1  0
  8  6  1  0
  9  7  1  0
 10  8  1  0
 11  9  1  0
 12 10  1  0
 13 11  1  0
 14 12  1  0
 14 13  1  0
M  END
>  <NAME>  (3711) 
TETRADECANE

>  <SYNONYMS>  (3711) 


>  <SPECTRUM TYPE>  (3711) 
MS1

>  <INSTRUMENT TYPE>  (3711) 
EI-B

>  <INSTRUMENT>  (3711) 
HITACHI M-80B

>  <ION MODE>  (3711) 
P

>  <INCHIKEY>  (3711) 
BGHCVCJVXZWKCC-UHFFFAOYSA-N

>  <FORMULA>  (3711) 
C14H30

>  <EXACT MASS>  (3711) 
198.23475095999999

>  <MW>  (3711) 
198

>  <ID>  (3711) 
JP006881

>  <CONTRIBUTOR>  (3711) 
University of Tokyo Team, {Faculty of Engineering, University of Tokyo

>  <COMMENT>  (3711) 
SMILES=CCCCCCCCCCCCCC
InChI=InChI=1S/C14H30/c1-3-5-7-9-11-13-14-12-10-8-6-4-2/h3-14H2,1-2H3
computed SMILES=CCCCCCCCCCCCCC
accession=JP006881
date=2016.01.19 (Created 2008.10.21, modified 2011.05.06)
author=TAJIMA S, GUNMA COLLEGE OF TECHNOLOGY
license=CC BY-NC-SA
exact mass=198.23475
ionization energy=70 eV
ion type=[M]+*
computed spectral entropy=2.6040035390276888
computed normalized entropy=0.7324187376289719
SPLASH=splash10-052f-9000000000-358738bddc4a0cb69ad1
submitter=submitter = University of Tokyo Team (Faculty of Engineering, University of Tokyo)
MoNA Rating=3.75

>  <NUM PEAKS>  (3711) 
35

>  <MASS SPECTRAL PEAKS>  (3711) 
27 12.54
29 29.64
32 1.38
39 6.12
41 50.89
42 10.81
43 99.64
44 2.29
53 1.79
54 2.25
55 21.85
56 13.55
57 99.99
58 3.76
67 1.23
68 1.66
69 5.42
70 9.29
71 53.02
72 2.53
83 3.36
84 5.17
85 31.88
86 1.62
97 1.52
98 2.57
99 5.73
112 2.22
113 3.34
126 1.72
127 2.05
140 1.04
141 1.52
155 1.06
198 3.05

$$$$

     RDKit          2D

 14 13  0  0  0  0  0  0  0  0999 V2000
    4.5466    7.1250    0.0000 C   0  0  0  0  0  0  0  0  0  0  0  0
  -12.3409    7.8750    0.0000 C   0  0  0  0  0  0  0  0  0  0  0  0
    3.2476    7.8750    0.0000 C   0  0  0  0  0  0  0  0  0  0  0  0
  -11.0418    7.1250    0.0000 C   0  0  0  0  0  0  0  0  0  0  0  0
    1.9486    7.1250    0.0000 C   0  0  0  0  0  0  0  0  0  0  0  0
   -9.7428    7.8750    0.0000 C   0  0  0  0  0  0  0  0  0  0  0  0
    0.6495    7.8750    0.0000 C   0  0  0  0  0  0  0  0  0  0  0  0
   -8.4437    7.1250    0.0000 C   0  0  0  0  0  0  0  0  0  0  0  0
   -0.6495    7.1250    0.0000 C   0  0  0  0  0  0  0  0  0  0  0  0
   -7.1447    7.8750    0.0000 C   0  0  0  0  0  0  0  0  0  0  0  0
   -1.9486    7.8750    0.0000 C   0  0  0  0  0  0  0  0  0  0  0  0
   -5.8457    7.1250    0.0000 C   0  0  0  0  0  0  0  0  0  0  0  0
   -3.2476    7.1250    0.0000 C   0  0  0  0  0  0  0  0  0  0  0  0
   -4.5466    7.8750    0.0000 C   0  0  0  0  0  0  0  0  0  0  0  0
  3  1  2  0
  4  2  1  0
  5  3  1  0
  6  4  1  0
  7  5  1  0
  8  6  1  0
  9  7  1  0
 10  8  1  0
 11  9  1  0
 12 10  1  0
 13 11  1  0
 14 12  1  0
 14 13  1  0
M  END
>  <NAME>  (3712) 
1-TETRADECENE

>  <SYNONYMS>  (3712) 


>  <SPECTRUM TYPE>  (3712) 
MS1

>  <INSTRUMENT TYPE>  (3712) 
EI-B

>  <INSTRUMENT>  (3712) 
HITACHI M-80B

>  <ION MODE>  (3712) 
P

>  <INCHIKEY>  (3712) 
HFDVRLIODXPAHB-UHFFFAOYSA-N

>  <FORMULA>  (3712) 
C14H28

>  <EXACT MASS>  (3712) 
196.219100896

>  <MW>  (3712) 
196

>  <ID>  (3712) 
JP006880

>  <CONTRIBUTOR>  (3712) 
University of Tokyo Team, {Faculty of Engineering, University of Tokyo

>  <COMMENT>  (3712) 
SMILES=CCCCCCCCCCCCC=C
InChI=InChI=1S/C14H28/c1-3-5-7-9-11-13-14-12-10-8-6-4-2/h3H,1,4-14H2,2H3
computed SMILES=C=CCCCCCCCCCCCC
accession=JP006880
date=2016.01.19 (Created 2008.10.21, modified 2011.05.06)
author=TAJIMA S, GUNMA COLLEGE OF TECHNOLOGY
license=CC BY-NC-SA
exact mass=196.2191
ionization energy=70 eV
ion type=[M]+*
computed spectral entropy=3.0917094147558926
computed normalized entropy=0.838116141558363
SPLASH=splash10-0a4l-9000000000-2064e9ca5f6367c98603
submitter=submitter = University of Tokyo Team (Faculty of Engineering, University of Tokyo)
MoNA Rating=3.75

>  <NUM PEAKS>  (3712) 
40

>  <MASS SPECTRAL PEAKS>  (3712) 
27 22.05
28 2.07
29 45.18
39 22.67
40 3.79
41 99.99
42 23.74
43 91.4
44 2.43
53 8.48
54 13.62
55 84.47
56 55.36
57 61.91
58 2.27
65 1.04
66 1.02
67 13.19
68 11.81
69 57.85
70 49.42
71 23.85
81 4.9
82 12.75
83 55.1
84 28.99
85 10.67
96 5.54
97 36.89
98 14
99 1.35
110 2.22
111 14.22
112 8.58
125 6.2
126 4.36
139 1.15
140 1.35
168 1.43
196 2.37

$$$$

     RDKit          2D

 13 12  0  0  0  0  0  0  0  0999 V2000
    3.8971    6.7500    0.0000 C   0  0  0  0  0  0  0  0  0  0  0  0
  -11.6913    6.7500    0.0000 C   0  0  0  0  0  0  0  0  0  0  0  0
    2.5981    7.5000    0.0000 C   0  0  0  0  0  0  0  0  0  0  0  0
  -10.3923    7.5000    0.0000 C   0  0  0  0  0  0  0  0  0  0  0  0
    1.2990    6.7500    0.0000 C   0  0  0  0  0  0  0  0  0  0  0  0
   -9.0933    6.7500    0.0000 C   0  0  0  0  0  0  0  0  0  0  0  0
    0.0000    7.5000    0.0000 C   0  0  0  0  0  0  0  0  0  0  0  0
   -7.7942    7.5000    0.0000 C   0  0  0  0  0  0  0  0  0  0  0  0
   -1.2990    6.7500    0.0000 C   0  0  0  0  0  0  0  0  0  0  0  0
   -6.4952    6.7500    0.0000 C   0  0  0  0  0  0  0  0  0  0  0  0
   -2.5981    7.5000    0.0000 C   0  0  0  0  0  0  0  0  0  0  0  0
   -5.1962    7.5000    0.0000 C   0  0  0  0  0  0  0  0  0  0  0  0
   -3.8971    6.7500    0.0000 C   0  0  0  0  0  0  0  0  0  0  0  0
  3  1  1  0
  4  2  1  0
  5  3  1  0
  6  4  1  0
  7  5  1  0
  8  6  1  0
  9  7  1  0
 10  8  1  0
 11  9  1  0
 12 10  1  0
 13 11  1  0
 13 12  1  0
M  END
>  <NAME>  (3713) 
TRIDECANE

>  <SYNONYMS>  (3713) 


>  <SPECTRUM TYPE>  (3713) 
MS1

>  <INSTRUMENT TYPE>  (3713) 
EI-B

>  <INSTRUMENT>  (3713) 
HITACHI M-80B

>  <ION MODE>  (3713) 
P

>  <INCHIKEY>  (3713) 
IIYFAKIEWZDVMP-UHFFFAOYSA-N

>  <FORMULA>  (3713) 
C13H28

>  <EXACT MASS>  (3713) 
184.219100896

>  <MW>  (3713) 
184

>  <ID>  (3713) 
JP006879

>  <CONTRIBUTOR>  (3713) 
University of Tokyo Team, {Faculty of Engineering, University of Tokyo

>  <COMMENT>  (3713) 
SMILES=CCCCCCCCCCCCC
InChI=InChI=1S/C13H28/c1-3-5-7-9-11-13-12-10-8-6-4-2/h3-13H2,1-2H3
computed SMILES=CCCCCCCCCCCCC
accession=JP006879
date=2016.01.19 (Created 2008.10.21, modified 2011.05.06)
author=TAJIMA S, GUNMA COLLEGE OF TECHNOLOGY
license=CC BY-NC-SA
exact mass=184.2191
ionization energy=70 eV
ion type=[M]+*
computed spectral entropy=2.617642656293738
computed normalized entropy=0.7486449293408263
SPLASH=splash10-052f-9000000000-4ac0138633416b7e1a3c
submitter=submitter = University of Tokyo Team (Faculty of Engineering, University of Tokyo)
MoNA Rating=3.75

>  <NUM PEAKS>  (3713) 
33

>  <MASS SPECTRAL PEAKS>  (3713) 
27 14.66
28 3.91
29 30.24
32 1.81
39 7.97
41 47.19
42 11.74
43 93.58
44 3.39
53 2.16
54 1.78
55 16.18
56 16.3
57 99.99
58 3.67
67 1.58
69 4.95
70 9.85
71 54.17
72 2.75
83 2.08
84 5.91
85 26.68
86 1.62
97 1.12
98 4.23
99 4.64
112 2
113 2.69
126 1.37
127 1.98
141 1.5
184 2.91

$$$$

     RDKit          2D

 12 11  0  0  0  0  0  0  0  0999 V2000
    3.8971    6.0000    0.0000 C   0  0  0  0  0  0  0  0  0  0  0  0
  -10.3923    6.7500    0.0000 C   0  0  0  0  0  0  0  0  0  0  0  0
    2.5981    6.7500    0.0000 C   0  0  0  0  0  0  0  0  0  0  0  0
   -9.0933    6.0000    0.0000 C   0  0  0  0  0  0  0  0  0  0  0  0
    1.2990    6.0000    0.0000 C   0  0  0  0  0  0  0  0  0  0  0  0
   -7.7942    6.7500    0.0000 C   0  0  0  0  0  0  0  0  0  0  0  0
    0.0000    6.7500    0.0000 C   0  0  0  0  0  0  0  0  0  0  0  0
   -6.4952    6.0000    0.0000 C   0  0  0  0  0  0  0  0  0  0  0  0
   -1.2990    6.0000    0.0000 C   0  0  0  0  0  0  0  0  0  0  0  0
   -5.1962    6.7500    0.0000 C   0  0  0  0  0  0  0  0  0  0  0  0
   -2.5981    6.7500    0.0000 C   0  0  0  0  0  0  0  0  0  0  0  0
   -3.8971    6.0000    0.0000 C   0  0  0  0  0  0  0  0  0  0  0  0
  3  1  1  0
  4  2  1  0
  5  3  1  0
  6  4  1  0
  7  5  1  0
  8  6  1  0
  9  7  1  0
 10  8  1  0
 11  9  1  0
 12 10  1  0
 12 11  1  0
M  END
>  <NAME>  (3714) 
DODECANE

>  <SYNONYMS>  (3714) 


>  <SPECTRUM TYPE>  (3714) 
MS1

>  <INSTRUMENT TYPE>  (3714) 
EI-B

>  <INSTRUMENT>  (3714) 
HITACHI M-80B

>  <ION MODE>  (3714) 
P

>  <INCHIKEY>  (3714) 
SNRUBQQJIBEYMU-UHFFFAOYSA-N

>  <FORMULA>  (3714) 
C12H26

>  <EXACT MASS>  (3714) 
170.203450832

>  <MW>  (3714) 
170

>  <ID>  (3714) 
JP006878

>  <CONTRIBUTOR>  (3714) 
University of Tokyo Team, {Faculty of Engineering, University of Tokyo

>  <COMMENT>  (3714) 
SMILES=CCCCCCCCCCCC
InChI=InChI=1S/C12H26/c1-3-5-7-9-11-12-10-8-6-4-2/h3-12H2,1-2H3
computed SMILES=CCCCCCCCCCCC
accession=JP006878
date=2016.01.19 (Created 2008.10.21, modified 2011.05.06)
author=TAJIMA S, GUNMA COLLEGE OF TECHNOLOGY
license=CC BY-NC-SA
exact mass=170.20345
ionization energy=70 eV
ion type=[M]+*
computed spectral entropy=2.556641274692286
computed normalized entropy=0.7672522100265271
SPLASH=splash10-052f-9000000000-a4f0cf165600c30ffaef
submitter=submitter = University of Tokyo Team (Faculty of Engineering, University of Tokyo)
MoNA Rating=3.75

>  <NUM PEAKS>  (3714) 
28

>  <MASS SPECTRAL PEAKS>  (3714) 
27 19.25
28 11.48
29 30.84
39 9.51
41 47.32
42 13.14
43 99.51
44 2.52
53 2.08
54 2.11
55 18.61
56 15.71
57 99.99
58 3.34
69 3.73
70 8.28
71 47.59
72 2.53
83 1.82
84 4.8
85 24.56
86 1.69
98 3.8
99 3.25
112 1.99
113 2.66
127 1.75
170 2.9

$$$$

     RDKit          2D

 11 10  0  0  0  0  0  0  0  0999 V2000
    3.2476    5.6250    0.0000 C   0  0  0  0  0  0  0  0  0  0  0  0
   -9.7428    5.6250    0.0000 C   0  0  0  0  0  0  0  0  0  0  0  0
    1.9486    6.3750    0.0000 C   0  0  0  0  0  0  0  0  0  0  0  0
   -8.4437    6.3750    0.0000 C   0  0  0  0  0  0  0  0  0  0  0  0
    0.6495    5.6250    0.0000 C   0  0  0  0  0  0  0  0  0  0  0  0
   -7.1447    5.6250    0.0000 C   0  0  0  0  0  0  0  0  0  0  0  0
   -0.6495    6.3750    0.0000 C   0  0  0  0  0  0  0  0  0  0  0  0
   -5.8457    6.3750    0.0000 C   0  0  0  0  0  0  0  0  0  0  0  0
   -1.9486    5.6250    0.0000 C   0  0  0  0  0  0  0  0  0  0  0  0
   -4.5466    5.6250    0.0000 C   0  0  0  0  0  0  0  0  0  0  0  0
   -3.2476    6.3750    0.0000 C   0  0  0  0  0  0  0  0  0  0  0  0
  3  1  1  0
  4  2  1  0
  5  3  1  0
  6  4  1  0
  7  5  1  0
  8  6  1  0
  9  7  1  0
 10  8  1  0
 11  9  1  0
 11 10  1  0
M  END
>  <NAME>  (3715) 
UNDECANE

>  <SYNONYMS>  (3715) 


>  <SPECTRUM TYPE>  (3715) 
MS1

>  <INSTRUMENT TYPE>  (3715) 
EI-B

>  <INSTRUMENT>  (3715) 
HITACHI M-80B

>  <ION MODE>  (3715) 
P

>  <INCHIKEY>  (3715) 
RSJKGSCJYJTIGS-UHFFFAOYSA-N

>  <FORMULA>  (3715) 
C11H24

>  <EXACT MASS>  (3715) 
156.187800768

>  <MW>  (3715) 
156

>  <ID>  (3715) 
JP006877

>  <CONTRIBUTOR>  (3715) 
University of Tokyo Team, {Faculty of Engineering, University of Tokyo

>  <COMMENT>  (3715) 
SMILES=CCCCCCCCCCC
InChI=InChI=1S/C11H24/c1-3-5-7-9-11-10-8-6-4-2/h3-11H2,1-2H3
computed SMILES=CCCCCCCCCCC
accession=JP006877
date=2016.01.19 (Created 2008.10.21, modified 2011.05.06)
author=TAJIMA S, GUNMA COLLEGE OF TECHNOLOGY
license=CC BY-NC-SA
exact mass=156.1878
ionization energy=70 eV
ion type=[M]+*
computed spectral entropy=2.5312235191768764
computed normalized entropy=0.7596243002035272
SPLASH=splash10-052f-9000000000-f805eba4b3f7bc1e0ad7
submitter=submitter = University of Tokyo Team (Faculty of Engineering, University of Tokyo)
MoNA Rating=3.75

>  <NUM PEAKS>  (3715) 
28

>  <MASS SPECTRAL PEAKS>  (3715) 
27 20.5
28 3.82
29 33.83
39 9.44
40 1.28
41 45.96
42 13.32
43 99.99
44 3.16
53 2.24
54 1.49
55 15.86
56 15.52
57 94.31
58 4.39
69 2.97
70 10.24
71 41.55
72 1.5
83 1.1
84 5.56
85 20.14
98 3.48
99 3.22
112 2.02
113 2.3
127 1.6
156 3.38

$$$$

     RDKit          2D

 10  9  0  0  0  0  0  0  0  0999 V2000
   -8.4437    5.6250    0.0000 C   0  0  0  0  0  0  0  0  0  0  0  0
    3.2476    4.8750    0.0000 C   0  0  0  0  0  0  0  0  0  0  0  0
   -7.1447    4.8750    0.0000 C   0  0  0  0  0  0  0  0  0  0  0  0
    1.9486    5.6250    0.0000 C   0  0  0  0  0  0  0  0  0  0  0  0
   -5.8457    5.6250    0.0000 C   0  0  0  0  0  0  0  0  0  0  0  0
    0.6495    4.8750    0.0000 C   0  0  0  0  0  0  0  0  0  0  0  0
   -4.5466    4.8750    0.0000 C   0  0  0  0  0  0  0  0  0  0  0  0
   -0.6495    5.6250    0.0000 C   0  0  0  0  0  0  0  0  0  0  0  0
   -3.2476    5.6250    0.0000 C   0  0  0  0  0  0  0  0  0  0  0  0
   -1.9486    4.8750    0.0000 C   0  0  0  0  0  0  0  0  0  0  0  0
  3  1  1  0
  4  2  1  0
  5  3  1  0
  6  4  1  0
  7  5  1  0
  8  6  1  0
  9  7  1  0
 10  8  1  0
 10  9  1  0
M  END
>  <NAME>  (3716) 
DECANE

>  <SYNONYMS>  (3716) 


>  <SPECTRUM TYPE>  (3716) 
MS1

>  <INSTRUMENT TYPE>  (3716) 
EI-B

>  <INSTRUMENT>  (3716) 
HITACHI M-80B

>  <ION MODE>  (3716) 
P

>  <INCHIKEY>  (3716) 
DIOQZVSQGTUSAI-UHFFFAOYSA-N

>  <FORMULA>  (3716) 
C10H22

>  <EXACT MASS>  (3716) 
142.172150704

>  <MW>  (3716) 
142

>  <ID>  (3716) 
JP006876

>  <CONTRIBUTOR>  (3716) 
University of Tokyo Team, {Faculty of Engineering, University of Tokyo

>  <COMMENT>  (3716) 
SMILES=CCCCCCCCCC
InChI=InChI=1S/C10H22/c1-3-5-7-9-10-8-6-4-2/h3-10H2,1-2H3
computed SMILES=CCCCCCCCCC
accession=JP006876
date=2016.01.19 (Created 2008.10.21, modified 2011.05.06)
author=TAJIMA S, GUNMA COLLEGE OF TECHNOLOGY
license=CC BY-NC-SA
exact mass=142.17215
ionization energy=70 eV
ion type=[M]+*
computed spectral entropy=2.518956398145737
computed normalized entropy=0.7731374343116927
SPLASH=splash10-052f-9000000000-eaff23c4d9aac623bf75
submitter=submitter = University of Tokyo Team (Faculty of Engineering, University of Tokyo)
MoNA Rating=3.75

>  <NUM PEAKS>  (3716) 
26

>  <MASS SPECTRAL PEAKS>  (3716) 
27 18.53
28 2.5
29 30.17
39 9.85
41 43.49
42 13.73
43 99.99
44 2.55
53 1.99
54 1.44
55 13.08
56 17.88
57 83.01
58 3.98
69 2.87
70 9.03
71 32.6
72 1.67
84 5.88
85 22.36
86 1.37
98 3.23
99 4.24
112 1.03
113 2.16
142 5.27

$$$$

     RDKit          2D

 10  9  0  0  0  0  0  0  0  0999 V2000
   -8.4437    5.6250    0.0000 C   0  0  0  0  0  0  0  0  0  0  0  0
    3.2476    4.8750    0.0000 C   0  0  0  0  0  0  0  0  0  0  0  0
   -7.1447    4.8750    0.0000 C   0  0  0  0  0  0  0  0  0  0  0  0
    1.9486    5.6250    0.0000 C   0  0  0  0  0  0  0  0  0  0  0  0
   -5.8457    5.6250    0.0000 C   0  0  0  0  0  0  0  0  0  0  0  0
    0.6495    4.8750    0.0000 C   0  0  0  0  0  0  0  0  0  0  0  0
   -4.5466    4.8750    0.0000 C   0  0  0  0  0  0  0  0  0  0  0  0
   -0.6495    5.6250    0.0000 C   0  0  0  0  0  0  0  0  0  0  0  0
   -3.2476    5.6250    0.0000 C   0  0  0  0  0  0  0  0  0  0  0  0
   -1.9486    4.8750    0.0000 C   0  0  0  0  0  0  0  0  0  0  0  0
  3  1  2  0
  4  2  1  0
  5  3  1  0
  6  4  1  0
  7  5  1  0
  8  6  1  0
  9  7  1  0
 10  8  1  0
 10  9  1  0
M  END
>  <NAME>  (3717) 
1-DECENE

>  <SYNONYMS>  (3717) 


>  <SPECTRUM TYPE>  (3717) 
MS1

>  <INSTRUMENT TYPE>  (3717) 
EI-B

>  <INSTRUMENT>  (3717) 
HITACHI M-80B

>  <ION MODE>  (3717) 
P

>  <INCHIKEY>  (3717) 
AFFLGGQVNFXPEV-UHFFFAOYSA-N

>  <FORMULA>  (3717) 
C10H20

>  <EXACT MASS>  (3717) 
140.15650064

>  <MW>  (3717) 
140

>  <ID>  (3717) 
JP006875

>  <CONTRIBUTOR>  (3717) 
University of Tokyo Team, {Faculty of Engineering, University of Tokyo

>  <COMMENT>  (3717) 
SMILES=CCCCCCCCC=C
InChI=InChI=1S/C10H20/c1-3-5-7-9-10-8-6-4-2/h3H,1,4-10H2,2H3
computed SMILES=C=CCCCCCCCC
accession=JP006875
date=2016.01.19 (Created 2008.10.21, modified 2011.05.06)
author=TAJIMA S, GUNMA COLLEGE OF TECHNOLOGY
license=CC BY-NC-SA
exact mass=140.1565
ionization energy=70 eV
ion type=[M]+*
computed spectral entropy=3.00863786260158
computed normalized entropy=0.8155966872938251
SPLASH=splash10-0a4l-9000000000-2cde9b74457eb8636fd5
submitter=submitter = University of Tokyo Team (Faculty of Engineering, University of Tokyo)
MoNA Rating=3.75

>  <NUM PEAKS>  (3717) 
40

>  <MASS SPECTRAL PEAKS>  (3717) 
14 1.15
26 2.07
27 32.37
28 8.89
29 41.02
39 35
40 3.56
41 99.99
42 33.45
43 74.71
44 1.23
51 2.36
52 1.47
53 10.8
54 11.85
55 85.22
56 89.86
57 56.83
58 2.18
65 1.57
66 1.28
67 9.35
68 9.02
69 61.27
70 74.78
71 8.14
77 1.78
79 1.37
81 1.7
82 5.78
83 36.38
84 23.97
85 3.84
96 2.85
97 22.21
98 11.6
99 1.25
111 9.87
112 5.66
140 8.83

$$$$

     RDKit          2D

  9  8  0  0  0  0  0  0  0  0999 V2000
    2.5981    4.5000    0.0000 C   0  0  0  0  0  0  0  0  0  0  0  0
   -7.7942    4.5000    0.0000 C   0  0  0  0  0  0  0  0  0  0  0  0
    1.2990    5.2500    0.0000 C   0  0  0  0  0  0  0  0  0  0  0  0
   -6.4952    5.2500    0.0000 C   0  0  0  0  0  0  0  0  0  0  0  0
    0.0000    4.5000    0.0000 C   0  0  0  0  0  0  0  0  0  0  0  0
   -5.1962    4.5000    0.0000 C   0  0  0  0  0  0  0  0  0  0  0  0
   -1.2990    5.2500    0.0000 C   0  0  0  0  0  0  0  0  0  0  0  0
   -3.8971    5.2500    0.0000 C   0  0  0  0  0  0  0  0  0  0  0  0
   -2.5981    4.5000    0.0000 C   0  0  0  0  0  0  0  0  0  0  0  0
  3  1  1  0
  4  2  1  0
  5  3  1  0
  6  4  1  0
  7  5  1  0
  8  6  1  0
  9  7  1  0
  9  8  1  0
M  END
>  <NAME>  (3718) 
NONANE

>  <SYNONYMS>  (3718) 


>  <SPECTRUM TYPE>  (3718) 
MS1

>  <INSTRUMENT TYPE>  (3718) 
EI-B

>  <INSTRUMENT>  (3718) 
HITACHI M-80B

>  <ION MODE>  (3718) 
P

>  <INCHIKEY>  (3718) 
BKIMMITUMNQMOS-UHFFFAOYSA-N

>  <FORMULA>  (3718) 
C9H20

>  <EXACT MASS>  (3718) 
128.15650064

>  <MW>  (3718) 
128

>  <ID>  (3718) 
JP006874

>  <CONTRIBUTOR>  (3718) 
University of Tokyo Team, {Faculty of Engineering, University of Tokyo

>  <COMMENT>  (3718) 
SMILES=CCCCCCCCC
InChI=InChI=1S/C9H20/c1-3-5-7-9-8-6-4-2/h3-9H2,1-2H3
computed SMILES=CCCCCCCCC
accession=JP006874
date=2016.01.19 (Created 2008.10.21, modified 2011.05.06)
author=TAJIMA S, GUNMA COLLEGE OF TECHNOLOGY
license=CC BY-NC-SA
exact mass=128.1565
ionization energy=70 eV
ion type=[M]+*
computed spectral entropy=2.506461576131916
computed normalized entropy=0.7693024276235825
SPLASH=splash10-052f-9000000000-bbdcc7cfbce99dcd0a5f
submitter=submitter = University of Tokyo Team (Faculty of Engineering, University of Tokyo)
MoNA Rating=3.75

>  <NUM PEAKS>  (3718) 
26

>  <MASS SPECTRAL PEAKS>  (3718) 
15 1.14
26 1.47
27 22.61
28 3.38
29 35.91
39 14.23
40 1.2
41 43.04
42 17
43 99.99
44 2.4
53 1.79
54 1.66
55 13.79
56 14.63
57 66.61
58 2.25
70 9.38
71 18.01
72 1.07
84 5.31
85 19.81
86 1.01
98 1.93
99 3.5
128 3.9

$$$$

     RDKit          2D

  8  7  0  0  0  0  0  0  0  0999 V2000
   -6.4952    4.5000    0.0000 C   0  0  0  0  0  0  0  0  0  0  0  0
    2.5981    3.7500    0.0000 C   0  0  0  0  0  0  0  0  0  0  0  0
   -5.1962    3.7500    0.0000 C   0  0  0  0  0  0  0  0  0  0  0  0
    1.2990    4.5000    0.0000 C   0  0  0  0  0  0  0  0  0  0  0  0
   -3.8971    4.5000    0.0000 C   0  0  0  0  0  0  0  0  0  0  0  0
    0.0000    3.7500    0.0000 C   0  0  0  0  0  0  0  0  0  0  0  0
   -2.5981    3.7500    0.0000 C   0  0  0  0  0  0  0  0  0  0  0  0
   -1.2990    4.5000    0.0000 C   0  0  0  0  0  0  0  0  0  0  0  0
  3  1  1  0
  4  2  1  0
  5  3  1  0
  6  4  1  0
  7  5  1  0
  8  6  1  0
  8  7  1  0
M  END
>  <NAME>  (3719) 
OCTANE

>  <SYNONYMS>  (3719) 


>  <SPECTRUM TYPE>  (3719) 
MS1

>  <INSTRUMENT TYPE>  (3719) 
EI-B

>  <INSTRUMENT>  (3719) 
HITACHI M-80B

>  <ION MODE>  (3719) 
P

>  <INCHIKEY>  (3719) 
TVMXDCGIABBOFY-UHFFFAOYSA-N

>  <FORMULA>  (3719) 
C8H18

>  <EXACT MASS>  (3719) 
114.14085057599999

>  <MW>  (3719) 
114

>  <ID>  (3719) 
JP006873

>  <CONTRIBUTOR>  (3719) 
University of Tokyo Team, {Faculty of Engineering, University of Tokyo

>  <COMMENT>  (3719) 
SMILES=CCCCCCCC
InChI=InChI=1S/C8H18/c1-3-5-7-8-6-4-2/h3-8H2,1-2H3
computed SMILES=CCCCCCCC
accession=JP006873
date=2016.01.19 (Created 2008.10.21, modified 2011.05.06)
author=TAJIMA S, GUNMA COLLEGE OF TECHNOLOGY
license=CC BY-NC-SA
exact mass=114.14085
ionization energy=70 eV
ion type=[M]+*
computed spectral entropy=2.5016609680837365
computed normalized entropy=0.8093259817139568
SPLASH=splash10-0006-9000000000-d2e1916d68421b915616
submitter=submitter = University of Tokyo Team (Faculty of Engineering, University of Tokyo)
MoNA Rating=3.75

>  <NUM PEAKS>  (3719) 
22

>  <MASS SPECTRAL PEAKS>  (3719) 
26 1.24
27 22.93
29 33.63
32 1.36
39 14.21
40 1.56
41 41.61
42 16.17
43 99.99
44 3.03
53 2.23
55 11.46
56 19.58
57 36.96
58 1.9
70 14.09
71 22.74
72 1.35
84 5.96
85 33.01
86 1.83
114 5.16

$$$$

     RDKit          2D

  8  7  0  0  0  0  0  0  0  0999 V2000
   -6.4952    4.5000    0.0000 C   0  0  0  0  0  0  0  0  0  0  0  0
    2.5981    3.7500    0.0000 C   0  0  0  0  0  0  0  0  0  0  0  0
   -5.1962    3.7500    0.0000 C   0  0  0  0  0  0  0  0  0  0  0  0
    1.2990    4.5000    0.0000 C   0  0  0  0  0  0  0  0  0  0  0  0
   -3.8971    4.5000    0.0000 C   0  0  0  0  0  0  0  0  0  0  0  0
    0.0000    3.7500    0.0000 C   0  0  0  0  0  0  0  0  0  0  0  0
   -2.5981    3.7500    0.0000 C   0  0  0  0  0  0  0  0  0  0  0  0
   -1.2990    4.5000    0.0000 C   0  0  0  0  0  0  0  0  0  0  0  0
  3  1  1  0
  4  2  1  0
  3  5  2  0
  6  4  1  0
  7  5  1  0
  8  6  1  0
  8  7  1  0
M  END
>  <NAME>  (3720) 
2-OCTENE

>  <SYNONYMS>  (3720) 


>  <SPECTRUM TYPE>  (3720) 
MS1

>  <INSTRUMENT TYPE>  (3720) 
EI-B

>  <INSTRUMENT>  (3720) 
HITACHI M-80B

>  <ION MODE>  (3720) 
P

>  <INCHIKEY>  (3720) 
ILPBINAXDRFYPL-HWKANZROSA-N

>  <FORMULA>  (3720) 
C8H16

>  <EXACT MASS>  (3720) 
112.12520051199999

>  <MW>  (3720) 
112

>  <ID>  (3720) 
JP006872

>  <CONTRIBUTOR>  (3720) 
University of Tokyo Team, {Faculty of Engineering, University of Tokyo

>  <COMMENT>  (3720) 
SMILES=CCCCCC=CC
InChI=InChI=1S/C8H16/c1-3-5-7-8-6-4-2/h3,5H,4,6-8H2,1-2H3/b5-3+
computed SMILES=C(=CCCCCC)C
accession=JP006872
date=2016.01.19 (Created 2008.10.21, modified 2011.05.06)
author=TAJIMA S, GUNMA COLLEGE OF TECHNOLOGY
license=CC BY-NC-SA
exact mass=112.1252
ionization energy=70 eV
ion type=[M]+*
computed spectral entropy=2.8259277384879304
computed normalized entropy=0.8229290239628655
SPLASH=splash10-0a6u-9000000000-2085eaf23c9989baffb3
submitter=submitter = University of Tokyo Team (Faculty of Engineering, University of Tokyo)
MoNA Rating=3.75

>  <NUM PEAKS>  (3720) 
31

>  <MASS SPECTRAL PEAKS>  (3720) 
15 1.5
26 2.36
27 37.73
28 8.39
29 52.94
38 1.65
39 38.81
40 6.06
41 90.26
42 41.97
43 14.57
50 1.47
51 3.01
52 1.57
53 12.84
54 11.07
55 99.99
56 62.83
57 22.58
65 1.43
67 6.74
68 5.61
69 32.67
70 53.41
71 4.98
82 1.77
83 20.7
84 9.6
97 1.82
112 32.99
113 2.29

$$$$

     RDKit          2D

  8  7  0  0  0  0  0  0  0  0999 V2000
   -6.4952    4.5000    0.0000 C   0  0  0  0  0  0  0  0  0  0  0  0
    2.5981    3.7500    0.0000 C   0  0  0  0  0  0  0  0  0  0  0  0
   -5.1962    3.7500    0.0000 C   0  0  0  0  0  0  0  0  0  0  0  0
    1.2990    4.5000    0.0000 C   0  0  0  0  0  0  0  0  0  0  0  0
   -3.8971    4.5000    0.0000 C   0  0  0  0  0  0  0  0  0  0  0  0
    0.0000    3.7500    0.0000 C   0  0  0  0  0  0  0  0  0  0  0  0
   -2.5981    3.7500    0.0000 C   0  0  0  0  0  0  0  0  0  0  0  0
   -1.2990    4.5000    0.0000 C   0  0  0  0  0  0  0  0  0  0  0  0
  3  1  2  0
  4  2  1  0
  5  3  1  0
  6  4  1  0
  7  5  1  0
  8  6  1  0
  8  7  1  0
M  END
>  <NAME>  (3721) 
1-OCTENE

>  <SYNONYMS>  (3721) 


>  <SPECTRUM TYPE>  (3721) 
MS1

>  <INSTRUMENT TYPE>  (3721) 
EI-B

>  <INSTRUMENT>  (3721) 
HITACHI M-80B

>  <ION MODE>  (3721) 
P

>  <INCHIKEY>  (3721) 
KWKAKUADMBZCLK-UHFFFAOYSA-N

>  <FORMULA>  (3721) 
C8H16

>  <EXACT MASS>  (3721) 
112.12520051199999

>  <MW>  (3721) 
112

>  <ID>  (3721) 
JP006871

>  <CONTRIBUTOR>  (3721) 
University of Tokyo Team, {Faculty of Engineering, University of Tokyo

>  <COMMENT>  (3721) 
SMILES=CCCCCCC=C
InChI=InChI=1S/C8H16/c1-3-5-7-8-6-4-2/h3H,1,4-8H2,2H3
computed SMILES=C=CCCCCCC
accession=JP006871
date=2016.01.19 (Created 2008.10.21, modified 2011.05.06)
author=TAJIMA S, GUNMA COLLEGE OF TECHNOLOGY
license=CC BY-NC-SA
exact mass=112.1252
ionization energy=70 eV
ion type=[M]+*
computed spectral entropy=2.85673696669769
computed normalized entropy=0.8101091612034311
SPLASH=splash10-052f-9000000000-6cb6889208c6913b8488
submitter=submitter = University of Tokyo Team (Faculty of Engineering, University of Tokyo)
MoNA Rating=3.75

>  <NUM PEAKS>  (3721) 
34

>  <MASS SPECTRAL PEAKS>  (3721) 
15 1.51
26 2.56
27 40.61
28 6.91
29 44.8
30 1.09
38 2.17
39 46.9
40 6.64
41 94.33
42 63.85
43 97.84
44 3.48
50 1.8
51 3.69
52 1.98
53 11.41
54 11
55 99.99
56 81.64
57 16.67
65 1.53
67 6.19
68 7.05
69 43.63
70 84.6
71 12.37
82 4.78
83 35.37
84 22.08
85 1.49
97 3.53
112 15.54
113 1.33

$$$$

     RDKit          2D

 11 12  0  0  0  0  0  0  0  0999 V2000
    1.9500   -0.9000    0.0000 C   0  0  0  0  0  0  0  0  0  0  0  0
    0.6300   -1.6600    0.0000 C   0  0  0  0  0  0  0  0  0  0  0  0
    0.6300    1.3800    0.0000 C   0  0  0  0  0  0  0  0  0  0  0  0
    3.2486    1.3708    0.0000 C   0  0  0  0  0  0  0  0  0  0  0  0
   -2.9400   -0.2300    0.0000 C   0  0  0  0  0  0  0  0  0  0  0  0
    1.9500    0.6200    0.0000 C   0  0  0  0  0  0  0  0  0  0  0  0
   -0.6600   -0.9000    0.0000 C   0  0  0  0  0  0  0  0  0  0  0  0
   -0.6600    0.6200    0.0000 C   0  0  0  0  0  0  0  0  0  0  0  0
    4.5481    0.6216    0.0000 O   0  0  0  0  0  0  0  0  0  0  0  0
   -2.0600   -1.3400    0.0000 O   0  0  0  0  0  0  0  0  0  0  0  0
   -2.0900    1.0600    0.0000 O   0  0  0  0  0  0  0  0  0  0  0  0
  2  1  2  0
  6  1  1  0
  6  3  2  0
  6  4  1  0
  7  2  1  0
  8  3  1  0
  8  7  2  0
  9  4  1  0
 10  5  1  0
 10  7  1  0
 11  5  1  0
 11  8  1  0
M  END
>  <NAME>  (3722) 
PIPERONYL ALCOHOL

>  <SYNONYMS>  (3722) 
3,4-METHYLENEDIOXYBENZYL ALCOHOL

>  <SPECTRUM TYPE>  (3722) 
MS1

>  <INSTRUMENT TYPE>  (3722) 
EI-B

>  <INSTRUMENT>  (3722) 
HITACHI M-80B

>  <ION MODE>  (3722) 
P

>  <INCHIKEY>  (3722) 
BHUIUXNAPJIDOG-UHFFFAOYSA-N

>  <FORMULA>  (3722) 
C8H8O3

>  <EXACT MASS>  (3722) 
152.04734411599998

>  <MW>  (3722) 
152

>  <ID>  (3722) 
JP006870

>  <CONTRIBUTOR>  (3722) 
University of Tokyo Team, {Faculty of Engineering, University of Tokyo

>  <COMMENT>  (3722) 
SMILES=OCc(c1)cc(O2)c(OC2)c1
InChI=InChI=1S/C8H8O3/c9-4-6-1-2-7-8(3-6)11-5-10-7/h1-3,9H,4-5H2
computed SMILES=OCC1=CC=C2OCOC2=C1
accession=JP006870
date=2016.01.19 (Created 2008.10.21, modified 2011.05.06)
author=TAJIMA S, GUNMA COLLEGE OF TECHNOLOGY
license=CC BY-NC-SA
exact mass=152.04734
ionization energy=70 eV
ion type=[M]+*
computed spectral entropy=3.158911505416971
computed normalized entropy=0.820465039837415
SPLASH=splash10-0udu-9700000000-26874537cce305fbbfb1
submitter=submitter = University of Tokyo Team (Faculty of Engineering, University of Tokyo)
MoNA Rating=3.75

>  <NUM PEAKS>  (3722) 
47

>  <MASS SPECTRAL PEAKS>  (3722) 
26 1.51
27 3.46
29 11.22
30 1.68
31 5.9
37 2.23
38 5.26
39 23.53
40 3.73
41 2.07
42 1.37
43 1.05
50 9.15
51 15.87
52 2.29
53 6.9
55 3.56
61 3.15
62 6.62
63 17.58
64 4
65 44.66
66 14.91
67 3.13
74 2.59
75 5.13
76 2.74
77 19.19
78 2.23
79 2.92
81 1.05
91 2.27
93 52.28
94 21.57
95 3.25
105 5.27
121 13.77
122 21.86
123 22.6
124 1.7
135 48.07
136 3.47
149 4.56
150 1.71
151 32.81
152 99.99
153 7.7

$$$$

     RDKit          2D

 17 16  0  0  0  0  0  0  0  0999 V2000
  -15.5885    9.0000    0.0000 C   0  0  0  0  0  0  0  0  0  0  0  0
  -14.2894    8.2500    0.0000 C   0  0  0  0  0  0  0  0  0  0  0  0
  -12.9904    9.0000    0.0000 C   0  0  0  0  0  0  0  0  0  0  0  0
  -11.6913    8.2500    0.0000 C   0  0  0  0  0  0  0  0  0  0  0  0
  -10.3923    9.0000    0.0000 C   0  0  0  0  0  0  0  0  0  0  0  0
   -9.0933    8.2500    0.0000 C   0  0  0  0  0  0  0  0  0  0  0  0
   -7.7942    9.0000    0.0000 C   0  0  0  0  0  0  0  0  0  0  0  0
   -6.4952    8.2500    0.0000 C   0  0  0  0  0  0  0  0  0  0  0  0
   -5.1962    9.0000    0.0000 C   0  0  0  0  0  0  0  0  0  0  0  0
   -3.8971    8.2500    0.0000 C   0  0  0  0  0  0  0  0  0  0  0  0
   -2.5981    9.0000    0.0000 C   0  0  0  0  0  0  0  0  0  0  0  0
   -1.2990    8.2500    0.0000 C   0  0  0  0  0  0  0  0  0  0  0  0
    0.0000    9.0000    0.0000 C   0  0  0  0  0  0  0  0  0  0  0  0
    1.2990    8.2500    0.0000 C   0  0  0  0  0  0  0  0  0  0  0  0
    2.5981    9.0000    0.0000 C   0  0  0  0  0  0  0  0  0  0  0  0
    3.8971    8.2500    0.0000 C   0  0  0  0  0  0  0  0  0  0  0  0
    5.1962    9.0000    0.0000 O   0  0  0  0  0  0  0  0  0  0  0  0
  2  1  1  0
  3  2  1  0
  4  3  1  0
  5  4  1  0
  6  5  1  0
  7  6  1  0
  8  7  1  0
  9  8  1  0
 10  9  1  0
 11 10  1  0
 12 11  1  0
 13 12  1  0
 14 13  1  0
 15 14  1  0
 16 15  1  0
 17 16  1  0
M  END
>  <NAME>  (3723) 
HEXADECANOL

>  <SYNONYMS>  (3723) 


>  <SPECTRUM TYPE>  (3723) 
MS1

>  <INSTRUMENT TYPE>  (3723) 
EI-B

>  <INSTRUMENT>  (3723) 
HITACHI M-80B

>  <ION MODE>  (3723) 
P

>  <INCHIKEY>  (3723) 
BXWNKGSJHAJOGX-UHFFFAOYSA-N

>  <FORMULA>  (3723) 
C16H34O

>  <EXACT MASS>  (3723) 
242.26096570800001

>  <MW>  (3723) 
242

>  <ID>  (3723) 
JP006869

>  <CONTRIBUTOR>  (3723) 
University of Tokyo Team, {Faculty of Engineering, University of Tokyo

>  <COMMENT>  (3723) 
SMILES=CCCCCCCCCCCCCCCCO
InChI=InChI=1S/C16H34O/c1-2-3-4-5-6-7-8-9-10-11-12-13-14-15-16-17/h17H,2-16H2,1H3
computed SMILES=OCCCCCCCCCCCCCCCC
accession=JP006869
date=2016.01.19 (Created 2008.10.21, modified 2011.05.06)
author=TAJIMA S, GUNMA COLLEGE OF TECHNOLOGY
license=CC BY-NC-SA
exact mass=242.26097
ionization energy=70 eV
ion type=[M]+*
computed spectral entropy=3.165927383491433
computed normalized entropy=0.8641665377286781
SPLASH=splash10-0a4l-9000000000-1be6f87af09f0bc4339f
submitter=submitter = University of Tokyo Team (Faculty of Engineering, University of Tokyo)
MoNA Rating=3.75

>  <NUM PEAKS>  (3723) 
39

>  <MASS SPECTRAL PEAKS>  (3723) 
27 16.93
29 31.17
31 25.97
39 10.94
41 81.58
42 20.85
43 97.22
44 6.54
45 1.12
53 3.79
54 10.8
55 99.99
56 48.33
57 73.27
58 3.87
67 14.44
68 31.57
69 72.53
70 43.51
71 30.2
73 1.48
81 7.62
82 32.72
83 76.38
84 29.21
85 15.64
95 1.71
96 11.73
97 50.94
98 18.86
99 1.58
110 4.12
111 24.98
112 11.01
125 11.28
126 6.14
139 1.73
140 2.56
154 1.92

$$$$

     RDKit          2D

 15 14  0  0  0  0  0  0  0  0999 V2000
    4.5466    7.8750    0.0000 C   0  0  0  0  0  0  0  0  0  0  0  0
    3.2476    8.6250    0.0000 C   0  0  0  0  0  0  0  0  0  0  0  0
    1.9486    7.8750    0.0000 C   0  0  0  0  0  0  0  0  0  0  0  0
    0.6495    8.6250    0.0000 C   0  0  0  0  0  0  0  0  0  0  0  0
   -0.6495    7.8750    0.0000 C   0  0  0  0  0  0  0  0  0  0  0  0
   -1.9486    8.6250    0.0000 C   0  0  0  0  0  0  0  0  0  0  0  0
   -3.2476    7.8750    0.0000 C   0  0  0  0  0  0  0  0  0  0  0  0
   -4.5466    8.6250    0.0000 C   0  0  0  0  0  0  0  0  0  0  0  0
   -5.8457    7.8750    0.0000 C   0  0  0  0  0  0  0  0  0  0  0  0
   -7.1447    8.6250    0.0000 C   0  0  0  0  0  0  0  0  0  0  0  0
   -8.4437    7.8750    0.0000 C   0  0  0  0  0  0  0  0  0  0  0  0
   -9.7428    8.6250    0.0000 C   0  0  0  0  0  0  0  0  0  0  0  0
  -11.0418    7.8750    0.0000 C   0  0  0  0  0  0  0  0  0  0  0  0
  -12.3409    8.6250    0.0000 C   0  0  0  0  0  0  0  0  0  0  0  0
  -13.6399    7.8750    0.0000 O   0  0  0  0  0  0  0  0  0  0  0  0
  2  1  1  0
  3  2  1  0
  4  3  1  0
  5  4  1  0
  6  5  1  0
  7  6  1  0
  8  7  1  0
  9  8  1  0
 10  9  1  0
 11 10  1  0
 12 11  1  0
 13 12  1  0
 14 13  1  0
 15 14  1  0
M  END
>  <NAME>  (3724) 
TETRADECANOL

>  <SYNONYMS>  (3724) 


>  <SPECTRUM TYPE>  (3724) 
MS1

>  <INSTRUMENT TYPE>  (3724) 
EI-B

>  <INSTRUMENT>  (3724) 
HITACHI M-80B

>  <ION MODE>  (3724) 
P

>  <INCHIKEY>  (3724) 
HLZKNKRTKFSKGZ-UHFFFAOYSA-N

>  <FORMULA>  (3724) 
C14H30O

>  <EXACT MASS>  (3724) 
214.22966558000002

>  <MW>  (3724) 
214

>  <ID>  (3724) 
JP006868

>  <CONTRIBUTOR>  (3724) 
University of Tokyo Team, {Faculty of Engineering, University of Tokyo

>  <COMMENT>  (3724) 
SMILES=CCCCCCCCCCCCCCO
InChI=InChI=1S/C14H30O/c1-2-3-4-5-6-7-8-9-10-11-12-13-14-15/h15H,2-14H2,1H3
computed SMILES=OCCCCCCCCCCCCCC
accession=JP006868
date=2016.01.19 (Created 2008.10.21, modified 2011.05.06)
author=TAJIMA S, GUNMA COLLEGE OF TECHNOLOGY
license=CC BY-NC-SA
exact mass=214.22967
ionization energy=70 eV
ion type=[M]+*
computed spectral entropy=3.1569447701186246
computed normalized entropy=0.8678680398201443
SPLASH=splash10-0a4l-9000000000-32d5eef1c4d74b3ec3ba
submitter=submitter = University of Tokyo Team (Faculty of Engineering, University of Tokyo)
MoNA Rating=3.75

>  <NUM PEAKS>  (3724) 
38

>  <MASS SPECTRAL PEAKS>  (3724) 
27 19.04
29 42.19
31 30.36
39 14.99
40 5.84
41 85.23
42 28.04
43 98.11
45 1.39
53 3.74
54 10.26
55 99.99
56 54.78
57 63.63
58 3.76
67 11.7
68 33
69 70.19
70 53.83
71 25.21
72 1.13
81 5.52
82 31.04
83 65.95
84 35.3
85 15.37
95 1.24
96 10.48
97 46.35
98 17.65
110 1.96
111 19.78
112 10.85
125 9.84
126 7.1
139 1.07
140 3.14
168 2.75

$$$$

     RDKit          2D

 14 13  0  0  0  0  0  0  0  0999 V2000
    3.8971    6.7500    0.0000 C   0  0  0  0  0  0  0  0  0  0  0  0
  -11.6913    6.7500    0.0000 C   0  0  0  0  0  0  0  0  0  0  0  0
    2.5981    7.5000    0.0000 C   0  0  0  0  0  0  0  0  0  0  0  0
    1.2990    6.7500    0.0000 C   0  0  0  0  0  0  0  0  0  0  0  0
    0.0000    7.5000    0.0000 C   0  0  0  0  0  0  0  0  0  0  0  0
   -1.2990    6.7500    0.0000 C   0  0  0  0  0  0  0  0  0  0  0  0
   -2.5981    7.5000    0.0000 C   0  0  0  0  0  0  0  0  0  0  0  0
   -3.8971    6.7500    0.0000 C   0  0  0  0  0  0  0  0  0  0  0  0
   -5.1962    7.5000    0.0000 C   0  0  0  0  0  0  0  0  0  0  0  0
   -6.4952    6.7500    0.0000 C   0  0  0  0  0  0  0  0  0  0  0  0
   -7.7942    7.5000    0.0000 C   0  0  0  0  0  0  0  0  0  0  0  0
   -9.0933    6.7500    0.0000 C   0  0  0  0  0  0  0  0  0  0  0  0
  -10.3923    7.5000    0.0000 C   0  0  0  0  0  0  0  0  0  0  0  0
  -10.3923    9.0000    0.0000 O   0  0  0  0  0  0  0  0  0  0  0  0
  3  1  1  0
  4  3  1  0
  5  4  1  0
  6  5  1  0
  7  6  1  0
  8  7  1  0
  9  8  1  0
 10  9  1  0
 11 10  1  0
 12 11  1  0
 13  2  1  0
 13 12  1  0
 14 13  1  0
M  END
>  <NAME>  (3725) 
2-TRIDECANOL

>  <SYNONYMS>  (3725) 


>  <SPECTRUM TYPE>  (3725) 
MS1

>  <INSTRUMENT TYPE>  (3725) 
EI-B

>  <INSTRUMENT>  (3725) 
HITACHI M-80B

>  <ION MODE>  (3725) 
P

>  <INCHIKEY>  (3725) 
HKOLRKVMHVYNGG-UHFFFAOYSA-N

>  <FORMULA>  (3725) 
C13H28O

>  <EXACT MASS>  (3725) 
200.21401551600002

>  <MW>  (3725) 
200

>  <ID>  (3725) 
JP006867

>  <CONTRIBUTOR>  (3725) 
University of Tokyo Team, {Faculty of Engineering, University of Tokyo

>  <COMMENT>  (3725) 
SMILES=CCCCCCCCCCCC(C)O
InChI=InChI=1S/C13H28O/c1-3-4-5-6-7-8-9-10-11-12-13(2)14/h13-14H,3-12H2,1-2H3
computed SMILES=OC(C)CCCCCCCCCCC
accession=JP006867
date=2016.01.19 (Created 2008.10.21, modified 2011.05.06)
author=TAJIMA S, GUNMA COLLEGE OF TECHNOLOGY
license=CC BY-NC-SA
exact mass=200.21402
ionization energy=70 eV
ion type=[M]+*
computed spectral entropy=2.734562311439604
computed normalized entropy=0.7754630566984515
SPLASH=splash10-0002-9000000000-3c1e9a925d9920150b99
submitter=submitter = University of Tokyo Team (Faculty of Engineering, University of Tokyo)
MoNA Rating=3.75

>  <NUM PEAKS>  (3725) 
34

>  <MASS SPECTRAL PEAKS>  (3725) 
27 5.27
29 9.7
39 2.61
41 19.61
42 5.19
43 22.28
44 5
45 99.99
46 1.72
53 1.05
54 1.34
55 17.68
56 9.27
57 16.96
58 2.26
67 1.87
68 1.22
69 13.2
70 8
71 7.87
82 1.98
83 10.34
84 5.13
85 4.78
96 1.35
97 9.81
98 4.01
111 5.91
112 2.19
125 1.98
126 1.21
154 2.32
182 1.77
185 1.45

$$$$

     RDKit          2D

 13 12  0  0  0  0  0  0  0  0999 V2000
    3.8971    6.7500    0.0000 C   0  0  0  0  0  0  0  0  0  0  0  0
    2.5981    7.5000    0.0000 C   0  0  0  0  0  0  0  0  0  0  0  0
    1.2990    6.7500    0.0000 C   0  0  0  0  0  0  0  0  0  0  0  0
    0.0000    7.5000    0.0000 C   0  0  0  0  0  0  0  0  0  0  0  0
   -1.2990    6.7500    0.0000 C   0  0  0  0  0  0  0  0  0  0  0  0
   -2.5981    7.5000    0.0000 C   0  0  0  0  0  0  0  0  0  0  0  0
   -3.8971    6.7500    0.0000 C   0  0  0  0  0  0  0  0  0  0  0  0
   -5.1962    7.5000    0.0000 C   0  0  0  0  0  0  0  0  0  0  0  0
   -6.4952    6.7500    0.0000 C   0  0  0  0  0  0  0  0  0  0  0  0
   -7.7942    7.5000    0.0000 C   0  0  0  0  0  0  0  0  0  0  0  0
   -9.0933    6.7500    0.0000 C   0  0  0  0  0  0  0  0  0  0  0  0
  -10.3923    7.5000    0.0000 C   0  0  0  0  0  0  0  0  0  0  0  0
  -11.6913    6.7500    0.0000 O   0  0  0  0  0  0  0  0  0  0  0  0
  2  1  1  0
  3  2  1  0
  4  3  1  0
  5  4  1  0
  6  5  1  0
  7  6  1  0
  8  7  1  0
  9  8  1  0
 10  9  1  0
 11 10  1  0
 12 11  1  0
 13 12  1  0
M  END
>  <NAME>  (3726) 
DODECANOL

>  <SYNONYMS>  (3726) 


>  <SPECTRUM TYPE>  (3726) 
MS1

>  <INSTRUMENT TYPE>  (3726) 
EI-B

>  <INSTRUMENT>  (3726) 
HITACHI M-80B

>  <ION MODE>  (3726) 
P

>  <INCHIKEY>  (3726) 
LQZZUXJYWNFBMV-UHFFFAOYSA-N

>  <FORMULA>  (3726) 
C12H26O

>  <EXACT MASS>  (3726) 
186.198365452

>  <MW>  (3726) 
186

>  <ID>  (3726) 
JP006866

>  <CONTRIBUTOR>  (3726) 
University of Tokyo Team, {Faculty of Engineering, University of Tokyo

>  <COMMENT>  (3726) 
SMILES=CCCCCCCCCCCCO
InChI=InChI=1S/C12H26O/c1-2-3-4-5-6-7-8-9-10-11-12-13/h13H,2-12H2,1H3
computed SMILES=OCCCCCCCCCCCC
accession=JP006866
date=2016.01.19 (Created 2008.10.21, modified 2011.05.06)
author=TAJIMA S, GUNMA COLLEGE OF TECHNOLOGY
license=CC BY-NC-SA
exact mass=186.19837
ionization energy=70 eV
ion type=[M]+*
computed spectral entropy=3.1421563413477647
computed normalized entropy=0.8303379706936842
SPLASH=splash10-0a4l-9000000000-0265898e793080c75dbb
submitter=submitter = University of Tokyo Team (Faculty of Engineering, University of Tokyo)
MoNA Rating=3.75

>  <NUM PEAKS>  (3726) 
44

>  <MASS SPECTRAL PEAKS>  (3726) 
15 1.06
27 20.53
29 44.87
30 1.13
31 39.1
39 15.66
40 1.75
41 89.53
42 32.27
43 96.45
44 3.67
45 2.75
53 5.53
54 8.16
55 99.99
56 71.97
57 59.91
58 3.17
67 9.47
68 29.7
69 76.3
70 67.25
71 16.24
72 1.19
73 2.2
81 3.45
82 21.68
83 60.85
84 39.18
85 8.65
96 5.95
97 37.42
98 18.75
99 2.03
110 2.49
111 15.46
112 9.61
124 1.04
125 4.69
126 2.66
139 1.72
140 7.9
141 1.7
168 2.11

$$$$

     RDKit          2D

 12 11  0  0  0  0  0  0  0  0999 V2000
   -9.7428    5.6250    0.0000 C   0  0  0  0  0  0  0  0  0  0  0  0
    3.2476    5.6250    0.0000 C   0  0  0  0  0  0  0  0  0  0  0  0
   -8.4437    4.8750    0.0000 C   0  0  0  0  0  0  0  0  0  0  0  0
    1.9486    4.8750    0.0000 C   0  0  0  0  0  0  0  0  0  0  0  0
   -7.1447    5.6250    0.0000 C   0  0  0  0  0  0  0  0  0  0  0  0
   -5.8457    4.8750    0.0000 C   0  0  0  0  0  0  0  0  0  0  0  0
   -4.5466    5.6250    0.0000 C   0  0  0  0  0  0  0  0  0  0  0  0
   -3.2476    4.8750    0.0000 C   0  0  0  0  0  0  0  0  0  0  0  0
   -1.9486    5.6250    0.0000 C   0  0  0  0  0  0  0  0  0  0  0  0
   -0.6495    4.8750    0.0000 C   0  0  0  0  0  0  0  0  0  0  0  0
    0.6495    5.6250    0.0000 C   0  0  0  0  0  0  0  0  0  0  0  0
    0.6495    7.1250    0.0000 O   0  0  0  0  0  0  0  0  0  0  0  0
  3  1  1  0
  4  2  1  0
  5  3  1  0
  6  5  1  0
  7  6  1  0
  8  7  1  0
  9  8  1  0
 10  9  1  0
 11  4  1  0
 11 10  1  0
 12 11  1  0
M  END
>  <NAME>  (3727) 
3-UNDECANOL

>  <SYNONYMS>  (3727) 


>  <SPECTRUM TYPE>  (3727) 
MS1

>  <INSTRUMENT TYPE>  (3727) 
EI-B

>  <INSTRUMENT>  (3727) 
HITACHI M-80B

>  <ION MODE>  (3727) 
P

>  <INCHIKEY>  (3727) 
HCARCYFXWDRVBZ-UHFFFAOYSA-N

>  <FORMULA>  (3727) 
C11H24O

>  <EXACT MASS>  (3727) 
172.182715388

>  <MW>  (3727) 
172

>  <ID>  (3727) 
JP006865

>  <CONTRIBUTOR>  (3727) 
University of Tokyo Team, {Faculty of Engineering, University of Tokyo

>  <COMMENT>  (3727) 
SMILES=CCCCCCCCC(O)CC
InChI=InChI=1S/C11H24O/c1-3-5-6-7-8-9-10-11(12)4-2/h11-12H,3-10H2,1-2H3
computed SMILES=OC(CC)CCCCCCCC
accession=JP006865
date=2016.01.19 (Created 2008.10.21, modified 2011.05.06)
author=TAJIMA S, GUNMA COLLEGE OF TECHNOLOGY
license=CC BY-NC-SA
exact mass=172.18272
ionization energy=70 eV
ion type=[M]+*
computed spectral entropy=2.7234910478762946
computed normalized entropy=0.7723234844720654
SPLASH=splash10-0a4i-9000000000-d68b7a641541f2f0a813
submitter=submitter = University of Tokyo Team (Faculty of Engineering, University of Tokyo)
MoNA Rating=3.75

>  <NUM PEAKS>  (3727) 
34

>  <MASS SPECTRAL PEAKS>  (3727) 
27 9.9
29 17.67
31 15.74
39 4.61
41 29.62
42 6.23
43 19.45
44 2.32
45 1.35
53 1.51
54 1.26
55 30.62
56 6.48
57 21.22
58 12.54
59 99.99
60 2.85
67 2.17
68 1.09
69 58.54
70 6.65
71 2.77
72 1.3
81 1.1
82 1.2
83 31.06
84 3
85 1.43
97 3.91
98 1.13
125 2.08
143 16.93
144 1.4
154 1.63

$$$$

     RDKit          2D

 12 11  0  0  0  0  0  0  0  0999 V2000
    3.2476    5.6250    0.0000 C   0  0  0  0  0  0  0  0  0  0  0  0
   -9.7428    5.6250    0.0000 C   0  0  0  0  0  0  0  0  0  0  0  0
    1.9486    6.3750    0.0000 C   0  0  0  0  0  0  0  0  0  0  0  0
    0.6495    5.6250    0.0000 C   0  0  0  0  0  0  0  0  0  0  0  0
   -0.6495    6.3750    0.0000 C   0  0  0  0  0  0  0  0  0  0  0  0
   -1.9486    5.6250    0.0000 C   0  0  0  0  0  0  0  0  0  0  0  0
   -3.2476    6.3750    0.0000 C   0  0  0  0  0  0  0  0  0  0  0  0
   -4.5466    5.6250    0.0000 C   0  0  0  0  0  0  0  0  0  0  0  0
   -5.8457    6.3750    0.0000 C   0  0  0  0  0  0  0  0  0  0  0  0
   -7.1447    5.6250    0.0000 C   0  0  0  0  0  0  0  0  0  0  0  0
   -8.4437    6.3750    0.0000 C   0  0  0  0  0  0  0  0  0  0  0  0
   -8.4437    7.8750    0.0000 O   0  0  0  0  0  0  0  0  0  0  0  0
  3  1  1  0
  4  3  1  0
  5  4  1  0
  6  5  1  0
  7  6  1  0
  8  7  1  0
  9  8  1  0
 10  9  1  0
 11  2  1  0
 11 10  1  0
 12 11  1  0
M  END
>  <NAME>  (3728) 
2-UNDECANOL

>  <SYNONYMS>  (3728) 


>  <SPECTRUM TYPE>  (3728) 
MS1

>  <INSTRUMENT TYPE>  (3728) 
EI-B

>  <INSTRUMENT>  (3728) 
HITACHI M-80B

>  <ION MODE>  (3728) 
P

>  <INCHIKEY>  (3728) 
XMUJIPOFTAHSOK-UHFFFAOYSA-N

>  <FORMULA>  (3728) 
C11H24O

>  <EXACT MASS>  (3728) 
172.182715388

>  <MW>  (3728) 
172

>  <ID>  (3728) 
JP006864

>  <CONTRIBUTOR>  (3728) 
University of Tokyo Team, {Faculty of Engineering, University of Tokyo

>  <COMMENT>  (3728) 
SMILES=CCCCCCCCCC(C)O
InChI=InChI=1S/C11H24O/c1-3-4-5-6-7-8-9-10-11(2)12/h11-12H,3-10H2,1-2H3
computed SMILES=OC(C)CCCCCCCCC
accession=JP006864
date=2016.01.19 (Created 2008.10.21, modified 2011.05.06)
author=TAJIMA S, GUNMA COLLEGE OF TECHNOLOGY
license=CC BY-NC-SA
exact mass=172.18272
ionization energy=70 eV
ion type=[M]+*
computed spectral entropy=2.612403877441767
computed normalized entropy=0.7607494500939591
SPLASH=splash10-0002-9000000000-ae2234e36f98258b6c7c
submitter=submitter = University of Tokyo Team (Faculty of Engineering, University of Tokyo)
MoNA Rating=3.75

>  <NUM PEAKS>  (3728) 
31

>  <MASS SPECTRAL PEAKS>  (3728) 
27 7.68
29 10.81
31 1.17
39 4.21
41 18.48
42 6.16
43 19.95
44 5.99
45 99.99
46 2.06
53 1.14
54 1.05
55 15.84
56 8.32
57 12.45
58 1.31
67 1.33
69 9.83
70 7.64
71 4.57
82 1.41
83 10.68
84 4.82
85 3.06
97 7.05
98 2.35
111 2.38
112 1.27
126 3.47
154 1.64
157 1.4

$$$$

     RDKit          2D

 12 11  0  0  0  0  0  0  0  0999 V2000
    3.8971    6.0000    0.0000 C   0  0  0  0  0  0  0  0  0  0  0  0
    2.5981    6.7500    0.0000 C   0  0  0  0  0  0  0  0  0  0  0  0
    1.2990    6.0000    0.0000 C   0  0  0  0  0  0  0  0  0  0  0  0
    0.0000    6.7500    0.0000 C   0  0  0  0  0  0  0  0  0  0  0  0
   -1.2990    6.0000    0.0000 C   0  0  0  0  0  0  0  0  0  0  0  0
   -2.5981    6.7500    0.0000 C   0  0  0  0  0  0  0  0  0  0  0  0
   -3.8971    6.0000    0.0000 C   0  0  0  0  0  0  0  0  0  0  0  0
   -5.1962    6.7500    0.0000 C   0  0  0  0  0  0  0  0  0  0  0  0
   -6.4952    6.0000    0.0000 C   0  0  0  0  0  0  0  0  0  0  0  0
   -7.7942    6.7500    0.0000 C   0  0  0  0  0  0  0  0  0  0  0  0
   -9.0933    6.0000    0.0000 C   0  0  0  0  0  0  0  0  0  0  0  0
  -10.3923    6.7500    0.0000 O   0  0  0  0  0  0  0  0  0  0  0  0
  2  1  1  0
  3  2  1  0
  4  3  1  0
  5  4  1  0
  6  5  1  0
  7  6  1  0
  8  7  1  0
  9  8  1  0
 10  9  1  0
 11 10  1  0
 12 11  1  0
M  END
>  <NAME>  (3729) 
UNDECANOL

>  <SYNONYMS>  (3729) 


>  <SPECTRUM TYPE>  (3729) 
MS1

>  <INSTRUMENT TYPE>  (3729) 
EI-B

>  <INSTRUMENT>  (3729) 
HITACHI M-80B

>  <ION MODE>  (3729) 
P

>  <INCHIKEY>  (3729) 
KJIOQYGWTQBHNH-UHFFFAOYSA-N

>  <FORMULA>  (3729) 
C11H24O

>  <EXACT MASS>  (3729) 
172.182715388

>  <MW>  (3729) 
172

>  <ID>  (3729) 
JP006863

>  <CONTRIBUTOR>  (3729) 
University of Tokyo Team, {Faculty of Engineering, University of Tokyo

>  <COMMENT>  (3729) 
SMILES=CCCCCCCCCCCO
InChI=InChI=1S/C11H24O/c1-2-3-4-5-6-7-8-9-10-11-12/h12H,2-11H2,1H3
computed SMILES=OCCCCCCCCCCC
accession=JP006863
date=2016.01.19 (Created 2008.10.21, modified 2011.05.06)
author=TAJIMA S, GUNMA COLLEGE OF TECHNOLOGY
license=CC BY-NC-SA
exact mass=172.18272
ionization energy=70 eV
ion type=[M]+*
computed spectral entropy=3.13544925642279
computed normalized entropy=0.8443216396781588
SPLASH=splash10-0a4l-9000000000-a674e00407a29d9f0246
submitter=submitter = University of Tokyo Team (Faculty of Engineering, University of Tokyo)
MoNA Rating=3.75

>  <NUM PEAKS>  (3729) 
41

>  <MASS SPECTRAL PEAKS>  (3729) 
26 1.06
27 24.42
28 5.69
29 42.92
30 1.31
31 37.3
39 16.83
40 3.86
41 88.5
42 34.28
43 91.86
44 4.95
45 2.94
53 5.8
54 7.72
55 99.99
56 79.76
57 52.73
58 2.02
67 9.62
68 28.61
69 76.92
70 68.9
71 17.21
73 2.07
81 2.83
82 23.41
83 58.96
84 45.1
85 8.45
96 6.02
97 39
98 18.62
99 1.73
110 1.48
111 11.63
112 5.67
125 4.68
126 13.63
127 1.47
154 1.98

$$$$

     RDKit          2D

 11 10  0  0  0  0  0  0  0  0999 V2000
    3.2476    5.6250    0.0000 C   0  0  0  0  0  0  0  0  0  0  0  0
    1.9486    6.3750    0.0000 C   0  0  0  0  0  0  0  0  0  0  0  0
    0.6495    5.6250    0.0000 C   0  0  0  0  0  0  0  0  0  0  0  0
   -0.6495    6.3750    0.0000 C   0  0  0  0  0  0  0  0  0  0  0  0
   -1.9486    5.6250    0.0000 C   0  0  0  0  0  0  0  0  0  0  0  0
   -3.2476    6.3750    0.0000 C   0  0  0  0  0  0  0  0  0  0  0  0
   -4.5466    5.6250    0.0000 C   0  0  0  0  0  0  0  0  0  0  0  0
   -5.8457    6.3750    0.0000 C   0  0  0  0  0  0  0  0  0  0  0  0
   -7.1447    5.6250    0.0000 C   0  0  0  0  0  0  0  0  0  0  0  0
   -8.4437    6.3750    0.0000 C   0  0  0  0  0  0  0  0  0  0  0  0
   -9.7428    5.6250    0.0000 O   0  0  0  0  0  0  0  0  0  0  0  0
  2  1  1  0
  3  2  1  0
  4  3  1  0
  5  4  1  0
  6  5  1  0
  7  6  1  0
  8  7  1  0
  9  8  1  0
 10  9  1  0
 11 10  1  0
M  END
>  <NAME>  (3730) 
DECANOL

>  <SYNONYMS>  (3730) 


>  <SPECTRUM TYPE>  (3730) 
MS1

>  <INSTRUMENT TYPE>  (3730) 
EI-B

>  <INSTRUMENT>  (3730) 
HITACHI M-80B

>  <ION MODE>  (3730) 
P

>  <INCHIKEY>  (3730) 
MWKFXSUHUHTGQN-UHFFFAOYSA-N

>  <FORMULA>  (3730) 
C10H22O

>  <EXACT MASS>  (3730) 
158.167065324

>  <MW>  (3730) 
158

>  <ID>  (3730) 
JP006862

>  <CONTRIBUTOR>  (3730) 
University of Tokyo Team, {Faculty of Engineering, University of Tokyo

>  <COMMENT>  (3730) 
SMILES=CCCCCCCCCCO
InChI=InChI=1S/C10H22O/c1-2-3-4-5-6-7-8-9-10-11/h11H,2-10H2,1H3
computed SMILES=OCCCCCCCCCC
computed spectral entropy=3.0691395376475326
accession=JP006862
date=2016.01.19 (Created 2008.10.21, modified 2011.05.06)
author=TAJIMA S, GUNMA COLLEGE OF TECHNOLOGY
license=CC BY-NC-SA
exact mass=158.16707
ionization energy=70 eV
ion type=[M]+*
computed normalized entropy=0.8377474802122987
SPLASH=splash10-0a4l-9000000000-9be0ff3e4ab1ad4e0e73
submitter=submitter = University of Tokyo Team (Faculty of Engineering, University of Tokyo)
MoNA Rating=3.75

>  <NUM PEAKS>  (3730) 
39

>  <MASS SPECTRAL PEAKS>  (3730) 
15 1.01
26 1.35
27 27.39
28 3.88
29 44.74
30 1.15
31 41.57
39 19.69
40 2.93
41 88.1
42 39.89
43 93.68
44 4.68
45 3.26
53 5.07
54 8.15
55 99.99
56 88.18
57 45.65
58 1.73
67 8.64
68 27.65
69 71.36
70 86.42
71 15.11
73 2.69
81 2.12
82 19.86
83 57.76
84 38.46
85 6.74
96 3.19
97 26.31
98 14.18
110 1.24
111 10.99
112 20.24
113 1.72
140 2.04

$$$$

     RDKit          2D

 10  9  0  0  0  0  0  0  0  0999 V2000
    2.5981    4.5000    0.0000 C   0  0  0  0  0  0  0  0  0  0  0  0
   -7.7942    4.5000    0.0000 C   0  0  0  0  0  0  0  0  0  0  0  0
    1.2990    5.2500    0.0000 C   0  0  0  0  0  0  0  0  0  0  0  0
   -6.4952    5.2500    0.0000 C   0  0  0  0  0  0  0  0  0  0  0  0
    0.0000    4.5000    0.0000 C   0  0  0  0  0  0  0  0  0  0  0  0
   -1.2990    5.2500    0.0000 C   0  0  0  0  0  0  0  0  0  0  0  0
   -2.5981    4.5000    0.0000 C   0  0  0  0  0  0  0  0  0  0  0  0
   -3.8971    5.2500    0.0000 C   0  0  0  0  0  0  0  0  0  0  0  0
   -5.1962    4.5000    0.0000 C   0  0  0  0  0  0  0  0  0  0  0  0
   -5.1962    3.0000    0.0000 O   0  0  0  0  0  0  0  0  0  0  0  0
  3  1  1  0
  4  2  1  0
  5  3  1  0
  6  5  1  0
  7  6  1  0
  8  7  1  0
  9  4  1  0
  9  8  1  0
 10  9  1  0
M  END
>  <NAME>  (3731) 
3-NONANOL

>  <SYNONYMS>  (3731) 


>  <SPECTRUM TYPE>  (3731) 
MS1

>  <INSTRUMENT TYPE>  (3731) 
EI-B

>  <INSTRUMENT>  (3731) 
HITACHI M-80B

>  <ION MODE>  (3731) 
P

>  <INCHIKEY>  (3731) 
GYSCXPVAKHVAAY-UHFFFAOYSA-N

>  <FORMULA>  (3731) 
C9H20O

>  <EXACT MASS>  (3731) 
144.15141526

>  <MW>  (3731) 
144

>  <ID>  (3731) 
JP006861

>  <CONTRIBUTOR>  (3731) 
University of Tokyo Team, {Faculty of Engineering, University of Tokyo

>  <COMMENT>  (3731) 
SMILES=CCCCCCC(O)CC
InChI=InChI=1S/C9H20O/c1-3-5-6-7-8-9(10)4-2/h9-10H,3-8H2,1-2H3
computed SMILES=OC(CC)CCCCCC
accession=JP006861
ion type=[M]+*
date=2016.01.19 (Created 2008.10.21, modified 2011.05.06)
author=TAJIMA S, GUNMA COLLEGE OF TECHNOLOGY
license=CC BY-NC-SA
exact mass=144.15142
ionization energy=70 eV
computed spectral entropy=2.6105285074180338
computed normalized entropy=0.7752596264844719
SPLASH=splash10-0a4i-9000000000-367d9c61f666330ad098
submitter=submitter = University of Tokyo Team (Faculty of Engineering, University of Tokyo)
MoNA Rating=3.75

>  <NUM PEAKS>  (3731) 
29

>  <MASS SPECTRAL PEAKS>  (3731) 
27 13.52
28 2.45
29 19.93
31 19.19
39 7.75
40 1.15
41 27.59
42 5.29
43 21.11
44 4.56
45 2.04
53 1.62
55 66.51
56 6.37
57 11.16
58 9.9
59 99.99
60 2.71
67 1.02
69 12.24
70 3.58
71 1.93
83 1.28
84 1.26
97 42.72
98 3.22
115 18.3
116 1.18
126 2.08

$$$$

     RDKit          2D

 10  9  0  0  0  0  0  0  0  0999 V2000
    2.5981    4.5000    0.0000 C   0  0  0  0  0  0  0  0  0  0  0  0
   -7.7942    4.5000    0.0000 C   0  0  0  0  0  0  0  0  0  0  0  0
    1.2990    5.2500    0.0000 C   0  0  0  0  0  0  0  0  0  0  0  0
    0.0000    4.5000    0.0000 C   0  0  0  0  0  0  0  0  0  0  0  0
   -1.2990    5.2500    0.0000 C   0  0  0  0  0  0  0  0  0  0  0  0
   -2.5981    4.5000    0.0000 C   0  0  0  0  0  0  0  0  0  0  0  0
   -3.8971    5.2500    0.0000 C   0  0  0  0  0  0  0  0  0  0  0  0
   -5.1962    4.5000    0.0000 C   0  0  0  0  0  0  0  0  0  0  0  0
   -6.4952    5.2500    0.0000 C   0  0  0  0  0  0  0  0  0  0  0  0
   -6.4952    6.7500    0.0000 O   0  0  0  0  0  0  0  0  0  0  0  0
  3  1  1  0
  4  3  1  0
  5  4  1  0
  6  5  1  0
  7  6  1  0
  8  7  1  0
  9  2  1  0
  9  8  1  0
 10  9  1  0
M  END
>  <NAME>  (3732) 
2-NONANOL

>  <SYNONYMS>  (3732) 


>  <SPECTRUM TYPE>  (3732) 
MS1

>  <INSTRUMENT TYPE>  (3732) 
EI-B

>  <INSTRUMENT>  (3732) 
HITACHI M-80B

>  <ION MODE>  (3732) 
P

>  <INCHIKEY>  (3732) 
NGDNVOAEIVQRFH-UHFFFAOYSA-N

>  <FORMULA>  (3732) 
C9H20O

>  <EXACT MASS>  (3732) 
144.15141526

>  <MW>  (3732) 
144

>  <ID>  (3732) 
JP006860

>  <CONTRIBUTOR>  (3732) 
University of Tokyo Team, {Faculty of Engineering, University of Tokyo

>  <COMMENT>  (3732) 
SMILES=CCCCCCCC(C)O
InChI=InChI=1S/C9H20O/c1-3-4-5-6-7-8-9(2)10/h9-10H,3-8H2,1-2H3
computed SMILES=OC(C)CCCCCCC
accession=JP006860
date=2016.01.19 (Created 2008.10.21, modified 2011.05.06)
author=TAJIMA S, GUNMA COLLEGE OF TECHNOLOGY
license=CC BY-NC-SA
exact mass=144.15142
ionization energy=70 eV
ion type=[M]+*
computed spectral entropy=2.4357539023035724
computed normalized entropy=0.7567094957455547
SPLASH=splash10-0002-9000000000-9989b1e1be971110502f
submitter=submitter = University of Tokyo Team (Faculty of Engineering, University of Tokyo)
MoNA Rating=3.75

>  <NUM PEAKS>  (3732) 
25

>  <MASS SPECTRAL PEAKS>  (3732) 
27 7.94
28 1.08
29 10.04
31 1.3
39 4.93
41 16.55
42 5.86
43 14.99
44 7.23
45 99.99
46 2.47
55 13.45
56 7.75
57 8.37
58 1.29
69 17.8
70 6.09
71 3.7
83 3.42
84 4.06
97 3.27
98 5.36
111 1.92
126 2.48
129 2.38

$$$$

     RDKit          2D

 10  9  0  0  0  0  0  0  0  0999 V2000
   -8.4437    5.6250    0.0000 C   0  0  0  0  0  0  0  0  0  0  0  0
   -7.1447    4.8750    0.0000 C   0  0  0  0  0  0  0  0  0  0  0  0
   -5.8457    5.6250    0.0000 C   0  0  0  0  0  0  0  0  0  0  0  0
   -4.5466    4.8750    0.0000 C   0  0  0  0  0  0  0  0  0  0  0  0
   -3.2476    5.6250    0.0000 C   0  0  0  0  0  0  0  0  0  0  0  0
   -1.9486    4.8750    0.0000 C   0  0  0  0  0  0  0  0  0  0  0  0
   -0.6495    5.6250    0.0000 C   0  0  0  0  0  0  0  0  0  0  0  0
    0.6495    4.8750    0.0000 C   0  0  0  0  0  0  0  0  0  0  0  0
    1.9486    5.6250    0.0000 C   0  0  0  0  0  0  0  0  0  0  0  0
    3.2476    4.8750    0.0000 O   0  0  0  0  0  0  0  0  0  0  0  0
  2  1  1  0
  3  2  1  0
  4  3  1  0
  5  4  1  0
  6  5  1  0
  7  6  1  0
  8  7  1  0
  9  8  1  0
 10  9  1  0
M  END
>  <NAME>  (3733) 
NONANOL

>  <SYNONYMS>  (3733) 


>  <SPECTRUM TYPE>  (3733) 
MS1

>  <INSTRUMENT TYPE>  (3733) 
EI-B

>  <INSTRUMENT>  (3733) 
HITACHI M-80B

>  <ION MODE>  (3733) 
P

>  <INCHIKEY>  (3733) 
ZWRUINPWMLAQRD-UHFFFAOYSA-N

>  <FORMULA>  (3733) 
C9H20O

>  <EXACT MASS>  (3733) 
144.15141526

>  <MW>  (3733) 
144

>  <ID>  (3733) 
JP006859

>  <CONTRIBUTOR>  (3733) 
University of Tokyo Team, {Faculty of Engineering, University of Tokyo

>  <COMMENT>  (3733) 
SMILES=CCCCCCCCCO
InChI=InChI=1S/C9H20O/c1-2-3-4-5-6-7-8-9-10/h10H,2-9H2,1H3
computed SMILES=OCCCCCCCCC
accession=JP006859
date=2016.01.19 (Created 2008.10.21, modified 2011.05.06)
author=TAJIMA S, GUNMA COLLEGE OF TECHNOLOGY
license=CC BY-NC-SA
exact mass=144.15142
ionization energy=70 eV
ion type=[M]+*
computed spectral entropy=2.9137887513122016
computed normalized entropy=0.8407417163432317
SPLASH=splash10-0a4l-9000000000-3db8ad4ebd74a7222b40
submitter=submitter = University of Tokyo Team (Faculty of Engineering, University of Tokyo)
MoNA Rating=3.75

>  <NUM PEAKS>  (3733) 
32

>  <MASS SPECTRAL PEAKS>  (3733) 
26 1.23
27 29.85
29 38.15
31 37.4
39 20.3
40 1.99
41 84.7
42 38.28
43 79.88
44 3.35
45 2.81
53 3.7
54 5.59
55 88.5
56 99.99
57 33.48
58 1.46
67 5.23
68 19.43
69 59.08
70 68.43
71 12.11
73 2.01
82 9.26
83 30.77
84 23.25
85 2.56
96 1.79
97 21.52
98 26.17
99 1.7
126 1.85

$$$$

     RDKit          2D

  9  8  0  0  0  0  0  0  0  0999 V2000
    1.6238    3.9375    0.0000 C   0  0  0  0  0  0  0  0  0  0  0  0
   -6.1704    3.9375    0.0000 C   0  0  0  0  0  0  0  0  0  0  0  0
    0.3248    4.6875    0.0000 C   0  0  0  0  0  0  0  0  0  0  0  0
   -4.8714    4.6875    0.0000 C   0  0  0  0  0  0  0  0  0  0  0  0
   -0.9743    3.9375    0.0000 C   0  0  0  0  0  0  0  0  0  0  0  0
   -2.2733    4.6875    0.0000 C   0  0  0  0  0  0  0  0  0  0  0  0
   -3.5724    2.4375    0.0000 C   0  0  0  0  0  0  0  0  0  0  0  0
   -3.5724    3.9375    0.0000 C   0  0  0  0  0  0  0  0  0  0  0  0
   -4.8714    1.6875    0.0000 O   0  0  0  0  0  0  0  0  0  0  0  0
  3  1  1  0
  4  2  1  0
  5  3  1  0
  6  5  1  0
  8  4  1  0
  8  6  1  0
  8  7  1  0
  9  7  1  0
M  END
>  <NAME>  (3734) 
2-ETHYLHEXANOL

>  <SYNONYMS>  (3734) 


>  <SPECTRUM TYPE>  (3734) 
MS1

>  <INSTRUMENT TYPE>  (3734) 
EI-B

>  <INSTRUMENT>  (3734) 
HITACHI M-80B

>  <ION MODE>  (3734) 
P

>  <INCHIKEY>  (3734) 
YIWUKEYIRIRTPP-UHFFFAOYSA-N

>  <FORMULA>  (3734) 
C8H18O

>  <EXACT MASS>  (3734) 
130.135765196

>  <MW>  (3734) 
130

>  <ID>  (3734) 
JP006858

>  <CONTRIBUTOR>  (3734) 
University of Tokyo Team, {Faculty of Engineering, University of Tokyo

>  <COMMENT>  (3734) 
SMILES=CCCCC(CC)CO
InChI=InChI=1S/C8H18O/c1-3-5-6-8(4-2)7-9/h8-9H,3-7H2,1-2H3
computed SMILES=OCC(CC)CCCC
accession=JP006858
date=2016.01.19 (Created 2008.10.21, modified 2011.05.06)
author=TAJIMA S, GUNMA COLLEGE OF TECHNOLOGY
license=CC BY-NC-SA
exact mass=130.13577
ionization energy=70 eV
ion type=[M]+*
computed spectral entropy=2.6663209756176647
computed normalized entropy=0.7918285503380839
SPLASH=splash10-0a4l-9000000000-4e3f8e8046c7b7f5b3c7
submitter=submitter = University of Tokyo Team (Faculty of Engineering, University of Tokyo)
MoNA Rating=3.75

>  <NUM PEAKS>  (3734) 
29

>  <MASS SPECTRAL PEAKS>  (3734) 
27 15.43
28 2.09
29 22.48
31 12.03
39 10.1
40 1.28
41 39.91
42 7.24
43 35.76
44 1.46
45 1.57
53 2.19
54 1.66
55 24.7
56 21.76
57 99.99
58 4.32
67 1.18
68 1.37
69 10.09
70 21
71 3.74
82 2.2
83 19.22
84 7.16
97 1.18
98 8.13
99 1.23
112 3.41

$$$$

     RDKit          2D

  9  8  0  0  0  0  0  0  0  0999 V2000
   -6.4952    4.5000    0.0000 C   0  0  0  0  0  0  0  0  0  0  0  0
    2.5981    3.7500    0.0000 C   0  0  0  0  0  0  0  0  0  0  0  0
   -5.1962    3.7500    0.0000 C   0  0  0  0  0  0  0  0  0  0  0  0
    1.2990    4.5000    0.0000 C   0  0  0  0  0  0  0  0  0  0  0  0
   -3.8971    4.5000    0.0000 C   0  0  0  0  0  0  0  0  0  0  0  0
   -2.5981    3.7500    0.0000 C   0  0  0  0  0  0  0  0  0  0  0  0
   -1.2990    4.5000    0.0000 C   0  0  0  0  0  0  0  0  0  0  0  0
    0.0000    3.7500    0.0000 C   0  0  0  0  0  0  0  0  0  0  0  0
   -0.0000    2.2500    0.0000 O   0  0  0  0  0  0  0  0  0  0  0  0
  3  1  1  0
  4  2  1  0
  5  3  1  0
  6  5  1  0
  7  6  1  0
  8  4  1  0
  8  7  1  0
  9  8  1  0
M  END
>  <NAME>  (3735) 
3-OCTANOL

>  <SYNONYMS>  (3735) 


>  <SPECTRUM TYPE>  (3735) 
MS1

>  <INSTRUMENT TYPE>  (3735) 
EI-B

>  <INSTRUMENT>  (3735) 
HITACHI M-80B

>  <ION MODE>  (3735) 
P

>  <INCHIKEY>  (3735) 
NMRPBPVERJPACX-UHFFFAOYSA-N

>  <FORMULA>  (3735) 
C8H18O

>  <EXACT MASS>  (3735) 
130.135765196

>  <MW>  (3735) 
130

>  <ID>  (3735) 
JP006857

>  <CONTRIBUTOR>  (3735) 
University of Tokyo Team, {Faculty of Engineering, University of Tokyo

>  <COMMENT>  (3735) 
SMILES=CCCCCC(O)CC
InChI=InChI=1S/C8H18O/c1-3-5-6-7-8(9)4-2/h8-9H,3-7H2,1-2H3
computed SMILES=OC(CC)CCCCC
accession=JP006857
date=2016.01.19 (Created 2008.10.21, modified 2011.05.06)
author=TAJIMA S, GUNMA COLLEGE OF TECHNOLOGY
license=CC BY-NC-SA
exact mass=130.13577
ionization energy=70 eV
ion type=[M]+*
computed spectral entropy=2.593201531750639
computed normalized entropy=0.7782240027081325
SPLASH=splash10-0a4i-9000000000-e465ef88acb28c76bbf2
submitter=submitter = University of Tokyo Team (Faculty of Engineering, University of Tokyo)
MoNA Rating=3.75

>  <NUM PEAKS>  (3735) 
28

>  <MASS SPECTRAL PEAKS>  (3735) 
15 1.03
27 15.3
28 2.73
29 22.11
31 21.58
39 7.95
40 1.21
41 29.84
42 4.64
43 14.08
44 6.83
45 2.98
53 1.64
55 47.72
56 5.76
57 11.98
58 9.64
59 99.99
60 3.18
69 2.41
70 2.31
71 1.46
83 51.1
84 3.53
100 1.01
101 23
102 1.34
112 2.4

$$$$

     RDKit          2D

  9  8  0  0  0  0  0  0  0  0999 V2000
   -7.4695    3.9375    0.0000 C   0  0  0  0  0  0  0  0  0  0  0  0
    1.6238    3.1875    0.0000 C   0  0  0  0  0  0  0  0  0  0  0  0
   -6.1704    3.1875    0.0000 C   0  0  0  0  0  0  0  0  0  0  0  0
   -4.8714    3.9375    0.0000 C   0  0  0  0  0  0  0  0  0  0  0  0
   -3.5724    3.1875    0.0000 C   0  0  0  0  0  0  0  0  0  0  0  0
   -2.2733    3.9375    0.0000 C   0  0  0  0  0  0  0  0  0  0  0  0
   -0.9743    3.1875    0.0000 C   0  0  0  0  0  0  0  0  0  0  0  0
    0.3248    3.9375    0.0000 C   0  0  0  0  0  0  0  0  0  0  0  0
    0.3248    5.4375    0.0000 O   0  0  0  0  0  0  0  0  0  0  0  0
  3  1  1  0
  4  3  1  0
  5  4  1  0
  6  5  1  0
  7  6  1  0
  8  2  1  0
  8  7  1  0
  9  8  1  0
M  END
>  <NAME>  (3736) 
2-OCTANOL

>  <SYNONYMS>  (3736) 


>  <SPECTRUM TYPE>  (3736) 
MS1

>  <INSTRUMENT TYPE>  (3736) 
EI-B

>  <INSTRUMENT>  (3736) 
HITACHI M-80B

>  <ION MODE>  (3736) 
P

>  <INCHIKEY>  (3736) 
SJWFXCIHNDVPSH-UHFFFAOYSA-N

>  <FORMULA>  (3736) 
C8H18O

>  <EXACT MASS>  (3736) 
130.135765196

>  <MW>  (3736) 
130

>  <ID>  (3736) 
JP006856

>  <CONTRIBUTOR>  (3736) 
University of Tokyo Team, {Faculty of Engineering, University of Tokyo

>  <COMMENT>  (3736) 
SMILES=CCCCCCC(C)O
InChI=InChI=1S/C8H18O/c1-3-4-5-6-7-8(2)9/h8-9H,3-7H2,1-2H3
computed SMILES=OC(C)CCCCCC
accession=JP006856
date=2016.01.19 (Created 2008.10.21, modified 2011.05.06)
author=TAJIMA S, GUNMA COLLEGE OF TECHNOLOGY
license=CC BY-NC-SA
exact mass=130.13577
ionization energy=70 eV
ion type=[M]+*
computed spectral entropy=2.3257724932490733
computed normalized entropy=0.7417562696921993
SPLASH=splash10-0002-9000000000-1d1bfd93bdf2afa1ced5
submitter=submitter = University of Tokyo Team (Faculty of Engineering, University of Tokyo)
MoNA Rating=3.75

>  <NUM PEAKS>  (3736) 
23

>  <MASS SPECTRAL PEAKS>  (3736) 
27 8.68
28 1.52
29 9.51
31 1.7
39 5.03
41 14.43
42 5.37
43 15.2
44 7.95
45 99.99
46 2.19
53 1
55 19.38
56 6.45
57 6.23
69 5.62
70 5.73
71 1.5
83 2.68
84 5.38
97 6.78
112 3.1
115 2.74

$$$$

     RDKit          2D

  9  8  0  0  0  0  0  0  0  0999 V2000
    2.5981    4.5000    0.0000 C   0  0  0  0  0  0  0  0  0  0  0  0
    1.2990    5.2500    0.0000 C   0  0  0  0  0  0  0  0  0  0  0  0
    0.0000    4.5000    0.0000 C   0  0  0  0  0  0  0  0  0  0  0  0
   -1.2990    5.2500    0.0000 C   0  0  0  0  0  0  0  0  0  0  0  0
   -2.5981    4.5000    0.0000 C   0  0  0  0  0  0  0  0  0  0  0  0
   -3.8971    5.2500    0.0000 C   0  0  0  0  0  0  0  0  0  0  0  0
   -5.1962    4.5000    0.0000 C   0  0  0  0  0  0  0  0  0  0  0  0
   -6.4952    5.2500    0.0000 C   0  0  0  0  0  0  0  0  0  0  0  0
   -7.7942    4.5000    0.0000 O   0  0  0  0  0  0  0  0  0  0  0  0
  2  1  1  0
  3  2  1  0
  4  3  1  0
  5  4  1  0
  6  5  1  0
  7  6  1  0
  8  7  1  0
  9  8  1  0
M  END
>  <NAME>  (3737) 
OCTANOL

>  <SYNONYMS>  (3737) 


>  <SPECTRUM TYPE>  (3737) 
MS1

>  <INSTRUMENT TYPE>  (3737) 
EI-B

>  <INSTRUMENT>  (3737) 
HITACHI M-80B

>  <ION MODE>  (3737) 
P

>  <INCHIKEY>  (3737) 
KBPLFHHGFOOTCA-UHFFFAOYSA-N

>  <FORMULA>  (3737) 
C8H18O

>  <EXACT MASS>  (3737) 
130.135765196

>  <MW>  (3737) 
130

>  <ID>  (3737) 
JP006855

>  <CONTRIBUTOR>  (3737) 
University of Tokyo Team, {Faculty of Engineering, University of Tokyo

>  <COMMENT>  (3737) 
SMILES=CCCCCCCCO
InChI=InChI=1S/C8H18O/c1-2-3-4-5-6-7-8-9/h9H,2-8H2,1H3
computed SMILES=OCCCCCCCC
accession=JP006855
date=2016.01.19 (Created 2008.10.21, modified 2011.05.06)
author=TAJIMA S, GUNMA COLLEGE OF TECHNOLOGY
license=CC BY-NC-SA
exact mass=130.13577
ionization energy=70 eV
ion type=[M]+*
computed spectral entropy=2.8755257054034966
computed normalized entropy=0.8154372433931703
SPLASH=splash10-052f-9000000000-d1965ae83320e5d704c6
submitter=submitter = University of Tokyo Team (Faculty of Engineering, University of Tokyo)
MoNA Rating=3.75

>  <NUM PEAKS>  (3737) 
34

>  <MASS SPECTRAL PEAKS>  (3737) 
15 1.39
18 1.2
26 1.68
27 34.94
28 4.16
29 44.22
30 1.37
31 44.49
39 23.92
40 3.74
41 93.01
42 58.64
43 72.35
44 3.63
45 3.73
51 1.08
53 4.78
54 4.43
55 85.52
56 99.99
57 36.89
58 1.7
67 3.99
68 17.2
69 56.94
70 65.34
71 6.37
73 2.33
82 6.47
83 37.07
84 53.74
85 2.75
97 2.26
112 3.2

$$$$

     RDKit          2D

  8  7  0  0  0  0  0  0  0  0999 V2000
    1.6238    3.1875    0.0000 C   0  0  0  0  0  0  0  0  0  0  0  0
   -4.8714    3.9375    0.0000 C   0  0  0  0  0  0  0  0  0  0  0  0
   -3.5724    1.6875    0.0000 C   0  0  0  0  0  0  0  0  0  0  0  0
    0.3248    3.9375    0.0000 C   0  0  0  0  0  0  0  0  0  0  0  0
   -0.9743    3.1875    0.0000 C   0  0  0  0  0  0  0  0  0  0  0  0
   -3.5724    3.1875    0.0000 C   0  0  0  0  0  0  0  0  0  0  0  0
   -2.2733    3.9375    0.0000 C   0  0  0  0  0  0  0  0  0  0  0  0
   -2.2733    5.4375    0.0000 O   0  0  0  0  0  0  0  0  0  0  0  0
  4  1  1  0
  5  4  1  0
  6  2  1  0
  6  3  1  0
  7  5  1  0
  7  6  1  0
  8  7  1  0
M  END
>  <NAME>  (3738) 
2-METHYL-3-HEXANOL

>  <SYNONYMS>  (3738) 


>  <SPECTRUM TYPE>  (3738) 
MS1

>  <INSTRUMENT TYPE>  (3738) 
EI-B

>  <INSTRUMENT>  (3738) 
HITACHI M-80B

>  <ION MODE>  (3738) 
P

>  <INCHIKEY>  (3738) 
RGRUUTLDBCWYBL-UHFFFAOYSA-N

>  <FORMULA>  (3738) 
C7H16O

>  <EXACT MASS>  (3738) 
116.120115132

>  <MW>  (3738) 
116

>  <ID>  (3738) 
JP006854

>  <CONTRIBUTOR>  (3738) 
University of Tokyo Team, {Faculty of Engineering, University of Tokyo

>  <COMMENT>  (3738) 
SMILES=CCCC(O)C(C)C
InChI=InChI=1S/C7H16O/c1-4-5-7(8)6(2)3/h6-8H,4-5H2,1-3H3
computed SMILES=OC(CCC)C(C)C
accession=JP006854
date=2016.01.19 (Created 2008.10.21, modified 2011.05.06)
author=TAJIMA S, GUNMA COLLEGE OF TECHNOLOGY
license=CC BY-NC-SA
exact mass=116.12012
ionization energy=70 eV
ion type=[M]+*
computed spectral entropy=2.2725205944837197
computed normalized entropy=0.7351955299140912
SPLASH=splash10-05fu-9000000000-130b5041ec98581abbe7
submitter=submitter = University of Tokyo Team (Faculty of Engineering, University of Tokyo)
MoNA Rating=3.75

>  <NUM PEAKS>  (3738) 
22

>  <MASS SPECTRAL PEAKS>  (3738) 
15 1.74
27 19.25
28 3.01
29 11.46
31 13.73
39 10.49
40 1.13
41 18.24
42 2.3
43 40.91
44 6.39
45 10.43
53 1.77
55 99.99
56 6.63
57 9.36
59 1.9
69 1.08
71 1.25
72 14.44
73 95.72
74 3.47

$$$$

     RDKit          2D

  8  7  0  0  0  0  0  0  0  0999 V2000
   -6.4952    4.5000    0.0000 C   0  0  0  0  0  0  0  0  0  0  0  0
   -5.1962    3.7500    0.0000 C   0  0  0  0  0  0  0  0  0  0  0  0
   -3.8971    4.5000    0.0000 C   0  0  0  0  0  0  0  0  0  0  0  0
   -2.5981    3.7500    0.0000 C   0  0  0  0  0  0  0  0  0  0  0  0
   -1.2990    4.5000    0.0000 C   0  0  0  0  0  0  0  0  0  0  0  0
    0.0000    3.7500    0.0000 C   0  0  0  0  0  0  0  0  0  0  0  0
    1.2990    4.5000    0.0000 C   0  0  0  0  0  0  0  0  0  0  0  0
    2.5981    3.7500    0.0000 O   0  0  0  0  0  0  0  0  0  0  0  0
  2  1  1  0
  3  2  1  0
  4  3  1  0
  5  4  1  0
  6  5  1  0
  7  6  1  0
  8  7  1  0
M  END
>  <NAME>  (3739) 
HEPTANOL

>  <SYNONYMS>  (3739) 


>  <SPECTRUM TYPE>  (3739) 
MS1

>  <INSTRUMENT TYPE>  (3739) 
EI-B

>  <INSTRUMENT>  (3739) 
HITACHI M-80B

>  <ION MODE>  (3739) 
P

>  <INCHIKEY>  (3739) 
BBMCTIGTTCKYKF-UHFFFAOYSA-N

>  <FORMULA>  (3739) 
C7H16O

>  <EXACT MASS>  (3739) 
116.120115132

>  <MW>  (3739) 
116

>  <ID>  (3739) 
JP006853

>  <CONTRIBUTOR>  (3739) 
University of Tokyo Team, {Faculty of Engineering, University of Tokyo

>  <COMMENT>  (3739) 
SMILES=CCCCCCCO
InChI=InChI=1S/C7H16O/c1-2-3-4-5-6-7-8/h8H,2-7H2,1H3
computed SMILES=OCCCCCCC
accession=JP006853
date=2016.01.19 (Created 2008.10.21, modified 2011.05.06)
author=TAJIMA S, GUNMA COLLEGE OF TECHNOLOGY
license=CC BY-NC-SA
exact mass=116.12012
ionization energy=70 eV
ion type=[M]+*
computed spectral entropy=2.671028871446701
computed normalized entropy=0.8015801140927755
SPLASH=splash10-0596-9000000000-9bf66315002a7c811643
submitter=submitter = University of Tokyo Team (Faculty of Engineering, University of Tokyo)
MoNA Rating=3.75

>  <NUM PEAKS>  (3739) 
28

>  <MASS SPECTRAL PEAKS>  (3739) 
15 1.4
26 1.94
27 33.32
28 7.3
29 34.61
30 1.05
31 40.83
39 19.99
40 1.21
41 79.91
42 48.85
43 70.52
44 3.94
45 3.39
51 1.13
53 3.85
54 4.09
55 72.5
56 93.66
57 23.64
67 2.05
68 14.05
69 49.82
70 99.99
71 4.52
73 1.96
83 5.19
98 3.23

$$$$

     RDKit          2D

  8  7  0  0  0  0  0  0  0  0999 V2000
    0.3248    3.9375    0.0000 C   0  0  0  0  0  0  0  0  0  0  0  0
   -0.9743    4.6875    0.0000 C   0  0  0  0  0  0  0  0  0  0  0  0
   -2.2733    3.9375    0.0000 C   0  0  0  0  0  0  0  0  0  0  0  0
   -3.5724    4.6875    0.0000 C   0  0  0  0  0  0  0  0  0  0  0  0
   -4.8714    3.9375    0.0000 C   0  0  0  0  0  0  0  0  0  0  0  0
   -4.8714    2.4375    0.0000 C   0  0  0  0  0  0  0  0  0  0  0  0
   -6.1704    1.6875    0.0000 C   0  0  0  0  0  0  0  0  0  0  0  0
   -6.1704    0.1875    0.0000 O   0  0  0  0  0  0  0  0  0  0  0  0
  2  1  1  0
  3  2  1  0
  4  3  1  0
  4  5  2  0
  6  5  1  0
  7  6  1  0
  8  7  1  0
M  END
>  <NAME>  (3740) 
CIS-3-HEPTENOL

>  <SYNONYMS>  (3740) 


>  <SPECTRUM TYPE>  (3740) 
MS1

>  <INSTRUMENT TYPE>  (3740) 
EI-B

>  <INSTRUMENT>  (3740) 
HITACHI M-80B

>  <ION MODE>  (3740) 
P

>  <INCHIKEY>  (3740) 
SDZQUCJFTUULJX-PLNGDYQASA-N

>  <FORMULA>  (3740) 
C7H14O

>  <EXACT MASS>  (3740) 
114.104465068

>  <MW>  (3740) 
114

>  <ID>  (3740) 
JP006852

>  <CONTRIBUTOR>  (3740) 
University of Tokyo Team, {Faculty of Engineering, University of Tokyo

>  <COMMENT>  (3740) 
SMILES=CCCC=CCCO
InChI=InChI=1S/C7H14O/c1-2-3-4-5-6-7-8/h4-5,8H,2-3,6-7H2,1H3/b5-4-
computed SMILES=OCCC=CCCC
accession=JP006852
date=2016.01.19 (Created 2008.10.21, modified 2011.05.06)
author=TAJIMA S, GUNMA COLLEGE OF TECHNOLOGY
license=CC BY-NC-SA
exact mass=114.10447
ionization energy=70 eV
ion type=[M]+*
computed spectral entropy=3.0037615317147464
computed normalized entropy=0.8088604388874837
SPLASH=splash10-0563-9000000000-b1039fa2c66d3083a830
submitter=submitter = University of Tokyo Team (Faculty of Engineering, University of Tokyo)
MoNA Rating=3.75

>  <NUM PEAKS>  (3740) 
41

>  <MASS SPECTRAL PEAKS>  (3740) 
15 1.52
26 2.07
27 29.67
28 3.1
29 26.57
31 34.2
38 2.07
39 34.06
40 3.69
41 79.52
42 22.12
43 17.9
44 7.75
45 1.82
50 1.95
51 3.99
52 2.07
53 14.55
54 31.98
55 99.99
56 17.01
57 15.11
58 1.6
65 2.47
66 1.94
67 31
68 21.63
69 11.04
70 4.04
71 2.75
77 1.37
79 3.07
81 75.08
82 5.06
83 5.07
84 1.86
86 2.79
95 2.68
96 20.78
97 1.64
114 2.75

$$$$

     RDKit          2D

  8  7  0  0  0  0  0  0  0  0999 V2000
   -6.4952    4.5000    0.0000 C   0  0  0  0  0  0  0  0  0  0  0  0
   -5.1962    3.7500    0.0000 C   0  0  0  0  0  0  0  0  0  0  0  0
   -3.8971    4.5000    0.0000 C   0  0  0  0  0  0  0  0  0  0  0  0
   -2.5981    3.7500    0.0000 C   0  0  0  0  0  0  0  0  0  0  0  0
   -1.2990    4.5000    0.0000 C   0  0  0  0  0  0  0  0  0  0  0  0
    0.0000    3.7500    0.0000 C   0  0  0  0  0  0  0  0  0  0  0  0
    1.2990    4.5000    0.0000 C   0  0  0  0  0  0  0  0  0  0  0  0
    2.5981    3.7500    0.0000 O   0  0  0  0  0  0  0  0  0  0  0  0
  2  1  1  0
  3  2  1  0
  4  3  1  0
  5  4  1  0
  5  6  2  0
  7  6  1  0
  8  7  1  0
M  END
>  <NAME>  (3741) 
2-HEPTENOL

>  <SYNONYMS>  (3741) 


>  <SPECTRUM TYPE>  (3741) 
MS1

>  <INSTRUMENT TYPE>  (3741) 
EI-B

>  <INSTRUMENT>  (3741) 
HITACHI M-80B

>  <ION MODE>  (3741) 
P

>  <INCHIKEY>  (3741) 
ASFYPVGAALGVNR-AATRIKPKSA-N

>  <FORMULA>  (3741) 
C7H14O

>  <EXACT MASS>  (3741) 
114.104465068

>  <MW>  (3741) 
114

>  <ID>  (3741) 
JP006851

>  <CONTRIBUTOR>  (3741) 
University of Tokyo Team, {Faculty of Engineering, University of Tokyo

>  <COMMENT>  (3741) 
SMILES=CCCCC=CCO
InChI=InChI=1S/C7H14O/c1-2-3-4-5-6-7-8/h5-6,8H,2-4,7H2,1H3/b6-5+
computed SMILES=OCC=CCCCC
accession=JP006851
date=2016.01.19 (Created 2008.10.21, modified 2011.05.06)
author=TAJIMA S, GUNMA COLLEGE OF TECHNOLOGY
license=CC BY-NC-SA
exact mass=114.10447
ionization energy=70 eV
ion type=[M]+*
computed spectral entropy=2.9712958479888627
computed normalized entropy=0.8110402212360409
SPLASH=splash10-0a4l-9000000000-71d2b6bb02ec727ce33e
submitter=submitter = University of Tokyo Team (Faculty of Engineering, University of Tokyo)
MoNA Rating=3.75

>  <NUM PEAKS>  (3741) 
39

>  <MASS SPECTRAL PEAKS>  (3741) 
15 1.59
26 1.98
27 32.69
28 2.32
29 28.3
30 1.17
31 12.54
38 1.45
39 24.44
40 3.06
41 49.2
42 18.06
43 26.09
44 18.41
45 3.22
50 1.14
51 2.27
52 1.22
53 5.48
54 14.91
55 31.53
56 7.21
57 99.99
58 6.28
65 1.21
67 7.98
68 15.39
69 3.94
70 8.88
71 10.64
72 3.84
81 17.12
82 1.2
83 1.41
85 2.56
86 1.62
96 9.32
114 1.85
115 1.21

$$$$

     RDKit          2D

  7  6  0  0  0  0  0  0  0  0999 V2000
    1.2990    2.2500    0.0000 C   0  0  0  0  0  0  0  0  0  0  0  0
   -3.8971    2.2500    0.0000 C   0  0  0  0  0  0  0  0  0  0  0  0
    0.0000    3.0000    0.0000 C   0  0  0  0  0  0  0  0  0  0  0  0
   -2.5981    3.0000    0.0000 C   0  0  0  0  0  0  0  0  0  0  0  0
   -1.2990    0.7500    0.0000 C   0  0  0  0  0  0  0  0  0  0  0  0
   -1.2990    2.2500    0.0000 C   0  0  0  0  0  0  0  0  0  0  0  0
   -0.0000    0.0000    0.0000 O   0  0  0  0  0  0  0  0  0  0  0  0
  3  1  1  0
  4  2  1  0
  6  3  1  0
  6  4  1  0
  6  5  1  0
  7  5  1  0
M  END
>  <NAME>  (3742) 
2-ETHYLBUTANOL

>  <SYNONYMS>  (3742) 


>  <SPECTRUM TYPE>  (3742) 
MS1

>  <INSTRUMENT TYPE>  (3742) 
EI-B

>  <INSTRUMENT>  (3742) 
HITACHI M-80B

>  <ION MODE>  (3742) 
P

>  <INCHIKEY>  (3742) 
TZYRSLHNPKPEFV-UHFFFAOYSA-N

>  <FORMULA>  (3742) 
C6H14O

>  <EXACT MASS>  (3742) 
102.104465068

>  <MW>  (3742) 
102

>  <ID>  (3742) 
JP006850

>  <CONTRIBUTOR>  (3742) 
University of Tokyo Team, {Faculty of Engineering, University of Tokyo

>  <COMMENT>  (3742) 
SMILES=CCC(CC)CO
InChI=InChI=1S/C6H14O/c1-3-6(4-2)5-7/h6-7H,3-5H2,1-2H3
computed SMILES=OCC(CC)CC
accession=JP006850
date=2016.01.19 (Created 2008.10.21, modified 2011.05.06)
author=TAJIMA S, GUNMA COLLEGE OF TECHNOLOGY
license=CC BY-NC-SA
exact mass=102.10447
ionization energy=70 eV
ion type=[M]+*
computed spectral entropy=2.511292530777747
computed normalized entropy=0.8009239876826144
SPLASH=splash10-006x-9000000000-af0e2670bbe080074792
submitter=submitter = University of Tokyo Team (Faculty of Engineering, University of Tokyo)
MoNA Rating=3.75

>  <NUM PEAKS>  (3742) 
23

>  <MASS SPECTRAL PEAKS>  (3742) 
15 1.13
26 1.28
27 19.35
28 1.22
29 22.94
31 17.76
39 12.9
40 1.31
41 27.62
42 11.53
43 99.99
44 3.84
45 2.33
53 2.56
54 1.17
55 32.46
56 12.75
57 4.63
69 9.89
70 42.88
71 35.62
72 1.91
84 12.18

$$$$

     RDKit          2D

  7  6  0  0  0  0  0  0  0  0999 V2000
    1.9486    2.6250    0.0000 C   0  0  0  0  0  0  0  0  0  0  0  0
   -4.5466    3.3750    0.0000 C   0  0  0  0  0  0  0  0  0  0  0  0
    0.6495    3.3750    0.0000 C   0  0  0  0  0  0  0  0  0  0  0  0
   -3.2476    2.6250    0.0000 C   0  0  0  0  0  0  0  0  0  0  0  0
   -0.6495    2.6250    0.0000 C   0  0  0  0  0  0  0  0  0  0  0  0
   -1.9486    3.3750    0.0000 C   0  0  0  0  0  0  0  0  0  0  0  0
   -1.9486    4.8750    0.0000 O   0  0  0  0  0  0  0  0  0  0  0  0
  3  1  1  0
  4  2  1  0
  5  3  1  0
  6  4  1  0
  6  5  1  0
  7  6  1  0
M  END
>  <NAME>  (3743) 
3-HEXANOL

>  <SYNONYMS>  (3743) 


>  <SPECTRUM TYPE>  (3743) 
MS1

>  <INSTRUMENT TYPE>  (3743) 
EI-B

>  <INSTRUMENT>  (3743) 
HITACHI M-80B

>  <ION MODE>  (3743) 
P

>  <INCHIKEY>  (3743) 
ZOCHHNOQQHDWHG-UHFFFAOYSA-N

>  <FORMULA>  (3743) 
C6H14O

>  <EXACT MASS>  (3743) 
102.104465068

>  <MW>  (3743) 
102

>  <ID>  (3743) 
JP006849

>  <CONTRIBUTOR>  (3743) 
University of Tokyo Team, {Faculty of Engineering, University of Tokyo

>  <COMMENT>  (3743) 
SMILES=CCCC(O)CC
InChI=InChI=1S/C6H14O/c1-3-5-6(7)4-2/h6-7H,3-5H2,1-2H3
computed SMILES=OC(CC)CCC
accession=JP006849
date=2016.01.19 (Created 2008.10.21, modified 2011.05.06)
author=TAJIMA S, GUNMA COLLEGE OF TECHNOLOGY
license=CC BY-NC-SA
exact mass=102.10447
ionization energy=70 eV
ion type=[M]+*
computed spectral entropy=2.47346032154774
computed normalized entropy=0.7684236535123308
SPLASH=splash10-0a4i-9000000000-fd2c0700401040f6c65c
submitter=submitter = University of Tokyo Team (Faculty of Engineering, University of Tokyo)
MoNA Rating=3.75

>  <NUM PEAKS>  (3743) 
25

>  <MASS SPECTRAL PEAKS>  (3743) 
15 2.02
26 1.84
27 21.56
28 3.08
29 19.57
30 1.16
31 39.68
39 10.27
40 1.07
41 23.88
42 4.21
43 32.14
44 6.14
45 5.72
53 1.49
55 77.13
56 5.2
57 9.25
58 7.93
59 99.99
60 3.48
69 1.39
72 4.41
73 44.91
74 1.62

$$$$

     RDKit          2D

  7  6  0  0  0  0  0  0  0  0999 V2000
    1.6238    3.1875    0.0000 C   0  0  0  0  0  0  0  0  0  0  0  0
   -4.8714    3.9375    0.0000 C   0  0  0  0  0  0  0  0  0  0  0  0
    0.3248    3.9375    0.0000 C   0  0  0  0  0  0  0  0  0  0  0  0
   -0.9743    3.1875    0.0000 C   0  0  0  0  0  0  0  0  0  0  0  0
   -2.2733    3.9375    0.0000 C   0  0  0  0  0  0  0  0  0  0  0  0
   -3.5724    3.1875    0.0000 C   0  0  0  0  0  0  0  0  0  0  0  0
   -3.5724    1.6875    0.0000 O   0  0  0  0  0  0  0  0  0  0  0  0
  3  1  1  0
  4  3  1  0
  5  4  1  0
  6  2  1  0
  6  5  1  0
  7  6  1  0
M  END
>  <NAME>  (3744) 
2-HEXANOL

>  <SYNONYMS>  (3744) 


>  <SPECTRUM TYPE>  (3744) 
MS1

>  <INSTRUMENT TYPE>  (3744) 
EI-B

>  <INSTRUMENT>  (3744) 
HITACHI M-80B

>  <ION MODE>  (3744) 
P

>  <INCHIKEY>  (3744) 
QNVRIHYSUZMSGM-UHFFFAOYSA-N

>  <FORMULA>  (3744) 
C6H14O

>  <EXACT MASS>  (3744) 
102.104465068

>  <MW>  (3744) 
102

>  <ID>  (3744) 
JP006848

>  <CONTRIBUTOR>  (3744) 
University of Tokyo Team, {Faculty of Engineering, University of Tokyo

>  <COMMENT>  (3744) 
SMILES=CCCCC(C)O
InChI=InChI=1S/C6H14O/c1-3-4-5-6(2)7/h6-7H,3-5H2,1-2H3
computed SMILES=OC(C)CCCC
accession=JP006848
date=2016.01.19 (Created 2008.10.21, modified 2011.05.06)
author=TAJIMA S, GUNMA COLLEGE OF TECHNOLOGY
license=CC BY-NC-SA
exact mass=102.10447
ionization energy=70 eV
ion type=[M]+*
computed spectral entropy=1.9991110742888325
computed normalized entropy=0.6916449653327431
SPLASH=splash10-0002-9000000000-13cf4a6ddf1472a5e7af
submitter=submitter = University of Tokyo Team (Faculty of Engineering, University of Tokyo)
MoNA Rating=3.75

>  <NUM PEAKS>  (3744) 
18

>  <MASS SPECTRAL PEAKS>  (3744) 
15 1.29
27 9.42
28 1.67
29 7.79
31 2.55
39 5.21
41 13.58
42 3.08
43 11.41
44 7.01
45 99.99
46 2.46
55 3.63
56 3.18
57 3.07
69 15.68
84 3.74
87 5.88

$$$$

     RDKit          2D

  7  6  0  0  0  0  0  0  0  0999 V2000
    1.9486    3.3750    0.0000 C   0  0  0  0  0  0  0  0  0  0  0  0
    0.6495    4.1250    0.0000 C   0  0  0  0  0  0  0  0  0  0  0  0
   -0.6495    3.3750    0.0000 C   0  0  0  0  0  0  0  0  0  0  0  0
   -1.9486    4.1250    0.0000 C   0  0  0  0  0  0  0  0  0  0  0  0
   -3.2476    3.3750    0.0000 C   0  0  0  0  0  0  0  0  0  0  0  0
   -4.5466    4.1250    0.0000 C   0  0  0  0  0  0  0  0  0  0  0  0
   -5.8457    3.3750    0.0000 O   0  0  0  0  0  0  0  0  0  0  0  0
  2  1  1  0
  3  2  1  0
  3  4  2  0
  5  4  1  0
  6  5  1  0
  7  6  1  0
M  END
>  <NAME>  (3745) 
TRANS-3-HEXENOL

>  <SYNONYMS>  (3745) 


>  <SPECTRUM TYPE>  (3745) 
MS1

>  <INSTRUMENT TYPE>  (3745) 
EI-B

>  <INSTRUMENT>  (3745) 
HITACHI M-80B

>  <ION MODE>  (3745) 
P

>  <INCHIKEY>  (3745) 
UFLHIIWVXFIJGU-ONEGZZNKSA-N

>  <FORMULA>  (3745) 
C6H12O

>  <EXACT MASS>  (3745) 
100.088815004

>  <MW>  (3745) 
100

>  <ID>  (3745) 
JP006847

>  <CONTRIBUTOR>  (3745) 
University of Tokyo Team, {Faculty of Engineering, University of Tokyo

>  <COMMENT>  (3745) 
SMILES=CCC=CCCO
InChI=InChI=1S/C6H12O/c1-2-3-4-5-6-7/h3-4,7H,2,5-6H2,1H3/b4-3+
computed SMILES=OCCC=CCC
accession=JP006847
date=2016.01.19 (Created 2008.10.21, modified 2011.05.06)
author=TAJIMA S, GUNMA COLLEGE OF TECHNOLOGY
license=CC BY-NC-SA
exact mass=100.08882
ionization energy=70 eV
ion type=[M]+*
computed spectral entropy=2.8497312577212517
computed normalized entropy=0.8015336919017253
SPLASH=splash10-00kf-9000000000-5205dfcd839a24c16b1e
submitter=submitter = University of Tokyo Team (Faculty of Engineering, University of Tokyo)
MoNA Rating=3.75

>  <NUM PEAKS>  (3745) 
35

>  <MASS SPECTRAL PEAKS>  (3745) 
15 2.27
26 2.36
27 22.24
29 13.31
30 1.19
31 26.3
38 2.7
39 29.88
40 3.88
41 99.99
42 21.27
43 8.98
44 6.71
45 2.11
50 2.2
51 3.37
52 1.32
53 9.29
54 8.41
55 34.95
56 4.67
57 10.83
65 1.97
66 1.17
67 50.38
68 5.11
69 38.26
70 11.03
71 1.78
72 2.66
79 1.09
81 3.32
82 33.56
83 3.08
100 2.06

$$$$

     RDKit          2D

  7  6  0  0  0  0  0  0  0  0999 V2000
    2.9228    5.0625    0.0000 C   0  0  0  0  0  0  0  0  0  0  0  0
    1.6238    4.3125    0.0000 C   0  0  0  0  0  0  0  0  0  0  0  0
    1.6238    2.8125    0.0000 C   0  0  0  0  0  0  0  0  0  0  0  0
    0.3248    2.0625    0.0000 C   0  0  0  0  0  0  0  0  0  0  0  0
   -0.9743    2.8125    0.0000 C   0  0  0  0  0  0  0  0  0  0  0  0
   -2.2733    2.0625    0.0000 C   0  0  0  0  0  0  0  0  0  0  0  0
   -3.5724    2.8125    0.0000 O   0  0  0  0  0  0  0  0  0  0  0  0
  2  1  1  0
  3  2  1  0
  3  4  2  0
  5  4  1  0
  6  5  1  0
  7  6  1  0
M  END
>  <NAME>  (3746) 
CIS-3-HEXENOL

>  <SYNONYMS>  (3746) 


>  <SPECTRUM TYPE>  (3746) 
MS1

>  <INSTRUMENT TYPE>  (3746) 
EI-B

>  <INSTRUMENT>  (3746) 
HITACHI M-80B

>  <ION MODE>  (3746) 
P

>  <INCHIKEY>  (3746) 
UFLHIIWVXFIJGU-ARJAWSKDSA-N

>  <FORMULA>  (3746) 
C6H12O

>  <EXACT MASS>  (3746) 
100.088815004

>  <MW>  (3746) 
100

>  <ID>  (3746) 
JP006846

>  <CONTRIBUTOR>  (3746) 
University of Tokyo Team, {Faculty of Engineering, University of Tokyo

>  <COMMENT>  (3746) 
SMILES=CCC=CCCO
InChI=InChI=1S/C6H12O/c1-2-3-4-5-6-7/h3-4,7H,2,5-6H2,1H3/b4-3-
computed SMILES=OCCC=CCC
accession=JP006846
date=2016.01.19 (Created 2008.10.21, modified 2011.05.06)
author=TAJIMA S, GUNMA COLLEGE OF TECHNOLOGY
license=CC BY-NC-SA
exact mass=100.08882
ionization energy=70 eV
ion type=[M]+*
computed spectral entropy=2.86630647531726
computed normalized entropy=0.7937888771385291
SPLASH=splash10-00l6-9000000000-54ee041e574aedb72ec1
submitter=submitter = University of Tokyo Team (Faculty of Engineering, University of Tokyo)
MoNA Rating=3.75

>  <NUM PEAKS>  (3746) 
37

>  <MASS SPECTRAL PEAKS>  (3746) 
15 2.09
26 2.3
27 24.08
28 2.83
29 18.74
30 1.13
31 28.21
38 2.48
39 31.9
40 4.37
41 99.99
42 22.6
43 8.61
44 6.79
45 2.07
50 2.34
51 3.7
52 1.36
53 11.54
54 11.47
55 38.58
56 5.22
57 13.23
58 1.03
63 1
65 2.18
66 1.27
67 72.58
68 5.62
69 23.22
70 10.5
71 1.53
72 2.28
81 4.62
82 37.69
83 2.29
100 1.97

$$$$

     RDKit          2D

  7  6  0  0  0  0  0  0  0  0999 V2000
    1.9486    3.3750    0.0000 C   0  0  0  0  0  0  0  0  0  0  0  0
    0.6495    4.1250    0.0000 C   0  0  0  0  0  0  0  0  0  0  0  0
   -0.6495    3.3750    0.0000 C   0  0  0  0  0  0  0  0  0  0  0  0
   -1.9486    4.1250    0.0000 C   0  0  0  0  0  0  0  0  0  0  0  0
   -3.2476    3.3750    0.0000 C   0  0  0  0  0  0  0  0  0  0  0  0
   -4.5466    4.1250    0.0000 C   0  0  0  0  0  0  0  0  0  0  0  0
   -5.8457    3.3750    0.0000 O   0  0  0  0  0  0  0  0  0  0  0  0
  2  1  1  0
  3  2  1  0
  4  3  1  0
  4  5  2  0
  6  5  1  0
  7  6  1  0
M  END
>  <NAME>  (3747) 
TRANS-2-HEXENOL

>  <SYNONYMS>  (3747) 


>  <SPECTRUM TYPE>  (3747) 
MS1

>  <INSTRUMENT TYPE>  (3747) 
EI-B

>  <INSTRUMENT>  (3747) 
HITACHI M-80B

>  <ION MODE>  (3747) 
P

>  <INCHIKEY>  (3747) 
ZCHHRLHTBGRGOT-SNAWJCMRSA-N

>  <FORMULA>  (3747) 
C6H12O

>  <EXACT MASS>  (3747) 
100.088815004

>  <MW>  (3747) 
100

>  <ID>  (3747) 
JP006845

>  <CONTRIBUTOR>  (3747) 
University of Tokyo Team, {Faculty of Engineering, University of Tokyo

>  <COMMENT>  (3747) 
SMILES=CCCC=CCO
InChI=InChI=1S/C6H12O/c1-2-3-4-5-6-7/h4-5,7H,2-3,6H2,1H3/b5-4+
computed SMILES=OCC=CCCC
accession=JP006845
date=2016.01.19 (Created 2008.10.21, modified 2011.05.06)
author=TAJIMA S, GUNMA COLLEGE OF TECHNOLOGY
license=CC BY-NC-SA
exact mass=100.08882
ionization energy=70 eV
ion type=[M]+*
computed spectral entropy=2.817148916955285
computed normalized entropy=0.792369373752712
SPLASH=splash10-0a4l-9000000000-0339132bed8a2355e193
submitter=submitter = University of Tokyo Team (Faculty of Engineering, University of Tokyo)
MoNA Rating=3.75

>  <NUM PEAKS>  (3747) 
35

>  <MASS SPECTRAL PEAKS>  (3747) 
15 1.6
26 2.11
27 24.49
28 2.1
29 23.4
30 1.18
31 10.84
38 1.75
39 19.32
40 2.88
41 43.6
42 7.82
43 18.93
44 17.69
45 3.55
50 1.49
51 2.4
52 1.12
53 6.3
54 5.3
55 10.65
56 9.79
57 99.99
58 6.4
59 1.25
67 14.35
68 1.17
69 4.8
70 1.54
71 9.85
72 4.92
81 1.17
82 18.41
83 1.91
100 1.96

$$$$

     RDKit          2D

  6  5  0  0  0  0  0  0  0  0999 V2000
    0.0000    0.0000    0.0000 C   0  0  0  0  0  0  0  0  0  0  0  0
    1.2990    2.2500    0.0000 C   0  0  0  0  0  0  0  0  0  0  0  0
   -1.2990    2.2500    0.0000 C   0  0  0  0  0  0  0  0  0  0  0  0
   -1.2990    3.7500    0.0000 C   0  0  0  0  0  0  0  0  0  0  0  0
    0.0000    1.5000    0.0000 C   0  0  0  0  0  0  0  0  0  0  0  0
   -2.5981    4.5000    0.0000 O   0  0  0  0  0  0  0  0  0  0  0  0
  4  3  1  0
  5  1  1  0
  5  2  1  0
  5  3  1  0
  6  4  1  0
M  END
>  <NAME>  (3748) 
ISOAMYL ALCOHOL

>  <SYNONYMS>  (3748) 
3-METHYLBUTANOL

>  <SPECTRUM TYPE>  (3748) 
MS1

>  <INSTRUMENT TYPE>  (3748) 
EI-B

>  <INSTRUMENT>  (3748) 
HITACHI M-80B

>  <ION MODE>  (3748) 
P

>  <INCHIKEY>  (3748) 
PHTQWCKDNZKARW-UHFFFAOYSA-N

>  <FORMULA>  (3748) 
C5H12O

>  <EXACT MASS>  (3748) 
88.088815004

>  <MW>  (3748) 
88

>  <ID>  (3748) 
JP006844

>  <CONTRIBUTOR>  (3748) 
University of Tokyo Team, {Faculty of Engineering, University of Tokyo

>  <COMMENT>  (3748) 
SMILES=OCCC(C)C
InChI=InChI=1S/C5H12O/c1-5(2)3-4-6/h5-6H,3-4H2,1-2H3
computed SMILES=OCCC(C)C
accession=JP006844
date=2016.01.19 (Created 2008.10.21, modified 2011.05.06)
author=TAJIMA S, GUNMA COLLEGE OF TECHNOLOGY
license=CC BY-NC-SA
exact mass=88.08882
ionization energy=70 eV
ion type=[M]+*
computed spectral entropy=2.7297078148752374
computed normalized entropy=0.8025725968133132
SPLASH=splash10-052f-9000000000-bf852ef18965656b4e96
submitter=submitter = University of Tokyo Team (Faculty of Engineering, University of Tokyo)
MoNA Rating=3.75

>  <NUM PEAKS>  (3748) 
30

>  <MASS SPECTRAL PEAKS>  (3748) 
15 5.11
19 2.09
26 2.98
27 35.11
28 10.43
29 49.36
30 1.65
31 47.77
38 2.78
39 34.1
40 5.06
41 84.01
42 77.04
43 65.91
44 5.69
45 17.79
46 6.82
47 1.18
50 1.51
51 1.88
53 4.28
54 1.58
55 99.99
56 32.35
57 47.55
58 2.29
59 1.45
69 5.63
70 75.07
71 5.88

$$$$

     RDKit          2D

 14 14  0  0  0  0  0  0  0  0999 V2000
   -6.8197    3.1321    0.0000 C   0  0  0  0  0  0  0  0  0  0  0  0
   -4.2216    1.6321    0.0000 C   0  0  0  0  0  0  0  0  0  0  0  0
   -5.5207    3.8821    0.0000 C   0  0  0  0  0  0  0  0  0  0  0  0
    3.5726    1.6321    0.0000 C   0  0  0  0  0  0  0  0  0  0  0  0
    3.5731    3.1329    0.0000 C   0  0  0  0  0  0  0  0  0  0  0  0
    2.2731    0.8813    0.0000 C   0  0  0  0  0  0  0  0  0  0  0  0
    2.2740    3.8829    0.0000 C   0  0  0  0  0  0  0  0  0  0  0  0
    0.9740    1.6313    0.0000 C   0  0  0  0  0  0  0  0  0  0  0  0
   -0.3245    3.8821    0.0000 C   0  0  0  0  0  0  0  0  0  0  0  0
   -4.2216    3.1321    0.0000 C   0  0  0  0  0  0  0  0  0  0  0  0
    0.9745    3.1321    0.0000 C   0  0  0  0  0  0  0  0  0  0  0  0
   -2.9226    3.8821    0.0000 C   0  0  0  0  0  0  0  0  0  0  0  0
   -2.9226    5.3821    0.0000 O   0  0  0  0  0  0  0  0  0  0  0  0
   -1.6236    3.1321    0.0000 O   0  0  0  0  0  0  0  0  0  0  0  0
  3  1  1  0
  5  4  2  0
  6  4  1  0
  7  5  1  0
  8  6  2  0
 10  2  1  0
  3 10  2  0
 11  7  2  0
 11  8  1  0
 11  9  1  0
 12 10  1  0
 13 12  2  0
 14  9  1  0
 14 12  1  0
M  END
>  <NAME>  (3749) 
BENZYL TIGLATE

>  <SYNONYMS>  (3749) 
BENZYL 2-METHYL-2-BUTENOATE

>  <SPECTRUM TYPE>  (3749) 
MS1

>  <INSTRUMENT TYPE>  (3749) 
EI-B

>  <INSTRUMENT>  (3749) 
HITACHI M-80B

>  <ION MODE>  (3749) 
P

>  <INCHIKEY>  (3749) 
QRGSTISKDZCDHV-XCVCLJGOSA-N

>  <FORMULA>  (3749) 
C12H14O2

>  <EXACT MASS>  (3749) 
190.099379688

>  <MW>  (3749) 
190

>  <ID>  (3749) 
JP006843

>  <CONTRIBUTOR>  (3749) 
University of Tokyo Team, {Faculty of Engineering, University of Tokyo

>  <COMMENT>  (3749) 
SMILES=CC=C(C)C(=O)OCc(c1)cccc1
InChI=InChI=1S/C12H14O2/c1-3-10(2)12(13)14-9-11-7-5-4-6-8-11/h3-8H,9H2,1-2H3/b10-3+
computed SMILES=O=C(OCC=1C=CC=CC1)C(=CC)C
accession=JP006843
date=2016.01.19 (Created 2008.10.21, modified 2011.05.06)
author=TAJIMA S, GUNMA COLLEGE OF TECHNOLOGY
license=CC BY-NC-SA
exact mass=190.09938
ionization energy=70 eV
ion type=[M]+*
computed spectral entropy=2.869536961929723
computed normalized entropy=0.7727161100919088
SPLASH=splash10-000x-9100000000-3d3ab2aee6e33e3a2795
submitter=submitter = University of Tokyo Team (Faculty of Engineering, University of Tokyo)
MoNA Rating=3.75

>  <NUM PEAKS>  (3749) 
41

>  <MASS SPECTRAL PEAKS>  (3749) 
27 10.02
29 9.27
38 1.25
39 15.2
41 2.25
43 1.38
50 3.31
51 8.88
52 2.37
53 6.02
54 2.52
55 35.12
56 2.37
63 4.43
64 1.16
65 16.68
69 1.12
77 10.25
78 1.9
79 6.82
83 55.57
84 5.8
89 4.98
90 5.91
91 99.99
92 8.68
105 2.89
106 1.47
107 8.38
108 1.35
117 1.22
129 2.74
131 1.57
144 1.42
145 21.71
146 2.19
147 1.34
157 1.17
172 14.69
173 1.86
190 7.62

$$$$

     RDKit          2D

 13 12  0  0  0  0  0  0  0  0999 V2000
   -9.7428    5.6250    0.0000 C   0  0  0  0  0  0  0  0  0  0  0  0
    3.2476    5.6250    0.0000 C   0  0  0  0  0  0  0  0  0  0  0  0
    0.6495    7.1250    0.0000 C   0  0  0  0  0  0  0  0  0  0  0  0
   -8.4437    4.8750    0.0000 C   0  0  0  0  0  0  0  0  0  0  0  0
    1.9486    4.8750    0.0000 C   0  0  0  0  0  0  0  0  0  0  0  0
   -7.1447    5.6250    0.0000 C   0  0  0  0  0  0  0  0  0  0  0  0
   -5.8457    4.8750    0.0000 C   0  0  0  0  0  0  0  0  0  0  0  0
   -4.5466    5.6250    0.0000 C   0  0  0  0  0  0  0  0  0  0  0  0
   -3.2476    4.8750    0.0000 C   0  0  0  0  0  0  0  0  0  0  0  0
    0.6495    5.6250    0.0000 C   0  0  0  0  0  0  0  0  0  0  0  0
   -0.6495    4.8750    0.0000 C   0  0  0  0  0  0  0  0  0  0  0  0
   -0.6495    3.3750    0.0000 O   0  0  0  0  0  0  0  0  0  0  0  0
   -1.9486    5.6250    0.0000 O   0  0  0  0  0  0  0  0  0  0  0  0
  4  1  1  0
  5  2  1  0
  6  4  1  0
  7  6  1  0
  8  7  1  0
  9  8  1  0
 10  3  1  0
  5 10  2  0
 11 10  1  0
 12 11  2  0
 13  9  1  0
 13 11  1  0
M  END
>  <NAME>  (3750) 
HEXYL TIGLATE

>  <SYNONYMS>  (3750) 
HEXYL 2-METHYL-2-BUTENOATE

>  <SPECTRUM TYPE>  (3750) 
MS1

>  <INSTRUMENT TYPE>  (3750) 
EI-B

>  <INSTRUMENT>  (3750) 
HITACHI M-80B

>  <ION MODE>  (3750) 
P

>  <INCHIKEY>  (3750) 
JTCIUOKKVACNCK-BJMVGYQFSA-N

>  <FORMULA>  (3750) 
C11H20O2

>  <EXACT MASS>  (3750) 
184.14632988

>  <MW>  (3750) 
184

>  <ID>  (3750) 
JP006842

>  <CONTRIBUTOR>  (3750) 
University of Tokyo Team, {Faculty of Engineering, University of Tokyo

>  <COMMENT>  (3750) 
SMILES=CCCCCCOC(=O)C(C)=CC
InChI=InChI=1S/C11H20O2/c1-4-6-7-8-9-13-11(12)10(3)5-2/h5H,4,6-9H2,1-3H3/b10-5+
computed SMILES=O=C(OCCCCCC)C(=CC)C
accession=JP006842
date=2016.01.19 (Created 2008.10.21, modified 2011.05.06)
author=TAJIMA S, GUNMA COLLEGE OF TECHNOLOGY
license=CC BY-NC-SA
exact mass=184.14633
ionization energy=70 eV
ion type=[M]+*
computed spectral entropy=2.601406090187651
computed normalized entropy=0.7984435267124975
SPLASH=splash10-0zgl-9200000000-758b3aef8fc0347ecb30
submitter=submitter = University of Tokyo Team (Faculty of Engineering, University of Tokyo)
MoNA Rating=3.75

>  <NUM PEAKS>  (3750) 
26

>  <MASS SPECTRAL PEAKS>  (3750) 
26 1.14
27 25.09
29 32.25
39 18.64
41 26.04
42 13.2
43 33.89
45 1.88
51 1.77
52 1.17
53 10.16
54 8.94
55 82.22
56 28.75
57 4.76
69 9.21
73 1.34
82 4.64
83 78.46
84 12.59
85 4.63
99 1.32
100 16.25
101 99.99
102 4.66
111 1.79

$$$$

     RDKit          2D

 12 11  0  0  0  0  0  0  0  0999 V2000
    2.5981    4.5000    0.0000 C   0  0  0  0  0  0  0  0  0  0  0  0
   -7.7942    4.5000    0.0000 C   0  0  0  0  0  0  0  0  0  0  0  0
   -6.4952    6.7500    0.0000 C   0  0  0  0  0  0  0  0  0  0  0  0
    0.0000    3.0000    0.0000 C   0  0  0  0  0  0  0  0  0  0  0  0
    1.2990    5.2500    0.0000 C   0  0  0  0  0  0  0  0  0  0  0  0
   -5.1962    4.5000    0.0000 C   0  0  0  0  0  0  0  0  0  0  0  0
   -3.8971    5.2500    0.0000 C   0  0  0  0  0  0  0  0  0  0  0  0
   -6.4952    5.2500    0.0000 C   0  0  0  0  0  0  0  0  0  0  0  0
    0.0000    4.5000    0.0000 C   0  0  0  0  0  0  0  0  0  0  0  0
   -1.2990    5.2500    0.0000 C   0  0  0  0  0  0  0  0  0  0  0  0
   -1.2990    6.7500    0.0000 O   0  0  0  0  0  0  0  0  0  0  0  0
   -2.5981    4.5000    0.0000 O   0  0  0  0  0  0  0  0  0  0  0  0
  5  1  1  0
  7  6  1  0
  8  2  1  0
  8  3  1  0
  8  6  1  0
  9  4  1  0
  5  9  2  0
 10  9  1  0
 11 10  2  0
 12  7  1  0
 12 10  1  0
M  END
>  <NAME>  (3751) 
ISOAMYL TIGLATE

>  <SYNONYMS>  (3751) 
3-METHYLBUTYL 2-METHYL-2-BUTENOATE

>  <SPECTRUM TYPE>  (3751) 
MS1

>  <INSTRUMENT TYPE>  (3751) 
EI-B

>  <INSTRUMENT>  (3751) 
HITACHI M-80B

>  <ION MODE>  (3751) 
P

>  <INCHIKEY>  (3751) 
ZARFDQHJMNVNLE-WEVVVXLNSA-N

>  <FORMULA>  (3751) 
C10H18O2

>  <EXACT MASS>  (3751) 
170.130679816

>  <MW>  (3751) 
170

>  <ID>  (3751) 
JP006841

>  <CONTRIBUTOR>  (3751) 
University of Tokyo Team, {Faculty of Engineering, University of Tokyo

>  <COMMENT>  (3751) 
SMILES=CC=C(C)C(=O)OCCC(C)C
InChI=InChI=1S/C10H18O2/c1-5-9(4)10(11)12-7-6-8(2)3/h5,8H,6-7H2,1-4H3/b9-5+
computed SMILES=O=C(OCCC(C)C)C(=CC)C
computed spectral entropy=2.55711986206294
accession=JP006841
date=2016.01.19 (Created 2008.10.21, modified 2011.05.06)
author=TAJIMA S, GUNMA COLLEGE OF TECHNOLOGY
license=CC BY-NC-SA
exact mass=170.13068
ionization energy=70 eV
ion type=[M]+*
computed normalized entropy=0.76739583487584
SPLASH=splash10-0aec-9000000000-6ea37b1728a055d696db
submitter=submitter = University of Tokyo Team (Faculty of Engineering, University of Tokyo)
MoNA Rating=3.75

>  <NUM PEAKS>  (3751) 
28

>  <MASS SPECTRAL PEAKS>  (3751) 
26 1.3
27 25.61
29 28.36
32 1.6
39 21.48
41 22.09
42 12.23
43 34.42
44 1
45 1.93
51 2.16
52 1.34
53 10.55
54 8.24
55 99.99
56 6.89
57 2.64
69 3.28
70 90.4
71 9.88
82 3.24
83 89.41
84 5.83
85 3.19
99 1.04
100 7.03
101 42.82
102 2.15

$$$$

     RDKit          2D

 11 10  0  0  0  0  0  0  0  0999 V2000
    2.2733    4.3125    0.0000 C   0  0  0  0  0  0  0  0  0  0  0  0
   -6.8200    5.0625    0.0000 C   0  0  0  0  0  0  0  0  0  0  0  0
   -5.5209    2.8125    0.0000 C   0  0  0  0  0  0  0  0  0  0  0  0
   -0.3248    2.8125    0.0000 C   0  0  0  0  0  0  0  0  0  0  0  0
    0.9743    5.0625    0.0000 C   0  0  0  0  0  0  0  0  0  0  0  0
   -4.2219    5.0625    0.0000 C   0  0  0  0  0  0  0  0  0  0  0  0
   -5.5209    4.3125    0.0000 C   0  0  0  0  0  0  0  0  0  0  0  0
   -0.3248    4.3125    0.0000 C   0  0  0  0  0  0  0  0  0  0  0  0
   -1.6238    5.0625    0.0000 C   0  0  0  0  0  0  0  0  0  0  0  0
   -1.6238    6.5625    0.0000 O   0  0  0  0  0  0  0  0  0  0  0  0
   -2.9228    4.3125    0.0000 O   0  0  0  0  0  0  0  0  0  0  0  0
  5  1  1  0
  7  2  1  0
  7  3  1  0
  7  6  1  0
  8  4  1  0
  5  8  2  0
  9  8  1  0
 10  9  2  0
 11  6  1  0
 11  9  1  0
M  END
>  <NAME>  (3752) 
ISOBUTYL TIGLATE

>  <SYNONYMS>  (3752) 
ISOBUTYL 2-METHYL-2-BUTENOATE

>  <SPECTRUM TYPE>  (3752) 
MS1

>  <INSTRUMENT TYPE>  (3752) 
EI-B

>  <INSTRUMENT>  (3752) 
HITACHI M-80B

>  <ION MODE>  (3752) 
P

>  <INCHIKEY>  (3752) 
XDEGQMQKHFPBEW-VMPITWQZSA-N

>  <FORMULA>  (3752) 
C9H16O2

>  <EXACT MASS>  (3752) 
156.115029752

>  <MW>  (3752) 
156

>  <ID>  (3752) 
JP006840

>  <CONTRIBUTOR>  (3752) 
University of Tokyo Team, {Faculty of Engineering, University of Tokyo

>  <COMMENT>  (3752) 
SMILES=CC=C(C)C(=O)OCC(C)C
InChI=InChI=1S/C9H16O2/c1-5-8(4)9(10)11-6-7(2)3/h5,7H,6H2,1-4H3/b8-5+
computed SMILES=O=C(OCC(C)C)C(=CC)C
accession=JP006840
date=2016.01.19 (Created 2008.10.21, modified 2011.05.06)
author=TAJIMA S, GUNMA COLLEGE OF TECHNOLOGY
license=CC BY-NC-SA
exact mass=156.11503
ionization energy=70 eV
ion type=[M]+*
computed spectral entropy=2.383087755886338
computed normalized entropy=0.760035768453858
SPLASH=splash10-0pc0-9100000000-3aeed03378ccb49d88a8
submitter=submitter = University of Tokyo Team (Faculty of Engineering, University of Tokyo)
MoNA Rating=3.75

>  <NUM PEAKS>  (3752) 
23

>  <MASS SPECTRAL PEAKS>  (3752) 
26 1.17
27 21.33
29 28.68
39 19.12
41 20.06
42 1.36
43 4.99
45 1.2
51 1.77
52 1.15
53 8.87
54 6.02
55 66.75
56 27.88
57 11.43
73 1.4
82 2.33
83 99.99
84 5.74
85 2.28
100 4.93
101 54.09
102 2.36

$$$$

     RDKit          2D

 10  9  0  0  0  0  0  0  0  0999 V2000
    1.9486    3.3750    0.0000 C   0  0  0  0  0  0  0  0  0  0  0  0
   -5.8457    3.3750    0.0000 C   0  0  0  0  0  0  0  0  0  0  0  0
   -4.5466    5.6250    0.0000 C   0  0  0  0  0  0  0  0  0  0  0  0
   -0.6495    1.8750    0.0000 C   0  0  0  0  0  0  0  0  0  0  0  0
    0.6495    4.1250    0.0000 C   0  0  0  0  0  0  0  0  0  0  0  0
   -4.5466    4.1250    0.0000 C   0  0  0  0  0  0  0  0  0  0  0  0
   -0.6495    3.3750    0.0000 C   0  0  0  0  0  0  0  0  0  0  0  0
   -1.9486    4.1250    0.0000 C   0  0  0  0  0  0  0  0  0  0  0  0
   -1.9486    5.6250    0.0000 O   0  0  0  0  0  0  0  0  0  0  0  0
   -3.2476    3.3750    0.0000 O   0  0  0  0  0  0  0  0  0  0  0  0
  5  1  1  0
  6  2  1  0
  6  3  1  0
  7  4  1  0
  5  7  2  0
  8  7  1  0
  9  8  2  0
 10  6  1  0
 10  8  1  0
M  END
>  <NAME>  (3753) 
ISOPROPYL TIGLATE

>  <SYNONYMS>  (3753) 
ISOPROPYL 2-METHYL-2-BUTENOATE

>  <SPECTRUM TYPE>  (3753) 
MS1

>  <INSTRUMENT TYPE>  (3753) 
EI-B

>  <INSTRUMENT>  (3753) 
HITACHI M-80B

>  <ION MODE>  (3753) 
P

>  <INCHIKEY>  (3753) 
VUPBIVVRPJDWNW-FNORWQNLSA-N

>  <FORMULA>  (3753) 
C8H14O2

>  <EXACT MASS>  (3753) 
142.099379688

>  <MW>  (3753) 
142

>  <ID>  (3753) 
JP006839

>  <CONTRIBUTOR>  (3753) 
University of Tokyo Team, {Faculty of Engineering, University of Tokyo

>  <COMMENT>  (3753) 
SMILES=CC=C(C)C(=O)OC(C)C
InChI=InChI=1S/C8H14O2/c1-5-7(4)8(9)10-6(2)3/h5-6H,1-4H3/b7-5+
computed SMILES=O=C(OC(C)C)C(=CC)C
accession=JP006839
date=2016.01.19 (Created 2008.10.21, modified 2011.05.06)
author=TAJIMA S, GUNMA COLLEGE OF TECHNOLOGY
license=CC BY-NC-SA
exact mass=142.09938
ionization energy=70 eV
ion type=[M]+*
computed spectral entropy=2.8287445805534683
computed normalized entropy=0.8090200094882839
SPLASH=splash10-0pec-9100000000-ea8fe43dfb7eb5b6fa12
submitter=submitter = University of Tokyo Team (Faculty of Engineering, University of Tokyo)
MoNA Rating=3.75

>  <NUM PEAKS>  (3753) 
33

>  <MASS SPECTRAL PEAKS>  (3753) 
15 2.97
26 2.33
27 39.85
29 23.9
31 1.19
38 1.68
39 31.46
41 28.84
42 4.96
43 66.47
44 2.15
45 3.03
50 1.76
51 3.74
52 1.83
53 13.05
54 12.97
55 88.56
56 10.53
57 2.3
59 22.66
69 2.16
82 14.13
83 99.99
84 12.16
85 15.86
99 1.78
100 28.66
101 27.24
102 1.25
127 16.03
128 1.14
142 8.51

$$$$

     RDKit          2D

 10  9  0  0  0  0  0  0  0  0999 V2000
   -6.4952    4.5000    0.0000 C   0  0  0  0  0  0  0  0  0  0  0  0
    2.5981    3.7500    0.0000 C   0  0  0  0  0  0  0  0  0  0  0  0
   -0.0000    2.2500    0.0000 C   0  0  0  0  0  0  0  0  0  0  0  0
   -5.1962    3.7500    0.0000 C   0  0  0  0  0  0  0  0  0  0  0  0
    1.2990    4.5000    0.0000 C   0  0  0  0  0  0  0  0  0  0  0  0
   -3.8971    4.5000    0.0000 C   0  0  0  0  0  0  0  0  0  0  0  0
   -0.0000    3.7500    0.0000 C   0  0  0  0  0  0  0  0  0  0  0  0
   -1.2990    4.5000    0.0000 C   0  0  0  0  0  0  0  0  0  0  0  0
   -1.2990    6.0000    0.0000 O   0  0  0  0  0  0  0  0  0  0  0  0
   -2.5981    3.7500    0.0000 O   0  0  0  0  0  0  0  0  0  0  0  0
  4  1  2  0
  5  2  1  0
  6  4  1  0
  7  3  1  0
  5  7  2  0
  8  7  1  0
  9  8  2  0
 10  6  1  0
 10  8  1  0
M  END
>  <NAME>  (3754) 
ALLYL TIGLATE

>  <SYNONYMS>  (3754) 
ALLYL 2-METHYL-2-BUTENOATE

>  <SPECTRUM TYPE>  (3754) 
MS1

>  <INSTRUMENT TYPE>  (3754) 
EI-B

>  <INSTRUMENT>  (3754) 
HITACHI M-80B

>  <ION MODE>  (3754) 
P

>  <INCHIKEY>  (3754) 
ODOZNBUSHKFCSH-FNORWQNLSA-N

>  <FORMULA>  (3754) 
C8H12O2

>  <EXACT MASS>  (3754) 
140.083729624

>  <MW>  (3754) 
140

>  <ID>  (3754) 
JP006838

>  <CONTRIBUTOR>  (3754) 
University of Tokyo Team, {Faculty of Engineering, University of Tokyo

>  <COMMENT>  (3754) 
SMILES=C=CCOC(=O)C(C)=CC
InChI=InChI=1S/C8H12O2/c1-4-6-10-8(9)7(3)5-2/h4-5H,1,6H2,2-3H3/b7-5+
computed SMILES=O=C(OCC=C)C(=CC)C
accession=JP006838
date=2016.01.19 (Created 2008.10.21, modified 2011.05.06)
author=TAJIMA S, GUNMA COLLEGE OF TECHNOLOGY
license=CC BY-NC-SA
exact mass=140.08373
ionization energy=70 eV
ion type=[M]+*
computed spectral entropy=2.528412890222269
computed normalized entropy=0.7170035146923847
SPLASH=splash10-0560-9000000000-46f5257796adc2a4b13f
submitter=submitter = University of Tokyo Team (Faculty of Engineering, University of Tokyo)
MoNA Rating=3.75

>  <NUM PEAKS>  (3754) 
34

>  <MASS SPECTRAL PEAKS>  (3754) 
15 1.01
26 2.52
27 20.91
29 19.88
38 2.13
39 30.92
41 28.84
42 1.31
43 4.96
45 1.16
50 1.6
51 2.83
52 1.33
53 12.43
54 7.42
55 92.6
56 6.17
57 2.04
67 1.77
69 2.13
79 1.93
81 2.74
82 2.24
83 99.99
84 6.6
94 1.13
95 18.5
96 1.39
97 1.49
99 1.08
111 1.21
112 1.3
125 16.3
140 7.79

$$$$

     RDKit          2D

  9  8  0  0  0  0  0  0  0  0999 V2000
    1.9486    3.3750    0.0000 C   0  0  0  0  0  0  0  0  0  0  0  0
   -5.8457    3.3750    0.0000 C   0  0  0  0  0  0  0  0  0  0  0  0
   -0.6495    1.8750    0.0000 C   0  0  0  0  0  0  0  0  0  0  0  0
    0.6495    4.1250    0.0000 C   0  0  0  0  0  0  0  0  0  0  0  0
   -4.5466    4.1250    0.0000 C   0  0  0  0  0  0  0  0  0  0  0  0
   -0.6495    3.3750    0.0000 C   0  0  0  0  0  0  0  0  0  0  0  0
   -1.9486    4.1250    0.0000 C   0  0  0  0  0  0  0  0  0  0  0  0
   -1.9486    5.6250    0.0000 O   0  0  0  0  0  0  0  0  0  0  0  0
   -3.2476    3.3750    0.0000 O   0  0  0  0  0  0  0  0  0  0  0  0
  4  1  1  0
  5  2  1  0
  6  3  1  0
  4  6  2  0
  7  6  1  0
  8  7  2  0
  9  5  1  0
  9  7  1  0
M  END
>  <NAME>  (3755) 
ETHYL TIGLATE

>  <SYNONYMS>  (3755) 
ETHYL 2-METHYL-2-BUTENOATE

>  <SPECTRUM TYPE>  (3755) 
MS1

>  <INSTRUMENT TYPE>  (3755) 
EI-B

>  <INSTRUMENT>  (3755) 
HITACHI M-80B

>  <ION MODE>  (3755) 
P

>  <INCHIKEY>  (3755) 
OAPHLAAOJMTMLY-GQCTYLIASA-N

>  <FORMULA>  (3755) 
C7H12O2

>  <EXACT MASS>  (3755) 
128.083729624

>  <MW>  (3755) 
128

>  <ID>  (3755) 
JP006837

>  <CONTRIBUTOR>  (3755) 
University of Tokyo Team, {Faculty of Engineering, University of Tokyo

>  <COMMENT>  (3755) 
SMILES=CCOC(=O)C(C)=CC
InChI=InChI=1S/C7H12O2/c1-4-6(3)7(8)9-5-2/h4H,5H2,1-3H3/b6-4+
computed SMILES=O=C(OCC)C(=CC)C
accession=JP006837
date=2016.01.19 (Created 2008.10.21, modified 2011.05.06)
author=TAJIMA S, GUNMA COLLEGE OF TECHNOLOGY
license=CC BY-NC-SA
exact mass=128.08373
ionization energy=70 eV
ion type=[M]+*
computed spectral entropy=2.6623028083743345
computed normalized entropy=0.7681782117972825
SPLASH=splash10-0ke9-9100000000-13581cf2a37b7b5cbddf
submitter=submitter = University of Tokyo Team (Faculty of Engineering, University of Tokyo)
MoNA Rating=3.75

>  <NUM PEAKS>  (3755) 
32

>  <MASS SPECTRAL PEAKS>  (3755) 
15 1.71
26 3.55
27 38.83
29 46.54
30 1.57
38 1.31
39 21.93
40 1.95
41 5.02
43 6.32
45 5.82
50 2.62
51 3.99
52 2.32
53 14.68
54 13.61
55 99.99
56 8.6
57 1.2
69 1.78
73 1.13
82 12.65
83 76.9
84 4.65
85 10.68
99 1.81
100 22.87
101 1.3
113 20
114 1.11
128 16.05
129 1.31

$$$$

     RDKit          2D

  8  7  0  0  0  0  0  0  0  0999 V2000
    1.9486    2.6250    0.0000 C   0  0  0  0  0  0  0  0  0  0  0  0
   -0.6495    1.1250    0.0000 C   0  0  0  0  0  0  0  0  0  0  0  0
   -4.5466    3.3750    0.0000 C   0  0  0  0  0  0  0  0  0  0  0  0
    0.6495    3.3750    0.0000 C   0  0  0  0  0  0  0  0  0  0  0  0
   -0.6495    2.6250    0.0000 C   0  0  0  0  0  0  0  0  0  0  0  0
   -1.9486    3.3750    0.0000 C   0  0  0  0  0  0  0  0  0  0  0  0
   -1.9486    4.8750    0.0000 O   0  0  0  0  0  0  0  0  0  0  0  0
   -3.2476    2.6250    0.0000 O   0  0  0  0  0  0  0  0  0  0  0  0
  4  1  1  0
  5  2  1  0
  4  5  2  0
  6  5  1  0
  7  6  2  0
  8  3  1  0
  8  6  1  0
M  END
>  <NAME>  (3756) 
METHYL TIGLATE

>  <SYNONYMS>  (3756) 
METHYL 2-METHYL-2-BUTENOATE

>  <SPECTRUM TYPE>  (3756) 
MS1

>  <INSTRUMENT TYPE>  (3756) 
EI-B

>  <INSTRUMENT>  (3756) 
HITACHI M-80B

>  <ION MODE>  (3756) 
P

>  <INCHIKEY>  (3756) 
YYJWBYNQJLBIGS-SNAWJCMRSA-N

>  <FORMULA>  (3756) 
C6H10O2

>  <EXACT MASS>  (3756) 
114.06807956

>  <MW>  (3756) 
114

>  <ID>  (3756) 
JP006836

>  <CONTRIBUTOR>  (3756) 
University of Tokyo Team, {Faculty of Engineering, University of Tokyo

>  <COMMENT>  (3756) 
SMILES=CC=C(C)C(=O)OC
InChI=InChI=1S/C6H10O2/c1-4-5(2)6(7)8-3/h4H,1-3H3/b5-4+
computed SMILES=O=C(OC)C(=CC)C
accession=JP006836
date=2016.01.19 (Created 2008.10.21, modified 2011.05.06)
author=TAJIMA S, GUNMA COLLEGE OF TECHNOLOGY
license=CC BY-NC-SA
exact mass=114.06808
ionization energy=70 eV
ion type=[M]+*
computed spectral entropy=2.653985512908354
computed normalized entropy=0.7881652361144089
SPLASH=splash10-0a7i-9100000000-654c14d45a8ceb8fb418
submitter=submitter = University of Tokyo Team (Faculty of Engineering, University of Tokyo)
MoNA Rating=3.75

>  <NUM PEAKS>  (3756) 
29

>  <MASS SPECTRAL PEAKS>  (3756) 
15 12.91
26 3.22
27 30.32
29 23.88
30 1.33
31 1.21
38 2.37
39 24.64
41 3.83
42 1
43 6.21
45 1.74
50 4.9
51 7.3
52 2.91
53 17.01
54 14.53
55 99.99
56 5.47
59 11.95
69 1.52
71 1.98
81 1.5
82 10.59
83 50.18
84 2.46
99 12.81
114 40.85
115 2.48

$$$$

     RDKit          2D

 14 14  0  0  0  0  0  0  0  0999 V2000
   -7.4692    4.2571    0.0000 C   0  0  0  0  0  0  0  0  0  0  0  0
   -6.1702    3.5071    0.0000 C   0  0  0  0  0  0  0  0  0  0  0  0
    4.2221    2.0071    0.0000 C   0  0  0  0  0  0  0  0  0  0  0  0
    4.2226    3.5079    0.0000 C   0  0  0  0  0  0  0  0  0  0  0  0
    2.9226    1.2563    0.0000 C   0  0  0  0  0  0  0  0  0  0  0  0
   -4.8712    4.2571    0.0000 C   0  0  0  0  0  0  0  0  0  0  0  0
    2.9236    4.2579    0.0000 C   0  0  0  0  0  0  0  0  0  0  0  0
    1.6236    2.0063    0.0000 C   0  0  0  0  0  0  0  0  0  0  0  0
    0.3250    4.2571    0.0000 C   0  0  0  0  0  0  0  0  0  0  0  0
   -0.9740    3.5071    0.0000 C   0  0  0  0  0  0  0  0  0  0  0  0
    1.6240    3.5071    0.0000 C   0  0  0  0  0  0  0  0  0  0  0  0
   -3.5721    3.5071    0.0000 C   0  0  0  0  0  0  0  0  0  0  0  0
   -3.5721    2.0071    0.0000 O   0  0  0  0  0  0  0  0  0  0  0  0
   -2.2731    4.2571    0.0000 O   0  0  0  0  0  0  0  0  0  0  0  0
  2  1  1  0
  4  3  2  0
  5  3  1  0
  2  6  2  0
  7  4  1  0
  8  5  2  0
 10  9  1  0
 11  7  2  0
 11  8  1  0
 11  9  1  0
 12  6  1  0
 13 12  2  0
 14 10  1  0
 14 12  1  0
M  END
>  <NAME>  (3757) 
PHENYLETHYL CROTONATE

>  <SYNONYMS>  (3757) 
PHENETHYL TRANS-2-BUTENOATE

>  <SPECTRUM TYPE>  (3757) 
MS1

>  <INSTRUMENT TYPE>  (3757) 
EI-B

>  <INSTRUMENT>  (3757) 
HITACHI M-80B

>  <ION MODE>  (3757) 
P

>  <INCHIKEY>  (3757) 
DVHGIHSWUYRIPZ-QHHAFSJGSA-N

>  <FORMULA>  (3757) 
C12H14O2

>  <EXACT MASS>  (3757) 
190.099379688

>  <MW>  (3757) 
190

>  <ID>  (3757) 
JP006835

>  <CONTRIBUTOR>  (3757) 
University of Tokyo Team, {Faculty of Engineering, University of Tokyo

>  <COMMENT>  (3757) 
SMILES=CC=CC(=O)OCCc(c1)cccc1
InChI=InChI=1S/C12H14O2/c1-2-6-12(13)14-10-9-11-7-4-3-5-8-11/h2-8H,9-10H2,1H3/b6-2+
computed SMILES=O=C(OCCC=1C=CC=CC1)C=CC
accession=JP006835
date=2016.01.19 (Created 2008.10.21, modified 2011.05.06)
author=TAJIMA S, GUNMA COLLEGE OF TECHNOLOGY
license=CC BY-NC-SA
exact mass=190.09938
ionization energy=70 eV
ion type=[M]+*
computed spectral entropy=2.081519175165948
computed normalized entropy=0.6836931629652985
SPLASH=splash10-0uxr-9700000000-4cb793afcc3824caaf11
submitter=submitter = University of Tokyo Team (Faculty of Engineering, University of Tokyo)
MoNA Rating=3.75

>  <NUM PEAKS>  (3757) 
21

>  <MASS SPECTRAL PEAKS>  (3757) 
27 2.36
38 1.31
39 16.92
41 21.11
50 1.3
51 4.71
52 1.06
63 1.91
65 6.57
68 1.1
69 56.82
70 2.12
77 7.38
78 4.96
79 2.8
89 1.26
91 10.91
92 1.24
103 4.86
104 99.99
105 12.71

$$$$

     RDKit          2D

 13 13  0  0  0  0  0  0  0  0999 V2000
   -6.8197    3.1321    0.0000 C   0  0  0  0  0  0  0  0  0  0  0  0
   -5.5207    3.8821    0.0000 C   0  0  0  0  0  0  0  0  0  0  0  0
    3.5726    1.6321    0.0000 C   0  0  0  0  0  0  0  0  0  0  0  0
    3.5731    3.1329    0.0000 C   0  0  0  0  0  0  0  0  0  0  0  0
    2.2731    0.8813    0.0000 C   0  0  0  0  0  0  0  0  0  0  0  0
   -4.2216    3.1321    0.0000 C   0  0  0  0  0  0  0  0  0  0  0  0
    2.2740    3.8829    0.0000 C   0  0  0  0  0  0  0  0  0  0  0  0
    0.9740    1.6313    0.0000 C   0  0  0  0  0  0  0  0  0  0  0  0
   -0.3245    3.8821    0.0000 C   0  0  0  0  0  0  0  0  0  0  0  0
    0.9745    3.1321    0.0000 C   0  0  0  0  0  0  0  0  0  0  0  0
   -2.9226    3.8821    0.0000 C   0  0  0  0  0  0  0  0  0  0  0  0
   -2.9226    5.3821    0.0000 O   0  0  0  0  0  0  0  0  0  0  0  0
   -1.6236    3.1321    0.0000 O   0  0  0  0  0  0  0  0  0  0  0  0
  2  1  1  0
  4  3  2  0
  5  3  1  0
  2  6  2  0
  7  4  1  0
  8  5  2  0
 10  7  2  0
 10  8  1  0
 10  9  1  0
 11  6  1  0
 12 11  2  0
 13  9  1  0
 13 11  1  0
M  END
>  <NAME>  (3758) 
BENZYL CROTONATE

>  <SYNONYMS>  (3758) 
BENZYL TRANS-2-BUTENOATE

>  <SPECTRUM TYPE>  (3758) 
MS1

>  <INSTRUMENT TYPE>  (3758) 
EI-B

>  <INSTRUMENT>  (3758) 
HITACHI M-80B

>  <ION MODE>  (3758) 
P

>  <INCHIKEY>  (3758) 
NCPTYZLUYHXITE-QHHAFSJGSA-N

>  <FORMULA>  (3758) 
C11H12O2

>  <EXACT MASS>  (3758) 
176.083729624

>  <MW>  (3758) 
176

>  <ID>  (3758) 
JP006834

>  <CONTRIBUTOR>  (3758) 
University of Tokyo Team, {Faculty of Engineering, University of Tokyo

>  <COMMENT>  (3758) 
SMILES=CC=CC(=O)OCc(c1)cccc1
InChI=InChI=1S/C11H12O2/c1-2-6-11(12)13-9-10-7-4-3-5-8-10/h2-8H,9H2,1H3/b6-2+
computed SMILES=O=C(OCC=1C=CC=CC1)C=CC
accession=JP006834
date=2016.01.19 (Created 2008.10.21, modified 2011.05.06)
author=TAJIMA S, GUNMA COLLEGE OF TECHNOLOGY
license=CC BY-NC-SA
exact mass=176.08373
ionization energy=70 eV
ion type=[M]+*
computed spectral entropy=2.8593181463603186
computed normalized entropy=0.7602143088398429
SPLASH=splash10-014l-9200000000-f28cdf35b1fb81953b15
submitter=submitter = University of Tokyo Team (Faculty of Engineering, University of Tokyo)
MoNA Rating=3.75

>  <NUM PEAKS>  (3758) 
43

>  <MASS SPECTRAL PEAKS>  (3758) 
15 1.06
26 1.2
27 2.18
29 1.52
38 2.98
39 30.8
41 27.69
42 2.18
50 3.95
51 12.34
52 2.78
53 1.15
62 1.14
63 4.74
64 1.67
65 16.84
66 1.01
68 1.2
69 99.99
70 5.25
76 1.05
77 15.89
78 3.12
79 14.3
80 1.04
89 5.58
90 12.28
91 77.15
92 4.87
105 5.11
106 1.56
107 16.13
108 4.98
115 1.22
117 2.08
129 1.31
130 6.3
131 21.71
132 2.13
158 7.02
161 1.65
176 13.53
177 1.4

$$$$

     RDKit          2D

 14 13  0  0  0  0  0  0  0  0999 V2000
    3.8971    6.7500    0.0000 C   0  0  0  0  0  0  0  0  0  0  0  0
  -11.6913    6.7500    0.0000 C   0  0  0  0  0  0  0  0  0  0  0  0
    2.5981    7.5000    0.0000 C   0  0  0  0  0  0  0  0  0  0  0  0
  -10.3923    7.5000    0.0000 C   0  0  0  0  0  0  0  0  0  0  0  0
    1.2990    6.7500    0.0000 C   0  0  0  0  0  0  0  0  0  0  0  0
    0.0000    7.5000    0.0000 C   0  0  0  0  0  0  0  0  0  0  0  0
   -1.2990    6.7500    0.0000 C   0  0  0  0  0  0  0  0  0  0  0  0
   -2.5981    7.5000    0.0000 C   0  0  0  0  0  0  0  0  0  0  0  0
   -3.8971    6.7500    0.0000 C   0  0  0  0  0  0  0  0  0  0  0  0
   -9.0933    6.7500    0.0000 C   0  0  0  0  0  0  0  0  0  0  0  0
   -5.1962    7.5000    0.0000 C   0  0  0  0  0  0  0  0  0  0  0  0
   -7.7942    7.5000    0.0000 C   0  0  0  0  0  0  0  0  0  0  0  0
   -7.7942    9.0000    0.0000 O   0  0  0  0  0  0  0  0  0  0  0  0
   -6.4952    6.7500    0.0000 O   0  0  0  0  0  0  0  0  0  0  0  0
  3  1  1  0
  4  2  1  0
  5  3  1  0
  6  5  1  0
  7  6  1  0
  8  7  1  0
  9  8  1  0
  4 10  2  0
 11  9  1  0
 12 10  1  0
 13 12  2  0
 14 11  1  0
 14 12  1  0
M  END
>  <NAME>  (3759) 
OCTYL CROTONATE

>  <SYNONYMS>  (3759) 
OCTYL TRANS-2-BUTENOATE

>  <SPECTRUM TYPE>  (3759) 
MS1

>  <INSTRUMENT TYPE>  (3759) 
EI-B

>  <INSTRUMENT>  (3759) 
HITACHI M-80B

>  <ION MODE>  (3759) 
P

>  <INCHIKEY>  (3759) 
HULBECQFWZPEBI-ONNFQVAWSA-N

>  <FORMULA>  (3759) 
C12H22O2

>  <EXACT MASS>  (3759) 
198.161979944

>  <MW>  (3759) 
198

>  <ID>  (3759) 
JP006833

>  <CONTRIBUTOR>  (3759) 
University of Tokyo Team, {Faculty of Engineering, University of Tokyo

>  <COMMENT>  (3759) 
SMILES=CCCCCCCCOC(=O)C=CC
InChI=InChI=1S/C12H22O2/c1-3-5-6-7-8-9-11-14-12(13)10-4-2/h4,10H,3,5-9,11H2,1-2H3/b10-4+
computed SMILES=O=C(OCCCCCCCC)C=CC
accession=JP006833
license=CC BY-NC-SA
date=2016.01.19 (Created 2008.10.21, modified 2011.05.06)
author=TAJIMA S, GUNMA COLLEGE OF TECHNOLOGY
exact mass=198.16198
ionization energy=70 eV
ion type=[M]+*
computed spectral entropy=2.4734377449561076
computed normalized entropy=0.7782869255821592
SPLASH=splash10-00ku-9000000000-db6830519aed687409ec
submitter=submitter = University of Tokyo Team (Faculty of Engineering, University of Tokyo)
MoNA Rating=3.75

>  <NUM PEAKS>  (3759) 
24

>  <MASS SPECTRAL PEAKS>  (3759) 
27 9.12
29 12.47
39 20.52
41 51.08
42 11.9
43 19.71
53 1.38
54 2
55 17.68
56 17.32
57 8.95
67 1.61
68 4.6
69 99.99
70 18.38
71 2.95
82 2.04
83 9.88
84 8.74
86 1.24
87 87.19
88 2.99
97 1.06
112 8.32

$$$$

     RDKit          2D

 12 11  0  0  0  0  0  0  0  0999 V2000
   -4.2219    3.9375    0.0000 C   0  0  0  0  0  0  0  0  0  0  0  0
    7.4695    6.1875    0.0000 C   0  0  0  0  0  0  0  0  0  0  0  0
   -2.9228    4.6875    0.0000 C   0  0  0  0  0  0  0  0  0  0  0  0
    6.1704    6.9375    0.0000 C   0  0  0  0  0  0  0  0  0  0  0  0
   -2.9228    6.1875    0.0000 C   0  0  0  0  0  0  0  0  0  0  0  0
   -1.6238    6.9375    0.0000 C   0  0  0  0  0  0  0  0  0  0  0  0
   -0.3248    6.1875    0.0000 C   0  0  0  0  0  0  0  0  0  0  0  0
    4.8714    6.1875    0.0000 C   0  0  0  0  0  0  0  0  0  0  0  0
    0.9743    6.9375    0.0000 C   0  0  0  0  0  0  0  0  0  0  0  0
    3.5724    6.9375    0.0000 C   0  0  0  0  0  0  0  0  0  0  0  0
    3.5724    8.4375    0.0000 O   0  0  0  0  0  0  0  0  0  0  0  0
    2.2733    6.1875    0.0000 O   0  0  0  0  0  0  0  0  0  0  0  0
  3  1  1  0
  4  2  1  0
  5  3  1  0
  5  6  2  0
  7  6  1  0
  4  8  2  0
  9  7  1  0
 10  8  1  0
 11 10  2  0
 12  9  1  0
 12 10  1  0
M  END
>  <NAME>  (3760) 
CIS-3-HEXENYL CROTONATE

>  <SYNONYMS>  (3760) 
CIS-3-HEXENYL TRANS-2-BUTENOATE

>  <SPECTRUM TYPE>  (3760) 
MS1

>  <INSTRUMENT TYPE>  (3760) 
EI-B

>  <INSTRUMENT>  (3760) 
HITACHI M-80B

>  <ION MODE>  (3760) 
P

>  <INCHIKEY>  (3760) 
KITGYVIOYOCIIE-QNMAEOQASA-N

>  <FORMULA>  (3760) 
C10H16O2

>  <EXACT MASS>  (3760) 
168.115029752

>  <MW>  (3760) 
168

>  <ID>  (3760) 
JP006832

>  <CONTRIBUTOR>  (3760) 
University of Tokyo Team, {Faculty of Engineering, University of Tokyo

>  <COMMENT>  (3760) 
SMILES=CCC=CCCOC(=O)C=CC
InChI=InChI=1S/C10H16O2/c1-3-5-6-7-9-12-10(11)8-4-2/h4-6,8H,3,7,9H2,1-2H3/b6-5-,8-4+
computed SMILES=O=C(OCCC=CCC)C=CC
accession=JP006832
date=2016.01.19 (Created 2008.10.21, modified 2011.05.06)
author=TAJIMA S, GUNMA COLLEGE OF TECHNOLOGY
license=CC BY-NC-SA
exact mass=168.11503
ionization energy=70 eV
ion type=[M]+*
computed spectral entropy=2.161422071209497
computed normalized entropy=0.7340692357704718
SPLASH=splash10-014i-9000000000-c727e746c3c867f93a01
submitter=submitter = University of Tokyo Team (Faculty of Engineering, University of Tokyo)
MoNA Rating=3.75

>  <NUM PEAKS>  (3760) 
19

>  <MASS SPECTRAL PEAKS>  (3760) 
27 8.83
29 4.36
38 1.51
39 30.36
40 1.81
41 48.45
42 3.8
51 1.13
53 4.6
54 6.5
55 7.48
67 57.27
68 4.61
69 99.99
70 4.52
81 4.21
82 62.24
83 4.02
87 3.77

$$$$

     RDKit          2D

 11 10  0  0  0  0  0  0  0  0999 V2000
    2.5981    4.5000    0.0000 C   0  0  0  0  0  0  0  0  0  0  0  0
   -7.7942    4.5000    0.0000 C   0  0  0  0  0  0  0  0  0  0  0  0
   -6.4952    6.7500    0.0000 C   0  0  0  0  0  0  0  0  0  0  0  0
    1.2990    5.2500    0.0000 C   0  0  0  0  0  0  0  0  0  0  0  0
    0.0000    4.5000    0.0000 C   0  0  0  0  0  0  0  0  0  0  0  0
   -5.1962    4.5000    0.0000 C   0  0  0  0  0  0  0  0  0  0  0  0
   -3.8971    5.2500    0.0000 C   0  0  0  0  0  0  0  0  0  0  0  0
   -6.4952    5.2500    0.0000 C   0  0  0  0  0  0  0  0  0  0  0  0
   -1.2990    5.2500    0.0000 C   0  0  0  0  0  0  0  0  0  0  0  0
   -1.2990    6.7500    0.0000 O   0  0  0  0  0  0  0  0  0  0  0  0
   -2.5981    4.5000    0.0000 O   0  0  0  0  0  0  0  0  0  0  0  0
  4  1  1  0
  4  5  2  0
  7  6  1  0
  8  2  1  0
  8  3  1  0
  8  6  1  0
  9  5  1  0
 10  9  2  0
 11  7  1  0
 11  9  1  0
M  END
>  <NAME>  (3761) 
ISOAMYL CROTONATE

>  <SYNONYMS>  (3761) 
3-METHYLBUTYL TRANS-2-BUTENOATE

>  <SPECTRUM TYPE>  (3761) 
MS1

>  <INSTRUMENT TYPE>  (3761) 
EI-B

>  <INSTRUMENT>  (3761) 
HITACHI M-80B

>  <ION MODE>  (3761) 
P

>  <INCHIKEY>  (3761) 
JAVOYFHBJFLMRQ-SNAWJCMRSA-N

>  <FORMULA>  (3761) 
C9H16O2

>  <EXACT MASS>  (3761) 
156.115029752

>  <MW>  (3761) 
156

>  <ID>  (3761) 
JP006831

>  <CONTRIBUTOR>  (3761) 
University of Tokyo Team, {Faculty of Engineering, University of Tokyo

>  <COMMENT>  (3761) 
SMILES=CC=CC(=O)OCCC(C)C
InChI=InChI=1S/C9H16O2/c1-4-5-9(10)11-7-6-8(2)3/h4-5,8H,6-7H2,1-3H3/b5-4+
computed SMILES=O=C(OCCC(C)C)C=CC
accession=JP006831
date=2016.01.19 (Created 2008.10.21, modified 2011.05.06)
author=TAJIMA S, GUNMA COLLEGE OF TECHNOLOGY
license=CC BY-NC-SA
exact mass=156.11503
ionization energy=70 eV
ion type=[M]+*
computed spectral entropy=2.18151038907601
computed normalized entropy=0.7282060577756411
SPLASH=splash10-01bc-9000000000-c3827e7d2b050f186e91
submitter=submitter = University of Tokyo Team (Faculty of Engineering, University of Tokyo)
MoNA Rating=3.75

>  <NUM PEAKS>  (3761) 
20

>  <MASS SPECTRAL PEAKS>  (3761) 
27 9.27
29 6.34
38 1.4
39 26.21
41 38.6
42 10.46
43 14.39
45 1.34
53 1.22
55 22.03
56 1.61
57 1.02
68 2.24
69 99.99
70 58.22
71 3.52
86 1
87 21.72
99 1.42
113 1.3

$$$$

     RDKit          2D

 11 10  0  0  0  0  0  0  0  0999 V2000
   -8.4437    5.6250    0.0000 C   0  0  0  0  0  0  0  0  0  0  0  0
    3.2476    4.8750    0.0000 C   0  0  0  0  0  0  0  0  0  0  0  0
   -7.1447    4.8750    0.0000 C   0  0  0  0  0  0  0  0  0  0  0  0
    1.9486    5.6250    0.0000 C   0  0  0  0  0  0  0  0  0  0  0  0
   -5.8457    5.6250    0.0000 C   0  0  0  0  0  0  0  0  0  0  0  0
   -4.5466    4.8750    0.0000 C   0  0  0  0  0  0  0  0  0  0  0  0
    0.6495    4.8750    0.0000 C   0  0  0  0  0  0  0  0  0  0  0  0
   -3.2476    5.6250    0.0000 C   0  0  0  0  0  0  0  0  0  0  0  0
   -0.6495    5.6250    0.0000 C   0  0  0  0  0  0  0  0  0  0  0  0
   -0.6495    7.1250    0.0000 O   0  0  0  0  0  0  0  0  0  0  0  0
   -1.9486    4.8750    0.0000 O   0  0  0  0  0  0  0  0  0  0  0  0
  3  1  1  0
  4  2  1  0
  5  3  1  0
  6  5  1  0
  4  7  2  0
  8  6  1  0
  9  7  1  0
 10  9  2  0
 11  8  1  0
 11  9  1  0
M  END
>  <NAME>  (3762) 
AMYL CROTONATE

>  <SYNONYMS>  (3762) 
PENTYL TRANS-2-BUTENOATE

>  <SPECTRUM TYPE>  (3762) 
MS1

>  <INSTRUMENT TYPE>  (3762) 
EI-B

>  <INSTRUMENT>  (3762) 
HITACHI M-80B

>  <ION MODE>  (3762) 
P

>  <INCHIKEY>  (3762) 
PWYYERNADDIMJR-QPJJXVBHSA-N

>  <FORMULA>  (3762) 
C9H16O2

>  <EXACT MASS>  (3762) 
156.115029752

>  <MW>  (3762) 
156

>  <ID>  (3762) 
JP006830

>  <CONTRIBUTOR>  (3762) 
University of Tokyo Team, {Faculty of Engineering, University of Tokyo

>  <COMMENT>  (3762) 
SMILES=CCCCCOC(=O)C=CC
InChI=InChI=1S/C9H16O2/c1-3-5-6-8-11-9(10)7-4-2/h4,7H,3,5-6,8H2,1-2H3/b7-4+
computed SMILES=O=C(OCCCCC)C=CC
accession=JP006830
date=2016.01.19 (Created 2008.10.21, modified 2011.05.06)
author=TAJIMA S, GUNMA COLLEGE OF TECHNOLOGY
license=CC BY-NC-SA
exact mass=156.11503
ionization energy=70 eV
ion type=[M]+*
computed spectral entropy=2.0952463674857875
computed normalized entropy=0.7395300364095045
SPLASH=splash10-014u-9000000000-cb18dd6645358b9f2fd7
submitter=submitter = University of Tokyo Team (Faculty of Engineering, University of Tokyo)
MoNA Rating=3.75

>  <NUM PEAKS>  (3762) 
17

>  <MASS SPECTRAL PEAKS>  (3762) 
26 1.01
27 10.17
29 9.55
38 1.36
39 23.82
40 1.55
41 38.13
42 15.68
43 10.4
55 12.34
68 2.19
69 99.99
70 17.48
71 1.34
87 64.55
88 2.45
99 1.03

$$$$

     RDKit          2D

 10  9  0  0  0  0  0  0  0  0999 V2000
    2.5981    4.5000    0.0000 C   0  0  0  0  0  0  0  0  0  0  0  0
   -7.7942    4.5000    0.0000 C   0  0  0  0  0  0  0  0  0  0  0  0
    1.2990    5.2500    0.0000 C   0  0  0  0  0  0  0  0  0  0  0  0
   -6.4952    5.2500    0.0000 C   0  0  0  0  0  0  0  0  0  0  0  0
    0.0000    4.5000    0.0000 C   0  0  0  0  0  0  0  0  0  0  0  0
   -5.1962    4.5000    0.0000 C   0  0  0  0  0  0  0  0  0  0  0  0
   -1.2990    5.2500    0.0000 C   0  0  0  0  0  0  0  0  0  0  0  0
   -3.8971    5.2500    0.0000 C   0  0  0  0  0  0  0  0  0  0  0  0
   -3.8971    6.7500    0.0000 O   0  0  0  0  0  0  0  0  0  0  0  0
   -2.5981    4.5000    0.0000 O   0  0  0  0  0  0  0  0  0  0  0  0
  3  1  1  0
  4  2  1  0
  5  3  1  0
  4  6  2  0
  7  5  1  0
  8  6  1  0
  9  8  2  0
 10  7  1  0
 10  8  1  0
M  END
>  <NAME>  (3763) 
BUTYL CROTONATE

>  <SYNONYMS>  (3763) 
BUTYL TRANS-2-BUTENOATE

>  <SPECTRUM TYPE>  (3763) 
MS1

>  <INSTRUMENT TYPE>  (3763) 
EI-B

>  <INSTRUMENT>  (3763) 
HITACHI M-80B

>  <ION MODE>  (3763) 
P

>  <INCHIKEY>  (3763) 
GWCTUKHUBWMAMI-GQCTYLIASA-N

>  <FORMULA>  (3763) 
C8H14O2

>  <EXACT MASS>  (3763) 
142.099379688

>  <MW>  (3763) 
142

>  <ID>  (3763) 
JP006829

>  <CONTRIBUTOR>  (3763) 
University of Tokyo Team, {Faculty of Engineering, University of Tokyo

>  <COMMENT>  (3763) 
SMILES=CCCCOC(=O)C=CC
InChI=InChI=1S/C8H14O2/c1-3-5-7-10-8(9)6-4-2/h4,6H,3,5,7H2,1-2H3/b6-4+
computed SMILES=O=C(OCCCC)C=CC
accession=JP006829
date=2016.01.19 (Created 2008.10.21, modified 2011.05.06)
author=TAJIMA S, GUNMA COLLEGE OF TECHNOLOGY
license=CC BY-NC-SA
exact mass=142.09938
ionization energy=70 eV
ion type=[M]+*
computed spectral entropy=2.0881960705304565
computed normalized entropy=0.675563698020938
SPLASH=splash10-014r-9000000000-8a3fc909d35cb68b2dc1
submitter=submitter = University of Tokyo Team (Faculty of Engineering, University of Tokyo)
MoNA Rating=3.75

>  <NUM PEAKS>  (3763) 
22

>  <MASS SPECTRAL PEAKS>  (3763) 
15 1.16
26 1.11
27 8.93
29 10.76
31 1.1
38 1.57
39 23.7
40 1.26
41 37.91
42 2.35
43 2.09
55 5.01
56 16.33
57 3.14
68 1.93
69 99.99
70 5.64
86 1
87 55.18
88 2.4
99 1.29
127 1.07

$$$$

     RDKit          2D

  9  8  0  0  0  0  0  0  0  0999 V2000
    2.5981    3.7500    0.0000 C   0  0  0  0  0  0  0  0  0  0  0  0
   -6.4952    4.5000    0.0000 C   0  0  0  0  0  0  0  0  0  0  0  0
    1.2990    4.5000    0.0000 C   0  0  0  0  0  0  0  0  0  0  0  0
   -5.1962    3.7500    0.0000 C   0  0  0  0  0  0  0  0  0  0  0  0
    0.0000    3.7500    0.0000 C   0  0  0  0  0  0  0  0  0  0  0  0
   -3.8971    4.5000    0.0000 C   0  0  0  0  0  0  0  0  0  0  0  0
   -1.2990    4.5000    0.0000 C   0  0  0  0  0  0  0  0  0  0  0  0
   -1.2990    6.0000    0.0000 O   0  0  0  0  0  0  0  0  0  0  0  0
   -2.5981    3.7500    0.0000 O   0  0  0  0  0  0  0  0  0  0  0  0
  3  1  1  0
  4  2  2  0
  3  5  2  0
  6  4  1  0
  7  5  1  0
  8  7  2  0
  9  6  1  0
  9  7  1  0
M  END
>  <NAME>  (3764) 
ALLYL CROTONATE

>  <SYNONYMS>  (3764) 
ALLYL TRANS-2-BUTENOATE

>  <SPECTRUM TYPE>  (3764) 
MS1

>  <INSTRUMENT TYPE>  (3764) 
EI-B

>  <INSTRUMENT>  (3764) 
HITACHI M-80B

>  <ION MODE>  (3764) 
P

>  <INCHIKEY>  (3764) 
WNJBUWVXSNLWEQ-HWKANZROSA-N

>  <FORMULA>  (3764) 
C7H10O2

>  <EXACT MASS>  (3764) 
126.06807956

>  <MW>  (3764) 
126

>  <ID>  (3764) 
JP006828

>  <CONTRIBUTOR>  (3764) 
University of Tokyo Team, {Faculty of Engineering, University of Tokyo

>  <COMMENT>  (3764) 
SMILES=C=CCOC(=O)C=CC
InChI=InChI=1S/C7H10O2/c1-3-5-7(8)9-6-4-2/h3-5H,2,6H2,1H3/b5-3+
computed SMILES=O=C(OCC=C)C=CC
accession=JP006828
date=2016.01.19 (Created 2008.10.21, modified 2011.05.06)
author=TAJIMA S, GUNMA COLLEGE OF TECHNOLOGY
license=CC BY-NC-SA
exact mass=126.06808
ionization energy=70 eV
ion type=[M]+*
computed spectral entropy=1.7071210968782136
computed normalized entropy=0.6025388453218937
SPLASH=splash10-014i-9000000000-09d8fdd3eb784b82b784
submitter=submitter = University of Tokyo Team (Faculty of Engineering, University of Tokyo)
MoNA Rating=3.75

>  <NUM PEAKS>  (3764) 
17

>  <MASS SPECTRAL PEAKS>  (3764) 
15 1.21
26 1.7
27 5.21
29 2.93
32 2.36
37 1.25
38 3.12
39 34.3
41 42.25
42 2.19
55 1.02
57 1.87
68 1.21
69 99.99
70 5.2
81 4.79
111 3

$$$$

     RDKit          2D

  8  7  0  0  0  0  0  0  0  0999 V2000
    1.9486    3.3750    0.0000 C   0  0  0  0  0  0  0  0  0  0  0  0
   -5.8457    3.3750    0.0000 C   0  0  0  0  0  0  0  0  0  0  0  0
    0.6495    4.1250    0.0000 C   0  0  0  0  0  0  0  0  0  0  0  0
   -4.5466    4.1250    0.0000 C   0  0  0  0  0  0  0  0  0  0  0  0
   -0.6495    3.3750    0.0000 C   0  0  0  0  0  0  0  0  0  0  0  0
   -1.9486    4.1250    0.0000 C   0  0  0  0  0  0  0  0  0  0  0  0
   -1.9486    5.6250    0.0000 O   0  0  0  0  0  0  0  0  0  0  0  0
   -3.2476    3.3750    0.0000 O   0  0  0  0  0  0  0  0  0  0  0  0
  3  1  1  0
  4  2  1  0
  3  5  2  0
  6  5  1  0
  7  6  2  0
  8  4  1  0
  8  6  1  0
M  END
>  <NAME>  (3765) 
ETHYL CROTONATE

>  <SYNONYMS>  (3765) 
ETHYL TRANS-2-BUTENOATE

>  <SPECTRUM TYPE>  (3765) 
MS1

>  <INSTRUMENT TYPE>  (3765) 
EI-B

>  <INSTRUMENT>  (3765) 
HITACHI M-80B

>  <ION MODE>  (3765) 
P

>  <INCHIKEY>  (3765) 
ZFDIRQKJPRINOQ-HWKANZROSA-N

>  <FORMULA>  (3765) 
C6H10O2

>  <EXACT MASS>  (3765) 
114.06807956

>  <MW>  (3765) 
114

>  <ID>  (3765) 
JP006827

>  <CONTRIBUTOR>  (3765) 
University of Tokyo Team, {Faculty of Engineering, University of Tokyo

>  <COMMENT>  (3765) 
SMILES=CC=CC(=O)OCC
InChI=InChI=1S/C6H10O2/c1-3-5-6(7)8-4-2/h3,5H,4H2,1-2H3/b5-3+
computed SMILES=O=C(OCC)C=CC
accession=JP006827
date=2016.01.19 (Created 2008.10.21, modified 2011.05.06)
author=TAJIMA S, GUNMA COLLEGE OF TECHNOLOGY
license=CC BY-NC-SA
exact mass=114.06808
ionization energy=70 eV
ion type=[M]+*
computed spectral entropy=2.1324438741265457
computed normalized entropy=0.6898785462521602
SPLASH=splash10-014i-9000000000-dbf7b61c163e848bbaca
submitter=submitter = University of Tokyo Team (Faculty of Engineering, University of Tokyo)
MoNA Rating=3.75

>  <NUM PEAKS>  (3765) 
22

>  <MASS SPECTRAL PEAKS>  (3765) 
15 2.14
26 2.1
27 10.24
29 11.86
37 1.16
38 2.92
39 28.16
40 1.62
41 29.8
42 3.16
43 1.76
45 3.61
55 1.04
68 6.76
69 99.99
70 4.56
71 1.77
86 5.62
87 1.58
99 29.57
100 1.48
114 1.55

$$$$

     RDKit          2D

 11 10  0  0  0  0  0  0  0  0999 V2000
    2.9228    5.4375    0.0000 C   0  0  0  0  0  0  0  0  0  0  0  0
   -8.7685    6.1875    0.0000 C   0  0  0  0  0  0  0  0  0  0  0  0
    1.6238    6.1875    0.0000 C   0  0  0  0  0  0  0  0  0  0  0  0
    0.3248    5.4375    0.0000 C   0  0  0  0  0  0  0  0  0  0  0  0
   -0.9743    6.1875    0.0000 C   0  0  0  0  0  0  0  0  0  0  0  0
   -3.5724    6.1875    0.0000 C   0  0  0  0  0  0  0  0  0  0  0  0
   -4.8714    5.4375    0.0000 C   0  0  0  0  0  0  0  0  0  0  0  0
   -7.4695    5.4375    0.0000 C   0  0  0  0  0  0  0  0  0  0  0  0
   -7.4695    3.9375    0.0000 O   0  0  0  0  0  0  0  0  0  0  0  0
   -2.2733    5.4375    0.0000 O   0  0  0  0  0  0  0  0  0  0  0  0
   -6.1704    6.1875    0.0000 O   0  0  0  0  0  0  0  0  0  0  0  0
  3  1  1  0
  4  3  1  0
  5  4  1  0
  7  6  1  0
  8  2  1  0
  9  8  2  0
 10  5  1  0
 10  6  1  0
 11  7  1  0
 11  8  1  0
M  END
>  <NAME>  (3766) 
2-BUTOXYETHYL ACETATE

>  <SYNONYMS>  (3766) 


>  <SPECTRUM TYPE>  (3766) 
MS1

>  <INSTRUMENT TYPE>  (3766) 
EI-B

>  <INSTRUMENT>  (3766) 
HITACHI M-80B

>  <ION MODE>  (3766) 
P

>  <INCHIKEY>  (3766) 
NQBXSWAWVZHKBZ-UHFFFAOYSA-N

>  <FORMULA>  (3766) 
C8H16O3

>  <EXACT MASS>  (3766) 
160.109944372

>  <MW>  (3766) 
160

>  <ID>  (3766) 
JP006826

>  <CONTRIBUTOR>  (3766) 
University of Tokyo Team, {Faculty of Engineering, University of Tokyo

>  <COMMENT>  (3766) 
SMILES=CCCCOCCOC(C)=O
InChI=InChI=1S/C8H16O3/c1-3-4-5-10-6-7-11-8(2)9/h3-7H2,1-2H3
computed SMILES=O=C(OCCOCCCC)C
accession=JP006826
date=2016.01.19 (Created 2008.10.21, modified 2011.05.06)
author=TAJIMA S, GUNMA COLLEGE OF TECHNOLOGY
license=CC BY-NC-SA
exact mass=160.10994
ionization energy=70 eV
ion type=[M]+*
computed spectral entropy=2.5723936839618124
computed normalized entropy=0.7804978791563871
SPLASH=splash10-052o-9000000000-fbf44aa04d736b4eec16
submitter=submitter = University of Tokyo Team (Faculty of Engineering, University of Tokyo)
MoNA Rating=3.75

>  <NUM PEAKS>  (3766) 
27

>  <MASS SPECTRAL PEAKS>  (3766) 
15 5.83
27 10.36
28 3.09
29 23.72
31 2.53
39 5.18
41 31.67
42 4.51
43 99.99
44 12.53
45 9.93
55 4.46
56 49.63
57 92.91
58 5.41
61 7.27
70 2.08
71 2.27
72 1.32
73 3.71
74 6.98
85 20.98
86 1.2
87 38.98
88 12.67
100 10.45
117 1.03

$$$$

     RDKit          2D

  9  8  0  0  0  0  0  0  0  0999 V2000
   -6.4952    4.5000    0.0000 C   0  0  0  0  0  0  0  0  0  0  0  0
    2.5981    3.7500    0.0000 C   0  0  0  0  0  0  0  0  0  0  0  0
   -5.1962    3.7500    0.0000 C   0  0  0  0  0  0  0  0  0  0  0  0
    1.2990    4.5000    0.0000 C   0  0  0  0  0  0  0  0  0  0  0  0
   -2.5981    3.7500    0.0000 C   0  0  0  0  0  0  0  0  0  0  0  0
   -1.2990    4.5000    0.0000 C   0  0  0  0  0  0  0  0  0  0  0  0
   -1.2990    6.0000    0.0000 O   0  0  0  0  0  0  0  0  0  0  0  0
   -3.8971    4.5000    0.0000 O   0  0  0  0  0  0  0  0  0  0  0  0
   -0.0000    3.7500    0.0000 O   0  0  0  0  0  0  0  0  0  0  0  0
  3  1  1  0
  4  2  1  0
  6  5  1  0
  7  6  2  0
  8  3  1  0
  8  5  1  0
  9  4  1  0
  9  6  1  0
M  END
>  <NAME>  (3767) 
ETHYL ETHOXYACETATE

>  <SYNONYMS>  (3767) 


>  <SPECTRUM TYPE>  (3767) 
MS1

>  <INSTRUMENT TYPE>  (3767) 
EI-B

>  <INSTRUMENT>  (3767) 
HITACHI M-80B

>  <ION MODE>  (3767) 
P

>  <INCHIKEY>  (3767) 
CKSRFHWWBKRUKA-UHFFFAOYSA-N

>  <FORMULA>  (3767) 
C6H12O3

>  <EXACT MASS>  (3767) 
132.078644244

>  <MW>  (3767) 
132

>  <ID>  (3767) 
JP006825

>  <CONTRIBUTOR>  (3767) 
University of Tokyo Team, {Faculty of Engineering, University of Tokyo

>  <COMMENT>  (3767) 
SMILES=CCOCC(=O)OCC
InChI=InChI=1S/C6H12O3/c1-3-8-5-6(7)9-4-2/h3-5H2,1-2H3
computed SMILES=O=C(OCC)COCC
accession=JP006825
date=2016.01.19 (Created 2008.10.21, modified 2011.05.06)
author=TAJIMA S, GUNMA COLLEGE OF TECHNOLOGY
license=CC BY-NC-SA
exact mass=132.07864
ionization energy=70 eV
ion type=[M]+*
computed spectral entropy=2.3368091691199977
computed normalized entropy=0.7559938772698289
SPLASH=splash10-0a7i-9000000000-e39c5bd3d96af766615c
submitter=submitter = University of Tokyo Team (Faculty of Engineering, University of Tokyo)
MoNA Rating=3.75

>  <NUM PEAKS>  (3767) 
22

>  <MASS SPECTRAL PEAKS>  (3767) 
15 2.25
26 3.06
27 23.97
28 7.31
29 56.95
30 2.22
31 91.73
32 1.24
41 3.44
42 12.55
43 8.05
44 2.56
45 14.07
58 1.73
59 99.99
60 24.21
61 19.63
70 7
73 1.63
88 44.89
89 3.21
103 2.82

$$$$

     RDKit          2D

  9  8  0  0  0  0  0  0  0  0999 V2000
    2.2733    2.8125    0.0000 C   0  0  0  0  0  0  0  0  0  0  0  0
    0.9743    5.0625    0.0000 C   0  0  0  0  0  0  0  0  0  0  0  0
   -5.5209    2.8125    0.0000 C   0  0  0  0  0  0  0  0  0  0  0  0
   -0.3248    2.8125    0.0000 C   0  0  0  0  0  0  0  0  0  0  0  0
   -1.6238    3.5625    0.0000 C   0  0  0  0  0  0  0  0  0  0  0  0
    0.9743    3.5625    0.0000 C   0  0  0  0  0  0  0  0  0  0  0  0
   -4.2219    3.5625    0.0000 C   0  0  0  0  0  0  0  0  0  0  0  0
   -4.2219    5.0625    0.0000 O   0  0  0  0  0  0  0  0  0  0  0  0
   -2.9228    2.8125    0.0000 O   0  0  0  0  0  0  0  0  0  0  0  0
  5  4  1  0
  6  1  1  0
  6  2  1  0
  6  4  2  0
  7  3  1  0
  8  7  2  0
  9  5  1  0
  9  7  1  0
M  END
>  <NAME>  (3768) 
PRENYL ACETATE

>  <SYNONYMS>  (3768) 
3-METHYL-2-BUTENYL ACETATE

>  <SPECTRUM TYPE>  (3768) 
MS1

>  <INSTRUMENT TYPE>  (3768) 
EI-B

>  <INSTRUMENT>  (3768) 
HITACHI M-80B

>  <ION MODE>  (3768) 
P

>  <INCHIKEY>  (3768) 
XXIKYCPRDXIMQM-UHFFFAOYSA-N

>  <FORMULA>  (3768) 
C7H12O2

>  <EXACT MASS>  (3768) 
128.083729624

>  <MW>  (3768) 
128

>  <ID>  (3768) 
JP006824

>  <CONTRIBUTOR>  (3768) 
University of Tokyo Team, {Faculty of Engineering, University of Tokyo

>  <COMMENT>  (3768) 
SMILES=CC(C)=CCOC(C)=O
InChI=InChI=1S/C7H12O2/c1-6(2)4-5-9-7(3)8/h4H,5H2,1-3H3
computed SMILES=O=C(OCC=C(C)C)C
accession=JP006824
date=2016.01.19 (Created 2008.10.21, modified 2011.05.06)
author=TAJIMA S, GUNMA COLLEGE OF TECHNOLOGY
license=CC BY-NC-SA
exact mass=128.08373
ionization energy=70 eV
ion type=[M]+*
computed spectral entropy=2.6843299251477593
computed normalized entropy=0.7677174660597378
SPLASH=splash10-014l-9000000000-d42ea79643d21b0c3917
submitter=submitter = University of Tokyo Team (Faculty of Engineering, University of Tokyo)
MoNA Rating=3.75

>  <NUM PEAKS>  (3768) 
33

>  <MASS SPECTRAL PEAKS>  (3768) 
15 7.14
27 15.15
29 13.34
31 1.13
38 1.64
39 22.11
40 9.63
41 56.52
42 8.06
43 99.99
44 2.39
45 1.17
50 1.59
51 2.87
52 1.77
53 26.95
54 2.6
55 3.69
56 1.54
57 8.39
61 1.15
65 1.37
66 2.02
67 53.47
68 87.25
69 35.37
70 1.78
71 25.18
72 1.02
83 2
85 11.15
86 18.06
128 3.27

$$$$

     RDKit          2D

 16 15  0  0  0  0  0  0  0  0999 V2000
    4.5466    7.8750    0.0000 C   0  0  0  0  0  0  0  0  0  0  0  0
  -13.6399    7.8750    0.0000 C   0  0  0  0  0  0  0  0  0  0  0  0
    3.2476    8.6250    0.0000 C   0  0  0  0  0  0  0  0  0  0  0  0
    1.9486    7.8750    0.0000 C   0  0  0  0  0  0  0  0  0  0  0  0
    0.6495    8.6250    0.0000 C   0  0  0  0  0  0  0  0  0  0  0  0
   -0.6495    7.8750    0.0000 C   0  0  0  0  0  0  0  0  0  0  0  0
   -1.9486    8.6250    0.0000 C   0  0  0  0  0  0  0  0  0  0  0  0
   -3.2476    7.8750    0.0000 C   0  0  0  0  0  0  0  0  0  0  0  0
   -4.5466    8.6250    0.0000 C   0  0  0  0  0  0  0  0  0  0  0  0
   -5.8457    7.8750    0.0000 C   0  0  0  0  0  0  0  0  0  0  0  0
   -7.1447    8.6250    0.0000 C   0  0  0  0  0  0  0  0  0  0  0  0
   -8.4437    7.8750    0.0000 C   0  0  0  0  0  0  0  0  0  0  0  0
   -9.7428    8.6250    0.0000 C   0  0  0  0  0  0  0  0  0  0  0  0
  -12.3409    8.6250    0.0000 C   0  0  0  0  0  0  0  0  0  0  0  0
  -12.3409   10.1250    0.0000 O   0  0  0  0  0  0  0  0  0  0  0  0
  -11.0418    7.8750    0.0000 O   0  0  0  0  0  0  0  0  0  0  0  0
  3  1  1  0
  4  3  1  0
  5  4  1  0
  6  5  1  0
  7  6  1  0
  8  7  1  0
  9  8  1  0
 10  9  1  0
 11 10  1  0
 12 11  1  0
 13 12  1  0
 14  2  1  0
 15 14  2  0
 16 13  1  0
 16 14  1  0
M  END
>  <NAME>  (3769) 
DODECYL ACETATE

>  <SYNONYMS>  (3769) 


>  <SPECTRUM TYPE>  (3769) 
MS1

>  <INSTRUMENT TYPE>  (3769) 
EI-B

>  <INSTRUMENT>  (3769) 
HITACHI M-80B

>  <ION MODE>  (3769) 
P

>  <INCHIKEY>  (3769) 
VZWGRQBCURJOMT-UHFFFAOYSA-N

>  <FORMULA>  (3769) 
C14H28O2

>  <EXACT MASS>  (3769) 
228.208930136

>  <MW>  (3769) 
228

>  <ID>  (3769) 
JP006823

>  <CONTRIBUTOR>  (3769) 
University of Tokyo Team, {Faculty of Engineering, University of Tokyo

>  <COMMENT>  (3769) 
SMILES=CCCCCCCCCCCCOC(C)=O
InChI=InChI=1S/C14H28O2/c1-3-4-5-6-7-8-9-10-11-12-13-16-14(2)15/h3-13H2,1-2H3
computed SMILES=O=C(OCCCCCCCCCCCC)C
accession=JP006823
date=2016.01.19 (Created 2008.10.21, modified 2011.05.06)
author=TAJIMA S, GUNMA COLLEGE OF TECHNOLOGY
license=CC BY-NC-SA
exact mass=228.20893
ionization energy=70 eV
ion type=[M]+*
computed spectral entropy=3.1474669749448223
computed normalized entropy=0.8420934155197982
SPLASH=splash10-052f-9000000000-a75b64a9557dc1692b4f
submitter=submitter = University of Tokyo Team (Faculty of Engineering, University of Tokyo)
MoNA Rating=3.75

>  <NUM PEAKS>  (3769) 
42

>  <MASS SPECTRAL PEAKS>  (3769) 
15 1.91
27 6.98
28 1.5
29 14.85
39 4.62
40 1.01
41 33.45
42 12.07
43 99.99
44 2.66
53 2.02
54 4.56
55 37.06
56 30.72
57 25.56
58 2.08
61 32.66
67 4.96
68 12.22
69 33.86
70 28.52
71 10.77
73 4.05
81 2.58
82 14.75
83 30.67
84 18.67
85 4.48
96 4.88
97 21.7
98 11.57
99 1.18
110 1.75
111 10.84
112 4.91
116 3.23
125 3.34
126 2.38
139 1.23
140 7.65
168 6.7
169 1.08

$$$$

     RDKit          2D

 15 14  0  0  0  0  0  0  0  0999 V2000
    4.2219    7.6875    0.0000 C   0  0  0  0  0  0  0  0  0  0  0  0
  -12.6656    8.4375    0.0000 C   0  0  0  0  0  0  0  0  0  0  0  0
    2.9228    8.4375    0.0000 C   0  0  0  0  0  0  0  0  0  0  0  0
    1.6238    7.6875    0.0000 C   0  0  0  0  0  0  0  0  0  0  0  0
    0.3248    8.4375    0.0000 C   0  0  0  0  0  0  0  0  0  0  0  0
   -0.9743    7.6875    0.0000 C   0  0  0  0  0  0  0  0  0  0  0  0
   -2.2733    8.4375    0.0000 C   0  0  0  0  0  0  0  0  0  0  0  0
   -3.5724    7.6875    0.0000 C   0  0  0  0  0  0  0  0  0  0  0  0
   -4.8714    8.4375    0.0000 C   0  0  0  0  0  0  0  0  0  0  0  0
   -6.1704    7.6875    0.0000 C   0  0  0  0  0  0  0  0  0  0  0  0
   -7.4695    8.4375    0.0000 C   0  0  0  0  0  0  0  0  0  0  0  0
   -8.7685    7.6875    0.0000 C   0  0  0  0  0  0  0  0  0  0  0  0
  -11.3666    7.6875    0.0000 C   0  0  0  0  0  0  0  0  0  0  0  0
  -11.3666    6.1875    0.0000 O   0  0  0  0  0  0  0  0  0  0  0  0
  -10.0675    8.4375    0.0000 O   0  0  0  0  0  0  0  0  0  0  0  0
  3  1  2  0
  4  3  1  0
  5  4  1  0
  6  5  1  0
  7  6  1  0
  8  7  1  0
  9  8  1  0
 10  9  1  0
 11 10  1  0
 12 11  1  0
 13  2  1  0
 14 13  2  0
 15 12  1  0
 15 13  1  0
M  END
>  <NAME>  (3770) 
10-UNDECENYL ACETATE

>  <SYNONYMS>  (3770) 


>  <SPECTRUM TYPE>  (3770) 
MS1

>  <INSTRUMENT TYPE>  (3770) 
EI-B

>  <INSTRUMENT>  (3770) 
HITACHI M-80B

>  <ION MODE>  (3770) 
P

>  <INCHIKEY>  (3770) 
VCVAXEYHJAFRGM-UHFFFAOYSA-N

>  <FORMULA>  (3770) 
C13H24O2

>  <EXACT MASS>  (3770) 
212.177630008

>  <MW>  (3770) 
212

>  <ID>  (3770) 
JP006822

>  <CONTRIBUTOR>  (3770) 
University of Tokyo Team, {Faculty of Engineering, University of Tokyo

>  <COMMENT>  (3770) 
SMILES=C=CCCCCCCCCCOC(C)=O
InChI=InChI=1S/C13H24O2/c1-3-4-5-6-7-8-9-10-11-12-15-13(2)14/h3H,1,4-12H2,2H3
computed SMILES=O=C(OCCCCCCCCCC=C)C
accession=JP006822
date=2016.01.19 (Created 2008.10.21, modified 2011.05.06)
author=TAJIMA S, GUNMA COLLEGE OF TECHNOLOGY
license=CC BY-NC-SA
exact mass=212.17763
ionization energy=70 eV
ion type=[M]+*
computed spectral entropy=3.0081134838155315
computed normalized entropy=0.8210899049544969
SPLASH=splash10-00kf-9000000000-9fada76dac1e8313efbd
submitter=submitter = University of Tokyo Team (Faculty of Engineering, University of Tokyo)
MoNA Rating=3.75

>  <NUM PEAKS>  (3770) 
39

>  <MASS SPECTRAL PEAKS>  (3770) 
15 3.83
27 9.62
28 3.74
29 15.11
31 1.47
39 12.7
40 2.17
41 48.25
42 11.92
43 99.99
44 2.54
53 4.88
54 38.59
55 52.37
56 6.83
57 3.68
58 1.02
61 10.18
66 3.42
67 34.57
68 38.5
69 28.57
70 3.23
71 1.38
73 2.63
79 1.63
80 1.52
81 26.1
82 33.1
83 7.17
95 17.2
96 16.45
97 3.3
109 6.47
110 7.44
111 1.25
123 2.84
124 3.01
152 1.74

$$$$

     RDKit          2D

 14 13  0  0  0  0  0  0  0  0999 V2000
    3.8971    6.7500    0.0000 C   0  0  0  0  0  0  0  0  0  0  0  0
  -11.6913    6.7500    0.0000 C   0  0  0  0  0  0  0  0  0  0  0  0
    2.5981    7.5000    0.0000 C   0  0  0  0  0  0  0  0  0  0  0  0
    1.2990    6.7500    0.0000 C   0  0  0  0  0  0  0  0  0  0  0  0
    0.0000    7.5000    0.0000 C   0  0  0  0  0  0  0  0  0  0  0  0
   -1.2990    6.7500    0.0000 C   0  0  0  0  0  0  0  0  0  0  0  0
   -2.5981    7.5000    0.0000 C   0  0  0  0  0  0  0  0  0  0  0  0
   -3.8971    6.7500    0.0000 C   0  0  0  0  0  0  0  0  0  0  0  0
   -5.1962    7.5000    0.0000 C   0  0  0  0  0  0  0  0  0  0  0  0
   -6.4952    6.7500    0.0000 C   0  0  0  0  0  0  0  0  0  0  0  0
   -7.7942    7.5000    0.0000 C   0  0  0  0  0  0  0  0  0  0  0  0
  -10.3923    7.5000    0.0000 C   0  0  0  0  0  0  0  0  0  0  0  0
  -10.3923    9.0000    0.0000 O   0  0  0  0  0  0  0  0  0  0  0  0
   -9.0933    6.7500    0.0000 O   0  0  0  0  0  0  0  0  0  0  0  0
  3  1  1  0
  4  3  1  0
  5  4  1  0
  6  5  1  0
  7  6  1  0
  8  7  1  0
  9  8  1  0
 10  9  1  0
 11 10  1  0
 12  2  1  0
 13 12  2  0
 14 11  1  0
 14 12  1  0
M  END
>  <NAME>  (3771) 
DECYL ACETATE

>  <SYNONYMS>  (3771) 


>  <SPECTRUM TYPE>  (3771) 
MS1

>  <INSTRUMENT TYPE>  (3771) 
EI-B

>  <INSTRUMENT>  (3771) 
HITACHI M-80B

>  <ION MODE>  (3771) 
P

>  <INCHIKEY>  (3771) 
NUPSHWCALHZGOV-UHFFFAOYSA-N

>  <FORMULA>  (3771) 
C12H24O2

>  <EXACT MASS>  (3771) 
200.177630008

>  <MW>  (3771) 
200

>  <ID>  (3771) 
JP006821

>  <CONTRIBUTOR>  (3771) 
University of Tokyo Team, {Faculty of Engineering, University of Tokyo

>  <COMMENT>  (3771) 
SMILES=CCCCCCCCCCOC(C)=O
InChI=InChI=1S/C12H24O2/c1-3-4-5-6-7-8-9-10-11-14-12(2)13/h3-11H2,1-2H3
computed SMILES=O=C(OCCCCCCCCCC)C
accession=JP006821
date=2016.01.19 (Created 2008.10.21, modified 2011.05.06)
author=TAJIMA S, GUNMA COLLEGE OF TECHNOLOGY
license=CC BY-NC-SA
exact mass=200.17763
ionization energy=70 eV
ion type=[M]+*
computed spectral entropy=3.0536777630958625
computed normalized entropy=0.8394791570587997
SPLASH=splash10-052f-9000000000-3f4fa52953f9fe2fb0d5
submitter=submitter = University of Tokyo Team (Faculty of Engineering, University of Tokyo)
MoNA Rating=3.75

>  <NUM PEAKS>  (3771) 
38

>  <MASS SPECTRAL PEAKS>  (3771) 
15 3.03
27 7.89
28 1.43
29 14.69
39 5.41
40 1.01
41 30.15
42 14.62
43 99.99
44 2.65
53 2.1
54 3.7
55 33.5
56 32.11
57 17.99
58 2.22
61 28.61
67 3.79
68 9.28
69 27.19
70 32.92
71 7.94
73 3.73
81 1.29
82 9.69
83 24.51
84 15.92
85 3.77
96 2.47
97 15.24
98 10.43
101 1.07
110 1.02
111 8.34
112 12.74
113 1.07
116 3.04
140 7.71

$$$$

     RDKit          2D

 13 12  0  0  0  0  0  0  0  0999 V2000
   -9.4180    5.0625    0.0000 C   0  0  0  0  0  0  0  0  0  0  0  0
   -0.3248    7.3125    0.0000 C   0  0  0  0  0  0  0  0  0  0  0  0
    2.2733    4.3125    0.0000 C   0  0  0  0  0  0  0  0  0  0  0  0
   -8.1190    4.3125    0.0000 C   0  0  0  0  0  0  0  0  0  0  0  0
   -1.6238    6.5625    0.0000 C   0  0  0  0  0  0  0  0  0  0  0  0
   -6.8200    5.0625    0.0000 C   0  0  0  0  0  0  0  0  0  0  0  0
   -5.5209    4.3125    0.0000 C   0  0  0  0  0  0  0  0  0  0  0  0
   -4.2219    5.0625    0.0000 C   0  0  0  0  0  0  0  0  0  0  0  0
   -2.9228    4.3125    0.0000 C   0  0  0  0  0  0  0  0  0  0  0  0
    0.9743    5.0625    0.0000 C   0  0  0  0  0  0  0  0  0  0  0  0
   -1.6238    5.0625    0.0000 C   0  0  0  0  0  0  0  0  0  0  0  0
    0.9743    6.5625    0.0000 O   0  0  0  0  0  0  0  0  0  0  0  0
   -0.3248    4.3125    0.0000 O   0  0  0  0  0  0  0  0  0  0  0  0
  4  1  1  0
  5  2  1  0
  6  4  1  0
  7  6  1  0
  8  7  1  0
  9  8  1  0
 10  3  1  0
 11  5  1  0
 11  9  1  0
 12 10  2  0
 13 10  1  0
 13 11  1  0
M  END
>  <NAME>  (3772) 
3-NONYL ACETATE

>  <SYNONYMS>  (3772) 
1-ETHYLHEPTYL ACETATE

>  <SPECTRUM TYPE>  (3772) 
MS1

>  <INSTRUMENT TYPE>  (3772) 
EI-B

>  <INSTRUMENT>  (3772) 
HITACHI M-80B

>  <ION MODE>  (3772) 
P

>  <INCHIKEY>  (3772) 
GPBFEZPGSQXMPX-UHFFFAOYSA-N

>  <FORMULA>  (3772) 
C11H22O2

>  <EXACT MASS>  (3772) 
186.161979944

>  <MW>  (3772) 
186

>  <ID>  (3772) 
JP006820

>  <CONTRIBUTOR>  (3772) 
University of Tokyo Team, {Faculty of Engineering, University of Tokyo

>  <COMMENT>  (3772) 
SMILES=CCCCCCC(CC)OC(C)=O
InChI=InChI=1S/C11H22O2/c1-4-6-7-8-9-11(5-2)13-10(3)12/h11H,4-9H2,1-3H3
computed SMILES=O=C(OC(CC)CCCCCC)C
accession=JP006820
date=2016.01.19 (Created 2008.10.21, modified 2011.05.06)
author=TAJIMA S, GUNMA COLLEGE OF TECHNOLOGY
license=CC BY-NC-SA
exact mass=186.16198
ionization energy=70 eV
ion type=[M]+*
computed spectral entropy=2.2881802814473096
computed normalized entropy=0.7108631727168292
SPLASH=splash10-0006-9000000000-c04ec70615a9a412b611
submitter=submitter = University of Tokyo Team (Faculty of Engineering, University of Tokyo)
MoNA Rating=3.75

>  <NUM PEAKS>  (3772) 
25

>  <MASS SPECTRAL PEAKS>  (3772) 
15 1.23
27 6.19
29 9.29
39 3.2
41 12.43
42 4.89
43 99.99
44 3.29
55 11.03
56 6.25
57 4.26
58 3.33
59 2.29
61 1.4
69 4.39
70 6.33
71 2.13
73 1.27
83 1.9
84 2.86
85 1.19
97 11.25
98 1.65
101 13.54
126 5.16

$$$$

     RDKit          2D

 13 12  0  0  0  0  0  0  0  0999 V2000
    3.5724    6.5625    0.0000 C   0  0  0  0  0  0  0  0  0  0  0  0
  -10.7171    7.3125    0.0000 C   0  0  0  0  0  0  0  0  0  0  0  0
    2.2733    7.3125    0.0000 C   0  0  0  0  0  0  0  0  0  0  0  0
    0.9743    6.5625    0.0000 C   0  0  0  0  0  0  0  0  0  0  0  0
   -0.3248    7.3125    0.0000 C   0  0  0  0  0  0  0  0  0  0  0  0
   -1.6238    6.5625    0.0000 C   0  0  0  0  0  0  0  0  0  0  0  0
   -2.9228    7.3125    0.0000 C   0  0  0  0  0  0  0  0  0  0  0  0
   -4.2219    6.5625    0.0000 C   0  0  0  0  0  0  0  0  0  0  0  0
   -5.5209    7.3125    0.0000 C   0  0  0  0  0  0  0  0  0  0  0  0
   -6.8200    6.5625    0.0000 C   0  0  0  0  0  0  0  0  0  0  0  0
   -9.4180    6.5625    0.0000 C   0  0  0  0  0  0  0  0  0  0  0  0
   -9.4180    5.0625    0.0000 O   0  0  0  0  0  0  0  0  0  0  0  0
   -8.1190    7.3125    0.0000 O   0  0  0  0  0  0  0  0  0  0  0  0
  3  1  1  0
  4  3  1  0
  5  4  1  0
  6  5  1  0
  7  6  1  0
  8  7  1  0
  9  8  1  0
 10  9  1  0
 11  2  1  0
 12 11  2  0
 13 10  1  0
 13 11  1  0
M  END
>  <NAME>  (3773) 
NONYL ACETATE

>  <SYNONYMS>  (3773) 


>  <SPECTRUM TYPE>  (3773) 
MS1

>  <INSTRUMENT TYPE>  (3773) 
EI-B

>  <INSTRUMENT>  (3773) 
HITACHI M-80B

>  <ION MODE>  (3773) 
P

>  <INCHIKEY>  (3773) 
GJQIMXVRFNLMTB-UHFFFAOYSA-N

>  <FORMULA>  (3773) 
C11H22O2

>  <EXACT MASS>  (3773) 
186.161979944

>  <MW>  (3773) 
186

>  <ID>  (3773) 
JP006819

>  <CONTRIBUTOR>  (3773) 
University of Tokyo Team, {Faculty of Engineering, University of Tokyo

>  <COMMENT>  (3773) 
SMILES=CCCCCCCCCOC(C)=O
InChI=InChI=1S/C11H22O2/c1-3-4-5-6-7-8-9-10-13-11(2)12/h3-10H2,1-2H3
computed SMILES=O=C(OCCCCCCCCC)C
accession=JP006819
date=2016.01.19 (Created 2008.10.21, modified 2011.05.06)
author=TAJIMA S, GUNMA COLLEGE OF TECHNOLOGY
license=CC BY-NC-SA
exact mass=186.16198
ionization energy=70 eV
ion type=[M]+*
computed spectral entropy=2.9416532158432935
computed normalized entropy=0.8273882514363362
SPLASH=splash10-052f-9000000000-72fc7415ca0cec6ee06e
submitter=submitter = University of Tokyo Team (Faculty of Engineering, University of Tokyo)
MoNA Rating=3.75

>  <NUM PEAKS>  (3773) 
35

>  <MASS SPECTRAL PEAKS>  (3773) 
15 3.29
18 1.16
27 9.94
28 1.63
29 13.39
39 5.61
40 1.09
41 29.89
42 14.31
43 99.99
44 2.37
53 1.9
54 3.61
55 30.11
56 37.06
57 12.51
58 2.24
61 26.5
67 2.46
68 7.85
69 22.97
70 28.7
71 5.68
73 4.47
82 5.3
83 18.09
84 17.44
85 2.57
96 1.9
97 14.52
98 16.7
99 1.06
101 1.14
116 2.74
126 8.68

$$$$

     RDKit          2D

 13 12  0  0  0  0  0  0  0  0999 V2000
    2.0822    4.9522    0.0000 C   0  0  0  0  0  0  0  0  0  0  0  0
   -6.8544    6.5907    0.0000 C   0  0  0  0  0  0  0  0  0  0  0  0
   -7.0111    2.7022    0.0000 C   0  0  0  0  0  0  0  0  0  0  0  0
   -3.4488    6.8512    0.0000 C   0  0  0  0  0  0  0  0  0  0  0  0
    0.7831    5.7022    0.0000 C   0  0  0  0  0  0  0  0  0  0  0  0
   -5.3772    6.8512    0.0000 C   0  0  0  0  0  0  0  0  0  0  0  0
   -0.5159    4.9522    0.0000 C   0  0  0  0  0  0  0  0  0  0  0  0
   -1.8149    5.7022    0.0000 C   0  0  0  0  0  0  0  0  0  0  0  0
   -3.1140    4.9522    0.0000 C   0  0  0  0  0  0  0  0  0  0  0  0
   -5.7120    3.4522    0.0000 C   0  0  0  0  0  0  0  0  0  0  0  0
   -4.4130    5.7022    0.0000 C   0  0  0  0  0  0  0  0  0  0  0  0
   -4.4130    2.7022    0.0000 O   0  0  0  0  0  0  0  0  0  0  0  0
   -5.7120    4.9522    0.0000 O   0  0  0  0  0  0  0  0  0  0  0  0
  5  1  1  0
  6  2  1  0
  7  5  1  0
  8  7  1  0
  9  8  1  0
 10  3  1  0
 11  4  1  0
 11  6  1  0
 11  9  1  0
 12 10  2  0
 13 10  1  0
 13 11  1  0
M  END
>  <NAME>  (3774) 
3-METHYL-3-OCTYL ACETATE

>  <SYNONYMS>  (3774) 
1-ETHYL-1-METHYLHEXYL ACETATE

>  <SPECTRUM TYPE>  (3774) 
MS1

>  <INSTRUMENT TYPE>  (3774) 
EI-B

>  <INSTRUMENT>  (3774) 
HITACHI M-80B

>  <ION MODE>  (3774) 
P

>  <INCHIKEY>  (3774) 
PNBFEBGIWFNZLU-UHFFFAOYSA-N

>  <FORMULA>  (3774) 
C11H22O2

>  <EXACT MASS>  (3774) 
186.161979944

>  <MW>  (3774) 
186

>  <ID>  (3774) 
JP006818

>  <CONTRIBUTOR>  (3774) 
University of Tokyo Team, {Faculty of Engineering, University of Tokyo

>  <COMMENT>  (3774) 
SMILES=CCCCCC(C)(CC)OC(C)=O
InChI=InChI=1S/C11H22O2/c1-5-7-8-9-11(4,6-2)13-10(3)12/h5-9H2,1-4H3
computed SMILES=O=C(OC(C)(CC)CCCCC)C
accession=JP006818
date=2016.01.19 (Created 2008.10.21, modified 2011.05.06)
author=TAJIMA S, GUNMA COLLEGE OF TECHNOLOGY
license=CC BY-NC-SA
exact mass=186.16198
ionization energy=70 eV
ion type=[M]+*
computed spectral entropy=2.792885095696805
computed normalized entropy=0.7734557149352683
SPLASH=splash10-006x-9200000000-84776d7d98f915e39a7f
submitter=submitter = University of Tokyo Team (Faculty of Engineering, University of Tokyo)
MoNA Rating=3.75

>  <NUM PEAKS>  (3774) 
37

>  <MASS SPECTRAL PEAKS>  (3774) 
15 2.72
27 9.4
28 1.96
29 17.17
39 7.01
41 21.06
42 4.03
43 99.99
44 2.34
45 4.12
53 2.31
54 1.18
55 31.46
56 3.72
57 9.7
58 3.51
59 2.33
67 1.42
69 7.83
70 21.6
71 13.37
72 1.59
73 50.07
74 1.95
83 6.17
84 1.23
85 3.64
96 1.16
97 9.82
98 1.5
115 60.36
116 3.43
126 7.08
127 2.44
129 7.27
130 1.74
157 3.81

$$$$

     RDKit          2D

 12 11  0  0  0  0  0  0  0  0999 V2000
    2.5981    4.5000    0.0000 C   0  0  0  0  0  0  0  0  0  0  0  0
   -5.1962    7.5000    0.0000 C   0  0  0  0  0  0  0  0  0  0  0  0
   -7.7942    4.5000    0.0000 C   0  0  0  0  0  0  0  0  0  0  0  0
    1.2990    5.2500    0.0000 C   0  0  0  0  0  0  0  0  0  0  0  0
   -3.8971    6.7500    0.0000 C   0  0  0  0  0  0  0  0  0  0  0  0
    0.0000    4.5000    0.0000 C   0  0  0  0  0  0  0  0  0  0  0  0
   -1.2990    5.2500    0.0000 C   0  0  0  0  0  0  0  0  0  0  0  0
   -2.5981    4.5000    0.0000 C   0  0  0  0  0  0  0  0  0  0  0  0
   -6.4952    5.2500    0.0000 C   0  0  0  0  0  0  0  0  0  0  0  0
   -3.8971    5.2500    0.0000 C   0  0  0  0  0  0  0  0  0  0  0  0
   -6.4952    6.7500    0.0000 O   0  0  0  0  0  0  0  0  0  0  0  0
   -5.1962    4.5000    0.0000 O   0  0  0  0  0  0  0  0  0  0  0  0
  4  1  1  0
  5  2  1  0
  6  4  1  0
  7  6  1  0
  8  7  1  0
  9  3  1  0
 10  5  1  0
 10  8  1  0
 11  9  2  0
 12  9  1  0
 12 10  1  0
M  END
>  <NAME>  (3775) 
3-OCTYL ACETATE

>  <SYNONYMS>  (3775) 
1-ETHYLHEXYL ACETATE

>  <SPECTRUM TYPE>  (3775) 
MS1

>  <INSTRUMENT TYPE>  (3775) 
EI-B

>  <INSTRUMENT>  (3775) 
HITACHI M-80B

>  <ION MODE>  (3775) 
P

>  <INCHIKEY>  (3775) 
STZUZYMKSMSTOU-UHFFFAOYSA-N

>  <FORMULA>  (3775) 
C10H20O2

>  <EXACT MASS>  (3775) 
172.14632988

>  <MW>  (3775) 
172

>  <ID>  (3775) 
JP006817

>  <CONTRIBUTOR>  (3775) 
University of Tokyo Team, {Faculty of Engineering, University of Tokyo

>  <COMMENT>  (3775) 
SMILES=CCCCCC(CC)OC(C)=O
InChI=InChI=1S/C10H20O2/c1-4-6-7-8-10(5-2)12-9(3)11/h10H,4-8H2,1-3H3
computed SMILES=O=C(OC(CC)CCCCC)C
accession=JP006817
date=2016.01.19 (Created 2008.10.21, modified 2011.05.06)
author=TAJIMA S, GUNMA COLLEGE OF TECHNOLOGY
license=CC BY-NC-SA
exact mass=172.14633
ionization energy=70 eV
ion type=[M]+*
computed spectral entropy=2.1894314664600367
computed normalized entropy=0.6889220835571338
SPLASH=splash10-0006-9100000000-e3f1be8935925204bdc7
submitter=submitter = University of Tokyo Team (Faculty of Engineering, University of Tokyo)
MoNA Rating=3.75

>  <NUM PEAKS>  (3775) 
24

>  <MASS SPECTRAL PEAKS>  (3775) 
15 1.51
18 1.14
27 6.55
29 8.61
39 3.01
41 11.21
42 2.96
43 99.99
44 2.55
55 8.64
56 6.34
57 5.38
58 2.51
59 2.13
61 1.67
69 2.8
70 6.19
71 1.98
73 1.26
83 6.67
84 1.86
101 13.6
112 5.4
143 2.66

$$$$

     RDKit          2D

 12 11  0  0  0  0  0  0  0  0999 V2000
    3.2476    5.6250    0.0000 C   0  0  0  0  0  0  0  0  0  0  0  0
   -9.7428    5.6250    0.0000 C   0  0  0  0  0  0  0  0  0  0  0  0
    1.9486    6.3750    0.0000 C   0  0  0  0  0  0  0  0  0  0  0  0
    0.6495    5.6250    0.0000 C   0  0  0  0  0  0  0  0  0  0  0  0
   -0.6495    6.3750    0.0000 C   0  0  0  0  0  0  0  0  0  0  0  0
   -1.9486    5.6250    0.0000 C   0  0  0  0  0  0  0  0  0  0  0  0
   -3.2476    6.3750    0.0000 C   0  0  0  0  0  0  0  0  0  0  0  0
   -4.5466    5.6250    0.0000 C   0  0  0  0  0  0  0  0  0  0  0  0
   -5.8457    6.3750    0.0000 C   0  0  0  0  0  0  0  0  0  0  0  0
   -8.4437    6.3750    0.0000 C   0  0  0  0  0  0  0  0  0  0  0  0
   -8.4437    7.8750    0.0000 O   0  0  0  0  0  0  0  0  0  0  0  0
   -7.1447    5.6250    0.0000 O   0  0  0  0  0  0  0  0  0  0  0  0
  3  1  1  0
  4  3  1  0
  5  4  1  0
  6  5  1  0
  7  6  1  0
  8  7  1  0
  9  8  1  0
 10  2  1  0
 11 10  2  0
 12  9  1  0
 12 10  1  0
M  END
>  <NAME>  (3776) 
OCTYL ACETATE

>  <SYNONYMS>  (3776) 


>  <SPECTRUM TYPE>  (3776) 
MS1

>  <INSTRUMENT TYPE>  (3776) 
EI-B

>  <INSTRUMENT>  (3776) 
HITACHI M-80B

>  <ION MODE>  (3776) 
P

>  <INCHIKEY>  (3776) 
YLYBTZIQSIBWLI-UHFFFAOYSA-N

>  <FORMULA>  (3776) 
C10H20O2

>  <EXACT MASS>  (3776) 
172.14632988

>  <MW>  (3776) 
172

>  <ID>  (3776) 
JP006816

>  <CONTRIBUTOR>  (3776) 
University of Tokyo Team, {Faculty of Engineering, University of Tokyo

>  <COMMENT>  (3776) 
SMILES=CCCCCCCCOC(C)=O
InChI=InChI=1S/C10H20O2/c1-3-4-5-6-7-8-9-12-10(2)11/h3-9H2,1-2H3
computed SMILES=O=C(OCCCCCCCC)C
accession=JP006816
date=2016.01.19 (Created 2008.10.21, modified 2011.05.06)
author=TAJIMA S, GUNMA COLLEGE OF TECHNOLOGY
license=CC BY-NC-SA
exact mass=172.14633
ionization energy=70 eV
ion type=[M]+*
computed spectral entropy=2.844396315480267
computed normalized entropy=0.8134964004731883
SPLASH=splash10-0006-9000000000-699c43ddb8113422b57c
submitter=submitter = University of Tokyo Team (Faculty of Engineering, University of Tokyo)
MoNA Rating=3.75

>  <NUM PEAKS>  (3776) 
33

>  <MASS SPECTRAL PEAKS>  (3776) 
15 3.38
27 10.37
28 2.32
29 14.79
31 1.07
39 7.33
40 1.28
41 27.65
42 18.05
43 99.99
44 2.42
53 1.88
54 2.08
55 27.18
56 32.47
57 11.88
58 2.45
61 24.65
67 2.07
68 6.26
69 22.24
70 31.71
71 5
73 5.28
82 4.27
83 19.66
84 24.67
85 1.61
97 1.98
98 1.51
101 1.02
112 10.21
116 2.22

$$$$

     RDKit          2D

 12 11  0  0  0  0  0  0  0  0999 V2000
    2.5981    4.5000    0.0000 C   0  0  0  0  0  0  0  0  0  0  0  0
   -1.2990    2.2500    0.0000 C   0  0  0  0  0  0  0  0  0  0  0  0
   -7.7942    4.5000    0.0000 C   0  0  0  0  0  0  0  0  0  0  0  0
    1.2990    5.2500    0.0000 C   0  0  0  0  0  0  0  0  0  0  0  0
   -2.5981    3.0000    0.0000 C   0  0  0  0  0  0  0  0  0  0  0  0
    0.0000    4.5000    0.0000 C   0  0  0  0  0  0  0  0  0  0  0  0
   -1.2990    5.2500    0.0000 C   0  0  0  0  0  0  0  0  0  0  0  0
   -3.8971    5.2500    0.0000 C   0  0  0  0  0  0  0  0  0  0  0  0
   -6.4952    5.2500    0.0000 C   0  0  0  0  0  0  0  0  0  0  0  0
   -2.5981    4.5000    0.0000 C   0  0  0  0  0  0  0  0  0  0  0  0
   -6.4952    6.7500    0.0000 O   0  0  0  0  0  0  0  0  0  0  0  0
   -5.1962    4.5000    0.0000 O   0  0  0  0  0  0  0  0  0  0  0  0
  4  1  1  0
  5  2  1  0
  6  4  1  0
  7  6  1  0
  9  3  1  0
 10  5  1  0
 10  7  1  0
 10  8  1  0
 11  9  2  0
 12  8  1  0
 12  9  1  0
M  END
>  <NAME>  (3777) 
2-ETHYLHEXYL ACETATE

>  <SYNONYMS>  (3777) 


>  <SPECTRUM TYPE>  (3777) 
MS1

>  <INSTRUMENT TYPE>  (3777) 
EI-B

>  <INSTRUMENT>  (3777) 
HITACHI M-80B

>  <ION MODE>  (3777) 
P

>  <INCHIKEY>  (3777) 
WOYWLLHHWAMFCB-UHFFFAOYSA-N

>  <FORMULA>  (3777) 
C10H20O2

>  <EXACT MASS>  (3777) 
172.14632988

>  <MW>  (3777) 
172

>  <ID>  (3777) 
JP006815

>  <CONTRIBUTOR>  (3777) 
University of Tokyo Team, {Faculty of Engineering, University of Tokyo

>  <COMMENT>  (3777) 
SMILES=CCCCC(CC)COC(C)=O
InChI=InChI=1S/C10H20O2/c1-4-6-7-10(5-2)8-12-9(3)11/h10H,4-8H2,1-3H3
computed SMILES=O=C(OCC(CC)CCCC)C
accession=JP006815
date=2016.01.19 (Created 2008.10.21, modified 2011.05.06)
author=TAJIMA S, GUNMA COLLEGE OF TECHNOLOGY
license=CC BY-NC-SA
exact mass=172.14633
ionization energy=70 eV
ion type=[M]+*
computed spectral entropy=2.747105891111099
computed normalized entropy=0.77902014610662
SPLASH=splash10-0596-9000000000-dec4956ee2597328aa0d
submitter=submitter = University of Tokyo Team (Faculty of Engineering, University of Tokyo)
MoNA Rating=3.75

>  <NUM PEAKS>  (3777) 
34

>  <MASS SPECTRAL PEAKS>  (3777) 
15 3.15
27 11.13
28 1.54
29 16.56
31 1.03
39 7.61
41 26.81
42 9.11
43 99.99
44 2.32
53 2.13
54 1.61
55 26.91
56 18.08
57 37.37
58 1.69
61 5.49
67 1.2
68 1.17
69 9.16
70 58.2
71 8.24
72 1.18
73 7.78
74 12.12
75 1.2
82 1.94
83 14.9
84 7.95
86 4.64
97 1.19
98 1.02
111 1.25
112 8.1

$$$$

     RDKit          2D

 11 10  0  0  0  0  0  0  0  0999 V2000
    2.9228    5.4375    0.0000 C   0  0  0  0  0  0  0  0  0  0  0  0
   -8.7685    6.1875    0.0000 C   0  0  0  0  0  0  0  0  0  0  0  0
    1.6238    6.1875    0.0000 C   0  0  0  0  0  0  0  0  0  0  0  0
    0.3248    5.4375    0.0000 C   0  0  0  0  0  0  0  0  0  0  0  0
   -0.9743    6.1875    0.0000 C   0  0  0  0  0  0  0  0  0  0  0  0
   -2.2733    5.4375    0.0000 C   0  0  0  0  0  0  0  0  0  0  0  0
   -3.5724    6.1875    0.0000 C   0  0  0  0  0  0  0  0  0  0  0  0
   -4.8714    5.4375    0.0000 C   0  0  0  0  0  0  0  0  0  0  0  0
   -7.4695    5.4375    0.0000 C   0  0  0  0  0  0  0  0  0  0  0  0
   -7.4695    3.9375    0.0000 O   0  0  0  0  0  0  0  0  0  0  0  0
   -6.1704    6.1875    0.0000 O   0  0  0  0  0  0  0  0  0  0  0  0
  3  1  1  0
  4  3  1  0
  5  4  1  0
  6  5  1  0
  7  6  1  0
  8  7  1  0
  9  2  1  0
 10  9  2  0
 11  8  1  0
 11  9  1  0
M  END
>  <NAME>  (3778) 
HEPTYL ACETATE

>  <SYNONYMS>  (3778) 


>  <SPECTRUM TYPE>  (3778) 
MS1

>  <INSTRUMENT TYPE>  (3778) 
EI-B

>  <INSTRUMENT>  (3778) 
HITACHI M-80B

>  <ION MODE>  (3778) 
P

>  <INCHIKEY>  (3778) 
ZCZSIDMEHXZRLG-UHFFFAOYSA-N

>  <FORMULA>  (3778) 
C9H18O2

>  <EXACT MASS>  (3778) 
158.130679816

>  <MW>  (3778) 
158

>  <ID>  (3778) 
JP006814

>  <CONTRIBUTOR>  (3778) 
University of Tokyo Team, {Faculty of Engineering, University of Tokyo

>  <COMMENT>  (3778) 
SMILES=CCCCCCCOC(C)=O
InChI=InChI=1S/C9H18O2/c1-3-4-5-6-7-8-11-9(2)10/h3-8H2,1-2H3
computed SMILES=O=C(OCCCCCCC)C
accession=JP006814
date=2016.01.19 (Created 2008.10.21, modified 2011.05.06)
author=TAJIMA S, GUNMA COLLEGE OF TECHNOLOGY
license=CC BY-NC-SA
exact mass=158.13068
ionization energy=70 eV
ion type=[M]+*
computed spectral entropy=2.679983473763436
computed normalized entropy=0.7879529392245197
SPLASH=splash10-052f-9000000000-3768aad8cf9bcfef7e17
submitter=submitter = University of Tokyo Team (Faculty of Engineering, University of Tokyo)
MoNA Rating=3.75

>  <NUM PEAKS>  (3778) 
30

>  <MASS SPECTRAL PEAKS>  (3778) 
15 4.05
27 10.41
28 2.11
29 12.69
31 1
39 7.25
40 1.32
41 24.61
42 16.1
43 99.99
44 2.68
53 1.4
54 2.75
55 26.8
56 39.92
57 13.03
58 2.65
61 24.19
67 1.02
68 5.15
69 18.96
70 38.23
71 2.53
73 7.27
83 3.53
97 1.72
98 17.83
99 1.19
101 1.09
116 1.7

$$$$

     RDKit          2D

 11 10  0  0  0  0  0  0  0  0999 V2000
   -9.4180    0.5625    0.0000 C   0  0  0  0  0  0  0  0  0  0  0  0
   -1.6238    6.5625    0.0000 C   0  0  0  0  0  0  0  0  0  0  0  0
   -8.1190   -0.1875    0.0000 C   0  0  0  0  0  0  0  0  0  0  0  0
   -6.8200    0.5625    0.0000 C   0  0  0  0  0  0  0  0  0  0  0  0
   -5.5209   -0.1875    0.0000 C   0  0  0  0  0  0  0  0  0  0  0  0
   -4.2219    0.5625    0.0000 C   0  0  0  0  0  0  0  0  0  0  0  0
   -4.2219    2.0625    0.0000 C   0  0  0  0  0  0  0  0  0  0  0  0
   -2.9228    2.8125    0.0000 C   0  0  0  0  0  0  0  0  0  0  0  0
   -1.6238    5.0625    0.0000 C   0  0  0  0  0  0  0  0  0  0  0  0
   -0.3248    4.3125    0.0000 O   0  0  0  0  0  0  0  0  0  0  0  0
   -2.9228    4.3125    0.0000 O   0  0  0  0  0  0  0  0  0  0  0  0
  3  1  1  0
  4  3  1  0
  5  4  1  0
  5  6  2  0
  7  6  1  0
  8  7  1  0
  9  2  1  0
 10  9  2  0
 11  8  1  0
 11  9  1  0
M  END
>  <NAME>  (3779) 
CIS-3-HEPTENYL ACETATE

>  <SYNONYMS>  (3779) 


>  <SPECTRUM TYPE>  (3779) 
MS1

>  <INSTRUMENT TYPE>  (3779) 
EI-B

>  <INSTRUMENT>  (3779) 
HITACHI M-80B

>  <ION MODE>  (3779) 
P

>  <INCHIKEY>  (3779) 
AAYIYWGTGAUKQY-WAYWQWQTSA-N

>  <FORMULA>  (3779) 
C9H16O2

>  <EXACT MASS>  (3779) 
156.115029752

>  <MW>  (3779) 
156

>  <ID>  (3779) 
JP006813

>  <CONTRIBUTOR>  (3779) 
University of Tokyo Team, {Faculty of Engineering, University of Tokyo

>  <COMMENT>  (3779) 
SMILES=CCCC=CCCOC(C)=O
InChI=InChI=1S/C9H16O2/c1-3-4-5-6-7-8-11-9(2)10/h5-6H,3-4,7-8H2,1-2H3/b6-5-
computed SMILES=O=C(OCCC=CCCC)C
accession=JP006813
date=2016.01.19 (Created 2008.10.21, modified 2011.05.06)
author=TAJIMA S, GUNMA COLLEGE OF TECHNOLOGY
license=CC BY-NC-SA
exact mass=156.11503
ionization energy=70 eV
ion type=[M]+*
computed spectral entropy=2.426009321619033
computed normalized entropy=0.7536821715445851
SPLASH=splash10-0006-9000000000-7e9c9fade1cabee8700f
submitter=submitter = University of Tokyo Team (Faculty of Engineering, University of Tokyo)
MoNA Rating=3.75

>  <NUM PEAKS>  (3779) 
25

>  <MASS SPECTRAL PEAKS>  (3779) 
15 5.71
27 10.9
28 2.19
29 7.54
39 11.9
40 1.59
41 17.34
42 3.87
43 99.99
44 2.11
51 1.2
53 4.94
54 52.49
55 17.8
56 1.05
65 1.35
67 24.38
68 5.63
73 3.03
79 1.39
81 34.17
82 2.24
95 1.56
96 25.73
97 2.33

$$$$

     RDKit          2D

 10  9  0  0  0  0  0  0  0  0999 V2000
    2.2733    4.3125    0.0000 C   0  0  0  0  0  0  0  0  0  0  0  0
   -1.6238    6.5625    0.0000 C   0  0  0  0  0  0  0  0  0  0  0  0
   -6.8200    5.0625    0.0000 C   0  0  0  0  0  0  0  0  0  0  0  0
    0.9743    5.0625    0.0000 C   0  0  0  0  0  0  0  0  0  0  0  0
   -0.3248    4.3125    0.0000 C   0  0  0  0  0  0  0  0  0  0  0  0
   -2.9228    4.3125    0.0000 C   0  0  0  0  0  0  0  0  0  0  0  0
   -1.6238    5.0625    0.0000 C   0  0  0  0  0  0  0  0  0  0  0  0
   -5.5209    4.3125    0.0000 C   0  0  0  0  0  0  0  0  0  0  0  0
   -5.5209    2.8125    0.0000 O   0  0  0  0  0  0  0  0  0  0  0  0
   -4.2219    5.0625    0.0000 O   0  0  0  0  0  0  0  0  0  0  0  0
  4  1  1  0
  5  4  1  0
  7  2  1  0
  7  5  1  0
  7  6  1  0
  8  3  1  0
  9  8  2  0
 10  6  1  0
 10  8  1  0
M  END
>  <NAME>  (3780) 
2-METHYLPENTYL ACETATE

>  <SYNONYMS>  (3780) 


>  <SPECTRUM TYPE>  (3780) 
MS1

>  <INSTRUMENT TYPE>  (3780) 
EI-B

>  <INSTRUMENT>  (3780) 
HITACHI M-80B

>  <ION MODE>  (3780) 
P

>  <INCHIKEY>  (3780) 
UZTVUHTZGGZFCI-UHFFFAOYSA-N

>  <FORMULA>  (3780) 
C8H16O2

>  <EXACT MASS>  (3780) 
144.115029752

>  <MW>  (3780) 
144

>  <ID>  (3780) 
JP006812

>  <CONTRIBUTOR>  (3780) 
University of Tokyo Team, {Faculty of Engineering, University of Tokyo

>  <COMMENT>  (3780) 
SMILES=CCCC(C)COC(C)=O
InChI=InChI=1S/C8H16O2/c1-4-5-7(2)6-10-8(3)9/h7H,4-6H2,1-3H3
computed SMILES=O=C(OCC(C)CCC)C
accession=JP006812
date=2016.01.19 (Created 2008.10.21, modified 2011.05.06)
author=TAJIMA S, GUNMA COLLEGE OF TECHNOLOGY
license=CC BY-NC-SA
exact mass=144.11503
ionization energy=70 eV
ion type=[M]+*
computed spectral entropy=2.4508321594462923
computed normalized entropy=0.7613938197030771
SPLASH=splash10-0006-9000000000-a8d6937cfdbbaec8726d
submitter=submitter = University of Tokyo Team (Faculty of Engineering, University of Tokyo)
MoNA Rating=3.75

>  <NUM PEAKS>  (3780) 
25

>  <MASS SPECTRAL PEAKS>  (3780) 
15 2.48
27 8.46
28 1.7
29 7.79
39 6.44
40 1.01
41 15.01
42 10.24
43 99.99
44 2.41
53 1.07
55 11.17
56 34.83
57 2.34
61 6.59
69 11.34
70 2.48
71 3.91
72 8.66
73 14
74 7.55
75 1
83 2.09
84 20.3
85 1.83

$$$$

     RDKit          2D

 10  9  0  0  0  0  0  0  0  0999 V2000
    2.5981    4.5000    0.0000 C   0  0  0  0  0  0  0  0  0  0  0  0
   -7.7942    4.5000    0.0000 C   0  0  0  0  0  0  0  0  0  0  0  0
    1.2990    5.2500    0.0000 C   0  0  0  0  0  0  0  0  0  0  0  0
    0.0000    4.5000    0.0000 C   0  0  0  0  0  0  0  0  0  0  0  0
   -1.2990    5.2500    0.0000 C   0  0  0  0  0  0  0  0  0  0  0  0
   -2.5981    4.5000    0.0000 C   0  0  0  0  0  0  0  0  0  0  0  0
   -3.8971    5.2500    0.0000 C   0  0  0  0  0  0  0  0  0  0  0  0
   -6.4952    5.2500    0.0000 C   0  0  0  0  0  0  0  0  0  0  0  0
   -6.4952    6.7500    0.0000 O   0  0  0  0  0  0  0  0  0  0  0  0
   -5.1962    4.5000    0.0000 O   0  0  0  0  0  0  0  0  0  0  0  0
  3  1  1  0
  4  3  1  0
  5  4  1  0
  6  5  1  0
  7  6  1  0
  8  2  1  0
  9  8  2  0
 10  7  1  0
 10  8  1  0
M  END
>  <NAME>  (3781) 
HEXYL ACETATE

>  <SYNONYMS>  (3781) 


>  <SPECTRUM TYPE>  (3781) 
MS1

>  <INSTRUMENT TYPE>  (3781) 
EI-B

>  <INSTRUMENT>  (3781) 
HITACHI M-80B

>  <ION MODE>  (3781) 
P

>  <INCHIKEY>  (3781) 
AOGQPLXWSUTHQB-UHFFFAOYSA-N

>  <FORMULA>  (3781) 
C8H16O2

>  <EXACT MASS>  (3781) 
144.115029752

>  <MW>  (3781) 
144

>  <ID>  (3781) 
JP006811

>  <CONTRIBUTOR>  (3781) 
University of Tokyo Team, {Faculty of Engineering, University of Tokyo

>  <COMMENT>  (3781) 
SMILES=CCCCCCOC(C)=O
InChI=InChI=1S/C8H16O2/c1-3-4-5-6-7-10-8(2)9/h3-7H2,1-2H3
computed SMILES=O=C(OCCCCCC)C
accession=JP006811
date=2016.01.19 (Created 2008.10.21, modified 2011.05.06)
author=TAJIMA S, GUNMA COLLEGE OF TECHNOLOGY
license=CC BY-NC-SA
exact mass=144.11503
ionization energy=70 eV
ion type=[M]+*
computed spectral entropy=2.400731668777888
computed normalized entropy=0.7656629237526668
SPLASH=splash10-0006-9000000000-88601f99d038175f4279
submitter=submitter = University of Tokyo Team (Faculty of Engineering, University of Tokyo)
MoNA Rating=3.75

>  <NUM PEAKS>  (3781) 
23

>  <MASS SPECTRAL PEAKS>  (3781) 
15 4.65
27 9.39
28 2.85
29 9.13
31 1.17
39 6.29
41 17.91
42 16.81
43 99.99
44 2.62
54 1.39
55 21.15
56 40.47
57 2.77
58 2.59
61 23.68
69 12.48
71 1.09
73 7.89
83 2.24
84 21.34
85 1.41
101 1.07

$$$$

     RDKit          2D

 10  9  0  0  0  0  0  0  0  0999 V2000
    1.9486    3.3750    0.0000 C   0  0  0  0  0  0  0  0  0  0  0  0
    0.6495    1.1250    0.0000 C   0  0  0  0  0  0  0  0  0  0  0  0
   -5.8457    3.3750    0.0000 C   0  0  0  0  0  0  0  0  0  0  0  0
    0.6495    4.1250    0.0000 C   0  0  0  0  0  0  0  0  0  0  0  0
   -0.6495    1.8750    0.0000 C   0  0  0  0  0  0  0  0  0  0  0  0
   -1.9486    4.1250    0.0000 C   0  0  0  0  0  0  0  0  0  0  0  0
   -4.5466    4.1250    0.0000 C   0  0  0  0  0  0  0  0  0  0  0  0
   -0.6495    3.3750    0.0000 C   0  0  0  0  0  0  0  0  0  0  0  0
   -4.5466    5.6250    0.0000 O   0  0  0  0  0  0  0  0  0  0  0  0
   -3.2476    3.3750    0.0000 O   0  0  0  0  0  0  0  0  0  0  0  0
  4  1  1  0
  5  2  1  0
  7  3  1  0
  8  4  1  0
  8  5  1  0
  8  6  1  0
  9  7  2  0
 10  6  1  0
 10  7  1  0
M  END
>  <NAME>  (3782) 
2-ETHYLBUTYL ACETATE

>  <SYNONYMS>  (3782) 


>  <SPECTRUM TYPE>  (3782) 
MS1

>  <INSTRUMENT TYPE>  (3782) 
EI-B

>  <INSTRUMENT>  (3782) 
HITACHI M-80B

>  <ION MODE>  (3782) 
P

>  <INCHIKEY>  (3782) 
HQLKZWRSOHTERR-UHFFFAOYSA-N

>  <FORMULA>  (3782) 
C8H16O2

>  <EXACT MASS>  (3782) 
144.115029752

>  <MW>  (3782) 
144

>  <ID>  (3782) 
JP006810

>  <CONTRIBUTOR>  (3782) 
University of Tokyo Team, {Faculty of Engineering, University of Tokyo

>  <COMMENT>  (3782) 
SMILES=CCC(CC)COC(C)=O
InChI=InChI=1S/C8H16O2/c1-4-8(5-2)6-10-7(3)9/h8H,4-6H2,1-3H3
computed SMILES=O=C(OCC(CC)CC)C
accession=JP006810
date=2016.01.19 (Created 2008.10.21, modified 2011.05.06)
author=TAJIMA S, GUNMA COLLEGE OF TECHNOLOGY
license=CC BY-NC-SA
exact mass=144.11503
ionization energy=70 eV
ion type=[M]+*
computed spectral entropy=2.4360272501515787
computed normalized entropy=0.7567944160291812
SPLASH=splash10-0006-9000000000-bca3da23b67bd36d65b4
submitter=submitter = University of Tokyo Team (Faculty of Engineering, University of Tokyo)
MoNA Rating=3.75

>  <NUM PEAKS>  (3782) 
25

>  <MASS SPECTRAL PEAKS>  (3782) 
15 3.22
27 9.34
29 10.56
31 1.15
39 5.68
41 13.5
42 8.47
43 99.99
44 2.68
53 1.32
54 1.02
55 18.45
56 11.38
57 1.55
61 2.18
69 17.91
70 4.77
71 4.66
72 1.35
73 10.57
74 10.21
75 1.42
84 28.51
85 2.56
86 3.29

$$$$

     RDKit          2D

 10  9  0  0  0  0  0  0  0  0999 V2000
   -3.5724    2.8125    0.0000 C   0  0  0  0  0  0  0  0  0  0  0  0
    5.5209    5.0625    0.0000 C   0  0  0  0  0  0  0  0  0  0  0  0
   -2.2733    3.5625    0.0000 C   0  0  0  0  0  0  0  0  0  0  0  0
   -2.2733    5.0625    0.0000 C   0  0  0  0  0  0  0  0  0  0  0  0
   -0.9743    5.8125    0.0000 C   0  0  0  0  0  0  0  0  0  0  0  0
    0.3248    5.0625    0.0000 C   0  0  0  0  0  0  0  0  0  0  0  0
    1.6238    5.8125    0.0000 C   0  0  0  0  0  0  0  0  0  0  0  0
    4.2219    5.8125    0.0000 C   0  0  0  0  0  0  0  0  0  0  0  0
    4.2219    7.3125    0.0000 O   0  0  0  0  0  0  0  0  0  0  0  0
    2.9228    5.0625    0.0000 O   0  0  0  0  0  0  0  0  0  0  0  0
  3  1  1  0
  4  3  1  0
  4  5  2  0
  6  5  1  0
  7  6  1  0
  8  2  1  0
  9  8  2  0
 10  7  1  0
 10  8  1  0
M  END
>  <NAME>  (3783) 
CIS-3-HEXENYL ACETATE

>  <SYNONYMS>  (3783) 


>  <SPECTRUM TYPE>  (3783) 
MS1

>  <INSTRUMENT TYPE>  (3783) 
EI-B

>  <INSTRUMENT>  (3783) 
HITACHI M-80B

>  <ION MODE>  (3783) 
P

>  <INCHIKEY>  (3783) 
NPFVOOAXDOBMCE-PLNGDYQASA-N

>  <FORMULA>  (3783) 
C8H14O2

>  <EXACT MASS>  (3783) 
142.099379688

>  <MW>  (3783) 
142

>  <ID>  (3783) 
JP006809

>  <CONTRIBUTOR>  (3783) 
University of Tokyo Team, {Faculty of Engineering, University of Tokyo

>  <COMMENT>  (3783) 
SMILES=CCC=CCCOC(C)=O
InChI=InChI=1S/C8H14O2/c1-3-4-5-6-7-10-8(2)9/h4-5H,3,6-7H2,1-2H3/b5-4-
computed SMILES=O=C(OCCC=CCC)C
accession=JP006809
date=2016.01.19 (Created 2008.10.21, modified 2011.05.06)
author=TAJIMA S, GUNMA COLLEGE OF TECHNOLOGY
license=CC BY-NC-SA
exact mass=142.09938
ionization energy=70 eV
ion type=[M]+*
computed spectral entropy=2.1688439513736046
computed normalized entropy=0.7123757488203578
SPLASH=splash10-0006-9000000000-92d448bb2099c2ca8a3e
submitter=submitter = University of Tokyo Team (Faculty of Engineering, University of Tokyo)
MoNA Rating=3.75

>  <NUM PEAKS>  (3783) 
21

>  <MASS SPECTRAL PEAKS>  (3783) 
15 5.07
27 9.34
28 1.95
29 4.45
39 11.98
40 1.52
41 17.55
42 3.77
43 99.99
44 2.43
51 1.17
53 4.36
54 6.96
55 6.2
67 56.33
68 3.68
69 1.5
73 3.07
81 4.35
82 39.27
83 3.2

$$$$

     RDKit          2D

  7  7  0  0  0  0  0  0  0  0999 V2000
   -0.0000   -1.9300    0.0000 C   0  0  0  0  0  0  0  0  0  0  0  0
    0.0000    2.5700    0.0000 C   0  0  0  0  0  0  0  0  0  0  0  0
   -1.3000    1.8200    0.0000 C   0  0  0  0  0  0  0  0  0  0  0  0
    1.3000    1.8200    0.0000 C   0  0  0  0  0  0  0  0  0  0  0  0
   -1.3000    0.3200    0.0000 C   0  0  0  0  0  0  0  0  0  0  0  0
    1.3000    0.3200    0.0000 C   0  0  0  0  0  0  0  0  0  0  0  0
   -0.0000   -0.4300    0.0000 C   0  0  0  0  0  0  0  0  0  0  0  0
  3  2  2  0
  4  2  1  0
  5  3  1  0
  6  4  2  0
  7  1  1  0
  7  5  2  0
  7  6  1  0
M  END
>  <NAME>  (3784) 
TOLUENE

>  <SYNONYMS>  (3784) 
METHYLBENZENE

>  <SPECTRUM TYPE>  (3784) 
MS1

>  <INSTRUMENT TYPE>  (3784) 
EI-B

>  <INSTRUMENT>  (3784) 
HITACHI RMU-7M

>  <ION MODE>  (3784) 
P

>  <INCHIKEY>  (3784) 
YXFVVABEGXRONW-UHFFFAOYSA-N

>  <FORMULA>  (3784) 
C7H8

>  <EXACT MASS>  (3784) 
92.062600256

>  <MW>  (3784) 
92

>  <ID>  (3784) 
JP006808

>  <CONTRIBUTOR>  (3784) 
University of Tokyo Team, {Faculty of Engineering, University of Tokyo

>  <COMMENT>  (3784) 
SMILES=Cc(c1)cccc1
InChI=InChI=1S/C7H8/c1-7-5-3-2-4-6-7/h2-6H,1H3
computed SMILES=C=1C=CC(=CC1)C
accession=JP006808
date=2016.01.19 (Created 2008.10.21, modified 2011.05.06)
author=TAJIMA S, GUNMA COLLEGE OF TECHNOLOGY
license=CC BY-NC-SA
exact mass=92.0626
ionization energy=70 eV
ion type=[M]+*
computed spectral entropy=1.6898613525717179
computed normalized entropy=0.5640895775265486
SPLASH=splash10-0006-9000000000-9484aa3a95c9d0168f91
submitter=submitter = University of Tokyo Team (Faculty of Engineering, University of Tokyo)
MoNA Rating=3.75

>  <NUM PEAKS>  (3784) 
20

>  <MASS SPECTRAL PEAKS>  (3784) 
38 1.33
39 8.37
40 1
41 1.2
45 2.33
45.5 1
46 1.33
50 2.33
51 4.98
52 1.46
62 1.66
63 5.32
64 1.2
65 11.69
66 1.2
89 3.32
90 2.33
91 99.99
92 87.04
93 6.98

$$$$

     RDKit          2D

  9  9  0  0  0  0  0  0  0  0999 V2000
    3.5728   -1.3131    0.0000 C   0  0  0  0  0  0  0  0  0  0  0  0
    0.9744   -2.8133    0.0000 C   0  0  0  0  0  0  0  0  0  0  0  0
    0.9737    1.6883    0.0000 C   0  0  0  0  0  0  0  0  0  0  0  0
    2.2732    0.9375    0.0000 C   0  0  0  0  0  0  0  0  0  0  0  0
   -0.3254    0.9383    0.0000 C   0  0  0  0  0  0  0  0  0  0  0  0
    2.2737   -0.5633    0.0000 C   0  0  0  0  0  0  0  0  0  0  0  0
    0.9746   -1.3133    0.0000 C   0  0  0  0  0  0  0  0  0  0  0  0
   -0.3249   -0.5625    0.0000 C   0  0  0  0  0  0  0  0  0  0  0  0
   -1.6239   -1.3125    0.0000 N   0  0  0  0  0  0  0  0  0  0  0  0
  4  3  2  0
  5  3  1  0
  6  1  1  0
  6  4  1  0
  7  2  1  0
  7  6  2  0
  8  5  2  0
  8  7  1  0
  9  8  1  0
M  END
>  <NAME>  (3785) 
2,3-XYLIDINE

>  <SYNONYMS>  (3785) 
2,3-DIMETHYLANILINE

>  <SPECTRUM TYPE>  (3785) 
MS1

>  <INSTRUMENT TYPE>  (3785) 
EI-B

>  <INSTRUMENT>  (3785) 
HITACHI RMU-7M

>  <ION MODE>  (3785) 
P

>  <INCHIKEY>  (3785) 
VVAKEQGKZNKUSU-UHFFFAOYSA-N

>  <FORMULA>  (3785) 
C8H11N

>  <EXACT MASS>  (3785) 
121.08914935199999

>  <MW>  (3785) 
121

>  <ID>  (3785) 
JP006807

>  <CONTRIBUTOR>  (3785) 
University of Tokyo Team, {Faculty of Engineering, University of Tokyo

>  <COMMENT>  (3785) 
SMILES=Cc(c1)c(C)c(N)cc1
InChI=InChI=1S/C8H11N/c1-6-4-3-5-8(9)7(6)2/h3-5H,9H2,1-2H3
computed SMILES=NC1=CC=CC(=C1C)C
accession=JP006807
date=2016.01.19 (Created 2008.10.21, modified 2011.05.06)
author=TAJIMA S, GUNMA COLLEGE OF TECHNOLOGY
license=CC BY-NC-SA
exact mass=121.08915
ionization energy=70 eV
ion type=[M]+*
computed spectral entropy=2.6603368926595183
computed normalized entropy=0.7367480948109926
SPLASH=splash10-00di-3900000000-33ba3af3a479953a50ed
submitter=submitter = University of Tokyo Team (Faculty of Engineering, University of Tokyo)
MoNA Rating=3.75

>  <NUM PEAKS>  (3785) 
37

>  <MASS SPECTRAL PEAKS>  (3785) 
15 1
27 4.03
28 4.64
30 1.9
39 8.44
40 1.29
41 3.65
42 4.11
50 1.9
51 5.32
52 3.95
53 4.64
54 2.43
58.5 2.13
59.5 1.6
60.5 1.22
63 2.97
65 5.1
66 1.9
78 12.78
79 6.24
80 6.46
81 2.97
92 8.75
93 2.28
94 5.25
95 1.98
103 7.53
104 4.56
105 2.13
106 68.75
107 5.48
118 3.65
119 2.28
120 41.14
121 99.99
122 12.93

$$$$

     RDKit          2D

  5  4  0  0  0  0  0  0  0  0999 V2000
    0.0000    0.0000    0.0000 C   0  0  0  0  0  0  0  0  0  0  0  0
    1.2990    2.2500    0.0000 C   0  0  0  0  0  0  0  0  0  0  0  0
   -1.2990    2.2500    0.0000 C   0  0  0  0  0  0  0  0  0  0  0  0
    0.0000    1.5000    0.0000 C   0  0  0  0  0  0  0  0  0  0  0  0
   -1.2990    3.7500    0.0000 I   0  0  0  0  0  0  0  0  0  0  0  0
  4  1  1  0
  4  2  1  0
  4  3  1  0
  5  3  1  0
M  END
>  <NAME>  (3786) 
1-IODO-2-METHYLPROPANE

>  <SYNONYMS>  (3786) 
ISOBUTYL IODIDE

>  <SPECTRUM TYPE>  (3786) 
MS1

>  <INSTRUMENT TYPE>  (3786) 
EI-B

>  <INSTRUMENT>  (3786) 
HITACHI RMU-7M

>  <ION MODE>  (3786) 
P

>  <INCHIKEY>  (3786) 
BTUGGGLMQBJCBN-UHFFFAOYSA-N

>  <FORMULA>  (3786) 
C4H9I

>  <EXACT MASS>  (3786) 
183.974898288

>  <MW>  (3786) 
184

>  <ID>  (3786) 
JP006806

>  <CONTRIBUTOR>  (3786) 
University of Tokyo Team, {Faculty of Engineering, University of Tokyo

>  <COMMENT>  (3786) 
SMILES=CC(C)CI
InChI=InChI=1S/C4H9I/c1-4(2)3-5/h4H,3H2,1-2H3
computed SMILES=ICC(C)C
accession=JP006806
date=2016.01.19 (Created 2008.10.21, modified 2011.05.06)
author=TAJIMA S, GUNMA COLLEGE OF TECHNOLOGY
license=CC BY-NC-SA
exact mass=183.97489
ionization energy=70 eV
ion type=[M]+*
computed spectral entropy=1.729341310871042
computed normalized entropy=0.6385927816874217
SPLASH=splash10-0a4i-9000000000-7ad4c8538cab3fcfb72a
submitter=submitter = University of Tokyo Team (Faculty of Engineering, University of Tokyo)
MoNA Rating=3.75

>  <NUM PEAKS>  (3786) 
15

>  <MASS SPECTRAL PEAKS>  (3786) 
15 1.41
27 7.05
28 1.67
29 32.51
39 8.81
41 36.65
42 2.64
43 1.85
55 3.52
57 99.99
58 4.4
127 1.23
141 1
169 1
184 10.66

$$$$

     RDKit          2D

  8  7  0  0  0  0  0  0  0  0999 V2000
    1.1209    2.2500    0.0000 C   0  0  0  0  0  0  0  0  0  0  0  0
   -4.0753    2.2500    0.0000 C   0  0  0  0  0  0  0  0  0  0  0  0
    0.9642    1.3614    0.0000 C   0  0  0  0  0  0  0  0  0  0  0  0
   -2.4414    1.1009    0.0000 C   0  0  0  0  0  0  0  0  0  0  0  0
   -0.1782    3.0000    0.0000 O   0  0  0  0  0  0  0  0  0  0  0  0
   -2.7762    3.0000    0.0000 O   0  0  0  0  0  0  0  0  0  0  0  0
   -0.5130    1.1009    0.0000 O   0  0  0  0  0  0  0  0  0  0  0  0
   -1.4772    2.2500    0.0000 Si  0  0  0  0  0  4  0  0  0  0  0  0
  5  1  1  0
  6  2  1  0
  7  3  1  0
  8  4  1  0
  8  5  1  0
  8  6  1  0
  8  7  1  0
M  END
>  <NAME>  (3787) 
TRIMETHOXYMETHYLSILANE

>  <SYNONYMS>  (3787) 


>  <SPECTRUM TYPE>  (3787) 
MS1

>  <INSTRUMENT TYPE>  (3787) 
EI-B

>  <INSTRUMENT>  (3787) 
HITACHI RMU-7M

>  <ION MODE>  (3787) 
P

>  <INCHIKEY>  (3787) 
BFXIKLCIZHOAAZ-UHFFFAOYSA-N

>  <FORMULA>  (3787) 
C4H12O3Si

>  <EXACT MASS>  (3787) 
136.055570774

>  <MW>  (3787) 
136

>  <ID>  (3787) 
JP006805

>  <CONTRIBUTOR>  (3787) 
University of Tokyo Team, {Faculty of Engineering, University of Tokyo

>  <COMMENT>  (3787) 
SMILES=CO[Si](C)(OC)OC
InChI=InChI=1S/C4H12O3Si/c1-5-8(4,6-2)7-3/h1-4H3
computed SMILES=O(C)[Si](OC)(OC)C
accession=JP006805
date=2016.01.19 (Created 2008.10.21, modified 2011.05.06)
author=TAJIMA S, GUNMA COLLEGE OF TECHNOLOGY
license=CC BY-NC-SA
exact mass=136.05557
ionization energy=70 eV
ion type=[M]+*
computed spectral entropy=2.18066289417199
computed normalized entropy=0.6861629823095988
SPLASH=splash10-00di-8900000000-b8f34f43a5c334059c41
submitter=submitter = University of Tokyo Team (Faculty of Engineering, University of Tokyo)
MoNA Rating=3.75

>  <NUM PEAKS>  (3787) 
24

>  <MASS SPECTRAL PEAKS>  (3787) 
15 3.36
29 1.93
31 1.6
43 1.6
45 9.07
47 1.51
59 15.11
60 3.19
61 9.24
74 3.61
75 19.23
76 1.85
77 1.76
90 1.85
91 48.87
92 2.69
93 1.85
104 1.01
105 26.78
106 2.1
107 1.51
121 99.99
122 4.2
123 4.03

$$$$

     RDKit          2D

 13 13  0  0  0  0  0  0  0  0999 V2000
    5.1970   -1.5006    0.0000 C   0  0  0  0  0  0  0  0  0  0  0  0
    2.1474   -4.0587    0.0000 C   0  0  0  0  0  0  0  0  0  0  0  0
    5.0402   -2.3892    0.0000 C   0  0  0  0  0  0  0  0  0  0  0  0
   -1.3000    0.7500    0.0000 C   0  0  0  0  0  0  0  0  0  0  0  0
    0.0000    1.5000    0.0000 C   0  0  0  0  0  0  0  0  0  0  0  0
   -1.3000   -0.7500    0.0000 C   0  0  0  0  0  0  0  0  0  0  0  0
    1.3000    0.7500    0.0000 C   0  0  0  0  0  0  0  0  0  0  0  0
    0.0000   -1.5000    0.0000 C   0  0  0  0  0  0  0  0  0  0  0  0
    1.3000   -0.7500    0.0000 C   0  0  0  0  0  0  0  0  0  0  0  0
    3.8981   -0.7504    0.0000 O   0  0  0  0  0  0  0  0  0  0  0  0
    1.6346   -2.6491    0.0000 O   0  0  0  0  0  0  0  0  0  0  0  0
    3.5629   -2.6494    0.0000 O   0  0  0  0  0  0  0  0  0  0  0  0
    2.5989   -1.5002    0.0000 Si  0  0  0  0  0  4  0  0  0  0  0  0
  5  4  2  0
  6  4  1  0
  7  5  1  0
  8  6  2  0
  9  7  2  0
  9  8  1  0
 10  1  1  0
 11  2  1  0
 12  3  1  0
 13  9  1  0
 13 10  1  0
 13 11  1  0
 13 12  1  0
M  END
>  <NAME>  (3788) 
TRIMETHOXYPHENYLSILANE

>  <SYNONYMS>  (3788) 


>  <SPECTRUM TYPE>  (3788) 
MS1

>  <INSTRUMENT TYPE>  (3788) 
EI-B

>  <INSTRUMENT>  (3788) 
HITACHI RMU-7M

>  <ION MODE>  (3788) 
P

>  <INCHIKEY>  (3788) 
ZNOCGWVLWPVKAO-UHFFFAOYSA-N

>  <FORMULA>  (3788) 
C9H14O3Si

>  <EXACT MASS>  (3788) 
198.071220838

>  <MW>  (3788) 
198

>  <ID>  (3788) 
JP006804

>  <CONTRIBUTOR>  (3788) 
University of Tokyo Team, {Faculty of Engineering, University of Tokyo

>  <COMMENT>  (3788) 
SMILES=CO[Si](OC)(OC)c(c1)cccc1
InChI=InChI=1S/C9H14O3Si/c1-10-13(11-2,12-3)9-7-5-4-6-8-9/h4-8H,1-3H3
computed SMILES=O(C)[Si](OC)(OC)C=1C=CC=CC1
accession=JP006804
date=2016.01.19 (Created 2008.10.21, modified 2011.05.06)
author=TAJIMA S, GUNMA COLLEGE OF TECHNOLOGY
license=CC BY-NC-SA
exact mass=198.07122
ionization energy=70 eV
ion type=[M]+*
computed spectral entropy=2.629171731649154
computed normalized entropy=0.8069655705308689
SPLASH=splash10-00dl-6900000000-215dab55c949dee48aac
submitter=submitter = University of Tokyo Team (Faculty of Engineering, University of Tokyo)
MoNA Rating=3.75

>  <NUM PEAKS>  (3788) 
26

>  <MASS SPECTRAL PEAKS>  (3788) 
39 1.6
45 7.37
50 2.75
51 7.01
59 28.27
60 5.55
61 9.28
77 5.86
78 4.7
90 42.3
91 48.29
92 5.77
105 2.57
107 26.36
108 2.8
120 99.99
121 42.61
122 7.86
123 2.93
136 4.62
137 9.68
167 18.46
168 3.46
198 26.63
199 3.99
200 1.33

$$$$

     RDKit          2D

  9  8  0  0  0  0  0  0  0  0999 V2000
   -0.9743    5.0625    0.0000 C   0  0  0  0  0  0  0  0  0  0  0  0
   -3.5724    0.5625    0.0000 C   0  0  0  0  0  0  0  0  0  0  0  0
    0.3248    2.8125    0.0000 C   0  0  0  0  0  0  0  0  0  0  0  0
   -2.2733    4.3125    0.0000 C   0  0  0  0  0  0  0  0  0  0  0  0
   -3.5724    2.0625    0.0000 C   0  0  0  0  0  0  0  0  0  0  0  0
   -0.9743    2.0625    0.0000 C   0  0  0  0  0  0  0  0  0  0  0  0
   -2.2733    2.8125    0.0000 C   0  0  0  0  0  0  0  0  0  0  0  0
   -4.8714    2.8125    0.0000 O   0  0  0  0  0  0  0  0  0  0  0  0
   -0.9743    0.5625    0.0000 O   0  0  0  0  0  0  0  0  0  0  0  0
  4  1  1  0
  5  2  1  0
  6  3  1  0
  7  4  1  0
  7  5  1  0
  7  6  1  0
  8  5  2  0
  9  6  2  0
M  END
>  <NAME>  (3789) 
3-ETHYL-2,4-PENTANEDIONE

>  <SYNONYMS>  (3789) 


>  <SPECTRUM TYPE>  (3789) 
MS1

>  <INSTRUMENT TYPE>  (3789) 
EI-B

>  <INSTRUMENT>  (3789) 
HITACHI RMU-7M

>  <ION MODE>  (3789) 
P

>  <INCHIKEY>  (3789) 
GUARKOVVHJSMRW-UHFFFAOYSA-N

>  <FORMULA>  (3789) 
C7H12O2

>  <EXACT MASS>  (3789) 
128.083729624

>  <MW>  (3789) 
128

>  <ID>  (3789) 
JP006803

>  <CONTRIBUTOR>  (3789) 
University of Tokyo Team, {Faculty of Engineering, University of Tokyo

>  <COMMENT>  (3789) 
SMILES=CCC(C(C)=O)C(C)=O
InChI=InChI=1S/C7H12O2/c1-4-7(5(2)8)6(3)9/h7H,4H2,1-3H3
computed SMILES=O=C(C)C(C(=O)C)CC
accession=JP006803
date=2016.01.19 (Created 2008.10.21, modified 2011.05.06)
author=TAJIMA S, GUNMA COLLEGE OF TECHNOLOGY
license=CC BY-NC-SA
exact mass=128.08373
ionization energy=70 eV
ion type=[M]+*
computed spectral entropy=2.085305886146627
computed normalized entropy=0.6561581387431439
SPLASH=splash10-006x-9000000000-235871498a19035c7f90
submitter=submitter = University of Tokyo Team (Faculty of Engineering, University of Tokyo)
MoNA Rating=3.75

>  <NUM PEAKS>  (3789) 
24

>  <MASS SPECTRAL PEAKS>  (3789) 
15 5.87
27 4.06
29 2.09
31 1.07
39 4.35
41 4.74
42 2.26
43 99.99
44 2.31
45 1.47
53 1.24
55 2.14
58 3.72
67 3.84
69 1.41
71 53.33
72 2.48
85 5.76
86 32.73
87 2.26
100 4.57
113 6.77
128 3.44
129 1.41

$$$$

     RDKit          2D

 10  9  0  0  0  0  0  0  0  0999 V2000
    2.2733    2.8125    0.0000 C   0  0  0  0  0  0  0  0  0  0  0  0
    0.9743    5.0625    0.0000 C   0  0  0  0  0  0  0  0  0  0  0  0
   -5.5209    2.8125    0.0000 C   0  0  0  0  0  0  0  0  0  0  0  0
   -0.3248    2.8125    0.0000 C   0  0  0  0  0  0  0  0  0  0  0  0
   -2.9228    2.8125    0.0000 C   0  0  0  0  0  0  0  0  0  0  0  0
    0.9743    3.5625    0.0000 C   0  0  0  0  0  0  0  0  0  0  0  0
   -4.2219    3.5625    0.0000 C   0  0  0  0  0  0  0  0  0  0  0  0
   -1.6238    3.5625    0.0000 C   0  0  0  0  0  0  0  0  0  0  0  0
   -4.2219    5.0625    0.0000 O   0  0  0  0  0  0  0  0  0  0  0  0
   -1.6238    5.0625    0.0000 O   0  0  0  0  0  0  0  0  0  0  0  0
  6  1  1  0
  6  2  1  0
  6  4  1  0
  7  3  1  0
  7  5  1  0
  8  4  1  0
  8  5  1  0
  9  7  2  0
 10  8  2  0
M  END
>  <NAME>  (3790) 
6-METHYL-2,4-HEPTANEDIONE

>  <SYNONYMS>  (3790) 


>  <SPECTRUM TYPE>  (3790) 
MS1

>  <INSTRUMENT TYPE>  (3790) 
EI-B

>  <INSTRUMENT>  (3790) 
HITACHI RMU-7M

>  <ION MODE>  (3790) 
P

>  <INCHIKEY>  (3790) 
IGMOYJSFRIASIE-UHFFFAOYSA-N

>  <FORMULA>  (3790) 
C8H14O2

>  <EXACT MASS>  (3790) 
142.099379688

>  <MW>  (3790) 
142

>  <ID>  (3790) 
JP006802

>  <CONTRIBUTOR>  (3790) 
University of Tokyo Team, {Faculty of Engineering, University of Tokyo

>  <COMMENT>  (3790) 
SMILES=CC(C)CC(=O)CC(C)=O
InChI=InChI=1S/C8H14O2/c1-6(2)4-8(10)5-7(3)9/h6H,4-5H2,1-3H3
computed SMILES=O=C(C)CC(=O)CC(C)C
accession=JP006802
date=2016.01.19 (Created 2008.10.21, modified 2011.05.06)
author=TAJIMA S, GUNMA COLLEGE OF TECHNOLOGY
license=CC BY-NC-SA
exact mass=142.09938
ionization energy=70 eV
ion type=[M]+*
computed spectral entropy=2.364278220856163
computed normalized entropy=0.7256624207617552
SPLASH=splash10-000f-9100000000-e17733595103bfe4f530
submitter=submitter = University of Tokyo Team (Faculty of Engineering, University of Tokyo)
MoNA Rating=3.75

>  <NUM PEAKS>  (3790) 
26

>  <MASS SPECTRAL PEAKS>  (3790) 
15 3.26
27 9.15
28 2.79
29 10.24
31 2.33
39 8.22
40 1.47
41 17.77
42 5.12
43 83.17
44 2.17
55 2.87
56 2.33
57 27.08
58 11.02
67 1.55
71 3.41
72 2.25
85 99.99
86 4.73
100 24.36
101 1.24
127 11.71
128 0.93
142 10.47
143 1.16

$$$$

     RDKit          2D

 13 14  0  0  0  0  0  0  0  0999 V2000
    3.8992    0.3353    0.0000 C   0  0  0  0  0  0  0  0  0  0  0  0
    3.8996    1.8362    0.0000 C   0  0  0  0  0  0  0  0  0  0  0  0
    2.5996   -0.4155    0.0000 C   0  0  0  0  0  0  0  0  0  0  0  0
    2.6006    2.5862    0.0000 C   0  0  0  0  0  0  0  0  0  0  0  0
    1.3006    0.3345    0.0000 C   0  0  0  0  0  0  0  0  0  0  0  0
   -1.2933    1.8289    0.0000 C   0  0  0  0  0  0  0  0  0  0  0  0
    0.0093    4.0602    0.0000 C   0  0  0  0  0  0  0  0  0  0  0  0
   -2.5814    2.5475    0.0000 C   0  0  0  0  0  0  0  0  0  0  0  0
   -1.3191    4.8478    0.0000 C   0  0  0  0  0  0  0  0  0  0  0  0
    1.3011    1.8353    0.0000 C   0  0  0  0  0  0  0  0  0  0  0  0
    0.0020    2.5853    0.0000 C   0  0  0  0  0  0  0  0  0  0  0  0
   -2.6144    4.0915    0.0000 C   0  0  0  0  0  0  0  0  0  0  0  0
   -3.9232    4.8243    0.0000 O   0  0  0  0  0  0  0  0  0  0  0  0
  2  1  2  0
  3  1  1  0
  4  2  1  0
  5  3  2  0
  8  6  2  0
  9  7  1  0
 10  4  2  0
 10  5  1  0
 11  6  1  0
 11  7  2  0
 11 10  1  0
 12  8  1  0
 12  9  2  0
 13 12  1  0
M  END
>  <NAME>  (3791) 
4-HYDROXYBIPHENYL

>  <SYNONYMS>  (3791) 
4-PHENYLPHENOL

>  <SPECTRUM TYPE>  (3791) 
MS1

>  <INSTRUMENT TYPE>  (3791) 
EI-B

>  <INSTRUMENT>  (3791) 
HITACHI RMU-7M

>  <ION MODE>  (3791) 
P

>  <INCHIKEY>  (3791) 
YXVFYQXJAXKLAK-UHFFFAOYSA-N

>  <FORMULA>  (3791) 
C12H10O

>  <EXACT MASS>  (3791) 
170.07316494

>  <MW>  (3791) 
170

>  <ID>  (3791) 
JP006801

>  <CONTRIBUTOR>  (3791) 
University of Tokyo Team, {Faculty of Engineering, University of Tokyo

>  <COMMENT>  (3791) 
SMILES=Oc(c2)ccc(c2)c(c1)cccc1
InChI=InChI=1S/C12H10O/c13-12-8-6-11(7-9-12)10-4-2-1-3-5-10/h1-9,13H
computed SMILES=OC=1C=CC(=CC1)C=2C=CC=CC2
accession=JP006801
date=2016.01.19 (Created 2008.10.21, modified 2011.05.06)
author=TAJIMA S, GUNMA COLLEGE OF TECHNOLOGY
license=CC BY-NC-SA
exact mass=170.07316
ionization energy=70 eV
ion type=[M]+*
computed spectral entropy=2.665030228820628
computed normalized entropy=0.7176460240842366
SPLASH=splash10-00di-3900000000-ec8dd82a5a350a0ae414
submitter=submitter = University of Tokyo Team (Faculty of Engineering, University of Tokyo)
MoNA Rating=3.75

>  <NUM PEAKS>  (3791) 
41

>  <MASS SPECTRAL PEAKS>  (3791) 
39 3.22
41 2.46
43 1.9
50 4.03
51 3.46
55 3.18
56 7.77
57.5 1.42
63 2.99
65 2.27
69 1.94
69.5 1
70 1.66
72 1.9
74 1.56
75 2.42
76 9.29
77 4.45
78 1.09
84 2.84
85 6.02
89 1.8
102 1.04
104 1.9
105 2.65
115 9.38
116 1.33
121 1
139 5.31
140 1.23
141 15.26
142 2.65
151 1.47
152 2.37
153 2.04
154 1.94
155 1
168 2.27
169 10.66
170 99.99
171 13.27

$$$$

     RDKit          2D

  4  3  0  0  0  0  0  0  0  0999 V2000
   -2.5981    2.2500    0.0000 C   0  0  0  0  0  0  0  0  0  0  0  0
   -1.2990    1.5000    0.0000 C   0  0  0  0  0  0  0  0  0  0  0  0
    0.0000    2.2500    0.0000 C   0  0  0  0  0  0  0  0  0  0  0  0
    1.2990    1.5000    0.0000 Cl  0  0  0  0  0  0  0  0  0  0  0  0
  2  1  1  0
  3  2  1  0
  4  3  1  0
M  END
>  <NAME>  (3792) 
PROPYL CHLORIDE

>  <SYNONYMS>  (3792) 
1-CHLOROPROPANE

>  <SPECTRUM TYPE>  (3792) 
MS1

>  <INSTRUMENT TYPE>  (3792) 
EI-B

>  <INSTRUMENT>  (3792) 
HITACHI RMU-7M

>  <ION MODE>  (3792) 
P

>  <INCHIKEY>  (3792) 
SNMVRZFUUCLYTO-UHFFFAOYSA-N

>  <FORMULA>  (3792) 
C3H7Cl

>  <EXACT MASS>  (3792) 
78.023627904

>  <MW>  (3792) 
78

>  <ID>  (3792) 
JP006800

>  <CONTRIBUTOR>  (3792) 
University of Tokyo Team, {Faculty of Engineering, University of Tokyo

>  <COMMENT>  (3792) 
SMILES=CCCCl
InChI=InChI=1S/C3H7Cl/c1-2-3-4/h2-3H2,1H3
computed SMILES=ClCCC
accession=JP006800
date=2016.01.19 (Created 2008.10.21, modified 2011.05.06)
author=TAJIMA S, GUNMA COLLEGE OF TECHNOLOGY
license=CC BY-NC-SA
exact mass=78.02363
ionization energy=70 eV
ion type=[M]+*
computed spectral entropy=2.0718439291238284
computed normalized entropy=0.7168088061557438
SPLASH=splash10-002f-9000000000-4dc037b9bf831fd5f05d
submitter=submitter = University of Tokyo Team (Faculty of Engineering, University of Tokyo)
MoNA Rating=3.75

>  <NUM PEAKS>  (3792) 
18

>  <MASS SPECTRAL PEAKS>  (3792) 
15 2.15
26 4.45
27 33.06
28 13.05
29 39.81
37 2.67
38 3.71
39 12.38
40 3.19
41 24.17
42 99.99
43 14.9
49 3.78
51 1.26
63 3.93
65 1.33
78 2
80 0.67

$$$$

     RDKit          2D

  9  9  0  0  0  0  0  0  0  0999 V2000
    2.2733   -0.6175    0.0000 C   0  0  0  0  0  0  0  0  0  0  0  0
    2.2738    0.8833    0.0000 C   0  0  0  0  0  0  0  0  0  0  0  0
    0.9738   -1.3683    0.0000 C   0  0  0  0  0  0  0  0  0  0  0  0
    0.9748    1.6333    0.0000 C   0  0  0  0  0  0  0  0  0  0  0  0
   -0.3252   -0.6183    0.0000 C   0  0  0  0  0  0  0  0  0  0  0  0
   -0.3248    0.8825    0.0000 C   0  0  0  0  0  0  0  0  0  0  0  0
   -1.6238    1.6325    0.0000 C   0  0  0  0  0  0  0  0  0  0  0  0
   -2.9228    0.8825    0.0000 F   0  0  0  0  0  0  0  0  0  0  0  0
   -1.6238    3.1325    0.0000 O   0  0  0  0  0  0  0  0  0  0  0  0
  2  1  2  0
  3  1  1  0
  4  2  1  0
  5  3  2  0
  6  4  2  0
  6  5  1  0
  7  6  1  0
  8  7  1  0
  9  7  2  0
M  END
>  <NAME>  (3793) 
BENZOYL FLUORIDE

>  <SYNONYMS>  (3793) 


>  <SPECTRUM TYPE>  (3793) 
MS1

>  <INSTRUMENT TYPE>  (3793) 
EI-B

>  <INSTRUMENT>  (3793) 
HITACHI RMU-7M

>  <ION MODE>  (3793) 
P

>  <INCHIKEY>  (3793) 
HPMLGNIUXVXALD-UHFFFAOYSA-N

>  <FORMULA>  (3793) 
C7H5FO

>  <EXACT MASS>  (3793) 
124.032443

>  <MW>  (3793) 
124

>  <ID>  (3793) 
JP006799

>  <CONTRIBUTOR>  (3793) 
University of Tokyo Team, {Faculty of Engineering, University of Tokyo

>  <COMMENT>  (3793) 
SMILES=O=C(F)c(c1)cccc1
InChI=InChI=1S/C7H5FO/c8-7(9)6-4-2-1-3-5-6/h1-5H
computed SMILES=O=C(F)C=1C=CC=CC1
accession=JP006799
date=2016.01.19 (Created 2008.10.21, modified 2011.05.06)
author=TAJIMA S, GUNMA COLLEGE OF TECHNOLOGY
license=CC BY-NC-SA
exact mass=124.03244
ionization energy=70 eV
ion type=[M]+*
computed spectral entropy=2.736732119497927
computed normalized entropy=0.7969546642234044
SPLASH=splash10-0kka-9400000000-39a9038071ab6fa6ec7a
submitter=submitter = University of Tokyo Team (Faculty of Engineering, University of Tokyo)
MoNA Rating=3.75

>  <NUM PEAKS>  (3793) 
31

>  <MASS SPECTRAL PEAKS>  (3793) 
27 3.64
37 5.16
38 6.87
39 8.72
47 1.98
49 4.36
50 36.02
51 47.06
52 5.49
57 2.64
61 1.59
62 2.12
63 3.3
69 2.84
70 13.68
73 2.84
74 13.22
75 13.75
76 14.41
77 62.79
78 16.39
95 7.73
96 99.99
97 6.21
104 1.32
105 64.44
106 4.63
122 8.33
123 13.81
124 83.61
125 7.27

$$$$

     RDKit          2D

  7  7  0  0  0  0  0  0  0  0999 V2000
   -1.3000    0.7500    0.0000 C   0  0  0  0  0  0  0  0  0  0  0  0
    0.0000    1.5000    0.0000 C   0  0  0  0  0  0  0  0  0  0  0  0
   -1.3000   -0.7500    0.0000 C   0  0  0  0  0  0  0  0  0  0  0  0
    1.3000    0.7500    0.0000 C   0  0  0  0  0  0  0  0  0  0  0  0
    0.0000   -1.5000    0.0000 C   0  0  0  0  0  0  0  0  0  0  0  0
    1.3000   -0.7500    0.0000 C   0  0  0  0  0  0  0  0  0  0  0  0
    2.5989   -1.5002    0.0000 F   0  0  0  0  0  0  0  0  0  0  0  0
  2  1  2  0
  3  1  1  0
  4  2  1  0
  5  3  2  0
  6  4  2  0
  6  5  1  0
  7  6  1  0
M  END
>  <NAME>  (3794) 
FLUOROBENZENE

>  <SYNONYMS>  (3794) 


>  <SPECTRUM TYPE>  (3794) 
MS1

>  <INSTRUMENT TYPE>  (3794) 
EI-B

>  <INSTRUMENT>  (3794) 
HITACHI RMU-7M

>  <ION MODE>  (3794) 
P

>  <INCHIKEY>  (3794) 
PYLWMHQQBFSUBP-UHFFFAOYSA-N

>  <FORMULA>  (3794) 
C6H5F

>  <EXACT MASS>  (3794) 
96.03752838

>  <MW>  (3794) 
96

>  <ID>  (3794) 
JP006798

>  <CONTRIBUTOR>  (3794) 
University of Tokyo Team, {Faculty of Engineering, University of Tokyo

>  <COMMENT>  (3794) 
SMILES=Fc(c1)cccc1
InChI=InChI=1S/C6H5F/c7-6-4-2-1-3-5-6/h1-5H
computed SMILES=FC=1C=CC=CC1
accession=JP006798
date=2016.01.19 (Created 2008.10.21, modified 2011.05.06)
author=TAJIMA S, GUNMA COLLEGE OF TECHNOLOGY
license=CC BY-NC-SA
exact mass=96.03753
ionization energy=70 eV
ion type=[M]+*
computed spectral entropy=1.9958244234047935
computed normalized entropy=0.6456800427429897
SPLASH=splash10-0002-9000000000-2aa4563aac2d6d44c333
submitter=submitter = University of Tokyo Team (Faculty of Engineering, University of Tokyo)
MoNA Rating=3.75

>  <NUM PEAKS>  (3794) 
22

>  <MASS SPECTRAL PEAKS>  (3794) 
31 1.42
37 2.16
38 2.7
39 5.53
48 1.62
49 1.35
50 12.34
51 6.07
52 1.01
57 3.64
63 3.3
68 2.29
69 3.3
70 21.71
74 3.37
75 6.81
76 2.16
77 1.28
94 1.35
95 5.6
96 99.99
97 6.07

$$$$

     RDKit          2D

  8  8  0  0  0  0  0  0  0  0999 V2000
  -10.4600    6.3600    0.0000 C   0  0  0  0  0  0  0  0  0  0  0  0
  -11.3400    5.1500    0.0000 C   0  0  0  0  0  0  0  0  0  0  0  0
   -9.0300    5.9000    0.0000 C   0  0  0  0  0  0  0  0  0  0  0  0
  -10.4600    3.9300    0.0000 C   0  0  0  0  0  0  0  0  0  0  0  0
   -7.6000    6.3600    0.0000 C   0  0  0  0  0  0  0  0  0  0  0  0
   -9.0300    4.4000    0.0000 C   0  0  0  0  0  0  0  0  0  0  0  0
   -6.7200    5.1500    0.0000 C   0  0  0  0  0  0  0  0  0  0  0  0
   -7.6000    3.9300    0.0000 C   0  0  0  0  0  0  0  0  0  0  0  0
  2  1  1  0
  3  1  1  0
  4  2  1  0
  5  3  1  0
  6  4  1  0
  7  5  1  0
  8  6  1  0
  8  7  1  0
M  END
>  <NAME>  (3795) 
CYCLOOCTANE

>  <SYNONYMS>  (3795) 


>  <SPECTRUM TYPE>  (3795) 
MS1

>  <INSTRUMENT TYPE>  (3795) 
EI-B

>  <INSTRUMENT>  (3795) 
HITACHI RMU-7M

>  <ION MODE>  (3795) 
P

>  <INCHIKEY>  (3795) 
WJTCGQSWYFHTAC-UHFFFAOYSA-N

>  <FORMULA>  (3795) 
C8H16

>  <EXACT MASS>  (3795) 
112.12520051199999

>  <MW>  (3795) 
112

>  <ID>  (3795) 
JP006797

>  <CONTRIBUTOR>  (3795) 
University of Tokyo Team, {Faculty of Engineering, University of Tokyo

>  <COMMENT>  (3795) 
SMILES=C(C1)CCCCCC1
InChI=InChI=1S/C8H16/c1-2-4-6-8-7-5-3-1/h1-8H2
computed SMILES=C1CCCCCCC1
accession=JP006797
date=2016.01.19 (Created 2008.10.21, modified 2011.05.06)
author=TAJIMA S, GUNMA COLLEGE OF TECHNOLOGY
license=CC BY-NC-SA
exact mass=112.1252
ionization energy=70 eV
ion type=[M]+*
computed spectral entropy=2.869875921886698
computed normalized entropy=0.8707578798843767
SPLASH=splash10-0a4l-9000000000-33f4f43ebc5ea8c56f5c
submitter=submitter = University of Tokyo Team (Faculty of Engineering, University of Tokyo)
MoNA Rating=3.75

>  <NUM PEAKS>  (3795) 
27

>  <MASS SPECTRAL PEAKS>  (3795) 
15 1.4
27 26.79
28 8.38
29 22.22
39 35.43
40 6.35
41 86.48
42 52.38
43 39.24
51 2.67
53 8.89
54 9.78
55 90.29
56 99.99
57 16.83
67 11.81
68 20.95
70 62.79
71 7.87
82 13.21
83 53.52
84 37.78
97 9.65
110 1.84
111 12.13
112 48.13
113 4.19

$$$$

     RDKit          2D

  7  7  0  0  0  0  0  0  0  0999 V2000
    0.0000    1.5000    0.0000 C   0  0  0  0  0  0  0  0  0  0  0  0
    0.0000    0.0000    0.0000 C   0  0  0  0  0  0  0  0  0  0  0  0
   -1.1727    2.4352    0.0000 C   0  0  0  0  0  0  0  0  0  0  0  0
   -1.1727   -0.9352    0.0000 C   0  0  0  0  0  0  0  0  0  0  0  0
   -2.6351    2.1015    0.0000 C   0  0  0  0  0  0  0  0  0  0  0  0
   -2.6351   -0.6015    0.0000 C   0  0  0  0  0  0  0  0  0  0  0  0
   -3.2860    0.7500    0.0000 C   0  0  0  0  0  0  0  0  0  0  0  0
  2  1  1  0
  3  1  1  0
  4  2  1  0
  5  3  1  0
  6  4  1  0
  7  5  1  0
  7  6  1  0
M  END
>  <NAME>  (3796) 
CYCLOHEPTANE

>  <SYNONYMS>  (3796) 


>  <SPECTRUM TYPE>  (3796) 
MS1

>  <INSTRUMENT TYPE>  (3796) 
EI-B

>  <INSTRUMENT>  (3796) 
HITACHI RMU-7M

>  <ION MODE>  (3796) 
P

>  <INCHIKEY>  (3796) 
DMEGYFMYUHOHGS-UHFFFAOYSA-N

>  <FORMULA>  (3796) 
C7H14

>  <EXACT MASS>  (3796) 
98.109550448

>  <MW>  (3796) 
98

>  <ID>  (3796) 
JP006796

>  <CONTRIBUTOR>  (3796) 
University of Tokyo Team, {Faculty of Engineering, University of Tokyo

>  <COMMENT>  (3796) 
SMILES=C(C1)CCCCC1
InChI=InChI=1S/C7H14/c1-2-4-6-7-5-3-1/h1-7H2
computed SMILES=C1CCCCCC1
accession=JP006796
date=2016.01.19 (Created 2008.10.21, modified 2011.05.06)
author=TAJIMA S, GUNMA COLLEGE OF TECHNOLOGY
license=CC BY-NC-SA
exact mass=98.10955
ionization energy=70 eV
ion type=[M]+*
computed spectral entropy=2.742086814927038
computed normalized entropy=0.8416223346752649
SPLASH=splash10-0a4l-9000000000-17287016935b9da5ae0d
submitter=submitter = University of Tokyo Team (Faculty of Engineering, University of Tokyo)
MoNA Rating=3.75

>  <NUM PEAKS>  (3796) 
26

>  <MASS SPECTRAL PEAKS>  (3796) 
15 1.63
27 21.31
28 8.55
29 25.27
39 25.82
40 4.9
41 73.87
42 70.14
43 13.37
53 6.07
54 10.89
55 90.12
56 99.99
57 18.04
67 6.69
68 20.22
69 55.44
70 80.09
71 4.67
82 3.34
83 38.72
84 2.33
96 2.18
97 11.66
98 31.8
99 2.1

$$$$

     RDKit          2D

  5  5  0  0  0  0  0  0  0  0999 V2000
    1.2100    0.3900    0.0000 C   0  0  0  0  0  0  0  0  0  0  0  0
    0.0000    1.2800    0.0000 C   0  0  0  0  0  0  0  0  0  0  0  0
    0.7500   -1.0300    0.0000 C   0  0  0  0  0  0  0  0  0  0  0  0
   -1.2100    0.3900    0.0000 C   0  0  0  0  0  0  0  0  0  0  0  0
   -0.7500   -1.0300    0.0000 C   0  0  0  0  0  0  0  0  0  0  0  0
  2  1  1  0
  3  1  1  0
  4  2  1  0
  5  3  1  0
  5  4  1  0
M  END
>  <NAME>  (3797) 
CYCLOPENTANE

>  <SYNONYMS>  (3797) 


>  <SPECTRUM TYPE>  (3797) 
MS1

>  <INSTRUMENT TYPE>  (3797) 
EI-B

>  <INSTRUMENT>  (3797) 
HITACHI RMU-7M

>  <ION MODE>  (3797) 
P

>  <INCHIKEY>  (3797) 
RGSFGYAAUTVSQA-UHFFFAOYSA-N

>  <FORMULA>  (3797) 
C5H10

>  <EXACT MASS>  (3797) 
70.07825032

>  <MW>  (3797) 
70

>  <ID>  (3797) 
JP006795

>  <CONTRIBUTOR>  (3797) 
University of Tokyo Team, {Faculty of Engineering, University of Tokyo

>  <COMMENT>  (3797) 
SMILES=C(C1)CCC1
InChI=InChI=1S/C5H10/c1-2-4-5-3-1/h1-5H2
computed SMILES=C1CCCC1
accession=JP006795
date=2016.01.19 (Created 2008.10.21, modified 2011.05.06)
author=TAJIMA S, GUNMA COLLEGE OF TECHNOLOGY
license=CC BY-NC-SA
exact mass=70.07825
ionization energy=70 eV
ion type=[M]+*
computed spectral entropy=1.8618739035635559
computed normalized entropy=0.6571597961267448
SPLASH=splash10-0006-9000000000-afc524518acc7d17794e
submitter=submitter = University of Tokyo Team (Faculty of Engineering, University of Tokyo)
MoNA Rating=3.75

>  <NUM PEAKS>  (3797) 
17

>  <MASS SPECTRAL PEAKS>  (3797) 
27 4.98
28 1.35
29 2.92
39 10.68
40 4.2
41 22.06
42 99.99
43 4.63
53 1.42
54 1.07
55 35.66
56 1.57
67 1.42
68 1.57
69 3.56
70 25.98
71 1.71

$$$$

     RDKit          2D

 14 15  0  0  0  0  0  0  0  0999 V2000
    1.2995    1.0700    0.0000 C   0  0  0  0  0  0  0  0  0  0  0  0
   -3.8966   -1.9300    0.0000 C   0  0  0  0  0  0  0  0  0  0  0  0
    1.3000    2.5708    0.0000 C   0  0  0  0  0  0  0  0  0  0  0  0
    0.0000    0.3192    0.0000 C   0  0  0  0  0  0  0  0  0  0  0  0
   -5.1966   -1.1800    0.0000 C   0  0  0  0  0  0  0  0  0  0  0  0
   -2.5966   -1.1800    0.0000 C   0  0  0  0  0  0  0  0  0  0  0  0
    0.0010    3.3208    0.0000 C   0  0  0  0  0  0  0  0  0  0  0  0
   -1.2990    1.0692    0.0000 C   0  0  0  0  0  0  0  0  0  0  0  0
   -5.1966    0.3200    0.0000 C   0  0  0  0  0  0  0  0  0  0  0  0
   -2.5966    0.3200    0.0000 C   0  0  0  0  0  0  0  0  0  0  0  0
   -2.5976    3.3200    0.0000 C   0  0  0  0  0  0  0  0  0  0  0  0
   -3.8966    2.5700    0.0000 C   0  0  0  0  0  0  0  0  0  0  0  0
   -1.2986    2.5700    0.0000 C   0  0  0  0  0  0  0  0  0  0  0  0
   -3.8966    1.0700    0.0000 C   0  0  0  0  0  0  0  0  0  0  0  0
  3  1  2  0
  4  1  1  0
  5  2  2  0
  6  2  1  0
  7  3  1  0
  8  4  2  0
  9  5  1  0
 10  6  2  0
 11 12  2  0
 13  7  2  0
 13  8  1  0
 13 11  1  0
 14  9  2  0
 14 10  1  0
 14 12  1  0
M  END
>  <NAME>  (3798) 
CIS-STILBENE

>  <SYNONYMS>  (3798) 
CIS-1,2-DIPHENYLETHYLENE

>  <SPECTRUM TYPE>  (3798) 
MS1

>  <INSTRUMENT TYPE>  (3798) 
EI-B

>  <INSTRUMENT>  (3798) 
HITACHI RMU-7M

>  <ION MODE>  (3798) 
P

>  <INCHIKEY>  (3798) 
PJANXHGTPQOBST-QXMHVHEDSA-N

>  <FORMULA>  (3798) 
C14H12

>  <EXACT MASS>  (3798) 
180.093900384

>  <MW>  (3798) 
180

>  <ID>  (3798) 
JP006794

>  <CONTRIBUTOR>  (3798) 
University of Tokyo Team, {Faculty of Engineering, University of Tokyo

>  <COMMENT>  (3798) 
SMILES=c(c2)ccc(c2)C=Cc(c1)cccc1
InChI=InChI=1S/C14H12/c1-3-7-13(8-4-1)11-12-14-9-5-2-6-10-14/h1-12H/b12-11-
computed SMILES=C=1C=CC(=CC1)C=CC=2C=CC=CC2
accession=JP006794
date=2016.01.19 (Created 2008.10.21, modified 2011.05.06)
author=TAJIMA S, GUNMA COLLEGE OF TECHNOLOGY
license=CC BY-NC-SA
exact mass=180.0939
ionization energy=70 eV
ion type=[M]+*
computed spectral entropy=2.908293163757807
computed normalized entropy=0.7831524773232249
SPLASH=splash10-0059-3900000000-cf2213304d2bfe988979
submitter=submitter = University of Tokyo Team (Faculty of Engineering, University of Tokyo)
MoNA Rating=3.75

>  <NUM PEAKS>  (3798) 
41

>  <MASS SPECTRAL PEAKS>  (3798) 
39 8.33
50 2.07
51 6.2
52 2.52
62 4.07
63 12.79
64 1.94
65 3.49
74 5.49
75 6.85
76 16.15
77 12.21
78 5.49
82.5 2.07
86 1.29
87 2.33
88 2.97
89 13.76
89.5 1.87
90 2.71
102 13.89
103 3.94
115 4.72
126 1.55
127 1.36
128 1.74
129 1.29
130 4.39
139 2.52
148 1.94
151 3.55
152 8.53
153 2.45
165 30.1
166 3.88
176 3.88
177 3.23
178 32.88
179 60.08
180 99.99
181 14.41

$$$$

     RDKit          2D

 14 15  0  0  0  0  0  0  0  0999 V2000
    3.8971    1.0700    0.0000 C   0  0  0  0  0  0  0  0  0  0  0  0
   -5.1962    4.8200    0.0000 C   0  0  0  0  0  0  0  0  0  0  0  0
    3.8976    2.5708    0.0000 C   0  0  0  0  0  0  0  0  0  0  0  0
    2.5976    0.3192    0.0000 C   0  0  0  0  0  0  0  0  0  0  0  0
   -5.1966    3.3192    0.0000 C   0  0  0  0  0  0  0  0  0  0  0  0
   -3.8966    5.5708    0.0000 C   0  0  0  0  0  0  0  0  0  0  0  0
    2.5986    3.3208    0.0000 C   0  0  0  0  0  0  0  0  0  0  0  0
    1.2986    1.0692    0.0000 C   0  0  0  0  0  0  0  0  0  0  0  0
   -3.8976    2.5692    0.0000 C   0  0  0  0  0  0  0  0  0  0  0  0
   -2.5976    4.8208    0.0000 C   0  0  0  0  0  0  0  0  0  0  0  0
    0.0000    3.3200    0.0000 C   0  0  0  0  0  0  0  0  0  0  0  0
   -1.2990    2.5700    0.0000 C   0  0  0  0  0  0  0  0  0  0  0  0
    1.2990    2.5700    0.0000 C   0  0  0  0  0  0  0  0  0  0  0  0
   -2.5981    3.3200    0.0000 C   0  0  0  0  0  0  0  0  0  0  0  0
  3  1  2  0
  4  1  1  0
  5  2  2  0
  6  2  1  0
  7  3  1  0
  8  4  2  0
  9  5  1  0
 10  6  2  0
 11 12  2  0
 13  7  2  0
 13  8  1  0
 13 11  1  0
 14  9  2  0
 14 10  1  0
 14 12  1  0
M  END
>  <NAME>  (3799) 
TRANS-STILBENE

>  <SYNONYMS>  (3799) 
TRANS-1,2-DIPHENYLETHYLENE

>  <SPECTRUM TYPE>  (3799) 
MS1

>  <INSTRUMENT TYPE>  (3799) 
EI-B

>  <INSTRUMENT>  (3799) 
HITACHI RMU-7M

>  <ION MODE>  (3799) 
P

>  <INCHIKEY>  (3799) 
PJANXHGTPQOBST-VAWYXSNFSA-N

>  <FORMULA>  (3799) 
C14H12

>  <EXACT MASS>  (3799) 
180.093900384

>  <MW>  (3799) 
180

>  <ID>  (3799) 
JP006793

>  <CONTRIBUTOR>  (3799) 
University of Tokyo Team, {Faculty of Engineering, University of Tokyo

>  <COMMENT>  (3799) 
SMILES=c(c2)ccc(c2)C=Cc(c1)cccc1
InChI=InChI=1S/C14H12/c1-3-7-13(8-4-1)11-12-14-9-5-2-6-10-14/h1-12H/b12-11+
computed SMILES=C=1C=CC(=CC1)C=CC=2C=CC=CC2
accession=JP006793
date=2016.01.19 (Created 2008.10.21, modified 2011.05.06)
author=TAJIMA S, GUNMA COLLEGE OF TECHNOLOGY
license=CC BY-NC-SA
exact mass=180.0939
ionization energy=70 eV
ion type=[M]+*
computed spectral entropy=2.678979935124358
computed normalized entropy=0.7262313579091582
SPLASH=splash10-0059-2900000000-7b58ab9c6cb1b5efe5b2
submitter=submitter = University of Tokyo Team (Faculty of Engineering, University of Tokyo)
MoNA Rating=3.75

>  <NUM PEAKS>  (3799) 
40

>  <MASS SPECTRAL PEAKS>  (3799) 
39 3.58
50 2.98
51 7.57
52 2.39
62 1.33
63 5.21
64 1.2
65 1.38
74 1.97
75 2.79
76 12.81
76.5 1.46
77 6.7
78 2.76
82.5 3
87 1.12
88 3.85
89 17.86
89.5 3.35
90 4.78
91 1.65
102 7.76
103 1.62
115 2.98
126 1.2
127 1.09
128 1.08
139 1.91
150 1.12
151 3.69
152 7.39
153 2.1
165 34.01
166 4.26
176 5.08
177 3.25
178 42.03
179 77.06
180 99.99
181 13.71

$$$$

     RDKit          2D

 13 14  0  0  0  0  0  0  0  0999 V2000
   -3.5728   -0.6166    0.0000 C   0  0  0  0  0  0  0  0  0  0  0  0
   -2.2733   -1.3674    0.0000 C   0  0  0  0  0  0  0  0  0  0  0  0
   -3.5733    0.8843    0.0000 C   0  0  0  0  0  0  0  0  0  0  0  0
    2.9243    1.6330    0.0000 C   0  0  0  0  0  0  0  0  0  0  0  0
    2.9246    3.1330    0.0000 C   0  0  0  0  0  0  0  0  0  0  0  0
   -0.9742   -0.6174    0.0000 C   0  0  0  0  0  0  0  0  0  0  0  0
   -2.2742    1.6343    0.0000 C   0  0  0  0  0  0  0  0  0  0  0  0
    1.6242    0.8832    0.0000 C   0  0  0  0  0  0  0  0  0  0  0  0
    1.6247    3.8832    0.0000 C   0  0  0  0  0  0  0  0  0  0  0  0
   -0.9747    0.8834    0.0000 C   0  0  0  0  0  0  0  0  0  0  0  0
    0.3243    1.6334    0.0000 C   0  0  0  0  0  0  0  0  0  0  0  0
    0.3246    3.1334    0.0000 C   0  0  0  0  0  0  0  0  0  0  0  0
   -0.9742    3.8839    0.0000 O   0  0  0  0  0  0  0  0  0  0  0  0
  2  1  2  0
  3  1  1  0
  5  4  2  0
  6  2  1  0
  7  3  2  0
  8  4  1  0
  9  5  1  0
 10  6  2  0
 10  7  1  0
 11  8  2  0
 11 10  1  0
 12  9  2  0
 12 11  1  0
 13 12  1  0
M  END
>  <NAME>  (3800) 
O-PHENYLPHENOL

>  <SYNONYMS>  (3800) 
2-HYDROXYBIPHENYL

>  <SPECTRUM TYPE>  (3800) 
MS1

>  <INSTRUMENT TYPE>  (3800) 
EI-B

>  <INSTRUMENT>  (3800) 
HITACHI RMU-7M

>  <ION MODE>  (3800) 
P

>  <INCHIKEY>  (3800) 
LLEMOWNGBBNAJR-UHFFFAOYSA-N

>  <FORMULA>  (3800) 
C12H10O

>  <EXACT MASS>  (3800) 
170.07316494

>  <MW>  (3800) 
170

>  <ID>  (3800) 
JP006792

>  <CONTRIBUTOR>  (3800) 
University of Tokyo Team, {Faculty of Engineering, University of Tokyo

>  <COMMENT>  (3800) 
SMILES=Oc(c2)c(ccc2)c(c1)cccc1
InChI=InChI=1S/C12H10O/c13-12-9-5-4-8-11(12)10-6-2-1-3-7-10/h1-9,13H
computed SMILES=OC=1C=CC=CC1C=2C=CC=CC2
accession=JP006792
date=2016.01.19 (Created 2008.10.21, modified 2011.05.06)
author=TAJIMA S, GUNMA COLLEGE OF TECHNOLOGY
license=CC BY-NC-SA
exact mass=170.07316
ionization energy=70 eV
ion type=[M]+*
computed spectral entropy=2.2537145487420664
computed normalized entropy=0.6562967228877498
SPLASH=splash10-00xr-1900000000-ba4f084280aee3b63cb9
submitter=submitter = University of Tokyo Team (Faculty of Engineering, University of Tokyo)
MoNA Rating=3.75

>  <NUM PEAKS>  (3800) 
31

>  <MASS SPECTRAL PEAKS>  (3800) 
39 3.59
50 1.52
51 3.43
57.5 1.77
58 1.01
62 1.31
63 4.14
65 1.52
69.5 1.11
70 2.27
70.5 1.26
71 1.92
77 2.07
84 1.36
85 2.02
89 2.58
102 1.52
115 14.9
116 2.02
139 5.05
140 1.52
141 22.53
142 8.18
152 1.06
153 1.01
155 1.52
168 4.8
169 52.42
170 99.99
171 13.08
172 1.06

$$$$

     RDKit          2D

 11 12  0  0  0  0  0  0  0  0999 V2000
    3.5389    1.3602    0.0000 C   0  0  0  0  0  0  0  0  0  0  0  0
   -2.9500   -0.8900    0.0000 C   0  0  0  0  0  0  0  0  0  0  0  0
   -2.9500    0.6100    0.0000 C   0  0  0  0  0  0  0  0  0  0  0  0
   -1.6500   -1.6400    0.0000 C   0  0  0  0  0  0  0  0  0  0  0  0
   -1.6500    1.3600    0.0000 C   0  0  0  0  0  0  0  0  0  0  0  0
    2.2400   -0.8900    0.0000 C   0  0  0  0  0  0  0  0  0  0  0  0
    0.9400   -1.6400    0.0000 C   0  0  0  0  0  0  0  0  0  0  0  0
    0.9400    1.3600    0.0000 C   0  0  0  0  0  0  0  0  0  0  0  0
    2.2400    0.6100    0.0000 C   0  0  0  0  0  0  0  0  0  0  0  0
   -0.3500   -0.8900    0.0000 C   0  0  0  0  0  0  0  0  0  0  0  0
   -0.3500    0.6100    0.0000 C   0  0  0  0  0  0  0  0  0  0  0  0
  3  2  2  0
  4  2  1  0
  5  3  1  0
  7  6  2  0
  9  1  1  0
  9  6  1  0
  9  8  2  0
 10  4  2  0
 10  7  1  0
 11  5  2  0
 11  8  1  0
 11 10  1  0
M  END
>  <NAME>  (3801) 
2-METHYLNAPHTHALENE

>  <SYNONYMS>  (3801) 


>  <SPECTRUM TYPE>  (3801) 
MS1

>  <INSTRUMENT TYPE>  (3801) 
EI-B

>  <INSTRUMENT>  (3801) 
HITACHI RMU-7M

>  <ION MODE>  (3801) 
P

>  <INCHIKEY>  (3801) 
QIMMUPPBPVKWKM-UHFFFAOYSA-N

>  <FORMULA>  (3801) 
C11H10

>  <EXACT MASS>  (3801) 
142.07825032

>  <MW>  (3801) 
142

>  <ID>  (3801) 
JP006791

>  <CONTRIBUTOR>  (3801) 
University of Tokyo Team, {Faculty of Engineering, University of Tokyo

>  <COMMENT>  (3801) 
SMILES=Cc(c1)cc(c2)c(ccc2)c1
InChI=InChI=1S/C11H10/c1-9-6-7-10-4-2-3-5-11(10)8-9/h2-8H,1H3
computed SMILES=C=1C=CC=2C=C(C=CC2C1)C
accession=JP006791
date=2016.01.19 (Created 2008.10.21, modified 2011.05.06)
author=TAJIMA S, GUNMA COLLEGE OF TECHNOLOGY
license=CC BY-NC-SA
exact mass=142.07825
ionization energy=70 eV
ion type=[M]+*
computed spectral entropy=2.144634475409155
computed normalized entropy=0.6369011170063338
SPLASH=splash10-0006-2900000000-e3d5d8950004ca237838
submitter=submitter = University of Tokyo Team (Faculty of Engineering, University of Tokyo)
MoNA Rating=3.75

>  <NUM PEAKS>  (3801) 
29

>  <MASS SPECTRAL PEAKS>  (3801) 
27 1.09
39 2.86
50 2
51 2.51
57.5 4.51
58 1.09
62 1.94
63 4.29
65 1.43
69 1.49
69.5 2.63
70 2.86
70.5 3.89
71 5.71
74 1.83
75 1.77
76 1.14
77 1.2
87 1.37
89 2.29
91 1.09
113 1.09
115 16.8
116 1.77
139 7.14
140 4.23
141 60
142 99.99
143 11.54

$$$$

     RDKit          2D

 11 12  0  0  0  0  0  0  0  0999 V2000
    1.1800    2.7300    0.0000 C   0  0  0  0  0  0  0  0  0  0  0  0
   -2.7200   -1.0200    0.0000 C   0  0  0  0  0  0  0  0  0  0  0  0
   -2.7200    0.4800    0.0000 C   0  0  0  0  0  0  0  0  0  0  0  0
    2.4800   -1.0200    0.0000 C   0  0  0  0  0  0  0  0  0  0  0  0
    2.4800    0.4800    0.0000 C   0  0  0  0  0  0  0  0  0  0  0  0
   -1.4200   -1.7700    0.0000 C   0  0  0  0  0  0  0  0  0  0  0  0
    1.1800   -1.7700    0.0000 C   0  0  0  0  0  0  0  0  0  0  0  0
   -1.4200    1.2300    0.0000 C   0  0  0  0  0  0  0  0  0  0  0  0
    1.1800    1.2300    0.0000 C   0  0  0  0  0  0  0  0  0  0  0  0
   -0.1200   -1.0200    0.0000 C   0  0  0  0  0  0  0  0  0  0  0  0
   -0.1200    0.4800    0.0000 C   0  0  0  0  0  0  0  0  0  0  0  0
  3  2  2  0
  5  4  1  0
  6  2  1  0
  7  4  2  0
  8  3  1  0
  9  1  1  0
  9  5  2  0
 10  6  2  0
 10  7  1  0
 11  8  2  0
 11  9  1  0
 11 10  1  0
M  END
>  <NAME>  (3802) 
1-METHYLNAPHTHALENE

>  <SYNONYMS>  (3802) 


>  <SPECTRUM TYPE>  (3802) 
MS1

>  <INSTRUMENT TYPE>  (3802) 
EI-B

>  <INSTRUMENT>  (3802) 
HITACHI RMU-7M

>  <ION MODE>  (3802) 
P

>  <INCHIKEY>  (3802) 
QPUYECUOLPXSFR-UHFFFAOYSA-N

>  <FORMULA>  (3802) 
C11H10

>  <EXACT MASS>  (3802) 
142.07825032

>  <MW>  (3802) 
142

>  <ID>  (3802) 
JP006790

>  <CONTRIBUTOR>  (3802) 
University of Tokyo Team, {Faculty of Engineering, University of Tokyo

>  <COMMENT>  (3802) 
SMILES=Cc(c1)c(c2)c(ccc2)cc1
InChI=InChI=1S/C11H10/c1-9-5-4-7-10-6-2-3-8-11(9)10/h2-8H,1H3
computed SMILES=C=1C=CC2=C(C1)C=CC=C2C
accession=JP006790
date=2016.01.19 (Created 2008.10.21, modified 2011.05.06)
author=TAJIMA S, GUNMA COLLEGE OF TECHNOLOGY
license=CC BY-NC-SA
exact mass=142.07825
ionization energy=70 eV
ion type=[M]+*
computed spectral entropy=2.2228673969170987
computed normalized entropy=0.6670861257552955
SPLASH=splash10-0006-2900000000-56264ce7fb87f61d59e3
submitter=submitter = University of Tokyo Team (Faculty of Engineering, University of Tokyo)
MoNA Rating=3.75

>  <NUM PEAKS>  (3802) 
28

>  <MASS SPECTRAL PEAKS>  (3802) 
27 1.56
39 4.13
50 2.7
51 3.41
57.5 5.55
58 1.28
62 2.49
63 5.69
69 1.85
69.5 3.13
70 3.56
70.5 4.05
71 6.83
74 2.28
75 2.13
77 1.35
86 1.21
87 1.71
89 3.13
91 1.35
113 1.49
115 20.63
116 2.2
139 8.39
140 4.69
141 69.35
142 99.99
143 11.45

$$$$

     RDKit          2D

 12 13  0  0  0  0  0  0  0  0999 V2000
    3.2476   -0.0550    0.0000 C   0  0  0  0  0  0  0  0  0  0  0  0
   -3.2476    3.6950    0.0000 C   0  0  0  0  0  0  0  0  0  0  0  0
    3.2481    1.4458    0.0000 C   0  0  0  0  0  0  0  0  0  0  0  0
    1.9481   -0.8058    0.0000 C   0  0  0  0  0  0  0  0  0  0  0  0
   -3.2481    2.1942    0.0000 C   0  0  0  0  0  0  0  0  0  0  0  0
   -1.9481    4.4458    0.0000 C   0  0  0  0  0  0  0  0  0  0  0  0
    1.9490    2.1958    0.0000 C   0  0  0  0  0  0  0  0  0  0  0  0
    0.6490   -0.0558    0.0000 C   0  0  0  0  0  0  0  0  0  0  0  0
   -1.9490    1.4442    0.0000 C   0  0  0  0  0  0  0  0  0  0  0  0
   -0.6490    3.6958    0.0000 C   0  0  0  0  0  0  0  0  0  0  0  0
    0.6495    1.4450    0.0000 C   0  0  0  0  0  0  0  0  0  0  0  0
   -0.6495    2.1950    0.0000 C   0  0  0  0  0  0  0  0  0  0  0  0
  3  1  2  0
  4  1  1  0
  5  2  2  0
  6  2  1  0
  7  3  1  0
  8  4  2  0
  9  5  1  0
 10  6  2  0
 11  7  2  0
 11  8  1  0
 12  9  2  0
 12 10  1  0
 12 11  1  0
M  END
>  <NAME>  (3803) 
BIPHENYL

>  <SYNONYMS>  (3803) 


>  <SPECTRUM TYPE>  (3803) 
MS1

>  <INSTRUMENT TYPE>  (3803) 
EI-B

>  <INSTRUMENT>  (3803) 
HITACHI RMU-7M

>  <ION MODE>  (3803) 
P

>  <INCHIKEY>  (3803) 
ZUOUZKKEUPVFJK-UHFFFAOYSA-N

>  <FORMULA>  (3803) 
C12H10

>  <EXACT MASS>  (3803) 
154.07825032

>  <MW>  (3803) 
154

>  <ID>  (3803) 
JP006789

>  <CONTRIBUTOR>  (3803) 
University of Tokyo Team, {Faculty of Engineering, University of Tokyo

>  <COMMENT>  (3803) 
SMILES=c(c2)ccc(c2)c(c1)cccc1
InChI=InChI=1S/C12H10/c1-3-7-11(8-4-1)12-9-5-2-6-10-12/h1-10H
computed SMILES=C=1C=CC(=CC1)C=2C=CC=CC2
accession=JP006789
date=2016.01.19 (Created 2008.10.21, modified 2011.05.06)
author=TAJIMA S, GUNMA COLLEGE OF TECHNOLOGY
license=CC BY-NC-SA
exact mass=154.07825
ionization energy=70 eV
ion type=[M]+*
computed spectral entropy=2.088709260093146
computed normalized entropy=0.6572290375158516
SPLASH=splash10-0udi-1900000000-4ed186df67a09ce0650f
submitter=submitter = University of Tokyo Team (Faculty of Engineering, University of Tokyo)
MoNA Rating=3.75

>  <NUM PEAKS>  (3803) 
24

>  <MASS SPECTRAL PEAKS>  (3803) 
39 1.52
50 1.72
51 4.01
63 3.4
64 3.6
74 1.27
75 1.77
75.5 1.01
76 12.37
76.5 1.77
77 5.32
89 1.01
102 1.62
115 3.14
126 1.72
127 2.03
128 2.33
139 1.47
150 1.77
151 6.29
152 22.62
153 35.29
154 99.99
155 12.63

$$$$

     RDKit          2D

  9  9  0  0  0  0  0  0  0  0999 V2000
    4.8270    1.2906    0.0000 C   0  0  0  0  0  0  0  0  0  0  0  0
    3.5281    0.5404    0.0000 C   0  0  0  0  0  0  0  0  0  0  0  0
   -1.6700   -0.9600    0.0000 C   0  0  0  0  0  0  0  0  0  0  0  0
   -1.6700    0.5400    0.0000 C   0  0  0  0  0  0  0  0  0  0  0  0
   -0.3700   -1.7100    0.0000 C   0  0  0  0  0  0  0  0  0  0  0  0
   -0.3700    1.2900    0.0000 C   0  0  0  0  0  0  0  0  0  0  0  0
    0.9300   -0.9600    0.0000 C   0  0  0  0  0  0  0  0  0  0  0  0
    0.9300    0.5400    0.0000 C   0  0  0  0  0  0  0  0  0  0  0  0
    2.2289    1.2902    0.0000 O   0  0  0  0  0  0  0  0  0  0  0  0
  2  1  2  0
  4  3  2  0
  5  3  1  0
  6  4  1  0
  7  5  2  0
  8  6  2  0
  8  7  1  0
  9  2  1  0
  9  8  1  0
M  END
>  <NAME>  (3804) 
PHENYL VINYL ETHER

>  <SYNONYMS>  (3804) 
PHENOXYETHYLENE

>  <SPECTRUM TYPE>  (3804) 
MS1

>  <INSTRUMENT TYPE>  (3804) 
EI-B

>  <INSTRUMENT>  (3804) 
HITACHI RMU-7M

>  <ION MODE>  (3804) 
P

>  <INCHIKEY>  (3804) 
NHOGGUYTANYCGQ-UHFFFAOYSA-N

>  <FORMULA>  (3804) 
C8H8O

>  <EXACT MASS>  (3804) 
120.057514876

>  <MW>  (3804) 
120

>  <ID>  (3804) 
JP006788

>  <CONTRIBUTOR>  (3804) 
University of Tokyo Team, {Faculty of Engineering, University of Tokyo

>  <COMMENT>  (3804) 
SMILES=C=COc(c1)cccc1
InChI=InChI=1S/C8H8O/c1-2-9-8-6-4-3-5-7-8/h2-7H,1H2
computed SMILES=O(C=C)C=1C=CC=CC1
accession=JP006788
date=2016.01.19 (Created 2008.10.21, modified 2011.05.06)
author=TAJIMA S, GUNMA COLLEGE OF TECHNOLOGY
license=CC BY-NC-SA
exact mass=120.05751
ionization energy=70 eV
ion type=[M]+*
computed spectral entropy=2.3730854079158226
computed normalized entropy=0.7372404333158737
SPLASH=splash10-00dl-9500000000-40b99be09dfa7c1a0720
submitter=submitter = University of Tokyo Team (Faculty of Engineering, University of Tokyo)
MoNA Rating=3.75

>  <NUM PEAKS>  (3804) 
25

>  <MASS SPECTRAL PEAKS>  (3804) 
26 1.02
27 5.63
38 2.1
39 10.23
40 2.71
46 1.59
50 4.65
51 15.45
52 1.23
55 3.68
63 3.48
65 10.54
66 9.82
74 1.33
76 1.28
77 19.34
78 2.66
91 63.12
92 8.18
93 1.28
94 31.1
95 2.05
119 12.79
120 99.99
121 9.31

$$$$

     RDKit          2D

 17 18  0  0  0  0  0  0  0  0999 V2000
    3.2481    2.1950    0.0000 C   0  0  0  0  0  0  0  0  0  0  0  0
   -7.1442    2.1950    0.0000 C   0  0  0  0  0  0  0  0  0  0  0  0
    3.2486    3.6958    0.0000 C   0  0  0  0  0  0  0  0  0  0  0  0
    1.9486    1.4442    0.0000 C   0  0  0  0  0  0  0  0  0  0  0  0
   -5.8447    1.4442    0.0000 C   0  0  0  0  0  0  0  0  0  0  0  0
   -7.1447    3.6958    0.0000 C   0  0  0  0  0  0  0  0  0  0  0  0
    1.9495    4.4458    0.0000 C   0  0  0  0  0  0  0  0  0  0  0  0
    0.6495    2.1942    0.0000 C   0  0  0  0  0  0  0  0  0  0  0  0
   -4.5457    2.1942    0.0000 C   0  0  0  0  0  0  0  0  0  0  0  0
   -5.8457    4.4458    0.0000 C   0  0  0  0  0  0  0  0  0  0  0  0
   -1.9481    3.6950    0.0000 C   0  0  0  0  0  0  0  0  0  0  0  0
    0.6500    3.6950    0.0000 C   0  0  0  0  0  0  0  0  0  0  0  0
   -4.5462    3.6950    0.0000 C   0  0  0  0  0  0  0  0  0  0  0  0
   -0.6490    4.4450    0.0000 C   0  0  0  0  0  0  0  0  0  0  0  0
   -3.2471    4.4450    0.0000 C   0  0  0  0  0  0  0  0  0  0  0  0
   -0.6490    5.9450    0.0000 O   0  0  0  0  0  0  0  0  0  0  0  0
   -3.2471    5.9450    0.0000 O   0  0  0  0  0  0  0  0  0  0  0  0
  3  1  2  0
  4  1  1  0
  5  2  2  0
  6  2  1  0
  7  3  1  0
  8  4  2  0
  9  5  1  0
 10  6  2  0
 12  7  2  0
 12  8  1  0
 13  9  2  0
 13 10  1  0
 14 11  1  0
 14 12  1  0
 15 11  1  0
 15 13  1  0
 16 14  2  0
 17 15  2  0
M  END
>  <NAME>  (3805) 
DIBENZOYLMETHANE

>  <SYNONYMS>  (3805) 
1,3-DIPHENYL-1,3-PROPANDIONE

>  <SPECTRUM TYPE>  (3805) 
MS1

>  <INSTRUMENT TYPE>  (3805) 
EI-B

>  <INSTRUMENT>  (3805) 
HITACHI RMU-7M

>  <ION MODE>  (3805) 
P

>  <INCHIKEY>  (3805) 
NZZIMKJIVMHWJC-UHFFFAOYSA-N

>  <FORMULA>  (3805) 
C15H12O2

>  <EXACT MASS>  (3805) 
224.083729624

>  <MW>  (3805) 
224

>  <ID>  (3805) 
JP006787

>  <CONTRIBUTOR>  (3805) 
University of Tokyo Team, {Faculty of Engineering, University of Tokyo

>  <COMMENT>  (3805) 
SMILES=O=C(CC(=O)c(c2)cccc2)c(c1)cccc1
InChI=InChI=1S/C15H12O2/c16-14(12-7-3-1-4-8-12)11-15(17)13-9-5-2-6-10-13/h1-10H,11H2
computed SMILES=O=C(C=1C=CC=CC1)CC(=O)C=2C=CC=CC2
accession=JP006787
date=2016.01.19 (Created 2008.10.21, modified 2011.05.06)
author=TAJIMA S, GUNMA COLLEGE OF TECHNOLOGY
license=CC BY-NC-SA
exact mass=224.08373
ionization energy=70 eV
ion type=[M]+*
computed spectral entropy=2.525170264460326
computed normalized entropy=0.7424356722356062
SPLASH=splash10-05i0-9870000000-2b6cb690ca482b354165
submitter=submitter = University of Tokyo Team (Faculty of Engineering, University of Tokyo)
MoNA Rating=3.75

>  <NUM PEAKS>  (3805) 
30

>  <MASS SPECTRAL PEAKS>  (3805) 
27 1.42
39 4.31
43 2.95
50 5.54
51 21.54
52 2.4
63 2.46
65 5.42
69 51.75
70 1.85
76 4.62
77 68.31
78 8.98
89 4
91 4.31
103 2.77
105 99.99
106 8
121 2.77
122 4.92
147 45.05
148 4.55
162 2.34
195 1.11
196 1.23
207 2.58
208 1.85
223 72.92
224 70.65
225 11.08

$$$$

     RDKit          2D

  6  6  0  0  0  0  0  0  0  0999 V2000
   -1.3000    0.7500    0.0000 C   0  0  0  0  0  0  0  0  0  0  0  0
    0.0000    1.5000    0.0000 C   0  0  0  0  0  0  0  0  0  0  0  0
   -1.3000   -0.7500    0.0000 C   0  0  0  0  0  0  0  0  0  0  0  0
    1.3000    0.7500    0.0000 C   0  0  0  0  0  0  0  0  0  0  0  0
   -0.0000   -1.5000    0.0000 C   0  0  0  0  0  0  0  0  0  0  0  0
    1.3000   -0.7500    0.0000 C   0  0  0  0  0  0  0  0  0  0  0  0
  2  1  2  0
  3  1  1  0
  4  2  1  0
  5  3  1  0
  6  4  1  0
  6  5  1  0
M  END
>  <NAME>  (3806) 
CYCLOHEXENE

>  <SYNONYMS>  (3806) 


>  <SPECTRUM TYPE>  (3806) 
MS1

>  <INSTRUMENT TYPE>  (3806) 
EI-B

>  <INSTRUMENT>  (3806) 
HITACHI RMU-7M

>  <ION MODE>  (3806) 
P

>  <INCHIKEY>  (3806) 
HGCIXCUEYOPUTN-UHFFFAOYSA-N

>  <FORMULA>  (3806) 
C6H10

>  <EXACT MASS>  (3806) 
82.07825032

>  <MW>  (3806) 
82

>  <ID>  (3806) 
JP006786

>  <CONTRIBUTOR>  (3806) 
University of Tokyo Team, {Faculty of Engineering, University of Tokyo

>  <COMMENT>  (3806) 
SMILES=C(C1)CC=CC1
InChI=InChI=1S/C6H10/c1-2-4-6-5-3-1/h1-2H,3-6H2
computed SMILES=C1=CCCCC1
accession=JP006786
date=2016.01.19 (Created 2008.10.21, modified 2011.05.06)
author=TAJIMA S, GUNMA COLLEGE OF TECHNOLOGY
license=CC BY-NC-SA
exact mass=82.07825
ionization energy=70 eV
ion type=[M]+*
computed spectral entropy=2.3053328472581947
computed normalized entropy=0.7253913779697677
SPLASH=splash10-014i-9000000000-495741c6e5113617b1cb
submitter=submitter = University of Tokyo Team (Faculty of Engineering, University of Tokyo)
MoNA Rating=3.75

>  <NUM PEAKS>  (3806) 
24

>  <MASS SPECTRAL PEAKS>  (3806) 
26 2.03
27 11.71
28 3.42
29 1.74
38 2.03
39 20.93
40 2.9
41 22.55
42 1.91
50 2.9
51 4.35
52 2.32
53 7.07
54 46.72
55 3.42
65 2.26
66 1.51
67 99.99
68 6.03
77 2.84
79 4
81 7.42
82 30.14
83 2.02

$$$$

     RDKit          2D

  9  8  0  0  0  0  0  0  0  0999 V2000
    1.9931    3.2978    0.0000 C   0  0  0  0  0  0  0  0  0  0  0  0
   -5.8011    3.2978    0.0000 C   0  0  0  0  0  0  0  0  0  0  0  0
   -0.9398    5.1969    0.0000 C   0  0  0  0  0  0  0  0  0  0  0  0
   -2.8682    5.1969    0.0000 C   0  0  0  0  0  0  0  0  0  0  0  0
    0.6941    4.0478    0.0000 C   0  0  0  0  0  0  0  0  0  0  0  0
   -4.5021    4.0478    0.0000 C   0  0  0  0  0  0  0  0  0  0  0  0
   -1.9040    4.0478    0.0000 C   0  0  0  0  0  0  0  0  0  0  0  0
   -0.6050    3.2978    0.0000 O   0  0  0  0  0  0  0  0  0  0  0  0
   -3.2031    3.2978    0.0000 O   0  0  0  0  0  0  0  0  0  0  0  0
  5  1  1  0
  6  2  1  0
  7  3  1  0
  7  4  1  0
  8  5  1  0
  8  7  1  0
  9  6  1  0
  9  7  1  0
M  END
>  <NAME>  (3807) 
2,2-DIETHOXYPROPANE

>  <SYNONYMS>  (3807) 
ACETONE DIETHYLACETAL

>  <SPECTRUM TYPE>  (3807) 
MS1

>  <INSTRUMENT TYPE>  (3807) 
EI-B

>  <INSTRUMENT>  (3807) 
HITACHI RMU-7M

>  <ION MODE>  (3807) 
P

>  <INCHIKEY>  (3807) 
FGQLGYBGTRHODR-UHFFFAOYSA-N

>  <FORMULA>  (3807) 
C7H16O2

>  <EXACT MASS>  (3807) 
132.115029752

>  <MW>  (3807) 
132

>  <ID>  (3807) 
JP006785

>  <CONTRIBUTOR>  (3807) 
University of Tokyo Team, {Faculty of Engineering, University of Tokyo

>  <COMMENT>  (3807) 
SMILES=CCOC(C)(C)OCC
InChI=InChI=1S/C7H16O2/c1-5-8-7(3,4)9-6-2/h5-6H2,1-4H3
computed SMILES=O(CC)C(OCC)(C)C
accession=JP006785
date=2016.01.19 (Created 2008.10.21, modified 2011.05.06)
author=TAJIMA S, GUNMA COLLEGE OF TECHNOLOGY
license=CC BY-NC-SA
exact mass=132.11503
ionization energy=70 eV
ion type=[M]+*
computed spectral entropy=2.203128249814801
computed normalized entropy=0.7236367262453863
SPLASH=splash10-0a4r-9000000000-1e0bcac34005f2f15a14
submitter=submitter = University of Tokyo Team (Faculty of Engineering, University of Tokyo)
MoNA Rating=3.75

>  <NUM PEAKS>  (3807) 
21

>  <MASS SPECTRAL PEAKS>  (3807) 
15 3.09
27 5.68
28 8.02
29 9.79
31 11.36
39 2.4
41 5.87
42 2.53
43 24.31
44 1.89
45 3.79
58 5.68
59 99.99
60 3.66
61 21.46
77 1.26
87 55.87
88 3.16
89 4.42
112 1.26
117 5.05

$$$$

     RDKit          2D

  6  6  0  0  0  0  0  0  0  0999 V2000
    1.3000    0.7500    0.0000 C   0  0  0  0  0  0  0  0  0  0  0  0
    1.3000   -0.7500    0.0000 C   0  0  0  0  0  0  0  0  0  0  0  0
   -1.3000    0.7500    0.0000 C   0  0  0  0  0  0  0  0  0  0  0  0
   -1.3000   -0.7500    0.0000 C   0  0  0  0  0  0  0  0  0  0  0  0
    0.0000    1.5000    0.0000 O   0  0  0  0  0  0  0  0  0  0  0  0
   -0.0000   -1.5000    0.0000 O   0  0  0  0  0  0  0  0  0  0  0  0
  2  1  1  0
  4  3  1  0
  5  1  1  0
  5  3  1  0
  6  2  1  0
  6  4  1  0
M  END
>  <NAME>  (3808) 
1,4-DIOXANE

>  <SYNONYMS>  (3808) 


>  <SPECTRUM TYPE>  (3808) 
MS1

>  <INSTRUMENT TYPE>  (3808) 
EI-B

>  <INSTRUMENT>  (3808) 
HITACHI RMU-7M

>  <ION MODE>  (3808) 
P

>  <INCHIKEY>  (3808) 
RYHBNJHYFVUHQT-UHFFFAOYSA-N

>  <FORMULA>  (3808) 
C4H8O2

>  <EXACT MASS>  (3808) 
88.052429496

>  <MW>  (3808) 
88

>  <ID>  (3808) 
JP006784

>  <CONTRIBUTOR>  (3808) 
University of Tokyo Team, {Faculty of Engineering, University of Tokyo

>  <COMMENT>  (3808) 
SMILES=C(C1)OCCO1
InChI=InChI=1S/C4H8O2/c1-2-6-4-3-5-1/h1-4H2
computed SMILES=O1CCOCC1
accession=JP006784
date=2016.01.19 (Created 2008.10.21, modified 2011.05.06)
author=TAJIMA S, GUNMA COLLEGE OF TECHNOLOGY
license=CC BY-NC-SA
exact mass=88.05243
ionization energy=70 eV
ion type=[M]+*
computed spectral entropy=2.2813689849433456
computed normalized entropy=0.789299500561098
SPLASH=splash10-0570-9000000000-fdad6aa284c3554c651b
submitter=submitter = University of Tokyo Team (Faculty of Engineering, University of Tokyo)
MoNA Rating=3.75

>  <NUM PEAKS>  (3808) 
18

>  <MASS SPECTRAL PEAKS>  (3808) 
14 1.31
15 10.69
26 4.88
27 9.8
28 99.99
29 26.36
30 14.54
31 17.35
42 1.41
43 14.02
44 6.94
45 11.77
57 12.52
58 52.63
59 2.35
87 5.72
88 78.89
89 6.71

$$$$

     RDKit          2D

  9  9  0  0  0  0  0  0  0  0999 V2000
  -10.4600    6.3600    0.0000 C   0  0  0  0  0  0  0  0  0  0  0  0
  -11.3400    5.1500    0.0000 C   0  0  0  0  0  0  0  0  0  0  0  0
   -9.0300    5.9000    0.0000 C   0  0  0  0  0  0  0  0  0  0  0  0
  -10.4600    3.9300    0.0000 C   0  0  0  0  0  0  0  0  0  0  0  0
   -7.6000    6.3600    0.0000 C   0  0  0  0  0  0  0  0  0  0  0  0
   -9.0300    4.4000    0.0000 C   0  0  0  0  0  0  0  0  0  0  0  0
   -6.7200    5.1500    0.0000 C   0  0  0  0  0  0  0  0  0  0  0  0
   -7.6000    3.9300    0.0000 C   0  0  0  0  0  0  0  0  0  0  0  0
   -7.1364    2.5034    0.0000 O   0  0  0  0  0  0  0  0  0  0  0  0
  2  1  1  0
  3  1  1  0
  4  2  1  0
  5  3  1  0
  6  4  1  0
  7  5  1  0
  8  6  1  0
  8  7  1  0
  9  8  1  0
M  END
>  <NAME>  (3809) 
CYCLOOCTANOL

>  <SYNONYMS>  (3809) 


>  <SPECTRUM TYPE>  (3809) 
MS1

>  <INSTRUMENT TYPE>  (3809) 
EI-B

>  <INSTRUMENT>  (3809) 
HITACHI RMU-7M

>  <ION MODE>  (3809) 
P

>  <INCHIKEY>  (3809) 
FHADSMKORVFYOS-UHFFFAOYSA-N

>  <FORMULA>  (3809) 
C8H16O

>  <EXACT MASS>  (3809) 
128.120115132

>  <MW>  (3809) 
128

>  <ID>  (3809) 
JP006783

>  <CONTRIBUTOR>  (3809) 
University of Tokyo Team, {Faculty of Engineering, University of Tokyo

>  <COMMENT>  (3809) 
SMILES=OC(C1)CCCCCC1
InChI=InChI=1S/C8H16O/c9-8-6-4-2-1-3-5-7-8/h8-9H,1-7H2
computed SMILES=OC1CCCCCCC1
accession=JP006783
date=2016.01.19 (Created 2008.10.21, modified 2011.05.06)
author=TAJIMA S, GUNMA COLLEGE OF TECHNOLOGY
license=CC BY-NC-SA
exact mass=128.12012
ionization energy=70 eV
ion type=[M]+*
computed spectral entropy=3.2045913850341927
computed normalized entropy=0.8747202025164963
SPLASH=splash10-0apl-9000000000-6e5c1a37e2b6a2fa873e
submitter=submitter = University of Tokyo Team (Faculty of Engineering, University of Tokyo)
MoNA Rating=3.75

>  <NUM PEAKS>  (3809) 
39

>  <MASS SPECTRAL PEAKS>  (3809) 
15 1.64
27 18.07
28 4.42
29 21.5
31 8.18
39 17.09
40 3.52
41 47.67
42 19.46
43 30.09
44 25.51
45 6.7
53 5.31
54 19.54
55 32.3
56 22.08
57 99.99
58 8.99
66 8.18
67 42.11
68 42.52
69 25.1
70 3.68
71 9.73
72 4.42
81 32.3
82 34.26
83 4.09
84 7.03
85 7.77
86 2.04
95 11.86
99 4.09
109 2.62
110 8.18
111 19.54
112 1.64
127 2.21
128 1

$$$$

     RDKit          2D

  8  8  0  0  0  0  0  0  0  0999 V2000
    0.0000    1.5000    0.0000 C   0  0  0  0  0  0  0  0  0  0  0  0
    0.0000    0.0000    0.0000 C   0  0  0  0  0  0  0  0  0  0  0  0
   -1.1727    2.4352    0.0000 C   0  0  0  0  0  0  0  0  0  0  0  0
   -1.1727   -0.9352    0.0000 C   0  0  0  0  0  0  0  0  0  0  0  0
   -2.6351    2.1015    0.0000 C   0  0  0  0  0  0  0  0  0  0  0  0
   -2.6351   -0.6015    0.0000 C   0  0  0  0  0  0  0  0  0  0  0  0
   -3.2860    0.7500    0.0000 C   0  0  0  0  0  0  0  0  0  0  0  0
   -4.7860    0.7500    0.0000 O   0  0  0  0  0  0  0  0  0  0  0  0
  2  1  1  0
  3  1  1  0
  4  2  1  0
  5  3  1  0
  6  4  1  0
  7  5  1  0
  7  6  1  0
  8  7  1  0
M  END
>  <NAME>  (3810) 
CYCLOHEPTANOL

>  <SYNONYMS>  (3810) 


>  <SPECTRUM TYPE>  (3810) 
MS1

>  <INSTRUMENT TYPE>  (3810) 
EI-B

>  <INSTRUMENT>  (3810) 
HITACHI RMU-7M

>  <ION MODE>  (3810) 
P

>  <INCHIKEY>  (3810) 
QCRFMSUKWRQZEM-UHFFFAOYSA-N

>  <FORMULA>  (3810) 
C7H14O

>  <EXACT MASS>  (3810) 
114.104465068

>  <MW>  (3810) 
114

>  <ID>  (3810) 
JP006782

>  <CONTRIBUTOR>  (3810) 
University of Tokyo Team, {Faculty of Engineering, University of Tokyo

>  <COMMENT>  (3810) 
SMILES=OC(C1)CCCCC1
InChI=InChI=1S/C7H14O/c8-7-5-3-1-2-4-6-7/h7-8H,1-6H2
computed SMILES=OC1CCCCCC1
accession=JP006782
date=2016.01.19 (Created 2008.10.21, modified 2011.05.06)
author=TAJIMA S, GUNMA COLLEGE OF TECHNOLOGY
license=CC BY-NC-SA
exact mass=114.10447
ionization energy=70 eV
ion type=[M]+*
computed spectral entropy=3.022273439179277
computed normalized entropy=0.8500640125549846
SPLASH=splash10-0a4l-9000000000-f5265d6a96f43121a36b
submitter=submitter = University of Tokyo Team (Faculty of Engineering, University of Tokyo)
MoNA Rating=3.75

>  <NUM PEAKS>  (3810) 
35

>  <MASS SPECTRAL PEAKS>  (3810) 
15 1.29
27 17.01
28 4.9
29 21.39
31 7.73
39 16.04
40 3.54
41 33.38
42 18.62
43 15.46
44 25.19
45 5.54
53 4.64
54 13.85
55 24.61
56 3.93
57 99.99
58 8.7
66 2.64
67 19.27
68 33.83
69 3.74
70 12.44
71 14.18
72 5.48
81 36.47
82 2.77
83 2.45
85 5.09
86 3.35
95 2.71
96 15.72
97 2.51
113 1.03
114 1.22

$$$$

     RDKit          2D

  8  8  0  0  0  0  0  0  0  0999 V2000
  -10.4600    6.3600    0.0000 C   0  0  0  0  0  0  0  0  0  0  0  0
  -11.3400    5.1500    0.0000 C   0  0  0  0  0  0  0  0  0  0  0  0
   -9.0300    5.9000    0.0000 C   0  0  0  0  0  0  0  0  0  0  0  0
  -10.4600    3.9300    0.0000 C   0  0  0  0  0  0  0  0  0  0  0  0
   -7.6000    6.3600    0.0000 C   0  0  0  0  0  0  0  0  0  0  0  0
   -9.0300    4.4000    0.0000 C   0  0  0  0  0  0  0  0  0  0  0  0
   -6.7200    5.1500    0.0000 C   0  0  0  0  0  0  0  0  0  0  0  0
   -7.6000    3.9300    0.0000 C   0  0  0  0  0  0  0  0  0  0  0  0
  1  2  2  0
  3  1  1  0
  4  2  1  0
  5  3  1  0
  6  4  1  0
  7  5  1  0
  8  6  1  0
  8  7  1  0
M  END
>  <NAME>  (3811) 
CYCLOOCTENE

>  <SYNONYMS>  (3811) 


>  <SPECTRUM TYPE>  (3811) 
MS1

>  <INSTRUMENT TYPE>  (3811) 
EI-B

>  <INSTRUMENT>  (3811) 
HITACHI RMU-7M

>  <ION MODE>  (3811) 
P

>  <INCHIKEY>  (3811) 
URYYVOIYTNXXBN-UPHRSURJSA-N

>  <FORMULA>  (3811) 
C8H14

>  <EXACT MASS>  (3811) 
110.109550448

>  <MW>  (3811) 
110

>  <ID>  (3811) 
JP006781

>  <CONTRIBUTOR>  (3811) 
University of Tokyo Team, {Faculty of Engineering, University of Tokyo

>  <COMMENT>  (3811) 
SMILES=C(C1)CCC=CCC1
InChI=InChI=1S/C8H14/c1-2-4-6-8-7-5-3-1/h1-2H,3-8H2/b2-1-
computed SMILES=C1=CCCCCCC1
accession=JP006781
date=2016.01.19 (Created 2008.10.21, modified 2011.05.06)
author=TAJIMA S, GUNMA COLLEGE OF TECHNOLOGY
license=CC BY-NC-SA
exact mass=110.10955
ionization energy=70 eV
ion type=[M]+*
computed spectral entropy=2.7446297510150823
computed normalized entropy=0.7919327461731539
SPLASH=splash10-0159-9000000000-51f21957f9c9187bcd72
submitter=submitter = University of Tokyo Team (Faculty of Engineering, University of Tokyo)
MoNA Rating=3.75

>  <NUM PEAKS>  (3811) 
32

>  <MASS SPECTRAL PEAKS>  (3811) 
27 6.32
28 1.18
29 4.09
39 16.45
40 3.18
41 43.64
42 4.45
43 2.73
51 2.64
52 1.5
53 10
54 72.95
55 20.45
56 9.55
65 3.68
66 5
67 99.99
68 38.73
69 17.45
70 2.68
77 3.36
79 6.23
80 3
81 50.86
82 65.59
83 5.68
91 1.36
95 19.45
109 1.14
110 43.64
111 3.86
112 1.45

$$$$

     RDKit          2D

  5  5  0  0  0  0  0  0  0  0999 V2000
    1.2100    0.3900    0.0000 C   0  0  0  0  0  0  0  0  0  0  0  0
    0.0000    1.2800    0.0000 C   0  0  0  0  0  0  0  0  0  0  0  0
    0.7500   -1.0300    0.0000 C   0  0  0  0  0  0  0  0  0  0  0  0
   -1.2100    0.3900    0.0000 C   0  0  0  0  0  0  0  0  0  0  0  0
   -0.7500   -1.0300    0.0000 C   0  0  0  0  0  0  0  0  0  0  0  0
  2  1  2  0
  3  1  1  0
  4  2  1  0
  5  3  1  0
  5  4  1  0
M  END
>  <NAME>  (3812) 
CYCLOPENTENE

>  <SYNONYMS>  (3812) 


>  <SPECTRUM TYPE>  (3812) 
MS1

>  <INSTRUMENT TYPE>  (3812) 
EI-B

>  <INSTRUMENT>  (3812) 
HITACHI RMU-7M

>  <ION MODE>  (3812) 
P

>  <INCHIKEY>  (3812) 
LPIQUOYDBNQMRZ-UHFFFAOYSA-N

>  <FORMULA>  (3812) 
C5H8

>  <EXACT MASS>  (3812) 
68.062600256

>  <MW>  (3812) 
68

>  <ID>  (3812) 
JP006780

>  <CONTRIBUTOR>  (3812) 
University of Tokyo Team, {Faculty of Engineering, University of Tokyo

>  <COMMENT>  (3812) 
SMILES=C(C1)CC=C1
InChI=InChI=1S/C5H8/c1-2-4-5-3-1/h1-2H,3-5H2
computed SMILES=C1=CCCC1
accession=JP006780
date=2016.01.19 (Created 2008.10.21, modified 2011.05.06)
author=TAJIMA S, GUNMA COLLEGE OF TECHNOLOGY
license=CC BY-NC-SA
exact mass=68.0626
ionization energy=70 eV
ion type=[M]+*
computed spectral entropy=2.1772512193702913
computed normalized entropy=0.7043744148530795
SPLASH=splash10-014i-9000000000-a8e41ee1d13e3280462f
submitter=submitter = University of Tokyo Team (Faculty of Engineering, University of Tokyo)
MoNA Rating=3.75

>  <NUM PEAKS>  (3812) 
22

>  <MASS SPECTRAL PEAKS>  (3812) 
26 1.26
27 7.05
28 2.73
31 1.26
37 1.66
38 3.99
39 22.21
40 12.5
41 15.09
42 7.45
43 3.32
50 1.4
51 1.93
53 19.55
57 1.53
62 1.33
63 1.93
65 5.65
66 4.45
67 99.99
68 43.09
69 2.26

$$$$

     RDKit          2D

  7  7  0  0  0  0  0  0  0  0999 V2000
   -1.6700   -0.9600    0.0000 C   0  0  0  0  0  0  0  0  0  0  0  0
   -0.3700   -1.7100    0.0000 C   0  0  0  0  0  0  0  0  0  0  0  0
   -1.6700    0.5400    0.0000 C   0  0  0  0  0  0  0  0  0  0  0  0
    0.9300   -0.9600    0.0000 C   0  0  0  0  0  0  0  0  0  0  0  0
   -0.3700    1.2900    0.0000 C   0  0  0  0  0  0  0  0  0  0  0  0
    0.9300    0.5400    0.0000 C   0  0  0  0  0  0  0  0  0  0  0  0
    2.2289    1.2902    0.0000 S   0  0  0  0  0  0  0  0  0  0  0  0
  2  1  2  0
  3  1  1  0
  4  2  1  0
  5  3  2  0
  6  4  2  0
  6  5  1  0
  7  6  1  0
M  END
>  <NAME>  (3813) 
BENZENETHIOL

>  <SYNONYMS>  (3813) 
THIOPHENOL

>  <SPECTRUM TYPE>  (3813) 
MS1

>  <INSTRUMENT TYPE>  (3813) 
EI-B

>  <INSTRUMENT>  (3813) 
HITACHI RMU-7M

>  <ION MODE>  (3813) 
P

>  <INCHIKEY>  (3813) 
RMVRSNDYEFQCLF-UHFFFAOYSA-N

>  <FORMULA>  (3813) 
C6H6S

>  <EXACT MASS>  (3813) 
110.019021192

>  <MW>  (3813) 
110

>  <ID>  (3813) 
JP006779

>  <CONTRIBUTOR>  (3813) 
University of Tokyo Team, {Faculty of Engineering, University of Tokyo

>  <COMMENT>  (3813) 
SMILES=Sc(c1)cccc1
InChI=InChI=1S/C6H6S/c7-6-4-2-1-3-5-6/h1-5,7H
computed SMILES=SC=1C=CC=CC1
accession=JP006779
date=2016.01.19 (Created 2008.10.21, modified 2011.05.06)
author=TAJIMA S, GUNMA COLLEGE OF TECHNOLOGY
license=CC BY-NC-SA
exact mass=110.01902
ionization energy=70 eV
ion type=[M]+*
computed spectral entropy=2.2759222244375645
computed normalized entropy=0.7597215026620256
SPLASH=splash10-03di-8900000000-f00b12d067160b203ec9
submitter=submitter = University of Tokyo Team (Faculty of Engineering, University of Tokyo)
MoNA Rating=3.75

>  <NUM PEAKS>  (3813) 
20

>  <MASS SPECTRAL PEAKS>  (3813) 
37 1.75
38 2.63
39 9.65
45 6.2
50 6.26
51 9.82
55 2.75
57 1.75
58 2.98
63 2.63
65 10.64
66 33.92
69 7.6
77 11.58
84 14.56
108 2.46
109 22.11
110 99.99
111 8.25
112 4.62

$$$$

     RDKit          2D

  3  2  0  0  0  0  0  0  0  0999 V2000
   -1.2990    0.0000    0.0000 C   0  0  0  0  0  0  0  0  0  0  0  0
   -0.0000    0.7500    0.0000 C   0  0  0  0  0  0  0  0  0  0  0  0
    0.0000    2.2500    0.0000 O   0  0  0  0  0  0  0  0  0  0  0  0
  2  1  1  0
  3  2  1  0
M  END
>  <NAME>  (3814) 
ETHANOL

>  <SYNONYMS>  (3814) 


>  <SPECTRUM TYPE>  (3814) 
MS1

>  <INSTRUMENT TYPE>  (3814) 
EI-B

>  <INSTRUMENT>  (3814) 
HITACHI RMU-7M

>  <ION MODE>  (3814) 
P

>  <INCHIKEY>  (3814) 
LFQSCWFLJHTTHZ-UHFFFAOYSA-N

>  <FORMULA>  (3814) 
C2H6O

>  <EXACT MASS>  (3814) 
46.041864812

>  <MW>  (3814) 
46

>  <ID>  (3814) 
JP006778

>  <CONTRIBUTOR>  (3814) 
University of Tokyo Team, {Faculty of Engineering, University of Tokyo

>  <COMMENT>  (3814) 
SMILES=CCO
InChI=InChI=1S/C2H6O/c1-2-3/h3H,2H2,1H3
computed SMILES=OCC
accession=JP006778
date=2016.01.19 (Created 2008.10.21, modified 2011.05.06)
author=TAJIMA S, GUNMA COLLEGE OF TECHNOLOGY
license=CC BY-NC-SA
exact mass=46.04186
ionization energy=70 eV
ion type=[M]+*
computed spectral entropy=1.9052320446881732
computed normalized entropy=0.7035438426926945
SPLASH=splash10-001j-9000000000-a705823ce4aeba7f89e1
submitter=submitter = University of Tokyo Team (Faculty of Engineering, University of Tokyo)
MoNA Rating=3.75

>  <NUM PEAKS>  (3814) 
15

>  <MASS SPECTRAL PEAKS>  (3814) 
14 2.55
15 5.04
19 3.91
26 4.87
27 18.02
28 5.5
29 11.9
30 5.1
31 99.99
32 1
42 3
43 8.5
45 49.58
46 18.24
47 1.42

$$$$

     RDKit          2D

 15 15  0  0  0  0  0  0  0  0999 V2000
    3.1608    1.3943    0.0000 C   0  0  0  0  0  0  0  0  0  0  0  0
    3.1613    2.8952    0.0000 C   0  0  0  0  0  0  0  0  0  0  0  0
    1.8613    0.6435    0.0000 C   0  0  0  0  0  0  0  0  0  0  0  0
    1.8623    3.6452    0.0000 C   0  0  0  0  0  0  0  0  0  0  0  0
    0.5623    1.3935    0.0000 C   0  0  0  0  0  0  0  0  0  0  0  0
   -2.0353    2.8943    0.0000 C   0  0  0  0  0  0  0  0  0  0  0  0
    0.5627    2.8943    0.0000 C   0  0  0  0  0  0  0  0  0  0  0  0
   -0.7363    3.6443    0.0000 C   0  0  0  0  0  0  0  0  0  0  0  0
   -3.3344    3.6443    0.0000 C   0  0  0  0  0  0  0  0  0  0  0  0
   -4.6334    2.8943    0.0000 C   0  0  0  0  0  0  0  0  0  0  0  0
   -5.3834    4.1934    0.0000 F   0  0  0  0  0  0  0  0  0  0  0  0
   -5.9324    2.1443    0.0000 F   0  0  0  0  0  0  0  0  0  0  0  0
   -3.8834    1.5953    0.0000 F   0  0  0  0  0  0  0  0  0  0  0  0
   -0.7363    5.1443    0.0000 O   0  0  0  0  0  0  0  0  0  0  0  0
   -3.3344    5.1443    0.0000 O   0  0  0  0  0  0  0  0  0  0  0  0
  2  1  2  0
  3  1  1  0
  4  2  1  0
  5  3  2  0
  7  4  2  0
  7  5  1  0
  8  6  1  0
  8  7  1  0
  9  6  1  0
 10  9  1  0
 11 10  1  0
 12 10  1  0
 13 10  1  0
 14  8  2  0
 15  9  2  0
M  END
>  <NAME>  (3815) 
1,1,1-TRIFLUORO-4-PHENYL-2,4-BUTANEDIONE

>  <SYNONYMS>  (3815) 


>  <SPECTRUM TYPE>  (3815) 
MS1

>  <INSTRUMENT TYPE>  (3815) 
EI-B

>  <INSTRUMENT>  (3815) 
HITACHI RMU-7M

>  <ION MODE>  (3815) 
P

>  <INCHIKEY>  (3815) 
VVXLFFIFNVKFBD-UHFFFAOYSA-N

>  <FORMULA>  (3815) 
C10H7F3O2

>  <EXACT MASS>  (3815) 
216.039814124

>  <MW>  (3815) 
216

>  <ID>  (3815) 
JP006777

>  <CONTRIBUTOR>  (3815) 
University of Tokyo Team, {Faculty of Engineering, University of Tokyo

>  <COMMENT>  (3815) 
SMILES=O=C(CC(=O)C(F)(F)F)c(c1)cccc1
InChI=InChI=1S/C10H7F3O2/c11-10(12,13)9(15)6-8(14)7-4-2-1-3-5-7/h1-5H,6H2
computed SMILES=O=C(C=1C=CC=CC1)CC(=O)C(F)(F)F
accession=JP006777
date=2016.01.19 (Created 2008.10.21, modified 2011.05.06)
author=TAJIMA S, GUNMA COLLEGE OF TECHNOLOGY
license=CC BY-NC-SA
exact mass=216.03981
ionization energy=70 eV
ion type=[M]+*
computed spectral entropy=2.6445908583335207
computed normalized entropy=0.7438345873865423
SPLASH=splash10-014i-9510000000-4c1c830b0eb184475d49
submitter=submitter = University of Tokyo Team (Faculty of Engineering, University of Tokyo)
MoNA Rating=3.75

>  <NUM PEAKS>  (3815) 
35

>  <MASS SPECTRAL PEAKS>  (3815) 
27 2.21
39 6.19
41 2.14
43 2.2
50 10.62
51 27.65
52 3.1
59 1.47
62 2.06
63 4.5
65 6.71
69 99.99
70 3.1
73.5 3.32
74 4.35
75 3.83
76 3.69
77 54.42
78 7.08
79 1.47
89 3.32
90 2.36
91 6.12
103 3.24
105 56.19
119 1.47
120 3.61
121 2.14
139 2.14
147 75.15
148 7.37
149 1.55
215 5.09
216 40.78
217 11.06

$$$$

     RDKit          2D

 10 10  0  0  0  0  0  0  0  0999 V2000
    6.1262    0.5406    0.0000 C   0  0  0  0  0  0  0  0  0  0  0  0
    6.1262   -0.9594    0.0000 C   0  0  0  0  0  0  0  0  0  0  0  0
    4.8262    1.2906    0.0000 C   0  0  0  0  0  0  0  0  0  0  0  0
    4.8262   -1.7094    0.0000 C   0  0  0  0  0  0  0  0  0  0  0  0
    3.5262    0.5406    0.0000 C   0  0  0  0  0  0  0  0  0  0  0  0
   -0.3708   -1.7100    0.0000 C   0  0  0  0  0  0  0  0  0  0  0  0
    0.9281   -0.9598    0.0000 C   0  0  0  0  0  0  0  0  0  0  0  0
    3.5262   -0.9594    0.0000 C   0  0  0  0  0  0  0  0  0  0  0  0
   -1.6700   -0.9602    0.0000 Br  0  0  0  0  0  0  0  0  0  0  0  0
    2.2272   -1.7096    0.0000 O   0  0  0  0  0  0  0  0  0  0  0  0
  2  1  2  0
  3  1  1  0
  4  2  1  0
  5  3  2  0
  7  6  1  0
  8  4  2  0
  8  5  1  0
  9  6  1  0
 10  7  1  0
 10  8  1  0
M  END
>  <NAME>  (3816) 
2-BROMOETHOXYBENZENE

>  <SYNONYMS>  (3816) 
2-BROMOETHYL PHENYL ETHER

>  <SPECTRUM TYPE>  (3816) 
MS1

>  <INSTRUMENT TYPE>  (3816) 
EI-B

>  <INSTRUMENT>  (3816) 
HITACHI RMU-7M

>  <ION MODE>  (3816) 
P

>  <INCHIKEY>  (3816) 
JJFOBACUIRKUPN-UHFFFAOYSA-N

>  <FORMULA>  (3816) 
C8H9BrO

>  <EXACT MASS>  (3816) 
199.983677008

>  <MW>  (3816) 
200

>  <ID>  (3816) 
JP006776

>  <CONTRIBUTOR>  (3816) 
University of Tokyo Team, {Faculty of Engineering, University of Tokyo

>  <COMMENT>  (3816) 
SMILES=BrCCOc(c1)cccc1
InChI=InChI=1S/C8H9BrO/c9-6-7-10-8-4-2-1-3-5-8/h1-5H,6-7H2
computed SMILES=BrCCOC=1C=CC=CC1
accession=JP006776
date=2016.01.19 (Created 2008.10.21, modified 2011.05.06)
author=TAJIMA S, GUNMA COLLEGE OF TECHNOLOGY
license=CC BY-NC-SA
exact mass=199.98368
ionization energy=70 eV
ion type=[M]+*
computed spectral entropy=2.7686987255720785
computed normalized entropy=0.7667575925437196
SPLASH=splash10-0pbc-9530000000-6670532235c7de355434
submitter=submitter = University of Tokyo Team (Faculty of Engineering, University of Tokyo)
MoNA Rating=3.75

>  <NUM PEAKS>  (3816) 
37

>  <MASS SPECTRAL PEAKS>  (3816) 
26 2.01
27 37.39
28 1.23
37 1.06
38 4.52
39 26.79
40 3.4
43 1.23
50 4.52
51 13.17
55 2.73
62 1.79
63 6.81
64 3.91
65 32.81
66 14.73
74 1.12
77 31.53
78 2.51
79 6.14
91 3.46
93 8.98
94 99.99
95 6.86
107 95.54
108 2.79
109 84.26
110 1.79
120 3.46
121 12.44
122 1
138 1.62
141 2.68
200 60.77
201 5.75
202 59.15
203 5.58

$$$$

     RDKit          2D

 13 14  0  0  0  0  0  0  0  0999 V2000
    6.1271    0.5392    0.0000 C   0  0  0  0  0  0  0  0  0  0  0  0
   -1.6700    0.5404    0.0000 C   0  0  0  0  0  0  0  0  0  0  0  0
    4.8271    1.2892    0.0000 C   0  0  0  0  0  0  0  0  0  0  0  0
    6.1271   -0.9608    0.0000 C   0  0  0  0  0  0  0  0  0  0  0  0
   -1.6695   -0.9604    0.0000 C   0  0  0  0  0  0  0  0  0  0  0  0
   -0.3710    1.2904    0.0000 C   0  0  0  0  0  0  0  0  0  0  0  0
    3.5271    0.5392    0.0000 C   0  0  0  0  0  0  0  0  0  0  0  0
    4.8271   -1.7108    0.0000 C   0  0  0  0  0  0  0  0  0  0  0  0
   -0.3700   -1.7112    0.0000 C   0  0  0  0  0  0  0  0  0  0  0  0
    0.9286    0.5396    0.0000 C   0  0  0  0  0  0  0  0  0  0  0  0
    3.5271   -0.9608    0.0000 C   0  0  0  0  0  0  0  0  0  0  0  0
    0.9290   -0.9612    0.0000 C   0  0  0  0  0  0  0  0  0  0  0  0
    2.2282   -1.7110    0.0000 S   0  0  0  0  0  0  0  0  0  0  0  0
  3  1  2  0
  4  1  1  0
  5  2  2  0
  6  2  1  0
  7  3  1  0
  8  4  2  0
  9  5  1  0
 10  6  2  0
 11  7  2  0
 11  8  1  0
 12  9  2  0
 12 10  1  0
 13 11  1  0
 13 12  1  0
M  END
>  <NAME>  (3817) 
DIPHENYLTHIOETHER

>  <SYNONYMS>  (3817) 
DIPHENYLSULFIDE

>  <SPECTRUM TYPE>  (3817) 
MS1

>  <INSTRUMENT TYPE>  (3817) 
EI-B

>  <INSTRUMENT>  (3817) 
HITACHI RMU-7M

>  <ION MODE>  (3817) 
P

>  <INCHIKEY>  (3817) 
LTYMSROWYAPPGB-UHFFFAOYSA-N

>  <FORMULA>  (3817) 
C12H10S

>  <EXACT MASS>  (3817) 
186.05032132

>  <MW>  (3817) 
186

>  <ID>  (3817) 
JP006775

>  <CONTRIBUTOR>  (3817) 
University of Tokyo Team, {Faculty of Engineering, University of Tokyo

>  <COMMENT>  (3817) 
SMILES=c(c2)ccc(c2)Sc(c1)cccc1
InChI=InChI=1S/C12H10S/c1-3-7-11(8-4-1)13-12-9-5-2-6-10-12/h1-10H
computed SMILES=S(C=1C=CC=CC1)C=2C=CC=CC2
accession=JP006775
date=2016.01.19 (Created 2008.10.21, modified 2011.05.06)
author=TAJIMA S, GUNMA COLLEGE OF TECHNOLOGY
license=CC BY-NC-SA
exact mass=186.05032
ionization energy=70 eV
ion type=[M]+*
computed spectral entropy=2.445614671328791
computed normalized entropy=0.7121793197524332
SPLASH=splash10-000i-2900000000-e376ed0b074558832b61
submitter=submitter = University of Tokyo Team (Faculty of Engineering, University of Tokyo)
MoNA Rating=3.75

>  <NUM PEAKS>  (3817) 
31

>  <MASS SPECTRAL PEAKS>  (3817) 
27 1.37
39 5.82
45 1.96
50 3.99
51 16.99
63 1.96
65 7.19
66 1.7
69 4.51
74 1.37
77 10.78
79 1.44
92 5.29
93 1.96
102 1.31
108 1.63
109 4.25
110 1.31
115 2.35
139 1.63
141 2.09
152 5.88
153 3.33
154 2.29
171 3.92
183 1.83
184 21.7
185 54.64
186 99.99
187 16.21
188 5.16

$$$$

     RDKit          2D

 12 12  0  0  0  0  0  0  0  0999 V2000
   -4.8712    2.0071    0.0000 C   0  0  0  0  0  0  0  0  0  0  0  0
    2.9231    0.5071    0.0000 C   0  0  0  0  0  0  0  0  0  0  0  0
    2.9236    2.0079    0.0000 C   0  0  0  0  0  0  0  0  0  0  0  0
    1.6236   -0.2437    0.0000 C   0  0  0  0  0  0  0  0  0  0  0  0
    1.6245    2.7579    0.0000 C   0  0  0  0  0  0  0  0  0  0  0  0
    0.3245    0.5063    0.0000 C   0  0  0  0  0  0  0  0  0  0  0  0
   -2.2731    2.0071    0.0000 C   0  0  0  0  0  0  0  0  0  0  0  0
   -3.5721    2.7571    0.0000 C   0  0  0  0  0  0  0  0  0  0  0  0
    0.3250    2.0071    0.0000 C   0  0  0  0  0  0  0  0  0  0  0  0
   -0.9740    2.7571    0.0000 C   0  0  0  0  0  0  0  0  0  0  0  0
   -3.5721    4.2571    0.0000 O   0  0  0  0  0  0  0  0  0  0  0  0
   -0.9740    4.2571    0.0000 O   0  0  0  0  0  0  0  0  0  0  0  0
  3  2  2  0
  4  2  1  0
  5  3  1  0
  6  4  2  0
  8  1  1  0
  8  7  1  0
  9  5  2  0
  9  6  1  0
 10  7  1  0
 10  9  1  0
 11  8  2  0
 12 10  2  0
M  END
>  <NAME>  (3818) 
1-BENZOYL-2-PROPANONE

>  <SYNONYMS>  (3818) 
BENZOYLACETONE

>  <SPECTRUM TYPE>  (3818) 
MS1

>  <INSTRUMENT TYPE>  (3818) 
EI-B

>  <INSTRUMENT>  (3818) 
HITACHI RMU-7M

>  <ION MODE>  (3818) 
P

>  <INCHIKEY>  (3818) 
CVBUKMMMRLOKQR-UHFFFAOYSA-N

>  <FORMULA>  (3818) 
C10H10O2

>  <EXACT MASS>  (3818) 
162.06807956

>  <MW>  (3818) 
162

>  <ID>  (3818) 
JP006774

>  <CONTRIBUTOR>  (3818) 
University of Tokyo Team, {Faculty of Engineering, University of Tokyo

>  <COMMENT>  (3818) 
SMILES=CC(=O)CC(=O)c(c1)cccc1
InChI=InChI=1S/C10H10O2/c1-8(11)7-10(12)9-5-3-2-4-6-9/h2-6H,7H2,1H3
computed SMILES=O=C(C=1C=CC=CC1)CC(=O)C
accession=JP006774
date=2016.01.19 (Created 2008.10.21, modified 2011.05.06)
author=TAJIMA S, GUNMA COLLEGE OF TECHNOLOGY
license=CC BY-NC-SA
exact mass=162.06808
ionization energy=70 eV
ion type=[M]+*
computed spectral entropy=2.766625020198971
computed normalized entropy=0.7720414117278024
SPLASH=splash10-0cfr-9500000000-a52c0b656bd609b3c73a
submitter=submitter = University of Tokyo Team (Faculty of Engineering, University of Tokyo)
MoNA Rating=3.75

>  <NUM PEAKS>  (3818) 
36

>  <MASS SPECTRAL PEAKS>  (3818) 
15 3.17
27 4.33
29 1.77
31 1.53
39 7.26
41 2.56
42 1.89
43 48.72
50 9.16
51 29.91
52 3.54
55 2.44
63 3.6
65 6.17
69 83.88
70 2.56
73.5 1.83
74 3.11
75 2.75
76 3.85
77 71.55
78 16.42
79 2.99
85 18.93
89 2.2
91 5.19
103 2.44
105 99.99
106 7.69
115 1.1
120 7.14
147 31.81
148 3.17
161 20.57
162 33.03
163 4.52

$$$$

     RDKit          2D

 12 11  0  0  0  0  0  0  0  0999 V2000
   -7.1447    6.3750    0.0000 C   0  0  0  0  0  0  0  0  0  0  0  0
    1.9486    7.1250    0.0000 C   0  0  0  0  0  0  0  0  0  0  0  0
   -8.4437    7.1250    0.0000 C   0  0  0  0  0  0  0  0  0  0  0  0
    3.2476    6.3750    0.0000 C   0  0  0  0  0  0  0  0  0  0  0  0
   -5.8457    7.1250    0.0000 C   0  0  0  0  0  0  0  0  0  0  0  0
    0.6495    6.3750    0.0000 C   0  0  0  0  0  0  0  0  0  0  0  0
   -3.2476    7.1250    0.0000 C   0  0  0  0  0  0  0  0  0  0  0  0
   -1.9486    6.3750    0.0000 C   0  0  0  0  0  0  0  0  0  0  0  0
   -9.7428    7.8750    0.0000 N   0  0  0  0  0  0  0  0  0  0  0  0
    4.5466    5.6250    0.0000 N   0  0  0  0  0  0  0  0  0  0  0  0
   -4.5466    6.3750    0.0000 O   0  0  0  0  0  0  0  0  0  0  0  0
   -0.6495    7.1250    0.0000 O   0  0  0  0  0  0  0  0  0  0  0  0
  3  1  1  0
  4  2  1  0
  5  1  1  0
  6  2  1  0
  8  7  1  0
  9  3  3  0
 10  4  3  0
 11  5  1  0
 11  7  1  0
 12  6  1  0
 12  8  1  0
M  END
>  <NAME>  (3819) 
ETHYLENE GLYCOL BIS(PROPIONITRILE) ETHER

>  <SYNONYMS>  (3819) 


>  <SPECTRUM TYPE>  (3819) 
MS1

>  <INSTRUMENT TYPE>  (3819) 
EI-B

>  <INSTRUMENT>  (3819) 
HITACHI RMU-6M

>  <ION MODE>  (3819) 
P

>  <INCHIKEY>  (3819) 
VTHRQKSLPFJQHN-UHFFFAOYSA-N

>  <FORMULA>  (3819) 
C8H12N2O2

>  <EXACT MASS>  (3819) 
168.089877624

>  <MW>  (3819) 
168

>  <ID>  (3819) 
JP006773

>  <CONTRIBUTOR>  (3819) 
University of Tokyo Team, {Faculty of Engineering, University of Tokyo

>  <COMMENT>  (3819) 
SMILES=N#CCCOCCOCCC#N
InChI=InChI=1S/C8H12N2O2/c9-3-1-5-11-7-8-12-6-2-4-10/h1-2,5-8H2
computed SMILES=N#CCCOCCOCCC#N
accession=JP006773
date=2016.01.19 (Created 2008.10.21, modified 2011.05.06)
author=YAMAMOTO M, DEP. CHEMISTRY, FAC. SCIENCE, NARA WOMEN'S UNIV.
license=CC BY-NC-SA
exact mass=168.08988
ionization energy=70 eV
ion type=[M]+*
computed spectral entropy=2.6612870263259514
computed normalized entropy=0.7426462848477412
SPLASH=splash10-0ue9-9000000000-8e7dde93da89b12df68d
submitter=submitter = University of Tokyo Team (Faculty of Engineering, University of Tokyo)
MoNA Rating=3.75

>  <NUM PEAKS>  (3819) 
36

>  <MASS SPECTRAL PEAKS>  (3819) 
26 3.4
27 11.9
28 11.22
29 7.14
31 18.03
32 2.38
39 1.02
40 2.38
41 4.08
42 2.04
43 5.78
44 3.4
45 22.79
46 1.02
51 1.36
52 2.38
53 1.36
54 99.99
55 10.2
56 1.7
57 2.38
58 1.02
66 1.02
68 2.72
70 1.7
71 1.02
72 2.04
84 42.52
85 7.14
97 10.54
98 14.29
99 3.74
128 2.04
138 2.04
141 6.8
142 1.02

$$$$

     RDKit          2D

 12 11  0  0  0  0  0  0  0  0999 V2000
    3.8971    6.0000    0.0000 C   0  0  0  0  0  0  0  0  0  0  0  0
  -10.3923    6.7500    0.0000 C   0  0  0  0  0  0  0  0  0  0  0  0
    2.5981    6.7500    0.0000 C   0  0  0  0  0  0  0  0  0  0  0  0
   -9.0933    6.0000    0.0000 C   0  0  0  0  0  0  0  0  0  0  0  0
    1.2990    6.0000    0.0000 C   0  0  0  0  0  0  0  0  0  0  0  0
   -7.7942    6.7500    0.0000 C   0  0  0  0  0  0  0  0  0  0  0  0
    0.0000    6.7500    0.0000 C   0  0  0  0  0  0  0  0  0  0  0  0
   -6.4952    6.0000    0.0000 C   0  0  0  0  0  0  0  0  0  0  0  0
   -2.5981    6.7500    0.0000 C   0  0  0  0  0  0  0  0  0  0  0  0
   -3.8971    6.0000    0.0000 C   0  0  0  0  0  0  0  0  0  0  0  0
   -1.2990    6.0000    0.0000 O   0  0  0  0  0  0  0  0  0  0  0  0
   -5.1962    6.7500    0.0000 O   0  0  0  0  0  0  0  0  0  0  0  0
  3  1  1  0
  4  2  1  0
  5  3  1  0
  6  4  1  0
  7  5  1  0
  8  6  1  0
 10  9  1  0
 11  7  1  0
 11  9  1  0
 12  8  1  0
 12 10  1  0
M  END
>  <NAME>  (3820) 
ETHYLENE GLYCOL DIBUTYL ETHER

>  <SYNONYMS>  (3820) 


>  <SPECTRUM TYPE>  (3820) 
MS1

>  <INSTRUMENT TYPE>  (3820) 
EI-B

>  <INSTRUMENT>  (3820) 
HITACHI RMU-6M

>  <ION MODE>  (3820) 
P

>  <INCHIKEY>  (3820) 
GDXHBFHOEYVPED-UHFFFAOYSA-N

>  <FORMULA>  (3820) 
C10H22O2

>  <EXACT MASS>  (3820) 
174.161979944

>  <MW>  (3820) 
174

>  <ID>  (3820) 
JP006772

>  <CONTRIBUTOR>  (3820) 
University of Tokyo Team, {Faculty of Engineering, University of Tokyo

>  <COMMENT>  (3820) 
SMILES=CCCCOCCOCCCC
InChI=InChI=1S/C10H22O2/c1-3-5-7-11-9-10-12-8-6-4-2/h3-10H2,1-2H3
computed SMILES=O(CCOCCCC)CCCC
accession=JP006772
date=2016.01.19 (Created 2008.10.21, modified 2011.05.06)
author=YAMAMOTO M, DEP. CHEMISTRY, FAC. SCIENCE, NARA WOMEN'S UNIV.
license=CC BY-NC-SA
exact mass=174.16198
ionization energy=70 eV
ion type=[M]+*
computed spectral entropy=2.5794303351887713
computed normalized entropy=0.7583888983026945
SPLASH=splash10-0a4i-9000000000-6d0be1c838fcf5466079
submitter=submitter = University of Tokyo Team (Faculty of Engineering, University of Tokyo)
MoNA Rating=3.75

>  <NUM PEAKS>  (3820) 
30

>  <MASS SPECTRAL PEAKS>  (3820) 
27 6.75
28 4.79
29 23.83
30 1.2
31 2.39
39 3.37
41 23.61
42 1.96
43 3.92
44 3.37
45 14.04
55 7.4
56 23.79
57 99.99
58 4.24
59 3.59
63 1.2
71 3.7
72 4.79
73 10.66
74 6.09
75 5.88
87 9.68
100 1.41
101 1.52
102 8.81
103 1.96
119 1.74
131 1.74
174 1.41

$$$$

     RDKit          2D

  8  7  0  0  0  0  0  0  0  0999 V2000
    3.8236    3.0736    0.0000 C   0  0  0  0  0  0  0  0  0  0  0  0
    2.3236    0.4755    0.0000 C   0  0  0  0  0  0  0  0  0  0  0  0
    4.3726    1.0245    0.0000 C   0  0  0  0  0  0  0  0  0  0  0  0
   -0.8236    2.5245    0.0000 C   0  0  0  0  0  0  0  0  0  0  0  0
    0.4755    1.7745    0.0000 C   0  0  0  0  0  0  0  0  0  0  0  0
    3.0736    1.7745    0.0000 C   0  0  0  0  0  0  0  0  0  0  0  0
   -2.1226    1.7745    0.0000 O   0  0  0  0  0  0  0  0  0  0  0  0
    1.7745    2.5245    0.0000 O   0  0  0  0  0  0  0  0  0  0  0  0
  5  4  1  0
  6  1  1  0
  6  2  1  0
  6  3  1  0
  7  4  1  0
  8  5  1  0
  8  6  1  0
M  END
>  <NAME>  (3821) 
ETHYLENE GLYCOL MONO-TERT-BUTYL ETHER

>  <SYNONYMS>  (3821) 


>  <SPECTRUM TYPE>  (3821) 
MS1

>  <INSTRUMENT TYPE>  (3821) 
EI-B

>  <INSTRUMENT>  (3821) 
HITACHI RMU-6M

>  <ION MODE>  (3821) 
P

>  <INCHIKEY>  (3821) 
BDLXTDLGTWNUFM-UHFFFAOYSA-N

>  <FORMULA>  (3821) 
C6H14O2

>  <EXACT MASS>  (3821) 
118.099379688

>  <MW>  (3821) 
118

>  <ID>  (3821) 
JP006771

>  <CONTRIBUTOR>  (3821) 
University of Tokyo Team, {Faculty of Engineering, University of Tokyo

>  <COMMENT>  (3821) 
SMILES=OCCOC(C)(C)C
InChI=InChI=1S/C6H14O2/c1-6(2,3)8-5-4-7/h7H,4-5H2,1-3H3
computed SMILES=OCCOC(C)(C)C
accession=JP006771
date=2016.01.19 (Created 2008.10.21, modified 2011.05.06)
author=YAMAMOTO M, DEP. CHEMISTRY, FAC. SCIENCE, NARA WOMEN'S UNIV.
license=CC BY-NC-SA
exact mass=118.09938
ionization energy=70 eV
ion type=[M]+*
computed spectral entropy=2.2753520847453683
computed normalized entropy=0.7473592759745891
SPLASH=splash10-0a4i-9000000000-a35968ddb62603447a67
submitter=submitter = University of Tokyo Team (Faculty of Engineering, University of Tokyo)
MoNA Rating=3.75

>  <NUM PEAKS>  (3821) 
21

>  <MASS SPECTRAL PEAKS>  (3821) 
15 3.36
27 7.18
28 2.32
29 17.61
31 8.81
39 6.14
40 1.39
41 29.43
42 3.13
43 6.26
45 16.11
55 2.67
56 11.83
57 99.99
58 4.4
59 67.55
60 2.32
87 5.79
88 1.39
103 26.07
104 1.85

$$$$

     RDKit          2D

  8  7  0  0  0  0  0  0  0  0999 V2000
    2.2733    2.8125    0.0000 C   0  0  0  0  0  0  0  0  0  0  0  0
    0.9743    5.0625    0.0000 C   0  0  0  0  0  0  0  0  0  0  0  0
   -4.2219    3.5625    0.0000 C   0  0  0  0  0  0  0  0  0  0  0  0
   -2.9228    2.8125    0.0000 C   0  0  0  0  0  0  0  0  0  0  0  0
   -0.3248    2.8125    0.0000 C   0  0  0  0  0  0  0  0  0  0  0  0
    0.9743    3.5625    0.0000 C   0  0  0  0  0  0  0  0  0  0  0  0
   -5.5209    2.8125    0.0000 O   0  0  0  0  0  0  0  0  0  0  0  0
   -1.6238    3.5625    0.0000 O   0  0  0  0  0  0  0  0  0  0  0  0
  4  3  1  0
  6  1  1  0
  6  2  1  0
  6  5  1  0
  7  3  1  0
  8  4  1  0
  8  5  1  0
M  END
>  <NAME>  (3822) 
ETHYLENE GLYCOL MONO-ISOBUTYL ETHER

>  <SYNONYMS>  (3822) 


>  <SPECTRUM TYPE>  (3822) 
MS1

>  <INSTRUMENT TYPE>  (3822) 
EI-B

>  <INSTRUMENT>  (3822) 
HITACHI RMU-6M

>  <ION MODE>  (3822) 
P

>  <INCHIKEY>  (3822) 
HHAPGMVKBLELOE-UHFFFAOYSA-N

>  <FORMULA>  (3822) 
C6H14O2

>  <EXACT MASS>  (3822) 
118.099379688

>  <MW>  (3822) 
118

>  <ID>  (3822) 
JP006770

>  <CONTRIBUTOR>  (3822) 
University of Tokyo Team, {Faculty of Engineering, University of Tokyo

>  <COMMENT>  (3822) 
SMILES=OCCOCC(C)C
InChI=InChI=1S/C6H14O2/c1-6(2)5-8-4-3-7/h6-7H,3-5H2,1-2H3
computed SMILES=OCCOCC(C)C
accession=JP006770
date=2016.01.19 (Created 2008.10.21, modified 2011.05.06)
author=YAMAMOTO M, DEP. CHEMISTRY, FAC. SCIENCE, NARA WOMEN'S UNIV.
license=CC BY-NC-SA
exact mass=118.09938
ionization energy=70 eV
ion type=[M]+*
computed spectral entropy=2.375496465415328
computed normalized entropy=0.720756688511478
SPLASH=splash10-0a6s-9000000000-b8a40d2a475e3a987c2a
submitter=submitter = University of Tokyo Team (Faculty of Engineering, University of Tokyo)
MoNA Rating=3.75

>  <NUM PEAKS>  (3822) 
27

>  <MASS SPECTRAL PEAKS>  (3822) 
15 2.82
27 11.86
28 2.82
29 23.73
31 8.66
39 7.91
40 1.32
41 31.83
42 3.01
43 5.65
44 2.64
45 73.63
46 2.26
55 4.33
56 9.79
57 99.99
58 3.95
62 1.13
63 1.32
71 4.52
72 1.88
73 2.64
75 22.98
76 1.12
87 10.92
100 1.32
118 0.38

$$$$

     RDKit          2D

 14 13  0  0  0  0  0  0  0  0999 V2000
    3.8971    6.0000    0.0000 C   0  0  0  0  0  0  0  0  0  0  0  0
  -10.3923    6.7500    0.0000 C   0  0  0  0  0  0  0  0  0  0  0  0
    2.5981    6.7500    0.0000 C   0  0  0  0  0  0  0  0  0  0  0  0
   -9.0933    6.0000    0.0000 C   0  0  0  0  0  0  0  0  0  0  0  0
    1.2990    6.0000    0.0000 C   0  0  0  0  0  0  0  0  0  0  0  0
   -7.7942    6.7500    0.0000 C   0  0  0  0  0  0  0  0  0  0  0  0
   -2.5981    6.7500    0.0000 C   0  0  0  0  0  0  0  0  0  0  0  0
   -3.8971    6.0000    0.0000 C   0  0  0  0  0  0  0  0  0  0  0  0
    0.0000    6.7500    0.0000 C   0  0  0  0  0  0  0  0  0  0  0  0
   -6.4952    6.0000    0.0000 C   0  0  0  0  0  0  0  0  0  0  0  0
    0.0000    8.2500    0.0000 O   0  0  0  0  0  0  0  0  0  0  0  0
   -6.4952    4.5000    0.0000 O   0  0  0  0  0  0  0  0  0  0  0  0
   -1.2990    6.0000    0.0000 O   0  0  0  0  0  0  0  0  0  0  0  0
   -5.1962    6.7500    0.0000 O   0  0  0  0  0  0  0  0  0  0  0  0
  3  1  1  0
  4  2  1  0
  5  3  1  0
  6  4  1  0
  8  7  1  0
  9  5  1  0
 10  6  1  0
 11  9  2  0
 12 10  2  0
 13  7  1  0
 13  9  1  0
 14  8  1  0
 14 10  1  0
M  END
>  <NAME>  (3823) 
ETHYLENE GLYCOL DIBUTYRATE

>  <SYNONYMS>  (3823) 


>  <SPECTRUM TYPE>  (3823) 
MS1

>  <INSTRUMENT TYPE>  (3823) 
EI-B

>  <INSTRUMENT>  (3823) 
HITACHI RMU-6M

>  <ION MODE>  (3823) 
P

>  <INCHIKEY>  (3823) 
SFTRWCBAYKQWCS-UHFFFAOYSA-N

>  <FORMULA>  (3823) 
C10H18O4

>  <EXACT MASS>  (3823) 
202.120509056

>  <MW>  (3823) 
202

>  <ID>  (3823) 
JP006769

>  <CONTRIBUTOR>  (3823) 
University of Tokyo Team, {Faculty of Engineering, University of Tokyo

>  <COMMENT>  (3823) 
SMILES=CCCC(=O)OCCOC(=O)CCC
InChI=InChI=1S/C10H18O4/c1-3-5-9(11)13-7-8-14-10(12)6-4-2/h3-8H2,1-2H3
computed SMILES=O=C(OCCOC(=O)CCC)CCC
accession=JP006769
date=2016.01.19 (Created 2008.10.21, modified 2011.05.06)
author=YAMAMOTO M, DEP. CHEMISTRY, FAC. SCIENCE, NARA WOMEN'S UNIV.
license=CC BY-NC-SA
exact mass=202.12051
ionization energy=70 eV
ion type=[M]+*
computed spectral entropy=2.0213959065397877
computed normalized entropy=0.6279819466544831
SPLASH=splash10-00dl-9100000000-ef89f5a16a2feb5a894a
submitter=submitter = University of Tokyo Team (Faculty of Engineering, University of Tokyo)
MoNA Rating=3.75

>  <NUM PEAKS>  (3823) 
25

>  <MASS SPECTRAL PEAKS>  (3823) 
15 1.31
27 9.36
28 2.21
29 1.61
39 3.32
41 10.06
42 3.82
43 48.29
44 1.61
45 1.21
55 1.91
70 2.72
71 99.99
72 5.63
86 5.43
87 1.21
89 1.01
99 1.01
101 1.41
103 1.11
114 4.43
115 12.17
142 1.81
144 1.81
159 1.61

$$$$

     RDKit          2D

  7  6  0  0  0  0  0  0  0  0999 V2000
    1.2990    2.2500    0.0000 C   0  0  0  0  0  0  0  0  0  0  0  0
   -3.8971    2.2500    0.0000 C   0  0  0  0  0  0  0  0  0  0  0  0
    0.0000    3.0000    0.0000 C   0  0  0  0  0  0  0  0  0  0  0  0
   -2.5981    3.0000    0.0000 C   0  0  0  0  0  0  0  0  0  0  0  0
   -1.2990    0.7500    0.0000 C   0  0  0  0  0  0  0  0  0  0  0  0
   -1.2990    2.2500    0.0000 C   0  0  0  0  0  0  0  0  0  0  0  0
   -0.0000    0.0000    0.0000 O   0  0  0  0  0  0  0  0  0  0  0  0
  3  1  1  0
  4  2  1  0
  6  3  1  0
  6  4  1  0
  6  5  1  0
  7  5  2  0
M  END
>  <NAME>  (3824) 
2-ETHYLBUTYRALDEHYDE

>  <SYNONYMS>  (3824) 
2-ETHYLBUTANAL

>  <SPECTRUM TYPE>  (3824) 
MS1

>  <INSTRUMENT TYPE>  (3824) 
EI-B

>  <INSTRUMENT>  (3824) 
HITACHI RMU-6M

>  <ION MODE>  (3824) 
P

>  <INCHIKEY>  (3824) 
UNNGUFMVYQJGTD-UHFFFAOYSA-N

>  <FORMULA>  (3824) 
C6H12O

>  <EXACT MASS>  (3824) 
100.088815004

>  <MW>  (3824) 
100

>  <ID>  (3824) 
JP006768

>  <CONTRIBUTOR>  (3824) 
University of Tokyo Team, {Faculty of Engineering, University of Tokyo

>  <COMMENT>  (3824) 
SMILES=CCC(CC)C=O
InChI=InChI=1S/C6H12O/c1-3-6(4-2)5-7/h5-6H,3-4H2,1-2H3
computed SMILES=O=CC(CC)CC
accession=JP006768
date=2016.01.19 (Created 2008.10.21, modified 2011.05.06)
author=YAMAMOTO M, DEP. CHEMISTRY, FAC. SCIENCE, NARA WOMEN'S UNIV.
license=CC BY-NC-SA
exact mass=100.08882
ionization energy=70 eV
ion type=[M]+*
computed spectral entropy=2.3815111443192865
computed normalized entropy=0.7309516819183901
SPLASH=splash10-0006-9000000000-ce9ff4aa35d72211f5d8
submitter=submitter = University of Tokyo Team (Faculty of Engineering, University of Tokyo)
MoNA Rating=3.75

>  <NUM PEAKS>  (3824) 
26

>  <MASS SPECTRAL PEAKS>  (3824) 
15 1.45
26 1.99
27 20.25
28 2.17
29 21.7
31 1.27
38 1.27
39 12.66
40 1.45
41 23.69
42 4.16
43 99.99
44 3.25
51 1.08
53 2.17
54 1.27
55 9.76
56 2.17
57 10.85
58 2.89
70 1.08
71 22.06
72 30.2
73 1.27
82 5.06
100 3.98

$$$$

     RDKit          2D

  6  5  0  0  0  0  0  0  0  0999 V2000
   -4.5466    3.3750    0.0000 C   0  0  0  0  0  0  0  0  0  0  0  0
   -3.2476    2.6250    0.0000 C   0  0  0  0  0  0  0  0  0  0  0  0
    0.6495    3.3750    0.0000 C   0  0  0  0  0  0  0  0  0  0  0  0
   -0.6495    2.6250    0.0000 C   0  0  0  0  0  0  0  0  0  0  0  0
    1.9486    2.6250    0.0000 O   0  0  0  0  0  0  0  0  0  0  0  0
   -1.9486    3.3750    0.0000 O   0  0  0  0  0  0  0  0  0  0  0  0
  2  1  1  0
  4  3  1  0
  5  3  1  0
  6  2  1  0
  6  4  1  0
M  END
>  <NAME>  (3825) 
2-ETHOXYETHANOL

>  <SYNONYMS>  (3825) 
ETHYL CELLOSOLVE

>  <SPECTRUM TYPE>  (3825) 
MS1

>  <INSTRUMENT TYPE>  (3825) 
EI-B

>  <INSTRUMENT>  (3825) 
HITACHI RMU-6M

>  <ION MODE>  (3825) 
P

>  <INCHIKEY>  (3825) 
ZNQVEEAIQZEUHB-UHFFFAOYSA-N

>  <FORMULA>  (3825) 
C4H10O2

>  <EXACT MASS>  (3825) 
90.06807956

>  <MW>  (3825) 
90

>  <ID>  (3825) 
JP006767

>  <CONTRIBUTOR>  (3825) 
University of Tokyo Team, {Faculty of Engineering, University of Tokyo

>  <COMMENT>  (3825) 
SMILES=CCOCCO
InChI=InChI=1S/C4H10O2/c1-2-6-4-3-5/h5H,2-4H2,1H3
computed SMILES=OCCOCC
accession=JP006767
date=2016.01.19 (Created 2008.10.21, modified 2011.05.06)
author=YAMAMOTO M, DEP. CHEMISTRY, FAC. SCIENCE, NARA WOMEN'S UNIV.
license=CC BY-NC-SA
exact mass=90.06808
ionization energy=70 eV
ion type=[M]+*
computed spectral entropy=2.177650907624876
computed normalized entropy=0.6945160021542462
SPLASH=splash10-053r-9000000000-e5c5aa3dd9523944247f
submitter=submitter = University of Tokyo Team (Faculty of Engineering, University of Tokyo)
MoNA Rating=3.75

>  <NUM PEAKS>  (3825) 
23

>  <MASS SPECTRAL PEAKS>  (3825) 
14 1.11
15 6.41
26 2.51
27 16.99
28 4.74
29 31.75
30 1.39
31 99.99
32 2.51
33 1.39
41 3.9
42 1.67
43 13.37
44 3.34
45 28.41
46 1.11
59 65.46
60 2.51
61 2.23
72 20.61
73 1.11
75 1.11
90 0.84

$$$$

     RDKit          2D

  4  3  0  0  0  0  0  0  0  0999 V2000
   -1.2990    1.5000    0.0000 C   0  0  0  0  0  0  0  0  0  0  0  0
    0.0000    2.2500    0.0000 C   0  0  0  0  0  0  0  0  0  0  0  0
   -2.5981    2.2500    0.0000 O   0  0  0  0  0  0  0  0  0  0  0  0
    1.2990    1.5000    0.0000 O   0  0  0  0  0  0  0  0  0  0  0  0
  2  1  1  0
  3  1  1  0
  4  2  1  0
M  END
>  <NAME>  (3826) 
ETHYLENE GLYCOL

>  <SYNONYMS>  (3826) 


>  <SPECTRUM TYPE>  (3826) 
MS1

>  <INSTRUMENT TYPE>  (3826) 
EI-B

>  <INSTRUMENT>  (3826) 
HITACHI RMU-6M

>  <ION MODE>  (3826) 
P

>  <INCHIKEY>  (3826) 
LYCAIKOWRPUZTN-UHFFFAOYSA-N

>  <FORMULA>  (3826) 
C2H6O2

>  <EXACT MASS>  (3826) 
62.036779432

>  <MW>  (3826) 
62

>  <ID>  (3826) 
JP006766

>  <CONTRIBUTOR>  (3826) 
University of Tokyo Team, {Faculty of Engineering, University of Tokyo

>  <COMMENT>  (3826) 
SMILES=OCCO
InChI=InChI=1S/C2H6O2/c3-1-2-4/h3-4H,1-2H2
computed SMILES=OCCO
accession=JP006766
date=2016.01.19 (Created 2008.10.21, modified 2011.05.06)
license=CC BY-NC-SA
author=YAMAMOTO M, DEP. CHEMISTRY, FAC. SCIENCE, NARA WOMEN'S UNIV.
exact mass=62.03678
ionization energy=70 eV
ion type=[M]+*
computed spectral entropy=1.7965491822623096
computed normalized entropy=0.6479681489907392
SPLASH=splash10-001i-9000000000-eaa1e5b7b88211fa7edb
submitter=submitter = University of Tokyo Team (Faculty of Engineering, University of Tokyo)
MoNA Rating=3.75

>  <NUM PEAKS>  (3826) 
16

>  <MASS SPECTRAL PEAKS>  (3826) 
14 1.82
15 10.4
26 1.19
27 5.2
28 1.92
29 13.59
30 1.92
31 99.99
32 10.77
33 37.14
42 3.01
43 8.03
44 2.01
45 1.28
61 1.55
62 5.47

$$$$

     RDKit          2D

 10  9  0  0  0  0  0  0  0  0999 V2000
   -8.4437    5.6250    0.0000 C   0  0  0  0  0  0  0  0  0  0  0  0
   -7.1447    4.8750    0.0000 C   0  0  0  0  0  0  0  0  0  0  0  0
   -5.8457    5.6250    0.0000 C   0  0  0  0  0  0  0  0  0  0  0  0
   -4.5466    4.8750    0.0000 C   0  0  0  0  0  0  0  0  0  0  0  0
   -3.2476    5.6250    0.0000 C   0  0  0  0  0  0  0  0  0  0  0  0
    1.9486    5.6250    0.0000 C   0  0  0  0  0  0  0  0  0  0  0  0
   -1.9486    4.8750    0.0000 C   0  0  0  0  0  0  0  0  0  0  0  0
    0.6495    4.8750    0.0000 C   0  0  0  0  0  0  0  0  0  0  0  0
    3.2476    4.8750    0.0000 O   0  0  0  0  0  0  0  0  0  0  0  0
   -0.6495    5.6250    0.0000 O   0  0  0  0  0  0  0  0  0  0  0  0
  2  1  1  0
  3  2  1  0
  4  3  1  0
  5  4  1  0
  7  5  1  0
  8  6  1  0
  9  6  1  0
 10  7  1  0
 10  8  1  0
M  END
>  <NAME>  (3827) 
ETHYLENE GLYCOL MONO-HEXYL ETHER

>  <SYNONYMS>  (3827) 


>  <SPECTRUM TYPE>  (3827) 
MS1

>  <INSTRUMENT TYPE>  (3827) 
EI-B

>  <INSTRUMENT>  (3827) 
HITACHI RMU-6M

>  <ION MODE>  (3827) 
P

>  <INCHIKEY>  (3827) 
UPGSWASWQBLSKZ-UHFFFAOYSA-N

>  <FORMULA>  (3827) 
C8H18O2

>  <EXACT MASS>  (3827) 
146.130679816

>  <MW>  (3827) 
146

>  <ID>  (3827) 
JP006765

>  <CONTRIBUTOR>  (3827) 
University of Tokyo Team, {Faculty of Engineering, University of Tokyo

>  <COMMENT>  (3827) 
SMILES=CCCCCCOCCO
InChI=InChI=1S/C8H18O2/c1-2-3-4-5-7-10-8-6-9/h9H,2-8H2,1H3
computed SMILES=OCCOCCCCCC
accession=JP006765
date=2016.01.19 (Created 2008.10.21, modified 2011.05.06)
author=YAMAMOTO M, DEP. CHEMISTRY, FAC. SCIENCE, NARA WOMEN'S UNIV.
license=CC BY-NC-SA
exact mass=146.13068
ionization energy=70 eV
ion type=[M]+*
computed spectral entropy=2.6989411666603838
computed normalized entropy=0.809956639341586
SPLASH=splash10-0006-9000000000-b3adbfe8fe5689195e8e
submitter=submitter = University of Tokyo Team (Faculty of Engineering, University of Tokyo)
MoNA Rating=3.75

>  <NUM PEAKS>  (3827) 
28

>  <MASS SPECTRAL PEAKS>  (3827) 
15 2.11
27 14.5
28 4.83
29 13.38
31 7.81
39 6.69
40 1.49
41 26.02
42 7.81
43 99.99
44 3.72
45 42.75
46 1.24
53 1.49
55 14.62
56 17.84
57 15.12
63 19.58
69 4.58
75 9.42
83 17.6
84 13.75
85 59.11
86 4.21
99 1.98
101 1.24
115 7.93
146 0.5

$$$$

     RDKit          2D

  5  4  0  0  0  0  0  0  0  0999 V2000
   -0.0000   -0.0000    0.0000 C   0  0  0  0  0  0  0  0  0  0  0  0
   -2.5981    1.5000    0.0000 C   0  0  0  0  0  0  0  0  0  0  0  0
   -1.2990    3.7500    0.0000 C   0  0  0  0  0  0  0  0  0  0  0  0
    0.0000    1.5000    0.0000 C   0  0  0  0  0  0  0  0  0  0  0  0
   -1.2990    2.2500    0.0000 C   0  0  0  0  0  0  0  0  0  0  0  0
  4  1  2  0
  5  2  2  0
  5  3  1  0
  5  4  1  0
M  END
>  <NAME>  (3828) 
ISOPRENE

>  <SYNONYMS>  (3828) 


>  <SPECTRUM TYPE>  (3828) 
MS1

>  <INSTRUMENT TYPE>  (3828) 
EI-B

>  <INSTRUMENT>  (3828) 
HITACHI RMU-6M

>  <ION MODE>  (3828) 
P

>  <INCHIKEY>  (3828) 
RRHGJUQNOFWUDK-UHFFFAOYSA-N

>  <FORMULA>  (3828) 
C5H8

>  <EXACT MASS>  (3828) 
68.062600256

>  <MW>  (3828) 
68

>  <ID>  (3828) 
JP006764

>  <CONTRIBUTOR>  (3828) 
University of Tokyo Team, {Faculty of Engineering, University of Tokyo

>  <COMMENT>  (3828) 
SMILES=C=CC(C)=C
InChI=InChI=1S/C5H8/c1-4-5(2)3/h4H,1-2H2,3H3
computed SMILES=C=CC(=C)C
accession=JP006764
date=2016.01.19 (Created 2008.10.21, modified 2011.05.06)
author=YAMAMOTO M, DEP. CHEMISTRY, FAC. SCIENCE, NARA WOMEN'S UNIV.
license=CC BY-NC-SA
exact mass=68.0626
ionization energy=70 eV
ion type=[M]+*
computed spectral entropy=2.468225216529618
computed normalized entropy=0.7871885726946564
SPLASH=splash10-014i-9000000000-bd4ffd9bdcd939fd4ea8
submitter=submitter = University of Tokyo Team (Faculty of Engineering, University of Tokyo)
MoNA Rating=3.75

>  <NUM PEAKS>  (3828) 
23

>  <MASS SPECTRAL PEAKS>  (3828) 
15 1.96
26 4.68
27 31.71
28 3.65
29 2.81
39 56.97
40 35.45
41 35.17
42 19.46
49 2.06
50 9.07
51 12.07
52 5.89
53 76.8
54 3.46
61 2.25
62 3.46
63 4.3
65 9.17
66 7.48
67 99.99
68 80.54
69 4.12

$$$$

     RDKit          2D

  7  6  0  0  0  0  0  0  0  0999 V2000
    1.9486    3.3750    0.0000 C   0  0  0  0  0  0  0  0  0  0  0  0
    0.6495    4.1250    0.0000 C   0  0  0  0  0  0  0  0  0  0  0  0
   -4.5466    4.1250    0.0000 C   0  0  0  0  0  0  0  0  0  0  0  0
   -0.6495    3.3750    0.0000 C   0  0  0  0  0  0  0  0  0  0  0  0
   -3.2476    3.3750    0.0000 C   0  0  0  0  0  0  0  0  0  0  0  0
   -5.8457    3.3750    0.0000 O   0  0  0  0  0  0  0  0  0  0  0  0
   -1.9486    4.1250    0.0000 O   0  0  0  0  0  0  0  0  0  0  0  0
  2  1  2  0
  4  2  1  0
  5  3  1  0
  6  3  1  0
  7  4  1  0
  7  5  1  0
M  END
>  <NAME>  (3829) 
ETHYLENE GLYCOL MONO-ALLYL ETHER

>  <SYNONYMS>  (3829) 


>  <SPECTRUM TYPE>  (3829) 
MS1

>  <INSTRUMENT TYPE>  (3829) 
EI-B

>  <INSTRUMENT>  (3829) 
HITACHI RMU-6M

>  <ION MODE>  (3829) 
P

>  <INCHIKEY>  (3829) 
GCYHRYNSUGLLMA-UHFFFAOYSA-N

>  <FORMULA>  (3829) 
C5H10O2

>  <EXACT MASS>  (3829) 
102.06807956

>  <MW>  (3829) 
102

>  <ID>  (3829) 
JP006763

>  <CONTRIBUTOR>  (3829) 
University of Tokyo Team, {Faculty of Engineering, University of Tokyo

>  <COMMENT>  (3829) 
SMILES=C=CCOCCO
InChI=InChI=1S/C5H10O2/c1-2-4-7-5-3-6/h2,6H,1,3-5H2
computed SMILES=OCCOCC=C
accession=JP006763
date=2016.01.19 (Created 2008.10.21, modified 2011.05.06)
author=YAMAMOTO M, DEP. CHEMISTRY, FAC. SCIENCE, NARA WOMEN'S UNIV.
license=CC BY-NC-SA
exact mass=102.06808
ionization energy=70 eV
ion type=[M]+*
computed spectral entropy=2.5423636606042694
computed normalized entropy=0.7713863774108685
SPLASH=splash10-052f-9000000000-67661395b792996d4989
submitter=submitter = University of Tokyo Team (Faculty of Engineering, University of Tokyo)
MoNA Rating=3.75

>  <NUM PEAKS>  (3829) 
27

>  <MASS SPECTRAL PEAKS>  (3829) 
15 4.44
26 2.82
27 11.49
28 4.23
29 10.89
30 2.42
31 33.87
32 1.01
38 2.02
39 26.01
40 4.84
41 99.99
42 20.16
43 8.06
44 5.44
45 28.83
46 1.01
54 1.01
55 2.62
56 2.42
57 18.14
58 53.23
59 9.07
61 1.41
69 1.41
71 12.7
83 1.41

$$$$

     RDKit          2D

 10 10  0  0  0  0  0  0  0  0999 V2000
   -3.8981   -0.7504    0.0000 C   0  0  0  0  0  0  0  0  0  0  0  0
   -2.5989   -1.5002    0.0000 C   0  0  0  0  0  0  0  0  0  0  0  0
   -1.3000    0.7500    0.0000 C   0  0  0  0  0  0  0  0  0  0  0  0
    0.0000   -1.5000    0.0000 C   0  0  0  0  0  0  0  0  0  0  0  0
    0.0000    1.5000    0.0000 C   0  0  0  0  0  0  0  0  0  0  0  0
    1.3000   -0.7500    0.0000 C   0  0  0  0  0  0  0  0  0  0  0  0
    2.5989    1.5002    0.0000 C   0  0  0  0  0  0  0  0  0  0  0  0
   -1.3000   -0.7500    0.0000 C   0  0  0  0  0  0  0  0  0  0  0  0
    1.3000    0.7500    0.0000 C   0  0  0  0  0  0  0  0  0  0  0  0
    3.8981    0.7504    0.0000 O   0  0  0  0  0  0  0  0  0  0  0  0
  2  1  1  0
  5  3  2  0
  6  4  1  0
  8  2  1  0
  8  3  1  0
  8  4  2  0
  9  5  1  0
  9  6  2  0
  9  7  1  0
 10  7  2  0
M  END
>  <NAME>  (3830) 
P-ETHYLBENZALDEHYDE

>  <SYNONYMS>  (3830) 


>  <SPECTRUM TYPE>  (3830) 
MS1

>  <INSTRUMENT TYPE>  (3830) 
EI-B

>  <INSTRUMENT>  (3830) 
HITACHI RMU-6M

>  <ION MODE>  (3830) 
P

>  <INCHIKEY>  (3830) 
QNGNSVIICDLXHT-UHFFFAOYSA-N

>  <FORMULA>  (3830) 
C9H10O

>  <EXACT MASS>  (3830) 
134.07316494

>  <MW>  (3830) 
134

>  <ID>  (3830) 
JP006762

>  <CONTRIBUTOR>  (3830) 
University of Tokyo Team, {Faculty of Engineering, University of Tokyo

>  <COMMENT>  (3830) 
SMILES=CCc(c1)ccc(C=O)c1
InChI=InChI=1S/C9H10O/c1-2-8-3-5-9(7-10)6-4-8/h3-7H,2H2,1H3
computed SMILES=O=CC1=CC=C(C=C1)CC
accession=JP006762
date=2016.01.19 (Created 2008.10.21, modified 2011.05.06)
author=YAMAMOTO M, DEP. CHEMISTRY, FAC. SCIENCE, NARA WOMEN'S UNIV.
license=CC BY-NC-SA
exact mass=134.07316
ionization energy=70 eV
ion type=[M]+*
computed spectral entropy=2.9622651870090677
computed normalized entropy=0.7652057277992765
SPLASH=splash10-001i-7900000000-6a3ae9843f99712bf916
submitter=submitter = University of Tokyo Team (Faculty of Engineering, University of Tokyo)
MoNA Rating=3.75

>  <NUM PEAKS>  (3830) 
48

>  <MASS SPECTRAL PEAKS>  (3830) 
26 1
27 9.6
28 3.04
29 2.65
37 1.49
38 2.82
39 14.9
40 1.49
41 2.65
50 10.6
51 21.69
52 4.31
53 3.64
61 1.32
62 3.97
63 10.6
64 2.65
65 11.59
66 1.99
73 1
74 4.64
75 3.97
76 3.97
77 28.81
78 7.62
79 19.87
80 1.49
86 1.16
87 1.32
89 7.12
90 5.96
91 50.51
92 3.97
101 1
102 2.98
103 12.92
104 3.48
105 55.31
106 6.79
107 1.16
118 1.16
119 17.55
120 1.49
131 1
133 99.99
134 95.05
135 9.44
136 1

$$$$

     RDKit          2D

 11 11  0  0  0  0  0  0  0  0999 V2000
    1.3000    0.0000    0.0000 C   0  0  0  0  0  0  0  0  0  0  0  0
   -1.3000    0.0000    0.0000 C   0  0  0  0  0  0  0  0  0  0  0  0
   -0.0000   -2.2500    0.0000 C   0  0  0  0  0  0  0  0  0  0  0  0
   -0.0000   -0.7500    0.0000 C   0  0  0  0  0  0  0  0  0  0  0  0
    1.3000    1.5000    0.0000 C   0  0  0  0  0  0  0  0  0  0  0  0
   -1.3000    1.5000    0.0000 C   0  0  0  0  0  0  0  0  0  0  0  0
   -0.0000    2.2500    0.0000 C   0  0  0  0  0  0  0  0  0  0  0  0
    2.5989    2.2502    0.0000 Br  0  0  0  0  0  0  0  0  0  0  0  0
    1.2990   -3.0000    0.0000 O   0  0  0  0  0  0  0  0  0  0  0  0
   -2.5989    2.2502    0.0000 O   0  0  0  0  0  0  0  0  0  0  0  0
    0.0000    3.7500    0.0000 O   0  0  0  0  0  0  0  0  0  0  0  0
  4  1  2  0
  4  2  1  0
  4  3  1  0
  5  1  1  0
  6  2  2  0
  7  5  2  0
  7  6  1  0
  8  5  1  0
  9  3  2  0
 10  6  1  0
 11  7  1  0
M  END
>  <NAME>  (3831) 
3-BROMO-4,5-DIHYDROXYBENZALDEHYDE

>  <SYNONYMS>  (3831) 


>  <SPECTRUM TYPE>  (3831) 
MS1

>  <INSTRUMENT TYPE>  (3831) 
EI-B

>  <INSTRUMENT>  (3831) 
HITACHI RMS-4

>  <ION MODE>  (3831) 
P

>  <INCHIKEY>  (3831) 
GVSGSHGXUXLQNS-UHFFFAOYSA-N

>  <FORMULA>  (3831) 
C7H5BrO3

>  <EXACT MASS>  (3831) 
215.94220612

>  <MW>  (3831) 
216

>  <ID>  (3831) 
JP006761

>  <CONTRIBUTOR>  (3831) 
University of Tokyo Team, {Faculty of Engineering, University of Tokyo

>  <COMMENT>  (3831) 
SMILES=O=Cc(c1)cc(Br)c(O)c(O)1
InChI=InChI=1S/C7H5BrO3/c8-5-1-4(3-9)2-6(10)7(5)11/h1-3,10-11H
computed SMILES=O=CC1=CC(Br)=C(O)C(O)=C1
accession=JP006761
date=2016.01.19 (Created 2008.10.21, modified 2011.05.06)
author=MASS SPECTROSCOPY SOC. OF JAPAN (MSSJ)
license=CC BY-NC-SA
exact mass=215.94221
ionization energy=70 eV
ion type=[M]+*
computed spectral entropy=3.183807524160843
computed normalized entropy=0.7684537758041442
SPLASH=splash10-014i-7390000000-2705a7c5c4800c265206
submitter=submitter = University of Tokyo Team (Faculty of Engineering, University of Tokyo)
MoNA Rating=3.75

>  <NUM PEAKS>  (3831) 
63

>  <MASS SPECTRAL PEAKS>  (3831) 
41 2.7
43 7
45 6.5
46 1.67
49 10.2
50 31.7
51 45.2
52 2.15
53 23.7
54 6.5
55 8.6
58 0.22
60 2.7
61 10.8
62 17.7
63 1.61
64 3.2
65 2.2
66 2.7
67 0.22
69 4.3
73 2.2
74 2.7
75 0.22
77 9.1
78 4.8
79 24.2
80 1.08
81 8.1
82 2.2
90 4.3
91 0.27
94 2.7
95 2.7
107 18.8
108 1.51
109 4.3
117 2.2
118 2.2
119 0.22
129 2.2
130 2.2
131 4.3
133 0.32
135 4.3
137 2.7
141 2.2
149 0.27
159 8.1
160 2.2
161 7
169 0.2
171 2
187 20.4
188 5.4
189 1.94
190 5.4
215 99.99
216 83.9
217 9.68
218 88.2
219 15.6
220 2.7

$$$$

     RDKit          2D

 10 10  0  0  0  0  0  0  0  0999 V2000
   -1.3000    0.7500    0.0000 C   0  0  0  0  0  0  0  0  0  0  0  0
    0.0000    1.5000    0.0000 C   0  0  0  0  0  0  0  0  0  0  0  0
   -0.0000   -1.5000    0.0000 C   0  0  0  0  0  0  0  0  0  0  0  0
   -2.5989   -1.5002    0.0000 C   0  0  0  0  0  0  0  0  0  0  0  0
   -1.3000   -0.7500    0.0000 C   0  0  0  0  0  0  0  0  0  0  0  0
    1.3000   -0.7500    0.0000 C   0  0  0  0  0  0  0  0  0  0  0  0
    1.3000    0.7500    0.0000 C   0  0  0  0  0  0  0  0  0  0  0  0
    2.5989   -1.5002    0.0000 Br  0  0  0  0  0  0  0  0  0  0  0  0
   -3.8981   -0.7504    0.0000 O   0  0  0  0  0  0  0  0  0  0  0  0
    2.5989    1.5002    0.0000 O   0  0  0  0  0  0  0  0  0  0  0  0
  2  1  2  0
  5  1  1  0
  5  3  2  0
  5  4  1  0
  6  3  1  0
  7  2  1  0
  7  6  2  0
  8  6  1  0
  9  4  2  0
 10  7  1  0
M  END
>  <NAME>  (3832) 
3-BROMO-4-HYDROXYBENZALDEHYDE

>  <SYNONYMS>  (3832) 


>  <SPECTRUM TYPE>  (3832) 
MS1

>  <INSTRUMENT TYPE>  (3832) 
EI-B

>  <INSTRUMENT>  (3832) 
HITACHI RMS-4

>  <ION MODE>  (3832) 
P

>  <INCHIKEY>  (3832) 
UOTMHAOCAJROQF-UHFFFAOYSA-N

>  <FORMULA>  (3832) 
C7H5BrO2

>  <EXACT MASS>  (3832) 
199.9472915

>  <MW>  (3832) 
200

>  <ID>  (3832) 
JP006760

>  <CONTRIBUTOR>  (3832) 
University of Tokyo Team, {Faculty of Engineering, University of Tokyo

>  <COMMENT>  (3832) 
SMILES=O=Cc(c1)cc(Br)c(O)c1
InChI=InChI=1S/C7H5BrO2/c8-6-3-5(4-9)1-2-7(6)10/h1-4,10H
computed SMILES=O=CC1=CC=C(O)C(Br)=C1
accession=JP006760
date=2016.01.19 (Created 2008.10.21, modified 2011.05.06)
author=MASS SPECTROSCOPY SOC. OF JAPAN (MSSJ)
license=CC BY-NC-SA
exact mass=199.94729
ionization energy=70 eV
ion type=[M]+*
computed spectral entropy=3.493050633578588
computed normalized entropy=0.7971313104167262
SPLASH=splash10-0ik9-9110000000-cea8aa93d2789e15c768
submitter=submitter = University of Tokyo Team (Faculty of Engineering, University of Tokyo)
MoNA Rating=3.75

>  <NUM PEAKS>  (3832) 
80

>  <MASS SPECTRAL PEAKS>  (3832) 
40 3.9
41 4.2
42 4.2
43 0.32
44 1.6
45 2.4
46 3.6
48 0.28
49 12
50 22
51 10.5
52 0.28
53 47
54 3.6
55 3.2
56 0.14
57 1.7
60 8
61 36
62 6
63 99.99
64 36
65 36
66 1.05
67 2.8
68 1.4
69 1.7
71.5 0.17
72 1.7
73 7.8
74 1.8
76 0.24
77 9.5
78 1.2
79 10
80 1.5
81 10
82 14
83 1.4
84 0.12
85 1.7
86 4.5
87 3.6
89 0.14
90 4.7
91 14
92 33
93 0.8
94 1.7
95 1.2
104 1.7
105 0.14
106 1.4
116 1.9
117 6.2
118 0.22
119 8
120 4.2
121 5.3
122 0.36
131 1.4
133 1.4
141 1.9
142 0.19
143 13
144 2.4
145 12
146 0.14
149 2.4
169 1.2
170 2.2
171 1.2
172 6.1
173 12
174 2.8
199 2.8
200 32
201 26
202 30
203 3.9

$$$$

     RDKit          2D

 10 10  0  0  0  0  0  0  0  0999 V2000
    2.5992   -0.7500    0.0000 C   0  0  0  0  0  0  0  0  0  0  0  0
    1.2992   -1.5000    0.0000 C   0  0  0  0  0  0  0  0  0  0  0  0
    1.2992    1.5000    0.0000 C   0  0  0  0  0  0  0  0  0  0  0  0
   -1.2998    1.5002    0.0000 C   0  0  0  0  0  0  0  0  0  0  0  0
   -0.0008    0.7500    0.0000 C   0  0  0  0  0  0  0  0  0  0  0  0
    2.5992    0.7500    0.0000 C   0  0  0  0  0  0  0  0  0  0  0  0
   -0.0008   -0.7500    0.0000 C   0  0  0  0  0  0  0  0  0  0  0  0
    3.8981    1.5002    0.0000 Br  0  0  0  0  0  0  0  0  0  0  0  0
   -2.5989    0.7504    0.0000 O   0  0  0  0  0  0  0  0  0  0  0  0
   -1.2998   -1.5002    0.0000 O   0  0  0  0  0  0  0  0  0  0  0  0
  2  1  2  0
  5  3  1  0
  5  4  1  0
  6  1  1  0
  6  3  2  0
  7  2  1  0
  7  5  2  0
  8  6  1  0
  9  4  2  0
 10  7  1  0
M  END
>  <NAME>  (3833) 
5-BROMOSALICYLALDEHYDE

>  <SYNONYMS>  (3833) 
5-BROMO-2-HYDROXYBENZALDEHYDE

>  <SPECTRUM TYPE>  (3833) 
MS1

>  <INSTRUMENT TYPE>  (3833) 
EI-B

>  <INSTRUMENT>  (3833) 
JEOL JMS-D-300

>  <ION MODE>  (3833) 
P

>  <INCHIKEY>  (3833) 
MKKSTJKBKNCMRV-UHFFFAOYSA-N

>  <FORMULA>  (3833) 
C7H5BrO2

>  <EXACT MASS>  (3833) 
199.9472915

>  <MW>  (3833) 
200

>  <ID>  (3833) 
JP006759

>  <CONTRIBUTOR>  (3833) 
University of Tokyo Team, {Faculty of Engineering, University of Tokyo

>  <COMMENT>  (3833) 
SMILES=O=Cc(c(O)1)cc(Br)cc1
InChI=InChI=1S/C7H5BrO2/c8-6-1-2-7(10)5(3-6)4-9/h1-4,10H
computed SMILES=O=CC1=CC(Br)=CC=C1O
accession=JP006759
date=2016.01.19 (Created 2008.10.21, modified 2011.05.06)
author=MASS SPECTROSCOPY SOC. OF JAPAN (MSSJ)
license=CC BY-NC-SA
exact mass=199.94729
ionization energy=70 eV
ion type=[M]+*
computed spectral entropy=3.341554103513238
computed normalized entropy=0.7891993505324166
SPLASH=splash10-03xr-9400000000-750ef4730c7c0ebf342c
submitter=submitter = University of Tokyo Team (Faculty of Engineering, University of Tokyo)
MoNA Rating=3.75

>  <NUM PEAKS>  (3833) 
69

>  <MASS SPECTRAL PEAKS>  (3833) 
40 4.2
41 2.6
42 4.8
43 0.26
45 2.1
45.5 2.1
46 32.8
46.5 0.48
60 6.3
60.5 2.9
61 26.5
62 4.87
63 99.99
64 48.1
65 98.4
66 1.64
67 3.7
69 2.1
71.5 1.6
72 0.37
72.5 1.6
73 7.9
74 23.8
75 4.18
76 6.9
77 3.2
79 3.7
80 0.58
81 3.2
82 5.8
85 2.1
85.5 0.26
86 12.2
86.5 2.6
87 11.1
90 0.42
91 7.1
92 21.2
93 16.9
94 0.42
95 2.1
99.5 3.2
100 5.8
100.5 0.37
101 5.8
103 2.9
116 2.6
117 1.22
118 2.9
119 11.1
120 2.4
121 0.24
143 28
144 4
145 26.5
146 0.29
154 29.1
155 3.7
156 27
157 0.29
170 2.9
171 24.9
172 9.5
173 0.24
174 7.1
182 14.8
183 2.1
184 1.38
185 2.1

$$$$

     RDKit          2D

  9  9  0  0  0  0  0  0  0  0999 V2000
    0.3242    2.0633    0.0000 C   0  0  0  0  0  0  0  0  0  0  0  0
    1.6237    1.3125    0.0000 C   0  0  0  0  0  0  0  0  0  0  0  0
   -0.9749    1.3133    0.0000 C   0  0  0  0  0  0  0  0  0  0  0  0
    0.3251   -0.9383    0.0000 C   0  0  0  0  0  0  0  0  0  0  0  0
    2.9233   -0.9381    0.0000 C   0  0  0  0  0  0  0  0  0  0  0  0
    1.6242   -0.1883    0.0000 C   0  0  0  0  0  0  0  0  0  0  0  0
   -0.9744   -0.1875    0.0000 C   0  0  0  0  0  0  0  0  0  0  0  0
   -2.2734   -0.9375    0.0000 Br  0  0  0  0  0  0  0  0  0  0  0  0
    4.2222   -0.1879    0.0000 O   0  0  0  0  0  0  0  0  0  0  0  0
  2  1  2  0
  3  1  1  0
  6  2  1  0
  6  4  2  0
  6  5  1  0
  7  3  2  0
  7  4  1  0
  8  7  1  0
  9  5  2  0
M  END
>  <NAME>  (3834) 
M-BROMOBENZALDEHYDE

>  <SYNONYMS>  (3834) 


>  <SPECTRUM TYPE>  (3834) 
MS1

>  <INSTRUMENT TYPE>  (3834) 
EI-B

>  <INSTRUMENT>  (3834) 
HITACHI RMS-4

>  <ION MODE>  (3834) 
P

>  <INCHIKEY>  (3834) 
SUISZCALMBHJQX-UHFFFAOYSA-N

>  <FORMULA>  (3834) 
C7H5BrO

>  <EXACT MASS>  (3834) 
183.95237688

>  <MW>  (3834) 
184

>  <ID>  (3834) 
JP006758

>  <CONTRIBUTOR>  (3834) 
University of Tokyo Team, {Faculty of Engineering, University of Tokyo

>  <COMMENT>  (3834) 
SMILES=O=Cc(c1)cc(Br)cc1
InChI=InChI=1S/C7H5BrO/c8-7-3-1-2-6(4-7)5-9/h1-5H
computed SMILES=O=CC=1C=CC=C(Br)C1
accession=JP006758
date=2016.01.19 (Created 2008.10.21, modified 2011.05.06)
author=MASS SPECTROSCOPY SOC. OF JAPAN (MSSJ)
license=CC BY-NC-SA
exact mass=183.95238
ionization energy=70 eV
ion type=[M]+*
computed spectral entropy=2.9301011691371333
computed normalized entropy=0.7279118433008295
SPLASH=splash10-0f9i-9800000000-9a22906d6d0dae14e210
submitter=submitter = University of Tokyo Team (Faculty of Engineering, University of Tokyo)
MoNA Rating=3.75

>  <NUM PEAKS>  (3834) 
56

>  <MASS SPECTRAL PEAKS>  (3834) 
40 6.3
43 1.5
44 2.4
45 0.15
48 2.1
49 14.2
50 99.99
51 5.6
52 4.2
53 4.2
60 2.4
61 0.72
62 7.2
63 4.5
65 2.4
72 0.21
73 14.5
74 48.5
75 56
76 5.87
77 58.7
78 5.4
79 4.5
80 0.15
81 4.2
82 1.5
84 1.5
85 0.24
86 2.7
87 1.5
89 1.5
91 0.12
92 1.2
93 1.2
103 1.5
104 0.48
105 2.4
106 1.5
107 1.8
116 0.12
117 1.5
118 1.2
119 1.5
128 0.18
129 2.4
130 1.8
131 2.4
155 4.76
156 23.5
157 45.8
158 6.9
183 7.83
184 68.1
185 80.1
186 70.2
187 6.6

$$$$

     RDKit          2D

  8  8  0  0  0  0  0  0  0  0999 V2000
   -1.3000    0.7500    0.0000 C   0  0  0  0  0  0  0  0  0  0  0  0
    0.0000    1.5000    0.0000 C   0  0  0  0  0  0  0  0  0  0  0  0
   -1.3000   -0.7500    0.0000 C   0  0  0  0  0  0  0  0  0  0  0  0
    1.3000    0.7500    0.0000 C   0  0  0  0  0  0  0  0  0  0  0  0
    0.0000   -1.5000    0.0000 C   0  0  0  0  0  0  0  0  0  0  0  0
    1.3000   -0.7500    0.0000 C   0  0  0  0  0  0  0  0  0  0  0  0
   -0.0000   -3.0000    0.0000 Br  0  0  0  0  0  0  0  0  0  0  0  0
    2.5989   -1.5002    0.0000 O   0  0  0  0  0  0  0  0  0  0  0  0
  2  1  2  0
  3  1  1  0
  4  2  1  0
  5  3  2  0
  6  4  2  0
  6  5  1  0
  7  5  1  0
  8  6  1  0
M  END
>  <NAME>  (3835) 
O-BROMOPHENOL

>  <SYNONYMS>  (3835) 


>  <SPECTRUM TYPE>  (3835) 
MS1

>  <INSTRUMENT TYPE>  (3835) 
EI-B

>  <INSTRUMENT>  (3835) 
HITACHI RMS-4

>  <ION MODE>  (3835) 
P

>  <INCHIKEY>  (3835) 
VADKRMSMGWJZCF-UHFFFAOYSA-N

>  <FORMULA>  (3835) 
C6H5BrO

>  <EXACT MASS>  (3835) 
171.95237688

>  <MW>  (3835) 
172

>  <ID>  (3835) 
JP006757

>  <CONTRIBUTOR>  (3835) 
University of Tokyo Team, {Faculty of Engineering, University of Tokyo

>  <COMMENT>  (3835) 
SMILES=Oc(c1)c(Br)ccc1
InChI=InChI=1S/C6H5BrO/c7-5-3-1-2-4-6(5)8/h1-4,8H
computed SMILES=BrC=1C=CC=CC1O
accession=JP006757
date=2016.01.19 (Created 2008.10.21, modified 2011.05.06)
author=MASS SPECTROSCOPY SOC. OF JAPAN (MSSJ)
license=CC BY-NC-SA
exact mass=171.95238
ionization energy=70 eV
ion type=[M]+*
computed spectral entropy=2.748606184744167
computed normalized entropy=0.7307790333398217
SPLASH=splash10-00di-9600000000-6c8d91ec2d8cd63d450f
submitter=submitter = University of Tokyo Team (Faculty of Engineering, University of Tokyo)
MoNA Rating=3.75

>  <NUM PEAKS>  (3835) 
43

>  <MASS SPECTRAL PEAKS>  (3835) 
40 4.6
46 5.9
49 5.3
50 1.32
51 4.8
53 20.4
54 2
55 0.2
60 3.1
61 13.7
62 22.6
63 5.45
64 55.2
65 87.3
66 11.2
72 0.13
73 3.6
74 8.4
75 4.3
76 0.18
77 1.3
79 3.8
80 2
81 0.36
82 1.8
86 4.8
87 4.8
91 0.15
92 15.5
93 21.9
94 2.3
116 0.13
117 5.6
118 1.5
119 5.1
143 0.59
144 2.3
145 5.6
146 2.3
172 99.99
173 11.2
174 98.2
175 10.7

$$$$

     RDKit          2D

 10 10  0  0  0  0  0  0  0  0999 V2000
    2.5987    3.0002    0.0000 C   0  0  0  0  0  0  0  0  0  0  0  0
   -1.3000    0.7500    0.0000 C   0  0  0  0  0  0  0  0  0  0  0  0
    0.0000    1.5000    0.0000 C   0  0  0  0  0  0  0  0  0  0  0  0
   -1.3000   -0.7500    0.0000 C   0  0  0  0  0  0  0  0  0  0  0  0
    1.3000   -0.7500    0.0000 C   0  0  0  0  0  0  0  0  0  0  0  0
    2.5989    1.5002    0.0000 C   0  0  0  0  0  0  0  0  0  0  0  0
    1.3000    0.7500    0.0000 C   0  0  0  0  0  0  0  0  0  0  0  0
    0.0000   -1.5000    0.0000 C   0  0  0  0  0  0  0  0  0  0  0  0
   -0.0000   -3.0000    0.0000 Br  0  0  0  0  0  0  0  0  0  0  0  0
    3.8981    0.7504    0.0000 O   0  0  0  0  0  0  0  0  0  0  0  0
  3  2  2  0
  4  2  1  0
  6  1  1  0
  7  3  1  0
  7  5  2  0
  7  6  1  0
  8  4  2  0
  8  5  1  0
  9  8  1  0
 10  6  2  0
M  END
>  <NAME>  (3836) 
M-BROMOACETOPHENONE

>  <SYNONYMS>  (3836) 


>  <SPECTRUM TYPE>  (3836) 
MS1

>  <INSTRUMENT TYPE>  (3836) 
EI-B

>  <INSTRUMENT>  (3836) 
HITACHI RMS-4

>  <ION MODE>  (3836) 
P

>  <INCHIKEY>  (3836) 
JYAQYXOVOHJRCS-UHFFFAOYSA-N

>  <FORMULA>  (3836) 
C8H7BrO

>  <EXACT MASS>  (3836) 
197.968026944

>  <MW>  (3836) 
198

>  <ID>  (3836) 
JP006756

>  <CONTRIBUTOR>  (3836) 
University of Tokyo Team, {Faculty of Engineering, University of Tokyo

>  <COMMENT>  (3836) 
SMILES=CC(=O)c(c1)cc(Br)cc1
InChI=InChI=1S/C8H7BrO/c1-6(10)7-3-2-4-8(9)5-7/h2-5H,1H3
computed SMILES=O=C(C=1C=CC=C(Br)C1)C
accession=JP006756
date=2016.01.19 (Created 2008.10.21, modified 2011.05.06)
author=MASS SPECTROSCOPY SOC. OF JAPAN (MSSJ)
license=CC BY-NC-SA
exact mass=197.96803
ionization energy=70 eV
ion type=[M]+*
computed spectral entropy=2.6959242920425277
computed normalized entropy=0.6697363358952051
SPLASH=splash10-0fbc-9100000000-432b3fc56e4068c9dc2f
submitter=submitter = University of Tokyo Team (Faculty of Engineering, University of Tokyo)
MoNA Rating=3.75

>  <NUM PEAKS>  (3836) 
56

>  <MASS SPECTRAL PEAKS>  (3836) 
39 9
40 1
41 1
42 0.5
43 99.99
44 2
45 1
48 0.1
49 5
50 92
51 21
52 0.2
53 2
60 1
61 4
62 0.6
63 9
64 3
65 3
73 0.5
74 39
75 56
76 68
77 0.8
78 1
79 2
80 1
81 0.2
82 1
84 1
85 1
86 0.2
87 2
88 1
89 5
90 0.3
91 3
101 1
102 1
103 0.1
104 5
105 1
106 1
107 0.1
155 12
156 2
157 11
158 0.2
183 13
184 2
185 13
186 0.2
198 5
199 1
200 5
201 1

$$$$

     RDKit          2D

 10 10  0  0  0  0  0  0  0  0999 V2000
    2.5989   -0.7496    0.0000 C   0  0  0  0  0  0  0  0  0  0  0  0
    0.0008   -2.2500    0.0000 C   0  0  0  0  0  0  0  0  0  0  0  0
   -1.2992    0.0000    0.0000 C   0  0  0  0  0  0  0  0  0  0  0  0
   -1.2992   -3.0000    0.0000 C   0  0  0  0  0  0  0  0  0  0  0  0
   -2.5992   -0.7500    0.0000 C   0  0  0  0  0  0  0  0  0  0  0  0
    1.2998    0.0002    0.0000 C   0  0  0  0  0  0  0  0  0  0  0  0
    0.0008   -0.7500    0.0000 C   0  0  0  0  0  0  0  0  0  0  0  0
   -2.5992   -2.2500    0.0000 C   0  0  0  0  0  0  0  0  0  0  0  0
   -3.8981   -3.0002    0.0000 Br  0  0  0  0  0  0  0  0  0  0  0  0
    1.2995    1.5002    0.0000 O   0  0  0  0  0  0  0  0  0  0  0  0
  4  2  2  0
  5  3  1  0
  6  1  1  0
  7  2  1  0
  7  3  2  0
  7  6  1  0
  8  4  1  0
  8  5  2  0
  9  8  1  0
 10  6  2  0
M  END
>  <NAME>  (3837) 
P-BROMOACETOPHENONE

>  <SYNONYMS>  (3837) 


>  <SPECTRUM TYPE>  (3837) 
MS1

>  <INSTRUMENT TYPE>  (3837) 
EI-B

>  <INSTRUMENT>  (3837) 
HITACHI RMS-4

>  <ION MODE>  (3837) 
P

>  <INCHIKEY>  (3837) 
WYECURVXVYPVAT-UHFFFAOYSA-N

>  <FORMULA>  (3837) 
C8H7BrO

>  <EXACT MASS>  (3837) 
197.968026944

>  <MW>  (3837) 
198

>  <ID>  (3837) 
JP006755

>  <CONTRIBUTOR>  (3837) 
University of Tokyo Team, {Faculty of Engineering, University of Tokyo

>  <COMMENT>  (3837) 
SMILES=CC(=O)c(c1)ccc(Br)c1
InChI=InChI=1S/C8H7BrO/c1-6(10)7-2-4-8(9)5-3-7/h2-5H,1H3
computed SMILES=O=C(C1=CC=C(Br)C=C1)C
accession=JP006755
date=2016.01.19 (Created 2008.10.21, modified 2011.05.06)
author=MASS SPECTROSCOPY SOC. OF JAPAN (MSSJ)
license=CC BY-NC-SA
exact mass=197.96803
ionization energy=70 eV
ion type=[M]+*
computed spectral entropy=2.9362660219855417
computed normalized entropy=0.7626372611484784
SPLASH=splash10-00bc-9200000000-22e349fcc994a54a2803
submitter=submitter = University of Tokyo Team (Faculty of Engineering, University of Tokyo)
MoNA Rating=3.75

>  <NUM PEAKS>  (3837) 
47

>  <MASS SPECTRAL PEAKS>  (3837) 
39 13
40 3.3
41 7.9
42 0.79
43 99.99
44 3.8
49 12.1
50 8.67
51 22.1
52 4.6
53 5
54 0.29
55 4.6
60 2.9
61 6.3
62 0.92
63 12.5
64 4.6
65 4.6
73 0.83
74 80
75 74.2
76 80.4
77 1.21
78 3.3
79 3.8
89 7.9
90 0.63
91 7.1
104 10.4
105 4.2
106 0.25
107 2.9
155 22.9
156 4.2
157 2.13
158 3.8
169 2.9
171 2.9
183 3.54
184 5
185 33.8
186 4.9
198 1.29
199 3.3
200 12.1
201 3.3

$$$$

     RDKit          2D

 10 10  0  0  0  0  0  0  0  0999 V2000
    3.5637    0.9495    0.0000 C   0  0  0  0  0  0  0  0  0  0  0  0
   -0.3238    1.6700    0.0000 C   0  0  0  0  0  0  0  0  0  0  0  0
    0.9712   -0.5730    0.0000 C   0  0  0  0  0  0  0  0  0  0  0  0
   -1.6229    0.9200    0.0000 C   0  0  0  0  0  0  0  0  0  0  0  0
   -0.3279   -1.3230    0.0000 C   0  0  0  0  0  0  0  0  0  0  0  0
    2.2610    1.6930    0.0000 C   0  0  0  0  0  0  0  0  0  0  0  0
    0.9657    0.9365    0.0000 C   0  0  0  0  0  0  0  0  0  0  0  0
   -1.6410   -0.5685    0.0000 C   0  0  0  0  0  0  0  0  0  0  0  0
   -2.9438   -1.3119    0.0000 Cl  0  0  0  0  0  0  0  0  0  0  0  0
    2.2534    3.1930    0.0000 O   0  0  0  0  0  0  0  0  0  0  0  0
  4  2  2  0
  5  3  1  0
  6  1  1  0
  7  2  1  0
  7  3  2  0
  7  6  1  0
  8  4  1  0
  8  5  2  0
  9  8  1  0
 10  6  2  0
M  END
>  <NAME>  (3838) 
P-CHLOROACETOPHENONE

>  <SYNONYMS>  (3838) 


>  <SPECTRUM TYPE>  (3838) 
MS1

>  <INSTRUMENT TYPE>  (3838) 
EI-B

>  <INSTRUMENT>  (3838) 
HITACHI RMS-4

>  <ION MODE>  (3838) 
P

>  <INCHIKEY>  (3838) 
BUZYGTVTZYSBCU-UHFFFAOYSA-N

>  <FORMULA>  (3838) 
C8H7ClO

>  <EXACT MASS>  (3838) 
154.018542524

>  <MW>  (3838) 
154

>  <ID>  (3838) 
JP006754

>  <CONTRIBUTOR>  (3838) 
University of Tokyo Team, {Faculty of Engineering, University of Tokyo

>  <COMMENT>  (3838) 
SMILES=CC(=O)c(c1)ccc(Cl)c1
InChI=InChI=1S/C8H7ClO/c1-6(10)7-2-4-8(9)5-3-7/h2-5H,1H3
computed SMILES=O=C(C1=CC=C(Cl)C=C1)C
accession=JP006754
date=2016.01.19 (Created 2008.10.21, modified 2011.05.06)
author=MASS SPECTROSCOPY SOC. OF JAPAN (MSSJ)
license=CC BY-NC-SA
exact mass=154.01854
ionization energy=70 eV
ion type=[M]+*
computed spectral entropy=3.03705643703111
computed normalized entropy=0.7544822590337324
SPLASH=splash10-0ug0-9400000000-54245ae6e971885c4c56
submitter=submitter = University of Tokyo Team (Faculty of Engineering, University of Tokyo)
MoNA Rating=3.75

>  <NUM PEAKS>  (3838) 
56

>  <MASS SPECTRAL PEAKS>  (3838) 
40 3
41 3
42 8
43 8.9
44 3
47 3
48 3
49 0.8
50 99.99
51 27
52 4
53 0.3
60 3
61 9
62 10
63 1.3
64 3
65 4
72 3
73 1
74 27
75 85
76 17
77 0.7
78 2
84 5
85 9
86 0.4
87 5
88 3
89 7
90 0.3
91 4
97 3
98 3
99 0.4
100 2
101 3
102 2
103 0.2
104 8
110 3
111 37
112 0.6
113 13
114 3
125 3
127 0.3
139 75
140 5
141 16
142 0.3
154 13
155 4
156 6
157 2

$$$$

     RDKit          2D

  7  7  0  0  0  0  0  0  0  0999 V2000
   -1.3000    0.7500    0.0000 C   0  0  0  0  0  0  0  0  0  0  0  0
    0.0000    1.5000    0.0000 C   0  0  0  0  0  0  0  0  0  0  0  0
   -1.3000   -0.7500    0.0000 C   0  0  0  0  0  0  0  0  0  0  0  0
    1.3000    0.7500    0.0000 C   0  0  0  0  0  0  0  0  0  0  0  0
    0.0000   -1.5000    0.0000 C   0  0  0  0  0  0  0  0  0  0  0  0
    1.3000   -0.7500    0.0000 C   0  0  0  0  0  0  0  0  0  0  0  0
    2.5989   -1.5002    0.0000 Br  0  0  0  0  0  0  0  0  0  0  0  0
  2  1  2  0
  3  1  1  0
  4  2  1  0
  5  3  2  0
  6  4  2  0
  6  5  1  0
  7  6  1  0
M  END
>  <NAME>  (3839) 
BROMOBENZENE

>  <SYNONYMS>  (3839) 


>  <SPECTRUM TYPE>  (3839) 
MS1

>  <INSTRUMENT TYPE>  (3839) 
EI-B

>  <INSTRUMENT>  (3839) 
HITACHI RMS-4

>  <ION MODE>  (3839) 
P

>  <INCHIKEY>  (3839) 
QARVLSVVCXYDNA-UHFFFAOYSA-N

>  <FORMULA>  (3839) 
C6H5Br

>  <EXACT MASS>  (3839) 
155.95746226

>  <MW>  (3839) 
156

>  <ID>  (3839) 
JP006753

>  <CONTRIBUTOR>  (3839) 
University of Tokyo Team, {Faculty of Engineering, University of Tokyo

>  <COMMENT>  (3839) 
SMILES=c(c1)ccc(Br)c1
InChI=InChI=1S/C6H5Br/c7-6-4-2-1-3-5-6/h1-5H
computed SMILES=BrC=1C=CC=CC1
accession=JP006753
date=2016.01.19 (Created 2008.10.21, modified 2011.05.06)
author=MASS SPECTROSCOPY SOC. OF JAPAN (MSSJ)
license=CC BY-NC-SA
exact mass=155.95746
ionization energy=70 eV
ion type=[M]+*
computed spectral entropy=2.013956925140881
computed normalized entropy=0.6337076187662892
SPLASH=splash10-0fb9-9000000000-26ef1930786e7787858d
submitter=submitter = University of Tokyo Team (Faculty of Engineering, University of Tokyo)
MoNA Rating=3.75

>  <NUM PEAKS>  (3839) 
24

>  <MASS SPECTRAL PEAKS>  (3839) 
48 2.1
49 10.3
50 80.2
51 9
52 4.2
60 1.6
61 3
62 0.28
63 1.6
72 1.4
73 6.1
74 1.84
75 10.7
76 7.7
77 99.99
78 0.54
79 3
80 1.4
81 2.8
82 0.14
156 10.7
157 1.9
158 10.5
159 1.6

$$$$

     RDKit          2D

 14 16  0  0  0  0  0  0  0  0999 V2000
   -5.1962    4.5000    0.0000 C   0  0  0  0  0  0  0  0  0  0  0  0
    1.5000   -0.0000    0.0000 C   0  0  0  0  0  0  0  0  0  0  0  0
   -2.5981    4.5000    0.0000 C   0  0  0  0  0  0  0  0  0  0  0  0
   -1.2990    3.7500    0.0000 C   0  0  0  0  0  0  0  0  0  0  0  0
   -3.8971    2.2500    0.0000 C   0  0  0  0  0  0  0  0  0  0  0  0
   -0.0000   -1.5000    0.0000 C   0  0  0  0  0  0  0  0  0  0  0  0
   -3.8971    3.7500    0.0000 C   0  0  0  0  0  0  0  0  0  0  0  0
   -1.2990    2.2500    0.0000 C   0  0  0  0  0  0  0  0  0  0  0  0
   -2.5981    1.5000    0.0000 C   0  0  0  0  0  0  0  0  0  0  0  0
   -1.2990   -0.7500    0.0000 C   0  0  0  0  0  0  0  0  0  0  0  0
    0.0000    1.5000    0.0000 C   0  0  0  0  0  0  0  0  0  0  0  0
    0.0000    0.0000    0.0000 C   0  0  0  0  0  0  0  0  0  0  0  0
    1.2990    2.2500    0.0000 O   0  0  0  0  0  0  0  0  0  0  0  0
   -2.5981   -0.0000    0.0000 O   0  0  0  0  0  0  0  0  0  0  0  0
  4  3  2  0
  7  1  1  0
  7  3  1  0
  7  5  2  0
  8  4  1  0
  9  5  1  0
  9  8  2  0
 10  6  1  0
 11  8  1  0
 12  2  1  0
 12  6  1  0
 12 10  1  0
 12 11  1  0
 13 11  2  0
 14  9  1  0
 14 10  1  0
M  END
>  <NAME>  (3840) 
6-METHYL-3,4-(5'-METHYL)BENZO-2-OXABICYCLO(4.1.0)HEPT-3-EN-5-ONE

>  <SYNONYMS>  (3840) 
3,7-DIMETHYL-2,3-METHANOCHROMAN-4-ONE

>  <SPECTRUM TYPE>  (3840) 
MS1

>  <INSTRUMENT TYPE>  (3840) 
EI-B

>  <INSTRUMENT>  (3840) 
HITACHI RMS-4

>  <ION MODE>  (3840) 
P

>  <INCHIKEY>  (3840) 
AYOLJEXZSUEOSM-UHFFFAOYSA-N

>  <FORMULA>  (3840) 
C12H12O2

>  <EXACT MASS>  (3840) 
188.083729624

>  <MW>  (3840) 
188

>  <ID>  (3840) 
JP006752

>  <CONTRIBUTOR>  (3840) 
University of Tokyo Team, {Faculty of Engineering, University of Tokyo

>  <COMMENT>  (3840) 
SMILES=Cc(c3)cc(O1)c(c3)C(=O)C(C)(C2)C12
InChI=InChI=1S/C12H12O2/c1-7-3-4-8-9(5-7)14-10-6-12(10,2)11(8)13/h3-5,10H,6H2,1-2H3
computed SMILES=O=C1C2=CC=C(C=C2OC3CC13C)C
accession=JP006752
date=2016.01.19 (Created 2008.10.21, modified 2011.05.06)
author=MASS SPECTROSCOPY SOC. OF JAPAN (MSSJ)
license=CC BY-NC-SA
exact mass=188.08373
ionization energy=70 eV
ion type=[M]+*
computed spectral entropy=2.9833622851741977
computed normalized entropy=0.8262060665315771
SPLASH=splash10-000l-7900000000-85091fba2859e57e2996
submitter=submitter = University of Tokyo Team (Faculty of Engineering, University of Tokyo)
MoNA Rating=3.75

>  <NUM PEAKS>  (3840) 
37

>  <MASS SPECTRAL PEAKS>  (3840) 
39 29
41 19
43 17
50 0.08
51 22
52 10
53 16
55 0.08
63 18
64 8
65 11
77 0.17
78 14
79 13
83 17
89 0.23
90 25
91 21
105 8
106 0.08
115 13
117 8
118 31
119 0.11
135 16
145 57
146 7
148 0.75
159 36
160 7
161 6
173 0.09
186 1
187 4
188 99.99
189 0.12
190 1.5

$$$$

     RDKit          2D

 14 16  0  0  0  0  0  0  0  0999 V2000
    1.5000   -0.0000    0.0000 C   0  0  0  0  0  0  0  0  0  0  0  0
   -2.5981    4.5000    0.0000 C   0  0  0  0  0  0  0  0  0  0  0  0
   -1.2990    3.7500    0.0000 C   0  0  0  0  0  0  0  0  0  0  0  0
   -3.8971    2.2500    0.0000 C   0  0  0  0  0  0  0  0  0  0  0  0
   -0.0000   -1.5000    0.0000 C   0  0  0  0  0  0  0  0  0  0  0  0
   -3.8971    3.7500    0.0000 C   0  0  0  0  0  0  0  0  0  0  0  0
   -1.2990    2.2500    0.0000 C   0  0  0  0  0  0  0  0  0  0  0  0
   -2.5981    1.5000    0.0000 C   0  0  0  0  0  0  0  0  0  0  0  0
   -1.2990   -0.7500    0.0000 C   0  0  0  0  0  0  0  0  0  0  0  0
    0.0000    1.5000    0.0000 C   0  0  0  0  0  0  0  0  0  0  0  0
    0.0000    0.0000    0.0000 C   0  0  0  0  0  0  0  0  0  0  0  0
   -5.1962    4.5000    0.0000 Cl  0  0  0  0  0  0  0  0  0  0  0  0
    1.2990    2.2500    0.0000 O   0  0  0  0  0  0  0  0  0  0  0  0
   -2.5981   -0.0000    0.0000 O   0  0  0  0  0  0  0  0  0  0  0  0
  3  2  2  0
  6  2  1  0
  6  4  2  0
  7  3  1  0
  8  4  1  0
  8  7  2  0
  9  5  1  0
 10  7  1  0
 11  1  1  0
 11  5  1  0
 11  9  1  0
 11 10  1  0
 12  6  1  0
 13 10  2  0
 14  8  1  0
 14  9  1  0
M  END
>  <NAME>  (3841) 
6-METHYL-3,4-(5'-CHLORO)BENZO-2-OXABICYCLO(4.1.0)HEPT-3-EN-5-ONE

>  <SYNONYMS>  (3841) 
7-CHLORO-3-METHYL-2,3-METHANOCHROMAN-4-ONE

>  <SPECTRUM TYPE>  (3841) 
MS1

>  <INSTRUMENT TYPE>  (3841) 
EI-B

>  <INSTRUMENT>  (3841) 
HITACHI RMS-4

>  <ION MODE>  (3841) 
P

>  <INCHIKEY>  (3841) 
QXHWEEJMQGJQLJ-UHFFFAOYSA-N

>  <FORMULA>  (3841) 
C11H9ClO2

>  <EXACT MASS>  (3841) 
208.029107208

>  <MW>  (3841) 
208

>  <ID>  (3841) 
JP006751

>  <CONTRIBUTOR>  (3841) 
University of Tokyo Team, {Faculty of Engineering, University of Tokyo

>  <COMMENT>  (3841) 
SMILES=Clc(c3)cc(O1)c(c3)C(=O)C(C)(C2)C12
InChI=InChI=1S/C11H9ClO2/c1-11-5-9(11)14-8-4-6(12)2-3-7(8)10(11)13/h2-4,9H,5H2,1H3
computed SMILES=O=C1C2=CC=C(Cl)C=C2OC3CC13C
accession=JP006751
date=2016.01.19 (Created 2008.10.21, modified 2011.05.06)
author=MASS SPECTROSCOPY SOC. OF JAPAN (MSSJ)
license=CC BY-NC-SA
exact mass=208.02911
ionization energy=70 eV
ion type=[M]+*
computed spectral entropy=3.3267663628026254
computed normalized entropy=0.8640620326672745
SPLASH=splash10-0900-9830000000-0618b94d92c3e391c660
submitter=submitter = University of Tokyo Team (Faculty of Engineering, University of Tokyo)
MoNA Rating=3.75

>  <NUM PEAKS>  (3841) 
47

>  <MASS SPECTRAL PEAKS>  (3841) 
38 12
39 57
41 42
43 0.17
50 23
51 22
53 39
62 0.17
63 56
69 11
73 12
74 0.21
75 50
76 10
77 10
91 0.2
98 10
99 13
101 10
102 0.1
105 6
110 34
111 10
112 0.13
115 25
116 10
117 13
126 0.17
128 11
138 31
139 12
140 0.12
145 23
155 15
165 44
167 0.17
168 45
170 13
179 31
181 0.15
193 8
195 3
207 6
208 99.99
209 12
210 34
211 5

$$$$

     RDKit          2D

 15 17  0  0  0  0  0  0  0  0999 V2000
    1.7745    4.0245    0.0000 C   0  0  0  0  0  0  0  0  0  0  0  0
   -6.7697    1.2255    0.0000 C   0  0  0  0  0  0  0  0  0  0  0  0
   -4.1716    2.7255    0.0000 C   0  0  0  0  0  0  0  0  0  0  0  0
   -2.8726    3.4755    0.0000 C   0  0  0  0  0  0  0  0  0  0  0  0
   -2.8726    0.4755    0.0000 C   0  0  0  0  0  0  0  0  0  0  0  0
    2.3236    1.9755    0.0000 C   0  0  0  0  0  0  0  0  0  0  0  0
   -4.1716    1.2255    0.0000 C   0  0  0  0  0  0  0  0  0  0  0  0
   -1.5736    2.7255    0.0000 C   0  0  0  0  0  0  0  0  0  0  0  0
   -1.5736    1.2255    0.0000 C   0  0  0  0  0  0  0  0  0  0  0  0
    1.0245    1.2255    0.0000 C   0  0  0  0  0  0  0  0  0  0  0  0
   -0.2745    3.4755    0.0000 C   0  0  0  0  0  0  0  0  0  0  0  0
    1.0245    2.7255    0.0000 C   0  0  0  0  0  0  0  0  0  0  0  0
   -0.2745    4.9755    0.0000 O   0  0  0  0  0  0  0  0  0  0  0  0
   -5.4707    0.4755    0.0000 O   0  0  0  0  0  0  0  0  0  0  0  0
   -0.2745    0.4755    0.0000 O   0  0  0  0  0  0  0  0  0  0  0  0
  4  3  2  0
  7  3  1  0
  7  5  2  0
  8  4  1  0
  9  5  1  0
  9  8  2  0
 10  6  1  0
 11  8  1  0
 12  1  1  0
 12  6  1  0
 12 10  1  0
 12 11  1  0
 13 11  2  0
 14  2  1  0
 14  7  1  0
 15  9  1  0
 15 10  1  0
M  END
>  <NAME>  (3842) 
6-METHYL-3,4-(5'-METHOXY)BENZO-2-OXABICYCLO(4.1.0)HEPT-3-EN-5-ONE

>  <SYNONYMS>  (3842) 
7-METHOXY-3-METHYL-2,3-METHANOCHROMAN-4-ONE

>  <SPECTRUM TYPE>  (3842) 
MS1

>  <INSTRUMENT TYPE>  (3842) 
EI-B

>  <INSTRUMENT>  (3842) 
HITACHI RMS-4

>  <ION MODE>  (3842) 
P

>  <INCHIKEY>  (3842) 
YMAGECSHLQMIKM-UHFFFAOYSA-N

>  <FORMULA>  (3842) 
C12H12O3

>  <EXACT MASS>  (3842) 
204.07864424399997

>  <MW>  (3842) 
204

>  <ID>  (3842) 
JP006750

>  <CONTRIBUTOR>  (3842) 
University of Tokyo Team, {Faculty of Engineering, University of Tokyo

>  <COMMENT>  (3842) 
SMILES=COc(c3)cc(O1)c(c3)C(=O)C(C)(C2)C12
InChI=InChI=1S/C12H12O3/c1-12-6-10(12)15-9-5-7(14-2)3-4-8(9)11(12)13/h3-5,10H,6H2,1-2H3
computed SMILES=O=C1C2=CC=C(OC)C=C2OC3CC13C
accession=JP006750
date=2016.01.19 (Created 2008.10.21, modified 2011.05.06)
author=MASS SPECTROSCOPY SOC. OF JAPAN (MSSJ)
license=CC BY-NC-SA
exact mass=204.07864
ionization energy=70 eV
ion type=[M]+*
computed spectral entropy=3.199478969165353
computed normalized entropy=0.8221034693504768
SPLASH=splash10-0ik9-7920000000-379d79e0bf5e59c7324b
submitter=submitter = University of Tokyo Team (Faculty of Engineering, University of Tokyo)
MoNA Rating=3.75

>  <NUM PEAKS>  (3842) 
49

>  <MASS SPECTRAL PEAKS>  (3842) 
39 35
41 31
43 12
50 0.15
51 33
52 14
53 28
55 0.09
62 14
63 77
64 15
65 0.14
69 13
75 13
76 9
77 0.23
78 10
79 25
91 14
92 0.13
103 9
105 9
106 73
107 0.22
108 9
115 11
118 8
122 0.11
132 9
133 11
134 64
135 0.19
149 14
150 9
151 19
161 0.93
162 11
163 10
164 90
165 0.11
175 46
176 11
177 5
189 0.25
190 3
203 7
204 99.99
205 0.22
206 0.5

$$$$

     RDKit          2D

 15 17  0  0  0  0  0  0  0  0999 V2000
    2.9865    0.3248    0.0000 C   0  0  0  0  0  0  0  0  0  0  0  0
   -4.2587   -3.2243    0.0000 C   0  0  0  0  0  0  0  0  0  0  0  0
   -4.2587    0.8738    0.0000 C   0  0  0  0  0  0  0  0  0  0  0  0
    1.6875   -1.9252    0.0000 C   0  0  0  0  0  0  0  0  0  0  0  0
    0.3885   -2.6752    0.0000 C   0  0  0  0  0  0  0  0  0  0  0  0
    0.3885    0.3248    0.0000 C   0  0  0  0  0  0  0  0  0  0  0  0
   -4.8077   -1.1752    0.0000 C   0  0  0  0  0  0  0  0  0  0  0  0
    1.6875   -0.4252    0.0000 C   0  0  0  0  0  0  0  0  0  0  0  0
   -0.9106   -1.9252    0.0000 C   0  0  0  0  0  0  0  0  0  0  0  0
   -0.9106   -0.4252    0.0000 C   0  0  0  0  0  0  0  0  0  0  0  0
   -2.2096   -2.6752    0.0000 C   0  0  0  0  0  0  0  0  0  0  0  0
   -3.5087   -1.9252    0.0000 C   0  0  0  0  0  0  0  0  0  0  0  0
   -3.5087   -0.4252    0.0000 C   0  0  0  0  0  0  0  0  0  0  0  0
   -2.2096   -4.1752    0.0000 O   0  0  0  0  0  0  0  0  0  0  0  0
   -2.2096    0.3248    0.0000 O   0  0  0  0  0  0  0  0  0  0  0  0
  5  4  2  0
  8  1  1  0
  8  4  1  0
  8  6  2  0
  9  5  1  0
 10  6  1  0
 10  9  2  0
 11  9  1  0
 12  2  1  0
 12  7  1  0
 12 11  1  0
 13  3  1  0
 13  7  1  0
 13 12  1  0
 14 11  2  0
 15 10  1  0
 15 13  1  0
M  END
>  <NAME>  (3843) 
1,6,5'-TRIMETHYL-3,4-BENZO-2-OXABICYCLO(4.1.0)HEPT-3-EN-5-ONE

>  <SYNONYMS>  (3843) 
2,3,7-TRIMETHYL-2,3-METHANOCHROMAN-4-ONE

>  <SPECTRUM TYPE>  (3843) 
MS1

>  <INSTRUMENT TYPE>  (3843) 
EI-B

>  <INSTRUMENT>  (3843) 
HITACHI RMS-4

>  <ION MODE>  (3843) 
P

>  <INCHIKEY>  (3843) 
NVDZXYOUPPJXIV-UHFFFAOYSA-N

>  <FORMULA>  (3843) 
C13H14O2

>  <EXACT MASS>  (3843) 
202.099379688

>  <MW>  (3843) 
202

>  <ID>  (3843) 
JP006749

>  <CONTRIBUTOR>  (3843) 
University of Tokyo Team, {Faculty of Engineering, University of Tokyo

>  <COMMENT>  (3843) 
SMILES=Cc(c3)cc(O1)c(c3)C(=O)C(C)(C2)C(C)12
InChI=InChI=1S/C13H14O2/c1-8-4-5-9-10(6-8)15-13(3)7-12(13,2)11(9)14/h4-6H,7H2,1-3H3
computed SMILES=O=C1C2=CC=C(C=C2OC3(C)CC13C)C
accession=JP006749
date=2016.01.19 (Created 2008.10.21, modified 2011.05.06)
author=MASS SPECTROSCOPY SOC. OF JAPAN (MSSJ)
license=CC BY-NC-SA
exact mass=202.09938
ionization energy=70 eV
ion type=[M]+*
computed spectral entropy=3.2300960691700755
computed normalized entropy=0.8389538280910102
SPLASH=splash10-0r09-4920000000-29a505767c92c422afb9
submitter=submitter = University of Tokyo Team (Faculty of Engineering, University of Tokyo)
MoNA Rating=3.75

>  <NUM PEAKS>  (3843) 
47

>  <MASS SPECTRAL PEAKS>  (3843) 
50 13
51 26
52 16
53 0.26
62 8
63 28
64 9
65 0.17
67 16
69 10
75 7
77 0.38
78 24
79 14
86 14
89 0.33
90 33
91 27
105 14
106 0.1
107 20
108 43
115 21
116 0.1
118 40
119 8
121 8
128 0.08
129 7
131 15
135 65
145 0.25
157 6
158 7
159 99.99
160 0.27
161 13
162 51
163 6
173 0.3
174 8
187 46
188 7
201 0.08
202 96
203 15
204 3

$$$$

     RDKit          2D

 15 17  0  0  0  0  0  0  0  0999 V2000
   -4.2587   -3.2243    0.0000 C   0  0  0  0  0  0  0  0  0  0  0  0
   -4.2587    0.8738    0.0000 C   0  0  0  0  0  0  0  0  0  0  0  0
    1.6875   -1.9252    0.0000 C   0  0  0  0  0  0  0  0  0  0  0  0
    0.3885   -2.6752    0.0000 C   0  0  0  0  0  0  0  0  0  0  0  0
    0.3885    0.3248    0.0000 C   0  0  0  0  0  0  0  0  0  0  0  0
   -4.8077   -1.1752    0.0000 C   0  0  0  0  0  0  0  0  0  0  0  0
    1.6875   -0.4252    0.0000 C   0  0  0  0  0  0  0  0  0  0  0  0
   -0.9106   -1.9252    0.0000 C   0  0  0  0  0  0  0  0  0  0  0  0
   -0.9106   -0.4252    0.0000 C   0  0  0  0  0  0  0  0  0  0  0  0
   -2.2096   -2.6752    0.0000 C   0  0  0  0  0  0  0  0  0  0  0  0
   -3.5087   -1.9252    0.0000 C   0  0  0  0  0  0  0  0  0  0  0  0
   -3.5087   -0.4252    0.0000 C   0  0  0  0  0  0  0  0  0  0  0  0
    2.9865    0.3248    0.0000 Cl  0  0  0  0  0  0  0  0  0  0  0  0
   -2.2096   -4.1752    0.0000 O   0  0  0  0  0  0  0  0  0  0  0  0
   -2.2096    0.3248    0.0000 O   0  0  0  0  0  0  0  0  0  0  0  0
  4  3  2  0
  7  3  1  0
  7  5  2  0
  8  4  1  0
  9  5  1  0
  9  8  2  0
 10  8  1  0
 11  1  1  0
 11  6  1  0
 11 10  1  0
 12  2  1  0
 12  6  1  0
 12 11  1  0
 13  7  1  0
 14 10  2  0
 15  9  1  0
 15 12  1  0
M  END
>  <NAME>  (3844) 
1,6-DIMETHYL-3,4-(5'-CHLORO)BENZO-2-OXABICYCLO(4.1.0)HEPT-3-EN-5-ONE

>  <SYNONYMS>  (3844) 
7-CHLORO-2,3-DIMETHYL-2,3-METHANOCHROMAN-4-ONE

>  <SPECTRUM TYPE>  (3844) 
MS1

>  <INSTRUMENT TYPE>  (3844) 
EI-B

>  <INSTRUMENT>  (3844) 
HITACHI RMS-4

>  <ION MODE>  (3844) 
P

>  <INCHIKEY>  (3844) 
JCJUWMGJSYDXDU-UHFFFAOYSA-N

>  <FORMULA>  (3844) 
C12H11ClO2

>  <EXACT MASS>  (3844) 
222.044757272

>  <MW>  (3844) 
222

>  <ID>  (3844) 
JP006748

>  <CONTRIBUTOR>  (3844) 
University of Tokyo Team, {Faculty of Engineering, University of Tokyo

>  <COMMENT>  (3844) 
SMILES=Clc(c3)cc(O1)c(c3)C(=O)C(C)(C2)C(C)12
InChI=InChI=1S/C12H11ClO2/c1-11-6-12(11,2)15-9-5-7(13)3-4-8(9)10(11)14/h3-5H,6H2,1-2H3
computed SMILES=O=C1C2=CC=C(Cl)C=C2OC3(C)CC13C
accession=JP006748
date=2016.01.19 (Created 2008.10.21, modified 2011.05.06)
author=MASS SPECTROSCOPY SOC. OF JAPAN (MSSJ)
license=CC BY-NC-SA
exact mass=222.04476
ionization energy=70 eV
ion type=[M]+*
computed spectral entropy=3.3020165998954645
computed normalized entropy=0.8356904395360739
SPLASH=splash10-00di-3960000000-50eb5ea1ce8670cde6d8
submitter=submitter = University of Tokyo Team (Faculty of Engineering, University of Tokyo)
MoNA Rating=3.75

>  <NUM PEAKS>  (3844) 
52

>  <MASS SPECTRAL PEAKS>  (3844) 
39 17
41 22
43 32
51 0.05
53 11
63 14
65 7
67 0.17
69 5
75 12
99 7
110 0.12
115 11
116 6
126 6
127 0.06
128 25
129 5
130 8
138 0.21
139 5
140 7
141 5
144 0.06
145 14
154 8
155 46
156 0.07
157 16
158 5
159 7
165 0.05
178 6
179 34
180 14
181 0.2
182 30
183 6
184 9
187 0.16
193 12
194 5
195 5
207 0.26
208 13
209 12
210 5
221 0.17
222 99.99
223 36
224 35
225 1

$$$$

     RDKit          2D

 16 18  0  0  0  0  0  0  0  0999 V2000
    2.1863    2.0858    0.0000 C   0  0  0  0  0  0  0  0  0  0  0  0
    2.1863   -2.0123    0.0000 C   0  0  0  0  0  0  0  0  0  0  0  0
   -6.3579   -0.7132    0.0000 C   0  0  0  0  0  0  0  0  0  0  0  0
   -3.7599    0.7868    0.0000 C   0  0  0  0  0  0  0  0  0  0  0  0
   -2.4608    1.5368    0.0000 C   0  0  0  0  0  0  0  0  0  0  0  0
   -2.4608   -1.4632    0.0000 C   0  0  0  0  0  0  0  0  0  0  0  0
    2.7353    0.0368    0.0000 C   0  0  0  0  0  0  0  0  0  0  0  0
   -3.7599   -0.7132    0.0000 C   0  0  0  0  0  0  0  0  0  0  0  0
   -1.1618    0.7868    0.0000 C   0  0  0  0  0  0  0  0  0  0  0  0
   -1.1618   -0.7132    0.0000 C   0  0  0  0  0  0  0  0  0  0  0  0
    0.1373    1.5368    0.0000 C   0  0  0  0  0  0  0  0  0  0  0  0
    1.4363    0.7868    0.0000 C   0  0  0  0  0  0  0  0  0  0  0  0
    1.4363   -0.7132    0.0000 C   0  0  0  0  0  0  0  0  0  0  0  0
    0.1373    3.0368    0.0000 O   0  0  0  0  0  0  0  0  0  0  0  0
   -5.0589   -1.4632    0.0000 O   0  0  0  0  0  0  0  0  0  0  0  0
    0.1373   -1.4632    0.0000 O   0  0  0  0  0  0  0  0  0  0  0  0
  5  4  2  0
  8  4  1  0
  8  6  2  0
  9  5  1  0
 10  6  1  0
 10  9  2  0
 11  9  1  0
 12  1  1  0
 12  7  1  0
 12 11  1  0
 13  2  1  0
 13  7  1  0
 13 12  1  0
 14 11  2  0
 15  3  1  0
 15  8  1  0
 16 10  1  0
 16 13  1  0
M  END
>  <NAME>  (3845) 
1,6-DIMETHYL-3,4-(5'-METHOXY)BENZO-2-OXABICYCLO(4.1.0)HEPT-3-EN-5-ONE

>  <SYNONYMS>  (3845) 
2,3-DIMETHYL-7-METHOXY-2,3-METHANOCHROMAN-4-ONE

>  <SPECTRUM TYPE>  (3845) 
MS1

>  <INSTRUMENT TYPE>  (3845) 
EI-B

>  <INSTRUMENT>  (3845) 
HITACHI RMS-4

>  <ION MODE>  (3845) 
P

>  <INCHIKEY>  (3845) 
LUPDDXPOCMRECU-UHFFFAOYSA-N

>  <FORMULA>  (3845) 
C13H14O3

>  <EXACT MASS>  (3845) 
218.09429430799997

>  <MW>  (3845) 
218

>  <ID>  (3845) 
JP006747

>  <CONTRIBUTOR>  (3845) 
University of Tokyo Team, {Faculty of Engineering, University of Tokyo

>  <COMMENT>  (3845) 
SMILES=COc(c3)cc(O1)c(c3)C(=O)C(C)(C2)C(C)12
InChI=InChI=1S/C13H14O3/c1-12-7-13(12,2)16-10-6-8(15-3)4-5-9(10)11(12)14/h4-6H,7H2,1-3H3
computed SMILES=O=C1C2=CC=C(OC)C=C2OC3(C)CC13C
accession=JP006747
date=2016.01.19 (Created 2008.10.21, modified 2011.05.06)
author=MASS SPECTROSCOPY SOC. OF JAPAN (MSSJ)
license=CC BY-NC-SA
exact mass=218.09429
ionization energy=70 eV
ion type=[M]+*
computed spectral entropy=4.083494171952434
computed normalized entropy=0.8606011764726806
SPLASH=splash10-0wmi-8920000000-372c5016931c281ae0ba
submitter=submitter = University of Tokyo Team (Faculty of Engineering, University of Tokyo)
MoNA Rating=3.75

>  <NUM PEAKS>  (3845) 
115

>  <MASS SPECTRAL PEAKS>  (3845) 
38 11
39 55
40 12
41 0.66
42 7
43 69
50 18
51 0.4
52 16
53 32
54 7
55 0.18
56 6
57 17
61 6
62 0.17
63 87
64 18
65 18
66 0.07
67 13
69 18
71 9
72 0.05
73 7
74 15
75 32
76 0.12
77 26
78 14
79 22
80 0.08
81 8
82 5
83 7
85 0.06
87 5
89 12
90 8
91 0.26
92 11
93 6
94 11
95 0.18
97 6
98 7
99 7
101 0.06
102 7
103 11
104 6
105 0.07
106 53
107 18
108 13
110 0.16
111 7
112 7
115 23
116 0.1
117 11
118 7
119 8
121 0.06
122 9
124 16
126 9
127 0.06
128 8
131 9
132 11
133 0.06
134 47
135 12
137 13
138 0.16
139 6
140 6
144 6
145 0.19
146 9
147 10
148 8
149 0.08
150 5
151 79
152 8
155 0.08
159 10
160 8
161 26
163 0.09
164 5
165 21
167 8
168 0.19
170 6
173 7
174 5
175 0.71
176 25
177 10
178 57
179 0.21
181 6
188 9
189 22
190 0.06
193 5
203 39
204 16
217 0.08
218 99.99
219 16
220 1

$$$$

     RDKit          2D

 11 11  0  0  0  0  0  0  0  0999 V2000
    2.9231    0.5071    0.0000 C   0  0  0  0  0  0  0  0  0  0  0  0
    2.9236    2.0079    0.0000 C   0  0  0  0  0  0  0  0  0  0  0  0
    1.6236   -0.2437    0.0000 C   0  0  0  0  0  0  0  0  0  0  0  0
    1.6245    2.7579    0.0000 C   0  0  0  0  0  0  0  0  0  0  0  0
    0.3245    0.5063    0.0000 C   0  0  0  0  0  0  0  0  0  0  0  0
   -0.9740    2.7571    0.0000 C   0  0  0  0  0  0  0  0  0  0  0  0
   -2.2731    2.0071    0.0000 C   0  0  0  0  0  0  0  0  0  0  0  0
    0.3250    2.0071    0.0000 C   0  0  0  0  0  0  0  0  0  0  0  0
   -3.5721    2.7571    0.0000 C   0  0  0  0  0  0  0  0  0  0  0  0
   -3.5721    4.2571    0.0000 O   0  0  0  0  0  0  0  0  0  0  0  0
   -4.8712    2.0071    0.0000 O   0  0  0  0  0  0  0  0  0  0  0  0
  2  1  2  0
  3  1  1  0
  4  2  1  0
  5  3  2  0
  7  6  1  0
  8  4  2  0
  8  5  1  0
  8  6  1  0
  9  7  1  0
 10  9  2  0
 11  9  1  0
M  END
>  <NAME>  (3846) 
3-PHENYLPROPIONIC ACID

>  <SYNONYMS>  (3846) 


>  <SPECTRUM TYPE>  (3846) 
MS1

>  <INSTRUMENT TYPE>  (3846) 
EI-B

>  <INSTRUMENT>  (3846) 
JEOL JMS-D-300

>  <ION MODE>  (3846) 
P

>  <INCHIKEY>  (3846) 
XMIIGOLPHOKFCH-UHFFFAOYSA-N

>  <FORMULA>  (3846) 
C9H10O2

>  <EXACT MASS>  (3846) 
150.06807956

>  <MW>  (3846) 
150

>  <ID>  (3846) 
JP006710

>  <CONTRIBUTOR>  (3846) 
University of Tokyo Team, {Faculty of Engineering, University of Tokyo

>  <COMMENT>  (3846) 
SMILES=OC(=O)CCc(c1)cccc1
InChI=InChI=1S/C9H10O2/c10-9(11)7-6-8-4-2-1-3-5-8/h1-5H,6-7H2,(H,10,11)
computed SMILES=O=C(O)CCC=1C=CC=CC1
accession=JP006710
date=2016.01.19 (Created 2008.10.21, modified 2011.05.06)
author=MASS SPECTROSCOPY SOC. OF JAPAN (MSSJ)
license=CC BY-NC-SA
exact mass=150.06808
ionization energy=70 eV
ion type=[M]+*
computed spectral entropy=2.0950822301659655
computed normalized entropy=0.7736497016610848
SPLASH=splash10-0006-9400000000-6b08d11fe7d8828ea0b4
submitter=submitter = University of Tokyo Team (Faculty of Engineering, University of Tokyo)
MoNA Rating=3.75

>  <NUM PEAKS>  (3846) 
15

>  <MASS SPECTRAL PEAKS>  (3846) 
39 7.6
50 3.4
51 12
63 0.34
65 10.3
77 14.5
78 13.7
79 0.85
91 99.99
92 14.5
103 7.7
104 4.79
105 22.2
150 35.9
151 9.4

$$$$

     RDKit          2D

  7  7  0  0  0  0  0  0  0  0999 V2000
   -0.0000    1.5000    0.0000 C   0  0  0  0  0  0  0  0  0  0  0  0
   -1.3000    0.7500    0.0000 C   0  0  0  0  0  0  0  0  0  0  0  0
    1.3000    0.7500    0.0000 C   0  0  0  0  0  0  0  0  0  0  0  0
   -1.3000   -0.7500    0.0000 C   0  0  0  0  0  0  0  0  0  0  0  0
    1.3000   -0.7500    0.0000 C   0  0  0  0  0  0  0  0  0  0  0  0
   -0.0000   -1.5000    0.0000 N   0  0  0  0  0  0  0  0  0  0  0  0
    2.5989   -1.5002    0.0000 O   0  0  0  0  0  0  0  0  0  0  0  0
  2  1  1  0
  3  1  1  0
  4  2  1  0
  5  3  1  0
  6  4  1  0
  6  5  2  0
  7  5  1  0
M  END
>  <NAME>  (3847) 
DELTA-VALEROLACTAM

>  <SYNONYMS>  (3847) 
2-PIPERIDONE

>  <SPECTRUM TYPE>  (3847) 
MS1

>  <INSTRUMENT TYPE>  (3847) 
EI-B

>  <INSTRUMENT>  (3847) 
JEOL JMS-D-300

>  <ION MODE>  (3847) 
P

>  <INCHIKEY>  (3847) 
XUWHAWMETYGRKB-UHFFFAOYSA-N

>  <FORMULA>  (3847) 
C5H9NO

>  <EXACT MASS>  (3847) 
99.068413908

>  <MW>  (3847) 
99

>  <ID>  (3847) 
JP006708

>  <CONTRIBUTOR>  (3847) 
University of Tokyo Team, {Faculty of Engineering, University of Tokyo

>  <COMMENT>  (3847) 
SMILES=O=C(C1)NCCC1
InChI=InChI=1S/C5H9NO/c7-5-3-1-2-4-6-5/h1-4H2,(H,6,7)
computed SMILES=OC1=NCCCC1
accession=JP006708
date=2016.01.19 (Created 2008.10.21, modified 2011.05.06)
author=MASS SPECTROSCOPY SOC. OF JAPAN (MSSJ)
license=CC BY-NC-SA
exact mass=99.06841
ionization energy=70 eV
ion type=[M]+*
computed spectral entropy=2.3223992147417296
computed normalized entropy=0.7887408199572172
SPLASH=splash10-0005-9000000000-1cbce19144683ef641e7
submitter=submitter = University of Tokyo Team (Faculty of Engineering, University of Tokyo)
MoNA Rating=3.75

>  <NUM PEAKS>  (3847) 
19

>  <MASS SPECTRAL PEAKS>  (3847) 
39 12
40 3
41 43
42 3.6
43 45
44 7
45 3
54 0.25
55 25
56 13
58 7.5
59 0.85
70 24
71 12
73 7.5
76 0.7
98 20
99 99.99
100 10

$$$$

     RDKit          2D

 13 13  0  0  1  0  0  0  0  0999 V2000
   -5.3987    0.7886    0.0000 C   0  0  0  0  0  0  0  0  0  0  0  0
    3.0484   -0.6255    0.0000 C   0  0  0  0  0  0  0  0  0  0  0  0
   -2.6349    2.2815    0.0000 C   0  0  0  0  0  0  0  0  0  0  0  0
   -1.4249    0.1857    0.0000 C   0  0  0  0  0  0  0  0  0  0  0  0
   -2.8006    0.7886    0.0000 C   0  0  0  0  0  0  0  0  0  0  0  0
   -1.1751    2.5932    0.0000 C   0  0  0  0  0  0  0  0  0  0  0  0
    0.5779    0.1788    0.0000 C   0  0  0  0  0  0  0  0  0  0  0  0
   -0.4251    1.2941    0.0000 C   0  0  0  0  0  0  0  0  0  0  0  0
   -0.5656    3.9637    0.0000 O   0  0  0  0  0  0  0  0  0  0  0  0
    0.1135   -1.2475    0.0000 O   0  0  0  0  0  0  0  0  0  0  0  0
    0.7887    2.1754    0.0000 O   0  0  0  0  0  0  0  0  0  0  0  0
   -4.0997    0.0386    0.0000 O   0  0  0  0  0  0  0  0  0  0  0  0
    2.0453    0.4898    0.0000 O   0  0  0  0  0  0  0  0  0  0  0  0
  5  3  2  0
  5  4  1  0
  6  3  1  0
  8  4  1  0
  8  6  1  0
  8  7  1  0
  9  6  2  0
 10  7  2  0
  8 11  1  6
 12  1  1  0
 12  5  1  0
 13  2  1  0
 13  7  1  0
M  END
>  <NAME>  (3848) 
5-HYDROXY-5-METHOXYCARBONYL-3-METHOXYCYCLOPENT-2-EN-1-ONE

>  <SYNONYMS>  (3848) 
(+)-KJELLMANIANONE

>  <SPECTRUM TYPE>  (3848) 
MS1

>  <INSTRUMENT TYPE>  (3848) 
EI-B

>  <INSTRUMENT>  (3848) 
HITACHI RMS-4

>  <ION MODE>  (3848) 
P

>  <INCHIKEY>  (3848) 
YGCFLXLGPRNGTJ-MRVPVSSYSA-N

>  <FORMULA>  (3848) 
C8H10O5

>  <EXACT MASS>  (3848) 
186.05282341999998

>  <MW>  (3848) 
186

>  <ID>  (3848) 
JP006707

>  <CONTRIBUTOR>  (3848) 
University of Tokyo Team, {Faculty of Engineering, University of Tokyo

>  <COMMENT>  (3848) 
SMILES=COC(C1)=C([H])C(=O)C(O)1C(=O)OC
InChI=InChI=1S/C8H10O5/c1-12-5-3-6(9)8(11,4-5)7(10)13-2/h3,11H,4H2,1-2H3/t8-/m1/s1
computed SMILES=O=C(OC)C1(O)C(=O)C=C(OC)C1
accession=JP006707
date=2016.01.19 (Created 2008.10.21, modified 2011.05.06)
author=MASS SPECTROSCOPY SOC. OF JAPAN (MSSJ)
license=CC BY-NC-SA
exact mass=186.05282
ionization energy=70 eV
ion type=[M]+*
computed spectral entropy=3.4084522033467004
computed normalized entropy=0.7870381146859868
SPLASH=splash10-0002-9300000000-8b9f9461e8b2c6a37838
submitter=submitter = University of Tokyo Team (Faculty of Engineering, University of Tokyo)
MoNA Rating=3.75

>  <NUM PEAKS>  (3848) 
76

>  <MASS SPECTRAL PEAKS>  (3848) 
40 15.5
41 15
42 11.5
43 3
44 6.5
45 9
51 1.5
52 0.15
53 6
54 3
55 12.5
56 0.6
57 8
58 4
59 22
60 0.25
66 4
67 35
68 40
69 6
70 7
71 13.5
72 3
73 0.25
75 3
77 2
81 2.5
82 0.2
83 62.5
84 17
85 11.5
86 0.15
87 6
88 3
95 63.5
96 0.2
97 1.5
98 99.99
99 32
100 0.4
101 4
102 3
103 1.5
109 0.6
110 1.5
111 7
112 3
113 0.5
114 4
115 2.5
117 4
119 0.15
124 2
125 22
126 9
127 7.05
128 8
129 6.5
130 2.5
133 0.3
137 4
138 1
139 3
140 0.15
141 2
142 1.5
143 6
154 0.45
155 2
158 8
168 3
170 0.7
171 4.5
185 2
186 79.5
187 9

$$$$

     RDKit          2D

 20 19  0  0  0  0  0  0  0  0999 V2000
  -16.2380   10.1250    0.0000 C   0  0  0  0  0  0  0  0  0  0  0  0
    5.8457    9.3750    0.0000 C   0  0  0  0  0  0  0  0  0  0  0  0
  -14.9389    9.3750    0.0000 C   0  0  0  0  0  0  0  0  0  0  0  0
  -13.6399   10.1250    0.0000 C   0  0  0  0  0  0  0  0  0  0  0  0
  -12.3409    9.3750    0.0000 C   0  0  0  0  0  0  0  0  0  0  0  0
  -11.0418   10.1250    0.0000 C   0  0  0  0  0  0  0  0  0  0  0  0
   -9.7428    9.3750    0.0000 C   0  0  0  0  0  0  0  0  0  0  0  0
   -8.4437   10.1250    0.0000 C   0  0  0  0  0  0  0  0  0  0  0  0
   -7.1447    9.3750    0.0000 C   0  0  0  0  0  0  0  0  0  0  0  0
   -5.8457   10.1250    0.0000 C   0  0  0  0  0  0  0  0  0  0  0  0
   -4.5466    9.3750    0.0000 C   0  0  0  0  0  0  0  0  0  0  0  0
   -3.2476   10.1250    0.0000 C   0  0  0  0  0  0  0  0  0  0  0  0
   -1.9486    9.3750    0.0000 C   0  0  0  0  0  0  0  0  0  0  0  0
   -0.6495   10.1250    0.0000 C   0  0  0  0  0  0  0  0  0  0  0  0
    1.9486   10.1250    0.0000 C   0  0  0  0  0  0  0  0  0  0  0  0
    0.6495    9.3750    0.0000 C   0  0  0  0  0  0  0  0  0  0  0  0
    3.2476    9.3750    0.0000 C   0  0  0  0  0  0  0  0  0  0  0  0
    0.6495    7.8750    0.0000 O   0  0  0  0  0  0  0  0  0  0  0  0
    3.2476    7.8750    0.0000 O   0  0  0  0  0  0  0  0  0  0  0  0
    4.5466   10.1250    0.0000 O   0  0  0  0  0  0  0  0  0  0  0  0
  3  1  1  0
  4  3  1  0
  5  4  1  0
  6  5  1  0
  7  6  1  0
  8  7  1  0
  9  8  1  0
 10  9  1  0
 11 10  1  0
 12 11  1  0
 13 12  1  0
 14 13  1  0
 16 14  1  0
 16 15  1  0
 17 15  1  0
 18 16  2  0
 19 17  2  0
 20  2  1  0
 20 17  1  0
M  END
>  <NAME>  (3849) 
METHYL 3-OXOHEXADECANOATE

>  <SYNONYMS>  (3849) 


>  <SPECTRUM TYPE>  (3849) 
MS1

>  <INSTRUMENT TYPE>  (3849) 
EI-B

>  <INSTRUMENT>  (3849) 
JEOL JMS-D-300

>  <ION MODE>  (3849) 
P

>  <INCHIKEY>  (3849) 
OEEDRMFBAHHVQI-UHFFFAOYSA-N

>  <FORMULA>  (3849) 
C17H32O3

>  <EXACT MASS>  (3849) 
284.23514488399996

>  <MW>  (3849) 
284

>  <ID>  (3849) 
JP006706

>  <CONTRIBUTOR>  (3849) 
University of Tokyo Team, {Faculty of Engineering, University of Tokyo

>  <COMMENT>  (3849) 
SMILES=CCCCCCCCCCCCCC(=O)CC(=O)OC
InChI=InChI=1S/C17H32O3/c1-3-4-5-6-7-8-9-10-11-12-13-14-16(18)15-17(19)20-2/h3-15H2,1-2H3
computed SMILES=O=C(OC)CC(=O)CCCCCCCCCCCCC
accession=JP006706
date=2016.01.19 (Created 2008.10.21, modified 2011.05.06)
author=MASS SPECTROSCOPY SOC. OF JAPAN (MSSJ)
license=CC BY-NC-SA
exact mass=284.23514
ionization energy=70 eV
ion type=[M]+*
computed spectral entropy=2.9700572723649374
computed normalized entropy=0.7411555603387244
SPLASH=splash10-0a4i-9100000000-4ad0ae1c6fec6afed54a
submitter=submitter = University of Tokyo Team (Faculty of Engineering, University of Tokyo)
MoNA Rating=3.75

>  <NUM PEAKS>  (3849) 
55

>  <MASS SPECTRAL PEAKS>  (3849) 
41 14.9
42 4.3
43 49.9
44 0.29
53 1.6
54 2.3
55 14
56 0.54
57 17.1
58 99.99
59 54.5
60 0.25
67 3.9
68 3.6
69 8.2
70 0.49
71 38.8
72 3.7
81 4.5
82 0.94
83 6.8
84 3.6
85 14.1
86 0.2
95 5.1
96 11.5
97 6.7
98 0.28
99 2.4
100 3.1
109 3.1
110 0.45
111 4.2
112 2.3
113 3.1
114 0.28
123 1.8
124 3
125 3
126 0.18
127 4.6
128 1.7
137 1.5
138 0.27
139 1.7
140 1.8
141 1.5
152 0.15
166 4.9
168 6.8
169 2.1
183 0.24
208 2.4
211 3.6
226 9.6

$$$$

     RDKit          2D

 23 22  0  0  0  0  0  0  0  0999 V2000
  -16.2380   10.1250    0.0000 C   0  0  0  0  0  0  0  0  0  0  0  0
   -1.9486    7.8750    0.0000 C   0  0  0  0  0  0  0  0  0  0  0  0
    5.8457    9.3750    0.0000 C   0  0  0  0  0  0  0  0  0  0  0  0
  -14.9389    9.3750    0.0000 C   0  0  0  0  0  0  0  0  0  0  0  0
  -13.6399   10.1250    0.0000 C   0  0  0  0  0  0  0  0  0  0  0  0
  -12.3409    9.3750    0.0000 C   0  0  0  0  0  0  0  0  0  0  0  0
  -11.0418   10.1250    0.0000 C   0  0  0  0  0  0  0  0  0  0  0  0
   -9.7428    9.3750    0.0000 C   0  0  0  0  0  0  0  0  0  0  0  0
   -8.4437   10.1250    0.0000 C   0  0  0  0  0  0  0  0  0  0  0  0
   -7.1447    9.3750    0.0000 C   0  0  0  0  0  0  0  0  0  0  0  0
   -5.8457   10.1250    0.0000 C   0  0  0  0  0  0  0  0  0  0  0  0
   -4.5466    9.3750    0.0000 C   0  0  0  0  0  0  0  0  0  0  0  0
   -3.2476   10.1250    0.0000 C   0  0  0  0  0  0  0  0  0  0  0  0
   -1.9486    9.3750    0.0000 C   0  0  0  0  0  0  0  0  0  0  0  0
   -0.6495   10.1250    0.0000 C   0  0  0  0  0  0  0  0  0  0  0  0
    1.9486   10.1250    0.0000 C   0  0  0  0  0  0  0  0  0  0  0  0
   -0.6495    7.1250    0.0000 C   0  0  0  0  0  0  0  0  0  0  0  0
    0.6495    9.3750    0.0000 C   0  0  0  0  0  0  0  0  0  0  0  0
    3.2476    9.3750    0.0000 C   0  0  0  0  0  0  0  0  0  0  0  0
   -0.6495    5.6250    0.0000 O   0  0  0  0  0  0  0  0  0  0  0  0
    3.2476    7.8750    0.0000 O   0  0  0  0  0  0  0  0  0  0  0  0
    4.5466   10.1250    0.0000 O   0  0  0  0  0  0  0  0  0  0  0  0
    0.6495    7.8750    0.0000 O   0  0  0  0  0  0  0  0  0  0  0  0
  4  1  1  0
  5  4  1  0
  6  5  1  0
  7  6  1  0
  8  7  1  0
  9  8  1  0
 10  9  1  0
 11 10  1  0
 12 11  1  0
 13 12  1  0
 14 13  1  0
 15 14  1  0
 17  2  1  0
 18 15  1  0
 18 16  1  0
 19 16  1  0
 20 17  2  0
 21 19  2  0
 22  3  1  0
 22 19  1  0
 23 17  1  0
 23 18  1  0
M  END
>  <NAME>  (3850) 
METHYL 3-ACETOXYHEXADECANOATE

>  <SYNONYMS>  (3850) 
BETA-ACETOXYPALMITIC ACID METHYL ESTER

>  <SPECTRUM TYPE>  (3850) 
MS1

>  <INSTRUMENT TYPE>  (3850) 
EI-B

>  <INSTRUMENT>  (3850) 
JEOL JMS-D-300

>  <ION MODE>  (3850) 
P

>  <INCHIKEY>  (3850) 
LNSKNBASLYLDGC-UHFFFAOYSA-N

>  <FORMULA>  (3850) 
C19H36O4

>  <EXACT MASS>  (3850) 
328.261359632

>  <MW>  (3850) 
328

>  <ID>  (3850) 
JP006704

>  <CONTRIBUTOR>  (3850) 
University of Tokyo Team, {Faculty of Engineering, University of Tokyo

>  <COMMENT>  (3850) 
SMILES=CCCCCCCCCCCCCC(OC(C)=O)CC(=O)OC
InChI=InChI=1S/C19H36O4/c1-4-5-6-7-8-9-10-11-12-13-14-15-18(23-17(2)20)16-19(21)22-3/h18H,4-16H2,1-3H3
computed SMILES=O=C(OC(CC(=O)OC)CCCCCCCCCCCCC)C
exact mass=328.26136
accession=JP006704
date=2016.01.19 (Created 2008.10.21, modified 2011.05.06)
author=MASS SPECTROSCOPY SOC. OF JAPAN (MSSJ)
license=CC BY-NC-SA
ionization energy=70 eV
ion type=[M]+*
computed spectral entropy=3.9887204318374296
computed normalized entropy=0.8606156782774548
SPLASH=splash10-0ac1-9410000000-791c9e29241af1bf9674
submitter=submitter = University of Tokyo Team (Faculty of Engineering, University of Tokyo)
MoNA Rating=3.75

>  <NUM PEAKS>  (3850) 
103

>  <MASS SPECTRAL PEAKS>  (3850) 
54 11.1
55 21.9
56 99.99
57 3.57
58 75.8
59 43.4
60 9.8
61 0.84
66 4.3
67 51.8
68 42.7
69 8.1
70 31.1
71 43.6
72 6.4
73 0.79
74 92.7
75 25.6
77 3
79 1.06
80 8.9
81 59
82 44.2
83 6.52
84 52.6
85 27.5
86 3.5
87 7.06
88 8.8
91 3.5
93 5.5
94 0.89
95 41.5
96 61.5
97 63.8
98 4.28
99 10.1
100 15
101 55.1
102 0.53
103 35.8
107 4.4
108 6.2
109 2.32
110 29.1
111 31.2
112 12
113 3.43
114 18.8
115 12
116 7.7
119 0.52
121 5.3
122 4
123 19
124 1.35
125 15.5
126 5.2
127 12.1
128 1.65
129 9.3
133 4.8
134 7.3
135 0.43
136 3.1
137 12.4
138 14.6
139 1.05
140 3.5
141 15.5
142 5.4
143 0.56
145 9.2
148 3.7
151 7.7
152 2.25
153 7.4
155 5.1
157 3.5
165 0.59
166 7.8
171 11.4
172 3.3
179 0.32
185 5.8
192 9.6
193 5.7
194 3.21
195 15.8
208 4.2
211 19.4
212 0.35
218 5.2
225 3.1
236 40.8
237 3.05
238 5.1
268 25.5
269 7.3
285 1.81
286 4.1
297 1.6
328 0.5

$$$$

     RDKit          2D

 20 19  0  0  0  0  0  0  0  0999 V2000
  -16.2380   10.1250    0.0000 C   0  0  0  0  0  0  0  0  0  0  0  0
    5.8457    9.3750    0.0000 C   0  0  0  0  0  0  0  0  0  0  0  0
  -14.9389    9.3750    0.0000 C   0  0  0  0  0  0  0  0  0  0  0  0
  -13.6399   10.1250    0.0000 C   0  0  0  0  0  0  0  0  0  0  0  0
  -12.3409    9.3750    0.0000 C   0  0  0  0  0  0  0  0  0  0  0  0
  -11.0418   10.1250    0.0000 C   0  0  0  0  0  0  0  0  0  0  0  0
   -9.7428    9.3750    0.0000 C   0  0  0  0  0  0  0  0  0  0  0  0
   -8.4437   10.1250    0.0000 C   0  0  0  0  0  0  0  0  0  0  0  0
   -7.1447    9.3750    0.0000 C   0  0  0  0  0  0  0  0  0  0  0  0
   -5.8457   10.1250    0.0000 C   0  0  0  0  0  0  0  0  0  0  0  0
   -4.5466    9.3750    0.0000 C   0  0  0  0  0  0  0  0  0  0  0  0
   -3.2476   10.1250    0.0000 C   0  0  0  0  0  0  0  0  0  0  0  0
   -1.9486    9.3750    0.0000 C   0  0  0  0  0  0  0  0  0  0  0  0
   -0.6495   10.1250    0.0000 C   0  0  0  0  0  0  0  0  0  0  0  0
    1.9486   10.1250    0.0000 C   0  0  0  0  0  0  0  0  0  0  0  0
    0.6495    9.3750    0.0000 C   0  0  0  0  0  0  0  0  0  0  0  0
    3.2476    9.3750    0.0000 C   0  0  0  0  0  0  0  0  0  0  0  0
    0.6495    7.8750    0.0000 O   0  0  0  0  0  0  0  0  0  0  0  0
    3.2476    7.8750    0.0000 O   0  0  0  0  0  0  0  0  0  0  0  0
    4.5466   10.1250    0.0000 O   0  0  0  0  0  0  0  0  0  0  0  0
  3  1  1  0
  4  3  1  0
  5  4  1  0
  6  5  1  0
  7  6  1  0
  8  7  1  0
  9  8  1  0
 10  9  1  0
 11 10  1  0
 12 11  1  0
 13 12  1  0
 14 13  1  0
 16 14  1  0
 16 15  1  0
 17 15  1  0
 18 16  1  0
 19 17  2  0
 20  2  1  0
 20 17  1  0
M  END
>  <NAME>  (3851) 
METHYL D(-)-3-HYDROXYHEXADECANOATE

>  <SYNONYMS>  (3851) 
BETA-HYDROXYPALMITIC ACID METHYL ESTER

>  <SPECTRUM TYPE>  (3851) 
MS1

>  <INSTRUMENT TYPE>  (3851) 
EI-B

>  <INSTRUMENT>  (3851) 
JEOL JMS-D-300

>  <ION MODE>  (3851) 
P

>  <INCHIKEY>  (3851) 
YBTWUESFQWFDMR-UHFFFAOYSA-N

>  <FORMULA>  (3851) 
C17H34O3

>  <EXACT MASS>  (3851) 
286.250794948

>  <MW>  (3851) 
286

>  <ID>  (3851) 
JP006702

>  <CONTRIBUTOR>  (3851) 
University of Tokyo Team, {Faculty of Engineering, University of Tokyo

>  <COMMENT>  (3851) 
SMILES=CCCCCCCCCCCCCC(O)CC(=O)OC
InChI=InChI=1S/C17H34O3/c1-3-4-5-6-7-8-9-10-11-12-13-14-16(18)15-17(19)20-2/h16,18H,3-15H2,1-2H3
computed SMILES=O=C(OC)CC(O)CCCCCCCCCCCCC
date=2016.01.19 (Created 2008.10.21, modified 2011.05.06)
accession=JP006702
author=MASS SPECTROSCOPY SOC. OF JAPAN (MSSJ)
license=CC BY-NC-SA
exact mass=286.25079
ionization energy=70 eV
ion type=[M]+*
computed spectral entropy=3.113996620651882
computed normalized entropy=0.7459769348927069
SPLASH=splash10-0udi-9800000000-c525f950cb1761d34c28
submitter=submitter = University of Tokyo Team (Faculty of Engineering, University of Tokyo)
MoNA Rating=3.75

>  <NUM PEAKS>  (3851) 
65

>  <MASS SPECTRAL PEAKS>  (3851) 
55 2.4
56 14.9
57 5.6
58 1.57
59 4.6
61 9.3
66 1.1
67 0.69
68 6.8
69 12.7
70 5.2
71 1.66
72 1.5
74 21.2
75 7.9
79 0.12
80 1.1
81 7.1
82 9.5
83 1.14
84 6
85 4.7
87 4.4
94 0.1
95 5.7
96 9.3
97 9.3
98 0.47
99 1.6
100 1.2
101 5.6
102 0.21
103 99.99
104 5.1
105 1.2
109 0.32
110 3.9
111 4.7
112 1.8
113 0.23
114 2
115 1.5
123 2.5
124 0.24
125 2.6
127 1.5
128 1.6
129 0.11
137 1.9
138 2.3
139 1.5
141 0.21
151 1.1
152 2.9
153 1.1
166 0.13
168 1
171 1.6
192 1.1
194 0.4
195 1.3
236 4.2
237 1.9
255 0.05
268 1.3

$$$$

     RDKit          2D

 20 20  0  0  0  0  0  0  0  0999 V2000
   -2.1228   -3.2744    0.0000 C   0  0  0  0  0  0  0  0  0  0  0  0
    5.6719   -0.2748    0.0000 C   0  0  0  0  0  0  0  0  0  0  0  0
    3.0733    4.2262    0.0000 C   0  0  0  0  0  0  0  0  0  0  0  0
    5.6715    1.2256    0.0000 C   0  0  0  0  0  0  0  0  0  0  0  0
   -2.8735    2.5249    0.0000 C   0  0  0  0  0  0  0  0  0  0  0  0
    1.7748   -1.0252    0.0000 C   0  0  0  0  0  0  0  0  0  0  0  0
   -0.8237   -1.0244    0.0000 C   0  0  0  0  0  0  0  0  0  0  0  0
   -0.8243    1.9762    0.0000 C   0  0  0  0  0  0  0  0  0  0  0  0
    0.4753   -0.2744    0.0000 C   0  0  0  0  0  0  0  0  0  0  0  0
    0.4748    1.2264    0.0000 C   0  0  0  0  0  0  0  0  0  0  0  0
    3.0739   -0.2752    0.0000 C   0  0  0  0  0  0  0  0  0  0  0  0
    1.7739    1.9764    0.0000 C   0  0  0  0  0  0  0  0  0  0  0  0
    3.0734    1.2256    0.0000 C   0  0  0  0  0  0  0  0  0  0  0  0
   -3.4222    0.4758    0.0000 O   0  0  0  0  0  0  0  0  0  0  0  0
   -1.3730   -0.0729    0.0000 O   0  0  0  0  0  0  0  0  0  0  0  0
   -0.8237   -2.5244    0.0000 O   0  0  0  0  0  0  0  0  0  0  0  0
    4.3730   -1.0250    0.0000 O   0  0  0  0  0  0  0  0  0  0  0  0
    1.7741    3.4764    0.0000 O   0  0  0  0  0  0  0  0  0  0  0  0
    4.3724    1.9756    0.0000 O   0  0  0  0  0  0  0  0  0  0  0  0
   -2.1233    1.2260    0.0000 S   0  0  0  0  0  0  0  0  0  0  0  0
  9  6  2  0
  9  7  1  0
 10  8  1  0
 10  9  1  0
 11  6  1  0
 12 10  2  0
 13 11  2  0
 13 12  1  0
 16  1  1  0
 16  7  1  0
 17  2  1  0
 17 11  1  0
 18  3  1  0
 18 12  1  0
 19  4  1  0
 19 13  1  0
 20  5  1  0
 20  8  1  0
 20 14  2  0
 20 15  2  0
M  END
>  <NAME>  (3852) 
3,4,5-TRIMETHOXY-2-METHYLSULFONYLMETHYLBENZYL METHYL ETHER

>  <SYNONYMS>  (3852) 


>  <SPECTRUM TYPE>  (3852) 
MS1

>  <INSTRUMENT TYPE>  (3852) 
EI-B

>  <INSTRUMENT>  (3852) 
JEOL JMS-D-300

>  <ION MODE>  (3852) 
P

>  <INCHIKEY>  (3852) 
NRHCYHKESJWYNW-UHFFFAOYSA-N

>  <FORMULA>  (3852) 
C13H20O6S

>  <EXACT MASS>  (3852) 
304.09805936

>  <MW>  (3852) 
304

>  <ID>  (3852) 
JP006701

>  <CONTRIBUTOR>  (3852) 
University of Tokyo Team, {Faculty of Engineering, University of Tokyo

>  <COMMENT>  (3852) 
SMILES=COCc(c1)c(CS(C)(=O)=O)c(OC)c(OC)c(OC)1
InChI=InChI=1S/C13H20O6S/c1-16-7-9-6-11(17-2)13(19-4)12(18-3)10(9)8-20(5,14)15/h6H,7-8H2,1-5H3
computed SMILES=O=S(=O)(C)CC1=C(OC)C(OC)=C(OC)C=C1COC
accession=JP006701
date=2016.01.19 (Created 2008.10.21, modified 2011.05.06)
author=MASS SPECTROSCOPY SOC. OF JAPAN (MSSJ)
license=CC BY-NC-SA
exact mass=304.09806
ionization energy=70 eV
ion type=[M]+*
computed spectral entropy=2.420000098928414
computed normalized entropy=0.6605594043940853
SPLASH=splash10-0002-1910000000-e4192428f3c56374649d
submitter=submitter = University of Tokyo Team (Faculty of Engineering, University of Tokyo)
MoNA Rating=3.75

>  <NUM PEAKS>  (3852) 
39

>  <MASS SPECTRAL PEAKS>  (3852) 
39 1.8
45 5.5
51 1.8
57 0.19
65 2.8
77 3.4
78 1.7
79 0.28
90 2
91 3.9
98 3.8
105 0.53
107 3.3
120 2.6
121 2.1
134 0.16
135 2.4
136 1.7
137 2.5
149 0.38
150 5.7
151 5
152 1.9
165 0.34
166 1.5
167 2.6
179 6.7
180 1.37
181 3.7
194 3.8
195 99.99
196 1.24
209 3.8
210 2.8
224 5.9
225 4.87
226 6.6
304 2.3
305 0.4

$$$$

     RDKit          2D

 26 26  0  0  0  0  0  0  0  0999 V2000
   -3.8981    3.7504    0.0000 C   0  0  0  0  0  0  0  0  0  0  0  0
    1.2989   -5.2510    0.0000 C   0  0  0  0  0  0  0  0  0  0  0  0
   -5.1962   -1.5000    0.0000 C   0  0  0  0  0  0  0  0  0  0  0  0
    3.8971    3.7500    0.0000 C   0  0  0  0  0  0  0  0  0  0  0  0
    4.6478   -2.0493    0.0000 C   0  0  0  0  0  0  0  0  0  0  0  0
   -0.0005    1.5008    0.0000 C   0  0  0  0  0  0  0  0  0  0  0  0
    2.5981    1.5000    0.0000 C   0  0  0  0  0  0  0  0  0  0  0  0
    2.5987   -1.5006    0.0000 C   0  0  0  0  0  0  0  0  0  0  0  0
   -2.5989    3.0006    0.0000 C   0  0  0  0  0  0  0  0  0  0  0  0
    1.2992   -3.7510    0.0000 C   0  0  0  0  0  0  0  0  0  0  0  0
   -3.8971   -0.7500    0.0000 C   0  0  0  0  0  0  0  0  0  0  0  0
    1.2990    0.7500    0.0000 C   0  0  0  0  0  0  0  0  0  0  0  0
    1.2995   -0.7508    0.0000 C   0  0  0  0  0  0  0  0  0  0  0  0
   -1.2995    0.7508    0.0000 C   0  0  0  0  0  0  0  0  0  0  0  0
    0.0005   -1.5008    0.0000 C   0  0  0  0  0  0  0  0  0  0  0  0
   -1.2990   -0.7500    0.0000 C   0  0  0  0  0  0  0  0  0  0  0  0
   -1.3000    3.7508    0.0000 O   0  0  0  0  0  0  0  0  0  0  0  0
    2.5983   -3.0012    0.0000 O   0  0  0  0  0  0  0  0  0  0  0  0
   -3.8971    0.7500    0.0000 O   0  0  0  0  0  0  0  0  0  0  0  0
    5.1965   -0.0002    0.0000 O   0  0  0  0  0  0  0  0  0  0  0  0
    3.1474    0.5485    0.0000 O   0  0  0  0  0  0  0  0  0  0  0  0
    2.5981    3.0000    0.0000 O   0  0  0  0  0  0  0  0  0  0  0  0
   -2.5987    1.5006    0.0000 O   0  0  0  0  0  0  0  0  0  0  0  0
    0.0002   -3.0008    0.0000 O   0  0  0  0  0  0  0  0  0  0  0  0
   -2.5981   -1.5000    0.0000 O   0  0  0  0  0  0  0  0  0  0  0  0
    3.8976   -0.7504    0.0000 S   0  0  0  0  0  0  0  0  0  0  0  0
  9  1  1  0
 10  2  1  0
 11  3  1  0
 12  6  2  0
 12  7  1  0
 13  8  1  0
 13 12  1  0
 14  6  1  0
 15 13  2  0
 16 14  2  0
 16 15  1  0
 17  9  2  0
 18 10  2  0
 19 11  2  0
 22  4  1  0
 22  7  1  0
 23  9  1  0
 23 14  1  0
 24 10  1  0
 24 15  1  0
 25 11  1  0
 25 16  1  0
 26  5  1  0
 26  8  1  0
 26 20  2  0
 26 21  2  0
M  END
>  <NAME>  (3853) 
2-METHYLSULFONYLMETHYL-3,4,5-TRIACETOXYBENZYL METHYL ETHER

>  <SYNONYMS>  (3853) 


>  <SPECTRUM TYPE>  (3853) 
MS1

>  <INSTRUMENT TYPE>  (3853) 
EI-B

>  <INSTRUMENT>  (3853) 
JEOL JMS-D-300

>  <ION MODE>  (3853) 
P

>  <INCHIKEY>  (3853) 
CHKJWAVWUXAAQN-UHFFFAOYSA-N

>  <FORMULA>  (3853) 
C16H20O9S

>  <EXACT MASS>  (3853) 
388.08280321999996

>  <MW>  (3853) 
388

>  <ID>  (3853) 
JP006699

>  <CONTRIBUTOR>  (3853) 
University of Tokyo Team, {Faculty of Engineering, University of Tokyo

>  <COMMENT>  (3853) 
SMILES=COCc(c1)c(CS(C)(=O)=O)c(OC(C)=O)c(OC(C)=O)c(OC(C)=O)1
InChI=InChI=1S/C16H20O9S/c1-9(17)23-14-6-12(7-22-4)13(8-26(5,20)21)15(24-10(2)18)16(14)25-11(3)19/h6H,7-8H2,1-5H3
computed SMILES=O=C(OC=1C=C(C(=C(OC(=O)C)C1OC(=O)C)CS(=O)(=O)C)COC)C
accession=JP006699
date=2016.01.19 (Created 2008.10.21, modified 2011.05.06)
author=MASS SPECTROSCOPY SOC. OF JAPAN (MSSJ)
license=CC BY-NC-SA
exact mass=388.0828
ionization energy=70 eV
ion type=[M]+*
computed spectral entropy=2.6140486672182126
computed normalized entropy=0.7086294631566115
SPLASH=splash10-016u-6981000000-fd4607f1a96ac84e6d36
submitter=submitter = University of Tokyo Team (Faculty of Engineering, University of Tokyo)
MoNA Rating=3.75

>  <NUM PEAKS>  (3853) 
40

>  <MASS SPECTRAL PEAKS>  (3853) 
43 99.99
44 2.5
65 4
77 0.3
79 2
81 2
93 3
94 0.2
107 3
108 2
122 3.5
123 0.4
137 12
138 2
152 4
153 0.8
165 91.5
166 16
181 11
182 1.9
183 7
201 10
202 19
203 0.7
206 2
207 15
208 3
224 3
225 65.5
226 2
245 2.5
267 3.4
268 5
287 10.5
288 2
307 0.3
308 3.5
346 12
347 1.8
388 3.5

$$$$

     RDKit          2D

 17 17  0  0  0  0  0  0  0  0999 V2000
   -1.2990    5.2500    0.0000 C   0  0  0  0  0  0  0  0  0  0  0  0
    3.1483   -0.5487    0.0000 C   0  0  0  0  0  0  0  0  0  0  0  0
   -1.3000    0.7500    0.0000 C   0  0  0  0  0  0  0  0  0  0  0  0
    0.0000    3.0000    0.0000 C   0  0  0  0  0  0  0  0  0  0  0  0
    2.5989    1.5002    0.0000 C   0  0  0  0  0  0  0  0  0  0  0  0
   -0.0000    1.5000    0.0000 C   0  0  0  0  0  0  0  0  0  0  0  0
    1.3000    0.7500    0.0000 C   0  0  0  0  0  0  0  0  0  0  0  0
   -1.3000   -0.7500    0.0000 C   0  0  0  0  0  0  0  0  0  0  0  0
    1.3000   -0.7500    0.0000 C   0  0  0  0  0  0  0  0  0  0  0  0
   -0.0000   -1.5000    0.0000 C   0  0  0  0  0  0  0  0  0  0  0  0
   -2.5989   -1.5002    0.0000 O   0  0  0  0  0  0  0  0  0  0  0  0
    2.5989   -1.5002    0.0000 O   0  0  0  0  0  0  0  0  0  0  0  0
   -0.0000   -3.0000    0.0000 O   0  0  0  0  0  0  0  0  0  0  0  0
    5.1972    0.0006    0.0000 O   0  0  0  0  0  0  0  0  0  0  0  0
    4.6479    2.0496    0.0000 O   0  0  0  0  0  0  0  0  0  0  0  0
   -1.2990    3.7500    0.0000 O   0  0  0  0  0  0  0  0  0  0  0  0
    3.8981    0.7504    0.0000 S   0  0  0  0  0  0  0  0  0  0  0  0
  6  3  2  0
  6  4  1  0
  7  5  1  0
  7  6  1  0
  8  3  1  0
  9  7  2  0
 10  8  2  0
 10  9  1  0
 11  8  1  0
 12  9  1  0
 13 10  1  0
 16  1  1  0
 16  4  1  0
 17  2  1  0
 17  5  1  0
 17 14  2  0
 17 15  2  0
M  END
>  <NAME>  (3854) 
2-METHYLSULFONYLMETHYL-3,4,5-TRIHYDROXYBENZYL METHYL ETHER

>  <SYNONYMS>  (3854) 


>  <SPECTRUM TYPE>  (3854) 
MS1

>  <INSTRUMENT TYPE>  (3854) 
EI-B

>  <INSTRUMENT>  (3854) 
JEOL JMS-D-300

>  <ION MODE>  (3854) 
P

>  <INCHIKEY>  (3854) 
XUKVXIFSYPSVIJ-UHFFFAOYSA-N

>  <FORMULA>  (3854) 
C10H14O6S

>  <EXACT MASS>  (3854) 
262.051109168

>  <MW>  (3854) 
262

>  <ID>  (3854) 
JP006697

>  <CONTRIBUTOR>  (3854) 
University of Tokyo Team, {Faculty of Engineering, University of Tokyo

>  <COMMENT>  (3854) 
SMILES=COCc(c1)c(CS(C)(=O)=O)c(O)c(O)c(O)1
InChI=InChI=1S/C10H14O6S/c1-16-4-6-3-8(11)10(13)9(12)7(6)5-17(2,14)15/h3,11-13H,4-5H2,1-2H3
computed SMILES=O=S(=O)(C)CC1=C(O)C(O)=C(O)C=C1COC
accession=JP006697
date=2016.01.19 (Created 2008.10.21, modified 2011.05.06)
author=MASS SPECTROSCOPY SOC. OF JAPAN (MSSJ)
license=CC BY-NC-SA
exact mass=262.05111
ionization energy=70 eV
ion type=[M]+*
computed spectral entropy=2.7852930173195687
computed normalized entropy=0.6982462162811984
SPLASH=splash10-0159-9500000000-ff8ffe0b2cdfa8a4dd7e
submitter=submitter = University of Tokyo Team (Faculty of Engineering, University of Tokyo)
MoNA Rating=3.75

>  <NUM PEAKS>  (3854) 
54

>  <MASS SPECTRAL PEAKS>  (3854) 
52 5.5
53 3.1
54 5
56 0.5
62 1.8
63 37.5
64 4.1
65 99.99
66 5
67 5.5
69 1.8
77 0.4
78 2
79 4
80 38
81 0.31
82 2.8
83 1.5
93 2.5
94 0.35
95 6
106 2
107 2.8
111 0.45
120 1.5
121 2
122 4
123 1.1
124 1
125 1.5
136 1.3
137 1.85
138 3.5
139 5.2
140 2
147 0.17
149 1.5
151 1.5
152 1.5
153 0.51
154 1
164 4.2
165 29
166 0.52
167 3.9
168 4.1
181 2.5
182 0.81
183 54.5
184 5.2
190 1.1
192 0.11
262 5.8
263 0.9

$$$$

     RDKit          2D

 18 18  0  0  0  0  0  0  0  0999 V2000
   -2.2736   -3.1873    0.0000 C   0  0  0  0  0  0  0  0  0  0  0  0
    5.5211   -0.1878    0.0000 C   0  0  0  0  0  0  0  0  0  0  0  0
    2.9224    4.3133    0.0000 C   0  0  0  0  0  0  0  0  0  0  0  0
    5.5206    1.3127    0.0000 C   0  0  0  0  0  0  0  0  0  0  0  0
   -3.5732    2.0629    0.0000 C   0  0  0  0  0  0  0  0  0  0  0  0
    1.6240   -0.9382    0.0000 C   0  0  0  0  0  0  0  0  0  0  0  0
   -0.9745   -0.9373    0.0000 C   0  0  0  0  0  0  0  0  0  0  0  0
   -0.9752    2.0633    0.0000 C   0  0  0  0  0  0  0  0  0  0  0  0
    0.3245   -0.1873    0.0000 C   0  0  0  0  0  0  0  0  0  0  0  0
    0.3240    1.3135    0.0000 C   0  0  0  0  0  0  0  0  0  0  0  0
    2.9230   -0.1882    0.0000 C   0  0  0  0  0  0  0  0  0  0  0  0
    1.6230    2.0635    0.0000 C   0  0  0  0  0  0  0  0  0  0  0  0
    2.9226    1.3127    0.0000 C   0  0  0  0  0  0  0  0  0  0  0  0
   -0.9745   -2.4373    0.0000 O   0  0  0  0  0  0  0  0  0  0  0  0
    4.2222   -0.9380    0.0000 O   0  0  0  0  0  0  0  0  0  0  0  0
    1.6233    3.5635    0.0000 O   0  0  0  0  0  0  0  0  0  0  0  0
    4.2216    2.0627    0.0000 O   0  0  0  0  0  0  0  0  0  0  0  0
   -2.2741    1.3131    0.0000 S   0  0  0  0  0  0  0  0  0  0  0  0
  9  6  2  0
  9  7  1  0
 10  8  1  0
 10  9  1  0
 11  6  1  0
 12 10  2  0
 13 11  2  0
 13 12  1  0
 14  1  1  0
 14  7  1  0
 15  2  1  0
 15 11  1  0
 16  3  1  0
 16 12  1  0
 17  4  1  0
 17 13  1  0
 18  5  1  0
 18  8  1  0
M  END
>  <NAME>  (3855) 
6-METHOXYMETHYL-2,3,4-TRIMETHOXYBENZYL METHYL SULFIDE

>  <SYNONYMS>  (3855) 
3,4,5-TRIMETHOXY-2-METHYLTHIOMETHYLBENZYLMETHYL ETHER

>  <SPECTRUM TYPE>  (3855) 
MS1

>  <INSTRUMENT TYPE>  (3855) 
EI-B

>  <INSTRUMENT>  (3855) 
JEOL JMS-D-300

>  <ION MODE>  (3855) 
P

>  <INCHIKEY>  (3855) 
GZJAMAMUGPOLDU-UHFFFAOYSA-N

>  <FORMULA>  (3855) 
C13H20O4S

>  <EXACT MASS>  (3855) 
272.10823012000003

>  <MW>  (3855) 
272

>  <ID>  (3855) 
JP006695

>  <CONTRIBUTOR>  (3855) 
University of Tokyo Team, {Faculty of Engineering, University of Tokyo

>  <COMMENT>  (3855) 
SMILES=COCc(c1)c(CSC)c(OC)c(OC)c(OC)1
InChI=InChI=1S/C13H20O4S/c1-14-7-9-6-11(15-2)13(17-4)12(16-3)10(9)8-18-5/h6H,7-8H2,1-5H3
computed SMILES=O(C=1C=C(C(=C(OC)C1OC)CSC)COC)C
accession=JP006695
date=2016.01.19 (Created 2008.10.21, modified 2011.05.06)
author=MASS SPECTROSCOPY SOC. OF JAPAN (MSSJ)
license=CC BY-NC-SA
exact mass=272.10823
ionization energy=70 eV
ion type=[M]+*
computed spectral entropy=2.3535864067022714
computed normalized entropy=0.6791014874506084
SPLASH=splash10-0002-1920000000-eec777a4eb7c79ade48b
submitter=submitter = University of Tokyo Team (Faculty of Engineering, University of Tokyo)
MoNA Rating=3.75

>  <NUM PEAKS>  (3855) 
32

>  <MASS SPECTRAL PEAKS>  (3855) 
53 2.5
54 2.4
58 2.2
63 0.25
65 3.4
77 3.7
78 2.1
79 0.26
91 3.4
105 3.4
107 3.7
120 0.25
121 2.3
135 2.7
136 2
137 0.33
149 4.1
150 4.3
151 5.1
165 0.35
167 2.8
179 7
180 8.2
181 0.56
194 5.6
195 99.99
196 12
209 0.66
210 3.5
224 9.7
225 32.7
226 5.1

$$$$

     RDKit          2D

 17 17  0  0  0  0  0  0  0  0999 V2000
    4.8721   -1.3127    0.0000 C   0  0  0  0  0  0  0  0  0  0  0  0
   -0.3246    3.1888    0.0000 C   0  0  0  0  0  0  0  0  0  0  0  0
    4.8717    0.1878    0.0000 C   0  0  0  0  0  0  0  0  0  0  0  0
   -4.2222    0.9380    0.0000 C   0  0  0  0  0  0  0  0  0  0  0  0
    0.9750   -2.0631    0.0000 C   0  0  0  0  0  0  0  0  0  0  0  0
   -1.6235   -2.0622    0.0000 C   0  0  0  0  0  0  0  0  0  0  0  0
   -1.6241    0.9384    0.0000 C   0  0  0  0  0  0  0  0  0  0  0  0
   -0.3245   -1.3122    0.0000 C   0  0  0  0  0  0  0  0  0  0  0  0
   -0.3250    0.1886    0.0000 C   0  0  0  0  0  0  0  0  0  0  0  0
    2.2741   -1.3131    0.0000 C   0  0  0  0  0  0  0  0  0  0  0  0
    0.9741    0.9386    0.0000 C   0  0  0  0  0  0  0  0  0  0  0  0
    2.2736    0.1878    0.0000 C   0  0  0  0  0  0  0  0  0  0  0  0
   -1.6235   -3.5622    0.0000 O   0  0  0  0  0  0  0  0  0  0  0  0
    3.5732   -2.0629    0.0000 O   0  0  0  0  0  0  0  0  0  0  0  0
    0.9743    2.4386    0.0000 O   0  0  0  0  0  0  0  0  0  0  0  0
    3.5726    0.9378    0.0000 O   0  0  0  0  0  0  0  0  0  0  0  0
   -2.9230    0.1882    0.0000 S   0  0  0  0  0  0  0  0  0  0  0  0
  8  5  2  0
  8  6  1  0
  9  7  1  0
  9  8  1  0
 10  5  1  0
 11  9  2  0
 12 10  2  0
 12 11  1  0
 13  6  1  0
 14  1  1  0
 14 10  1  0
 15  2  1  0
 15 11  1  0
 16  3  1  0
 16 12  1  0
 17  4  1  0
 17  7  1  0
M  END
>  <NAME>  (3856) 
3,4,5-TRIMETHOXY-2-METHYLTHIOMETHYLBENZYLALCOHOL

>  <SYNONYMS>  (3856) 


>  <SPECTRUM TYPE>  (3856) 
MS1

>  <INSTRUMENT TYPE>  (3856) 
EI-B

>  <INSTRUMENT>  (3856) 
JEOL JMS-D-300

>  <ION MODE>  (3856) 
P

>  <INCHIKEY>  (3856) 
MXRWOBWNOFESSY-UHFFFAOYSA-N

>  <FORMULA>  (3856) 
C12H18O4S

>  <EXACT MASS>  (3856) 
258.092580056

>  <MW>  (3856) 
258

>  <ID>  (3856) 
JP006694

>  <CONTRIBUTOR>  (3856) 
University of Tokyo Team, {Faculty of Engineering, University of Tokyo

>  <COMMENT>  (3856) 
SMILES=CSCc(c(CO)1)c(OC)c(OC)c(OC)c1
InChI=InChI=1S/C12H18O4S/c1-14-10-5-8(6-13)9(7-17-4)11(15-2)12(10)16-3/h5,13H,6-7H2,1-4H3
computed SMILES=OCC1=CC(OC)=C(OC)C(OC)=C1CSC
accession=JP006694
date=2016.01.19 (Created 2008.10.21, modified 2011.05.06)
author=MASS SPECTROSCOPY SOC. OF JAPAN (MSSJ)
license=CC BY-NC-SA
exact mass=258.09258
ionization energy=70 eV
ion type=[M]+*
computed spectral entropy=2.8234540775926065
computed normalized entropy=0.7078128276859009
SPLASH=splash10-03di-1590000000-184d503dd5a646420af7
submitter=submitter = University of Tokyo Team (Faculty of Engineering, University of Tokyo)
MoNA Rating=3.75

>  <NUM PEAKS>  (3856) 
54

>  <MASS SPECTRAL PEAKS>  (3856) 
39 3.4
41 2.4
43 2.7
45 0.2
51 3.2
53 3.6
61 6.9
65 0.43
67 2.1
77 4.9
79 4
91 0.54
93 2.1
95 2.1
105 3.6
107 0.47
108 2.4
109 4.1
121 4.5
123 0.37
125 2.5
135 2.4
136 4.3
137 0.66
138 2.7
139 2.2
141 2.3
148 0.24
149 3.1
150 2.9
151 7.9
152 1.56
153 6.9
165 2.9
166 7
167 0.65
168 9.2
169 2.3
178 4
179 0.57
181 14.4
182 2.1
183 4.6
194 0.37
195 9.5
196 22
197 3.8
209 0.33
210 89.5
211 99.99
212 26
213 0.34
258 3.3
259 0.5

$$$$

     RDKit          2D

 15 15  0  0  0  0  0  0  0  0999 V2000
   -4.2218    1.6124    0.0000 C   0  0  0  0  0  0  0  0  0  0  0  0
    2.2732   -3.6382    0.0000 C   0  0  0  0  0  0  0  0  0  0  0  0
    3.5732    3.1131    0.0000 C   0  0  0  0  0  0  0  0  0  0  0  0
    4.8714   -0.6376    0.0000 C   0  0  0  0  0  0  0  0  0  0  0  0
   -0.3252   -0.6384    0.0000 C   0  0  0  0  0  0  0  0  0  0  0  0
    0.9748    1.6133    0.0000 C   0  0  0  0  0  0  0  0  0  0  0  0
   -1.6238    1.6124    0.0000 C   0  0  0  0  0  0  0  0  0  0  0  0
   -0.3247    0.8624    0.0000 C   0  0  0  0  0  0  0  0  0  0  0  0
    0.9738   -1.3884    0.0000 C   0  0  0  0  0  0  0  0  0  0  0  0
    2.2738    0.8633    0.0000 C   0  0  0  0  0  0  0  0  0  0  0  0
    2.2733   -0.6376    0.0000 C   0  0  0  0  0  0  0  0  0  0  0  0
   -2.9228    0.8624    0.0000 O   0  0  0  0  0  0  0  0  0  0  0  0
    0.9741   -2.8884    0.0000 O   0  0  0  0  0  0  0  0  0  0  0  0
    3.5730    1.6131    0.0000 O   0  0  0  0  0  0  0  0  0  0  0  0
    3.5724   -1.3876    0.0000 O   0  0  0  0  0  0  0  0  0  0  0  0
  8  5  2  0
  8  6  1  0
  8  7  1  0
  9  5  1  0
 10  6  2  0
 11  9  2  0
 11 10  1  0
 12  1  1  0
 12  7  1  0
 13  2  1  0
 13  9  1  0
 14  3  1  0
 14 10  1  0
 15  4  1  0
 15 11  1  0
M  END
>  <NAME>  (3857) 
3,4,5-TRIMETHOXYBENZYL METHYL ETHER

>  <SYNONYMS>  (3857) 


>  <SPECTRUM TYPE>  (3857) 
MS1

>  <INSTRUMENT TYPE>  (3857) 
EI-B

>  <INSTRUMENT>  (3857) 
JEOL JMS-D-300

>  <ION MODE>  (3857) 
P

>  <INCHIKEY>  (3857) 
MRSLZYLPFVSLDY-UHFFFAOYSA-N

>  <FORMULA>  (3857) 
C11H16O4

>  <EXACT MASS>  (3857) 
212.104858992

>  <MW>  (3857) 
212

>  <ID>  (3857) 
JP006693

>  <CONTRIBUTOR>  (3857) 
University of Tokyo Team, {Faculty of Engineering, University of Tokyo

>  <COMMENT>  (3857) 
SMILES=COCc(c1)cc(OC)c(OC)c(OC)1
InChI=InChI=1S/C11H16O4/c1-12-7-8-5-9(13-2)11(15-4)10(6-8)14-3/h5-6H,7H2,1-4H3
computed SMILES=O(C=1C=C(C=C(OC)C1OC)COC)C
accession=JP006693
date=2016.01.19 (Created 2008.10.21, modified 2011.05.06)
author=MASS SPECTROSCOPY SOC. OF JAPAN (MSSJ)
license=CC BY-NC-SA
exact mass=212.10486
ionization energy=70 eV
ion type=[M]+*
computed spectral entropy=3.613682422263697
computed normalized entropy=0.8200391764252094
SPLASH=splash10-03di-5950000000-8904ad44e05dd5d8f487
submitter=submitter = University of Tokyo Team (Faculty of Engineering, University of Tokyo)
MoNA Rating=3.75

>  <NUM PEAKS>  (3857) 
82

>  <MASS SPECTRAL PEAKS>  (3857) 
40 1.8
41 5.6
43 4.4
45 1.93
50 4.2
51 10.1
52 10.3
53 0.6
55 3.7
57 1.4
59 3.7
62 0.21
63 5.2
64 3.9
65 8.6
66 0.41
67 3.5
68 4.2
69 2.4
71 0.27
73 2.3
75 5.2
76 2.2
77 1.08
78 5.2
79 6.2
80 4.6
81 0.33
83 3.6
89 3.5
90 2.9
91 0.46
92 3.1
93 4.4
94 2.7
95 0.97
96 2.3
105 3.6
106 5
107 0.48
108 2.9
109 5.6
110 2.4
111 0.78
120 2.7
121 4.2
122 3.7
123 0.72
124 3.1
125 3.9
126 2.8
135 0.32
136 8.3
137 7
138 22.3
139 1.3
140 1.4
148 10.9
149 2
150 0.16
151 11.7
152 2.7
153 2.3
154 1.27
155 1.7
165 4.8
166 4.1
167 1.18
168 1.8
169 19.6
170 1.9
181 9.98
182 28.7
183 3.7
195 1.4
196 0.36
197 15.9
198 1.9
211 7.3
212 99.99
213 12.8
214 1.7

$$$$

     RDKit          2D

 21 21  0  0  0  0  0  0  0  0999 V2000
    1.2989    5.5510    0.0000 C   0  0  0  0  0  0  0  0  0  0  0  0
   -3.8981   -3.4504    0.0000 C   0  0  0  0  0  0  0  0  0  0  0  0
   -3.8971    4.0500    0.0000 C   0  0  0  0  0  0  0  0  0  0  0  0
    5.1962   -1.2000    0.0000 C   0  0  0  0  0  0  0  0  0  0  0  0
    1.2995    1.0508    0.0000 C   0  0  0  0  0  0  0  0  0  0  0  0
   -0.0005   -1.2008    0.0000 C   0  0  0  0  0  0  0  0  0  0  0  0
    2.5981   -1.2000    0.0000 C   0  0  0  0  0  0  0  0  0  0  0  0
    1.2992    4.0510    0.0000 C   0  0  0  0  0  0  0  0  0  0  0  0
   -2.5989   -2.7006    0.0000 C   0  0  0  0  0  0  0  0  0  0  0  0
   -2.5981    3.3000    0.0000 C   0  0  0  0  0  0  0  0  0  0  0  0
    1.2990   -0.4500    0.0000 C   0  0  0  0  0  0  0  0  0  0  0  0
    0.0005    1.8008    0.0000 C   0  0  0  0  0  0  0  0  0  0  0  0
   -1.2995   -0.4508    0.0000 C   0  0  0  0  0  0  0  0  0  0  0  0
   -1.2990    1.0500    0.0000 C   0  0  0  0  0  0  0  0  0  0  0  0
    2.5983    3.3012    0.0000 O   0  0  0  0  0  0  0  0  0  0  0  0
   -1.3000   -3.4508    0.0000 O   0  0  0  0  0  0  0  0  0  0  0  0
   -1.2990    4.0500    0.0000 O   0  0  0  0  0  0  0  0  0  0  0  0
    3.8971   -0.4500    0.0000 O   0  0  0  0  0  0  0  0  0  0  0  0
    0.0002    3.3008    0.0000 O   0  0  0  0  0  0  0  0  0  0  0  0
   -2.5987   -1.2006    0.0000 O   0  0  0  0  0  0  0  0  0  0  0  0
   -2.5981    1.8000    0.0000 O   0  0  0  0  0  0  0  0  0  0  0  0
  8  1  1  0
  9  2  1  0
 10  3  1  0
 11  5  2  0
 11  6  1  0
 11  7  1  0
 12  5  1  0
 13  6  2  0
 14 12  2  0
 14 13  1  0
 15  8  2  0
 16  9  2  0
 17 10  2  0
 18  4  1  0
 18  7  1  0
 19  8  1  0
 19 12  1  0
 20  9  1  0
 20 13  1  0
 21 10  1  0
 21 14  1  0
M  END
>  <NAME>  (3858) 
3,4,5-TRIACETOXYBENZYL METHYL ETHER

>  <SYNONYMS>  (3858) 


>  <SPECTRUM TYPE>  (3858) 
MS1

>  <INSTRUMENT TYPE>  (3858) 
EI-B

>  <INSTRUMENT>  (3858) 
JEOL JMS-D-300

>  <ION MODE>  (3858) 
P

>  <INCHIKEY>  (3858) 
CAHWHTZJKRNHIT-UHFFFAOYSA-N

>  <FORMULA>  (3858) 
C14H16O7

>  <EXACT MASS>  (3858) 
296.089602852

>  <MW>  (3858) 
296

>  <ID>  (3858) 
JP006692

>  <CONTRIBUTOR>  (3858) 
University of Tokyo Team, {Faculty of Engineering, University of Tokyo

>  <COMMENT>  (3858) 
SMILES=COCc(c1)cc(OC(C)=O)c(OC(C)=O)c(OC(C)=O)1
InChI=InChI=1S/C14H16O7/c1-8(15)19-12-5-11(7-18-4)6-13(20-9(2)16)14(12)21-10(3)17/h5-6H,7H2,1-4H3
computed SMILES=O=C(OC=1C=C(C=C(OC(=O)C)C1OC(=O)C)COC)C
accession=JP006692
date=2016.01.19 (Created 2008.10.21, modified 2011.05.06)
author=MASS SPECTROSCOPY SOC. OF JAPAN (MSSJ)
license=CC BY-NC-SA
exact mass=296.0896
ionization energy=70 eV
ion type=[M]+*
computed spectral entropy=2.5513285078261894
computed normalized entropy=0.6488915700105443
SPLASH=splash10-01ox-9660000000-fb8981d440068569253d
submitter=submitter = University of Tokyo Team (Faculty of Engineering, University of Tokyo)
MoNA Rating=3.75

>  <NUM PEAKS>  (3858) 
51

>  <MASS SPECTRAL PEAKS>  (3858) 
41 2.6
42 1.4
43 99.99
44 0.22
51 1.7
52 2.4
53 2.3
55 0.16
57 1.4
64 1
65 1.4
66 0.11
67 1.4
69 1.4
78 1
79 0.1
80 1.4
81 4.4
95 1.9
97 0.11
106 1.9
109 4.1
110 2.5
122 0.12
123 2.5
124 5.8
125 1.4
126 0.11
127 1.3
138 3.1
139 1.2
141 0.43
151 5.2
152 5
153 15.5
154 0.17
155 3.1
168 1.2
169 13.7
170 7.84
171 6.8
194 1.1
195 2.3
211 0.16
212 70.6
213 7.3
214 1.1
254 2.37
255 2.9
296 5.8
297 1

$$$$

     RDKit          2D

 12 12  0  0  0  0  0  0  0  0999 V2000
   -4.2219    2.3625    0.0000 C   0  0  0  0  0  0  0  0  0  0  0  0
   -0.3252    0.1117    0.0000 C   0  0  0  0  0  0  0  0  0  0  0  0
    0.9748    2.3633    0.0000 C   0  0  0  0  0  0  0  0  0  0  0  0
   -1.6238    2.3625    0.0000 C   0  0  0  0  0  0  0  0  0  0  0  0
   -0.3248    1.6125    0.0000 C   0  0  0  0  0  0  0  0  0  0  0  0
    0.9738   -0.6383    0.0000 C   0  0  0  0  0  0  0  0  0  0  0  0
    2.2738    1.6133    0.0000 C   0  0  0  0  0  0  0  0  0  0  0  0
    2.2733    0.1125    0.0000 C   0  0  0  0  0  0  0  0  0  0  0  0
    0.9740   -2.1383    0.0000 O   0  0  0  0  0  0  0  0  0  0  0  0
    3.5730    2.3631    0.0000 O   0  0  0  0  0  0  0  0  0  0  0  0
    3.5724   -0.6375    0.0000 O   0  0  0  0  0  0  0  0  0  0  0  0
   -2.9228    1.6125    0.0000 O   0  0  0  0  0  0  0  0  0  0  0  0
  5  2  2  0
  5  3  1  0
  5  4  1  0
  6  2  1  0
  7  3  2  0
  8  6  2  0
  8  7  1  0
  9  6  1  0
 10  7  1  0
 11  8  1  0
 12  1  1  0
 12  4  1  0
M  END
>  <NAME>  (3859) 
3,4,5-TRIHYDROXYBENZYL METHYL ETHER

>  <SYNONYMS>  (3859) 


>  <SPECTRUM TYPE>  (3859) 
MS1

>  <INSTRUMENT TYPE>  (3859) 
EI-B

>  <INSTRUMENT>  (3859) 
JEOL JMS-D-300

>  <ION MODE>  (3859) 
P

>  <INCHIKEY>  (3859) 
YAXUEWSAEFZPFJ-UHFFFAOYSA-N

>  <FORMULA>  (3859) 
C8H10O4

>  <EXACT MASS>  (3859) 
170.0579088

>  <MW>  (3859) 
170

>  <ID>  (3859) 
JP006689

>  <CONTRIBUTOR>  (3859) 
University of Tokyo Team, {Faculty of Engineering, University of Tokyo

>  <COMMENT>  (3859) 
SMILES=COCc(c1)cc(O)c(O)c(O)1
InChI=InChI=1S/C8H10O4/c1-12-4-5-2-6(9)8(11)7(10)3-5/h2-3,9-11H,4H2,1H3
computed SMILES=OC=1C=C(C=C(O)C1O)COC
accession=JP006689
date=2016.01.19 (Created 2008.10.21, modified 2011.05.06)
author=MASS SPECTROSCOPY SOC. OF JAPAN (MSSJ)
license=CC BY-NC-SA
exact mass=170.05791
ionization energy=70 eV
ion type=[M]+*
computed spectral entropy=3.042035578786557
computed normalized entropy=0.7698931767941428
SPLASH=splash10-05gi-5900000000-6e61137cb4bdfbca31c6
submitter=submitter = University of Tokyo Team (Faculty of Engineering, University of Tokyo)
MoNA Rating=3.75

>  <NUM PEAKS>  (3859) 
52

>  <MASS SPECTRAL PEAKS>  (3859) 
52 4.8
53 10.8
54 9.5
55 3.25
56 15.7
58 4.9
63 3
64 0.31
65 6.2
66 4.1
67 6.6
68 0.37
69 10.6
70 2.5
71 5
73 0.28
77 2.2
78 2.5
79 3.9
80 0.6
81 51.5
82 5.7
83 2.8
85 0.3
93 4.6
95 3.6
97 5.8
98 0.34
99 7.8
106 2.2
109 66.8
110 1.16
111 3.8
122 2.6
123 4.2
124 0.26
125 4.2
126 5.7
127 34.5
128 0.26
137 2.9
138 7.2
139 4.9
141 1.02
151 6.7
152 8
153 17.7
154 0.45
155 3.9
169 4.8
170 99.99
171 9.9

$$$$

     RDKit          2D

 15 16  0  0  0  0  0  0  0  0999 V2000
   -5.2881    0.7636    0.0000 C   0  0  0  0  0  0  0  0  0  0  0  0
   -2.6900   -0.7400    0.0000 C   0  0  0  0  0  0  0  0  0  0  0  0
   -1.4000   -1.5100    0.0000 C   0  0  0  0  0  0  0  0  0  0  0  0
    2.5200   -0.7600    0.0000 C   0  0  0  0  0  0  0  0  0  0  0  0
   -1.4000    1.5000    0.0000 C   0  0  0  0  0  0  0  0  0  0  0  0
    1.1801   -3.0200    0.0000 C   0  0  0  0  0  0  0  0  0  0  0  0
    1.1900   -1.5200    0.0000 C   0  0  0  0  0  0  0  0  0  0  0  0
   -2.6900    0.7600    0.0000 C   0  0  0  0  0  0  0  0  0  0  0  0
   -0.1000   -0.7600    0.0000 C   0  0  0  0  0  0  0  0  0  0  0  0
   -0.1000    0.7600    0.0000 C   0  0  0  0  0  0  0  0  0  0  0  0
    2.5200    0.7600    0.0000 C   0  0  0  0  0  0  0  0  0  0  0  0
    2.4741   -3.7786    0.0000 O   0  0  0  0  0  0  0  0  0  0  0  0
    3.8174    1.5129    0.0000 O   0  0  0  0  0  0  0  0  0  0  0  0
   -3.9880    1.5118    0.0000 O   0  0  0  0  0  0  0  0  0  0  0  0
    1.1900    1.5200    0.0000 O   0  0  0  0  0  0  0  0  0  0  0  0
  3  2  2  0
  7  4  2  0
  7  6  1  0
  8  2  1  0
  8  5  2  0
  9  3  1  0
  9  7  1  0
 10  5  1  0
 10  9  2  0
 11  4  1  0
 12  6  2  0
 13 11  2  0
 14  1  1  0
 14  8  1  0
 15 10  1  0
 15 11  1  0
M  END
>  <NAME>  (3860) 
4-FORMYL-7-METHOXYCOUMARIN

>  <SYNONYMS>  (3860) 


>  <SPECTRUM TYPE>  (3860) 
MS1

>  <INSTRUMENT TYPE>  (3860) 
EI-B

>  <INSTRUMENT>  (3860) 
HITACHI RMU-6L

>  <ION MODE>  (3860) 
P

>  <INCHIKEY>  (3860) 
MHZUULROATWSBY-UHFFFAOYSA-N

>  <FORMULA>  (3860) 
C11H8O4

>  <EXACT MASS>  (3860) 
204.042258736

>  <MW>  (3860) 
204

>  <ID>  (3860) 
JP006688

>  <CONTRIBUTOR>  (3860) 
University of Tokyo Team, {Faculty of Engineering, University of Tokyo

>  <COMMENT>  (3860) 
SMILES=COc(c2)cc(O1)c(c2)C(C=O)=CC(=O)1
InChI=InChI=1S/C11H8O4/c1-14-8-2-3-9-7(6-12)4-11(13)15-10(9)5-8/h2-6H,1H3
computed SMILES=O=CC1=CC(=O)OC=2C=C(OC)C=CC21
accession=JP006688
date=2016.01.19 (Created 2008.10.21, modified 2011.05.06)
author=MASS SPECTROSCOPY SOC. OF JAPAN (MSSJ)
license=CC BY-NC-SA
exact mass=204.04226
ionization energy=70 eV
ion type=[M]+*
computed spectral entropy=3.3826096100939194
computed normalized entropy=0.8196024879516886
SPLASH=splash10-0udi-9650000000-d77eab70bc5cb98307a2
submitter=submitter = University of Tokyo Team (Faculty of Engineering, University of Tokyo)
MoNA Rating=3.75

>  <NUM PEAKS>  (3860) 
62

>  <MASS SPECTRAL PEAKS>  (3860) 
41 15
42 6.7
43 15
44 0.45
45 3.8
50 6.5
51 10.3
53 0.28
55 9.5
56 8.9
57 13.7
60 0.25
61 3.1
62 7.1
63 7.5
64 0.26
65 4.5
67 3
69 8.7
70 0.77
71 7.5
73 2.5
74 3.7
75 0.36
76 7.8
77 15.4
78 2.8
81 0.43
83 3.4
84 2.6
85 3.6
86 0.25
87 3.6
88 5.5
89 5.9
90 0.53
91 6.2
97 3.2
98 2.6
99 0.28
101 3.3
104 3
105 6.1
112 0.25
116 3.2
119 8.1
120 10.3
131 0.32
133 6.9
148 41
149 6.7
153 1.4
154 2.8
155 2.6
161 19.6
162 0.32
175 10.4
176 23.5
177 3.3
204 99.99
205 12.8
206 2.4

$$$$

     RDKit          2D

 23 25  0  0  0  0  0  0  0  0999 V2000
    3.3650   -0.9687    0.0000 C   0  0  0  0  0  0  0  0  0  0  0  0
    0.7099   -2.0573    0.0000 C   0  0  0  0  0  0  0  0  0  0  0  0
    2.5091    2.9941    0.0000 C   0  0  0  0  0  0  0  0  0  0  0  0
   -3.0029    1.9464    0.0000 C   0  0  0  0  0  0  0  0  0  0  0  0
   -1.7038    1.1964    0.0000 C   0  0  0  0  0  0  0  0  0  0  0  0
   -5.9259    3.0001    0.0000 C   0  0  0  0  0  0  0  0  0  0  0  0
   -6.6759    1.7010    0.0000 C   0  0  0  0  0  0  0  0  0  0  0  0
   -4.3019   -0.3036    0.0000 C   0  0  0  0  0  0  0  0  0  0  0  0
    1.9947   -1.5788    0.0000 C   0  0  0  0  0  0  0  0  0  0  0  0
   -3.0029   -1.0536    0.0000 C   0  0  0  0  0  0  0  0  0  0  0  0
   -1.1992   -2.6776    0.0000 C   0  0  0  0  0  0  0  0  0  0  0  0
    0.9820    0.8922    0.0000 C   0  0  0  0  0  0  0  0  0  0  0  0
   -0.5891   -1.3073    0.0000 C   0  0  0  0  0  0  0  0  0  0  0  0
   -4.3019    1.1964    0.0000 C   0  0  0  0  0  0  0  0  0  0  0  0
   -1.7038   -0.3036    0.0000 C   0  0  0  0  0  0  0  0  0  0  0  0
    1.8379   -3.0706    0.0000 O   0  0  0  0  0  0  0  0  0  0  0  0
   -0.4492   -3.9766    0.0000 O   0  0  0  0  0  0  0  0  0  0  0  0
    2.5838   -0.2716    0.0000 O   0  0  0  0  0  0  0  0  0  0  0  0
    1.1388    2.3840    0.0000 O   0  0  0  0  0  0  0  0  0  0  0  0
   -4.4587    2.6882    0.0000 O   0  0  0  0  0  0  0  0  0  0  0  0
   -5.6722    0.5863    0.0000 O   0  0  0  0  0  0  0  0  0  0  0  0
   -2.6910   -2.5208    0.0000 O   0  0  0  0  0  0  0  0  0  0  0  0
    0.7812   -0.6972    0.0000 O   0  0  0  0  0  0  0  0  0  0  0  0
  5  4  1  0
  7  6  1  0
  9  1  1  0
 10  8  1  0
 13  2  1  0
 13 11  1  0
 14  4  1  0
 14  8  1  0
 15  5  1  0
 15 10  1  0
 15 12  1  0
 15 13  1  0
 16  9  2  0
 17 11  2  0
 18 12  2  0
 19  3  1  0
 19 12  1  0
 20  6  1  0
 20 14  1  0
 21  7  1  0
 21 14  1  0
 22 10  1  0
 22 11  1  0
 23  9  1  0
 23 13  1  0
M  END
>  <NAME>  (3861) 
9-ACETOXY-4,4-ETHYLENEDIOXY-1-METHOXYCARBONYL-9-METHYL-7-OXABICYCLO(4.3.0)NONAN-8-ONE

>  <SYNONYMS>  (3861) 


>  <SPECTRUM TYPE>  (3861) 
MS1

>  <INSTRUMENT TYPE>  (3861) 
EI-B

>  <INSTRUMENT>  (3861) 
HITACHI RMU-6L

>  <ION MODE>  (3861) 
P

>  <INCHIKEY>  (3861) 
OFYSQZHEUSDXPT-UHFFFAOYSA-N

>  <FORMULA>  (3861) 
C15H20O8

>  <EXACT MASS>  (3861) 
328.1158176

>  <MW>  (3861) 
328

>  <ID>  (3861) 
JP006687

>  <CONTRIBUTOR>  (3861) 
University of Tokyo Team, {Faculty of Engineering, University of Tokyo

>  <COMMENT>  (3861) 
SMILES=COC(=O)C(C2)(C1CC(O3)(OCC3)C2)C(C)(OC(C)=O)C(=O)O1
InChI=InChI=1S/C15H20O8/c1-9(16)23-13(2)11(17)22-10-8-14(20-6-7-21-14)4-5-15(10,13)12(18)19-3/h10H,4-8H2,1-3H3
computed SMILES=O=C(OC1(C(=O)OC2CC3(OCCO3)CCC21C(=O)OC)C)C
accession=JP006687
date=2016.01.19 (Created 2008.10.21, modified 2011.05.06)
author=MASS SPECTROSCOPY SOC. OF JAPAN (MSSJ)
license=CC BY-NC-SA
exact mass=328.11582
ionization energy=70 eV
ion type=[M]+*
computed spectral entropy=3.8350985626624587
computed normalized entropy=0.8309855720273425
SPLASH=splash10-0005-9410000000-d6f4bc4772f4ecb766f6
submitter=submitter = University of Tokyo Team (Faculty of Engineering, University of Tokyo)
MoNA Rating=3.75

>  <NUM PEAKS>  (3861) 
101

>  <MASS SPECTRAL PEAKS>  (3861) 
41 15.1
42 10.8
43 55.2
44 0.54
45 6.5
51 2.6
53 6.8
54 0.32
55 14.4
56 13.1
57 13.1
59 0.42
60 5.2
61 2.9
65 4
66 0.25
67 6.3
68 3.3
69 7.1
70 0.76
71 8.9
73 4.7
77 4.5
78 0.26
79 4.5
81 4.7
82 3.1
83 0.5
84 3.9
85 5.1
86 44.4
87 3.32
88 3.5
89 4.6
91 3.7
93 0.3
95 4.8
96 2.8
97 4.7
98 0.32
99 99.99
100 12.5
101 3.2
105 0.25
107 2.5
109 3.5
111 2.9
112 0.29
113 11
114 6.8
115 19
116 0.27
121 3.2
124 3
126 2.8
127 0.28
129 4.7
137 3.6
138 2.7
139 0.49
140 2.7
141 2.6
144 9.6
145 0.25
148 2.9
149 4
153 3.7
154 0.87
155 12.3
156 2.7
165 7.3
166 0.26
167 5.5
168 3.1
179 2.9
181 0.43
183 5.9
186 3.9
193 2.9
195 3.4
197 0.94
199 8.9
204 2.6
209 3.99
210 7.8
211 3.7
214 6
224 0.42
225 4.5
239 7.4
241 5.2
242 0.25
253 5
255 3.7
268 12.9
269 0.81
270 2.6
297 2.5
298 2.2
328 0.36
329 2.1

$$$$

     RDKit          2D

 17 17  0  0  0  0  0  0  0  0999 V2000
    2.3618    4.6590    0.0000 C   0  0  0  0  0  0  0  0  0  0  0  0
    1.1063    5.4119    0.0000 C   0  0  0  0  0  0  0  0  0  0  0  0
   -6.6955    2.4316    0.0000 C   0  0  0  0  0  0  0  0  0  0  0  0
    3.6682    0.9419    0.0000 C   0  0  0  0  0  0  0  0  0  0  0  0
    2.3966    0.1947    0.0000 C   0  0  0  0  0  0  0  0  0  0  0  0
    3.6552    2.4240    0.0000 C   0  0  0  0  0  0  0  0  0  0  0  0
    1.0798    0.9132    0.0000 C   0  0  0  0  0  0  0  0  0  0  0  0
   -1.4993    2.4184    0.0000 C   0  0  0  0  0  0  0  0  0  0  0  0
   -2.7965    3.1717    0.0000 C   0  0  0  0  0  0  0  0  0  0  0  0
    2.3704    3.1591    0.0000 C   0  0  0  0  0  0  0  0  0  0  0  0
   -0.1946    4.6652    0.0000 C   0  0  0  0  0  0  0  0  0  0  0  0
   -5.3945    3.1783    0.0000 C   0  0  0  0  0  0  0  0  0  0  0  0
    1.0987    2.4119    0.0000 C   0  0  0  0  0  0  0  0  0  0  0  0
   -0.1984    3.1652    0.0000 N   0  0  0  0  0  0  0  0  0  0  0  0
   -1.4917    5.4184    0.0000 O   0  0  0  0  0  0  0  0  0  0  0  0
   -5.3907    4.6783    0.0000 O   0  0  0  0  0  0  0  0  0  0  0  0
   -4.0974    2.4250    0.0000 O   0  0  0  0  0  0  0  0  0  0  0  0
  5  4  2  0
  6  4  1  0
  7  5  1  0
  9  8  1  0
 10  1  1  0
 10  6  2  0
 11  2  1  0
 12  3  1  0
 13  7  2  0
 13 10  1  0
 14  8  1  0
 14 11  1  0
 14 13  1  0
 15 11  2  0
 16 12  2  0
 17  9  1  0
 17 12  1  0
M  END
>  <NAME>  (3862) 
2-(N-ACETYL-2-ACETOXYETHYLAMINO)TOLUENE

>  <SYNONYMS>  (3862) 
2-(N-ACETYL-2-ACETOXYETHYLAMINO)-1-METHYLBENZENE

>  <SPECTRUM TYPE>  (3862) 
MS1

>  <INSTRUMENT TYPE>  (3862) 
EI-B

>  <INSTRUMENT>  (3862) 
JEOL JMS-D-300

>  <ION MODE>  (3862) 
P

>  <INCHIKEY>  (3862) 
ICTRVJDZFDRVOX-UHFFFAOYSA-N

>  <FORMULA>  (3862) 
C13H17NO3

>  <EXACT MASS>  (3862) 
235.12084340399997

>  <MW>  (3862) 
235

>  <ID>  (3862) 
JP006681

>  <CONTRIBUTOR>  (3862) 
University of Tokyo Team, {Faculty of Engineering, University of Tokyo

>  <COMMENT>  (3862) 
SMILES=CC(=O)OCCN(C(C)=O)c(c1)c(C)ccc1
InChI=InChI=1S/C13H17NO3/c1-10-6-4-5-7-13(10)14(11(2)15)8-9-17-12(3)16/h4-7H,8-9H2,1-3H3
computed SMILES=O=C(OCCN(C(=O)C)C=1C=CC=CC1C)C
accession=JP006681
date=2016.01.19 (Created 2008.10.21, modified 2011.05.06)
author=MASS SPECTROSCOPY SOC. OF JAPAN (MSSJ)
license=CC BY-NC-SA
exact mass=235.12084
ionization energy=70 eV
ion type=[M]+*
computed spectral entropy=2.770701288302422
computed normalized entropy=0.7616867798152251
SPLASH=splash10-00mo-5900000000-8713130f40ee293479a9
submitter=submitter = University of Tokyo Team (Faculty of Engineering, University of Tokyo)
MoNA Rating=3.75

>  <NUM PEAKS>  (3862) 
38

>  <MASS SPECTRAL PEAKS>  (3862) 
41 2
43 99.99
44 2
51 0.35
63 2
65 15.5
68 2
77 0.8
78 3.5
79 2.5
87 32.5
89 0.3
90 2
91 37.5
92 4.5
93 0.2
104 3
105 3
106 8
107 1.95
117 9
118 79
119 10.5
120 9.9
121 36
128 2
132 15
133 6.5
134 14
149 28.5
150 5
160 0.3
162 12
175 98.5
176 15
193 0.5
235 12.5
236 3.5

$$$$

     RDKit          2D

 16 16  0  0  0  0  0  0  0  0999 V2000
    1.2990    5.5700    0.0000 C   0  0  0  0  0  0  0  0  0  0  0  0
   -6.4952    2.5700    0.0000 C   0  0  0  0  0  0  0  0  0  0  0  0
    3.8971    1.0700    0.0000 C   0  0  0  0  0  0  0  0  0  0  0  0
    2.5976    0.3192    0.0000 C   0  0  0  0  0  0  0  0  0  0  0  0
    3.8976    2.5708    0.0000 C   0  0  0  0  0  0  0  0  0  0  0  0
    1.2986    1.0692    0.0000 C   0  0  0  0  0  0  0  0  0  0  0  0
    2.5986    3.3208    0.0000 C   0  0  0  0  0  0  0  0  0  0  0  0
   -1.2990    2.5700    0.0000 C   0  0  0  0  0  0  0  0  0  0  0  0
   -2.5981    3.3200    0.0000 C   0  0  0  0  0  0  0  0  0  0  0  0
    0.0000    4.8200    0.0000 C   0  0  0  0  0  0  0  0  0  0  0  0
   -5.1962    3.3200    0.0000 C   0  0  0  0  0  0  0  0  0  0  0  0
    1.2990    2.5700    0.0000 C   0  0  0  0  0  0  0  0  0  0  0  0
    0.0000    3.3200    0.0000 N   0  0  0  0  0  0  0  0  0  0  0  0
   -1.2990    5.5700    0.0000 O   0  0  0  0  0  0  0  0  0  0  0  0
   -5.1962    4.8200    0.0000 O   0  0  0  0  0  0  0  0  0  0  0  0
   -3.8971    2.5700    0.0000 O   0  0  0  0  0  0  0  0  0  0  0  0
  4  3  2  0
  5  3  1  0
  6  4  1  0
  7  5  2  0
  9  8  1  0
 10  1  1  0
 11  2  1  0
 12  6  2  0
 12  7  1  0
 13  8  1  0
 13 10  1  0
 13 12  1  0
 14 10  2  0
 15 11  2  0
 16  9  1  0
 16 11  1  0
M  END
>  <NAME>  (3863) 
N-ACETYL-2-ACETOXYETHYLAMINOBENZENE

>  <SYNONYMS>  (3863) 


>  <SPECTRUM TYPE>  (3863) 
MS1

>  <INSTRUMENT TYPE>  (3863) 
EI-B

>  <INSTRUMENT>  (3863) 
JEOL JMS-D-300

>  <ION MODE>  (3863) 
P

>  <INCHIKEY>  (3863) 
IGXHOQNEKVKXSV-UHFFFAOYSA-N

>  <FORMULA>  (3863) 
C12H15NO3

>  <EXACT MASS>  (3863) 
221.10519333999997

>  <MW>  (3863) 
221

>  <ID>  (3863) 
JP006680

>  <CONTRIBUTOR>  (3863) 
University of Tokyo Team, {Faculty of Engineering, University of Tokyo

>  <COMMENT>  (3863) 
SMILES=CC(=O)OCCN(C(C)=O)c(c1)cccc1
InChI=InChI=1S/C12H15NO3/c1-10(14)13(8-9-16-11(2)15)12-6-4-3-5-7-12/h3-7H,8-9H2,1-2H3
computed SMILES=O=C(OCCN(C=1C=CC=CC1)C(=O)C)C
accession=JP006680
date=2016.01.19 (Created 2008.10.21, modified 2011.05.06)
author=MASS SPECTROSCOPY SOC. OF JAPAN (MSSJ)
license=CC BY-NC-SA
exact mass=221.10519
ionization energy=70 eV
ion type=[M]+*
computed spectral entropy=2.41878249595438
computed normalized entropy=0.7423912912731598
SPLASH=splash10-05mo-5900000000-1933d72fd822161a7a34
submitter=submitter = University of Tokyo Team (Faculty of Engineering, University of Tokyo)
MoNA Rating=3.75

>  <NUM PEAKS>  (3863) 
26

>  <MASS SPECTRAL PEAKS>  (3863) 
43 99.99
44 2
51 12.5
65 0.5
77 36
78 6
79 6.5
87 0.5
91 10.5
92 3
93 13.5
104 1.25
105 7.5
106 99
107 9.5
118 1.65
119 77
120 12.5
135 9
136 0.2
148 6
161 55
162 9
179 1.35
221 10.5
222 2.5

$$$$

     RDKit          2D

 24 24  0  0  0  0  0  0  0  0999 V2000
    1.9487    4.1255    0.0000 C   0  0  0  0  0  0  0  0  0  0  0  0
    4.5466   -0.3753    0.0000 C   0  0  0  0  0  0  0  0  0  0  0  0
   -1.9486    4.8747    0.0000 C   0  0  0  0  0  0  0  0  0  0  0  0
   -7.1448    1.8747    0.0000 C   0  0  0  0  0  0  0  0  0  0  0  0
    7.1453    2.6249    0.0000 C   0  0  0  0  0  0  0  0  0  0  0  0
    3.2474   -2.6259    0.0000 C   0  0  0  0  0  0  0  0  0  0  0  0
   -1.9486    1.8747    0.0000 C   0  0  0  0  0  0  0  0  0  0  0  0
   -3.2477    2.6247    0.0000 C   0  0  0  0  0  0  0  0  0  0  0  0
    0.6490    0.3739    0.0000 C   0  0  0  0  0  0  0  0  0  0  0  0
    1.9490    2.6255    0.0000 C   0  0  0  0  0  0  0  0  0  0  0  0
    3.2475    0.3747    0.0000 C   0  0  0  0  0  0  0  0  0  0  0  0
   -0.6496    4.1247    0.0000 C   0  0  0  0  0  0  0  0  0  0  0  0
   -5.8457    2.6247    0.0000 C   0  0  0  0  0  0  0  0  0  0  0  0
    5.8461    1.8751    0.0000 C   0  0  0  0  0  0  0  0  0  0  0  0
    0.6495    1.8747    0.0000 C   0  0  0  0  0  0  0  0  0  0  0  0
    1.9480   -0.3761    0.0000 C   0  0  0  0  0  0  0  0  0  0  0  0
    3.2480    1.8755    0.0000 C   0  0  0  0  0  0  0  0  0  0  0  0
   -0.6496    2.6247    0.0000 N   0  0  0  0  0  0  0  0  0  0  0  0
    0.6495    4.8747    0.0000 O   0  0  0  0  0  0  0  0  0  0  0  0
   -5.8457    4.1247    0.0000 O   0  0  0  0  0  0  0  0  0  0  0  0
    5.8459    0.3751    0.0000 O   0  0  0  0  0  0  0  0  0  0  0  0
    1.9483   -1.8761    0.0000 O   0  0  0  0  0  0  0  0  0  0  0  0
   -4.5467    1.8747    0.0000 O   0  0  0  0  0  0  0  0  0  0  0  0
    4.5472    2.6253    0.0000 O   0  0  0  0  0  0  0  0  0  0  0  0
  8  7  1  0
 10  1  1  0
 11  2  1  0
 12  3  1  0
 13  4  1  0
 14  5  1  0
 15  9  2  0
 15 10  1  0
 16  9  1  0
 16 11  2  0
 17 10  2  0
 17 11  1  0
 18  7  1  0
 18 12  1  0
 18 15  1  0
 19 12  2  0
 20 13  2  0
 21 14  2  0
 22  6  1  0
 22 16  1  0
 23  8  1  0
 23 13  1  0
 24 14  1  0
 24 17  1  0
M  END
>  <NAME>  (3864) 
1-ACETOXY-3-(N-ACETYL-2-ACETOXYETHYLAMINO)-5-METHOXY-2,6-DIMETHYLBENZENE

>  <SYNONYMS>  (3864) 


>  <SPECTRUM TYPE>  (3864) 
MS1

>  <INSTRUMENT TYPE>  (3864) 
EI-B

>  <INSTRUMENT>  (3864) 
JEOL JMS-D-300

>  <ION MODE>  (3864) 
P

>  <INCHIKEY>  (3864) 
KZQSYDCXRAAFPA-UHFFFAOYSA-N

>  <FORMULA>  (3864) 
C17H23NO6

>  <EXACT MASS>  (3864) 
337.152537456

>  <MW>  (3864) 
337

>  <ID>  (3864) 
JP006679

>  <CONTRIBUTOR>  (3864) 
University of Tokyo Team, {Faculty of Engineering, University of Tokyo

>  <COMMENT>  (3864) 
SMILES=CC(=O)OCCN(C(C)=O)c(c1)c(C)c(OC(C)=O)c(C)c(OC)1
InChI=InChI=1S/C17H23NO6/c1-10-15(18(12(3)19)7-8-23-13(4)20)9-16(22-6)11(2)17(10)24-14(5)21/h9H,7-8H2,1-6H3
computed SMILES=O=C(OC=1C(=C(OC)C=C(C1C)N(C(=O)C)CCOC(=O)C)C)C
accession=JP006679
date=2016.01.19 (Created 2008.10.21, modified 2011.05.06)
author=MASS SPECTROSCOPY SOC. OF JAPAN (MSSJ)
license=CC BY-NC-SA
exact mass=337.15254
ionization energy=70 eV
ion type=[M]+*
computed spectral entropy=2.968055291456874
computed normalized entropy=0.7891245347655655
SPLASH=splash10-000l-9321000000-550a59e098487687503f
submitter=submitter = University of Tokyo Team (Faculty of Engineering, University of Tokyo)
MoNA Rating=3.75

>  <NUM PEAKS>  (3864) 
43

>  <MASS SPECTRAL PEAKS>  (3864) 
41 6
43 89.5
45 4.5
47 1.95
48 7.5
49 7
57 7
68 0.7
74 3
77 4.5
79 3
83 7.55
85 49.5
87 99.99
88 6
91 0.45
123 3
128 31.5
150 3
166 0.45
167 9
178 18
179 6
180 5.35
181 6
192 10.5
193 18
194 0.45
209 9
210 4.5
220 3
222 1.65
235 24
236 6
251 3.5
252 1.05
253 12
277 9
294 4.5
295 2.15
296 3
337 39
338 7

$$$$

     RDKit          2D

 22 22  0  0  1  0  0  0  0  0999 V2000
    6.2444   -3.8339    0.0000 C   0  0  0  0  0  0  0  0  0  0  0  0
    4.3162   -1.5355    0.0000 C   0  0  0  0  0  0  0  0  0  0  0  0
   -1.4143    1.4344    0.0000 C   0  0  0  0  0  0  0  0  0  0  0  0
    3.7822   -0.0663    0.0000 C   0  0  0  0  0  0  0  0  0  0  0  0
    0.3977   -3.7259    0.0000 C   0  0  0  0  0  0  0  0  0  0  0  0
   -5.3116   -0.8165    0.0000 C   0  0  0  0  0  0  0  0  0  0  0  0
    4.7671   -4.0942    0.0000 C   0  0  0  0  0  0  0  0  0  0  0  0
   -2.7140   -2.3173    0.0000 C   0  0  0  0  0  0  0  0  0  0  0  0
    3.8031   -2.9450    0.0000 C   0  0  0  0  0  0  0  0  0  0  0  0
   -1.4140   -0.0656    0.0000 C   0  0  0  0  0  0  0  0  0  0  0  0
    2.4831   -0.8160    0.0000 C   0  0  0  0  0  0  0  0  0  0  0  0
   -2.7136   -0.8165    0.0000 C   0  0  0  0  0  0  0  0  0  0  0  0
   -1.4150   -3.0673    0.0000 C   0  0  0  0  0  0  0  0  0  0  0  0
   -0.1150   -0.8156    0.0000 C   0  0  0  0  0  0  0  0  0  0  0  0
    2.3258   -3.2053    0.0000 C   0  0  0  0  0  0  0  0  0  0  0  0
   -0.1155   -2.3165    0.0000 C   0  0  0  0  0  0  0  0  0  0  0  0
    2.4828   -2.3160    0.0000 O   0  0  0  0  0  0  0  0  0  0  0  0
   -1.4148   -4.5673    0.0000 O   0  0  0  0  0  0  0  0  0  0  0  0
    1.8126   -4.6148    0.0000 O   0  0  0  0  0  0  0  0  0  0  0  0
   -4.0126   -0.0665    0.0000 O   0  0  0  0  0  0  0  0  0  0  0  0
    1.1842   -0.0658    0.0000 O   0  0  0  0  0  0  0  0  0  0  0  0
    1.3618   -2.0561    0.0000 O   0  0  0  0  0  0  0  0  0  0  0  0
  7  1  1  0
  9  2  1  6
  9  7  1  0
 10  3  1  0
 11  4  1  0
 12  8  2  0
 12 10  1  0
 13  8  1  0
 14 10  2  0
 15  9  1  0
 16  5  1  1
 16 13  1  0
 16 14  1  0
 17 11  2  0
 18 13  2  0
 19 15  2  0
 20  6  1  0
 20 12  1  0
 21 11  1  0
 21 14  1  0
 22 15  1  0
 16 22  1  0
M  END
>  <NAME>  (3865) 
5-ACETOXY-3-METHOXY-4,6-DIMETHYL-(6S)-((2R)-2-METHYLBUTYRYLOXY)-2,4-CYCLOHEXADIEN-1-ONE

>  <SYNONYMS>  (3865) 


>  <SPECTRUM TYPE>  (3865) 
MS1

>  <INSTRUMENT TYPE>  (3865) 
EI-B

>  <INSTRUMENT>  (3865) 
JEOL JMS-D-300

>  <ION MODE>  (3865) 
P

>  <INCHIKEY>  (3865) 
ZBFFFQJFHOMIMF-JDNHERCYSA-N

>  <FORMULA>  (3865) 
C16H22O6

>  <EXACT MASS>  (3865) 
310.14163842399995

>  <MW>  (3865) 
310

>  <ID>  (3865) 
JP006678

>  <CONTRIBUTOR>  (3865) 
University of Tokyo Team, {Faculty of Engineering, University of Tokyo

>  <COMMENT>  (3865) 
SMILES=CCC([H])(C)C(=O)OC(C)(C(=O)1)C(OC(C)=O)=C(C)C(OC)=C1
InChI=InChI=1S/C16H22O6/c1-7-9(2)15(19)22-16(5)13(18)8-12(20-6)10(3)14(16)21-11(4)17/h8-9H,7H2,1-6H3/t9-,16-/m1/s1
computed SMILES=O=C(OC1=C(C(OC)=CC(=O)C1(OC(=O)C(C)CC)C)C)C
accession=JP006678
date=2016.01.19 (Created 2008.10.21, modified 2011.05.06)
author=MASS SPECTROSCOPY SOC. OF JAPAN (MSSJ)
license=CC BY-NC-SA
exact mass=310.14164
ionization energy=70 eV
ion type=[M]+*
computed spectral entropy=3.3248485755588244
computed normalized entropy=0.8087936252520959
SPLASH=splash10-0apl-8910000000-d709955a646d75963c98
submitter=submitter = University of Tokyo Team (Faculty of Engineering, University of Tokyo)
MoNA Rating=3.75

>  <NUM PEAKS>  (3865) 
61

>  <MASS SPECTRAL PEAKS>  (3865) 
40 7.5
41 25
42 4.5
43 5.65
44 10.5
45 5
47 3.5
51 0.3
52 3
53 5
55 8
56 0.5
57 99.99
58 5
60 3.5
67 0.35
69 6
73 3
74 15.5
77 0.3
79 3
81 3
83 12.5
85 3.6
87 4
95 4
107 3
109 0.3
117 4.5
119 4.5
123 4.5
124 0.45
125 3
136 3
137 5.5
138 0.75
139 12.5
140 4
141 33
142 0.6
149 4
151 8.5
153 6.5
154 0.3
155 4
156 4
157 4
166 7.9
167 21.5
168 36
169 4
170 0.3
183 25
184 56.5
185 6
210 0.8
226 5
268 26.5
269 4
310 0.75
311 2

$$$$

     RDKit          2D

 22 22  0  0  1  0  0  0  0  0999 V2000
    5.3435   -2.2735    0.0000 C   0  0  0  0  0  0  0  0  0  0  0  0
    3.4154    0.0248    0.0000 C   0  0  0  0  0  0  0  0  0  0  0  0
   -2.3151    2.9947    0.0000 C   0  0  0  0  0  0  0  0  0  0  0  0
   -3.6143   -5.2571    0.0000 C   0  0  0  0  0  0  0  0  0  0  0  0
   -0.5032   -2.1656    0.0000 C   0  0  0  0  0  0  0  0  0  0  0  0
   -6.2125    0.7439    0.0000 C   0  0  0  0  0  0  0  0  0  0  0  0
    3.8662   -2.5338    0.0000 C   0  0  0  0  0  0  0  0  0  0  0  0
   -3.6149   -0.7569    0.0000 C   0  0  0  0  0  0  0  0  0  0  0  0
    2.9022   -1.3846    0.0000 C   0  0  0  0  0  0  0  0  0  0  0  0
   -2.3149    1.4947    0.0000 C   0  0  0  0  0  0  0  0  0  0  0  0
   -3.6145   -3.7571    0.0000 C   0  0  0  0  0  0  0  0  0  0  0  0
   -3.6144    0.7439    0.0000 C   0  0  0  0  0  0  0  0  0  0  0  0
   -2.3159   -1.5069    0.0000 C   0  0  0  0  0  0  0  0  0  0  0  0
   -1.0159    0.7447    0.0000 C   0  0  0  0  0  0  0  0  0  0  0  0
    1.4249   -1.6450    0.0000 C   0  0  0  0  0  0  0  0  0  0  0  0
   -1.0164   -0.7561    0.0000 C   0  0  0  0  0  0  0  0  0  0  0  0
   -4.9137   -3.0074    0.0000 O   0  0  0  0  0  0  0  0  0  0  0  0
    0.2833    1.4945    0.0000 O   0  0  0  0  0  0  0  0  0  0  0  0
    0.9118   -3.0544    0.0000 O   0  0  0  0  0  0  0  0  0  0  0  0
   -4.9135    1.4939    0.0000 O   0  0  0  0  0  0  0  0  0  0  0  0
   -2.3156   -3.0069    0.0000 O   0  0  0  0  0  0  0  0  0  0  0  0
    0.4609   -0.4958    0.0000 O   0  0  0  0  0  0  0  0  0  0  0  0
  7  1  1  0
  9  2  1  6
  9  7  1  0
 10  3  1  0
 11  4  1  0
 12  8  1  0
 12 10  2  0
 13  8  2  0
 14 10  1  0
 15  9  1  0
 16  5  1  1
 16 13  1  0
 16 14  1  0
 17 11  2  0
 18 14  2  0
 19 15  2  0
 20  6  1  0
 20 12  1  0
 21 11  1  0
 21 13  1  0
 22 15  1  0
 16 22  1  0
M  END
>  <NAME>  (3866) 
5-ACETOXY-3-METHOXY-2,6-DIMETHYL-(6R)-((2R)-2-METHYLBUTYRYLOXY)-2,3-CYCLOHEXADIEN-1-ONE

>  <SYNONYMS>  (3866) 


>  <SPECTRUM TYPE>  (3866) 
MS1

>  <INSTRUMENT TYPE>  (3866) 
EI-B

>  <INSTRUMENT>  (3866) 
JEOL JMS-D-300

>  <ION MODE>  (3866) 
P

>  <INCHIKEY>  (3866) 
KHLPUDAOXGHKTN-JDNHERCYSA-N

>  <FORMULA>  (3866) 
C16H22O6

>  <EXACT MASS>  (3866) 
310.14163842399995

>  <MW>  (3866) 
310

>  <ID>  (3866) 
JP006677

>  <CONTRIBUTOR>  (3866) 
University of Tokyo Team, {Faculty of Engineering, University of Tokyo

>  <COMMENT>  (3866) 
SMILES=CCC([H])(C)C(=O)OC(C)(C(=O)1)C(OC(C)=O)=CC(OC)=C(C)1
InChI=InChI=1S/C16H22O6/c1-7-9(2)15(19)22-16(5)13(21-11(4)17)8-12(20-6)10(3)14(16)18/h8-9H,7H2,1-6H3/t9-,16-/m1/s1
computed SMILES=O=C(OC1=CC(OC)=C(C(=O)C1(OC(=O)C(C)CC)C)C)C
accession=JP006677
date=2016.01.19 (Created 2008.10.21, modified 2011.05.06)
author=MASS SPECTROSCOPY SOC. OF JAPAN (MSSJ)
license=CC BY-NC-SA
exact mass=310.14164
ionization energy=70 eV
ion type=[M]+*
computed spectral entropy=2.695871369233962
computed normalized entropy=0.7308103728430201
SPLASH=splash10-0a4l-9300000000-55143526a198aa6ef951
submitter=submitter = University of Tokyo Team (Faculty of Engineering, University of Tokyo)
MoNA Rating=3.75

>  <NUM PEAKS>  (3866) 
40

>  <MASS SPECTRAL PEAKS>  (3866) 
41 21
42 4.5
43 54.5
44 0.45
45 11.5
53 2.5
55 6
56 0.45
57 99.99
58 4.5
59 3
60 0.85
69 4.5
74 22
83 4.5
87 0.55
101 3
127 3
128 3
139 0.7
140 3
141 11
142 11
154 0.3
157 12.5
166 12
167 4
168 0.7
169 3
170 3
182 2
183 0.6
184 18
185 2
205 2
210 0.15
212 1.5
241 1.5
258 4.5
310 1

$$$$

     RDKit          2D

 30 31  0  0  1  0  0  0  0  0999 V2000
   -9.3673    3.7500    0.0000 C   0  0  0  0  0  0  0  0  0  0  0  0
  -10.3936    0.9310    0.0000 C   0  0  0  0  0  0  0  0  0  0  0  0
  -10.1004   -5.5167    0.0000 C   0  0  0  0  0  0  0  0  0  0  0  0
   -6.5374   -1.3673    0.0000 C   0  0  0  0  0  0  0  0  0  0  0  0
   -6.2024   -7.7665    0.0000 C   0  0  0  0  0  0  0  0  0  0  0  0
   -8.4032    2.6008    0.0000 C   0  0  0  0  0  0  0  0  0  0  0  0
   -1.0052   -3.2654    0.0000 C   0  0  0  0  0  0  0  0  0  0  0  0
   -2.3045   -1.0150    0.0000 C   0  0  0  0  0  0  0  0  0  0  0  0
    0.2941   -2.5142    0.0000 C   0  0  0  0  0  0  0  0  0  0  0  0
   -1.0052   -0.2638    0.0000 C   0  0  0  0  0  0  0  0  0  0  0  0
   -6.2015   -4.7665    0.0000 C   0  0  0  0  0  0  0  0  0  0  0  0
   -8.9164    1.1913    0.0000 C   0  0  0  0  0  0  0  0  0  0  0  0
   -8.8015   -4.7665    0.0000 C   0  0  0  0  0  0  0  0  0  0  0  0
   -2.3045   -2.5159    0.0000 C   0  0  0  0  0  0  0  0  0  0  0  0
    0.2941   -1.0134    0.0000 C   0  0  0  0  0  0  0  0  0  0  0  0
   -7.5015   -5.5165    0.0000 C   0  0  0  0  0  0  0  0  0  0  0  0
   -6.2015   -3.2665    0.0000 C   0  0  0  0  0  0  0  0  0  0  0  0
   -8.8015   -3.2665    0.0000 C   0  0  0  0  0  0  0  0  0  0  0  0
   -7.9523    0.0422    0.0000 C   0  0  0  0  0  0  0  0  0  0  0  0
   -3.6034   -3.2661    0.0000 C   0  0  0  0  0  0  0  0  0  0  0  0
   -7.5015   -2.5165    0.0000 C   0  0  0  0  0  0  0  0  0  0  0  0
    1.5930   -0.2631    0.0000 N   0  0  0  0  0  0  0  0  0  0  0  0
  -10.1004   -2.5163    0.0000 O   0  0  0  0  0  0  0  0  0  0  0  0
   -6.4751    0.3025    0.0000 O   0  0  0  0  0  0  0  0  0  0  0  0
   -3.6031   -4.7661    0.0000 O   0  0  0  0  0  0  0  0  0  0  0  0
    2.8922   -1.0129    0.0000 O   0  0  0  0  0  0  0  0  0  0  0  0
    1.5928    1.2369    0.0000 O   0  0  0  0  0  0  0  0  0  0  0  0
   -7.5015   -7.0165    0.0000 O   0  0  0  0  0  0  0  0  0  0  0  0
   -4.9025   -2.5163    0.0000 O   0  0  0  0  0  0  0  0  0  0  0  0
   -8.4655   -1.3673    0.0000 O   0  0  0  0  0  0  0  0  0  0  0  0
  6  1  1  0
  9  7  2  0
 10  8  1  0
 12  2  1  6
 12  6  1  0
 13  3  1  0
 14  7  1  0
 14  8  2  0
 15  9  1  0
 15 10  2  0
 16 11  1  0
 16 13  2  0
 17 11  2  0
 18 13  1  0
 19 12  1  0
 20 14  1  0
 21  4  1  1
 21 17  1  0
 21 18  1  0
 22 15  1  0
 23 18  2  0
 24 19  2  0
 25 20  2  0
 26 22  1  0
 27 22  2  0
 28  5  1  0
 28 16  1  0
 29 17  1  0
 29 20  1  0
 30 19  1  0
 21 30  1  0
M  CHG  2  22   1  26  -1
M  END
>  <NAME>  (3867) 
3-METHOXY-2,6-DIMETHYL-(6R)-((2R)-2-METHYLBUTYRYLOXY)-5-(4-NITROBENZOYLOXY)-2,4-CYCLOHEXADIEN-1-ONE

>  <SYNONYMS>  (3867) 


>  <SPECTRUM TYPE>  (3867) 
MS1

>  <INSTRUMENT TYPE>  (3867) 
EI-B

>  <INSTRUMENT>  (3867) 
JEOL JMS-D-300

>  <ION MODE>  (3867) 
P

>  <INCHIKEY>  (3867) 
HLJRNTPUJKILLB-XUSGNXJCSA-N

>  <FORMULA>  (3867) 
C21H23NO8

>  <EXACT MASS>  (3867) 
417.14236669600007

>  <MW>  (3867) 
417

>  <ID>  (3867) 
JP006676

>  <CONTRIBUTOR>  (3867) 
University of Tokyo Team, {Faculty of Engineering, University of Tokyo

>  <COMMENT>  (3867) 
SMILES=CCC([H])(C)C(=O)OC(C)(C(=O)1)C(OC(=O)c(c2)ccc([N+1]([O-1])=O)c2)=CC(OC)=C(C)1
InChI=InChI=1S/C21H23NO8/c1-6-12(2)19(24)30-21(4)17(11-16(28-5)13(3)18(21)23)29-20(25)14-7-9-15(10-8-14)22(26)27/h7-12H,6H2,1-5H3/t12-,21-/m1/s1
computed SMILES=O=C(OC1=CC(OC)=C(C(=O)C1(OC(=O)C(C)CC)C)C)C2=CC=C(C=C2)N(=O)=O
accession=JP006676
date=2016.01.19 (Created 2008.10.21, modified 2011.05.06)
author=MASS SPECTROSCOPY SOC. OF JAPAN (MSSJ)
license=CC BY-NC-SA
exact mass=417.14237
ionization energy=70 eV
ion type=[M]+*
computed spectral entropy=2.735032874515059
computed normalized entropy=0.7574342426721722
SPLASH=splash10-052f-9300000000-7995ffc18551f6e3e14e
submitter=submitter = University of Tokyo Team (Faculty of Engineering, University of Tokyo)
MoNA Rating=3.75

>  <NUM PEAKS>  (3867) 
37

>  <MASS SPECTRAL PEAKS>  (3867) 
40 65
41 27.5
42 4
43 2.95
44 58.5
45 4
55 7.5
56 0.7
57 99.99
58 4
69 8
74 2.2
78 7
83 4
85 35.5
87 0.6
104 8.5
120 4.5
127 8.5
128 0.4
139 8
140 6.5
141 6
142 0.65
150 29
151 5
154 3.5
157 1.75
166 12.5
167 4.5
168 3.5
183 0.7
184 7.5
251 2
317 3.5
333 0.45
417 1

$$$$

     RDKit          2D

 25 25  0  0  1  0  0  0  0  0999 V2000
    1.8658   -7.7665    0.0000 C   0  0  0  0  0  0  0  0  0  0  0  0
    2.8922   -4.9475    0.0000 C   0  0  0  0  0  0  0  0  0  0  0  0
    2.5989    1.5002    0.0000 C   0  0  0  0  0  0  0  0  0  0  0  0
   -9.0942   -0.7512    0.0000 C   0  0  0  0  0  0  0  0  0  0  0  0
   -0.9641   -2.6492    0.0000 C   0  0  0  0  0  0  0  0  0  0  0  0
    1.2990    3.7500    0.0000 C   0  0  0  0  0  0  0  0  0  0  0  0
    0.9018   -6.6173    0.0000 C   0  0  0  0  0  0  0  0  0  0  0  0
   -3.8981   -0.7504    0.0000 C   0  0  0  0  0  0  0  0  0  0  0  0
   -5.1970   -1.5006    0.0000 C   0  0  0  0  0  0  0  0  0  0  0  0
   -1.3000    0.7500    0.0000 C   0  0  0  0  0  0  0  0  0  0  0  0
    1.4149   -5.2078    0.0000 C   0  0  0  0  0  0  0  0  0  0  0  0
    1.3000    0.7500    0.0000 C   0  0  0  0  0  0  0  0  0  0  0  0
   -7.7951   -1.5010    0.0000 C   0  0  0  0  0  0  0  0  0  0  0  0
    0.0000    1.5000    0.0000 C   0  0  0  0  0  0  0  0  0  0  0  0
   -1.3000   -0.7500    0.0000 C   0  0  0  0  0  0  0  0  0  0  0  0
    1.3000   -0.7500    0.0000 C   0  0  0  0  0  0  0  0  0  0  0  0
    0.4509   -4.0587    0.0000 C   0  0  0  0  0  0  0  0  0  0  0  0
    0.0000   -1.5000    0.0000 C   0  0  0  0  0  0  0  0  0  0  0  0
   -2.5989   -1.5002    0.0000 N   0  0  0  0  0  0  0  0  0  0  0  0
   -7.7948   -3.0010    0.0000 O   0  0  0  0  0  0  0  0  0  0  0  0
    2.5989   -1.5002    0.0000 O   0  0  0  0  0  0  0  0  0  0  0  0
   -1.0264   -4.3190    0.0000 O   0  0  0  0  0  0  0  0  0  0  0  0
    0.0000    3.0000    0.0000 O   0  0  0  0  0  0  0  0  0  0  0  0
   -6.4962   -0.7508    0.0000 O   0  0  0  0  0  0  0  0  0  0  0  0
    0.9641   -2.6492    0.0000 O   0  0  0  0  0  0  0  0  0  0  0  0
  7  1  1  0
  9  8  1  0
 11  2  1  6
 11  7  1  0
 12  3  1  0
 13  4  1  0
 14 10  1  0
 14 12  2  0
 15 10  2  0
 16 12  1  0
 17 11  1  0
 18  5  1  1
 18 15  1  0
 18 16  1  0
 19  8  1  0
 19 15  1  0
 20 13  2  0
 21 16  2  0
 22 17  2  0
 23  6  1  0
 23 14  1  0
 24  9  1  0
 24 13  1  0
 25 17  1  0
 18 25  1  0
M  END
>  <NAME>  (3868) 
5-(2-ACETOXYETHYLAMINO)-3-METHOXY-2,6-DIMETHYL-(6R*)-((2R*)-2-METHYLBUTYRYLOXY)-2,4-CYCLOHEXADIEN-1-ONE

>  <SYNONYMS>  (3868) 
WASABIDIENONE-E ACETATE

>  <SPECTRUM TYPE>  (3868) 
MS1

>  <INSTRUMENT TYPE>  (3868) 
EI-B

>  <INSTRUMENT>  (3868) 
JEOL JMS-D-300

>  <ION MODE>  (3868) 
P

>  <INCHIKEY>  (3868) 
RYGUAVIWYDWURX-ADLMAVQZSA-N

>  <FORMULA>  (3868) 
C18H27NO6

>  <EXACT MASS>  (3868) 
353.183837584

>  <MW>  (3868) 
353

>  <ID>  (3868) 
JP006675

>  <CONTRIBUTOR>  (3868) 
University of Tokyo Team, {Faculty of Engineering, University of Tokyo

>  <COMMENT>  (3868) 
SMILES=CC(=O)OCCNC(=C1)C(C)(OC(=O)C([H])(C)CC)C(=O)C(C)=C(OC)1
InChI=InChI=1S/C18H27NO6/c1-7-11(2)17(22)25-18(5)15(19-8-9-24-13(4)20)10-14(23-6)12(3)16(18)21/h10-11,19H,7-9H2,1-6H3/t11-,18-/m1/s1
computed SMILES=O=C(OCCNC1=CC(OC)=C(C(=O)C1(OC(=O)C(C)CC)C)C)C
accession=JP006675
date=2016.01.19 (Created 2008.10.21, modified 2011.05.06)
author=MASS SPECTROSCOPY SOC. OF JAPAN (MSSJ)
license=CC BY-NC-SA
exact mass=353.18384
ionization energy=70 eV
ion type=[M]+*
computed spectral entropy=3.6163943305588275
computed normalized entropy=0.795984963307166
SPLASH=splash10-0a4i-7592000000-d317bc295fe21e2da3df
submitter=submitter = University of Tokyo Team (Faculty of Engineering, University of Tokyo)
MoNA Rating=3.75

>  <NUM PEAKS>  (3868) 
94

>  <MASS SPECTRAL PEAKS>  (3868) 
41 13
42 2
43 51.5
44 1.45
45 2
53 4
54 2
55 0.6
56 3
57 47
58 3
59 0.6
65 2
67 4
68 4
69 0.45
70 2
72 3
74 4.5
77 0.3
79 3
80 3
82 2
83 0.6
85 8
87 63
88 4
91 0.2
92 2
94 3
95 2
96 0.2
106 2
107 2
108 2
109 0.2
111 6
112 4.5
122 4.5
123 0.45
124 4
136 4.5
137 3
138 0.75
139 3
140 6
141 3
147 0.3
148 3
149 3
150 7.5
151 0.5
152 5
154 2
156 3
164 1.2
165 4.5
166 19
167 7
168 0.9
178 6
179 2
180 12
181 0.45
182 34
183 6
184 4.5
192 0.45
193 2
194 6.5
208 99.99
209 1.9
210 10
212 17.5
223 13
224 2.2
225 6
226 45.5
227 6
228 1.5
251 3
252 4.5
253 6
254 2.05
255 3
268 44
269 8
270 1.1
296 4.5
310 4.5
311 6
313 0.75
353 48.5
354 14.5

$$$$

     RDKit          2D

 22 22  0  0  1  0  0  0  0  0999 V2000
    1.8658   -7.7665    0.0000 C   0  0  0  0  0  0  0  0  0  0  0  0
    2.8922   -4.9475    0.0000 C   0  0  0  0  0  0  0  0  0  0  0  0
    2.5989    1.5002    0.0000 C   0  0  0  0  0  0  0  0  0  0  0  0
   -0.9641   -2.6492    0.0000 C   0  0  0  0  0  0  0  0  0  0  0  0
    1.2990    3.7500    0.0000 C   0  0  0  0  0  0  0  0  0  0  0  0
    0.9018   -6.6173    0.0000 C   0  0  0  0  0  0  0  0  0  0  0  0
   -3.8981   -0.7504    0.0000 C   0  0  0  0  0  0  0  0  0  0  0  0
   -5.1970   -1.5006    0.0000 C   0  0  0  0  0  0  0  0  0  0  0  0
   -1.3000    0.7500    0.0000 C   0  0  0  0  0  0  0  0  0  0  0  0
    1.4149   -5.2078    0.0000 C   0  0  0  0  0  0  0  0  0  0  0  0
    1.3000    0.7500    0.0000 C   0  0  0  0  0  0  0  0  0  0  0  0
    0.0000    1.5000    0.0000 C   0  0  0  0  0  0  0  0  0  0  0  0
   -1.3000   -0.7500    0.0000 C   0  0  0  0  0  0  0  0  0  0  0  0
    1.3000   -0.7500    0.0000 C   0  0  0  0  0  0  0  0  0  0  0  0
    0.4509   -4.0587    0.0000 C   0  0  0  0  0  0  0  0  0  0  0  0
    0.0000   -1.5000    0.0000 C   0  0  0  0  0  0  0  0  0  0  0  0
   -2.5989   -1.5002    0.0000 N   0  0  0  0  0  0  0  0  0  0  0  0
   -6.4962   -0.7508    0.0000 O   0  0  0  0  0  0  0  0  0  0  0  0
    2.5989   -1.5002    0.0000 O   0  0  0  0  0  0  0  0  0  0  0  0
   -1.0264   -4.3190    0.0000 O   0  0  0  0  0  0  0  0  0  0  0  0
    0.0000    3.0000    0.0000 O   0  0  0  0  0  0  0  0  0  0  0  0
    0.9641   -2.6492    0.0000 O   0  0  0  0  0  0  0  0  0  0  0  0
  6  1  1  0
  8  7  1  0
 10  2  1  6
 10  6  1  0
 11  3  1  0
 12  9  1  0
 12 11  2  0
 13  9  2  0
 14 11  1  0
 15 10  1  0
 16  4  1  1
 16 13  1  0
 16 14  1  0
 17  7  1  0
 17 13  1  0
 18  8  1  0
 19 14  2  0
 20 15  2  0
 21  5  1  0
 21 12  1  0
 22 15  1  0
 16 22  1  0
M  END
>  <NAME>  (3869) 
5-(2-HYDROXYETHYLAMINO)-3-METHOXY-2,6-DIMETHYL-(6R*)-((2R*)-2-METHYLBUTYRYLOXY)-2,4-CYCLOHEXADIEN-1-ONE

>  <SYNONYMS>  (3869) 
WASABIDIENONE-E

>  <SPECTRUM TYPE>  (3869) 
MS1

>  <INSTRUMENT TYPE>  (3869) 
EI-B

>  <INSTRUMENT>  (3869) 
JEOL JMS-D-300

>  <ION MODE>  (3869) 
P

>  <INCHIKEY>  (3869) 
UTRDVXSMNWAJLY-QLJPJBMISA-N

>  <FORMULA>  (3869) 
C16H25NO5

>  <EXACT MASS>  (3869) 
311.17327290000003

>  <MW>  (3869) 
311

>  <ID>  (3869) 
JP006674

>  <CONTRIBUTOR>  (3869) 
University of Tokyo Team, {Faculty of Engineering, University of Tokyo

>  <COMMENT>  (3869) 
SMILES=OCCNC(=C1)C(C)(OC(=O)C([H])(C)CC)C(=O)C(C)=C(OC)1
InChI=InChI=1S/C16H25NO5/c1-6-10(2)15(20)22-16(4)13(17-7-8-18)9-12(21-5)11(3)14(16)19/h9-10,17-18H,6-8H2,1-5H3/t10-,16-/m1/s1
computed SMILES=O=C(OC1(C(=O)C(=C(OC)C=C1NCCO)C)C)C(C)CC
accession=JP006674
date=2016.01.19 (Created 2008.10.21, modified 2011.05.06)
author=MASS SPECTROSCOPY SOC. OF JAPAN (MSSJ)
license=CC BY-NC-SA
exact mass=311.17327
ionization energy=70 eV
ion type=[M]+*
computed spectral entropy=3.3186573923812195
computed normalized entropy=0.7811371328688105
SPLASH=splash10-003r-3931000000-349377e780b9cdc8eec8
submitter=submitter = University of Tokyo Team (Faculty of Engineering, University of Tokyo)
MoNA Rating=3.75

>  <NUM PEAKS>  (3869) 
70

>  <MASS SPECTRAL PEAKS>  (3869) 
41 22
42 4.5
43 22
44 0.75
45 8
52 3
53 7.5
54 0.3
55 7.5
57 44
65 4.5
67 0.45
68 3.5
69 3
74 3
77 0.6
78 3
79 4.5
80 3.5
83 0.75
85 4.5
91 3
92 3
94 0.45
95 3
106 4.5
107 2
108 0.3
109 3
110 2
122 4.5
123 0.75
124 7.5
134 3
136 6
137 0.45
138 6
139 3
140 6
148 0.3
150 11.5
151 6
152 6
164 2.5
165 6
166 73.5
167 11.5
168 0.45
178 7.5
179 3
180 17
181 0.35
182 93
183 16
184 73.5
185 0.75
192 2
194 4.5
196 2
208 6.75
209 12.5
210 7.5
211 7.5
212 0.5
226 99.99
227 16
268 6
311 6.6
312 37
313 6

$$$$

     RDKit          2D

 13 13  0  0  0  0  0  0  0  0999 V2000
    2.5989    1.5002    0.0000 C   0  0  0  0  0  0  0  0  0  0  0  0
   -0.0000   -3.0000    0.0000 C   0  0  0  0  0  0  0  0  0  0  0  0
   -3.8981   -0.7504    0.0000 C   0  0  0  0  0  0  0  0  0  0  0  0
    3.8981   -0.7504    0.0000 C   0  0  0  0  0  0  0  0  0  0  0  0
   -1.3000    0.7500    0.0000 C   0  0  0  0  0  0  0  0  0  0  0  0
    1.3000    0.7500    0.0000 C   0  0  0  0  0  0  0  0  0  0  0  0
    0.0000   -1.5000    0.0000 C   0  0  0  0  0  0  0  0  0  0  0  0
    0.0000    1.5000    0.0000 C   0  0  0  0  0  0  0  0  0  0  0  0
   -1.3000   -0.7500    0.0000 C   0  0  0  0  0  0  0  0  0  0  0  0
    1.3000   -0.7500    0.0000 C   0  0  0  0  0  0  0  0  0  0  0  0
    0.0000    3.0000    0.0000 O   0  0  0  0  0  0  0  0  0  0  0  0
   -2.5989   -1.5002    0.0000 O   0  0  0  0  0  0  0  0  0  0  0  0
    2.5989   -1.5002    0.0000 O   0  0  0  0  0  0  0  0  0  0  0  0
  6  1  1  0
  7  2  1  0
  8  5  2  0
  8  6  1  0
  9  5  1  0
  9  7  2  0
 10  6  2  0
 10  7  1  0
 11  8  1  0
 12  3  1  0
 12  9  1  0
 13  4  1  0
 13 10  1  0
M  END
>  <NAME>  (3870) 
3,5-DIMETHOXY-2,4-DIMETHYLPHENOL

>  <SYNONYMS>  (3870) 


>  <SPECTRUM TYPE>  (3870) 
MS1

>  <INSTRUMENT TYPE>  (3870) 
EI-B

>  <INSTRUMENT>  (3870) 
JEOL JMS-D-300

>  <ION MODE>  (3870) 
P

>  <INCHIKEY>  (3870) 
KMLNRCNJULZPTB-UHFFFAOYSA-N

>  <FORMULA>  (3870) 
C10H14O3

>  <EXACT MASS>  (3870) 
182.094294308

>  <MW>  (3870) 
182

>  <ID>  (3870) 
JP006672

>  <CONTRIBUTOR>  (3870) 
University of Tokyo Team, {Faculty of Engineering, University of Tokyo

>  <COMMENT>  (3870) 
SMILES=COc(c1)c(C)c(OC)c(C)c(O)1
InChI=InChI=1S/C10H14O3/c1-6-8(11)5-9(12-3)7(2)10(6)13-4/h5,11H,1-4H3
computed SMILES=OC=1C=C(OC)C(=C(OC)C1C)C
accession=JP006672
date=2016.01.19 (Created 2008.10.21, modified 2011.05.06)
author=MASS SPECTROSCOPY SOC. OF JAPAN (MSSJ)
license=CC BY-NC-SA
exact mass=182.09429
ionization energy=70 eV
ion type=[M]+*
computed spectral entropy=3.254961865666837
computed normalized entropy=0.8198293567675489
SPLASH=splash10-00lr-4900000000-7b19ccd6cc3c6eef26e4
submitter=submitter = University of Tokyo Team (Faculty of Engineering, University of Tokyo)
MoNA Rating=3.75

>  <NUM PEAKS>  (3870) 
53

>  <MASS SPECTRAL PEAKS>  (3870) 
41 11
43 16
50 3
51 0.9
52 5
53 10.5
55 13
59 0.2
63 4.5
65 8
66 4.5
67 1.05
68 1.5
69 20.5
77 16
78 0.45
79 14.5
80 3.5
81 6
83 1.05
91 9
93 3
94 2
95 0.9
96 4.5
97 2
107 13
108 0.45
109 10.5
110 1.5
111 2
120 0.45
121 17.5
122 3
123 9
124 1.05
125 3
135 8
136 9
137 1.75
138 6
139 22
140 2
149 0.2
150 6
151 35.5
152 6
153 1.05
167 43.5
168 5
181 12
182 99.99
183 13

$$$$

     RDKit          2D

 19 19  0  0  1  0  0  0  0  0999 V2000
    5.9930   -3.3985    0.0000 C   0  0  0  0  0  0  0  0  0  0  0  0
    4.0649   -1.1002    0.0000 C   0  0  0  0  0  0  0  0  0  0  0  0
   -1.6656    1.8697    0.0000 C   0  0  0  0  0  0  0  0  0  0  0  0
    0.1463   -3.2906    0.0000 C   0  0  0  0  0  0  0  0  0  0  0  0
   -5.5630   -0.3811    0.0000 C   0  0  0  0  0  0  0  0  0  0  0  0
    4.5158   -3.6588    0.0000 C   0  0  0  0  0  0  0  0  0  0  0  0
   -2.9654   -1.8819    0.0000 C   0  0  0  0  0  0  0  0  0  0  0  0
    3.5517   -2.5096    0.0000 C   0  0  0  0  0  0  0  0  0  0  0  0
   -1.6654    0.3697    0.0000 C   0  0  0  0  0  0  0  0  0  0  0  0
   -2.9649   -0.3811    0.0000 C   0  0  0  0  0  0  0  0  0  0  0  0
   -1.6664   -2.6319    0.0000 C   0  0  0  0  0  0  0  0  0  0  0  0
   -0.3664   -0.3803    0.0000 C   0  0  0  0  0  0  0  0  0  0  0  0
    2.0745   -2.7700    0.0000 C   0  0  0  0  0  0  0  0  0  0  0  0
   -0.3668   -1.8811    0.0000 C   0  0  0  0  0  0  0  0  0  0  0  0
   -1.6661   -4.1319    0.0000 O   0  0  0  0  0  0  0  0  0  0  0  0
    0.9328    0.3695    0.0000 O   0  0  0  0  0  0  0  0  0  0  0  0
    1.5613   -4.1794    0.0000 O   0  0  0  0  0  0  0  0  0  0  0  0
   -4.2639    0.3689    0.0000 O   0  0  0  0  0  0  0  0  0  0  0  0
    1.1104   -1.6208    0.0000 O   0  0  0  0  0  0  0  0  0  0  0  0
  6  1  1  0
  8  2  1  6
  8  6  1  0
  9  3  1  0
 10  7  1  0
 10  9  2  0
 11  7  2  0
 12  9  1  0
 13  8  1  0
 14  4  1  1
 14 11  1  0
 14 12  1  0
 15 11  1  0
 16 12  2  0
 17 13  2  0
 18  5  1  0
 18 10  1  0
 19 13  1  0
 14 19  1  0
M  END
>  <NAME>  (3871) 
5-HYDROXY-3-METHOXY-2,6-DIMETHYL-(6R)-((2R)-2-METHYLBUTYRYLOXY)-2,4-CYCLOHEXADIEN-1-ONE

>  <SYNONYMS>  (3871) 
WASABIDIENONE-A

>  <SPECTRUM TYPE>  (3871) 
MS1

>  <INSTRUMENT TYPE>  (3871) 
EI-B

>  <INSTRUMENT>  (3871) 
JEOL JMS-D-300

>  <ION MODE>  (3871) 
P

>  <INCHIKEY>  (3871) 
FLRPGUPKHDJDQL-XLKFXECMSA-N

>  <FORMULA>  (3871) 
C14H20O5

>  <EXACT MASS>  (3871) 
268.13107374000003

>  <MW>  (3871) 
268

>  <ID>  (3871) 
JP006671

>  <CONTRIBUTOR>  (3871) 
University of Tokyo Team, {Faculty of Engineering, University of Tokyo

>  <COMMENT>  (3871) 
SMILES=CCC([H])(C)C(=O)OC(C)(C(O)=1)C(=O)C(C)=C(OC)C1
InChI=InChI=1S/C14H20O5/c1-6-8(2)13(17)19-14(4)11(15)7-10(18-5)9(3)12(14)16/h7-8,15H,6H2,1-5H3/t8-,14-/m1/s1
computed SMILES=O=C(OC1(C(=O)C(=C(OC)C=C1O)C)C)C(C)CC
accession=JP006671
date=2016.01.19 (Created 2008.10.21, modified 2011.05.06)
author=MASS SPECTROSCOPY SOC. OF JAPAN (MSSJ)
license=CC BY-NC-SA
exact mass=268.13107
ionization energy=70 eV
ion type=[M]+*
computed spectral entropy=2.6737312587856974
computed normalized entropy=0.6906722878124694
SPLASH=splash10-0a5l-7900000000-b34de947c604bd91a2ab
submitter=submitter = University of Tokyo Team (Faculty of Engineering, University of Tokyo)
MoNA Rating=3.75

>  <NUM PEAKS>  (3871) 
48

>  <MASS SPECTRAL PEAKS>  (3871) 
40 3
41 4
43 12
44 0.3
56 2
57 99.99
58 8
69 0.2
74 4
81 4
85 50
86 0.4
87 2
91 5
95 2
110 0.2
111 1
112 3
113 4
123 0.2
124 5
126 1
127 3
137 0.2
138 5
139 5
140 4
141 3.2
142 57
143 5
151 2
153 0.2
155 3
156 1
157 1
166 1.1
167 5
168 7
169 13
170 0.3
181 7
182 8
183 90
184 1.2
185 1
206 4
268 7
269 1

$$$$

     RDKit          2D

 22 22  0  0  1  0  0  0  0  0999 V2000
    5.0187   -1.7109    0.0000 C   0  0  0  0  0  0  0  0  0  0  0  0
    3.0906    0.5874    0.0000 C   0  0  0  0  0  0  0  0  0  0  0  0
   -2.6399    3.5573    0.0000 C   0  0  0  0  0  0  0  0  0  0  0  0
   -0.8280   -1.6030    0.0000 C   0  0  0  0  0  0  0  0  0  0  0  0
   -6.5373    1.3064    0.0000 C   0  0  0  0  0  0  0  0  0  0  0  0
    3.5415   -1.9713    0.0000 C   0  0  0  0  0  0  0  0  0  0  0  0
   -3.9391   -4.6946    0.0000 C   0  0  0  0  0  0  0  0  0  0  0  0
   -3.9393   -3.1946    0.0000 C   0  0  0  0  0  0  0  0  0  0  0  0
   -3.9397   -0.1944    0.0000 C   0  0  0  0  0  0  0  0  0  0  0  0
    2.5774   -0.8221    0.0000 C   0  0  0  0  0  0  0  0  0  0  0  0
   -2.6397    2.0573    0.0000 C   0  0  0  0  0  0  0  0  0  0  0  0
   -3.9392    1.3064    0.0000 C   0  0  0  0  0  0  0  0  0  0  0  0
   -2.6407   -0.9444    0.0000 C   0  0  0  0  0  0  0  0  0  0  0  0
   -1.3407    1.3073    0.0000 C   0  0  0  0  0  0  0  0  0  0  0  0
    1.1002   -1.0824    0.0000 C   0  0  0  0  0  0  0  0  0  0  0  0
   -1.3411   -0.1936    0.0000 C   0  0  0  0  0  0  0  0  0  0  0  0
   -5.2380   -5.4448    0.0000 Cl  0  0  0  0  0  0  0  0  0  0  0  0
   -0.0415    2.0571    0.0000 O   0  0  0  0  0  0  0  0  0  0  0  0
    0.5870   -2.4919    0.0000 O   0  0  0  0  0  0  0  0  0  0  0  0
   -5.2383    2.0564    0.0000 O   0  0  0  0  0  0  0  0  0  0  0  0
   -2.6404   -2.4444    0.0000 O   0  0  0  0  0  0  0  0  0  0  0  0
    0.1361    0.0668    0.0000 O   0  0  0  0  0  0  0  0  0  0  0  0
  6  1  1  0
  8  7  1  0
 10  2  1  6
 10  6  1  0
 11  3  1  0
 12  9  1  0
 12 11  2  0
 13  9  2  0
 14 11  1  0
 15 10  1  0
 16  4  1  1
 16 13  1  0
 16 14  1  0
 17  7  1  0
 18 14  2  0
 19 15  2  0
 20  5  1  0
 20 12  1  0
 21  8  1  0
 21 13  1  0
 22 15  1  0
 16 22  1  0
M  END
>  <NAME>  (3872) 
5-CHLOROETHOXY-2,6-DIMETHYL-3-METHOXY-(6R)-((2R)-2-METHYLBUTYRYLOXY)-2,4-CYCLOHEXADIEN-1-ONE

>  <SYNONYMS>  (3872) 


>  <SPECTRUM TYPE>  (3872) 
MS1

>  <INSTRUMENT TYPE>  (3872) 
EI-B

>  <INSTRUMENT>  (3872) 
JEOL JMS-D-300

>  <ION MODE>  (3872) 
P

>  <INCHIKEY>  (3872) 
FGUIKRIBAYASBF-QLJPJBMISA-N

>  <FORMULA>  (3872) 
C16H23ClO5

>  <EXACT MASS>  (3872) 
330.123401516

>  <MW>  (3872) 
330

>  <ID>  (3872) 
JP006665

>  <CONTRIBUTOR>  (3872) 
University of Tokyo Team, {Faculty of Engineering, University of Tokyo

>  <COMMENT>  (3872) 
SMILES=ClCCOC(=C1)C(C)(OC(=O)C([H])(C)CC)C(=O)C(C)=C(OC)1
InChI=InChI=1S/C16H23ClO5/c1-6-10(2)15(19)22-16(4)13(21-8-7-17)9-12(20-5)11(3)14(16)18/h9-10H,6-8H2,1-5H3/t10-,16-/m1/s1
computed SMILES=O=C(OC1(C(=O)C(=C(OC)C=C1OCCCl)C)C)C(C)CC
accession=JP006665
date=2016.01.19 (Created 2008.10.21, modified 2011.05.06)
author=MASS SPECTROSCOPY SOC. OF JAPAN (MSSJ)
license=CC BY-NC-SA
exact mass=330.1234
ionization energy=70 eV
ion type=[M]+*
computed spectral entropy=3.1565392185910146
computed normalized entropy=0.7288694478663784
SPLASH=splash10-0pc1-8691000000-ec76e1d97dbe3c31a5f9
submitter=submitter = University of Tokyo Team (Faculty of Engineering, University of Tokyo)
MoNA Rating=3.75

>  <NUM PEAKS>  (3872) 
76

>  <MASS SPECTRAL PEAKS>  (3872) 
41 1.4
43 10.7
44 12.8
51 0.14
52 2
53 3.1
55 3.4
57 99.99
58 4.9
59 1.8
63 10.8
65 0.36
67 2.4
69 2.9
77 2.7
79 0.26
80 1.3
81 2
83 7.3
85 3.36
86 1.8
91 1
95 2.4
96 0.11
107 1.5
109 2.2
111 1.7
123 0.31
124 2.2
125 1.2
137 2.3
138 0.33
139 10.2
140 4.8
141 19.2
142 0.16
151 4.7
152 1.1
153 1.3
155 0.91
156 1
165 1
166 21
167 0.52
168 2.5
169 1.3
183 57.7
184 0.62
185 1.1
193 1.2
198 2.8
201 0.51
202 1.3
203 76
204 10
205 2.57
206 3.2
214 4.3
216 1.7
217 0.47
219 1.6
229 1.1
230 2.7
231 0.22
232 1.1
245 10.1
246 53.5
247 0.99
248 18.1
249 2.4
282 1.4
287 0.17
330 24.3
331 4.7
332 8.5
333 1.6

$$$$

     RDKit          2D

 21 21  0  0  1  0  0  0  0  0999 V2000
    5.3435   -2.2735    0.0000 C   0  0  0  0  0  0  0  0  0  0  0  0
   -3.6143   -5.2571    0.0000 C   0  0  0  0  0  0  0  0  0  0  0  0
    3.4154    0.0248    0.0000 C   0  0  0  0  0  0  0  0  0  0  0  0
   -2.3151    2.9947    0.0000 C   0  0  0  0  0  0  0  0  0  0  0  0
   -0.5032   -2.1656    0.0000 C   0  0  0  0  0  0  0  0  0  0  0  0
   -6.2125    0.7439    0.0000 C   0  0  0  0  0  0  0  0  0  0  0  0
    3.8662   -2.5338    0.0000 C   0  0  0  0  0  0  0  0  0  0  0  0
   -3.6145   -3.7571    0.0000 C   0  0  0  0  0  0  0  0  0  0  0  0
   -3.6149   -0.7569    0.0000 C   0  0  0  0  0  0  0  0  0  0  0  0
    2.9022   -1.3846    0.0000 C   0  0  0  0  0  0  0  0  0  0  0  0
   -2.3149    1.4947    0.0000 C   0  0  0  0  0  0  0  0  0  0  0  0
   -3.6144    0.7439    0.0000 C   0  0  0  0  0  0  0  0  0  0  0  0
   -2.3159   -1.5069    0.0000 C   0  0  0  0  0  0  0  0  0  0  0  0
   -1.0159    0.7447    0.0000 C   0  0  0  0  0  0  0  0  0  0  0  0
    1.4249   -1.6450    0.0000 C   0  0  0  0  0  0  0  0  0  0  0  0
   -1.0164   -0.7561    0.0000 C   0  0  0  0  0  0  0  0  0  0  0  0
    0.2833    1.4945    0.0000 O   0  0  0  0  0  0  0  0  0  0  0  0
    0.9118   -3.0544    0.0000 O   0  0  0  0  0  0  0  0  0  0  0  0
   -4.9135    1.4939    0.0000 O   0  0  0  0  0  0  0  0  0  0  0  0
   -2.3156   -3.0069    0.0000 O   0  0  0  0  0  0  0  0  0  0  0  0
    0.4609   -0.4958    0.0000 O   0  0  0  0  0  0  0  0  0  0  0  0
  7  1  1  0
  8  2  1  0
 10  3  1  6
 10  7  1  0
 11  4  1  0
 12  9  1  0
 12 11  2  0
 13  9  2  0
 14 11  1  0
 15 10  1  0
 16  5  1  1
 16 13  1  0
 16 14  1  0
 17 14  2  0
 18 15  2  0
 19  6  1  0
 19 12  1  0
 20  8  1  0
 20 13  1  0
 21 15  1  0
 16 21  1  0
M  END
>  <NAME>  (3873) 
2,6-DIMETHYL-5-ETHOXY-3-METHOXY-(6R)-((2R)-2-METHYLBUTYRYLOXY)-2,4-CYCLOHEXADIEN-1-ONE

>  <SYNONYMS>  (3873) 


>  <SPECTRUM TYPE>  (3873) 
MS1

>  <INSTRUMENT TYPE>  (3873) 
EI-B

>  <INSTRUMENT>  (3873) 
JEOL JMS-D-300

>  <ION MODE>  (3873) 
P

>  <INCHIKEY>  (3873) 
JUMCUINIMOUWNA-QLJPJBMISA-N

>  <FORMULA>  (3873) 
C16H24O5

>  <EXACT MASS>  (3873) 
296.16237386800003

>  <MW>  (3873) 
296

>  <ID>  (3873) 
JP006664

>  <CONTRIBUTOR>  (3873) 
University of Tokyo Team, {Faculty of Engineering, University of Tokyo

>  <COMMENT>  (3873) 
SMILES=CCOC(=C([H])1)C(C)(OC(=O)C(C)CC)C(=O)C(C)=C(OC)1
InChI=InChI=1S/C16H24O5/c1-7-10(3)15(18)21-16(5)13(20-8-2)9-12(19-6)11(4)14(16)17/h9-10H,7-8H2,1-6H3/t10-,16-/m1/s1
computed SMILES=O=C(OC1(C(=O)C(=C(OC)C=C1OCC)C)C)C(C)CC
accession=JP006664
date=2016.01.19 (Created 2008.10.21, modified 2011.05.06)
author=MASS SPECTROSCOPY SOC. OF JAPAN (MSSJ)
license=CC BY-NC-SA
exact mass=296.16237
ionization energy=70 eV
ion type=[M]+*
computed spectral entropy=3.083786043242243
computed normalized entropy=0.7804595876331774
SPLASH=splash10-015c-4910000000-057158036ab5561b6b76
submitter=submitter = University of Tokyo Team (Faculty of Engineering, University of Tokyo)
MoNA Rating=3.75

>  <NUM PEAKS>  (3873) 
52

>  <MASS SPECTRAL PEAKS>  (3873) 
39 10
40 1
41 29
42 0.1
43 40
51 3
52 4
53 0.95
55 10
57 8.3
58 1
65 0.1
67 7
69 8
77 6
79 0.6
80 1
81 5
83 15.5
85 1.3
91 1
93 7
96 1
97 0.1
107 2.5
109 3
111 2.5
123 0.7
124 6
137 3
138 5
139 2.9
140 8
141 32
151 5
155 0.6
166 14
167 18
168 6
169 99.99
170 10
180 3
183 67
184 0.7
196 3
197 1
211 7
212 5.9
213 7
253 2.5
296 38
297 4

$$$$

     RDKit          2D

 20 20  0  0  1  0  0  0  0  0999 V2000
    5.9930   -3.3985    0.0000 C   0  0  0  0  0  0  0  0  0  0  0  0
    4.0649   -1.1002    0.0000 C   0  0  0  0  0  0  0  0  0  0  0  0
   -1.6656    1.8697    0.0000 C   0  0  0  0  0  0  0  0  0  0  0  0
    0.1463   -3.2906    0.0000 C   0  0  0  0  0  0  0  0  0  0  0  0
   -5.5630   -0.3811    0.0000 C   0  0  0  0  0  0  0  0  0  0  0  0
    2.2317   -0.3807    0.0000 C   0  0  0  0  0  0  0  0  0  0  0  0
    4.5158   -3.6588    0.0000 C   0  0  0  0  0  0  0  0  0  0  0  0
   -2.9654   -1.8819    0.0000 C   0  0  0  0  0  0  0  0  0  0  0  0
    3.5517   -2.5096    0.0000 C   0  0  0  0  0  0  0  0  0  0  0  0
   -1.6654    0.3697    0.0000 C   0  0  0  0  0  0  0  0  0  0  0  0
   -2.9649   -0.3811    0.0000 C   0  0  0  0  0  0  0  0  0  0  0  0
   -1.6664   -2.6319    0.0000 C   0  0  0  0  0  0  0  0  0  0  0  0
   -0.3664   -0.3803    0.0000 C   0  0  0  0  0  0  0  0  0  0  0  0
    2.0745   -2.7700    0.0000 C   0  0  0  0  0  0  0  0  0  0  0  0
   -0.3668   -1.8811    0.0000 C   0  0  0  0  0  0  0  0  0  0  0  0
   -1.6661   -4.1319    0.0000 O   0  0  0  0  0  0  0  0  0  0  0  0
    1.5613   -4.1794    0.0000 O   0  0  0  0  0  0  0  0  0  0  0  0
   -4.2639    0.3689    0.0000 O   0  0  0  0  0  0  0  0  0  0  0  0
    0.9328    0.3695    0.0000 O   0  0  0  0  0  0  0  0  0  0  0  0
    1.1104   -1.6208    0.0000 O   0  0  0  0  0  0  0  0  0  0  0  0
  7  1  1  0
  9  2  1  6
  9  7  1  0
 10  3  1  0
 11  8  2  0
 11 10  1  0
 12  8  1  0
 13 10  2  0
 14  9  1  0
 15  4  1  1
 15 12  1  0
 15 13  1  0
 16 12  2  0
 17 14  2  0
 18  5  1  0
 18 11  1  0
 19  6  1  0
 19 13  1  0
 20 14  1  0
 15 20  1  0
M  END
>  <NAME>  (3874) 
3,5-DIMETHOXY-4,6-DIMETHYL-(6S)-((2R)-2-METHYLBUTYRYLOXY)-2,4-CYCLOHEXADIEN-1-ONE

>  <SYNONYMS>  (3874) 


>  <SPECTRUM TYPE>  (3874) 
MS1

>  <INSTRUMENT TYPE>  (3874) 
EI-B

>  <INSTRUMENT>  (3874) 
JEOL JMS-D-300

>  <ION MODE>  (3874) 
P

>  <INCHIKEY>  (3874) 
NIXQRWMKFDVWDZ-RFAUZJTJSA-N

>  <FORMULA>  (3874) 
C15H22O5

>  <EXACT MASS>  (3874) 
282.146723804

>  <MW>  (3874) 
282

>  <ID>  (3874) 
JP006663

>  <CONTRIBUTOR>  (3874) 
University of Tokyo Team, {Faculty of Engineering, University of Tokyo

>  <COMMENT>  (3874) 
SMILES=CCC([H])(C)C(=O)OC(C)(C(=O)1)C(OC)=C(C)C(OC)=C([H])1
InChI=InChI=1S/C15H22O5/c1-7-9(2)14(17)20-15(4)12(16)8-11(18-5)10(3)13(15)19-6/h8-9H,7H2,1-6H3/t9-,15-/m1/s1
computed SMILES=O=C(OC1(C(=O)C=C(OC)C(=C1OC)C)C)C(C)CC
accession=JP006663
date=2016.01.19 (Created 2008.10.21, modified 2011.05.06)
author=MASS SPECTROSCOPY SOC. OF JAPAN (MSSJ)
license=CC BY-NC-SA
exact mass=282.14672
ionization energy=70 eV
ion type=[M]+*
computed spectral entropy=2.6743636277529093
computed normalized entropy=0.7025481336839692
SPLASH=splash10-0a4i-5900000000-30a4c452c65192d9b99e
submitter=submitter = University of Tokyo Team (Faculty of Engineering, University of Tokyo)
MoNA Rating=3.75

>  <NUM PEAKS>  (3874) 
45

>  <MASS SPECTRAL PEAKS>  (3874) 
39 6
40 1.5
41 19
42 0.15
44 1.5
51 1.5
52 2.5
53 0.35
55 4.5
57 79
58 3.5
59 0.2
67 4.5
69 5.5
77 4
79 0.25
83 7.5
85 12
95 2.5
107 0.1
109 2.5
121 2.5
123 3.5
136 0.3
137 2
138 4
139 5
140 0.8
141 3.5
151 7
153 4.5
154 0.25
155 99.99
156 10.5
166 25
167 0.35
181 5
182 5
183 3.5
197 0.6
198 56
199 6
239 1
282 1.7
283 3

$$$$

     RDKit          2D

 20 20  0  0  1  0  0  0  0  0999 V2000
    5.6682   -2.8359    0.0000 C   0  0  0  0  0  0  0  0  0  0  0  0
    3.7401   -0.5376    0.0000 C   0  0  0  0  0  0  0  0  0  0  0  0
   -1.9904    2.4323    0.0000 C   0  0  0  0  0  0  0  0  0  0  0  0
   -0.1784   -2.7280    0.0000 C   0  0  0  0  0  0  0  0  0  0  0  0
   -5.8878    0.1814    0.0000 C   0  0  0  0  0  0  0  0  0  0  0  0
   -3.2898   -4.3196    0.0000 C   0  0  0  0  0  0  0  0  0  0  0  0
    4.1910   -3.0963    0.0000 C   0  0  0  0  0  0  0  0  0  0  0  0
   -3.2902   -1.3194    0.0000 C   0  0  0  0  0  0  0  0  0  0  0  0
    3.2269   -1.9471    0.0000 C   0  0  0  0  0  0  0  0  0  0  0  0
   -1.9902    0.9323    0.0000 C   0  0  0  0  0  0  0  0  0  0  0  0
   -3.2897    0.1814    0.0000 C   0  0  0  0  0  0  0  0  0  0  0  0
   -1.9911   -2.0694    0.0000 C   0  0  0  0  0  0  0  0  0  0  0  0
   -0.6911    0.1823    0.0000 C   0  0  0  0  0  0  0  0  0  0  0  0
    1.7497   -2.2074    0.0000 C   0  0  0  0  0  0  0  0  0  0  0  0
   -0.6916   -1.3186    0.0000 C   0  0  0  0  0  0  0  0  0  0  0  0
    0.6080    0.9321    0.0000 O   0  0  0  0  0  0  0  0  0  0  0  0
    1.2365   -3.6169    0.0000 O   0  0  0  0  0  0  0  0  0  0  0  0
   -4.5887    0.9314    0.0000 O   0  0  0  0  0  0  0  0  0  0  0  0
   -1.9909   -3.5694    0.0000 O   0  0  0  0  0  0  0  0  0  0  0  0
    0.7856   -1.0582    0.0000 O   0  0  0  0  0  0  0  0  0  0  0  0
  7  1  1  0
  9  2  1  6
  9  7  1  0
 10  3  1  0
 11  8  1  0
 11 10  2  0
 12  8  2  0
 13 10  1  0
 14  9  1  0
 15  4  1  1
 15 12  1  0
 15 13  1  0
 16 13  2  0
 17 14  2  0
 18  5  1  0
 18 11  1  0
 19  6  1  0
 19 12  1  0
 20 14  1  0
 15 20  1  0
M  END
>  <NAME>  (3875) 
3,5-DIMETHOXY-2,6-DIMETHYL-(6R)-((2R)-2-METHYLBUTYRYLOXY)-2,4-CYCLOHEXADIEN-1-ONE

>  <SYNONYMS>  (3875) 
WASABIDIENONE-A METHYL ETHER

>  <SPECTRUM TYPE>  (3875) 
MS1

>  <INSTRUMENT TYPE>  (3875) 
EI-B

>  <INSTRUMENT>  (3875) 
JEOL JMS-D-300

>  <ION MODE>  (3875) 
P

>  <INCHIKEY>  (3875) 
MDMXRNQKNMWNRD-RFAUZJTJSA-N

>  <FORMULA>  (3875) 
C15H22O5

>  <EXACT MASS>  (3875) 
282.146723804

>  <MW>  (3875) 
282

>  <ID>  (3875) 
JP006662

>  <CONTRIBUTOR>  (3875) 
University of Tokyo Team, {Faculty of Engineering, University of Tokyo

>  <COMMENT>  (3875) 
SMILES=CCC([H])(C)C(=O)OC(C)(C(=O)1)C(OC)=C([H])C(OC)=C(C)1
InChI=InChI=1S/C15H22O5/c1-7-9(2)14(17)20-15(4)12(19-6)8-11(18-5)10(3)13(15)16/h8-9H,7H2,1-6H3/t9-,15-/m1/s1
computed SMILES=O=C(OC1(C(=O)C(=C(OC)C=C1OC)C)C)C(C)CC
accession=JP006662
date=2016.01.19 (Created 2008.10.21, modified 2011.05.06)
author=MASS SPECTROSCOPY SOC. OF JAPAN (MSSJ)
license=CC BY-NC-SA
exact mass=282.14672
ionization energy=70 eV
ion type=[M]+*
computed spectral entropy=2.5269545306699155
computed normalized entropy=0.6334832381308695
SPLASH=splash10-0a4i-3900000000-fc58bddac7dd0196f99c
submitter=submitter = University of Tokyo Team (Faculty of Engineering, University of Tokyo)
MoNA Rating=3.75

>  <NUM PEAKS>  (3875) 
54

>  <MASS SPECTRAL PEAKS>  (3875) 
39 2
41 7
42 1
43 1
53 1
55 2
57 55
58 0.3
59 2
67 2
69 2
77 0.2
82 2
83 3
84 1
85 1.1
91 1
95 2
105 2
106 0.1
107 1
108 1
123 2
125 0.1
127 1
137 1
138 3
139 0.1
140 2
141 2
149 1
151 0.1
153 4.5
154 1
155 99.99
156 1
157 1
165 1
166 15.5
167 0.3
168 1
169 7
170 1
181 0.15
182 3
183 3
184 1.5
197 0.4
198 39
199 3.5
205 1.5
239 0.15
282 16
283 2.5

$$$$

     RDKit          2D

 14 14  0  0  1  0  0  0  0  0999 V2000
    2.0789   -2.0602    0.0000 C   0  0  0  0  0  0  0  0  0  0  0  0
    5.9762    0.1908    0.0000 C   0  0  0  0  0  0  0  0  0  0  0  0
    0.4441    2.0892    0.0000 C   0  0  0  0  0  0  0  0  0  0  0  0
   -1.4841    2.0892    0.0000 C   0  0  0  0  0  0  0  0  0  0  0  0
   -1.8200   -1.3100    0.0000 C   0  0  0  0  0  0  0  0  0  0  0  0
   -0.5200   -2.0600    0.0000 C   0  0  0  0  0  0  0  0  0  0  0  0
    3.3781    0.1904    0.0000 C   0  0  0  0  0  0  0  0  0  0  0  0
    2.0789    0.9402    0.0000 C   0  0  0  0  0  0  0  0  0  0  0  0
   -1.8200    0.1900    0.0000 C   0  0  0  0  0  0  0  0  0  0  0  0
    0.7800   -1.3100    0.0000 C   0  0  0  0  0  0  0  0  0  0  0  0
    4.6770    0.9406    0.0000 C   0  0  0  0  0  0  0  0  0  0  0  0
    0.7800    0.1900    0.0000 C   0  0  0  0  0  0  0  0  0  0  0  0
   -0.5200    0.9400    0.0000 C   0  0  0  0  0  0  0  0  0  0  0  0
    4.6768    2.4406    0.0000 O   0  0  0  0  0  0  0  0  0  0  0  0
  6  5  1  0
  7  8  2  0
  9  5  1  0
 10  1  1  0
 10  6  2  0
 11  2  1  0
 11  7  1  0
 12  8  1  1
 12 10  1  0
 13  3  1  0
 13  4  1  0
 13  9  1  0
 13 12  1  0
 14 11  2  0
M  END
>  <NAME>  (3876) 
ALPHA-IONONE

>  <SYNONYMS>  (3876) 
4-(2,6,6-TRIMETHYL-2-CYCLOHEXEN-1-YL)-3-BUTEN-2-ONE

>  <SPECTRUM TYPE>  (3876) 
MS1

>  <INSTRUMENT TYPE>  (3876) 
EI-B

>  <INSTRUMENT>  (3876) 
HITACHI M-80B

>  <ION MODE>  (3876) 
P

>  <INCHIKEY>  (3876) 
UZFLPKAIBPNNCA-GUOLPTJISA-N

>  <FORMULA>  (3876) 
C13H20O

>  <EXACT MASS>  (3876) 
192.15141526

>  <MW>  (3876) 
192

>  <ID>  (3876) 
JP006612

>  <CONTRIBUTOR>  (3876) 
University of Tokyo Team, {Faculty of Engineering, University of Tokyo

>  <COMMENT>  (3876) 
SMILES=CC(=O)C([H])=C([H])C([H])(C(C)=1)C(C)(C)CCC([H])1
InChI=InChI=1S/C13H20O/c1-10-6-5-9-13(3,4)12(10)8-7-11(2)14/h6-8,12H,5,9H2,1-4H3/b8-7+/t12-/m0/s1
computed SMILES=O=C(C=CC1C(=CCCC1(C)C)C)C
accession=JP006612
date=2016.01.19 (Created 2008.10.21, modified 2011.05.06)
author=HISAHIRO HAGIWARA, CHEMICAL RESEARCH INSTITUTE OF NON-AQUEOUSSOLUTIONS TOHOKU UNIV.
license=CC BY-NC-SA
exact mass=192.15142
ionization energy=70 eV
ion type=[M]+*
computed spectral entropy=3.2126206256809304
computed normalized entropy=0.7911995359463508
SPLASH=splash10-0006-9600000000-93c21f85616fb52a6763
submitter=submitter = University of Tokyo Team (Faculty of Engineering, University of Tokyo)
MoNA Rating=3.75

>  <NUM PEAKS>  (3876) 
58

>  <MASS SPECTRAL PEAKS>  (3876) 
15 3.81
18 2.01
27 10.77
29 5.82
39 16.77
41 27.41
42 2.92
43 73.91
44 2.01
45 1.7
51 5.51
52 2.75
53 10.29
55 9.08
56 3.71
57 1.35
63 2.06
65 8.88
66 2.01
67 5.31
69 4.14
71 1.85
77 28.44
78 5.68
79 8.9
80 2.02
81 5.36
91 29.66
92 11.15
93 79.04
94 6.6
95 4.29
96 1.16
103 2.15
105 4.75
107 8.1
108 2.94
109 16.94
110 1.92
112 1.76
115 1.54
117 1.84
119 4.39
121 99.99
122 8.67
123 1.54
131 1.35
133 1.57
134 1.91
135 6.32
136 53.76
137 8.76
149 3.38
150 2.13
159 1.23
177 5.71
192 13.44
193 1.57

$$$$

     RDKit          2D

 12 13  0  0  1  0  0  0  0  0999 V2000
   -4.2681   -0.7504    0.0000 C   0  0  0  0  0  0  0  0  0  0  0  0
   -2.9687   -3.0002    0.0000 C   0  0  0  0  0  0  0  0  0  0  0  0
    1.6796    2.0493    0.0000 C   0  0  0  0  0  0  0  0  0  0  0  0
   -1.6700    0.7500    0.0000 C   0  0  0  0  0  0  0  0  0  0  0  0
   -0.3700   -1.5000    0.0000 C   0  0  0  0  0  0  0  0  0  0  0  0
   -2.9689   -1.5002    0.0000 C   0  0  0  0  0  0  0  0  0  0  0  0
   -1.6700   -0.7500    0.0000 C   0  0  0  0  0  0  0  0  0  0  0  0
   -0.3700    1.5000    0.0000 C   0  0  0  0  0  0  0  0  0  0  0  0
    0.9300   -0.7500    0.0000 C   0  0  0  0  0  0  0  0  0  0  0  0
    0.9300    0.7500    0.0000 C   0  0  0  0  0  0  0  0  0  0  0  0
   -0.3700    3.0000    0.0000 O   0  0  0  0  0  0  0  0  0  0  0  0
    2.2300   -0.0000    0.0000 O   0  0  0  0  0  0  0  0  0  0  0  0
  6  1  2  0
  6  2  1  0
  7  4  1  0
  7  5  1  0
  7  6  1  6
  8  4  1  0
  9  5  1  0
 10  3  1  0
 10  8  1  0
 10  9  1  0
 11  8  2  0
 12  9  1  0
 12 10  1  0
M  END
>  <NAME>  (3877) 
CARVONE-1,6-OXIDE

>  <SYNONYMS>  (3877) 


>  <SPECTRUM TYPE>  (3877) 
MS1

>  <INSTRUMENT TYPE>  (3877) 
EI-B

>  <INSTRUMENT>  (3877) 
HITACHI M-80B

>  <ION MODE>  (3877) 
P

>  <INCHIKEY>  (3877) 
YGMNGQDLUQECTO-CUUXFQNZSA-N

>  <FORMULA>  (3877) 
C10H14O2

>  <EXACT MASS>  (3877) 
166.099379688

>  <MW>  (3877) 
166

>  <ID>  (3877) 
JP006611

>  <CONTRIBUTOR>  (3877) 
University of Tokyo Team, {Faculty of Engineering, University of Tokyo

>  <COMMENT>  (3877) 
SMILES=CC(=C)C([H])(C2)CC(O1)C(C)(C(=O)2)1
InChI=InChI=1S/C10H14O2/c1-6(2)7-4-8(11)10(3)9(5-7)12-10/h7,9H,1,4-5H2,2-3H3/t7-,9?,10?/m1/s1
computed SMILES=O=C1CC(C(=C)C)CC2OC12C
accession=JP006611
date=2016.01.19 (Created 2008.10.21, modified 2011.05.06)
author=HISAHIRO HAGIWARA, CHEMICAL RESEARCH INSTITUTE OF NON-AQUEOUSSOLUTIONS TOHOKU UNIV.
license=CC BY-NC-SA
exact mass=166.09938
ionization energy=70 eV
ion type=[M]+*
computed spectral entropy=3.34190954987775
computed normalized entropy=0.8302155455309836
SPLASH=splash10-000f-9100000000-0098c09f66dbfa00234b
submitter=submitter = University of Tokyo Team (Faculty of Engineering, University of Tokyo)
MoNA Rating=3.75

>  <NUM PEAKS>  (3877) 
56

>  <MASS SPECTRAL PEAKS>  (3877) 
15 4.38
26 1.83
27 23.38
29 5.7
38 1.48
39 29.99
40 4.99
41 28.77
42 4.29
43 99.99
44 2.16
45 1.42
50 1.7
51 4.28
52 2.57
53 20.44
54 3.23
55 22.37
56 1.91
57 1.19
63 1.27
65 3.66
66 2.57
67 38.77
68 21.45
69 5.2
70 3.57
71 12.67
77 4.23
78 1.16
79 12.76
80 3.45
81 18.49
82 11.41
83 2.3
85 45.55
86 1.69
91 3.02
93 3.37
94 3.52
95 28.01
96 9.73
97 6.68
105 3.46
107 2.36
108 1.94
109 15.71
110 3.03
120 3.87
121 7.52
122 1.92
123 29.55
124 3
137 4.55
138 5.86
151 1.51

$$$$

     RDKit          2D

 11 11  0  0  0  0  0  0  0  0999 V2000
   -3.5376   -0.2051    0.0000 C   0  0  0  0  0  0  0  0  0  0  0  0
   -2.2386   -2.4551    0.0000 C   0  0  0  0  0  0  0  0  0  0  0  0
    2.9576    2.0449    0.0000 C   0  0  0  0  0  0  0  0  0  0  0  0
    0.3590    2.0458    0.0000 C   0  0  0  0  0  0  0  0  0  0  0  0
   -0.9400    1.2958    0.0000 C   0  0  0  0  0  0  0  0  0  0  0  0
    1.6590   -0.2059    0.0000 C   0  0  0  0  0  0  0  0  0  0  0  0
   -2.2386   -0.9551    0.0000 C   0  0  0  0  0  0  0  0  0  0  0  0
    1.6585    1.2949    0.0000 C   0  0  0  0  0  0  0  0  0  0  0  0
   -0.9395   -0.2051    0.0000 C   0  0  0  0  0  0  0  0  0  0  0  0
    0.3600   -0.9559    0.0000 C   0  0  0  0  0  0  0  0  0  0  0  0
    0.3597   -2.4559    0.0000 O   0  0  0  0  0  0  0  0  0  0  0  0
  5  4  1  0
  7  1  1  0
  7  2  1  0
  8  3  1  0
  8  4  1  0
  8  6  1  0
  9  5  1  0
  9  7  1  0
 10  6  1  0
 10  9  1  0
 11 10  2  0
M  END
>  <NAME>  (3878) 
ISOMENTHONE

>  <SYNONYMS>  (3878) 


>  <SPECTRUM TYPE>  (3878) 
MS1

>  <INSTRUMENT TYPE>  (3878) 
EI-B

>  <INSTRUMENT>  (3878) 
HITACHI M-80B

>  <ION MODE>  (3878) 
P

>  <INCHIKEY>  (3878) 
NFLGAXVYCFJBMK-UHFFFAOYSA-N

>  <FORMULA>  (3878) 
C10H18O

>  <EXACT MASS>  (3878) 
154.135765196

>  <MW>  (3878) 
154

>  <ID>  (3878) 
JP006610

>  <CONTRIBUTOR>  (3878) 
University of Tokyo Team, {Faculty of Engineering, University of Tokyo

>  <COMMENT>  (3878) 
SMILES=CC(C1)CC(=O)C(C1)C(C)C
InChI=InChI=1S/C10H18O/c1-7(2)9-5-4-8(3)6-10(9)11/h7-9H,4-6H2,1-3H3
computed SMILES=O=C1CC(C)CCC1C(C)C
accession=JP006610
date=2016.01.19 (Created 2008.10.21, modified 2011.05.06)
author=HISAHIRO HAGIWARA, CHEMICAL RESEARCH INSTITUTE OF NON-AQUEOUSSOLUTIONS TOHOKU UNIV.
license=CC BY-NC-SA
exact mass=154.13577
ionization energy=70 eV
ion type=[M]+*
computed spectral entropy=3.1930417821272568
computed normalized entropy=0.8162124245426821
SPLASH=splash10-07bo-9300000000-3f63fc6dbb3efa362d59
submitter=submitter = University of Tokyo Team (Faculty of Engineering, University of Tokyo)
MoNA Rating=3.75

>  <NUM PEAKS>  (3878) 
50

>  <MASS SPECTRAL PEAKS>  (3878) 
15 3.57
26 1.23
27 32.38
29 22.51
38 1.45
39 37.79
40 4.62
41 86.52
42 19.35
43 33.71
44 1.22
51 3.03
52 1.88
53 9.96
54 3.5
55 57.51
56 35.51
57 5.78
58 1.97
65 2.1
66 1.03
67 7.12
68 5.03
69 67.46
70 31.88
71 3.92
77 2.11
79 2.83
81 4.54
82 1.52
83 18.72
84 10.83
85 1.55
93 2.52
94 1.58
95 16.23
96 1.66
97 22.33
98 7.09
109 1.66
110 5.57
111 21.94
112 99.99
113 6.83
121 3.35
125 4.16
139 31.15
140 2.63
154 19.4
155 1.71

$$$$

     RDKit          2D

 11 12  0  0  1  0  0  0  0  0999 V2000
    3.1368   -2.2085    0.0000 C   0  0  0  0  0  0  0  0  0  0  0  0
    0.8040   -3.3521    0.0000 C   0  0  0  0  0  0  0  0  0  0  0  0
   -1.0087    2.5399    0.0000 C   0  0  0  0  0  0  0  0  0  0  0  0
    2.2800   -0.0100    0.0000 C   0  0  0  0  0  0  0  0  0  0  0  0
   -0.3400   -1.3000    0.0000 C   0  0  0  0  0  0  0  0  0  0  0  0
    1.6403   -2.1069    0.0000 C   0  0  0  0  0  0  0  0  0  0  0  0
   -0.4700    1.1400    0.0000 C   0  0  0  0  0  0  0  0  0  0  0  0
    0.9800    0.7500    0.0000 C   0  0  0  0  0  0  0  0  0  0  0  0
   -1.2900   -0.1300    0.0000 C   0  0  0  0  0  0  0  0  0  0  0  0
    0.9800   -0.7600    0.0000 C   0  0  0  0  0  0  0  0  0  0  0  0
   -2.7878   -0.2115    0.0000 O   0  0  0  0  0  0  0  0  0  0  0  0
  6  1  1  0
  6  2  1  0
  7  3  1  6
  8  4  1  1
  8  7  1  0
  9  5  1  0
  9  7  1  0
 10  4  1  0
 10  5  1  0
 10  6  1  6
 10  8  1  0
 11  9  2  0
M  END
>  <NAME>  (3879) 
THUJONE

>  <SYNONYMS>  (3879) 
4-METHYL-1ALPHA-(1-METHYLETHYL)BICYCLO(3.1.0)HEXAN-3-ONE

>  <SPECTRUM TYPE>  (3879) 
MS1

>  <INSTRUMENT TYPE>  (3879) 
EI-B

>  <INSTRUMENT>  (3879) 
HITACHI M-80B

>  <ION MODE>  (3879) 
P

>  <INCHIKEY>  (3879) 
USMNOWBWPHYOEA-MRTMQBJTSA-N

>  <FORMULA>  (3879) 
C10H16O

>  <EXACT MASS>  (3879) 
152.120115132

>  <MW>  (3879) 
152

>  <ID>  (3879) 
JP006608

>  <CONTRIBUTOR>  (3879) 
University of Tokyo Team, {Faculty of Engineering, University of Tokyo

>  <COMMENT>  (3879) 
SMILES=CC(C)C(C2)(C1)C([H])1C([H])(C)C(=O)2
InChI=InChI=1S/C10H16O/c1-6(2)10-4-8(10)7(3)9(11)5-10/h6-8H,4-5H2,1-3H3/t7-,8-,10+/m1/s1
computed SMILES=O=C1CC2(CC2C1C)C(C)C
accession=JP006608
date=2016.01.19 (Created 2008.10.21, modified 2011.05.06)
author=HISAHIRO HAGIWARA, CHEMICAL RESEARCH INSTITUTE OF NON-AQUEOUSSOLUTIONS TOHOKU UNIV.
license=CC BY-NC-SA
exact mass=152.12012
ionization energy=70 eV
ion type=[M]+*
computed spectral entropy=3.1522606581717705
computed normalized entropy=0.8330081108826006
SPLASH=splash10-0159-9100000000-9e3f8c13550e0c33d603
submitter=submitter = University of Tokyo Team (Faculty of Engineering, University of Tokyo)
MoNA Rating=3.75

>  <NUM PEAKS>  (3879) 
44

>  <MASS SPECTRAL PEAKS>  (3879) 
15 2.43
26 1.65
27 38.21
28 8.5
29 19.88
38 1.72
39 44.86
40 4.97
41 78.2
42 4.99
43 16.25
50 3.03
51 8.6
52 4.47
53 29.19
54 6.97
55 38.29
56 5.7
63 1.75
65 6.7
66 4.33
67 53.61
68 67.4
69 59.14
70 9.2
77 9.65
78 1.87
79 14.45
80 8.01
81 99.99
82 25.19
83 2.9
91 4.31
93 3.94
94 1.53
95 44.78
96 4.15
97 1.36
107 1.3
109 49.15
110 66.75
111 5.2
124 5.81
152 6.47

$$$$

     RDKit          2D

 11 11  0  0  0  0  0  0  0  0999 V2000
   -3.5376   -0.2051    0.0000 C   0  0  0  0  0  0  0  0  0  0  0  0
   -2.2386   -2.4551    0.0000 C   0  0  0  0  0  0  0  0  0  0  0  0
    2.9576    2.0449    0.0000 C   0  0  0  0  0  0  0  0  0  0  0  0
    0.3590    2.0458    0.0000 C   0  0  0  0  0  0  0  0  0  0  0  0
   -0.9400    1.2958    0.0000 C   0  0  0  0  0  0  0  0  0  0  0  0
    1.6590   -0.2059    0.0000 C   0  0  0  0  0  0  0  0  0  0  0  0
   -2.2386   -0.9551    0.0000 C   0  0  0  0  0  0  0  0  0  0  0  0
    1.6585    1.2949    0.0000 C   0  0  0  0  0  0  0  0  0  0  0  0
   -0.9395   -0.2051    0.0000 C   0  0  0  0  0  0  0  0  0  0  0  0
    0.3600   -0.9559    0.0000 C   0  0  0  0  0  0  0  0  0  0  0  0
    0.3597   -2.4559    0.0000 O   0  0  0  0  0  0  0  0  0  0  0  0
  5  4  1  0
  7  1  1  0
  7  2  1  0
  8  3  1  0
  8  4  1  0
  8  6  1  0
  9  5  1  0
  9  7  2  0
 10  6  1  0
 10  9  1  0
 11 10  2  0
M  END
>  <NAME>  (3880) 
PULEGONE

>  <SYNONYMS>  (3880) 
5-METHYL-2-(1-METHYLETHYLIDENE)CYCLOHEXANONE

>  <SPECTRUM TYPE>  (3880) 
MS1

>  <INSTRUMENT TYPE>  (3880) 
EI-B

>  <INSTRUMENT>  (3880) 
HITACHI M-80B

>  <ION MODE>  (3880) 
P

>  <INCHIKEY>  (3880) 
NZGWDASTMWDZIW-UHFFFAOYSA-N

>  <FORMULA>  (3880) 
C10H16O

>  <EXACT MASS>  (3880) 
152.120115132

>  <MW>  (3880) 
152

>  <ID>  (3880) 
JP006606

>  <CONTRIBUTOR>  (3880) 
University of Tokyo Team, {Faculty of Engineering, University of Tokyo

>  <COMMENT>  (3880) 
SMILES=CC(C1)CC(=O)C(C1)=C(C)C
InChI=InChI=1S/C10H16O/c1-7(2)9-5-4-8(3)6-10(9)11/h8H,4-6H2,1-3H3
computed SMILES=O=C1C(=C(C)C)CCC(C)C1
accession=JP006606
date=2016.01.19 (Created 2008.10.21, modified 2011.05.06)
author=HISAHIRO HAGIWARA, CHEMICAL RESEARCH INSTITUTE OF NON-AQUEOUSSOLUTIONS TOHOKU UNIV.
license=CC BY-NC-SA
exact mass=152.12012
ionization energy=70 eV
ion type=[M]+*
computed spectral entropy=3.1822504109509713
computed normalized entropy=0.8134539103004825
SPLASH=splash10-0f89-9200000000-103da19d7e73140f53a7
submitter=submitter = University of Tokyo Team (Faculty of Engineering, University of Tokyo)
MoNA Rating=3.75

>  <NUM PEAKS>  (3880) 
50

>  <MASS SPECTRAL PEAKS>  (3880) 
15 3.35
26 1.36
27 22.89
29 11.4
38 1.92
39 40.33
40 5.23
41 52.62
42 8.44
43 11.54
50 2.06
51 7.33
52 4.46
53 23.94
54 5.67
55 12.65
56 2.52
63 2.32
65 6.81
66 3.64
67 66.79
68 20.06
69 19.72
70 2.03
77 7.23
78 2.11
79 8.13
80 8.39
81 99.99
82 35.21
83 3.69
91 4.5
92 1.04
93 2.47
94 1.8
95 12.81
96 2.72
97 1.59
105 1.21
107 1.66
108 1.47
109 42.2
110 6.76
119 2.16
123 1.92
124 1.49
137 21.39
138 1.77
152 56.47
153 5.75

$$$$

     RDKit          2D

 11 11  0  0  0  0  0  0  0  0999 V2000
   -3.5376   -0.2051    0.0000 C   0  0  0  0  0  0  0  0  0  0  0  0
   -2.2386   -2.4551    0.0000 C   0  0  0  0  0  0  0  0  0  0  0  0
    2.9576    2.0449    0.0000 C   0  0  0  0  0  0  0  0  0  0  0  0
    0.3590    2.0458    0.0000 C   0  0  0  0  0  0  0  0  0  0  0  0
   -0.9400    1.2958    0.0000 C   0  0  0  0  0  0  0  0  0  0  0  0
    1.6590   -0.2059    0.0000 C   0  0  0  0  0  0  0  0  0  0  0  0
   -2.2386   -0.9551    0.0000 C   0  0  0  0  0  0  0  0  0  0  0  0
    1.6585    1.2949    0.0000 C   0  0  0  0  0  0  0  0  0  0  0  0
   -0.9395   -0.2051    0.0000 C   0  0  0  0  0  0  0  0  0  0  0  0
    0.3600   -0.9559    0.0000 C   0  0  0  0  0  0  0  0  0  0  0  0
    0.3597   -2.4559    0.0000 O   0  0  0  0  0  0  0  0  0  0  0  0
  5  4  1  0
  7  1  1  0
  7  2  1  0
  8  3  1  0
  8  4  1  0
  8  6  2  0
  9  5  1  0
  9  7  1  0
 10  6  1  0
 10  9  1  0
 11 10  2  0
M  END
>  <NAME>  (3881) 
PIPERITONE

>  <SYNONYMS>  (3881) 
3-METHYL-6-ISOPROPYLCYCLOHEX-2-EN-1-ONE

>  <SPECTRUM TYPE>  (3881) 
MS1

>  <INSTRUMENT TYPE>  (3881) 
EI-B

>  <INSTRUMENT>  (3881) 
HITACHI M-80B

>  <ION MODE>  (3881) 
P

>  <INCHIKEY>  (3881) 
YSTPAHQEHQSRJD-UHFFFAOYSA-N

>  <FORMULA>  (3881) 
C10H16O

>  <EXACT MASS>  (3881) 
152.120115132

>  <MW>  (3881) 
152

>  <ID>  (3881) 
JP006605

>  <CONTRIBUTOR>  (3881) 
University of Tokyo Team, {Faculty of Engineering, University of Tokyo

>  <COMMENT>  (3881) 
SMILES=CC(C)C(C1)C(=O)C=C(C)C1
InChI=InChI=1S/C10H16O/c1-7(2)9-5-4-8(3)6-10(9)11/h6-7,9H,4-5H2,1-3H3
computed SMILES=O=C1C=C(C)CCC1C(C)C
accession=JP006605
date=2016.01.19 (Created 2008.10.21, modified 2011.05.06)
author=HISAHIRO HAGIWARA, CHEMICAL RESEARCH INSTITUTE OF NON-AQUEOUSSOLUTIONS TOHOKU UNIV.
license=CC BY-NC-SA
exact mass=152.12012
ionization energy=70 eV
ion type=[M]+*
computed spectral entropy=2.9537839360479126
computed normalized entropy=0.7805591743005432
SPLASH=splash10-01qi-9300000000-f92830f958dd7b7816c0
submitter=submitter = University of Tokyo Team (Faculty of Engineering, University of Tokyo)
MoNA Rating=3.75

>  <NUM PEAKS>  (3881) 
44

>  <MASS SPECTRAL PEAKS>  (3881) 
15 1.59
27 22.81
28 9.96
29 7.91
38 1.85
39 37.52
40 3.21
41 34.65
42 3.69
43 5.88
50 1.54
51 4.12
52 2.78
53 15.24
54 20.22
55 9.82
56 1.01
63 1.37
65 3.35
66 2.01
67 7.3
68 1.49
69 3.72
77 4.51
78 1.31
79 4.26
81 6.27
82 99.99
83 5.61
91 3.32
94 1.45
95 30.39
96 2.21
107 1.2
108 1.16
109 20.39
110 78.88
111 4.88
123 1.07
124 4.3
137 19.08
138 1.55
152 9.52
153 1.23

$$$$

     RDKit          2D

 11 12  0  0  0  0  0  0  0  0999 V2000
    1.2027   -2.3196    0.0000 C   0  0  0  0  0  0  0  0  0  0  0  0
    2.1672   -0.6497    0.0000 C   0  0  0  0  0  0  0  0  0  0  0  0
   -0.6100    2.8400    0.0000 C   0  0  0  0  0  0  0  0  0  0  0  0
   -1.9100   -0.9100    0.0000 C   0  0  0  0  0  0  0  0  0  0  0  0
   -1.9100    0.5900    0.0000 C   0  0  0  0  0  0  0  0  0  0  0  0
   -1.3600   -0.1500    0.0000 C   0  0  0  0  0  0  0  0  0  0  0  0
   -0.6100   -1.6600    0.0000 C   0  0  0  0  0  0  0  0  0  0  0  0
    0.6900    0.5900    0.0000 C   0  0  0  0  0  0  0  0  0  0  0  0
    0.6900   -0.9100    0.0000 C   0  0  0  0  0  0  0  0  0  0  0  0
   -0.6100    1.3400    0.0000 C   0  0  0  0  0  0  0  0  0  0  0  0
    1.9889    1.3402    0.0000 O   0  0  0  0  0  0  0  0  0  0  0  0
  5  4  1  0
  7  4  1  0
  7  6  1  0
  9  1  1  0
  9  2  1  0
  9  7  1  0
  9  8  1  0
 10  3  1  0
 10  5  1  0
 10  6  1  0
 10  8  1  0
 11  8  2  0
M  END
>  <NAME>  (3882) 
FENCHONE

>  <SYNONYMS>  (3882) 
1,3,3-TRIMETHYLBICYCLO(2.2.1)HEPTAN-2-ONE

>  <SPECTRUM TYPE>  (3882) 
MS1

>  <INSTRUMENT TYPE>  (3882) 
EI-B

>  <INSTRUMENT>  (3882) 
HITACHI M-80B

>  <ION MODE>  (3882) 
P

>  <INCHIKEY>  (3882) 
LHXDLQBQYFFVNW-UHFFFAOYSA-N

>  <FORMULA>  (3882) 
C10H16O

>  <EXACT MASS>  (3882) 
152.120115132

>  <MW>  (3882) 
152

>  <ID>  (3882) 
JP006604

>  <CONTRIBUTOR>  (3882) 
University of Tokyo Team, {Faculty of Engineering, University of Tokyo

>  <COMMENT>  (3882) 
SMILES=O=C(C(C)(C)1)C(C)(C2)CC(C2)1
InChI=InChI=1S/C10H16O/c1-9(2)7-4-5-10(3,6-7)8(9)11/h7H,4-6H2,1-3H3
computed SMILES=O=C1C(C)(C)C2CCC1(C)C2
accession=JP006604
date=2016.01.19 (Created 2008.10.21, modified 2011.05.06)
author=HISAHIRO HAGIWARA, CHEMICAL RESEARCH INSTITUTE OF NON-AQUEOUSSOLUTIONS TOHOKU UNIV.
license=CC BY-NC-SA
exact mass=152.12012
ionization energy=70 eV
ion type=[M]+*
computed spectral entropy=2.4594760102587676
computed normalized entropy=0.7304009313219881
SPLASH=splash10-001i-9000000000-a6f20ad638918f01e975
submitter=submitter = University of Tokyo Team (Faculty of Engineering, University of Tokyo)
MoNA Rating=3.75

>  <NUM PEAKS>  (3882) 
29

>  <MASS SPECTRAL PEAKS>  (3882) 
27 9.17
29 4.42
39 14.41
40 1.91
41 30.69
42 3.55
43 2.75
51 2.14
52 1.07
53 7.55
54 1.27
55 4.42
65 2.12
67 8.12
68 3.85
69 51.54
70 3.46
72 1.51
77 2.72
79 3.91
80 12.74
81 99.99
82 8.7
91 1.64
95 1.17
109 6.05
137 1.32
152 12.24
153 1.3

$$$$

     RDKit          2D

 11 12  0  0  0  0  0  0  0  0999 V2000
   -0.6759    1.4813    0.0000 C   0  0  0  0  0  0  0  0  0  0  0  0
   -0.6759   -2.3013    0.0000 C   0  0  0  0  0  0  0  0  0  0  0  0
    2.4475    2.5900    0.0000 C   0  0  0  0  0  0  0  0  0  0  0  0
    1.1450   -1.1600    0.0000 C   0  0  0  0  0  0  0  0  0  0  0  0
    1.1450    0.3400    0.0000 C   0  0  0  0  0  0  0  0  0  0  0  0
    3.7350   -1.1600    0.0000 C   0  0  0  0  0  0  0  0  0  0  0  0
    2.4450   -1.9100    0.0000 C   0  0  0  0  0  0  0  0  0  0  0  0
    3.7350    0.3400    0.0000 C   0  0  0  0  0  0  0  0  0  0  0  0
    1.5750   -0.4100    0.0000 C   0  0  0  0  0  0  0  0  0  0  0  0
    2.4450    1.0900    0.0000 C   0  0  0  0  0  0  0  0  0  0  0  0
    5.0352    1.0880    0.0000 O   0  0  0  0  0  0  0  0  0  0  0  0
  5  4  1  0
  7  4  1  0
  7  6  1  0
  8  6  1  0
  9  1  1  0
  9  2  1  0
  9  7  1  0
 10  3  1  0
 10  5  1  0
 10  8  1  0
 10  9  1  0
 11  8  2  0
M  END
>  <NAME>  (3883) 
CAMPHOR

>  <SYNONYMS>  (3883) 
1,7,7-TRIMETHYLBICYCLO(2.2.1)HEPTAN-2-ONE

>  <SPECTRUM TYPE>  (3883) 
MS1

>  <INSTRUMENT TYPE>  (3883) 
EI-B

>  <INSTRUMENT>  (3883) 
HITACHI M-80B

>  <ION MODE>  (3883) 
P

>  <INCHIKEY>  (3883) 
DSSYKIVIOFKYAU-UHFFFAOYSA-N

>  <FORMULA>  (3883) 
C10H16O

>  <EXACT MASS>  (3883) 
152.120115132

>  <MW>  (3883) 
152

>  <ID>  (3883) 
JP006603

>  <CONTRIBUTOR>  (3883) 
University of Tokyo Team, {Faculty of Engineering, University of Tokyo

>  <COMMENT>  (3883) 
SMILES=O=C(C1)C(C)(C2)C(C)(C)C(C2)1
InChI=InChI=1S/C10H16O/c1-9(2)7-4-5-10(9,3)8(11)6-7/h7H,4-6H2,1-3H3
computed SMILES=O=C1CC2CCC1(C)C2(C)C
accession=JP006603
date=2016.01.19 (Created 2008.10.21, modified 2011.05.06)
author=HISAHIRO HAGIWARA, CHEMICAL RESEARCH INSTITUTE OF NON-AQUEOUSSOLUTIONS TOHOKU UNIV.
license=CC BY-NC-SA
exact mass=152.12012
ionization energy=70 eV
ion type=[M]+*
computed spectral entropy=3.1807584185551434
computed normalized entropy=0.8307799266528155
SPLASH=splash10-053v-9100000000-6f9cbf4db0181dca1230
submitter=submitter = University of Tokyo Team (Faculty of Engineering, University of Tokyo)
MoNA Rating=3.75

>  <NUM PEAKS>  (3883) 
46

>  <MASS SPECTRAL PEAKS>  (3883) 
15 2.02
26 1.2
27 23.52
29 13.74
38 1.29
39 37.6
40 5.63
41 74.79
42 6.26
43 9.91
50 1.4
51 6.89
52 2.44
53 18.71
54 4.93
55 38.88
56 2.12
57 1.21
63 1.34
65 5.8
66 1.87
67 25.23
68 17.52
69 39.3
70 2.33
77 7.91
78 1.47
79 8.18
80 13.97
81 76.23
82 13.76
83 37.08
84 2.36
91 5.14
93 10.6
94 1.49
95 99.99
96 10.28
97 4.9
107 1.06
108 38.11
109 31.06
110 13.25
137 2.77
152 25.99
153 2.27

$$$$

     RDKit          2D

 11 12  0  0  0  0  0  0  0  0999 V2000
    1.9104    1.8966    0.0000 C   0  0  0  0  0  0  0  0  0  0  0  0
    0.9054    1.6596    0.0000 C   0  0  0  0  0  0  0  0  0  0  0  0
   -1.0296   -1.1030    0.0000 C   0  0  0  0  0  0  0  0  0  0  0  0
    0.6104   -0.3534    0.0000 C   0  0  0  0  0  0  0  0  0  0  0  0
    3.2104   -1.8534    0.0000 C   0  0  0  0  0  0  0  0  0  0  0  0
    1.9104    0.3966    0.0000 C   0  0  0  0  0  0  0  0  0  0  0  0
    3.2104   -0.3534    0.0000 C   0  0  0  0  0  0  0  0  0  0  0  0
    1.9104   -2.6034    0.0000 C   0  0  0  0  0  0  0  0  0  0  0  0
    0.6104   -1.8534    0.0000 C   0  0  0  0  0  0  0  0  0  0  0  0
    1.9104   -1.1034    0.0000 C   0  0  0  0  0  0  0  0  0  0  0  0
   -0.6885   -2.6036    0.0000 O   0  0  0  0  0  0  0  0  0  0  0  0
  6  1  1  0
  6  4  2  0
  7  5  1  0
  7  6  1  0
  8  5  1  0
  9  4  1  0
  9  8  1  0
 10  2  1  0
 10  3  1  0
 10  7  1  0
 10  8  1  0
 11  9  2  0
M  END
>  <NAME>  (3884) 
VERBENONE

>  <SYNONYMS>  (3884) 
4,6,6-TRIMETHYLBICYCLO(3.1.1)HEPT-3-EN-2-ONE

>  <SPECTRUM TYPE>  (3884) 
MS1

>  <INSTRUMENT TYPE>  (3884) 
EI-B

>  <INSTRUMENT>  (3884) 
HITACHI M-80B

>  <ION MODE>  (3884) 
P

>  <INCHIKEY>  (3884) 
DCSCXTJOXBUFGB-UHFFFAOYSA-N

>  <FORMULA>  (3884) 
C10H14O

>  <EXACT MASS>  (3884) 
150.104465068

>  <MW>  (3884) 
150

>  <ID>  (3884) 
JP006602

>  <CONTRIBUTOR>  (3884) 
University of Tokyo Team, {Faculty of Engineering, University of Tokyo

>  <COMMENT>  (3884) 
SMILES=CC(=C2)C(C1)C(C)(C)C(C(=O)2)1
InChI=InChI=1S/C10H14O/c1-6-4-9(11)8-5-7(6)10(8,2)3/h4,7-8H,5H2,1-3H3
computed SMILES=O=C1C=C(C)C2CC1C2(C)C
accession=JP006602
date=2016.01.19 (Created 2008.10.21, modified 2011.05.06)
author=HISAHIRO HAGIWARA, CHEMICAL RESEARCH INSTITUTE OF NON-AQUEOUSSOLUTIONS TOHOKU UNIV.
license=CC BY-NC-SA
exact mass=150.10447
ionization energy=70 eV
ion type=[M]+*
computed spectral entropy=3.461550976636639
computed normalized entropy=0.8489317447741079
SPLASH=splash10-0553-9400000000-eb8d6917a682863e0158
submitter=submitter = University of Tokyo Team (Faculty of Engineering, University of Tokyo)
MoNA Rating=3.75

>  <NUM PEAKS>  (3884) 
59

>  <MASS SPECTRAL PEAKS>  (3884) 
14 1.36
15 2.8
26 2.7
27 42.81
29 14.44
38 5.21
39 63.62
40 7.47
41 50.85
42 4.47
43 9.76
50 6.13
51 14.11
52 7.52
53 25
54 5.36
55 17.92
56 2.38
62 1.87
63 5.37
64 1.64
65 14.53
66 6.59
67 18.4
68 1.99
69 5.41
70 9.61
77 24.03
78 5.54
79 41.58
80 50.77
81 7.77
82 13.05
83 3.79
90 1.75
91 61.6
92 8.85
93 9.23
94 6.64
95 13.99
96 3.92
103 2.18
105 14.42
106 2.93
107 99.99
108 31.05
109 13.16
110 1.24
115 2.7
117 3.37
119 1.21
121 5.48
122 11.53
123 2.52
135 69.38
136 6.06
149 2.52
150 44.73
151 4.26

$$$$

     RDKit          2D

 11 11  0  0  0  0  0  0  0  0999 V2000
   -2.2386    2.7951    0.0000 C   0  0  0  0  0  0  0  0  0  0  0  0
   -3.5376    0.5451    0.0000 C   0  0  0  0  0  0  0  0  0  0  0  0
    2.9576   -1.7049    0.0000 C   0  0  0  0  0  0  0  0  0  0  0  0
    0.3590   -1.7058    0.0000 C   0  0  0  0  0  0  0  0  0  0  0  0
   -0.9400   -0.9558    0.0000 C   0  0  0  0  0  0  0  0  0  0  0  0
    0.3600    1.2959    0.0000 C   0  0  0  0  0  0  0  0  0  0  0  0
   -2.2386    1.2951    0.0000 C   0  0  0  0  0  0  0  0  0  0  0  0
    1.6585   -0.9549    0.0000 C   0  0  0  0  0  0  0  0  0  0  0  0
   -0.9395    0.5451    0.0000 C   0  0  0  0  0  0  0  0  0  0  0  0
    1.6590    0.5459    0.0000 C   0  0  0  0  0  0  0  0  0  0  0  0
    2.9582    1.2957    0.0000 O   0  0  0  0  0  0  0  0  0  0  0  0
  5  4  1  0
  7  1  2  0
  7  2  1  0
  8  3  1  0
  8  4  2  0
  9  5  1  0
  9  6  1  0
  9  7  1  0
 10  6  1  0
 10  8  1  0
 11 10  2  0
M  END
>  <NAME>  (3885) 
CARVONE

>  <SYNONYMS>  (3885) 
2-METHYL-5-(1-METHYLETHENYL)-2-CYCLOHEXENE-1-ONE

>  <SPECTRUM TYPE>  (3885) 
MS1

>  <INSTRUMENT TYPE>  (3885) 
EI-B

>  <INSTRUMENT>  (3885) 
HITACHI M-80B

>  <ION MODE>  (3885) 
P

>  <INCHIKEY>  (3885) 
ULDHMXUKGWMISQ-UHFFFAOYSA-N

>  <FORMULA>  (3885) 
C10H14O

>  <EXACT MASS>  (3885) 
150.104465068

>  <MW>  (3885) 
150

>  <ID>  (3885) 
JP006601

>  <CONTRIBUTOR>  (3885) 
University of Tokyo Team, {Faculty of Engineering, University of Tokyo

>  <COMMENT>  (3885) 
SMILES=CC(=C)C(C1)CC(=O)C(C)=C1
InChI=InChI=1S/C10H14O/c1-7(2)9-5-4-8(3)10(11)6-9/h4,9H,1,5-6H2,2-3H3
computed SMILES=O=C1C(=CCC(C(=C)C)C1)C
accession=JP006601
date=2016.01.19 (Created 2008.10.21, modified 2011.05.06)
author=HISAHIRO HAGIWARA, CHEMICAL RESEARCH INSTITUTE OF NON-AQUEOUSSOLUTIONS TOHOKU UNIV.
license=CC BY-NC-SA
exact mass=150.10447
ionization energy=70 eV
ion type=[M]+*
computed spectral entropy=3.035662352290631
computed normalized entropy=0.8070993988393137
SPLASH=splash10-0f8c-9100000000-64d2436851c170c3898a
submitter=submitter = University of Tokyo Team (Faculty of Engineering, University of Tokyo)
MoNA Rating=3.75

>  <NUM PEAKS>  (3885) 
43

>  <MASS SPECTRAL PEAKS>  (3885) 
26 1.11
27 15.78
29 2.92
38 1.76
39 38.33
40 5.02
41 24.18
42 2.44
43 1.48
50 2.67
51 7.53
52 3.32
53 19.62
54 44.88
55 4.17
58 8.8
63 1.65
65 5.26
66 2.13
67 8.82
68 2.05
69 2.74
77 8.27
78 1.81
79 12.59
80 4.44
81 2.56
82 99.99
83 5
91 9.63
92 3.54
93 25.92
94 4.89
95 2.46
105 1.72
106 10.72
107 15.63
108 26.86
109 2.75
121 1.13
122 1.23
135 2.16
150 6.41

$$$$

     RDKit          2D

  8  8  0  0  0  0  0  0  0  0999 V2000
    0.6513   -2.2440    0.0000 C   0  0  0  0  0  0  0  0  0  0  0  0
    1.9458   -1.5018    0.0000 C   0  0  0  0  0  0  0  0  0  0  0  0
   -0.6478   -1.4940    0.0000 C   0  0  0  0  0  0  0  0  0  0  0  0
    1.9463   -0.0009    0.0000 C   0  0  0  0  0  0  0  0  0  0  0  0
   -0.6523   -0.0018    0.0000 C   0  0  0  0  0  0  0  0  0  0  0  0
    0.6472    0.7491    0.0000 C   0  0  0  0  0  0  0  0  0  0  0  0
   -1.9526    0.7460    0.0000 O   0  0  0  0  0  0  0  0  0  0  0  0
    0.6470    2.2491    0.0000 O   0  0  0  0  0  0  0  0  0  0  0  0
  2  1  1  0
  3  1  1  0
  4  2  1  0
  5  3  1  0
  6  4  1  0
  6  5  1  0
  7  5  2  0
  8  6  2  0
M  END
>  <NAME>  (3886) 
1,2-CYCLOHEXANEDIONE

>  <SYNONYMS>  (3886) 


>  <SPECTRUM TYPE>  (3886) 
MS1

>  <INSTRUMENT TYPE>  (3886) 
EI-B

>  <INSTRUMENT>  (3886) 
HITACHI M-80B

>  <ION MODE>  (3886) 
P

>  <INCHIKEY>  (3886) 
OILAIQUEIWYQPH-UHFFFAOYSA-N

>  <FORMULA>  (3886) 
C6H8O2

>  <EXACT MASS>  (3886) 
112.052429496

>  <MW>  (3886) 
112

>  <ID>  (3886) 
JP006600

>  <CONTRIBUTOR>  (3886) 
University of Tokyo Team, {Faculty of Engineering, University of Tokyo

>  <COMMENT>  (3886) 
SMILES=O=C(C1)C(=O)CCC1
InChI=InChI=1S/C6H8O2/c7-5-3-1-2-4-6(5)8/h1-4H2
computed SMILES=O=C1C(=O)CCCC1
accession=JP006600
date=2016.01.19 (Created 2008.10.21, modified 2011.05.06)
author=HISAHIRO HAGIWARA, CHEMICAL RESEARCH INSTITUTE OF NON-AQUEOUSSOLUTIONS TOHOKU UNIV.
license=CC BY-NC-SA
exact mass=112.05243
ion type=[M]+*
ionization energy=70 eV
computed spectral entropy=3.022485073414532
computed normalized entropy=0.8139023611562501
SPLASH=splash10-0btc-9100000000-3d5ad1ace9b6e2c89289
submitter=submitter = University of Tokyo Team (Faculty of Engineering, University of Tokyo)
MoNA Rating=3.75

>  <NUM PEAKS>  (3886) 
41

>  <MASS SPECTRAL PEAKS>  (3886) 
14 1.36
15 5.77
25 1.33
26 13.99
27 61.51
28 19.68
29 20.7
30 1.34
31 4.07
32 1.25
37 3.92
38 8.15
39 43.24
40 4.16
41 31.51
42 28.37
43 45.16
44 3.39
49 2
50 6.92
51 6.98
52 3.28
53 11.2
54 3.71
55 99.62
56 71.37
57 11.81
65 3.32
66 4.69
67 2.33
69 14.59
70 38.5
71 21.57
81 1
82 1.31
83 62.23
84 19.92
97 2.22
111 1.45
112 99.99
113 5.99

$$$$

     RDKit          2D

 15 15  0  0  0  0  0  0  0  0999 V2000
   -5.1894    5.2615    0.0000 C   0  0  0  0  0  0  0  0  0  0  0  0
   -3.8867    6.0051    0.0000 C   0  0  0  0  0  0  0  0  0  0  0  0
   -2.5914    5.2487    0.0000 C   0  0  0  0  0  0  0  0  0  0  0  0
   -1.2886    5.9923    0.0000 C   0  0  0  0  0  0  0  0  0  0  0  0
    0.0067    5.2359    0.0000 C   0  0  0  0  0  0  0  0  0  0  0  0
    1.3094    5.9795    0.0000 C   0  0  0  0  0  0  0  0  0  0  0  0
    2.6047    5.2231    0.0000 C   0  0  0  0  0  0  0  0  0  0  0  0
    3.9074    5.9667    0.0000 C   0  0  0  0  0  0  0  0  0  0  0  0
    6.5018    5.9604    0.0000 C   0  0  0  0  0  0  0  0  0  0  0  0
    5.1883    3.7355    0.0000 C   0  0  0  0  0  0  0  0  0  0  0  0
    7.7863    5.2355    0.0000 C   0  0  0  0  0  0  0  0  0  0  0  0
    6.5128    2.9414    0.0000 C   0  0  0  0  0  0  0  0  0  0  0  0
    5.2028    5.2104    0.0000 C   0  0  0  0  0  0  0  0  0  0  0  0
    7.8118    3.6914    0.0000 C   0  0  0  0  0  0  0  0  0  0  0  0
    9.1170    2.9521    0.0000 O   0  0  0  0  0  0  0  0  0  0  0  0
  2  1  1  0
  3  2  1  0
  4  3  1  0
  5  4  1  0
  6  5  1  0
  7  6  1  0
  8  7  1  0
 11  9  1  0
 12 10  1  0
 13  8  1  0
 13  9  1  0
 13 10  1  0
 14 11  1  0
 14 12  1  0
 15 14  2  0
M  END
>  <NAME>  (3887) 
4-OCTYLCYCLOHEXANONE

>  <SYNONYMS>  (3887) 


>  <SPECTRUM TYPE>  (3887) 
MS1

>  <INSTRUMENT TYPE>  (3887) 
EI-B

>  <INSTRUMENT>  (3887) 
HITACHI M-80B

>  <ION MODE>  (3887) 
P

>  <INCHIKEY>  (3887) 
PKOWPSHVZJGPOJ-UHFFFAOYSA-N

>  <FORMULA>  (3887) 
C14H26O

>  <EXACT MASS>  (3887) 
210.198365452

>  <MW>  (3887) 
210

>  <ID>  (3887) 
JP006599

>  <CONTRIBUTOR>  (3887) 
University of Tokyo Team, {Faculty of Engineering, University of Tokyo

>  <COMMENT>  (3887) 
SMILES=CCCCCCCCC(C1)CCC(=O)C1
InChI=InChI=1S/C14H26O/c1-2-3-4-5-6-7-8-13-9-11-14(15)12-10-13/h13H,2-12H2,1H3
computed SMILES=O=C1CCC(CC1)CCCCCCCC
accession=JP006599
date=2016.01.19 (Created 2008.10.21, modified 2011.05.06)
author=HISAHIRO HAGIWARA, CHEMICAL RESEARCH INSTITUTE OF NON-AQUEOUSSOLUTIONS TOHOKU UNIV.
license=CC BY-NC-SA
exact mass=210.19837
ionization energy=70 eV
ion type=[M]+*
computed spectral entropy=2.716166312390309
computed normalized entropy=0.7837199338230324
SPLASH=splash10-0a4i-9000000000-ba901a9d17183664f712
submitter=submitter = University of Tokyo Team (Faculty of Engineering, University of Tokyo)
MoNA Rating=3.75

>  <NUM PEAKS>  (3887) 
32

>  <MASS SPECTRAL PEAKS>  (3887) 
27 6
28 6.25
29 12.04
39 7.82
41 37.71
42 3.18
43 12.7
53 4.03
54 1.93
55 23
56 5.39
57 99.99
58 3.89
67 4.38
68 2.37
69 11.53
70 4.12
71 1.85
79 2.24
81 3.02
83 17.89
84 1.81
93 1.92
95 2.5
97 8.33
98 39.21
99 3.92
112 2.58
113 7.28
121 2.48
139 9.23
140 1.09

$$$$

     RDKit          2D

 13 13  0  0  0  0  0  0  0  0999 V2000
   -9.6625    1.7885    0.0000 C   0  0  0  0  0  0  0  0  0  0  0  0
   -8.3653    2.5417    0.0000 C   0  0  0  0  0  0  0  0  0  0  0  0
   -7.0644    1.7949    0.0000 C   0  0  0  0  0  0  0  0  0  0  0  0
   -5.7672    2.5482    0.0000 C   0  0  0  0  0  0  0  0  0  0  0  0
   -4.4663    1.8014    0.0000 C   0  0  0  0  0  0  0  0  0  0  0  0
   -3.1692    2.5546    0.0000 C   0  0  0  0  0  0  0  0  0  0  0  0
    1.0482    4.3595    0.0000 C   0  0  0  0  0  0  0  0  0  0  0  0
   -1.8683    1.8079    0.0000 C   0  0  0  0  0  0  0  0  0  0  0  0
   -0.4229    4.0558    0.0000 C   0  0  0  0  0  0  0  0  0  0  0  0
    1.7957    3.0675    0.0000 C   0  0  0  0  0  0  0  0  0  0  0  0
   -0.5711    2.5611    0.0000 C   0  0  0  0  0  0  0  0  0  0  0  0
    0.7920    1.9528    0.0000 C   0  0  0  0  0  0  0  0  0  0  0  0
    1.1032    0.4854    0.0000 O   0  0  0  0  0  0  0  0  0  0  0  0
  2  1  1  0
  3  2  1  0
  4  3  1  0
  5  4  1  0
  6  5  1  0
  8  6  1  0
  9  7  1  0
 10  7  1  0
 11  8  1  0
 11  9  1  0
 12 10  1  0
 12 11  1  0
 13 12  2  0
M  END
>  <NAME>  (3888) 
2-HEPTYLCYCLOPENTANONE

>  <SYNONYMS>  (3888) 


>  <SPECTRUM TYPE>  (3888) 
MS1

>  <INSTRUMENT TYPE>  (3888) 
EI-B

>  <INSTRUMENT>  (3888) 
HITACHI M-80B

>  <ION MODE>  (3888) 
P

>  <INCHIKEY>  (3888) 
PJXHBTZLHITWFX-UHFFFAOYSA-N

>  <FORMULA>  (3888) 
C12H22O

>  <EXACT MASS>  (3888) 
182.167065324

>  <MW>  (3888) 
182

>  <ID>  (3888) 
JP006598

>  <CONTRIBUTOR>  (3888) 
University of Tokyo Team, {Faculty of Engineering, University of Tokyo

>  <COMMENT>  (3888) 
SMILES=CCCCCCCC(C1)C(=O)CC1
InChI=InChI=1S/C12H22O/c1-2-3-4-5-6-8-11-9-7-10-12(11)13/h11H,2-10H2,1H3
computed SMILES=O=C1CCCC1CCCCCCC
accession=JP006598
date=2016.01.19 (Created 2008.10.21, modified 2011.05.06)
author=HISAHIRO HAGIWARA, CHEMICAL RESEARCH INSTITUTE OF NON-AQUEOUSSOLUTIONS TOHOKU UNIV.
license=CC BY-NC-SA
exact mass=182.16707
ionization energy=70 eV
ion type=[M]+*
computed spectral entropy=2.3914821585698722
computed normalized entropy=0.7429557052477455
SPLASH=splash10-001i-9000000000-05fa1062ee02edb4ff51
submitter=submitter = University of Tokyo Team (Faculty of Engineering, University of Tokyo)
MoNA Rating=3.75

>  <NUM PEAKS>  (3888) 
25

>  <MASS SPECTRAL PEAKS>  (3888) 
27 11.22
28 2.16
29 13.79
39 8.79
41 28.11
42 4.67
43 12.01
53 2.72
54 3.62
55 17.95
56 5.79
57 2.4
67 3.43
68 1.36
69 4.73
70 2.17
79 1.07
81 1
82 1.04
83 12.39
84 99.99
85 4.43
97 14.78
98 1.66
182 3.24

$$$$

     RDKit          2D

 13 13  0  0  0  0  0  0  0  0999 V2000
   -3.1900    1.5500    0.0000 C   0  0  0  0  0  0  0  0  0  0  0  0
   -2.4400    0.2500    0.0000 C   0  0  0  0  0  0  0  0  0  0  0  0
   -2.4400    2.8500    0.0000 C   0  0  0  0  0  0  0  0  0  0  0  0
   -0.9400    0.2500    0.0000 C   0  0  0  0  0  0  0  0  0  0  0  0
   -0.9400    2.8500    0.0000 C   0  0  0  0  0  0  0  0  0  0  0  0
   -0.1900   -1.0500    0.0000 C   0  0  0  0  0  0  0  0  0  0  0  0
   -0.1900    4.1500    0.0000 C   0  0  0  0  0  0  0  0  0  0  0  0
    1.3100   -1.0500    0.0000 C   0  0  0  0  0  0  0  0  0  0  0  0
    1.3100    4.1500    0.0000 C   0  0  0  0  0  0  0  0  0  0  0  0
    2.0600    0.2500    0.0000 C   0  0  0  0  0  0  0  0  0  0  0  0
    2.0600    2.8500    0.0000 C   0  0  0  0  0  0  0  0  0  0  0  0
    1.3100    1.5500    0.0000 C   0  0  0  0  0  0  0  0  0  0  0  0
   -0.1900    1.5500    0.0000 O   0  0  0  0  0  0  0  0  0  0  0  0
  2  1  1  0
  3  1  1  0
  4  2  1  0
  5  3  1  0
  6  4  1  0
  7  5  1  0
  8  6  1  0
  9  7  1  0
 10  8  1  0
 11  9  1  0
 12 10  1  0
 12 11  1  0
 13 12  2  0
M  END
>  <NAME>  (3889) 
CYCLODODECANONE

>  <SYNONYMS>  (3889) 


>  <SPECTRUM TYPE>  (3889) 
MS1

>  <INSTRUMENT TYPE>  (3889) 
EI-B

>  <INSTRUMENT>  (3889) 
HITACHI M-80B

>  <ION MODE>  (3889) 
P

>  <INCHIKEY>  (3889) 
SXVPOSFURRDKBO-UHFFFAOYSA-N

>  <FORMULA>  (3889) 
C12H22O

>  <EXACT MASS>  (3889) 
182.167065324

>  <MW>  (3889) 
182

>  <ID>  (3889) 
JP006597

>  <CONTRIBUTOR>  (3889) 
University of Tokyo Team, {Faculty of Engineering, University of Tokyo

>  <COMMENT>  (3889) 
SMILES=O=C(C1)CCCCCCCCCC1
InChI=InChI=1S/C12H22O/c13-12-10-8-6-4-2-1-3-5-7-9-11-12/h1-11H2
computed SMILES=O=C1CCCCCCCCCCC1
accession=JP006597
date=2016.01.19 (Created 2008.10.21, modified 2011.05.06)
author=HISAHIRO HAGIWARA, CHEMICAL RESEARCH INSTITUTE OF NON-AQUEOUSSOLUTIONS TOHOKU UNIV.
license=CC BY-NC-SA
exact mass=182.16707
ionization energy=70 eV
ion type=[M]+*
computed spectral entropy=3.552256153960943
computed normalized entropy=0.8418650710374007
SPLASH=splash10-052f-9100000000-ee6ff0fc7fa019b3a4b8
submitter=submitter = University of Tokyo Team (Faculty of Engineering, University of Tokyo)
MoNA Rating=3.75

>  <NUM PEAKS>  (3889) 
68

>  <MASS SPECTRAL PEAKS>  (3889) 
15 1.61
26 1.46
27 31.53
28 11.39
29 34.02
31 1.11
32 1.47
39 31.45
40 5.13
41 99.99
42 34.52
43 34.57
44 1.39
51 1.28
53 8.7
54 10.56
55 78.32
56 23.62
57 9.94
58 51.24
59 13.02
65 1.37
66 1.69
67 12.93
68 10.57
69 27.84
70 16.2
71 49.9
72 3.39
77 1.35
78 1.25
79 5.99
80 4.83
81 11.31
82 20.96
83 21.95
84 17.93
85 4.85
86 1.42
93 4.15
94 2.97
95 5.78
96 8.99
97 16.86
98 32.24
99 3.9
100 2.28
107 2.62
108 3.09
109 2.06
110 1.14
111 22.39
112 5.81
113 1.38
114 1.97
121 3.06
122 5.63
123 1.37
124 6.9
125 11.02
126 2.9
127 1.48
135 3.43
139 6.07
140 1.12
149 1.38
182 13.01
183 1.89

$$$$

     RDKit          2D

 13 14  0  0  0  0  0  0  0  0999 V2000
   -3.5728   -0.6166    0.0000 C   0  0  0  0  0  0  0  0  0  0  0  0
   -2.2733   -1.3674    0.0000 C   0  0  0  0  0  0  0  0  0  0  0  0
   -3.5733    0.8843    0.0000 C   0  0  0  0  0  0  0  0  0  0  0  0
    2.9243    1.6330    0.0000 C   0  0  0  0  0  0  0  0  0  0  0  0
    2.9246    3.1330    0.0000 C   0  0  0  0  0  0  0  0  0  0  0  0
   -0.9742   -0.6174    0.0000 C   0  0  0  0  0  0  0  0  0  0  0  0
   -2.2742    1.6343    0.0000 C   0  0  0  0  0  0  0  0  0  0  0  0
    1.6242    0.8832    0.0000 C   0  0  0  0  0  0  0  0  0  0  0  0
    1.6247    3.8832    0.0000 C   0  0  0  0  0  0  0  0  0  0  0  0
   -0.9747    0.8834    0.0000 C   0  0  0  0  0  0  0  0  0  0  0  0
    0.3243    1.6334    0.0000 C   0  0  0  0  0  0  0  0  0  0  0  0
    0.3246    3.1334    0.0000 C   0  0  0  0  0  0  0  0  0  0  0  0
   -0.9742    3.8839    0.0000 O   0  0  0  0  0  0  0  0  0  0  0  0
  2  1  1  0
  3  1  1  0
  5  4  1  0
  6  2  1  0
  7  3  1  0
  8  4  1  0
  9  5  1  0
 10  6  1  0
 10  7  1  0
 11  8  1  0
 11 10  1  0
 12  9  1  0
 12 11  1  0
 13 12  2  0
M  END
>  <NAME>  (3890) 
2-CYCLOHEXYLCYCLOHEXANONE

>  <SYNONYMS>  (3890) 


>  <SPECTRUM TYPE>  (3890) 
MS1

>  <INSTRUMENT TYPE>  (3890) 
EI-B

>  <INSTRUMENT>  (3890) 
HITACHI M-80B

>  <ION MODE>  (3890) 
P

>  <INCHIKEY>  (3890) 
UOBQDYFTAJKQAL-UHFFFAOYSA-N

>  <FORMULA>  (3890) 
C12H20O

>  <EXACT MASS>  (3890) 
180.15141526

>  <MW>  (3890) 
180

>  <ID>  (3890) 
JP006596

>  <CONTRIBUTOR>  (3890) 
University of Tokyo Team, {Faculty of Engineering, University of Tokyo

>  <COMMENT>  (3890) 
SMILES=O=C(C2)C(CCC2)C(C1)CCCC1
InChI=InChI=1S/C12H20O/c13-12-9-5-4-8-11(12)10-6-2-1-3-7-10/h10-11H,1-9H2
computed SMILES=O=C1CCCCC1C2CCCCC2
accession=JP006596
date=2016.01.19 (Created 2008.10.21, modified 2011.05.06)
author=HISAHIRO HAGIWARA, CHEMICAL RESEARCH INSTITUTE OF NON-AQUEOUSSOLUTIONS TOHOKU UNIV.
license=CC BY-NC-SA
exact mass=180.15142
ionization energy=70 eV
ion type=[M]+*
computed spectral entropy=2.499696919833024
computed normalized entropy=0.7423455039419762
SPLASH=splash10-0002-9000000000-caf6732bbdc0d266d824
submitter=submitter = University of Tokyo Team (Faculty of Engineering, University of Tokyo)
MoNA Rating=3.75

>  <NUM PEAKS>  (3890) 
29

>  <MASS SPECTRAL PEAKS>  (3890) 
27 7.45
29 6.11
39 9.76
41 24
42 3.67
43 2.21
53 4.62
54 4.41
55 15.24
56 1.24
65 1.48
67 12.9
68 2.55
69 2.14
70 13.59
77 1.71
79 3.62
80 2.48
81 8.45
82 1.27
83 11.55
91 1.19
95 2.3
97 5.58
98 99.99
99 9.01
109 1.33
123 1.59
137 1.43

$$$$

     RDKit          2D

 11 12  0  0  0  0  0  0  0  0999 V2000
   -1.3728    3.7478    0.0000 C   0  0  0  0  0  0  0  0  0  0  0  0
    1.2253    3.7522    0.0000 C   0  0  0  0  0  0  0  0  0  0  0  0
   -0.0725   -3.0000    0.0000 C   0  0  0  0  0  0  0  0  0  0  0  0
    1.2300   -0.7500    0.0000 C   0  0  0  0  0  0  0  0  0  0  0  0
   -1.3600   -0.7500    0.0000 C   0  0  0  0  0  0  0  0  0  0  0  0
    1.2300    0.7500    0.0000 C   0  0  0  0  0  0  0  0  0  0  0  0
   -1.3600    0.7500    0.0000 C   0  0  0  0  0  0  0  0  0  0  0  0
   -0.0725    3.0000    0.0000 C   0  0  0  0  0  0  0  0  0  0  0  0
   -0.0700   -1.5000    0.0000 C   0  0  0  0  0  0  0  0  0  0  0  0
   -0.0700    1.5000    0.0000 C   0  0  0  0  0  0  0  0  0  0  0  0
    0.3900   -0.0000    0.0000 O   0  0  0  0  0  0  0  0  0  0  0  0
  6  4  1  0
  7  5  1  0
  8  1  1  0
  8  2  1  0
  9  3  1  0
  9  4  1  0
  9  5  1  0
 10  6  1  0
 10  7  1  0
 10  8  1  0
 11  9  1  0
 11 10  1  0
M  END
>  <NAME>  (3891) 
1,4-CINEOLE

>  <SYNONYMS>  (3891) 
1-METHYL-4-ISOPROPYL-8-OXABICYCLO(2.2.1)HEPTANE

>  <SPECTRUM TYPE>  (3891) 
MS1

>  <INSTRUMENT TYPE>  (3891) 
EI-B

>  <INSTRUMENT>  (3891) 
HITACHI M-80B

>  <ION MODE>  (3891) 
P

>  <INCHIKEY>  (3891) 
RFFOTVCVTJUTAD-UHFFFAOYSA-N

>  <FORMULA>  (3891) 
C10H18O

>  <EXACT MASS>  (3891) 
154.135765196

>  <MW>  (3891) 
154

>  <ID>  (3891) 
JP006594

>  <CONTRIBUTOR>  (3891) 
University of Tokyo Team, {Faculty of Engineering, University of Tokyo

>  <COMMENT>  (3891) 
SMILES=CC(C)C(C2)(C1)OC(C)(C2)C1
InChI=InChI=1S/C10H18O/c1-8(2)10-6-4-9(3,11-10)5-7-10/h8H,4-7H2,1-3H3
computed SMILES=O1C2(C)CCC1(CC2)C(C)C
accession=JP006594
date=2016.01.19 (Created 2008.10.21, modified 2011.05.06)
author=HISAHIRO HAGIWARA, CHEMICAL RESEARCH INSTITUTE OF NON-AQUEOUSSOLUTIONS TOHOKU UNIV.
license=CC BY-NC-SA
exact mass=154.13577
ionization energy=70 eV
ion type=[M]+*
computed spectral entropy=3.23596911818194
computed normalized entropy=0.8075118710135946
SPLASH=splash10-01ox-9300000000-b9a5b5d2f98cced31647
submitter=submitter = University of Tokyo Team (Faculty of Engineering, University of Tokyo)
MoNA Rating=3.75

>  <NUM PEAKS>  (3891) 
55

>  <MASS SPECTRAL PEAKS>  (3891) 
15 2.9
26 1.07
27 22.47
28 1.75
29 10.69
39 18.96
40 3.03
41 43.95
42 4.12
43 99.99
44 2.61
45 1.17
51 2.06
52 1.24
53 10.64
54 3.67
55 40.64
56 3.21
57 2.23
58 11.39
59 1.16
65 2.13
66 1.04
67 11.49
68 9.8
69 35.23
70 3.53
71 59.77
72 3.13
77 2.18
79 2.85
81 17.3
82 2.87
83 15.87
84 5.86
85 1.22
86 8.63
91 1.29
93 6.98
95 3.12
96 8.8
97 5.45
98 1.06
107 3.5
108 1.95
109 1.27
110 3.98
111 73.55
112 6.38
121 5.47
125 28.67
126 5.61
139 9.29
154 26.08
155 2.52

$$$$

     RDKit          2D

 11 13  0  0  0  0  0  0  0  0999 V2000
   -2.7714   -1.7494    0.0000 C   0  0  0  0  0  0  0  0  0  0  0  0
   -0.0070   -0.7841    0.0000 C   0  0  0  0  0  0  0  0  0  0  0  0
   -0.1524    3.1592    0.0000 C   0  0  0  0  0  0  0  0  0  0  0  0
   -3.5097    1.9003    0.0000 C   0  0  0  0  0  0  0  0  0  0  0  0
   -2.2397   -0.3697    0.0000 C   0  0  0  0  0  0  0  0  0  0  0  0
   -3.5297    0.4003    0.0000 C   0  0  0  0  0  0  0  0  0  0  0  0
   -2.1997    2.6303    0.0000 C   0  0  0  0  0  0  0  0  0  0  0  0
   -0.9397    0.3703    0.0000 C   0  0  0  0  0  0  0  0  0  0  0  0
   -2.2297    1.1403    0.0000 C   0  0  0  0  0  0  0  0  0  0  0  0
   -0.9197    1.8703    0.0000 C   0  0  0  0  0  0  0  0  0  0  0  0
    0.3703    1.1003    0.0000 O   0  0  0  0  0  0  0  0  0  0  0  0
  6  4  1  0
  6  5  1  0
  7  4  1  0
  8  5  1  0
  9  1  1  0
  9  2  1  0
  9  6  1  0
  9  7  1  0
 10  3  1  0
 10  7  1  0
 10  8  1  0
 11  8  1  0
 11 10  1  0
M  END
>  <NAME>  (3892) 
ALPHA-PINENE OXIDE

>  <SYNONYMS>  (3892) 


>  <SPECTRUM TYPE>  (3892) 
MS1

>  <INSTRUMENT TYPE>  (3892) 
EI-B

>  <INSTRUMENT>  (3892) 
HITACHI M-80B

>  <ION MODE>  (3892) 
P

>  <INCHIKEY>  (3892) 
NQFUSWIGRKFAHK-UHFFFAOYSA-N

>  <FORMULA>  (3892) 
C10H16O

>  <EXACT MASS>  (3892) 
152.120115132

>  <MW>  (3892) 
152

>  <ID>  (3892) 
JP006593

>  <CONTRIBUTOR>  (3892) 
University of Tokyo Team, {Faculty of Engineering, University of Tokyo

>  <COMMENT>  (3892) 
SMILES=CC(C)(C23)C(C3)C(C)(O1)C(C2)1
InChI=InChI=1S/C10H16O/c1-9(2)6-4-7(9)10(3)8(5-6)11-10/h6-8H,4-5H2,1-3H3
computed SMILES=O1C2CC3CC(C12C)C3(C)C
accession=JP006593
date=2016.01.19 (Created 2008.10.21, modified 2011.05.06)
author=HISAHIRO HAGIWARA, CHEMICAL RESEARCH INSTITUTE OF NON-AQUEOUSSOLUTIONS TOHOKU UNIV.
license=CC BY-NC-SA
exact mass=152.12012
ionization energy=70 eV
ion type=[M]+*
computed spectral entropy=3.343756529966072
computed normalized entropy=0.8382476567801921
SPLASH=splash10-05no-9100000000-b3f5d40881aacbcfaa8f
submitter=submitter = University of Tokyo Team (Faculty of Engineering, University of Tokyo)
MoNA Rating=3.75

>  <NUM PEAKS>  (3892) 
54

>  <MASS SPECTRAL PEAKS>  (3892) 
15 3.65
26 1.25
27 28.07
29 12.38
38 1.55
39 42.31
40 5.74
41 64.97
42 5.65
43 55.69
44 1.99
45 1.75
50 1.62
51 6.88
52 2.59
53 21.53
54 11.98
55 31.42
56 2.98
57 1.32
63 1.5
65 7.76
66 2.55
67 99.99
68 7.03
69 25.81
70 2.44
71 1.75
77 11.26
78 1.82
79 14.25
80 2.07
81 24.72
82 31.51
83 42.65
84 7.35
91 10.42
92 1.62
93 17.77
94 10.82
95 21.24
96 8.07
97 2.52
98 1.86
105 1.26
107 3.84
108 10.19
109 50.11
110 7.1
111 3.61
119 6.14
123 2.06
137 28.24
138 2.07

$$$$

     RDKit          2D

 11 12  0  0  1  0  0  0  0  0999 V2000
    1.1590   -4.0000    0.0000 C   0  0  0  0  0  0  0  0  0  0  0  0
   -1.4390   -4.0000    0.0000 C   0  0  0  0  0  0  0  0  0  0  0  0
   -0.8896    2.5493    0.0000 C   0  0  0  0  0  0  0  0  0  0  0  0
   -1.4400   -1.0000    0.0000 C   0  0  0  0  0  0  0  0  0  0  0  0
   -1.4400    0.5000    0.0000 C   0  0  0  0  0  0  0  0  0  0  0  0
    1.1600   -1.0000    0.0000 C   0  0  0  0  0  0  0  0  0  0  0  0
   -0.1400   -3.2500    0.0000 C   0  0  0  0  0  0  0  0  0  0  0  0
   -0.1400   -1.7500    0.0000 C   0  0  0  0  0  0  0  0  0  0  0  0
    1.1600    0.5000    0.0000 C   0  0  0  0  0  0  0  0  0  0  0  0
   -0.1400    1.2500    0.0000 C   0  0  0  0  0  0  0  0  0  0  0  0
    1.1600    2.0000    0.0000 O   0  0  0  0  0  0  0  0  0  0  0  0
  5  4  1  0
  7  1  2  0
  7  2  1  0
  8  4  1  0
  8  6  1  0
  8  7  1  0
  9  6  1  1
 10  3  1  1
 10  5  1  0
 10  9  1  0
  9 11  1  0
 11 10  1  0
M  END
>  <NAME>  (3893) 
TRANS-LIMONENE-1,2-OXIDE

>  <SYNONYMS>  (3893) 


>  <SPECTRUM TYPE>  (3893) 
MS1

>  <INSTRUMENT TYPE>  (3893) 
EI-B

>  <INSTRUMENT>  (3893) 
HITACHI M-80B

>  <ION MODE>  (3893) 
P

>  <INCHIKEY>  (3893) 
CCEFMUBVSUDRLG-AGROOBSYSA-N

>  <FORMULA>  (3893) 
C10H16O

>  <EXACT MASS>  (3893) 
152.120115132

>  <MW>  (3893) 
152

>  <ID>  (3893) 
JP006592

>  <CONTRIBUTOR>  (3893) 
University of Tokyo Team, {Faculty of Engineering, University of Tokyo

>  <COMMENT>  (3893) 
SMILES=CC(=C)C(C2)CC([H])(O1)C(C)(C2)1
InChI=InChI=1S/C10H16O/c1-7(2)8-4-5-10(3)9(6-8)11-10/h8-9H,1,4-6H2,2-3H3/t8?,9-,10-/m0/s1
computed SMILES=O1C2CC(C(=C)C)CCC12C
accession=JP006592
date=2016.01.19 (Created 2008.10.21, modified 2011.05.06)
author=HISAHIRO HAGIWARA, CHEMICAL RESEARCH INSTITUTE OF NON-AQUEOUSSOLUTIONS TOHOKU UNIV.
license=CC BY-NC-SA
exact mass=152.12012
ionization energy=70 eV
ion type=[M]+*
computed spectral entropy=3.4452298560956014
computed normalized entropy=0.8414606547490452
SPLASH=splash10-0006-9100000000-d2c2c757fab643e28b4c
submitter=submitter = University of Tokyo Team (Faculty of Engineering, University of Tokyo)
MoNA Rating=3.75

>  <NUM PEAKS>  (3893) 
60

>  <MASS SPECTRAL PEAKS>  (3893) 
15 2.95
26 1.04
27 22.89
29 10.48
38 1.3
39 32.19
40 5.08
41 44.69
42 3.65
43 99.99
44 15.41
45 2.6
50 1.28
51 3.94
52 2.02
53 16.78
54 4.73
55 19.82
56 2.98
57 1.68
58 1.71
63 1.23
65 3.58
66 2.25
67 51.53
68 9.39
69 7.07
70 1.32
71 24.23
72 1.07
77 6.3
78 1.5
79 23.57
80 3.1
81 23.03
82 22.55
83 6.17
84 7.61
91 6.75
92 2.24
93 27.12
94 8.92
95 12.75
96 2.48
97 2.6
105 2.73
106 1.22
107 4.08
108 18.87
109 28.12
110 6.07
111 2.03
119 6.82
121 3.63
123 8.51
124 3.29
134 2.71
137 21.21
138 1.7
152 3.16

$$$$

     RDKit          2D

  8  8  0  0  0  0  0  0  0  0999 V2000
   -4.9220    3.0052    0.0000 C   0  0  0  0  0  0  0  0  0  0  0  0
   -3.6230    2.2552    0.0000 C   0  0  0  0  0  0  0  0  0  0  0  0
   -2.3240    3.0052    0.0000 C   0  0  0  0  0  0  0  0  0  0  0  0
    0.2741    3.0052    0.0000 C   0  0  0  0  0  0  0  0  0  0  0  0
    3.0740    2.2548    0.0000 C   0  0  0  0  0  0  0  0  0  0  0  0
    1.5731    2.2552    0.0000 C   0  0  0  0  0  0  0  0  0  0  0  0
   -1.0249    2.2552    0.0000 O   0  0  0  0  0  0  0  0  0  0  0  0
    2.3240    0.9557    0.0000 O   0  0  0  0  0  0  0  0  0  0  0  0
  2  1  2  0
  3  2  1  0
  6  4  1  0
  6  5  1  0
  7  3  1  0
  7  4  1  0
  8  5  1  0
  8  6  1  0
M  END
>  <NAME>  (3894) 
ALLYL GLYCIDYL ETHER

>  <SYNONYMS>  (3894) 
2,3-EPOXYPROPYL ALLYL ETHER

>  <SPECTRUM TYPE>  (3894) 
MS1

>  <INSTRUMENT TYPE>  (3894) 
EI-B

>  <INSTRUMENT>  (3894) 
HITACHI M-80B

>  <ION MODE>  (3894) 
P

>  <INCHIKEY>  (3894) 
LSWYGACWGAICNM-UHFFFAOYSA-N

>  <FORMULA>  (3894) 
C6H10O2

>  <EXACT MASS>  (3894) 
114.06807956

>  <MW>  (3894) 
114

>  <ID>  (3894) 
JP006590

>  <CONTRIBUTOR>  (3894) 
University of Tokyo Team, {Faculty of Engineering, University of Tokyo

>  <COMMENT>  (3894) 
SMILES=C=CCOCC(C1)O1
InChI=InChI=1S/C6H10O2/c1-2-3-7-4-6-5-8-6/h2,6H,1,3-5H2
computed SMILES=O(CC=C)CC1OC1
accession=JP006590
date=2016.01.19 (Created 2008.10.21, modified 2011.05.06)
author=HISAHIRO HAGIWARA, CHEMICAL RESEARCH INSTITUTE OF NON-AQUEOUSSOLUTIONS TOHOKU UNIV.
license=CC BY-NC-SA
exact mass=114.06808
ionization energy=70 eV
ion type=[M]+*
computed spectral entropy=2.4740704623063325
computed normalized entropy=0.7686132043964868
SPLASH=splash10-054o-9000000000-5152038e81216109649c
submitter=submitter = University of Tokyo Team (Faculty of Engineering, University of Tokyo)
MoNA Rating=3.75

>  <NUM PEAKS>  (3894) 
25

>  <MASS SPECTRAL PEAKS>  (3894) 
14 2.09
15 11.33
26 6.37
27 33.58
28 4.07
29 54.09
30 4.31
31 37.1
38 3.23
39 36.9
40 4.93
41 99.99
42 6.76
43 13.73
44 1.61
45 4.88
55 8.03
56 2.62
57 82.57
58 24.78
59 1.14
69 1.01
71 4.58
83 2.86
84 2.41

$$$$

     RDKit          2D

 15 16  0  0  0  0  0  0  0  0999 V2000
    7.4362    0.6108    0.0000 C   0  0  0  0  0  0  0  0  0  0  0  0
    6.1368    2.8606    0.0000 C   0  0  0  0  0  0  0  0  0  0  0  0
   -2.9500   -0.8900    0.0000 C   0  0  0  0  0  0  0  0  0  0  0  0
   -2.9500    0.6100    0.0000 C   0  0  0  0  0  0  0  0  0  0  0  0
   -1.6500   -1.6400    0.0000 C   0  0  0  0  0  0  0  0  0  0  0  0
   -1.6500    1.3600    0.0000 C   0  0  0  0  0  0  0  0  0  0  0  0
    0.9400   -1.6400    0.0000 C   0  0  0  0  0  0  0  0  0  0  0  0
    2.2400   -0.8900    0.0000 C   0  0  0  0  0  0  0  0  0  0  0  0
    0.9400    1.3600    0.0000 C   0  0  0  0  0  0  0  0  0  0  0  0
    4.8381    0.6104    0.0000 C   0  0  0  0  0  0  0  0  0  0  0  0
    6.1370    1.3606    0.0000 C   0  0  0  0  0  0  0  0  0  0  0  0
   -0.3500   -0.8900    0.0000 C   0  0  0  0  0  0  0  0  0  0  0  0
   -0.3500    0.6100    0.0000 C   0  0  0  0  0  0  0  0  0  0  0  0
    2.2400    0.6100    0.0000 C   0  0  0  0  0  0  0  0  0  0  0  0
    3.5389    1.3602    0.0000 O   0  0  0  0  0  0  0  0  0  0  0  0
  4  3  2  0
  5  3  1  0
  6  4  1  0
  8  7  2  0
 11  1  1  0
 11  2  1  0
 11 10  1  0
 12  5  2  0
 12  7  1  0
 13  6  2  0
 13  9  1  0
 13 12  1  0
 14  8  1  0
 14  9  2  0
 15 10  1  0
 15 14  1  0
M  END
>  <NAME>  (3895) 
2-NAPHTHYL ISOBUTYL ETHER

>  <SYNONYMS>  (3895) 
2-NAPHTHYL 2-METHYLPROPYL ETHER

>  <SPECTRUM TYPE>  (3895) 
MS1

>  <INSTRUMENT TYPE>  (3895) 
EI-B

>  <INSTRUMENT>  (3895) 
HITACHI M-80B

>  <ION MODE>  (3895) 
P

>  <INCHIKEY>  (3895) 
XOHIHZHSDMWWMS-UHFFFAOYSA-N

>  <FORMULA>  (3895) 
C14H16O

>  <EXACT MASS>  (3895) 
200.120115132

>  <MW>  (3895) 
200

>  <ID>  (3895) 
JP006589

>  <CONTRIBUTOR>  (3895) 
University of Tokyo Team, {Faculty of Engineering, University of Tokyo

>  <COMMENT>  (3895) 
SMILES=CC(C)COc(c1)cc(c2)c(ccc2)c1
InChI=InChI=1S/C14H16O/c1-11(2)10-15-14-8-7-12-5-3-4-6-13(12)9-14/h3-9,11H,10H2,1-2H3
computed SMILES=O(C=1C=CC=2C=CC=CC2C1)CC(C)C
accession=JP006589
date=2016.01.19 (Created 2008.10.21, modified 2011.05.06)
author=HISAHIRO HAGIWARA, CHEMICAL RESEARCH INSTITUTE OF NON-AQUEOUSSOLUTIONS TOHOKU UNIV.
license=CC BY-NC-SA
exact mass=200.12012
ionization energy=70 eV
ion type=[M]+*
computed spectral entropy=1.9774614037101614
computed normalized entropy=0.6495144785954776
SPLASH=splash10-0006-1910000000-3a6831e046b99bc03c76
submitter=submitter = University of Tokyo Team (Faculty of Engineering, University of Tokyo)
MoNA Rating=3.75

>  <NUM PEAKS>  (3895) 
21

>  <MASS SPECTRAL PEAKS>  (3895) 
27 2.15
29 6.57
39 3.42
41 6.84
57 3.03
63 1.84
65 1.12
75 1.03
77 1.62
89 2.01
114 1.09
115 21.81
116 5.17
126 2.16
127 6.91
128 1.46
143 1.28
144 99.99
145 12.45
200 19.96
201 2.72

$$$$

     RDKit          2D

 15 16  0  0  0  0  0  0  0  0999 V2000
    3.2481    2.1950    0.0000 C   0  0  0  0  0  0  0  0  0  0  0  0
   -7.1442    2.1950    0.0000 C   0  0  0  0  0  0  0  0  0  0  0  0
    3.2486    3.6958    0.0000 C   0  0  0  0  0  0  0  0  0  0  0  0
    1.9486    1.4442    0.0000 C   0  0  0  0  0  0  0  0  0  0  0  0
   -5.8447    1.4442    0.0000 C   0  0  0  0  0  0  0  0  0  0  0  0
   -7.1447    3.6958    0.0000 C   0  0  0  0  0  0  0  0  0  0  0  0
    1.9495    4.4458    0.0000 C   0  0  0  0  0  0  0  0  0  0  0  0
    0.6495    2.1942    0.0000 C   0  0  0  0  0  0  0  0  0  0  0  0
   -4.5457    2.1942    0.0000 C   0  0  0  0  0  0  0  0  0  0  0  0
   -5.8457    4.4458    0.0000 C   0  0  0  0  0  0  0  0  0  0  0  0
   -0.6490    4.4450    0.0000 C   0  0  0  0  0  0  0  0  0  0  0  0
   -3.2471    4.4450    0.0000 C   0  0  0  0  0  0  0  0  0  0  0  0
    0.6500    3.6950    0.0000 C   0  0  0  0  0  0  0  0  0  0  0  0
   -4.5462    3.6950    0.0000 C   0  0  0  0  0  0  0  0  0  0  0  0
   -1.9481    3.6950    0.0000 O   0  0  0  0  0  0  0  0  0  0  0  0
  3  1  2  0
  4  1  1  0
  5  2  2  0
  6  2  1  0
  7  3  1  0
  8  4  2  0
  9  5  1  0
 10  6  2  0
 13  7  2  0
 13  8  1  0
 13 11  1  0
 14  9  2  0
 14 10  1  0
 14 12  1  0
 15 11  1  0
 15 12  1  0
M  END
>  <NAME>  (3896) 
DIBENZYL ETHER

>  <SYNONYMS>  (3896) 


>  <SPECTRUM TYPE>  (3896) 
MS1

>  <INSTRUMENT TYPE>  (3896) 
EI-B

>  <INSTRUMENT>  (3896) 
HITACHI M-80B

>  <ION MODE>  (3896) 
P

>  <INCHIKEY>  (3896) 
MHDVGSVTJDSBDK-UHFFFAOYSA-N

>  <FORMULA>  (3896) 
C14H14O

>  <EXACT MASS>  (3896) 
198.104465068

>  <MW>  (3896) 
198

>  <ID>  (3896) 
JP006588

>  <CONTRIBUTOR>  (3896) 
University of Tokyo Team, {Faculty of Engineering, University of Tokyo

>  <COMMENT>  (3896) 
SMILES=c(c2)ccc(c2)COCc(c1)cccc1
InChI=InChI=1S/C14H14O/c1-3-7-13(8-4-1)11-15-12-14-9-5-2-6-10-14/h1-10H,11-12H2
computed SMILES=O(CC=1C=CC=CC1)CC=2C=CC=CC2
computed spectral entropy=2.064351417114115
accession=JP006588
date=2016.01.19 (Created 2008.10.21, modified 2011.05.06)
author=HISAHIRO HAGIWARA, CHEMICAL RESEARCH INSTITUTE OF NON-AQUEOUSSOLUTIONS TOHOKU UNIV.
license=CC BY-NC-SA
exact mass=198.10447
ionization energy=70 eV
ion type=[M]+*
computed normalized entropy=0.6780542628083759
SPLASH=splash10-0006-9000000000-4b998879e7110e3fac50
submitter=submitter = University of Tokyo Team (Faculty of Engineering, University of Tokyo)
MoNA Rating=3.75

>  <NUM PEAKS>  (3896) 
21

>  <MASS SPECTRAL PEAKS>  (3896) 
27 1.28
39 7.95
41 1.84
50 2.35
51 9
52 2.27
63 3.35
64 1.1
65 17.37
66 1.03
77 16.02
78 2.57
79 18.08
80 1.09
89 2.83
90 1.95
91 78.53
92 99.99
93 6.68
105 2.72
107 13.53

$$$$

     RDKit          2D

 14 14  0  0  0  0  0  0  0  0999 V2000
   -7.7940    4.8196    0.0000 C   0  0  0  0  0  0  0  0  0  0  0  0
   -6.4949    2.5696    0.0000 C   0  0  0  0  0  0  0  0  0  0  0  0
    3.8974    2.5696    0.0000 C   0  0  0  0  0  0  0  0  0  0  0  0
    3.8978    4.0704    0.0000 C   0  0  0  0  0  0  0  0  0  0  0  0
    2.5978    1.8188    0.0000 C   0  0  0  0  0  0  0  0  0  0  0  0
    2.5988    4.8204    0.0000 C   0  0  0  0  0  0  0  0  0  0  0  0
    1.2988    2.5688    0.0000 C   0  0  0  0  0  0  0  0  0  0  0  0
   -5.1959    4.8196    0.0000 C   0  0  0  0  0  0  0  0  0  0  0  0
    0.0002    4.8196    0.0000 C   0  0  0  0  0  0  0  0  0  0  0  0
   -3.8969    4.0696    0.0000 C   0  0  0  0  0  0  0  0  0  0  0  0
   -1.2988    4.0696    0.0000 C   0  0  0  0  0  0  0  0  0  0  0  0
   -6.4949    4.0696    0.0000 C   0  0  0  0  0  0  0  0  0  0  0  0
    1.2993    4.0696    0.0000 C   0  0  0  0  0  0  0  0  0  0  0  0
   -2.5978    4.8196    0.0000 O   0  0  0  0  0  0  0  0  0  0  0  0
  4  3  2  0
  5  3  1  0
  6  4  1  0
  7  5  2  0
 10  8  1  0
 11  9  1  0
 12  1  1  0
 12  2  1  0
 12  8  1  0
 13  6  2  0
 13  7  1  0
 13  9  1  0
 14 10  1  0
 14 11  1  0
M  END
>  <NAME>  (3897) 
PHENYLETHYL ISOPENTYL ETHER

>  <SYNONYMS>  (3897) 
ISOPENTYL PHENETHYL ETHER

>  <SPECTRUM TYPE>  (3897) 
MS1

>  <INSTRUMENT TYPE>  (3897) 
EI-B

>  <INSTRUMENT>  (3897) 
HITACHI M-80B

>  <ION MODE>  (3897) 
P

>  <INCHIKEY>  (3897) 
BHQBQWOZHYUVTL-UHFFFAOYSA-N

>  <FORMULA>  (3897) 
C13H20O

>  <EXACT MASS>  (3897) 
192.15141526

>  <MW>  (3897) 
192

>  <ID>  (3897) 
JP006587

>  <CONTRIBUTOR>  (3897) 
University of Tokyo Team, {Faculty of Engineering, University of Tokyo

>  <COMMENT>  (3897) 
SMILES=CC(C)CCOCCc(c1)cccc1
InChI=InChI=1S/C13H20O/c1-12(2)8-10-14-11-9-13-6-4-3-5-7-13/h3-7,12H,8-11H2,1-2H3
computed SMILES=O(CCC=1C=CC=CC1)CCC(C)C
accession=JP006587
date=2016.01.19 (Created 2008.10.21, modified 2011.05.06)
author=HISAHIRO HAGIWARA, CHEMICAL RESEARCH INSTITUTE OF NON-AQUEOUSSOLUTIONS TOHOKU UNIV.
license=CC BY-NC-SA
exact mass=192.15142
ionization energy=70 eV
ion type=[M]+*
computed spectral entropy=2.9229912331575347
computed normalized entropy=0.8156762342706773
SPLASH=splash10-0006-9200000000-96a5ee8af514cf724658
submitter=submitter = University of Tokyo Team (Faculty of Engineering, University of Tokyo)
MoNA Rating=3.75

>  <NUM PEAKS>  (3897) 
36

>  <MASS SPECTRAL PEAKS>  (3897) 
27 10.13
28 10.29
29 8.5
31 1.28
39 8.53
41 14.78
42 3.02
43 99.99
44 3.24
45 7.87
50 1.27
51 5.4
52 1.47
53 1.85
55 8.14
63 1.77
65 7.51
69 47.67
70 7.98
71 68.54
72 3.46
77 12.86
78 8.18
79 9
89 1.49
91 28.12
92 9.83
101 18.7
102 1.86
103 6.89
104 6.06
105 36.25
106 24.73
107 1.75
122 4.85
192 6.08

$$$$

     RDKit          2D

 13 14  0  0  0  0  0  0  0  0999 V2000
    6.1370    1.3606    0.0000 C   0  0  0  0  0  0  0  0  0  0  0  0
    4.8381    0.6104    0.0000 C   0  0  0  0  0  0  0  0  0  0  0  0
   -2.9500   -0.8900    0.0000 C   0  0  0  0  0  0  0  0  0  0  0  0
   -2.9500    0.6100    0.0000 C   0  0  0  0  0  0  0  0  0  0  0  0
   -1.6500   -1.6400    0.0000 C   0  0  0  0  0  0  0  0  0  0  0  0
   -1.6500    1.3600    0.0000 C   0  0  0  0  0  0  0  0  0  0  0  0
    0.9400   -1.6400    0.0000 C   0  0  0  0  0  0  0  0  0  0  0  0
    2.2400   -0.8900    0.0000 C   0  0  0  0  0  0  0  0  0  0  0  0
    0.9400    1.3600    0.0000 C   0  0  0  0  0  0  0  0  0  0  0  0
   -0.3500   -0.8900    0.0000 C   0  0  0  0  0  0  0  0  0  0  0  0
   -0.3500    0.6100    0.0000 C   0  0  0  0  0  0  0  0  0  0  0  0
    2.2400    0.6100    0.0000 C   0  0  0  0  0  0  0  0  0  0  0  0
    3.5389    1.3602    0.0000 O   0  0  0  0  0  0  0  0  0  0  0  0
  2  1  1  0
  4  3  2  0
  5  3  1  0
  6  4  1  0
  8  7  2  0
 10  5  2  0
 10  7  1  0
 11  6  2  0
 11  9  1  0
 11 10  1  0
 12  8  1  0
 12  9  2  0
 13  2  1  0
 13 12  1  0
M  END
>  <NAME>  (3898) 
2-NAPHTHYL ETHYL ETHER

>  <SYNONYMS>  (3898) 
2-ETHOXYNAPHTHALENE

>  <SPECTRUM TYPE>  (3898) 
MS1

>  <INSTRUMENT TYPE>  (3898) 
EI-B

>  <INSTRUMENT>  (3898) 
HITACHI M-80B

>  <ION MODE>  (3898) 
P

>  <INCHIKEY>  (3898) 
GUMOJENFFHZAFP-UHFFFAOYSA-N

>  <FORMULA>  (3898) 
C12H12O

>  <EXACT MASS>  (3898) 
172.088815004

>  <MW>  (3898) 
172

>  <ID>  (3898) 
JP006586

>  <CONTRIBUTOR>  (3898) 
University of Tokyo Team, {Faculty of Engineering, University of Tokyo

>  <COMMENT>  (3898) 
computed SMILES=O(C=1C=CC=2C=CC=CC2C1)CC
SMILES=CCOc(c1)cc(c2)c(ccc2)c1
InChI=InChI=1S/C12H12O/c1-2-13-12-8-7-10-5-3-4-6-11(10)9-12/h3-9H,2H2,1H3
accession=JP006586
date=2016.01.19 (Created 2008.10.21, modified 2011.05.06)
author=HISAHIRO HAGIWARA, CHEMICAL RESEARCH INSTITUTE OF NON-AQUEOUSSOLUTIONS TOHOKU UNIV.
license=CC BY-NC-SA
exact mass=172.08882
ionization energy=70 eV
ion type=[M]+*
computed spectral entropy=2.286173109130365
computed normalized entropy=0.6789344401437839
SPLASH=splash10-00r6-1900000000-1869422e728a21108f75
submitter=submitter = University of Tokyo Team (Faculty of Engineering, University of Tokyo)
MoNA Rating=3.75

>  <NUM PEAKS>  (3898) 
29

>  <MASS SPECTRAL PEAKS>  (3898) 
27 5.61
29 5.28
39 2.41
50 1.34
51 2.15
62 2.01
63 6.08
65 2.62
74 1.62
75 2.26
76 1
77 2.05
87 1.54
88 1.61
89 6.68
101 1.19
113 1.84
114 2.9
115 49.72
116 12.45
126 2.6
127 5.88
128 2.5
129 1.2
143 1.79
144 99.99
145 10.84
172 54.64
173 7.53

$$$$

     RDKit          2D

 12 12  0  0  0  0  0  0  0  0999 V2000
   -5.1962    1.5000    0.0000 C   0  0  0  0  0  0  0  0  0  0  0  0
    5.1962   -1.5000    0.0000 C   0  0  0  0  0  0  0  0  0  0  0  0
   -3.8971    0.7500    0.0000 C   0  0  0  0  0  0  0  0  0  0  0  0
    3.8971   -0.7500    0.0000 C   0  0  0  0  0  0  0  0  0  0  0  0
   -1.2995   -0.7508    0.0000 C   0  0  0  0  0  0  0  0  0  0  0  0
    0.0005    1.5008    0.0000 C   0  0  0  0  0  0  0  0  0  0  0  0
   -0.0005   -1.5008    0.0000 C   0  0  0  0  0  0  0  0  0  0  0  0
    1.2995    0.7508    0.0000 C   0  0  0  0  0  0  0  0  0  0  0  0
   -1.2990    0.7500    0.0000 C   0  0  0  0  0  0  0  0  0  0  0  0
    1.2990   -0.7500    0.0000 C   0  0  0  0  0  0  0  0  0  0  0  0
   -2.5981    1.5000    0.0000 O   0  0  0  0  0  0  0  0  0  0  0  0
    2.5981   -1.5000    0.0000 O   0  0  0  0  0  0  0  0  0  0  0  0
  3  1  1  0
  4  2  1  0
  7  5  2  0
  8  6  1  0
  9  5  1  0
  9  6  2  0
 10  7  1  0
 10  8  2  0
 11  3  1  0
 11  9  1  0
 12  4  1  0
 12 10  1  0
M  END
>  <NAME>  (3899) 
P-DIETHOXYBENZENE

>  <SYNONYMS>  (3899) 
1,4-DIETHOXYBENZENE

>  <SPECTRUM TYPE>  (3899) 
MS1

>  <INSTRUMENT TYPE>  (3899) 
EI-B

>  <INSTRUMENT>  (3899) 
HITACHI M-80B

>  <ION MODE>  (3899) 
P

>  <INCHIKEY>  (3899) 
VWGNFIQXBYRDCH-UHFFFAOYSA-N

>  <FORMULA>  (3899) 
C10H14O2

>  <EXACT MASS>  (3899) 
166.099379688

>  <MW>  (3899) 
166

>  <ID>  (3899) 
JP006585

>  <CONTRIBUTOR>  (3899) 
University of Tokyo Team, {Faculty of Engineering, University of Tokyo

>  <COMMENT>  (3899) 
SMILES=CCOc(c1)ccc(OCC)c1
InChI=InChI=1S/C10H14O2/c1-3-11-9-5-7-10(8-6-9)12-4-2/h5-8H,3-4H2,1-2H3
computed SMILES=O(C1=CC=C(OCC)C=C1)CC
accession=JP006585
date=2016.01.19 (Created 2008.10.21, modified 2011.05.06)
author=HISAHIRO HAGIWARA, CHEMICAL RESEARCH INSTITUTE OF NON-AQUEOUSSOLUTIONS TOHOKU UNIV.
license=CC BY-NC-SA
exact mass=166.09938
ionization energy=70 eV
ion type=[M]+*
computed spectral entropy=2.542262230333335
computed normalized entropy=0.7474609512638571
SPLASH=splash10-08fr-5900000000-c0e705e3f28077e18002
submitter=submitter = University of Tokyo Team (Faculty of Engineering, University of Tokyo)
MoNA Rating=3.75

>  <NUM PEAKS>  (3899) 
30

>  <MASS SPECTRAL PEAKS>  (3899) 
26 3.73
27 22.74
28 1.67
29 24.57
38 1.86
39 7.04
43 1.19
50 1.97
51 2.71
52 2.97
53 8.83
54 5.14
55 3.42
62 1.58
63 4.84
64 5.1
65 6.71
66 1.49
77 1.68
81 24.08
82 4.59
92 1.09
109 59.41
110 99.99
111 5.37
137 6.78
138 9.56
139 1.16
166 47.86
167 4.41

$$$$

     RDKit          2D

 12 12  0  0  0  0  0  0  0  0999 V2000
   -1.6353    4.6878    0.0000 C   0  0  0  0  0  0  0  0  0  0  0  0
    4.8670    0.9406    0.0000 C   0  0  0  0  0  0  0  0  0  0  0  0
   -1.6328    3.1878    0.0000 C   0  0  0  0  0  0  0  0  0  0  0  0
    3.5681    0.1904    0.0000 C   0  0  0  0  0  0  0  0  0  0  0  0
   -1.6200   -1.3100    0.0000 C   0  0  0  0  0  0  0  0  0  0  0  0
   -0.3300   -2.0600    0.0000 C   0  0  0  0  0  0  0  0  0  0  0  0
   -1.6200    0.1900    0.0000 C   0  0  0  0  0  0  0  0  0  0  0  0
    0.9700   -1.3100    0.0000 C   0  0  0  0  0  0  0  0  0  0  0  0
   -0.3300    0.9400    0.0000 C   0  0  0  0  0  0  0  0  0  0  0  0
    0.9700    0.1900    0.0000 C   0  0  0  0  0  0  0  0  0  0  0  0
   -0.3325    2.4400    0.0000 O   0  0  0  0  0  0  0  0  0  0  0  0
    2.2689    0.9402    0.0000 O   0  0  0  0  0  0  0  0  0  0  0  0
  3  1  1  0
  4  2  1  0
  6  5  2  0
  7  5  1  0
  8  6  1  0
  9  7  2  0
 10  8  2  0
 10  9  1  0
 11  3  1  0
 11  9  1  0
 12  4  1  0
 12 10  1  0
M  END
>  <NAME>  (3900) 
O-DIETHOXYBENZENE

>  <SYNONYMS>  (3900) 
1,2-DIETHOXYBENZENE

>  <SPECTRUM TYPE>  (3900) 
MS1

>  <INSTRUMENT TYPE>  (3900) 
EI-B

>  <INSTRUMENT>  (3900) 
HITACHI M-80B

>  <ION MODE>  (3900) 
P

>  <INCHIKEY>  (3900) 
QZYDOKBVZJLQCK-UHFFFAOYSA-N

>  <FORMULA>  (3900) 
C10H14O2

>  <EXACT MASS>  (3900) 
166.099379688

>  <MW>  (3900) 
166

>  <ID>  (3900) 
JP006584

>  <CONTRIBUTOR>  (3900) 
University of Tokyo Team, {Faculty of Engineering, University of Tokyo

>  <COMMENT>  (3900) 
SMILES=CCOc(c1)c(OCC)ccc1
InChI=InChI=1S/C10H14O2/c1-3-11-9-7-5-6-8-10(9)12-4-2/h5-8H,3-4H2,1-2H3
computed SMILES=O(C=1C=CC=CC1OCC)CC
accession=JP006584
date=2016.01.19 (Created 2008.10.21, modified 2011.05.06)
author=HISAHIRO HAGIWARA, CHEMICAL RESEARCH INSTITUTE OF NON-AQUEOUSSOLUTIONS TOHOKU UNIV.
license=CC BY-NC-SA
exact mass=166.09938
ionization energy=70 eV
ion type=[M]+*
computed spectral entropy=2.452469414040545
computed normalized entropy=0.7141754665938661
SPLASH=splash10-03di-4900000000-5e654f9a6e2183b4c6d9
submitter=submitter = University of Tokyo Team (Faculty of Engineering, University of Tokyo)
MoNA Rating=3.75

>  <NUM PEAKS>  (3900) 
31

>  <MASS SPECTRAL PEAKS>  (3900) 
26 1.89
27 11.94
29 9.08
39 3.06
43 1.86
45 1.16
50 1.89
51 4.21
52 6.31
53 5.27
55 1.33
63 3.37
64 4.06
65 5.68
77 1.74
79 1.1
80 1.5
81 20.27
82 2.21
91 1.25
92 2.25
93 1.7
95 1.15
109 26.07
110 99.99
111 5.95
121 2.7
137 1.02
138 8.21
166 39.23
167 3.62

$$$$

     RDKit          2D

 12 13  0  0  0  0  0  0  0  0999 V2000
    4.8381    0.6104    0.0000 C   0  0  0  0  0  0  0  0  0  0  0  0
   -2.9500   -0.8900    0.0000 C   0  0  0  0  0  0  0  0  0  0  0  0
   -2.9500    0.6100    0.0000 C   0  0  0  0  0  0  0  0  0  0  0  0
   -1.6500   -1.6400    0.0000 C   0  0  0  0  0  0  0  0  0  0  0  0
   -1.6500    1.3600    0.0000 C   0  0  0  0  0  0  0  0  0  0  0  0
    0.9400   -1.6400    0.0000 C   0  0  0  0  0  0  0  0  0  0  0  0
    2.2400   -0.8900    0.0000 C   0  0  0  0  0  0  0  0  0  0  0  0
    0.9400    1.3600    0.0000 C   0  0  0  0  0  0  0  0  0  0  0  0
   -0.3500   -0.8900    0.0000 C   0  0  0  0  0  0  0  0  0  0  0  0
   -0.3500    0.6100    0.0000 C   0  0  0  0  0  0  0  0  0  0  0  0
    2.2400    0.6100    0.0000 C   0  0  0  0  0  0  0  0  0  0  0  0
    3.5389    1.3602    0.0000 O   0  0  0  0  0  0  0  0  0  0  0  0
  3  2  2  0
  4  2  1  0
  5  3  1  0
  7  6  2  0
  9  4  2  0
  9  6  1  0
 10  5  2  0
 10  8  1  0
 10  9  1  0
 11  7  1  0
 11  8  2  0
 12  1  1  0
 12 11  1  0
M  END
>  <NAME>  (3901) 
2-NAPHTHYL METHYL ETHER

>  <SYNONYMS>  (3901) 
2-METHOXYNAPHTHALENE

>  <SPECTRUM TYPE>  (3901) 
MS1

>  <INSTRUMENT TYPE>  (3901) 
EI-B

>  <INSTRUMENT>  (3901) 
HITACHI M-80B

>  <ION MODE>  (3901) 
P

>  <INCHIKEY>  (3901) 
LUZDYPLAQQGJEA-UHFFFAOYSA-N

>  <FORMULA>  (3901) 
C11H10O

>  <EXACT MASS>  (3901) 
158.07316494

>  <MW>  (3901) 
158

>  <ID>  (3901) 
JP006583

>  <CONTRIBUTOR>  (3901) 
University of Tokyo Team, {Faculty of Engineering, University of Tokyo

>  <COMMENT>  (3901) 
SMILES=COc(c1)cc(c2)c(ccc2)c1
InChI=InChI=1S/C11H10O/c1-12-11-7-6-9-4-2-3-5-10(9)8-11/h2-8H,1H3
computed SMILES=O(C=1C=CC=2C=CC=CC2C1)C
accession=JP006583
date=2016.01.19 (Created 2008.10.21, modified 2011.05.06)
author=HISAHIRO HAGIWARA, CHEMICAL RESEARCH INSTITUTE OF NON-AQUEOUSSOLUTIONS TOHOKU UNIV.
license=CC BY-NC-SA
exact mass=158.07316
ionization energy=70 eV
ion type=[M]+*
computed spectral entropy=2.260576279584522
computed normalized entropy=0.6713328420549265
SPLASH=splash10-0aor-1900000000-1c20535f4a69bcfc204d
submitter=submitter = University of Tokyo Team (Faculty of Engineering, University of Tokyo)
MoNA Rating=3.75

>  <NUM PEAKS>  (3901) 
29

>  <MASS SPECTRAL PEAKS>  (3901) 
15 2.49
39 3.77
50 1.99
51 2.82
62 3.61
63 9.45
64 1.17
65 3.61
74 2.93
75 3.48
76 1.25
77 1.94
79 1.87
86 1.12
87 1.91
88 2.16
89 8.08
101 1.38
113 3.49
114 5.2
115 92.81
116 9.57
126 3.15
127 5.86
128 12.69
129 3.91
143 8.63
158 99.99
159 12.29

$$$$

     RDKit          2D

 10 10  0  0  0  0  0  0  0  0999 V2000
    1.9487   -3.0002    0.0000 C   0  0  0  0  0  0  0  0  0  0  0  0
   -1.9500    0.7500    0.0000 C   0  0  0  0  0  0  0  0  0  0  0  0
   -1.9500   -0.7500    0.0000 C   0  0  0  0  0  0  0  0  0  0  0  0
   -0.6500    1.5000    0.0000 C   0  0  0  0  0  0  0  0  0  0  0  0
   -0.6500   -1.5000    0.0000 C   0  0  0  0  0  0  0  0  0  0  0  0
    1.9489    1.5002    0.0000 C   0  0  0  0  0  0  0  0  0  0  0  0
    0.6500    0.7500    0.0000 C   0  0  0  0  0  0  0  0  0  0  0  0
    0.6500   -0.7500    0.0000 C   0  0  0  0  0  0  0  0  0  0  0  0
    1.9487    3.0002    0.0000 O   0  0  0  0  0  0  0  0  0  0  0  0
    1.9489   -1.5002    0.0000 O   0  0  0  0  0  0  0  0  0  0  0  0
  3  2  2  0
  4  2  1  0
  5  3  1  0
  7  4  2  0
  7  6  1  0
  8  5  2  0
  8  7  1  0
  9  6  1  0
 10  1  1  0
 10  8  1  0
M  END
>  <NAME>  (3902) 
2-METHOXYBENZYL ALCOHOL

>  <SYNONYMS>  (3902) 
O-METHOXYBENZYL ALCOHOL

>  <SPECTRUM TYPE>  (3902) 
MS1

>  <INSTRUMENT TYPE>  (3902) 
EI-B

>  <INSTRUMENT>  (3902) 
HITACHI M-80B

>  <ION MODE>  (3902) 
P

>  <INCHIKEY>  (3902) 
WYLYBQSHRJMURN-UHFFFAOYSA-N

>  <FORMULA>  (3902) 
C8H10O2

>  <EXACT MASS>  (3902) 
138.06807956

>  <MW>  (3902) 
138

>  <ID>  (3902) 
JP006582

>  <CONTRIBUTOR>  (3902) 
University of Tokyo Team, {Faculty of Engineering, University of Tokyo

>  <COMMENT>  (3902) 
SMILES=OCc(c1)c(OC)ccc1
InChI=InChI=1S/C8H10O2/c1-10-8-5-3-2-4-7(8)6-9/h2-5,9H,6H2,1H3
computed SMILES=OCC=1C=CC=CC1OC
accession=JP006582
date=2016.01.19 (Created 2008.10.21, modified 2011.05.06)
author=HISAHIRO HAGIWARA, CHEMICAL RESEARCH INSTITUTE OF NON-AQUEOUSSOLUTIONS TOHOKU UNIV.
license=CC BY-NC-SA
exact mass=138.06808
ionization energy=70 eV
ion type=[M]+*
computed spectral entropy=3.392561214910131
computed normalized entropy=0.8427987106613654
SPLASH=splash10-052r-9800000000-a246d0e029677d256b22
submitter=submitter = University of Tokyo Team (Faculty of Engineering, University of Tokyo)
MoNA Rating=3.75

>  <NUM PEAKS>  (3902) 
56

>  <MASS SPECTRAL PEAKS>  (3902) 
15 7.15
26 1.18
27 4.59
29 7.87
30 1.03
31 6.19
33 1.41
37 1.41
38 4.72
39 22.58
40 2.71
41 7.6
43 1.28
50 10.84
51 26.49
52 8.06
53 4.47
55 3.72
61 1.34
62 3.69
63 11.93
64 4.39
65 18.73
66 4.99
67 4.48
74 3.01
75 2.06
76 5.09
77 62.3
78 20.25
79 19.48
80 1.42
89 3.07
90 2.75
91 35.8
92 9.04
93 3.23
94 14.98
95 13.47
104 2
105 56.86
106 20.38
107 39.31
108 3.55
109 35.31
110 2.88
119 3.84
120 4.41
121 22.46
122 5.59
123 20.49
124 1.37
135 1.98
137 26.68
138 99.99
139 8.3

$$$$

     RDKit          2D

 10 10  0  0  0  0  0  0  0  0999 V2000
   -3.9008    0.7413    0.0000 C   0  0  0  0  0  0  0  0  0  0  0  0
    0.0072   -1.5063    0.0000 C   0  0  0  0  0  0  0  0  0  0  0  0
    1.3207    0.7186    0.0000 C   0  0  0  0  0  0  0  0  0  0  0  0
   -1.2773   -0.7814    0.0000 C   0  0  0  0  0  0  0  0  0  0  0  0
   -0.0038    1.5127    0.0000 C   0  0  0  0  0  0  0  0  0  0  0  0
    2.6016   -1.5127    0.0000 C   0  0  0  0  0  0  0  0  0  0  0  0
    1.3062   -0.7563    0.0000 C   0  0  0  0  0  0  0  0  0  0  0  0
   -1.3028    0.7627    0.0000 C   0  0  0  0  0  0  0  0  0  0  0  0
    3.9043   -0.7691    0.0000 O   0  0  0  0  0  0  0  0  0  0  0  0
   -2.6080    1.5020    0.0000 O   0  0  0  0  0  0  0  0  0  0  0  0
  4  2  2  0
  5  3  1  0
  7  2  1  0
  7  3  2  0
  7  6  1  0
  8  4  1  0
  8  5  2  0
  9  6  1  0
 10  1  1  0
 10  8  1  0
M  END
>  <NAME>  (3903) 
ANISYL ALCOHOL

>  <SYNONYMS>  (3903) 
4-METHOXYBENZYL ALCOHOL

>  <SPECTRUM TYPE>  (3903) 
MS1

>  <INSTRUMENT TYPE>  (3903) 
EI-B

>  <INSTRUMENT>  (3903) 
HITACHI M-80B

>  <ION MODE>  (3903) 
P

>  <INCHIKEY>  (3903) 
MSHFRERJPWKJFX-UHFFFAOYSA-N

>  <FORMULA>  (3903) 
C8H10O2

>  <EXACT MASS>  (3903) 
138.06807956

>  <MW>  (3903) 
138

>  <ID>  (3903) 
JP006581

>  <CONTRIBUTOR>  (3903) 
University of Tokyo Team, {Faculty of Engineering, University of Tokyo

>  <COMMENT>  (3903) 
SMILES=OCc(c1)ccc(OC)c1
InChI=InChI=1S/C8H10O2/c1-10-8-4-2-7(6-9)3-5-8/h2-5,9H,6H2,1H3
computed SMILES=OCC1=CC=C(OC)C=C1
accession=JP006581
date=2016.01.19 (Created 2008.10.21, modified 2011.05.06)
author=HISAHIRO HAGIWARA, CHEMICAL RESEARCH INSTITUTE OF NON-AQUEOUSSOLUTIONS TOHOKU UNIV.
license=CC BY-NC-SA
exact mass=138.06808
ionization energy=70 eV
ion type=[M]+*
computed spectral entropy=3.2753529626922018
computed normalized entropy=0.8249652756040864
SPLASH=splash10-052r-7900000000-ce52521c68b1292fe73c
submitter=submitter = University of Tokyo Team (Faculty of Engineering, University of Tokyo)
MoNA Rating=3.75

>  <NUM PEAKS>  (3903) 
53

>  <MASS SPECTRAL PEAKS>  (3903) 
15 7.21
26 1.17
27 4.06
29 7.21
31 7.32
37 1.15
38 5
39 18.61
40 3.81
41 11.46
43 1.07
50 9.46
51 17.87
52 6.4
53 5.5
55 2.99
61 1.23
62 3.11
63 11.63
64 7.85
65 13.86
66 11.12
67 9.37
68 1.43
74 2.73
75 1.91
76 2.13
77 47.03
78 17.44
79 17.05
80 1.04
81 1
89 4.75
90 1.19
91 7.27
92 7.63
93 1.64
94 27.1
95 6.11
105 13.1
106 5.87
107 26.29
108 2.77
109 67.46
110 6.13
121 49.59
122 5.06
123 5.45
135 4.65
136 1.16
137 64.58
138 99.99
139 8.7

$$$$

     RDKit          2D

 13 13  0  0  0  0  0  0  0  0999 V2000
   -5.8454    3.6946    0.0000 C   0  0  0  0  0  0  0  0  0  0  0  0
   -4.5464    1.4446    0.0000 C   0  0  0  0  0  0  0  0  0  0  0  0
    3.2478    1.4446    0.0000 C   0  0  0  0  0  0  0  0  0  0  0  0
    3.2483    2.9454    0.0000 C   0  0  0  0  0  0  0  0  0  0  0  0
    1.9483    0.6938    0.0000 C   0  0  0  0  0  0  0  0  0  0  0  0
    1.9493    3.6954    0.0000 C   0  0  0  0  0  0  0  0  0  0  0  0
    0.6493    1.4438    0.0000 C   0  0  0  0  0  0  0  0  0  0  0  0
   -3.2474    3.6946    0.0000 C   0  0  0  0  0  0  0  0  0  0  0  0
   -0.6493    3.6946    0.0000 C   0  0  0  0  0  0  0  0  0  0  0  0
   -4.5464    2.9446    0.0000 C   0  0  0  0  0  0  0  0  0  0  0  0
    0.6498    2.9446    0.0000 C   0  0  0  0  0  0  0  0  0  0  0  0
   -1.9483    2.9446    0.0000 C   0  0  0  0  0  0  0  0  0  0  0  0
   -1.9483    1.4446    0.0000 O   0  0  0  0  0  0  0  0  0  0  0  0
  4  3  2  0
  5  3  1  0
  6  4  1  0
  7  5  2  0
 10  1  1  0
 10  2  1  0
 10  8  1  0
 11  6  2  0
 11  7  1  0
 11  9  1  0
 12  8  1  0
 12  9  1  0
 13 12  1  0
M  END
>  <NAME>  (3904) 
4-METHYL-1-PHENYL-2-PENTANOL

>  <SYNONYMS>  (3904) 


>  <SPECTRUM TYPE>  (3904) 
MS1

>  <INSTRUMENT TYPE>  (3904) 
EI-B

>  <INSTRUMENT>  (3904) 
HITACHI M-80B

>  <ION MODE>  (3904) 
P

>  <INCHIKEY>  (3904) 
IUADYGVMSDKSMB-UHFFFAOYSA-N

>  <FORMULA>  (3904) 
C12H18O

>  <EXACT MASS>  (3904) 
178.135765196

>  <MW>  (3904) 
178

>  <ID>  (3904) 
JP006580

>  <CONTRIBUTOR>  (3904) 
University of Tokyo Team, {Faculty of Engineering, University of Tokyo

>  <COMMENT>  (3904) 
SMILES=CC(C)CC(O)Cc(c1)cccc1
InChI=InChI=1S/C12H18O/c1-10(2)8-12(13)9-11-6-4-3-5-7-11/h3-7,10,12-13H,8-9H2,1-2H3
computed SMILES=OC(CC=1C=CC=CC1)CC(C)C
accession=JP006580
date=2016.01.19 (Created 2008.10.21, modified 2011.05.06)
author=HISAHIRO HAGIWARA, CHEMICAL RESEARCH INSTITUTE OF NON-AQUEOUSSOLUTIONS TOHOKU UNIV.
license=CC BY-NC-SA
exact mass=178.13577
ionization energy=70 eV
ion type=[M]+*
computed spectral entropy=2.043716916118347
computed normalized entropy=0.6712766806365073
SPLASH=splash10-0006-9000000000-546988c3bfc7f11c1acb
submitter=submitter = University of Tokyo Team (Faculty of Engineering, University of Tokyo)
MoNA Rating=3.75

>  <NUM PEAKS>  (3904) 
21

>  <MASS SPECTRAL PEAKS>  (3904) 
27 3.17
29 2.51
39 3.7
41 8.39
43 14.56
44 1.03
45 7.36
51 1.91
57 2.1
63 1.18
65 6.38
69 13.35
71 1.07
77 2.82
87 1.3
89 1.15
91 27.75
92 99.99
93 7.85
103 3.29
121 3.46

$$$$

     RDKit          2D

 13 13  0  0  0  0  0  0  0  0999 V2000
   -5.5207    3.1321    0.0000 C   0  0  0  0  0  0  0  0  0  0  0  0
   -1.9584    4.2812    0.0000 C   0  0  0  0  0  0  0  0  0  0  0  0
   -4.2216    2.3821    0.0000 C   0  0  0  0  0  0  0  0  0  0  0  0
    3.5726    0.8821    0.0000 C   0  0  0  0  0  0  0  0  0  0  0  0
    3.5731    2.3829    0.0000 C   0  0  0  0  0  0  0  0  0  0  0  0
    2.2731    0.1313    0.0000 C   0  0  0  0  0  0  0  0  0  0  0  0
    2.2740    3.1329    0.0000 C   0  0  0  0  0  0  0  0  0  0  0  0
    0.9740    0.8813    0.0000 C   0  0  0  0  0  0  0  0  0  0  0  0
   -0.3245    3.1321    0.0000 C   0  0  0  0  0  0  0  0  0  0  0  0
   -1.6236    2.3821    0.0000 C   0  0  0  0  0  0  0  0  0  0  0  0
    0.9745    2.3821    0.0000 C   0  0  0  0  0  0  0  0  0  0  0  0
   -2.9226    3.1321    0.0000 C   0  0  0  0  0  0  0  0  0  0  0  0
   -3.8868    4.2812    0.0000 O   0  0  0  0  0  0  0  0  0  0  0  0
  3  1  1  0
  5  4  2  0
  6  4  1  0
  7  5  1  0
  8  6  2  0
 10  9  1  0
 11  7  2  0
 11  8  1  0
 11  9  1  0
 12  2  1  0
 12  3  1  0
 12 10  1  0
 13 12  1  0
M  END
>  <NAME>  (3905) 
3-METHYL-1-PHENYL-3-PENTANOL

>  <SYNONYMS>  (3905) 


>  <SPECTRUM TYPE>  (3905) 
MS1

>  <INSTRUMENT TYPE>  (3905) 
EI-B

>  <INSTRUMENT>  (3905) 
HITACHI M-80B

>  <ION MODE>  (3905) 
P

>  <INCHIKEY>  (3905) 
AEJRTNBCFUOSEM-UHFFFAOYSA-N

>  <FORMULA>  (3905) 
C12H18O

>  <EXACT MASS>  (3905) 
178.135765196

>  <MW>  (3905) 
178

>  <ID>  (3905) 
JP006579

>  <CONTRIBUTOR>  (3905) 
University of Tokyo Team, {Faculty of Engineering, University of Tokyo

>  <COMMENT>  (3905) 
SMILES=CCC(C)(O)CCc(c1)cccc1
InChI=InChI=1S/C12H18O/c1-3-12(2,13)10-9-11-7-5-4-6-8-11/h4-8,13H,3,9-10H2,1-2H3
computed SMILES=OC(C)(CC)CCC=1C=CC=CC1
accession=JP006579
date=2016.01.19 (Created 2008.10.21, modified 2011.05.06)
author=HISAHIRO HAGIWARA, CHEMICAL RESEARCH INSTITUTE OF NON-AQUEOUSSOLUTIONS TOHOKU UNIV.
license=CC BY-NC-SA
exact mass=178.13577
ionization energy=70 eV
ion type=[M]+*
computed spectral entropy=2.643910941540188
computed normalized entropy=0.7436433496282205
SPLASH=splash10-006x-9400000000-d1d3d5961d99b1b39b86
submitter=submitter = University of Tokyo Team (Faculty of Engineering, University of Tokyo)
MoNA Rating=3.75

>  <NUM PEAKS>  (3905) 
35

>  <MASS SPECTRAL PEAKS>  (3905) 
27 5.08
29 4.7
31 1.73
39 4.14
41 2.75
43 12.52
45 3.11
51 3.7
52 1.09
53 1.16
55 11.53
57 1.83
58 1.96
63 1.72
65 8.68
73 61.32
74 2.51
77 5.9
78 3.33
79 2.84
89 1.45
91 99.99
92 8.13
103 2.47
104 4.98
105 6.51
106 2.51
131 37.92
132 3.34
145 2.42
149 14.38
150 1.39
160 29.48
161 3.81
163 3.03

$$$$

     RDKit          2D

 12 12  0  0  0  0  0  0  0  0999 V2000
   -4.9157    2.0842    0.0000 C   0  0  0  0  0  0  0  0  0  0  0  0
   -3.2818    0.9352    0.0000 C   0  0  0  0  0  0  0  0  0  0  0  0
   -3.6167    2.8342    0.0000 C   0  0  0  0  0  0  0  0  0  0  0  0
    2.8785    0.5842    0.0000 C   0  0  0  0  0  0  0  0  0  0  0  0
    2.8790    2.0851    0.0000 C   0  0  0  0  0  0  0  0  0  0  0  0
    1.5790   -0.1666    0.0000 C   0  0  0  0  0  0  0  0  0  0  0  0
    1.5800    2.8351    0.0000 C   0  0  0  0  0  0  0  0  0  0  0  0
    0.2800    0.5834    0.0000 C   0  0  0  0  0  0  0  0  0  0  0  0
   -1.0186    2.8342    0.0000 C   0  0  0  0  0  0  0  0  0  0  0  0
    0.2805    2.0842    0.0000 C   0  0  0  0  0  0  0  0  0  0  0  0
   -2.3176    2.0842    0.0000 C   0  0  0  0  0  0  0  0  0  0  0  0
   -1.3534    0.9352    0.0000 O   0  0  0  0  0  0  0  0  0  0  0  0
  3  1  1  0
  5  4  2  0
  6  4  1  0
  7  5  1  0
  8  6  2  0
 10  7  2  0
 10  8  1  0
 10  9  1  0
 11  2  1  0
 11  3  1  0
 11  9  1  0
 12 11  1  0
M  END
>  <NAME>  (3906) 
1-PHENYL-2-METHYL-2-BUTANOL

>  <SYNONYMS>  (3906) 


>  <SPECTRUM TYPE>  (3906) 
MS1

>  <INSTRUMENT TYPE>  (3906) 
EI-B

>  <INSTRUMENT>  (3906) 
HITACHI M-80B

>  <ION MODE>  (3906) 
P

>  <INCHIKEY>  (3906) 
FTZBYXCNXOPJEL-UHFFFAOYSA-N

>  <FORMULA>  (3906) 
C11H16O

>  <EXACT MASS>  (3906) 
164.120115132

>  <MW>  (3906) 
164

>  <ID>  (3906) 
JP006578

>  <CONTRIBUTOR>  (3906) 
University of Tokyo Team, {Faculty of Engineering, University of Tokyo

>  <COMMENT>  (3906) 
SMILES=CCC(C)(O)Cc(c1)cccc1
InChI=InChI=1S/C11H16O/c1-3-11(2,12)9-10-7-5-4-6-8-10/h4-8,12H,3,9H2,1-2H3
computed SMILES=OC(C)(CC=1C=CC=CC1)CC
accession=JP006578
date=2016.01.19 (Created 2008.10.21, modified 2011.05.06)
author=HISAHIRO HAGIWARA, CHEMICAL RESEARCH INSTITUTE OF NON-AQUEOUSSOLUTIONS TOHOKU UNIV.
license=CC BY-NC-SA
exact mass=164.12012
ionization energy=70 eV
ion type=[M]+*
computed spectral entropy=2.8509351246528034
computed normalized entropy=0.7446336257208996
SPLASH=splash10-0006-9000000000-bf7f37b33ff652887f34
submitter=submitter = University of Tokyo Team (Faculty of Engineering, University of Tokyo)
MoNA Rating=3.75

>  <NUM PEAKS>  (3906) 
46

>  <MASS SPECTRAL PEAKS>  (3906) 
15 1.66
18 2.3
27 8.48
29 12.4
31 5.06
39 11.07
41 4.43
42 1.06
43 37.23
44 1.05
45 8.21
50 2.04
51 5.69
52 1.58
53 1.94
55 27.92
56 1.17
57 11.88
58 1.45
63 3.9
64 1.59
65 15.68
66 1.16
68 1.03
71 1.01
72 1.31
73 81.28
74 3.69
77 4
78 1.85
79 1.45
89 2.95
90 1.67
91 48.44
92 99.99
93 9.32
104 1.02
105 2.19
115 3.39
116 1.82
117 6.72
131 5.43
135 14.63
136 1.23
146 3.07
149 3.15

$$$$

     RDKit          2D

 11 11  0  0  0  0  0  0  0  0999 V2000
   -3.4349    3.0684    0.0000 C   0  0  0  0  0  0  0  0  0  0  0  0
   -3.9839    1.0193    0.0000 C   0  0  0  0  0  0  0  0  0  0  0  0
    2.5113    0.2693    0.0000 C   0  0  0  0  0  0  0  0  0  0  0  0
    2.5118    1.7702    0.0000 C   0  0  0  0  0  0  0  0  0  0  0  0
    1.2118   -0.4815    0.0000 C   0  0  0  0  0  0  0  0  0  0  0  0
    1.2127    2.5202    0.0000 C   0  0  0  0  0  0  0  0  0  0  0  0
   -0.0873    0.2685    0.0000 C   0  0  0  0  0  0  0  0  0  0  0  0
   -1.3858    2.5193    0.0000 C   0  0  0  0  0  0  0  0  0  0  0  0
   -0.0868    1.7693    0.0000 C   0  0  0  0  0  0  0  0  0  0  0  0
   -2.6849    1.7693    0.0000 C   0  0  0  0  0  0  0  0  0  0  0  0
   -1.9349    0.4703    0.0000 O   0  0  0  0  0  0  0  0  0  0  0  0
  4  3  2  0
  5  3  1  0
  6  4  1  0
  7  5  2  0
  9  6  2  0
  9  7  1  0
  9  8  1  0
 10  1  1  0
 10  2  1  0
 10  8  1  0
 11 10  1  0
M  END
>  <NAME>  (3907) 
1-PHENYL-2-METHYL-2-PROPANOL

>  <SYNONYMS>  (3907) 


>  <SPECTRUM TYPE>  (3907) 
MS1

>  <INSTRUMENT TYPE>  (3907) 
EI-B

>  <INSTRUMENT>  (3907) 
HITACHI M-80B

>  <ION MODE>  (3907) 
P

>  <INCHIKEY>  (3907) 
RIWRBSMFKVOJMN-UHFFFAOYSA-N

>  <FORMULA>  (3907) 
C10H14O

>  <EXACT MASS>  (3907) 
150.104465068

>  <MW>  (3907) 
150

>  <ID>  (3907) 
JP006577

>  <CONTRIBUTOR>  (3907) 
University of Tokyo Team, {Faculty of Engineering, University of Tokyo

>  <COMMENT>  (3907) 
SMILES=CC(C)(O)Cc(c1)cccc1
InChI=InChI=1S/C10H14O/c1-10(2,11)8-9-6-4-3-5-7-9/h3-7,11H,8H2,1-2H3
computed SMILES=OC(C)(C)CC=1C=CC=CC1
date=2016.01.19 (Created 2008.10.21, modified 2011.05.06)
accession=JP006577
author=HISAHIRO HAGIWARA, CHEMICAL RESEARCH INSTITUTE OF NON-AQUEOUSSOLUTIONS TOHOKU UNIV.
license=CC BY-NC-SA
exact mass=150.10447
ionization energy=70 eV
ion type=[M]+*
computed spectral entropy=2.6626107439451876
computed normalized entropy=0.7217939152161162
SPLASH=splash10-0006-9000000000-b579a2ed73fc91287b04
submitter=submitter = University of Tokyo Team (Faculty of Engineering, University of Tokyo)
MoNA Rating=3.75

>  <NUM PEAKS>  (3907) 
40

>  <MASS SPECTRAL PEAKS>  (3907) 
14 1.44
15 2.9
17 2.36
18 5.32
26 1
27 3.91
29 2.54
31 14.73
38 1.31
39 10.59
41 7.51
43 26.43
45 2.16
50 2.14
51 6.08
52 2.37
53 1.22
55 1.09
57 4.91
58 2.31
59 79.82
60 2.69
62 1.55
63 4.8
64 1.72
65 13.88
68 1.47
77 3.38
78 1.89
89 3.11
90 1.67
91 49.9
92 99.99
93 6.92
105 1.43
115 3.41
116 1.45
117 9.07
132 3.16
135 7.47

$$$$

     RDKit          2D

 10 10  0  0  0  0  0  0  0  0999 V2000
   -0.9743    3.5075    0.0000 C   0  0  0  0  0  0  0  0  0  0  0  0
    2.9228   -0.2425    0.0000 C   0  0  0  0  0  0  0  0  0  0  0  0
    2.9233    1.2583    0.0000 C   0  0  0  0  0  0  0  0  0  0  0  0
    1.6233   -0.9933    0.0000 C   0  0  0  0  0  0  0  0  0  0  0  0
    1.6243    2.0083    0.0000 C   0  0  0  0  0  0  0  0  0  0  0  0
    0.3243   -0.2433    0.0000 C   0  0  0  0  0  0  0  0  0  0  0  0
   -2.2733    1.2575    0.0000 C   0  0  0  0  0  0  0  0  0  0  0  0
   -0.9743    2.0075    0.0000 C   0  0  0  0  0  0  0  0  0  0  0  0
    0.3248    1.2575    0.0000 C   0  0  0  0  0  0  0  0  0  0  0  0
   -3.5724    2.0075    0.0000 O   0  0  0  0  0  0  0  0  0  0  0  0
  3  2  2  0
  4  2  1  0
  5  3  1  0
  6  4  2  0
  8  1  1  0
  8  7  1  0
  9  5  2  0
  9  6  1  0
  9  8  1  0
 10  7  1  0
M  END
>  <NAME>  (3908) 
2-PHENYLPROPANOL

>  <SYNONYMS>  (3908) 


>  <SPECTRUM TYPE>  (3908) 
MS1

>  <INSTRUMENT TYPE>  (3908) 
EI-B

>  <INSTRUMENT>  (3908) 
HITACHI M-80B

>  <ION MODE>  (3908) 
P

>  <INCHIKEY>  (3908) 
RNDNSYIPLPAXAZ-UHFFFAOYSA-N

>  <FORMULA>  (3908) 
C9H12O

>  <EXACT MASS>  (3908) 
136.088815004

>  <MW>  (3908) 
136

>  <ID>  (3908) 
JP006576

>  <CONTRIBUTOR>  (3908) 
University of Tokyo Team, {Faculty of Engineering, University of Tokyo

>  <COMMENT>  (3908) 
SMILES=OCC(C)c(c1)cccc1
InChI=InChI=1S/C9H12O/c1-8(7-10)9-5-3-2-4-6-9/h2-6,8,10H,7H2,1H3
computed SMILES=OCC(C=1C=CC=CC1)C
accession=JP006576
date=2016.01.19 (Created 2008.10.21, modified 2011.05.06)
author=HISAHIRO HAGIWARA, CHEMICAL RESEARCH INSTITUTE OF NON-AQUEOUSSOLUTIONS TOHOKU UNIV.
license=CC BY-NC-SA
exact mass=136.08882
ionization energy=70 eV
ion type=[M]+*
computed spectral entropy=2.487439124885332
computed normalized entropy=0.7313421850482925
SPLASH=splash10-0a4i-6900000000-96ed949de565de39d262
submitter=submitter = University of Tokyo Team (Faculty of Engineering, University of Tokyo)
MoNA Rating=3.75

>  <NUM PEAKS>  (3908) 
30

>  <MASS SPECTRAL PEAKS>  (3908) 
18 1.27
27 5.49
29 2.49
31 6.91
39 6.62
41 1.15
43 1.99
50 3.33
51 10.38
52 2.02
53 1.44
62 1.01
63 2.93
65 3.18
74 1.14
75 1.17
76 1.07
77 19.23
78 7.33
79 16.19
89 1.29
91 12.53
92 1.99
102 1.29
103 11.3
104 5.74
105 99.99
106 22.85
107 1.58
136 11.58

$$$$

     RDKit          2D

 10 10  0  0  0  0  0  0  0  0999 V2000
   -2.5989   -1.5002    0.0000 C   0  0  0  0  0  0  0  0  0  0  0  0
    3.8981    0.7504    0.0000 C   0  0  0  0  0  0  0  0  0  0  0  0
   -1.3000    0.7500    0.0000 C   0  0  0  0  0  0  0  0  0  0  0  0
   -0.0000   -1.5000    0.0000 C   0  0  0  0  0  0  0  0  0  0  0  0
    0.0000    1.5000    0.0000 C   0  0  0  0  0  0  0  0  0  0  0  0
    1.3000   -0.7500    0.0000 C   0  0  0  0  0  0  0  0  0  0  0  0
   -1.3000   -0.7500    0.0000 C   0  0  0  0  0  0  0  0  0  0  0  0
    2.5989    1.5002    0.0000 C   0  0  0  0  0  0  0  0  0  0  0  0
    1.3000    0.7500    0.0000 C   0  0  0  0  0  0  0  0  0  0  0  0
    2.5987    3.0002    0.0000 O   0  0  0  0  0  0  0  0  0  0  0  0
  5  3  2  0
  6  4  1  0
  7  1  1  0
  7  3  1  0
  7  4  2  0
  8  2  1  0
  9  5  1  0
  9  6  2  0
  9  8  1  0
 10  8  1  0
M  END
>  <NAME>  (3909) 
1-(4-METHYLPHENYL)ETHANOL

>  <SYNONYMS>  (3909) 
ALPHA,PARA-DIMETHYLBENZYL ALCOHOL

>  <SPECTRUM TYPE>  (3909) 
MS1

>  <INSTRUMENT TYPE>  (3909) 
EI-B

>  <INSTRUMENT>  (3909) 
HITACHI M-80B

>  <ION MODE>  (3909) 
P

>  <INCHIKEY>  (3909) 
JESIHYIJKKUWIS-UHFFFAOYSA-N

>  <FORMULA>  (3909) 
C9H12O

>  <EXACT MASS>  (3909) 
136.088815004

>  <MW>  (3909) 
136

>  <ID>  (3909) 
JP006575

>  <CONTRIBUTOR>  (3909) 
University of Tokyo Team, {Faculty of Engineering, University of Tokyo

>  <COMMENT>  (3909) 
SMILES=Cc(c1)ccc(c1)C(C)O
InChI=InChI=1S/C9H12O/c1-7-3-5-9(6-4-7)8(2)10/h3-6,8,10H,1-2H3
computed SMILES=OC(C1=CC=C(C=C1)C)C
accession=JP006575
date=2016.01.19 (Created 2008.10.21, modified 2011.05.06)
author=HISAHIRO HAGIWARA, CHEMICAL RESEARCH INSTITUTE OF NON-AQUEOUSSOLUTIONS TOHOKU UNIV.
license=CC BY-NC-SA
exact mass=136.08882
ionization energy=70 eV
ion type=[M]+*
computed spectral entropy=2.7476348871004324
computed normalized entropy=0.7398900136436243
SPLASH=splash10-006x-9500000000-cdcc4c37b1e66de2f9f1
submitter=submitter = University of Tokyo Team (Faculty of Engineering, University of Tokyo)
MoNA Rating=3.75

>  <NUM PEAKS>  (3909) 
41

>  <MASS SPECTRAL PEAKS>  (3909) 
15 1.68
27 3.36
29 1.98
38 1.01
39 9.58
41 2.87
43 32.39
44 1.1
45 2.67
50 2.67
51 7.45
52 1.7
53 1.85
60 3
62 1.92
63 5.24
64 1.4
65 14.71
66 1.59
67 1.85
77 29.26
78 4.52
79 1.43
89 3.71
90 1.6
91 43.9
92 14.45
93 68.18
94 4.57
103 1.38
105 1
115 2.75
117 2.76
118 1.61
119 7.05
120 1.37
121 99.99
122 9.23
135 1.96
136 39.1
137 3.29

$$$$

     RDKit          2D

 10 10  0  0  0  0  0  0  0  0999 V2000
    2.9231    0.5071    0.0000 C   0  0  0  0  0  0  0  0  0  0  0  0
    2.9236    2.0079    0.0000 C   0  0  0  0  0  0  0  0  0  0  0  0
    1.6236   -0.2437    0.0000 C   0  0  0  0  0  0  0  0  0  0  0  0
   -2.2731    2.0071    0.0000 C   0  0  0  0  0  0  0  0  0  0  0  0
    1.6245    2.7579    0.0000 C   0  0  0  0  0  0  0  0  0  0  0  0
    0.3245    0.5063    0.0000 C   0  0  0  0  0  0  0  0  0  0  0  0
   -0.9740    2.7571    0.0000 C   0  0  0  0  0  0  0  0  0  0  0  0
   -3.5721    2.7571    0.0000 C   0  0  0  0  0  0  0  0  0  0  0  0
    0.3250    2.0071    0.0000 C   0  0  0  0  0  0  0  0  0  0  0  0
   -4.8712    2.0071    0.0000 O   0  0  0  0  0  0  0  0  0  0  0  0
  2  1  2  0
  3  1  1  0
  5  2  1  0
  6  3  2  0
  7  4  1  0
  8  4  1  0
  9  5  2  0
  9  6  1  0
  9  7  1  0
 10  8  1  0
M  END
>  <NAME>  (3910) 
3-PHENYLPROPANOL

>  <SYNONYMS>  (3910) 
3-PHENYLPROPYL ALCOHOL

>  <SPECTRUM TYPE>  (3910) 
MS1

>  <INSTRUMENT TYPE>  (3910) 
EI-B

>  <INSTRUMENT>  (3910) 
HITACHI M-80B

>  <ION MODE>  (3910) 
P

>  <INCHIKEY>  (3910) 
VAJVDSVGBWFCLW-UHFFFAOYSA-N

>  <FORMULA>  (3910) 
C9H12O

>  <EXACT MASS>  (3910) 
136.088815004

>  <MW>  (3910) 
136

>  <ID>  (3910) 
JP006574

>  <CONTRIBUTOR>  (3910) 
University of Tokyo Team, {Faculty of Engineering, University of Tokyo

>  <COMMENT>  (3910) 
SMILES=OCCCc(c1)cccc1
InChI=InChI=1S/C9H12O/c10-8-4-7-9-5-2-1-3-6-9/h1-3,5-6,10H,4,7-8H2
computed SMILES=OCCCC=1C=CC=CC1
accession=JP006574
date=2016.01.19 (Created 2008.10.21, modified 2011.05.06)
author=HISAHIRO HAGIWARA, CHEMICAL RESEARCH INSTITUTE OF NON-AQUEOUSSOLUTIONS TOHOKU UNIV.
license=CC BY-NC-SA
exact mass=136.08882
ionization energy=70 eV
ion type=[M]+*
computed spectral entropy=3.079936037005014
computed normalized entropy=0.7833348486695111
SPLASH=splash10-00kf-9500000000-cc463a7ff1b75d911f86
submitter=submitter = University of Tokyo Team (Faculty of Engineering, University of Tokyo)
MoNA Rating=3.75

>  <NUM PEAKS>  (3910) 
51

>  <MASS SPECTRAL PEAKS>  (3910) 
15 1.12
17 1.53
18 9.72
26 1.47
27 9.1
29 5.76
31 13.04
38 2.05
39 13.52
41 3.31
43 1.83
45 2.18
50 6.61
51 19.19
52 4.6
53 2.35
55 1.33
57 1.43
58 1.11
62 2.29
63 8.3
64 1.8
65 22.2
66 2.17
74 2.16
75 2.07
76 1.94
77 24.51
78 15.33
79 12.31
80 1.09
89 4.19
90 2.04
91 99.99
92 53.09
93 3.08
94 3.24
102 1.64
103 11.11
104 5.85
105 13.25
106 1.82
107 1.22
115 4.22
116 2.68
117 72.29
118 56.67
119 4.72
134 3.26
136 24.92
137 1.92

$$$$

     RDKit          2D

 10 10  0  0  0  0  0  0  0  0999 V2000
    2.0490    0.5210    0.0000 C   0  0  0  0  0  0  0  0  0  0  0  0
    2.5981    2.5700    0.0000 C   0  0  0  0  0  0  0  0  0  0  0  0
   -2.5981   -0.4300    0.0000 C   0  0  0  0  0  0  0  0  0  0  0  0
   -1.2986   -1.1808    0.0000 C   0  0  0  0  0  0  0  0  0  0  0  0
   -2.5986    1.0708    0.0000 C   0  0  0  0  0  0  0  0  0  0  0  0
    0.0005   -0.4308    0.0000 C   0  0  0  0  0  0  0  0  0  0  0  0
   -1.2995    1.8208    0.0000 C   0  0  0  0  0  0  0  0  0  0  0  0
    0.0000    1.0700    0.0000 C   0  0  0  0  0  0  0  0  0  0  0  0
    1.2990    1.8200    0.0000 C   0  0  0  0  0  0  0  0  0  0  0  0
    0.5490    3.1190    0.0000 O   0  0  0  0  0  0  0  0  0  0  0  0
  4  3  2  0
  5  3  1  0
  6  4  1  0
  7  5  2  0
  8  6  2  0
  8  7  1  0
  9  1  1  0
  9  2  1  0
  9  8  1  0
 10  9  1  0
M  END
>  <NAME>  (3911) 
2-PHENYL-2-PROPANOL

>  <SYNONYMS>  (3911) 


>  <SPECTRUM TYPE>  (3911) 
MS1

>  <INSTRUMENT TYPE>  (3911) 
EI-B

>  <INSTRUMENT>  (3911) 
HITACHI M-80B

>  <ION MODE>  (3911) 
P

>  <INCHIKEY>  (3911) 
BDCFWIDZNLCTMF-UHFFFAOYSA-N

>  <FORMULA>  (3911) 
C9H12O

>  <EXACT MASS>  (3911) 
136.088815004

>  <MW>  (3911) 
136

>  <ID>  (3911) 
JP006573

>  <CONTRIBUTOR>  (3911) 
University of Tokyo Team, {Faculty of Engineering, University of Tokyo

>  <COMMENT>  (3911) 
SMILES=CC(C)(O)c(c1)cccc1
InChI=InChI=1S/C9H12O/c1-9(2,10)8-6-4-3-5-7-8/h3-7,10H,1-2H3
computed SMILES=OC(C=1C=CC=CC1)(C)C
accession=JP006573
date=2016.01.19 (Created 2008.10.21, modified 2011.05.06)
author=HISAHIRO HAGIWARA, CHEMICAL RESEARCH INSTITUTE OF NON-AQUEOUSSOLUTIONS TOHOKU UNIV.
license=CC BY-NC-SA
exact mass=136.08882
ionization energy=70 eV
ion type=[M]+*
computed spectral entropy=2.702135243096217
computed normalized entropy=0.7325084152811565
SPLASH=splash10-006x-9400000000-33a839b96222ea561977
submitter=submitter = University of Tokyo Team (Faculty of Engineering, University of Tokyo)
MoNA Rating=3.75

>  <NUM PEAKS>  (3911) 
40

>  <MASS SPECTRAL PEAKS>  (3911) 
15 3.28
18 2.42
27 3.04
29 1.09
31 2.39
38 1.3
39 6.81
41 2.58
43 99.99
44 2.41
50 5.22
51 15.85
52 3.12
53 1.19
58 1.75
59 3.82
61 2.82
62 1.27
63 3.54
65 3.46
74 1.78
75 1.64
76 1.75
77 16.44
78 13.89
79 1.68
89 1.15
91 8.17
93 1.09
102 1.82
103 9.63
104 1.13
105 2.76
115 3.36
117 10.65
118 14.29
119 2.13
121 54.6
122 4.21
136 2.52

$$$$

     RDKit          2D

 10 10  0  0  0  0  0  0  0  0999 V2000
    2.9231    0.5071    0.0000 C   0  0  0  0  0  0  0  0  0  0  0  0
    2.9236    2.0079    0.0000 C   0  0  0  0  0  0  0  0  0  0  0  0
    1.6236   -0.2437    0.0000 C   0  0  0  0  0  0  0  0  0  0  0  0
   -2.2731    2.0071    0.0000 C   0  0  0  0  0  0  0  0  0  0  0  0
    1.6245    2.7579    0.0000 C   0  0  0  0  0  0  0  0  0  0  0  0
    0.3245    0.5063    0.0000 C   0  0  0  0  0  0  0  0  0  0  0  0
   -0.9740    2.7571    0.0000 C   0  0  0  0  0  0  0  0  0  0  0  0
   -3.5721    2.7571    0.0000 C   0  0  0  0  0  0  0  0  0  0  0  0
    0.3250    2.0071    0.0000 C   0  0  0  0  0  0  0  0  0  0  0  0
   -4.8712    2.0071    0.0000 O   0  0  0  0  0  0  0  0  0  0  0  0
  2  1  2  0
  3  1  1  0
  5  2  1  0
  6  3  2  0
  4  7  2  0
  8  4  1  0
  9  5  2  0
  9  6  1  0
  9  7  1  0
 10  8  1  0
M  END
>  <NAME>  (3912) 
3-PHENYL-2-PROPEN-1-OL

>  <SYNONYMS>  (3912) 
CINNAMYL ALCOHOL

>  <SPECTRUM TYPE>  (3912) 
MS1

>  <INSTRUMENT TYPE>  (3912) 
EI-B

>  <INSTRUMENT>  (3912) 
HITACHI M-80B

>  <ION MODE>  (3912) 
P

>  <INCHIKEY>  (3912) 
OOCCDEMITAIZTP-QPJJXVBHSA-N

>  <FORMULA>  (3912) 
C9H10O

>  <EXACT MASS>  (3912) 
134.07316494

>  <MW>  (3912) 
134

>  <ID>  (3912) 
JP006572

>  <CONTRIBUTOR>  (3912) 
University of Tokyo Team, {Faculty of Engineering, University of Tokyo

>  <COMMENT>  (3912) 
SMILES=OCC=Cc(c1)cccc1
InChI=InChI=1S/C9H10O/c10-8-4-7-9-5-2-1-3-6-9/h1-7,10H,8H2/b7-4+
computed SMILES=OCC=CC=1C=CC=CC1
accession=JP006572
date=2016.01.19 (Created 2008.10.21, modified 2011.05.06)
author=HISAHIRO HAGIWARA, CHEMICAL RESEARCH INSTITUTE OF NON-AQUEOUSSOLUTIONS TOHOKU UNIV.
license=CC BY-NC-SA
exact mass=134.07316
ionization energy=70 eV
ion type=[M]+*
computed spectral entropy=3.2823490282159575
computed normalized entropy=0.8190856303917599
SPLASH=splash10-002f-9400000000-da49ee491f3478b8fa96
submitter=submitter = University of Tokyo Team (Faculty of Engineering, University of Tokyo)
MoNA Rating=3.75

>  <NUM PEAKS>  (3912) 
55

>  <MASS SPECTRAL PEAKS>  (3912) 
26 1.98
27 12.62
29 9.98
30 1.16
31 8.42
37 1.11
38 3.67
39 19.89
40 1.16
41 1.62
43 2.9
50 15.08
51 34.61
52 8.36
53 3.9
55 22.91
56 4.33
57 4.28
61 1.74
62 5.16
63 16.93
64 2.8
65 10.55
66 3
67 1.19
74 5.53
75 5.2
76 5.33
77 49.64
78 63.01
79 28.65
80 1.53
86 1.04
87 2.03
89 9.79
90 2.57
91 79.89
92 99.99
93 7.25
101 1.19
102 9.15
103 23.75
104 4.42
105 55.29
106 5.5
107 2.63
115 42.16
116 15.14
117 7.54
119 1.12
131 4.06
132 1.69
133 18.42
134 67.5
135 5.59

$$$$

     RDKit          2D

  9  9  0  0  0  0  0  0  0  0999 V2000
   -2.9228    0.8825    0.0000 C   0  0  0  0  0  0  0  0  0  0  0  0
    2.2733   -0.6175    0.0000 C   0  0  0  0  0  0  0  0  0  0  0  0
    2.2738    0.8833    0.0000 C   0  0  0  0  0  0  0  0  0  0  0  0
    0.9738   -1.3683    0.0000 C   0  0  0  0  0  0  0  0  0  0  0  0
    0.9748    1.6333    0.0000 C   0  0  0  0  0  0  0  0  0  0  0  0
   -0.3252   -0.6183    0.0000 C   0  0  0  0  0  0  0  0  0  0  0  0
   -1.6238    1.6325    0.0000 C   0  0  0  0  0  0  0  0  0  0  0  0
   -0.3248    0.8825    0.0000 C   0  0  0  0  0  0  0  0  0  0  0  0
   -1.6238    3.1325    0.0000 O   0  0  0  0  0  0  0  0  0  0  0  0
  3  2  2  0
  4  2  1  0
  5  3  1  0
  6  4  2  0
  7  1  1  0
  8  5  2  0
  8  6  1  0
  8  7  1  0
  9  7  1  0
M  END
>  <NAME>  (3913) 
1-PHENYLETHANOL

>  <SYNONYMS>  (3913) 


>  <SPECTRUM TYPE>  (3913) 
MS1

>  <INSTRUMENT TYPE>  (3913) 
EI-B

>  <INSTRUMENT>  (3913) 
HITACHI M-80B

>  <ION MODE>  (3913) 
P

>  <INCHIKEY>  (3913) 
WAPNOHKVXSQRPX-UHFFFAOYSA-N

>  <FORMULA>  (3913) 
C8H10O

>  <EXACT MASS>  (3913) 
122.07316494

>  <MW>  (3913) 
122

>  <ID>  (3913) 
JP006571

>  <CONTRIBUTOR>  (3913) 
University of Tokyo Team, {Faculty of Engineering, University of Tokyo

>  <COMMENT>  (3913) 
SMILES=CC(O)c(c1)cccc1
InChI=InChI=1S/C8H10O/c1-7(9)8-5-3-2-4-6-8/h2-7,9H,1H3
computed SMILES=OC(C=1C=CC=CC1)C
accession=JP006571
date=2016.01.19 (Created 2008.10.21, modified 2011.05.06)
author=HISAHIRO HAGIWARA, CHEMICAL RESEARCH INSTITUTE OF NON-AQUEOUSSOLUTIONS TOHOKU UNIV.
license=CC BY-NC-SA
exact mass=122.07316
ionization energy=70 eV
ion type=[M]+*
computed spectral entropy=2.8974114488325924
computed normalized entropy=0.7703422736650405
SPLASH=splash10-056r-9400000000-d6ce79b82cb4236f5801
submitter=submitter = University of Tokyo Team (Faculty of Engineering, University of Tokyo)
MoNA Rating=3.75

>  <NUM PEAKS>  (3913) 
43

>  <MASS SPECTRAL PEAKS>  (3913) 
15 3.48
17 1.63
18 9.39
26 1.53
27 8.54
29 4.42
31 3.04
38 2.83
39 10.94
41 1.07
42 1.25
43 37.69
44 1.47
45 6.69
49 1.08
50 14.53
51 35.21
52 7.27
53 3.76
54 5.32
62 2.23
63 4.82
65 2.62
74 4.51
75 3.08
76 3.12
77 71.08
78 26.44
79 97.18
80 5.78
89 1.3
91 2.91
102 1.47
103 5.46
104 8.56
105 28.92
106 2.37
107 99.99
108 8.13
120 5.29
121 5.4
122 31.3
123 2.1

$$$$

     RDKit          2D

  9  9  0  0  0  0  0  0  0  0999 V2000
    2.9228   -0.2425    0.0000 C   0  0  0  0  0  0  0  0  0  0  0  0
    2.9233    1.2583    0.0000 C   0  0  0  0  0  0  0  0  0  0  0  0
    1.6233   -0.9933    0.0000 C   0  0  0  0  0  0  0  0  0  0  0  0
    1.6243    2.0083    0.0000 C   0  0  0  0  0  0  0  0  0  0  0  0
    0.3243   -0.2433    0.0000 C   0  0  0  0  0  0  0  0  0  0  0  0
   -0.9743    2.0075    0.0000 C   0  0  0  0  0  0  0  0  0  0  0  0
   -2.2733    1.2575    0.0000 C   0  0  0  0  0  0  0  0  0  0  0  0
    0.3248    1.2575    0.0000 C   0  0  0  0  0  0  0  0  0  0  0  0
   -3.5724    2.0075    0.0000 O   0  0  0  0  0  0  0  0  0  0  0  0
  2  1  2  0
  3  1  1  0
  4  2  1  0
  5  3  2  0
  7  6  1  0
  8  4  2  0
  8  5  1  0
  8  6  1  0
  9  7  1  0
M  END
>  <NAME>  (3914) 
2-PHENYLETHANOL

>  <SYNONYMS>  (3914) 
PHENYLETHYL ALCOHOL

>  <SPECTRUM TYPE>  (3914) 
MS1

>  <INSTRUMENT TYPE>  (3914) 
EI-B

>  <INSTRUMENT>  (3914) 
HITACHI M-80B

>  <ION MODE>  (3914) 
P

>  <INCHIKEY>  (3914) 
WRMNZCZEMHIOCP-UHFFFAOYSA-N

>  <FORMULA>  (3914) 
C8H10O

>  <EXACT MASS>  (3914) 
122.07316494

>  <MW>  (3914) 
122

>  <ID>  (3914) 
JP006570

>  <CONTRIBUTOR>  (3914) 
University of Tokyo Team, {Faculty of Engineering, University of Tokyo

>  <COMMENT>  (3914) 
SMILES=OCCc(c1)cccc1
InChI=InChI=1S/C8H10O/c9-7-6-8-4-2-1-3-5-8/h1-5,9H,6-7H2
computed SMILES=OCCC=1C=CC=CC1
accession=JP006570
date=2016.01.19 (Created 2008.10.21, modified 2011.05.06)
author=HISAHIRO HAGIWARA, CHEMICAL RESEARCH INSTITUTE OF NON-AQUEOUSSOLUTIONS TOHOKU UNIV.
license=CC BY-NC-SA
exact mass=122.07316
ionization energy=70 eV
ion type=[M]+*
computed spectral entropy=2.2818257578259002
computed normalized entropy=0.6923357710335482
SPLASH=splash10-0006-9100000000-0ea4f78bf9f95dd3e378
submitter=submitter = University of Tokyo Team (Faculty of Engineering, University of Tokyo)
MoNA Rating=3.75

>  <NUM PEAKS>  (3914) 
27

>  <MASS SPECTRAL PEAKS>  (3914) 
18 2.19
27 2.29
29 2.55
31 8.29
38 1.59
39 10.56
41 2.2
43 1.07
50 4
51 8.27
52 2.03
62 1.93
63 6.31
64 1.55
65 18.24
66 1.12
77 5.4
78 4.34
89 2.92
90 1.63
91 99.99
92 55.28
93 4.08
103 2.22
104 2.25
122 23.48
123 1.78

$$$$

     RDKit          2D

  7  7  0  0  0  0  0  0  0  0999 V2000
   -1.1700   -1.2200    0.0000 C   0  0  0  0  0  0  0  0  0  0  0  0
    0.3300   -1.2200    0.0000 C   0  0  0  0  0  0  0  0  0  0  0  0
   -1.6300    0.2000    0.0000 C   0  0  0  0  0  0  0  0  0  0  0  0
    2.2271    0.6621    0.0000 C   0  0  0  0  0  0  0  0  0  0  0  0
    0.8000    0.2000    0.0000 C   0  0  0  0  0  0  0  0  0  0  0  0
    3.3407   -0.3428    0.0000 O   0  0  0  0  0  0  0  0  0  0  0  0
   -0.4200    1.0800    0.0000 O   0  0  0  0  0  0  0  0  0  0  0  0
  2  1  1  0
  3  1  1  0
  5  2  1  0
  5  4  1  0
  6  4  1  0
  7  3  1  0
  7  5  1  0
M  END
>  <NAME>  (3915) 
TETRAHYDROFURFURYL ALCOHOL

>  <SYNONYMS>  (3915) 


>  <SPECTRUM TYPE>  (3915) 
MS1

>  <INSTRUMENT TYPE>  (3915) 
EI-B

>  <INSTRUMENT>  (3915) 
HITACHI M-80B

>  <ION MODE>  (3915) 
P

>  <INCHIKEY>  (3915) 
BSYVTEYKTMYBMK-UHFFFAOYSA-N

>  <FORMULA>  (3915) 
C5H10O2

>  <EXACT MASS>  (3915) 
102.06807956

>  <MW>  (3915) 
102

>  <ID>  (3915) 
JP006569

>  <CONTRIBUTOR>  (3915) 
University of Tokyo Team, {Faculty of Engineering, University of Tokyo

>  <COMMENT>  (3915) 
SMILES=OCC(C1)OCC1
InChI=InChI=1S/C5H10O2/c6-4-5-2-1-3-7-5/h5-6H,1-4H2
computed SMILES=OCC1OCCC1
accession=JP006569
date=2016.01.19 (Created 2008.10.21, modified 2011.05.06)
author=HISAHIRO HAGIWARA, CHEMICAL RESEARCH INSTITUTE OF NON-AQUEOUSSOLUTIONS TOHOKU UNIV.
license=CC BY-NC-SA
exact mass=102.06808
ionization energy=70 eV
ion type=[M]+*
computed spectral entropy=2.213426404786737
computed normalized entropy=0.7160776463558183
SPLASH=splash10-006x-9000000000-9411d51655677813066a
submitter=submitter = University of Tokyo Team (Faculty of Engineering, University of Tokyo)
MoNA Rating=3.75

>  <NUM PEAKS>  (3915) 
22

>  <MASS SPECTRAL PEAKS>  (3915) 
15 3
26 1.76
27 21.9
28 1.28
29 14.49
30 1.02
31 18.12
38 1.34
39 13.17
40 2.38
41 33.81
42 12.44
43 62.37
44 8.67
45 1.03
53 1.47
55 1.58
57 3.25
61 1.32
70 3.84
71 99.99
72 4.57

$$$$

     RDKit          2D

  7  7  0  0  0  0  0  0  0  0999 V2000
   -1.1700   -1.2200    0.0000 C   0  0  0  0  0  0  0  0  0  0  0  0
    0.3300   -1.2200    0.0000 C   0  0  0  0  0  0  0  0  0  0  0  0
   -1.6300    0.2000    0.0000 C   0  0  0  0  0  0  0  0  0  0  0  0
    2.2271    0.6621    0.0000 C   0  0  0  0  0  0  0  0  0  0  0  0
    0.8000    0.2000    0.0000 C   0  0  0  0  0  0  0  0  0  0  0  0
    3.3407   -0.3428    0.0000 O   0  0  0  0  0  0  0  0  0  0  0  0
   -0.4200    1.0800    0.0000 O   0  0  0  0  0  0  0  0  0  0  0  0
  2  1  1  0
  3  1  2  0
  5  2  2  0
  5  4  1  0
  6  4  1  0
  7  3  1  0
  7  5  1  0
M  END
>  <NAME>  (3916) 
FURFURYL ALCOHOL

>  <SYNONYMS>  (3916) 


>  <SPECTRUM TYPE>  (3916) 
MS1

>  <INSTRUMENT TYPE>  (3916) 
EI-B

>  <INSTRUMENT>  (3916) 
HITACHI M-80B

>  <ION MODE>  (3916) 
P

>  <INCHIKEY>  (3916) 
XPFVYQJUAUNWIW-UHFFFAOYSA-N

>  <FORMULA>  (3916) 
C5H6O2

>  <EXACT MASS>  (3916) 
98.036779432

>  <MW>  (3916) 
98

>  <ID>  (3916) 
JP006568

>  <CONTRIBUTOR>  (3916) 
University of Tokyo Team, {Faculty of Engineering, University of Tokyo

>  <COMMENT>  (3916) 
SMILES=OCc(c1)occ1
InChI=InChI=1S/C5H6O2/c6-4-5-2-1-3-7-5/h1-3,6H,4H2
computed SMILES=OCC=1OC=CC1
accession=JP006568
date=2016.01.19 (Created 2008.10.21, modified 2011.05.06)
author=HISAHIRO HAGIWARA, CHEMICAL RESEARCH INSTITUTE OF NON-AQUEOUSSOLUTIONS TOHOKU UNIV.
license=CC BY-NC-SA
exact mass=98.03678
ionization energy=70 eV
ion type=[M]+*
computed spectral entropy=3.055423654865853
computed normalized entropy=0.8282796152252585
SPLASH=splash10-0005-9000000000-988efdbadbf9a5d447f9
submitter=submitter = University of Tokyo Team (Faculty of Engineering, University of Tokyo)
MoNA Rating=3.75

>  <NUM PEAKS>  (3916) 
40

>  <MASS SPECTRAL PEAKS>  (3916) 
14 2.1
15 3.13
25 1.42
26 9.2
27 26.45
29 36.22
30 2.59
31 18.24
36 1.43
37 12.85
38 22.95
39 70.35
40 8.35
41 76.23
42 56.72
43 11.7
44 9.29
49 3.61
50 15.29
51 20.51
52 15.15
53 49.73
54 3.13
55 13.78
56 1.23
66 1.53
67 1.56
68 3.57
69 33.62
70 35.06
71 2.3
79 1.28
80 1.03
81 58.82
82 2.62
95 5.75
96 1.14
97 50.32
98 99.99
99 5.35

$$$$

     RDKit          2D

 13 13  0  0  0  0  0  0  0  0999 V2000
   -3.1900    1.5500    0.0000 C   0  0  0  0  0  0  0  0  0  0  0  0
   -2.4400    0.2500    0.0000 C   0  0  0  0  0  0  0  0  0  0  0  0
   -2.4400    2.8500    0.0000 C   0  0  0  0  0  0  0  0  0  0  0  0
   -0.9400    0.2500    0.0000 C   0  0  0  0  0  0  0  0  0  0  0  0
   -0.9400    2.8500    0.0000 C   0  0  0  0  0  0  0  0  0  0  0  0
   -0.1900   -1.0500    0.0000 C   0  0  0  0  0  0  0  0  0  0  0  0
   -0.1900    4.1500    0.0000 C   0  0  0  0  0  0  0  0  0  0  0  0
    1.3100   -1.0500    0.0000 C   0  0  0  0  0  0  0  0  0  0  0  0
    1.3100    4.1500    0.0000 C   0  0  0  0  0  0  0  0  0  0  0  0
    2.0600    0.2500    0.0000 C   0  0  0  0  0  0  0  0  0  0  0  0
    2.0600    2.8500    0.0000 C   0  0  0  0  0  0  0  0  0  0  0  0
    1.3100    1.5500    0.0000 C   0  0  0  0  0  0  0  0  0  0  0  0
   -0.1900    1.5500    0.0000 O   0  0  0  0  0  0  0  0  0  0  0  0
  2  1  1  0
  3  1  1  0
  4  2  1  0
  5  3  1  0
  6  4  1  0
  7  5  1  0
  8  6  1  0
  9  7  1  0
 10  8  1  0
 11  9  1  0
 12 10  1  0
 12 11  1  0
 13 12  1  0
M  END
>  <NAME>  (3917) 
CYCLODODECANOL

>  <SYNONYMS>  (3917) 


>  <SPECTRUM TYPE>  (3917) 
MS1

>  <INSTRUMENT TYPE>  (3917) 
EI-B

>  <INSTRUMENT>  (3917) 
HITACHI M-80B

>  <ION MODE>  (3917) 
P

>  <INCHIKEY>  (3917) 
SFVWPXMPRCIVOK-UHFFFAOYSA-N

>  <FORMULA>  (3917) 
C12H24O

>  <EXACT MASS>  (3917) 
184.182715388

>  <MW>  (3917) 
184

>  <ID>  (3917) 
JP006567

>  <CONTRIBUTOR>  (3917) 
University of Tokyo Team, {Faculty of Engineering, University of Tokyo

>  <COMMENT>  (3917) 
SMILES=OC(C1)CCCCCCCCCC1
InChI=InChI=1S/C12H24O/c13-12-10-8-6-4-2-1-3-5-7-9-11-12/h12-13H,1-11H2
computed SMILES=OC1CCCCCCCCCCC1
accession=JP006567
date=2016.01.19 (Created 2008.10.21, modified 2011.05.06)
author=HISAHIRO HAGIWARA, CHEMICAL RESEARCH INSTITUTE OF NON-AQUEOUSSOLUTIONS TOHOKU UNIV.
license=CC BY-NC-SA
exact mass=184.18272
ionization energy=70 eV
ion type=[M]+*
computed spectral entropy=3.4710318101158983
computed normalized entropy=0.8548406666711958
SPLASH=splash10-0apl-9000000000-5987d46e0de87f305dc4
submitter=submitter = University of Tokyo Team (Faculty of Engineering, University of Tokyo)
MoNA Rating=3.75

>  <NUM PEAKS>  (3917) 
58

>  <MASS SPECTRAL PEAKS>  (3917) 
27 23.42
29 38.99
30 1.44
31 8.27
39 22.74
40 2.74
41 99.99
42 28.24
43 42.05
44 22.42
45 7.99
51 1.08
53 8.14
54 30.72
55 82.34
56 27.08
57 73.21
58 7.72
59 1.38
65 1.68
66 10.2
67 64.15
68 57.36
69 38.36
70 15.87
71 21.69
72 5.43
77 1.37
79 4.07
80 3.32
81 47.96
82 88.66
83 31.36
84 10.24
85 11.18
86 2.07
93 1.37
94 2.31
95 35.98
96 52.07
97 14
98 7.47
99 3.54
109 15.18
110 22.23
111 7.15
112 3.4
113 1.44
123 7.32
124 9.36
125 1.7
137 4.51
138 9.34
139 1.18
140 8.63
141 1.31
156 1.44
166 5.56

$$$$

     RDKit          2D

 11 11  0  0  0  0  0  0  0  0999 V2000
    2.6991    0.2013    0.0000 C   0  0  0  0  0  0  0  0  0  0  0  0
    3.2478    2.2504    0.0000 C   0  0  0  0  0  0  0  0  0  0  0  0
    1.1987    2.7991    0.0000 C   0  0  0  0  0  0  0  0  0  0  0  0
   -1.9500    0.7500    0.0000 C   0  0  0  0  0  0  0  0  0  0  0  0
   -1.9500   -0.7500    0.0000 C   0  0  0  0  0  0  0  0  0  0  0  0
   -0.6500    1.5000    0.0000 C   0  0  0  0  0  0  0  0  0  0  0  0
   -0.6500   -1.5000    0.0000 C   0  0  0  0  0  0  0  0  0  0  0  0
    0.6500    0.7500    0.0000 C   0  0  0  0  0  0  0  0  0  0  0  0
    0.6500   -0.7500    0.0000 C   0  0  0  0  0  0  0  0  0  0  0  0
    1.9489    1.5002    0.0000 C   0  0  0  0  0  0  0  0  0  0  0  0
    1.9489   -1.5002    0.0000 O   0  0  0  0  0  0  0  0  0  0  0  0
  5  4  1  0
  6  4  1  0
  7  5  1  0
  8  6  1  0
  9  7  1  0
  9  8  1  0
 10  1  1  0
 10  2  1  0
 10  3  1  0
 10  8  1  0
 11  9  1  0
M  END
>  <NAME>  (3918) 
2-TERT-BUTYLCYCLOHEXANOL

>  <SYNONYMS>  (3918) 


>  <SPECTRUM TYPE>  (3918) 
MS1

>  <INSTRUMENT TYPE>  (3918) 
EI-B

>  <INSTRUMENT>  (3918) 
HITACHI M-80B

>  <ION MODE>  (3918) 
P

>  <INCHIKEY>  (3918) 
DLTWBMHADAJAAZ-UHFFFAOYSA-N

>  <FORMULA>  (3918) 
C10H20O

>  <EXACT MASS>  (3918) 
156.15141526

>  <MW>  (3918) 
156

>  <ID>  (3918) 
JP006566

>  <CONTRIBUTOR>  (3918) 
University of Tokyo Team, {Faculty of Engineering, University of Tokyo

>  <COMMENT>  (3918) 
SMILES=OC(C1)C(CCC1)C(C)(C)C
InChI=InChI=1S/C10H20O/c1-10(2,3)8-6-4-5-7-9(8)11/h8-9,11H,4-7H2,1-3H3
computed SMILES=OC1CCCCC1C(C)(C)C
accession=JP006566
date=2016.01.19 (Created 2008.10.21, modified 2011.05.06)
author=HISAHIRO HAGIWARA, CHEMICAL RESEARCH INSTITUTE OF NON-AQUEOUSSOLUTIONS TOHOKU UNIV.
license=CC BY-NC-SA
exact mass=156.15142
ionization energy=70 eV
ion type=[M]+*
computed spectral entropy=2.9519111618152287
computed normalized entropy=0.7848322532742714
SPLASH=splash10-053r-9000000000-979b72006bcfd5659775
submitter=submitter = University of Tokyo Team (Faculty of Engineering, University of Tokyo)
MoNA Rating=3.75

>  <NUM PEAKS>  (3918) 
43

>  <MASS SPECTRAL PEAKS>  (3918) 
15 1.13
27 10.96
29 21.75
31 3.33
39 12.18
40 1.4
41 42.96
42 4.08
43 14.62
44 5.42
45 1.22
51 1.09
53 6.22
54 12.41
55 20.44
56 14.28
57 99.99
58 4.77
59 2.47
65 1.45
66 1.01
67 54.06
68 4.1
69 9.88
70 5.16
71 2.33
75 1.07
77 1.57
79 2.98
80 20.44
81 30.04
82 84.64
83 18.64
95 6.6
96 1.09
97 2.54
98 1.34
99 7.66
100 2.5
101 1.42
123 10.04
138 2.13
141 1.73

$$$$

     RDKit          2D

 11 12  0  0  1  0  0  0  0  0999 V2000
   -2.9500   -0.8900    0.0000 C   0  0  0  0  0  0  0  0  0  0  0  0
   -2.9500    0.6100    0.0000 C   0  0  0  0  0  0  0  0  0  0  0  0
   -1.6500   -1.6400    0.0000 C   0  0  0  0  0  0  0  0  0  0  0  0
   -1.6500    1.3600    0.0000 C   0  0  0  0  0  0  0  0  0  0  0  0
    0.9400   -1.6400    0.0000 C   0  0  0  0  0  0  0  0  0  0  0  0
    2.2400   -0.8900    0.0000 C   0  0  0  0  0  0  0  0  0  0  0  0
    0.9400    1.3600    0.0000 C   0  0  0  0  0  0  0  0  0  0  0  0
   -0.3500   -0.8900    0.0000 C   0  0  0  0  0  0  0  0  0  0  0  0
   -0.3500    0.6100    0.0000 C   0  0  0  0  0  0  0  0  0  0  0  0
    2.2400    0.6100    0.0000 C   0  0  0  0  0  0  0  0  0  0  0  0
    3.5389    1.3602    0.0000 O   0  0  0  0  0  0  0  0  0  0  0  0
  2  1  1  0
  3  1  1  0
  4  2  1  0
  6  5  1  0
  8  3  1  6
  8  5  1  0
  9  4  1  1
  9  7  1  0
  9  8  1  0
 10  6  1  0
 10  7  1  0
 11 10  1  0
M  END
>  <NAME>  (3919) 
TRANS-DECAHYDRO-BETA-NAPHTHOL

>  <SYNONYMS>  (3919) 
TRANS-3-HYDROXYBICYCLO(4.4.0)DECANE

>  <SPECTRUM TYPE>  (3919) 
MS1

>  <INSTRUMENT TYPE>  (3919) 
EI-B

>  <INSTRUMENT>  (3919) 
HITACHI M-80B

>  <ION MODE>  (3919) 
P

>  <INCHIKEY>  (3919) 
UPMAOXLCTXPPAG-XMCUXHSSSA-N

>  <FORMULA>  (3919) 
C10H18O

>  <EXACT MASS>  (3919) 
154.135765196

>  <MW>  (3919) 
154

>  <ID>  (3919) 
JP006565

>  <CONTRIBUTOR>  (3919) 
University of Tokyo Team, {Faculty of Engineering, University of Tokyo

>  <COMMENT>  (3919) 
SMILES=OC(C1)CC([H])(C2)C([H])(CCC2)C1
InChI=InChI=1S/C10H18O/c11-10-6-5-8-3-1-2-4-9(8)7-10/h8-11H,1-7H2/t8-,9-,10?/m0/s1
computed SMILES=OC1CCC2CCCCC2C1
accession=JP006565
date=2016.01.19 (Created 2008.10.21, modified 2011.05.06)
author=HISAHIRO HAGIWARA, CHEMICAL RESEARCH INSTITUTE OF NON-AQUEOUSSOLUTIONS TOHOKU UNIV.
license=CC BY-NC-SA
exact mass=154.13577
ionization energy=70 eV
ion type=[M]+*
computed spectral entropy=3.4543072787596496
computed normalized entropy=0.8581380073473257
SPLASH=splash10-000f-9200000000-7a76c308c5a215af8a24
submitter=submitter = University of Tokyo Team (Faculty of Engineering, University of Tokyo)
MoNA Rating=3.75

>  <NUM PEAKS>  (3919) 
56

>  <MASS SPECTRAL PEAKS>  (3919) 
15 1.61
26 1.21
27 25.21
28 2.57
29 27
30 1.08
31 6.04
39 30.25
40 4.27
41 62.92
42 7.76
43 16.03
44 10.58
45 2.03
50 1
51 4.01
52 2.46
53 17.32
54 21.44
55 63.06
56 5.66
57 16.59
58 2.42
65 5.58
66 6.05
67 54.75
68 19.03
69 13.31
70 14.18
71 2.31
77 10.34
78 3.94
79 35.61
80 18.99
81 38.55
82 14.9
83 10.89
84 1.93
91 5.42
92 1.17
93 25.53
94 79.99
95 65.44
96 5.81
97 18.71
98 1.83
107 29.96
108 21.11
109 2.65
110 8.34
111 1.6
121 34.13
122 3.03
135 2.48
136 99.99
137 10.24

$$$$

     RDKit          2D

  7  7  0  0  0  0  0  0  0  0999 V2000
   -1.6700   -0.9600    0.0000 C   0  0  0  0  0  0  0  0  0  0  0  0
   -1.6700    0.5400    0.0000 C   0  0  0  0  0  0  0  0  0  0  0  0
   -0.3700   -1.7100    0.0000 C   0  0  0  0  0  0  0  0  0  0  0  0
   -0.3700    1.2900    0.0000 C   0  0  0  0  0  0  0  0  0  0  0  0
    0.9300   -0.9600    0.0000 C   0  0  0  0  0  0  0  0  0  0  0  0
    0.9300    0.5400    0.0000 C   0  0  0  0  0  0  0  0  0  0  0  0
    2.2289    1.2902    0.0000 O   0  0  0  0  0  0  0  0  0  0  0  0
  2  1  1  0
  3  1  1  0
  4  2  1  0
  5  3  1  0
  6  4  1  0
  6  5  1  0
  7  6  1  0
M  END
>  <NAME>  (3920) 
CYCLOHEXANOL

>  <SYNONYMS>  (3920) 


>  <SPECTRUM TYPE>  (3920) 
MS1

>  <INSTRUMENT TYPE>  (3920) 
EI-B

>  <INSTRUMENT>  (3920) 
HITACHI M-80B

>  <ION MODE>  (3920) 
P

>  <INCHIKEY>  (3920) 
HPXRVTGHNJAIIH-UHFFFAOYSA-N

>  <FORMULA>  (3920) 
C6H12O

>  <EXACT MASS>  (3920) 
100.088815004

>  <MW>  (3920) 
100

>  <ID>  (3920) 
JP006564

>  <CONTRIBUTOR>  (3920) 
University of Tokyo Team, {Faculty of Engineering, University of Tokyo

>  <COMMENT>  (3920) 
SMILES=OC(C1)CCCC1
InChI=InChI=1S/C6H12O/c7-6-4-2-1-3-5-6/h6-7H,1-5H2
computed SMILES=OC1CCCCC1
accession=JP006564
date=2016.01.19 (Created 2008.10.21, modified 2011.05.06)
author=HISAHIRO HAGIWARA, CHEMICAL RESEARCH INSTITUTE OF NON-AQUEOUSSOLUTIONS TOHOKU UNIV.
license=CC BY-NC-SA
exact mass=100.08882
ionization energy=70 eV
ion type=[M]+*
computed spectral entropy=2.7615403043538866
computed normalized entropy=0.7767285386953132
SPLASH=splash10-0a4i-9000000000-f39d1dfb175a6355d672
submitter=submitter = University of Tokyo Team (Faculty of Engineering, University of Tokyo)
MoNA Rating=3.75

>  <NUM PEAKS>  (3920) 
35

>  <MASS SPECTRAL PEAKS>  (3920) 
15 1.29
18 7.09
26 1.07
27 8.59
28 2.68
29 8.63
31 4.96
38 1.19
39 10.16
40 2.08
41 20.35
42 6.43
43 8.97
44 25.01
45 3.7
50 1.4
51 1.88
53 3.89
54 8.26
55 7.03
56 10.2
57 99.99
58 7.79
59 1.33
67 21.14
68 1.65
71 11.05
72 6.18
79 1.49
81 4.12
82 51.66
83 3.35
85 1.12
99 1.31
100 3.16

$$$$

     RDKit          2D

  7  7  0  0  0  0  0  0  0  0999 V2000
   -1.6700   -0.9600    0.0000 C   0  0  0  0  0  0  0  0  0  0  0  0
   -1.6700    0.5400    0.0000 C   0  0  0  0  0  0  0  0  0  0  0  0
   -0.3700   -1.7100    0.0000 C   0  0  0  0  0  0  0  0  0  0  0  0
   -0.3700    1.2900    0.0000 C   0  0  0  0  0  0  0  0  0  0  0  0
    0.9300   -0.9600    0.0000 C   0  0  0  0  0  0  0  0  0  0  0  0
    0.9300    0.5400    0.0000 C   0  0  0  0  0  0  0  0  0  0  0  0
    2.2289    1.2902    0.0000 O   0  0  0  0  0  0  0  0  0  0  0  0
  2  1  1  0
  3  1  1  0
  4  2  2  0
  5  3  1  0
  6  4  1  0
  6  5  1  0
  7  6  1  0
M  END
>  <NAME>  (3921) 
2-CYCLOHEXEN-1-OL

>  <SYNONYMS>  (3921) 


>  <SPECTRUM TYPE>  (3921) 
MS1

>  <INSTRUMENT TYPE>  (3921) 
EI-B

>  <INSTRUMENT>  (3921) 
HITACHI M-80B

>  <ION MODE>  (3921) 
P

>  <INCHIKEY>  (3921) 
PQANGXXSEABURG-UHFFFAOYSA-N

>  <FORMULA>  (3921) 
C6H10O

>  <EXACT MASS>  (3921) 
98.07316494

>  <MW>  (3921) 
98

>  <ID>  (3921) 
JP006563

>  <CONTRIBUTOR>  (3921) 
University of Tokyo Team, {Faculty of Engineering, University of Tokyo

>  <COMMENT>  (3921) 
SMILES=OC(C1)C=CCC1
InChI=InChI=1S/C6H10O/c7-6-4-2-1-3-5-6/h2,4,6-7H,1,3,5H2
computed SMILES=OC1C=CCCC1
accession=JP006563
date=2016.01.19 (Created 2008.10.21, modified 2011.05.06)
author=HISAHIRO HAGIWARA, CHEMICAL RESEARCH INSTITUTE OF NON-AQUEOUSSOLUTIONS TOHOKU UNIV.
license=CC BY-NC-SA
exact mass=98.07316
ionization energy=70 eV
ion type=[M]+*
computed spectral entropy=3.109857680826224
computed normalized entropy=0.8430358648228606
SPLASH=splash10-00dj-9000000000-cdf87f5ebe345a3c19f7
submitter=submitter = University of Tokyo Team (Faculty of Engineering, University of Tokyo)
MoNA Rating=3.75

>  <NUM PEAKS>  (3921) 
40

>  <MASS SPECTRAL PEAKS>  (3921) 
15 2.58
26 3.53
27 22.11
28 4.02
29 14.74
31 5.8
37 1.26
38 4.79
39 33.29
40 6.36
41 28.27
42 19.2
43 15.61
44 3.74
50 5.35
51 8.25
52 4.21
53 9.24
54 7.46
55 27.46
56 3.55
57 10.58
63 1.5
65 2.75
66 1.64
67 6.53
68 3.04
69 26.1
70 99.99
71 5.42
77 6.62
78 1.5
79 13.01
80 5.27
81 3.23
83 36.49
84 1.6
97 29.37
98 34.24
99 1.94

$$$$

     RDKit          2D

  8  8  0  0  0  0  0  0  0  0999 V2000
    2.2733   -0.6175    0.0000 C   0  0  0  0  0  0  0  0  0  0  0  0
    2.2738    0.8833    0.0000 C   0  0  0  0  0  0  0  0  0  0  0  0
    0.9738   -1.3683    0.0000 C   0  0  0  0  0  0  0  0  0  0  0  0
    0.9748    1.6333    0.0000 C   0  0  0  0  0  0  0  0  0  0  0  0
   -0.3252   -0.6183    0.0000 C   0  0  0  0  0  0  0  0  0  0  0  0
   -1.6238    1.6325    0.0000 C   0  0  0  0  0  0  0  0  0  0  0  0
   -0.3248    0.8825    0.0000 C   0  0  0  0  0  0  0  0  0  0  0  0
   -2.9228    0.8825    0.0000 O   0  0  0  0  0  0  0  0  0  0  0  0
  2  1  2  0
  3  1  1  0
  4  2  1  0
  5  3  2  0
  7  4  2  0
  7  5  1  0
  7  6  1  0
  8  6  1  0
M  END
>  <NAME>  (3922) 
BENZYL ALCOHOL

>  <SYNONYMS>  (3922) 
PHENYLMETHANOL

>  <SPECTRUM TYPE>  (3922) 
MS1

>  <INSTRUMENT TYPE>  (3922) 
EI-B

>  <INSTRUMENT>  (3922) 
HITACHI M-80B

>  <ION MODE>  (3922) 
P

>  <INCHIKEY>  (3922) 
WVDDGKGOMKODPV-UHFFFAOYSA-N

>  <FORMULA>  (3922) 
C7H8O

>  <EXACT MASS>  (3922) 
108.057514876

>  <MW>  (3922) 
108

>  <ID>  (3922) 
JP006562

>  <CONTRIBUTOR>  (3922) 
University of Tokyo Team, {Faculty of Engineering, University of Tokyo

>  <COMMENT>  (3922) 
SMILES=OCc(c1)cccc1
InChI=InChI=1S/C7H8O/c8-6-7-4-2-1-3-5-7/h1-5,8H,6H2
computed SMILES=OCC=1C=CC=CC1
accession=JP006562
date=2016.01.19 (Created 2008.10.21, modified 2011.05.06)
author=HISAHIRO HAGIWARA, CHEMICAL RESEARCH INSTITUTE OF NON-AQUEOUSSOLUTIONS TOHOKU UNIV.
license=CC BY-NC-SA
exact mass=108.05751
ionization energy=70 eV
ion type=[M]+*
computed spectral entropy=2.6190783714055774
computed normalized entropy=0.749055543385441
SPLASH=splash10-056r-9400000000-dd0878988e7c2d9a5431
submitter=submitter = University of Tokyo Team (Faculty of Engineering, University of Tokyo)
MoNA Rating=3.75

>  <NUM PEAKS>  (3922) 
33

>  <MASS SPECTRAL PEAKS>  (3922) 
26 1.41
27 6.11
29 5.04
31 3.6
37 1.67
38 3.41
39 12.11
49 1.29
50 14.23
51 26.12
52 7.46
53 5.5
54 1
61 1.3
62 2.77
63 6.88
64 1.55
65 7.4
74 3.45
75 2.25
76 1.6
77 56.72
78 12.43
79 99.99
80 10.1
89 6.21
90 8.2
91 16.19
92 1.04
105 3.29
107 66.2
108 94.91
109 7.36

$$$$

     RDKit          2D

 10  9  0  0  0  0  0  0  0  0999 V2000
    0.5760    3.4486    0.0000 C   0  0  0  0  0  0  0  0  0  0  0  0
    1.3260   -0.8505    0.0000 C   0  0  0  0  0  0  0  0  0  0  0  0
   -0.1740    1.7476    0.0000 C   0  0  0  0  0  0  0  0  0  0  0  0
   -0.7231   -0.3014    0.0000 C   0  0  0  0  0  0  0  0  0  0  0  0
    3.1740    3.4486    0.0000 C   0  0  0  0  0  0  0  0  0  0  0  0
    3.1740    4.9486    0.0000 C   0  0  0  0  0  0  0  0  0  0  0  0
    1.8750    1.1986    0.0000 C   0  0  0  0  0  0  0  0  0  0  0  0
    1.8750    2.6986    0.0000 C   0  0  0  0  0  0  0  0  0  0  0  0
    0.5760    0.4486    0.0000 C   0  0  0  0  0  0  0  0  0  0  0  0
    4.4731    5.6986    0.0000 O   0  0  0  0  0  0  0  0  0  0  0  0
  6  5  1  0
  8  1  1  0
  8  5  1  0
  8  7  1  0
  9  2  1  0
  9  3  1  0
  9  4  1  0
  9  7  1  0
 10  6  1  0
M  END
>  <NAME>  (3923) 
3,5,5-TRIMETHYLHEXANOL

>  <SYNONYMS>  (3923) 


>  <SPECTRUM TYPE>  (3923) 
MS1

>  <INSTRUMENT TYPE>  (3923) 
EI-B

>  <INSTRUMENT>  (3923) 
HITACHI M-80B

>  <ION MODE>  (3923) 
P

>  <INCHIKEY>  (3923) 
BODRLKRKPXBDBN-UHFFFAOYSA-N

>  <FORMULA>  (3923) 
C9H20O

>  <EXACT MASS>  (3923) 
144.15141526

>  <MW>  (3923) 
144

>  <ID>  (3923) 
JP006561

>  <CONTRIBUTOR>  (3923) 
University of Tokyo Team, {Faculty of Engineering, University of Tokyo

>  <COMMENT>  (3923) 
SMILES=OCCC(C)CC(C)(C)C
InChI=InChI=1S/C9H20O/c1-8(5-6-10)7-9(2,3)4/h8,10H,5-7H2,1-4H3
computed SMILES=OCCC(C)CC(C)(C)C
accession=JP006561
date=2016.01.19 (Created 2008.10.21, modified 2011.05.06)
author=HISAHIRO HAGIWARA, CHEMICAL RESEARCH INSTITUTE OF NON-AQUEOUSSOLUTIONS TOHOKU UNIV.
license=CC BY-NC-SA
exact mass=144.15142
ionization energy=70 eV
ion type=[M]+*
computed spectral entropy=2.5943186281803365
computed normalized entropy=0.7962681884668057
SPLASH=splash10-0a4i-9000000000-32d5af9fae2189a99b78
submitter=submitter = University of Tokyo Team (Faculty of Engineering, University of Tokyo)
MoNA Rating=3.75

>  <NUM PEAKS>  (3923) 
26

>  <MASS SPECTRAL PEAKS>  (3923) 
27 8.84
28 1.27
29 16.41
31 13.09
39 9.38
40 1.71
41 40.08
42 6.13
43 18.81
44 1.08
45 1.43
53 2
55 21.24
56 36.58
57 99.99
58 3.23
67 1.12
69 28.05
70 10.05
71 6.75
83 6.66
85 2.29
86 1.94
87 10.83
111 5.82
129 7.48

$$$$

     RDKit          2D

 10  9  0  0  0  0  0  0  0  0999 V2000
    2.5981    4.5000    0.0000 C   0  0  0  0  0  0  0  0  0  0  0  0
   -7.7942    4.5000    0.0000 C   0  0  0  0  0  0  0  0  0  0  0  0
    1.2990    5.2500    0.0000 C   0  0  0  0  0  0  0  0  0  0  0  0
   -6.4952    5.2500    0.0000 C   0  0  0  0  0  0  0  0  0  0  0  0
    0.0000    4.5000    0.0000 C   0  0  0  0  0  0  0  0  0  0  0  0
   -5.1962    4.5000    0.0000 C   0  0  0  0  0  0  0  0  0  0  0  0
   -1.2990    5.2500    0.0000 C   0  0  0  0  0  0  0  0  0  0  0  0
   -3.8971    5.2500    0.0000 C   0  0  0  0  0  0  0  0  0  0  0  0
   -2.5981    4.5000    0.0000 C   0  0  0  0  0  0  0  0  0  0  0  0
   -2.5981    3.0000    0.0000 O   0  0  0  0  0  0  0  0  0  0  0  0
  3  1  1  0
  4  2  1  0
  5  3  1  0
  6  4  1  0
  7  5  1  0
  8  6  1  0
  9  7  1  0
  9  8  1  0
 10  9  1  0
M  END
>  <NAME>  (3924) 
5-NONANOL

>  <SYNONYMS>  (3924) 


>  <SPECTRUM TYPE>  (3924) 
MS1

>  <INSTRUMENT TYPE>  (3924) 
EI-B

>  <INSTRUMENT>  (3924) 
HITACHI M-80B

>  <ION MODE>  (3924) 
P

>  <INCHIKEY>  (3924) 
FCBBRODPXVPZAH-UHFFFAOYSA-N

>  <FORMULA>  (3924) 
C9H20O

>  <EXACT MASS>  (3924) 
144.15141526

>  <MW>  (3924) 
144

>  <ID>  (3924) 
JP006560

>  <CONTRIBUTOR>  (3924) 
University of Tokyo Team, {Faculty of Engineering, University of Tokyo

>  <COMMENT>  (3924) 
SMILES=CCCCC(O)CCCC
InChI=InChI=1S/C9H20O/c1-3-5-7-9(10)8-6-4-2/h9-10H,3-8H2,1-2H3
computed SMILES=OC(CCCC)CCCC
accession=JP006560
date=2016.01.19 (Created 2008.10.21, modified 2011.05.06)
author=HISAHIRO HAGIWARA, CHEMICAL RESEARCH INSTITUTE OF NON-AQUEOUSSOLUTIONS TOHOKU UNIV.
license=CC BY-NC-SA
exact mass=144.15142
ionization energy=70 eV
ion type=[M]+*
computed spectral entropy=2.1987735458564446
computed normalized entropy=0.7339686410788394
SPLASH=splash10-014r-9000000000-d5ba4297d392507c447d
submitter=submitter = University of Tokyo Team (Faculty of Engineering, University of Tokyo)
MoNA Rating=3.75

>  <NUM PEAKS>  (3924) 
20

>  <MASS SPECTRAL PEAKS>  (3924) 
27 10.34
29 13.69
31 4.57
39 5.17
41 32.04
42 2.28
43 11.2
44 5.91
45 9.05
53 1.05
55 5.96
56 1.8
57 10.46
58 2.46
69 99.99
70 6.08
86 4.5
87 57.75
88 2.66
126 1.6

$$$$

     RDKit          2D

  7  6  0  0  0  0  0  0  0  0999 V2000
    1.2545    2.3272    0.0000 C   0  0  0  0  0  0  0  0  0  0  0  0
   -3.9417    2.3272    0.0000 C   0  0  0  0  0  0  0  0  0  0  0  0
   -2.3078    1.1781    0.0000 C   0  0  0  0  0  0  0  0  0  0  0  0
   -0.0445    3.0772    0.0000 C   0  0  0  0  0  0  0  0  0  0  0  0
   -2.6426    3.0772    0.0000 C   0  0  0  0  0  0  0  0  0  0  0  0
   -1.3436    2.3272    0.0000 C   0  0  0  0  0  0  0  0  0  0  0  0
   -0.3794    1.1781    0.0000 O   0  0  0  0  0  0  0  0  0  0  0  0
  4  1  1  0
  5  2  1  0
  6  3  1  0
  6  4  1  0
  6  5  1  0
  7  6  1  0
M  END
>  <NAME>  (3925) 
3-METHYL-3-PENTANOL

>  <SYNONYMS>  (3925) 


>  <SPECTRUM TYPE>  (3925) 
MS1

>  <INSTRUMENT TYPE>  (3925) 
EI-B

>  <INSTRUMENT>  (3925) 
HITACHI M-80B

>  <ION MODE>  (3925) 
P

>  <INCHIKEY>  (3925) 
FRDAATYAJDYRNW-UHFFFAOYSA-N

>  <FORMULA>  (3925) 
C6H14O

>  <EXACT MASS>  (3925) 
102.104465068

>  <MW>  (3925) 
102

>  <ID>  (3925) 
JP006559

>  <CONTRIBUTOR>  (3925) 
University of Tokyo Team, {Faculty of Engineering, University of Tokyo

>  <COMMENT>  (3925) 
SMILES=CCC(C)(O)CC
InChI=InChI=1S/C6H14O/c1-4-6(3,7)5-2/h7H,4-5H2,1-3H3
computed SMILES=OC(C)(CC)CC
accession=JP006559
date=2016.01.19 (Created 2008.10.21, modified 2011.05.06)
author=HISAHIRO HAGIWARA, CHEMICAL RESEARCH INSTITUTE OF NON-AQUEOUSSOLUTIONS TOHOKU UNIV.
license=CC BY-NC-SA
exact mass=102.10447
ionization energy=70 eV
ion type=[M]+*
computed spectral entropy=2.2318211143111726
computed normalized entropy=0.6933542130046462
SPLASH=splash10-00di-9000000000-94936982b2ae74132d06
submitter=submitter = University of Tokyo Team (Faculty of Engineering, University of Tokyo)
MoNA Rating=3.75

>  <NUM PEAKS>  (3925) 
25

>  <MASS SPECTRAL PEAKS>  (3925) 
15 1.75
18 3.8
26 1.2
27 8.05
29 8.88
31 3.9
39 3.24
41 6.44
42 1.42
43 14.71
44 1.18
45 16.02
46 1.12
51 1.1
53 2.22
55 26.13
56 2.48
57 4.01
58 1.12
69 3.83
71 1.01
73 99.99
74 5.24
85 2.06
87 11.22

$$$$

     RDKit          2D

  7  6  0  0  0  0  0  0  0  0999 V2000
   -3.8971    2.2500    0.0000 C   0  0  0  0  0  0  0  0  0  0  0  0
    1.2990    2.2500    0.0000 C   0  0  0  0  0  0  0  0  0  0  0  0
   -0.0000    0.0000    0.0000 C   0  0  0  0  0  0  0  0  0  0  0  0
   -2.5981    1.5000    0.0000 C   0  0  0  0  0  0  0  0  0  0  0  0
    0.0000    1.5000    0.0000 C   0  0  0  0  0  0  0  0  0  0  0  0
   -1.2990    2.2500    0.0000 C   0  0  0  0  0  0  0  0  0  0  0  0
   -1.2990    3.7500    0.0000 O   0  0  0  0  0  0  0  0  0  0  0  0
  4  1  1  0
  5  2  1  0
  5  3  1  0
  6  4  1  0
  6  5  1  0
  7  6  1  0
M  END
>  <NAME>  (3926) 
2-METHYL-3-PENTANOL

>  <SYNONYMS>  (3926) 


>  <SPECTRUM TYPE>  (3926) 
MS1

>  <INSTRUMENT TYPE>  (3926) 
EI-B

>  <INSTRUMENT>  (3926) 
HITACHI M-80B

>  <ION MODE>  (3926) 
P

>  <INCHIKEY>  (3926) 
ISTJMQSHILQAEC-UHFFFAOYSA-N

>  <FORMULA>  (3926) 
C6H14O

>  <EXACT MASS>  (3926) 
102.104465068

>  <MW>  (3926) 
102

>  <ID>  (3926) 
JP006558

>  <CONTRIBUTOR>  (3926) 
University of Tokyo Team, {Faculty of Engineering, University of Tokyo

>  <COMMENT>  (3926) 
SMILES=CCC(O)C(C)C
InChI=InChI=1S/C6H14O/c1-4-6(7)5(2)3/h5-7H,4H2,1-3H3
computed SMILES=OC(CC)C(C)C
accession=JP006558
date=2016.01.19 (Created 2008.10.21, modified 2011.05.06)
author=HISAHIRO HAGIWARA, CHEMICAL RESEARCH INSTITUTE OF NON-AQUEOUSSOLUTIONS TOHOKU UNIV.
license=CC BY-NC-SA
exact mass=102.10447
ionization energy=70 eV
ion type=[M]+*
computed spectral entropy=2.471875375423289
computed normalized entropy=0.7679312623140727
SPLASH=splash10-0a4i-9000000000-9dace1460b3d91f745fa
submitter=submitter = University of Tokyo Team (Faculty of Engineering, University of Tokyo)
MoNA Rating=3.75

>  <NUM PEAKS>  (3926) 
25

>  <MASS SPECTRAL PEAKS>  (3926) 
15 2.26
26 1.44
27 18.68
28 3.12
29 12.44
30 1.24
31 41.96
39 10.64
40 1.32
41 28.17
42 3.22
43 16.58
44 1.06
45 14.04
53 1.15
55 21.1
56 1.46
57 8.66
58 21.8
59 99.99
60 3.37
69 1.78
72 1.25
73 39.5
74 1.36

$$$$

     RDKit          2D

  7  6  0  0  0  0  0  0  0  0999 V2000
   -4.2219    2.8125    0.0000 C   0  0  0  0  0  0  0  0  0  0  0  0
   -1.0748    0.7635    0.0000 C   0  0  0  0  0  0  0  0  0  0  0  0
    0.9743    1.3125    0.0000 C   0  0  0  0  0  0  0  0  0  0  0  0
   -2.9228    2.0625    0.0000 C   0  0  0  0  0  0  0  0  0  0  0  0
   -1.6238    2.8125    0.0000 C   0  0  0  0  0  0  0  0  0  0  0  0
   -0.3248    2.0625    0.0000 C   0  0  0  0  0  0  0  0  0  0  0  0
    0.4252    3.3615    0.0000 O   0  0  0  0  0  0  0  0  0  0  0  0
  4  1  1  0
  5  4  1  0
  6  2  1  0
  6  3  1  0
  6  5  1  0
  7  6  1  0
M  END
>  <NAME>  (3927) 
2-METHYL-2-PENTANOL

>  <SYNONYMS>  (3927) 


>  <SPECTRUM TYPE>  (3927) 
MS1

>  <INSTRUMENT TYPE>  (3927) 
EI-B

>  <INSTRUMENT>  (3927) 
HITACHI M-80B

>  <ION MODE>  (3927) 
P

>  <INCHIKEY>  (3927) 
WFRBDWRZVBPBDO-UHFFFAOYSA-N

>  <FORMULA>  (3927) 
C6H14O

>  <EXACT MASS>  (3927) 
102.104465068

>  <MW>  (3927) 
102

>  <ID>  (3927) 
JP006557

>  <CONTRIBUTOR>  (3927) 
University of Tokyo Team, {Faculty of Engineering, University of Tokyo

>  <COMMENT>  (3927) 
SMILES=CCCC(C)(C)O
InChI=InChI=1S/C6H14O/c1-4-5-6(2,3)7/h7H,4-5H2,1-3H3
computed SMILES=OC(C)(C)CCC
accession=JP006557
date=2016.01.19 (Created 2008.10.21, modified 2011.05.06)
author=HISAHIRO HAGIWARA, CHEMICAL RESEARCH INSTITUTE OF NON-AQUEOUSSOLUTIONS TOHOKU UNIV.
license=CC BY-NC-SA
exact mass=102.10447
ionization energy=70 eV
ion type=[M]+*
computed spectral entropy=2.1673984334590455
computed normalized entropy=0.7234953712628497
SPLASH=splash10-0a4i-9000000000-e726299a37866c6ee997
submitter=submitter = University of Tokyo Team (Faculty of Engineering, University of Tokyo)
MoNA Rating=3.75

>  <NUM PEAKS>  (3927) 
20

>  <MASS SPECTRAL PEAKS>  (3927) 
15 2.87
27 9.45
28 1.25
29 5.1
31 12.54
39 7.45
41 16.86
42 1.53
43 18.86
45 33.52
55 1.54
56 1.11
57 2.19
58 3.17
59 99.99
60 3.49
69 7.44
85 2.53
87 26.9
88 1.24

$$$$

     RDKit          2D

  7  6  0  0  0  0  0  0  0  0999 V2000
   -3.5724    3.9375    0.0000 C   0  0  0  0  0  0  0  0  0  0  0  0
   -2.2733    1.6875    0.0000 C   0  0  0  0  0  0  0  0  0  0  0  0
    0.3248    3.1875    0.0000 C   0  0  0  0  0  0  0  0  0  0  0  0
   -0.9743    3.9375    0.0000 C   0  0  0  0  0  0  0  0  0  0  0  0
    1.6238    3.9375    0.0000 C   0  0  0  0  0  0  0  0  0  0  0  0
   -2.2733    3.1875    0.0000 C   0  0  0  0  0  0  0  0  0  0  0  0
    2.9228    3.1875    0.0000 O   0  0  0  0  0  0  0  0  0  0  0  0
  4  3  1  0
  5  3  1  0
  6  1  1  0
  6  2  1  0
  6  4  1  0
  7  5  1  0
M  END
>  <NAME>  (3928) 
4-METHYLPENTANOL

>  <SYNONYMS>  (3928) 
ISOHEXANOL

>  <SPECTRUM TYPE>  (3928) 
MS1

>  <INSTRUMENT TYPE>  (3928) 
EI-B

>  <INSTRUMENT>  (3928) 
HITACHI M-80B

>  <ION MODE>  (3928) 
P

>  <INCHIKEY>  (3928) 
PCWGTDULNUVNBN-UHFFFAOYSA-N

>  <FORMULA>  (3928) 
C6H14O

>  <EXACT MASS>  (3928) 
102.104465068

>  <MW>  (3928) 
102

>  <ID>  (3928) 
JP006556

>  <CONTRIBUTOR>  (3928) 
University of Tokyo Team, {Faculty of Engineering, University of Tokyo

>  <COMMENT>  (3928) 
SMILES=OCCCC(C)C
InChI=InChI=1S/C6H14O/c1-6(2)4-3-5-7/h6-7H,3-5H2,1-2H3
computed SMILES=OCCCC(C)C
accession=JP006556
date=2016.01.19 (Created 2008.10.21, modified 2011.05.06)
author=HISAHIRO HAGIWARA, CHEMICAL RESEARCH INSTITUTE OF NON-AQUEOUSSOLUTIONS TOHOKU UNIV.
license=CC BY-NC-SA
exact mass=102.10447
ionization energy=70 eV
ion type=[M]+*
computed spectral entropy=2.4302321466568713
computed normalized entropy=0.7646919392774414
SPLASH=splash10-052f-9000000000-238beab3724f409e2a94
submitter=submitter = University of Tokyo Team (Faculty of Engineering, University of Tokyo)
MoNA Rating=3.75

>  <NUM PEAKS>  (3928) 
24

>  <MASS SPECTRAL PEAKS>  (3928) 
15 1.91
26 1.23
27 20.99
28 3.43
29 16.53
31 25.95
39 16.92
40 2.5
41 63.96
42 42.1
43 50.13
44 2
45 3.53
53 2.15
55 11.76
56 99.99
57 10.88
59 1.23
60 1.28
67 1.02
69 40.38
70 2.13
83 1.36
84 4.22

$$$$

     RDKit          2D

  7  6  0  0  0  0  0  0  0  0999 V2000
    1.9486    2.6250    0.0000 C   0  0  0  0  0  0  0  0  0  0  0  0
   -0.6495    1.1250    0.0000 C   0  0  0  0  0  0  0  0  0  0  0  0
    0.6495    3.3750    0.0000 C   0  0  0  0  0  0  0  0  0  0  0  0
   -1.9486    3.3750    0.0000 C   0  0  0  0  0  0  0  0  0  0  0  0
   -3.2476    2.6250    0.0000 C   0  0  0  0  0  0  0  0  0  0  0  0
   -0.6495    2.6250    0.0000 C   0  0  0  0  0  0  0  0  0  0  0  0
   -4.5466    3.3750    0.0000 O   0  0  0  0  0  0  0  0  0  0  0  0
  3  1  1  0
  5  4  1  0
  6  2  1  0
  6  3  1  0
  6  4  1  0
  7  5  1  0
M  END
>  <NAME>  (3929) 
3-METHYLPENTANOL

>  <SYNONYMS>  (3929) 


>  <SPECTRUM TYPE>  (3929) 
MS1

>  <INSTRUMENT TYPE>  (3929) 
EI-B

>  <INSTRUMENT>  (3929) 
HITACHI M-80B

>  <ION MODE>  (3929) 
P

>  <INCHIKEY>  (3929) 
IWTBVKIGCDZRPL-UHFFFAOYSA-N

>  <FORMULA>  (3929) 
C6H14O

>  <EXACT MASS>  (3929) 
102.104465068

>  <MW>  (3929) 
102

>  <ID>  (3929) 
JP006555

>  <CONTRIBUTOR>  (3929) 
University of Tokyo Team, {Faculty of Engineering, University of Tokyo

>  <COMMENT>  (3929) 
SMILES=OCCC(C)CC
InChI=InChI=1S/C6H14O/c1-3-6(2)4-5-7/h6-7H,3-5H2,1-2H3
computed SMILES=OCCC(C)CC
accession=JP006555
date=2016.01.19 (Created 2008.10.21, modified 2011.05.06)
author=HISAHIRO HAGIWARA, CHEMICAL RESEARCH INSTITUTE OF NON-AQUEOUSSOLUTIONS TOHOKU UNIV.
license=CC BY-NC-SA
exact mass=102.10447
ionization energy=70 eV
ion type=[M]+*
computed spectral entropy=2.6397027606587873
computed normalized entropy=0.7839236271288319
SPLASH=splash10-0a4l-9000000000-e5f5d1e7ec88b62b64cb
submitter=submitter = University of Tokyo Team (Faculty of Engineering, University of Tokyo)
MoNA Rating=3.75

>  <NUM PEAKS>  (3929) 
29

>  <MASS SPECTRAL PEAKS>  (3929) 
15 2.35
18 1.07
19 1.21
26 2.12
27 32.37
28 6.63
29 40.47
31 39.59
38 1.16
39 20.99
40 2.74
41 69.05
42 19.63
43 56.63
44 2.76
45 9.49
46 2.31
51 1.38
53 3.49
54 1.99
55 65.91
56 99.99
57 22.04
69 57.04
70 3.41
71 2.45
83 1.24
84 14.4
85 1.16

$$$$

     RDKit          2D

  7  6  0  0  0  0  0  0  0  0999 V2000
    1.9486    2.6250    0.0000 C   0  0  0  0  0  0  0  0  0  0  0  0
   -1.9486    4.8750    0.0000 C   0  0  0  0  0  0  0  0  0  0  0  0
    0.6495    3.3750    0.0000 C   0  0  0  0  0  0  0  0  0  0  0  0
   -0.6495    2.6250    0.0000 C   0  0  0  0  0  0  0  0  0  0  0  0
   -3.2476    2.6250    0.0000 C   0  0  0  0  0  0  0  0  0  0  0  0
   -1.9486    3.3750    0.0000 C   0  0  0  0  0  0  0  0  0  0  0  0
   -4.5466    3.3750    0.0000 O   0  0  0  0  0  0  0  0  0  0  0  0
  3  1  1  0
  4  3  1  0
  6  2  1  0
  6  4  1  0
  6  5  1  0
  7  5  1  0
M  END
>  <NAME>  (3930) 
2-METHYLPENTANOL

>  <SYNONYMS>  (3930) 


>  <SPECTRUM TYPE>  (3930) 
MS1

>  <INSTRUMENT TYPE>  (3930) 
EI-B

>  <INSTRUMENT>  (3930) 
HITACHI M-80B

>  <ION MODE>  (3930) 
P

>  <INCHIKEY>  (3930) 
PFNHSEQQEPMLNI-UHFFFAOYSA-N

>  <FORMULA>  (3930) 
C6H14O

>  <EXACT MASS>  (3930) 
102.104465068

>  <MW>  (3930) 
102

>  <ID>  (3930) 
JP006554

>  <CONTRIBUTOR>  (3930) 
University of Tokyo Team, {Faculty of Engineering, University of Tokyo

>  <COMMENT>  (3930) 
SMILES=CCCC(C)CO
InChI=InChI=1S/C6H14O/c1-3-4-6(2)5-7/h6-7H,3-5H2,1-2H3
computed SMILES=OCC(C)CCC
accession=JP006554
date=2016.01.19 (Created 2008.10.21, modified 2011.05.06)
author=HISAHIRO HAGIWARA, CHEMICAL RESEARCH INSTITUTE OF NON-AQUEOUSSOLUTIONS TOHOKU UNIV.
license=CC BY-NC-SA
exact mass=102.10447
ionization energy=70 eV
ion type=[M]+*
computed spectral entropy=2.564771987950478
computed normalized entropy=0.8179801368858376
SPLASH=splash10-0006-9000000000-3815219f065b85e40e84
submitter=submitter = University of Tokyo Team (Faculty of Engineering, University of Tokyo)
MoNA Rating=3.75

>  <NUM PEAKS>  (3930) 
23

>  <MASS SPECTRAL PEAKS>  (3930) 
15 1.54
26 1.21
27 21.04
28 1.94
29 22.05
31 22.68
39 15.18
40 2.07
41 34.73
42 19.27
43 99.99
44 3.05
45 3.42
53 1.83
55 24.8
56 16.51
57 3.64
59 1.37
69 18.51
70 25.42
71 28.08
72 1.27
84 10.84

$$$$

     RDKit          2D

  7  6  0  0  0  0  0  0  0  0999 V2000
    1.9486    3.3750    0.0000 C   0  0  0  0  0  0  0  0  0  0  0  0
    0.6495    4.1250    0.0000 C   0  0  0  0  0  0  0  0  0  0  0  0
   -0.6495    3.3750    0.0000 C   0  0  0  0  0  0  0  0  0  0  0  0
   -1.9486    4.1250    0.0000 C   0  0  0  0  0  0  0  0  0  0  0  0
   -3.2476    3.3750    0.0000 C   0  0  0  0  0  0  0  0  0  0  0  0
   -4.5466    4.1250    0.0000 C   0  0  0  0  0  0  0  0  0  0  0  0
   -5.8457    3.3750    0.0000 O   0  0  0  0  0  0  0  0  0  0  0  0
  2  1  1  0
  3  2  1  0
  4  3  1  0
  5  4  1  0
  6  5  1  0
  7  6  1  0
M  END
>  <NAME>  (3931) 
HEXANOL

>  <SYNONYMS>  (3931) 


>  <SPECTRUM TYPE>  (3931) 
MS1

>  <INSTRUMENT TYPE>  (3931) 
EI-B

>  <INSTRUMENT>  (3931) 
HITACHI M-80B

>  <ION MODE>  (3931) 
P

>  <INCHIKEY>  (3931) 
ZSIAUFGUXNUGDI-UHFFFAOYSA-N

>  <FORMULA>  (3931) 
C6H14O

>  <EXACT MASS>  (3931) 
102.104465068

>  <MW>  (3931) 
102

>  <ID>  (3931) 
JP006553

>  <CONTRIBUTOR>  (3931) 
University of Tokyo Team, {Faculty of Engineering, University of Tokyo

>  <COMMENT>  (3931) 
SMILES=CCCCCCO
InChI=InChI=1S/C6H14O/c1-2-3-4-5-6-7/h7H,2-6H2,1H3
computed SMILES=OCCCCCC
accession=JP006553
date=2016.01.19 (Created 2008.10.21, modified 2011.05.06)
author=HISAHIRO HAGIWARA, CHEMICAL RESEARCH INSTITUTE OF NON-AQUEOUSSOLUTIONS TOHOKU UNIV.
license=CC BY-NC-SA
exact mass=102.10447
ionization energy=70 eV
ion type=[M]+*
computed spectral entropy=2.552714630919285
computed normalized entropy=0.7745269971489943
SPLASH=splash10-0a4l-9000000000-df7ed15b6c10248ee93a
submitter=submitter = University of Tokyo Team (Faculty of Engineering, University of Tokyo)
MoNA Rating=3.75

>  <NUM PEAKS>  (3931) 
27

>  <MASS SPECTRAL PEAKS>  (3931) 
15 1.54
26 1.95
27 24.6
28 4.69
29 24.49
31 33.86
38 1.03
39 16.28
40 3.47
41 46.02
42 42.92
43 60.61
44 4.67
45 3.31
51 1.04
53 2.12
54 2.94
55 52.62
56 99.99
57 9
67 1.05
69 26.5
70 2.41
71 1.54
73 1.27
83 1.24
84 7.42

$$$$

     RDKit          2D

  6  5  0  0  0  0  0  0  0  0999 V2000
    1.2990    2.2500    0.0000 C   0  0  0  0  0  0  0  0  0  0  0  0
   -3.8971    2.2500    0.0000 C   0  0  0  0  0  0  0  0  0  0  0  0
    0.0000    3.0000    0.0000 C   0  0  0  0  0  0  0  0  0  0  0  0
   -1.2990    2.2500    0.0000 C   0  0  0  0  0  0  0  0  0  0  0  0
   -2.5981    3.0000    0.0000 C   0  0  0  0  0  0  0  0  0  0  0  0
   -2.5981    4.5000    0.0000 O   0  0  0  0  0  0  0  0  0  0  0  0
  3  1  1  0
  4  3  1  0
  5  2  1  0
  5  4  1  0
  6  5  1  0
M  END
>  <NAME>  (3932) 
2-PENTANOL

>  <SYNONYMS>  (3932) 


>  <SPECTRUM TYPE>  (3932) 
MS1

>  <INSTRUMENT TYPE>  (3932) 
EI-B

>  <INSTRUMENT>  (3932) 
HITACHI M-80B

>  <ION MODE>  (3932) 
P

>  <INCHIKEY>  (3932) 
JYVLIDXNZAXMDK-UHFFFAOYSA-N

>  <FORMULA>  (3932) 
C5H12O

>  <EXACT MASS>  (3932) 
88.088815004

>  <MW>  (3932) 
88

>  <ID>  (3932) 
JP006552

>  <CONTRIBUTOR>  (3932) 
University of Tokyo Team, {Faculty of Engineering, University of Tokyo

>  <COMMENT>  (3932) 
SMILES=CCCC(C)O
InChI=InChI=1S/C5H12O/c1-3-4-5(2)6/h5-6H,3-4H2,1-2H3
computed SMILES=OC(C)CCC
accession=JP006552
date=2016.01.19 (Created 2008.10.21, modified 2011.05.06)
author=HISAHIRO HAGIWARA, CHEMICAL RESEARCH INSTITUTE OF NON-AQUEOUSSOLUTIONS TOHOKU UNIV.
license=CC BY-NC-SA
exact mass=88.08882
ionization energy=70 eV
ion type=[M]+*
computed spectral entropy=1.857648377222497
computed normalized entropy=0.6700050253835818
SPLASH=splash10-0002-9000000000-0ae80db19f0a4f6f52a0
submitter=submitter = University of Tokyo Team (Faculty of Engineering, University of Tokyo)
MoNA Rating=3.75

>  <NUM PEAKS>  (3932) 
16

>  <MASS SPECTRAL PEAKS>  (3932) 
15 1.63
19 1.42
27 9.08
29 5.89
31 4.41
39 5.49
41 6.54
42 2.74
43 15.1
44 8.15
45 99.99
46 1.92
55 19.97
57 1.31
70 1.66
73 9.31

$$$$

     RDKit          2D

 18 17  0  0  0  0  0  0  0  0999 V2000
    4.8714    8.8125    0.0000 C   0  0  0  0  0  0  0  0  0  0  0  0
  -14.6142    9.5625    0.0000 C   0  0  0  0  0  0  0  0  0  0  0  0
  -13.3151    7.3125    0.0000 C   0  0  0  0  0  0  0  0  0  0  0  0
    3.5724    9.5625    0.0000 C   0  0  0  0  0  0  0  0  0  0  0  0
    2.2733    8.8125    0.0000 C   0  0  0  0  0  0  0  0  0  0  0  0
    0.9743    9.5625    0.0000 C   0  0  0  0  0  0  0  0  0  0  0  0
   -0.3248    8.8125    0.0000 C   0  0  0  0  0  0  0  0  0  0  0  0
   -1.6238    9.5625    0.0000 C   0  0  0  0  0  0  0  0  0  0  0  0
   -2.9228    8.8125    0.0000 C   0  0  0  0  0  0  0  0  0  0  0  0
   -4.2219    9.5625    0.0000 C   0  0  0  0  0  0  0  0  0  0  0  0
   -5.5209    8.8125    0.0000 C   0  0  0  0  0  0  0  0  0  0  0  0
   -6.8200    9.5625    0.0000 C   0  0  0  0  0  0  0  0  0  0  0  0
   -8.1190    8.8125    0.0000 C   0  0  0  0  0  0  0  0  0  0  0  0
  -12.0161    9.5625    0.0000 C   0  0  0  0  0  0  0  0  0  0  0  0
  -13.3151    8.8125    0.0000 C   0  0  0  0  0  0  0  0  0  0  0  0
   -9.4180    9.5625    0.0000 C   0  0  0  0  0  0  0  0  0  0  0  0
   -9.4180   11.0625    0.0000 O   0  0  0  0  0  0  0  0  0  0  0  0
  -10.7171    8.8125    0.0000 O   0  0  0  0  0  0  0  0  0  0  0  0
  4  1  1  0
  5  4  1  0
  6  5  1  0
  7  6  1  0
  8  7  1  0
  9  8  1  0
 10  9  1  0
 11 10  1  0
 12 11  1  0
 13 12  1  0
 15  2  1  0
 15  3  1  0
 15 14  1  0
 16 13  1  0
 17 16  2  0
 18 14  1  0
 18 16  1  0
M  END
>  <NAME>  (3933) 
ISOBUTYL LAURATE

>  <SYNONYMS>  (3933) 
ISOBUTYL DODECANOATE

>  <SPECTRUM TYPE>  (3933) 
MS1

>  <INSTRUMENT TYPE>  (3933) 
EI-B

>  <INSTRUMENT>  (3933) 
HITACHI M-80B

>  <ION MODE>  (3933) 
P

>  <INCHIKEY>  (3933) 
SZFOMJOELAAHAF-UHFFFAOYSA-N

>  <FORMULA>  (3933) 
C16H32O2

>  <EXACT MASS>  (3933) 
256.240230264

>  <MW>  (3933) 
256

>  <ID>  (3933) 
JP006551

>  <CONTRIBUTOR>  (3933) 
University of Tokyo Team, {Faculty of Engineering, University of Tokyo

>  <COMMENT>  (3933) 
SMILES=CCCCCCCCCCCC(=O)OCC(C)C
InChI=InChI=1S/C16H32O2/c1-4-5-6-7-8-9-10-11-12-13-16(17)18-14-15(2)3/h15H,4-14H2,1-3H3
computed SMILES=O=C(OCC(C)C)CCCCCCCCCCC
accession=JP006551
date=2016.01.19 (Created 2008.10.21, modified 2011.05.06)
author=HISAHIRO HAGIWARA, CHEMICAL RESEARCH INSTITUTE OF NON-AQUEOUSSOLUTIONS TOHOKU UNIV.
license=CC BY-NC-SA
exact mass=256.24023
ionization energy=70 eV
ion type=[M]+*
computed spectral entropy=3.0854660853708635
computed normalized entropy=0.7970307087327523
SPLASH=splash10-0a4i-9100000000-46f58c7d520ec63683b2
submitter=submitter = University of Tokyo Team (Faculty of Engineering, University of Tokyo)
MoNA Rating=3.75

>  <NUM PEAKS>  (3933) 
48

>  <MASS SPECTRAL PEAKS>  (3933) 
27 8.67
29 24.66
39 6.8
41 45.64
42 9.69
43 41.11
44 1.01
53 1.69
54 1.97
55 24.94
56 99.99
57 93.23
58 3.83
60 21.61
61 6.47
67 3.3
68 1.75
69 10.02
70 3.45
71 12.27
73 15.46
74 1.65
81 2.4
82 1.11
83 7.86
84 5.03
85 8.39
87 4.2
95 3.61
96 1.03
97 5.97
98 5.57
99 1.4
101 3.48
109 1.67
111 1.73
115 3.36
116 6.7
117 1.91
129 7.11
143 1.24
157 4.59
171 1.27
183 36.98
184 4.94
200 13.19
201 27.72
202 3.37

$$$$

     RDKit          2D

 18 17  0  0  0  0  0  0  0  0999 V2000
  -15.5885    9.0000    0.0000 C   0  0  0  0  0  0  0  0  0  0  0  0
    5.1962    9.0000    0.0000 C   0  0  0  0  0  0  0  0  0  0  0  0
  -14.2894    8.2500    0.0000 C   0  0  0  0  0  0  0  0  0  0  0  0
    3.8971    8.2500    0.0000 C   0  0  0  0  0  0  0  0  0  0  0  0
  -12.9904    9.0000    0.0000 C   0  0  0  0  0  0  0  0  0  0  0  0
    2.5981    9.0000    0.0000 C   0  0  0  0  0  0  0  0  0  0  0  0
  -11.6913    8.2500    0.0000 C   0  0  0  0  0  0  0  0  0  0  0  0
  -10.3923    9.0000    0.0000 C   0  0  0  0  0  0  0  0  0  0  0  0
   -9.0933    8.2500    0.0000 C   0  0  0  0  0  0  0  0  0  0  0  0
   -7.7942    9.0000    0.0000 C   0  0  0  0  0  0  0  0  0  0  0  0
   -6.4952    8.2500    0.0000 C   0  0  0  0  0  0  0  0  0  0  0  0
   -5.1962    9.0000    0.0000 C   0  0  0  0  0  0  0  0  0  0  0  0
   -3.8971    8.2500    0.0000 C   0  0  0  0  0  0  0  0  0  0  0  0
   -2.5981    9.0000    0.0000 C   0  0  0  0  0  0  0  0  0  0  0  0
    1.2990    8.2500    0.0000 C   0  0  0  0  0  0  0  0  0  0  0  0
   -1.2990    8.2500    0.0000 C   0  0  0  0  0  0  0  0  0  0  0  0
   -1.2990    6.7500    0.0000 O   0  0  0  0  0  0  0  0  0  0  0  0
    0.0000    9.0000    0.0000 O   0  0  0  0  0  0  0  0  0  0  0  0
  3  1  1  0
  4  2  1  0
  5  3  1  0
  6  4  1  0
  7  5  1  0
  8  7  1  0
  9  8  1  0
 10  9  1  0
 11 10  1  0
 12 11  1  0
 13 12  1  0
 14 13  1  0
 15  6  1  0
 16 14  1  0
 17 16  2  0
 18 15  1  0
 18 16  1  0
M  END
>  <NAME>  (3934) 
BUTYL LAURATE

>  <SYNONYMS>  (3934) 
BUTYL DODECANOATE

>  <SPECTRUM TYPE>  (3934) 
MS1

>  <INSTRUMENT TYPE>  (3934) 
EI-B

>  <INSTRUMENT>  (3934) 
HITACHI M-80B

>  <ION MODE>  (3934) 
P

>  <INCHIKEY>  (3934) 
NDKYEUQMPZIGFN-UHFFFAOYSA-N

>  <FORMULA>  (3934) 
C16H32O2

>  <EXACT MASS>  (3934) 
256.240230264

>  <MW>  (3934) 
256

>  <ID>  (3934) 
JP006550

>  <CONTRIBUTOR>  (3934) 
University of Tokyo Team, {Faculty of Engineering, University of Tokyo

>  <COMMENT>  (3934) 
SMILES=CCCCCCCCCCCC(=O)OCCCC
InChI=InChI=1S/C16H32O2/c1-3-5-7-8-9-10-11-12-13-14-16(17)18-15-6-4-2/h3-15H2,1-2H3
computed SMILES=O=C(OCCCC)CCCCCCCCCCC
accession=JP006550
date=2016.01.19 (Created 2008.10.21, modified 2011.05.06)
author=HISAHIRO HAGIWARA, CHEMICAL RESEARCH INSTITUTE OF NON-AQUEOUSSOLUTIONS TOHOKU UNIV.
license=CC BY-NC-SA
exact mass=256.24023
ionization energy=70 eV
ion type=[M]+*
computed spectral entropy=3.135832027369366
computed normalized entropy=0.805749440407546
SPLASH=splash10-0a4i-9100000000-f8ef34610b7e42347035
submitter=submitter = University of Tokyo Team (Faculty of Engineering, University of Tokyo)
MoNA Rating=3.75

>  <NUM PEAKS>  (3934) 
49

>  <MASS SPECTRAL PEAKS>  (3934) 
27 10.7
29 30.79
31 1.04
39 6.25
41 48.89
42 9.21
43 38.51
45 1.09
53 1.71
54 2
55 27.58
56 99.99
57 49.72
58 1.8
60 26.03
61 12.87
67 2.37
68 1.63
69 10.66
70 2.53
71 10.25
73 24.02
74 2.06
81 2.04
83 7.69
84 4.7
85 6.43
87 4.57
95 2.35
97 5.41
98 4.62
99 1.06
101 6.73
109 1.17
111 1.62
115 2.52
116 7.63
117 2.33
129 9.9
143 1.22
157 3.52
171 1.49
183 17.72
184 1.93
185 1.04
200 3.66
201 27.62
202 3.45
256 1.69

$$$$

     RDKit          2D

 17 16  0  0  0  0  0  0  0  0999 V2000
    4.5466    7.8750    0.0000 C   0  0  0  0  0  0  0  0  0  0  0  0
  -13.6399    7.8750    0.0000 C   0  0  0  0  0  0  0  0  0  0  0  0
  -12.3409   10.1250    0.0000 C   0  0  0  0  0  0  0  0  0  0  0  0
    3.2476    8.6250    0.0000 C   0  0  0  0  0  0  0  0  0  0  0  0
    1.9486    7.8750    0.0000 C   0  0  0  0  0  0  0  0  0  0  0  0
    0.6495    8.6250    0.0000 C   0  0  0  0  0  0  0  0  0  0  0  0
   -0.6495    7.8750    0.0000 C   0  0  0  0  0  0  0  0  0  0  0  0
   -1.9486    8.6250    0.0000 C   0  0  0  0  0  0  0  0  0  0  0  0
   -3.2476    7.8750    0.0000 C   0  0  0  0  0  0  0  0  0  0  0  0
   -4.5466    8.6250    0.0000 C   0  0  0  0  0  0  0  0  0  0  0  0
   -5.8457    7.8750    0.0000 C   0  0  0  0  0  0  0  0  0  0  0  0
   -7.1447    8.6250    0.0000 C   0  0  0  0  0  0  0  0  0  0  0  0
   -8.4437    7.8750    0.0000 C   0  0  0  0  0  0  0  0  0  0  0  0
  -12.3409    8.6250    0.0000 C   0  0  0  0  0  0  0  0  0  0  0  0
   -9.7428    8.6250    0.0000 C   0  0  0  0  0  0  0  0  0  0  0  0
   -9.7428   10.1250    0.0000 O   0  0  0  0  0  0  0  0  0  0  0  0
  -11.0418    7.8750    0.0000 O   0  0  0  0  0  0  0  0  0  0  0  0
  4  1  1  0
  5  4  1  0
  6  5  1  0
  7  6  1  0
  8  7  1  0
  9  8  1  0
 10  9  1  0
 11 10  1  0
 12 11  1  0
 13 12  1  0
 14  2  1  0
 14  3  1  0
 15 13  1  0
 16 15  2  0
 17 14  1  0
 17 15  1  0
M  END
>  <NAME>  (3935) 
ISOPROPYL LAURATE

>  <SYNONYMS>  (3935) 
ISOPROPYL DODECANOATE

>  <SPECTRUM TYPE>  (3935) 
MS1

>  <INSTRUMENT TYPE>  (3935) 
EI-B

>  <INSTRUMENT>  (3935) 
HITACHI M-80B

>  <ION MODE>  (3935) 
P

>  <INCHIKEY>  (3935) 
UJPPXNXOEVDSRW-UHFFFAOYSA-N

>  <FORMULA>  (3935) 
C15H30O2

>  <EXACT MASS>  (3935) 
242.2245802

>  <MW>  (3935) 
242

>  <ID>  (3935) 
JP006549

>  <CONTRIBUTOR>  (3935) 
University of Tokyo Team, {Faculty of Engineering, University of Tokyo

>  <COMMENT>  (3935) 
SMILES=CCCCCCCCCCCC(=O)OC(C)C
InChI=InChI=1S/C15H30O2/c1-4-5-6-7-8-9-10-11-12-13-15(16)17-14(2)3/h14H,4-13H2,1-3H3
computed SMILES=O=C(OC(C)C)CCCCCCCCCCC
accession=JP006549
date=2016.01.19 (Created 2008.10.21, modified 2011.05.06)
author=HISAHIRO HAGIWARA, CHEMICAL RESEARCH INSTITUTE OF NON-AQUEOUSSOLUTIONS TOHOKU UNIV.
license=CC BY-NC-SA
exact mass=242.22458
ionization energy=70 eV
ion type=[M]+*
computed spectral entropy=3.344280314861791
computed normalized entropy=0.8423260525117776
SPLASH=splash10-0f6x-9100000000-552cf8702f9602b99af3
submitter=submitter = University of Tokyo Team (Faculty of Engineering, University of Tokyo)
MoNA Rating=3.75

>  <NUM PEAKS>  (3935) 
53

>  <MASS SPECTRAL PEAKS>  (3935) 
27 15.8
29 19.62
39 9.11
41 51.88
42 18.25
43 99.99
44 3.2
45 4.55
53 1.99
54 2.37
55 30.58
56 9.58
57 33.59
58 1.67
59 18.62
60 58.65
61 12.66
67 3.03
68 2.25
69 14.56
70 5.01
71 17.48
73 26.11
74 2.77
81 2.64
82 1.65
83 10.29
84 6.65
85 13.47
87 6.72
95 3.28
96 1.43
97 7.99
98 6.83
99 2.17
101 4.54
102 45.19
103 4.98
109 1.52
111 2.75
112 1.38
115 5.16
129 9.43
138 1.37
140 1.74
143 1.8
157 6.21
171 1.79
183 21.82
184 2.6
200 24.16
201 20.73
202 2.36

$$$$

     RDKit          2D

 17 16  0  0  0  0  0  0  0  0999 V2000
    5.1962    8.2500    0.0000 C   0  0  0  0  0  0  0  0  0  0  0  0
  -14.2894    9.0000    0.0000 C   0  0  0  0  0  0  0  0  0  0  0  0
    3.8971    9.0000    0.0000 C   0  0  0  0  0  0  0  0  0  0  0  0
  -12.9904    8.2500    0.0000 C   0  0  0  0  0  0  0  0  0  0  0  0
    2.5981    8.2500    0.0000 C   0  0  0  0  0  0  0  0  0  0  0  0
    1.2990    9.0000    0.0000 C   0  0  0  0  0  0  0  0  0  0  0  0
    0.0000    8.2500    0.0000 C   0  0  0  0  0  0  0  0  0  0  0  0
   -1.2990    9.0000    0.0000 C   0  0  0  0  0  0  0  0  0  0  0  0
   -2.5981    8.2500    0.0000 C   0  0  0  0  0  0  0  0  0  0  0  0
   -3.8971    9.0000    0.0000 C   0  0  0  0  0  0  0  0  0  0  0  0
   -5.1962    8.2500    0.0000 C   0  0  0  0  0  0  0  0  0  0  0  0
   -6.4952    9.0000    0.0000 C   0  0  0  0  0  0  0  0  0  0  0  0
   -7.7942    8.2500    0.0000 C   0  0  0  0  0  0  0  0  0  0  0  0
  -11.6913    9.0000    0.0000 C   0  0  0  0  0  0  0  0  0  0  0  0
   -9.0933    9.0000    0.0000 C   0  0  0  0  0  0  0  0  0  0  0  0
   -9.0933   10.5000    0.0000 O   0  0  0  0  0  0  0  0  0  0  0  0
  -10.3923    8.2500    0.0000 O   0  0  0  0  0  0  0  0  0  0  0  0
  3  1  1  0
  4  2  1  0
  5  3  1  0
  6  5  1  0
  7  6  1  0
  8  7  1  0
  9  8  1  0
 10  9  1  0
 11 10  1  0
 12 11  1  0
 13 12  1  0
 14  4  1  0
 15 13  1  0
 16 15  2  0
 17 14  1  0
 17 15  1  0
M  END
>  <NAME>  (3936) 
PROPYL LAURATE

>  <SYNONYMS>  (3936) 
PROPYL DODECANOATE

>  <SPECTRUM TYPE>  (3936) 
MS1

>  <INSTRUMENT TYPE>  (3936) 
EI-B

>  <INSTRUMENT>  (3936) 
HITACHI M-80B

>  <ION MODE>  (3936) 
P

>  <INCHIKEY>  (3936) 
FTBUKOLPOATXGV-UHFFFAOYSA-N

>  <FORMULA>  (3936) 
C15H30O2

>  <EXACT MASS>  (3936) 
242.2245802

>  <MW>  (3936) 
242

>  <ID>  (3936) 
JP006548

>  <CONTRIBUTOR>  (3936) 
University of Tokyo Team, {Faculty of Engineering, University of Tokyo

>  <COMMENT>  (3936) 
SMILES=CCCCCCCCCCCC(=O)OCCC
InChI=InChI=1S/C15H30O2/c1-3-5-6-7-8-9-10-11-12-13-15(16)17-14-4-2/h3-14H2,1-2H3
computed SMILES=O=C(OCCC)CCCCCCCCCCC
accession=JP006548
date=2016.01.19 (Created 2008.10.21, modified 2011.05.06)
author=HISAHIRO HAGIWARA, CHEMICAL RESEARCH INSTITUTE OF NON-AQUEOUSSOLUTIONS TOHOKU UNIV.
license=CC BY-NC-SA
exact mass=242.22458
ionization energy=70 eV
ion type=[M]+*
computed spectral entropy=3.3618351835748244
computed normalized entropy=0.8177908869628825
SPLASH=splash10-01ox-9200000000-d732b1857af6737c86fc
submitter=submitter = University of Tokyo Team (Faculty of Engineering, University of Tokyo)
MoNA Rating=3.75

>  <NUM PEAKS>  (3936) 
61

>  <MASS SPECTRAL PEAKS>  (3936) 
27 21.86
29 27.49
31 2.24
39 10.79
41 65.05
42 27.64
43 96.12
44 2.34
45 2.19
53 2.56
54 2.93
55 39.91
56 11.21
57 36.54
58 2.02
59 4.18
60 54.48
61 99.99
62 2.09
67 3.78
68 2.62
69 18.25
70 4.19
71 14.51
72 1.04
73 41.8
74 3.6
79 1.04
81 3.27
82 1.76
83 12.69
84 7.92
85 9.85
87 10.28
89 1.05
95 3.71
96 1.56
97 9.55
98 7.13
99 1.59
101 3.86
102 40.45
103 8.21
109 1.85
111 2.66
112 1.4
115 23.68
116 1.99
125 1.2
129 8.68
138 1.01
143 1.99
157 7.29
171 5.59
183 33.58
184 3.74
199 2.9
200 3.91
201 35.4
202 3.85
242 3.89

$$$$

     RDKit          2D

 16 15  0  0  0  0  0  0  0  0999 V2000
    4.5466    7.8750    0.0000 C   0  0  0  0  0  0  0  0  0  0  0  0
  -13.6399    7.8750    0.0000 C   0  0  0  0  0  0  0  0  0  0  0  0
    3.2476    8.6250    0.0000 C   0  0  0  0  0  0  0  0  0  0  0  0
  -12.3409    8.6250    0.0000 C   0  0  0  0  0  0  0  0  0  0  0  0
    1.9486    7.8750    0.0000 C   0  0  0  0  0  0  0  0  0  0  0  0
    0.6495    8.6250    0.0000 C   0  0  0  0  0  0  0  0  0  0  0  0
   -0.6495    7.8750    0.0000 C   0  0  0  0  0  0  0  0  0  0  0  0
   -1.9486    8.6250    0.0000 C   0  0  0  0  0  0  0  0  0  0  0  0
   -3.2476    7.8750    0.0000 C   0  0  0  0  0  0  0  0  0  0  0  0
   -4.5466    8.6250    0.0000 C   0  0  0  0  0  0  0  0  0  0  0  0
   -5.8457    7.8750    0.0000 C   0  0  0  0  0  0  0  0  0  0  0  0
   -7.1447    8.6250    0.0000 C   0  0  0  0  0  0  0  0  0  0  0  0
   -8.4437    7.8750    0.0000 C   0  0  0  0  0  0  0  0  0  0  0  0
   -9.7428    8.6250    0.0000 C   0  0  0  0  0  0  0  0  0  0  0  0
   -9.7428   10.1250    0.0000 O   0  0  0  0  0  0  0  0  0  0  0  0
  -11.0418    7.8750    0.0000 O   0  0  0  0  0  0  0  0  0  0  0  0
  3  1  1  0
  4  2  1  0
  5  3  1  0
  6  5  1  0
  7  6  1  0
  8  7  1  0
  9  8  1  0
 10  9  1  0
 11 10  1  0
 12 11  1  0
 13 12  1  0
 14 13  1  0
 15 14  2  0
 16  4  1  0
 16 14  1  0
M  END
>  <NAME>  (3937) 
ETHYL LAURATE

>  <SYNONYMS>  (3937) 
ETHYL DODECANOATE

>  <SPECTRUM TYPE>  (3937) 
MS1

>  <INSTRUMENT TYPE>  (3937) 
EI-B

>  <INSTRUMENT>  (3937) 
HITACHI M-80B

>  <ION MODE>  (3937) 
P

>  <INCHIKEY>  (3937) 
MMXKVMNBHPAILY-UHFFFAOYSA-N

>  <FORMULA>  (3937) 
C14H28O2

>  <EXACT MASS>  (3937) 
228.208930136

>  <MW>  (3937) 
228

>  <ID>  (3937) 
JP006547

>  <CONTRIBUTOR>  (3937) 
University of Tokyo Team, {Faculty of Engineering, University of Tokyo

>  <COMMENT>  (3937) 
SMILES=CCCCCCCCCCCC(=O)OCC
InChI=InChI=1S/C14H28O2/c1-3-5-6-7-8-9-10-11-12-13-14(15)16-4-2/h3-13H2,1-2H3
computed SMILES=O=C(OCC)CCCCCCCCCCC
accession=JP006547
date=2016.01.19 (Created 2008.10.21, modified 2011.05.06)
author=HISAHIRO HAGIWARA, CHEMICAL RESEARCH INSTITUTE OF NON-AQUEOUSSOLUTIONS TOHOKU UNIV.
license=CC BY-NC-SA
exact mass=228.20893
ionization energy=70 eV
ion type=[M]+*
computed spectral entropy=3.112750378203945
computed normalized entropy=0.8177111542115617
SPLASH=splash10-000l-9100000000-3c72f0ffdafbe522391e
submitter=submitter = University of Tokyo Team (Faculty of Engineering, University of Tokyo)
MoNA Rating=3.75

>  <NUM PEAKS>  (3937) 
45

>  <MASS SPECTRAL PEAKS>  (3937) 
27 11.38
29 29.33
39 5.52
41 31.42
42 7.97
43 31.35
45 7.04
53 1.63
54 1.78
55 24.72
56 6.26
57 15.74
59 1.13
60 14.13
61 13.75
67 2.47
68 1.23
69 10.49
70 13.49
71 5.75
73 19.23
74 2.14
81 1.72
83 6.43
84 3.62
85 2.6
87 2.18
88 99.99
89 11.13
95 1.71
97 3.82
98 2.87
101 46.59
102 3.25
111 1.21
115 3.8
129 2.05
143 3.4
157 7.51
171 1.09
183 9.71
184 1.14
185 4.98
199 1.72
228 3.68

$$$$

     RDKit          2D

 15 14  0  0  0  0  0  0  0  0999 V2000
    4.5466    7.1250    0.0000 C   0  0  0  0  0  0  0  0  0  0  0  0
  -12.3409    7.8750    0.0000 C   0  0  0  0  0  0  0  0  0  0  0  0
    3.2476    7.8750    0.0000 C   0  0  0  0  0  0  0  0  0  0  0  0
    1.9486    7.1250    0.0000 C   0  0  0  0  0  0  0  0  0  0  0  0
    0.6495    7.8750    0.0000 C   0  0  0  0  0  0  0  0  0  0  0  0
   -0.6495    7.1250    0.0000 C   0  0  0  0  0  0  0  0  0  0  0  0
   -1.9486    7.8750    0.0000 C   0  0  0  0  0  0  0  0  0  0  0  0
   -3.2476    7.1250    0.0000 C   0  0  0  0  0  0  0  0  0  0  0  0
   -4.5466    7.8750    0.0000 C   0  0  0  0  0  0  0  0  0  0  0  0
   -5.8457    7.1250    0.0000 C   0  0  0  0  0  0  0  0  0  0  0  0
   -7.1447    7.8750    0.0000 C   0  0  0  0  0  0  0  0  0  0  0  0
   -8.4437    7.1250    0.0000 C   0  0  0  0  0  0  0  0  0  0  0  0
   -9.7428    7.8750    0.0000 C   0  0  0  0  0  0  0  0  0  0  0  0
   -9.7428    9.3750    0.0000 O   0  0  0  0  0  0  0  0  0  0  0  0
  -11.0418    7.1250    0.0000 O   0  0  0  0  0  0  0  0  0  0  0  0
  3  1  1  0
  4  3  1  0
  5  4  1  0
  6  5  1  0
  7  6  1  0
  8  7  1  0
  9  8  1  0
 10  9  1  0
 11 10  1  0
 12 11  1  0
 13 12  1  0
 14 13  2  0
 15  2  1  0
 15 13  1  0
M  END
>  <NAME>  (3938) 
METHYL LAURATE

>  <SYNONYMS>  (3938) 
METHYL DODECANOATE

>  <SPECTRUM TYPE>  (3938) 
MS1

>  <INSTRUMENT TYPE>  (3938) 
EI-B

>  <INSTRUMENT>  (3938) 
HITACHI M-80B

>  <ION MODE>  (3938) 
P

>  <INCHIKEY>  (3938) 
UQDUPQYQJKYHQI-UHFFFAOYSA-N

>  <FORMULA>  (3938) 
C13H26O2

>  <EXACT MASS>  (3938) 
214.193280072

>  <MW>  (3938) 
214

>  <ID>  (3938) 
JP006546

>  <CONTRIBUTOR>  (3938) 
University of Tokyo Team, {Faculty of Engineering, University of Tokyo

>  <COMMENT>  (3938) 
SMILES=CCCCCCCCCCCC(=O)OC
InChI=InChI=1S/C13H26O2/c1-3-4-5-6-7-8-9-10-11-12-13(14)15-2/h3-12H2,1-2H3
computed SMILES=O=C(OC)CCCCCCCCCCC
accession=JP006546
date=2016.01.19 (Created 2008.10.21, modified 2011.05.06)
author=HISAHIRO HAGIWARA, CHEMICAL RESEARCH INSTITUTE OF NON-AQUEOUSSOLUTIONS TOHOKU UNIV.
license=CC BY-NC-SA
exact mass=214.19328
ionization energy=70 eV
ion type=[M]+*
computed spectral entropy=2.7948399582032866
computed normalized entropy=0.7739970904397172
SPLASH=splash10-00dr-9000000000-723488a082665605b1e8
submitter=submitter = University of Tokyo Team (Faculty of Engineering, University of Tokyo)
MoNA Rating=3.75

>  <NUM PEAKS>  (3938) 
37

>  <MASS SPECTRAL PEAKS>  (3938) 
15 3.88
27 7.56
29 13.03
39 5.31
41 25.76
42 6.19
43 23.69
45 1.24
53 1.53
54 1.49
55 20.28
56 3.97
57 9.43
59 9.75
67 1.7
69 9.27
70 1.55
71 2.21
73 1.55
74 99.99
75 12.07
83 4.51
84 2.21
85 1.32
87 55
88 5.17
97 3.08
98 1.78
101 4.19
115 2.05
129 4.38
143 7.71
157 1.02
171 5.75
183 5.19
185 1.78
214 4.14

$$$$

     RDKit          2D

 14 13  0  0  0  0  0  0  0  0999 V2000
    3.8971    6.7500    0.0000 C   0  0  0  0  0  0  0  0  0  0  0  0
  -11.6913    6.7500    0.0000 C   0  0  0  0  0  0  0  0  0  0  0  0
    2.5981    7.5000    0.0000 C   0  0  0  0  0  0  0  0  0  0  0  0
    1.2990    6.7500    0.0000 C   0  0  0  0  0  0  0  0  0  0  0  0
    0.0000    7.5000    0.0000 C   0  0  0  0  0  0  0  0  0  0  0  0
   -1.2990    6.7500    0.0000 C   0  0  0  0  0  0  0  0  0  0  0  0
   -2.5981    7.5000    0.0000 C   0  0  0  0  0  0  0  0  0  0  0  0
   -3.8971    6.7500    0.0000 C   0  0  0  0  0  0  0  0  0  0  0  0
   -5.1962    7.5000    0.0000 C   0  0  0  0  0  0  0  0  0  0  0  0
   -6.4952    6.7500    0.0000 C   0  0  0  0  0  0  0  0  0  0  0  0
   -7.7942    7.5000    0.0000 C   0  0  0  0  0  0  0  0  0  0  0  0
   -9.0933    6.7500    0.0000 C   0  0  0  0  0  0  0  0  0  0  0  0
   -9.0933    5.2500    0.0000 O   0  0  0  0  0  0  0  0  0  0  0  0
  -10.3923    7.5000    0.0000 O   0  0  0  0  0  0  0  0  0  0  0  0
  3  1  1  0
  4  3  1  0
  5  4  1  0
  6  5  1  0
  7  6  1  0
  8  7  1  0
  9  8  1  0
 10  9  1  0
 11 10  1  0
 12 11  1  0
 13 12  2  0
 14  2  1  0
 14 12  1  0
M  END
>  <NAME>  (3939) 
METHYL UNDECANOATE

>  <SYNONYMS>  (3939) 


>  <SPECTRUM TYPE>  (3939) 
MS1

>  <INSTRUMENT TYPE>  (3939) 
EI-B

>  <INSTRUMENT>  (3939) 
HITACHI M-80B

>  <ION MODE>  (3939) 
P

>  <INCHIKEY>  (3939) 
XPQPWPZFBULGKT-UHFFFAOYSA-N

>  <FORMULA>  (3939) 
C12H24O2

>  <EXACT MASS>  (3939) 
200.177630008

>  <MW>  (3939) 
200

>  <ID>  (3939) 
JP006545

>  <CONTRIBUTOR>  (3939) 
University of Tokyo Team, {Faculty of Engineering, University of Tokyo

>  <COMMENT>  (3939) 
SMILES=CCCCCCCCCCC(=O)OC
InChI=InChI=1S/C12H24O2/c1-3-4-5-6-7-8-9-10-11-12(13)14-2/h3-11H2,1-2H3
computed SMILES=O=C(OC)CCCCCCCCCC
accession=JP006545
date=2016.01.19 (Created 2008.10.21, modified 2011.05.06)
author=HISAHIRO HAGIWARA, CHEMICAL RESEARCH INSTITUTE OF NON-AQUEOUSSOLUTIONS TOHOKU UNIV.
license=CC BY-NC-SA
exact mass=200.17763
ionization energy=70 eV
ion type=[M]+*
computed spectral entropy=2.7755508810384617
computed normalized entropy=0.7686552140438897
SPLASH=splash10-00du-9000000000-defb26ca02ace83ff395
submitter=submitter = University of Tokyo Team (Faculty of Engineering, University of Tokyo)
MoNA Rating=3.75

>  <NUM PEAKS>  (3939) 
37

>  <MASS SPECTRAL PEAKS>  (3939) 
15 3.94
27 8.17
29 12.56
39 6.03
41 26.31
42 6.24
43 23.76
45 1.24
53 1.62
54 1.26
55 19.35
56 3.62
57 8.07
59 10.37
67 1.53
69 8.87
70 1.58
71 2.28
73 1.55
74 99.99
75 10.89
81 1
83 3.73
84 2.43
85 1.59
87 52.14
88 4.96
97 2.08
98 1.88
101 5.09
115 1.86
129 3.33
143 6.88
157 5.32
169 5.78
171 1.49
200 2.61

$$$$

     RDKit          2D

 12 11  0  0  0  0  0  0  0  0999 V2000
    2.5981    4.5000    0.0000 C   0  0  0  0  0  0  0  0  0  0  0  0
   -3.8971    2.2500    0.0000 C   0  0  0  0  0  0  0  0  0  0  0  0
   -7.7942    4.5000    0.0000 C   0  0  0  0  0  0  0  0  0  0  0  0
    1.2990    5.2500    0.0000 C   0  0  0  0  0  0  0  0  0  0  0  0
   -2.5981    3.0000    0.0000 C   0  0  0  0  0  0  0  0  0  0  0  0
   -6.4952    5.2500    0.0000 C   0  0  0  0  0  0  0  0  0  0  0  0
    0.0000    4.5000    0.0000 C   0  0  0  0  0  0  0  0  0  0  0  0
   -1.2990    5.2500    0.0000 C   0  0  0  0  0  0  0  0  0  0  0  0
   -2.5981    4.5000    0.0000 C   0  0  0  0  0  0  0  0  0  0  0  0
   -3.8971    5.2500    0.0000 C   0  0  0  0  0  0  0  0  0  0  0  0
   -3.8971    6.7500    0.0000 O   0  0  0  0  0  0  0  0  0  0  0  0
   -5.1962    4.5000    0.0000 O   0  0  0  0  0  0  0  0  0  0  0  0
  4  1  1  0
  5  2  1  0
  6  3  1  0
  7  4  1  0
  8  7  1  0
  9  5  1  0
  9  8  1  0
 10  9  1  0
 11 10  2  0
 12  6  1  0
 12 10  1  0
M  END
>  <NAME>  (3940) 
ETHYL 2-ETHYLHEXANOATE

>  <SYNONYMS>  (3940) 


>  <SPECTRUM TYPE>  (3940) 
MS1

>  <INSTRUMENT TYPE>  (3940) 
EI-B

>  <INSTRUMENT>  (3940) 
HITACHI M-80B

>  <ION MODE>  (3940) 
P

>  <INCHIKEY>  (3940) 
YXAGIRHBJJLWHW-UHFFFAOYSA-N

>  <FORMULA>  (3940) 
C10H20O2

>  <EXACT MASS>  (3940) 
172.14632988

>  <MW>  (3940) 
172

>  <ID>  (3940) 
JP006544

>  <CONTRIBUTOR>  (3940) 
University of Tokyo Team, {Faculty of Engineering, University of Tokyo

>  <COMMENT>  (3940) 
SMILES=CCCCC(CC)C(=O)OCC
InChI=InChI=1S/C10H20O2/c1-4-7-8-9(5-2)10(11)12-6-3/h9H,4-8H2,1-3H3
computed SMILES=O=C(OCC)C(CC)CCCC
accession=JP006544
date=2016.01.19 (Created 2008.10.21, modified 2011.05.06)
author=HISAHIRO HAGIWARA, CHEMICAL RESEARCH INSTITUTE OF NON-AQUEOUSSOLUTIONS TOHOKU UNIV.
license=CC BY-NC-SA
exact mass=172.14633
ionization energy=70 eV
ion type=[M]+*
computed spectral entropy=3.0183791098760757
computed normalized entropy=0.8025042584897105
SPLASH=splash10-0pxu-9400000000-8407f9bbddac2d7ace48
submitter=submitter = University of Tokyo Team (Faculty of Engineering, University of Tokyo)
MoNA Rating=3.75

>  <NUM PEAKS>  (3940) 
43

>  <MASS SPECTRAL PEAKS>  (3940) 
15 1.26
26 1.55
27 33.13
29 63.75
30 1.37
31 1.92
39 15.54
41 52.46
42 11.35
43 37.13
45 8.23
53 3.97
54 1.62
55 29.92
56 10.32
57 99.99
58 4.01
59 1.99
67 1.37
68 1.01
69 8.28
70 8.77
71 3.89
73 37.65
74 1.61
83 2.13
87 9.32
88 18.9
89 2.37
97 1.62
98 2.1
99 11.13
101 73.49
102 4.96
115 18.6
116 96.88
117 6.51
127 15.79
128 1.26
129 11.01
143 5.83
144 13.61
145 1.54

$$$$

     RDKit          2D

 13 12  0  0  0  0  0  0  0  0999 V2000
    3.2476    5.6250    0.0000 C   0  0  0  0  0  0  0  0  0  0  0  0
   -9.7428    5.6250    0.0000 C   0  0  0  0  0  0  0  0  0  0  0  0
   -8.4437    7.8750    0.0000 C   0  0  0  0  0  0  0  0  0  0  0  0
    1.9486    6.3750    0.0000 C   0  0  0  0  0  0  0  0  0  0  0  0
    0.6495    5.6250    0.0000 C   0  0  0  0  0  0  0  0  0  0  0  0
   -0.6495    6.3750    0.0000 C   0  0  0  0  0  0  0  0  0  0  0  0
   -1.9486    5.6250    0.0000 C   0  0  0  0  0  0  0  0  0  0  0  0
   -3.2476    6.3750    0.0000 C   0  0  0  0  0  0  0  0  0  0  0  0
   -7.1447    5.6250    0.0000 C   0  0  0  0  0  0  0  0  0  0  0  0
   -8.4437    6.3750    0.0000 C   0  0  0  0  0  0  0  0  0  0  0  0
   -4.5466    5.6250    0.0000 C   0  0  0  0  0  0  0  0  0  0  0  0
   -4.5466    4.1250    0.0000 O   0  0  0  0  0  0  0  0  0  0  0  0
   -5.8457    6.3750    0.0000 O   0  0  0  0  0  0  0  0  0  0  0  0
  4  1  1  0
  5  4  1  0
  6  5  1  0
  7  6  1  0
  8  7  1  0
 10  2  1  0
 10  3  1  0
 10  9  1  0
 11  8  1  0
 12 11  2  0
 13  9  1  0
 13 11  1  0
M  END
>  <NAME>  (3941) 
ISOBUTYL HEPTANOATE

>  <SYNONYMS>  (3941) 
2-METHYLPROPYL HEPTANOATE

>  <SPECTRUM TYPE>  (3941) 
MS1

>  <INSTRUMENT TYPE>  (3941) 
EI-B

>  <INSTRUMENT>  (3941) 
HITACHI M-80B

>  <ION MODE>  (3941) 
P

>  <INCHIKEY>  (3941) 
HXJOYVPESRRCDB-UHFFFAOYSA-N

>  <FORMULA>  (3941) 
C11H22O2

>  <EXACT MASS>  (3941) 
186.161979944

>  <MW>  (3941) 
186

>  <ID>  (3941) 
JP006543

>  <CONTRIBUTOR>  (3941) 
University of Tokyo Team, {Faculty of Engineering, University of Tokyo

>  <COMMENT>  (3941) 
SMILES=CCCCCCC(=O)OCC(C)C
InChI=InChI=1S/C11H22O2/c1-4-5-6-7-8-11(12)13-9-10(2)3/h10H,4-9H2,1-3H3
computed SMILES=O=C(OCC(C)C)CCCCCC
ionization energy=70 eV
accession=JP006543
date=2016.01.19 (Created 2008.10.21, modified 2011.05.06)
author=HISAHIRO HAGIWARA, CHEMICAL RESEARCH INSTITUTE OF NON-AQUEOUSSOLUTIONS TOHOKU UNIV.
license=CC BY-NC-SA
exact mass=186.16198
ion type=[M]+*
computed spectral entropy=2.817923776428618
computed normalized entropy=0.7746685996409713
SPLASH=splash10-0btc-9200000000-237ef3f0ae571360d2db
submitter=submitter = University of Tokyo Team (Faculty of Engineering, University of Tokyo)
MoNA Rating=3.75

>  <NUM PEAKS>  (3941) 
38

>  <MASS SPECTRAL PEAKS>  (3941) 
27 21.13
29 31.9
31 2.06
39 14.63
41 57.72
42 10.75
43 71.36
44 1.75
45 1.67
53 1.83
54 1.03
55 17.5
56 99.99
57 68.2
58 3.39
60 22.96
61 5.27
68 1.78
69 5.52
70 3.65
71 2.17
73 13.11
74 1.37
83 3.23
84 3.62
85 15.02
86 1.75
87 10.66
89 1.76
95 1.6
101 2.83
113 91.03
114 7.02
116 3.71
130 5.68
131 31.34
132 1.95
156 1.01

$$$$

     RDKit          2D

 12 11  0  0  0  0  0  0  0  0999 V2000
    3.2476    5.6250    0.0000 C   0  0  0  0  0  0  0  0  0  0  0  0
   -9.7428    5.6250    0.0000 C   0  0  0  0  0  0  0  0  0  0  0  0
    1.9486    6.3750    0.0000 C   0  0  0  0  0  0  0  0  0  0  0  0
   -8.4437    6.3750    0.0000 C   0  0  0  0  0  0  0  0  0  0  0  0
    0.6495    5.6250    0.0000 C   0  0  0  0  0  0  0  0  0  0  0  0
   -0.6495    6.3750    0.0000 C   0  0  0  0  0  0  0  0  0  0  0  0
   -1.9486    5.6250    0.0000 C   0  0  0  0  0  0  0  0  0  0  0  0
   -3.2476    6.3750    0.0000 C   0  0  0  0  0  0  0  0  0  0  0  0
   -7.1447    5.6250    0.0000 C   0  0  0  0  0  0  0  0  0  0  0  0
   -4.5466    5.6250    0.0000 C   0  0  0  0  0  0  0  0  0  0  0  0
   -4.5466    4.1250    0.0000 O   0  0  0  0  0  0  0  0  0  0  0  0
   -5.8457    6.3750    0.0000 O   0  0  0  0  0  0  0  0  0  0  0  0
  3  1  1  0
  4  2  2  0
  5  3  1  0
  6  5  1  0
  7  6  1  0
  8  7  1  0
  9  4  1  0
 10  8  1  0
 11 10  2  0
 12  9  1  0
 12 10  1  0
M  END
>  <NAME>  (3942) 
ALLYL HEPTANOATE

>  <SYNONYMS>  (3942) 
2-PROPENYL HEPTANOATE

>  <SPECTRUM TYPE>  (3942) 
MS1

>  <INSTRUMENT TYPE>  (3942) 
EI-B

>  <INSTRUMENT>  (3942) 
HITACHI M-80B

>  <ION MODE>  (3942) 
P

>  <INCHIKEY>  (3942) 
SJWKGDGUQTWDRV-UHFFFAOYSA-N

>  <FORMULA>  (3942) 
C10H18O2

>  <EXACT MASS>  (3942) 
170.130679816

>  <MW>  (3942) 
170

>  <ID>  (3942) 
JP006542

>  <CONTRIBUTOR>  (3942) 
University of Tokyo Team, {Faculty of Engineering, University of Tokyo

>  <COMMENT>  (3942) 
SMILES=CCCCCCC(=O)OCC=C
InChI=InChI=1S/C10H18O2/c1-3-5-6-7-8-10(11)12-9-4-2/h4H,2-3,5-9H2,1H3
computed SMILES=O=C(OCC=C)CCCCCC
accession=JP006542
date=2016.01.19 (Created 2008.10.21, modified 2011.05.06)
author=HISAHIRO HAGIWARA, CHEMICAL RESEARCH INSTITUTE OF NON-AQUEOUSSOLUTIONS TOHOKU UNIV.
license=CC BY-NC-SA
exact mass=170.13068
ionization energy=70 eV
ion type=[M]+*
computed spectral entropy=2.8665453226005635
computed normalized entropy=0.7621358168739646
SPLASH=splash10-0006-9200000000-2e459b52b81578cb3267
submitter=submitter = University of Tokyo Team (Faculty of Engineering, University of Tokyo)
MoNA Rating=3.75

>  <NUM PEAKS>  (3942) 
43

>  <MASS SPECTRAL PEAKS>  (3942) 
15 1.03
26 1.81
27 20.16
29 20.53
31 1.3
38 1.34
39 27.24
40 2.53
41 88.11
42 10.64
43 99.99
44 2.6
45 2.77
53 2.19
54 8.08
55 33.03
56 11.48
57 19.22
58 7.73
59 1.02
60 1.09
67 2.01
68 2.12
69 20.56
70 1.53
71 1.21
73 1.33
81 1.54
82 2.85
83 15.8
84 3.4
85 25.7
86 1.59
87 2.14
95 3.52
99 1.93
100 27.84
101 2.17
111 3.27
113 72.49
114 5.58
127 3.02
141 1.23

$$$$

     RDKit          2D

 11 10  0  0  0  0  0  0  0  0999 V2000
   -8.4437    5.6250    0.0000 C   0  0  0  0  0  0  0  0  0  0  0  0
    3.2476    4.8750    0.0000 C   0  0  0  0  0  0  0  0  0  0  0  0
   -7.1447    4.8750    0.0000 C   0  0  0  0  0  0  0  0  0  0  0  0
    1.9486    5.6250    0.0000 C   0  0  0  0  0  0  0  0  0  0  0  0
   -5.8457    5.6250    0.0000 C   0  0  0  0  0  0  0  0  0  0  0  0
   -4.5466    4.8750    0.0000 C   0  0  0  0  0  0  0  0  0  0  0  0
   -3.2476    5.6250    0.0000 C   0  0  0  0  0  0  0  0  0  0  0  0
   -1.9486    4.8750    0.0000 C   0  0  0  0  0  0  0  0  0  0  0  0
   -0.6495    5.6250    0.0000 C   0  0  0  0  0  0  0  0  0  0  0  0
   -0.6495    7.1250    0.0000 O   0  0  0  0  0  0  0  0  0  0  0  0
    0.6495    4.8750    0.0000 O   0  0  0  0  0  0  0  0  0  0  0  0
  3  1  1  0
  4  2  1  0
  5  3  1  0
  6  5  1  0
  7  6  1  0
  8  7  1  0
  9  8  1  0
 10  9  2  0
 11  4  1  0
 11  9  1  0
M  END
>  <NAME>  (3943) 
ETHYL HEPTANOATE

>  <SYNONYMS>  (3943) 


>  <SPECTRUM TYPE>  (3943) 
MS1

>  <INSTRUMENT TYPE>  (3943) 
EI-B

>  <INSTRUMENT>  (3943) 
HITACHI M-80B

>  <ION MODE>  (3943) 
P

>  <INCHIKEY>  (3943) 
TVQGDYNRXLTQAP-UHFFFAOYSA-N

>  <FORMULA>  (3943) 
C9H18O2

>  <EXACT MASS>  (3943) 
158.130679816

>  <MW>  (3943) 
158

>  <ID>  (3943) 
JP006541

>  <CONTRIBUTOR>  (3943) 
University of Tokyo Team, {Faculty of Engineering, University of Tokyo

>  <COMMENT>  (3943) 
SMILES=CCCCCCC(=O)OCC
InChI=InChI=1S/C9H18O2/c1-3-5-6-7-8-9(10)11-4-2/h3-8H2,1-2H3
computed SMILES=O=C(OCC)CCCCCC
accession=JP006541
date=2016.01.19 (Created 2008.10.21, modified 2011.05.06)
author=HISAHIRO HAGIWARA, CHEMICAL RESEARCH INSTITUTE OF NON-AQUEOUSSOLUTIONS TOHOKU UNIV.
license=CC BY-NC-SA
exact mass=158.13068
ionization energy=70 eV
ion type=[M]+*
computed spectral entropy=3.0643035114286405
computed normalized entropy=0.8147142978760611
SPLASH=splash10-01rf-9100000000-a353a37f3708e92c2326
submitter=submitter = University of Tokyo Team (Faculty of Engineering, University of Tokyo)
MoNA Rating=3.75

>  <NUM PEAKS>  (3943) 
43

>  <MASS SPECTRAL PEAKS>  (3943) 
15 1.67
26 2.37
27 33.18
29 54.94
30 1.36
31 1.85
39 14.33
41 40.27
42 12.48
43 61.49
44 1.82
45 15.88
53 2.29
54 1.2
55 21.57
56 7.43
57 9.19
59 1.49
60 36.98
61 23.84
67 1.12
68 1.78
69 8.44
70 18.28
71 1.47
73 24.12
74 3.84
83 4.14
84 5.84
85 9.89
87 6.51
88 99.99
89 6.34
95 1.13
101 27.46
102 2.13
111 1.07
113 31.98
114 1.84
115 12.15
129 1.88
131 1.88
158 1.04

$$$$

     RDKit          2D

 10  9  0  0  0  0  0  0  0  0999 V2000
    2.5981    4.5000    0.0000 C   0  0  0  0  0  0  0  0  0  0  0  0
   -7.7942    4.5000    0.0000 C   0  0  0  0  0  0  0  0  0  0  0  0
    1.2990    5.2500    0.0000 C   0  0  0  0  0  0  0  0  0  0  0  0
    0.0000    4.5000    0.0000 C   0  0  0  0  0  0  0  0  0  0  0  0
   -1.2990    5.2500    0.0000 C   0  0  0  0  0  0  0  0  0  0  0  0
   -2.5981    4.5000    0.0000 C   0  0  0  0  0  0  0  0  0  0  0  0
   -3.8971    5.2500    0.0000 C   0  0  0  0  0  0  0  0  0  0  0  0
   -5.1962    4.5000    0.0000 C   0  0  0  0  0  0  0  0  0  0  0  0
   -5.1962    3.0000    0.0000 O   0  0  0  0  0  0  0  0  0  0  0  0
   -6.4952    5.2500    0.0000 O   0  0  0  0  0  0  0  0  0  0  0  0
  3  1  1  0
  4  3  1  0
  5  4  1  0
  6  5  1  0
  7  6  1  0
  8  7  1  0
  9  8  2  0
 10  2  1  0
 10  8  1  0
M  END
>  <NAME>  (3944) 
METHYL HEPTANOATE

>  <SYNONYMS>  (3944) 


>  <SPECTRUM TYPE>  (3944) 
MS1

>  <INSTRUMENT TYPE>  (3944) 
EI-B

>  <INSTRUMENT>  (3944) 
HITACHI M-80B

>  <ION MODE>  (3944) 
P

>  <INCHIKEY>  (3944) 
XNCNNDVCAUWAIT-UHFFFAOYSA-N

>  <FORMULA>  (3944) 
C8H16O2

>  <EXACT MASS>  (3944) 
144.115029752

>  <MW>  (3944) 
144

>  <ID>  (3944) 
JP006540

>  <CONTRIBUTOR>  (3944) 
University of Tokyo Team, {Faculty of Engineering, University of Tokyo

>  <COMMENT>  (3944) 
SMILES=CCCCCCC(=O)OC
InChI=InChI=1S/C8H16O2/c1-3-4-5-6-7-8(9)10-2/h3-7H2,1-2H3
computed SMILES=O=C(OC)CCCCCC
accession=JP006540
date=2016.01.19 (Created 2008.10.21, modified 2011.05.06)
author=HISAHIRO HAGIWARA, CHEMICAL RESEARCH INSTITUTE OF NON-AQUEOUSSOLUTIONS TOHOKU UNIV.
license=CC BY-NC-SA
exact mass=144.11503
ionization energy=70 eV
ion type=[M]+*
computed spectral entropy=2.5792993489206615
computed normalized entropy=0.7916583559819783
SPLASH=splash10-00dl-9000000000-c75583daf34e71035579
submitter=submitter = University of Tokyo Team (Faculty of Engineering, University of Tokyo)
MoNA Rating=3.75

>  <NUM PEAKS>  (3944) 
26

>  <MASS SPECTRAL PEAKS>  (3944) 
15 6.84
27 12.17
29 11.2
31 1.5
39 9.36
41 21.78
42 5.65
43 32.18
45 1.64
53 1.47
55 13.77
56 4.22
57 4.69
59 15.26
69 4.11
73 1.95
74 99.99
75 6.44
83 1.46
84 4
85 2.45
87 33.58
88 3.58
101 12.04
113 13.85
115 2.28

$$$$

     RDKit          2D

 16 16  0  0  0  0  0  0  0  0999 V2000
    4.8721    3.8829    0.0000 C   0  0  0  0  0  0  0  0  0  0  0  0
   -4.2212    1.6329    0.0000 C   0  0  0  0  0  0  0  0  0  0  0  0
    3.5731    3.1329    0.0000 C   0  0  0  0  0  0  0  0  0  0  0  0
    2.2740    3.8829    0.0000 C   0  0  0  0  0  0  0  0  0  0  0  0
   -8.1183    5.3829    0.0000 C   0  0  0  0  0  0  0  0  0  0  0  0
    0.9750    3.1329    0.0000 C   0  0  0  0  0  0  0  0  0  0  0  0
   -8.1187    3.8821    0.0000 C   0  0  0  0  0  0  0  0  0  0  0  0
   -6.8187    6.1337    0.0000 C   0  0  0  0  0  0  0  0  0  0  0  0
   -6.8197    3.1321    0.0000 C   0  0  0  0  0  0  0  0  0  0  0  0
   -5.5197    5.3837    0.0000 C   0  0  0  0  0  0  0  0  0  0  0  0
   -0.3240    3.8829    0.0000 C   0  0  0  0  0  0  0  0  0  0  0  0
   -4.2212    3.1329    0.0000 C   0  0  0  0  0  0  0  0  0  0  0  0
   -5.5202    3.8829    0.0000 C   0  0  0  0  0  0  0  0  0  0  0  0
   -1.6231    3.1329    0.0000 C   0  0  0  0  0  0  0  0  0  0  0  0
   -1.6231    1.6329    0.0000 O   0  0  0  0  0  0  0  0  0  0  0  0
   -2.9221    3.8829    0.0000 O   0  0  0  0  0  0  0  0  0  0  0  0
  3  1  1  0
  4  3  1  0
  6  4  1  0
  7  5  2  0
  8  5  1  0
  9  7  1  0
 10  8  2  0
 11  6  1  0
 12  2  1  0
 13  9  2  0
 13 10  1  0
 13 12  1  0
 14 11  1  0
 15 14  2  0
 16 12  1  0
 16 14  1  0
M  END
>  <NAME>  (3945) 
1-PHENYLETHYL HEXANOATE

>  <SYNONYMS>  (3945) 
METHYLPHENYLCARBINYL HEXANOATE

>  <SPECTRUM TYPE>  (3945) 
MS1

>  <INSTRUMENT TYPE>  (3945) 
EI-B

>  <INSTRUMENT>  (3945) 
HITACHI M-80B

>  <ION MODE>  (3945) 
P

>  <INCHIKEY>  (3945) 
XDNXTDFSRYCZFT-UHFFFAOYSA-N

>  <FORMULA>  (3945) 
C14H20O2

>  <EXACT MASS>  (3945) 
220.14632988

>  <MW>  (3945) 
220

>  <ID>  (3945) 
JP006539

>  <CONTRIBUTOR>  (3945) 
University of Tokyo Team, {Faculty of Engineering, University of Tokyo

>  <COMMENT>  (3945) 
SMILES=CCCCCC(=O)OC(C)c(c1)cccc1
InChI=InChI=1S/C14H20O2/c1-3-4-6-11-14(15)16-12(2)13-9-7-5-8-10-13/h5,7-10,12H,3-4,6,11H2,1-2H3
computed SMILES=O=C(OC(C=1C=CC=CC1)C)CCCCC
accession=JP006539
date=2016.01.19 (Created 2008.10.21, modified 2011.05.06)
author=HISAHIRO HAGIWARA, CHEMICAL RESEARCH INSTITUTE OF NON-AQUEOUSSOLUTIONS TOHOKU UNIV.
license=CC BY-NC-SA
exact mass=220.14633
ionization energy=70 eV
ion type=[M]+*
computed spectral entropy=2.650497660726124
computed normalized entropy=0.7647719662034755
SPLASH=splash10-0pk9-5900000000-0872a292f4dfc6dad86d
submitter=submitter = University of Tokyo Team (Faculty of Engineering, University of Tokyo)
MoNA Rating=3.75

>  <NUM PEAKS>  (3945) 
32

>  <MASS SPECTRAL PEAKS>  (3945) 
27 12.3
29 9.47
39 6.09
41 10.58
42 3.64
43 26.18
50 2.41
51 7.04
52 1.98
53 1.49
55 3.59
63 1.66
65 1.21
69 1.3
71 10.33
77 22.26
78 13.76
79 12.74
91 1.31
99 16.41
100 1.02
102 1.52
103 13.17
104 70.17
105 99.99
106 7.44
107 3.58
115 1.92
121 4.26
122 75.06
123 5
220 3.43

$$$$

     RDKit          2D

 16 17  0  0  0  0  0  0  0  0999 V2000
   10.2313    1.0802    0.0000 C   0  0  0  0  0  0  0  0  0  0  0  0
   -0.6759    1.4813    0.0000 C   0  0  0  0  0  0  0  0  0  0  0  0
   -0.6759   -2.3013    0.0000 C   0  0  0  0  0  0  0  0  0  0  0  0
    2.4475    2.5900    0.0000 C   0  0  0  0  0  0  0  0  0  0  0  0
    8.9311    0.3321    0.0000 C   0  0  0  0  0  0  0  0  0  0  0  0
    7.6332    1.0841    0.0000 C   0  0  0  0  0  0  0  0  0  0  0  0
    1.1450   -1.1600    0.0000 C   0  0  0  0  0  0  0  0  0  0  0  0
    1.1450    0.3400    0.0000 C   0  0  0  0  0  0  0  0  0  0  0  0
    3.7350   -1.1600    0.0000 C   0  0  0  0  0  0  0  0  0  0  0  0
    2.4450   -1.9100    0.0000 C   0  0  0  0  0  0  0  0  0  0  0  0
    3.7350    0.3400    0.0000 C   0  0  0  0  0  0  0  0  0  0  0  0
    6.3331    0.3361    0.0000 C   0  0  0  0  0  0  0  0  0  0  0  0
    1.5750   -0.4100    0.0000 C   0  0  0  0  0  0  0  0  0  0  0  0
    2.4450    1.0900    0.0000 C   0  0  0  0  0  0  0  0  0  0  0  0
    6.3308   -1.1639    0.0000 O   0  0  0  0  0  0  0  0  0  0  0  0
    5.0352    1.0880    0.0000 O   0  0  0  0  0  0  0  0  0  0  0  0
  5  1  1  0
  6  5  1  0
  8  7  1  0
 10  7  1  0
 10  9  1  0
 11  9  1  0
 12  6  1  0
 13  2  1  0
 13  3  1  0
 13 10  1  0
 14  4  1  0
 14  8  1  0
 14 11  1  0
 14 13  1  0
 15 12  2  0
 16 11  1  0
 16 12  1  0
M  END
>  <NAME>  (3946) 
BORNYL BUTYRATE

>  <SYNONYMS>  (3946) 


>  <SPECTRUM TYPE>  (3946) 
MS1

>  <INSTRUMENT TYPE>  (3946) 
EI-B

>  <INSTRUMENT>  (3946) 
HITACHI M-80B

>  <ION MODE>  (3946) 
P

>  <INCHIKEY>  (3946) 
VIPNQHBVIDJXJE-UHFFFAOYSA-N

>  <FORMULA>  (3946) 
C14H24O2

>  <EXACT MASS>  (3946) 
224.177630008

>  <MW>  (3946) 
224

>  <ID>  (3946) 
JP006538

>  <CONTRIBUTOR>  (3946) 
University of Tokyo Team, {Faculty of Engineering, University of Tokyo

>  <COMMENT>  (3946) 
SMILES=CCCC(=O)OC(C1)C(C)(C2)C(C)(C)C(C2)1
InChI=InChI=1S/C14H24O2/c1-5-6-12(15)16-11-9-10-7-8-14(11,4)13(10,2)3/h10-11H,5-9H2,1-4H3
computed SMILES=O=C(OC1CC2CCC1(C)C2(C)C)CCC
accession=JP006538
date=2016.01.19 (Created 2008.10.21, modified 2011.05.06)
author=HISAHIRO HAGIWARA, CHEMICAL RESEARCH INSTITUTE OF NON-AQUEOUSSOLUTIONS TOHOKU UNIV.
license=CC BY-NC-SA
exact mass=224.17763
ionization energy=70 eV
ion type=[M]+*
computed spectral entropy=3.374284966757623
computed normalized entropy=0.8208193873728075
SPLASH=splash10-006y-9300000000-da808414063397acc563
submitter=submitter = University of Tokyo Team (Faculty of Engineering, University of Tokyo)
MoNA Rating=3.75

>  <NUM PEAKS>  (3946) 
61

>  <MASS SPECTRAL PEAKS>  (3946) 
27 17.53
28 2.18
29 10.53
39 12.42
40 2.01
41 49.92
42 6.51
43 83.05
44 2.37
45 1.42
51 1.15
53 8.9
54 1.37
55 20.15
56 1.35
57 4.07
60 1.6
65 2.72
66 1.18
67 15.06
68 7.21
69 20.83
70 1.96
71 99.99
72 5.24
73 1.09
77 7.2
78 1.41
79 10.25
80 17.89
81 19.22
82 6.8
83 6.78
84 2.22
91 7.21
92 15.95
93 53.79
94 10.03
95 94.93
96 7.49
97 2.26
105 2.01
107 10.21
108 33.23
109 40.71
110 19.05
111 5.72
121 40.64
122 3.36
123 2.17
125 1.18
135 3.43
136 53.58
137 12.05
138 1.18
152 1.03
153 2.89
154 12.24
155 1.63
224 15.81
225 2.37

$$$$

     RDKit          2D

 16 15  0  0  0  0  0  0  0  0999 V2000
    4.5466    5.6250    0.0000 C   0  0  0  0  0  0  0  0  0  0  0  0
   -7.1447   12.3750    0.0000 C   0  0  0  0  0  0  0  0  0  0  0  0
   -8.4437   10.1250    0.0000 C   0  0  0  0  0  0  0  0  0  0  0  0
   -5.8457    5.6250    0.0000 C   0  0  0  0  0  0  0  0  0  0  0  0
    3.2476    6.3750    0.0000 C   0  0  0  0  0  0  0  0  0  0  0  0
   -5.8457    8.6250    0.0000 C   0  0  0  0  0  0  0  0  0  0  0  0
    1.9486    5.6250    0.0000 C   0  0  0  0  0  0  0  0  0  0  0  0
   -5.8457   10.1250    0.0000 C   0  0  0  0  0  0  0  0  0  0  0  0
   -4.5466    7.8750    0.0000 C   0  0  0  0  0  0  0  0  0  0  0  0
   -3.2476    5.6250    0.0000 C   0  0  0  0  0  0  0  0  0  0  0  0
   -1.9486    6.3750    0.0000 C   0  0  0  0  0  0  0  0  0  0  0  0
   -7.1447   10.8750    0.0000 C   0  0  0  0  0  0  0  0  0  0  0  0
   -4.5466    6.3750    0.0000 C   0  0  0  0  0  0  0  0  0  0  0  0
    0.6495    6.3750    0.0000 C   0  0  0  0  0  0  0  0  0  0  0  0
    0.6495    7.8750    0.0000 O   0  0  0  0  0  0  0  0  0  0  0  0
   -0.6495    5.6250    0.0000 O   0  0  0  0  0  0  0  0  0  0  0  0
  5  1  1  0
  7  5  1  0
  8  6  1  0
  9  6  1  0
 11 10  1  0
 12  2  1  0
 12  3  1  0
 12  8  2  0
 13  4  1  0
 13  9  1  0
 10 13  2  0
 14  7  1  0
 15 14  2  0
 16 11  1  0
 16 14  1  0
M  END
>  <NAME>  (3947) 
NERYL BUTYRATE

>  <SYNONYMS>  (3947) 
3,7-DIMETHYL-2,6-OCTADIENYL BUTYRATE

>  <SPECTRUM TYPE>  (3947) 
MS1

>  <INSTRUMENT TYPE>  (3947) 
EI-B

>  <INSTRUMENT>  (3947) 
HITACHI M-80B

>  <ION MODE>  (3947) 
P

>  <INCHIKEY>  (3947) 
ZSBOMYJPSRFZAL-RAXLEYEMSA-N

>  <FORMULA>  (3947) 
C14H24O2

>  <EXACT MASS>  (3947) 
224.177630008

>  <MW>  (3947) 
224

>  <ID>  (3947) 
JP006537

>  <CONTRIBUTOR>  (3947) 
University of Tokyo Team, {Faculty of Engineering, University of Tokyo

>  <COMMENT>  (3947) 
SMILES=CCCC(=O)OCC=C(C)CCC=C(C)C
InChI=InChI=1S/C14H24O2/c1-5-7-14(15)16-11-10-13(4)9-6-8-12(2)3/h8,10H,5-7,9,11H2,1-4H3/b13-10-
computed SMILES=O=C(OCC=C(C)CCC=C(C)C)CCC
accession=JP006537
date=2016.01.19 (Created 2008.10.21, modified 2011.05.06)
author=HISAHIRO HAGIWARA, CHEMICAL RESEARCH INSTITUTE OF NON-AQUEOUSSOLUTIONS TOHOKU UNIV.
license=CC BY-NC-SA
exact mass=224.17763
ionization energy=70 eV
ion type=[M]+*
computed spectral entropy=2.992358776073737
computed normalized entropy=0.7907528600714867
SPLASH=splash10-014l-9100000000-0bc04e3a6c520f0cfadd
submitter=submitter = University of Tokyo Team (Faculty of Engineering, University of Tokyo)
MoNA Rating=3.75

>  <NUM PEAKS>  (3947) 
44

>  <MASS SPECTRAL PEAKS>  (3947) 
27 11.61
29 5.63
39 10.56
40 3.5
41 61.16
42 4.49
43 38.46
44 1.26
51 1.22
53 10.82
54 1.36
55 5.51
65 1.82
66 1.32
67 13.55
68 51.74
69 99.99
70 6.31
71 43.53
72 1.85
77 3.12
79 5.11
80 25.78
81 12.31
82 1.35
83 1.14
84 3.42
85 1.77
91 3.12
92 10.55
93 54.93
94 8.91
95 3.55
97 1.02
105 1.4
107 6.92
108 2.13
121 23.02
122 2.42
123 2.6
136 18.73
137 3.89
154 2.8
155 1.11

$$$$

     RDKit          2D

 11 10  0  0  0  0  0  0  0  0999 V2000
   -8.4437    5.6250    0.0000 C   0  0  0  0  0  0  0  0  0  0  0  0
    3.2476    4.8750    0.0000 C   0  0  0  0  0  0  0  0  0  0  0  0
   -7.1447    4.8750    0.0000 C   0  0  0  0  0  0  0  0  0  0  0  0
    1.9486    5.6250    0.0000 C   0  0  0  0  0  0  0  0  0  0  0  0
   -5.8457    5.6250    0.0000 C   0  0  0  0  0  0  0  0  0  0  0  0
   -4.5466    4.8750    0.0000 C   0  0  0  0  0  0  0  0  0  0  0  0
   -3.2476    5.6250    0.0000 C   0  0  0  0  0  0  0  0  0  0  0  0
   -1.9486    4.8750    0.0000 C   0  0  0  0  0  0  0  0  0  0  0  0
    0.6495    4.8750    0.0000 C   0  0  0  0  0  0  0  0  0  0  0  0
    0.6495    3.3750    0.0000 O   0  0  0  0  0  0  0  0  0  0  0  0
   -0.6495    5.6250    0.0000 O   0  0  0  0  0  0  0  0  0  0  0  0
  3  1  1  0
  4  2  1  0
  5  3  1  0
  6  5  1  0
  6  7  2  0
  8  7  1  0
  9  4  1  0
 10  9  2  0
 11  8  1  0
 11  9  1  0
M  END
>  <NAME>  (3948) 
TRANS-2-HEXENYL PROPIONATE

>  <SYNONYMS>  (3948) 


>  <SPECTRUM TYPE>  (3948) 
MS1

>  <INSTRUMENT TYPE>  (3948) 
EI-B

>  <INSTRUMENT>  (3948) 
HITACHI M-80B

>  <ION MODE>  (3948) 
P

>  <INCHIKEY>  (3948) 
LPWKTEHEFDVAQS-VOTSOKGWSA-N

>  <FORMULA>  (3948) 
C9H16O2

>  <EXACT MASS>  (3948) 
156.115029752

>  <MW>  (3948) 
156

>  <ID>  (3948) 
JP006536

>  <CONTRIBUTOR>  (3948) 
University of Tokyo Team, {Faculty of Engineering, University of Tokyo

>  <COMMENT>  (3948) 
SMILES=CCCC=CCOC(=O)CC
InChI=InChI=1S/C9H16O2/c1-3-5-6-7-8-11-9(10)4-2/h6-7H,3-5,8H2,1-2H3/b7-6+
computed SMILES=O=C(OCC=CCCC)CC
accession=JP006536
date=2016.01.19 (Created 2008.10.21, modified 2011.05.06)
author=HISAHIRO HAGIWARA, CHEMICAL RESEARCH INSTITUTE OF NON-AQUEOUSSOLUTIONS TOHOKU UNIV.
license=CC BY-NC-SA
exact mass=156.11503
ionization energy=70 eV
ion type=[M]+*
computed spectral entropy=2.4369759636307484
computed normalized entropy=0.7394103721478147
SPLASH=splash10-0a4i-9000000000-fd16154f2b66da8adddd
submitter=submitter = University of Tokyo Team (Faculty of Engineering, University of Tokyo)
MoNA Rating=3.75

>  <NUM PEAKS>  (3948) 
27

>  <MASS SPECTRAL PEAKS>  (3948) 
26 1.13
27 13.76
28 3.5
29 29.32
39 9.51
40 1.21
41 19.66
42 2.23
43 1.82
53 4.03
54 7
55 18.18
56 4.02
57 99.99
58 3.43
67 21.77
68 1.24
75 2.59
81 2.85
82 13.23
83 7.62
85 1.06
99 2.87
100 4.35
114 1.27
127 1.54
156 1.58

$$$$

     RDKit          2D

 10  9  0  0  0  0  0  0  0  0999 V2000
    2.2733    4.3125    0.0000 C   0  0  0  0  0  0  0  0  0  0  0  0
   -6.8200    5.0625    0.0000 C   0  0  0  0  0  0  0  0  0  0  0  0
   -5.5209    2.8125    0.0000 C   0  0  0  0  0  0  0  0  0  0  0  0
    0.9743    5.0625    0.0000 C   0  0  0  0  0  0  0  0  0  0  0  0
   -4.2219    5.0625    0.0000 C   0  0  0  0  0  0  0  0  0  0  0  0
   -2.9228    4.3125    0.0000 C   0  0  0  0  0  0  0  0  0  0  0  0
   -5.5209    4.3125    0.0000 C   0  0  0  0  0  0  0  0  0  0  0  0
   -1.6238    5.0625    0.0000 C   0  0  0  0  0  0  0  0  0  0  0  0
   -1.6238    6.5625    0.0000 O   0  0  0  0  0  0  0  0  0  0  0  0
   -0.3248    4.3125    0.0000 O   0  0  0  0  0  0  0  0  0  0  0  0
  4  1  1  0
  6  5  1  0
  7  2  1  0
  7  3  1  0
  7  5  1  0
  8  6  1  0
  9  8  2  0
 10  4  1  0
 10  8  1  0
M  END
>  <NAME>  (3949) 
ETHYL 4-METHYLPENTANOATE

>  <SYNONYMS>  (3949) 


>  <SPECTRUM TYPE>  (3949) 
MS1

>  <INSTRUMENT TYPE>  (3949) 
EI-B

>  <INSTRUMENT>  (3949) 
HITACHI M-80B

>  <ION MODE>  (3949) 
P

>  <INCHIKEY>  (3949) 
OFQRUTMGVBMTFQ-UHFFFAOYSA-N

>  <FORMULA>  (3949) 
C8H16O2

>  <EXACT MASS>  (3949) 
144.115029752

>  <MW>  (3949) 
144

>  <ID>  (3949) 
JP006535

>  <CONTRIBUTOR>  (3949) 
University of Tokyo Team, {Faculty of Engineering, University of Tokyo

>  <COMMENT>  (3949) 
SMILES=CCOC(=O)CCC(C)C
InChI=InChI=1S/C8H16O2/c1-4-10-8(9)6-5-7(2)3/h7H,4-6H2,1-3H3
computed SMILES=O=C(OCC)CCC(C)C
accession=JP006535
date=2016.01.19 (Created 2008.10.21, modified 2011.05.06)
author=HISAHIRO HAGIWARA, CHEMICAL RESEARCH INSTITUTE OF NON-AQUEOUSSOLUTIONS TOHOKU UNIV.
license=CC BY-NC-SA
exact mass=144.11503
ionization energy=70 eV
ion type=[M]+*
computed spectral entropy=3.220747178190983
computed normalized entropy=0.8319762185213005
SPLASH=splash10-0f9g-9100000000-4bbceed47a2856975b25
submitter=submitter = University of Tokyo Team (Faculty of Engineering, University of Tokyo)
MoNA Rating=3.75

>  <NUM PEAKS>  (3949) 
48

>  <MASS SPECTRAL PEAKS>  (3949) 
15 2.88
26 4.39
27 29.75
29 51.13
30 2.98
31 4.13
38 1.15
39 15.64
41 34.16
42 9.57
43 75.57
44 1.55
45 16.85
50 1.03
51 1.7
53 4.23
54 2.42
55 32.9
56 11.92
57 16.65
58 1.71
59 7.2
60 25.64
61 17.15
67 1.06
69 7.45
70 16.46
71 16.17
73 29.85
74 18.13
75 5.67
81 23.65
82 2.84
83 11.66
84 1.21
87 3.66
88 99.99
89 5.69
97 2.85
98 1.54
99 56.73
100 4.07
101 72.06
102 6.13
115 9.6
116 1.6
117 3.86
129 2.76

$$$$

     RDKit          2D

 10  9  0  0  0  0  0  0  0  0999 V2000
   -6.4952    4.5000    0.0000 C   0  0  0  0  0  0  0  0  0  0  0  0
    2.5981    3.7500    0.0000 C   0  0  0  0  0  0  0  0  0  0  0  0
   -2.5981    2.2500    0.0000 C   0  0  0  0  0  0  0  0  0  0  0  0
   -5.1962    3.7500    0.0000 C   0  0  0  0  0  0  0  0  0  0  0  0
    1.2990    4.5000    0.0000 C   0  0  0  0  0  0  0  0  0  0  0  0
   -3.8971    4.5000    0.0000 C   0  0  0  0  0  0  0  0  0  0  0  0
   -2.5981    3.7500    0.0000 C   0  0  0  0  0  0  0  0  0  0  0  0
   -1.2990    4.5000    0.0000 C   0  0  0  0  0  0  0  0  0  0  0  0
   -1.2990    6.0000    0.0000 O   0  0  0  0  0  0  0  0  0  0  0  0
    0.0000    3.7500    0.0000 O   0  0  0  0  0  0  0  0  0  0  0  0
  4  1  1  0
  5  2  1  0
  6  4  1  0
  7  3  1  0
  7  6  1  0
  8  7  1  0
  9  8  2  0
 10  5  1  0
 10  8  1  0
M  END
>  <NAME>  (3950) 
ETHYL 2-METHYLPENTANOATE

>  <SYNONYMS>  (3950) 


>  <SPECTRUM TYPE>  (3950) 
MS1

>  <INSTRUMENT TYPE>  (3950) 
EI-B

>  <INSTRUMENT>  (3950) 
HITACHI M-80B

>  <ION MODE>  (3950) 
P

>  <INCHIKEY>  (3950) 
HZPKNSYIDSNZKW-UHFFFAOYSA-N

>  <FORMULA>  (3950) 
C8H16O2

>  <EXACT MASS>  (3950) 
144.115029752

>  <MW>  (3950) 
144

>  <ID>  (3950) 
JP006534

>  <CONTRIBUTOR>  (3950) 
University of Tokyo Team, {Faculty of Engineering, University of Tokyo

>  <COMMENT>  (3950) 
SMILES=CCCC(C)C(=O)OCC
InChI=InChI=1S/C8H16O2/c1-4-6-7(3)8(9)10-5-2/h7H,4-6H2,1-3H3
computed SMILES=O=C(OCC)C(C)CCC
accession=JP006534
date=2016.01.19 (Created 2008.10.21, modified 2011.05.06)
author=HISAHIRO HAGIWARA, CHEMICAL RESEARCH INSTITUTE OF NON-AQUEOUSSOLUTIONS TOHOKU UNIV.
license=CC BY-NC-SA
exact mass=144.11503
ionization energy=70 eV
ion type=[M]+*
computed spectral entropy=2.7061907841142574
computed normalized entropy=0.7808416047882109
SPLASH=splash10-0ukc-9300000000-fff4083f113472b3bf87
submitter=submitter = University of Tokyo Team (Faculty of Engineering, University of Tokyo)
MoNA Rating=3.75

>  <NUM PEAKS>  (3950) 
32

>  <MASS SPECTRAL PEAKS>  (3950) 
26 1.76
27 13.06
29 24.97
30 1.51
31 1.44
39 6.64
41 19.78
42 6.55
43 59.11
45 5.09
53 1.96
55 9.7
56 5.96
57 2.18
59 1.79
69 3.53
70 3.95
71 48.69
72 3.15
73 6.25
74 47.61
75 4.6
87 9.91
99 25.38
100 2.16
101 5.37
102 99.99
103 5.81
115 12.03
116 1.68
117 2.13
129 1.48

$$$$

     RDKit          2D

 13 12  0  0  0  0  0  0  0  0999 V2000
    3.2476    4.8750    0.0000 C   0  0  0  0  0  0  0  0  0  0  0  0
    1.9486    7.1250    0.0000 C   0  0  0  0  0  0  0  0  0  0  0  0
   -8.4437    5.6250    0.0000 C   0  0  0  0  0  0  0  0  0  0  0  0
   -7.1447    3.3750    0.0000 C   0  0  0  0  0  0  0  0  0  0  0  0
    0.6495    4.8750    0.0000 C   0  0  0  0  0  0  0  0  0  0  0  0
   -0.6495    5.6250    0.0000 C   0  0  0  0  0  0  0  0  0  0  0  0
   -5.8457    5.6250    0.0000 C   0  0  0  0  0  0  0  0  0  0  0  0
   -4.5466    4.8750    0.0000 C   0  0  0  0  0  0  0  0  0  0  0  0
    1.9486    5.6250    0.0000 C   0  0  0  0  0  0  0  0  0  0  0  0
   -7.1447    4.8750    0.0000 C   0  0  0  0  0  0  0  0  0  0  0  0
   -1.9486    4.8750    0.0000 C   0  0  0  0  0  0  0  0  0  0  0  0
   -1.9486    3.3750    0.0000 O   0  0  0  0  0  0  0  0  0  0  0  0
   -3.2476    5.6250    0.0000 O   0  0  0  0  0  0  0  0  0  0  0  0
  6  5  1  0
  8  7  1  0
  9  1  1  0
  9  2  1  0
  9  5  1  0
 10  3  1  0
 10  4  1  0
 10  7  1  0
 11  6  1  0
 12 11  2  0
 13  8  1  0
 13 11  1  0
M  END
>  <NAME>  (3951) 
ISOPENTYL 4-METHYLPENTANOATE

>  <SYNONYMS>  (3951) 
ISOAMYL 4-METHYLPENTANOATE

>  <SPECTRUM TYPE>  (3951) 
MS1

>  <INSTRUMENT TYPE>  (3951) 
EI-B

>  <INSTRUMENT>  (3951) 
HITACHI M-80B

>  <ION MODE>  (3951) 
P

>  <INCHIKEY>  (3951) 
XGGPQUVMPUGUIC-UHFFFAOYSA-N

>  <FORMULA>  (3951) 
C11H22O2

>  <EXACT MASS>  (3951) 
186.161979944

>  <MW>  (3951) 
186

>  <ID>  (3951) 
JP006533

>  <CONTRIBUTOR>  (3951) 
University of Tokyo Team, {Faculty of Engineering, University of Tokyo

>  <COMMENT>  (3951) 
SMILES=CC(C)CCOC(=O)CCC(C)C
InChI=InChI=1S/C11H22O2/c1-9(2)5-6-11(12)13-8-7-10(3)4/h9-10H,5-8H2,1-4H3
computed SMILES=O=C(OCCC(C)C)CCC(C)C
accession=JP006533
date=2016.01.19 (Created 2008.10.21, modified 2011.05.06)
author=HISAHIRO HAGIWARA, CHEMICAL RESEARCH INSTITUTE OF NON-AQUEOUSSOLUTIONS TOHOKU UNIV.
license=CC BY-NC-SA
exact mass=186.16198
ionization energy=70 eV
ion type=[M]+*
computed spectral entropy=2.6555301892482555
computed normalized entropy=0.7662240469918777
SPLASH=splash10-00dl-9000000000-15a5edd947b0a70fc87a
submitter=submitter = University of Tokyo Team (Faculty of Engineering, University of Tokyo)
MoNA Rating=3.75

>  <NUM PEAKS>  (3951) 
32

>  <MASS SPECTRAL PEAKS>  (3951) 
27 14.12
29 13.95
31 1.01
39 9.64
41 30.06
42 10.34
43 68.12
44 1.93
45 1.44
53 2.09
54 1.01
55 31.39
56 6.14
57 6.24
60 2.06
69 6.13
70 99.99
71 41.51
72 2.17
73 5.94
74 1.82
81 16.56
82 1.04
83 2.1
87 1.33
97 1.22
99 42.6
100 3.8
101 6.71
115 1.63
117 9.86
143 2.06

$$$$

     RDKit          2D

 11 10  0  0  0  0  0  0  0  0999 V2000
    2.5981    4.5000    0.0000 C   0  0  0  0  0  0  0  0  0  0  0  0
   -7.7942    4.5000    0.0000 C   0  0  0  0  0  0  0  0  0  0  0  0
   -6.4952    6.7500    0.0000 C   0  0  0  0  0  0  0  0  0  0  0  0
    1.2990    5.2500    0.0000 C   0  0  0  0  0  0  0  0  0  0  0  0
   -5.1962    4.5000    0.0000 C   0  0  0  0  0  0  0  0  0  0  0  0
   -3.8971    5.2500    0.0000 C   0  0  0  0  0  0  0  0  0  0  0  0
    0.0000    4.5000    0.0000 C   0  0  0  0  0  0  0  0  0  0  0  0
   -6.4952    5.2500    0.0000 C   0  0  0  0  0  0  0  0  0  0  0  0
   -2.5981    4.5000    0.0000 C   0  0  0  0  0  0  0  0  0  0  0  0
   -2.5981    3.0000    0.0000 O   0  0  0  0  0  0  0  0  0  0  0  0
   -1.2990    5.2500    0.0000 O   0  0  0  0  0  0  0  0  0  0  0  0
  4  1  2  0
  6  5  1  0
  7  4  1  0
  8  2  1  0
  8  3  1  0
  8  5  1  0
  9  6  1  0
 10  9  2  0
 11  7  1  0
 11  9  1  0
M  END
>  <NAME>  (3952) 
ALLYL 4-METHYLPENTANOATE

>  <SYNONYMS>  (3952) 


>  <SPECTRUM TYPE>  (3952) 
MS1

>  <INSTRUMENT TYPE>  (3952) 
EI-B

>  <INSTRUMENT>  (3952) 
HITACHI M-80B

>  <ION MODE>  (3952) 
P

>  <INCHIKEY>  (3952) 
HXQZJNMRGBBCDJ-UHFFFAOYSA-N

>  <FORMULA>  (3952) 
C9H16O2

>  <EXACT MASS>  (3952) 
156.115029752

>  <MW>  (3952) 
156

>  <ID>  (3952) 
JP006532

>  <CONTRIBUTOR>  (3952) 
University of Tokyo Team, {Faculty of Engineering, University of Tokyo

>  <COMMENT>  (3952) 
SMILES=C=CCOC(=O)CCC(C)C
InChI=InChI=1S/C9H16O2/c1-4-7-11-9(10)6-5-8(2)3/h4,8H,1,5-7H2,2-3H3
computed SMILES=O=C(OCC=C)CCC(C)C
accession=JP006532
date=2016.01.19 (Created 2008.10.21, modified 2011.05.06)
author=HISAHIRO HAGIWARA, CHEMICAL RESEARCH INSTITUTE OF NON-AQUEOUSSOLUTIONS TOHOKU UNIV.
license=CC BY-NC-SA
exact mass=156.11503
ionization energy=70 eV
ion type=[M]+*
computed spectral entropy=2.8932087956157235
computed normalized entropy=0.789725702765843
SPLASH=splash10-0006-9000000000-e58e80fd8fa336cca8c7
submitter=submitter = University of Tokyo Team (Faculty of Engineering, University of Tokyo)
MoNA Rating=3.75

>  <NUM PEAKS>  (3952) 
39

>  <MASS SPECTRAL PEAKS>  (3952) 
15 1.93
26 2.35
27 23.78
29 17.08
31 1.59
38 1.72
39 35.71
40 3.93
41 99.99
42 9.12
43 86.93
44 2.47
45 1.49
53 3.23
54 7.31
55 33.9
56 12.24
57 14.45
58 6.2
59 1.09
60 3.89
67 1.23
68 1.45
69 18.85
70 3.4
71 23.56
72 1.52
73 9.35
81 39.41
82 4.1
83 2.77
85 1.1
95 3.29
97 7.63
99 47.81
100 21.58
101 2.02
113 3.57
115 1.67

$$$$

     RDKit          2D

 17 16  0  0  0  0  0  0  0  0999 V2000
    4.2219    7.6875    0.0000 C   0  0  0  0  0  0  0  0  0  0  0  0
  -12.6656    8.4375    0.0000 C   0  0  0  0  0  0  0  0  0  0  0  0
  -11.3666    6.1875    0.0000 C   0  0  0  0  0  0  0  0  0  0  0  0
   -6.1704    6.1875    0.0000 C   0  0  0  0  0  0  0  0  0  0  0  0
    2.9228    8.4375    0.0000 C   0  0  0  0  0  0  0  0  0  0  0  0
    1.6238    7.6875    0.0000 C   0  0  0  0  0  0  0  0  0  0  0  0
   -8.7685    7.6875    0.0000 C   0  0  0  0  0  0  0  0  0  0  0  0
  -10.0675    8.4375    0.0000 C   0  0  0  0  0  0  0  0  0  0  0  0
   -7.4695    8.4375    0.0000 C   0  0  0  0  0  0  0  0  0  0  0  0
    0.3248    8.4375    0.0000 C   0  0  0  0  0  0  0  0  0  0  0  0
   -4.8714    8.4375    0.0000 C   0  0  0  0  0  0  0  0  0  0  0  0
   -3.5724    7.6875    0.0000 C   0  0  0  0  0  0  0  0  0  0  0  0
  -11.3666    7.6875    0.0000 C   0  0  0  0  0  0  0  0  0  0  0  0
   -6.1704    7.6875    0.0000 C   0  0  0  0  0  0  0  0  0  0  0  0
   -0.9743    7.6875    0.0000 C   0  0  0  0  0  0  0  0  0  0  0  0
   -0.9743    6.1875    0.0000 O   0  0  0  0  0  0  0  0  0  0  0  0
   -2.2733    8.4375    0.0000 O   0  0  0  0  0  0  0  0  0  0  0  0
  5  1  1  0
  6  5  1  0
  8  7  1  0
  9  7  1  0
 10  6  1  0
 12 11  1  0
 13  2  1  0
 13  3  1  0
 13  8  2  0
 14  4  1  0
 14  9  1  0
 11 14  2  0
 15 10  1  0
 16 15  2  0
 17 12  1  0
 17 15  1  0
M  END
>  <NAME>  (3953) 
GERANYL VALERATE

>  <SYNONYMS>  (3953) 
3,7-DIMETHYL-2,6-OCTADIENYL PENTANOATE

>  <SPECTRUM TYPE>  (3953) 
MS1

>  <INSTRUMENT TYPE>  (3953) 
EI-B

>  <INSTRUMENT>  (3953) 
HITACHI M-80B

>  <ION MODE>  (3953) 
P

>  <INCHIKEY>  (3953) 
CVSWGLSBJFKWMW-SDNWHVSQSA-N

>  <FORMULA>  (3953) 
C15H26O2

>  <EXACT MASS>  (3953) 
238.193280072

>  <MW>  (3953) 
238

>  <ID>  (3953) 
JP006531

>  <CONTRIBUTOR>  (3953) 
University of Tokyo Team, {Faculty of Engineering, University of Tokyo

>  <COMMENT>  (3953) 
SMILES=CCCCC(=O)OCC=C(C)CCC=C(C)C
InChI=InChI=1S/C15H26O2/c1-5-6-10-15(16)17-12-11-14(4)9-7-8-13(2)3/h8,11H,5-7,9-10,12H2,1-4H3/b14-11+
computed SMILES=O=C(OCC=C(C)CCC=C(C)C)CCCC
accession=JP006531
date=2016.01.19 (Created 2008.10.21, modified 2011.05.06)
author=HISAHIRO HAGIWARA, CHEMICAL RESEARCH INSTITUTE OF NON-AQUEOUSSOLUTIONS TOHOKU UNIV.
license=CC BY-NC-SA
exact mass=238.19328
ionization energy=70 eV
ion type=[M]+*
computed spectral entropy=2.8844342833430248
computed normalized entropy=0.7819269561997281
SPLASH=splash10-014l-9100000000-f157fa9066566c1aec77
submitter=submitter = University of Tokyo Team (Faculty of Engineering, University of Tokyo)
MoNA Rating=3.75

>  <NUM PEAKS>  (3953) 
40

>  <MASS SPECTRAL PEAKS>  (3953) 
27 6.27
28 1.66
29 14.01
39 7.71
40 2.39
41 50.73
42 2.71
43 3.24
53 8.64
55 6.95
57 31.16
58 1.24
65 1.2
66 1.05
67 11.23
68 55.06
69 99.99
70 5.46
77 1.57
79 2.62
80 16.8
81 8.42
82 1.13
84 1.41
85 41.21
86 1.94
91 1.52
92 8.26
93 37.74
94 7.15
95 2.09
107 6.15
108 1.78
121 19.9
122 1.73
123 2.53
136 16.99
137 2.56
154 1.48
169 1.03

$$$$

     RDKit          2D

 12 11  0  0  0  0  0  0  0  0999 V2000
    2.9228    5.4375    0.0000 C   0  0  0  0  0  0  0  0  0  0  0  0
   -8.7685    6.1875    0.0000 C   0  0  0  0  0  0  0  0  0  0  0  0
   -7.4695    3.9375    0.0000 C   0  0  0  0  0  0  0  0  0  0  0  0
    1.6238    6.1875    0.0000 C   0  0  0  0  0  0  0  0  0  0  0  0
    0.3248    5.4375    0.0000 C   0  0  0  0  0  0  0  0  0  0  0  0
   -0.9743    6.1875    0.0000 C   0  0  0  0  0  0  0  0  0  0  0  0
   -2.2733    5.4375    0.0000 C   0  0  0  0  0  0  0  0  0  0  0  0
   -6.1704    6.1875    0.0000 C   0  0  0  0  0  0  0  0  0  0  0  0
   -7.4695    5.4375    0.0000 C   0  0  0  0  0  0  0  0  0  0  0  0
   -4.8714    5.4375    0.0000 C   0  0  0  0  0  0  0  0  0  0  0  0
   -4.8714    3.9375    0.0000 O   0  0  0  0  0  0  0  0  0  0  0  0
   -3.5724    6.1875    0.0000 O   0  0  0  0  0  0  0  0  0  0  0  0
  4  1  1  0
  5  4  1  0
  6  5  1  0
  7  6  1  0
  9  2  1  0
  9  3  1  0
  9  8  1  0
 10  8  1  0
 11 10  2  0
 12  7  1  0
 12 10  1  0
M  END
>  <NAME>  (3954) 
PENTYL ISOPENTANOATE

>  <SYNONYMS>  (3954) 
AMYL ISOVALERATE

>  <SPECTRUM TYPE>  (3954) 
MS1

>  <INSTRUMENT TYPE>  (3954) 
EI-B

>  <INSTRUMENT>  (3954) 
HITACHI M-80B

>  <ION MODE>  (3954) 
P

>  <INCHIKEY>  (3954) 
QURFFFCYNQXLCU-UHFFFAOYSA-N

>  <FORMULA>  (3954) 
C10H20O2

>  <EXACT MASS>  (3954) 
172.14632988

>  <MW>  (3954) 
172

>  <ID>  (3954) 
JP006530

>  <CONTRIBUTOR>  (3954) 
University of Tokyo Team, {Faculty of Engineering, University of Tokyo

>  <COMMENT>  (3954) 
SMILES=CCCCCOC(=O)CC(C)C
InChI=InChI=1S/C10H20O2/c1-4-5-6-7-12-10(11)8-9(2)3/h9H,4-8H2,1-3H3
computed SMILES=O=C(OCCCCC)CC(C)C
accession=JP006530
date=2016.01.19 (Created 2008.10.21, modified 2011.05.06)
author=HISAHIRO HAGIWARA, CHEMICAL RESEARCH INSTITUTE OF NON-AQUEOUSSOLUTIONS TOHOKU UNIV.
license=CC BY-NC-SA
exact mass=172.14633
ionization energy=70 eV
ion type=[M]+*
computed spectral entropy=2.844031007501415
computed normalized entropy=0.8065060244544856
SPLASH=splash10-059f-9100000000-80e4b949d6b2457b120a
submitter=submitter = University of Tokyo Team (Faculty of Engineering, University of Tokyo)
MoNA Rating=3.75

>  <NUM PEAKS>  (3954) 
34

>  <MASS SPECTRAL PEAKS>  (3954) 
15 1.43
26 1.19
27 24.59
29 37.43
31 1.75
39 20.73
41 60.64
42 36.88
43 72.1
44 2.32
45 3.78
53 2.07
54 1.02
55 28.98
56 6.29
57 68.06
58 3
59 6.32
60 21.27
61 16.6
69 8.7
70 91.07
71 17.92
72 1.12
85 99.99
86 5.99
87 19.02
100 1.15
101 1.02
102 6.98
103 78.03
104 4.48
115 5.18
130 3.56

$$$$

     RDKit          2D

 16 15  0  0  0  0  0  0  0  0999 V2000
    4.2219    7.6875    0.0000 C   0  0  0  0  0  0  0  0  0  0  0  0
  -12.6656    8.4375    0.0000 C   0  0  0  0  0  0  0  0  0  0  0  0
  -11.3666    6.1875    0.0000 C   0  0  0  0  0  0  0  0  0  0  0  0
    2.9228    8.4375    0.0000 C   0  0  0  0  0  0  0  0  0  0  0  0
    1.6238    7.6875    0.0000 C   0  0  0  0  0  0  0  0  0  0  0  0
    0.3248    8.4375    0.0000 C   0  0  0  0  0  0  0  0  0  0  0  0
   -0.9743    7.6875    0.0000 C   0  0  0  0  0  0  0  0  0  0  0  0
   -2.2733    8.4375    0.0000 C   0  0  0  0  0  0  0  0  0  0  0  0
   -3.5724    7.6875    0.0000 C   0  0  0  0  0  0  0  0  0  0  0  0
   -4.8714    8.4375    0.0000 C   0  0  0  0  0  0  0  0  0  0  0  0
   -6.1704    7.6875    0.0000 C   0  0  0  0  0  0  0  0  0  0  0  0
  -10.0675    8.4375    0.0000 C   0  0  0  0  0  0  0  0  0  0  0  0
  -11.3666    7.6875    0.0000 C   0  0  0  0  0  0  0  0  0  0  0  0
   -8.7685    7.6875    0.0000 C   0  0  0  0  0  0  0  0  0  0  0  0
   -8.7685    6.1875    0.0000 O   0  0  0  0  0  0  0  0  0  0  0  0
   -7.4695    8.4375    0.0000 O   0  0  0  0  0  0  0  0  0  0  0  0
  4  1  1  0
  5  4  1  0
  6  5  1  0
  7  6  1  0
  8  7  1  0
  9  8  1  0
 10  9  1  0
 11 10  1  0
 13  2  1  0
 13  3  1  0
 13 12  1  0
 14 12  1  0
 15 14  2  0
 16 11  1  0
 16 14  1  0
M  END
>  <NAME>  (3955) 
NONYL ISOPENTANOATE

>  <SYNONYMS>  (3955) 
NONYL ISOVALERATE

>  <SPECTRUM TYPE>  (3955) 
MS1

>  <INSTRUMENT TYPE>  (3955) 
EI-B

>  <INSTRUMENT>  (3955) 
HITACHI M-80B

>  <ION MODE>  (3955) 
P

>  <INCHIKEY>  (3955) 
JHKZVDVMXZGMOX-UHFFFAOYSA-N

>  <FORMULA>  (3955) 
C14H28O2

>  <EXACT MASS>  (3955) 
228.208930136

>  <MW>  (3955) 
228

>  <ID>  (3955) 
JP006529

>  <CONTRIBUTOR>  (3955) 
University of Tokyo Team, {Faculty of Engineering, University of Tokyo

>  <COMMENT>  (3955) 
computed SMILES=O=C(OCCCCCCCCC)CC(C)C
SMILES=CCCCCCCCCOC(=O)CC(C)C
InChI=InChI=1S/C14H28O2/c1-4-5-6-7-8-9-10-11-16-14(15)12-13(2)3/h13H,4-12H2,1-3H3
accession=JP006529
date=2016.01.19 (Created 2008.10.21, modified 2011.05.06)
author=HISAHIRO HAGIWARA, CHEMICAL RESEARCH INSTITUTE OF NON-AQUEOUSSOLUTIONS TOHOKU UNIV.
license=CC BY-NC-SA
exact mass=228.20893
ionization energy=70 eV
ion type=[M]+*
computed spectral entropy=3.1685906100511465
computed normalized entropy=0.8323802329642122
SPLASH=splash10-0pbc-9100000000-e1bb60b47fa5dacf8a5d
submitter=submitter = University of Tokyo Team (Faculty of Engineering, University of Tokyo)
MoNA Rating=3.75

>  <NUM PEAKS>  (3955) 
45

>  <MASS SPECTRAL PEAKS>  (3955) 
27 19.46
29 38.06
31 1.51
39 14.93
41 81.03
42 25.57
43 79.76
44 1.74
45 1.81
53 3.01
54 4.69
55 47.51
56 52.67
57 97.22
58 3.93
59 3.54
60 11.14
61 18.72
67 3.86
68 10.31
69 31.68
70 39.68
71 25.56
72 1.28
81 1.51
82 10.96
83 26.11
84 30.4
85 87.27
86 4.25
87 13.9
96 3.52
97 26.76
98 25.11
99 1.57
101 1.38
102 7.92
103 99.99
104 4.14
111 1.12
126 33.4
127 2.84
143 1.1
158 1.59
171 1.33

$$$$

     RDKit          2D

 15 14  0  0  0  0  0  0  0  0999 V2000
    3.8971    6.7500    0.0000 C   0  0  0  0  0  0  0  0  0  0  0  0
  -11.6913    6.7500    0.0000 C   0  0  0  0  0  0  0  0  0  0  0  0
  -10.3923    9.0000    0.0000 C   0  0  0  0  0  0  0  0  0  0  0  0
    2.5981    7.5000    0.0000 C   0  0  0  0  0  0  0  0  0  0  0  0
    1.2990    6.7500    0.0000 C   0  0  0  0  0  0  0  0  0  0  0  0
    0.0000    7.5000    0.0000 C   0  0  0  0  0  0  0  0  0  0  0  0
   -1.2990    6.7500    0.0000 C   0  0  0  0  0  0  0  0  0  0  0  0
   -2.5981    7.5000    0.0000 C   0  0  0  0  0  0  0  0  0  0  0  0
   -3.8971    6.7500    0.0000 C   0  0  0  0  0  0  0  0  0  0  0  0
   -5.1962    7.5000    0.0000 C   0  0  0  0  0  0  0  0  0  0  0  0
   -9.0933    6.7500    0.0000 C   0  0  0  0  0  0  0  0  0  0  0  0
  -10.3923    7.5000    0.0000 C   0  0  0  0  0  0  0  0  0  0  0  0
   -7.7942    7.5000    0.0000 C   0  0  0  0  0  0  0  0  0  0  0  0
   -7.7942    9.0000    0.0000 O   0  0  0  0  0  0  0  0  0  0  0  0
   -6.4952    6.7500    0.0000 O   0  0  0  0  0  0  0  0  0  0  0  0
  4  1  1  0
  5  4  1  0
  6  5  1  0
  7  6  1  0
  8  7  1  0
  9  8  1  0
 10  9  1  0
 12  2  1  0
 12  3  1  0
 12 11  1  0
 13 11  1  0
 14 13  2  0
 15 10  1  0
 15 13  1  0
M  END
>  <NAME>  (3956) 
OCTYL ISOPENTANOATE

>  <SYNONYMS>  (3956) 
OCTYL ISOVALERATE

>  <SPECTRUM TYPE>  (3956) 
MS1

>  <INSTRUMENT TYPE>  (3956) 
EI-B

>  <INSTRUMENT>  (3956) 
HITACHI M-80B

>  <ION MODE>  (3956) 
P

>  <INCHIKEY>  (3956) 
FUBGRVHGQADOJI-UHFFFAOYSA-N

>  <FORMULA>  (3956) 
C13H26O2

>  <EXACT MASS>  (3956) 
214.193280072

>  <MW>  (3956) 
214

>  <ID>  (3956) 
JP006528

>  <CONTRIBUTOR>  (3956) 
University of Tokyo Team, {Faculty of Engineering, University of Tokyo

>  <COMMENT>  (3956) 
SMILES=CCCCCCCCOC(=O)CC(C)C
InChI=InChI=1S/C13H26O2/c1-4-5-6-7-8-9-10-15-13(14)11-12(2)3/h12H,4-11H2,1-3H3
computed SMILES=O=C(OCCCCCCCC)CC(C)C
accession=JP006528
date=2016.01.19 (Created 2008.10.21, modified 2011.05.06)
author=HISAHIRO HAGIWARA, CHEMICAL RESEARCH INSTITUTE OF NON-AQUEOUSSOLUTIONS TOHOKU UNIV.
license=CC BY-NC-SA
exact mass=214.19328
ionization energy=70 eV
ion type=[M]+*
computed spectral entropy=3.0803381025550545
computed normalized entropy=0.8350335490415063
SPLASH=splash10-0a4l-9100000000-104043ea732fc20d17fb
submitter=submitter = University of Tokyo Team (Faculty of Engineering, University of Tokyo)
MoNA Rating=3.75

>  <NUM PEAKS>  (3956) 
40

>  <MASS SPECTRAL PEAKS>  (3956) 
27 19.18
29 36.59
31 1.21
39 14.9
41 72.89
42 25.3
43 62.22
44 1.66
45 1.93
53 2.92
54 3.13
55 36.83
56 41.66
57 99.99
58 3.7
59 3.58
60 12.05
61 19.68
67 2.79
68 8.35
69 25.39
70 44.4
71 25.86
72 1.27
82 9.24
83 31.55
84 32.7
85 75.41
86 3.4
87 12.87
97 2.6
101 1.21
102 6.37
103 83.85
104 3.85
112 33.71
113 2.81
115 1.03
157 1.36
158 1.01

$$$$

     RDKit          2D

 14 13  0  0  0  0  0  0  0  0999 V2000
    3.5724    6.5625    0.0000 C   0  0  0  0  0  0  0  0  0  0  0  0
  -10.7171    7.3125    0.0000 C   0  0  0  0  0  0  0  0  0  0  0  0
   -9.4180    5.0625    0.0000 C   0  0  0  0  0  0  0  0  0  0  0  0
    2.2733    7.3125    0.0000 C   0  0  0  0  0  0  0  0  0  0  0  0
    0.9743    6.5625    0.0000 C   0  0  0  0  0  0  0  0  0  0  0  0
   -0.3248    7.3125    0.0000 C   0  0  0  0  0  0  0  0  0  0  0  0
   -1.6238    6.5625    0.0000 C   0  0  0  0  0  0  0  0  0  0  0  0
   -2.9228    7.3125    0.0000 C   0  0  0  0  0  0  0  0  0  0  0  0
   -4.2219    6.5625    0.0000 C   0  0  0  0  0  0  0  0  0  0  0  0
   -8.1190    7.3125    0.0000 C   0  0  0  0  0  0  0  0  0  0  0  0
   -9.4180    6.5625    0.0000 C   0  0  0  0  0  0  0  0  0  0  0  0
   -6.8200    6.5625    0.0000 C   0  0  0  0  0  0  0  0  0  0  0  0
   -6.8200    5.0625    0.0000 O   0  0  0  0  0  0  0  0  0  0  0  0
   -5.5209    7.3125    0.0000 O   0  0  0  0  0  0  0  0  0  0  0  0
  4  1  1  0
  5  4  1  0
  6  5  1  0
  7  6  1  0
  8  7  1  0
  9  8  1  0
 11  2  1  0
 11  3  1  0
 11 10  1  0
 12 10  1  0
 13 12  2  0
 14  9  1  0
 14 12  1  0
M  END
>  <NAME>  (3957) 
HEPTYL ISOPENTANOATE

>  <SYNONYMS>  (3957) 
HEPTYL ISOVALERATE

>  <SPECTRUM TYPE>  (3957) 
MS1

>  <INSTRUMENT TYPE>  (3957) 
EI-B

>  <INSTRUMENT>  (3957) 
HITACHI M-80B

>  <ION MODE>  (3957) 
P

>  <INCHIKEY>  (3957) 
NPBMPHKEFVCCEY-UHFFFAOYSA-N

>  <FORMULA>  (3957) 
C12H24O2

>  <EXACT MASS>  (3957) 
200.177630008

>  <MW>  (3957) 
200

>  <ID>  (3957) 
JP006527

>  <CONTRIBUTOR>  (3957) 
University of Tokyo Team, {Faculty of Engineering, University of Tokyo

>  <COMMENT>  (3957) 
SMILES=CCCCCCCOC(=O)CC(C)C
InChI=InChI=1S/C12H24O2/c1-4-5-6-7-8-9-14-12(13)10-11(2)3/h11H,4-10H2,1-3H3
computed SMILES=O=C(OCCCCCCC)CC(C)C
accession=JP006527
date=2016.01.19 (Created 2008.10.21, modified 2011.05.06)
author=HISAHIRO HAGIWARA, CHEMICAL RESEARCH INSTITUTE OF NON-AQUEOUSSOLUTIONS TOHOKU UNIV.
license=CC BY-NC-SA
exact mass=200.17763
ionization energy=70 eV
ion type=[M]+*
computed spectral entropy=2.923324103257539
computed normalized entropy=0.822232887666389
SPLASH=splash10-0a4l-9100000000-220872a425acb868804e
submitter=submitter = University of Tokyo Team (Faculty of Engineering, University of Tokyo)
MoNA Rating=3.75

>  <NUM PEAKS>  (3957) 
35

>  <MASS SPECTRAL PEAKS>  (3957) 
27 16.9
29 30.23
31 1.16
39 13.56
41 58.87
42 19.34
43 39.52
44 1.25
45 1.75
53 2.1
54 3.6
55 28.23
56 47.42
57 99.99
58 4.74
59 3.39
60 10.82
61 20
67 1.24
68 6.49
69 21.02
70 38.66
71 2.38
83 5.08
85 64.07
86 3.68
87 11.46
97 1.5
98 37.79
99 3.03
102 5.24
103 67.1
104 3.05
115 1.15
143 1.52

$$$$

     RDKit          2D

 13 12  0  0  0  0  0  0  0  0999 V2000
    3.2476    5.6250    0.0000 C   0  0  0  0  0  0  0  0  0  0  0  0
   -9.7428    5.6250    0.0000 C   0  0  0  0  0  0  0  0  0  0  0  0
   -8.4437    7.8750    0.0000 C   0  0  0  0  0  0  0  0  0  0  0  0
    1.9486    6.3750    0.0000 C   0  0  0  0  0  0  0  0  0  0  0  0
    0.6495    5.6250    0.0000 C   0  0  0  0  0  0  0  0  0  0  0  0
   -0.6495    6.3750    0.0000 C   0  0  0  0  0  0  0  0  0  0  0  0
   -1.9486    5.6250    0.0000 C   0  0  0  0  0  0  0  0  0  0  0  0
   -3.2476    6.3750    0.0000 C   0  0  0  0  0  0  0  0  0  0  0  0
   -7.1447    5.6250    0.0000 C   0  0  0  0  0  0  0  0  0  0  0  0
   -8.4437    6.3750    0.0000 C   0  0  0  0  0  0  0  0  0  0  0  0
   -5.8457    6.3750    0.0000 C   0  0  0  0  0  0  0  0  0  0  0  0
   -5.8457    7.8750    0.0000 O   0  0  0  0  0  0  0  0  0  0  0  0
   -4.5466    5.6250    0.0000 O   0  0  0  0  0  0  0  0  0  0  0  0
  4  1  1  0
  5  4  1  0
  6  5  1  0
  7  6  1  0
  8  7  1  0
 10  2  1  0
 10  3  1  0
 10  9  1  0
 11  9  1  0
 12 11  2  0
 13  8  1  0
 13 11  1  0
M  END
>  <NAME>  (3958) 
HEXYL ISOPENTANOATE

>  <SYNONYMS>  (3958) 
HEXYL ISOVALERATE

>  <SPECTRUM TYPE>  (3958) 
MS1

>  <INSTRUMENT TYPE>  (3958) 
EI-B

>  <INSTRUMENT>  (3958) 
HITACHI M-80B

>  <ION MODE>  (3958) 
P

>  <INCHIKEY>  (3958) 
RSDDTPVXLMVLQE-UHFFFAOYSA-N

>  <FORMULA>  (3958) 
C11H22O2

>  <EXACT MASS>  (3958) 
186.161979944

>  <MW>  (3958) 
186

>  <ID>  (3958) 
JP006526

>  <CONTRIBUTOR>  (3958) 
University of Tokyo Team, {Faculty of Engineering, University of Tokyo

>  <COMMENT>  (3958) 
SMILES=CCCCCCOC(=O)CC(C)C
InChI=InChI=1S/C11H22O2/c1-4-5-6-7-8-13-11(12)9-10(2)3/h10H,4-9H2,1-3H3
computed SMILES=O=C(OCCCCCC)CC(C)C
accession=JP006526
date=2016.01.19 (Created 2008.10.21, modified 2011.05.06)
author=HISAHIRO HAGIWARA, CHEMICAL RESEARCH INSTITUTE OF NON-AQUEOUSSOLUTIONS TOHOKU UNIV.
license=CC BY-NC-SA
exact mass=186.16198
ionization energy=70 eV
ion type=[M]+*
computed spectral entropy=2.8441129153329197
computed normalized entropy=0.7936648205794752
SPLASH=splash10-052o-9100000000-73d73fa328924a52408b
submitter=submitter = University of Tokyo Team (Faculty of Engineering, University of Tokyo)
MoNA Rating=3.75

>  <NUM PEAKS>  (3958) 
36

>  <MASS SPECTRAL PEAKS>  (3958) 
15 1.26
26 1.04
27 25.26
29 36.87
31 1.45
39 19.09
41 71.62
42 30.33
43 94.48
44 2.42
45 2.35
53 2.48
54 2.48
55 32.59
56 64.35
57 76.76
58 3.23
59 5.68
60 17.1
61 25.67
67 1.49
69 21.6
70 1.05
83 2.88
84 63.4
85 99.99
86 5.71
87 16.41
100 1.1
101 1.57
102 6.23
103 83.7
104 3.96
115 1.7
129 1.92
144 1.09

$$$$

     RDKit          2D

 13 12  0  0  0  0  0  0  0  0999 V2000
    3.2476    5.6250    0.0000 C   0  0  0  0  0  0  0  0  0  0  0  0
   -9.7428    5.6250    0.0000 C   0  0  0  0  0  0  0  0  0  0  0  0
   -8.4437    7.8750    0.0000 C   0  0  0  0  0  0  0  0  0  0  0  0
    1.9486    6.3750    0.0000 C   0  0  0  0  0  0  0  0  0  0  0  0
    0.6495    5.6250    0.0000 C   0  0  0  0  0  0  0  0  0  0  0  0
   -0.6495    6.3750    0.0000 C   0  0  0  0  0  0  0  0  0  0  0  0
   -1.9486    5.6250    0.0000 C   0  0  0  0  0  0  0  0  0  0  0  0
   -3.2476    6.3750    0.0000 C   0  0  0  0  0  0  0  0  0  0  0  0
   -7.1447    5.6250    0.0000 C   0  0  0  0  0  0  0  0  0  0  0  0
   -8.4437    6.3750    0.0000 C   0  0  0  0  0  0  0  0  0  0  0  0
   -5.8457    6.3750    0.0000 C   0  0  0  0  0  0  0  0  0  0  0  0
   -5.8457    7.8750    0.0000 O   0  0  0  0  0  0  0  0  0  0  0  0
   -4.5466    5.6250    0.0000 O   0  0  0  0  0  0  0  0  0  0  0  0
  4  1  1  0
  5  4  1  0
  6  5  1  0
  6  7  2  0
  8  7  1  0
 10  2  1  0
 10  3  1  0
 10  9  1  0
 11  9  1  0
 12 11  2  0
 13  8  1  0
 13 11  1  0
M  END
>  <NAME>  (3959) 
TRANS-2-HEXENYL ISOVALERATE

>  <SYNONYMS>  (3959) 
TRANS-2-HEXENYL ISOPENTANOATE

>  <SPECTRUM TYPE>  (3959) 
MS1

>  <INSTRUMENT TYPE>  (3959) 
EI-B

>  <INSTRUMENT>  (3959) 
HITACHI M-80B

>  <ION MODE>  (3959) 
P

>  <INCHIKEY>  (3959) 
SAVRWHQEMHIAEB-VOTSOKGWSA-N

>  <FORMULA>  (3959) 
C11H20O2

>  <EXACT MASS>  (3959) 
184.14632988

>  <MW>  (3959) 
184

>  <ID>  (3959) 
JP006525

>  <CONTRIBUTOR>  (3959) 
University of Tokyo Team, {Faculty of Engineering, University of Tokyo

>  <COMMENT>  (3959) 
SMILES=CCCC=CCOC(=O)CC(C)C
InChI=InChI=1S/C11H20O2/c1-4-5-6-7-8-13-11(12)9-10(2)3/h6-7,10H,4-5,8-9H2,1-3H3/b7-6+
computed SMILES=O=C(OCC=CCCC)CC(C)C
accession=JP006525
date=2016.01.19 (Created 2008.10.21, modified 2011.05.06)
author=HISAHIRO HAGIWARA, CHEMICAL RESEARCH INSTITUTE OF NON-AQUEOUSSOLUTIONS TOHOKU UNIV.
license=CC BY-NC-SA
exact mass=184.14633
ionization energy=70 eV
ion type=[M]+*
computed spectral entropy=2.6102828987758784
computed normalized entropy=0.7751866870533806
SPLASH=splash10-0a4r-9000000000-c29f2a3ae9937e010b9a
submitter=submitter = University of Tokyo Team (Faculty of Engineering, University of Tokyo)
MoNA Rating=3.75

>  <NUM PEAKS>  (3959) 
29

>  <MASS SPECTRAL PEAKS>  (3959) 
27 16.58
29 19.73
39 18.99
41 52.55
42 7.5
43 11.81
53 6.22
54 12.19
55 39.25
56 5.36
57 82.74
58 2.98
59 2.55
60 1.89
67 29.06
68 1.69
69 2.37
81 2.59
82 20.14
83 20.06
84 1.63
85 99.99
86 5.53
87 1.38
99 1.79
100 2.09
103 1.91
155 1.26
184 1.69

$$$$

     RDKit          2D

 12 11  0  0  0  0  0  0  0  0999 V2000
    2.5981    4.5000    0.0000 C   0  0  0  0  0  0  0  0  0  0  0  0
   -7.7942    4.5000    0.0000 C   0  0  0  0  0  0  0  0  0  0  0  0
   -6.4952    6.7500    0.0000 C   0  0  0  0  0  0  0  0  0  0  0  0
    0.0000    3.0000    0.0000 C   0  0  0  0  0  0  0  0  0  0  0  0
    1.2990    5.2500    0.0000 C   0  0  0  0  0  0  0  0  0  0  0  0
   -5.1962    4.5000    0.0000 C   0  0  0  0  0  0  0  0  0  0  0  0
   -1.2990    5.2500    0.0000 C   0  0  0  0  0  0  0  0  0  0  0  0
   -6.4952    5.2500    0.0000 C   0  0  0  0  0  0  0  0  0  0  0  0
    0.0000    4.5000    0.0000 C   0  0  0  0  0  0  0  0  0  0  0  0
   -3.8971    5.2500    0.0000 C   0  0  0  0  0  0  0  0  0  0  0  0
   -3.8971    6.7500    0.0000 O   0  0  0  0  0  0  0  0  0  0  0  0
   -2.5981    4.5000    0.0000 O   0  0  0  0  0  0  0  0  0  0  0  0
  5  1  1  0
  8  2  1  0
  8  3  1  0
  8  6  1  0
  9  4  1  0
  9  5  1  0
  9  7  1  0
 10  6  1  0
 11 10  2  0
 12  7  1  0
 12 10  1  0
M  END
>  <NAME>  (3960) 
2-METHYLBUTYL ISOPENTANOATE

>  <SYNONYMS>  (3960) 
2-METHYLBUTYL ISOVALERATE

>  <SPECTRUM TYPE>  (3960) 
MS1

>  <INSTRUMENT TYPE>  (3960) 
EI-B

>  <INSTRUMENT>  (3960) 
HITACHI M-80B

>  <ION MODE>  (3960) 
P

>  <INCHIKEY>  (3960) 
CYGPPWVXOWCHJB-UHFFFAOYSA-N

>  <FORMULA>  (3960) 
C10H20O2

>  <EXACT MASS>  (3960) 
172.14632988

>  <MW>  (3960) 
172

>  <ID>  (3960) 
JP006524

>  <CONTRIBUTOR>  (3960) 
University of Tokyo Team, {Faculty of Engineering, University of Tokyo

>  <COMMENT>  (3960) 
SMILES=CCC(C)COC(=O)CC(C)C
InChI=InChI=1S/C10H20O2/c1-5-9(4)7-12-10(11)6-8(2)3/h8-9H,5-7H2,1-4H3
computed SMILES=O=C(OCC(C)CC)CC(C)C
accession=JP006524
date=2016.01.19 (Created 2008.10.21, modified 2011.05.06)
author=HISAHIRO HAGIWARA, CHEMICAL RESEARCH INSTITUTE OF NON-AQUEOUSSOLUTIONS TOHOKU UNIV.
license=CC BY-NC-SA
exact mass=172.14633
ionization energy=70 eV
ion type=[M]+*
computed spectral entropy=2.598437593385285
computed normalized entropy=0.7797953533316183
SPLASH=splash10-05g3-9000000000-6b51e5b4b6359271157d
submitter=submitter = University of Tokyo Team (Faculty of Engineering, University of Tokyo)
MoNA Rating=3.75

>  <NUM PEAKS>  (3960) 
28

>  <MASS SPECTRAL PEAKS>  (3960) 
27 15.15
29 21.03
31 1.23
39 12.52
41 37.46
42 15.08
43 42.7
45 2.47
53 1.73
55 22.52
56 4.59
57 53.98
58 2.06
59 1.86
60 10.06
61 2.25
69 3.01
70 87.45
71 29.12
72 1.55
85 99.99
86 5.95
87 7.09
101 1.09
102 2.86
103 10.56
115 3.04
130 1.46

$$$$

     RDKit          2D

 12 11  0  0  0  0  0  0  0  0999 V2000
   -6.8200    5.0625    0.0000 C   0  0  0  0  0  0  0  0  0  0  0  0
   -5.5209    2.8125    0.0000 C   0  0  0  0  0  0  0  0  0  0  0  0
    3.5724    5.0625    0.0000 C   0  0  0  0  0  0  0  0  0  0  0  0
    2.2733    2.8125    0.0000 C   0  0  0  0  0  0  0  0  0  0  0  0
   -4.2219    5.0625    0.0000 C   0  0  0  0  0  0  0  0  0  0  0  0
   -2.9228    4.3125    0.0000 C   0  0  0  0  0  0  0  0  0  0  0  0
    0.9743    5.0625    0.0000 C   0  0  0  0  0  0  0  0  0  0  0  0
   -5.5209    4.3125    0.0000 C   0  0  0  0  0  0  0  0  0  0  0  0
    2.2733    4.3125    0.0000 C   0  0  0  0  0  0  0  0  0  0  0  0
   -0.3248    4.3125    0.0000 C   0  0  0  0  0  0  0  0  0  0  0  0
   -0.3248    2.8125    0.0000 O   0  0  0  0  0  0  0  0  0  0  0  0
   -1.6238    5.0625    0.0000 O   0  0  0  0  0  0  0  0  0  0  0  0
  6  5  1  0
  8  1  1  0
  8  2  1  0
  8  5  1  0
  9  3  1  0
  9  4  1  0
  9  7  1  0
 10  7  1  0
 11 10  2  0
 12  6  1  0
 12 10  1  0
M  END
>  <NAME>  (3961) 
ISOPENTYL ISOPENTANOATE

>  <SYNONYMS>  (3961) 
ISOAMYL ISOVALERATE

>  <SPECTRUM TYPE>  (3961) 
MS1

>  <INSTRUMENT TYPE>  (3961) 
EI-B

>  <INSTRUMENT>  (3961) 
HITACHI M-80B

>  <ION MODE>  (3961) 
P

>  <INCHIKEY>  (3961) 
XINCECQTMHSORG-UHFFFAOYSA-N

>  <FORMULA>  (3961) 
C10H20O2

>  <EXACT MASS>  (3961) 
172.14632988

>  <MW>  (3961) 
172

>  <ID>  (3961) 
JP006523

>  <CONTRIBUTOR>  (3961) 
University of Tokyo Team, {Faculty of Engineering, University of Tokyo

>  <COMMENT>  (3961) 
SMILES=CC(C)CCOC(=O)CC(C)C
InChI=InChI=1S/C10H20O2/c1-8(2)5-6-12-10(11)7-9(3)4/h8-9H,5-7H2,1-4H3
computed SMILES=O=C(OCCC(C)C)CC(C)C
accession=JP006523
date=2016.01.19 (Created 2008.10.21, modified 2011.05.06)
author=HISAHIRO HAGIWARA, CHEMICAL RESEARCH INSTITUTE OF NON-AQUEOUSSOLUTIONS TOHOKU UNIV.
license=CC BY-NC-SA
exact mass=172.14633
ionization energy=70 eV
ion type=[M]+*
computed spectral entropy=2.5888061205255686
computed normalized entropy=0.7688086379199915
SPLASH=splash10-05fu-9000000000-2a19de7644662f7b1eb3
submitter=submitter = University of Tokyo Team (Faculty of Engineering, University of Tokyo)
MoNA Rating=3.75

>  <NUM PEAKS>  (3961) 
29

>  <MASS SPECTRAL PEAKS>  (3961) 
27 12.98
29 13.5
31 1.05
39 10.89
41 33.9
42 13.71
43 48.43
44 1.07
45 1.8
53 1.51
55 29.03
56 3.74
57 37.45
58 1.66
59 1.82
60 3.69
61 1.96
69 5.3
70 99.99
71 29.96
72 1.5
85 55.07
86 2.71
87 3.33
102 1.35
103 13.64
115 2.35
129 2.36
130 1.22

$$$$

     RDKit          2D

 11 10  0  0  0  0  0  0  0  0999 V2000
   -6.4952    4.5000    0.0000 C   0  0  0  0  0  0  0  0  0  0  0  0
   -5.1962    2.2500    0.0000 C   0  0  0  0  0  0  0  0  0  0  0  0
    2.5981    3.7500    0.0000 C   0  0  0  0  0  0  0  0  0  0  0  0
    1.2990    6.0000    0.0000 C   0  0  0  0  0  0  0  0  0  0  0  0
   -3.8971    4.5000    0.0000 C   0  0  0  0  0  0  0  0  0  0  0  0
    0.0000    3.7500    0.0000 C   0  0  0  0  0  0  0  0  0  0  0  0
   -5.1962    3.7500    0.0000 C   0  0  0  0  0  0  0  0  0  0  0  0
    1.2990    4.5000    0.0000 C   0  0  0  0  0  0  0  0  0  0  0  0
   -2.5981    3.7500    0.0000 C   0  0  0  0  0  0  0  0  0  0  0  0
   -2.5981    2.2500    0.0000 O   0  0  0  0  0  0  0  0  0  0  0  0
   -1.2990    4.5000    0.0000 O   0  0  0  0  0  0  0  0  0  0  0  0
  7  1  1  0
  7  2  1  0
  7  5  1  0
  8  3  1  0
  8  4  1  0
  8  6  1  0
  9  5  1  0
 10  9  2  0
 11  6  1  0
 11  9  1  0
M  END
>  <NAME>  (3962) 
ISOBUTYL ISOPENTANOATE

>  <SYNONYMS>  (3962) 
ISOBUTYL ISOVALERATE

>  <SPECTRUM TYPE>  (3962) 
MS1

>  <INSTRUMENT TYPE>  (3962) 
EI-B

>  <INSTRUMENT>  (3962) 
HITACHI M-80B

>  <ION MODE>  (3962) 
P

>  <INCHIKEY>  (3962) 
KEBDNKNVCHQIJU-UHFFFAOYSA-N

>  <FORMULA>  (3962) 
C9H18O2

>  <EXACT MASS>  (3962) 
158.130679816

>  <MW>  (3962) 
158

>  <ID>  (3962) 
JP006522

>  <CONTRIBUTOR>  (3962) 
University of Tokyo Team, {Faculty of Engineering, University of Tokyo

>  <COMMENT>  (3962) 
SMILES=CC(C)COC(=O)CC(C)C
InChI=InChI=1S/C9H18O2/c1-7(2)5-9(10)11-6-8(3)4/h7-8H,5-6H2,1-4H3
computed SMILES=O=C(OCC(C)C)CC(C)C
accession=JP006522
date=2016.01.19 (Created 2008.10.21, modified 2011.05.06)
author=HISAHIRO HAGIWARA, CHEMICAL RESEARCH INSTITUTE OF NON-AQUEOUSSOLUTIONS TOHOKU UNIV.
license=CC BY-NC-SA
exact mass=158.13068
ionization energy=70 eV
ion type=[M]+*
computed spectral entropy=2.486741083896773
computed normalized entropy=0.7462750489363039
SPLASH=splash10-0a4r-9000000000-336ea180a0659bc877c5
submitter=submitter = University of Tokyo Team (Faculty of Engineering, University of Tokyo)
MoNA Rating=3.75

>  <NUM PEAKS>  (3962) 
28

>  <MASS SPECTRAL PEAKS>  (3962) 
27 11.36
29 15.37
31 1.27
39 13.13
41 39.73
42 8.76
43 15.83
45 1.52
53 1.02
55 4.13
56 46.08
57 80.83
58 3.01
59 2.26
60 14.64
61 2.89
69 1.64
73 2.26
85 99.99
86 4.97
87 9.6
101 1.16
102 2.74
103 22.35
104 1.23
115 3.27
116 3.19
128 1.15

$$$$

     RDKit          2D

 11 10  0  0  0  0  0  0  0  0999 V2000
    2.5981    4.5000    0.0000 C   0  0  0  0  0  0  0  0  0  0  0  0
   -7.7942    4.5000    0.0000 C   0  0  0  0  0  0  0  0  0  0  0  0
   -6.4952    6.7500    0.0000 C   0  0  0  0  0  0  0  0  0  0  0  0
    1.2990    5.2500    0.0000 C   0  0  0  0  0  0  0  0  0  0  0  0
    0.0000    4.5000    0.0000 C   0  0  0  0  0  0  0  0  0  0  0  0
   -1.2990    5.2500    0.0000 C   0  0  0  0  0  0  0  0  0  0  0  0
   -5.1962    4.5000    0.0000 C   0  0  0  0  0  0  0  0  0  0  0  0
   -6.4952    5.2500    0.0000 C   0  0  0  0  0  0  0  0  0  0  0  0
   -3.8971    5.2500    0.0000 C   0  0  0  0  0  0  0  0  0  0  0  0
   -3.8971    6.7500    0.0000 O   0  0  0  0  0  0  0  0  0  0  0  0
   -2.5981    4.5000    0.0000 O   0  0  0  0  0  0  0  0  0  0  0  0
  4  1  1  0
  5  4  1  0
  6  5  1  0
  8  2  1  0
  8  3  1  0
  8  7  1  0
  9  7  1  0
 10  9  2  0
 11  6  1  0
 11  9  1  0
M  END
>  <NAME>  (3963) 
BUTYL ISOPENTANOATE

>  <SYNONYMS>  (3963) 
BUTYL ISOVALERATE

>  <SPECTRUM TYPE>  (3963) 
MS1

>  <INSTRUMENT TYPE>  (3963) 
EI-B

>  <INSTRUMENT>  (3963) 
HITACHI M-80B

>  <ION MODE>  (3963) 
P

>  <INCHIKEY>  (3963) 
AYWJSCLAAPJZEF-UHFFFAOYSA-N

>  <FORMULA>  (3963) 
C9H18O2

>  <EXACT MASS>  (3963) 
158.130679816

>  <MW>  (3963) 
158

>  <ID>  (3963) 
JP006521

>  <CONTRIBUTOR>  (3963) 
University of Tokyo Team, {Faculty of Engineering, University of Tokyo

>  <COMMENT>  (3963) 
SMILES=CCCCOC(=O)CC(C)C
InChI=InChI=1S/C9H18O2/c1-4-5-6-11-9(10)7-8(2)3/h8H,4-7H2,1-3H3
computed SMILES=O=C(OCCCC)CC(C)C
accession=JP006521
date=2016.01.19 (Created 2008.10.21, modified 2011.05.06)
author=HISAHIRO HAGIWARA, CHEMICAL RESEARCH INSTITUTE OF NON-AQUEOUSSOLUTIONS TOHOKU UNIV.
license=CC BY-NC-SA
exact mass=158.13068
ionization energy=70 eV
ion type=[M]+*
computed spectral entropy=2.6902861179759494
computed normalized entropy=0.783429278496482
SPLASH=splash10-0a4u-9000000000-8dd1d91769ff865eda84
submitter=submitter = University of Tokyo Team (Faculty of Engineering, University of Tokyo)
MoNA Rating=3.75

>  <NUM PEAKS>  (3963) 
31

>  <MASS SPECTRAL PEAKS>  (3963) 
15 2.25
26 1.89
27 31.83
29 55.94
30 1.25
31 2.56
39 24.71
41 77.56
42 15.09
43 26.24
44 1.19
45 5.1
53 1.6
55 12.72
56 91.42
57 99.99
58 4.32
59 7.17
60 30.95
61 13.02
69 2.39
73 1.29
85 92.22
86 5.42
87 17.71
101 2.72
102 2.87
103 50.44
104 2.29
115 1.73
116 3.04

$$$$

     RDKit          2D

 10  9  0  0  0  0  0  0  0  0999 V2000
    2.2733    2.8125    0.0000 C   0  0  0  0  0  0  0  0  0  0  0  0
    0.9743    5.0625    0.0000 C   0  0  0  0  0  0  0  0  0  0  0  0
   -5.5209    2.8125    0.0000 C   0  0  0  0  0  0  0  0  0  0  0  0
   -4.2219    5.0625    0.0000 C   0  0  0  0  0  0  0  0  0  0  0  0
   -0.3248    2.8125    0.0000 C   0  0  0  0  0  0  0  0  0  0  0  0
    0.9743    3.5625    0.0000 C   0  0  0  0  0  0  0  0  0  0  0  0
   -4.2219    3.5625    0.0000 C   0  0  0  0  0  0  0  0  0  0  0  0
   -1.6238    3.5625    0.0000 C   0  0  0  0  0  0  0  0  0  0  0  0
   -1.6238    5.0625    0.0000 O   0  0  0  0  0  0  0  0  0  0  0  0
   -2.9228    2.8125    0.0000 O   0  0  0  0  0  0  0  0  0  0  0  0
  6  1  1  0
  6  2  1  0
  6  5  1  0
  7  3  1  0
  7  4  1  0
  8  5  1  0
  9  8  2  0
 10  7  1  0
 10  8  1  0
M  END
>  <NAME>  (3964) 
ISOPROPYL ISOPENTANOATE

>  <SYNONYMS>  (3964) 
ISOPROPYL ISOVALERATE

>  <SPECTRUM TYPE>  (3964) 
MS1

>  <INSTRUMENT TYPE>  (3964) 
EI-B

>  <INSTRUMENT>  (3964) 
HITACHI M-80B

>  <ION MODE>  (3964) 
P

>  <INCHIKEY>  (3964) 
ZOIRKXLFEHOVER-UHFFFAOYSA-N

>  <FORMULA>  (3964) 
C8H16O2

>  <EXACT MASS>  (3964) 
144.115029752

>  <MW>  (3964) 
144

>  <ID>  (3964) 
JP006520

>  <CONTRIBUTOR>  (3964) 
University of Tokyo Team, {Faculty of Engineering, University of Tokyo

>  <COMMENT>  (3964) 
SMILES=CC(C)CC(=O)OC(C)C
InChI=InChI=1S/C8H16O2/c1-6(2)5-8(9)10-7(3)4/h6-7H,5H2,1-4H3
computed SMILES=O=C(OC(C)C)CC(C)C
accession=JP006520
date=2016.01.19 (Created 2008.10.21, modified 2011.05.06)
author=HISAHIRO HAGIWARA, CHEMICAL RESEARCH INSTITUTE OF NON-AQUEOUSSOLUTIONS TOHOKU UNIV.
license=CC BY-NC-SA
exact mass=144.11503
ionization energy=70 eV
ion type=[M]+*
computed spectral entropy=2.7188284849667275
computed normalized entropy=0.8074219261506491
SPLASH=splash10-052o-9100000000-69318c84256abc619c08
submitter=submitter = University of Tokyo Team (Faculty of Engineering, University of Tokyo)
MoNA Rating=3.75

>  <NUM PEAKS>  (3964) 
29

>  <MASS SPECTRAL PEAKS>  (3964) 
15 4.38
26 1.2
27 27.1
29 14.87
31 1.73
38 1.24
39 24.76
40 2.6
41 59.39
42 18.61
43 99.99
44 3.7
45 7.09
55 3.99
56 5.7
57 64.19
58 3.14
59 27.69
60 69.32
61 10.4
69 2.94
85 89.17
86 5.05
87 20.55
101 1.12
102 34.43
103 33.5
104 1.55
129 4.08

$$$$

     RDKit          2D

 10  9  0  0  0  0  0  0  0  0999 V2000
   -7.4695    3.9375    0.0000 C   0  0  0  0  0  0  0  0  0  0  0  0
    1.6238    3.1875    0.0000 C   0  0  0  0  0  0  0  0  0  0  0  0
    0.3248    5.4375    0.0000 C   0  0  0  0  0  0  0  0  0  0  0  0
   -6.1704    3.1875    0.0000 C   0  0  0  0  0  0  0  0  0  0  0  0
   -4.8714    3.9375    0.0000 C   0  0  0  0  0  0  0  0  0  0  0  0
   -0.9743    3.1875    0.0000 C   0  0  0  0  0  0  0  0  0  0  0  0
    0.3248    3.9375    0.0000 C   0  0  0  0  0  0  0  0  0  0  0  0
   -2.2733    3.9375    0.0000 C   0  0  0  0  0  0  0  0  0  0  0  0
   -2.2733    5.4375    0.0000 O   0  0  0  0  0  0  0  0  0  0  0  0
   -3.5724    3.1875    0.0000 O   0  0  0  0  0  0  0  0  0  0  0  0
  4  1  1  0
  5  4  1  0
  7  2  1  0
  7  3  1  0
  7  6  1  0
  8  6  1  0
  9  8  2  0
 10  5  1  0
 10  8  1  0
M  END
>  <NAME>  (3965) 
PROPYL ISOPENTANOATE

>  <SYNONYMS>  (3965) 
PROPYL ISOVALERATE

>  <SPECTRUM TYPE>  (3965) 
MS1

>  <INSTRUMENT TYPE>  (3965) 
EI-B

>  <INSTRUMENT>  (3965) 
HITACHI M-80B

>  <ION MODE>  (3965) 
P

>  <INCHIKEY>  (3965) 
LSJMDWFAADPNAX-UHFFFAOYSA-N

>  <FORMULA>  (3965) 
C8H16O2

>  <EXACT MASS>  (3965) 
144.115029752

>  <MW>  (3965) 
144

>  <ID>  (3965) 
JP006519

>  <CONTRIBUTOR>  (3965) 
University of Tokyo Team, {Faculty of Engineering, University of Tokyo

>  <COMMENT>  (3965) 
SMILES=CCCOC(=O)CC(C)C
InChI=InChI=1S/C8H16O2/c1-4-5-10-8(9)6-7(2)3/h7H,4-6H2,1-3H3
computed SMILES=O=C(OCCC)CC(C)C
accession=JP006519
date=2016.01.19 (Created 2008.10.21, modified 2011.05.06)
author=HISAHIRO HAGIWARA, CHEMICAL RESEARCH INSTITUTE OF NON-AQUEOUSSOLUTIONS TOHOKU UNIV.
license=CC BY-NC-SA
exact mass=144.11503
ionization energy=70 eV
ion type=[M]+*
computed spectral entropy=2.7403379358096904
computed normalized entropy=0.8138096782012461
SPLASH=splash10-01p6-9100000000-003d976dae1bca2f64ef
submitter=submitter = University of Tokyo Team (Faculty of Engineering, University of Tokyo)
MoNA Rating=3.75

>  <NUM PEAKS>  (3965) 
29

>  <MASS SPECTRAL PEAKS>  (3965) 
15 2.12
26 1.49
27 28.99
29 21.29
31 3.41
38 1.05
39 22.36
41 56.63
42 24.26
43 58.06
44 1.74
45 4.61
53 1.1
55 4.26
56 5.9
57 64.05
58 3.19
59 13.16
60 42.18
61 44.38
62 1.06
69 2.45
85 99.99
86 6
87 21.98
102 15.75
103 59.93
104 2.63
115 2.21

$$$$

     RDKit          2D

 10  9  0  0  0  0  0  0  0  0999 V2000
   -7.4695    3.9375    0.0000 C   0  0  0  0  0  0  0  0  0  0  0  0
    1.6238    3.1875    0.0000 C   0  0  0  0  0  0  0  0  0  0  0  0
    0.3248    5.4375    0.0000 C   0  0  0  0  0  0  0  0  0  0  0  0
   -6.1704    3.1875    0.0000 C   0  0  0  0  0  0  0  0  0  0  0  0
   -4.8714    3.9375    0.0000 C   0  0  0  0  0  0  0  0  0  0  0  0
   -0.9743    3.1875    0.0000 C   0  0  0  0  0  0  0  0  0  0  0  0
    0.3248    3.9375    0.0000 C   0  0  0  0  0  0  0  0  0  0  0  0
   -2.2733    3.9375    0.0000 C   0  0  0  0  0  0  0  0  0  0  0  0
   -2.2733    5.4375    0.0000 O   0  0  0  0  0  0  0  0  0  0  0  0
   -3.5724    3.1875    0.0000 O   0  0  0  0  0  0  0  0  0  0  0  0
  4  1  2  0
  5  4  1  0
  7  2  1  0
  7  3  1  0
  7  6  1  0
  8  6  1  0
  9  8  2  0
 10  5  1  0
 10  8  1  0
M  END
>  <NAME>  (3966) 
ALLYL ISOPENTANOATE

>  <SYNONYMS>  (3966) 
ALLYL ISOVALERATE

>  <SPECTRUM TYPE>  (3966) 
MS1

>  <INSTRUMENT TYPE>  (3966) 
EI-B

>  <INSTRUMENT>  (3966) 
HITACHI M-80B

>  <ION MODE>  (3966) 
P

>  <INCHIKEY>  (3966) 
HOMAGVUCNZNWBC-UHFFFAOYSA-N

>  <FORMULA>  (3966) 
C8H14O2

>  <EXACT MASS>  (3966) 
142.099379688

>  <MW>  (3966) 
142

>  <ID>  (3966) 
JP006518

>  <CONTRIBUTOR>  (3966) 
University of Tokyo Team, {Faculty of Engineering, University of Tokyo

>  <COMMENT>  (3966) 
SMILES=C=CCOC(=O)CC(C)C
InChI=InChI=1S/C8H14O2/c1-4-5-10-8(9)6-7(2)3/h4,7H,1,5-6H2,2-3H3
computed SMILES=O=C(OCC=C)CC(C)C
accession=JP006518
date=2016.01.19 (Created 2008.10.21, modified 2011.05.06)
author=HISAHIRO HAGIWARA, CHEMICAL RESEARCH INSTITUTE OF NON-AQUEOUSSOLUTIONS TOHOKU UNIV.
license=CC BY-NC-SA
exact mass=142.09938
ionization energy=70 eV
ion type=[M]+*
computed spectral entropy=2.4446830174496124
computed normalized entropy=0.7260077940521882
SPLASH=splash10-052u-9000000000-7354044a3e73badab547
submitter=submitter = University of Tokyo Team (Faculty of Engineering, University of Tokyo)
MoNA Rating=3.75

>  <NUM PEAKS>  (3966) 
29

>  <MASS SPECTRAL PEAKS>  (3966) 
15 1.69
26 1.91
27 15.64
29 18.25
31 1.32
38 2.37
39 33.28
41 95.47
42 10.83
43 20.93
45 1.28
53 1.31
54 4.53
55 13.43
56 7.64
57 98.1
58 8.84
59 18.01
60 1.26
69 3.97
81 1.76
82 2.5
83 1.42
85 99.99
86 5.37
99 1.69
100 16.13
101 1.7
103 1.46

$$$$

     RDKit          2D

 13 13  0  0  0  0  0  0  0  0999 V2000
   -1.6700   -0.9602    0.0000 C   0  0  0  0  0  0  0  0  0  0  0  0
   -0.3708   -1.7100    0.0000 C   0  0  0  0  0  0  0  0  0  0  0  0
    0.9281   -0.9598    0.0000 C   0  0  0  0  0  0  0  0  0  0  0  0
    8.7242    0.5410    0.0000 C   0  0  0  0  0  0  0  0  0  0  0  0
    8.7242   -0.9590    0.0000 C   0  0  0  0  0  0  0  0  0  0  0  0
    7.4242    1.2910    0.0000 C   0  0  0  0  0  0  0  0  0  0  0  0
    7.4242   -1.7090    0.0000 C   0  0  0  0  0  0  0  0  0  0  0  0
    6.1242    0.5410    0.0000 C   0  0  0  0  0  0  0  0  0  0  0  0
    2.2272   -1.7096    0.0000 C   0  0  0  0  0  0  0  0  0  0  0  0
    6.1242   -0.9590    0.0000 C   0  0  0  0  0  0  0  0  0  0  0  0
    3.5262   -0.9594    0.0000 C   0  0  0  0  0  0  0  0  0  0  0  0
    3.5259    0.5406    0.0000 O   0  0  0  0  0  0  0  0  0  0  0  0
    4.8253   -1.7092    0.0000 O   0  0  0  0  0  0  0  0  0  0  0  0
  2  1  1  0
  3  2  1  0
  5  4  1  0
  6  4  1  0
  7  5  1  0
  8  6  1  0
  9  3  1  0
 10  7  1  0
 10  8  1  0
 11  9  1  0
 12 11  2  0
 13 10  1  0
 13 11  1  0
M  END
>  <NAME>  (3967) 
CYCLOHEXYL PENTANOATE

>  <SYNONYMS>  (3967) 
CYCLOHEXYL VALERATE

>  <SPECTRUM TYPE>  (3967) 
MS1

>  <INSTRUMENT TYPE>  (3967) 
EI-B

>  <INSTRUMENT>  (3967) 
HITACHI M-80B

>  <ION MODE>  (3967) 
P

>  <INCHIKEY>  (3967) 
YLCHTSSXNSNXSW-UHFFFAOYSA-N

>  <FORMULA>  (3967) 
C11H20O2

>  <EXACT MASS>  (3967) 
184.14632988

>  <MW>  (3967) 
184

>  <ID>  (3967) 
JP006517

>  <CONTRIBUTOR>  (3967) 
University of Tokyo Team, {Faculty of Engineering, University of Tokyo

>  <COMMENT>  (3967) 
SMILES=CCCCC(=O)OC(C1)CCCC1
InChI=InChI=1S/C11H20O2/c1-2-3-9-11(12)13-10-7-5-4-6-8-10/h10H,2-9H2,1H3
computed SMILES=O=C(OC1CCCCC1)CCCC
accession=JP006517
date=2016.01.19 (Created 2008.10.21, modified 2011.05.06)
author=HISAHIRO HAGIWARA, CHEMICAL RESEARCH INSTITUTE OF NON-AQUEOUSSOLUTIONS TOHOKU UNIV.
license=CC BY-NC-SA
exact mass=184.14633
ionization energy=70 eV
ion type=[M]+*
computed spectral entropy=2.972715347181957
computed normalized entropy=0.7598920924179515
SPLASH=splash10-0pc9-9100000000-97888717f3890d192d1b
submitter=submitter = University of Tokyo Team (Faculty of Engineering, University of Tokyo)
MoNA Rating=3.75

>  <NUM PEAKS>  (3967) 
50

>  <MASS SPECTRAL PEAKS>  (3967) 
15 1.47
26 1.51
27 21.07
29 35.28
30 1.2
31 1.38
39 17.75
41 68.06
42 9.79
43 7.48
44 1.72
45 1.73
51 1.83
53 6.09
54 18.81
55 63.83
56 7.6
57 84.72
58 6.01
59 1.7
60 14.56
61 2.92
66 1.62
67 67.76
68 3.73
69 1.52
71 1.51
73 6.01
74 1.19
75 2.08
77 1.56
79 2.73
80 1.02
81 9.81
82 99.99
83 42.79
84 4.47
85 93.15
86 4.75
87 1.76
99 7.06
100 3.01
101 1.59
102 17.06
103 97.58
104 4.49
124 1.54
127 1.9
141 1.97
142 1.03

$$$$

     RDKit          2D

 13 13  0  0  0  0  0  0  0  0999 V2000
    9.9412    0.2499    0.0000 C   0  0  0  0  0  0  0  0  0  0  0  0
    8.6414   -0.4987    0.0000 C   0  0  0  0  0  0  0  0  0  0  0  0
    7.3431    0.2526    0.0000 C   0  0  0  0  0  0  0  0  0  0  0  0
   -0.7846   -2.2893    0.0000 C   0  0  0  0  0  0  0  0  0  0  0  0
    0.6827   -1.9774    0.0000 C   0  0  0  0  0  0  0  0  0  0  0  0
    6.0433   -0.4961    0.0000 C   0  0  0  0  0  0  0  0  0  0  0  0
   -1.5297   -0.9960    0.0000 C   0  0  0  0  0  0  0  0  0  0  0  0
    2.1470    0.2579    0.0000 C   0  0  0  0  0  0  0  0  0  0  0  0
    0.8472   -0.4908    0.0000 C   0  0  0  0  0  0  0  0  0  0  0  0
    4.7450    0.2553    0.0000 C   0  0  0  0  0  0  0  0  0  0  0  0
    4.7466    1.7553    0.0000 O   0  0  0  0  0  0  0  0  0  0  0  0
   -0.5291    0.1164    0.0000 O   0  0  0  0  0  0  0  0  0  0  0  0
    3.4452   -0.4934    0.0000 O   0  0  0  0  0  0  0  0  0  0  0  0
  2  1  1  0
  3  2  1  0
  5  4  1  0
  6  3  1  0
  7  4  2  0
  9  5  2  0
  9  8  1  0
 10  6  1  0
 11 10  2  0
 12  7  1  0
 12  9  1  0
 13  8  1  0
 13 10  1  0
M  END
>  <NAME>  (3968) 
FURFURYL PENTANOATE

>  <SYNONYMS>  (3968) 
FURFURYL VALERATE

>  <SPECTRUM TYPE>  (3968) 
MS1

>  <INSTRUMENT TYPE>  (3968) 
EI-B

>  <INSTRUMENT>  (3968) 
HITACHI M-80B

>  <ION MODE>  (3968) 
P

>  <INCHIKEY>  (3968) 
HRYAVTBTUKVHBU-UHFFFAOYSA-N

>  <FORMULA>  (3968) 
C10H14O3

>  <EXACT MASS>  (3968) 
182.09429430799997

>  <MW>  (3968) 
182

>  <ID>  (3968) 
JP006516

>  <CONTRIBUTOR>  (3968) 
University of Tokyo Team, {Faculty of Engineering, University of Tokyo

>  <COMMENT>  (3968) 
SMILES=CCCCC(=O)OCc(c1)occ1
InChI=InChI=1S/C10H14O3/c1-2-3-6-10(11)13-8-9-5-4-7-12-9/h4-5,7H,2-3,6,8H2,1H3
computed SMILES=O=C(OCC=1OC=CC1)CCCC
accession=JP006516
date=2016.01.19 (Created 2008.10.21, modified 2011.05.06)
author=HISAHIRO HAGIWARA, CHEMICAL RESEARCH INSTITUTE OF NON-AQUEOUSSOLUTIONS TOHOKU UNIV.
license=CC BY-NC-SA
exact mass=182.09429
ionization energy=70 eV
ion type=[M]+*
computed spectral entropy=2.4450922532251496
computed normalized entropy=0.7693677903994003
SPLASH=splash10-001i-9000000000-365968241922b1cc5499
submitter=submitter = University of Tokyo Team (Faculty of Engineering, University of Tokyo)
MoNA Rating=3.75

>  <NUM PEAKS>  (3968) 
24

>  <MASS SPECTRAL PEAKS>  (3968) 
26 1.68
27 17.7
29 12.55
38 1.52
39 9.96
41 11.76
42 2.58
43 1.39
50 1.72
51 3.29
52 16.46
53 18.94
55 2.58
57 14.22
69 1.08
80 10.49
81 99.99
82 7.07
85 9.18
95 1.58
97 3.04
98 23.26
99 1.04
182 9.42

$$$$

     RDKit          2D

 14 14  0  0  0  0  0  0  0  0999 V2000
   -9.1140   -0.8143    0.0000 C   0  0  0  0  0  0  0  0  0  0  0  0
    2.6027    1.4936    0.0000 C   0  0  0  0  0  0  0  0  0  0  0  0
   -7.8088   -1.5536    0.0000 C   0  0  0  0  0  0  0  0  0  0  0  0
   -6.5160   -0.7929    0.0000 C   0  0  0  0  0  0  0  0  0  0  0  0
   -5.2108   -1.5321    0.0000 C   0  0  0  0  0  0  0  0  0  0  0  0
    1.3000   -0.7500    0.0000 C   0  0  0  0  0  0  0  0  0  0  0  0
    0.0300    1.5000    0.0000 C   0  0  0  0  0  0  0  0  0  0  0  0
    0.0300   -1.5000    0.0000 C   0  0  0  0  0  0  0  0  0  0  0  0
   -1.3200    0.7500    0.0000 C   0  0  0  0  0  0  0  0  0  0  0  0
    1.3000    0.7500    0.0000 C   0  0  0  0  0  0  0  0  0  0  0  0
   -1.3200   -0.7500    0.0000 C   0  0  0  0  0  0  0  0  0  0  0  0
   -3.9180   -0.7714    0.0000 C   0  0  0  0  0  0  0  0  0  0  0  0
   -3.9304    0.7285    0.0000 O   0  0  0  0  0  0  0  0  0  0  0  0
   -2.6128   -1.5107    0.0000 O   0  0  0  0  0  0  0  0  0  0  0  0
  3  1  1  0
  4  3  1  0
  5  4  1  0
  8  6  2  0
  9  7  1  0
 10  2  1  0
 10  6  1  0
 10  7  2  0
 11  8  1  0
 11  9  2  0
 12  5  1  0
 13 12  2  0
 14 11  1  0
 14 12  1  0
M  END
>  <NAME>  (3969) 
P-CRESYL VALERATE

>  <SYNONYMS>  (3969) 
4-METHYLPHENYL PENTANOATE

>  <SPECTRUM TYPE>  (3969) 
MS1

>  <INSTRUMENT TYPE>  (3969) 
EI-B

>  <INSTRUMENT>  (3969) 
HITACHI M-80B

>  <ION MODE>  (3969) 
P

>  <INCHIKEY>  (3969) 
XDIFYXKFWPNGRV-UHFFFAOYSA-N

>  <FORMULA>  (3969) 
C12H16O2

>  <EXACT MASS>  (3969) 
192.115029752

>  <MW>  (3969) 
192

>  <ID>  (3969) 
JP006515

>  <CONTRIBUTOR>  (3969) 
University of Tokyo Team, {Faculty of Engineering, University of Tokyo

>  <COMMENT>  (3969) 
SMILES=CCCCC(=O)Oc(c1)ccc(C)c1
InChI=InChI=1S/C12H16O2/c1-3-4-5-12(13)14-11-8-6-10(2)7-9-11/h6-9H,3-5H2,1-2H3
computed SMILES=O=C(OC1=CC=C(C=C1)C)CCCC
accession=JP006515
date=2016.01.19 (Created 2008.10.21, modified 2011.05.06)
author=HISAHIRO HAGIWARA, CHEMICAL RESEARCH INSTITUTE OF NON-AQUEOUSSOLUTIONS TOHOKU UNIV.
license=CC BY-NC-SA
exact mass=192.11503
ionization energy=70 eV
ion type=[M]+*
computed spectral entropy=2.3010283735834234
computed normalized entropy=0.7062492921037724
SPLASH=splash10-0a4i-7900000000-14c1b3524aa3fc85560e
submitter=submitter = University of Tokyo Team (Faculty of Engineering, University of Tokyo)
MoNA Rating=3.75

>  <NUM PEAKS>  (3969) 
26

>  <MASS SPECTRAL PEAKS>  (3969) 
27 6.61
29 10.89
32 1.46
39 5.12
41 9.59
42 1.43
50 1.28
51 3.16
52 2.24
53 2.65
55 3.79
57 24.65
58 1.14
63 1.19
65 2.32
77 7.74
78 2.86
79 3.34
80 1.8
85 6.88
90 1.55
91 3.36
107 13.41
108 99.99
109 7.31
192 4.64

$$$$

     RDKit          2D

 14 14  0  0  0  0  0  0  0  0999 V2000
   -7.4692    4.2571    0.0000 C   0  0  0  0  0  0  0  0  0  0  0  0
   -6.1702    3.5071    0.0000 C   0  0  0  0  0  0  0  0  0  0  0  0
   -4.8712    4.2571    0.0000 C   0  0  0  0  0  0  0  0  0  0  0  0
    4.2221    2.0071    0.0000 C   0  0  0  0  0  0  0  0  0  0  0  0
    4.2226    3.5079    0.0000 C   0  0  0  0  0  0  0  0  0  0  0  0
    2.9226    1.2563    0.0000 C   0  0  0  0  0  0  0  0  0  0  0  0
    2.9236    4.2579    0.0000 C   0  0  0  0  0  0  0  0  0  0  0  0
    1.6236    2.0063    0.0000 C   0  0  0  0  0  0  0  0  0  0  0  0
   -3.5721    3.5071    0.0000 C   0  0  0  0  0  0  0  0  0  0  0  0
    0.3250    4.2571    0.0000 C   0  0  0  0  0  0  0  0  0  0  0  0
    1.6240    3.5071    0.0000 C   0  0  0  0  0  0  0  0  0  0  0  0
   -2.2731    4.2571    0.0000 C   0  0  0  0  0  0  0  0  0  0  0  0
   -2.2731    5.7571    0.0000 O   0  0  0  0  0  0  0  0  0  0  0  0
   -0.9740    3.5071    0.0000 O   0  0  0  0  0  0  0  0  0  0  0  0
  2  1  1  0
  3  2  1  0
  5  4  2  0
  6  4  1  0
  7  5  1  0
  8  6  2  0
  9  3  1  0
 11  7  2  0
 11  8  1  0
 11 10  1  0
 12  9  1  0
 13 12  2  0
 14 10  1  0
 14 12  1  0
M  END
>  <NAME>  (3970) 
BENZYL PENTANOATE

>  <SYNONYMS>  (3970) 
BENZYL VALERATE

>  <SPECTRUM TYPE>  (3970) 
MS1

>  <INSTRUMENT TYPE>  (3970) 
EI-B

>  <INSTRUMENT>  (3970) 
HITACHI M-80B

>  <ION MODE>  (3970) 
P

>  <INCHIKEY>  (3970) 
YZJCDVRXBOPXSQ-UHFFFAOYSA-N

>  <FORMULA>  (3970) 
C12H16O2

>  <EXACT MASS>  (3970) 
192.115029752

>  <MW>  (3970) 
192

>  <ID>  (3970) 
JP006514

>  <CONTRIBUTOR>  (3970) 
University of Tokyo Team, {Faculty of Engineering, University of Tokyo

>  <COMMENT>  (3970) 
SMILES=CCCCC(=O)OCc(c1)cccc1
InChI=InChI=1S/C12H16O2/c1-2-3-9-12(13)14-10-11-7-5-4-6-8-11/h4-8H,2-3,9-10H2,1H3
computed SMILES=O=C(OCC=1C=CC=CC1)CCCC
accession=JP006514
date=2016.01.19 (Created 2008.10.21, modified 2011.05.06)
author=HISAHIRO HAGIWARA, CHEMICAL RESEARCH INSTITUTE OF NON-AQUEOUSSOLUTIONS TOHOKU UNIV.
license=CC BY-NC-SA
exact mass=192.11503
ionization energy=70 eV
ion type=[M]+*
computed spectral entropy=2.68324335246469
computed normalized entropy=0.774220375619817
SPLASH=splash10-052f-9200000000-6e5426032af29fb6de7c
submitter=submitter = University of Tokyo Team (Faculty of Engineering, University of Tokyo)
MoNA Rating=3.75

>  <NUM PEAKS>  (3970) 
32

>  <MASS SPECTRAL PEAKS>  (3970) 
27 5.71
29 6.6
39 11.21
41 14.75
42 3.12
43 6.17
50 1.58
51 6.21
52 1.45
55 1.45
57 27.1
58 1.21
59 3.2
63 3.2
64 1.03
65 12.92
69 1.19
77 8.54
78 2.29
79 7
85 20.71
86 1.03
89 4.29
90 10.45
91 99.99
92 12.03
105 2.66
107 5.5
108 57.98
109 4.81
192 14.57
193 1.77

$$$$

     RDKit          2D

 17 17  0  0  0  0  0  0  0  0999 V2000
   -1.5900    0.1712    0.0000 C   0  0  0  0  0  0  0  0  0  0  0  0
    8.8033    3.1700    0.0000 C   0  0  0  0  0  0  0  0  0  0  0  0
    6.2052    3.1700    0.0000 C   0  0  0  0  0  0  0  0  0  0  0  0
    7.5042   -3.5800    0.0000 C   0  0  0  0  0  0  0  0  0  0  0  0
   -0.2908    0.9210    0.0000 C   0  0  0  0  0  0  0  0  0  0  0  0
    1.0081    0.1708    0.0000 C   0  0  0  0  0  0  0  0  0  0  0  0
    2.3072    0.9206    0.0000 C   0  0  0  0  0  0  0  0  0  0  0  0
    8.8042   -1.3300    0.0000 C   0  0  0  0  0  0  0  0  0  0  0  0
    8.8042    0.1700    0.0000 C   0  0  0  0  0  0  0  0  0  0  0  0
    6.2042   -1.3300    0.0000 C   0  0  0  0  0  0  0  0  0  0  0  0
    7.5042    2.4200    0.0000 C   0  0  0  0  0  0  0  0  0  0  0  0
    7.5042   -2.0800    0.0000 C   0  0  0  0  0  0  0  0  0  0  0  0
    7.5042    0.9200    0.0000 C   0  0  0  0  0  0  0  0  0  0  0  0
    6.2042    0.1700    0.0000 C   0  0  0  0  0  0  0  0  0  0  0  0
    3.6062    0.1704    0.0000 C   0  0  0  0  0  0  0  0  0  0  0  0
    3.6059   -1.3296    0.0000 O   0  0  0  0  0  0  0  0  0  0  0  0
    4.9053    0.9202    0.0000 O   0  0  0  0  0  0  0  0  0  0  0  0
  5  1  1  0
  6  5  1  0
  7  6  1  0
  9  8  1  0
 11  2  1  0
 11  3  1  0
 12  4  1  0
 12  8  1  0
 12 10  1  0
 13  9  1  0
 13 11  1  0
 14 10  1  0
 14 13  1  0
 15  7  1  0
 16 15  2  0
 17 14  1  0
 17 15  1  0
M  END
>  <NAME>  (3971) 
MENTHYL PENTANOATE

>  <SYNONYMS>  (3971) 
MENTHYL VALERATE

>  <SPECTRUM TYPE>  (3971) 
MS1

>  <INSTRUMENT TYPE>  (3971) 
EI-B

>  <INSTRUMENT>  (3971) 
HITACHI M-80B

>  <ION MODE>  (3971) 
P

>  <INCHIKEY>  (3971) 
LCJPVSLESAPYMK-UHFFFAOYSA-N

>  <FORMULA>  (3971) 
C15H28O2

>  <EXACT MASS>  (3971) 
240.208930136

>  <MW>  (3971) 
240

>  <ID>  (3971) 
JP006513

>  <CONTRIBUTOR>  (3971) 
University of Tokyo Team, {Faculty of Engineering, University of Tokyo

>  <COMMENT>  (3971) 
SMILES=CCCCC(=O)OC(C1)C(CCC(C)1)C(C)C
InChI=InChI=1S/C15H28O2/c1-5-6-7-15(16)17-14-10-12(4)8-9-13(14)11(2)3/h11-14H,5-10H2,1-4H3
computed SMILES=O=C(OC1CC(C)CCC1C(C)C)CCCC
accession=JP006513
date=2016.01.19 (Created 2008.10.21, modified 2011.05.06)
author=HISAHIRO HAGIWARA, CHEMICAL RESEARCH INSTITUTE OF NON-AQUEOUSSOLUTIONS TOHOKU UNIV.
license=CC BY-NC-SA
exact mass=240.20893
ionization energy=70 eV
ion type=[M]+*
computed spectral entropy=3.403978014926014
computed normalized entropy=0.8313853324251226
SPLASH=splash10-053j-9100000000-d7faa622bb6a68046ea2
submitter=submitter = University of Tokyo Team (Faculty of Engineering, University of Tokyo)
MoNA Rating=3.75

>  <NUM PEAKS>  (3971) 
60

>  <MASS SPECTRAL PEAKS>  (3971) 
15 2.35
18 7.4
27 15.39
28 16.79
29 20.84
30 1.12
40 8.16
41 44.19
42 6.91
43 22.22
44 2.54
45 1.81
51 3.32
53 9.21
54 6.84
55 37.69
56 8.11
57 61.61
58 3.94
59 2.37
60 2.67
65 3.47
66 1.46
67 24.86
68 10.33
69 17.77
70 3.21
71 4.94
77 5.44
78 1.12
79 8.33
80 8.16
81 63.37
82 23.03
83 24.87
84 3.62
85 63.71
86 4.49
91 3.66
93 4.14
94 11.07
95 99.99
96 22.4
97 6.22
98 1.08
100 1.08
103 3.81
109 7.95
110 5.03
111 2.59
112 1.4
123 29
124 3.9
127 1.1
137 3.65
138 63.76
139 11.63
140 1.07
142 1.01
155 1.03

$$$$

     RDKit          2D

 17 16  0  0  0  0  0  0  0  0999 V2000
    4.2219    7.6875    0.0000 C   0  0  0  0  0  0  0  0  0  0  0  0
  -12.6656    8.4375    0.0000 C   0  0  0  0  0  0  0  0  0  0  0  0
  -11.3666    6.1875    0.0000 C   0  0  0  0  0  0  0  0  0  0  0  0
   -6.1704    6.1875    0.0000 C   0  0  0  0  0  0  0  0  0  0  0  0
    2.9228    8.4375    0.0000 C   0  0  0  0  0  0  0  0  0  0  0  0
    1.6238    7.6875    0.0000 C   0  0  0  0  0  0  0  0  0  0  0  0
   -8.7685    7.6875    0.0000 C   0  0  0  0  0  0  0  0  0  0  0  0
  -10.0675    8.4375    0.0000 C   0  0  0  0  0  0  0  0  0  0  0  0
   -7.4695    8.4375    0.0000 C   0  0  0  0  0  0  0  0  0  0  0  0
    0.3248    8.4375    0.0000 C   0  0  0  0  0  0  0  0  0  0  0  0
   -4.8714    8.4375    0.0000 C   0  0  0  0  0  0  0  0  0  0  0  0
   -3.5724    7.6875    0.0000 C   0  0  0  0  0  0  0  0  0  0  0  0
  -11.3666    7.6875    0.0000 C   0  0  0  0  0  0  0  0  0  0  0  0
   -6.1704    7.6875    0.0000 C   0  0  0  0  0  0  0  0  0  0  0  0
   -0.9743    7.6875    0.0000 C   0  0  0  0  0  0  0  0  0  0  0  0
   -0.9743    6.1875    0.0000 O   0  0  0  0  0  0  0  0  0  0  0  0
   -2.2733    8.4375    0.0000 O   0  0  0  0  0  0  0  0  0  0  0  0
  5  1  1  0
  6  5  1  0
  8  7  1  0
  9  7  1  0
 10  6  1  0
 12 11  1  0
 13  2  1  0
 13  3  1  0
 13  8  2  0
 14  4  1  0
 14  9  1  0
 14 11  1  0
 15 10  1  0
 16 15  2  0
 17 12  1  0
 17 15  1  0
M  END
>  <NAME>  (3972) 
CITRONELLYL VALERATE

>  <SYNONYMS>  (3972) 
3,7-DIMETHYL-6-OCTENYL PENTANOATE

>  <SPECTRUM TYPE>  (3972) 
MS1

>  <INSTRUMENT TYPE>  (3972) 
EI-B

>  <INSTRUMENT>  (3972) 
HITACHI M-80B

>  <ION MODE>  (3972) 
P

>  <INCHIKEY>  (3972) 
PFOJEJPZUVQHEH-UHFFFAOYSA-N

>  <FORMULA>  (3972) 
C15H28O2

>  <EXACT MASS>  (3972) 
240.208930136

>  <MW>  (3972) 
240

>  <ID>  (3972) 
JP006512

>  <CONTRIBUTOR>  (3972) 
University of Tokyo Team, {Faculty of Engineering, University of Tokyo

>  <COMMENT>  (3972) 
SMILES=CCCCC(=O)OCCC(C)CCC=C(C)C
InChI=InChI=1S/C15H28O2/c1-5-6-10-15(16)17-12-11-14(4)9-7-8-13(2)3/h8,14H,5-7,9-12H2,1-4H3
computed SMILES=O=C(OCCC(C)CCC=C(C)C)CCCC
accession=JP006512
date=2016.01.19 (Created 2008.10.21, modified 2011.05.06)
author=HISAHIRO HAGIWARA, CHEMICAL RESEARCH INSTITUTE OF NON-AQUEOUSSOLUTIONS TOHOKU UNIV.
license=CC BY-NC-SA
exact mass=240.20893
ionization energy=70 eV
ion type=[M]+*
computed spectral entropy=3.4305478569792234
computed normalized entropy=0.7995758738744766
SPLASH=splash10-05o3-9100000000-3dede51a691444e8a0a7
submitter=submitter = University of Tokyo Team (Faculty of Engineering, University of Tokyo)
MoNA Rating=3.75

>  <NUM PEAKS>  (3972) 
73

>  <MASS SPECTRAL PEAKS>  (3972) 
14 1.24
15 1.18
17 2
18 8.98
26 1.23
27 14.04
28 13.1
29 29.59
30 1.23
31 2.59
32 2.38
39 9.51
41 99.99
42 9.24
43 12.11
44 1.86
45 1.95
50 1.14
51 2.5
52 1.46
53 10.39
54 3.79
55 49.46
56 12.22
57 49.21
58 2.16
59 1.35
60 2.72
63 1.09
65 2.78
66 1.76
67 39.56
68 21.89
69 74.57
70 7.44
71 2.62
73 1.68
77 3.61
78 1.18
79 5.49
80 5.72
81 74.55
82 56.98
83 11.39
84 2.03
85 28.85
86 1.7
91 4.39
92 1.21
93 5.27
94 5.28
95 61.93
96 12.23
97 3.39
98 1.15
103 3.38
105 1.8
107 2.57
108 1.82
109 19.41
110 5.25
111 2.3
119 2.11
121 5.12
122 1.2
123 48.59
124 4.47
134 1.38
136 1.47
137 3.59
138 18.92
139 2.71
152 2.25

$$$$

     RDKit          2D

 17 16  0  0  0  0  0  0  0  0999 V2000
    4.2219    6.1875    0.0000 C   0  0  0  0  0  0  0  0  0  0  0  0
    2.9228    8.4375    0.0000 C   0  0  0  0  0  0  0  0  0  0  0  0
  -11.3666    6.1875    0.0000 C   0  0  0  0  0  0  0  0  0  0  0  0
  -10.0675    8.4375    0.0000 C   0  0  0  0  0  0  0  0  0  0  0  0
   -2.2733    8.4375    0.0000 C   0  0  0  0  0  0  0  0  0  0  0  0
    0.3248    6.9375    0.0000 C   0  0  0  0  0  0  0  0  0  0  0  0
    1.6238    6.1875    0.0000 C   0  0  0  0  0  0  0  0  0  0  0  0
   -0.9743    6.1875    0.0000 C   0  0  0  0  0  0  0  0  0  0  0  0
   -3.5724    6.1875    0.0000 C   0  0  0  0  0  0  0  0  0  0  0  0
   -4.8714    6.9375    0.0000 C   0  0  0  0  0  0  0  0  0  0  0  0
   -8.7685    6.1875    0.0000 C   0  0  0  0  0  0  0  0  0  0  0  0
    2.9228    6.9375    0.0000 C   0  0  0  0  0  0  0  0  0  0  0  0
  -10.0675    6.9375    0.0000 C   0  0  0  0  0  0  0  0  0  0  0  0
   -2.2733    6.9375    0.0000 C   0  0  0  0  0  0  0  0  0  0  0  0
   -7.4695    6.9375    0.0000 C   0  0  0  0  0  0  0  0  0  0  0  0
   -7.4695    8.4375    0.0000 O   0  0  0  0  0  0  0  0  0  0  0  0
   -6.1704    6.1875    0.0000 O   0  0  0  0  0  0  0  0  0  0  0  0
  7  6  1  0
  8  6  1  0
 10  9  1  0
 12  1  1  0
 12  2  1  0
 12  7  2  0
 13  3  1  0
 13  4  1  0
 13 11  1  0
 14  5  1  0
 14  8  1  0
  9 14  2  0
 15 11  1  0
 16 15  2  0
 17 10  1  0
 17 15  1  0
M  END
>  <NAME>  (3973) 
GERANYL ISOVALERATE

>  <SYNONYMS>  (3973) 
3,7-DIMETHYL-2,6-OCTADIENYL ISOPENTANOATE

>  <SPECTRUM TYPE>  (3973) 
MS1

>  <INSTRUMENT TYPE>  (3973) 
EI-B

>  <INSTRUMENT>  (3973) 
HITACHI M-80B

>  <ION MODE>  (3973) 
P

>  <INCHIKEY>  (3973) 
SOUKTGNMIRUIQN-NTEUORMPSA-N

>  <FORMULA>  (3973) 
C15H26O2

>  <EXACT MASS>  (3973) 
238.193280072

>  <MW>  (3973) 
238

>  <ID>  (3973) 
JP006511

>  <CONTRIBUTOR>  (3973) 
University of Tokyo Team, {Faculty of Engineering, University of Tokyo

>  <COMMENT>  (3973) 
SMILES=CC(C)=CCCC(C)=CCOC(=O)CC(C)C
InChI=InChI=1S/C15H26O2/c1-12(2)7-6-8-14(5)9-10-17-15(16)11-13(3)4/h7,9,13H,6,8,10-11H2,1-5H3/b14-9+
computed SMILES=O=C(OCC=C(C)CCC=C(C)C)CC(C)C
accession=JP006511
date=2016.01.19 (Created 2008.10.21, modified 2011.05.06)
author=HISAHIRO HAGIWARA, CHEMICAL RESEARCH INSTITUTE OF NON-AQUEOUSSOLUTIONS TOHOKU UNIV.
license=CC BY-NC-SA
exact mass=238.19328
ionization energy=70 eV
ion type=[M]+*
computed spectral entropy=3.141902779222733
computed normalized entropy=0.7990951463037637
SPLASH=splash10-00kf-9000000000-c2003dcea4526ac97837
submitter=submitter = University of Tokyo Team (Faculty of Engineering, University of Tokyo)
MoNA Rating=3.75

>  <NUM PEAKS>  (3973) 
51

>  <MASS SPECTRAL PEAKS>  (3973) 
17 1.08
18 3.45
26 1.02
27 23.52
29 13.69
38 1.4
39 31.48
40 1.92
41 98.14
42 4.63
43 12.43
50 2.15
51 6.59
52 3.23
53 20.75
54 2.18
55 8.43
56 1.38
57 18.19
58 1.02
60 1.71
63 2.07
65 5.49
66 2.92
67 17.45
68 31.41
69 92.87
70 4.03
77 18.42
78 2.98
79 22.11
80 22.37
81 6.94
82 1.87
85 18.46
91 22.48
92 19.49
93 99.99
94 11.42
95 2.61
103 1.09
105 5.16
106 1.83
107 5.67
108 1.33
119 2.06
121 18.05
122 1.41
123 1.15
136 11.68
137 1.71

$$$$

     RDKit          2D

 17 18  0  0  0  0  0  0  0  0999 V2000
   11.5292    0.3282    0.0000 C   0  0  0  0  0  0  0  0  0  0  0  0
   -0.6759    1.4813    0.0000 C   0  0  0  0  0  0  0  0  0  0  0  0
   -0.6759   -2.3013    0.0000 C   0  0  0  0  0  0  0  0  0  0  0  0
    2.4475    2.5900    0.0000 C   0  0  0  0  0  0  0  0  0  0  0  0
   10.2313    1.0802    0.0000 C   0  0  0  0  0  0  0  0  0  0  0  0
    8.9311    0.3321    0.0000 C   0  0  0  0  0  0  0  0  0  0  0  0
    7.6332    1.0841    0.0000 C   0  0  0  0  0  0  0  0  0  0  0  0
    1.1450   -1.1600    0.0000 C   0  0  0  0  0  0  0  0  0  0  0  0
    1.1450    0.3400    0.0000 C   0  0  0  0  0  0  0  0  0  0  0  0
    3.7350   -1.1600    0.0000 C   0  0  0  0  0  0  0  0  0  0  0  0
    2.4450   -1.9100    0.0000 C   0  0  0  0  0  0  0  0  0  0  0  0
    3.7350    0.3400    0.0000 C   0  0  0  0  0  0  0  0  0  0  0  0
    6.3331    0.3361    0.0000 C   0  0  0  0  0  0  0  0  0  0  0  0
    1.5750   -0.4100    0.0000 C   0  0  0  0  0  0  0  0  0  0  0  0
    2.4450    1.0900    0.0000 C   0  0  0  0  0  0  0  0  0  0  0  0
    6.3308   -1.1639    0.0000 O   0  0  0  0  0  0  0  0  0  0  0  0
    5.0352    1.0880    0.0000 O   0  0  0  0  0  0  0  0  0  0  0  0
  5  1  1  0
  6  5  1  0
  7  6  1  0
  9  8  1  0
 11  8  1  0
 11 10  1  0
 12 10  1  0
 13  7  1  0
 14  2  1  0
 14  3  1  0
 14 11  1  0
 15  4  1  0
 15  9  1  0
 15 12  1  0
 15 14  1  0
 16 13  2  0
 17 12  1  0
 17 13  1  0
M  END
>  <NAME>  (3974) 
BORNYL PENTANOATE

>  <SYNONYMS>  (3974) 
BORNYL VALERATE

>  <SPECTRUM TYPE>  (3974) 
MS1

>  <INSTRUMENT TYPE>  (3974) 
EI-B

>  <INSTRUMENT>  (3974) 
HITACHI M-80B

>  <ION MODE>  (3974) 
P

>  <INCHIKEY>  (3974) 
ILUAVCBOWYHFAI-UHFFFAOYSA-N

>  <FORMULA>  (3974) 
C15H26O2

>  <EXACT MASS>  (3974) 
238.193280072

>  <MW>  (3974) 
238

>  <ID>  (3974) 
JP006510

>  <CONTRIBUTOR>  (3974) 
University of Tokyo Team, {Faculty of Engineering, University of Tokyo

>  <COMMENT>  (3974) 
SMILES=CCCCC(=O)OC(C1)C(C)(C2)C(C)(C)C(C2)1
InChI=InChI=1S/C15H26O2/c1-5-6-7-13(16)17-12-10-11-8-9-15(12,4)14(11,2)3/h11-12H,5-10H2,1-4H3
computed SMILES=O=C(OC1CC2CCC1(C)C2(C)C)CCCC
accession=JP006510
date=2016.01.19 (Created 2008.10.21, modified 2011.05.06)
author=HISAHIRO HAGIWARA, CHEMICAL RESEARCH INSTITUTE OF NON-AQUEOUSSOLUTIONS TOHOKU UNIV.
license=CC BY-NC-SA
exact mass=238.19328
ionization energy=70 eV
ion type=[M]+*
computed spectral entropy=3.5944597134563145
computed normalized entropy=0.840481724180821
SPLASH=splash10-0a4u-9200000000-860b3b7bc0b14cb28ea4
submitter=submitter = University of Tokyo Team (Faculty of Engineering, University of Tokyo)
MoNA Rating=3.75

>  <NUM PEAKS>  (3974) 
72

>  <MASS SPECTRAL PEAKS>  (3974) 
14 3.91
15 1.17
18 3.17
27 15.82
28 8.34
29 15.94
39 6.9
41 69.06
42 9.06
43 25.66
44 2.3
45 2.44
50 2.09
51 4.03
52 2.92
53 12.27
54 3.29
55 23.18
56 3.79
57 99.99
58 4.48
59 1.51
60 3.03
63 1.06
65 5.88
66 3.57
67 20.37
68 10.37
69 22.99
70 2.94
71 1.54
72 1
77 12.48
78 3.43
79 16.02
80 17.08
81 26.55
82 6.49
83 9.51
84 2.43
85 88.73
86 4.68
87 1.03
91 12.62
92 12.99
93 52.23
94 11.6
95 75.65
96 6.52
97 3.13
105 4.35
106 1.15
107 11.14
108 32.06
109 32.35
110 16.22
111 4.59
119 2.3
121 31.91
122 4.45
123 1.77
125 1.86
135 3.98
136 37.13
137 15.2
138 2.21
152 3.31
153 4.45
154 7.26
155 1.25
238 8.16
239 2.44

$$$$

     RDKit          2D

 13 12  0  0  0  0  0  0  0  0999 V2000
    3.8971    6.0000    0.0000 C   0  0  0  0  0  0  0  0  0  0  0  0
  -10.3923    6.7500    0.0000 C   0  0  0  0  0  0  0  0  0  0  0  0
    2.5981    6.7500    0.0000 C   0  0  0  0  0  0  0  0  0  0  0  0
   -9.0933    6.0000    0.0000 C   0  0  0  0  0  0  0  0  0  0  0  0
    1.2990    6.0000    0.0000 C   0  0  0  0  0  0  0  0  0  0  0  0
   -7.7942    6.7500    0.0000 C   0  0  0  0  0  0  0  0  0  0  0  0
    0.0000    6.7500    0.0000 C   0  0  0  0  0  0  0  0  0  0  0  0
   -1.2990    6.0000    0.0000 C   0  0  0  0  0  0  0  0  0  0  0  0
   -6.4952    6.0000    0.0000 C   0  0  0  0  0  0  0  0  0  0  0  0
   -2.5981    6.7500    0.0000 C   0  0  0  0  0  0  0  0  0  0  0  0
   -5.1962    6.7500    0.0000 C   0  0  0  0  0  0  0  0  0  0  0  0
   -5.1962    8.2500    0.0000 O   0  0  0  0  0  0  0  0  0  0  0  0
   -3.8971    6.0000    0.0000 O   0  0  0  0  0  0  0  0  0  0  0  0
  3  1  1  0
  4  2  1  0
  5  3  1  0
  6  4  1  0
  7  5  1  0
  8  7  1  0
  9  6  1  0
 10  8  1  0
 11  9  1  0
 12 11  2  0
 13 10  1  0
 13 11  1  0
M  END
>  <NAME>  (3975) 
HEXYL PENTANOATE

>  <SYNONYMS>  (3975) 
HEXYL VALERATE

>  <SPECTRUM TYPE>  (3975) 
MS1

>  <INSTRUMENT TYPE>  (3975) 
EI-B

>  <INSTRUMENT>  (3975) 
HITACHI M-80B

>  <ION MODE>  (3975) 
P

>  <INCHIKEY>  (3975) 
YERFHJZYNMRVLO-UHFFFAOYSA-N

>  <FORMULA>  (3975) 
C11H22O2

>  <EXACT MASS>  (3975) 
186.161979944

>  <MW>  (3975) 
186

>  <ID>  (3975) 
JP006509

>  <CONTRIBUTOR>  (3975) 
University of Tokyo Team, {Faculty of Engineering, University of Tokyo

>  <COMMENT>  (3975) 
SMILES=CCCCCCOC(=O)CCCC
InChI=InChI=1S/C11H22O2/c1-3-5-7-8-10-13-11(12)9-6-4-2/h3-10H2,1-2H3
computed SMILES=O=C(OCCCCCC)CCCC
accession=JP006509
date=2016.01.19 (Created 2008.10.21, modified 2011.05.06)
author=HISAHIRO HAGIWARA, CHEMICAL RESEARCH INSTITUTE OF NON-AQUEOUSSOLUTIONS TOHOKU UNIV.
license=CC BY-NC-SA
exact mass=186.16198
ionization energy=70 eV
ion type=[M]+*
computed spectral entropy=2.8458147969005716
computed normalized entropy=0.7881139548853996
SPLASH=splash10-0a4u-9100000000-d5318a5a2bfb57ed8168
submitter=submitter = University of Tokyo Team (Faculty of Engineering, University of Tokyo)
MoNA Rating=3.75

>  <NUM PEAKS>  (3975) 
37

>  <MASS SPECTRAL PEAKS>  (3975) 
26 1.73
27 32.1
29 56.72
30 1.34
31 2.19
39 17.43
41 70.74
42 29.82
43 82.33
44 1.77
45 2.56
53 2.78
54 2.93
55 41.28
56 74.25
57 76.45
58 3.11
59 1.66
60 16
61 18.42
67 1.66
69 23.17
70 1.13
73 13.32
74 1.02
75 3.04
83 3.83
84 62.63
85 99.99
86 4.34
87 1.92
101 1.75
102 4.16
103 87.28
104 3.51
115 1.61
129 1.72

$$$$

     RDKit          2D

 13 12  0  0  0  0  0  0  0  0999 V2000
    3.8971    6.0000    0.0000 C   0  0  0  0  0  0  0  0  0  0  0  0
  -10.3923    6.7500    0.0000 C   0  0  0  0  0  0  0  0  0  0  0  0
    2.5981    6.7500    0.0000 C   0  0  0  0  0  0  0  0  0  0  0  0
   -9.0933    6.0000    0.0000 C   0  0  0  0  0  0  0  0  0  0  0  0
    1.2990    6.0000    0.0000 C   0  0  0  0  0  0  0  0  0  0  0  0
   -7.7942    6.7500    0.0000 C   0  0  0  0  0  0  0  0  0  0  0  0
    0.0000    6.7500    0.0000 C   0  0  0  0  0  0  0  0  0  0  0  0
   -1.2990    6.0000    0.0000 C   0  0  0  0  0  0  0  0  0  0  0  0
   -6.4952    6.0000    0.0000 C   0  0  0  0  0  0  0  0  0  0  0  0
   -2.5981    6.7500    0.0000 C   0  0  0  0  0  0  0  0  0  0  0  0
   -5.1962    6.7500    0.0000 C   0  0  0  0  0  0  0  0  0  0  0  0
   -5.1962    8.2500    0.0000 O   0  0  0  0  0  0  0  0  0  0  0  0
   -3.8971    6.0000    0.0000 O   0  0  0  0  0  0  0  0  0  0  0  0
  3  1  1  0
  4  2  1  0
  5  3  1  0
  6  4  1  0
  7  5  1  0
  7  8  2  0
  9  6  1  0
 10  8  1  0
 11  9  1  0
 12 11  2  0
 13 10  1  0
 13 11  1  0
M  END
>  <NAME>  (3976) 
TRANS-2-HEXENYL PENTANOATE

>  <SYNONYMS>  (3976) 
TRANS-2-HEXENYL VALERATE

>  <SPECTRUM TYPE>  (3976) 
MS1

>  <INSTRUMENT TYPE>  (3976) 
EI-B

>  <INSTRUMENT>  (3976) 
HITACHI M-80B

>  <ION MODE>  (3976) 
P

>  <INCHIKEY>  (3976) 
WDXAMNXWZLXISB-BQYQJAHWSA-N

>  <FORMULA>  (3976) 
C11H20O2

>  <EXACT MASS>  (3976) 
184.14632988

>  <MW>  (3976) 
184

>  <ID>  (3976) 
JP006508

>  <CONTRIBUTOR>  (3976) 
University of Tokyo Team, {Faculty of Engineering, University of Tokyo

>  <COMMENT>  (3976) 
SMILES=CCCC=CCOC(=O)CCCC
InChI=InChI=1S/C11H20O2/c1-3-5-7-8-10-13-11(12)9-6-4-2/h7-8H,3-6,9-10H2,1-2H3/b8-7+
computed SMILES=O=C(OCC=CCCC)CCCC
accession=JP006508
date=2016.01.19 (Created 2008.10.21, modified 2011.05.06)
author=HISAHIRO HAGIWARA, CHEMICAL RESEARCH INSTITUTE OF NON-AQUEOUSSOLUTIONS TOHOKU UNIV.
license=CC BY-NC-SA
exact mass=184.14633
ionization energy=70 eV
ion type=[M]+*
computed spectral entropy=2.642389734918574
computed normalized entropy=0.7624325133325859
SPLASH=splash10-052r-9000000000-171a784619598ba93d51
submitter=submitter = University of Tokyo Team (Faculty of Engineering, University of Tokyo)
MoNA Rating=3.75

>  <NUM PEAKS>  (3976) 
32

>  <MASS SPECTRAL PEAKS>  (3976) 
27 14.25
29 16.07
39 17.33
41 47.35
42 6.97
43 11.34
51 1.21
53 4.8
54 12.3
55 36.29
56 4.5
57 77.43
58 3.07
59 2.89
60 1.53
65 1.16
67 29.06
68 1.78
69 2.25
81 2.82
82 22.34
83 19.88
84 1.73
85 99.99
86 4.66
87 1.4
99 1.95
100 2.14
103 2.25
142 1.1
155 1.48
184 2

$$$$

     RDKit          2D

 13 12  0  0  0  0  0  0  0  0999 V2000
  -10.3923    6.7500    0.0000 C   0  0  0  0  0  0  0  0  0  0  0  0
    3.8971    6.0000    0.0000 C   0  0  0  0  0  0  0  0  0  0  0  0
   -9.0933    6.0000    0.0000 C   0  0  0  0  0  0  0  0  0  0  0  0
    2.5981    6.7500    0.0000 C   0  0  0  0  0  0  0  0  0  0  0  0
   -7.7942    6.7500    0.0000 C   0  0  0  0  0  0  0  0  0  0  0  0
   -6.4952    6.0000    0.0000 C   0  0  0  0  0  0  0  0  0  0  0  0
   -5.1962    6.7500    0.0000 C   0  0  0  0  0  0  0  0  0  0  0  0
   -3.8971    6.0000    0.0000 C   0  0  0  0  0  0  0  0  0  0  0  0
    1.2990    6.0000    0.0000 C   0  0  0  0  0  0  0  0  0  0  0  0
   -2.5981    6.7500    0.0000 C   0  0  0  0  0  0  0  0  0  0  0  0
    0.0000    6.7500    0.0000 C   0  0  0  0  0  0  0  0  0  0  0  0
    0.0000    8.2500    0.0000 O   0  0  0  0  0  0  0  0  0  0  0  0
   -1.2990    6.0000    0.0000 O   0  0  0  0  0  0  0  0  0  0  0  0
  3  1  1  0
  4  2  1  0
  5  3  1  0
  6  5  1  0
  7  6  1  0
  8  7  1  0
  9  4  1  0
 10  8  1  0
 11  9  1  0
 12 11  2  0
 13 10  1  0
 13 11  1  0
M  END
>  <NAME>  (3977) 
HEPTYL BUTYRATE

>  <SYNONYMS>  (3977) 


>  <SPECTRUM TYPE>  (3977) 
MS1

>  <INSTRUMENT TYPE>  (3977) 
EI-B

>  <INSTRUMENT>  (3977) 
HITACHI M-80B

>  <ION MODE>  (3977) 
P

>  <INCHIKEY>  (3977) 
JPQHLIYIQARLQM-UHFFFAOYSA-N

>  <FORMULA>  (3977) 
C11H22O2

>  <EXACT MASS>  (3977) 
186.161979944

>  <MW>  (3977) 
186

>  <ID>  (3977) 
JP006507

>  <CONTRIBUTOR>  (3977) 
University of Tokyo Team, {Faculty of Engineering, University of Tokyo

>  <COMMENT>  (3977) 
SMILES=CCCCCCCOC(=O)CCC
InChI=InChI=1S/C11H22O2/c1-3-5-6-7-8-10-13-11(12)9-4-2/h3-10H2,1-2H3
computed SMILES=O=C(OCCCCCCC)CCC
accession=JP006507
date=2016.01.19 (Created 2008.10.21, modified 2011.05.06)
author=HISAHIRO HAGIWARA, CHEMICAL RESEARCH INSTITUTE OF NON-AQUEOUSSOLUTIONS TOHOKU UNIV.
license=CC BY-NC-SA
exact mass=186.16198
ionization energy=70 eV
ion type=[M]+*
computed spectral entropy=2.902754109422095
computed normalized entropy=0.7979891010032973
SPLASH=splash10-0596-9000000000-ba06b6ffba8744b54335
submitter=submitter = University of Tokyo Team (Faculty of Engineering, University of Tokyo)
MoNA Rating=3.75

>  <NUM PEAKS>  (3977) 
38

>  <MASS SPECTRAL PEAKS>  (3977) 
15 1.22
26 1.35
27 31.17
28 4.74
29 31.32
31 1.89
39 15.33
40 2.79
41 59.96
42 27.7
43 99.99
44 3.66
45 1.92
53 2.37
54 4.31
55 34.95
56 57.34
57 45.33
58 2.33
60 6.65
61 4.78
67 1.69
68 5.99
69 25.69
70 45.74
71 94.43
72 4
73 4.46
83 4.61
86 1.29
88 5.31
89 72.78
90 3.54
97 2.86
98 31.66
99 2.34
101 2.6
113 1.17

$$$$

     RDKit          2D

 12 11  0  0  0  0  0  0  0  0999 V2000
    3.2476    4.8750    0.0000 C   0  0  0  0  0  0  0  0  0  0  0  0
   -8.4437    5.6250    0.0000 C   0  0  0  0  0  0  0  0  0  0  0  0
   -0.6495    7.1250    0.0000 C   0  0  0  0  0  0  0  0  0  0  0  0
    1.9486    5.6250    0.0000 C   0  0  0  0  0  0  0  0  0  0  0  0
   -7.1447    4.8750    0.0000 C   0  0  0  0  0  0  0  0  0  0  0  0
    0.6495    4.8750    0.0000 C   0  0  0  0  0  0  0  0  0  0  0  0
   -5.8457    5.6250    0.0000 C   0  0  0  0  0  0  0  0  0  0  0  0
   -1.9486    4.8750    0.0000 C   0  0  0  0  0  0  0  0  0  0  0  0
   -0.6495    5.6250    0.0000 C   0  0  0  0  0  0  0  0  0  0  0  0
   -4.5466    4.8750    0.0000 C   0  0  0  0  0  0  0  0  0  0  0  0
   -4.5466    3.3750    0.0000 O   0  0  0  0  0  0  0  0  0  0  0  0
   -3.2476    5.6250    0.0000 O   0  0  0  0  0  0  0  0  0  0  0  0
  4  1  1  0
  5  2  1  0
  6  4  1  0
  7  5  1  0
  9  3  1  0
  9  6  1  0
  9  8  1  0
 10  7  1  0
 11 10  2  0
 12  8  1  0
 12 10  1  0
M  END
>  <NAME>  (3978) 
2-METHYLPENTYL BUTYRATE

>  <SYNONYMS>  (3978) 


>  <SPECTRUM TYPE>  (3978) 
MS1

>  <INSTRUMENT TYPE>  (3978) 
EI-B

>  <INSTRUMENT>  (3978) 
HITACHI M-80B

>  <ION MODE>  (3978) 
P

>  <INCHIKEY>  (3978) 
DBEUZPOZVLFSAV-UHFFFAOYSA-N

>  <FORMULA>  (3978) 
C10H20O2

>  <EXACT MASS>  (3978) 
172.14632988

>  <MW>  (3978) 
172

>  <ID>  (3978) 
JP006506

>  <CONTRIBUTOR>  (3978) 
University of Tokyo Team, {Faculty of Engineering, University of Tokyo

>  <COMMENT>  (3978) 
SMILES=CCCC(C)COC(=O)CCC
InChI=InChI=1S/C10H20O2/c1-4-6-9(3)8-12-10(11)7-5-2/h9H,4-8H2,1-3H3
computed SMILES=O=C(OCC(C)CCC)CCC
accession=JP006506
date=2016.01.19 (Created 2008.10.21, modified 2011.05.06)
author=HISAHIRO HAGIWARA, CHEMICAL RESEARCH INSTITUTE OF NON-AQUEOUSSOLUTIONS TOHOKU UNIV.
license=CC BY-NC-SA
exact mass=172.14633
ionization energy=70 eV
ion type=[M]+*
computed spectral entropy=2.5471149212386117
computed normalized entropy=0.7728279720126372
SPLASH=splash10-006x-9000000000-70438e048a437759c295
submitter=submitter = University of Tokyo Team (Faculty of Engineering, University of Tokyo)
MoNA Rating=3.75

>  <NUM PEAKS>  (3978) 
27

>  <MASS SPECTRAL PEAKS>  (3978) 
27 15.98
29 9.87
39 8.92
40 1.43
41 26.22
42 10.88
43 68.7
44 2.14
45 1.3
53 1.06
55 10.33
56 36.86
57 4.1
60 3.31
69 10.99
70 2.16
71 99.99
72 5.02
73 1.89
83 1.63
84 30.75
85 9.17
87 1.71
88 3.8
89 9.32
100 5.59
101 5.9

$$$$

     RDKit          2D

 12 11  0  0  0  0  0  0  0  0999 V2000
    2.9228    3.9375    0.0000 C   0  0  0  0  0  0  0  0  0  0  0  0
   -7.4695    3.9375    0.0000 C   0  0  0  0  0  0  0  0  0  0  0  0
    0.3248    6.9375    0.0000 C   0  0  0  0  0  0  0  0  0  0  0  0
    1.6238    4.6875    0.0000 C   0  0  0  0  0  0  0  0  0  0  0  0
   -6.1704    4.6875    0.0000 C   0  0  0  0  0  0  0  0  0  0  0  0
   -0.9743    6.1875    0.0000 C   0  0  0  0  0  0  0  0  0  0  0  0
    0.3248    3.9375    0.0000 C   0  0  0  0  0  0  0  0  0  0  0  0
   -4.8714    3.9375    0.0000 C   0  0  0  0  0  0  0  0  0  0  0  0
   -0.9743    4.6875    0.0000 C   0  0  0  0  0  0  0  0  0  0  0  0
   -3.5724    4.6875    0.0000 C   0  0  0  0  0  0  0  0  0  0  0  0
   -3.5724    6.1875    0.0000 O   0  0  0  0  0  0  0  0  0  0  0  0
   -2.2733    3.9375    0.0000 O   0  0  0  0  0  0  0  0  0  0  0  0
  4  1  1  0
  5  2  1  0
  6  3  1  0
  7  4  1  0
  8  5  1  0
  9  6  1  0
  9  7  1  0
 10  8  1  0
 11 10  2  0
 12  9  1  0
 12 10  1  0
M  END
>  <NAME>  (3979) 
3-HEXYL BUTYRATE

>  <SYNONYMS>  (3979) 
1-ETHYLBUTYL BUTYRATE

>  <SPECTRUM TYPE>  (3979) 
MS1

>  <INSTRUMENT TYPE>  (3979) 
EI-B

>  <INSTRUMENT>  (3979) 
HITACHI M-80B

>  <ION MODE>  (3979) 
P

>  <INCHIKEY>  (3979) 
RCEHZMJZHHUGOL-UHFFFAOYSA-N

>  <FORMULA>  (3979) 
C10H20O2

>  <EXACT MASS>  (3979) 
172.14632988

>  <MW>  (3979) 
172

>  <ID>  (3979) 
JP006505

>  <CONTRIBUTOR>  (3979) 
University of Tokyo Team, {Faculty of Engineering, University of Tokyo

>  <COMMENT>  (3979) 
SMILES=CCCC(=O)OC(CC)CCC
InChI=InChI=1S/C10H20O2/c1-4-7-9(6-3)12-10(11)8-5-2/h9H,4-8H2,1-3H3
computed SMILES=O=C(OC(CC)CCC)CCC
accession=JP006505
date=2016.01.19 (Created 2008.10.21, modified 2011.05.06)
author=HISAHIRO HAGIWARA, CHEMICAL RESEARCH INSTITUTE OF NON-AQUEOUSSOLUTIONS TOHOKU UNIV.
license=CC BY-NC-SA
exact mass=172.14633
ionization energy=70 eV
ion type=[M]+*
computed spectral entropy=2.4047383444835893
computed normalized entropy=0.7470739709513501
SPLASH=splash10-00dl-9000000000-aa33a4957de9e0753119
submitter=submitter = University of Tokyo Team (Faculty of Engineering, University of Tokyo)
MoNA Rating=3.75

>  <NUM PEAKS>  (3979) 
25

>  <MASS SPECTRAL PEAKS>  (3979) 
27 13.55
28 2.2
29 8.81
31 1.2
39 5.85
41 17.25
42 8
43 53.48
44 2.08
55 9.22
56 8.32
57 3.9
59 1.27
60 2.21
69 4.62
71 99.99
72 5.16
73 1.62
84 12.77
85 8.34
88 3.98
89 7.43
101 1.48
129 5.01
143 3.8

$$$$

     RDKit          2D

 12 11  0  0  0  0  0  0  0  0999 V2000
   -8.4437    5.6250    0.0000 C   0  0  0  0  0  0  0  0  0  0  0  0
    3.2476    4.8750    0.0000 C   0  0  0  0  0  0  0  0  0  0  0  0
   -3.2476    7.1250    0.0000 C   0  0  0  0  0  0  0  0  0  0  0  0
   -7.1447    4.8750    0.0000 C   0  0  0  0  0  0  0  0  0  0  0  0
    1.9486    5.6250    0.0000 C   0  0  0  0  0  0  0  0  0  0  0  0
   -5.8457    5.6250    0.0000 C   0  0  0  0  0  0  0  0  0  0  0  0
    0.6495    4.8750    0.0000 C   0  0  0  0  0  0  0  0  0  0  0  0
   -4.5466    4.8750    0.0000 C   0  0  0  0  0  0  0  0  0  0  0  0
   -3.2476    5.6250    0.0000 C   0  0  0  0  0  0  0  0  0  0  0  0
   -0.6495    5.6250    0.0000 C   0  0  0  0  0  0  0  0  0  0  0  0
   -0.6495    7.1250    0.0000 O   0  0  0  0  0  0  0  0  0  0  0  0
   -1.9486    4.8750    0.0000 O   0  0  0  0  0  0  0  0  0  0  0  0
  4  1  1  0
  5  2  1  0
  6  4  1  0
  7  5  1  0
  8  6  1  0
  9  3  1  0
  9  8  1  0
 10  7  1  0
 11 10  2  0
 12  9  1  0
 12 10  1  0
M  END
>  <NAME>  (3980) 
2-HEXYL BUTYRATE

>  <SYNONYMS>  (3980) 
1-METHYLPENTYL BUTYRATE

>  <SPECTRUM TYPE>  (3980) 
MS1

>  <INSTRUMENT TYPE>  (3980) 
EI-B

>  <INSTRUMENT>  (3980) 
HITACHI M-80B

>  <ION MODE>  (3980) 
P

>  <INCHIKEY>  (3980) 
LRUMZDICEGQZIB-UHFFFAOYSA-N

>  <FORMULA>  (3980) 
C10H20O2

>  <EXACT MASS>  (3980) 
172.14632988

>  <MW>  (3980) 
172

>  <ID>  (3980) 
JP006504

>  <CONTRIBUTOR>  (3980) 
University of Tokyo Team, {Faculty of Engineering, University of Tokyo

>  <COMMENT>  (3980) 
SMILES=CCCCC(C)OC(=O)CCC
InChI=InChI=1S/C10H20O2/c1-4-6-8-9(3)12-10(11)7-5-2/h9H,4-8H2,1-3H3
computed SMILES=O=C(OC(C)CCCC)CCC
accession=JP006504
date=2016.01.19 (Created 2008.10.21, modified 2011.05.06)
author=HISAHIRO HAGIWARA, CHEMICAL RESEARCH INSTITUTE OF NON-AQUEOUSSOLUTIONS TOHOKU UNIV.
license=CC BY-NC-SA
exact mass=172.14633
ionization energy=70 eV
ion type=[M]+*
computed spectral entropy=2.554800253926275
computed normalized entropy=0.7936933242930808
SPLASH=splash10-00dl-9000000000-b2c48bf095ddeef0c971
submitter=submitter = University of Tokyo Team (Faculty of Engineering, University of Tokyo)
MoNA Rating=3.75

>  <NUM PEAKS>  (3980) 
25

>  <MASS SPECTRAL PEAKS>  (3980) 
27 16.32
28 2.51
29 12.12
39 7.54
40 1.05
41 22.06
42 11.28
43 65.49
44 2.88
45 3.38
55 12.14
56 13.09
57 4.31
60 3.2
69 6.17
71 99.99
72 4.94
73 1.78
84 17.28
85 12.84
86 2.65
88 7.51
89 12.17
101 2.13
115 12.8

$$$$

     RDKit          2D

 12 11  0  0  0  0  0  0  0  0999 V2000
    3.2476    5.6250    0.0000 C   0  0  0  0  0  0  0  0  0  0  0  0
   -9.7428    5.6250    0.0000 C   0  0  0  0  0  0  0  0  0  0  0  0
    1.9486    6.3750    0.0000 C   0  0  0  0  0  0  0  0  0  0  0  0
   -8.4437    6.3750    0.0000 C   0  0  0  0  0  0  0  0  0  0  0  0
    0.6495    5.6250    0.0000 C   0  0  0  0  0  0  0  0  0  0  0  0
   -0.6495    6.3750    0.0000 C   0  0  0  0  0  0  0  0  0  0  0  0
   -1.9486    5.6250    0.0000 C   0  0  0  0  0  0  0  0  0  0  0  0
   -7.1447    5.6250    0.0000 C   0  0  0  0  0  0  0  0  0  0  0  0
   -3.2476    6.3750    0.0000 C   0  0  0  0  0  0  0  0  0  0  0  0
   -5.8457    6.3750    0.0000 C   0  0  0  0  0  0  0  0  0  0  0  0
   -5.8457    7.8750    0.0000 O   0  0  0  0  0  0  0  0  0  0  0  0
   -4.5466    5.6250    0.0000 O   0  0  0  0  0  0  0  0  0  0  0  0
  3  1  1  0
  4  2  1  0
  5  3  1  0
  6  5  1  0
  7  6  1  0
  8  4  1  0
  9  7  1  0
 10  8  1  0
 11 10  2  0
 12  9  1  0
 12 10  1  0
M  END
>  <NAME>  (3981) 
HEXYL BUTYRATE

>  <SYNONYMS>  (3981) 


>  <SPECTRUM TYPE>  (3981) 
MS1

>  <INSTRUMENT TYPE>  (3981) 
EI-B

>  <INSTRUMENT>  (3981) 
HITACHI M-80B

>  <ION MODE>  (3981) 
P

>  <INCHIKEY>  (3981) 
XAPCMTMQBXLDBB-UHFFFAOYSA-N

>  <FORMULA>  (3981) 
C10H20O2

>  <EXACT MASS>  (3981) 
172.14632988

>  <MW>  (3981) 
172

>  <ID>  (3981) 
JP006503

>  <CONTRIBUTOR>  (3981) 
University of Tokyo Team, {Faculty of Engineering, University of Tokyo

>  <COMMENT>  (3981) 
SMILES=CCCCCCOC(=O)CCC
InChI=InChI=1S/C10H20O2/c1-3-5-6-7-9-12-10(11)8-4-2/h3-9H2,1-2H3
computed SMILES=O=C(OCCCCCC)CCC
accession=JP006503
date=2016.01.19 (Created 2008.10.21, modified 2011.05.06)
author=HISAHIRO HAGIWARA, CHEMICAL RESEARCH INSTITUTE OF NON-AQUEOUSSOLUTIONS TOHOKU UNIV.
license=CC BY-NC-SA
exact mass=172.14633
ionization energy=70 eV
ion type=[M]+*
computed spectral entropy=2.743095019033057
computed normalized entropy=0.777882749050918
SPLASH=splash10-0006-9000000000-c8872258839b61d390df
submitter=submitter = University of Tokyo Team (Faculty of Engineering, University of Tokyo)
MoNA Rating=3.75

>  <NUM PEAKS>  (3981) 
34

>  <MASS SPECTRAL PEAKS>  (3981) 
26 1.04
27 27
28 6.57
29 19.46
31 1.35
39 12.6
40 2.32
41 40.3
42 25.7
43 99.99
44 3.68
45 1.6
53 1.5
54 1.93
55 22.88
56 43.16
57 5.83
60 7.54
61 3.98
69 14.66
70 1.8
71 77.62
72 2.99
73 3.47
83 2.93
84 33.46
85 4.28
86 1.11
88 4.54
89 54.23
90 2.03
99 1.23
101 2.32
129 1.06

$$$$

     RDKit          2D

 12 11  0  0  0  0  0  0  0  0999 V2000
   -4.2219    3.9375    0.0000 C   0  0  0  0  0  0  0  0  0  0  0  0
    7.4695    6.1875    0.0000 C   0  0  0  0  0  0  0  0  0  0  0  0
   -2.9228    4.6875    0.0000 C   0  0  0  0  0  0  0  0  0  0  0  0
    6.1704    6.9375    0.0000 C   0  0  0  0  0  0  0  0  0  0  0  0
   -2.9228    6.1875    0.0000 C   0  0  0  0  0  0  0  0  0  0  0  0
   -1.6238    6.9375    0.0000 C   0  0  0  0  0  0  0  0  0  0  0  0
   -0.3248    6.1875    0.0000 C   0  0  0  0  0  0  0  0  0  0  0  0
    4.8714    6.1875    0.0000 C   0  0  0  0  0  0  0  0  0  0  0  0
    0.9743    6.9375    0.0000 C   0  0  0  0  0  0  0  0  0  0  0  0
    3.5724    6.9375    0.0000 C   0  0  0  0  0  0  0  0  0  0  0  0
    3.5724    8.4375    0.0000 O   0  0  0  0  0  0  0  0  0  0  0  0
    2.2733    6.1875    0.0000 O   0  0  0  0  0  0  0  0  0  0  0  0
  3  1  1  0
  4  2  1  0
  5  3  1  0
  5  6  2  0
  7  6  1  0
  8  4  1  0
  9  7  1  0
 10  8  1  0
 11 10  2  0
 12  9  1  0
 12 10  1  0
M  END
>  <NAME>  (3982) 
CIS-3-HEXENYL BUTYRATE

>  <SYNONYMS>  (3982) 


>  <SPECTRUM TYPE>  (3982) 
MS1

>  <INSTRUMENT TYPE>  (3982) 
EI-B

>  <INSTRUMENT>  (3982) 
HITACHI M-80B

>  <ION MODE>  (3982) 
P

>  <INCHIKEY>  (3982) 
ZCHOPXVYTWUHDS-WAYWQWQTSA-N

>  <FORMULA>  (3982) 
C10H18O2

>  <EXACT MASS>  (3982) 
170.130679816

>  <MW>  (3982) 
170

>  <ID>  (3982) 
JP006502

>  <CONTRIBUTOR>  (3982) 
University of Tokyo Team, {Faculty of Engineering, University of Tokyo

>  <COMMENT>  (3982) 
SMILES=CCC=CCCOC(=O)CCC
InChI=InChI=1S/C10H18O2/c1-3-5-6-7-9-12-10(11)8-4-2/h5-6H,3-4,7-9H2,1-2H3/b6-5-
computed SMILES=O=C(OCCC=CCC)CCC
accession=JP006502
date=2016.01.19 (Created 2008.10.21, modified 2011.05.06)
author=HISAHIRO HAGIWARA, CHEMICAL RESEARCH INSTITUTE OF NON-AQUEOUSSOLUTIONS TOHOKU UNIV.
license=CC BY-NC-SA
exact mass=170.13068
ionization energy=70 eV
ion type=[M]+*
computed spectral entropy=2.528297579740182
computed normalized entropy=0.7362571346911139
SPLASH=splash10-00rx-9000000000-93e85c48cd98fe637f24
submitter=submitter = University of Tokyo Team (Faculty of Engineering, University of Tokyo)
MoNA Rating=3.75

>  <NUM PEAKS>  (3982) 
31

>  <MASS SPECTRAL PEAKS>  (3982) 
15 2.14
26 1.91
27 28.05
28 10.32
29 12.43
31 1.64
38 1.31
39 17.19
40 4.67
41 51.53
42 8.95
43 77.63
44 2.72
45 1.47
51 1.52
53 6.4
54 9.06
55 18.38
56 1.49
65 1.98
66 1.44
67 99.04
68 5.84
69 2.47
71 88.63
72 3.66
80 1.21
81 6.46
82 99.99
83 8.83
89 1.62

$$$$

     RDKit          2D

 12 11  0  0  0  0  0  0  0  0999 V2000
    3.2476    5.6250    0.0000 C   0  0  0  0  0  0  0  0  0  0  0  0
   -9.7428    5.6250    0.0000 C   0  0  0  0  0  0  0  0  0  0  0  0
    1.9486    6.3750    0.0000 C   0  0  0  0  0  0  0  0  0  0  0  0
   -8.4437    6.3750    0.0000 C   0  0  0  0  0  0  0  0  0  0  0  0
    0.6495    5.6250    0.0000 C   0  0  0  0  0  0  0  0  0  0  0  0
   -0.6495    6.3750    0.0000 C   0  0  0  0  0  0  0  0  0  0  0  0
   -1.9486    5.6250    0.0000 C   0  0  0  0  0  0  0  0  0  0  0  0
   -7.1447    5.6250    0.0000 C   0  0  0  0  0  0  0  0  0  0  0  0
   -3.2476    6.3750    0.0000 C   0  0  0  0  0  0  0  0  0  0  0  0
   -5.8457    6.3750    0.0000 C   0  0  0  0  0  0  0  0  0  0  0  0
   -5.8457    7.8750    0.0000 O   0  0  0  0  0  0  0  0  0  0  0  0
   -4.5466    5.6250    0.0000 O   0  0  0  0  0  0  0  0  0  0  0  0
  3  1  1  0
  4  2  1  0
  5  3  1  0
  6  5  1  0
  6  7  2  0
  8  4  1  0
  9  7  1  0
 10  8  1  0
 11 10  2  0
 12  9  1  0
 12 10  1  0
M  END
>  <NAME>  (3983) 
TRANS-2-HEXENYL BUTYRATE

>  <SYNONYMS>  (3983) 


>  <SPECTRUM TYPE>  (3983) 
MS1

>  <INSTRUMENT TYPE>  (3983) 
EI-B

>  <INSTRUMENT>  (3983) 
HITACHI M-80B

>  <ION MODE>  (3983) 
P

>  <INCHIKEY>  (3983) 
PCGACKLJNBBQGM-VOTSOKGWSA-N

>  <FORMULA>  (3983) 
C10H18O2

>  <EXACT MASS>  (3983) 
170.130679816

>  <MW>  (3983) 
170

>  <ID>  (3983) 
JP006501

>  <CONTRIBUTOR>  (3983) 
University of Tokyo Team, {Faculty of Engineering, University of Tokyo

>  <COMMENT>  (3983) 
SMILES=CCCC=CCOC(=O)CCC
InChI=InChI=1S/C10H18O2/c1-3-5-6-7-9-12-10(11)8-4-2/h6-7H,3-5,8-9H2,1-2H3/b7-6+
computed SMILES=O=C(OCC=CCCC)CCC
accession=JP006501
date=2016.01.19 (Created 2008.10.21, modified 2011.05.06)
author=HISAHIRO HAGIWARA, CHEMICAL RESEARCH INSTITUTE OF NON-AQUEOUSSOLUTIONS TOHOKU UNIV.
license=CC BY-NC-SA
exact mass=170.13068
ionization energy=70 eV
ion type=[M]+*
computed spectral entropy=2.5211362787220235
computed normalized entropy=0.7738064999918675
SPLASH=splash10-00dl-9000000000-6614b9e4dedf9d8304ca
submitter=submitter = University of Tokyo Team (Faculty of Engineering, University of Tokyo)
MoNA Rating=3.75

>  <NUM PEAKS>  (3983) 
26

>  <MASS SPECTRAL PEAKS>  (3983) 
26 1
27 21.36
28 3.48
29 10.41
39 15.36
40 1.74
41 38.65
42 6.13
43 60.5
44 2
53 4.68
54 10.03
55 27.8
56 3.4
57 6.79
67 23.98
68 1.32
71 99.99
72 3.8
81 2.59
82 14.82
83 10
89 2.18
99 2.79
100 2.72
170 1.33

$$$$

     RDKit          2D

 11 10  0  0  0  0  0  0  0  0999 V2000
    2.5981    4.5000    0.0000 C   0  0  0  0  0  0  0  0  0  0  0  0
   -7.7942    4.5000    0.0000 C   0  0  0  0  0  0  0  0  0  0  0  0
   -6.4952    6.7500    0.0000 C   0  0  0  0  0  0  0  0  0  0  0  0
    1.2990    5.2500    0.0000 C   0  0  0  0  0  0  0  0  0  0  0  0
    0.0000    4.5000    0.0000 C   0  0  0  0  0  0  0  0  0  0  0  0
   -5.1962    4.5000    0.0000 C   0  0  0  0  0  0  0  0  0  0  0  0
   -3.8971    5.2500    0.0000 C   0  0  0  0  0  0  0  0  0  0  0  0
   -6.4952    5.2500    0.0000 C   0  0  0  0  0  0  0  0  0  0  0  0
   -1.2990    5.2500    0.0000 C   0  0  0  0  0  0  0  0  0  0  0  0
   -1.2990    6.7500    0.0000 O   0  0  0  0  0  0  0  0  0  0  0  0
   -2.5981    4.5000    0.0000 O   0  0  0  0  0  0  0  0  0  0  0  0
  4  1  1  0
  5  4  1  0
  7  6  1  0
  8  2  1  0
  8  3  1  0
  8  6  1  0
  9  5  1  0
 10  9  2  0
 11  7  1  0
 11  9  1  0
M  END
>  <NAME>  (3984) 
ISOPENTYL BUTYRATE

>  <SYNONYMS>  (3984) 
ISOAMYL BUTYRATE

>  <SPECTRUM TYPE>  (3984) 
MS1

>  <INSTRUMENT TYPE>  (3984) 
EI-B

>  <INSTRUMENT>  (3984) 
HITACHI M-80B

>  <ION MODE>  (3984) 
P

>  <INCHIKEY>  (3984) 
PQLMXFQTAMDXIZ-UHFFFAOYSA-N

>  <FORMULA>  (3984) 
C9H18O2

>  <EXACT MASS>  (3984) 
158.130679816

>  <MW>  (3984) 
158

>  <ID>  (3984) 
JP006500

>  <CONTRIBUTOR>  (3984) 
University of Tokyo Team, {Faculty of Engineering, University of Tokyo

>  <COMMENT>  (3984) 
SMILES=CCCC(=O)OCCC(C)C
InChI=InChI=1S/C9H18O2/c1-4-5-9(10)11-7-6-8(2)3/h8H,4-7H2,1-3H3
computed SMILES=O=C(OCCC(C)C)CCC
accession=JP006500
date=2016.01.19 (Created 2008.10.21, modified 2011.05.06)
author=HISAHIRO HAGIWARA, CHEMICAL RESEARCH INSTITUTE OF NON-AQUEOUSSOLUTIONS TOHOKU UNIV.
license=CC BY-NC-SA
exact mass=158.13068
ionization energy=70 eV
ion type=[M]+*
computed spectral entropy=2.424628507734489
computed normalized entropy=0.7200521219854414
SPLASH=splash10-00dl-9000000000-518fbdd189797b447c9e
submitter=submitter = University of Tokyo Team (Faculty of Engineering, University of Tokyo)
MoNA Rating=3.75

>  <NUM PEAKS>  (3984) 
29

>  <MASS SPECTRAL PEAKS>  (3984) 
15 1.41
26 1.19
27 26.07
28 4.78
29 13.28
31 1.22
39 14.49
40 2.08
41 36.15
42 20.04
43 92.98
44 3.22
45 2.5
53 1.73
54 1.11
55 40.12
56 2.18
57 1.67
60 2.75
69 6.31
70 99.99
71 99.8
72 3.74
73 2.07
85 1.21
88 2.07
89 17.95
101 2.12
115 5.77

$$$$

     RDKit          2D

 11 10  0  0  0  0  0  0  0  0999 V2000
   -8.4437    5.6250    0.0000 C   0  0  0  0  0  0  0  0  0  0  0  0
    3.2476    4.8750    0.0000 C   0  0  0  0  0  0  0  0  0  0  0  0
   -7.1447    4.8750    0.0000 C   0  0  0  0  0  0  0  0  0  0  0  0
    1.9486    5.6250    0.0000 C   0  0  0  0  0  0  0  0  0  0  0  0
   -5.8457    5.6250    0.0000 C   0  0  0  0  0  0  0  0  0  0  0  0
   -4.5466    4.8750    0.0000 C   0  0  0  0  0  0  0  0  0  0  0  0
    0.6495    4.8750    0.0000 C   0  0  0  0  0  0  0  0  0  0  0  0
   -3.2476    5.6250    0.0000 C   0  0  0  0  0  0  0  0  0  0  0  0
   -0.6495    5.6250    0.0000 C   0  0  0  0  0  0  0  0  0  0  0  0
   -0.6495    7.1250    0.0000 O   0  0  0  0  0  0  0  0  0  0  0  0
   -1.9486    4.8750    0.0000 O   0  0  0  0  0  0  0  0  0  0  0  0
  3  1  1  0
  4  2  1  0
  5  3  1  0
  6  5  1  0
  7  4  1  0
  8  6  1  0
  9  7  1  0
 10  9  2  0
 11  8  1  0
 11  9  1  0
M  END
>  <NAME>  (3985) 
PENTYL BUTYRATE

>  <SYNONYMS>  (3985) 
AMYL BUTYRATE

>  <SPECTRUM TYPE>  (3985) 
MS1

>  <INSTRUMENT TYPE>  (3985) 
EI-B

>  <INSTRUMENT>  (3985) 
HITACHI M-80B

>  <ION MODE>  (3985) 
P

>  <INCHIKEY>  (3985) 
CFNJLPHOBMVMNS-UHFFFAOYSA-N

>  <FORMULA>  (3985) 
C9H18O2

>  <EXACT MASS>  (3985) 
158.130679816

>  <MW>  (3985) 
158

>  <ID>  (3985) 
JP006499

>  <CONTRIBUTOR>  (3985) 
University of Tokyo Team, {Faculty of Engineering, University of Tokyo

>  <COMMENT>  (3985) 
SMILES=CCCCCOC(=O)CCC
InChI=InChI=1S/C9H18O2/c1-3-5-6-8-11-9(10)7-4-2/h3-8H2,1-2H3
computed SMILES=O=C(OCCCCC)CCC
accession=JP006499
date=2016.01.19 (Created 2008.10.21, modified 2011.05.06)
author=HISAHIRO HAGIWARA, CHEMICAL RESEARCH INSTITUTE OF NON-AQUEOUSSOLUTIONS TOHOKU UNIV.
license=CC BY-NC-SA
exact mass=158.13068
ionization energy=70 eV
ion type=[M]+*
computed spectral entropy=2.580687906308178
computed normalized entropy=0.7515135475570585
SPLASH=splash10-006x-9000000000-937c8363d4b8c7c59575
submitter=submitter = University of Tokyo Team (Faculty of Engineering, University of Tokyo)
MoNA Rating=3.75

>  <NUM PEAKS>  (3985) 
31

>  <MASS SPECTRAL PEAKS>  (3985) 
15 1.54
26 1.5
27 29.36
28 6.04
29 22.28
31 1.72
39 14.6
40 2.62
41 39.64
42 35.06
43 98.29
44 3.16
45 2.07
53 1.2
55 23.41
56 1.9
57 1.67
60 8.6
61 2.33
69 7.34
70 58.34
71 99.99
72 3.98
73 5.38
85 1.1
86 1.35
88 5.26
89 60.5
90 2.27
101 3.01
115 1.36

$$$$

     RDKit          2D

 10  9  0  0  0  0  0  0  0  0999 V2000
    2.2733    4.3125    0.0000 C   0  0  0  0  0  0  0  0  0  0  0  0
   -6.8200    5.0625    0.0000 C   0  0  0  0  0  0  0  0  0  0  0  0
   -5.5209    2.8125    0.0000 C   0  0  0  0  0  0  0  0  0  0  0  0
    0.9743    5.0625    0.0000 C   0  0  0  0  0  0  0  0  0  0  0  0
   -0.3248    4.3125    0.0000 C   0  0  0  0  0  0  0  0  0  0  0  0
   -4.2219    5.0625    0.0000 C   0  0  0  0  0  0  0  0  0  0  0  0
   -5.5209    4.3125    0.0000 C   0  0  0  0  0  0  0  0  0  0  0  0
   -1.6238    5.0625    0.0000 C   0  0  0  0  0  0  0  0  0  0  0  0
   -1.6238    6.5625    0.0000 O   0  0  0  0  0  0  0  0  0  0  0  0
   -2.9228    4.3125    0.0000 O   0  0  0  0  0  0  0  0  0  0  0  0
  4  1  1  0
  5  4  1  0
  7  2  1  0
  7  3  1  0
  7  6  1  0
  8  5  1  0
  9  8  2  0
 10  6  1  0
 10  8  1  0
M  END
>  <NAME>  (3986) 
ISOBUTYL BUTYRATE

>  <SYNONYMS>  (3986) 
2-METHYLPROPYL BUTYRATE

>  <SPECTRUM TYPE>  (3986) 
MS1

>  <INSTRUMENT TYPE>  (3986) 
EI-B

>  <INSTRUMENT>  (3986) 
HITACHI M-80B

>  <ION MODE>  (3986) 
P

>  <INCHIKEY>  (3986) 
RGFNRWTWDWVHDD-UHFFFAOYSA-N

>  <FORMULA>  (3986) 
C8H16O2

>  <EXACT MASS>  (3986) 
144.115029752

>  <MW>  (3986) 
144

>  <ID>  (3986) 
JP006498

>  <CONTRIBUTOR>  (3986) 
University of Tokyo Team, {Faculty of Engineering, University of Tokyo

>  <COMMENT>  (3986) 
SMILES=CCCC(=O)OCC(C)C
InChI=InChI=1S/C8H16O2/c1-4-5-8(9)10-6-7(2)3/h7H,4-6H2,1-3H3
computed SMILES=O=C(OCC(C)C)CCC
accession=JP006498
date=2016.01.19 (Created 2008.10.21, modified 2011.05.06)
author=HISAHIRO HAGIWARA, CHEMICAL RESEARCH INSTITUTE OF NON-AQUEOUSSOLUTIONS TOHOKU UNIV.
license=CC BY-NC-SA
exact mass=144.11503
ionization energy=70 eV
ion type=[M]+*
computed spectral entropy=2.4443940396100157
computed normalized entropy=0.7593937053194971
SPLASH=splash10-05fu-9000000000-caf15cc81f8fd2a7531f
submitter=submitter = University of Tokyo Team (Faculty of Engineering, University of Tokyo)
MoNA Rating=3.75

>  <NUM PEAKS>  (3986) 
25

>  <MASS SPECTRAL PEAKS>  (3986) 
15 1.52
26 1.11
27 19.78
28 2.73
29 14.24
31 1.5
39 11.92
40 1.61
41 29.5
42 8.2
43 51.56
44 1.69
45 1.09
55 3.53
56 38.28
57 19.67
60 5.74
70 1.4
71 99.99
72 4.9
73 6.02
88 2.83
89 14.72
101 5.8
114 1.4

$$$$

     RDKit          2D

 10  9  0  0  0  0  0  0  0  0999 V2000
    2.5981    4.5000    0.0000 C   0  0  0  0  0  0  0  0  0  0  0  0
   -7.7942    4.5000    0.0000 C   0  0  0  0  0  0  0  0  0  0  0  0
    1.2990    5.2500    0.0000 C   0  0  0  0  0  0  0  0  0  0  0  0
   -6.4952    5.2500    0.0000 C   0  0  0  0  0  0  0  0  0  0  0  0
    0.0000    4.5000    0.0000 C   0  0  0  0  0  0  0  0  0  0  0  0
   -5.1962    4.5000    0.0000 C   0  0  0  0  0  0  0  0  0  0  0  0
   -1.2990    5.2500    0.0000 C   0  0  0  0  0  0  0  0  0  0  0  0
   -3.8971    5.2500    0.0000 C   0  0  0  0  0  0  0  0  0  0  0  0
   -3.8971    6.7500    0.0000 O   0  0  0  0  0  0  0  0  0  0  0  0
   -2.5981    4.5000    0.0000 O   0  0  0  0  0  0  0  0  0  0  0  0
  3  1  1  0
  4  2  1  0
  5  3  1  0
  6  4  1  0
  7  5  1  0
  8  6  1  0
  9  8  2  0
 10  7  1  0
 10  8  1  0
M  END
>  <NAME>  (3987) 
BUTYL BUTYRATE

>  <SYNONYMS>  (3987) 


>  <SPECTRUM TYPE>  (3987) 
MS1

>  <INSTRUMENT TYPE>  (3987) 
EI-B

>  <INSTRUMENT>  (3987) 
HITACHI M-80B

>  <ION MODE>  (3987) 
P

>  <INCHIKEY>  (3987) 
XUPYJHCZDLZNFP-UHFFFAOYSA-N

>  <FORMULA>  (3987) 
C8H16O2

>  <EXACT MASS>  (3987) 
144.115029752

>  <MW>  (3987) 
144

>  <ID>  (3987) 
JP006497

>  <CONTRIBUTOR>  (3987) 
University of Tokyo Team, {Faculty of Engineering, University of Tokyo

>  <COMMENT>  (3987) 
SMILES=CCCCOC(=O)CCC
InChI=InChI=1S/C8H16O2/c1-3-5-7-10-8(9)6-4-2/h3-7H2,1-2H3
computed SMILES=O=C(OCCCC)CCC
accession=JP006497
date=2016.01.19 (Created 2008.10.21, modified 2011.05.06)
author=HISAHIRO HAGIWARA, CHEMICAL RESEARCH INSTITUTE OF NON-AQUEOUSSOLUTIONS TOHOKU UNIV.
license=CC BY-NC-SA
exact mass=144.11503
ionization energy=70 eV
ion type=[M]+*
computed spectral entropy=2.61971157332488
computed normalized entropy=0.7861797093561759
SPLASH=splash10-05bf-9000000000-0b6c3408eea71f00941f
submitter=submitter = University of Tokyo Team (Faculty of Engineering, University of Tokyo)
MoNA Rating=3.75

>  <NUM PEAKS>  (3987) 
28

>  <MASS SPECTRAL PEAKS>  (3987) 
15 2.17
26 2.42
27 33.98
28 9.21
29 34.56
30 1.03
31 2.4
39 14.89
40 2.04
41 47.47
42 12.77
43 69.48
44 2.85
45 2.42
55 10.69
56 56.29
57 20.05
60 12.38
61 1.88
70 1.16
71 99.99
72 3.82
73 8.35
88 4.3
89 48.89
90 1.93
101 4.91
116 1.18

$$$$

     RDKit          2D

 10  9  0  0  0  0  0  0  0  0999 V2000
    2.2733    4.3125    0.0000 C   0  0  0  0  0  0  0  0  0  0  0  0
   -5.5209    2.8125    0.0000 C   0  0  0  0  0  0  0  0  0  0  0  0
   -6.8200    5.0625    0.0000 C   0  0  0  0  0  0  0  0  0  0  0  0
    0.9743    5.0625    0.0000 C   0  0  0  0  0  0  0  0  0  0  0  0
   -0.3248    4.3125    0.0000 C   0  0  0  0  0  0  0  0  0  0  0  0
   -4.2219    5.0625    0.0000 C   0  0  0  0  0  0  0  0  0  0  0  0
   -5.5209    4.3125    0.0000 C   0  0  0  0  0  0  0  0  0  0  0  0
   -1.6238    5.0625    0.0000 C   0  0  0  0  0  0  0  0  0  0  0  0
   -1.6238    6.5625    0.0000 O   0  0  0  0  0  0  0  0  0  0  0  0
   -2.9228    4.3125    0.0000 O   0  0  0  0  0  0  0  0  0  0  0  0
  4  1  1  0
  5  4  1  0
  7  2  2  0
  7  3  1  0
  7  6  1  0
  8  5  1  0
  9  8  2  0
 10  6  1  0
 10  8  1  0
M  END
>  <NAME>  (3988) 
METHALLYL BUTYRATE

>  <SYNONYMS>  (3988) 
2-METHYLALLYL BUTYRATE

>  <SPECTRUM TYPE>  (3988) 
MS1

>  <INSTRUMENT TYPE>  (3988) 
EI-B

>  <INSTRUMENT>  (3988) 
HITACHI M-80B

>  <ION MODE>  (3988) 
P

>  <INCHIKEY>  (3988) 
AHRIFIYGSJEEKU-UHFFFAOYSA-N

>  <FORMULA>  (3988) 
C8H14O2

>  <EXACT MASS>  (3988) 
142.099379688

>  <MW>  (3988) 
142

>  <ID>  (3988) 
JP006496

>  <CONTRIBUTOR>  (3988) 
University of Tokyo Team, {Faculty of Engineering, University of Tokyo

>  <COMMENT>  (3988) 
SMILES=CCCC(=O)OCC(C)=C
InChI=InChI=1S/C8H14O2/c1-4-5-8(9)10-6-7(2)3/h2,4-6H2,1,3H3
computed SMILES=O=C(OCC(=C)C)CCC
accession=JP006496
date=2016.01.19 (Created 2008.10.21, modified 2011.05.06)
author=HISAHIRO HAGIWARA, CHEMICAL RESEARCH INSTITUTE OF NON-AQUEOUSSOLUTIONS TOHOKU UNIV.
license=CC BY-NC-SA
exact mass=142.09938
ionization energy=70 eV
ion type=[M]+*
computed spectral entropy=2.2515148607805227
computed normalized entropy=0.7283998504563811
SPLASH=splash10-00dl-9000000000-00b01cbfc8e9809ebe15
submitter=submitter = University of Tokyo Team (Faculty of Engineering, University of Tokyo)
MoNA Rating=3.75

>  <NUM PEAKS>  (3988) 
22

>  <MASS SPECTRAL PEAKS>  (3988) 
15 1.48
26 1.76
27 26.9
28 3.93
29 16.22
38 1.51
39 25.8
40 3.37
41 19.84
42 6.89
43 93.02
44 3.09
45 1.48
53 5.03
54 7.8
55 26.07
56 2.25
57 3.2
69 1.08
71 99.99
72 15.15
89 2.14

$$$$

     RDKit          2D

  9  8  0  0  0  0  0  0  0  0999 V2000
    1.9486    3.3750    0.0000 C   0  0  0  0  0  0  0  0  0  0  0  0
   -5.8457    3.3750    0.0000 C   0  0  0  0  0  0  0  0  0  0  0  0
   -4.5466    5.6250    0.0000 C   0  0  0  0  0  0  0  0  0  0  0  0
    0.6495    4.1250    0.0000 C   0  0  0  0  0  0  0  0  0  0  0  0
   -0.6495    3.3750    0.0000 C   0  0  0  0  0  0  0  0  0  0  0  0
   -4.5466    4.1250    0.0000 C   0  0  0  0  0  0  0  0  0  0  0  0
   -1.9486    4.1250    0.0000 C   0  0  0  0  0  0  0  0  0  0  0  0
   -1.9486    5.6250    0.0000 O   0  0  0  0  0  0  0  0  0  0  0  0
   -3.2476    3.3750    0.0000 O   0  0  0  0  0  0  0  0  0  0  0  0
  4  1  1  0
  5  4  1  0
  6  2  1  0
  6  3  1  0
  7  5  1  0
  8  7  2  0
  9  6  1  0
  9  7  1  0
M  END
>  <NAME>  (3989) 
ISOPROPYL BUTYRATE

>  <SYNONYMS>  (3989) 
1-METHYLETHYL BUTYRATE

>  <SPECTRUM TYPE>  (3989) 
MS1

>  <INSTRUMENT TYPE>  (3989) 
EI-B

>  <INSTRUMENT>  (3989) 
HITACHI M-80B

>  <ION MODE>  (3989) 
P

>  <INCHIKEY>  (3989) 
FFOPEPMHKILNIT-UHFFFAOYSA-N

>  <FORMULA>  (3989) 
C7H14O2

>  <EXACT MASS>  (3989) 
130.099379688

>  <MW>  (3989) 
130

>  <ID>  (3989) 
JP006495

>  <CONTRIBUTOR>  (3989) 
University of Tokyo Team, {Faculty of Engineering, University of Tokyo

>  <COMMENT>  (3989) 
SMILES=CCCC(=O)OC(C)C
InChI=InChI=1S/C7H14O2/c1-4-5-7(8)9-6(2)3/h6H,4-5H2,1-3H3
computed SMILES=O=C(OC(C)C)CCC
accession=JP006495
date=2016.01.19 (Created 2008.10.21, modified 2011.05.06)
author=HISAHIRO HAGIWARA, CHEMICAL RESEARCH INSTITUTE OF NON-AQUEOUSSOLUTIONS TOHOKU UNIV.
license=CC BY-NC-SA
exact mass=130.09938
ionization energy=70 eV
ion type=[M]+*
computed spectral entropy=2.3307671183446543
computed normalized entropy=0.7540391804752964
SPLASH=splash10-0006-9000000000-6cf9a61263b7ec9813f9
submitter=submitter = University of Tokyo Team (Faculty of Engineering, University of Tokyo)
MoNA Rating=3.75

>  <NUM PEAKS>  (3989) 
22

>  <MASS SPECTRAL PEAKS>  (3989) 
15 2.81
26 1.46
27 21.07
28 2.43
29 3.69
39 11.78
40 1.47
41 24.91
42 11.8
43 99.99
44 3.65
45 3.33
55 1.18
59 11.68
60 11.91
71 62.44
72 3.02
73 5.71
88 9.88
89 23.31
102 1.84
115 4.13

$$$$

     RDKit          2D

  9  8  0  0  0  0  0  0  0  0999 V2000
    2.5981    3.7500    0.0000 C   0  0  0  0  0  0  0  0  0  0  0  0
   -6.4952    4.5000    0.0000 C   0  0  0  0  0  0  0  0  0  0  0  0
    1.2990    4.5000    0.0000 C   0  0  0  0  0  0  0  0  0  0  0  0
   -5.1962    3.7500    0.0000 C   0  0  0  0  0  0  0  0  0  0  0  0
    0.0000    3.7500    0.0000 C   0  0  0  0  0  0  0  0  0  0  0  0
   -3.8971    4.5000    0.0000 C   0  0  0  0  0  0  0  0  0  0  0  0
   -1.2990    4.5000    0.0000 C   0  0  0  0  0  0  0  0  0  0  0  0
   -1.2990    6.0000    0.0000 O   0  0  0  0  0  0  0  0  0  0  0  0
   -2.5981    3.7500    0.0000 O   0  0  0  0  0  0  0  0  0  0  0  0
  3  1  1  0
  4  2  1  0
  5  3  1  0
  6  4  1  0
  7  5  1  0
  8  7  2  0
  9  6  1  0
  9  7  1  0
M  END
>  <NAME>  (3990) 
PROPYL BUTYRATE

>  <SYNONYMS>  (3990) 


>  <SPECTRUM TYPE>  (3990) 
MS1

>  <INSTRUMENT TYPE>  (3990) 
EI-B

>  <INSTRUMENT>  (3990) 
HITACHI M-80B

>  <ION MODE>  (3990) 
P

>  <INCHIKEY>  (3990) 
HUAZGNHGCJGYNP-UHFFFAOYSA-N

>  <FORMULA>  (3990) 
C7H14O2

>  <EXACT MASS>  (3990) 
130.099379688

>  <MW>  (3990) 
130

>  <ID>  (3990) 
JP006494

>  <CONTRIBUTOR>  (3990) 
University of Tokyo Team, {Faculty of Engineering, University of Tokyo

>  <COMMENT>  (3990) 
SMILES=CCCOC(=O)CCC
InChI=InChI=1S/C7H14O2/c1-3-5-7(8)9-6-4-2/h3-6H2,1-2H3
computed SMILES=O=C(OCCC)CCC
accession=JP006494
date=2016.01.19 (Created 2008.10.21, modified 2011.05.06)
author=HISAHIRO HAGIWARA, CHEMICAL RESEARCH INSTITUTE OF NON-AQUEOUSSOLUTIONS TOHOKU UNIV.
license=CC BY-NC-SA
exact mass=130.09938
ionization energy=70 eV
ion type=[M]+*
computed spectral entropy=2.5060989621092653
computed normalized entropy=0.7520843797121856
SPLASH=splash10-006x-9000000000-d427ef5d780cc2d54eac
submitter=submitter = University of Tokyo Team (Faculty of Engineering, University of Tokyo)
MoNA Rating=3.75

>  <NUM PEAKS>  (3990) 
28

>  <MASS SPECTRAL PEAKS>  (3990) 
15 3.15
26 2.65
27 41.14
28 5.91
29 12.43
30 1.06
31 5.39
38 1.3
39 16.81
40 2.14
41 37
42 24.81
43 99.99
44 3.16
45 1.97
55 2.4
57 1.51
59 6.06
60 14.18
61 8.61
71 92.33
72 3.75
73 9.07
88 3.09
89 47.71
90 1.79
101 3.22
102 2.76

$$$$

     RDKit          2D

  9  8  0  0  0  0  0  0  0  0999 V2000
    2.5981    3.7500    0.0000 C   0  0  0  0  0  0  0  0  0  0  0  0
   -6.4952    4.5000    0.0000 C   0  0  0  0  0  0  0  0  0  0  0  0
    1.2990    4.5000    0.0000 C   0  0  0  0  0  0  0  0  0  0  0  0
   -5.1962    3.7500    0.0000 C   0  0  0  0  0  0  0  0  0  0  0  0
    0.0000    3.7500    0.0000 C   0  0  0  0  0  0  0  0  0  0  0  0
   -3.8971    4.5000    0.0000 C   0  0  0  0  0  0  0  0  0  0  0  0
   -1.2990    4.5000    0.0000 C   0  0  0  0  0  0  0  0  0  0  0  0
   -1.2990    6.0000    0.0000 O   0  0  0  0  0  0  0  0  0  0  0  0
   -2.5981    3.7500    0.0000 O   0  0  0  0  0  0  0  0  0  0  0  0
  3  1  1  0
  4  2  2  0
  5  3  1  0
  6  4  1  0
  7  5  1  0
  8  7  2  0
  9  6  1  0
  9  7  1  0
M  END
>  <NAME>  (3991) 
ALLYL BUTYRATE

>  <SYNONYMS>  (3991) 


>  <SPECTRUM TYPE>  (3991) 
MS1

>  <INSTRUMENT TYPE>  (3991) 
EI-B

>  <INSTRUMENT>  (3991) 
HITACHI M-80B

>  <ION MODE>  (3991) 
P

>  <INCHIKEY>  (3991) 
RMZIOVJHUJAAEY-UHFFFAOYSA-N

>  <FORMULA>  (3991) 
C7H12O2

>  <EXACT MASS>  (3991) 
128.083729624

>  <MW>  (3991) 
128

>  <ID>  (3991) 
JP006493

>  <CONTRIBUTOR>  (3991) 
University of Tokyo Team, {Faculty of Engineering, University of Tokyo

>  <COMMENT>  (3991) 
SMILES=C=CCOC(=O)CCC
InChI=InChI=1S/C7H12O2/c1-3-5-7(8)9-6-4-2/h4H,2-3,5-6H2,1H3
computed SMILES=O=C(OCC=C)CCC
accession=JP006493
date=2016.01.19 (Created 2008.10.21, modified 2011.05.06)
author=HISAHIRO HAGIWARA, CHEMICAL RESEARCH INSTITUTE OF NON-AQUEOUSSOLUTIONS TOHOKU UNIV.
license=CC BY-NC-SA
exact mass=128.08373
ionization energy=70 eV
ion type=[M]+*
computed spectral entropy=2.1569977646422362
computed normalized entropy=0.6787165604448178
SPLASH=splash10-006x-9000000000-ee6807536ae28fb882aa
submitter=submitter = University of Tokyo Team (Faculty of Engineering, University of Tokyo)
MoNA Rating=3.75

>  <NUM PEAKS>  (3991) 
24

>  <MASS SPECTRAL PEAKS>  (3991) 
15 2.38
26 2.71
27 24.06
28 2.28
29 6.64
31 1.27
38 2.61
39 27.18
40 3.61
41 62.7
42 9.51
43 83.39
44 2.99
45 3.28
55 4.02
56 1.03
57 7.6
58 1.53
69 1.39
70 1.23
71 99.99
72 4.7
89 2.08
100 1.87

$$$$

     RDKit          2D

  8  7  0  0  0  0  0  0  0  0999 V2000
    1.9486    3.3750    0.0000 C   0  0  0  0  0  0  0  0  0  0  0  0
   -5.8457    3.3750    0.0000 C   0  0  0  0  0  0  0  0  0  0  0  0
    0.6495    4.1250    0.0000 C   0  0  0  0  0  0  0  0  0  0  0  0
   -4.5466    4.1250    0.0000 C   0  0  0  0  0  0  0  0  0  0  0  0
   -0.6495    3.3750    0.0000 C   0  0  0  0  0  0  0  0  0  0  0  0
   -1.9486    4.1250    0.0000 C   0  0  0  0  0  0  0  0  0  0  0  0
   -1.9486    5.6250    0.0000 O   0  0  0  0  0  0  0  0  0  0  0  0
   -3.2476    3.3750    0.0000 O   0  0  0  0  0  0  0  0  0  0  0  0
  3  1  1  0
  4  2  1  0
  5  3  1  0
  6  5  1  0
  7  6  2  0
  8  4  1  0
  8  6  1  0
M  END
>  <NAME>  (3992) 
ETHYL BUTYRATE

>  <SYNONYMS>  (3992) 


>  <SPECTRUM TYPE>  (3992) 
MS1

>  <INSTRUMENT TYPE>  (3992) 
EI-B

>  <INSTRUMENT>  (3992) 
HITACHI M-80B

>  <ION MODE>  (3992) 
P

>  <INCHIKEY>  (3992) 
OBNCKNCVKJNDBV-UHFFFAOYSA-N

>  <FORMULA>  (3992) 
C6H12O2

>  <EXACT MASS>  (3992) 
116.083729624

>  <MW>  (3992) 
116

>  <ID>  (3992) 
JP006492

>  <CONTRIBUTOR>  (3992) 
University of Tokyo Team, {Faculty of Engineering, University of Tokyo

>  <COMMENT>  (3992) 
SMILES=CCCC(=O)OCC
InChI=InChI=1S/C6H12O2/c1-3-5-6(7)8-4-2/h3-5H2,1-2H3
computed SMILES=O=C(OCC)CCC
accession=JP006492
date=2016.01.19 (Created 2008.10.21, modified 2011.05.06)
author=HISAHIRO HAGIWARA, CHEMICAL RESEARCH INSTITUTE OF NON-AQUEOUSSOLUTIONS TOHOKU UNIV.
license=CC BY-NC-SA
exact mass=116.08373
ionization energy=70 eV
ion type=[M]+*
computed spectral entropy=2.6777871937365774
computed normalized entropy=0.8036082976178981
SPLASH=splash10-0096-9000000000-8f2e75f476f548f5d68d
submitter=submitter = University of Tokyo Team (Faculty of Engineering, University of Tokyo)
MoNA Rating=3.75

>  <NUM PEAKS>  (3992) 
28

>  <MASS SPECTRAL PEAKS>  (3992) 
15 4.06
18 1.62
26 6.36
27 48.1
28 9.51
29 67.97
30 2.28
31 2.55
38 1.56
39 17.18
40 2.55
41 32.61
42 20.9
43 99.99
44 4.13
45 19
55 4.13
60 22.19
61 9.93
69 1.04
70 9.43
71 98.25
72 4.34
73 19.53
88 49.53
89 12.85
101 6.51
116 3.45

$$$$

     RDKit          2D

  7  6  0  0  0  0  0  0  0  0999 V2000
    1.9486    2.6250    0.0000 C   0  0  0  0  0  0  0  0  0  0  0  0
   -4.5466    3.3750    0.0000 C   0  0  0  0  0  0  0  0  0  0  0  0
    0.6495    3.3750    0.0000 C   0  0  0  0  0  0  0  0  0  0  0  0
   -0.6495    2.6250    0.0000 C   0  0  0  0  0  0  0  0  0  0  0  0
   -1.9486    3.3750    0.0000 C   0  0  0  0  0  0  0  0  0  0  0  0
   -1.9486    4.8750    0.0000 O   0  0  0  0  0  0  0  0  0  0  0  0
   -3.2476    2.6250    0.0000 O   0  0  0  0  0  0  0  0  0  0  0  0
  3  1  1  0
  4  3  1  0
  5  4  1  0
  6  5  2  0
  7  2  1  0
  7  5  1  0
M  END
>  <NAME>  (3993) 
METHYL BUTYRATE

>  <SYNONYMS>  (3993) 
BUTANOIC ACID METHYL ESTER

>  <SPECTRUM TYPE>  (3993) 
MS1

>  <INSTRUMENT TYPE>  (3993) 
EI-B

>  <INSTRUMENT>  (3993) 
HITACHI M-80B

>  <ION MODE>  (3993) 
P

>  <INCHIKEY>  (3993) 
UUIQMZJEGPQKFD-UHFFFAOYSA-N

>  <FORMULA>  (3993) 
C5H10O2

>  <EXACT MASS>  (3993) 
102.06807956

>  <MW>  (3993) 
102

>  <ID>  (3993) 
JP006491

>  <CONTRIBUTOR>  (3993) 
University of Tokyo Team, {Faculty of Engineering, University of Tokyo

>  <COMMENT>  (3993) 
SMILES=CCCC(=O)OC
InChI=InChI=1S/C5H10O2/c1-3-4-5(6)7-2/h3-4H2,1-2H3
computed SMILES=O=C(OC)CCC
accession=JP006491
date=2016.01.19 (Created 2008.10.21, modified 2011.05.06)
author=HISAHIRO HAGIWARA, CHEMICAL RESEARCH INSTITUTE OF NON-AQUEOUSSOLUTIONS TOHOKU UNIV.
license=CC BY-NC-SA
exact mass=102.06808
ionization energy=70 eV
ion type=[M]+*
computed spectral entropy=2.5871661458848156
computed normalized entropy=0.7849800372617767
SPLASH=splash10-006x-9000000000-baf5efad57ba73b6f451
submitter=submitter = University of Tokyo Team (Faculty of Engineering, University of Tokyo)
MoNA Rating=3.75

>  <NUM PEAKS>  (3993) 
27

>  <MASS SPECTRAL PEAKS>  (3993) 
14 1.29
15 24.88
26 4.63
27 35.15
28 6.87
29 11.99
30 1.43
31 5.04
33 1.12
37 1
38 2.75
39 21.02
40 3.1
41 38.17
42 17.85
43 99.99
44 4.88
45 4.84
55 9.89
59 26.13
69 1.4
71 59.31
72 2.67
74 77.62
75 2.83
87 20
102 1.5

$$$$

     RDKit          2D

 14 14  0  0  0  0  0  0  0  0999 V2000
    9.7887    0.2339    0.0000 C   0  0  0  0  0  0  0  0  0  0  0  0
    8.4874   -2.0148    0.0000 C   0  0  0  0  0  0  0  0  0  0  0  0
   -0.9371   -2.3053    0.0000 C   0  0  0  0  0  0  0  0  0  0  0  0
    0.5302   -1.9935    0.0000 C   0  0  0  0  0  0  0  0  0  0  0  0
    1.9945    0.2419    0.0000 C   0  0  0  0  0  0  0  0  0  0  0  0
    3.2927   -0.5094    0.0000 C   0  0  0  0  0  0  0  0  0  0  0  0
   -1.6822   -1.0120    0.0000 C   0  0  0  0  0  0  0  0  0  0  0  0
    7.1906    0.2366    0.0000 C   0  0  0  0  0  0  0  0  0  0  0  0
    8.4889   -0.5148    0.0000 C   0  0  0  0  0  0  0  0  0  0  0  0
    0.6947   -0.5068    0.0000 C   0  0  0  0  0  0  0  0  0  0  0  0
    4.5925    0.2392    0.0000 C   0  0  0  0  0  0  0  0  0  0  0  0
    4.5941    1.7392    0.0000 O   0  0  0  0  0  0  0  0  0  0  0  0
   -0.6816    0.1003    0.0000 O   0  0  0  0  0  0  0  0  0  0  0  0
    5.8908   -0.5121    0.0000 O   0  0  0  0  0  0  0  0  0  0  0  0
  4  3  1  0
  6  5  1  0
  7  3  2  0
  9  1  1  0
  9  2  1  0
  9  8  1  0
 10  4  2  0
 10  5  1  0
 11  6  1  0
 12 11  2  0
 13  7  1  0
 13 10  1  0
 14  8  1  0
 14 11  1  0
M  END
>  <NAME>  (3994) 
ISOBUTYL 3-(2-FURYL)PROPIONATE

>  <SYNONYMS>  (3994) 


>  <SPECTRUM TYPE>  (3994) 
MS1

>  <INSTRUMENT TYPE>  (3994) 
EI-B

>  <INSTRUMENT>  (3994) 
HITACHI M-80B

>  <ION MODE>  (3994) 
P

>  <INCHIKEY>  (3994) 
SVDPTFHRRNUNRS-UHFFFAOYSA-N

>  <FORMULA>  (3994) 
C11H16O3

>  <EXACT MASS>  (3994) 
196.10994437199997

>  <MW>  (3994) 
196

>  <ID>  (3994) 
JP006490

>  <CONTRIBUTOR>  (3994) 
University of Tokyo Team, {Faculty of Engineering, University of Tokyo

>  <COMMENT>  (3994) 
SMILES=CC(C)COC(=O)CCc(c1)occ1
InChI=InChI=1S/C11H16O3/c1-9(2)8-14-11(12)6-5-10-4-3-7-13-10/h3-4,7,9H,5-6,8H2,1-2H3
computed SMILES=O=C(OCC(C)C)CCC=1OC=CC1
accession=JP006490
date=2016.01.19 (Created 2008.10.21, modified 2011.05.06)
author=HISAHIRO HAGIWARA, CHEMICAL RESEARCH INSTITUTE OF NON-AQUEOUSSOLUTIONS TOHOKU UNIV.
license=CC BY-NC-SA
exact mass=196.10994
ionization energy=70 eV
ion type=[M]+*
computed spectral entropy=2.8347010123214242
computed normalized entropy=0.8107235469934216
SPLASH=splash10-000x-9200000000-69355688cd3cbf9c4c7a
submitter=submitter = University of Tokyo Team (Faculty of Engineering, University of Tokyo)
MoNA Rating=3.75

>  <NUM PEAKS>  (3994) 
33

>  <MASS SPECTRAL PEAKS>  (3994) 
27 14.18
28 2.77
29 15.09
38 1.89
39 16.64
40 2.8
41 28.94
42 2.59
43 6.93
51 2.17
52 1.86
53 12.01
55 3.04
56 1.21
57 30.88
58 1.25
63 1.08
65 6.44
66 4.39
67 5.79
68 2.58
81 99.99
82 6.08
94 41.25
95 12.02
97 17.62
123 18.89
124 1.41
139 9.54
140 31.69
141 2.79
196 14.18
197 1.51

$$$$

     RDKit          2D

 14 14  0  0  0  0  0  0  0  0999 V2000
   -7.4692    4.2571    0.0000 C   0  0  0  0  0  0  0  0  0  0  0  0
   -6.1702    3.5071    0.0000 C   0  0  0  0  0  0  0  0  0  0  0  0
    4.2221    2.0071    0.0000 C   0  0  0  0  0  0  0  0  0  0  0  0
    4.2226    3.5079    0.0000 C   0  0  0  0  0  0  0  0  0  0  0  0
    2.9226    1.2563    0.0000 C   0  0  0  0  0  0  0  0  0  0  0  0
    2.9236    4.2579    0.0000 C   0  0  0  0  0  0  0  0  0  0  0  0
    1.6236    2.0063    0.0000 C   0  0  0  0  0  0  0  0  0  0  0  0
    0.3250    4.2571    0.0000 C   0  0  0  0  0  0  0  0  0  0  0  0
   -0.9740    3.5071    0.0000 C   0  0  0  0  0  0  0  0  0  0  0  0
   -4.8712    4.2571    0.0000 C   0  0  0  0  0  0  0  0  0  0  0  0
    1.6240    3.5071    0.0000 C   0  0  0  0  0  0  0  0  0  0  0  0
   -2.2731    4.2571    0.0000 C   0  0  0  0  0  0  0  0  0  0  0  0
   -2.2731    5.7571    0.0000 O   0  0  0  0  0  0  0  0  0  0  0  0
   -3.5721    3.5071    0.0000 O   0  0  0  0  0  0  0  0  0  0  0  0
  2  1  2  0
  4  3  1  0
  5  3  1  0
  6  4  1  0
  7  5  1  0
  9  8  1  0
 10  2  1  0
 11  6  1  0
 11  7  1  0
 11  8  1  0
 12  9  1  0
 13 12  2  0
 14 10  1  0
 14 12  1  0
M  END
>  <NAME>  (3995) 
ALLYL 3-CYCLOHEXYLPROPIONATE

>  <SYNONYMS>  (3995) 


>  <SPECTRUM TYPE>  (3995) 
MS1

>  <INSTRUMENT TYPE>  (3995) 
EI-B

>  <INSTRUMENT>  (3995) 
HITACHI M-80B

>  <ION MODE>  (3995) 
P

>  <INCHIKEY>  (3995) 
TWXUTZNBHUWMKJ-UHFFFAOYSA-N

>  <FORMULA>  (3995) 
C12H20O2

>  <EXACT MASS>  (3995) 
196.14632988

>  <MW>  (3995) 
196

>  <ID>  (3995) 
JP006489

>  <CONTRIBUTOR>  (3995) 
University of Tokyo Team, {Faculty of Engineering, University of Tokyo

>  <COMMENT>  (3995) 
SMILES=C=CCOC(=O)CCC(C1)CCCC1
InChI=InChI=1S/C12H20O2/c1-2-10-14-12(13)9-8-11-6-4-3-5-7-11/h2,11H,1,3-10H2
computed SMILES=O=C(OCC=C)CCC1CCCCC1
accession=JP006489
date=2016.01.19 (Created 2008.10.21, modified 2011.05.06)
author=HISAHIRO HAGIWARA, CHEMICAL RESEARCH INSTITUTE OF NON-AQUEOUSSOLUTIONS TOHOKU UNIV.
license=CC BY-NC-SA
exact mass=196.14633
ionization energy=70 eV
ion type=[M]+*
computed spectral entropy=3.429560148727688
computed normalized entropy=0.834265477862665
SPLASH=splash10-052g-9200000000-fdd005bfa4f1e00b0547
submitter=submitter = University of Tokyo Team (Faculty of Engineering, University of Tokyo)
MoNA Rating=3.75

>  <NUM PEAKS>  (3995) 
61

>  <MASS SPECTRAL PEAKS>  (3995) 
15 1.28
26 1.29
27 16.73
28 3.92
29 18.61
31 1.09
38 1.08
39 35.43
40 4.64
41 99.99
42 8.75
43 15.23
45 1.35
51 1.47
53 9.14
54 16.73
55 81.68
56 14.06
57 12.17
58 6.6
60 3.24
65 1.86
66 1.14
67 25.11
68 4.95
69 21.92
70 1.42
71 4.8
73 1.82
77 2.04
79 7.92
80 1.48
81 13.09
82 5.3
83 14.72
85 2.17
91 3.32
93 14.69
94 4.87
95 62
96 16.47
97 29.61
98 2.12
99 2.65
100 38.9
101 11.09
109 13.34
110 1.88
111 1.06
113 34.44
114 2.3
119 13.38
120 1.54
121 31.22
122 2.19
137 14.17
138 3.13
139 15.5
140 1.31
155 1.53
167 3.32

$$$$

     RDKit          2D

 18 17  0  0  0  0  0  0  0  0999 V2000
    3.2476    5.6250    0.0000 C   0  0  0  0  0  0  0  0  0  0  0  0
   -9.7428    5.6250    0.0000 C   0  0  0  0  0  0  0  0  0  0  0  0
   -5.8457   10.8750    0.0000 C   0  0  0  0  0  0  0  0  0  0  0  0
    1.9486    6.3750    0.0000 C   0  0  0  0  0  0  0  0  0  0  0  0
   -8.4437    6.3750    0.0000 C   0  0  0  0  0  0  0  0  0  0  0  0
   -4.5466   10.1250    0.0000 C   0  0  0  0  0  0  0  0  0  0  0  0
   -1.9486    5.6250    0.0000 C   0  0  0  0  0  0  0  0  0  0  0  0
   -4.5466    5.6250    0.0000 C   0  0  0  0  0  0  0  0  0  0  0  0
   -3.2476    6.3750    0.0000 C   0  0  0  0  0  0  0  0  0  0  0  0
    0.6495    5.6250    0.0000 C   0  0  0  0  0  0  0  0  0  0  0  0
   -7.1447    5.6250    0.0000 C   0  0  0  0  0  0  0  0  0  0  0  0
   -4.5466    8.6250    0.0000 C   0  0  0  0  0  0  0  0  0  0  0  0
    0.6495    4.1250    0.0000 O   0  0  0  0  0  0  0  0  0  0  0  0
   -7.1447    4.1250    0.0000 O   0  0  0  0  0  0  0  0  0  0  0  0
   -5.8457    7.8750    0.0000 O   0  0  0  0  0  0  0  0  0  0  0  0
   -0.6495    6.3750    0.0000 O   0  0  0  0  0  0  0  0  0  0  0  0
   -5.8457    6.3750    0.0000 O   0  0  0  0  0  0  0  0  0  0  0  0
   -3.2476    7.8750    0.0000 O   0  0  0  0  0  0  0  0  0  0  0  0
  4  1  1  0
  5  2  1  0
  6  3  1  0
  9  7  1  0
  9  8  1  0
 10  4  1  0
 11  5  1  0
 12  6  1  0
 13 10  2  0
 14 11  2  0
 15 12  2  0
 16  7  1  0
 16 10  1  0
 17  8  1  0
 17 11  1  0
 18  9  1  0
 18 12  1  0
M  END
>  <NAME>  (3996) 
GLYCEROL TRIPROPIONATE

>  <SYNONYMS>  (3996) 


>  <SPECTRUM TYPE>  (3996) 
MS1

>  <INSTRUMENT TYPE>  (3996) 
EI-B

>  <INSTRUMENT>  (3996) 
HITACHI M-80B

>  <ION MODE>  (3996) 
P

>  <INCHIKEY>  (3996) 
YZWRNSARCRTXDS-UHFFFAOYSA-N

>  <FORMULA>  (3996) 
C12H20O6

>  <EXACT MASS>  (3996) 
260.12598835999995

>  <MW>  (3996) 
260

>  <ID>  (3996) 
JP006488

>  <CONTRIBUTOR>  (3996) 
University of Tokyo Team, {Faculty of Engineering, University of Tokyo

>  <COMMENT>  (3996) 
SMILES=CCC(=O)OCC(COC(=O)CC)OC(=O)CC
InChI=InChI=1S/C12H20O6/c1-4-10(13)16-7-9(18-12(15)6-3)8-17-11(14)5-2/h9H,4-8H2,1-3H3
computed SMILES=O=C(OCC(OC(=O)CC)COC(=O)CC)CC
accession=JP006488
date=2016.01.19 (Created 2008.10.21, modified 2011.05.06)
author=HISAHIRO HAGIWARA, CHEMICAL RESEARCH INSTITUTE OF NON-AQUEOUSSOLUTIONS TOHOKU UNIV.
license=CC BY-NC-SA
exact mass=260.12599
ionization energy=70 eV
ion type=[M]+*
computed spectral entropy=1.1009347202204087
computed normalized entropy=0.5010569841500292
SPLASH=splash10-0a4i-9000000000-395760d45c9442f98c2e
submitter=submitter = University of Tokyo Team (Faculty of Engineering, University of Tokyo)
MoNA Rating=3.75

>  <NUM PEAKS>  (3996) 
9

>  <MASS SPECTRAL PEAKS>  (3996) 
27 6.71
28 2.65
29 28.41
56 1.4
57 99.99
58 3.37
129 1.81
130 1.02
173 3.53

$$$$

     RDKit          2D

 14 14  0  0  0  0  0  0  0  0999 V2000
   -7.4692    4.2571    0.0000 C   0  0  0  0  0  0  0  0  0  0  0  0
   -6.1702    3.5071    0.0000 C   0  0  0  0  0  0  0  0  0  0  0  0
    4.2221    2.0071    0.0000 C   0  0  0  0  0  0  0  0  0  0  0  0
    4.2226    3.5079    0.0000 C   0  0  0  0  0  0  0  0  0  0  0  0
    2.9226    1.2563    0.0000 C   0  0  0  0  0  0  0  0  0  0  0  0
   -0.9740    3.5071    0.0000 C   0  0  0  0  0  0  0  0  0  0  0  0
    2.9236    4.2579    0.0000 C   0  0  0  0  0  0  0  0  0  0  0  0
    1.6236    2.0063    0.0000 C   0  0  0  0  0  0  0  0  0  0  0  0
    0.3250    4.2571    0.0000 C   0  0  0  0  0  0  0  0  0  0  0  0
   -2.2731    4.2571    0.0000 C   0  0  0  0  0  0  0  0  0  0  0  0
    1.6240    3.5071    0.0000 C   0  0  0  0  0  0  0  0  0  0  0  0
   -4.8712    4.2571    0.0000 C   0  0  0  0  0  0  0  0  0  0  0  0
   -4.8712    5.7571    0.0000 O   0  0  0  0  0  0  0  0  0  0  0  0
   -3.5721    3.5071    0.0000 O   0  0  0  0  0  0  0  0  0  0  0  0
  2  1  1  0
  4  3  2  0
  5  3  1  0
  7  4  1  0
  8  5  2  0
  6  9  2  0
 10  6  1  0
 11  7  2  0
 11  8  1  0
 11  9  1  0
 12  2  1  0
 13 12  2  0
 14 10  1  0
 14 12  1  0
M  END
>  <NAME>  (3997) 
CINNAMYL PROPIONATE

>  <SYNONYMS>  (3997) 
3-PHENYLALLYL PROPIONATE

>  <SPECTRUM TYPE>  (3997) 
MS1

>  <INSTRUMENT TYPE>  (3997) 
EI-B

>  <INSTRUMENT>  (3997) 
HITACHI M-80B

>  <ION MODE>  (3997) 
P

>  <INCHIKEY>  (3997) 
KGDJMNKPBUNHGY-RMKNXTFCSA-N

>  <FORMULA>  (3997) 
C12H14O2

>  <EXACT MASS>  (3997) 
190.099379688

>  <MW>  (3997) 
190

>  <ID>  (3997) 
JP006487

>  <CONTRIBUTOR>  (3997) 
University of Tokyo Team, {Faculty of Engineering, University of Tokyo

>  <COMMENT>  (3997) 
SMILES=CCC(=O)OCC=Cc(c1)cccc1
InChI=InChI=1S/C12H14O2/c1-2-12(13)14-10-6-9-11-7-4-3-5-8-11/h3-9H,2,10H2,1H3/b9-6+
computed SMILES=O=C(OCC=CC=1C=CC=CC1)CC
accession=JP006487
date=2016.01.19 (Created 2008.10.21, modified 2011.05.06)
author=HISAHIRO HAGIWARA, CHEMICAL RESEARCH INSTITUTE OF NON-AQUEOUSSOLUTIONS TOHOKU UNIV.
license=CC BY-NC-SA
exact mass=190.09938
ionization energy=70 eV
ion type=[M]+*
computed spectral entropy=2.727407706686388
computed normalized entropy=0.76712818534673
SPLASH=splash10-0aor-9500000000-3f85fb99d177d7222e46
submitter=submitter = University of Tokyo Team (Faculty of Engineering, University of Tokyo)
MoNA Rating=3.75

>  <NUM PEAKS>  (3997) 
35

>  <MASS SPECTRAL PEAKS>  (3997) 
26 1.37
27 9.45
28 1.69
29 33.48
39 6
50 1.99
51 7.09
52 1.3
55 1.62
57 99.99
58 2.84
62 1.04
63 3.47
65 2.54
75 1.22
76 1.26
77 9.4
78 3.95
79 2.47
89 2.2
91 10.68
92 5.55
102 2.4
103 5.03
104 1.32
105 8.93
115 35.96
116 18.64
117 25.9
118 2.24
131 1.3
133 13.73
134 9.91
190 11.05
191 1.29

$$$$

     RDKit          2D

 19 18  0  0  0  0  0  0  0  0999 V2000
    2.6325    4.7804    0.0000 C   0  0  0  0  0  0  0  0  0  0  0  0
  -11.5002    6.4190    0.0000 C   0  0  0  0  0  0  0  0  0  0  0  0
  -10.2012    4.1690    0.0000 C   0  0  0  0  0  0  0  0  0  0  0  0
   -5.0050    4.1690    0.0000 C   0  0  0  0  0  0  0  0  0  0  0  0
    2.7892    8.6690    0.0000 C   0  0  0  0  0  0  0  0  0  0  0  0
   -0.7731    4.5199    0.0000 C   0  0  0  0  0  0  0  0  0  0  0  0
    1.1553    4.5199    0.0000 C   0  0  0  0  0  0  0  0  0  0  0  0
   -7.6031    5.6690    0.0000 C   0  0  0  0  0  0  0  0  0  0  0  0
   -2.4069    5.6690    0.0000 C   0  0  0  0  0  0  0  0  0  0  0  0
   -8.9021    6.4190    0.0000 C   0  0  0  0  0  0  0  0  0  0  0  0
   -6.3041    6.4190    0.0000 C   0  0  0  0  0  0  0  0  0  0  0  0
   -3.7060    6.4190    0.0000 C   0  0  0  0  0  0  0  0  0  0  0  0
   -1.1079    6.4190    0.0000 C   0  0  0  0  0  0  0  0  0  0  0  0
  -10.2012    5.6690    0.0000 C   0  0  0  0  0  0  0  0  0  0  0  0
   -5.0050    5.6690    0.0000 C   0  0  0  0  0  0  0  0  0  0  0  0
    1.4902    7.9190    0.0000 C   0  0  0  0  0  0  0  0  0  0  0  0
    0.1911    5.6690    0.0000 C   0  0  0  0  0  0  0  0  0  0  0  0
    0.1911    8.6690    0.0000 O   0  0  0  0  0  0  0  0  0  0  0  0
    1.4902    6.4190    0.0000 O   0  0  0  0  0  0  0  0  0  0  0  0
  7  1  2  0
 10  8  1  0
 11  8  1  0
 12  9  1  0
 13  9  1  0
 14  2  1  0
 14  3  1  0
 14 10  2  0
 15  4  1  0
 15 11  1  0
 12 15  2  0
 16  5  1  0
 17  6  1  0
 17  7  1  0
 17 13  1  0
 18 16  2  0
 19 16  1  0
 19 17  1  0
M  END
>  <NAME>  (3998) 
TRANS-NEROLIDYL ACETATE

>  <SYNONYMS>  (3998) 
1,5,9-TRIMETHYL-1-VINYL-(4E)-4,8-DECADIENYL ACETATE

>  <SPECTRUM TYPE>  (3998) 
MS1

>  <INSTRUMENT TYPE>  (3998) 
EI-B

>  <INSTRUMENT>  (3998) 
HITACHI M-80B

>  <ION MODE>  (3998) 
P

>  <INCHIKEY>  (3998) 
PRNJXUQTUSFYLV-NTCAYCPXSA-N

>  <FORMULA>  (3998) 
C17H28O2

>  <EXACT MASS>  (3998) 
264.208930136

>  <MW>  (3998) 
264

>  <ID>  (3998) 
JP006486

>  <CONTRIBUTOR>  (3998) 
University of Tokyo Team, {Faculty of Engineering, University of Tokyo

>  <COMMENT>  (3998) 
SMILES=CC(C)=CCCC(C)=C([H])CCC(C)(C=C)OC(C)=O
InChI=InChI=1S/C17H28O2/c1-7-17(6,19-16(5)18)13-9-12-15(4)11-8-10-14(2)3/h7,10,12H,1,8-9,11,13H2,2-6H3/b15-12+
computed SMILES=O=C(OC(C=C)(C)CCC=C(C)CCC=C(C)C)C
accession=JP006486
date=2016.01.19 (Created 2008.10.21, modified 2011.05.06)
author=HISAHIRO HAGIWARA, CHEMICAL RESEARCH INSTITUTE OF NON-AQUEOUSSOLUTIONS TOHOKU UNIV.
license=CC BY-NC-SA
exact mass=264.20893
ionization energy=70 eV
ion type=[M]+*
computed spectral entropy=3.3961141383023623
computed normalized entropy=0.7967086988149746
SPLASH=splash10-0006-9200000000-3c55622886c673b1448f
submitter=submitter = University of Tokyo Team (Faculty of Engineering, University of Tokyo)
MoNA Rating=3.75

>  <NUM PEAKS>  (3998) 
71

>  <MASS SPECTRAL PEAKS>  (3998) 
15 1.89
27 6.6
29 5.81
39 7.46
40 1.03
41 64.64
42 4.47
43 82.21
44 1.31
45 2.15
51 1.47
52 1.45
53 12.89
54 2
55 32.13
56 3.44
57 2.36
65 3.13
66 1.79
67 20.24
68 16.96
69 99.99
70 6.31
71 12.85
72 1.58
77 6.29
78 2
79 21.69
80 36.76
81 23.29
82 4.12
83 1.09
84 1.21
85 1.81
91 12.07
92 5.04
93 94.89
94 8.86
95 6.93
96 1.38
97 1.93
105 9.15
106 2.73
107 42.6
108 5.11
109 6.86
111 1.48
113 2.48
115 1.27
119 12.37
120 4.2
121 8.88
122 3.44
123 15.84
124 3.46
125 1
133 4.98
134 3.05
135 13.58
136 6.43
137 2.69
147 3.8
148 2.3
149 2
153 1.29
161 7.24
162 1.42
189 4.09
195 4.12
204 4.37
205 1.09

$$$$

     RDKit          2D

 19 18  0  0  1  0  0  0  0  0999 V2000
   -5.6473   13.0586    0.0000 C   0  0  0  0  0  0  0  0  0  0  0  0
    3.8971    6.7500    0.0000 C   0  0  0  0  0  0  0  0  0  0  0  0
    2.5981    4.5000    0.0000 C   0  0  0  0  0  0  0  0  0  0  0  0
   -2.5981    4.5000    0.0000 C   0  0  0  0  0  0  0  0  0  0  0  0
   -9.0933   11.2500    0.0000 C   0  0  0  0  0  0  0  0  0  0  0  0
   -3.7189   10.2395    0.0000 C   0  0  0  0  0  0  0  0  0  0  0  0
   -4.6831   11.9095    0.0000 C   0  0  0  0  0  0  0  0  0  0  0  0
    0.0000    6.0000    0.0000 C   0  0  0  0  0  0  0  0  0  0  0  0
   -3.8971    8.2500    0.0000 C   0  0  0  0  0  0  0  0  0  0  0  0
    1.2990    6.7500    0.0000 C   0  0  0  0  0  0  0  0  0  0  0  0
   -1.2990    6.7500    0.0000 C   0  0  0  0  0  0  0  0  0  0  0  0
   -3.8971    6.7500    0.0000 C   0  0  0  0  0  0  0  0  0  0  0  0
   -5.1962    9.0000    0.0000 C   0  0  0  0  0  0  0  0  0  0  0  0
    2.5981    6.0000    0.0000 C   0  0  0  0  0  0  0  0  0  0  0  0
   -2.5981    6.0000    0.0000 C   0  0  0  0  0  0  0  0  0  0  0  0
   -7.7942   10.5000    0.0000 C   0  0  0  0  0  0  0  0  0  0  0  0
   -5.1962   10.5000    0.0000 C   0  0  0  0  0  0  0  0  0  0  0  0
   -7.7942    9.0000    0.0000 O   0  0  0  0  0  0  0  0  0  0  0  0
   -6.4952   11.2500    0.0000 O   0  0  0  0  0  0  0  0  0  0  0  0
  7  1  2  0
 10  8  1  0
 11  8  1  0
 12  9  1  0
 13  9  1  0
 14  2  1  0
 14  3  1  0
 14 10  2  0
 15  4  1  0
 15 11  1  0
 12 15  2  0
 16  5  1  0
 17  6  1  6
 17  7  1  0
 17 13  1  0
 18 16  2  0
 19 16  1  0
 19 17  1  0
M  END
>  <NAME>  (3999) 
CIS-NEROLIDYL ACETATE

>  <SYNONYMS>  (3999) 
1,5,9-TRIMETHYL-1-VINYL-(4Z)-4,8-DECADIENYL ACETATE

>  <SPECTRUM TYPE>  (3999) 
MS1

>  <INSTRUMENT TYPE>  (3999) 
EI-B

>  <INSTRUMENT>  (3999) 
HITACHI M-80B

>  <ION MODE>  (3999) 
P

>  <INCHIKEY>  (3999) 
PRNJXUQTUSFYLV-KSVUCXBSSA-N

>  <FORMULA>  (3999) 
C17H28O2

>  <EXACT MASS>  (3999) 
264.208930136

>  <MW>  (3999) 
264

>  <ID>  (3999) 
JP006485

>  <CONTRIBUTOR>  (3999) 
University of Tokyo Team, {Faculty of Engineering, University of Tokyo

>  <COMMENT>  (3999) 
SMILES=CC(C)=CCCC(C)=C([H])CCC(C)(C=C)OC(C)=O
InChI=InChI=1S/C17H28O2/c1-7-17(6,19-16(5)18)13-9-12-15(4)11-8-10-14(2)3/h7,10,12H,1,8-9,11,13H2,2-6H3/b15-12-/t17-/m0/s1
computed SMILES=O=C(OC(C=C)(C)CCC=C(C)CCC=C(C)C)C
accession=JP006485
date=2016.01.19 (Created 2008.10.21, modified 2011.05.06)
author=HISAHIRO HAGIWARA, CHEMICAL RESEARCH INSTITUTE OF NON-AQUEOUSSOLUTIONS TOHOKU UNIV.
license=CC BY-NC-SA
exact mass=264.20893
ionization energy=70 eV
ion type=[M]+*
computed spectral entropy=3.501018387279364
computed normalized entropy=0.832645499728937
SPLASH=splash10-00kf-9300000000-55a2be2a693af28ae3ef
submitter=submitter = University of Tokyo Team (Faculty of Engineering, University of Tokyo)
MoNA Rating=3.75

>  <NUM PEAKS>  (3999) 
67

>  <MASS SPECTRAL PEAKS>  (3999) 
15 1.33
19 1.32
27 7.15
29 7.31
39 8.73
41 65.23
42 4.79
43 75.62
44 1.12
52 1.76
53 11.25
55 25.68
56 3.13
57 2
65 3.9
66 2.75
67 21.7
68 20.78
69 99.99
70 6.34
71 14.62
77 8.52
78 2.39
79 18.97
80 26.12
81 22.87
82 5.34
83 1.93
84 1.81
91 10.57
92 7.89
93 80.32
94 10.2
95 7.68
96 1.39
97 3.17
105 10.94
106 3.8
107 34.17
108 6.76
109 6.49
110 1.33
111 2.36
113 1.71
117 1.23
119 13.57
120 4.83
121 15.35
122 4.75
123 8.3
124 3.16
133 9.19
134 7.73
135 12.76
136 13.71
137 2.56
147 4.85
148 4.56
149 3.14
153 1.82
161 10.45
162 3.14
189 5.68
190 1.31
195 4.28
204 7.34
205 1.67

$$$$

     RDKit          2D

 19 21  0  0  1  0  0  0  0  0999 V2000
   -2.5621    2.6271    0.0000 C   0  0  0  0  0  0  0  0  0  0  0  0
    6.3518    1.3024    0.0000 C   0  0  0  0  0  0  0  0  0  0  0  0
   -0.6698   -2.6389    0.0000 C   0  0  0  0  0  0  0  0  0  0  0  0
    1.1515   -3.0511    0.0000 C   0  0  0  0  0  0  0  0  0  0  0  0
    3.7828   -0.9552    0.0000 C   0  0  0  0  0  0  0  0  0  0  0  0
   -2.9800   -0.0200    0.0000 C   0  0  0  0  0  0  0  0  0  0  0  0
   -2.1000   -1.2300    0.0000 C   0  0  0  0  0  0  0  0  0  0  0  0
    1.9600    1.3300    0.0000 C   0  0  0  0  0  0  0  0  0  0  0  0
    0.5000    1.6700    0.0000 C   0  0  0  0  0  0  0  0  0  0  0  0
    1.0200    0.1600    0.0000 C   0  0  0  0  0  0  0  0  0  0  0  0
   -2.1000    1.2000    0.0000 C   0  0  0  0  0  0  0  0  0  0  0  0
    5.1791    0.3672    0.0000 C   0  0  0  0  0  0  0  0  0  0  0  0
   -0.6800   -0.7700    0.0000 C   0  0  0  0  0  0  0  0  0  0  0  0
    1.9600   -1.3700    0.0000 C   0  0  0  0  0  0  0  0  0  0  0  0
    0.5000   -1.7000    0.0000 C   0  0  0  0  0  0  0  0  0  0  0  0
    2.6100   -0.0200    0.0000 C   0  0  0  0  0  0  0  0  0  0  0  0
   -0.6800    0.7300    0.0000 C   0  0  0  0  0  0  0  0  0  0  0  0
    5.4026   -1.1161    0.0000 O   0  0  0  0  0  0  0  0  0  0  0  0
    3.7828    0.9152    0.0000 O   0  0  0  0  0  0  0  0  0  0  0  0
  7  6  1  0
  9  8  1  0
 11  1  1  1
 11  6  1  0
 12  2  1  0
 13  7  1  6
 14 10  1  0
 15  3  1  0
 15  4  1  0
 15 13  1  0
 14 15  1  1
 16  5  1  6
 16  8  1  0
 16 14  1  0
 17  9  1  0
 17 10  1  0
 17 11  1  0
 17 13  1  0
 18 12  2  0
 19 12  1  0
 16 19  1  0
M  END
>  <NAME>  (4000) 
CEDRYL ACETATE

>  <SYNONYMS>  (4000) 


>  <SPECTRUM TYPE>  (4000) 
MS1

>  <INSTRUMENT TYPE>  (4000) 
EI-B

>  <INSTRUMENT>  (4000) 
HITACHI M-80B

>  <ION MODE>  (4000) 
P

>  <INCHIKEY>  (4000) 
HQKQRXZEXPXXIG-WRHXGLHUSA-N

>  <FORMULA>  (4000) 
C17H28O2

>  <EXACT MASS>  (4000) 
264.208930136

>  <MW>  (4000) 
264

>  <ID>  (4000) 
JP006484

>  <CONTRIBUTOR>  (4000) 
University of Tokyo Team, {Faculty of Engineering, University of Tokyo

>  <COMMENT>  (4000) 
SMILES=CC(=O)OC(C)(C3)C([H])(C1)C(C)(C)C([H])(C2)C(C3)(C([H])(C)C2)1
InChI=InChI=1S/C17H28O2/c1-11-6-7-13-15(3,4)14-10-17(11,13)9-8-16(14,5)19-12(2)18/h11,13-14H,6-10H2,1-5H3/t11-,13+,14-,16-,17?/m1/s1
computed SMILES=O=C(OC1(C)CCC23CC1C(C)(C)C3CCC2C)C
accession=JP006484
date=2016.01.19 (Created 2008.10.21, modified 2011.05.06)
author=HISAHIRO HAGIWARA, CHEMICAL RESEARCH INSTITUTE OF NON-AQUEOUSSOLUTIONS TOHOKU UNIV.
license=CC BY-NC-SA
exact mass=264.20893
ionization energy=70 eV
ion type=[M]+*
computed spectral entropy=3.793558760134247
computed normalized entropy=0.8472801840297449
SPLASH=splash10-0fr6-8920000000-35337f7194d7f5f2aaa4
submitter=submitter = University of Tokyo Team (Faculty of Engineering, University of Tokyo)
MoNA Rating=3.75

>  <NUM PEAKS>  (4000) 
88

>  <MASS SPECTRAL PEAKS>  (4000) 
15 2.31
27 3.51
29 5.99
39 5.08
40 1.28
41 34.64
42 2.91
43 92.48
44 1.8
45 1.22
51 1.16
53 7.14
54 1
55 20.71
56 3.22
57 3.43
59 2.35
61 1.61
65 3.56
66 1.27
67 15.13
68 2.57
69 26.03
70 2.23
71 5.08
72 1.35
77 8.95
78 2.41
79 17.14
80 3.34
81 21.46
82 6.57
83 4.56
84 1.38
91 17.34
92 5.71
93 28.93
94 9.06
95 30.14
96 5.54
97 2.95
99 2.68
101 1.05
103 1.09
105 24.6
106 6.74
107 23.5
108 8.38
109 16.65
110 2.57
111 2.04
115 1.07
117 1.65
118 1.28
119 52.78
120 11.47
121 26.88
122 10.83
123 4.9
124 1.07
131 1.49
133 14.28
134 8.86
135 13.58
136 4.94
137 2.47
138 1.13
145 1.17
146 1.54
147 18.08
148 13.71
149 13.09
150 4.27
151 8.45
152 1.46
161 32.76
162 15.13
163 3.95
175 43.17
176 15.39
177 2.33
189 17.88
190 2.5
204 99.99
205 18.89
206 1.72
207 4.97
222 1.57

$$$$

     RDKit          2D

 14 14  0  0  0  0  0  0  0  0999 V2000
   -1.5890   -3.5800    0.0000 C   0  0  0  0  0  0  0  0  0  0  0  0
    1.0090   -3.5800    0.0000 C   0  0  0  0  0  0  0  0  0  0  0  0
   -0.2900    3.1700    0.0000 C   0  0  0  0  0  0  0  0  0  0  0  0
    4.9070   -1.3306    0.0000 C   0  0  0  0  0  0  0  0  0  0  0  0
   -1.5900    0.9200    0.0000 C   0  0  0  0  0  0  0  0  0  0  0  0
   -1.5900   -0.5800    0.0000 C   0  0  0  0  0  0  0  0  0  0  0  0
    1.0100    0.9200    0.0000 C   0  0  0  0  0  0  0  0  0  0  0  0
   -0.2900   -2.8300    0.0000 C   0  0  0  0  0  0  0  0  0  0  0  0
   -0.2900    1.6700    0.0000 C   0  0  0  0  0  0  0  0  0  0  0  0
    3.6081   -0.5804    0.0000 C   0  0  0  0  0  0  0  0  0  0  0  0
   -0.2900   -1.3300    0.0000 C   0  0  0  0  0  0  0  0  0  0  0  0
    1.0100   -0.5800    0.0000 C   0  0  0  0  0  0  0  0  0  0  0  0
    3.6083    0.9196    0.0000 O   0  0  0  0  0  0  0  0  0  0  0  0
    2.3089   -1.3302    0.0000 O   0  0  0  0  0  0  0  0  0  0  0  0
  6  5  1  0
  8  1  1  0
  8  2  1  0
  9  3  1  0
  9  5  1  0
  9  7  1  0
 10  4  1  0
 11  6  1  0
 11  8  1  0
 12  7  1  0
 12 11  1  0
 13 10  2  0
 14 10  1  0
 14 12  1  0
M  END
>  <NAME>  (4001) 
MENTHYL ACETATE

>  <SYNONYMS>  (4001) 
2-ISOPROPYL-5-METHYLCYCLOHEXYL ACETATE

>  <SPECTRUM TYPE>  (4001) 
MS1

>  <INSTRUMENT TYPE>  (4001) 
EI-B

>  <INSTRUMENT>  (4001) 
HITACHI M-80B

>  <ION MODE>  (4001) 
P

>  <INCHIKEY>  (4001) 
XHXUANMFYXWVNG-UHFFFAOYSA-N

>  <FORMULA>  (4001) 
C12H22O2

>  <EXACT MASS>  (4001) 
198.161979944

>  <MW>  (4001) 
198

>  <ID>  (4001) 
JP006483

>  <CONTRIBUTOR>  (4001) 
University of Tokyo Team, {Faculty of Engineering, University of Tokyo

>  <COMMENT>  (4001) 
SMILES=CC(=O)OC(C1)C(CCC(C)1)C(C)C
InChI=InChI=1S/C12H22O2/c1-8(2)11-6-5-9(3)7-12(11)14-10(4)13/h8-9,11-12H,5-7H2,1-4H3
computed SMILES=O=C(OC1CC(C)CCC1C(C)C)C
accession=JP006483
date=2016.01.19 (Created 2008.10.21, modified 2011.05.06)
author=HISAHIRO HAGIWARA, CHEMICAL RESEARCH INSTITUTE OF NON-AQUEOUSSOLUTIONS TOHOKU UNIV.
license=CC BY-NC-SA
exact mass=198.16198
ionization energy=70 eV
ion type=[M]+*
computed spectral entropy=3.0603995781584143
computed normalized entropy=0.7783660477430409
SPLASH=splash10-000y-9200000000-ac3e4875859b716d22de
submitter=submitter = University of Tokyo Team (Faculty of Engineering, University of Tokyo)
MoNA Rating=3.75

>  <NUM PEAKS>  (4001) 
51

>  <MASS SPECTRAL PEAKS>  (4001) 
15 1.96
27 6.89
28 1
29 6.6
39 6.67
40 1.48
41 29.48
42 3.55
43 99.99
44 2.47
45 1.01
53 4.74
54 3.38
55 27.05
56 4.86
57 8.24
58 1.19
61 2.13
65 1.38
67 18.23
68 7.35
69 19.73
70 3.16
71 16.67
77 2.27
79 4.17
80 5.83
81 59.02
82 27.43
83 9.75
84 1.41
85 3.73
86 1.09
91 1.19
93 1.62
94 7.98
95 99.19
96 23.76
97 3.33
99 1.38
109 7.42
110 4.54
111 1.28
112 1.07
113 3.7
123 34.88
124 2.81
137 1.59
138 57.13
139 5.73
141 1.68

$$$$

     RDKit          2D

 14 13  0  0  0  0  0  0  0  0999 V2000
   -8.7685    6.1875    0.0000 C   0  0  0  0  0  0  0  0  0  0  0  0
   -7.4695    3.9375    0.0000 C   0  0  0  0  0  0  0  0  0  0  0  0
   -2.2733    3.9375    0.0000 C   0  0  0  0  0  0  0  0  0  0  0  0
    4.2219    6.1875    0.0000 C   0  0  0  0  0  0  0  0  0  0  0  0
   -4.8714    5.4375    0.0000 C   0  0  0  0  0  0  0  0  0  0  0  0
   -6.1704    6.1875    0.0000 C   0  0  0  0  0  0  0  0  0  0  0  0
   -3.5724    6.1875    0.0000 C   0  0  0  0  0  0  0  0  0  0  0  0
   -0.9743    6.1875    0.0000 C   0  0  0  0  0  0  0  0  0  0  0  0
    0.3248    5.4375    0.0000 C   0  0  0  0  0  0  0  0  0  0  0  0
   -7.4695    5.4375    0.0000 C   0  0  0  0  0  0  0  0  0  0  0  0
   -2.2733    5.4375    0.0000 C   0  0  0  0  0  0  0  0  0  0  0  0
    2.9228    5.4375    0.0000 C   0  0  0  0  0  0  0  0  0  0  0  0
    2.9228    3.9375    0.0000 O   0  0  0  0  0  0  0  0  0  0  0  0
    1.6238    6.1875    0.0000 O   0  0  0  0  0  0  0  0  0  0  0  0
  6  5  1  0
  7  5  1  0
  9  8  1  0
 10  1  1  0
 10  2  1  0
 10  6  2  0
 11  3  1  0
 11  7  1  0
 11  8  1  0
 12  4  1  0
 13 12  2  0
 14  9  1  0
 14 12  1  0
M  END
>  <NAME>  (4002) 
CITRONELLYL ACETATE

>  <SYNONYMS>  (4002) 
3,7-DIMETHYL-6-OCTENYL ACETATE

>  <SPECTRUM TYPE>  (4002) 
MS1

>  <INSTRUMENT TYPE>  (4002) 
EI-B

>  <INSTRUMENT>  (4002) 
HITACHI M-80B

>  <ION MODE>  (4002) 
P

>  <INCHIKEY>  (4002) 
JOZKFWLRHCDGJA-UHFFFAOYSA-N

>  <FORMULA>  (4002) 
C12H22O2

>  <EXACT MASS>  (4002) 
198.161979944

>  <MW>  (4002) 
198

>  <ID>  (4002) 
JP006482

>  <CONTRIBUTOR>  (4002) 
University of Tokyo Team, {Faculty of Engineering, University of Tokyo

>  <COMMENT>  (4002) 
SMILES=CC(C)=CCCC(C)CCOC(C)=O
InChI=InChI=1S/C12H22O2/c1-10(2)6-5-7-11(3)8-9-14-12(4)13/h6,11H,5,7-9H2,1-4H3
computed SMILES=O=C(OCCC(C)CCC=C(C)C)C
accession=JP006482
date=2016.01.19 (Created 2008.10.21, modified 2011.05.06)
author=HISAHIRO HAGIWARA, CHEMICAL RESEARCH INSTITUTE OF NON-AQUEOUSSOLUTIONS TOHOKU UNIV.
license=CC BY-NC-SA
exact mass=198.16198
ionization energy=70 eV
ion type=[M]+*
computed spectral entropy=3.0780197535852287
computed normalized entropy=0.7951071889349807
SPLASH=splash10-00l6-9100000000-045f190926c18eb95193
submitter=submitter = University of Tokyo Team (Faculty of Engineering, University of Tokyo)
MoNA Rating=3.75

>  <NUM PEAKS>  (4002) 
48

>  <MASS SPECTRAL PEAKS>  (4002) 
15 4.37
27 10.6
28 2.11
29 9.84
31 1.24
39 12.98
40 3.36
41 80.76
42 9.12
43 99.99
44 2.63
45 1.08
51 1.61
52 1.14
53 10.35
54 4.33
55 46.01
56 10.16
57 6.86
61 4.29
65 1.96
66 1.4
67 46.29
68 34.94
69 83.14
70 8.91
71 2.65
73 1.94
77 1.83
79 3.06
80 4.14
81 72.46
82 56.56
83 9.84
91 1.21
93 1.4
94 3.5
95 64
96 12.1
97 1.56
109 25.09
110 6.16
111 1.13
123 47.52
124 4.53
137 1.29
138 30.42
139 2.94

$$$$

     RDKit          2D

 14 14  0  0  0  0  0  0  0  0999 V2000
    2.1821   -1.1215    0.0000 C   0  0  0  0  0  0  0  0  0  0  0  0
   -0.2592   -2.0103    0.0000 C   0  0  0  0  0  0  0  0  0  0  0  0
   -3.7065    2.7998    0.0000 C   0  0  0  0  0  0  0  0  0  0  0  0
    3.6587    2.4795    0.0000 C   0  0  0  0  0  0  0  0  0  0  0  0
   -1.1083    2.8000    0.0000 C   0  0  0  0  0  0  0  0  0  0  0  0
   -2.4069    0.5492    0.0000 C   0  0  0  0  0  0  0  0  0  0  0  0
    0.1912    2.0492    0.0000 C   0  0  0  0  0  0  0  0  0  0  0  0
   -1.1073   -0.2017    0.0000 C   0  0  0  0  0  0  0  0  0  0  0  0
    0.7049   -0.8612    0.0000 C   0  0  0  0  0  0  0  0  0  0  0  0
   -2.4073    2.0500    0.0000 C   0  0  0  0  0  0  0  0  0  0  0  0
    2.1816    2.2188    0.0000 C   0  0  0  0  0  0  0  0  0  0  0  0
    0.1917    0.5483    0.0000 C   0  0  0  0  0  0  0  0  0  0  0  0
    1.2172    3.3676    0.0000 O   0  0  0  0  0  0  0  0  0  0  0  0
    1.6689    0.8091    0.0000 O   0  0  0  0  0  0  0  0  0  0  0  0
  7  5  1  0
  8  6  1  0
  9  1  1  0
  9  2  1  0
 10  3  1  0
 10  5  2  0
 10  6  1  0
 11  4  1  0
 12  7  1  0
 12  8  1  0
 12  9  1  0
 13 11  2  0
 14 11  1  0
 14 12  1  0
M  END
>  <NAME>  (4003) 
4-TERPINYL ACETATE

>  <SYNONYMS>  (4003) 


>  <SPECTRUM TYPE>  (4003) 
MS1

>  <INSTRUMENT TYPE>  (4003) 
EI-B

>  <INSTRUMENT>  (4003) 
HITACHI M-80B

>  <ION MODE>  (4003) 
P

>  <INCHIKEY>  (4003) 
BFCBRSFYYLSTAA-UHFFFAOYSA-N

>  <FORMULA>  (4003) 
C12H20O2

>  <EXACT MASS>  (4003) 
196.14632988

>  <MW>  (4003) 
196

>  <ID>  (4003) 
JP006481

>  <CONTRIBUTOR>  (4003) 
University of Tokyo Team, {Faculty of Engineering, University of Tokyo

>  <COMMENT>  (4003) 
SMILES=CC(=O)OC(C1)(CC=C(C)C1)C(C)C
InChI=InChI=1S/C12H20O2/c1-9(2)12(14-11(4)13)7-5-10(3)6-8-12/h5,9H,6-8H2,1-4H3
computed SMILES=O=C(OC1(CC=C(C)CC1)C(C)C)C
accession=JP006481
date=2016.01.19 (Created 2008.10.21, modified 2011.05.06)
author=HISAHIRO HAGIWARA, CHEMICAL RESEARCH INSTITUTE OF NON-AQUEOUSSOLUTIONS TOHOKU UNIV.
license=CC BY-NC-SA
exact mass=196.14633
ionization energy=70 eV
ion type=[M]+*
computed spectral entropy=2.9322232345756225
computed normalized entropy=0.7795977731524989
SPLASH=splash10-0006-9500000000-1b72010f952f5778547f
submitter=submitter = University of Tokyo Team (Faculty of Engineering, University of Tokyo)
MoNA Rating=3.75

>  <NUM PEAKS>  (4003) 
43

>  <MASS SPECTRAL PEAKS>  (4003) 
15 1.59
27 6.19
29 3.02
39 5.76
40 1.18
41 17.87
42 1.92
43 52.53
51 1.81
53 7.48
55 5.24
61 1.93
65 2.56
67 7.46
68 4.65
69 4.28
71 6.36
77 12.83
78 2.12
79 9.76
80 3.79
81 11.14
82 1.17
86 2.06
91 12.61
92 24.41
93 99.99
94 9.91
95 3.86
105 4.05
106 1.11
107 6.36
108 3.37
110 2.82
111 27.89
112 1.93
119 1.36
121 63.05
122 5.49
136 64.25
137 7.87
153 1.85
154 1.02

$$$$

     RDKit          2D

 14 14  0  0  0  0  0  0  0  0999 V2000
    4.5241   -0.2823    0.0000 C   0  0  0  0  0  0  0  0  0  0  0  0
    3.2254   -2.5325    0.0000 C   0  0  0  0  0  0  0  0  0  0  0  0
   -4.5917    1.8463    0.0000 C   0  0  0  0  0  0  0  0  0  0  0  0
   -1.1862    2.6285    0.0000 C   0  0  0  0  0  0  0  0  0  0  0  0
    0.6270   -1.0327    0.0000 C   0  0  0  0  0  0  0  0  0  0  0  0
    1.9256    1.2182    0.0000 C   0  0  0  0  0  0  0  0  0  0  0  0
   -0.6725   -0.2818    0.0000 C   0  0  0  0  0  0  0  0  0  0  0  0
    0.6260    1.9690    0.0000 C   0  0  0  0  0  0  0  0  0  0  0  0
    3.2252   -1.0325    0.0000 C   0  0  0  0  0  0  0  0  0  0  0  0
   -3.1146    2.1071    0.0000 C   0  0  0  0  0  0  0  0  0  0  0  0
    1.9260   -0.2827    0.0000 C   0  0  0  0  0  0  0  0  0  0  0  0
   -0.6730    1.2190    0.0000 C   0  0  0  0  0  0  0  0  0  0  0  0
   -2.6018    3.5167    0.0000 O   0  0  0  0  0  0  0  0  0  0  0  0
   -2.1502    0.9582    0.0000 O   0  0  0  0  0  0  0  0  0  0  0  0
  7  5  1  0
  8  6  1  0
  9  1  2  0
  9  2  1  0
 10  3  1  0
 11  5  1  0
 11  6  1  0
 11  9  1  0
 12  4  1  0
 12  7  1  0
 12  8  1  0
 13 10  2  0
 14 10  1  0
 14 12  1  0
M  END
>  <NAME>  (4004) 
BETA-TERPINYL ACETATE

>  <SYNONYMS>  (4004) 


>  <SPECTRUM TYPE>  (4004) 
MS1

>  <INSTRUMENT TYPE>  (4004) 
EI-B

>  <INSTRUMENT>  (4004) 
HITACHI M-80B

>  <ION MODE>  (4004) 
P

>  <INCHIKEY>  (4004) 
URVNHQCLMBMWIW-UHFFFAOYSA-N

>  <FORMULA>  (4004) 
C12H20O2

>  <EXACT MASS>  (4004) 
196.14632988

>  <MW>  (4004) 
196

>  <ID>  (4004) 
JP006480

>  <CONTRIBUTOR>  (4004) 
University of Tokyo Team, {Faculty of Engineering, University of Tokyo

>  <COMMENT>  (4004) 
SMILES=CC(=O)OC(C)(C1)CCC(C(C)=C)C1
InChI=InChI=1S/C12H20O2/c1-9(2)11-5-7-12(4,8-6-11)14-10(3)13/h11H,1,5-8H2,2-4H3
computed SMILES=O=C(OC1(C)CCC(C(=C)C)CC1)C
accession=JP006480
date=2016.01.19 (Created 2008.10.21, modified 2011.05.06)
author=HISAHIRO HAGIWARA, CHEMICAL RESEARCH INSTITUTE OF NON-AQUEOUSSOLUTIONS TOHOKU UNIV.
license=CC BY-NC-SA
exact mass=196.14633
ionization energy=70 eV
ion type=[M]+*
computed spectral entropy=3.248567779225428
computed normalized entropy=0.8182188740673768
SPLASH=splash10-0006-9200000000-3f599a73b2235d405fec
submitter=submitter = University of Tokyo Team (Faculty of Engineering, University of Tokyo)
MoNA Rating=3.75

>  <NUM PEAKS>  (4004) 
53

>  <MASS SPECTRAL PEAKS>  (4004) 
15 3.03
27 7.9
29 10.01
39 14.08
40 3.03
41 25.47
42 2.9
43 99.99
44 1.87
45 1.17
51 1.9
52 1.27
53 13.8
54 2.45
55 16.39
56 1.29
57 1.59
58 3.96
61 1.16
65 3.23
66 2.14
67 23.52
68 60.91
69 14.99
71 17.1
72 1.06
77 7.66
78 2.43
79 26.11
80 14.31
81 31.66
82 3.87
83 4.1
84 2.64
91 7.61
92 30.14
93 91.37
94 47.51
95 23.26
96 2.44
97 1.84
105 3.53
106 1.23
107 48.06
108 14.57
109 2.52
111 2.61
121 46.24
122 4.26
135 1.18
136 49.09
137 8.52
139 2.65

$$$$

     RDKit          2D

 14 14  0  0  0  0  0  0  0  0999 V2000
   -2.5989   -1.5002    0.0000 C   0  0  0  0  0  0  0  0  0  0  0  0
    6.4962    0.7508    0.0000 C   0  0  0  0  0  0  0  0  0  0  0  0
    3.5629    2.6494    0.0000 C   0  0  0  0  0  0  0  0  0  0  0  0
    1.6346    2.6491    0.0000 C   0  0  0  0  0  0  0  0  0  0  0  0
   -1.3000    0.7500    0.0000 C   0  0  0  0  0  0  0  0  0  0  0  0
   -0.0000   -1.5000    0.0000 C   0  0  0  0  0  0  0  0  0  0  0  0
    0.0000    1.5000    0.0000 C   0  0  0  0  0  0  0  0  0  0  0  0
    1.3000   -0.7500    0.0000 C   0  0  0  0  0  0  0  0  0  0  0  0
   -1.3000   -0.7500    0.0000 C   0  0  0  0  0  0  0  0  0  0  0  0
    5.1970    1.5006    0.0000 C   0  0  0  0  0  0  0  0  0  0  0  0
    1.3000    0.7500    0.0000 C   0  0  0  0  0  0  0  0  0  0  0  0
    2.5989    1.5002    0.0000 C   0  0  0  0  0  0  0  0  0  0  0  0
    5.1968    3.0006    0.0000 O   0  0  0  0  0  0  0  0  0  0  0  0
    3.8981    0.7504    0.0000 O   0  0  0  0  0  0  0  0  0  0  0  0
  7  5  1  0
  8  6  1  0
  9  1  1  0
  9  5  2  0
  9  6  1  0
 10  2  1  0
 11  7  1  0
 11  8  1  0
 12  3  1  0
 12  4  1  0
 12 11  1  0
 13 10  2  0
 14 10  1  0
 14 12  1  0
M  END
>  <NAME>  (4005) 
ALPHA-TERPINYL ACETATE

>  <SYNONYMS>  (4005) 
P-MENTH-1-EN-8-YL ACETATE

>  <SPECTRUM TYPE>  (4005) 
MS1

>  <INSTRUMENT TYPE>  (4005) 
EI-B

>  <INSTRUMENT>  (4005) 
HITACHI M-80B

>  <ION MODE>  (4005) 
P

>  <INCHIKEY>  (4005) 
IGODOXYLBBXFDW-UHFFFAOYSA-N

>  <FORMULA>  (4005) 
C12H20O2

>  <EXACT MASS>  (4005) 
196.14632988

>  <MW>  (4005) 
196

>  <ID>  (4005) 
JP006479

>  <CONTRIBUTOR>  (4005) 
University of Tokyo Team, {Faculty of Engineering, University of Tokyo

>  <COMMENT>  (4005) 
SMILES=CC(=O)OC(C)(C)C(C1)CC=C(C)C1
InChI=InChI=1S/C12H20O2/c1-9-5-7-11(8-6-9)12(3,4)14-10(2)13/h5,11H,6-8H2,1-4H3
computed SMILES=O=C(OC(C)(C)C1CC=C(C)CC1)C
accession=JP006479
date=2016.01.19 (Created 2008.10.21, modified 2011.05.06)
author=HISAHIRO HAGIWARA, CHEMICAL RESEARCH INSTITUTE OF NON-AQUEOUSSOLUTIONS TOHOKU UNIV.
license=CC BY-NC-SA
exact mass=196.14633
ionization energy=70 eV
ion type=[M]+*
computed spectral entropy=3.0833128500483586
computed normalized entropy=0.7765960078461321
SPLASH=splash10-006x-9500000000-ffe7aaa2d3a38a8ed5b8
submitter=submitter = University of Tokyo Team (Faculty of Engineering, University of Tokyo)
MoNA Rating=3.75

>  <NUM PEAKS>  (4005) 
53

>  <MASS SPECTRAL PEAKS>  (4005) 
15 1.38
18 1.22
27 5.26
28 1.79
29 4.01
31 1.24
39 8.95
40 2.14
41 18.49
42 1.81
43 82.49
44 1.85
45 1.12
51 2.06
52 1.16
53 9.59
54 1.17
55 7.93
57 1.01
59 18.52
65 3.12
66 1.48
67 12.97
68 8.89
69 7.76
71 1.69
77 11.23
78 2.15
79 14.79
80 7.46
81 17.08
82 1.27
91 9.49
92 13.66
93 70.98
94 9.78
95 14.2
96 1.19
101 2.91
105 5.2
106 1.16
107 11.22
108 5.8
109 1.05
119 1.39
121 99.99
122 9.89
123 2.4
136 69.98
137 12.18
138 1.55
139 7.53
181 1.11

$$$$

     RDKit          2D

 13 12  0  0  0  0  0  0  0  0999 V2000
   -8.7685    6.1875    0.0000 C   0  0  0  0  0  0  0  0  0  0  0  0
   -7.4695    3.9375    0.0000 C   0  0  0  0  0  0  0  0  0  0  0  0
   -2.2733    3.9375    0.0000 C   0  0  0  0  0  0  0  0  0  0  0  0
   -4.8714    5.4375    0.0000 C   0  0  0  0  0  0  0  0  0  0  0  0
   -6.1704    6.1875    0.0000 C   0  0  0  0  0  0  0  0  0  0  0  0
   -3.5724    6.1875    0.0000 C   0  0  0  0  0  0  0  0  0  0  0  0
   -0.9743    6.1875    0.0000 C   0  0  0  0  0  0  0  0  0  0  0  0
    0.3248    5.4375    0.0000 C   0  0  0  0  0  0  0  0  0  0  0  0
    2.9228    5.4375    0.0000 C   0  0  0  0  0  0  0  0  0  0  0  0
   -7.4695    5.4375    0.0000 C   0  0  0  0  0  0  0  0  0  0  0  0
   -2.2733    5.4375    0.0000 C   0  0  0  0  0  0  0  0  0  0  0  0
    4.2219    6.1875    0.0000 O   0  0  0  0  0  0  0  0  0  0  0  0
    1.6238    6.1875    0.0000 O   0  0  0  0  0  0  0  0  0  0  0  0
  5  4  1  0
  6  4  1  0
  8  7  1  0
 10  1  1  0
 10  2  1  0
 10  5  2  0
 11  3  1  0
 11  6  1  0
 11  7  1  0
 12  9  2  0
 13  8  1  0
 13  9  1  0
M  END
>  <NAME>  (4006) 
CITRONELLYL FORMATE

>  <SYNONYMS>  (4006) 
3,7-DIMETHYL-6-OCTENYL FORMATE

>  <SPECTRUM TYPE>  (4006) 
MS1

>  <INSTRUMENT TYPE>  (4006) 
EI-B

>  <INSTRUMENT>  (4006) 
HITACHI M-80B

>  <ION MODE>  (4006) 
P

>  <INCHIKEY>  (4006) 
DZNVIZQPWLDQHI-UHFFFAOYSA-N

>  <FORMULA>  (4006) 
C11H20O2

>  <EXACT MASS>  (4006) 
184.14632988

>  <MW>  (4006) 
184

>  <ID>  (4006) 
JP006478

>  <CONTRIBUTOR>  (4006) 
University of Tokyo Team, {Faculty of Engineering, University of Tokyo

>  <COMMENT>  (4006) 
SMILES=O=COCCC(C)CCC=C(C)C
InChI=InChI=1S/C11H20O2/c1-10(2)5-4-6-11(3)7-8-13-9-12/h5,9,11H,4,6-8H2,1-3H3
computed SMILES=O=COCCC(C)CCC=C(C)C
accession=JP006478
date=2016.01.19 (Created 2008.10.21, modified 2011.05.06)
author=HISAHIRO HAGIWARA, CHEMICAL RESEARCH INSTITUTE OF NON-AQUEOUSSOLUTIONS TOHOKU UNIV.
license=CC BY-NC-SA
exact mass=184.14633
ionization energy=70 eV
ion type=[M]+*
computed spectral entropy=3.0754180997501845
computed normalized entropy=0.8281562992473531
SPLASH=splash10-014i-9100000000-716f863fe49bf99429d8
submitter=submitter = University of Tokyo Team (Faculty of Engineering, University of Tokyo)
MoNA Rating=3.75

>  <NUM PEAKS>  (4006) 
41

>  <MASS SPECTRAL PEAKS>  (4006) 
18 1.39
27 10.9
28 2.51
29 10.58
31 13.07
39 14.3
40 3.57
41 72.39
42 7.8
43 9.52
45 1.44
51 1.55
53 10.61
54 3.72
55 49.32
56 20.84
57 6.28
65 1.62
66 1.06
67 29.92
68 33.35
69 99.99
70 13.78
71 1.68
77 1.41
79 1.87
80 2.08
81 39.53
82 38.65
83 13.01
84 1.15
94 1.91
95 39.85
96 11.27
97 1.03
109 16.72
110 6.69
123 29.6
124 3.03
138 21.75
139 2.03

$$$$

     RDKit          2D

 13 13  0  0  0  0  0  0  0  0999 V2000
    6.4962    2.6494    0.0000 C   0  0  0  0  0  0  0  0  0  0  0  0
    0.3343   -1.5002    0.0000 C   0  0  0  0  0  0  0  0  0  0  0  0
    2.2627   -1.4999    0.0000 C   0  0  0  0  0  0  0  0  0  0  0  0
    5.1972    0.3992    0.0000 C   0  0  0  0  0  0  0  0  0  0  0  0
    3.8972    2.6492    0.0000 C   0  0  0  0  0  0  0  0  0  0  0  0
    3.8972   -0.3508    0.0000 C   0  0  0  0  0  0  0  0  0  0  0  0
    2.5972    1.8992    0.0000 C   0  0  0  0  0  0  0  0  0  0  0  0
   -1.2998   -0.3514    0.0000 C   0  0  0  0  0  0  0  0  0  0  0  0
    5.1972    1.8992    0.0000 C   0  0  0  0  0  0  0  0  0  0  0  0
    2.5972    0.3992    0.0000 C   0  0  0  0  0  0  0  0  0  0  0  0
    1.2983   -0.3510    0.0000 C   0  0  0  0  0  0  0  0  0  0  0  0
   -2.5989    0.3984    0.0000 O   0  0  0  0  0  0  0  0  0  0  0  0
   -0.0008    0.3988    0.0000 O   0  0  0  0  0  0  0  0  0  0  0  0
  6  4  1  0
  7  5  1  0
  9  1  1  0
  9  4  2  0
  9  5  1  0
 10  6  1  0
 10  7  1  0
 11  2  1  0
 11  3  1  0
 11 10  1  0
 12  8  2  0
 13  8  1  0
 13 11  1  0
M  END
>  <NAME>  (4007) 
ALPHA-TERPINYL FORMATE

>  <SYNONYMS>  (4007) 
P-MENTH-1-EN-8-YL FORMATE

>  <SPECTRUM TYPE>  (4007) 
MS1

>  <INSTRUMENT TYPE>  (4007) 
EI-B

>  <INSTRUMENT>  (4007) 
HITACHI M-80B

>  <ION MODE>  (4007) 
P

>  <INCHIKEY>  (4007) 
IPYLQIQMGUZFCK-UHFFFAOYSA-N

>  <FORMULA>  (4007) 
C11H18O2

>  <EXACT MASS>  (4007) 
182.130679816

>  <MW>  (4007) 
182

>  <ID>  (4007) 
JP006477

>  <CONTRIBUTOR>  (4007) 
University of Tokyo Team, {Faculty of Engineering, University of Tokyo

>  <COMMENT>  (4007) 
SMILES=O=COC(C)(C)C(C1)CC=C(C)C1
InChI=InChI=1S/C11H18O2/c1-9-4-6-10(7-5-9)11(2,3)13-8-12/h4,8,10H,5-7H2,1-3H3
computed SMILES=O=COC(C)(C)C1CC=C(C)CC1
accession=JP006477
date=2016.01.19 (Created 2008.10.21, modified 2011.05.06)
author=HISAHIRO HAGIWARA, CHEMICAL RESEARCH INSTITUTE OF NON-AQUEOUSSOLUTIONS TOHOKU UNIV.
license=CC BY-NC-SA
exact mass=182.13068
ionization energy=70 eV
ion type=[M]+*
computed spectral entropy=3.1410256283962115
computed normalized entropy=0.8251389864053142
SPLASH=splash10-006x-9400000000-f0824f09ac00bfb006c8
submitter=submitter = University of Tokyo Team (Faculty of Engineering, University of Tokyo)
MoNA Rating=3.75

>  <NUM PEAKS>  (4007) 
45

>  <MASS SPECTRAL PEAKS>  (4007) 
18 2.01
27 6.11
28 1.52
29 7.33
31 3.97
39 13.29
40 2.64
41 25.44
42 1.83
43 19.11
51 2.66
52 1.46
53 12.11
54 1.96
55 10.38
59 26
65 3.49
66 1.57
67 18.08
68 12.63
69 11.11
71 2.79
77 12.35
78 2.09
79 15.9
80 6.1
81 24.09
82 1.81
91 10.81
92 11.81
93 71.74
94 8.95
95 15.64
96 1.43
105 4.11
106 1.15
107 10.67
108 4.76
119 1.16
121 99.99
122 9.56
136 55.47
137 14.14
138 1.15
139 2.07

$$$$

     RDKit          2D

 13 12  0  0  0  0  0  0  0  0999 V2000
    3.8971    6.7500    0.0000 C   0  0  0  0  0  0  0  0  0  0  0  0
    2.5981    4.5000    0.0000 C   0  0  0  0  0  0  0  0  0  0  0  0
   -2.5981    4.5000    0.0000 C   0  0  0  0  0  0  0  0  0  0  0  0
    0.0000    6.0000    0.0000 C   0  0  0  0  0  0  0  0  0  0  0  0
    1.2990    6.7500    0.0000 C   0  0  0  0  0  0  0  0  0  0  0  0
   -1.2990    6.7500    0.0000 C   0  0  0  0  0  0  0  0  0  0  0  0
   -3.8971    6.7500    0.0000 C   0  0  0  0  0  0  0  0  0  0  0  0
   -3.8971    8.2500    0.0000 C   0  0  0  0  0  0  0  0  0  0  0  0
   -5.1962   10.5000    0.0000 C   0  0  0  0  0  0  0  0  0  0  0  0
    2.5981    6.0000    0.0000 C   0  0  0  0  0  0  0  0  0  0  0  0
   -2.5981    6.0000    0.0000 C   0  0  0  0  0  0  0  0  0  0  0  0
   -6.4952   11.2500    0.0000 O   0  0  0  0  0  0  0  0  0  0  0  0
   -5.1962    9.0000    0.0000 O   0  0  0  0  0  0  0  0  0  0  0  0
  5  4  1  0
  6  4  1  0
  8  7  1  0
 10  1  1  0
 10  2  1  0
 10  5  2  0
 11  3  1  0
 11  6  1  0
  7 11  2  0
 12  9  2  0
 13  8  1  0
 13  9  1  0
M  END
>  <NAME>  (4008) 
NERYL FORMATE

>  <SYNONYMS>  (4008) 
(Z)-3,7-DIMETHYL-2,6-OCTADIENYL FORMATE

>  <SPECTRUM TYPE>  (4008) 
MS1

>  <INSTRUMENT TYPE>  (4008) 
EI-B

>  <INSTRUMENT>  (4008) 
HITACHI M-80B

>  <ION MODE>  (4008) 
P

>  <INCHIKEY>  (4008) 
FQMZVFJYMPNUCT-XFFZJAGNSA-N

>  <FORMULA>  (4008) 
C11H18O2

>  <EXACT MASS>  (4008) 
182.130679816

>  <MW>  (4008) 
182

>  <ID>  (4008) 
JP006476

>  <CONTRIBUTOR>  (4008) 
University of Tokyo Team, {Faculty of Engineering, University of Tokyo

>  <COMMENT>  (4008) 
SMILES=O=COCC([H])=C(C)CCC=C(C)C
InChI=InChI=1S/C11H18O2/c1-10(2)5-4-6-11(3)7-8-13-9-12/h5,7,9H,4,6,8H2,1-3H3/b11-7-
computed SMILES=O=COCC=C(C)CCC=C(C)C
accession=JP006476
date=2016.01.19 (Created 2008.10.21, modified 2011.05.06)
author=HISAHIRO HAGIWARA, CHEMICAL RESEARCH INSTITUTE OF NON-AQUEOUSSOLUTIONS TOHOKU UNIV.
license=CC BY-NC-SA
exact mass=182.13068
ionization energy=70 eV
ion type=[M]+*
computed spectral entropy=2.606348641327668
computed normalized entropy=0.7330783361434974
SPLASH=splash10-014l-9000000000-279f1c08bc764167c2f4
submitter=submitter = University of Tokyo Team (Faculty of Engineering, University of Tokyo)
MoNA Rating=3.75

>  <NUM PEAKS>  (4008) 
35

>  <MASS SPECTRAL PEAKS>  (4008) 
27 8.53
29 7.97
31 1.46
39 13.32
40 2.55
41 59.89
42 3.14
43 3.83
51 1.73
52 1.18
53 10.42
54 1.08
55 4.65
57 1.53
65 1.8
66 1.07
67 10.16
68 21.34
69 99.99
70 6.37
77 2.74
79 3.26
80 6.94
81 5.13
83 1.15
84 1.56
91 2.13
92 3.41
93 15.38
94 2.27
95 1.11
107 1.61
121 5.22
136 9.65
137 1.43

$$$$

     RDKit          2D

 13 13  0  0  0  0  0  0  0  0999 V2000
   -1.5890   -3.5800    0.0000 C   0  0  0  0  0  0  0  0  0  0  0  0
    1.0090   -3.5800    0.0000 C   0  0  0  0  0  0  0  0  0  0  0  0
   -0.2900    3.1700    0.0000 C   0  0  0  0  0  0  0  0  0  0  0  0
   -1.5900    0.9200    0.0000 C   0  0  0  0  0  0  0  0  0  0  0  0
   -1.5900   -0.5800    0.0000 C   0  0  0  0  0  0  0  0  0  0  0  0
    1.0100    0.9200    0.0000 C   0  0  0  0  0  0  0  0  0  0  0  0
    3.6081   -0.5804    0.0000 C   0  0  0  0  0  0  0  0  0  0  0  0
   -0.2900   -2.8300    0.0000 C   0  0  0  0  0  0  0  0  0  0  0  0
   -0.2900    1.6700    0.0000 C   0  0  0  0  0  0  0  0  0  0  0  0
   -0.2900   -1.3300    0.0000 C   0  0  0  0  0  0  0  0  0  0  0  0
    1.0100   -0.5800    0.0000 C   0  0  0  0  0  0  0  0  0  0  0  0
    4.9070   -1.3306    0.0000 O   0  0  0  0  0  0  0  0  0  0  0  0
    2.3089   -1.3302    0.0000 O   0  0  0  0  0  0  0  0  0  0  0  0
  5  4  1  0
  8  1  1  0
  8  2  1  0
  9  3  1  0
  9  4  1  0
  9  6  1  0
 10  5  1  0
 10  8  1  0
 11  6  1  0
 11 10  1  0
 12  7  2  0
 13  7  1  0
 13 11  1  0
M  END
>  <NAME>  (4009) 
MENTHYL FORMATE

>  <SYNONYMS>  (4009) 
2-ISOPROPYL-5-METHYLCYCLOHEXYL FORMATE

>  <SPECTRUM TYPE>  (4009) 
MS1

>  <INSTRUMENT TYPE>  (4009) 
EI-B

>  <INSTRUMENT>  (4009) 
HITACHI M-80B

>  <ION MODE>  (4009) 
P

>  <INCHIKEY>  (4009) 
XEYZAKCJAFSLGZ-UHFFFAOYSA-N

>  <FORMULA>  (4009) 
C11H20O2

>  <EXACT MASS>  (4009) 
184.14632988

>  <MW>  (4009) 
184

>  <ID>  (4009) 
JP006475

>  <CONTRIBUTOR>  (4009) 
University of Tokyo Team, {Faculty of Engineering, University of Tokyo

>  <COMMENT>  (4009) 
SMILES=O=COC(C1)C(CCC(C)1)C(C)C
InChI=InChI=1S/C11H20O2/c1-8(2)10-5-4-9(3)6-11(10)13-7-12/h7-11H,4-6H2,1-3H3
computed SMILES=O=COC1CC(C)CCC1C(C)C
accession=JP006475
date=2016.01.19 (Created 2008.10.21, modified 2011.05.06)
author=HISAHIRO HAGIWARA, CHEMICAL RESEARCH INSTITUTE OF NON-AQUEOUSSOLUTIONS TOHOKU UNIV.
license=CC BY-NC-SA
exact mass=184.14633
ionization energy=70 eV
ion type=[M]+*
computed spectral entropy=3.1273224656083745
computed normalized entropy=0.831469310170352
SPLASH=splash10-000t-9100000000-293cd98a683ce45c6920
submitter=submitter = University of Tokyo Team (Faculty of Engineering, University of Tokyo)
MoNA Rating=3.75

>  <NUM PEAKS>  (4009) 
43

>  <MASS SPECTRAL PEAKS>  (4009) 
18 2.44
27 11.36
28 1.15
29 11.15
31 1.45
39 11.03
40 1.67
41 35.03
42 4.75
43 20.44
44 1.34
45 1.3
51 1.02
53 8.31
54 7.19
55 32.03
56 7.68
57 12.26
65 1.43
66 1.05
67 23.79
68 11.01
69 17.03
70 4.22
71 7.65
77 2.9
79 5.91
80 7.2
81 71.04
82 26.3
83 12.42
91 1.39
93 1.94
94 9.34
95 99.99
96 26.1
97 4.45
109 8.74
110 2.13
123 39.12
124 4.32
138 39.89
139 5.99

$$$$

     RDKit          2D

 13 12  0  0  0  0  0  0  0  0999 V2000
   -5.4265    4.3670    0.0000 C   0  0  0  0  0  0  0  0  0  0  0  0
    3.6668    3.6170    0.0000 C   0  0  0  0  0  0  0  0  0  0  0  0
    2.3678    5.8670    0.0000 C   0  0  0  0  0  0  0  0  0  0  0  0
   -1.8642    5.5161    0.0000 C   0  0  0  0  0  0  0  0  0  0  0  0
   -4.1274    3.6170    0.0000 C   0  0  0  0  0  0  0  0  0  0  0  0
   -0.2303    4.3670    0.0000 C   0  0  0  0  0  0  0  0  0  0  0  0
    1.0687    3.6170    0.0000 C   0  0  0  0  0  0  0  0  0  0  0  0
   -1.5293    3.6170    0.0000 C   0  0  0  0  0  0  0  0  0  0  0  0
   -5.2698    5.2556    0.0000 C   0  0  0  0  0  0  0  0  0  0  0  0
    2.3678    4.3670    0.0000 C   0  0  0  0  0  0  0  0  0  0  0  0
   -2.8284    4.3670    0.0000 C   0  0  0  0  0  0  0  0  0  0  0  0
   -6.2340    6.4047    0.0000 O   0  0  0  0  0  0  0  0  0  0  0  0
   -3.7926    5.5161    0.0000 O   0  0  0  0  0  0  0  0  0  0  0  0
  5  1  2  0
  7  6  1  0
  8  6  1  0
 10  2  1  0
 10  3  1  0
 10  7  2  0
 11  4  1  0
 11  5  1  0
 11  8  1  0
 12  9  2  0
 13  9  1  0
 13 11  1  0
M  END
>  <NAME>  (4010) 
LINALYL FORMATE

>  <SYNONYMS>  (4010) 
1,5-DIMETHYL-1-VINYL-4-HEXENYL FORMATE

>  <SPECTRUM TYPE>  (4010) 
MS1

>  <INSTRUMENT TYPE>  (4010) 
EI-B

>  <INSTRUMENT>  (4010) 
HITACHI M-80B

>  <ION MODE>  (4010) 
P

>  <INCHIKEY>  (4010) 
JZOCDHMHLGUPFI-UHFFFAOYSA-N

>  <FORMULA>  (4010) 
C11H18O2

>  <EXACT MASS>  (4010) 
182.130679816

>  <MW>  (4010) 
182

>  <ID>  (4010) 
JP006474

>  <CONTRIBUTOR>  (4010) 
University of Tokyo Team, {Faculty of Engineering, University of Tokyo

>  <COMMENT>  (4010) 
SMILES=O=COC(C)(C=C)CCC=C(C)C
InChI=InChI=1S/C11H18O2/c1-5-11(4,13-9-12)8-6-7-10(2)3/h5,7,9H,1,6,8H2,2-4H3
computed SMILES=O=COC(C=C)(C)CCC=C(C)C
accession=JP006474
date=2016.01.19 (Created 2008.10.21, modified 2011.05.06)
author=HISAHIRO HAGIWARA, CHEMICAL RESEARCH INSTITUTE OF NON-AQUEOUSSOLUTIONS TOHOKU UNIV.
license=CC BY-NC-SA
exact mass=182.13068
ionization energy=70 eV
ion type=[M]+*
computed spectral entropy=3.201874956953604
computed normalized entropy=0.8271011884765669
SPLASH=splash10-0006-9000000000-99c3df53fd7eab9d4ea8
submitter=submitter = University of Tokyo Team (Faculty of Engineering, University of Tokyo)
MoNA Rating=3.75

>  <NUM PEAKS>  (4010) 
48

>  <MASS SPECTRAL PEAKS>  (4010) 
15 1.5
27 20.71
29 13.95
31 1.12
39 25.09
40 6.08
41 74.23
42 5.54
43 34.67
44 1.44
45 1.2
51 4.71
52 2.17
53 19.54
54 2.17
55 28.57
56 2.54
57 1.69
65 4.27
66 2.03
67 21.5
68 19.43
69 47.19
70 3.44
71 17.5
72 1.06
77 8.69
78 1.53
79 15.29
80 39.42
81 14.29
82 4.7
83 4.29
91 10.2
92 15.17
93 99.99
94 11.53
95 4.15
105 6.07
106 1.36
107 8.3
108 1.55
109 1.26
119 1.13
121 30.47
122 2.39
136 8.88
137 1.92

$$$$

     RDKit          2D

 13 12  0  0  0  0  0  0  0  0999 V2000
   -8.7685    6.1875    0.0000 C   0  0  0  0  0  0  0  0  0  0  0  0
   -7.4695    3.9375    0.0000 C   0  0  0  0  0  0  0  0  0  0  0  0
   -2.2733    3.9375    0.0000 C   0  0  0  0  0  0  0  0  0  0  0  0
   -4.8714    5.4375    0.0000 C   0  0  0  0  0  0  0  0  0  0  0  0
   -6.1704    6.1875    0.0000 C   0  0  0  0  0  0  0  0  0  0  0  0
   -3.5724    6.1875    0.0000 C   0  0  0  0  0  0  0  0  0  0  0  0
   -0.9743    6.1875    0.0000 C   0  0  0  0  0  0  0  0  0  0  0  0
    0.3248    5.4375    0.0000 C   0  0  0  0  0  0  0  0  0  0  0  0
    2.9228    5.4375    0.0000 C   0  0  0  0  0  0  0  0  0  0  0  0
   -7.4695    5.4375    0.0000 C   0  0  0  0  0  0  0  0  0  0  0  0
   -2.2733    5.4375    0.0000 C   0  0  0  0  0  0  0  0  0  0  0  0
    4.2219    6.1875    0.0000 O   0  0  0  0  0  0  0  0  0  0  0  0
    1.6238    6.1875    0.0000 O   0  0  0  0  0  0  0  0  0  0  0  0
  5  4  1  0
  6  4  1  0
  8  7  1  0
 10  1  1  0
 10  2  1  0
 10  5  2  0
 11  3  1  0
 11  6  1  0
  7 11  2  0
 12  9  2  0
 13  8  1  0
 13  9  1  0
M  END
>  <NAME>  (4011) 
GERANYL FORMATE

>  <SYNONYMS>  (4011) 
(E)-3,7-DIMETHYL-2,6-OCTADIENYL FORMATE

>  <SPECTRUM TYPE>  (4011) 
MS1

>  <INSTRUMENT TYPE>  (4011) 
EI-B

>  <INSTRUMENT>  (4011) 
HITACHI M-80B

>  <ION MODE>  (4011) 
P

>  <INCHIKEY>  (4011) 
FQMZVFJYMPNUCT-YRNVUSSQSA-N

>  <FORMULA>  (4011) 
C11H18O2

>  <EXACT MASS>  (4011) 
182.130679816

>  <MW>  (4011) 
182

>  <ID>  (4011) 
JP006473

>  <CONTRIBUTOR>  (4011) 
University of Tokyo Team, {Faculty of Engineering, University of Tokyo

>  <COMMENT>  (4011) 
SMILES=O=COCC([H])=C(C)CCC=C(C)C
InChI=InChI=1S/C11H18O2/c1-10(2)5-4-6-11(3)7-8-13-9-12/h5,7,9H,4,6,8H2,1-3H3/b11-7+
computed SMILES=O=COCC=C(C)CCC=C(C)C
accession=JP006473
date=2016.01.19 (Created 2008.10.21, modified 2011.05.06)
author=HISAHIRO HAGIWARA, CHEMICAL RESEARCH INSTITUTE OF NON-AQUEOUSSOLUTIONS TOHOKU UNIV.
license=CC BY-NC-SA
exact mass=182.13068
ionization energy=70 eV
ion type=[M]+*
computed spectral entropy=2.445270176790968
computed normalized entropy=0.7055558315380016
SPLASH=splash10-014i-9000000000-7f8190dc24539d8010f8
submitter=submitter = University of Tokyo Team (Faculty of Engineering, University of Tokyo)
MoNA Rating=3.75

>  <NUM PEAKS>  (4011) 
32

>  <MASS SPECTRAL PEAKS>  (4011) 
27 6.43
29 6.88
31 1.34
39 10.09
40 2.87
41 50.19
42 2.8
43 2.77
51 1.57
53 9.08
57 2.46
65 1.73
66 1.12
67 8.49
68 21.34
69 99.99
70 6.21
77 2.17
79 2.32
80 3.47
81 3.27
85 1.05
91 1.49
92 2.19
93 7.92
94 1.46
107 1.42
121 4.18
123 1.2
136 11.54
137 1.67
139 1.06

$$$$

     RDKit          2D

 13 14  0  0  0  0  0  0  0  0999 V2000
   -0.6759    1.4813    0.0000 C   0  0  0  0  0  0  0  0  0  0  0  0
   -0.6759   -2.3013    0.0000 C   0  0  0  0  0  0  0  0  0  0  0  0
    2.4475    2.5900    0.0000 C   0  0  0  0  0  0  0  0  0  0  0  0
    1.1450   -1.1600    0.0000 C   0  0  0  0  0  0  0  0  0  0  0  0
    1.1450    0.3400    0.0000 C   0  0  0  0  0  0  0  0  0  0  0  0
    3.7350   -1.1600    0.0000 C   0  0  0  0  0  0  0  0  0  0  0  0
    6.3331    0.3361    0.0000 C   0  0  0  0  0  0  0  0  0  0  0  0
    2.4450   -1.9100    0.0000 C   0  0  0  0  0  0  0  0  0  0  0  0
    3.7350    0.3400    0.0000 C   0  0  0  0  0  0  0  0  0  0  0  0
    1.5750   -0.4100    0.0000 C   0  0  0  0  0  0  0  0  0  0  0  0
    2.4450    1.0900    0.0000 C   0  0  0  0  0  0  0  0  0  0  0  0
    7.6332    1.0841    0.0000 O   0  0  0  0  0  0  0  0  0  0  0  0
    5.0352    1.0880    0.0000 O   0  0  0  0  0  0  0  0  0  0  0  0
  5  4  1  0
  8  4  1  0
  8  6  1  0
  9  6  1  0
 10  1  1  0
 10  2  1  0
 10  8  1  0
 11  3  1  0
 11  5  1  0
 11  9  1  0
 11 10  1  0
 12  7  2  0
 13  7  1  0
 13  9  1  0
M  END
>  <NAME>  (4012) 
ISOBORNYL FORMATE

>  <SYNONYMS>  (4012) 


>  <SPECTRUM TYPE>  (4012) 
MS1

>  <INSTRUMENT TYPE>  (4012) 
EI-B

>  <INSTRUMENT>  (4012) 
HITACHI M-80B

>  <ION MODE>  (4012) 
P

>  <INCHIKEY>  (4012) 
RDWUNORUTVEHJF-UHFFFAOYSA-N

>  <FORMULA>  (4012) 
C11H18O2

>  <EXACT MASS>  (4012) 
182.130679816

>  <MW>  (4012) 
182

>  <ID>  (4012) 
JP006472

>  <CONTRIBUTOR>  (4012) 
University of Tokyo Team, {Faculty of Engineering, University of Tokyo

>  <COMMENT>  (4012) 
SMILES=O=COC(C1)C(C)(C2)C(C)(C)C(C2)1
InChI=InChI=1S/C11H18O2/c1-10(2)8-4-5-11(10,3)9(6-8)13-7-12/h7-9H,4-6H2,1-3H3
computed SMILES=O=COC1CC2CCC1(C)C2(C)C
ionization energy=70 eV
accession=JP006472
date=2016.01.19 (Created 2008.10.21, modified 2011.05.06)
author=HISAHIRO HAGIWARA, CHEMICAL RESEARCH INSTITUTE OF NON-AQUEOUSSOLUTIONS TOHOKU UNIV.
license=CC BY-NC-SA
exact mass=182.13068
ion type=[M]+*
computed spectral entropy=3.3722545162304782
computed normalized entropy=0.837754008921045
SPLASH=splash10-000g-9200000000-3baa4e7ab69aa5ef4391
submitter=submitter = University of Tokyo Team (Faculty of Engineering, University of Tokyo)
MoNA Rating=3.75

>  <NUM PEAKS>  (4012) 
56

>  <MASS SPECTRAL PEAKS>  (4012) 
15 1.2
27 15.75
28 3.73
29 24.41
31 1.51
39 22.03
40 3
41 49.14
42 3.37
43 20.23
44 1.48
45 1.23
51 3.63
52 1.73
53 13.78
54 2.17
55 23.71
56 2.01
57 4.21
59 1.47
63 1.02
65 3.84
66 1.73
67 19.52
68 6.69
69 13.61
70 2.37
71 11.41
72 1.24
77 10.6
78 1.83
79 11.98
80 6.18
81 12.5
82 9.79
83 6.01
84 2.28
91 9.34
92 11.85
93 48.67
94 8.6
95 99.99
96 7.6
97 1.51
105 3.06
107 8.11
108 14.25
109 3.54
110 15.21
111 2.84
121 53.42
122 4.35
136 44.63
137 7.44
139 2.04
167 2.92

$$$$

     RDKit          2D

 13 14  0  0  0  0  0  0  0  0999 V2000
   -0.6759    1.4813    0.0000 C   0  0  0  0  0  0  0  0  0  0  0  0
   -0.6759   -2.3013    0.0000 C   0  0  0  0  0  0  0  0  0  0  0  0
    2.4475    2.5900    0.0000 C   0  0  0  0  0  0  0  0  0  0  0  0
    1.1450   -1.1600    0.0000 C   0  0  0  0  0  0  0  0  0  0  0  0
    1.1450    0.3400    0.0000 C   0  0  0  0  0  0  0  0  0  0  0  0
    3.7350   -1.1600    0.0000 C   0  0  0  0  0  0  0  0  0  0  0  0
    6.3331    0.3361    0.0000 C   0  0  0  0  0  0  0  0  0  0  0  0
    2.4450   -1.9100    0.0000 C   0  0  0  0  0  0  0  0  0  0  0  0
    3.7350    0.3400    0.0000 C   0  0  0  0  0  0  0  0  0  0  0  0
    1.5750   -0.4100    0.0000 C   0  0  0  0  0  0  0  0  0  0  0  0
    2.4450    1.0900    0.0000 C   0  0  0  0  0  0  0  0  0  0  0  0
    7.6332    1.0841    0.0000 O   0  0  0  0  0  0  0  0  0  0  0  0
    5.0352    1.0880    0.0000 O   0  0  0  0  0  0  0  0  0  0  0  0
  5  4  1  0
  8  4  1  0
  8  6  1  0
  9  6  1  0
 10  1  1  0
 10  2  1  0
 10  8  1  0
 11  3  1  0
 11  5  1  0
 11  9  1  0
 11 10  1  0
 12  7  2  0
 13  7  1  0
 13  9  1  0
M  END
>  <NAME>  (4013) 
BORNYL FORMATE

>  <SYNONYMS>  (4013) 


>  <SPECTRUM TYPE>  (4013) 
MS1

>  <INSTRUMENT TYPE>  (4013) 
EI-B

>  <INSTRUMENT>  (4013) 
HITACHI M-80B

>  <ION MODE>  (4013) 
P

>  <INCHIKEY>  (4013) 
RDWUNORUTVEHJF-UHFFFAOYSA-N

>  <FORMULA>  (4013) 
C11H18O2

>  <EXACT MASS>  (4013) 
182.130679816

>  <MW>  (4013) 
182

>  <ID>  (4013) 
JP006471

>  <CONTRIBUTOR>  (4013) 
University of Tokyo Team, {Faculty of Engineering, University of Tokyo

>  <COMMENT>  (4013) 
SMILES=O=COC(C1)C(C)(C2)C(C)(C)C(C2)1
InChI=InChI=1S/C11H18O2/c1-10(2)8-4-5-11(10,3)9(6-8)13-7-12/h7-9H,4-6H2,1-3H3
computed SMILES=O=COC1CC2CCC1(C)C2(C)C
accession=JP006471
date=2016.01.19 (Created 2008.10.21, modified 2011.05.06)
author=HISAHIRO HAGIWARA, CHEMICAL RESEARCH INSTITUTE OF NON-AQUEOUSSOLUTIONS TOHOKU UNIV.
license=CC BY-NC-SA
exact mass=182.13068
ionization energy=70 eV
ion type=[M]+*
computed spectral entropy=3.340782173926403
computed normalized entropy=0.8336671845100395
SPLASH=splash10-000e-9200000000-d1791aee594f58514eee
submitter=submitter = University of Tokyo Team (Faculty of Engineering, University of Tokyo)
MoNA Rating=3.75

>  <NUM PEAKS>  (4013) 
55

>  <MASS SPECTRAL PEAKS>  (4013) 
17 1.07
18 1.31
27 11.42
28 2.66
29 18.09
31 1.15
39 15.8
40 2.62
41 39.27
42 3.2
43 16.96
44 1.24
45 1.01
51 3.3
52 1.49
53 12.17
54 1.78
55 18.27
56 1.62
57 4.25
65 3.84
66 1.49
67 14.5
68 4.68
69 12.04
70 2.64
71 9.47
72 1.43
77 9.01
78 1.59
79 10.37
80 9.62
81 10.36
82 7.03
83 4.9
84 2.59
91 7.55
92 9.76
93 35.66
94 6.31
95 99.99
96 7.67
97 1.27
105 2.68
107 5.01
108 6.48
109 2.46
110 13.01
111 3.01
121 37.34
122 3.68
136 35.13
137 4.62
154 1.37
167 2.49

$$$$

     RDKit          2D

 15 14  0  0  0  0  0  0  0  0999 V2000
    4.5466    7.8750    0.0000 C   0  0  0  0  0  0  0  0  0  0  0  0
    3.2476    8.6250    0.0000 C   0  0  0  0  0  0  0  0  0  0  0  0
    1.9486    7.8750    0.0000 C   0  0  0  0  0  0  0  0  0  0  0  0
    0.6495    8.6250    0.0000 C   0  0  0  0  0  0  0  0  0  0  0  0
   -0.6495    7.8750    0.0000 C   0  0  0  0  0  0  0  0  0  0  0  0
   -1.9486    8.6250    0.0000 C   0  0  0  0  0  0  0  0  0  0  0  0
   -3.2476    7.8750    0.0000 C   0  0  0  0  0  0  0  0  0  0  0  0
   -4.5466    8.6250    0.0000 C   0  0  0  0  0  0  0  0  0  0  0  0
   -5.8457    7.8750    0.0000 C   0  0  0  0  0  0  0  0  0  0  0  0
   -7.1447    8.6250    0.0000 C   0  0  0  0  0  0  0  0  0  0  0  0
   -8.4437    7.8750    0.0000 C   0  0  0  0  0  0  0  0  0  0  0  0
   -9.7428    8.6250    0.0000 C   0  0  0  0  0  0  0  0  0  0  0  0
  -12.3409    8.6250    0.0000 C   0  0  0  0  0  0  0  0  0  0  0  0
  -13.6399    7.8750    0.0000 O   0  0  0  0  0  0  0  0  0  0  0  0
  -11.0418    7.8750    0.0000 O   0  0  0  0  0  0  0  0  0  0  0  0
  2  1  1  0
  3  2  1  0
  4  3  1  0
  5  4  1  0
  6  5  1  0
  7  6  1  0
  8  7  1  0
  9  8  1  0
 10  9  1  0
 11 10  1  0
 12 11  1  0
 14 13  2  0
 15 12  1  0
 15 13  1  0
M  END
>  <NAME>  (4014) 
DODECYL FORMATE

>  <SYNONYMS>  (4014) 
FORMIC ACID DODECYL ESTER

>  <SPECTRUM TYPE>  (4014) 
MS1

>  <INSTRUMENT TYPE>  (4014) 
EI-B

>  <INSTRUMENT>  (4014) 
HITACHI M-80B

>  <ION MODE>  (4014) 
P

>  <INCHIKEY>  (4014) 
WPSGFSPBRBRLIQ-UHFFFAOYSA-N

>  <FORMULA>  (4014) 
C13H26O2

>  <EXACT MASS>  (4014) 
214.193280072

>  <MW>  (4014) 
214

>  <ID>  (4014) 
JP006470

>  <CONTRIBUTOR>  (4014) 
University of Tokyo Team, {Faculty of Engineering, University of Tokyo

>  <COMMENT>  (4014) 
SMILES=CCCCCCCCCCCCOC=O
InChI=InChI=1S/C13H26O2/c1-2-3-4-5-6-7-8-9-10-11-12-15-13-14/h13H,2-12H2,1H3
computed SMILES=O=COCCCCCCCCCCCC
accession=JP006470
date=2016.01.19 (Created 2008.10.21, modified 2011.05.06)
author=HISAHIRO HAGIWARA, CHEMICAL RESEARCH INSTITUTE OF NON-AQUEOUSSOLUTIONS TOHOKU UNIV.
license=CC BY-NC-SA
exact mass=214.19328
ionization energy=70 eV
ion type=[M]+*
computed spectral entropy=3.2022909671543576
computed normalized entropy=0.8317320005425369
SPLASH=splash10-0a4l-9000000000-59a4e02c212bba8aa54a
submitter=submitter = University of Tokyo Team (Faculty of Engineering, University of Tokyo)
MoNA Rating=3.75

>  <NUM PEAKS>  (4014) 
47

>  <MASS SPECTRAL PEAKS>  (4014) 
27 24.3
28 6.9
29 54.34
30 1.52
31 36.29
39 17.69
40 3.91
41 95.37
42 32.3
43 92.55
44 3.37
45 2.09
47 2.69
53 5.42
54 11.81
55 99.99
56 70.26
57 55.62
58 2.18
59 1.21
66 1.3
67 10.77
68 26.35
69 74.25
70 53.87
71 18.44
79 1.18
81 4.68
82 26.88
83 59.91
84 31.06
85 7.38
95 1.04
96 7.74
97 34.99
98 18.71
99 1.76
110 2.32
111 17.16
112 7.59
113 1.12
125 5.4
126 3.63
139 1.47
140 9.55
141 1.01
168 4.49

$$$$

     RDKit          2D

 11 10  0  0  0  0  0  0  0  0999 V2000
    3.2476    5.6250    0.0000 C   0  0  0  0  0  0  0  0  0  0  0  0
    1.9486    6.3750    0.0000 C   0  0  0  0  0  0  0  0  0  0  0  0
    0.6495    5.6250    0.0000 C   0  0  0  0  0  0  0  0  0  0  0  0
   -0.6495    6.3750    0.0000 C   0  0  0  0  0  0  0  0  0  0  0  0
   -1.9486    5.6250    0.0000 C   0  0  0  0  0  0  0  0  0  0  0  0
   -3.2476    6.3750    0.0000 C   0  0  0  0  0  0  0  0  0  0  0  0
   -4.5466    5.6250    0.0000 C   0  0  0  0  0  0  0  0  0  0  0  0
   -5.8457    6.3750    0.0000 C   0  0  0  0  0  0  0  0  0  0  0  0
   -8.4437    6.3750    0.0000 C   0  0  0  0  0  0  0  0  0  0  0  0
   -9.7428    5.6250    0.0000 O   0  0  0  0  0  0  0  0  0  0  0  0
   -7.1447    5.6250    0.0000 O   0  0  0  0  0  0  0  0  0  0  0  0
  2  1  1  0
  3  2  1  0
  4  3  1  0
  5  4  1  0
  6  5  1  0
  7  6  1  0
  8  7  1  0
 10  9  2  0
 11  8  1  0
 11  9  1  0
M  END
>  <NAME>  (4015) 
OCTYL FORMATE

>  <SYNONYMS>  (4015) 
FORMIC ACID OCTYL ESTER

>  <SPECTRUM TYPE>  (4015) 
MS1

>  <INSTRUMENT TYPE>  (4015) 
EI-B

>  <INSTRUMENT>  (4015) 
HITACHI M-80B

>  <ION MODE>  (4015) 
P

>  <INCHIKEY>  (4015) 
AVBRYQRTMPHARE-UHFFFAOYSA-N

>  <FORMULA>  (4015) 
C9H18O2

>  <EXACT MASS>  (4015) 
158.130679816

>  <MW>  (4015) 
158

>  <ID>  (4015) 
JP006469

>  <CONTRIBUTOR>  (4015) 
University of Tokyo Team, {Faculty of Engineering, University of Tokyo

>  <COMMENT>  (4015) 
SMILES=CCCCCCCCOC=O
InChI=InChI=1S/C9H18O2/c1-2-3-4-5-6-7-8-11-9-10/h9H,2-8H2,1H3
computed SMILES=O=COCCCCCCCC
accession=JP006469
date=2016.01.19 (Created 2008.10.21, modified 2011.05.06)
author=HISAHIRO HAGIWARA, CHEMICAL RESEARCH INSTITUTE OF NON-AQUEOUSSOLUTIONS TOHOKU UNIV.
license=CC BY-NC-SA
exact mass=158.13068
ionization energy=70 eV
ion type=[M]+*
computed spectral entropy=2.968932699883824
computed normalized entropy=0.8103951800620961
SPLASH=splash10-052f-9000000000-cbe2919f6eb92dc376af
submitter=submitter = University of Tokyo Team (Faculty of Engineering, University of Tokyo)
MoNA Rating=3.75

>  <NUM PEAKS>  (4015) 
39

>  <MASS SPECTRAL PEAKS>  (4015) 
15 1.58
18 1.7
19 1.2
26 1.72
27 35.76
28 11.38
29 56.84
30 1.46
31 39.92
39 25.1
40 4.53
41 99.99
42 55.04
43 75.3
44 3.66
45 3.3
47 3.55
51 1.27
53 5.28
54 7.44
55 86.5
56 95
57 30.75
58 1.32
59 1.24
67 5.93
68 20.81
69 56.47
70 74.08
71 10.61
73 1
81 1.14
82 11.38
83 47.3
84 57.43
85 3.15
87 2.07
97 3.7
112 5.16

$$$$

     RDKit          2D

 10  9  0  0  0  0  0  0  0  0999 V2000
   -8.4437    5.6250    0.0000 C   0  0  0  0  0  0  0  0  0  0  0  0
   -7.1447    4.8750    0.0000 C   0  0  0  0  0  0  0  0  0  0  0  0
   -5.8457    5.6250    0.0000 C   0  0  0  0  0  0  0  0  0  0  0  0
   -4.5466    4.8750    0.0000 C   0  0  0  0  0  0  0  0  0  0  0  0
   -3.2476    5.6250    0.0000 C   0  0  0  0  0  0  0  0  0  0  0  0
   -1.9486    4.8750    0.0000 C   0  0  0  0  0  0  0  0  0  0  0  0
   -0.6495    5.6250    0.0000 C   0  0  0  0  0  0  0  0  0  0  0  0
    1.9486    5.6250    0.0000 C   0  0  0  0  0  0  0  0  0  0  0  0
    3.2476    4.8750    0.0000 O   0  0  0  0  0  0  0  0  0  0  0  0
    0.6495    4.8750    0.0000 O   0  0  0  0  0  0  0  0  0  0  0  0
  2  1  1  0
  3  2  1  0
  4  3  1  0
  5  4  1  0
  6  5  1  0
  7  6  1  0
  9  8  2  0
 10  7  1  0
 10  8  1  0
M  END
>  <NAME>  (4016) 
HEPTYL FORMATE

>  <SYNONYMS>  (4016) 
FORMIC ACID HEPTYL ESTER

>  <SPECTRUM TYPE>  (4016) 
MS1

>  <INSTRUMENT TYPE>  (4016) 
EI-B

>  <INSTRUMENT>  (4016) 
HITACHI M-80B

>  <ION MODE>  (4016) 
P

>  <INCHIKEY>  (4016) 
XEAMDSXSXYAICO-UHFFFAOYSA-N

>  <FORMULA>  (4016) 
C8H16O2

>  <EXACT MASS>  (4016) 
144.115029752

>  <MW>  (4016) 
144

>  <ID>  (4016) 
JP006468

>  <CONTRIBUTOR>  (4016) 
University of Tokyo Team, {Faculty of Engineering, University of Tokyo

>  <COMMENT>  (4016) 
SMILES=CCCCCCCOC=O
InChI=InChI=1S/C8H16O2/c1-2-3-4-5-6-7-10-8-9/h8H,2-7H2,1H3
computed SMILES=O=COCCCCCCC
accession=JP006468
date=2016.01.19 (Created 2008.10.21, modified 2011.05.06)
author=HISAHIRO HAGIWARA, CHEMICAL RESEARCH INSTITUTE OF NON-AQUEOUSSOLUTIONS TOHOKU UNIV.
license=CC BY-NC-SA
exact mass=144.11503
ionization energy=70 eV
ion type=[M]+*
computed spectral entropy=2.800426276193832
computed normalized entropy=0.7941406605039778
SPLASH=splash10-0596-9000000000-0a8140eee1ea9cb86948
submitter=submitter = University of Tokyo Team (Faculty of Engineering, University of Tokyo)
MoNA Rating=3.75

>  <NUM PEAKS>  (4016) 
34

>  <MASS SPECTRAL PEAKS>  (4016) 
15 1.26
26 1.75
27 32.26
28 10.46
29 44.95
30 1.58
31 33.96
39 22.37
40 4.15
41 84.74
42 45.73
43 44.55
44 3.1
45 2.99
47 3.12
51 1.26
53 4.24
54 8.34
55 63.97
56 99.99
57 24.29
58 1.13
59 1.03
67 2.93
68 15.07
69 54.65
70 95.08
71 5.08
73 1.71
83 8.98
84 1.24
87 2.37
98 10.01
99 1.03

$$$$

     RDKit          2D

  9  8  0  0  0  0  0  0  0  0999 V2000
    2.5981    4.5000    0.0000 C   0  0  0  0  0  0  0  0  0  0  0  0
    1.2990    5.2500    0.0000 C   0  0  0  0  0  0  0  0  0  0  0  0
    0.0000    4.5000    0.0000 C   0  0  0  0  0  0  0  0  0  0  0  0
   -1.2990    5.2500    0.0000 C   0  0  0  0  0  0  0  0  0  0  0  0
   -2.5981    4.5000    0.0000 C   0  0  0  0  0  0  0  0  0  0  0  0
   -3.8971    5.2500    0.0000 C   0  0  0  0  0  0  0  0  0  0  0  0
   -6.4952    5.2500    0.0000 C   0  0  0  0  0  0  0  0  0  0  0  0
   -7.7942    4.5000    0.0000 O   0  0  0  0  0  0  0  0  0  0  0  0
   -5.1962    4.5000    0.0000 O   0  0  0  0  0  0  0  0  0  0  0  0
  2  1  1  0
  3  2  1  0
  4  3  1  0
  5  4  1  0
  6  5  1  0
  8  7  2  0
  9  6  1  0
  9  7  1  0
M  END
>  <NAME>  (4017) 
HEXYL FORMATE

>  <SYNONYMS>  (4017) 
FORMIC ACID HEXYL ESTER

>  <SPECTRUM TYPE>  (4017) 
MS1

>  <INSTRUMENT TYPE>  (4017) 
EI-B

>  <INSTRUMENT>  (4017) 
HITACHI M-80B

>  <ION MODE>  (4017) 
P

>  <INCHIKEY>  (4017) 
OUGPMNMLWKSBRI-UHFFFAOYSA-N

>  <FORMULA>  (4017) 
C7H14O2

>  <EXACT MASS>  (4017) 
130.099379688

>  <MW>  (4017) 
130

>  <ID>  (4017) 
JP006467

>  <CONTRIBUTOR>  (4017) 
University of Tokyo Team, {Faculty of Engineering, University of Tokyo

>  <COMMENT>  (4017) 
SMILES=CCCCCCOC=O
InChI=InChI=1S/C7H14O2/c1-2-3-4-5-6-9-7-8/h7H,2-6H2,1H3
computed SMILES=O=COCCCCCC
accession=JP006467
date=2016.01.19 (Created 2008.10.21, modified 2011.05.06)
author=HISAHIRO HAGIWARA, CHEMICAL RESEARCH INSTITUTE OF NON-AQUEOUSSOLUTIONS TOHOKU UNIV.
license=CC BY-NC-SA
exact mass=130.09938
ionization energy=70 eV
ion type=[M]+*
computed spectral entropy=2.5916332816099374
computed normalized entropy=0.7863354246510007
SPLASH=splash10-0a4l-9000000000-d682a6e12d33e8c3346c
submitter=submitter = University of Tokyo Team (Faculty of Engineering, University of Tokyo)
MoNA Rating=3.75

>  <NUM PEAKS>  (4017) 
27

>  <MASS SPECTRAL PEAKS>  (4017) 
15 1.05
26 1.6
27 25.29
28 7.81
29 32.26
31 26.68
39 16.81
40 2.95
41 46.58
42 43
43 44.53
44 2.7
45 2.45
47 2.38
53 2.28
54 4.35
55 47.35
56 99.99
57 6.95
59 1.06
67 1.38
69 28.13
70 1.46
73 1.36
84 14.6
85 1.24
87 2.29

$$$$

     RDKit          2D

  9  8  0  0  0  0  0  0  0  0999 V2000
   -3.5724    2.8125    0.0000 C   0  0  0  0  0  0  0  0  0  0  0  0
   -2.2733    3.5625    0.0000 C   0  0  0  0  0  0  0  0  0  0  0  0
   -2.2733    5.0625    0.0000 C   0  0  0  0  0  0  0  0  0  0  0  0
   -0.9743    5.8125    0.0000 C   0  0  0  0  0  0  0  0  0  0  0  0
    0.3248    5.0625    0.0000 C   0  0  0  0  0  0  0  0  0  0  0  0
    1.6238    5.8125    0.0000 C   0  0  0  0  0  0  0  0  0  0  0  0
    4.2219    5.8125    0.0000 C   0  0  0  0  0  0  0  0  0  0  0  0
    5.5209    5.0625    0.0000 O   0  0  0  0  0  0  0  0  0  0  0  0
    2.9228    5.0625    0.0000 O   0  0  0  0  0  0  0  0  0  0  0  0
  2  1  1  0
  3  2  1  0
  3  4  2  0
  5  4  1  0
  6  5  1  0
  8  7  2  0
  9  6  1  0
  9  7  1  0
M  END
>  <NAME>  (4018) 
CIS-3-HEXENYL FORMATE

>  <SYNONYMS>  (4018) 


>  <SPECTRUM TYPE>  (4018) 
MS1

>  <INSTRUMENT TYPE>  (4018) 
EI-B

>  <INSTRUMENT>  (4018) 
HITACHI M-80B

>  <ION MODE>  (4018) 
P

>  <INCHIKEY>  (4018) 
XJHQVZQZUGLZLS-ARJAWSKDSA-N

>  <FORMULA>  (4018) 
C7H12O2

>  <EXACT MASS>  (4018) 
128.083729624

>  <MW>  (4018) 
128

>  <ID>  (4018) 
JP006466

>  <CONTRIBUTOR>  (4018) 
University of Tokyo Team, {Faculty of Engineering, University of Tokyo

>  <COMMENT>  (4018) 
SMILES=CCC=CCCOC=O
InChI=InChI=1S/C7H12O2/c1-2-3-4-5-6-9-7-8/h3-4,7H,2,5-6H2,1H3/b4-3-
computed SMILES=O=COCCC=CCC
accession=JP006466
date=2016.01.19 (Created 2008.10.21, modified 2011.05.06)
author=HISAHIRO HAGIWARA, CHEMICAL RESEARCH INSTITUTE OF NON-AQUEOUSSOLUTIONS TOHOKU UNIV.
license=CC BY-NC-SA
exact mass=128.08373
ionization energy=70 eV
ion type=[M]+*
computed spectral entropy=2.5142423503400044
computed normalized entropy=0.7545282237817414
SPLASH=splash10-0159-9000000000-1c09c0f93f23217a1899
submitter=submitter = University of Tokyo Team (Faculty of Engineering, University of Tokyo)
MoNA Rating=3.75

>  <NUM PEAKS>  (4018) 
28

>  <MASS SPECTRAL PEAKS>  (4018) 
26 1.07
27 12.71
28 2.18
29 12.2
31 16.13
38 1.34
39 19.91
40 3.5
41 48.33
42 6.93
43 2.99
50 1.55
51 2.15
52 1.16
53 8.98
54 12.62
55 15.44
56 1.56
57 2.49
65 1.96
66 1.19
67 99.99
68 6.42
69 7.63
79 1.3
81 7.41
82 54.75
83 5.07

$$$$

     RDKit          2D

  8  7  0  0  0  0  0  0  0  0999 V2000
    2.2733    2.8125    0.0000 C   0  0  0  0  0  0  0  0  0  0  0  0
    0.9743    5.0625    0.0000 C   0  0  0  0  0  0  0  0  0  0  0  0
   -0.3248    2.8125    0.0000 C   0  0  0  0  0  0  0  0  0  0  0  0
   -1.6238    3.5625    0.0000 C   0  0  0  0  0  0  0  0  0  0  0  0
   -4.2219    3.5625    0.0000 C   0  0  0  0  0  0  0  0  0  0  0  0
    0.9743    3.5625    0.0000 C   0  0  0  0  0  0  0  0  0  0  0  0
   -5.5209    2.8125    0.0000 O   0  0  0  0  0  0  0  0  0  0  0  0
   -2.9228    2.8125    0.0000 O   0  0  0  0  0  0  0  0  0  0  0  0
  4  3  1  0
  6  1  1  0
  6  2  1  0
  6  3  1  0
  7  5  2  0
  8  4  1  0
  8  5  1  0
M  END
>  <NAME>  (4019) 
ISOPENTYL FORMATE

>  <SYNONYMS>  (4019) 
3-METHYLBUTYL FORMATE

>  <SPECTRUM TYPE>  (4019) 
MS1

>  <INSTRUMENT TYPE>  (4019) 
EI-B

>  <INSTRUMENT>  (4019) 
HITACHI M-80B

>  <ION MODE>  (4019) 
P

>  <INCHIKEY>  (4019) 
XKYICAQFSCFURC-UHFFFAOYSA-N

>  <FORMULA>  (4019) 
C6H12O2

>  <EXACT MASS>  (4019) 
116.083729624

>  <MW>  (4019) 
116

>  <ID>  (4019) 
JP006465

>  <CONTRIBUTOR>  (4019) 
University of Tokyo Team, {Faculty of Engineering, University of Tokyo

>  <COMMENT>  (4019) 
SMILES=O=COCCC(C)C
InChI=InChI=1S/C6H12O2/c1-6(2)3-4-8-5-7/h5-6H,3-4H2,1-2H3
computed SMILES=O=COCCC(C)C
accession=JP006465
date=2016.01.19 (Created 2008.10.21, modified 2011.05.06)
author=HISAHIRO HAGIWARA, CHEMICAL RESEARCH INSTITUTE OF NON-AQUEOUSSOLUTIONS TOHOKU UNIV.
license=CC BY-NC-SA
exact mass=116.08373
ionization energy=70 eV
ion type=[M]+*
computed spectral entropy=2.6683382312511634
computed normalized entropy=0.8096087093309607
SPLASH=splash10-0596-9000000000-6670002cf25236290167
submitter=submitter = University of Tokyo Team (Faculty of Engineering, University of Tokyo)
MoNA Rating=3.75

>  <NUM PEAKS>  (4019) 
27

>  <MASS SPECTRAL PEAKS>  (4019) 
15 1.26
18 1.41
26 1.55
27 23.43
28 15.83
29 24.69
31 21.78
38 1.42
39 22.45
40 3.27
41 44.35
42 39.6
43 47.6
44 2.04
45 8.45
47 6.15
51 1.28
53 3.99
54 1.95
55 99.99
56 5.69
57 6.39
69 5.49
70 79.38
71 5.48
73 22.11
74 21.31

$$$$

     RDKit          2D

  8  7  0  0  0  0  0  0  0  0999 V2000
   -6.4952    4.5000    0.0000 C   0  0  0  0  0  0  0  0  0  0  0  0
   -5.1962    3.7500    0.0000 C   0  0  0  0  0  0  0  0  0  0  0  0
   -3.8971    4.5000    0.0000 C   0  0  0  0  0  0  0  0  0  0  0  0
   -2.5981    3.7500    0.0000 C   0  0  0  0  0  0  0  0  0  0  0  0
   -1.2990    4.5000    0.0000 C   0  0  0  0  0  0  0  0  0  0  0  0
    1.2990    4.5000    0.0000 C   0  0  0  0  0  0  0  0  0  0  0  0
    2.5981    3.7500    0.0000 O   0  0  0  0  0  0  0  0  0  0  0  0
    0.0000    3.7500    0.0000 O   0  0  0  0  0  0  0  0  0  0  0  0
  2  1  1  0
  3  2  1  0
  4  3  1  0
  5  4  1  0
  7  6  2  0
  8  5  1  0
  8  6  1  0
M  END
>  <NAME>  (4020) 
PENTYL FORMATE

>  <SYNONYMS>  (4020) 
AMYL FORMATE

>  <SPECTRUM TYPE>  (4020) 
MS1

>  <INSTRUMENT TYPE>  (4020) 
EI-B

>  <INSTRUMENT>  (4020) 
HITACHI M-80B

>  <ION MODE>  (4020) 
P

>  <INCHIKEY>  (4020) 
DIQMPQMYFZXDAX-UHFFFAOYSA-N

>  <FORMULA>  (4020) 
C6H12O2

>  <EXACT MASS>  (4020) 
116.083729624

>  <MW>  (4020) 
116

>  <ID>  (4020) 
JP006464

>  <CONTRIBUTOR>  (4020) 
University of Tokyo Team, {Faculty of Engineering, University of Tokyo

>  <COMMENT>  (4020) 
SMILES=CCCCCOC=O
InChI=InChI=1S/C6H12O2/c1-2-3-4-5-8-6-7/h6H,2-5H2,1H3
computed SMILES=O=COCCCCC
accession=JP006464
date=2016.01.19 (Created 2008.10.21, modified 2011.05.06)
author=HISAHIRO HAGIWARA, CHEMICAL RESEARCH INSTITUTE OF NON-AQUEOUSSOLUTIONS TOHOKU UNIV.
license=CC BY-NC-SA
exact mass=116.08373
ionization energy=70 eV
ion type=[M]+*
computed spectral entropy=2.6027685228025383
computed normalized entropy=0.7897140024281528
SPLASH=splash10-002f-9000000000-33963b0f66346230ad8e
submitter=submitter = University of Tokyo Team (Faculty of Engineering, University of Tokyo)
MoNA Rating=3.75

>  <NUM PEAKS>  (4020) 
27

>  <MASS SPECTRAL PEAKS>  (4020) 
15 2.09
26 2.85
27 32.26
28 11.53
29 48.65
30 1.42
31 43.15
38 1.53
39 21.51
40 3.92
41 50.51
42 99.99
43 24.59
44 2.58
45 5.15
47 8.98
53 2.41
54 1.46
55 69.7
56 9.32
57 7.5
59 2.17
69 4.12
70 66.07
71 4.61
73 3
87 5.14

$$$$

     RDKit          2D

  7  6  0  0  0  0  0  0  0  0999 V2000
   -3.5724    3.9375    0.0000 C   0  0  0  0  0  0  0  0  0  0  0  0
   -2.2733    1.6875    0.0000 C   0  0  0  0  0  0  0  0  0  0  0  0
   -0.9743    3.9375    0.0000 C   0  0  0  0  0  0  0  0  0  0  0  0
    1.6238    3.9375    0.0000 C   0  0  0  0  0  0  0  0  0  0  0  0
   -2.2733    3.1875    0.0000 C   0  0  0  0  0  0  0  0  0  0  0  0
    2.9228    3.1875    0.0000 O   0  0  0  0  0  0  0  0  0  0  0  0
    0.3248    3.1875    0.0000 O   0  0  0  0  0  0  0  0  0  0  0  0
  5  1  1  0
  5  2  1  0
  5  3  1  0
  6  4  2  0
  7  3  1  0
  7  4  1  0
M  END
>  <NAME>  (4021) 
ISOBUTYL FORMATE

>  <SYNONYMS>  (4021) 
2-METHYLPROPYL FORMATE

>  <SPECTRUM TYPE>  (4021) 
MS1

>  <INSTRUMENT TYPE>  (4021) 
EI-B

>  <INSTRUMENT>  (4021) 
HITACHI M-80B

>  <ION MODE>  (4021) 
P

>  <INCHIKEY>  (4021) 
AVMSWPWPYJVYKY-UHFFFAOYSA-N

>  <FORMULA>  (4021) 
C5H10O2

>  <EXACT MASS>  (4021) 
102.06807956

>  <MW>  (4021) 
102

>  <ID>  (4021) 
JP006463

>  <CONTRIBUTOR>  (4021) 
University of Tokyo Team, {Faculty of Engineering, University of Tokyo

>  <COMMENT>  (4021) 
SMILES=O=COCC(C)C
InChI=InChI=1S/C5H10O2/c1-5(2)3-7-4-6/h4-5H,3H2,1-2H3
computed SMILES=O=COCC(C)C
accession=JP006463
date=2016.01.19 (Created 2008.10.21, modified 2011.05.06)
author=HISAHIRO HAGIWARA, CHEMICAL RESEARCH INSTITUTE OF NON-AQUEOUSSOLUTIONS TOHOKU UNIV.
license=CC BY-NC-SA
exact mass=102.06808
ionization energy=70 eV
ion type=[M]+*
computed spectral entropy=2.409593981463751
computed normalized entropy=0.7684893721769183
SPLASH=splash10-052f-9000000000-20bd4fc945c5dd133050
submitter=submitter = University of Tokyo Team (Faculty of Engineering, University of Tokyo)
MoNA Rating=3.75

>  <NUM PEAKS>  (4021) 
23

>  <MASS SPECTRAL PEAKS>  (4021) 
26 2.09
27 29.62
28 5.34
29 28.33
30 1.32
31 46.37
32 4.44
33 1.03
38 2.28
40 4.84
41 71.23
42 20.23
43 93.52
44 3.22
45 2.01
53 1.31
55 8.19
56 99.99
57 9.93
59 8.5
60 46.94
61 13.47
73 1.41

$$$$

     RDKit          2D

  7  6  0  0  0  0  0  0  0  0999 V2000
    1.9486    3.3750    0.0000 C   0  0  0  0  0  0  0  0  0  0  0  0
    0.6495    4.1250    0.0000 C   0  0  0  0  0  0  0  0  0  0  0  0
   -0.6495    3.3750    0.0000 C   0  0  0  0  0  0  0  0  0  0  0  0
   -1.9486    4.1250    0.0000 C   0  0  0  0  0  0  0  0  0  0  0  0
   -4.5466    4.1250    0.0000 C   0  0  0  0  0  0  0  0  0  0  0  0
   -5.8457    3.3750    0.0000 O   0  0  0  0  0  0  0  0  0  0  0  0
   -3.2476    3.3750    0.0000 O   0  0  0  0  0  0  0  0  0  0  0  0
  2  1  1  0
  3  2  1  0
  4  3  1  0
  6  5  2  0
  7  4  1  0
  7  5  1  0
M  END
>  <NAME>  (4022) 
BUTYL FORMATE

>  <SYNONYMS>  (4022) 
FORMIC ACID BUTYL ESTER

>  <SPECTRUM TYPE>  (4022) 
MS1

>  <INSTRUMENT TYPE>  (4022) 
EI-B

>  <INSTRUMENT>  (4022) 
HITACHI M-80B

>  <ION MODE>  (4022) 
P

>  <INCHIKEY>  (4022) 
NMJJFJNHVMGPGM-UHFFFAOYSA-N

>  <FORMULA>  (4022) 
C5H10O2

>  <EXACT MASS>  (4022) 
102.06807956

>  <MW>  (4022) 
102

>  <ID>  (4022) 
JP006462

>  <CONTRIBUTOR>  (4022) 
University of Tokyo Team, {Faculty of Engineering, University of Tokyo

>  <COMMENT>  (4022) 
SMILES=CCCCOC=O
InChI=InChI=1S/C5H10O2/c1-2-3-4-7-5-6/h5H,2-4H2,1H3
computed SMILES=O=COCCCC
accession=JP006462
date=2016.01.19 (Created 2008.10.21, modified 2011.05.06)
author=HISAHIRO HAGIWARA, CHEMICAL RESEARCH INSTITUTE OF NON-AQUEOUSSOLUTIONS TOHOKU UNIV.
license=CC BY-NC-SA
exact mass=102.06808
ionization energy=70 eV
ion type=[M]+*
computed spectral entropy=2.4722663764892876
computed normalized entropy=0.758806974452206
SPLASH=splash10-0a6u-9000000000-69a6b7dc8e0c0a8fb002
submitter=submitter = University of Tokyo Team (Faculty of Engineering, University of Tokyo)
MoNA Rating=3.75

>  <NUM PEAKS>  (4022) 
26

>  <MASS SPECTRAL PEAKS>  (4022) 
15 1.88
18 3.08
19 1.12
26 3.85
27 28.38
28 13.97
29 32.3
30 1.42
31 51.43
32 1.14
38 1.45
39 14.28
40 3.12
41 55.71
42 8.47
43 18.43
44 3.02
45 6.45
47 3.24
53 1.06
55 10.56
56 99.99
57 8.04
59 1.79
60 2.48
73 6.49

$$$$

     RDKit          2D

  6  5  0  0  0  0  0  0  0  0999 V2000
    0.0000    0.0000    0.0000 C   0  0  0  0  0  0  0  0  0  0  0  0
    1.2990    2.2500    0.0000 C   0  0  0  0  0  0  0  0  0  0  0  0
   -1.2990    3.7500    0.0000 C   0  0  0  0  0  0  0  0  0  0  0  0
    0.0000    1.5000    0.0000 C   0  0  0  0  0  0  0  0  0  0  0  0
   -2.5981    4.5000    0.0000 O   0  0  0  0  0  0  0  0  0  0  0  0
   -1.2990    2.2500    0.0000 O   0  0  0  0  0  0  0  0  0  0  0  0
  4  1  1  0
  4  2  1  0
  5  3  2  0
  6  3  1  0
  6  4  1  0
M  END
>  <NAME>  (4023) 
ISOPROPYL FORMATE

>  <SYNONYMS>  (4023) 
1-METHYLETHYL FORMATE

>  <SPECTRUM TYPE>  (4023) 
MS1

>  <INSTRUMENT TYPE>  (4023) 
EI-B

>  <INSTRUMENT>  (4023) 
HITACHI M-80B

>  <ION MODE>  (4023) 
P

>  <INCHIKEY>  (4023) 
RMOUBSOVHSONPZ-UHFFFAOYSA-N

>  <FORMULA>  (4023) 
C4H8O2

>  <EXACT MASS>  (4023) 
88.052429496

>  <MW>  (4023) 
88

>  <ID>  (4023) 
JP006461

>  <CONTRIBUTOR>  (4023) 
University of Tokyo Team, {Faculty of Engineering, University of Tokyo

>  <COMMENT>  (4023) 
SMILES=O=COC(C)C
computed SMILES=O=COC(C)C
InChI=InChI=1S/C4H8O2/c1-4(2)6-3-5/h3-4H,1-2H3
accession=JP006461
date=2016.01.19 (Created 2008.10.21, modified 2011.05.06)
author=HISAHIRO HAGIWARA, CHEMICAL RESEARCH INSTITUTE OF NON-AQUEOUSSOLUTIONS TOHOKU UNIV.
license=CC BY-NC-SA
exact mass=88.05243
ionization energy=70 eV
ion type=[M]+*
computed spectral entropy=2.2291023854882717
computed normalized entropy=0.7712164981541282
SPLASH=splash10-0007-9000000000-0968ec9561e5c96369e0
submitter=submitter = University of Tokyo Team (Faculty of Engineering, University of Tokyo)
MoNA Rating=3.75

>  <NUM PEAKS>  (4023) 
18

>  <MASS SPECTRAL PEAKS>  (4023) 
26 2.12
27 22.15
28 1.74
29 17.75
31 4.53
37 1.11
38 2.67
39 15.04
40 3.06
41 35.26
42 42.57
43 36.72
44 2.24
45 99.99
46 2.02
47 6.9
59 5.94
73 20.69

$$$$

     RDKit          2D

  6  5  0  0  0  0  0  0  0  0999 V2000
   -4.5466    3.3750    0.0000 C   0  0  0  0  0  0  0  0  0  0  0  0
   -3.2476    2.6250    0.0000 C   0  0  0  0  0  0  0  0  0  0  0  0
   -1.9486    3.3750    0.0000 C   0  0  0  0  0  0  0  0  0  0  0  0
    0.6495    3.3750    0.0000 C   0  0  0  0  0  0  0  0  0  0  0  0
    1.9486    2.6250    0.0000 O   0  0  0  0  0  0  0  0  0  0  0  0
   -0.6495    2.6250    0.0000 O   0  0  0  0  0  0  0  0  0  0  0  0
  2  1  1  0
  3  2  1  0
  5  4  2  0
  6  3  1  0
  6  4  1  0
M  END
>  <NAME>  (4024) 
PROPYL FORMATE

>  <SYNONYMS>  (4024) 
FORMIC ACID PROPYL ESTER

>  <SPECTRUM TYPE>  (4024) 
MS1

>  <INSTRUMENT TYPE>  (4024) 
EI-B

>  <INSTRUMENT>  (4024) 
HITACHI M-80B

>  <ION MODE>  (4024) 
P

>  <INCHIKEY>  (4024) 
KFNNIILCVOLYIR-UHFFFAOYSA-N

>  <FORMULA>  (4024) 
C4H8O2

>  <EXACT MASS>  (4024) 
88.052429496

>  <MW>  (4024) 
88

>  <ID>  (4024) 
JP006460

>  <CONTRIBUTOR>  (4024) 
University of Tokyo Team, {Faculty of Engineering, University of Tokyo

>  <COMMENT>  (4024) 
SMILES=CCCOC=O
InChI=InChI=1S/C4H8O2/c1-2-3-6-4-5/h4H,2-3H2,1H3
computed SMILES=O=COCCC
accession=JP006460
date=2016.01.19 (Created 2008.10.21, modified 2011.05.06)
author=HISAHIRO HAGIWARA, CHEMICAL RESEARCH INSTITUTE OF NON-AQUEOUSSOLUTIONS TOHOKU UNIV.
license=CC BY-NC-SA
exact mass=88.05243
ionization energy=70 eV
ion type=[M]+*
computed spectral entropy=2.1780606750331395
computed normalized entropy=0.7397200928408237
SPLASH=splash10-000x-9000000000-01e41fef56d5b1410091
submitter=submitter = University of Tokyo Team (Faculty of Engineering, University of Tokyo)
MoNA Rating=3.75

>  <NUM PEAKS>  (4024) 
19

>  <MASS SPECTRAL PEAKS>  (4024) 
15 4.32
26 5.68
27 27.04
28 3.73
29 26.82
30 3.49
31 99.99
32 1.01
38 1.73
39 10.82
40 3.16
41 22.49
42 78.14
43 12.07
45 7.64
46 1.97
47 8.9
57 4.51
59 3.79

$$$$

     RDKit          2D

  6  5  0  0  0  0  0  0  0  0999 V2000
   -4.5466    3.3750    0.0000 C   0  0  0  0  0  0  0  0  0  0  0  0
   -3.2476    2.6250    0.0000 C   0  0  0  0  0  0  0  0  0  0  0  0
   -1.9486    3.3750    0.0000 C   0  0  0  0  0  0  0  0  0  0  0  0
    0.6495    3.3750    0.0000 C   0  0  0  0  0  0  0  0  0  0  0  0
    1.9486    2.6250    0.0000 O   0  0  0  0  0  0  0  0  0  0  0  0
   -0.6495    2.6250    0.0000 O   0  0  0  0  0  0  0  0  0  0  0  0
  2  1  2  0
  3  2  1  0
  5  4  2  0
  6  3  1  0
  6  4  1  0
M  END
>  <NAME>  (4025) 
ALLYL FORMATE

>  <SYNONYMS>  (4025) 
2-PROPENYL FORMATE

>  <SPECTRUM TYPE>  (4025) 
MS1

>  <INSTRUMENT TYPE>  (4025) 
EI-B

>  <INSTRUMENT>  (4025) 
HITACHI M-80B

>  <ION MODE>  (4025) 
P

>  <INCHIKEY>  (4025) 
ZHHZHHSFKCANOC-UHFFFAOYSA-N

>  <FORMULA>  (4025) 
C4H6O2

>  <EXACT MASS>  (4025) 
86.036779432

>  <MW>  (4025) 
86

>  <ID>  (4025) 
JP006459

>  <CONTRIBUTOR>  (4025) 
University of Tokyo Team, {Faculty of Engineering, University of Tokyo

>  <COMMENT>  (4025) 
SMILES=C=CCOC=O
InChI=InChI=1S/C4H6O2/c1-2-3-6-4-5/h2,4H,1,3H2
computed SMILES=O=COCC=C
accession=JP006459
date=2016.01.19 (Created 2008.10.21, modified 2011.05.06)
author=HISAHIRO HAGIWARA, CHEMICAL RESEARCH INSTITUTE OF NON-AQUEOUSSOLUTIONS TOHOKU UNIV.
license=CC BY-NC-SA
exact mass=86.03678
ionization energy=70 eV
ion type=[M]+*
computed spectral entropy=2.3129620800317725
computed normalized entropy=0.7720857102119433
SPLASH=splash10-0a4i-9000000000-939843670706d3263837
submitter=submitter = University of Tokyo Team (Faculty of Engineering, University of Tokyo)
MoNA Rating=3.75

>  <NUM PEAKS>  (4025) 
20

>  <MASS SPECTRAL PEAKS>  (4025) 
15 1.26
26 5.65
27 15.41
28 7.46
29 32.46
30 7.82
31 18.75
37 3.28
38 7.99
39 50.85
40 17.46
41 22.92
42 1.34
43 3.22
44 1.21
47 2.52
55 2.75
57 99.99
58 26.08
59 1.12

$$$$

     RDKit          2D

  5  4  0  0  0  0  0  0  0  0999 V2000
   -3.8971    2.2500    0.0000 C   0  0  0  0  0  0  0  0  0  0  0  0
   -2.5981    1.5000    0.0000 C   0  0  0  0  0  0  0  0  0  0  0  0
    0.0000    1.5000    0.0000 C   0  0  0  0  0  0  0  0  0  0  0  0
    1.2990    2.2500    0.0000 O   0  0  0  0  0  0  0  0  0  0  0  0
   -1.2990    2.2500    0.0000 O   0  0  0  0  0  0  0  0  0  0  0  0
  2  1  1  0
  4  3  2  0
  5  2  1  0
  5  3  1  0
M  END
>  <NAME>  (4026) 
ETHYL FORMATE

>  <SYNONYMS>  (4026) 
FORMIC ACID ETHYL ESTER

>  <SPECTRUM TYPE>  (4026) 
MS1

>  <INSTRUMENT TYPE>  (4026) 
EI-B

>  <INSTRUMENT>  (4026) 
HITACHI M-80B

>  <ION MODE>  (4026) 
P

>  <INCHIKEY>  (4026) 
WBJINCZRORDGAQ-UHFFFAOYSA-N

>  <FORMULA>  (4026) 
C3H6O2

>  <EXACT MASS>  (4026) 
74.036779432

>  <MW>  (4026) 
74

>  <ID>  (4026) 
JP006458

>  <CONTRIBUTOR>  (4026) 
University of Tokyo Team, {Faculty of Engineering, University of Tokyo

>  <COMMENT>  (4026) 
SMILES=CCOC=O
InChI=InChI=1S/C3H6O2/c1-2-5-3-4/h3H,2H2,1H3
computed SMILES=O=COCC
accession=JP006458
date=2016.01.19 (Created 2008.10.21, modified 2011.05.06)
author=HISAHIRO HAGIWARA, CHEMICAL RESEARCH INSTITUTE OF NON-AQUEOUSSOLUTIONS TOHOKU UNIV.
license=CC BY-NC-SA
exact mass=74.03678
ionization energy=70 eV
ion type=[M]+*
computed spectral entropy=2.0737026921323456
computed normalized entropy=0.7319260642629528
SPLASH=splash10-0059-9000000000-af41fd3c13c388901951
submitter=submitter = University of Tokyo Team (Faculty of Engineering, University of Tokyo)
MoNA Rating=3.75

>  <NUM PEAKS>  (4026) 
17

>  <MASS SPECTRAL PEAKS>  (4026) 
25 1.09
26 13.1
27 45.14
28 77.61
29 62.65
30 5.3
31 99.99
42 2.25
43 10.27
44 2.38
45 33.47
46 1.12
47 9.83
56 2.76
59 1.03
73 1.43
74 9.91

$$$$

     RDKit          2D

  4  3  0  0  0  0  0  0  0  0999 V2000
   -2.5981    2.2500    0.0000 C   0  0  0  0  0  0  0  0  0  0  0  0
    0.0000    2.2500    0.0000 C   0  0  0  0  0  0  0  0  0  0  0  0
    1.2990    1.5000    0.0000 O   0  0  0  0  0  0  0  0  0  0  0  0
   -1.2990    1.5000    0.0000 O   0  0  0  0  0  0  0  0  0  0  0  0
  3  2  2  0
  4  1  1  0
  4  2  1  0
M  END
>  <NAME>  (4027) 
METHYL FORMATE

>  <SYNONYMS>  (4027) 
FORMIC ACID METHYL ESTER

>  <SPECTRUM TYPE>  (4027) 
MS1

>  <INSTRUMENT TYPE>  (4027) 
EI-B

>  <INSTRUMENT>  (4027) 
HITACHI M-80B

>  <ION MODE>  (4027) 
P

>  <INCHIKEY>  (4027) 
TZIHFWKZFHZASV-UHFFFAOYSA-N

>  <FORMULA>  (4027) 
C2H4O2

>  <EXACT MASS>  (4027) 
60.021129368

>  <MW>  (4027) 
60

>  <ID>  (4027) 
JP006457

>  <CONTRIBUTOR>  (4027) 
University of Tokyo Team, {Faculty of Engineering, University of Tokyo

>  <COMMENT>  (4027) 
SMILES=COC=O
InChI=InChI=1S/C2H4O2/c1-4-2-3/h2H,1H3
computed SMILES=O=COC
accession=JP006457
date=2016.01.19 (Created 2008.10.21, modified 2011.05.06)
author=HISAHIRO HAGIWARA, CHEMICAL RESEARCH INSTITUTE OF NON-AQUEOUSSOLUTIONS TOHOKU UNIV.
license=CC BY-NC-SA
exact mass=60.02113
ionization energy=70 eV
ion type=[M]+*
computed spectral entropy=1.512379235758081
computed normalized entropy=0.6883134529614614
SPLASH=splash10-001i-9000000000-b4a6be6f67b4133cfe83
submitter=submitter = University of Tokyo Team (Faculty of Engineering, University of Tokyo)
MoNA Rating=3.75

>  <NUM PEAKS>  (4027) 
9

>  <MASS SPECTRAL PEAKS>  (4027) 
28 2.68
29 65.46
30 6.7
31 99.99
32 35.61
44 1.91
45 1.14
60 37.07
61 1.53

$$$$

     RDKit          2D

  8  7  0  0  0  0  0  0  0  0999 V2000
    1.6238    3.1875    0.0000 C   0  0  0  0  0  0  0  0  0  0  0  0
   -4.8714    3.9375    0.0000 C   0  0  0  0  0  0  0  0  0  0  0  0
   -3.5724    1.6875    0.0000 C   0  0  0  0  0  0  0  0  0  0  0  0
    0.3248    3.9375    0.0000 C   0  0  0  0  0  0  0  0  0  0  0  0
   -2.2733    3.9375    0.0000 C   0  0  0  0  0  0  0  0  0  0  0  0
   -3.5724    3.1875    0.0000 C   0  0  0  0  0  0  0  0  0  0  0  0
   -0.9743    3.1875    0.0000 C   0  0  0  0  0  0  0  0  0  0  0  0
   -0.9743    1.6875    0.0000 O   0  0  0  0  0  0  0  0  0  0  0  0
  4  1  1  0
  6  2  1  0
  6  3  1  0
  6  5  1  0
  7  4  1  0
  7  5  1  0
  8  7  2  0
M  END
>  <NAME>  (4028) 
5-METHYL-3-HEXANONE

>  <SYNONYMS>  (4028) 


>  <SPECTRUM TYPE>  (4028) 
MS1

>  <INSTRUMENT TYPE>  (4028) 
EI-B

>  <INSTRUMENT>  (4028) 
HITACHI M-80B

>  <ION MODE>  (4028) 
P

>  <INCHIKEY>  (4028) 
DXVYLFHTJZWTRF-UHFFFAOYSA-N

>  <FORMULA>  (4028) 
C7H14O

>  <EXACT MASS>  (4028) 
114.104465068

>  <MW>  (4028) 
114

>  <ID>  (4028) 
JP006456

>  <CONTRIBUTOR>  (4028) 
University of Tokyo Team, {Faculty of Engineering, University of Tokyo

>  <COMMENT>  (4028) 
SMILES=CCC(=O)CC(C)C
InChI=InChI=1S/C7H14O/c1-4-7(8)5-6(2)3/h6H,4-5H2,1-3H3
computed SMILES=O=C(CC)CC(C)C
accession=JP006456
date=2016.01.19 (Created 2008.10.21, modified 2011.05.06)
author=HISAHIRO HAGIWARA, CHEMICAL RESEARCH INSTITUTE OF NON-AQUEOUSSOLUTIONS TOHOKU UNIV.
license=CC BY-NC-SA
exact mass=114.10447
ionization energy=70 eV
ion type=[M]+*
computed spectral entropy=2.184589516041762
computed normalized entropy=0.7419374391858551
SPLASH=splash10-0a6r-9000000000-20f5957b32aa208000d9
submitter=submitter = University of Tokyo Team (Faculty of Engineering, University of Tokyo)
MoNA Rating=3.75

>  <NUM PEAKS>  (4028) 
19

>  <MASS SPECTRAL PEAKS>  (4028) 
15 2.04
26 2.04
27 24.99
28 2.06
29 51.23
39 13.4
41 30.07
42 6.06
43 14.16
53 1.24
55 1.98
56 2.5
57 99.99
58 3.92
72 6.7
85 21.85
86 2.24
99 1.74
114 10.03

$$$$

     RDKit          2D

  7  6  0  0  0  0  0  0  0  0999 V2000
    1.9486    2.6250    0.0000 C   0  0  0  0  0  0  0  0  0  0  0  0
   -4.5466    3.3750    0.0000 C   0  0  0  0  0  0  0  0  0  0  0  0
    0.6495    3.3750    0.0000 C   0  0  0  0  0  0  0  0  0  0  0  0
   -3.2476    2.6250    0.0000 C   0  0  0  0  0  0  0  0  0  0  0  0
   -0.6495    2.6250    0.0000 C   0  0  0  0  0  0  0  0  0  0  0  0
   -1.9486    3.3750    0.0000 C   0  0  0  0  0  0  0  0  0  0  0  0
   -1.9486    4.8750    0.0000 O   0  0  0  0  0  0  0  0  0  0  0  0
  3  1  1  0
  4  2  1  0
  5  3  1  0
  6  4  1  0
  6  5  1  0
  7  6  2  0
M  END
>  <NAME>  (4029) 
3-HEXANONE

>  <SYNONYMS>  (4029) 


>  <SPECTRUM TYPE>  (4029) 
MS1

>  <INSTRUMENT TYPE>  (4029) 
EI-B

>  <INSTRUMENT>  (4029) 
HITACHI M-80B

>  <ION MODE>  (4029) 
P

>  <INCHIKEY>  (4029) 
PFCHFHIRKBAQGU-UHFFFAOYSA-N

>  <FORMULA>  (4029) 
C6H12O

>  <EXACT MASS>  (4029) 
100.088815004

>  <MW>  (4029) 
100

>  <ID>  (4029) 
JP006455

>  <CONTRIBUTOR>  (4029) 
University of Tokyo Team, {Faculty of Engineering, University of Tokyo

>  <COMMENT>  (4029) 
SMILES=CCCC(=O)CC
InChI=InChI=1S/C6H12O/c1-3-5-6(7)4-2/h3-5H2,1-2H3
computed SMILES=O=C(CC)CCC
accession=JP006455
date=2016.01.19 (Created 2008.10.21, modified 2011.05.06)
author=HISAHIRO HAGIWARA, CHEMICAL RESEARCH INSTITUTE OF NON-AQUEOUSSOLUTIONS TOHOKU UNIV.
license=CC BY-NC-SA
exact mass=100.08882
ionization energy=70 eV
ion type=[M]+*
computed spectral entropy=2.3007179867667316
computed normalized entropy=0.7443178220561406
SPLASH=splash10-054o-9000000000-7166c2e59f557283534f
submitter=submitter = University of Tokyo Team (Faculty of Engineering, University of Tokyo)
MoNA Rating=3.75

>  <NUM PEAKS>  (4029) 
22

>  <MASS SPECTRAL PEAKS>  (4029) 
15 2.66
26 5.18
27 43.32
28 5.46
29 55.12
38 1.44
39 14.2
40 1.11
41 26.53
42 8.1
43 99.99
44 2.82
53 1.18
55 2.98
56 1.85
57 87.93
58 2.44
71 56.08
72 5.49
85 2.15
100 28.04
101 1.77

$$$$

     RDKit          2D

  8  7  0  0  0  0  0  0  0  0999 V2000
    1.9486    3.3750    0.0000 C   0  0  0  0  0  0  0  0  0  0  0  0
   -5.8457    3.3750    0.0000 C   0  0  0  0  0  0  0  0  0  0  0  0
    0.6495    4.1250    0.0000 C   0  0  0  0  0  0  0  0  0  0  0  0
   -4.5466    4.1250    0.0000 C   0  0  0  0  0  0  0  0  0  0  0  0
   -0.6495    3.3750    0.0000 C   0  0  0  0  0  0  0  0  0  0  0  0
   -3.2476    3.3750    0.0000 C   0  0  0  0  0  0  0  0  0  0  0  0
   -1.9486    4.1250    0.0000 C   0  0  0  0  0  0  0  0  0  0  0  0
   -1.9486    5.6250    0.0000 O   0  0  0  0  0  0  0  0  0  0  0  0
  3  1  1  0
  4  2  1  0
  5  3  1  0
  6  4  1  0
  7  5  1  0
  7  6  1  0
  8  7  2  0
M  END
>  <NAME>  (4030) 
4-HEPTANONE

>  <SYNONYMS>  (4030) 


>  <SPECTRUM TYPE>  (4030) 
MS1

>  <INSTRUMENT TYPE>  (4030) 
EI-B

>  <INSTRUMENT>  (4030) 
HITACHI M-80B

>  <ION MODE>  (4030) 
P

>  <INCHIKEY>  (4030) 
HCFAJYNVAYBARA-UHFFFAOYSA-N

>  <FORMULA>  (4030) 
C7H14O

>  <EXACT MASS>  (4030) 
114.104465068

>  <MW>  (4030) 
114

>  <ID>  (4030) 
JP006454

>  <CONTRIBUTOR>  (4030) 
University of Tokyo Team, {Faculty of Engineering, University of Tokyo

>  <COMMENT>  (4030) 
SMILES=CCCC(=O)CCC
InChI=InChI=1S/C7H14O/c1-3-5-7(8)6-4-2/h3-6H2,1-2H3
computed SMILES=O=C(CCC)CCC
accession=JP006454
date=2016.01.19 (Created 2008.10.21, modified 2011.05.06)
author=HISAHIRO HAGIWARA, CHEMICAL RESEARCH INSTITUTE OF NON-AQUEOUSSOLUTIONS TOHOKU UNIV.
license=CC BY-NC-SA
exact mass=114.10447
ionization energy=70 eV
ion type=[M]+*
computed spectral entropy=1.9819474944701683
computed normalized entropy=0.6731154927962713
SPLASH=splash10-006x-9000000000-781083206e97b4ff2795
submitter=submitter = University of Tokyo Team (Faculty of Engineering, University of Tokyo)
MoNA Rating=3.75

>  <NUM PEAKS>  (4030) 
19

>  <MASS SPECTRAL PEAKS>  (4030) 
15 1.67
26 1.53
27 25.82
28 1.57
29 4.19
39 13.19
40 1.18
41 25.75
42 6.76
43 99.99
44 3.88
55 2.3
57 1.26
58 6.47
71 82.52
72 3.74
99 1.54
114 14.39
115 1.12

$$$$

     RDKit          2D

  8  7  0  0  0  0  0  0  0  0999 V2000
    1.9486    3.3750    0.0000 C   0  0  0  0  0  0  0  0  0  0  0  0
   -5.8457    3.3750    0.0000 C   0  0  0  0  0  0  0  0  0  0  0  0
    0.6495    4.1250    0.0000 C   0  0  0  0  0  0  0  0  0  0  0  0
   -4.5466    4.1250    0.0000 C   0  0  0  0  0  0  0  0  0  0  0  0
   -0.6495    3.3750    0.0000 C   0  0  0  0  0  0  0  0  0  0  0  0
   -1.9486    4.1250    0.0000 C   0  0  0  0  0  0  0  0  0  0  0  0
   -3.2476    3.3750    0.0000 C   0  0  0  0  0  0  0  0  0  0  0  0
   -3.2476    1.8750    0.0000 O   0  0  0  0  0  0  0  0  0  0  0  0
  3  1  1  0
  4  2  1  0
  5  3  1  0
  6  5  1  0
  7  4  1  0
  7  6  1  0
  8  7  2  0
M  END
>  <NAME>  (4031) 
3-HEPTANONE

>  <SYNONYMS>  (4031) 


>  <SPECTRUM TYPE>  (4031) 
MS1

>  <INSTRUMENT TYPE>  (4031) 
EI-B

>  <INSTRUMENT>  (4031) 
HITACHI M-80B

>  <ION MODE>  (4031) 
P

>  <INCHIKEY>  (4031) 
NGAZZOYFWWSOGK-UHFFFAOYSA-N

>  <FORMULA>  (4031) 
C7H14O

>  <EXACT MASS>  (4031) 
114.104465068

>  <MW>  (4031) 
114

>  <ID>  (4031) 
JP006453

>  <CONTRIBUTOR>  (4031) 
University of Tokyo Team, {Faculty of Engineering, University of Tokyo

>  <COMMENT>  (4031) 
SMILES=CCCCC(=O)CC
InChI=InChI=1S/C7H14O/c1-3-5-6-7(8)4-2/h3-6H2,1-2H3
computed SMILES=O=C(CC)CCCC
accession=JP006453
date=2016.01.19 (Created 2008.10.21, modified 2011.05.06)
author=HISAHIRO HAGIWARA, CHEMICAL RESEARCH INSTITUTE OF NON-AQUEOUSSOLUTIONS TOHOKU UNIV.
license=CC BY-NC-SA
exact mass=114.10447
ionization energy=70 eV
ion type=[M]+*
computed spectral entropy=2.2672606940312283
computed normalized entropy=0.7447015879858645
SPLASH=splash10-0a6r-9000000000-40ada3eeb51322d0129f
submitter=submitter = University of Tokyo Team (Faculty of Engineering, University of Tokyo)
MoNA Rating=3.75

>  <NUM PEAKS>  (4031) 
21

>  <MASS SPECTRAL PEAKS>  (4031) 
15 1.55
26 2.49
27 24.99
28 6.36
29 59.07
30 1.12
39 9.57
41 27.33
42 4.18
43 10.83
53 1.3
55 4.15
56 2.46
57 99.99
58 4.15
72 23.6
73 1.25
85 33.12
86 1.64
114 12.86
115 1.04

$$$$

     RDKit          2D

  8  7  0  0  0  0  0  0  0  0999 V2000
    1.9486    3.3750    0.0000 C   0  0  0  0  0  0  0  0  0  0  0  0
   -5.8457    3.3750    0.0000 C   0  0  0  0  0  0  0  0  0  0  0  0
    0.6495    4.1250    0.0000 C   0  0  0  0  0  0  0  0  0  0  0  0
   -0.6495    3.3750    0.0000 C   0  0  0  0  0  0  0  0  0  0  0  0
   -1.9486    4.1250    0.0000 C   0  0  0  0  0  0  0  0  0  0  0  0
   -3.2476    3.3750    0.0000 C   0  0  0  0  0  0  0  0  0  0  0  0
   -4.5466    4.1250    0.0000 C   0  0  0  0  0  0  0  0  0  0  0  0
   -4.5466    5.6250    0.0000 O   0  0  0  0  0  0  0  0  0  0  0  0
  3  1  1  0
  4  3  1  0
  5  4  1  0
  6  5  1  0
  7  2  1  0
  7  6  1  0
  8  7  2  0
M  END
>  <NAME>  (4032) 
2-HEPTANONE

>  <SYNONYMS>  (4032) 


>  <SPECTRUM TYPE>  (4032) 
MS1

>  <INSTRUMENT TYPE>  (4032) 
EI-B

>  <INSTRUMENT>  (4032) 
HITACHI M-80B

>  <ION MODE>  (4032) 
P

>  <INCHIKEY>  (4032) 
CATSNJVOTSVZJV-UHFFFAOYSA-N

>  <FORMULA>  (4032) 
C7H14O

>  <EXACT MASS>  (4032) 
114.104465068

>  <MW>  (4032) 
114

>  <ID>  (4032) 
JP006452

>  <CONTRIBUTOR>  (4032) 
University of Tokyo Team, {Faculty of Engineering, University of Tokyo

>  <COMMENT>  (4032) 
SMILES=CCCCCC(C)=O
InChI=InChI=1S/C7H14O/c1-3-4-5-6-7(2)8/h3-6H2,1-2H3
computed SMILES=O=C(C)CCCCC
accession=JP006452
date=2016.01.19 (Created 2008.10.21, modified 2011.05.06)
author=HISAHIRO HAGIWARA, CHEMICAL RESEARCH INSTITUTE OF NON-AQUEOUSSOLUTIONS TOHOKU UNIV.
license=CC BY-NC-SA
exact mass=114.10447
ionization energy=70 eV
ion type=[M]+*
computed spectral entropy=2.021010380806917
computed normalized entropy=0.6992216054165864
SPLASH=splash10-052f-9000000000-67e38b971af9b3c9eab2
submitter=submitter = University of Tokyo Team (Faculty of Engineering, University of Tokyo)
MoNA Rating=3.75

>  <NUM PEAKS>  (4032) 
18

>  <MASS SPECTRAL PEAKS>  (4032) 
15 4.64
26 1.06
27 12.69
29 9.93
39 9.39
41 11.87
42 5.61
43 99.99
44 2.51
55 4.46
57 1.13
58 62.29
59 9.76
71 13.24
72 1.69
85 1.47
99 2.61
114 5.19

$$$$

     RDKit          2D

  7  6  0  0  0  0  0  0  0  0999 V2000
   -2.5111    2.0993    0.0000 C   0  0  0  0  0  0  0  0  0  0  0  0
    0.8370    0.8002    0.0000 C   0  0  0  0  0  0  0  0  0  0  0  0
    1.3861    2.8493    0.0000 C   0  0  0  0  0  0  0  0  0  0  0  0
   -0.6630    3.3983    0.0000 C   0  0  0  0  0  0  0  0  0  0  0  0
   -1.2120    1.3493    0.0000 C   0  0  0  0  0  0  0  0  0  0  0  0
    0.0870    2.0993    0.0000 C   0  0  0  0  0  0  0  0  0  0  0  0
   -1.2120   -0.1507    0.0000 O   0  0  0  0  0  0  0  0  0  0  0  0
  5  1  1  0
  6  2  1  0
  6  3  1  0
  6  4  1  0
  6  5  1  0
  7  5  2  0
M  END
>  <NAME>  (4033) 
3,3-DIMETHYL-2-BUTANONE

>  <SYNONYMS>  (4033) 


>  <SPECTRUM TYPE>  (4033) 
MS1

>  <INSTRUMENT TYPE>  (4033) 
EI-B

>  <INSTRUMENT>  (4033) 
HITACHI M-80B

>  <ION MODE>  (4033) 
P

>  <INCHIKEY>  (4033) 
PJGSXYOJTGTZAV-UHFFFAOYSA-N

>  <FORMULA>  (4033) 
C6H12O

>  <EXACT MASS>  (4033) 
100.088815004

>  <MW>  (4033) 
100

>  <ID>  (4033) 
JP006451

>  <CONTRIBUTOR>  (4033) 
University of Tokyo Team, {Faculty of Engineering, University of Tokyo

>  <COMMENT>  (4033) 
computed SMILES=O=C(C)C(C)(C)C
SMILES=CC(=O)C(C)(C)C
InChI=InChI=1S/C6H12O/c1-5(7)6(2,3)4/h1-4H3
accession=JP006451
date=2016.01.19 (Created 2008.10.21, modified 2011.05.06)
author=HISAHIRO HAGIWARA, CHEMICAL RESEARCH INSTITUTE OF NON-AQUEOUSSOLUTIONS TOHOKU UNIV.
license=CC BY-NC-SA
exact mass=100.08882
ionization energy=70 eV
ion type=[M]+*
computed spectral entropy=2.1381829686418397
computed normalized entropy=0.7137430095197405
SPLASH=splash10-0a4l-9000000000-1087c8231569414df9c4
submitter=submitter = University of Tokyo Team (Faculty of Engineering, University of Tokyo)
MoNA Rating=3.75

>  <NUM PEAKS>  (4033) 
20

>  <MASS SPECTRAL PEAKS>  (4033) 
15 5.15
27 5.57
28 1.45
29 29.26
38 1.34
39 16.92
40 1.07
41 55.91
42 4.74
43 42.58
51 1.29
53 1.23
55 3.59
56 5.1
57 99.99
58 3.72
69 1.72
85 4.28
100 27.6
101 2.14

$$$$

     RDKit          2D

  7  6  0  0  0  0  0  0  0  0999 V2000
   -3.8971    2.2500    0.0000 C   0  0  0  0  0  0  0  0  0  0  0  0
   -1.2990    3.7500    0.0000 C   0  0  0  0  0  0  0  0  0  0  0  0
    1.2990    2.2500    0.0000 C   0  0  0  0  0  0  0  0  0  0  0  0
   -2.5981    1.5000    0.0000 C   0  0  0  0  0  0  0  0  0  0  0  0
   -1.2990    2.2500    0.0000 C   0  0  0  0  0  0  0  0  0  0  0  0
    0.0000    1.5000    0.0000 C   0  0  0  0  0  0  0  0  0  0  0  0
   -0.0000    0.0000    0.0000 O   0  0  0  0  0  0  0  0  0  0  0  0
  4  1  1  0
  5  2  1  0
  5  4  1  0
  6  3  1  0
  6  5  1  0
  7  6  2  0
M  END
>  <NAME>  (4034) 
3-METHYL-2-PENTANONE

>  <SYNONYMS>  (4034) 


>  <SPECTRUM TYPE>  (4034) 
MS1

>  <INSTRUMENT TYPE>  (4034) 
EI-B

>  <INSTRUMENT>  (4034) 
HITACHI M-80B

>  <ION MODE>  (4034) 
P

>  <INCHIKEY>  (4034) 
UIHCLUNTQKBZGK-UHFFFAOYSA-N

>  <FORMULA>  (4034) 
C6H12O

>  <EXACT MASS>  (4034) 
100.088815004

>  <MW>  (4034) 
100

>  <ID>  (4034) 
JP006450

>  <CONTRIBUTOR>  (4034) 
University of Tokyo Team, {Faculty of Engineering, University of Tokyo

>  <COMMENT>  (4034) 
SMILES=CCC(C)C(C)=O
InChI=InChI=1S/C6H12O/c1-4-5(2)6(3)7/h5H,4H2,1-3H3
computed SMILES=O=C(C)C(C)CC
accession=JP006450
date=2016.01.19 (Created 2008.10.21, modified 2011.05.06)
author=HISAHIRO HAGIWARA, CHEMICAL RESEARCH INSTITUTE OF NON-AQUEOUSSOLUTIONS TOHOKU UNIV.
license=CC BY-NC-SA
exact mass=100.08882
ionization energy=70 eV
ion type=[M]+*
computed spectral entropy=2.25406480472931
computed normalized entropy=0.7292247967284767
SPLASH=splash10-0006-9000000000-483a4c54fd68764bd59e
submitter=submitter = University of Tokyo Team (Faculty of Engineering, University of Tokyo)
MoNA Rating=3.75

>  <NUM PEAKS>  (4034) 
22

>  <MASS SPECTRAL PEAKS>  (4034) 
15 4.68
26 1.64
27 11.78
28 3.92
29 22.47
38 1.02
39 9.82
41 30.01
42 3.57
43 99.99
44 1.88
45 1
51 1.11
53 1.24
55 3.2
56 11.18
57 33.8
58 1.53
71 1.17
72 24.09
85 4.55
100 8.28

$$$$

     RDKit          2D

  7  6  0  0  0  0  0  0  0  0999 V2000
    1.6238    1.6875    0.0000 C   0  0  0  0  0  0  0  0  0  0  0  0
    0.3248    3.9375    0.0000 C   0  0  0  0  0  0  0  0  0  0  0  0
   -3.5724    1.6875    0.0000 C   0  0  0  0  0  0  0  0  0  0  0  0
   -0.9743    1.6875    0.0000 C   0  0  0  0  0  0  0  0  0  0  0  0
    0.3248    2.4375    0.0000 C   0  0  0  0  0  0  0  0  0  0  0  0
   -2.2733    2.4375    0.0000 C   0  0  0  0  0  0  0  0  0  0  0  0
   -2.2733    3.9375    0.0000 O   0  0  0  0  0  0  0  0  0  0  0  0
  5  1  1  0
  5  2  1  0
  5  4  1  0
  6  3  1  0
  6  4  1  0
  7  6  2  0
M  END
>  <NAME>  (4035) 
4-METHYL-2-PENTANONE

>  <SYNONYMS>  (4035) 


>  <SPECTRUM TYPE>  (4035) 
MS1

>  <INSTRUMENT TYPE>  (4035) 
EI-B

>  <INSTRUMENT>  (4035) 
HITACHI M-80B

>  <ION MODE>  (4035) 
P

>  <INCHIKEY>  (4035) 
NTIZESTWPVYFNL-UHFFFAOYSA-N

>  <FORMULA>  (4035) 
C6H12O

>  <EXACT MASS>  (4035) 
100.088815004

>  <MW>  (4035) 
100

>  <ID>  (4035) 
JP006449

>  <CONTRIBUTOR>  (4035) 
University of Tokyo Team, {Faculty of Engineering, University of Tokyo

>  <COMMENT>  (4035) 
SMILES=CC(C)CC(C)=O
InChI=InChI=1S/C6H12O/c1-5(2)4-6(3)7/h5H,4H2,1-3H3
computed SMILES=O=C(C)CC(C)C
accession=JP006449
date=2016.01.19 (Created 2008.10.21, modified 2011.05.06)
author=HISAHIRO HAGIWARA, CHEMICAL RESEARCH INSTITUTE OF NON-AQUEOUSSOLUTIONS TOHOKU UNIV.
license=CC BY-NC-SA
exact mass=100.08882
ionization energy=70 eV
ion type=[M]+*
computed spectral entropy=2.223849174060082
computed normalized entropy=0.7304426948887889
SPLASH=splash10-052f-9000000000-1df29932d3d714865bf1
submitter=submitter = University of Tokyo Team (Faculty of Engineering, University of Tokyo)
MoNA Rating=3.75

>  <NUM PEAKS>  (4035) 
21

>  <MASS SPECTRAL PEAKS>  (4035) 
15 3.88
18 5.3
27 8.51
29 8.32
38 1.34
39 14.06
41 22.54
42 5.53
43 99.99
44 1.91
53 1.03
55 1.14
56 1.3
57 24.76
58 41.55
59 2.36
67 1.36
85 19.04
86 1.13
100 18.94
101 1.3

$$$$

     RDKit          2D

  7  6  0  0  0  0  0  0  0  0999 V2000
    1.6238    3.1875    0.0000 C   0  0  0  0  0  0  0  0  0  0  0  0
   -4.8714    3.9375    0.0000 C   0  0  0  0  0  0  0  0  0  0  0  0
    0.3248    3.9375    0.0000 C   0  0  0  0  0  0  0  0  0  0  0  0
   -0.9743    3.1875    0.0000 C   0  0  0  0  0  0  0  0  0  0  0  0
   -2.2733    3.9375    0.0000 C   0  0  0  0  0  0  0  0  0  0  0  0
   -3.5724    3.1875    0.0000 C   0  0  0  0  0  0  0  0  0  0  0  0
   -3.5724    1.6875    0.0000 O   0  0  0  0  0  0  0  0  0  0  0  0
  3  1  1  0
  4  3  1  0
  5  4  1  0
  6  2  1  0
  6  5  1  0
  7  6  2  0
M  END
>  <NAME>  (4036) 
2-HEXANONE

>  <SYNONYMS>  (4036) 


>  <SPECTRUM TYPE>  (4036) 
MS1

>  <INSTRUMENT TYPE>  (4036) 
EI-B

>  <INSTRUMENT>  (4036) 
HITACHI M-80B

>  <ION MODE>  (4036) 
P

>  <INCHIKEY>  (4036) 
QQZOPKMRPOGIEB-UHFFFAOYSA-N

>  <FORMULA>  (4036) 
C6H12O

>  <EXACT MASS>  (4036) 
100.088815004

>  <MW>  (4036) 
100

>  <ID>  (4036) 
JP006448

>  <CONTRIBUTOR>  (4036) 
University of Tokyo Team, {Faculty of Engineering, University of Tokyo

>  <COMMENT>  (4036) 
SMILES=CCCCC(C)=O
InChI=InChI=1S/C6H12O/c1-3-4-5-6(2)7/h3-5H2,1-2H3
computed SMILES=O=C(C)CCCC
accession=JP006448
date=2016.01.19 (Created 2008.10.21, modified 2011.05.06)
author=HISAHIRO HAGIWARA, CHEMICAL RESEARCH INSTITUTE OF NON-AQUEOUSSOLUTIONS TOHOKU UNIV.
license=CC BY-NC-SA
exact mass=100.08882
ionization energy=70 eV
ion type=[M]+*
computed spectral entropy=2.061402398127299
computed normalized entropy=0.7275846001685345
SPLASH=splash10-052f-9000000000-a8db7120c386c93d25ff
submitter=submitter = University of Tokyo Team (Faculty of Engineering, University of Tokyo)
MoNA Rating=3.75

>  <NUM PEAKS>  (4036) 
17

>  <MASS SPECTRAL PEAKS>  (4036) 
15 4.01
26 1.65
27 12.46
29 14.95
39 7.33
41 16.51
42 4.65
43 99.99
44 2.3
55 1.85
57 16.15
58 50.03
59 2.43
71 5.04
72 1.03
85 5.32
100 12.07

$$$$

     RDKit          2D

  7  6  0  0  0  0  0  0  0  0999 V2000
    1.6238    1.6875    0.0000 C   0  0  0  0  0  0  0  0  0  0  0  0
    0.3248    3.9375    0.0000 C   0  0  0  0  0  0  0  0  0  0  0  0
   -3.5724    1.6875    0.0000 C   0  0  0  0  0  0  0  0  0  0  0  0
   -0.9743    1.6875    0.0000 C   0  0  0  0  0  0  0  0  0  0  0  0
    0.3248    2.4375    0.0000 C   0  0  0  0  0  0  0  0  0  0  0  0
   -2.2733    2.4375    0.0000 C   0  0  0  0  0  0  0  0  0  0  0  0
   -2.2733    3.9375    0.0000 O   0  0  0  0  0  0  0  0  0  0  0  0
  5  1  1  0
  5  2  1  0
  5  4  2  0
  6  3  1  0
  6  4  1  0
  7  6  2  0
M  END
>  <NAME>  (4037) 
2-METHYL-2-PENTEN-4-ONE

>  <SYNONYMS>  (4037) 
4-METHYL-3-PENTEN-2-ONE

>  <SPECTRUM TYPE>  (4037) 
MS1

>  <INSTRUMENT TYPE>  (4037) 
EI-B

>  <INSTRUMENT>  (4037) 
HITACHI M-80B

>  <ION MODE>  (4037) 
P

>  <INCHIKEY>  (4037) 
SHOJXDKTYKFBRD-UHFFFAOYSA-N

>  <FORMULA>  (4037) 
C6H10O

>  <EXACT MASS>  (4037) 
98.07316494

>  <MW>  (4037) 
98

>  <ID>  (4037) 
JP006447

>  <CONTRIBUTOR>  (4037) 
University of Tokyo Team, {Faculty of Engineering, University of Tokyo

>  <COMMENT>  (4037) 
SMILES=CC(C)=CC(C)=O
InChI=InChI=1S/C6H10O/c1-5(2)4-6(3)7/h4H,1-3H3
computed SMILES=O=C(C=C(C)C)C
accession=JP006447
date=2016.01.19 (Created 2008.10.21, modified 2011.05.06)
author=HISAHIRO HAGIWARA, CHEMICAL RESEARCH INSTITUTE OF NON-AQUEOUSSOLUTIONS TOHOKU UNIV.
license=CC BY-NC-SA
exact mass=98.07316
ionization energy=70 eV
ion type=[M]+*
computed spectral entropy=2.4939289844229737
computed normalized entropy=0.7566906633478072
SPLASH=splash10-0a7l-9000000000-3abe2bd4b3b37c4ed2cc
submitter=submitter = University of Tokyo Team (Faculty of Engineering, University of Tokyo)
MoNA Rating=3.75

>  <NUM PEAKS>  (4037) 
27

>  <MASS SPECTRAL PEAKS>  (4037) 
14 1.28
15 12.13
26 3.89
27 31.73
29 37.01
37 1.91
38 6.14
39 39.76
40 4.22
41 11.19
42 5.55
43 59.31
44 1.02
50 5.92
51 7.17
52 2.11
53 13.97
54 1.76
55 99.99
56 4.92
67 1.31
79 1.6
82 1.12
83 97.83
84 5.36
98 42.53
99 2.49

$$$$

     RDKit          2D

  6  5  0  0  0  0  0  0  0  0999 V2000
   -0.0000   -0.0000    0.0000 C   0  0  0  0  0  0  0  0  0  0  0  0
    1.2990    2.2500    0.0000 C   0  0  0  0  0  0  0  0  0  0  0  0
   -1.2990    3.7500    0.0000 C   0  0  0  0  0  0  0  0  0  0  0  0
   -0.0000    1.5000    0.0000 C   0  0  0  0  0  0  0  0  0  0  0  0
   -1.2990    2.2500    0.0000 C   0  0  0  0  0  0  0  0  0  0  0  0
   -2.5981    1.5000    0.0000 O   0  0  0  0  0  0  0  0  0  0  0  0
  4  1  1  0
  4  2  1  0
  5  3  1  0
  5  4  1  0
  6  5  2  0
M  END
>  <NAME>  (4038) 
3-METHYL-2-BUTANONE

>  <SYNONYMS>  (4038) 


>  <SPECTRUM TYPE>  (4038) 
MS1

>  <INSTRUMENT TYPE>  (4038) 
EI-B

>  <INSTRUMENT>  (4038) 
HITACHI M-80B

>  <ION MODE>  (4038) 
P

>  <INCHIKEY>  (4038) 
SYBYTAAJFKOIEJ-UHFFFAOYSA-N

>  <FORMULA>  (4038) 
C5H10O

>  <EXACT MASS>  (4038) 
86.07316494

>  <MW>  (4038) 
86

>  <ID>  (4038) 
JP006446

>  <CONTRIBUTOR>  (4038) 
University of Tokyo Team, {Faculty of Engineering, University of Tokyo

>  <COMMENT>  (4038) 
SMILES=CC(C)C(C)=O
InChI=InChI=1S/C5H10O/c1-4(2)5(3)6/h4H,1-3H3
computed SMILES=O=C(C)C(C)C
accession=JP006446
date=2016.01.19 (Created 2008.10.21, modified 2011.05.06)
author=HISAHIRO HAGIWARA, CHEMICAL RESEARCH INSTITUTE OF NON-AQUEOUSSOLUTIONS TOHOKU UNIV.
license=CC BY-NC-SA
exact mass=86.07316
ionization energy=70 eV
ion type=[M]+*
computed spectral entropy=1.5460132913262914
computed normalized entropy=0.6027461270644112
SPLASH=splash10-0006-9000000000-a6388c983671d8b26b64
submitter=submitter = University of Tokyo Team (Faculty of Engineering, University of Tokyo)
MoNA Rating=3.75

>  <NUM PEAKS>  (4038) 
13

>  <MASS SPECTRAL PEAKS>  (4038) 
15 4.35
26 1.07
27 11.54
28 1.28
38 1.35
39 8.97
41 16.31
42 4.01
43 99.99
44 2.23
45 1.07
71 3.59
86 14.97

$$$$

     RDKit          2D

  6  5  0  0  0  0  0  0  0  0999 V2000
    1.2990    2.2500    0.0000 C   0  0  0  0  0  0  0  0  0  0  0  0
   -3.8971    2.2500    0.0000 C   0  0  0  0  0  0  0  0  0  0  0  0
    0.0000    3.0000    0.0000 C   0  0  0  0  0  0  0  0  0  0  0  0
   -2.5981    3.0000    0.0000 C   0  0  0  0  0  0  0  0  0  0  0  0
   -1.2990    2.2500    0.0000 C   0  0  0  0  0  0  0  0  0  0  0  0
   -1.2990    0.7500    0.0000 O   0  0  0  0  0  0  0  0  0  0  0  0
  3  1  1  0
  4  2  1  0
  5  3  1  0
  5  4  1  0
  6  5  2  0
M  END
>  <NAME>  (4039) 
3-PENTANONE

>  <SYNONYMS>  (4039) 


>  <SPECTRUM TYPE>  (4039) 
MS1

>  <INSTRUMENT TYPE>  (4039) 
EI-B

>  <INSTRUMENT>  (4039) 
HITACHI M-80B

>  <ION MODE>  (4039) 
P

>  <INCHIKEY>  (4039) 
FDPIMTJIUBPUKL-UHFFFAOYSA-N

>  <FORMULA>  (4039) 
C5H10O

>  <EXACT MASS>  (4039) 
86.07316494

>  <MW>  (4039) 
86

>  <ID>  (4039) 
JP006445

>  <CONTRIBUTOR>  (4039) 
University of Tokyo Team, {Faculty of Engineering, University of Tokyo

>  <COMMENT>  (4039) 
SMILES=CCC(=O)CC
InChI=InChI=1S/C5H10O/c1-3-5(6)4-2/h3-4H2,1-2H3
computed SMILES=O=C(CC)CC
accession=JP006445
date=2016.01.19 (Created 2008.10.21, modified 2011.05.06)
author=HISAHIRO HAGIWARA, CHEMICAL RESEARCH INSTITUTE OF NON-AQUEOUSSOLUTIONS TOHOKU UNIV.
license=CC BY-NC-SA
exact mass=86.07316
ionization energy=70 eV
ion type=[M]+*
computed spectral entropy=1.7319877705394195
computed normalized entropy=0.6246825418593881
SPLASH=splash10-056r-9000000000-ee9204007b48c301923d
submitter=submitter = University of Tokyo Team (Faculty of Engineering, University of Tokyo)
MoNA Rating=3.75

>  <NUM PEAKS>  (4039) 
16

>  <MASS SPECTRAL PEAKS>  (4039) 
15 1.32
26 5.97
27 26.33
28 4
29 74.75
30 1.39
39 2.89
41 1.73
42 3.89
43 2.22
53 1.05
55 1.48
56 3.97
57 99.99
58 3.72
86 17.86

$$$$

     RDKit          2D

  6  5  0  0  0  0  0  0  0  0999 V2000
    1.2990    2.2500    0.0000 C   0  0  0  0  0  0  0  0  0  0  0  0
   -3.8971    2.2500    0.0000 C   0  0  0  0  0  0  0  0  0  0  0  0
    0.0000    3.0000    0.0000 C   0  0  0  0  0  0  0  0  0  0  0  0
   -1.2990    2.2500    0.0000 C   0  0  0  0  0  0  0  0  0  0  0  0
   -2.5981    3.0000    0.0000 C   0  0  0  0  0  0  0  0  0  0  0  0
   -2.5981    4.5000    0.0000 O   0  0  0  0  0  0  0  0  0  0  0  0
  3  1  1  0
  4  3  1  0
  5  2  1  0
  5  4  1  0
  6  5  2  0
M  END
>  <NAME>  (4040) 
2-PENTANONE

>  <SYNONYMS>  (4040) 


>  <SPECTRUM TYPE>  (4040) 
MS1

>  <INSTRUMENT TYPE>  (4040) 
EI-B

>  <INSTRUMENT>  (4040) 
HITACHI M-80B

>  <ION MODE>  (4040) 
P

>  <INCHIKEY>  (4040) 
XNLICIUVMPYHGG-UHFFFAOYSA-N

>  <FORMULA>  (4040) 
C5H10O

>  <EXACT MASS>  (4040) 
86.07316494

>  <MW>  (4040) 
86

>  <ID>  (4040) 
JP006444

>  <CONTRIBUTOR>  (4040) 
University of Tokyo Team, {Faculty of Engineering, University of Tokyo

>  <COMMENT>  (4040) 
SMILES=CCCC(C)=O
InChI=InChI=1S/C5H10O/c1-3-4-5(2)6/h3-4H2,1-2H3
computed SMILES=O=C(C)CCC
accession=JP006444
date=2016.01.19 (Created 2008.10.21, modified 2011.05.06)
author=HISAHIRO HAGIWARA, CHEMICAL RESEARCH INSTITUTE OF NON-AQUEOUSSOLUTIONS TOHOKU UNIV.
license=CC BY-NC-SA
exact mass=86.07316
ionization energy=70 eV
ion type=[M]+*
computed spectral entropy=1.6908342949713187
computed normalized entropy=0.6592076720940382
SPLASH=splash10-0006-9000000000-9d6ab400df7dd4c12a37
submitter=submitter = University of Tokyo Team (Faculty of Engineering, University of Tokyo)
MoNA Rating=3.75

>  <NUM PEAKS>  (4040) 
13

>  <MASS SPECTRAL PEAKS>  (4040) 
15 5.06
26 1.47
27 12.09
28 1.02
29 1.55
39 7.91
41 11.49
42 5.29
43 99.99
44 2.55
58 8
71 8.56
86 16.35

$$$$

     RDKit          2D

  6  5  0  0  0  0  0  0  0  0999 V2000
    1.2990    2.2500    0.0000 C   0  0  0  0  0  0  0  0  0  0  0  0
   -3.8971    2.2500    0.0000 C   0  0  0  0  0  0  0  0  0  0  0  0
    0.0000    3.0000    0.0000 C   0  0  0  0  0  0  0  0  0  0  0  0
   -2.5981    3.0000    0.0000 C   0  0  0  0  0  0  0  0  0  0  0  0
   -1.2990    2.2500    0.0000 C   0  0  0  0  0  0  0  0  0  0  0  0
   -1.2990    0.7500    0.0000 O   0  0  0  0  0  0  0  0  0  0  0  0
  3  1  2  0
  4  2  1  0
  5  3  1  0
  5  4  1  0
  6  5  2  0
M  END
>  <NAME>  (4041) 
1-PENTEN-3-ONE

>  <SYNONYMS>  (4041) 


>  <SPECTRUM TYPE>  (4041) 
MS1

>  <INSTRUMENT TYPE>  (4041) 
EI-B

>  <INSTRUMENT>  (4041) 
HITACHI M-80B

>  <ION MODE>  (4041) 
P

>  <INCHIKEY>  (4041) 
JLIDVCMBCGBIEY-UHFFFAOYSA-N

>  <FORMULA>  (4041) 
C5H8O

>  <EXACT MASS>  (4041) 
84.057514876

>  <MW>  (4041) 
84

>  <ID>  (4041) 
JP006443

>  <CONTRIBUTOR>  (4041) 
University of Tokyo Team, {Faculty of Engineering, University of Tokyo

>  <COMMENT>  (4041) 
SMILES=CCC(=O)C=C
InChI=InChI=1S/C5H8O/c1-3-5(6)4-2/h3H,1,4H2,2H3
computed SMILES=O=C(C=C)CC
accession=JP006443
date=2016.01.19 (Created 2008.10.21, modified 2011.05.06)
author=HISAHIRO HAGIWARA, CHEMICAL RESEARCH INSTITUTE OF NON-AQUEOUSSOLUTIONS TOHOKU UNIV.
license=CC BY-NC-SA
exact mass=84.05751
ionization energy=70 eV
ion type=[M]+*
computed spectral entropy=1.770630929086754
computed normalized entropy=0.6386201151595194
SPLASH=splash10-0a6r-9000000000-670c8b38aed5c5d2ba07
submitter=submitter = University of Tokyo Team (Faculty of Engineering, University of Tokyo)
MoNA Rating=3.75

>  <NUM PEAKS>  (4041) 
16

>  <MASS SPECTRAL PEAKS>  (4041) 
15 1.16
26 10.3
27 47.88
28 2.39
29 18.98
38 1.03
39 3.35
41 1.59
42 2.18
53 1.42
55 99.99
56 6.3
57 7.34
83 1.1
84 13.02
85 1.6

$$$$

     RDKit          2D

  5  4  0  0  0  0  0  0  0  0999 V2000
   -0.0000   -0.0000    0.0000 C   0  0  0  0  0  0  0  0  0  0  0  0
   -1.2990    3.7500    0.0000 C   0  0  0  0  0  0  0  0  0  0  0  0
    0.0000    1.5000    0.0000 C   0  0  0  0  0  0  0  0  0  0  0  0
   -1.2990    2.2500    0.0000 C   0  0  0  0  0  0  0  0  0  0  0  0
   -2.5981    1.5000    0.0000 O   0  0  0  0  0  0  0  0  0  0  0  0
  3  1  1  0
  4  2  1  0
  4  3  1  0
  5  4  2  0
M  END
>  <NAME>  (4042) 
2-BUTANONE

>  <SYNONYMS>  (4042) 


>  <SPECTRUM TYPE>  (4042) 
MS1

>  <INSTRUMENT TYPE>  (4042) 
EI-B

>  <INSTRUMENT>  (4042) 
HITACHI M-80B

>  <ION MODE>  (4042) 
P

>  <INCHIKEY>  (4042) 
ZWEHNKRNPOVVGH-UHFFFAOYSA-N

>  <FORMULA>  (4042) 
C4H8O

>  <EXACT MASS>  (4042) 
72.057514876

>  <MW>  (4042) 
72

>  <ID>  (4042) 
JP006442

>  <CONTRIBUTOR>  (4042) 
University of Tokyo Team, {Faculty of Engineering, University of Tokyo

>  <COMMENT>  (4042) 
SMILES=CCC(C)=O
InChI=InChI=1S/C4H8O/c1-3-4(2)5/h3H2,1-2H3
computed SMILES=O=C(C)CC
accession=JP006442
date=2016.01.19 (Created 2008.10.21, modified 2011.05.06)
author=HISAHIRO HAGIWARA, CHEMICAL RESEARCH INSTITUTE OF NON-AQUEOUSSOLUTIONS TOHOKU UNIV.
license=CC BY-NC-SA
exact mass=72.05751
ionization energy=70 eV
ion type=[M]+*
computed spectral entropy=1.640421487931741
computed normalized entropy=0.6395531682369056
SPLASH=splash10-0006-9000000000-9d38ccb9b91100a7ec9a
submitter=submitter = University of Tokyo Team (Faculty of Engineering, University of Tokyo)
MoNA Rating=3.75

>  <NUM PEAKS>  (4042) 
13

>  <MASS SPECTRAL PEAKS>  (4042) 
14 1.39
15 6.48
26 4.08
27 13.01
28 1.03
29 17.17
39 1.93
41 1.27
42 6.27
43 99.99
44 2.24
57 7.37
72 21.68

$$$$

     RDKit          2D

  4  3  0  0  0  0  0  0  0  0999 V2000
    0.9743    0.5625    0.0000 C   0  0  0  0  0  0  0  0  0  0  0  0
   -1.6238    0.5625    0.0000 C   0  0  0  0  0  0  0  0  0  0  0  0
   -0.3248    1.3125    0.0000 C   0  0  0  0  0  0  0  0  0  0  0  0
   -0.3248    2.8125    0.0000 O   0  0  0  0  0  0  0  0  0  0  0  0
  3  1  1  0
  3  2  1  0
  4  3  2  0
M  END
>  <NAME>  (4043) 
ACETONE

>  <SYNONYMS>  (4043) 


>  <SPECTRUM TYPE>  (4043) 
MS1

>  <INSTRUMENT TYPE>  (4043) 
EI-B

>  <INSTRUMENT>  (4043) 
HITACHI M-80B

>  <ION MODE>  (4043) 
P

>  <INCHIKEY>  (4043) 
CSCPPACGZOOCGX-UHFFFAOYSA-N

>  <FORMULA>  (4043) 
C3H6O

>  <EXACT MASS>  (4043) 
58.041864812

>  <MW>  (4043) 
58

>  <ID>  (4043) 
JP006441

>  <CONTRIBUTOR>  (4043) 
University of Tokyo Team, {Faculty of Engineering, University of Tokyo

>  <COMMENT>  (4043) 
SMILES=CC(C)=O
InChI=InChI=1S/C3H6O/c1-3(2)4/h1-2H3
computed SMILES=O=C(C)C
accession=JP006441
date=2016.01.19 (Created 2008.10.21, modified 2011.05.06)
author=HISAHIRO HAGIWARA, CHEMICAL RESEARCH INSTITUTE OF NON-AQUEOUSSOLUTIONS TOHOKU UNIV.
license=CC BY-NC-SA
exact mass=58.04186
ionization energy=70 eV
ion type=[M]+*
computed spectral entropy=1.621016581108087
computed normalized entropy=0.6319877530495825
SPLASH=splash10-0006-9000000000-23fa1a3953b34b4d17db
submitter=submitter = University of Tokyo Team (Faculty of Engineering, University of Tokyo)
MoNA Rating=3.75

>  <NUM PEAKS>  (4043) 
13

>  <MASS SPECTRAL PEAKS>  (4043) 
14 3.85
15 20.7
26 5.19
27 7.85
29 2.85
37 1.48
38 1.68
39 4.3
41 1.43
42 7.65
43 99.99
44 2.27
58 24.56

$$$$

     RDKit          2D

 13 14  0  0  0  0  0  0  0  0999 V2000
    8.0963   -1.8816    0.0000 C   0  0  0  0  0  0  0  0  0  0  0  0
   -1.1700   -1.2200    0.0000 C   0  0  0  0  0  0  0  0  0  0  0  0
    7.3463   -0.5826    0.0000 C   0  0  0  0  0  0  0  0  0  0  0  0
    0.3300   -1.2200    0.0000 C   0  0  0  0  0  0  0  0  0  0  0  0
    7.0965   -2.9900    0.0000 C   0  0  0  0  0  0  0  0  0  0  0  0
   -1.6300    0.2000    0.0000 C   0  0  0  0  0  0  0  0  0  0  0  0
    4.7678    0.1193    0.0000 C   0  0  0  0  0  0  0  0  0  0  0  0
    2.2271    0.6621    0.0000 C   0  0  0  0  0  0  0  0  0  0  0  0
    5.8815   -0.8855    0.0000 C   0  0  0  0  0  0  0  0  0  0  0  0
    0.8000    0.2000    0.0000 C   0  0  0  0  0  0  0  0  0  0  0  0
    3.3407   -0.3428    0.0000 O   0  0  0  0  0  0  0  0  0  0  0  0
    5.7294   -2.3821    0.0000 O   0  0  0  0  0  0  0  0  0  0  0  0
   -0.4200    1.0800    0.0000 O   0  0  0  0  0  0  0  0  0  0  0  0
  3  1  1  0
  4  2  1  0
  5  1  2  0
  6  2  2  0
  9  3  2  0
  9  7  1  0
 10  4  2  0
 10  8  1  0
 11  7  1  0
 11  8  1  0
 12  5  1  0
 12  9  1  0
 13  6  1  0
 13 10  1  0
M  END
>  <NAME>  (4044) 
DIFURFURYL ETHER

>  <SYNONYMS>  (4044) 


>  <SPECTRUM TYPE>  (4044) 
MS1

>  <INSTRUMENT TYPE>  (4044) 
EI-B

>  <INSTRUMENT>  (4044) 
HITACHI M-80B

>  <ION MODE>  (4044) 
P

>  <INCHIKEY>  (4044) 
YEQMNLGBLPBBNI-UHFFFAOYSA-N

>  <FORMULA>  (4044) 
C10H10O3

>  <EXACT MASS>  (4044) 
178.06299417999998

>  <MW>  (4044) 
178

>  <ID>  (4044) 
JP006440

>  <CONTRIBUTOR>  (4044) 
University of Tokyo Team, {Faculty of Engineering, University of Tokyo

>  <COMMENT>  (4044) 
SMILES=c(c2)cc(o2)COCc(c1)occ1
InChI=InChI=1S/C10H10O3/c1-3-9(12-5-1)7-11-8-10-4-2-6-13-10/h1-6H,7-8H2
computed SMILES=O1C=CC=C1COCC=2OC=CC2
accession=JP006440
date=2016.01.19 (Created 2008.10.21, modified 2011.05.06)
author=HISAHIRO HAGIWARA, CHEMICAL RESEARCH INSTITUTE OF NON-AQUEOUSSOLUTIONS TOHOKU UNIV.
license=CC BY-NC-SA
exact mass=178.06299
ionization energy=70 eV
ion type=[M]+*
computed spectral entropy=2.1608648273037603
computed normalized entropy=0.7097549357920226
SPLASH=splash10-001i-9000000000-7e0d0692ac5cc6a680ea
submitter=submitter = University of Tokyo Team (Faculty of Engineering, University of Tokyo)
MoNA Rating=3.75

>  <NUM PEAKS>  (4044) 
21

>  <MASS SPECTRAL PEAKS>  (4044) 
27 9.68
29 2.88
38 2.2
39 11.43
41 6.49
42 1.07
50 1.84
51 3.67
52 3.12
53 23.66
54 6.02
69 5.64
80 1.56
81 99.99
82 46.83
83 2.72
95 5.02
96 1.5
97 9.21
110 3.48
178 7.54

$$$$

     RDKit          2D

 12 14  0  0  0  0  0  0  0  0999 V2000
   -0.8896    2.5493    0.0000 C   0  0  0  0  0  0  0  0  0  0  0  0
    1.3372   -3.5103    0.0000 C   0  0  0  0  0  0  0  0  0  0  0  0
   -1.4400   -1.0000    0.0000 C   0  0  0  0  0  0  0  0  0  0  0  0
   -1.4400    0.5000    0.0000 C   0  0  0  0  0  0  0  0  0  0  0  0
    1.1600   -1.0000    0.0000 C   0  0  0  0  0  0  0  0  0  0  0  0
   -1.6172   -3.5103    0.0000 C   0  0  0  0  0  0  0  0  0  0  0  0
   -0.1400   -1.7500    0.0000 C   0  0  0  0  0  0  0  0  0  0  0  0
    1.1600    0.5000    0.0000 C   0  0  0  0  0  0  0  0  0  0  0  0
   -0.1400    1.2500    0.0000 C   0  0  0  0  0  0  0  0  0  0  0  0
   -0.1400   -3.2500    0.0000 C   0  0  0  0  0  0  0  0  0  0  0  0
   -0.6530   -4.6604    0.0000 O   0  0  0  0  0  0  0  0  0  0  0  0
    1.1600    2.0000    0.0000 O   0  0  0  0  0  0  0  0  0  0  0  0
  4  3  1  0
  7  3  1  0
  7  5  1  0
  8  5  1  0
  9  1  1  0
  9  4  1  0
  9  8  1  0
 10  2  1  0
 10  6  1  0
 10  7  1  0
 11  6  1  0
 11 10  1  0
 12  8  1  0
 12  9  1  0
M  END
>  <NAME>  (4045) 
LIMONENE DIOXIDE

>  <SYNONYMS>  (4045) 


>  <SPECTRUM TYPE>  (4045) 
MS1

>  <INSTRUMENT TYPE>  (4045) 
EI-B

>  <INSTRUMENT>  (4045) 
HITACHI M-80B

>  <ION MODE>  (4045) 
P

>  <INCHIKEY>  (4045) 
RBHIUNHSNSQJNG-UHFFFAOYSA-N

>  <FORMULA>  (4045) 
C10H16O2

>  <EXACT MASS>  (4045) 
168.115029752

>  <MW>  (4045) 
168

>  <ID>  (4045) 
JP006439

>  <CONTRIBUTOR>  (4045) 
University of Tokyo Team, {Faculty of Engineering, University of Tokyo

>  <COMMENT>  (4045) 
SMILES=CC(C3)(O3)C(C2)CC(O1)C(C)(C2)1
InChI=InChI=1S/C10H16O2/c1-9-4-3-7(5-8(9)12-9)10(2)6-11-10/h7-8H,3-6H2,1-2H3
computed SMILES=O1CC1(C)C2CCC3(OC3C2)C
accession=JP006439
date=2016.01.19 (Created 2008.10.21, modified 2011.05.06)
author=HISAHIRO HAGIWARA, CHEMICAL RESEARCH INSTITUTE OF NON-AQUEOUSSOLUTIONS TOHOKU UNIV.
license=CC BY-NC-SA
exact mass=168.11503
ionization energy=70 eV
ion type=[M]+*
computed spectral entropy=3.4719502785575953
computed normalized entropy=0.8514821326157939
SPLASH=splash10-0006-9100000000-382333aaf62923e66db4
submitter=submitter = University of Tokyo Team (Faculty of Engineering, University of Tokyo)
MoNA Rating=3.75

>  <NUM PEAKS>  (4045) 
59

>  <MASS SPECTRAL PEAKS>  (4045) 
15 2.91
27 14.77
29 11.12
31 2.05
39 16.39
40 1.8
41 26.59
42 3.03
43 99.99
44 5.21
45 3.02
51 1.51
52 1.47
53 9.28
54 3.42
55 18.59
56 2.7
57 5.01
58 7.54
59 2.37
65 3.05
66 2.02
67 16.61
68 4.19
69 8.59
70 2.2
71 10.27
72 1.74
77 5.03
79 10.59
80 2.29
81 9.67
82 9.97
83 8.8
84 5.49
85 5.36
91 6.36
92 5.88
93 10.35
94 2.59
95 13.01
96 1.83
97 9.81
98 2.72
105 2.89
106 1.48
107 16.41
108 4.58
109 7.34
110 3.77
111 4.02
121 3.66
123 5.32
124 1.52
125 3.68
135 2.91
137 1.57
139 1.57
153 2.94

$$$$

     RDKit          2D

 17 17  0  0  0  0  0  0  0  0999 V2000
    5.5216    5.0079    0.0000 C   0  0  0  0  0  0  0  0  0  0  0  0
    4.2226    4.2579    0.0000 C   0  0  0  0  0  0  0  0  0  0  0  0
    2.9236    5.0079    0.0000 C   0  0  0  0  0  0  0  0  0  0  0  0
    1.6245    4.2579    0.0000 C   0  0  0  0  0  0  0  0  0  0  0  0
    0.3255    5.0079    0.0000 C   0  0  0  0  0  0  0  0  0  0  0  0
  -10.0668    6.5079    0.0000 C   0  0  0  0  0  0  0  0  0  0  0  0
  -10.0673    5.0071    0.0000 C   0  0  0  0  0  0  0  0  0  0  0  0
   -8.7673    7.2587    0.0000 C   0  0  0  0  0  0  0  0  0  0  0  0
   -0.9736    4.2579    0.0000 C   0  0  0  0  0  0  0  0  0  0  0  0
   -8.7683    4.2571    0.0000 C   0  0  0  0  0  0  0  0  0  0  0  0
   -7.4683    6.5087    0.0000 C   0  0  0  0  0  0  0  0  0  0  0  0
   -2.2726    5.0079    0.0000 C   0  0  0  0  0  0  0  0  0  0  0  0
   -6.1697    4.2579    0.0000 C   0  0  0  0  0  0  0  0  0  0  0  0
   -7.4687    5.0079    0.0000 C   0  0  0  0  0  0  0  0  0  0  0  0
   -3.5716    4.2579    0.0000 C   0  0  0  0  0  0  0  0  0  0  0  0
   -3.5716    2.7579    0.0000 O   0  0  0  0  0  0  0  0  0  0  0  0
   -4.8707    5.0079    0.0000 O   0  0  0  0  0  0  0  0  0  0  0  0
  2  1  1  0
  3  2  1  0
  4  3  1  0
  5  4  1  0
  7  6  2  0
  8  6  1  0
  9  5  1  0
 10  7  1  0
 11  8  2  0
 12  9  1  0
 14 10  2  0
 14 11  1  0
 14 13  1  0
 15 12  1  0
 16 15  2  0
 17 13  1  0
 17 15  1  0
M  END
>  <NAME>  (4046) 
BENZYL OCTANOATE

>  <SYNONYMS>  (4046) 


>  <SPECTRUM TYPE>  (4046) 
MS1

>  <INSTRUMENT TYPE>  (4046) 
EI-B

>  <INSTRUMENT>  (4046) 
HITACHI M-80B

>  <ION MODE>  (4046) 
P

>  <INCHIKEY>  (4046) 
MWQWCHLIPMDVLS-UHFFFAOYSA-N

>  <FORMULA>  (4046) 
C15H22O2

>  <EXACT MASS>  (4046) 
234.161979944

>  <MW>  (4046) 
234

>  <ID>  (4046) 
JP006438

>  <CONTRIBUTOR>  (4046) 
University of Tokyo Team, {Faculty of Engineering, University of Tokyo

>  <COMMENT>  (4046) 
SMILES=CCCCCCCC(=O)OCc(c1)cccc1
InChI=InChI=1S/C15H22O2/c1-2-3-4-5-9-12-15(16)17-13-14-10-7-6-8-11-14/h6-8,10-11H,2-5,9,12-13H2,1H3
computed SMILES=O=C(OCC=1C=CC=CC1)CCCCCCC
accession=JP006438
date=2016.01.19 (Created 2008.10.21, modified 2011.05.06)
author=HISAHIRO HAGIWARA, CHEMICAL RESEARCH INSTITUTE OF NON-AQUEOUSSOLUTIONS TOHOKU UNIV.
license=CC BY-NC-SA
exact mass=234.16198
ionization energy=70 eV
ion type=[M]+*
computed spectral entropy=2.8026075777003014
computed normalized entropy=0.7882793834047931
SPLASH=splash10-052f-9300000000-bcfcb7c152aa41154ff4
submitter=submitter = University of Tokyo Team (Faculty of Engineering, University of Tokyo)
MoNA Rating=3.75

>  <NUM PEAKS>  (4046) 
35

>  <MASS SPECTRAL PEAKS>  (4046) 
27 6.47
29 8.37
39 6.97
41 15.92
42 3.69
43 13.33
51 2.59
53 1.04
55 11.13
56 1.38
57 27.03
58 1.01
63 1.46
65 10.4
67 1.1
69 1.28
77 6.49
78 1.34
79 6.06
83 8.14
89 2.82
90 9.15
91 99.99
92 22.9
93 1.22
97 7.44
105 2.01
107 6.23
108 58.45
109 5.25
124 1.27
125 9.95
127 10.82
143 7.96
234 4.44

$$$$

     RDKit          2D

 16 15  0  0  0  0  0  0  0  0999 V2000
    4.5466    7.8750    0.0000 C   0  0  0  0  0  0  0  0  0  0  0  0
  -13.6399    7.8750    0.0000 C   0  0  0  0  0  0  0  0  0  0  0  0
    3.2476    8.6250    0.0000 C   0  0  0  0  0  0  0  0  0  0  0  0
  -12.3409    8.6250    0.0000 C   0  0  0  0  0  0  0  0  0  0  0  0
    1.9486    7.8750    0.0000 C   0  0  0  0  0  0  0  0  0  0  0  0
  -11.0418    7.8750    0.0000 C   0  0  0  0  0  0  0  0  0  0  0  0
    0.6495    8.6250    0.0000 C   0  0  0  0  0  0  0  0  0  0  0  0
   -9.7428    8.6250    0.0000 C   0  0  0  0  0  0  0  0  0  0  0  0
   -0.6495    7.8750    0.0000 C   0  0  0  0  0  0  0  0  0  0  0  0
   -1.9486    8.6250    0.0000 C   0  0  0  0  0  0  0  0  0  0  0  0
   -8.4437    7.8750    0.0000 C   0  0  0  0  0  0  0  0  0  0  0  0
   -3.2476    7.8750    0.0000 C   0  0  0  0  0  0  0  0  0  0  0  0
   -7.1447    8.6250    0.0000 C   0  0  0  0  0  0  0  0  0  0  0  0
   -4.5466    8.6250    0.0000 C   0  0  0  0  0  0  0  0  0  0  0  0
   -4.5466   10.1250    0.0000 O   0  0  0  0  0  0  0  0  0  0  0  0
   -5.8457    7.8750    0.0000 O   0  0  0  0  0  0  0  0  0  0  0  0
  3  1  1  0
  4  2  1  0
  5  3  1  0
  6  4  1  0
  7  5  1  0
  8  6  1  0
  9  7  1  0
 10  9  1  0
 11  8  1  0
 12 10  1  0
 13 11  1  0
 14 12  1  0
 15 14  2  0
 16 13  1  0
 16 14  1  0
M  END
>  <NAME>  (4047) 
HEXYL OCTANOATE

>  <SYNONYMS>  (4047) 


>  <SPECTRUM TYPE>  (4047) 
MS1

>  <INSTRUMENT TYPE>  (4047) 
EI-B

>  <INSTRUMENT>  (4047) 
HITACHI M-80B

>  <ION MODE>  (4047) 
P

>  <INCHIKEY>  (4047) 
PBGWNXWNCSSXCO-UHFFFAOYSA-N

>  <FORMULA>  (4047) 
C14H28O2

>  <EXACT MASS>  (4047) 
228.208930136

>  <MW>  (4047) 
228

>  <ID>  (4047) 
JP006437

>  <CONTRIBUTOR>  (4047) 
University of Tokyo Team, {Faculty of Engineering, University of Tokyo

>  <COMMENT>  (4047) 
SMILES=CCCCCCCC(=O)OCCCCCC
InChI=InChI=1S/C14H28O2/c1-3-5-7-9-10-12-14(15)16-13-11-8-6-4-2/h3-13H2,1-2H3
computed SMILES=O=C(OCCCCCC)CCCCCCC
accession=JP006437
date=2016.01.19 (Created 2008.10.21, modified 2011.05.06)
author=HISAHIRO HAGIWARA, CHEMICAL RESEARCH INSTITUTE OF NON-AQUEOUSSOLUTIONS TOHOKU UNIV.
license=CC BY-NC-SA
exact mass=228.20893
ionization energy=70 eV
ion type=[M]+*
computed spectral entropy=3.0473293483345203
computed normalized entropy=0.8005252255811062
SPLASH=splash10-0a5c-9200000000-a5c27c1fbee9b7562189
submitter=submitter = University of Tokyo Team (Faculty of Engineering, University of Tokyo)
MoNA Rating=3.75

>  <NUM PEAKS>  (4047) 
45

>  <MASS SPECTRAL PEAKS>  (4047) 
27 20.14
29 31.88
31 1.28
39 11.52
41 57.88
42 27.44
43 99.99
44 2.12
45 1.83
53 2.68
54 3
55 44.28
56 58.58
57 61.53
58 2.38
59 1.74
60 16.63
61 31.43
67 3.53
68 1.68
69 23.09
70 2.55
71 1.78
73 17.53
74 1.64
81 1.1
82 2.18
83 7.65
84 82.51
85 15.43
87 5.07
89 3.56
97 2.42
98 2.45
101 8.46
103 1.92
109 1.69
115 2.86
125 1.06
127 42.18
128 3.1
129 1.98
144 7.06
145 70.19
146 5.02

$$$$

     RDKit          2D

 15 14  0  0  0  0  0  0  0  0999 V2000
    3.8971    6.7500    0.0000 C   0  0  0  0  0  0  0  0  0  0  0  0
  -11.6913    6.7500    0.0000 C   0  0  0  0  0  0  0  0  0  0  0  0
  -10.3923    9.0000    0.0000 C   0  0  0  0  0  0  0  0  0  0  0  0
    2.5981    7.5000    0.0000 C   0  0  0  0  0  0  0  0  0  0  0  0
    1.2990    6.7500    0.0000 C   0  0  0  0  0  0  0  0  0  0  0  0
    0.0000    7.5000    0.0000 C   0  0  0  0  0  0  0  0  0  0  0  0
   -1.2990    6.7500    0.0000 C   0  0  0  0  0  0  0  0  0  0  0  0
   -2.5981    7.5000    0.0000 C   0  0  0  0  0  0  0  0  0  0  0  0
   -3.8971    6.7500    0.0000 C   0  0  0  0  0  0  0  0  0  0  0  0
   -9.0933    6.7500    0.0000 C   0  0  0  0  0  0  0  0  0  0  0  0
   -7.7942    7.5000    0.0000 C   0  0  0  0  0  0  0  0  0  0  0  0
  -10.3923    7.5000    0.0000 C   0  0  0  0  0  0  0  0  0  0  0  0
   -5.1962    7.5000    0.0000 C   0  0  0  0  0  0  0  0  0  0  0  0
   -5.1962    9.0000    0.0000 O   0  0  0  0  0  0  0  0  0  0  0  0
   -6.4952    6.7500    0.0000 O   0  0  0  0  0  0  0  0  0  0  0  0
  4  1  1  0
  5  4  1  0
  6  5  1  0
  7  6  1  0
  8  7  1  0
  9  8  1  0
 11 10  1  0
 12  2  1  0
 12  3  1  0
 12 10  1  0
 13  9  1  0
 14 13  2  0
 15 11  1  0
 15 13  1  0
M  END
>  <NAME>  (4048) 
ISOAMYL OCTANOATE

>  <SYNONYMS>  (4048) 
ISOPENTYL OCTANOATE

>  <SPECTRUM TYPE>  (4048) 
MS1

>  <INSTRUMENT TYPE>  (4048) 
EI-B

>  <INSTRUMENT>  (4048) 
HITACHI M-80B

>  <ION MODE>  (4048) 
P

>  <INCHIKEY>  (4048) 
XKWSWANXMRXDES-UHFFFAOYSA-N

>  <FORMULA>  (4048) 
C13H26O2

>  <EXACT MASS>  (4048) 
214.193280072

>  <MW>  (4048) 
214

>  <ID>  (4048) 
JP006436

>  <CONTRIBUTOR>  (4048) 
University of Tokyo Team, {Faculty of Engineering, University of Tokyo

>  <COMMENT>  (4048) 
SMILES=CCCCCCCC(=O)OCCC(C)C
InChI=InChI=1S/C13H26O2/c1-4-5-6-7-8-9-13(14)15-11-10-12(2)3/h12H,4-11H2,1-3H3
computed SMILES=O=C(OCCC(C)C)CCCCCCC
ionization energy=70 eV
accession=JP006436
date=2016.01.19 (Created 2008.10.21, modified 2011.05.06)
author=HISAHIRO HAGIWARA, CHEMICAL RESEARCH INSTITUTE OF NON-AQUEOUSSOLUTIONS TOHOKU UNIV.
license=CC BY-NC-SA
exact mass=214.19328
ion type=[M]+*
computed spectral entropy=2.5080791652781627
computed normalized entropy=0.7374106480266874
SPLASH=splash10-00di-9100000000-6cbd60a7151403d7df2e
submitter=submitter = University of Tokyo Team (Faculty of Engineering, University of Tokyo)
MoNA Rating=3.75

>  <NUM PEAKS>  (4048) 
30

>  <MASS SPECTRAL PEAKS>  (4048) 
27 7.98
29 11.17
39 4.99
41 22.05
42 9.09
43 41.49
44 1.08
45 1.05
53 1.06
55 23.83
56 2.83
57 22.75
60 3.7
61 1.05
67 1.07
69 4.37
70 99.99
71 27.59
72 1.17
73 3.72
83 1.38
84 1.43
87 1.35
101 2.2
115 1.68
127 19.24
128 1.44
144 1.55
145 7.28
171 1.2

$$$$

     RDKit          2D

 15 14  0  0  0  0  0  0  0  0999 V2000
    4.5466    7.1250    0.0000 C   0  0  0  0  0  0  0  0  0  0  0  0
  -12.3409    7.8750    0.0000 C   0  0  0  0  0  0  0  0  0  0  0  0
    3.2476    7.8750    0.0000 C   0  0  0  0  0  0  0  0  0  0  0  0
  -11.0418    7.1250    0.0000 C   0  0  0  0  0  0  0  0  0  0  0  0
    1.9486    7.1250    0.0000 C   0  0  0  0  0  0  0  0  0  0  0  0
   -9.7428    7.8750    0.0000 C   0  0  0  0  0  0  0  0  0  0  0  0
    0.6495    7.8750    0.0000 C   0  0  0  0  0  0  0  0  0  0  0  0
   -0.6495    7.1250    0.0000 C   0  0  0  0  0  0  0  0  0  0  0  0
   -1.9486    7.8750    0.0000 C   0  0  0  0  0  0  0  0  0  0  0  0
   -8.4437    7.1250    0.0000 C   0  0  0  0  0  0  0  0  0  0  0  0
   -3.2476    7.1250    0.0000 C   0  0  0  0  0  0  0  0  0  0  0  0
   -7.1447    7.8750    0.0000 C   0  0  0  0  0  0  0  0  0  0  0  0
   -4.5466    7.8750    0.0000 C   0  0  0  0  0  0  0  0  0  0  0  0
   -4.5466    9.3750    0.0000 O   0  0  0  0  0  0  0  0  0  0  0  0
   -5.8457    7.1250    0.0000 O   0  0  0  0  0  0  0  0  0  0  0  0
  3  1  1  0
  4  2  1  0
  5  3  1  0
  6  4  1  0
  7  5  1  0
  8  7  1  0
  9  8  1  0
 10  6  1  0
 11  9  1  0
 12 10  1  0
 13 11  1  0
 14 13  2  0
 15 12  1  0
 15 13  1  0
M  END
>  <NAME>  (4049) 
AMYL OCTANOATE

>  <SYNONYMS>  (4049) 
PENTYL OCTANOATE

>  <SPECTRUM TYPE>  (4049) 
MS1

>  <INSTRUMENT TYPE>  (4049) 
EI-B

>  <INSTRUMENT>  (4049) 
HITACHI M-80B

>  <ION MODE>  (4049) 
P

>  <INCHIKEY>  (4049) 
GJWGZSBNFSBUPX-UHFFFAOYSA-N

>  <FORMULA>  (4049) 
C13H26O2

>  <EXACT MASS>  (4049) 
214.193280072

>  <MW>  (4049) 
214

>  <ID>  (4049) 
JP006435

>  <CONTRIBUTOR>  (4049) 
University of Tokyo Team, {Faculty of Engineering, University of Tokyo

>  <COMMENT>  (4049) 
SMILES=CCCCCCCC(=O)OCCCCC
InChI=InChI=1S/C13H26O2/c1-3-5-7-8-9-11-13(14)15-12-10-6-4-2/h3-12H2,1-2H3
computed SMILES=O=C(OCCCCC)CCCCCCC
accession=JP006435
date=2016.01.19 (Created 2008.10.21, modified 2011.05.06)
author=HISAHIRO HAGIWARA, CHEMICAL RESEARCH INSTITUTE OF NON-AQUEOUSSOLUTIONS TOHOKU UNIV.
license=CC BY-NC-SA
exact mass=214.19328
ionization energy=70 eV
ion type=[M]+*
computed spectral entropy=3.032140283267591
computed normalized entropy=0.7965350990312092
SPLASH=splash10-05bf-9200000000-6ccbfca2b3d37be0078c
submitter=submitter = University of Tokyo Team (Faculty of Engineering, University of Tokyo)
MoNA Rating=3.75

>  <NUM PEAKS>  (4049) 
45

>  <MASS SPECTRAL PEAKS>  (4049) 
27 16.21
29 28.37
31 1.02
39 9.27
41 43.66
42 26.47
43 65.89
44 1.88
45 1.52
53 2.08
54 1.38
55 35.57
56 5.13
57 44.96
58 1.93
59 1.24
60 18.81
61 14.45
67 2.3
68 1.12
69 8.69
70 99.99
71 17.79
73 16.6
74 1.53
82 1.38
83 4.99
84 3.72
85 2.05
87 5.61
89 3.95
97 2.06
98 2.06
101 8.08
102 2.01
103 1.63
109 1.35
115 5.24
127 41.98
128 3.84
130 4.27
143 1.35
144 5.08
145 62.52
146 5.62

$$$$

     RDKit          2D

 14 13  0  0  0  0  0  0  0  0999 V2000
    3.5724    6.5625    0.0000 C   0  0  0  0  0  0  0  0  0  0  0  0
  -10.7171    7.3125    0.0000 C   0  0  0  0  0  0  0  0  0  0  0  0
   -9.4180    5.0625    0.0000 C   0  0  0  0  0  0  0  0  0  0  0  0
    2.2733    7.3125    0.0000 C   0  0  0  0  0  0  0  0  0  0  0  0
    0.9743    6.5625    0.0000 C   0  0  0  0  0  0  0  0  0  0  0  0
   -0.3248    7.3125    0.0000 C   0  0  0  0  0  0  0  0  0  0  0  0
   -1.6238    6.5625    0.0000 C   0  0  0  0  0  0  0  0  0  0  0  0
   -2.9228    7.3125    0.0000 C   0  0  0  0  0  0  0  0  0  0  0  0
   -4.2219    6.5625    0.0000 C   0  0  0  0  0  0  0  0  0  0  0  0
   -8.1190    7.3125    0.0000 C   0  0  0  0  0  0  0  0  0  0  0  0
   -9.4180    6.5625    0.0000 C   0  0  0  0  0  0  0  0  0  0  0  0
   -5.5209    7.3125    0.0000 C   0  0  0  0  0  0  0  0  0  0  0  0
   -5.5209    8.8125    0.0000 O   0  0  0  0  0  0  0  0  0  0  0  0
   -6.8200    6.5625    0.0000 O   0  0  0  0  0  0  0  0  0  0  0  0
  4  1  1  0
  5  4  1  0
  6  5  1  0
  7  6  1  0
  8  7  1  0
  9  8  1  0
 11  2  1  0
 11  3  1  0
 11 10  1  0
 12  9  1  0
 13 12  2  0
 14 10  1  0
 14 12  1  0
M  END
>  <NAME>  (4050) 
ISOBUTYL OCTANOATE

>  <SYNONYMS>  (4050) 


>  <SPECTRUM TYPE>  (4050) 
MS1

>  <INSTRUMENT TYPE>  (4050) 
EI-B

>  <INSTRUMENT>  (4050) 
HITACHI M-80B

>  <ION MODE>  (4050) 
P

>  <INCHIKEY>  (4050) 
CFQRBRGFNFRMBD-UHFFFAOYSA-N

>  <FORMULA>  (4050) 
C12H24O2

>  <EXACT MASS>  (4050) 
200.177630008

>  <MW>  (4050) 
200

>  <ID>  (4050) 
JP006434

>  <CONTRIBUTOR>  (4050) 
University of Tokyo Team, {Faculty of Engineering, University of Tokyo

>  <COMMENT>  (4050) 
SMILES=CCCCCCCC(=O)OCC(C)C
InChI=InChI=1S/C12H24O2/c1-4-5-6-7-8-9-12(13)14-10-11(2)3/h11H,4-10H2,1-3H3
computed SMILES=O=C(OCC(C)C)CCCCCCC
accession=JP006434
date=2016.01.19 (Created 2008.10.21, modified 2011.05.06)
author=HISAHIRO HAGIWARA, CHEMICAL RESEARCH INSTITUTE OF NON-AQUEOUSSOLUTIONS TOHOKU UNIV.
license=CC BY-NC-SA
exact mass=200.17763
ionization energy=70 eV
ion type=[M]+*
computed spectral entropy=2.779077715619822
computed normalized entropy=0.7533663678059528
SPLASH=splash10-0a4i-9200000000-dc7d7eb133eff7e0564e
submitter=submitter = University of Tokyo Team (Faculty of Engineering, University of Tokyo)
MoNA Rating=3.75

>  <NUM PEAKS>  (4050) 
40

>  <MASS SPECTRAL PEAKS>  (4050) 
27 15.34
29 30.11
31 1.66
39 11.45
41 50.22
42 11.09
43 32.31
45 1.23
53 1.58
54 1.26
55 20.29
56 88.84
57 99.99
58 3.91
59 1.07
60 19.77
61 5.03
67 2.03
69 3.47
70 1.38
71 1.29
73 12.1
74 1.21
82 1.03
83 3.68
84 4.15
85 1.83
87 4.4
89 1.28
97 1.27
98 1.57
101 5.7
109 1.76
115 1.73
116 2.89
127 57.47
128 4.29
144 5.3
145 22.89
146 1.69

$$$$

     RDKit          2D

 14 13  0  0  0  0  0  0  0  0999 V2000
    3.8971    6.7500    0.0000 C   0  0  0  0  0  0  0  0  0  0  0  0
  -11.6913    6.7500    0.0000 C   0  0  0  0  0  0  0  0  0  0  0  0
    2.5981    7.5000    0.0000 C   0  0  0  0  0  0  0  0  0  0  0  0
  -10.3923    7.5000    0.0000 C   0  0  0  0  0  0  0  0  0  0  0  0
    1.2990    6.7500    0.0000 C   0  0  0  0  0  0  0  0  0  0  0  0
   -9.0933    6.7500    0.0000 C   0  0  0  0  0  0  0  0  0  0  0  0
    0.0000    7.5000    0.0000 C   0  0  0  0  0  0  0  0  0  0  0  0
   -1.2990    6.7500    0.0000 C   0  0  0  0  0  0  0  0  0  0  0  0
   -2.5981    7.5000    0.0000 C   0  0  0  0  0  0  0  0  0  0  0  0
   -3.8971    6.7500    0.0000 C   0  0  0  0  0  0  0  0  0  0  0  0
   -7.7942    7.5000    0.0000 C   0  0  0  0  0  0  0  0  0  0  0  0
   -5.1962    7.5000    0.0000 C   0  0  0  0  0  0  0  0  0  0  0  0
   -5.1962    9.0000    0.0000 O   0  0  0  0  0  0  0  0  0  0  0  0
   -6.4952    6.7500    0.0000 O   0  0  0  0  0  0  0  0  0  0  0  0
  3  1  1  0
  4  2  1  0
  5  3  1  0
  6  4  1  0
  7  5  1  0
  8  7  1  0
  9  8  1  0
 10  9  1  0
 11  6  1  0
 12 10  1  0
 13 12  2  0
 14 11  1  0
 14 12  1  0
M  END
>  <NAME>  (4051) 
BUTYL OCTANOATE

>  <SYNONYMS>  (4051) 


>  <SPECTRUM TYPE>  (4051) 
MS1

>  <INSTRUMENT TYPE>  (4051) 
EI-B

>  <INSTRUMENT>  (4051) 
HITACHI M-80B

>  <ION MODE>  (4051) 
P

>  <INCHIKEY>  (4051) 
PSXNDMJWRZYVTM-UHFFFAOYSA-N

>  <FORMULA>  (4051) 
C12H24O2

>  <EXACT MASS>  (4051) 
200.177630008

>  <MW>  (4051) 
200

>  <ID>  (4051) 
JP006433

>  <CONTRIBUTOR>  (4051) 
University of Tokyo Team, {Faculty of Engineering, University of Tokyo

>  <COMMENT>  (4051) 
SMILES=CCCCCCCC(=O)OCCCC
InChI=InChI=1S/C12H24O2/c1-3-5-7-8-9-10-12(13)14-11-6-4-2/h3-11H2,1-2H3
computed SMILES=O=C(OCCCC)CCCCCCC
accession=JP006433
date=2016.01.19 (Created 2008.10.21, modified 2011.05.06)
author=HISAHIRO HAGIWARA, CHEMICAL RESEARCH INSTITUTE OF NON-AQUEOUSSOLUTIONS TOHOKU UNIV.
license=CC BY-NC-SA
exact mass=200.17763
ionization energy=70 eV
ion type=[M]+*
computed spectral entropy=2.9647917233933456
computed normalized entropy=0.7743717461008731
SPLASH=splash10-0a4i-9200000000-11a863e8d01893a870bf
submitter=submitter = University of Tokyo Team (Faculty of Engineering, University of Tokyo)
MoNA Rating=3.75

>  <NUM PEAKS>  (4051) 
46

>  <MASS SPECTRAL PEAKS>  (4051) 
26 1.15
27 17.93
29 36.64
31 1.61
39 10.66
41 52.99
42 11.19
43 28.47
45 1.86
53 2.23
54 1.6
55 27.09
56 99.99
57 72
58 2.07
59 1.2
60 28.45
61 11.53
67 2.19
69 4.56
70 1.78
71 1.42
73 20.86
74 2.09
82 1.42
83 4.65
84 3.55
85 1.75
86 1
87 5.27
89 3.83
97 2.17
98 2.08
101 11.57
103 1.95
109 1.63
115 2.5
116 5.05
117 1.01
125 1.05
127 48.17
128 3.35
129 2.74
144 3.76
145 54.33
146 3.99

$$$$

     RDKit          2D

 13 12  0  0  0  0  0  0  0  0999 V2000
    3.2476    5.6250    0.0000 C   0  0  0  0  0  0  0  0  0  0  0  0
   -9.7428    5.6250    0.0000 C   0  0  0  0  0  0  0  0  0  0  0  0
   -8.4437    7.8750    0.0000 C   0  0  0  0  0  0  0  0  0  0  0  0
    1.9486    6.3750    0.0000 C   0  0  0  0  0  0  0  0  0  0  0  0
    0.6495    5.6250    0.0000 C   0  0  0  0  0  0  0  0  0  0  0  0
   -0.6495    6.3750    0.0000 C   0  0  0  0  0  0  0  0  0  0  0  0
   -1.9486    5.6250    0.0000 C   0  0  0  0  0  0  0  0  0  0  0  0
   -3.2476    6.3750    0.0000 C   0  0  0  0  0  0  0  0  0  0  0  0
   -4.5466    5.6250    0.0000 C   0  0  0  0  0  0  0  0  0  0  0  0
   -8.4437    6.3750    0.0000 C   0  0  0  0  0  0  0  0  0  0  0  0
   -5.8457    6.3750    0.0000 C   0  0  0  0  0  0  0  0  0  0  0  0
   -5.8457    7.8750    0.0000 O   0  0  0  0  0  0  0  0  0  0  0  0
   -7.1447    5.6250    0.0000 O   0  0  0  0  0  0  0  0  0  0  0  0
  4  1  1  0
  5  4  1  0
  6  5  1  0
  7  6  1  0
  8  7  1  0
  9  8  1  0
 10  2  1  0
 10  3  1  0
 11  9  1  0
 12 11  2  0
 13 10  1  0
 13 11  1  0
M  END
>  <NAME>  (4052) 
ISOPROPYL OCTANOATE

>  <SYNONYMS>  (4052) 


>  <SPECTRUM TYPE>  (4052) 
MS1

>  <INSTRUMENT TYPE>  (4052) 
EI-B

>  <INSTRUMENT>  (4052) 
HITACHI M-80B

>  <ION MODE>  (4052) 
P

>  <INCHIKEY>  (4052) 
WCGIIHOFOFCKSM-UHFFFAOYSA-N

>  <FORMULA>  (4052) 
C11H22O2

>  <EXACT MASS>  (4052) 
186.161979944

>  <MW>  (4052) 
186

>  <ID>  (4052) 
JP006432

>  <CONTRIBUTOR>  (4052) 
University of Tokyo Team, {Faculty of Engineering, University of Tokyo

>  <COMMENT>  (4052) 
SMILES=CCCCCCCC(=O)OC(C)C
InChI=InChI=1S/C11H22O2/c1-4-5-6-7-8-9-11(12)13-10(2)3/h10H,4-9H2,1-3H3
computed SMILES=O=C(OC(C)C)CCCCCCC
accession=JP006432
date=2016.01.19 (Created 2008.10.21, modified 2011.05.06)
author=HISAHIRO HAGIWARA, CHEMICAL RESEARCH INSTITUTE OF NON-AQUEOUSSOLUTIONS TOHOKU UNIV.
license=CC BY-NC-SA
exact mass=186.16198
ionization energy=70 eV
ion type=[M]+*
computed spectral entropy=3.125078156340989
computed normalized entropy=0.8258249344405056
SPLASH=splash10-052f-9200000000-cab92d057d3dbe679c6f
submitter=submitter = University of Tokyo Team (Faculty of Engineering, University of Tokyo)
MoNA Rating=3.75

>  <NUM PEAKS>  (4052) 
44

>  <MASS SPECTRAL PEAKS>  (4052) 
15 1.19
26 1
27 22.69
29 19.97
39 13.58
41 48.6
42 18.84
43 99.99
44 3.28
45 4.9
53 1.71
54 1.43
55 24.36
56 6.11
57 44.81
58 1.87
59 24.08
60 57.56
61 10.44
67 2.18
69 5.9
70 2.09
71 1.31
73 20.12
74 2.25
82 1.61
83 6.04
84 13.18
85 8.97
87 8.16
89 2.17
97 3.06
98 2.2
101 10.34
102 30.1
103 3.28
109 1.45
115 3.62
125 1.35
127 39.86
128 3.55
144 15.57
145 26.25
146 1.91

$$$$

     RDKit          2D

 13 12  0  0  0  0  0  0  0  0999 V2000
    3.8971    6.0000    0.0000 C   0  0  0  0  0  0  0  0  0  0  0  0
  -10.3923    6.7500    0.0000 C   0  0  0  0  0  0  0  0  0  0  0  0
    2.5981    6.7500    0.0000 C   0  0  0  0  0  0  0  0  0  0  0  0
   -9.0933    6.0000    0.0000 C   0  0  0  0  0  0  0  0  0  0  0  0
    1.2990    6.0000    0.0000 C   0  0  0  0  0  0  0  0  0  0  0  0
    0.0000    6.7500    0.0000 C   0  0  0  0  0  0  0  0  0  0  0  0
   -1.2990    6.0000    0.0000 C   0  0  0  0  0  0  0  0  0  0  0  0
   -2.5981    6.7500    0.0000 C   0  0  0  0  0  0  0  0  0  0  0  0
   -3.8971    6.0000    0.0000 C   0  0  0  0  0  0  0  0  0  0  0  0
   -7.7942    6.7500    0.0000 C   0  0  0  0  0  0  0  0  0  0  0  0
   -5.1962    6.7500    0.0000 C   0  0  0  0  0  0  0  0  0  0  0  0
   -5.1962    8.2500    0.0000 O   0  0  0  0  0  0  0  0  0  0  0  0
   -6.4952    6.0000    0.0000 O   0  0  0  0  0  0  0  0  0  0  0  0
  3  1  1  0
  4  2  1  0
  5  3  1  0
  6  5  1  0
  7  6  1  0
  8  7  1  0
  9  8  1  0
 10  4  1  0
 11  9  1  0
 12 11  2  0
 13 10  1  0
 13 11  1  0
M  END
>  <NAME>  (4053) 
PROPYL OCTANOATE

>  <SYNONYMS>  (4053) 


>  <SPECTRUM TYPE>  (4053) 
MS1

>  <INSTRUMENT TYPE>  (4053) 
EI-B

>  <INSTRUMENT>  (4053) 
HITACHI M-80B

>  <ION MODE>  (4053) 
P

>  <INCHIKEY>  (4053) 
IDHBLVYDNJDWNO-UHFFFAOYSA-N

>  <FORMULA>  (4053) 
C11H22O2

>  <EXACT MASS>  (4053) 
186.161979944

>  <MW>  (4053) 
186

>  <ID>  (4053) 
JP006431

>  <CONTRIBUTOR>  (4053) 
University of Tokyo Team, {Faculty of Engineering, University of Tokyo

>  <COMMENT>  (4053) 
SMILES=CCCCCCCC(=O)OCCC
InChI=InChI=1S/C11H22O2/c1-3-5-6-7-8-9-11(12)13-10-4-2/h3-10H2,1-2H3
computed SMILES=O=C(OCCC)CCCCCCC
accession=JP006431
date=2016.01.19 (Created 2008.10.21, modified 2011.05.06)
author=HISAHIRO HAGIWARA, CHEMICAL RESEARCH INSTITUTE OF NON-AQUEOUSSOLUTIONS TOHOKU UNIV.
license=CC BY-NC-SA
exact mass=186.16198
ionization energy=70 eV
ion type=[M]+*
computed spectral entropy=3.1738972790553315
computed normalized entropy=0.7956655734908291
SPLASH=splash10-06tf-9200000000-1ef6cb6d9a453a2b2d9a
submitter=submitter = University of Tokyo Team (Faculty of Engineering, University of Tokyo)
MoNA Rating=3.75

>  <NUM PEAKS>  (4053) 
54

>  <MASS SPECTRAL PEAKS>  (4053) 
15 1.32
26 1.77
27 44.1
29 38.97
30 1.46
31 4.65
39 21.42
41 81.99
42 40.62
43 99.34
44 1.8
45 3.37
53 3.48
54 2.41
55 42.37
56 8.8
57 77.91
58 3.39
59 7.67
60 74.58
61 99.99
62 2.21
67 4.15
68 1.28
69 10.34
70 3.38
71 1.96
73 40.87
74 4.28
75 1.47
81 1.84
82 2.73
83 10.37
84 5.55
85 2.58
87 15.46
89 6.33
97 4.71
98 3.94
101 12.36
102 31.83
103 5.78
109 2.76
115 15.91
116 1.08
125 1.99
127 78.23
128 5.93
129 2.02
143 2.3
144 4.7
145 79.4
146 5.61
157 1.43

$$$$

     RDKit          2D

 13 12  0  0  0  0  0  0  0  0999 V2000
    3.8971    6.0000    0.0000 C   0  0  0  0  0  0  0  0  0  0  0  0
  -10.3923    6.7500    0.0000 C   0  0  0  0  0  0  0  0  0  0  0  0
    2.5981    6.7500    0.0000 C   0  0  0  0  0  0  0  0  0  0  0  0
   -9.0933    6.0000    0.0000 C   0  0  0  0  0  0  0  0  0  0  0  0
    1.2990    6.0000    0.0000 C   0  0  0  0  0  0  0  0  0  0  0  0
    0.0000    6.7500    0.0000 C   0  0  0  0  0  0  0  0  0  0  0  0
   -1.2990    6.0000    0.0000 C   0  0  0  0  0  0  0  0  0  0  0  0
   -2.5981    6.7500    0.0000 C   0  0  0  0  0  0  0  0  0  0  0  0
   -3.8971    6.0000    0.0000 C   0  0  0  0  0  0  0  0  0  0  0  0
   -7.7942    6.7500    0.0000 C   0  0  0  0  0  0  0  0  0  0  0  0
   -5.1962    6.7500    0.0000 C   0  0  0  0  0  0  0  0  0  0  0  0
   -5.1962    8.2500    0.0000 O   0  0  0  0  0  0  0  0  0  0  0  0
   -6.4952    6.0000    0.0000 O   0  0  0  0  0  0  0  0  0  0  0  0
  3  1  1  0
  4  2  2  0
  5  3  1  0
  6  5  1  0
  7  6  1  0
  8  7  1  0
  9  8  1  0
 10  4  1  0
 11  9  1  0
 12 11  2  0
 13 10  1  0
 13 11  1  0
M  END
>  <NAME>  (4054) 
ALLYL OCTANOATE

>  <SYNONYMS>  (4054) 


>  <SPECTRUM TYPE>  (4054) 
MS1

>  <INSTRUMENT TYPE>  (4054) 
EI-B

>  <INSTRUMENT>  (4054) 
HITACHI M-80B

>  <ION MODE>  (4054) 
P

>  <INCHIKEY>  (4054) 
PZGMUSDNQDCNAG-UHFFFAOYSA-N

>  <FORMULA>  (4054) 
C11H20O2

>  <EXACT MASS>  (4054) 
184.14632988

>  <MW>  (4054) 
184

>  <ID>  (4054) 
JP006430

>  <CONTRIBUTOR>  (4054) 
University of Tokyo Team, {Faculty of Engineering, University of Tokyo

>  <COMMENT>  (4054) 
SMILES=CCCCCCCC(=O)OCC=C
InChI=InChI=1S/C11H20O2/c1-3-5-6-7-8-9-11(12)13-10-4-2/h4H,2-3,5-10H2,1H3
computed SMILES=O=C(OCC=C)CCCCCCC
accession=JP006430
date=2016.01.19 (Created 2008.10.21, modified 2011.05.06)
author=HISAHIRO HAGIWARA, CHEMICAL RESEARCH INSTITUTE OF NON-AQUEOUSSOLUTIONS TOHOKU UNIV.
license=CC BY-NC-SA
exact mass=184.14633
ionization energy=70 eV
ion type=[M]+*
computed spectral entropy=2.9328537585660848
computed normalized entropy=0.7750282206468924
SPLASH=splash10-0a6u-9200000000-9c58916f7999e9c1a456
submitter=submitter = University of Tokyo Team (Faculty of Engineering, University of Tokyo)
MoNA Rating=3.75

>  <NUM PEAKS>  (4054) 
44

>  <MASS SPECTRAL PEAKS>  (4054) 
15 1.2
26 1.56
27 19.57
29 26.78
31 1.13
39 26.87
40 1.14
41 94.48
42 13.01
43 42.65
44 1.27
45 1.89
53 2.15
54 9.87
55 46.84
56 13.05
57 99.99
58 11.25
59 2.98
60 1.17
67 5.52
68 1.07
69 6.51
70 1.61
71 2.14
73 1.46
81 4.04
82 5.02
83 15.67
84 3.43
85 2.21
95 1.05
97 9.46
98 2.14
99 2.26
100 31.36
101 3.65
109 4.7
113 12.44
125 4.01
127 50.87
128 4.58
141 2.41
155 1.22

$$$$

     RDKit          2D

 12 11  0  0  0  0  0  0  0  0999 V2000
    3.2476    5.6250    0.0000 C   0  0  0  0  0  0  0  0  0  0  0  0
   -9.7428    5.6250    0.0000 C   0  0  0  0  0  0  0  0  0  0  0  0
    1.9486    6.3750    0.0000 C   0  0  0  0  0  0  0  0  0  0  0  0
   -8.4437    6.3750    0.0000 C   0  0  0  0  0  0  0  0  0  0  0  0
    0.6495    5.6250    0.0000 C   0  0  0  0  0  0  0  0  0  0  0  0
   -0.6495    6.3750    0.0000 C   0  0  0  0  0  0  0  0  0  0  0  0
   -1.9486    5.6250    0.0000 C   0  0  0  0  0  0  0  0  0  0  0  0
   -3.2476    6.3750    0.0000 C   0  0  0  0  0  0  0  0  0  0  0  0
   -4.5466    5.6250    0.0000 C   0  0  0  0  0  0  0  0  0  0  0  0
   -5.8457    6.3750    0.0000 C   0  0  0  0  0  0  0  0  0  0  0  0
   -5.8457    7.8750    0.0000 O   0  0  0  0  0  0  0  0  0  0  0  0
   -7.1447    5.6250    0.0000 O   0  0  0  0  0  0  0  0  0  0  0  0
  3  1  1  0
  4  2  1  0
  5  3  1  0
  6  5  1  0
  7  6  1  0
  8  7  1  0
  9  8  1  0
 10  9  1  0
 11 10  2  0
 12  4  1  0
 12 10  1  0
M  END
>  <NAME>  (4055) 
ETHYL OCTANOATE

>  <SYNONYMS>  (4055) 


>  <SPECTRUM TYPE>  (4055) 
MS1

>  <INSTRUMENT TYPE>  (4055) 
EI-B

>  <INSTRUMENT>  (4055) 
HITACHI M-80B

>  <ION MODE>  (4055) 
P

>  <INCHIKEY>  (4055) 
YYZUSRORWSJGET-UHFFFAOYSA-N

>  <FORMULA>  (4055) 
C10H20O2

>  <EXACT MASS>  (4055) 
172.14632988

>  <MW>  (4055) 
172

>  <ID>  (4055) 
JP006429

>  <CONTRIBUTOR>  (4055) 
University of Tokyo Team, {Faculty of Engineering, University of Tokyo

>  <COMMENT>  (4055) 
SMILES=CCCCCCCC(=O)OCC
InChI=InChI=1S/C10H20O2/c1-3-5-6-7-8-9-10(11)12-4-2/h3-9H2,1-2H3
computed SMILES=O=C(OCC)CCCCCCC
accession=JP006429
date=2016.01.19 (Created 2008.10.21, modified 2011.05.06)
author=HISAHIRO HAGIWARA, CHEMICAL RESEARCH INSTITUTE OF NON-AQUEOUSSOLUTIONS TOHOKU UNIV.
license=CC BY-NC-SA
exact mass=172.14633
ionization energy=70 eV
ion type=[M]+*
computed spectral entropy=3.0587407308677506
computed normalized entropy=0.8183550295364427
SPLASH=splash10-0553-9100000000-317ca99bd3ea06f6d867
submitter=submitter = University of Tokyo Team (Faculty of Engineering, University of Tokyo)
MoNA Rating=3.75

>  <NUM PEAKS>  (4055) 
42

>  <MASS SPECTRAL PEAKS>  (4055) 
26 1.35
27 20.68
29 39.48
30 1.03
31 1.49
39 9.61
41 33.24
42 11.04
43 23.82
45 12.54
53 2.03
54 1.38
55 22.48
56 4.41
57 35.04
58 1.37
59 1.32
60 27.08
61 20.38
67 1.78
69 7.15
70 17.19
71 1.41
73 21.91
74 2.71
83 3.47
84 3.51
87 2.99
88 99.99
89 6.94
97 2.4
98 2.47
101 33.62
102 2.53
109 1.18
115 7.12
127 23.91
128 1.82
129 7.2
143 2.81
145 1.38
172 1.64

$$$$

     RDKit          2D

 11 10  0  0  0  0  0  0  0  0999 V2000
   -8.4437    5.6250    0.0000 C   0  0  0  0  0  0  0  0  0  0  0  0
    3.2476    4.8750    0.0000 C   0  0  0  0  0  0  0  0  0  0  0  0
   -7.1447    4.8750    0.0000 C   0  0  0  0  0  0  0  0  0  0  0  0
   -5.8457    5.6250    0.0000 C   0  0  0  0  0  0  0  0  0  0  0  0
   -4.5466    4.8750    0.0000 C   0  0  0  0  0  0  0  0  0  0  0  0
   -3.2476    5.6250    0.0000 C   0  0  0  0  0  0  0  0  0  0  0  0
   -1.9486    4.8750    0.0000 C   0  0  0  0  0  0  0  0  0  0  0  0
   -0.6495    5.6250    0.0000 C   0  0  0  0  0  0  0  0  0  0  0  0
    0.6495    4.8750    0.0000 C   0  0  0  0  0  0  0  0  0  0  0  0
    0.6495    3.3750    0.0000 O   0  0  0  0  0  0  0  0  0  0  0  0
    1.9486    5.6250    0.0000 O   0  0  0  0  0  0  0  0  0  0  0  0
  3  1  1  0
  4  3  1  0
  5  4  1  0
  6  5  1  0
  7  6  1  0
  8  7  1  0
  9  8  1  0
 10  9  2  0
 11  2  1  0
 11  9  1  0
M  END
>  <NAME>  (4056) 
METHYL OCTANOATE

>  <SYNONYMS>  (4056) 


>  <SPECTRUM TYPE>  (4056) 
MS1

>  <INSTRUMENT TYPE>  (4056) 
EI-B

>  <INSTRUMENT>  (4056) 
HITACHI M-80B

>  <ION MODE>  (4056) 
P

>  <INCHIKEY>  (4056) 
JGHZJRVDZXSNKQ-UHFFFAOYSA-N

>  <FORMULA>  (4056) 
C9H18O2

>  <EXACT MASS>  (4056) 
158.130679816

>  <MW>  (4056) 
158

>  <ID>  (4056) 
JP006428

>  <CONTRIBUTOR>  (4056) 
University of Tokyo Team, {Faculty of Engineering, University of Tokyo

>  <COMMENT>  (4056) 
SMILES=CCCCCCCC(=O)OC
InChI=InChI=1S/C9H18O2/c1-3-4-5-6-7-8-9(10)11-2/h3-8H2,1-2H3
computed SMILES=O=C(OC)CCCCCCC
accession=JP006428
date=2016.01.19 (Created 2008.10.21, modified 2011.05.06)
author=HISAHIRO HAGIWARA, CHEMICAL RESEARCH INSTITUTE OF NON-AQUEOUSSOLUTIONS TOHOKU UNIV.
license=CC BY-NC-SA
exact mass=158.13068
ionization energy=70 eV
ion type=[M]+*
computed spectral entropy=2.6715492060974904
computed normalized entropy=0.7854731455755478
SPLASH=splash10-00dl-9000000000-11d861be484d298f17df
submitter=submitter = University of Tokyo Team (Faculty of Engineering, University of Tokyo)
MoNA Rating=3.75

>  <NUM PEAKS>  (4056) 
30

>  <MASS SPECTRAL PEAKS>  (4056) 
15 7.29
27 14.11
29 16.22
31 1.43
39 9.47
41 25.71
42 8.03
43 25.73
45 1.71
53 1.73
55 18.09
56 2.66
57 15.07
59 13.87
67 1.16
69 5.93
70 1.16
73 1.62
74 99.99
75 7.13
83 1.76
84 2.54
87 37.89
88 3.94
97 1.1
98 1.32
101 5.51
115 6.13
127 7.82
129 2.21

$$$$

     RDKit          2D

 10  9  0  0  0  0  0  0  0  0999 V2000
    2.5981    4.5000    0.0000 C   0  0  0  0  0  0  0  0  0  0  0  0
   -7.7942    4.5000    0.0000 C   0  0  0  0  0  0  0  0  0  0  0  0
    1.2990    5.2500    0.0000 C   0  0  0  0  0  0  0  0  0  0  0  0
    0.0000    4.5000    0.0000 C   0  0  0  0  0  0  0  0  0  0  0  0
   -1.2990    5.2500    0.0000 C   0  0  0  0  0  0  0  0  0  0  0  0
   -2.5981    4.5000    0.0000 C   0  0  0  0  0  0  0  0  0  0  0  0
   -3.8971    5.2500    0.0000 C   0  0  0  0  0  0  0  0  0  0  0  0
   -5.1962    4.5000    0.0000 C   0  0  0  0  0  0  0  0  0  0  0  0
   -5.1962    3.0000    0.0000 O   0  0  0  0  0  0  0  0  0  0  0  0
   -6.4952    5.2500    0.0000 O   0  0  0  0  0  0  0  0  0  0  0  0
  3  1  1  0
  4  3  1  0
  5  4  1  0
  6  5  1  0
  6  7  2  0
  8  7  1  0
  9  8  2  0
 10  2  1  0
 10  8  1  0
M  END
>  <NAME>  (4057) 
METHYL 2-HEPTENOATE

>  <SYNONYMS>  (4057) 


>  <SPECTRUM TYPE>  (4057) 
MS1

>  <INSTRUMENT TYPE>  (4057) 
EI-B

>  <INSTRUMENT>  (4057) 
HITACHI M-80B

>  <ION MODE>  (4057) 
P

>  <INCHIKEY>  (4057) 
IQQDLHGWGKEQDS-VOTSOKGWSA-N

>  <FORMULA>  (4057) 
C8H14O2

>  <EXACT MASS>  (4057) 
142.099379688

>  <MW>  (4057) 
142

>  <ID>  (4057) 
JP006427

>  <CONTRIBUTOR>  (4057) 
University of Tokyo Team, {Faculty of Engineering, University of Tokyo

>  <COMMENT>  (4057) 
SMILES=CCCCC=CC(=O)OC
InChI=InChI=1S/C8H14O2/c1-3-4-5-6-7-8(9)10-2/h6-7H,3-5H2,1-2H3/b7-6+
computed SMILES=O=C(OC)C=CCCCC
accession=JP006427
date=2016.01.19 (Created 2008.10.21, modified 2011.05.06)
author=HISAHIRO HAGIWARA, CHEMICAL RESEARCH INSTITUTE OF NON-AQUEOUSSOLUTIONS TOHOKU UNIV.
license=CC BY-NC-SA
exact mass=142.09938
ionization energy=70 eV
ion type=[M]+*
computed spectral entropy=3.3555455615223453
computed normalized entropy=0.8299537500842943
SPLASH=splash10-06rl-9200000000-0c0aee09409e7fa0c249
submitter=submitter = University of Tokyo Team (Faculty of Engineering, University of Tokyo)
MoNA Rating=3.75

>  <NUM PEAKS>  (4057) 
57

>  <MASS SPECTRAL PEAKS>  (4057) 
14 2.25
15 17.88
26 3.96
27 50.2
29 21.54
30 1.27
31 2.95
38 3.34
39 49.34
40 1.51
41 84.58
42 10.05
43 30.77
44 1.11
45 5.05
50 2.4
51 4.86
52 2.87
53 26.34
54 11
55 99.99
56 28.5
57 2.87
58 2.18
59 31.72
60 1.07
65 1.97
66 1.4
67 8.42
68 36.88
69 35.47
70 2.41
71 11.03
72 2.09
73 1.18
74 40.07
75 1.71
77 1.61
79 2.63
81 25.12
82 20.44
83 5.58
85 8.28
87 95.59
88 6.18
95 1.9
99 2.45
100 15.21
101 17.36
110 21.08
111 46.5
112 3.27
113 59.14
114 4.55
127 3.24
142 10.88
143 1.53

$$$$

     RDKit          2D

 16 16  0  0  0  0  0  0  0  0999 V2000
  -11.7120   -0.8357    0.0000 C   0  0  0  0  0  0  0  0  0  0  0  0
    2.6027    1.4936    0.0000 C   0  0  0  0  0  0  0  0  0  0  0  0
  -10.4068   -1.5750    0.0000 C   0  0  0  0  0  0  0  0  0  0  0  0
   -9.1140   -0.8143    0.0000 C   0  0  0  0  0  0  0  0  0  0  0  0
   -7.8088   -1.5536    0.0000 C   0  0  0  0  0  0  0  0  0  0  0  0
   -6.5160   -0.7929    0.0000 C   0  0  0  0  0  0  0  0  0  0  0  0
   -5.2108   -1.5321    0.0000 C   0  0  0  0  0  0  0  0  0  0  0  0
    1.3000   -0.7500    0.0000 C   0  0  0  0  0  0  0  0  0  0  0  0
    0.0300    1.5000    0.0000 C   0  0  0  0  0  0  0  0  0  0  0  0
    0.0300   -1.5000    0.0000 C   0  0  0  0  0  0  0  0  0  0  0  0
   -1.3200    0.7500    0.0000 C   0  0  0  0  0  0  0  0  0  0  0  0
    1.3000    0.7500    0.0000 C   0  0  0  0  0  0  0  0  0  0  0  0
   -1.3200   -0.7500    0.0000 C   0  0  0  0  0  0  0  0  0  0  0  0
   -3.9180   -0.7714    0.0000 C   0  0  0  0  0  0  0  0  0  0  0  0
   -3.9304    0.7285    0.0000 O   0  0  0  0  0  0  0  0  0  0  0  0
   -2.6128   -1.5107    0.0000 O   0  0  0  0  0  0  0  0  0  0  0  0
  3  1  1  0
  4  3  1  0
  5  4  1  0
  6  5  1  0
  7  6  1  0
 10  8  2  0
 11  9  1  0
 12  2  1  0
 12  8  1  0
 12  9  2  0
 13 10  1  0
 13 11  2  0
 14  7  1  0
 15 14  2  0
 16 13  1  0
 16 14  1  0
M  END
>  <NAME>  (4058) 
P-CRESYL HEPTANOATE

>  <SYNONYMS>  (4058) 
4-METHYLPHENYL HEPTANOATE

>  <SPECTRUM TYPE>  (4058) 
MS1

>  <INSTRUMENT TYPE>  (4058) 
EI-B

>  <INSTRUMENT>  (4058) 
HITACHI M-80B

>  <ION MODE>  (4058) 
P

>  <INCHIKEY>  (4058) 
AGWLNVFDVVPLDL-UHFFFAOYSA-N

>  <FORMULA>  (4058) 
C14H20O2

>  <EXACT MASS>  (4058) 
220.14632988

>  <MW>  (4058) 
220

>  <ID>  (4058) 
JP006426

>  <CONTRIBUTOR>  (4058) 
University of Tokyo Team, {Faculty of Engineering, University of Tokyo

>  <COMMENT>  (4058) 
SMILES=CCCCCCC(=O)Oc(c1)ccc(C)c1
InChI=InChI=1S/C14H20O2/c1-3-4-5-6-7-14(15)16-13-10-8-12(2)9-11-13/h8-11H,3-7H2,1-2H3
computed SMILES=O=C(OC1=CC=C(C=C1)C)CCCCCC
accession=JP006426
date=2016.01.19 (Created 2008.10.21, modified 2011.05.06)
author=HISAHIRO HAGIWARA, CHEMICAL RESEARCH INSTITUTE OF NON-AQUEOUSSOLUTIONS TOHOKU UNIV.
license=CC BY-NC-SA
exact mass=220.14633
ionization energy=70 eV
ion type=[M]+*
computed spectral entropy=2.1425510563798937
computed normalized entropy=0.6741707883989236
SPLASH=splash10-0a4i-6900000000-30488b9b8720f29f8e48
submitter=submitter = University of Tokyo Team (Faculty of Engineering, University of Tokyo)
MoNA Rating=3.75

>  <NUM PEAKS>  (4058) 
24

>  <MASS SPECTRAL PEAKS>  (4058) 
27 5.56
29 3.76
39 3.15
41 9.5
42 1.76
43 29.86
51 1.67
52 1.11
53 1.73
55 5.93
57 3.3
65 1.88
69 1.03
77 6.55
78 1.79
79 2.74
80 1.05
86 3.66
91 2.45
107 9.9
108 99.99
109 10.26
113 4.7
220 3.3

$$$$

     RDKit          2D

 16 15  0  0  0  0  0  0  0  0999 V2000
    4.5466    7.8750    0.0000 C   0  0  0  0  0  0  0  0  0  0  0  0
  -13.6399    7.8750    0.0000 C   0  0  0  0  0  0  0  0  0  0  0  0
    3.2476    8.6250    0.0000 C   0  0  0  0  0  0  0  0  0  0  0  0
  -12.3409    8.6250    0.0000 C   0  0  0  0  0  0  0  0  0  0  0  0
    1.9486    7.8750    0.0000 C   0  0  0  0  0  0  0  0  0  0  0  0
  -11.0418    7.8750    0.0000 C   0  0  0  0  0  0  0  0  0  0  0  0
    0.6495    8.6250    0.0000 C   0  0  0  0  0  0  0  0  0  0  0  0
   -9.7428    8.6250    0.0000 C   0  0  0  0  0  0  0  0  0  0  0  0
   -0.6495    7.8750    0.0000 C   0  0  0  0  0  0  0  0  0  0  0  0
   -8.4437    7.8750    0.0000 C   0  0  0  0  0  0  0  0  0  0  0  0
   -1.9486    8.6250    0.0000 C   0  0  0  0  0  0  0  0  0  0  0  0
   -7.1447    8.6250    0.0000 C   0  0  0  0  0  0  0  0  0  0  0  0
   -3.2476    7.8750    0.0000 C   0  0  0  0  0  0  0  0  0  0  0  0
   -5.8457    7.8750    0.0000 C   0  0  0  0  0  0  0  0  0  0  0  0
   -5.8457    6.3750    0.0000 O   0  0  0  0  0  0  0  0  0  0  0  0
   -4.5466    8.6250    0.0000 O   0  0  0  0  0  0  0  0  0  0  0  0
  3  1  1  0
  4  2  1  0
  5  3  1  0
  6  4  1  0
  7  5  1  0
  8  6  1  0
  9  7  1  0
 10  8  1  0
 11  9  1  0
 12 10  1  0
 13 11  1  0
 14 12  1  0
 15 14  2  0
 16 13  1  0
 16 14  1  0
M  END
>  <NAME>  (4059) 
HEPTYL HEPTANOATE

>  <SYNONYMS>  (4059) 


>  <SPECTRUM TYPE>  (4059) 
MS1

>  <INSTRUMENT TYPE>  (4059) 
EI-B

>  <INSTRUMENT>  (4059) 
HITACHI M-80B

>  <ION MODE>  (4059) 
P

>  <INCHIKEY>  (4059) 
QOIIBPAJVWFEPE-UHFFFAOYSA-N

>  <FORMULA>  (4059) 
C14H28O2

>  <EXACT MASS>  (4059) 
228.208930136

>  <MW>  (4059) 
228

>  <ID>  (4059) 
JP006425

>  <CONTRIBUTOR>  (4059) 
University of Tokyo Team, {Faculty of Engineering, University of Tokyo

>  <COMMENT>  (4059) 
SMILES=CCCCCCCOC(=O)CCCCCC
InChI=InChI=1S/C14H28O2/c1-3-5-7-9-11-13-16-14(15)12-10-8-6-4-2/h3-13H2,1-2H3
computed SMILES=O=C(OCCCCCCC)CCCCCC
accession=JP006425
date=2016.01.19 (Created 2008.10.21, modified 2011.05.06)
author=HISAHIRO HAGIWARA, CHEMICAL RESEARCH INSTITUTE OF NON-AQUEOUSSOLUTIONS TOHOKU UNIV.
license=CC BY-NC-SA
exact mass=228.20893
ionization energy=70 eV
ion type=[M]+*
computed spectral entropy=3.1011287395058655
computed normalized entropy=0.8146581809760015
SPLASH=splash10-0a4l-9100000000-a7738627837f6b952746
submitter=submitter = University of Tokyo Team (Faculty of Engineering, University of Tokyo)
MoNA Rating=3.75

>  <NUM PEAKS>  (4059) 
45

>  <MASS SPECTRAL PEAKS>  (4059) 
27 21.96
29 37.73
31 1.14
39 12.69
41 68.67
42 23.45
43 99.99
44 2.3
45 2.39
53 3.29
54 4.13
55 46.38
56 59.71
57 74.28
58 2.55
59 1.35
60 14.07
61 28.79
67 2.49
68 11.27
69 33.94
70 54.4
71 4.37
73 13.15
74 1.17
81 1.18
83 11.01
84 3.88
85 13.42
87 12.03
89 4.41
95 1.57
97 2.66
98 61.53
99 3.7
101 3.08
111 1.03
113 50.83
114 3.03
115 1.02
116 1.55
130 6.41
131 78.65
132 4.5
143 1.45

$$$$

     RDKit          2D

 14 13  0  0  0  0  0  0  0  0999 V2000
    3.5724    6.5625    0.0000 C   0  0  0  0  0  0  0  0  0  0  0  0
  -10.7171    7.3125    0.0000 C   0  0  0  0  0  0  0  0  0  0  0  0
   -9.4180    5.0625    0.0000 C   0  0  0  0  0  0  0  0  0  0  0  0
    2.2733    7.3125    0.0000 C   0  0  0  0  0  0  0  0  0  0  0  0
    0.9743    6.5625    0.0000 C   0  0  0  0  0  0  0  0  0  0  0  0
   -0.3248    7.3125    0.0000 C   0  0  0  0  0  0  0  0  0  0  0  0
   -1.6238    6.5625    0.0000 C   0  0  0  0  0  0  0  0  0  0  0  0
   -2.9228    7.3125    0.0000 C   0  0  0  0  0  0  0  0  0  0  0  0
   -8.1190    7.3125    0.0000 C   0  0  0  0  0  0  0  0  0  0  0  0
   -6.8200    6.5625    0.0000 C   0  0  0  0  0  0  0  0  0  0  0  0
   -9.4180    6.5625    0.0000 C   0  0  0  0  0  0  0  0  0  0  0  0
   -4.2219    6.5625    0.0000 C   0  0  0  0  0  0  0  0  0  0  0  0
   -4.2219    5.0625    0.0000 O   0  0  0  0  0  0  0  0  0  0  0  0
   -5.5209    7.3125    0.0000 O   0  0  0  0  0  0  0  0  0  0  0  0
  4  1  1  0
  5  4  1  0
  6  5  1  0
  7  6  1  0
  8  7  1  0
 10  9  1  0
 11  2  1  0
 11  3  1  0
 11  9  1  0
 12  8  1  0
 13 12  2  0
 14 10  1  0
 14 12  1  0
M  END
>  <NAME>  (4060) 
ISOAMYL HEPTANOATE

>  <SYNONYMS>  (4060) 
ISOPENTYL HEPTANOATE

>  <SPECTRUM TYPE>  (4060) 
MS1

>  <INSTRUMENT TYPE>  (4060) 
EI-B

>  <INSTRUMENT>  (4060) 
HITACHI M-80B

>  <ION MODE>  (4060) 
P

>  <INCHIKEY>  (4060) 
AFCXVDRTNQNGHS-UHFFFAOYSA-N

>  <FORMULA>  (4060) 
C12H24O2

>  <EXACT MASS>  (4060) 
200.177630008

>  <MW>  (4060) 
200

>  <ID>  (4060) 
JP006424

>  <CONTRIBUTOR>  (4060) 
University of Tokyo Team, {Faculty of Engineering, University of Tokyo

>  <COMMENT>  (4060) 
SMILES=CCCCCCC(=O)OCCC(C)C
InChI=InChI=1S/C12H24O2/c1-4-5-6-7-8-12(13)14-10-9-11(2)3/h11H,4-10H2,1-3H3
computed SMILES=O=C(OCCC(C)C)CCCCCC
accession=JP006424
date=2016.01.19 (Created 2008.10.21, modified 2011.05.06)
author=HISAHIRO HAGIWARA, CHEMICAL RESEARCH INSTITUTE OF NON-AQUEOUSSOLUTIONS TOHOKU UNIV.
license=CC BY-NC-SA
exact mass=200.17763
ionization energy=70 eV
ion type=[M]+*
computed spectral entropy=2.5727561491628976
computed normalized entropy=0.7423405075627797
SPLASH=splash10-00dl-9100000000-fc52dc078389dc842ee9
submitter=submitter = University of Tokyo Team (Faculty of Engineering, University of Tokyo)
MoNA Rating=3.75

>  <NUM PEAKS>  (4060) 
32

>  <MASS SPECTRAL PEAKS>  (4060) 
27 10.74
29 13.06
39 6.8
41 25.62
42 10.14
43 62.75
44 1.7
45 1.44
53 1.41
55 24.76
56 3.93
57 6.02
60 4.84
61 1.23
68 1.07
69 5.36
70 99.99
71 27.24
72 1.17
73 2.91
83 1.26
84 1.66
85 7.53
87 3.06
89 1.13
101 1.08
113 33.05
114 2.12
115 1.37
130 2.49
131 8.33
157 1.29

$$$$

     RDKit          2D

 14 13  0  0  0  0  0  0  0  0999 V2000
    3.8971    6.7500    0.0000 C   0  0  0  0  0  0  0  0  0  0  0  0
  -11.6913    6.7500    0.0000 C   0  0  0  0  0  0  0  0  0  0  0  0
    2.5981    7.5000    0.0000 C   0  0  0  0  0  0  0  0  0  0  0  0
  -10.3923    7.5000    0.0000 C   0  0  0  0  0  0  0  0  0  0  0  0
    1.2990    6.7500    0.0000 C   0  0  0  0  0  0  0  0  0  0  0  0
   -9.0933    6.7500    0.0000 C   0  0  0  0  0  0  0  0  0  0  0  0
    0.0000    7.5000    0.0000 C   0  0  0  0  0  0  0  0  0  0  0  0
   -1.2990    6.7500    0.0000 C   0  0  0  0  0  0  0  0  0  0  0  0
   -7.7942    7.5000    0.0000 C   0  0  0  0  0  0  0  0  0  0  0  0
   -2.5981    7.5000    0.0000 C   0  0  0  0  0  0  0  0  0  0  0  0
   -6.4952    6.7500    0.0000 C   0  0  0  0  0  0  0  0  0  0  0  0
   -3.8971    6.7500    0.0000 C   0  0  0  0  0  0  0  0  0  0  0  0
   -3.8971    5.2500    0.0000 O   0  0  0  0  0  0  0  0  0  0  0  0
   -5.1962    7.5000    0.0000 O   0  0  0  0  0  0  0  0  0  0  0  0
  3  1  1  0
  4  2  1  0
  5  3  1  0
  6  4  1  0
  7  5  1  0
  8  7  1  0
  9  6  1  0
 10  8  1  0
 11  9  1  0
 12 10  1  0
 13 12  2  0
 14 11  1  0
 14 12  1  0
M  END
>  <NAME>  (4061) 
AMYL HEPTANOATE

>  <SYNONYMS>  (4061) 
PENTYL HEPTANOATE

>  <SPECTRUM TYPE>  (4061) 
MS1

>  <INSTRUMENT TYPE>  (4061) 
EI-B

>  <INSTRUMENT>  (4061) 
HITACHI M-80B

>  <ION MODE>  (4061) 
P

>  <INCHIKEY>  (4061) 
PSQMUBJRXIGVIT-UHFFFAOYSA-N

>  <FORMULA>  (4061) 
C12H24O2

>  <EXACT MASS>  (4061) 
200.177630008

>  <MW>  (4061) 
200

>  <ID>  (4061) 
JP006423

>  <CONTRIBUTOR>  (4061) 
University of Tokyo Team, {Faculty of Engineering, University of Tokyo

>  <COMMENT>  (4061) 
SMILES=CCCCCCC(=O)OCCCCC
InChI=InChI=1S/C12H24O2/c1-3-5-7-8-10-12(13)14-11-9-6-4-2/h3-11H2,1-2H3
computed SMILES=O=C(OCCCCC)CCCCCC
accession=JP006423
date=2016.01.19 (Created 2008.10.21, modified 2011.05.06)
author=HISAHIRO HAGIWARA, CHEMICAL RESEARCH INSTITUTE OF NON-AQUEOUSSOLUTIONS TOHOKU UNIV.
license=CC BY-NC-SA
exact mass=200.17763
ionization energy=70 eV
ion type=[M]+*
computed spectral entropy=2.932719935107026
computed normalized entropy=0.795016473589664
SPLASH=splash10-006x-9200000000-c427b25d7c4b53e55413
submitter=submitter = University of Tokyo Team (Faculty of Engineering, University of Tokyo)
MoNA Rating=3.75

>  <NUM PEAKS>  (4061) 
40

>  <MASS SPECTRAL PEAKS>  (4061) 
27 21
29 30.52
31 1.4
39 12.02
41 46.94
42 28.63
43 99.46
44 3.38
45 1.97
53 2.08
54 1.35
55 32.93
56 5.49
57 9.67
59 1.04
60 19.32
61 14.23
67 1.27
68 2.34
69 11.58
70 99.99
71 17.82
73 14.58
74 1.62
83 4.33
84 3.22
85 11.02
86 1.03
87 11.87
89 5.3
95 1.41
101 2.8
102 1.65
113 53.74
114 4
115 2.53
130 8.83
131 66.05
132 4.71
143 1.03

$$$$

     RDKit          2D

 13 12  0  0  0  0  0  0  0  0999 V2000
    3.8971    6.0000    0.0000 C   0  0  0  0  0  0  0  0  0  0  0  0
  -10.3923    6.7500    0.0000 C   0  0  0  0  0  0  0  0  0  0  0  0
    2.5981    6.7500    0.0000 C   0  0  0  0  0  0  0  0  0  0  0  0
   -9.0933    6.0000    0.0000 C   0  0  0  0  0  0  0  0  0  0  0  0
    1.2990    6.0000    0.0000 C   0  0  0  0  0  0  0  0  0  0  0  0
   -7.7942    6.7500    0.0000 C   0  0  0  0  0  0  0  0  0  0  0  0
    0.0000    6.7500    0.0000 C   0  0  0  0  0  0  0  0  0  0  0  0
   -1.2990    6.0000    0.0000 C   0  0  0  0  0  0  0  0  0  0  0  0
   -2.5981    6.7500    0.0000 C   0  0  0  0  0  0  0  0  0  0  0  0
   -6.4952    6.0000    0.0000 C   0  0  0  0  0  0  0  0  0  0  0  0
   -3.8971    6.0000    0.0000 C   0  0  0  0  0  0  0  0  0  0  0  0
   -3.8971    4.5000    0.0000 O   0  0  0  0  0  0  0  0  0  0  0  0
   -5.1962    6.7500    0.0000 O   0  0  0  0  0  0  0  0  0  0  0  0
  3  1  1  0
  4  2  1  0
  5  3  1  0
  6  4  1  0
  7  5  1  0
  8  7  1  0
  9  8  1  0
 10  6  1  0
 11  9  1  0
 12 11  2  0
 13 10  1  0
 13 11  1  0
M  END
>  <NAME>  (4062) 
BUTYL HEPTANOATE

>  <SYNONYMS>  (4062) 


>  <SPECTRUM TYPE>  (4062) 
MS1

>  <INSTRUMENT TYPE>  (4062) 
EI-B

>  <INSTRUMENT>  (4062) 
HITACHI M-80B

>  <ION MODE>  (4062) 
P

>  <INCHIKEY>  (4062) 
YPQSPODHFDGVAC-UHFFFAOYSA-N

>  <FORMULA>  (4062) 
C11H22O2

>  <EXACT MASS>  (4062) 
186.161979944

>  <MW>  (4062) 
186

>  <ID>  (4062) 
JP006422

>  <CONTRIBUTOR>  (4062) 
University of Tokyo Team, {Faculty of Engineering, University of Tokyo

>  <COMMENT>  (4062) 
SMILES=CCCCCCC(=O)OCCCC
InChI=InChI=1S/C11H22O2/c1-3-5-7-8-9-11(12)13-10-6-4-2/h3-10H2,1-2H3
computed SMILES=O=C(OCCCC)CCCCCC
accession=JP006422
date=2016.01.19 (Created 2008.10.21, modified 2011.05.06)
author=HISAHIRO HAGIWARA, CHEMICAL RESEARCH INSTITUTE OF NON-AQUEOUSSOLUTIONS TOHOKU UNIV.
license=CC BY-NC-SA
exact mass=186.16198
ionization energy=70 eV
ion type=[M]+*
computed spectral entropy=2.9600115034747683
computed normalized entropy=0.7970793215551345
SPLASH=splash10-0btc-9200000000-3f2b3965a678a6e80532
submitter=submitter = University of Tokyo Team (Faculty of Engineering, University of Tokyo)
MoNA Rating=3.75

>  <NUM PEAKS>  (4062) 
41

>  <MASS SPECTRAL PEAKS>  (4062) 
26 1.35
27 22.17
29 39.81
30 1.04
31 1.93
39 13.43
41 55.79
42 10.13
43 61.24
44 1.58
45 2.26
53 2.08
54 1.21
55 22.8
56 99.99
57 36.57
58 1.44
59 1.17
60 30.33
61 10.89
68 1.95
69 7.37
70 2.52
71 1.91
73 18.38
74 1.95
83 4.58
84 3.95
85 11.78
86 1.28
87 13.24
89 6.58
95 1.47
101 6.76
113 58.59
114 4.39
116 5.17
129 1.55
130 4.34
131 59.5
132 4.52

$$$$

     RDKit          2D

 12 11  0  0  0  0  0  0  0  0999 V2000
    2.9228    5.4375    0.0000 C   0  0  0  0  0  0  0  0  0  0  0  0
   -8.7685    6.1875    0.0000 C   0  0  0  0  0  0  0  0  0  0  0  0
   -7.4695    3.9375    0.0000 C   0  0  0  0  0  0  0  0  0  0  0  0
    1.6238    6.1875    0.0000 C   0  0  0  0  0  0  0  0  0  0  0  0
    0.3248    5.4375    0.0000 C   0  0  0  0  0  0  0  0  0  0  0  0
   -0.9743    6.1875    0.0000 C   0  0  0  0  0  0  0  0  0  0  0  0
   -2.2733    5.4375    0.0000 C   0  0  0  0  0  0  0  0  0  0  0  0
   -3.5724    6.1875    0.0000 C   0  0  0  0  0  0  0  0  0  0  0  0
   -7.4695    5.4375    0.0000 C   0  0  0  0  0  0  0  0  0  0  0  0
   -4.8714    5.4375    0.0000 C   0  0  0  0  0  0  0  0  0  0  0  0
   -4.8714    3.9375    0.0000 O   0  0  0  0  0  0  0  0  0  0  0  0
   -6.1704    6.1875    0.0000 O   0  0  0  0  0  0  0  0  0  0  0  0
  4  1  1  0
  5  4  1  0
  6  5  1  0
  7  6  1  0
  8  7  1  0
  9  2  1  0
  9  3  1  0
 10  8  1  0
 11 10  2  0
 12  9  1  0
 12 10  1  0
M  END
>  <NAME>  (4063) 
ISOPROPYL HEPTANOATE

>  <SYNONYMS>  (4063) 


>  <SPECTRUM TYPE>  (4063) 
MS1

>  <INSTRUMENT TYPE>  (4063) 
EI-B

>  <INSTRUMENT>  (4063) 
HITACHI M-80B

>  <ION MODE>  (4063) 
P

>  <INCHIKEY>  (4063) 
RMQUEHVMCJEEOS-UHFFFAOYSA-N

>  <FORMULA>  (4063) 
C10H20O2

>  <EXACT MASS>  (4063) 
172.14632988

>  <MW>  (4063) 
172

>  <ID>  (4063) 
JP006421

>  <CONTRIBUTOR>  (4063) 
University of Tokyo Team, {Faculty of Engineering, University of Tokyo

>  <COMMENT>  (4063) 
SMILES=CCCCCCC(=O)OC(C)C
InChI=InChI=1S/C10H20O2/c1-4-5-6-7-8-10(11)12-9(2)3/h9H,4-8H2,1-3H3
computed SMILES=O=C(OC(C)C)CCCCCC
accession=JP006421
date=2016.01.19 (Created 2008.10.21, modified 2011.05.06)
author=HISAHIRO HAGIWARA, CHEMICAL RESEARCH INSTITUTE OF NON-AQUEOUSSOLUTIONS TOHOKU UNIV.
license=CC BY-NC-SA
exact mass=172.14633
ionization energy=70 eV
ion type=[M]+*
computed spectral entropy=2.994300507209227
computed normalized entropy=0.8173195366788881
SPLASH=splash10-01ox-9200000000-461795d816c5a397efbf
submitter=submitter = University of Tokyo Team (Faculty of Engineering, University of Tokyo)
MoNA Rating=3.75

>  <NUM PEAKS>  (4063) 
39

>  <MASS SPECTRAL PEAKS>  (4063) 
15 1.68
26 1.08
27 18.48
29 11.39
39 11.52
41 36.44
42 13.5
43 99.99
44 2.46
45 3.36
53 1.31
55 14.69
56 4.11
57 5.51
59 19.85
60 48.12
61 6.97
68 1.94
69 5.58
70 11.04
71 4.55
73 15.02
74 2.06
83 3.65
84 3.37
85 10.71
87 13.3
89 2.93
95 1.16
101 2.95
102 22.05
103 1.65
111 1.27
113 47.92
114 3.32
130 13.17
131 28.14
132 1.8
157 1.36

$$$$

     RDKit          2D

 12 11  0  0  0  0  0  0  0  0999 V2000
    3.2476    5.6250    0.0000 C   0  0  0  0  0  0  0  0  0  0  0  0
   -9.7428    5.6250    0.0000 C   0  0  0  0  0  0  0  0  0  0  0  0
    1.9486    6.3750    0.0000 C   0  0  0  0  0  0  0  0  0  0  0  0
   -8.4437    6.3750    0.0000 C   0  0  0  0  0  0  0  0  0  0  0  0
    0.6495    5.6250    0.0000 C   0  0  0  0  0  0  0  0  0  0  0  0
   -0.6495    6.3750    0.0000 C   0  0  0  0  0  0  0  0  0  0  0  0
   -1.9486    5.6250    0.0000 C   0  0  0  0  0  0  0  0  0  0  0  0
   -3.2476    6.3750    0.0000 C   0  0  0  0  0  0  0  0  0  0  0  0
   -7.1447    5.6250    0.0000 C   0  0  0  0  0  0  0  0  0  0  0  0
   -4.5466    5.6250    0.0000 C   0  0  0  0  0  0  0  0  0  0  0  0
   -4.5466    4.1250    0.0000 O   0  0  0  0  0  0  0  0  0  0  0  0
   -5.8457    6.3750    0.0000 O   0  0  0  0  0  0  0  0  0  0  0  0
  3  1  1  0
  4  2  1  0
  5  3  1  0
  6  5  1  0
  7  6  1  0
  8  7  1  0
  9  4  1  0
 10  8  1  0
 11 10  2  0
 12  9  1  0
 12 10  1  0
M  END
>  <NAME>  (4064) 
PROPYL HEPTANOATE

>  <SYNONYMS>  (4064) 


>  <SPECTRUM TYPE>  (4064) 
MS1

>  <INSTRUMENT TYPE>  (4064) 
EI-B

>  <INSTRUMENT>  (4064) 
HITACHI M-80B

>  <ION MODE>  (4064) 
P

>  <INCHIKEY>  (4064) 
UWZVPQKWYFZLLW-UHFFFAOYSA-N

>  <FORMULA>  (4064) 
C10H20O2

>  <EXACT MASS>  (4064) 
172.14632988

>  <MW>  (4064) 
172

>  <ID>  (4064) 
JP006420

>  <CONTRIBUTOR>  (4064) 
University of Tokyo Team, {Faculty of Engineering, University of Tokyo

>  <COMMENT>  (4064) 
SMILES=CCCCCCC(=O)OCCC
InChI=InChI=1S/C10H20O2/c1-3-5-6-7-8-10(11)12-9-4-2/h3-9H2,1-2H3
computed SMILES=O=C(OCCC)CCCCCC
accession=JP006420
date=2016.01.19 (Created 2008.10.21, modified 2011.05.06)
author=HISAHIRO HAGIWARA, CHEMICAL RESEARCH INSTITUTE OF NON-AQUEOUSSOLUTIONS TOHOKU UNIV.
license=CC BY-NC-SA
exact mass=172.14633
ionization energy=70 eV
ion type=[M]+*
computed spectral entropy=3.0486874557246795
computed normalized entropy=0.8056381288080373
SPLASH=splash10-01ox-9200000000-6e833656dc5c37546c1f
submitter=submitter = University of Tokyo Team (Faculty of Engineering, University of Tokyo)
MoNA Rating=3.75

>  <NUM PEAKS>  (4064) 
44

>  <MASS SPECTRAL PEAKS>  (4064) 
15 1.23
26 1.54
27 33.19
29 25.18
31 4.36
39 15.92
41 52.63
42 23.78
43 99.99
44 2.77
45 3.2
53 1.93
54 1.16
55 20.69
56 7.36
57 11.14
59 6.18
60 45.32
61 52.83
62 1.09
67 1.08
68 2.16
69 8.63
70 2.04
71 1.41
73 22.72
74 2.45
75 1.23
83 4.94
84 4.91
85 11.08
87 14.52
89 6.1
95 1.44
101 3.3
102 13.74
103 1.53
113 58.08
114 3.93
115 3.52
129 1.3
130 3.58
131 48.31
132 3.38

$$$$

     RDKit          2D

 15 15  0  0  0  0  0  0  0  0999 V2000
    4.8721    3.8829    0.0000 C   0  0  0  0  0  0  0  0  0  0  0  0
    3.5731    3.1329    0.0000 C   0  0  0  0  0  0  0  0  0  0  0  0
   -8.1183    5.3829    0.0000 C   0  0  0  0  0  0  0  0  0  0  0  0
   -8.1187    3.8821    0.0000 C   0  0  0  0  0  0  0  0  0  0  0  0
   -6.8187    6.1337    0.0000 C   0  0  0  0  0  0  0  0  0  0  0  0
   -2.9221    3.8829    0.0000 C   0  0  0  0  0  0  0  0  0  0  0  0
    2.2740    3.8829    0.0000 C   0  0  0  0  0  0  0  0  0  0  0  0
   -6.8197    3.1321    0.0000 C   0  0  0  0  0  0  0  0  0  0  0  0
   -5.5197    5.3837    0.0000 C   0  0  0  0  0  0  0  0  0  0  0  0
   -4.2212    3.1329    0.0000 C   0  0  0  0  0  0  0  0  0  0  0  0
   -1.6231    3.1329    0.0000 C   0  0  0  0  0  0  0  0  0  0  0  0
   -5.5202    3.8829    0.0000 C   0  0  0  0  0  0  0  0  0  0  0  0
    0.9750    3.1329    0.0000 C   0  0  0  0  0  0  0  0  0  0  0  0
    0.9750    1.6329    0.0000 O   0  0  0  0  0  0  0  0  0  0  0  0
   -0.3240    3.8829    0.0000 O   0  0  0  0  0  0  0  0  0  0  0  0
  2  1  1  0
  4  3  2  0
  5  3  1  0
  7  2  1  0
  8  4  1  0
  9  5  2  0
  6 10  2  0
 11  6  1  0
 12  8  2  0
 12  9  1  0
 12 10  1  0
 13  7  1  0
 14 13  2  0
 15 11  1  0
 15 13  1  0
M  END
>  <NAME>  (4065) 
CINNAMYL BUTYRATE

>  <SYNONYMS>  (4065) 
3-PHENYLALLYL BUTYRATE

>  <SPECTRUM TYPE>  (4065) 
MS1

>  <INSTRUMENT TYPE>  (4065) 
EI-B

>  <INSTRUMENT>  (4065) 
HITACHI M-80B

>  <ION MODE>  (4065) 
P

>  <INCHIKEY>  (4065) 
YZYPQKZWNXANRB-UXBLZVDNSA-N

>  <FORMULA>  (4065) 
C13H16O2

>  <EXACT MASS>  (4065) 
204.115029752

>  <MW>  (4065) 
204

>  <ID>  (4065) 
JP006419

>  <CONTRIBUTOR>  (4065) 
University of Tokyo Team, {Faculty of Engineering, University of Tokyo

>  <COMMENT>  (4065) 
SMILES=CCCC(=O)OCC=Cc(c1)cccc1
InChI=InChI=1S/C13H16O2/c1-2-7-13(14)15-11-6-10-12-8-4-3-5-9-12/h3-6,8-10H,2,7,11H2,1H3/b10-6+
computed SMILES=O=C(OCC=CC=1C=CC=CC1)CCC
accession=JP006419
date=2016.01.19 (Created 2008.10.21, modified 2011.05.06)
author=HISAHIRO HAGIWARA, CHEMICAL RESEARCH INSTITUTE OF NON-AQUEOUSSOLUTIONS TOHOKU UNIV.
license=CC BY-NC-SA
exact mass=204.11503
ionization energy=70 eV
ion type=[M]+*
computed spectral entropy=2.717905894352689
computed normalized entropy=0.7526911328655501
SPLASH=splash10-00xu-9400000000-a47b62607d2f94daf7a3
submitter=submitter = University of Tokyo Team (Faculty of Engineering, University of Tokyo)
MoNA Rating=3.75

>  <NUM PEAKS>  (4065) 
37

>  <MASS SPECTRAL PEAKS>  (4065) 
27 11.51
29 1.86
39 9.82
41 10.59
42 1.83
43 57.75
44 1.7
50 1.42
51 5.39
52 1.24
55 1.65
57 1.21
62 1.03
63 3.03
65 3.15
71 99.99
72 3.28
76 1.12
77 8.78
78 3.44
79 1.87
89 2.39
91 11.44
92 3.55
102 2.38
103 3.65
104 1.59
105 5.29
115 36.67
116 17.77
117 31.81
118 2.57
131 1.06
133 11.5
134 7.54
204 9.93
205 1.14

$$$$

     RDKit          2D

 14 14  0  0  0  0  0  0  0  0999 V2000
   -6.8197    3.1321    0.0000 C   0  0  0  0  0  0  0  0  0  0  0  0
   -0.3245    5.3821    0.0000 C   0  0  0  0  0  0  0  0  0  0  0  0
   -5.5207    3.8821    0.0000 C   0  0  0  0  0  0  0  0  0  0  0  0
    3.5726    1.6321    0.0000 C   0  0  0  0  0  0  0  0  0  0  0  0
    3.5731    3.1329    0.0000 C   0  0  0  0  0  0  0  0  0  0  0  0
    2.2731    0.8813    0.0000 C   0  0  0  0  0  0  0  0  0  0  0  0
   -4.2216    3.1321    0.0000 C   0  0  0  0  0  0  0  0  0  0  0  0
    2.2740    3.8829    0.0000 C   0  0  0  0  0  0  0  0  0  0  0  0
    0.9740    1.6313    0.0000 C   0  0  0  0  0  0  0  0  0  0  0  0
   -0.3245    3.8821    0.0000 C   0  0  0  0  0  0  0  0  0  0  0  0
    0.9745    3.1321    0.0000 C   0  0  0  0  0  0  0  0  0  0  0  0
   -2.9226    3.8821    0.0000 C   0  0  0  0  0  0  0  0  0  0  0  0
   -2.9226    5.3821    0.0000 O   0  0  0  0  0  0  0  0  0  0  0  0
   -1.6236    3.1321    0.0000 O   0  0  0  0  0  0  0  0  0  0  0  0
  3  1  1  0
  5  4  2  0
  6  4  1  0
  7  3  1  0
  8  5  1  0
  9  6  2  0
 10  2  1  0
 11  8  2  0
 11  9  1  0
 11 10  1  0
 12  7  1  0
 13 12  2  0
 14 10  1  0
 14 12  1  0
M  END
>  <NAME>  (4066) 
ALPHA-METHYLBENZYL BUTYRATE

>  <SYNONYMS>  (4066) 
METHYL PHENYL CARBINYL BUTYRATE

>  <SPECTRUM TYPE>  (4066) 
MS1

>  <INSTRUMENT TYPE>  (4066) 
EI-B

>  <INSTRUMENT>  (4066) 
HITACHI M-80B

>  <ION MODE>  (4066) 
P

>  <INCHIKEY>  (4066) 
GGKADXREVJTZMF-UHFFFAOYSA-N

>  <FORMULA>  (4066) 
C12H16O2

>  <EXACT MASS>  (4066) 
192.115029752

>  <MW>  (4066) 
192

>  <ID>  (4066) 
JP006418

>  <CONTRIBUTOR>  (4066) 
University of Tokyo Team, {Faculty of Engineering, University of Tokyo

>  <COMMENT>  (4066) 
SMILES=CCCC(=O)OC(C)c(c1)cccc1
InChI=InChI=1S/C12H16O2/c1-3-7-12(13)14-10(2)11-8-5-4-6-9-11/h4-6,8-10H,3,7H2,1-2H3
computed SMILES=O=C(OC(C=1C=CC=CC1)C)CCC
accession=JP006418
date=2016.01.19 (Created 2008.10.21, modified 2011.05.06)
author=HISAHIRO HAGIWARA, CHEMICAL RESEARCH INSTITUTE OF NON-AQUEOUSSOLUTIONS TOHOKU UNIV.
license=CC BY-NC-SA
exact mass=192.11503
ionization energy=70 eV
ion type=[M]+*
computed spectral entropy=2.7070566442391883
computed normalized entropy=0.7614041149898395
SPLASH=splash10-0kor-6900000000-c5c8fd3d6bf4a7182eb4
submitter=submitter = University of Tokyo Team (Faculty of Engineering, University of Tokyo)
MoNA Rating=3.75

>  <NUM PEAKS>  (4066) 
35

>  <MASS SPECTRAL PEAKS>  (4066) 
15 1.06
27 17.2
28 1.48
29 1.92
39 10.04
41 11.43
42 2.17
43 41.78
44 1.02
50 2.87
51 12.2
52 2.45
53 1.29
55 1.11
63 1.96
65 1.41
71 34.37
72 1.14
76 1.22
77 28.49
78 13.37
79 14.77
89 1.6
91 1.4
102 1.47
103 13.47
104 71.79
105 99.99
106 9.05
107 5.93
121 5.58
122 73.12
123 6.62
192 11.71
193 1.32

$$$$

     RDKit          2D

 14 14  0  0  0  0  0  0  0  0999 V2000
   -7.4692    4.2571    0.0000 C   0  0  0  0  0  0  0  0  0  0  0  0
   -6.1702    3.5071    0.0000 C   0  0  0  0  0  0  0  0  0  0  0  0
    4.2221    2.0071    0.0000 C   0  0  0  0  0  0  0  0  0  0  0  0
    4.2226    3.5079    0.0000 C   0  0  0  0  0  0  0  0  0  0  0  0
    2.9226    1.2563    0.0000 C   0  0  0  0  0  0  0  0  0  0  0  0
   -4.8712    4.2571    0.0000 C   0  0  0  0  0  0  0  0  0  0  0  0
    2.9236    4.2579    0.0000 C   0  0  0  0  0  0  0  0  0  0  0  0
    1.6236    2.0063    0.0000 C   0  0  0  0  0  0  0  0  0  0  0  0
    0.3250    4.2571    0.0000 C   0  0  0  0  0  0  0  0  0  0  0  0
   -0.9740    3.5071    0.0000 C   0  0  0  0  0  0  0  0  0  0  0  0
    1.6240    3.5071    0.0000 C   0  0  0  0  0  0  0  0  0  0  0  0
   -3.5721    3.5071    0.0000 C   0  0  0  0  0  0  0  0  0  0  0  0
   -3.5721    2.0071    0.0000 O   0  0  0  0  0  0  0  0  0  0  0  0
   -2.2731    4.2571    0.0000 O   0  0  0  0  0  0  0  0  0  0  0  0
  2  1  1  0
  4  3  2  0
  5  3  1  0
  6  2  1  0
  7  4  1  0
  8  5  2  0
 10  9  1  0
 11  7  2  0
 11  8  1  0
 11  9  1  0
 12  6  1  0
 13 12  2  0
 14 10  1  0
 14 12  1  0
M  END
>  <NAME>  (4067) 
PHENYLETHYL BUTYRATE

>  <SYNONYMS>  (4067) 


>  <SPECTRUM TYPE>  (4067) 
MS1

>  <INSTRUMENT TYPE>  (4067) 
EI-B

>  <INSTRUMENT>  (4067) 
HITACHI M-80B

>  <ION MODE>  (4067) 
P

>  <INCHIKEY>  (4067) 
WFNDDSQUKATKNX-UHFFFAOYSA-N

>  <FORMULA>  (4067) 
C12H16O2

>  <EXACT MASS>  (4067) 
192.115029752

>  <MW>  (4067) 
192

>  <ID>  (4067) 
JP006417

>  <CONTRIBUTOR>  (4067) 
University of Tokyo Team, {Faculty of Engineering, University of Tokyo

>  <COMMENT>  (4067) 
SMILES=CCCC(=O)OCCc(c1)cccc1
InChI=InChI=1S/C12H16O2/c1-2-6-12(13)14-10-9-11-7-4-3-5-8-11/h3-5,7-8H,2,6,9-10H2,1H3
computed SMILES=O=C(OCCC=1C=CC=CC1)CCC
accession=JP006417
date=2016.01.19 (Created 2008.10.21, modified 2011.05.06)
author=HISAHIRO HAGIWARA, CHEMICAL RESEARCH INSTITUTE OF NON-AQUEOUSSOLUTIONS TOHOKU UNIV.
license=CC BY-NC-SA
exact mass=192.11503
ionization energy=70 eV
ion type=[M]+*
computed spectral entropy=2.0743411913048586
computed normalized entropy=0.7044945424177536
SPLASH=splash10-0udi-8900000000-8538af1bf42be4bf1d8e
submitter=submitter = University of Tokyo Team (Faculty of Engineering, University of Tokyo)
MoNA Rating=3.75

>  <NUM PEAKS>  (4067) 
19

>  <MASS SPECTRAL PEAKS>  (4067) 
27 8.27
29 1.17
39 5.18
41 7.95
42 1.83
43 29.4
51 4.1
63 1.31
65 4.54
71 23.03
77 6.94
78 2.87
79 2.76
91 9.4
92 1.15
103 4.56
104 99.99
105 17.04
106 1.02

$$$$

     RDKit          2D

 13 13  0  0  0  0  0  0  0  0999 V2000
    2.6027    1.5000    0.0000 C   0  0  0  0  0  0  0  0  0  0  0  0
   -7.8088   -1.5472    0.0000 C   0  0  0  0  0  0  0  0  0  0  0  0
    1.3099    0.7393    0.0000 C   0  0  0  0  0  0  0  0  0  0  0  0
    0.0047    1.4786    0.0000 C   0  0  0  0  0  0  0  0  0  0  0  0
   -6.5061    0.6964    0.0000 C   0  0  0  0  0  0  0  0  0  0  0  0
   -5.2361   -1.5536    0.0000 C   0  0  0  0  0  0  0  0  0  0  0  0
   -5.2361    1.4464    0.0000 C   0  0  0  0  0  0  0  0  0  0  0  0
   -3.8861   -0.8036    0.0000 C   0  0  0  0  0  0  0  0  0  0  0  0
   -6.5061   -0.8036    0.0000 C   0  0  0  0  0  0  0  0  0  0  0  0
   -3.8861    0.6964    0.0000 C   0  0  0  0  0  0  0  0  0  0  0  0
   -1.2881    0.7179    0.0000 C   0  0  0  0  0  0  0  0  0  0  0  0
   -1.2757   -0.7821    0.0000 O   0  0  0  0  0  0  0  0  0  0  0  0
   -2.5933    1.4571    0.0000 O   0  0  0  0  0  0  0  0  0  0  0  0
  3  1  1  0
  4  3  1  0
  7  5  2  0
  8  6  1  0
  9  2  1  0
  9  5  1  0
  9  6  2  0
 10  7  1  0
 10  8  2  0
 11  4  1  0
 12 11  2  0
 13 10  1  0
 13 11  1  0
M  END
>  <NAME>  (4068) 
P-CRESYL BUTYRATE

>  <SYNONYMS>  (4068) 
4-METHYLPHENYL BUTYRATE

>  <SPECTRUM TYPE>  (4068) 
MS1

>  <INSTRUMENT TYPE>  (4068) 
EI-B

>  <INSTRUMENT>  (4068) 
HITACHI M-80B

>  <ION MODE>  (4068) 
P

>  <INCHIKEY>  (4068) 
RRXBRABFDRJAPX-UHFFFAOYSA-N

>  <FORMULA>  (4068) 
C11H14O2

>  <EXACT MASS>  (4068) 
178.099379688

>  <MW>  (4068) 
178

>  <ID>  (4068) 
JP006416

>  <CONTRIBUTOR>  (4068) 
University of Tokyo Team, {Faculty of Engineering, University of Tokyo

>  <COMMENT>  (4068) 
SMILES=CCCC(=O)Oc(c1)ccc(C)c1
InChI=InChI=1S/C11H14O2/c1-3-4-11(12)13-10-7-5-9(2)6-8-10/h5-8H,3-4H2,1-2H3
computed SMILES=O=C(OC1=CC=C(C=C1)C)CCC
accession=JP006416
date=2016.01.19 (Created 2008.10.21, modified 2011.05.06)
author=HISAHIRO HAGIWARA, CHEMICAL RESEARCH INSTITUTE OF NON-AQUEOUSSOLUTIONS TOHOKU UNIV.
license=CC BY-NC-SA
exact mass=178.09938
ionization energy=70 eV
ion type=[M]+*
computed spectral entropy=2.2896542685583463
computed normalized entropy=0.7204579880598392
SPLASH=splash10-0a4i-7900000000-bc4ffb81261319d176ea
submitter=submitter = University of Tokyo Team (Faculty of Engineering, University of Tokyo)
MoNA Rating=3.75

>  <NUM PEAKS>  (4068) 
24

>  <MASS SPECTRAL PEAKS>  (4068) 
27 10.69
29 1.24
39 6.69
41 8.33
42 1.53
43 30.44
50 1.47
51 4.23
52 2.34
53 2.39
55 1.71
63 1.46
65 2.32
71 11.58
77 10.67
78 3.42
79 4.59
80 1.94
90 1.46
91 3.64
107 18.29
108 99.99
109 8.85
178 7.37

$$$$

     RDKit          2D

 13 13  0  0  0  0  0  0  0  0999 V2000
   -6.8197    3.1321    0.0000 C   0  0  0  0  0  0  0  0  0  0  0  0
   -5.5207    3.8821    0.0000 C   0  0  0  0  0  0  0  0  0  0  0  0
    3.5726    1.6321    0.0000 C   0  0  0  0  0  0  0  0  0  0  0  0
    3.5731    3.1329    0.0000 C   0  0  0  0  0  0  0  0  0  0  0  0
    2.2731    0.8813    0.0000 C   0  0  0  0  0  0  0  0  0  0  0  0
   -4.2216    3.1321    0.0000 C   0  0  0  0  0  0  0  0  0  0  0  0
    2.2740    3.8829    0.0000 C   0  0  0  0  0  0  0  0  0  0  0  0
    0.9740    1.6313    0.0000 C   0  0  0  0  0  0  0  0  0  0  0  0
   -0.3245    3.8821    0.0000 C   0  0  0  0  0  0  0  0  0  0  0  0
    0.9745    3.1321    0.0000 C   0  0  0  0  0  0  0  0  0  0  0  0
   -2.9226    3.8821    0.0000 C   0  0  0  0  0  0  0  0  0  0  0  0
   -2.9226    5.3821    0.0000 O   0  0  0  0  0  0  0  0  0  0  0  0
   -1.6236    3.1321    0.0000 O   0  0  0  0  0  0  0  0  0  0  0  0
  2  1  1  0
  4  3  2  0
  5  3  1  0
  6  2  1  0
  7  4  1  0
  8  5  2  0
 10  7  2  0
 10  8  1  0
 10  9  1  0
 11  6  1  0
 12 11  2  0
 13  9  1  0
 13 11  1  0
M  END
>  <NAME>  (4069) 
BENZYL BUTYRATE

>  <SYNONYMS>  (4069) 


>  <SPECTRUM TYPE>  (4069) 
MS1

>  <INSTRUMENT TYPE>  (4069) 
EI-B

>  <INSTRUMENT>  (4069) 
HITACHI M-80B

>  <ION MODE>  (4069) 
P

>  <INCHIKEY>  (4069) 
VONGZNXBKCOUHB-UHFFFAOYSA-N

>  <FORMULA>  (4069) 
C11H14O2

>  <EXACT MASS>  (4069) 
178.099379688

>  <MW>  (4069) 
178

>  <ID>  (4069) 
JP006415

>  <CONTRIBUTOR>  (4069) 
University of Tokyo Team, {Faculty of Engineering, University of Tokyo

>  <COMMENT>  (4069) 
SMILES=CCCC(=O)OCc(c1)cccc1
InChI=InChI=1S/C11H14O2/c1-2-6-11(12)13-9-10-7-4-3-5-8-10/h3-5,7-8H,2,6,9H2,1H3
computed SMILES=O=C(OCC=1C=CC=CC1)CCC
accession=JP006415
date=2016.01.19 (Created 2008.10.21, modified 2011.05.06)
author=HISAHIRO HAGIWARA, CHEMICAL RESEARCH INSTITUTE OF NON-AQUEOUSSOLUTIONS TOHOKU UNIV.
license=CC BY-NC-SA
exact mass=178.09938
ionization energy=70 eV
ion type=[M]+*
computed spectral entropy=2.6633868725744256
computed normalized entropy=0.7684910066063779
SPLASH=splash10-0006-9300000000-360016726e255d4d2859
submitter=submitter = University of Tokyo Team (Faculty of Engineering, University of Tokyo)
MoNA Rating=3.75

>  <NUM PEAKS>  (4069) 
32

>  <MASS SPECTRAL PEAKS>  (4069) 
27 12.28
28 1.35
29 2.18
38 1.08
39 12.64
40 1.2
41 13.06
42 2.2
43 32.23
44 1.01
50 2.27
51 8.8
52 2.02
55 1.33
63 3.6
64 1.29
65 15.03
71 26.67
72 1.03
77 11.09
78 2.53
79 10.63
89 6.32
90 18.23
91 99.99
92 8.61
105 2.68
107 7.81
108 79.4
109 6.07
178 21.02
179 2.26

$$$$

     RDKit          2D

 12 12  0  0  0  0  0  0  0  0999 V2000
   -1.8335    0.5083    0.0000 C   0  0  0  0  0  0  0  0  0  0  0  0
   -0.5353   -0.2431    0.0000 C   0  0  0  0  0  0  0  0  0  0  0  0
    7.5924    2.2989    0.0000 C   0  0  0  0  0  0  0  0  0  0  0  0
    0.7645    0.5056    0.0000 C   0  0  0  0  0  0  0  0  0  0  0  0
    6.1252    1.9870    0.0000 C   0  0  0  0  0  0  0  0  0  0  0  0
    8.3376    1.0055    0.0000 C   0  0  0  0  0  0  0  0  0  0  0  0
    4.6609   -0.2484    0.0000 C   0  0  0  0  0  0  0  0  0  0  0  0
    5.9607    0.5003    0.0000 C   0  0  0  0  0  0  0  0  0  0  0  0
    2.0628   -0.2457    0.0000 C   0  0  0  0  0  0  0  0  0  0  0  0
    2.0613   -1.7457    0.0000 O   0  0  0  0  0  0  0  0  0  0  0  0
    7.3370   -0.1068    0.0000 O   0  0  0  0  0  0  0  0  0  0  0  0
    3.3626    0.5030    0.0000 O   0  0  0  0  0  0  0  0  0  0  0  0
  2  1  1  0
  4  2  1  0
  5  3  1  0
  6  3  2  0
  8  5  2  0
  8  7  1  0
  9  4  1  0
 10  9  2  0
 11  6  1  0
 11  8  1  0
 12  7  1  0
 12  9  1  0
M  END
>  <NAME>  (4070) 
FURFURYL BUTYRATE

>  <SYNONYMS>  (4070) 


>  <SPECTRUM TYPE>  (4070) 
MS1

>  <INSTRUMENT TYPE>  (4070) 
EI-B

>  <INSTRUMENT>  (4070) 
HITACHI M-80B

>  <ION MODE>  (4070) 
P

>  <INCHIKEY>  (4070) 
IXISGRHWGVGCAK-UHFFFAOYSA-N

>  <FORMULA>  (4070) 
C9H12O3

>  <EXACT MASS>  (4070) 
168.07864424399997

>  <MW>  (4070) 
168

>  <ID>  (4070) 
JP006414

>  <CONTRIBUTOR>  (4070) 
University of Tokyo Team, {Faculty of Engineering, University of Tokyo

>  <COMMENT>  (4070) 
SMILES=CCCC(=O)OCc(c1)occ1
InChI=InChI=1S/C9H12O3/c1-2-4-9(10)12-7-8-5-3-6-11-8/h3,5-6H,2,4,7H2,1H3
computed SMILES=O=C(OCC=1OC=CC1)CCC
accession=JP006414
date=2016.01.19 (Created 2008.10.21, modified 2011.05.06)
author=HISAHIRO HAGIWARA, CHEMICAL RESEARCH INSTITUTE OF NON-AQUEOUSSOLUTIONS TOHOKU UNIV.
license=CC BY-NC-SA
exact mass=168.07864
ionization energy=70 eV
ion type=[M]+*
computed spectral entropy=2.570520758750427
computed normalized entropy=0.7714174657951206
SPLASH=splash10-001i-9000000000-e758b6f3ce7b2e04e1b4
submitter=submitter = University of Tokyo Team (Faculty of Engineering, University of Tokyo)
MoNA Rating=3.75

>  <NUM PEAKS>  (4070) 
28

>  <MASS SPECTRAL PEAKS>  (4070) 
15 1.12
26 2.01
27 23.02
28 2.48
29 4.48
38 2.08
39 12.27
40 1.21
41 12.18
42 4.84
43 24.76
50 2.08
51 5.25
52 19.81
53 21.14
55 1.31
69 1.59
70 1.51
71 13.65
80 11.02
81 99.99
82 5.25
95 1.77
97 4.7
98 25.31
99 1.26
168 12.5
169 1

$$$$

     RDKit          2D

 12 12  0  0  0  0  0  0  0  0999 V2000
    7.4251    1.2910    0.0000 C   0  0  0  0  0  0  0  0  0  0  0  0
    6.1262    0.5408    0.0000 C   0  0  0  0  0  0  0  0  0  0  0  0
   -1.6700   -0.9600    0.0000 C   0  0  0  0  0  0  0  0  0  0  0  0
   -1.6700    0.5400    0.0000 C   0  0  0  0  0  0  0  0  0  0  0  0
   -0.3700   -1.7100    0.0000 C   0  0  0  0  0  0  0  0  0  0  0  0
    4.8270    1.2906    0.0000 C   0  0  0  0  0  0  0  0  0  0  0  0
   -0.3700    1.2900    0.0000 C   0  0  0  0  0  0  0  0  0  0  0  0
    0.9300   -0.9600    0.0000 C   0  0  0  0  0  0  0  0  0  0  0  0
    0.9300    0.5400    0.0000 C   0  0  0  0  0  0  0  0  0  0  0  0
    3.5281    0.5404    0.0000 C   0  0  0  0  0  0  0  0  0  0  0  0
    3.5283   -0.9596    0.0000 O   0  0  0  0  0  0  0  0  0  0  0  0
    2.2289    1.2902    0.0000 O   0  0  0  0  0  0  0  0  0  0  0  0
  2  1  1  0
  4  3  1  0
  5  3  1  0
  6  2  1  0
  7  4  1  0
  8  5  1  0
  9  7  1  0
  9  8  1  0
 10  6  1  0
 11 10  2  0
 12  9  1  0
 12 10  1  0
M  END
>  <NAME>  (4071) 
CYCLOHEXYL BUTYRATE

>  <SYNONYMS>  (4071) 


>  <SPECTRUM TYPE>  (4071) 
MS1

>  <INSTRUMENT TYPE>  (4071) 
EI-B

>  <INSTRUMENT>  (4071) 
HITACHI M-80B

>  <ION MODE>  (4071) 
P

>  <INCHIKEY>  (4071) 
VZHUBBUZNIULNM-UHFFFAOYSA-N

>  <FORMULA>  (4071) 
C10H18O2

>  <EXACT MASS>  (4071) 
170.130679816

>  <MW>  (4071) 
170

>  <ID>  (4071) 
JP006413

>  <CONTRIBUTOR>  (4071) 
University of Tokyo Team, {Faculty of Engineering, University of Tokyo

>  <COMMENT>  (4071) 
SMILES=CCCC(=O)OC(C1)CCCC1
InChI=InChI=1S/C10H18O2/c1-2-6-10(11)12-9-7-4-3-5-8-9/h9H,2-8H2,1H3
computed SMILES=O=C(OC1CCCCC1)CCC
accession=JP006413
date=2016.01.19 (Created 2008.10.21, modified 2011.05.06)
author=HISAHIRO HAGIWARA, CHEMICAL RESEARCH INSTITUTE OF NON-AQUEOUSSOLUTIONS TOHOKU UNIV.
license=CC BY-NC-SA
exact mass=170.13068
ionization energy=70 eV
ion type=[M]+*
computed spectral entropy=2.761871666248803
computed normalized entropy=0.7768217396672533
SPLASH=splash10-007x-9000000000-14210e7987483ed12284
submitter=submitter = University of Tokyo Team (Faculty of Engineering, University of Tokyo)
MoNA Rating=3.75

>  <NUM PEAKS>  (4071) 
35

>  <MASS SPECTRAL PEAKS>  (4071) 
15 1.06
18 6.48
26 1.51
27 24.6
29 14.52
39 3.4
41 59.68
42 5.23
43 61.25
44 2.29
45 1.41
51 2.32
53 6.41
54 20.94
55 25.91
56 4.28
57 1.53
60 5.79
65 1.45
66 1.32
67 51.83
68 3.53
71 99.99
72 1.47
73 1.73
77 1.04
81 11.25
82 83.77
83 33.5
86 1.17
88 12.66
89 65.96
90 1.69
99 8.08
127 6.58

$$$$

     RDKit          2D

 16 15  0  0  0  0  0  0  0  0999 V2000
    3.8971    6.7500    0.0000 C   0  0  0  0  0  0  0  0  0  0  0  0
  -11.6913    6.7500    0.0000 C   0  0  0  0  0  0  0  0  0  0  0  0
  -10.3923    9.0000    0.0000 C   0  0  0  0  0  0  0  0  0  0  0  0
   -5.1962    9.0000    0.0000 C   0  0  0  0  0  0  0  0  0  0  0  0
    2.5981    7.5000    0.0000 C   0  0  0  0  0  0  0  0  0  0  0  0
   -7.7942    7.5000    0.0000 C   0  0  0  0  0  0  0  0  0  0  0  0
    1.2990    6.7500    0.0000 C   0  0  0  0  0  0  0  0  0  0  0  0
   -9.0933    6.7500    0.0000 C   0  0  0  0  0  0  0  0  0  0  0  0
   -6.4952    6.7500    0.0000 C   0  0  0  0  0  0  0  0  0  0  0  0
   -3.8971    6.7500    0.0000 C   0  0  0  0  0  0  0  0  0  0  0  0
   -2.5981    7.5000    0.0000 C   0  0  0  0  0  0  0  0  0  0  0  0
  -10.3923    7.5000    0.0000 C   0  0  0  0  0  0  0  0  0  0  0  0
   -5.1962    7.5000    0.0000 C   0  0  0  0  0  0  0  0  0  0  0  0
    0.0000    7.5000    0.0000 C   0  0  0  0  0  0  0  0  0  0  0  0
    0.0000    9.0000    0.0000 O   0  0  0  0  0  0  0  0  0  0  0  0
   -1.2990    6.7500    0.0000 O   0  0  0  0  0  0  0  0  0  0  0  0
  5  1  1  0
  7  5  1  0
  8  6  1  0
  9  6  1  0
 11 10  1  0
 12  2  1  0
 12  3  1  0
 12  8  1  0
 13  4  1  0
 13  9  1  0
 13 10  1  0
 14  7  1  0
 15 14  2  0
 16 11  1  0
 16 14  1  0
M  END
>  <NAME>  (4072) 
TETRAHYDROGERANYL BUTYRATE

>  <SYNONYMS>  (4072) 
3,7-DIMETHYLOCTYL BUTYRATE

>  <SPECTRUM TYPE>  (4072) 
MS1

>  <INSTRUMENT TYPE>  (4072) 
EI-B

>  <INSTRUMENT>  (4072) 
HITACHI M-80B

>  <ION MODE>  (4072) 
P

>  <INCHIKEY>  (4072) 
MHOJKRQFONEPRN-UHFFFAOYSA-N

>  <FORMULA>  (4072) 
C14H28O2

>  <EXACT MASS>  (4072) 
228.208930136

>  <MW>  (4072) 
228

>  <ID>  (4072) 
JP006412

>  <CONTRIBUTOR>  (4072) 
University of Tokyo Team, {Faculty of Engineering, University of Tokyo

>  <COMMENT>  (4072) 
SMILES=CCCC(=O)OCCC(C)CCCC(C)C
InChI=InChI=1S/C14H28O2/c1-5-7-14(15)16-11-10-13(4)9-6-8-12(2)3/h12-13H,5-11H2,1-4H3
computed SMILES=O=C(OCCC(C)CCCC(C)C)CCC
accession=JP006412
date=2016.01.19 (Created 2008.10.21, modified 2011.05.06)
author=HISAHIRO HAGIWARA, CHEMICAL RESEARCH INSTITUTE OF NON-AQUEOUSSOLUTIONS TOHOKU UNIV.
license=CC BY-NC-SA
exact mass=228.20893
ionization energy=70 eV
ion type=[M]+*
computed spectral entropy=3.0677003049020195
computed normalized entropy=0.7802228764596659
SPLASH=splash10-05fu-9000000000-94e47740ff37ebf9c7e7
submitter=submitter = University of Tokyo Team (Faculty of Engineering, University of Tokyo)
MoNA Rating=3.75

>  <NUM PEAKS>  (4072) 
51

>  <MASS SPECTRAL PEAKS>  (4072) 
27 20.37
28 1.86
29 17.97
32 1.11
39 8.36
40 1.81
41 51.27
42 12.45
43 99.99
44 3.58
45 1.49
53 2.94
54 2.58
55 47.87
56 64.48
57 39.73
58 1.76
60 1.67
67 3.5
68 3.95
69 43.71
70 90.12
71 77.49
72 3
73 1.45
81 2.79
82 2.92
83 21.02
84 19.63
85 9.76
86 1.3
88 1.96
89 32.49
90 1.25
95 1.27
96 3
97 11.07
98 2.79
99 1.27
101 1.13
111 11.11
112 7.67
113 1.66
115 4.48
116 1.2
125 3.93
140 17.31
141 1.57
143 2.36
158 1.73
185 2.14

$$$$

     RDKit          2D

 16 16  0  0  0  0  0  0  0  0999 V2000
    7.5051   -1.3310    0.0000 C   0  0  0  0  0  0  0  0  0  0  0  0
   -1.5890   -3.5800    0.0000 C   0  0  0  0  0  0  0  0  0  0  0  0
    1.0090   -3.5800    0.0000 C   0  0  0  0  0  0  0  0  0  0  0  0
   -0.2900    3.1700    0.0000 C   0  0  0  0  0  0  0  0  0  0  0  0
    6.2062   -0.5808    0.0000 C   0  0  0  0  0  0  0  0  0  0  0  0
    4.9070   -1.3306    0.0000 C   0  0  0  0  0  0  0  0  0  0  0  0
   -1.5900    0.9200    0.0000 C   0  0  0  0  0  0  0  0  0  0  0  0
   -1.5900   -0.5800    0.0000 C   0  0  0  0  0  0  0  0  0  0  0  0
    1.0100    0.9200    0.0000 C   0  0  0  0  0  0  0  0  0  0  0  0
   -0.2900   -2.8300    0.0000 C   0  0  0  0  0  0  0  0  0  0  0  0
   -0.2900    1.6700    0.0000 C   0  0  0  0  0  0  0  0  0  0  0  0
   -0.2900   -1.3300    0.0000 C   0  0  0  0  0  0  0  0  0  0  0  0
    1.0100   -0.5800    0.0000 C   0  0  0  0  0  0  0  0  0  0  0  0
    3.6081   -0.5804    0.0000 C   0  0  0  0  0  0  0  0  0  0  0  0
    3.6083    0.9196    0.0000 O   0  0  0  0  0  0  0  0  0  0  0  0
    2.3089   -1.3302    0.0000 O   0  0  0  0  0  0  0  0  0  0  0  0
  5  1  1  0
  6  5  1  0
  8  7  1  0
 10  2  1  0
 10  3  1  0
 11  4  1  0
 11  7  1  0
 11  9  1  0
 12  8  1  0
 12 10  1  0
 13  9  1  0
 13 12  1  0
 14  6  1  0
 15 14  2  0
 16 13  1  0
 16 14  1  0
M  END
>  <NAME>  (4073) 
MENTHYL BUTYRATE

>  <SYNONYMS>  (4073) 


>  <SPECTRUM TYPE>  (4073) 
MS1

>  <INSTRUMENT TYPE>  (4073) 
EI-B

>  <INSTRUMENT>  (4073) 
HITACHI M-80B

>  <ION MODE>  (4073) 
P

>  <INCHIKEY>  (4073) 
PHCRRQSBYWJFBQ-UHFFFAOYSA-N

>  <FORMULA>  (4073) 
C14H26O2

>  <EXACT MASS>  (4073) 
226.193280072

>  <MW>  (4073) 
226

>  <ID>  (4073) 
JP006411

>  <CONTRIBUTOR>  (4073) 
University of Tokyo Team, {Faculty of Engineering, University of Tokyo

>  <COMMENT>  (4073) 
SMILES=CCCC(=O)OC(C1)C(CCC(C)1)C(C)C
InChI=InChI=1S/C14H26O2/c1-5-6-14(15)16-13-9-11(4)7-8-12(13)10(2)3/h10-13H,5-9H2,1-4H3
computed SMILES=O=C(OC1CC(C)CCC1C(C)C)CCC
accession=JP006411
date=2016.01.19 (Created 2008.10.21, modified 2011.05.06)
author=HISAHIRO HAGIWARA, CHEMICAL RESEARCH INSTITUTE OF NON-AQUEOUSSOLUTIONS TOHOKU UNIV.
license=CC BY-NC-SA
exact mass=226.19328
ionization energy=70 eV
ion type=[M]+*
computed spectral entropy=3.0826312615998344
computed normalized entropy=0.8051501674788973
SPLASH=splash10-007y-9100000000-a0c4a9b5568cfb0bfb88
submitter=submitter = University of Tokyo Team (Faculty of Engineering, University of Tokyo)
MoNA Rating=3.75

>  <NUM PEAKS>  (4073) 
46

>  <MASS SPECTRAL PEAKS>  (4073) 
27 18.77
29 11.13
39 10.82
40 1.44
41 46.38
42 6.49
43 84.75
44 2.84
53 5.68
54 4.81
55 32.52
56 4.31
57 11.54
60 1.07
67 14.05
68 7.13
69 17.81
70 3.99
71 99.99
72 3.69
77 1.85
79 3.26
80 4.81
81 49.3
82 22.9
83 25.55
84 2.23
85 1.33
89 2.9
91 1.22
93 1.16
94 11.08
95 84.34
96 22.67
97 5.47
109 7.46
110 4.59
111 1.4
113 1.68
123 30.16
124 2.87
128 1.08
137 2.5
138 67.59
139 11.96
141 1.55

$$$$

     RDKit          2D

 16 15  0  0  0  0  0  0  0  0999 V2000
    3.8971    6.7500    0.0000 C   0  0  0  0  0  0  0  0  0  0  0  0
  -11.6913    6.7500    0.0000 C   0  0  0  0  0  0  0  0  0  0  0  0
  -10.3923    9.0000    0.0000 C   0  0  0  0  0  0  0  0  0  0  0  0
   -5.1962    9.0000    0.0000 C   0  0  0  0  0  0  0  0  0  0  0  0
    2.5981    7.5000    0.0000 C   0  0  0  0  0  0  0  0  0  0  0  0
   -7.7942    7.5000    0.0000 C   0  0  0  0  0  0  0  0  0  0  0  0
    1.2990    6.7500    0.0000 C   0  0  0  0  0  0  0  0  0  0  0  0
   -9.0933    6.7500    0.0000 C   0  0  0  0  0  0  0  0  0  0  0  0
   -6.4952    6.7500    0.0000 C   0  0  0  0  0  0  0  0  0  0  0  0
   -3.8971    6.7500    0.0000 C   0  0  0  0  0  0  0  0  0  0  0  0
   -2.5981    7.5000    0.0000 C   0  0  0  0  0  0  0  0  0  0  0  0
  -10.3923    7.5000    0.0000 C   0  0  0  0  0  0  0  0  0  0  0  0
   -5.1962    7.5000    0.0000 C   0  0  0  0  0  0  0  0  0  0  0  0
    0.0000    7.5000    0.0000 C   0  0  0  0  0  0  0  0  0  0  0  0
    0.0000    9.0000    0.0000 O   0  0  0  0  0  0  0  0  0  0  0  0
   -1.2990    6.7500    0.0000 O   0  0  0  0  0  0  0  0  0  0  0  0
  5  1  1  0
  7  5  1  0
  8  6  1  0
  9  6  1  0
 11 10  1  0
 12  2  1  0
 12  3  1  0
 12  8  2  0
 13  4  1  0
 13  9  1  0
 13 10  1  0
 14  7  1  0
 15 14  2  0
 16 11  1  0
 16 14  1  0
M  END
>  <NAME>  (4074) 
CITRONELLYL BUTYRATE

>  <SYNONYMS>  (4074) 


>  <SPECTRUM TYPE>  (4074) 
MS1

>  <INSTRUMENT TYPE>  (4074) 
EI-B

>  <INSTRUMENT>  (4074) 
HITACHI M-80B

>  <ION MODE>  (4074) 
P

>  <INCHIKEY>  (4074) 
XQPZQXTWYZAXAK-UHFFFAOYSA-N

>  <FORMULA>  (4074) 
C14H26O2

>  <EXACT MASS>  (4074) 
226.193280072

>  <MW>  (4074) 
226

>  <ID>  (4074) 
JP006410

>  <CONTRIBUTOR>  (4074) 
University of Tokyo Team, {Faculty of Engineering, University of Tokyo

>  <COMMENT>  (4074) 
SMILES=CCCC(=O)OCCC(C)CCC=C(C)C
InChI=InChI=1S/C14H26O2/c1-5-7-14(15)16-11-10-13(4)9-6-8-12(2)3/h8,13H,5-7,9-11H2,1-4H3
computed SMILES=O=C(OCCC(C)CCC=C(C)C)CCC
accession=JP006410
date=2016.01.19 (Created 2008.10.21, modified 2011.05.06)
author=HISAHIRO HAGIWARA, CHEMICAL RESEARCH INSTITUTE OF NON-AQUEOUSSOLUTIONS TOHOKU UNIV.
license=CC BY-NC-SA
exact mass=226.19328
ionization energy=70 eV
ion type=[M]+*
computed spectral entropy=3.181353035196262
computed normalized entropy=0.8051523170376412
SPLASH=splash10-00rx-9100000000-adf929332f117b653cc7
submitter=submitter = University of Tokyo Team (Faculty of Engineering, University of Tokyo)
MoNA Rating=3.75

>  <NUM PEAKS>  (4074) 
52

>  <MASS SPECTRAL PEAKS>  (4074) 
15 1.15
27 22.35
28 2.39
29 16.14
31 1.46
39 17.64
40 2.63
41 99.99
42 11.72
43 67.68
44 2.23
45 2.05
51 1.68
53 9.48
54 3.7
55 44.79
56 10.41
57 10.37
60 2.24
65 1.48
66 1.57
67 45.5
68 32.95
69 84.95
70 8.98
71 53.09
72 1.98
73 1.33
77 1.56
79 2.87
80 5.68
81 84.05
82 65.52
83 15.86
84 1.33
85 1.06
89 5.44
91 1.73
93 4.11
95 73.84
96 18.08
97 2.34
99 1.18
109 29.51
110 6.62
111 1.79
121 1.25
123 64.7
124 5.89
137 2.77
138 34.37
139 3.03

$$$$

     RDKit          2D

 16 16  0  0  1  0  0  0  0  0999 V2000
    9.0942    0.7512    0.0000 C   0  0  0  0  0  0  0  0  0  0  0  0
   -2.5989   -1.5002    0.0000 C   0  0  0  0  0  0  0  0  0  0  0  0
    3.5629    2.6494    0.0000 C   0  0  0  0  0  0  0  0  0  0  0  0
    1.6346    2.6491    0.0000 C   0  0  0  0  0  0  0  0  0  0  0  0
    7.7951    1.5010    0.0000 C   0  0  0  0  0  0  0  0  0  0  0  0
    6.4962    0.7508    0.0000 C   0  0  0  0  0  0  0  0  0  0  0  0
   -1.3000    0.7500    0.0000 C   0  0  0  0  0  0  0  0  0  0  0  0
    0.0000   -1.5000    0.0000 C   0  0  0  0  0  0  0  0  0  0  0  0
    0.0000    1.5000    0.0000 C   0  0  0  0  0  0  0  0  0  0  0  0
    1.3000   -0.7500    0.0000 C   0  0  0  0  0  0  0  0  0  0  0  0
   -1.3000   -0.7500    0.0000 C   0  0  0  0  0  0  0  0  0  0  0  0
    1.3000    0.7500    0.0000 C   0  0  0  0  0  0  0  0  0  0  0  0
    5.1970    1.5006    0.0000 C   0  0  0  0  0  0  0  0  0  0  0  0
    2.5989    1.5002    0.0000 C   0  0  0  0  0  0  0  0  0  0  0  0
    5.1968    3.0006    0.0000 O   0  0  0  0  0  0  0  0  0  0  0  0
    3.8981    0.7504    0.0000 O   0  0  0  0  0  0  0  0  0  0  0  0
  5  1  1  0
  6  5  1  0
  9  7  1  0
 10  8  1  0
 11  2  1  0
 11  7  2  0
 11  8  1  0
 12  9  1  0
 12 10  1  0
 13  6  1  0
 14  3  1  0
 14  4  1  0
 12 14  1  6
 15 13  2  0
 16 13  1  0
 16 14  1  0
M  END
>  <NAME>  (4075) 
TERPINYL BUTYRATE

>  <SYNONYMS>  (4075) 


>  <SPECTRUM TYPE>  (4075) 
MS1

>  <INSTRUMENT TYPE>  (4075) 
EI-B

>  <INSTRUMENT>  (4075) 
HITACHI M-80B

>  <ION MODE>  (4075) 
P

>  <INCHIKEY>  (4075) 
LWKWNIYBQLKBMQ-LBPRGKRZSA-N

>  <FORMULA>  (4075) 
C14H24O2

>  <EXACT MASS>  (4075) 
224.177630008

>  <MW>  (4075) 
224

>  <ID>  (4075) 
JP006409

>  <CONTRIBUTOR>  (4075) 
University of Tokyo Team, {Faculty of Engineering, University of Tokyo

>  <COMMENT>  (4075) 
SMILES=CCCC(=O)OC(C)(C)C([H])(C1)CC=C(C)C1
InChI=InChI=1S/C14H24O2/c1-5-6-13(15)16-14(3,4)12-9-7-11(2)8-10-12/h7,12H,5-6,8-10H2,1-4H3/t12-/m0/s1
computed SMILES=O=C(OC(C)(C)C1CC=C(C)CC1)CCC
accession=JP006409
date=2016.01.19 (Created 2008.10.21, modified 2011.05.06)
author=HISAHIRO HAGIWARA, CHEMICAL RESEARCH INSTITUTE OF NON-AQUEOUSSOLUTIONS TOHOKU UNIV.
license=CC BY-NC-SA
exact mass=224.17763
ionization energy=70 eV
ion type=[M]+*
computed spectral entropy=3.065118509876574
computed normalized entropy=0.7835123938748709
SPLASH=splash10-0076-9500000000-a12ab74e1c6ec7dd4e83
submitter=submitter = University of Tokyo Team (Faculty of Engineering, University of Tokyo)
MoNA Rating=3.75

>  <NUM PEAKS>  (4075) 
50

>  <MASS SPECTRAL PEAKS>  (4075) 
27 12.12
29 6.43
31 1.69
39 8.23
40 2.07
41 34.02
42 3.75
43 54.1
44 1.92
45 1.2
51 1.8
52 1.12
53 7.39
54 1.15
55 7.63
59 4.38
60 2
65 2.85
66 1.32
67 13.36
68 8.41
69 9.99
71 59.52
72 2.58
73 1.07
77 7.71
78 2.08
79 13.29
80 6.42
81 27.28
82 2.27
91 7.27
92 17.09
93 67.07
95 9.79
105 3.48
106 1.01
107 10.01
108 5.87
109 1.19
119 1.1
121 99.99
122 8.73
123 2.17
129 1.36
136 75.44
137 21.45
138 1.73
139 1.5
209 1.84

$$$$

     RDKit          2D

 16 16  0  0  1  0  0  0  0  0999 V2000
    7.5043   -0.5800    0.0000 C   0  0  0  0  0  0  0  0  0  0  0  0
   -2.8886    0.9202    0.0000 C   0  0  0  0  0  0  0  0  0  0  0  0
   -4.1876   -1.3298    0.0000 C   0  0  0  0  0  0  0  0  0  0  0  0
    2.3076   -3.5798    0.0000 C   0  0  0  0  0  0  0  0  0  0  0  0
    6.2052   -1.3298    0.0000 C   0  0  0  0  0  0  0  0  0  0  0  0
    4.9063   -0.5796    0.0000 C   0  0  0  0  0  0  0  0  0  0  0  0
   -0.2910   -3.5806    0.0000 C   0  0  0  0  0  0  0  0  0  0  0  0
   -1.5900   -2.8306    0.0000 C   0  0  0  0  0  0  0  0  0  0  0  0
   -0.2900   -0.5790    0.0000 C   0  0  0  0  0  0  0  0  0  0  0  0
   -2.8886   -0.5798    0.0000 C   0  0  0  0  0  0  0  0  0  0  0  0
    1.0086   -2.8298    0.0000 C   0  0  0  0  0  0  0  0  0  0  0  0
   -1.5895   -1.3298    0.0000 C   0  0  0  0  0  0  0  0  0  0  0  0
    1.0090   -1.3290    0.0000 C   0  0  0  0  0  0  0  0  0  0  0  0
    3.6071   -1.3294    0.0000 C   0  0  0  0  0  0  0  0  0  0  0  0
    3.6069   -2.8294    0.0000 O   0  0  0  0  0  0  0  0  0  0  0  0
    2.3082   -0.5792    0.0000 O   0  0  0  0  0  0  0  0  0  0  0  0
  5  1  1  0
  6  5  1  0
  8  7  1  0
 10  2  2  0
 10  3  1  0
 11  4  1  0
 11  7  2  0
 12  8  1  0
 12  9  1  0
 12 10  1  1
 13  9  1  0
 13 11  1  0
 14  6  1  0
 15 14  2  0
 13 16  1  6
 16 14  1  0
M  END
>  <NAME>  (4076) 
TRANS-L-CARVYL BUTYRATE

>  <SYNONYMS>  (4076) 


>  <SPECTRUM TYPE>  (4076) 
MS1

>  <INSTRUMENT TYPE>  (4076) 
EI-B

>  <INSTRUMENT>  (4076) 
HITACHI M-80B

>  <ION MODE>  (4076) 
P

>  <INCHIKEY>  (4076) 
NFYWZJFDZXGDJZ-OLZOCXBDSA-N

>  <FORMULA>  (4076) 
C14H22O2

>  <EXACT MASS>  (4076) 
222.161979944

>  <MW>  (4076) 
222

>  <ID>  (4076) 
JP006408

>  <CONTRIBUTOR>  (4076) 
University of Tokyo Team, {Faculty of Engineering, University of Tokyo

>  <COMMENT>  (4076) 
SMILES=CCCC(=O)OC(C1)C(C)=CCC(C(C)=C)1
InChI=InChI=1S/C14H22O2/c1-5-6-14(15)16-13-9-12(10(2)3)8-7-11(13)4/h7,12-13H,2,5-6,8-9H2,1,3-4H3/t12-,13+/m1/s1
computed SMILES=O=C(OC1C(=CCC(C(=C)C)C1)C)CCC
accession=JP006408
date=2016.01.19 (Created 2008.10.21, modified 2011.05.06)
author=HISAHIRO HAGIWARA, CHEMICAL RESEARCH INSTITUTE OF NON-AQUEOUSSOLUTIONS TOHOKU UNIV.
license=CC BY-NC-SA
exact mass=222.16198
ionization energy=70 eV
ion type=[M]+*
computed spectral entropy=3.439482597805987
computed normalized entropy=0.8180104728569156
SPLASH=splash10-0006-9600000000-453ce46380b28b2a3038
submitter=submitter = University of Tokyo Team (Faculty of Engineering, University of Tokyo)
MoNA Rating=3.75

>  <NUM PEAKS>  (4076) 
67

>  <MASS SPECTRAL PEAKS>  (4076) 
27 19.08
28 1.05
29 10.03
39 18.63
40 2.96
41 41.07
42 4.07
43 79.46
44 2.44
45 1.06
51 3.31
52 1.77
53 12.81
54 2.52
55 18.13
56 1.41
63 1.07
65 6.57
66 2.41
67 8.27
68 3.72
69 3.47
71 99.99
72 4.15
77 19.84
78 6.5
79 19.41
80 7.5
81 6.88
82 3.53
83 3.06
84 10.21
89 1.31
91 34.39
92 27.23
93 36.22
94 5.67
95 3.15
96 5.3
97 2.26
103 2.07
104 1.33
105 24.57
106 12.07
107 19.39
108 11.7
109 70.57
110 6.52
115 1.69
117 3.22
119 77.71
120 8.49
121 1.24
123 2.59
124 1.88
133 3.46
134 31.28
135 8.99
137 4.23
151 1.15
152 82.22
153 10.86
154 1.57
178 1.64
179 10.96
180 1.1
222 2.36

$$$$

     RDKit          2D

 16 15  0  0  0  0  0  0  0  0999 V2000
    3.2476    5.6250    0.0000 C   0  0  0  0  0  0  0  0  0  0  0  0
   -3.6987    8.9336    0.0000 C   0  0  0  0  0  0  0  0  0  0  0  0
   -9.7428    5.6250    0.0000 C   0  0  0  0  0  0  0  0  0  0  0  0
   -8.4437    7.8750    0.0000 C   0  0  0  0  0  0  0  0  0  0  0  0
   -2.2834    7.5241    0.0000 C   0  0  0  0  0  0  0  0  0  0  0  0
    1.9486    6.3750    0.0000 C   0  0  0  0  0  0  0  0  0  0  0  0
   -4.2118    7.5241    0.0000 C   0  0  0  0  0  0  0  0  0  0  0  0
   -5.8457    6.3750    0.0000 C   0  0  0  0  0  0  0  0  0  0  0  0
    0.6495    5.6250    0.0000 C   0  0  0  0  0  0  0  0  0  0  0  0
   -7.1447    5.6250    0.0000 C   0  0  0  0  0  0  0  0  0  0  0  0
   -4.5466    5.6250    0.0000 C   0  0  0  0  0  0  0  0  0  0  0  0
   -8.4437    6.3750    0.0000 C   0  0  0  0  0  0  0  0  0  0  0  0
   -0.6495    6.3750    0.0000 C   0  0  0  0  0  0  0  0  0  0  0  0
   -3.2476    6.3750    0.0000 C   0  0  0  0  0  0  0  0  0  0  0  0
   -0.6495    7.8750    0.0000 O   0  0  0  0  0  0  0  0  0  0  0  0
   -1.9486    5.6250    0.0000 O   0  0  0  0  0  0  0  0  0  0  0  0
  6  1  1  0
  7  2  2  0
  9  6  1  0
 10  8  1  0
 11  8  1  0
 12  3  1  0
 12  4  1  0
 12 10  2  0
 13  9  1  0
 14  5  1  0
 14  7  1  0
 14 11  1  0
 15 13  2  0
 16 13  1  0
 16 14  1  0
M  END
>  <NAME>  (4077) 
LINALYL BUTYRATE

>  <SYNONYMS>  (4077) 
1,5-DIMETHYL-1-VINYL-4-HEXENYL BUTYRATE

>  <SPECTRUM TYPE>  (4077) 
MS1

>  <INSTRUMENT TYPE>  (4077) 
EI-B

>  <INSTRUMENT>  (4077) 
HITACHI M-80B

>  <ION MODE>  (4077) 
P

>  <INCHIKEY>  (4077) 
FHLGUOHLUFIAAA-UHFFFAOYSA-N

>  <FORMULA>  (4077) 
C14H24O2

>  <EXACT MASS>  (4077) 
224.177630008

>  <MW>  (4077) 
224

>  <ID>  (4077) 
JP006407

>  <CONTRIBUTOR>  (4077) 
University of Tokyo Team, {Faculty of Engineering, University of Tokyo

>  <COMMENT>  (4077) 
SMILES=CCCC(=O)OC(C)(C=C)CCC=C(C)C
InChI=InChI=1S/C14H24O2/c1-6-9-13(15)16-14(5,7-2)11-8-10-12(3)4/h7,10H,2,6,8-9,11H2,1,3-5H3
computed SMILES=O=C(OC(C=C)(C)CCC=C(C)C)CCC
accession=JP006407
date=2016.01.19 (Created 2008.10.21, modified 2011.05.06)
author=HISAHIRO HAGIWARA, CHEMICAL RESEARCH INSTITUTE OF NON-AQUEOUSSOLUTIONS TOHOKU UNIV.
license=CC BY-NC-SA
exact mass=224.17763
ionization energy=70 eV
ion type=[M]+*
computed spectral entropy=3.0178899931858156
computed normalized entropy=0.7882404437128149
SPLASH=splash10-0006-9100000000-17b123e13e809fe56da9
submitter=submitter = University of Tokyo Team (Faculty of Engineering, University of Tokyo)
MoNA Rating=3.75

>  <NUM PEAKS>  (4077) 
46

>  <MASS SPECTRAL PEAKS>  (4077) 
15 1.13
17 7.68
27 12.8
28 1.6
29 6.45
39 9.94
40 2.76
41 49.65
42 4.16
43 56.33
44 1.95
45 1.05
51 1.82
52 1.05
53 9.5
54 1.61
55 12.69
57 1.05
65 1.76
66 1.26
67 9.96
68 11.46
69 35.37
70 2.31
71 45.48
72 1.86
77 2.75
79 7.23
80 43.05
81 15.1
82 1.87
83 2.87
91 5.82
92 14.13
93 99.99
95 3.28
105 2.86
106 1.22
107 8.31
108 1.72
109 1.71
121 33.14
122 2.64
136 8.94
137 3.43
154 1.09

$$$$

     RDKit          2D

 16 15  0  0  0  0  0  0  0  0999 V2000
    3.8971    6.7500    0.0000 C   0  0  0  0  0  0  0  0  0  0  0  0
  -11.6913    6.7500    0.0000 C   0  0  0  0  0  0  0  0  0  0  0  0
  -10.3923    9.0000    0.0000 C   0  0  0  0  0  0  0  0  0  0  0  0
   -5.1962    9.0000    0.0000 C   0  0  0  0  0  0  0  0  0  0  0  0
    2.5981    7.5000    0.0000 C   0  0  0  0  0  0  0  0  0  0  0  0
   -7.7942    7.5000    0.0000 C   0  0  0  0  0  0  0  0  0  0  0  0
    1.2990    6.7500    0.0000 C   0  0  0  0  0  0  0  0  0  0  0  0
   -9.0933    6.7500    0.0000 C   0  0  0  0  0  0  0  0  0  0  0  0
   -6.4952    6.7500    0.0000 C   0  0  0  0  0  0  0  0  0  0  0  0
   -3.8971    6.7500    0.0000 C   0  0  0  0  0  0  0  0  0  0  0  0
   -2.5981    7.5000    0.0000 C   0  0  0  0  0  0  0  0  0  0  0  0
  -10.3923    7.5000    0.0000 C   0  0  0  0  0  0  0  0  0  0  0  0
   -5.1962    7.5000    0.0000 C   0  0  0  0  0  0  0  0  0  0  0  0
    0.0000    7.5000    0.0000 C   0  0  0  0  0  0  0  0  0  0  0  0
    0.0000    9.0000    0.0000 O   0  0  0  0  0  0  0  0  0  0  0  0
   -1.2990    6.7500    0.0000 O   0  0  0  0  0  0  0  0  0  0  0  0
  5  1  1  0
  7  5  1  0
  8  6  1  0
  9  6  1  0
 11 10  1  0
 12  2  1  0
 12  3  1  0
 12  8  2  0
 13  4  1  0
 13  9  1  0
 10 13  2  0
 14  7  1  0
 15 14  2  0
 16 11  1  0
 16 14  1  0
M  END
>  <NAME>  (4078) 
GERANYL BUTYRATE

>  <SYNONYMS>  (4078) 


>  <SPECTRUM TYPE>  (4078) 
MS1

>  <INSTRUMENT TYPE>  (4078) 
EI-B

>  <INSTRUMENT>  (4078) 
HITACHI M-80B

>  <ION MODE>  (4078) 
P

>  <INCHIKEY>  (4078) 
ZSBOMYJPSRFZAL-JLHYYAGUSA-N

>  <FORMULA>  (4078) 
C14H24O2

>  <EXACT MASS>  (4078) 
224.177630008

>  <MW>  (4078) 
224

>  <ID>  (4078) 
JP006406

>  <CONTRIBUTOR>  (4078) 
University of Tokyo Team, {Faculty of Engineering, University of Tokyo

>  <COMMENT>  (4078) 
SMILES=CCCC(=O)OCC=C(C)CCC=C(C)C
InChI=InChI=1S/C14H24O2/c1-5-7-14(15)16-11-10-13(4)9-6-8-12(2)3/h8,10H,5-7,9,11H2,1-4H3/b13-10+
computed SMILES=O=C(OCC=C(C)CCC=C(C)C)CCC
accession=JP006406
date=2016.01.19 (Created 2008.10.21, modified 2011.05.06)
author=HISAHIRO HAGIWARA, CHEMICAL RESEARCH INSTITUTE OF NON-AQUEOUSSOLUTIONS TOHOKU UNIV.
license=CC BY-NC-SA
exact mass=224.17763
ionization energy=70 eV
ion type=[M]+*
computed spectral entropy=2.872705145948637
computed normalized entropy=0.7591335064712795
SPLASH=splash10-014l-9000000000-c436cf6160d32f73057c
submitter=submitter = University of Tokyo Team (Faculty of Engineering, University of Tokyo)
MoNA Rating=3.75

>  <NUM PEAKS>  (4078) 
44

>  <MASS SPECTRAL PEAKS>  (4078) 
18 2.55
27 11.61
29 4.99
39 8.83
40 2.18
41 56.11
42 3.84
43 36.09
44 1.27
51 1.19
53 8.48
54 1.47
55 4.05
56 1.02
65 1.78
66 1.35
67 11.25
68 48.57
69 99.99
70 4.48
71 47.11
72 2.23
77 2.06
79 3.15
80 14.21
81 6.42
82 1.03
83 1.06
84 2.1
85 1.96
91 2.3
92 5.67
93 29.06
95 1.58
105 1.26
107 4.19
108 2.09
121 15.78
122 1.57
123 2.25
136 13.92
137 2.95
154 1.46
155 1.51

$$$$

     RDKit          2D

 16 17  0  0  0  0  0  0  0  0999 V2000
   10.2313    1.0802    0.0000 C   0  0  0  0  0  0  0  0  0  0  0  0
   -0.6759    1.4813    0.0000 C   0  0  0  0  0  0  0  0  0  0  0  0
   -0.6759   -2.3013    0.0000 C   0  0  0  0  0  0  0  0  0  0  0  0
    2.4475    2.5900    0.0000 C   0  0  0  0  0  0  0  0  0  0  0  0
    8.9311    0.3321    0.0000 C   0  0  0  0  0  0  0  0  0  0  0  0
    7.6332    1.0841    0.0000 C   0  0  0  0  0  0  0  0  0  0  0  0
    1.1450   -1.1600    0.0000 C   0  0  0  0  0  0  0  0  0  0  0  0
    1.1450    0.3400    0.0000 C   0  0  0  0  0  0  0  0  0  0  0  0
    3.7350   -1.1600    0.0000 C   0  0  0  0  0  0  0  0  0  0  0  0
    2.4450   -1.9100    0.0000 C   0  0  0  0  0  0  0  0  0  0  0  0
    3.7350    0.3400    0.0000 C   0  0  0  0  0  0  0  0  0  0  0  0
    6.3331    0.3361    0.0000 C   0  0  0  0  0  0  0  0  0  0  0  0
    1.5750   -0.4100    0.0000 C   0  0  0  0  0  0  0  0  0  0  0  0
    2.4450    1.0900    0.0000 C   0  0  0  0  0  0  0  0  0  0  0  0
    6.3308   -1.1639    0.0000 O   0  0  0  0  0  0  0  0  0  0  0  0
    5.0352    1.0880    0.0000 O   0  0  0  0  0  0  0  0  0  0  0  0
  5  1  1  0
  6  5  1  0
  8  7  1  0
 10  7  1  0
 10  9  1  0
 11  9  1  0
 12  6  1  0
 13  2  1  0
 13  3  1  0
 13 10  1  0
 14  4  1  0
 14  8  1  0
 14 11  1  0
 14 13  1  0
 15 12  2  0
 16 11  1  0
 16 12  1  0
M  END
>  <NAME>  (4079) 
ISOBORNYL BUTYRATE

>  <SYNONYMS>  (4079) 


>  <SPECTRUM TYPE>  (4079) 
MS1

>  <INSTRUMENT TYPE>  (4079) 
EI-B

>  <INSTRUMENT>  (4079) 
HITACHI M-80B

>  <ION MODE>  (4079) 
P

>  <INCHIKEY>  (4079) 
VIPNQHBVIDJXJE-UHFFFAOYSA-N

>  <FORMULA>  (4079) 
C14H24O2

>  <EXACT MASS>  (4079) 
224.177630008

>  <MW>  (4079) 
224

>  <ID>  (4079) 
JP006405

>  <CONTRIBUTOR>  (4079) 
University of Tokyo Team, {Faculty of Engineering, University of Tokyo

>  <COMMENT>  (4079) 
SMILES=CCCC(=O)OC(C1)C(C)(C2)C(C)(C)C(C2)1
InChI=InChI=1S/C14H24O2/c1-5-6-12(15)16-11-9-10-7-8-14(11,4)13(10,2)3/h10-11H,5-9H2,1-4H3
computed SMILES=O=C(OC1CC2CCC1(C)C2(C)C)CCC
accession=JP006405
date=2016.01.19 (Created 2008.10.21, modified 2011.05.06)
author=HISAHIRO HAGIWARA, CHEMICAL RESEARCH INSTITUTE OF NON-AQUEOUSSOLUTIONS TOHOKU UNIV.
license=CC BY-NC-SA
exact mass=224.17763
ionization energy=70 eV
ion type=[M]+*
computed spectral entropy=3.3569763405804744
computed normalized entropy=0.819905674660308
SPLASH=splash10-006x-9400000000-55433f9b19266384724c
submitter=submitter = University of Tokyo Team (Faculty of Engineering, University of Tokyo)
MoNA Rating=3.75

>  <NUM PEAKS>  (4079) 
60

>  <MASS SPECTRAL PEAKS>  (4079) 
27 18.41
28 2.22
29 11.12
39 13.65
40 2.85
41 52.29
42 5.75
43 82.41
44 2.84
45 1.53
51 1.38
53 9.26
54 1.77
55 21.66
56 1.57
57 4.23
60 2.23
65 2.8
66 1.37
67 16.61
68 8.35
69 21.83
70 2.01
71 99.99
72 5.99
73 1.11
77 6.67
78 1.36
79 10.45
80 6.54
81 19.35
82 8.69
83 6.45
84 2.34
91 5.84
92 10.1
93 38.81
94 6.21
95 81.81
96 6.56
97 2.4
105 2.04
107 9.07
108 39.56
109 36.18
110 24.25
111 5.34
121 39.05
122 3.36
123 1.85
135 3.36
136 71.26
137 18.36
138 1.37
139 2.39
152 1.11
153 3.27
154 13.02
155 1.54
224 3.03

$$$$

     RDKit          2D

 16 16  0  0  0  0  0  0  0  0999 V2000
   -9.0942   -0.7512    0.0000 C   0  0  0  0  0  0  0  0  0  0  0  0
    2.5987    3.0002    0.0000 C   0  0  0  0  0  0  0  0  0  0  0  0
    3.8981    0.7504    0.0000 C   0  0  0  0  0  0  0  0  0  0  0  0
   -7.7951   -1.5010    0.0000 C   0  0  0  0  0  0  0  0  0  0  0  0
   -6.4962   -0.7508    0.0000 C   0  0  0  0  0  0  0  0  0  0  0  0
   -1.3000    0.7500    0.0000 C   0  0  0  0  0  0  0  0  0  0  0  0
   -0.0000   -1.5000    0.0000 C   0  0  0  0  0  0  0  0  0  0  0  0
    0.0000    1.5000    0.0000 C   0  0  0  0  0  0  0  0  0  0  0  0
    1.3000   -0.7500    0.0000 C   0  0  0  0  0  0  0  0  0  0  0  0
   -2.5989   -1.5002    0.0000 C   0  0  0  0  0  0  0  0  0  0  0  0
    2.5989    1.5002    0.0000 C   0  0  0  0  0  0  0  0  0  0  0  0
   -1.3000   -0.7500    0.0000 C   0  0  0  0  0  0  0  0  0  0  0  0
    1.3000    0.7500    0.0000 C   0  0  0  0  0  0  0  0  0  0  0  0
   -5.1970   -1.5006    0.0000 C   0  0  0  0  0  0  0  0  0  0  0  0
   -5.1968   -3.0006    0.0000 O   0  0  0  0  0  0  0  0  0  0  0  0
   -3.8981   -0.7504    0.0000 O   0  0  0  0  0  0  0  0  0  0  0  0
  4  1  1  0
  5  4  1  0
  8  6  1  0
  9  7  1  0
 11  2  2  0
 11  3  1  0
 12  6  2  0
 12  7  1  0
 12 10  1  0
 13  8  1  0
 13  9  1  0
 13 11  1  0
 14  5  1  0
 15 14  2  0
 16 10  1  0
 16 14  1  0
M  END
>  <NAME>  (4080) 
PERILLYL BUTYRATE

>  <SYNONYMS>  (4080) 


>  <SPECTRUM TYPE>  (4080) 
MS1

>  <INSTRUMENT TYPE>  (4080) 
EI-B

>  <INSTRUMENT>  (4080) 
HITACHI M-80B

>  <ION MODE>  (4080) 
P

>  <INCHIKEY>  (4080) 
HAQGPJPCMFOGLO-UHFFFAOYSA-N

>  <FORMULA>  (4080) 
C14H22O2

>  <EXACT MASS>  (4080) 
222.161979944

>  <MW>  (4080) 
222

>  <ID>  (4080) 
JP006404

>  <CONTRIBUTOR>  (4080) 
University of Tokyo Team, {Faculty of Engineering, University of Tokyo

>  <COMMENT>  (4080) 
SMILES=CCCC(=O)OCC(C1)=CCC(C(C)=C)C1
InChI=InChI=1S/C14H22O2/c1-4-5-14(15)16-10-12-6-8-13(9-7-12)11(2)3/h6,13H,2,4-5,7-10H2,1,3H3
computed SMILES=O=C(OCC1=CCC(C(=C)C)CC1)CCC
accession=JP006404
date=2016.01.19 (Created 2008.10.21, modified 2011.05.06)
author=HISAHIRO HAGIWARA, CHEMICAL RESEARCH INSTITUTE OF NON-AQUEOUSSOLUTIONS TOHOKU UNIV.
license=CC BY-NC-SA
exact mass=222.16198
ionization energy=70 eV
ion type=[M]+*
computed spectral entropy=3.4476635223651892
computed normalized entropy=0.8115022674950978
SPLASH=splash10-0006-9300000000-f078313250e8556c7c51
submitter=submitter = University of Tokyo Team (Faculty of Engineering, University of Tokyo)
MoNA Rating=3.75

>  <NUM PEAKS>  (4080) 
70

>  <MASS SPECTRAL PEAKS>  (4080) 
14 1.08
26 1.25
27 23.84
28 3.21
29 9.21
31 1.46
39 24.06
40 5.49
41 55.05
42 6.62
43 89.41
44 2.5
45 1.78
51 4.26
52 2.33
53 20.16
54 2.63
55 15.52
56 2.44
57 1.94
60 1.26
63 1.32
65 8.82
66 6.3
67 27.67
68 53.09
69 5.91
70 1.65
71 99.99
72 3.25
77 18.24
78 9.78
79 39.43
80 8.69
81 8.99
82 1.45
83 3.33
84 3.65
89 3.34
91 71
92 64.71
93 51.48
94 6.09
95 2.28
96 1.3
103 1.67
104 1.66
105 34.39
106 43.51
107 9.34
108 4.81
109 11.39
110 1.57
115 1.49
117 3.92
118 1.4
119 67.46
120 6.84
121 2.36
123 1.33
124 1.12
133 4.76
134 53.02
135 9.75
136 1.59
137 1.32
151 1.72
152 21.16
153 2.52
222 2.65

$$$$

     RDKit          2D

 17 16  0  0  0  0  0  0  0  0999 V2000
    5.1962    8.2500    0.0000 C   0  0  0  0  0  0  0  0  0  0  0  0
  -14.2894    9.0000    0.0000 C   0  0  0  0  0  0  0  0  0  0  0  0
    3.8971    9.0000    0.0000 C   0  0  0  0  0  0  0  0  0  0  0  0
  -12.9904    8.2500    0.0000 C   0  0  0  0  0  0  0  0  0  0  0  0
    2.5981    8.2500    0.0000 C   0  0  0  0  0  0  0  0  0  0  0  0
    1.2990    9.0000    0.0000 C   0  0  0  0  0  0  0  0  0  0  0  0
    0.0000    8.2500    0.0000 C   0  0  0  0  0  0  0  0  0  0  0  0
   -1.2990    9.0000    0.0000 C   0  0  0  0  0  0  0  0  0  0  0  0
   -2.5981    8.2500    0.0000 C   0  0  0  0  0  0  0  0  0  0  0  0
   -3.8971    9.0000    0.0000 C   0  0  0  0  0  0  0  0  0  0  0  0
   -5.1962    8.2500    0.0000 C   0  0  0  0  0  0  0  0  0  0  0  0
   -6.4952    9.0000    0.0000 C   0  0  0  0  0  0  0  0  0  0  0  0
  -11.6913    9.0000    0.0000 C   0  0  0  0  0  0  0  0  0  0  0  0
   -7.7942    8.2500    0.0000 C   0  0  0  0  0  0  0  0  0  0  0  0
  -10.3923    8.2500    0.0000 C   0  0  0  0  0  0  0  0  0  0  0  0
  -10.3923    6.7500    0.0000 O   0  0  0  0  0  0  0  0  0  0  0  0
   -9.0933    9.0000    0.0000 O   0  0  0  0  0  0  0  0  0  0  0  0
  3  1  1  0
  4  2  1  0
  5  3  1  0
  6  5  1  0
  7  6  1  0
  8  7  1  0
  9  8  1  0
 10  9  1  0
 11 10  1  0
 12 11  1  0
 13  4  1  0
 14 12  1  0
 15 13  1  0
 16 15  2  0
 17 14  1  0
 17 15  1  0
M  END
>  <NAME>  (4081) 
UNDECYL BUTYRATE

>  <SYNONYMS>  (4081) 


>  <SPECTRUM TYPE>  (4081) 
MS1

>  <INSTRUMENT TYPE>  (4081) 
EI-B

>  <INSTRUMENT>  (4081) 
HITACHI M-80B

>  <ION MODE>  (4081) 
P

>  <INCHIKEY>  (4081) 
DPMDQRRFSVRUMR-UHFFFAOYSA-N

>  <FORMULA>  (4081) 
C15H30O2

>  <EXACT MASS>  (4081) 
242.2245802

>  <MW>  (4081) 
242

>  <ID>  (4081) 
JP006402

>  <CONTRIBUTOR>  (4081) 
University of Tokyo Team, {Faculty of Engineering, University of Tokyo

>  <COMMENT>  (4081) 
SMILES=CCCCCCCCCCCOC(=O)CCC
InChI=InChI=1S/C15H30O2/c1-3-5-6-7-8-9-10-11-12-14-17-15(16)13-4-2/h3-14H2,1-2H3
computed SMILES=O=C(OCCCCCCCCCCC)CCC
accession=JP006402
date=2016.01.19 (Created 2008.10.21, modified 2011.05.06)
author=HISAHIRO HAGIWARA, CHEMICAL RESEARCH INSTITUTE OF NON-AQUEOUSSOLUTIONS TOHOKU UNIV.
license=CC BY-NC-SA
exact mass=242.22458
ionization energy=70 eV
ion type=[M]+*
computed spectral entropy=3.1332609722827276
computed normalized entropy=0.8138028191155782
SPLASH=splash10-0596-9000000000-c3360e532db775ef7f9f
submitter=submitter = University of Tokyo Team (Faculty of Engineering, University of Tokyo)
MoNA Rating=3.75

>  <NUM PEAKS>  (4081) 
47

>  <MASS SPECTRAL PEAKS>  (4081) 
27 18.15
28 3.22
29 24.07
31 1.17
39 8.09
40 2
41 54.85
42 18.57
43 99.99
44 3.52
45 1.01
53 2.92
54 4.9
55 41.74
56 29.12
57 35.71
58 1.79
60 3.86
61 2.21
67 4.65
68 8.45
69 25.83
70 30.08
71 74.07
72 3.09
73 2.13
81 1.31
82 9.2
83 23.83
84 18.17
85 5.88
86 1.24
88 5.51
89 69.72
90 2.66
96 3.4
97 19.19
98 8.43
99 1.69
101 1.24
111 7.92
112 3.28
125 2.98
126 6.67
144 1.73
154 6.98
155 1.06

$$$$

     RDKit          2D

 16 15  0  0  0  0  0  0  0  0999 V2000
    4.5466    7.8750    0.0000 C   0  0  0  0  0  0  0  0  0  0  0  0
  -13.6399    7.8750    0.0000 C   0  0  0  0  0  0  0  0  0  0  0  0
    3.2476    8.6250    0.0000 C   0  0  0  0  0  0  0  0  0  0  0  0
  -12.3409    8.6250    0.0000 C   0  0  0  0  0  0  0  0  0  0  0  0
    1.9486    7.8750    0.0000 C   0  0  0  0  0  0  0  0  0  0  0  0
    0.6495    8.6250    0.0000 C   0  0  0  0  0  0  0  0  0  0  0  0
   -0.6495    7.8750    0.0000 C   0  0  0  0  0  0  0  0  0  0  0  0
   -1.9486    8.6250    0.0000 C   0  0  0  0  0  0  0  0  0  0  0  0
   -3.2476    7.8750    0.0000 C   0  0  0  0  0  0  0  0  0  0  0  0
   -4.5466    8.6250    0.0000 C   0  0  0  0  0  0  0  0  0  0  0  0
   -5.8457    7.8750    0.0000 C   0  0  0  0  0  0  0  0  0  0  0  0
  -11.0418    7.8750    0.0000 C   0  0  0  0  0  0  0  0  0  0  0  0
   -7.1447    8.6250    0.0000 C   0  0  0  0  0  0  0  0  0  0  0  0
   -9.7428    8.6250    0.0000 C   0  0  0  0  0  0  0  0  0  0  0  0
   -9.7428   10.1250    0.0000 O   0  0  0  0  0  0  0  0  0  0  0  0
   -8.4437    7.8750    0.0000 O   0  0  0  0  0  0  0  0  0  0  0  0
  3  1  1  0
  4  2  1  0
  5  3  1  0
  6  5  1  0
  7  6  1  0
  8  7  1  0
  9  8  1  0
 10  9  1  0
 11 10  1  0
 12  4  1  0
 13 11  1  0
 14 12  1  0
 15 14  2  0
 16 13  1  0
 16 14  1  0
M  END
>  <NAME>  (4082) 
DECYL BUTYRATE

>  <SYNONYMS>  (4082) 


>  <SPECTRUM TYPE>  (4082) 
MS1

>  <INSTRUMENT TYPE>  (4082) 
EI-B

>  <INSTRUMENT>  (4082) 
HITACHI M-80B

>  <ION MODE>  (4082) 
P

>  <INCHIKEY>  (4082) 
PUCQHFICPFUPKW-UHFFFAOYSA-N

>  <FORMULA>  (4082) 
C14H28O2

>  <EXACT MASS>  (4082) 
228.208930136

>  <MW>  (4082) 
228

>  <ID>  (4082) 
JP006401

>  <CONTRIBUTOR>  (4082) 
University of Tokyo Team, {Faculty of Engineering, University of Tokyo

>  <COMMENT>  (4082) 
SMILES=CCCCCCCCCCOC(=O)CCC
InChI=InChI=1S/C14H28O2/c1-3-5-6-7-8-9-10-11-13-16-14(15)12-4-2/h3-13H2,1-2H3
computed SMILES=O=C(OCCCCCCCCCC)CCC
accession=JP006401
date=2016.01.19 (Created 2008.10.21, modified 2011.05.06)
author=HISAHIRO HAGIWARA, CHEMICAL RESEARCH INSTITUTE OF NON-AQUEOUSSOLUTIONS TOHOKU UNIV.
license=CC BY-NC-SA
exact mass=228.20893
ionization energy=70 eV
ion type=[M]+*
computed spectral entropy=3.135332510948049
computed normalized entropy=0.8099120924265147
SPLASH=splash10-0596-9000000000-0df1e256ba0a8d996fad
submitter=submitter = University of Tokyo Team (Faculty of Engineering, University of Tokyo)
MoNA Rating=3.75

>  <NUM PEAKS>  (4082) 
48

>  <MASS SPECTRAL PEAKS>  (4082) 
16 1.25
27 18.98
28 4.9
29 24.42
31 1.2
39 8.37
40 1.51
41 51.3
42 20.46
43 99.99
44 3.25
45 1.15
53 2.27
54 4.96
55 37.52
56 34.52
57 30.39
58 2.08
60 3.87
61 2.35
67 3.69
68 7.17
69 24.83
70 34.39
71 76.41
72 3.28
73 2.15
81 1.39
82 7.92
83 23.65
84 17.29
85 6.99
86 1.22
88 5.32
89 66.35
90 2.66
96 2.45
97 14.57
98 8.67
99 1.38
101 1.5
110 1.26
111 7.74
112 9.33
113 1.01
140 10.38
141 1.26
144 1.9

$$$$

     RDKit          2D

 14 13  0  0  0  0  0  0  0  0999 V2000
    3.8971    6.7500    0.0000 C   0  0  0  0  0  0  0  0  0  0  0  0
  -11.6913    6.7500    0.0000 C   0  0  0  0  0  0  0  0  0  0  0  0
    2.5981    7.5000    0.0000 C   0  0  0  0  0  0  0  0  0  0  0  0
  -10.3923    7.5000    0.0000 C   0  0  0  0  0  0  0  0  0  0  0  0
    1.2990    6.7500    0.0000 C   0  0  0  0  0  0  0  0  0  0  0  0
    0.0000    7.5000    0.0000 C   0  0  0  0  0  0  0  0  0  0  0  0
   -1.2990    6.7500    0.0000 C   0  0  0  0  0  0  0  0  0  0  0  0
   -2.5981    7.5000    0.0000 C   0  0  0  0  0  0  0  0  0  0  0  0
   -3.8971    6.7500    0.0000 C   0  0  0  0  0  0  0  0  0  0  0  0
   -9.0933    6.7500    0.0000 C   0  0  0  0  0  0  0  0  0  0  0  0
   -5.1962    7.5000    0.0000 C   0  0  0  0  0  0  0  0  0  0  0  0
   -7.7942    7.5000    0.0000 C   0  0  0  0  0  0  0  0  0  0  0  0
   -7.7942    9.0000    0.0000 O   0  0  0  0  0  0  0  0  0  0  0  0
   -6.4952    6.7500    0.0000 O   0  0  0  0  0  0  0  0  0  0  0  0
  3  1  1  0
  4  2  1  0
  5  3  1  0
  6  5  1  0
  7  6  1  0
  8  7  1  0
  9  8  1  0
 10  4  1  0
 11  9  1  0
 12 10  1  0
 13 12  2  0
 14 11  1  0
 14 12  1  0
M  END
>  <NAME>  (4083) 
OCTYL BUTYRATE

>  <SYNONYMS>  (4083) 


>  <SPECTRUM TYPE>  (4083) 
MS1

>  <INSTRUMENT TYPE>  (4083) 
EI-B

>  <INSTRUMENT>  (4083) 
HITACHI M-80B

>  <ION MODE>  (4083) 
P

>  <INCHIKEY>  (4083) 
PWLNAUNEAKQYLH-UHFFFAOYSA-N

>  <FORMULA>  (4083) 
C12H24O2

>  <EXACT MASS>  (4083) 
200.177630008

>  <MW>  (4083) 
200

>  <ID>  (4083) 
JP006400

>  <CONTRIBUTOR>  (4083) 
University of Tokyo Team, {Faculty of Engineering, University of Tokyo

>  <COMMENT>  (4083) 
SMILES=CCCCCCCCOC(=O)CCC
InChI=InChI=1S/C12H24O2/c1-3-5-6-7-8-9-11-14-12(13)10-4-2/h3-11H2,1-2H3
computed SMILES=O=C(OCCCCCCCC)CCC
accession=JP006400
date=2016.01.19 (Created 2008.10.21, modified 2011.05.06)
author=HISAHIRO HAGIWARA, CHEMICAL RESEARCH INSTITUTE OF NON-AQUEOUSSOLUTIONS TOHOKU UNIV.
license=CC BY-NC-SA
exact mass=200.17763
ionization energy=70 eV
ion type=[M]+*
computed spectral entropy=2.9698325225079296
computed normalized entropy=0.8050771404839194
SPLASH=splash10-0596-9000000000-af458bf758cc1f14e6a1
submitter=submitter = University of Tokyo Team (Faculty of Engineering, University of Tokyo)
MoNA Rating=3.75

>  <NUM PEAKS>  (4083) 
40

>  <MASS SPECTRAL PEAKS>  (4083) 
15 1.05
26 1.1
27 26.74
28 7.76
29 27.75
31 1.67
39 11.61
40 2.52
41 56.35
42 24.34
43 99.99
44 3.77
45 1.31
53 1.9
54 2.88
55 32.18
56 36.86
57 29.37
58 1.68
60 5.82
61 2.96
67 2.28
68 5.67
69 22.75
70 40.69
71 86.44
72 2.86
73 3.1
82 5.16
83 24.8
84 21.92
85 1.48
88 5.14
89 63.64
90 2.67
97 2.35
101 1.74
112 19.35
113 1.18
129 1.05

$$$$

     RDKit          2D

 11 10  0  0  0  0  0  0  0  0999 V2000
   -5.5209    5.0625    0.0000 C   0  0  0  0  0  0  0  0  0  0  0  0
   -2.9228    2.0625    0.0000 C   0  0  0  0  0  0  0  0  0  0  0  0
    3.5724    4.3125    0.0000 C   0  0  0  0  0  0  0  0  0  0  0  0
   -4.2219    4.3125    0.0000 C   0  0  0  0  0  0  0  0  0  0  0  0
   -1.6238    2.8125    0.0000 C   0  0  0  0  0  0  0  0  0  0  0  0
    2.2733    5.0625    0.0000 C   0  0  0  0  0  0  0  0  0  0  0  0
   -2.9228    5.0625    0.0000 C   0  0  0  0  0  0  0  0  0  0  0  0
   -1.6238    4.3125    0.0000 C   0  0  0  0  0  0  0  0  0  0  0  0
    0.9743    4.3125    0.0000 C   0  0  0  0  0  0  0  0  0  0  0  0
    0.9743    2.8125    0.0000 O   0  0  0  0  0  0  0  0  0  0  0  0
   -0.3248    5.0625    0.0000 O   0  0  0  0  0  0  0  0  0  0  0  0
  4  1  1  0
  5  2  1  0
  6  3  1  0
  7  4  1  0
  8  5  1  0
  8  7  1  0
  9  6  1  0
 10  9  2  0
 11  8  1  0
 11  9  1  0
M  END
>  <NAME>  (4084) 
3-HEXYL PROPIONATE

>  <SYNONYMS>  (4084) 
1-ETHYLBUTYL PROPIONATE

>  <SPECTRUM TYPE>  (4084) 
MS1

>  <INSTRUMENT TYPE>  (4084) 
EI-B

>  <INSTRUMENT>  (4084) 
HITACHI M-80B

>  <ION MODE>  (4084) 
P

>  <INCHIKEY>  (4084) 
GYZCKXAOGZSSCT-UHFFFAOYSA-N

>  <FORMULA>  (4084) 
C9H18O2

>  <EXACT MASS>  (4084) 
158.130679816

>  <MW>  (4084) 
158

>  <ID>  (4084) 
JP006399

>  <CONTRIBUTOR>  (4084) 
University of Tokyo Team, {Faculty of Engineering, University of Tokyo

>  <COMMENT>  (4084) 
SMILES=CCCC(CC)OC(=O)CC
InChI=InChI=1S/C9H18O2/c1-4-7-8(5-2)11-9(10)6-3/h8H,4-7H2,1-3H3
computed SMILES=O=C(OC(CC)CCC)CC
accession=JP006399
date=2016.01.19 (Created 2008.10.21, modified 2011.05.06)
author=HISAHIRO HAGIWARA, CHEMICAL RESEARCH INSTITUTE OF NON-AQUEOUSSOLUTIONS TOHOKU UNIV.
license=CC BY-NC-SA
exact mass=158.13068
ionization energy=70 eV
ion type=[M]+*
computed spectral entropy=2.17211191042236
computed normalized entropy=0.7134491385278086
SPLASH=splash10-0a4i-9000000000-76336a6cc5a31dc3ccab
submitter=submitter = University of Tokyo Team (Faculty of Engineering, University of Tokyo)
MoNA Rating=3.75

>  <NUM PEAKS>  (4084) 
21

>  <MASS SPECTRAL PEAKS>  (4084) 
27 9.02
28 4.57
29 23.84
31 1.26
39 3.17
41 8.64
42 3.85
43 15.92
44 1.46
55 6.8
56 6.52
57 99.99
58 3.8
59 1.2
69 2.99
71 1.94
75 3.08
84 7.24
85 5.65
115 6.72
129 4.29

$$$$

     RDKit          2D

 11 10  0  0  0  0  0  0  0  0999 V2000
   -8.4437    5.6250    0.0000 C   0  0  0  0  0  0  0  0  0  0  0  0
    3.2476    4.8750    0.0000 C   0  0  0  0  0  0  0  0  0  0  0  0
   -7.1447    4.8750    0.0000 C   0  0  0  0  0  0  0  0  0  0  0  0
    1.9486    5.6250    0.0000 C   0  0  0  0  0  0  0  0  0  0  0  0
   -5.8457    5.6250    0.0000 C   0  0  0  0  0  0  0  0  0  0  0  0
   -4.5466    4.8750    0.0000 C   0  0  0  0  0  0  0  0  0  0  0  0
   -3.2476    5.6250    0.0000 C   0  0  0  0  0  0  0  0  0  0  0  0
   -1.9486    4.8750    0.0000 C   0  0  0  0  0  0  0  0  0  0  0  0
    0.6495    4.8750    0.0000 C   0  0  0  0  0  0  0  0  0  0  0  0
    0.6495    3.3750    0.0000 O   0  0  0  0  0  0  0  0  0  0  0  0
   -0.6495    5.6250    0.0000 O   0  0  0  0  0  0  0  0  0  0  0  0
  3  1  1  0
  4  2  1  0
  5  3  1  0
  6  5  1  0
  7  6  1  0
  8  7  1  0
  9  4  1  0
 10  9  2  0
 11  8  1  0
 11  9  1  0
M  END
>  <NAME>  (4085) 
HEXYL PROPIONATE

>  <SYNONYMS>  (4085) 


>  <SPECTRUM TYPE>  (4085) 
MS1

>  <INSTRUMENT TYPE>  (4085) 
EI-B

>  <INSTRUMENT>  (4085) 
HITACHI M-80B

>  <ION MODE>  (4085) 
P

>  <INCHIKEY>  (4085) 
GOKKOFHHJFGZHW-UHFFFAOYSA-N

>  <FORMULA>  (4085) 
C9H18O2

>  <EXACT MASS>  (4085) 
158.130679816

>  <MW>  (4085) 
158

>  <ID>  (4085) 
JP006398

>  <CONTRIBUTOR>  (4085) 
University of Tokyo Team, {Faculty of Engineering, University of Tokyo

>  <COMMENT>  (4085) 
SMILES=CCCCCCOC(=O)CC
InChI=InChI=1S/C9H18O2/c1-3-5-6-7-8-11-9(10)4-2/h3-8H2,1-2H3
computed SMILES=O=C(OCCCCCC)CC
accession=JP006398
date=2016.01.19 (Created 2008.10.21, modified 2011.05.06)
author=HISAHIRO HAGIWARA, CHEMICAL RESEARCH INSTITUTE OF NON-AQUEOUSSOLUTIONS TOHOKU UNIV.
license=CC BY-NC-SA
exact mass=158.13068
ionization energy=70 eV
ion type=[M]+*
computed spectral entropy=2.6191002282278086
computed normalized entropy=0.785996243696969
SPLASH=splash10-0a6u-9000000000-1dbab7526fdc13ab4997
submitter=submitter = University of Tokyo Team (Faculty of Engineering, University of Tokyo)
MoNA Rating=3.75

>  <NUM PEAKS>  (4085) 
28

>  <MASS SPECTRAL PEAKS>  (4085) 
26 1.85
27 24.64
28 7.97
29 55.23
30 1.26
31 2.61
39 8.35
40 1.64
41 25.1
42 20.75
43 42.69
44 1.81
53 1.47
54 1.75
55 22.4
56 46.7
57 99.99
58 3.12
69 14.86
72 1.38
74 1.94
75 42.92
76 1.41
83 3.15
84 27.22
85 3.47
87 4.78
99 1.28

$$$$

     RDKit          2D

 11 10  0  0  0  0  0  0  0  0999 V2000
   -4.2219    3.1875    0.0000 C   0  0  0  0  0  0  0  0  0  0  0  0
    6.1704    6.1875    0.0000 C   0  0  0  0  0  0  0  0  0  0  0  0
   -2.9228    3.9375    0.0000 C   0  0  0  0  0  0  0  0  0  0  0  0
    4.8714    5.4375    0.0000 C   0  0  0  0  0  0  0  0  0  0  0  0
   -2.9228    5.4375    0.0000 C   0  0  0  0  0  0  0  0  0  0  0  0
   -1.6238    6.1875    0.0000 C   0  0  0  0  0  0  0  0  0  0  0  0
   -0.3248    5.4375    0.0000 C   0  0  0  0  0  0  0  0  0  0  0  0
    0.9743    6.1875    0.0000 C   0  0  0  0  0  0  0  0  0  0  0  0
    3.5724    6.1875    0.0000 C   0  0  0  0  0  0  0  0  0  0  0  0
    3.5724    7.6875    0.0000 O   0  0  0  0  0  0  0  0  0  0  0  0
    2.2733    5.4375    0.0000 O   0  0  0  0  0  0  0  0  0  0  0  0
  3  1  1  0
  4  2  1  0
  5  3  1  0
  5  6  2  0
  7  6  1  0
  8  7  1  0
  9  4  1  0
 10  9  2  0
 11  8  1  0
 11  9  1  0
M  END
>  <NAME>  (4086) 
CIS-3-HEXENYL PROPIONATE

>  <SYNONYMS>  (4086) 


>  <SPECTRUM TYPE>  (4086) 
MS1

>  <INSTRUMENT TYPE>  (4086) 
EI-B

>  <INSTRUMENT>  (4086) 
HITACHI M-80B

>  <ION MODE>  (4086) 
P

>  <INCHIKEY>  (4086) 
LGTLDEUQCOJGFP-WAYWQWQTSA-N

>  <FORMULA>  (4086) 
C9H16O2

>  <EXACT MASS>  (4086) 
156.115029752

>  <MW>  (4086) 
156

>  <ID>  (4086) 
JP006397

>  <CONTRIBUTOR>  (4086) 
University of Tokyo Team, {Faculty of Engineering, University of Tokyo

>  <COMMENT>  (4086) 
SMILES=CCC=CCCOC(=O)CC
InChI=InChI=1S/C9H16O2/c1-3-5-6-7-8-11-9(10)4-2/h5-6H,3-4,7-8H2,1-2H3/b6-5-
computed SMILES=O=C(OCCC=CCC)CC
accession=JP006397
date=2016.01.19 (Created 2008.10.21, modified 2011.05.06)
author=HISAHIRO HAGIWARA, CHEMICAL RESEARCH INSTITUTE OF NON-AQUEOUSSOLUTIONS TOHOKU UNIV.
license=CC BY-NC-SA
exact mass=156.11503
ionization energy=70 eV
ion type=[M]+*
computed spectral entropy=2.326336811067222
computed normalized entropy=0.714017152014752
SPLASH=splash10-0arr-9000000000-113566c588d8678c8221
submitter=submitter = University of Tokyo Team (Faculty of Engineering, University of Tokyo)
MoNA Rating=3.75

>  <NUM PEAKS>  (4086) 
26

>  <MASS SPECTRAL PEAKS>  (4086) 
26 1.67
27 18.94
28 3.6
29 46.47
30 1.09
31 1.87
39 13.21
40 1.54
41 21.27
42 2.86
43 1.37
51 1.31
53 5.13
54 8.97
55 11.56
56 1.44
57 99.99
58 2.93
65 1.28
67 79.76
68 5.33
69 1.34
81 5.78
82 67.99
83 6.07
87 1.35

$$$$

     RDKit          2D

 10  9  0  0  0  0  0  0  0  0999 V2000
   -7.4695    3.9375    0.0000 C   0  0  0  0  0  0  0  0  0  0  0  0
    1.6238    3.1875    0.0000 C   0  0  0  0  0  0  0  0  0  0  0  0
    0.3248    5.4375    0.0000 C   0  0  0  0  0  0  0  0  0  0  0  0
   -6.1704    3.1875    0.0000 C   0  0  0  0  0  0  0  0  0  0  0  0
   -0.9743    3.1875    0.0000 C   0  0  0  0  0  0  0  0  0  0  0  0
   -2.2733    3.9375    0.0000 C   0  0  0  0  0  0  0  0  0  0  0  0
    0.3248    3.9375    0.0000 C   0  0  0  0  0  0  0  0  0  0  0  0
   -4.8714    3.9375    0.0000 C   0  0  0  0  0  0  0  0  0  0  0  0
   -4.8714    5.4375    0.0000 O   0  0  0  0  0  0  0  0  0  0  0  0
   -3.5724    3.1875    0.0000 O   0  0  0  0  0  0  0  0  0  0  0  0
  4  1  1  0
  6  5  1  0
  7  2  1  0
  7  3  1  0
  7  5  1  0
  8  4  1  0
  9  8  2  0
 10  6  1  0
 10  8  1  0
M  END
>  <NAME>  (4087) 
ISOAMYL PROPIONATE

>  <SYNONYMS>  (4087) 
ISOPENTYL PROPIONATE

>  <SPECTRUM TYPE>  (4087) 
MS1

>  <INSTRUMENT TYPE>  (4087) 
EI-B

>  <INSTRUMENT>  (4087) 
HITACHI M-80B

>  <ION MODE>  (4087) 
P

>  <INCHIKEY>  (4087) 
XAOGXQMKWQFZEM-UHFFFAOYSA-N

>  <FORMULA>  (4087) 
C8H16O2

>  <EXACT MASS>  (4087) 
144.115029752

>  <MW>  (4087) 
144

>  <ID>  (4087) 
JP006396

>  <CONTRIBUTOR>  (4087) 
University of Tokyo Team, {Faculty of Engineering, University of Tokyo

>  <COMMENT>  (4087) 
SMILES=CCC(=O)OCCC(C)C
InChI=InChI=1S/C8H16O2/c1-4-8(9)10-6-5-7(2)3/h7H,4-6H2,1-3H3
computed SMILES=O=C(OCCC(C)C)CC
accession=JP006396
date=2016.01.19 (Created 2008.10.21, modified 2011.05.06)
author=HISAHIRO HAGIWARA, CHEMICAL RESEARCH INSTITUTE OF NON-AQUEOUSSOLUTIONS TOHOKU UNIV.
license=CC BY-NC-SA
exact mass=144.11503
ionization energy=70 eV
ion type=[M]+*
computed spectral entropy=2.5645260911665733
computed normalized entropy=0.7615980955189419
SPLASH=splash10-0adi-9000000000-d33d7fd534a8c6063d88
submitter=submitter = University of Tokyo Team (Faculty of Engineering, University of Tokyo)
MoNA Rating=3.75

>  <NUM PEAKS>  (4087) 
29

>  <MASS SPECTRAL PEAKS>  (4087) 
15 1.29
26 2.06
27 21.77
28 7.65
29 44.71
30 1.11
31 2.46
39 9.49
40 1.3
41 19.1
42 15.3
43 34.04
44 1.46
45 1.83
53 1.5
54 1.17
55 40.71
56 4.49
57 99.99
58 3.66
69 6.12
70 69.45
71 10.25
74 1.64
75 15.99
85 1.75
87 5.33
101 6.18
115 1.08

$$$$

     RDKit          2D

 10  9  0  0  0  0  0  0  0  0999 V2000
    2.5981    4.5000    0.0000 C   0  0  0  0  0  0  0  0  0  0  0  0
   -7.7942    4.5000    0.0000 C   0  0  0  0  0  0  0  0  0  0  0  0
    1.2990    5.2500    0.0000 C   0  0  0  0  0  0  0  0  0  0  0  0
   -6.4952    5.2500    0.0000 C   0  0  0  0  0  0  0  0  0  0  0  0
    0.0000    4.5000    0.0000 C   0  0  0  0  0  0  0  0  0  0  0  0
   -1.2990    5.2500    0.0000 C   0  0  0  0  0  0  0  0  0  0  0  0
   -2.5981    4.5000    0.0000 C   0  0  0  0  0  0  0  0  0  0  0  0
   -5.1962    4.5000    0.0000 C   0  0  0  0  0  0  0  0  0  0  0  0
   -5.1962    3.0000    0.0000 O   0  0  0  0  0  0  0  0  0  0  0  0
   -3.8971    5.2500    0.0000 O   0  0  0  0  0  0  0  0  0  0  0  0
  3  1  1  0
  4  2  1  0
  5  3  1  0
  6  5  1  0
  7  6  1  0
  8  4  1  0
  9  8  2  0
 10  7  1  0
 10  8  1  0
M  END
>  <NAME>  (4088) 
AMYL PROPIONATE

>  <SYNONYMS>  (4088) 
PENTYL PROPIONATE

>  <SPECTRUM TYPE>  (4088) 
MS1

>  <INSTRUMENT TYPE>  (4088) 
EI-B

>  <INSTRUMENT>  (4088) 
HITACHI M-80B

>  <ION MODE>  (4088) 
P

>  <INCHIKEY>  (4088) 
TWSRVQVEYJNFKQ-UHFFFAOYSA-N

>  <FORMULA>  (4088) 
C8H16O2

>  <EXACT MASS>  (4088) 
144.115029752

>  <MW>  (4088) 
144

>  <ID>  (4088) 
JP006395

>  <CONTRIBUTOR>  (4088) 
University of Tokyo Team, {Faculty of Engineering, University of Tokyo

>  <COMMENT>  (4088) 
SMILES=CCCCCOC(=O)CC
InChI=InChI=1S/C8H16O2/c1-3-5-6-7-10-8(9)4-2/h3-7H2,1-2H3
computed SMILES=O=C(OCCCCC)CC
accession=JP006395
date=2016.01.19 (Created 2008.10.21, modified 2011.05.06)
author=HISAHIRO HAGIWARA, CHEMICAL RESEARCH INSTITUTE OF NON-AQUEOUSSOLUTIONS TOHOKU UNIV.
license=CC BY-NC-SA
exact mass=144.11503
ionization energy=70 eV
ion type=[M]+*
computed spectral entropy=2.5260433754912506
computed normalized entropy=0.7753126238012642
SPLASH=splash10-0a6u-9000000000-11533b789e166ead320a
submitter=submitter = University of Tokyo Team (Faculty of Engineering, University of Tokyo)
MoNA Rating=3.75

>  <NUM PEAKS>  (4088) 
26

>  <MASS SPECTRAL PEAKS>  (4088) 
26 2
27 23.01
28 8.14
29 53.27
30 1.46
31 2.75
39 8.2
40 1.51
41 18.76
42 24.75
43 28.54
44 1.15
55 20.44
56 2.83
57 99.99
58 3.14
69 6.04
70 41.49
71 5.84
72 1.59
74 2.46
75 38.96
76 1.16
85 1.69
87 6.93
115 1.12

$$$$

     RDKit          2D

  9  8  0  0  0  0  0  0  0  0999 V2000
    1.5368    3.1373    0.0000 C   0  0  0  0  0  0  0  0  0  0  0  0
   -4.4094    4.4363    0.0000 C   0  0  0  0  0  0  0  0  0  0  0  0
   -4.9584    2.3873    0.0000 C   0  0  0  0  0  0  0  0  0  0  0  0
   -2.9094    1.8382    0.0000 C   0  0  0  0  0  0  0  0  0  0  0  0
    0.2377    3.8873    0.0000 C   0  0  0  0  0  0  0  0  0  0  0  0
   -1.0613    3.1373    0.0000 C   0  0  0  0  0  0  0  0  0  0  0  0
   -3.6594    3.1373    0.0000 C   0  0  0  0  0  0  0  0  0  0  0  0
   -1.0613    1.6373    0.0000 O   0  0  0  0  0  0  0  0  0  0  0  0
   -2.3603    3.8873    0.0000 O   0  0  0  0  0  0  0  0  0  0  0  0
  5  1  1  0
  6  5  1  0
  7  2  1  0
  7  3  1  0
  7  4  1  0
  8  6  2  0
  9  6  1  0
  9  7  1  0
M  END
>  <NAME>  (4089) 
TERT-BUTYL PROPIONATE

>  <SYNONYMS>  (4089) 


>  <SPECTRUM TYPE>  (4089) 
MS1

>  <INSTRUMENT TYPE>  (4089) 
EI-B

>  <INSTRUMENT>  (4089) 
HITACHI M-80B

>  <ION MODE>  (4089) 
P

>  <INCHIKEY>  (4089) 
JAELLLITIZHOGQ-UHFFFAOYSA-N

>  <FORMULA>  (4089) 
C7H14O2

>  <EXACT MASS>  (4089) 
130.099379688

>  <MW>  (4089) 
130

>  <ID>  (4089) 
JP006394

>  <CONTRIBUTOR>  (4089) 
University of Tokyo Team, {Faculty of Engineering, University of Tokyo

>  <COMMENT>  (4089) 
SMILES=CCC(=O)OC(C)(C)C
InChI=InChI=1S/C7H14O2/c1-5-6(8)9-7(2,3)4/h5H2,1-4H3
computed SMILES=O=C(OC(C)(C)C)CC
accession=JP006394
date=2016.01.19 (Created 2008.10.21, modified 2011.05.06)
author=HISAHIRO HAGIWARA, CHEMICAL RESEARCH INSTITUTE OF NON-AQUEOUSSOLUTIONS TOHOKU UNIV.
license=CC BY-NC-SA
exact mass=130.09938
ionization energy=70 eV
ion type=[M]+*
computed spectral entropy=2.0252323061899506
computed normalized entropy=0.6760391521193293
SPLASH=splash10-0a4i-9000000000-bb978c0b4f7eebf07aa0
submitter=submitter = University of Tokyo Team (Faculty of Engineering, University of Tokyo)
MoNA Rating=3.75

>  <NUM PEAKS>  (4089) 
20

>  <MASS SPECTRAL PEAKS>  (4089) 
15 1.45
26 1.78
27 8.77
29 26.04
31 6.72
32 1.84
39 3.28
41 14.16
42 1.7
43 4.67
45 3.69
46 1.2
55 1.7
56 11.91
57 99.99
58 3.82
59 3.3
75 4.6
102 1.35
115 8.41

$$$$

     RDKit          2D

  9  8  0  0  0  0  0  0  0  0999 V2000
    1.9486    3.3750    0.0000 C   0  0  0  0  0  0  0  0  0  0  0  0
   -5.8457    3.3750    0.0000 C   0  0  0  0  0  0  0  0  0  0  0  0
   -4.5466    5.6250    0.0000 C   0  0  0  0  0  0  0  0  0  0  0  0
    0.6495    4.1250    0.0000 C   0  0  0  0  0  0  0  0  0  0  0  0
   -3.2476    3.3750    0.0000 C   0  0  0  0  0  0  0  0  0  0  0  0
   -4.5466    4.1250    0.0000 C   0  0  0  0  0  0  0  0  0  0  0  0
   -0.6495    3.3750    0.0000 C   0  0  0  0  0  0  0  0  0  0  0  0
   -0.6495    1.8750    0.0000 O   0  0  0  0  0  0  0  0  0  0  0  0
   -1.9486    4.1250    0.0000 O   0  0  0  0  0  0  0  0  0  0  0  0
  4  1  1  0
  6  2  1  0
  6  3  1  0
  6  5  1  0
  7  4  1  0
  8  7  2  0
  9  5  1  0
  9  7  1  0
M  END
>  <NAME>  (4090) 
ISOBUTYL PROPIONATE

>  <SYNONYMS>  (4090) 


>  <SPECTRUM TYPE>  (4090) 
MS1

>  <INSTRUMENT TYPE>  (4090) 
EI-B

>  <INSTRUMENT>  (4090) 
HITACHI M-80B

>  <ION MODE>  (4090) 
P

>  <INCHIKEY>  (4090) 
FZXRXKLUIMKDEL-UHFFFAOYSA-N

>  <FORMULA>  (4090) 
C7H14O2

>  <EXACT MASS>  (4090) 
130.099379688

>  <MW>  (4090) 
130

>  <ID>  (4090) 
JP006393

>  <CONTRIBUTOR>  (4090) 
University of Tokyo Team, {Faculty of Engineering, University of Tokyo

>  <COMMENT>  (4090) 
SMILES=CCC(=O)OCC(C)C
InChI=InChI=1S/C7H14O2/c1-4-7(8)9-5-6(2)3/h6H,4-5H2,1-3H3
computed SMILES=O=C(OCC(C)C)CC
accession=JP006393
date=2016.01.19 (Created 2008.10.21, modified 2011.05.06)
author=HISAHIRO HAGIWARA, CHEMICAL RESEARCH INSTITUTE OF NON-AQUEOUSSOLUTIONS TOHOKU UNIV.
license=CC BY-NC-SA
exact mass=130.09938
ionization energy=70 eV
ion type=[M]+*
computed spectral entropy=1.9615393482412307
computed normalized entropy=0.6786460402135227
SPLASH=splash10-0a4i-9000000000-3034700b4ba8624cd760
submitter=submitter = University of Tokyo Team (Faculty of Engineering, University of Tokyo)
MoNA Rating=3.75

>  <NUM PEAKS>  (4090) 
18

>  <MASS SPECTRAL PEAKS>  (4090) 
26 1.56
27 10.05
29 27.64
30 1.35
31 2.32
39 4.32
41 11.87
42 2.05
43 3.74
55 1.92
56 29.3
57 99.99
58 3.55
71 2.61
73 2.31
74 1.5
75 6.66
87 8.94

$$$$

     RDKit          2D

  9  8  0  0  0  0  0  0  0  0999 V2000
   -6.4952    4.5000    0.0000 C   0  0  0  0  0  0  0  0  0  0  0  0
    2.5981    3.7500    0.0000 C   0  0  0  0  0  0  0  0  0  0  0  0
   -5.1962    3.7500    0.0000 C   0  0  0  0  0  0  0  0  0  0  0  0
    1.2990    4.5000    0.0000 C   0  0  0  0  0  0  0  0  0  0  0  0
   -3.8971    4.5000    0.0000 C   0  0  0  0  0  0  0  0  0  0  0  0
   -2.5981    3.7500    0.0000 C   0  0  0  0  0  0  0  0  0  0  0  0
    0.0000    3.7500    0.0000 C   0  0  0  0  0  0  0  0  0  0  0  0
   -0.0000    2.2500    0.0000 O   0  0  0  0  0  0  0  0  0  0  0  0
   -1.2990    4.5000    0.0000 O   0  0  0  0  0  0  0  0  0  0  0  0
  3  1  1  0
  4  2  1  0
  5  3  1  0
  6  5  1  0
  7  4  1  0
  8  7  2  0
  9  6  1  0
  9  7  1  0
M  END
>  <NAME>  (4091) 
BUTYL PROPIONATE

>  <SYNONYMS>  (4091) 


>  <SPECTRUM TYPE>  (4091) 
MS1

>  <INSTRUMENT TYPE>  (4091) 
EI-B

>  <INSTRUMENT>  (4091) 
HITACHI M-80B

>  <ION MODE>  (4091) 
P

>  <INCHIKEY>  (4091) 
BTMVHUNTONAYDX-UHFFFAOYSA-N

>  <FORMULA>  (4091) 
C7H14O2

>  <EXACT MASS>  (4091) 
130.099379688

>  <MW>  (4091) 
130

>  <ID>  (4091) 
JP006392

>  <CONTRIBUTOR>  (4091) 
University of Tokyo Team, {Faculty of Engineering, University of Tokyo

>  <COMMENT>  (4091) 
SMILES=CCCCOC(=O)CC
InChI=InChI=1S/C7H14O2/c1-3-5-6-9-7(8)4-2/h3-6H2,1-2H3
computed SMILES=O=C(OCCCC)CC
accession=JP006392
date=2016.01.19 (Created 2008.10.21, modified 2011.05.06)
author=HISAHIRO HAGIWARA, CHEMICAL RESEARCH INSTITUTE OF NON-AQUEOUSSOLUTIONS TOHOKU UNIV.
license=CC BY-NC-SA
exact mass=130.09938
ionization energy=70 eV
ion type=[M]+*
computed spectral entropy=2.2491460468364153
computed normalized entropy=0.7387516738152997
SPLASH=splash10-0a6r-9000000000-37f42e865be80a64a749
submitter=submitter = University of Tokyo Team (Faculty of Engineering, University of Tokyo)
MoNA Rating=3.75

>  <NUM PEAKS>  (4091) 
21

>  <MASS SPECTRAL PEAKS>  (4091) 
15 1.3
26 3.61
27 24.44
28 11.31
29 58.81
30 1.48
31 3.71
39 6.59
40 1.04
41 21.81
42 2.5
43 3.58
55 7.15
56 37.02
57 99.99
58 3.56
71 2.35
73 1.38
74 2.68
75 26.22
87 6.38

$$$$

     RDKit          2D

  8  7  0  0  0  0  0  0  0  0999 V2000
    1.6238    3.1875    0.0000 C   0  0  0  0  0  0  0  0  0  0  0  0
   -4.8714    3.9375    0.0000 C   0  0  0  0  0  0  0  0  0  0  0  0
   -3.5724    1.6875    0.0000 C   0  0  0  0  0  0  0  0  0  0  0  0
    0.3248    3.9375    0.0000 C   0  0  0  0  0  0  0  0  0  0  0  0
   -3.5724    3.1875    0.0000 C   0  0  0  0  0  0  0  0  0  0  0  0
   -0.9743    3.1875    0.0000 C   0  0  0  0  0  0  0  0  0  0  0  0
   -0.9743    1.6875    0.0000 O   0  0  0  0  0  0  0  0  0  0  0  0
   -2.2733    3.9375    0.0000 O   0  0  0  0  0  0  0  0  0  0  0  0
  4  1  1  0
  5  2  1  0
  5  3  1  0
  6  4  1  0
  7  6  2  0
  8  5  1  0
  8  6  1  0
M  END
>  <NAME>  (4092) 
ISOPROPYL PROPIONATE

>  <SYNONYMS>  (4092) 


>  <SPECTRUM TYPE>  (4092) 
MS1

>  <INSTRUMENT TYPE>  (4092) 
EI-B

>  <INSTRUMENT>  (4092) 
HITACHI M-80B

>  <ION MODE>  (4092) 
P

>  <INCHIKEY>  (4092) 
IJMWOMHMDSDKGK-UHFFFAOYSA-N

>  <FORMULA>  (4092) 
C6H12O2

>  <EXACT MASS>  (4092) 
116.083729624

>  <MW>  (4092) 
116

>  <ID>  (4092) 
JP006391

>  <CONTRIBUTOR>  (4092) 
University of Tokyo Team, {Faculty of Engineering, University of Tokyo

>  <COMMENT>  (4092) 
SMILES=CCC(=O)OC(C)C
InChI=InChI=1S/C6H12O2/c1-4-6(7)8-5(2)3/h5H,4H2,1-3H3
computed SMILES=O=C(OC(C)C)CC
accession=JP006391
date=2016.01.19 (Created 2008.10.21, modified 2011.05.06)
author=HISAHIRO HAGIWARA, CHEMICAL RESEARCH INSTITUTE OF NON-AQUEOUSSOLUTIONS TOHOKU UNIV.
license=CC BY-NC-SA
exact mass=116.08373
ionization energy=70 eV
ion type=[M]+*
computed spectral entropy=2.2268097539105978
computed normalized entropy=0.7433273572437162
SPLASH=splash10-0a6u-9000000000-1b0dedc2fda09e192985
submitter=submitter = University of Tokyo Team (Faculty of Engineering, University of Tokyo)
MoNA Rating=3.75

>  <NUM PEAKS>  (4092) 
20

>  <MASS SPECTRAL PEAKS>  (4092) 
15 2.43
26 2.99
27 19.45
28 4.37
29 28.73
31 1.39
39 7.18
41 17.05
42 6.62
43 60.85
44 2.42
45 3.71
55 1.11
56 1.11
57 99.99
58 3.14
59 10.01
74 3.76
75 27.67
101 9.82

$$$$

     RDKit          2D

  8  7  0  0  0  0  0  0  0  0999 V2000
    1.9486    3.3750    0.0000 C   0  0  0  0  0  0  0  0  0  0  0  0
   -5.8457    3.3750    0.0000 C   0  0  0  0  0  0  0  0  0  0  0  0
    0.6495    4.1250    0.0000 C   0  0  0  0  0  0  0  0  0  0  0  0
   -4.5466    4.1250    0.0000 C   0  0  0  0  0  0  0  0  0  0  0  0
   -0.6495    3.3750    0.0000 C   0  0  0  0  0  0  0  0  0  0  0  0
   -3.2476    3.3750    0.0000 C   0  0  0  0  0  0  0  0  0  0  0  0
   -3.2476    1.8750    0.0000 O   0  0  0  0  0  0  0  0  0  0  0  0
   -1.9486    4.1250    0.0000 O   0  0  0  0  0  0  0  0  0  0  0  0
  3  1  1  0
  4  2  1  0
  5  3  1  0
  6  4  1  0
  7  6  2  0
  8  5  1  0
  8  6  1  0
M  END
>  <NAME>  (4093) 
PROPYL PROPIONATE

>  <SYNONYMS>  (4093) 


>  <SPECTRUM TYPE>  (4093) 
MS1

>  <INSTRUMENT TYPE>  (4093) 
EI-B

>  <INSTRUMENT>  (4093) 
HITACHI M-80B

>  <ION MODE>  (4093) 
P

>  <INCHIKEY>  (4093) 
MCSINKKTEDDPNK-UHFFFAOYSA-N

>  <FORMULA>  (4093) 
C6H12O2

>  <EXACT MASS>  (4093) 
116.083729624

>  <MW>  (4093) 
116

>  <ID>  (4093) 
JP006390

>  <CONTRIBUTOR>  (4093) 
University of Tokyo Team, {Faculty of Engineering, University of Tokyo

>  <COMMENT>  (4093) 
SMILES=CCCOC(=O)CC
InChI=InChI=1S/C6H12O2/c1-3-5-8-6(7)4-2/h3-5H2,1-2H3
computed SMILES=O=C(OCCC)CC
accession=JP006390
date=2016.01.19 (Created 2008.10.21, modified 2011.05.06)
author=HISAHIRO HAGIWARA, CHEMICAL RESEARCH INSTITUTE OF NON-AQUEOUSSOLUTIONS TOHOKU UNIV.
license=CC BY-NC-SA
exact mass=116.08373
ionization energy=70 eV
ion type=[M]+*
computed spectral entropy=2.2867402856556667
computed normalized entropy=0.751099830082252
SPLASH=splash10-056r-9000000000-9a4b5d04bf6b06ff65da
submitter=submitter = University of Tokyo Team (Faculty of Engineering, University of Tokyo)
MoNA Rating=3.75

>  <NUM PEAKS>  (4093) 
21

>  <MASS SPECTRAL PEAKS>  (4093) 
15 1.89
26 4.75
27 31.9
28 9.78
29 49.79
30 2.01
31 6.49
39 5.72
40 1.06
41 14.85
42 10.41
43 27.1
55 1.11
56 1.75
57 99.99
58 3.78
59 5.76
74 2.65
75 35.02
76 1.07
87 6.58

$$$$

     RDKit          2D

  8  7  0  0  0  0  0  0  0  0999 V2000
    1.9486    3.3750    0.0000 C   0  0  0  0  0  0  0  0  0  0  0  0
   -5.8457    3.3750    0.0000 C   0  0  0  0  0  0  0  0  0  0  0  0
    0.6495    4.1250    0.0000 C   0  0  0  0  0  0  0  0  0  0  0  0
   -4.5466    4.1250    0.0000 C   0  0  0  0  0  0  0  0  0  0  0  0
   -0.6495    3.3750    0.0000 C   0  0  0  0  0  0  0  0  0  0  0  0
   -3.2476    3.3750    0.0000 C   0  0  0  0  0  0  0  0  0  0  0  0
   -3.2476    1.8750    0.0000 O   0  0  0  0  0  0  0  0  0  0  0  0
   -1.9486    4.1250    0.0000 O   0  0  0  0  0  0  0  0  0  0  0  0
  3  1  2  0
  4  2  1  0
  5  3  1  0
  6  4  1  0
  7  6  2  0
  8  5  1  0
  8  6  1  0
M  END
>  <NAME>  (4094) 
ALLYL PROPIONATE

>  <SYNONYMS>  (4094) 


>  <SPECTRUM TYPE>  (4094) 
MS1

>  <INSTRUMENT TYPE>  (4094) 
EI-B

>  <INSTRUMENT>  (4094) 
HITACHI M-80B

>  <ION MODE>  (4094) 
P

>  <INCHIKEY>  (4094) 
XRFWKHVQMACVTA-UHFFFAOYSA-N

>  <FORMULA>  (4094) 
C6H10O2

>  <EXACT MASS>  (4094) 
114.06807956

>  <MW>  (4094) 
114

>  <ID>  (4094) 
JP006389

>  <CONTRIBUTOR>  (4094) 
University of Tokyo Team, {Faculty of Engineering, University of Tokyo

>  <COMMENT>  (4094) 
SMILES=C=CCOC(=O)CC
InChI=InChI=1S/C6H10O2/c1-3-5-8-6(7)4-2/h3H,1,4-5H2,2H3
computed SMILES=O=C(OCC=C)CC
accession=JP006389
date=2016.01.19 (Created 2008.10.21, modified 2011.05.06)
author=HISAHIRO HAGIWARA, CHEMICAL RESEARCH INSTITUTE OF NON-AQUEOUSSOLUTIONS TOHOKU UNIV.
license=CC BY-NC-SA
exact mass=114.06808
ionization energy=70 eV
ion type=[M]+*
computed spectral entropy=1.8381235487487613
computed normalized entropy=0.6487769629509021
SPLASH=splash10-0a6r-9000000000-225ad4314e5a35c22f50
submitter=submitter = University of Tokyo Team (Faculty of Engineering, University of Tokyo)
MoNA Rating=3.75

>  <NUM PEAKS>  (4094) 
17

>  <MASS SPECTRAL PEAKS>  (4094) 
15 1.12
26 3.85
27 16.12
28 3.84
29 41.22
30 1.1
31 1.35
38 1.48
39 15.16
40 2.42
41 32.46
42 2.44
55 1.6
56 1.86
57 99.99
58 4.42
75 1.77

$$$$

     RDKit          2D

  7  6  0  0  0  0  0  0  0  0999 V2000
    1.9486    2.6250    0.0000 C   0  0  0  0  0  0  0  0  0  0  0  0
   -4.5466    3.3750    0.0000 C   0  0  0  0  0  0  0  0  0  0  0  0
    0.6495    3.3750    0.0000 C   0  0  0  0  0  0  0  0  0  0  0  0
   -3.2476    2.6250    0.0000 C   0  0  0  0  0  0  0  0  0  0  0  0
   -0.6495    2.6250    0.0000 C   0  0  0  0  0  0  0  0  0  0  0  0
   -0.6495    1.1250    0.0000 O   0  0  0  0  0  0  0  0  0  0  0  0
   -1.9486    3.3750    0.0000 O   0  0  0  0  0  0  0  0  0  0  0  0
  3  1  1  0
  4  2  1  0
  5  3  1  0
  6  5  2  0
  7  4  1  0
  7  5  1  0
M  END
>  <NAME>  (4095) 
ETHYL PROPIONATE

>  <SYNONYMS>  (4095) 


>  <SPECTRUM TYPE>  (4095) 
MS1

>  <INSTRUMENT TYPE>  (4095) 
EI-B

>  <INSTRUMENT>  (4095) 
HITACHI M-80B

>  <ION MODE>  (4095) 
P

>  <INCHIKEY>  (4095) 
FKRCODPIKNYEAC-UHFFFAOYSA-N

>  <FORMULA>  (4095) 
C5H10O2

>  <EXACT MASS>  (4095) 
102.06807956

>  <MW>  (4095) 
102

>  <ID>  (4095) 
JP006388

>  <CONTRIBUTOR>  (4095) 
University of Tokyo Team, {Faculty of Engineering, University of Tokyo

>  <COMMENT>  (4095) 
SMILES=CCOC(=O)CC
InChI=InChI=1S/C5H10O2/c1-3-5(6)7-4-2/h3-4H2,1-2H3
computed SMILES=O=C(OCC)CC
accession=JP006388
date=2016.01.19 (Created 2008.10.21, modified 2011.05.06)
author=HISAHIRO HAGIWARA, CHEMICAL RESEARCH INSTITUTE OF NON-AQUEOUSSOLUTIONS TOHOKU UNIV.
license=CC BY-NC-SA
exact mass=102.06808
ionization energy=70 eV
ion type=[M]+*
computed spectral entropy=2.2390717046681967
computed normalized entropy=0.714104874852938
SPLASH=splash10-056r-9000000000-962010cc2f770c6a5584
submitter=submitter = University of Tokyo Team (Faculty of Engineering, University of Tokyo)
MoNA Rating=3.75

>  <NUM PEAKS>  (4095) 
23

>  <MASS SPECTRAL PEAKS>  (4095) 
14 1.02
15 2.61
17 2.51
26 5.75
27 24.28
28 16.53
29 90.5
30 3.33
31 6.66
40 1.25
42 3.35
43 4.93
45 12.55
46 1.34
55 2.37
56 4.4
57 99.99
58 4.52
73 5.97
74 10.24
75 11.73
87 2.32
102 15.01

$$$$

     RDKit          2D

  6  5  0  0  0  0  0  0  0  0999 V2000
    1.2990    2.2500    0.0000 C   0  0  0  0  0  0  0  0  0  0  0  0
   -3.8971    2.2500    0.0000 C   0  0  0  0  0  0  0  0  0  0  0  0
    0.0000    3.0000    0.0000 C   0  0  0  0  0  0  0  0  0  0  0  0
   -1.2990    2.2500    0.0000 C   0  0  0  0  0  0  0  0  0  0  0  0
   -1.2990    0.7500    0.0000 O   0  0  0  0  0  0  0  0  0  0  0  0
   -2.5981    3.0000    0.0000 O   0  0  0  0  0  0  0  0  0  0  0  0
  3  1  1  0
  4  3  1  0
  5  4  2  0
  6  2  1  0
  6  4  1  0
M  END
>  <NAME>  (4096) 
METHYL PROPIONATE

>  <SYNONYMS>  (4096) 


>  <SPECTRUM TYPE>  (4096) 
MS1

>  <INSTRUMENT TYPE>  (4096) 
EI-B

>  <INSTRUMENT>  (4096) 
HITACHI M-80B

>  <ION MODE>  (4096) 
P

>  <INCHIKEY>  (4096) 
RJUFJBKOKNCXHH-UHFFFAOYSA-N

>  <FORMULA>  (4096) 
C4H8O2

>  <EXACT MASS>  (4096) 
88.052429496

>  <MW>  (4096) 
88

>  <ID>  (4096) 
JP006387

>  <CONTRIBUTOR>  (4096) 
University of Tokyo Team, {Faculty of Engineering, University of Tokyo

>  <COMMENT>  (4096) 
SMILES=CCC(=O)OC
InChI=InChI=1S/C4H8O2/c1-3-4(5)6-2/h3H2,1-2H3
computed SMILES=O=C(OC)CC
accession=JP006387
date=2016.01.19 (Created 2008.10.21, modified 2011.05.06)
author=HISAHIRO HAGIWARA, CHEMICAL RESEARCH INSTITUTE OF NON-AQUEOUSSOLUTIONS TOHOKU UNIV.
license=CC BY-NC-SA
exact mass=88.05243
ionization energy=70 eV
ion type=[M]+*
computed spectral entropy=2.3674284093197002
computed normalized entropy=0.7776025494132907
SPLASH=splash10-0a6r-9000000000-ce361e134e986a064bbb
submitter=submitter = University of Tokyo Team (Faculty of Engineering, University of Tokyo)
MoNA Rating=3.75

>  <NUM PEAKS>  (4096) 
21

>  <MASS SPECTRAL PEAKS>  (4096) 
15 13.79
17 3.09
18 12.57
26 7.12
27 22.15
28 12.87
29 69.64
30 2.57
31 7.58
32 2.94
42 5.24
43 3.59
45 8.22
55 4.57
56 4.59
57 99.99
58 4.71
59 32.03
87 3.62
88 38.44
89 2.13

$$$$

     RDKit          2D

 11 11  0  0  0  0  0  0  0  0999 V2000
   -1.6700   -0.9602    0.0000 C   0  0  0  0  0  0  0  0  0  0  0  0
   -0.3708   -1.7100    0.0000 C   0  0  0  0  0  0  0  0  0  0  0  0
    6.1262    0.5406    0.0000 C   0  0  0  0  0  0  0  0  0  0  0  0
    6.1262   -0.9594    0.0000 C   0  0  0  0  0  0  0  0  0  0  0  0
    4.8262    1.2906    0.0000 C   0  0  0  0  0  0  0  0  0  0  0  0
    4.8262   -1.7094    0.0000 C   0  0  0  0  0  0  0  0  0  0  0  0
    3.5262    0.5406    0.0000 C   0  0  0  0  0  0  0  0  0  0  0  0
    3.5262   -0.9594    0.0000 C   0  0  0  0  0  0  0  0  0  0  0  0
    0.9281   -0.9598    0.0000 C   0  0  0  0  0  0  0  0  0  0  0  0
    0.9278    0.5402    0.0000 O   0  0  0  0  0  0  0  0  0  0  0  0
    2.2272   -1.7096    0.0000 O   0  0  0  0  0  0  0  0  0  0  0  0
  2  1  1  0
  4  3  1  0
  5  3  1  0
  6  4  1  0
  7  5  1  0
  8  6  1  0
  8  7  1  0
  9  2  1  0
 10  9  2  0
 11  8  1  0
 11  9  1  0
M  END
>  <NAME>  (4097) 
CYCLOHEXYL PROPIONATE

>  <SYNONYMS>  (4097) 


>  <SPECTRUM TYPE>  (4097) 
MS1

>  <INSTRUMENT TYPE>  (4097) 
EI-B

>  <INSTRUMENT>  (4097) 
HITACHI M-80B

>  <ION MODE>  (4097) 
P

>  <INCHIKEY>  (4097) 
MAMMVUWCKMOLSG-UHFFFAOYSA-N

>  <FORMULA>  (4097) 
C9H16O2

>  <EXACT MASS>  (4097) 
156.115029752

>  <MW>  (4097) 
156

>  <ID>  (4097) 
JP006386

>  <CONTRIBUTOR>  (4097) 
University of Tokyo Team, {Faculty of Engineering, University of Tokyo

>  <COMMENT>  (4097) 
SMILES=CCC(=O)OC(C1)CCCC1
InChI=InChI=1S/C9H16O2/c1-2-9(10)11-8-6-4-3-5-7-8/h8H,2-7H2,1H3
computed SMILES=O=C(OC1CCCCC1)CC
accession=JP006386
date=2016.01.19 (Created 2008.10.21, modified 2011.05.06)
author=HISAHIRO HAGIWARA, CHEMICAL RESEARCH INSTITUTE OF NON-AQUEOUSSOLUTIONS TOHOKU UNIV.
license=CC BY-NC-SA
exact mass=156.11503
ionization energy=70 eV
ion type=[M]+*
computed spectral entropy=2.6377904151312577
computed normalized entropy=0.7833557098373068
SPLASH=splash10-0a7i-9000000000-20b7fe2b6db729446a95
submitter=submitter = University of Tokyo Team (Faculty of Engineering, University of Tokyo)
MoNA Rating=3.75

>  <NUM PEAKS>  (4097) 
29

>  <MASS SPECTRAL PEAKS>  (4097) 
26 1.62
27 19.64
28 4.32
29 44.25
39 11.68
40 1.47
41 22.09
42 4.75
43 3.68
44 2.01
53 3.93
54 14.93
55 28.39
56 4.19
57 99.99
58 3.54
67 42.03
68 2.04
72 4.58
74 1.65
75 26.61
79 1.2
81 10.27
82 64.12
83 25.2
84 1.36
99 3.35
113 1.58
127 1.2

$$$$

     RDKit          2D

 15 15  0  0  0  0  0  0  0  0999 V2000
   -5.4859    1.6696    0.0000 C   0  0  0  0  0  0  0  0  0  0  0  0
    3.6073   -3.5804    0.0000 C   0  0  0  0  0  0  0  0  0  0  0  0
    3.6078    0.9201    0.0000 C   0  0  0  0  0  0  0  0  0  0  0  0
   -4.1869    0.9196    0.0000 C   0  0  0  0  0  0  0  0  0  0  0  0
   -2.8879    1.6696    0.0000 C   0  0  0  0  0  0  0  0  0  0  0  0
   -1.5893   -0.5812    0.0000 C   0  0  0  0  0  0  0  0  0  0  0  0
   -0.2903   -1.3312    0.0000 C   0  0  0  0  0  0  0  0  0  0  0  0
   -0.2893    1.6705    0.0000 C   0  0  0  0  0  0  0  0  0  0  0  0
    2.3083   -2.8304    0.0000 C   0  0  0  0  0  0  0  0  0  0  0  0
   -1.5888    0.9196    0.0000 C   0  0  0  0  0  0  0  0  0  0  0  0
    1.0092   -0.5804    0.0000 C   0  0  0  0  0  0  0  0  0  0  0  0
    1.0097    0.9205    0.0000 C   0  0  0  0  0  0  0  0  0  0  0  0
    1.0092   -3.5804    0.0000 O   0  0  0  0  0  0  0  0  0  0  0  0
    2.3089    1.6703    0.0000 O   0  0  0  0  0  0  0  0  0  0  0  0
    2.3083   -1.3304    0.0000 O   0  0  0  0  0  0  0  0  0  0  0  0
  4  1  1  0
  4  5  2  0
  7  6  2  0
  9  2  1  0
 10  5  1  0
 10  6  1  0
 10  8  2  0
 11  7  1  0
 12  8  1  0
 12 11  2  0
 13  9  2  0
 14  3  1  0
 14 12  1  0
 15  9  1  0
 15 11  1  0
M  END
>  <NAME>  (4098) 
ISOEUGENYL ACETATE

>  <SYNONYMS>  (4098) 
4-(1-PROPENYL)-2-METHOXYPHENYL ACETATE

>  <SPECTRUM TYPE>  (4098) 
MS1

>  <INSTRUMENT TYPE>  (4098) 
EI-B

>  <INSTRUMENT>  (4098) 
HITACHI M-80B

>  <ION MODE>  (4098) 
P

>  <INCHIKEY>  (4098) 
IUSBVFZKQJGVEP-SNAWJCMRSA-N

>  <FORMULA>  (4098) 
C12H14O3

>  <EXACT MASS>  (4098) 
206.09429430799997

>  <MW>  (4098) 
206

>  <ID>  (4098) 
JP006385

>  <CONTRIBUTOR>  (4098) 
University of Tokyo Team, {Faculty of Engineering, University of Tokyo

>  <COMMENT>  (4098) 
SMILES=CC=Cc(c1)cc(OC)c(OC(C)=O)c1
InChI=InChI=1S/C12H14O3/c1-4-5-10-6-7-11(15-9(2)13)12(8-10)14-3/h4-8H,1-3H3/b5-4+
computed SMILES=O=C(OC1=CC=C(C=CC)C=C1OC)C
accession=JP006385
date=2016.01.19 (Created 2008.10.21, modified 2011.05.06)
author=HISAHIRO HAGIWARA, CHEMICAL RESEARCH INSTITUTE OF NON-AQUEOUSSOLUTIONS TOHOKU UNIV.
license=CC BY-NC-SA
exact mass=206.09429
ionization energy=70 eV
ion type=[M]+*
computed spectral entropy=2.8763814459344563
computed normalized entropy=0.7647509724177635
SPLASH=splash10-03di-5900000000-b016880787407ead4e15
submitter=submitter = University of Tokyo Team (Faculty of Engineering, University of Tokyo)
MoNA Rating=3.75

>  <NUM PEAKS>  (4098) 
43

>  <MASS SPECTRAL PEAKS>  (4098) 
15 3.51
18 2.61
27 1.62
39 5.03
40 1.31
41 2.08
42 1.27
43 22.79
50 1.79
51 4.14
52 1.75
53 2.28
55 5.65
63 3.12
64 1.17
65 5.36
66 1.78
77 10.04
78 2.75
79 3.61
89 1.71
91 14.72
92 1.94
93 1.46
102 1.01
103 9
104 5.93
105 2.92
107 3.32
115 2.02
121 5.25
131 9.14
132 2.57
133 6.32
137 1.86
147 1.55
149 17.14
150 1.73
163 3.16
164 99.99
165 10.22
206 9.59
207 1.31

$$$$

     RDKit          2D

 14 14  0  0  0  0  0  0  0  0999 V2000
   -3.5370    2.7954    0.0000 C   0  0  0  0  0  0  0  0  0  0  0  0
   -3.5374   -1.7051    0.0000 C   0  0  0  0  0  0  0  0  0  0  0  0
    1.6597   -0.2038    0.0000 C   0  0  0  0  0  0  0  0  0  0  0  0
    0.3606    0.5462    0.0000 C   0  0  0  0  0  0  0  0  0  0  0  0
    0.3597   -2.4555    0.0000 C   0  0  0  0  0  0  0  0  0  0  0  0
    2.9582   -2.4546    0.0000 C   0  0  0  0  0  0  0  0  0  0  0  0
   -2.2379    2.0454    0.0000 C   0  0  0  0  0  0  0  0  0  0  0  0
    1.6592   -1.7046    0.0000 C   0  0  0  0  0  0  0  0  0  0  0  0
   -0.9389   -0.2046    0.0000 C   0  0  0  0  0  0  0  0  0  0  0  0
   -0.9394   -1.7055    0.0000 C   0  0  0  0  0  0  0  0  0  0  0  0
    4.2573   -1.7046    0.0000 O   0  0  0  0  0  0  0  0  0  0  0  0
   -0.9389    2.7954    0.0000 O   0  0  0  0  0  0  0  0  0  0  0  0
   -2.2385   -2.4553    0.0000 O   0  0  0  0  0  0  0  0  0  0  0  0
   -2.2379    0.5454    0.0000 O   0  0  0  0  0  0  0  0  0  0  0  0
  4  3  2  0
  7  1  1  0
  8  3  1  0
  8  5  2  0
  8  6  1  0
  9  4  1  0
 10  5  1  0
 10  9  2  0
 11  6  2  0
 12  7  2  0
 13  2  1  0
 13 10  1  0
 14  7  1  0
 14  9  1  0
M  END
>  <NAME>  (4099) 
ACETYL VANILLIN

>  <SYNONYMS>  (4099) 
4-FORMYL-2-METHOXYPHENYL ACETATE

>  <SPECTRUM TYPE>  (4099) 
MS1

>  <INSTRUMENT TYPE>  (4099) 
EI-B

>  <INSTRUMENT>  (4099) 
HITACHI M-80B

>  <ION MODE>  (4099) 
P

>  <INCHIKEY>  (4099) 
PZSJOBKRSVRODF-UHFFFAOYSA-N

>  <FORMULA>  (4099) 
C10H10O4

>  <EXACT MASS>  (4099) 
194.0579088

>  <MW>  (4099) 
194

>  <ID>  (4099) 
JP006384

>  <CONTRIBUTOR>  (4099) 
University of Tokyo Team, {Faculty of Engineering, University of Tokyo

>  <COMMENT>  (4099) 
SMILES=O=Cc(c1)cc(OC)c(OC(C)=O)c1
InChI=InChI=1S/C10H10O4/c1-7(12)14-9-4-3-8(6-11)5-10(9)13-2/h3-6H,1-2H3
computed SMILES=O=CC1=CC=C(OC(=O)C)C(OC)=C1
accession=JP006384
date=2016.01.19 (Created 2008.10.21, modified 2011.05.06)
author=HISAHIRO HAGIWARA, CHEMICAL RESEARCH INSTITUTE OF NON-AQUEOUSSOLUTIONS TOHOKU UNIV.
license=CC BY-NC-SA
exact mass=194.05791
ionization energy=70 eV
ion type=[M]+*
computed spectral entropy=3.0037986994535584
computed normalized entropy=0.7530234927965531
SPLASH=splash10-0udi-9700000000-5aed2175866686c2f630
submitter=submitter = University of Tokyo Team (Faculty of Engineering, University of Tokyo)
MoNA Rating=3.75

>  <NUM PEAKS>  (4099) 
54

>  <MASS SPECTRAL PEAKS>  (4099) 
14 2.57
15 13.76
17 4.21
18 11.63
26 1.98
27 2.64
28 3.32
29 4.41
37 1.37
38 2.56
39 7.06
41 4.74
42 3.97
43 84.73
44 1.9
49 1.16
50 7.64
51 18.71
52 13.26
53 8.87
54 1.19
55 2.29
61 1.3
62 4.86
63 8
64 2.11
65 9.09
66 1.77
67 2.44
77 5.13
79 13.33
80 5.5
81 11.91
91 1.6
92 2.03
93 1.48
95 5.55
105 1.59
107 1.19
108 3.06
109 13.31
110 1.16
119 1.94
120 1.04
121 1.6
122 1.6
123 7.02
124 2.09
137 3.7
150 1.9
151 81.1
152 99.99
153 7.18
194 4.77

$$$$

     RDKit          2D

 14 15  0  0  0  0  0  0  0  0999 V2000
    7.1462    0.6231    0.0000 C   0  0  0  0  0  0  0  0  0  0  0  0
    1.9500   -0.9000    0.0000 C   0  0  0  0  0  0  0  0  0  0  0  0
    0.6300   -1.6600    0.0000 C   0  0  0  0  0  0  0  0  0  0  0  0
    0.6300    1.3800    0.0000 C   0  0  0  0  0  0  0  0  0  0  0  0
    3.2486    1.3708    0.0000 C   0  0  0  0  0  0  0  0  0  0  0  0
   -2.9400   -0.2300    0.0000 C   0  0  0  0  0  0  0  0  0  0  0  0
    5.8467    1.3723    0.0000 C   0  0  0  0  0  0  0  0  0  0  0  0
    1.9500    0.6200    0.0000 C   0  0  0  0  0  0  0  0  0  0  0  0
   -0.6600   -0.9000    0.0000 C   0  0  0  0  0  0  0  0  0  0  0  0
   -0.6600    0.6200    0.0000 C   0  0  0  0  0  0  0  0  0  0  0  0
    5.8458    2.8723    0.0000 O   0  0  0  0  0  0  0  0  0  0  0  0
    4.5481    0.6216    0.0000 O   0  0  0  0  0  0  0  0  0  0  0  0
   -2.0600   -1.3400    0.0000 O   0  0  0  0  0  0  0  0  0  0  0  0
   -2.0900    1.0600    0.0000 O   0  0  0  0  0  0  0  0  0  0  0  0
  3  2  2  0
  7  1  1  0
  8  2  1  0
  8  4  2  0
  8  5  1  0
  9  3  1  0
 10  4  1  0
 10  9  2  0
 11  7  2  0
 12  5  1  0
 12  7  1  0
 13  6  1  0
 13  9  1  0
 14  6  1  0
 14 10  1  0
M  END
>  <NAME>  (4100) 
HELIOTROPYL ACETATE

>  <SYNONYMS>  (4100) 
3,4-METHYLENEDIOXYBENZYL ACETATE

>  <SPECTRUM TYPE>  (4100) 
MS1

>  <INSTRUMENT TYPE>  (4100) 
EI-B

>  <INSTRUMENT>  (4100) 
HITACHI M-80B

>  <ION MODE>  (4100) 
P

>  <INCHIKEY>  (4100) 
PFWYHTORQZAGCA-UHFFFAOYSA-N

>  <FORMULA>  (4100) 
C10H10O4

>  <EXACT MASS>  (4100) 
194.0579088

>  <MW>  (4100) 
194

>  <ID>  (4100) 
JP006383

>  <CONTRIBUTOR>  (4100) 
University of Tokyo Team, {Faculty of Engineering, University of Tokyo

>  <COMMENT>  (4100) 
SMILES=CC(=O)OCc(c1)cc(O2)c(OC2)c1
InChI=InChI=1S/C10H10O4/c1-7(11)12-5-8-2-3-9-10(4-8)14-6-13-9/h2-4H,5-6H2,1H3
computed SMILES=O=C(OCC1=CC=C2OCOC2=C1)C
accession=JP006383
exact mass=194.05791
date=2016.01.19 (Created 2008.10.21, modified 2011.05.06)
author=HISAHIRO HAGIWARA, CHEMICAL RESEARCH INSTITUTE OF NON-AQUEOUSSOLUTIONS TOHOKU UNIV.
license=CC BY-NC-SA
ionization energy=70 eV
ion type=[M]+*
computed spectral entropy=2.9594241607445357
computed normalized entropy=0.791783240088442
SPLASH=splash10-0f76-4900000000-92da8e820031602709c7
submitter=submitter = University of Tokyo Team (Faculty of Engineering, University of Tokyo)
MoNA Rating=3.75

>  <NUM PEAKS>  (4100) 
42

>  <MASS SPECTRAL PEAKS>  (4100) 
15 3.05
27 1.2
29 2.27
38 2.09
39 7.93
42 1.45
43 28.89
50 5.94
51 18.96
52 1.68
53 2.78
62 2.72
63 8.13
64 2.07
65 14.25
66 1.87
67 3.12
74 1.3
75 1.22
76 13.01
77 22.65
78 3.36
79 5.02
91 1.34
93 11.2
94 2.18
104 10.45
105 10.1
106 1.34
121 3.5
122 10.86
123 4.94
134 38.48
135 99.99
136 9.21
149 4.45
150 1.54
151 7.52
152 56.02
153 4.44
194 63.59
195 7.24

$$$$

     RDKit          2D

 13 13  0  0  0  0  0  0  0  0999 V2000
    8.7242    0.5412    0.0000 C   0  0  0  0  0  0  0  0  0  0  0  0
   -1.6700   -0.9600    0.0000 C   0  0  0  0  0  0  0  0  0  0  0  0
   -1.6700    0.5400    0.0000 C   0  0  0  0  0  0  0  0  0  0  0  0
   -0.3700   -1.7100    0.0000 C   0  0  0  0  0  0  0  0  0  0  0  0
   -0.3700    1.2900    0.0000 C   0  0  0  0  0  0  0  0  0  0  0  0
    0.9300   -0.9600    0.0000 C   0  0  0  0  0  0  0  0  0  0  0  0
    4.8270    1.2906    0.0000 C   0  0  0  0  0  0  0  0  0  0  0  0
    3.5281    0.5404    0.0000 C   0  0  0  0  0  0  0  0  0  0  0  0
    7.4251    1.2910    0.0000 C   0  0  0  0  0  0  0  0  0  0  0  0
    0.9300    0.5400    0.0000 C   0  0  0  0  0  0  0  0  0  0  0  0
    7.4248    2.7910    0.0000 O   0  0  0  0  0  0  0  0  0  0  0  0
    6.1262    0.5408    0.0000 O   0  0  0  0  0  0  0  0  0  0  0  0
    2.2289    1.2902    0.0000 O   0  0  0  0  0  0  0  0  0  0  0  0
  3  2  2  0
  4  2  1  0
  5  3  1  0
  6  4  2  0
  8  7  1  0
  9  1  1  0
 10  5  2  0
 10  6  1  0
 11  9  2  0
 12  7  1  0
 12  9  1  0
 13  8  1  0
 13 10  1  0
M  END
>  <NAME>  (4101) 
PHENOXYETHYL ACETATE

>  <SYNONYMS>  (4101) 


>  <SPECTRUM TYPE>  (4101) 
MS1

>  <INSTRUMENT TYPE>  (4101) 
EI-B

>  <INSTRUMENT>  (4101) 
HITACHI M-80B

>  <ION MODE>  (4101) 
P

>  <INCHIKEY>  (4101) 
WHFKYDMBUMLWDA-UHFFFAOYSA-N

>  <FORMULA>  (4101) 
C10H12O3

>  <EXACT MASS>  (4101) 
180.078644244

>  <MW>  (4101) 
180

>  <ID>  (4101) 
JP006382

>  <CONTRIBUTOR>  (4101) 
University of Tokyo Team, {Faculty of Engineering, University of Tokyo

>  <COMMENT>  (4101) 
SMILES=CC(=O)OCCOc(c1)cccc1
InChI=InChI=1S/C10H12O3/c1-9(11)12-7-8-13-10-5-3-2-4-6-10/h2-6H,7-8H2,1H3
computed SMILES=O=C(OCCOC=1C=CC=CC1)C
accession=JP006382
date=2016.01.19 (Created 2008.10.21, modified 2011.05.06)
author=HISAHIRO HAGIWARA, CHEMICAL RESEARCH INSTITUTE OF NON-AQUEOUSSOLUTIONS TOHOKU UNIV.
license=CC BY-NC-SA
exact mass=180.07864
ionization energy=70 eV
ion type=[M]+*
computed spectral entropy=2.2131759513917504
computed normalized entropy=0.6572561673028414
SPLASH=splash10-000f-9000000000-aeb613bc8d646115d43d
submitter=submitter = University of Tokyo Team (Faculty of Engineering, University of Tokyo)
MoNA Rating=3.75

>  <NUM PEAKS>  (4101) 
29

>  <MASS SPECTRAL PEAKS>  (4101) 
15 7.07
18 1.85
27 2.72
28 1.92
29 1.58
38 1.59
39 10.22
40 1.08
42 2.17
43 99.99
44 2.15
45 1.17
50 2.49
51 11.58
63 2.08
64 1.03
65 9.2
66 2.99
77 20.6
78 1.77
79 2.29
87 77.86
88 2.75
91 2.73
94 15.22
95 1.24
107 2.52
120 2.01
180 2.38

$$$$

     RDKit          2D

 14 14  0  0  0  0  0  0  0  0999 V2000
   -1.5890   -3.5800    0.0000 C   0  0  0  0  0  0  0  0  0  0  0  0
    1.0090   -3.5800    0.0000 C   0  0  0  0  0  0  0  0  0  0  0  0
   -0.2900    3.1700    0.0000 C   0  0  0  0  0  0  0  0  0  0  0  0
    4.9070   -1.3306    0.0000 C   0  0  0  0  0  0  0  0  0  0  0  0
   -1.5900    0.9200    0.0000 C   0  0  0  0  0  0  0  0  0  0  0  0
   -1.5900   -0.5800    0.0000 C   0  0  0  0  0  0  0  0  0  0  0  0
    1.0100    0.9200    0.0000 C   0  0  0  0  0  0  0  0  0  0  0  0
   -0.2900   -2.8300    0.0000 C   0  0  0  0  0  0  0  0  0  0  0  0
   -0.2900    1.6700    0.0000 C   0  0  0  0  0  0  0  0  0  0  0  0
    3.6081   -0.5804    0.0000 C   0  0  0  0  0  0  0  0  0  0  0  0
   -0.2900   -1.3300    0.0000 C   0  0  0  0  0  0  0  0  0  0  0  0
    1.0100   -0.5800    0.0000 C   0  0  0  0  0  0  0  0  0  0  0  0
    3.6083    0.9196    0.0000 O   0  0  0  0  0  0  0  0  0  0  0  0
    2.3089   -1.3302    0.0000 O   0  0  0  0  0  0  0  0  0  0  0  0
  6  5  2  0
  8  1  1  0
  8  2  1  0
  9  3  1  0
  9  5  1  0
  9  7  2  0
 10  4  1  0
 11  6  1  0
 11  8  1  0
 12  7  1  0
 12 11  2  0
 13 10  2  0
 14 10  1  0
 14 12  1  0
M  END
>  <NAME>  (4102) 
THYMYL ACETATE

>  <SYNONYMS>  (4102) 
2-ISOPROPYL-5-METHYLPHENYL ACETATE

>  <SPECTRUM TYPE>  (4102) 
MS1

>  <INSTRUMENT TYPE>  (4102) 
EI-B

>  <INSTRUMENT>  (4102) 
HITACHI M-80B

>  <ION MODE>  (4102) 
P

>  <INCHIKEY>  (4102) 
WFMIUXMJJBBOGJ-UHFFFAOYSA-N

>  <FORMULA>  (4102) 
C12H16O2

>  <EXACT MASS>  (4102) 
192.115029752

>  <MW>  (4102) 
192

>  <ID>  (4102) 
JP006381

>  <CONTRIBUTOR>  (4102) 
University of Tokyo Team, {Faculty of Engineering, University of Tokyo

>  <COMMENT>  (4102) 
SMILES=CC(=O)Oc(c1)c(ccc(C)1)C(C)C
InChI=InChI=1S/C12H16O2/c1-8(2)11-6-5-9(3)7-12(11)14-10(4)13/h5-8H,1-4H3
computed SMILES=O=C(OC1=CC(=CC=C1C(C)C)C)C
accession=JP006381
date=2016.01.19 (Created 2008.10.21, modified 2011.05.06)
author=HISAHIRO HAGIWARA, CHEMICAL RESEARCH INSTITUTE OF NON-AQUEOUSSOLUTIONS TOHOKU UNIV.
license=CC BY-NC-SA
exact mass=192.11503
ionization energy=70 eV
ion type=[M]+*
computed spectral entropy=2.683424274375556
computed normalized entropy=0.7488238015372838
SPLASH=splash10-000i-5900000000-c9c451f1aab6c0104b9e
submitter=submitter = University of Tokyo Team (Faculty of Engineering, University of Tokyo)
MoNA Rating=3.75

>  <NUM PEAKS>  (4102) 
36

>  <MASS SPECTRAL PEAKS>  (4102) 
15 5.75
18 2.89
27 3.96
28 1.44
39 6.75
41 5.52
42 1.3
43 25.81
51 3.6
52 1.35
53 3.27
55 1.24
63 2.01
65 4.86
77 9.07
78 3.59
79 4.73
89 1.16
91 16.35
92 1.34
103 1.9
105 5.87
107 3.09
109 1.37
115 6.44
116 1.98
117 3.36
121 3.61
133 1.74
134 3
135 99.99
136 9.81
149 2.01
150 33.91
151 3.86
192 7.75

$$$$

     RDKit          2D

 14 15  0  0  0  0  0  0  0  0999 V2000
    6.1370    1.3606    0.0000 C   0  0  0  0  0  0  0  0  0  0  0  0
   -2.9500   -0.8900    0.0000 C   0  0  0  0  0  0  0  0  0  0  0  0
   -2.9500    0.6100    0.0000 C   0  0  0  0  0  0  0  0  0  0  0  0
   -1.6500   -1.6400    0.0000 C   0  0  0  0  0  0  0  0  0  0  0  0
   -1.6500    1.3600    0.0000 C   0  0  0  0  0  0  0  0  0  0  0  0
    0.9400   -1.6400    0.0000 C   0  0  0  0  0  0  0  0  0  0  0  0
    2.2400   -0.8900    0.0000 C   0  0  0  0  0  0  0  0  0  0  0  0
    0.9400    1.3600    0.0000 C   0  0  0  0  0  0  0  0  0  0  0  0
    4.8381    0.6104    0.0000 C   0  0  0  0  0  0  0  0  0  0  0  0
   -0.3500   -0.8900    0.0000 C   0  0  0  0  0  0  0  0  0  0  0  0
   -0.3500    0.6100    0.0000 C   0  0  0  0  0  0  0  0  0  0  0  0
    2.2400    0.6100    0.0000 C   0  0  0  0  0  0  0  0  0  0  0  0
    4.8383   -0.8896    0.0000 O   0  0  0  0  0  0  0  0  0  0  0  0
    3.5389    1.3602    0.0000 O   0  0  0  0  0  0  0  0  0  0  0  0
  3  2  2  0
  4  2  1  0
  5  3  1  0
  7  6  2  0
  9  1  1  0
 10  4  2  0
 10  6  1  0
 11  5  2  0
 11  8  1  0
 11 10  1  0
 12  7  1  0
 12  8  2  0
 13  9  2  0
 14  9  1  0
 14 12  1  0
M  END
>  <NAME>  (4103) 
2-NAPHTHYL ACETATE

>  <SYNONYMS>  (4103) 


>  <SPECTRUM TYPE>  (4103) 
MS1

>  <INSTRUMENT TYPE>  (4103) 
EI-B

>  <INSTRUMENT>  (4103) 
HITACHI M-80B

>  <ION MODE>  (4103) 
P

>  <INCHIKEY>  (4103) 
RJNPPEUAJCEUPV-UHFFFAOYSA-N

>  <FORMULA>  (4103) 
C12H10O2

>  <EXACT MASS>  (4103) 
186.06807956

>  <MW>  (4103) 
186

>  <ID>  (4103) 
JP006380

>  <CONTRIBUTOR>  (4103) 
University of Tokyo Team, {Faculty of Engineering, University of Tokyo

>  <COMMENT>  (4103) 
SMILES=CC(=O)Oc(c1)cc(c2)c(ccc2)c1
InChI=InChI=1S/C12H10O2/c1-9(13)14-12-7-6-10-4-2-3-5-11(10)8-12/h2-8H,1H3
computed SMILES=O=C(OC=1C=CC=2C=CC=CC2C1)C
accession=JP006380
date=2016.01.19 (Created 2008.10.21, modified 2011.05.06)
author=HISAHIRO HAGIWARA, CHEMICAL RESEARCH INSTITUTE OF NON-AQUEOUSSOLUTIONS TOHOKU UNIV.
license=CC BY-NC-SA
exact mass=186.06808
ionization energy=70 eV
ion type=[M]+*
computed spectral entropy=2.32285408677751
computed normalized entropy=0.6829518625709213
SPLASH=splash10-0006-3900000000-143edcd4b01a6380fed7
submitter=submitter = University of Tokyo Team (Faculty of Engineering, University of Tokyo)
MoNA Rating=3.75

>  <NUM PEAKS>  (4103) 
30

>  <MASS SPECTRAL PEAKS>  (4103) 
15 5.55
18 2.07
39 3.43
42 1.96
43 22.42
50 2.23
51 2.2
62 3.15
63 7.57
64 1.33
65 3.87
74 1.82
75 2.23
76 1.27
77 1.04
86 1.21
87 1.97
88 2.37
89 6.46
113 2.05
114 3.05
115 46.77
116 9.01
126 1.38
127 1.84
143 1.54
144 99.99
145 9.23
186 10.49
187 1.56

$$$$

     RDKit          2D

 13 13  0  0  0  0  0  0  0  0999 V2000
   -6.8197    3.1321    0.0000 C   0  0  0  0  0  0  0  0  0  0  0  0
    3.5726    1.6321    0.0000 C   0  0  0  0  0  0  0  0  0  0  0  0
    3.5731    3.1329    0.0000 C   0  0  0  0  0  0  0  0  0  0  0  0
    2.2731    0.8813    0.0000 C   0  0  0  0  0  0  0  0  0  0  0  0
   -1.6236    3.1321    0.0000 C   0  0  0  0  0  0  0  0  0  0  0  0
    2.2740    3.8829    0.0000 C   0  0  0  0  0  0  0  0  0  0  0  0
    0.9740    1.6313    0.0000 C   0  0  0  0  0  0  0  0  0  0  0  0
   -0.3245    3.8821    0.0000 C   0  0  0  0  0  0  0  0  0  0  0  0
   -2.9226    3.8821    0.0000 C   0  0  0  0  0  0  0  0  0  0  0  0
   -5.5207    3.8821    0.0000 C   0  0  0  0  0  0  0  0  0  0  0  0
    0.9745    3.1321    0.0000 C   0  0  0  0  0  0  0  0  0  0  0  0
   -5.5207    5.3821    0.0000 O   0  0  0  0  0  0  0  0  0  0  0  0
   -4.2216    3.1321    0.0000 O   0  0  0  0  0  0  0  0  0  0  0  0
  3  2  2  0
  4  2  1  0
  6  3  1  0
  7  4  2  0
  8  5  1  0
  9  5  1  0
 10  1  1  0
 11  6  2  0
 11  7  1  0
 11  8  1  0
 12 10  2  0
 13  9  1  0
 13 10  1  0
M  END
>  <NAME>  (4104) 
3-PHENYLPROPYL ACETATE

>  <SYNONYMS>  (4104) 


>  <SPECTRUM TYPE>  (4104) 
MS1

>  <INSTRUMENT TYPE>  (4104) 
EI-B

>  <INSTRUMENT>  (4104) 
HITACHI M-80B

>  <ION MODE>  (4104) 
P

>  <INCHIKEY>  (4104) 
JRJGKUTZNBZHNK-UHFFFAOYSA-N

>  <FORMULA>  (4104) 
C11H14O2

>  <EXACT MASS>  (4104) 
178.099379688

>  <MW>  (4104) 
178

>  <ID>  (4104) 
JP006379

>  <CONTRIBUTOR>  (4104) 
University of Tokyo Team, {Faculty of Engineering, University of Tokyo

>  <COMMENT>  (4104) 
SMILES=CC(=O)OCCCc(c1)cccc1
InChI=InChI=1S/C11H14O2/c1-10(12)13-9-5-8-11-6-3-2-4-7-11/h2-4,6-7H,5,8-9H2,1H3
computed SMILES=O=C(OCCCC=1C=CC=CC1)C
accession=JP006379
date=2016.01.19 (Created 2008.10.21, modified 2011.05.06)
author=HISAHIRO HAGIWARA, CHEMICAL RESEARCH INSTITUTE OF NON-AQUEOUSSOLUTIONS TOHOKU UNIV.
license=CC BY-NC-SA
exact mass=178.09938
ionization energy=70 eV
ion type=[M]+*
computed spectral entropy=2.403645020884643
computed normalized entropy=0.7138205676732293
SPLASH=splash10-014l-6900000000-37831f4980d74f7589d5
submitter=submitter = University of Tokyo Team (Faculty of Engineering, University of Tokyo)
MoNA Rating=3.75

>  <NUM PEAKS>  (4104) 
29

>  <MASS SPECTRAL PEAKS>  (4104) 
15 4.1
27 2.7
28 1.74
29 1.17
39 7.97
41 2.62
42 1.46
43 53.1
44 1.03
50 2.09
51 7.57
52 1.73
63 3.24
65 9.89
77 10.06
78 6.46
79 4.88
89 2.04
90 1.36
91 44.26
92 5.98
103 6.75
104 3.29
105 9.67
115 3.75
116 3.43
117 90.37
118 99.99
119 9.04

$$$$

     RDKit          2D

 13 13  0  0  0  0  0  0  0  0999 V2000
   -6.8197    3.1321    0.0000 C   0  0  0  0  0  0  0  0  0  0  0  0
   -5.5207    3.8821    0.0000 C   0  0  0  0  0  0  0  0  0  0  0  0
    3.5726    1.6321    0.0000 C   0  0  0  0  0  0  0  0  0  0  0  0
    3.5731    3.1329    0.0000 C   0  0  0  0  0  0  0  0  0  0  0  0
    2.2731    0.8813    0.0000 C   0  0  0  0  0  0  0  0  0  0  0  0
    2.2740    3.8829    0.0000 C   0  0  0  0  0  0  0  0  0  0  0  0
    0.9740    1.6313    0.0000 C   0  0  0  0  0  0  0  0  0  0  0  0
   -4.2216    3.1321    0.0000 C   0  0  0  0  0  0  0  0  0  0  0  0
   -0.3245    3.8821    0.0000 C   0  0  0  0  0  0  0  0  0  0  0  0
    0.9745    3.1321    0.0000 C   0  0  0  0  0  0  0  0  0  0  0  0
   -1.6236    3.1321    0.0000 C   0  0  0  0  0  0  0  0  0  0  0  0
   -1.6236    1.6321    0.0000 O   0  0  0  0  0  0  0  0  0  0  0  0
   -2.9226    3.8821    0.0000 O   0  0  0  0  0  0  0  0  0  0  0  0
  2  1  2  0
  4  3  2  0
  5  3  1  0
  6  4  1  0
  7  5  2  0
  8  2  1  0
 10  6  2  0
 10  7  1  0
 10  9  1  0
 11  9  1  0
 12 11  2  0
 13  8  1  0
 13 11  1  0
M  END
>  <NAME>  (4105) 
ALLYL PHENYLACETATE

>  <SYNONYMS>  (4105) 


>  <SPECTRUM TYPE>  (4105) 
MS1

>  <INSTRUMENT TYPE>  (4105) 
EI-B

>  <INSTRUMENT>  (4105) 
HITACHI M-80B

>  <ION MODE>  (4105) 
P

>  <INCHIKEY>  (4105) 
ZCDYAMJXVAUTIM-UHFFFAOYSA-N

>  <FORMULA>  (4105) 
C11H12O2

>  <EXACT MASS>  (4105) 
176.083729624

>  <MW>  (4105) 
176

>  <ID>  (4105) 
JP006378

>  <CONTRIBUTOR>  (4105) 
University of Tokyo Team, {Faculty of Engineering, University of Tokyo

>  <COMMENT>  (4105) 
SMILES=C=CCOC(=O)Cc(c1)cccc1
InChI=InChI=1S/C11H12O2/c1-2-8-13-11(12)9-10-6-4-3-5-7-10/h2-7H,1,8-9H2
computed SMILES=O=C(OCC=C)CC=1C=CC=CC1
accession=JP006378
date=2016.01.19 (Created 2008.10.21, modified 2011.05.06)
author=HISAHIRO HAGIWARA, CHEMICAL RESEARCH INSTITUTE OF NON-AQUEOUSSOLUTIONS TOHOKU UNIV.
license=CC BY-NC-SA
exact mass=176.08373
ionization energy=70 eV
ion type=[M]+*
computed spectral entropy=1.8696219902549038
computed normalized entropy=0.6349671375374153
SPLASH=splash10-0006-9000000000-10bb6fc9d1f1d1892d00
submitter=submitter = University of Tokyo Team (Faculty of Engineering, University of Tokyo)
MoNA Rating=3.75

>  <NUM PEAKS>  (4105) 
19

>  <MASS SPECTRAL PEAKS>  (4105) 
18 1.23
27 2.88
28 1.51
29 1.47
38 1.5
39 15.45
40 1.41
41 26.22
50 1.15
51 3.2
62 1.04
63 4.44
64 1.25
65 13.69
89 3.69
90 2.8
91 99.99
92 10.76
176 6.2

$$$$

     RDKit          2D

 12 12  0  0  0  0  0  0  0  0999 V2000
   -5.8454    3.6946    0.0000 C   0  0  0  0  0  0  0  0  0  0  0  0
    3.2478    1.4446    0.0000 C   0  0  0  0  0  0  0  0  0  0  0  0
    3.2483    2.9454    0.0000 C   0  0  0  0  0  0  0  0  0  0  0  0
    1.9483    0.6938    0.0000 C   0  0  0  0  0  0  0  0  0  0  0  0
    1.9493    3.6954    0.0000 C   0  0  0  0  0  0  0  0  0  0  0  0
    0.6493    1.4438    0.0000 C   0  0  0  0  0  0  0  0  0  0  0  0
   -0.6493    3.6946    0.0000 C   0  0  0  0  0  0  0  0  0  0  0  0
   -1.9483    2.9446    0.0000 C   0  0  0  0  0  0  0  0  0  0  0  0
   -4.5464    2.9446    0.0000 C   0  0  0  0  0  0  0  0  0  0  0  0
    0.6498    2.9446    0.0000 C   0  0  0  0  0  0  0  0  0  0  0  0
   -4.5464    1.4446    0.0000 O   0  0  0  0  0  0  0  0  0  0  0  0
   -3.2474    3.6946    0.0000 O   0  0  0  0  0  0  0  0  0  0  0  0
  3  2  2  0
  4  2  1  0
  5  3  1  0
  6  4  2  0
  8  7  1  0
  9  1  1  0
 10  5  2  0
 10  6  1  0
 10  7  1  0
 11  9  2  0
 12  8  1  0
 12  9  1  0
M  END
>  <NAME>  (4106) 
PHENYLETHYL ACETATE

>  <SYNONYMS>  (4106) 


>  <SPECTRUM TYPE>  (4106) 
MS1

>  <INSTRUMENT TYPE>  (4106) 
EI-B

>  <INSTRUMENT>  (4106) 
HITACHI M-80B

>  <ION MODE>  (4106) 
P

>  <INCHIKEY>  (4106) 
MDHYEMXUFSJLGV-UHFFFAOYSA-N

>  <FORMULA>  (4106) 
C10H12O2

>  <EXACT MASS>  (4106) 
164.083729624

>  <MW>  (4106) 
164

>  <ID>  (4106) 
JP006377

>  <CONTRIBUTOR>  (4106) 
University of Tokyo Team, {Faculty of Engineering, University of Tokyo

>  <COMMENT>  (4106) 
SMILES=CC(=O)OCCc(c1)cccc1
InChI=InChI=1S/C10H12O2/c1-9(11)12-8-7-10-5-3-2-4-6-10/h2-6H,7-8H2,1H3
computed SMILES=O=C(OCCC=1C=CC=CC1)C
accession=JP006377
date=2016.01.19 (Created 2008.10.21, modified 2011.05.06)
author=HISAHIRO HAGIWARA, CHEMICAL RESEARCH INSTITUTE OF NON-AQUEOUSSOLUTIONS TOHOKU UNIV.
license=CC BY-NC-SA
exact mass=164.08373
ionization energy=70 eV
ion type=[M]+*
computed spectral entropy=2.0255832000404266
computed normalized entropy=0.6653205031246476
SPLASH=splash10-0f6x-9600000000-aeee3186e3cf069e2ea0
submitter=submitter = University of Tokyo Team (Faculty of Engineering, University of Tokyo)
MoNA Rating=3.75

>  <NUM PEAKS>  (4106) 
21

>  <MASS SPECTRAL PEAKS>  (4106) 
15 4.24
27 2.03
39 6.51
41 1.26
42 1.18
43 81.56
44 1.54
50 2.01
51 6.46
52 1.54
63 3.38
65 9.61
77 6.75
78 6.35
79 2.58
89 1.81
91 20.17
92 3.81
103 6.44
104 99.99
105 11.8

$$$$

     RDKit          2D

  8  8  0  0  0  0  0  0  0  0999 V2000
   -1.4636    1.3774    0.0000 C   0  0  0  0  0  0  0  0  0  0  0  0
   -0.6043   -2.4006    0.0000 C   0  0  0  0  0  0  0  0  0  0  0  0
    0.7714   -1.7978    0.0000 C   0  0  0  0  0  0  0  0  0  0  0  0
   -0.8541    0.0068    0.0000 C   0  0  0  0  0  0  0  0  0  0  0  0
   -1.6041   -1.2923    0.0000 C   0  0  0  0  0  0  0  0  0  0  0  0
    0.6057   -0.3049    0.0000 C   0  0  0  0  0  0  0  0  0  0  0  0
   -3.0958   -1.4497    0.0000 O   0  0  0  0  0  0  0  0  0  0  0  0
    1.7179    0.7016    0.0000 O   0  0  0  0  0  0  0  0  0  0  0  0
  3  2  1  0
  4  1  1  0
  5  2  1  0
  5  4  1  0
  6  3  1  0
  6  4  1  0
  7  5  2  0
  8  6  2  0
M  END
>  <NAME>  (4107) 
2-METHYL-1,3-CYCLOPENTANEDIONE

>  <SYNONYMS>  (4107) 


>  <SPECTRUM TYPE>  (4107) 
MS1

>  <INSTRUMENT TYPE>  (4107) 
EI-B

>  <INSTRUMENT>  (4107) 
JEOL JMS-DX-300

>  <ION MODE>  (4107) 
P

>  <INCHIKEY>  (4107) 
HXZILEQYFQYQCE-UHFFFAOYSA-N

>  <FORMULA>  (4107) 
C6H8O2

>  <EXACT MASS>  (4107) 
112.052429496

>  <MW>  (4107) 
112

>  <ID>  (4107) 
JP006376

>  <CONTRIBUTOR>  (4107) 
University of Tokyo Team, {Faculty of Engineering, University of Tokyo

>  <COMMENT>  (4107) 
SMILES=O=C(C1)C(C)C(=O)C1
cas=765-69-5
InChI=InChI=1S/C6H8O2/c1-4-5(7)2-3-6(4)8/h4H,2-3H2,1H3
computed SMILES=O=C1CCC(=O)C1C
accession=JP006376
date=2016.01.19 (Created 2008.10.21, modified 2011.05.06)
author=HISAHIRO HAGIWARA, CHEMICAL RESEARCH INSTITUTE OF NON-AQUEOUSSOLUTIONS TOHOKU UNIV.
license=CC BY-NC-SA
exact mass=112.05243
ionization energy=70 eV
ion type=[M]+*
computed spectral entropy=2.8872810242592992
computed normalized entropy=0.8120951800847745
SPLASH=splash10-0bu0-9200000000-2c67f4d6f117219533ac
submitter=submitter = University of Tokyo Team (Faculty of Engineering, University of Tokyo)
MoNA Rating=3.75

>  <NUM PEAKS>  (4107) 
35

>  <MASS SPECTRAL PEAKS>  (4107) 
31 2.83
32 49.87
37 1.18
38 2.19
39 13.13
40 5.78
41 17.88
42 10.27
43 29.36
44 4.83
45 1.7
50 1.89
51 2.66
52 1.97
53 8.79
54 5.75
55 47.3
56 55.92
57 20.13
58 4.51
63 1.24
65 4.29
66 5.01
67 5.77
68 1.25
69 18.78
70 13.41
82 1.09
83 45.83
84 9.04
85 6.45
97 3.56
111 16.57
112 99.99
113 7.78

$$$$

     RDKit          2D

  8  8  0  0  0  0  0  0  0  0999 V2000
   -1.4636    1.3774    0.0000 C   0  0  0  0  0  0  0  0  0  0  0  0
   -0.6043   -2.4006    0.0000 C   0  0  0  0  0  0  0  0  0  0  0  0
    0.7714   -1.7978    0.0000 C   0  0  0  0  0  0  0  0  0  0  0  0
   -0.8541    0.0068    0.0000 C   0  0  0  0  0  0  0  0  0  0  0  0
   -1.6041   -1.2923    0.0000 C   0  0  0  0  0  0  0  0  0  0  0  0
    0.6057   -0.3049    0.0000 C   0  0  0  0  0  0  0  0  0  0  0  0
   -3.0958   -1.4497    0.0000 O   0  0  0  0  0  0  0  0  0  0  0  0
    1.7179    0.7016    0.0000 O   0  0  0  0  0  0  0  0  0  0  0  0
  3  2  1  0
  4  1  1  0
  5  2  1  0
  5  4  1  0
  6  3  1  0
  6  4  1  0
  7  5  2  0
  8  6  2  0
M  END
>  <NAME>  (4108) 
2-METHYL-1,3-CYCLOPENTANEDIONE

>  <SYNONYMS>  (4108) 


>  <SPECTRUM TYPE>  (4108) 
MS1

>  <INSTRUMENT TYPE>  (4108) 
EI-B

>  <INSTRUMENT>  (4108) 
JEOL JMS-DX-300

>  <ION MODE>  (4108) 
P

>  <INCHIKEY>  (4108) 
HXZILEQYFQYQCE-UHFFFAOYSA-N

>  <FORMULA>  (4108) 
C6H8O2

>  <EXACT MASS>  (4108) 
112.052429496

>  <MW>  (4108) 
112

>  <ID>  (4108) 
JP006375

>  <CONTRIBUTOR>  (4108) 
University of Tokyo Team, {Faculty of Engineering, University of Tokyo

>  <COMMENT>  (4108) 
SMILES=O=C(C1)C(C)C(=O)C1
cas=765-69-5
InChI=InChI=1S/C6H8O2/c1-4-5(7)2-3-6(4)8/h4H,2-3H2,1H3
computed SMILES=O=C1CCC(=O)C1C
accession=JP006375
date=2016.01.19 (Created 2008.10.21, modified 2011.05.06)
author=HISAHIRO HAGIWARA, CHEMICAL RESEARCH INSTITUTE OF NON-AQUEOUSSOLUTIONS TOHOKU UNIV.
license=CC BY-NC-SA
exact mass=112.05243
ionization energy=70 eV
ion type=[M]+*
computed spectral entropy=2.8872810242592992
computed normalized entropy=0.8120951800847745
SPLASH=splash10-0bu0-9200000000-2c67f4d6f117219533ac
submitter=submitter = University of Tokyo Team (Faculty of Engineering, University of Tokyo)
MoNA Rating=3.75

>  <NUM PEAKS>  (4108) 
35

>  <MASS SPECTRAL PEAKS>  (4108) 
31 2.83
32 49.87
37 1.18
38 2.19
39 13.13
40 5.78
41 17.88
42 10.27
43 29.36
44 4.83
45 1.7
50 1.89
51 2.66
52 1.97
53 8.79
54 5.75
55 47.3
56 55.92
57 20.13
58 4.51
63 1.24
65 4.29
66 5.01
67 5.77
68 1.25
69 18.78
70 13.41
82 1.09
83 45.83
84 9.04
85 6.45
97 3.56
111 16.57
112 99.99
113 7.78

$$$$

     RDKit          2D

  6  6  0  0  0  0  0  0  0  0999 V2000
    2.5300    1.2990    0.0000 C   0  0  0  0  0  0  0  0  0  0  0  0
   -1.0200   -0.7500    0.0000 C   0  0  0  0  0  0  0  0  0  0  0  0
   -1.0200    0.7500    0.0000 C   0  0  0  0  0  0  0  0  0  0  0  0
    1.7800   -0.0000    0.0000 C   0  0  0  0  0  0  0  0  0  0  0  0
    0.2800    0.0000    0.0000 C   0  0  0  0  0  0  0  0  0  0  0  0
    2.5300   -1.2990    0.0000 O   0  0  0  0  0  0  0  0  0  0  0  0
  3  2  1  0
  4  1  1  0
  5  2  1  0
  5  3  1  0
  5  4  1  0
  6  4  2  0
M  END
>  <NAME>  (4109) 
CYCLOPROPYL METHYL KETONE

>  <SYNONYMS>  (4109) 


>  <SPECTRUM TYPE>  (4109) 
MS1

>  <INSTRUMENT TYPE>  (4109) 
EI-B

>  <INSTRUMENT>  (4109) 
JEOL JMS-DX-300

>  <ION MODE>  (4109) 
P

>  <INCHIKEY>  (4109) 
HVCFCNAITDHQFX-UHFFFAOYSA-N

>  <FORMULA>  (4109) 
C5H8O

>  <EXACT MASS>  (4109) 
84.057514876

>  <MW>  (4109) 
84

>  <ID>  (4109) 
JP006374

>  <CONTRIBUTOR>  (4109) 
University of Tokyo Team, {Faculty of Engineering, University of Tokyo

>  <COMMENT>  (4109) 
SMILES=CC(=O)C(C1)C1
cas=765-43-5
InChI=InChI=1S/C5H8O/c1-4(6)5-2-3-5/h5H,2-3H2,1H3
computed SMILES=O=C(C)C1CC1
accession=JP006374
date=2016.01.19 (Created 2008.10.21, modified 2011.05.06)
author=HISAHIRO HAGIWARA, CHEMICAL RESEARCH INSTITUTE OF NON-AQUEOUSSOLUTIONS TOHOKU UNIV.
license=CC BY-NC-SA
exact mass=84.05751
ionization energy=70 eV
ion type=[M]+*
computed spectral entropy=1.863638324516379
computed normalized entropy=0.6721654421975992
SPLASH=splash10-00kf-9000000000-230b5cc14d7e85f79544
submitter=submitter = University of Tokyo Team (Faculty of Engineering, University of Tokyo)
MoNA Rating=3.75

>  <NUM PEAKS>  (4109) 
16

>  <MASS SPECTRAL PEAKS>  (4109) 
37 1.55
38 3.69
39 25.79
40 1.06
41 55.23
42 7.82
43 99.99
44 1.68
51 1.05
53 1.63
55 2.35
69 77.81
70 3.85
83 3.79
84 27.25
85 1.74

$$$$

     RDKit          2D

 13 13  0  0  0  0  0  0  0  0999 V2000
    3.9079    3.6547    0.0000 C   0  0  0  0  0  0  0  0  0  0  0  0
   -2.9868   -0.3245    0.0000 C   0  0  0  0  0  0  0  0  0  0  0  0
    4.1682    2.1774    0.0000 C   0  0  0  0  0  0  0  0  0  0  0  0
   -1.5772    0.1882    0.0000 C   0  0  0  0  0  0  0  0  0  0  0  0
    2.8802   -2.5270    0.0000 C   0  0  0  0  0  0  0  0  0  0  0  0
    1.3794   -2.5274    0.0000 C   0  0  0  0  0  0  0  0  0  0  0  0
    3.2794   -0.2639    0.0000 C   0  0  0  0  0  0  0  0  0  0  0  0
    0.9813   -0.2635    0.0000 C   0  0  0  0  0  0  0  0  0  0  0  0
    2.1302   -1.2279    0.0000 C   0  0  0  0  0  0  0  0  0  0  0  0
    4.6888   -0.7770    0.0000 O   0  0  0  0  0  0  0  0  0  0  0  0
    1.2421    1.2137    0.0000 O   0  0  0  0  0  0  0  0  0  0  0  0
    3.0190    1.2134    0.0000 O   0  0  0  0  0  0  0  0  0  0  0  0
   -0.4283   -0.7762    0.0000 O   0  0  0  0  0  0  0  0  0  0  0  0
  3  1  1  0
  4  2  1  0
  6  5  1  0
  9  5  1  0
  9  6  1  0
  9  7  1  0
  9  8  1  0
 10  7  2  0
 11  8  2  0
 12  3  1  0
 12  7  1  0
 13  4  1  0
 13  8  1  0
M  END
>  <NAME>  (4110) 
DIETHYL 1,1-CYCLOPROPANEDICARBOXYLATE

>  <SYNONYMS>  (4110) 


>  <SPECTRUM TYPE>  (4110) 
MS1

>  <INSTRUMENT TYPE>  (4110) 
EI-B

>  <INSTRUMENT>  (4110) 
JEOL JMS-DX-300

>  <ION MODE>  (4110) 
P

>  <INCHIKEY>  (4110) 
KYYUCZOHNYSLFV-UHFFFAOYSA-N

>  <FORMULA>  (4110) 
C9H14O4

>  <EXACT MASS>  (4110) 
186.089208928

>  <MW>  (4110) 
186

>  <ID>  (4110) 
JP006373

>  <CONTRIBUTOR>  (4110) 
University of Tokyo Team, {Faculty of Engineering, University of Tokyo

>  <COMMENT>  (4110) 
SMILES=CCOC(=O)C(C1)(C1)C(=O)OCC
cas=1559-02-0
InChI=InChI=1S/C9H14O4/c1-3-12-7(10)9(5-6-9)8(11)13-4-2/h3-6H2,1-2H3
computed SMILES=O=C(OCC)C1(C(=O)OCC)CC1
accession=JP006373
date=2016.01.19 (Created 2008.10.21, modified 2011.05.06)
author=HISAHIRO HAGIWARA, CHEMICAL RESEARCH INSTITUTE OF NON-AQUEOUSSOLUTIONS TOHOKU UNIV.
license=CC BY-NC-SA
exact mass=186.08921
ionization energy=70 eV
ion type=[M]+*
computed spectral entropy=2.9475294318977006
computed normalized entropy=0.7937181180150225
SPLASH=splash10-03dl-3900000000-386aa6d0ba2304031463
submitter=submitter = University of Tokyo Team (Faculty of Engineering, University of Tokyo)
MoNA Rating=3.75

>  <NUM PEAKS>  (4110) 
41

>  <MASS SPECTRAL PEAKS>  (4110) 
30 1.18
31 2.33
39 10.71
40 9.01
41 14.92
42 1.66
45 6.52
53 2.12
54 1.97
55 1.97
57 2.04
59 1.21
67 1.71
68 11.61
69 11.04
71 1.19
82 7.14
83 1.47
84 5.38
85 10.98
86 17.09
87 1.57
95 12.05
96 1.72
97 5
99 3
111 1.25
112 48.25
113 60.9
114 23.55
129 1.09
130 43.39
131 4.76
140 4.78
141 99.99
142 10.52
143 1.82
158 27.07
159 22
160 2.43
186 5.37

$$$$

     RDKit          2D

 12 12  0  0  0  0  0  0  0  0999 V2000
   -2.2500   -1.3000    0.0000 C   0  0  0  0  0  0  0  0  0  0  0  0
   -1.3000   -2.2500    0.0000 C   0  0  0  0  0  0  0  0  0  0  0  0
   -2.2500    1.3000    0.0000 C   0  0  0  0  0  0  0  0  0  0  0  0
   -1.3000    2.2500    0.0000 C   0  0  0  0  0  0  0  0  0  0  0  0
    1.3000   -2.2500    0.0000 C   0  0  0  0  0  0  0  0  0  0  0  0
    2.2500   -1.3000    0.0000 C   0  0  0  0  0  0  0  0  0  0  0  0
    1.3000    2.2500    0.0000 C   0  0  0  0  0  0  0  0  0  0  0  0
    2.2500    1.3000    0.0000 C   0  0  0  0  0  0  0  0  0  0  0  0
   -1.5000   -0.0000    0.0000 O   0  0  0  0  0  0  0  0  0  0  0  0
    0.0000   -1.5000    0.0000 O   0  0  0  0  0  0  0  0  0  0  0  0
    0.0000    1.5000    0.0000 O   0  0  0  0  0  0  0  0  0  0  0  0
    1.5000   -0.0000    0.0000 O   0  0  0  0  0  0  0  0  0  0  0  0
  2  1  1  0
  4  3  1  0
  6  5  1  0
  8  7  1  0
  9  1  1  0
  9  3  1  0
 10  2  1  0
 10  5  1  0
 11  4  1  0
 11  7  1  0
 12  6  1  0
 12  8  1  0
M  END
>  <NAME>  (4111) 
1,4,7,10-TETRAOXACYCLODODECANE

>  <SYNONYMS>  (4111) 
12-CROWN-4

>  <SPECTRUM TYPE>  (4111) 
MS1

>  <INSTRUMENT TYPE>  (4111) 
EI-B

>  <INSTRUMENT>  (4111) 
JEOL JMS-DX-300

>  <ION MODE>  (4111) 
P

>  <INCHIKEY>  (4111) 
XQQZRZQVBFHBHL-UHFFFAOYSA-N

>  <FORMULA>  (4111) 
C8H16O4

>  <EXACT MASS>  (4111) 
176.104858992

>  <MW>  (4111) 
176

>  <ID>  (4111) 
JP006372

>  <CONTRIBUTOR>  (4111) 
University of Tokyo Team, {Faculty of Engineering, University of Tokyo

>  <COMMENT>  (4111) 
SMILES=C(C1)OCCOCCOCCO1
InChI=InChI=1S/C8H16O4/c1-2-10-5-6-12-8-7-11-4-3-9-1/h1-8H2
computed SMILES=O1CCOCCOCCOCC1
accession=JP006372
date=2016.01.19 (Created 2008.10.21, modified 2011.05.06)
author=HISAHIRO HAGIWARA, CHEMICAL RESEARCH INSTITUTE OF NON-AQUEOUSSOLUTIONS TOHOKU UNIV.
license=CC BY-NC-SA
exact mass=176.10486
ionization energy=70 eV
ion type=[M]+*
computed spectral entropy=3.1851667612342194
computed normalized entropy=0.7984907244684556
SPLASH=splash10-0ac9-9100000000-0491cee54d834aaf2e40
submitter=submitter = University of Tokyo Team (Faculty of Engineering, University of Tokyo)
MoNA Rating=3.75

>  <NUM PEAKS>  (4111) 
54

>  <MASS SPECTRAL PEAKS>  (4111) 
30 19.19
31 90.49
32 2.47
33 2.36
40 1.14
41 17.17
42 71.48
46 22.18
51 2
54 1.19
55 1.41
56 9.77
57 63.73
58 90.49
59 83.8
60 5.59
61 9.86
62 1.78
63 1.14
69 3.24
70 24.47
71 18.31
72 91.2
73 99.99
74 16.55
75 31.87
76 1.61
85 1.47
86 20.07
87 94.01
88 53.52
90 8.14
91 1.14
92 2.11
99 2.71
100 2.91
101 22.18
102 14.79
103 12.5
104 8.63
105 1.76
107 1.54
113 1.01
114 1.54
115 2.49
117 12.54
118 1.74
119 3.68
128 1.5
132 1.45
133 33.1
134 3.48
175 1.08
177 11.29

$$$$

     RDKit          2D

  5  4  0  0  0  0  0  0  0  0999 V2000
   -3.8971    2.2500    0.0000 C   0  0  0  0  0  0  0  0  0  0  0  0
   -2.5981    1.5000    0.0000 C   0  0  0  0  0  0  0  0  0  0  0  0
   -1.2990    2.2500    0.0000 C   0  0  0  0  0  0  0  0  0  0  0  0
    0.0000    1.5000    0.0000 C   0  0  0  0  0  0  0  0  0  0  0  0
    1.2990    2.2500    0.0000 Br  0  0  0  0  0  0  0  0  0  0  0  0
  2  1  2  0
  3  2  1  0
  4  3  1  0
  5  4  1  0
M  END
>  <NAME>  (4112) 
4-BROMO-1-BUTENE

>  <SYNONYMS>  (4112) 


>  <SPECTRUM TYPE>  (4112) 
MS1

>  <INSTRUMENT TYPE>  (4112) 
EI-B

>  <INSTRUMENT>  (4112) 
JEOL JMS-DX-300

>  <ION MODE>  (4112) 
P

>  <INCHIKEY>  (4112) 
DMAYBPBPEUFIHJ-UHFFFAOYSA-N

>  <FORMULA>  (4112) 
C4H7Br

>  <EXACT MASS>  (4112) 
133.973112324

>  <MW>  (4112) 
134

>  <ID>  (4112) 
JP006371

>  <CONTRIBUTOR>  (4112) 
University of Tokyo Team, {Faculty of Engineering, University of Tokyo

>  <COMMENT>  (4112) 
SMILES=C=CCCBr
cas=5162-44-7
InChI=InChI=1S/C4H7Br/c1-2-3-4-5/h2H,1,3-4H2
computed SMILES=BrCCC=C
accession=JP006371
date=2016.01.19 (Created 2008.10.21, modified 2011.05.06)
author=HISAHIRO HAGIWARA, CHEMICAL RESEARCH INSTITUTE OF NON-AQUEOUSSOLUTIONS TOHOKU UNIV.
license=CC BY-NC-SA
exact mass=133.97311
ionization energy=70 eV
ion type=[M]+*
computed spectral entropy=2.0034957548790038
computed normalized entropy=0.6580656887446495
SPLASH=splash10-0a4l-9000000000-7c322d509c7148c3f242
submitter=submitter = University of Tokyo Team (Faculty of Engineering, University of Tokyo)
MoNA Rating=3.75

>  <NUM PEAKS>  (4112) 
21

>  <MASS SPECTRAL PEAKS>  (4112) 
37 1.97
38 3.13
39 17.74
40 1.35
41 15.46
42 7.63
43 99.27
44 2.16
50 1.64
53 5.92
54 3.41
55 99.99
56 5.26
57 1.53
58 48.37
59 1.62
80 1.93
82 1.85
108 1.45
134 6.16
136 5.97

$$$$

     RDKit          2D

 13 14  0  0  0  0  0  0  0  0999 V2000
    1.3000   -3.0000    0.0000 C   0  0  0  0  0  0  0  0  0  0  0  0
    0.0000    2.2500    0.0000 C   0  0  0  0  0  0  0  0  0  0  0  0
   -2.6000   -0.7500    0.0000 C   0  0  0  0  0  0  0  0  0  0  0  0
   -2.6000    0.7500    0.0000 C   0  0  0  0  0  0  0  0  0  0  0  0
   -1.3000   -1.5000    0.0000 C   0  0  0  0  0  0  0  0  0  0  0  0
    2.6000    0.7500    0.0000 C   0  0  0  0  0  0  0  0  0  0  0  0
   -1.3000    1.5000    0.0000 C   0  0  0  0  0  0  0  0  0  0  0  0
    1.3000    1.5000    0.0000 C   0  0  0  0  0  0  0  0  0  0  0  0
    1.3000   -1.5000    0.0000 C   0  0  0  0  0  0  0  0  0  0  0  0
    0.0000   -0.7500    0.0000 C   0  0  0  0  0  0  0  0  0  0  0  0
    2.6000   -0.7500    0.0000 C   0  0  0  0  0  0  0  0  0  0  0  0
    0.0000    0.7500    0.0000 C   0  0  0  0  0  0  0  0  0  0  0  0
    3.8989   -1.5002    0.0000 O   0  0  0  0  0  0  0  0  0  0  0  0
  4  3  1  0
  5  3  1  0
  7  4  1  0
  8  6  1  0
  9  1  1  0
 10  5  1  0
 10  9  2  0
 11  6  1  0
 11  9  1  0
 12  2  1  0
 12  7  1  0
 12  8  1  0
 12 10  1  0
 13 11  2  0
M  END
>  <NAME>  (4113) 
4,4A,5,6,7,8-HEXAHYDRO-1,4A-DIMETHYL-2(3H)-NAPHTHALENONE

>  <SYNONYMS>  (4113) 


>  <SPECTRUM TYPE>  (4113) 
MS1

>  <INSTRUMENT TYPE>  (4113) 
EI-B

>  <INSTRUMENT>  (4113) 
JEOL JMS-DX-300

>  <ION MODE>  (4113) 
P

>  <INCHIKEY>  (4113) 
WNVZKCBLUKHUBI-UHFFFAOYSA-N

>  <FORMULA>  (4113) 
C12H18O

>  <EXACT MASS>  (4113) 
178.135765196

>  <MW>  (4113) 
178

>  <ID>  (4113) 
JP006370

>  <CONTRIBUTOR>  (4113) 
University of Tokyo Team, {Faculty of Engineering, University of Tokyo

>  <COMMENT>  (4113) 
SMILES=O=C(C1)C(C)=C(C2)C(C)(CCC2)C1
InChI=InChI=1S/C12H18O/c1-9-10-5-3-4-7-12(10,2)8-6-11(9)13/h3-8H2,1-2H3
computed SMILES=O=C1C(=C2CCCCC2(C)CC1)C
accession=JP006370
date=2016.01.19 (Created 2008.10.21, modified 2011.05.06)
author=HISAHIRO HAGIWARA, CHEMICAL RESEARCH INSTITUTE OF NON-AQUEOUSSOLUTIONS TOHOKU UNIV.
license=CC BY-NC-SA
exact mass=178.13577
ionization energy=70 eV
ion type=[M]+*
computed spectral entropy=3.7098476823872275
computed normalized entropy=0.9344017425328603
SPLASH=splash10-052f-8900000000-f7d6d70a8da1dc7bd160
submitter=submitter = University of Tokyo Team (Faculty of Engineering, University of Tokyo)
MoNA Rating=3.75

>  <NUM PEAKS>  (4113) 
53

>  <MASS SPECTRAL PEAKS>  (4113) 
39 17.33
41 27.96
42 5.92
43 99.99
53 12.52
55 35.67
57 14.6
58 27.19
65 8.33
67 27.82
68 5.47
69 11.97
77 16.34
79 27.6
80 5.54
81 20.13
83 6.99
91 22.34
93 34
94 8.32
95 19.64
97 6.45
105 14.6
107 31.92
108 9.6
109 35.67
110 14.52
111 14.65
112 13.96
119 9.05
121 32.78
122 11.37
123 18.35
124 7.73
133 13.66
135 32.38
136 32.16
137 21.85
138 8.16
139 5.06
147 6.62
149 16.51
150 9.19
151 11.71
161 6.18
163 23.4
164 5.36
165 7.31
166 6.92
176 6.41
177 25.6
178 3.53
179 9.26

$$$$

     RDKit          2D

 13 14  0  0  1  0  0  0  0  0999 V2000
   -1.0100   -3.0000    0.0000 C   0  0  0  0  0  0  0  0  0  0  0  0
    0.4487    2.2416    0.0000 C   0  0  0  0  0  0  0  0  0  0  0  0
    1.7200   -1.2100    0.0000 C   0  0  0  0  0  0  0  0  0  0  0  0
    2.6000    0.0000    0.0000 C   0  0  0  0  0  0  0  0  0  0  0  0
   -2.3100    0.7500    0.0000 C   0  0  0  0  0  0  0  0  0  0  0  0
   -1.0100    1.5000    0.0000 C   0  0  0  0  0  0  0  0  0  0  0  0
   -1.0100   -1.5000    0.0000 C   0  0  0  0  0  0  0  0  0  0  0  0
    0.2900   -0.7500    0.0000 C   0  0  0  0  0  0  0  0  0  0  0  0
   -2.3100   -0.7500    0.0000 C   0  0  0  0  0  0  0  0  0  0  0  0
    1.7200    1.2100    0.0000 C   0  0  0  0  0  0  0  0  0  0  0  0
    0.2900    0.7500    0.0000 C   0  0  0  0  0  0  0  0  0  0  0  0
   -3.6089   -1.5002    0.0000 O   0  0  0  0  0  0  0  0  0  0  0  0
    2.1853    2.6360    0.0000 O   0  0  0  0  0  0  0  0  0  0  0  0
  4  3  1  0
  6  5  1  0
  7  1  1  0
  8  3  1  0
  8  7  2  0
  9  5  1  0
  9  7  1  0
 10  4  1  0
 11  2  1  1
 11  6  1  0
 11  8  1  0
 11 10  1  0
 12  9  2  0
 13 10  2  0
M  END
>  <NAME>  (4114) 
(S)-2,3,7,7A-TETRAHYDRO-4,7A-DIMETHYL-1H-INDENE-1,5(6H)-DIONE

>  <SYNONYMS>  (4114) 


>  <SPECTRUM TYPE>  (4114) 
MS1

>  <INSTRUMENT TYPE>  (4114) 
EI-B

>  <INSTRUMENT>  (4114) 
JEOL JMS-DX-300

>  <ION MODE>  (4114) 
P

>  <INCHIKEY>  (4114) 
NERGSGSEJNCZBN-NSHDSACASA-N

>  <FORMULA>  (4114) 
C11H14O2

>  <EXACT MASS>  (4114) 
178.099379688

>  <MW>  (4114) 
178

>  <ID>  (4114) 
JP006369

>  <CONTRIBUTOR>  (4114) 
University of Tokyo Team, {Faculty of Engineering, University of Tokyo

>  <COMMENT>  (4114) 
SMILES=O=C(C2)C(C)=C(C1)C(C)(C2)C(=O)C1
InChI=InChI=1S/C11H14O2/c1-7-8-3-4-10(13)11(8,2)6-5-9(7)12/h3-6H2,1-2H3/t11-/m0/s1
computed SMILES=O=C1C(=C2CCC(=O)C2(C)CC1)C
accession=JP006369
date=2016.01.19 (Created 2008.10.21, modified 2011.05.06)
author=HISAHIRO HAGIWARA, CHEMICAL RESEARCH INSTITUTE OF NON-AQUEOUSSOLUTIONS TOHOKU UNIV.
license=CC BY-NC-SA
exact mass=178.09938
ionization energy=70 eV
ion type=[M]+*
computed spectral entropy=3.471191997600076
computed normalized entropy=0.8919199068069114
SPLASH=splash10-000i-9300000000-0388f42f2ff4acc95ee5
submitter=submitter = University of Tokyo Team (Faculty of Engineering, University of Tokyo)
MoNA Rating=3.75

>  <NUM PEAKS>  (4114) 
49

>  <MASS SPECTRAL PEAKS>  (4114) 
31 16.02
32 88.79
38 15.3
39 71.72
40 17.61
41 20.05
42 56.61
44 8.84
45 10.06
47 5.61
50 9.45
51 12.07
53 10.54
54 9.93
55 16.27
56 17.43
57 32.6
58 88.79
59 25.17
63 9.81
65 20.11
67 11.88
69 10.91
70 10.85
73 5.36
77 38.82
78 5.24
79 39.55
80 21.27
82 7.37
83 9.45
84 0.64
91 32.85
93 41.01
96 6.46
105 7.13
107 14.81
120 7.37
121 45.16
122 1.67
135 41.26
136 99.99
137 12.74
150 8.17
158 5.3
162 5.48
178 52.22
179 9.81
181 5.18

$$$$

     RDKit          2D

 23 25  0  0  1  0  0  0  0  0999 V2000
   -1.3000   -3.0000    0.0000 C   0  0  0  0  0  0  0  0  0  0  0  0
    0.0000    2.2500    0.0000 C   0  0  0  0  0  0  0  0  0  0  0  0
    2.6000   -0.7500    0.0000 C   0  0  0  0  0  0  0  0  0  0  0  0
    1.3000   -1.5000    0.0000 C   0  0  0  0  0  0  0  0  0  0  0  0
    2.6000    0.7500    0.0000 C   0  0  0  0  0  0  0  0  0  0  0  0
    1.3001    6.0002    0.0000 C   0  0  0  0  0  0  0  0  0  0  0  0
    3.8987    6.0006    0.0000 C   0  0  0  0  0  0  0  0  0  0  0  0
    1.3008    7.5010    0.0000 C   0  0  0  0  0  0  0  0  0  0  0  0
    3.8994    7.5015    0.0000 C   0  0  0  0  0  0  0  0  0  0  0  0
   -2.6000    0.7500    0.0000 C   0  0  0  0  0  0  0  0  0  0  0  0
   -1.3000    1.5000    0.0000 C   0  0  0  0  0  0  0  0  0  0  0  0
   -1.3000   -1.5000    0.0000 C   0  0  0  0  0  0  0  0  0  0  0  0
    2.5990    5.2500    0.0000 C   0  0  0  0  0  0  0  0  0  0  0  0
    2.6005    8.2517    0.0000 C   0  0  0  0  0  0  0  0  0  0  0  0
    0.0000   -0.7500    0.0000 C   0  0  0  0  0  0  0  0  0  0  0  0
   -2.6000   -0.7500    0.0000 C   0  0  0  0  0  0  0  0  0  0  0  0
    1.3000    1.5000    0.0000 C   0  0  0  0  0  0  0  0  0  0  0  0
    2.5990    3.7500    0.0000 C   0  0  0  0  0  0  0  0  0  0  0  0
    0.0000    0.7500    0.0000 C   0  0  0  0  0  0  0  0  0  0  0  0
    2.6005    9.7517    0.0000 Br  0  0  0  0  0  0  0  0  0  0  0  0
   -3.8989   -1.5002    0.0000 O   0  0  0  0  0  0  0  0  0  0  0  0
    3.8981    3.0000    0.0000 O   0  0  0  0  0  0  0  0  0  0  0  0
    1.3000    3.0000    0.0000 O   0  0  0  0  0  0  0  0  0  0  0  0
  4  3  1  0
  5  3  1  0
  8  6  2  0
  9  7  1  0
 11 10  1  0
 12  1  1  0
 13  6  1  0
 13  7  2  0
 14  8  1  0
 14  9  2  0
 15  4  1  0
 15 12  2  0
 16 10  1  0
 16 12  1  0
 17  5  1  0
 18 13  1  0
 19  2  1  1
 19 11  1  0
 19 15  1  0
 19 17  1  0
 20 14  1  0
 21 16  2  0
 22 18  2  0
 17 23  1  1
 23 18  1  0
M  END
>  <NAME>  (4115) 
(4AS,5S)-(+)-1,4ABETA-DIMETHYL-5BETA((P-BROMOBENZOYL)OXY)-4,4A,5,6,7,8-HEXAHYDRONAPHTHALEN-2(3H)-ONE

>  <SYNONYMS>  (4115) 


>  <SPECTRUM TYPE>  (4115) 
MS1

>  <INSTRUMENT TYPE>  (4115) 
EI-B

>  <INSTRUMENT>  (4115) 
JEOL JMS-DX-300

>  <ION MODE>  (4115) 
P

>  <INCHIKEY>  (4115) 
VLZZWVVPCSKXNE-HKUYNNGSSA-N

>  <FORMULA>  (4115) 
C19H21BrO3

>  <EXACT MASS>  (4115) 
376.06740663200003

>  <MW>  (4115) 
376

>  <ID>  (4115) 
JP006368

>  <CONTRIBUTOR>  (4115) 
University of Tokyo Team, {Faculty of Engineering, University of Tokyo

>  <COMMENT>  (4115) 
SMILES=Brc(c3)ccc(c3)C(=O)OC([H])(C2)C(C)(C1)C(CC2)=C(C)C(=O)C1
InChI=InChI=1S/C19H21BrO3/c1-12-15-4-3-5-17(19(15,2)11-10-16(12)21)23-18(22)13-6-8-14(20)9-7-13/h6-9,17H,3-5,10-11H2,1-2H3/t17-,19-/m0/s1
computed SMILES=O=C(OC1CCCC2=C(C(=O)CCC21C)C)C3=CC=C(Br)C=C3
accession=JP006368
date=2016.01.19 (Created 2008.10.21, modified 2011.05.06)
author=HISAHIRO HAGIWARA, CHEMICAL RESEARCH INSTITUTE OF NON-AQUEOUSSOLUTIONS TOHOKU UNIV.
license=CC BY-NC-SA
exact mass=376.06741
ionization energy=70 eV
ion type=[M]+*
computed spectral entropy=2.6187722923266636
computed normalized entropy=0.6962597606545495
SPLASH=splash10-001r-1900000000-9a18b74a6bf628a5c820
submitter=submitter = University of Tokyo Team (Faculty of Engineering, University of Tokyo)
MoNA Rating=3.75

>  <NUM PEAKS>  (4115) 
43

>  <MASS SPECTRAL PEAKS>  (4115) 
27 1.21
39 1.8
41 3.64
50 2.43
51 1.07
53 1.91
55 2.67
65 1.32
67 1.53
75 3.22
76 7
77 4.04
79 3.4
91 4.31
93 2.72
104 5.38
105 4.41
107 1.13
118 11.12
119 3.75
120 1.04
121 1.08
132 7.05
133 3.75
134 1.98
147 1.26
148 1.65
155 9.73
156 1.05
157 10.04
158 3.48
161 2.35
176 22.37
177 2.95
183 99.99
184 8.12
185 99.15
186 7.89
202 1.12
376 5.82
377 1.65
378 5.61
379 1.53

$$$$

     RDKit          2D

 15 15  0  0  1  0  0  0  0  0999 V2000
    6.2062   -0.5808    0.0000 C   0  0  0  0  0  0  0  0  0  0  0  0
   -1.5890   -3.5800    0.0000 C   0  0  0  0  0  0  0  0  0  0  0  0
    1.0090   -3.5800    0.0000 C   0  0  0  0  0  0  0  0  0  0  0  0
   -0.2900    3.1700    0.0000 C   0  0  0  0  0  0  0  0  0  0  0  0
    4.9070   -1.3306    0.0000 C   0  0  0  0  0  0  0  0  0  0  0  0
   -1.5900    0.9200    0.0000 C   0  0  0  0  0  0  0  0  0  0  0  0
   -1.5900   -0.5800    0.0000 C   0  0  0  0  0  0  0  0  0  0  0  0
    1.0100    0.9200    0.0000 C   0  0  0  0  0  0  0  0  0  0  0  0
   -0.2900   -2.8300    0.0000 C   0  0  0  0  0  0  0  0  0  0  0  0
   -0.2900    1.6700    0.0000 C   0  0  0  0  0  0  0  0  0  0  0  0
   -0.2900   -1.3300    0.0000 C   0  0  0  0  0  0  0  0  0  0  0  0
    1.0100   -0.5800    0.0000 C   0  0  0  0  0  0  0  0  0  0  0  0
    3.6081   -0.5804    0.0000 C   0  0  0  0  0  0  0  0  0  0  0  0
    3.6083    0.9196    0.0000 O   0  0  0  0  0  0  0  0  0  0  0  0
    2.3089   -1.3302    0.0000 O   0  0  0  0  0  0  0  0  0  0  0  0
  5  1  2  0
  7  6  1  0
  9  2  1  0
  9  3  1  0
 10  4  1  1
 10  6  1  0
 10  8  1  0
 11  7  1  0
 11  9  1  6
 12  8  1  0
 12 11  1  0
 13  5  1  0
 14 13  2  0
 12 15  1  1
 15 13  1  0
M  END
>  <NAME>  (4116) 
(-)-MENTHYL ACRYLATE

>  <SYNONYMS>  (4116) 


>  <SPECTRUM TYPE>  (4116) 
MS1

>  <INSTRUMENT TYPE>  (4116) 
EI-B

>  <INSTRUMENT>  (4116) 
JEOL JMS-DX-300

>  <ION MODE>  (4116) 
P

>  <INCHIKEY>  (4116) 
XJBRSZAYOKVFRH-GRYCIOLGSA-N

>  <FORMULA>  (4116) 
C13H22O2

>  <EXACT MASS>  (4116) 
210.161979944

>  <MW>  (4116) 
210

>  <ID>  (4116) 
JP006367

>  <CONTRIBUTOR>  (4116) 
University of Tokyo Team, {Faculty of Engineering, University of Tokyo

>  <COMMENT>  (4116) 
SMILES=C=CC(=O)OC([H])(C1)C([H])(C(C)C)CCC([H])(C)1
InChI=InChI=1S/C13H22O2/c1-5-13(14)15-12-8-10(4)6-7-11(12)9(2)3/h5,9-12H,1,6-8H2,2-4H3/t10-,11+,12-/m1/s1
computed SMILES=O=C(OC1CC(C)CCC1C(C)C)C=C
accession=JP006367
date=2016.01.19 (Created 2008.10.21, modified 2011.05.06)
author=HISAHIRO HAGIWARA, CHEMICAL RESEARCH INSTITUTE OF NON-AQUEOUSSOLUTIONS TOHOKU UNIV.
license=CC BY-NC-SA
exact mass=210.16198
ionization energy=70 eV
ion type=[M]+*
computed spectral entropy=2.989040028521803
computed normalized entropy=0.7947038010687252
SPLASH=splash10-053b-9200000000-c92f03dafff5b8946333
submitter=submitter = University of Tokyo Team (Faculty of Engineering, University of Tokyo)
MoNA Rating=3.75

>  <NUM PEAKS>  (4116) 
43

>  <MASS SPECTRAL PEAKS>  (4116) 
32 19.78
39 5.32
40 1.94
41 21.47
42 2.5
43 19.59
44 1.35
53 3.36
54 3.43
55 89.84
56 6.55
57 10.27
58 4.88
65 1.05
67 17.13
68 7.54
69 19.4
70 3.7
71 3.54
73 1.53
77 1.48
79 4
80 8.4
81 66.22
82 32.16
83 13.12
84 2.04
93 1.83
94 11.6
95 99.99
96 27.81
97 5.69
98 1.2
109 9.98
110 5.48
111 2.37
123 38.87
124 4.24
125 2.49
137 3.77
138 85.25
139 9.89
167 1.08

$$$$

     RDKit          2D

 19 20  0  0  1  0  0  0  0  0999 V2000
   -0.2900    3.1700    0.0000 C   0  0  0  0  0  0  0  0  0  0  0  0
   -1.5890   -3.5800    0.0000 C   0  0  0  0  0  0  0  0  0  0  0  0
    0.2230   -4.2395    0.0000 C   0  0  0  0  0  0  0  0  0  0  0  0
    6.6126   -2.8978    0.0000 C   0  0  0  0  0  0  0  0  0  0  0  0
    1.0100    0.9200    0.0000 C   0  0  0  0  0  0  0  0  0  0  0  0
    1.6933   -1.1575    0.0000 C   0  0  0  0  0  0  0  0  0  0  0  0
    2.1297   -3.7040    0.0000 C   0  0  0  0  0  0  0  0  0  0  0  0
    3.1419   -0.8799    0.0000 C   0  0  0  0  0  0  0  0  0  0  0  0
    3.6536   -3.4535    0.0000 C   0  0  0  0  0  0  0  0  0  0  0  0
    1.0100   -0.5800    0.0000 C   0  0  0  0  0  0  0  0  0  0  0  0
   -1.5900    0.9200    0.0000 C   0  0  0  0  0  0  0  0  0  0  0  0
   -0.2900    1.6700    0.0000 C   0  0  0  0  0  0  0  0  0  0  0  0
    1.1872   -2.5695    0.0000 C   0  0  0  0  0  0  0  0  0  0  0  0
    4.1597   -2.0414    0.0000 C   0  0  0  0  0  0  0  0  0  0  0  0
   -0.2900   -1.3300    0.0000 C   0  0  0  0  0  0  0  0  0  0  0  0
   -1.5900   -0.5800    0.0000 C   0  0  0  0  0  0  0  0  0  0  0  0
   -0.2900   -2.8300    0.0000 C   0  0  0  0  0  0  0  0  0  0  0  0
   -2.8889   -1.3302    0.0000 O   0  0  0  0  0  0  0  0  0  0  0  0
    5.6333   -1.7615    0.0000 O   0  0  0  0  0  0  0  0  0  0  0  0
  8  6  2  0
  9  7  1  0
 10  5  1  0
 12  1  1  6
 12  5  1  0
 12 11  1  0
 13  6  1  0
 13  7  2  0
 14  8  1  0
 14  9  2  0
 15 10  1  0
 16 11  1  0
 16 15  1  0
 17  2  1  0
 17  3  1  0
 17 13  1  0
 15 17  1  1
 16 18  1  6
 19  4  1  0
 19 14  1  0
M  END
>  <NAME>  (4117) 
(1R,2S,5R)-5-METHYL-2-(1-METHYL-1-(4-METHOXYPHENYL)ETHYL)-CYCLOHEXANOL

>  <SYNONYMS>  (4117) 


>  <SPECTRUM TYPE>  (4117) 
MS1

>  <INSTRUMENT TYPE>  (4117) 
EI-B

>  <INSTRUMENT>  (4117) 
JEOL JMS-DX-300

>  <ION MODE>  (4117) 
P

>  <INCHIKEY>  (4117) 
TYFKWJZQXPHTGK-DAXOMENPSA-N

>  <FORMULA>  (4117) 
C17H26O2

>  <EXACT MASS>  (4117) 
262.193280072

>  <MW>  (4117) 
262

>  <ID>  (4117) 
JP006366

>  <CONTRIBUTOR>  (4117) 
University of Tokyo Team, {Faculty of Engineering, University of Tokyo

>  <COMMENT>  (4117) 
SMILES=COc(c2)ccc(c2)C(C)(C)C([H])(C1)C([H])(O)CC([H])(C)C1
InChI=InChI=1S/C17H26O2/c1-12-5-10-15(16(18)11-12)17(2,3)13-6-8-14(19-4)9-7-13/h6-9,12,15-16,18H,5,10-11H2,1-4H3/t12-,15-,16-/m1/s1
computed SMILES=OC1CC(C)CCC1C(C2=CC=C(OC)C=C2)(C)C
accession=JP006366
date=2016.01.19 (Created 2008.10.21, modified 2011.05.06)
author=HISAHIRO HAGIWARA, CHEMICAL RESEARCH INSTITUTE OF NON-AQUEOUSSOLUTIONS TOHOKU UNIV.
license=CC BY-NC-SA
exact mass=262.19328
ionization energy=70 eV
ion type=[M]+*
computed spectral entropy=3.4438661650366464
computed normalized entropy=0.844594614375361
SPLASH=splash10-0udi-4900000000-8cdf3934624b50d58125
submitter=submitter = University of Tokyo Team (Faculty of Engineering, University of Tokyo)
MoNA Rating=3.75

>  <NUM PEAKS>  (4117) 
59

>  <MASS SPECTRAL PEAKS>  (4117) 
32 37.39
40 2.6
41 26.83
53 2.77
55 13.14
57 4.07
59 2.62
65 5.81
67 5.6
69 8.71
70 2.51
71 0.82
77 12.47
78 5.19
79 6.75
81 11.43
82 2.15
90 2.36
91 12.28
92 3.39
93 2.41
94 5.36
95 10.28
103 4.64
105 3.79
106 2.45
107 2.57
108 3.51
109 29.63
110 2.38
115 4.71
117 4.21
119 5.43
121 49.46
122 5.51
123 2.73
127 2.36
128 7.49
129 4.92
131 3.73
133 6.79
134 5
135 16.58
136 2.02
138 2.32
141 4.49
147 3.06
148 22.08
150 99.99
151 8.79
159 2.62
161 8.43
169 25.29
170 8
173 2.81
200 2.21
229 2.68
262 26.83
263 5.15

$$$$

     RDKit          2D

 30 33  0  0  0  0  0  0  0  0999 V2000
   -2.6000   -0.7500    0.0000 C   0  0  0  0  0  0  0  0  0  0  0  0
    5.2000    5.2500    0.0000 C   0  0  0  0  0  0  0  0  0  0  0  0
   -2.6000    0.7500    0.0000 C   0  0  0  0  0  0  0  0  0  0  0  0
    5.2000    3.7500    0.0000 C   0  0  0  0  0  0  0  0  0  0  0  0
   -1.3000   -1.5000    0.0000 C   0  0  0  0  0  0  0  0  0  0  0  0
    3.9000    6.0000    0.0000 C   0  0  0  0  0  0  0  0  0  0  0  0
   -1.3000    1.5000    0.0000 C   0  0  0  0  0  0  0  0  0  0  0  0
    3.9000    3.0000    0.0000 C   0  0  0  0  0  0  0  0  0  0  0  0
    1.3000   -1.5000    0.0000 C   0  0  0  0  0  0  0  0  0  0  0  0
    1.3000    6.0000    0.0000 C   0  0  0  0  0  0  0  0  0  0  0  0
    2.6000   -0.7500    0.0000 C   0  0  0  0  0  0  0  0  0  0  0  0
    0.0000    5.2500    0.0000 C   0  0  0  0  0  0  0  0  0  0  0  0
    3.8989    1.5002    0.0000 C   0  0  0  0  0  0  0  0  0  0  0  0
   -1.2989    2.9998    0.0000 C   0  0  0  0  0  0  0  0  0  0  0  0
    5.1981    0.7504    0.0000 C   0  0  0  0  0  0  0  0  0  0  0  0
   -2.5981    3.7496    0.0000 C   0  0  0  0  0  0  0  0  0  0  0  0
    0.0000   -0.7500    0.0000 C   0  0  0  0  0  0  0  0  0  0  0  0
    2.6000    5.2500    0.0000 C   0  0  0  0  0  0  0  0  0  0  0  0
    2.6000    0.7500    0.0000 C   0  0  0  0  0  0  0  0  0  0  0  0
    0.0000    3.7500    0.0000 C   0  0  0  0  0  0  0  0  0  0  0  0
    0.0000    0.7500    0.0000 C   0  0  0  0  0  0  0  0  0  0  0  0
    2.6000    3.7500    0.0000 C   0  0  0  0  0  0  0  0  0  0  0  0
    6.4970    1.5006    0.0000 C   0  0  0  0  0  0  0  0  0  0  0  0
   -3.8970    2.9994    0.0000 C   0  0  0  0  0  0  0  0  0  0  0  0
    1.3000    1.5000    0.0000 C   0  0  0  0  0  0  0  0  0  0  0  0
    1.3000    3.0000    0.0000 C   0  0  0  0  0  0  0  0  0  0  0  0
    6.4968    3.0006    0.0000 O   0  0  0  0  0  0  0  0  0  0  0  0
    7.7962    0.7508    0.0000 O   0  0  0  0  0  0  0  0  0  0  0  0
   -3.8968    1.4994    0.0000 O   0  0  0  0  0  0  0  0  0  0  0  0
   -5.1962    3.7492    0.0000 O   0  0  0  0  0  0  0  0  0  0  0  0
  3  1  2  0
  4  2  2  0
  5  1  1  0
  6  2  1  0
  7  3  1  0
  8  4  1  0
 11  9  2  0
 12 10  2  0
 13 15  2  0
 14 16  2  0
 17  5  2  0
 17  9  1  0
 18  6  2  0
 18 10  1  0
 19 11  1  0
 19 13  1  0
 20 12  1  0
 20 14  1  0
 21  7  2  0
 21 17  1  0
 22  8  2  0
 22 18  1  0
 23 15  1  0
 24 16  1  0
 25 19  2  0
 25 21  1  0
 26 20  2  0
 26 22  1  0
 26 25  1  0
 27 23  2  0
 28 23  1  0
 29 24  2  0
 30 24  1  0
M  END
>  <NAME>  (4118) 
1,1'-BINAPHTHYL-2,2'-BISACRYLATE

>  <SYNONYMS>  (4118) 


>  <SPECTRUM TYPE>  (4118) 
MS1

>  <INSTRUMENT TYPE>  (4118) 
EI-B

>  <INSTRUMENT>  (4118) 
JEOL JMS-DX-300

>  <ION MODE>  (4118) 
P

>  <INCHIKEY>  (4118) 
WDKPJHDWIXCUKA-WXUKJITCSA-N

>  <FORMULA>  (4118) 
C26H18O4

>  <EXACT MASS>  (4118) 
394.120509056

>  <MW>  (4118) 
394

>  <ID>  (4118) 
JP006365

>  <CONTRIBUTOR>  (4118) 
University of Tokyo Team, {Faculty of Engineering, University of Tokyo

>  <COMMENT>  (4118) 
SMILES=c(c12)cccc(ccc(c2c(c4C=CC(O)=O)c(c3)c(cc4)ccc3)C=CC(O)=O)1
InChI=InChI=1S/C26H18O4/c27-23(28)15-13-19-11-9-17-5-1-3-7-21(17)25(19)26-20(14-16-24(29)30)12-10-18-6-2-4-8-22(18)26/h1-16H,(H,27,28)(H,29,30)/b15-13+,16-14+
computed SMILES=O=C(O)C=CC1=CC=C2C=CC=CC2=C1C3=C(C=CC(=O)O)C=CC=4C=CC=CC43
accession=JP006365
date=2016.01.19 (Created 2008.10.21, modified 2011.05.06)
author=HISAHIRO HAGIWARA, CHEMICAL RESEARCH INSTITUTE OF NON-AQUEOUSSOLUTIONS TOHOKU UNIV.
license=CC BY-NC-SA
exact mass=394.12051
ionization energy=70 eV
ion type=[M]+*
computed spectral entropy=2.7108451409823817
computed normalized entropy=0.7121317291110683
SPLASH=splash10-052o-3096000000-d81b94b56b75d0364d16
submitter=submitter = University of Tokyo Team (Faculty of Engineering, University of Tokyo)
MoNA Rating=3.75

>  <NUM PEAKS>  (4118) 
45

>  <MASS SPECTRAL PEAKS>  (4118) 
55 77.42
56 2.39
105 1.78
115 1.98
120 1.13
130 1.08
170 1.03
186 1.12
200 1.33
202 1.49
224 2.26
225 1.79
226 9.05
227 4
228 5.38
229 3.22
230 1.17
232 1.06
235 1.19
237 1.97
239 8.12
240 3.38
241 2.16
255 6.33
256 1.36
257 4.63
258 2.8
264 1.07
266 1.72
267 3.15
268 11.53
269 5.69
282 2.64
283 1.08
285 4.72
286 99.99
287 25.51
288 2.85
323 1.16
340 68.77
341 18.07
342 3.35
394 45.45
395 13.27
396 2.26

$$$$

     RDKit          2D

 25 27  0  0  1  0  0  0  0  0999 V2000
    7.0686    7.2594    0.0000 C   0  0  0  0  0  0  0  0  0  0  0  0
   -0.3185    5.9559    0.0000 C   0  0  0  0  0  0  0  0  0  0  0  0
    4.8381    0.6104    0.0000 C   0  0  0  0  0  0  0  0  0  0  0  0
    4.5029    2.5094    0.0000 C   0  0  0  0  0  0  0  0  0  0  0  0
    6.5555    5.8498    0.0000 C   0  0  0  0  0  0  0  0  0  0  0  0
   -2.9500   -0.8900    0.0000 C   0  0  0  0  0  0  0  0  0  0  0  0
   -2.9500    0.6100    0.0000 C   0  0  0  0  0  0  0  0  0  0  0  0
   -1.6500   -1.6400    0.0000 C   0  0  0  0  0  0  0  0  0  0  0  0
   -1.6500    1.3600    0.0000 C   0  0  0  0  0  0  0  0  0  0  0  0
    0.1323    3.3967    0.0000 C   0  0  0  0  0  0  0  0  0  0  0  0
    0.9400   -1.6400    0.0000 C   0  0  0  0  0  0  0  0  0  0  0  0
    2.2400   -0.8900    0.0000 C   0  0  0  0  0  0  0  0  0  0  0  0
    1.0966    2.2478    0.0000 C   0  0  0  0  0  0  0  0  0  0  0  0
    2.1237    5.0683    0.0000 C   0  0  0  0  0  0  0  0  0  0  0  0
    0.9400    1.3600    0.0000 C   0  0  0  0  0  0  0  0  0  0  0  0
    0.6458    4.8069    0.0000 C   0  0  0  0  0  0  0  0  0  0  0  0
   -0.3500   -0.8900    0.0000 C   0  0  0  0  0  0  0  0  0  0  0  0
   -0.3500    0.6100    0.0000 C   0  0  0  0  0  0  0  0  0  0  0  0
    2.2400    0.6100    0.0000 C   0  0  0  0  0  0  0  0  0  0  0  0
    2.5746    2.5091    0.0000 C   0  0  0  0  0  0  0  0  0  0  0  0
    3.0881    3.9194    0.0000 C   0  0  0  0  0  0  0  0  0  0  0  0
    5.0783    5.5894    0.0000 C   0  0  0  0  0  0  0  0  0  0  0  0
    3.5389    1.3602    0.0000 C   0  0  0  0  0  0  0  0  0  0  0  0
    4.1142    6.7384    0.0000 O   0  0  0  0  0  0  0  0  0  0  0  0
    4.5653    4.1798    0.0000 O   0  0  0  0  0  0  0  0  0  0  0  0
  5  1  2  0
  7  6  2  0
  8  6  1  0
  9  7  1  0
 12 11  2  0
 13 10  1  0
 16  2  1  1
 16 10  1  0
 16 14  1  0
 17  8  2  0
 17 11  1  0
 18  9  2  0
 18 15  1  0
 18 17  1  0
 19 12  1  0
 19 15  2  0
 20 13  1  0
 21 14  1  0
 21 20  1  0
 22  5  1  0
 23  3  1  0
 23  4  1  0
 23 19  1  0
 20 23  1  6
 24 22  2  0
 21 25  1  1
 25 22  1  0
M  END
>  <NAME>  (4119) 
(1R,2S,5R)-5-METHYL-2-(1-METHYL-1-(2'-NAPHTHYL)ETHYL)-CYCLOHEXANE-1-YL ACRYLATE

>  <SYNONYMS>  (4119) 


>  <SPECTRUM TYPE>  (4119) 
MS1

>  <INSTRUMENT TYPE>  (4119) 
EI-B

>  <INSTRUMENT>  (4119) 
JEOL JMS-DX-300

>  <ION MODE>  (4119) 
P

>  <INCHIKEY>  (4119) 
NSKRHMFLTQEJFU-MAODMQOUSA-N

>  <FORMULA>  (4119) 
C23H28O2

>  <EXACT MASS>  (4119) 
336.208930136

>  <MW>  (4119) 
336

>  <ID>  (4119) 
JP006364

>  <CONTRIBUTOR>  (4119) 
University of Tokyo Team, {Faculty of Engineering, University of Tokyo

>  <COMMENT>  (4119) 
SMILES=C=CC(=O)OC([H])(C3)C([H])(CCC([H])(C)3)C(C)(C)c(c1)cc(c2)c(ccc2)c1
InChI=InChI=1S/C23H28O2/c1-5-22(24)25-21-14-16(2)10-13-20(21)23(3,4)19-12-11-17-8-6-7-9-18(17)15-19/h5-9,11-12,15-16,20-21H,1,10,13-14H2,2-4H3/t16-,20-,21-/m1/s1
computed SMILES=O=C(OC1CC(C)CCC1C(C=2C=CC=3C=CC=CC3C2)(C)C)C=C
accession=JP006364
date=2016.01.19 (Created 2008.10.21, modified 2011.05.06)
author=HISAHIRO HAGIWARA, CHEMICAL RESEARCH INSTITUTE OF NON-AQUEOUSSOLUTIONS TOHOKU UNIV.
license=CC BY-NC-SA
exact mass=336.20893
ionization energy=70 eV
ion type=[M]+*
computed spectral entropy=2.145800872167912
computed normalized entropy=0.6372475067557493
SPLASH=splash10-014i-1900000000-683529f7108dd6034305
submitter=submitter = University of Tokyo Team (Faculty of Engineering, University of Tokyo)
MoNA Rating=3.75

>  <NUM PEAKS>  (4119) 
29

>  <MASS SPECTRAL PEAKS>  (4119) 
32 4.02
41 4.03
55 9.14
69 1.07
81 1.36
95 2.7
115 1.19
127 0.01
128 3.72
129 4.47
141 13.93
142 1.54
149 2.32
152 2.16
153 2.52
154 1.75
155 4.31
165 1.61
167 4.14
168 9.04
169 99.99
170 16.18
171 1.12
178 1.64
179 1.16
264 1.76
265 1.02
336 0.68
337 1.73

$$$$

     RDKit          2D

 29 32  0  0  1  0  0  0  0  0999 V2000
   -0.3185    5.9559    0.0000 C   0  0  0  0  0  0  0  0  0  0  0  0
    4.8381    0.6104    0.0000 C   0  0  0  0  0  0  0  0  0  0  0  0
    4.5029    2.5094    0.0000 C   0  0  0  0  0  0  0  0  0  0  0  0
    9.5100    6.3708    0.0000 C   0  0  0  0  0  0  0  0  0  0  0  0
    8.5456    7.5208    0.0000 C   0  0  0  0  0  0  0  0  0  0  0  0
    8.9971    4.9603    0.0000 C   0  0  0  0  0  0  0  0  0  0  0  0
   -2.9500   -0.8900    0.0000 C   0  0  0  0  0  0  0  0  0  0  0  0
   -2.9500    0.6100    0.0000 C   0  0  0  0  0  0  0  0  0  0  0  0
   -1.6500   -1.6400    0.0000 C   0  0  0  0  0  0  0  0  0  0  0  0
    7.0684    7.2603    0.0000 C   0  0  0  0  0  0  0  0  0  0  0  0
    7.5199    4.6998    0.0000 C   0  0  0  0  0  0  0  0  0  0  0  0
   -1.6500    1.3600    0.0000 C   0  0  0  0  0  0  0  0  0  0  0  0
    0.1323    3.3967    0.0000 C   0  0  0  0  0  0  0  0  0  0  0  0
    0.9400   -1.6400    0.0000 C   0  0  0  0  0  0  0  0  0  0  0  0
    2.2400   -0.8900    0.0000 C   0  0  0  0  0  0  0  0  0  0  0  0
    1.0966    2.2478    0.0000 C   0  0  0  0  0  0  0  0  0  0  0  0
    2.1237    5.0683    0.0000 C   0  0  0  0  0  0  0  0  0  0  0  0
    0.9400    1.3600    0.0000 C   0  0  0  0  0  0  0  0  0  0  0  0
    0.6458    4.8069    0.0000 C   0  0  0  0  0  0  0  0  0  0  0  0
   -0.3500   -0.8900    0.0000 C   0  0  0  0  0  0  0  0  0  0  0  0
    6.5555    5.8498    0.0000 C   0  0  0  0  0  0  0  0  0  0  0  0
   -0.3500    0.6100    0.0000 C   0  0  0  0  0  0  0  0  0  0  0  0
    2.2400    0.6100    0.0000 C   0  0  0  0  0  0  0  0  0  0  0  0
    2.5746    2.5091    0.0000 C   0  0  0  0  0  0  0  0  0  0  0  0
    3.0881    3.9194    0.0000 C   0  0  0  0  0  0  0  0  0  0  0  0
    5.0783    5.5894    0.0000 C   0  0  0  0  0  0  0  0  0  0  0  0
    3.5389    1.3602    0.0000 C   0  0  0  0  0  0  0  0  0  0  0  0
    4.1142    6.7384    0.0000 O   0  0  0  0  0  0  0  0  0  0  0  0
    4.5653    4.1798    0.0000 O   0  0  0  0  0  0  0  0  0  0  0  0
  5  4  2  0
  6  4  1  0
  8  7  2  0
  9  7  1  0
 10  5  1  0
 11  6  2  0
 12  8  1  0
 15 14  2  0
 16 13  1  0
 19  1  1  1
 19 13  1  0
 19 17  1  0
 20  9  2  0
 20 14  1  0
 21 10  2  0
 21 11  1  0
 22 12  2  0
 22 18  1  0
 22 20  1  0
 23 15  1  0
 23 18  2  0
 24 16  1  0
 25 17  1  0
 25 24  1  0
 26 21  1  0
 27  2  1  0
 27  3  1  0
 27 23  1  0
 24 27  1  6
 28 26  2  0
 25 29  1  1
 29 26  1  0
M  END
>  <NAME>  (4120) 
(1R,2S,5R)-5-METHYL-2-(1-METHYL-1-(2'-NAPHTHYL)ETHYL)-CYCLOHEXANE-1-YL BENZOATE

>  <SYNONYMS>  (4120) 


>  <SPECTRUM TYPE>  (4120) 
MS1

>  <INSTRUMENT TYPE>  (4120) 
EI-B

>  <INSTRUMENT>  (4120) 
JEOL JMS-DX-300

>  <ION MODE>  (4120) 
P

>  <INCHIKEY>  (4120) 
JRXOQOLTDOHKHN-UKDVSSAZSA-N

>  <FORMULA>  (4120) 
C27H30O2

>  <EXACT MASS>  (4120) 
386.2245802

>  <MW>  (4120) 
386

>  <ID>  (4120) 
JP006363

>  <CONTRIBUTOR>  (4120) 
University of Tokyo Team, {Faculty of Engineering, University of Tokyo

>  <COMMENT>  (4120) 
SMILES=C([H])(C([H])1C(C)(C)c(c4)cc(c3c4)cccc3)(OC(=O)c(c2)cccc2)CC(CC1)([H])C
InChI=InChI=1S/C27H30O2/c1-19-13-16-24(25(17-19)29-26(28)21-10-5-4-6-11-21)27(2,3)23-15-14-20-9-7-8-12-22(20)18-23/h4-12,14-15,18-19,24-25H,13,16-17H2,1-3H3/t19-,24-,25-/m1/s1
computed SMILES=O=C(OC1CC(C)CCC1C(C=2C=CC=3C=CC=CC3C2)(C)C)C=4C=CC=CC4
accession=JP006363
date=2016.01.19 (Created 2008.10.21, modified 2011.05.06)
author=HISAHIRO HAGIWARA, CHEMICAL RESEARCH INSTITUTE OF NON-AQUEOUSSOLUTIONS TOHOKU UNIV.
license=CC BY-NC-SA
exact mass=386.22458
ionization energy=70 eV
ion type=[M]+*
computed spectral entropy=2.8148844674854727
computed normalized entropy=0.7531121674628612
SPLASH=splash10-014i-3900000000-c83e2a7e5cf3ec640b53
submitter=submitter = University of Tokyo Team (Faculty of Engineering, University of Tokyo)
MoNA Rating=3.75

>  <NUM PEAKS>  (4120) 
42

>  <MASS SPECTRAL PEAKS>  (4120) 
32 6.91
41 5.46
46 1.02
55 2.55
65 1.56
67 1.38
69 2
77 7.15
78 1.4
79 1.97
81 1.42
86 13.66
87 10.2
91 1.81
92 1.49
95 0.26
99 26.05
100 1.79
105 12.42
112 1.15
115 1.05
128 4.38
129 6.55
141 12.71
142 1.81
152 2.27
153 9.09
154 3.29
155 2.03
165 1.17
167 1.77
168 15.73
169 99.99
170 17.66
171 1.56
179 1.52
208 1.41
217 3.44
249 1.56
264 4.29
386 10.16
387 2.42

$$$$

     RDKit          2D

 21 23  0  0  1  0  0  0  0  0999 V2000
   -0.3185    5.9559    0.0000 C   0  0  0  0  0  0  0  0  0  0  0  0
    4.8381    0.6104    0.0000 C   0  0  0  0  0  0  0  0  0  0  0  0
    4.5029    2.5094    0.0000 C   0  0  0  0  0  0  0  0  0  0  0  0
   -2.9500   -0.8900    0.0000 C   0  0  0  0  0  0  0  0  0  0  0  0
   -2.9500    0.6100    0.0000 C   0  0  0  0  0  0  0  0  0  0  0  0
   -1.6500   -1.6400    0.0000 C   0  0  0  0  0  0  0  0  0  0  0  0
   -1.6500    1.3600    0.0000 C   0  0  0  0  0  0  0  0  0  0  0  0
    0.1323    3.3967    0.0000 C   0  0  0  0  0  0  0  0  0  0  0  0
    0.9400   -1.6400    0.0000 C   0  0  0  0  0  0  0  0  0  0  0  0
    2.2400   -0.8900    0.0000 C   0  0  0  0  0  0  0  0  0  0  0  0
    1.0966    2.2478    0.0000 C   0  0  0  0  0  0  0  0  0  0  0  0
    2.1237    5.0683    0.0000 C   0  0  0  0  0  0  0  0  0  0  0  0
    0.9400    1.3600    0.0000 C   0  0  0  0  0  0  0  0  0  0  0  0
    0.6458    4.8069    0.0000 C   0  0  0  0  0  0  0  0  0  0  0  0
   -0.3500   -0.8900    0.0000 C   0  0  0  0  0  0  0  0  0  0  0  0
   -0.3500    0.6100    0.0000 C   0  0  0  0  0  0  0  0  0  0  0  0
    2.2400    0.6100    0.0000 C   0  0  0  0  0  0  0  0  0  0  0  0
    2.5746    2.5091    0.0000 C   0  0  0  0  0  0  0  0  0  0  0  0
    3.0881    3.9194    0.0000 C   0  0  0  0  0  0  0  0  0  0  0  0
    3.5389    1.3602    0.0000 C   0  0  0  0  0  0  0  0  0  0  0  0
    4.5653    4.1798    0.0000 O   0  0  0  0  0  0  0  0  0  0  0  0
  5  4  2  0
  6  4  1  0
  7  5  1  0
 10  9  2  0
 11  8  1  0
 14  1  1  1
 14  8  1  0
 14 12  1  0
 15  6  2  0
 15  9  1  0
 16  7  2  0
 16 13  1  0
 16 15  1  0
 17 10  1  0
 17 13  2  0
 18 11  1  0
 19 12  1  0
 19 18  1  0
 20  2  1  0
 20  3  1  0
 20 17  1  0
 18 20  1  6
 19 21  1  1
M  END
>  <NAME>  (4121) 
(1R,2S,5R)-5-METHYL-2-(1-METHYL-1-(2'-NAPHTHYL)ETHYL)-CYCLOHEXANOL

>  <SYNONYMS>  (4121) 


>  <SPECTRUM TYPE>  (4121) 
MS1

>  <INSTRUMENT TYPE>  (4121) 
EI-B

>  <INSTRUMENT>  (4121) 
JEOL JMS-DX-300

>  <ION MODE>  (4121) 
P

>  <INCHIKEY>  (4121) 
AKVNKXYVBBUSEZ-NIKGAXFTSA-N

>  <FORMULA>  (4121) 
C20H26O

>  <EXACT MASS>  (4121) 
282.198365452

>  <MW>  (4121) 
282

>  <ID>  (4121) 
JP006362

>  <CONTRIBUTOR>  (4121) 
University of Tokyo Team, {Faculty of Engineering, University of Tokyo

>  <COMMENT>  (4121) 
SMILES=[H]C(C)(C3)CC([H])(O)C([H])(C3)C(C)(C)c(c1)cc(c2)c(ccc2)c1
InChI=InChI=1S/C20H26O/c1-14-8-11-18(19(21)12-14)20(2,3)17-10-9-15-6-4-5-7-16(15)13-17/h4-7,9-10,13-14,18-19,21H,8,11-12H2,1-3H3/t14-,18-,19-/m1/s1
computed SMILES=OC1CC(C)CCC1C(C=2C=CC=3C=CC=CC3C2)(C)C
accession=JP006362
date=2016.01.19 (Created 2008.10.21, modified 2011.05.06)
author=HISAHIRO HAGIWARA, CHEMICAL RESEARCH INSTITUTE OF NON-AQUEOUSSOLUTIONS TOHOKU UNIV.
license=CC BY-NC-SA
exact mass=282.19837
ionization energy=70 eV
ion type=[M]+*
computed spectral entropy=2.7043456198821856
computed normalized entropy=0.702400505030259
SPLASH=splash10-0006-9400000000-fb1913c14b4f2831e33a
submitter=submitter = University of Tokyo Team (Faculty of Engineering, University of Tokyo)
MoNA Rating=3.75

>  <NUM PEAKS>  (4121) 
47

>  <MASS SPECTRAL PEAKS>  (4121) 
32 46.04
37 1.56
38 1.35
39 3.33
40 3.19
41 2.99
42 4.16
43 99.99
44 3.58
45 2.56
58 45.78
59 2.77
67 4.17
69 2.25
71 1.04
77 1.13
81 2.19
82 9.56
91 1.09
95 3.48
107 1.51
109 3.3
124 1.38
126 1.26
127 1.85
128 4.08
129 3.18
134 1.16
141 19.81
142 1.21
148 1.91
150 4.32
152 1.88
153 4.87
155 5.41
156 0.18
164 1.45
168 10.19
170 58.03
171 0.42
178 1.18
182 1.06
264 1.51
280 3.05
281 1.26
282 5.41
283 1.78

$$$$

     RDKit          2D

 23 24  0  0  1  0  0  0  0  0999 V2000
   -6.7862   -0.5808    0.0000 C   0  0  0  0  0  0  0  0  0  0  0  0
   -0.2900    3.1700    0.0000 C   0  0  0  0  0  0  0  0  0  0  0  0
   -1.5890   -3.5800    0.0000 C   0  0  0  0  0  0  0  0  0  0  0  0
    0.2230   -4.2395    0.0000 C   0  0  0  0  0  0  0  0  0  0  0  0
    6.6126   -2.8978    0.0000 C   0  0  0  0  0  0  0  0  0  0  0  0
   -5.4870   -1.3306    0.0000 C   0  0  0  0  0  0  0  0  0  0  0  0
    1.0100    0.9200    0.0000 C   0  0  0  0  0  0  0  0  0  0  0  0
    1.6933   -1.1575    0.0000 C   0  0  0  0  0  0  0  0  0  0  0  0
    2.1297   -3.7040    0.0000 C   0  0  0  0  0  0  0  0  0  0  0  0
    3.1419   -0.8799    0.0000 C   0  0  0  0  0  0  0  0  0  0  0  0
    3.6536   -3.4535    0.0000 C   0  0  0  0  0  0  0  0  0  0  0  0
    1.0100   -0.5800    0.0000 C   0  0  0  0  0  0  0  0  0  0  0  0
   -1.5900    0.9200    0.0000 C   0  0  0  0  0  0  0  0  0  0  0  0
   -0.2900    1.6700    0.0000 C   0  0  0  0  0  0  0  0  0  0  0  0
    1.1872   -2.5695    0.0000 C   0  0  0  0  0  0  0  0  0  0  0  0
    4.1597   -2.0414    0.0000 C   0  0  0  0  0  0  0  0  0  0  0  0
   -0.2900   -1.3300    0.0000 C   0  0  0  0  0  0  0  0  0  0  0  0
   -1.5900   -0.5800    0.0000 C   0  0  0  0  0  0  0  0  0  0  0  0
   -4.1881   -0.5804    0.0000 C   0  0  0  0  0  0  0  0  0  0  0  0
   -0.2900   -2.8300    0.0000 C   0  0  0  0  0  0  0  0  0  0  0  0
   -4.1883    0.9196    0.0000 O   0  0  0  0  0  0  0  0  0  0  0  0
    5.6333   -1.7615    0.0000 O   0  0  0  0  0  0  0  0  0  0  0  0
   -2.8889   -1.3302    0.0000 O   0  0  0  0  0  0  0  0  0  0  0  0
  6  1  2  0
 10  8  2  0
 11  9  1  0
 12  7  1  0
 14  2  1  6
 14  7  1  0
 14 13  1  0
 15  8  1  0
 15  9  2  0
 16 10  1  0
 16 11  2  0
 17 12  1  0
 18 13  1  0
 18 17  1  0
 19  6  1  0
 20  3  1  0
 20  4  1  0
 20 15  1  0
 17 20  1  1
 21 19  2  0
 22  5  1  0
 22 16  1  0
 18 23  1  6
 23 19  1  0
M  END
>  <NAME>  (4122) 
(1R,2S,5R)-5-METHYL-2-(1-METHYL-1-(4-METHOXYPHENYL)ETHYL)-CYCLOHEXANE-1-YL ACRYLATE

>  <SYNONYMS>  (4122) 


>  <SPECTRUM TYPE>  (4122) 
MS1

>  <INSTRUMENT TYPE>  (4122) 
EI-B

>  <INSTRUMENT>  (4122) 
JEOL JMS-DX-300

>  <ION MODE>  (4122) 
P

>  <INCHIKEY>  (4122) 
SSBMCNGYTXITRG-ZTFGCOKTSA-N

>  <FORMULA>  (4122) 
C20H28O3

>  <EXACT MASS>  (4122) 
316.20384475599997

>  <MW>  (4122) 
316

>  <ID>  (4122) 
JP006361

>  <CONTRIBUTOR>  (4122) 
University of Tokyo Team, {Faculty of Engineering, University of Tokyo

>  <COMMENT>  (4122) 
SMILES=C=CC(=O)OC([H])(C2)C([H])(CCC([H])(C)2)C(C)(C)c(c1)ccc(OC)c1
InChI=InChI=1S/C20H28O3/c1-6-19(21)23-18-13-14(2)7-12-17(18)20(3,4)15-8-10-16(22-5)11-9-15/h6,8-11,14,17-18H,1,7,12-13H2,2-5H3/t14-,17-,18-/m1/s1
computed SMILES=O=C(OC1CC(C)CCC1C(C2=CC=C(OC)C=C2)(C)C)C=C
accession=JP006361
date=2016.01.19 (Created 2008.10.21, modified 2011.05.06)
author=HISAHIRO HAGIWARA, CHEMICAL RESEARCH INSTITUTE OF NON-AQUEOUSSOLUTIONS TOHOKU UNIV.
license=CC BY-NC-SA
exact mass=316.20384
ionization energy=70 eV
ion type=[M]+*
computed spectral entropy=3.2869440391202422
computed normalized entropy=0.8910413256943257
SPLASH=splash10-006x-5901000000-33eb126c6bf5535ce874
submitter=submitter = University of Tokyo Team (Faculty of Engineering, University of Tokyo)
MoNA Rating=3.75

>  <NUM PEAKS>  (4122) 
40

>  <MASS SPECTRAL PEAKS>  (4122) 
39 12.78
41 63.47
53 6.54
65 10.28
67 9.39
69 8.33
77 23.74
78 7.39
79 15.82
81 11.71
90 5.14
91 41.09
92 7.6
93 5.96
94 14.15
95 11.94
103 13.21
105 10.86
106 6.46
108 6.23
109 51.44
115 10.72
117 7.87
119 13.23
121 99.99
122 8.89
128 5.44
129 5.28
131 5.12
133 15.94
134 13.92
135 32.49
147 5.28
148 35.46
151 10.8
159 5.61
161 15.71
173 5.5
316 39.8
317 8.04

$$$$

     RDKit          2D

 19 20  0  0  1  0  0  0  0  0999 V2000
   -0.2900    3.1700    0.0000 C   0  0  0  0  0  0  0  0  0  0  0  0
   -1.5890   -3.5800    0.0000 C   0  0  0  0  0  0  0  0  0  0  0  0
    0.2230   -4.2395    0.0000 C   0  0  0  0  0  0  0  0  0  0  0  0
    6.6126   -2.8978    0.0000 C   0  0  0  0  0  0  0  0  0  0  0  0
    1.0100    0.9200    0.0000 C   0  0  0  0  0  0  0  0  0  0  0  0
    1.6933   -1.1575    0.0000 C   0  0  0  0  0  0  0  0  0  0  0  0
    2.1297   -3.7040    0.0000 C   0  0  0  0  0  0  0  0  0  0  0  0
    3.1419   -0.8799    0.0000 C   0  0  0  0  0  0  0  0  0  0  0  0
    3.6536   -3.4535    0.0000 C   0  0  0  0  0  0  0  0  0  0  0  0
    1.0100   -0.5800    0.0000 C   0  0  0  0  0  0  0  0  0  0  0  0
   -1.5900    0.9200    0.0000 C   0  0  0  0  0  0  0  0  0  0  0  0
   -0.2900    1.6700    0.0000 C   0  0  0  0  0  0  0  0  0  0  0  0
    1.1872   -2.5695    0.0000 C   0  0  0  0  0  0  0  0  0  0  0  0
    4.1597   -2.0414    0.0000 C   0  0  0  0  0  0  0  0  0  0  0  0
   -0.2900   -1.3300    0.0000 C   0  0  0  0  0  0  0  0  0  0  0  0
   -1.5900   -0.5800    0.0000 C   0  0  0  0  0  0  0  0  0  0  0  0
   -0.2900   -2.8300    0.0000 C   0  0  0  0  0  0  0  0  0  0  0  0
   -2.8889   -1.3302    0.0000 O   0  0  0  0  0  0  0  0  0  0  0  0
    5.6333   -1.7615    0.0000 O   0  0  0  0  0  0  0  0  0  0  0  0
  8  6  2  0
  9  7  1  0
 10  5  1  0
 12  1  1  6
 12  5  1  0
 12 11  1  0
 13  6  1  0
 13  7  2  0
 14  8  1  0
 14  9  2  0
 15 10  1  0
 16 11  1  0
 16 15  1  0
 17  2  1  0
 17  3  1  0
 17 13  1  0
 15 17  1  1
 18 16  2  0
 19  4  1  0
 19 14  1  0
M  END
>  <NAME>  (4123) 
(2S,5R)-5-METHYL-2-(1-METHYL-1-(4-METHOXYPHENYL)ETHYL)-CYCLOHEXANONE

>  <SYNONYMS>  (4123) 


>  <SPECTRUM TYPE>  (4123) 
MS1

>  <INSTRUMENT TYPE>  (4123) 
EI-B

>  <INSTRUMENT>  (4123) 
JEOL JMS-DX-300

>  <ION MODE>  (4123) 
P

>  <INCHIKEY>  (4123) 
WQDWOPQKSKJKPZ-IUODEOHRSA-N

>  <FORMULA>  (4123) 
C17H24O2

>  <EXACT MASS>  (4123) 
260.177630008

>  <MW>  (4123) 
260

>  <ID>  (4123) 
JP006360

>  <CONTRIBUTOR>  (4123) 
University of Tokyo Team, {Faculty of Engineering, University of Tokyo

>  <COMMENT>  (4123) 
SMILES=COc(c2)ccc(c2)C(C)(C)C([H])(C1)C(=O)CC([H])(C)C1
InChI=InChI=1S/C17H24O2/c1-12-5-10-15(16(18)11-12)17(2,3)13-6-8-14(19-4)9-7-13/h6-9,12,15H,5,10-11H2,1-4H3/t12-,15-/m1/s1
computed SMILES=O=C1CC(C)CCC1C(C2=CC=C(OC)C=C2)(C)C
accession=JP006360
date=2016.01.19 (Created 2008.10.21, modified 2011.05.06)
author=HISAHIRO HAGIWARA, CHEMICAL RESEARCH INSTITUTE OF NON-AQUEOUSSOLUTIONS TOHOKU UNIV.
license=CC BY-NC-SA
exact mass=260.17763
ionization energy=70 eV
ion type=[M]+*
computed spectral entropy=3.801185080793859
computed normalized entropy=0.8831616154680548
SPLASH=splash10-0ukl-4910000000-de3d3a7b0cb00db59d77
submitter=submitter = University of Tokyo Team (Faculty of Engineering, University of Tokyo)
MoNA Rating=3.75

>  <NUM PEAKS>  (4123) 
74

>  <MASS SPECTRAL PEAKS>  (4123) 
32 13.67
39 18.86
41 21.75
43 29.74
51 5.19
53 6.48
55 9.57
56 3.26
58 10.72
63 3.12
65 6.38
69 8.53
77 14.59
78 5.72
79 6.41
81 4.19
89 3.36
90 3.92
91 25.07
92 4.56
93 6.14
94 8.67
95 7.16
103 8.14
104 3.02
105 9.74
107 8.96
109 36.47
110 3.05
112 3
115 13.62
117 5.92
118 3.19
119 4.75
121 63.75
122 7.02
128 6.82
129 5.24
131 7.09
133 10.13
134 11.45
135 61.12
136 4.6
137 4.99
139 7.99
145 3.05
147 10.48
148 10.43
150 99.99
151 9.04
153 5.87
154 3.45
157 3.44
158 3
159 5.02
161 11.23
162 3.53
169 4.07
171 5.46
175 3.85
177 8.16
185 10.94
186 3
199 9.43
200 13.18
201 4.24
214 8.84
215 4.14
227 12.06
242 7.11
243 3.43
246 4.43
260 42.8
261 8.06

$$$$

     RDKit          2D

 15 16  0  0  0  0  0  0  0  0999 V2000
    2.5990   -5.2500    0.0000 C   0  0  0  0  0  0  0  0  0  0  0  0
   -2.6000   -0.7500    0.0000 C   0  0  0  0  0  0  0  0  0  0  0  0
   -2.6000    0.7500    0.0000 C   0  0  0  0  0  0  0  0  0  0  0  0
   -1.3000   -1.5000    0.0000 C   0  0  0  0  0  0  0  0  0  0  0  0
   -1.3000    1.5000    0.0000 C   0  0  0  0  0  0  0  0  0  0  0  0
    2.6000   -0.7500    0.0000 C   0  0  0  0  0  0  0  0  0  0  0  0
    2.6000    0.7500    0.0000 C   0  0  0  0  0  0  0  0  0  0  0  0
    0.0000   -0.7500    0.0000 C   0  0  0  0  0  0  0  0  0  0  0  0
    0.0000    0.7500    0.0000 C   0  0  0  0  0  0  0  0  0  0  0  0
    1.3000   -1.5000    0.0000 C   0  0  0  0  0  0  0  0  0  0  0  0
    1.3000    1.5000    0.0000 C   0  0  0  0  0  0  0  0  0  0  0  0
    1.3000   -3.0000    0.0000 C   0  0  0  0  0  0  0  0  0  0  0  0
    1.3000    3.0000    0.0000 O   0  0  0  0  0  0  0  0  0  0  0  0
    0.0010   -3.7500    0.0000 O   0  0  0  0  0  0  0  0  0  0  0  0
    2.5990   -3.7500    0.0000 O   0  0  0  0  0  0  0  0  0  0  0  0
  3  2  1  0
  4  2  1  0
  5  3  1  0
  7  6  1  0
  8  4  1  0
  9  5  1  0
  9  8  1  0
 10  6  1  0
 10  8  1  0
 11  7  1  0
 11  9  1  0
 12 10  1  0
 13 11  2  0
 14 12  2  0
 15  1  1  0
 15 12  1  0
M  END
>  <NAME>  (4124) 
METHYL 4(3H)-OXO-1,2,4AALPHA,5,6,7,8,8ABETA-OCTAHYDRONAPHTHALENE-1BETA-CARBOXYLATE

>  <SYNONYMS>  (4124) 


>  <SPECTRUM TYPE>  (4124) 
MS1

>  <INSTRUMENT TYPE>  (4124) 
EI-B

>  <INSTRUMENT>  (4124) 
JEOL JMS-DX-300

>  <ION MODE>  (4124) 
P

>  <INCHIKEY>  (4124) 
JPFUEZPXKCRLTQ-UHFFFAOYSA-N

>  <FORMULA>  (4124) 
C12H18O3

>  <EXACT MASS>  (4124) 
210.12559443599997

>  <MW>  (4124) 
210

>  <ID>  (4124) 
JP006357

>  <CONTRIBUTOR>  (4124) 
University of Tokyo Team, {Faculty of Engineering, University of Tokyo

>  <COMMENT>  (4124) 
SMILES=COC(=O)C(C1)C(C2)C(CCC2)C(=O)C1
InChI=InChI=1S/C12H18O3/c1-15-12(14)10-6-7-11(13)9-5-3-2-4-8(9)10/h8-10H,2-7H2,1H3
computed SMILES=O=C(OC)C1CCC(=O)C2CCCCC12
accession=JP006357
date=2016.01.19 (Created 2008.10.21, modified 2011.05.06)
author=HISAHIRO HAGIWARA, CHEMICAL RESEARCH INSTITUTE OF NON-AQUEOUSSOLUTIONS TOHOKU UNIV.
license=CC BY-NC-SA
exact mass=210.12559
ionization energy=70 eV
ion type=[M]+*
computed spectral entropy=3.8342410281354717
computed normalized entropy=0.9118956782840519
SPLASH=splash10-0gz9-6910000000-9ba47c2b7187bad055be
submitter=submitter = University of Tokyo Team (Faculty of Engineering, University of Tokyo)
MoNA Rating=3.75

>  <NUM PEAKS>  (4124) 
67

>  <MASS SPECTRAL PEAKS>  (4124) 
32 15.74
39 5.25
41 33.77
51 5.08
53 17.87
54 13.24
55 36.39
65 9.79
67 29.84
68 14.43
69 9.39
70 20.41
71 14.75
72 5.8
74 8.8
77 15.57
78 8.24
79 53.11
80 34.59
81 57.38
82 16.89
83 68.2
85 6.31
87 0.2
91 34.59
92 5.41
93 19.43
94 35.25
95 42.3
96 8.77
98 6.29
99 12.54
100 93.11
101 11.43
105 5.25
107 26.56
108 27.62
109 88.52
111 12.79
121 16.19
122 23.03
123 12.54
124 31.64
125 6.76
128 51.15
129 6.48
132 13.03
133 68.52
134 6.15
139 6.68
140 7.23
141 38.85
142 52.13
143 18.93
149 5.98
150 80.98
151 50.98
152 6.17
154 41.97
155 7.05
167 8.16
178 10
179 25.16
182 18.61
192 6.39
210 99.99
211 13.48

$$$$

     RDKit          2D

 13 14  0  0  0  0  0  0  0  0999 V2000
    1.3243    3.7354    0.0000 C   0  0  0  0  0  0  0  0  0  0  0  0
    0.0252   -0.0146    0.0000 C   0  0  0  0  0  0  0  0  0  0  0  0
   -1.2738    2.2354    0.0000 C   0  0  0  0  0  0  0  0  0  0  0  0
   -1.2738   -0.7646    0.0000 C   0  0  0  0  0  0  0  0  0  0  0  0
   -2.5728    1.4854    0.0000 C   0  0  0  0  0  0  0  0  0  0  0  0
   -4.9469   -0.5192    0.0000 C   0  0  0  0  0  0  0  0  0  0  0  0
   -4.1969   -1.8182    0.0000 C   0  0  0  0  0  0  0  0  0  0  0  0
    1.3243    2.2354    0.0000 C   0  0  0  0  0  0  0  0  0  0  0  0
    0.0252    1.4854    0.0000 C   0  0  0  0  0  0  0  0  0  0  0  0
   -2.5728   -0.0146    0.0000 C   0  0  0  0  0  0  0  0  0  0  0  0
    2.6233    1.4854    0.0000 O   0  0  0  0  0  0  0  0  0  0  0  0
   -3.9432    0.5955    0.0000 O   0  0  0  0  0  0  0  0  0  0  0  0
   -2.7296   -1.5063    0.0000 O   0  0  0  0  0  0  0  0  0  0  0  0
  4  2  1  0
  5  3  1  0
  7  6  1  0
  8  1  1  0
  9  2  2  0
  9  3  1  0
  9  8  1  0
 10  4  1  0
 10  5  1  0
 11  8  2  0
 12  6  1  0
 12 10  1  0
 13  7  1  0
 13 10  1  0
M  END
>  <NAME>  (4125) 
1-ACETYL-4,4-ETHYLENEDIOXYCYCLOHEXENE

>  <SYNONYMS>  (4125) 


>  <SPECTRUM TYPE>  (4125) 
MS1

>  <INSTRUMENT TYPE>  (4125) 
EI-B

>  <INSTRUMENT>  (4125) 
JEOL JMS-DX-300

>  <ION MODE>  (4125) 
P

>  <INCHIKEY>  (4125) 
VKNUGMHPVXDEJF-UHFFFAOYSA-N

>  <FORMULA>  (4125) 
C10H14O3

>  <EXACT MASS>  (4125) 
182.094294308

>  <MW>  (4125) 
182

>  <ID>  (4125) 
JP006351

>  <CONTRIBUTOR>  (4125) 
University of Tokyo Team, {Faculty of Engineering, University of Tokyo

>  <COMMENT>  (4125) 
SMILES=CC(=O)C(C1)=C([H])CC(O2)(OCC2)C1
InChI=InChI=1S/C10H14O3/c1-8(11)9-2-4-10(5-3-9)12-6-7-13-10/h2H,3-7H2,1H3
computed SMILES=O=C(C1=CCC2(OCCO2)CC1)C
accession=JP006351
date=2016.01.19 (Created 2008.10.21, modified 2011.05.06)
author=HISAHIRO HAGIWARA, CHEMICAL RESEARCH INSTITUTE OF NON-AQUEOUSSOLUTIONS TOHOKU UNIV.
license=CC BY-NC-SA
exact mass=182.09429
ionization energy=70 eV
ion type=[M]+*
computed spectral entropy=3.333817211918449
computed normalized entropy=0.8521977522352489
SPLASH=splash10-053f-9500000000-4f91d05973d2ca16b5ba
submitter=submitter = University of Tokyo Team (Faculty of Engineering, University of Tokyo)
MoNA Rating=3.75

>  <NUM PEAKS>  (4125) 
50

>  <MASS SPECTRAL PEAKS>  (4125) 
31 3.64
37 8.65
38 7.86
39 31.97
40 3.49
41 18.75
42 75.35
44 16.19
45 5.95
51 4.35
52 4.27
53 15.74
54 2.79
55 6.52
57 8.02
58 71.15
59 7.23
65 7.8
66 4.62
67 10.38
73 7.93
77 9.86
81 7.6
83 3.09
85 2.27
87 28.97
88 4.37
94 6.65
95 23.56
96 4.39
99 9.76
108 3.56
109 23.46
110 13.04
121 4.85
123 7.78
125 2.24
136 4.22
137 12.01
138 2.47
139 7.68
140 2.62
151 7.96
152 10.24
154 11.31
167 29.52
168 2.54
182 99.99
183 11.58
184 2.02

$$$$

     RDKit          2D

  9  9  0  0  0  0  0  0  0  0999 V2000
   -2.9228    0.8825    0.0000 C   0  0  0  0  0  0  0  0  0  0  0  0
    2.2733   -0.6175    0.0000 C   0  0  0  0  0  0  0  0  0  0  0  0
    2.2738    0.8833    0.0000 C   0  0  0  0  0  0  0  0  0  0  0  0
    0.9738   -1.3683    0.0000 C   0  0  0  0  0  0  0  0  0  0  0  0
    0.9748    1.6333    0.0000 C   0  0  0  0  0  0  0  0  0  0  0  0
   -0.3252   -0.6183    0.0000 C   0  0  0  0  0  0  0  0  0  0  0  0
   -1.6238    1.6325    0.0000 C   0  0  0  0  0  0  0  0  0  0  0  0
   -0.3248    0.8825    0.0000 C   0  0  0  0  0  0  0  0  0  0  0  0
   -1.6238    3.1325    0.0000 O   0  0  0  0  0  0  0  0  0  0  0  0
  3  2  1  0
  4  2  1  0
  5  3  1  0
  6  4  1  0
  7  1  1  0
  8  5  2  0
  8  6  1  0
  8  7  1  0
  9  7  2  0
M  END
>  <NAME>  (4126) 
1-ACETYLCYCLOHEXENE

>  <SYNONYMS>  (4126) 


>  <SPECTRUM TYPE>  (4126) 
MS1

>  <INSTRUMENT TYPE>  (4126) 
EI-B

>  <INSTRUMENT>  (4126) 
JEOL JMS-DX-300

>  <ION MODE>  (4126) 
P

>  <INCHIKEY>  (4126) 
LTYLUDGDHUEBGX-UHFFFAOYSA-N

>  <FORMULA>  (4126) 
C8H12O

>  <EXACT MASS>  (4126) 
124.088815004

>  <MW>  (4126) 
124

>  <ID>  (4126) 
JP006350

>  <CONTRIBUTOR>  (4126) 
University of Tokyo Team, {Faculty of Engineering, University of Tokyo

>  <COMMENT>  (4126) 
SMILES=CC(=O)C(C1)=C([H])CCC1
InChI=InChI=1S/C8H12O/c1-7(9)8-5-3-2-4-6-8/h5H,2-4,6H2,1H3
computed SMILES=O=C(C1=CCCCC1)C
accession=JP006350
date=2016.01.19 (Created 2008.10.21, modified 2011.05.06)
author=HISAHIRO HAGIWARA, CHEMICAL RESEARCH INSTITUTE OF NON-AQUEOUSSOLUTIONS TOHOKU UNIV.
license=CC BY-NC-SA
exact mass=124.08882
ionization energy=70 eV
ion type=[M]+*
computed spectral entropy=2.9504512186220335
computed normalized entropy=0.7844440944025581
SPLASH=splash10-001i-9200000000-05170061fb0fcdd888dc
submitter=submitter = University of Tokyo Team (Faculty of Engineering, University of Tokyo)
MoNA Rating=3.75

>  <NUM PEAKS>  (4126) 
43

>  <MASS SPECTRAL PEAKS>  (4126) 
37 1.08
38 2.09
39 15.58
41 20.17
42 3.04
43 28.25
44 5.45
45 1.79
49 1.27
50 2.6
51 5.43
52 2.65
53 17.83
54 18
55 6.24
58 18.62
59 1.11
63 1.12
65 4.33
66 3.69
67 46.83
68 2.55
71 2.32
75 2.12
77 9.07
78 2.01
79 37.6
80 12.93
81 99.99
82 48.94
83 3.09
84 1.77
91 2.79
95 2.07
102 1.01
105 1.41
107 1.22
109 54.72
110 3.67
117 1.44
124 58.8
125 17.69
126 1.45

$$$$

     RDKit          2D

 11 10  0  0  1  0  0  0  0  0999 V2000
   -6.8200    5.0625    0.0000 C   0  0  0  0  0  0  0  0  0  0  0  0
   -5.5209    2.8125    0.0000 C   0  0  0  0  0  0  0  0  0  0  0  0
   -0.3248    2.8125    0.0000 C   0  0  0  0  0  0  0  0  0  0  0  0
   -2.9228    4.3125    0.0000 C   0  0  0  0  0  0  0  0  0  0  0  0
   -4.2219    5.0625    0.0000 C   0  0  0  0  0  0  0  0  0  0  0  0
   -1.6238    5.0625    0.0000 C   0  0  0  0  0  0  0  0  0  0  0  0
    0.9743    5.0625    0.0000 C   0  0  0  0  0  0  0  0  0  0  0  0
    2.2733    4.3125    0.0000 C   0  0  0  0  0  0  0  0  0  0  0  0
   -5.5209    4.3125    0.0000 C   0  0  0  0  0  0  0  0  0  0  0  0
   -0.3248    4.3125    0.0000 C   0  0  0  0  0  0  0  0  0  0  0  0
    3.5724    5.0625    0.0000 O   0  0  0  0  0  0  0  0  0  0  0  0
  5  4  1  0
  6  4  1  0
  8  7  1  0
  9  1  2  0
  9  2  1  0
  9  5  1  0
 10  3  1  1
 10  6  1  0
 10  7  1  0
 11  8  1  0
M  END
>  <NAME>  (4127) 
3(S)-CITRONELOL

>  <SYNONYMS>  (4127) 


>  <SPECTRUM TYPE>  (4127) 
MS1

>  <INSTRUMENT TYPE>  (4127) 
EI-B

>  <INSTRUMENT>  (4127) 
JEOL JMS-DX-300

>  <ION MODE>  (4127) 
P

>  <INCHIKEY>  (4127) 
JGQFVRIQXUFPAH-JTQLQIEISA-N

>  <FORMULA>  (4127) 
C10H20O

>  <EXACT MASS>  (4127) 
156.15141526

>  <MW>  (4127) 
156

>  <ID>  (4127) 
JP006349

>  <CONTRIBUTOR>  (4127) 
University of Tokyo Team, {Faculty of Engineering, University of Tokyo

>  <COMMENT>  (4127) 
SMILES=OCCC([H])(C)CCCC(C)=C
InChI=InChI=1S/C10H20O/c1-9(2)5-4-6-10(3)7-8-11/h10-11H,1,4-8H2,2-3H3/t10-/m0/s1
computed SMILES=OCCC(C)CCCC(=C)C
accession=JP006349
date=2016.01.19 (Created 2008.10.21, modified 2011.05.06)
author=HISAHIRO HAGIWARA, CHEMICAL RESEARCH INSTITUTE OF NON-AQUEOUSSOLUTIONS TOHOKU UNIV.
license=CC BY-NC-SA
exact mass=156.15142
ionization energy=70 eV
ion type=[M]+*
computed spectral entropy=3.1292238880095047
computed normalized entropy=0.8173196609322138
SPLASH=splash10-067l-9000000000-95551f92ce5fa91af3b4
submitter=submitter = University of Tokyo Team (Faculty of Engineering, University of Tokyo)
MoNA Rating=3.75

>  <NUM PEAKS>  (4127) 
46

>  <MASS SPECTRAL PEAKS>  (4127) 
31 21.84
39 25.09
41 99.99
42 11.08
43 21.99
45 3.49
51 2.38
52 1.41
53 13.99
54 5.6
55 65.63
56 44.45
57 15.52
65 2.72
66 1.5
67 55.17
68 29.77
69 81.78
70 16.71
71 25.29
72 1.53
77 1.95
79 3.74
80 0.37
81 45.7
82 49.58
83 14.06
84 2.36
85 3.44
86 2.52
91 1.07
93 1.28
94 1.67
95 35.13
96 7.85
97 1.25
99 1.32
109 13.79
110 5.28
111 1.64
112 1.51
123 19.73
124 2.06
138 9.58
139 1.28
156 7.04

$$$$

     RDKit          2D

 11 10  0  0  1  0  0  0  0  0999 V2000
   -6.8200    5.0625    0.0000 C   0  0  0  0  0  0  0  0  0  0  0  0
   -5.5209    2.8125    0.0000 C   0  0  0  0  0  0  0  0  0  0  0  0
   -0.3248    2.8125    0.0000 C   0  0  0  0  0  0  0  0  0  0  0  0
   -2.9228    4.3125    0.0000 C   0  0  0  0  0  0  0  0  0  0  0  0
   -4.2219    5.0625    0.0000 C   0  0  0  0  0  0  0  0  0  0  0  0
   -1.6238    5.0625    0.0000 C   0  0  0  0  0  0  0  0  0  0  0  0
    0.9743    5.0625    0.0000 C   0  0  0  0  0  0  0  0  0  0  0  0
    2.2733    4.3125    0.0000 C   0  0  0  0  0  0  0  0  0  0  0  0
   -5.5209    4.3125    0.0000 C   0  0  0  0  0  0  0  0  0  0  0  0
   -0.3248    4.3125    0.0000 C   0  0  0  0  0  0  0  0  0  0  0  0
    3.5724    5.0625    0.0000 O   0  0  0  0  0  0  0  0  0  0  0  0
  5  4  1  0
  6  4  1  0
  8  7  1  0
  9  1  1  0
  9  2  1  0
  9  5  2  0
 10  3  1  1
 10  6  1  0
 10  7  1  0
 11  8  2  0
M  END
>  <NAME>  (4128) 
3(S)-CITRONELAL

>  <SYNONYMS>  (4128) 


>  <SPECTRUM TYPE>  (4128) 
MS1

>  <INSTRUMENT TYPE>  (4128) 
EI-B

>  <INSTRUMENT>  (4128) 
JEOL JMS-DX-300

>  <ION MODE>  (4128) 
P

>  <INCHIKEY>  (4128) 
NEHNMFOYXAPHSD-JTQLQIEISA-N

>  <FORMULA>  (4128) 
C10H18O

>  <EXACT MASS>  (4128) 
154.135765196

>  <MW>  (4128) 
154

>  <ID>  (4128) 
JP006348

>  <CONTRIBUTOR>  (4128) 
University of Tokyo Team, {Faculty of Engineering, University of Tokyo

>  <COMMENT>  (4128) 
SMILES=O=CCC([H])(C)CCC=C(C)C
InChI=InChI=1S/C10H18O/c1-9(2)5-4-6-10(3)7-8-11/h5,8,10H,4,6-7H2,1-3H3/t10-/m0/s1
computed SMILES=O=CCC(C)CCC=C(C)C
accession=JP006348
date=2016.01.19 (Created 2008.10.21, modified 2011.05.06)
author=HISAHIRO HAGIWARA, CHEMICAL RESEARCH INSTITUTE OF NON-AQUEOUSSOLUTIONS TOHOKU UNIV.
license=CC BY-NC-SA
exact mass=154.13577
ionization energy=70 eV
ion type=[M]+*
computed spectral entropy=3.2347437006310082
computed normalized entropy=0.8355917689410765
SPLASH=splash10-05mo-9100000000-b8f41a4c5767a5173327
submitter=submitter = University of Tokyo Team (Faculty of Engineering, University of Tokyo)
MoNA Rating=3.75

>  <NUM PEAKS>  (4128) 
48

>  <MASS SPECTRAL PEAKS>  (4128) 
39 20.39
41 99.99
42 9.81
43 19.62
44 1.61
51 2.38
52 1.21
53 11.21
54 3.35
55 44.35
56 28.4
57 9.81
59 2.16
65 2.24
66 1.14
67 19.42
68 10.84
69 84.91
70 13.59
71 11.94
72 3.25
77 2.22
79 4.01
80 2.06
81 11.62
82 5.58
83 12.29
84 15.03
85 3.48
91 1.56
93 6.84
94 1.98
95 38.82
96 5.63
97 8.37
98 8.06
107 1.97
109 12.36
110 15.1
111 16.49
112 7.67
121 16.7
122 1.78
123 2.59
136 7.15
139 5.42
154 10.03
155 1.02

$$$$

     RDKit          2D

  9  9  0  0  0  0  0  0  0  0999 V2000
   -0.2633    1.6636    0.0000 C   0  0  0  0  0  0  0  0  0  0  0  0
   -0.2649   -2.8740    0.0000 C   0  0  0  0  0  0  0  0  0  0  0  0
   -1.5558   -2.1182    0.0000 C   0  0  0  0  0  0  0  0  0  0  0  0
    1.0341   -2.1240    0.0000 C   0  0  0  0  0  0  0  0  0  0  0  0
   -0.2636    0.1636    0.0000 C   0  0  0  0  0  0  0  0  0  0  0  0
   -1.5539   -0.5814    0.0000 C   0  0  0  0  0  0  0  0  0  0  0  0
    1.0360   -0.5872    0.0000 C   0  0  0  0  0  0  0  0  0  0  0  0
   -2.8525    0.1694    0.0000 O   0  0  0  0  0  0  0  0  0  0  0  0
    2.3356    0.1618    0.0000 O   0  0  0  0  0  0  0  0  0  0  0  0
  3  2  1  0
  4  2  1  0
  5  1  1  0
  6  3  1  0
  6  5  1  0
  7  4  1  0
  7  5  1  0
  8  6  2  0
  9  7  2  0
M  END
>  <NAME>  (4129) 
2-METHYLCYCLOHEXAN-1,3-DIONE

>  <SYNONYMS>  (4129) 


>  <SPECTRUM TYPE>  (4129) 
MS1

>  <INSTRUMENT TYPE>  (4129) 
EI-B

>  <INSTRUMENT>  (4129) 
JEOL JMS-DX-300

>  <ION MODE>  (4129) 
P

>  <INCHIKEY>  (4129) 
VSGJHHIAMHUZKF-UHFFFAOYSA-N

>  <FORMULA>  (4129) 
C7H10O2

>  <EXACT MASS>  (4129) 
126.06807956

>  <MW>  (4129) 
126

>  <ID>  (4129) 
JP006347

>  <CONTRIBUTOR>  (4129) 
University of Tokyo Team, {Faculty of Engineering, University of Tokyo

>  <COMMENT>  (4129) 
SMILES=O=C(C1)C(C)C(=O)CC1
InChI=InChI=1S/C7H10O2/c1-5-6(8)3-2-4-7(5)9/h5H,2-4H2,1H3
computed SMILES=O=C1CCCC(=O)C1C
accession=JP006347
date=2016.01.19 (Created 2008.10.21, modified 2011.05.06)
author=HISAHIRO HAGIWARA, CHEMICAL RESEARCH INSTITUTE OF NON-AQUEOUSSOLUTIONS TOHOKU UNIV.
license=CC BY-NC-SA
exact mass=126.06808
ionization energy=70 eV
ion type=[M]+*
computed spectral entropy=3.1663974357409237
computed normalized entropy=0.7798157559450188
SPLASH=splash10-0a6v-9100000000-f42b1ba9bd6ea75a904b
submitter=submitter = University of Tokyo Team (Faculty of Engineering, University of Tokyo)
MoNA Rating=3.75

>  <NUM PEAKS>  (4129) 
58

>  <MASS SPECTRAL PEAKS>  (4129) 
15 2.73
26 4.42
27 23.18
29 7.93
31 4.07
35 1.39
38 1.62
39 13.63
41 15.87
42 57.73
43 20.04
44 5.98
45 42.9
46 1.57
50 1.27
51 1.61
52 1.22
53 5.49
54 2.44
55 99.99
56 39.32
57 12.21
58 4.19
59 0.73
60 1.09
67 1.77
68 1.69
69 8.97
70 51.53
71 8.58
72 3.64
73 6.93
75 1.09
77 1.39
79 1.56
80 1.18
81 2.04
83 31.78
84 3.63
85 2.38
86 1.18
87 7.99
88 3.05
89 18.49
90 1.04
91 1.09
97 12.3
98 68.93
99 4.93
101 1.77
103 3.38
107 1.33
111 1.17
117 1.58
119 1.46
121 1.23
126 64.44
127 5.61

$$$$

     RDKit          2D

 11 11  0  0  1  0  0  0  0  0999 V2000
   -3.5376   -0.2051    0.0000 C   0  0  0  0  0  0  0  0  0  0  0  0
   -2.2386   -2.4551    0.0000 C   0  0  0  0  0  0  0  0  0  0  0  0
    2.9576    2.0449    0.0000 C   0  0  0  0  0  0  0  0  0  0  0  0
    0.3590    2.0458    0.0000 C   0  0  0  0  0  0  0  0  0  0  0  0
   -0.9400    1.2958    0.0000 C   0  0  0  0  0  0  0  0  0  0  0  0
    1.6590   -0.2059    0.0000 C   0  0  0  0  0  0  0  0  0  0  0  0
   -2.2386   -0.9551    0.0000 C   0  0  0  0  0  0  0  0  0  0  0  0
    1.6585    1.2949    0.0000 C   0  0  0  0  0  0  0  0  0  0  0  0
   -0.9395   -0.2051    0.0000 C   0  0  0  0  0  0  0  0  0  0  0  0
    0.3600   -0.9559    0.0000 C   0  0  0  0  0  0  0  0  0  0  0  0
    0.3597   -2.4559    0.0000 O   0  0  0  0  0  0  0  0  0  0  0  0
  5  4  1  0
  7  1  1  0
  7  2  1  0
  8  3  1  1
  8  4  1  0
  8  6  1  0
  9  5  1  0
  9  7  1  6
 10  6  1  0
 10  9  1  0
 10 11  1  1
M  END
>  <NAME>  (4130) 
L-MENTHOL

>  <SYNONYMS>  (4130) 


>  <SPECTRUM TYPE>  (4130) 
MS1

>  <INSTRUMENT TYPE>  (4130) 
EI-B

>  <INSTRUMENT>  (4130) 
JEOL JMS-DX-300

>  <ION MODE>  (4130) 
P

>  <INCHIKEY>  (4130) 
NOOLISFMXDJSKH-KXUCPTDWSA-N

>  <FORMULA>  (4130) 
C10H20O

>  <EXACT MASS>  (4130) 
156.15141526

>  <MW>  (4130) 
156

>  <ID>  (4130) 
JP006346

>  <CONTRIBUTOR>  (4130) 
University of Tokyo Team, {Faculty of Engineering, University of Tokyo

>  <COMMENT>  (4130) 
SMILES=CC(C1)CC(O)C(C1)C(C)C
InChI=InChI=1S/C10H20O/c1-7(2)9-5-4-8(3)6-10(9)11/h7-11H,4-6H2,1-3H3/t8-,9+,10-/m1/s1
computed SMILES=OC1CC(C)CCC1C(C)C
accession=JP006346
date=2016.01.19 (Created 2008.10.21, modified 2011.05.06)
author=HISAHIRO HAGIWARA, CHEMICAL RESEARCH INSTITUTE OF NON-AQUEOUSSOLUTIONS TOHOKU UNIV.
license=CC BY-NC-SA
exact mass=156.15142
ionization energy=70 eV
ion type=[M]+*
computed spectral entropy=3.1827061704094217
computed normalized entropy=0.8266452353659922
SPLASH=splash10-00ea-9100000000-977cf0c036d597693beb
submitter=submitter = University of Tokyo Team (Faculty of Engineering, University of Tokyo)
MoNA Rating=3.75

>  <NUM PEAKS>  (4130) 
47

>  <MASS SPECTRAL PEAKS>  (4130) 
31 2.54
39 7.5
41 31.66
42 5.65
43 25.55
45 1.05
53 5.75
54 3.94
55 38.26
56 19.23
57 25.5
58 2.46
65 1.21
67 24.71
68 13.3
69 30.45
70 11.59
71 99.99
72 5.59
73 1.44
77 2.58
79 2.9
80 12.38
81 83.29
82 39.86
83 14.66
84 3.56
85 8.97
86 4.25
93 2.6
94 5.16
95 68.51
96 31.73
97 5.55
99 4.21
105 1.45
109 11.84
110 5.93
111 1.65
112 0.18
113 1.58
123 30.22
124 3.45
137 1.24
138 33.18
139 4.25
141 1.79

$$$$

     RDKit          2D

  9  9  0  0  0  0  0  0  0  0999 V2000
    2.6052   -0.7613    0.0000 C   0  0  0  0  0  0  0  0  0  0  0  0
   -2.6041   -0.8953    0.0000 C   0  0  0  0  0  0  0  0  0  0  0  0
   -0.0300    2.1400    0.0000 C   0  0  0  0  0  0  0  0  0  0  0  0
    1.2600    1.4400    0.0000 C   0  0  0  0  0  0  0  0  0  0  0  0
   -1.3200    1.4000    0.0000 C   0  0  0  0  0  0  0  0  0  0  0  0
    1.2900   -0.0400    0.0000 C   0  0  0  0  0  0  0  0  0  0  0  0
   -1.3200   -0.1200    0.0000 C   0  0  0  0  0  0  0  0  0  0  0  0
    0.0100   -0.8200    0.0000 C   0  0  0  0  0  0  0  0  0  0  0  0
    0.0571   -2.3193    0.0000 O   0  0  0  0  0  0  0  0  0  0  0  0
  4  3  1  0
  5  3  1  0
  6  1  1  0
  6  4  2  0
  7  2  1  0
  7  5  1  0
  8  6  1  0
  8  7  1  0
  9  8  2  0
M  END
>  <NAME>  (4131) 
2,6-DIMETHYL-2-CYCLOHEXENONE

>  <SYNONYMS>  (4131) 


>  <SPECTRUM TYPE>  (4131) 
MS1

>  <INSTRUMENT TYPE>  (4131) 
EI-B

>  <INSTRUMENT>  (4131) 
JEOL JMS-DX-300

>  <ION MODE>  (4131) 
P

>  <INCHIKEY>  (4131) 
OBDPTOBECPVDMB-UHFFFAOYSA-N

>  <FORMULA>  (4131) 
C8H12O

>  <EXACT MASS>  (4131) 
124.088815004

>  <MW>  (4131) 
124

>  <ID>  (4131) 
JP006345

>  <CONTRIBUTOR>  (4131) 
University of Tokyo Team, {Faculty of Engineering, University of Tokyo

>  <COMMENT>  (4131) 
SMILES=CC(C1)C(=O)C(C)=CC1
InChI=InChI=1S/C8H12O/c1-6-4-3-5-7(2)8(6)9/h4,7H,3,5H2,1-2H3
computed SMILES=O=C1C(=CCCC1C)C
accession=JP006345
date=2016.01.19 (Created 2008.10.21, modified 2011.05.06)
author=HISAHIRO HAGIWARA, CHEMICAL RESEARCH INSTITUTE OF NON-AQUEOUSSOLUTIONS TOHOKU UNIV.
license=CC BY-NC-SA
exact mass=124.08882
ionization energy=70 eV
ion type=[M]+*
computed spectral entropy=2.7128458992113185
computed normalized entropy=0.730521947731822
SPLASH=splash10-001i-9100000000-8dbaafb962c39fc9695c
submitter=submitter = University of Tokyo Team (Faculty of Engineering, University of Tokyo)
MoNA Rating=3.75

>  <NUM PEAKS>  (4131) 
41

>  <MASS SPECTRAL PEAKS>  (4131) 
31 1.48
32 16.42
37 1.83
38 1.48
39 14.81
41 11.17
42 1.58
43 0.12
44 1.13
45 2.33
50 1.36
51 2.56
52 2.18
53 6.43
54 27.62
55 8.64
56 3.04
57 1.86
58 2.11
59 2.59
63 0.98
65 2.56
67 4.22
68 2.59
69 8.84
70 1.66
73 5.2
77 1.68
79 3.21
81 3.59
82 99.99
83 6.35
85 1.68
87 2.61
91 2.08
95 2.23
96 3.11
101 2.39
109 1.98
124 46.85
125 5.05

$$$$

     RDKit          2D

 12 12  0  0  0  0  0  0  0  0999 V2000
   -2.3489   -3.4543    0.0000 C   0  0  0  0  0  0  0  0  0  0  0  0
    0.2500   -1.9700    0.0000 C   0  0  0  0  0  0  0  0  0  0  0  0
    1.5700   -1.2100    0.0000 C   0  0  0  0  0  0  0  0  0  0  0  0
   -2.3423   -1.9543    0.0000 C   0  0  0  0  0  0  0  0  0  0  0  0
   -1.0400   -1.2100    0.0000 C   0  0  0  0  0  0  0  0  0  0  0  0
    1.5700    0.3000    0.0000 C   0  0  0  0  0  0  0  0  0  0  0  0
   -1.0400    0.3000    0.0000 C   0  0  0  0  0  0  0  0  0  0  0  0
    0.2500    1.0500    0.0000 C   0  0  0  0  0  0  0  0  0  0  0  0
   -3.6381   -1.1986    0.0000 O   0  0  0  0  0  0  0  0  0  0  0  0
    2.8664    1.0545    0.0000 O   0  0  0  0  0  0  0  0  0  0  0  0
   -2.3402    1.0480    0.0000 O   0  0  0  0  0  0  0  0  0  0  0  0
    0.2426    2.5500    0.0000 O   0  0  0  0  0  0  0  0  0  0  0  0
  3  2  2  0
  4  1  1  0
  5  2  1  0
  5  4  1  0
  6  3  1  0
  7  5  2  0
  8  6  2  0
  8  7  1  0
  9  4  2  0
 10  6  1  0
 11  7  1  0
 12  8  1  0
M  END
>  <NAME>  (4132) 
2,3,4-TRIHYDROXYACETOPHENONE

>  <SYNONYMS>  (4132) 


>  <SPECTRUM TYPE>  (4132) 
MS1

>  <INSTRUMENT TYPE>  (4132) 
EI-B

>  <INSTRUMENT>  (4132) 
HITACHI RMU-7L

>  <ION MODE>  (4132) 
P

>  <INCHIKEY>  (4132) 
XIROXSOOOAZHLL-UHFFFAOYSA-N

>  <FORMULA>  (4132) 
C8H8O4

>  <EXACT MASS>  (4132) 
168.042258736

>  <MW>  (4132) 
168

>  <ID>  (4132) 
JP006344

>  <CONTRIBUTOR>  (4132) 
University of Tokyo Team, {Faculty of Engineering, University of Tokyo

>  <COMMENT>  (4132) 
SMILES=CC(=O)c(c1)c(O)c(O)c(O)c1
InChI=InChI=1S/C8H8O4/c1-4(9)5-2-3-6(10)8(12)7(5)11/h2-3,10-12H,1H3
computed SMILES=O=C(C1=CC=C(O)C(O)=C1O)C
accession=JP006344
date=2016.01.19 (Created 2008.10.21, modified 2011.05.06)
author=EGUCHI S, FAC. OF SCIENCE, HIROSHIMA UNIV.
license=CC BY-NC-SA
exact mass=168.04226
ionization energy=70 eV
ion type=[M]+*
computed spectral entropy=2.393089044862087
computed normalized entropy=0.6444170200218807
SPLASH=splash10-0udi-3900000000-8961e8b0df80eb14cfea
submitter=submitter = University of Tokyo Team (Faculty of Engineering, University of Tokyo)
MoNA Rating=3.75

>  <NUM PEAKS>  (4132) 
41

>  <MASS SPECTRAL PEAKS>  (4132) 
40 1.2
41 4.5
42 1
43 1.04
51 6.2
52 3.5
53 5.5
55 0.3
62 1.5
63 3.5
64 1
65 0.43
66 3.8
67 2.7
68 4
69 0.1
70 1
78 2.5
79 11.5
81 0.1
83 1
93 5
94 1.1
95 0.11
97 1.5
106 2.5
107 6
108 0.1
109 1
121 2.2
122 1
123 0.1
124 1.2
125 4.5
135 1.5
148 0.1
149 5.2
153 99.99
154 8.5
168 5.1
169 5.5

$$$$

     RDKit          2D

 14 14  0  0  0  0  0  0  0  0999 V2000
    3.5724    2.7374    0.0000 C   0  0  0  0  0  0  0  0  0  0  0  0
   -2.9227   -1.0126    0.0000 C   0  0  0  0  0  0  0  0  0  0  0  0
   -0.3248    3.4885    0.0000 C   0  0  0  0  0  0  0  0  0  0  0  0
    0.9748   -1.7634    0.0000 C   0  0  0  0  0  0  0  0  0  0  0  0
   -0.3252    0.4883    0.0000 C   0  0  0  0  0  0  0  0  0  0  0  0
    3.5724    1.2374    0.0000 C   0  0  0  0  0  0  0  0  0  0  0  0
   -0.3247   -1.0126    0.0000 C   0  0  0  0  0  0  0  0  0  0  0  0
    2.2739   -1.0134    0.0000 C   0  0  0  0  0  0  0  0  0  0  0  0
    0.9739    1.2383    0.0000 C   0  0  0  0  0  0  0  0  0  0  0  0
    2.2734    0.4874    0.0000 C   0  0  0  0  0  0  0  0  0  0  0  0
    4.8715    0.4874    0.0000 O   0  0  0  0  0  0  0  0  0  0  0  0
    3.5730   -1.7632    0.0000 O   0  0  0  0  0  0  0  0  0  0  0  0
   -1.6237   -1.7626    0.0000 O   0  0  0  0  0  0  0  0  0  0  0  0
    0.9741    2.7383    0.0000 O   0  0  0  0  0  0  0  0  0  0  0  0
  6  1  1  0
  7  4  2  0
  7  5  1  0
  8  4  1  0
  9  5  2  0
 10  6  1  0
 10  8  2  0
 10  9  1  0
 11  6  2  0
 12  8  1  0
 13  2  1  0
 13  7  1  0
 14  3  1  0
 14  9  1  0
M  END
>  <NAME>  (4133) 
2-HYDROXY-4,6-DIMETHOXYACETOPHENONE

>  <SYNONYMS>  (4133) 


>  <SPECTRUM TYPE>  (4133) 
MS1

>  <INSTRUMENT TYPE>  (4133) 
EI-B

>  <INSTRUMENT>  (4133) 
HITACHI RMU-7L

>  <ION MODE>  (4133) 
P

>  <INCHIKEY>  (4133) 
FBUBVLUPUDBFME-UHFFFAOYSA-N

>  <FORMULA>  (4133) 
C10H12O4

>  <EXACT MASS>  (4133) 
196.073558864

>  <MW>  (4133) 
196

>  <ID>  (4133) 
JP006343

>  <CONTRIBUTOR>  (4133) 
University of Tokyo Team, {Faculty of Engineering, University of Tokyo

>  <COMMENT>  (4133) 
SMILES=COc(c1)cc(OC)c(C(C)=O)c(O)1
InChI=InChI=1S/C10H12O4/c1-6(11)10-8(12)4-7(13-2)5-9(10)14-3/h4-5,12H,1-3H3
computed SMILES=O=C(C=1C(O)=CC(OC)=CC1OC)C
accession=JP006343
date=2016.01.19 (Created 2008.10.21, modified 2011.05.06)
author=EGUCHI S, FAC. OF SCIENCE, HIROSHIMA UNIV.
license=CC BY-NC-SA
exact mass=196.07356
ionization energy=70 eV
ion type=[M]+*
computed spectral entropy=2.7828094302227564
computed normalized entropy=0.6716676173952101
SPLASH=splash10-001i-2900000000-7f4577d7995fbddd577f
submitter=submitter = University of Tokyo Team (Faculty of Engineering, University of Tokyo)
MoNA Rating=3.75

>  <NUM PEAKS>  (4133) 
63

>  <MASS SPECTRAL PEAKS>  (4133) 
40 1.5
41 2.8
42 1.2
43 0.95
50 2.5
51 4.5
52 2.5
53 0.55
54 2.5
55 3.2
59 2.5
61 0.15
62 2.5
63 3
64 2.2
65 0.35
66 3.2
67 2.7
68 1.5
69 0.7
77 3
79 3
80 2
81 0.27
82 1.2
83 1.2
84 2.1
91 0.2
92 1
93 1
94 1.2
95 0.63
108 1.5
109 2.5
110 3
111 0.25
119 1
121 1.8
122 1.8
123 0.37
124 1.8
125 2.8
135 1.5
136 0.1
137 8
138 5.5
139 1.1
149 0.1
151 2.7
152 1
153 1.5
163 0.18
165 1.5
166 5.5
167 2
177 0.19
178 2.8
179 1.7
181 99.99
182 0.9
195 1
196 30.5
197 4.2

$$$$

     RDKit          2D

 11 11  0  0  0  0  0  0  0  0999 V2000
    2.5987    3.0002    0.0000 C   0  0  0  0  0  0  0  0  0  0  0  0
   -1.3000    0.7500    0.0000 C   0  0  0  0  0  0  0  0  0  0  0  0
    0.0000    1.5000    0.0000 C   0  0  0  0  0  0  0  0  0  0  0  0
   -0.0000   -1.5000    0.0000 C   0  0  0  0  0  0  0  0  0  0  0  0
    2.5989    1.5002    0.0000 C   0  0  0  0  0  0  0  0  0  0  0  0
   -1.3000   -0.7500    0.0000 C   0  0  0  0  0  0  0  0  0  0  0  0
    1.3000    0.7500    0.0000 C   0  0  0  0  0  0  0  0  0  0  0  0
    1.3000   -0.7500    0.0000 C   0  0  0  0  0  0  0  0  0  0  0  0
    3.8981    0.7504    0.0000 O   0  0  0  0  0  0  0  0  0  0  0  0
   -2.5989   -1.5002    0.0000 O   0  0  0  0  0  0  0  0  0  0  0  0
    2.5989   -1.5002    0.0000 O   0  0  0  0  0  0  0  0  0  0  0  0
  3  2  2  0
  5  1  1  0
  6  2  1  0
  6  4  2  0
  7  3  1  0
  7  5  1  0
  8  4  1  0
  8  7  2  0
  9  5  2  0
 10  6  1  0
 11  8  1  0
M  END
>  <NAME>  (4134) 
2,4-DIHYDROXYACETOPHENONE

>  <SYNONYMS>  (4134) 


>  <SPECTRUM TYPE>  (4134) 
MS1

>  <INSTRUMENT TYPE>  (4134) 
EI-B

>  <INSTRUMENT>  (4134) 
HITACHI RMU-7L

>  <ION MODE>  (4134) 
P

>  <INCHIKEY>  (4134) 
SULYEHHGGXARJS-UHFFFAOYSA-N

>  <FORMULA>  (4134) 
C8H8O3

>  <EXACT MASS>  (4134) 
152.04734411599998

>  <MW>  (4134) 
152

>  <ID>  (4134) 
JP006342

>  <CONTRIBUTOR>  (4134) 
University of Tokyo Team, {Faculty of Engineering, University of Tokyo

>  <COMMENT>  (4134) 
SMILES=CC(=O)c(c1)c(O)cc(O)c1
InChI=InChI=1S/C8H8O3/c1-5(9)7-3-2-6(10)4-8(7)11/h2-4,10-11H,1H3
computed SMILES=O=C(C1=CC=C(O)C=C1O)C
accession=JP006342
license=CC BY-NC-SA
date=2016.01.19 (Created 2008.10.21, modified 2011.05.06)
author=EGUCHI S, FAC. OF SCIENCE, HIROSHIMA UNIV.
exact mass=152.04734
ionization energy=70 eV
ion type=[M]+*
computed spectral entropy=2.1825840209436316
computed normalized entropy=0.6355830383097959
SPLASH=splash10-000i-3900000000-2c2de3cf148f6a68d182
submitter=submitter = University of Tokyo Team (Faculty of Engineering, University of Tokyo)
MoNA Rating=3.75

>  <NUM PEAKS>  (4134) 
31

>  <MASS SPECTRAL PEAKS>  (4134) 
41 3
42 2.9
43 8.2
51 0.3
52 2.4
53 7.4
54 2.5
55 0.4
62 2.1
63 3.5
64 1
65 0.15
69 8.5
77 2.7
78 2
79 0.22
80 2.2
81 11.8
82 2.5
95 0.18
105 2
108 2.5
109 4.5
110 0.25
123 3
137 99.99
138 8.5
139 0.25
152 46
153 5
154 1

$$$$

     RDKit          2D

 11 11  0  0  0  0  0  0  0  0999 V2000
   -2.6300   -1.5107    0.0000 C   0  0  0  0  0  0  0  0  0  0  0  0
    3.8980    2.2543    0.0000 C   0  0  0  0  0  0  0  0  0  0  0  0
   -1.3199    2.2329    0.0000 C   0  0  0  0  0  0  0  0  0  0  0  0
   -0.0499   -0.0171    0.0000 C   0  0  0  0  0  0  0  0  0  0  0  0
   -0.0499    2.9829    0.0000 C   0  0  0  0  0  0  0  0  0  0  0  0
    1.3001    0.7329    0.0000 C   0  0  0  0  0  0  0  0  0  0  0  0
   -2.6227   -0.0107    0.0000 C   0  0  0  0  0  0  0  0  0  0  0  0
   -1.3199    0.7329    0.0000 C   0  0  0  0  0  0  0  0  0  0  0  0
    1.3001    2.2329    0.0000 C   0  0  0  0  0  0  0  0  0  0  0  0
   -3.9180    0.7457    0.0000 O   0  0  0  0  0  0  0  0  0  0  0  0
    2.5929    2.9936    0.0000 O   0  0  0  0  0  0  0  0  0  0  0  0
  5  3  2  0
  6  4  1  0
  7  1  1  0
  8  3  1  0
  8  4  2  0
  8  7  1  0
  9  5  1  0
  9  6  2  0
 10  7  2  0
 11  2  1  0
 11  9  1  0
M  END
>  <NAME>  (4135) 
4-METHOXYACETOPHENONE

>  <SYNONYMS>  (4135) 


>  <SPECTRUM TYPE>  (4135) 
MS1

>  <INSTRUMENT TYPE>  (4135) 
EI-B

>  <INSTRUMENT>  (4135) 
HITACHI RMU-7L

>  <ION MODE>  (4135) 
P

>  <INCHIKEY>  (4135) 
NTPLXRHDUXRPNE-UHFFFAOYSA-N

>  <FORMULA>  (4135) 
C9H10O2

>  <EXACT MASS>  (4135) 
150.06807956

>  <MW>  (4135) 
150

>  <ID>  (4135) 
JP006341

>  <CONTRIBUTOR>  (4135) 
University of Tokyo Team, {Faculty of Engineering, University of Tokyo

>  <COMMENT>  (4135) 
SMILES=COc(c1)ccc(c1)C(C)=O
InChI=InChI=1S/C9H10O2/c1-7(10)8-3-5-9(11-2)6-4-8/h3-6H,1-2H3
computed SMILES=O=C(C1=CC=C(OC)C=C1)C
accession=JP006341
date=2016.01.19 (Created 2008.10.21, modified 2011.05.06)
author=EGUCHI S, FAC. OF SCIENCE, HIROSHIMA UNIV.
license=CC BY-NC-SA
exact mass=150.06808
ionization energy=70 eV
ion type=[M]+*
computed spectral entropy=2.527968283380374
computed normalized entropy=0.7110325739307088
SPLASH=splash10-000i-5900000000-0be5991ccb2021dc5422
submitter=submitter = University of Tokyo Team (Faculty of Engineering, University of Tokyo)
MoNA Rating=3.75

>  <NUM PEAKS>  (4135) 
35

>  <MASS SPECTRAL PEAKS>  (4135) 
40 1
41 1.5
42 2.5
43 1.82
49 1.8
50 9.5
51 8.5
52 0.45
53 3.5
61 2.5
62 4.5
63 0.96
64 9.5
65 2.8
74 3.1
75 0.31
76 4.5
77 29
78 5.6
79 0.3
91 2
92 19.5
93 2
104 0.25
105 2.5
106 2.3
107 13.2
108 0.32
119 1.8
120 2.5
121 2.7
135 99.99
136 9.2
150 40.5
151 5

$$$$

     RDKit          2D

 15 15  0  0  0  0  0  0  0  0999 V2000
    3.3281   -0.4204    0.0000 C   0  0  0  0  0  0  0  0  0  0  0  0
   -1.8707   -3.4190    0.0000 C   0  0  0  0  0  0  0  0  0  0  0  0
   -2.6198   -2.1194    0.0000 H   0  0  0  0  0  0  0  0  0  0  0  0
   -3.1704   -4.1680    0.0000 H   0  0  0  0  0  0  0  0  0  0  0  0
   -1.1217   -4.7186    0.0000 H   0  0  0  0  0  0  0  0  0  0  0  0
   -1.9000    1.1000    0.0000 C   0  0  0  0  0  0  0  0  0  0  0  0
   -0.6000    1.8400    0.0000 C   0  0  0  0  0  0  0  0  0  0  0  0
   -1.9000   -0.4000    0.0000 C   0  0  0  0  0  0  0  0  0  0  0  0
    2.0289   -1.1702    0.0000 C   0  0  0  0  0  0  0  0  0  0  0  0
    0.7300    1.0700    0.0000 C   0  0  0  0  0  0  0  0  0  0  0  0
   -0.5700   -1.1700    0.0000 C   0  0  0  0  0  0  0  0  0  0  0  0
    0.7300   -0.4200    0.0000 C   0  0  0  0  0  0  0  0  0  0  0  0
    2.0287   -2.6702    0.0000 O   0  0  0  0  0  0  0  0  0  0  0  0
    2.0295    1.8192    0.0000 O   0  0  0  0  0  0  0  0  0  0  0  0
   -0.5711   -2.6700    0.0000 O   0  0  0  0  0  0  0  0  0  0  0  0
  2  3  1  0
  2  4  1  0
  2  5  1  0
  7  6  2  0
  8  6  1  0
  9  1  1  0
 10  7  1  0
 11  8  2  0
 12  9  1  0
 12 10  2  0
 12 11  1  0
 13  9  2  0
 14 10  1  0
 15  2  1  0
 15 11  1  0
M  ISO  3   3   2   4   2   5   2
M  END
>  <NAME>  (4136) 
2-HYDROXY-6-METHOXYACETOPHENONE (6,6,6-D3)

>  <SYNONYMS>  (4136) 
2-HYDROXY-6-DEUTEROMETHOXYACETOPHENONE

>  <SPECTRUM TYPE>  (4136) 
MS1

>  <INSTRUMENT TYPE>  (4136) 
EI-B

>  <INSTRUMENT>  (4136) 
HITACHI RMU-7L

>  <ION MODE>  (4136) 
P

>  <INCHIKEY>  (4136) 
UENLHUMCIOWYQN-BMSJAHLVSA-N

>  <FORMULA>  (4136) 
C9H10O3

>  <EXACT MASS>  (4136) 
169.081824418

>  <MW>  (4136) 
169

>  <ID>  (4136) 
JP006340

>  <CONTRIBUTOR>  (4136) 
University of Tokyo Team, {Faculty of Engineering, University of Tokyo

>  <COMMENT>  (4136) 
SMILES=[2H]C([2H])([2H])Oc(c1)c(C(C)=O)c(O)cc1
InChI=InChI=1S/C9H10O3/c1-6(10)9-7(11)4-3-5-8(9)12-2/h3-5,11H,1-2H3/i2D3
computed SMILES=[H]C([H])([H])OC=1C=CC=C(O)C1C(=O)C
accession=JP006340
date=2016.01.19 (Created 2008.10.21, modified 2011.05.06)
author=EGUCHI S, FAC. OF SCIENCE, HIROSHIMA UNIV.
license=CC BY-NC-SA
exact mass=166.06299
ionization energy=70 eV
ion type=[M]+*
computed spectral entropy=3.307898052407145
computed normalized entropy=0.8112489702212603
SPLASH=splash10-0udi-9500000000-552276658ba27c7087cc
submitter=submitter = University of Tokyo Team (Faculty of Engineering, University of Tokyo)
MoNA Rating=3.75

>  <NUM PEAKS>  (4136) 
59

>  <MASS SPECTRAL PEAKS>  (4136) 
40 11
41 7.5
42 12.5
43 7.95
44 5.5
49 2.5
50 19.5
51 4.95
52 45.5
53 40
54 3.8
55 1.07
56 2.5
61 3
62 11.5
63 1.95
64 9.5
65 13.8
66 34.5
67 1
68 5.5
69 9.5
70 6
74 0.4
75 3.5
76 3.5
77 16.5
78 0.75
79 12
80 14.5
81 4
82 0.15
83 3.5
91 2
92 3
93 0.35
94 11
95 3.9
98 3
105 0.35
106 1
107 5.5
108 19.5
109 0.3
121 2.5
122 4
123 2.8
136 1.35
137 3.8
149 3
150 3.5
151 0.4
152 3
153 6
154 99.99
155 1.05
169 34
170 5.5
171 1

$$$$

     RDKit          2D

 12 12  0  0  0  0  0  0  0  0999 V2000
    3.3281   -0.4204    0.0000 C   0  0  0  0  0  0  0  0  0  0  0  0
   -1.8707   -3.4190    0.0000 C   0  0  0  0  0  0  0  0  0  0  0  0
   -1.9000    1.1000    0.0000 C   0  0  0  0  0  0  0  0  0  0  0  0
   -0.6000    1.8400    0.0000 C   0  0  0  0  0  0  0  0  0  0  0  0
   -1.9000   -0.4000    0.0000 C   0  0  0  0  0  0  0  0  0  0  0  0
    2.0289   -1.1702    0.0000 C   0  0  0  0  0  0  0  0  0  0  0  0
    0.7300    1.0700    0.0000 C   0  0  0  0  0  0  0  0  0  0  0  0
   -0.5700   -1.1700    0.0000 C   0  0  0  0  0  0  0  0  0  0  0  0
    0.7300   -0.4200    0.0000 C   0  0  0  0  0  0  0  0  0  0  0  0
    2.0287   -2.6702    0.0000 O   0  0  0  0  0  0  0  0  0  0  0  0
    2.0295    1.8192    0.0000 O   0  0  0  0  0  0  0  0  0  0  0  0
   -0.5711   -2.6700    0.0000 O   0  0  0  0  0  0  0  0  0  0  0  0
  4  3  2  0
  5  3  1  0
  6  1  1  0
  7  4  1  0
  8  5  2  0
  9  6  1  0
  9  7  2  0
  9  8  1  0
 10  6  2  0
 11  7  1  0
 12  2  1  0
 12  8  1  0
M  END
>  <NAME>  (4137) 
2-HYDROXY-6-METHOXYACETHPHENONE

>  <SYNONYMS>  (4137) 


>  <SPECTRUM TYPE>  (4137) 
MS1

>  <INSTRUMENT TYPE>  (4137) 
EI-B

>  <INSTRUMENT>  (4137) 
HITACHI RMU-7L

>  <ION MODE>  (4137) 
P

>  <INCHIKEY>  (4137) 
UENLHUMCIOWYQN-UHFFFAOYSA-N

>  <FORMULA>  (4137) 
C9H10O3

>  <EXACT MASS>  (4137) 
166.06299417999998

>  <MW>  (4137) 
166

>  <ID>  (4137) 
JP006339

>  <CONTRIBUTOR>  (4137) 
University of Tokyo Team, {Faculty of Engineering, University of Tokyo

>  <COMMENT>  (4137) 
SMILES=COc(c1)c(C(C)=O)c(O)cc1
InChI=InChI=1S/C9H10O3/c1-6(10)9-7(11)4-3-5-8(9)12-2/h3-5,11H,1-2H3
computed SMILES=O=C(C=1C(O)=CC=CC1OC)C
accession=JP006339
date=2016.01.19 (Created 2008.10.21, modified 2011.05.06)
author=EGUCHI S, FAC. OF SCIENCE, HIROSHIMA UNIV.
license=CC BY-NC-SA
exact mass=166.06299
ionization energy=70 eV
ion type=[M]+*
computed spectral entropy=3.331011744727637
computed normalized entropy=0.8275082528551175
SPLASH=splash10-03xr-9700000000-02248fcb7b9a86d7776f
submitter=submitter = University of Tokyo Team (Faculty of Engineering, University of Tokyo)
MoNA Rating=3.75

>  <NUM PEAKS>  (4137) 
56

>  <MASS SPECTRAL PEAKS>  (4137) 
40 6.5
41 7
42 6.9
43 7.4
50 14
51 26
52 22.8
53 2.05
54 9.8
55 13
61 2
62 0.9
63 17
64 8.2
65 29.5
66 0.9
67 7
68 1.8
69 7
74 0.35
75 3.5
76 3.5
77 17
78 0.4
79 8.5
80 8.5
81 7
90 0.2
91 5.5
92 5.5
93 15.5
94 0.55
95 5
105 5.5
106 1.5
107 0.55
108 20.8
109 2.5
119 3.5
120 0.38
121 4.9
122 3.5
123 3.7
124 0.2
133 1.5
136 14.5
137 4.5
157 0.5
158 7.2
159 3.2
160 2
161 99.99
162 10
163 2.5
166 39.5
167 5

$$$$

     RDKit          2D

 15 15  0  0  0  0  0  0  0  0999 V2000
   -2.8011    0.7311    0.0000 C   0  0  0  0  0  0  0  0  0  0  0  0
    3.6949   -1.5195    0.0000 C   0  0  0  0  0  0  0  0  0  0  0  0
    2.9449   -2.8186    0.0000 H   0  0  0  0  0  0  0  0  0  0  0  0
    4.9940   -2.2695    0.0000 H   0  0  0  0  0  0  0  0  0  0  0  0
    4.4449   -0.2205    0.0000 H   0  0  0  0  0  0  0  0  0  0  0  0
    1.0973   -3.0204    0.0000 C   0  0  0  0  0  0  0  0  0  0  0  0
   -0.2017   -3.7704    0.0000 C   0  0  0  0  0  0  0  0  0  0  0  0
   -0.2027   -0.7687    0.0000 C   0  0  0  0  0  0  0  0  0  0  0  0
   -2.8008   -0.7689    0.0000 C   0  0  0  0  0  0  0  0  0  0  0  0
    1.0969   -1.5195    0.0000 C   0  0  0  0  0  0  0  0  0  0  0  0
   -1.5017   -1.5187    0.0000 C   0  0  0  0  0  0  0  0  0  0  0  0
   -1.5012   -3.0195    0.0000 C   0  0  0  0  0  0  0  0  0  0  0  0
   -4.0998   -1.5191    0.0000 O   0  0  0  0  0  0  0  0  0  0  0  0
   -2.8002   -3.7695    0.0000 O   0  0  0  0  0  0  0  0  0  0  0  0
    2.3959   -0.7695    0.0000 O   0  0  0  0  0  0  0  0  0  0  0  0
  2  3  1  0
  2  4  1  0
  2  5  1  0
  7  6  2  0
  9  1  1  0
 10  6  1  0
 10  8  2  0
 11  8  1  0
 11  9  1  0
 12  7  1  0
 12 11  2  0
 13  9  2  0
 14 12  1  0
 15  2  1  0
 15 10  1  0
M  ISO  3   3   2   4   2   5   2
M  END
>  <NAME>  (4138) 
2-HYDROXY-5-METHOXYACETOPHENONE (5,5,5-D3)

>  <SYNONYMS>  (4138) 
2-HYDROXY-5-DEUTEROMETHOXYACETOPHENONE

>  <SPECTRUM TYPE>  (4138) 
MS1

>  <INSTRUMENT TYPE>  (4138) 
EI-B

>  <INSTRUMENT>  (4138) 
HITACHI RMU-7L

>  <ION MODE>  (4138) 
P

>  <INCHIKEY>  (4138) 
MLIBGOFSXXWRIY-BMSJAHLVSA-N

>  <FORMULA>  (4138) 
C9H10O3

>  <EXACT MASS>  (4138) 
169.081824418

>  <MW>  (4138) 
169

>  <ID>  (4138) 
JP006338

>  <CONTRIBUTOR>  (4138) 
University of Tokyo Team, {Faculty of Engineering, University of Tokyo

>  <COMMENT>  (4138) 
SMILES=[2H]C([2H])([2H])Oc(c1)cc(C(C)=O)c(O)c1
InChI=InChI=1S/C9H10O3/c1-6(10)8-5-7(12-2)3-4-9(8)11/h3-5,11H,1-2H3/i2D3
computed SMILES=[H]C([H])([H])OC1=CC=C(O)C(=C1)C(=O)C
accession=JP006338
date=2016.01.19 (Created 2008.10.21, modified 2011.05.06)
author=EGUCHI S, FAC. OF SCIENCE, HIROSHIMA UNIV.
license=CC BY-NC-SA
exact mass=166.06299
ionization energy=70 eV
ion type=[M]+*
computed spectral entropy=3.486207069915213
computed normalized entropy=0.8001928080569428
SPLASH=splash10-0udi-8900000000-83ac0166cccfd92b7962
submitter=submitter = University of Tokyo Team (Faculty of Engineering, University of Tokyo)
MoNA Rating=3.75

>  <NUM PEAKS>  (4138) 
78

>  <MASS SPECTRAL PEAKS>  (4138) 
40 10
41 5
42 2.8
43 6.4
44 2.2
50 20
51 26
52 3.45
53 32
54 11
55 13
56 0.3
57 2
61 5.5
62 8.1
63 2.5
64 6
65 9.5
66 22.8
67 1.25
68 3.5
69 5.5
70 7.5
71 0.2
72 3
73 1.8
74 3.8
75 0.3
76 2
77 41
78 8.5
79 2.95
80 19.5
81 3
82 2
90 0.18
91 2.5
92 4.5
93 3.5
94 1
95 5.5
96 3
97 2.5
98 4.25
99 2.7
105 27.5
106 3.8
107 0.7
108 41
109 11
110 1
111 0.1
112 4.5
119 1
120 1
122 0.2
123 2.5
124 1.5
125 2.5
126 1.55
127 3
133 13
134 2
135 0.2
136 2
137 2
140 2.5
149 0.2
150 1.7
151 22.2
152 4
153 0.4
154 99.99
155 10.5
156 2.5
168 0.15
169 69.5
170 8.5

$$$$

     RDKit          2D

 12 12  0  0  0  0  0  0  0  0999 V2000
    3.2831   -2.2331    0.0000 C   0  0  0  0  0  0  0  0  0  0  0  0
   -3.2129    0.0176    0.0000 C   0  0  0  0  0  0  0  0  0  0  0  0
   -0.6153    1.5184    0.0000 C   0  0  0  0  0  0  0  0  0  0  0  0
    0.6837    2.2684    0.0000 C   0  0  0  0  0  0  0  0  0  0  0  0
    0.6847   -0.7333    0.0000 C   0  0  0  0  0  0  0  0  0  0  0  0
    3.2829   -0.7331    0.0000 C   0  0  0  0  0  0  0  0  0  0  0  0
   -0.6148    0.0176    0.0000 C   0  0  0  0  0  0  0  0  0  0  0  0
    1.9837    0.0167    0.0000 C   0  0  0  0  0  0  0  0  0  0  0  0
    1.9832    1.5176    0.0000 C   0  0  0  0  0  0  0  0  0  0  0  0
    4.5818    0.0171    0.0000 O   0  0  0  0  0  0  0  0  0  0  0  0
    3.2823    2.2676    0.0000 O   0  0  0  0  0  0  0  0  0  0  0  0
   -1.9139   -0.7324    0.0000 O   0  0  0  0  0  0  0  0  0  0  0  0
  4  3  2  0
  6  1  1  0
  7  3  1  0
  7  5  2  0
  8  5  1  0
  8  6  1  0
  9  4  1  0
  9  8  2  0
 10  6  2  0
 11  9  1  0
 12  2  1  0
 12  7  1  0
M  END
>  <NAME>  (4139) 
2-HYDROXY-5-METHOXYACETOPHENONE

>  <SYNONYMS>  (4139) 


>  <SPECTRUM TYPE>  (4139) 
MS1

>  <INSTRUMENT TYPE>  (4139) 
EI-B

>  <INSTRUMENT>  (4139) 
HITACHI RMU-7L

>  <ION MODE>  (4139) 
P

>  <INCHIKEY>  (4139) 
MLIBGOFSXXWRIY-UHFFFAOYSA-N

>  <FORMULA>  (4139) 
C9H10O3

>  <EXACT MASS>  (4139) 
166.06299417999998

>  <MW>  (4139) 
166

>  <ID>  (4139) 
JP006337

>  <CONTRIBUTOR>  (4139) 
University of Tokyo Team, {Faculty of Engineering, University of Tokyo

>  <COMMENT>  (4139) 
SMILES=COc(c1)cc(C(C)=O)c(O)c1
InChI=InChI=1S/C9H10O3/c1-6(10)8-5-7(12-2)3-4-9(8)11/h3-5,11H,1-2H3
computed SMILES=O=C(C1=CC(OC)=CC=C1O)C
accession=JP006337
date=2016.01.19 (Created 2008.10.21, modified 2011.05.06)
author=EGUCHI S, FAC. OF SCIENCE, HIROSHIMA UNIV.
license=CC BY-NC-SA
exact mass=166.06299
ionization energy=70 eV
ion type=[M]+*
computed spectral entropy=2.811068845478288
computed normalized entropy=0.7342209819013261
SPLASH=splash10-0uxr-4900000000-6e602d5739dc8a58efea
submitter=submitter = University of Tokyo Team (Faculty of Engineering, University of Tokyo)
MoNA Rating=3.75

>  <NUM PEAKS>  (4139) 
46

>  <MASS SPECTRAL PEAKS>  (4139) 
40 1.5
41 20.5
42 2.5
43 4
50 5.5
51 7.5
52 10.5
53 1.1
54 5.5
55 6.5
61 1
62 0.3
63 5
64 1.5
65 5
66 0.2
67 2.5
68 1
69 4.5
74 0.15
77 12
79 6.5
80 5
81 0.35
82 1.5
83 2
92 1
93 0.1
95 14
105 8
106 2.5
107 0.35
108 10.8
109 4.5
123 13.5
124 0.15
133 12
137 1.5
148 7
149 0.18
150 1
151 99.99
152 10.5
153 0.18
166 72
168 8.8

$$$$

     RDKit          2D

 15 15  0  0  0  0  0  0  0  0999 V2000
   -3.8978   -2.0496    0.0000 C   0  0  0  0  0  0  0  0  0  0  0  0
    2.5989    1.7010    0.0000 C   0  0  0  0  0  0  0  0  0  0  0  0
    1.8491    0.4019    0.0000 H   0  0  0  0  0  0  0  0  0  0  0  0
    3.8981    0.9513    0.0000 H   0  0  0  0  0  0  0  0  0  0  0  0
    3.3487    3.0002    0.0000 H   0  0  0  0  0  0  0  0  0  0  0  0
    0.0008    0.2006    0.0000 C   0  0  0  0  0  0  0  0  0  0  0  0
   -1.2992   -0.5494    0.0000 C   0  0  0  0  0  0  0  0  0  0  0  0
   -1.2992    2.4506    0.0000 C   0  0  0  0  0  0  0  0  0  0  0  0
   -3.8981   -0.5496    0.0000 C   0  0  0  0  0  0  0  0  0  0  0  0
    0.0008    1.7006    0.0000 C   0  0  0  0  0  0  0  0  0  0  0  0
   -2.5992    0.2006    0.0000 C   0  0  0  0  0  0  0  0  0  0  0  0
   -2.5992    1.7006    0.0000 C   0  0  0  0  0  0  0  0  0  0  0  0
   -5.1972    0.2002    0.0000 O   0  0  0  0  0  0  0  0  0  0  0  0
   -3.8981    2.4508    0.0000 O   0  0  0  0  0  0  0  0  0  0  0  0
    1.2998    2.4508    0.0000 O   0  0  0  0  0  0  0  0  0  0  0  0
  2  3  1  0
  2  4  1  0
  2  5  1  0
  7  6  2  0
  9  1  1  0
 10  6  1  0
 10  8  2  0
 11  7  1  0
 11  9  1  0
 12  8  1  0
 12 11  2  0
 13  9  2  0
 14 12  1  0
 15  2  1  0
 15 10  1  0
M  ISO  3   3   2   4   2   5   2
M  END
>  <NAME>  (4140) 
2-HYDROXY-4-METHOXYACETOPHENONE (4,4,4-D3)

>  <SYNONYMS>  (4140) 
2-HYDROXY-4-DEUTEROMETHOXYACETOPHENONE

>  <SPECTRUM TYPE>  (4140) 
MS1

>  <INSTRUMENT TYPE>  (4140) 
EI-B

>  <INSTRUMENT>  (4140) 
HITACHI RMU-7L

>  <ION MODE>  (4140) 
P

>  <INCHIKEY>  (4140) 
UILPJVPSNHJFIK-BMSJAHLVSA-N

>  <FORMULA>  (4140) 
C9H10O3

>  <EXACT MASS>  (4140) 
169.081824418

>  <MW>  (4140) 
169

>  <ID>  (4140) 
JP006336

>  <CONTRIBUTOR>  (4140) 
University of Tokyo Team, {Faculty of Engineering, University of Tokyo

>  <COMMENT>  (4140) 
SMILES=[2H]C([2H])([2H])Oc(c1)cc(O)c(c1)C(C)=O
InChI=InChI=1S/C9H10O3/c1-6(10)8-4-3-7(12-2)5-9(8)11/h3-5,11H,1-2H3/i2D3
computed SMILES=[H]C([H])([H])OC1=CC=C(C(O)=C1)C(=O)C
accession=JP006336
date=2016.01.19 (Created 2008.10.21, modified 2011.05.06)
author=EGUCHI S, FAC. OF SCIENCE, HIROSHIMA UNIV.
license=CC BY-NC-SA
exact mass=166.06299
ionization energy=70 eV
ion type=[M]+*
computed spectral entropy=2.5181577258002457
computed normalized entropy=0.6577157443132238
SPLASH=splash10-0udi-3900000000-47a88bad8ed95e738e65
submitter=submitter = University of Tokyo Team (Faculty of Engineering, University of Tokyo)
MoNA Rating=3.75

>  <NUM PEAKS>  (4140) 
46

>  <MASS SPECTRAL PEAKS>  (4140) 
40 2.5
41 2
42 2.5
43 1.85
44 1.5
50 4.2
51 7.5
52 0.83
53 6.3
54 1.9
55 2.5
62 0.25
63 5.4
64 2.2
65 2.5
66 0.45
67 1.8
69 6.5
70 1.5
77 0.25
79 6.5
80 4.2
81 1
91 0.1
93 1
94 3
97 1
98 1.98
99 1.5
105 1.5
107 1.5
108 0.8
123 1.8
125 1
126 3
136 0.1
137 1
140 3
151 1.1
152 0.18
153 5.5
154 99.99
155 12.5
168 0.25
169 44
170 3.8

$$$$

     RDKit          2D

 10 10  0  0  0  0  0  0  0  0999 V2000
    1.9487    3.0002    0.0000 C   0  0  0  0  0  0  0  0  0  0  0  0
   -1.9500    0.7500    0.0000 C   0  0  0  0  0  0  0  0  0  0  0  0
   -1.9500   -0.7500    0.0000 C   0  0  0  0  0  0  0  0  0  0  0  0
   -0.6500    1.5000    0.0000 C   0  0  0  0  0  0  0  0  0  0  0  0
   -0.6500   -1.5000    0.0000 C   0  0  0  0  0  0  0  0  0  0  0  0
    1.9489    1.5002    0.0000 C   0  0  0  0  0  0  0  0  0  0  0  0
    0.6500    0.7500    0.0000 C   0  0  0  0  0  0  0  0  0  0  0  0
    0.6500   -0.7500    0.0000 C   0  0  0  0  0  0  0  0  0  0  0  0
    3.2481    0.7504    0.0000 O   0  0  0  0  0  0  0  0  0  0  0  0
    1.9489   -1.5002    0.0000 O   0  0  0  0  0  0  0  0  0  0  0  0
  3  2  2  0
  4  2  1  0
  5  3  1  0
  6  1  1  0
  7  4  2  0
  7  6  1  0
  8  5  2  0
  8  7  1  0
  9  6  2  0
 10  8  1  0
M  END
>  <NAME>  (4141) 
O-HYDROXYACETOPHENONE

>  <SYNONYMS>  (4141) 


>  <SPECTRUM TYPE>  (4141) 
MS1

>  <INSTRUMENT TYPE>  (4141) 
EI-B

>  <INSTRUMENT>  (4141) 
HITACHI RMU-7L

>  <ION MODE>  (4141) 
P

>  <INCHIKEY>  (4141) 
JECYUBVRTQDVAT-UHFFFAOYSA-N

>  <FORMULA>  (4141) 
C8H8O2

>  <EXACT MASS>  (4141) 
136.052429496

>  <MW>  (4141) 
136

>  <ID>  (4141) 
JP006334

>  <CONTRIBUTOR>  (4141) 
University of Tokyo Team, {Faculty of Engineering, University of Tokyo

>  <COMMENT>  (4141) 
SMILES=CC(=O)c(c1)c(O)ccc1
InChI=InChI=1S/C8H8O2/c1-6(9)7-4-2-3-5-8(7)10/h2-5,10H,1H3
computed SMILES=O=C(C=1C=CC=CC1O)C
accession=JP006334
date=2016.01.19 (Created 2008.10.21, modified 2011.05.06)
author=EGUCHI S, FAC. OF SCIENCE, HIROSHIMA UNIV.
license=CC BY-NC-SA
exact mass=136.05243
ionization energy=70 eV
ion type=[M]+*
computed spectral entropy=2.768116704957497
computed normalized entropy=0.7609762582683982
SPLASH=splash10-00di-9700000000-721a4c1cfd24489043f3
submitter=submitter = University of Tokyo Team (Faculty of Engineering, University of Tokyo)
MoNA Rating=3.75

>  <NUM PEAKS>  (4141) 
38

>  <MASS SPECTRAL PEAKS>  (4141) 
43 19.5
44 3.3
49 1.9
50 0.68
51 9
52 3.5
53 10
54 0.35
55 5
61 5.5
62 8.2
63 1.45
64 7.5
65 35.5
66 9.5
75 0.47
76 4
77 9.5
78 4.5
79 0.4
80 5.5
81 4
89 3.8
90 0.48
91 3.5
92 5.5
93 27.2
94 0.95
95 4
104 1
105 4.5
106 0.1
107 4.5
121 99.99
122 10.5
123 0.1
136 44
137 6.5

$$$$

     RDKit          2D

 24 27  0  0  1  0  0  0  0  0999 V2000
    4.8236    1.8512    0.0000 C   0  0  0  0  0  0  0  0  0  0  0  0
   -1.1000    1.1500    0.0000 C   0  0  0  0  0  0  0  0  0  0  0  0
   -3.3641   -3.7492    0.0000 C   0  0  0  0  0  0  0  0  0  0  0  0
   -3.4264   -5.4190    0.0000 C   0  0  0  0  0  0  0  0  0  0  0  0
   -3.7000   -0.3500    0.0000 C   0  0  0  0  0  0  0  0  0  0  0  0
    0.9900    2.9800    0.0000 C   0  0  0  0  0  0  0  0  0  0  0  0
   -0.0300    1.8800    0.0000 C   0  0  0  0  0  0  0  0  0  0  0  0
    0.2000   -2.6000    0.0000 C   0  0  0  0  0  0  0  0  0  0  0  0
   -2.4000    0.4000    0.0000 C   0  0  0  0  0  0  0  0  0  0  0  0
   -3.7000   -1.8500    0.0000 C   0  0  0  0  0  0  0  0  0  0  0  0
    1.5000   -1.8500    0.0000 C   0  0  0  0  0  0  0  0  0  0  0  0
    1.3100    1.4800    0.0000 C   0  0  0  0  0  0  0  0  0  0  0  0
    3.3400    1.6300    0.0000 C   0  0  0  0  0  0  0  0  0  0  0  0
    2.4900    2.8700    0.0000 C   0  0  0  0  0  0  0  0  0  0  0  0
   -1.1000   -1.8500    0.0000 C   0  0  0  0  0  0  0  0  0  0  0  0
    0.2000    0.4000    0.0000 C   0  0  0  0  0  0  0  0  0  0  0  0
    2.8900    0.2000    0.0000 C   0  0  0  0  0  0  0  0  0  0  0  0
   -1.4359   -3.7492    0.0000 C   0  0  0  0  0  0  0  0  0  0  0  0
   -1.1000   -0.3500    0.0000 C   0  0  0  0  0  0  0  0  0  0  0  0
   -2.4000   -2.6000    0.0000 C   0  0  0  0  0  0  0  0  0  0  0  0
    1.5000   -0.3500    0.0000 C   0  0  0  0  0  0  0  0  0  0  0  0
    3.9881   -0.8218    0.0000 O   0  0  0  0  0  0  0  0  0  0  0  0
    0.0413   -3.4889    0.0000 O   0  0  0  0  0  0  0  0  0  0  0  0
   -1.9491   -5.1587    0.0000 O   0  0  0  0  0  0  0  0  0  0  0  0
  7  6  1  0
  9  5  1  0
 10  5  1  0
 11  8  1  0
 13  1  1  1
 14  6  1  6
 14 12  1  0
 14 13  1  0
 15  8  1  1
 16  7  1  1
 17 13  1  0
 19  2  1  1
 19  9  1  0
 19 15  1  0
 19 16  1  0
 20  3  1  1
 20 10  1  0
 20 15  1  0
 20 18  1  0
 21 11  1  1
 21 12  1  0
 21 16  1  0
 21 17  1  0
 22 17  2  0
 23 18  2  0
 24  4  1  0
 24 18  1  0
M  END
>  <NAME>  (4142) 
(16R)-ENT-15-OXOKAURAN-18-OIC ACID METHYLESTER

>  <SYNONYMS>  (4142) 


>  <SPECTRUM TYPE>  (4142) 
MS1

>  <INSTRUMENT TYPE>  (4142) 
EI-B

>  <INSTRUMENT>  (4142) 
HITACHI RMU-7L

>  <ION MODE>  (4142) 
P

>  <INCHIKEY>  (4142) 
PRNXIACAYGXMDC-OFJPHGDMSA-N

>  <FORMULA>  (4142) 
C21H32O3

>  <EXACT MASS>  (4142) 
332.23514488399996

>  <MW>  (4142) 
332

>  <ID>  (4142) 
JP006333

>  <CONTRIBUTOR>  (4142) 
University of Tokyo Team, {Faculty of Engineering, University of Tokyo

>  <COMMENT>  (4142) 
SMILES=COC(=O)C(C)(C4)C([H])(C3)C(C)(CC4)C([H])(C2)C(C3)(C1)C(=O)C([H])(C)C([H])(C2)1
InChI=InChI=1S/C21H32O3/c1-13-14-6-7-16-19(2)9-5-10-20(3,18(23)24-4)15(19)8-11-21(16,12-14)17(13)22/h13-16H,5-12H2,1-4H3/t13-,14+,15-,16-,19+,20-,21+/m1/s1
computed SMILES=O=C(OC)C1(C)CCCC2(C)C1CCC34C(=O)C(C)C(CCC32)C4
accession=JP006333
date=2016.01.19 (Created 2008.10.21, modified 2011.05.06)
author=EGUCHI S, FAC. OF SCIENCE, HIROSHIMA UNIV.
license=CC BY-NC-SA
exact mass=332.23514
ionization energy=70 eV
ion type=[M]+*
computed spectral entropy=3.9362185339858073
computed normalized entropy=0.8705003489027827
SPLASH=splash10-0096-9510000000-dc75397f8b45df1bb7ee
submitter=submitter = University of Tokyo Team (Faculty of Engineering, University of Tokyo)
MoNA Rating=3.75

>  <NUM PEAKS>  (4142) 
92

>  <MASS SPECTRAL PEAKS>  (4142) 
40 4
41 99.99
42 10.5
43 5.2
45 7
53 27.2
54 7
55 8.35
56 13.8
57 28.5
58 5.5
59 1.65
65 13
66 5.5
67 46
68 0.95
69 28
70 5.5
71 11.5
73 0.85
77 30
78 7
79 58
80 1.3
81 51
82 9
83 11.4
84 0.8
85 9.5
91 45.5
92 26
93 4.85
94 22
95 27
96 6.2
97 0.9
101 13.5
104 5.5
105 30
106 1.6
107 36.5
108 10.5
109 28
110 0.6
115 7.5
117 9.5
119 17
120 0.85
121 57.5
122 20
123 33
129 0.55
131 11.5
132 1.8
133 12.5
134 0.18
135 1
145 10
147 9.5
149 1.55
150 5.5
159 7
160 1.5
161 0.7
169 6.5
170 2
173 7
181 0.6
189 5.5
190 2
199 9
200 0.1
214 11
215 8.5
229 16
230 0.5
239 9.5
240 1
257 12.5
258 0.5
259 3
272 19.5
273 11.5
274 3.45
275 8
289 2.8
299 5.5
300 0.25
314 7.5
317 3
332 19
333 4

$$$$

     RDKit          2D

 23 26  0  0  1  0  0  0  0  0999 V2000
    4.8236    1.8512    0.0000 C   0  0  0  0  0  0  0  0  0  0  0  0
   -1.1000    1.1500    0.0000 C   0  0  0  0  0  0  0  0  0  0  0  0
   -3.3641   -3.7492    0.0000 C   0  0  0  0  0  0  0  0  0  0  0  0
   -3.7000   -0.3500    0.0000 C   0  0  0  0  0  0  0  0  0  0  0  0
    0.9900    2.9800    0.0000 C   0  0  0  0  0  0  0  0  0  0  0  0
   -0.0300    1.8800    0.0000 C   0  0  0  0  0  0  0  0  0  0  0  0
    0.2000   -2.6000    0.0000 C   0  0  0  0  0  0  0  0  0  0  0  0
   -2.4000    0.4000    0.0000 C   0  0  0  0  0  0  0  0  0  0  0  0
   -3.7000   -1.8500    0.0000 C   0  0  0  0  0  0  0  0  0  0  0  0
    1.5000   -1.8500    0.0000 C   0  0  0  0  0  0  0  0  0  0  0  0
    1.3100    1.4800    0.0000 C   0  0  0  0  0  0  0  0  0  0  0  0
    3.3400    1.6300    0.0000 C   0  0  0  0  0  0  0  0  0  0  0  0
    2.4900    2.8700    0.0000 C   0  0  0  0  0  0  0  0  0  0  0  0
   -1.1000   -1.8500    0.0000 C   0  0  0  0  0  0  0  0  0  0  0  0
    0.2000    0.4000    0.0000 C   0  0  0  0  0  0  0  0  0  0  0  0
    2.8900    0.2000    0.0000 C   0  0  0  0  0  0  0  0  0  0  0  0
   -1.4359   -3.7492    0.0000 C   0  0  0  0  0  0  0  0  0  0  0  0
   -1.1000   -0.3500    0.0000 C   0  0  0  0  0  0  0  0  0  0  0  0
   -2.4000   -2.6000    0.0000 C   0  0  0  0  0  0  0  0  0  0  0  0
    1.5000   -0.3500    0.0000 C   0  0  0  0  0  0  0  0  0  0  0  0
    3.9881   -0.8218    0.0000 O   0  0  0  0  0  0  0  0  0  0  0  0
    0.0413   -3.4889    0.0000 O   0  0  0  0  0  0  0  0  0  0  0  0
   -1.9491   -5.1587    0.0000 O   0  0  0  0  0  0  0  0  0  0  0  0
  6  5  1  0
  8  4  1  0
  9  4  1  0
 10  7  1  0
 12  1  1  1
 13  5  1  6
 13 11  1  0
 13 12  1  0
 14  7  1  1
 15  6  1  1
 16 12  1  0
 18  2  1  1
 18  8  1  0
 18 14  1  0
 18 15  1  0
 19  3  1  6
 19  9  1  0
 19 14  1  0
 19 17  1  0
 20 10  1  1
 20 11  1  0
 20 15  1  0
 20 16  1  0
 21 16  2  0
 22 17  2  0
 23 17  1  0
M  END
>  <NAME>  (4143) 
(16R)-ENT-15-OXOKAURAN-18-OIC ACID

>  <SYNONYMS>  (4143) 


>  <SPECTRUM TYPE>  (4143) 
MS1

>  <INSTRUMENT TYPE>  (4143) 
EI-B

>  <INSTRUMENT>  (4143) 
HITACHI RMU-7L

>  <ION MODE>  (4143) 
P

>  <INCHIKEY>  (4143) 
TUIVCCRIADUHNA-OPXKYWMESA-N

>  <FORMULA>  (4143) 
C20H30O3

>  <EXACT MASS>  (4143) 
318.21949481999997

>  <MW>  (4143) 
318

>  <ID>  (4143) 
JP006332

>  <CONTRIBUTOR>  (4143) 
University of Tokyo Team, {Faculty of Engineering, University of Tokyo

>  <COMMENT>  (4143) 
SMILES=OC(=O)C(C)(C4)C([H])(C3)C(C)(CC4)C([H])(C2)C(C3)(C1)C(=O)C([H])(C)C([H])(C2)1
InChI=InChI=1S/C20H30O3/c1-12-13-5-6-15-18(2)8-4-9-19(3,17(22)23)14(18)7-10-20(15,11-13)16(12)21/h12-15H,4-11H2,1-3H3,(H,22,23)/t12-,13+,14-,15-,18+,19+,20+/m1/s1
computed SMILES=O=C(O)C1(C)CCCC2(C)C1CCC34C(=O)C(C)C(CCC32)C4
accession=JP006332
date=2016.01.19 (Created 2008.10.21, modified 2011.05.06)
author=EGUCHI S, FAC. OF SCIENCE, HIROSHIMA UNIV.
license=CC BY-NC-SA
exact mass=318.21949
ionization energy=70 eV
ion type=[M]+*
computed spectral entropy=4.027151193268046
computed normalized entropy=0.867099966545142
SPLASH=splash10-054o-9510000000-f36ea91c209d0b311d2f
submitter=submitter = University of Tokyo Team (Faculty of Engineering, University of Tokyo)
MoNA Rating=3.75

>  <NUM PEAKS>  (4143) 
104

>  <MASS SPECTRAL PEAKS>  (4143) 
40 5.5
41 99.99
42 10.5
43 5.8
44 2
45 10
53 31.5
54 0.82
55 86.5
56 8.5
57 18
58 1.05
59 7.5
65 15.5
66 7.7
67 6.15
68 12.5
69 29
70 5.5
71 1.05
77 45.5
78 10.5
79 76.5
80 1.8
81 69
82 12.5
83 9.5
87 1.05
91 64.5
92 39.7
93 52.4
94 3.98
95 39.6
96 10
97 10.5
101 0.87
104 8.5
105 38.4
106 29.3
107 6.1
108 16.6
109 44.3
110 10.5
111 0.8
115 11.5
117 14
118 6.8
119 2.15
120 10.5
121 53.2
122 25
123 3.73
124 9.5
129 6
131 15.7
132 0.65
133 15.9
134 8.8
135 15.9
136 0.7
137 6.5
139 12.5
143 7
145 1.55
147 13
149 11.4
150 10.5
151 1.1
159 10.5
160 1.5
161 9.5
166 0.64
167 12
173 12.5
174 6.7
175 0.75
189 6.2
199 8.7
200 1.5
204 0.75
205 9
214 6
215 9
229 1.25
239 11.2
240 1.5
241 1
243 1
245 17.4
246 2.5
257 14
258 0.1
259 2
260 42
261 21.5
272 1.8
273 8
274 5.5
275 11.5
285 0.55
300 0.5
303 1
318 27.5
319 6.5

$$$$

     RDKit          2D

 22 25  0  0  1  0  0  0  0  0999 V2000
    4.8236    1.8512    0.0000 C   0  0  0  0  0  0  0  0  0  0  0  0
   -3.3641   -3.7492    0.0000 C   0  0  0  0  0  0  0  0  0  0  0  0
   -1.1000    1.1500    0.0000 C   0  0  0  0  0  0  0  0  0  0  0  0
   -3.7000   -0.3500    0.0000 C   0  0  0  0  0  0  0  0  0  0  0  0
    0.9900    2.9800    0.0000 C   0  0  0  0  0  0  0  0  0  0  0  0
   -0.0300    1.8800    0.0000 C   0  0  0  0  0  0  0  0  0  0  0  0
    0.2000   -2.6000    0.0000 C   0  0  0  0  0  0  0  0  0  0  0  0
   -3.7000   -1.8500    0.0000 C   0  0  0  0  0  0  0  0  0  0  0  0
   -2.4000    0.4000    0.0000 C   0  0  0  0  0  0  0  0  0  0  0  0
    1.5000   -1.8500    0.0000 C   0  0  0  0  0  0  0  0  0  0  0  0
    1.3100    1.4800    0.0000 C   0  0  0  0  0  0  0  0  0  0  0  0
   -1.4359   -3.7492    0.0000 C   0  0  0  0  0  0  0  0  0  0  0  0
    3.3400    1.6300    0.0000 C   0  0  0  0  0  0  0  0  0  0  0  0
    2.4900    2.8700    0.0000 C   0  0  0  0  0  0  0  0  0  0  0  0
   -1.1000   -1.8500    0.0000 C   0  0  0  0  0  0  0  0  0  0  0  0
    0.2000    0.4000    0.0000 C   0  0  0  0  0  0  0  0  0  0  0  0
    2.8900    0.2000    0.0000 C   0  0  0  0  0  0  0  0  0  0  0  0
   -2.4000   -2.6000    0.0000 C   0  0  0  0  0  0  0  0  0  0  0  0
   -1.1000   -0.3500    0.0000 C   0  0  0  0  0  0  0  0  0  0  0  0
    1.5000   -0.3500    0.0000 C   0  0  0  0  0  0  0  0  0  0  0  0
   -1.9491   -5.1587    0.0000 O   0  0  0  0  0  0  0  0  0  0  0  0
    3.9881   -0.8218    0.0000 O   0  0  0  0  0  0  0  0  0  0  0  0
  6  5  1  0
  8  4  1  0
  9  4  1  0
 10  7  1  0
 13  1  1  1
 14  5  1  6
 14 11  1  0
 14 13  1  0
 15  7  1  1
 16  6  1  1
 17 13  1  0
 18  2  1  6
 18  8  1  0
 18 12  1  0
 18 15  1  0
 19  3  1  0
 19  9  1  0
 19 15  1  0
 19 16  1  0
 20 10  1  1
 20 11  1  0
 20 16  1  0
 20 17  1  0
 21 12  1  0
 22 17  2  0
M  END
>  <NAME>  (4144) 
(16R)-ENT-18-HYDOXYKAURAN-15-ONE

>  <SYNONYMS>  (4144) 


>  <SPECTRUM TYPE>  (4144) 
MS1

>  <INSTRUMENT TYPE>  (4144) 
EI-B

>  <INSTRUMENT>  (4144) 
HITACHI RMU-7L

>  <ION MODE>  (4144) 
P

>  <INCHIKEY>  (4144) 
YIVOCKREJGXBSH-OSQPDDNXSA-N

>  <FORMULA>  (4144) 
C20H32O2

>  <EXACT MASS>  (4144) 
304.240230264

>  <MW>  (4144) 
304

>  <ID>  (4144) 
JP006331

>  <CONTRIBUTOR>  (4144) 
University of Tokyo Team, {Faculty of Engineering, University of Tokyo

>  <COMMENT>  (4144) 
SMILES=OCC(C)(C4)C([H])(C3)C(C)(CC4)C([H])(C2)C(C3)(C1)C(=O)C([H])(C)C([H])(C2)1
InChI=InChI=1S/C20H32O2/c1-13-14-5-6-16-19(3)9-4-8-18(2,12-21)15(19)7-10-20(16,11-14)17(13)22/h13-16,21H,4-12H2,1-3H3/t13-,14+,15+,16-,18-,19?,20+/m1/s1
computed SMILES=O=C1C(C)C2CCC3C1(CCC4C(C)(CO)CCCC34C)C2
accession=JP006331
date=2016.01.19 (Created 2008.10.21, modified 2011.05.06)
author=EGUCHI S, FAC. OF SCIENCE, HIROSHIMA UNIV.
license=CC BY-NC-SA
exact mass=304.24023
ionization energy=70 eV
ion type=[M]+*
computed spectral entropy=3.981305213053881
computed normalized entropy=0.8421786757783541
SPLASH=splash10-0006-9410000000-663c157a1d9f71fd28a9
submitter=submitter = University of Tokyo Team (Faculty of Engineering, University of Tokyo)
MoNA Rating=3.75

>  <NUM PEAKS>  (4144) 
113

>  <MASS SPECTRAL PEAKS>  (4144) 
40 4
41 99.99
42 4
43 4.05
45 11.5
51 40
52 17
53 1.42
54 4.5
55 77
56 14.2
57 2.32
65 14
67 28.4
68 8
69 2.73
70 9.1
71 13.5
74 12.2
77 2.1
78 2.5
79 63.5
80 9
81 4.95
82 11.5
83 36.5
84 15
85 2.85
91 58.2
92 16.5
93 28.5
94 1.55
95 30.5
96 9.2
97 13.5
105 2.49
106 14.5
107 28
108 11.5
109 2.65
110 8
111 10.5
112 2
115 0.66
119 19.5
120 11.5
121 19.5
122 1.05
123 33
124 10.5
125 9.5
131 1
133 14.5
134 9
135 20.5
141 0.8
145 19.7
146 3
147 16.5
148 0.3
149 14
150 1.5
151 8.5
159 0.68
160 2
161 8.2
162 1.8
163 1.35
164 2
165 3
171 2.1
172 0.15
173 6
174 2
175 3.8
176 0.1
177 2
187 3
189 2
191 0.35
199 1.5
201 2.4
202 1
203 0.2
213 2.5
214 1
215 10
228 0.1
229 1.8
231 2.5
241 1.5
242 0.1
243 2.5
244 1.5
245 2.4
246 2.15
253 1.5
254 1
255 8
256 0.2
257 2
259 3.9
261 6.5
273 0.27
274 30.5
275 7.5
286 3.5
287 0.1
288 2
289 6.5
304 22.5
305 0.5
306 1

$$$$

     RDKit          2D

 23 26  0  0  1  0  0  0  0  0999 V2000
   -3.3641   -3.7492    0.0000 C   0  0  0  0  0  0  0  0  0  0  0  0
   -1.4359   -3.7492    0.0000 C   0  0  0  0  0  0  0  0  0  0  0  0
   -1.1000    1.1500    0.0000 C   0  0  0  0  0  0  0  0  0  0  0  0
    6.8574    3.4679    0.0000 C   0  0  0  0  0  0  0  0  0  0  0  0
   -3.7000   -0.3500    0.0000 C   0  0  0  0  0  0  0  0  0  0  0  0
    0.9900    2.9800    0.0000 C   0  0  0  0  0  0  0  0  0  0  0  0
   -0.0300    1.8800    0.0000 C   0  0  0  0  0  0  0  0  0  0  0  0
    0.2000   -2.6000    0.0000 C   0  0  0  0  0  0  0  0  0  0  0  0
   -3.7000   -1.8500    0.0000 C   0  0  0  0  0  0  0  0  0  0  0  0
   -2.4000    0.4000    0.0000 C   0  0  0  0  0  0  0  0  0  0  0  0
    1.5000   -1.8500    0.0000 C   0  0  0  0  0  0  0  0  0  0  0  0
    1.3100    1.4800    0.0000 C   0  0  0  0  0  0  0  0  0  0  0  0
    4.8236    1.8512    0.0000 C   0  0  0  0  0  0  0  0  0  0  0  0
    2.4900    2.8700    0.0000 C   0  0  0  0  0  0  0  0  0  0  0  0
    3.3400    1.6300    0.0000 C   0  0  0  0  0  0  0  0  0  0  0  0
   -1.1000   -1.8500    0.0000 C   0  0  0  0  0  0  0  0  0  0  0  0
    0.2000    0.4000    0.0000 C   0  0  0  0  0  0  0  0  0  0  0  0
    2.8900    0.2000    0.0000 C   0  0  0  0  0  0  0  0  0  0  0  0
   -2.4000   -2.6000    0.0000 C   0  0  0  0  0  0  0  0  0  0  0  0
   -1.1000   -0.3500    0.0000 C   0  0  0  0  0  0  0  0  0  0  0  0
    1.5000   -0.3500    0.0000 C   0  0  0  0  0  0  0  0  0  0  0  0
    3.9881   -0.8218    0.0000 O   0  0  0  0  0  0  0  0  0  0  0  0
    5.3738    3.2467    0.0000 O   0  0  0  0  0  0  0  0  0  0  0  0
  7  6  1  0
  9  5  1  0
 10  5  1  0
 11  8  1  0
 14  6  1  6
 14 12  1  0
 15 13  1  6
 15 14  1  0
 16  8  1  1
 17  7  1  1
 18 15  1  0
 19  1  1  0
 19  2  1  0
 19  9  1  0
 19 16  1  0
 20  3  1  1
 20 10  1  0
 20 16  1  0
 20 17  1  0
 21 11  1  1
 21 12  1  0
 21 17  1  0
 21 18  1  0
 22 18  2  0
 23  4  1  0
 23 13  1  0
M  END
>  <NAME>  (4145) 
(16R)-ENT-17-METHOXYKAURAN-15-ONE

>  <SYNONYMS>  (4145) 


>  <SPECTRUM TYPE>  (4145) 
MS1

>  <INSTRUMENT TYPE>  (4145) 
EI-B

>  <INSTRUMENT>  (4145) 
HITACHI RMU-7L

>  <ION MODE>  (4145) 
P

>  <INCHIKEY>  (4145) 
PABWEJPEEQIDES-GQDVPIKJSA-N

>  <FORMULA>  (4145) 
C21H34O2

>  <EXACT MASS>  (4145) 
318.255880328

>  <MW>  (4145) 
318

>  <ID>  (4145) 
JP006330

>  <CONTRIBUTOR>  (4145) 
University of Tokyo Team, {Faculty of Engineering, University of Tokyo

>  <COMMENT>  (4145) 
SMILES=COCC([H])(C(=O)1)C([H])(C4)CC(C3)1C([H])(C4)C(C)(C2)C([H])(C3)C(C)(C)CC2
InChI=InChI=1S/C21H34O2/c1-19(2)9-5-10-20(3)16(19)8-11-21-12-14(6-7-17(20)21)15(13-23-4)18(21)22/h14-17H,5-13H2,1-4H3/t14-,15-,16-,17+,20-,21-/m0/s1
computed SMILES=O=C1C(COC)C2CCC3C1(CCC4C(C)(C)CCCC43C)C2
accession=JP006330
date=2016.01.19 (Created 2008.10.21, modified 2011.05.06)
author=EGUCHI S, FAC. OF SCIENCE, HIROSHIMA UNIV.
license=CC BY-NC-SA
exact mass=318.25588
ionization energy=70 eV
ion type=[M]+*
computed spectral entropy=4.218552640675919
computed normalized entropy=0.8214015196240526
SPLASH=splash10-0006-9440000000-4c5ed1933aba7edcfc76
submitter=submitter = University of Tokyo Team (Faculty of Engineering, University of Tokyo)
MoNA Rating=3.75

>  <NUM PEAKS>  (4145) 
170

>  <MASS SPECTRAL PEAKS>  (4145) 
40 2.5
41 99.99
42 3.5
43 2.85
45 74.5
46 2.9
47 2.5
50 0.2
51 4
52 4.5
53 30
54 0.3
55 63.4
56 4.2
57 23
65 0.6
66 2.9
67 42
68 5.5
69 5.3
70 4
71 5.2
72 2.5
73 0.25
74 1.5
75 2.3
76 2.3
77 0.95
78 3.5
79 44
80 6
81 4.7
82 6.5
83 5.5
84 4
85 0.48
91 45
92 11
93 34.5
94 0.75
95 27.7
96 4.5
97 6.7
98 0.15
103 2.9
104 4
105 25.5
106 0.3
107 19.7
108 3.8
109 16.5
110 0.25
111 4
112 2
115 4.7
116 0.22
117 1.8
118 3.2
119 9
120 0.52
121 12.5
122 6.5
123 25
124 0.38
125 2
130 1.1
131 6.4
132 0.25
133 8.5
134 2.7
135 5
136 0.78
137 17
138 2.8
139 3
141 0.3
142 2
143 2.8
144 1.8
145 0.55
146 2.5
147 8
148 5.2
149 1.45
150 3
151 1.5
152 2.1
153 0.2
154 1.5
155 2
156 1.5
157 0.34
158 1.5
159 5.5
160 2.5
161 0.72
162 5.7
163 5
164 3
165 0.35
166 2.5
167 3.5
168 2.5
169 0.25
171 2.5
172 1
173 6.5
174 0.24
175 5.1
176 3
177 3.5
180 0.45
181 14.5
182 4.5
183 2.5
185 0.3
186 1
187 4.2
188 2.5
189 0.6
190 3.5
191 2.5
193 2.5
194 0.35
195 3
199 3
201 4
202 0.3
203 3
204 2.5
205 3.3
213 0.47
214 1.5
215 42.4
216 9
217 0.31
218 13.1
219 3
223 3.5
229 0.15
230 85
231 21
232 4
243 1.1
244 5
253 10.9
254 3.5
255 0.5
256 2.1
257 8
258 5.8
259 0.45
268 7
269 1.5
271 5
272 0.35
273 15.5
274 5.7
275 4.5
285 0.9
286 29
287 9.2
288 5.4
300 0.55
303 16
304 4.5
317 3
318 4.75
319 6.5
320 1

$$$$

     RDKit          2D

 21 24  0  0  1  0  0  0  0  0999 V2000
    4.8236    1.8512    0.0000 C   0  0  0  0  0  0  0  0  0  0  0  0
   -3.3641   -3.7492    0.0000 C   0  0  0  0  0  0  0  0  0  0  0  0
   -1.4359   -3.7492    0.0000 C   0  0  0  0  0  0  0  0  0  0  0  0
   -1.1000    1.1500    0.0000 C   0  0  0  0  0  0  0  0  0  0  0  0
   -3.7000   -0.3500    0.0000 C   0  0  0  0  0  0  0  0  0  0  0  0
    0.9900    2.9800    0.0000 C   0  0  0  0  0  0  0  0  0  0  0  0
   -0.0300    1.8800    0.0000 C   0  0  0  0  0  0  0  0  0  0  0  0
    0.2000   -2.6000    0.0000 C   0  0  0  0  0  0  0  0  0  0  0  0
   -3.7000   -1.8500    0.0000 C   0  0  0  0  0  0  0  0  0  0  0  0
   -2.4000    0.4000    0.0000 C   0  0  0  0  0  0  0  0  0  0  0  0
    1.5000   -1.8500    0.0000 C   0  0  0  0  0  0  0  0  0  0  0  0
    1.3100    1.4800    0.0000 C   0  0  0  0  0  0  0  0  0  0  0  0
    3.3400    1.6300    0.0000 C   0  0  0  0  0  0  0  0  0  0  0  0
    2.4900    2.8700    0.0000 C   0  0  0  0  0  0  0  0  0  0  0  0
   -1.1000   -1.8500    0.0000 C   0  0  0  0  0  0  0  0  0  0  0  0
    0.2000    0.4000    0.0000 C   0  0  0  0  0  0  0  0  0  0  0  0
    2.8900    0.2000    0.0000 C   0  0  0  0  0  0  0  0  0  0  0  0
   -2.4000   -2.6000    0.0000 C   0  0  0  0  0  0  0  0  0  0  0  0
   -1.1000   -0.3500    0.0000 C   0  0  0  0  0  0  0  0  0  0  0  0
    1.5000   -0.3500    0.0000 C   0  0  0  0  0  0  0  0  0  0  0  0
    3.9881   -0.8218    0.0000 O   0  0  0  0  0  0  0  0  0  0  0  0
  7  6  1  0
  9  5  1  0
 10  5  1  0
 11  8  1  0
 13  1  1  1
 14  6  1  6
 14 12  1  0
 14 13  1  0
 15  8  1  1
 16  7  1  1
 17 13  1  0
 18  2  1  0
 18  3  1  0
 18  9  1  0
 18 15  1  0
 19  4  1  1
 19 10  1  0
 19 15  1  0
 19 16  1  0
 20 11  1  1
 20 12  1  0
 20 16  1  0
 20 17  1  0
 21 17  2  0
M  END
>  <NAME>  (4146) 
(16R)-ENT-KAURAN-15-ONE

>  <SYNONYMS>  (4146) 


>  <SPECTRUM TYPE>  (4146) 
MS1

>  <INSTRUMENT TYPE>  (4146) 
EI-B

>  <INSTRUMENT>  (4146) 
HITACHI RMU-7L

>  <ION MODE>  (4146) 
P

>  <INCHIKEY>  (4146) 
WLPSBNSWPFRIPG-YSBNHYEQSA-N

>  <FORMULA>  (4146) 
C20H32O

>  <EXACT MASS>  (4146) 
288.245315644

>  <MW>  (4146) 
288

>  <ID>  (4146) 
JP006328

>  <CONTRIBUTOR>  (4146) 
University of Tokyo Team, {Faculty of Engineering, University of Tokyo

>  <COMMENT>  (4146) 
SMILES=CC(C)(C4)C([H])(C3)C(C)(CC4)C([H])(C2)C(C3)(C1)C(=O)C([H])(C)C([H])(C2)1
InChI=InChI=1S/C20H32O/c1-13-14-6-7-16-19(4)10-5-9-18(2,3)15(19)8-11-20(16,12-14)17(13)21/h13-16H,5-12H2,1-4H3/t13-,14+,15+,16-,19+,20+/m1/s1
computed SMILES=O=C1C(C)C2CCC3C1(CCC4C(C)(C)CCCC43C)C2
accession=JP006328
date=2016.01.19 (Created 2008.10.21, modified 2011.05.06)
author=EGUCHI S, FAC. OF SCIENCE, HIROSHIMA UNIV.
license=CC BY-NC-SA
exact mass=288.24532
ionization energy=70 eV
ion type=[M]+*
computed spectral entropy=3.9040762241183105
computed normalized entropy=0.8321864679673355
SPLASH=splash10-05ox-9310000000-96f27c85829a17458376
submitter=submitter = University of Tokyo Team (Faculty of Engineering, University of Tokyo)
MoNA Rating=3.75

>  <NUM PEAKS>  (4146) 
109

>  <MASS SPECTRAL PEAKS>  (4146) 
40 7.1
41 99.99
42 11.4
43 3.21
44 2.9
50 2.9
51 5
52 0.43
53 31.4
54 8.6
55 77.1
56 1.43
57 12.9
58 5
65 15
66 0.82
67 53.6
68 19.3
69 39.3
70 0.57
71 2.9
76 3.6
77 37.1
78 1.14
79 60
80 13.6
81 49.3
82 1.07
83 8.2
84 2.5
85 2.5
91 6.64
92 24.3
93 46.8
94 13.6
95 3
96 5.7
97 4.3
103 5.7
104 0.71
105 30
106 10
107 25
108 0.75
109 17.9
110 3.9
111 4.3
115 0.68
116 4.3
117 12.1
118 4.3
119 1.71
120 7
121 12.1
122 6.8
123 3.08
124 4.3
125 2.9
127 2.1
128 0.5
129 5.7
130 3.6
131 10
132 0.43
133 10
134 4.3
135 8.6
136 0.57
137 17.5
138 4.3
141 2.9
142 0.25
143 3.9
144 2.9
145 10
146 0.5
147 10.7
148 4.3
149 8.6
150 0.43
151 3.6
157 2.9
158 2.1
159 0.46
160 2.9
161 5
162 2.5
163 0.43
164 2.9
165 2.1
213 3.6
214 0.14
215 20
216 3.9
217 2.9
230 3.5
231 4.3
232 2.9
245 11
246 0.29
255 4.5
256 1.5
270 1.4
271 0.14
272 0.7
273 10.5
275 1.1
288 2
289 5

$$$$

     RDKit          2D

 21 22  0  0  1  0  0  0  0  0999 V2000
   -2.9729    2.9646    0.0000 C   0  0  0  0  0  0  0  0  0  0  0  0
    2.1084   -1.3605    0.0000 C   0  0  0  0  0  0  0  0  0  0  0  0
    1.1045   -2.4751    0.0000 H   0  0  0  0  0  0  0  0  0  0  0  0
    3.2229   -2.3644    0.0000 H   0  0  0  0  0  0  0  0  0  0  0  0
    4.9046   -0.4525    0.0000 H   0  0  0  0  0  0  0  0  0  0  0  0
    1.7517    0.9685    0.0000 C   0  0  0  0  0  0  0  0  0  0  0  0
    3.3981   -0.8594    0.0000 H   0  0  0  0  0  0  0  0  0  0  0  0
    2.8663    1.9723    0.0000 H   0  0  0  0  0  0  0  0  0  0  0  0
    0.7478    2.0830    0.0000 H   0  0  0  0  0  0  0  0  0  0  0  0
   -6.8709   -0.7858    0.0000 C   0  0  0  0  0  0  0  0  0  0  0  0
   -2.9729    1.4646    0.0000 C   0  0  0  0  0  0  0  0  0  0  0  0
   -2.9729   -1.5354    0.0000 C   0  0  0  0  0  0  0  0  0  0  0  0
   -1.6729    0.7146    0.0000 C   0  0  0  0  0  0  0  0  0  0  0  0
   -1.6729   -0.7854    0.0000 C   0  0  0  0  0  0  0  0  0  0  0  0
   -4.2729   -0.7854    0.0000 C   0  0  0  0  0  0  0  0  0  0  0  0
    0.6371   -0.0354    0.0000 C   0  0  0  0  0  0  0  0  0  0  0  0
   -2.9729   -3.0354    0.0000 O   0  0  0  0  0  0  0  0  0  0  0  0
   -5.5718   -1.5356    0.0000 O   0  0  0  0  0  0  0  0  0  0  0  0
   -4.2729    0.7146    0.0000 O   0  0  0  0  0  0  0  0  0  0  0  0
   -0.2429    1.1746    0.0000 O   0  0  0  0  0  0  0  0  0  0  0  0
   -0.2429   -1.2454    0.0000 O   0  0  0  0  0  0  0  0  0  0  0  0
  2  3  1  0
  2  4  1  0
  2  5  1  0
  6  7  1  0
  6  8  1  0
  6  9  1  0
 11  1  1  6
 13 11  1  0
 14 12  1  0
 14 13  1  0
 15 12  1  0
 16  2  1  0
 16  6  1  0
 12 17  1  1
 18 10  1  0
 15 18  1  6
 19 11  1  0
 19 15  1  0
 13 20  1  6
 20 16  1  0
 14 21  1  6
 21 16  1  0
M  ISO  6   3   2   4   2   5   2   7   2   8   2   9   2
M  END
>  <NAME>  (4147) 
METHYL 3,4-O-ISOPROPYLIDENE-BETA-D-FUCOPYRANOSIDE (3,3,3,4,4,4-D6)

>  <SYNONYMS>  (4147) 
METHYL 3,4-O-HEXADEUTEROISOPROPYLIDENE-BETA-D-FUCOPYRANOSIDE

>  <SPECTRUM TYPE>  (4147) 
MS1

>  <INSTRUMENT TYPE>  (4147) 
EI-B

>  <INSTRUMENT>  (4147) 
HITACHI RMU-6L

>  <ION MODE>  (4147) 
P

>  <INCHIKEY>  (4147) 
UONDNTMXANWPHZ-ZPOOEJENSA-N

>  <FORMULA>  (4147) 
C10H18O5

>  <EXACT MASS>  (4147) 
224.153084152

>  <MW>  (4147) 
224

>  <ID>  (4147) 
JP006327

>  <CONTRIBUTOR>  (4147) 
University of Tokyo Team, {Faculty of Engineering, University of Tokyo

>  <COMMENT>  (4147) 
SMILES=COC(O2)C(O)C([H])(O1)C([H])(C(C)2)OC(C([2H])([2H])[2H])(C([2H])([2H])[2H])1
InChI=InChI=1S/C10H18O5/c1-5-7-8(15-10(2,3)14-7)6(11)9(12-4)13-5/h5-9,11H,1-4H3/t5-,6-,7+,8-,9-/m1/s1/i2D3,3D3
computed SMILES=[H]C([H])([H])C1(OC2C(O)C(OC)OC(C)C2O1)C([H])([H])[H]
ionization energy=70 eV
accession=JP006327
date=2016.01.19 (Created 2008.10.21, modified 2011.05.06)
author=EGUCHI S, FAC. OF SCIENCE, HIROSHIMA UNIV.
license=CC BY-NC-SA
exact mass=218.11542
ion type=[M]+*
computed spectral entropy=3.7337484509387644
computed normalized entropy=0.8218151429463797
SPLASH=splash10-052b-9200000000-6f4b12ae281decf2d8e4
submitter=submitter = University of Tokyo Team (Faculty of Engineering, University of Tokyo)
MoNA Rating=3.75

>  <NUM PEAKS>  (4147) 
94

>  <MASS SPECTRAL PEAKS>  (4147) 
40 4.8
41 26.2
42 14.3
43 4.63
44 9.5
45 31
46 99.99
47 0.48
48 3.6
49 3.6
50 1.2
51 0.12
52 1.2
53 7.1
54 4.8
55 1.9
56 10.7
57 21.4
58 11.9
59 1.31
60 14.3
61 21.4
62 4.8
63 0.48
64 15.8
65 63.1
66 4.8
67 0.36
68 2.4
69 13.1
70 4.8
71 5.24
72 9.5
73 10.7
74 28.6
75 0.6
76 2.4
77 2.4
78 2.4
79 0.36
80 1.2
81 4.8
82 3.6
83 2.38
84 4.8
85 7.1
86 3.6
87 3.1
88 27.4
89 4.8
90 3.6
91 0.12
92 1.2
95 2.4
96 1.2
97 0.48
98 2.4
99 7.1
100 8.3
101 0.95
102 6
103 2.4
104 6
105 2.86
106 31
107 15.5
108 2.4
109 0.24
110 1.2
111 8.3
112 2.4
113 0.29
114 2.4
115 2.4
116 4.8
117 0.12
118 2.4
119 3.6
120 2.4
121 0.29
125 2.4
126 1.2
127 6
128 0.6
129 3.6
130 2.4
135 3.6
143 0.95
144 2.4
193 8.3
206 21.4
207 0.12
224 2.4
225 0.3

$$$$

     RDKit          2D

 21 22  0  0  1  0  0  0  0  0999 V2000
   -5.5718    1.4648    0.0000 C   0  0  0  0  0  0  0  0  0  0  0  0
    2.1084   -1.3605    0.0000 C   0  0  0  0  0  0  0  0  0  0  0  0
    1.1045   -2.4751    0.0000 H   0  0  0  0  0  0  0  0  0  0  0  0
    3.2229   -2.3644    0.0000 H   0  0  0  0  0  0  0  0  0  0  0  0
    4.9046   -0.4525    0.0000 H   0  0  0  0  0  0  0  0  0  0  0  0
    1.7517    0.9685    0.0000 C   0  0  0  0  0  0  0  0  0  0  0  0
    3.3981   -0.8594    0.0000 H   0  0  0  0  0  0  0  0  0  0  0  0
    2.8663    1.9723    0.0000 H   0  0  0  0  0  0  0  0  0  0  0  0
    0.7478    2.0830    0.0000 H   0  0  0  0  0  0  0  0  0  0  0  0
   -4.2719   -3.7854    0.0000 C   0  0  0  0  0  0  0  0  0  0  0  0
   -4.2729    0.7146    0.0000 C   0  0  0  0  0  0  0  0  0  0  0  0
   -2.9729    1.4646    0.0000 C   0  0  0  0  0  0  0  0  0  0  0  0
   -1.6729    0.7146    0.0000 C   0  0  0  0  0  0  0  0  0  0  0  0
   -1.6729   -0.7854    0.0000 C   0  0  0  0  0  0  0  0  0  0  0  0
   -2.9729   -1.5354    0.0000 C   0  0  0  0  0  0  0  0  0  0  0  0
    0.6371   -0.0354    0.0000 C   0  0  0  0  0  0  0  0  0  0  0  0
   -2.9729    2.9646    0.0000 O   0  0  0  0  0  0  0  0  0  0  0  0
   -2.9729   -3.0354    0.0000 O   0  0  0  0  0  0  0  0  0  0  0  0
   -4.2729   -0.7854    0.0000 O   0  0  0  0  0  0  0  0  0  0  0  0
   -0.2429    1.1746    0.0000 O   0  0  0  0  0  0  0  0  0  0  0  0
   -0.2429   -1.2454    0.0000 O   0  0  0  0  0  0  0  0  0  0  0  0
  2  3  1  0
  2  4  1  0
  2  5  1  0
  6  7  1  0
  6  8  1  0
  6  9  1  0
 11  1  1  1
 12 11  1  0
 13 12  1  0
 14 13  1  0
 15 14  1  0
 16  2  1  0
 16  6  1  0
 12 17  1  6
 18 10  1  0
 15 18  1  6
 19 11  1  0
 19 15  1  0
 13 20  1  1
 20 16  1  0
 14 21  1  1
 21 16  1  0
M  ISO  6   3   2   4   2   5   2   7   2   8   2   9   2
M  END
>  <NAME>  (4148) 
METHYL 2,3-O-ISOPROPYLIDENE-ALPHA-L-RHAMNOPYRANOSIDE (2,2,2,3,3,3-D6)

>  <SYNONYMS>  (4148) 
METHYL 2,3-O-HEXADEUTEROISOPROPYLIDENE-ALPHA-L-RHAMNOPYRANOSIDE

>  <SPECTRUM TYPE>  (4148) 
MS1

>  <INSTRUMENT TYPE>  (4148) 
EI-B

>  <INSTRUMENT>  (4148) 
HITACHI RMU-7L

>  <ION MODE>  (4148) 
P

>  <INCHIKEY>  (4148) 
TVKKWQAJQZHTDN-XQPZCLEZSA-N

>  <FORMULA>  (4148) 
C10H18O5

>  <EXACT MASS>  (4148) 
224.153084152

>  <MW>  (4148) 
224

>  <ID>  (4148) 
JP006326

>  <CONTRIBUTOR>  (4148) 
University of Tokyo Team, {Faculty of Engineering, University of Tokyo

>  <COMMENT>  (4148) 
SMILES=COC(O2)C([H])(O1)C([H])(C(O)C(C)2)OC(C([2H])([2H])[2H])(C([2H])([2H])[2H])1
InChI=InChI=1S/C10H18O5/c1-5-6(11)7-8(9(12-4)13-5)15-10(2,3)14-7/h5-9,11H,1-4H3/t5-,6-,7+,8+,9+/m0/s1/i2D3,3D3
computed SMILES=[H]C([H])([H])C1(OC2C(OC)OC(C)C(O)C2O1)C([H])([H])[H]
accession=JP006326
date=2016.01.19 (Created 2008.10.21, modified 2011.05.06)
author=EGUCHI S, FAC. OF SCIENCE, HIROSHIMA UNIV.
license=CC BY-NC-SA
exact mass=218.11542
ionization energy=70 eV
ion type=[M]+*
computed spectral entropy=3.696145115505589
computed normalized entropy=0.8135384765104001
SPLASH=splash10-0abj-9400000000-b8e7259c249d4b459e22
submitter=submitter = University of Tokyo Team (Faculty of Engineering, University of Tokyo)
MoNA Rating=3.75

>  <NUM PEAKS>  (4148) 
94

>  <MASS SPECTRAL PEAKS>  (4148) 
40 4.3
41 9.6
42 7.8
43 2.61
44 6.1
45 25.2
46 47
47 0.43
48 4.3
49 5.2
53 5.2
54 0.52
55 10.9
56 7.8
57 20
58 1.57
59 7.4
60 8.3
61 20.4
62 0.7
63 4.8
64 16.5
65 51.3
66 0.43
67 3
68 3.5
69 7
70 0.26
71 67.8
72 7.4
73 6.1
74 0.56
75 6.1
76 3
77 3.9
78 0.61
79 9.6
80 1.8
81 2.6
82 0.74
83 11.3
84 3.9
85 14.8
86 0.61
87 16.5
88 52.2
89 5.2
90 0.26
98 3.5
99 3
100 9.1
101 0.52
102 3.5
103 3.9
104 6.1
105 2.87
106 99.99
107 16.5
108 2.6
111 0.48
112 8.7
113 3.5
114 1.8
115 0.35
116 4.3
117 3.5
118 5.2
119 0.48
120 5.2
121 6.1
122 6.3
125 0.35
128 3.5
129 6.1
130 2.6
131 0.26
132 1.8
133 1.8
134 2.6
135 0.7
136 1.8
143 5.2
144 5.6
145 0.18
146 1.8
174 4.3
192 4.3
193 0.96
194 1.8
205 2.6
206 11.3
207 0.18
224 3.5
225 0.9

$$$$

     RDKit          2D

 15 16  0  0  1  0  0  0  0  0999 V2000
   -1.0100    3.0000    0.0000 C   0  0  0  0  0  0  0  0  0  0  0  0
    3.7146   -1.0039    0.0000 C   0  0  0  0  0  0  0  0  0  0  0  0
    3.7146    1.0039    0.0000 C   0  0  0  0  0  0  0  0  0  0  0  0
   -4.9081   -0.7504    0.0000 C   0  0  0  0  0  0  0  0  0  0  0  0
   -1.0100    1.5000    0.0000 C   0  0  0  0  0  0  0  0  0  0  0  0
   -1.0100   -1.5000    0.0000 C   0  0  0  0  0  0  0  0  0  0  0  0
    0.2900    0.7500    0.0000 C   0  0  0  0  0  0  0  0  0  0  0  0
    0.2900   -0.7500    0.0000 C   0  0  0  0  0  0  0  0  0  0  0  0
   -2.3100   -0.7500    0.0000 C   0  0  0  0  0  0  0  0  0  0  0  0
    2.6000    0.0000    0.0000 C   0  0  0  0  0  0  0  0  0  0  0  0
   -1.0100   -3.0000    0.0000 O   0  0  0  0  0  0  0  0  0  0  0  0
   -3.6089   -1.5002    0.0000 O   0  0  0  0  0  0  0  0  0  0  0  0
   -2.3100    0.7500    0.0000 O   0  0  0  0  0  0  0  0  0  0  0  0
    1.7200    1.2100    0.0000 O   0  0  0  0  0  0  0  0  0  0  0  0
    1.7200   -1.2100    0.0000 O   0  0  0  0  0  0  0  0  0  0  0  0
  5  1  1  6
  7  5  1  0
  8  6  1  0
  8  7  1  0
  9  6  1  0
 10  2  1  0
 10  3  1  0
  6 11  1  1
 12  4  1  0
  9 12  1  6
 13  5  1  0
 13  9  1  0
  7 14  1  6
 14 10  1  0
  8 15  1  6
 15 10  1  0
M  END
>  <NAME>  (4149) 
METHYL 3,4-O-ISOPROPYLIDENE-BETA-D-FUCOPYRANOSIDE

>  <SYNONYMS>  (4149) 


>  <SPECTRUM TYPE>  (4149) 
MS1

>  <INSTRUMENT TYPE>  (4149) 
EI-B

>  <INSTRUMENT>  (4149) 
HITACHI RMU-6L

>  <ION MODE>  (4149) 
P

>  <INCHIKEY>  (4149) 
UONDNTMXANWPHZ-SYHAXYEDSA-N

>  <FORMULA>  (4149) 
C10H18O5

>  <EXACT MASS>  (4149) 
218.11542367599998

>  <MW>  (4149) 
218

>  <ID>  (4149) 
JP006325

>  <CONTRIBUTOR>  (4149) 
University of Tokyo Team, {Faculty of Engineering, University of Tokyo

>  <COMMENT>  (4149) 
SMILES=COC(O1)C(O)C([H])(O2)C([H])(OC(C)(C)2)C(C)1
InChI=InChI=1S/C10H18O5/c1-5-7-8(15-10(2,3)14-7)6(11)9(12-4)13-5/h5-9,11H,1-4H3/t5-,6-,7+,8-,9-/m1/s1
computed SMILES=OC1C(OC)OC(C)C2OC(OC12)(C)C
accession=JP006325
date=2016.01.19 (Created 2008.10.21, modified 2011.05.06)
author=EGUCHI S, FAC. OF SCIENCE, HIROSHIMA UNIV.
license=CC BY-NC-SA
exact mass=218.11542
ionization energy=70 eV
ion type=[M]+*
computed spectral entropy=3.253323635671531
computed normalized entropy=0.7945896067686773
SPLASH=splash10-0f6x-9200000000-f48342813c5a4f83fbbd
submitter=submitter = University of Tokyo Team (Faculty of Engineering, University of Tokyo)
MoNA Rating=3.75

>  <NUM PEAKS>  (4149) 
60

>  <MASS SPECTRAL PEAKS>  (4149) 
40 3.5
41 24.3
42 7
43 99.99
44 5.2
45 15.7
53 4.3
54 0.35
55 20.9
56 13
57 20.9
58 8.61
60 7
61 20
69 5.2
70 0.26
71 60.9
72 7
73 11.3
74 2.7
75 3.5
81 1.7
82 2.6
83 3.13
84 3.5
85 34.8
86 3.5
87 4
88 7.8
89 1.7
99 48.7
100 7.48
101 45.2
102 3.5
103 3.5
111 1.13
112 1.7
113 5.2
114 1.7
115 0.26
116 10.4
117 1.7
118 1.7
119 0.17
125 3.5
127 1.7
128 13.9
129 0.87
130 1.7
131 1.7
143 7
145 0.17
146 1.7
160 1.7
186 2.6
187 0.96
203 24.3
204 3.5
218 0.9
219 0.1

$$$$

     RDKit          2D

 15 16  0  0  1  0  0  0  0  0999 V2000
   -3.6089    1.5002    0.0000 C   0  0  0  0  0  0  0  0  0  0  0  0
    3.7146   -1.0039    0.0000 C   0  0  0  0  0  0  0  0  0  0  0  0
    3.7146    1.0039    0.0000 C   0  0  0  0  0  0  0  0  0  0  0  0
   -2.3090   -3.7500    0.0000 C   0  0  0  0  0  0  0  0  0  0  0  0
   -2.3100    0.7500    0.0000 C   0  0  0  0  0  0  0  0  0  0  0  0
   -1.0100    1.5000    0.0000 C   0  0  0  0  0  0  0  0  0  0  0  0
    0.2900    0.7500    0.0000 C   0  0  0  0  0  0  0  0  0  0  0  0
    0.2900   -0.7500    0.0000 C   0  0  0  0  0  0  0  0  0  0  0  0
   -1.0100   -1.5000    0.0000 C   0  0  0  0  0  0  0  0  0  0  0  0
    2.6000    0.0000    0.0000 C   0  0  0  0  0  0  0  0  0  0  0  0
   -1.0100    3.0000    0.0000 O   0  0  0  0  0  0  0  0  0  0  0  0
   -1.0100   -3.0000    0.0000 O   0  0  0  0  0  0  0  0  0  0  0  0
   -2.3100   -0.7500    0.0000 O   0  0  0  0  0  0  0  0  0  0  0  0
    1.7200    1.2100    0.0000 O   0  0  0  0  0  0  0  0  0  0  0  0
    1.7200   -1.2100    0.0000 O   0  0  0  0  0  0  0  0  0  0  0  0
  5  1  1  1
  6  5  1  0
  7  6  1  0
  8  7  1  0
  9  8  1  0
 10  2  1  0
 10  3  1  0
  6 11  1  6
 12  4  1  0
  9 12  1  6
 13  5  1  0
 13  9  1  0
  7 14  1  1
 14 10  1  0
  8 15  1  1
 15 10  1  0
M  END
>  <NAME>  (4150) 
METHYL 2,3-O-ISOPROPYLIDENE-ALPHA-L-RHAMNOPYRANOSIDE

>  <SYNONYMS>  (4150) 


>  <SPECTRUM TYPE>  (4150) 
MS1

>  <INSTRUMENT TYPE>  (4150) 
EI-B

>  <INSTRUMENT>  (4150) 
HITACHI RMU-6L

>  <ION MODE>  (4150) 
P

>  <INCHIKEY>  (4150) 
TVKKWQAJQZHTDN-OFPUPOEVSA-N

>  <FORMULA>  (4150) 
C10H18O5

>  <EXACT MASS>  (4150) 
218.115423676

>  <MW>  (4150) 
218

>  <ID>  (4150) 
JP006324

>  <CONTRIBUTOR>  (4150) 
University of Tokyo Team, {Faculty of Engineering, University of Tokyo

>  <COMMENT>  (4150) 
SMILES=COC(O1)C(O2)C(OC(C)(C)2)C(O)C(C)1
InChI=InChI=1S/C10H18O5/c1-5-6(11)7-8(9(12-4)13-5)15-10(2,3)14-7/h5-9,11H,1-4H3/t5-,6-,7+,8+,9+/m0/s1
computed SMILES=OC1C(OC(OC)C2OC(OC12)(C)C)C
accession=JP006324
date=2016.01.19 (Created 2008.10.21, modified 2011.05.06)
author=EGUCHI S, FAC. OF SCIENCE, HIROSHIMA UNIV.
license=CC BY-NC-SA
exact mass=218.11542
ionization energy=70 eV
ion type=[M]+*
computed spectral entropy=3.287508760524832
computed normalized entropy=0.7662369976034297
SPLASH=splash10-0zfr-9400000000-cc032d8d44a538ed8eb4
submitter=submitter = University of Tokyo Team (Faculty of Engineering, University of Tokyo)
MoNA Rating=3.75

>  <NUM PEAKS>  (4150) 
73

>  <MASS SPECTRAL PEAKS>  (4150) 
40 3.1
41 17.7
42 6.6
43 1.63
44 4.3
45 21.4
46 1.4
47 0.47
48 2.3
49 2.4
50 1.4
51 0.11
53 4.6
54 4
55 34.3
56 0.97
57 21.7
58 18.7
59 49.1
60 0.91
61 12.2
70 1.1
71 58.3
72 0.51
73 16.6
74 4.4
75 6.9
81 0.17
82 4
83 14
84 2.9
85 6.17
86 4.6
87 12.4
88 1.7
89 0.11
97 2.9
98 1.4
99 32
100 99.99
101 27.1
102 2.1
103 2.2
111 1.37
112 5.4
113 2
114 1.3
115 0.49
116 2.1
117 1.3
118 1.1
119 0.14
125 1.3
127 1.4
128 2
129 1.14
130 1.4
131 1.3
140 1.1
141 0.1
143 6.3
144 1.3
171 5.7
172 0.11
185 1.7
186 1.9
187 9.1
188 0.16
203 14.4
204 2.1
205 1
218 0.14
219 0.8

$$$$

     RDKit          2D

 40 43  0  0  1  0  0  0  0  0999 V2000
   -8.7054   -0.5047    0.0000 C   0  0  0  0  0  0  0  0  0  0  0  0
   -8.8609   -4.3939    0.0000 C   0  0  0  0  0  0  0  0  0  0  0  0
   -2.3658    2.3575    0.0000 C   0  0  0  0  0  0  0  0  0  0  0  0
  -15.5363   -1.1324    0.0000 C   0  0  0  0  0  0  0  0  0  0  0  0
  -14.5720   -2.8020    0.0000 C   0  0  0  0  0  0  0  0  0  0  0  0
    2.3588   -1.6464    0.0000 C   0  0  0  0  0  0  0  0  0  0  0  0
    1.3549   -2.7609    0.0000 H   0  0  0  0  0  0  0  0  0  0  0  0
    3.4733   -2.6502    0.0000 H   0  0  0  0  0  0  0  0  0  0  0  0
    3.6839   -0.1751    0.0000 H   0  0  0  0  0  0  0  0  0  0  0  0
    3.0721    1.0039    0.0000 C   0  0  0  0  0  0  0  0  0  0  0  0
    4.3972   -0.4673    0.0000 H   0  0  0  0  0  0  0  0  0  0  0  0
    4.1866    2.0077    0.0000 H   0  0  0  0  0  0  0  0  0  0  0  0
    2.0682    2.1184    0.0000 H   0  0  0  0  0  0  0  0  0  0  0  0
   -5.2999   -0.2437    0.0000 C   0  0  0  0  0  0  0  0  0  0  0  0
  -10.1616   -0.6427    0.0000 C   0  0  0  0  0  0  0  0  0  0  0  0
   -7.2282   -0.2440    0.0000 C   0  0  0  0  0  0  0  0  0  0  0  0
  -12.7609    0.8586    0.0000 C   0  0  0  0  0  0  0  0  0  0  0  0
  -11.4591   -4.3946    0.0000 C   0  0  0  0  0  0  0  0  0  0  0  0
  -12.7587   -3.6439    0.0000 C   0  0  0  0  0  0  0  0  0  0  0  0
   -8.8619   -1.3933    0.0000 C   0  0  0  0  0  0  0  0  0  0  0  0
  -14.0598    0.1084    0.0000 C   0  0  0  0  0  0  0  0  0  0  0  0
  -11.4612    0.1079    0.0000 C   0  0  0  0  0  0  0  0  0  0  0  0
   -7.5628   -2.1431    0.0000 C   0  0  0  0  0  0  0  0  0  0  0  0
  -10.1601   -3.6444    0.0000 C   0  0  0  0  0  0  0  0  0  0  0  0
   -2.3658    0.8575    0.0000 C   0  0  0  0  0  0  0  0  0  0  0  0
  -10.1609   -2.1435    0.0000 C   0  0  0  0  0  0  0  0  0  0  0  0
  -12.7594   -2.1431    0.0000 C   0  0  0  0  0  0  0  0  0  0  0  0
   -2.3658   -2.1425    0.0000 C   0  0  0  0  0  0  0  0  0  0  0  0
   -1.0658    0.1075    0.0000 C   0  0  0  0  0  0  0  0  0  0  0  0
   -1.0658   -1.3925    0.0000 C   0  0  0  0  0  0  0  0  0  0  0  0
   -3.6658   -1.3925    0.0000 C   0  0  0  0  0  0  0  0  0  0  0  0
  -14.0591   -1.3925    0.0000 C   0  0  0  0  0  0  0  0  0  0  0  0
    1.2442   -0.6425    0.0000 C   0  0  0  0  0  0  0  0  0  0  0  0
   -6.2639   -1.3929    0.0000 C   0  0  0  0  0  0  0  0  0  0  0  0
  -11.4605   -1.3929    0.0000 C   0  0  0  0  0  0  0  0  0  0  0  0
   -2.3658   -3.6425    0.0000 O   0  0  0  0  0  0  0  0  0  0  0  0
   -3.6658    0.1075    0.0000 O   0  0  0  0  0  0  0  0  0  0  0  0
    0.3642    0.5675    0.0000 O   0  0  0  0  0  0  0  0  0  0  0  0
    0.3642   -1.8525    0.0000 O   0  0  0  0  0  0  0  0  0  0  0  0
   -4.9647   -2.1427    0.0000 O   0  0  0  0  0  0  0  0  0  0  0  0
  6  7  1  0
  6  8  1  0
  6  9  1  0
 10 11  1  0
 10 12  1  0
 10 13  1  0
 16  1  2  0
 19 18  1  0
 21 17  1  0
 22 17  1  0
 23 20  1  0
 24  2  1  0
 24 18  2  0
 25  3  1  6
 26 20  1  1
 26 24  1  0
 27 19  1  1
 29 25  1  0
 30 28  1  0
 30 29  1  0
 31 28  1  0
 32  4  1  0
 32  5  1  0
 32 21  1  0
 32 27  1  0
 33  6  1  0
 33 10  1  0
 34 14  1  1
 34 16  1  0
 34 23  1  0
 35 15  1  1
 35 22  1  0
 35 26  1  0
 35 27  1  0
 28 36  1  1
 37 25  1  0
 37 31  1  0
 29 38  1  6
 38 33  1  0
 30 39  1  6
 39 33  1  0
 31 40  1  6
 34 40  1  0
M  ISO  6   7   2   8   2   9   2  11   2  12   2  13   2
M  END
>  <NAME>  (4151) 
LABDA-7,14-DIEN-13(R)-OL-BETA-D-FUCOPYRANOSIDE 3,4-O-ISOPROPYLIDENE DERIVATIVE (3,3,3,4,4,4-D6)

>  <SYNONYMS>  (4151) 
LABDA-7,14-DIEN-13(R)-OL-BETA-D-FUCOPYRANOSIDE 3,4-O-HEXADEUTEROISOPROPYLIDENE DERIVATIVE

>  <SPECTRUM TYPE>  (4151) 
MS1

>  <INSTRUMENT TYPE>  (4151) 
EI-B

>  <INSTRUMENT>  (4151) 
HITACHI RMU-6L

>  <ION MODE>  (4151) 
P

>  <INCHIKEY>  (4151) 
XXWIHOYJEBPTAM-QEZZSVBVSA-N

>  <FORMULA>  (4151) 
C29H48O5

>  <EXACT MASS>  (4151) 
482.387835112

>  <MW>  (4151) 
482

>  <ID>  (4151) 
JP006323

>  <CONTRIBUTOR>  (4151) 
University of Tokyo Team, {Faculty of Engineering, University of Tokyo

>  <COMMENT>  (4151) 
SMILES=C(C=4C)(C(C3)(C)C([H])(CC([H])4)C(CC3)(C)C)(CCC(C=C)(OC(C([H])(O)2)([H])OC([H])(C)C([H])(C12[H])OC(O1)(C([2H])([2H])[2H])C([2H])([2H])[2H])C)[H]
InChI=InChI=1S/C29H48O5/c1-10-28(8,34-25-22(30)24-23(19(3)31-25)32-27(6,7)33-24)17-14-20-18(2)12-13-21-26(4,5)15-11-16-29(20,21)9/h10,12,19-25,30H,1,11,13-17H2,2-9H3/t19-,20+,21+,22-,23+,24-,25+,28+,29-/m1/s1/i6D3,7D3
computed SMILES=[H]C([H])([H])C1(OC2C(OC(OC(C=C)(C)CCC3C(=CCC4C(C)(C)CCCC34C)C)C(O)C2O1)C)C([H])([H])[H]
accession=JP006323
date=2016.01.19 (Created 2008.10.21, modified 2011.05.06)
author=EGUCHI S, FAC. OF SCIENCE, HIROSHIMA UNIV.
license=CC BY-NC-SA
exact mass=476.35017
ionization energy=70 eV
ion type=[M]+*
computed spectral entropy=4.560851267933847
computed normalized entropy=0.8666387539873245
SPLASH=splash10-0ktf-9820000000-2bfc11cc782e55ee9c34
submitter=submitter = University of Tokyo Team (Faculty of Engineering, University of Tokyo)
MoNA Rating=3.75

>  <NUM PEAKS>  (4151) 
193

>  <MASS SPECTRAL PEAKS>  (4151) 
40 1.5
41 74
42 10
43 2.29
44 5
45 4
46 6.5
47 0.45
48 3.4
49 5.5
50 4.2
51 0.65
52 7
53 21
54 11
55 5.15
56 10.5
57 32
58 6.5
59 1.05
60 6.5
61 6.5
62 3.5
63 0.55
64 4
65 38.9
66 6.5
67 2.1
68 6
69 41
70 10
71 2.8
72 6.5
73 19
74 6
75 0.55
76 4
77 17.2
78 5.5
79 2.28
80 18.5
81 34.7
82 12
83 0.4
84 19.5
85 11.5
86 3.5
87 0.8
88 10.7
89 3.5
90 3
91 1.28
92 7.2
93 27.5
94 11.5
95 3.15
96 10.5
97 14
98 5
99 1.45
100 6.5
101 4
102 3.5
103 0.2
104 2.8
105 16.5
106 7
107 1.4
108 10.5
109 38.7
110 10
111 0.61
112 2.5
113 3.1
114 2
115 0.6
116 5.5
117 3
118 24
119 1.05
120 6.5
121 3.2
122 5.5
123 1.1
124 5.5
125 3
126 6.5
127 0.4
128 21
129 9
130 12.7
131 0.64
132 18.4
133 10.5
134 26.7
135 1.05
136 5.5
137 4.5
138 3
139 0.15
140 1
141 6.1
142 3.5
143 0.45
144 7.8
145 12.5
146 6
147 1.05
148 13
149 11.5
150 5.5
151 0.35
152 2
153 2
154 1
155 0.25
156 3
157 3.5
158 5.5
160 0.25
161 12
162 8
163 13.5
164 0.45
165 6
166 4
167 2
168 0.38
169 2.8
170 3
171 4.1
172 0.15
173 5
174 4
175 8.7
176 0.55
177 6.8
178 3.5
179 3.5
180 0.25
181 3.5
182 1.5
183 3
184 0.3
185 3.5
186 4.5
187 6
188 0.42
189 16
190 10.5
191 30.5
192 0.65
193 10.5
194 3
204 99.99
205 1.35
206 4
207 6.5
208 4.5
209 0.75
210 2.5
215 4.5
216 3.5
217 0.4
218 3.5
219 5.8
220 5.8
221 0.45
255 3.5
256 2.5
257 6
258 0.25
259 2.5
260 2
261 1.5
262 0.65
263 2.5
264 1.5
269 3.1
270 0.4
271 5.5
272 6.5
273 2
289 0.09
290 0.3
331 0.5
340 0.3
396 0.05
430 0.3
449 0.2
464 2.2
465 0.03
482 0.3

$$$$

     RDKit          2D

 40 43  0  0  1  0  0  0  0  0999 V2000
   -8.7054   -0.5047    0.0000 C   0  0  0  0  0  0  0  0  0  0  0  0
   -8.8609   -4.3939    0.0000 C   0  0  0  0  0  0  0  0  0  0  0  0
   -2.3658    2.3575    0.0000 C   0  0  0  0  0  0  0  0  0  0  0  0
  -15.5363   -1.1324    0.0000 C   0  0  0  0  0  0  0  0  0  0  0  0
  -14.5720   -2.8020    0.0000 C   0  0  0  0  0  0  0  0  0  0  0  0
    2.3588   -1.6464    0.0000 C   0  0  0  0  0  0  0  0  0  0  0  0
    1.3549   -2.7609    0.0000 H   0  0  0  0  0  0  0  0  0  0  0  0
    3.4733   -2.6502    0.0000 H   0  0  0  0  0  0  0  0  0  0  0  0
    3.6839   -0.1751    0.0000 H   0  0  0  0  0  0  0  0  0  0  0  0
    3.0721    1.0039    0.0000 C   0  0  0  0  0  0  0  0  0  0  0  0
    4.3972   -0.4673    0.0000 H   0  0  0  0  0  0  0  0  0  0  0  0
    4.1866    2.0077    0.0000 H   0  0  0  0  0  0  0  0  0  0  0  0
    2.0682    2.1184    0.0000 H   0  0  0  0  0  0  0  0  0  0  0  0
   -5.2999   -0.2437    0.0000 C   0  0  0  0  0  0  0  0  0  0  0  0
  -10.1616   -0.6427    0.0000 C   0  0  0  0  0  0  0  0  0  0  0  0
   -7.2282   -0.2440    0.0000 C   0  0  0  0  0  0  0  0  0  0  0  0
  -12.7609    0.8586    0.0000 C   0  0  0  0  0  0  0  0  0  0  0  0
  -11.4591   -4.3946    0.0000 C   0  0  0  0  0  0  0  0  0  0  0  0
  -12.7587   -3.6439    0.0000 C   0  0  0  0  0  0  0  0  0  0  0  0
   -8.8619   -1.3933    0.0000 C   0  0  0  0  0  0  0  0  0  0  0  0
  -14.0598    0.1084    0.0000 C   0  0  0  0  0  0  0  0  0  0  0  0
  -11.4612    0.1079    0.0000 C   0  0  0  0  0  0  0  0  0  0  0  0
   -7.5628   -2.1431    0.0000 C   0  0  0  0  0  0  0  0  0  0  0  0
  -10.1601   -3.6444    0.0000 C   0  0  0  0  0  0  0  0  0  0  0  0
   -2.3658    0.8575    0.0000 C   0  0  0  0  0  0  0  0  0  0  0  0
  -10.1609   -2.1435    0.0000 C   0  0  0  0  0  0  0  0  0  0  0  0
  -12.7594   -2.1431    0.0000 C   0  0  0  0  0  0  0  0  0  0  0  0
   -2.3658   -2.1425    0.0000 C   0  0  0  0  0  0  0  0  0  0  0  0
   -1.0658    0.1075    0.0000 C   0  0  0  0  0  0  0  0  0  0  0  0
   -1.0658   -1.3925    0.0000 C   0  0  0  0  0  0  0  0  0  0  0  0
   -3.6658   -1.3925    0.0000 C   0  0  0  0  0  0  0  0  0  0  0  0
  -14.0591   -1.3925    0.0000 C   0  0  0  0  0  0  0  0  0  0  0  0
    1.2442   -0.6425    0.0000 C   0  0  0  0  0  0  0  0  0  0  0  0
   -6.2639   -1.3929    0.0000 C   0  0  0  0  0  0  0  0  0  0  0  0
  -11.4605   -1.3929    0.0000 C   0  0  0  0  0  0  0  0  0  0  0  0
   -2.3658   -3.6425    0.0000 O   0  0  0  0  0  0  0  0  0  0  0  0
   -3.6658    0.1075    0.0000 O   0  0  0  0  0  0  0  0  0  0  0  0
    0.3642    0.5675    0.0000 O   0  0  0  0  0  0  0  0  0  0  0  0
    0.3642   -1.8525    0.0000 O   0  0  0  0  0  0  0  0  0  0  0  0
   -4.9647   -2.1427    0.0000 O   0  0  0  0  0  0  0  0  0  0  0  0
  6  7  1  0
  6  8  1  0
  6  9  1  0
 10 11  1  0
 10 12  1  0
 10 13  1  0
 16  1  2  0
 19 18  1  0
 21 17  1  0
 22 17  1  0
 23 20  1  0
 24  2  1  0
 24 18  2  0
 25  3  1  1
 26 20  1  1
 26 24  1  0
 27 19  1  1
 29 25  1  0
 30 28  1  0
 30 29  1  0
 31 28  1  0
 32  4  1  0
 32  5  1  0
 32 21  1  0
 32 27  1  0
 33  6  1  0
 33 10  1  0
 34 14  1  1
 34 16  1  0
 34 23  1  0
 35 15  1  1
 35 22  1  0
 35 26  1  0
 35 27  1  0
 28 36  1  1
 37 25  1  0
 37 31  1  0
 29 38  1  6
 38 33  1  0
 30 39  1  1
 39 33  1  0
 31 40  1  6
 34 40  1  0
M  ISO  6   7   2   8   2   9   2  11   2  12   2  13   2
M  END
>  <NAME>  (4152) 
LABDA-7,14-DIEN-13(R)-OL-ALPHA-L-RHAMNOPYRANOSIDE 2,3-O-ISOPROPYLIDENE DERIVATIVE (2,2,2,3,3,3-D6)

>  <SYNONYMS>  (4152) 
LABDA-7,14-DIEN-13(R)-OL-ALPHA-L-RHAMNOPYRANOSIDE 2,3-O-HEXADEUTEROISOPROPYLIDENEN DERIVATIVE

>  <SPECTRUM TYPE>  (4152) 
MS1

>  <INSTRUMENT TYPE>  (4152) 
EI-B

>  <INSTRUMENT>  (4152) 
HITACHI RMU-6L

>  <ION MODE>  (4152) 
P

>  <INCHIKEY>  (4152) 
XXWIHOYJEBPTAM-JKJNFHSYSA-N

>  <FORMULA>  (4152) 
C29H48O5

>  <EXACT MASS>  (4152) 
482.38783511199995

>  <MW>  (4152) 
482

>  <ID>  (4152) 
JP006322

>  <CONTRIBUTOR>  (4152) 
University of Tokyo Team, {Faculty of Engineering, University of Tokyo

>  <COMMENT>  (4152) 
SMILES=C(C=4C)(C(C3)(C)C([H])(CC([H])4)C(CC3)(C)C)(CCC(C=C)(OC(C([H])(O)2)([H])OC([H])(C)C([H])(C12[H])OC(O1)(C([2H])([2H])[2H])C([2H])([2H])[2H])C)[H]
InChI=InChI=1S/C29H48O5/c1-10-28(8,34-25-22(30)24-23(19(3)31-25)32-27(6,7)33-24)17-14-20-18(2)12-13-21-26(4,5)15-11-16-29(20,21)9/h10,12,19-25,30H,1,11,13-17H2,2-9H3/t19-,20-,21-,22+,23-,24-,25-,28-,29+/m0/s1/i6D3,7D3
computed SMILES=[H]C([H])([H])C1(OC2C(OC(OC(C=C)(C)CCC3C(=CCC4C(C)(C)CCCC34C)C)C(O)C2O1)C)C([H])([H])[H]
accession=JP006322
date=2016.01.19 (Created 2008.10.21, modified 2011.05.06)
author=EGUCHI S, FAC. OF SCIENCE, HIROSHIMA UNIV.
license=CC BY-NC-SA
exact mass=476.35017
ionization energy=70 eV
ion type=[M]+*
computed spectral entropy=4.377520889351682
computed normalized entropy=0.842074327064829
SPLASH=splash10-1003-9730000000-a9c0dcca953c50670af0
submitter=submitter = University of Tokyo Team (Faculty of Engineering, University of Tokyo)
MoNA Rating=3.75

>  <NUM PEAKS>  (4152) 
181

>  <MASS SPECTRAL PEAKS>  (4152) 
40 4.4
41 30.6
42 4.5
43 7.39
44 3.5
45 9.5
46 18.3
47 0.36
48 2.4
49 3.5
50 1.5
51 0.45
52 2.1
53 9.5
54 4.5
55 4.95
56 7.3
57 33.5
58 4.3
59 0.4
60 2.5
61 7.3
62 2.4
63 0.22
64 7.2
65 67.3
66 4.5
67 1.45
68 12.5
69 32
70 4.3
71 3.2
72 4.9
73 9.5
74 4.5
75 0.35
76 2.2
77 8.3
78 3.6
79 1.47
80 14
81 44
82 9.5
83 2.08
84 4.5
85 9.4
86 4
87 0.45
88 8
89 2
90 1.5
91 1.25
92 6
93 24.8
94 7
95 2.36
96 6
97 7
98 2.2
99 1.7
100 4.3
101 5.2
102 2.2
103 0.31
104 2.2
105 14.5
106 9.2
107 2.2
108 14.6
109 35.1
110 6.1
111 0.59
112 1.5
113 1.5
114 1
115 0.3
116 2.5
117 3.7
118 3
119 1.72
120 8.5
121 14.2
122 10.3
123 1.14
124 7
125 6.1
126 1.8
127 0.25
128 4.5
129 12
130 3
131 0.16
132 10.3
133 7
134 14.5
135 0.6
136 4.5
137 2.2
138 1
139 0.12
140 1.2
141 3.6
142 1.7
143 0.19
144 1.7
145 36.8
146 4.5
147 0.77
148 9.1
149 9.5
150 3.4
151 0.2
159 3.1
160 1.5
161 11
162 0.45
163 14.5
164 4.5
165 3.7
166 0.19
173 3.1
174 2.5
175 4.5
176 0.35
177 6.2
178 2.5
179 2.5
186 0.15
187 4.5
188 3.5
189 12
190 0.62
191 12
192 10.5
193 28.4
194 0.45
195 1.5
201 11
202 3.4
203 0.6
204 99.99
205 19
206 3.1
207 0.15
208 1.5
209 11
210 1.7
211 0.15
215 4.5
216 1.5
217 2.4
218 0.18
219 1.2
229 2.1
230 1.5
231 0.15
257 6.1
258 2.4
259 1.2
262 0.32
263 1.2
271 18.5
272 7.2
273 0.45
274 1.6
288 0.9
289 1.8
290 0.14
318 0.5
319 0.5
332 0.3
344 0.04
345 0.3
383 0.5
396 0.6
400 0.04
418 0.2
449 0.1
464 0.3
465 0.01
482 0.4

$$$$

     RDKit          2D

 34 37  0  0  1  0  0  0  0  0999 V2000
  -15.3018    0.7521    0.0000 C   0  0  0  0  0  0  0  0  0  0  0  0
  -12.7037   -0.7479    0.0000 C   0  0  0  0  0  0  0  0  0  0  0  0
  -10.1063    3.7527    0.0000 C   0  0  0  0  0  0  0  0  0  0  0  0
   -1.0100    3.0000    0.0000 C   0  0  0  0  0  0  0  0  0  0  0  0
   -3.4313    0.4901    0.0000 C   0  0  0  0  0  0  0  0  0  0  0  0
   -4.3954    2.1599    0.0000 C   0  0  0  0  0  0  0  0  0  0  0  0
    3.7146   -1.0039    0.0000 C   0  0  0  0  0  0  0  0  0  0  0  0
    3.7146    1.0039    0.0000 C   0  0  0  0  0  0  0  0  0  0  0  0
   -8.8062    0.0012    0.0000 C   0  0  0  0  0  0  0  0  0  0  0  0
  -14.0028    1.5021    0.0000 C   0  0  0  0  0  0  0  0  0  0  0  0
  -11.4047    1.5021    0.0000 C   0  0  0  0  0  0  0  0  0  0  0  0
   -7.5081    3.7529    0.0000 C   0  0  0  0  0  0  0  0  0  0  0  0
  -10.1057    0.7521    0.0000 C   0  0  0  0  0  0  0  0  0  0  0  0
   -6.2086    3.0021    0.0000 C   0  0  0  0  0  0  0  0  0  0  0  0
   -6.2071   -1.5004    0.0000 C   0  0  0  0  0  0  0  0  0  0  0  0
   -7.5066   -0.7496    0.0000 C   0  0  0  0  0  0  0  0  0  0  0  0
  -12.7037    0.7521    0.0000 C   0  0  0  0  0  0  0  0  0  0  0  0
   -8.8071    3.0029    0.0000 C   0  0  0  0  0  0  0  0  0  0  0  0
   -1.0100    1.5000    0.0000 C   0  0  0  0  0  0  0  0  0  0  0  0
   -8.8066    1.5021    0.0000 C   0  0  0  0  0  0  0  0  0  0  0  0
   -6.2081    1.5012    0.0000 C   0  0  0  0  0  0  0  0  0  0  0  0
   -4.9081   -0.7504    0.0000 C   0  0  0  0  0  0  0  0  0  0  0  0
   -1.0100   -1.5000    0.0000 C   0  0  0  0  0  0  0  0  0  0  0  0
    0.2900    0.7500    0.0000 C   0  0  0  0  0  0  0  0  0  0  0  0
    0.2900   -0.7500    0.0000 C   0  0  0  0  0  0  0  0  0  0  0  0
   -2.3100   -0.7500    0.0000 C   0  0  0  0  0  0  0  0  0  0  0  0
   -4.9086    0.7504    0.0000 C   0  0  0  0  0  0  0  0  0  0  0  0
    2.6000    0.0000    0.0000 C   0  0  0  0  0  0  0  0  0  0  0  0
   -7.5071    0.7512    0.0000 C   0  0  0  0  0  0  0  0  0  0  0  0
   -1.0100   -3.0000    0.0000 O   0  0  0  0  0  0  0  0  0  0  0  0
   -2.3100    0.7500    0.0000 O   0  0  0  0  0  0  0  0  0  0  0  0
   -3.6089   -1.5002    0.0000 O   0  0  0  0  0  0  0  0  0  0  0  0
    1.7200    1.2100    0.0000 O   0  0  0  0  0  0  0  0  0  0  0  0
    1.7200   -1.2100    0.0000 O   0  0  0  0  0  0  0  0  0  0  0  0
 10  1  2  0
 13 11  1  0
 14 12  1  0
 16 15  1  0
 17  2  1  6
 17 10  1  0
 17 11  1  0
 18  3  1  0
 18 12  2  0
 19  4  1  6
 20 13  1  1
 20 18  1  0
 21 14  1  1
 22 15  1  0
 24 19  1  0
 25 23  1  0
 25 24  1  0
 26 23  1  0
 27  5  1  0
 27  6  1  0
 27 21  1  0
 27 22  1  0
 28  7  1  0
 28  8  1  0
 29  9  1  1
 29 16  1  0
 29 20  1  0
 29 21  1  0
 23 30  1  1
 31 19  1  0
 31 26  1  0
 32 22  1  0
 26 32  1  6
 24 33  1  6
 33 28  1  0
 25 34  1  6
 34 28  1  0
M  END
>  <NAME>  (4153) 
LABDA-7,14-DIEN-13(R)-OL-BETA-D-FUCOPYRANOSIDE 3,4-O-ISOPROPYLIDENE DERIVATIVE

>  <SYNONYMS>  (4153) 


>  <SPECTRUM TYPE>  (4153) 
MS1

>  <INSTRUMENT TYPE>  (4153) 
EI-B

>  <INSTRUMENT>  (4153) 
HITACHI RMU-6L

>  <ION MODE>  (4153) 
P

>  <INCHIKEY>  (4153) 
IEIKJOXKWGQASR-IGPZGSHMSA-N

>  <FORMULA>  (4153) 
C29H48O5

>  <EXACT MASS>  (4153) 
476.35017463599996

>  <MW>  (4153) 
476

>  <ID>  (4153) 
JP006321

>  <CONTRIBUTOR>  (4153) 
University of Tokyo Team, {Faculty of Engineering, University of Tokyo

>  <COMMENT>  (4153) 
SMILES=CC(C)(C2OC([H])(O4)C([H])(O)C(C(C([H])(C)4)3[H])(OC(C)(C)O3)[H])C([H])(C1(C)CC2)CC([H])=C(C)C(CCC([H])(C)C=C)1[H]
InChI=InChI=1S/C29H48O5/c1-10-17(2)11-13-20-18(3)12-14-21-27(5,6)22(15-16-29(20,21)9)32-26-23(30)25-24(19(4)31-26)33-28(7,8)34-25/h10,12,17,19-26,30H,1,11,13-16H2,2-9H3/t17-,19-,20+,21+,22?,23-,24+,25-,26+,29-/m1/s1
computed SMILES=OC1C(OC(C)C2OC(OC12)(C)C)OC3CCC4(C)C(C(=CCC4C3(C)C)C)CCC(C=C)C
accession=JP006321
date=2016.01.19 (Created 2008.10.21, modified 2011.05.06)
author=EGUCHI S, FAC. OF SCIENCE, HIROSHIMA UNIV.
license=CC BY-NC-SA
exact mass=476.35017
ionization energy=70 eV
ion type=[M]+*
computed spectral entropy=3.886554554044276
computed normalized entropy=0.8076487239532397
SPLASH=splash10-0pb9-9630000000-fe16923f18c541ad8218
submitter=submitter = University of Tokyo Team (Faculty of Engineering, University of Tokyo)
MoNA Rating=3.75

>  <NUM PEAKS>  (4153) 
123

>  <MASS SPECTRAL PEAKS>  (4153) 
40 1
41 21.2
42 3.2
43 5
44 1.5
45 3.5
52 1
53 0.55
54 1.1
55 28.4
56 3
57 1.85
58 2.5
59 40
60 3.4
61 0.25
65 2.5
66 1.5
67 8.6
68 0.64
69 18.8
70 2
71 13
72 0.15
73 7
74 1
77 5.5
78 0.15
79 8.9
80 10.5
81 35.5
82 0.45
83 8.7
84 2.7
85 5.5
86 0.2
87 3.5
91 7
92 3.5
93 1.65
94 5.5
95 15.5
96 3.5
98 1.02
99 13
100 4
101 5
102 0.11
103 1.1
104 1
105 8.4
106 0.35
107 11
108 13.4
109 33.4
110 0.32
111 3
112 1
113 3.5
115 0.35
116 1.5
117 2
118 1.5
119 1.07
120 6
121 11.2
122 8.5
123 0.68
124 3.5
125 1.5
127 2.5
128 0.35
129 13.5
130 1.5
143 1
144 0.15
145 5.5
146 1
147 4
148 0.7
149 5.5
150 1.5
151 1.5
157 1.05
158 1.5
159 2.4
160 1.4
161 0.95
162 3.5
163 4
164 1.5
171 0.12
173 1.5
175 2.5
176 1.5
177 0.3
187 8.5
188 1.5
189 9
190 0.25
191 13
192 3.5
193 1.5
201 0.3
202 1.5
203 3.5
204 99.99
205 1.85
206 3.9
257 3.2
258 1
271 0.4
272 5.5
273 4
274 1.2
289 0.07
331 0.4
337 0.2
390 0.3
443 0.02
461 2
467 0.5
476 0.1

$$$$

     RDKit          2D

 34 37  0  0  1  0  0  0  0  0999 V2000
   -4.7504   -2.8614    0.0000 C   0  0  0  0  0  0  0  0  0  0  0  0
   -1.0092   -7.4998    0.0000 C   0  0  0  0  0  0  0  0  0  0  0  0
   -3.6089    1.5002    0.0000 C   0  0  0  0  0  0  0  0  0  0  0  0
   -7.1721  -11.6492    0.0000 C   0  0  0  0  0  0  0  0  0  0  0  0
   -5.2440  -11.6492    0.0000 C   0  0  0  0  0  0  0  0  0  0  0  0
    3.7146   -1.0039    0.0000 C   0  0  0  0  0  0  0  0  0  0  0  0
    3.7146    1.0039    0.0000 C   0  0  0  0  0  0  0  0  0  0  0  0
   -2.8221   -2.3405    0.0000 C   0  0  0  0  0  0  0  0  0  0  0  0
   -4.9081   -6.7500    0.0000 C   0  0  0  0  0  0  0  0  0  0  0  0
   -3.7862   -4.0105    0.0000 C   0  0  0  0  0  0  0  0  0  0  0  0
   -7.5081   -8.2500    0.0000 C   0  0  0  0  0  0  0  0  0  0  0  0
   -2.3081   -9.7500    0.0000 C   0  0  0  0  0  0  0  0  0  0  0  0
   -3.6081  -10.5000    0.0000 C   0  0  0  0  0  0  0  0  0  0  0  0
   -3.6081   -6.0000    0.0000 C   0  0  0  0  0  0  0  0  0  0  0  0
   -7.5081   -9.7500    0.0000 C   0  0  0  0  0  0  0  0  0  0  0  0
   -6.2081   -7.5000    0.0000 C   0  0  0  0  0  0  0  0  0  0  0  0
   -2.3090   -5.2500    0.0000 C   0  0  0  0  0  0  0  0  0  0  0  0
   -2.3081   -8.2500    0.0000 C   0  0  0  0  0  0  0  0  0  0  0  0
   -2.3100    0.7500    0.0000 C   0  0  0  0  0  0  0  0  0  0  0  0
   -3.6081   -7.5000    0.0000 C   0  0  0  0  0  0  0  0  0  0  0  0
   -4.9081   -9.7500    0.0000 C   0  0  0  0  0  0  0  0  0  0  0  0
   -1.0100    1.5000    0.0000 C   0  0  0  0  0  0  0  0  0  0  0  0
    0.2900    0.7500    0.0000 C   0  0  0  0  0  0  0  0  0  0  0  0
    0.2900   -0.7500    0.0000 C   0  0  0  0  0  0  0  0  0  0  0  0
   -1.0100   -1.5000    0.0000 C   0  0  0  0  0  0  0  0  0  0  0  0
   -6.2081  -10.5000    0.0000 C   0  0  0  0  0  0  0  0  0  0  0  0
    2.6000    0.0000    0.0000 C   0  0  0  0  0  0  0  0  0  0  0  0
   -2.3090   -3.7500    0.0000 C   0  0  0  0  0  0  0  0  0  0  0  0
   -4.9081   -8.2500    0.0000 C   0  0  0  0  0  0  0  0  0  0  0  0
   -1.0100    3.0000    0.0000 O   0  0  0  0  0  0  0  0  0  0  0  0
   -2.3100   -0.7500    0.0000 O   0  0  0  0  0  0  0  0  0  0  0  0
    1.7200    1.2100    0.0000 O   0  0  0  0  0  0  0  0  0  0  0  0
    1.7200   -1.2100    0.0000 O   0  0  0  0  0  0  0  0  0  0  0  0
   -1.0100   -3.0000    0.0000 O   0  0  0  0  0  0  0  0  0  0  0  0
 10  1  2  0
 13 12  1  0
 15 11  1  0
 16 11  1  0
 17 14  1  0
 18  2  1  0
 18 12  2  0
 19  3  1  1
 20 14  1  1
 20 18  1  0
 21 13  1  1
 22 19  1  0
 23 22  1  0
 24 23  1  0
 25 24  1  0
 26  4  1  0
 26  5  1  0
 26 15  1  0
 26 21  1  0
 27  6  1  0
 27  7  1  0
 28  8  1  1
 28 10  1  0
 28 17  1  0
 29  9  1  1
 29 16  1  0
 29 20  1  0
 29 21  1  0
 22 30  1  6
 31 19  1  0
 31 25  1  0
 23 32  1  1
 32 27  1  0
 24 33  1  1
 33 27  1  0
 25 34  1  6
 28 34  1  0
M  END
>  <NAME>  (4154) 
LABDA-7,14-DIEN-13(R)-OL-ALPHA-L-RHAMNOPYRANOSIDE 2,3-O-ISOPROPYLIDENE DERIVATIVE

>  <SYNONYMS>  (4154) 


>  <SPECTRUM TYPE>  (4154) 
MS1

>  <INSTRUMENT TYPE>  (4154) 
EI-B

>  <INSTRUMENT>  (4154) 
HITACHI RMU-6L

>  <ION MODE>  (4154) 
P

>  <INCHIKEY>  (4154) 
CYVZURJWSZNEAQ-QEUCPSMUSA-N

>  <FORMULA>  (4154) 
C29H48O5

>  <EXACT MASS>  (4154) 
476.35017463599996

>  <MW>  (4154) 
476

>  <ID>  (4154) 
JP006320

>  <CONTRIBUTOR>  (4154) 
University of Tokyo Team, {Faculty of Engineering, University of Tokyo

>  <COMMENT>  (4154) 
SMILES=C(C=4C)(C(C3)(C)C([H])(CC([H])4)C(CC3)(C)C)([H])CCC(C=C)(OC([H])(O2)C(O1)(C(C([H])(O)C2([H])C)(OC(C)(C)1)[H])[H])C
InChI=InChI=1S/C29H48O5/c1-10-28(8,34-25-24-23(22(30)19(3)31-25)32-27(6,7)33-24)17-14-20-18(2)12-13-21-26(4,5)15-11-16-29(20,21)9/h10,12,19-25,30H,1,11,13-17H2,2-9H3/t19-,20-,21-,22-,23+,24+,25-,28-,29+/m0/s1
computed SMILES=OC1C(OC(OC(C=C)(C)CCC2C(=CCC3C(C)(C)CCCC23C)C)C4OC(OC14)(C)C)C
accession=JP006320
date=2016.01.19 (Created 2008.10.21, modified 2011.05.06)
author=EGUCHI S, FAC. OF SCIENCE, HIROSHIMA UNIV.
license=CC BY-NC-SA
exact mass=476.35017
ionization energy=70 eV
ion type=[M]+*
computed spectral entropy=4.3591465129765075
computed normalized entropy=0.8376519814629861
SPLASH=splash10-0pb9-9720000000-fd352cfd0c5a76fe8d5a
submitter=submitter = University of Tokyo Team (Faculty of Engineering, University of Tokyo)
MoNA Rating=3.75

>  <NUM PEAKS>  (4154) 
182

>  <MASS SPECTRAL PEAKS>  (4154) 
40 4
41 54.3
42 6.8
43 8.83
44 4.5
45 9.5
46 1.5
47 0.1
51 3.1
52 1.5
53 11.6
54 0.47
55 51.5
56 8.5
57 27.7
58 0.9
59 61.1
60 5.5
61 3.5
62 0.15
63 1.2
64 1.8
65 4.5
66 0.25
67 15.6
68 10.5
69 41.6
70 0.7
71 23.5
72 3.8
73 9.4
74 0.26
75 1.5
76 1
77 11.7
78 0.37
79 18.5
80 20.5
81 58.5
82 1.11
83 22.8
84 10.9
85 22.8
86 0.24
87 2.4
88 1.2
89 1.7
90 0.15
91 15.6
92 6.4
93 28.9
94 0.94
95 17.3
96 6.1
97 13.2
98 0.34
99 11.9
100 19.5
101 10
102 0.21
103 3.1
104 7
105 16.3
106 0.7
107 22.7
108 16.5
109 49
110 0.7
111 7
112 2.8
113 24.1
114 0.7
115 7
116 2
117 4.5
118 0.25
119 19.5
120 9.5
121 20.8
122 1.18
123 12.6
124 9.6
125 4.4
126 0.18
127 4.8
128 4.8
129 23.7
130 0.34
131 4.4
132 1.6
133 14
134 0.84
135 18.5
136 6.9
137 8.2
138 0.22
139 2.1
140 1.1
141 2.1
142 0.46
143 2.5
144 1.8
145 20.8
146 0.42
147 8.3
148 10.5
149 10.9
150 0.27
151 3.6
152 2
153 1.8
154 0.15
155 2.2
156 1.2
157 7
158 0.22
159 4.2
160 2.1
161 16.4
162 0.45
163 8.5
164 2.1
165 2.1
166 0.17
167 3.8
168 1.4
169 1.9
170 0.19
171 4.6
172 1.9
173 3.2
174 0.15
175 5.1
176 3.4
177 6.9
178 0.22
179 1.5
186 4.5
187 16
188 0.41
189 13.5
190 4.5
191 15.7
192 0.45
193 1.8
201 7.1
202 2.2
203 1.07
204 99.99
205 23
215 14
216 0.25
217 2.1
218 3.2
219 1.8
220 0.24
229 5
249 1.8
257 4
258 0.18
259 1
271 9.5
272 5.5
273 0.4
286 0.7
288 0.6
289 1.6
290 0.14
291 0.5
315 0.3
318 0.4
319 0.04
332 0.4
344 0.5
377 0.3
390 0.05
400 0.3
418 1.4
443 0.2
461 0.2
462 0.7
476 0.1

$$$$

     RDKit          2D

 31 33  0  0  1  0  0  0  0  0999 V2000
    3.8081    7.4000    0.0000 C   0  0  0  0  0  0  0  0  0  0  0  0
    3.8089    1.4002    0.0000 C   0  0  0  0  0  0  0  0  0  0  0  0
    0.1397   10.0280    0.0000 C   0  0  0  0  0  0  0  0  0  0  0  0
   -2.3541   -2.7492    0.0000 C   0  0  0  0  0  0  0  0  0  0  0  0
   -0.4259   -2.7492    0.0000 C   0  0  0  0  0  0  0  0  0  0  0  0
    1.9960    6.5595    0.0000 C   0  0  0  0  0  0  0  0  0  0  0  0
   -0.0900    2.1500    0.0000 C   0  0  0  0  0  0  0  0  0  0  0  0
    3.8081    5.9000    0.0000 C   0  0  0  0  0  0  0  0  0  0  0  0
   -2.6900    0.6500    0.0000 C   0  0  0  0  0  0  0  0  0  0  0  0
    2.5100   -0.8500    0.0000 C   0  0  0  0  0  0  0  0  0  0  0  0
    1.2100   -1.6000    0.0000 C   0  0  0  0  0  0  0  0  0  0  0  0
    1.2100    2.9000    0.0000 C   0  0  0  0  0  0  0  0  0  0  0  0
   -2.6900   -0.8500    0.0000 C   0  0  0  0  0  0  0  0  0  0  0  0
   -1.3900    1.4000    0.0000 C   0  0  0  0  0  0  0  0  0  0  0  0
    2.5090    3.6500    0.0000 C   0  0  0  0  0  0  0  0  0  0  0  0
    2.5100    0.6500    0.0000 C   0  0  0  0  0  0  0  0  0  0  0  0
   -0.3784    8.6203    0.0000 C   0  0  0  0  0  0  0  0  0  0  0  0
    1.2100    1.4000    0.0000 C   0  0  0  0  0  0  0  0  0  0  0  0
   -0.0900   -0.8500    0.0000 C   0  0  0  0  0  0  0  0  0  0  0  0
   -1.8467    8.3667    0.0000 C   0  0  0  0  0  0  0  0  0  0  0  0
   -2.3742    6.9563    0.0000 C   0  0  0  0  0  0  0  0  0  0  0  0
   -1.4006    5.7849    0.0000 C   0  0  0  0  0  0  0  0  0  0  0  0
    0.0676    6.0386    0.0000 C   0  0  0  0  0  0  0  0  0  0  0  0
   -1.3900   -1.6000    0.0000 C   0  0  0  0  0  0  0  0  0  0  0  0
    2.5090    5.1500    0.0000 C   0  0  0  0  0  0  0  0  0  0  0  0
   -0.0900    0.6500    0.0000 C   0  0  0  0  0  0  0  0  0  0  0  0
   -2.8037    9.5217    0.0000 O   0  0  0  0  0  0  0  0  0  0  0  0
   -3.8532    6.7058    0.0000 O   0  0  0  0  0  0  0  0  0  0  0  0
   -1.9193    4.3775    0.0000 O   0  0  0  0  0  0  0  0  0  0  0  0
    0.5820    7.4670    0.0000 O   0  0  0  0  0  0  0  0  0  0  0  0
    1.0318    4.8895    0.0000 O   0  0  0  0  0  0  0  0  0  0  0  0
  8  1  2  0
 11 10  1  0
 13  9  1  0
 14  9  1  0
 15 12  1  0
 16  2  1  0
 16 10  2  0
 17  3  1  0
 18 12  1  1
 18 16  1  0
 19 11  1  1
 20 17  1  0
 21 20  1  0
 22 21  1  0
 23 22  1  0
 24  4  1  0
 24  5  1  0
 24 13  1  0
 24 19  1  0
 25  6  1  6
 25  8  1  0
 25 15  1  0
 26  7  1  1
 26 14  1  0
 26 18  1  0
 26 19  1  0
 20 27  1  6
 21 28  1  6
 29 22  1  0
 30 17  1  0
 30 23  1  0
 23 31  1  1
 25 31  1  0
M  END
>  <NAME>  (4155) 
LABDA-7,14-DIEN-13(R)-OL-ALPHA-L-6-DEOXYIDOPYRANOSIDE

>  <SYNONYMS>  (4155) 


>  <SPECTRUM TYPE>  (4155) 
MS1

>  <INSTRUMENT TYPE>  (4155) 
EI-B

>  <INSTRUMENT>  (4155) 
HITACHI RMU-6L

>  <ION MODE>  (4155) 
P

>  <INCHIKEY>  (4155) 
SHBMAOBNYQEHHP-NBNQVVCBSA-N

>  <FORMULA>  (4155) 
C26H44O5

>  <EXACT MASS>  (4155) 
436.31887450799996

>  <MW>  (4155) 
436

>  <ID>  (4155) 
JP006319

>  <CONTRIBUTOR>  (4155) 
University of Tokyo Team, {Faculty of Engineering, University of Tokyo

>  <COMMENT>  (4155) 
SMILES=CC(C)(C3)C([H])(C(C)1CC3)CC(=C(C([H])(CCC(OC([H])(C([H])(O)2)OC([H])(C)C([H])(O)C([H])(O)2)(C)C=C)1)C)[H]
InChI=InChI=1S/C26H44O5/c1-8-25(6,31-23-22(29)21(28)20(27)17(3)30-23)15-12-18-16(2)10-11-19-24(4,5)13-9-14-26(18,19)7/h8,10,17-23,27-29H,1,9,11-15H2,2-7H3/t17?,18-,19-,20+,21+,22?,23-,25-,26+/m0/s1
computed SMILES=OC1C(OC(C)C(O)C1O)OC(C=C)(C)CCC2C(=CCC3C(C)(C)CCCC23C)C
accession=JP006319
date=2016.01.19 (Created 2008.10.21, modified 2011.05.06)
author=EGUCHI S, FAC. OF SCIENCE, HIROSHIMA UNIV.
license=CC BY-NC-SA
exact mass=436.31887
ionization energy=70 eV
ion type=[M]+*
computed spectral entropy=4.597748774462405
computed normalized entropy=0.8531615471035786
SPLASH=splash10-0pxv-9620000000-1479872e01cf3a1ceee5
submitter=submitter = University of Tokyo Team (Faculty of Engineering, University of Tokyo)
MoNA Rating=3.75

>  <NUM PEAKS>  (4155) 
219

>  <MASS SPECTRAL PEAKS>  (4155) 
40 7.5
41 42
42 19.5
43 5.2
44 24
45 58.5
46 14
47 1.3
48 6
49 5
50 2.8
51 0.55
52 3.5
53 25.5
54 8.5
55 7.55
56 14.5
57 50
58 23.5
59 1.65
60 55.5
61 18
62 1.5
63 0.3
64 1.5
65 10.5
66 4.5
67 3.55
68 19.5
69 81
70 14
71 5.1
72 12.5
73 52.5
74 11.5
75 2.15
76 59
77 20.5
78 30.5
79 1.05
80 32
81 6
82 13.5
83 0.55
84 1.5
85 1.7
86 6.5
87 1.35
88 5
89 6
90 2
91 2.8
92 9.5
93 43
94 17
95 5.55
96 13
97 18
98 12
99 1.4
100 7.5
101 5.5
102 5.5
103 0.85
104 3.5
105 28
106 11.5
107 3.55
108 25.5
109 66
110 14
111 1.65
112 9
113 5.5
114 2.5
115 0.85
116 3
117 15
118 5
119 3.55
120 12
121 7.5
122 6.5
123 0.65
124 13
125 3.5
126 8.3
127 0.45
128 7.5
129 14
130 3
131 0.82
132 4.5
133 22.5
134 11.5
135 2.8
136 13
137 16.5
138 8.5
139 0.65
140 3.5
141 6
142 4
143 0.45
144 4.5
145 10.5
146 5.5
147 1.95
148 13.5
149 16.5
150 6
151 1.05
152 5
153 5
154 2.5
155 0.35
156 2
157 4.5
158 2.5
159 0.75
160 2.5
161 19.5
162 7
163 1.35
164 13
165 8
166 5
167 0.55
168 1.5
169 2.5
170 1.5
171 0.35
172 1.5
173 8.5
174 3
175 1
176 5
177 15
178 5.5
179 0.5
180 3
181 3
182 2
183 0.3
184 1.5
185 4.5
186 2
187 1.1
188 5.5
189 21.5
190 7.5
191 2.32
192 7.1
193 5.5
194 3.5
195 0.25
196 1.5
197 1.5
198 1
199 0.35
200 1.5
201 8.5
202 5
203 0.8
204 99.99
205 27.4
206 7
207 0.55
208 2.5
209 2
215 3.5
216 0.2
217 4.5
218 4.5
219 5
220 0.6
221 4.5
222 2.5
233 2
243 0.2
244 1
245 2.5
246 1
247 0.1
255 3.5
257 5.5
258 2.5
259 0.28
261 2.5
262 2.3
263 1.5
270 0.25
271 9.5
272 7.5
273 5
274 0.3
275 3
276 2
286 1
287 0.13
288 2.6
289 2.4
290 1.5
302 0.11
303 1
304 1.7
305 0.9
306 0.08
316 0.4
318 0.6
320 0.5
322 0.05
331 1.1
332 0.5
337 0.4
350 0.04
403 0.1
418 0.2
436 0.3

$$$$

     RDKit          2D

 31 33  0  0  1  0  0  0  0  0999 V2000
    3.8081    7.4000    0.0000 C   0  0  0  0  0  0  0  0  0  0  0  0
    3.8089    1.4002    0.0000 C   0  0  0  0  0  0  0  0  0  0  0  0
    0.1397   10.0280    0.0000 C   0  0  0  0  0  0  0  0  0  0  0  0
   -2.3541   -2.7492    0.0000 C   0  0  0  0  0  0  0  0  0  0  0  0
   -0.4259   -2.7492    0.0000 C   0  0  0  0  0  0  0  0  0  0  0  0
    1.9960    6.5595    0.0000 C   0  0  0  0  0  0  0  0  0  0  0  0
   -0.0900    2.1500    0.0000 C   0  0  0  0  0  0  0  0  0  0  0  0
    3.8081    5.9000    0.0000 C   0  0  0  0  0  0  0  0  0  0  0  0
   -2.6900    0.6500    0.0000 C   0  0  0  0  0  0  0  0  0  0  0  0
    2.5100   -0.8500    0.0000 C   0  0  0  0  0  0  0  0  0  0  0  0
    1.2100   -1.6000    0.0000 C   0  0  0  0  0  0  0  0  0  0  0  0
    1.2100    2.9000    0.0000 C   0  0  0  0  0  0  0  0  0  0  0  0
   -2.6900   -0.8500    0.0000 C   0  0  0  0  0  0  0  0  0  0  0  0
   -1.3900    1.4000    0.0000 C   0  0  0  0  0  0  0  0  0  0  0  0
    2.5090    3.6500    0.0000 C   0  0  0  0  0  0  0  0  0  0  0  0
    2.5100    0.6500    0.0000 C   0  0  0  0  0  0  0  0  0  0  0  0
   -0.3784    8.6203    0.0000 C   0  0  0  0  0  0  0  0  0  0  0  0
    1.2100    1.4000    0.0000 C   0  0  0  0  0  0  0  0  0  0  0  0
   -0.0900   -0.8500    0.0000 C   0  0  0  0  0  0  0  0  0  0  0  0
   -1.8467    8.3667    0.0000 C   0  0  0  0  0  0  0  0  0  0  0  0
   -2.3742    6.9563    0.0000 C   0  0  0  0  0  0  0  0  0  0  0  0
   -1.4006    5.7849    0.0000 C   0  0  0  0  0  0  0  0  0  0  0  0
    0.0676    6.0386    0.0000 C   0  0  0  0  0  0  0  0  0  0  0  0
   -1.3900   -1.6000    0.0000 C   0  0  0  0  0  0  0  0  0  0  0  0
    2.5090    5.1500    0.0000 C   0  0  0  0  0  0  0  0  0  0  0  0
   -0.0900    0.6500    0.0000 C   0  0  0  0  0  0  0  0  0  0  0  0
   -2.8037    9.5217    0.0000 O   0  0  0  0  0  0  0  0  0  0  0  0
   -3.8532    6.7058    0.0000 O   0  0  0  0  0  0  0  0  0  0  0  0
   -1.9193    4.3775    0.0000 O   0  0  0  0  0  0  0  0  0  0  0  0
    0.5820    7.4670    0.0000 O   0  0  0  0  0  0  0  0  0  0  0  0
    1.0318    4.8895    0.0000 O   0  0  0  0  0  0  0  0  0  0  0  0
  8  1  2  0
 11 10  1  0
 13  9  1  0
 14  9  1  0
 15 12  1  0
 16  2  1  0
 16 10  2  0
 17  3  1  0
 18 12  1  1
 18 16  1  0
 19 11  1  1
 20 17  1  0
 21 20  1  0
 22 21  1  0
 23 22  1  0
 24  4  1  0
 24  5  1  0
 24 13  1  0
 24 19  1  0
 25  6  1  6
 25  8  1  0
 25 15  1  0
 26  7  1  1
 26 14  1  0
 26 18  1  0
 26 19  1  0
 20 27  1  1
 21 28  1  6
 29 22  1  0
 30 17  1  0
 30 23  1  0
 23 31  1  1
 25 31  1  0
M  END
>  <NAME>  (4156) 
LABDA-7,14-DIEN-13(R)-OL-BETA-D-FUCOPYRANOSIDE

>  <SYNONYMS>  (4156) 


>  <SPECTRUM TYPE>  (4156) 
MS1

>  <INSTRUMENT TYPE>  (4156) 
EI-B

>  <INSTRUMENT>  (4156) 
HITACHI RMU-6L

>  <ION MODE>  (4156) 
P

>  <INCHIKEY>  (4156) 
SHBMAOBNYQEHHP-GOGYNWEZSA-N

>  <FORMULA>  (4156) 
C26H44O5

>  <EXACT MASS>  (4156) 
436.31887450799996

>  <MW>  (4156) 
436

>  <ID>  (4156) 
JP006318

>  <CONTRIBUTOR>  (4156) 
University of Tokyo Team, {Faculty of Engineering, University of Tokyo

>  <COMMENT>  (4156) 
SMILES=[H]C(C)(C([H])(O)3)OC([H])(C([H])(O)C3([H])O)OC(CCC([H])(C(C)12)C(=CCC([H])1C(CCC2)(C)C)C)(C)C=C
InChI=InChI=1S/C26H44O5/c1-8-25(6,31-23-22(29)21(28)20(27)17(3)30-23)15-12-18-16(2)10-11-19-24(4,5)13-9-14-26(18,19)7/h8,10,17-23,27-29H,1,9,11-15H2,2-7H3/t17?,18-,19-,20-,21+,22?,23-,25-,26+/m0/s1
computed SMILES=OC1C(OC(C)C(O)C1O)OC(C=C)(C)CCC2C(=CCC3C(C)(C)CCCC23C)C
accession=JP006318
date=2016.01.19 (Created 2008.10.21, modified 2011.05.06)
author=EGUCHI S, FAC. OF SCIENCE, HIROSHIMA UNIV.
license=CC BY-NC-SA
exact mass=436.31887
ionization energy=70 eV
ion type=[M]+*
computed spectral entropy=4.446275978870248
computed normalized entropy=0.8491025032706236
SPLASH=splash10-1003-9720000000-d1788184701c3bdfd367
submitter=submitter = University of Tokyo Team (Faculty of Engineering, University of Tokyo)
MoNA Rating=3.75

>  <NUM PEAKS>  (4156) 
188

>  <MASS SPECTRAL PEAKS>  (4156) 
40 3
41 53.1
42 7.3
43 4.55
44 5.5
45 33.3
46 2.1
47 0.15
48 2
49 1.5
50 1.5
51 0.5
52 2.1
53 11.4
54 5.1
55 4.55
56 11.6
57 47.7
58 5.5
59 3.35
60 13.5
61 6.7
62 1.5
63 0.27
64 2.1
65 5
66 2.8
67 1.7
68 6.5
69 33
70 17
71 3.35
72 5.3
73 20.5
74 17
75 1.65
76 5
77 5.5
78 20.5
79 1.65
80 16.5
81 36.4
82 10.7
83 1.99
84 6.7
85 9.5
86 2.5
87 0.41
88 2
89 2.5
90 1.5
91 1.6
92 5.4
93 23.2
94 8.5
95 2.55
96 7
97 3
98 4.5
99 0.18
100 2
101 2.7
102 2.2
103 0.4
104 5.5
105 14
106 5.2
107 1.65
108 14.3
109 33
110 5.2
111 0.7
112 8.3
113 10.3
114 2.1
115 0.42
116 8.4
117 10.5
118 2.1
119 2
120 8.5
121 19
122 11
123 1.1
124 5.5
125 5
126 2.5
127 0.45
128 4.3
129 5.5
130 2.5
131 0.45
132 3.5
133 14.5
134 8.5
135 0.2
136 7
137 7
138 2.7
139 0.25
140 1.5
141 4
142 2.5
143 0.28
144 2.2
145 5
146 2.1
147 0.5
148 2.5
149 10
150 9.1
151 0.83
152 8
153 4.1
154 2.9
155 0.29
156 2
157 2.5
158 2
159 0.25
160 2
161 2.5
162 2.3
163 1.65
164 5.6
165 8.1
166 3.5
167 0.25
168 1.5
169 22.5
170 2.5
171 0.2
172 1.1
173 1.1
174 2.5
175 0.15
176 7.2
177 4.5
178 5.5
179 0.25
180 2
181 2.5
182 2
183 0.18
184 1.1
185 1.5
186 1.1
187 0.25
188 2.2
189 14.5
190 4.4
191 1.63
192 2.8
193 1.5
194 1.5
201 0.27
202 2.2
203 7.8
204 99.99
205 2.55
206 3.5
218 5
219 3.1
220 0.4
221 1.8
249 5.5
257 4.8
258 0.18
263 4
271 3
272 5.5
273 0.65
274 2
279 18.5
288 0.3
289 0.05
290 0.4
291 0.2
324 0.3
337 0.04
350 0.3
352 0.6
367 0.5
380 0.01
390 0.3
403 0.2
418 0.1
436 0.3

$$$$

     RDKit          2D

 31 33  0  0  1  0  0  0  0  0999 V2000
    3.8081    7.4000    0.0000 C   0  0  0  0  0  0  0  0  0  0  0  0
    3.8089    1.4002    0.0000 C   0  0  0  0  0  0  0  0  0  0  0  0
    0.1397   10.0280    0.0000 C   0  0  0  0  0  0  0  0  0  0  0  0
   -2.3541   -2.7492    0.0000 C   0  0  0  0  0  0  0  0  0  0  0  0
   -0.4259   -2.7492    0.0000 C   0  0  0  0  0  0  0  0  0  0  0  0
    1.9960    6.5595    0.0000 C   0  0  0  0  0  0  0  0  0  0  0  0
   -0.0900    2.1500    0.0000 C   0  0  0  0  0  0  0  0  0  0  0  0
    3.8081    5.9000    0.0000 C   0  0  0  0  0  0  0  0  0  0  0  0
   -2.6900    0.6500    0.0000 C   0  0  0  0  0  0  0  0  0  0  0  0
    2.5100   -0.8500    0.0000 C   0  0  0  0  0  0  0  0  0  0  0  0
    1.2100   -1.6000    0.0000 C   0  0  0  0  0  0  0  0  0  0  0  0
    1.2100    2.9000    0.0000 C   0  0  0  0  0  0  0  0  0  0  0  0
   -2.6900   -0.8500    0.0000 C   0  0  0  0  0  0  0  0  0  0  0  0
   -1.3900    1.4000    0.0000 C   0  0  0  0  0  0  0  0  0  0  0  0
    2.5090    3.6500    0.0000 C   0  0  0  0  0  0  0  0  0  0  0  0
    2.5100    0.6500    0.0000 C   0  0  0  0  0  0  0  0  0  0  0  0
   -0.3784    8.6203    0.0000 C   0  0  0  0  0  0  0  0  0  0  0  0
    1.2100    1.4000    0.0000 C   0  0  0  0  0  0  0  0  0  0  0  0
   -0.0900   -0.8500    0.0000 C   0  0  0  0  0  0  0  0  0  0  0  0
   -1.8467    8.3667    0.0000 C   0  0  0  0  0  0  0  0  0  0  0  0
   -2.3742    6.9563    0.0000 C   0  0  0  0  0  0  0  0  0  0  0  0
   -1.4006    5.7849    0.0000 C   0  0  0  0  0  0  0  0  0  0  0  0
    0.0676    6.0386    0.0000 C   0  0  0  0  0  0  0  0  0  0  0  0
   -1.3900   -1.6000    0.0000 C   0  0  0  0  0  0  0  0  0  0  0  0
    2.5090    5.1500    0.0000 C   0  0  0  0  0  0  0  0  0  0  0  0
   -0.0900    0.6500    0.0000 C   0  0  0  0  0  0  0  0  0  0  0  0
   -2.8037    9.5217    0.0000 O   0  0  0  0  0  0  0  0  0  0  0  0
   -3.8532    6.7058    0.0000 O   0  0  0  0  0  0  0  0  0  0  0  0
   -1.9193    4.3775    0.0000 O   0  0  0  0  0  0  0  0  0  0  0  0
    0.5820    7.4670    0.0000 O   0  0  0  0  0  0  0  0  0  0  0  0
    1.0318    4.8895    0.0000 O   0  0  0  0  0  0  0  0  0  0  0  0
  8  1  2  0
 11 10  1  0
 13  9  1  0
 14  9  1  0
 15 12  1  0
 16  2  1  0
 16 10  2  0
 17  3  1  0
 18 12  1  1
 18 16  1  0
 19 11  1  1
 20 17  1  0
 21 20  1  0
 22 21  1  0
 23 22  1  0
 24  4  1  0
 24  5  1  0
 24 13  1  0
 24 19  1  0
 25  6  1  6
 25  8  1  0
 25 15  1  0
 26  7  1  1
 26 14  1  0
 26 18  1  0
 26 19  1  0
 20 27  1  1
 21 28  1  1
 29 22  1  0
 30 17  1  0
 30 23  1  0
 23 31  1  1
 25 31  1  0
M  END
>  <NAME>  (4157) 
LABDA-7,14-DIEN-13(R)-OL-ALPHA-L-RHAMNOPYRANOSIDE

>  <SYNONYMS>  (4157) 


>  <SPECTRUM TYPE>  (4157) 
MS1

>  <INSTRUMENT TYPE>  (4157) 
EI-B

>  <INSTRUMENT>  (4157) 
HITACHI RMU-6L

>  <ION MODE>  (4157) 
P

>  <INCHIKEY>  (4157) 
SHBMAOBNYQEHHP-AAVQNJBJSA-N

>  <FORMULA>  (4157) 
C26H44O5

>  <EXACT MASS>  (4157) 
436.31887450799996

>  <MW>  (4157) 
436

>  <ID>  (4157) 
JP006317

>  <CONTRIBUTOR>  (4157) 
University of Tokyo Team, {Faculty of Engineering, University of Tokyo

>  <COMMENT>  (4157) 
SMILES=CC(C)(C3)C([H])(C(C)1CC3)CC(=C(C([H])(CCC(OC([H])(C([H])(O)2)OC([H])(C)C([H])(O)C([H])(O)2)(C)C=C)1)C)[H]
InChI=InChI=1S/C26H44O5/c1-8-25(6,31-23-22(29)21(28)20(27)17(3)30-23)15-12-18-16(2)10-11-19-24(4,5)13-9-14-26(18,19)7/h8,10,17-23,27-29H,1,9,11-15H2,2-7H3/t17?,18-,19-,20-,21-,22?,23-,25-,26+/m0/s1
computed SMILES=OC1C(OC(C)C(O)C1O)OC(C=C)(C)CCC2C(=CCC3C(C)(C)CCCC23C)C
accession=JP006317
date=2016.01.19 (Created 2008.10.21, modified 2011.05.06)
author=EGUCHI S, FAC. OF SCIENCE, HIROSHIMA UNIV.
license=CC BY-NC-SA
exact mass=436.31887
ionization energy=70 eV
ion type=[M]+*
computed spectral entropy=4.476805493480373
computed normalized entropy=0.8473656749462051
SPLASH=splash10-0pi3-9620000000-cff5515121eb65f2e8ed
submitter=submitter = University of Tokyo Team (Faculty of Engineering, University of Tokyo)
MoNA Rating=3.75

>  <NUM PEAKS>  (4157) 
197

>  <MASS SPECTRAL PEAKS>  (4157) 
40 5
41 74.5
42 11.4
43 5.41
44 22.6
45 43
46 11.6
47 0.35
50 1.2
51 3.8
52 2.5
53 1.73
54 6
55 69
56 12.1
57 3.66
58 14
59 14.8
60 44.5
61 1.48
62 1.5
63 2.4
65 6.4
66 0.4
67 27.1
68 16.2
69 58
70 1.07
71 47.4
72 7.9
73 44.5
74 1.08
75 8.5
76 2.1
77 13.4
78 0.36
79 21.9
80 21.7
81 59.2
82 1.57
83 29.3
84 13.4
85 16.4
86 0.38
87 11.5
88 1.4
89 1.3
90 0.17
91 21.4
92 7.1
93 34.2
94 1.25
95 40.7
96 10.2
97 15.4
98 0.7
99 9.2
100 6.6
101 7.9
102 0.54
103 7
104 2.5
105 21.3
106 0.84
107 25.2
108 17.3
109 59.4
110 0.9
111 14.2
112 3.8
113 5.4
114 0.22
115 8.4
116 3.4
117 12.4
118 0.32
119 27.4
120 10
121 26
122 1.36
123 17.2
124 13.6
125 9.1
126 0.36
127 4.1
128 3.4
129 18
130 0.35
131 6.4
132 4.4
133 18.3
134 0.84
135 12.4
136 8.7
137 11.4
138 0.55
139 4.5
140 2.6
141 4.4
142 0.33
143 4.2
144 4.6
145 9.3
146 0.46
147 18.5
148 11.4
149 12
150 0.45
151 6.7
152 3.4
153 4.4
154 0.24
155 2.6
156 1.8
157 5.8
158 0.25
159 5.2
160 3.4
161 15
162 0.51
163 10.9
164 10.1
165 5.3
166 0.35
167 3.5
168 1.5
169 1.5
170 0.18
171 3.4
172 1.5
173 5.5
174 0.21
175 7.4
176 3.9
177 10.3
178 0.34
179 3
180 2.5
181 2.5
182 0.15
183 1.5
184 1.5
185 3.9
186 0.2
187 7.5
188 3.8
189 20
190 0.64
191 20.5
192 4.5
193 3.5
194 0.2
195 1
196 1
199 2.1
200 0.12
201 8.6
202 3.8
203 7.4
204 99.99
205 24
206 5.1
207 3.9
208 0.2
217 3.2
218 3.4
219 3.4
220 0.62
221 3
231 2
233 3
234 0.23
256 5
257 6
270 2.9
271 1.45
272 8.4
273 7
284 0.4
285 0.1
286 1.3
287 1.6
288 1.7
289 0.21
290 0.9
291 0.4
303 0.3
304 0.1
305 0.7
331 0.8
337 0.6
350 0.05
366 0.2
391 0.2
403 0.3
418 0.03
436 0.7

$$$$

     RDKit          2D

 21 22  0  0  1  0  0  0  0  0999 V2000
    3.8081    7.4000    0.0000 C   0  0  0  0  0  0  0  0  0  0  0  0
    3.8089    1.4002    0.0000 C   0  0  0  0  0  0  0  0  0  0  0  0
   -2.3541   -2.7492    0.0000 C   0  0  0  0  0  0  0  0  0  0  0  0
   -0.4259   -2.7492    0.0000 C   0  0  0  0  0  0  0  0  0  0  0  0
    1.9960    6.5595    0.0000 C   0  0  0  0  0  0  0  0  0  0  0  0
   -0.0900    2.1500    0.0000 C   0  0  0  0  0  0  0  0  0  0  0  0
    3.8081    5.9000    0.0000 C   0  0  0  0  0  0  0  0  0  0  0  0
   -2.6900    0.6500    0.0000 C   0  0  0  0  0  0  0  0  0  0  0  0
    2.5100   -0.8500    0.0000 C   0  0  0  0  0  0  0  0  0  0  0  0
    1.2100   -1.6000    0.0000 C   0  0  0  0  0  0  0  0  0  0  0  0
    1.2100    2.9000    0.0000 C   0  0  0  0  0  0  0  0  0  0  0  0
   -2.6900   -0.8500    0.0000 C   0  0  0  0  0  0  0  0  0  0  0  0
   -1.3900    1.4000    0.0000 C   0  0  0  0  0  0  0  0  0  0  0  0
    2.5090    3.6500    0.0000 C   0  0  0  0  0  0  0  0  0  0  0  0
    2.5100    0.6500    0.0000 C   0  0  0  0  0  0  0  0  0  0  0  0
    1.2100    1.4000    0.0000 C   0  0  0  0  0  0  0  0  0  0  0  0
   -0.0900   -0.8500    0.0000 C   0  0  0  0  0  0  0  0  0  0  0  0
   -1.3900   -1.6000    0.0000 C   0  0  0  0  0  0  0  0  0  0  0  0
    2.5090    5.1500    0.0000 C   0  0  0  0  0  0  0  0  0  0  0  0
   -0.0900    0.6500    0.0000 C   0  0  0  0  0  0  0  0  0  0  0  0
    1.0318    4.8895    0.0000 O   0  0  0  0  0  0  0  0  0  0  0  0
  7  1  2  0
 10  9  1  0
 12  8  1  0
 13  8  1  0
 14 11  1  0
 15  2  1  0
 15  9  2  0
 16 11  1  1
 16 15  1  0
 17 10  1  1
 18  3  1  0
 18  4  1  0
 18 12  1  0
 18 17  1  0
 19  5  1  6
 19  7  1  0
 19 14  1  0
 20  6  1  1
 20 13  1  0
 20 16  1  0
 20 17  1  0
 19 21  1  0
M  END
>  <NAME>  (4158) 
LABDA-7,14-DIEN-13(R)-OL

>  <SYNONYMS>  (4158) 


>  <SPECTRUM TYPE>  (4158) 
MS1

>  <INSTRUMENT TYPE>  (4158) 
EI-B

>  <INSTRUMENT>  (4158) 
HITACHI RMU-6L

>  <ION MODE>  (4158) 
P

>  <INCHIKEY>  (4158) 
YHUUQRPBUXILLV-QGZVKYPTSA-N

>  <FORMULA>  (4158) 
C20H34O

>  <EXACT MASS>  (4158) 
290.26096570799996

>  <MW>  (4158) 
290

>  <ID>  (4158) 
JP006316

>  <CONTRIBUTOR>  (4158) 
University of Tokyo Team, {Faculty of Engineering, University of Tokyo

>  <COMMENT>  (4158) 
SMILES=C=CC(C)(O)CCC([H])(C(C)=2)C(C)(C1)C([H])(CC([H])2)C(C)(C)CC1
InChI=InChI=1S/C20H34O/c1-7-19(5,21)14-11-16-15(2)9-10-17-18(3,4)12-8-13-20(16,17)6/h7,9,16-17,21H,1,8,10-14H2,2-6H3/t16-,17-,19-,20+/m0/s1
computed SMILES=OC(C=C)(C)CCC1C(=CCC2C(C)(C)CCCC12C)C
accession=JP006316
date=2016.01.19 (Created 2008.10.21, modified 2011.05.06)
author=EGUCHI S, FAC. OF SCIENCE, HIROSHIMA UNIV.
license=CC BY-NC-SA
exact mass=290.26097
ionization energy=70 eV
ion type=[M]+*
computed spectral entropy=4.1382536790473505
computed normalized entropy=0.8436334081094522
SPLASH=splash10-0k9x-9720000000-4425b2b900838b5bcc5c
submitter=submitter = University of Tokyo Team (Faculty of Engineering, University of Tokyo)
MoNA Rating=3.75

>  <NUM PEAKS>  (4158) 
135

>  <MASS SPECTRAL PEAKS>  (4158) 
40 4.5
41 60.5
42 5
43 3.65
44 2.5
45 3.4
46 1
47 2.75
48 14.3
49 9.5
50 5
51 0.35
52 2
53 15.5
54 3.3
55 4.77
56 5.5
57 7.5
58 2
59 0.35
65 7
66 3.1
67 27.2
68 1.14
69 38.5
70 5.5
71 22.1
72 0.25
73 2.1
77 16.5
78 4.2
79 2.4
80 51
81 45
82 11.5
83 5.34
84 7.5
85 30.5
87 9
88 0.1
91 29.5
92 10.5
93 45.5
94 1.25
95 35.5
96 8.4
97 7.5
98 0.2
103 2.8
104 1.5
105 26.5
106 1.15
107 32.2
108 22.5
109 52.5
110 0.8
111 5.5
112 2.5
113 1.5
114 0.12
115 3.4
116 2.5
117 5.4
118 0.25
119 28.5
120 13.1
121 30.5
122 1.82
123 21.5
124 11.5
125 5.5
126 0.18
127 1.5
128 2.5
129 2.5
130 0.15
131 7
132 3.5
133 24.5
134 1.15
135 18.5
136 9.5
137 11.5
138 0.38
139 2.2
141 1
143 2.1
144 0.18
145 8.4
146 3.5
147 11.8
148 1.58
149 8.5
150 3.2
151 4.5
152 0.18
159 6
160 3
161 21.5
162 0.7
163 5.5
164 2.3
165 1.5
166 0.23
167 1.5
173 4
174 3
175 0.5
176 4
177 4.3
178 1.8
179 0.18
187 13
188 3
189 15.5
190 0.4
191 8.4
192 2.5
201 2.5
202 1.15
203 6.2
204 99.99
205 25
206 0.31
218 3.2
219 1.5
220 2.6
221 0.18
245 2.5
246 1.8
257 5.5
258 0.25
272 4.9
273 2.5
290 2

$$$$

     RDKit          2D

 11 12  0  0  0  0  0  0  0  0999 V2000
    1.5853    2.6360    0.0000 C   0  0  0  0  0  0  0  0  0  0  0  0
   -3.3100   -0.7500    0.0000 C   0  0  0  0  0  0  0  0  0  0  0  0
   -1.8100   -2.2500    0.0000 C   0  0  0  0  0  0  0  0  0  0  0  0
    2.0000   -0.0000    0.0000 C   0  0  0  0  0  0  0  0  0  0  0  0
    1.1200   -1.2100    0.0000 C   0  0  0  0  0  0  0  0  0  0  0  0
    1.1200    1.2100    0.0000 C   0  0  0  0  0  0  0  0  0  0  0  0
   -0.3100   -0.7500    0.0000 C   0  0  0  0  0  0  0  0  0  0  0  0
   -0.3100    0.7500    0.0000 C   0  0  0  0  0  0  0  0  0  0  0  0
   -1.8100    0.7500    0.0000 C   0  0  0  0  0  0  0  0  0  0  0  0
   -1.8100   -0.7500    0.0000 C   0  0  0  0  0  0  0  0  0  0  0  0
   -2.8707    1.8107    0.0000 O   0  0  0  0  0  0  0  0  0  0  0  0
  5  4  1  0
  6  1  1  0
  6  4  2  0
  7  5  1  0
  8  6  1  0
  8  7  1  0
  9  8  1  0
 10  2  1  0
 10  3  1  0
 10  7  1  0
 10  9  1  0
 11  9  2  0
M  END
>  <NAME>  (4159) 
FILIFOLONE

>  <SYNONYMS>  (4159) 


>  <SPECTRUM TYPE>  (4159) 
MS1

>  <INSTRUMENT TYPE>  (4159) 
EI-B

>  <INSTRUMENT>  (4159) 
HITACHI RMS-4

>  <ION MODE>  (4159) 
P

>  <INCHIKEY>  (4159) 
JVEJBTZZORGEKF-UHFFFAOYSA-N

>  <FORMULA>  (4159) 
C10H14O

>  <EXACT MASS>  (4159) 
150.104465068

>  <MW>  (4159) 
150

>  <ID>  (4159) 
JP006311

>  <CONTRIBUTOR>  (4159) 
University of Tokyo Team, {Faculty of Engineering, University of Tokyo

>  <COMMENT>  (4159) 
SMILES=CC(=C2)C(C(=O)1)C(C2)C(C)(C)1
InChI=InChI=1S/C10H14O/c1-6-4-5-7-8(6)9(11)10(7,2)3/h4,7-8H,5H2,1-3H3
computed SMILES=O=C1C2C(=CCC2C1(C)C)C
accession=JP006311
date=2016.01.19 (Created 2008.10.21, modified 2011.05.06)
author=EGUCHI S, FAC. OF SCIENCE, HIROSHIMA UNIV.
license=CC BY-NC-SA
exact mass=150.10447
ionization energy=70 eV
ion type=[M]+*
computed spectral entropy=3.192442226961078
computed normalized entropy=0.811949085531818
SPLASH=splash10-0536-9200000000-ea9324114254e4aa08eb
submitter=submitter = University of Tokyo Team (Faculty of Engineering, University of Tokyo)
MoNA Rating=3.75

>  <NUM PEAKS>  (4159) 
51

>  <MASS SPECTRAL PEAKS>  (4159) 
40 12
41 53.9
42 26.7
43 1.94
50 9.7
51 20.7
52 12
53 2.95
54 5.5
55 10.1
56 32.2
57 3.22
63 8.3
64 2.3
65 17.5
66 0.51
67 10.1
68 3.2
69 8.3
70 3.78
71 4.6
77 30.9
78 10.1
79 6.41
80 99.99
81 19.8
82 4.1
83 0.18
91 56.7
92 9.7
93 31.3
94 0.6
95 4.6
103 2.8
104 1.4
105 1.75
106 5.5
107 82.5
108 30.4
109 0.78
119 3.7
120 0.9
121 6.5
122 2.95
123 6
133 2.8
134 1.4
135 0.69
136 1.4
150 12.4
151 1.8

$$$$

     RDKit          2D

 11 12  0  0  0  0  0  0  0  0999 V2000
   -0.6885   -2.6036    0.0000 C   0  0  0  0  0  0  0  0  0  0  0  0
    0.9054    1.6596    0.0000 C   0  0  0  0  0  0  0  0  0  0  0  0
   -0.9849   -0.5925    0.0000 C   0  0  0  0  0  0  0  0  0  0  0  0
    0.6104   -0.3534    0.0000 C   0  0  0  0  0  0  0  0  0  0  0  0
    1.9104    0.3966    0.0000 C   0  0  0  0  0  0  0  0  0  0  0  0
    0.6104   -1.8534    0.0000 C   0  0  0  0  0  0  0  0  0  0  0  0
    3.2104   -0.3534    0.0000 C   0  0  0  0  0  0  0  0  0  0  0  0
    1.9104   -2.6034    0.0000 C   0  0  0  0  0  0  0  0  0  0  0  0
    3.2104   -1.8534    0.0000 C   0  0  0  0  0  0  0  0  0  0  0  0
    1.9104   -1.1034    0.0000 C   0  0  0  0  0  0  0  0  0  0  0  0
    4.5093   -2.6036    0.0000 O   0  0  0  0  0  0  0  0  0  0  0  0
  5  4  1  0
  6  1  1  0
  6  4  2  0
  7  5  1  0
  8  6  1  0
  9  7  1  0
  9  8  1  0
 10  2  1  0
 10  3  1  0
 10  7  1  0
 10  8  1  0
 11  9  2  0
M  END
>  <NAME>  (4160) 
CHRYSANTHENONE

>  <SYNONYMS>  (4160) 


>  <SPECTRUM TYPE>  (4160) 
MS1

>  <INSTRUMENT TYPE>  (4160) 
EI-B

>  <INSTRUMENT>  (4160) 
HITACHI RMS-4

>  <ION MODE>  (4160) 
P

>  <INCHIKEY>  (4160) 
IECBDTGWSQNQID-UHFFFAOYSA-N

>  <FORMULA>  (4160) 
C10H14O

>  <EXACT MASS>  (4160) 
150.104465068

>  <MW>  (4160) 
150

>  <ID>  (4160) 
JP006310

>  <CONTRIBUTOR>  (4160) 
University of Tokyo Team, {Faculty of Engineering, University of Tokyo

>  <COMMENT>  (4160) 
SMILES=CC(=C2)C(C(=O)1)C(C)(C)C(C2)1
InChI=InChI=1S/C10H14O/c1-6-4-5-7-9(11)8(6)10(7,2)3/h4,7-8H,5H2,1-3H3
computed SMILES=O=C1C2C(=CCC1C2(C)C)C
accession=JP006310
date=2016.01.19 (Created 2008.10.21, modified 2011.05.06)
license=CC BY-NC-SA
author=EGUCHI S, FAC. OF SCIENCE, HIROSHIMA UNIV.
exact mass=150.10447
ionization energy=70 eV
ion type=[M]+*
computed spectral entropy=2.924423462386161
computed normalized entropy=0.7554305380025493
SPLASH=splash10-0a4l-9600000000-e0800ab65d54087c9785
submitter=submitter = University of Tokyo Team (Faculty of Engineering, University of Tokyo)
MoNA Rating=3.75

>  <NUM PEAKS>  (4160) 
48

>  <MASS SPECTRAL PEAKS>  (4160) 
40 6
41 30.5
42 3.5
43 0.64
44 1.1
50 3.5
51 11
52 0.48
53 12.8
54 2.7
55 6.6
56 0.14
57 1.4
62 1.2
63 3.9
65 1.21
66 3.4
67 8.2
68 1.1
69 0.18
70 8.5
77 16.3
78 4.1
79 2.77
80 33.9
81 6
82 4.3
83 0.14
91 54.3
92 8.7
93 9
94 0.23
95 4.3
96 1.4
103 2
105 1.7
106 3.2
107 99.99
108 12.6
109 0.41
120 3.4
122 27.1
123 3.5
135 0.57
136 0.5
149 1.1
150 11.7
151 1.4

$$$$

     RDKit          2D

 12 13  0  0  1  0  0  0  0  0999 V2000
    2.4631   -2.9580    0.0000 C   0  0  0  0  0  0  0  0  0  0  0  0
    0.6504    2.2017    0.0000 C   0  0  0  0  0  0  0  0  0  0  0  0
   -1.7323    0.2818    0.0000 C   0  0  0  0  0  0  0  0  0  0  0  0
    3.7631    0.7920    0.0000 C   0  0  0  0  0  0  0  0  0  0  0  0
    1.1631   -0.7080    0.0000 C   0  0  0  0  0  0  0  0  0  0  0  0
    2.4631   -1.4580    0.0000 C   0  0  0  0  0  0  0  0  0  0  0  0
    2.4631    1.5420    0.0000 C   0  0  0  0  0  0  0  0  0  0  0  0
    3.7631   -0.7080    0.0000 C   0  0  0  0  0  0  0  0  0  0  0  0
    1.7631    0.5020    0.0000 C   0  0  0  0  0  0  0  0  0  0  0  0
    1.1631    0.7920    0.0000 C   0  0  0  0  0  0  0  0  0  0  0  0
   -0.6327    1.0603    0.0000 O   0  0  0  0  0  0  0  0  0  0  0  0
    2.2831   -0.4880    0.0000 O   0  0  0  0  0  0  0  0  0  0  0  0
  6  1  1  0
  6  5  2  0
  7  4  1  0
  8  4  1  0
  8  6  1  0
  7  9  1  6
 10  2  1  0
 10  3  1  0
 10  5  1  0
 10  7  1  0
 11  9  2  0
  8 12  1  6
 12  9  1  0
M  END
>  <NAME>  (4161) 
FILIFOLIDE A

>  <SYNONYMS>  (4161) 


>  <SPECTRUM TYPE>  (4161) 
MS1

>  <INSTRUMENT TYPE>  (4161) 
EI-B

>  <INSTRUMENT>  (4161) 
HITACHI RMS-4

>  <ION MODE>  (4161) 
P

>  <INCHIKEY>  (4161) 
JHKNAYGQYUKKDQ-YUMQZZPRSA-N

>  <FORMULA>  (4161) 
C10H14O2

>  <EXACT MASS>  (4161) 
166.099379688

>  <MW>  (4161) 
166

>  <ID>  (4161) 
JP006309

>  <CONTRIBUTOR>  (4161) 
University of Tokyo Team, {Faculty of Engineering, University of Tokyo

>  <COMMENT>  (4161) 
SMILES=CC(=C1)C([H])(O2)CC([H])(C(=O)2)C(C)(C)1
InChI=InChI=1S/C10H14O2/c1-6-5-10(2,3)7-4-8(6)12-9(7)11/h5,7-8H,4H2,1-3H3/t7-,8-/m0/s1
computed SMILES=O=C1OC2C(=CC(C)(C)C1C2)C
accession=JP006309
date=2016.01.19 (Created 2008.10.21, modified 2011.05.06)
author=EGUCHI S, FAC. OF SCIENCE, HIROSHIMA UNIV.
license=CC BY-NC-SA
exact mass=166.09938
ionization energy=70 eV
ion type=[M]+*
computed spectral entropy=2.7770252212781212
computed normalized entropy=0.7173549535281922
SPLASH=splash10-0a4l-9700000000-67a4efc9877d11e0a66a
submitter=submitter = University of Tokyo Team (Faculty of Engineering, University of Tokyo)
MoNA Rating=3.75

>  <NUM PEAKS>  (4161) 
48

>  <MASS SPECTRAL PEAKS>  (4161) 
40 5.2
41 33.1
42 4.7
43 0.67
44 1
45 1.5
50 5
51 0.95
52 4.3
53 11.2
54 2.3
55 0.93
62 1.3
63 3.8
64 1.2
65 1.05
66 2.7
67 7.7
68 1.3
69 0.43
70 2.7
77 12.2
78 4.7
79 0.15
80 2.7
81 2.8
82 1.8
83 0.2
91 40.5
92 6.5
93 4.7
94 0.18
95 3.5
96 1.2
98 3.2
105 1.5
106 2.7
107 99.99
108 11.2
109 0.23
111 2
121 2.8
122 20
123 0.53
138 1
151 1.2
166 5.2
167 1.8

$$$$

     RDKit          2D

 12 14  0  0  1  0  0  0  0  0999 V2000
   -0.4995    4.8167    0.0000 C   0  0  0  0  0  0  0  0  0  0  0  0
   -2.3896    3.8536    0.0000 C   0  0  0  0  0  0  0  0  0  0  0  0
    1.4918   -0.1568    0.0000 C   0  0  0  0  0  0  0  0  0  0  0  0
   -2.3083    0.7500    0.0000 C   0  0  0  0  0  0  0  0  0  0  0  0
   -1.4266    1.9635    0.0000 C   0  0  0  0  0  0  0  0  0  0  0  0
   -1.4266   -0.4635    0.0000 C   0  0  0  0  0  0  0  0  0  0  0  0
    0.0000    1.5000    0.0000 C   0  0  0  0  0  0  0  0  0  0  0  0
    0.4635    2.9266    0.0000 C   0  0  0  0  0  0  0  0  0  0  0  0
   -0.9631    3.3901    0.0000 C   0  0  0  0  0  0  0  0  0  0  0  0
    0.0000    0.0000    0.0000 C   0  0  0  0  0  0  0  0  0  0  0  0
    1.8000    3.6076    0.0000 O   0  0  0  0  0  0  0  0  0  0  0  0
   -0.3119   -1.4672    0.0000 O   0  0  0  0  0  0  0  0  0  0  0  0
  5  4  1  6
  6  4  1  1
  7  5  1  0
  7  8  1  6
  9  1  1  0
  9  2  1  0
  9  5  1  0
  9  8  1  0
 10  3  1  6
 10  6  1  0
 10  7  1  0
 11  8  2  0
  6 12  1  0
 12 10  1  0
M  END
>  <NAME>  (4162) 
EPOXYFILIFOLONE

>  <SYNONYMS>  (4162) 
FILIFOLONE EPOXIDE

>  <SPECTRUM TYPE>  (4162) 
MS1

>  <INSTRUMENT TYPE>  (4162) 
EI-B

>  <INSTRUMENT>  (4162) 
HITACHI RMS-4

>  <ION MODE>  (4162) 
P

>  <INCHIKEY>  (4162) 
UMXWFBSAWGHMMF-DOACCVQLSA-N

>  <FORMULA>  (4162) 
C10H14O2

>  <EXACT MASS>  (4162) 
166.099379688

>  <MW>  (4162) 
166

>  <ID>  (4162) 
JP006308

>  <CONTRIBUTOR>  (4162) 
University of Tokyo Team, {Faculty of Engineering, University of Tokyo

>  <COMMENT>  (4162) 
SMILES=O=C(C(C)(C)3)C([H])(C([H])23)C(C)(O1)C([H])(C2)1
InChI=InChI=1S/C10H14O2/c1-9(2)5-4-6-10(3,12-6)7(5)8(9)11/h5-7H,4H2,1-3H3/t5-,6-,7+,10-/m0/s1
computed SMILES=O=C1C2C(CC3OC32C)C1(C)C
ion type=[M]+*
accession=JP006308
date=2016.01.19 (Created 2008.10.21, modified 2011.05.06)
author=EGUCHI S, FAC. OF SCIENCE, HIROSHIMA UNIV.
license=CC BY-NC-SA
exact mass=166.09938
ionization energy=70 eV
computed spectral entropy=3.1982062637499227
computed normalized entropy=0.7690060527420056
SPLASH=splash10-00kf-9000000000-8f3e5ece5b1410dfc8ea
submitter=submitter = University of Tokyo Team (Faculty of Engineering, University of Tokyo)
MoNA Rating=3.75

>  <NUM PEAKS>  (4162) 
64

>  <MASS SPECTRAL PEAKS>  (4162) 
40 41.4
41 99.99
42 30.1
43 5.48
44 2
45 1.5
50 5.3
51 1.31
52 6.3
53 33.3
54 6.3
55 2.05
56 2.5
57 1.5
59 1
62 0.15
63 3.3
64 1
65 9.1
66 0.4
67 47
68 23.2
69 31.8
70 3.03
71 2.5
77 11.6
78 3.3
79 1.41
80 8.1
81 15.7
82 32.3
83 0.48
85 3.8
91 7.1
92 1.3
93 0.45
94 2
95 46.7
96 8.1
97 0.33
98 32.3
99 2.5
105 4
106 0.1
107 5.1
108 3.3
109 7.3
110 0.18
111 2.5
121 2.3
122 2.5
123 1.84
124 3
137 4.8
138 4
139 0.1
148 1.3
149 0.5
150 0.8
151 0.81
152 1.3
165 0.3
166 2
167 0.5

$$$$

     RDKit          2D

 12 14  0  0  0  0  0  0  0  0999 V2000
   -2.5551   -1.9014    0.0000 C   0  0  0  0  0  0  0  0  0  0  0  0
   -0.6236   -1.9213    0.0000 C   0  0  0  0  0  0  0  0  0  0  0  0
    0.5098    2.7652    0.0000 C   0  0  0  0  0  0  0  0  0  0  0  0
   -2.8475    1.5063    0.0000 C   0  0  0  0  0  0  0  0  0  0  0  0
   -2.8675    0.0063    0.0000 C   0  0  0  0  0  0  0  0  0  0  0  0
   -1.5375    2.2363    0.0000 C   0  0  0  0  0  0  0  0  0  0  0  0
   -1.5675    0.7463    0.0000 C   0  0  0  0  0  0  0  0  0  0  0  0
   -0.2775   -0.0237    0.0000 C   0  0  0  0  0  0  0  0  0  0  0  0
   -1.5775   -0.7637    0.0000 C   0  0  0  0  0  0  0  0  0  0  0  0
   -0.2575    1.4763    0.0000 C   0  0  0  0  0  0  0  0  0  0  0  0
    0.9591   -0.7570    0.0000 O   0  0  0  0  0  0  0  0  0  0  0  0
    1.0325    0.7063    0.0000 O   0  0  0  0  0  0  0  0  0  0  0  0
  5  4  1  0
  6  4  1  0
  7  5  1  0
  7  6  1  0
  9  1  1  0
  9  2  1  0
  9  5  1  0
  9  8  1  0
 10  3  1  0
 10  6  1  0
 10  8  1  0
 11  7  2  0
 12  8  1  0
 12 10  1  0
M  END
>  <NAME>  (4163) 
2,4,4-TRIMETHYLBICYCLO(3.1.1)HEPTAN-2,3-EPOXY-6-ONE

>  <SYNONYMS>  (4163) 


>  <SPECTRUM TYPE>  (4163) 
MS1

>  <INSTRUMENT TYPE>  (4163) 
EI-B

>  <INSTRUMENT>  (4163) 
HITACHI RMS-4

>  <ION MODE>  (4163) 
P

>  <INCHIKEY>  (4163) 
LUANZWPGTAHQBV-UHFFFAOYSA-N

>  <FORMULA>  (4163) 
C10H14O2

>  <EXACT MASS>  (4163) 
166.099379688

>  <MW>  (4163) 
166

>  <ID>  (4163) 
JP006307

>  <CONTRIBUTOR>  (4163) 
University of Tokyo Team, {Faculty of Engineering, University of Tokyo

>  <COMMENT>  (4163) 
SMILES=O=C(C32)C(C3)C(C)(O1)C1C(C)(C)2
InChI=InChI=1S/C10H14O2/c1-9(2)5-4-6(7(5)11)10(3)8(9)12-10/h5-6,8H,4H2,1-3H3
computed SMILES=O=C1C2CC1C(C)(C)C3OC23C
accession=JP006307
date=2016.01.19 (Created 2008.10.21, modified 2011.05.06)
author=EGUCHI S, FAC. OF SCIENCE, HIROSHIMA UNIV.
license=CC BY-NC-SA
exact mass=166.09938
ionization energy=70 eV
ion type=[M]+*
computed spectral entropy=3.3826184817918272
computed normalized entropy=0.807374041555449
SPLASH=splash10-05mo-9100000000-82ca5294ddfa4c81db3a
submitter=submitter = University of Tokyo Team (Faculty of Engineering, University of Tokyo)
MoNA Rating=3.75

>  <NUM PEAKS>  (4163) 
66

>  <MASS SPECTRAL PEAKS>  (4163) 
40 40
41 72.1
42 48.5
43 9.2
44 1.5
50 12.5
51 30.7
52 1.5
53 40.9
54 23.6
55 72.4
56 1.1
57 14.2
58 1
59 5.5
62 0.31
63 8.7
64 2.4
65 15.7
66 0.47
67 59.1
68 6.3
69 79.5
70 1.1
71 15
72 3.1
76 1
77 1.81
78 9.4
79 26.8
80 5.5
81 0.79
82 37.8
83 60.6
84 12.6
85 1.1
91 52.8
92 9.4
93 25.2
94 0.87
95 83.5
96 37.8
97 11
98 3.15
99 6.3
103 1.6
104 1
105 2.05
106 3.1
107 99.99
108 7.9
109 1.26
110 1
111 3
121 3.1
122 0.63
123 43.2
124 4.7
125 2.4
137 0.24
138 1.6
139 1
151 1
165 0.16
166 4.7
167 1

$$$$

     RDKit          2D

 12 14  0  0  1  0  0  0  0  0999 V2000
   -2.7714   -1.7494    0.0000 C   0  0  0  0  0  0  0  0  0  0  0  0
   -0.0070   -0.7841    0.0000 C   0  0  0  0  0  0  0  0  0  0  0  0
   -0.1524    3.1592    0.0000 C   0  0  0  0  0  0  0  0  0  0  0  0
   -2.2397   -0.3697    0.0000 C   0  0  0  0  0  0  0  0  0  0  0  0
   -3.5297    0.4003    0.0000 C   0  0  0  0  0  0  0  0  0  0  0  0
   -0.9397    0.3703    0.0000 C   0  0  0  0  0  0  0  0  0  0  0  0
   -3.5097    1.9003    0.0000 C   0  0  0  0  0  0  0  0  0  0  0  0
   -2.1997    2.6303    0.0000 C   0  0  0  0  0  0  0  0  0  0  0  0
   -2.2297    1.1403    0.0000 C   0  0  0  0  0  0  0  0  0  0  0  0
   -0.9197    1.8703    0.0000 C   0  0  0  0  0  0  0  0  0  0  0  0
   -4.7979    2.6687    0.0000 O   0  0  0  0  0  0  0  0  0  0  0  0
    0.3703    1.1003    0.0000 O   0  0  0  0  0  0  0  0  0  0  0  0
  5  4  1  1
  6  4  1  0
  7  5  1  0
  8  7  1  1
  9  1  1  0
  9  2  1  0
  9  5  1  0
  9  8  1  0
 10  3  1  6
 10  6  1  0
 10  8  1  0
 11  7  2  0
  6 12  1  1
 12 10  1  0
M  END
>  <NAME>  (4164) 
EPOXYCHRYSANTHENONE

>  <SYNONYMS>  (4164) 
CHRYSANTHENONE EPOXIDE

>  <SPECTRUM TYPE>  (4164) 
MS1

>  <INSTRUMENT TYPE>  (4164) 
EI-B

>  <INSTRUMENT>  (4164) 
HITACHI RMS-4

>  <ION MODE>  (4164) 
P

>  <INCHIKEY>  (4164) 
MJKUEDLCFFNGOC-LVWRQZDYSA-N

>  <FORMULA>  (4164) 
C10H14O2

>  <EXACT MASS>  (4164) 
166.099379688

>  <MW>  (4164) 
166

>  <ID>  (4164) 
JP006306

>  <CONTRIBUTOR>  (4164) 
University of Tokyo Team, {Faculty of Engineering, University of Tokyo

>  <COMMENT>  (4164) 
SMILES=O=C(C([H])23)C([H])(C(C)(C)3)C(C)(O1)C([H])(C2)1
InChI=InChI=1S/C10H14O2/c1-9(2)5-4-6-10(3,12-6)8(9)7(5)11/h5-6,8H,4H2,1-3H3/t5-,6-,8+,10-/m0/s1
computed SMILES=O=C1C2CC3OC3(C)C1C2(C)C
accession=JP006306
date=2016.01.19 (Created 2008.10.21, modified 2011.05.06)
author=EGUCHI S, FAC. OF SCIENCE, HIROSHIMA UNIV.
license=CC BY-NC-SA
exact mass=166.09938
ionization energy=70 eV
ion type=[M]+*
computed spectral entropy=3.1591994371628553
computed normalized entropy=0.7848256947173455
SPLASH=splash10-066u-9300000000-98c33e08e98a1714acb7
submitter=submitter = University of Tokyo Team (Faculty of Engineering, University of Tokyo)
MoNA Rating=3.75

>  <NUM PEAKS>  (4164) 
56

>  <MASS SPECTRAL PEAKS>  (4164) 
40 31.8
41 92.2
42 10.1
43 7.33
44 3.1
45 2.3
50 3.9
51 1.01
52 5.4
53 25.2
54 7
55 3.57
56 3.5
57 2.3
67 52.7
68 1.55
69 93
70 10.9
71 2.3
77 1.16
78 3.9
79 20.5
80 7.4
81 1.24
82 10.5
83 8.5
85 4.3
91 4.57
92 7.8
93 7.4
94 3.9
95 1.71
96 5.4
97 6.6
98 69.8
99 6.58
105 15.5
106 3.5
107 99.99
108 1.12
109 10.9
110 1.2
111 10.5
112 0.12
121 15.1
122 18.3
123 15.2
124 0.27
125 2.3
137 2.3
138 1.2
139 0.43
151 5.8
165 4.7
166 8.1
167 1.2

$$$$

     RDKit          2D

 17 20  0  0  0  0  0  0  0  0999 V2000
    0.3208    3.1852    0.0000 C   0  0  0  0  0  0  0  0  0  0  0  0
   -0.2305    4.9726    0.0000 C   0  0  0  0  0  0  0  0  0  0  0  0
   -5.4933    2.1041    0.0000 C   0  0  0  0  0  0  0  0  0  0  0  0
   -1.4144   -0.4995    0.0000 C   0  0  0  0  0  0  0  0  0  0  0  0
   -3.5915    4.7207    0.0000 C   0  0  0  0  0  0  0  0  0  0  0  0
   -2.0957    4.8328    0.0000 C   0  0  0  0  0  0  0  0  0  0  0  0
   -4.4365    3.4814    0.0000 C   0  0  0  0  0  0  0  0  0  0  0  0
   -2.5981    1.5000    0.0000 C   0  0  0  0  0  0  0  0  0  0  0  0
   -1.2990    2.2500    0.0000 C   0  0  0  0  0  0  0  0  0  0  0  0
   -3.1461    0.1037    0.0000 C   0  0  0  0  0  0  0  0  0  0  0  0
   -4.5424    0.6517    0.0000 C   0  0  0  0  0  0  0  0  0  0  0  0
    0.0000    1.5000    0.0000 C   0  0  0  0  0  0  0  0  0  0  0  0
   -1.0755    3.7332    0.0000 C   0  0  0  0  0  0  0  0  0  0  0  0
   -3.9944    2.0480    0.0000 C   0  0  0  0  0  0  0  0  0  0  0  0
    0.0000    0.0000    0.0000 C   0  0  0  0  0  0  0  0  0  0  0  0
   -2.5826   -1.2864    0.0000 O   0  0  0  0  0  0  0  0  0  0  0  0
    1.2990    0.7500    0.0000 O   0  0  0  0  0  0  0  0  0  0  0  0
  6  5  1  0
  7  5  1  0
  9  8  1  0
 10  8  1  0
 11 10  1  0
 12  9  1  0
 13  1  1  0
 13  2  1  0
 13  6  1  0
 13  9  1  0
 14  3  1  0
 14  7  1  0
 14  8  1  0
 14 11  1  0
 15  4  1  0
 15 11  1  0
 15 12  1  0
 16 10  2  0
 17 12  1  0
 17 15  1  0
M  END
>  <NAME>  (4165) 
EPOXYVULGARONE A

>  <SYNONYMS>  (4165) 


>  <SPECTRUM TYPE>  (4165) 
MS1

>  <INSTRUMENT TYPE>  (4165) 
EI-B

>  <INSTRUMENT>  (4165) 
HITACHI RMS-4

>  <ION MODE>  (4165) 
P

>  <INCHIKEY>  (4165) 
OQTBYTAMNHCEOE-UHFFFAOYSA-N

>  <FORMULA>  (4165) 
C15H22O2

>  <EXACT MASS>  (4165) 
234.161979944

>  <MW>  (4165) 
234

>  <ID>  (4165) 
JP006305

>  <CONTRIBUTOR>  (4165) 
University of Tokyo Team, {Faculty of Engineering, University of Tokyo

>  <COMMENT>  (4165) 
SMILES=CC(C)(C4)C(C32)C(C(=O)1)C(C)(CC4)C1C(C)(O3)2
InChI=InChI=1S/C15H22O2/c1-13(2)6-5-7-14(3)8-9(13)12-15(4,17-12)11(14)10(8)16/h8-9,11-12H,5-7H2,1-4H3
computed SMILES=O=C1C2C3C4OC4(C)C1C2(C)CCCC3(C)C
accession=JP006305
date=2016.01.19 (Created 2008.10.21, modified 2011.05.06)
author=EGUCHI S, FAC. OF SCIENCE, HIROSHIMA UNIV.
license=CC BY-NC-SA
exact mass=234.16198
ionization energy=70 eV
ion type=[M]+*
computed spectral entropy=3.864213155586871
computed normalized entropy=0.8587503558352182
SPLASH=splash10-0a4i-9800000000-1700166005fc5b00521a
submitter=submitter = University of Tokyo Team (Faculty of Engineering, University of Tokyo)
MoNA Rating=3.75

>  <NUM PEAKS>  (4165) 
90

>  <MASS SPECTRAL PEAKS>  (4165) 
40 17.5
41 81
42 14.5
43 3.7
50 3.5
51 11
52 8
53 2.95
54 9
55 44
56 48
57 0.8
63 6
64 5
65 23
66 0.95
67 33
68 11
69 31
70 0.5
71 4
77 45
78 14.5
79 4.9
80 12.5
81 52
82 14
83 1
84 5.5
85 9
89 4
91 7
92 14
93 38
94 14
95 5.2
96 13
97 6
98 9
103 0.95
104 6
105 59
106 99.99
107 7.9
108 32
109 29
110 7
111 0.6
115 9
116 4.5
117 7
118 0.55
119 91
120 35
121 39
122 1.7
123 9
124 6
128 6
129 0.45
130 4
131 7
132 4.5
133 1.75
134 11
135 22
136 7
137 4.3
138 7
145 11.5
146 3
147 2.45
148 8
149 9.5
150 4
151 0.8
161 5
162 3
163 6.5
173 0.5
175 14.5
176 5
190 26
191 1
206 6.5
207 1.5
219 6.5
220 0.25
234 6.5
235 2.5

$$$$

     RDKit          2D

 14 16  0  0  0  0  0  0  0  0999 V2000
    3.0600    2.2000    0.0000 C   0  0  0  0  0  0  0  0  0  0  0  0
   -3.4300   -1.5500    0.0000 C   0  0  0  0  0  0  0  0  0  0  0  0
    1.7600    2.9500    0.0000 C   0  0  0  0  0  0  0  0  0  0  0  0
   -3.4300   -0.0500    0.0000 C   0  0  0  0  0  0  0  0  0  0  0  0
    3.0600    0.7000    0.0000 C   0  0  0  0  0  0  0  0  0  0  0  0
   -2.1300   -2.3000    0.0000 C   0  0  0  0  0  0  0  0  0  0  0  0
    0.4600    2.2000    0.0000 C   0  0  0  0  0  0  0  0  0  0  0  0
   -2.1300    0.7000    0.0000 C   0  0  0  0  0  0  0  0  0  0  0  0
    1.7600   -1.5500    0.0000 C   0  0  0  0  0  0  0  0  0  0  0  0
    0.4600   -2.3000    0.0000 C   0  0  0  0  0  0  0  0  0  0  0  0
    1.7600   -0.0500    0.0000 C   0  0  0  0  0  0  0  0  0  0  0  0
   -0.8300   -1.5500    0.0000 C   0  0  0  0  0  0  0  0  0  0  0  0
    0.4600    0.7000    0.0000 C   0  0  0  0  0  0  0  0  0  0  0  0
   -0.8300   -0.0500    0.0000 C   0  0  0  0  0  0  0  0  0  0  0  0
  3  1  2  0
  4  2  2  0
  5  1  1  0
  6  2  1  0
  7  3  1  0
  8  4  1  0
 10  9  2  0
 11  5  2  0
 11  9  1  0
 12  6  2  0
 12 10  1  0
 13  7  2  0
 13 11  1  0
 14  8  2  0
 14 12  1  0
 14 13  1  0
M  END
>  <NAME>  (4166) 
PHENANTHRENE

>  <SYNONYMS>  (4166) 


>  <SPECTRUM TYPE>  (4166) 
MS1

>  <INSTRUMENT TYPE>  (4166) 
EI-B

>  <INSTRUMENT>  (4166) 
HITACHI M-80

>  <ION MODE>  (4166) 
P

>  <INCHIKEY>  (4166) 
YNPNZTXNASCQKK-UHFFFAOYSA-N

>  <FORMULA>  (4166) 
C14H10

>  <EXACT MASS>  (4166) 
178.07825032

>  <MW>  (4166) 
178

>  <ID>  (4166) 
JP006304

>  <CONTRIBUTOR>  (4166) 
University of Tokyo Team, {Faculty of Engineering, University of Tokyo

>  <COMMENT>  (4166) 
SMILES=c(c3)cc(c1)c(c3)c(c2)c(ccc2)c1
cas=85-01-8
InChI=InChI=1S/C14H10/c1-3-7-13-11(5-1)9-10-12-6-2-4-8-14(12)13/h1-10H
computed SMILES=C=1C=CC2=C(C1)C=CC=3C=CC=CC32
accession=JP006304
date=2016.01.19 (Created 2008.10.21, modified 2011.05.06)
author=MASS SPECTROSCOPY SOC. OF JAPAN (MSSJ)
license=CC BY-NC-SA
exact mass=178.07825
ionization energy=70 eV
ion type=[M]+*
computed spectral entropy=1.8257288033283607
computed normalized entropy=0.5479041870789515
SPLASH=splash10-004i-0900000000-b24f62c0541e48c04349
submitter=submitter = University of Tokyo Team (Faculty of Engineering, University of Tokyo)
MoNA Rating=3.75

>  <NUM PEAKS>  (4166) 
28

>  <MASS SPECTRAL PEAKS>  (4166) 
39 1.36
50 1.34
51 1.14
62 0.76
63 1.81
74 1.46
75 1.5
76 1.46
86 0.59
87 1.24
88 0.94
89 1.53
98 0.72
99 0.71
126 1.12
139 0.96
150 3.22
151 3.45
152 5.43
153 0.82
174 1.04
175 1.19
176 10.06
177 7.12
178 99.99
179 15.73
180 1.53
182 2.15

$$$$

     RDKit          2D

 10 10  0  0  0  0  0  0  0  0999 V2000
   -0.0000   -3.0000    0.0000 C   0  0  0  0  0  0  0  0  0  0  0  0
    2.5989    1.5002    0.0000 C   0  0  0  0  0  0  0  0  0  0  0  0
   -2.5989    1.5002    0.0000 C   0  0  0  0  0  0  0  0  0  0  0  0
    1.3000   -0.7500    0.0000 C   0  0  0  0  0  0  0  0  0  0  0  0
   -1.3000   -0.7500    0.0000 C   0  0  0  0  0  0  0  0  0  0  0  0
   -0.0000   -1.5000    0.0000 C   0  0  0  0  0  0  0  0  0  0  0  0
    1.3000    0.7500    0.0000 C   0  0  0  0  0  0  0  0  0  0  0  0
   -1.3000    0.7500    0.0000 C   0  0  0  0  0  0  0  0  0  0  0  0
   -0.0000    1.5000    0.0000 C   0  0  0  0  0  0  0  0  0  0  0  0
    0.0000    3.0000    0.0000 N   0  0  0  0  0  0  0  0  0  0  0  0
  6  1  1  0
  6  4  2  0
  6  5  1  0
  7  2  1  0
  7  4  1  0
  8  3  1  0
  8  5  2  0
  9  7  2  0
  9  8  1  0
 10  9  1  0
M  END
>  <NAME>  (4167) 
2,4,6-TRIMETHYLANILINE

>  <SYNONYMS>  (4167) 
MESIDINE

>  <SPECTRUM TYPE>  (4167) 
MS1

>  <INSTRUMENT TYPE>  (4167) 
EI-B

>  <INSTRUMENT>  (4167) 
HITACHI M-80

>  <ION MODE>  (4167) 
P

>  <INCHIKEY>  (4167) 
KWVPRPSXBZNOHS-UHFFFAOYSA-N

>  <FORMULA>  (4167) 
C9H13N

>  <EXACT MASS>  (4167) 
135.104799416

>  <MW>  (4167) 
135

>  <ID>  (4167) 
JP006303

>  <CONTRIBUTOR>  (4167) 
University of Tokyo Team, {Faculty of Engineering, University of Tokyo

>  <COMMENT>  (4167) 
SMILES=Cc(c1)cc(C)c(N)c(C)1
cas=88-05-1
InChI=InChI=1S/C9H13N/c1-6-4-7(2)9(10)8(3)5-6/h4-5H,10H2,1-3H3
computed SMILES=NC=1C(=CC(=CC1C)C)C
accession=JP006303
date=2016.01.19 (Created 2008.10.21, modified 2011.05.06)
author=MASS SPECTROSCOPY SOC. OF JAPAN (MSSJ)
license=CC BY-NC-SA
exact mass=135.1048
ionization energy=70 eV
ion type=[M]+*
computed spectral entropy=3.5542191690051124
computed normalized entropy=0.8284005985274585
SPLASH=splash10-0080-9700000000-d968eac9ad8e411b2f47
submitter=submitter = University of Tokyo Team (Faculty of Engineering, University of Tokyo)
MoNA Rating=3.75

>  <NUM PEAKS>  (4167) 
73

>  <MASS SPECTRAL PEAKS>  (4167) 
13 1.06
14 2.39
15 18.39
17 2.58
18 1.97
26 3.93
27 30.12
28 19.89
29 16.8
30 5.81
31 16.4
32 14.09
37 1.8
38 7.26
39 38.01
40 6.63
41 15.01
42 11.14
43 1.5
50 7.2
51 15.93
52 13.69
53 10.92
54 9.21
55 1.93
58 1.95
59 1.93
60 0.99
61 1.03
62 3.98
63 10.73
64 3.43
65 15.22
66 6.75
67 3.93
68 3.12
74 2.13
75 2.15
76 2.17
77 16.23
78 7.32
79 8.95
80 6.07
81 1.18
86 0.57
87 0.73
89 2.9
90 1.73
91 23.06
92 4.96
93 9.09
94 5.23
95 1.18
102 1.64
103 4.44
104 3.56
105 3.16
106 8.52
107 5.18
108 3.59
115 5.26
116 2.04
117 6.51
118 6.62
119 5.68
120 99.16
121 9.58
130 0.92
132 2.77
133 2.02
134 57.12
135 99.99
136 10.64

$$$$

     RDKit          2D

  8  7  0  0  1  0  0  0  0  0999 V2000
    1.6238    3.1875    0.0000 C   0  0  0  0  0  0  0  0  0  0  0  0
   -0.9743    3.1875    0.0000 C   0  0  0  0  0  0  0  0  0  0  0  0
   -2.2733    3.9375    0.0000 C   0  0  0  0  0  0  0  0  0  0  0  0
   -3.5724    3.1875    0.0000 C   0  0  0  0  0  0  0  0  0  0  0  0
   -2.2733    5.4375    0.0000 N   0  0  0  0  0  0  0  0  0  0  0  0
   -3.5724    1.6875    0.0000 O   0  0  0  0  0  0  0  0  0  0  0  0
   -4.8714    3.9375    0.0000 O   0  0  0  0  0  0  0  0  0  0  0  0
    0.3248    3.9375    0.0000 S   0  0  0  0  0  0  0  0  0  0  0  0
  3  2  1  0
  4  3  1  0
  3  5  1  1
  6  4  2  0
  7  4  1  0
  8  1  1  0
  8  2  1  0
M  END
>  <NAME>  (4168) 
S-METHYL-L-CYSTEINE

>  <SYNONYMS>  (4168) 


>  <SPECTRUM TYPE>  (4168) 
MS1

>  <INSTRUMENT TYPE>  (4168) 
EI-B

>  <INSTRUMENT>  (4168) 
HITACHI M-80

>  <ION MODE>  (4168) 
P

>  <INCHIKEY>  (4168) 
IDIDJDIHTAOVLG-VKHMYHEASA-N

>  <FORMULA>  (4168) 
C4H9NO2S

>  <EXACT MASS>  (4168) 
135.035399528

>  <MW>  (4168) 
135

>  <ID>  (4168) 
JP006302

>  <CONTRIBUTOR>  (4168) 
University of Tokyo Team, {Faculty of Engineering, University of Tokyo

>  <COMMENT>  (4168) 
SMILES=OC(=O)C(N)CSC
cas=1187-84-4
InChI=InChI=1S/C4H9NO2S/c1-8-2-3(5)4(6)7/h3H,2,5H2,1H3,(H,6,7)/t3-/m0/s1
computed SMILES=O=C(O)C(N)CSC
accession=JP006302
date=2016.01.19 (Created 2008.10.21, modified 2011.05.06)
author=MASS SPECTROSCOPY SOC. OF JAPAN (MSSJ)
license=CC BY-NC-SA
exact mass=135.0354
ionization energy=70 eV
ion type=[M]+*
computed spectral entropy=3.2942416027402794
computed normalized entropy=0.7891557226846944
SPLASH=splash10-03fv-9000000000-d790345dc4143a2c43ef
submitter=submitter = University of Tokyo Team (Faculty of Engineering, University of Tokyo)
MoNA Rating=3.75

>  <NUM PEAKS>  (4168) 
65

>  <MASS SPECTRAL PEAKS>  (4168) 
12 1.33
13 1.55
14 7.09
15 30.79
16 17.21
17 23.46
18 16.5
19 2.8
26 4.3
27 27
28 96.41
29 14.34
30 28.47
31 1.32
32 3.23
33 1.42
34 1.03
35 18
36 1.64
37 0.96
38 1.13
39 2.48
40 7.31
41 21.66
42 67.01
43 75.22
44 20.9
45 74.39
46 40.85
47 29.65
48 6.67
49 2.41
53 0.8
54 0.56
55 1.83
56 1.96
57 3.3
58 5.68
59 4.36
60 1.94
61 99.99
62 57.44
63 7.08
64 2.92
69 0.51
70 1.46
71 0.68
72 1.06
73 3.86
74 52.67
75 13.38
76 1.39
77 0.73
87 6.42
88 1.46
89 1.2
90 29.04
91 1.85
92 1.37
103 0.9
118 1.82
119 2.63
135 11.16
136 1.75
137 0.61

$$$$

     RDKit          2D

  9  9  0  0  0  0  0  0  0  0999 V2000
   -2.8539    0.1433    0.0000 C   0  0  0  0  0  0  0  0  0  0  0  0
    2.3428    0.1427    0.0000 C   0  0  0  0  0  0  0  0  0  0  0  0
   -0.2548   -2.8581    0.0000 C   0  0  0  0  0  0  0  0  0  0  0  0
   -1.5543   -2.1073    0.0000 C   0  0  0  0  0  0  0  0  0  0  0  0
    1.0443   -2.1081    0.0000 C   0  0  0  0  0  0  0  0  0  0  0  0
   -1.5548   -0.6065    0.0000 C   0  0  0  0  0  0  0  0  0  0  0  0
    1.0438   -0.6073    0.0000 C   0  0  0  0  0  0  0  0  0  0  0  0
   -0.2557    0.1435    0.0000 C   0  0  0  0  0  0  0  0  0  0  0  0
   -0.2555    1.6435    0.0000 N   0  0  0  0  0  0  0  0  0  0  0  0
  4  3  2  0
  5  3  1  0
  6  1  1  0
  6  4  1  0
  7  2  1  0
  7  5  2  0
  8  6  2  0
  8  7  1  0
  9  8  1  0
M  END
>  <NAME>  (4169) 
2,6-DIMETHYLANILINE

>  <SYNONYMS>  (4169) 
2,6-XYLIDINE

>  <SPECTRUM TYPE>  (4169) 
MS1

>  <INSTRUMENT TYPE>  (4169) 
EI-B

>  <INSTRUMENT>  (4169) 
HITACHI M-80

>  <ION MODE>  (4169) 
P

>  <INCHIKEY>  (4169) 
UFFBMTHBGFGIHF-UHFFFAOYSA-N

>  <FORMULA>  (4169) 
C8H11N

>  <EXACT MASS>  (4169) 
121.08914935199999

>  <MW>  (4169) 
121

>  <ID>  (4169) 
JP006301

>  <CONTRIBUTOR>  (4169) 
University of Tokyo Team, {Faculty of Engineering, University of Tokyo

>  <COMMENT>  (4169) 
SMILES=Cc(c1)c(N)c(C)cc1
cas=87-62-7
InChI=InChI=1S/C8H11N/c1-6-4-3-5-7(2)8(6)9/h3-5H,9H2,1-2H3
computed SMILES=NC=1C(=CC=CC1C)C
accession=JP006301
date=2016.01.19 (Created 2008.10.21, modified 2011.05.06)
author=MASS SPECTROSCOPY SOC. OF JAPAN (MSSJ)
license=CC BY-NC-SA
exact mass=121.08915
ionization energy=70 eV
ion type=[M]+*
computed spectral entropy=3.495907502565487
computed normalized entropy=0.843783206058146
SPLASH=splash10-0kmi-9400000000-1d6fefd12c8955bae28e
submitter=submitter = University of Tokyo Team (Faculty of Engineering, University of Tokyo)
MoNA Rating=3.75

>  <NUM PEAKS>  (4169) 
63

>  <MASS SPECTRAL PEAKS>  (4169) 
14 3.54
15 26.73
29 6.91
30 11.45
32 1.53
37 7.54
38 21.79
39 77.53
40 11.41
41 22.46
42 21.07
43 2.76
47 2.19
49 1.95
50 23.14
51 40.78
52 39.93
53 23.98
54 19.6
55 2.84
56 0.9
59 3.6
60 3.26
61 4.7
62 12.35
63 25.34
64 7.35
65 25.3
66 12.31
67 5.77
68 2.27
74 4.13
75 4.3
76 5.36
77 37.31
78 26.35
79 12.57
80 12.09
81 2.15
85 0.65
86 1.32
87 1.19
88 0.6
89 4.99
90 2.22
91 24.41
92 7.88
93 20.79
94 10.86
95 1.36
102 2.88
103 11.81
104 9.21
105 4.4
106 99.99
107 8.47
116 0.51
117 1.59
118 4.3
119 2.52
120 59.39
121 99.61
122 9.28

$$$$

     RDKit          2D

 15 16  0  0  0  0  0  0  0  0999 V2000
    3.8971    1.0700    0.0000 C   0  0  0  0  0  0  0  0  0  0  0  0
   -5.1962    4.8200    0.0000 C   0  0  0  0  0  0  0  0  0  0  0  0
    3.8976    2.5708    0.0000 C   0  0  0  0  0  0  0  0  0  0  0  0
    2.5976    0.3192    0.0000 C   0  0  0  0  0  0  0  0  0  0  0  0
   -3.8966    5.5708    0.0000 C   0  0  0  0  0  0  0  0  0  0  0  0
   -5.1966    3.3192    0.0000 C   0  0  0  0  0  0  0  0  0  0  0  0
    2.5986    3.3208    0.0000 C   0  0  0  0  0  0  0  0  0  0  0  0
    1.2986    1.0692    0.0000 C   0  0  0  0  0  0  0  0  0  0  0  0
   -2.5976    4.8208    0.0000 C   0  0  0  0  0  0  0  0  0  0  0  0
   -3.8976    2.5692    0.0000 C   0  0  0  0  0  0  0  0  0  0  0  0
    1.2990    2.5700    0.0000 C   0  0  0  0  0  0  0  0  0  0  0  0
   -2.5981    3.3200    0.0000 C   0  0  0  0  0  0  0  0  0  0  0  0
    0.0000    3.3200    0.0000 C   0  0  0  0  0  0  0  0  0  0  0  0
   -1.2990    2.5700    0.0000 N   0  0  0  0  0  0  0  0  0  0  0  0
    0.0000    4.8200    0.0000 O   0  0  0  0  0  0  0  0  0  0  0  0
  3  1  2  0
  4  1  1  0
  5  2  2  0
  6  2  1  0
  7  3  1  0
  8  4  2  0
  9  5  1  0
 10  6  2  0
 11  7  2  0
 11  8  1  0
 12  9  2  0
 12 10  1  0
 13 11  1  0
 14 12  1  0
 14 13  2  3
 15 13  1  0
M  END
>  <NAME>  (4170) 
BENZANILIDE

>  <SYNONYMS>  (4170) 


>  <SPECTRUM TYPE>  (4170) 
MS1

>  <INSTRUMENT TYPE>  (4170) 
EI-B

>  <INSTRUMENT>  (4170) 
HITACHI M-80

>  <ION MODE>  (4170) 
P

>  <INCHIKEY>  (4170) 
ZVSKZLHKADLHSD-UHFFFAOYSA-N

>  <FORMULA>  (4170) 
C13H11NO

>  <EXACT MASS>  (4170) 
197.084063972

>  <MW>  (4170) 
197

>  <ID>  (4170) 
JP006300

>  <CONTRIBUTOR>  (4170) 
University of Tokyo Team, {Faculty of Engineering, University of Tokyo

>  <COMMENT>  (4170) 
SMILES=O=C(Nc(c2)cccc2)c(c1)cccc1
cas=93-98-1
InChI=InChI=1S/C13H11NO/c15-13(11-7-3-1-4-8-11)14-12-9-5-2-6-10-12/h1-10H,(H,14,15)
computed SMILES=OC(=NC=1C=CC=CC1)C=2C=CC=CC2
accession=JP006300
date=2016.01.19 (Created 2008.10.21, modified 2011.05.06)
author=MASS SPECTROSCOPY SOC. OF JAPAN (MSSJ)
license=CC BY-NC-SA
exact mass=197.08406
ionization energy=70 eV
ion type=[M]+*
computed spectral entropy=2.276684699085358
computed normalized entropy=0.6693774114258398
SPLASH=splash10-0a4i-7900000000-beaf1f14ef82e35fd664
submitter=submitter = University of Tokyo Team (Faculty of Engineering, University of Tokyo)
MoNA Rating=3.75

>  <NUM PEAKS>  (4170) 
30

>  <MASS SPECTRAL PEAKS>  (4170) 
27 1.76
28 1.23
38 2.17
39 8.76
40 0.97
41 0.53
50 5.61
51 17.61
52 2.23
62 0.79
63 2.65
64 2.02
65 10.13
66 1.53
74 1.48
75 1.24
76 2.15
77 47.47
78 4.11
91 1.05
92 3.37
93 3.27
105 99.99
106 7.78
167 0.67
180 2.44
181 0.56
197 33.56
198 8.37
199 0.91

$$$$

     RDKit          2D

 14 15  0  0  0  0  0  0  0  0999 V2000
    3.8971    1.0700    0.0000 C   0  0  0  0  0  0  0  0  0  0  0  0
   -5.1962    4.8200    0.0000 C   0  0  0  0  0  0  0  0  0  0  0  0
    3.8976    2.5708    0.0000 C   0  0  0  0  0  0  0  0  0  0  0  0
    2.5976    0.3192    0.0000 C   0  0  0  0  0  0  0  0  0  0  0  0
   -5.1966    3.3192    0.0000 C   0  0  0  0  0  0  0  0  0  0  0  0
   -3.8966    5.5708    0.0000 C   0  0  0  0  0  0  0  0  0  0  0  0
    2.5986    3.3208    0.0000 C   0  0  0  0  0  0  0  0  0  0  0  0
    1.2986    1.0692    0.0000 C   0  0  0  0  0  0  0  0  0  0  0  0
   -3.8976    2.5692    0.0000 C   0  0  0  0  0  0  0  0  0  0  0  0
   -2.5976    4.8208    0.0000 C   0  0  0  0  0  0  0  0  0  0  0  0
    0.0000    3.3200    0.0000 C   0  0  0  0  0  0  0  0  0  0  0  0
   -1.2990    2.5700    0.0000 C   0  0  0  0  0  0  0  0  0  0  0  0
    1.2990    2.5700    0.0000 C   0  0  0  0  0  0  0  0  0  0  0  0
   -2.5981    3.3200    0.0000 C   0  0  0  0  0  0  0  0  0  0  0  0
  3  1  2  0
  4  1  1  0
  5  2  2  0
  6  2  1  0
  7  3  1  0
  8  4  2  0
  9  5  1  0
 10  6  2  0
 11 12  2  0
 13  7  2  0
 13  8  1  0
 13 11  1  0
 14  9  2  0
 14 10  1  0
 14 12  1  0
M  END
>  <NAME>  (4171) 
TRANS-STILBENE

>  <SYNONYMS>  (4171) 
SYN-DIPHENYLETHYLENE

>  <SPECTRUM TYPE>  (4171) 
MS1

>  <INSTRUMENT TYPE>  (4171) 
EI-B

>  <INSTRUMENT>  (4171) 
HITACHI M-80

>  <ION MODE>  (4171) 
P

>  <INCHIKEY>  (4171) 
PJANXHGTPQOBST-VAWYXSNFSA-N

>  <FORMULA>  (4171) 
C14H12

>  <EXACT MASS>  (4171) 
180.093900384

>  <MW>  (4171) 
180

>  <ID>  (4171) 
JP006299

>  <CONTRIBUTOR>  (4171) 
University of Tokyo Team, {Faculty of Engineering, University of Tokyo

>  <COMMENT>  (4171) 
SMILES=c(c2)ccc(c2)C=Cc(c1)cccc1
cas=103-30-0
InChI=InChI=1S/C14H12/c1-3-7-13(8-4-1)11-12-14-9-5-2-6-10-14/h1-12H/b12-11+
computed SMILES=C=1C=CC(=CC1)C=CC=2C=CC=CC2
accession=JP006299
date=2016.01.19 (Created 2008.10.21, modified 2011.05.06)
author=MASS SPECTROSCOPY SOC. OF JAPAN (MSSJ)
license=CC BY-NC-SA
exact mass=180.0939
ionization energy=70 eV
ion type=[M]+*
computed spectral entropy=3.521164082864529
computed normalized entropy=0.8130641640087043
SPLASH=splash10-0fc0-8900000000-0a434ff2f5e1c0538b4c
submitter=submitter = University of Tokyo Team (Faculty of Engineering, University of Tokyo)
MoNA Rating=3.75

>  <NUM PEAKS>  (4171) 
76

>  <MASS SPECTRAL PEAKS>  (4171) 
14 1.15
15 6.12
32 1.45
37 2.46
38 10.99
39 42.9
40 3.01
41 1.85
49 1.38
50 34.12
51 57.45
52 17.19
53 2.31
61 3.06
62 13.17
63 33
64 5.41
65 9.61
66 0.58
73 1.17
74 16.14
75 14.98
76 25.83
77 25.88
78 13.19
79 0.97
82 3.56
85 1.35
86 4.95
87 7.53
88 5.51
89 22.22
90 5.02
91 8.38
92 0.7
98 3.91
99 2.48
100 1.17
101 2.67
102 23.73
103 4.64
104 0.53
110 1.07
111 1.14
113 2.53
114 1.27
115 11
116 1.13
122 0.72
125 0.72
126 5.43
127 4.45
128 4.4
129 0.61
137 0.58
138 0.7
139 7.38
140 1.07
141 0.99
150 3.56
151 7.78
152 18.77
153 5.9
154 0.83
163 1.49
164 1.8
165 41.56
166 6.16
175 0.81
176 7.53
177 7.03
178 47.22
179 73.96
180 99.99
181 14.53
182 1.63

$$$$

     RDKit          2D

 15 16  0  0  0  0  0  0  0  0999 V2000
    3.2481    2.1950    0.0000 C   0  0  0  0  0  0  0  0  0  0  0  0
   -7.1442    2.1950    0.0000 C   0  0  0  0  0  0  0  0  0  0  0  0
    3.2486    3.6958    0.0000 C   0  0  0  0  0  0  0  0  0  0  0  0
    1.9486    1.4442    0.0000 C   0  0  0  0  0  0  0  0  0  0  0  0
   -5.8447    1.4442    0.0000 C   0  0  0  0  0  0  0  0  0  0  0  0
   -7.1447    3.6958    0.0000 C   0  0  0  0  0  0  0  0  0  0  0  0
    1.9495    4.4458    0.0000 C   0  0  0  0  0  0  0  0  0  0  0  0
    0.6495    2.1942    0.0000 C   0  0  0  0  0  0  0  0  0  0  0  0
   -4.5457    2.1942    0.0000 C   0  0  0  0  0  0  0  0  0  0  0  0
   -5.8457    4.4458    0.0000 C   0  0  0  0  0  0  0  0  0  0  0  0
   -0.6490    4.4450    0.0000 C   0  0  0  0  0  0  0  0  0  0  0  0
   -3.2471    4.4450    0.0000 C   0  0  0  0  0  0  0  0  0  0  0  0
    0.6500    3.6950    0.0000 C   0  0  0  0  0  0  0  0  0  0  0  0
   -4.5462    3.6950    0.0000 C   0  0  0  0  0  0  0  0  0  0  0  0
   -1.9481    3.6950    0.0000 N   0  0  0  0  0  0  0  0  0  0  0  0
  3  1  2  0
  4  1  1  0
  5  2  2  0
  6  2  1  0
  7  3  1  0
  8  4  2  0
  9  5  1  0
 10  6  2  0
 13  7  2  0
 13  8  1  0
 13 11  1  0
 14  9  2  0
 14 10  1  0
 14 12  1  0
 15 11  1  0
 15 12  1  0
M  END
>  <NAME>  (4172) 
DIBENZYLAMINE

>  <SYNONYMS>  (4172) 


>  <SPECTRUM TYPE>  (4172) 
MS1

>  <INSTRUMENT TYPE>  (4172) 
EI-B

>  <INSTRUMENT>  (4172) 
HITACHI M-80

>  <ION MODE>  (4172) 
P

>  <INCHIKEY>  (4172) 
BWLUMTFWVZZZND-UHFFFAOYSA-N

>  <FORMULA>  (4172) 
C14H15N

>  <EXACT MASS>  (4172) 
197.12044948

>  <MW>  (4172) 
197

>  <ID>  (4172) 
JP006297

>  <CONTRIBUTOR>  (4172) 
University of Tokyo Team, {Faculty of Engineering, University of Tokyo

>  <COMMENT>  (4172) 
SMILES=c(c2)ccc(c2)CNCc(c1)cccc1
cas=103-49-1
InChI=InChI=1S/C14H15N/c1-3-7-13(8-4-1)11-15-12-14-9-5-2-6-10-14/h1-10,15H,11-12H2
computed SMILES=C=1C=CC(=CC1)CNCC=2C=CC=CC2
accession=JP006297
date=2016.01.19 (Created 2008.10.21, modified 2011.05.06)
author=MASS SPECTROSCOPY SOC. OF JAPAN (MSSJ)
license=CC BY-NC-SA
exact mass=197.12045
ionization energy=70 eV
ion type=[M]+*
computed spectral entropy=3.1995935417362578
computed normalized entropy=0.8097687132508681
SPLASH=splash10-0006-9200000000-e142ee7e89298b4b6ea3
submitter=submitter = University of Tokyo Team (Faculty of Engineering, University of Tokyo)
MoNA Rating=3.75

>  <NUM PEAKS>  (4172) 
52

>  <MASS SPECTRAL PEAKS>  (4172) 
13 1.89
14 3.64
15 12.57
16 1.11
17 3.51
18 5.99
26 0.94
27 3.4
28 13.22
29 26.94
30 3.34
31 31.38
32 22.18
38 2.14
39 12.6
40 0.98
41 3.21
42 0.89
50 7.07
51 16.53
52 4.58
53 1.26
62 1.73
63 7.3
64 2.27
65 23.17
66 1.59
74 1.66
76 2.43
77 15.27
78 7.76
79 6.58
89 5.75
90 3.1
91 99.99
92 20.82
93 1.32
103 1.44
104 7.34
105 4.14
106 40.4
107 3.6
117 1.33
118 5.54
119 0.89
120 6.84
121 0.76
194 1.38
195 1.5
196 9.33
197 8.66
198 1.14

$$$$

     RDKit          2D

  9  9  0  0  0  0  0  0  0  0999 V2000
   -0.3325    2.4400    0.0000 C   0  0  0  0  0  0  0  0  0  0  0  0
   -1.6200   -1.3100    0.0000 C   0  0  0  0  0  0  0  0  0  0  0  0
   -0.3300   -2.0600    0.0000 C   0  0  0  0  0  0  0  0  0  0  0  0
   -1.6200    0.1900    0.0000 C   0  0  0  0  0  0  0  0  0  0  0  0
    0.9700   -1.3100    0.0000 C   0  0  0  0  0  0  0  0  0  0  0  0
    2.2689    0.9402    0.0000 C   0  0  0  0  0  0  0  0  0  0  0  0
   -0.3300    0.9400    0.0000 C   0  0  0  0  0  0  0  0  0  0  0  0
    0.9700    0.1900    0.0000 C   0  0  0  0  0  0  0  0  0  0  0  0
    3.5681    0.1904    0.0000 Br  0  0  0  0  0  0  0  0  0  0  0  0
  3  2  2  0
  4  2  1  0
  5  3  1  0
  7  1  1  0
  7  4  2  0
  8  5  2  0
  8  6  1  0
  8  7  1  0
  9  6  1  0
M  END
>  <NAME>  (4173) 
ALPHA-BROMO-O-XYLENE

>  <SYNONYMS>  (4173) 
2-METHYLBENZYL BROMIDE

>  <SPECTRUM TYPE>  (4173) 
MS1

>  <INSTRUMENT TYPE>  (4173) 
EI-B

>  <INSTRUMENT>  (4173) 
HITACHI M-80

>  <ION MODE>  (4173) 
P

>  <INCHIKEY>  (4173) 
WGVYCXYGPNNUQA-UHFFFAOYSA-N

>  <FORMULA>  (4173) 
C8H9Br

>  <EXACT MASS>  (4173) 
183.988762388

>  <MW>  (4173) 
184

>  <ID>  (4173) 
JP006296

>  <CONTRIBUTOR>  (4173) 
University of Tokyo Team, {Faculty of Engineering, University of Tokyo

>  <COMMENT>  (4173) 
SMILES=BrCc(c1)c(C)ccc1
cas=89-92-9
InChI=InChI=1S/C8H9Br/c1-7-4-2-3-5-8(7)6-9/h2-5H,6H2,1H3
computed SMILES=BrCC=1C=CC=CC1C
accession=JP006296
date=2016.01.19 (Created 2008.10.21, modified 2011.05.06)
author=MASS SPECTROSCOPY SOC. OF JAPAN (MSSJ)
license=CC BY-NC-SA
exact mass=183.98876
ionization energy=70 eV
ion type=[M]+*
computed spectral entropy=2.901935311993176
computed normalized entropy=0.7579543267369677
SPLASH=splash10-0a6r-9700000000-c7d4e2510ed9836b6041
submitter=submitter = University of Tokyo Team (Faculty of Engineering, University of Tokyo)
MoNA Rating=3.75

>  <NUM PEAKS>  (4173) 
46

>  <MASS SPECTRAL PEAKS>  (4173) 
15 2.8
26 3.14
27 10.73
28 1.22
29 1.1
31 1.26
32 1.11
37 1.68
38 5.22
39 15.25
40 1.61
41 0.83
49 1.07
50 10.3
51 18.4
52 7.18
53 2.47
61 1.54
62 4.24
63 9.63
64 2.01
65 3.52
66 0.58
74 2.84
75 2.08
76 2.19
77 17.96
78 11.61
79 14.58
80 1.09
81 2.85
82 0.93
87 0.63
89 2.88
90 1.1
91 1.88
92 0.63
102 2.6
103 13.08
104 8.71
105 99.99
106 9.21
171 0.52
184 4.58
185 0.64
186 4.44

$$$$

     RDKit          2D

  4  3  0  0  0  0  0  0  0  0999 V2000
   -2.5981    2.2500    0.0000 C   0  0  0  0  0  0  0  0  0  0  0  0
    0.0000    2.2500    0.0000 C   0  0  0  0  0  0  0  0  0  0  0  0
   -1.2990    1.5000    0.0000 N   0  0  0  0  0  0  0  0  0  0  0  0
    1.2990    1.5000    0.0000 O   0  0  0  0  0  0  0  0  0  0  0  0
  3  1  1  0
  3  2  2  3
  4  2  1  0
M  END
>  <NAME>  (4174) 
N-METHYLFORMAMIDE

>  <SYNONYMS>  (4174) 
N-FORMYLMETHYLAMINE

>  <SPECTRUM TYPE>  (4174) 
MS1

>  <INSTRUMENT TYPE>  (4174) 
EI-B

>  <INSTRUMENT>  (4174) 
HITACHI M-80

>  <ION MODE>  (4174) 
P

>  <INCHIKEY>  (4174) 
ATHHXGZTWNVVOU-UHFFFAOYSA-N

>  <FORMULA>  (4174) 
C2H5NO

>  <EXACT MASS>  (4174) 
59.03711378

>  <MW>  (4174) 
59

>  <ID>  (4174) 
JP006295

>  <CONTRIBUTOR>  (4174) 
University of Tokyo Team, {Faculty of Engineering, University of Tokyo

>  <COMMENT>  (4174) 
SMILES=CNC=O
cas=123-39-7
InChI=InChI=1S/C2H5NO/c1-3-2-4/h2H,1H3,(H,3,4)
computed SMILES=OC=NC
accession=JP006295
date=2016.01.19 (Created 2008.10.21, modified 2011.05.06)
author=MASS SPECTROSCOPY SOC. OF JAPAN (MSSJ)
license=CC BY-NC-SA
exact mass=59.03711
ionization energy=70 eV
ion type=[M]+*
computed spectral entropy=2.0234779537995076
computed normalized entropy=0.645345777874409
SPLASH=splash10-057i-9000000000-60a7888b3706e6c01b2b
submitter=submitter = University of Tokyo Team (Faculty of Engineering, University of Tokyo)
MoNA Rating=3.75

>  <NUM PEAKS>  (4174) 
23

>  <MASS SPECTRAL PEAKS>  (4174) 
12 1.04
13 2.12
14 3.82
15 13.69
16 1.48
18 0.87
26 1.19
27 11.69
28 85.67
29 36.48
30 99.99
31 3.89
32 1.33
38 1.19
39 1.32
40 1.73
41 2.59
42 1.64
43 2.25
44 1.25
58 7.39
59 80.69
60 6.67

$$$$

     RDKit          2D

 11 11  0  0  0  0  0  0  0  0999 V2000
   -1.3000    0.7500    0.0000 C   0  0  0  0  0  0  0  0  0  0  0  0
    0.0000   -1.5000    0.0000 C   0  0  0  0  0  0  0  0  0  0  0  0
    0.0000    1.5000    0.0000 C   0  0  0  0  0  0  0  0  0  0  0  0
    1.3000   -0.7500    0.0000 C   0  0  0  0  0  0  0  0  0  0  0  0
   -3.8981   -0.7504    0.0000 C   0  0  0  0  0  0  0  0  0  0  0  0
   -1.3000   -0.7500    0.0000 C   0  0  0  0  0  0  0  0  0  0  0  0
    1.3000    0.7500    0.0000 C   0  0  0  0  0  0  0  0  0  0  0  0
   -2.5989   -1.5002    0.0000 C   0  0  0  0  0  0  0  0  0  0  0  0
   -5.1970   -1.5006    0.0000 Br  0  0  0  0  0  0  0  0  0  0  0  0
    2.5989    1.5002    0.0000 Br  0  0  0  0  0  0  0  0  0  0  0  0
   -2.5987   -3.0002    0.0000 O   0  0  0  0  0  0  0  0  0  0  0  0
  3  1  2  0
  4  2  1  0
  6  1  1  0
  6  2  2  0
  7  3  1  0
  7  4  2  0
  8  5  1  0
  8  6  1  0
  9  5  1  0
 10  7  1  0
 11  8  2  0
M  END
>  <NAME>  (4175) 
2,4'-DIBROMOACETOPHENONE

>  <SYNONYMS>  (4175) 
4'-BROMOPHENACYL BROMIDE

>  <SPECTRUM TYPE>  (4175) 
MS1

>  <INSTRUMENT TYPE>  (4175) 
EI-B

>  <INSTRUMENT>  (4175) 
HITACHI M-80

>  <ION MODE>  (4175) 
P

>  <INCHIKEY>  (4175) 
FKJSFKCZZIXQIP-UHFFFAOYSA-N

>  <FORMULA>  (4175) 
C8H6Br2O

>  <EXACT MASS>  (4175) 
275.878539012

>  <MW>  (4175) 
276

>  <ID>  (4175) 
JP006294

>  <CONTRIBUTOR>  (4175) 
University of Tokyo Team, {Faculty of Engineering, University of Tokyo

>  <COMMENT>  (4175) 
SMILES=BrCC(=O)c(c1)ccc(Br)c1
cas=99-73-0
InChI=InChI=1S/C8H6Br2O/c9-5-8(11)6-1-3-7(10)4-2-6/h1-4H,5H2
computed SMILES=O=C(C1=CC=C(Br)C=C1)CBr
accession=JP006294
date=2016.01.19 (Created 2008.10.21, modified 2011.05.06)
author=MASS SPECTROSCOPY SOC. OF JAPAN (MSSJ)
license=CC BY-NC-SA
exact mass=275.87854
ionization energy=70 eV
ion type=[M]+*
computed spectral entropy=3.508973929133761
computed normalized entropy=0.7898378077746849
SPLASH=splash10-0kd3-9500000000-202189ff7d67a8b35f04
submitter=submitter = University of Tokyo Team (Faculty of Engineering, University of Tokyo)
MoNA Rating=3.75

>  <NUM PEAKS>  (4175) 
85

>  <MASS SPECTRAL PEAKS>  (4175) 
13 1.76
14 9.88
15 1.69
25 0.84
26 4.51
27 4.29
28 2.53
29 2.72
32 0.67
36 0.92
37 8.96
38 12.9
39 9.55
40 1.14
41 2.81
42 28.61
43 2.57
44 0.62
45 1.06
48 0.6
49 6.65
50 61.26
51 13.5
52 1.53
53 1.53
60 1.02
61 6.72
62 10.87
63 19.18
64 4.68
72 0.52
73 7.91
74 34.73
75 44.35
76 40.48
77 4.08
79 13.2
80 2.94
81 13.53
82 2.88
84 0.52
85 1.71
86 2.56
87 2.26
88 1.29
89 20.89
90 24.62
91 2.25
92 1.88
93 19.96
94 2.13
95 18.52
96 1.61
98 1.01
104 5.55
106 0.75
107 0.69
117 1.23
118 0.87
119 1.13
121 0.93
123 0.85
128 0.67
129 1.6
130 0.7
131 1.65
143 0.72
145 0.54
154 0.57
155 29.11
156 2.53
157 28.75
158 1.97
169 12.7
170 1.05
171 12.04
183 99.99
184 7.89
185 95.79
186 7.33
236 0.61
276 4.16
278 8.18
279 0.8
280 4.01

$$$$

     RDKit          2D

 12 12  0  0  0  0  0  0  0  0999 V2000
   -5.5207    3.1321    0.0000 C   0  0  0  0  0  0  0  0  0  0  0  0
   -4.2216    2.3821    0.0000 C   0  0  0  0  0  0  0  0  0  0  0  0
    3.5726    0.8821    0.0000 C   0  0  0  0  0  0  0  0  0  0  0  0
    3.5731    2.3829    0.0000 C   0  0  0  0  0  0  0  0  0  0  0  0
    2.2731    0.1313    0.0000 C   0  0  0  0  0  0  0  0  0  0  0  0
    2.2740    3.1329    0.0000 C   0  0  0  0  0  0  0  0  0  0  0  0
    0.9740    0.8813    0.0000 C   0  0  0  0  0  0  0  0  0  0  0  0
   -0.3245    3.1321    0.0000 C   0  0  0  0  0  0  0  0  0  0  0  0
    0.9745    2.3821    0.0000 C   0  0  0  0  0  0  0  0  0  0  0  0
   -1.6236    2.3821    0.0000 C   0  0  0  0  0  0  0  0  0  0  0  0
   -1.6236    0.8821    0.0000 O   0  0  0  0  0  0  0  0  0  0  0  0
   -2.9226    3.1321    0.0000 O   0  0  0  0  0  0  0  0  0  0  0  0
  2  1  1  0
  4  3  2  0
  5  3  1  0
  6  4  1  0
  7  5  2  0
  9  6  2  0
  9  7  1  0
  9  8  1  0
 10  8  1  0
 11 10  2  0
 12  2  1  0
 12 10  1  0
M  END
>  <NAME>  (4176) 
ETHYL PHENYLACETATE

>  <SYNONYMS>  (4176) 


>  <SPECTRUM TYPE>  (4176) 
MS1

>  <INSTRUMENT TYPE>  (4176) 
EI-B

>  <INSTRUMENT>  (4176) 
HITACHI M-80

>  <ION MODE>  (4176) 
P

>  <INCHIKEY>  (4176) 
DULCUDSUACXJJC-UHFFFAOYSA-N

>  <FORMULA>  (4176) 
C10H12O2

>  <EXACT MASS>  (4176) 
164.083729624

>  <MW>  (4176) 
164

>  <ID>  (4176) 
JP006293

>  <CONTRIBUTOR>  (4176) 
University of Tokyo Team, {Faculty of Engineering, University of Tokyo

>  <COMMENT>  (4176) 
SMILES=CCOC(=O)Cc(c1)cccc1
cas=101-97-3
InChI=InChI=1S/C10H12O2/c1-2-12-10(11)8-9-6-4-3-5-7-9/h3-7H,2,8H2,1H3
computed SMILES=O=C(OCC)CC=1C=CC=CC1
author=MASS SPECTROSCOPY SOC. OF JAPAN (MSSJ)
license=CC BY-NC-SA
exact mass=164.08373
ionization energy=70 eV
ion type=[M]+*
computed spectral entropy=2.532486906109301
computed normalized entropy=0.7013415888634246
accession=JP006293
date=2016.01.19 (Created 2008.10.21, modified 2011.05.06)
SPLASH=splash10-0006-9000000000-8ded0cba19ae20da2ad4
submitter=submitter = University of Tokyo Team (Faculty of Engineering, University of Tokyo)
MoNA Rating=3.75

>  <NUM PEAKS>  (4176) 
37

>  <MASS SPECTRAL PEAKS>  (4176) 
15 3.31
26 3.89
27 15.48
28 3.49
29 33.83
30 2.63
38 2.13
39 12.68
40 0.95
41 2.53
42 1.04
43 2.37
45 1.21
46 0.85
50 2.78
51 5.73
52 1.85
53 0.51
61 0.65
62 2.73
63 8.18
64 2.56
65 18.43
66 1.01
74 0.57
77 1.43
78 0.66
79 0.75
89 6.37
90 4.27
91 99.99
92 11.11
105 1.84
118 0.82
119 1.68
164 11.61
165 1.31

$$$$

     RDKit          2D

 12 12  0  0  1  0  0  0  0  0999 V2000
   -2.6578    1.9493    0.0000 C   0  0  0  0  0  0  0  0  0  0  0  0
   -1.7955    0.7219    0.0000 C   0  0  0  0  0  0  0  0  0  0  0  0
    0.6884   -0.2708    0.0000 C   0  0  0  0  0  0  0  0  0  0  0  0
    2.0628    0.3098    0.0000 C   0  0  0  0  0  0  0  0  0  0  0  0
   -0.3014    0.8549    0.0000 C   0  0  0  0  0  0  0  0  0  0  0  0
    1.9330    1.8050    0.0000 C   0  0  0  0  0  0  0  0  0  0  0  0
   -4.1518    1.8162    0.0000 O   0  0  0  0  0  0  0  0  0  0  0  0
   -2.4273   -0.6386    0.0000 O   0  0  0  0  0  0  0  0  0  0  0  0
    0.3538   -1.7330    0.0000 O   0  0  0  0  0  0  0  0  0  0  0  0
    3.3476   -0.4643    0.0000 O   0  0  0  0  0  0  0  0  0  0  0  0
    3.0645    2.7897    0.0000 O   0  0  0  0  0  0  0  0  0  0  0  0
    0.4746    2.1389    0.0000 O   0  0  0  0  0  0  0  0  0  0  0  0
  2  1  1  0
  4  3  2  0
  5  2  1  0
  5  3  1  0
  6  4  1  0
  7  1  1  0
  2  8  1  1
  9  3  1  0
 10  4  1  0
 11  6  2  0
  5 12  1  1
 12  6  1  0
M  END
>  <NAME>  (4177) 
L-ASCORBIC ACID

>  <SYNONYMS>  (4177) 
VITAMIN C

>  <SPECTRUM TYPE>  (4177) 
MS1

>  <INSTRUMENT TYPE>  (4177) 
EI-B

>  <INSTRUMENT>  (4177) 
HITACHI M-80

>  <ION MODE>  (4177) 
P

>  <INCHIKEY>  (4177) 
CIWBSHSKHKDKBQ-JLAZNSOCSA-N

>  <FORMULA>  (4177) 
C6H8O6

>  <EXACT MASS>  (4177) 
176.03208797599999

>  <MW>  (4177) 
176

>  <ID>  (4177) 
JP006292

>  <CONTRIBUTOR>  (4177) 
University of Tokyo Team, {Faculty of Engineering, University of Tokyo

>  <COMMENT>  (4177) 
SMILES=OCC(O)C(O1)C(O)=C(O)C(=O)1
cas=50-81-7
InChI=InChI=1S/C6H8O6/c7-1-2(8)5-3(9)4(10)6(11)12-5/h2,5,7-10H,1H2/t2-,5+/m0/s1
computed SMILES=O=C1OC(C(O)=C1O)C(O)CO
accession=JP006292
date=2016.01.19 (Created 2008.10.21, modified 2011.05.06)
author=MASS SPECTROSCOPY SOC. OF JAPAN (MSSJ)
license=CC BY-NC-SA
exact mass=176.03209
ionization energy=70 eV
ion type=[M]+*
computed spectral entropy=2.8005050516381647
computed normalized entropy=0.6957168632206416
SPLASH=splash10-004i-4900000000-e99089fd55560fb70cfe
submitter=submitter = University of Tokyo Team (Faculty of Engineering, University of Tokyo)
MoNA Rating=3.75

>  <NUM PEAKS>  (4177) 
56

>  <MASS SPECTRAL PEAKS>  (4177) 
15 1.18
30 0.98
31 5.83
39 1.32
41 0.72
42 1.73
43 10.57
44 1.91
45 2.56
53 0.59
54 1.2
55 4.65
56 0.99
57 1.42
58 2.28
59 1.21
60 1.12
61 4.13
68 0.65
69 1.92
70 2.69
71 5.02
72 0.95
73 1.92
74 0.52
76 1.05
81 0.94
83 0.55
84 0.87
85 9.73
86 0.52
87 1.74
88 0.6
89 0.94
91 1.17
95 2.71
97 1.72
100 1.3
101 2.64
102 1.78
113 2.77
115 3.83
116 17.04
117 1.16
119 3.01
129 2.76
130 0.66
131 2.15
141 9.46
142 0.7
159 4.79
161 0.72
176 2.74
177 99.99
178 7.11
179 1.5

$$$$

     RDKit          2D

 11 11  0  0  0  0  0  0  0  0999 V2000
   -0.0000   -1.5000    0.0000 C   0  0  0  0  0  0  0  0  0  0  0  0
   -1.3000    0.7500    0.0000 C   0  0  0  0  0  0  0  0  0  0  0  0
    1.3000   -0.7500    0.0000 C   0  0  0  0  0  0  0  0  0  0  0  0
    0.0000    1.5000    0.0000 C   0  0  0  0  0  0  0  0  0  0  0  0
   -1.3000   -0.7500    0.0000 C   0  0  0  0  0  0  0  0  0  0  0  0
    1.3000    0.7500    0.0000 C   0  0  0  0  0  0  0  0  0  0  0  0
   -2.5989   -1.5002    0.0000 N   0  0  0  0  0  0  0  0  0  0  0  0
    3.3491    0.2013    0.0000 N   0  0  0  0  0  0  0  0  0  0  0  0
    3.8978    2.2504    0.0000 O   0  0  0  0  0  0  0  0  0  0  0  0
    1.8487    2.7991    0.0000 O   0  0  0  0  0  0  0  0  0  0  0  0
    2.5989    1.5002    0.0000 S   0  0  0  0  0  0  0  0  0  0  0  0
  3  1  2  0
  4  2  1  0
  5  1  1  0
  5  2  2  0
  6  3  1  0
  6  4  2  0
  7  5  1  0
 11  6  1  0
 11  8  1  0
 11  9  2  0
 11 10  2  0
M  END
>  <NAME>  (4178) 
SULFANILAMIDE

>  <SYNONYMS>  (4178) 


>  <SPECTRUM TYPE>  (4178) 
MS1

>  <INSTRUMENT TYPE>  (4178) 
EI-B

>  <INSTRUMENT>  (4178) 
HITACHI M-80

>  <ION MODE>  (4178) 
P

>  <INCHIKEY>  (4178) 
FDDDEECHVMSUSB-UHFFFAOYSA-N

>  <FORMULA>  (4178) 
C6H8N2O2S

>  <EXACT MASS>  (4178) 
172.030648496

>  <MW>  (4178) 
172

>  <ID>  (4178) 
JP006291

>  <CONTRIBUTOR>  (4178) 
University of Tokyo Team, {Faculty of Engineering, University of Tokyo

>  <COMMENT>  (4178) 
SMILES=Nc(c1)ccc(c1)S(N)(=O)=O
cas=63-74-1
InChI=InChI=1S/C6H8N2O2S/c7-5-1-3-6(4-2-5)11(8,9)10/h1-4H,7H2,(H2,8,9,10)
computed SMILES=O=S(=O)(N)C1=CC=C(N)C=C1
accession=JP006291
date=2016.01.19 (Created 2008.10.21, modified 2011.05.06)
author=MASS SPECTROSCOPY SOC. OF JAPAN (MSSJ)
license=CC BY-NC-SA
exact mass=172.03065
ionization energy=70 eV
ion type=[M]+*
computed spectral entropy=2.779009784314917
computed normalized entropy=0.7140642607943771
SPLASH=splash10-0avl-9800000000-517ec40f53253fdb0135
submitter=submitter = University of Tokyo Team (Faculty of Engineering, University of Tokyo)
MoNA Rating=3.75

>  <NUM PEAKS>  (4178) 
49

>  <MASS SPECTRAL PEAKS>  (4178) 
15 0.61
27 1.75
28 11.39
32 1.98
38 1.52
39 18.56
40 1.26
41 5.59
42 2.54
43 0.96
44 0.96
45 0.59
46 0.68
48 0.95
50 0.96
51 1.57
52 5.41
53 5.88
54 4.66
55 0.54
62 0.75
63 7.31
64 11.08
65 70.78
66 10.04
67 0.9
75 0.71
78 0.86
79 1.02
80 16.03
81 2.3
90 2.49
91 7.06
92 81.93
93 7.12
106 0.55
107 8.24
108 51.25
109 5.93
123 0.95
124 0.75
125 0.5
140 4.44
156 72.92
157 5.74
158 3.77
172 99.99
173 8.53
174 5.35

$$$$

     RDKit          2D

 15 15  0  0  0  0  0  0  0  0999 V2000
    7.7951    1.5010    0.0000 C   0  0  0  0  0  0  0  0  0  0  0  0
   -0.0000   -1.5000    0.0000 C   0  0  0  0  0  0  0  0  0  0  0  0
   -1.3000    0.7500    0.0000 C   0  0  0  0  0  0  0  0  0  0  0  0
    1.3000   -0.7500    0.0000 C   0  0  0  0  0  0  0  0  0  0  0  0
    0.0000    1.5000    0.0000 C   0  0  0  0  0  0  0  0  0  0  0  0
   -1.3000   -0.7500    0.0000 C   0  0  0  0  0  0  0  0  0  0  0  0
    1.3000    0.7500    0.0000 C   0  0  0  0  0  0  0  0  0  0  0  0
    5.1970    1.5006    0.0000 C   0  0  0  0  0  0  0  0  0  0  0  0
   -2.5989   -1.5002    0.0000 N   0  0  0  0  0  0  0  0  0  0  0  0
    3.8981    0.7504    0.0000 N   0  0  0  0  0  0  0  0  0  0  0  0
    5.1968    3.0006    0.0000 O   0  0  0  0  0  0  0  0  0  0  0  0
    3.5629    2.6494    0.0000 O   0  0  0  0  0  0  0  0  0  0  0  0
    1.6346    2.6491    0.0000 O   0  0  0  0  0  0  0  0  0  0  0  0
    6.4962    0.7508    0.0000 O   0  0  0  0  0  0  0  0  0  0  0  0
    2.5989    1.5002    0.0000 S   0  0  0  0  0  0  0  0  0  0  0  0
  4  2  2  0
  5  3  1  0
  6  2  1  0
  6  3  2  0
  7  4  1  0
  7  5  2  0
  9  6  1  0
 10  8  2  3
 11  8  1  0
 14  1  1  0
 14  8  1  0
 15  7  1  0
 15 10  1  0
 15 12  2  0
 15 13  2  0
M  END
>  <NAME>  (4179) 
METHYL (4-AMINOBENZENESULFONYL)CARBAMATE

>  <SYNONYMS>  (4179) 
ASULAM

>  <SPECTRUM TYPE>  (4179) 
MS1

>  <INSTRUMENT TYPE>  (4179) 
EI-B

>  <INSTRUMENT>  (4179) 
HITACHI M-80

>  <ION MODE>  (4179) 
P

>  <INCHIKEY>  (4179) 
VGPYEHKOIGNJKV-UHFFFAOYSA-N

>  <FORMULA>  (4179) 
C8H10N2O4S

>  <EXACT MASS>  (4179) 
230.0361278

>  <MW>  (4179) 
230

>  <ID>  (4179) 
JP006290

>  <CONTRIBUTOR>  (4179) 
University of Tokyo Team, {Faculty of Engineering, University of Tokyo

>  <COMMENT>  (4179) 
SMILES=COC(=O)NS(=O)(=O)c(c1)ccc(N)c1
InChI=InChI=1S/C8H10N2O4S/c1-14-8(11)10-15(12,13)7-4-2-6(9)3-5-7/h2-5H,9H2,1H3,(H,10,11)
computed SMILES=O=S(=O)(N=C(O)OC)C1=CC=C(N)C=C1
accession=JP006290
date=2016.01.19 (Created 2008.10.21, modified 2011.05.06)
author=MASS SPECTROSCOPY SOC. OF JAPAN (MSSJ)
license=CC BY-NC-SA
exact mass=230.03613
ionization energy=70 eV
ion type=[M]+*
computed spectral entropy=3.227243482295167
computed normalized entropy=0.7731059131885123
SPLASH=splash10-0a5c-9500000000-5c27b1b83dc177d76639
submitter=submitter = University of Tokyo Team (Faculty of Engineering, University of Tokyo)
MoNA Rating=3.75

>  <NUM PEAKS>  (4179) 
65

>  <MASS SPECTRAL PEAKS>  (4179) 
14 1.15
15 20.61
27 1.23
28 5.53
29 25.31
30 4.12
31 38.41
32 68.42
33 4.65
38 2.12
39 17.98
40 1.3
41 5.47
42 2.52
43 1.04
44 1.97
48 1.3
50 1.06
51 1.77
52 6.02
53 4.61
54 2.97
58 2.5
59 4.79
62 1.09
63 7.52
64 8.48
65 67.65
66 9.62
67 0.97
78 1.2
79 2.44
80 10.15
81 1.15
90 3.55
91 7.32
92 99.99
93 8.4
94 0.65
105 1.32
106 1.99
107 7.57
108 55.35
109 67.26
110 4.79
123 2.02
124 0.8
134 4.03
135 0.68
140 6.02
141 0.57
156 63.93
157 5.11
158 3.27
166 11.98
167 1.33
172 1.52
173 4.08
187 0.75
198 18.19
199 2.06
200 1
230 33.98
231 4.35
232 2.05

$$$$

     RDKit          2D

 17 18  0  0  0  0  0  0  0  0999 V2000
   -3.7326    1.3580    0.0000 C   0  0  0  0  0  0  0  0  0  0  0  0
    5.3257    4.6950    0.0000 C   0  0  0  0  0  0  0  0  0  0  0  0
    6.6244    2.4442    0.0000 C   0  0  0  0  0  0  0  0  0  0  0  0
    4.0253    3.9458    0.0000 C   0  0  0  0  0  0  0  0  0  0  0  0
    5.3239    1.6950    0.0000 C   0  0  0  0  0  0  0  0  0  0  0  0
   -1.2434    2.3076    0.0000 C   0  0  0  0  0  0  0  0  0  0  0  0
   -2.2412    1.1974    0.0000 C   0  0  0  0  0  0  0  0  0  0  0  0
    6.6253    3.9442    0.0000 C   0  0  0  0  0  0  0  0  0  0  0  0
    4.0244    2.4458    0.0000 C   0  0  0  0  0  0  0  0  0  0  0  0
    0.1269    1.6975    0.0000 C   0  0  0  0  0  0  0  0  0  0  0  0
    7.9247    4.6936    0.0000 N   0  0  0  0  0  0  0  0  0  0  0  0
   -0.0304    0.2131    0.0000 N   0  0  0  0  0  0  0  0  0  0  0  0
    1.4263    2.4469    0.0000 N   0  0  0  0  0  0  0  0  0  0  0  0
    1.7603    0.5477    0.0000 O   0  0  0  0  0  0  0  0  0  0  0  0
    3.6887    0.5468    0.0000 O   0  0  0  0  0  0  0  0  0  0  0  0
   -1.4978   -0.1078    0.0000 O   0  0  0  0  0  0  0  0  0  0  0  0
    2.7250    1.6963    0.0000 S   0  0  0  0  0  0  0  0  0  0  0  0
  4  2  2  0
  5  3  1  0
  7  1  1  0
  7  6  2  0
  8  2  1  0
  8  3  2  0
  9  4  1  0
  9  5  2  0
 10  6  1  0
 11  8  1  0
 12 10  2  0
 13 10  1  0
 16  7  1  0
 16 12  1  0
 17  9  1  0
 17 13  1  0
 17 14  2  0
 17 15  2  0
M  END
>  <NAME>  (4180) 
SULFOMETHOXAZOLE

>  <SYNONYMS>  (4180) 
4-AMINO-N'-(5-METHYL-3-ISOXAZOLYL)-BENZENESULFONAMIDE

>  <SPECTRUM TYPE>  (4180) 
MS1

>  <INSTRUMENT TYPE>  (4180) 
EI-B

>  <INSTRUMENT>  (4180) 
HITACHI M-80

>  <ION MODE>  (4180) 
P

>  <INCHIKEY>  (4180) 
JLKIGFTWXXRPMT-UHFFFAOYSA-N

>  <FORMULA>  (4180) 
C10H11N3O3S

>  <EXACT MASS>  (4180) 
253.05211221199997

>  <MW>  (4180) 
253

>  <ID>  (4180) 
JP006289

>  <CONTRIBUTOR>  (4180) 
University of Tokyo Team, {Faculty of Engineering, University of Tokyo

>  <COMMENT>  (4180) 
SMILES=Nc(c2)ccc(c2)S(=O)(=O)Nc(n1)cc(C)o1
InChI=InChI=1S/C10H11N3O3S/c1-7-6-10(12-16-7)13-17(14,15)9-4-2-8(11)3-5-9/h2-6H,11H2,1H3,(H,12,13)
computed SMILES=O=S(=O)(NC1=NOC(=C1)C)C2=CC=C(N)C=C2
computed normalized entropy=0.770047610949711
accession=JP006289
date=2016.01.19 (Created 2008.10.21, modified 2011.05.06)
author=MASS SPECTROSCOPY SOC. OF JAPAN (MSSJ)
license=CC BY-NC-SA
exact mass=253.05211
ionization energy=70 eV
ion type=[M]+*
computed spectral entropy=3.1780899732723773
SPLASH=splash10-05mo-8900000000-8a6ba1e89f89f5cb1e3c
submitter=submitter = University of Tokyo Team (Faculty of Engineering, University of Tokyo)
MoNA Rating=3.75

>  <NUM PEAKS>  (4180) 
62

>  <MASS SPECTRAL PEAKS>  (4180) 
15 0.99
27 1.37
28 5.75
30 0.9
39 10.65
40 1.65
41 5.59
42 2.53
43 10.97
52 3.9
53 2.43
54 2.02
55 1.75
63 2.4
64 4.72
65 48.36
66 8.39
67 5.12
68 2.04
69 1.49
78 0.87
79 3.03
80 6.1
81 0.62
83 0.91
90 1.36
91 5.88
92 99.99
93 10.18
97 0.91
98 1.1
105 1.96
106 8.74
107 5.21
108 54.39
109 4.38
118 3.46
119 33.35
120 3.09
123 0.79
124 0.68
140 9.59
141 0.85
142 0.52
145 0.63
146 2.41
147 2.82
156 49.74
157 5.13
158 2.68
160 1.53
162 35.32
163 3.85
174 19.25
175 2.1
188 4.75
189 11.39
190 1.39
191 0.55
253 11.69
254 2.81
255 1.96

$$$$

     RDKit          2D

  6  5  0  0  0  0  0  0  0  0999 V2000
   -1.2990    0.7500    0.0000 C   0  0  0  0  0  0  0  0  0  0  0  0
    1.2990    2.2500    0.0000 C   0  0  0  0  0  0  0  0  0  0  0  0
   -3.8971    2.2500    0.0000 C   0  0  0  0  0  0  0  0  0  0  0  0
   -1.2990    2.2500    0.0000 C   0  0  0  0  0  0  0  0  0  0  0  0
    0.0000    3.0000    0.0000 O   0  0  0  0  0  0  0  0  0  0  0  0
   -2.5981    3.0000    0.0000 O   0  0  0  0  0  0  0  0  0  0  0  0
  4  1  1  0
  5  2  1  0
  5  4  1  0
  6  3  1  0
  6  4  1  0
M  END
>  <NAME>  (4181) 
ACETALDEHYDE DIMETHYL ACETAL

>  <SYNONYMS>  (4181) 
1,1-DIMETHOXYETHANE

>  <SPECTRUM TYPE>  (4181) 
MS1

>  <INSTRUMENT TYPE>  (4181) 
EI-B

>  <INSTRUMENT>  (4181) 
HITACHI M-80

>  <ION MODE>  (4181) 
P

>  <INCHIKEY>  (4181) 
SPEUIVXLLWOEMJ-UHFFFAOYSA-N

>  <FORMULA>  (4181) 
C4H10O2

>  <EXACT MASS>  (4181) 
90.06807956

>  <MW>  (4181) 
90

>  <ID>  (4181) 
JP006287

>  <CONTRIBUTOR>  (4181) 
University of Tokyo Team, {Faculty of Engineering, University of Tokyo

>  <COMMENT>  (4181) 
SMILES=COC(C)OC
cas=534-15-6
InChI=InChI=1S/C4H10O2/c1-4(5-2)6-3/h4H,1-3H3
computed SMILES=O(C)C(OC)C
accession=JP006287
date=2016.01.19 (Created 2008.10.21, modified 2011.05.06)
author=MASS SPECTROSCOPY SOC. OF JAPAN (MSSJ)
license=CC BY-NC-SA
exact mass=90.06808
ionization energy=70 eV
ion type=[M]+*
computed spectral entropy=2.39357533670512
computed normalized entropy=0.7436059875975883
SPLASH=splash10-00pi-9000000000-f08d7649704a8ec91f92
submitter=submitter = University of Tokyo Team (Faculty of Engineering, University of Tokyo)
MoNA Rating=3.75

>  <NUM PEAKS>  (4181) 
25

>  <MASS SPECTRAL PEAKS>  (4181) 
14 36.49
15 88.95
16 7.28
17 0.69
18 0.87
25 0.78
26 20.12
28 11.81
29 99.99
30 57.74
31 57
32 1.02
33 1.36
39 1.35
41 3.14
42 11.28
43 38.68
44 1.6
45 2.62
47 6.8
58 1.26
59 30.17
60 2.15
75 8.03
89 0.31

$$$$

     RDKit          2D

 11 11  0  0  0  0  0  0  0  0999 V2000
   -4.8712    2.0071    0.0000 C   0  0  0  0  0  0  0  0  0  0  0  0
   -3.5721    2.7571    0.0000 C   0  0  0  0  0  0  0  0  0  0  0  0
    2.9231    0.5071    0.0000 C   0  0  0  0  0  0  0  0  0  0  0  0
    2.9236    2.0079    0.0000 C   0  0  0  0  0  0  0  0  0  0  0  0
    1.6236   -0.2437    0.0000 C   0  0  0  0  0  0  0  0  0  0  0  0
   -2.2731    2.0071    0.0000 C   0  0  0  0  0  0  0  0  0  0  0  0
    1.6245    2.7579    0.0000 C   0  0  0  0  0  0  0  0  0  0  0  0
    0.3245    0.5063    0.0000 C   0  0  0  0  0  0  0  0  0  0  0  0
    0.3250    2.0071    0.0000 C   0  0  0  0  0  0  0  0  0  0  0  0
   -0.9740    2.7571    0.0000 C   0  0  0  0  0  0  0  0  0  0  0  0
   -0.9740    4.2571    0.0000 O   0  0  0  0  0  0  0  0  0  0  0  0
  2  1  1  0
  4  3  2  0
  5  3  1  0
  6  2  1  0
  7  4  1  0
  8  5  2  0
  9  7  2  0
  9  8  1  0
 10  6  1  0
 10  9  1  0
 11 10  2  0
M  END
>  <NAME>  (4182) 
BUTYROPHENONE

>  <SYNONYMS>  (4182) 
PHENYL N-PROPYL KETONE

>  <SPECTRUM TYPE>  (4182) 
MS1

>  <INSTRUMENT TYPE>  (4182) 
EI-B

>  <INSTRUMENT>  (4182) 
HITACHI M-80

>  <ION MODE>  (4182) 
P

>  <INCHIKEY>  (4182) 
FFSAXUULYPJSKH-UHFFFAOYSA-N

>  <FORMULA>  (4182) 
C10H12O

>  <EXACT MASS>  (4182) 
148.088815004

>  <MW>  (4182) 
148

>  <ID>  (4182) 
JP006285

>  <CONTRIBUTOR>  (4182) 
University of Tokyo Team, {Faculty of Engineering, University of Tokyo

>  <COMMENT>  (4182) 
SMILES=CCCC(=O)c(c1)cccc1
cas=495-40-9
InChI=InChI=1S/C10H12O/c1-2-6-10(11)9-7-4-3-5-8-9/h3-5,7-8H,2,6H2,1H3
computed SMILES=O=C(C=1C=CC=CC1)CCC
accession=JP006285
date=2016.01.19 (Created 2008.10.21, modified 2011.05.06)
author=MASS SPECTROSCOPY SOC. OF JAPAN (MSSJ)
license=CC BY-NC-SA
exact mass=148.08882
ionization energy=70 eV
ion type=[M]+*
computed spectral entropy=2.714748527872212
computed normalized entropy=0.7463049419773501
SPLASH=splash10-056r-9200000000-e67f83bdab2e9a323760
submitter=submitter = University of Tokyo Team (Faculty of Engineering, University of Tokyo)
MoNA Rating=3.75

>  <NUM PEAKS>  (4182) 
38

>  <MASS SPECTRAL PEAKS>  (4182) 
28 18.71
29 13.81
30 0.63
32 1.73
38 4.78
39 27.35
40 6.34
41 27.48
42 16.85
44 0.84
45 0.82
50 19.55
51 44.95
52 4.78
53 1.72
55 3.88
62 1.96
64 4.08
66 0.62
69 1.3
71 1.33
74 8.69
75 6.2
76 7.52
77 99.99
78 12.97
79 1.61
89 2.08
91 8.16
92 0.71
102 0.8
103 0.61
104 0.67
105 79.14
106 7.14
115 0.87
120 3.73
148 2.75

$$$$

     RDKit          2D

  9  9  0  0  0  0  0  0  0  0999 V2000
    0.0000    2.3300    0.0000 C   0  0  0  0  0  0  0  0  0  0  0  0
    0.0000   -2.1700    0.0000 C   0  0  0  0  0  0  0  0  0  0  0  0
    1.3000   -1.4200    0.0000 C   0  0  0  0  0  0  0  0  0  0  0  0
   -1.3000   -1.4200    0.0000 C   0  0  0  0  0  0  0  0  0  0  0  0
    0.0000    0.8300    0.0000 C   0  0  0  0  0  0  0  0  0  0  0  0
    1.3000    0.0800    0.0000 C   0  0  0  0  0  0  0  0  0  0  0  0
   -1.3000    0.0800    0.0000 C   0  0  0  0  0  0  0  0  0  0  0  0
    2.5989    0.8302    0.0000 Cl  0  0  0  0  0  0  0  0  0  0  0  0
   -2.5989    0.8302    0.0000 Cl  0  0  0  0  0  0  0  0  0  0  0  0
  3  2  2  0
  4  2  1  0
  5  1  1  0
  6  3  1  0
  6  5  2  0
  7  4  2  0
  7  5  1  0
  8  6  1  0
  9  7  1  0
M  END
>  <NAME>  (4183) 
2,6-DICHLOROTOLUENE

>  <SYNONYMS>  (4183) 


>  <SPECTRUM TYPE>  (4183) 
MS1

>  <INSTRUMENT TYPE>  (4183) 
EI-B

>  <INSTRUMENT>  (4183) 
HITACHI M-80

>  <ION MODE>  (4183) 
P

>  <INCHIKEY>  (4183) 
DMEDNTFWIHCBRK-UHFFFAOYSA-N

>  <FORMULA>  (4183) 
C7H6Cl2

>  <EXACT MASS>  (4183) 
159.984655552

>  <MW>  (4183) 
160

>  <ID>  (4183) 
JP006284

>  <CONTRIBUTOR>  (4183) 
University of Tokyo Team, {Faculty of Engineering, University of Tokyo

>  <COMMENT>  (4183) 
SMILES=Cc(c(Cl)1)c(Cl)ccc1
cas=118-69-4
InChI=InChI=1S/C7H6Cl2/c1-5-6(8)3-2-4-7(5)9/h2-4H,1H3
computed SMILES=ClC1=CC=CC(Cl)=C1C
accession=JP006284
date=2016.01.19 (Created 2008.10.21, modified 2011.05.06)
author=MASS SPECTROSCOPY SOC. OF JAPAN (MSSJ)
license=CC BY-NC-SA
exact mass=159.98466
ionization energy=70 eV
ion type=[M]+*
computed spectral entropy=3.3670633549053246
computed normalized entropy=0.8007870395513076
SPLASH=splash10-03fr-8900000000-17059a3df3d916b83d85
submitter=submitter = University of Tokyo Team (Faculty of Engineering, University of Tokyo)
MoNA Rating=3.75

>  <NUM PEAKS>  (4183) 
67

>  <MASS SPECTRAL PEAKS>  (4183) 
13 0.5
14 1.41
15 4.17
26 4.02
27 3.56
28 1.36
29 7.21
30 0.89
31 10.48
32 7.16
35 2.63
36 2.78
37 6.91
38 7.33
39 12.31
40 0.76
43 3.25
44 5.13
45 0.75
47 1.62
48 0.92
49 4.6
50 10.82
51 8.75
52 0.89
60 3.31
61 9.83
62 21.07
63 34.05
64 4.33
65 1.5
72 2.24
73 12.35
74 5.83
75 6.69
76 0.6
84 2.89
85 4.9
86 6.37
87 7.52
88 2.42
89 56.05
90 8.89
91 1.5
96 0.98
97 6.03
98 0.83
99 9.94
100 0.62
101 2.75
109 1
110 0.47
111 0.44
123 6.91
124 14.57
125 99.99
126 14.98
127 44.93
128 3.61
133 1.57
159 9.67
160 73.06
161 12.14
162 47.67
163 4.67
164 7.75
165 0.59

$$$$

     RDKit          2D

 12 13  0  0  0  0  0  0  0  0999 V2000
   -2.7200   -1.0200    0.0000 C   0  0  0  0  0  0  0  0  0  0  0  0
   -2.7200    0.4800    0.0000 C   0  0  0  0  0  0  0  0  0  0  0  0
    2.4800   -1.0200    0.0000 C   0  0  0  0  0  0  0  0  0  0  0  0
   -1.4200   -1.7700    0.0000 C   0  0  0  0  0  0  0  0  0  0  0  0
    1.1800   -1.7700    0.0000 C   0  0  0  0  0  0  0  0  0  0  0  0
    2.4800    0.4800    0.0000 C   0  0  0  0  0  0  0  0  0  0  0  0
   -1.4200    1.2300    0.0000 C   0  0  0  0  0  0  0  0  0  0  0  0
    1.1800    2.7300    0.0000 C   0  0  0  0  0  0  0  0  0  0  0  0
   -0.1200   -1.0200    0.0000 C   0  0  0  0  0  0  0  0  0  0  0  0
    1.1800    1.2300    0.0000 C   0  0  0  0  0  0  0  0  0  0  0  0
   -0.1200    0.4800    0.0000 C   0  0  0  0  0  0  0  0  0  0  0  0
    2.4790    3.4800    0.0000 Cl  0  0  0  0  0  0  0  0  0  0  0  0
  2  1  2  0
  4  1  1  0
  5  3  2  0
  6  3  1  0
  7  2  1  0
  9  4  2  0
  9  5  1  0
 10  6  2  0
 10  8  1  0
 11  7  2  0
 11  9  1  0
 11 10  1  0
 12  8  1  0
M  END
>  <NAME>  (4184) 
1-(CHLOROMETHYL)NAPHTHALENE

>  <SYNONYMS>  (4184) 


>  <SPECTRUM TYPE>  (4184) 
MS1

>  <INSTRUMENT TYPE>  (4184) 
EI-B

>  <INSTRUMENT>  (4184) 
HITACHI M-80

>  <ION MODE>  (4184) 
P

>  <INCHIKEY>  (4184) 
XMWGTKZEDLCVIG-UHFFFAOYSA-N

>  <FORMULA>  (4184) 
C11H9Cl

>  <EXACT MASS>  (4184) 
176.039277968

>  <MW>  (4184) 
176

>  <ID>  (4184) 
JP006283

>  <CONTRIBUTOR>  (4184) 
University of Tokyo Team, {Faculty of Engineering, University of Tokyo

>  <COMMENT>  (4184) 
SMILES=ClCc(c1)c(c2)c(ccc2)cc1
cas=86-52-2
InChI=InChI=1S/C11H9Cl/c12-8-10-6-3-5-9-4-1-2-7-11(9)10/h1-7H,8H2
computed SMILES=ClCC1=CC=CC=2C=CC=CC21
accession=JP006283
date=2016.01.19 (Created 2008.10.21, modified 2011.05.06)
author=MASS SPECTROSCOPY SOC. OF JAPAN (MSSJ)
license=CC BY-NC-SA
exact mass=176.03928
ionization energy=70 eV
ion type=[M]+*
computed spectral entropy=2.7744580909360383
computed normalized entropy=0.6988045592984621
SPLASH=splash10-0006-2900000000-f3e776903abb3ddf0a8f
submitter=submitter = University of Tokyo Team (Faculty of Engineering, University of Tokyo)
MoNA Rating=3.75

>  <NUM PEAKS>  (4184) 
53

>  <MASS SPECTRAL PEAKS>  (4184) 
28 1.28
29 2.41
31 3.23
32 2.36
35 0.65
36 0.43
37 0.67
38 1.81
39 4.5
50 3.23
51 3.41
52 0.74
57 2.65
61 1.03
62 4.17
63 7.47
64 0.91
65 1.26
69 2.12
70 2.98
74 3.4
75 2.49
76 1.39
77 0.76
85 0.65
86 2.09
87 3.07
88 2.19
89 3.76
91 0.98
98 0.86
99 0.62
102 1.14
113 3.11
114 1.9
115 25.49
116 2.43
126 0.83
127 0.51
128 0.73
137 0.61
138 0.95
139 17.17
140 4.4
141 99.99
142 13.27
143 0.79
149 0.91
175 0.96
176 23.96
177 3.23
178 7.69
179 0.91

$$$$

     RDKit          2D

 10 10  0  0  0  0  0  0  0  0999 V2000
   -0.9743   -0.6175    0.0000 C   0  0  0  0  0  0  0  0  0  0  0  0
    2.9228    3.1325    0.0000 C   0  0  0  0  0  0  0  0  0  0  0  0
    1.6233    3.8833    0.0000 C   0  0  0  0  0  0  0  0  0  0  0  0
    2.9233    1.6317    0.0000 C   0  0  0  0  0  0  0  0  0  0  0  0
    0.3243    3.1333    0.0000 C   0  0  0  0  0  0  0  0  0  0  0  0
    1.6243    0.8817    0.0000 C   0  0  0  0  0  0  0  0  0  0  0  0
   -2.2733    1.6325    0.0000 C   0  0  0  0  0  0  0  0  0  0  0  0
   -0.9743    0.8825    0.0000 C   0  0  0  0  0  0  0  0  0  0  0  0
    0.3248    1.6325    0.0000 C   0  0  0  0  0  0  0  0  0  0  0  0
   -3.5724    0.8825    0.0000 O   0  0  0  0  0  0  0  0  0  0  0  0
  3  2  2  0
  4  2  1  0
  5  3  1  0
  6  4  2  0
  8  1  1  0
  8  7  1  0
  9  5  2  0
  9  6  1  0
  9  8  1  0
 10  7  2  0
M  END
>  <NAME>  (4185) 
DL-2-PHENYLPROPIONALDEHYDE

>  <SYNONYMS>  (4185) 


>  <SPECTRUM TYPE>  (4185) 
MS1

>  <INSTRUMENT TYPE>  (4185) 
EI-B

>  <INSTRUMENT>  (4185) 
HITACHI M-80

>  <ION MODE>  (4185) 
P

>  <INCHIKEY>  (4185) 
IQVAERDLDAZARL-UHFFFAOYSA-N

>  <FORMULA>  (4185) 
C9H10O

>  <EXACT MASS>  (4185) 
134.07316494

>  <MW>  (4185) 
134

>  <ID>  (4185) 
JP006282

>  <CONTRIBUTOR>  (4185) 
University of Tokyo Team, {Faculty of Engineering, University of Tokyo

>  <COMMENT>  (4185) 
SMILES=O=CC(C)c(c1)cccc1
cas=34713-70-7
InChI=InChI=1S/C9H10O/c1-8(7-10)9-5-3-2-4-6-9/h2-8H,1H3
computed SMILES=O=CC(C=1C=CC=CC1)C
accession=JP006282
date=2016.01.19 (Created 2008.10.21, modified 2011.05.06)
author=MASS SPECTROSCOPY SOC. OF JAPAN (MSSJ)
license=CC BY-NC-SA
exact mass=134.07316
ionization energy=70 eV
ion type=[M]+*
computed spectral entropy=2.967948911696141
computed normalized entropy=0.7796721983290976
SPLASH=splash10-0a6r-9600000000-85890c61593be7948030
submitter=submitter = University of Tokyo Team (Faculty of Engineering, University of Tokyo)
MoNA Rating=3.75

>  <NUM PEAKS>  (4185) 
45

>  <MASS SPECTRAL PEAKS>  (4185) 
14 2.29
15 5.32
29 35.54
30 1.23
31 10.94
32 9.72
37 0.92
38 3.07
39 12.23
40 1.07
41 1.14
43 1.33
50 9.87
51 20.16
52 3.86
53 2.39
61 1.12
62 3.05
63 8.39
64 1.52
65 4.37
66 0.51
73 0.64
74 4.1
75 3.04
76 2.74
77 29.39
78 11.26
79 20.68
80 1.28
89 3.05
90 1.23
91 12.78
92 1.11
101 0.56
102 3.36
103 20.49
104 9.88
105 99.99
106 10.42
107 0.8
132 2.27
133 0.27
134 14.62
135 1.46

$$$$

     RDKit          2D

  9  9  0  0  0  0  0  0  0  0999 V2000
    3.8981   -0.7504    0.0000 C   0  0  0  0  0  0  0  0  0  0  0  0
    2.5987   -3.0002    0.0000 C   0  0  0  0  0  0  0  0  0  0  0  0
   -0.0000    1.5000    0.0000 C   0  0  0  0  0  0  0  0  0  0  0  0
   -1.3000    0.7500    0.0000 C   0  0  0  0  0  0  0  0  0  0  0  0
    1.3000    0.7500    0.0000 C   0  0  0  0  0  0  0  0  0  0  0  0
   -1.3000   -0.7500    0.0000 C   0  0  0  0  0  0  0  0  0  0  0  0
    1.3000   -0.7500    0.0000 C   0  0  0  0  0  0  0  0  0  0  0  0
   -0.0000   -1.5000    0.0000 N   0  0  0  0  0  0  0  0  0  0  0  0
    2.5989   -1.5002    0.0000 N   0  0  0  0  0  0  0  0  0  0  0  0
  4  3  2  0
  5  3  1  0
  6  4  1  0
  7  5  2  0
  8  6  2  0
  8  7  1  0
  9  1  1  0
  9  2  1  0
  9  7  1  0
M  END
>  <NAME>  (4186) 
2-DIMETHYLAMINOPYRIDINE

>  <SYNONYMS>  (4186) 


>  <SPECTRUM TYPE>  (4186) 
MS1

>  <INSTRUMENT TYPE>  (4186) 
EI-B

>  <INSTRUMENT>  (4186) 
HITACHI M-80

>  <ION MODE>  (4186) 
P

>  <INCHIKEY>  (4186) 
PSHKMPUSSFXUIA-UHFFFAOYSA-N

>  <FORMULA>  (4186) 
C7H10N2

>  <EXACT MASS>  (4186) 
122.08439831999999

>  <MW>  (4186) 
122

>  <ID>  (4186) 
JP006281

>  <CONTRIBUTOR>  (4186) 
University of Tokyo Team, {Faculty of Engineering, University of Tokyo

>  <COMMENT>  (4186) 
SMILES=CN(C)c(c1)nccc1
cas=5683-33-0
InChI=InChI=1S/C7H10N2/c1-9(2)7-5-3-4-6-8-7/h3-6H,1-2H3
computed SMILES=N=1C=CC=CC1N(C)C
accession=JP006281
date=2016.01.19 (Created 2008.10.21, modified 2011.05.06)
author=MASS SPECTROSCOPY SOC. OF JAPAN (MSSJ)
license=CC BY-NC-SA
exact mass=122.0844
ionization energy=70 eV
ion type=[M]+*
computed spectral entropy=3.106740423638892
computed normalized entropy=0.7982743769405618
SPLASH=splash10-00mo-9100000000-fe4ecba803adb634dabd
submitter=submitter = University of Tokyo Team (Faculty of Engineering, University of Tokyo)
MoNA Rating=3.75

>  <NUM PEAKS>  (4186) 
49

>  <MASS SPECTRAL PEAKS>  (4186) 
13 1.1
14 10.33
15 99.99
16 1.57
26 7.72
27 10.22
28 39.65
29 4.7
30 0.85
37 3.03
38 6.55
39 14.38
40 11.09
41 13.64
42 70.46
43 7.71
44 7.26
49 2.95
50 13.12
51 22.72
52 21.58
53 9
54 1.65
55 0.78
63 1.1
64 2.55
65 1.69
66 1.9
67 1.03
68 0.99
69 1.47
75 2.65
76 4.88
77 1.72
78 33.58
79 31.41
80 7.14
81 0.62
92 2.6
93 39.9
94 4.58
95 0.5
105 1.39
106 0.57
107 49.23
108 4.14
121 5.32
122 25.38
123 3.25

$$$$

     RDKit          2D

 12 14  0  0  0  0  0  0  0  0999 V2000
   -2.6000   -1.2500    0.0000 C   0  0  0  0  0  0  0  0  0  0  0  0
    2.6000   -1.2500    0.0000 C   0  0  0  0  0  0  0  0  0  0  0  0
   -1.3000   -2.0000    0.0000 C   0  0  0  0  0  0  0  0  0  0  0  0
    1.3000   -2.0000    0.0000 C   0  0  0  0  0  0  0  0  0  0  0  0
   -2.6000    0.2500    0.0000 C   0  0  0  0  0  0  0  0  0  0  0  0
    2.6000    0.2500    0.0000 C   0  0  0  0  0  0  0  0  0  0  0  0
   -1.3000    2.5000    0.0000 C   0  0  0  0  0  0  0  0  0  0  0  0
    1.3000    2.5000    0.0000 C   0  0  0  0  0  0  0  0  0  0  0  0
    0.0000   -1.2500    0.0000 C   0  0  0  0  0  0  0  0  0  0  0  0
   -1.3000    1.0000    0.0000 C   0  0  0  0  0  0  0  0  0  0  0  0
    1.3000    1.0000    0.0000 C   0  0  0  0  0  0  0  0  0  0  0  0
    0.0000    0.2500    0.0000 C   0  0  0  0  0  0  0  0  0  0  0  0
  3  1  2  0
  4  2  1  0
  5  1  1  0
  6  2  2  0
  8  7  1  0
  9  3  1  0
  9  4  2  0
 10  5  2  0
 10  7  1  0
 11  6  1  0
 11  8  1  0
 12  9  1  0
 12 10  1  0
 12 11  2  0
M  END
>  <NAME>  (4187) 
ACENAPHTHENE

>  <SYNONYMS>  (4187) 


>  <SPECTRUM TYPE>  (4187) 
MS1

>  <INSTRUMENT TYPE>  (4187) 
EI-B

>  <INSTRUMENT>  (4187) 
HITACHI M-80

>  <ION MODE>  (4187) 
P

>  <INCHIKEY>  (4187) 
CWRYPZZKDGJXCA-UHFFFAOYSA-N

>  <FORMULA>  (4187) 
C12H10

>  <EXACT MASS>  (4187) 
154.07825032

>  <MW>  (4187) 
154

>  <ID>  (4187) 
JP006280

>  <CONTRIBUTOR>  (4187) 
University of Tokyo Team, {Faculty of Engineering, University of Tokyo

>  <COMMENT>  (4187) 
SMILES=c(c3)cc(C1)c(c32)c(ccc2)C1
cas=83-32-9
InChI=InChI=1S/C12H10/c1-3-9-4-2-6-11-8-7-10(5-1)12(9)11/h1-6H,7-8H2
computed SMILES=C=1C=C2C=CC=C3C2=C(C1)CC3
accession=JP006280
date=2016.01.19 (Created 2008.10.21, modified 2011.05.06)
author=MASS SPECTROSCOPY SOC. OF JAPAN (MSSJ)
license=CC BY-NC-SA
exact mass=154.07825
ionization energy=70 eV
ion type=[M]+*
computed spectral entropy=3.3521226258615293
computed normalized entropy=0.825555885689042
SPLASH=splash10-0w2i-9200000000-50dd4c10ddaf643da72f
submitter=submitter = University of Tokyo Team (Faculty of Engineering, University of Tokyo)
MoNA Rating=3.75

>  <NUM PEAKS>  (4187) 
58

>  <MASS SPECTRAL PEAKS>  (4187) 
26 34.48
27 67.61
28 3.98
29 1.02
37 7.3
38 38.76
39 99.99
40 6.07
41 1.81
49 1.97
50 59.77
51 51.89
52 12.14
53 1.49
61 10.88
62 42.02
63 74.64
64 9.81
65 4.59
73 2.41
74 36.62
75 32.2
76 16.39
77 9.84
78 3.45
85 4.47
86 18.85
87 29.47
88 7.48
89 9.48
90 0.97
97 0.88
98 11.53
99 6.74
100 3.17
101 2.89
102 10.92
103 1.21
109 0.94
111 2.87
112 1.11
113 7.47
114 1.76
115 7.92
122 1.07
124 0.68
125 0.72
126 7.09
127 4.07
128 2.84
139 1.19
150 5.11
151 9.07
152 22.69
153 45.91
154 59.16
155 8.62
156 0.71

$$$$

     RDKit          2D

 10 10  0  0  0  0  0  0  0  0999 V2000
    2.0490    0.5210    0.0000 C   0  0  0  0  0  0  0  0  0  0  0  0
    2.5981    2.5700    0.0000 C   0  0  0  0  0  0  0  0  0  0  0  0
    0.5490    3.1190    0.0000 C   0  0  0  0  0  0  0  0  0  0  0  0
   -2.5981   -0.4300    0.0000 C   0  0  0  0  0  0  0  0  0  0  0  0
   -1.2986   -1.1808    0.0000 C   0  0  0  0  0  0  0  0  0  0  0  0
   -2.5986    1.0708    0.0000 C   0  0  0  0  0  0  0  0  0  0  0  0
    0.0005   -0.4308    0.0000 C   0  0  0  0  0  0  0  0  0  0  0  0
   -1.2995    1.8208    0.0000 C   0  0  0  0  0  0  0  0  0  0  0  0
    0.0000    1.0700    0.0000 C   0  0  0  0  0  0  0  0  0  0  0  0
    1.2990    1.8200    0.0000 C   0  0  0  0  0  0  0  0  0  0  0  0
  5  4  2  0
  6  4  1  0
  7  5  1  0
  8  6  2  0
  9  7  2  0
  9  8  1  0
 10  1  1  0
 10  2  1  0
 10  3  1  0
 10  9  1  0
M  END
>  <NAME>  (4188) 
TERT-BUTYLBENZENE

>  <SYNONYMS>  (4188) 


>  <SPECTRUM TYPE>  (4188) 
MS1

>  <INSTRUMENT TYPE>  (4188) 
EI-B

>  <INSTRUMENT>  (4188) 
HITACHI M-80

>  <ION MODE>  (4188) 
P

>  <INCHIKEY>  (4188) 
YTZKOQUCBOVLHL-UHFFFAOYSA-N

>  <FORMULA>  (4188) 
C10H14

>  <EXACT MASS>  (4188) 
134.109550448

>  <MW>  (4188) 
134

>  <ID>  (4188) 
JP006277

>  <CONTRIBUTOR>  (4188) 
University of Tokyo Team, {Faculty of Engineering, University of Tokyo

>  <COMMENT>  (4188) 
SMILES=CC(C)(C)c(c1)cccc1
cas=98-06-6
InChI=InChI=1S/C10H14/c1-10(2,3)9-7-5-4-6-8-9/h4-8H,1-3H3
computed SMILES=C=1C=CC(=CC1)C(C)(C)C
accession=JP006277
date=2016.01.19 (Created 2008.10.21, modified 2011.05.06)
author=MASS SPECTROSCOPY SOC. OF JAPAN (MSSJ)
license=CC BY-NC-SA
exact mass=134.10955
ionization energy=70 eV
ion type=[M]+*
computed spectral entropy=2.5342636807583494
computed normalized entropy=0.6780330900199474
SPLASH=splash10-014l-7900000000-96b15ff8f1fc94e8358c
submitter=submitter = University of Tokyo Team (Faculty of Engineering, University of Tokyo)
MoNA Rating=3.75

>  <NUM PEAKS>  (4188) 
42

>  <MASS SPECTRAL PEAKS>  (4188) 
15 2.27
27 2.96
28 1.61
29 1.71
39 7.23
40 0.61
41 12.58
42 0.49
50 2.41
51 6.53
52 1.57
53 1.05
57 1.04
58 1.11
63 2.63
64 0.6
65 3.61
66 0.41
74 0.95
75 1
76 1.17
77 9.25
78 4.62
79 7.77
80 0.5
89 1.22
90 0.33
91 50.13
92 3.99
102 1.75
103 6.37
104 1.82
105 1.23
115 3.52
116 0.87
117 2.87
118 1.56
119 99.99
120 10.15
121 0.46
134 31.59
135 3.4

$$$$

     RDKit          2D

 11 11  0  0  0  0  0  0  0  0999 V2000
    2.9231    0.5071    0.0000 C   0  0  0  0  0  0  0  0  0  0  0  0
    2.9236    2.0079    0.0000 C   0  0  0  0  0  0  0  0  0  0  0  0
    1.6236   -0.2437    0.0000 C   0  0  0  0  0  0  0  0  0  0  0  0
    1.6245    2.7579    0.0000 C   0  0  0  0  0  0  0  0  0  0  0  0
    0.3245    0.5063    0.0000 C   0  0  0  0  0  0  0  0  0  0  0  0
   -0.9740    2.7571    0.0000 C   0  0  0  0  0  0  0  0  0  0  0  0
   -2.2731    2.0071    0.0000 C   0  0  0  0  0  0  0  0  0  0  0  0
    0.3250    2.0071    0.0000 C   0  0  0  0  0  0  0  0  0  0  0  0
   -3.5721    2.7571    0.0000 C   0  0  0  0  0  0  0  0  0  0  0  0
   -3.5721    4.2571    0.0000 O   0  0  0  0  0  0  0  0  0  0  0  0
   -4.8712    2.0071    0.0000 O   0  0  0  0  0  0  0  0  0  0  0  0
  2  1  2  0
  3  1  1  0
  4  2  1  0
  5  3  2  0
  7  6  1  0
  8  4  2  0
  8  5  1  0
  8  6  1  0
  9  7  1  0
 10  9  2  0
 11  9  1  0
M  END
>  <NAME>  (4189) 
HYDROCINNAMIC ACID

>  <SYNONYMS>  (4189) 
3-PHENYLPROPIONIC ACID

>  <SPECTRUM TYPE>  (4189) 
MS1

>  <INSTRUMENT TYPE>  (4189) 
EI-B

>  <INSTRUMENT>  (4189) 
HITACHI M-80

>  <ION MODE>  (4189) 
P

>  <INCHIKEY>  (4189) 
XMIIGOLPHOKFCH-UHFFFAOYSA-N

>  <FORMULA>  (4189) 
C9H10O2

>  <EXACT MASS>  (4189) 
150.06807956

>  <MW>  (4189) 
150

>  <ID>  (4189) 
JP006276

>  <CONTRIBUTOR>  (4189) 
University of Tokyo Team, {Faculty of Engineering, University of Tokyo

>  <COMMENT>  (4189) 
SMILES=OC(=O)CCc(c1)cccc1
cas=501-52-0
InChI=InChI=1S/C9H10O2/c10-9(11)7-6-8-4-2-1-3-5-8/h1-5H,6-7H2,(H,10,11)
computed SMILES=O=C(O)CCC=1C=CC=CC1
accession=JP006276
date=2016.01.19 (Created 2008.10.21, modified 2011.05.06)
author=MASS SPECTROSCOPY SOC. OF JAPAN (MSSJ)
license=CC BY-NC-SA
exact mass=150.06808
ionization energy=70 eV
ion type=[M]+*
computed spectral entropy=2.6147094172917416
computed normalized entropy=0.7137069523735297
SPLASH=splash10-0udl-9600000000-685b73e7f17a8be64f76
submitter=submitter = University of Tokyo Team (Faculty of Engineering, University of Tokyo)
MoNA Rating=3.75

>  <NUM PEAKS>  (4189) 
39

>  <MASS SPECTRAL PEAKS>  (4189) 
38 1.25
39 7.37
40 0.54
41 1.17
42 1.32
45 7.64
50 4.93
51 11.73
52 2.85
53 1.39
62 1.6
63 5.36
64 1.05
65 9.98
66 0.84
73 0.51
74 2.18
75 1.69
76 1.73
77 16.7
78 15.84
79 9.25
80 0.61
89 2.62
90 0.97
91 99.99
92 7.97
102 1.85
103 10.81
104 63.47
105 21.18
106 1.6
107 1.26
131 1.87
132 0.9
133 1.04
150 48.41
151 4.87
152 0.4

$$$$

     RDKit          2D

 16 17  0  0  0  0  0  0  0  0999 V2000
    3.2481    2.1950    0.0000 C   0  0  0  0  0  0  0  0  0  0  0  0
   -7.1442    2.1950    0.0000 C   0  0  0  0  0  0  0  0  0  0  0  0
    3.2486    3.6958    0.0000 C   0  0  0  0  0  0  0  0  0  0  0  0
    1.9486    1.4442    0.0000 C   0  0  0  0  0  0  0  0  0  0  0  0
   -5.8447    1.4442    0.0000 C   0  0  0  0  0  0  0  0  0  0  0  0
   -7.1447    3.6958    0.0000 C   0  0  0  0  0  0  0  0  0  0  0  0
    1.9495    4.4458    0.0000 C   0  0  0  0  0  0  0  0  0  0  0  0
    0.6495    2.1942    0.0000 C   0  0  0  0  0  0  0  0  0  0  0  0
   -4.5457    2.1942    0.0000 C   0  0  0  0  0  0  0  0  0  0  0  0
   -5.8457    4.4458    0.0000 C   0  0  0  0  0  0  0  0  0  0  0  0
   -0.6490    4.4450    0.0000 C   0  0  0  0  0  0  0  0  0  0  0  0
    0.6500    3.6950    0.0000 C   0  0  0  0  0  0  0  0  0  0  0  0
   -4.5462    3.6950    0.0000 C   0  0  0  0  0  0  0  0  0  0  0  0
   -3.2471    4.4450    0.0000 C   0  0  0  0  0  0  0  0  0  0  0  0
   -3.2471    5.9450    0.0000 O   0  0  0  0  0  0  0  0  0  0  0  0
   -1.9481    3.6950    0.0000 O   0  0  0  0  0  0  0  0  0  0  0  0
  3  1  2  0
  4  1  1  0
  5  2  2  0
  6  2  1  0
  7  3  1  0
  8  4  2  0
  9  5  1  0
 10  6  2  0
 12  7  2  0
 12  8  1  0
 12 11  1  0
 13  9  2  0
 13 10  1  0
 14 13  1  0
 15 14  2  0
 16 11  1  0
 16 14  1  0
M  END
>  <NAME>  (4190) 
BENZYL BENZOATE

>  <SYNONYMS>  (4190) 


>  <SPECTRUM TYPE>  (4190) 
MS1

>  <INSTRUMENT TYPE>  (4190) 
EI-B

>  <INSTRUMENT>  (4190) 
HITACHI M-80

>  <ION MODE>  (4190) 
P

>  <INCHIKEY>  (4190) 
SESFRYSPDFLNCH-UHFFFAOYSA-N

>  <FORMULA>  (4190) 
C14H12O2

>  <EXACT MASS>  (4190) 
212.083729624

>  <MW>  (4190) 
212

>  <ID>  (4190) 
JP006275

>  <CONTRIBUTOR>  (4190) 
University of Tokyo Team, {Faculty of Engineering, University of Tokyo

>  <COMMENT>  (4190) 
cas=120-51-4
SMILES=O=C(OCc(c2)cccc2)c(c1)cccc1
InChI=InChI=1S/C14H12O2/c15-14(13-9-5-2-6-10-13)16-11-12-7-3-1-4-8-12/h1-10H,11H2
computed SMILES=O=C(OCC=1C=CC=CC1)C=2C=CC=CC2
accession=JP006275
date=2016.01.19 (Created 2008.10.21, modified 2011.05.06)
author=MASS SPECTROSCOPY SOC. OF JAPAN (MSSJ)
license=CC BY-NC-SA
exact mass=212.08373
ionization energy=70 eV
ion type=[M]+*
computed spectral entropy=3.2578332616628596
computed normalized entropy=0.7720884731805199
SPLASH=splash10-056r-9300000000-b15752c1190b0242b115
submitter=submitter = University of Tokyo Team (Faculty of Engineering, University of Tokyo)
MoNA Rating=3.75

>  <NUM PEAKS>  (4190) 
68

>  <MASS SPECTRAL PEAKS>  (4190) 
13 1.03
14 5.63
15 9.97
28 58.71
29 18.49
30 2.33
31 26.85
32 21.45
37 0.97
38 2.11
39 10.29
40 1.21
41 6
42 1.37
43 3.11
44 1.48
45 0.65
49 0.6
50 11.24
51 27.73
52 5.73
53 1.53
55 2.41
56 1.19
57 1.82
58 1.43
62 1.62
63 5.02
64 1.71
65 13.98
66 1.07
67 0.74
69 7.53
70 1.24
71 1.29
72 0.6
73 0.95
74 2.87
75 1.9
76 3.26
77 46.07
78 6.99
79 12.07
80 0.93
81 0.66
83 0.76
84 0.62
85 0.69
89 6.61
90 7.52
91 56.09
92 5.47
105 99.99
106 9.27
107 7.99
108 1.53
119 2
131 1.81
165 1.64
166 0.66
167 5.83
168 0.94
169 1.59
181 1.02
194 5.72
195 0.86
212 33.05
213 6.05

$$$$

     RDKit          2D

 15 15  0  0  0  0  0  0  0  0999 V2000
   -7.7951    1.5010    0.0000 C   0  0  0  0  0  0  0  0  0  0  0  0
   -6.4962    0.7508    0.0000 C   0  0  0  0  0  0  0  0  0  0  0  0
   -1.3000   -0.7500    0.0000 C   0  0  0  0  0  0  0  0  0  0  0  0
    0.0000    1.5000    0.0000 C   0  0  0  0  0  0  0  0  0  0  0  0
    0.0000   -1.5000    0.0000 C   0  0  0  0  0  0  0  0  0  0  0  0
    1.3000    0.7500    0.0000 C   0  0  0  0  0  0  0  0  0  0  0  0
   -2.5989    1.5002    0.0000 C   0  0  0  0  0  0  0  0  0  0  0  0
   -1.3000    0.7500    0.0000 C   0  0  0  0  0  0  0  0  0  0  0  0
    1.3000   -0.7500    0.0000 C   0  0  0  0  0  0  0  0  0  0  0  0
   -3.8981    0.7504    0.0000 C   0  0  0  0  0  0  0  0  0  0  0  0
    2.5989   -1.5002    0.0000 N   0  0  0  0  0  0  0  0  0  0  0  0
   -3.8983   -0.7496    0.0000 O   0  0  0  0  0  0  0  0  0  0  0  0
    3.8981   -0.7504    0.0000 O   0  0  0  0  0  0  0  0  0  0  0  0
    2.5987   -3.0002    0.0000 O   0  0  0  0  0  0  0  0  0  0  0  0
   -5.1970    1.5006    0.0000 O   0  0  0  0  0  0  0  0  0  0  0  0
  2  1  1  0
  5  3  2  0
  6  4  1  0
  8  3  1  0
  8  4  2  0
  8  7  1  0
  9  5  1  0
  9  6  2  0
 10  7  1  0
 11  9  1  0
 12 10  2  0
 13 11  1  0
 14 11  2  0
 15  2  1  0
 15 10  1  0
M  CHG  2  11   1  13  -1
M  END
>  <NAME>  (4191) 
ETHYL 4-NITROPHENYLACETATE

>  <SYNONYMS>  (4191) 


>  <SPECTRUM TYPE>  (4191) 
MS1

>  <INSTRUMENT TYPE>  (4191) 
EI-B

>  <INSTRUMENT>  (4191) 
HITACHI M-80

>  <ION MODE>  (4191) 
P

>  <INCHIKEY>  (4191) 
DWDRNKYLWMKWTH-UHFFFAOYSA-N

>  <FORMULA>  (4191) 
C10H11NO4

>  <EXACT MASS>  (4191) 
209.068807832

>  <MW>  (4191) 
209

>  <ID>  (4191) 
JP006274

>  <CONTRIBUTOR>  (4191) 
University of Tokyo Team, {Faculty of Engineering, University of Tokyo

>  <COMMENT>  (4191) 
SMILES=CCOC(=O)Cc(c1)ccc(c1)[N+1]([O-1])=O
InChI=InChI=1S/C10H11NO4/c1-2-15-10(12)7-8-3-5-9(6-4-8)11(13)14/h3-6H,2,7H2,1H3
computed SMILES=O=C(OCC)CC1=CC=C(C=C1)N(=O)=O
accession=JP006274
date=2016.01.19 (Created 2008.10.21, modified 2011.05.06)
author=MASS SPECTROSCOPY SOC. OF JAPAN (MSSJ)
license=CC BY-NC-SA
exact mass=209.06881
ionization energy=70 eV
ion type=[M]+*
computed spectral entropy=3.041695991087686
computed normalized entropy=0.7736090750749094
SPLASH=splash10-004r-9400000000-a7bd7793194cf28d1efc
submitter=submitter = University of Tokyo Team (Faculty of Engineering, University of Tokyo)
MoNA Rating=3.75

>  <NUM PEAKS>  (4191) 
51

>  <MASS SPECTRAL PEAKS>  (4191) 
26 1.76
27 11.01
28 2.2
29 99.99
30 18.26
31 0.7
38 1.6
39 6.5
40 1.15
41 0.83
43 3.92
44 0.5
45 1.42
46 0.85
50 2.56
51 4.7
52 2.67
62 3.06
63 10.81
64 4.38
65 1.36
73 1.27
74 0.66
75 0.72
76 0.56
77 4.72
78 20.97
79 3.68
89 23.94
90 24.15
91 7.33
92 0.66
106 8.48
107 20.36
108 1.59
119 5.33
120 9.05
121 2.32
135 1.78
136 27.19
137 44.44
138 3.59
163 0.86
164 4.8
165 1.88
181 2.04
182 0.62
193 1.71
209 20.13
210 7.19
211 0.82

$$$$

     RDKit          2D

 10 10  0  0  0  0  0  0  0  0999 V2000
    0.0008   -2.2500    0.0000 C   0  0  0  0  0  0  0  0  0  0  0  0
   -1.2992    0.0000    0.0000 C   0  0  0  0  0  0  0  0  0  0  0  0
   -1.2992   -3.0000    0.0000 C   0  0  0  0  0  0  0  0  0  0  0  0
   -2.5992   -0.7500    0.0000 C   0  0  0  0  0  0  0  0  0  0  0  0
    0.0008   -0.7500    0.0000 C   0  0  0  0  0  0  0  0  0  0  0  0
   -2.5992   -2.2500    0.0000 C   0  0  0  0  0  0  0  0  0  0  0  0
    1.2998    0.0002    0.0000 C   0  0  0  0  0  0  0  0  0  0  0  0
   -3.8981   -3.0002    0.0000 I   0  0  0  0  0  0  0  0  0  0  0  0
    2.5989   -0.7496    0.0000 O   0  0  0  0  0  0  0  0  0  0  0  0
    1.2995    1.5002    0.0000 O   0  0  0  0  0  0  0  0  0  0  0  0
  3  1  2  0
  4  2  1  0
  5  1  1  0
  5  2  2  0
  6  3  1  0
  6  4  2  0
  7  5  1  0
  8  6  1  0
  9  7  1  0
 10  7  2  0
M  END
>  <NAME>  (4192) 
4-IODOBENZOIC ACID

>  <SYNONYMS>  (4192) 


>  <SPECTRUM TYPE>  (4192) 
MS1

>  <INSTRUMENT TYPE>  (4192) 
EI-B

>  <INSTRUMENT>  (4192) 
HITACHI M-80

>  <ION MODE>  (4192) 
P

>  <INCHIKEY>  (4192) 
GHICCUXQJBDNRN-UHFFFAOYSA-N

>  <FORMULA>  (4192) 
C7H5IO2

>  <EXACT MASS>  (4192) 
247.9334274

>  <MW>  (4192) 
248

>  <ID>  (4192) 
JP006273

>  <CONTRIBUTOR>  (4192) 
University of Tokyo Team, {Faculty of Engineering, University of Tokyo

>  <COMMENT>  (4192) 
SMILES=OC(=O)c(c1)ccc(I)c1
cas=619-58-9
InChI=InChI=1S/C7H5IO2/c8-6-3-1-5(2-4-6)7(9)10/h1-4H,(H,9,10)
computed SMILES=O=C(O)C1=CC=C(I)C=C1
accession=JP006273
date=2016.01.19 (Created 2008.10.21, modified 2011.05.06)
author=MASS SPECTROSCOPY SOC. OF JAPAN (MSSJ)
license=CC BY-NC-SA
exact mass=247.93342
ionization energy=70 eV
ion type=[M]+*
computed spectral entropy=2.542183810853162
computed normalized entropy=0.6939104774008215
SPLASH=splash10-0002-6190000000-91b2a2b8b1809074e7ca
submitter=submitter = University of Tokyo Team (Faculty of Engineering, University of Tokyo)
MoNA Rating=3.75

>  <NUM PEAKS>  (4192) 
39

>  <MASS SPECTRAL PEAKS>  (4192) 
37 1.19
38 1.56
49 1
50 14.71
51 6.13
53 1.49
62 0.58
63 1.38
64 0.88
65 30.73
66 1.8
73 1.59
74 8.06
75 9.62
76 19.01
77 2.71
78 1.07
92 0.93
93 1.88
103 2.39
104 4.47
105 0.95
110 1.05
121 12.08
122 1.3
127 4.26
128 1.42
152 0.79
153 0.75
186 0.88
203 7.19
204 0.78
220 0.88
231 34.32
232 2.63
242 0.94
248 99.99
249 9.54
250 0.84

$$$$

     RDKit          2D

 10 10  0  0  0  0  0  0  0  0999 V2000
    3.8971   -0.7500    0.0000 C   0  0  0  0  0  0  0  0  0  0  0  0
   -3.8971    0.7500    0.0000 C   0  0  0  0  0  0  0  0  0  0  0  0
    1.2995    0.7508    0.0000 C   0  0  0  0  0  0  0  0  0  0  0  0
   -0.0005   -1.5008    0.0000 C   0  0  0  0  0  0  0  0  0  0  0  0
    0.0005    1.5008    0.0000 C   0  0  0  0  0  0  0  0  0  0  0  0
   -1.2995   -0.7508    0.0000 C   0  0  0  0  0  0  0  0  0  0  0  0
    1.2990   -0.7500    0.0000 C   0  0  0  0  0  0  0  0  0  0  0  0
   -1.2990    0.7500    0.0000 C   0  0  0  0  0  0  0  0  0  0  0  0
    2.5981   -1.5000    0.0000 O   0  0  0  0  0  0  0  0  0  0  0  0
   -2.5981    1.5000    0.0000 O   0  0  0  0  0  0  0  0  0  0  0  0
  5  3  2  0
  6  4  1  0
  7  3  1  0
  7  4  2  0
  8  5  1  0
  8  6  2  0
  9  1  1  0
  9  7  1  0
 10  2  1  0
 10  8  1  0
M  END
>  <NAME>  (4193) 
1,4-DIMETHOXYBENZENE

>  <SYNONYMS>  (4193) 
HYDROXYQUINONE DIMETHYL ETHER

>  <SPECTRUM TYPE>  (4193) 
MS1

>  <INSTRUMENT TYPE>  (4193) 
EI-B

>  <INSTRUMENT>  (4193) 
HITACHI M-80

>  <ION MODE>  (4193) 
P

>  <INCHIKEY>  (4193) 
OHBQPCCCRFSCAX-UHFFFAOYSA-N

>  <FORMULA>  (4193) 
C8H10O2

>  <EXACT MASS>  (4193) 
138.06807956

>  <MW>  (4193) 
138

>  <ID>  (4193) 
JP006271

>  <CONTRIBUTOR>  (4193) 
University of Tokyo Team, {Faculty of Engineering, University of Tokyo

>  <COMMENT>  (4193) 
SMILES=COc(c1)ccc(OC)c1
cas=150-78-7
InChI=InChI=1S/C8H10O2/c1-9-7-3-5-8(10-2)6-4-7/h3-6H,1-2H3
computed SMILES=O(C1=CC=C(OC)C=C1)C
accession=JP006271
date=2016.01.19 (Created 2008.10.21, modified 2011.05.06)
author=MASS SPECTROSCOPY SOC. OF JAPAN (MSSJ)
license=CC BY-NC-SA
exact mass=138.06808
ionization energy=70 eV
ion type=[M]+*
computed spectral entropy=2.842215719005728
computed normalized entropy=0.7466424267041382
SPLASH=splash10-00dr-9800000000-f7ee9b9c0cbc026ac7d9
submitter=submitter = University of Tokyo Team (Faculty of Engineering, University of Tokyo)
MoNA Rating=3.75

>  <NUM PEAKS>  (4193) 
45

>  <MASS SPECTRAL PEAKS>  (4193) 
15 14.17
26 4.62
27 1.6
29 3.71
30 1.08
39 8.04
41 15.26
49 0.66
50 5.2
51 7.9
52 10.91
53 6.81
54 6.85
55 0.87
61 1.94
62 5.46
63 14.28
64 12.27
65 7.48
66 2.36
67 1.84
69 1.63
74 2.28
75 1.58
76 1.14
77 5.7
78 0.9
79 4.35
80 7.01
81 0.74
82 1.89
92 7.8
93 0.87
94 0.91
95 41.25
96 2.71
107 1.92
108 2.33
109 1.05
122 0.62
123 99.99
124 7.73
125 0.67
138 71.79
139 6.4

$$$$

     RDKit          2D

 21 22  0  0  0  0  0  0  0  0999 V2000
   -5.7606    0.7205    0.0000 C   0  0  0  0  0  0  0  0  0  0  0  0
   -4.4615   -1.5295    0.0000 C   0  0  0  0  0  0  0  0  0  0  0  0
    6.2862    0.7536    0.0000 C   0  0  0  0  0  0  0  0  0  0  0  0
    4.1851    2.2826    0.0000 C   0  0  0  0  0  0  0  0  0  0  0  0
    3.9122   -0.3030    0.0000 C   0  0  0  0  0  0  0  0  0  0  0  0
   -0.3987    2.2134    0.0000 C   0  0  0  0  0  0  0  0  0  0  0  0
   -4.4615   -0.0295    0.0000 C   0  0  0  0  0  0  0  0  0  0  0  0
    5.6768    2.1252    0.0000 C   0  0  0  0  0  0  0  0  0  0  0  0
    5.4039   -0.4604    0.0000 C   0  0  0  0  0  0  0  0  0  0  0  0
    3.3028    1.0685    0.0000 C   0  0  0  0  0  0  0  0  0  0  0  0
    1.0611    2.5250    0.0000 C   0  0  0  0  0  0  0  0  0  0  0  0
   -1.8635   -0.0295    0.0000 C   0  0  0  0  0  0  0  0  0  0  0  0
    0.8113    0.1176    0.0000 C   0  0  0  0  0  0  0  0  0  0  0  0
    6.5593    3.3382    0.0000 Cl  0  0  0  0  0  0  0  0  0  0  0  0
    6.0136   -1.8309    0.0000 Cl  0  0  0  0  0  0  0  0  0  0  0  0
   -3.1625    0.7205    0.0000 N   0  0  0  0  0  0  0  0  0  0  0  0
   -0.5644    0.7205    0.0000 N   0  0  0  0  0  0  0  0  0  0  0  0
    1.8111    1.2260    0.0000 N   0  0  0  0  0  0  0  0  0  0  0  0
    1.6706    3.8956    0.0000 O   0  0  0  0  0  0  0  0  0  0  0  0
   -1.8635   -1.5295    0.0000 O   0  0  0  0  0  0  0  0  0  0  0  0
    1.1269   -1.3488    0.0000 O   0  0  0  0  0  0  0  0  0  0  0  0
  7  1  1  0
  7  2  1  0
  8  3  2  0
  8  4  1  0
  9  3  1  0
  9  5  2  0
 10  4  2  0
 10  5  1  0
 11  6  1  0
 14  8  1  0
 15  9  1  0
 16  7  1  0
 16 12  2  3
 17  6  1  0
 17 12  1  0
 17 13  1  0
 18 10  1  0
 18 11  1  0
 18 13  1  0
 19 11  2  0
 20 12  1  0
 21 13  2  0
M  END
>  <NAME>  (4194) 
3-(3,5-DICHLOROPHENYL)-N-ISOPROPYL-2,4-DIOXO-1-IMIDAZOLIDINECARBOXAMIDE

>  <SYNONYMS>  (4194) 
ROVRAL

>  <SPECTRUM TYPE>  (4194) 
MS1

>  <INSTRUMENT TYPE>  (4194) 
EI-B

>  <INSTRUMENT>  (4194) 
HITACHI M-80

>  <ION MODE>  (4194) 
P

>  <INCHIKEY>  (4194) 
ONUFESLQCSAYKA-UHFFFAOYSA-N

>  <FORMULA>  (4194) 
C13H13Cl2N3O3

>  <EXACT MASS>  (4194) 
329.033396636

>  <MW>  (4194) 
329

>  <ID>  (4194) 
JP006270

>  <CONTRIBUTOR>  (4194) 
University of Tokyo Team, {Faculty of Engineering, University of Tokyo

>  <COMMENT>  (4194) 
SMILES=CC(C)NC(=O)N(C2)C(=O)N(C(=O)2)c(c1)cc(Cl)cc(Cl)1
InChI=InChI=1S/C13H13Cl2N3O3/c1-7(2)16-12(20)17-6-11(19)18(13(17)21)10-4-8(14)3-9(15)5-10/h3-5,7H,6H2,1-2H3,(H,16,20)
computed SMILES=O=C1N(C(=O)CN1C(O)=NC(C)C)C=2C=C(Cl)C=C(Cl)C2
accession=JP006270
date=2016.01.19 (Created 2008.10.21, modified 2011.05.06)
author=MASS SPECTROSCOPY SOC. OF JAPAN (MSSJ)
license=CC BY-NC-SA
exact mass=329.0334
ionization energy=70 eV
ion type=[M]+*
computed spectral entropy=3.8819844057126227
computed normalized entropy=0.8053439104911209
SPLASH=splash10-090c-9536000000-06f1737b4135ea75b9be
submitter=submitter = University of Tokyo Team (Faculty of Engineering, University of Tokyo)
MoNA Rating=3.75

>  <NUM PEAKS>  (4194) 
124

>  <MASS SPECTRAL PEAKS>  (4194) 
14 2.05
15 10.54
26 2.5
27 10.01
28 7.76
29 5.16
30 4.04
31 1.08
37 1.43
38 2.07
39 6.1
40 1.65
41 14.67
42 12.38
43 58.73
44 7.79
45 0.9
50 1.12
51 0.98
55 3.04
56 32.95
57 3.87
58 28.86
59 1.49
60 0.8
61 0.87
62 1.39
63 1.56
64 1.03
65 0.64
67 0.7
69 11.97
70 16.7
71 1.26
73 1.95
74 2.77
75 1.99
76 1.02
77 0.8
81 0.79
83 0.91
84 4.26
85 1.04
86 1.58
87 1.53
88 2.17
89 0.86
90 0.82
97 2.77
98 0.71
99 2.25
100 1.9
109 1.64
110 0.86
119 2.71
124 10.87
125 1.5
126 3.68
127 1.31
131 1.06
135 1.08
145 3.97
146 0.66
147 5.63
148 0.54
149 6.42
150 2.63
153 1.82
157 1.51
158 1.34
159 3.19
160 1.67
161 3.88
162 1.37
163 1.64
164 0.59
166 0.97
169 13.84
170 0.59
172 0.79
174 1.62
176 0.85
181 1.96
185 1.02
187 30.79
188 12.76
189 20.45
190 8.19
191 3.9
192 1.48
216 13.13
217 1.76
218 8.42
219 1.79
220 1.53
235 1.92
243 0.83
244 10.98
245 17.53
246 8.42
247 11.64
248 2.1
249 1.95
271 8
272 1.06
273 5.26
274 0.8
275 0.94
285 1.99
287 0.74
289 0.5
313 0.78
314 99.99
315 14.2
316 64.53
317 9.29
318 11.32
319 1.74
329 5.84
330 1.55
331 3.8
332 0.94
333 0.71
335 2.5

$$$$

     RDKit          2D

 15 15  0  0  0  0  0  0  0  0999 V2000
   -2.3900   -2.2000    0.0000 C   0  0  0  0  0  0  0  0  0  0  0  0
   -1.1500   -3.0400    0.0000 C   0  0  0  0  0  0  0  0  0  0  0  0
   -3.1900    0.1700    0.0000 C   0  0  0  0  0  0  0  0  0  0  0  0
   -2.7700    1.6200    0.0000 C   0  0  0  0  0  0  0  0  0  0  0  0
    1.3500   -2.9400    0.0000 C   0  0  0  0  0  0  0  0  0  0  0  0
    2.5100   -1.9900    0.0000 C   0  0  0  0  0  0  0  0  0  0  0  0
   -0.7800    3.1700    0.0000 C   0  0  0  0  0  0  0  0  0  0  0  0
    0.7000    3.1700    0.0000 C   0  0  0  0  0  0  0  0  0  0  0  0
    3.1500    0.3100    0.0000 C   0  0  0  0  0  0  0  0  0  0  0  0
    2.6500    1.7400    0.0000 C   0  0  0  0  0  0  0  0  0  0  0  0
   -1.9800   -0.7200    0.0000 O   0  0  0  0  0  0  0  0  0  0  0  0
    0.0500   -2.1300    0.0000 O   0  0  0  0  0  0  0  0  0  0  0  0
   -1.2800    1.7000    0.0000 O   0  0  0  0  0  0  0  0  0  0  0  0
    1.9700   -0.5900    0.0000 O   0  0  0  0  0  0  0  0  0  0  0  0
    1.1700    1.7400    0.0000 O   0  0  0  0  0  0  0  0  0  0  0  0
  2  1  1  0
  4  3  1  0
  6  5  1  0
  8  7  1  0
 10  9  1  0
 11  1  1  0
 11  3  1  0
 12  2  1  0
 12  5  1  0
 13  4  1  0
 13  7  1  0
 14  6  1  0
 14  9  1  0
 15  8  1  0
 15 10  1  0
M  END
>  <NAME>  (4195) 
15-CROWN-5

>  <SYNONYMS>  (4195) 
1,4,7,10,13-PENTAOXACYCLOPENTADECANE

>  <SPECTRUM TYPE>  (4195) 
MS1

>  <INSTRUMENT TYPE>  (4195) 
EI-B

>  <INSTRUMENT>  (4195) 
HITACHI M-80

>  <ION MODE>  (4195) 
P

>  <INCHIKEY>  (4195) 
VFTFKUDGYRBSAL-UHFFFAOYSA-N

>  <FORMULA>  (4195) 
C10H20O5

>  <EXACT MASS>  (4195) 
220.13107373999998

>  <MW>  (4195) 
220

>  <ID>  (4195) 
JP006268

>  <CONTRIBUTOR>  (4195) 
University of Tokyo Team, {Faculty of Engineering, University of Tokyo

>  <COMMENT>  (4195) 
SMILES=C(C1)OCCOCCOCCOCCO1
cas=33100-27-5
InChI=InChI=1S/C10H20O5/c1-2-12-5-6-14-9-10-15-8-7-13-4-3-11-1/h1-10H2
computed SMILES=O1CCOCCOCCOCCOCC1
accession=JP006268
date=2016.01.19 (Created 2008.10.21, modified 2011.05.06)
author=MASS SPECTROSCOPY SOC. OF JAPAN (MSSJ)
license=CC BY-NC-SA
exact mass=220.13107
ionization energy=70 eV
ion type=[M]+*
computed spectral entropy=3.1940305750655194
computed normalized entropy=0.8044825530745167
SPLASH=splash10-000m-9100000000-b7f8e0574d3f521b51e2
submitter=submitter = University of Tokyo Team (Faculty of Engineering, University of Tokyo)
MoNA Rating=3.75

>  <NUM PEAKS>  (4195) 
53

>  <MASS SPECTRAL PEAKS>  (4195) 
15 5.4
19 1.48
26 1.84
27 11.23
28 36.23
29 22.11
30 5.2
31 27.76
32 9.31
41 5.4
42 13.91
43 60.23
44 40.07
45 99.99
46 2.69
56 2.03
57 11.2
58 22.9
59 20.53
60 1.45
61 1.28
69 0.95
70 6.2
71 9.25
72 15.98
73 32.62
74 1.55
75 4.34
86 5.69
87 30.75
88 25.73
89 57.3
90 2.95
91 0.65
99 0.87
100 0.8
101 10.11
102 2.82
103 2.67
104 0.7
105 1.41
114 0.87
115 1.7
116 0.92
117 4.8
118 1.31
119 1.06
131 4.83
132 0.65
133 27.99
134 1.79
177 2.39
221 0.62

$$$$

     RDKit          2D

 12 12  0  0  0  0  0  0  0  0999 V2000
   -2.2500   -1.3000    0.0000 C   0  0  0  0  0  0  0  0  0  0  0  0
   -1.3000   -2.2500    0.0000 C   0  0  0  0  0  0  0  0  0  0  0  0
   -2.2500    1.3000    0.0000 C   0  0  0  0  0  0  0  0  0  0  0  0
   -1.3000    2.2500    0.0000 C   0  0  0  0  0  0  0  0  0  0  0  0
    1.3000   -2.2500    0.0000 C   0  0  0  0  0  0  0  0  0  0  0  0
    2.2500   -1.3000    0.0000 C   0  0  0  0  0  0  0  0  0  0  0  0
    1.3000    2.2500    0.0000 C   0  0  0  0  0  0  0  0  0  0  0  0
    2.2500    1.3000    0.0000 C   0  0  0  0  0  0  0  0  0  0  0  0
   -1.5000   -0.0000    0.0000 O   0  0  0  0  0  0  0  0  0  0  0  0
    0.0000   -1.5000    0.0000 O   0  0  0  0  0  0  0  0  0  0  0  0
    0.0000    1.5000    0.0000 O   0  0  0  0  0  0  0  0  0  0  0  0
    1.5000   -0.0000    0.0000 O   0  0  0  0  0  0  0  0  0  0  0  0
  2  1  1  0
  4  3  1  0
  6  5  1  0
  8  7  1  0
  9  1  1  0
  9  3  1  0
 10  2  1  0
 10  5  1  0
 11  4  1  0
 11  7  1  0
 12  6  1  0
 12  8  1  0
M  END
>  <NAME>  (4196) 
12-CROWN-4

>  <SYNONYMS>  (4196) 
1,4,7,10-TETRAOXACYCLODODECANE

>  <SPECTRUM TYPE>  (4196) 
MS1

>  <INSTRUMENT TYPE>  (4196) 
EI-B

>  <INSTRUMENT>  (4196) 
HITACHI M-80

>  <ION MODE>  (4196) 
P

>  <INCHIKEY>  (4196) 
XQQZRZQVBFHBHL-UHFFFAOYSA-N

>  <FORMULA>  (4196) 
C8H16O4

>  <EXACT MASS>  (4196) 
176.104858992

>  <MW>  (4196) 
176

>  <ID>  (4196) 
JP006267

>  <CONTRIBUTOR>  (4196) 
University of Tokyo Team, {Faculty of Engineering, University of Tokyo

>  <COMMENT>  (4196) 
SMILES=C(C1)OCCOCCOCCO1
cas=294-93-9
InChI=InChI=1S/C8H16O4/c1-2-10-5-6-12-8-7-11-4-3-9-1/h1-8H2
computed SMILES=O1CCOCCOCCOCC1
accession=JP006267
date=2016.01.19 (Created 2008.10.21, modified 2011.05.06)
exact mass=176.10486
author=MASS SPECTROSCOPY SOC. OF JAPAN (MSSJ)
license=CC BY-NC-SA
ionization energy=70 eV
ion type=[M]+*
computed spectral entropy=3.006631555575415
computed normalized entropy=0.7993809058524382
SPLASH=splash10-002e-9000000000-ff13d3168cfc3b53589c
submitter=submitter = University of Tokyo Team (Faculty of Engineering, University of Tokyo)
MoNA Rating=3.75

>  <NUM PEAKS>  (4196) 
43

>  <MASS SPECTRAL PEAKS>  (4196) 
15 6.86
16 0.55
19 1.31
26 2.49
27 11.94
28 36.45
29 17.72
30 4.56
31 13.76
32 1.16
41 3.33
42 11.41
43 49.62
44 31.28
45 99.99
46 2.42
56 1.42
57 8.88
58 16.5
59 11.41
60 0.98
61 2.48
70 4.56
71 4.96
72 12.51
73 17.75
74 2.26
75 4.25
86 4.15
87 16.89
88 13.2
89 30.18
90 1.51
100 0.52
101 5.65
102 2.34
103 1.57
104 1.69
105 0.83
117 1.63
133 8.92
134 0.54
177 0.67

$$$$

     RDKit          2D

 11 11  0  0  0  0  0  0  0  0999 V2000
   -1.3000    0.7500    0.0000 C   0  0  0  0  0  0  0  0  0  0  0  0
    0.0000    1.5000    0.0000 C   0  0  0  0  0  0  0  0  0  0  0  0
   -1.3000   -0.7500    0.0000 C   0  0  0  0  0  0  0  0  0  0  0  0
    1.3000    0.7500    0.0000 C   0  0  0  0  0  0  0  0  0  0  0  0
    0.0000   -1.5000    0.0000 C   0  0  0  0  0  0  0  0  0  0  0  0
    1.3000   -0.7500    0.0000 C   0  0  0  0  0  0  0  0  0  0  0  0
    2.5989   -1.5002    0.0000 N   0  0  0  0  0  0  0  0  0  0  0  0
    2.5989    1.5002    0.0000 O   0  0  0  0  0  0  0  0  0  0  0  0
   -0.0000   -3.0000    0.0000 O   0  0  0  0  0  0  0  0  0  0  0  0
    3.8981   -0.7504    0.0000 O   0  0  0  0  0  0  0  0  0  0  0  0
    2.5987   -3.0002    0.0000 O   0  0  0  0  0  0  0  0  0  0  0  0
  2  1  2  0
  3  1  1  0
  4  2  1  0
  5  3  2  0
  6  4  2  0
  6  5  1  0
  7  6  1  0
  8  4  1  0
  9  5  1  0
 10  7  1  0
 11  7  2  0
M  CHG  2   7   1  10  -1
M  END
>  <NAME>  (4197) 
2-NITRORESORCINOL

>  <SYNONYMS>  (4197) 


>  <SPECTRUM TYPE>  (4197) 
MS1

>  <INSTRUMENT TYPE>  (4197) 
EI-B

>  <INSTRUMENT>  (4197) 
HITACHI M-80

>  <ION MODE>  (4197) 
P

>  <INCHIKEY>  (4197) 
ZLCPKMIJYMHZMJ-UHFFFAOYSA-N

>  <FORMULA>  (4197) 
C6H5NO4

>  <EXACT MASS>  (4197) 
155.02185764

>  <MW>  (4197) 
155

>  <ID>  (4197) 
JP006266

>  <CONTRIBUTOR>  (4197) 
University of Tokyo Team, {Faculty of Engineering, University of Tokyo

>  <COMMENT>  (4197) 
SMILES=[O-1][N+1](=O)c(c(O)1)c(O)ccc1
cas=601-89-8
InChI=InChI=1S/C6H5NO4/c8-4-2-1-3-5(9)6(4)7(10)11/h1-3,8-9H
computed SMILES=O=N(=O)C=1C(O)=CC=CC1O
accession=JP006266
date=2016.01.19 (Created 2008.10.21, modified 2011.05.06)
author=MASS SPECTROSCOPY SOC. OF JAPAN (MSSJ)
license=CC BY-NC-SA
exact mass=155.02186
ionization energy=70 eV
ion type=[M]+*
computed spectral entropy=2.881241795736657
computed normalized entropy=0.7327999928980247
SPLASH=splash10-0a4i-8900000000-515f30ef784e83de0569
submitter=submitter = University of Tokyo Team (Faculty of Engineering, University of Tokyo)
MoNA Rating=3.75

>  <NUM PEAKS>  (4197) 
51

>  <MASS SPECTRAL PEAKS>  (4197) 
26 1.62
27 2.29
29 1.47
30 4.39
37 2.24
38 4.33
39 14.71
40 1.42
41 1.17
42 0.95
49 1.44
50 6.15
51 13.01
54 7.3
55 6.29
56 0.54
61 1.67
62 3.39
63 5.54
64 1.99
65 3.63
66 4.18
67 1.39
68 2.64
69 2.14
70 4.09
77 1.55
78 0.56
79 7.54
80 5.45
81 26.77
82 2.7
83 0.56
91 1.43
93 11.09
94 2.81
95 33.6
96 4.5
97 1.65
107 1.26
108 1.45
109 99.99
110 6.28
111 0.65
122 2.29
137 14.59
138 1.81
139 1.63
155 81.43
156 6.61
157 0.87

$$$$

     RDKit          2D

 15 15  0  0  0  0  0  0  0  0999 V2000
    1.6244   -3.1882    0.0000 C   0  0  0  0  0  0  0  0  0  0  0  0
    0.3248   -2.4373    0.0000 C   0  0  0  0  0  0  0  0  0  0  0  0
    2.9234   -2.4382    0.0000 C   0  0  0  0  0  0  0  0  0  0  0  0
    0.3244   -0.9365    0.0000 C   0  0  0  0  0  0  0  0  0  0  0  0
    2.9229   -0.9373    0.0000 C   0  0  0  0  0  0  0  0  0  0  0  0
    1.6234   -0.1865    0.0000 C   0  0  0  0  0  0  0  0  0  0  0  0
   -0.9748   -0.1867    0.0000 C   0  0  0  0  0  0  0  0  0  0  0  0
    1.6236    1.3135    0.0000 C   0  0  0  0  0  0  0  0  0  0  0  0
    4.2220   -0.1873    0.0000 N   0  0  0  0  0  0  0  0  0  0  0  0
   -0.9750    1.3133    0.0000 O   0  0  0  0  0  0  0  0  0  0  0  0
   -2.2737   -0.9369    0.0000 O   0  0  0  0  0  0  0  0  0  0  0  0
    0.3247    2.0637    0.0000 O   0  0  0  0  0  0  0  0  0  0  0  0
    2.9228    2.0633    0.0000 O   0  0  0  0  0  0  0  0  0  0  0  0
    5.5210   -0.9373    0.0000 O   0  0  0  0  0  0  0  0  0  0  0  0
    4.2220    1.3127    0.0000 O   0  0  0  0  0  0  0  0  0  0  0  0
  2  1  2  0
  3  1  1  0
  4  2  1  0
  5  3  2  0
  6  4  2  0
  6  5  1  0
  7  4  1  0
  8  6  1  0
  9  5  1  0
 10  7  2  0
 11  7  1  0
 12  8  2  0
 13  8  1  0
 14  9  1  0
 15  9  2  0
M  CHG  2   9   1  14  -1
M  END
>  <NAME>  (4198) 
3-NITROPHTHALIC ACID

>  <SYNONYMS>  (4198) 


>  <SPECTRUM TYPE>  (4198) 
MS1

>  <INSTRUMENT TYPE>  (4198) 
EI-B

>  <INSTRUMENT>  (4198) 
HITACHI M-80

>  <ION MODE>  (4198) 
P

>  <INCHIKEY>  (4198) 
KFIRODWJCYBBHY-UHFFFAOYSA-N

>  <FORMULA>  (4198) 
C8H5NO6

>  <EXACT MASS>  (4198) 
211.01168687999998

>  <MW>  (4198) 
211

>  <ID>  (4198) 
JP006265

>  <CONTRIBUTOR>  (4198) 
University of Tokyo Team, {Faculty of Engineering, University of Tokyo

>  <COMMENT>  (4198) 
SMILES=OC(=O)c(c1)c(C(O)=O)c(cc1)[N+1]([O-1])=O
cas=603-11-2
InChI=InChI=1S/C8H5NO6/c10-7(11)4-2-1-3-5(9(14)15)6(4)8(12)13/h1-3H,(H,10,11)(H,12,13)
computed SMILES=O=C(O)C1=CC=CC(=C1C(=O)O)N(=O)=O
accession=JP006265
date=2016.01.19 (Created 2008.10.21, modified 2011.05.06)
author=MASS SPECTROSCOPY SOC. OF JAPAN (MSSJ)
license=CC BY-NC-SA
exact mass=211.01169
ionization energy=70 eV
ion type=[M]+*
computed spectral entropy=3.455963183250728
computed normalized entropy=0.8107489379778334
SPLASH=splash10-016s-9800000000-fb85d9e5b63ce3083e3d
submitter=submitter = University of Tokyo Team (Faculty of Engineering, University of Tokyo)
MoNA Rating=3.75

>  <NUM PEAKS>  (4198) 
71

>  <MASS SPECTRAL PEAKS>  (4198) 
30 11.96
37 3.65
38 4.52
39 12.09
40 0.59
44 3.35
45 8.99
46 2.85
49 2.93
50 17.82
51 9.41
52 2.11
53 11.65
54 0.58
55 3.27
61 3.68
62 6.52
63 23.81
64 12.43
65 38.43
66 4.58
67 0.77
69 1.76
73 8.33
74 43.28
75 94.31
76 16.15
77 8.61
78 1.89
79 2.36
80 0.71
81 26.25
82 1.49
89 0.91
90 1.4
91 21.51
92 19.23
93 14.41
94 1.3
103 22.46
104 11.22
105 7.11
106 1.21
107 6.3
108 0.96
109 6.52
110 0.5
119 30.47
120 5.44
121 37.83
122 3.39
123 20.56
124 1.42
135 0.79
137 11
138 1.11
147 5.49
148 3.4
149 89.7
150 8.95
151 1.15
163 1.09
167 99.99
168 8.42
169 1.18
177 1.32
193 1
194 10.08
195 1.74
211 5.86
212 0.85

$$$$

     RDKit          2D

 11 11  0  0  0  0  0  0  0  0999 V2000
   -3.8981    0.3879    0.0000 C   0  0  0  0  0  0  0  0  0  0  0  0
   -0.0000   -1.8800    0.0000 C   0  0  0  0  0  0  0  0  0  0  0  0
    1.3000   -1.1200    0.0000 C   0  0  0  0  0  0  0  0  0  0  0  0
   -1.3000   -1.1200    0.0000 C   0  0  0  0  0  0  0  0  0  0  0  0
    0.0000    1.1200    0.0000 C   0  0  0  0  0  0  0  0  0  0  0  0
    1.3000    0.3800    0.0000 C   0  0  0  0  0  0  0  0  0  0  0  0
   -1.3000    0.3800    0.0000 C   0  0  0  0  0  0  0  0  0  0  0  0
    2.5967    1.1340    0.0000 N   0  0  0  0  0  0  0  0  0  0  0  0
    3.8981    0.3879    0.0000 O   0  0  0  0  0  0  0  0  0  0  0  0
    2.5922    2.6340    0.0000 O   0  0  0  0  0  0  0  0  0  0  0  0
   -2.5967    1.1340    0.0000 O   0  0  0  0  0  0  0  0  0  0  0  0
  3  2  2  0
  4  2  1  0
  6  3  1  0
  6  5  2  0
  7  4  2  0
  7  5  1  0
  8  6  1  0
  9  8  1  0
 10  8  2  0
 11  1  1  0
 11  7  1  0
M  CHG  2   8   1   9  -1
M  END
>  <NAME>  (4199) 
3-NITROANISOL

>  <SYNONYMS>  (4199) 


>  <SPECTRUM TYPE>  (4199) 
MS1

>  <INSTRUMENT TYPE>  (4199) 
EI-B

>  <INSTRUMENT>  (4199) 
HITACHI M-80

>  <ION MODE>  (4199) 
P

>  <INCHIKEY>  (4199) 
WGYFINWERLNPHR-UHFFFAOYSA-N

>  <FORMULA>  (4199) 
C7H7NO3

>  <EXACT MASS>  (4199) 
153.04259308399998

>  <MW>  (4199) 
153

>  <ID>  (4199) 
JP006264

>  <CONTRIBUTOR>  (4199) 
University of Tokyo Team, {Faculty of Engineering, University of Tokyo

>  <COMMENT>  (4199) 
SMILES=COc(c1)cc(cc1)[N+1]([O-1])=O
cas=555-03-3
InChI=InChI=1S/C7H7NO3/c1-11-7-4-2-3-6(5-7)8(9)10/h2-5H,1H3
computed SMILES=O=N(=O)C=1C=CC=C(OC)C1
accession=JP006264
date=2016.01.19 (Created 2008.10.21, modified 2011.05.06)
author=MASS SPECTROSCOPY SOC. OF JAPAN (MSSJ)
license=CC BY-NC-SA
exact mass=153.04259
ionization energy=70 eV
ion type=[M]+*
computed spectral entropy=2.6710588723938185
computed normalized entropy=0.7342943246173809
SPLASH=splash10-0udl-9500000000-d3180d15d0d07e0b4c67
submitter=submitter = University of Tokyo Team (Faculty of Engineering, University of Tokyo)
MoNA Rating=3.75

>  <NUM PEAKS>  (4199) 
38

>  <MASS SPECTRAL PEAKS>  (4199) 
15 0.5
37 1.27
38 5.41
39 2.68
41 1.87
46 1.21
50 10.3
51 4.8
52 3.05
53 2.57
61 1.92
62 6.6
63 26.6
64 25.06
65 3.7
66 1.03
67 0.65
73 1.07
74 5.61
75 5.12
76 7.54
77 54.99
78 5
79 3.31
80 2.3
92 60.1
93 4.9
94 0.56
95 17.28
96 1.17
106 0.92
107 42
108 4.54
123 2.28
137 1.13
153 99.99
154 8.3
155 0.93

$$$$

     RDKit          2D

 10 10  0  0  0  0  0  0  0  0999 V2000
   -2.5989    1.5002    0.0000 C   0  0  0  0  0  0  0  0  0  0  0  0
   -1.3000   -0.7500    0.0000 C   0  0  0  0  0  0  0  0  0  0  0  0
    0.0000    1.5000    0.0000 C   0  0  0  0  0  0  0  0  0  0  0  0
    0.0000   -1.5000    0.0000 C   0  0  0  0  0  0  0  0  0  0  0  0
    1.3000    0.7500    0.0000 C   0  0  0  0  0  0  0  0  0  0  0  0
   -1.3000    0.7500    0.0000 C   0  0  0  0  0  0  0  0  0  0  0  0
    1.3000   -0.7500    0.0000 C   0  0  0  0  0  0  0  0  0  0  0  0
    2.5989   -1.5002    0.0000 N   0  0  0  0  0  0  0  0  0  0  0  0
    3.8981   -0.7504    0.0000 O   0  0  0  0  0  0  0  0  0  0  0  0
    2.5987   -3.0002    0.0000 O   0  0  0  0  0  0  0  0  0  0  0  0
  4  2  2  0
  5  3  1  0
  6  1  1  0
  6  2  1  0
  6  3  2  0
  7  4  1  0
  7  5  2  0
  8  7  1  0
  9  8  1  0
 10  8  2  0
M  CHG  2   8   1   9  -1
M  END
>  <NAME>  (4200) 
4-NITROTOLUENE

>  <SYNONYMS>  (4200) 


>  <SPECTRUM TYPE>  (4200) 
MS1

>  <INSTRUMENT TYPE>  (4200) 
EI-B

>  <INSTRUMENT>  (4200) 
HITACHI M-80

>  <ION MODE>  (4200) 
P

>  <INCHIKEY>  (4200) 
ZPTVNYMJQHSSEA-UHFFFAOYSA-N

>  <FORMULA>  (4200) 
C7H7NO2

>  <EXACT MASS>  (4200) 
137.047678464

>  <MW>  (4200) 
137

>  <ID>  (4200) 
JP006263

>  <CONTRIBUTOR>  (4200) 
University of Tokyo Team, {Faculty of Engineering, University of Tokyo

>  <COMMENT>  (4200) 
SMILES=Cc(c1)ccc(c1)[N+1]([O-1])=O
cas=99-99-0
InChI=InChI=1S/C7H7NO2/c1-6-2-4-7(5-3-6)8(9)10/h2-5H,1H3
computed SMILES=O=N(=O)C1=CC=C(C=C1)C
accession=JP006263
date=2016.01.19 (Created 2008.10.21, modified 2011.05.06)
author=MASS SPECTROSCOPY SOC. OF JAPAN (MSSJ)
license=CC BY-NC-SA
exact mass=137.04768
ionization energy=70 eV
ion type=[M]+*
computed spectral entropy=2.8388459145701246
computed normalized entropy=0.7595229660437312
SPLASH=splash10-000l-9300000000-58923284bdcd815b5ebb
submitter=submitter = University of Tokyo Team (Faculty of Engineering, University of Tokyo)
MoNA Rating=3.75

>  <NUM PEAKS>  (4200) 
42

>  <MASS SPECTRAL PEAKS>  (4200) 
26 1.35
27 3.53
28 1.01
30 10.88
37 1.68
38 4.5
39 24.35
40 1.63
41 4.98
46 4.75
49 0.88
50 9.05
51 12.2
52 3.94
53 2.95
61 2.76
62 7.93
63 20.49
64 5.35
65 58.87
66 3.27
74 2.23
75 2.08
76 1.24
77 16.51
78 4.16
79 16.52
80 1.12
85 0.93
86 1.79
87 1.53
88 0.52
89 13.84
90 4.97
91 99.99
92 8.15
107 26.2
108 2.03
121 3.29
137 81.2
138 7.86
139 0.66

$$$$

     RDKit          2D

 12 13  0  0  0  0  0  0  0  0999 V2000
    4.8381    0.6104    0.0000 C   0  0  0  0  0  0  0  0  0  0  0  0
    3.5389    1.3602    0.0000 C   0  0  0  0  0  0  0  0  0  0  0  0
   -2.9500   -0.8900    0.0000 C   0  0  0  0  0  0  0  0  0  0  0  0
   -2.9500    0.6100    0.0000 C   0  0  0  0  0  0  0  0  0  0  0  0
   -1.6500   -1.6400    0.0000 C   0  0  0  0  0  0  0  0  0  0  0  0
   -1.6500    1.3600    0.0000 C   0  0  0  0  0  0  0  0  0  0  0  0
    2.2400   -0.8900    0.0000 C   0  0  0  0  0  0  0  0  0  0  0  0
    0.9400   -1.6400    0.0000 C   0  0  0  0  0  0  0  0  0  0  0  0
    0.9400    1.3600    0.0000 C   0  0  0  0  0  0  0  0  0  0  0  0
    2.2400    0.6100    0.0000 C   0  0  0  0  0  0  0  0  0  0  0  0
   -0.3500   -0.8900    0.0000 C   0  0  0  0  0  0  0  0  0  0  0  0
   -0.3500    0.6100    0.0000 C   0  0  0  0  0  0  0  0  0  0  0  0
  2  1  2  0
  4  3  2  0
  5  3  1  0
  6  4  1  0
  8  7  2  0
 10  2  1  0
 10  7  1  0
 10  9  2  0
 11  5  2  0
 11  8  1  0
 12  6  2  0
 12  9  1  0
 12 11  1  0
M  END
>  <NAME>  (4201) 
2-VINYLNAPHTHALENE

>  <SYNONYMS>  (4201) 


>  <SPECTRUM TYPE>  (4201) 
MS1

>  <INSTRUMENT TYPE>  (4201) 
EI-B

>  <INSTRUMENT>  (4201) 
HITACHI M-80

>  <ION MODE>  (4201) 
P

>  <INCHIKEY>  (4201) 
KXYAVSFOJVUIHT-UHFFFAOYSA-N

>  <FORMULA>  (4201) 
C12H10

>  <EXACT MASS>  (4201) 
154.07825032

>  <MW>  (4201) 
154

>  <ID>  (4201) 
JP006262

>  <CONTRIBUTOR>  (4201) 
University of Tokyo Team, {Faculty of Engineering, University of Tokyo

>  <COMMENT>  (4201) 
SMILES=C=Cc(c1)cc(c2)c(ccc2)c1
cas=827-54-3
InChI=InChI=1S/C12H10/c1-2-10-7-8-11-5-3-4-6-12(11)9-10/h2-9H,1H2
computed SMILES=C=CC=1C=CC=2C=CC=CC2C1
accession=JP006262
date=2016.01.19 (Created 2008.10.21, modified 2011.05.06)
author=MASS SPECTROSCOPY SOC. OF JAPAN (MSSJ)
license=CC BY-NC-SA
exact mass=154.07825
ionization energy=70 eV
ion type=[M]+*
computed spectral entropy=2.6952716970979456
computed normalized entropy=0.7257895225095023
SPLASH=splash10-0udi-3900000000-16808a92f795606de84d
submitter=submitter = University of Tokyo Team (Faculty of Engineering, University of Tokyo)
MoNA Rating=3.75

>  <NUM PEAKS>  (4201) 
41

>  <MASS SPECTRAL PEAKS>  (4201) 
38 1.63
39 4.58
50 5.56
51 7.05
52 1.26
61 1.17
62 3.45
63 8.56
64 4.01
65 0.85
74 5.11
75 5.87
76 13.13
77 7.26
78 0.93
86 1.82
87 2.65
88 0.65
89 1.59
98 1.93
99 1.24
100 0.72
101 1.98
102 2.48
113 1
114 0.3
115 4.19
116 0.41
125 0.63
126 4.91
127 5.24
128 10.53
129 1.14
139 2.47
150 2.95
151 8.22
152 27.04
153 41.55
154 99.99
155 13.19
156 0.81

$$$$

     RDKit          2D

 13 14  0  0  0  0  0  0  0  0999 V2000
   -3.5728   -0.6166    0.0000 C   0  0  0  0  0  0  0  0  0  0  0  0
   -2.2733   -1.3674    0.0000 C   0  0  0  0  0  0  0  0  0  0  0  0
   -3.5733    0.8843    0.0000 C   0  0  0  0  0  0  0  0  0  0  0  0
    2.9243    1.6330    0.0000 C   0  0  0  0  0  0  0  0  0  0  0  0
    2.9246    3.1330    0.0000 C   0  0  0  0  0  0  0  0  0  0  0  0
   -0.9742   -0.6174    0.0000 C   0  0  0  0  0  0  0  0  0  0  0  0
   -2.2742    1.6343    0.0000 C   0  0  0  0  0  0  0  0  0  0  0  0
    1.6242    0.8832    0.0000 C   0  0  0  0  0  0  0  0  0  0  0  0
    1.6247    3.8832    0.0000 C   0  0  0  0  0  0  0  0  0  0  0  0
   -0.9747    0.8834    0.0000 C   0  0  0  0  0  0  0  0  0  0  0  0
    0.3243    1.6334    0.0000 C   0  0  0  0  0  0  0  0  0  0  0  0
    0.3246    3.1334    0.0000 C   0  0  0  0  0  0  0  0  0  0  0  0
   -0.9742    3.8839    0.0000 O   0  0  0  0  0  0  0  0  0  0  0  0
  2  1  2  0
  3  1  1  0
  5  4  2  0
  6  2  1  0
  7  3  2  0
  8  4  1  0
  9  5  1  0
 10  6  2  0
 10  7  1  0
 11  8  2  0
 11 10  1  0
 12  9  2  0
 12 11  1  0
 13 12  1  0
M  END
>  <NAME>  (4202) 
2-PHENYL-PHENOL

>  <SYNONYMS>  (4202) 
2-HYDROXYBIPHENYL

>  <SPECTRUM TYPE>  (4202) 
MS1

>  <INSTRUMENT TYPE>  (4202) 
EI-B

>  <INSTRUMENT>  (4202) 
HITACHI M-80

>  <ION MODE>  (4202) 
P

>  <INCHIKEY>  (4202) 
LLEMOWNGBBNAJR-UHFFFAOYSA-N

>  <FORMULA>  (4202) 
C12H10O

>  <EXACT MASS>  (4202) 
170.07316494

>  <MW>  (4202) 
170

>  <ID>  (4202) 
JP006261

>  <CONTRIBUTOR>  (4202) 
University of Tokyo Team, {Faculty of Engineering, University of Tokyo

>  <COMMENT>  (4202) 
SMILES=Oc(c2)c(ccc2)c(c1)cccc1
cas=90-43-7
InChI=InChI=1S/C12H10O/c13-12-9-5-4-8-11(12)10-6-2-1-3-7-10/h1-9,13H
computed SMILES=OC=1C=CC=CC1C=2C=CC=CC2
accession=JP006261
date=2016.01.19 (Created 2008.10.21, modified 2011.05.06)
author=MASS SPECTROSCOPY SOC. OF JAPAN (MSSJ)
license=CC BY-NC-SA
exact mass=170.07316
ionization energy=70 eV
ion type=[M]+*
computed spectral entropy=2.318351079395297
computed normalized entropy=0.6126413588303206
SPLASH=splash10-00di-1900000000-f58c83912c81582962ec
submitter=submitter = University of Tokyo Team (Faculty of Engineering, University of Tokyo)
MoNA Rating=3.75

>  <NUM PEAKS>  (4202) 
44

>  <MASS SPECTRAL PEAKS>  (4202) 
38 0.79
39 3.35
40 0.28
50 1.46
51 2.44
52 0.62
62 1.3
63 3.75
64 0.82
65 1.14
74 1.16
75 1.29
76 1.01
77 1.65
78 0.5
84 0.43
85 0.75
86 0.65
87 1.04
88 0.61
89 2.21
90 0.46
91 0.77
102 1.44
103 0.52
113 0.9
114 0.9
115 15.18
116 1.91
139 4.33
140 1.2
141 20.01
142 8.25
143 0.84
144 0.81
151 0.54
152 0.8
153 0.73
155 1.03
168 3.2
169 33.72
170 99.99
171 12.99
172 1

$$$$

     RDKit          2D

  8  8  0  0  0  0  0  0  0  0999 V2000
    2.2733   -0.6175    0.0000 C   0  0  0  0  0  0  0  0  0  0  0  0
    2.2738    0.8833    0.0000 C   0  0  0  0  0  0  0  0  0  0  0  0
    0.9738   -1.3683    0.0000 C   0  0  0  0  0  0  0  0  0  0  0  0
    0.9748    1.6333    0.0000 C   0  0  0  0  0  0  0  0  0  0  0  0
   -0.3252   -0.6183    0.0000 C   0  0  0  0  0  0  0  0  0  0  0  0
   -1.6238    1.6325    0.0000 C   0  0  0  0  0  0  0  0  0  0  0  0
   -0.3248    0.8825    0.0000 C   0  0  0  0  0  0  0  0  0  0  0  0
   -2.9228    0.8825    0.0000 O   0  0  0  0  0  0  0  0  0  0  0  0
  2  1  2  0
  3  1  1  0
  4  2  1  0
  5  3  2  0
  7  4  2  0
  7  5  1  0
  7  6  1  0
  8  6  1  0
M  END
>  <NAME>  (4203) 
BENZYL ALCOHOL

>  <SYNONYMS>  (4203) 


>  <SPECTRUM TYPE>  (4203) 
MS1

>  <INSTRUMENT TYPE>  (4203) 
EI-B

>  <INSTRUMENT>  (4203) 
HITACHI M-80

>  <ION MODE>  (4203) 
P

>  <INCHIKEY>  (4203) 
WVDDGKGOMKODPV-UHFFFAOYSA-N

>  <FORMULA>  (4203) 
C7H8O

>  <EXACT MASS>  (4203) 
108.057514876

>  <MW>  (4203) 
108

>  <ID>  (4203) 
JP006260

>  <CONTRIBUTOR>  (4203) 
University of Tokyo Team, {Faculty of Engineering, University of Tokyo

>  <COMMENT>  (4203) 
SMILES=OCc(c1)cccc1
cas=100-51-6
InChI=InChI=1S/C7H8O/c8-6-7-4-2-1-3-5-7/h1-5,8H,6H2
computed SMILES=OCC=1C=CC=CC1
accession=JP006260
date=2016.01.19 (Created 2008.10.21, modified 2011.05.06)
author=MASS SPECTROSCOPY SOC. OF JAPAN (MSSJ)
license=CC BY-NC-SA
exact mass=108.05751
ion type=[M]+*
ionization energy=70 eV
computed spectral entropy=2.8118805608526114
computed normalized entropy=0.752308483098099
SPLASH=splash10-056r-9400000000-7a77e67486ae3b2dd855
submitter=submitter = University of Tokyo Team (Faculty of Engineering, University of Tokyo)
MoNA Rating=3.75

>  <NUM PEAKS>  (4203) 
42

>  <MASS SPECTRAL PEAKS>  (4203) 
26 2.15
27 7.7
28 2.31
29 6.94
30 0.88
31 5.64
37 2.29
38 4.89
39 14.53
40 1.19
41 1.11
49 1.59
50 14.14
51 27.66
52 7.52
53 6.29
54 0.99
55 0.97
61 1.7
62 3.85
63 8.02
64 1.73
65 7.39
66 0.78
73 0.98
74 4.45
75 2.56
76 2.17
77 53.62
78 12.99
79 99.99
80 10.62
81 0.97
89 6.76
90 7.81
91 17.53
92 1.49
105 5.37
106 2.4
107 63.38
108 88.51
109 7.01

$$$$

     RDKit          2D

 10 10  0  0  0  0  0  0  0  0999 V2000
   -3.9008    0.7413    0.0000 C   0  0  0  0  0  0  0  0  0  0  0  0
    0.0072   -1.5063    0.0000 C   0  0  0  0  0  0  0  0  0  0  0  0
    1.3207    0.7186    0.0000 C   0  0  0  0  0  0  0  0  0  0  0  0
   -1.2773   -0.7814    0.0000 C   0  0  0  0  0  0  0  0  0  0  0  0
   -0.0038    1.5127    0.0000 C   0  0  0  0  0  0  0  0  0  0  0  0
    2.6016   -1.5127    0.0000 C   0  0  0  0  0  0  0  0  0  0  0  0
    1.3062   -0.7563    0.0000 C   0  0  0  0  0  0  0  0  0  0  0  0
   -1.3028    0.7627    0.0000 C   0  0  0  0  0  0  0  0  0  0  0  0
    3.9043   -0.7691    0.0000 O   0  0  0  0  0  0  0  0  0  0  0  0
   -2.6080    1.5020    0.0000 O   0  0  0  0  0  0  0  0  0  0  0  0
  4  2  2  0
  5  3  1  0
  7  2  1  0
  7  3  2  0
  7  6  1  0
  8  4  1  0
  8  5  2  0
  9  6  1  0
 10  1  1  0
 10  8  1  0
M  END
>  <NAME>  (4204) 
4-METHOXYBENZYL ALCOHOL

>  <SYNONYMS>  (4204) 
4-ANISYL ALCOHOL

>  <SPECTRUM TYPE>  (4204) 
MS1

>  <INSTRUMENT TYPE>  (4204) 
EI-B

>  <INSTRUMENT>  (4204) 
HITACHI M-80

>  <ION MODE>  (4204) 
P

>  <INCHIKEY>  (4204) 
MSHFRERJPWKJFX-UHFFFAOYSA-N

>  <FORMULA>  (4204) 
C8H10O2

>  <EXACT MASS>  (4204) 
138.06807956

>  <MW>  (4204) 
138

>  <ID>  (4204) 
JP006259

>  <CONTRIBUTOR>  (4204) 
University of Tokyo Team, {Faculty of Engineering, University of Tokyo

>  <COMMENT>  (4204) 
SMILES=OCc(c1)ccc(OC)c1
cas=105-13-5
InChI=InChI=1S/C8H10O2/c1-10-8-4-2-7(6-9)3-5-8/h2-5,9H,6H2,1H3
computed SMILES=OCC1=CC=C(OC)C=C1
accession=JP006259
date=2016.01.19 (Created 2008.10.21, modified 2011.05.06)
author=MASS SPECTROSCOPY SOC. OF JAPAN (MSSJ)
license=CC BY-NC-SA
exact mass=138.06808
ionization energy=70 eV
ion type=[M]+*
computed spectral entropy=3.507815246825587
computed normalized entropy=0.8175849917571252
SPLASH=splash10-052r-9800000000-cfcd0815c0a87cd7d527
submitter=submitter = University of Tokyo Team (Faculty of Engineering, University of Tokyo)
MoNA Rating=3.75

>  <NUM PEAKS>  (4204) 
73

>  <MASS SPECTRAL PEAKS>  (4204) 
14 2.34
15 13.29
29 11.49
30 1.51
31 10.07
32 5.38
37 1.78
38 5.67
39 22.96
40 4.49
41 14.46
42 1.26
43 3.66
44 1.03
50 10.81
51 19.08
52 7.63
53 6.14
55 4.42
56 0.83
57 1.9
61 2.42
62 5.48
63 13.83
64 9.4
65 15.86
66 13.44
67 11.41
68 1.91
69 1.74
70 0.65
71 1.29
73 0.9
74 3.97
75 2.22
76 3.08
77 48.68
78 19.64
79 20.45
80 1.67
81 2.3
82 0.64
83 0.86
84 0.68
85 0.73
89 5.4
90 1.51
91 9.07
92 10.03
93 3.03
94 28.4
95 7.32
96 0.75
97 0.84
105 14.43
106 7.6
107 29.42
108 4.13
109 72.72
110 6.64
111 0.88
119 1.3
120 2.5
121 53.17
122 5.82
123 6.23
124 0.91
135 6.92
136 2.73
137 66.69
138 99.99
139 9.32
140 0.79

$$$$

     RDKit          2D

 12 12  0  0  0  0  0  0  0  0999 V2000
   -2.3389   -1.9502    0.0000 C   0  0  0  0  0  0  0  0  0  0  0  0
    1.5600   -1.2000    0.0000 C   0  0  0  0  0  0  0  0  0  0  0  0
    2.8589    1.0502    0.0000 C   0  0  0  0  0  0  0  0  0  0  0  0
    0.2600    2.5500    0.0000 C   0  0  0  0  0  0  0  0  0  0  0  0
   -1.0400   -1.2000    0.0000 C   0  0  0  0  0  0  0  0  0  0  0  0
    1.5600    0.3000    0.0000 C   0  0  0  0  0  0  0  0  0  0  0  0
    0.2600    1.0500    0.0000 C   0  0  0  0  0  0  0  0  0  0  0  0
   -1.0400    0.3000    0.0000 C   0  0  0  0  0  0  0  0  0  0  0  0
    0.2600   -1.9500    0.0000 N   0  0  0  0  0  0  0  0  0  0  0  0
    4.1581    0.3004    0.0000 O   0  0  0  0  0  0  0  0  0  0  0  0
   -1.0390    3.3000    0.0000 O   0  0  0  0  0  0  0  0  0  0  0  0
   -2.3389    1.0502    0.0000 O   0  0  0  0  0  0  0  0  0  0  0  0
  5  1  1  0
  6  2  2  0
  6  3  1  0
  7  4  1  0
  7  6  1  0
  8  5  1  0
  8  7  2  0
  9  2  1  0
  9  5  2  0
 10  3  1  0
 11  4  1  0
 12  8  1  0
M  END
>  <NAME>  (4205) 
PYRIDOXINE

>  <SYNONYMS>  (4205) 
VITAMIN B6

>  <SPECTRUM TYPE>  (4205) 
MS1

>  <INSTRUMENT TYPE>  (4205) 
EI-B

>  <INSTRUMENT>  (4205) 
HITACHI M-80

>  <ION MODE>  (4205) 
P

>  <INCHIKEY>  (4205) 
LXNHXLLTXMVWPM-UHFFFAOYSA-N

>  <FORMULA>  (4205) 
C8H11NO3

>  <EXACT MASS>  (4205) 
169.07389321199997

>  <MW>  (4205) 
169

>  <ID>  (4205) 
JP006258

>  <CONTRIBUTOR>  (4205) 
University of Tokyo Team, {Faculty of Engineering, University of Tokyo

>  <COMMENT>  (4205) 
SMILES=OCc(c1)c(CO)c(O)c(C)n1
cas=58-56-0
InChI=InChI=1S/C8H11NO3/c1-5-8(12)7(4-11)6(3-10)2-9-5/h2,10-12H,3-4H2,1H3
computed SMILES=OC=1C(=NC=C(C1CO)CO)C
accession=JP006258
date=2016.01.19 (Created 2008.10.21, modified 2011.05.06)
author=MASS SPECTROSCOPY SOC. OF JAPAN (MSSJ)
license=CC BY-NC-SA
exact mass=169.07389
ionization energy=70 eV
ion type=[M]+*
computed spectral entropy=3.651919231949723
computed normalized entropy=0.8407188806333078
SPLASH=splash10-0f6x-9400000000-486db54a30b61c2eb9d4
submitter=submitter = University of Tokyo Team (Faculty of Engineering, University of Tokyo)
MoNA Rating=3.75

>  <NUM PEAKS>  (4205) 
77

>  <MASS SPECTRAL PEAKS>  (4205) 
15 2.82
26 3.59
27 13.83
28 20.59
29 10.24
30 1.2
31 14.79
32 4.31
37 1.39
38 5.15
39 31.7
40 5.07
41 8.9
42 21.19
43 7.57
44 0.89
50 7.28
51 19.99
52 13.53
53 22.47
54 17.63
55 7.76
56 0.59
57 1.01
58 0.56
61 0.97
62 1.63
63 4.22
64 3.87
65 8.02
66 6.89
67 9.47
68 3.8
69 2.07
70 0.93
74 0.94
75 0.93
76 1.15
77 4.81
78 3.53
79 4.99
80 14.11
81 18.68
82 14.84
83 1.56
91 2.39
92 5.1
93 5.12
94 99.99
95 11.39
96 1.2
104 1.29
105 3.98
106 47.78
107 10.65
108 7.06
109 1.75
110 2.03
120 4.65
121 1.89
122 24.14
123 9.04
124 1.65
133 5.01
134 2.21
135 0.77
136 9.76
137 1.19
138 2.09
149 0.75
150 7.5
151 45.73
152 4.63
153 1.28
169 42.64
170 4.62
171 0.62

$$$$

     RDKit          2D

 11 11  0  0  0  0  0  0  0  0999 V2000
    3.5726    0.8821    0.0000 C   0  0  0  0  0  0  0  0  0  0  0  0
    3.5731    2.3829    0.0000 C   0  0  0  0  0  0  0  0  0  0  0  0
    2.2731    0.1313    0.0000 C   0  0  0  0  0  0  0  0  0  0  0  0
    2.2740    3.1329    0.0000 C   0  0  0  0  0  0  0  0  0  0  0  0
    0.9740    0.8813    0.0000 C   0  0  0  0  0  0  0  0  0  0  0  0
   -2.9226    3.1321    0.0000 C   0  0  0  0  0  0  0  0  0  0  0  0
   -4.2216    2.3821    0.0000 C   0  0  0  0  0  0  0  0  0  0  0  0
   -0.3245    3.1321    0.0000 C   0  0  0  0  0  0  0  0  0  0  0  0
    0.9745    2.3821    0.0000 C   0  0  0  0  0  0  0  0  0  0  0  0
   -1.6236    2.3821    0.0000 N   0  0  0  0  0  0  0  0  0  0  0  0
   -5.5207    3.1321    0.0000 O   0  0  0  0  0  0  0  0  0  0  0  0
  2  1  2  0
  3  1  1  0
  4  2  1  0
  5  3  2  0
  7  6  1  0
  9  4  2  0
  9  5  1  0
  9  8  1  0
 10  6  1  0
 10  8  1  0
 11  7  1  0
M  END
>  <NAME>  (4206) 
N-BENZYLETHANOLAMINE

>  <SYNONYMS>  (4206) 
2-BENZYLAMINOETHANOL

>  <SPECTRUM TYPE>  (4206) 
MS1

>  <INSTRUMENT TYPE>  (4206) 
EI-B

>  <INSTRUMENT>  (4206) 
HITACHI M-80

>  <ION MODE>  (4206) 
P

>  <INCHIKEY>  (4206) 
XNIOWJUQPMKCIJ-UHFFFAOYSA-N

>  <FORMULA>  (4206) 
C9H13NO

>  <EXACT MASS>  (4206) 
151.099714036

>  <MW>  (4206) 
151

>  <ID>  (4206) 
JP006257

>  <CONTRIBUTOR>  (4206) 
University of Tokyo Team, {Faculty of Engineering, University of Tokyo

>  <COMMENT>  (4206) 
SMILES=OCCNCc(c1)cccc1
cas=104-63-2
InChI=InChI=1S/C9H13NO/c11-7-6-10-8-9-4-2-1-3-5-9/h1-5,10-11H,6-8H2
computed SMILES=OCCNCC=1C=CC=CC1
accession=JP006257
date=2016.01.19 (Created 2008.10.21, modified 2011.05.06)
author=MASS SPECTROSCOPY SOC. OF JAPAN (MSSJ)
license=CC BY-NC-SA
exact mass=151.09971
ionization energy=70 eV
ion type=[M]+*
computed spectral entropy=2.07399219315726
computed normalized entropy=0.583344346963436
SPLASH=splash10-0006-9300000000-b9090d33416de71cf94d
submitter=submitter = University of Tokyo Team (Faculty of Engineering, University of Tokyo)
MoNA Rating=3.75

>  <NUM PEAKS>  (4206) 
35

>  <MASS SPECTRAL PEAKS>  (4206) 
27 1.24
28 3.83
29 1.48
30 2.85
31 2.85
39 3.29
41 1.33
42 1.12
43 0.85
50 0.95
51 2.49
52 0.75
56 1.08
63 2.06
64 0.64
65 8.75
66 0.53
74 1.34
77 2.23
78 0.83
79 1.18
89 2.07
90 1.21
91 99.99
92 8.83
104 0.85
105 1.13
106 2.89
117 0.56
118 1.71
120 48.53
121 4.62
150 0.64
151 2.58
152 1.07

$$$$

     RDKit          2D

 11 11  0  0  0  0  0  0  0  0999 V2000
    2.2420    3.2180    0.0000 C   0  0  0  0  0  0  0  0  0  0  0  0
    3.5249    2.4903    0.0000 C   0  0  0  0  0  0  0  0  0  0  0  0
    0.9649    2.4656    0.0000 C   0  0  0  0  0  0  0  0  0  0  0  0
    3.5611    0.9907    0.0000 C   0  0  0  0  0  0  0  0  0  0  0  0
   -0.3239    0.2280    0.0000 C   0  0  0  0  0  0  0  0  0  0  0  0
    0.9708    0.9855    0.0000 C   0  0  0  0  0  0  0  0  0  0  0  0
    2.2537    0.2578    0.0000 C   0  0  0  0  0  0  0  0  0  0  0  0
    2.2499   -1.2422    0.0000 N   0  0  0  0  0  0  0  0  0  0  0  0
   -1.6273    0.9705    0.0000 O   0  0  0  0  0  0  0  0  0  0  0  0
    3.5470   -1.9955    0.0000 O   0  0  0  0  0  0  0  0  0  0  0  0
    0.9490   -1.9889    0.0000 O   0  0  0  0  0  0  0  0  0  0  0  0
  2  1  2  0
  3  1  1  0
  4  2  1  0
  6  3  2  0
  6  5  1  0
  7  4  2  0
  7  6  1  0
  8  7  1  0
  9  5  1  0
 10  8  1  0
 11  8  2  0
M  CHG  2   8   1  10  -1
M  END
>  <NAME>  (4207) 
2-NITROBENZYL ALCOHOL

>  <SYNONYMS>  (4207) 


>  <SPECTRUM TYPE>  (4207) 
MS1

>  <INSTRUMENT TYPE>  (4207) 
EI-B

>  <INSTRUMENT>  (4207) 
HITACHI M-80

>  <ION MODE>  (4207) 
P

>  <INCHIKEY>  (4207) 
BWRBVBFLFQKBPT-UHFFFAOYSA-N

>  <FORMULA>  (4207) 
C7H7NO3

>  <EXACT MASS>  (4207) 
153.042593084

>  <MW>  (4207) 
153

>  <ID>  (4207) 
JP006256

>  <CONTRIBUTOR>  (4207) 
University of Tokyo Team, {Faculty of Engineering, University of Tokyo

>  <COMMENT>  (4207) 
SMILES=OCc(c1)c(ccc1)[N+1]([O-1])=O
cas=612-25-9
InChI=InChI=1S/C7H7NO3/c9-5-6-3-1-2-4-7(6)8(10)11/h1-4,9H,5H2
computed SMILES=O=N(=O)C=1C=CC=CC1CO
accession=JP006256
date=2016.01.19 (Created 2008.10.21, modified 2011.05.06)
author=MASS SPECTROSCOPY SOC. OF JAPAN (MSSJ)
license=CC BY-NC-SA
exact mass=153.04259
ionization energy=70 eV
ion type=[M]+*
computed spectral entropy=2.9399099946499834
computed normalized entropy=0.7723064502173312
SPLASH=splash10-004i-9100000000-cb66ab7814f3e732b336
submitter=submitter = University of Tokyo Team (Faculty of Engineering, University of Tokyo)
MoNA Rating=3.75

>  <NUM PEAKS>  (4207) 
45

>  <MASS SPECTRAL PEAKS>  (4207) 
30 6.95
31 2.95
37 1.01
38 2.3
39 11.99
40 1.33
41 4.35
46 1.03
47 1.17
50 11.21
51 28.71
52 21.37
53 10.45
54 0.63
55 1.81
61 0.94
62 2.51
63 7.69
64 12.89
65 14.28
66 2.25
67 2.11
74 3.25
75 2.88
76 6.98
77 99.99
78 23.27
79 75.09
80 8.47
81 1.31
89 3.44
90 3.56
91 40.77
94 1.57
95 1.52
104 3.99
105 23.47
106 3.75
107 2.8
108 2.4
119 1.15
120 2.43
121 2.08
135 12.46
136 2.01

$$$$

     RDKit          2D

 16 17  0  0  0  0  0  0  0  0999 V2000
   -3.8977    4.8202    0.0000 C   0  0  0  0  0  0  0  0  0  0  0  0
   -2.5988    2.5696    0.0000 C   0  0  0  0  0  0  0  0  0  0  0  0
   -5.1971    4.0692    0.0000 C   0  0  0  0  0  0  0  0  0  0  0  0
   -3.8982    1.8185    0.0000 C   0  0  0  0  0  0  0  0  0  0  0  0
    1.2990    4.8212    0.0000 C   0  0  0  0  0  0  0  0  0  0  0  0
   -0.0010    2.5696    0.0000 C   0  0  0  0  0  0  0  0  0  0  0  0
    2.5981    4.0712    0.0000 C   0  0  0  0  0  0  0  0  0  0  0  0
    1.2981    1.8196    0.0000 C   0  0  0  0  0  0  0  0  0  0  0  0
   -1.2995    4.8204    0.0000 C   0  0  0  0  0  0  0  0  0  0  0  0
   -2.5986    4.0704    0.0000 C   0  0  0  0  0  0  0  0  0  0  0  0
   -0.0005    4.0704    0.0000 C   0  0  0  0  0  0  0  0  0  0  0  0
   -5.1974    2.5683    0.0000 C   0  0  0  0  0  0  0  0  0  0  0  0
    2.5976    2.5704    0.0000 N   0  0  0  0  0  0  0  0  0  0  0  0
   -6.4964    1.8183    0.0000 N   0  0  0  0  0  0  0  0  0  0  0  0
   -7.7954    2.5683    0.0000 O   0  0  0  0  0  0  0  0  0  0  0  0
   -6.4964    0.3183    0.0000 O   0  0  0  0  0  0  0  0  0  0  0  0
  3  1  2  0
  4  2  1  0
  7  5  2  0
  8  6  1  0
 10  1  1  0
 10  2  2  0
 10  9  1  0
 11  5  1  0
 11  6  2  0
 11  9  1  0
 12  3  1  0
 12  4  2  0
 13  7  1  0
 13  8  2  0
 14 12  1  0
 15 14  1  0
 16 14  2  0
M  CHG  2  14   1  15  -1
M  END
>  <NAME>  (4208) 
4-(4-NITROBENZYL)PYRIDINE

>  <SYNONYMS>  (4208) 


>  <SPECTRUM TYPE>  (4208) 
MS1

>  <INSTRUMENT TYPE>  (4208) 
EI-B

>  <INSTRUMENT>  (4208) 
HITACHI M-80

>  <ION MODE>  (4208) 
P

>  <INCHIKEY>  (4208) 
MNHKUCBXXMFQDM-UHFFFAOYSA-N

>  <FORMULA>  (4208) 
C12H10N2O2

>  <EXACT MASS>  (4208) 
214.07422756

>  <MW>  (4208) 
214

>  <ID>  (4208) 
JP006255

>  <CONTRIBUTOR>  (4208) 
University of Tokyo Team, {Faculty of Engineering, University of Tokyo

>  <COMMENT>  (4208) 
SMILES=[O-1][N+1](=O)c(c2)ccc(c2)Cc(c1)ccnc1
cas=1083-48-3
InChI=InChI=1S/C12H10N2O2/c15-14(16)12-3-1-10(2-4-12)9-11-5-7-13-8-6-11/h1-8H,9H2
computed SMILES=O=N(=O)C1=CC=C(C=C1)CC=2C=CN=CC2
accession=JP006255
date=2016.01.19 (Created 2008.10.21, modified 2011.05.06)
author=MASS SPECTROSCOPY SOC. OF JAPAN (MSSJ)
license=CC BY-NC-SA
exact mass=214.07423
ionization energy=70 eV
ion type=[M]+*
computed spectral entropy=3.217654981812786
computed normalized entropy=0.7523746049535148
SPLASH=splash10-02t9-3940000000-5f69fdcb9427ffac5e02
submitter=submitter = University of Tokyo Team (Faculty of Engineering, University of Tokyo)
MoNA Rating=3.75

>  <NUM PEAKS>  (4208) 
72

>  <MASS SPECTRAL PEAKS>  (4208) 
30 6.99
32 1.55
38 1.39
39 9.8
40 0.85
41 1.06
50 5.87
51 11.34
52 2.93
53 0.66
54 1.71
55 0.54
57 1.19
61 0.53
62 3.19
63 10.35
64 3.08
65 6.99
66 0.67
74 1.85
75 2.34
76 2.2
77 5.83
78 5.95
79 1.02
84 3.03
86 1.02
87 1.82
88 1.37
91 1.88
92 2.63
93 0.5
101 0.8
102 2.27
103 1.13
106 1.49
107 3.55
113 1.99
114 2.3
115 15.71
116 3.07
117 1.81
126 1.1
127 2.64
128 4.57
129 2.23
130 1.09
138 0.84
139 16.11
140 9.03
141 8.64
142 1.65
153 0.96
154 3.52
155 1.85
156 10.45
157 1.46
164 0.54
165 1.08
166 13.26
167 75.31
168 47.74
169 6.23
183 1.28
184 7.72
185 1.06
197 4.28
198 1.44
213 2.34
214 99.99
215 14.16
216 1.41

$$$$

     RDKit          2D

  9  9  0  0  0  0  0  0  0  0999 V2000
    3.8981    1.5002    0.0000 C   0  0  0  0  0  0  0  0  0  0  0  0
    2.5992   -0.7500    0.0000 C   0  0  0  0  0  0  0  0  0  0  0  0
    1.2992    1.5000    0.0000 C   0  0  0  0  0  0  0  0  0  0  0  0
    1.2992   -1.5000    0.0000 C   0  0  0  0  0  0  0  0  0  0  0  0
   -0.0008    0.7500    0.0000 C   0  0  0  0  0  0  0  0  0  0  0  0
   -1.2998   -1.5002    0.0000 C   0  0  0  0  0  0  0  0  0  0  0  0
    2.5992    0.7500    0.0000 C   0  0  0  0  0  0  0  0  0  0  0  0
   -0.0008   -0.7500    0.0000 C   0  0  0  0  0  0  0  0  0  0  0  0
   -2.5989   -0.7504    0.0000 O   0  0  0  0  0  0  0  0  0  0  0  0
  4  2  2  0
  5  3  1  0
  7  1  1  0
  7  2  1  0
  7  3  2  0
  8  4  1  0
  8  5  2  0
  8  6  1  0
  9  6  1  0
M  END
>  <NAME>  (4209) 
4-METHYLBENZYL ALCOHOL

>  <SYNONYMS>  (4209) 


>  <SPECTRUM TYPE>  (4209) 
MS1

>  <INSTRUMENT TYPE>  (4209) 
EI-B

>  <INSTRUMENT>  (4209) 
HITACHI M-80

>  <ION MODE>  (4209) 
P

>  <INCHIKEY>  (4209) 
KMTDMTZBNYGUNX-UHFFFAOYSA-N

>  <FORMULA>  (4209) 
C8H10O

>  <EXACT MASS>  (4209) 
122.07316494

>  <MW>  (4209) 
122

>  <ID>  (4209) 
JP006254

>  <CONTRIBUTOR>  (4209) 
University of Tokyo Team, {Faculty of Engineering, University of Tokyo

>  <COMMENT>  (4209) 
SMILES=OCc(c1)ccc(C)c1
cas=589-18-4
InChI=InChI=1S/C8H10O/c1-7-2-4-8(6-9)5-3-7/h2-5,9H,6H2,1H3
computed SMILES=OCC1=CC=C(C=C1)C
accession=JP006254
date=2016.01.19 (Created 2008.10.21, modified 2011.05.06)
author=MASS SPECTROSCOPY SOC. OF JAPAN (MSSJ)
license=CC BY-NC-SA
exact mass=122.07316
ionization energy=70 eV
ion type=[M]+*
computed spectral entropy=2.9549825387321156
computed normalized entropy=0.7674985076986784
SPLASH=splash10-0adl-9700000000-b8f40122b485bec634a9
submitter=submitter = University of Tokyo Team (Faculty of Engineering, University of Tokyo)
MoNA Rating=3.75

>  <NUM PEAKS>  (4209) 
47

>  <MASS SPECTRAL PEAKS>  (4209) 
15 0.77
28 1.58
29 3.47
31 3.22
38 1.69
39 14.88
40 1.62
41 4.45
50 4.14
51 11.17
52 3.2
53 4.37
60 2.72
61 0.88
62 2.76
63 8.9
64 2.2
65 18.83
66 2
67 0.56
74 1.29
75 1.31
76 1.17
77 45.16
78 11.69
79 57.07
80 3.97
89 5.55
90 2.26
91 50.83
92 5.93
93 43.94
94 3.93
102 1.4
103 7.19
104 13.69
105 22.81
106 5.89
107 99.99
108 7.69
109 0.46
119 4.61
120 1.88
121 17.04
122 93.71
123 8.24
124 0.49

$$$$

     RDKit          2D

 18 17  0  0  0  0  0  0  0  0999 V2000
  -15.5885    9.0000    0.0000 C   0  0  0  0  0  0  0  0  0  0  0  0
  -14.2894    8.2500    0.0000 C   0  0  0  0  0  0  0  0  0  0  0  0
  -12.9904    9.0000    0.0000 C   0  0  0  0  0  0  0  0  0  0  0  0
  -11.6913    8.2500    0.0000 C   0  0  0  0  0  0  0  0  0  0  0  0
  -10.3923    9.0000    0.0000 C   0  0  0  0  0  0  0  0  0  0  0  0
   -9.0933    8.2500    0.0000 C   0  0  0  0  0  0  0  0  0  0  0  0
   -7.7942    9.0000    0.0000 C   0  0  0  0  0  0  0  0  0  0  0  0
   -6.4952    8.2500    0.0000 C   0  0  0  0  0  0  0  0  0  0  0  0
   -5.1962    9.0000    0.0000 C   0  0  0  0  0  0  0  0  0  0  0  0
   -3.8971    8.2500    0.0000 C   0  0  0  0  0  0  0  0  0  0  0  0
   -2.5981    9.0000    0.0000 C   0  0  0  0  0  0  0  0  0  0  0  0
   -1.2990    8.2500    0.0000 C   0  0  0  0  0  0  0  0  0  0  0  0
    0.0000    9.0000    0.0000 C   0  0  0  0  0  0  0  0  0  0  0  0
    1.2990    8.2500    0.0000 C   0  0  0  0  0  0  0  0  0  0  0  0
    2.5981    9.0000    0.0000 C   0  0  0  0  0  0  0  0  0  0  0  0
    3.8971    8.2500    0.0000 C   0  0  0  0  0  0  0  0  0  0  0  0
    3.8971    6.7500    0.0000 O   0  0  0  0  0  0  0  0  0  0  0  0
    5.1962    9.0000    0.0000 O   0  0  0  0  0  0  0  0  0  0  0  0
  2  1  1  0
  3  2  1  0
  4  3  1  0
  5  4  1  0
  6  5  1  0
  7  6  1  0
  8  7  1  0
  9  8  1  0
 10  9  1  0
 11 10  1  0
 12 11  1  0
 13 12  1  0
 14 13  1  0
 15 14  1  0
 16 15  1  0
 17 16  2  0
 18 16  1  0
M  END
>  <NAME>  (4210) 
PALMITIC ACID

>  <SYNONYMS>  (4210) 


>  <SPECTRUM TYPE>  (4210) 
MS1

>  <INSTRUMENT TYPE>  (4210) 
EI-B

>  <INSTRUMENT>  (4210) 
HITACHI M-80

>  <ION MODE>  (4210) 
P

>  <INCHIKEY>  (4210) 
IPCSVZSSVZVIGE-UHFFFAOYSA-N

>  <FORMULA>  (4210) 
C16H32O2

>  <EXACT MASS>  (4210) 
256.240230264

>  <MW>  (4210) 
256

>  <ID>  (4210) 
JP006253

>  <CONTRIBUTOR>  (4210) 
University of Tokyo Team, {Faculty of Engineering, University of Tokyo

>  <COMMENT>  (4210) 
SMILES=CCCCCCCCCCCCCCCC(O)=O
cas=57-10-3
InChI=InChI=1S/C16H32O2/c1-2-3-4-5-6-7-8-9-10-11-12-13-14-15-16(17)18/h2-15H2,1H3,(H,17,18)
computed SMILES=O=C(O)CCCCCCCCCCCCCCC
accession=JP006253
date=2016.01.19 (Created 2008.10.21, modified 2011.05.06)
author=MASS SPECTROSCOPY SOC. OF JAPAN (MSSJ)
license=CC BY-NC-SA
exact mass=256.24023
ionization energy=70 eV
ion type=[M]+*
computed spectral entropy=3.7907016229784167
computed normalized entropy=0.7890684881853792
SPLASH=splash10-0abc-9110000000-6d7f0dbe5b588850b941
submitter=submitter = University of Tokyo Team (Faculty of Engineering, University of Tokyo)
MoNA Rating=3.75

>  <NUM PEAKS>  (4210) 
122

>  <MASS SPECTRAL PEAKS>  (4210) 
14 1.3
15 1.35
29 43.82
30 1.09
31 2.12
32 5.83
39 18.29
40 4.41
41 89.83
42 22.04
43 99.99
44 4.51
45 10.46
50 0.56
51 1.05
52 0.76
53 6.95
54 6.64
55 70.35
56 21.38
57 72.94
58 3.84
59 4.69
60 86.92
61 22.16
62 0.86
65 1.33
66 0.84
67 10.42
68 6.99
69 42.11
70 12.85
71 37.61
72 2.46
73 93.14
74 8.59
75 0.78
77 1.24
78 0.59
79 2.88
80 1.2
81 6.83
82 6.05
83 25.41
84 11.34
85 22.57
86 2.19
87 16.98
88 2.31
91 1.22
92 0.57
93 2.95
94 1.04
95 6.82
96 5.03
97 18.95
98 11.47
99 7.84
100 1.1
101 8.78
102 3.24
107 1.41
108 1.1
109 2.54
110 3.07
111 9.02
112 4.32
113 5.14
114 0.88
115 13.54
116 5.75
117 0.56
121 2.88
122 0.47
123 1.04
124 1.39
125 4.17
126 1.98
127 3.84
128 0.6
129 35.27
130 3.84
135 1.22
136 1.81
137 0.87
138 1.21
139 1.88
140 1.28
141 2.64
143 5.23
144 1.33
149 1.04
152 1.02
153 1.26
154 1.25
155 1.24
157 11.16
158 1.88
166 0.75
167 0.69
168 1.27
169 0.34
171 11.03
172 1.82
185 11.13
186 1.51
194 2.9
195 0.78
196 2.95
197 1.75
199 4.75
200 1.03
213 20.66
214 3.38
227 5.42
228 2.02
239 0.95
241 0.69
242 1.14
256 82.08
257 14.71
258 1.55

$$$$

     RDKit          2D

  7  6  0  0  0  0  0  0  0  0999 V2000
   -2.3078    1.1781    0.0000 C   0  0  0  0  0  0  0  0  0  0  0  0
   -0.3794    1.1781    0.0000 C   0  0  0  0  0  0  0  0  0  0  0  0
    1.2545    2.3272    0.0000 C   0  0  0  0  0  0  0  0  0  0  0  0
   -3.9417    2.3272    0.0000 C   0  0  0  0  0  0  0  0  0  0  0  0
   -1.3436    2.3272    0.0000 C   0  0  0  0  0  0  0  0  0  0  0  0
   -0.0445    3.0772    0.0000 O   0  0  0  0  0  0  0  0  0  0  0  0
   -2.6426    3.0772    0.0000 O   0  0  0  0  0  0  0  0  0  0  0  0
  5  1  1  0
  5  2  1  0
  6  3  1  0
  6  5  1  0
  7  4  1  0
  7  5  1  0
M  END
>  <NAME>  (4211) 
ACETONE DIMETHYL ACETAL

>  <SYNONYMS>  (4211) 
2,2-DIMETHOXYPROPANE

>  <SPECTRUM TYPE>  (4211) 
MS1

>  <INSTRUMENT TYPE>  (4211) 
EI-B

>  <INSTRUMENT>  (4211) 
HITACHI M-80

>  <ION MODE>  (4211) 
P

>  <INCHIKEY>  (4211) 
HEWZVZIVELJPQZ-UHFFFAOYSA-N

>  <FORMULA>  (4211) 
C5H12O2

>  <EXACT MASS>  (4211) 
104.083729624

>  <MW>  (4211) 
104

>  <ID>  (4211) 
JP006252

>  <CONTRIBUTOR>  (4211) 
University of Tokyo Team, {Faculty of Engineering, University of Tokyo

>  <COMMENT>  (4211) 
SMILES=COC(C)(C)OC
cas=77-76-9
InChI=InChI=1S/C5H12O2/c1-5(2,6-3)7-4/h1-4H3
computed SMILES=O(C)C(OC)(C)C
accession=JP006252
date=2016.01.19 (Created 2008.10.21, modified 2011.05.06)
author=MASS SPECTROSCOPY SOC. OF JAPAN (MSSJ)
license=CC BY-NC-SA
exact mass=104.08373
ionization energy=70 eV
ion type=[M]+*
computed spectral entropy=2.8682546669572884
computed normalized entropy=0.7829142632245436
SPLASH=splash10-002f-9000000000-ecbb65eb87d35715a7f9
submitter=submitter = University of Tokyo Team (Faculty of Engineering, University of Tokyo)
MoNA Rating=3.75

>  <NUM PEAKS>  (4211) 
39

>  <MASS SPECTRAL PEAKS>  (4211) 
12 1.69
13 4.86
14 17.64
15 65
16 1.3
17 1.81
18 3.13
19 1.75
25 2.51
26 15.75
27 64.25
28 13.43
29 69.24
30 7.49
31 64.25
32 21.44
33 5.11
36 0.83
37 7.06
38 12.73
39 53.61
40 16.7
41 64.22
42 99.99
43 29.76
44 1.23
45 8.03
46 2.59
47 0.79
53 0.84
54 0.22
55 1.56
56 0.64
57 5.32
58 0.63
72 36.53
73 9.63
74 0.49
89 1.55

$$$$

     RDKit          2D

 21 20  0  0  0  0  0  0  0  0999 V2000
    6.4952   10.5000    0.0000 C   0  0  0  0  0  0  0  0  0  0  0  0
  -18.1865   11.2500    0.0000 C   0  0  0  0  0  0  0  0  0  0  0  0
    5.1962   11.2500    0.0000 C   0  0  0  0  0  0  0  0  0  0  0  0
    3.8971   10.5000    0.0000 C   0  0  0  0  0  0  0  0  0  0  0  0
    2.5981   11.2500    0.0000 C   0  0  0  0  0  0  0  0  0  0  0  0
    1.2990   10.5000    0.0000 C   0  0  0  0  0  0  0  0  0  0  0  0
    0.0000   11.2500    0.0000 C   0  0  0  0  0  0  0  0  0  0  0  0
   -1.2990   10.5000    0.0000 C   0  0  0  0  0  0  0  0  0  0  0  0
   -2.5981   11.2500    0.0000 C   0  0  0  0  0  0  0  0  0  0  0  0
   -3.8971   10.5000    0.0000 C   0  0  0  0  0  0  0  0  0  0  0  0
   -5.1962   11.2500    0.0000 C   0  0  0  0  0  0  0  0  0  0  0  0
   -6.4952   10.5000    0.0000 C   0  0  0  0  0  0  0  0  0  0  0  0
   -7.7942   11.2500    0.0000 C   0  0  0  0  0  0  0  0  0  0  0  0
   -9.0933   10.5000    0.0000 C   0  0  0  0  0  0  0  0  0  0  0  0
  -10.3923   11.2500    0.0000 C   0  0  0  0  0  0  0  0  0  0  0  0
  -11.6913   10.5000    0.0000 C   0  0  0  0  0  0  0  0  0  0  0  0
  -12.9904   11.2500    0.0000 C   0  0  0  0  0  0  0  0  0  0  0  0
  -14.2894   10.5000    0.0000 C   0  0  0  0  0  0  0  0  0  0  0  0
  -15.5885   11.2500    0.0000 C   0  0  0  0  0  0  0  0  0  0  0  0
  -15.5885   12.7500    0.0000 O   0  0  0  0  0  0  0  0  0  0  0  0
  -16.8875   10.5000    0.0000 O   0  0  0  0  0  0  0  0  0  0  0  0
  3  1  1  0
  4  3  1  0
  5  4  1  0
  6  5  1  0
  7  6  1  0
  8  7  1  0
  9  8  1  0
 10  9  1  0
 11 10  1  0
 12 11  1  0
 13 12  1  0
 14 13  1  0
 15 14  1  0
 16 15  1  0
 17 16  1  0
 18 17  1  0
 19 18  1  0
 20 19  2  0
 21  2  1  0
 21 19  1  0
M  END
>  <NAME>  (4212) 
METHYL STEARATE

>  <SYNONYMS>  (4212) 
METHYL OCTADECANOATE

>  <SPECTRUM TYPE>  (4212) 
MS1

>  <INSTRUMENT TYPE>  (4212) 
EI-B

>  <INSTRUMENT>  (4212) 
HITACHI M-80

>  <ION MODE>  (4212) 
P

>  <INCHIKEY>  (4212) 
HPEUJPJOZXNMSJ-UHFFFAOYSA-N

>  <FORMULA>  (4212) 
C19H38O2

>  <EXACT MASS>  (4212) 
298.287180456

>  <MW>  (4212) 
298

>  <ID>  (4212) 
JP006250

>  <CONTRIBUTOR>  (4212) 
University of Tokyo Team, {Faculty of Engineering, University of Tokyo

>  <COMMENT>  (4212) 
SMILES=CCCCCCCCCCCCCCCCCC(=O)OC
cas=112-61-8
InChI=InChI=1S/C19H38O2/c1-3-4-5-6-7-8-9-10-11-12-13-14-15-16-17-18-19(20)21-2/h3-18H2,1-2H3
computed SMILES=O=C(OC)CCCCCCCCCCCCCCCCC
accession=JP006250
date=2016.01.19 (Created 2008.10.21, modified 2011.05.06)
author=MASS SPECTROSCOPY SOC. OF JAPAN (MSSJ)
license=CC BY-NC-SA
exact mass=298.28718
ionization energy=70 eV
ion type=[M]+*
computed spectral entropy=3.1088825249362726
computed normalized entropy=0.7475282335719866
SPLASH=splash10-00du-9120000000-8de4d0b66a666bceb8d7
submitter=submitter = University of Tokyo Team (Faculty of Engineering, University of Tokyo)
MoNA Rating=3.75

>  <NUM PEAKS>  (4212) 
64

>  <MASS SPECTRAL PEAKS>  (4212) 
39 1.1
40 0.4
41 15.59
42 3.33
43 20.96
44 0.62
54 0.96
55 13.45
56 3.8
57 15.01
58 0.79
59 3.64
67 1.85
68 1.12
69 9.97
70 2.45
71 6.4
72 0.4
73 1.41
74 99.99
75 33.83
76 1.58
81 1.67
82 1.05
83 7.56
84 3.55
85 3.51
87 79.39
88 6.65
89 0.54
95 1.65
96 0.94
97 6.35
98 3.45
99 0.8
101 6.53
102 0.71
111 2.8
112 0.91
115 2.35
116 1.33
129 7.55
130 2.33
143 20.85
144 2.13
157 2.21
171 1.11
185 3.07
186 0.73
199 7.21
200 1.19
213 2.56
214 0.47
241 1.89
242 0.56
255 12.18
256 2.26
267 6.95
268 1.35
269 2.42
270 0.52
298 41.84
299 9.34
300 1.17

$$$$

     RDKit          2D

 19 18  0  0  0  0  0  0  0  0999 V2000
  -16.2380   10.1250    0.0000 C   0  0  0  0  0  0  0  0  0  0  0  0
    5.8457    9.3750    0.0000 C   0  0  0  0  0  0  0  0  0  0  0  0
  -14.9389    9.3750    0.0000 C   0  0  0  0  0  0  0  0  0  0  0  0
  -13.6399   10.1250    0.0000 C   0  0  0  0  0  0  0  0  0  0  0  0
  -12.3409    9.3750    0.0000 C   0  0  0  0  0  0  0  0  0  0  0  0
  -11.0418   10.1250    0.0000 C   0  0  0  0  0  0  0  0  0  0  0  0
   -9.7428    9.3750    0.0000 C   0  0  0  0  0  0  0  0  0  0  0  0
   -8.4437   10.1250    0.0000 C   0  0  0  0  0  0  0  0  0  0  0  0
   -7.1447    9.3750    0.0000 C   0  0  0  0  0  0  0  0  0  0  0  0
   -5.8457   10.1250    0.0000 C   0  0  0  0  0  0  0  0  0  0  0  0
   -4.5466    9.3750    0.0000 C   0  0  0  0  0  0  0  0  0  0  0  0
   -3.2476   10.1250    0.0000 C   0  0  0  0  0  0  0  0  0  0  0  0
   -1.9486    9.3750    0.0000 C   0  0  0  0  0  0  0  0  0  0  0  0
   -0.6495   10.1250    0.0000 C   0  0  0  0  0  0  0  0  0  0  0  0
    0.6495    9.3750    0.0000 C   0  0  0  0  0  0  0  0  0  0  0  0
    1.9486   10.1250    0.0000 C   0  0  0  0  0  0  0  0  0  0  0  0
    3.2476    9.3750    0.0000 C   0  0  0  0  0  0  0  0  0  0  0  0
    3.2476    7.8750    0.0000 O   0  0  0  0  0  0  0  0  0  0  0  0
    4.5466   10.1250    0.0000 O   0  0  0  0  0  0  0  0  0  0  0  0
  3  1  1  0
  4  3  1  0
  5  4  1  0
  6  5  1  0
  7  6  1  0
  8  7  1  0
  9  8  1  0
 10  9  1  0
 11 10  1  0
 12 11  1  0
 13 12  1  0
 14 13  1  0
 15 14  1  0
 16 15  1  0
 17 16  1  0
 18 17  2  0
 19  2  1  0
 19 17  1  0
M  END
>  <NAME>  (4213) 
METHYL PALMITATE

>  <SYNONYMS>  (4213) 
METHYL HEXADECANOATE

>  <SPECTRUM TYPE>  (4213) 
MS1

>  <INSTRUMENT TYPE>  (4213) 
EI-B

>  <INSTRUMENT>  (4213) 
HITACHI M-80

>  <ION MODE>  (4213) 
P

>  <INCHIKEY>  (4213) 
FLIACVVOZYBSBS-UHFFFAOYSA-N

>  <FORMULA>  (4213) 
C17H34O2

>  <EXACT MASS>  (4213) 
270.255880328

>  <MW>  (4213) 
270

>  <ID>  (4213) 
JP006249

>  <CONTRIBUTOR>  (4213) 
University of Tokyo Team, {Faculty of Engineering, University of Tokyo

>  <COMMENT>  (4213) 
SMILES=CCCCCCCCCCCCCCCC(=O)OC
cas=112-39-0
InChI=InChI=1S/C17H34O2/c1-3-4-5-6-7-8-9-10-11-12-13-14-15-16-17(18)19-2/h3-16H2,1-2H3
computed SMILES=O=C(OC)CCCCCCCCCCCCCCC
accession=JP006249
date=2016.01.19 (Created 2008.10.21, modified 2011.05.06)
author=MASS SPECTROSCOPY SOC. OF JAPAN (MSSJ)
license=CC BY-NC-SA
exact mass=270.25588
ionization energy=70 eV
ion type=[M]+*
computed spectral entropy=2.8388782855935624
computed normalized entropy=0.7084208261132834
SPLASH=splash10-00dr-9100000000-683d8a1de530bbfa7510
submitter=submitter = University of Tokyo Team (Faculty of Engineering, University of Tokyo)
MoNA Rating=3.75

>  <NUM PEAKS>  (4213) 
55

>  <MASS SPECTRAL PEAKS>  (4213) 
41 13.47
42 2.62
43 14.91
44 0.44
55 11.31
56 2.73
57 10.01
58 0.54
59 3.36
67 1.25
68 0.8
69 7.24
70 1.59
71 3.95
72 0.26
73 1.05
74 99.99
75 20.82
81 1.12
82 0.71
83 4.87
84 2.5
85 2.01
87 58.38
88 4.9
89 0.4
97 3.96
98 2.25
99 0.47
101 4.49
102 0.52
111 1.6
112 0.57
115 1.81
116 0.86
129 5.09
130 1.24
143 12.46
144 1.24
157 1.28
158 0.33
171 2.9
172 0.49
185 3.05
186 0.34
199 2.48
200 0.35
227 6.22
228 0.96
239 3.84
240 0.63
241 1.5
270 13.84
271 2.7
272 0.29

$$$$

     RDKit          2D

 17 16  0  0  0  0  0  0  0  0999 V2000
    5.1962    8.2500    0.0000 C   0  0  0  0  0  0  0  0  0  0  0  0
  -14.2894    9.0000    0.0000 C   0  0  0  0  0  0  0  0  0  0  0  0
    3.8971    9.0000    0.0000 C   0  0  0  0  0  0  0  0  0  0  0  0
    2.5981    8.2500    0.0000 C   0  0  0  0  0  0  0  0  0  0  0  0
    1.2990    9.0000    0.0000 C   0  0  0  0  0  0  0  0  0  0  0  0
    0.0000    8.2500    0.0000 C   0  0  0  0  0  0  0  0  0  0  0  0
   -1.2990    9.0000    0.0000 C   0  0  0  0  0  0  0  0  0  0  0  0
   -2.5981    8.2500    0.0000 C   0  0  0  0  0  0  0  0  0  0  0  0
   -3.8971    9.0000    0.0000 C   0  0  0  0  0  0  0  0  0  0  0  0
   -5.1962    8.2500    0.0000 C   0  0  0  0  0  0  0  0  0  0  0  0
   -6.4952    9.0000    0.0000 C   0  0  0  0  0  0  0  0  0  0  0  0
   -7.7942    8.2500    0.0000 C   0  0  0  0  0  0  0  0  0  0  0  0
   -9.0933    9.0000    0.0000 C   0  0  0  0  0  0  0  0  0  0  0  0
  -10.3923    8.2500    0.0000 C   0  0  0  0  0  0  0  0  0  0  0  0
  -11.6913    9.0000    0.0000 C   0  0  0  0  0  0  0  0  0  0  0  0
  -11.6913   10.5000    0.0000 O   0  0  0  0  0  0  0  0  0  0  0  0
  -12.9904    8.2500    0.0000 O   0  0  0  0  0  0  0  0  0  0  0  0
  3  1  1  0
  4  3  1  0
  5  4  1  0
  6  5  1  0
  7  6  1  0
  8  7  1  0
  9  8  1  0
 10  9  1  0
 11 10  1  0
 12 11  1  0
 13 12  1  0
 14 13  1  0
 15 14  1  0
 16 15  2  0
 17  2  1  0
 17 15  1  0
M  END
>  <NAME>  (4214) 
METHYL MYRISTATE

>  <SYNONYMS>  (4214) 
METHYL TETRADECANOATE

>  <SPECTRUM TYPE>  (4214) 
MS1

>  <INSTRUMENT TYPE>  (4214) 
EI-B

>  <INSTRUMENT>  (4214) 
HITACHI M-80

>  <ION MODE>  (4214) 
P

>  <INCHIKEY>  (4214) 
ZAZKJZBWRNNLDS-UHFFFAOYSA-N

>  <FORMULA>  (4214) 
C15H30O2

>  <EXACT MASS>  (4214) 
242.2245802

>  <MW>  (4214) 
242

>  <ID>  (4214) 
JP006248

>  <CONTRIBUTOR>  (4214) 
University of Tokyo Team, {Faculty of Engineering, University of Tokyo

>  <COMMENT>  (4214) 
SMILES=CCCCCCCCCCCCCC(=O)OC
cas=124-10-7
InChI=InChI=1S/C15H30O2/c1-3-4-5-6-7-8-9-10-11-12-13-14-15(16)17-2/h3-14H2,1-2H3
computed SMILES=O=C(OC)CCCCCCCCCCCCC
accession=JP006248
date=2016.01.19 (Created 2008.10.21, modified 2011.05.06)
author=MASS SPECTROSCOPY SOC. OF JAPAN (MSSJ)
license=CC BY-NC-SA
exact mass=242.22458
ionization energy=70 eV
ion type=[M]+*
computed spectral entropy=2.943018725814576
computed normalized entropy=0.7188009414179172
SPLASH=splash10-00du-9000000000-50be8bc91afbbafe8222
submitter=submitter = University of Tokyo Team (Faculty of Engineering, University of Tokyo)
MoNA Rating=3.75

>  <NUM PEAKS>  (4214) 
60

>  <MASS SPECTRAL PEAKS>  (4214) 
39 2.38
40 0.76
41 28.98
42 6.16
43 35.86
44 1.15
45 1.11
53 0.91
54 1.49
55 23.56
56 5.6
57 17.54
58 0.91
59 7.52
67 2.19
68 1.31
69 13.91
70 2.9
71 5.23
72 0.39
74 99.99
75 23.24
76 1.18
81 1.73
82 0.88
83 6.85
84 3.48
85 2.56
87 73.95
88 6.58
89 0.48
95 1.29
96 0.67
97 4.68
98 2.59
99 0.48
101 5.67
102 0.55
109 0.62
110 0.28
111 1.61
112 0.59
115 1.66
116 0.78
129 4.58
130 0.99
143 12.68
144 1.22
157 2.14
158 0.27
185 1.77
186 0.23
199 6.42
200 0.87
211 3.76
212 0.55
213 1.26
214 0.21
242 7.58
243 1.33

$$$$

     RDKit          2D

 15 14  0  0  0  0  0  0  0  0999 V2000
    4.5466    7.1250    0.0000 C   0  0  0  0  0  0  0  0  0  0  0  0
  -12.3409    7.8750    0.0000 C   0  0  0  0  0  0  0  0  0  0  0  0
    3.2476    7.8750    0.0000 C   0  0  0  0  0  0  0  0  0  0  0  0
    1.9486    7.1250    0.0000 C   0  0  0  0  0  0  0  0  0  0  0  0
    0.6495    7.8750    0.0000 C   0  0  0  0  0  0  0  0  0  0  0  0
   -0.6495    7.1250    0.0000 C   0  0  0  0  0  0  0  0  0  0  0  0
   -1.9486    7.8750    0.0000 C   0  0  0  0  0  0  0  0  0  0  0  0
   -3.2476    7.1250    0.0000 C   0  0  0  0  0  0  0  0  0  0  0  0
   -4.5466    7.8750    0.0000 C   0  0  0  0  0  0  0  0  0  0  0  0
   -5.8457    7.1250    0.0000 C   0  0  0  0  0  0  0  0  0  0  0  0
   -7.1447    7.8750    0.0000 C   0  0  0  0  0  0  0  0  0  0  0  0
   -8.4437    7.1250    0.0000 C   0  0  0  0  0  0  0  0  0  0  0  0
   -9.7428    7.8750    0.0000 C   0  0  0  0  0  0  0  0  0  0  0  0
   -9.7428    9.3750    0.0000 O   0  0  0  0  0  0  0  0  0  0  0  0
  -11.0418    7.1250    0.0000 O   0  0  0  0  0  0  0  0  0  0  0  0
  3  1  1  0
  4  3  1  0
  5  4  1  0
  6  5  1  0
  7  6  1  0
  8  7  1  0
  9  8  1  0
 10  9  1  0
 11 10  1  0
 12 11  1  0
 13 12  1  0
 14 13  2  0
 15  2  1  0
 15 13  1  0
M  END
>  <NAME>  (4215) 
METHYL LAURATE

>  <SYNONYMS>  (4215) 
METHYL DODECANOATE

>  <SPECTRUM TYPE>  (4215) 
MS1

>  <INSTRUMENT TYPE>  (4215) 
EI-B

>  <INSTRUMENT>  (4215) 
HITACHI M-80

>  <ION MODE>  (4215) 
P

>  <INCHIKEY>  (4215) 
UQDUPQYQJKYHQI-UHFFFAOYSA-N

>  <FORMULA>  (4215) 
C13H26O2

>  <EXACT MASS>  (4215) 
214.193280072

>  <MW>  (4215) 
214

>  <ID>  (4215) 
JP006247

>  <CONTRIBUTOR>  (4215) 
University of Tokyo Team, {Faculty of Engineering, University of Tokyo

>  <COMMENT>  (4215) 
SMILES=CCCCCCCCCCCC(=O)OC
cas=111-82-0
InChI=InChI=1S/C13H26O2/c1-3-4-5-6-7-8-9-10-11-12-13(14)15-2/h3-12H2,1-2H3
computed SMILES=O=C(OC)CCCCCCCCCCC
accession=JP006247
date=2016.01.19 (Created 2008.10.21, modified 2011.05.06)
author=MASS SPECTROSCOPY SOC. OF JAPAN (MSSJ)
license=CC BY-NC-SA
exact mass=214.19328
ionization energy=70 eV
ion type=[M]+*
computed spectral entropy=2.7533806642883984
computed normalized entropy=0.6724838670622464
SPLASH=splash10-00dl-9000000000-d72b0ce9dd55c1ed1920
submitter=submitter = University of Tokyo Team (Faculty of Engineering, University of Tokyo)
MoNA Rating=3.75

>  <NUM PEAKS>  (4215) 
60

>  <MASS SPECTRAL PEAKS>  (4215) 
39 2.62
40 0.83
41 29.11
42 6.07
43 29.88
44 0.96
45 1.23
53 0.89
54 1.28
55 19.7
56 4.46
57 12.04
58 0.68
59 7.26
60 0.29
61 0.23
67 1.41
68 0.97
69 8.5
70 1.74
71 2.59
72 0.21
73 1.56
74 99.99
75 13.07
76 0.72
79 0.35
81 0.95
82 0.5
83 3.83
84 2.27
85 1.49
87 44.97
88 3.87
89 0.3
95 0.78
96 0.37
97 2.18
98 1.54
99 0.28
101 3.23
102 0.36
109 0.33
111 0.65
112 0.3
115 1.87
116 0.45
129 2.89
130 0.35
140 0.42
143 4.8
144 0.51
157 0.61
171 3.29
172 0.36
183 2.44
184 0.32
185 1.01
214 2.79
215 0.4

$$$$

     RDKit          2D

 13 12  0  0  0  0  0  0  0  0999 V2000
    3.8971    6.0000    0.0000 C   0  0  0  0  0  0  0  0  0  0  0  0
  -10.3923    6.7500    0.0000 C   0  0  0  0  0  0  0  0  0  0  0  0
    2.5981    6.7500    0.0000 C   0  0  0  0  0  0  0  0  0  0  0  0
    1.2990    6.0000    0.0000 C   0  0  0  0  0  0  0  0  0  0  0  0
    0.0000    6.7500    0.0000 C   0  0  0  0  0  0  0  0  0  0  0  0
   -1.2990    6.0000    0.0000 C   0  0  0  0  0  0  0  0  0  0  0  0
   -2.5981    6.7500    0.0000 C   0  0  0  0  0  0  0  0  0  0  0  0
   -3.8971    6.0000    0.0000 C   0  0  0  0  0  0  0  0  0  0  0  0
   -5.1962    6.7500    0.0000 C   0  0  0  0  0  0  0  0  0  0  0  0
   -6.4952    6.0000    0.0000 C   0  0  0  0  0  0  0  0  0  0  0  0
   -7.7942    6.7500    0.0000 C   0  0  0  0  0  0  0  0  0  0  0  0
   -7.7942    8.2500    0.0000 O   0  0  0  0  0  0  0  0  0  0  0  0
   -9.0933    6.0000    0.0000 O   0  0  0  0  0  0  0  0  0  0  0  0
  3  1  1  0
  4  3  1  0
  5  4  1  0
  6  5  1  0
  7  6  1  0
  8  7  1  0
  9  8  1  0
 10  9  1  0
 11 10  1  0
 12 11  2  0
 13  2  1  0
 13 11  1  0
M  END
>  <NAME>  (4216) 
METHYL CAPRATE

>  <SYNONYMS>  (4216) 
METHYL DECANOATE

>  <SPECTRUM TYPE>  (4216) 
MS1

>  <INSTRUMENT TYPE>  (4216) 
EI-B

>  <INSTRUMENT>  (4216) 
HITACHI M-80

>  <ION MODE>  (4216) 
P

>  <INCHIKEY>  (4216) 
YRHYCMZPEVDGFQ-UHFFFAOYSA-N

>  <FORMULA>  (4216) 
C11H22O2

>  <EXACT MASS>  (4216) 
186.161979944

>  <MW>  (4216) 
186

>  <ID>  (4216) 
JP006246

>  <CONTRIBUTOR>  (4216) 
University of Tokyo Team, {Faculty of Engineering, University of Tokyo

>  <COMMENT>  (4216) 
SMILES=CCCCCCCCCC(=O)OC
cas=110-42-9
InChI=InChI=1S/C11H22O2/c1-3-4-5-6-7-8-9-10-11(12)13-2/h3-10H2,1-2H3
computed SMILES=O=C(OC)CCCCCCCCC
accession=JP006246
date=2016.01.19 (Created 2008.10.21, modified 2011.05.06)
license=CC BY-NC-SA
author=MASS SPECTROSCOPY SOC. OF JAPAN (MSSJ)
exact mass=186.16198
ionization energy=70 eV
ion type=[M]+*
computed spectral entropy=2.8123584426592685
computed normalized entropy=0.6737176646117886
SPLASH=splash10-00dl-9100000000-c96b4aca87b5230e393d
submitter=submitter = University of Tokyo Team (Faculty of Engineering, University of Tokyo)
MoNA Rating=3.75

>  <NUM PEAKS>  (4216) 
65

>  <MASS SPECTRAL PEAKS>  (4216) 
39 2.33
40 0.7
41 22.37
42 5.02
43 20.23
44 0.76
45 0.97
53 0.9
54 1.01
55 14.98
56 3.31
57 6.96
58 0.43
59 7.76
60 0.27
67 1.17
68 0.9
69 7.89
70 1.63
71 3.48
72 0.27
73 1.68
74 99.99
75 10.34
76 0.66
79 0.3
81 1.05
82 0.51
83 3.22
84 2.79
85 1.68
86 0.13
87 46.69
88 4.69
89 0.35
95 0.75
96 0.15
97 2.07
98 1.78
99 0.24
100 0.15
101 5.69
102 0.44
110 0.43
111 0.62
112 1.15
113 0.21
115 1.44
116 0.39
125 0.33
126 0.15
129 3.88
130 0.45
143 13.08
144 1.26
145 0.12
153 0.2
154 0.12
155 8.05
156 0.87
157 2.25
158 0.3
186 4.64
187 1.13
188 0.11

$$$$

     RDKit          2D

 12 11  0  0  0  0  0  0  0  0999 V2000
   -9.7428    5.6250    0.0000 C   0  0  0  0  0  0  0  0  0  0  0  0
    3.2476    5.6250    0.0000 C   0  0  0  0  0  0  0  0  0  0  0  0
   -8.4437    4.8750    0.0000 C   0  0  0  0  0  0  0  0  0  0  0  0
   -7.1447    5.6250    0.0000 C   0  0  0  0  0  0  0  0  0  0  0  0
   -5.8457    4.8750    0.0000 C   0  0  0  0  0  0  0  0  0  0  0  0
   -4.5466    5.6250    0.0000 C   0  0  0  0  0  0  0  0  0  0  0  0
   -3.2476    4.8750    0.0000 C   0  0  0  0  0  0  0  0  0  0  0  0
   -1.9486    5.6250    0.0000 C   0  0  0  0  0  0  0  0  0  0  0  0
   -0.6495    4.8750    0.0000 C   0  0  0  0  0  0  0  0  0  0  0  0
    0.6495    5.6250    0.0000 C   0  0  0  0  0  0  0  0  0  0  0  0
    0.6495    7.1250    0.0000 O   0  0  0  0  0  0  0  0  0  0  0  0
    1.9486    4.8750    0.0000 O   0  0  0  0  0  0  0  0  0  0  0  0
  3  1  1  0
  4  3  1  0
  5  4  1  0
  6  5  1  0
  7  6  1  0
  8  7  1  0
  9  8  1  0
 10  9  1  0
 11 10  2  0
 12  2  1  0
 12 10  1  0
M  END
>  <NAME>  (4217) 
METHYL PELARGONATE

>  <SYNONYMS>  (4217) 
METHYL NONANOATE

>  <SPECTRUM TYPE>  (4217) 
MS1

>  <INSTRUMENT TYPE>  (4217) 
EI-B

>  <INSTRUMENT>  (4217) 
HITACHI M-80

>  <ION MODE>  (4217) 
P

>  <INCHIKEY>  (4217) 
IJXHLVMUNBOGRR-UHFFFAOYSA-N

>  <FORMULA>  (4217) 
C10H20O2

>  <EXACT MASS>  (4217) 
172.14632988

>  <MW>  (4217) 
172

>  <ID>  (4217) 
JP006245

>  <CONTRIBUTOR>  (4217) 
University of Tokyo Team, {Faculty of Engineering, University of Tokyo

>  <COMMENT>  (4217) 
SMILES=CCCCCCCCC(=O)OC
cas=1731-84-6
InChI=InChI=1S/C10H20O2/c1-3-4-5-6-7-8-9-10(11)12-2/h3-9H2,1-2H3
computed SMILES=O=C(OC)CCCCCCCC
computed spectral entropy=2.7808449399652315
accession=JP006245
date=2016.01.19 (Created 2008.10.21, modified 2011.05.06)
author=MASS SPECTROSCOPY SOC. OF JAPAN (MSSJ)
license=CC BY-NC-SA
exact mass=172.14633
ionization energy=70 eV
ion type=[M]+*
computed normalized entropy=0.6711934618614759
SPLASH=splash10-00di-9100000000-854ee48fef9dd1f130ae
submitter=submitter = University of Tokyo Team (Faculty of Engineering, University of Tokyo)
MoNA Rating=3.75

>  <NUM PEAKS>  (4217) 
63

>  <MASS SPECTRAL PEAKS>  (4217) 
39 2.89
40 0.85
41 23.58
42 5.2
43 19.88
44 0.8
45 1.16
53 1.01
54 1.01
55 15.63
56 3.58
57 9.1
58 0.49
59 9.11
60 0.32
61 0.21
67 1.19
68 1.03
69 6.89
70 1.4
71 3.97
72 0.29
73 1.9
74 99.99
75 8.94
76 0.67
77 0.13
79 0.27
81 1.01
82 0.23
83 2.63
84 2.98
85 0.44
87 43.19
88 4.56
89 0.34
95 0.24
96 0.47
97 1.73
98 1.71
99 0.25
100 0.15
101 5.29
102 0.39
111 0.46
112 0.78
113 0.18
115 1.78
116 0.38
122 0.13
123 0.26
125 0.14
129 8.46
130 0.8
139 0.28
140 0.15
141 9.46
142 0.95
143 7.06
144 0.69
172 3.08
173 1.06
174 0.1

$$$$

     RDKit          2D

 11 10  0  0  0  0  0  0  0  0999 V2000
   -8.4437    5.6250    0.0000 C   0  0  0  0  0  0  0  0  0  0  0  0
    3.2476    4.8750    0.0000 C   0  0  0  0  0  0  0  0  0  0  0  0
   -7.1447    4.8750    0.0000 C   0  0  0  0  0  0  0  0  0  0  0  0
   -5.8457    5.6250    0.0000 C   0  0  0  0  0  0  0  0  0  0  0  0
   -4.5466    4.8750    0.0000 C   0  0  0  0  0  0  0  0  0  0  0  0
   -3.2476    5.6250    0.0000 C   0  0  0  0  0  0  0  0  0  0  0  0
   -1.9486    4.8750    0.0000 C   0  0  0  0  0  0  0  0  0  0  0  0
   -0.6495    5.6250    0.0000 C   0  0  0  0  0  0  0  0  0  0  0  0
    0.6495    4.8750    0.0000 C   0  0  0  0  0  0  0  0  0  0  0  0
    0.6495    3.3750    0.0000 O   0  0  0  0  0  0  0  0  0  0  0  0
    1.9486    5.6250    0.0000 O   0  0  0  0  0  0  0  0  0  0  0  0
  3  1  1  0
  4  3  1  0
  5  4  1  0
  6  5  1  0
  7  6  1  0
  8  7  1  0
  9  8  1  0
 10  9  2  0
 11  2  1  0
 11  9  1  0
M  END
>  <NAME>  (4218) 
METHYL CAPRYLATE

>  <SYNONYMS>  (4218) 
METHYL OCTANOATE

>  <SPECTRUM TYPE>  (4218) 
MS1

>  <INSTRUMENT TYPE>  (4218) 
EI-B

>  <INSTRUMENT>  (4218) 
HITACHI M-80

>  <ION MODE>  (4218) 
P

>  <INCHIKEY>  (4218) 
JGHZJRVDZXSNKQ-UHFFFAOYSA-N

>  <FORMULA>  (4218) 
C9H18O2

>  <EXACT MASS>  (4218) 
158.130679816

>  <MW>  (4218) 
158

>  <ID>  (4218) 
JP006244

>  <CONTRIBUTOR>  (4218) 
University of Tokyo Team, {Faculty of Engineering, University of Tokyo

>  <COMMENT>  (4218) 
SMILES=CCCCCCCC(=O)OC
cas=111-11-5
InChI=InChI=1S/C9H18O2/c1-3-4-5-6-7-8-9(10)11-2/h3-8H2,1-2H3
computed SMILES=O=C(OC)CCCCCCC
accession=JP006244
date=2016.01.19 (Created 2008.10.21, modified 2011.05.06)
author=MASS SPECTROSCOPY SOC. OF JAPAN (MSSJ)
license=CC BY-NC-SA
exact mass=158.13068
ionization energy=70 eV
ion type=[M]+*
computed spectral entropy=2.6555265238774752
computed normalized entropy=0.6657150023361685
SPLASH=splash10-00dl-9000000000-40ffa5798d07e48f1902
submitter=submitter = University of Tokyo Team (Faculty of Engineering, University of Tokyo)
MoNA Rating=3.75

>  <NUM PEAKS>  (4218) 
54

>  <MASS SPECTRAL PEAKS>  (4218) 
39 4.78
40 1.36
41 32.46
42 8.22
43 26.68
44 1.15
45 1.89
51 0.16
53 1.16
54 0.9
55 18.31
56 3.78
57 17.1
58 0.84
59 12
60 0.45
61 0.28
65 0.13
67 1.19
68 0.45
69 5.86
70 1.32
71 0.51
72 0.13
73 1.96
74 99.99
75 7.78
76 0.57
79 0.19
80 0.23
81 0.35
82 0.55
83 2.17
84 3.08
85 0.5
87 35.08
88 3.69
89 0.27
97 1.15
98 1.4
99 0.23
101 5.42
102 0.42
115 5.72
116 0.51
125 0.22
126 0.1
127 7.31
128 0.62
129 2.36
130 0.23
143 0.2
158 1.01
159 0.4

$$$$

     RDKit          2D

 10  9  0  0  0  0  0  0  0  0999 V2000
    2.5981    4.5000    0.0000 C   0  0  0  0  0  0  0  0  0  0  0  0
   -7.7942    4.5000    0.0000 C   0  0  0  0  0  0  0  0  0  0  0  0
    1.2990    5.2500    0.0000 C   0  0  0  0  0  0  0  0  0  0  0  0
    0.0000    4.5000    0.0000 C   0  0  0  0  0  0  0  0  0  0  0  0
   -1.2990    5.2500    0.0000 C   0  0  0  0  0  0  0  0  0  0  0  0
   -2.5981    4.5000    0.0000 C   0  0  0  0  0  0  0  0  0  0  0  0
   -3.8971    5.2500    0.0000 C   0  0  0  0  0  0  0  0  0  0  0  0
   -5.1962    4.5000    0.0000 C   0  0  0  0  0  0  0  0  0  0  0  0
   -5.1962    3.0000    0.0000 O   0  0  0  0  0  0  0  0  0  0  0  0
   -6.4952    5.2500    0.0000 O   0  0  0  0  0  0  0  0  0  0  0  0
  3  1  1  0
  4  3  1  0
  5  4  1  0
  6  5  1  0
  7  6  1  0
  8  7  1  0
  9  8  2  0
 10  2  1  0
 10  8  1  0
M  END
>  <NAME>  (4219) 
METHYL HEPTANOATE

>  <SYNONYMS>  (4219) 


>  <SPECTRUM TYPE>  (4219) 
MS1

>  <INSTRUMENT TYPE>  (4219) 
EI-B

>  <INSTRUMENT>  (4219) 
HITACHI M-80

>  <ION MODE>  (4219) 
P

>  <INCHIKEY>  (4219) 
XNCNNDVCAUWAIT-UHFFFAOYSA-N

>  <FORMULA>  (4219) 
C8H16O2

>  <EXACT MASS>  (4219) 
144.115029752

>  <MW>  (4219) 
144

>  <ID>  (4219) 
JP006243

>  <CONTRIBUTOR>  (4219) 
University of Tokyo Team, {Faculty of Engineering, University of Tokyo

>  <COMMENT>  (4219) 
SMILES=CCCCCCC(=O)OC
cas=106-73-0
InChI=InChI=1S/C8H16O2/c1-3-4-5-6-7-8(9)10-2/h3-7H2,1-2H3
computed SMILES=O=C(OC)CCCCCC
accession=JP006243
date=2016.01.19 (Created 2008.10.21, modified 2011.05.06)
author=MASS SPECTROSCOPY SOC. OF JAPAN (MSSJ)
license=CC BY-NC-SA
exact mass=144.11503
ionization energy=70 eV
ion type=[M]+*
computed spectral entropy=2.5901810224544572
computed normalized entropy=0.6727484996429794
SPLASH=splash10-00dl-9000000000-b22b78ab2aec3bc4e207
submitter=submitter = University of Tokyo Team (Faculty of Engineering, University of Tokyo)
MoNA Rating=3.75

>  <NUM PEAKS>  (4219) 
47

>  <MASS SPECTRAL PEAKS>  (4219) 
39 5.92
40 1.59
41 33.83
42 7.65
43 41.22
44 1.72
45 2.14
53 1.4
54 0.82
55 15.79
56 4.45
57 5.43
58 0.42
59 14.97
60 0.56
61 0.3
67 0.65
68 1.08
69 4.51
70 1.15
71 0.63
73 2.41
74 99.99
75 6.48
76 0.53
83 1.7
84 3.68
85 3.19
86 0.21
87 30.6
88 3.65
89 0.25
94 0.14
95 0.37
97 0.41
99 0.36
101 10.92
102 0.74
111 0.29
112 0.14
113 11.21
114 0.84
115 2.26
116 0.22
129 0.16
144 0.67
145 0.55

$$$$

     RDKit          2D

  9  8  0  0  0  0  0  0  0  0999 V2000
   -6.4952    4.5000    0.0000 C   0  0  0  0  0  0  0  0  0  0  0  0
    2.5981    3.7500    0.0000 C   0  0  0  0  0  0  0  0  0  0  0  0
   -5.1962    3.7500    0.0000 C   0  0  0  0  0  0  0  0  0  0  0  0
   -3.8971    4.5000    0.0000 C   0  0  0  0  0  0  0  0  0  0  0  0
   -2.5981    3.7500    0.0000 C   0  0  0  0  0  0  0  0  0  0  0  0
   -1.2990    4.5000    0.0000 C   0  0  0  0  0  0  0  0  0  0  0  0
    0.0000    3.7500    0.0000 C   0  0  0  0  0  0  0  0  0  0  0  0
   -0.0000    2.2500    0.0000 O   0  0  0  0  0  0  0  0  0  0  0  0
    1.2990    4.5000    0.0000 O   0  0  0  0  0  0  0  0  0  0  0  0
  3  1  1  0
  4  3  1  0
  5  4  1  0
  6  5  1  0
  7  6  1  0
  8  7  2  0
  9  2  1  0
  9  7  1  0
M  END
>  <NAME>  (4220) 
METHYL CAPROATE

>  <SYNONYMS>  (4220) 
METHYL HEXANOATE

>  <SPECTRUM TYPE>  (4220) 
MS1

>  <INSTRUMENT TYPE>  (4220) 
EI-B

>  <INSTRUMENT>  (4220) 
HITACHI M-80

>  <ION MODE>  (4220) 
P

>  <INCHIKEY>  (4220) 
NUKZAGXMHTUAFE-UHFFFAOYSA-N

>  <FORMULA>  (4220) 
C7H14O2

>  <EXACT MASS>  (4220) 
130.099379688

>  <MW>  (4220) 
130

>  <ID>  (4220) 
JP006242

>  <CONTRIBUTOR>  (4220) 
University of Tokyo Team, {Faculty of Engineering, University of Tokyo

>  <COMMENT>  (4220) 
SMILES=CCCCCC(=O)OC
cas=106-70-7
InChI=InChI=1S/C7H14O2/c1-3-4-5-6-7(8)9-2/h3-6H2,1-2H3
computed SMILES=O=C(OC)CCCCC
accession=JP006242
date=2016.01.19 (Created 2008.10.21, modified 2011.05.06)
author=MASS SPECTROSCOPY SOC. OF JAPAN (MSSJ)
license=CC BY-NC-SA
exact mass=130.09938
ionization energy=70 eV
ion type=[M]+*
computed spectral entropy=2.5192045778487233
computed normalized entropy=0.6783777270503996
SPLASH=splash10-00dl-9000000000-8b4e4b7f45f5daa26918
submitter=submitter = University of Tokyo Team (Faculty of Engineering, University of Tokyo)
MoNA Rating=3.75

>  <NUM PEAKS>  (4220) 
41

>  <MASS SPECTRAL PEAKS>  (4220) 
38 0.25
39 7.54
40 1.96
41 31.37
42 11.49
43 46.86
44 2.11
45 2.27
51 0.28
52 0.13
53 1.34
54 0.59
55 13.8
56 2.29
57 4.28
58 0.37
59 19.63
60 0.74
61 0.3
67 0.4
68 0.35
69 3.16
70 3.53
71 9.07
72 0.55
73 1.4
74 99.99
75 5.01
76 0.49
83 0.58
87 28.7
88 3.83
89 0.28
97 0.53
98 0.51
99 17.65
100 1.13
101 7.15
102 0.49
130 0.59
131 0.43

$$$$

     RDKit          2D

 28 28  0  0  0  0  0  0  0  0999 V2000
   13.9513    3.1974    0.0000 C   0  0  0  0  0  0  0  0  0  0  0  0
  -12.0296    0.1729    0.0000 C   0  0  0  0  0  0  0  0  0  0  0  0
   12.6535    2.4452    0.0000 C   0  0  0  0  0  0  0  0  0  0  0  0
  -10.7307    0.9232    0.0000 C   0  0  0  0  0  0  0  0  0  0  0  0
   11.3532    3.1931    0.0000 C   0  0  0  0  0  0  0  0  0  0  0  0
   -9.4315    0.1734    0.0000 C   0  0  0  0  0  0  0  0  0  0  0  0
   10.0554    2.4409    0.0000 C   0  0  0  0  0  0  0  0  0  0  0  0
   -8.1326    0.9236    0.0000 C   0  0  0  0  0  0  0  0  0  0  0  0
    8.7551    3.1887    0.0000 C   0  0  0  0  0  0  0  0  0  0  0  0
   -6.8335    0.1738    0.0000 C   0  0  0  0  0  0  0  0  0  0  0  0
    7.4573    2.4365    0.0000 C   0  0  0  0  0  0  0  0  0  0  0  0
   -5.5345    0.9240    0.0000 C   0  0  0  0  0  0  0  0  0  0  0  0
   -0.3427    5.4178    0.0000 C   0  0  0  0  0  0  0  0  0  0  0  0
   -1.6372    4.6757    0.0000 C   0  0  0  0  0  0  0  0  0  0  0  0
    6.1570    3.1844    0.0000 C   0  0  0  0  0  0  0  0  0  0  0  0
   -4.2354    0.1742    0.0000 C   0  0  0  0  0  0  0  0  0  0  0  0
    0.9564    4.6678    0.0000 C   0  0  0  0  0  0  0  0  0  0  0  0
   -1.6377    3.1748    0.0000 C   0  0  0  0  0  0  0  0  0  0  0  0
    4.8593    2.4322    0.0000 C   0  0  0  0  0  0  0  0  0  0  0  0
   -2.9365    0.9244    0.0000 C   0  0  0  0  0  0  0  0  0  0  0  0
    0.9609    3.1757    0.0000 C   0  0  0  0  0  0  0  0  0  0  0  0
   -0.3386    2.4248    0.0000 C   0  0  0  0  0  0  0  0  0  0  0  0
    2.2612    2.4278    0.0000 C   0  0  0  0  0  0  0  0  0  0  0  0
   -0.3384    0.9248    0.0000 C   0  0  0  0  0  0  0  0  0  0  0  0
    2.2637    0.9278    0.0000 O   0  0  0  0  0  0  0  0  0  0  0  0
    0.9608    0.1750    0.0000 O   0  0  0  0  0  0  0  0  0  0  0  0
    3.5590    3.1800    0.0000 O   0  0  0  0  0  0  0  0  0  0  0  0
   -1.6373    0.1746    0.0000 O   0  0  0  0  0  0  0  0  0  0  0  0
  3  1  1  0
  4  2  1  0
  5  3  1  0
  6  4  1  0
  7  5  1  0
  8  6  1  0
  9  7  1  0
 10  8  1  0
 11  9  1  0
 12 10  1  0
 14 13  2  0
 15 11  1  0
 16 12  1  0
 17 13  1  0
 18 14  1  0
 19 15  1  0
 20 16  1  0
 21 17  2  0
 22 18  2  0
 22 21  1  0
 23 21  1  0
 24 22  1  0
 25 23  2  0
 26 24  2  0
 27 19  1  0
 27 23  1  0
 28 20  1  0
 28 24  1  0
M  END
>  <NAME>  (4221) 
DIOCTYL PHTHALATE

>  <SYNONYMS>  (4221) 
BIS(2-ETHYLHEXYL) PHTHALATE

>  <SPECTRUM TYPE>  (4221) 
MS1

>  <INSTRUMENT TYPE>  (4221) 
EI-B

>  <INSTRUMENT>  (4221) 
HITACHI M-80

>  <ION MODE>  (4221) 
P

>  <INCHIKEY>  (4221) 
MQIUGAXCHLFZKX-UHFFFAOYSA-N

>  <FORMULA>  (4221) 
C24H38O4

>  <EXACT MASS>  (4221) 
390.277009696

>  <MW>  (4221) 
390

>  <ID>  (4221) 
JP006241

>  <CONTRIBUTOR>  (4221) 
University of Tokyo Team, {Faculty of Engineering, University of Tokyo

>  <COMMENT>  (4221) 
SMILES=CCCCCCCCOC(=O)c(c1)c(ccc1)C(=O)OCCCCCCCC
cas=117-81-7
InChI=InChI=1S/C24H38O4/c1-3-5-7-9-11-15-19-27-23(25)21-17-13-14-18-22(21)24(26)28-20-16-12-10-8-6-4-2/h13-14,17-18H,3-12,15-16,19-20H2,1-2H3
computed SMILES=O=C(OCCCCCCCC)C=1C=CC=CC1C(=O)OCCCCCCCC
accession=JP006241
date=2016.01.19 (Created 2008.10.21, modified 2011.05.06)
author=MASS SPECTROSCOPY SOC. OF JAPAN (MSSJ)
license=CC BY-NC-SA
exact mass=390.27701
ionization energy=70 eV
ion type=[M]+*
computed spectral entropy=2.86758785299334
computed normalized entropy=0.6727194947099111
SPLASH=splash10-0002-6910000000-d66b3b7c8cc64102dea3
submitter=submitter = University of Tokyo Team (Faculty of Engineering, University of Tokyo)
MoNA Rating=3.75

>  <NUM PEAKS>  (4221) 
71

>  <MASS SPECTRAL PEAKS>  (4221) 
43 0.78
45 0.2
50 0.88
51 0.27
52 0.25
53 0.96
54 1.15
55 14.07
56 6.56
57 34.96
58 1.37
63 0.23
65 1.3
66 0.25
67 1.03
68 1.11
69 6.52
70 19.53
71 22.65
72 1.6
73 0.27
74 0.25
75 0.32
76 2.82
77 1.21
78 0.51
79 0.58
81 0.99
82 1.48
83 6.25
84 3.66
85 0.56
91 0.42
92 0.23
93 1.93
94 0.22
95 0.35
97 0.51
98 0.28
104 6.8
105 2.14
106 0.37
109 0.22
110 0.61
111 0.56
112 9.8
113 12.39
114 1.2
115 0.24
121 1.4
122 1.82
123 0.68
132 2.41
133 0.85
148 0.4
149 99.99
150 11.88
151 1.32
162 0.61
163 0.4
167 39
168 3.96
169 0.32
179 0.24
180 0.31
261 0.49
262 0.42
279 18.23
280 3.49
281 0.44
390 0.3

$$$$

     RDKit          2D

 33 34  0  0  1  0  0  0  0  0999 V2000
   22.6446   -0.7533    0.0000 C   0  0  0  0  0  0  0  0  0  0  0  0
   21.3452   -3.0031    0.0000 C   0  0  0  0  0  0  0  0  0  0  0  0
   16.1491   -3.0023    0.0000 C   0  0  0  0  0  0  0  0  0  0  0  0
   10.9529   -3.0015    0.0000 C   0  0  0  0  0  0  0  0  0  0  0  0
    5.7568   -3.0006    0.0000 C   0  0  0  0  0  0  0  0  0  0  0  0
    3.1589    1.5002    0.0000 C   0  0  0  0  0  0  0  0  0  0  0  0
   -3.3400    0.7500    0.0000 C   0  0  0  0  0  0  0  0  0  0  0  0
   -3.3400   -0.7500    0.0000 C   0  0  0  0  0  0  0  0  0  0  0  0
   18.7474   -1.5027    0.0000 C   0  0  0  0  0  0  0  0  0  0  0  0
   13.5512   -1.5019    0.0000 C   0  0  0  0  0  0  0  0  0  0  0  0
    8.3551   -1.5010    0.0000 C   0  0  0  0  0  0  0  0  0  0  0  0
   20.0465   -0.7529    0.0000 C   0  0  0  0  0  0  0  0  0  0  0  0
   17.4485   -0.7525    0.0000 C   0  0  0  0  0  0  0  0  0  0  0  0
   14.8504   -0.7521    0.0000 C   0  0  0  0  0  0  0  0  0  0  0  0
   12.2523   -0.7517    0.0000 C   0  0  0  0  0  0  0  0  0  0  0  0
    9.6542   -0.7512    0.0000 C   0  0  0  0  0  0  0  0  0  0  0  0
    7.0562   -0.7508    0.0000 C   0  0  0  0  0  0  0  0  0  0  0  0
   -2.0400    1.5000    0.0000 C   0  0  0  0  0  0  0  0  0  0  0  0
   -2.0400   -1.5000    0.0000 C   0  0  0  0  0  0  0  0  0  0  0  0
    4.4581   -0.7504    0.0000 C   0  0  0  0  0  0  0  0  0  0  0  0
    3.1589   -1.5002    0.0000 C   0  0  0  0  0  0  0  0  0  0  0  0
   21.3455   -1.5031    0.0000 C   0  0  0  0  0  0  0  0  0  0  0  0
   16.1493   -1.5023    0.0000 C   0  0  0  0  0  0  0  0  0  0  0  0
   10.9531   -1.5015    0.0000 C   0  0  0  0  0  0  0  0  0  0  0  0
    5.7570   -1.5006    0.0000 C   0  0  0  0  0  0  0  0  0  0  0  0
    1.8600    0.7500    0.0000 C   0  0  0  0  0  0  0  0  0  0  0  0
    1.8600   -0.7500    0.0000 C   0  0  0  0  0  0  0  0  0  0  0  0
   -0.7400    0.7500    0.0000 C   0  0  0  0  0  0  0  0  0  0  0  0
   -0.7400   -0.7500    0.0000 C   0  0  0  0  0  0  0  0  0  0  0  0
    0.5600    1.5000    0.0000 C   0  0  0  0  0  0  0  0  0  0  0  0
    0.5600   -1.5000    0.0000 C   0  0  0  0  0  0  0  0  0  0  0  0
    0.5600    3.0000    0.0000 O   0  0  0  0  0  0  0  0  0  0  0  0
    0.5600   -3.0000    0.0000 O   0  0  0  0  0  0  0  0  0  0  0  0
  8  7  2  0
 12  9  1  0
 13  9  1  0
 14 10  1  0
 15 10  1  0
 16 11  1  0
 17 11  1  0
 18  7  1  0
 19  8  1  0
 21 20  1  0
 22  1  1  0
 22  2  1  0
 22 12  1  0
 23  3  1  1
 23 13  1  0
 23 14  1  0
 24  4  1  1
 24 15  1  0
 24 16  1  0
 25  5  1  0
 25 17  1  0
 20 25  2  0
 26  6  1  0
 27 21  1  0
 27 26  2  0
 28 18  2  0
 29 19  2  0
 29 28  1  0
 30 26  1  0
 30 28  1  0
 31 27  1  0
 31 29  1  0
 32 30  2  0
 33 31  2  0
M  END
>  <NAME>  (4222) 
VITAMIN K1

>  <SYNONYMS>  (4222) 
PHYLLOQUINONE

>  <SPECTRUM TYPE>  (4222) 
MS1

>  <INSTRUMENT TYPE>  (4222) 
EI-B

>  <INSTRUMENT>  (4222) 
HITACHI M-80

>  <ION MODE>  (4222) 
P

>  <INCHIKEY>  (4222) 
MBWXNTAXLNYFJB-NKFFZRIASA-N

>  <FORMULA>  (4222) 
C31H46O2

>  <EXACT MASS>  (4222) 
450.349780712

>  <MW>  (4222) 
450

>  <ID>  (4222) 
JP006238

>  <CONTRIBUTOR>  (4222) 
University of Tokyo Team, {Faculty of Engineering, University of Tokyo

>  <COMMENT>  (4222) 
SMILES=c(c1CC=C(CCCC(CCCC(CCCC(C)C)([H])C)([H])C)C)(=O)c(c2)c(ccc2)c(=O)c(C)1
cas=84-80-0
InChI=InChI=1S/C31H46O2/c1-22(2)12-9-13-23(3)14-10-15-24(4)16-11-17-25(5)20-21-27-26(6)30(32)28-18-7-8-19-29(28)31(27)33/h7-8,18-20,22-24H,9-17,21H2,1-6H3/b25-20+/t23-,24-/m1/s1
computed SMILES=O=C1C=2C=CC=CC2C(=O)C(=C1C)CC=C(C)CCCC(C)CCCC(C)CCCC(C)C
accession=JP006238
date=2016.01.19 (Created 2008.10.21, modified 2011.05.06)
author=MASS SPECTROSCOPY SOC. OF JAPAN (MSSJ)
license=CC BY-NC-SA
exact mass=450.34978
ionization energy=70 eV
ion type=[M]+*
computed spectral entropy=3.884594965217839
computed normalized entropy=0.7635422917334113
SPLASH=splash10-0udl-9740400000-e47d11ed7b15a667d611
submitter=submitter = University of Tokyo Team (Faculty of Engineering, University of Tokyo)
MoNA Rating=3.75

>  <NUM PEAKS>  (4222) 
162

>  <MASS SPECTRAL PEAKS>  (4222) 
39 3.79
40 0.93
41 31.55
42 5.96
43 67.38
44 2.04
50 0.59
51 0.73
53 2.64
54 0.75
55 27.59
56 6.05
57 37.55
58 1.72
65 1.01
67 3.96
68 1.51
69 15.52
70 2.43
71 15.56
72 0.77
75 0.51
76 2.56
77 4.23
78 0.61
79 2.12
80 0.74
81 5
82 1.23
83 6.29
84 0.87
85 4.21
89 0.57
90 0.17
91 2.51
92 0.47
93 1.72
94 1.02
95 3.37
96 0.72
97 4.1
98 0.44
99 0.57
103 0.78
104 2.48
105 7.08
106 0.6
107 1.04
108 0.38
109 2.49
110 0.43
111 1.82
112 0.34
113 0.4
114 0.31
115 3.75
116 0.68
117 0.46
119 0.83
121 0.72
122 0.21
123 1.12
124 0.3
125 0.57
127 1.36
128 3.4
129 2.76
130 0.77
131 0.73
132 0.31
133 3.47
134 0.45
137 0.51
139 0.62
141 3.76
142 1.12
143 0.98
144 0.43
145 0.57
147 1.83
151 0.41
152 2.06
153 1.9
154 0.7
155 1.11
157 3
158 2.44
159 1.22
160 0.58
161 0.99
165 3.02
166 1.29
167 1.1
168 0.7
169 2.18
170 0.78
171 1.96
172 0.59
173 1.32
174 1.84
175 0.41
178 2.27
179 1.91
180 0.63
181 4.82
182 1.52
183 1.47
184 0.78
185 1.12
186 37.39
187 23.98
188 4.13
189 0.69
191 0.47
192 0.45
193 1.43
194 0.88
195 3.19
196 1.88
197 12.36
198 36.06
199 8.75
200 4.32
201 0.95
207 1.27
208 1.2
209 3.16
210 3.31
211 8
212 3.04
213 1.98
214 0.5
221 1.51
222 1.13
223 3.35
224 7.36
225 49.58
226 21.03
227 7.96
228 1.57
235 0.58
236 0.36
237 1.22
238 1.45
239 5.46
240 1.77
241 1.35
242 1.15
252 0.4
253 1.33
254 0.97
267 1.52
268 0.73
433 0.45
435 3.06
436 1.07
448 0.71
449 0.76
450 99.99
451 34.27
452 6.87
453 0.99

$$$$

     RDKit          2D

 33 34  0  0  0  0  0  0  0  0999 V2000
   22.6446   -0.7533    0.0000 C   0  0  0  0  0  0  0  0  0  0  0  0
   21.3452   -3.0031    0.0000 C   0  0  0  0  0  0  0  0  0  0  0  0
   16.1491   -3.0023    0.0000 C   0  0  0  0  0  0  0  0  0  0  0  0
   10.9529   -3.0015    0.0000 C   0  0  0  0  0  0  0  0  0  0  0  0
    5.7568   -3.0006    0.0000 C   0  0  0  0  0  0  0  0  0  0  0  0
    3.1589    1.5002    0.0000 C   0  0  0  0  0  0  0  0  0  0  0  0
   -3.3400    0.7500    0.0000 C   0  0  0  0  0  0  0  0  0  0  0  0
   -3.3400   -0.7500    0.0000 C   0  0  0  0  0  0  0  0  0  0  0  0
   18.7474   -1.5027    0.0000 C   0  0  0  0  0  0  0  0  0  0  0  0
   13.5512   -1.5019    0.0000 C   0  0  0  0  0  0  0  0  0  0  0  0
    8.3551   -1.5010    0.0000 C   0  0  0  0  0  0  0  0  0  0  0  0
   20.0465   -0.7529    0.0000 C   0  0  0  0  0  0  0  0  0  0  0  0
   17.4485   -0.7525    0.0000 C   0  0  0  0  0  0  0  0  0  0  0  0
   14.8504   -0.7521    0.0000 C   0  0  0  0  0  0  0  0  0  0  0  0
   12.2523   -0.7517    0.0000 C   0  0  0  0  0  0  0  0  0  0  0  0
    9.6542   -0.7512    0.0000 C   0  0  0  0  0  0  0  0  0  0  0  0
    7.0562   -0.7508    0.0000 C   0  0  0  0  0  0  0  0  0  0  0  0
   -2.0400    1.5000    0.0000 C   0  0  0  0  0  0  0  0  0  0  0  0
   -2.0400   -1.5000    0.0000 C   0  0  0  0  0  0  0  0  0  0  0  0
    4.4581   -0.7504    0.0000 C   0  0  0  0  0  0  0  0  0  0  0  0
    3.1589   -1.5002    0.0000 C   0  0  0  0  0  0  0  0  0  0  0  0
   21.3455   -1.5031    0.0000 C   0  0  0  0  0  0  0  0  0  0  0  0
   16.1493   -1.5023    0.0000 C   0  0  0  0  0  0  0  0  0  0  0  0
   10.9531   -1.5015    0.0000 C   0  0  0  0  0  0  0  0  0  0  0  0
    5.7570   -1.5006    0.0000 C   0  0  0  0  0  0  0  0  0  0  0  0
    1.8600    0.7500    0.0000 C   0  0  0  0  0  0  0  0  0  0  0  0
    1.8600   -0.7500    0.0000 C   0  0  0  0  0  0  0  0  0  0  0  0
   -0.7400    0.7500    0.0000 C   0  0  0  0  0  0  0  0  0  0  0  0
   -0.7400   -0.7500    0.0000 C   0  0  0  0  0  0  0  0  0  0  0  0
    0.5600    1.5000    0.0000 C   0  0  0  0  0  0  0  0  0  0  0  0
    0.5600   -1.5000    0.0000 C   0  0  0  0  0  0  0  0  0  0  0  0
    0.5600    3.0000    0.0000 O   0  0  0  0  0  0  0  0  0  0  0  0
    0.5600   -3.0000    0.0000 O   0  0  0  0  0  0  0  0  0  0  0  0
  8  7  2  0
 12  9  1  0
 13  9  1  0
 14 10  1  0
 15 10  1  0
 16 11  1  0
 17 11  1  0
 18  7  1  0
 19  8  1  0
 21 20  1  0
 22  1  1  0
 22  2  1  0
 22 12  2  0
 23  3  1  0
 23 13  1  0
 14 23  2  0
 24  4  1  0
 24 15  1  0
 16 24  2  0
 25  5  1  0
 25 17  1  0
 20 25  2  0
 26  6  1  0
 27 21  1  0
 27 26  2  0
 28 18  2  0
 29 19  2  0
 29 28  1  0
 30 26  1  0
 30 28  1  0
 31 27  1  0
 31 29  1  0
 32 30  2  0
 33 31  2  0
M  END
>  <NAME>  (4223) 
VITAMIN K2

>  <SYNONYMS>  (4223) 
MENSAQUINONE

>  <SPECTRUM TYPE>  (4223) 
MS1

>  <INSTRUMENT TYPE>  (4223) 
EI-B

>  <INSTRUMENT>  (4223) 
HITACHI M-80

>  <ION MODE>  (4223) 
P

>  <INCHIKEY>  (4223) 
DKHGMERMDICWDU-GHDNBGIDSA-N

>  <FORMULA>  (4223) 
C31H40O2

>  <EXACT MASS>  (4223) 
444.30283052

>  <MW>  (4223) 
444

>  <ID>  (4223) 
JP006237

>  <CONTRIBUTOR>  (4223) 
University of Tokyo Team, {Faculty of Engineering, University of Tokyo

>  <COMMENT>  (4223) 
SMILES=C(C)(CCC=C(C)CCC=C(C)C)=CCCC(C)=CCc(c(=O)1)c(C)c(=O)c(c2)c1ccc2
InChI=InChI=1S/C31H40O2/c1-22(2)12-9-13-23(3)14-10-15-24(4)16-11-17-25(5)20-21-27-26(6)30(32)28-18-7-8-19-29(28)31(27)33/h7-8,12,14,16,18-20H,9-11,13,15,17,21H2,1-6H3/b23-14+,24-16+,25-20+
computed SMILES=O=C1C=2C=CC=CC2C(=O)C(=C1C)CC=C(C)CCC=C(C)CCC=C(C)CCC=C(C)C
accession=JP006237
date=2016.01.19 (Created 2008.10.21, modified 2011.05.06)
author=MASS SPECTROSCOPY SOC. OF JAPAN (MSSJ)
license=CC BY-NC-SA
exact mass=444.30283
ionization energy=70 eV
ion type=[M]+*
computed spectral entropy=4.074737137528043
computed normalized entropy=0.7805477775965409
SPLASH=splash10-014l-9430000000-936e4020e35c79ab80a8
submitter=submitter = University of Tokyo Team (Faculty of Engineering, University of Tokyo)
MoNA Rating=3.75

>  <NUM PEAKS>  (4223) 
185

>  <MASS SPECTRAL PEAKS>  (4223) 
36 0.6
39 5.28
40 2.2
41 54.27
42 0.28
43 15.92
44 1.05
45 0.68
50 0.82
51 1.2
52 0.63
53 8.94
54 1.01
55 12.25
56 0.99
57 1.88
63 0.57
65 2.13
66 1.12
67 10.94
68 12.02
69 99.99
70 5.51
71 0.78
73 0.46
74 0.23
75 0.54
76 2.48
77 6.93
78 1.09
79 5.64
80 1.8
81 27.94
82 2.75
83 1.54
85 0.33
89 0.61
93 8.73
94 1.44
95 8.07
96 0.77
97 0.84
101 0.23
102 0.37
103 1
104 2.02
105 5.28
106 0.76
107 5.32
108 1.19
109 4.42
110 0.53
111 0.51
115 3.62
116 0.52
117 0.54
119 2.23
120 0.94
121 7.44
122 3.55
123 3.54
124 0.43
127 1.09
128 2.66
129 1.74
130 0.38
131 0.62
133 2.85
134 1.49
135 5.3
136 3.73
137 4.13
138 0.49
139 0.65
141 1.99
142 0.69
143 0.59
145 0.76
147 2.29
148 0.59
149 1.57
151 0.42
152 1.97
153 1.44
154 0.49
155 0.71
157 1.39
158 0.47
159 0.9
160 0.34
161 1.29
162 0.29
163 0.55
165 2.45
166 1.01
167 0.93
168 0.71
169 1.16
170 0.26
171 0.86
173 0.91
174 0.75
175 1.03
176 0.37
177 0.52
178 2.82
179 1.68
180 0.47
181 4.43
182 1.2
183 0.55
184 0.4
185 0.58
186 5.26
187 9.01
188 1.54
189 1.91
190 0.47
191 0.55
192 0.3
193 1.67
194 0.74
195 3.37
196 2.9
197 6.51
198 3.35
199 1.4
200 0.63
201 0.7
202 0.33
203 0.79
204 1.41
205 0.5
206 0.28
207 0.72
208 0.54
209 2.17
210 1.9
211 2.22
212 0.74
213 0.82
215 0.38
221 2.54
222 1.14
223 2.58
224 10.55
225 30.55
226 6.55
227 6.02
228 0.96
235 0.32
236 0.24
237 0.84
238 2.1
239 12.7
240 5.62
241 1.19
242 0.52
249 0.29
250 0.27
251 1.16
252 1.42
253 0.74
254 0.34
257 1.06
258 0.63
259 0.41
263 0.41
264 0.4
265 2.89
266 1.03
267 0.67
289 0.51
294 0.48
295 0.26
307 3.14
308 2.06
309 0.37
375 1.06
376 0.49
429 0.54
430 0.25
444 10.09
445 3.36
446 0.98

$$$$

     RDKit          2D

  9  8  0  0  0  0  0  0  0  0999 V2000
   -6.3212    3.8505    0.0000 C   0  0  0  0  0  0  0  0  0  0  0  0
    0.1740    3.1005    0.0000 C   0  0  0  0  0  0  0  0  0  0  0  0
   -0.5760    1.8014    0.0000 H   0  0  0  0  0  0  0  0  0  0  0  0
    1.4731    2.3505    0.0000 H   0  0  0  0  0  0  0  0  0  0  0  0
    0.9240    4.3995    0.0000 H   0  0  0  0  0  0  0  0  0  0  0  0
   -5.0221    3.1005    0.0000 C   0  0  0  0  0  0  0  0  0  0  0  0
   -3.7231    3.8505    0.0000 C   0  0  0  0  0  0  0  0  0  0  0  0
   -2.4240    3.1005    0.0000 C   0  0  0  0  0  0  0  0  0  0  0  0
   -1.1250    3.8505    0.0000 Si  0  0  0  0  0  4  0  0  0  0  0  0
  2  3  1  0
  2  4  1  0
  2  5  1  0
  6  1  1  0
  7  6  1  0
  8  7  1  0
  9  2  1  0
  9  8  1  0
M  ISO  3   3   2   4   2   5   2
M  END
>  <NAME>  (4224) 
BUTYLMETHYLSILANE (METHYL-D3)

>  <SYNONYMS>  (4224) 


>  <SPECTRUM TYPE>  (4224) 
MS1

>  <INSTRUMENT TYPE>  (4224) 
EI-B

>  <INSTRUMENT>  (4224) 
HITACHI M-80

>  <ION MODE>  (4224) 
P

>  <INCHIKEY>  (4224) 
MFGTZDMAYACKNE-BMSJAHLVSA-N

>  <FORMULA>  (4224) 
C5H14Si

>  <EXACT MASS>  (4224) 
105.105307216

>  <MW>  (4224) 
105

>  <ID>  (4224) 
JP006025

>  <CONTRIBUTOR>  (4224) 
University of Tokyo Team, {Faculty of Engineering, University of Tokyo

>  <COMMENT>  (4224) 
SMILES=CCCC[SiH2]C([2H])([2H])[2H]
InChI=InChI=1S/C5H14Si/c1-3-4-5-6-2/h3-6H2,1-2H3/i2D3
computed SMILES=[H]C([H])([H])[SiH2]CCCC
accession=JP006025
date=2016.01.19 (Created 2008.10.21, modified 2011.05.06)
author=YAMAMOTO M, DEP. CHEMISTRY, FAC. SCIENCE, NARA WOMEN'S UNIV.
license=CC BY-NC-SA
exact mass=102.08648
ionization energy=70 eV
ion type=[M]+*
computed spectral entropy=2.7417179024918408
computed normalized entropy=0.7537190274272622
SPLASH=splash10-004j-9000000000-be774424a1b81918b3ad
submitter=submitter = University of Tokyo Team (Faculty of Engineering, University of Tokyo)
MoNA Rating=3.75

>  <NUM PEAKS>  (4224) 
38

>  <MASS SPECTRAL PEAKS>  (4224) 
27 4.53
28 3.13
29 5.82
30 1.05
31 1.62
39 3.2
41 7.86
42 2.31
43 5.04
44 2.68
45 9.76
46 11.54
47 12.27
48 85.4
49 5.6
50 2.57
53 1.49
55 5.56
56 23.63
57 4.03
58 4.18
59 9.07
60 1.05
61 4.74
62 21.68
63 1.91
69 1.9
73 1.29
74 3.21
75 27.43
76 99.99
77 11.3
78 3.74
85 1.18
88 2.23
103 9.3
104 2.98
105 2.09

$$$$

     RDKit          2D

  8  7  0  0  0  0  0  0  0  0999 V2000
    1.5368    3.1373    0.0000 C   0  0  0  0  0  0  0  0  0  0  0  0
   -4.4094    4.4363    0.0000 C   0  0  0  0  0  0  0  0  0  0  0  0
    0.2377    3.8873    0.0000 C   0  0  0  0  0  0  0  0  0  0  0  0
   -1.0613    3.1373    0.0000 C   0  0  0  0  0  0  0  0  0  0  0  0
   -2.3603    3.8873    0.0000 C   0  0  0  0  0  0  0  0  0  0  0  0
   -3.6594    3.1373    0.0000 Si  0  0  0  0  0  4  0  0  0  0  0  0
   -4.9584    2.3873    0.0000 H   0  0  0  0  0  0  0  0  0  0  0  0
   -2.9094    1.8382    0.0000 H   0  0  0  0  0  0  0  0  0  0  0  0
  6  7  1  0
  6  8  1  0
  3  1  1  0
  4  3  1  0
  5  4  1  0
  6  2  1  0
  6  5  1  0
M  ISO  2   7   2   8   2
M  END
>  <NAME>  (4225) 
BUTYLMETHYLSILANE (SI-D2)

>  <SYNONYMS>  (4225) 


>  <SPECTRUM TYPE>  (4225) 
MS1

>  <INSTRUMENT TYPE>  (4225) 
EI-B

>  <INSTRUMENT>  (4225) 
HITACHI RMU-6M

>  <ION MODE>  (4225) 
P

>  <INCHIKEY>  (4225) 
MFGTZDMAYACKNE-NCYHJHSESA-N

>  <FORMULA>  (4225) 
C5H14Si

>  <EXACT MASS>  (4225) 
104.09903046999999

>  <MW>  (4225) 
104

>  <ID>  (4225) 
JP006024

>  <CONTRIBUTOR>  (4225) 
University of Tokyo Team, {Faculty of Engineering, University of Tokyo

>  <COMMENT>  (4225) 
SMILES=CCCC[Si]([2H])([2H])C
InChI=InChI=1S/C5H14Si/c1-3-4-5-6-2/h3-6H2,1-2H3/i6D2
computed SMILES=[H][Si]([H])(C)CCCC
accession=JP006024
date=2016.01.19 (Created 2008.10.21, modified 2011.05.06)
author=YAMAMOTO M, DEP. CHEMISTRY, FAC. SCIENCE, NARA WOMEN'S UNIV.
license=CC BY-NC-SA
exact mass=102.08648
ionization energy=70 eV
ion type=[M]+*
computed spectral entropy=2.8109132712699276
computed normalized entropy=0.7428045481852413
SPLASH=splash10-004j-9000000000-9a580cf2af18cefba0c2
submitter=submitter = University of Tokyo Team (Faculty of Engineering, University of Tokyo)
MoNA Rating=3.75

>  <NUM PEAKS>  (4225) 
44

>  <MASS SPECTRAL PEAKS>  (4225) 
26 1
27 7.1
28 3.9
29 0.62
30 2.1
31 1.7
32 2.1
33 0.12
39 3.8
40 1
41 7.2
42 0.21
43 9.4
44 10.1
45 31.5
46 4.1
47 36.7
48 3.1
49 1.3
53 0.16
55 1.7
56 10.4
57 10.4
58 0.44
59 13.8
60 13.7
61 6.4
62 0.1
71 1.5
72 13.6
73 10.5
74 0.63
75 99.99
76 11.3
77 4
85 0.14
86 1.8
89 1.6
100 1.3
101 1.17
102 4.6
103 1.1
104 6
105 0.8

$$$$

     RDKit          2D

  6  5  0  0  0  0  0  0  0  0999 V2000
   -4.5466    3.3750    0.0000 C   0  0  0  0  0  0  0  0  0  0  0  0
    1.9486    2.6250    0.0000 C   0  0  0  0  0  0  0  0  0  0  0  0
   -3.2476    2.6250    0.0000 C   0  0  0  0  0  0  0  0  0  0  0  0
   -1.9486    3.3750    0.0000 C   0  0  0  0  0  0  0  0  0  0  0  0
   -0.6495    2.6250    0.0000 C   0  0  0  0  0  0  0  0  0  0  0  0
    0.6495    3.3750    0.0000 Si  0  0  0  0  0  4  0  0  0  0  0  0
  3  1  1  0
  4  3  1  0
  5  4  1  0
  6  2  1  0
  6  5  1  0
M  END
>  <NAME>  (4226) 
BUTYLMETHYLSILANE

>  <SYNONYMS>  (4226) 


>  <SPECTRUM TYPE>  (4226) 
MS1

>  <INSTRUMENT TYPE>  (4226) 
EI-B

>  <INSTRUMENT>  (4226) 
HITACHI RMU-6M

>  <ION MODE>  (4226) 
P

>  <INCHIKEY>  (4226) 
MFGTZDMAYACKNE-UHFFFAOYSA-N

>  <FORMULA>  (4226) 
C5H14Si

>  <EXACT MASS>  (4226) 
102.08647697800001

>  <MW>  (4226) 
102

>  <ID>  (4226) 
JP006023

>  <CONTRIBUTOR>  (4226) 
University of Tokyo Team, {Faculty of Engineering, University of Tokyo

>  <COMMENT>  (4226) 
SMILES=CCCC[SiH2]C
InChI=InChI=1S/C5H14Si/c1-3-4-5-6-2/h3-6H2,1-2H3
computed SMILES=CCCC[SiH2]C
accession=JP006023
date=2016.01.19 (Created 2008.10.21, modified 2011.05.06)
author=YAMAMOTO M, DEP. CHEMISTRY, FAC. SCIENCE, NARA WOMEN'S UNIV.
license=CC BY-NC-SA
exact mass=102.08648
ionization energy=70 eV
ion type=[M]+*
computed spectral entropy=2.3799993324496618
computed normalized entropy=0.6749166217792552
SPLASH=splash10-00dj-9000000000-83298483ae3d008afeed
submitter=submitter = University of Tokyo Team (Faculty of Engineering, University of Tokyo)
MoNA Rating=3.75

>  <NUM PEAKS>  (4226) 
34

>  <MASS SPECTRAL PEAKS>  (4226) 
27 6.8
28 3.7
29 3.9
31 0.29
32 1.2
39 3.9
41 8.8
42 0.31
43 19.5
44 11
45 87.6
46 0.57
47 3
53 1.8
55 2.8
56 2.04
57 2.5
58 9.5
59 30.6
60 0.25
61 1.3
70 1
71 2.9
72 2.31
73 99.99
74 10.6
75 3.5
85 0.37
86 1.3
87 2.7
100 13
101 0.59
102 5.5
103 1

$$$$

     RDKit          2D

  8  7  0  0  0  0  0  0  0  0999 V2000
    1.6740    0.1005    0.0000 C   0  0  0  0  0  0  0  0  0  0  0  0
   -0.9240    1.6005    0.0000 C   0  0  0  0  0  0  0  0  0  0  0  0
   -0.3750   -0.4486    0.0000 C   0  0  0  0  0  0  0  0  0  0  0  0
    2.4240    1.3995    0.0000 C   0  0  0  0  0  0  0  0  0  0  0  0
    1.8750    3.4486    0.0000 C   0  0  0  0  0  0  0  0  0  0  0  0
   -0.1740    2.8995    0.0000 C   0  0  0  0  0  0  0  0  0  0  0  0
    0.3750    0.8505    0.0000 C   0  0  0  0  0  0  0  0  0  0  0  0
    1.1250    2.1495    0.0000 C   0  0  0  0  0  0  0  0  0  0  0  0
  7  1  1  0
  7  2  1  0
  7  3  1  0
  8  4  1  0
  8  5  1  0
  8  6  1  0
  8  7  1  0
M  END
>  <NAME>  (4227) 
HEXAMETHYLETHANE

>  <SYNONYMS>  (4227) 
2,2,3,3-TERTMETHYLBUTANE

>  <SPECTRUM TYPE>  (4227) 
MS1

>  <INSTRUMENT TYPE>  (4227) 
EI-B

>  <INSTRUMENT>  (4227) 
HITACHI RMU-6M

>  <ION MODE>  (4227) 
P

>  <INCHIKEY>  (4227) 
OMMLUKLXGSRPHK-UHFFFAOYSA-N

>  <FORMULA>  (4227) 
C8H18

>  <EXACT MASS>  (4227) 
114.14085057599999

>  <MW>  (4227) 
114

>  <ID>  (4227) 
JP006022

>  <CONTRIBUTOR>  (4227) 
University of Tokyo Team, {Faculty of Engineering, University of Tokyo

>  <COMMENT>  (4227) 
SMILES=CC(C)(C)C(C)(C)C
InChI=InChI=1S/C8H18/c1-7(2,3)8(4,5)6/h1-6H3
computed SMILES=CC(C)(C)C(C)(C)C
accession=JP006022
date=2016.01.19 (Created 2008.10.21, modified 2011.05.06)
author=YAMAMOTO M, DEP. CHEMISTRY, FAC. SCIENCE, NARA WOMEN'S UNIV.
license=CC BY-NC-SA
exact mass=114.14085
ionization energy=70 eV
ion type=[M]+*
computed spectral entropy=1.7445061695772182
computed normalized entropy=0.556373588799705
SPLASH=splash10-0a4i-9000000000-dcfa906988445e9870c6
submitter=submitter = University of Tokyo Team (Faculty of Engineering, University of Tokyo)
MoNA Rating=3.75

>  <NUM PEAKS>  (4227) 
23

>  <MASS SPECTRAL PEAKS>  (4227) 
15 0.8
27 3.9
28 3.4
29 1.09
32 1
39 5.1
40 1.1
41 2.15
42 1.3
43 14.5
44 0.7
51 0.06
53 1.2
55 3.3
56 35.3
57 99.99
58 4.6
67 0.6
69 1.6
71 0.06
83 1
99 7.9
100 0.8

$$$$

     RDKit          2D

  6  5  0  0  0  0  0  0  0  0999 V2000
   -0.0000   -0.0000    0.0000 C   0  0  0  0  0  0  0  0  0  0  0  0
    1.2990    2.2500    0.0000 C   0  0  0  0  0  0  0  0  0  0  0  0
   -1.2990    3.7500    0.0000 C   0  0  0  0  0  0  0  0  0  0  0  0
   -2.5981    1.5000    0.0000 C   0  0  0  0  0  0  0  0  0  0  0  0
   -0.0000    1.5000    0.0000 C   0  0  0  0  0  0  0  0  0  0  0  0
   -1.2990    2.2500    0.0000 C   0  0  0  0  0  0  0  0  0  0  0  0
  5  1  1  0
  5  2  1  0
  6  3  1  0
  6  4  1  0
  6  5  1  0
M  END
>  <NAME>  (4228) 
2,3-DIMETHYLBUTANE

>  <SYNONYMS>  (4228) 


>  <SPECTRUM TYPE>  (4228) 
MS1

>  <INSTRUMENT TYPE>  (4228) 
EI-B

>  <INSTRUMENT>  (4228) 
HITACHI RMU-6M

>  <ION MODE>  (4228) 
P

>  <INCHIKEY>  (4228) 
ZFFMLCVRJBZUDZ-UHFFFAOYSA-N

>  <FORMULA>  (4228) 
C6H14

>  <EXACT MASS>  (4228) 
86.109550448

>  <MW>  (4228) 
86

>  <ID>  (4228) 
JP006021

>  <CONTRIBUTOR>  (4228) 
University of Tokyo Team, {Faculty of Engineering, University of Tokyo

>  <COMMENT>  (4228) 
SMILES=CC(C)C(C)C
InChI=InChI=1S/C6H14/c1-5(2)6(3)4/h5-6H,1-4H3
computed SMILES=CC(C)C(C)C
accession=JP006021
date=2016.01.19 (Created 2008.10.21, modified 2011.05.06)
author=YAMAMOTO M, DEP. CHEMISTRY, FAC. SCIENCE, NARA WOMEN'S UNIV.
license=CC BY-NC-SA
exact mass=86.10955
ionization energy=70 eV
ion type=[M]+*
computed spectral entropy=1.8500331836670896
computed normalized entropy=0.5678263863815847
SPLASH=splash10-0006-9000000000-3c7a22f4ffc77da13848
submitter=submitter = University of Tokyo Team (Faculty of Engineering, University of Tokyo)
MoNA Rating=3.75

>  <NUM PEAKS>  (4228) 
26

>  <MASS SPECTRAL PEAKS>  (4228) 
15 1
26 0.8
27 13.1
28 0.38
29 6.2
32 1
38 0.8
39 0.96
40 1.7
41 26.2
42 94.2
43 99.99
44 3.3
50 0.6
51 0.9
53 0.17
55 4.8
56 0.9
57 1.1
69 0.08
70 1.1
71 21.3
72 1.4
85 0.12
86 8.1
87 0.7

$$$$

     RDKit          2D

  8  7  0  0  0  0  0  0  0  0999 V2000
    1.6740    0.1005    0.0000 C   0  0  0  0  0  0  0  0  0  0  0  0
   -0.9240    1.6005    0.0000 C   0  0  0  0  0  0  0  0  0  0  0  0
   -0.3750   -0.4486    0.0000 C   0  0  0  0  0  0  0  0  0  0  0  0
    2.4240    1.3995    0.0000 C   0  0  0  0  0  0  0  0  0  0  0  0
    1.8750    3.4486    0.0000 C   0  0  0  0  0  0  0  0  0  0  0  0
   -0.1740    2.8995    0.0000 C   0  0  0  0  0  0  0  0  0  0  0  0
    0.3750    0.8505    0.0000 Si  0  0  0  0  0  4  0  0  0  0  0  0
    1.1250    2.1495    0.0000 Si  0  0  0  0  0  4  0  0  0  0  0  0
  7  1  1  0
  7  2  1  0
  7  3  1  0
  8  4  1  0
  8  5  1  0
  8  6  1  0
  8  7  1  0
M  END
>  <NAME>  (4229) 
HEXAMETHYLDISILANE

>  <SYNONYMS>  (4229) 


>  <SPECTRUM TYPE>  (4229) 
MS1

>  <INSTRUMENT TYPE>  (4229) 
EI-B

>  <INSTRUMENT>  (4229) 
HITACHI RMU-6M

>  <ION MODE>  (4229) 
P

>  <INCHIKEY>  (4229) 
NEXSMEBSBIABKL-UHFFFAOYSA-N

>  <FORMULA>  (4229) 
C6H18Si2

>  <EXACT MASS>  (4229) 
146.094703636

>  <MW>  (4229) 
146

>  <ID>  (4229) 
JP006020

>  <CONTRIBUTOR>  (4229) 
University of Tokyo Team, {Faculty of Engineering, University of Tokyo

>  <COMMENT>  (4229) 
SMILES=C[Si](C)(C)[Si](C)(C)C
InChI=InChI=1S/C6H18Si2/c1-7(2,3)8(4,5)6/h1-6H3
computed SMILES=C[Si](C)(C)[Si](C)(C)C
accession=JP006020
date=2016.01.19 (Created 2008.10.21, modified 2011.05.06)
author=YAMAMOTO M, DEP. CHEMISTRY, FAC. SCIENCE, NARA WOMEN'S UNIV.
license=CC BY-NC-SA
exact mass=146.0947
ionization energy=70 eV
ion type=[M]+*
computed spectral entropy=1.8873415758889058
computed normalized entropy=0.5663942804607967
SPLASH=splash10-00di-9200000000-9db424771a93bb9151b8
submitter=submitter = University of Tokyo Team (Faculty of Engineering, University of Tokyo)
MoNA Rating=3.75

>  <NUM PEAKS>  (4229) 
28

>  <MASS SPECTRAL PEAKS>  (4229) 
28 3.4
29 1.5
31 0.8
32 0.06
43 5.9
44 1.9
45 10.8
46 0.09
53 0.6
55 1.1
57 0.8
58 0.15
59 3.4
69 0.8
72 2.7
73 99.99
74 8.2
75 3.8
85 0.6
99 0.07
115 1.6
129 0.6
131 23
132 0.36
133 2
146 11.7
147 2
148 1

$$$$

     RDKit          2D

  8  7  0  0  0  0  0  0  0  0999 V2000
    1.6740    0.1005    0.0000 C   0  0  0  0  0  0  0  0  0  0  0  0
   -0.3750   -0.4486    0.0000 C   0  0  0  0  0  0  0  0  0  0  0  0
    2.4240    1.3995    0.0000 C   0  0  0  0  0  0  0  0  0  0  0  0
   -0.1740    2.8995    0.0000 C   0  0  0  0  0  0  0  0  0  0  0  0
    0.3750    0.8505    0.0000 Si  0  0  0  0  0  4  0  0  0  0  0  0
   -0.9240    1.6005    0.0000 H   0  0  0  0  0  0  0  0  0  0  0  0
    1.1250    2.1495    0.0000 Si  0  0  0  0  0  4  0  0  0  0  0  0
    1.8750    3.4486    0.0000 H   0  0  0  0  0  0  0  0  0  0  0  0
  5  6  1  0
  7  8  1  0
  5  1  1  0
  5  2  1  0
  7  3  1  0
  7  4  1  0
  7  5  1  0
M  ISO  2   6   2   8   2
M  END
>  <NAME>  (4230) 
1,1,2,2-TETRAMETHYLDISILANE (SI-D2)

>  <SYNONYMS>  (4230) 


>  <SPECTRUM TYPE>  (4230) 
MS1

>  <INSTRUMENT TYPE>  (4230) 
EI-B

>  <INSTRUMENT>  (4230) 
HITACHI RMU-6M

>  <ION MODE>  (4230) 
P

>  <INCHIKEY>  (4230) 
RDWAGGBALVFUHB-KCZCTXNHSA-N

>  <FORMULA>  (4230) 
C4H14Si2

>  <EXACT MASS>  (4230) 
120.07595699999999

>  <MW>  (4230) 
120

>  <ID>  (4230) 
JP006019

>  <CONTRIBUTOR>  (4230) 
University of Tokyo Team, {Faculty of Engineering, University of Tokyo

>  <COMMENT>  (4230) 
SMILES=[2H][Si](C)(C)[Si]([2H])(C)C
InChI=InChI=1S/C4H14Si2/c1-5(2)6(3)4/h5-6H,1-4H3/i5D,6D
computed SMILES=[H][Si](C)(C)[Si]([H])(C)C
accession=JP006019
date=2016.01.19 (Created 2008.10.21, modified 2011.05.06)
author=YAMAMOTO M, DEP. CHEMISTRY, FAC. SCIENCE, NARA WOMEN'S UNIV.
license=CC BY-NC-SA
exact mass=118.0634
ionization energy=70 eV
ion type=[M]+*
computed spectral entropy=2.8001267082495107
computed normalized entropy=0.6758473699667218
SPLASH=splash10-074i-9200000000-9e122d94ce49a184d380
submitter=submitter = University of Tokyo Team (Faculty of Engineering, University of Tokyo)
MoNA Rating=3.75

>  <NUM PEAKS>  (4230) 
63

>  <MASS SPECTRAL PEAKS>  (4230) 
27 0.5
28 3.2
29 5
30 0.09
31 7.6
32 5.1
33 0.6
39 0.12
42 2.6
43 37
44 9.8
45 0.66
46 3.2
47 1.5
50 1.3
51 0.14
52 1.9
53 2
54 0.7
55 0.17
56 0.9
57 1.6
58 66.7
59 1.2
60 99.99
61 8.5
62 3.5
68 0.05
69 4
70 2.4
71 1.8
72 0.16
73 76.3
74 11.7
75 3.6
76 0.09
77 1.5
78 9.5
79 0.6
81 0.1
83 0.8
84 0.8
85 1.7
86 0.28
87 1.3
88 1.8
89 0.9
99 0.08
100 0.9
101 3.9
102 3.3
103 0.98
104 2.4
105 30.9
106 4.1
107 0.25
116 0.8
117 0.6
118 4.8
119 0.15
120 32.6
121 4.9
122 2.5

$$$$

     RDKit          2D

  6  5  0  0  0  0  0  0  0  0999 V2000
   -0.0000   -0.0000    0.0000 C   0  0  0  0  0  0  0  0  0  0  0  0
    1.2990    2.2500    0.0000 C   0  0  0  0  0  0  0  0  0  0  0  0
   -1.2990    3.7500    0.0000 C   0  0  0  0  0  0  0  0  0  0  0  0
   -2.5981    1.5000    0.0000 C   0  0  0  0  0  0  0  0  0  0  0  0
   -0.0000    1.5000    0.0000 Si  0  0  0  0  0  4  0  0  0  0  0  0
   -1.2990    2.2500    0.0000 Si  0  0  0  0  0  4  0  0  0  0  0  0
  5  1  1  0
  5  2  1  0
  6  3  1  0
  6  4  1  0
  6  5  1  0
M  END
>  <NAME>  (4231) 
1,1,2,2-TETRAMETHYLDISILANE

>  <SYNONYMS>  (4231) 


>  <SPECTRUM TYPE>  (4231) 
MS1

>  <INSTRUMENT TYPE>  (4231) 
EI-B

>  <INSTRUMENT>  (4231) 
HITACHI RMU-6M

>  <ION MODE>  (4231) 
P

>  <INCHIKEY>  (4231) 
RDWAGGBALVFUHB-UHFFFAOYSA-N

>  <FORMULA>  (4231) 
C4H14Si2

>  <EXACT MASS>  (4231) 
118.063403508

>  <MW>  (4231) 
118

>  <ID>  (4231) 
JP006018

>  <CONTRIBUTOR>  (4231) 
University of Tokyo Team, {Faculty of Engineering, University of Tokyo

>  <COMMENT>  (4231) 
SMILES=C[SiH](C)[SiH](C)C
InChI=InChI=1S/C4H14Si2/c1-5(2)6(3)4/h5-6H,1-4H3
computed SMILES=C[SiH](C)[SiH](C)C
accession=JP006018
date=2016.01.19 (Created 2008.10.21, modified 2011.05.06)
author=YAMAMOTO M, DEP. CHEMISTRY, FAC. SCIENCE, NARA WOMEN'S UNIV.
license=CC BY-NC-SA
exact mass=118.0634
ionization energy=70 eV
ion type=[M]+*
computed spectral entropy=2.797561449299381
computed normalized entropy=0.6919431053363192
SPLASH=splash10-0a4i-9200000000-0f190f7207b81a759394
submitter=submitter = University of Tokyo Team (Faculty of Engineering, University of Tokyo)
MoNA Rating=3.75

>  <NUM PEAKS>  (4231) 
57

>  <MASS SPECTRAL PEAKS>  (4231) 
26 0.5
27 0.6
28 3.3
29 0.46
31 11.1
32 1.1
37 0.5
38 0.08
39 1.9
41 0.6
42 3.1
43 4.06
44 5.8
45 9.2
46 0.7
50 0.2
51 2.9
52 2.7
53 2.2
55 0.23
56 0.5
57 2.9
58 60.5
59 99.99
60 8.8
61 3.4
63 0.6
69 0.52
70 1.8
71 2.2
72 1.3
73 8.59
74 7.3
75 3.3
76 0.8
77 0.27
78 17
79 1.2
81 1.3
83 0.12
84 0.8
85 3.7
86 1.3
87 0.27
99 1.5
100 1.2
101 6.7
102 1.38
103 27.7
104 4.3
105 2.1
115 0.06
116 0.9
117 8
118 32.5
119 0.52
120 2.3

$$$$

     RDKit          2D

 14 14  0  0  1  0  0  0  0  0999 V2000
    1.0090   -3.5800    0.0000 C   0  0  0  0  0  0  0  0  0  0  0  0
   -1.5890   -3.5800    0.0000 C   0  0  0  0  0  0  0  0  0  0  0  0
   -0.2900    3.1700    0.0000 C   0  0  0  0  0  0  0  0  0  0  0  0
    4.9070   -1.3306    0.0000 C   0  0  0  0  0  0  0  0  0  0  0  0
   -1.5900    0.9200    0.0000 C   0  0  0  0  0  0  0  0  0  0  0  0
   -1.5900   -0.5800    0.0000 C   0  0  0  0  0  0  0  0  0  0  0  0
    1.0100    0.9200    0.0000 C   0  0  0  0  0  0  0  0  0  0  0  0
   -0.2900   -2.8300    0.0000 C   0  0  0  0  0  0  0  0  0  0  0  0
   -0.2900    1.6700    0.0000 C   0  0  0  0  0  0  0  0  0  0  0  0
    3.6081   -0.5804    0.0000 C   0  0  0  0  0  0  0  0  0  0  0  0
   -0.2900   -1.3300    0.0000 C   0  0  0  0  0  0  0  0  0  0  0  0
    1.0100   -0.5800    0.0000 C   0  0  0  0  0  0  0  0  0  0  0  0
    3.6083    0.9196    0.0000 O   0  0  0  0  0  0  0  0  0  0  0  0
    2.3089   -1.3302    0.0000 O   0  0  0  0  0  0  0  0  0  0  0  0
  6  5  1  0
  8  1  2  0
  8  2  1  0
  9  3  1  1
  9  5  1  0
  9  7  1  0
 10  4  1  0
 11  6  1  0
 11  8  1  6
 12  7  1  0
 12 11  1  0
 13 10  2  0
 14 10  1  0
 12 14  1  1
M  END
>  <NAME>  (4232) 
ISOPULEGYL ACETATE(EQUATORIAL)

>  <SYNONYMS>  (4232) 


>  <SPECTRUM TYPE>  (4232) 
MS1

>  <INSTRUMENT TYPE>  (4232) 
EI-B

>  <INSTRUMENT>  (4232) 
HITACHI RMU-6M

>  <ION MODE>  (4232) 
P

>  <INCHIKEY>  (4232) 
HLHIVJRLODSUCI-ADEWGFFLSA-N

>  <FORMULA>  (4232) 
C12H20O2

>  <EXACT MASS>  (4232) 
196.14632988

>  <MW>  (4232) 
196

>  <ID>  (4232) 
JP006014

>  <CONTRIBUTOR>  (4232) 
University of Tokyo Team, {Faculty of Engineering, University of Tokyo

>  <COMMENT>  (4232) 
SMILES=CC(=O)OC(C1)C(CCC(C)1)C(C)=C
InChI=InChI=1S/C12H20O2/c1-8(2)11-6-5-9(3)7-12(11)14-10(4)13/h9,11-12H,1,5-7H2,2-4H3/t9-,11+,12-/m1/s1
computed SMILES=O=C(OC1CC(C)CCC1C(=C)C)C
accession=JP006014
date=2016.01.19 (Created 2008.10.21, modified 2011.05.06)
author=YAMAMOTO M, DEP. CHEMISTRY, FAC. SCIENCE, NARA WOMEN'S UNIV.
license=CC BY-NC-SA
exact mass=196.14633
ionization energy=70 eV
ion type=[M]+*
computed spectral entropy=3.361317841523044
computed normalized entropy=0.7566017784115867
SPLASH=splash10-0006-9300000000-cba940c1d1f1aaf19f8e
submitter=submitter = University of Tokyo Team (Faculty of Engineering, University of Tokyo)
MoNA Rating=3.75

>  <NUM PEAKS>  (4232) 
85

>  <MASS SPECTRAL PEAKS>  (4232) 
15 3.48
28 1.24
29 8.22
30 0.16
31 0.44
32 0.27
38 0.24
39 9.74
40 2.31
41 23.22
42 2.27
43 99.99
44 2.3
45 0.41
50 0.26
51 1.18
52 0.87
53 7.15
54 1.42
55 12.71
56 2.71
57 1.3
58 0.4
59 0.38
61 0.36
62 0.27
65 1.74
66 1.16
67 9.5
68 9.09
69 12.33
70 1.26
71 4.54
72 0.47
77 3.21
78 0.89
79 10.24
80 9.24
81 28.31
82 4.27
83 2.55
84 3.15
85 2.27
86 0.33
91 2.52
92 4.83
93 23.86
94 13.69
95 8.33
96 1.44
97 4.15
98 1.7
99 0.5
101 0.29
105 0.95
106 0.4
107 5.66
108 7.77
109 8.83
110 2.23
111 2.8
112 1.5
113 0.41
115 0.1
119 0.29
120 1.02
121 23.51
122 2.52
123 1.28
124 0.26
125 0.39
134 0.48
135 2.59
136 42.96
137 5.21
138 1.44
139 2.14
140 0.24
145 0.49
152 0.41
153 0.67
154 0.9
163 0.65
196 2.27
197 0.34

$$$$

     RDKit          2D

 14 14  0  0  1  0  0  0  0  0999 V2000
   -2.2389    2.0451    0.0000 C   0  0  0  0  0  0  0  0  0  0  0  0
   -3.5379   -0.2049    0.0000 C   0  0  0  0  0  0  0  0  0  0  0  0
    2.9573   -2.4549    0.0000 C   0  0  0  0  0  0  0  0  0  0  0  0
    5.5560    0.5453    0.0000 C   0  0  0  0  0  0  0  0  0  0  0  0
    0.3587   -2.4557    0.0000 C   0  0  0  0  0  0  0  0  0  0  0  0
   -0.9403   -1.7057    0.0000 C   0  0  0  0  0  0  0  0  0  0  0  0
    0.3597    0.5459    0.0000 C   0  0  0  0  0  0  0  0  0  0  0  0
   -2.2389    0.5451    0.0000 C   0  0  0  0  0  0  0  0  0  0  0  0
    1.6583   -1.7049    0.0000 C   0  0  0  0  0  0  0  0  0  0  0  0
    4.2568   -0.2045    0.0000 C   0  0  0  0  0  0  0  0  0  0  0  0
   -0.9398   -0.2049    0.0000 C   0  0  0  0  0  0  0  0  0  0  0  0
    1.6587   -0.2041    0.0000 C   0  0  0  0  0  0  0  0  0  0  0  0
    4.2566   -1.7045    0.0000 O   0  0  0  0  0  0  0  0  0  0  0  0
    2.9579    0.5457    0.0000 O   0  0  0  0  0  0  0  0  0  0  0  0
  6  5  1  0
  8  1  2  0
  8  2  1  0
  9  3  1  0
  9  5  1  0
 10  4  1  0
 11  6  1  0
 11  7  1  0
 11  8  1  0
 12  7  1  0
 12  9  1  0
 13 10  2  0
 14 10  1  0
 12 14  1  1
M  END
>  <NAME>  (4233) 
DIHYDROCARVENYL ACETATE(EQUATORIAL)

>  <SYNONYMS>  (4233) 


>  <SPECTRUM TYPE>  (4233) 
MS1

>  <INSTRUMENT TYPE>  (4233) 
EI-B

>  <INSTRUMENT>  (4233) 
HITACHI RMU-6M

>  <ION MODE>  (4233) 
P

>  <INCHIKEY>  (4233) 
TUSIZTVSUSBSQI-QEWOUOOISA-N

>  <FORMULA>  (4233) 
C12H20O2

>  <EXACT MASS>  (4233) 
196.14632988

>  <MW>  (4233) 
196

>  <ID>  (4233) 
JP006012

>  <CONTRIBUTOR>  (4233) 
University of Tokyo Team, {Faculty of Engineering, University of Tokyo

>  <COMMENT>  (4233) 
SMILES=CC(=O)OC([H])(C1)C(C)CCC(C(C)=C)1
InChI=InChI=1S/C12H20O2/c1-8(2)11-6-5-9(3)12(7-11)14-10(4)13/h9,11-12H,1,5-7H2,2-4H3/t9?,11?,12-/m1/s1
computed SMILES=O=C(OC1CC(C(=C)C)CCC1C)C
accession=JP006012
date=2016.01.19 (Created 2008.10.21, modified 2011.05.06)
author=YAMAMOTO M, DEP. CHEMISTRY, FAC. SCIENCE, NARA WOMEN'S UNIV.
license=CC BY-NC-SA
exact mass=196.14633
ionization energy=70 eV
ion type=[M]+*
computed spectral entropy=3.364965327718862
computed normalized entropy=0.7769966569902879
SPLASH=splash10-0006-9400000000-0ac164b598b2cc6a7b08
submitter=submitter = University of Tokyo Team (Faculty of Engineering, University of Tokyo)
MoNA Rating=3.75

>  <NUM PEAKS>  (4233) 
76

>  <MASS SPECTRAL PEAKS>  (4233) 
15 5.49
27 12.98
28 7.69
29 15.27
30 0.42
31 0.71
32 1.83
38 0.4
39 18.79
40 5.18
41 44.06
42 4.45
43 96.98
44 2.07
45 0.71
50 0.84
51 2.82
52 1.39
53 15.51
54 3.15
55 24.63
56 2.64
57 1.94
58 0.99
59 0.31
60 0.18
61 0.44
63 0.66
65 3.7
66 2.38
67 24.79
68 29.98
69 13.2
70 1.5
71 1.83
72 3.5
73 0.18
77 6.96
78 1.72
79 44.79
80 9.21
81 23.31
82 14.43
83 5.02
84 1.7
85 0.84
91 6.06
92 5.64
93 65.9
94 25.75
95 16.26
96 2.25
97 5.24
98 0.71
105 3.33
106 1.17
107 70.7
108 23.31
109 5.49
110 1.94
111 2.16
112 0.44
119 1.01
120 0.82
121 62.77
122 6.59
123 0.9
135 2.23
136 99.99
137 13.17
138 0.71
139 0.24
152 3.48
153 0.84
154 3.39
155 0.42

$$$$

     RDKit          2D

 14 14  0  0  1  0  0  0  0  0999 V2000
   -2.2389    2.0451    0.0000 C   0  0  0  0  0  0  0  0  0  0  0  0
   -3.5379   -0.2049    0.0000 C   0  0  0  0  0  0  0  0  0  0  0  0
    2.9573   -2.4549    0.0000 C   0  0  0  0  0  0  0  0  0  0  0  0
    5.5560    0.5453    0.0000 C   0  0  0  0  0  0  0  0  0  0  0  0
    0.3587   -2.4557    0.0000 C   0  0  0  0  0  0  0  0  0  0  0  0
   -0.9403   -1.7057    0.0000 C   0  0  0  0  0  0  0  0  0  0  0  0
    0.3597    0.5459    0.0000 C   0  0  0  0  0  0  0  0  0  0  0  0
   -2.2389    0.5451    0.0000 C   0  0  0  0  0  0  0  0  0  0  0  0
    1.6583   -1.7049    0.0000 C   0  0  0  0  0  0  0  0  0  0  0  0
    4.2568   -0.2045    0.0000 C   0  0  0  0  0  0  0  0  0  0  0  0
   -0.9398   -0.2049    0.0000 C   0  0  0  0  0  0  0  0  0  0  0  0
    1.6587   -0.2041    0.0000 C   0  0  0  0  0  0  0  0  0  0  0  0
    4.2566   -1.7045    0.0000 O   0  0  0  0  0  0  0  0  0  0  0  0
    2.9579    0.5457    0.0000 O   0  0  0  0  0  0  0  0  0  0  0  0
  6  5  1  0
  8  1  2  0
  8  2  1  0
  9  3  1  0
  9  5  1  0
 10  4  1  0
 11  6  1  0
 11  7  1  0
 11  8  1  0
 12  7  1  0
 12  9  1  0
 13 10  2  0
 14 10  1  0
 12 14  1  6
M  END
>  <NAME>  (4234) 
DIHYDROCARVENYL ACETATE(AXIAL)

>  <SYNONYMS>  (4234) 


>  <SPECTRUM TYPE>  (4234) 
MS1

>  <INSTRUMENT TYPE>  (4234) 
EI-B

>  <INSTRUMENT>  (4234) 
HITACHI RMU-6M

>  <ION MODE>  (4234) 
P

>  <INCHIKEY>  (4234) 
TUSIZTVSUSBSQI-NHNAUAITSA-N

>  <FORMULA>  (4234) 
C12H20O2

>  <EXACT MASS>  (4234) 
196.14632988

>  <MW>  (4234) 
196

>  <ID>  (4234) 
JP006010

>  <CONTRIBUTOR>  (4234) 
University of Tokyo Team, {Faculty of Engineering, University of Tokyo

>  <COMMENT>  (4234) 
SMILES=CC(=O)OC([H])(C1)C(C)CCC(C(C)=C)1
InChI=InChI=1S/C12H20O2/c1-8(2)11-6-5-9(3)12(7-11)14-10(4)13/h9,11-12H,1,5-7H2,2-4H3/t9?,11?,12-/m0/s1
computed SMILES=O=C(OC1CC(C(=C)C)CCC1C)C
accession=JP006010
date=2016.01.19 (Created 2008.10.21, modified 2011.05.06)
author=YAMAMOTO M, DEP. CHEMISTRY, FAC. SCIENCE, NARA WOMEN'S UNIV.
license=CC BY-NC-SA
exact mass=196.14633
ionization energy=70 eV
ion type=[M]+*
computed spectral entropy=3.31518670839928
computed normalized entropy=0.7803202121041151
SPLASH=splash10-0006-9400000000-30c893ce62dd159ecda4
submitter=submitter = University of Tokyo Team (Faculty of Engineering, University of Tokyo)
MoNA Rating=3.75

>  <NUM PEAKS>  (4234) 
70

>  <MASS SPECTRAL PEAKS>  (4234) 
15 5.06
29 11.04
31 0.41
32 0.78
39 12.84
40 3.33
41 34.23
42 3.26
43 99.99
44 2.44
45 0.31
50 0.34
51 1.6
52 1.29
53 10.49
54 2.34
55 17.76
56 2.31
57 1.56
58 1.05
65 2.34
66 1.63
67 14.67
68 24.82
69 11.44
70 1.36
71 2
72 2.89
77 4.48
78 1.29
79 23.7
80 10.8
81 20.27
82 8.73
83 4.01
84 1.66
85 0.75
86 1.05
91 4.34
92 10.02
93 51.07
94 25.98
95 12.19
96 1.77
97 6.52
98 0.95
99 0.27
105 2.31
106 0.75
107 49.27
108 11.27
109 2.65
110 1.05
111 3.23
112 0.71
119 0.61
120 0.37
121 46.52
122 4.69
123 0.98
135 1.6
136 62
137 7.91
138 0.44
139 0.41
153 0.92
154 5.13
155 0.61
196 3.9
197 0.41

$$$$

     RDKit          2D

 10 11  0  0  0  0  0  0  0  0999 V2000
    3.3289    1.3502    0.0000 C   0  0  0  0  0  0  0  0  0  0  0  0
   -2.8341    0.9992    0.0000 C   0  0  0  0  0  0  0  0  0  0  0  0
   -2.8341   -1.2992    0.0000 C   0  0  0  0  0  0  0  0  0  0  0  0
    2.0300   -0.9000    0.0000 C   0  0  0  0  0  0  0  0  0  0  0  0
    0.7300   -1.6500    0.0000 C   0  0  0  0  0  0  0  0  0  0  0  0
    0.7300    1.3500    0.0000 C   0  0  0  0  0  0  0  0  0  0  0  0
    2.0300    0.6000    0.0000 C   0  0  0  0  0  0  0  0  0  0  0  0
   -0.5700   -0.9000    0.0000 C   0  0  0  0  0  0  0  0  0  0  0  0
   -0.5700    0.6000    0.0000 C   0  0  0  0  0  0  0  0  0  0  0  0
   -1.8700   -0.1500    0.0000 C   0  0  0  0  0  0  0  0  0  0  0  0
  5  4  1  0
  7  1  1  0
  7  4  1  0
  7  6  1  0
  8  5  1  0
  9  6  1  0
  9  8  1  0
 10  2  1  0
 10  3  1  0
 10  8  1  0
 10  9  1  0
M  END
>  <NAME>  (4235) 
CARANE

>  <SYNONYMS>  (4235) 
3,7,7-TRIMETHYLBICYCLO(4.1.0)HEPTANE

>  <SPECTRUM TYPE>  (4235) 
MS1

>  <INSTRUMENT TYPE>  (4235) 
EI-B

>  <INSTRUMENT>  (4235) 
HITACHI M-80

>  <ION MODE>  (4235) 
P

>  <INCHIKEY>  (4235) 
BWRHOYDPVJPXMF-UHFFFAOYSA-N

>  <FORMULA>  (4235) 
C10H18

>  <EXACT MASS>  (4235) 
138.140850576

>  <MW>  (4235) 
138

>  <ID>  (4235) 
JP006006

>  <CONTRIBUTOR>  (4235) 
University of Tokyo Team, {Faculty of Engineering, University of Tokyo

>  <COMMENT>  (4235) 
SMILES=CC(C2)CC(C(C2)1)C(C)(C)1
InChI=InChI=1S/C10H18/c1-7-4-5-8-9(6-7)10(8,2)3/h7-9H,4-6H2,1-3H3
computed SMILES=CC1CCC2C(C1)C2(C)C
accession=JP006006
date=2016.01.19 (Created 2008.10.21, modified 2011.05.06)
author=YAMAMOTO M, DEP. CHEMISTRY, FAC. SCIENCE, NARA WOMEN'S UNIV.
license=CC BY-NC-SA
exact mass=138.14085
ionization energy=70 eV
ion type=[M]+*
computed spectral entropy=2.9691110349222556
computed normalized entropy=0.8104438581124901
SPLASH=splash10-00l2-9100000000-c31fe137b5b7dd5e9786
submitter=submitter = University of Tokyo Team (Faculty of Engineering, University of Tokyo)
MoNA Rating=3.75

>  <NUM PEAKS>  (4235) 
39

>  <MASS SPECTRAL PEAKS>  (4235) 
27 8.74
28 1.36
29 7.55
39 13.38
40 2.69
41 33.17
42 2.84
43 6.21
51 1.91
52 1.27
53 9.3
54 4.36
55 27.74
56 3.61
57 3.88
65 2.98
66 1.73
67 51.06
68 11.39
69 16.61
70 2.14
77 4.49
79 9.83
80 4.84
81 73.21
82 27.81
83 5.87
91 3
93 3.93
94 8.81
95 99.99
96 17.51
97 1.44
109 7.8
110 1.62
123 25.22
124 2.23
138 25.26
139 2.53

$$$$

     RDKit          2D

 16 16  0  0  0  0  0  0  0  0999 V2000
    6.0613   -3.8215    0.0000 C   0  0  0  0  0  0  0  0  0  0  0  0
    1.0157    3.3579    0.0000 C   0  0  0  0  0  0  0  0  0  0  0  0
    4.7622   -3.0715    0.0000 C   0  0  0  0  0  0  0  0  0  0  0  0
    3.4632   -3.8215    0.0000 C   0  0  0  0  0  0  0  0  0  0  0  0
    2.1642   -3.0715    0.0000 C   0  0  0  0  0  0  0  0  0  0  0  0
    0.8651   -3.8215    0.0000 C   0  0  0  0  0  0  0  0  0  0  0  0
   -2.0508   -1.2720    0.0000 C   0  0  0  0  0  0  0  0  0  0  0  0
   -2.8008   -2.5710    0.0000 C   0  0  0  0  0  0  0  0  0  0  0  0
    0.5239   -0.5801    0.0000 C   0  0  0  0  0  0  0  0  0  0  0  0
   -0.5910   -1.5836    0.0000 C   0  0  0  0  0  0  0  0  0  0  0  0
   -0.4339   -3.0715    0.0000 C   0  0  0  0  0  0  0  0  0  0  0  0
   -1.8010   -3.6794    0.0000 C   0  0  0  0  0  0  0  0  0  0  0  0
    0.2123    0.8871    0.0000 C   0  0  0  0  0  0  0  0  0  0  0  0
   -2.1126   -5.1467    0.0000 O   0  0  0  0  0  0  0  0  0  0  0  0
   -1.2142    1.3510    0.0000 O   0  0  0  0  0  0  0  0  0  0  0  0
    1.3273    1.8906    0.0000 O   0  0  0  0  0  0  0  0  0  0  0  0
  3  1  1  0
  4  3  1  0
  5  4  1  0
  6  5  1  0
  8  7  1  0
 10  7  1  0
 10  9  1  0
 11  6  1  0
 11 10  1  0
 12  8  1  0
 12 11  1  0
 13  9  1  0
 14 12  2  0
 15 13  2  0
 16  2  1  0
 16 13  1  0
M  END
>  <NAME>  (4236) 
METHYL DIHYDROJASMONATE

>  <SYNONYMS>  (4236) 


>  <SPECTRUM TYPE>  (4236) 
MS1

>  <INSTRUMENT TYPE>  (4236) 
EI-B

>  <INSTRUMENT>  (4236) 
HITACHI RMU-6M

>  <ION MODE>  (4236) 
P

>  <INCHIKEY>  (4236) 
KVWWIYGFBYDJQC-UHFFFAOYSA-N

>  <FORMULA>  (4236) 
C13H22O3

>  <EXACT MASS>  (4236) 
226.156894564

>  <MW>  (4236) 
226

>  <ID>  (4236) 
JP006001

>  <CONTRIBUTOR>  (4236) 
University of Tokyo Team, {Faculty of Engineering, University of Tokyo

>  <COMMENT>  (4236) 
SMILES=CCCCCC(C(=O)1)C(CC1)CC(=O)OC
InChI=InChI=1S/C13H22O3/c1-3-4-5-6-11-10(7-8-12(11)14)9-13(15)16-2/h10-11H,3-9H2,1-2H3
computed SMILES=O=C(OC)CC1CCC(=O)C1CCCCC
accession=JP006001
date=2016.01.19 (Created 2008.10.21, modified 2011.05.06)
author=YAMAMOTO M, DEP. CHEMISTRY, FAC. SCIENCE, NARA WOMEN'S UNIV.
license=CC BY-NC-SA
exact mass=226.15689
ionization energy=70 eV
ion type=[M]+*
computed spectral entropy=3.3593433483720534
computed normalized entropy=0.7263487773858993
SPLASH=splash10-053r-9300000000-62390431d97df2804646
submitter=submitter = University of Tokyo Team (Faculty of Engineering, University of Tokyo)
MoNA Rating=3.75

>  <NUM PEAKS>  (4236) 
102

>  <MASS SPECTRAL PEAKS>  (4236) 
15 6.3
17 3.3
18 15.2
26 0.06
27 8.2
28 3.1
29 10
30 0.05
31 0.7
32 0.8
39 6.9
40 0.18
41 20.8
42 2.7
43 5.8
44 0.07
45 1.2
51 0.9
52 0.9
53 0.54
54 5.3
55 13.4
56 2.2
57 0.15
58 0.7
59 6.5
65 1.6
66 0.12
67 8.9
68 3.9
69 7.2
70 0.11
71 2.3
72 0.7
73 0.6
74 0.73
75 5.4
76 0.6
77 1.7
78 0.08
79 3.8
80 1.2
81 5.8
82 2.47
83 99.99
84 7.2
85 2.8
86 0.06
87 1.2
91 1.5
92 0.7
93 0.21
94 0.8
95 4.7
96 8.6
97 0.58
98 0.8
99 1.2
101 0.6
105 0.09
107 0.9
108 0.7
109 4
110 0.17
111 1.5
112 1.1
113 1.3
114 0.07
115 0.7
119 0.8
121 0.6
123 0.18
124 1.3
125 0.7
127 0.8
128 0.09
133 0.8
134 0.7
135 1.1
137 0.18
138 1.6
139 0.6
141 1.1
149 0.12
151 2.4
152 2.8
153 31.2
154 0.36
155 1.4
156 42.5
157 4
158 0.07
164 0.5
165 1.5
166 0.7
169 0.19
194 1.6
195 4.2
196 0.8
197 0.06
226 5.9
227 1.1

$$$$

     RDKit          2D

 12 12  0  0  0  0  0  0  0  0999 V2000
    4.8930   -2.3850    0.0000 C   0  0  0  0  0  0  0  0  0  0  0  0
   -0.6443    0.8564    0.0000 C   0  0  0  0  0  0  0  0  0  0  0  0
    3.5940   -1.6350    0.0000 C   0  0  0  0  0  0  0  0  0  0  0  0
    2.2950   -2.3850    0.0000 C   0  0  0  0  0  0  0  0  0  0  0  0
    0.9959   -1.6350    0.0000 C   0  0  0  0  0  0  0  0  0  0  0  0
   -0.3031   -2.3850    0.0000 C   0  0  0  0  0  0  0  0  0  0  0  0
   -3.2190    0.1645    0.0000 C   0  0  0  0  0  0  0  0  0  0  0  0
   -3.9690   -1.1345    0.0000 C   0  0  0  0  0  0  0  0  0  0  0  0
   -1.7592   -0.1471    0.0000 C   0  0  0  0  0  0  0  0  0  0  0  0
   -1.6021   -1.6350    0.0000 C   0  0  0  0  0  0  0  0  0  0  0  0
   -2.9692   -2.2429    0.0000 C   0  0  0  0  0  0  0  0  0  0  0  0
   -3.2808   -3.7102    0.0000 O   0  0  0  0  0  0  0  0  0  0  0  0
  3  1  1  0
  4  3  1  0
  5  4  1  0
  6  5  1  0
  8  7  1  0
  9  2  1  0
  9  7  1  0
 10  6  1  0
 10  9  2  0
 11  8  1  0
 11 10  1  0
 12 11  2  0
M  END
>  <NAME>  (4237) 
DIHYDROJASMONE

>  <SYNONYMS>  (4237) 
3-METHYL-2-PENTYL-2-CYCLOPENTEN-1-ONE

>  <SPECTRUM TYPE>  (4237) 
MS1

>  <INSTRUMENT TYPE>  (4237) 
EI-B

>  <INSTRUMENT>  (4237) 
HITACHI RMU-6M

>  <ION MODE>  (4237) 
P

>  <INCHIKEY>  (4237) 
YCIXWYOBMVNGTB-UHFFFAOYSA-N

>  <FORMULA>  (4237) 
C11H18O

>  <EXACT MASS>  (4237) 
166.135765196

>  <MW>  (4237) 
166

>  <ID>  (4237) 
JP006000

>  <CONTRIBUTOR>  (4237) 
University of Tokyo Team, {Faculty of Engineering, University of Tokyo

>  <COMMENT>  (4237) 
SMILES=CCCCCC(=C(C)1)C(=O)CC1
InChI=InChI=1S/C11H18O/c1-3-4-5-6-10-9(2)7-8-11(10)12/h3-8H2,1-2H3
computed SMILES=O=C1C(=C(C)CC1)CCCCC
accession=JP006000
date=2016.01.19 (Created 2008.10.21, modified 2011.05.06)
author=YAMAMOTO M, DEP. CHEMISTRY, FAC. SCIENCE, NARA WOMEN'S UNIV.
license=CC BY-NC-SA
exact mass=166.13577
ionization energy=70 eV
ion type=[M]+*
computed spectral entropy=3.04499696676484
computed normalized entropy=0.7437080393429922
SPLASH=splash10-0ik9-7900000000-79a7d490f28c7bc92c64
submitter=submitter = University of Tokyo Team (Faculty of Engineering, University of Tokyo)
MoNA Rating=3.75

>  <NUM PEAKS>  (4237) 
60

>  <MASS SPECTRAL PEAKS>  (4237) 
15 0.5
17 4.1
18 18.4
26 0.07
27 15.2
28 3.4
29 12.4
32 0.08
38 0.6
39 13.3
40 3
41 2.82
42 1.6
43 4.1
50 1.1
51 0.4
52 3.5
53 13.6
54 2.4
55 1.02
56 0.9
57 0.7
63 1
65 0.52
66 3.2
67 22.5
68 3.9
69 0.19
77 6.5
78 1.7
79 10.9
80 0.24
81 17
82 10.8
83 1.7
91 0.34
92 0.5
93 4.1
94 1
95 1.16
96 2.5
97 1.5
105 1.2
107 0.13
108 0.7
109 16.4
110 99.99
111 1.98
112 1.5
119 0.6
121 0.7
122 0.07
123 19.9
124 10.9
125 1.2
133 0.1
137 24.4
138 2.8
149 0.9
151 46.3

$$$$

     RDKit          2D

 12 12  0  0  0  0  0  0  0  0999 V2000
   -0.9959   -4.6350    0.0000 C   0  0  0  0  0  0  0  0  0  0  0  0
    3.2424    0.8564    0.0000 C   0  0  0  0  0  0  0  0  0  0  0  0
    0.3031   -3.8850    0.0000 C   0  0  0  0  0  0  0  0  0  0  0  0
    0.3031   -2.3850    0.0000 C   0  0  0  0  0  0  0  0  0  0  0  0
    1.6021   -1.6350    0.0000 C   0  0  0  0  0  0  0  0  0  0  0  0
    2.9012   -2.3850    0.0000 C   0  0  0  0  0  0  0  0  0  0  0  0
    5.8171    0.1645    0.0000 C   0  0  0  0  0  0  0  0  0  0  0  0
    6.5671   -1.1345    0.0000 C   0  0  0  0  0  0  0  0  0  0  0  0
    4.3573   -0.1471    0.0000 C   0  0  0  0  0  0  0  0  0  0  0  0
    4.2002   -1.6350    0.0000 C   0  0  0  0  0  0  0  0  0  0  0  0
    5.5673   -2.2429    0.0000 C   0  0  0  0  0  0  0  0  0  0  0  0
    5.8789   -3.7102    0.0000 O   0  0  0  0  0  0  0  0  0  0  0  0
  3  1  1  0
  4  3  1  0
  4  5  2  0
  6  5  1  0
  8  7  1  0
  9  2  1  0
  9  7  1  0
 10  6  1  0
 10  9  2  0
 11  8  1  0
 11 10  1  0
 12 11  2  0
M  END
>  <NAME>  (4238) 
CIS-JASMONE

>  <SYNONYMS>  (4238) 
CIS-3-METHYL-2-(2-PENTENYL)-2-CYCLOPENTEN-1-ONE

>  <SPECTRUM TYPE>  (4238) 
MS1

>  <INSTRUMENT TYPE>  (4238) 
EI-B

>  <INSTRUMENT>  (4238) 
HITACHI RMU-6M

>  <ION MODE>  (4238) 
P

>  <INCHIKEY>  (4238) 
XMLSXPIVAXONDL-PLNGDYQASA-N

>  <FORMULA>  (4238) 
C11H16O

>  <EXACT MASS>  (4238) 
164.120115132

>  <MW>  (4238) 
164

>  <ID>  (4238) 
JP005999

>  <CONTRIBUTOR>  (4238) 
University of Tokyo Team, {Faculty of Engineering, University of Tokyo

>  <COMMENT>  (4238) 
SMILES=CCC=CCC(=C(C)1)C(=O)CC1
InChI=InChI=1S/C11H16O/c1-3-4-5-6-10-9(2)7-8-11(10)12/h4-5H,3,6-8H2,1-2H3/b5-4-
computed SMILES=O=C1C(=C(C)CC1)CC=CCC
accession=JP005999
date=2016.01.19 (Created 2008.10.21, modified 2011.05.06)
author=YAMAMOTO M, DEP. CHEMISTRY, FAC. SCIENCE, NARA WOMEN'S UNIV.
license=CC BY-NC-SA
exact mass=164.12012
ionization energy=70 eV
ion type=[M]+*
computed spectral entropy=3.4576561044471434
computed normalized entropy=0.7742335965229866
SPLASH=splash10-03dl-9700000000-626f6beb94dae241c8a7
submitter=submitter = University of Tokyo Team (Faculty of Engineering, University of Tokyo)
MoNA Rating=3.75

>  <NUM PEAKS>  (4238) 
87

>  <MASS SPECTRAL PEAKS>  (4238) 
15 1.1
27 26.4
28 4.2
32 0.9
38 1.8
39 31.5
40 0.62
41 42.7
42 2.1
43 0.87
50 3.4
51 11.7
52 6.8
53 2.11
54 3.2
55 30.8
56 1.8
57 0.11
58 0.9
62 1.1
63 4.1
64 0.18
65 13.4
66 7.2
67 21.5
68 0.42
69 2.4
74 1.1
75 0.9
76 0.06
77 25.3
78 6.5
79 48.3
80 0.91
81 24.4
82 8.2
83 1.2
89 0.12
91 29.5
92 4.7
93 31.9
94 0.77
95 10.2
96 2.1
97 1.2
99 0.08
102 0.7
103 2.4
104 1.1
105 1.14
106 2.7
107 17.2
108 5.1
109 3.01
110 59.3
111 5.3
115 2
116 0.13
117 3
118 0.8
119 2.9
120 0.18
121 14.1
122 41.9
123 9.4
124 0.11
128 0.6
129 0.9
130 0.7
131 1.46
132 2
133 2.4
134 1.2
135 4.05
136 8.8
137 1.3
145 1.9
146 0.14
147 2.6
148 0.5
149 47.4
150 0.52
151 0.7
163 2.3
164 99.99
165 1.26
166 1.3

$$$$

     RDKit          2D

  5  5  0  0  0  0  0  0  0  0999 V2000
    1.2100    0.3900    0.0000 C   0  0  0  0  0  0  0  0  0  0  0  0
    0.0000    1.2800    0.0000 C   0  0  0  0  0  0  0  0  0  0  0  0
    0.7500   -1.0300    0.0000 C   0  0  0  0  0  0  0  0  0  0  0  0
   -1.2100    0.3900    0.0000 C   0  0  0  0  0  0  0  0  0  0  0  0
   -0.7500   -1.0300    0.0000 C   0  0  0  0  0  0  0  0  0  0  0  0
  2  1  1  0
  3  1  1  0
  4  2  1  0
  5  3  1  0
  5  4  1  0
M  END
>  <NAME>  (4239) 
CYCLOPENTANE

>  <SYNONYMS>  (4239) 


>  <SPECTRUM TYPE>  (4239) 
MS1

>  <INSTRUMENT TYPE>  (4239) 
EI-B

>  <INSTRUMENT>  (4239) 
HITACHI RMU-6M

>  <ION MODE>  (4239) 
P

>  <INCHIKEY>  (4239) 
RGSFGYAAUTVSQA-UHFFFAOYSA-N

>  <FORMULA>  (4239) 
C5H10

>  <EXACT MASS>  (4239) 
70.07825032

>  <MW>  (4239) 
70

>  <ID>  (4239) 
JP005997

>  <CONTRIBUTOR>  (4239) 
University of Tokyo Team, {Faculty of Engineering, University of Tokyo

>  <COMMENT>  (4239) 
SMILES=C(C1)CCC1
InChI=InChI=1S/C5H10/c1-2-4-5-3-1/h1-5H2
computed SMILES=C1CCCC1
accession=JP005997
date=2016.01.19 (Created 2008.10.21, modified 2011.05.06)
author=YAMAMOTO M, DEP. CHEMISTRY, FAC. SCIENCE, NARA WOMEN'S UNIV.
license=CC BY-NC-SA
exact mass=70.07825
ionization energy=70 eV
ion type=[M]+*
computed spectral entropy=2.085532756194333
computed normalized entropy=0.6131760442480227
SPLASH=splash10-0006-9000000000-24fe834ce6eef062549f
submitter=submitter = University of Tokyo Team (Faculty of Engineering, University of Tokyo)
MoNA Rating=3.75

>  <NUM PEAKS>  (4239) 
30

>  <MASS SPECTRAL PEAKS>  (4239) 
15 1
17 5.6
18 26.3
26 0.14
27 8.4
28 3.6
29 4.1
31 0.06
32 0.8
37 0.7
38 1.9
39 1.59
40 5.2
41 26.4
42 99.99
43 0.48
44 0.5
50 0.6
51 0.6
53 0.16
54 0.8
55 33
56 1.6
57 0.08
63 0.5
65 0.6
67 1.6
69 0.12
70 39
71 2.7

$$$$

     RDKit          2D

  5  5  0  0  0  0  0  0  0  0999 V2000
    1.2100    0.3900    0.0000 C   0  0  0  0  0  0  0  0  0  0  0  0
    0.0000    1.2800    0.0000 C   0  0  0  0  0  0  0  0  0  0  0  0
    0.7500   -1.0300    0.0000 C   0  0  0  0  0  0  0  0  0  0  0  0
   -1.2100    0.3900    0.0000 C   0  0  0  0  0  0  0  0  0  0  0  0
   -0.7500   -1.0300    0.0000 C   0  0  0  0  0  0  0  0  0  0  0  0
  2  1  2  0
  3  1  1  0
  4  2  1  0
  5  3  1  0
  5  4  1  0
M  END
>  <NAME>  (4240) 
CYCLOPENTENE

>  <SYNONYMS>  (4240) 


>  <SPECTRUM TYPE>  (4240) 
MS1

>  <INSTRUMENT TYPE>  (4240) 
EI-B

>  <INSTRUMENT>  (4240) 
HITACHI RMU-6M

>  <ION MODE>  (4240) 
P

>  <INCHIKEY>  (4240) 
LPIQUOYDBNQMRZ-UHFFFAOYSA-N

>  <FORMULA>  (4240) 
C5H8

>  <EXACT MASS>  (4240) 
68.062600256

>  <MW>  (4240) 
68

>  <ID>  (4240) 
JP005996

>  <CONTRIBUTOR>  (4240) 
University of Tokyo Team, {Faculty of Engineering, University of Tokyo

>  <COMMENT>  (4240) 
SMILES=C(C1)CC=C1
InChI=InChI=1S/C5H8/c1-2-4-5-3-1/h1-2H,3-5H2
computed SMILES=C1=CCCC1
accession=JP005996
date=2016.01.19 (Created 2008.10.21, modified 2011.05.06)
author=YAMAMOTO M, DEP. CHEMISTRY, FAC. SCIENCE, NARA WOMEN'S UNIV.
license=CC BY-NC-SA
exact mass=68.0626
ionization energy=70 eV
ion type=[M]+*
computed spectral entropy=2.026568465753846
computed normalized entropy=0.6295888925248694
SPLASH=splash10-014i-9000000000-c8cfccc89c8f9b81ab54
submitter=submitter = University of Tokyo Team (Faculty of Engineering, University of Tokyo)
MoNA Rating=3.75

>  <NUM PEAKS>  (4240) 
25

>  <MASS SPECTRAL PEAKS>  (4240) 
15 0.9
27 8.1
28 3.3
29 0.7
31 0.19
32 1
38 4.7
39 25
40 12.2
41 1.58
42 7.1
50 1.4
51 2
52 0.1
53 19.8
54 0.9
61 1.3
62 0.19
63 2.4
64 0.5
65 4.9
66 0.53
67 99.99
68 41.3
69 2.1

$$$$

     RDKit          2D

  6  6  0  0  0  0  0  0  0  0999 V2000
    2.2128    0.6850    0.0000 C   0  0  0  0  0  0  0  0  0  0  0  0
   -1.6500    0.1800    0.0000 C   0  0  0  0  0  0  0  0  0  0  0  0
   -1.1500   -1.2300    0.0000 C   0  0  0  0  0  0  0  0  0  0  0  0
   -0.4300    1.0800    0.0000 C   0  0  0  0  0  0  0  0  0  0  0  0
    0.3400   -1.2100    0.0000 C   0  0  0  0  0  0  0  0  0  0  0  0
    0.7900    0.2100    0.0000 C   0  0  0  0  0  0  0  0  0  0  0  0
  3  2  1  0
  4  2  1  0
  5  3  1  0
  6  1  1  0
  6  4  1  0
  6  5  1  0
M  END
>  <NAME>  (4241) 
METHYLCYCLOPENTANE

>  <SYNONYMS>  (4241) 


>  <SPECTRUM TYPE>  (4241) 
MS1

>  <INSTRUMENT TYPE>  (4241) 
EI-B

>  <INSTRUMENT>  (4241) 
HITACHI RMU-6M

>  <ION MODE>  (4241) 
P

>  <INCHIKEY>  (4241) 
GDOPTJXRTPNYNR-UHFFFAOYSA-N

>  <FORMULA>  (4241) 
C6H12

>  <EXACT MASS>  (4241) 
84.093900384

>  <MW>  (4241) 
84

>  <ID>  (4241) 
JP005995

>  <CONTRIBUTOR>  (4241) 
University of Tokyo Team, {Faculty of Engineering, University of Tokyo

>  <COMMENT>  (4241) 
SMILES=CC(C1)CCC1
InChI=InChI=1S/C6H12/c1-6-4-2-3-5-6/h6H,2-5H2,1H3
computed SMILES=CC1CCCC1
accession=JP005995
date=2016.01.19 (Created 2008.10.21, modified 2011.05.06)
author=YAMAMOTO M, DEP. CHEMISTRY, FAC. SCIENCE, NARA WOMEN'S UNIV.
license=CC BY-NC-SA
exact mass=84.0939
ionization energy=70 eV
ion type=[M]+*
computed spectral entropy=2.4017179769199144
computed normalized entropy=0.6929893229832469
SPLASH=splash10-0a4l-9000000000-f36947d92a09565016ad
submitter=submitter = University of Tokyo Team (Faculty of Engineering, University of Tokyo)
MoNA Rating=3.75

>  <NUM PEAKS>  (4241) 
32

>  <MASS SPECTRAL PEAKS>  (4241) 
15 1
17 1.9
18 8.7
26 0.14
27 12.5
28 5.7
29 7.5
32 0.07
37 0.6
38 1.4
39 15.6
40 0.37
41 51.4
42 24
43 10.5
50 0.11
51 1.8
52 0.7
53 3.4
54 0.3
55 24.1
56 99.99
57 4.8
65 0.08
66 0.6
67 2.6
68 4.1
69 3.72
70 2.2
83 1
84 25.5
85 1.8

$$$$

     RDKit          2D

  7  7  0  0  0  0  0  0  0  0999 V2000
   -2.0749    1.4187    0.0000 C   0  0  0  0  0  0  0  0  0  0  0  0
   -0.6521    1.8937    0.0000 C   0  0  0  0  0  0  0  0  0  0  0  0
    1.7166   -1.1990    0.0000 C   0  0  0  0  0  0  0  0  0  0  0  0
    2.6877   -0.0610    0.0000 C   0  0  0  0  0  0  0  0  0  0  0  0
    0.3272   -0.5925    0.0000 C   0  0  0  0  0  0  0  0  0  0  0  0
    1.9254    1.2193    0.0000 C   0  0  0  0  0  0  0  0  0  0  0  0
    0.4707    0.8991    0.0000 C   0  0  0  0  0  0  0  0  0  0  0  0
  2  1  1  0
  4  3  1  0
  5  3  1  0
  6  4  1  0
  7  2  1  0
  7  5  1  0
  7  6  1  0
M  END
>  <NAME>  (4242) 
ETHYLCYLOPENTANE

>  <SYNONYMS>  (4242) 


>  <SPECTRUM TYPE>  (4242) 
MS1

>  <INSTRUMENT TYPE>  (4242) 
EI-B

>  <INSTRUMENT>  (4242) 
HITACHI RMU-6M

>  <ION MODE>  (4242) 
P

>  <INCHIKEY>  (4242) 
IFTRQJLVEBNKJK-UHFFFAOYSA-N

>  <FORMULA>  (4242) 
C7H14

>  <EXACT MASS>  (4242) 
98.109550448

>  <MW>  (4242) 
98

>  <ID>  (4242) 
JP005994

>  <CONTRIBUTOR>  (4242) 
University of Tokyo Team, {Faculty of Engineering, University of Tokyo

>  <COMMENT>  (4242) 
SMILES=CCC(C1)CCC1
InChI=InChI=1S/C7H14/c1-2-7-5-3-4-6-7/h7H,2-6H2,1H3
computed SMILES=CCC1CCCC1
accession=JP005994
date=2016.01.19 (Created 2008.10.21, modified 2011.05.06)
author=YAMAMOTO M, DEP. CHEMISTRY, FAC. SCIENCE, NARA WOMEN'S UNIV.
license=CC BY-NC-SA
exact mass=98.10955
ionization energy=70 eV
ion type=[M]+*
computed spectral entropy=2.677664432710784
computed normalized entropy=0.7258747448970125
SPLASH=splash10-05tf-9000000000-ded33dd9b182a639bed0
submitter=submitter = University of Tokyo Team (Faculty of Engineering, University of Tokyo)
MoNA Rating=3.75

>  <NUM PEAKS>  (4242) 
40

>  <MASS SPECTRAL PEAKS>  (4242) 
15 1.2
17 2
18 9.4
26 0.16
27 20.6
28 4.9
29 16.4
32 0.1
37 0.6
38 1.4
39 26.8
40 0.47
41 76
42 44.7
43 8.3
50 0.15
51 2.5
52 1.3
53 6.3
54 0.64
55 52.2
56 49.2
57 7.8
63 0.09
65 1.7
66 1.1
67 11.5
68 7.99
69 99.99
70 61.4
71 3.3
77 0.07
79 0.7
81 0.7
82 1
83 0.94
84 0.9
97 1.1
98 33
99 2.8

$$$$

     RDKit          2D

  7  7  0  0  0  0  0  0  0  0999 V2000
   -0.5227    1.8503    0.0000 C   0  0  0  0  0  0  0  0  0  0  0  0
    1.0029   -1.7119    0.0000 C   0  0  0  0  0  0  0  0  0  0  0  0
    1.1686   -0.2190    0.0000 C   0  0  0  0  0  0  0  0  0  0  0  0
   -0.4569   -2.0235    0.0000 C   0  0  0  0  0  0  0  0  0  0  0  0
   -0.2071    0.3839    0.0000 C   0  0  0  0  0  0  0  0  0  0  0  0
   -1.2069   -0.7245    0.0000 C   0  0  0  0  0  0  0  0  0  0  0  0
   -2.6986   -0.5670    0.0000 O   0  0  0  0  0  0  0  0  0  0  0  0
  3  2  1  0
  4  2  1  0
  5  1  1  0
  5  3  1  0
  6  4  1  0
  6  5  1  0
  7  6  2  0
M  END
>  <NAME>  (4243) 
2-METHYLCYCLOPENTANONE

>  <SYNONYMS>  (4243) 


>  <SPECTRUM TYPE>  (4243) 
MS1

>  <INSTRUMENT TYPE>  (4243) 
EI-B

>  <INSTRUMENT>  (4243) 
HITACHI RMU-6M

>  <ION MODE>  (4243) 
P

>  <INCHIKEY>  (4243) 
ZIXLDMFVRPABBX-UHFFFAOYSA-N

>  <FORMULA>  (4243) 
C6H10O

>  <EXACT MASS>  (4243) 
98.07316494

>  <MW>  (4243) 
98

>  <ID>  (4243) 
JP005993

>  <CONTRIBUTOR>  (4243) 
University of Tokyo Team, {Faculty of Engineering, University of Tokyo

>  <COMMENT>  (4243) 
SMILES=CC(C1)C(=O)CC1
InChI=InChI=1S/C6H10O/c1-5-3-2-4-6(5)7/h5H,2-4H2,1H3
computed SMILES=O=C1CCCC1C
accession=JP005993
date=2016.01.19 (Created 2008.10.21, modified 2011.05.06)
author=YAMAMOTO M, DEP. CHEMISTRY, FAC. SCIENCE, NARA WOMEN'S UNIV.
license=CC BY-NC-SA
exact mass=98.07316
ionization energy=70 eV
ion type=[M]+*
computed spectral entropy=2.364429725795613
computed normalized entropy=0.7173988950072346
SPLASH=splash10-0006-9000000000-73a9544efa333e371a61
submitter=submitter = University of Tokyo Team (Faculty of Engineering, University of Tokyo)
MoNA Rating=3.75

>  <NUM PEAKS>  (4243) 
27

>  <MASS SPECTRAL PEAKS>  (4243) 
15 2.1
26 4.2
27 21.7
28 1.77
29 8.6
37 1.3
38 2.9
39 2.14
40 5.8
41 39.1
42 99.99
43 1.17
50 1.6
51 2.1
53 3.4
54 0.43
55 30.3
56 12.6
57 1.6
69 2.95
70 17.2
71 1.3
80 4.1
83 1.01
97 2.6
98 39.2
99 2.8

$$$$

     RDKit          2D

  7  7  0  0  0  0  0  0  0  0999 V2000
   -3.0958   -1.4497    0.0000 C   0  0  0  0  0  0  0  0  0  0  0  0
   -0.6043   -2.4006    0.0000 C   0  0  0  0  0  0  0  0  0  0  0  0
    0.7714   -1.7978    0.0000 C   0  0  0  0  0  0  0  0  0  0  0  0
   -0.8541    0.0068    0.0000 C   0  0  0  0  0  0  0  0  0  0  0  0
   -1.6041   -1.2923    0.0000 C   0  0  0  0  0  0  0  0  0  0  0  0
    0.6057   -0.3049    0.0000 C   0  0  0  0  0  0  0  0  0  0  0  0
    1.7179    0.7016    0.0000 O   0  0  0  0  0  0  0  0  0  0  0  0
  3  2  1  0
  5  1  1  0
  5  2  1  0
  5  4  1  0
  6  3  1  0
  6  4  1  0
  7  6  2  0
M  END
>  <NAME>  (4244) 
3-METHYLCYCLOPENTANONE

>  <SYNONYMS>  (4244) 


>  <SPECTRUM TYPE>  (4244) 
MS1

>  <INSTRUMENT TYPE>  (4244) 
EI-B

>  <INSTRUMENT>  (4244) 
HITACHI RMU-6M

>  <ION MODE>  (4244) 
P

>  <INCHIKEY>  (4244) 
AOKRXIIIYJGNNU-UHFFFAOYSA-N

>  <FORMULA>  (4244) 
C6H10O

>  <EXACT MASS>  (4244) 
98.07316494

>  <MW>  (4244) 
98

>  <ID>  (4244) 
JP005992

>  <CONTRIBUTOR>  (4244) 
University of Tokyo Team, {Faculty of Engineering, University of Tokyo

>  <COMMENT>  (4244) 
SMILES=CC(C1)CC(=O)C1
InChI=InChI=1S/C6H10O/c1-5-2-3-6(7)4-5/h5H,2-4H2,1H3
computed SMILES=O=C1CCC(C)C1
accession=JP005992
date=2016.01.19 (Created 2008.10.21, modified 2011.05.06)
author=YAMAMOTO M, DEP. CHEMISTRY, FAC. SCIENCE, NARA WOMEN'S UNIV.
license=CC BY-NC-SA
exact mass=98.07316
ionization energy=70 eV
ion type=[M]+*
computed spectral entropy=2.4417959719718407
computed normalized entropy=0.7683305891972583
SPLASH=splash10-05mo-9000000000-dde13156f41833bd22a8
submitter=submitter = University of Tokyo Team (Faculty of Engineering, University of Tokyo)
MoNA Rating=3.75

>  <NUM PEAKS>  (4244) 
24

>  <MASS SPECTRAL PEAKS>  (4244) 
15 3.2
26 5.9
27 32.6
28 4.41
29 16.2
37 1.7
38 4.2
39 3.37
40 8.2
41 62.2
42 84.6
43 0.6
50 2.9
51 3.4
53 6.1
54 0.29
55 66.3
56 37.7
57 2.5
69 99.99
70 10.1
83 9.5
98 58.8
99 4.3

$$$$

     RDKit          2D

  6  6  0  0  0  0  0  0  0  0999 V2000
    2.0279    0.1311    0.0000 C   0  0  0  0  0  0  0  0  0  0  0  0
    1.2779   -1.1679    0.0000 C   0  0  0  0  0  0  0  0  0  0  0  0
    0.9958    1.2235    0.0000 C   0  0  0  0  0  0  0  0  0  0  0  0
   -0.1745   -0.8836    0.0000 C   0  0  0  0  0  0  0  0  0  0  0  0
   -0.3540    0.6056    0.0000 C   0  0  0  0  0  0  0  0  0  0  0  0
   -1.6625    1.3389    0.0000 O   0  0  0  0  0  0  0  0  0  0  0  0
  2  1  1  0
  3  1  2  0
  4  2  1  0
  5  3  1  0
  5  4  1  0
  6  5  2  0
M  END
>  <NAME>  (4245) 
2-CYCLOPENTENONE

>  <SYNONYMS>  (4245) 


>  <SPECTRUM TYPE>  (4245) 
MS1

>  <INSTRUMENT TYPE>  (4245) 
EI-B

>  <INSTRUMENT>  (4245) 
HITACHI RMU-6M

>  <ION MODE>  (4245) 
P

>  <INCHIKEY>  (4245) 
BZKFMUIJRXWWQK-UHFFFAOYSA-N

>  <FORMULA>  (4245) 
C5H6O

>  <EXACT MASS>  (4245) 
82.041864812

>  <MW>  (4245) 
82

>  <ID>  (4245) 
JP005991

>  <CONTRIBUTOR>  (4245) 
University of Tokyo Team, {Faculty of Engineering, University of Tokyo

>  <COMMENT>  (4245) 
SMILES=O=C(C1)C=CC1
InChI=InChI=1S/C5H6O/c6-5-3-1-2-4-5/h1,3H,2,4H2
computed SMILES=O=C1C=CCC1
accession=JP005991
date=2016.01.19 (Created 2008.10.21, modified 2011.05.06)
author=YAMAMOTO M, DEP. CHEMISTRY, FAC. SCIENCE, NARA WOMEN'S UNIV.
license=CC BY-NC-SA
exact mass=82.04186
ionization energy=70 eV
ion type=[M]+*
computed spectral entropy=2.185296850958929
computed normalized entropy=0.6789006379419459
SPLASH=splash10-0fai-9000000000-33e4244d25bd7044f3f6
submitter=submitter = University of Tokyo Team (Faculty of Engineering, University of Tokyo)
MoNA Rating=3.75

>  <NUM PEAKS>  (4245) 
25

>  <MASS SPECTRAL PEAKS>  (4245) 
14 1.5
15 1
25 0.22
26 19.8
27 31.5
29 1.3
37 4.5
38 6
39 7.29
40 3.2
41 1.5
42 3.1
43 0.1
49 3.2
50 10.8
51 10.3
52 0.5
53 38.3
56 7.4
61 1
62 1
81 1.51
82 99.99
83 6
84 1.3

$$$$

     RDKit          2D

  9  9  0  0  0  0  0  0  0  0999 V2000
   -2.9228    0.8825    0.0000 C   0  0  0  0  0  0  0  0  0  0  0  0
    2.2733   -0.6175    0.0000 C   0  0  0  0  0  0  0  0  0  0  0  0
    2.2738    0.8833    0.0000 C   0  0  0  0  0  0  0  0  0  0  0  0
    0.9738   -1.3683    0.0000 C   0  0  0  0  0  0  0  0  0  0  0  0
    0.9748    1.6333    0.0000 C   0  0  0  0  0  0  0  0  0  0  0  0
   -0.3252   -0.6183    0.0000 C   0  0  0  0  0  0  0  0  0  0  0  0
   -1.6238    1.6325    0.0000 C   0  0  0  0  0  0  0  0  0  0  0  0
   -0.3248    0.8825    0.0000 C   0  0  0  0  0  0  0  0  0  0  0  0
   -1.6238    3.1325    0.0000 Cl  0  0  0  0  0  0  0  0  0  0  0  0
  3  2  2  0
  4  2  1  0
  5  3  1  0
  6  4  2  0
  7  1  1  0
  8  5  2  0
  8  6  1  0
  8  7  1  0
  9  7  1  0
M  END
>  <NAME>  (4246) 
1-CHLOROETHYLBENZENE

>  <SYNONYMS>  (4246) 


>  <SPECTRUM TYPE>  (4246) 
MS1

>  <INSTRUMENT TYPE>  (4246) 
EI-B

>  <INSTRUMENT>  (4246) 
HITACHI RMU-6M

>  <ION MODE>  (4246) 
P

>  <INCHIKEY>  (4246) 
GTLWADFFABIGAE-UHFFFAOYSA-N

>  <FORMULA>  (4246) 
C8H9Cl

>  <EXACT MASS>  (4246) 
140.039277968

>  <MW>  (4246) 
140

>  <ID>  (4246) 
JP005888

>  <CONTRIBUTOR>  (4246) 
University of Tokyo Team, {Faculty of Engineering, University of Tokyo

>  <COMMENT>  (4246) 
SMILES=CC(Cl)c(c1)cccc1
InChI=InChI=1S/C8H9Cl/c1-7(9)8-5-3-2-4-6-8/h2-7H,1H3
computed SMILES=ClC(C=1C=CC=CC1)C
accession=JP005888
date=2016.01.19 (Created 2008.10.21, modified 2011.05.06)
author=YAMAMOTO M, DEP. CHEMISTRY, FAC. SCIENCE, NARA WOMEN'S UNIV.
license=CC BY-NC-SA
exact mass=140.03928
ionization energy=70 eV
ion type=[M]+*
computed spectral entropy=2.562884848345048
computed normalized entropy=0.7463291782210639
SPLASH=splash10-0a4i-5900000000-be494a345d58f9db68b8
submitter=submitter = University of Tokyo Team (Faculty of Engineering, University of Tokyo)
MoNA Rating=3.75

>  <NUM PEAKS>  (4246) 
31

>  <MASS SPECTRAL PEAKS>  (4246) 
27 4.41
28 2.86
38 1.76
39 5.73
50 5.95
51 15.2
51.5 1.32
52 4.18
52.5 1.76
53 1.21
62 1.32
63 4.3
65 1.54
74 1.98
75 1.76
76 1.76
77 14.76
78 6.82
79 12.55
89 2.86
90 1.1
102 2.09
103 12.22
104 9.8
105 99.99
106 9.47
125 7.71
127 2.64
140 16.74
141 1.43
142 5.29

$$$$

     RDKit          2D

 12 13  0  0  0  0  0  0  0  0999 V2000
    4.8268    2.7906    0.0000 C   0  0  0  0  0  0  0  0  0  0  0  0
    4.8275    1.2898    0.0000 C   0  0  0  0  0  0  0  0  0  0  0  0
    3.5271    3.5412    0.0000 C   0  0  0  0  0  0  0  0  0  0  0  0
    3.5286    0.5396    0.0000 C   0  0  0  0  0  0  0  0  0  0  0  0
    2.2282    2.7910    0.0000 C   0  0  0  0  0  0  0  0  0  0  0  0
    0.9300   -0.9600    0.0000 C   0  0  0  0  0  0  0  0  0  0  0  0
   -0.3700    1.2900    0.0000 C   0  0  0  0  0  0  0  0  0  0  0  0
   -0.3700   -1.7100    0.0000 C   0  0  0  0  0  0  0  0  0  0  0  0
   -1.6700    0.5400    0.0000 C   0  0  0  0  0  0  0  0  0  0  0  0
    2.2289    1.2902    0.0000 C   0  0  0  0  0  0  0  0  0  0  0  0
    0.9300    0.5400    0.0000 N   0  0  0  0  0  0  0  0  0  0  0  0
   -1.6700   -0.9600    0.0000 O   0  0  0  0  0  0  0  0  0  0  0  0
  2  1  2  0
  3  1  1  0
  4  2  1  0
  5  3  2  0
  8  6  1  0
  9  7  1  0
 10  4  2  0
 10  5  1  0
 11  6  1  0
 11  7  1  0
 11 10  1  0
 12  8  1  0
 12  9  1  0
M  END
>  <NAME>  (4247) 
N-PHENYLMORPHOLINE

>  <SYNONYMS>  (4247) 
N-PHENYLTETRAHYDRO-1,4-OXAZINE

>  <SPECTRUM TYPE>  (4247) 
MS1

>  <INSTRUMENT TYPE>  (4247) 
EI-B

>  <INSTRUMENT>  (4247) 
HITACHI RMU-6M

>  <ION MODE>  (4247) 
P

>  <INCHIKEY>  (4247) 
FHQRDEDZJIFJAL-UHFFFAOYSA-N

>  <FORMULA>  (4247) 
C10H13NO

>  <EXACT MASS>  (4247) 
163.099714036

>  <MW>  (4247) 
163

>  <ID>  (4247) 
JP005887

>  <CONTRIBUTOR>  (4247) 
University of Tokyo Team, {Faculty of Engineering, University of Tokyo

>  <COMMENT>  (4247) 
SMILES=O(C2)CCN(C2)c(c1)cccc1
InChI=InChI=1S/C10H13NO/c1-2-4-10(5-3-1)11-6-8-12-9-7-11/h1-5H,6-9H2
computed SMILES=O1CCN(C=2C=CC=CC2)CC1
accession=JP005887
date=2016.01.19 (Created 2008.10.21, modified 2011.05.06)
author=YAMAMOTO M, DEP. CHEMISTRY, FAC. SCIENCE, NARA WOMEN'S UNIV.
license=CC BY-NC-SA
exact mass=163.09971
ionization energy=70 eV
ion type=[M]+*
computed spectral entropy=2.3373136586440117
computed normalized entropy=0.6872031806345132
SPLASH=splash10-0bt9-3900000000-7b65234120364e306fa2
submitter=submitter = University of Tokyo Team (Faculty of Engineering, University of Tokyo)
MoNA Rating=3.75

>  <NUM PEAKS>  (4247) 
30

>  <MASS SPECTRAL PEAKS>  (4247) 
27 4.61
28 2.85
29 1.1
38 1.1
39 4.17
42 2.85
50 3.29
51 12.94
52 2.41
57 1.54
63 1.75
64 1.1
65 2.41
76 1.54
77 28.51
78 4.39
79 1.32
91 5.26
103 1.32
104 29.39
105 99.99
106 10.09
117 1.32
118 1.32
119 1.1
132 5.04
133 1.1
162 5.04
163 63.38
164 7.68

$$$$

     RDKit          2D

 12 12  0  0  0  0  0  0  0  0999 V2000
   -5.5207    3.1321    0.0000 C   0  0  0  0  0  0  0  0  0  0  0  0
   -4.2216    2.3821    0.0000 C   0  0  0  0  0  0  0  0  0  0  0  0
    3.5726    0.8821    0.0000 C   0  0  0  0  0  0  0  0  0  0  0  0
    2.2731    0.1313    0.0000 C   0  0  0  0  0  0  0  0  0  0  0  0
    3.5731    2.3829    0.0000 C   0  0  0  0  0  0  0  0  0  0  0  0
    0.9740    0.8813    0.0000 C   0  0  0  0  0  0  0  0  0  0  0  0
    2.2740    3.1329    0.0000 C   0  0  0  0  0  0  0  0  0  0  0  0
    0.9745    2.3821    0.0000 C   0  0  0  0  0  0  0  0  0  0  0  0
   -1.6236    2.3821    0.0000 C   0  0  0  0  0  0  0  0  0  0  0  0
   -0.3245    3.1321    0.0000 N   0  0  0  0  0  0  0  0  0  0  0  0
   -1.6236    0.8821    0.0000 O   0  0  0  0  0  0  0  0  0  0  0  0
   -2.9226    3.1321    0.0000 O   0  0  0  0  0  0  0  0  0  0  0  0
  2  1  1  0
  4  3  2  0
  5  3  1  0
  6  4  1  0
  7  5  2  0
  8  6  2  0
  8  7  1  0
 10  8  1  0
 10  9  2  3
 11  9  1  0
 12  2  1  0
 12  9  1  0
M  END
>  <NAME>  (4248) 
PHENYLURETHAN

>  <SYNONYMS>  (4248) 
PHENYLCARBAMIC ACID ETHYL ESTER

>  <SPECTRUM TYPE>  (4248) 
MS1

>  <INSTRUMENT TYPE>  (4248) 
EI-B

>  <INSTRUMENT>  (4248) 
HITACHI RMU-6M

>  <ION MODE>  (4248) 
P

>  <INCHIKEY>  (4248) 
LBKPGNUOUPTQKA-UHFFFAOYSA-N

>  <FORMULA>  (4248) 
C9H11NO2

>  <EXACT MASS>  (4248) 
165.078978592

>  <MW>  (4248) 
165

>  <ID>  (4248) 
JP005886

>  <CONTRIBUTOR>  (4248) 
University of Tokyo Team, {Faculty of Engineering, University of Tokyo

>  <COMMENT>  (4248) 
SMILES=CCOC(=O)Nc(c1)cccc1
InChI=InChI=1S/C9H11NO2/c1-2-12-9(11)10-8-6-4-3-5-7-8/h3-7H,2H2,1H3,(H,10,11)
computed SMILES=OC(=NC=1C=CC=CC1)OCC
accession=JP005886
date=2016.01.19 (Created 2008.10.21, modified 2011.05.06)
author=YAMAMOTO M, DEP. CHEMISTRY, FAC. SCIENCE, NARA WOMEN'S UNIV.
license=CC BY-NC-SA
exact mass=165.07898
ionization energy=70 eV
ion type=[M]+*
computed spectral entropy=3.184093647118635
computed normalized entropy=0.8058459244477548
SPLASH=splash10-016u-9400000000-6330766705794584f74d
submitter=submitter = University of Tokyo Team (Faculty of Engineering, University of Tokyo)
MoNA Rating=3.75

>  <NUM PEAKS>  (4248) 
52

>  <MASS SPECTRAL PEAKS>  (4248) 
26 3.26
27 19.19
28 9.02
29 68.71
30 1.54
31 6.14
32 2.5
37 2.3
38 6.14
39 20.15
40 3.26
41 2.88
43 1.73
44 3.07
45 5.18
46 2.88
50 4.03
51 11.32
52 3.84
54 1.15
59.5 1.15
62 2.11
63 6.72
64 12.09
65 30.52
66 19.96
67 2.88
74 1.15
76 1.15
77 21.5
78 2.88
79 5.76
80 1.34
90 1.53
91 15.74
92 19.96
93 99.99
94 27.83
95 1.92
104 1.15
106 66.22
107 18.81
108 1.73
119 29.37
120 11.52
121 3.45
136 1.73
137 4.61
138 1.34
165 66.8
166 22.27
167 2.5

$$$$

     RDKit          2D

  8  7  0  0  0  0  0  0  0  0999 V2000
    1.9486    2.6250    0.0000 C   0  0  0  0  0  0  0  0  0  0  0  0
   -4.5466    3.3750    0.0000 C   0  0  0  0  0  0  0  0  0  0  0  0
   -0.6495    2.6250    0.0000 C   0  0  0  0  0  0  0  0  0  0  0  0
   -1.9486    3.3750    0.0000 C   0  0  0  0  0  0  0  0  0  0  0  0
   -0.6495    1.1250    0.0000 O   0  0  0  0  0  0  0  0  0  0  0  0
   -1.9486    4.8750    0.0000 O   0  0  0  0  0  0  0  0  0  0  0  0
    0.6495    3.3750    0.0000 O   0  0  0  0  0  0  0  0  0  0  0  0
   -3.2476    2.6250    0.0000 O   0  0  0  0  0  0  0  0  0  0  0  0
  4  3  1  0
  5  3  2  0
  6  4  2  0
  7  1  1  0
  7  3  1  0
  8  2  1  0
  8  4  1  0
M  END
>  <NAME>  (4249) 
METHYL OXALATE

>  <SYNONYMS>  (4249) 


>  <SPECTRUM TYPE>  (4249) 
MS1

>  <INSTRUMENT TYPE>  (4249) 
EI-B

>  <INSTRUMENT>  (4249) 
HITACHI RMU-6M

>  <ION MODE>  (4249) 
P

>  <INCHIKEY>  (4249) 
LOMVENUNSWAXEN-UHFFFAOYSA-N

>  <FORMULA>  (4249) 
C4H6O4

>  <EXACT MASS>  (4249) 
118.026608672

>  <MW>  (4249) 
118

>  <ID>  (4249) 
JP005885

>  <CONTRIBUTOR>  (4249) 
University of Tokyo Team, {Faculty of Engineering, University of Tokyo

>  <COMMENT>  (4249) 
SMILES=COC(=O)C(=O)OC
InChI=InChI=1S/C4H6O4/c1-7-3(5)4(6)8-2/h1-2H3
computed SMILES=O=C(OC)C(=O)OC
accession=JP005885
date=2016.01.19 (Created 2008.10.21, modified 2011.05.06)
author=YAMAMOTO M, DEP. CHEMISTRY, FAC. SCIENCE, NARA WOMEN'S UNIV.
license=CC BY-NC-SA
exact mass=118.02661
ionization energy=70 eV
ion type=[M]+*
computed spectral entropy=1.7214747661322816
computed normalized entropy=0.6356879076435216
SPLASH=splash10-066r-9000000000-8c01a94a9a877ce69f78
submitter=submitter = University of Tokyo Team (Faculty of Engineering, University of Tokyo)
MoNA Rating=3.75

>  <NUM PEAKS>  (4249) 
15

>  <MASS SPECTRAL PEAKS>  (4249) 
14 1.95
15 99.99
16 1.17
28 5.84
29 18.29
30 4.47
31 6.61
33 1.36
43 4.09
44 3.7
45 32.3
59 93.19
60 3.31
91 0.58
118 3.89

$$$$

     RDKit          2D

 11 12  0  0  0  0  0  0  0  0999 V2000
    1.9500   -0.9000    0.0000 C   0  0  0  0  0  0  0  0  0  0  0  0
    0.6300   -1.6600    0.0000 C   0  0  0  0  0  0  0  0  0  0  0  0
    0.6300    1.3800    0.0000 C   0  0  0  0  0  0  0  0  0  0  0  0
    3.2486    1.3708    0.0000 C   0  0  0  0  0  0  0  0  0  0  0  0
   -2.9400   -0.2300    0.0000 C   0  0  0  0  0  0  0  0  0  0  0  0
    1.9500    0.6200    0.0000 C   0  0  0  0  0  0  0  0  0  0  0  0
   -0.6600   -0.9000    0.0000 C   0  0  0  0  0  0  0  0  0  0  0  0
   -0.6600    0.6200    0.0000 C   0  0  0  0  0  0  0  0  0  0  0  0
    4.5481    0.6216    0.0000 O   0  0  0  0  0  0  0  0  0  0  0  0
   -2.0600   -1.3400    0.0000 O   0  0  0  0  0  0  0  0  0  0  0  0
   -2.0900    1.0600    0.0000 O   0  0  0  0  0  0  0  0  0  0  0  0
  2  1  2  0
  6  1  1  0
  6  3  2  0
  6  4  1  0
  7  2  1  0
  8  3  1  0
  8  7  2  0
  9  4  2  0
 10  5  1  0
 10  7  1  0
 11  5  1  0
 11  8  1  0
M  END
>  <NAME>  (4250) 
PIPERONAL

>  <SYNONYMS>  (4250) 
1,3-BENZODIOXOLE-5-CARBALDEHYDE

>  <SPECTRUM TYPE>  (4250) 
MS1

>  <INSTRUMENT TYPE>  (4250) 
EI-B

>  <INSTRUMENT>  (4250) 
HITACHI RMU-6M

>  <ION MODE>  (4250) 
P

>  <INCHIKEY>  (4250) 
SATCULPHIDQDRE-UHFFFAOYSA-N

>  <FORMULA>  (4250) 
C8H6O3

>  <EXACT MASS>  (4250) 
150.03169405199998

>  <MW>  (4250) 
150

>  <ID>  (4250) 
JP005884

>  <CONTRIBUTOR>  (4250) 
University of Tokyo Team, {Faculty of Engineering, University of Tokyo

>  <COMMENT>  (4250) 
SMILES=O=Cc(c1)cc(O2)c(OC2)c1
InChI=InChI=1S/C8H6O3/c9-4-6-1-2-7-8(3-6)11-5-10-7/h1-4H,5H2
computed SMILES=O=CC1=CC=C2OCOC2=C1
accession=JP005884
date=2016.01.19 (Created 2008.10.21, modified 2011.05.06)
author=YAMAMOTO M, DEP. CHEMISTRY, FAC. SCIENCE, NARA WOMEN'S UNIV.
license=CC BY-NC-SA
exact mass=150.03169
ionization energy=70 eV
ion type=[M]+*
computed spectral entropy=2.4786679532223146
computed normalized entropy=0.7361004433139665
SPLASH=splash10-0f6t-5900000000-deaf6988b3684d4c20e3
submitter=submitter = University of Tokyo Team (Faculty of Engineering, University of Tokyo)
MoNA Rating=3.75

>  <NUM PEAKS>  (4250) 
29

>  <MASS SPECTRAL PEAKS>  (4250) 
28 3.99
29 6.65
37 3.99
38 7.32
39 7.54
49 1.33
50 4.66
51 4.43
52 1.11
53 4.88
60 1.11
61 8.43
62 10.2
63 27.94
64 6.21
65 15.96
66 2.22
74 3.1
77 1.11
79 1.11
91 11.97
92 1.55
119 7.1
120 1.11
121 26.16
122 2.66
149 99.99
150 83.37
151 7.98

$$$$

     RDKit          2D

 12 12  0  0  0  0  0  0  0  0999 V2000
   -1.2998   -1.9296    0.0000 C   0  0  0  0  0  0  0  0  0  0  0  0
   -0.0007   -1.1796    0.0000 C   0  0  0  0  0  0  0  0  0  0  0  0
    3.8964    2.5704    0.0000 C   0  0  0  0  0  0  0  0  0  0  0  0
    2.5969    3.3212    0.0000 C   0  0  0  0  0  0  0  0  0  0  0  0
    3.8969    1.0696    0.0000 C   0  0  0  0  0  0  0  0  0  0  0  0
    1.2978    2.5712    0.0000 C   0  0  0  0  0  0  0  0  0  0  0  0
    2.5978    0.3196    0.0000 C   0  0  0  0  0  0  0  0  0  0  0  0
    1.2983    1.0704    0.0000 C   0  0  0  0  0  0  0  0  0  0  0  0
   -0.0007    0.3204    0.0000 C   0  0  0  0  0  0  0  0  0  0  0  0
   -1.2998    1.0704    0.0000 C   0  0  0  0  0  0  0  0  0  0  0  0
   -1.2998    2.5704    0.0000 O   0  0  0  0  0  0  0  0  0  0  0  0
   -2.5988    0.3204    0.0000 O   0  0  0  0  0  0  0  0  0  0  0  0
  2  1  1  0
  4  3  2  0
  5  3  1  0
  6  4  1  0
  7  5  2  0
  8  6  2  0
  8  7  1  0
  9  2  1  0
  9  8  1  0
 10  9  1  0
 11 10  2  0
 12 10  1  0
M  END
>  <NAME>  (4251) 
ALPHA-PHENYLBUTYRIC ACID

>  <SYNONYMS>  (4251) 


>  <SPECTRUM TYPE>  (4251) 
MS1

>  <INSTRUMENT TYPE>  (4251) 
EI-B

>  <INSTRUMENT>  (4251) 
HITACHI RMU-6M

>  <ION MODE>  (4251) 
P

>  <INCHIKEY>  (4251) 
OFJWFSNDPCAWDK-UHFFFAOYSA-N

>  <FORMULA>  (4251) 
C10H12O2

>  <EXACT MASS>  (4251) 
164.083729624

>  <MW>  (4251) 
164

>  <ID>  (4251) 
JP005883

>  <CONTRIBUTOR>  (4251) 
University of Tokyo Team, {Faculty of Engineering, University of Tokyo

>  <COMMENT>  (4251) 
SMILES=CCC(C(O)=O)c(c1)cccc1
InChI=InChI=1S/C10H12O2/c1-2-9(10(11)12)8-6-4-3-5-7-8/h3-7,9H,2H2,1H3,(H,11,12)
computed SMILES=O=C(O)C(C=1C=CC=CC1)CC
accession=JP005883
date=2016.01.19 (Created 2008.10.21, modified 2011.05.06)
author=YAMAMOTO M, DEP. CHEMISTRY, FAC. SCIENCE, NARA WOMEN'S UNIV.
license=CC BY-NC-SA
exact mass=164.08373
ionization energy=70 eV
ion type=[M]+*
computed spectral entropy=2.5300503711836453
computed normalized entropy=0.7116181953008988
SPLASH=splash10-0006-9400000000-988e77503c377b5a2e3e
submitter=submitter = University of Tokyo Team (Faculty of Engineering, University of Tokyo)
MoNA Rating=3.75

>  <NUM PEAKS>  (4251) 
35

>  <MASS SPECTRAL PEAKS>  (4251) 
27 3.27
28 3.05
29 1.09
39 8.5
41 12.85
50 2.61
51 7.84
52 2.4
53 1.09
62 1.31
63 4.14
64 1.31
65 4.58
75 1.09
76 1.09
77 9.59
78 6.97
79 8.06
80 3.27
89 3.27
90 3.05
91 99.99
92 13.29
102 1.09
103 4.36
104 3.92
105 1.31
107 2.61
108 1.96
115 3.92
116 1.09
117 3.92
118 2.82
119 62.35
120 6.75

$$$$

     RDKit          2D

  9  9  0  0  0  0  0  0  0  0999 V2000
    2.9228   -0.2425    0.0000 C   0  0  0  0  0  0  0  0  0  0  0  0
    2.9233    1.2583    0.0000 C   0  0  0  0  0  0  0  0  0  0  0  0
    1.6233   -0.9933    0.0000 C   0  0  0  0  0  0  0  0  0  0  0  0
    1.6243    2.0083    0.0000 C   0  0  0  0  0  0  0  0  0  0  0  0
    0.3243   -0.2433    0.0000 C   0  0  0  0  0  0  0  0  0  0  0  0
   -0.9743    2.0075    0.0000 C   0  0  0  0  0  0  0  0  0  0  0  0
   -2.2733    1.2575    0.0000 C   0  0  0  0  0  0  0  0  0  0  0  0
    0.3248    1.2575    0.0000 C   0  0  0  0  0  0  0  0  0  0  0  0
   -3.5724    2.0075    0.0000 Cl  0  0  0  0  0  0  0  0  0  0  0  0
  2  1  2  0
  3  1  1  0
  4  2  1  0
  5  3  2  0
  7  6  1  0
  8  4  2  0
  8  5  1  0
  8  6  1  0
  9  7  1  0
M  END
>  <NAME>  (4252) 
PHENETHYL CHLORIDE

>  <SYNONYMS>  (4252) 
2-CHLOROETHYLBENZENE

>  <SPECTRUM TYPE>  (4252) 
MS1

>  <INSTRUMENT TYPE>  (4252) 
EI-B

>  <INSTRUMENT>  (4252) 
HITACHI RMU-6M

>  <ION MODE>  (4252) 
P

>  <INCHIKEY>  (4252) 
MNNZINNZIQVULG-UHFFFAOYSA-N

>  <FORMULA>  (4252) 
C8H9Cl

>  <EXACT MASS>  (4252) 
140.039277968

>  <MW>  (4252) 
140

>  <ID>  (4252) 
JP005882

>  <CONTRIBUTOR>  (4252) 
University of Tokyo Team, {Faculty of Engineering, University of Tokyo

>  <COMMENT>  (4252) 
SMILES=ClCCc(c1)cccc1
InChI=InChI=1S/C8H9Cl/c9-7-6-8-4-2-1-3-5-8/h1-5H,6-7H2
computed SMILES=ClCCC=1C=CC=CC1
accession=JP005882
date=2016.01.19 (Created 2008.10.21, modified 2011.05.06)
author=YAMAMOTO M, DEP. CHEMISTRY, FAC. SCIENCE, NARA WOMEN'S UNIV.
license=CC BY-NC-SA
exact mass=140.03928
ionization energy=70 eV
ion type=[M]+*
computed spectral entropy=2.034224124979371
computed normalized entropy=0.6400848549367258
SPLASH=splash10-0006-9100000000-6467d024b88853c292d3
submitter=submitter = University of Tokyo Team (Faculty of Engineering, University of Tokyo)
MoNA Rating=3.75

>  <NUM PEAKS>  (4252) 
24

>  <MASS SPECTRAL PEAKS>  (4252) 
27 2.66
28 2.66
38 1.02
39 4.7
50 3.89
51 8.79
52 1.84
63 1.02
64 2.66
66 5.93
74 1.23
75 1.02
77 6.54
78 3.27
79 1.84
89 1.43
91 99.99
92 7.98
103 3.89
104 2.25
105 3.07
140 15.13
141 1.23
142 4.91

$$$$

     RDKit          2D

  7  6  0  0  0  0  0  0  0  0999 V2000
    0.6998    0.3885    0.0000 C   0  0  0  0  0  0  0  0  0  0  0  0
    1.2488    2.4375    0.0000 C   0  0  0  0  0  0  0  0  0  0  0  0
   -0.8002    2.9865    0.0000 C   0  0  0  0  0  0  0  0  0  0  0  0
   -1.3493    0.9375    0.0000 C   0  0  0  0  0  0  0  0  0  0  0  0
   -0.0502    1.6875    0.0000 C   0  0  0  0  0  0  0  0  0  0  0  0
   -1.3493   -0.5625    0.0000 Cl  0  0  0  0  0  0  0  0  0  0  0  0
   -2.6483    1.6875    0.0000 O   0  0  0  0  0  0  0  0  0  0  0  0
  5  1  1  0
  5  2  1  0
  5  3  1  0
  5  4  1  0
  6  4  1  0
  7  4  2  0
M  END
>  <NAME>  (4253) 
PIVALOYL CHLORIDE

>  <SYNONYMS>  (4253) 
TRIMETHYLACETYL CHLORIDE

>  <SPECTRUM TYPE>  (4253) 
MS1

>  <INSTRUMENT TYPE>  (4253) 
EI-B

>  <INSTRUMENT>  (4253) 
HITACHI RMU-6M

>  <ION MODE>  (4253) 
P

>  <INCHIKEY>  (4253) 
JVSFQJZRHXAUGT-UHFFFAOYSA-N

>  <FORMULA>  (4253) 
C5H9ClO

>  <EXACT MASS>  (4253) 
120.034192588

>  <MW>  (4253) 
120

>  <ID>  (4253) 
JP005881

>  <CONTRIBUTOR>  (4253) 
University of Tokyo Team, {Faculty of Engineering, University of Tokyo

>  <COMMENT>  (4253) 
SMILES=CC(C)(C)C(=O)Cl
InChI=InChI=1S/C5H9ClO/c1-5(2,3)4(6)7/h1-3H3
computed SMILES=O=C(Cl)C(C)(C)C
accession=JP005881
date=2016.01.19 (Created 2008.10.21, modified 2011.05.06)
author=YAMAMOTO M, DEP. CHEMISTRY, FAC. SCIENCE, NARA WOMEN'S UNIV.
license=CC BY-NC-SA
exact mass=120.03419
ionization energy=70 eV
ion type=[M]+*
computed spectral entropy=1.9372875167516839
computed normalized entropy=0.6363190143542884
SPLASH=splash10-0a4i-9000000000-794c801034004ec757e1
submitter=submitter = University of Tokyo Team (Faculty of Engineering, University of Tokyo)
MoNA Rating=3.75

>  <NUM PEAKS>  (4253) 
21

>  <MASS SPECTRAL PEAKS>  (4253) 
15 2.11
26 1.48
27 7.82
28 3.17
29 30.02
37 1.06
38 2.33
39 13.95
40 2.33
41 47.99
42 4.23
50 1.06
53 1.06
55 3.17
56 2.33
57 99.99
58 4.23
63 1.43
77 3.81
79 1.06
85 2.33

$$$$

     RDKit          2D

  4  3  0  0  0  0  0  0  0  0999 V2000
    1.2990    1.5000    0.0000 C   0  0  0  0  0  0  0  0  0  0  0  0
    0.0000    2.2500    0.0000 C   0  0  0  0  0  0  0  0  0  0  0  0
   -1.2990    3.0000    0.0000 C   0  0  0  0  0  0  0  0  0  0  0  0
   -2.5981    2.2500    0.0000 Cl  0  0  0  0  0  0  0  0  0  0  0  0
  2  1  3  0
  3  2  1  0
  4  3  1  0
M  END
>  <NAME>  (4254) 
PROPARGYL CHLORIDE

>  <SYNONYMS>  (4254) 
3-CHLORO-1-PROPYNE

>  <SPECTRUM TYPE>  (4254) 
MS1

>  <INSTRUMENT TYPE>  (4254) 
EI-B

>  <INSTRUMENT>  (4254) 
HITACHI RMU-6M

>  <ION MODE>  (4254) 
P

>  <INCHIKEY>  (4254) 
LJZPPWWHKPGCHS-UHFFFAOYSA-N

>  <FORMULA>  (4254) 
C3H3Cl

>  <EXACT MASS>  (4254) 
73.992327776

>  <MW>  (4254) 
74

>  <ID>  (4254) 
JP005880

>  <CONTRIBUTOR>  (4254) 
University of Tokyo Team, {Faculty of Engineering, University of Tokyo

>  <COMMENT>  (4254) 
SMILES=C#CCCl
InChI=InChI=1S/C3H3Cl/c1-2-3-4/h1H,3H2
computed SMILES=ClCC#C
accession=JP005880
date=2016.01.19 (Created 2008.10.21, modified 2011.05.06)
author=YAMAMOTO M, DEP. CHEMISTRY, FAC. SCIENCE, NARA WOMEN'S UNIV.
license=CC BY-NC-SA
exact mass=73.99233
ionization energy=70 eV
ion type=[M]+*
computed spectral entropy=1.8873515537364565
computed normalized entropy=0.6807181817474165
SPLASH=splash10-000i-9000000000-37fc312dc4f19ebdb5b6
submitter=submitter = University of Tokyo Team (Faculty of Engineering, University of Tokyo)
MoNA Rating=3.75

>  <NUM PEAKS>  (4254) 
16

>  <MASS SPECTRAL PEAKS>  (4254) 
24 1.07
25 2.36
26 1.53
35 3
36 7.49
37 21.63
38 25.05
39 99.99
40 3.43
47 3.43
49 1.28
72 1.5
73 4.92
74 43.25
75 3.21
76 14.35

$$$$

     RDKit          2D

  5  4  0  0  0  0  0  0  0  0999 V2000
   -0.0000   -0.0000    0.0000 C   0  0  0  0  0  0  0  0  0  0  0  0
    0.0000    1.5000    0.0000 C   0  0  0  0  0  0  0  0  0  0  0  0
   -1.2990    2.2500    0.0000 C   0  0  0  0  0  0  0  0  0  0  0  0
   -1.2990    3.7500    0.0000 Cl  0  0  0  0  0  0  0  0  0  0  0  0
   -2.5981    1.5000    0.0000 O   0  0  0  0  0  0  0  0  0  0  0  0
  2  1  1  0
  3  2  1  0
  4  3  1  0
  5  3  2  0
M  END
>  <NAME>  (4255) 
PROPIONYL CHLORIDE

>  <SYNONYMS>  (4255) 


>  <SPECTRUM TYPE>  (4255) 
MS1

>  <INSTRUMENT TYPE>  (4255) 
EI-B

>  <INSTRUMENT>  (4255) 
HITACHI RMU-6M

>  <ION MODE>  (4255) 
P

>  <INCHIKEY>  (4255) 
RZWZRACFZGVKFM-UHFFFAOYSA-N

>  <FORMULA>  (4255) 
C3H5ClO

>  <EXACT MASS>  (4255) 
92.00289246

>  <MW>  (4255) 
92

>  <ID>  (4255) 
JP005879

>  <CONTRIBUTOR>  (4255) 
University of Tokyo Team, {Faculty of Engineering, University of Tokyo

>  <COMMENT>  (4255) 
SMILES=CCC(=O)Cl
InChI=InChI=1S/C3H5ClO/c1-2-3(4)5/h2H2,1H3
computed SMILES=O=C(Cl)CC
accession=JP005879
date=2016.01.19 (Created 2008.10.21, modified 2011.05.06)
author=YAMAMOTO M, DEP. CHEMISTRY, FAC. SCIENCE, NARA WOMEN'S UNIV.
license=CC BY-NC-SA
exact mass=92.00289
ionization energy=70 eV
ion type=[M]+*
computed spectral entropy=1.9439705938961056
computed normalized entropy=0.6289045275919926
SPLASH=splash10-004i-9000000000-040e44567e9171c6e4c7
submitter=submitter = University of Tokyo Team (Faculty of Engineering, University of Tokyo)
MoNA Rating=3.75

>  <NUM PEAKS>  (4255) 
22

>  <MASS SPECTRAL PEAKS>  (4255) 
25 3.8
26 19
27 60.32
28 15.06
29 99.99
30 2.53
35 1.97
36 1
37 1.41
38 1.12
39 1.26
41 1
42 3.8
44 2.11
49 1.69
53 1.12
55 1.97
56 1.83
57 80.21
58 2.81
63 8.02
65 2.67

$$$$

     RDKit          2D

 13 14  0  0  0  0  0  0  0  0999 V2000
    6.1271    0.5392    0.0000 C   0  0  0  0  0  0  0  0  0  0  0  0
   -1.6700    0.5404    0.0000 C   0  0  0  0  0  0  0  0  0  0  0  0
    4.8271    1.2892    0.0000 C   0  0  0  0  0  0  0  0  0  0  0  0
    6.1271   -0.9608    0.0000 C   0  0  0  0  0  0  0  0  0  0  0  0
   -1.6695   -0.9604    0.0000 C   0  0  0  0  0  0  0  0  0  0  0  0
   -0.3710    1.2904    0.0000 C   0  0  0  0  0  0  0  0  0  0  0  0
    3.5271    0.5392    0.0000 C   0  0  0  0  0  0  0  0  0  0  0  0
    4.8271   -1.7108    0.0000 C   0  0  0  0  0  0  0  0  0  0  0  0
   -0.3700   -1.7112    0.0000 C   0  0  0  0  0  0  0  0  0  0  0  0
    0.9286    0.5396    0.0000 C   0  0  0  0  0  0  0  0  0  0  0  0
    3.5271   -0.9608    0.0000 C   0  0  0  0  0  0  0  0  0  0  0  0
    0.9290   -0.9612    0.0000 C   0  0  0  0  0  0  0  0  0  0  0  0
    2.2282   -1.7110    0.0000 S   0  0  0  0  0  0  0  0  0  0  0  0
  3  1  2  0
  4  1  1  0
  5  2  2  0
  6  2  1  0
  7  3  1  0
  8  4  2  0
  9  5  1  0
 10  6  2  0
 11  7  2  0
 11  8  1  0
 12  9  2  0
 12 10  1  0
 13 11  1  0
 13 12  1  0
M  END
>  <NAME>  (4256) 
PHENYL SULFIDE

>  <SYNONYMS>  (4256) 


>  <SPECTRUM TYPE>  (4256) 
MS1

>  <INSTRUMENT TYPE>  (4256) 
EI-B

>  <INSTRUMENT>  (4256) 
HITACHI RMU-6M

>  <ION MODE>  (4256) 
P

>  <INCHIKEY>  (4256) 
LTYMSROWYAPPGB-UHFFFAOYSA-N

>  <FORMULA>  (4256) 
C12H10S

>  <EXACT MASS>  (4256) 
186.05032132

>  <MW>  (4256) 
186

>  <ID>  (4256) 
JP005878

>  <CONTRIBUTOR>  (4256) 
University of Tokyo Team, {Faculty of Engineering, University of Tokyo

>  <COMMENT>  (4256) 
SMILES=c(c2)ccc(c2)Sc(c1)cccc1
InChI=InChI=1S/C12H10S/c1-3-7-11(8-4-1)13-12-9-5-2-6-10-12/h1-10H
computed SMILES=S(C=1C=CC=CC1)C=2C=CC=CC2
accession=JP005878
date=2016.01.19 (Created 2008.10.21, modified 2011.05.06)
author=YAMAMOTO M, DEP. CHEMISTRY, FAC. SCIENCE, NARA WOMEN'S UNIV.
license=CC BY-NC-SA
exact mass=186.05032
ionization energy=70 eV
ion type=[M]+*
computed spectral entropy=2.8490110574406504
computed normalized entropy=0.7441310800361778
SPLASH=splash10-000i-4900000000-4254f29cc7f131adacca
submitter=submitter = University of Tokyo Team (Faculty of Engineering, University of Tokyo)
MoNA Rating=3.75

>  <NUM PEAKS>  (4256) 
46

>  <MASS SPECTRAL PEAKS>  (4256) 
27 2.12
28 3.08
38 1.16
39 7.32
45 3.08
50 5.4
51 21.97
52 1.54
58 1.35
62 1.16
63 2.89
65 9.06
66 2.12
69 5.78
74 1.93
75 1.73
76 1.73
77 12.91
78 1.16
79 1.93
80 1.93
82 1.93
84 1.35
92 7.51
92.5 1.73
93 3.66
102 1.73
108 1.93
109 5.59
110 1.54
115 2.7
121 1.16
139 2.12
141 2.31
142 1.54
151 1.17
152 5.97
153 3.85
154 2.89
171 3.85
183 1.73
184 18.85
185 46.63
186 99.99
187 15.61
188 5.2

$$$$

     RDKit          2D

  4  3  0  0  0  0  0  0  0  0999 V2000
    0.9743    0.5625    0.0000 C   0  0  0  0  0  0  0  0  0  0  0  0
   -1.6238    0.5625    0.0000 C   0  0  0  0  0  0  0  0  0  0  0  0
   -0.3248    1.3125    0.0000 C   0  0  0  0  0  0  0  0  0  0  0  0
   -0.3248    2.8125    0.0000 Br  0  0  0  0  0  0  0  0  0  0  0  0
  3  1  1  0
  3  2  1  0
  4  3  1  0
M  END
>  <NAME>  (4257) 
ISOPROPYL BROMIDE

>  <SYNONYMS>  (4257) 


>  <SPECTRUM TYPE>  (4257) 
MS1

>  <INSTRUMENT TYPE>  (4257) 
EI-B

>  <INSTRUMENT>  (4257) 
HITACHI RMU-6M

>  <ION MODE>  (4257) 
P

>  <INCHIKEY>  (4257) 
NAMYKGVDVNBCFQ-UHFFFAOYSA-N

>  <FORMULA>  (4257) 
C3H7Br

>  <EXACT MASS>  (4257) 
121.973112324

>  <MW>  (4257) 
122

>  <ID>  (4257) 
JP005877

>  <CONTRIBUTOR>  (4257) 
University of Tokyo Team, {Faculty of Engineering, University of Tokyo

>  <COMMENT>  (4257) 
SMILES=CC(C)Br
InChI=InChI=1S/C3H7Br/c1-3(2)4/h3H,1-2H3
computed SMILES=BrC(C)C
accession=JP005877
date=2016.01.19 (Created 2008.10.21, modified 2011.05.06)
author=YAMAMOTO M, DEP. CHEMISTRY, FAC. SCIENCE, NARA WOMEN'S UNIV.
license=CC BY-NC-SA
exact mass=121.97311
ionization energy=70 eV
ion type=[M]+*
computed spectral entropy=1.8465840748334819
computed normalized entropy=0.6660144218366997
SPLASH=splash10-0006-9100000000-87049b3f8abc32cbdd1f
submitter=submitter = University of Tokyo Team (Faculty of Engineering, University of Tokyo)
MoNA Rating=3.75

>  <NUM PEAKS>  (4257) 
16

>  <MASS SPECTRAL PEAKS>  (4257) 
15 1.68
26 2.69
27 29.29
28 2
38 2.02
39 2.69
40 11.45
41 2.02
42 32.32
43 3.37
44 99.99
45 3.37
106 1.68
108 1.35
121 11.78
123 11.45

$$$$

     RDKit          2D

  4  3  0  0  0  0  0  0  0  0999 V2000
   -2.5981    2.2500    0.0000 C   0  0  0  0  0  0  0  0  0  0  0  0
   -1.2990    1.5000    0.0000 C   0  0  0  0  0  0  0  0  0  0  0  0
    0.0000    2.2500    0.0000 C   0  0  0  0  0  0  0  0  0  0  0  0
    1.2990    1.5000    0.0000 Br  0  0  0  0  0  0  0  0  0  0  0  0
  2  1  1  0
  3  2  1  0
  4  3  1  0
M  END
>  <NAME>  (4258) 
PROPYL BROMIDE

>  <SYNONYMS>  (4258) 


>  <SPECTRUM TYPE>  (4258) 
MS1

>  <INSTRUMENT TYPE>  (4258) 
EI-B

>  <INSTRUMENT>  (4258) 
HITACHI RMU-6M

>  <ION MODE>  (4258) 
P

>  <INCHIKEY>  (4258) 
CYNYIHKIEHGYOZ-UHFFFAOYSA-N

>  <FORMULA>  (4258) 
C3H7Br

>  <EXACT MASS>  (4258) 
121.973112324

>  <MW>  (4258) 
122

>  <ID>  (4258) 
JP005876

>  <CONTRIBUTOR>  (4258) 
University of Tokyo Team, {Faculty of Engineering, University of Tokyo

>  <COMMENT>  (4258) 
SMILES=CCCBr
InChI=InChI=1S/C3H7Br/c1-2-3-4/h2-3H2,1H3
computed SMILES=BrCCC
accession=JP005876
date=2016.01.19 (Created 2008.10.21, modified 2011.05.06)
author=YAMAMOTO M, DEP. CHEMISTRY, FAC. SCIENCE, NARA WOMEN'S UNIV.
license=CC BY-NC-SA
exact mass=121.97311
ionization energy=70 eV
ion type=[M]+*
computed spectral entropy=2.105636600384434
computed normalized entropy=0.7028787648925681
SPLASH=splash10-0006-9100000000-866f6f6cbf77d251fbfe
submitter=submitter = University of Tokyo Team (Faculty of Engineering, University of Tokyo)
MoNA Rating=3.75

>  <NUM PEAKS>  (4258) 
20

>  <MASS SPECTRAL PEAKS>  (4258) 
15 2.51
26 4.25
27 37.19
28 4.58
29 5.23
37 1.96
38 3.05
39 13.41
40 2.29
41 36.86
42 9.81
43 99.99
44 3.49
93 1.31
95 1.31
107 1.74
109 1.53
122 14.61
123 0.87
124 14.29

$$$$

     RDKit          2D

  4  3  0  0  0  0  0  0  0  0999 V2000
    1.2990    1.5000    0.0000 C   0  0  0  0  0  0  0  0  0  0  0  0
    0.0000    2.2500    0.0000 C   0  0  0  0  0  0  0  0  0  0  0  0
   -1.2990    3.0000    0.0000 C   0  0  0  0  0  0  0  0  0  0  0  0
   -2.5981    2.2500    0.0000 Br  0  0  0  0  0  0  0  0  0  0  0  0
  2  1  3  0
  3  2  1  0
  4  3  1  0
M  END
>  <NAME>  (4259) 
PROPARGYL BROMIDE

>  <SYNONYMS>  (4259) 


>  <SPECTRUM TYPE>  (4259) 
MS1

>  <INSTRUMENT TYPE>  (4259) 
EI-B

>  <INSTRUMENT>  (4259) 
HITACHI RMU-6M

>  <ION MODE>  (4259) 
P

>  <INCHIKEY>  (4259) 
YORCIIVHUBAYBQ-UHFFFAOYSA-N

>  <FORMULA>  (4259) 
C3H3Br

>  <EXACT MASS>  (4259) 
117.941812196

>  <MW>  (4259) 
118

>  <ID>  (4259) 
JP005875

>  <CONTRIBUTOR>  (4259) 
University of Tokyo Team, {Faculty of Engineering, University of Tokyo

>  <COMMENT>  (4259) 
SMILES=C#CCBr
InChI=InChI=1S/C3H3Br/c1-2-3-4/h1H,3H2
computed SMILES=BrCC#C
accession=JP005875
date=2016.01.19 (Created 2008.10.21, modified 2011.05.06)
author=YAMAMOTO M, DEP. CHEMISTRY, FAC. SCIENCE, NARA WOMEN'S UNIV.
license=CC BY-NC-SA
exact mass=117.94181
ionization energy=70 eV
ion type=[M]+*
computed spectral entropy=1.789147030095433
computed normalized entropy=0.6606772021313445
SPLASH=splash10-000i-9300000000-55dd22ea86985d58c0b7
submitter=submitter = University of Tokyo Team (Faculty of Engineering, University of Tokyo)
MoNA Rating=3.75

>  <NUM PEAKS>  (4259) 
15

>  <MASS SPECTRAL PEAKS>  (4259) 
24 1.18
25 1.93
26 1.63
36 3.12
37 16.2
38 25.4
39 99.99
40 3.56
79 3.56
81 3.56
117 1.33
118 29.27
119 2.08
120 27.63
121 0.98

$$$$

     RDKit          2D

 11 10  0  0  0  0  0  0  0  0999 V2000
   -1.2990    6.0000    0.0000 C   0  0  0  0  0  0  0  0  0  0  0  0
   -6.4952    4.5000    0.0000 C   0  0  0  0  0  0  0  0  0  0  0  0
    2.5981    3.7500    0.0000 C   0  0  0  0  0  0  0  0  0  0  0  0
   -2.5981    3.7500    0.0000 C   0  0  0  0  0  0  0  0  0  0  0  0
   -1.2990    4.5000    0.0000 C   0  0  0  0  0  0  0  0  0  0  0  0
   -5.1962    3.7500    0.0000 C   0  0  0  0  0  0  0  0  0  0  0  0
    1.2990    4.5000    0.0000 C   0  0  0  0  0  0  0  0  0  0  0  0
   -5.1962    2.2500    0.0000 O   0  0  0  0  0  0  0  0  0  0  0  0
    1.2990    6.0000    0.0000 O   0  0  0  0  0  0  0  0  0  0  0  0
   -3.8971    4.5000    0.0000 O   0  0  0  0  0  0  0  0  0  0  0  0
    0.0000    3.7500    0.0000 O   0  0  0  0  0  0  0  0  0  0  0  0
  5  1  1  0
  5  4  1  0
  6  2  1  0
  7  3  1  0
  8  6  2  0
  9  7  2  0
 10  4  1  0
 10  6  1  0
 11  5  1  0
 11  7  1  0
M  END
>  <NAME>  (4260) 
PROPYLENE GLYCOL DIACETATE

>  <SYNONYMS>  (4260) 
1,2-DIACETHOXYPROPANE

>  <SPECTRUM TYPE>  (4260) 
MS1

>  <INSTRUMENT TYPE>  (4260) 
EI-B

>  <INSTRUMENT>  (4260) 
HITACHI RMU-6M

>  <ION MODE>  (4260) 
P

>  <INCHIKEY>  (4260) 
MLHOXUWWKVQEJB-UHFFFAOYSA-N

>  <FORMULA>  (4260) 
C7H12O4

>  <EXACT MASS>  (4260) 
160.073558864

>  <MW>  (4260) 
160

>  <ID>  (4260) 
JP005874

>  <CONTRIBUTOR>  (4260) 
University of Tokyo Team, {Faculty of Engineering, University of Tokyo

>  <COMMENT>  (4260) 
SMILES=CC(=O)OCC(C)OC(C)=O
InChI=InChI=1S/C7H12O4/c1-5(11-7(3)9)4-10-6(2)8/h5H,4H2,1-3H3
computed SMILES=O=C(OCC(OC(=O)C)C)C
accession=JP005874
date=2016.01.19 (Created 2008.10.21, modified 2011.05.06)
author=YAMAMOTO M, DEP. CHEMISTRY, FAC. SCIENCE, NARA WOMEN'S UNIV.
license=CC BY-NC-SA
exact mass=160.07356
ionization energy=70 eV
ion type=[M]+*
computed spectral entropy=1.6170238716024148
computed normalized entropy=0.539775829061005
SPLASH=splash10-0006-9000000000-9c9bfe824be08f2b0b28
submitter=submitter = University of Tokyo Team (Faculty of Engineering, University of Tokyo)
MoNA Rating=3.75

>  <NUM PEAKS>  (4260) 
20

>  <MASS SPECTRAL PEAKS>  (4260) 
15 5.39
27 1.25
28 2.67
29 1.15
31 1.06
39 1.15
41 1.35
42 1.92
43 99.99
44 2.5
45 2.31
58 3.27
73 2.31
74 1.54
86 3.75
87 10.49
100 5.1
103 1.15
116 5
117 2.02

$$$$

     RDKit          2D

 10 10  0  0  0  0  0  0  0  0999 V2000
    6.1262    0.5406    0.0000 C   0  0  0  0  0  0  0  0  0  0  0  0
    6.1262   -0.9594    0.0000 C   0  0  0  0  0  0  0  0  0  0  0  0
    4.8262    1.2906    0.0000 C   0  0  0  0  0  0  0  0  0  0  0  0
    4.8262   -1.7094    0.0000 C   0  0  0  0  0  0  0  0  0  0  0  0
    3.5262    0.5406    0.0000 C   0  0  0  0  0  0  0  0  0  0  0  0
   -0.3708   -1.7100    0.0000 C   0  0  0  0  0  0  0  0  0  0  0  0
    0.9281   -0.9598    0.0000 C   0  0  0  0  0  0  0  0  0  0  0  0
    3.5262   -0.9594    0.0000 C   0  0  0  0  0  0  0  0  0  0  0  0
   -1.6700   -0.9602    0.0000 O   0  0  0  0  0  0  0  0  0  0  0  0
    2.2272   -1.7096    0.0000 O   0  0  0  0  0  0  0  0  0  0  0  0
  2  1  2  0
  3  1  1  0
  4  2  1  0
  5  3  2  0
  7  6  1  0
  8  4  2  0
  8  5  1  0
  9  6  1  0
 10  7  1  0
 10  8  1  0
M  END
>  <NAME>  (4261) 
ETYLENEGLYCOL MONOPHENYL ETHER

>  <SYNONYMS>  (4261) 


>  <SPECTRUM TYPE>  (4261) 
MS1

>  <INSTRUMENT TYPE>  (4261) 
EI-B

>  <INSTRUMENT>  (4261) 
HITACHI RMU-6M

>  <ION MODE>  (4261) 
P

>  <INCHIKEY>  (4261) 
QCDWFXQBSFUVSP-UHFFFAOYSA-N

>  <FORMULA>  (4261) 
C8H10O2

>  <EXACT MASS>  (4261) 
138.06807956

>  <MW>  (4261) 
138

>  <ID>  (4261) 
JP005873

>  <CONTRIBUTOR>  (4261) 
University of Tokyo Team, {Faculty of Engineering, University of Tokyo

>  <COMMENT>  (4261) 
SMILES=OCCOc(c1)cccc1
InChI=InChI=1S/C8H10O2/c9-6-7-10-8-4-2-1-3-5-8/h1-5,9H,6-7H2
computed SMILES=OCCOC=1C=CC=CC1
accession=JP005873
date=2016.01.19 (Created 2008.10.21, modified 2011.05.06)
author=YAMAMOTO M, DEP. CHEMISTRY, FAC. SCIENCE, NARA WOMEN'S UNIV.
license=CC BY-NC-SA
exact mass=138.06808
ionization energy=70 eV
ion type=[M]+*
computed spectral entropy=2.5035316088845003
computed normalized entropy=0.7360736023091466
SPLASH=splash10-0006-9100000000-7b2a4d4d9b09c7b78741
submitter=submitter = University of Tokyo Team (Faculty of Engineering, University of Tokyo)
MoNA Rating=3.75

>  <NUM PEAKS>  (4261) 
30

>  <MASS SPECTRAL PEAKS>  (4261) 
15 1.32
27 5.07
28 3.85
29 2.42
31 1.98
38 2.09
39 9.47
40 2.75
43 2.86
45 10.46
50 7.74
51 11.12
52 1.43
55 1.98
63 2.42
64 1.32
65 7.93
66 10.46
74 1.21
76 1.1
77 25.86
78 3.3
79 3.74
91 1.1
93 1.21
94 99.99
95 14.54
107 6.84
138 31.17
139 2.75

$$$$

     RDKit          2D

  7  6  0  0  0  0  0  0  0  0999 V2000
    1.4498    2.6115    0.0000 C   0  0  0  0  0  0  0  0  0  0  0  0
   -0.0502    0.0135    0.0000 C   0  0  0  0  0  0  0  0  0  0  0  0
    1.9988    0.5625    0.0000 C   0  0  0  0  0  0  0  0  0  0  0  0
   -0.5993    2.0625    0.0000 C   0  0  0  0  0  0  0  0  0  0  0  0
    0.6998    1.3125    0.0000 C   0  0  0  0  0  0  0  0  0  0  0  0
   -0.5993    3.5625    0.0000 O   0  0  0  0  0  0  0  0  0  0  0  0
   -1.8983    1.3125    0.0000 O   0  0  0  0  0  0  0  0  0  0  0  0
  5  1  1  0
  5  2  1  0
  5  3  1  0
  5  4  1  0
  6  4  2  0
  7  4  1  0
M  END
>  <NAME>  (4262) 
PIVALIC ACID

>  <SYNONYMS>  (4262) 


>  <SPECTRUM TYPE>  (4262) 
MS1

>  <INSTRUMENT TYPE>  (4262) 
EI-B

>  <INSTRUMENT>  (4262) 
HITACHI RMU-6M

>  <ION MODE>  (4262) 
P

>  <INCHIKEY>  (4262) 
IUGYQRQAERSCNH-UHFFFAOYSA-N

>  <FORMULA>  (4262) 
C5H10O2

>  <EXACT MASS>  (4262) 
102.06807956

>  <MW>  (4262) 
102

>  <ID>  (4262) 
JP005872

>  <CONTRIBUTOR>  (4262) 
University of Tokyo Team, {Faculty of Engineering, University of Tokyo

>  <COMMENT>  (4262) 
SMILES=OC(=O)C(C)(C)C
InChI=InChI=1S/C5H10O2/c1-5(2,3)4(6)7/h1-3H3,(H,6,7)
computed SMILES=O=C(O)C(C)(C)C
accession=JP005872
date=2016.01.19 (Created 2008.10.21, modified 2011.05.06)
author=YAMAMOTO M, DEP. CHEMISTRY, FAC. SCIENCE, NARA WOMEN'S UNIV.
license=CC BY-NC-SA
exact mass=102.06808
ionization energy=70 eV
ion type=[M]+*
computed spectral entropy=2.0579542322990205
computed normalized entropy=0.6759530515524398
SPLASH=splash10-0a4i-9000000000-e957b65f703c5d0a437e
submitter=submitter = University of Tokyo Team (Faculty of Engineering, University of Tokyo)
MoNA Rating=3.75

>  <NUM PEAKS>  (4262) 
21

>  <MASS SPECTRAL PEAKS>  (4262) 
15 1.96
27 8.04
28 4.23
29 26.39
31 1.65
32 1.03
38 1.34
39 10.74
40 1.44
41 33.4
42 2.28
43 2.89
45 3.61
55 2.68
56 6.8
57 99.99
58 4.54
59 5.46
69 1.13
87 5.05
102 3.61

$$$$

     RDKit          2D

  8  7  0  0  0  0  0  0  0  0999 V2000
    0.9007   -0.3615    0.0000 C   0  0  0  0  0  0  0  0  0  0  0  0
   -0.5993    2.2365    0.0000 C   0  0  0  0  0  0  0  0  0  0  0  0
   -1.1483    0.1875    0.0000 C   0  0  0  0  0  0  0  0  0  0  0  0
    2.7488    3.9375    0.0000 C   0  0  0  0  0  0  0  0  0  0  0  0
    1.4498    1.6875    0.0000 C   0  0  0  0  0  0  0  0  0  0  0  0
    0.1507    0.9375    0.0000 C   0  0  0  0  0  0  0  0  0  0  0  0
    2.7488    0.9375    0.0000 O   0  0  0  0  0  0  0  0  0  0  0  0
    1.4498    3.1875    0.0000 O   0  0  0  0  0  0  0  0  0  0  0  0
  6  1  1  0
  6  2  1  0
  6  3  1  0
  6  5  1  0
  7  5  2  0
  8  4  1  0
  8  5  1  0
M  END
>  <NAME>  (4263) 
METHYL PIVALATE

>  <SYNONYMS>  (4263) 


>  <SPECTRUM TYPE>  (4263) 
MS1

>  <INSTRUMENT TYPE>  (4263) 
EI-B

>  <INSTRUMENT>  (4263) 
HITACHI RMU-6M

>  <ION MODE>  (4263) 
P

>  <INCHIKEY>  (4263) 
CNMFHDIDIMZHKY-UHFFFAOYSA-N

>  <FORMULA>  (4263) 
C6H12O2

>  <EXACT MASS>  (4263) 
116.083729624

>  <MW>  (4263) 
116

>  <ID>  (4263) 
JP005871

>  <CONTRIBUTOR>  (4263) 
University of Tokyo Team, {Faculty of Engineering, University of Tokyo

>  <COMMENT>  (4263) 
SMILES=COC(=O)C(C)(C)C
InChI=InChI=1S/C6H12O2/c1-6(2,3)5(7)8-4/h1-4H3
computed SMILES=O=C(OC)C(C)(C)C
accession=JP005871
date=2016.01.19 (Created 2008.10.21, modified 2011.05.06)
author=YAMAMOTO M, DEP. CHEMISTRY, FAC. SCIENCE, NARA WOMEN'S UNIV.
license=CC BY-NC-SA
exact mass=116.08373
ionization energy=70 eV
ion type=[M]+*
computed spectral entropy=2.196785341025066
computed normalized entropy=0.7333049620014632
SPLASH=splash10-0a4i-9000000000-6f0e862671a68bc484e7
submitter=submitter = University of Tokyo Team (Faculty of Engineering, University of Tokyo)
MoNA Rating=3.75

>  <NUM PEAKS>  (4263) 
20

>  <MASS SPECTRAL PEAKS>  (4263) 
15 9.36
27 6.07
28 2.77
29 23.05
31 1.21
39 9.01
40 1.73
41 35.88
42 3.12
43 1.21
55 2.95
56 26.34
57 99.99
58 4.85
59 4.16
69 2.77
73 7.63
85 8.67
101 3.47
116 6.07

$$$$

     RDKit          2D

  8  7  0  0  0  0  0  0  0  0999 V2000
    1.6238    3.1875    0.0000 C   0  0  0  0  0  0  0  0  0  0  0  0
   -4.8714    3.9375    0.0000 C   0  0  0  0  0  0  0  0  0  0  0  0
    0.3248    3.9375    0.0000 C   0  0  0  0  0  0  0  0  0  0  0  0
   -3.5724    3.1875    0.0000 C   0  0  0  0  0  0  0  0  0  0  0  0
   -2.2733    3.9375    0.0000 C   0  0  0  0  0  0  0  0  0  0  0  0
   -3.5724    1.6875    0.0000 O   0  0  0  0  0  0  0  0  0  0  0  0
   -2.2733    5.4375    0.0000 O   0  0  0  0  0  0  0  0  0  0  0  0
   -0.9743    3.1875    0.0000 O   0  0  0  0  0  0  0  0  0  0  0  0
  3  1  1  0
  4  2  1  0
  5  4  1  0
  6  4  2  0
  7  5  2  0
  8  3  1  0
  8  5  1  0
M  END
>  <NAME>  (4264) 
PYRUVIC ACID ETHYL ESTER

>  <SYNONYMS>  (4264) 
2-OXOPROPANOIC ACID ETHYL ESTER

>  <SPECTRUM TYPE>  (4264) 
MS1

>  <INSTRUMENT TYPE>  (4264) 
EI-B

>  <INSTRUMENT>  (4264) 
HITACHI RMU-6M

>  <ION MODE>  (4264) 
P

>  <INCHIKEY>  (4264) 
XXRCUYVCPSWGCC-UHFFFAOYSA-N

>  <FORMULA>  (4264) 
C5H8O3

>  <EXACT MASS>  (4264) 
116.04734411599999

>  <MW>  (4264) 
116

>  <ID>  (4264) 
JP005870

>  <CONTRIBUTOR>  (4264) 
University of Tokyo Team, {Faculty of Engineering, University of Tokyo

>  <COMMENT>  (4264) 
SMILES=CCOC(=O)C(C)=O
InChI=InChI=1S/C5H8O3/c1-3-8-5(7)4(2)6/h3H2,1-2H3
computed SMILES=O=C(OCC)C(=O)C
accession=JP005870
date=2016.01.19 (Created 2008.10.21, modified 2011.05.06)
author=YAMAMOTO M, DEP. CHEMISTRY, FAC. SCIENCE, NARA WOMEN'S UNIV.
license=CC BY-NC-SA
exact mass=116.04734
ionization energy=70 eV
ion type=[M]+*
computed spectral entropy=1.5331999659109545
computed normalized entropy=0.5661637902011282
SPLASH=splash10-0006-9000000000-6b9687c0790faebef406
submitter=submitter = University of Tokyo Team (Faculty of Engineering, University of Tokyo)
MoNA Rating=3.75

>  <NUM PEAKS>  (4264) 
15

>  <MASS SPECTRAL PEAKS>  (4264) 
14 2.08
15 10.19
26 1.32
27 9.06
28 2.83
29 21.7
31 1.13
42 3.96
43 99.99
44 2.64
45 4.15
57 1.13
61 1.51
73 1.32
116 3.02

$$$$

     RDKit          2D

  4  3  0  0  0  0  0  0  0  0999 V2000
   -2.5981    2.2500    0.0000 C   0  0  0  0  0  0  0  0  0  0  0  0
   -1.2990    1.5000    0.0000 C   0  0  0  0  0  0  0  0  0  0  0  0
    0.0000    2.2500    0.0000 C   0  0  0  0  0  0  0  0  0  0  0  0
    1.2990    1.5000    0.0000 O   0  0  0  0  0  0  0  0  0  0  0  0
  2  1  1  0
  3  2  1  0
  4  3  2  0
M  END
>  <NAME>  (4265) 
PROPIONALDEHYDE

>  <SYNONYMS>  (4265) 


>  <SPECTRUM TYPE>  (4265) 
MS1

>  <INSTRUMENT TYPE>  (4265) 
EI-B

>  <INSTRUMENT>  (4265) 
HITACHI RMU-6M

>  <ION MODE>  (4265) 
P

>  <INCHIKEY>  (4265) 
NBBJYMSMWIIQGU-UHFFFAOYSA-N

>  <FORMULA>  (4265) 
C3H6O

>  <EXACT MASS>  (4265) 
58.041864812

>  <MW>  (4265) 
58

>  <ID>  (4265) 
JP005869

>  <CONTRIBUTOR>  (4265) 
University of Tokyo Team, {Faculty of Engineering, University of Tokyo

>  <COMMENT>  (4265) 
SMILES=CCC=O
InChI=InChI=1S/C3H6O/c1-2-3-4/h3H,2H2,1H3
computed SMILES=O=CCC
accession=JP005869
date=2016.01.19 (Created 2008.10.21, modified 2011.05.06)
author=YAMAMOTO M, DEP. CHEMISTRY, FAC. SCIENCE, NARA WOMEN'S UNIV.
license=CC BY-NC-SA
exact mass=58.04186
ionization energy=70 eV
ion type=[M]+*
computed spectral entropy=2.1596401607353637
computed normalized entropy=0.6887718528593718
SPLASH=splash10-057i-9000000000-8f67579ff6f9ff36070f
submitter=submitter = University of Tokyo Team (Faculty of Engineering, University of Tokyo)
MoNA Rating=3.75

>  <NUM PEAKS>  (4265) 
23

>  <MASS SPECTRAL PEAKS>  (4265) 
13 1.11
14 3.64
15 7.58
26 3.13
27 20.51
28 64.95
29 99.09
30 99.99
31 8.28
32 4.24
33 1.01
37 2.83
38 2.03
39 5.15
40 1.41
41 3.84
42 2.73
43 1.11
53 1.62
55 2.73
57 22.25
58 78.69
59 4.75

$$$$

     RDKit          2D

 14 13  0  0  0  0  0  0  0  0999 V2000
    3.8971    6.0000    0.0000 C   0  0  0  0  0  0  0  0  0  0  0  0
  -10.3923    6.7500    0.0000 C   0  0  0  0  0  0  0  0  0  0  0  0
    2.5981    6.7500    0.0000 C   0  0  0  0  0  0  0  0  0  0  0  0
   -9.0933    6.0000    0.0000 C   0  0  0  0  0  0  0  0  0  0  0  0
    1.2990    6.0000    0.0000 C   0  0  0  0  0  0  0  0  0  0  0  0
   -7.7942    6.7500    0.0000 C   0  0  0  0  0  0  0  0  0  0  0  0
    0.0000    6.7500    0.0000 C   0  0  0  0  0  0  0  0  0  0  0  0
   -6.4952    6.0000    0.0000 C   0  0  0  0  0  0  0  0  0  0  0  0
   -2.5981    6.7500    0.0000 C   0  0  0  0  0  0  0  0  0  0  0  0
   -3.8971    6.0000    0.0000 C   0  0  0  0  0  0  0  0  0  0  0  0
   -2.5981    8.2500    0.0000 O   0  0  0  0  0  0  0  0  0  0  0  0
   -3.8971    4.5000    0.0000 O   0  0  0  0  0  0  0  0  0  0  0  0
   -1.2990    6.0000    0.0000 O   0  0  0  0  0  0  0  0  0  0  0  0
   -5.1962    6.7500    0.0000 O   0  0  0  0  0  0  0  0  0  0  0  0
  3  1  1  0
  4  2  1  0
  5  3  1  0
  6  4  1  0
  7  5  1  0
  8  6  1  0
 10  9  1  0
 11  9  2  0
 12 10  2  0
 13  7  1  0
 13  9  1  0
 14  8  1  0
 14 10  1  0
M  END
>  <NAME>  (4266) 
DIBUTYL OXALATE

>  <SYNONYMS>  (4266) 


>  <SPECTRUM TYPE>  (4266) 
MS1

>  <INSTRUMENT TYPE>  (4266) 
EI-B

>  <INSTRUMENT>  (4266) 
HITACHI RMU-6M

>  <ION MODE>  (4266) 
P

>  <INCHIKEY>  (4266) 
JKRZOJADNVOXPM-UHFFFAOYSA-N

>  <FORMULA>  (4266) 
C10H18O4

>  <EXACT MASS>  (4266) 
202.120509056

>  <MW>  (4266) 
202

>  <ID>  (4266) 
JP005868

>  <CONTRIBUTOR>  (4266) 
University of Tokyo Team, {Faculty of Engineering, University of Tokyo

>  <COMMENT>  (4266) 
SMILES=CCCCOC(=O)C(=O)OCCCC
InChI=InChI=1S/C10H18O4/c1-3-5-7-13-9(11)10(12)14-8-6-4-2/h3-8H2,1-2H3
computed SMILES=O=C(OCCCC)C(=O)OCCCC
accession=JP005868
date=2016.01.19 (Created 2008.10.21, modified 2011.05.06)
author=YAMAMOTO M, DEP. CHEMISTRY, FAC. SCIENCE, NARA WOMEN'S UNIV.
license=CC BY-NC-SA
exact mass=202.12051
ionization energy=70 eV
ion type=[M]+*
computed spectral entropy=1.8217191700085558
computed normalized entropy=0.6727050958165743
SPLASH=splash10-0a4i-9000000000-435ac582c9d39d071d47
submitter=submitter = University of Tokyo Team (Faculty of Engineering, University of Tokyo)
MoNA Rating=3.75

>  <NUM PEAKS>  (4266) 
15

>  <MASS SPECTRAL PEAKS>  (4266) 
27 8.22
28 4.22
29 41.56
31 1.33
39 4.44
41 37.78
42 2.22
43 2.67
55 5.56
56 21.78
57 99.99
58 4.44
101 1.11
102 2.22
147 1.33

$$$$

     RDKit          2D

 10  9  0  0  0  0  0  0  0  0999 V2000
   -6.4952    4.5000    0.0000 C   0  0  0  0  0  0  0  0  0  0  0  0
    2.5981    3.7500    0.0000 C   0  0  0  0  0  0  0  0  0  0  0  0
   -5.1962    3.7500    0.0000 C   0  0  0  0  0  0  0  0  0  0  0  0
    1.2990    4.5000    0.0000 C   0  0  0  0  0  0  0  0  0  0  0  0
   -2.5981    3.7500    0.0000 C   0  0  0  0  0  0  0  0  0  0  0  0
   -1.2990    4.5000    0.0000 C   0  0  0  0  0  0  0  0  0  0  0  0
   -2.5981    2.2500    0.0000 O   0  0  0  0  0  0  0  0  0  0  0  0
   -1.2990    6.0000    0.0000 O   0  0  0  0  0  0  0  0  0  0  0  0
   -3.8971    4.5000    0.0000 O   0  0  0  0  0  0  0  0  0  0  0  0
    0.0000    3.7500    0.0000 O   0  0  0  0  0  0  0  0  0  0  0  0
  3  1  1  0
  4  2  1  0
  6  5  1  0
  7  5  2  0
  8  6  2  0
  9  3  1  0
  9  5  1  0
 10  4  1  0
 10  6  1  0
M  END
>  <NAME>  (4267) 
DIETHYL OXALATE

>  <SYNONYMS>  (4267) 


>  <SPECTRUM TYPE>  (4267) 
MS1

>  <INSTRUMENT TYPE>  (4267) 
EI-B

>  <INSTRUMENT>  (4267) 
HITACHI RMU-6M

>  <ION MODE>  (4267) 
P

>  <INCHIKEY>  (4267) 
WYACBZDAHNBPPB-UHFFFAOYSA-N

>  <FORMULA>  (4267) 
C6H10O4

>  <EXACT MASS>  (4267) 
146.0579088

>  <MW>  (4267) 
146

>  <ID>  (4267) 
JP005867

>  <CONTRIBUTOR>  (4267) 
University of Tokyo Team, {Faculty of Engineering, University of Tokyo

>  <COMMENT>  (4267) 
SMILES=CCOC(=O)C(=O)OCC
InChI=InChI=1S/C6H10O4/c1-3-9-5(7)6(8)10-4-2/h3-4H2,1-2H3
computed SMILES=O=C(OCC)C(=O)OCC
accession=JP005867
date=2016.01.19 (Created 2008.10.21, modified 2011.05.06)
author=YAMAMOTO M, DEP. CHEMISTRY, FAC. SCIENCE, NARA WOMEN'S UNIV.
license=CC BY-NC-SA
exact mass=146.05791
ionization energy=70 eV
ion type=[M]+*
computed spectral entropy=1.696170697946768
computed normalized entropy=0.6117642636072435
SPLASH=splash10-004i-9000000000-a3ebbf24365dbe4362f0
submitter=submitter = University of Tokyo Team (Faculty of Engineering, University of Tokyo)
MoNA Rating=3.75

>  <NUM PEAKS>  (4267) 
16

>  <MASS SPECTRAL PEAKS>  (4267) 
15 2.75
26 1.9
27 15.65
28 9.3
29 99.99
30 3.17
31 14.17
43 2.33
45 11.42
56 1.06
57 1.69
59 1.48
73 2.33
74 8.88
75 2.11
146 0.42

$$$$

     RDKit          2D

  8  7  0  0  0  0  0  0  0  0999 V2000
    1.6740    0.1005    0.0000 C   0  0  0  0  0  0  0  0  0  0  0  0
   -0.9240    1.6005    0.0000 C   0  0  0  0  0  0  0  0  0  0  0  0
    2.4240    1.3995    0.0000 C   0  0  0  0  0  0  0  0  0  0  0  0
    1.8750    3.4486    0.0000 C   0  0  0  0  0  0  0  0  0  0  0  0
    0.3750    0.8505    0.0000 C   0  0  0  0  0  0  0  0  0  0  0  0
    1.1250    2.1495    0.0000 C   0  0  0  0  0  0  0  0  0  0  0  0
   -0.3750   -0.4486    0.0000 O   0  0  0  0  0  0  0  0  0  0  0  0
   -0.1740    2.8995    0.0000 O   0  0  0  0  0  0  0  0  0  0  0  0
  5  1  1  0
  5  2  1  0
  6  3  1  0
  6  4  1  0
  6  5  1  0
  7  5  1  0
  8  6  1  0
M  END
>  <NAME>  (4268) 
PINACOL

>  <SYNONYMS>  (4268) 
2,3-DIMETHYL-2,3-BUTANEDIOL

>  <SPECTRUM TYPE>  (4268) 
MS1

>  <INSTRUMENT TYPE>  (4268) 
EI-B

>  <INSTRUMENT>  (4268) 
HITACHI RMU-6M

>  <ION MODE>  (4268) 
P

>  <INCHIKEY>  (4268) 
IVDFJHOHABJVEH-UHFFFAOYSA-N

>  <FORMULA>  (4268) 
C6H14O2

>  <EXACT MASS>  (4268) 
118.099379688

>  <MW>  (4268) 
118

>  <ID>  (4268) 
JP005866

>  <CONTRIBUTOR>  (4268) 
University of Tokyo Team, {Faculty of Engineering, University of Tokyo

>  <COMMENT>  (4268) 
SMILES=CC(C)(O)C(C)(C)O
InChI=InChI=1S/C6H14O2/c1-5(2,7)6(3,4)8/h7-8H,1-4H3
computed SMILES=OC(C)(C)C(O)(C)C
accession=JP005866
date=2016.01.19 (Created 2008.10.21, modified 2011.05.06)
author=YAMAMOTO M, DEP. CHEMISTRY, FAC. SCIENCE, NARA WOMEN'S UNIV.
license=CC BY-NC-SA
exact mass=118.09938
ionization energy=70 eV
ion type=[M]+*
computed spectral entropy=1.8514123675508751
computed normalized entropy=0.6405447197209247
SPLASH=splash10-0a4i-9000000000-874aa51cd54649697601
submitter=submitter = University of Tokyo Team (Faculty of Engineering, University of Tokyo)
MoNA Rating=3.75

>  <NUM PEAKS>  (4268) 
18

>  <MASS SPECTRAL PEAKS>  (4268) 
15 2.98
27 2.19
28 2.98
29 2.98
31 10.54
39 3.18
41 9.34
42 1.99
43 15.11
55 1.19
57 11.33
58 2.39
59 99.99
60 3.18
83 1.79
85 10.93
101 1.19
103 2.58

$$$$

     RDKit          2D

 10 10  0  0  0  0  0  0  0  0999 V2000
    5.1970    1.5006    0.0000 C   0  0  0  0  0  0  0  0  0  0  0  0
    3.8981    0.7504    0.0000 C   0  0  0  0  0  0  0  0  0  0  0  0
   -1.3000    0.7500    0.0000 C   0  0  0  0  0  0  0  0  0  0  0  0
   -0.0000   -1.5000    0.0000 C   0  0  0  0  0  0  0  0  0  0  0  0
    0.0000    1.5000    0.0000 C   0  0  0  0  0  0  0  0  0  0  0  0
    1.3000   -0.7500    0.0000 C   0  0  0  0  0  0  0  0  0  0  0  0
   -1.3000   -0.7500    0.0000 C   0  0  0  0  0  0  0  0  0  0  0  0
    1.3000    0.7500    0.0000 C   0  0  0  0  0  0  0  0  0  0  0  0
   -2.5989   -1.5002    0.0000 N   0  0  0  0  0  0  0  0  0  0  0  0
    2.5989    1.5002    0.0000 O   0  0  0  0  0  0  0  0  0  0  0  0
  2  1  1  0
  5  3  2  0
  6  4  1  0
  7  3  1  0
  7  4  2  0
  8  5  1  0
  8  6  2  0
  9  7  1  0
 10  2  1  0
 10  8  1  0
M  END
>  <NAME>  (4269) 
PARA-PHENETIDINE

>  <SYNONYMS>  (4269) 
4-AMINOPHENETOL

>  <SPECTRUM TYPE>  (4269) 
MS1

>  <INSTRUMENT TYPE>  (4269) 
EI-B

>  <INSTRUMENT>  (4269) 
HITACHI RMU-6M

>  <ION MODE>  (4269) 
P

>  <INCHIKEY>  (4269) 
IMPPGHMHELILKG-UHFFFAOYSA-N

>  <FORMULA>  (4269) 
C8H11NO

>  <EXACT MASS>  (4269) 
137.084063972

>  <MW>  (4269) 
137

>  <ID>  (4269) 
JP005865

>  <CONTRIBUTOR>  (4269) 
University of Tokyo Team, {Faculty of Engineering, University of Tokyo

>  <COMMENT>  (4269) 
SMILES=CCOc(c1)ccc(N)c1
InChI=InChI=1S/C8H11NO/c1-2-10-8-5-3-7(9)4-6-8/h3-6H,2,9H2,1H3
computed SMILES=O(C1=CC=C(N)C=C1)CC
accession=JP005865
date=2016.01.19 (Created 2008.10.21, modified 2011.05.06)
author=YAMAMOTO M, DEP. CHEMISTRY, FAC. SCIENCE, NARA WOMEN'S UNIV.
license=CC BY-NC-SA
exact mass=137.08406
ionization energy=70 eV
ion type=[M]+*
computed spectral entropy=2.436956640334301
computed normalized entropy=0.7031570519743451
SPLASH=splash10-0a4i-4900000000-a69b6fc77ec780acbebe
submitter=submitter = University of Tokyo Team (Faculty of Engineering, University of Tokyo)
MoNA Rating=3.75

>  <NUM PEAKS>  (4269) 
32

>  <MASS SPECTRAL PEAKS>  (4269) 
26 2.5
27 8.75
28 6.56
29 3.75
30 1.88
38 1.56
39 7.19
41 2.5
50 1.25
51 2.81
52 8.75
53 13.13
54 4.38
61 1.88
62 1.25
63 2.81
64 2.5
65 8.13
66 1.56
78 1.25
79 1.88
80 34.06
81 6.56
82 1.56
91 1.25
92 3.13
108 99.99
109 65.94
110 4.69
136 1.25
137 70.94
138 6.56

$$$$

     RDKit          2D

 10 10  0  0  0  0  0  0  0  0999 V2000
   -3.5811    1.3103    0.0000 C   0  0  0  0  0  0  0  0  0  0  0  0
   -2.2809    0.5625    0.0000 C   0  0  0  0  0  0  0  0  0  0  0  0
    2.9153   -0.9332    0.0000 C   0  0  0  0  0  0  0  0  0  0  0  0
    1.6208   -1.6754    0.0000 C   0  0  0  0  0  0  0  0  0  0  0  0
    2.9158    0.5676    0.0000 C   0  0  0  0  0  0  0  0  0  0  0  0
    0.3217   -0.9254    0.0000 C   0  0  0  0  0  0  0  0  0  0  0  0
    1.6167    1.3176    0.0000 C   0  0  0  0  0  0  0  0  0  0  0  0
    0.3172    0.5668    0.0000 C   0  0  0  0  0  0  0  0  0  0  0  0
    1.6165    2.8176    0.0000 N   0  0  0  0  0  0  0  0  0  0  0  0
   -0.9831    1.3146    0.0000 O   0  0  0  0  0  0  0  0  0  0  0  0
  2  1  1  0
  4  3  2  0
  5  3  1  0
  6  4  1  0
  7  5  2  0
  8  6  2  0
  8  7  1  0
  9  7  1  0
 10  2  1  0
 10  8  1  0
M  END
>  <NAME>  (4270) 
ORTHO-PHENETIDINE

>  <SYNONYMS>  (4270) 
2-AMINOPHENETOL

>  <SPECTRUM TYPE>  (4270) 
MS1

>  <INSTRUMENT TYPE>  (4270) 
EI-B

>  <INSTRUMENT>  (4270) 
HITACHI RMU-6M

>  <ION MODE>  (4270) 
P

>  <INCHIKEY>  (4270) 
ULHFFAFDSSHFDA-UHFFFAOYSA-N

>  <FORMULA>  (4270) 
C8H11NO

>  <EXACT MASS>  (4270) 
137.084063972

>  <MW>  (4270) 
137

>  <ID>  (4270) 
JP005864

>  <CONTRIBUTOR>  (4270) 
University of Tokyo Team, {Faculty of Engineering, University of Tokyo

>  <COMMENT>  (4270) 
SMILES=CCOc(c1)c(N)ccc1
InChI=InChI=1S/C8H11NO/c1-2-10-8-6-4-3-5-7(8)9/h3-6H,2,9H2,1H3
computed SMILES=O(C=1C=CC=CC1N)CC
accession=JP005864
date=2016.01.19 (Created 2008.10.21, modified 2011.05.06)
author=YAMAMOTO M, DEP. CHEMISTRY, FAC. SCIENCE, NARA WOMEN'S UNIV.
license=CC BY-NC-SA
exact mass=137.08406
ionization energy=70 eV
ion type=[M]+*
computed spectral entropy=2.602802863173954
computed normalized entropy=0.7208147418859373
SPLASH=splash10-0a4i-7900000000-c61614886173dc01579a
submitter=submitter = University of Tokyo Team (Faculty of Engineering, University of Tokyo)
MoNA Rating=3.75

>  <NUM PEAKS>  (4270) 
37

>  <MASS SPECTRAL PEAKS>  (4270) 
15 1.04
26 2.35
27 12.27
28 7.31
29 4.44
30 1.83
38 2.35
39 8.88
40 1.57
41 3.39
42 1.83
50 3.13
51 6.01
52 10.71
53 17.23
54 4.18
62 1.04
63 3.66
64 3.39
65 10.97
66 2.09
77 1.04
78 2.61
79 2.61
80 69.71
81 6.53
91 2.61
92 6.27
93 2.61
94 1.57
108 99.99
109 65.54
110 4.44
122 1.83
136 1.04
137 74.15
138 7.05

$$$$

     RDKit          2D

  9  9  0  0  0  0  0  0  0  0999 V2000
   -2.9228    0.8825    0.0000 C   0  0  0  0  0  0  0  0  0  0  0  0
    2.2733   -0.6175    0.0000 C   0  0  0  0  0  0  0  0  0  0  0  0
    2.2738    0.8833    0.0000 C   0  0  0  0  0  0  0  0  0  0  0  0
    0.9738   -1.3683    0.0000 C   0  0  0  0  0  0  0  0  0  0  0  0
    0.9748    1.6333    0.0000 C   0  0  0  0  0  0  0  0  0  0  0  0
   -0.3252   -0.6183    0.0000 C   0  0  0  0  0  0  0  0  0  0  0  0
   -1.6238    1.6325    0.0000 C   0  0  0  0  0  0  0  0  0  0  0  0
   -0.3248    0.8825    0.0000 C   0  0  0  0  0  0  0  0  0  0  0  0
   -1.6238    3.1325    0.0000 N   0  0  0  0  0  0  0  0  0  0  0  0
  3  2  2  0
  4  2  1  0
  5  3  1  0
  6  4  2  0
  7  1  1  0
  8  5  2  0
  8  6  1  0
  8  7  1  0
  9  7  1  0
M  END
>  <NAME>  (4271) 
ALPHA-PHENYLETHYLAMINE

>  <SYNONYMS>  (4271) 


>  <SPECTRUM TYPE>  (4271) 
MS1

>  <INSTRUMENT TYPE>  (4271) 
EI-B

>  <INSTRUMENT>  (4271) 
HITACHI RMU-6M

>  <ION MODE>  (4271) 
P

>  <INCHIKEY>  (4271) 
RQEUFEKYXDPUSK-UHFFFAOYSA-N

>  <FORMULA>  (4271) 
C8H11N

>  <EXACT MASS>  (4271) 
121.08914935199999

>  <MW>  (4271) 
121

>  <ID>  (4271) 
JP005863

>  <CONTRIBUTOR>  (4271) 
University of Tokyo Team, {Faculty of Engineering, University of Tokyo

>  <COMMENT>  (4271) 
SMILES=CC(N)c(c1)cccc1
InChI=InChI=1S/C8H11N/c1-7(9)8-5-3-2-4-6-8/h2-7H,9H2,1H3
computed SMILES=NC(C=1C=CC=CC1)C
accession=JP005863
date=2016.01.19 (Created 2008.10.21, modified 2011.05.06)
author=YAMAMOTO M, DEP. CHEMISTRY, FAC. SCIENCE, NARA WOMEN'S UNIV.
license=CC BY-NC-SA
exact mass=121.08915
ionization energy=70 eV
ion type=[M]+*
computed spectral entropy=2.577892092987286
computed normalized entropy=0.75069938805255
SPLASH=splash10-0a6r-9700000000-2e29a83dd23d9c59dd09
submitter=submitter = University of Tokyo Team (Faculty of Engineering, University of Tokyo)
MoNA Rating=3.75

>  <NUM PEAKS>  (4271) 
31

>  <MASS SPECTRAL PEAKS>  (4271) 
15 1.66
27 2.29
28 15.59
30 3.12
39 3.95
41 1.25
43 13.51
44 7.28
45 17.67
50 4.16
51 9.36
52 3.12
53 8.94
59.5 1.46
63 1.87
65 1.66
74 1.46
75 1.04
76 1.23
77 12.89
78 5.41
79 24.12
80 2.08
91 1.66
103 2.7
104 4.57
105 3.74
106 99.99
107 8.32
120 6.86
121 2.7

$$$$

     RDKit          2D

  9  9  0  0  0  0  0  0  0  0999 V2000
    2.9228   -0.2425    0.0000 C   0  0  0  0  0  0  0  0  0  0  0  0
    2.9233    1.2583    0.0000 C   0  0  0  0  0  0  0  0  0  0  0  0
    1.6233   -0.9933    0.0000 C   0  0  0  0  0  0  0  0  0  0  0  0
    1.6243    2.0083    0.0000 C   0  0  0  0  0  0  0  0  0  0  0  0
    0.3243   -0.2433    0.0000 C   0  0  0  0  0  0  0  0  0  0  0  0
   -0.9743    2.0075    0.0000 C   0  0  0  0  0  0  0  0  0  0  0  0
   -2.2733    1.2575    0.0000 C   0  0  0  0  0  0  0  0  0  0  0  0
    0.3248    1.2575    0.0000 C   0  0  0  0  0  0  0  0  0  0  0  0
   -3.5724    2.0075    0.0000 N   0  0  0  0  0  0  0  0  0  0  0  0
  2  1  2  0
  3  1  1  0
  4  2  1  0
  5  3  2  0
  7  6  1  0
  8  4  2  0
  8  5  1  0
  8  6  1  0
  9  7  1  0
M  END
>  <NAME>  (4272) 
BETA-PHENYLETHYLAMINE

>  <SYNONYMS>  (4272) 


>  <SPECTRUM TYPE>  (4272) 
MS1

>  <INSTRUMENT TYPE>  (4272) 
EI-B

>  <INSTRUMENT>  (4272) 
HITACHI RMU-6M

>  <ION MODE>  (4272) 
P

>  <INCHIKEY>  (4272) 
BHHGXPLMPWCGHP-UHFFFAOYSA-N

>  <FORMULA>  (4272) 
C8H11N

>  <EXACT MASS>  (4272) 
121.08914935199999

>  <MW>  (4272) 
121

>  <ID>  (4272) 
JP005862

>  <CONTRIBUTOR>  (4272) 
University of Tokyo Team, {Faculty of Engineering, University of Tokyo

>  <COMMENT>  (4272) 
SMILES=NCCc(c1)cccc1
InChI=InChI=1S/C8H11N/c9-7-6-8-4-2-1-3-5-8/h1-5H,6-7,9H2
computed SMILES=NCCC=1C=CC=CC1
accession=JP005862
date=2016.01.19 (Created 2008.10.21, modified 2011.05.06)
author=YAMAMOTO M, DEP. CHEMISTRY, FAC. SCIENCE, NARA WOMEN'S UNIV.
license=CC BY-NC-SA
exact mass=121.08915
ionization energy=70 eV
ion type=[M]+*
computed spectral entropy=1.339497657657624
computed normalized entropy=0.507566714305864
SPLASH=splash10-001i-9000000000-94774bbd6283b4a26a51
submitter=submitter = University of Tokyo Team (Faculty of Engineering, University of Tokyo)
MoNA Rating=3.75

>  <NUM PEAKS>  (4272) 
14

>  <MASS SPECTRAL PEAKS>  (4272) 
28 3.39
30 99.99
31 1.69
39 3.81
50 1.27
51 2.33
63 2.12
65 4.87
77 1.91
89 1.27
91 10.8
92 4.24
103 1.48
121 5.3

$$$$

     RDKit          2D

  7  7  0  0  0  0  0  0  0  0999 V2000
   -0.0000   -1.9300    0.0000 C   0  0  0  0  0  0  0  0  0  0  0  0
   -1.3000    0.3200    0.0000 C   0  0  0  0  0  0  0  0  0  0  0  0
    1.3000    0.3200    0.0000 C   0  0  0  0  0  0  0  0  0  0  0  0
   -1.3000    1.8200    0.0000 C   0  0  0  0  0  0  0  0  0  0  0  0
    1.3000    1.8200    0.0000 C   0  0  0  0  0  0  0  0  0  0  0  0
   -0.0000   -0.4300    0.0000 C   0  0  0  0  0  0  0  0  0  0  0  0
    0.0000    2.5700    0.0000 N   0  0  0  0  0  0  0  0  0  0  0  0
  4  2  1  0
  5  3  1  0
  6  1  1  0
  6  2  1  0
  6  3  1  0
  7  4  1  0
  7  5  1  0
M  END
>  <NAME>  (4273) 
4-PIPECOLINE

>  <SYNONYMS>  (4273) 
4-METHYLPIPERIDINE

>  <SPECTRUM TYPE>  (4273) 
MS1

>  <INSTRUMENT TYPE>  (4273) 
EI-B

>  <INSTRUMENT>  (4273) 
HITACHI RMU-6M

>  <ION MODE>  (4273) 
P

>  <INCHIKEY>  (4273) 
UZOFELREXGAFOI-UHFFFAOYSA-N

>  <FORMULA>  (4273) 
C6H13N

>  <EXACT MASS>  (4273) 
99.10479941599999

>  <MW>  (4273) 
99

>  <ID>  (4273) 
JP005861

>  <CONTRIBUTOR>  (4273) 
University of Tokyo Team, {Faculty of Engineering, University of Tokyo

>  <COMMENT>  (4273) 
SMILES=CC(C1)CCNC1
InChI=InChI=1S/C6H13N/c1-6-2-4-7-5-3-6/h6-7H,2-5H2,1H3
computed SMILES=N1CCC(C)CC1
license=CC BY-NC-SA
accession=JP005861
date=2016.01.19 (Created 2008.10.21, modified 2011.05.06)
author=YAMAMOTO M, DEP. CHEMISTRY, FAC. SCIENCE, NARA WOMEN'S UNIV.
exact mass=99.1048
ionization energy=70 eV
ion type=[M]+*
computed spectral entropy=2.874194356139971
computed normalized entropy=0.808414339870822
SPLASH=splash10-0535-9000000000-5ce0aa47572df9a11a8b
submitter=submitter = University of Tokyo Team (Faculty of Engineering, University of Tokyo)
MoNA Rating=3.75

>  <NUM PEAKS>  (4273) 
35

>  <MASS SPECTRAL PEAKS>  (4273) 
15 4.2
26 2.25
27 17.97
28 29
29 22.75
30 57.91
38 1.76
39 14.55
40 2.54
41 21.68
42 36.23
43 31.35
44 56.25
45 1.76
50 1.17
51 1.86
52 1.37
53 3.81
54 2.93
55 17.09
56 68.46
57 48.73
58 2.34
67 2.25
68 2.54
69 3.61
70 7.52
71 5.08
80 1.76
82 2.73
84 24.61
85 1.37
98 99.99
99 58.89
100 4.1

$$$$

     RDKit          2D

  7  7  0  0  0  0  0  0  0  0999 V2000
    2.2289    1.2902    0.0000 C   0  0  0  0  0  0  0  0  0  0  0  0
   -1.6700    0.5400    0.0000 C   0  0  0  0  0  0  0  0  0  0  0  0
   -0.3700    1.2900    0.0000 C   0  0  0  0  0  0  0  0  0  0  0  0
   -1.6700   -0.9600    0.0000 C   0  0  0  0  0  0  0  0  0  0  0  0
    0.9300   -0.9600    0.0000 C   0  0  0  0  0  0  0  0  0  0  0  0
    0.9300    0.5400    0.0000 C   0  0  0  0  0  0  0  0  0  0  0  0
   -0.3700   -1.7100    0.0000 N   0  0  0  0  0  0  0  0  0  0  0  0
  3  2  1  0
  4  2  1  0
  6  1  1  0
  6  3  1  0
  6  5  1  0
  7  4  1  0
  7  5  1  0
M  END
>  <NAME>  (4274) 
3-PIPECOLINE

>  <SYNONYMS>  (4274) 
3-METHYLPIPERIDINE

>  <SPECTRUM TYPE>  (4274) 
MS1

>  <INSTRUMENT TYPE>  (4274) 
EI-B

>  <INSTRUMENT>  (4274) 
HITACHI RMU-6M

>  <ION MODE>  (4274) 
P

>  <INCHIKEY>  (4274) 
JEGMWWXJUXDNJN-UHFFFAOYSA-N

>  <FORMULA>  (4274) 
C6H13N

>  <EXACT MASS>  (4274) 
99.10479941599999

>  <MW>  (4274) 
99

>  <ID>  (4274) 
JP005860

>  <CONTRIBUTOR>  (4274) 
University of Tokyo Team, {Faculty of Engineering, University of Tokyo

>  <COMMENT>  (4274) 
SMILES=CC(C1)CNCC1
InChI=InChI=1S/C6H13N/c1-6-3-2-4-7-5-6/h6-7H,2-5H2,1H3
computed SMILES=N1CCCC(C)C1
accession=JP005860
date=2016.01.19 (Created 2008.10.21, modified 2011.05.06)
author=YAMAMOTO M, DEP. CHEMISTRY, FAC. SCIENCE, NARA WOMEN'S UNIV.
license=CC BY-NC-SA
exact mass=99.1048
ionization energy=70 eV
ion type=[M]+*
computed spectral entropy=3.097023060150598
computed normalized entropy=0.8234135288968822
SPLASH=splash10-0537-9000000000-ad2920f02ceaf8cd18dd
submitter=submitter = University of Tokyo Team (Faculty of Engineering, University of Tokyo)
MoNA Rating=3.75

>  <NUM PEAKS>  (4274) 
43

>  <MASS SPECTRAL PEAKS>  (4274) 
15 3.97
26 1.99
27 14.24
28 22.85
29 16.56
30 50.99
31 1.32
38 2.32
39 20.86
40 4.3
41 26.16
42 30.13
43 22.52
44 99.99
45 2.65
50 1.32
51 2.32
53 3.64
54 3.64
55 8.94
56 37.75
57 43.38
58 4.3
63 1.66
65 3.64
66 5.63
67 3.31
68 3.97
69 4.3
70 21.19
71 7.95
80 1.32
81 1.99
82 2.98
83 1.32
84 41.72
85 2.65
92 3.97
93 13.91
94 1.33
98 50.99
99 50
100 3.97

$$$$

     RDKit          2D

  7  7  0  0  0  0  0  0  0  0999 V2000
    2.2289    1.2902    0.0000 C   0  0  0  0  0  0  0  0  0  0  0  0
   -0.3700   -1.7100    0.0000 C   0  0  0  0  0  0  0  0  0  0  0  0
   -1.6700   -0.9600    0.0000 C   0  0  0  0  0  0  0  0  0  0  0  0
    0.9300   -0.9600    0.0000 C   0  0  0  0  0  0  0  0  0  0  0  0
   -1.6700    0.5400    0.0000 C   0  0  0  0  0  0  0  0  0  0  0  0
    0.9300    0.5400    0.0000 C   0  0  0  0  0  0  0  0  0  0  0  0
   -0.3700    1.2900    0.0000 N   0  0  0  0  0  0  0  0  0  0  0  0
  3  2  1  0
  4  2  1  0
  5  3  1  0
  6  1  1  0
  6  4  1  0
  7  5  1  0
  7  6  1  0
M  END
>  <NAME>  (4275) 
2-PIPECOLINE

>  <SYNONYMS>  (4275) 
2-METHYLPIPERIDINE

>  <SPECTRUM TYPE>  (4275) 
MS1

>  <INSTRUMENT TYPE>  (4275) 
EI-B

>  <INSTRUMENT>  (4275) 
HITACHI RMU-6M

>  <ION MODE>  (4275) 
P

>  <INCHIKEY>  (4275) 
NNWUEBIEOFQMSS-UHFFFAOYSA-N

>  <FORMULA>  (4275) 
C6H13N

>  <EXACT MASS>  (4275) 
99.10479941599999

>  <MW>  (4275) 
99

>  <ID>  (4275) 
JP005859

>  <CONTRIBUTOR>  (4275) 
University of Tokyo Team, {Faculty of Engineering, University of Tokyo

>  <COMMENT>  (4275) 
SMILES=CC(C1)NCCC1
InChI=InChI=1S/C6H13N/c1-6-4-2-3-5-7-6/h6-7H,2-5H2,1H3
computed SMILES=N1CCCCC1C
accession=JP005859
date=2016.01.19 (Created 2008.10.21, modified 2011.05.06)
author=YAMAMOTO M, DEP. CHEMISTRY, FAC. SCIENCE, NARA WOMEN'S UNIV.
license=CC BY-NC-SA
exact mass=99.1048
ionization energy=70 eV
ion type=[M]+*
computed spectral entropy=2.7159025583038625
computed normalized entropy=0.8065530014078899
SPLASH=splash10-001i-9000000000-1da129fe173c45ef9d0d
submitter=submitter = University of Tokyo Team (Faculty of Engineering, University of Tokyo)
MoNA Rating=3.75

>  <NUM PEAKS>  (4275) 
29

>  <MASS SPECTRAL PEAKS>  (4275) 
15 3.09
26 1.1
27 9.27
28 17.88
29 5.52
30 17
39 7.73
40 1.32
41 10.6
42 25.39
43 16.34
44 9.27
53 2.43
54 2.21
55 7.51
56 33.55
57 10.82
58 3.75
67 1.55
68 1.77
69 1.77
70 13.02
71 8.17
82 1.77
84 99.99
85 5.96
98 11.26
99 15.67
100 1.1

$$$$

     RDKit          2D

  6  6  0  0  0  0  0  0  0  0999 V2000
    0.0000    1.5000    0.0000 C   0  0  0  0  0  0  0  0  0  0  0  0
   -1.3000    0.7500    0.0000 C   0  0  0  0  0  0  0  0  0  0  0  0
    1.3000    0.7500    0.0000 C   0  0  0  0  0  0  0  0  0  0  0  0
   -1.3000   -0.7500    0.0000 C   0  0  0  0  0  0  0  0  0  0  0  0
    1.3000   -0.7500    0.0000 C   0  0  0  0  0  0  0  0  0  0  0  0
   -0.0000   -1.5000    0.0000 N   0  0  0  0  0  0  0  0  0  0  0  0
  2  1  1  0
  3  1  1  0
  4  2  1  0
  5  3  1  0
  6  4  1  0
  6  5  1  0
M  END
>  <NAME>  (4276) 
PIPERIDINE

>  <SYNONYMS>  (4276) 
HEXAHYDROPYRIDINE

>  <SPECTRUM TYPE>  (4276) 
MS1

>  <INSTRUMENT TYPE>  (4276) 
EI-B

>  <INSTRUMENT>  (4276) 
HITACHI RMU-6M

>  <ION MODE>  (4276) 
P

>  <INCHIKEY>  (4276) 
NQRYJNQNLNOLGT-UHFFFAOYSA-N

>  <FORMULA>  (4276) 
C5H11N

>  <EXACT MASS>  (4276) 
85.08914935199999

>  <MW>  (4276) 
85

>  <ID>  (4276) 
JP005858

>  <CONTRIBUTOR>  (4276) 
University of Tokyo Team, {Faculty of Engineering, University of Tokyo

>  <COMMENT>  (4276) 
SMILES=C(C1)CCNC1
InChI=InChI=1S/C5H11N/c1-2-4-6-5-3-1/h6H,1-5H2
computed SMILES=N1CCCCC1
accession=JP005858
date=2016.01.19 (Created 2008.10.21, modified 2011.05.06)
author=YAMAMOTO M, DEP. CHEMISTRY, FAC. SCIENCE, NARA WOMEN'S UNIV.
license=CC BY-NC-SA
exact mass=85.08915
ionization energy=70 eV
ion type=[M]+*
computed spectral entropy=2.7509135096691897
computed normalized entropy=0.7937458556628387
SPLASH=splash10-053u-9000000000-507e3f9eabf271f642f3
submitter=submitter = University of Tokyo Team (Faculty of Engineering, University of Tokyo)
MoNA Rating=3.75

>  <NUM PEAKS>  (4276) 
32

>  <MASS SPECTRAL PEAKS>  (4276) 
15 3.86
26 2.83
27 14.4
28 28.53
29 25.71
30 27.51
31 1.03
38 1.07
39 9.25
40 1.54
41 11.31
42 24.16
43 21.58
44 32.39
50 1.07
51 1.54
52 1.29
53 2.57
54 3.34
55 9.51
56 38.82
57 38.05
58 1.8
67 2.32
68 2.06
69 1.03
70 12.6
80 1.29
82 2.32
84 99.99
85 57.67
89 3.08

$$$$

     RDKit          2D

  4  3  0  0  0  0  0  0  0  0999 V2000
    1.2990    1.5000    0.0000 C   0  0  0  0  0  0  0  0  0  0  0  0
    0.0000    2.2500    0.0000 C   0  0  0  0  0  0  0  0  0  0  0  0
   -1.2990    3.0000    0.0000 C   0  0  0  0  0  0  0  0  0  0  0  0
   -2.5981    2.2500    0.0000 O   0  0  0  0  0  0  0  0  0  0  0  0
  2  1  3  0
  3  2  1  0
  4  3  1  0
M  END
>  <NAME>  (4277) 
PROPARGYL ALCOHOL

>  <SYNONYMS>  (4277) 


>  <SPECTRUM TYPE>  (4277) 
MS1

>  <INSTRUMENT TYPE>  (4277) 
EI-B

>  <INSTRUMENT>  (4277) 
HITACHI RMU-6M

>  <ION MODE>  (4277) 
P

>  <INCHIKEY>  (4277) 
TVDSBUOJIPERQY-UHFFFAOYSA-N

>  <FORMULA>  (4277) 
C3H4O

>  <EXACT MASS>  (4277) 
56.026214748

>  <MW>  (4277) 
56

>  <ID>  (4277) 
JP005857

>  <CONTRIBUTOR>  (4277) 
University of Tokyo Team, {Faculty of Engineering, University of Tokyo

>  <COMMENT>  (4277) 
SMILES=C#CCO
InChI=InChI=1S/C3H4O/c1-2-3-4/h1,4H,3H2
computed SMILES=C#CCO
accession=JP005857
date=2016.01.19 (Created 2008.10.21, modified 2011.05.06)
author=YAMAMOTO M, DEP. CHEMISTRY, FAC. SCIENCE, NARA WOMEN'S UNIV.
license=CC BY-NC-SA
exact mass=56.02621
ionization energy=70 eV
ion type=[M]+*
computed spectral entropy=2.0642989240524305
computed normalized entropy=0.7141984135476699
SPLASH=splash10-0a4i-9000000000-daffa67539f7b0864af6
submitter=submitter = University of Tokyo Team (Faculty of Engineering, University of Tokyo)
MoNA Rating=3.75

>  <NUM PEAKS>  (4277) 
18

>  <MASS SPECTRAL PEAKS>  (4277) 
24 1.64
25 4.74
26 8.21
27 16.61
28 18.43
29 14.78
30 2.37
31 1.82
36 2.19
37 8.21
38 11.68
39 24.45
40 1.09
52 1.09
53 7.48
54 1.64
55 99.99
56 3.47

$$$$

     RDKit          2D

  5  4  0  0  0  0  0  0  0  0999 V2000
   -0.0000   -0.0000    0.0000 C   0  0  0  0  0  0  0  0  0  0  0  0
   -1.2990    3.7500    0.0000 C   0  0  0  0  0  0  0  0  0  0  0  0
   -2.5981    1.5000    0.0000 C   0  0  0  0  0  0  0  0  0  0  0  0
    0.0000    1.5000    0.0000 C   0  0  0  0  0  0  0  0  0  0  0  0
   -1.2990    2.2500    0.0000 C   0  0  0  0  0  0  0  0  0  0  0  0
  4  1  1  0
  5  2  1  0
  5  3  1  0
  5  4  1  0
M  END
>  <NAME>  (4278) 
ISOPENTANE

>  <SYNONYMS>  (4278) 


>  <SPECTRUM TYPE>  (4278) 
MS1

>  <INSTRUMENT TYPE>  (4278) 
EI-B

>  <INSTRUMENT>  (4278) 
HITACHI RMU-6M

>  <ION MODE>  (4278) 
P

>  <INCHIKEY>  (4278) 
QWTDNUCVQCZILF-UHFFFAOYSA-N

>  <FORMULA>  (4278) 
C5H12

>  <EXACT MASS>  (4278) 
72.093900384

>  <MW>  (4278) 
72

>  <ID>  (4278) 
JP005856

>  <CONTRIBUTOR>  (4278) 
University of Tokyo Team, {Faculty of Engineering, University of Tokyo

>  <COMMENT>  (4278) 
SMILES=CCC(C)C
InChI=InChI=1S/C5H12/c1-4-5(2)3/h5H,4H2,1-3H3
computed SMILES=CCC(C)C
accession=JP005856
date=2016.01.19 (Created 2008.10.21, modified 2011.05.06)
author=YAMAMOTO M, DEP. CHEMISTRY, FAC. SCIENCE, NARA WOMEN'S UNIV.
license=CC BY-NC-SA
exact mass=72.0939
ionization energy=70 eV
ion type=[M]+*
computed spectral entropy=2.2869704090894456
computed normalized entropy=0.7398702682341769
SPLASH=splash10-0006-9000000000-64d36d01200dca2ea8e0
submitter=submitter = University of Tokyo Team (Faculty of Engineering, University of Tokyo)
MoNA Rating=3.75

>  <NUM PEAKS>  (4278) 
22

>  <MASS SPECTRAL PEAKS>  (4278) 
15 1.86
26 2.33
27 29.07
28 4.19
29 38.14
30 1.16
38 1.86
39 17.91
40 3.02
41 67.44
42 90.83
43 99.99
44 3.49
51 1.4
52 1.86
54 2.33
56 5.35
57 20.93
58 62.09
59 3.02
71 2.56
72 10.7

$$$$

     RDKit          2D

  5  4  0  0  0  0  0  0  0  0999 V2000
   -1.2990    2.2500    0.0000 C   0  0  0  0  0  0  0  0  0  0  0  0
   -2.5981    1.5000    0.0000 C   0  0  0  0  0  0  0  0  0  0  0  0
    0.0000    1.5000    0.0000 C   0  0  0  0  0  0  0  0  0  0  0  0
   -3.8971    2.2500    0.0000 O   0  0  0  0  0  0  0  0  0  0  0  0
    1.2990    2.2500    0.0000 O   0  0  0  0  0  0  0  0  0  0  0  0
  2  1  1  0
  3  1  1  0
  4  2  1  0
  5  3  1  0
M  END
>  <NAME>  (4279) 
TRIMETHYLENE GLYCOL

>  <SYNONYMS>  (4279) 


>  <SPECTRUM TYPE>  (4279) 
MS1

>  <INSTRUMENT TYPE>  (4279) 
EI-B

>  <INSTRUMENT>  (4279) 
HITACHI RMU-6M

>  <ION MODE>  (4279) 
P

>  <INCHIKEY>  (4279) 
YPFDHNVEDLHUCE-UHFFFAOYSA-N

>  <FORMULA>  (4279) 
C3H8O2

>  <EXACT MASS>  (4279) 
76.052429496

>  <MW>  (4279) 
76

>  <ID>  (4279) 
JP005855

>  <CONTRIBUTOR>  (4279) 
University of Tokyo Team, {Faculty of Engineering, University of Tokyo

>  <COMMENT>  (4279) 
SMILES=OCCCO
InChI=InChI=1S/C3H8O2/c4-2-1-3-5/h4-5H,1-3H2
computed SMILES=OCCCO
accession=JP005855
date=2016.01.19 (Created 2008.10.21, modified 2011.05.06)
author=YAMAMOTO M, DEP. CHEMISTRY, FAC. SCIENCE, NARA WOMEN'S UNIV.
license=CC BY-NC-SA
exact mass=76.05243
ionization energy=70 eV
ion type=[M]+*
computed spectral entropy=2.394875731026359
computed normalized entropy=0.7440099778078326
SPLASH=splash10-057i-9000000000-32874f2605e2fa74ff9d
submitter=submitter = University of Tokyo Team (Faculty of Engineering, University of Tokyo)
MoNA Rating=3.75

>  <NUM PEAKS>  (4279) 
25

>  <MASS SPECTRAL PEAKS>  (4279) 
14 1.74
15 5.72
26 5.72
27 24.63
28 99.99
29 22.89
30 15.92
31 64.68
39 3.23
40 3.48
41 3.23
42 2.74
43 12.69
44 2.74
45 16.17
46 10.45
47 2.99
49 1
56 1.74
57 1.24
58 45.03
59 75.37
60 3.73
75 1
76 0.5

$$$$

     RDKit          2D

  7  6  0  0  0  0  0  0  0  0999 V2000
   -1.9486    4.1250    0.0000 C   0  0  0  0  0  0  0  0  0  0  0  0
   -0.6495    3.3750    0.0000 C   0  0  0  0  0  0  0  0  0  0  0  0
   -3.2476    3.3750    0.0000 C   0  0  0  0  0  0  0  0  0  0  0  0
    0.6495    4.1250    0.0000 C   0  0  0  0  0  0  0  0  0  0  0  0
   -4.5466    4.1250    0.0000 C   0  0  0  0  0  0  0  0  0  0  0  0
    1.9486    3.3750    0.0000 O   0  0  0  0  0  0  0  0  0  0  0  0
   -5.8457    3.3750    0.0000 O   0  0  0  0  0  0  0  0  0  0  0  0
  2  1  1  0
  3  1  1  0
  4  2  1  0
  5  3  1  0
  6  4  1  0
  7  5  1  0
M  END
>  <NAME>  (4280) 
1,5-PENTANEDIOL

>  <SYNONYMS>  (4280) 


>  <SPECTRUM TYPE>  (4280) 
MS1

>  <INSTRUMENT TYPE>  (4280) 
EI-B

>  <INSTRUMENT>  (4280) 
HITACHI RMU-6M

>  <ION MODE>  (4280) 
P

>  <INCHIKEY>  (4280) 
ALQSHHUCVQOPAS-UHFFFAOYSA-N

>  <FORMULA>  (4280) 
C5H12O2

>  <EXACT MASS>  (4280) 
104.083729624

>  <MW>  (4280) 
104

>  <ID>  (4280) 
JP005854

>  <CONTRIBUTOR>  (4280) 
University of Tokyo Team, {Faculty of Engineering, University of Tokyo

>  <COMMENT>  (4280) 
SMILES=OCCCCCO
InChI=InChI=1S/C5H12O2/c6-4-2-1-3-5-7/h6-7H,1-5H2
computed SMILES=OCCCCCO
accession=JP005854
date=2016.01.19 (Created 2008.10.21, modified 2011.05.06)
author=YAMAMOTO M, DEP. CHEMISTRY, FAC. SCIENCE, NARA WOMEN'S UNIV.
license=CC BY-NC-SA
exact mass=104.08373
ionization energy=70 eV
ion type=[M]+*
computed spectral entropy=2.9399500263601444
computed normalized entropy=0.8269092014379416
SPLASH=splash10-0a4l-9000000000-fc6409a522c41d189612
submitter=submitter = University of Tokyo Team (Faculty of Engineering, University of Tokyo)
MoNA Rating=3.75

>  <NUM PEAKS>  (4280) 
35

>  <MASS SPECTRAL PEAKS>  (4280) 
15 6.68
26 2.86
27 28.88
28 21.48
29 33.41
30 3.1
31 96.9
32 2.63
33 2.86
38 1.43
39 16.23
40 5.73
41 69.93
42 13.84
43 34.37
44 50.12
45 17.66
46 1.19
53 6.68
54 3.34
55 57.04
56 99.99
57 65.15
58 11.69
61 2.86
62 1.19
67 19.33
68 42.96
69 4.3
71 5.01
73 10.98
74 22.91
75 1.19
85 3.1
86 3.82

$$$$

     RDKit          2D

  9  8  0  0  0  0  0  0  0  0999 V2000
   -3.2476    6.3750    0.0000 C   0  0  0  0  0  0  0  0  0  0  0  0
    1.9486    3.3750    0.0000 C   0  0  0  0  0  0  0  0  0  0  0  0
   -5.8457    3.3750    0.0000 C   0  0  0  0  0  0  0  0  0  0  0  0
   -1.9486    5.6250    0.0000 C   0  0  0  0  0  0  0  0  0  0  0  0
    0.6495    4.1250    0.0000 C   0  0  0  0  0  0  0  0  0  0  0  0
   -4.5466    4.1250    0.0000 C   0  0  0  0  0  0  0  0  0  0  0  0
   -1.9486    4.1250    0.0000 C   0  0  0  0  0  0  0  0  0  0  0  0
   -0.6495    3.3750    0.0000 O   0  0  0  0  0  0  0  0  0  0  0  0
   -3.2476    3.3750    0.0000 O   0  0  0  0  0  0  0  0  0  0  0  0
  4  1  1  0
  5  2  1  0
  6  3  1  0
  7  4  1  0
  8  5  1  0
  8  7  1  0
  9  6  1  0
  9  7  1  0
M  END
>  <NAME>  (4281) 
PROPIONALDEHYDE DIETHYLACETAL

>  <SYNONYMS>  (4281) 


>  <SPECTRUM TYPE>  (4281) 
MS1

>  <INSTRUMENT TYPE>  (4281) 
EI-B

>  <INSTRUMENT>  (4281) 
HITACHI RMU-6M

>  <ION MODE>  (4281) 
P

>  <INCHIKEY>  (4281) 
MBNMGGKBGCIEGF-UHFFFAOYSA-N

>  <FORMULA>  (4281) 
C7H16O2

>  <EXACT MASS>  (4281) 
132.115029752

>  <MW>  (4281) 
132

>  <ID>  (4281) 
JP005853

>  <CONTRIBUTOR>  (4281) 
University of Tokyo Team, {Faculty of Engineering, University of Tokyo

>  <COMMENT>  (4281) 
SMILES=CCOC(CC)OCC
InChI=InChI=1S/C7H16O2/c1-4-7(8-5-2)9-6-3/h7H,4-6H2,1-3H3
computed SMILES=O(CC)C(OCC)CC
accession=JP005853
date=2016.01.19 (Created 2008.10.21, modified 2011.05.06)
author=YAMAMOTO M, DEP. CHEMISTRY, FAC. SCIENCE, NARA WOMEN'S UNIV.
license=CC BY-NC-SA
exact mass=132.11503
ionization energy=70 eV
ion type=[M]+*
computed spectral entropy=2.5407506831165083
computed normalized entropy=0.7545374126296216
SPLASH=splash10-0a71-9100000000-a305bf033dbbb976c9af
submitter=submitter = University of Tokyo Team (Faculty of Engineering, University of Tokyo)
MoNA Rating=3.75

>  <NUM PEAKS>  (4281) 
29

>  <MASS SPECTRAL PEAKS>  (4281) 
15 2.45
26 2
27 16.93
28 6.24
29 34.08
30 2.45
31 29.18
39 3.34
40 1.11
41 12.03
42 1.56
43 3.56
44 1.11
45 7.8
47 61.47
57 10.47
58 7.13
59 99.99
60 3.56
73 1.11
75 29.4
76 1.11
77 1.56
86 2.23
87 68.15
88 4.23
98 1.34
103 49
104 2.9

$$$$

     RDKit          2D

  5  4  0  0  0  0  0  0  0  0999 V2000
   -0.0000   -0.0000    0.0000 C   0  0  0  0  0  0  0  0  0  0  0  0
    0.0000    1.5000    0.0000 C   0  0  0  0  0  0  0  0  0  0  0  0
   -1.2990    2.2500    0.0000 C   0  0  0  0  0  0  0  0  0  0  0  0
   -2.5981    1.5000    0.0000 O   0  0  0  0  0  0  0  0  0  0  0  0
   -1.2990    3.7500    0.0000 O   0  0  0  0  0  0  0  0  0  0  0  0
  2  1  1  0
  3  2  1  0
  4  3  2  0
  5  3  1  0
M  END
>  <NAME>  (4282) 
PROPIONIC ACID

>  <SYNONYMS>  (4282) 


>  <SPECTRUM TYPE>  (4282) 
MS1

>  <INSTRUMENT TYPE>  (4282) 
EI-B

>  <INSTRUMENT>  (4282) 
HITACHI RMU-6M

>  <ION MODE>  (4282) 
P

>  <INCHIKEY>  (4282) 
XBDQKXXYIPTUBI-UHFFFAOYSA-N

>  <FORMULA>  (4282) 
C3H6O2

>  <EXACT MASS>  (4282) 
74.036779432

>  <MW>  (4282) 
74

>  <ID>  (4282) 
JP005852

>  <CONTRIBUTOR>  (4282) 
University of Tokyo Team, {Faculty of Engineering, University of Tokyo

>  <COMMENT>  (4282) 
SMILES=CCC(O)=O
InChI=InChI=1S/C3H6O2/c1-2-3(4)5/h2H2,1H3,(H,4,5)
computed SMILES=O=C(O)CC
accession=JP005852
date=2016.01.19 (Created 2008.10.21, modified 2011.05.06)
author=YAMAMOTO M, DEP. CHEMISTRY, FAC. SCIENCE, NARA WOMEN'S UNIV.
license=CC BY-NC-SA
exact mass=74.03678
ionization energy=70 eV
ion type=[M]+*
computed spectral entropy=2.4203832487565866
computed normalized entropy=0.7830313835149433
SPLASH=splash10-004i-9000000000-51f674be972a6c17185b
submitter=submitter = University of Tokyo Team (Faculty of Engineering, University of Tokyo)
MoNA Rating=3.75

>  <NUM PEAKS>  (4282) 
22

>  <MASS SPECTRAL PEAKS>  (4282) 
14 2.54
15 3.44
25 3.08
26 21.01
27 59.78
28 99.99
29 83.51
30 16.49
31 4.17
42 3.26
43 2.54
44 1.09
45 49.64
46 4.89
47 2.9
53 1.63
55 11.78
56 10.87
57 24.64
73 43.84
74 69.93
75 2.9

$$$$

     RDKit          2D

  4  4  0  0  0  0  0  0  0  0999 V2000
    0.0000    1.0600    0.0000 C   0  0  0  0  0  0  0  0  0  0  0  0
    1.0600   -0.0000    0.0000 C   0  0  0  0  0  0  0  0  0  0  0  0
   -1.0600   -0.0000    0.0000 C   0  0  0  0  0  0  0  0  0  0  0  0
    0.0000   -1.0600    0.0000 O   0  0  0  0  0  0  0  0  0  0  0  0
  2  1  1  0
  3  1  1  0
  4  2  1  0
  4  3  1  0
M  END
>  <NAME>  (4283) 
TRIMETHYLENE OXIDE

>  <SYNONYMS>  (4283) 


>  <SPECTRUM TYPE>  (4283) 
MS1

>  <INSTRUMENT TYPE>  (4283) 
EI-B

>  <INSTRUMENT>  (4283) 
HITACHI RMU-6M

>  <ION MODE>  (4283) 
P

>  <INCHIKEY>  (4283) 
AHHWIHXENZJRFG-UHFFFAOYSA-N

>  <FORMULA>  (4283) 
C3H6O

>  <EXACT MASS>  (4283) 
58.041864812

>  <MW>  (4283) 
58

>  <ID>  (4283) 
JP005851

>  <CONTRIBUTOR>  (4283) 
University of Tokyo Team, {Faculty of Engineering, University of Tokyo

>  <COMMENT>  (4283) 
SMILES=C(C1)CO1
InChI=InChI=1S/C3H6O/c1-2-4-3-1/h1-3H2
computed SMILES=O1CCC1
accession=JP005851
date=2016.01.19 (Created 2008.10.21, modified 2011.05.06)
author=YAMAMOTO M, DEP. CHEMISTRY, FAC. SCIENCE, NARA WOMEN'S UNIV.
license=CC BY-NC-SA
exact mass=58.04186
ionization energy=70 eV
ion type=[M]+*
computed spectral entropy=1.7118703917150344
computed normalized entropy=0.6674090413267371
SPLASH=splash10-004i-9000000000-cfb1e2ef0bcb3a4e9db4
submitter=submitter = University of Tokyo Team (Faculty of Engineering, University of Tokyo)
MoNA Rating=3.75

>  <NUM PEAKS>  (4283) 
13

>  <MASS SPECTRAL PEAKS>  (4283) 
25 1.28
26 13.01
27 20.41
28 99.99
29 17.09
30 3.57
31 7.91
37 1.02
38 1.28
39 1.53
57 6.12
58 47.96
59 1.79

$$$$

     RDKit          2D

 14 13  0  0  0  0  0  0  0  0999 V2000
    3.8971    6.7500    0.0000 C   0  0  0  0  0  0  0  0  0  0  0  0
  -11.6913    6.7500    0.0000 C   0  0  0  0  0  0  0  0  0  0  0  0
    2.5981    7.5000    0.0000 C   0  0  0  0  0  0  0  0  0  0  0  0
    1.2990    6.7500    0.0000 C   0  0  0  0  0  0  0  0  0  0  0  0
    0.0000    7.5000    0.0000 C   0  0  0  0  0  0  0  0  0  0  0  0
   -1.2990    6.7500    0.0000 C   0  0  0  0  0  0  0  0  0  0  0  0
   -2.5981    7.5000    0.0000 C   0  0  0  0  0  0  0  0  0  0  0  0
   -3.8971    6.7500    0.0000 C   0  0  0  0  0  0  0  0  0  0  0  0
   -5.1962    7.5000    0.0000 C   0  0  0  0  0  0  0  0  0  0  0  0
   -6.4952    6.7500    0.0000 C   0  0  0  0  0  0  0  0  0  0  0  0
   -7.7942    7.5000    0.0000 C   0  0  0  0  0  0  0  0  0  0  0  0
   -9.0933    6.7500    0.0000 C   0  0  0  0  0  0  0  0  0  0  0  0
   -9.0933    5.2500    0.0000 O   0  0  0  0  0  0  0  0  0  0  0  0
  -10.3923    7.5000    0.0000 O   0  0  0  0  0  0  0  0  0  0  0  0
  3  1  1  0
  4  3  1  0
  5  4  1  0
  6  5  1  0
  7  6  1  0
  8  7  1  0
  9  8  1  0
  9 10  2  0
 11 10  1  0
 12 11  1  0
 13 12  2  0
 14  2  1  0
 14 12  1  0
M  END
>  <NAME>  (4284) 
METHYL 3-UNDECENOATE

>  <SYNONYMS>  (4284) 


>  <SPECTRUM TYPE>  (4284) 
MS1

>  <INSTRUMENT TYPE>  (4284) 
EI-B

>  <INSTRUMENT>  (4284) 
HITACHI RMU-6M

>  <ION MODE>  (4284) 
P

>  <INCHIKEY>  (4284) 
UXEZTQUHDSYCQP-MDZDMXLPSA-N

>  <FORMULA>  (4284) 
C12H22O2

>  <EXACT MASS>  (4284) 
198.161979944

>  <MW>  (4284) 
198

>  <ID>  (4284) 
JP005850

>  <CONTRIBUTOR>  (4284) 
University of Tokyo Team, {Faculty of Engineering, University of Tokyo

>  <COMMENT>  (4284) 
SMILES=CCCCCCCC=CCC(=O)OC
InChI=InChI=1S/C12H22O2/c1-3-4-5-6-7-8-9-10-11-12(13)14-2/h9-10H,3-8,11H2,1-2H3/b10-9+
computed SMILES=O=C(OC)CC=CCCCCCCC
accession=JP005850
date=2016.01.19 (Created 2008.10.21, modified 2011.05.06)
author=YAMAMOTO M, DEP. CHEMISTRY, FAC. SCIENCE, NARA WOMEN'S UNIV.
license=CC BY-NC-SA
exact mass=198.16198
ionization energy=70 eV
ion type=[M]+*
computed spectral entropy=3.846281790440786
computed normalized entropy=0.8526715994776723
SPLASH=splash10-0596-9200000000-7d52ab8a4c2980e32503
submitter=submitter = University of Tokyo Team (Faculty of Engineering, University of Tokyo)
MoNA Rating=3.75

>  <NUM PEAKS>  (4284) 
91

>  <MASS SPECTRAL PEAKS>  (4284) 
15 35.33
26 1.24
27 33.21
28 7.96
29 46.28
30 1.12
31 1.49
39 31.85
40 5.47
41 99.99
42 20.15
43 82.85
44 2.99
45 2.74
51 2.49
52 2.24
53 18.91
54 59.71
55 92.55
56 28.36
57 19.66
58 1.49
59 49.51
60 1.24
65 3.36
66 2.99
67 33.09
68 29.11
69 53.74
70 11.44
71 27.87
72 9.95
73 7.46
74 93.3
75 9.95
76 1
77 2.74
79 5.22
80 3.61
81 24.13
82 30.85
83 40.31
84 45.28
85 20.15
86 2.24
87 25.38
88 3.48
91 1.24
93 1.74
94 3.48
95 15.92
96 43.29
97 15.67
98 19.16
99 4.48
100 2.24
101 12.19
102 1.74
108 1.24
109 6.47
110 10.45
111 4.48
112 1.49
113 9.45
114 21.15
115 11.94
116 1.74
119 2.36
122 6.97
123 12.44
124 61.7
125 12.94
126 1.12
127 5.47
128 6.1
129 2.36
130 1
137 6.97
138 6.72
139 3.98
141 2.98
142 1.12
143 1
148 4.23
151 1
155 2.36
166 28.36
167 6.72
169 1
198 12.44
199 1.99

$$$$

     RDKit          2D

 14 13  0  0  0  0  0  0  0  0999 V2000
    3.8971    6.7500    0.0000 C   0  0  0  0  0  0  0  0  0  0  0  0
  -11.6913    6.7500    0.0000 C   0  0  0  0  0  0  0  0  0  0  0  0
    2.5981    7.5000    0.0000 C   0  0  0  0  0  0  0  0  0  0  0  0
    1.2990    6.7500    0.0000 C   0  0  0  0  0  0  0  0  0  0  0  0
    0.0000    7.5000    0.0000 C   0  0  0  0  0  0  0  0  0  0  0  0
   -1.2990    6.7500    0.0000 C   0  0  0  0  0  0  0  0  0  0  0  0
   -2.5981    7.5000    0.0000 C   0  0  0  0  0  0  0  0  0  0  0  0
   -3.8971    6.7500    0.0000 C   0  0  0  0  0  0  0  0  0  0  0  0
   -5.1962    7.5000    0.0000 C   0  0  0  0  0  0  0  0  0  0  0  0
   -6.4952    6.7500    0.0000 C   0  0  0  0  0  0  0  0  0  0  0  0
   -7.7942    7.5000    0.0000 C   0  0  0  0  0  0  0  0  0  0  0  0
   -9.0933    6.7500    0.0000 C   0  0  0  0  0  0  0  0  0  0  0  0
   -9.0933    5.2500    0.0000 O   0  0  0  0  0  0  0  0  0  0  0  0
  -10.3923    7.5000    0.0000 O   0  0  0  0  0  0  0  0  0  0  0  0
  3  1  2  0
  4  3  1  0
  5  4  1  0
  6  5  1  0
  7  6  1  0
  8  7  1  0
  9  8  1  0
 10  9  1  0
 11 10  1  0
 12 11  1  0
 13 12  2  0
 14  2  1  0
 14 12  1  0
M  END
>  <NAME>  (4285) 
METHYL 10-UNDECENOATE

>  <SYNONYMS>  (4285) 


>  <SPECTRUM TYPE>  (4285) 
MS1

>  <INSTRUMENT TYPE>  (4285) 
EI-B

>  <INSTRUMENT>  (4285) 
HITACHI RMU-6M

>  <ION MODE>  (4285) 
P

>  <INCHIKEY>  (4285) 
KISVAASFGZJBCY-UHFFFAOYSA-N

>  <FORMULA>  (4285) 
C12H22O2

>  <EXACT MASS>  (4285) 
198.161979944

>  <MW>  (4285) 
198

>  <ID>  (4285) 
JP005849

>  <CONTRIBUTOR>  (4285) 
University of Tokyo Team, {Faculty of Engineering, University of Tokyo

>  <COMMENT>  (4285) 
SMILES=C=CCCCCCCCCC(=O)OC
InChI=InChI=1S/C12H22O2/c1-3-4-5-6-7-8-9-10-11-12(13)14-2/h3H,1,4-11H2,2H3
computed SMILES=O=C(OC)CCCCCCCCC=C
accession=JP005849
date=2016.01.19 (Created 2008.10.21, modified 2011.05.06)
author=YAMAMOTO M, DEP. CHEMISTRY, FAC. SCIENCE, NARA WOMEN'S UNIV.
license=CC BY-NC-SA
exact mass=198.16198
ionization energy=70 eV
ion type=[M]+*
computed spectral entropy=3.676152583225039
computed normalized entropy=0.8462977104661079
SPLASH=splash10-05fu-9100000000-487cec931827f3f1b724
submitter=submitter = University of Tokyo Team (Faculty of Engineering, University of Tokyo)
MoNA Rating=3.75

>  <NUM PEAKS>  (4285) 
77

>  <MASS SPECTRAL PEAKS>  (4285) 
15 15.25
27 16.71
28 5.81
29 23.24
31 1.94
39 20.82
40 3.87
41 69.73
42 13.08
43 20.7
44 1.21
45 4.12
51 1.09
53 7.51
54 13.08
55 75.79
56 9.08
57 4.24
59 17.68
65 1.45
66 1.09
67 15.74
68 15
69 32.81
70 4.12
71 3.75
72 1.45
73 6.78
74 99.99
75 8.96
77 1.09
79 3.27
80 3.15
81 13.56
82 22.03
83 26.15
84 26.76
85 4.84
87 45.28
88 5.32
93 1.94
94 3.63
95 6.9
96 25.67
97 12.23
98 16.46
99 2.66
101 5.81
102 1.09
107 1.94
109 1.09
110 3.15
111 7.51
112 3.87
113 1.21
114 4.36
115 5.08
116 1.33
119 1.57
122 6.05
123 8.47
124 25.91
125 6.78
127 1.94
128 3.39
129 1.69
137 5.57
138 3.63
141 1.94
143 1.21
148 3.75
149 7.63
150 1.09
155 1.69
166 19.37
167 7.51
198 1.21

$$$$

     RDKit          2D

 15 14  0  0  0  0  0  0  0  0999 V2000
    4.5466    7.8750    0.0000 C   0  0  0  0  0  0  0  0  0  0  0  0
  -13.6399    7.8750    0.0000 C   0  0  0  0  0  0  0  0  0  0  0  0
    3.2476    8.6250    0.0000 C   0  0  0  0  0  0  0  0  0  0  0  0
  -12.3409    8.6250    0.0000 C   0  0  0  0  0  0  0  0  0  0  0  0
    1.9486    7.8750    0.0000 C   0  0  0  0  0  0  0  0  0  0  0  0
  -11.0418    7.8750    0.0000 C   0  0  0  0  0  0  0  0  0  0  0  0
    0.6495    8.6250    0.0000 C   0  0  0  0  0  0  0  0  0  0  0  0
   -9.7428    8.6250    0.0000 C   0  0  0  0  0  0  0  0  0  0  0  0
   -0.6495    7.8750    0.0000 C   0  0  0  0  0  0  0  0  0  0  0  0
   -8.4437    7.8750    0.0000 C   0  0  0  0  0  0  0  0  0  0  0  0
   -1.9486    8.6250    0.0000 C   0  0  0  0  0  0  0  0  0  0  0  0
   -7.1447    8.6250    0.0000 C   0  0  0  0  0  0  0  0  0  0  0  0
   -3.2476    7.8750    0.0000 C   0  0  0  0  0  0  0  0  0  0  0  0
   -5.8457    7.8750    0.0000 C   0  0  0  0  0  0  0  0  0  0  0  0
   -4.5466    8.6250    0.0000 C   0  0  0  0  0  0  0  0  0  0  0  0
  3  1  1  0
  4  2  1  0
  5  3  1  0
  6  4  1  0
  7  5  1  0
  8  6  1  0
  9  7  1  0
 10  8  1  0
 11  9  1  0
 12 10  1  0
 13 11  1  0
 14 12  1  0
 15 13  1  0
 15 14  1  0
M  END
>  <NAME>  (4286) 
PENTADECANE

>  <SYNONYMS>  (4286) 


>  <SPECTRUM TYPE>  (4286) 
MS1

>  <INSTRUMENT TYPE>  (4286) 
EI-B

>  <INSTRUMENT>  (4286) 
HITACHI RMU-6M

>  <ION MODE>  (4286) 
P

>  <INCHIKEY>  (4286) 
YCOZIPAWZNQLMR-UHFFFAOYSA-N

>  <FORMULA>  (4286) 
C15H32

>  <EXACT MASS>  (4286) 
212.25040102399998

>  <MW>  (4286) 
212

>  <ID>  (4286) 
JP005848

>  <CONTRIBUTOR>  (4286) 
University of Tokyo Team, {Faculty of Engineering, University of Tokyo

>  <COMMENT>  (4286) 
SMILES=CCCCCCCCCCCCCCC
InChI=InChI=1S/C15H32/c1-3-5-7-9-11-13-15-14-12-10-8-6-4-2/h3-15H2,1-2H3
computed SMILES=CCCCCCCCCCCCCCC
accession=JP005848
date=2016.01.19 (Created 2008.10.21, modified 2011.05.06)
author=YAMAMOTO M, DEP. CHEMISTRY, FAC. SCIENCE, NARA WOMEN'S UNIV.
license=CC BY-NC-SA
exact mass=212.2504
ionization energy=70 eV
ion type=[M]+*
computed spectral entropy=2.9083489915651777
computed normalized entropy=0.7732502664322822
SPLASH=splash10-0a4l-9000000000-32f5cf10a7d32e3cb81f
submitter=submitter = University of Tokyo Team (Faculty of Engineering, University of Tokyo)
MoNA Rating=3.75

>  <NUM PEAKS>  (4286) 
43

>  <MASS SPECTRAL PEAKS>  (4286) 
27 7.73
28 3.74
29 20.7
39 4.24
40 1
41 32.17
42 9.73
43 80.3
44 2.49
53 1.5
54 1.75
55 16.71
56 14.46
57 99.99
58 4.49
67 1.25
68 1.5
69 7.48
70 10.22
71 58.35
72 3.49
82 1.25
83 4.24
84 7.23
85 37.66
86 2.49
97 2.74
98 5.74
99 10.47
111 1
112 4.24
113 7.23
126 3.24
127 5.99
140 2.24
141 5.49
154 1.5
155 4.74
168 1
169 2.99
183 1.5
212 13.47
213 2.49

$$$$

     RDKit          2D

 10 10  0  0  0  0  0  0  0  0999 V2000
    2.9231    0.5071    0.0000 C   0  0  0  0  0  0  0  0  0  0  0  0
    2.9236    2.0079    0.0000 C   0  0  0  0  0  0  0  0  0  0  0  0
    1.6236   -0.2437    0.0000 C   0  0  0  0  0  0  0  0  0  0  0  0
   -2.2731    2.0071    0.0000 C   0  0  0  0  0  0  0  0  0  0  0  0
    1.6245    2.7579    0.0000 C   0  0  0  0  0  0  0  0  0  0  0  0
    0.3245    0.5063    0.0000 C   0  0  0  0  0  0  0  0  0  0  0  0
   -0.9740    2.7571    0.0000 C   0  0  0  0  0  0  0  0  0  0  0  0
   -3.5721    2.7571    0.0000 C   0  0  0  0  0  0  0  0  0  0  0  0
    0.3250    2.0071    0.0000 C   0  0  0  0  0  0  0  0  0  0  0  0
   -4.8712    2.0071    0.0000 O   0  0  0  0  0  0  0  0  0  0  0  0
  2  1  2  0
  3  1  1  0
  5  2  1  0
  6  3  2  0
  7  4  1  0
  8  4  1  0
  9  5  2  0
  9  6  1  0
  9  7  1  0
 10  8  1  0
M  END
>  <NAME>  (4287) 
3-PHENYL-1-PROPANOL

>  <SYNONYMS>  (4287) 


>  <SPECTRUM TYPE>  (4287) 
MS1

>  <INSTRUMENT TYPE>  (4287) 
EI-B

>  <INSTRUMENT>  (4287) 
HITACHI RMU-6M

>  <ION MODE>  (4287) 
P

>  <INCHIKEY>  (4287) 
VAJVDSVGBWFCLW-UHFFFAOYSA-N

>  <FORMULA>  (4287) 
C9H12O

>  <EXACT MASS>  (4287) 
136.088815004

>  <MW>  (4287) 
136

>  <ID>  (4287) 
JP005847

>  <CONTRIBUTOR>  (4287) 
University of Tokyo Team, {Faculty of Engineering, University of Tokyo

>  <COMMENT>  (4287) 
SMILES=OCCCc(c1)cccc1
InChI=InChI=1S/C9H12O/c10-8-4-7-9-5-2-1-3-6-9/h1-3,5-6,10H,4,7-8H2
computed SMILES=OCCCC=1C=CC=CC1
accession=JP005847
date=2016.01.19 (Created 2008.10.21, modified 2011.05.06)
author=YAMAMOTO M, DEP. CHEMISTRY, FAC. SCIENCE, NARA WOMEN'S UNIV.
license=CC BY-NC-SA
exact mass=136.08882
ionization energy=70 eV
ion type=[M]+*
computed spectral entropy=2.957044940565605
computed normalized entropy=0.7723483696533311
SPLASH=splash10-014l-9600000000-cd72498d79a581fa8818
submitter=submitter = University of Tokyo Team (Faculty of Engineering, University of Tokyo)
MoNA Rating=3.75

>  <NUM PEAKS>  (4287) 
46

>  <MASS SPECTRAL PEAKS>  (4287) 
27 8.72
28 3.81
29 2.6
31 7.8
38 1.81
39 13.69
40 1.24
41 4.18
43 1.47
44 1.81
50 5.77
51 15.5
52 4.31
53 2.26
57 2.03
58 1.58
62 2.03
63 6.9
64 1.81
65 19.23
66 1.69
74 1.7
75 1.58
76 1.58
77 20.25
78 12.9
79 13.69
80 1.13
89 3.95
90 2.6
91 99.99
92 59.49
93 4.64
102 1.81
103 11.09
104 4.52
105 18.44
106 1.58
107 1.36
115 4.75
116 4.18
117 73.65
118 70.5
119 6.79
136 40.39
137 4.29

$$$$

     RDKit          2D

 11 12  0  0  1  0  0  0  0  0999 V2000
    1.2027   -2.3196    0.0000 C   0  0  0  0  0  0  0  0  0  0  0  0
    2.1672   -0.6497    0.0000 C   0  0  0  0  0  0  0  0  0  0  0  0
   -0.6100    2.8400    0.0000 C   0  0  0  0  0  0  0  0  0  0  0  0
   -1.9100   -0.9100    0.0000 C   0  0  0  0  0  0  0  0  0  0  0  0
   -1.9100    0.5900    0.0000 C   0  0  0  0  0  0  0  0  0  0  0  0
   -1.3600   -0.1500    0.0000 C   0  0  0  0  0  0  0  0  0  0  0  0
   -0.6100   -1.6600    0.0000 C   0  0  0  0  0  0  0  0  0  0  0  0
    0.6900    0.5900    0.0000 C   0  0  0  0  0  0  0  0  0  0  0  0
    0.6900   -0.9100    0.0000 C   0  0  0  0  0  0  0  0  0  0  0  0
   -0.6100    1.3400    0.0000 C   0  0  0  0  0  0  0  0  0  0  0  0
    1.9889    1.3402    0.0000 O   0  0  0  0  0  0  0  0  0  0  0  0
  5  4  1  0
  7  4  1  6
  7  6  1  0
  9  1  1  0
  9  2  1  0
  9  7  1  0
  9  8  1  0
 10  3  1  1
 10  5  1  0
 10  6  1  0
 10  8  1  0
 11  8  2  0
M  END
>  <NAME>  (4288) 
1,3,3-TRIMETHYLBICYCLO(2.2.1)HEPTAN-2-ONE

>  <SYNONYMS>  (4288) 
(+)-FENCHONE

>  <SPECTRUM TYPE>  (4288) 
MS1

>  <INSTRUMENT TYPE>  (4288) 
EI-B

>  <INSTRUMENT>  (4288) 
JEOL JMS-D-300

>  <ION MODE>  (4288) 
P

>  <INCHIKEY>  (4288) 
LHXDLQBQYFFVNW-XCBNKYQSSA-N

>  <FORMULA>  (4288) 
C10H16O

>  <EXACT MASS>  (4288) 
152.120115132

>  <MW>  (4288) 
152

>  <ID>  (4288) 
JP005805

>  <CONTRIBUTOR>  (4288) 
University of Tokyo Team, {Faculty of Engineering, University of Tokyo

>  <COMMENT>  (4288) 
SMILES=O=C(C(C)21)C(C)(C)C([H])(CC2)C1
cas=4695-62-9
InChI=InChI=1S/C10H16O/c1-9(2)7-4-5-10(3,6-7)8(9)11/h7H,4-6H2,1-3H3/t7-,10+/m1/s1
computed SMILES=O=C1C(C)(C)C2CCC1(C)C2
accession=JP005805
date=2016.01.19 (Created 2008.10.21, modified 2011.05.06)
author=FUJISE Y, HAMAMATSU UNIV. SCHOOL OF MEDICINE
license=CC BY-NC-SA
exact mass=152.12012
ionization energy=70 eV
ion type=[M]+*
computed spectral entropy=1.796154432383095
computed normalized entropy=0.6478257730674555
SPLASH=splash10-001i-9100000000-47c4006dbf1ec751f66d
submitter=submitter = University of Tokyo Team (Faculty of Engineering, University of Tokyo)
MoNA Rating=3.75

>  <NUM PEAKS>  (4288) 
16

>  <MASS SPECTRAL PEAKS>  (4288) 
53 2.99
55 2.43
67 4.15
68 3.53
69 39.72
70 2.66
72 2.14
77 1.27
79 3.07
80 13.65
81 99.99
82 8.42
109 4.06
137 1.92
152 16.65
153 1.89

$$$$

     RDKit          2D

 12 13  0  0  0  0  0  0  0  0999 V2000
    5.8467    1.3723    0.0000 C   0  0  0  0  0  0  0  0  0  0  0  0
    4.5481    0.6216    0.0000 C   0  0  0  0  0  0  0  0  0  0  0  0
    3.2486    1.3708    0.0000 C   0  0  0  0  0  0  0  0  0  0  0  0
    1.9500   -0.9000    0.0000 C   0  0  0  0  0  0  0  0  0  0  0  0
    0.6300   -1.6600    0.0000 C   0  0  0  0  0  0  0  0  0  0  0  0
    0.6300    1.3800    0.0000 C   0  0  0  0  0  0  0  0  0  0  0  0
   -2.9400   -0.2300    0.0000 C   0  0  0  0  0  0  0  0  0  0  0  0
    1.9500    0.6200    0.0000 C   0  0  0  0  0  0  0  0  0  0  0  0
   -0.6600   -0.9000    0.0000 C   0  0  0  0  0  0  0  0  0  0  0  0
   -0.6600    0.6200    0.0000 C   0  0  0  0  0  0  0  0  0  0  0  0
   -2.0600   -1.3400    0.0000 O   0  0  0  0  0  0  0  0  0  0  0  0
   -2.0900    1.0600    0.0000 O   0  0  0  0  0  0  0  0  0  0  0  0
  2  1  2  0
  3  2  1  0
  5  4  2  0
  8  3  1  0
  8  4  1  0
  8  6  2  0
  9  5  1  0
 10  6  1  0
 10  9  2  0
 11  7  1  0
 11  9  1  0
 12  7  1  0
 12 10  1  0
M  END
>  <NAME>  (4289) 
5-(2-PROPENYL)-1,3-BENZODIOXOLE

>  <SYNONYMS>  (4289) 
SAFROLE

>  <SPECTRUM TYPE>  (4289) 
MS1

>  <INSTRUMENT TYPE>  (4289) 
EI-B

>  <INSTRUMENT>  (4289) 
JEOL JMS-D-300

>  <ION MODE>  (4289) 
P

>  <INCHIKEY>  (4289) 
ZMQAAUBTXCXRIC-UHFFFAOYSA-N

>  <FORMULA>  (4289) 
C10H10O2

>  <EXACT MASS>  (4289) 
162.06807956

>  <MW>  (4289) 
162

>  <ID>  (4289) 
JP005804

>  <CONTRIBUTOR>  (4289) 
University of Tokyo Team, {Faculty of Engineering, University of Tokyo

>  <COMMENT>  (4289) 
SMILES=C=CCc(c1)cc(O2)c(OC2)c1
cas=94-59-7
InChI=InChI=1S/C10H10O2/c1-2-3-8-4-5-9-10(6-8)12-7-11-9/h2,4-6H,1,3,7H2
computed SMILES=O1C2=CC=C(C=C2OC1)CC=C
accession=JP005804
date=2016.01.19 (Created 2008.10.21, modified 2011.05.06)
author=FUJISE Y, HAMAMATSU UNIV. SCHOOL OF MEDICINE
license=CC BY-NC-SA
exact mass=162.06808
ionization energy=70 eV
ion type=[M]+*
computed spectral entropy=2.806255303159115
computed normalized entropy=0.7771584320243197
SPLASH=splash10-0ik9-3900000000-27e98ee529004a2d8b66
submitter=submitter = University of Tokyo Team (Faculty of Engineering, University of Tokyo)
MoNA Rating=3.75

>  <NUM PEAKS>  (4289) 
37

>  <MASS SPECTRAL PEAKS>  (4289) 
51 7.08
52 20.14
53 4.69
54 2.73
62 2.29
63 5.97
64 1.45
65 3.3
66 1.41
67 1.54
74 1.07
75 1.42
76 3.71
77 23.46
78 11.71
79 5.4
80 2.08
81 2.09
89 1.24
91 3.82
92 1.16
102 3.27
103 16.46
104 27.03
105 7.8
106 1.07
121 1.12
131 31.98
132 14.46
133 2.19
134 1.17
135 27.01
136 2.45
161 24.75
162 99.99
163 10.88
164 0.92

$$$$

     RDKit          2D

 11 12  0  0  1  0  0  0  0  0999 V2000
   -0.6759    1.4813    0.0000 C   0  0  0  0  0  0  0  0  0  0  0  0
   -0.6759   -2.3013    0.0000 C   0  0  0  0  0  0  0  0  0  0  0  0
    2.4475    2.5900    0.0000 C   0  0  0  0  0  0  0  0  0  0  0  0
    1.1450   -1.1600    0.0000 C   0  0  0  0  0  0  0  0  0  0  0  0
    1.1450    0.3400    0.0000 C   0  0  0  0  0  0  0  0  0  0  0  0
    3.7350   -1.1600    0.0000 C   0  0  0  0  0  0  0  0  0  0  0  0
    2.4450   -1.9100    0.0000 C   0  0  0  0  0  0  0  0  0  0  0  0
    3.7350    0.3400    0.0000 C   0  0  0  0  0  0  0  0  0  0  0  0
    1.5750   -0.4100    0.0000 C   0  0  0  0  0  0  0  0  0  0  0  0
    2.4450    1.0900    0.0000 C   0  0  0  0  0  0  0  0  0  0  0  0
    5.0352    1.0880    0.0000 O   0  0  0  0  0  0  0  0  0  0  0  0
  5  4  1  0
  7  4  1  1
  7  6  1  0
  8  6  1  0
  9  1  1  0
  9  2  1  0
  9  7  1  0
 10  3  1  6
 10  5  1  0
 10  8  1  0
 10  9  1  0
 11  8  2  0
M  END
>  <NAME>  (4290) 
(1R)-1,7,7-TRIMETHYLBICYCLO(2.2.1)HEPTAN-2-ONE

>  <SYNONYMS>  (4290) 
(+)CAMPHOR

>  <SPECTRUM TYPE>  (4290) 
MS1

>  <INSTRUMENT TYPE>  (4290) 
EI-B

>  <INSTRUMENT>  (4290) 
JEOL JMS-D-300

>  <ION MODE>  (4290) 
P

>  <INCHIKEY>  (4290) 
DSSYKIVIOFKYAU-XCBNKYQSSA-N

>  <FORMULA>  (4290) 
C10H16O

>  <EXACT MASS>  (4290) 
152.120115132

>  <MW>  (4290) 
152

>  <ID>  (4290) 
JP005803

>  <CONTRIBUTOR>  (4290) 
University of Tokyo Team, {Faculty of Engineering, University of Tokyo

>  <COMMENT>  (4290) 
SMILES=O=C(C1)C(C)(C2)C(C)(C)C([H])(C2)1
cas=464-49-3
InChI=InChI=1S/C10H16O/c1-9(2)7-4-5-10(9,3)8(11)6-7/h7H,4-6H2,1-3H3/t7-,10+/m1/s1
computed SMILES=O=C1CC2CCC1(C)C2(C)C
accession=JP005803
date=2016.01.19 (Created 2008.10.21, modified 2011.05.06)
author=FUJISE Y, HAMAMATSU UNIV. SCHOOL OF MEDICINE
license=CC BY-NC-SA
exact mass=152.12012
ionization energy=70 eV
ion type=[M]+*
computed spectral entropy=2.85905529236199
computed normalized entropy=0.7978345702824048
SPLASH=splash10-05o1-9300000000-f5c5e5805061cef08d31
submitter=submitter = University of Tokyo Team (Faculty of Engineering, University of Tokyo)
MoNA Rating=3.75

>  <NUM PEAKS>  (4290) 
36

>  <MASS SPECTRAL PEAKS>  (4290) 
51 3.04
52 1.37
53 7.92
54 1.93
55 27.24
56 1.8
57 1.22
65 2.92
66 1.16
67 19.82
68 15.23
69 38.25
70 2.45
77 4.27
79 5.04
80 15.35
81 72.08
82 12.57
83 29.6
84 2.34
91 3.49
93 11.61
94 1.63
95 99.99
96 9.61
97 5.65
107 1.05
108 47.03
109 26.33
110 16.48
111 1.65
123 1.03
124 1.01
137 4.26
152 35.42
153 3.96

$$$$

     RDKit          2D

 11 11  0  0  1  0  0  0  0  0999 V2000
   -2.2386    2.7951    0.0000 C   0  0  0  0  0  0  0  0  0  0  0  0
   -3.5376    0.5451    0.0000 C   0  0  0  0  0  0  0  0  0  0  0  0
    2.9576   -1.7049    0.0000 C   0  0  0  0  0  0  0  0  0  0  0  0
    0.3590   -1.7058    0.0000 C   0  0  0  0  0  0  0  0  0  0  0  0
   -0.9400   -0.9558    0.0000 C   0  0  0  0  0  0  0  0  0  0  0  0
    0.3600    1.2959    0.0000 C   0  0  0  0  0  0  0  0  0  0  0  0
   -2.2386    1.2951    0.0000 C   0  0  0  0  0  0  0  0  0  0  0  0
    1.6585   -0.9549    0.0000 C   0  0  0  0  0  0  0  0  0  0  0  0
   -0.9395    0.5451    0.0000 C   0  0  0  0  0  0  0  0  0  0  0  0
    1.6590    0.5459    0.0000 C   0  0  0  0  0  0  0  0  0  0  0  0
    2.9582    1.2957    0.0000 O   0  0  0  0  0  0  0  0  0  0  0  0
  5  4  1  0
  7  1  2  0
  7  2  1  0
  8  3  1  0
  8  4  2  0
  9  5  1  0
  9  6  1  0
  9  7  1  1
 10  6  1  0
 10  8  1  0
 11 10  2  0
M  END
>  <NAME>  (4291) 
(R)-2-METHYL-5-(1-METHYLETHENYL)-2-CYCLOHEXEN-1-ONE

>  <SYNONYMS>  (4291) 
D-CARVONE

>  <SPECTRUM TYPE>  (4291) 
MS1

>  <INSTRUMENT TYPE>  (4291) 
EI-B

>  <INSTRUMENT>  (4291) 
JEOL JMS-D-300

>  <ION MODE>  (4291) 
P

>  <INCHIKEY>  (4291) 
ULDHMXUKGWMISQ-SECBINFHSA-N

>  <FORMULA>  (4291) 
C10H14O

>  <EXACT MASS>  (4291) 
150.104465068

>  <MW>  (4291) 
150

>  <ID>  (4291) 
JP005802

>  <CONTRIBUTOR>  (4291) 
University of Tokyo Team, {Faculty of Engineering, University of Tokyo

>  <COMMENT>  (4291) 
SMILES=CC(=C)C([H])(C1)CC(=O)C(C)=C([H])1
InChI=InChI=1S/C10H14O/c1-7(2)9-5-4-8(3)10(11)6-9/h4,9H,1,5-6H2,2-3H3/t9-/m1/s1
computed SMILES=O=C1C(=CCC(C(=C)C)C1)C
date=2016.01.19 (Created 2008.10.21, modified 2011.05.06)
author=FUJISE Y, HAMAMATSU UNIV. SCHOOL OF MEDICINE
license=CC BY-NC-SA
exact mass=150.10447
ionization energy=70 eV
computed spectral entropy=2.8804737236778335
ion type=[M]+*
accession=JP005802
computed normalized entropy=0.7862495576458765
SPLASH=splash10-0a59-9300000000-0663a3956cbefc28418a
submitter=submitter = University of Tokyo Team (Faculty of Engineering, University of Tokyo)
MoNA Rating=3.75

>  <NUM PEAKS>  (4291) 
39

>  <MASS SPECTRAL PEAKS>  (4291) 
51 2.06
52 4.53
53 2.36
54 10.69
55 38.95
56 4.22
58 10.96
63 1.35
65 4.88
66 1.68
67 7.27
68 1.7
69 3.77
77 6.92
78 2.08
79 9.39
80 5.08
81 2.86
82 99.99
83 5.64
91 8.89
92 4.22
93 28.69
94 6.3
95 3.79
105 2.86
106 13.32
107 16.39
108 31.21
109 5.74
117 0.88
119 1.66
120 1
121 1.48
122 2.49
132 0.98
135 3.74
150 9.88
151 1.68

$$$$

     RDKit          2D

 11 11  0  0  1  0  0  0  0  0999 V2000
   -2.2386    2.7951    0.0000 C   0  0  0  0  0  0  0  0  0  0  0  0
   -3.5376    0.5451    0.0000 C   0  0  0  0  0  0  0  0  0  0  0  0
    2.9576   -1.7049    0.0000 C   0  0  0  0  0  0  0  0  0  0  0  0
    0.3590   -1.7058    0.0000 C   0  0  0  0  0  0  0  0  0  0  0  0
   -0.9400   -0.9558    0.0000 C   0  0  0  0  0  0  0  0  0  0  0  0
    0.3600    1.2959    0.0000 C   0  0  0  0  0  0  0  0  0  0  0  0
   -2.2386    1.2951    0.0000 C   0  0  0  0  0  0  0  0  0  0  0  0
    1.6585   -0.9549    0.0000 C   0  0  0  0  0  0  0  0  0  0  0  0
   -0.9395    0.5451    0.0000 C   0  0  0  0  0  0  0  0  0  0  0  0
    1.6590    0.5459    0.0000 C   0  0  0  0  0  0  0  0  0  0  0  0
    2.9582    1.2957    0.0000 O   0  0  0  0  0  0  0  0  0  0  0  0
  5  4  1  0
  7  1  2  0
  7  2  1  0
  8  3  1  0
  8  4  2  0
  9  5  1  0
  9  6  1  0
  9  7  1  6
 10  6  1  0
 10  8  1  0
 11 10  2  0
M  END
>  <NAME>  (4292) 
(S)-2-METHYL-5-(1-METHYLETHENYL)-2-CYCLOHEXEN-1-ONE

>  <SYNONYMS>  (4292) 
L-CARVONE

>  <SPECTRUM TYPE>  (4292) 
MS1

>  <INSTRUMENT TYPE>  (4292) 
EI-B

>  <INSTRUMENT>  (4292) 
JEOL JMS-D-300

>  <ION MODE>  (4292) 
P

>  <INCHIKEY>  (4292) 
ULDHMXUKGWMISQ-VIFPVBQESA-N

>  <FORMULA>  (4292) 
C10H14O

>  <EXACT MASS>  (4292) 
150.104465068

>  <MW>  (4292) 
150

>  <ID>  (4292) 
JP005801

>  <CONTRIBUTOR>  (4292) 
University of Tokyo Team, {Faculty of Engineering, University of Tokyo

>  <COMMENT>  (4292) 
SMILES=CC(=C)C([H])(C1)CC(=O)C(C)=C([H])1
cas=2244-16-8
InChI=InChI=1S/C10H14O/c1-7(2)9-5-4-8(3)10(11)6-9/h4,9H,1,5-6H2,2-3H3/t9-/m0/s1
computed SMILES=O=C1C(=CCC(C(=C)C)C1)C
accession=JP005801
date=2016.01.19 (Created 2008.10.21, modified 2011.05.06)
author=FUJISE Y, HAMAMATSU UNIV. SCHOOL OF MEDICINE
license=CC BY-NC-SA
exact mass=150.10447
ionization energy=70 eV
ion type=[M]+*
computed spectral entropy=2.8013378983161683
computed normalized entropy=0.7757966162860755
SPLASH=splash10-0a59-9200000000-b8485ca29dc163ef7386
submitter=submitter = University of Tokyo Team (Faculty of Engineering, University of Tokyo)
MoNA Rating=3.75

>  <NUM PEAKS>  (4292) 
37

>  <MASS SPECTRAL PEAKS>  (4292) 
51 1.37
52 3.9
53 1.66
54 10.29
55 37.45
56 3.65
58 12.54
63 1.27
65 4.05
66 1.5
67 6.3
68 1.74
69 3.87
77 6.38
78 1.62
79 9.35
80 4.4
81 2.25
82 99.99
83 5.36
91 8.12
92 4.89
93 25.63
94 5.72
95 3.72
105 2.64
106 13.23
107 16
108 29.94
109 3.77
117 0.9
119 1.03
121 1.58
122 1.51
135 3.04
150 10.11
151 1.02

$$$$

     RDKit          2D

 11 11  0  0  1  0  0  0  0  0999 V2000
   -2.2386    2.7951    0.0000 C   0  0  0  0  0  0  0  0  0  0  0  0
   -3.5376    0.5451    0.0000 C   0  0  0  0  0  0  0  0  0  0  0  0
    2.9576   -1.7049    0.0000 C   0  0  0  0  0  0  0  0  0  0  0  0
    0.3590   -1.7058    0.0000 C   0  0  0  0  0  0  0  0  0  0  0  0
   -0.9400   -0.9558    0.0000 C   0  0  0  0  0  0  0  0  0  0  0  0
    0.3600    1.2959    0.0000 C   0  0  0  0  0  0  0  0  0  0  0  0
   -2.2386    1.2951    0.0000 C   0  0  0  0  0  0  0  0  0  0  0  0
    1.6585   -0.9549    0.0000 C   0  0  0  0  0  0  0  0  0  0  0  0
   -0.9395    0.5451    0.0000 C   0  0  0  0  0  0  0  0  0  0  0  0
    1.6590    0.5459    0.0000 C   0  0  0  0  0  0  0  0  0  0  0  0
    2.9582    1.2957    0.0000 O   0  0  0  0  0  0  0  0  0  0  0  0
  5  4  1  0
  7  1  2  0
  7  2  1  0
  8  3  1  0
  8  4  2  0
  9  5  1  0
  9  6  1  0
  9  7  1  1
 10  6  1  0
 10  8  1  0
 10 11  1  6
M  END
>  <NAME>  (4293) 
(1S-TRANS)-2-METHYL-5-(1-METHYLETHENYL)-2-CYCLOHEXEN-1-OL

>  <SYNONYMS>  (4293) 
L-CARVEOL

>  <SPECTRUM TYPE>  (4293) 
MS1

>  <INSTRUMENT TYPE>  (4293) 
EI-B

>  <INSTRUMENT>  (4293) 
JEOL JMS-D-300

>  <ION MODE>  (4293) 
P

>  <INCHIKEY>  (4293) 
BAVONGHXFVOKBV-ZJUUUORDSA-N

>  <FORMULA>  (4293) 
C10H16O

>  <EXACT MASS>  (4293) 
152.120115132

>  <MW>  (4293) 
152

>  <ID>  (4293) 
JP005800

>  <CONTRIBUTOR>  (4293) 
University of Tokyo Team, {Faculty of Engineering, University of Tokyo

>  <COMMENT>  (4293) 
SMILES=CC(=C)C([H])(C1)CC([H])(O)C(C)=C([H])1
cas=2102-58-1
InChI=InChI=1S/C10H16O/c1-7(2)9-5-4-8(3)10(11)6-9/h4,9-11H,1,5-6H2,2-3H3/t9-,10+/m1/s1
computed SMILES=OC1C(=CCC(C(=C)C)C1)C
accession=JP005800
date=2016.01.19 (Created 2008.10.21, modified 2011.05.06)
author=FUJISE Y, HAMAMATSU UNIV. SCHOOL OF MEDICINE
license=CC BY-NC-SA
exact mass=152.12012
ionization energy=70 eV
ion type=[M]+*
computed spectral entropy=3.542120620321702
computed normalized entropy=0.8424208238163116
SPLASH=splash10-05nf-9700000000-a75055e28480ba00b820
submitter=submitter = University of Tokyo Team (Faculty of Engineering, University of Tokyo)
MoNA Rating=3.75

>  <NUM PEAKS>  (4293) 
67

>  <MASS SPECTRAL PEAKS>  (4293) 
51 5.56
52 15.04
53 3.82
54 15.67
56 24.52
57 7.56
61 0.82
62 2.55
63 6.83
64 3.55
65 18.5
66 5.74
67 14.22
68 7.47
69 16.77
70 2.46
72 1.36
75 2.18
76 1.54
77 36.91
78 9.66
79 20.78
80 12.21
81 10.2
83 23.06
84 54.14
85 4.55
89 3.09
91 95.89
92 38.65
93 33.91
94 8.02
95 8.75
96 8.2
97 2.91
99 2.64
100 1.18
103 6.65
104 4.74
105 31.81
106 8.56
107 3.64
108 7.47
109 77.3
110 10.02
111 1.64
114 1.36
115 9.57
116 3.64
117 21.6
118 3.28
119 99.99
120 10.2
121 2.91
123 7.47
124 2.64
127 2.55
129 1.91
130 1.73
131 3.28
132 10.57
133 5.74
134 63.62
135 6.28
137 7.93
152 14.22
153 1.91

$$$$

     RDKit          2D

 11 11  0  0  1  0  0  0  0  0999 V2000
   -2.2386   -2.4551    0.0000 C   0  0  0  0  0  0  0  0  0  0  0  0
   -3.5376   -0.2051    0.0000 C   0  0  0  0  0  0  0  0  0  0  0  0
    2.9576    2.0449    0.0000 C   0  0  0  0  0  0  0  0  0  0  0  0
    0.3590    2.0458    0.0000 C   0  0  0  0  0  0  0  0  0  0  0  0
   -0.9400    1.2958    0.0000 C   0  0  0  0  0  0  0  0  0  0  0  0
    1.6590   -0.2059    0.0000 C   0  0  0  0  0  0  0  0  0  0  0  0
   -2.2386   -0.9551    0.0000 C   0  0  0  0  0  0  0  0  0  0  0  0
    1.6585    1.2949    0.0000 C   0  0  0  0  0  0  0  0  0  0  0  0
   -0.9395   -0.2051    0.0000 C   0  0  0  0  0  0  0  0  0  0  0  0
    0.3600   -0.9559    0.0000 C   0  0  0  0  0  0  0  0  0  0  0  0
    0.3597   -2.4559    0.0000 O   0  0  0  0  0  0  0  0  0  0  0  0
  5  4  1  0
  7  1  2  0
  7  2  1  0
  8  3  1  1
  8  4  1  0
  8  6  1  0
  9  5  1  0
  9  7  1  6
 10  6  1  0
 10  9  1  0
 10 11  1  1
M  END
>  <NAME>  (4294) 
(1R-(1ALPHA,2BETA,5ALPHA))-5-METHYL-2-(1-M

>  <SYNONYMS>  (4294) 
ETHYLETHENYL)CYCLOHEXANOLISO-PULEGOL

>  <SPECTRUM TYPE>  (4294) 
MS1

>  <INSTRUMENT TYPE>  (4294) 
EI-B

>  <INSTRUMENT>  (4294) 
JEOL JMS-D-300

>  <ION MODE>  (4294) 
P

>  <INCHIKEY>  (4294) 
ZYTMANIQRDEHIO-KXUCPTDWSA-N

>  <FORMULA>  (4294) 
C10H18O

>  <EXACT MASS>  (4294) 
154.135765196

>  <MW>  (4294) 
154

>  <ID>  (4294) 
JP005798

>  <CONTRIBUTOR>  (4294) 
University of Tokyo Team, {Faculty of Engineering, University of Tokyo

>  <COMMENT>  (4294) 
SMILES=CC(=C)C([H])(C1)C([H])(O)CC([H])(C)C1
cas=89-79-2
InChI=InChI=1S/C10H18O/c1-7(2)9-5-4-8(3)6-10(9)11/h8-11H,1,4-6H2,2-3H3/t8-,9+,10-/m1/s1
computed SMILES=OC1CC(C)CCC1C(=C)C
accession=JP005798
date=2016.01.19 (Created 2008.10.21, modified 2011.05.06)
author=FUJISE Y, HAMAMATSU UNIV. SCHOOL OF MEDICINE
license=CC BY-NC-SA
exact mass=154.13577
ionization energy=70 eV
ion type=[M]+*
computed spectral entropy=3.6184392832319663
computed normalized entropy=0.8575501068035011
SPLASH=splash10-06di-9200000000-2ce50fb75d3deb9eb8e7
submitter=submitter = University of Tokyo Team (Faculty of Engineering, University of Tokyo)
MoNA Rating=3.75

>  <NUM PEAKS>  (4294) 
68

>  <MASS SPECTRAL PEAKS>  (4294) 
51 1.7
52 10.22
53 5.56
54 38.71
55 8.83
56 88.46
57 62.7
58 4.71
63 2.49
64 1.05
65 10.87
66 5.9
67 80.68
68 90.59
69 98.43
70 26.27
71 89.06
72 9.71
73 2.32
77 24.05
78 4.6
79 60.15
80 30.78
81 99.99
82 20.7
83 36.52
84 59.95
85 17.09
86 2.1
91 20.93
92 16.87
93 85.08
94 29.33
95 54.35
96 12.07
97 33.05
98 23.43
99 5.05
103 1.53
104 0.93
105 8.32
106 2.69
107 34.59
108 10.3
109 25.24
110 28.34
111 38.68
112 20.93
113 2.13
115 1.67
117 2.27
119 5.87
120 1.53
121 84.03
122 8.46
123 8.88
124 1.39
125 2.55
132 1.44
134 1.76
135 1.56
136 54.21
137 5.9
139 19.82
140 1.9
145 1.22
154 15.33
155 2.27

$$$$

     RDKit          2D

 11 11  0  0  1  0  0  0  0  0999 V2000
   -3.5376   -0.2051    0.0000 C   0  0  0  0  0  0  0  0  0  0  0  0
   -2.2386   -2.4551    0.0000 C   0  0  0  0  0  0  0  0  0  0  0  0
    2.9576    2.0449    0.0000 C   0  0  0  0  0  0  0  0  0  0  0  0
    0.3590    2.0458    0.0000 C   0  0  0  0  0  0  0  0  0  0  0  0
   -0.9400    1.2958    0.0000 C   0  0  0  0  0  0  0  0  0  0  0  0
    1.6590   -0.2059    0.0000 C   0  0  0  0  0  0  0  0  0  0  0  0
   -2.2386   -0.9551    0.0000 C   0  0  0  0  0  0  0  0  0  0  0  0
    1.6585    1.2949    0.0000 C   0  0  0  0  0  0  0  0  0  0  0  0
   -0.9395   -0.2051    0.0000 C   0  0  0  0  0  0  0  0  0  0  0  0
    0.3600   -0.9559    0.0000 C   0  0  0  0  0  0  0  0  0  0  0  0
    0.3597   -2.4559    0.0000 O   0  0  0  0  0  0  0  0  0  0  0  0
  5  4  1  0
  7  1  1  0
  7  2  1  0
  8  3  1  0
  8  4  1  0
  8  6  2  0
  9  5  1  0
  9  7  1  6
 10  6  1  0
 10  9  1  0
 10 11  1  6
M  END
>  <NAME>  (4295) 
3-METHYL-6-(1-METHYLETHYL)-2-CYCLOGEXEN-1-OL

>  <SYNONYMS>  (4295) 
(+)CIS-PIPERITOL

>  <SPECTRUM TYPE>  (4295) 
MS1

>  <INSTRUMENT TYPE>  (4295) 
EI-B

>  <INSTRUMENT>  (4295) 
JEOL JMS-D-300

>  <ION MODE>  (4295) 
P

>  <INCHIKEY>  (4295) 
HPOHAUWWDDPHRS-UWVGGRQHSA-N

>  <FORMULA>  (4295) 
C10H18O

>  <EXACT MASS>  (4295) 
154.135765196

>  <MW>  (4295) 
154

>  <ID>  (4295) 
JP005797

>  <CONTRIBUTOR>  (4295) 
University of Tokyo Team, {Faculty of Engineering, University of Tokyo

>  <COMMENT>  (4295) 
SMILES=CC(C1)=C([H])C([H])(O)C([H])(C1)C(C)C
cas=491-04-3
InChI=InChI=1S/C10H18O/c1-7(2)9-5-4-8(3)6-10(9)11/h6-7,9-11H,4-5H2,1-3H3/t9-,10-/m0/s1
computed SMILES=OC1C=C(C)CCC1C(C)C
accession=JP005797
date=2016.01.19 (Created 2008.10.21, modified 2011.05.06)
author=FUJISE Y, HAMAMATSU UNIV. SCHOOL OF MEDICINE
license=CC BY-NC-SA
exact mass=154.13577
ionization energy=70 eV
ion type=[M]+*
computed spectral entropy=3.0652078270506387
computed normalized entropy=0.7961273551406742
SPLASH=splash10-000x-9200000000-b13d6efa256d01cc8a24
submitter=submitter = University of Tokyo Team (Faculty of Engineering, University of Tokyo)
MoNA Rating=3.75

>  <NUM PEAKS>  (4295) 
47

>  <MASS SPECTRAL PEAKS>  (4295) 
51 0.97
52 4.21
53 1.65
54 5.33
55 8.63
56 2.65
57 3.32
59 1.17
63 1.37
65 5.35
66 1.33
67 6.15
68 1.35
69 9.7
70 1.73
71 12.17
77 26.73
78 4.48
79 15.67
80 5.68
81 6.69
82 1.27
83 25.93
84 99.99
85 6.37
91 27.83
92 14.42
93 91.97
94 12.02
95 3.73
96 1.13
97 5.2
105 4.07
106 0.99
107 3.48
108 1.22
111 10.45
112 7.81
119 3.47
121 20.5
122 2.09
136 24.03
137 3
139 31.51
140 3.36
154 11.45
155 1.24

$$$$

     RDKit          2D

 16 15  0  0  0  0  0  0  0  0999 V2000
    3.8971    6.7500    0.0000 C   0  0  0  0  0  0  0  0  0  0  0  0
  -11.6913    6.7500    0.0000 C   0  0  0  0  0  0  0  0  0  0  0  0
  -10.3923    9.0000    0.0000 C   0  0  0  0  0  0  0  0  0  0  0  0
   -5.1962    9.0000    0.0000 C   0  0  0  0  0  0  0  0  0  0  0  0
    2.5981    7.5000    0.0000 C   0  0  0  0  0  0  0  0  0  0  0  0
   -7.7942    7.5000    0.0000 C   0  0  0  0  0  0  0  0  0  0  0  0
    1.2990    6.7500    0.0000 C   0  0  0  0  0  0  0  0  0  0  0  0
   -9.0933    6.7500    0.0000 C   0  0  0  0  0  0  0  0  0  0  0  0
   -6.4952    6.7500    0.0000 C   0  0  0  0  0  0  0  0  0  0  0  0
   -3.8971    6.7500    0.0000 C   0  0  0  0  0  0  0  0  0  0  0  0
   -2.5981    7.5000    0.0000 C   0  0  0  0  0  0  0  0  0  0  0  0
  -10.3923    7.5000    0.0000 C   0  0  0  0  0  0  0  0  0  0  0  0
   -5.1962    7.5000    0.0000 C   0  0  0  0  0  0  0  0  0  0  0  0
    0.0000    7.5000    0.0000 C   0  0  0  0  0  0  0  0  0  0  0  0
    0.0000    9.0000    0.0000 O   0  0  0  0  0  0  0  0  0  0  0  0
   -1.2990    6.7500    0.0000 O   0  0  0  0  0  0  0  0  0  0  0  0
  5  1  1  0
  7  5  1  0
  8  6  1  0
  9  6  1  0
 11 10  1  0
 12  2  1  0
 12  3  1  0
 12  8  2  0
 13  4  1  0
 13  9  1  0
 10 13  2  0
 14  7  1  0
 15 14  2  0
 16 11  1  0
 16 14  1  0
M  END
>  <NAME>  (4296) 
(E)-3,7-DIMETHYL-2,6-OCTADIEN-1-YL BUTYRATE

>  <SYNONYMS>  (4296) 
GERANYL BUTYRATE

>  <SPECTRUM TYPE>  (4296) 
MS1

>  <INSTRUMENT TYPE>  (4296) 
EI-B

>  <INSTRUMENT>  (4296) 
JEOL JMS-D-300

>  <ION MODE>  (4296) 
P

>  <INCHIKEY>  (4296) 
ZSBOMYJPSRFZAL-JLHYYAGUSA-N

>  <FORMULA>  (4296) 
C14H24O2

>  <EXACT MASS>  (4296) 
224.177630008

>  <MW>  (4296) 
224

>  <ID>  (4296) 
JP005796

>  <CONTRIBUTOR>  (4296) 
University of Tokyo Team, {Faculty of Engineering, University of Tokyo

>  <COMMENT>  (4296) 
SMILES=CCCC(=O)OCC([H])=C(C)CCC=C(C)C
InChI=InChI=1S/C14H24O2/c1-5-7-14(15)16-11-10-13(4)9-6-8-12(2)3/h8,10H,5-7,9,11H2,1-4H3/b13-10+
computed SMILES=O=C(OCC=C(C)CCC=C(C)C)CCC
accession=JP005796
date=2016.01.19 (Created 2008.10.21, modified 2011.05.06)
author=FUJISE Y, HAMAMATSU UNIV. SCHOOL OF MEDICINE
license=CC BY-NC-SA
exact mass=224.17763
ionization energy=70 eV
ion type=[M]+*
computed spectral entropy=3.035567337782747
computed normalized entropy=0.8070741370864258
SPLASH=splash10-00kf-9100000000-7627e05953e90b0b69d4
submitter=submitter = University of Tokyo Team (Faculty of Engineering, University of Tokyo)
MoNA Rating=3.75

>  <NUM PEAKS>  (4296) 
43

>  <MASS SPECTRAL PEAKS>  (4296) 
51 4.07
52 1.5
53 9.79
55 7.03
60 58.24
61 1.82
65 4.74
66 1.39
67 16.96
68 36.19
69 60.99
70 3.31
71 22.17
72 1.01
73 16.67
77 21.77
78 2.96
79 24.15
80 19.43
81 9.07
82 1.62
85 1.19
87 1.02
88 2.14
91 24.45
92 18.45
93 99.99
94 13.92
95 2.69
103 1.65
105 9.72
106 2.42
107 9.85
108 2.11
119 2.3
121 30.69
122 3.19
123 1.39
136 26.04
137 3.46
154 1.08
155 0.68
207 0.06

$$$$

     RDKit          2D

 16 15  0  0  0  0  0  0  0  0999 V2000
    3.8971    6.0000    0.0000 C   0  0  0  0  0  0  0  0  0  0  0  0
    2.5981    8.2500    0.0000 C   0  0  0  0  0  0  0  0  0  0  0  0
  -10.3923    6.7500    0.0000 C   0  0  0  0  0  0  0  0  0  0  0  0
   -9.0933    4.5000    0.0000 C   0  0  0  0  0  0  0  0  0  0  0  0
   -2.5981    8.2500    0.0000 C   0  0  0  0  0  0  0  0  0  0  0  0
    0.0000    6.7500    0.0000 C   0  0  0  0  0  0  0  0  0  0  0  0
    1.2990    6.0000    0.0000 C   0  0  0  0  0  0  0  0  0  0  0  0
   -1.2990    6.0000    0.0000 C   0  0  0  0  0  0  0  0  0  0  0  0
   -3.8971    6.0000    0.0000 C   0  0  0  0  0  0  0  0  0  0  0  0
   -5.1962    6.7500    0.0000 C   0  0  0  0  0  0  0  0  0  0  0  0
    2.5981    6.7500    0.0000 C   0  0  0  0  0  0  0  0  0  0  0  0
   -9.0933    6.0000    0.0000 C   0  0  0  0  0  0  0  0  0  0  0  0
   -2.5981    6.7500    0.0000 C   0  0  0  0  0  0  0  0  0  0  0  0
   -7.7942    6.7500    0.0000 C   0  0  0  0  0  0  0  0  0  0  0  0
   -7.7942    8.2500    0.0000 O   0  0  0  0  0  0  0  0  0  0  0  0
   -6.4952    6.0000    0.0000 O   0  0  0  0  0  0  0  0  0  0  0  0
  7  6  1  0
  8  6  1  0
 10  9  1  0
 11  1  1  0
 11  2  1  0
 11  7  2  0
 12  3  1  0
 12  4  1  0
 13  5  1  0
 13  8  1  0
  9 13  2  0
 14 12  1  0
 15 14  2  0
 16 10  1  0
 16 14  1  0
M  END
>  <NAME>  (4297) 
(E)-3,7-DIMETHYL-2,6-OCTADIEN-1-YL ISOBUTYRATE

>  <SYNONYMS>  (4297) 
GERANYL ISOBUTYRATE

>  <SPECTRUM TYPE>  (4297) 
MS1

>  <INSTRUMENT TYPE>  (4297) 
EI-B

>  <INSTRUMENT>  (4297) 
JEOL JMS-D-300

>  <ION MODE>  (4297) 
P

>  <INCHIKEY>  (4297) 
OGJYXQFXLSCKTP-UKTHLTGXSA-N

>  <FORMULA>  (4297) 
C14H24O2

>  <EXACT MASS>  (4297) 
224.177630008

>  <MW>  (4297) 
224

>  <ID>  (4297) 
JP005795

>  <CONTRIBUTOR>  (4297) 
University of Tokyo Team, {Faculty of Engineering, University of Tokyo

>  <COMMENT>  (4297) 
SMILES=CC(C)=CCCC(C)=C([H])COC(=O)C(C)C
InChI=InChI=1S/C14H24O2/c1-11(2)7-6-8-13(5)9-10-16-14(15)12(3)4/h7,9,12H,6,8,10H2,1-5H3/b13-9+
computed SMILES=O=C(OCC=C(C)CCC=C(C)C)C(C)C
accession=JP005795
date=2016.01.19 (Created 2008.10.21, modified 2011.05.06)
author=FUJISE Y, HAMAMATSU UNIV. SCHOOL OF MEDICINE
license=CC BY-NC-SA
exact mass=224.17763
ionization energy=70 eV
ion type=[M]+*
computed spectral entropy=3.0276065002648234
computed normalized entropy=0.790778290973182
SPLASH=splash10-00kf-9100000000-6145fa1c542d3bb735c5
submitter=submitter = University of Tokyo Team (Faculty of Engineering, University of Tokyo)
MoNA Rating=3.75

>  <NUM PEAKS>  (4297) 
46

>  <MASS SPECTRAL PEAKS>  (4297) 
51 4.22
52 1.83
53 9.91
54 1.06
55 6.74
63 0.91
65 4.58
66 1.61
67 16.57
68 37.55
69 60.77
70 3.93
71 20.47
72 0.98
73 18.98
77 19.3
78 2.92
79 21.75
80 23.38
81 8.98
82 1.28
88 7.38
89 0.9
91 21.93
92 19.33
93 99.99
94 13.84
95 2.28
103 1.34
105 7.96
106 2.14
107 10.33
108 2.35
119 3
121 31.55
122 3.09
123 1.19
136 27.38
137 3.6
138 0.14
139 0.17
153 0.15
154 0.78
155 0.85
156 0.14
224 0.24

$$$$

     RDKit          2D

 15 14  0  0  0  0  0  0  0  0999 V2000
    3.5724    6.5625    0.0000 C   0  0  0  0  0  0  0  0  0  0  0  0
  -10.7171    7.3125    0.0000 C   0  0  0  0  0  0  0  0  0  0  0  0
   -9.4180    5.0625    0.0000 C   0  0  0  0  0  0  0  0  0  0  0  0
   -4.2219    5.0625    0.0000 C   0  0  0  0  0  0  0  0  0  0  0  0
    2.2733    7.3125    0.0000 C   0  0  0  0  0  0  0  0  0  0  0  0
   -6.8200    6.5625    0.0000 C   0  0  0  0  0  0  0  0  0  0  0  0
   -8.1190    7.3125    0.0000 C   0  0  0  0  0  0  0  0  0  0  0  0
   -5.5209    7.3125    0.0000 C   0  0  0  0  0  0  0  0  0  0  0  0
   -2.9228    7.3125    0.0000 C   0  0  0  0  0  0  0  0  0  0  0  0
   -1.6238    6.5625    0.0000 C   0  0  0  0  0  0  0  0  0  0  0  0
   -9.4180    6.5625    0.0000 C   0  0  0  0  0  0  0  0  0  0  0  0
   -4.2219    6.5625    0.0000 C   0  0  0  0  0  0  0  0  0  0  0  0
    0.9743    6.5625    0.0000 C   0  0  0  0  0  0  0  0  0  0  0  0
    0.9743    5.0625    0.0000 O   0  0  0  0  0  0  0  0  0  0  0  0
   -0.3248    7.3125    0.0000 O   0  0  0  0  0  0  0  0  0  0  0  0
  5  1  1  0
  7  6  1  0
  8  6  1  0
 10  9  1  0
 11  2  1  0
 11  3  1  0
 11  7  2  0
 12  4  1  0
 12  8  1  0
  9 12  2  0
 13  5  1  0
 14 13  2  0
 15 10  1  0
 15 13  1  0
M  END
>  <NAME>  (4298) 
(E)-3,7-DIMETHYL-2,6-OCTADIEN-1-YL PROPIONATE

>  <SYNONYMS>  (4298) 
GERANYL PROPIONATE

>  <SPECTRUM TYPE>  (4298) 
MS1

>  <INSTRUMENT TYPE>  (4298) 
EI-B

>  <INSTRUMENT>  (4298) 
JEOL JMS-D-300

>  <ION MODE>  (4298) 
P

>  <INCHIKEY>  (4298) 
BYCHQEILESTMQU-FMIVXFBMSA-N

>  <FORMULA>  (4298) 
C13H22O2

>  <EXACT MASS>  (4298) 
210.161979944

>  <MW>  (4298) 
210

>  <ID>  (4298) 
JP005794

>  <CONTRIBUTOR>  (4298) 
University of Tokyo Team, {Faculty of Engineering, University of Tokyo

>  <COMMENT>  (4298) 
SMILES=CCC(=O)OCC([H])=C(C)CCC=C(C)C
InChI=InChI=1S/C13H22O2/c1-5-13(14)15-10-9-12(4)8-6-7-11(2)3/h7,9H,5-6,8,10H2,1-4H3/b12-9+
computed SMILES=O=C(OCC=C(C)CCC=C(C)C)CC
accession=JP005794
date=2016.01.19 (Created 2008.10.21, modified 2011.05.06)
author=FUJISE Y, HAMAMATSU UNIV. SCHOOL OF MEDICINE
license=CC BY-NC-SA
exact mass=210.16198
ionization energy=70 eV
ion type=[M]+*
computed spectral entropy=3.13712557462976
computed normalized entropy=0.8148065734509485
SPLASH=splash10-00kf-9200000000-73b9877230faa7aab525
submitter=submitter = University of Tokyo Team (Faculty of Engineering, University of Tokyo)
MoNA Rating=3.75

>  <NUM PEAKS>  (4298) 
47

>  <MASS SPECTRAL PEAKS>  (4298) 
51 4.94
52 2.3
53 10.09
54 1.19
55 6.17
56 2
57 20.82
58 1.41
63 1.27
65 5.33
66 2.05
67 17.12
68 33.72
69 51.65
70 3.28
73 10.45
74 15.4
75 1
77 21.79
78 4.11
79 22.93
80 18.15
81 7.5
82 2.05
85 2.08
91 24.32
92 20.35
93 99.99
94 14.51
95 3.3
103 1.33
105 8.92
106 2.66
107 11
108 2.72
109 1.27
115 1.3
117 1.27
119 3.86
120 0.97
121 28.49
122 2.5
123 1.33
136 26.93
137 3.19
154 0.88
159 1.69

$$$$

     RDKit          2D

 14 13  0  0  0  0  0  0  0  0999 V2000
   -8.7685    6.1875    0.0000 C   0  0  0  0  0  0  0  0  0  0  0  0
   -7.4695    3.9375    0.0000 C   0  0  0  0  0  0  0  0  0  0  0  0
   -2.2733    3.9375    0.0000 C   0  0  0  0  0  0  0  0  0  0  0  0
    4.2219    6.1875    0.0000 C   0  0  0  0  0  0  0  0  0  0  0  0
   -4.8714    5.4375    0.0000 C   0  0  0  0  0  0  0  0  0  0  0  0
   -6.1704    6.1875    0.0000 C   0  0  0  0  0  0  0  0  0  0  0  0
   -3.5724    6.1875    0.0000 C   0  0  0  0  0  0  0  0  0  0  0  0
   -0.9743    6.1875    0.0000 C   0  0  0  0  0  0  0  0  0  0  0  0
    0.3248    5.4375    0.0000 C   0  0  0  0  0  0  0  0  0  0  0  0
   -7.4695    5.4375    0.0000 C   0  0  0  0  0  0  0  0  0  0  0  0
   -2.2733    5.4375    0.0000 C   0  0  0  0  0  0  0  0  0  0  0  0
    2.9228    5.4375    0.0000 C   0  0  0  0  0  0  0  0  0  0  0  0
    2.9228    3.9375    0.0000 O   0  0  0  0  0  0  0  0  0  0  0  0
    1.6238    6.1875    0.0000 O   0  0  0  0  0  0  0  0  0  0  0  0
  6  5  1  0
  7  5  1  0
  9  8  1  0
 10  1  1  0
 10  2  1  0
 10  6  2  0
 11  3  1  0
 11  7  1  0
  8 11  2  0
 12  4  1  0
 13 12  2  0
 14  9  1  0
 14 12  1  0
M  END
>  <NAME>  (4299) 
(E)-3,7-DIMETHYL-2,6-OCTADIEN-1-YL ACETATE

>  <SYNONYMS>  (4299) 
GERANYL ACETATE

>  <SPECTRUM TYPE>  (4299) 
MS1

>  <INSTRUMENT TYPE>  (4299) 
EI-B

>  <INSTRUMENT>  (4299) 
JEOL JMS-D-300

>  <ION MODE>  (4299) 
P

>  <INCHIKEY>  (4299) 
HIGQPQRQIQDZMP-DHZHZOJOSA-N

>  <FORMULA>  (4299) 
C12H20O2

>  <EXACT MASS>  (4299) 
196.14632988

>  <MW>  (4299) 
196

>  <ID>  (4299) 
JP005793

>  <CONTRIBUTOR>  (4299) 
University of Tokyo Team, {Faculty of Engineering, University of Tokyo

>  <COMMENT>  (4299) 
SMILES=CC(C)=CCCC(C)=C([H])COC(C)=O
InChI=InChI=1S/C12H20O2/c1-10(2)6-5-7-11(3)8-9-14-12(4)13/h6,8H,5,7,9H2,1-4H3/b11-8+
computed SMILES=O=C(OCC=C(C)CCC=C(C)C)C
accession=JP005793
date=2016.01.19 (Created 2008.10.21, modified 2011.05.06)
author=FUJISE Y, HAMAMATSU UNIV. SCHOOL OF MEDICINE
license=CC BY-NC-SA
exact mass=196.14633
ionization energy=70 eV
ion type=[M]+*
computed spectral entropy=2.985440424192151
computed normalized entropy=0.8039268851032818
SPLASH=splash10-00kf-9200000000-47ea814eba89b6d74c80
submitter=submitter = University of Tokyo Team (Faculty of Engineering, University of Tokyo)
MoNA Rating=3.75

>  <NUM PEAKS>  (4299) 
41

>  <MASS SPECTRAL PEAKS>  (4299) 
51 4.02
52 1.95
53 10.89
54 0.99
55 7.32
60 18.44
63 1.13
65 5.13
66 1.68
67 19.52
68 37.92
69 64.09
70 3.94
77 21.01
78 4.01
79 23.76
80 22.34
81 8.69
82 1.47
84 1.39
85 2.99
91 23.93
92 20.26
93 99.99
94 14.02
95 3.14
103 1.38
105 8.73
106 2.71
107 9.1
108 2.24
109 1.04
115 0.96
117 1.09
119 3.77
121 30.81
122 2.87
123 1.38
127 0.95
136 28.73
137 3.11

$$$$

     RDKit          2D

 11 10  0  0  0  0  0  0  0  0999 V2000
   -6.8200    5.0625    0.0000 C   0  0  0  0  0  0  0  0  0  0  0  0
   -5.5209    2.8125    0.0000 C   0  0  0  0  0  0  0  0  0  0  0  0
   -0.3248    2.8125    0.0000 C   0  0  0  0  0  0  0  0  0  0  0  0
   -2.9228    4.3125    0.0000 C   0  0  0  0  0  0  0  0  0  0  0  0
   -4.2219    5.0625    0.0000 C   0  0  0  0  0  0  0  0  0  0  0  0
   -1.6238    5.0625    0.0000 C   0  0  0  0  0  0  0  0  0  0  0  0
    0.9743    5.0625    0.0000 C   0  0  0  0  0  0  0  0  0  0  0  0
    2.2733    4.3125    0.0000 C   0  0  0  0  0  0  0  0  0  0  0  0
   -5.5209    4.3125    0.0000 C   0  0  0  0  0  0  0  0  0  0  0  0
   -0.3248    4.3125    0.0000 C   0  0  0  0  0  0  0  0  0  0  0  0
    3.5724    5.0625    0.0000 O   0  0  0  0  0  0  0  0  0  0  0  0
  5  4  1  0
  6  4  1  0
  8  7  1  0
  9  1  1  0
  9  2  1  0
  9  5  2  0
 10  3  1  0
 10  6  1  0
  7 10  2  0
 11  8  1  0
M  END
>  <NAME>  (4300) 
(E)-3,7-DIMETHYL-2,6-OCTADIEN-1-OL

>  <SYNONYMS>  (4300) 
GERANIOL

>  <SPECTRUM TYPE>  (4300) 
MS1

>  <INSTRUMENT TYPE>  (4300) 
EI-B

>  <INSTRUMENT>  (4300) 
JEOL JMS-D-300

>  <ION MODE>  (4300) 
P

>  <INCHIKEY>  (4300) 
GLZPCOQZEFWAFX-JXMROGBWSA-N

>  <FORMULA>  (4300) 
C10H18O

>  <EXACT MASS>  (4300) 
154.135765196

>  <MW>  (4300) 
154

>  <ID>  (4300) 
JP005792

>  <CONTRIBUTOR>  (4300) 
University of Tokyo Team, {Faculty of Engineering, University of Tokyo

>  <COMMENT>  (4300) 
SMILES=OCC([H])=C(C)CCC=C(C)C
cas=106-24-1
InChI=InChI=1S/C10H18O/c1-9(2)5-4-6-10(3)7-8-11/h5,7,11H,4,6,8H2,1-3H3/b10-7+
computed SMILES=OCC=C(C)CCC=C(C)C
accession=JP005792
date=2016.01.19 (Created 2008.10.21, modified 2011.05.06)
author=FUJISE Y, HAMAMATSU UNIV. SCHOOL OF MEDICINE
license=CC BY-NC-SA
exact mass=154.13577
ionization energy=70 eV
ion type=[M]+*
computed spectral entropy=3.0348965376592743
computed normalized entropy=0.792682370420564
SPLASH=splash10-00kf-9200000000-4a8a23071f388f446451
submitter=submitter = University of Tokyo Team (Faculty of Engineering, University of Tokyo)
MoNA Rating=3.75

>  <NUM PEAKS>  (4300) 
46

>  <MASS SPECTRAL PEAKS>  (4300) 
51 4.08
52 2.42
53 9.53
54 1.04
55 8.6
57 0.96
59 1.61
63 1.09
65 4.25
66 1.63
67 17.68
68 25.32
69 55.7
70 4.06
71 4.82
77 20.58
78 3.16
79 22.17
80 17.59
81 7.9
82 1.37
83 1.79
84 3.14
91 23.85
92 17.39
93 99.99
94 12.55
95 2.72
96 1.74
97 1
103 1.48
105 8.64
106 2.81
107 8.05
108 1.85
109 1.17
111 2.16
115 0.96
117 1.11
119 3.33
121 25.86
122 3.03
123 2.99
136 22.78
137 2.61
154 0.98

$$$$

     RDKit          2D

 15 16  0  0  0  0  0  0  0  0999 V2000
    5.4292    3.3495    0.0000 C   0  0  0  0  0  0  0  0  0  0  0  0
    0.5941    2.6492    0.0000 C   0  0  0  0  0  0  0  0  0  0  0  0
   -1.3341    2.6492    0.0000 C   0  0  0  0  0  0  0  0  0  0  0  0
    1.6796   -2.0493    0.0000 C   0  0  0  0  0  0  0  0  0  0  0  0
   -1.6700   -0.7500    0.0000 C   0  0  0  0  0  0  0  0  0  0  0  0
    3.1796    2.0498    0.0000 C   0  0  0  0  0  0  0  0  0  0  0  0
   -1.6700    0.7500    0.0000 C   0  0  0  0  0  0  0  0  0  0  0  0
   -0.3700   -1.5000    0.0000 C   0  0  0  0  0  0  0  0  0  0  0  0
    1.6796    2.0493    0.0000 C   0  0  0  0  0  0  0  0  0  0  0  0
    3.9292    3.3490    0.0000 C   0  0  0  0  0  0  0  0  0  0  0  0
   -0.3700    1.5000    0.0000 C   0  0  0  0  0  0  0  0  0  0  0  0
    0.9300   -0.7500    0.0000 C   0  0  0  0  0  0  0  0  0  0  0  0
    0.9300    0.7500    0.0000 C   0  0  0  0  0  0  0  0  0  0  0  0
    3.1788    4.6478    0.0000 O   0  0  0  0  0  0  0  0  0  0  0  0
    2.2300   -0.0000    0.0000 O   0  0  0  0  0  0  0  0  0  0  0  0
  7  5  1  0
  8  5  1  0
  6  9  2  0
 10  1  1  0
 10  6  1  0
 11  2  1  0
 11  3  1  0
 11  7  1  0
 12  4  1  0
 12  8  1  0
 13  9  1  0
 13 11  1  0
 13 12  1  0
 14 10  2  0
 15 12  1  0
 15 13  1  0
M  END
>  <NAME>  (4301) 
(E)-4-(1,2-EPOXY-2,6,6-TRIMETHYLCYCLOHEXAN-1-YL)-3-BUTEN-2-ONE

>  <SYNONYMS>  (4301) 


>  <SPECTRUM TYPE>  (4301) 
MS1

>  <INSTRUMENT TYPE>  (4301) 
EI-B

>  <INSTRUMENT>  (4301) 
JEOL JMS-D-300

>  <ION MODE>  (4301) 
P

>  <INCHIKEY>  (4301) 
ZTJZJYUGOJYHCU-RMKNXTFCSA-N

>  <FORMULA>  (4301) 
C13H20O2

>  <EXACT MASS>  (4301) 
208.14632988

>  <MW>  (4301) 
208

>  <ID>  (4301) 
JP005791

>  <CONTRIBUTOR>  (4301) 
University of Tokyo Team, {Faculty of Engineering, University of Tokyo

>  <COMMENT>  (4301) 
SMILES=CC(=O)C([H])=C([H])C(O1)(C(C)(C)2)C(C)(CCC2)1
InChI=InChI=1S/C13H20O2/c1-10(14)6-9-13-11(2,3)7-5-8-12(13,4)15-13/h6,9H,5,7-8H2,1-4H3/b9-6+
computed SMILES=O=C(C=CC12OC2(C)CCCC1(C)C)C
accession=JP005791
date=2016.01.19 (Created 2008.10.21, modified 2011.05.06)
author=FUJISE Y, HAMAMATSU UNIV. SCHOOL OF MEDICINE
license=CC BY-NC-SA
exact mass=208.14633
ionization energy=70 eV
ion type=[M]+*
computed spectral entropy=3.069556122424831
computed normalized entropy=0.7625560095754611
SPLASH=splash10-00di-3900000000-642601a39cf4828a95cc
submitter=submitter = University of Tokyo Team (Faculty of Engineering, University of Tokyo)
MoNA Rating=3.75

>  <NUM PEAKS>  (4301) 
56

>  <MASS SPECTRAL PEAKS>  (4301) 
51 1.42
53 2.74
55 6.62
65 1.41
67 2.46
69 9.19
70 1.48
75 1.15
77 3.19
79 4.55
80 1.18
81 4.94
82 1.3
83 1.15
91 4.94
93 3.13
95 6.08
96 11.03
97 3.99
98 7.03
105 4.03
107 6.05
108 1.79
109 5.98
111 3.75
115 1.75
117 1.12
119 2.04
121 1.57
122 2.19
123 99.99
124 9.43
125 2.45
131 2.61
132 1.27
133 2.21
135 8.95
136 1.23
137 0.98
140 1.06
142 1.29
147 4.91
148 1.67
150 0.98
157 2.33
159 0.96
165 6.03
166 1.11
173 2.04
175 9.86
176 1.45
177 2.85
190 4.69
191 1.06
193 1.79
208 1.23

$$$$

     RDKit          2D

 15 15  0  0  0  0  0  0  0  0999 V2000
    3.3762    2.0892    0.0000 C   0  0  0  0  0  0  0  0  0  0  0  0
   -1.8200   -0.9121    0.0000 C   0  0  0  0  0  0  0  0  0  0  0  0
    5.0110   -2.0602    0.0000 C   0  0  0  0  0  0  0  0  0  0  0  0
    6.9391   -2.0602    0.0000 C   0  0  0  0  0  0  0  0  0  0  0  0
    7.2751    1.3390    0.0000 C   0  0  0  0  0  0  0  0  0  0  0  0
    5.9751    2.0890    0.0000 C   0  0  0  0  0  0  0  0  0  0  0  0
    3.3762   -0.9112    0.0000 C   0  0  0  0  0  0  0  0  0  0  0  0
    7.2751   -0.1610    0.0000 C   0  0  0  0  0  0  0  0  0  0  0  0
    2.0770   -0.1615    0.0000 C   0  0  0  0  0  0  0  0  0  0  0  0
    4.6751    1.3390    0.0000 C   0  0  0  0  0  0  0  0  0  0  0  0
   -0.5211   -0.1619    0.0000 C   0  0  0  0  0  0  0  0  0  0  0  0
    4.6751   -0.1610    0.0000 C   0  0  0  0  0  0  0  0  0  0  0  0
    5.9751   -0.9110    0.0000 C   0  0  0  0  0  0  0  0  0  0  0  0
   -0.5213    1.3381    0.0000 O   0  0  0  0  0  0  0  0  0  0  0  0
    0.7781   -0.9117    0.0000 O   0  0  0  0  0  0  0  0  0  0  0  0
  6  5  1  0
  8  5  1  0
  7  9  2  0
 10  1  1  0
 10  6  1  0
 11  2  1  0
 12  7  1  0
 12 10  2  0
 13  3  1  0
 13  4  1  0
 13  8  1  0
 13 12  1  0
 14 11  2  0
 15  9  1  0
 15 11  1  0
M  END
>  <NAME>  (4302) 
(E)-2-(2,6,6-TRIMETHYL-1-CYCLOHEXEN-1-YL)-ETHENE-1-YL ACETATE

>  <SYNONYMS>  (4302) 


>  <SPECTRUM TYPE>  (4302) 
MS1

>  <INSTRUMENT TYPE>  (4302) 
EI-B

>  <INSTRUMENT>  (4302) 
JEOL JMS-D-300

>  <ION MODE>  (4302) 
P

>  <INCHIKEY>  (4302) 
QQLXIJJAHMEDSX-VQHVLOKHSA-N

>  <FORMULA>  (4302) 
C13H20O2

>  <EXACT MASS>  (4302) 
208.14632988

>  <MW>  (4302) 
208

>  <ID>  (4302) 
JP005790

>  <CONTRIBUTOR>  (4302) 
University of Tokyo Team, {Faculty of Engineering, University of Tokyo

>  <COMMENT>  (4302) 
SMILES=CC(=O)OC([H])=C([H])C(=C(C)1)C(C)(C)CCC1
InChI=InChI=1S/C13H20O2/c1-10-6-5-8-13(3,4)12(10)7-9-15-11(2)14/h7,9H,5-6,8H2,1-4H3/b9-7+
computed SMILES=O=C(OC=CC1=C(C)CCCC1(C)C)C
accession=JP005790
date=2016.01.19 (Created 2008.10.21, modified 2011.05.06)
author=FUJISE Y, HAMAMATSU UNIV. SCHOOL OF MEDICINE
license=CC BY-NC-SA
exact mass=208.14633
ionization energy=70 eV
ion type=[M]+*
computed spectral entropy=2.877254287376622
computed normalized entropy=0.7649830370288762
SPLASH=splash10-0gb9-3900000000-7c83e4557650ce6a8ea2
submitter=submitter = University of Tokyo Team (Faculty of Engineering, University of Tokyo)
MoNA Rating=3.75

>  <NUM PEAKS>  (4302) 
43

>  <MASS SPECTRAL PEAKS>  (4302) 
52 1.81
54 4.58
55 7.21
57 3.61
65 2.91
67 5.24
69 5.37
71 2.21
77 4.57
79 5.73
80 1.31
81 14.05
82 1.57
83 3.2
84 2.53
91 8
92 1.77
93 11.08
94 2.26
95 23.49
96 2.74
97 5.61
105 5.27
107 9.34
108 2.8
109 7.45
110 18.2
111 3.82
121 3.14
122 3.09
123 7.62
124 1.07
133 7.43
134 1.18
135 2.34
137 2.35
151 92.68
152 9.63
166 99.99
167 11.22
168 0.98
208 19.28
209 2.27

$$$$

     RDKit          2D

 14 14  0  0  0  0  0  0  0  0999 V2000
    2.0789   -2.0602    0.0000 C   0  0  0  0  0  0  0  0  0  0  0  0
    5.9762    0.1908    0.0000 C   0  0  0  0  0  0  0  0  0  0  0  0
    0.4441    2.0892    0.0000 C   0  0  0  0  0  0  0  0  0  0  0  0
   -1.4841    2.0892    0.0000 C   0  0  0  0  0  0  0  0  0  0  0  0
   -1.8200   -1.3100    0.0000 C   0  0  0  0  0  0  0  0  0  0  0  0
   -0.5200   -2.0600    0.0000 C   0  0  0  0  0  0  0  0  0  0  0  0
    3.3781    0.1904    0.0000 C   0  0  0  0  0  0  0  0  0  0  0  0
    2.0789    0.9402    0.0000 C   0  0  0  0  0  0  0  0  0  0  0  0
   -1.8200    0.1900    0.0000 C   0  0  0  0  0  0  0  0  0  0  0  0
    0.7800   -1.3100    0.0000 C   0  0  0  0  0  0  0  0  0  0  0  0
    4.6770    0.9406    0.0000 C   0  0  0  0  0  0  0  0  0  0  0  0
    0.7800    0.1900    0.0000 C   0  0  0  0  0  0  0  0  0  0  0  0
   -0.5200    0.9400    0.0000 C   0  0  0  0  0  0  0  0  0  0  0  0
    4.6768    2.4406    0.0000 O   0  0  0  0  0  0  0  0  0  0  0  0
  6  5  1  0
  7  8  2  0
  9  5  1  0
 10  1  1  0
 10  6  1  0
 11  2  1  0
 11  7  1  0
 12  8  1  0
 12 10  2  0
 13  3  1  0
 13  4  1  0
 13  9  1  0
 13 12  1  0
 14 11  2  0
M  END
>  <NAME>  (4303) 
(E)-4-(2,6,6-TRIMETHYL-1-CYCLOHEXEN-1-YL)-3-BUTEN-2-ONE

>  <SYNONYMS>  (4303) 
BETA-IONONE

>  <SPECTRUM TYPE>  (4303) 
MS1

>  <INSTRUMENT TYPE>  (4303) 
EI-B

>  <INSTRUMENT>  (4303) 
JEOL JMS-D-300

>  <ION MODE>  (4303) 
P

>  <INCHIKEY>  (4303) 
PSQYTAPXSHCGMF-BQYQJAHWSA-N

>  <FORMULA>  (4303) 
C13H20O

>  <EXACT MASS>  (4303) 
192.15141526

>  <MW>  (4303) 
192

>  <ID>  (4303) 
JP005789

>  <CONTRIBUTOR>  (4303) 
University of Tokyo Team, {Faculty of Engineering, University of Tokyo

>  <COMMENT>  (4303) 
SMILES=CC(=O)C([H])=C([H])C(=C(C)1)C(C)(C)CCC1
cas=79-77-6
InChI=InChI=1S/C13H20O/c1-10-6-5-9-13(3,4)12(10)8-7-11(2)14/h7-8H,5-6,9H2,1-4H3/b8-7+
computed SMILES=O=C(C=CC1=C(C)CCCC1(C)C)C
accession=JP005789
date=2016.01.19 (Created 2008.10.21, modified 2011.05.06)
author=FUJISE Y, HAMAMATSU UNIV. SCHOOL OF MEDICINE
license=CC BY-NC-SA
exact mass=192.15142
ionization energy=70 eV
ion type=[M]+*
computed spectral entropy=3.0100815156118346
computed normalized entropy=0.7862009532603684
SPLASH=splash10-004i-3900000000-b2fd6907056260485dd2
submitter=submitter = University of Tokyo Team (Faculty of Engineering, University of Tokyo)
MoNA Rating=3.75

>  <NUM PEAKS>  (4303) 
46

>  <MASS SPECTRAL PEAKS>  (4303) 
52 2.37
53 1.05
54 3.63
55 1.74
65 3.93
67 3.49
69 5.56
71 2.96
77 6.47
78 1.57
79 6.6
80 0.97
81 5.18
91 9.85
92 1.65
93 11.17
94 1.88
95 7.88
96 1.35
105 6.43
106 1.15
107 8.18
108 1.47
109 6.35
110 1.96
117 1.63
119 6.23
121 8.32
122 6.9
123 4.31
131 1.64
133 6.04
134 1.6
135 14.09
136 4.41
147 1.14
149 7.11
150 1.11
159 4.44
161 1.51
162 3.28
177 99.99
178 14.22
179 0.98
192 10.1
193 1.59

$$$$

     RDKit          2D

 24 26  0  0  0  0  0  0  0  0999 V2000
   -2.9381    7.2156    0.0000 C   0  0  0  0  0  0  0  0  0  0  0  0
   -4.2334    4.9635    0.0000 C   0  0  0  0  0  0  0  0  0  0  0  0
   -4.2200    0.4700    0.0000 C   0  0  0  0  0  0  0  0  0  0  0  0
   -4.2200   -1.0300    0.0000 C   0  0  0  0  0  0  0  0  0  0  0  0
   -1.6328    3.4678    0.0000 C   0  0  0  0  0  0  0  0  0  0  0  0
   -2.9200    1.2200    0.0000 C   0  0  0  0  0  0  0  0  0  0  0  0
   -2.9200   -1.7800    0.0000 C   0  0  0  0  0  0  0  0  0  0  0  0
    3.5700   -1.0300    0.0000 C   0  0  0  0  0  0  0  0  0  0  0  0
    2.2700   -1.7800    0.0000 C   0  0  0  0  0  0  0  0  0  0  0  0
   -1.6353    4.9678    0.0000 C   0  0  0  0  0  0  0  0  0  0  0  0
   -0.3325    2.7200    0.0000 C   0  0  0  0  0  0  0  0  0  0  0  0
    2.2700    1.2200    0.0000 C   0  0  0  0  0  0  0  0  0  0  0  0
    3.5700    0.4700    0.0000 C   0  0  0  0  0  0  0  0  0  0  0  0
   -1.6200    0.4700    0.0000 C   0  0  0  0  0  0  0  0  0  0  0  0
    0.9700    0.4700    0.0000 C   0  0  0  0  0  0  0  0  0  0  0  0
   -1.6200   -1.0300    0.0000 C   0  0  0  0  0  0  0  0  0  0  0  0
    0.9700   -1.0300    0.0000 C   0  0  0  0  0  0  0  0  0  0  0  0
    4.8689    1.2202    0.0000 C   0  0  0  0  0  0  0  0  0  0  0  0
    5.6191   -0.0787    0.0000 F   0  0  0  0  0  0  0  0  0  0  0  0
    6.1678    1.9704    0.0000 F   0  0  0  0  0  0  0  0  0  0  0  0
    4.1187    2.5191    0.0000 F   0  0  0  0  0  0  0  0  0  0  0  0
   -2.9356    5.7156    0.0000 N   0  0  0  0  0  0  0  0  0  0  0  0
   -0.3300    1.2200    0.0000 N   0  0  0  0  0  0  0  0  0  0  0  0
   -0.3300   -1.7800    0.0000 S   0  0  0  0  0  0  0  0  0  0  0  0
  4  3  2  0
  6  3  1  0
  7  4  1  0
  9  8  1  0
 10  5  1  0
 11  5  1  0
 13  8  2  0
 13 12  1  0
 14  6  2  0
 15 12  2  0
 16  7  2  0
 16 14  1  0
 17  9  2  0
 17 15  1  0
 18 13  1  0
 19 18  1  0
 20 18  1  0
 21 18  1  0
 22  1  1  0
 22  2  1  0
 22 10  1  0
 23 11  1  0
 23 14  1  0
 23 15  1  0
 24 16  1  0
 24 17  1  0
M  END
>  <NAME>  (4304) 
TRIFLUOPROMAZINE

>  <SYNONYMS>  (4304) 
10-(3-DIMETHYLAMINO)PROPYL-2-TRIFLUOROMETHYLPHENOTHIAZINE

>  <SPECTRUM TYPE>  (4304) 
MS1

>  <INSTRUMENT TYPE>  (4304) 
EI-B

>  <INSTRUMENT>  (4304) 
JEOL JMS-D-300

>  <ION MODE>  (4304) 
P

>  <INCHIKEY>  (4304) 
XSCGXQMFQXDFCW-UHFFFAOYSA-N

>  <FORMULA>  (4304) 
C18H19F3N2S

>  <EXACT MASS>  (4304) 
352.122104268

>  <MW>  (4304) 
352

>  <ID>  (4304) 
JP005775

>  <CONTRIBUTOR>  (4304) 
University of Tokyo Team, {Faculty of Engineering, University of Tokyo

>  <COMMENT>  (4304) 
SMILES=CN(C)CCCN(c21)c(c3)c(ccc(C(F)(F)F)3)Sc(cccc2)1
InChI=InChI=1S/C18H19F3N2S/c1-22(2)10-5-11-23-14-6-3-4-7-16(14)24-17-9-8-13(12-15(17)23)18(19,20)21/h3-4,6-9,12H,5,10-11H2,1-2H3
computed SMILES=FC(F)(F)C1=CC=C2SC=3C=CC=CC3N(C2=C1)CCCN(C)C
accession=JP005775
date=2016.01.19 (Created 2008.10.21, modified 2011.05.06)
author=HAMAMATSU UNIV. SCHOOL OF MEDICINE
license=CC BY-NC-SA
exact mass=352.1221
ionization energy=70 eV
ion type=[M]+*
computed spectral entropy=2.347489358339606
computed normalized entropy=0.7122589660165912
SPLASH=splash10-0a4i-9013000000-ef47630a3d0764a3497f
submitter=submitter = University of Tokyo Team (Faculty of Engineering, University of Tokyo)
MoNA Rating=3.75

>  <NUM PEAKS>  (4304) 
27

>  <MASS SPECTRAL PEAKS>  (4304) 
57 1.83
58 99.99
59 5.44
70 3.81
71 2.28
72 3.94
84 3.43
85 17.36
86 30.17
87 1.68
196 1.32
197 1.18
222 1.16
247 1.14
248 5.61
266 6.79
267 4.63
268 1.07
280 3.87
281 2.65
292 1.22
306 16.12
307 8.01
308 2.07
352 28.62
353 6.46
354 2.05

$$$$

     RDKit          2D

 25 28  0  0  0  0  0  0  0  0999 V2000
   -3.8988    5.2526    0.0000 C   0  0  0  0  0  0  0  0  0  0  0  0
    6.4981    0.7504    0.0000 C   0  0  0  0  0  0  0  0  0  0  0  0
   -3.9000    0.7500    0.0000 C   0  0  0  0  0  0  0  0  0  0  0  0
   -3.9000   -0.7500    0.0000 C   0  0  0  0  0  0  0  0  0  0  0  0
   -0.0008    7.5010    0.0000 C   0  0  0  0  0  0  0  0  0  0  0  0
   -1.2955    8.2430    0.0000 C   0  0  0  0  0  0  0  0  0  0  0  0
   -0.0001    6.0002    0.0000 C   0  0  0  0  0  0  0  0  0  0  0  0
   -2.6000    1.5000    0.0000 C   0  0  0  0  0  0  0  0  0  0  0  0
   -2.6000   -1.5000    0.0000 C   0  0  0  0  0  0  0  0  0  0  0  0
    3.9000   -0.7500    0.0000 C   0  0  0  0  0  0  0  0  0  0  0  0
    2.6000   -1.5000    0.0000 C   0  0  0  0  0  0  0  0  0  0  0  0
   -1.2990    3.7500    0.0000 C   0  0  0  0  0  0  0  0  0  0  0  0
   -2.5944    7.4928    0.0000 C   0  0  0  0  0  0  0  0  0  0  0  0
    0.0000    3.0000    0.0000 C   0  0  0  0  0  0  0  0  0  0  0  0
    2.6000    1.5000    0.0000 C   0  0  0  0  0  0  0  0  0  0  0  0
   -1.2990    5.2500    0.0000 C   0  0  0  0  0  0  0  0  0  0  0  0
    3.9000    0.7500    0.0000 C   0  0  0  0  0  0  0  0  0  0  0  0
   -1.3000    0.7500    0.0000 C   0  0  0  0  0  0  0  0  0  0  0  0
    1.3000    0.7500    0.0000 C   0  0  0  0  0  0  0  0  0  0  0  0
   -1.3000   -0.7500    0.0000 C   0  0  0  0  0  0  0  0  0  0  0  0
    1.3000   -0.7500    0.0000 C   0  0  0  0  0  0  0  0  0  0  0  0
   -2.5987    6.0006    0.0000 N   0  0  0  0  0  0  0  0  0  0  0  0
   -0.0000    1.5000    0.0000 N   0  0  0  0  0  0  0  0  0  0  0  0
    5.1989    1.5002    0.0000 S   0  0  0  0  0  0  0  0  0  0  0  0
   -0.0000   -1.5000    0.0000 S   0  0  0  0  0  0  0  0  0  0  0  0
  4  3  2  0
  6  5  1  0
  7  5  1  0
  8  3  1  0
  9  4  1  0
 11 10  1  0
 13  6  1  0
 14 12  1  0
 16  7  1  0
 16 12  1  0
 17 10  2  0
 17 15  1  0
 18  8  2  0
 19 15  2  0
 20  9  2  0
 20 18  1  0
 21 11  2  0
 21 19  1  0
 22  1  1  0
 22 13  1  0
 22 16  1  0
 23 14  1  0
 23 18  1  0
 23 19  1  0
 24  2  1  0
 24 17  1  0
 25 20  1  0
 25 21  1  0
M  END
>  <NAME>  (4305) 
THIORIDAZINE

>  <SYNONYMS>  (4305) 
10-(2-(1-METHYL-2-PIPERIZYL)ETHYL)-2-(METHYLTHIO)-10H-PHENOTHIAZINE

>  <SPECTRUM TYPE>  (4305) 
MS1

>  <INSTRUMENT TYPE>  (4305) 
EI-B

>  <INSTRUMENT>  (4305) 
JEOL JMS-D-300

>  <ION MODE>  (4305) 
P

>  <INCHIKEY>  (4305) 
KLBQZWRITKRQQV-UHFFFAOYSA-N

>  <FORMULA>  (4305) 
C21H26N2S2

>  <EXACT MASS>  (4305) 
370.153740832

>  <MW>  (4305) 
370

>  <ID>  (4305) 
JP005774

>  <CONTRIBUTOR>  (4305) 
University of Tokyo Team, {Faculty of Engineering, University of Tokyo

>  <COMMENT>  (4305) 
SMILES=CSc(c4)cc(c(c4)1)N(CCC(C3)N(C)CCC3)c(c2)c(ccc2)S1
cas=50-52-2
InChI=InChI=1S/C21H26N2S2/c1-22-13-6-5-7-16(22)12-14-23-18-8-3-4-9-20(18)25-21-11-10-17(24-2)15-19(21)23/h3-4,8-11,15-16H,5-7,12-14H2,1-2H3
computed SMILES=S1C=2C=CC=CC2N(C3=CC(SC)=CC=C13)CCC4N(C)CCCC4
accession=JP005774
date=2016.01.19 (Created 2008.10.21, modified 2011.05.06)
author=HAMAMATSU UNIV. SCHOOL OF MEDICINE
license=CC BY-NC-SA
exact mass=370.15374
ionization energy=70 eV
ion type=[M]+*
computed spectral entropy=2.0336708872469766
computed normalized entropy=0.6039477936974565
SPLASH=splash10-0002-9112000000-03a53f455eb75bee12b1
submitter=submitter = University of Tokyo Team (Faculty of Engineering, University of Tokyo)
MoNA Rating=3.75

>  <NUM PEAKS>  (4305) 
29

>  <MASS SPECTRAL PEAKS>  (4305) 
56 1.31
68 1.19
70 7.38
84 1.05
96 1.94
97 1.82
98 99.99
99 7.92
111 1.05
112 1.21
124 1.34
125 0.49
126 12.01
127 1.11
185 2.18
186 0.1
198 1.63
210 1
211 2.17
212 1.29
226 2.11
230 1.04
244 2.36
245 4.02
258 3.69
259 2.42
370 19.88
371 5.21
372 2.16

$$$$

     RDKit          2D

 22 24  0  0  0  0  0  0  0  0999 V2000
   -2.5981    7.3000    0.0000 C   0  0  0  0  0  0  0  0  0  0  0  0
    0.0000    7.3000    0.0000 C   0  0  0  0  0  0  0  0  0  0  0  0
   -2.5981    2.8000    0.0000 C   0  0  0  0  0  0  0  0  0  0  0  0
   -2.5981    5.8000    0.0000 C   0  0  0  0  0  0  0  0  0  0  0  0
    0.0000    5.8000    0.0000 C   0  0  0  0  0  0  0  0  0  0  0  0
    3.9000    0.5500    0.0000 C   0  0  0  0  0  0  0  0  0  0  0  0
   -3.9000    0.5500    0.0000 C   0  0  0  0  0  0  0  0  0  0  0  0
    3.9000   -0.9500    0.0000 C   0  0  0  0  0  0  0  0  0  0  0  0
   -3.9000   -0.9500    0.0000 C   0  0  0  0  0  0  0  0  0  0  0  0
    2.6000    1.3000    0.0000 C   0  0  0  0  0  0  0  0  0  0  0  0
   -2.6000    1.3000    0.0000 C   0  0  0  0  0  0  0  0  0  0  0  0
    2.6000   -1.7000    0.0000 C   0  0  0  0  0  0  0  0  0  0  0  0
   -2.6000   -1.7000    0.0000 C   0  0  0  0  0  0  0  0  0  0  0  0
    0.0000    2.8000    0.0000 C   0  0  0  0  0  0  0  0  0  0  0  0
   -1.2990    3.5500    0.0000 C   0  0  0  0  0  0  0  0  0  0  0  0
    1.3000    0.5500    0.0000 C   0  0  0  0  0  0  0  0  0  0  0  0
   -1.3000    0.5500    0.0000 C   0  0  0  0  0  0  0  0  0  0  0  0
    1.3000   -0.9500    0.0000 C   0  0  0  0  0  0  0  0  0  0  0  0
   -1.3000   -0.9500    0.0000 C   0  0  0  0  0  0  0  0  0  0  0  0
   -1.2990    5.0500    0.0000 N   0  0  0  0  0  0  0  0  0  0  0  0
   -0.0000    1.3000    0.0000 N   0  0  0  0  0  0  0  0  0  0  0  0
   -0.0000   -1.7000    0.0000 S   0  0  0  0  0  0  0  0  0  0  0  0
  4  1  1  0
  5  2  1  0
  8  6  2  0
  9  7  2  0
 10  6  1  0
 11  7  1  0
 12  8  1  0
 13  9  1  0
 15  3  1  0
 15 14  1  0
 16 10  2  0
 17 11  2  0
 18 12  2  0
 18 16  1  0
 19 13  2  0
 19 17  1  0
 20  4  1  0
 20  5  1  0
 20 15  1  0
 21 14  1  0
 21 16  1  0
 21 17  1  0
 22 18  1  0
 22 19  1  0
M  END
>  <NAME>  (4306) 
ETHOPROPAZINE

>  <SYNONYMS>  (4306) 
10-(2-DIETHYLAMINOPROPYL)PHENOTHIAZINE

>  <SPECTRUM TYPE>  (4306) 
MS1

>  <INSTRUMENT TYPE>  (4306) 
EI-B

>  <INSTRUMENT>  (4306) 
JEOL JMS-D-300

>  <ION MODE>  (4306) 
P

>  <INCHIKEY>  (4306) 
CDOZDBSBBXSXLB-UHFFFAOYSA-N

>  <FORMULA>  (4306) 
C19H24N2S

>  <EXACT MASS>  (4306) 
312.16601976799996

>  <MW>  (4306) 
312

>  <ID>  (4306) 
JP005773

>  <CONTRIBUTOR>  (4306) 
University of Tokyo Team, {Faculty of Engineering, University of Tokyo

>  <COMMENT>  (4306) 
SMILES=CCN(CC)C(C)CN(c21)c(c3)c(ccc3)Sc(cccc2)1
cas=522-00-9
InChI=InChI=1S/C19H24N2S/c1-4-20(5-2)15(3)14-21-16-10-6-8-12-18(16)22-19-13-9-7-11-17(19)21/h6-13,15H,4-5,14H2,1-3H3
computed SMILES=S1C=2C=CC=CC2N(C=3C=CC=CC13)CC(N(CC)CC)C
accession=JP005773
date=2016.01.19 (Created 2008.10.21, modified 2011.05.06)
author=HAMAMATSU UNIV. SCHOOL OF MEDICINE
license=CC BY-NC-SA
exact mass=312.16602
ionization energy=70 eV
ion type=[M]+*
computed spectral entropy=1.9676923014502652
computed normalized entropy=0.6191500857097926
SPLASH=splash10-0udi-1900000000-31728da531ce58ffd47f
submitter=submitter = University of Tokyo Team (Faculty of Engineering, University of Tokyo)
MoNA Rating=3.75

>  <NUM PEAKS>  (4306) 
24

>  <MASS SPECTRAL PEAKS>  (4306) 
56 5.13
70 2.82
71 1.22
72 5.76
77 1.14
84 3.71
98 1.31
99 3.74
100 99.99
101 7.16
127 1.07
139 1.19
154 2.57
166 2.87
167 4.76
171 1.01
180 3.17
197 1.12
198 8.42
199 12.51
200 2.47
212 1.5
213 4.38
312 1.56

$$$$

     RDKit          2D

 20 22  0  0  0  0  0  0  0  0999 V2000
   -2.5981    2.8000    0.0000 C   0  0  0  0  0  0  0  0  0  0  0  0
   -2.5981    5.8000    0.0000 C   0  0  0  0  0  0  0  0  0  0  0  0
    0.0000    5.8000    0.0000 C   0  0  0  0  0  0  0  0  0  0  0  0
    3.9000    0.5500    0.0000 C   0  0  0  0  0  0  0  0  0  0  0  0
   -3.9000    0.5500    0.0000 C   0  0  0  0  0  0  0  0  0  0  0  0
    3.9000   -0.9500    0.0000 C   0  0  0  0  0  0  0  0  0  0  0  0
   -3.9000   -0.9500    0.0000 C   0  0  0  0  0  0  0  0  0  0  0  0
    2.6000    1.3000    0.0000 C   0  0  0  0  0  0  0  0  0  0  0  0
   -2.6000    1.3000    0.0000 C   0  0  0  0  0  0  0  0  0  0  0  0
    2.6000   -1.7000    0.0000 C   0  0  0  0  0  0  0  0  0  0  0  0
   -2.6000   -1.7000    0.0000 C   0  0  0  0  0  0  0  0  0  0  0  0
    0.0000    2.8000    0.0000 C   0  0  0  0  0  0  0  0  0  0  0  0
   -1.2990    3.5500    0.0000 C   0  0  0  0  0  0  0  0  0  0  0  0
    1.3000    0.5500    0.0000 C   0  0  0  0  0  0  0  0  0  0  0  0
   -1.3000    0.5500    0.0000 C   0  0  0  0  0  0  0  0  0  0  0  0
    1.3000   -0.9500    0.0000 C   0  0  0  0  0  0  0  0  0  0  0  0
   -1.3000   -0.9500    0.0000 C   0  0  0  0  0  0  0  0  0  0  0  0
   -1.2990    5.0500    0.0000 N   0  0  0  0  0  0  0  0  0  0  0  0
   -0.0000    1.3000    0.0000 N   0  0  0  0  0  0  0  0  0  0  0  0
   -0.0000   -1.7000    0.0000 S   0  0  0  0  0  0  0  0  0  0  0  0
  6  4  2  0
  7  5  2  0
  8  4  1  0
  9  5  1  0
 10  6  1  0
 11  7  1  0
 13  1  1  0
 13 12  1  0
 14  8  2  0
 15  9  2  0
 16 10  2  0
 16 14  1  0
 17 11  2  0
 17 15  1  0
 18  2  1  0
 18  3  1  0
 18 13  1  0
 19 12  1  0
 19 14  1  0
 19 15  1  0
 20 16  1  0
 20 17  1  0
M  END
>  <NAME>  (4307) 
PROMETHAZINE

>  <SYNONYMS>  (4307) 
10-(2-DIMETHYLAMINOPROPYL)PHENOTHIAZINE

>  <SPECTRUM TYPE>  (4307) 
MS1

>  <INSTRUMENT TYPE>  (4307) 
EI-B

>  <INSTRUMENT>  (4307) 
JEOL JMS-D-300

>  <ION MODE>  (4307) 
P

>  <INCHIKEY>  (4307) 
PWWVAXIEGOYWEE-UHFFFAOYSA-N

>  <FORMULA>  (4307) 
C17H20N2S

>  <EXACT MASS>  (4307) 
284.13471963999996

>  <MW>  (4307) 
284

>  <ID>  (4307) 
JP005772

>  <CONTRIBUTOR>  (4307) 
University of Tokyo Team, {Faculty of Engineering, University of Tokyo

>  <COMMENT>  (4307) 
SMILES=CN(C)C(C)CN(c21)c(c3)c(ccc3)Sc(cccc2)1
cas=60-87-7
InChI=InChI=1S/C17H20N2S/c1-13(18(2)3)12-19-14-8-4-6-10-16(14)20-17-11-7-5-9-15(17)19/h4-11,13H,12H2,1-3H3
computed SMILES=S1C=2C=CC=CC2N(C=3C=CC=CC13)CC(N(C)C)C
accession=JP005772
date=2016.01.19 (Created 2008.10.21, modified 2011.05.06)
author=HAMAMATSU UNIV. SCHOOL OF MEDICINE
license=CC BY-NC-SA
exact mass=284.13472
ionization energy=70 eV
ion type=[M]+*
computed spectral entropy=1.4053812453559718
computed normalized entropy=0.49603791691307464
SPLASH=splash10-00di-9100000000-9bef9a6b83d662fc7e2c
submitter=submitter = University of Tokyo Team (Faculty of Engineering, University of Tokyo)
MoNA Rating=3.75

>  <NUM PEAKS>  (4307) 
17

>  <MASS SPECTRAL PEAKS>  (4307) 
56 2.34
70 2.01
71 2.41
72 99.99
73 4.77
152 1.19
154 1.47
166 1.55
167 2.81
179 1.01
180 3.08
198 5.47
199 5.48
200 1.03
212 1.24
213 4.02
284 3.39

$$$$

     RDKit          2D

 28 31  0  0  0  0  0  0  0  0999 V2000
   -6.8372    7.9612    0.0000 C   0  0  0  0  0  0  0  0  0  0  0  0
   -4.2200    0.4700    0.0000 C   0  0  0  0  0  0  0  0  0  0  0  0
   -4.2200   -1.0300    0.0000 C   0  0  0  0  0  0  0  0  0  0  0  0
   -1.6328    3.4678    0.0000 C   0  0  0  0  0  0  0  0  0  0  0  0
   -2.9200    1.2200    0.0000 C   0  0  0  0  0  0  0  0  0  0  0  0
   -2.9200   -1.7800    0.0000 C   0  0  0  0  0  0  0  0  0  0  0  0
    3.5700   -1.0300    0.0000 C   0  0  0  0  0  0  0  0  0  0  0  0
    2.2700   -1.7800    0.0000 C   0  0  0  0  0  0  0  0  0  0  0  0
   -1.6353    4.9678    0.0000 C   0  0  0  0  0  0  0  0  0  0  0  0
   -0.3325    2.7200    0.0000 C   0  0  0  0  0  0  0  0  0  0  0  0
   -4.2390    7.9653    0.0000 C   0  0  0  0  0  0  0  0  0  0  0  0
   -5.5342    5.7125    0.0000 C   0  0  0  0  0  0  0  0  0  0  0  0
   -2.9384    7.2165    0.0000 C   0  0  0  0  0  0  0  0  0  0  0  0
   -4.2335    4.9637    0.0000 C   0  0  0  0  0  0  0  0  0  0  0  0
    2.2700    1.2200    0.0000 C   0  0  0  0  0  0  0  0  0  0  0  0
    3.5700    0.4700    0.0000 C   0  0  0  0  0  0  0  0  0  0  0  0
   -1.6200    0.4700    0.0000 C   0  0  0  0  0  0  0  0  0  0  0  0
    0.9700    0.4700    0.0000 C   0  0  0  0  0  0  0  0  0  0  0  0
   -1.6200   -1.0300    0.0000 C   0  0  0  0  0  0  0  0  0  0  0  0
    0.9700   -1.0300    0.0000 C   0  0  0  0  0  0  0  0  0  0  0  0
    4.8689    1.2202    0.0000 C   0  0  0  0  0  0  0  0  0  0  0  0
    5.6191   -0.0787    0.0000 F   0  0  0  0  0  0  0  0  0  0  0  0
    6.1678    1.9704    0.0000 F   0  0  0  0  0  0  0  0  0  0  0  0
    4.1187    2.5191    0.0000 F   0  0  0  0  0  0  0  0  0  0  0  0
   -5.5369    7.2134    0.0000 N   0  0  0  0  0  0  0  0  0  0  0  0
   -2.9356    5.7156    0.0000 N   0  0  0  0  0  0  0  0  0  0  0  0
   -0.3300    1.2200    0.0000 N   0  0  0  0  0  0  0  0  0  0  0  0
   -0.3300   -1.7800    0.0000 S   0  0  0  0  0  0  0  0  0  0  0  0
  3  2  2  0
  5  2  1  0
  6  3  1  0
  8  7  1  0
  9  4  1  0
 10  4  1  0
 13 11  1  0
 14 12  1  0
 16  7  2  0
 16 15  1  0
 17  5  2  0
 18 15  2  0
 19  6  2  0
 19 17  1  0
 20  8  2  0
 20 18  1  0
 21 16  1  0
 22 21  1  0
 23 21  1  0
 24 21  1  0
 25  1  1  0
 25 11  1  0
 25 12  1  0
 26  9  1  0
 26 13  1  0
 26 14  1  0
 27 10  1  0
 27 17  1  0
 27 18  1  0
 28 19  1  0
 28 20  1  0
M  END
>  <NAME>  (4308) 
TRIFLUOPERAZINE

>  <SYNONYMS>  (4308) 
10-(3-(4-METHYLPIPERAZIN-1-YL)PROPYL)-2-(TRIFLUOROMETHYL)-10H-PHENOTHIAZINE

>  <SPECTRUM TYPE>  (4308) 
MS1

>  <INSTRUMENT TYPE>  (4308) 
EI-B

>  <INSTRUMENT>  (4308) 
JEOL JMS-D-300

>  <ION MODE>  (4308) 
P

>  <INCHIKEY>  (4308) 
ZEWQUBUPAILYHI-UHFFFAOYSA-N

>  <FORMULA>  (4308) 
C21H24F3N3S

>  <EXACT MASS>  (4308) 
407.16430342800004

>  <MW>  (4308) 
407

>  <ID>  (4308) 
JP005771

>  <CONTRIBUTOR>  (4308) 
University of Tokyo Team, {Faculty of Engineering, University of Tokyo

>  <COMMENT>  (4308) 
SMILES=CN(C4)CCN(C4)CCCN(c21)c(c3)c(ccc(C(F)(F)F)3)Sc(cccc2)1
cas=117-89-5
InChI=InChI=1S/C21H24F3N3S/c1-25-11-13-26(14-12-25)9-4-10-27-17-5-2-3-6-19(17)28-20-8-7-16(15-18(20)27)21(22,23)24/h2-3,5-8,15H,4,9-14H2,1H3
computed SMILES=FC(F)(F)C1=CC=C2SC=3C=CC=CC3N(C2=C1)CCCN4CCN(C)CC4
accession=JP005771
date=2016.01.19 (Created 2008.10.21, modified 2011.05.06)
author=HAMAMATSU UNIV. SCHOOL OF MEDICINE
license=CC BY-NC-SA
exact mass=407.1643
ionization energy=70 eV
ion type=[M]+*
computed spectral entropy=2.8096843668277027
computed normalized entropy=0.803568794700185
SPLASH=splash10-08mi-8921200000-2aff2d698385cab14cdb
submitter=submitter = University of Tokyo Team (Faculty of Engineering, University of Tokyo)
MoNA Rating=3.75

>  <NUM PEAKS>  (4308) 
33

>  <MASS SPECTRAL PEAKS>  (4308) 
55 9.92
56 9.36
57 6.5
58 13.61
69 1.49
70 76.04
71 21.01
72 3.35
82 1.13
83 3.44
84 6.48
85 7.12
97 3.48
98 0.46
99 5.26
111 5.36
113 99.99
114 9.92
127 22.03
141 34.44
247 1.3
248 11.06
266 13.61
267 12.12
280 9.3
281 3.52
293 1.67
294 2.65
306 11.93
307 7.52
350 1.28
407 45.45
408 8.73

$$$$

     RDKit          2D

 25 28  0  0  0  0  0  0  0  0999 V2000
   -6.8372    7.9612    0.0000 C   0  0  0  0  0  0  0  0  0  0  0  0
   -4.2200    0.4700    0.0000 C   0  0  0  0  0  0  0  0  0  0  0  0
   -4.2200   -1.0300    0.0000 C   0  0  0  0  0  0  0  0  0  0  0  0
   -1.6328    3.4678    0.0000 C   0  0  0  0  0  0  0  0  0  0  0  0
   -2.9200    1.2200    0.0000 C   0  0  0  0  0  0  0  0  0  0  0  0
   -2.9200   -1.7800    0.0000 C   0  0  0  0  0  0  0  0  0  0  0  0
    3.5700   -1.0300    0.0000 C   0  0  0  0  0  0  0  0  0  0  0  0
    2.2700   -1.7800    0.0000 C   0  0  0  0  0  0  0  0  0  0  0  0
   -1.6353    4.9678    0.0000 C   0  0  0  0  0  0  0  0  0  0  0  0
   -0.3325    2.7200    0.0000 C   0  0  0  0  0  0  0  0  0  0  0  0
   -4.2390    7.9653    0.0000 C   0  0  0  0  0  0  0  0  0  0  0  0
   -5.5342    5.7125    0.0000 C   0  0  0  0  0  0  0  0  0  0  0  0
   -2.9384    7.2165    0.0000 C   0  0  0  0  0  0  0  0  0  0  0  0
   -4.2335    4.9637    0.0000 C   0  0  0  0  0  0  0  0  0  0  0  0
    2.2700    1.2200    0.0000 C   0  0  0  0  0  0  0  0  0  0  0  0
    3.5700    0.4700    0.0000 C   0  0  0  0  0  0  0  0  0  0  0  0
   -1.6200    0.4700    0.0000 C   0  0  0  0  0  0  0  0  0  0  0  0
    0.9700    0.4700    0.0000 C   0  0  0  0  0  0  0  0  0  0  0  0
   -1.6200   -1.0300    0.0000 C   0  0  0  0  0  0  0  0  0  0  0  0
    0.9700   -1.0300    0.0000 C   0  0  0  0  0  0  0  0  0  0  0  0
    4.8689    1.2202    0.0000 Cl  0  0  0  0  0  0  0  0  0  0  0  0
   -5.5369    7.2134    0.0000 N   0  0  0  0  0  0  0  0  0  0  0  0
   -2.9356    5.7156    0.0000 N   0  0  0  0  0  0  0  0  0  0  0  0
   -0.3300    1.2200    0.0000 N   0  0  0  0  0  0  0  0  0  0  0  0
   -0.3300   -1.7800    0.0000 S   0  0  0  0  0  0  0  0  0  0  0  0
  3  2  2  0
  5  2  1  0
  6  3  1  0
  8  7  1  0
  9  4  1  0
 10  4  1  0
 13 11  1  0
 14 12  1  0
 16  7  2  0
 16 15  1  0
 17  5  2  0
 18 15  2  0
 19  6  2  0
 19 17  1  0
 20  8  2  0
 20 18  1  0
 21 16  1  0
 22  1  1  0
 22 11  1  0
 22 12  1  0
 23  9  1  0
 23 13  1  0
 23 14  1  0
 24 10  1  0
 24 17  1  0
 24 18  1  0
 25 19  1  0
 25 20  1  0
M  END
>  <NAME>  (4309) 
PROCHLORPERAZINE

>  <SYNONYMS>  (4309) 
2-CHLORO-10-(3-(4-METHYL-1-PIPERAZINYL)PROPYL)-10H-PHENOTHIAZINE

>  <SPECTRUM TYPE>  (4309) 
MS1

>  <INSTRUMENT TYPE>  (4309) 
EI-B

>  <INSTRUMENT>  (4309) 
JEOL JMS-D-300

>  <ION MODE>  (4309) 
P

>  <INCHIKEY>  (4309) 
WIKYUJGCLQQFNW-UHFFFAOYSA-N

>  <FORMULA>  (4309) 
C20H24ClN3S

>  <EXACT MASS>  (4309) 
373.137946448

>  <MW>  (4309) 
373

>  <ID>  (4309) 
JP005770

>  <CONTRIBUTOR>  (4309) 
University of Tokyo Team, {Faculty of Engineering, University of Tokyo

>  <COMMENT>  (4309) 
SMILES=CN(C4)CCN(C4)CCCN(c21)c(c3)c(ccc(Cl)3)Sc(cccc2)1
cas=58-38-8
InChI=InChI=1S/C20H24ClN3S/c1-22-11-13-23(14-12-22)9-4-10-24-17-5-2-3-6-19(17)25-20-8-7-16(21)15-18(20)24/h2-3,5-8,15H,4,9-14H2,1H3
computed SMILES=ClC1=CC=C2SC=3C=CC=CC3N(C2=C1)CCCN4CCN(C)CC4
accession=JP005770
date=2016.01.19 (Created 2008.10.21, modified 2011.05.06)
author=HAMAMATSU UNIV. SCHOOL OF MEDICINE
license=CC BY-NC-SA
exact mass=373.13795
ionization energy=70 eV
ion type=[M]+*
computed spectral entropy=2.6639885119407034
computed normalized entropy=0.775771240050416
SPLASH=splash10-0229-7933000000-4e14a9a9728c361941d3
submitter=submitter = University of Tokyo Team (Faculty of Engineering, University of Tokyo)
MoNA Rating=3.75

>  <NUM PEAKS>  (4309) 
31

>  <MASS SPECTRAL PEAKS>  (4309) 
56 7.54
57 4.06
58 14.45
70 85.09
71 18.03
72 1.77
84 5.09
85 5.48
97 1.77
99 3.12
111 3.45
113 99.99
114 6.83
127 15.03
141 47.67
198 6.41
214 6.38
232 11.03
233 15.93
234 3.03
235 3.29
246 3.96
247 2.16
259 2.06
260 1.9
272 6.7
273 4.16
274 1.58
373 44.48
374 7.19
375 13.96

$$$$

     RDKit          2D

 24 27  0  0  0  0  0  0  0  0999 V2000
   -6.4959    8.0521    0.0000 C   0  0  0  0  0  0  0  0  0  0  0  0
    3.9000    0.5500    0.0000 C   0  0  0  0  0  0  0  0  0  0  0  0
   -3.9000    0.5500    0.0000 C   0  0  0  0  0  0  0  0  0  0  0  0
    3.9000   -0.9500    0.0000 C   0  0  0  0  0  0  0  0  0  0  0  0
   -3.9000   -0.9500    0.0000 C   0  0  0  0  0  0  0  0  0  0  0  0
   -1.2990    3.5500    0.0000 C   0  0  0  0  0  0  0  0  0  0  0  0
    2.6000    1.3000    0.0000 C   0  0  0  0  0  0  0  0  0  0  0  0
   -2.6000    1.3000    0.0000 C   0  0  0  0  0  0  0  0  0  0  0  0
    2.6000   -1.7000    0.0000 C   0  0  0  0  0  0  0  0  0  0  0  0
   -2.6000   -1.7000    0.0000 C   0  0  0  0  0  0  0  0  0  0  0  0
   -1.2990    5.0500    0.0000 C   0  0  0  0  0  0  0  0  0  0  0  0
    0.0000    2.8000    0.0000 C   0  0  0  0  0  0  0  0  0  0  0  0
   -3.8977    8.0519    0.0000 C   0  0  0  0  0  0  0  0  0  0  0  0
   -5.1966    5.8012    0.0000 C   0  0  0  0  0  0  0  0  0  0  0  0
   -2.5983    7.3008    0.0000 C   0  0  0  0  0  0  0  0  0  0  0  0
   -3.8972    5.0502    0.0000 C   0  0  0  0  0  0  0  0  0  0  0  0
    1.3000    0.5500    0.0000 C   0  0  0  0  0  0  0  0  0  0  0  0
   -1.3000    0.5500    0.0000 C   0  0  0  0  0  0  0  0  0  0  0  0
    1.3000   -0.9500    0.0000 C   0  0  0  0  0  0  0  0  0  0  0  0
   -1.3000   -0.9500    0.0000 C   0  0  0  0  0  0  0  0  0  0  0  0
   -5.1969    7.3021    0.0000 N   0  0  0  0  0  0  0  0  0  0  0  0
   -2.5981    5.8000    0.0000 N   0  0  0  0  0  0  0  0  0  0  0  0
   -0.0000    1.3000    0.0000 N   0  0  0  0  0  0  0  0  0  0  0  0
   -0.0000   -1.7000    0.0000 S   0  0  0  0  0  0  0  0  0  0  0  0
  4  2  2  0
  5  3  2  0
  7  2  1  0
  8  3  1  0
  9  4  1  0
 10  5  1  0
 11  6  1  0
 12  6  1  0
 15 13  1  0
 16 14  1  0
 17  7  2  0
 18  8  2  0
 19  9  2  0
 19 17  1  0
 20 10  2  0
 20 18  1  0
 21  1  1  0
 21 13  1  0
 21 14  1  0
 22 11  1  0
 22 15  1  0
 22 16  1  0
 23 12  1  0
 23 17  1  0
 23 18  1  0
 24 19  1  0
 24 20  1  0
M  END
>  <NAME>  (4310) 
PERAZINE

>  <SYNONYMS>  (4310) 
10-(3-(4-METHYL-1-PIPERAZINYL)PROPYL)-10H-PHENOTHIAZINE

>  <SPECTRUM TYPE>  (4310) 
MS1

>  <INSTRUMENT TYPE>  (4310) 
EI-B

>  <INSTRUMENT>  (4310) 
JEOL JMS-D-300

>  <ION MODE>  (4310) 
P

>  <INCHIKEY>  (4310) 
WEYVCQFUGFRXOM-UHFFFAOYSA-N

>  <FORMULA>  (4310) 
C20H25N3S

>  <EXACT MASS>  (4310) 
339.1769188

>  <MW>  (4310) 
339

>  <ID>  (4310) 
JP005769

>  <CONTRIBUTOR>  (4310) 
University of Tokyo Team, {Faculty of Engineering, University of Tokyo

>  <COMMENT>  (4310) 
SMILES=CN(C4)CCN(C4)CCCN(c21)c(c3)c(ccc3)Sc(cccc2)1
cas=84-97-9
InChI=InChI=1S/C20H25N3S/c1-21-13-15-22(16-14-21)11-6-12-23-17-7-2-4-9-19(17)24-20-10-5-3-8-18(20)23/h2-5,7-10H,6,11-16H2,1H3
computed SMILES=S1C=2C=CC=CC2N(C=3C=CC=CC13)CCCN4CCN(C)CC4
accession=JP005769
date=2016.01.19 (Created 2008.10.21, modified 2011.05.06)
author=HAMAMATSU UNIV. SCHOOL OF MEDICINE
license=CC BY-NC-SA
exact mass=339.17692
ionization energy=70 eV
ion type=[M]+*
computed spectral entropy=3.8004634329140994
computed normalized entropy=0.8116951978828574
SPLASH=splash10-01w4-3932000000-826fc2cac2d9f88605f2
submitter=submitter = University of Tokyo Team (Faculty of Engineering, University of Tokyo)
MoNA Rating=3.75

>  <NUM PEAKS>  (4310) 
108

>  <MASS SPECTRAL PEAKS>  (4310) 
51 2.3
52 3.62
56 8.48
57 1.64
58 15.15
59 1.72
62 1.31
63 2.22
65 2.47
69 2.47
70 89.62
71 13.17
72 4.2
75 2.22
77 3.29
78 1.72
80 1.48
82 1.97
83 3.45
84 5.6
85 6.5
86 1.97
88 1.56
89 1.31
93 2.22
96 3.87
97 4.94
98 3.54
99 7.41
100 4.44
101 2.14
105 1.81
106 1.56
108 2.14
111 8.56
112 4.2
113 87.31
114 9.55
115 2.05
117 1.31
125 2.05
126 2.47
127 15.73
128 3.37
130 1.31
135 2.55
136 1.72
138 1.56
139 6.83
140 4.85
141 54.11
142 5.93
148 1.31
151 1.31
152 4.36
153 3.37
154 11.12
155 3.04
165 1.56
166 10.87
167 21.91
168 3.62
170 1.48
171 4.2
172 1.97
178 1.97
179 5.6
180 23.39
181 4.44
184 2.14
191 1.56
192 1.64
193 1.72
196 2.96
197 5.18
198 38.22
199 67.29
200 9.96
201 3.87
205 1.4
206 1.64
207 1.31
210 3.45
211 1.56
212 18.61
213 14.9
214 3.62
223 5.93
224 16.39
225 17.95
226 13.34
227 3.04
236 4.85
237 2.88
238 31.05
239 20.09
240 4.44
241 2.05
268 1.81
269 1.31
282 4.53
295 4.61
296 1.97
337 2.22
339 99.99
340 25.2
341 7.82
342 2.05

$$$$

     RDKit          2D

 26 29  0  0  0  0  0  0  0  0999 V2000
   -4.2200    0.4700    0.0000 C   0  0  0  0  0  0  0  0  0  0  0  0
   -4.2200   -1.0300    0.0000 C   0  0  0  0  0  0  0  0  0  0  0  0
   -1.6328    3.4678    0.0000 C   0  0  0  0  0  0  0  0  0  0  0  0
   -2.9200    1.2200    0.0000 C   0  0  0  0  0  0  0  0  0  0  0  0
   -2.9200   -1.7800    0.0000 C   0  0  0  0  0  0  0  0  0  0  0  0
    3.5700   -1.0300    0.0000 C   0  0  0  0  0  0  0  0  0  0  0  0
    2.2700   -1.7800    0.0000 C   0  0  0  0  0  0  0  0  0  0  0  0
   -5.5342    5.7105    0.0000 C   0  0  0  0  0  0  0  0  0  0  0  0
   -4.2379    7.9643    0.0000 C   0  0  0  0  0  0  0  0  0  0  0  0
   -1.6353    4.9678    0.0000 C   0  0  0  0  0  0  0  0  0  0  0  0
   -0.3325    2.7200    0.0000 C   0  0  0  0  0  0  0  0  0  0  0  0
   -4.2339    4.9626    0.0000 C   0  0  0  0  0  0  0  0  0  0  0  0
   -2.9376    7.2165    0.0000 C   0  0  0  0  0  0  0  0  0  0  0  0
    2.2700    1.2200    0.0000 C   0  0  0  0  0  0  0  0  0  0  0  0
    4.8689    1.2202    0.0000 C   0  0  0  0  0  0  0  0  0  0  0  0
    3.5700    0.4700    0.0000 C   0  0  0  0  0  0  0  0  0  0  0  0
   -5.5362    7.2113    0.0000 C   0  0  0  0  0  0  0  0  0  0  0  0
   -1.6200    0.4700    0.0000 C   0  0  0  0  0  0  0  0  0  0  0  0
    0.9700    0.4700    0.0000 C   0  0  0  0  0  0  0  0  0  0  0  0
   -1.6200   -1.0300    0.0000 C   0  0  0  0  0  0  0  0  0  0  0  0
    0.9700   -1.0300    0.0000 C   0  0  0  0  0  0  0  0  0  0  0  0
    6.1678    1.9704    0.0000 N   0  0  0  0  0  0  0  0  0  0  0  0
   -2.9356    5.7156    0.0000 N   0  0  0  0  0  0  0  0  0  0  0  0
   -0.3300    1.2200    0.0000 N   0  0  0  0  0  0  0  0  0  0  0  0
   -6.8365    7.9591    0.0000 O   0  0  0  0  0  0  0  0  0  0  0  0
   -0.3300   -1.7800    0.0000 S   0  0  0  0  0  0  0  0  0  0  0  0
  2  1  2  0
  4  1  1  0
  5  2  1  0
  7  6  1  0
 10  3  1  0
 11  3  1  0
 12  8  1  0
 13  9  1  0
 16  6  2  0
 16 14  1  0
 16 15  1  0
 17  8  1  0
 17  9  1  0
 18  4  2  0
 19 14  2  0
 20  5  2  0
 20 18  1  0
 21  7  2  0
 21 19  1  0
 22 15  3  0
 23 10  1  0
 23 12  1  0
 23 13  1  0
 24 11  1  0
 24 18  1  0
 24 19  1  0
 25 17  1  0
 26 20  1  0
 26 21  1  0
M  END
>  <NAME>  (4311) 
PERICYAZINE

>  <SYNONYMS>  (4311) 
10-(3-(4-HYDROXY-1-PIPERIDINYL)PROPYL)PHENOTHIAZINE

>  <SPECTRUM TYPE>  (4311) 
MS1

>  <INSTRUMENT TYPE>  (4311) 
EI-B

>  <INSTRUMENT>  (4311) 
JEOL JMS-D-300

>  <ION MODE>  (4311) 
P

>  <INCHIKEY>  (4311) 
LUALIOATIOESLM-UHFFFAOYSA-N

>  <FORMULA>  (4311) 
C21H23N3OS

>  <EXACT MASS>  (4311) 
365.15618335600004

>  <MW>  (4311) 
365

>  <ID>  (4311) 
JP005768

>  <CONTRIBUTOR>  (4311) 
University of Tokyo Team, {Faculty of Engineering, University of Tokyo

>  <COMMENT>  (4311) 
SMILES=N#Cc(c4)cc(c(c4)1)N(CCCN(C3)CCC(O)C3)c(c2)c(ccc2)S1
InChI=InChI=1S/C21H23N3OS/c22-15-16-6-7-21-19(14-16)24(18-4-1-2-5-20(18)26-21)11-3-10-23-12-8-17(25)9-13-23/h1-2,4-7,14,17,25H,3,8-13H2
computed SMILES=N#CC1=CC=C2SC=3C=CC=CC3N(C2=C1)CCCN4CCC(O)CC4
accession=JP005768
date=2016.01.19 (Created 2008.10.21, modified 2011.05.06)
author=HAMAMATSU UNIV. SCHOOL OF MEDICINE
license=CC BY-NC-SA
exact mass=365.15618
ionization energy=70 eV
ion type=[M]+*
computed spectral entropy=2.9646833167840647
computed normalized entropy=0.7743434314591884
SPLASH=splash10-03di-4931000000-bc6eaf361b17af48a30f
submitter=submitter = University of Tokyo Team (Faculty of Engineering, University of Tokyo)
MoNA Rating=3.75

>  <NUM PEAKS>  (4311) 
46

>  <MASS SPECTRAL PEAKS>  (4311) 
51 2.07
52 1.68
53 1.28
54 3.01
55 2.19
56 6.26
57 4.67
58 26.36
68 1.3
69 3.43
70 5.33
71 1.74
82 3.9
83 1.03
84 1.72
96 8.29
97 1.47
98 2.44
100 2.8
110 1.14
112 4.4
113 1.13
114 99.99
115 7.24
124 1.28
126 1.47
128 6.82
140 1.41
141 2.42
142 23.79
179 3.02
191 2.22
192 8.04
205 8.07
223 11.75
224 2.15
225 2.74
237 4.22
238 1.02
249 6.19
250 6.28
251 1.13
263 8.71
264 6.05
365 19.92
366 4.07

$$$$

     RDKit          2D

 23 25  0  0  0  0  0  0  0  0999 V2000
   -2.5981    3.0000    0.0000 C   0  0  0  0  0  0  0  0  0  0  0  0
   -2.5981    7.5000    0.0000 C   0  0  0  0  0  0  0  0  0  0  0  0
   -3.8971    5.2500    0.0000 C   0  0  0  0  0  0  0  0  0  0  0  0
    6.4981    0.7504    0.0000 C   0  0  0  0  0  0  0  0  0  0  0  0
   -3.9000    0.7500    0.0000 C   0  0  0  0  0  0  0  0  0  0  0  0
   -3.9000   -0.7500    0.0000 C   0  0  0  0  0  0  0  0  0  0  0  0
   -2.6000    1.5000    0.0000 C   0  0  0  0  0  0  0  0  0  0  0  0
   -2.6000   -1.5000    0.0000 C   0  0  0  0  0  0  0  0  0  0  0  0
    3.9000   -0.7500    0.0000 C   0  0  0  0  0  0  0  0  0  0  0  0
    2.6000   -1.5000    0.0000 C   0  0  0  0  0  0  0  0  0  0  0  0
    2.6000    1.5000    0.0000 C   0  0  0  0  0  0  0  0  0  0  0  0
   -1.2990    5.2500    0.0000 C   0  0  0  0  0  0  0  0  0  0  0  0
    0.0000    3.0000    0.0000 C   0  0  0  0  0  0  0  0  0  0  0  0
   -1.2990    3.7500    0.0000 C   0  0  0  0  0  0  0  0  0  0  0  0
    3.9000    0.7500    0.0000 C   0  0  0  0  0  0  0  0  0  0  0  0
   -1.3000    0.7500    0.0000 C   0  0  0  0  0  0  0  0  0  0  0  0
    1.3000    0.7500    0.0000 C   0  0  0  0  0  0  0  0  0  0  0  0
   -1.3000   -0.7500    0.0000 C   0  0  0  0  0  0  0  0  0  0  0  0
    1.3000   -0.7500    0.0000 C   0  0  0  0  0  0  0  0  0  0  0  0
   -2.5981    6.0000    0.0000 N   0  0  0  0  0  0  0  0  0  0  0  0
   -0.0000    1.5000    0.0000 N   0  0  0  0  0  0  0  0  0  0  0  0
    5.1989    1.5002    0.0000 O   0  0  0  0  0  0  0  0  0  0  0  0
   -0.0000   -1.5000    0.0000 S   0  0  0  0  0  0  0  0  0  0  0  0
  6  5  2  0
  7  5  1  0
  8  6  1  0
 10  9  1  0
 14  1  1  0
 14 12  1  0
 14 13  1  0
 15  9  2  0
 15 11  1  0
 16  7  2  0
 17 11  2  0
 18  8  2  0
 18 16  1  0
 19 10  2  0
 19 17  1  0
 20  2  1  0
 20  3  1  0
 20 12  1  0
 21 13  1  0
 21 16  1  0
 21 17  1  0
 22  4  1  0
 22 15  1  0
 23 18  1  0
 23 19  1  0
M  END
>  <NAME>  (4312) 
METHOTRIMEPRAZINE

>  <SYNONYMS>  (4312) 
10-(3-DIMETHYLAMINO-2-METHYLPROPYL)-2-METHOXYPHENOTHIAZINE

>  <SPECTRUM TYPE>  (4312) 
MS1

>  <INSTRUMENT TYPE>  (4312) 
EI-B

>  <INSTRUMENT>  (4312) 
JEOL JMS-D-300

>  <ION MODE>  (4312) 
P

>  <INCHIKEY>  (4312) 
VRQVVMDWGGWHTJ-UHFFFAOYSA-N

>  <FORMULA>  (4312) 
C19H24N2OS

>  <EXACT MASS>  (4312) 
328.160934388

>  <MW>  (4312) 
328

>  <ID>  (4312) 
JP005767

>  <CONTRIBUTOR>  (4312) 
University of Tokyo Team, {Faculty of Engineering, University of Tokyo

>  <COMMENT>  (4312) 
SMILES=CN(C)CC(C)CN(c21)c(c3)c(ccc(OC)3)Sc(cccc2)1
InChI=InChI=1S/C19H24N2OS/c1-14(12-20(2)3)13-21-16-7-5-6-8-18(16)23-19-10-9-15(22-4)11-17(19)21/h5-11,14H,12-13H2,1-4H3
computed SMILES=O(C1=CC=C2SC=3C=CC=CC3N(C2=C1)CC(C)CN(C)C)C
accession=JP005767
date=2016.01.19 (Created 2008.10.21, modified 2011.05.06)
author=HAMAMATSU UNIV. SCHOOL OF MEDICINE
license=CC BY-NC-SA
exact mass=328.16093
ionization energy=70 eV
ion type=[M]+*
computed spectral entropy=2.9738239133183546
computed normalized entropy=0.7490189583208122
SPLASH=splash10-0a6r-9374000000-e8486ccc5e112d40aba2
submitter=submitter = University of Tokyo Team (Faculty of Engineering, University of Tokyo)
MoNA Rating=3.75

>  <NUM PEAKS>  (4312) 
53

>  <MASS SPECTRAL PEAKS>  (4312) 
57 1.93
58 99.99
59 7.42
69 1.34
70 1.49
71 1.7
77 1.14
84 6.22
85 2.01
86 2.76
98 1.05
99 2.73
100 22.2
101 1.88
140 1.42
141 1.35
153 1.05
154 1.08
166 1.4
167 3.94
171 1.1
184 1.55
185 10.87
186 3.64
198 2.43
199 2.7
209 1.36
210 7.39
211 1.88
214 1.35
223 1.04
224 0.11
226 1.5
227 2.47
228 11.98
229 12.78
230 2.61
240 1.28
242 10.28
243 5.49
244 1.39
253 1.08
254 1.95
268 5.97
269 8.81
270 4.64
271 1.11
282 7.85
283 9.1
284 2.16
328 48.73
329 11.97
330 1.1

$$$$

     RDKit          2D

 20 22  0  0  0  0  0  0  0  0999 V2000
    2.5981   -3.0000    0.0000 C   0  0  0  0  0  0  0  0  0  0  0  0
    2.5981   -6.0000    0.0000 C   0  0  0  0  0  0  0  0  0  0  0  0
   -0.0000   -6.0000    0.0000 C   0  0  0  0  0  0  0  0  0  0  0  0
    3.9000   -0.7500    0.0000 C   0  0  0  0  0  0  0  0  0  0  0  0
    3.9000    0.7500    0.0000 C   0  0  0  0  0  0  0  0  0  0  0  0
   -3.9000    0.7500    0.0000 C   0  0  0  0  0  0  0  0  0  0  0  0
    2.6000   -1.5000    0.0000 C   0  0  0  0  0  0  0  0  0  0  0  0
    2.6000    1.5000    0.0000 C   0  0  0  0  0  0  0  0  0  0  0  0
   -2.6000    1.5000    0.0000 C   0  0  0  0  0  0  0  0  0  0  0  0
   -3.9000   -0.7500    0.0000 C   0  0  0  0  0  0  0  0  0  0  0  0
   -0.0000   -3.0000    0.0000 C   0  0  0  0  0  0  0  0  0  0  0  0
    1.2990   -3.7500    0.0000 C   0  0  0  0  0  0  0  0  0  0  0  0
    1.3000   -0.7500    0.0000 C   0  0  0  0  0  0  0  0  0  0  0  0
    1.3000    0.7500    0.0000 C   0  0  0  0  0  0  0  0  0  0  0  0
   -1.3000    0.7500    0.0000 C   0  0  0  0  0  0  0  0  0  0  0  0
   -1.3000   -0.7500    0.0000 C   0  0  0  0  0  0  0  0  0  0  0  0
   -2.6000   -1.5000    0.0000 N   0  0  0  0  0  0  0  0  0  0  0  0
    1.2990   -5.2500    0.0000 N   0  0  0  0  0  0  0  0  0  0  0  0
   -0.0000   -1.5000    0.0000 N   0  0  0  0  0  0  0  0  0  0  0  0
   -0.0000    1.5000    0.0000 S   0  0  0  0  0  0  0  0  0  0  0  0
  5  4  2  0
  7  4  1  0
  8  5  1  0
  9  6  2  0
 10  6  1  0
 12  1  1  0
 12 11  1  0
 13  7  2  0
 14  8  2  0
 14 13  1  0
 15  9  1  0
 16 15  2  0
 17 10  2  0
 17 16  1  0
 18  2  1  0
 18  3  1  0
 18 12  1  0
 19 11  1  0
 19 13  1  0
 19 16  1  0
 20 14  1  0
 20 15  1  0
M  END
>  <NAME>  (4313) 
ISOTHIPENDYL

>  <SYNONYMS>  (4313) 
10-(2-DIMETHYLAMINO-2-METHYLETHYL)-10H-PYRIDO(3,2-B)(1,4)BENZOTHIAZINE

>  <SPECTRUM TYPE>  (4313) 
MS1

>  <INSTRUMENT TYPE>  (4313) 
EI-B

>  <INSTRUMENT>  (4313) 
JEOL JMS-D-300

>  <ION MODE>  (4313) 
P

>  <INCHIKEY>  (4313) 
OQJBSDFFQWMKBQ-UHFFFAOYSA-N

>  <FORMULA>  (4313) 
C16H19N3S

>  <EXACT MASS>  (4313) 
285.129968608

>  <MW>  (4313) 
285

>  <ID>  (4313) 
JP005766

>  <CONTRIBUTOR>  (4313) 
University of Tokyo Team, {Faculty of Engineering, University of Tokyo

>  <COMMENT>  (4313) 
SMILES=CN(C)C(C)CN(c21)c(n3)c(ccc3)Sc(cccc2)1
InChI=InChI=1S/C16H19N3S/c1-12(18(2)3)11-19-13-7-4-5-8-14(13)20-15-9-6-10-17-16(15)19/h4-10,12H,11H2,1-3H3
computed SMILES=N=1C=CC=C2SC=3C=CC=CC3N(C12)CC(N(C)C)C
accession=JP005766
date=2016.01.19 (Created 2008.10.21, modified 2011.05.06)
author=HAMAMATSU UNIV. SCHOOL OF MEDICINE
license=CC BY-NC-SA
exact mass=285.12997
ionization energy=70 eV
ion type=[M]+*
computed spectral entropy=1.012403168754499
computed normalized entropy=0.39470688409865834
SPLASH=splash10-00di-9000000000-fcb41271c0640c5ac2b5
submitter=submitter = University of Tokyo Team (Faculty of Engineering, University of Tokyo)
MoNA Rating=3.75

>  <NUM PEAKS>  (4313) 
13

>  <MASS SPECTRAL PEAKS>  (4313) 
56 2.19
57 1.14
70 2.15
71 2.14
72 99.99
73 4.67
86 3.47
168 1.86
181 1.37
199 1.57
200 5.5
214 0.21
285 1.15

$$$$

     RDKit          2D

 30 33  0  0  0  0  0  0  0  0999 V2000
    7.7970    1.5006    0.0000 C   0  0  0  0  0  0  0  0  0  0  0  0
    6.4983   -0.7496    0.0000 C   0  0  0  0  0  0  0  0  0  0  0  0
   -6.4959    8.2521    0.0000 C   0  0  0  0  0  0  0  0  0  0  0  0
   -3.9000    0.7500    0.0000 C   0  0  0  0  0  0  0  0  0  0  0  0
   -3.9000   -0.7500    0.0000 C   0  0  0  0  0  0  0  0  0  0  0  0
   -1.2990    3.7500    0.0000 C   0  0  0  0  0  0  0  0  0  0  0  0
   -2.6000    1.5000    0.0000 C   0  0  0  0  0  0  0  0  0  0  0  0
   -2.6000   -1.5000    0.0000 C   0  0  0  0  0  0  0  0  0  0  0  0
    3.9000   -0.7500    0.0000 C   0  0  0  0  0  0  0  0  0  0  0  0
    2.6000   -1.5000    0.0000 C   0  0  0  0  0  0  0  0  0  0  0  0
   -1.2990    5.2500    0.0000 C   0  0  0  0  0  0  0  0  0  0  0  0
    0.0000    3.0000    0.0000 C   0  0  0  0  0  0  0  0  0  0  0  0
   -3.8977    8.2519    0.0000 C   0  0  0  0  0  0  0  0  0  0  0  0
   -5.1966    6.0012    0.0000 C   0  0  0  0  0  0  0  0  0  0  0  0
   -2.5983    7.5008    0.0000 C   0  0  0  0  0  0  0  0  0  0  0  0
   -3.8972    5.2502    0.0000 C   0  0  0  0  0  0  0  0  0  0  0  0
    2.6000    1.5000    0.0000 C   0  0  0  0  0  0  0  0  0  0  0  0
    3.9000    0.7500    0.0000 C   0  0  0  0  0  0  0  0  0  0  0  0
   -1.3000    0.7500    0.0000 C   0  0  0  0  0  0  0  0  0  0  0  0
    1.3000    0.7500    0.0000 C   0  0  0  0  0  0  0  0  0  0  0  0
   -1.3000   -0.7500    0.0000 C   0  0  0  0  0  0  0  0  0  0  0  0
    1.3000   -0.7500    0.0000 C   0  0  0  0  0  0  0  0  0  0  0  0
    6.4981    0.7504    0.0000 N   0  0  0  0  0  0  0  0  0  0  0  0
   -5.1969    7.5021    0.0000 N   0  0  0  0  0  0  0  0  0  0  0  0
   -2.5981    6.0000    0.0000 N   0  0  0  0  0  0  0  0  0  0  0  0
   -0.0000    1.5000    0.0000 N   0  0  0  0  0  0  0  0  0  0  0  0
    6.1629    2.6494    0.0000 O   0  0  0  0  0  0  0  0  0  0  0  0
    4.2346    2.6491    0.0000 O   0  0  0  0  0  0  0  0  0  0  0  0
   -0.0000   -1.5000    0.0000 S   0  0  0  0  0  0  0  0  0  0  0  0
    5.1989    1.5002    0.0000 S   0  0  0  0  0  0  0  0  0  0  0  0
  5  4  2  0
  7  4  1  0
  8  5  1  0
 10  9  1  0
 11  6  1  0
 12  6  1  0
 15 13  1  0
 16 14  1  0
 18  9  2  0
 18 17  1  0
 19  7  2  0
 20 17  2  0
 21  8  2  0
 21 19  1  0
 22 10  2  0
 22 20  1  0
 23  1  1  0
 23  2  1  0
 24  3  1  0
 24 13  1  0
 24 14  1  0
 25 11  1  0
 25 15  1  0
 25 16  1  0
 26 12  1  0
 26 19  1  0
 26 20  1  0
 29 21  1  0
 29 22  1  0
 30 18  1  0
 30 23  1  0
 30 27  2  0
 30 28  2  0
M  END
>  <NAME>  (4314) 
THIOPROPERAZINE

>  <SYNONYMS>  (4314) 
N,N-DIMETHYL-10-(3-(4-METHYL-1-PIPERAZINYL)PROPYL)-10H-PHENOTHIAZINE-2-SULFONAMIDE

>  <SPECTRUM TYPE>  (4314) 
MS1

>  <INSTRUMENT TYPE>  (4314) 
EI-B

>  <INSTRUMENT>  (4314) 
JEOL JMS-D-300

>  <ION MODE>  (4314) 
P

>  <INCHIKEY>  (4314) 
VZYCZNZBPPHOFY-UHFFFAOYSA-N

>  <FORMULA>  (4314) 
C22H30N4O2S2

>  <EXACT MASS>  (4314) 
446.1810182

>  <MW>  (4314) 
446

>  <ID>  (4314) 
JP005765

>  <CONTRIBUTOR>  (4314) 
University of Tokyo Team, {Faculty of Engineering, University of Tokyo

>  <COMMENT>  (4314) 
SMILES=CN(C4)CCN(C4)CCCN(c21)c(c3)c(ccc3S(=O)(=O)N(C)C)Sc(cccc2)1
cas=316-81-4
InChI=InChI=1S/C22H30N4O2S2/c1-23(2)30(27,28)18-9-10-22-20(17-18)26(19-7-4-5-8-21(19)29-22)12-6-11-25-15-13-24(3)14-16-25/h4-5,7-10,17H,6,11-16H2,1-3H3
computed SMILES=O=S(=O)(C1=CC=C2SC=3C=CC=CC3N(C2=C1)CCCN4CCN(C)CC4)N(C)C
accession=JP005765
date=2016.01.19 (Created 2008.10.21, modified 2011.05.06)
author=HAMAMATSU UNIV. SCHOOL OF MEDICINE
license=CC BY-NC-SA
exact mass=446.18102
ionization energy=70 eV
ion type=[M]+*
computed spectral entropy=3.8690694174747975
computed normalized entropy=0.8279929684007644
SPLASH=splash10-0229-6924100000-fcb76747a5faaee6b722
submitter=submitter = University of Tokyo Team (Faculty of Engineering, University of Tokyo)
MoNA Rating=3.75

>  <NUM PEAKS>  (4314) 
107

>  <MASS SPECTRAL PEAKS>  (4314) 
55 1.1
56 12.48
57 7.42
58 10.75
59 2.13
63 1.41
64 1.5
68 1.65
69 2.86
70 86.62
71 32.98
72 7.08
77 1.08
79 2.57
80 1.9
81 1.61
82 3.42
83 4.23
84 8.63
85 12.57
86 1.75
95 1.41
96 4.12
97 13.78
98 13.36
99 10.57
100 1.62
109 1.04
111 10.11
112 2.5
113 99.99
114 22.08
115 1.82
125 1.84
126 3.29
127 69.79
128 6.73
139 4.52
140 2.94
141 34.21
142 3.26
152 1.16
153 2.31
154 0.3
166 1.44
167 2.73
170 1
171 2.16
172 1.25
178 1.8
179 4.74
180 3.19
184 1.12
185 1.29
191 1
196 6.48
197 11.57
198 25.3
199 9.74
200 2.41
209 1.28
210 7.34
211 10.18
212 26.99
213 4.7
214 4.43
222 2.34
223 6.28
224 6.76
225 3.84
226 1.84
236 1.97
237 2.91
238 9.76
239 3.54
240 1.16
266 1.49
267 2.19
268 2.19
287 2.56
305 2.63
306 21.77
307 4.38
308 2.49
319 10.91
320 35.08
321 7.39
322 3.85
332 10.97
333 7.44
334 2.6
337 1.85
338 15.95
339 4.29
340 1.3
345 7.59
346 6.37
347 1.87
359 1.67
387 1.83
389 4.27
390 1.39
402 2.6
403 1.49
446 33.81
447 10.15
448 4.98

$$$$

     RDKit          2D

 21 23  0  0  0  0  0  0  0  0999 V2000
   -2.5981    2.8000    0.0000 C   0  0  0  0  0  0  0  0  0  0  0  0
   -2.5981    7.3000    0.0000 C   0  0  0  0  0  0  0  0  0  0  0  0
   -3.8971    5.0500    0.0000 C   0  0  0  0  0  0  0  0  0  0  0  0
    3.9000    0.5500    0.0000 C   0  0  0  0  0  0  0  0  0  0  0  0
   -3.9000    0.5500    0.0000 C   0  0  0  0  0  0  0  0  0  0  0  0
    3.9000   -0.9500    0.0000 C   0  0  0  0  0  0  0  0  0  0  0  0
   -3.9000   -0.9500    0.0000 C   0  0  0  0  0  0  0  0  0  0  0  0
    2.6000    1.3000    0.0000 C   0  0  0  0  0  0  0  0  0  0  0  0
   -2.6000    1.3000    0.0000 C   0  0  0  0  0  0  0  0  0  0  0  0
    2.6000   -1.7000    0.0000 C   0  0  0  0  0  0  0  0  0  0  0  0
   -2.6000   -1.7000    0.0000 C   0  0  0  0  0  0  0  0  0  0  0  0
   -1.2990    5.0500    0.0000 C   0  0  0  0  0  0  0  0  0  0  0  0
    0.0000    2.8000    0.0000 C   0  0  0  0  0  0  0  0  0  0  0  0
   -1.2990    3.5500    0.0000 C   0  0  0  0  0  0  0  0  0  0  0  0
    1.3000    0.5500    0.0000 C   0  0  0  0  0  0  0  0  0  0  0  0
   -1.3000    0.5500    0.0000 C   0  0  0  0  0  0  0  0  0  0  0  0
    1.3000   -0.9500    0.0000 C   0  0  0  0  0  0  0  0  0  0  0  0
   -1.3000   -0.9500    0.0000 C   0  0  0  0  0  0  0  0  0  0  0  0
   -2.5981    5.8000    0.0000 N   0  0  0  0  0  0  0  0  0  0  0  0
   -0.0000    1.3000    0.0000 N   0  0  0  0  0  0  0  0  0  0  0  0
   -0.0000   -1.7000    0.0000 S   0  0  0  0  0  0  0  0  0  0  0  0
  6  4  2  0
  7  5  2  0
  8  4  1  0
  9  5  1  0
 10  6  1  0
 11  7  1  0
 14  1  1  0
 14 12  1  0
 14 13  1  0
 15  8  2  0
 16  9  2  0
 17 10  2  0
 17 15  1  0
 18 11  2  0
 18 16  1  0
 19  2  1  0
 19  3  1  0
 19 12  1  0
 20 13  1  0
 20 15  1  0
 20 16  1  0
 21 17  1  0
 21 18  1  0
M  END
>  <NAME>  (4315) 
TRIMEPRAZINE

>  <SYNONYMS>  (4315) 
10-(3-(DIMETHYLAMINO)-2-METHYLPROPYL)PHENOTHIAZINE

>  <SPECTRUM TYPE>  (4315) 
MS1

>  <INSTRUMENT TYPE>  (4315) 
EI-B

>  <INSTRUMENT>  (4315) 
JEOL JMS-D-300

>  <ION MODE>  (4315) 
P

>  <INCHIKEY>  (4315) 
ZZHLYYDVIOPZBE-UHFFFAOYSA-N

>  <FORMULA>  (4315) 
C18H22N2S

>  <EXACT MASS>  (4315) 
298.150369704

>  <MW>  (4315) 
298

>  <ID>  (4315) 
JP005764

>  <CONTRIBUTOR>  (4315) 
University of Tokyo Team, {Faculty of Engineering, University of Tokyo

>  <COMMENT>  (4315) 
SMILES=CN(C)CC(C)CN(c21)c(c3)c(ccc3)Sc(cccc2)1
cas=84-96-8
InChI=InChI=1S/C18H22N2S/c1-14(12-19(2)3)13-20-15-8-4-6-10-17(15)21-18-11-7-5-9-16(18)20/h4-11,14H,12-13H2,1-3H3
computed SMILES=S1C=2C=CC=CC2N(C=3C=CC=CC13)CC(C)CN(C)C
accession=JP005764
date=2016.01.19 (Created 2008.10.21, modified 2011.05.06)
author=HAMAMATSU UNIV. SCHOOL OF MEDICINE
license=CC BY-NC-SA
exact mass=298.15037
ionization energy=70 eV
ion type=[M]+*
computed spectral entropy=2.191708192225199
computed normalized entropy=0.6443931199177031
SPLASH=splash10-0a4i-9240000000-3d6ddecfeef1ce4ea2a2
submitter=submitter = University of Tokyo Team (Faculty of Engineering, University of Tokyo)
MoNA Rating=3.75

>  <NUM PEAKS>  (4315) 
30

>  <MASS SPECTRAL PEAKS>  (4315) 
57 1.43
58 99.99
59 4.27
71 1.12
84 3.24
86 1.82
99 2.79
100 0.79
152 1.17
154 1.81
166 1.23
167 1.97
179 1.3
180 5.65
197 1.14
198 6.97
199 5.63
200 1.16
212 5.9
213 2.02
223 1.47
224 1.26
238 4.41
239 5.54
240 2.13
252 4.4
253 3.61
298 18.43
299 3.83
300 1.28

$$$$

     RDKit          2D

 20 22  0  0  0  0  0  0  0  0999 V2000
   -2.5981    7.3000    0.0000 C   0  0  0  0  0  0  0  0  0  0  0  0
   -3.8971    5.0500    0.0000 C   0  0  0  0  0  0  0  0  0  0  0  0
    3.9000    0.5500    0.0000 C   0  0  0  0  0  0  0  0  0  0  0  0
   -3.9000    0.5500    0.0000 C   0  0  0  0  0  0  0  0  0  0  0  0
    3.9000   -0.9500    0.0000 C   0  0  0  0  0  0  0  0  0  0  0  0
   -3.9000   -0.9500    0.0000 C   0  0  0  0  0  0  0  0  0  0  0  0
   -1.2990    3.5500    0.0000 C   0  0  0  0  0  0  0  0  0  0  0  0
    2.6000    1.3000    0.0000 C   0  0  0  0  0  0  0  0  0  0  0  0
   -2.6000    1.3000    0.0000 C   0  0  0  0  0  0  0  0  0  0  0  0
    2.6000   -1.7000    0.0000 C   0  0  0  0  0  0  0  0  0  0  0  0
   -2.6000   -1.7000    0.0000 C   0  0  0  0  0  0  0  0  0  0  0  0
   -1.2990    5.0500    0.0000 C   0  0  0  0  0  0  0  0  0  0  0  0
    0.0000    2.8000    0.0000 C   0  0  0  0  0  0  0  0  0  0  0  0
    1.3000    0.5500    0.0000 C   0  0  0  0  0  0  0  0  0  0  0  0
   -1.3000    0.5500    0.0000 C   0  0  0  0  0  0  0  0  0  0  0  0
    1.3000   -0.9500    0.0000 C   0  0  0  0  0  0  0  0  0  0  0  0
   -1.3000   -0.9500    0.0000 C   0  0  0  0  0  0  0  0  0  0  0  0
   -2.5981    5.8000    0.0000 N   0  0  0  0  0  0  0  0  0  0  0  0
   -0.0000    1.3000    0.0000 N   0  0  0  0  0  0  0  0  0  0  0  0
   -0.0000   -1.7000    0.0000 S   0  0  0  0  0  0  0  0  0  0  0  0
  5  3  2  0
  6  4  2  0
  8  3  1  0
  9  4  1  0
 10  5  1  0
 11  6  1  0
 12  7  1  0
 13  7  1  0
 14  8  2  0
 15  9  2  0
 16 10  2  0
 16 14  1  0
 17 11  2  0
 17 15  1  0
 18  1  1  0
 18  2  1  0
 18 12  1  0
 19 13  1  0
 19 14  1  0
 19 15  1  0
 20 16  1  0
 20 17  1  0
M  END
>  <NAME>  (4316) 
PROMAZINE

>  <SYNONYMS>  (4316) 
N,N-DIMETHYL-10H-PHENOTHIAZINE-10-PROPANAMINE

>  <SPECTRUM TYPE>  (4316) 
MS1

>  <INSTRUMENT TYPE>  (4316) 
EI-B

>  <INSTRUMENT>  (4316) 
JEOL JMS-D-300

>  <ION MODE>  (4316) 
P

>  <INCHIKEY>  (4316) 
ZGUGWUXLJSTTMA-UHFFFAOYSA-N

>  <FORMULA>  (4316) 
C17H20N2S

>  <EXACT MASS>  (4316) 
284.13471963999996

>  <MW>  (4316) 
284

>  <ID>  (4316) 
JP005763

>  <CONTRIBUTOR>  (4316) 
University of Tokyo Team, {Faculty of Engineering, University of Tokyo

>  <COMMENT>  (4316) 
SMILES=CN(C)CCCN(c21)c(c3)c(ccc3)Sc(cccc2)1
cas=58-40-2
InChI=InChI=1S/C17H20N2S/c1-18(2)12-7-13-19-14-8-3-5-10-16(14)20-17-11-6-4-9-15(17)19/h3-6,8-11H,7,12-13H2,1-2H3
computed SMILES=S1C=2C=CC=CC2N(C=3C=CC=CC13)CCCN(C)C
accession=JP005763
date=2016.01.19 (Created 2008.10.21, modified 2011.05.06)
author=HAMAMATSU UNIV. SCHOOL OF MEDICINE
license=CC BY-NC-SA
exact mass=284.13472
ionization energy=70 eV
ion type=[M]+*
computed spectral entropy=3.007362184840003
computed normalized entropy=0.7611178654197782
SPLASH=splash10-053i-9470000000-c8ea76fcc1b124b82db0
submitter=submitter = University of Tokyo Team (Faculty of Engineering, University of Tokyo)
MoNA Rating=3.75

>  <NUM PEAKS>  (4316) 
52

>  <MASS SPECTRAL PEAKS>  (4316) 
52 1.28
56 1.3
57 1.99
58 99.99
59 5.6
63 1.46
65 1.12
69 2.13
70 4.28
71 2.31
72 3.77
77 2.17
84 4.82
85 16.73
86 39.33
87 0.23
109 1.33
127 2.08
128 1.37
139 1.66
140 1.36
152 2.25
153 1.72
154 4.07
166 2.83
167 3.96
171 1.76
178 1.23
179 2.59
180 10.72
181 1.78
184 1.31
196 1.2
197 2.61
198 16.92
199 27.08
200 4.51
201 1.4
210 1.95
212 9.59
213 5.88
214 1.2
223 2.61
224 5.28
225 5.92
226 3.39
238 28.51
239 11.57
240 3.06
284 57.28
285 12.17
286 3.74

$$$$

     RDKit          2D

 21 23  0  0  0  0  0  0  0  0999 V2000
   -2.9381    7.2156    0.0000 C   0  0  0  0  0  0  0  0  0  0  0  0
   -4.2334    4.9635    0.0000 C   0  0  0  0  0  0  0  0  0  0  0  0
   -4.2200    0.4700    0.0000 C   0  0  0  0  0  0  0  0  0  0  0  0
   -4.2200   -1.0300    0.0000 C   0  0  0  0  0  0  0  0  0  0  0  0
   -1.6328    3.4678    0.0000 C   0  0  0  0  0  0  0  0  0  0  0  0
   -2.9200    1.2200    0.0000 C   0  0  0  0  0  0  0  0  0  0  0  0
   -2.9200   -1.7800    0.0000 C   0  0  0  0  0  0  0  0  0  0  0  0
    3.5700   -1.0300    0.0000 C   0  0  0  0  0  0  0  0  0  0  0  0
    2.2700   -1.7800    0.0000 C   0  0  0  0  0  0  0  0  0  0  0  0
   -1.6353    4.9678    0.0000 C   0  0  0  0  0  0  0  0  0  0  0  0
   -0.3325    2.7200    0.0000 C   0  0  0  0  0  0  0  0  0  0  0  0
    2.2700    1.2200    0.0000 C   0  0  0  0  0  0  0  0  0  0  0  0
    3.5700    0.4700    0.0000 C   0  0  0  0  0  0  0  0  0  0  0  0
   -1.6200    0.4700    0.0000 C   0  0  0  0  0  0  0  0  0  0  0  0
    0.9700    0.4700    0.0000 C   0  0  0  0  0  0  0  0  0  0  0  0
   -1.6200   -1.0300    0.0000 C   0  0  0  0  0  0  0  0  0  0  0  0
    0.9700   -1.0300    0.0000 C   0  0  0  0  0  0  0  0  0  0  0  0
    4.8689    1.2202    0.0000 Cl  0  0  0  0  0  0  0  0  0  0  0  0
   -2.9356    5.7156    0.0000 N   0  0  0  0  0  0  0  0  0  0  0  0
   -0.3300    1.2200    0.0000 N   0  0  0  0  0  0  0  0  0  0  0  0
   -0.3300   -1.7800    0.0000 S   0  0  0  0  0  0  0  0  0  0  0  0
  4  3  2  0
  6  3  1  0
  7  4  1  0
  9  8  1  0
 10  5  1  0
 11  5  1  0
 13  8  2  0
 13 12  1  0
 14  6  2  0
 15 12  2  0
 16  7  2  0
 16 14  1  0
 17  9  2  0
 17 15  1  0
 18 13  1  0
 19  1  1  0
 19  2  1  0
 19 10  1  0
 20 11  1  0
 20 14  1  0
 20 15  1  0
 21 16  1  0
 21 17  1  0
M  END
>  <NAME>  (4317) 
CHLORPROMAZINE

>  <SYNONYMS>  (4317) 
2-CHLORO-N,N-DIMETHYL-10H-PHENOTHIAZINE-10-PROPANAMINE

>  <SPECTRUM TYPE>  (4317) 
MS1

>  <INSTRUMENT TYPE>  (4317) 
EI-B

>  <INSTRUMENT>  (4317) 
JEOL JMS-D-300

>  <ION MODE>  (4317) 
P

>  <INCHIKEY>  (4317) 
ZPEIMTDSQAKGNT-UHFFFAOYSA-N

>  <FORMULA>  (4317) 
C17H19ClN2S

>  <EXACT MASS>  (4317) 
318.095747288

>  <MW>  (4317) 
318

>  <ID>  (4317) 
JP005762

>  <CONTRIBUTOR>  (4317) 
University of Tokyo Team, {Faculty of Engineering, University of Tokyo

>  <COMMENT>  (4317) 
SMILES=CN(C)CCCN(c21)c(c3)c(ccc(Cl)3)Sc(cccc2)1
cas=50-53-3
InChI=InChI=1S/C17H19ClN2S/c1-19(2)10-5-11-20-14-6-3-4-7-16(14)21-17-9-8-13(18)12-15(17)20/h3-4,6-9,12H,5,10-11H2,1-2H3
computed SMILES=ClC1=CC=C2SC=3C=CC=CC3N(C2=C1)CCCN(C)C
accession=JP005762
date=2016.01.19 (Created 2008.10.21, modified 2011.05.06)
author=HAMAMATSU UNIV. SCHOOL OF MEDICINE
license=CC BY-NC-SA
exact mass=318.09575
ionization energy=70 eV
ion type=[M]+*
computed spectral entropy=3.04577879565659
computed normalized entropy=0.7501099726669271
SPLASH=splash10-0a4r-9053000000-9e1cc1d4fc6be5bc73b8
submitter=submitter = University of Tokyo Team (Faculty of Engineering, University of Tokyo)
MoNA Rating=3.75

>  <NUM PEAKS>  (4317) 
58

>  <MASS SPECTRAL PEAKS>  (4317) 
56 1.68
57 2.56
58 99.99
59 0.64
63 1.41
69 2.11
70 4.28
71 2.73
72 4.34
75 1
77 1.28
84 4.68
85 17.68
86 41.51
87 2.63
139 0.12
152 1.63
153 1.54
164 1.11
188 1.39
196 2.95
197 3.08
198 3.17
200 1.26
201 1.39
210 1.05
211 1.37
212 1.33
213 1.27
214 5.23
215 1.01
216 1.77
223 2.43
224 1.08
225 1.06
232 8.26
233 11.64
234 4.87
235 4.32
236 1.01
238 1.26
244 1.09
246 4.33
247 4.01
248 2.11
249 1.43
258 2.12
259 3.91
260 2.06
261 1.51
272 15.1
273 8.35
274 7.04
275 3.14
318 38.93
319 7.98
320 14.07
321 2.95

$$$$

     RDKit          2D

 10  9  0  0  0  0  0  0  0  0999 V2000
    2.5981    4.5000    0.0000 C   0  0  0  0  0  0  0  0  0  0  0  0
   -7.7942    4.5000    0.0000 C   0  0  0  0  0  0  0  0  0  0  0  0
    1.2990    5.2500    0.0000 C   0  0  0  0  0  0  0  0  0  0  0  0
   -6.4952    5.2500    0.0000 C   0  0  0  0  0  0  0  0  0  0  0  0
    0.0000    4.5000    0.0000 C   0  0  0  0  0  0  0  0  0  0  0  0
   -5.1962    4.5000    0.0000 C   0  0  0  0  0  0  0  0  0  0  0  0
   -1.2990    5.2500    0.0000 C   0  0  0  0  0  0  0  0  0  0  0  0
   -3.8971    5.2500    0.0000 C   0  0  0  0  0  0  0  0  0  0  0  0
   -2.5981    4.5000    0.0000 C   0  0  0  0  0  0  0  0  0  0  0  0
   -2.5981    3.0000    0.0000 O   0  0  0  0  0  0  0  0  0  0  0  0
  3  1  1  0
  4  2  1  0
  5  3  1  0
  6  4  1  0
  7  5  1  0
  8  6  1  0
  9  7  1  0
  9  8  1  0
 10  9  2  0
M  END
>  <NAME>  (4318) 
5-NONANONE

>  <SYNONYMS>  (4318) 
DIBUTYL KETONE

>  <SPECTRUM TYPE>  (4318) 
MS1

>  <INSTRUMENT TYPE>  (4318) 
EI-B

>  <INSTRUMENT>  (4318) 
HITACHI M-80

>  <ION MODE>  (4318) 
P

>  <INCHIKEY>  (4318) 
WSGCRAOTEDLMFQ-UHFFFAOYSA-N

>  <FORMULA>  (4318) 
C9H18O

>  <EXACT MASS>  (4318) 
142.135765196

>  <MW>  (4318) 
142

>  <ID>  (4318) 
JP005761

>  <CONTRIBUTOR>  (4318) 
University of Tokyo Team, {Faculty of Engineering, University of Tokyo

>  <COMMENT>  (4318) 
SMILES=CCCCC(=O)CCCC
cas=502-56-7
InChI=InChI=1S/C9H18O/c1-3-5-7-9(10)8-6-4-2/h3-8H2,1-2H3
computed SMILES=O=C(CCCC)CCCC
accession=JP005761
date=2016.01.19 (Created 2008.10.21, modified 2011.05.06)
author=MASS SPECTROSCOPY SOC. OF JAPAN (MSSJ)
license=CC BY-NC-SA
exact mass=142.13577
ionization energy=70 eV
ion type=[M]+*
computed spectral entropy=2.400460134250214
computed normalized entropy=0.6865308002489862
SPLASH=splash10-052f-9000000000-daac8be30e558abea4d6
submitter=submitter = University of Tokyo Team (Faculty of Engineering, University of Tokyo)
MoNA Rating=3.75

>  <NUM PEAKS>  (4318) 
33

>  <MASS SPECTRAL PEAKS>  (4318) 
38 0.68
39 15.91
40 2.66
41 53.52
42 20.12
43 99.99
44 3.6
50 0.32
51 0.78
52 0.36
53 2.26
54 1.54
55 13.52
56 23.19
57 92.08
58 4.09
67 0.63
68 0.34
69 3.18
70 9.73
71 25.36
72 1.39
83 0.66
84 5.52
85 15.96
86 3.22
98 2.65
99 3.56
100 0.19
113 1.79
114 0.11
142 2.77
143 0.29

$$$$

     RDKit          2D

 11 10  0  0  0  0  0  0  0  0999 V2000
    3.2476    5.6250    0.0000 C   0  0  0  0  0  0  0  0  0  0  0  0
   -9.7428    5.6250    0.0000 C   0  0  0  0  0  0  0  0  0  0  0  0
    1.9486    6.3750    0.0000 C   0  0  0  0  0  0  0  0  0  0  0  0
   -8.4437    6.3750    0.0000 C   0  0  0  0  0  0  0  0  0  0  0  0
    0.6495    5.6250    0.0000 C   0  0  0  0  0  0  0  0  0  0  0  0
   -7.1447    5.6250    0.0000 C   0  0  0  0  0  0  0  0  0  0  0  0
   -0.6495    6.3750    0.0000 C   0  0  0  0  0  0  0  0  0  0  0  0
   -5.8457    6.3750    0.0000 C   0  0  0  0  0  0  0  0  0  0  0  0
   -1.9486    5.6250    0.0000 C   0  0  0  0  0  0  0  0  0  0  0  0
   -4.5466    5.6250    0.0000 C   0  0  0  0  0  0  0  0  0  0  0  0
   -3.2476    6.3750    0.0000 C   0  0  0  0  0  0  0  0  0  0  0  0
  3  1  1  0
  4  2  1  0
  5  3  1  0
  6  4  1  0
  7  5  1  0
  8  6  1  0
  9  7  1  0
 10  8  1  0
 11  9  1  0
 11 10  1  0
M  END
>  <NAME>  (4319) 
UNDECANE

>  <SYNONYMS>  (4319) 


>  <SPECTRUM TYPE>  (4319) 
MS1

>  <INSTRUMENT TYPE>  (4319) 
EI-B

>  <INSTRUMENT>  (4319) 
HITACHI M-80

>  <ION MODE>  (4319) 
P

>  <INCHIKEY>  (4319) 
RSJKGSCJYJTIGS-UHFFFAOYSA-N

>  <FORMULA>  (4319) 
C11H24

>  <EXACT MASS>  (4319) 
156.187800768

>  <MW>  (4319) 
156

>  <ID>  (4319) 
JP005760

>  <CONTRIBUTOR>  (4319) 
University of Tokyo Team, {Faculty of Engineering, University of Tokyo

>  <COMMENT>  (4319) 
SMILES=CCCCCCCCCCC
cas=1120-21-4
InChI=InChI=1S/C11H24/c1-3-5-7-9-11-10-8-6-4-2/h3-11H2,1-2H3
computed SMILES=CCCCCCCCCCC
accession=JP005760
date=2016.01.19 (Created 2008.10.21, modified 2011.05.06)
author=MASS SPECTROSCOPY SOC. OF JAPAN (MSSJ)
license=CC BY-NC-SA
exact mass=156.1878
ionization energy=70 eV
ion type=[M]+*
computed spectral entropy=2.4302804592242433
computed normalized entropy=0.6781826748964477
SPLASH=splash10-0a4l-9000000000-3b14c66dbcb7dadff256
submitter=submitter = University of Tokyo Team (Faculty of Engineering, University of Tokyo)
MoNA Rating=3.75

>  <NUM PEAKS>  (4319) 
36

>  <MASS SPECTRAL PEAKS>  (4319) 
39 10.36
40 1.71
42 12.69
43 99.99
44 3.52
51 0.43
52 0.27
53 2.09
54 1.69
55 15.64
56 15.6
57 92.34
58 4.79
67 0.87
68 0.58
69 4.88
70 11.79
71 43.92
72 2.42
82 0.33
83 1.61
84 7.09
85 25.22
86 1.22
97 0.47
98 5.1
99 5.06
100 0.41
112 2.04
113 4.13
114 0.34
126 0.86
127 2.14
128 0.21
156 5.07
157 0.62

$$$$

     RDKit          2D

 10 10  0  0  0  0  0  0  0  0999 V2000
   -2.9242    2.0631    0.0000 C   0  0  0  0  0  0  0  0  0  0  0  0
   -1.6250    1.3133    0.0000 C   0  0  0  0  0  0  0  0  0  0  0  0
    2.2730   -0.9380    0.0000 C   0  0  0  0  0  0  0  0  0  0  0  0
    3.5721   -0.1880    0.0000 C   0  0  0  0  0  0  0  0  0  0  0  0
   -0.3261    2.0635    0.0000 C   0  0  0  0  0  0  0  0  0  0  0  0
    0.9735   -0.1871    0.0000 C   0  0  0  0  0  0  0  0  0  0  0  0
    3.5716    1.3129    0.0000 C   0  0  0  0  0  0  0  0  0  0  0  0
    0.9730    1.3137    0.0000 C   0  0  0  0  0  0  0  0  0  0  0  0
    2.2721    2.0637    0.0000 C   0  0  0  0  0  0  0  0  0  0  0  0
    2.2723    3.5637    0.0000 O   0  0  0  0  0  0  0  0  0  0  0  0
  2  1  1  0
  4  3  1  0
  5  2  1  0
  6  3  1  0
  7  4  1  0
  8  5  1  0
  8  6  1  0
  9  7  1  0
  9  8  1  0
 10  9  1  0
M  END
>  <NAME>  (4320) 
2-PROPYLCYCLOHEXANOL

>  <SYNONYMS>  (4320) 


>  <SPECTRUM TYPE>  (4320) 
MS1

>  <INSTRUMENT TYPE>  (4320) 
EI-B

>  <INSTRUMENT>  (4320) 
HITACHI M-80

>  <ION MODE>  (4320) 
P

>  <INCHIKEY>  (4320) 
VZBNUCDUQJCIDP-UHFFFAOYSA-N

>  <FORMULA>  (4320) 
C9H18O

>  <EXACT MASS>  (4320) 
142.135765196

>  <MW>  (4320) 
142

>  <ID>  (4320) 
JP005759

>  <CONTRIBUTOR>  (4320) 
University of Tokyo Team, {Faculty of Engineering, University of Tokyo

>  <COMMENT>  (4320) 
SMILES=CCCC(C1)C(O)CCC1
InChI=InChI=1S/C9H18O/c1-2-5-8-6-3-4-7-9(8)10/h8-10H,2-7H2,1H3
computed SMILES=OC1CCCCC1CCC
ion type=[M]+*
accession=JP005759
date=2016.01.19 (Created 2008.10.21, modified 2011.05.06)
author=MASS SPECTROSCOPY SOC. OF JAPAN (MSSJ)
license=CC BY-NC-SA
exact mass=142.13577
ionization energy=70 eV
computed spectral entropy=3.2785534096624547
computed normalized entropy=0.8144762648213957
SPLASH=splash10-05o1-9000000000-1638aa2a694cfe643651
submitter=submitter = University of Tokyo Team (Faculty of Engineering, University of Tokyo)
MoNA Rating=3.75

>  <NUM PEAKS>  (4320) 
56

>  <MASS SPECTRAL PEAKS>  (4320) 
38 0.81
39 29.6
40 4.27
41 61.96
42 11.61
43 30.11
44 25.77
45 6.63
50 0.65
51 2.69
52 1.57
53 12.14
54 24.49
55 50.55
56 13.19
57 73.31
58 9.64
59 1.52
65 2.39
66 10.07
67 46.29
68 46.44
69 24.34
70 10.33
71 21.74
72 3.57
73 1.22
77 2.54
78 0.61
79 5.39
80 3.54
81 47.19
82 99.99
83 13.3
84 1.32
85 5.15
86 0.66
91 0.54
93 0.94
94 1.51
95 40.47
96 34.07
97 3.04
98 3.43
99 13.79
100 1.83
109 4.99
110 0.53
111 0.82
113 2.8
114 0.76
123 0.62
124 30.64
125 4.46
141 0.71
142 0.99

$$$$

     RDKit          2D

  9  9  0  0  0  0  0  0  0  0999 V2000
   -2.9228    0.8825    0.0000 C   0  0  0  0  0  0  0  0  0  0  0  0
   -1.6238    3.1325    0.0000 C   0  0  0  0  0  0  0  0  0  0  0  0
    2.2733   -0.6175    0.0000 C   0  0  0  0  0  0  0  0  0  0  0  0
    0.9738   -1.3683    0.0000 C   0  0  0  0  0  0  0  0  0  0  0  0
    2.2738    0.8833    0.0000 C   0  0  0  0  0  0  0  0  0  0  0  0
   -0.3252   -0.6183    0.0000 C   0  0  0  0  0  0  0  0  0  0  0  0
    0.9748    1.6333    0.0000 C   0  0  0  0  0  0  0  0  0  0  0  0
   -0.3248    0.8825    0.0000 C   0  0  0  0  0  0  0  0  0  0  0  0
   -1.6238    1.6325    0.0000 N   0  0  0  0  0  0  0  0  0  0  0  0
  4  3  2  0
  5  3  1  0
  6  4  1  0
  7  5  2  0
  8  6  2  0
  8  7  1  0
  9  1  1  0
  9  2  1  0
  9  8  1  0
M  END
>  <NAME>  (4321) 
N,N-DIMETHYLANILINE

>  <SYNONYMS>  (4321) 


>  <SPECTRUM TYPE>  (4321) 
MS1

>  <INSTRUMENT TYPE>  (4321) 
EI-B

>  <INSTRUMENT>  (4321) 
HITACHI M-80

>  <ION MODE>  (4321) 
P

>  <INCHIKEY>  (4321) 
JLTDJTHDQAWBAV-UHFFFAOYSA-N

>  <FORMULA>  (4321) 
C8H11N

>  <EXACT MASS>  (4321) 
121.08914935199999

>  <MW>  (4321) 
121

>  <ID>  (4321) 
JP005758

>  <CONTRIBUTOR>  (4321) 
University of Tokyo Team, {Faculty of Engineering, University of Tokyo

>  <COMMENT>  (4321) 
SMILES=CN(C)c(c1)cccc1
cas=121-69-7
InChI=InChI=1S/C8H11N/c1-9(2)8-6-4-3-5-7-8/h3-7H,1-2H3
computed SMILES=C=1C=CC(=CC1)N(C)C
accession=JP005758
date=2016.01.19 (Created 2008.10.21, modified 2011.05.06)
author=MASS SPECTROSCOPY SOC. OF JAPAN (MSSJ)
license=CC BY-NC-SA
exact mass=121.08915
ionization energy=70 eV
ion type=[M]+*
computed spectral entropy=2.924012714420804
computed normalized entropy=0.7232193016406886
SPLASH=splash10-00di-5900000000-85d8ed115885f58b6fc3
submitter=submitter = University of Tokyo Team (Faculty of Engineering, University of Tokyo)
MoNA Rating=3.75

>  <NUM PEAKS>  (4321) 
57

>  <MASS SPECTRAL PEAKS>  (4321) 
37 0.63
38 3.14
39 12.18
40 1.54
47 1.07
49 0.21
50 3.57
51 8.26
52 6.88
53 6.78
54 4.47
55 1.07
59 1.78
60 1.96
61 2.41
62 1.82
63 4.8
64 1.43
65 7.4
66 2.76
67 2.55
68 1.68
69 0.9
70 0.2
73 0.25
74 0.78
75 0.85
76 1.3
77 16.98
78 10.19
79 6.33
80 3.4
81 1.72
82 2.39
83 0.39
89 1.5
90 0.67
91 11.48
92 3.04
93 5.62
94 2.5
95 1.33
96 0.78
102 1.35
103 7.4
104 4.65
105 2.39
106 61.99
107 4.85
117 0.97
118 2.68
119 1.81
120 49.43
121 99.99
122 9.27
123 0.33
124 0.65

$$$$

     RDKit          2D

 10 11  0  0  0  0  0  0  0  0999 V2000
   -2.6000   -0.7500    0.0000 C   0  0  0  0  0  0  0  0  0  0  0  0
   -2.6000    0.7500    0.0000 C   0  0  0  0  0  0  0  0  0  0  0  0
    2.6000   -0.7500    0.0000 C   0  0  0  0  0  0  0  0  0  0  0  0
    2.6000    0.7500    0.0000 C   0  0  0  0  0  0  0  0  0  0  0  0
   -1.3000   -1.5000    0.0000 C   0  0  0  0  0  0  0  0  0  0  0  0
   -1.3000    1.5000    0.0000 C   0  0  0  0  0  0  0  0  0  0  0  0
    1.3000   -1.5000    0.0000 C   0  0  0  0  0  0  0  0  0  0  0  0
    1.3000    1.5000    0.0000 C   0  0  0  0  0  0  0  0  0  0  0  0
    0.0000   -0.7500    0.0000 C   0  0  0  0  0  0  0  0  0  0  0  0
    0.0000    0.7500    0.0000 C   0  0  0  0  0  0  0  0  0  0  0  0
  2  1  2  0
  4  3  1  0
  5  1  1  0
  6  2  1  0
  7  3  2  0
  8  4  2  0
  9  5  2  0
  9  7  1  0
 10  6  2  0
 10  8  1  0
 10  9  1  0
M  END
>  <NAME>  (4322) 
NAPHTHALENE

>  <SYNONYMS>  (4322) 


>  <SPECTRUM TYPE>  (4322) 
MS1

>  <INSTRUMENT TYPE>  (4322) 
EI-B

>  <INSTRUMENT>  (4322) 
HITACHI M-80

>  <ION MODE>  (4322) 
P

>  <INCHIKEY>  (4322) 
UFWIBTONFRDIAS-UHFFFAOYSA-N

>  <FORMULA>  (4322) 
C10H8

>  <EXACT MASS>  (4322) 
128.062600256

>  <MW>  (4322) 
128

>  <ID>  (4322) 
JP005757

>  <CONTRIBUTOR>  (4322) 
University of Tokyo Team, {Faculty of Engineering, University of Tokyo

>  <COMMENT>  (4322) 
SMILES=c(c2)cc(c1)c(c2)ccc1
cas=91-20-3
InChI=InChI=1S/C10H8/c1-2-6-10-8-4-3-7-9(10)5-1/h1-8H
computed SMILES=C=1C=CC=2C=CC=CC2C1
accession=JP005757
date=2016.01.19 (Created 2008.10.21, modified 2011.05.06)
author=MASS SPECTROSCOPY SOC. OF JAPAN (MSSJ)
license=CC BY-NC-SA
exact mass=128.0626
ionization energy=70 eV
ion type=[M]+*
computed spectral entropy=2.341096888948002
computed normalized entropy=0.6435852750011828
SPLASH=splash10-004i-4900000000-34ade0e20ab7aa4d4e7f
submitter=submitter = University of Tokyo Team (Faculty of Engineering, University of Tokyo)
MoNA Rating=3.75

>  <NUM PEAKS>  (4322) 
38

>  <MASS SPECTRAL PEAKS>  (4322) 
37 0.78
38 2.08
39 1.77
49 0.48
50 6.27
51 10.68
52 1.79
61 1.19
62 2.73
63 7.51
64 6.28
65 0.49
67 0.25
68 0.24
73 0.58
74 5.2
75 5.7
76 3.82
77 4.65
78 3.28
79 0.29
87 1.8
88 0.32
89 0.84
98 1.37
99 0.64
100 0.66
101 2.64
102 9.31
103 0.8
121 0.87
122 0.2
125 0.35
126 6.03
127 10.62
128 99.99
129 10.9
130 0.59

$$$$

     RDKit          2D

 12 11  0  0  0  0  0  0  0  0999 V2000
    3.8971    6.0000    0.0000 C   0  0  0  0  0  0  0  0  0  0  0  0
  -10.3923    6.7500    0.0000 C   0  0  0  0  0  0  0  0  0  0  0  0
    2.5981    6.7500    0.0000 C   0  0  0  0  0  0  0  0  0  0  0  0
   -9.0933    6.0000    0.0000 C   0  0  0  0  0  0  0  0  0  0  0  0
    1.2990    6.0000    0.0000 C   0  0  0  0  0  0  0  0  0  0  0  0
   -7.7942    6.7500    0.0000 C   0  0  0  0  0  0  0  0  0  0  0  0
    0.0000    6.7500    0.0000 C   0  0  0  0  0  0  0  0  0  0  0  0
   -6.4952    6.0000    0.0000 C   0  0  0  0  0  0  0  0  0  0  0  0
   -1.2990    6.0000    0.0000 C   0  0  0  0  0  0  0  0  0  0  0  0
   -5.1962    6.7500    0.0000 C   0  0  0  0  0  0  0  0  0  0  0  0
   -2.5981    6.7500    0.0000 C   0  0  0  0  0  0  0  0  0  0  0  0
   -3.8971    6.0000    0.0000 C   0  0  0  0  0  0  0  0  0  0  0  0
  3  1  1  0
  4  2  1  0
  5  3  1  0
  6  4  1  0
  7  5  1  0
  8  6  1  0
  9  7  1  0
 10  8  1  0
 11  9  1  0
 12 10  1  0
 12 11  1  0
M  END
>  <NAME>  (4323) 
DODECANE

>  <SYNONYMS>  (4323) 


>  <SPECTRUM TYPE>  (4323) 
MS1

>  <INSTRUMENT TYPE>  (4323) 
EI-B

>  <INSTRUMENT>  (4323) 
HITACHI M-80

>  <ION MODE>  (4323) 
P

>  <INCHIKEY>  (4323) 
SNRUBQQJIBEYMU-UHFFFAOYSA-N

>  <FORMULA>  (4323) 
C12H26

>  <EXACT MASS>  (4323) 
170.203450832

>  <MW>  (4323) 
170

>  <ID>  (4323) 
JP005756

>  <CONTRIBUTOR>  (4323) 
University of Tokyo Team, {Faculty of Engineering, University of Tokyo

>  <COMMENT>  (4323) 
SMILES=CCCCCCCCCCCC
cas=112-40-3
InChI=InChI=1S/C12H26/c1-3-5-7-9-11-12-10-8-6-4-2/h3-12H2,1-2H3
computed SMILES=CCCCCCCCCCCC
accession=JP005756
date=2016.01.19 (Created 2008.10.21, modified 2011.05.06)
author=MASS SPECTROSCOPY SOC. OF JAPAN (MSSJ)
license=CC BY-NC-SA
exact mass=170.20345
ionization energy=70 eV
ion type=[M]+*
computed spectral entropy=2.548586485995505
computed normalized entropy=0.7111966002594964
SPLASH=splash10-052f-9000000000-e297100d4245d91a3893
submitter=submitter = University of Tokyo Team (Faculty of Engineering, University of Tokyo)
MoNA Rating=3.75

>  <NUM PEAKS>  (4323) 
36

>  <MASS SPECTRAL PEAKS>  (4323) 
39 8.15
40 1.49
41 41.51
42 11.33
43 98.66
44 3.45
53 2.13
54 2.05
55 17.07
56 14.21
57 99.99
58 4.93
67 1.24
68 1.11
69 6.35
70 11.79
71 52.2
72 2.82
82 0.73
83 2.35
84 7.03
85 29.3
86 0.94
97 0.92
98 5.46
99 5.66
100 0.4
112 3.05
113 4.38
126 1.38
127 3.05
128 0.77
140 0.71
141 1.58
170 5.13
171 0.65

$$$$

     RDKit          2D

 13 12  0  0  0  0  0  0  0  0999 V2000
    3.8971    6.7500    0.0000 C   0  0  0  0  0  0  0  0  0  0  0  0
  -11.6913    6.7500    0.0000 C   0  0  0  0  0  0  0  0  0  0  0  0
    2.5981    7.5000    0.0000 C   0  0  0  0  0  0  0  0  0  0  0  0
  -10.3923    7.5000    0.0000 C   0  0  0  0  0  0  0  0  0  0  0  0
    1.2990    6.7500    0.0000 C   0  0  0  0  0  0  0  0  0  0  0  0
   -9.0933    6.7500    0.0000 C   0  0  0  0  0  0  0  0  0  0  0  0
    0.0000    7.5000    0.0000 C   0  0  0  0  0  0  0  0  0  0  0  0
   -7.7942    7.5000    0.0000 C   0  0  0  0  0  0  0  0  0  0  0  0
   -1.2990    6.7500    0.0000 C   0  0  0  0  0  0  0  0  0  0  0  0
   -6.4952    6.7500    0.0000 C   0  0  0  0  0  0  0  0  0  0  0  0
   -2.5981    7.5000    0.0000 C   0  0  0  0  0  0  0  0  0  0  0  0
   -5.1962    7.5000    0.0000 C   0  0  0  0  0  0  0  0  0  0  0  0
   -3.8971    6.7500    0.0000 C   0  0  0  0  0  0  0  0  0  0  0  0
  3  1  1  0
  4  2  1  0
  5  3  1  0
  6  4  1  0
  7  5  1  0
  8  6  1  0
  9  7  1  0
 10  8  1  0
 11  9  1  0
 12 10  1  0
 13 11  1  0
 13 12  1  0
M  END
>  <NAME>  (4324) 
TRIDECANE

>  <SYNONYMS>  (4324) 


>  <SPECTRUM TYPE>  (4324) 
MS1

>  <INSTRUMENT TYPE>  (4324) 
EI-B

>  <INSTRUMENT>  (4324) 
HITACHI M-80

>  <ION MODE>  (4324) 
P

>  <INCHIKEY>  (4324) 
IIYFAKIEWZDVMP-UHFFFAOYSA-N

>  <FORMULA>  (4324) 
C13H28

>  <EXACT MASS>  (4324) 
184.219100896

>  <MW>  (4324) 
184

>  <ID>  (4324) 
JP005755

>  <CONTRIBUTOR>  (4324) 
University of Tokyo Team, {Faculty of Engineering, University of Tokyo

>  <COMMENT>  (4324) 
SMILES=CCCCCCCCCCCCC
cas=629-50-5
InChI=InChI=1S/C13H28/c1-3-5-7-9-11-13-12-10-8-6-4-2/h3-13H2,1-2H3
computed SMILES=CCCCCCCCCCCCC
accession=JP005755
date=2016.01.19 (Created 2008.10.21, modified 2011.05.06)
author=MASS SPECTROSCOPY SOC. OF JAPAN (MSSJ)
license=CC BY-NC-SA
exact mass=184.2191
ionization energy=70 eV
ion type=[M]+*
computed spectral entropy=2.559587631058303
computed normalized entropy=0.7142665282413861
SPLASH=splash10-0596-9000000000-562483fea4bbcff9f5aa
submitter=submitter = University of Tokyo Team (Faculty of Engineering, University of Tokyo)
MoNA Rating=3.75

>  <NUM PEAKS>  (4324) 
36

>  <MASS SPECTRAL PEAKS>  (4324) 
39 4.82
40 1.46
41 40.61
42 9.32
43 99.99
44 3.74
53 2.05
54 2.26
55 19.09
56 10.29
57 96.92
58 4.17
67 1.52
68 1.32
69 8.09
70 12.2
71 58.38
72 3.39
82 0.97
83 3.05
84 7.07
85 33.34
97 1.48
98 4.91
99 6.54
111 0.33
112 3.23
113 4.77
126 1.94
127 3.63
140 0.91
141 2.16
154 0.58
155 1.08
184 4.66
185 0.73

$$$$

     RDKit          2D

 34 37  0  0  1  0  0  0  0  0999 V2000
    9.5655    7.2342    0.0000 C   0  0  0  0  0  0  0  0  0  0  0  0
   10.0746    4.6865    0.0000 C   0  0  0  0  0  0  0  0  0  0  0  0
    8.1228    2.9718    0.0000 C   0  0  0  0  0  0  0  0  0  0  0  0
    3.2009    4.6377    0.0000 C   0  0  0  0  0  0  0  0  0  0  0  0
   -1.6125    0.9400    0.0000 C   0  0  0  0  0  0  0  0  0  0  0  0
    2.4507    3.1203    0.0000 C   0  0  0  0  0  0  0  0  0  0  0  0
   -6.0504   -0.7943    0.0000 C   0  0  0  0  0  0  0  0  0  0  0  0
   -8.0985   -1.3471    0.0000 C   0  0  0  0  0  0  0  0  0  0  0  0
   -7.5457   -3.3951    0.0000 C   0  0  0  0  0  0  0  0  0  0  0  0
    8.0946    6.9403    0.0000 C   0  0  0  0  0  0  0  0  0  0  0  0
    5.6618    3.8047    0.0000 C   0  0  0  0  0  0  0  0  0  0  0  0
    6.1427    5.2256    0.0000 C   0  0  0  0  0  0  0  0  0  0  0  0
   -0.3200   -2.8400    0.0000 C   0  0  0  0  0  0  0  0  0  0  0  0
    1.0100   -2.0900    0.0000 C   0  0  0  0  0  0  0  0  0  0  0  0
    4.5500    0.8800    0.0000 C   0  0  0  0  0  0  0  0  0  0  0  0
    3.7100   -0.3100    0.0000 C   0  0  0  0  0  0  0  0  0  0  0  0
   -4.2000   -0.5600    0.0000 C   0  0  0  0  0  0  0  0  0  0  0  0
   -0.3200    1.6300    0.0000 C   0  0  0  0  0  0  0  0  0  0  0  0
   -2.8900    0.1600    0.0000 C   0  0  0  0  0  0  0  0  0  0  0  0
    1.0100    2.3900    0.0000 C   0  0  0  0  0  0  0  0  0  0  0  0
   -2.8900   -2.8400    0.0000 C   0  0  0  0  0  0  0  0  0  0  0  0
    8.6037    4.3926    0.0000 C   0  0  0  0  0  0  0  0  0  0  0  0
    4.1909    3.5108    0.0000 C   0  0  0  0  0  0  0  0  0  0  0  0
    7.6137    5.5195    0.0000 C   0  0  0  0  0  0  0  0  0  0  0  0
   -1.6200   -2.0900    0.0000 C   0  0  0  0  0  0  0  0  0  0  0  0
   -4.2000   -2.0900    0.0000 C   0  0  0  0  0  0  0  0  0  0  0  0
    1.0100   -0.5600    0.0000 C   0  0  0  0  0  0  0  0  0  0  0  0
    3.7100    2.0900    0.0000 C   0  0  0  0  0  0  0  0  0  0  0  0
    2.2800    0.1600    0.0000 C   0  0  0  0  0  0  0  0  0  0  0  0
   -0.3200    0.1600    0.0000 C   0  0  0  0  0  0  0  0  0  0  0  0
   -1.6200   -0.5600    0.0000 C   0  0  0  0  0  0  0  0  0  0  0  0
    2.2800    1.6300    0.0000 C   0  0  0  0  0  0  0  0  0  0  0  0
   -5.4977   -2.8424    0.0000 O   0  0  0  0  0  0  0  0  0  0  0  0
   -6.7981   -2.0947    0.0000 Si  0  0  0  0  0  4  0  0  0  0  0  0
 10  1  1  0
 11 12  2  0
 14 13  1  0
 16 15  1  0
 19 17  1  0
 20 18  1  0
 22  2  1  0
 22  3  1  0
 23  4  1  6
 23 11  1  0
 24 10  1  1
 24 12  1  0
 24 22  1  0
 25 13  2  0
 25 21  1  0
 26 17  1  0
 26 21  1  0
 27 14  1  6
 28 15  1  1
 28 23  1  0
 29 16  1  1
 29 27  1  0
 30 18  1  1
 30 27  1  0
 31  5  1  1
 31 19  1  0
 31 25  1  0
 31 30  1  0
 32  6  1  1
 32 20  1  0
 32 28  1  0
 32 29  1  0
 26 33  1  1
 34  7  1  0
 34  8  1  0
 34  9  1  0
 34 33  1  0
M  END
>  <NAME>  (4325) 
STIGMASTEROL TMS ETHER

>  <SYNONYMS>  (4325) 


>  <SPECTRUM TYPE>  (4325) 
MS1

>  <INSTRUMENT TYPE>  (4325) 
EI-B

>  <INSTRUMENT>  (4325) 
HITACHI M-80

>  <ION MODE>  (4325) 
P

>  <INCHIKEY>  (4325) 
SZLWSWKRZSAHBC-MZXORBNVSA-N

>  <FORMULA>  (4325) 
C32H56OSi

>  <EXACT MASS>  (4325) 
484.41004294199996

>  <MW>  (4325) 
484

>  <ID>  (4325) 
JP005754

>  <CONTRIBUTOR>  (4325) 
University of Tokyo Team, {Faculty of Engineering, University of Tokyo

>  <COMMENT>  (4325) 
SMILES=C(C32[H])(C(C4)([H])C(C([H])(C4)C([H])(C)C=CC(CC)([H])C(C)C)(C)CC3)(CC=C(C21C)CC(CC1)(O[Si](C)(C)C)[H])[H]
InChI=InChI=1S/C32H56OSi/c1-10-24(22(2)3)12-11-23(4)28-15-16-29-27-14-13-25-21-26(33-34(7,8)9)17-19-31(25,5)30(27)18-20-32(28,29)6/h11-13,22-24,26-30H,10,14-21H2,1-9H3/b12-11+/t23-,24-,26+,27+,28-,29+,30+,31+,32-/m1/s1
computed SMILES=O(C1CC2=CCC3C(CCC4(C)C(CCC34)C(C=CC(CC)C(C)C)C)C2(C)CC1)[Si](C)(C)C
accession=JP005754
date=2016.01.19 (Created 2008.10.21, modified 2011.05.06)
author=MASS SPECTROSCOPY SOC. OF JAPAN (MSSJ)
license=CC BY-NC-SA
exact mass=484.41004
ionization energy=70 eV
ion type=[M]+*
computed spectral entropy=4.339810637625926
computed normalized entropy=0.869626142054996
SPLASH=splash10-0543-4869200000-337216b766b8173b7f0c
submitter=submitter = University of Tokyo Team (Faculty of Engineering, University of Tokyo)
MoNA Rating=3.75

>  <NUM PEAKS>  (4325) 
147

>  <MASS SPECTRAL PEAKS>  (4325) 
57 21.6
69 11.3
70 3.4
71 7.1
75 2.1
81 21.1
82 3.4
83 78.8
84 6
85 2.1
93 2.7
94 3.2
95 7.1
96 3.2
97 14.5
105 2.5
107 6.8
108 2.3
109 7
110 3.1
111 3.8
119 5.8
120 3.2
121 8.4
122 2.8
123 7
124 2.3
125 2.2
129 62.1
130 10.4
131 6.6
132 3.2
133 18.3
134 2.7
135 5.7
137 5.1
138 2
139 54.2
140 5.7
141 2.3
143 8.3
144 2.5
145 13
146 5.1
147 13.8
148 2.5
149 4.9
151 2.4
155 8.1
156 2.1
157 3.2
158 4.6
159 13.8
160 6
161 9.3
162 2.8
163 3.9
165 4.3
166 2.9
169 3.3
171 2.4
172 3.7
173 4.4
175 3.8
177 2.5
182 2.7
185 3
186 3
187 3.8
189 5.9
196 3
197 2.6
199 4.4
201 3.7
203 3.5
205 2
211 4.6
212 3.5
213 1.05
214 4.9
215 12.4
216 3.2
217 4.8
225 2.1
227 5.2
228 9.4
229 5.5
239 4
240 4.1
241 6.2
242 2.7
243 7.2
253 14.5
254 9.5
255 74.3
256 19.1
257 8.7
258 2.8
267 4.2
271 12.7
272 3.4
273 6.6
281 6.8
282 13.9
283 9.9
284 2.9
295 4.3
296 5.1
300 2.5
301 2.6
309 4
310 2.7
318 4.7
321 2.5
327 2.7
330 4.5
342 5.6
343 20.1
344 11.9
345 6.3
346 2.3
351 32
352 13.2
353 7
354 20.8
355 36.8
356 10.6
357 3.3
365 2.7
366 3.6
367 2.5
372 17
373 5.9
374 2.1
379 24.9
380 9
382 5.2
386 4.2
394 99.99
395 32.8
396 7.4
441 2.1
469 9.7
470 2.7
471 2.4
484 81
485 33

$$$$

     RDKit          2D

 30 33  0  0  1  0  0  0  0  0999 V2000
    9.5655    7.2342    0.0000 C   0  0  0  0  0  0  0  0  0  0  0  0
   10.0746    4.6865    0.0000 C   0  0  0  0  0  0  0  0  0  0  0  0
    8.1228    2.9718    0.0000 C   0  0  0  0  0  0  0  0  0  0  0  0
    3.2009    4.6377    0.0000 C   0  0  0  0  0  0  0  0  0  0  0  0
   -1.6125    0.9400    0.0000 C   0  0  0  0  0  0  0  0  0  0  0  0
    2.4507    3.1203    0.0000 C   0  0  0  0  0  0  0  0  0  0  0  0
    8.0946    6.9403    0.0000 C   0  0  0  0  0  0  0  0  0  0  0  0
    5.6618    3.8047    0.0000 C   0  0  0  0  0  0  0  0  0  0  0  0
    6.1427    5.2256    0.0000 C   0  0  0  0  0  0  0  0  0  0  0  0
   -0.3200   -2.8400    0.0000 C   0  0  0  0  0  0  0  0  0  0  0  0
    1.0100   -2.0900    0.0000 C   0  0  0  0  0  0  0  0  0  0  0  0
    4.5500    0.8800    0.0000 C   0  0  0  0  0  0  0  0  0  0  0  0
    3.7100   -0.3100    0.0000 C   0  0  0  0  0  0  0  0  0  0  0  0
   -4.2000   -0.5600    0.0000 C   0  0  0  0  0  0  0  0  0  0  0  0
   -0.3200    1.6300    0.0000 C   0  0  0  0  0  0  0  0  0  0  0  0
   -2.8900    0.1600    0.0000 C   0  0  0  0  0  0  0  0  0  0  0  0
    1.0100    2.3900    0.0000 C   0  0  0  0  0  0  0  0  0  0  0  0
   -2.8900   -2.8400    0.0000 C   0  0  0  0  0  0  0  0  0  0  0  0
    8.6037    4.3926    0.0000 C   0  0  0  0  0  0  0  0  0  0  0  0
    4.1909    3.5108    0.0000 C   0  0  0  0  0  0  0  0  0  0  0  0
    7.6137    5.5195    0.0000 C   0  0  0  0  0  0  0  0  0  0  0  0
   -1.6200   -2.0900    0.0000 C   0  0  0  0  0  0  0  0  0  0  0  0
   -4.2000   -2.0900    0.0000 C   0  0  0  0  0  0  0  0  0  0  0  0
    1.0100   -0.5600    0.0000 C   0  0  0  0  0  0  0  0  0  0  0  0
    3.7100    2.0900    0.0000 C   0  0  0  0  0  0  0  0  0  0  0  0
    2.2800    0.1600    0.0000 C   0  0  0  0  0  0  0  0  0  0  0  0
   -0.3200    0.1600    0.0000 C   0  0  0  0  0  0  0  0  0  0  0  0
   -1.6200   -0.5600    0.0000 C   0  0  0  0  0  0  0  0  0  0  0  0
    2.2800    1.6300    0.0000 C   0  0  0  0  0  0  0  0  0  0  0  0
   -5.4977   -2.8424    0.0000 O   0  0  0  0  0  0  0  0  0  0  0  0
  7  1  1  0
  9  8  1  0
 11 10  1  0
 13 12  1  0
 16 14  1  0
 17 15  1  0
 19  2  1  0
 19  3  1  0
 20  4  1  6
 20  8  1  0
 21  7  1  1
 21  9  1  0
 21 19  1  0
 22 10  2  0
 22 18  1  0
 23 14  1  0
 23 18  1  0
 24 11  1  6
 25 12  1  1
 25 20  1  0
 26 13  1  1
 26 24  1  0
 27 15  1  1
 27 24  1  0
 28  5  1  1
 28 16  1  0
 28 22  1  0
 28 27  1  0
 29  6  1  1
 29 17  1  0
 29 25  1  0
 29 26  1  0
 23 30  1  1
M  END
>  <NAME>  (4326) 
SITOSTEROL

>  <SYNONYMS>  (4326) 


>  <SPECTRUM TYPE>  (4326) 
MS1

>  <INSTRUMENT TYPE>  (4326) 
EI-B

>  <INSTRUMENT>  (4326) 
HITACHI M-80

>  <ION MODE>  (4326) 
P

>  <INCHIKEY>  (4326) 
KZJWDPNRJALLNS-VJSFXXLFSA-N

>  <FORMULA>  (4326) 
C29H50O

>  <EXACT MASS>  (4326) 
414.38616621999995

>  <MW>  (4326) 
414

>  <ID>  (4326) 
JP005753

>  <CONTRIBUTOR>  (4326) 
University of Tokyo Team, {Faculty of Engineering, University of Tokyo

>  <COMMENT>  (4326) 
SMILES=CC(C4([H])C(CCC([H])(CC)C(C)C)([H])C)(C([H])1CC4)CCC(C3(C)2)(C([H])(CC=C2CC([H])(O)CC3)1)[H]
cas=83-46-5
InChI=InChI=1S/C29H50O/c1-7-21(19(2)3)9-8-20(4)25-12-13-26-24-11-10-22-18-23(30)14-16-28(22,5)27(24)15-17-29(25,26)6/h10,19-21,23-27,30H,7-9,11-18H2,1-6H3/t20-,21-,23+,24+,25-,26+,27+,28+,29-/m1/s1
computed SMILES=OC1CC2=CCC3C(CCC4(C)C(CCC34)C(C)CCC(CC)C(C)C)C2(C)CC1
accession=JP005753
date=2016.01.19 (Created 2008.10.21, modified 2011.05.06)
author=MASS SPECTROSCOPY SOC. OF JAPAN (MSSJ)
license=CC BY-NC-SA
exact mass=414.38617
ionization energy=70 eV
ion type=[M]+*
computed spectral entropy=4.7512723916697865
computed normalized entropy=0.8846755947405001
SPLASH=splash10-0a4l-9822000000-2be95863c114e7cd2597
submitter=submitter = University of Tokyo Team (Faculty of Engineering, University of Tokyo)
MoNA Rating=3.75

>  <NUM PEAKS>  (4326) 
215

>  <MASS SPECTRAL PEAKS>  (4326) 
17 1.8
18 6.5
27 7.7
28 7.1
29 19.6
36 2.6
39 5.8
40 1.5
41 53.3
42 10.2
43 99.99
44 5.1
53 8.2
54 1.9
55 70.2
56 7.2
57 53.7
58 2.7
65 3.8
66 1.8
67 22.8
68 5.3
69 41.7
70 4
71 19.5
72 1.1
73 1.2
77 11.4
78 3.1
79 26
80 4.9
81 43.7
82 6.8
83 21.3
84 3
85 20.9
86 1.4
91 35.2
92 9.1
93 28
94 9.8
95 39.2
96 5.2
97 14.1
98 1.7
99 2.4
103 2.6
104 2.6
105 42.7
106 11.7
107 42.1
108 9.8
109 21
110 3.7
111 7.7
115 4.2
116 2.7
117 13.9
118 7.3
119 28.3
120 19.2
121 22.4
122 5.2
123 11
124 5.1
125 5.7
128 4.2
129 7.6
130 4.7
131 20.7
132 6.8
133 26.6
134 9.1
135 19.3
136 5.1
137 5.8
138 2.8
139 2.1
141 2.6
142 2.7
143 14.1
144 7.1
145 35.2
146 9.7
147 20.8
148 6
149 11.2
150 2.4
151 4.3
152 1.4
155 2.1
156 1.5
157 9.3
158 1.14
159 25.2
160 13.8
161 21.6
162 5.5
163 15.7
164 3.1
165 2.3
169 2.3
170 1.1
171 8.1
172 3.4
173 12.7
174 4.5
175 6.8
176 3.3
177 6
178 8
179 2.7
183 1.9
184 1.1
185 7.7
186 4
187 7.7
188 2.4
189 3.9
190 1.6
191 5.1
192 1.4
193 1.2
197 2.6
198 1.2
199 9.3
200 3.2
201 5.5
202 1.8
203 2.7
205 3.6
207 4.3
211 2.8
212 1.3
213 22.9
214 7.4
215 7.3
216 2
217 3.2
218 1.3
219 2.1
221 1.6
225 1.2
227 4.2
228 6.6
229 9.9
230 2.8
231 13.5
232 4.4
233 2.6
234 2
235 1.2
239 2.2
241 3.1
242 1.1
243 1.2
245 1.7
246 3.4
247 2.3
248 1.3
253 1.9
254 1.6
255 19.6
256 4.6
257 2.1
258 1.1
259 1.2
261 1.3
271 3.9
272 3
273 14.3
274 4
275 6.6
276 2.2
281 4.9
282 1.5
283 2.2
288 2
289 2.5
290 1.1
296 2.8
297 1.2
299 3.8
300 2.1
301 1.9
302 7.1
303 27.1
304 6.3
314 16.3
315 5.1
316 1.2
328 1.4
329 18.8
330 5.2
341 1.4
342 1.5
367 1.3
368 1.1
370 1.1
381 15.3
382 5.4
383 1.3
394 1.2
395 1.1
396 27.6
397 10.2
398 2.2
399 16.4
400 6
401 1.1
412 3.8
413 1.9
414 50
415 16.9
416 2.9

$$$$

     RDKit          2D

 18 18  0  0  0  0  0  0  0  0999 V2000
    5.7338   -2.1254    0.0000 C   0  0  0  0  0  0  0  0  0  0  0  0
    6.2659   -0.0719    0.0000 C   0  0  0  0  0  0  0  0  0  0  0  0
    4.2124    0.4602    0.0000 C   0  0  0  0  0  0  0  0  0  0  0  0
   -3.3710    2.7294    0.0000 C   0  0  0  0  0  0  0  0  0  0  0  0
   -5.4227    2.1905    0.0000 C   0  0  0  0  0  0  0  0  0  0  0  0
   -4.8837    0.1388    0.0000 C   0  0  0  0  0  0  0  0  0  0  0  0
    1.0651    1.4149    0.0000 C   0  0  0  0  0  0  0  0  0  0  0  0
   -0.2485   -0.8099    0.0000 C   0  0  0  0  0  0  0  0  0  0  0  0
    2.3496    0.6901    0.0000 C   0  0  0  0  0  0  0  0  0  0  0  0
    1.0760   -1.6041    0.0000 C   0  0  0  0  0  0  0  0  0  0  0  0
   -0.2340    0.6649    0.0000 C   0  0  0  0  0  0  0  0  0  0  0  0
    2.3751   -0.8541    0.0000 C   0  0  0  0  0  0  0  0  0  0  0  0
   -1.5293    1.4213    0.0000 C   0  0  0  0  0  0  0  0  0  0  0  0
   -1.5219    2.9213    0.0000 O   0  0  0  0  0  0  0  0  0  0  0  0
    3.6803   -1.5933    0.0000 O   0  0  0  0  0  0  0  0  0  0  0  0
   -2.8320    0.6777    0.0000 O   0  0  0  0  0  0  0  0  0  0  0  0
    4.9731   -0.8326    0.0000 Si  0  0  0  0  0  4  0  0  0  0  0  0
   -4.1273    1.4341    0.0000 Si  0  0  0  0  0  4  0  0  0  0  0  0
  9  7  2  0
 10  8  1  0
 11  7  1  0
 11  8  2  0
 12  9  1  0
 12 10  2  0
 13 11  1  0
 14 13  2  0
 15 12  1  0
 16 13  1  0
 17  1  1  0
 17  2  1  0
 17  3  1  0
 17 15  1  0
 18  4  1  0
 18  5  1  0
 18  6  1  0
 18 16  1  0
M  END
>  <NAME>  (4327) 
P-HYDROXYBENZOIC ACID TMS ETHER TMS ESTER

>  <SYNONYMS>  (4327) 


>  <SPECTRUM TYPE>  (4327) 
MS1

>  <INSTRUMENT TYPE>  (4327) 
EI-B

>  <INSTRUMENT>  (4327) 
HITACHI M-80

>  <ION MODE>  (4327) 
P

>  <INCHIKEY>  (4327) 
XVCXIVAVMFNKDH-UHFFFAOYSA-N

>  <FORMULA>  (4327) 
C13H22O3Si2

>  <EXACT MASS>  (4327) 
282.110747624

>  <MW>  (4327) 
282

>  <ID>  (4327) 
JP005752

>  <CONTRIBUTOR>  (4327) 
University of Tokyo Team, {Faculty of Engineering, University of Tokyo

>  <COMMENT>  (4327) 
SMILES=O=C(O[Si](C)(C)C)c(c1)ccc(c1)O[Si](C)(C)C
InChI=InChI=1S/C13H22O3Si2/c1-17(2,3)15-12-9-7-11(8-10-12)13(14)16-18(4,5)6/h7-10H,1-6H3
computed SMILES=O=C(O[Si](C)(C)C)C1=CC=C(O[Si](C)(C)C)C=C1
accession=JP005752
date=2016.01.19 (Created 2008.10.21, modified 2011.05.06)
author=MASS SPECTROSCOPY SOC. OF JAPAN (MSSJ)
license=CC BY-NC-SA
exact mass=282.11075
ionization energy=70 eV
ion type=[M]+*
computed spectral entropy=3.1434569059700843
computed normalized entropy=0.7709204266580776
SPLASH=splash10-00xr-7490000000-73f5358eda2e78d12d8c
submitter=submitter = University of Tokyo Team (Faculty of Engineering, University of Tokyo)
MoNA Rating=3.75

>  <NUM PEAKS>  (4327) 
59

>  <MASS SPECTRAL PEAKS>  (4327) 
15 2.3
29 1.5
39 1.8
43 8.4
44 3.2
45 16.5
47 2.3
50 1.8
58 2.2
59 4.1
61 1.7
63 2.3
64 2
65 2.5
72 1.9
73 99.99
74 9.9
75 13.8
76 4.6
77 3.4
79 1.5
85 1.4
89 3.7
90 1.7
91 6.7
92 3.7
93 1.9
103 2.1
104 2.3
105 2.3
119 2.3
120 1.5
121 3.6
126 12.7
126.5 2.6
133 4.1
135 6.3
147 3.6
149 5.4
150 2
151 5.3
179 3.7
191 1.7
193 56.6
194 9.9
195 9.8
207 3.1
210 3
223 49.2
224 10.8
225 4.6
267 98.3
268 22.7
269 9.4
270 1.5
281 2.3
282 43
283 10.6
284 4.2

$$$$

     RDKit          2D

 33 36  0  0  1  0  0  0  0  0999 V2000
    9.5655    7.2342    0.0000 C   0  0  0  0  0  0  0  0  0  0  0  0
   10.0746    4.6865    0.0000 C   0  0  0  0  0  0  0  0  0  0  0  0
    8.1228    2.9718    0.0000 C   0  0  0  0  0  0  0  0  0  0  0  0
    3.2009    4.6377    0.0000 C   0  0  0  0  0  0  0  0  0  0  0  0
   -8.0957   -2.8471    0.0000 C   0  0  0  0  0  0  0  0  0  0  0  0
   -1.6125    0.9400    0.0000 C   0  0  0  0  0  0  0  0  0  0  0  0
    2.4507    3.1203    0.0000 C   0  0  0  0  0  0  0  0  0  0  0  0
    8.0946    6.9403    0.0000 C   0  0  0  0  0  0  0  0  0  0  0  0
    5.6618    3.8047    0.0000 C   0  0  0  0  0  0  0  0  0  0  0  0
    6.1427    5.2256    0.0000 C   0  0  0  0  0  0  0  0  0  0  0  0
   -0.3200   -2.8400    0.0000 C   0  0  0  0  0  0  0  0  0  0  0  0
    1.0100   -2.0900    0.0000 C   0  0  0  0  0  0  0  0  0  0  0  0
    4.5500    0.8800    0.0000 C   0  0  0  0  0  0  0  0  0  0  0  0
    3.7100   -0.3100    0.0000 C   0  0  0  0  0  0  0  0  0  0  0  0
   -4.2000   -0.5600    0.0000 C   0  0  0  0  0  0  0  0  0  0  0  0
   -0.3200    1.6300    0.0000 C   0  0  0  0  0  0  0  0  0  0  0  0
   -2.8900    0.1600    0.0000 C   0  0  0  0  0  0  0  0  0  0  0  0
    1.0100    2.3900    0.0000 C   0  0  0  0  0  0  0  0  0  0  0  0
   -2.8900   -2.8400    0.0000 C   0  0  0  0  0  0  0  0  0  0  0  0
    8.6037    4.3926    0.0000 C   0  0  0  0  0  0  0  0  0  0  0  0
    4.1909    3.5108    0.0000 C   0  0  0  0  0  0  0  0  0  0  0  0
   -6.7981   -2.0947    0.0000 C   0  0  0  0  0  0  0  0  0  0  0  0
    7.6137    5.5195    0.0000 C   0  0  0  0  0  0  0  0  0  0  0  0
   -1.6200   -2.0900    0.0000 C   0  0  0  0  0  0  0  0  0  0  0  0
   -4.2000   -2.0900    0.0000 C   0  0  0  0  0  0  0  0  0  0  0  0
    1.0100   -0.5600    0.0000 C   0  0  0  0  0  0  0  0  0  0  0  0
    3.7100    2.0900    0.0000 C   0  0  0  0  0  0  0  0  0  0  0  0
    2.2800    0.1600    0.0000 C   0  0  0  0  0  0  0  0  0  0  0  0
   -0.3200    0.1600    0.0000 C   0  0  0  0  0  0  0  0  0  0  0  0
   -1.6200   -0.5600    0.0000 C   0  0  0  0  0  0  0  0  0  0  0  0
    2.2800    1.6300    0.0000 C   0  0  0  0  0  0  0  0  0  0  0  0
   -6.8008   -0.5947    0.0000 O   0  0  0  0  0  0  0  0  0  0  0  0
   -5.4977   -2.8424    0.0000 O   0  0  0  0  0  0  0  0  0  0  0  0
  8  1  1  0
 10  9  1  0
 12 11  1  0
 14 13  1  0
 17 15  1  0
 18 16  1  0
 20  2  1  0
 20  3  1  0
 21  4  1  6
 21  9  1  0
 22  5  1  0
 23  8  1  1
 23 10  1  0
 23 20  1  0
 24 11  2  0
 24 19  1  0
 25 15  1  0
 25 19  1  0
 26 12  1  6
 27 13  1  1
 27 21  1  0
 28 14  1  1
 28 26  1  0
 29 16  1  1
 29 26  1  0
 30  6  1  1
 30 17  1  0
 30 24  1  0
 30 29  1  0
 31  7  1  1
 31 18  1  0
 31 27  1  0
 31 28  1  0
 32 22  2  0
 33 22  1  0
 25 33  1  1
M  END
>  <NAME>  (4328) 
SITOSTEROL ACETATE

>  <SYNONYMS>  (4328) 


>  <SPECTRUM TYPE>  (4328) 
MS1

>  <INSTRUMENT TYPE>  (4328) 
EI-B

>  <INSTRUMENT>  (4328) 
HITACHI M-80

>  <ION MODE>  (4328) 
P

>  <INCHIKEY>  (4328) 
PBWOIPCULUXTNY-LBKBYZTLSA-N

>  <FORMULA>  (4328) 
C31H52O2

>  <EXACT MASS>  (4328) 
456.396730904

>  <MW>  (4328) 
456

>  <ID>  (4328) 
JP005751

>  <CONTRIBUTOR>  (4328) 
University of Tokyo Team, {Faculty of Engineering, University of Tokyo

>  <COMMENT>  (4328) 
SMILES=C(C41C)(CCC1(C(C(CC4)3[H])([H])CC=C(C3(C)2)CC([H])(CC2)OC(C)=O)[H])(C(CCC([H])(C(C)C)CC)([H])C)[H]
InChI=InChI=1S/C31H52O2/c1-8-23(20(2)3)10-9-21(4)27-13-14-28-26-12-11-24-19-25(33-22(5)32)15-17-30(24,6)29(26)16-18-31(27,28)7/h11,20-21,23,25-29H,8-10,12-19H2,1-7H3/t21-,23-,25+,26+,27-,28+,29+,30+,31-/m1/s1
computed SMILES=O=C(OC1CC2=CCC3C(CCC4(C)C(CCC34)C(C)CCC(CC)C(C)C)C2(C)CC1)C
accession=JP005751
date=2016.01.19 (Created 2008.10.21, modified 2011.05.06)
author=MASS SPECTROSCOPY SOC. OF JAPAN (MSSJ)
license=CC BY-NC-SA
exact mass=456.39673
ionization energy=70 eV
ion type=[M]+*
computed spectral entropy=4.052389106830086
computed normalized entropy=0.914591889217352
SPLASH=splash10-052e-8911000000-a1423f04b3cb6b0b2fdc
submitter=submitter = University of Tokyo Team (Faculty of Engineering, University of Tokyo)
MoNA Rating=3.75

>  <NUM PEAKS>  (4328) 
84

>  <MASS SPECTRAL PEAKS>  (4328) 
27 4.5
29 13.8
41 32.5
43 99.99
55 47.7
57 43.5
67 26.2
69 28.6
71 23.4
77 5.4
79 20.4
81 58.7
82 5.1
83 14.7
85 18.4
91 22.1
92 7
93 28.2
94 8.4
95 33.6
97 11.9
105 31.1
106 11.8
107 33.1
108 13.1
109 19.1
111 8.6
117 10.2
118 6.3
119 17.9
120 22.1
121 23.1
122 6
123 9.3
127 3.4
129 5.6
130 4
131 14.6
132 4.8
133 22.1
134 6.4
135 15.7
136 4.8
137 3.9
143 14.2
144 6.4
145 35.8
146 15.6
147 52
148 11.7
149 11.2
157 8.2
158 7.5
159 17
160 12.7
161 12.6
162 4.7
163 8.6
171 3.9
173 6.2
175 6.5
177 5.9
185 4.4
187 3.4
191 3.4
199 5.3
200 4.1
201 4
213 14.9
214 4.7
215 4.1
228 4.5
255 16.1
256 3.7
274 4.1
275 10.8
276 4.2
288 12.2
289 3.8
381 12.2
382 4.7
396 61.9
397 21.8
398 4.3

$$$$

     RDKit          2D

 29 32  0  0  1  0  0  0  0  0999 V2000
    9.5655    7.2342    0.0000 C   0  0  0  0  0  0  0  0  0  0  0  0
    7.1046    8.0672    0.0000 C   0  0  0  0  0  0  0  0  0  0  0  0
    8.6037    4.3926    0.0000 C   0  0  0  0  0  0  0  0  0  0  0  0
    3.2009    4.6377    0.0000 C   0  0  0  0  0  0  0  0  0  0  0  0
   -1.6125    0.9400    0.0000 C   0  0  0  0  0  0  0  0  0  0  0  0
    2.4507    3.1203    0.0000 C   0  0  0  0  0  0  0  0  0  0  0  0
    6.1427    5.2256    0.0000 C   0  0  0  0  0  0  0  0  0  0  0  0
    5.6618    3.8047    0.0000 C   0  0  0  0  0  0  0  0  0  0  0  0
   -0.3200   -2.8400    0.0000 C   0  0  0  0  0  0  0  0  0  0  0  0
    1.0100   -2.0900    0.0000 C   0  0  0  0  0  0  0  0  0  0  0  0
    4.5500    0.8800    0.0000 C   0  0  0  0  0  0  0  0  0  0  0  0
    3.7100   -0.3100    0.0000 C   0  0  0  0  0  0  0  0  0  0  0  0
   -4.2000   -0.5600    0.0000 C   0  0  0  0  0  0  0  0  0  0  0  0
   -0.3200    1.6300    0.0000 C   0  0  0  0  0  0  0  0  0  0  0  0
   -2.8900    0.1600    0.0000 C   0  0  0  0  0  0  0  0  0  0  0  0
    1.0100    2.3900    0.0000 C   0  0  0  0  0  0  0  0  0  0  0  0
   -2.8900   -2.8400    0.0000 C   0  0  0  0  0  0  0  0  0  0  0  0
    8.0946    6.9403    0.0000 C   0  0  0  0  0  0  0  0  0  0  0  0
    7.6137    5.5195    0.0000 C   0  0  0  0  0  0  0  0  0  0  0  0
    4.1909    3.5108    0.0000 C   0  0  0  0  0  0  0  0  0  0  0  0
   -1.6200   -2.0900    0.0000 C   0  0  0  0  0  0  0  0  0  0  0  0
   -4.2000   -2.0900    0.0000 C   0  0  0  0  0  0  0  0  0  0  0  0
    1.0100   -0.5600    0.0000 C   0  0  0  0  0  0  0  0  0  0  0  0
    3.7100    2.0900    0.0000 C   0  0  0  0  0  0  0  0  0  0  0  0
    2.2800    0.1600    0.0000 C   0  0  0  0  0  0  0  0  0  0  0  0
   -0.3200    0.1600    0.0000 C   0  0  0  0  0  0  0  0  0  0  0  0
   -1.6200   -0.5600    0.0000 C   0  0  0  0  0  0  0  0  0  0  0  0
    2.2800    1.6300    0.0000 C   0  0  0  0  0  0  0  0  0  0  0  0
   -5.4977   -2.8424    0.0000 O   0  0  0  0  0  0  0  0  0  0  0  0
  8  7  1  0
 10  9  1  0
 12 11  1  0
 15 13  1  0
 16 14  1  0
 18  1  1  0
 18  2  1  0
 19  3  1  6
 19  7  1  0
 19 18  1  0
 20  4  1  6
 20  8  1  0
 21  9  2  0
 21 17  1  0
 22 13  1  0
 22 17  1  0
 23 10  1  6
 24 11  1  1
 24 20  1  0
 25 12  1  1
 25 23  1  0
 26 14  1  1
 26 23  1  0
 27  5  1  0
 27 15  1  0
 27 21  1  0
 27 26  1  0
 28  6  1  0
 28 16  1  0
 28 24  1  0
 28 25  1  0
 22 29  1  1
M  END
>  <NAME>  (4329) 
CAMPESTEROL

>  <SYNONYMS>  (4329) 
(24R)-ERGOST-5-EN-3BETA-OL

>  <SPECTRUM TYPE>  (4329) 
MS1

>  <INSTRUMENT TYPE>  (4329) 
EI-B

>  <INSTRUMENT>  (4329) 
HITACHI M-80

>  <ION MODE>  (4329) 
P

>  <INCHIKEY>  (4329) 
SGNBVLSWZMBQTH-SSKRYHHQSA-N

>  <FORMULA>  (4329) 
C28H48O

>  <EXACT MASS>  (4329) 
400.370516156

>  <MW>  (4329) 
400

>  <ID>  (4329) 
JP005750

>  <CONTRIBUTOR>  (4329) 
University of Tokyo Team, {Faculty of Engineering, University of Tokyo

>  <COMMENT>  (4329) 
SMILES=C(C1)C([H])(O)CC(=C([H])4)C1(C([H])(C3([H])C4)CCC(C)(C23[H])C(CC2)([H])C(CCC([H])(C)C(C)C)([H])C)C
cas=474-62-4
InChI=InChI=1S/C28H48O/c1-18(2)19(3)7-8-20(4)24-11-12-25-23-10-9-21-17-22(29)13-15-27(21,5)26(23)14-16-28(24,25)6/h9,18-20,22-26,29H,7-8,10-17H2,1-6H3/t19-,20-,22+,23+,24-,25+,26+,27?,28?/m1/s1
computed SMILES=OC1CC2=CCC3C(CCC4(C)C(CCC34)C(C)CCC(C)C(C)C)C2(C)CC1
accession=JP005750
date=2016.01.19 (Created 2008.10.21, modified 2011.05.06)
author=MASS SPECTROSCOPY SOC. OF JAPAN (MSSJ)
license=CC BY-NC-SA
exact mass=400.37052
ionization energy=70 eV
ion type=[M]+*
computed spectral entropy=4.730514344953551
computed normalized entropy=0.8945301584614325
SPLASH=splash10-0a4l-9821000000-27c5e57691c268863a33
submitter=submitter = University of Tokyo Team (Faculty of Engineering, University of Tokyo)
MoNA Rating=3.75

>  <NUM PEAKS>  (4329) 
198

>  <MASS SPECTRAL PEAKS>  (4329) 
15 1.8
18 14.3
27 9.8
28 19.8
29 17.9
32 5.3
35 1.5
36 6.4
38 2.5
39 7.3
40 1.7
41 59.8
42 12
43 99.99
44 6.9
53 8.9
55 48.5
56 6.3
57 37.7
58 2.8
65 3.8
66 1.9
67 26
68 4.6
69 35.6
70 3.4
71 32
72 1.9
73 3.6
77 10.1
78 3.9
79 30.4
80 4.8
81 42.1
82 4.7
83 19.2
84 3.2
85 7.9
91 35.6
92 8.8
93 34
94 9.1
95 38.5
96 5.3
97 12.7
98 1.2
103 3.1
104 3.1
105 44.8
106 12.3
107 43.1
108 10.7
109 20.2
110 3.4
111 4.9
115 5.5
116 4
117 15.5
118 7.8
119 27.6
120 19.6
121 21.3
122 5.3
123 11.4
124 6.7
125 5.7
127 1.6
128 4.8
129 8.8
130 4.9
131 20.8
132 7
133 26
134 8.8
135 18.1
136 5.1
137 5.5
138 2.1
141 3.6
142 3
143 15.3
144 6.5
145 38
146 10
147 21.2
148 6
149 9.9
150 2.2
151 4.2
152 1.6
155 2
156 1.7
157 8.9
158 9.9
159 25
160 13.3
161 21
162 5.7
163 14.7
164 2.8
165 2.5
169 1.8
171 6.9
172 3.3
173 10.2
174 4.5
175 6.2
176 3
177 5.1
178 6.5
179 2.7
183 1.7
185 7.5
186 3.6
187 7.4
188 2.3
189 4.2
191 3.8
193 1.3
197 2.7
199 9.2
200 3
201 4.9
202 1.8
203 2.6
205 2.8
207 11.2
208 2.3
209 1.3
211 2
212 1.3
213 22.9
214 7.3
215 6
216 1.4
217 2.6
219 2.1
220 1.8
221 1.3
227 4.2
228 5.9
229 7.9
230 2.4
231 11.5
232 3.5
233 2.4
234 1.8
239 1.7
241 2.7
245 1.7
246 2.5
247 2.5
253 1.8
255 15.1
256 3.6
257 1.9
259 1.9
260 1.5
261 7.2
262 2.4
271 5.7
272 3.2
273 11.3
274 5.1
275 3.3
276 1.3
281 6.3
282 1.7
283 2.2
288 5.6
289 24.4
290 5.3
296 1.7
299 3.4
300 1.6
301 2.1
313 1.4
314 9.7
315 17.1
316 4.3
327 1.3
328 1.7
340 3
341 2.3
343 2
380 1.7
381 1.2
382 27.6
383 9.7
384 2.1
385 12.7
386 4.8
387 1.1
398 2.6
399 1
400 37
401 11.8
402 2.1

$$$$

     RDKit          2D

  5  5  0  0  0  0  0  0  0  0999 V2000
   -1.2100   -0.3900    0.0000 C   0  0  0  0  0  0  0  0  0  0  0  0
   -0.7500    1.0300    0.0000 C   0  0  0  0  0  0  0  0  0  0  0  0
    1.2100   -0.3900    0.0000 C   0  0  0  0  0  0  0  0  0  0  0  0
   -0.0000   -1.2800    0.0000 N   0  0  0  0  0  0  0  0  0  0  0  0
    0.7500    1.0300    0.0000 N   0  0  0  0  0  0  0  0  0  0  0  0
  2  1  2  0
  4  1  1  0
  4  3  2  0
  5  2  1  0
  5  3  1  0
M  END
>  <NAME>  (4330) 
IMIDAZOLE

>  <SYNONYMS>  (4330) 


>  <SPECTRUM TYPE>  (4330) 
MS1

>  <INSTRUMENT TYPE>  (4330) 
EI-B

>  <INSTRUMENT>  (4330) 
HITACHI M-80

>  <ION MODE>  (4330) 
P

>  <INCHIKEY>  (4330) 
RAXXELZNTBOGNW-UHFFFAOYSA-N

>  <FORMULA>  (4330) 
C3H4N2

>  <EXACT MASS>  (4330) 
68.037448128

>  <MW>  (4330) 
68

>  <ID>  (4330) 
JP005749

>  <CONTRIBUTOR>  (4330) 
University of Tokyo Team, {Faculty of Engineering, University of Tokyo

>  <COMMENT>  (4330) 
SMILES=C1=CN=CN1
cas=288-32-4
InChI=InChI=1S/C3H4N2/c1-2-5-3-4-1/h1-3H,(H,4,5)
computed SMILES=N=1C=CNC1
accession=JP005749
date=2016.01.19 (Created 2008.10.21, modified 2011.05.06)
author=MASS SPECTROSCOPY SOC. OF JAPAN (MSSJ)
license=CC BY-NC-SA
exact mass=68.03745
ionization energy=70 eV
ion type=[M]+*
computed spectral entropy=1.6924276417296837
computed normalized entropy=0.7702570138649547
SPLASH=splash10-014l-9000000000-e6b2b7faf77dcf80d593
submitter=submitter = University of Tokyo Team (Faculty of Engineering, University of Tokyo)
MoNA Rating=3.75

>  <NUM PEAKS>  (4330) 
9

>  <MASS SPECTRAL PEAKS>  (4330) 
26 2.1
28 22.4
38 6.2
39 9.1
40 31.3
41 58.6
67 10.1
68 99.99
69 9.7

$$$$

     RDKit          2D

 16 16  0  0  0  0  0  0  0  0999 V2000
   -3.7973    1.1152    0.0000 C   0  0  0  0  0  0  0  0  0  0  0  0
    1.5152    5.5729    0.0000 C   0  0  0  0  0  0  0  0  0  0  0  0
   -3.3057    3.9029    0.0000 C   0  0  0  0  0  0  0  0  0  0  0  0
   -2.4982    1.8652    0.0000 C   0  0  0  0  0  0  0  0  0  0  0  0
    0.5510    4.4238    0.0000 C   0  0  0  0  0  0  0  0  0  0  0  0
   -2.3416    2.7538    0.0000 C   0  0  0  0  0  0  0  0  0  0  0  0
    3.9969   -0.3848    0.0000 C   0  0  0  0  0  0  0  0  0  0  0  0
    3.9974    1.1161    0.0000 C   0  0  0  0  0  0  0  0  0  0  0  0
    2.6974   -1.1356    0.0000 C   0  0  0  0  0  0  0  0  0  0  0  0
    2.6984    1.8661    0.0000 C   0  0  0  0  0  0  0  0  0  0  0  0
    1.3984   -0.3856    0.0000 C   0  0  0  0  0  0  0  0  0  0  0  0
    1.3989    1.1152    0.0000 C   0  0  0  0  0  0  0  0  0  0  0  0
    0.0998    1.8652    0.0000 C   0  0  0  0  0  0  0  0  0  0  0  0
   -1.1992    1.1152    0.0000 O   0  0  0  0  0  0  0  0  0  0  0  0
    1.0640    3.0143    0.0000 O   0  0  0  0  0  0  0  0  0  0  0  0
   -0.8643    3.0143    0.0000 O   0  0  0  0  0  0  0  0  0  0  0  0
  4  1  1  0
  5  2  1  0
  6  3  1  0
  8  7  2  0
  9  7  1  0
 10  8  1  0
 11  9  2  0
 12 10  2  0
 12 11  1  0
 13 12  1  0
 14  4  1  0
 14 13  1  0
 15  5  1  0
 15 13  1  0
 16  6  1  0
 16 13  1  0
M  END
>  <NAME>  (4331) 
TRIETHYL ORTHOBENZOATE

>  <SYNONYMS>  (4331) 


>  <SPECTRUM TYPE>  (4331) 
MS1

>  <INSTRUMENT TYPE>  (4331) 
EI-B

>  <INSTRUMENT>  (4331) 
HITACHI M-80

>  <ION MODE>  (4331) 
P

>  <INCHIKEY>  (4331) 
BQFPCTXLBRVFJL-UHFFFAOYSA-N

>  <FORMULA>  (4331) 
C13H20O3

>  <EXACT MASS>  (4331) 
224.14124449999997

>  <MW>  (4331) 
224

>  <ID>  (4331) 
JP005748

>  <CONTRIBUTOR>  (4331) 
University of Tokyo Team, {Faculty of Engineering, University of Tokyo

>  <COMMENT>  (4331) 
SMILES=CCOC(OCC)(OCC)c(c1)cccc1
cas=1663-61-2
InChI=InChI=1S/C13H20O3/c1-4-14-13(15-5-2,16-6-3)12-10-8-7-9-11-12/h7-11H,4-6H2,1-3H3
computed SMILES=O(CC)C(OCC)(OCC)C=1C=CC=CC1
date=2016.01.19 (Created 2008.10.21, modified 2011.05.06)
author=MASS SPECTROSCOPY SOC. OF JAPAN (MSSJ)
accession=JP005748
license=CC BY-NC-SA
exact mass=224.14124
ionization energy=70 eV
ion type=[M]+*
computed spectral entropy=2.7364980729399346
computed normalized entropy=0.7826375389825304
SPLASH=splash10-004i-4900000000-e0e23d4149f8a7774613
submitter=submitter = University of Tokyo Team (Faculty of Engineering, University of Tokyo)
MoNA Rating=3.75

>  <NUM PEAKS>  (4331) 
33

>  <MASS SPECTRAL PEAKS>  (4331) 
15 2.1
27 11
28 15
29 20
30 1.9
31 2.5
43 3.2
44 3.3
45 3
50 2.6
51 10.6
63 5.2
69 4
76 2.3
77 34
78 4.9
79 25
80 2.1
91 4.6
105 48
106 6.3
107 2
119 2.4
122 6.6
123 65
124 5.8
147 5.5
150 1.4
151 35
152 3.2
179 99.99
180 13
181 1.4

$$$$

     RDKit          2D

 19 21  0  0  0  0  0  0  0  0999 V2000
    6.4968    3.0006    0.0000 C   0  0  0  0  0  0  0  0  0  0  0  0
    5.1971    3.7512    0.0000 C   0  0  0  0  0  0  0  0  0  0  0  0
    6.4975    1.4998    0.0000 C   0  0  0  0  0  0  0  0  0  0  0  0
    3.8982    3.0010    0.0000 C   0  0  0  0  0  0  0  0  0  0  0  0
    5.1986    0.7496    0.0000 C   0  0  0  0  0  0  0  0  0  0  0  0
   -1.3000   -1.5000    0.0000 C   0  0  0  0  0  0  0  0  0  0  0  0
   -2.6000   -0.7500    0.0000 C   0  0  0  0  0  0  0  0  0  0  0  0
    2.6000   -0.7500    0.0000 C   0  0  0  0  0  0  0  0  0  0  0  0
    3.8989    1.5002    0.0000 C   0  0  0  0  0  0  0  0  0  0  0  0
    0.0000   -0.7500    0.0000 C   0  0  0  0  0  0  0  0  0  0  0  0
   -2.6000    0.7500    0.0000 C   0  0  0  0  0  0  0  0  0  0  0  0
    1.3000   -1.5000    0.0000 C   0  0  0  0  0  0  0  0  0  0  0  0
    2.6000    0.7500    0.0000 C   0  0  0  0  0  0  0  0  0  0  0  0
   -1.3000    1.5000    0.0000 C   0  0  0  0  0  0  0  0  0  0  0  0
    0.0000    0.7500    0.0000 C   0  0  0  0  0  0  0  0  0  0  0  0
   -3.8989    1.5002    0.0000 O   0  0  0  0  0  0  0  0  0  0  0  0
    1.3000   -3.0000    0.0000 O   0  0  0  0  0  0  0  0  0  0  0  0
   -1.3000    3.0000    0.0000 O   0  0  0  0  0  0  0  0  0  0  0  0
    1.3000    1.5000    0.0000 O   0  0  0  0  0  0  0  0  0  0  0  0
  2  1  2  0
  3  1  1  0
  4  2  1  0
  5  3  2  0
  7  6  2  0
  9  4  2  0
  9  5  1  0
 10  6  1  0
 11  7  1  0
 12  8  1  0
 12 10  1  0
 13  8  1  0
 13  9  1  0
 14 11  2  0
 15 10  2  0
 15 14  1  0
 16 11  1  0
 17 12  2  0
 18 14  1  0
 19 13  1  0
 19 15  1  0
M  END
>  <NAME>  (4332) 
7,8-DIHYDROXYFLAVANONE

>  <SYNONYMS>  (4332) 


>  <SPECTRUM TYPE>  (4332) 
MS1

>  <INSTRUMENT TYPE>  (4332) 
EI-B

>  <INSTRUMENT>  (4332) 
HITACHI M-80

>  <ION MODE>  (4332) 
P

>  <INCHIKEY>  (4332) 
OXEDXEXEXGPMOG-UHFFFAOYSA-N

>  <FORMULA>  (4332) 
C15H12O4

>  <EXACT MASS>  (4332) 
256.073558864

>  <MW>  (4332) 
256

>  <ID>  (4332) 
JP005746

>  <CONTRIBUTOR>  (4332) 
University of Tokyo Team, {Faculty of Engineering, University of Tokyo

>  <COMMENT>  (4332) 
SMILES=Oc(c3)c(O)c(O1)c(c3)C(=O)CC(c(c2)cccc2)1
InChI=InChI=1S/C15H12O4/c16-11-7-6-10-12(17)8-13(19-15(10)14(11)18)9-4-2-1-3-5-9/h1-7,13,16,18H,8H2
computed SMILES=O=C1C2=CC=C(O)C(O)=C2OC(C=3C=CC=CC3)C1
accession=JP005746
date=2016.01.19 (Created 2008.10.21, modified 2011.05.06)
author=MASS SPECTROSCOPY SOC. OF JAPAN (MSSJ)
license=CC BY-NC-SA
exact mass=256.07356
ionization energy=70 eV
ion type=[M]+*
computed spectral entropy=3.113725246600804
computed normalized entropy=0.7431937566041008
SPLASH=splash10-03di-2490000000-a633e63160c826f99254
submitter=submitter = University of Tokyo Team (Faculty of Engineering, University of Tokyo)
MoNA Rating=3.75

>  <NUM PEAKS>  (4332) 
66

>  <MASS SPECTRAL PEAKS>  (4332) 
39 4.4
50 2.4
51 6.8
52 2.8
53 1.8
55 2
63 3.4
64 2.2
65 3.1
66 1.5
68 1.6
70 1.5
75 1.5
76 4.5
77 9.1
78 6
79 2.5
84 3.2
89 2.1
91 3.2
102 2.8
103 4.4
104 2.4
105 2.3
106 1.8
106.5 1.3
107 1.3
114 1.1
115 5.3
123 1.4
124 2.6
126 2.5
127 3.5
128 7
129 3.91
131 1.4
139 6.1
140 1.6
141 2.1
150 1.7
151 1.9
152 30.8
153 4.5
157 1.4
165 1.5
167 1.3
168 1.6
179 1.5
181 2.2
185 1.8
196 2.5
197 5.6
198 1
209 1.2
212 1
213 99.99
214 53.1
215 7.4
227 2.5
228 1.9
238 4
239 1
255 1.3
256 55
257 9.1
258 1.2

$$$$

     RDKit          2D

 14 15  0  0  0  0  0  0  0  0999 V2000
   -6.4970    1.2506    0.0000 C   0  0  0  0  0  0  0  0  0  0  0  0
   -5.1981    0.5004    0.0000 C   0  0  0  0  0  0  0  0  0  0  0  0
   -1.3000   -1.7500    0.0000 C   0  0  0  0  0  0  0  0  0  0  0  0
    1.3000   -1.7500    0.0000 C   0  0  0  0  0  0  0  0  0  0  0  0
   -2.6000   -1.0000    0.0000 C   0  0  0  0  0  0  0  0  0  0  0  0
    2.6000   -1.0000    0.0000 C   0  0  0  0  0  0  0  0  0  0  0  0
   -1.3000    1.2500    0.0000 C   0  0  0  0  0  0  0  0  0  0  0  0
    0.0000   -1.0000    0.0000 C   0  0  0  0  0  0  0  0  0  0  0  0
   -2.6000    0.5000    0.0000 C   0  0  0  0  0  0  0  0  0  0  0  0
    0.0000    0.5000    0.0000 C   0  0  0  0  0  0  0  0  0  0  0  0
    2.6000    0.5000    0.0000 C   0  0  0  0  0  0  0  0  0  0  0  0
    3.8989    1.2502    0.0000 O   0  0  0  0  0  0  0  0  0  0  0  0
   -3.8989    1.2502    0.0000 O   0  0  0  0  0  0  0  0  0  0  0  0
    1.3000    1.2500    0.0000 O   0  0  0  0  0  0  0  0  0  0  0  0
  2  1  1  0
  5  3  2  0
  6  4  2  0
  8  3  1  0
  8  4  1  0
  9  5  1  0
  9  7  2  0
 10  7  1  0
 10  8  2  0
 11  6  1  0
 12 11  2  0
 13  2  1  0
 13  9  1  0
 14 10  1  0
 14 11  1  0
M  END
>  <NAME>  (4333) 
7-ETHOXYCOUMARIN

>  <SYNONYMS>  (4333) 


>  <SPECTRUM TYPE>  (4333) 
MS1

>  <INSTRUMENT TYPE>  (4333) 
EI-B

>  <INSTRUMENT>  (4333) 
HITACHI M-80

>  <ION MODE>  (4333) 
P

>  <INCHIKEY>  (4333) 
LIFAQMGORKPVDH-UHFFFAOYSA-N

>  <FORMULA>  (4333) 
C11H10O3

>  <EXACT MASS>  (4333) 
190.06299417999998

>  <MW>  (4333) 
190

>  <ID>  (4333) 
JP005745

>  <CONTRIBUTOR>  (4333) 
University of Tokyo Team, {Faculty of Engineering, University of Tokyo

>  <COMMENT>  (4333) 
SMILES=CCOc(c1)cc(O2)c(C=CC(=O)2)c1
cas=31005-02-4
InChI=InChI=1S/C11H10O3/c1-2-13-9-5-3-8-4-6-11(12)14-10(8)7-9/h3-7H,2H2,1H3
computed SMILES=O=C1OC=2C=C(OCC)C=CC2C=C1
accession=JP005745
date=2016.01.19 (Created 2008.10.21, modified 2011.05.06)
author=MASS SPECTROSCOPY SOC. OF JAPAN (MSSJ)
license=CC BY-NC-SA
exact mass=190.06299
ionization energy=70 eV
ion type=[M]+*
computed spectral entropy=2.926336938397269
computed normalized entropy=0.7406116015156564
SPLASH=splash10-001l-6900000000-de98e10650cac36f40c5
submitter=submitter = University of Tokyo Team (Faculty of Engineering, University of Tokyo)
MoNA Rating=3.75

>  <NUM PEAKS>  (4333) 
52

>  <MASS SPECTRAL PEAKS>  (4333) 
14 0.5
15 0.83
17 0.98
18 4.29
26 2.71
27 12.05
28 4.82
29 12.5
37 0.75
38 2.86
39 5.57
41 0.9
42 0.45
43 1.51
44.5 0.9
50 4.89
51 15.13
52 3.31
53 1.66
55 0.98
61 1.2
62 4.97
63 11.3
64 2.56
65 2.48
66 0.83
69 5.2
74 1.36
75 1.05
76 2.26
77 11.37
78 11.75
79 2.56
86 0.75
87 0.83
88 0.68
89 6.78
90 0.9
91 0.68
92 0.83
105 11.14
106 3.09
133 4.52
134 99.99
135 7.68
136 0.68
161 1.23
162 22.36
163 2.26
190 50
191 6.33
192 0.65

$$$$

     RDKit          2D

  8  8  0  0  0  0  0  0  0  0999 V2000
   -1.3993   -0.8494    0.0000 C   0  0  0  0  0  0  0  0  0  0  0  0
    1.1753   -1.5413    0.0000 C   0  0  0  0  0  0  0  0  0  0  0  0
    0.0604   -0.5378    0.0000 C   0  0  0  0  0  0  0  0  0  0  0  0
   -2.1493    0.4496    0.0000 C   0  0  0  0  0  0  0  0  0  0  0  0
    2.6018   -1.0775    0.0000 N   0  0  0  0  0  0  0  0  0  0  0  0
   -1.1546    1.5666    0.0000 N   0  0  0  0  0  0  0  0  0  0  0  0
   -3.6415    0.6023    0.0000 O   0  0  0  0  0  0  0  0  0  0  0  0
    0.2175    0.9501    0.0000 O   0  0  0  0  0  0  0  0  0  0  0  0
  3  1  2  0
  3  2  1  0
  4  1  1  0
  5  2  1  0
  6  4  2  0
  7  4  1  0
  8  3  1  0
  8  6  1  0
M  END
>  <NAME>  (4334) 
5-(AMINOMETHYL)-3-ISOXAZOLONE

>  <SYNONYMS>  (4334) 
MUSCIMOL

>  <SPECTRUM TYPE>  (4334) 
MS1

>  <INSTRUMENT TYPE>  (4334) 
EI-B

>  <INSTRUMENT>  (4334) 
HITACHI M-80

>  <ION MODE>  (4334) 
P

>  <INCHIKEY>  (4334) 
ZJQHPWUVQPJPQT-UHFFFAOYSA-N

>  <FORMULA>  (4334) 
C4H6N2O2

>  <EXACT MASS>  (4334) 
114.042927432

>  <MW>  (4334) 
114

>  <ID>  (4334) 
JP005744

>  <CONTRIBUTOR>  (4334) 
University of Tokyo Team, {Faculty of Engineering, University of Tokyo

>  <COMMENT>  (4334) 
SMILES=NCC(O1)=CC(=O)N1
InChI=InChI=1S/C4H6N2O2/c5-2-3-1-4(7)6-8-3/h1H,2,5H2,(H,6,7)
computed SMILES=OC1=NOC(=C1)CN
accession=JP005744
date=2016.01.19 (Created 2008.10.21, modified 2011.05.06)
author=MASS SPECTROSCOPY SOC. OF JAPAN (MSSJ)
license=CC BY-NC-SA
exact mass=114.04293
ionization energy=70 eV
ion type=[M]+*
computed spectral entropy=3.1421012967265343
computed normalized entropy=0.8206831017414884
SPLASH=splash10-003r-9000000000-8a5c7c8119385828f867
submitter=submitter = University of Tokyo Team (Faculty of Engineering, University of Tokyo)
MoNA Rating=3.75

>  <NUM PEAKS>  (4334) 
46

>  <MASS SPECTRAL PEAKS>  (4334) 
14 2.5
15 2.7
16 1
17 1.7
18 3.1
26 2.9
27 7.5
28 49.1
29 18.1
30 99.99
31 2.7
38 4.6
39 11.8
40 5
41 10.1
42 15.2
43 16
44 5.6
45 1.2
47 1.6
48 0.8
49 8
51 4.1
53 2.7
54 7.2
55 6.5
56 6.7
57 2.8
58 2
59 1.7
66 1.2
67 3.5
68 4.8
69 8.7
70 20.5
71 29.5
82 4.4
83 22.2
85 1.7
86 5.3
88 0.7
97 12.8
98 4.9
113 8.9
114 10.3
115 9.5

$$$$

     RDKit          2D

  9  9  0  0  0  0  0  0  0  0999 V2000
   -1.3000    2.2498    0.0000 C   0  0  0  0  0  0  0  0  0  0  0  0
   -0.0000   -0.0002    0.0000 C   0  0  0  0  0  0  0  0  0  0  0  0
    1.3000    2.2498    0.0000 C   0  0  0  0  0  0  0  0  0  0  0  0
   -1.3000    0.7498    0.0000 N   0  0  0  0  0  0  0  0  0  0  0  0
   -0.0000    2.9998    0.0000 N   0  0  0  0  0  0  0  0  0  0  0  0
    1.3000    0.7498    0.0000 N   0  0  0  0  0  0  0  0  0  0  0  0
   -2.5989    3.0000    0.0000 O   0  0  0  0  0  0  0  0  0  0  0  0
   -0.0000   -1.5002    0.0000 O   0  0  0  0  0  0  0  0  0  0  0  0
    2.5989    3.0000    0.0000 O   0  0  0  0  0  0  0  0  0  0  0  0
  4  1  2  0
  4  2  1  0
  5  1  1  0
  5  3  2  0
  6  2  2  0
  6  3  1  0
  7  1  1  0
  8  2  1  0
  9  3  1  0
M  END
>  <NAME>  (4335) 
CYANURIC ACID

>  <SYNONYMS>  (4335) 
1,3,5-TRIAZINE-2,4,6(1H,3H,5H)-TRIONE

>  <SPECTRUM TYPE>  (4335) 
MS1

>  <INSTRUMENT TYPE>  (4335) 
EI-B

>  <INSTRUMENT>  (4335) 
HITACHI M-80

>  <ION MODE>  (4335) 
P

>  <INCHIKEY>  (4335) 
ZFSLODLOARCGLH-UHFFFAOYSA-N

>  <FORMULA>  (4335) 
C3H3N3O3

>  <EXACT MASS>  (4335) 
129.017440956

>  <MW>  (4335) 
129

>  <ID>  (4335) 
JP005743

>  <CONTRIBUTOR>  (4335) 
University of Tokyo Team, {Faculty of Engineering, University of Tokyo

>  <COMMENT>  (4335) 
SMILES=Oc(n1)nc(O)nc(O)1
cas=108-80-5
InChI=InChI=1S/C3H3N3O3/c7-1-4-2(8)6-3(9)5-1/h(H3,4,5,6,7,8,9)
computed SMILES=OC=1N=C(O)N=C(O)N1
accession=JP005743
date=2016.01.19 (Created 2008.10.21, modified 2011.05.06)
author=MASS SPECTROSCOPY SOC. OF JAPAN (MSSJ)
license=CC BY-NC-SA
exact mass=129.01744
ionization energy=70 eV
ion type=[M]+*
computed spectral entropy=1.276262346716968
computed normalized entropy=0.5808520257243027
SPLASH=splash10-004i-4900000000-61ecfa8dc25736843860
submitter=submitter = University of Tokyo Team (Faculty of Engineering, University of Tokyo)
MoNA Rating=3.75

>  <NUM PEAKS>  (4335) 
9

>  <MASS SPECTRAL PEAKS>  (4335) 
28 3.1
41 1.6
43 33
70 7.2
86 12
87 1.3
129 99.99
130 6.3
131 1.5

$$$$

     RDKit          2D

 24 25  0  0  1  0  0  0  0  0999 V2000
  -11.0418    5.9458    0.0000 C   0  0  0  0  0  0  0  0  0  0  0  0
    4.5466    5.9458    0.0000 C   0  0  0  0  0  0  0  0  0  0  0  0
  -11.0423    4.4450    0.0000 C   0  0  0  0  0  0  0  0  0  0  0  0
   -9.7423    6.6967    0.0000 C   0  0  0  0  0  0  0  0  0  0  0  0
    3.2471    6.6967    0.0000 C   0  0  0  0  0  0  0  0  0  0  0  0
    4.5471    4.4450    0.0000 C   0  0  0  0  0  0  0  0  0  0  0  0
   -9.7433    3.6950    0.0000 C   0  0  0  0  0  0  0  0  0  0  0  0
   -8.4433    5.9467    0.0000 C   0  0  0  0  0  0  0  0  0  0  0  0
    1.9481    5.9467    0.0000 C   0  0  0  0  0  0  0  0  0  0  0  0
    3.2481    3.6950    0.0000 C   0  0  0  0  0  0  0  0  0  0  0  0
   -7.1447    3.6958    0.0000 C   0  0  0  0  0  0  0  0  0  0  0  0
   -1.9486    3.6958    0.0000 C   0  0  0  0  0  0  0  0  0  0  0  0
   -8.4437    4.4458    0.0000 C   0  0  0  0  0  0  0  0  0  0  0  0
    1.9486    4.4458    0.0000 C   0  0  0  0  0  0  0  0  0  0  0  0
   -5.8457    4.4458    0.0000 C   0  0  0  0  0  0  0  0  0  0  0  0
   -3.2476    4.4458    0.0000 C   0  0  0  0  0  0  0  0  0  0  0  0
    0.6495    3.6958    0.0000 C   0  0  0  0  0  0  0  0  0  0  0  0
   -5.8457    5.9458    0.0000 C   0  0  0  0  0  0  0  0  0  0  0  0
   -0.6495    4.4458    0.0000 N   0  0  0  0  0  0  0  0  0  0  0  0
   -4.5466    3.6958    0.0000 N   0  0  0  0  0  0  0  0  0  0  0  0
   -3.2476    5.9458    0.0000 O   0  0  0  0  0  0  0  0  0  0  0  0
    0.6495    2.1958    0.0000 O   0  0  0  0  0  0  0  0  0  0  0  0
   -4.5466    6.6958    0.0000 O   0  0  0  0  0  0  0  0  0  0  0  0
   -7.1447    6.6958    0.0000 O   0  0  0  0  0  0  0  0  0  0  0  0
  3  1  2  0
  4  1  1  0
  5  2  2  0
  6  2  1  0
  7  3  1  0
  8  4  2  0
  9  5  1  0
 10  6  2  0
 13  7  2  0
 13  8  1  0
 13 11  1  0
 14  9  2  0
 14 10  1  0
 15 11  1  6
 16 12  1  0
 17 14  1  0
 18 15  1  0
 19 12  1  0
 19 17  2  3
 15 20  1  0
 20 16  2  3
 21 16  1  0
 22 17  1  0
 23 18  2  0
 24 18  1  0
M  END
>  <NAME>  (4336) 
N-HIPPURYL-L-PHENYLALANINE

>  <SYNONYMS>  (4336) 


>  <SPECTRUM TYPE>  (4336) 
MS1

>  <INSTRUMENT TYPE>  (4336) 
EI-B

>  <INSTRUMENT>  (4336) 
HITACHI M-80

>  <ION MODE>  (4336) 
P

>  <INCHIKEY>  (4336) 
CCLJGZGVIQBNDH-OAHLLOKOSA-N

>  <FORMULA>  (4336) 
C18H18N2O4

>  <EXACT MASS>  (4336) 
326.126657056

>  <MW>  (4336) 
326

>  <ID>  (4336) 
JP005742

>  <CONTRIBUTOR>  (4336) 
University of Tokyo Team, {Faculty of Engineering, University of Tokyo

>  <COMMENT>  (4336) 
SMILES=O=C(CNC(=O)c(c2)cccc2)NC([H])(C(O)=O)Cc(c1)cccc1
InChI=InChI=1S/C18H18N2O4/c21-16(12-19-17(22)14-9-5-2-6-10-14)20-15(18(23)24)11-13-7-3-1-4-8-13/h1-10,15H,11-12H2,(H,19,22)(H,20,21)(H,23,24)/t15-/m1/s1
computed SMILES=O=C(O)C(N=C(O)CN=C(O)C=1C=CC=CC1)CC=2C=CC=CC2
accession=JP005742
date=2016.01.19 (Created 2008.10.21, modified 2011.05.06)
author=MASS SPECTROSCOPY SOC. OF JAPAN (MSSJ)
license=CC BY-NC-SA
exact mass=326.12666
ionization energy=70 eV
ion type=[M]+*
computed spectral entropy=2.853721954784511
computed normalized entropy=0.778947437065598
SPLASH=splash10-0a6s-1900000000-6926a7a90c408dcf5cd2
submitter=submitter = University of Tokyo Team (Faculty of Engineering, University of Tokyo)
MoNA Rating=3.75

>  <NUM PEAKS>  (4336) 
39

>  <MASS SPECTRAL PEAKS>  (4336) 
27 1.4
51 8.6
74 2.3
76 2.1
77 35.9
78 4.8
79 2.6
92 4.1
104 12.4
105 99.99
106 10.4
117 2.7
118 3.2
119 8.5
120 21.2
121 3.3
131 1.9
133 1.8
134 47.8
135 18.2
136 1.7
146 1.9
147 10.3
148 64.2
149 7.2
160 2.2
161 3.8
162 42.1
163 4.9
165 3.7
166 2.2
178 3.4
179 33.6
180 4.1
217 3.3
282 3.5
326 4.1
327 2.1
328 0.5

$$$$

     RDKit          2D

 11 11  0  0  0  0  0  0  0  0999 V2000
   -0.0000   -1.5000    0.0000 C   0  0  0  0  0  0  0  0  0  0  0  0
   -1.3000    0.7500    0.0000 C   0  0  0  0  0  0  0  0  0  0  0  0
    1.3000   -0.7500    0.0000 C   0  0  0  0  0  0  0  0  0  0  0  0
    0.0000    1.5000    0.0000 C   0  0  0  0  0  0  0  0  0  0  0  0
   -1.3000   -0.7500    0.0000 C   0  0  0  0  0  0  0  0  0  0  0  0
    1.3000    0.7500    0.0000 C   0  0  0  0  0  0  0  0  0  0  0  0
   -2.5989   -1.5002    0.0000 N   0  0  0  0  0  0  0  0  0  0  0  0
    3.3491    0.2013    0.0000 O   0  0  0  0  0  0  0  0  0  0  0  0
    3.8978    2.2504    0.0000 O   0  0  0  0  0  0  0  0  0  0  0  0
    1.8487    2.7991    0.0000 O   0  0  0  0  0  0  0  0  0  0  0  0
    2.5989    1.5002    0.0000 S   0  0  0  0  0  0  0  0  0  0  0  0
  3  1  2  0
  4  2  1  0
  5  1  1  0
  5  2  2  0
  6  3  1  0
  6  4  2  0
  7  5  1  0
 11  6  1  0
 11  8  1  0
 11  9  2  0
 11 10  2  0
M  END
>  <NAME>  (4337) 
SULFANILIC ACID

>  <SYNONYMS>  (4337) 


>  <SPECTRUM TYPE>  (4337) 
MS1

>  <INSTRUMENT TYPE>  (4337) 
EI-B

>  <INSTRUMENT>  (4337) 
HITACHI M-80

>  <ION MODE>  (4337) 
P

>  <INCHIKEY>  (4337) 
HVBSAKJJOYLTQU-UHFFFAOYSA-N

>  <FORMULA>  (4337) 
C6H7NO3S

>  <EXACT MASS>  (4337) 
173.01466408399997

>  <MW>  (4337) 
173

>  <ID>  (4337) 
JP005739

>  <CONTRIBUTOR>  (4337) 
University of Tokyo Team, {Faculty of Engineering, University of Tokyo

>  <COMMENT>  (4337) 
SMILES=Nc(c1)ccc(c1)S(O)(=O)=O
cas=121-57-3
InChI=InChI=1S/C6H7NO3S/c7-5-1-3-6(4-2-5)11(8,9)10/h1-4H,7H2,(H,8,9,10)
computed SMILES=O=S(=O)(O)C1=CC=C(N)C=C1
accession=JP005739
date=2016.01.19 (Created 2008.10.21, modified 2011.05.06)
author=MASS SPECTROSCOPY SOC. OF JAPAN (MSSJ)
license=CC BY-NC-SA
exact mass=173.01466
ionization energy=70 eV
ion type=[M]+*
computed spectral entropy=2.7385818926260104
computed normalized entropy=0.8051817008302157
SPLASH=splash10-05fr-8900000000-e928aec8ce5fc6e7ed0e
submitter=submitter = University of Tokyo Team (Faculty of Engineering, University of Tokyo)
MoNA Rating=3.75

>  <NUM PEAKS>  (4337) 
30

>  <MASS SPECTRAL PEAKS>  (4337) 
18 2.3
27 2.9
28 8.9
38 3.6
39 14.8
40 2.1
48 4.6
51 3.1
52 6.3
53 7.3
54 3.6
62 3.5
63 9
64 6.8
65 34.8
66 6.8
80 28.2
81 5.6
91 5.7
92 25.8
93 11.5
104 2.5
106 4.9
108 62.5
109 13.4
140 2.2
156 7.2
173 99.99
174 8.5
175 6

$$$$

     RDKit          2D

 14 15  0  0  0  0  0  0  0  0999 V2000
   -2.6000   -0.7500    0.0000 C   0  0  0  0  0  0  0  0  0  0  0  0
   -2.6000    0.7500    0.0000 C   0  0  0  0  0  0  0  0  0  0  0  0
   -1.3000   -1.5000    0.0000 C   0  0  0  0  0  0  0  0  0  0  0  0
   -1.3000    1.5000    0.0000 C   0  0  0  0  0  0  0  0  0  0  0  0
    0.0000   -0.7500    0.0000 C   0  0  0  0  0  0  0  0  0  0  0  0
    0.0000    0.7500    0.0000 C   0  0  0  0  0  0  0  0  0  0  0  0
    2.6000   -0.7500    0.0000 C   0  0  0  0  0  0  0  0  0  0  0  0
    2.6000    0.7500    0.0000 C   0  0  0  0  0  0  0  0  0  0  0  0
    1.3000   -1.5000    0.0000 C   0  0  0  0  0  0  0  0  0  0  0  0
    1.3000    1.5000    0.0000 C   0  0  0  0  0  0  0  0  0  0  0  0
    3.8989   -1.5002    0.0000 Cl  0  0  0  0  0  0  0  0  0  0  0  0
    3.8989    1.5002    0.0000 Cl  0  0  0  0  0  0  0  0  0  0  0  0
    1.3000   -3.0000    0.0000 O   0  0  0  0  0  0  0  0  0  0  0  0
    1.3000    3.0000    0.0000 O   0  0  0  0  0  0  0  0  0  0  0  0
  2  1  2  0
  3  1  1  0
  4  2  1  0
  5  3  2  0
  6  4  2  0
  6  5  1  0
  8  7  2  0
  9  5  1  0
  9  7  1  0
 10  6  1  0
 10  8  1  0
 11  7  1  0
 12  8  1  0
 13  9  2  0
 14 10  2  0
M  END
>  <NAME>  (4338) 
2,3-DICHLORO-1,4-NAPHTHOQUINONE

>  <SYNONYMS>  (4338) 


>  <SPECTRUM TYPE>  (4338) 
MS1

>  <INSTRUMENT TYPE>  (4338) 
EI-B

>  <INSTRUMENT>  (4338) 
HITACHI M-80

>  <ION MODE>  (4338) 
P

>  <INCHIKEY>  (4338) 
SVPKNMBRVBMTLB-UHFFFAOYSA-N

>  <FORMULA>  (4338) 
C10H4Cl2O2

>  <EXACT MASS>  (4338) 
225.958834728

>  <MW>  (4338) 
226

>  <ID>  (4338) 
JP005738

>  <CONTRIBUTOR>  (4338) 
University of Tokyo Team, {Faculty of Engineering, University of Tokyo

>  <COMMENT>  (4338) 
SMILES=O=c(c(Cl)1)c(c2)c(ccc2)c(=O)c(Cl)1
cas=117-80-6
InChI=InChI=1S/C10H4Cl2O2/c11-7-8(12)10(14)6-4-2-1-3-5(6)9(7)13/h1-4H
computed SMILES=O=C1C(Cl)=C(Cl)C(=O)C=2C=CC=CC12
ionization energy=70 eV
ion type=[M]+*
accession=JP005738
date=2016.01.19 (Created 2008.10.21, modified 2011.05.06)
author=MASS SPECTROSCOPY SOC. OF JAPAN (MSSJ)
license=CC BY-NC-SA
exact mass=225.95883
computed spectral entropy=3.883000959679608
computed normalized entropy=0.8260859864319428
SPLASH=splash10-0fbi-9410000000-5ade8aaec752af81441d
submitter=submitter = University of Tokyo Team (Faculty of Engineering, University of Tokyo)
MoNA Rating=3.75

>  <NUM PEAKS>  (4338) 
110

>  <MASS SPECTRAL PEAKS>  (4338) 
17 2.04
18 6.86
25 1.1
26 5.39
27 5.68
28 3.58
29 3.09
35 7.44
36 2.01
37 13.11
38 16.09
39 10.04
40 0.65
41 0.95
45 4.62
47 5.14
48 0.98
49 13.07
50 99.99
51 17.14
52 8.87
53 6.63
59 8.04
60 4.69
61 17.34
62 9.21
63 10.2
64 1.26
65 6.26
66 6.36
67 0.99
69 0.84
71 1.81
72 2.58
73 17.06
74 84.95
75 45.54
76 77.36
77 12.2
78 1.59
79 0.85
80 0.99
82 0.48
83 0.91
84 6.4
85 12.22
86 7.77
87 60.31
88 1.6
89 18.58
90 0.86
91 16.83
92 2.61
94 40.96
95 1.75
96 26.73
97 6.87
98 16.72
99 46.73
100 9.37
101 3.96
102 1.22
103 1.2
104 17.93
105 2.24
108 8.99
109 15.5
110 4.32
111 5.45
112 1.09
119 0.58
120 1.32
121 1.65
122 1.83
123 3.28
129 2.97
131 1.29
132 0.91
133 2.06
134 3.09
135 50.55
136 7.54
137 17.31
138 2.28
139 1.58
163 85.14
164 9.8
165 26.5
166 2.89
169 1.03
170 2.92
171 0.88
172 2.37
191 78.13
192 9.14
193 26.25
194 3.12
198 11.09
200 6.92
201 0.94
202 1.36
214 3.5
225 1.7
226 50.46
227 7.27
228 36.09
229 4.69
230 6.21
231 0.84
232 0.6

$$$$

     RDKit          2D

 12 12  0  0  0  0  0  0  0  0999 V2000
    3.8981    0.0804    0.0000 C   0  0  0  0  0  0  0  0  0  0  0  0
   -1.2990    3.0800    0.0000 C   0  0  0  0  0  0  0  0  0  0  0  0
   -0.0000   -2.1700    0.0000 C   0  0  0  0  0  0  0  0  0  0  0  0
   -1.3000   -1.4200    0.0000 C   0  0  0  0  0  0  0  0  0  0  0  0
    1.3000   -1.4200    0.0000 C   0  0  0  0  0  0  0  0  0  0  0  0
   -2.5989    0.8302    0.0000 C   0  0  0  0  0  0  0  0  0  0  0  0
   -1.3000    0.0800    0.0000 C   0  0  0  0  0  0  0  0  0  0  0  0
    1.3000    0.0800    0.0000 C   0  0  0  0  0  0  0  0  0  0  0  0
   -0.0000    0.8300    0.0000 C   0  0  0  0  0  0  0  0  0  0  0  0
   -3.8981    0.0804    0.0000 O   0  0  0  0  0  0  0  0  0  0  0  0
    2.5989    0.8302    0.0000 O   0  0  0  0  0  0  0  0  0  0  0  0
    0.0000    2.3300    0.0000 O   0  0  0  0  0  0  0  0  0  0  0  0
  4  3  2  0
  5  3  1  0
  7  4  1  0
  7  6  1  0
  8  5  2  0
  9  7  2  0
  9  8  1  0
 10  6  2  0
 11  1  1  0
 11  8  1  0
 12  2  1  0
 12  9  1  0
M  END
>  <NAME>  (4339) 
2,3-DIMETHOXYBENZALDEHYDE

>  <SYNONYMS>  (4339) 


>  <SPECTRUM TYPE>  (4339) 
MS1

>  <INSTRUMENT TYPE>  (4339) 
EI-B

>  <INSTRUMENT>  (4339) 
HITACHI M-80

>  <ION MODE>  (4339) 
P

>  <INCHIKEY>  (4339) 
JIVGSHFYXPRRSZ-UHFFFAOYSA-N

>  <FORMULA>  (4339) 
C9H10O3

>  <EXACT MASS>  (4339) 
166.06299417999998

>  <MW>  (4339) 
166

>  <ID>  (4339) 
JP005737

>  <CONTRIBUTOR>  (4339) 
University of Tokyo Team, {Faculty of Engineering, University of Tokyo

>  <COMMENT>  (4339) 
SMILES=O=Cc(c1)c(OC)c(OC)cc1
cas=86-51-1
InChI=InChI=1S/C9H10O3/c1-11-8-5-3-4-7(6-10)9(8)12-2/h3-6H,1-2H3
computed SMILES=O=CC=1C=CC=C(OC)C1OC
accession=JP005737
date=2016.01.19 (Created 2008.10.21, modified 2011.05.06)
author=MASS SPECTROSCOPY SOC. OF JAPAN (MSSJ)
license=CC BY-NC-SA
exact mass=166.06299
ionization energy=70 eV
ion type=[M]+*
computed spectral entropy=3.8762314985864887
computed normalized entropy=0.8657448968440469
SPLASH=splash10-0gb9-9700000000-e16ac86b1e205e196920
submitter=submitter = University of Tokyo Team (Faculty of Engineering, University of Tokyo)
MoNA Rating=3.75

>  <NUM PEAKS>  (4339) 
88

>  <MASS SPECTRAL PEAKS>  (4339) 
14 2.29
15 27.79
16 0.52
17 0.53
18 2.3
26 2.99
27 2.68
28 4.59
29 16.63
30 1.49
31 2.17
37 2.08
38 5.46
39 13.17
40 0.97
41 10.94
42 0.71
43 1.94
45 0.61
49 1.07
50 14.04
51 29.29
52 26.27
53 10.81
54 1.72
55 5.28
61 1.61
62 5.73
63 15.66
64 6.31
65 23.58
66 3.22
67 11.89
68 0.75
69 2.05
70 0.13
73 0.38
74 3.01
75 3.03
76 24.81
77 33.31
78 11.71
79 12.13
80 12.94
81 2.38
82 0.32
89 0.49
90 10.07
91 6.41
92 7.98
93 11.4
94 2.99
95 20.53
96 1.38
104 10.18
105 17.47
106 7.85
107 15.68
108 21.06
109 8.96
110 0.93
118 2.77
119 7.91
120 15.17
121 8.82
122 9.8
123 13.75
124 3.12
125 0.35
133 8.47
134 1.13
135 5.28
136 10.71
137 9.88
138 1.96
139 0.54
147 1.95
148 19.79
149 9.98
150 2.62
151 27.35
152 2.58
153 0.4
165 10.53
166 99.99
167 13.47
168 1.98
169 0.2

$$$$

     RDKit          2D

 11 11  0  0  0  0  0  0  0  0999 V2000
    3.8981   -0.7504    0.0000 C   0  0  0  0  0  0  0  0  0  0  0  0
    2.5987   -3.0002    0.0000 C   0  0  0  0  0  0  0  0  0  0  0  0
   -1.3000   -0.7500    0.0000 C   0  0  0  0  0  0  0  0  0  0  0  0
    0.0000    1.5000    0.0000 C   0  0  0  0  0  0  0  0  0  0  0  0
    0.0000   -1.5000    0.0000 C   0  0  0  0  0  0  0  0  0  0  0  0
    1.3000    0.7500    0.0000 C   0  0  0  0  0  0  0  0  0  0  0  0
   -2.5989    1.5002    0.0000 C   0  0  0  0  0  0  0  0  0  0  0  0
   -1.3000    0.7500    0.0000 C   0  0  0  0  0  0  0  0  0  0  0  0
    1.3000   -0.7500    0.0000 C   0  0  0  0  0  0  0  0  0  0  0  0
    2.5989   -1.5002    0.0000 N   0  0  0  0  0  0  0  0  0  0  0  0
   -3.8981    0.7504    0.0000 O   0  0  0  0  0  0  0  0  0  0  0  0
  5  3  2  0
  6  4  1  0
  8  3  1  0
  8  4  2  0
  8  7  1  0
  9  5  1  0
  9  6  2  0
 10  1  1  0
 10  2  1  0
 10  9  1  0
 11  7  2  0
M  END
>  <NAME>  (4340) 
4-DIMETHYLAMINOBENZALDEHYDE

>  <SYNONYMS>  (4340) 


>  <SPECTRUM TYPE>  (4340) 
MS1

>  <INSTRUMENT TYPE>  (4340) 
EI-B

>  <INSTRUMENT>  (4340) 
HITACHI M-80

>  <ION MODE>  (4340) 
P

>  <INCHIKEY>  (4340) 
BGNGWHSBYQYVRX-UHFFFAOYSA-N

>  <FORMULA>  (4340) 
C9H11NO

>  <EXACT MASS>  (4340) 
149.084063972

>  <MW>  (4340) 
149

>  <ID>  (4340) 
JP005736

>  <CONTRIBUTOR>  (4340) 
University of Tokyo Team, {Faculty of Engineering, University of Tokyo

>  <COMMENT>  (4340) 
SMILES=O=Cc(c1)ccc(c1)N(C)C
cas=100-10-7
InChI=InChI=1S/C9H11NO/c1-10(2)9-5-3-8(7-11)4-6-9/h3-7H,1-2H3
computed SMILES=O=CC1=CC=C(C=C1)N(C)C
accession=JP005736
date=2016.01.19 (Created 2008.10.21, modified 2011.05.06)
author=MASS SPECTROSCOPY SOC. OF JAPAN (MSSJ)
license=CC BY-NC-SA
exact mass=149.08406
ionization energy=70 eV
ion type=[M]+*
computed spectral entropy=3.2178942434881375
computed normalized entropy=0.7766810533556474
SPLASH=splash10-0002-8900000000-a5df85637be8575d39f8
submitter=submitter = University of Tokyo Team (Faculty of Engineering, University of Tokyo)
MoNA Rating=3.75

>  <NUM PEAKS>  (4340) 
63

>  <MASS SPECTRAL PEAKS>  (4340) 
14 0.96
15 19.48
18 2.25
26 1.27
27 5.58
28 28.27
30 0.7
38 3.36
39 8.91
40 1.77
41 23.49
43 3.43
44 3.18
50 13.29
51 21.09
52 4.17
53 1.94
54 0.82
55 0.86
59 0.83
60 0.89
61 3.61
62 2.92
63 9.93
64 3.98
65 4.98
66 1.92
68 1.28
69 0.74
73 0.58
74 5.49
75 4.71
76 7.19
77 27.39
78 11.66
79 7.18
80 1.23
88 0.63
89 1.52
90 3.52
91 7.41
92 3.61
93 1.76
94 1.27
102 0.89
103 2.69
104 11.74
105 11.77
106 2.81
117 1.19
118 5.35
119 4.66
120 5.98
121 0.93
132 13.45
133 4.48
134 2.03
135 0.7
146 1
148 99.99
149 83.61
150 8.54
151 0.61

$$$$

     RDKit          2D

 24 27  0  0  1  0  0  0  0  0999 V2000
    6.0781    1.9994    0.0000 C   0  0  0  0  0  0  0  0  0  0  0  0
   -1.8400    0.7800    0.0000 C   0  0  0  0  0  0  0  0  0  0  0  0
    2.2172    3.0217    0.0000 C   0  0  0  0  0  0  0  0  0  0  0  0
   -0.5400   -2.9700    0.0000 C   0  0  0  0  0  0  0  0  0  0  0  0
    0.7600   -2.2200    0.0000 C   0  0  0  0  0  0  0  0  0  0  0  0
   -4.4400   -0.7200    0.0000 C   0  0  0  0  0  0  0  0  0  0  0  0
   -0.5400    1.5300    0.0000 C   0  0  0  0  0  0  0  0  0  0  0  0
    3.4800   -0.4400    0.0000 C   0  0  0  0  0  0  0  0  0  0  0  0
   -3.1400    0.0300    0.0000 C   0  0  0  0  0  0  0  0  0  0  0  0
    0.7600    2.2800    0.0000 C   0  0  0  0  0  0  0  0  0  0  0  0
    4.3700    0.7800    0.0000 C   0  0  0  0  0  0  0  0  0  0  0  0
   -3.1400   -2.9700    0.0000 C   0  0  0  0  0  0  0  0  0  0  0  0
    4.7763    2.7447    0.0000 C   0  0  0  0  0  0  0  0  0  0  0  0
   -1.8400   -2.2200    0.0000 C   0  0  0  0  0  0  0  0  0  0  0  0
   -4.4400   -2.2200    0.0000 C   0  0  0  0  0  0  0  0  0  0  0  0
    0.7600   -0.7200    0.0000 C   0  0  0  0  0  0  0  0  0  0  0  0
   -0.5400    0.0300    0.0000 C   0  0  0  0  0  0  0  0  0  0  0  0
    2.0600    0.0300    0.0000 C   0  0  0  0  0  0  0  0  0  0  0  0
   -1.8400   -0.7200    0.0000 C   0  0  0  0  0  0  0  0  0  0  0  0
    2.0600    1.5300    0.0000 C   0  0  0  0  0  0  0  0  0  0  0  0
    3.4800    1.9900    0.0000 C   0  0  0  0  0  0  0  0  0  0  0  0
    4.7709    4.2447    0.0000 O   0  0  0  0  0  0  0  0  0  0  0  0
   -5.7389   -2.9702    0.0000 O   0  0  0  0  0  0  0  0  0  0  0  0
    3.5277    0.4908    0.0000 O   0  0  0  0  0  0  0  0  0  0  0  0
  5  4  1  0
  9  6  1  0
 10  7  1  0
 11  8  1  0
 13  1  1  0
 14  4  1  0
 14 12  2  0
 15  6  1  0
 15 12  1  0
 16  5  1  6
 17  7  1  1
 17 16  1  0
 18  8  1  1
 18 16  1  0
 19  2  1  1
 19  9  1  0
 19 14  1  0
 19 17  1  0
 20  3  1  1
 20 10  1  0
 20 18  1  0
 21 11  1  0
 21 13  1  0
 21 20  1  0
 22 13  2  0
 23 15  2  0
 21 24  1  6
M  END
>  <NAME>  (4341) 
17-ALPHA-HYDROXYPROGESTERONE

>  <SYNONYMS>  (4341) 


>  <SPECTRUM TYPE>  (4341) 
MS1

>  <INSTRUMENT TYPE>  (4341) 
EI-B

>  <INSTRUMENT>  (4341) 
HITACHI M-80

>  <ION MODE>  (4341) 
P

>  <INCHIKEY>  (4341) 
DBPWSSGDRRHUNT-CEGNMAFCSA-N

>  <FORMULA>  (4341) 
C21H30O3

>  <EXACT MASS>  (4341) 
330.21949481999997

>  <MW>  (4341) 
330

>  <ID>  (4341) 
JP005735

>  <CONTRIBUTOR>  (4341) 
University of Tokyo Team, {Faculty of Engineering, University of Tokyo

>  <COMMENT>  (4341) 
SMILES=O=C(C4)C([H])=C(C3)C(C)(C4)C([H])(C2)C([H])(C3)C([H])(C1)C(C)(C2)C(O)(C(C)=O)C1
cas=604-09-1
InChI=InChI=1S/C21H30O3/c1-13(22)21(24)11-8-18-16-5-4-14-12-15(23)6-9-19(14,2)17(16)7-10-20(18,21)3/h12,16-18,24H,4-11H2,1-3H3/t16-,17+,18+,19+,20+,21+/m1/s1
computed SMILES=O=C1C=C2CCC3C(CCC4(C)C3CCC4(O)C(=O)C)C2(C)CC1
accession=JP005735
date=2016.01.19 (Created 2008.10.21, modified 2011.05.06)
author=MASS SPECTROSCOPY SOC. OF JAPAN (MSSJ)
license=CC BY-NC-SA
exact mass=330.21949
ionization energy=70 eV
ion type=[M]+*
computed spectral entropy=4.5354939484441825
computed normalized entropy=0.8618204351086786
SPLASH=splash10-002o-9651000000-b44110f9abcffa42ce35
submitter=submitter = University of Tokyo Team (Faculty of Engineering, University of Tokyo)
MoNA Rating=3.75

>  <NUM PEAKS>  (4341) 
193

>  <MASS SPECTRAL PEAKS>  (4341) 
14 1.48
15 5.41
17 1.25
18 6.11
26 2.01
27 8.45
28 4.87
29 10.87
38 1
39 12.36
40 3.02
41 28.8
42 4.11
43 99.99
44 4.09
45 3.31
50 1.36
51 3.47
52 2.51
53 13.04
54 2.79
55 25.73
56 2.05
57 4.06
58 9.13
59 3.71
63 1.48
64 0.72
65 7.98
66 3.7
67 20.96
68 3.71
69 6.73
70 0.9
71 6.09
72 1.12
77 20.55
78 6.28
79 30.71
80 4.86
81 14.82
82 2.31
83 7.09
84 1.09
85 2.12
86 0.96
87 8.62
88 0.74
89 0.94
90 0.58
91 34.19
92 6.25
93 20.21
94 5.04
95 15.03
96 3.24
97 20.46
98 1.81
99 1.34
100 1.85
101 0.74
102 0.72
103 3.26
104 2.43
105 23.27
106 5.49
107 17.14
108 5.47
109 15.8
110 3.24
111 3.83
112 0.5
113 1.57
114 0.36
115 5.72
116 2.57
117 8.74
118 2.78
119 14.33
120 5.96
121 17.35
122 9.37
123 18.75
124 14.2
125 2.49
127 1.49
128 4.3
129 6.27
130 3.1
131 11.27
132 3.09
133 4.86
138 1.22
141 2.7
142 2.12
143 5.7
144 2.75
145 22.34
146 4.86
147 14.17
148 6.81
149 7.57
150 1.77
151 1.1
155 3.12
156 1.49
157 5.01
158 1.99
159 9.41
160 3.15
161 7.16
162 2.96
163 3.41
164 0.75
165 1.52
169 3.31
170 1.43
171 6.41
172 2.31
173 8.73
174 5.44
175 4
176 1.46
177 1.45
183 2.94
184 1.67
185 4.65
186 2.31
187 6.37
188 2.18
189 3.78
190 1.05
191 1.2
195 1.97
196 0.77
197 1.65
198 1.26
199 3.5
200 2.88
201 5.73
202 2.67
203 1.64
209 1.89
210 0.8
211 7.92
212 2.06
213 5.51
214 2.52
215 3.19
216 1.74
217 1.66
225 2.42
226 2.75
227 6.48
228 4.06
229 53.3
230 10.16
231 1.87
241 1.58
242 6.84
243 8.47
244 18.67
245 5.87
246 0.9
251 3.89
252 1.37
253 0.97
268 0.84
269 21.97
270 5.01
271 1.35
272 0.83
273 0.58
279 1.22
284 0.64
285 1.17
286 1.88
287 96.75
288 20.3
289 2.48
295 0.43
297 1.89
298 0.59
302 2.97
303 0.72
312 7.66
313 2.6
314 0.74
315 3.44
316 0.9
330 40.78
331 20.2
332 3.87

$$$$

     RDKit          2D

 10 11  0  0  1  0  0  0  0  0999 V2000
   -0.4775    2.9800    0.0000 C   0  0  0  0  0  0  0  0  0  0  0  0
    1.3259   -2.1785    0.0000 C   0  0  0  0  0  0  0  0  0  0  0  0
    2.2869   -0.5080    0.0000 C   0  0  0  0  0  0  0  0  0  0  0  0
   -1.7800    0.7300    0.0000 C   0  0  0  0  0  0  0  0  0  0  0  0
   -1.7800   -0.7700    0.0000 C   0  0  0  0  0  0  0  0  0  0  0  0
   -0.4800   -0.0200    0.0000 C   0  0  0  0  0  0  0  0  0  0  0  0
   -0.4800    1.4800    0.0000 C   0  0  0  0  0  0  0  0  0  0  0  0
   -0.4800   -1.5200    0.0000 C   0  0  0  0  0  0  0  0  0  0  0  0
    0.8100    0.7300    0.0000 C   0  0  0  0  0  0  0  0  0  0  0  0
    0.8100   -0.7700    0.0000 C   0  0  0  0  0  0  0  0  0  0  0  0
  5  4  1  0
  7  1  2  0
  7  4  1  0
  8  5  1  1
  8  6  1  0
  9  6  1  6
  9  7  1  0
 10  2  1  0
 10  3  1  0
 10  8  1  0
 10  9  1  0
M  END
>  <NAME>  (4342) 
(1S)-(-)-BETA-PINENE

>  <SYNONYMS>  (4342) 


>  <SPECTRUM TYPE>  (4342) 
MS1

>  <INSTRUMENT TYPE>  (4342) 
EI-B

>  <INSTRUMENT>  (4342) 
HITACHI M-80

>  <ION MODE>  (4342) 
P

>  <INCHIKEY>  (4342) 
WTARULDDTDQWMU-IUCAKERBSA-N

>  <FORMULA>  (4342) 
C10H16

>  <EXACT MASS>  (4342) 
136.125200512

>  <MW>  (4342) 
136

>  <ID>  (4342) 
JP005734

>  <CONTRIBUTOR>  (4342) 
University of Tokyo Team, {Faculty of Engineering, University of Tokyo

>  <COMMENT>  (4342) 
SMILES=C=C(C2)C([H])(C1)C(C)(C)C([H])(C2)1
cas=18172-67-3
InChI=InChI=1S/C10H16/c1-7-4-5-8-6-9(7)10(8,2)3/h8-9H,1,4-6H2,2-3H3/t8-,9-/m0/s1
computed SMILES=C=C1CCC2CC1C2(C)C
accession=JP005734
date=2016.01.19 (Created 2008.10.21, modified 2011.05.06)
author=MASS SPECTROSCOPY SOC. OF JAPAN (MSSJ)
license=CC BY-NC-SA
exact mass=136.1252
ionization energy=70 eV
ion type=[M]+*
computed spectral entropy=3.229761786632554
computed normalized entropy=0.829884614199817
SPLASH=splash10-002f-9000000000-30fa40ae82c24567182c
submitter=submitter = University of Tokyo Team (Faculty of Engineering, University of Tokyo)
MoNA Rating=3.75

>  <NUM PEAKS>  (4342) 
49

>  <MASS SPECTRAL PEAKS>  (4342) 
14 2.3
15 3.7
16 1.5
17 5.3
18 18
26 2.5
27 28.5
28 23.8
29 10.2
32 7
38 2.7
39 39.1
40 6.5
41 69.1
42 3.8
43 8.7
50 3.4
51 9.4
52 6
53 16.2
54 2.3
55 10.5
56 1.1
57 1
63 2.9
65 7.8
66 3
67 12.6
68 3.6
69 43.5
70 2.4
77 23
78 5.6
79 26.3
80 11.3
81 3.9
82 1.7
91 19.6
92 9.2
93 99.99
94 13.3
95 2.7
105 3.1
107 4.3
108 1.4
121 10.2
122 0.9
136 7.2
137 0.7

$$$$

     RDKit          2D

 10 11  0  0  1  0  0  0  0  0999 V2000
   -0.4775    2.9800    0.0000 C   0  0  0  0  0  0  0  0  0  0  0  0
    1.3259   -2.1785    0.0000 C   0  0  0  0  0  0  0  0  0  0  0  0
    2.2869   -0.5080    0.0000 C   0  0  0  0  0  0  0  0  0  0  0  0
   -1.7800    0.7300    0.0000 C   0  0  0  0  0  0  0  0  0  0  0  0
   -1.7800   -0.7700    0.0000 C   0  0  0  0  0  0  0  0  0  0  0  0
   -0.4800   -0.0200    0.0000 C   0  0  0  0  0  0  0  0  0  0  0  0
   -0.4800    1.4800    0.0000 C   0  0  0  0  0  0  0  0  0  0  0  0
   -0.4800   -1.5200    0.0000 C   0  0  0  0  0  0  0  0  0  0  0  0
    0.8100    0.7300    0.0000 C   0  0  0  0  0  0  0  0  0  0  0  0
    0.8100   -0.7700    0.0000 C   0  0  0  0  0  0  0  0  0  0  0  0
  5  4  1  0
  7  1  1  0
  7  4  2  0
  8  5  1  6
  8  6  1  0
  9  6  1  1
  9  7  1  0
 10  2  1  0
 10  3  1  0
 10  8  1  0
 10  9  1  0
M  END
>  <NAME>  (4343) 
(1R)-(+)-ALPHA-PINENE

>  <SYNONYMS>  (4343) 


>  <SPECTRUM TYPE>  (4343) 
MS1

>  <INSTRUMENT TYPE>  (4343) 
EI-B

>  <INSTRUMENT>  (4343) 
HITACHI M-80

>  <ION MODE>  (4343) 
P

>  <INCHIKEY>  (4343) 
GRWFGVWFFZKLTI-RKDXNWHRSA-N

>  <FORMULA>  (4343) 
C10H16

>  <EXACT MASS>  (4343) 
136.125200512

>  <MW>  (4343) 
136

>  <ID>  (4343) 
JP005733

>  <CONTRIBUTOR>  (4343) 
University of Tokyo Team, {Faculty of Engineering, University of Tokyo

>  <COMMENT>  (4343) 
SMILES=[H]C(C1)=C(C)C([H])(C2)C(C)(C)C([H])12
cas=7785-70-8
InChI=InChI=1S/C10H16/c1-7-4-5-8-6-9(7)10(8,2)3/h4,8-9H,5-6H2,1-3H3/t8-,9-/m1/s1
computed SMILES=C1=C(C)C2CC(C1)C2(C)C
accession=JP005733
date=2016.01.19 (Created 2008.10.21, modified 2011.05.06)
license=CC BY-NC-SA
author=MASS SPECTROSCOPY SOC. OF JAPAN (MSSJ)
exact mass=136.1252
ionization energy=70 eV
ion type=[M]+*
computed spectral entropy=3.1275997057220737
computed normalized entropy=0.8168954419680349
SPLASH=splash10-0006-9100000000-efa1a7d8bd0221192f0d
submitter=submitter = University of Tokyo Team (Faculty of Engineering, University of Tokyo)
MoNA Rating=3.75

>  <NUM PEAKS>  (4343) 
46

>  <MASS SPECTRAL PEAKS>  (4343) 
41 6.72
42 1.48
43 18.57
45 1.78
53 1.78
55 9.94
56 2.33
57 3.56
58 2.99
59 3.99
67 11.97
68 9.04
69 11.9
70 4.16
71 2.79
77 8.25
78 1.86
79 19.18
80 11.69
81 7.98
82 8.38
83 6.83
84 4.39
85 1.41
91 12.77
92 40.56
93 99.99
94 15.18
96 2.39
97 3.31
98 1.63
105 4.99
106 1.67
107 8.24
108 3.26
109 12.5
110 2.05
111 0.96
119 4.24
120 0.83
121 13.25
122 1.42
134 1.4
135 1.8
136 7.35
137 3.53

$$$$

     RDKit          2D

 10 10  0  0  0  0  0  0  0  0999 V2000
    2.2733    3.1875    0.0000 C   0  0  0  0  0  0  0  0  0  0  0  0
    3.5724    0.9375    0.0000 C   0  0  0  0  0  0  0  0  0  0  0  0
   -0.3252    1.6883    0.0000 C   0  0  0  0  0  0  0  0  0  0  0  0
    0.9748   -0.5633    0.0000 C   0  0  0  0  0  0  0  0  0  0  0  0
   -1.6243    0.9383    0.0000 C   0  0  0  0  0  0  0  0  0  0  0  0
   -0.3243   -1.3133    0.0000 C   0  0  0  0  0  0  0  0  0  0  0  0
    0.9743    0.9375    0.0000 C   0  0  0  0  0  0  0  0  0  0  0  0
    2.2733    1.6875    0.0000 N   0  0  0  0  0  0  0  0  0  0  0  0
   -1.6238   -0.5625    0.0000 N   0  0  0  0  0  0  0  0  0  0  0  0
   -2.9228   -1.3125    0.0000 O   0  0  0  0  0  0  0  0  0  0  0  0
  5  3  2  0
  6  4  1  0
  7  3  1  0
  7  4  2  0
  8  1  1  0
  8  2  1  0
  8  7  1  0
  9  5  1  0
  9  6  2  0
 10  9  1  0
M  CHG  2   9   1  10  -1
M  END
>  <NAME>  (4344) 
4-DIMETHYLAMINOPYRIDINE-N-OXIDE

>  <SYNONYMS>  (4344) 


>  <SPECTRUM TYPE>  (4344) 
MS1

>  <INSTRUMENT TYPE>  (4344) 
EI-B

>  <INSTRUMENT>  (4344) 
HITACHI M-80

>  <ION MODE>  (4344) 
P

>  <INCHIKEY>  (4344) 
WZMNQOYCHMGCSS-UHFFFAOYSA-N

>  <FORMULA>  (4344) 
C7H10N2O

>  <EXACT MASS>  (4344) 
138.07931294

>  <MW>  (4344) 
138

>  <ID>  (4344) 
JP005731

>  <CONTRIBUTOR>  (4344) 
University of Tokyo Team, {Faculty of Engineering, University of Tokyo

>  <COMMENT>  (4344) 
SMILES=CN(C)c(c1)cc[n+1]([O-1])c1
InChI=InChI=1S/C7H10N2O/c1-8(2)7-3-5-9(10)6-4-7/h3-6H,1-2H3
computed SMILES=O=N1=CC=C(C=C1)N(C)C
accession=JP005731
date=2016.01.19 (Created 2008.10.21, modified 2011.05.06)
author=MASS SPECTROSCOPY SOC. OF JAPAN (MSSJ)
license=CC BY-NC-SA
exact mass=138.07931
ionization energy=70 eV
ion type=[M]+*
computed spectral entropy=3.3046584093786837
computed normalized entropy=0.817367426346946
SPLASH=splash10-00di-9700000000-99dca29de550f07d999f
submitter=submitter = University of Tokyo Team (Faculty of Engineering, University of Tokyo)
MoNA Rating=3.75

>  <NUM PEAKS>  (4344) 
57

>  <MASS SPECTRAL PEAKS>  (4344) 
14 6.6
15 10.4
16 3.8
17 9.5
18 44.8
26 2.7
27 4.7
28 25
29 2.3
30 1.8
32 5
38 3.6
39 10.9
40 3.6
41 7.3
42 18.1
43 6.1
44 10.6
50 10.2
51 23.7
52 10.2
53 4.4
54 3.4
55 3.6
57 2.3
63 1.9
64 1.9
65 3
66 5.8
67 3.9
68 5.8
69 3.3
77 1.5
78 16.7
79 7.4
80 5.9
81 2.3
82 10.7
83 1.3
92 3.6
93 3.2
94 8.2
95 3.3
105 7.1
106 7.6
107 7.5
108 4.5
109 3.1
110 1.4
119 2.6
120 2.6
121 99.99
122 89.5
123 7.5
137 1.9
138 32.7
139 2.4

$$$$

     RDKit          2D

  9  9  0  0  0  0  0  0  0  0999 V2000
   -3.5724    0.9375    0.0000 C   0  0  0  0  0  0  0  0  0  0  0  0
   -0.9748   -0.5633    0.0000 C   0  0  0  0  0  0  0  0  0  0  0  0
    0.3252    1.6883    0.0000 C   0  0  0  0  0  0  0  0  0  0  0  0
    0.3243   -1.3133    0.0000 C   0  0  0  0  0  0  0  0  0  0  0  0
    1.6243    0.9383    0.0000 C   0  0  0  0  0  0  0  0  0  0  0  0
   -0.9743    0.9375    0.0000 C   0  0  0  0  0  0  0  0  0  0  0  0
    1.6238   -0.5625    0.0000 N   0  0  0  0  0  0  0  0  0  0  0  0
    2.9228   -1.3125    0.0000 O   0  0  0  0  0  0  0  0  0  0  0  0
   -2.2733    1.6875    0.0000 O   0  0  0  0  0  0  0  0  0  0  0  0
  4  2  2  0
  5  3  1  0
  6  2  1  0
  6  3  2  0
  7  4  1  0
  7  5  2  0
  8  7  1  0
  9  1  1  0
  9  6  1  0
M  CHG  2   7   1   8  -1
M  END
>  <NAME>  (4345) 
4-METHOXYPYRIDINE-N-OXIDE

>  <SYNONYMS>  (4345) 


>  <SPECTRUM TYPE>  (4345) 
MS1

>  <INSTRUMENT TYPE>  (4345) 
EI-B

>  <INSTRUMENT>  (4345) 
HITACHI M-80

>  <ION MODE>  (4345) 
P

>  <INCHIKEY>  (4345) 
BOFAIBPJCWFJFT-UHFFFAOYSA-N

>  <FORMULA>  (4345) 
C6H7NO2

>  <EXACT MASS>  (4345) 
125.047678464

>  <MW>  (4345) 
125

>  <ID>  (4345) 
JP005730

>  <CONTRIBUTOR>  (4345) 
University of Tokyo Team, {Faculty of Engineering, University of Tokyo

>  <COMMENT>  (4345) 
SMILES=COc(c1)cc[n+1]([O-1])c1
cas=1122-96-9
InChI=InChI=1S/C6H7NO2/c1-9-6-2-4-7(8)5-3-6/h2-5H,1H3
computed SMILES=O=N1=CC=C(OC)C=C1
accession=JP005730
date=2016.01.19 (Created 2008.10.21, modified 2011.05.06)
author=MASS SPECTROSCOPY SOC. OF JAPAN (MSSJ)
license=CC BY-NC-SA
exact mass=125.04768
ionization energy=70 eV
ion type=[M]+*
computed spectral entropy=2.9873384068724307
computed normalized entropy=0.8402379612928724
SPLASH=splash10-004i-9600000000-3db14c1ab9d482847f1f
submitter=submitter = University of Tokyo Team (Faculty of Engineering, University of Tokyo)
MoNA Rating=3.75

>  <NUM PEAKS>  (4345) 
35

>  <MASS SPECTRAL PEAKS>  (4345) 
17 6.2
26 9.8
27 11.2
28 22.6
29 8.4
30 11.2
37 2.7
38 7.7
39 18.7
40 6.1
41 3.5
50 8.1
51 10.7
52 11.8
53 7.6
54 7.7
55 5.8
56 4.7
63 6.2
64 2.5
65 2
66 4.4
67 2
68 5.9
69 4.5
78 2.5
79 7.6
82 8.9
83 3.2
84 4.4
108 2.7
109 14.1
110 36.7
125 99.99
126 7.1

$$$$

     RDKit          2D

 24 27  0  0  1  0  0  0  0  0999 V2000
   -1.6125    0.9400    0.0000 C   0  0  0  0  0  0  0  0  0  0  0  0
    2.4507    3.1203    0.0000 C   0  0  0  0  0  0  0  0  0  0  0  0
   -0.3200   -2.8400    0.0000 C   0  0  0  0  0  0  0  0  0  0  0  0
    1.0100   -2.0900    0.0000 C   0  0  0  0  0  0  0  0  0  0  0  0
    3.7100   -0.3100    0.0000 C   0  0  0  0  0  0  0  0  0  0  0  0
    4.5500    0.8800    0.0000 C   0  0  0  0  0  0  0  0  0  0  0  0
   -4.2000   -0.5600    0.0000 C   0  0  0  0  0  0  0  0  0  0  0  0
   -0.3200    1.6300    0.0000 C   0  0  0  0  0  0  0  0  0  0  0  0
   -2.8900    0.1600    0.0000 C   0  0  0  0  0  0  0  0  0  0  0  0
    1.0100    2.3900    0.0000 C   0  0  0  0  0  0  0  0  0  0  0  0
   -2.8900   -2.8400    0.0000 C   0  0  0  0  0  0  0  0  0  0  0  0
    5.6618    3.8047    0.0000 C   0  0  0  0  0  0  0  0  0  0  0  0
   -1.6200   -2.0900    0.0000 C   0  0  0  0  0  0  0  0  0  0  0  0
   -4.2000   -2.0900    0.0000 C   0  0  0  0  0  0  0  0  0  0  0  0
    1.0100   -0.5600    0.0000 C   0  0  0  0  0  0  0  0  0  0  0  0
    2.2800    0.1600    0.0000 C   0  0  0  0  0  0  0  0  0  0  0  0
   -0.3200    0.1600    0.0000 C   0  0  0  0  0  0  0  0  0  0  0  0
    3.7100    2.0900    0.0000 C   0  0  0  0  0  0  0  0  0  0  0  0
    4.1909    3.5108    0.0000 C   0  0  0  0  0  0  0  0  0  0  0  0
   -1.6200   -0.5600    0.0000 C   0  0  0  0  0  0  0  0  0  0  0  0
    2.2800    1.6300    0.0000 C   0  0  0  0  0  0  0  0  0  0  0  0
    6.1427    5.2256    0.0000 O   0  0  0  0  0  0  0  0  0  0  0  0
   -5.4977   -2.8424    0.0000 O   0  0  0  0  0  0  0  0  0  0  0  0
    3.2009    4.6377    0.0000 O   0  0  0  0  0  0  0  0  0  0  0  0
  4  3  1  0
  6  5  1  0
  9  7  1  0
 10  8  1  0
 13  3  1  0
 13 11  2  0
 14  7  1  0
 14 11  1  0
 15  4  1  6
 16  5  1  1
 16 15  1  0
 17  8  1  1
 17 15  1  0
 18  6  1  0
 19 12  1  0
 18 19  1  1
 20  1  1  1
 20  9  1  0
 20 13  1  0
 20 17  1  0
 21  2  1  1
 21 10  1  0
 21 16  1  0
 21 18  1  0
 22 12  1  0
 23 14  2  0
 24 19  2  0
M  END
>  <NAME>  (4346) 
21-HYDROXYPROGESTERONE

>  <SYNONYMS>  (4346) 
DESOXYCORTICOSTERONE

>  <SPECTRUM TYPE>  (4346) 
MS1

>  <INSTRUMENT TYPE>  (4346) 
EI-B

>  <INSTRUMENT>  (4346) 
HITACHI M-80

>  <ION MODE>  (4346) 
P

>  <INCHIKEY>  (4346) 
ZESRJSPZRDMNHY-YFWFAHHUSA-N

>  <FORMULA>  (4346) 
C21H30O3

>  <EXACT MASS>  (4346) 
330.21949481999997

>  <MW>  (4346) 
330

>  <ID>  (4346) 
JP005729

>  <CONTRIBUTOR>  (4346) 
University of Tokyo Team, {Faculty of Engineering, University of Tokyo

>  <COMMENT>  (4346) 
SMILES=OCC(=O)C(C4)C(C)(C3)C([H])(C4)C([H])(C1)C([H])(C3)C(C)(C2)C(=CC(=O)C2)C1
cas=64-85-7
InChI=InChI=1S/C21H30O3/c1-20-9-7-14(23)11-13(20)3-4-15-16-5-6-18(19(24)12-22)21(16,2)10-8-17(15)20/h11,15-18,22H,3-10,12H2,1-2H3/t15-,16-,17-,18+,20-,21-/m0/s1
computed SMILES=O=C1C=C2CCC3C(CCC4(C)C(C(=O)CO)CCC34)C2(C)CC1
accession=JP005729
date=2016.01.19 (Created 2008.10.21, modified 2011.05.06)
author=MASS SPECTROSCOPY SOC. OF JAPAN (MSSJ)
license=CC BY-NC-SA
exact mass=330.21949
ionization energy=70 eV
ion type=[M]+*
computed spectral entropy=4.427947591623834
computed normalized entropy=0.8631647207268953
SPLASH=splash10-0005-9640000000-847952a8ec3d6fcf23d6
submitter=submitter = University of Tokyo Team (Faculty of Engineering, University of Tokyo)
MoNA Rating=3.75

>  <NUM PEAKS>  (4346) 
169

>  <MASS SPECTRAL PEAKS>  (4346) 
15 1.61
16 1.22
17 4.72
18 17.45
26 1.24
27 8.47
28 9.02
29 13.69
30 1.35
31 22.37
32 2.76
39 11.98
40 2.84
41 32.07
42 4.37
43 14.15
44 1.49
45 2
50 1.37
51 3.48
52 2.6
53 13.99
54 3.42
55 37.03
56 4.66
57 5.36
58 1.97
59 1.37
60 2.12
61 0.87
63 1.48
65 8.17
66 4.05
67 22.97
68 4.29
69 8.9
70 2.02
71 2.82
73 1.43
75 1.05
76 0.67
77 22.14
78 6.54
79 31.97
80 5.65
81 21.24
82 2.95
83 4.1
84 1.25
85 2.3
86 1.88
87 1.66
91 33.9
92 5.98
93 22.17
94 5.32
95 21.71
96 2.89
97 4.93
100 1.1
101 3.27
102 0.75
103 3.41
104 2.36
105 20.14
106 4.4
107 16.04
108 3.46
109 9.07
110 1.43
111 2.33
115 5.5
116 2.45
117 7.8
118 2.36
119 10.9
120 3.37
121 12.83
122 4.24
123 13.14
124 7.41
125 1.58
127 1.36
128 3.99
129 5.45
130 2.2
131 8.64
132 2.66
133 12.83
134 4.68
135 13.34
136 2.79
137 4.65
141 2.2
142 1.69
143 4.68
144 1.87
145 11.18
146 3.06
147 29.42
148 5.77
149 14.37
150 2.01
156 0.92
157 5.7
158 1.8
159 7.42
160 2.4
161 12.63
162 2.25
163 4.74
169 1.4
170 0.6
171 4.29
172 3.51
173 5.59
174 1.83
175 5.92
176 1.25
177 1.64
183 1.63
184 0.65
185 2.46
186 1.42
187 3.68
188 1.62
189 1.89
197 2.59
198 0.67
199 1.37
200 1.99
201 2.24
213 2.04
214 0.77
215 2.56
225 1.78
226 0.62
227 3.81
228 1.3
229 7.24
230 1.65
231 0.82
243 2.81
244 1.65
245 1.04
253 30.91
254 6.78
255 1.41
256 0.75
269 0.85
270 1.1
271 45.13
272 10.01
273 1.42
274 1.02
298 0.57
299 99.99
300 22.44
301 3.5
302 0.58
313 0.67
314 0.5
315 1.1
316 0.9
328 1.82
329 0.82
330 4.76
331 1.78
332 0.33

$$$$

     RDKit          2D

  7  7  0  0  0  0  0  0  0  0999 V2000
   -0.0000   -3.0000    0.0000 C   0  0  0  0  0  0  0  0  0  0  0  0
    1.3000   -2.2500    0.0000 C   0  0  0  0  0  0  0  0  0  0  0  0
   -1.3000   -2.2500    0.0000 C   0  0  0  0  0  0  0  0  0  0  0  0
    1.3000   -0.7500    0.0000 C   0  0  0  0  0  0  0  0  0  0  0  0
   -1.3000   -0.7500    0.0000 C   0  0  0  0  0  0  0  0  0  0  0  0
    0.0000    0.0000    0.0000 N   0  0  0  0  0  0  0  0  0  0  0  0
    0.0000    1.5000    0.0000 O   0  0  0  0  0  0  0  0  0  0  0  0
  2  1  2  0
  3  1  1  0
  4  2  1  0
  5  3  2  0
  6  4  2  0
  6  5  1  0
  7  6  1  0
M  CHG  2   6   1   7  -1
M  END
>  <NAME>  (4347) 
PYRIDINE-N-OXIDE

>  <SYNONYMS>  (4347) 


>  <SPECTRUM TYPE>  (4347) 
MS1

>  <INSTRUMENT TYPE>  (4347) 
EI-B

>  <INSTRUMENT>  (4347) 
HITACHI M-80

>  <ION MODE>  (4347) 
P

>  <INCHIKEY>  (4347) 
ILVXOBCQQYKLDS-UHFFFAOYSA-N

>  <FORMULA>  (4347) 
C5H5NO

>  <EXACT MASS>  (4347) 
95.03711378

>  <MW>  (4347) 
95

>  <ID>  (4347) 
JP005728

>  <CONTRIBUTOR>  (4347) 
University of Tokyo Team, {Faculty of Engineering, University of Tokyo

>  <COMMENT>  (4347) 
SMILES=[O-1][n+1](c1)cccc1
cas=694-59-7
InChI=InChI=1S/C5H5NO/c7-6-4-2-1-3-5-6/h1-5H
computed SMILES=O=N=1C=CC=CC1
accession=JP005728
date=2016.01.19 (Created 2008.10.21, modified 2011.05.06)
author=MASS SPECTROSCOPY SOC. OF JAPAN (MSSJ)
license=CC BY-NC-SA
exact mass=95.03711
ionization energy=70 eV
ion type=[M]+*
computed spectral entropy=2.6773035256681985
computed normalized entropy=0.7871649966870808
SPLASH=splash10-000j-9000000000-8e2277a8d54db2489c09
submitter=submitter = University of Tokyo Team (Faculty of Engineering, University of Tokyo)
MoNA Rating=3.75

>  <NUM PEAKS>  (4347) 
30

>  <MASS SPECTRAL PEAKS>  (4347) 
26 4.2
27 2.5
28 6.5
29 2.5
30 2.6
35 4.9
36 44.2
37 4.3
38 17.7
39 60.6
40 16.5
41 9.6
42 3.9
49 1.5
50 8.1
51 13.7
52 20.5
53 2.9
61 1
62 2.5
63 6.8
64 1.5
65 3.1
66 5.5
67 1.5
78 10.8
79 19.9
80 4
95 99.99
96 16.9

$$$$

     RDKit          2D

  4  3  0  0  0  0  0  0  0  0999 V2000
   -2.5981    2.2500    0.0000 C   0  0  0  0  0  0  0  0  0  0  0  0
    1.2990    1.5000    0.0000 C   0  0  0  0  0  0  0  0  0  0  0  0
   -1.2990    1.5000    0.0000 S   0  0  0  0  0  0  0  0  0  0  0  0
    0.0000    2.2500    0.0000 S   0  0  0  0  0  0  0  0  0  0  0  0
  3  1  1  0
  4  2  1  0
  4  3  1  0
M  END
>  <NAME>  (4348) 
METHYL DISULFIDE

>  <SYNONYMS>  (4348) 


>  <SPECTRUM TYPE>  (4348) 
MS1

>  <INSTRUMENT TYPE>  (4348) 
EI-B

>  <INSTRUMENT>  (4348) 
HITACHI M-80

>  <ION MODE>  (4348) 
P

>  <INCHIKEY>  (4348) 
WQOXQRCZOLPYPM-UHFFFAOYSA-N

>  <FORMULA>  (4348) 
C2H6S2

>  <EXACT MASS>  (4348) 
93.991092192

>  <MW>  (4348) 
94

>  <ID>  (4348) 
JP005727

>  <CONTRIBUTOR>  (4348) 
University of Tokyo Team, {Faculty of Engineering, University of Tokyo

>  <COMMENT>  (4348) 
SMILES=CSSC
cas=624-92-0
InChI=InChI=1S/C2H6S2/c1-3-4-2/h1-2H3
computed SMILES=S(SC)C
accession=JP005727
date=2016.01.19 (Created 2008.10.21, modified 2011.05.06)
author=MASS SPECTROSCOPY SOC. OF JAPAN (MSSJ)
license=CC BY-NC-SA
exact mass=93.99109
ionization energy=70 eV
ion type=[M]+*
computed spectral entropy=2.4728860413272806
computed normalized entropy=0.6955397892299001
SPLASH=splash10-0005-9000000000-41761824faab2335162b
submitter=submitter = University of Tokyo Team (Faculty of Engineering, University of Tokyo)
MoNA Rating=3.75

>  <NUM PEAKS>  (4348) 
35

>  <MASS SPECTRAL PEAKS>  (4348) 
15 25.13
16 0.4
17 0.27
18 1.1
27 0.91
28 6.46
32 8.21
33 2.33
34 0.94
35 0.8
44 7.87
45 99.99
46 45.09
47 32.55
48 13.05
49 4.05
50 0.57
61 16.48
62 0.57
63 0.68
64 16.28
65 0.8
66 1.53
76 0.92
77 0.64
78 3.18
79 56.53
80 2.27
81 5.23
93 0.97
94 95.76
95 4.41
96 8.6
97 0.31
98 0.22

$$$$

     RDKit          2D

  3  2  0  0  0  0  0  0  0  0999 V2000
   -1.2990    0.0000    0.0000 C   0  0  0  0  0  0  0  0  0  0  0  0
    0.0000    2.2500    0.0000 C   0  0  0  0  0  0  0  0  0  0  0  0
   -0.0000    0.7500    0.0000 S   0  0  0  0  0  0  0  0  0  0  0  0
  3  1  1  0
  3  2  1  0
M  END
>  <NAME>  (4349) 
METHYL SULFIDE

>  <SYNONYMS>  (4349) 


>  <SPECTRUM TYPE>  (4349) 
MS1

>  <INSTRUMENT TYPE>  (4349) 
EI-B

>  <INSTRUMENT>  (4349) 
HITACHI M-80

>  <ION MODE>  (4349) 
P

>  <INCHIKEY>  (4349) 
QMMFVYPAHWMCMS-UHFFFAOYSA-N

>  <FORMULA>  (4349) 
C2H6S

>  <EXACT MASS>  (4349) 
62.019021192

>  <MW>  (4349) 
62

>  <ID>  (4349) 
JP005726

>  <CONTRIBUTOR>  (4349) 
University of Tokyo Team, {Faculty of Engineering, University of Tokyo

>  <COMMENT>  (4349) 
SMILES=CSC
cas=75-18-3
InChI=InChI=1S/C2H6S/c1-3-2/h1-2H3
computed SMILES=S(C)C
accession=JP005726
date=2016.01.19 (Created 2008.10.21, modified 2011.05.06)
author=MASS SPECTROSCOPY SOC. OF JAPAN (MSSJ)
license=CC BY-NC-SA
exact mass=62.01902
ionization energy=70 eV
ion type=[M]+*
computed spectral entropy=2.4027809823237116
computed normalized entropy=0.6997058635470245
SPLASH=splash10-01ot-9000000000-aab0fb854ed08a99a142
submitter=submitter = University of Tokyo Team (Faculty of Engineering, University of Tokyo)
MoNA Rating=3.75

>  <NUM PEAKS>  (4349) 
31

>  <MASS SPECTRAL PEAKS>  (4349) 
15 27.29
16 0.47
17 0.26
18 0.87
26 1.09
27 18.64
28 6.59
29 0.86
32 4.63
33 1.97
34 1.67
35 27.29
36 0.28
37 1.18
44 8.76
45 75.79
46 46.28
47 99.99
48 4.04
49 4.42
54 0.43
56 0.63
57 2.9
58 3.66
59 3.26
60 0.46
61 29.67
62 83.11
63 6.48
64 3.88
65 0.21

$$$$

     RDKit          2D

 13 13  0  0  0  0  0  0  0  0999 V2000
    6.8181   -0.2006    0.0000 C   0  0  0  0  0  0  0  0  0  0  0  0
    2.9101    2.0469    0.0000 C   0  0  0  0  0  0  0  0  0  0  0  0
    1.5966   -0.1779    0.0000 C   0  0  0  0  0  0  0  0  0  0  0  0
    0.3158    2.0533    0.0000 C   0  0  0  0  0  0  0  0  0  0  0  0
    4.1946    1.3221    0.0000 C   0  0  0  0  0  0  0  0  0  0  0  0
    2.9211   -0.9721    0.0000 C   0  0  0  0  0  0  0  0  0  0  0  0
   -0.9870    1.3097    0.0000 C   0  0  0  0  0  0  0  0  0  0  0  0
    1.6111    1.2969    0.0000 C   0  0  0  0  0  0  0  0  0  0  0  0
    4.2201   -0.2221    0.0000 C   0  0  0  0  0  0  0  0  0  0  0  0
   -2.2823    2.0661    0.0000 C   0  0  0  0  0  0  0  0  0  0  0  0
   -2.2749    3.5661    0.0000 O   0  0  0  0  0  0  0  0  0  0  0  0
   -3.5850    1.3225    0.0000 O   0  0  0  0  0  0  0  0  0  0  0  0
    5.5253   -0.9613    0.0000 O   0  0  0  0  0  0  0  0  0  0  0  0
  5  2  2  0
  6  3  1  0
  4  7  2  0
  8  2  1  0
  8  3  2  0
  8  4  1  0
  9  5  1  0
  9  6  2  0
 10  7  1  0
 11 10  2  0
 12 10  1  0
 13  1  1  0
 13  9  1  0
M  END
>  <NAME>  (4350) 
4-METHOXYCINNAMIC ACID

>  <SYNONYMS>  (4350) 


>  <SPECTRUM TYPE>  (4350) 
MS1

>  <INSTRUMENT TYPE>  (4350) 
EI-B

>  <INSTRUMENT>  (4350) 
HITACHI M-80

>  <ION MODE>  (4350) 
P

>  <INCHIKEY>  (4350) 
AFDXODALSZRGIH-QPJJXVBHSA-N

>  <FORMULA>  (4350) 
C10H10O3

>  <EXACT MASS>  (4350) 
178.06299417999998

>  <MW>  (4350) 
178

>  <ID>  (4350) 
JP005725

>  <CONTRIBUTOR>  (4350) 
University of Tokyo Team, {Faculty of Engineering, University of Tokyo

>  <COMMENT>  (4350) 
cas=830-09-1
SMILES=COc(c1)ccc(C=CC(O)=O)c1
InChI=InChI=1S/C10H10O3/c1-13-9-5-2-8(3-6-9)4-7-10(11)12/h2-7H,1H3,(H,11,12)/b7-4+
computed SMILES=O=C(O)C=CC1=CC=C(OC)C=C1
accession=JP005725
date=2016.01.19 (Created 2008.10.21, modified 2011.05.06)
author=MASS SPECTROSCOPY SOC. OF JAPAN (MSSJ)
license=CC BY-NC-SA
exact mass=178.06299
ionization energy=70 eV
ion type=[M]+*
computed spectral entropy=3.4992220475380362
computed normalized entropy=0.8104763592902958
SPLASH=splash10-004i-7900000000-6075ede461ba4ee4c7cd
submitter=submitter = University of Tokyo Team (Faculty of Engineering, University of Tokyo)
MoNA Rating=3.75

>  <NUM PEAKS>  (4350) 
75

>  <MASS SPECTRAL PEAKS>  (4350) 
15 9.6
26 1.69
27 2.53
37 1.34
38 3.85
39 9.59
40 1.25
45 9.12
49 0.6
50 8.7
51 10.48
52 2.52
53 3.76
61 1.53
62 8.85
63 21.69
64 8.82
65 7.1
66 1.26
67 0.54
74 4.71
75 5.56
76 3.48
77 20.02
78 3.65
79 12.74
80 1.29
86 0.73
87 1.39
88 0.57
89 21.65
90 12.51
91 7.97
92 5.7
93 0.82
94 0.55
101 1.5
102 4.35
103 4.2
104 0.54
105 0.82
107 6.16
108 1.4
109 0.56
117 8.71
118 8.71
119 1.44
120 0.37
121 5.07
122 0.87
124 0.97
125 1.2
132 13.32
133 20.56
134 2.7
135 5.21
136 0.95
137 1.26
145 0.94
146 1.25
147 3.55
148 0.49
149 0.99
150 2.02
152 0.71
160 1.27
161 32.98
162 3.86
163 4.34
164 0.89
176 2.13
177 18.03
178 99.99
179 10.13
180 1.04

$$$$

     RDKit          2D

 10 10  0  0  0  0  0  0  0  0999 V2000
   -2.2915    1.3193    0.0000 C   0  0  0  0  0  0  0  0  0  0  0  0
    1.6056    2.0565    0.0000 C   0  0  0  0  0  0  0  0  0  0  0  0
    0.2920   -0.1684    0.0000 C   0  0  0  0  0  0  0  0  0  0  0  0
    2.8901    1.3316    0.0000 C   0  0  0  0  0  0  0  0  0  0  0  0
    1.6165   -0.9625    0.0000 C   0  0  0  0  0  0  0  0  0  0  0  0
   -0.9888    2.0629    0.0000 C   0  0  0  0  0  0  0  0  0  0  0  0
    0.3065    1.3065    0.0000 C   0  0  0  0  0  0  0  0  0  0  0  0
    2.9156   -0.2125    0.0000 C   0  0  0  0  0  0  0  0  0  0  0  0
   -0.9814    3.5628    0.0000 O   0  0  0  0  0  0  0  0  0  0  0  0
    4.2207   -0.9518    0.0000 O   0  0  0  0  0  0  0  0  0  0  0  0
  4  2  2  0
  5  3  1  0
  6  1  1  0
  7  2  1  0
  7  3  2  0
  7  6  1  0
  8  4  1  0
  8  5  2  0
  9  6  2  0
 10  8  1  0
M  END
>  <NAME>  (4351) 
4'-HYDROXYACETOPHENONE

>  <SYNONYMS>  (4351) 


>  <SPECTRUM TYPE>  (4351) 
MS1

>  <INSTRUMENT TYPE>  (4351) 
EI-B

>  <INSTRUMENT>  (4351) 
HITACHI M-80

>  <ION MODE>  (4351) 
P

>  <INCHIKEY>  (4351) 
TXFPEBPIARQUIG-UHFFFAOYSA-N

>  <FORMULA>  (4351) 
C8H8O2

>  <EXACT MASS>  (4351) 
136.052429496

>  <MW>  (4351) 
136

>  <ID>  (4351) 
JP005724

>  <CONTRIBUTOR>  (4351) 
University of Tokyo Team, {Faculty of Engineering, University of Tokyo

>  <COMMENT>  (4351) 
SMILES=CC(=O)c(c1)ccc(O)c1
cas=99-93-4
InChI=InChI=1S/C8H8O2/c1-6(9)7-2-4-8(10)5-3-7/h2-5,10H,1H3
computed SMILES=O=C(C1=CC=C(O)C=C1)C
accession=JP005724
date=2016.01.19 (Created 2008.10.21, modified 2011.05.06)
author=MASS SPECTROSCOPY SOC. OF JAPAN (MSSJ)
license=CC BY-NC-SA
exact mass=136.05243
ionization energy=70 eV
ion type=[M]+*
computed spectral entropy=2.2218258702013047
computed normalized entropy=0.5944414828247291
SPLASH=splash10-00di-4900000000-f41eb3843ff66e46c111
submitter=submitter = University of Tokyo Team (Faculty of Engineering, University of Tokyo)
MoNA Rating=3.75

>  <NUM PEAKS>  (4351) 
42

>  <MASS SPECTRAL PEAKS>  (4351) 
15 1.52
18 0.17
26 0.47
27 0.93
28 0.72
29 0.54
37 0.67
38 1.9
39 8.98
42 0.97
43 5.67
50 1.64
51 1.74
52 0.56
53 1.91
54 0.31
55 0.54
60 0.4
61 0.81
62 1.8
63 3.92
64 1.87
65 14.46
66 1.44
67 0.27
74 0.82
75 0.58
76 0.32
77 1.82
78 0.36
79 0.64
92 1.72
93 20.82
94 2.04
107 1.13
120 0.55
121 99.99
122 8.13
123 0.68
136 45.43
137 4.5
138 0.37

$$$$

     RDKit          2D

 10 10  0  0  0  0  0  0  0  0999 V2000
    2.2687   -3.1902    0.0000 C   0  0  0  0  0  0  0  0  0  0  0  0
   -1.6200   -0.9400    0.0000 C   0  0  0  0  0  0  0  0  0  0  0  0
   -0.3300   -1.6900    0.0000 C   0  0  0  0  0  0  0  0  0  0  0  0
   -1.6200    0.5600    0.0000 C   0  0  0  0  0  0  0  0  0  0  0  0
    0.9700    0.5600    0.0000 C   0  0  0  0  0  0  0  0  0  0  0  0
    2.2689   -1.6902    0.0000 C   0  0  0  0  0  0  0  0  0  0  0  0
    0.9700   -0.9400    0.0000 C   0  0  0  0  0  0  0  0  0  0  0  0
   -0.3300    1.3100    0.0000 C   0  0  0  0  0  0  0  0  0  0  0  0
    3.5681   -0.9404    0.0000 O   0  0  0  0  0  0  0  0  0  0  0  0
   -0.3325    2.8100    0.0000 O   0  0  0  0  0  0  0  0  0  0  0  0
  3  2  2  0
  4  2  1  0
  6  1  1  0
  7  3  1  0
  7  5  2  0
  7  6  1  0
  8  4  2  0
  8  5  1  0
  9  6  2  0
 10  8  1  0
M  END
>  <NAME>  (4352) 
3'-HYDROXYACETOPHENONE

>  <SYNONYMS>  (4352) 


>  <SPECTRUM TYPE>  (4352) 
MS1

>  <INSTRUMENT TYPE>  (4352) 
EI-B

>  <INSTRUMENT>  (4352) 
HITACHI M-80

>  <ION MODE>  (4352) 
P

>  <INCHIKEY>  (4352) 
LUJMEECXHPYQOF-UHFFFAOYSA-N

>  <FORMULA>  (4352) 
C8H8O2

>  <EXACT MASS>  (4352) 
136.052429496

>  <MW>  (4352) 
136

>  <ID>  (4352) 
JP005723

>  <CONTRIBUTOR>  (4352) 
University of Tokyo Team, {Faculty of Engineering, University of Tokyo

>  <COMMENT>  (4352) 
SMILES=CC(=O)c(c1)cc(O)cc1
cas=121-71-1
InChI=InChI=1S/C8H8O2/c1-6(9)7-3-2-4-8(10)5-7/h2-5,10H,1H3
computed SMILES=O=C(C=1C=CC=C(O)C1)C
accession=JP005723
date=2016.01.19 (Created 2008.10.21, modified 2011.05.06)
author=MASS SPECTROSCOPY SOC. OF JAPAN (MSSJ)
license=CC BY-NC-SA
exact mass=136.05243
ionization energy=70 eV
ion type=[M]+*
computed spectral entropy=2.2224067886965524
computed normalized entropy=0.6109564670390429
SPLASH=splash10-00dr-5900000000-a9b3335e6ee8587c87ef
submitter=submitter = University of Tokyo Team (Faculty of Engineering, University of Tokyo)
MoNA Rating=3.75

>  <NUM PEAKS>  (4352) 
38

>  <MASS SPECTRAL PEAKS>  (4352) 
15 1.62
26 0.46
27 1.01
37 0.73
38 2.34
39 9.95
40 0.62
42 1.09
43 10.75
44 0.39
50 1.65
51 1.77
52 0.59
53 2.03
55 0.35
60 0.61
61 0.86
62 1.89
63 4.71
64 2.58
65 18.01
66 2.17
74 0.77
75 0.67
76 0.44
77 1.87
78 0.5
79 0.54
92 1.63
93 37.67
94 4.18
121 99.99
122 7.99
123 0.68
135 0.2
136 71.64
137 7.01
138 0.59

$$$$

     RDKit          2D

 10 10  0  0  0  0  0  0  0  0999 V2000
    1.9487    3.0002    0.0000 C   0  0  0  0  0  0  0  0  0  0  0  0
   -1.9500    0.7500    0.0000 C   0  0  0  0  0  0  0  0  0  0  0  0
   -1.9500   -0.7500    0.0000 C   0  0  0  0  0  0  0  0  0  0  0  0
   -0.6500    1.5000    0.0000 C   0  0  0  0  0  0  0  0  0  0  0  0
   -0.6500   -1.5000    0.0000 C   0  0  0  0  0  0  0  0  0  0  0  0
    1.9489    1.5002    0.0000 C   0  0  0  0  0  0  0  0  0  0  0  0
    0.6500    0.7500    0.0000 C   0  0  0  0  0  0  0  0  0  0  0  0
    0.6500   -0.7500    0.0000 C   0  0  0  0  0  0  0  0  0  0  0  0
    3.2481    0.7504    0.0000 O   0  0  0  0  0  0  0  0  0  0  0  0
    1.9489   -1.5002    0.0000 O   0  0  0  0  0  0  0  0  0  0  0  0
  3  2  2  0
  4  2  1  0
  5  3  1  0
  6  1  1  0
  7  4  2  0
  7  6  1  0
  8  5  2  0
  8  7  1  0
  9  6  2  0
 10  8  1  0
M  END
>  <NAME>  (4353) 
2-HYDROXYACETOPHENONE

>  <SYNONYMS>  (4353) 


>  <SPECTRUM TYPE>  (4353) 
MS1

>  <INSTRUMENT TYPE>  (4353) 
EI-B

>  <INSTRUMENT>  (4353) 
HITACHI M-80

>  <ION MODE>  (4353) 
P

>  <INCHIKEY>  (4353) 
JECYUBVRTQDVAT-UHFFFAOYSA-N

>  <FORMULA>  (4353) 
C8H8O2

>  <EXACT MASS>  (4353) 
136.052429496

>  <MW>  (4353) 
136

>  <ID>  (4353) 
JP005722

>  <CONTRIBUTOR>  (4353) 
University of Tokyo Team, {Faculty of Engineering, University of Tokyo

>  <COMMENT>  (4353) 
SMILES=CC(=O)c(c1)c(O)ccc1
cas=118-93-4
InChI=InChI=1S/C8H8O2/c1-6(9)7-4-2-3-5-8(7)10/h2-5,10H,1H3
computed SMILES=O=C(C=1C=CC=CC1O)C
accession=JP005722
date=2016.01.19 (Created 2008.10.21, modified 2011.05.06)
author=MASS SPECTROSCOPY SOC. OF JAPAN (MSSJ)
license=CC BY-NC-SA
exact mass=136.05243
ionization energy=70 eV
ion type=[M]+*
computed spectral entropy=2.376162224150777
computed normalized entropy=0.620628044801935
SPLASH=splash10-00dr-5900000000-ea1d13b06231dbf578d1
submitter=submitter = University of Tokyo Team (Faculty of Engineering, University of Tokyo)
MoNA Rating=3.75

>  <NUM PEAKS>  (4353) 
46

>  <MASS SPECTRAL PEAKS>  (4353) 
15 1.46
18 0.44
26 0.43
27 1.08
28 5.32
29 0.73
37 0.82
38 2.23
39 10.28
40 0.56
42 0.88
43 10.31
44 0.21
50 1.95
51 2.48
52 0.85
53 2.91
54 0.61
55 0.66
60 0.68
61 0.82
62 1.75
63 4.51
64 2.36
65 17.75
66 2.07
67 0.32
68 0.45
74 0.8
75 0.65
76 0.43
77 2.57
78 0.65
79 0.9
89 1.07
90 1.22
91 0.36
92 1.57
93 16.48
94 2.27
121 99.99
122 8.04
123 0.63
136 60.22
137 5.61
138 0.48

$$$$

     RDKit          2D

 21 24  0  0  1  0  0  0  0  0999 V2000
   -1.6300    0.9100    0.0000 C   0  0  0  0  0  0  0  0  0  0  0  0
    2.4272    3.1517    0.0000 C   0  0  0  0  0  0  0  0  0  0  0  0
   -0.3300   -2.8400    0.0000 C   0  0  0  0  0  0  0  0  0  0  0  0
    0.9700   -2.0900    0.0000 C   0  0  0  0  0  0  0  0  0  0  0  0
    3.6900   -0.3000    0.0000 C   0  0  0  0  0  0  0  0  0  0  0  0
    4.5700    0.9100    0.0000 C   0  0  0  0  0  0  0  0  0  0  0  0
   -4.2300   -0.5900    0.0000 C   0  0  0  0  0  0  0  0  0  0  0  0
   -0.3300    1.6600    0.0000 C   0  0  0  0  0  0  0  0  0  0  0  0
   -2.9300    0.1600    0.0000 C   0  0  0  0  0  0  0  0  0  0  0  0
    0.9700    2.4100    0.0000 C   0  0  0  0  0  0  0  0  0  0  0  0
   -2.9300   -2.8400    0.0000 C   0  0  0  0  0  0  0  0  0  0  0  0
   -1.6300   -2.0900    0.0000 C   0  0  0  0  0  0  0  0  0  0  0  0
   -4.2300   -2.0900    0.0000 C   0  0  0  0  0  0  0  0  0  0  0  0
    0.9700   -0.5900    0.0000 C   0  0  0  0  0  0  0  0  0  0  0  0
    2.2700    0.1600    0.0000 C   0  0  0  0  0  0  0  0  0  0  0  0
   -0.3300    0.1600    0.0000 C   0  0  0  0  0  0  0  0  0  0  0  0
    3.6900    2.1200    0.0000 C   0  0  0  0  0  0  0  0  0  0  0  0
   -1.6300   -0.5900    0.0000 C   0  0  0  0  0  0  0  0  0  0  0  0
    2.2700    1.6600    0.0000 C   0  0  0  0  0  0  0  0  0  0  0  0
   -5.5289   -2.8402    0.0000 O   0  0  0  0  0  0  0  0  0  0  0  0
    4.1538    3.5465    0.0000 O   0  0  0  0  0  0  0  0  0  0  0  0
  4  3  1  0
  6  5  1  0
  9  7  1  0
 10  8  1  0
 12  3  1  0
 12 11  2  0
 13  7  1  0
 13 11  1  0
 14  4  1  6
 15  5  1  1
 15 14  1  0
 16  8  1  1
 16 14  1  0
 17  6  1  0
 18  1  1  1
 18  9  1  0
 18 12  1  0
 18 16  1  0
 19  2  1  1
 19 10  1  0
 19 15  1  0
 19 17  1  0
 20 13  2  0
 21 17  2  0
M  END
>  <NAME>  (4354) 
4-ANDROSTENE-3,17-DIONE

>  <SYNONYMS>  (4354) 


>  <SPECTRUM TYPE>  (4354) 
MS1

>  <INSTRUMENT TYPE>  (4354) 
EI-B

>  <INSTRUMENT>  (4354) 
HITACHI M-80

>  <ION MODE>  (4354) 
P

>  <INCHIKEY>  (4354) 
AEMFNILZOJDQLW-QAGGRKNESA-N

>  <FORMULA>  (4354) 
C19H26O2

>  <EXACT MASS>  (4354) 
286.193280072

>  <MW>  (4354) 
286

>  <ID>  (4354) 
JP005721

>  <CONTRIBUTOR>  (4354) 
University of Tokyo Team, {Faculty of Engineering, University of Tokyo

>  <COMMENT>  (4354) 
SMILES=O=C(C4)C=C(C3)C(C)(C4)C([H])(C2)C([H])(C3)C([H])(C1)C(C)(C2)C(=O)C1
InChI=InChI=1S/C19H26O2/c1-18-9-7-13(20)11-12(18)3-4-14-15-5-6-17(21)19(15,2)10-8-16(14)18/h11,14-16H,3-10H2,1-2H3/t14-,15-,16-,18-,19-/m0/s1
computed SMILES=O=C1C=C2CCC3C4CCC(=O)C4(C)CCC3C2(C)CC1
accession=JP005721
date=2016.01.19 (Created 2008.10.21, modified 2011.05.06)
author=MASS SPECTROSCOPY SOC. OF JAPAN (MSSJ)
license=CC BY-NC-SA
exact mass=286.19328
ionization energy=70 eV
ion type=[M]+*
computed spectral entropy=4.4933571804067425
computed normalized entropy=0.8779528356414611
SPLASH=splash10-000f-8940000000-f2892fe3b281d44164c8
submitter=submitter = University of Tokyo Team (Faculty of Engineering, University of Tokyo)
MoNA Rating=3.75

>  <NUM PEAKS>  (4354) 
167

>  <MASS SPECTRAL PEAKS>  (4354) 
15 1.23
17 0.62
26 0.83
27 15.43
28 9.67
29 15.91
32 1.1
39 21.94
40 4.94
41 46.97
42 6.03
43 7.13
44 1.44
50 1.1
51 5.83
52 4.73
53 23.25
54 4.25
55 34.22
56 3.22
57 2.4
63 2.13
64 1.3
65 12.27
66 6.51
67 29.97
68 5.76
69 4.8
70 0.55
71 1.37
76 0.75
77 29.14
78 9.74
79 46.04
80 8.57
81 20.17
82 3.29
83 3.22
85 0.75
86 3.09
87 2.2
89 1.23
90 0.82
91 47
92 8.58
93 26.07
94 10.15
95 12.83
96 5.01
97 25.04
98 21.13
101 1.1
102 0.89
103 4.39
104 3.57
105 27.3
106 10.22
107 35.12
108 10.63
109 27.1
110 7.48
111 4.73
115 7.48
116 2.95
117 10.56
118 4.39
119 18.18
120 8.51
121 13.79
122 15.44
123 19.14
124 59.61
125 6.99
127 1.51
128 5.28
129 6.65
130 2.81
131 10.7
132 4.32
133 10.91
134 9.74
135 9.74
136 7.82
137 6.65
138 1.92
141 2.95
142 1.99
143 4.94
144 7.48
145 14.27
146 8.58
147 11.46
148 31.35
149 15.64
150 18.45
151 3.09
155 2.13
156 1.44
157 3.64
158 2.61
159 7.27
160 4.18
161 4.94
162 10.56
163 12.9
164 4.53
165 1.3
169 1.65
170 2.47
171 3.09
172 2.4
173 9.12
174 5.9
175 3.36
176 1.65
177 1.51
178 1.03
183 3.09
184 1.51
185 2.88
186 3.84
187 8.92
188 7.07
189 2.61
190 2.4
197 3.22
198 1.37
199 1.92
200 6.11
201 20.03
202 6.93
204 1.65
211 3.09
212 3.09
213 2.4
214 1.65
215 4.94
216 5.49
217 1.17
224 0.82
225 1.85
226 2.13
227 3.09
228 1.1
229 7.13
230 5.83
231 1.23
240 1.17
241 0.55
242 10.15
243 6.65
244 60
245 11.04
246 1.17
253 2.13
254 0.41
257 1.3
258 7.2
259 1.37
268 3.64
269 1.51
271 6.24
272 1.3
285 0.62
286 99.99
287 21.81
288 2.74

$$$$

     RDKit          2D

 17 18  0  0  0  0  0  0  0  0999 V2000
   -7.1453    3.6965    0.0000 C   0  0  0  0  0  0  0  0  0  0  0  0
   -7.1458    2.1957    0.0000 C   0  0  0  0  0  0  0  0  0  0  0  0
   -5.8458    4.4473    0.0000 C   0  0  0  0  0  0  0  0  0  0  0  0
    3.2489    2.1961    0.0000 C   0  0  0  0  0  0  0  0  0  0  0  0
    3.2491    3.6961    0.0000 C   0  0  0  0  0  0  0  0  0  0  0  0
   -5.8468    1.4457    0.0000 C   0  0  0  0  0  0  0  0  0  0  0  0
   -4.5468    3.6973    0.0000 C   0  0  0  0  0  0  0  0  0  0  0  0
    1.9488    1.4463    0.0000 C   0  0  0  0  0  0  0  0  0  0  0  0
    1.9492    4.4463    0.0000 C   0  0  0  0  0  0  0  0  0  0  0  0
   -3.2482    1.4465    0.0000 C   0  0  0  0  0  0  0  0  0  0  0  0
   -4.5473    2.1965    0.0000 C   0  0  0  0  0  0  0  0  0  0  0  0
    0.6489    2.1965    0.0000 C   0  0  0  0  0  0  0  0  0  0  0  0
    0.6491    3.6965    0.0000 C   0  0  0  0  0  0  0  0  0  0  0  0
   -0.6502    1.4465    0.0000 C   0  0  0  0  0  0  0  0  0  0  0  0
   -0.6497    4.4469    0.0000 O   0  0  0  0  0  0  0  0  0  0  0  0
   -0.6502   -0.0535    0.0000 O   0  0  0  0  0  0  0  0  0  0  0  0
   -1.9492    2.1965    0.0000 O   0  0  0  0  0  0  0  0  0  0  0  0
  2  1  2  0
  3  1  1  0
  5  4  2  0
  6  2  1  0
  7  3  2  0
  8  4  1  0
  9  5  1  0
 11  6  2  0
 11  7  1  0
 11 10  1  0
 12  8  2  0
 13  9  2  0
 13 12  1  0
 14 12  1  0
 15 13  1  0
 16 14  2  0
 17 10  1  0
 17 14  1  0
M  END
>  <NAME>  (4355) 
BENZYL SALICYLATE

>  <SYNONYMS>  (4355) 


>  <SPECTRUM TYPE>  (4355) 
MS1

>  <INSTRUMENT TYPE>  (4355) 
EI-B

>  <INSTRUMENT>  (4355) 
HITACHI M-80

>  <ION MODE>  (4355) 
P

>  <INCHIKEY>  (4355) 
ZCTQGTTXIYCGGC-UHFFFAOYSA-N

>  <FORMULA>  (4355) 
C14H12O3

>  <EXACT MASS>  (4355) 
228.078644244

>  <MW>  (4355) 
228

>  <ID>  (4355) 
JP005720

>  <CONTRIBUTOR>  (4355) 
University of Tokyo Team, {Faculty of Engineering, University of Tokyo

>  <COMMENT>  (4355) 
SMILES=Oc(c2)c(ccc2)C(=O)OCc(c1)cccc1
InChI=InChI=1S/C14H12O3/c15-13-9-5-4-8-12(13)14(16)17-10-11-6-2-1-3-7-11/h1-9,15H,10H2
computed SMILES=O=C(OCC=1C=CC=CC1)C=2C=CC=CC2O
accession=JP005720
date=2016.01.19 (Created 2008.10.21, modified 2011.05.06)
author=MASS SPECTROSCOPY SOC. OF JAPAN (MSSJ)
license=CC BY-NC-SA
exact mass=228.07864
ionization energy=70 eV
ion type=[M]+*
computed spectral entropy=2.8818731270254525
computed normalized entropy=0.7258592541239901
SPLASH=splash10-002f-9020000000-f8a29c2088c5bdab3e78
submitter=submitter = University of Tokyo Team (Faculty of Engineering, University of Tokyo)
MoNA Rating=3.75

>  <NUM PEAKS>  (4355) 
53

>  <MASS SPECTRAL PEAKS>  (4355) 
17 0.77
18 3.84
26 0.94
27 3.66
28 2.5
29 1.62
37 1.35
38 6.34
39 39.75
40 2.13
41 4.86
50 6.06
51 13.28
52 4.02
53 5.26
54 0.38
55 0.85
61 1.16
62 4.69
63 18.42
64 10.15
65 63.81
66 4.24
67 0.4
74 1.54
75 1.65
76 1.83
77 10.63
78 2.54
79 6.25
80 0.67
81 3.42
89 8.65
90 4.93
91 99.99
92 44.97
93 8.03
94 1.45
105 1.88
106 0.31
107 3.69
108 1.89
109 1.1
120 6.35
121 14.94
122 1.18
181 1.03
182 0.23
210 0.78
211 0.54
228 99.99
229 16.48
230 1.88

$$$$

     RDKit          2D

 11 11  0  0  0  0  0  0  0  0999 V2000
    3.8981    0.7504    0.0000 C   0  0  0  0  0  0  0  0  0  0  0  0
   -1.3000    0.7500    0.0000 C   0  0  0  0  0  0  0  0  0  0  0  0
   -0.0000   -1.5000    0.0000 C   0  0  0  0  0  0  0  0  0  0  0  0
    0.0000    1.5000    0.0000 C   0  0  0  0  0  0  0  0  0  0  0  0
    1.3000   -0.7500    0.0000 C   0  0  0  0  0  0  0  0  0  0  0  0
   -1.3000   -0.7500    0.0000 C   0  0  0  0  0  0  0  0  0  0  0  0
    1.3000    0.7500    0.0000 C   0  0  0  0  0  0  0  0  0  0  0  0
   -2.5989   -1.5002    0.0000 N   0  0  0  0  0  0  0  0  0  0  0  0
   -3.8981   -0.7504    0.0000 O   0  0  0  0  0  0  0  0  0  0  0  0
   -2.5987   -3.0002    0.0000 O   0  0  0  0  0  0  0  0  0  0  0  0
    2.5989    1.5002    0.0000 O   0  0  0  0  0  0  0  0  0  0  0  0
  4  2  2  0
  5  3  1  0
  6  2  1  0
  6  3  2  0
  7  4  1  0
  7  5  2  0
  8  6  1  0
  9  8  1  0
 10  8  2  0
 11  1  1  0
 11  7  1  0
M  CHG  2   8   1   9  -1
M  END
>  <NAME>  (4356) 
4-NITROANISOL

>  <SYNONYMS>  (4356) 


>  <SPECTRUM TYPE>  (4356) 
MS1

>  <INSTRUMENT TYPE>  (4356) 
EI-B

>  <INSTRUMENT>  (4356) 
HITACHI M-80

>  <ION MODE>  (4356) 
P

>  <INCHIKEY>  (4356) 
BNUHAJGCKIQFGE-UHFFFAOYSA-N

>  <FORMULA>  (4356) 
C7H7NO3

>  <EXACT MASS>  (4356) 
153.04259308399998

>  <MW>  (4356) 
153

>  <ID>  (4356) 
JP005719

>  <CONTRIBUTOR>  (4356) 
University of Tokyo Team, {Faculty of Engineering, University of Tokyo

>  <COMMENT>  (4356) 
SMILES=COc(c1)ccc(c1)[N+1]([O-1])=O
cas=100-17-4
InChI=InChI=1S/C7H7NO3/c1-11-7-4-2-6(3-5-7)8(9)10/h2-5H,1H3
computed SMILES=O=N(=O)C1=CC=C(OC)C=C1
accession=JP005719
date=2016.01.19 (Created 2008.10.21, modified 2011.05.06)
author=MASS SPECTROSCOPY SOC. OF JAPAN (MSSJ)
license=CC BY-NC-SA
exact mass=153.04259
ionization energy=70 eV
ion type=[M]+*
computed spectral entropy=3.1412470944125537
computed normalized entropy=0.7525049525390795
SPLASH=splash10-0uk9-9500000000-6b25b134776afb7969fc
submitter=submitter = University of Tokyo Team (Faculty of Engineering, University of Tokyo)
MoNA Rating=3.75

>  <NUM PEAKS>  (4356) 
65

>  <MASS SPECTRAL PEAKS>  (4356) 
15 2.51
16 1.13
17 4.71
18 21.27
37 2.07
38 7.67
39 3.8
40 0.79
41 6.69
42 0.68
43 4.55
44 1.39
46 2.39
49 0.79
50 12.43
51 7.64
52 5.1
53 3.57
54 1.59
55 0.96
56 0.35
57 0.82
58 1.49
61 2.27
62 6.03
63 24
64 27.09
65 4.17
66 1.23
67 1.1
68 0.35
69 3.86
70 0.31
71 0.48
73 1.07
74 5.94
75 5.05
76 6.02
77 46.07
78 4.55
79 2.6
80 5.79
81 0.72
82 0.61
91 0.68
92 50.61
93 3.46
94 0.44
95 16.36
96 1.21
97 0.46
106 0.95
107 10.94
108 10.28
109 0.9
119 0.92
122 0.82
123 60.72
124 4.94
125 0.55
137 7.01
138 0.6
153 99.99
154 8.51
155 1.02

$$$$

     RDKit          2D

  9  9  0  0  0  0  0  0  0  0999 V2000
   -2.5989   -0.7504    0.0000 C   0  0  0  0  0  0  0  0  0  0  0  0
    2.5992   -0.7500    0.0000 C   0  0  0  0  0  0  0  0  0  0  0  0
    1.2992    1.5000    0.0000 C   0  0  0  0  0  0  0  0  0  0  0  0
    1.2992   -1.5000    0.0000 C   0  0  0  0  0  0  0  0  0  0  0  0
   -0.0008    0.7500    0.0000 C   0  0  0  0  0  0  0  0  0  0  0  0
    2.5992    0.7500    0.0000 C   0  0  0  0  0  0  0  0  0  0  0  0
   -0.0008   -0.7500    0.0000 C   0  0  0  0  0  0  0  0  0  0  0  0
    3.8981    1.5002    0.0000 N   0  0  0  0  0  0  0  0  0  0  0  0
   -1.2998   -1.5002    0.0000 O   0  0  0  0  0  0  0  0  0  0  0  0
  4  2  2  0
  5  3  1  0
  6  2  1  0
  6  3  2  0
  7  4  1  0
  7  5  2  0
  8  6  1  0
  9  1  1  0
  9  7  1  0
M  END
>  <NAME>  (4357) 
P-ANISIDINE

>  <SYNONYMS>  (4357) 
4-METHOXYANILINE

>  <SPECTRUM TYPE>  (4357) 
MS1

>  <INSTRUMENT TYPE>  (4357) 
EI-B

>  <INSTRUMENT>  (4357) 
HITACHI M-80

>  <ION MODE>  (4357) 
P

>  <INCHIKEY>  (4357) 
BHAAPTBBJKJZER-UHFFFAOYSA-N

>  <FORMULA>  (4357) 
C7H9NO

>  <EXACT MASS>  (4357) 
123.068413908

>  <MW>  (4357) 
123

>  <ID>  (4357) 
JP005718

>  <CONTRIBUTOR>  (4357) 
University of Tokyo Team, {Faculty of Engineering, University of Tokyo

>  <COMMENT>  (4357) 
SMILES=COc(c1)ccc(N)c1
cas=104-94-9
InChI=InChI=1S/C7H9NO/c1-9-7-4-2-6(8)3-5-7/h2-5H,8H2,1H3
computed SMILES=O(C1=CC=C(N)C=C1)C
accession=JP005718
date=2016.01.19 (Created 2008.10.21, modified 2011.05.06)
author=MASS SPECTROSCOPY SOC. OF JAPAN (MSSJ)
license=CC BY-NC-SA
exact mass=123.06841
ionization energy=70 eV
ion type=[M]+*
computed spectral entropy=2.585024495560854
computed normalized entropy=0.6421859986819565
SPLASH=splash10-0ab9-6900000000-7b56ba31080ccebf1c7c
submitter=submitter = University of Tokyo Team (Faculty of Engineering, University of Tokyo)
MoNA Rating=3.75

>  <NUM PEAKS>  (4357) 
56

>  <MASS SPECTRAL PEAKS>  (4357) 
15 2.51
16 0.98
17 2.8
18 13.27
38 1.73
39 5.08
40 0.89
41 3.33
42 0.99
43 7.16
44 1.24
50 1.69
51 3.35
52 9.42
53 11.93
54 3.45
55 1
61 2
62 1.66
63 3.09
64 1.61
65 5.86
66 1.33
67 0.66
68 0.3
69 5.56
71 0.51
73 1.63
74 0.51
75 0.38
76 0.44
77 0.93
78 1.33
79 1.89
80 37.26
81 2.72
82 0.35
90 0.43
91 0.94
92 2.09
93 0.67
94 0.49
95 2.19
96 0.35
107 0.68
108 99.99
109 8.29
110 0.51
111 0.28
119 1.33
120 0.48
121 0.28
122 2.64
123 89.31
124 7.74
125 0.58

$$$$

     RDKit          2D

 14 15  0  0  0  0  0  0  0  0999 V2000
   -2.7900    0.7400    0.0000 C   0  0  0  0  0  0  0  0  0  0  0  0
   -2.7900   -0.7300    0.0000 C   0  0  0  0  0  0  0  0  0  0  0  0
   -1.4800    1.4800    0.0000 C   0  0  0  0  0  0  0  0  0  0  0  0
   -1.4800   -1.5000    0.0000 C   0  0  0  0  0  0  0  0  0  0  0  0
    2.3700    0.7400    0.0000 C   0  0  0  0  0  0  0  0  0  0  0  0
    2.3700   -0.7300    0.0000 C   0  0  0  0  0  0  0  0  0  0  0  0
   -0.2400    0.7400    0.0000 C   0  0  0  0  0  0  0  0  0  0  0  0
   -0.2400   -0.7300    0.0000 C   0  0  0  0  0  0  0  0  0  0  0  0
    1.0700    1.4800    0.0000 C   0  0  0  0  0  0  0  0  0  0  0  0
    1.0700   -1.5000    0.0000 N   0  0  0  0  0  0  0  0  0  0  0  0
    1.0725    2.9800    0.0000 N   0  0  0  0  0  0  0  0  0  0  0  0
    1.0725   -3.0000    0.0000 O   0  0  0  0  0  0  0  0  0  0  0  0
    2.3727    3.7279    0.0000 O   0  0  0  0  0  0  0  0  0  0  0  0
   -0.2253    3.7321    0.0000 O   0  0  0  0  0  0  0  0  0  0  0  0
  2  1  2  0
  3  1  1  0
  4  2  1  0
  6  5  1  0
  7  3  2  0
  8  4  2  0
  8  7  1  0
  9  5  2  0
  9  7  1  0
 10  6  2  0
 10  8  1  0
 11  9  1  0
 12 10  1  0
 13 11  1  0
 14 11  2  0
M  CHG  4  10   1  11   1  12  -1  13  -1
M  END
>  <NAME>  (4358) 
4-NITROQUINOLINE-N-OXIDE

>  <SYNONYMS>  (4358) 


>  <SPECTRUM TYPE>  (4358) 
MS1

>  <INSTRUMENT TYPE>  (4358) 
EI-B

>  <INSTRUMENT>  (4358) 
HITACHI M-80

>  <ION MODE>  (4358) 
P

>  <INCHIKEY>  (4358) 
YHQDZJICGQWFHK-UHFFFAOYSA-N

>  <FORMULA>  (4358) 
C9H6N2O3

>  <EXACT MASS>  (4358) 
190.03784205199997

>  <MW>  (4358) 
190

>  <ID>  (4358) 
JP005717

>  <CONTRIBUTOR>  (4358) 
University of Tokyo Team, {Faculty of Engineering, University of Tokyo

>  <COMMENT>  (4358) 
SMILES=[O-1][N+1](=O)c(c1)c(c2)c(ccc2)[n+1]([O-1])c1
cas=56-57-5
InChI=InChI=1S/C9H6N2O3/c12-10-6-5-9(11(13)14)7-3-1-2-4-8(7)10/h1-6H
computed SMILES=O=N(=O)C1=CC=N(=O)C=2C=CC=CC12
accession=JP005717
date=2016.01.19 (Created 2008.10.21, modified 2011.05.06)
author=MASS SPECTROSCOPY SOC. OF JAPAN (MSSJ)
license=CC BY-NC-SA
exact mass=190.03784
ionization energy=70 eV
ion type=[M]+*
computed spectral entropy=3.0817598218719207
computed normalized entropy=0.7837987005890181
SPLASH=splash10-01ox-4900000000-03a2fd7fa185cbfa42a1
submitter=submitter = University of Tokyo Team (Faculty of Engineering, University of Tokyo)
MoNA Rating=3.75

>  <NUM PEAKS>  (4358) 
51

>  <MASS SPECTRAL PEAKS>  (4358) 
28 0.84
30 7.44
38 1.36
39 3.24
50 4.03
51 5.27
52 1.3
53 2.07
61 1.53
62 6.19
63 8.91
64 2.44
65 1.19
74 6.25
75 8.69
76 5.55
77 11.57
78 1.91
85 0.83
86 2.59
87 3.75
88 10.26
89 25.03
90 5.13
98 1.22
99 1.41
100 2.38
101 6.61
102 2.77
103 0.9
104 8.12
105 2.49
113 6.99
114 20.18
115 4.1
116 16.07
117 2.26
127 2.77
128 4.23
132 8.05
133 0.94
134 1.67
143 0.44
144 2.13
160 46.24
161 4.89
174 3.15
175 0.43
190 99.99
191 11.52
192 1.28

$$$$

     RDKit          2D

 11 11  0  0  0  0  0  0  0  0999 V2000
   -1.3000   -0.7500    0.0000 C   0  0  0  0  0  0  0  0  0  0  0  0
    0.0000    1.5000    0.0000 C   0  0  0  0  0  0  0  0  0  0  0  0
    0.0000   -1.5000    0.0000 C   0  0  0  0  0  0  0  0  0  0  0  0
    1.3000    0.7500    0.0000 C   0  0  0  0  0  0  0  0  0  0  0  0
   -2.5989    1.5002    0.0000 C   0  0  0  0  0  0  0  0  0  0  0  0
   -1.3000    0.7500    0.0000 C   0  0  0  0  0  0  0  0  0  0  0  0
    1.3000   -0.7500    0.0000 C   0  0  0  0  0  0  0  0  0  0  0  0
   -3.8978    2.2504    0.0000 N   0  0  0  0  0  0  0  0  0  0  0  0
    2.5989   -1.5002    0.0000 N   0  0  0  0  0  0  0  0  0  0  0  0
    3.8981   -0.7504    0.0000 O   0  0  0  0  0  0  0  0  0  0  0  0
    2.5987   -3.0002    0.0000 O   0  0  0  0  0  0  0  0  0  0  0  0
  3  1  2  0
  4  2  1  0
  6  1  1  0
  6  2  2  0
  6  5  1  0
  7  3  1  0
  7  4  2  0
  8  5  3  0
  9  7  1  0
 10  9  1  0
 11  9  2  0
M  CHG  2   9   1  10  -1
M  END
>  <NAME>  (4359) 
4-NITROBENZONITRILE

>  <SYNONYMS>  (4359) 


>  <SPECTRUM TYPE>  (4359) 
MS1

>  <INSTRUMENT TYPE>  (4359) 
EI-B

>  <INSTRUMENT>  (4359) 
HITACHI M-80

>  <ION MODE>  (4359) 
P

>  <INCHIKEY>  (4359) 
NKJIFDNZPGLLSH-UHFFFAOYSA-N

>  <FORMULA>  (4359) 
C7H4N2O2

>  <EXACT MASS>  (4359) 
148.027277368

>  <MW>  (4359) 
148

>  <ID>  (4359) 
JP005716

>  <CONTRIBUTOR>  (4359) 
University of Tokyo Team, {Faculty of Engineering, University of Tokyo

>  <COMMENT>  (4359) 
SMILES=N#Cc(c1)ccc(c1)[N+1]([O-1])=O
cas=619-72-7
InChI=InChI=1S/C7H4N2O2/c8-5-6-1-3-7(4-2-6)9(10)11/h1-4H
computed SMILES=N#CC1=CC=C(C=C1)N(=O)=O
accession=JP005716
date=2016.01.19 (Created 2008.10.21, modified 2011.05.06)
author=MASS SPECTROSCOPY SOC. OF JAPAN (MSSJ)
license=CC BY-NC-SA
exact mass=148.02728
ionization energy=70 eV
ion type=[M]+*
computed spectral entropy=2.8015473212527944
computed normalized entropy=0.7448546301919358
SPLASH=splash10-0udi-9600000000-b42a04a0ac1bf67f754d
submitter=submitter = University of Tokyo Team (Faculty of Engineering, University of Tokyo)
MoNA Rating=3.75

>  <NUM PEAKS>  (4359) 
43

>  <MASS SPECTRAL PEAKS>  (4359) 
18 3.73
26 1.14
27 3.5
28 2.6
30 51.72
37 4.71
38 4.32
39 4.96
46 4.06
49 3.23
50 21.28
51 23.89
52 5.58
61 2.49
62 3.79
63 7.19
64 5.83
65 0.71
73 2.48
74 8.64
75 38.79
76 21.83
77 1.58
86 0.57
87 0.81
88 0.82
89 1.06
90 29.13
91 2.31
99 2.99
100 2.06
101 1.58
102 99.99
103 8.53
104 0.47
105 0.89
118 9.89
119 0.92
132 2.38
148 69.1
149 6.48
150 0.99
151 0.34

$$$$

     RDKit          2D

 11 11  0  0  0  0  0  0  0  0999 V2000
   -1.3000   -0.7500    0.0000 C   0  0  0  0  0  0  0  0  0  0  0  0
    0.0000    1.5000    0.0000 C   0  0  0  0  0  0  0  0  0  0  0  0
    0.0000   -1.5000    0.0000 C   0  0  0  0  0  0  0  0  0  0  0  0
    1.3000    0.7500    0.0000 C   0  0  0  0  0  0  0  0  0  0  0  0
   -2.5989    1.5002    0.0000 C   0  0  0  0  0  0  0  0  0  0  0  0
   -1.3000    0.7500    0.0000 C   0  0  0  0  0  0  0  0  0  0  0  0
    1.3000   -0.7500    0.0000 C   0  0  0  0  0  0  0  0  0  0  0  0
    2.5989   -1.5002    0.0000 N   0  0  0  0  0  0  0  0  0  0  0  0
   -3.8981    0.7504    0.0000 O   0  0  0  0  0  0  0  0  0  0  0  0
    3.8981   -0.7504    0.0000 O   0  0  0  0  0  0  0  0  0  0  0  0
    2.5987   -3.0002    0.0000 O   0  0  0  0  0  0  0  0  0  0  0  0
  3  1  2  0
  4  2  1  0
  6  1  1  0
  6  2  2  0
  6  5  1  0
  7  3  1  0
  7  4  2  0
  8  7  1  0
  9  5  2  0
 10  8  1  0
 11  8  2  0
M  CHG  2   8   1  10  -1
M  END
>  <NAME>  (4360) 
4-NITROBENZALDEHYDE

>  <SYNONYMS>  (4360) 


>  <SPECTRUM TYPE>  (4360) 
MS1

>  <INSTRUMENT TYPE>  (4360) 
EI-B

>  <INSTRUMENT>  (4360) 
HITACHI M-80

>  <ION MODE>  (4360) 
P

>  <INCHIKEY>  (4360) 
BXRFQSNOROATLV-UHFFFAOYSA-N

>  <FORMULA>  (4360) 
C7H5NO3

>  <EXACT MASS>  (4360) 
151.02694301999998

>  <MW>  (4360) 
151

>  <ID>  (4360) 
JP005715

>  <CONTRIBUTOR>  (4360) 
University of Tokyo Team, {Faculty of Engineering, University of Tokyo

>  <COMMENT>  (4360) 
SMILES=O=Cc(c1)ccc(c1)[N+1]([O-1])=O
cas=555-16-8
InChI=InChI=1S/C7H5NO3/c9-5-6-1-3-7(4-2-6)8(10)11/h1-5H
computed SMILES=O=CC1=CC=C(C=C1)N(=O)=O
accession=JP005715
date=2016.01.19 (Created 2008.10.21, modified 2011.05.06)
author=MASS SPECTROSCOPY SOC. OF JAPAN (MSSJ)
license=CC BY-NC-SA
exact mass=151.02694
ionization energy=70 eV
ion type=[M]+*
computed spectral entropy=2.781644869428291
computed normalized entropy=0.7185482907217797
SPLASH=splash10-0udi-8900000000-af01c134906fa6ff4215
submitter=submitter = University of Tokyo Team (Faculty of Engineering, University of Tokyo)
MoNA Rating=3.75

>  <NUM PEAKS>  (4360) 
48

>  <MASS SPECTRAL PEAKS>  (4360) 
17 0.67
18 2.56
26 0.51
27 1.91
28 1.25
29 4.99
30 7.99
37 1.7
38 2.84
39 4.44
46 2.1
49 1.32
50 19.68
51 37.75
52 1.81
53 0.92
61 1.67
62 2.35
63 3.42
64 2.45
65 9.49
66 0.7
73 2.02
74 11.22
75 9.71
76 15.03
77 49.75
78 3.49
79 0.21
91 0.57
92 7.7
93 2.7
94 0.27
103 1.19
104 14.91
105 21.13
106 1.9
120 4.56
121 0.76
122 0.57
123 0.65
135 2.61
136 0.33
149 0.74
150 78.04
151 99.99
152 9.57
153 1.06

$$$$

     RDKit          2D

 15 16  0  0  0  0  0  0  0  0999 V2000
    3.8971    1.0700    0.0000 C   0  0  0  0  0  0  0  0  0  0  0  0
   -5.1962    4.8200    0.0000 C   0  0  0  0  0  0  0  0  0  0  0  0
    3.8976    2.5708    0.0000 C   0  0  0  0  0  0  0  0  0  0  0  0
    2.5976    0.3192    0.0000 C   0  0  0  0  0  0  0  0  0  0  0  0
   -5.1966    3.3192    0.0000 C   0  0  0  0  0  0  0  0  0  0  0  0
   -3.8966    5.5708    0.0000 C   0  0  0  0  0  0  0  0  0  0  0  0
    2.5986    3.3208    0.0000 C   0  0  0  0  0  0  0  0  0  0  0  0
    1.2986    1.0692    0.0000 C   0  0  0  0  0  0  0  0  0  0  0  0
   -3.8976    2.5692    0.0000 C   0  0  0  0  0  0  0  0  0  0  0  0
   -2.5976    4.8208    0.0000 C   0  0  0  0  0  0  0  0  0  0  0  0
    0.0000    3.3200    0.0000 C   0  0  0  0  0  0  0  0  0  0  0  0
    1.2990    2.5700    0.0000 C   0  0  0  0  0  0  0  0  0  0  0  0
   -2.5981    3.3200    0.0000 C   0  0  0  0  0  0  0  0  0  0  0  0
   -1.2990    2.5700    0.0000 C   0  0  0  0  0  0  0  0  0  0  0  0
   -1.2990    1.0700    0.0000 O   0  0  0  0  0  0  0  0  0  0  0  0
  3  1  2  0
  4  1  1  0
  5  2  2  0
  6  2  1  0
  7  3  1  0
  8  4  2  0
  9  5  1  0
 10  6  2  0
 12  7  2  0
 12  8  1  0
 12 11  1  0
 13  9  2  0
 13 10  1  0
 14 11  1  0
 14 13  1  0
 15 14  2  0
M  END
>  <NAME>  (4361) 
BENZYL PHENYL KETONE

>  <SYNONYMS>  (4361) 
DESOXYBENZOIN

>  <SPECTRUM TYPE>  (4361) 
MS1

>  <INSTRUMENT TYPE>  (4361) 
EI-B

>  <INSTRUMENT>  (4361) 
HITACHI M-80

>  <ION MODE>  (4361) 
P

>  <INCHIKEY>  (4361) 
OTKCEEWUXHVZQI-UHFFFAOYSA-N

>  <FORMULA>  (4361) 
C14H12O

>  <EXACT MASS>  (4361) 
196.088815004

>  <MW>  (4361) 
196

>  <ID>  (4361) 
JP005714

>  <CONTRIBUTOR>  (4361) 
University of Tokyo Team, {Faculty of Engineering, University of Tokyo

>  <COMMENT>  (4361) 
SMILES=O=C(Cc(c2)cccc2)c(c1)cccc1
InChI=InChI=1S/C14H12O/c15-14(13-9-5-2-6-10-13)11-12-7-3-1-4-8-12/h1-10H,11H2
computed SMILES=O=C(C=1C=CC=CC1)CC=2C=CC=CC2
accession=JP005714
date=2016.01.19 (Created 2008.10.21, modified 2011.05.06)
author=MASS SPECTROSCOPY SOC. OF JAPAN (MSSJ)
license=CC BY-NC-SA
exact mass=196.08882
ionization energy=70 eV
ion type=[M]+*
computed spectral entropy=1.8777754203933394
computed normalized entropy=0.5324967221262018
SPLASH=splash10-0a4i-4900000000-59224caa5c9874ac58ea
submitter=submitter = University of Tokyo Team (Faculty of Engineering, University of Tokyo)
MoNA Rating=3.75

>  <NUM PEAKS>  (4361) 
34

>  <MASS SPECTRAL PEAKS>  (4361) 
27 0.44
38 0.5
39 2.06
41 0.39
50 2.41
51 7.63
52 0.72
62 0.54
63 1.56
64 0.45
65 4.08
66 0.33
74 0.89
75 0.7
76 1.18
77 25.56
78 2.03
89 1.23
90 0.71
91 6.47
92 0.56
94 0.23
104 0.28
105 99.99
106 7.86
107 0.48
122 6.94
123 0.57
165 0.95
166 0.24
167 0.2
196 4.9
197 0.95
198 0.1

$$$$

     RDKit          2D

 15 16  0  0  0  0  0  0  0  0999 V2000
    3.2481    2.1950    0.0000 C   0  0  0  0  0  0  0  0  0  0  0  0
   -7.1442    2.1950    0.0000 C   0  0  0  0  0  0  0  0  0  0  0  0
    1.9486    1.4442    0.0000 C   0  0  0  0  0  0  0  0  0  0  0  0
    3.2486    3.6958    0.0000 C   0  0  0  0  0  0  0  0  0  0  0  0
   -7.1447    3.6958    0.0000 C   0  0  0  0  0  0  0  0  0  0  0  0
   -5.8447    1.4442    0.0000 C   0  0  0  0  0  0  0  0  0  0  0  0
    0.6495    2.1942    0.0000 C   0  0  0  0  0  0  0  0  0  0  0  0
    1.9495    4.4458    0.0000 C   0  0  0  0  0  0  0  0  0  0  0  0
   -5.8457    4.4458    0.0000 C   0  0  0  0  0  0  0  0  0  0  0  0
   -4.5457    2.1942    0.0000 C   0  0  0  0  0  0  0  0  0  0  0  0
    0.6500    3.6950    0.0000 C   0  0  0  0  0  0  0  0  0  0  0  0
   -4.5462    3.6950    0.0000 C   0  0  0  0  0  0  0  0  0  0  0  0
   -0.6490    4.4450    0.0000 N   0  0  0  0  0  0  0  0  0  0  0  0
   -3.2471    4.4450    0.0000 N   0  0  0  0  0  0  0  0  0  0  0  0
   -1.9481    3.6950    0.0000 N   0  0  0  0  0  0  0  0  0  0  0  0
  3  1  2  0
  4  1  1  0
  5  2  2  0
  6  2  1  0
  7  3  1  0
  8  4  2  0
  9  5  1  0
 10  6  2  0
 11  7  2  0
 11  8  1  0
 12  9  2  0
 12 10  1  0
 13 11  1  0
 14 12  1  0
 15 13  2  3
 15 14  1  0
M  END
>  <NAME>  (4362) 
DIAZOAMINOBENZENE

>  <SYNONYMS>  (4362) 


>  <SPECTRUM TYPE>  (4362) 
MS1

>  <INSTRUMENT TYPE>  (4362) 
EI-B

>  <INSTRUMENT>  (4362) 
HITACHI M-80

>  <ION MODE>  (4362) 
P

>  <INCHIKEY>  (4362) 
ALIFPGGMJDWMJH-UHFFFAOYSA-N

>  <FORMULA>  (4362) 
C12H11N3

>  <EXACT MASS>  (4362) 
197.095297352

>  <MW>  (4362) 
197

>  <ID>  (4362) 
JP005713

>  <CONTRIBUTOR>  (4362) 
University of Tokyo Team, {Faculty of Engineering, University of Tokyo

>  <COMMENT>  (4362) 
SMILES=c(c2)ccc(c2)NN=Nc(c1)cccc1
InChI=InChI=1S/C12H11N3/c1-3-7-11(8-4-1)13-15-14-12-9-5-2-6-10-12/h1-10H,(H,13,14)
computed SMILES=N(=NC=1C=CC=CC1)NC=2C=CC=CC2
accession=JP005713
date=2016.01.19 (Created 2008.10.21, modified 2011.05.06)
author=MASS SPECTROSCOPY SOC. OF JAPAN (MSSJ)
license=CC BY-NC-SA
exact mass=197.0953
ionization energy=70 eV
ion type=[M]+*
computed spectral entropy=2.2395919825738835
computed normalized entropy=0.6156808070608952
SPLASH=splash10-056r-9400000000-9fb27df30b5e3277b80a
submitter=submitter = University of Tokyo Team (Faculty of Engineering, University of Tokyo)
MoNA Rating=3.75

>  <NUM PEAKS>  (4362) 
38

>  <MASS SPECTRAL PEAKS>  (4362) 
27 1.06
28 0.84
37 0.38
38 1.26
39 5.33
40 0.6
41 0.43
50 3.14
51 16.86
52 1.74
62 0.74
63 2
64 1.79
65 9.3
66 1.85
74 1.03
75 0.79
76 1.31
77 99.99
78 7.72
79 0.34
91 1.2
92 6.08
93 7.8
94 0.55
105 57.52
106 4.49
107 0.18
115 0.56
141 1.06
142 0.5
166 0.39
167 3.15
168 3.8
169 1.74
170 0.24
197 8.96
198 1.37

$$$$

     RDKit          2D

 12 12  0  0  0  0  0  0  0  0999 V2000
   -2.5989    1.5002    0.0000 C   0  0  0  0  0  0  0  0  0  0  0  0
    0.0000    3.0000    0.0000 C   0  0  0  0  0  0  0  0  0  0  0  0
   -0.0000   -3.0000    0.0000 C   0  0  0  0  0  0  0  0  0  0  0  0
    2.5989   -1.5002    0.0000 C   0  0  0  0  0  0  0  0  0  0  0  0
   -1.3000    0.7500    0.0000 C   0  0  0  0  0  0  0  0  0  0  0  0
    0.0000    1.5000    0.0000 C   0  0  0  0  0  0  0  0  0  0  0  0
   -0.0000   -1.5000    0.0000 C   0  0  0  0  0  0  0  0  0  0  0  0
    1.3000   -0.7500    0.0000 C   0  0  0  0  0  0  0  0  0  0  0  0
   -1.3000   -0.7500    0.0000 C   0  0  0  0  0  0  0  0  0  0  0  0
    1.3000    0.7500    0.0000 C   0  0  0  0  0  0  0  0  0  0  0  0
   -2.5989   -1.5002    0.0000 N   0  0  0  0  0  0  0  0  0  0  0  0
    2.5989    1.5002    0.0000 N   0  0  0  0  0  0  0  0  0  0  0  0
  5  1  1  0
  6  2  1  0
  6  5  2  0
  7  3  1  0
  8  4  1  0
  8  7  1  0
  9  5  1  0
  9  7  2  0
 10  6  1  0
 10  8  2  0
 11  9  1  0
 12 10  1  0
M  END
>  <NAME>  (4363) 
2,3,5,6-TETRAMETHYL-1,4-BENZENEDIAMINE

>  <SYNONYMS>  (4363) 
DIAMINODUROL

>  <SPECTRUM TYPE>  (4363) 
MS1

>  <INSTRUMENT TYPE>  (4363) 
EI-B

>  <INSTRUMENT>  (4363) 
HITACHI M-80

>  <ION MODE>  (4363) 
P

>  <INCHIKEY>  (4363) 
WCZNKVPCIFMXEQ-UHFFFAOYSA-N

>  <FORMULA>  (4363) 
C10H16N2

>  <EXACT MASS>  (4363) 
164.131348512

>  <MW>  (4363) 
164

>  <ID>  (4363) 
JP005712

>  <CONTRIBUTOR>  (4363) 
University of Tokyo Team, {Faculty of Engineering, University of Tokyo

>  <COMMENT>  (4363) 
SMILES=Cc(c(C)1)c(N)c(C)c(C)c(N)1
cas=3102-87-2
InChI=InChI=1S/C10H16N2/c1-5-6(2)10(12)8(4)7(3)9(5)11/h11-12H2,1-4H3
computed SMILES=NC=1C(=C(C(N)=C(C1C)C)C)C
accession=JP005712
date=2016.01.19 (Created 2008.10.21, modified 2011.05.06)
author=MASS SPECTROSCOPY SOC. OF JAPAN (MSSJ)
license=CC BY-NC-SA
exact mass=164.13135
ionization energy=70 eV
ion type=[M]+*
computed spectral entropy=2.282578828457769
computed normalized entropy=0.569600460692752
SPLASH=splash10-03di-1900000000-c1a1df5432c80293e4ce
submitter=submitter = University of Tokyo Team (Faculty of Engineering, University of Tokyo)
MoNA Rating=3.75

>  <NUM PEAKS>  (4363) 
55

>  <MASS SPECTRAL PEAKS>  (4363) 
27 1.02
28 1.34
39 1.15
41 0.82
42 1.46
51 0.65
52 0.68
53 1.1
54 1.05
65 0.85
66 0.86
67 0.87
68 0.42
74 0.57
77 1.12
78 0.42
79 0.64
80 0.69
81 0.71
82 2.58
91 1.04
93 0.78
94 0.65
104 0.44
105 0.63
106 1.42
107 1.16
108 1.74
109 0.6
110 0.62
117 0.66
118 0.49
119 0.79
120 2.14
121 2.08
122 1.87
123 0.65
130 1.08
131 0.83
132 2.95
133 0.86
134 1.35
135 1
136 1.68
137 0.34
146 2.54
147 1.1
148 1.68
149 8.92
150 1.28
162 0.38
163 9.46
164 99.99
165 11.44
166 0.49

$$$$

     RDKit          2D

 11 11  0  0  0  0  0  0  0  0999 V2000
    1.8127   -2.1596    0.0000 C   0  0  0  0  0  0  0  0  0  0  0  0
    2.7772   -0.4897    0.0000 C   0  0  0  0  0  0  0  0  0  0  0  0
   -2.7772   -0.4897    0.0000 C   0  0  0  0  0  0  0  0  0  0  0  0
   -1.8127   -2.1596    0.0000 C   0  0  0  0  0  0  0  0  0  0  0  0
    1.3000    0.7500    0.0000 C   0  0  0  0  0  0  0  0  0  0  0  0
   -1.3000    0.7500    0.0000 C   0  0  0  0  0  0  0  0  0  0  0  0
   -0.0000    1.5000    0.0000 C   0  0  0  0  0  0  0  0  0  0  0  0
    1.3000   -0.7500    0.0000 C   0  0  0  0  0  0  0  0  0  0  0  0
   -1.3000   -0.7500    0.0000 C   0  0  0  0  0  0  0  0  0  0  0  0
   -0.0000   -1.5000    0.0000 N   0  0  0  0  0  0  0  0  0  0  0  0
    0.0000    3.0000    0.0000 O   0  0  0  0  0  0  0  0  0  0  0  0
  7  5  1  0
  7  6  1  0
  8  1  1  0
  8  2  1  0
  8  5  1  0
  9  3  1  0
  9  4  1  0
  9  6  1  0
 10  8  1  0
 10  9  1  0
 11  7  1  0
M  END
>  <NAME>  (4364) 
2,2,6,6-TETRAMETHYL-4-PIPERIDINOL

>  <SYNONYMS>  (4364) 


>  <SPECTRUM TYPE>  (4364) 
MS1

>  <INSTRUMENT TYPE>  (4364) 
EI-B

>  <INSTRUMENT>  (4364) 
HITACHI M-80

>  <ION MODE>  (4364) 
P

>  <INCHIKEY>  (4364) 
VDVUCLWJZJHFAV-UHFFFAOYSA-N

>  <FORMULA>  (4364) 
C9H19NO

>  <EXACT MASS>  (4364) 
157.146664228

>  <MW>  (4364) 
157

>  <ID>  (4364) 
JP005711

>  <CONTRIBUTOR>  (4364) 
University of Tokyo Team, {Faculty of Engineering, University of Tokyo

>  <COMMENT>  (4364) 
SMILES=OC(C1)CC(C)(C)NC(C)(C)1
cas=2403-88-5
InChI=InChI=1S/C9H19NO/c1-8(2)5-7(11)6-9(3,4)10-8/h7,10-11H,5-6H2,1-4H3
computed SMILES=OC1CC(NC(C)(C)C1)(C)C
accession=JP005711
date=2016.01.19 (Created 2008.10.21, modified 2011.05.06)
author=MASS SPECTROSCOPY SOC. OF JAPAN (MSSJ)
license=CC BY-NC-SA
exact mass=157.14666
ionization energy=70 eV
ion type=[M]+*
computed spectral entropy=2.7822523405626196
computed normalized entropy=0.6715331564865198
SPLASH=splash10-052f-6900000000-88ca6e5ae66ea60f4fd8
submitter=submitter = University of Tokyo Team (Faculty of Engineering, University of Tokyo)
MoNA Rating=3.75

>  <NUM PEAKS>  (4364) 
63

>  <MASS SPECTRAL PEAKS>  (4364) 
15 1.9
18 6.25
19 0.93
27 2.54
28 2.35
29 4.41
30 3.1
31 0.98
39 3.34
40 0.46
41 7.04
42 19.01
43 4.61
44 2.21
45 0.88
46 0.53
53 1.16
54 0.52
55 3.28
56 3.78
57 5.32
58 59.29
59 2.46
67 0.96
68 0.5
69 0.37
70 1.32
71 1.12
72 1.31
79 0.39
80 0.42
81 0.75
82 2.16
83 1.83
84 1.61
85 7.34
86 8.89
87 0.39
96 1.2
97 0.49
98 5.3
99 2.51
100 0.81
107 1.45
108 1.46
109 0.33
110 0.5
112 2.4
113 0.39
123 0.5
124 10.8
125 1.25
126 0.57
140 13.53
141 1.36
142 99.99
143 10.88
144 0.68
156 0.63
157 1.01
158 82.32
159 8.89
160 0.49

$$$$

     RDKit          2D

  9  8  0  0  0  0  0  0  0  0999 V2000
    2.2733   -0.6175    0.0000 C   0  0  0  0  0  0  0  0  0  0  0  0
    0.9738   -1.3683    0.0000 C   0  0  0  0  0  0  0  0  0  0  0  0
    2.2738    0.8833    0.0000 C   0  0  0  0  0  0  0  0  0  0  0  0
   -0.3252   -0.6183    0.0000 C   0  0  0  0  0  0  0  0  0  0  0  0
    0.9748    1.6333    0.0000 C   0  0  0  0  0  0  0  0  0  0  0  0
   -0.3248    0.8825    0.0000 C   0  0  0  0  0  0  0  0  0  0  0  0
   -1.6238    1.6325    0.0000 N   0  0  0  0  0  0  0  0  0  0  0  0
   -2.9228    0.8825    0.0000 O   0  0  0  0  0  0  0  0  0  0  0  0
    0.0000    0.0000    0.0000 Cl  0  0  0  0  0  0  0  0  0  0  0  0
  2  1  1  0
  3  1  1  0
  4  2  1  0
  5  3  1  0
  6  4  1  0
  6  5  1  0
  7  6  1  0
  8  7  1  0
M  END
>  <NAME>  (4365) 
N-CYCLOHEXYLHYDROXYLAMINE HYDROCHLORIDE

>  <SYNONYMS>  (4365) 


>  <SPECTRUM TYPE>  (4365) 
MS1

>  <INSTRUMENT TYPE>  (4365) 
EI-B

>  <INSTRUMENT>  (4365) 
HITACHI M-80

>  <ION MODE>  (4365) 
P

>  <INCHIKEY>  (4365) 
SSVAHXZUFFSFER-UHFFFAOYSA-N

>  <FORMULA>  (4365) 
C6H14ClNO

>  <EXACT MASS>  (4365) 
151.076391748

>  <MW>  (4365) 
151

>  <ID>  (4365) 
JP005710

>  <CONTRIBUTOR>  (4365) 
University of Tokyo Team, {Faculty of Engineering, University of Tokyo

>  <COMMENT>  (4365) 
SMILES=C1CCC(CC1)NO.Cl
cas=25100-12-3
InChI=InChI=1S/C6H13NO.ClH/c8-7-6-4-2-1-3-5-6;/h6-8H,1-5H2;1H
computed SMILES=Cl.ONC1CCCCC1
accession=JP005710
date=2016.01.19 (Created 2008.10.21, modified 2011.05.06)
author=MASS SPECTROSCOPY SOC. OF JAPAN (MSSJ)
license=CC BY-NC-SA
exact mass=151.07639
ionization energy=70 eV
ion type=[M]+*
computed spectral entropy=3.187799335821822
computed normalized entropy=0.7636568266704012
SPLASH=splash10-05fr-9000000000-720866d5f7c626b80c1b
submitter=submitter = University of Tokyo Team (Faculty of Engineering, University of Tokyo)
MoNA Rating=3.75

>  <NUM PEAKS>  (4365) 
65

>  <MASS SPECTRAL PEAKS>  (4365) 
15 1.5
17 0.61
18 2.93
19 0.45
26 1.37
27 10.9
28 14.84
29 7.48
30 5.1
31 0.61
32 0.62
33 0.47
34 1.93
35 3.88
36 22.24
37 1.5
38 7.95
39 11.35
40 2.13
41 24.17
42 6.86
43 15.64
44 2.19
45 1.01
46 6.86
50 0.76
51 1.41
52 0.97
53 3.33
54 6.57
55 32.12
56 45.54
57 2.61
58 0.38
59 20.41
60 1.19
61 0.36
63 0.35
65 0.81
66 0.64
71 0.57
72 99.99
73 5.56
74 0.57
77 0.97
78 0.46
79 1.46
80 0.62
81 3.59
82 8.7
83 23.92
84 1.88
85 0.27
86 4.65
87 0.45
96 0.54
97 0.5
98 11.27
99 10.14
100 2.09
113 0.46
114 2.25
115 33.93
116 5.65
117 0.38

$$$$

     RDKit          2D

 10  9  0  0  0  0  0  0  0  0999 V2000
   -2.2733    3.9375    0.0000 C   0  0  0  0  0  0  0  0  0  0  0  0
    0.3248    3.9375    0.0000 C   0  0  0  0  0  0  0  0  0  0  0  0
   -0.9743    1.6875    0.0000 C   0  0  0  0  0  0  0  0  0  0  0  0
   -3.5724    3.1875    0.0000 C   0  0  0  0  0  0  0  0  0  0  0  0
    1.6238    3.1875    0.0000 C   0  0  0  0  0  0  0  0  0  0  0  0
    0.3248    0.9375    0.0000 C   0  0  0  0  0  0  0  0  0  0  0  0
   -0.9743    3.1875    0.0000 N   0  0  0  0  0  0  0  0  0  0  0  0
   -4.8714    3.9375    0.0000 O   0  0  0  0  0  0  0  0  0  0  0  0
    2.9228    3.9375    0.0000 O   0  0  0  0  0  0  0  0  0  0  0  0
    0.3248   -0.5625    0.0000 O   0  0  0  0  0  0  0  0  0  0  0  0
  4  1  1  0
  5  2  1  0
  6  3  1  0
  7  1  1  0
  7  2  1  0
  7  3  1  0
  8  4  1  0
  9  5  1  0
 10  6  1  0
M  END
>  <NAME>  (4366) 
TRIETHANOLAMINE

>  <SYNONYMS>  (4366) 


>  <SPECTRUM TYPE>  (4366) 
MS1

>  <INSTRUMENT TYPE>  (4366) 
EI-B

>  <INSTRUMENT>  (4366) 
HITACHI M-80

>  <ION MODE>  (4366) 
P

>  <INCHIKEY>  (4366) 
GSEJCLTVZPLZKY-UHFFFAOYSA-N

>  <FORMULA>  (4366) 
C6H15NO3

>  <EXACT MASS>  (4366) 
149.10519334

>  <MW>  (4366) 
149

>  <ID>  (4366) 
JP005709

>  <CONTRIBUTOR>  (4366) 
University of Tokyo Team, {Faculty of Engineering, University of Tokyo

>  <COMMENT>  (4366) 
SMILES=OCCN(CCO)CCO
cas=102-71-6
InChI=InChI=1S/C6H15NO3/c8-4-1-7(2-5-9)3-6-10/h8-10H,1-6H2
computed SMILES=OCCN(CCO)CCO
accession=JP005709
date=2016.01.19 (Created 2008.10.21, modified 2011.05.06)
author=MASS SPECTROSCOPY SOC. OF JAPAN (MSSJ)
license=CC BY-NC-SA
exact mass=149.10519
ionization energy=70 eV
ion type=[M]+*
computed spectral entropy=2.3763254798188203
computed normalized entropy=0.6206706854285011
SPLASH=splash10-014i-9800000000-98de38ceda39aaf45b22
submitter=submitter = University of Tokyo Team (Faculty of Engineering, University of Tokyo)
MoNA Rating=3.75

>  <NUM PEAKS>  (4366) 
46

>  <MASS SPECTRAL PEAKS>  (4366) 
15 1.39
18 0.66
19 0.91
26 0.31
27 3.19
28 4.2
29 3.23
30 8.42
31 5.13
41 1.67
42 7.98
43 4.25
44 5.99
45 12.57
46 0.3
54 0.56
55 0.34
56 22.53
57 1.38
58 1.69
70 1.53
71 0.16
72 1.16
73 0.37
74 32.91
75 1.52
86 1.09
87 0.39
88 2.38
89 0.18
100 1.17
101 0.1
102 0.42
103 0.14
104 1.44
105 0.26
106 0.64
116 0.28
118 99.99
119 6.11
120 0.58
130 0.4
132 0.32
148 0.46
149 2.01
150 2.32

$$$$

     RDKit          2D

  9  9  0  0  0  0  0  0  0  0999 V2000
    3.5281    0.5402    0.0000 C   0  0  0  0  0  0  0  0  0  0  0  0
    2.2281   -0.2098    0.0000 C   0  0  0  0  0  0  0  0  0  0  0  0
    3.5281    2.0402    0.0000 C   0  0  0  0  0  0  0  0  0  0  0  0
    0.9281    2.0402    0.0000 C   0  0  0  0  0  0  0  0  0  0  0  0
    0.9281    0.5402    0.0000 C   0  0  0  0  0  0  0  0  0  0  0  0
   -0.3708   -0.2100    0.0000 C   0  0  0  0  0  0  0  0  0  0  0  0
    2.2281    2.7902    0.0000 N   0  0  0  0  0  0  0  0  0  0  0  0
   -0.3706   -1.7100    0.0000 O   0  0  0  0  0  0  0  0  0  0  0  0
   -1.6700    0.5398    0.0000 O   0  0  0  0  0  0  0  0  0  0  0  0
  2  1  2  0
  3  1  1  0
  5  2  1  0
  5  4  2  0
  6  5  1  0
  7  3  2  0
  7  4  1  0
  8  6  2  0
  9  6  1  0
M  END
>  <NAME>  (4367) 
NICOTINIC ACID

>  <SYNONYMS>  (4367) 
NIACIN

>  <SPECTRUM TYPE>  (4367) 
MS1

>  <INSTRUMENT TYPE>  (4367) 
EI-B

>  <INSTRUMENT>  (4367) 
HITACHI M-80

>  <ION MODE>  (4367) 
P

>  <INCHIKEY>  (4367) 
PVNIIMVLHYAWGP-UHFFFAOYSA-N

>  <FORMULA>  (4367) 
C6H5NO2

>  <EXACT MASS>  (4367) 
123.0320284

>  <MW>  (4367) 
123

>  <ID>  (4367) 
JP005708

>  <CONTRIBUTOR>  (4367) 
University of Tokyo Team, {Faculty of Engineering, University of Tokyo

>  <COMMENT>  (4367) 
SMILES=OC(=O)c(c1)cncc1
cas=59-67-6
InChI=InChI=1S/C6H5NO2/c8-6(9)5-2-1-3-7-4-5/h1-4H,(H,8,9)
computed SMILES=O=C(O)C=1C=NC=CC1
accession=JP005708
date=2016.01.19 (Created 2008.10.21, modified 2011.05.06)
author=MASS SPECTROSCOPY SOC. OF JAPAN (MSSJ)
license=CC BY-NC-SA
exact mass=123.03203
ionization energy=70 eV
ion type=[M]+*
computed spectral entropy=2.521251227269118
computed normalized entropy=0.7035685510721343
SPLASH=splash10-0kmi-7900000000-9e4efda763cce5ddfe57
submitter=submitter = University of Tokyo Team (Faculty of Engineering, University of Tokyo)
MoNA Rating=3.75

>  <NUM PEAKS>  (4367) 
36

>  <MASS SPECTRAL PEAKS>  (4367) 
26 2.78
27 2.12
28 3.2
29 0.75
37 1.78
38 2.75
39 4.67
40 1.13
41 0.74
42 0.44
44 0.52
45 5.61
48 0.45
49 3.83
50 18.53
51 28.92
52 11.24
53 4.11
66 0.9
67 1.01
68 0.7
75 1.88
76 2.6
77 17.45
78 38.77
79 3.58
80 0.3
94 1.09
95 0.68
105 46.9
106 27.44
107 1.88
122 0.29
123 99.99
124 13.98
125 1.11

$$$$

     RDKit          2D

 11 11  0  0  0  0  0  0  0  0999 V2000
   -1.6700   -0.2104    0.0000 C   0  0  0  0  0  0  0  0  0  0  0  0
   -0.3713    2.0398    0.0000 C   0  0  0  0  0  0  0  0  0  0  0  0
    4.8270    0.5402    0.0000 C   0  0  0  0  0  0  0  0  0  0  0  0
    3.5270   -0.2098    0.0000 C   0  0  0  0  0  0  0  0  0  0  0  0
    4.8270    2.0402    0.0000 C   0  0  0  0  0  0  0  0  0  0  0  0
    2.2270    2.0402    0.0000 C   0  0  0  0  0  0  0  0  0  0  0  0
    2.2270    0.5402    0.0000 C   0  0  0  0  0  0  0  0  0  0  0  0
    0.9281   -0.2100    0.0000 C   0  0  0  0  0  0  0  0  0  0  0  0
    3.5270    2.7902    0.0000 N   0  0  0  0  0  0  0  0  0  0  0  0
   -0.3711    0.5398    0.0000 N   0  0  0  0  0  0  0  0  0  0  0  0
    0.9283   -1.7100    0.0000 O   0  0  0  0  0  0  0  0  0  0  0  0
  4  3  2  0
  5  3  1  0
  7  4  1  0
  7  6  2  0
  8  7  1  0
  9  5  2  0
  9  6  1  0
 10  1  1  0
 10  2  1  0
 10  8  1  0
 11  8  2  0
M  END
>  <NAME>  (4368) 
N,N-DIMETHYLNICOTINAMIDE

>  <SYNONYMS>  (4368) 


>  <SPECTRUM TYPE>  (4368) 
MS1

>  <INSTRUMENT TYPE>  (4368) 
EI-B

>  <INSTRUMENT>  (4368) 
HITACHI M-80

>  <ION MODE>  (4368) 
P

>  <INCHIKEY>  (4368) 
FJEVKYZLIRAAKE-UHFFFAOYSA-N

>  <FORMULA>  (4368) 
C8H10N2O

>  <EXACT MASS>  (4368) 
150.07931294

>  <MW>  (4368) 
150

>  <ID>  (4368) 
JP005707

>  <CONTRIBUTOR>  (4368) 
University of Tokyo Team, {Faculty of Engineering, University of Tokyo

>  <COMMENT>  (4368) 
SMILES=CN(C)C(=O)c(c1)cncc1
InChI=InChI=1S/C8H10N2O/c1-10(2)8(11)7-4-3-5-9-6-7/h3-6H,1-2H3
computed SMILES=O=C(C=1C=NC=CC1)N(C)C
accession=JP005707
date=2016.01.19 (Created 2008.10.21, modified 2011.05.06)
author=MASS SPECTROSCOPY SOC. OF JAPAN (MSSJ)
license=CC BY-NC-SA
exact mass=150.07931
ionization energy=70 eV
ion type=[M]+*
computed spectral entropy=2.4932267398582812
computed normalized entropy=0.6406325443825542
SPLASH=splash10-0pdj-6900000000-e5a4e0226ea0610b33c2
submitter=submitter = University of Tokyo Team (Faculty of Engineering, University of Tokyo)
MoNA Rating=3.75

>  <NUM PEAKS>  (4368) 
49

>  <MASS SPECTRAL PEAKS>  (4368) 
15 3.93
18 2.06
26 1.08
27 2.02
28 4.44
29 0.41
37 0.41
38 0.89
39 1.49
40 0.83
41 1.16
42 10.64
43 2.11
44 6.36
45 0.45
49 1.08
50 9.19
51 26.08
52 4.67
53 2.48
72 6.63
73 0.26
75 0.79
76 1.38
77 2.38
78 69.97
79 7.87
80 0.98
92 0.55
93 3.49
94 1.85
95 0.62
104 0.24
105 0.82
106 99.99
107 7.65
108 0.79
109 0.28
120 0.47
121 0.58
122 0.58
123 0.3
133 0.25
134 0.27
135 0.93
149 88.39
150 42.1
151 10.42
152 0.93

$$$$

     RDKit          2D

  9  9  0  0  0  0  0  0  0  0999 V2000
    3.5281    0.5402    0.0000 C   0  0  0  0  0  0  0  0  0  0  0  0
    2.2281   -0.2098    0.0000 C   0  0  0  0  0  0  0  0  0  0  0  0
    3.5281    2.0402    0.0000 C   0  0  0  0  0  0  0  0  0  0  0  0
    0.9281    2.0402    0.0000 C   0  0  0  0  0  0  0  0  0  0  0  0
    0.9281    0.5402    0.0000 C   0  0  0  0  0  0  0  0  0  0  0  0
   -0.3708   -0.2100    0.0000 C   0  0  0  0  0  0  0  0  0  0  0  0
   -1.6700    0.5398    0.0000 N   0  0  0  0  0  0  0  0  0  0  0  0
    2.2281    2.7902    0.0000 N   0  0  0  0  0  0  0  0  0  0  0  0
   -0.3706   -1.7100    0.0000 O   0  0  0  0  0  0  0  0  0  0  0  0
  2  1  2  0
  3  1  1  0
  5  2  1  0
  5  4  2  0
  6  5  1  0
  7  6  2  0
  8  3  2  0
  8  4  1  0
  9  6  1  0
M  END
>  <NAME>  (4369) 
NICOTINAMIDE

>  <SYNONYMS>  (4369) 


>  <SPECTRUM TYPE>  (4369) 
MS1

>  <INSTRUMENT TYPE>  (4369) 
EI-B

>  <INSTRUMENT>  (4369) 
HITACHI M-80

>  <ION MODE>  (4369) 
P

>  <INCHIKEY>  (4369) 
DFPAKSUCGFBDDF-UHFFFAOYSA-N

>  <FORMULA>  (4369) 
C6H6N2O

>  <EXACT MASS>  (4369) 
122.048012812

>  <MW>  (4369) 
122

>  <ID>  (4369) 
JP005706

>  <CONTRIBUTOR>  (4369) 
University of Tokyo Team, {Faculty of Engineering, University of Tokyo

>  <COMMENT>  (4369) 
SMILES=NC(=O)c(c1)cncc1
cas=98-92-0
InChI=InChI=1S/C6H6N2O/c7-6(9)5-2-1-3-8-4-5/h1-4H,(H2,7,9)
computed SMILES=N=C(O)C=1C=NC=CC1
accession=JP005706
date=2016.01.19 (Created 2008.10.21, modified 2011.05.06)
author=MASS SPECTROSCOPY SOC. OF JAPAN (MSSJ)
license=CC BY-NC-SA
exact mass=122.04801
ionization energy=70 eV
ion type=[M]+*
computed spectral entropy=2.5050945527130994
computed normalized entropy=0.6702289952164461
SPLASH=splash10-0kor-9800000000-1809e537780b814af0c9
submitter=submitter = University of Tokyo Team (Faculty of Engineering, University of Tokyo)
MoNA Rating=3.75

>  <NUM PEAKS>  (4369) 
42

>  <MASS SPECTRAL PEAKS>  (4369) 
16 0.92
17 0.67
18 1.55
26 2.17
27 2.14
28 5.07
29 0.42
37 1.77
38 2.49
39 3.03
40 0.85
41 0.89
42 0.28
43 0.9
44 13.77
45 0.43
48 0.32
49 3.63
50 18.3
51 32.02
52 13.26
53 3.58
66 0.74
67 0.73
75 2.15
76 3.07
77 5.99
78 60.46
79 7.82
80 0.44
93 0.54
94 3.16
95 0.3
104 0.53
105 6.55
106 60.91
107 4.46
108 0.28
121 0.14
122 99.99
123 10.28
124 0.68

$$$$

     RDKit          2D

 11 12  0  0  0  0  0  0  0  0999 V2000
   -2.6000    0.7500    0.0000 C   0  0  0  0  0  0  0  0  0  0  0  0
    2.6000    0.7500    0.0000 C   0  0  0  0  0  0  0  0  0  0  0  0
   -1.3000    1.5000    0.0000 C   0  0  0  0  0  0  0  0  0  0  0  0
    1.3000    1.5000    0.0000 C   0  0  0  0  0  0  0  0  0  0  0  0
   -2.6000   -0.7500    0.0000 C   0  0  0  0  0  0  0  0  0  0  0  0
    2.6000   -0.7500    0.0000 C   0  0  0  0  0  0  0  0  0  0  0  0
   -0.0000    0.7500    0.0000 C   0  0  0  0  0  0  0  0  0  0  0  0
   -1.3000   -1.5000    0.0000 C   0  0  0  0  0  0  0  0  0  0  0  0
   -0.0000   -0.7500    0.0000 C   0  0  0  0  0  0  0  0  0  0  0  0
    1.3000   -1.5000    0.0000 N   0  0  0  0  0  0  0  0  0  0  0  0
   -1.3000   -3.0000    0.0000 O   0  0  0  0  0  0  0  0  0  0  0  0
  3  1  2  0
  4  2  1  0
  5  1  1  0
  6  2  2  0
  7  3  1  0
  7  4  2  0
  8  5  2  0
  9  7  1  0
  9  8  1  0
 10  6  1  0
 10  9  2  0
 11  8  1  0
M  END
>  <NAME>  (4370) 
8-HYDROXYQUINOLINE

>  <SYNONYMS>  (4370) 
8-QUINOLINOL

>  <SPECTRUM TYPE>  (4370) 
MS1

>  <INSTRUMENT TYPE>  (4370) 
EI-B

>  <INSTRUMENT>  (4370) 
HITACHI M-80

>  <ION MODE>  (4370) 
P

>  <INCHIKEY>  (4370) 
MCJGNVYPOGVAJF-UHFFFAOYSA-N

>  <FORMULA>  (4370) 
C9H7NO

>  <EXACT MASS>  (4370) 
145.052763844

>  <MW>  (4370) 
145

>  <ID>  (4370) 
JP005705

>  <CONTRIBUTOR>  (4370) 
University of Tokyo Team, {Faculty of Engineering, University of Tokyo

>  <COMMENT>  (4370) 
SMILES=Oc(c1)c(n2)c(ccc2)cc1
cas=148-24-3
InChI=InChI=1S/C9H7NO/c11-8-5-1-3-7-4-2-6-10-9(7)8/h1-6,11H
computed SMILES=OC=1C=CC=C2C=CC=NC12
accession=JP005705
date=2016.01.19 (Created 2008.10.21, modified 2011.05.06)
author=MASS SPECTROSCOPY SOC. OF JAPAN (MSSJ)
license=CC BY-NC-SA
exact mass=145.05276
ionization energy=70 eV
ion type=[M]+*
computed spectral entropy=2.351449951068867
computed normalized entropy=0.6291219372537366
SPLASH=splash10-00kb-4900000000-dbee61b764231929582e
submitter=submitter = University of Tokyo Team (Faculty of Engineering, University of Tokyo)
MoNA Rating=3.75

>  <NUM PEAKS>  (4370) 
42

>  <MASS SPECTRAL PEAKS>  (4370) 
18 1.38
27 0.84
28 2.83
37 0.95
38 1.99
39 3.76
40 0.53
41 0.53
50 2.13
51 2.12
52 1.31
53 0.72
58 2.92
61 1.56
62 4.15
63 8.67
64 3
65 1.02
72 0.5
74 1.16
75 1.25
76 1.11
77 0.89
78 1.17
85 0.44
86 0.85
87 1.34
88 1.73
89 15.18
90 15.66
91 2.12
92 0.26
114 0.53
115 0.93
116 7.39
117 56.13
118 5.02
119 0.28
144 1.35
145 99.99
146 10.97
147 0.79

$$$$

     RDKit          2D

 11 11  0  0  0  0  0  0  0  0999 V2000
    0.6471   -2.6191    0.0000 C   0  0  0  0  0  0  0  0  0  0  0  0
   -0.6520   -1.8691    0.0000 C   0  0  0  0  0  0  0  0  0  0  0  0
    1.9416   -1.8769    0.0000 C   0  0  0  0  0  0  0  0  0  0  0  0
    0.6430    0.3740    0.0000 C   0  0  0  0  0  0  0  0  0  0  0  0
   -1.9568    0.3709    0.0000 C   0  0  0  0  0  0  0  0  0  0  0  0
   -0.6565   -0.3769    0.0000 C   0  0  0  0  0  0  0  0  0  0  0  0
    1.9421   -0.3760    0.0000 C   0  0  0  0  0  0  0  0  0  0  0  0
    3.2412    0.3737    0.0000 N   0  0  0  0  0  0  0  0  0  0  0  0
   -3.2546   -0.3812    0.0000 O   0  0  0  0  0  0  0  0  0  0  0  0
    4.5401   -0.3765    0.0000 O   0  0  0  0  0  0  0  0  0  0  0  0
    3.2415    1.8737    0.0000 O   0  0  0  0  0  0  0  0  0  0  0  0
  2  1  2  0
  3  1  1  0
  6  2  1  0
  6  4  2  0
  6  5  1  0
  7  3  2  0
  7  4  1  0
  8  7  1  0
  9  5  1  0
 10  8  1  0
 11  8  2  0
M  CHG  2   8   1  10  -1
M  END
>  <NAME>  (4371) 
3-NITROBENZYL ALCOHOL

>  <SYNONYMS>  (4371) 


>  <SPECTRUM TYPE>  (4371) 
MS1

>  <INSTRUMENT TYPE>  (4371) 
EI-B

>  <INSTRUMENT>  (4371) 
HITACHI M-80

>  <ION MODE>  (4371) 
P

>  <INCHIKEY>  (4371) 
CWNPOQFCIIFQDM-UHFFFAOYSA-N

>  <FORMULA>  (4371) 
C7H7NO3

>  <EXACT MASS>  (4371) 
153.042593084

>  <MW>  (4371) 
153

>  <ID>  (4371) 
JP005704

>  <CONTRIBUTOR>  (4371) 
University of Tokyo Team, {Faculty of Engineering, University of Tokyo

>  <COMMENT>  (4371) 
SMILES=OCc(c1)cc(cc1)[N+1]([O-1])=O
cas=619-25-0
InChI=InChI=1S/C7H7NO3/c9-5-6-2-1-3-7(4-6)8(10)11/h1-4,9H,5H2
computed SMILES=O=N(=O)C1=CC=CC(=C1)CO
accession=JP005704
date=2016.01.19 (Created 2008.10.21, modified 2011.05.06)
author=MASS SPECTROSCOPY SOC. OF JAPAN (MSSJ)
license=CC BY-NC-SA
exact mass=153.04259
ionization energy=70 eV
ion type=[M]+*
computed spectral entropy=3.277962397248224
computed normalized entropy=0.7823943974110765
SPLASH=splash10-0pdr-9600000000-5e187daf5562e5789795
submitter=submitter = University of Tokyo Team (Faculty of Engineering, University of Tokyo)
MoNA Rating=3.75

>  <NUM PEAKS>  (4371) 
66

>  <MASS SPECTRAL PEAKS>  (4371) 
27 5.48
28 1.21
29 5.34
30 7.32
31 7
37 1.44
38 3.25
39 11.67
40 1.33
41 2.84
46 3.11
49 0.82
50 14.82
51 27.09
52 6.94
53 8.88
55 2.24
61 1.6
62 4.42
63 13.84
64 3.52
65 3.45
66 2.1
67 2.23
73 0.98
74 5.87
75 5.3
76 8.25
77 99.99
78 33.2
79 15.81
80 1.22
81 0.67
85 0.47
86 0.97
87 1
88 0.57
89 51.48
90 8.29
91 1.97
92 1.46
93 0.67
94 3.33
95 1.4
104 1.37
105 18.03
106 31.51
107 66.74
108 19.81
109 1.28
110 0.75
121 1.48
122 0.49
123 0.56
124 6.24
125 1.37
135 0.71
136 36.94
137 7.31
138 0.75
150 1.14
151 0.63
152 6.37
153 48.53
154 7.16
155 2.84

$$$$

     RDKit          2D

  8  8  0  0  0  0  0  0  0  0999 V2000
    0.6513   -2.2440    0.0000 C   0  0  0  0  0  0  0  0  0  0  0  0
    1.9458   -1.5018    0.0000 C   0  0  0  0  0  0  0  0  0  0  0  0
   -0.6478   -1.4940    0.0000 C   0  0  0  0  0  0  0  0  0  0  0  0
    1.9463   -0.0009    0.0000 C   0  0  0  0  0  0  0  0  0  0  0  0
   -0.6523   -0.0018    0.0000 C   0  0  0  0  0  0  0  0  0  0  0  0
    0.6472    0.7491    0.0000 C   0  0  0  0  0  0  0  0  0  0  0  0
   -1.9526    0.7460    0.0000 O   0  0  0  0  0  0  0  0  0  0  0  0
    0.6470    2.2491    0.0000 O   0  0  0  0  0  0  0  0  0  0  0  0
  2  1  2  0
  3  1  1  0
  4  2  1  0
  5  3  2  0
  6  4  2  0
  6  5  1  0
  7  5  1  0
  8  6  1  0
M  END
>  <NAME>  (4372) 
1,2-BENZENEDIOL

>  <SYNONYMS>  (4372) 
PYROCATECHOL

>  <SPECTRUM TYPE>  (4372) 
MS1

>  <INSTRUMENT TYPE>  (4372) 
EI-B

>  <INSTRUMENT>  (4372) 
HITACHI M-80

>  <ION MODE>  (4372) 
P

>  <INCHIKEY>  (4372) 
YCIMNLLNPGFGHC-UHFFFAOYSA-N

>  <FORMULA>  (4372) 
C6H6O2

>  <EXACT MASS>  (4372) 
110.036779432

>  <MW>  (4372) 
110

>  <ID>  (4372) 
JP005703

>  <CONTRIBUTOR>  (4372) 
University of Tokyo Team, {Faculty of Engineering, University of Tokyo

>  <COMMENT>  (4372) 
SMILES=Oc(c1)c(O)ccc1
cas=120-80-9
InChI=InChI=1S/C6H6O2/c7-5-3-1-2-4-6(5)8/h1-4,7-8H
computed SMILES=OC=1C=CC=CC1O
accession=JP005703
date=2016.01.19 (Created 2008.10.21, modified 2011.05.06)
author=MASS SPECTROSCOPY SOC. OF JAPAN (MSSJ)
license=CC BY-NC-SA
exact mass=110.03678
ionization energy=70 eV
ion type=[M]+*
computed spectral entropy=2.1211055754783295
computed normalized entropy=0.617680104546675
SPLASH=splash10-03di-7900000000-83f892852c355a3863e9
submitter=submitter = University of Tokyo Team (Faculty of Engineering, University of Tokyo)
MoNA Rating=3.75

>  <NUM PEAKS>  (4372) 
31

>  <MASS SPECTRAL PEAKS>  (4372) 
26 1.49
27 4.35
28 0.49
29 1.96
37 1.11
38 2.44
39 3.88
40 0.32
49 0.76
50 2.63
51 3.03
52 2.25
53 5.5
54 2.06
55 2.86
61 0.73
62 1.5
63 9.68
64 19.27
65 1.48
66 0.51
79 0.44
80 0.33
81 8.3
82 3.04
92 6.55
93 0.57
109 1.89
110 99.99
111 7.26
112 0.61

$$$$

     RDKit          2D

 15 15  0  0  0  0  0  0  0  0999 V2000
    1.3000    0.7500    0.0000 C   0  0  0  0  0  0  0  0  0  0  0  0
   -1.3000    0.7500    0.0000 C   0  0  0  0  0  0  0  0  0  0  0  0
    0.0000   -1.5000    0.0000 C   0  0  0  0  0  0  0  0  0  0  0  0
    0.0000    1.5000    0.0000 C   0  0  0  0  0  0  0  0  0  0  0  0
    1.3000   -0.7500    0.0000 C   0  0  0  0  0  0  0  0  0  0  0  0
   -1.3000   -0.7500    0.0000 C   0  0  0  0  0  0  0  0  0  0  0  0
    0.0000    3.0000    0.0000 C   0  0  0  0  0  0  0  0  0  0  0  0
    2.5989   -1.5002    0.0000 C   0  0  0  0  0  0  0  0  0  0  0  0
   -2.5989   -1.5002    0.0000 C   0  0  0  0  0  0  0  0  0  0  0  0
    1.2990    3.7500    0.0000 O   0  0  0  0  0  0  0  0  0  0  0  0
   -1.2990    3.7500    0.0000 O   0  0  0  0  0  0  0  0  0  0  0  0
    3.8981   -0.7504    0.0000 O   0  0  0  0  0  0  0  0  0  0  0  0
    2.5987   -3.0002    0.0000 O   0  0  0  0  0  0  0  0  0  0  0  0
   -2.5987   -3.0002    0.0000 O   0  0  0  0  0  0  0  0  0  0  0  0
   -3.8981   -0.7504    0.0000 O   0  0  0  0  0  0  0  0  0  0  0  0
  4  1  2  0
  4  2  1  0
  5  1  1  0
  5  3  2  0
  6  2  2  0
  6  3  1  0
  7  4  1  0
  8  5  1  0
  9  6  1  0
 10  7  2  0
 11  7  1  0
 12  8  2  0
 13  8  1  0
 14  9  2  0
 15  9  1  0
M  END
>  <NAME>  (4373) 
1,3,5-BENZENETRICARBOXYLIC ACID

>  <SYNONYMS>  (4373) 
TRIMESIC ACID

>  <SPECTRUM TYPE>  (4373) 
MS1

>  <INSTRUMENT TYPE>  (4373) 
EI-B

>  <INSTRUMENT>  (4373) 
HITACHI M-80

>  <ION MODE>  (4373) 
P

>  <INCHIKEY>  (4373) 
QMKYBPDZANOJGF-UHFFFAOYSA-N

>  <FORMULA>  (4373) 
C9H6O6

>  <EXACT MASS>  (4373) 
210.016437912

>  <MW>  (4373) 
210

>  <ID>  (4373) 
JP005702

>  <CONTRIBUTOR>  (4373) 
University of Tokyo Team, {Faculty of Engineering, University of Tokyo

>  <COMMENT>  (4373) 
SMILES=OC(=O)c(c1)cc(C(O)=O)cc(C(O)=O)1
cas=554-95-0
InChI=InChI=1S/C9H6O6/c10-7(11)4-1-5(8(12)13)3-6(2-4)9(14)15/h1-3H,(H,10,11)(H,12,13)(H,14,15)
computed SMILES=O=C(O)C=1C=C(C=C(C1)C(=O)O)C(=O)O
accession=JP005702
date=2016.01.19 (Created 2008.10.21, modified 2011.05.06)
author=MASS SPECTROSCOPY SOC. OF JAPAN (MSSJ)
license=CC BY-NC-SA
exact mass=210.01644
ionization energy=70 eV
ion type=[M]+*
computed spectral entropy=3.5354071263330735
computed normalized entropy=0.7612208367273045
SPLASH=splash10-0296-9420000000-71690f781c3736b430e7
submitter=submitter = University of Tokyo Team (Faculty of Engineering, University of Tokyo)
MoNA Rating=3.75

>  <NUM PEAKS>  (4373) 
104

>  <MASS SPECTRAL PEAKS>  (4373) 
17 0.5
18 2.04
27 1.57
28 3.29
29 1.41
32 1.01
35 1.59
36 3.44
37 2.9
38 3.76
39 11.3
40 0.73
41 2.74
42 1.16
43 3.66
44 4.19
45 22.31
46 0.55
47 2.61
48 1.31
49 3.55
50 18.39
51 13.79
52 2.97
53 16.66
54 1.29
55 5.08
56 1.62
57 3
58 0.7
59 0.4
60 0.74
61 2.85
62 5.08
63 14.59
64 5.36
65 42.08
66 3.53
67 1.54
68 0.47
69 4.33
70 1.3
71 1.65
72 0.98
73 6.93
74 32.34
75 33.5
76 4.86
77 5.48
78 1.5
79 2.31
80 0.87
81 33.85
82 2.65
83 7.76
84 1.35
85 4.79
86 0.72
87 1.16
88 0.93
89 0.61
90 1.2
91 4.79
92 2.89
93 1.95
94 0.45
95 0.58
100 0.41
101 1.7
102 4.24
103 1.81
104 0.66
105 1.02
106 0.38
107 1.14
108 0.52
109 4
110 0.32
119 7.13
120 7.39
121 2.85
122 0.53
147 1.28
148 1.01
149 1.59
150 0.21
165 18.11
166 1.92
167 0.51
182 0.74
183 0.42
185 0.42
189 0.73
191 1.43
192 0.25
193 99.99
194 10.23
195 1.75
196 0.29
209 0.89
210 78.95
211 7.77
212 1.19
213 0.25

$$$$

     RDKit          2D

 10 10  0  0  0  0  0  0  0  0999 V2000
   -0.7422   -1.3322    0.0000 C   0  0  0  0  0  0  0  0  0  0  0  0
    0.7678   -1.3122    0.0000 C   0  0  0  0  0  0  0  0  0  0  0  0
   -0.7422    1.2678    0.0000 C   0  0  0  0  0  0  0  0  0  0  0  0
    0.7378    1.2778    0.0000 C   0  0  0  0  0  0  0  0  0  0  0  0
   -1.4822   -0.0422    0.0000 C   0  0  0  0  0  0  0  0  0  0  0  0
    1.5078   -0.0122    0.0000 C   0  0  0  0  0  0  0  0  0  0  0  0
   -2.9822   -0.0472    0.0000 N   0  0  0  0  0  0  0  0  0  0  0  0
    3.0077    0.0033    0.0000 N   0  0  0  0  0  0  0  0  0  0  0  0
   -3.7365    1.2494    0.0000 O   0  0  0  0  0  0  0  0  0  0  0  0
    3.7443    1.3100    0.0000 O   0  0  0  0  0  0  0  0  0  0  0  0
  2  1  2  0
  4  3  2  0
  5  1  1  0
  5  3  1  0
  6  2  1  0
  6  4  1  0
  5  7  2  0
  6  8  2  0
  9  7  1  0
 10  8  1  0
M  END
>  <NAME>  (4374) 
P-BENZOQUINONE DIOXIME

>  <SYNONYMS>  (4374) 
QUINONE DIOXIME

>  <SPECTRUM TYPE>  (4374) 
MS1

>  <INSTRUMENT TYPE>  (4374) 
EI-B

>  <INSTRUMENT>  (4374) 
HITACHI M-80

>  <ION MODE>  (4374) 
P

>  <INCHIKEY>  (4374) 
LNHURPJLTHSVMU-SFECMWDFSA-N

>  <FORMULA>  (4374) 
C6H6N2O2

>  <EXACT MASS>  (4374) 
138.042927432

>  <MW>  (4374) 
138

>  <ID>  (4374) 
JP005701

>  <CONTRIBUTOR>  (4374) 
University of Tokyo Team, {Faculty of Engineering, University of Tokyo

>  <COMMENT>  (4374) 
SMILES=ON=c(c1)ccc(=NO)c1
cas=105-11-3
InChI=InChI=1S/C6H6N2O2/c9-7-5-1-2-6(8-10)4-3-5/h1-4,9-10H/b7-5-,8-6-
computed SMILES=ON=C1C=CC(=NO)C=C1
accession=JP005701
date=2016.01.19 (Created 2008.10.21, modified 2011.05.06)
author=MASS SPECTROSCOPY SOC. OF JAPAN (MSSJ)
license=CC BY-NC-SA
exact mass=138.04293
ionization energy=70 eV
ion type=[M]+*
computed spectral entropy=2.9941115650623935
computed normalized entropy=0.7283394392507111
SPLASH=splash10-000i-9800000000-0a69d710699e60bded5e
submitter=submitter = University of Tokyo Team (Faculty of Engineering, University of Tokyo)
MoNA Rating=3.75

>  <NUM PEAKS>  (4374) 
61

>  <MASS SPECTRAL PEAKS>  (4374) 
18 0.81
26 2.42
27 1.24
28 2.18
29 0.79
30 4
31 0.69
37 1.86
38 2.49
39 5.72
40 2.52
41 1.18
42 1.27
43 1.29
44 1.46
50 3.15
51 6.18
52 16.53
53 9.73
54 1.14
55 0.52
61 1.41
62 2.56
63 8.47
64 6.06
65 4.67
66 2.38
67 0.96
68 1.15
69 0.96
74 0.98
75 1.07
76 4.45
77 4.65
78 17.74
79 3.12
80 2.03
81 0.9
87 0.43
88 0.75
89 0.34
90 5.95
91 4.64
92 1.95
93 0.59
94 0.46
95 2.44
103 2.66
104 0.71
106 1.19
107 4.19
108 6.05
109 0.53
121 0.81
122 2.63
123 1.84
136 1.17
137 0.88
138 99.99
139 10.11
140 0.87

$$$$

     RDKit          2D

 10 10  0  0  0  0  0  0  0  0999 V2000
   -0.3252    1.6883    0.0000 C   0  0  0  0  0  0  0  0  0  0  0  0
    0.9748   -0.5633    0.0000 C   0  0  0  0  0  0  0  0  0  0  0  0
   -1.6243    0.9383    0.0000 C   0  0  0  0  0  0  0  0  0  0  0  0
   -0.3243   -1.3133    0.0000 C   0  0  0  0  0  0  0  0  0  0  0  0
    0.9743    0.9375    0.0000 C   0  0  0  0  0  0  0  0  0  0  0  0
   -1.6238   -0.5625    0.0000 N   0  0  0  0  0  0  0  0  0  0  0  0
    2.2733    1.6875    0.0000 N   0  0  0  0  0  0  0  0  0  0  0  0
   -2.9228   -1.3125    0.0000 O   0  0  0  0  0  0  0  0  0  0  0  0
    2.2733    3.1875    0.0000 O   0  0  0  0  0  0  0  0  0  0  0  0
    3.5724    0.9375    0.0000 O   0  0  0  0  0  0  0  0  0  0  0  0
  3  1  2  0
  4  2  1  0
  5  1  1  0
  5  2  2  0
  6  3  1  0
  6  4  2  0
  7  5  1  0
  8  6  1  0
  9  7  1  0
 10  7  2  0
M  CHG  4   6   1   7   1   8  -1   9  -1
M  END
>  <NAME>  (4375) 
4-NITROPYRIDINE-N-OXIDE

>  <SYNONYMS>  (4375) 


>  <SPECTRUM TYPE>  (4375) 
MS1

>  <INSTRUMENT TYPE>  (4375) 
EI-B

>  <INSTRUMENT>  (4375) 
HITACHI M-80

>  <ION MODE>  (4375) 
P

>  <INCHIKEY>  (4375) 
RXKNNAKAVAHBNK-UHFFFAOYSA-N

>  <FORMULA>  (4375) 
C5H4N2O3

>  <EXACT MASS>  (4375) 
140.022191988

>  <MW>  (4375) 
140

>  <ID>  (4375) 
JP005700

>  <CONTRIBUTOR>  (4375) 
University of Tokyo Team, {Faculty of Engineering, University of Tokyo

>  <COMMENT>  (4375) 
SMILES=[O-1][n+1](c1)ccc(c1)[N+1]([O-1])=O
cas=1124-33-0
InChI=InChI=1S/C5H4N2O3/c8-6-3-1-5(2-4-6)7(9)10/h1-4H
computed SMILES=O=N(=O)C1=CC=N(=O)C=C1
accession=JP005700
date=2016.01.19 (Created 2008.10.21, modified 2011.05.06)
author=MASS SPECTROSCOPY SOC. OF JAPAN (MSSJ)
license=CC BY-NC-SA
exact mass=140.02219
ionization energy=70 eV
ion type=[M]+*
computed spectral entropy=2.8843673161671943
computed normalized entropy=0.7411357912819039
SPLASH=splash10-01p6-9500000000-d5908a7ed7f0f1bb6550
submitter=submitter = University of Tokyo Team (Faculty of Engineering, University of Tokyo)
MoNA Rating=3.75

>  <NUM PEAKS>  (4375) 
49

>  <MASS SPECTRAL PEAKS>  (4375) 
26 3.47
27 3.42
28 10.2
29 3.02
30 34.53
31 0.29
37 3.61
38 12.63
39 53.39
40 3.72
41 0.73
42 0.55
46 2.1
48 0.29
49 2.52
50 13.3
51 17.87
52 3.7
53 8.52
54 2.59
55 0.73
56 2.31
60 0.33
61 3.27
62 9.15
63 29.83
64 15.67
65 1.41
66 0.66
67 0.55
68 0.9
75 1.3
76 1.57
77 1.7
78 5.95
79 0.65
82 3.72
84 3.14
93 0.34
94 8.03
95 0.83
110 49.22
111 2.93
112 0.3
124 6.7
125 0.56
140 99.99
141 10.42
142 1.04

$$$$

     RDKit          2D

 12 12  0  0  0  0  0  0  0  0999 V2000
    3.7357    1.3265    0.0000 C   0  0  0  0  0  0  0  0  0  0  0  0
    3.7443   -1.2716    0.0000 C   0  0  0  0  0  0  0  0  0  0  0  0
    0.7500    1.3100    0.0000 C   0  0  0  0  0  0  0  0  0  0  0  0
    0.7500   -1.2900    0.0000 C   0  0  0  0  0  0  0  0  0  0  0  0
   -0.7600    1.2900    0.0000 C   0  0  0  0  0  0  0  0  0  0  0  0
   -0.7300   -1.3000    0.0000 C   0  0  0  0  0  0  0  0  0  0  0  0
    1.4900    0.0200    0.0000 C   0  0  0  0  0  0  0  0  0  0  0  0
   -1.5000   -0.0100    0.0000 C   0  0  0  0  0  0  0  0  0  0  0  0
    2.9900    0.0250    0.0000 N   0  0  0  0  0  0  0  0  0  0  0  0
   -2.9999   -0.0255    0.0000 N   0  0  0  0  0  0  0  0  0  0  0  0
   -3.7633    1.2657    0.0000 O   0  0  0  0  0  0  0  0  0  0  0  0
   -3.7365   -1.3322    0.0000 O   0  0  0  0  0  0  0  0  0  0  0  0
  5  3  2  0
  6  4  1  0
  7  3  1  0
  7  4  2  0
  8  5  1  0
  8  6  2  0
  9  1  1  0
  9  2  1  0
  9  7  1  0
 10  8  1  0
 11 10  1  0
 12 10  2  0
M  CHG  2  10   1  11  -1
M  END
>  <NAME>  (4376) 
N,N-DIMETHYL-4-NITROANILINE

>  <SYNONYMS>  (4376) 


>  <SPECTRUM TYPE>  (4376) 
MS1

>  <INSTRUMENT TYPE>  (4376) 
EI-B

>  <INSTRUMENT>  (4376) 
HITACHI M-80

>  <ION MODE>  (4376) 
P

>  <INCHIKEY>  (4376) 
QJAIOCKFIORVFU-UHFFFAOYSA-N

>  <FORMULA>  (4376) 
C8H10N2O2

>  <EXACT MASS>  (4376) 
166.07422756

>  <MW>  (4376) 
166

>  <ID>  (4376) 
JP005699

>  <CONTRIBUTOR>  (4376) 
University of Tokyo Team, {Faculty of Engineering, University of Tokyo

>  <COMMENT>  (4376) 
SMILES=CN(C)c(c1)ccc(c1)[N+1]([O-1])=O
InChI=InChI=1S/C8H10N2O2/c1-9(2)7-3-5-8(6-4-7)10(11)12/h3-6H,1-2H3
computed SMILES=O=N(=O)C1=CC=C(C=C1)N(C)C
accession=JP005699
date=2016.01.19 (Created 2008.10.21, modified 2011.05.06)
author=MASS SPECTROSCOPY SOC. OF JAPAN (MSSJ)
license=CC BY-NC-SA
exact mass=166.07423
ionization energy=70 eV
ion type=[M]+*
computed spectral entropy=2.930040528309084
computed normalized entropy=0.7452112077205433
SPLASH=splash10-014i-3900000000-e89d0944a6cb3b522f92
submitter=submitter = University of Tokyo Team (Faculty of Engineering, University of Tokyo)
MoNA Rating=3.75

>  <NUM PEAKS>  (4376) 
51

>  <MASS SPECTRAL PEAKS>  (4376) 
18 1.03
28 1.05
30 3.7
39 1.92
41 0.96
42 9.26
46 1.37
50 3.52
51 3.11
52 1.43
62 0.91
63 3.95
64 1.55
65 3.22
66 1.68
67 1.51
68 1.03
69 0.84
74 1.75
75 1.87
76 3.17
77 9.46
78 4.57
79 5.45
80 1.18
90 2.65
91 5.25
92 3.55
93 2.49
94 0.71
103 1.54
104 7.37
105 11.77
106 1.72
107 0.59
108 4.6
117 1.22
118 5.53
119 18.22
120 10.52
121 1.3
136 29.26
137 2.67
149 0.5
150 2.57
163 0.96
165 19.06
166 99.99
167 10.32
168 1.1
169 0.78

$$$$

     RDKit          2D

 13 14  0  0  0  0  0  0  0  0999 V2000
    2.5986    1.0700    0.0000 C   0  0  0  0  0  0  0  0  0  0  0  0
   -5.1957    1.0700    0.0000 C   0  0  0  0  0  0  0  0  0  0  0  0
    1.2990    0.3192    0.0000 C   0  0  0  0  0  0  0  0  0  0  0  0
    2.5990    2.5708    0.0000 C   0  0  0  0  0  0  0  0  0  0  0  0
   -5.1962    2.5708    0.0000 C   0  0  0  0  0  0  0  0  0  0  0  0
   -3.8962    0.3192    0.0000 C   0  0  0  0  0  0  0  0  0  0  0  0
    0.0000    1.0692    0.0000 C   0  0  0  0  0  0  0  0  0  0  0  0
    1.3000    3.3208    0.0000 C   0  0  0  0  0  0  0  0  0  0  0  0
   -3.8971    3.3208    0.0000 C   0  0  0  0  0  0  0  0  0  0  0  0
   -2.5971    1.0692    0.0000 C   0  0  0  0  0  0  0  0  0  0  0  0
    0.0005    2.5700    0.0000 C   0  0  0  0  0  0  0  0  0  0  0  0
   -2.5976    2.5700    0.0000 C   0  0  0  0  0  0  0  0  0  0  0  0
   -1.2986    3.3200    0.0000 N   0  0  0  0  0  0  0  0  0  0  0  0
  3  1  2  0
  4  1  1  0
  5  2  2  0
  6  2  1  0
  7  3  1  0
  8  4  2  0
  9  5  1  0
 10  6  2  0
 11  7  2  0
 11  8  1  0
 12  9  2  0
 12 10  1  0
 13 11  1  0
 13 12  1  0
M  END
>  <NAME>  (4377) 
DIPHENYLAMINE

>  <SYNONYMS>  (4377) 


>  <SPECTRUM TYPE>  (4377) 
MS1

>  <INSTRUMENT TYPE>  (4377) 
EI-B

>  <INSTRUMENT>  (4377) 
HITACHI M-80

>  <ION MODE>  (4377) 
P

>  <INCHIKEY>  (4377) 
DMBHHRLKUKUOEG-UHFFFAOYSA-N

>  <FORMULA>  (4377) 
C12H11N

>  <EXACT MASS>  (4377) 
169.089149352

>  <MW>  (4377) 
169

>  <ID>  (4377) 
JP005698

>  <CONTRIBUTOR>  (4377) 
University of Tokyo Team, {Faculty of Engineering, University of Tokyo

>  <COMMENT>  (4377) 
SMILES=c(c2)ccc(c2)Nc(c1)cccc1
cas=122-39-4
InChI=InChI=1S/C12H11N/c1-3-7-11(8-4-1)13-12-9-5-2-6-10-12/h1-10,13H
computed SMILES=C=1C=CC(=CC1)NC=2C=CC=CC2
accession=JP005698
date=2016.01.19 (Created 2008.10.21, modified 2011.05.06)
author=MASS SPECTROSCOPY SOC. OF JAPAN (MSSJ)
license=CC BY-NC-SA
exact mass=169.08915
ionization energy=70 eV
ion type=[M]+*
computed spectral entropy=2.4733891071627285
computed normalized entropy=0.6355352811031619
SPLASH=splash10-014i-2900000000-0f2d7d76998f0e03ab74
submitter=submitter = University of Tokyo Team (Faculty of Engineering, University of Tokyo)
MoNA Rating=3.75

>  <NUM PEAKS>  (4377) 
49

>  <MASS SPECTRAL PEAKS>  (4377) 
18 1.35
28 0.65
38 0.88
39 3.75
50 2.36
51 7.2
52 1.57
62 0.77
63 2.57
64 1.63
65 4.8
66 4.52
71 0.74
72 1.08
74 0.94
75 0.91
76 1.01
77 6.11
78 1.36
84 5.15
85 1.44
89 1.03
90 0.62
91 1.07
92 0.93
93 0.69
102 0.47
103 0.54
104 1.06
114 0.42
115 2.7
116 0.71
117 0.55
127 0.52
128 1.34
129 0.41
130 0.51
139 1.67
140 1.28
141 2.71
142 1.61
143 1.01
154 1.3
166 2.76
167 17.88
168 32.94
169 99.99
170 13.74
171 0.86

$$$$

     RDKit          2D

  9  9  0  0  0  0  0  0  0  0999 V2000
    2.9228    0.9375    0.0000 C   0  0  0  0  0  0  0  0  0  0  0  0
    1.6238   -1.3125    0.0000 C   0  0  0  0  0  0  0  0  0  0  0  0
    0.3252    2.4383    0.0000 C   0  0  0  0  0  0  0  0  0  0  0  0
   -0.9748    0.1867    0.0000 C   0  0  0  0  0  0  0  0  0  0  0  0
   -0.9738    3.1883    0.0000 C   0  0  0  0  0  0  0  0  0  0  0  0
   -2.2738    0.9367    0.0000 C   0  0  0  0  0  0  0  0  0  0  0  0
    0.3248    0.9375    0.0000 C   0  0  0  0  0  0  0  0  0  0  0  0
   -2.2733    2.4375    0.0000 N   0  0  0  0  0  0  0  0  0  0  0  0
    1.6238    0.1875    0.0000 N   0  0  0  0  0  0  0  0  0  0  0  0
  5  3  2  0
  6  4  1  0
  7  3  1  0
  7  4  2  0
  8  5  1  0
  8  6  2  0
  9  1  1  0
  9  2  1  0
  9  7  1  0
M  END
>  <NAME>  (4378) 
4-DIMETHYLAMINOPYRIDINE

>  <SYNONYMS>  (4378) 


>  <SPECTRUM TYPE>  (4378) 
MS1

>  <INSTRUMENT TYPE>  (4378) 
EI-B

>  <INSTRUMENT>  (4378) 
HITACHI M-80

>  <ION MODE>  (4378) 
P

>  <INCHIKEY>  (4378) 
VHYFNPMBLIVWCW-UHFFFAOYSA-N

>  <FORMULA>  (4378) 
C7H10N2

>  <EXACT MASS>  (4378) 
122.08439831999999

>  <MW>  (4378) 
122

>  <ID>  (4378) 
JP005697

>  <CONTRIBUTOR>  (4378) 
University of Tokyo Team, {Faculty of Engineering, University of Tokyo

>  <COMMENT>  (4378) 
SMILES=CN(C)c(c1)ccnc1
cas=1122-58-3
InChI=InChI=1S/C7H10N2/c1-9(2)7-3-5-8-6-4-7/h3-6H,1-2H3
computed SMILES=N=1C=CC(=CC1)N(C)C
accession=JP005697
date=2016.01.19 (Created 2008.10.21, modified 2011.05.06)
author=MASS SPECTROSCOPY SOC. OF JAPAN (MSSJ)
license=CC BY-NC-SA
exact mass=122.0844
ionization energy=70 eV
ion type=[M]+*
computed spectral entropy=2.407119576012919
computed normalized entropy=0.60628276923329
SPLASH=splash10-00di-3900000000-c030bfb45064ef8fa8dc
submitter=submitter = University of Tokyo Team (Faculty of Engineering, University of Tokyo)
MoNA Rating=3.75

>  <NUM PEAKS>  (4378) 
53

>  <MASS SPECTRAL PEAKS>  (4378) 
15 2.62
18 1.05
26 0.86
27 1.36
28 2.6
29 0.24
30 0.42
37 0.4
38 0.94
39 2.78
40 1.01
41 1.42
42 6.9
43 1.18
44 4.32
49 0.59
50 4.61
51 10.77
52 4.08
53 1.83
54 1.18
55 0.37
61 1.05
62 0.21
63 0.48
64 0.99
65 1.32
66 1.78
67 1.07
68 1.19
69 0.37
75 0.5
76 0.7
77 0.84
78 10.09
79 4.04
80 3.7
81 0.88
92 2.34
93 2.42
94 6.83
95 1.12
104 0.46
105 5.07
106 4.48
107 3.39
108 0.72
119 2.14
120 0.96
121 99.95
122 99.99
123 10.42
124 0.5

$$$$

     RDKit          2D

  8  8  0  0  0  0  0  0  0  0999 V2000
   -1.3000    0.7500    0.0000 C   0  0  0  0  0  0  0  0  0  0  0  0
   -0.0000   -1.5000    0.0000 C   0  0  0  0  0  0  0  0  0  0  0  0
    0.0000    1.5000    0.0000 C   0  0  0  0  0  0  0  0  0  0  0  0
    1.3000   -0.7500    0.0000 C   0  0  0  0  0  0  0  0  0  0  0  0
   -1.3000   -0.7500    0.0000 C   0  0  0  0  0  0  0  0  0  0  0  0
    1.3000    0.7500    0.0000 C   0  0  0  0  0  0  0  0  0  0  0  0
   -2.5989   -1.5002    0.0000 Cl  0  0  0  0  0  0  0  0  0  0  0  0
    2.5989    1.5002    0.0000 O   0  0  0  0  0  0  0  0  0  0  0  0
  3  1  2  0
  4  2  1  0
  5  1  1  0
  5  2  2  0
  6  3  1  0
  6  4  2  0
  7  5  1  0
  8  6  1  0
M  END
>  <NAME>  (4379) 
4-CHLOROPHENOL

>  <SYNONYMS>  (4379) 


>  <SPECTRUM TYPE>  (4379) 
MS1

>  <INSTRUMENT TYPE>  (4379) 
EI-B

>  <INSTRUMENT>  (4379) 
HITACHI M-80

>  <ION MODE>  (4379) 
P

>  <INCHIKEY>  (4379) 
WXNZTHHGJRFXKQ-UHFFFAOYSA-N

>  <FORMULA>  (4379) 
C6H5ClO

>  <EXACT MASS>  (4379) 
128.00289246

>  <MW>  (4379) 
128

>  <ID>  (4379) 
JP005696

>  <CONTRIBUTOR>  (4379) 
University of Tokyo Team, {Faculty of Engineering, University of Tokyo

>  <COMMENT>  (4379) 
SMILES=Oc(c1)ccc(Cl)c1
cas=106-48-9
InChI=InChI=1S/C6H5ClO/c7-5-1-3-6(8)4-2-5/h1-4,8H
computed SMILES=ClC1=CC=C(O)C=C1
accession=JP005696
date=2016.01.19 (Created 2008.10.21, modified 2011.05.06)
author=MASS SPECTROSCOPY SOC. OF JAPAN (MSSJ)
license=CC BY-NC-SA
exact mass=128.00289
ionization energy=70 eV
ion type=[M]+*
computed spectral entropy=2.438588050267366
computed normalized entropy=0.7101331207880784
SPLASH=splash10-004i-5900000000-4855b919f4b9bab8519f
submitter=submitter = University of Tokyo Team (Faculty of Engineering, University of Tokyo)
MoNA Rating=3.75

>  <NUM PEAKS>  (4379) 
31

>  <MASS SPECTRAL PEAKS>  (4379) 
29 1.76
37 2.99
38 4.14
39 7.51
49 1.32
50 2.8
51 1.46
53 2.81
60 0.78
61 3.29
62 4.87
63 10.24
64 8.93
65 26.29
66 2.05
72 1.02
73 5.36
74 2.29
75 2.69
92 2.21
93 3.08
94 0.45
99 5.44
100 9.63
101 2.38
102 3.31
127 0.94
128 99.99
129 7.02
130 33.62
131 2.25

$$$$

     RDKit          2D

 15 15  0  0  0  0  0  0  0  0999 V2000
   -7.7951    1.5010    0.0000 C   0  0  0  0  0  0  0  0  0  0  0  0
   -6.4962    0.7508    0.0000 C   0  0  0  0  0  0  0  0  0  0  0  0
   -1.3000   -0.7500    0.0000 C   0  0  0  0  0  0  0  0  0  0  0  0
    0.0000    1.5000    0.0000 C   0  0  0  0  0  0  0  0  0  0  0  0
    0.0000   -1.5000    0.0000 C   0  0  0  0  0  0  0  0  0  0  0  0
    1.3000    0.7500    0.0000 C   0  0  0  0  0  0  0  0  0  0  0  0
   -2.5989    1.5002    0.0000 C   0  0  0  0  0  0  0  0  0  0  0  0
   -1.3000    0.7500    0.0000 C   0  0  0  0  0  0  0  0  0  0  0  0
    1.3000   -0.7500    0.0000 C   0  0  0  0  0  0  0  0  0  0  0  0
   -3.8981    0.7504    0.0000 C   0  0  0  0  0  0  0  0  0  0  0  0
    2.5989   -1.5002    0.0000 N   0  0  0  0  0  0  0  0  0  0  0  0
   -3.8983   -0.7496    0.0000 O   0  0  0  0  0  0  0  0  0  0  0  0
    3.8981   -0.7504    0.0000 O   0  0  0  0  0  0  0  0  0  0  0  0
    2.5987   -3.0002    0.0000 O   0  0  0  0  0  0  0  0  0  0  0  0
   -5.1970    1.5006    0.0000 O   0  0  0  0  0  0  0  0  0  0  0  0
  2  1  1  0
  5  3  2  0
  6  4  1  0
  8  3  1  0
  8  4  2  0
  8  7  1  0
  9  5  1  0
  9  6  2  0
 10  7  1  0
 11  9  1  0
 12 10  2  0
 13 11  1  0
 14 11  2  0
 15  2  1  0
 15 10  1  0
M  CHG  2  11   1  13  -1
M  END
>  <NAME>  (4380) 
ETHYL 4-NITROPHENYLACETATE

>  <SYNONYMS>  (4380) 


>  <SPECTRUM TYPE>  (4380) 
MS1

>  <INSTRUMENT TYPE>  (4380) 
EI-B

>  <INSTRUMENT>  (4380) 
HITACHI M-80

>  <ION MODE>  (4380) 
P

>  <INCHIKEY>  (4380) 
DWDRNKYLWMKWTH-UHFFFAOYSA-N

>  <FORMULA>  (4380) 
C10H11NO4

>  <EXACT MASS>  (4380) 
209.068807832

>  <MW>  (4380) 
209

>  <ID>  (4380) 
JP005695

>  <CONTRIBUTOR>  (4380) 
University of Tokyo Team, {Faculty of Engineering, University of Tokyo

>  <COMMENT>  (4380) 
SMILES=CCOC(=O)Cc(c1)ccc(c1)[N+1]([O-1])=O
InChI=InChI=1S/C10H11NO4/c1-2-15-10(12)7-8-3-5-9(6-4-8)11(13)14/h3-6H,2,7H2,1H3
computed SMILES=O=C(OCC)CC1=CC=C(C=C1)N(=O)=O
accession=JP005695
date=2016.01.19 (Created 2008.10.21, modified 2011.05.06)
author=MASS SPECTROSCOPY SOC. OF JAPAN (MSSJ)
license=CC BY-NC-SA
exact mass=209.06881
ionization energy=70 eV
ion type=[M]+*
computed spectral entropy=3.3410704201570365
computed normalized entropy=0.7540529369278458
SPLASH=splash10-002r-9610000000-8ecfecd22bfb50907340
submitter=submitter = University of Tokyo Team (Faculty of Engineering, University of Tokyo)
MoNA Rating=3.75

>  <NUM PEAKS>  (4380) 
84

>  <MASS SPECTRAL PEAKS>  (4380) 
15 1.3
18 1.5
26 1.83
27 15.05
28 3.19
29 99.99
30 25.56
31 1
38 2.26
39 10.44
40 2.07
41 4.45
42 0.99
43 33.63
44 1.38
45 2.64
46 1.14
50 4.07
51 7.65
52 4.43
53 1.25
55 0.55
61 1.04
62 6.06
63 22.96
64 9.45
65 2.58
66 0.45
73 1.94
74 1.22
75 1.48
76 1.24
77 10.09
78 40.94
79 7.37
80 0.67
85 0.39
86 1.22
87 1.78
88 1.34
89 55.14
90 54.14
91 13.54
92 1.2
93 0.53
103 0.57
104 0.79
105 1.48
106 20.17
107 38.46
108 2.97
109 0.44
117 1.98
118 0.89
119 9.04
120 19.42
121 4.87
122 0.57
133 1.53
134 0.58
135 4.19
136 67.65
137 98.77
138 8.28
139 0.74
147 0.31
148 1.66
149 0.38
150 1.15
151 0.22
163 2.56
164 13.83
165 4.17
166 0.55
181 5.02
182 1.43
183 0.2
193 3.18
194 0.74
207 0.29
208 0.49
209 40.72
210 11
211 1.34

$$$$

     RDKit          2D

 15 16  0  0  0  0  0  0  0  0999 V2000
    0.0000   -1.9300    0.0000 C   0  0  0  0  0  0  0  0  0  0  0  0
   -3.8971    4.8200    0.0000 C   0  0  0  0  0  0  0  0  0  0  0  0
    1.3000   -1.1800    0.0000 C   0  0  0  0  0  0  0  0  0  0  0  0
   -1.3000   -1.1800    0.0000 C   0  0  0  0  0  0  0  0  0  0  0  0
   -3.8976    3.3192    0.0000 C   0  0  0  0  0  0  0  0  0  0  0  0
   -2.5976    5.5708    0.0000 C   0  0  0  0  0  0  0  0  0  0  0  0
    1.3000    0.3200    0.0000 C   0  0  0  0  0  0  0  0  0  0  0  0
   -1.3000    0.3200    0.0000 C   0  0  0  0  0  0  0  0  0  0  0  0
   -2.5986    2.5692    0.0000 C   0  0  0  0  0  0  0  0  0  0  0  0
   -1.2986    4.8208    0.0000 C   0  0  0  0  0  0  0  0  0  0  0  0
    1.2990    3.3200    0.0000 C   0  0  0  0  0  0  0  0  0  0  0  0
    0.0000    1.0700    0.0000 C   0  0  0  0  0  0  0  0  0  0  0  0
   -1.2990    3.3200    0.0000 C   0  0  0  0  0  0  0  0  0  0  0  0
    0.0000    2.5700    0.0000 C   0  0  0  0  0  0  0  0  0  0  0  0
    2.5981    4.0700    0.0000 N   0  0  0  0  0  0  0  0  0  0  0  0
  3  1  2  0
  4  1  1  0
  5  2  2  0
  6  2  1  0
  7  3  1  0
  8  4  2  0
  9  5  1  0
 10  6  2  0
 12  7  2  0
 12  8  1  0
 13  9  2  0
 13 10  1  0
 14 11  1  0
 14 12  1  0
 14 13  1  0
 15 11  3  0
M  END
>  <NAME>  (4381) 
DIPHENYLACETONITRILE

>  <SYNONYMS>  (4381) 


>  <SPECTRUM TYPE>  (4381) 
MS1

>  <INSTRUMENT TYPE>  (4381) 
EI-B

>  <INSTRUMENT>  (4381) 
HITACHI M-80

>  <ION MODE>  (4381) 
P

>  <INCHIKEY>  (4381) 
NEBPTMCRLHKPOB-UHFFFAOYSA-N

>  <FORMULA>  (4381) 
C14H11N

>  <EXACT MASS>  (4381) 
193.089149352

>  <MW>  (4381) 
193

>  <ID>  (4381) 
JP005694

>  <CONTRIBUTOR>  (4381) 
University of Tokyo Team, {Faculty of Engineering, University of Tokyo

>  <COMMENT>  (4381) 
SMILES=N#CC(c(c2)cccc2)c(c1)cccc1
cas=86-29-3
InChI=InChI=1S/C14H11N/c15-11-14(12-7-3-1-4-8-12)13-9-5-2-6-10-13/h1-10,14H
computed SMILES=N#CC(C=1C=CC=CC1)C=2C=CC=CC2
accession=JP005694
date=2016.01.19 (Created 2008.10.21, modified 2011.05.06)
author=MASS SPECTROSCOPY SOC. OF JAPAN (MSSJ)
license=CC BY-NC-SA
exact mass=193.08915
ionization energy=70 eV
ion type=[M]+*
computed spectral entropy=2.870819967575494
computed normalized entropy=0.6877224804413671
SPLASH=splash10-0006-2900000000-a9e447bf71fcf2d1d04c
submitter=submitter = University of Tokyo Team (Faculty of Engineering, University of Tokyo)
MoNA Rating=3.75

>  <NUM PEAKS>  (4381) 
65

>  <MASS SPECTRAL PEAKS>  (4381) 
18 0.72
27 0.83
28 0.73
38 0.6
39 3.05
50 2.8
51 8.67
52 1.02
61 0.38
62 1.45
63 3.86
64 1.17
65 1.08
69 0.41
74 1.41
75 1.37
76 1.39
77 6.19
78 0.95
82 1.44
83 1.72
84 0.27
86 0.58
87 1.14
88 1.78
89 7.6
90 4.12
91 0.69
113 0.81
114 1.55
115 6.15
116 8.37
117 0.87
126 0.72
127 0.57
128 0.54
137 0.42
138 0.41
139 2.28
140 1.47
141 0.49
150 0.48
151 0.86
152 2.4
153 1.5
154 0.34
162 0.3
163 2.44
164 3.24
165 36.73
166 17.1
167 3.68
168 0.36
176 0.34
177 1.84
178 4.4
179 0.64
188 0.41
189 0.41
190 5.46
191 3.8
192 16.47
193 99.99
194 15.88
195 1.22

$$$$

     RDKit          2D

 14 14  0  0  0  0  0  0  0  0999 V2000
   -6.4962    0.7508    0.0000 C   0  0  0  0  0  0  0  0  0  0  0  0
   -5.1970    1.5006    0.0000 C   0  0  0  0  0  0  0  0  0  0  0  0
   -1.3000   -0.7500    0.0000 C   0  0  0  0  0  0  0  0  0  0  0  0
    0.0000    1.5000    0.0000 C   0  0  0  0  0  0  0  0  0  0  0  0
    0.0000   -1.5000    0.0000 C   0  0  0  0  0  0  0  0  0  0  0  0
    1.3000    0.7500    0.0000 C   0  0  0  0  0  0  0  0  0  0  0  0
   -1.3000    0.7500    0.0000 C   0  0  0  0  0  0  0  0  0  0  0  0
    1.3000   -0.7500    0.0000 C   0  0  0  0  0  0  0  0  0  0  0  0
   -2.5989    1.5002    0.0000 C   0  0  0  0  0  0  0  0  0  0  0  0
    2.5989   -1.5002    0.0000 N   0  0  0  0  0  0  0  0  0  0  0  0
   -2.5987    3.0002    0.0000 O   0  0  0  0  0  0  0  0  0  0  0  0
    3.8981   -0.7504    0.0000 O   0  0  0  0  0  0  0  0  0  0  0  0
    2.5987   -3.0002    0.0000 O   0  0  0  0  0  0  0  0  0  0  0  0
   -3.8981    0.7504    0.0000 O   0  0  0  0  0  0  0  0  0  0  0  0
  2  1  1  0
  5  3  2  0
  6  4  1  0
  7  3  1  0
  7  4  2  0
  8  5  1  0
  8  6  2  0
  9  7  1  0
 10  8  1  0
 11  9  2  0
 12 10  1  0
 13 10  2  0
 14  2  1  0
 14  9  1  0
M  CHG  2  10   1  12  -1
M  END
>  <NAME>  (4382) 
ETHYL 4-NITROBENZOATE

>  <SYNONYMS>  (4382) 


>  <SPECTRUM TYPE>  (4382) 
MS1

>  <INSTRUMENT TYPE>  (4382) 
EI-B

>  <INSTRUMENT>  (4382) 
HITACHI M-80

>  <ION MODE>  (4382) 
P

>  <INCHIKEY>  (4382) 
PHWSCBWNPZDYRI-UHFFFAOYSA-N

>  <FORMULA>  (4382) 
C9H9NO4

>  <EXACT MASS>  (4382) 
195.053157768

>  <MW>  (4382) 
195

>  <ID>  (4382) 
JP005693

>  <CONTRIBUTOR>  (4382) 
University of Tokyo Team, {Faculty of Engineering, University of Tokyo

>  <COMMENT>  (4382) 
SMILES=CCOC(=O)c(c1)ccc(c1)[N+1]([O-1])=O
cas=99-77-4
InChI=InChI=1S/C9H9NO4/c1-2-14-9(11)7-3-5-8(6-4-7)10(12)13/h3-6H,2H2,1H3
computed SMILES=O=C(OCC)C1=CC=C(C=C1)N(=O)=O
accession=JP005693
date=2016.01.19 (Created 2008.10.21, modified 2011.05.06)
author=MASS SPECTROSCOPY SOC. OF JAPAN (MSSJ)
license=CC BY-NC-SA
exact mass=195.05316
ionization energy=70 eV
ion type=[M]+*
computed spectral entropy=3.304667271806376
computed normalized entropy=0.7702362222824891
SPLASH=splash10-0udi-4900000000-81611d5a561c2c0926e0
submitter=submitter = University of Tokyo Team (Faculty of Engineering, University of Tokyo)
MoNA Rating=3.75

>  <NUM PEAKS>  (4382) 
73

>  <MASS SPECTRAL PEAKS>  (4382) 
15 0.86
18 0.54
26 1.12
27 6.9
28 2.02
29 12.02
30 6
37 0.45
38 1.3
39 2.93
43 1.31
44 0.24
45 12.04
46 0.99
49 0.32
50 16.38
51 4.02
52 0.42
53 1.42
61 0.41
62 1.03
63 3.42
64 3.77
65 14.38
66 1
73 0.79
74 7.65
75 15.52
76 27.44
77 4.2
78 0.56
79 0.33
81 2.36
82 0.17
91 0.6
92 14.86
93 2.77
94 0.33
103 9.7
104 34.01
105 3.33
106 0.44
107 0.25
108 0.15
109 5.28
110 0.38
119 0.36
120 8.35
121 12.88
122 2.2
123 0.43
134 6.73
135 10.38
136 0.98
137 4.52
138 0.4
148 2.56
149 3.11
150 99.99
151 17.39
152 1.87
153 0.24
167 45.8
168 5.55
169 0.68
177 0.71
178 27.01
179 4.8
180 1.81
194 1.49
195 16.58
196 3.6
197 0.41

$$$$

     RDKit          2D

 15 15  0  0  0  0  0  0  0  0999 V2000
    1.5000    3.0000    0.0000 C   0  0  0  0  0  0  0  0  0  0  0  0
    0.0000    4.5000    0.0000 C   0  0  0  0  0  0  0  0  0  0  0  0
   -1.5000    3.0000    0.0000 C   0  0  0  0  0  0  0  0  0  0  0  0
    1.8487   -2.7991    0.0000 C   0  0  0  0  0  0  0  0  0  0  0  0
    3.8978   -2.2504    0.0000 C   0  0  0  0  0  0  0  0  0  0  0  0
    3.3491   -0.2013    0.0000 C   0  0  0  0  0  0  0  0  0  0  0  0
    1.3000    0.7500    0.0000 C   0  0  0  0  0  0  0  0  0  0  0  0
   -1.3000    0.7500    0.0000 C   0  0  0  0  0  0  0  0  0  0  0  0
   -0.0000   -1.5000    0.0000 C   0  0  0  0  0  0  0  0  0  0  0  0
    0.0000    1.5000    0.0000 C   0  0  0  0  0  0  0  0  0  0  0  0
    1.3000   -0.7500    0.0000 C   0  0  0  0  0  0  0  0  0  0  0  0
   -1.3000   -0.7500    0.0000 C   0  0  0  0  0  0  0  0  0  0  0  0
    0.0000    3.0000    0.0000 C   0  0  0  0  0  0  0  0  0  0  0  0
    2.5989   -1.5002    0.0000 C   0  0  0  0  0  0  0  0  0  0  0  0
   -2.5989   -1.5002    0.0000 O   0  0  0  0  0  0  0  0  0  0  0  0
 10  7  2  0
 10  8  1  0
 11  7  1  0
 11  9  2  0
 12  8  2  0
 12  9  1  0
 13  1  1  0
 13  2  1  0
 13  3  1  0
 13 10  1  0
 14  4  1  0
 14  5  1  0
 14  6  1  0
 14 11  1  0
 15 12  1  0
M  END
>  <NAME>  (4383) 
3,5-DI-TERT-BUTYLPHENOL

>  <SYNONYMS>  (4383) 


>  <SPECTRUM TYPE>  (4383) 
MS1

>  <INSTRUMENT TYPE>  (4383) 
EI-B

>  <INSTRUMENT>  (4383) 
HITACHI M-80

>  <ION MODE>  (4383) 
P

>  <INCHIKEY>  (4383) 
ZDWSNKPLZUXBPE-UHFFFAOYSA-N

>  <FORMULA>  (4383) 
C14H22O

>  <EXACT MASS>  (4383) 
206.167065324

>  <MW>  (4383) 
206

>  <ID>  (4383) 
JP005692

>  <CONTRIBUTOR>  (4383) 
University of Tokyo Team, {Faculty of Engineering, University of Tokyo

>  <COMMENT>  (4383) 
SMILES=Oc(c1)cc(cc1C(C)(C)C)C(C)(C)C
cas=1138-52-9
InChI=InChI=1S/C14H22O/c1-13(2,3)10-7-11(14(4,5)6)9-12(15)8-10/h7-9,15H,1-6H3
computed SMILES=OC=1C=C(C=C(C1)C(C)(C)C)C(C)(C)C
accession=JP005692
date=2016.01.19 (Created 2008.10.21, modified 2011.05.06)
author=MASS SPECTROSCOPY SOC. OF JAPAN (MSSJ)
license=CC BY-NC-SA
exact mass=206.16707
ionization energy=70 eV
ion type=[M]+*
computed spectral entropy=2.7850504004349053
computed normalized entropy=0.6355621799277754
SPLASH=splash10-052f-4920000000-27f6ecb662543f1b6f8d
submitter=submitter = University of Tokyo Team (Faculty of Engineering, University of Tokyo)
MoNA Rating=3.75

>  <NUM PEAKS>  (4383) 
80

>  <MASS SPECTRAL PEAKS>  (4383) 
15 0.86
18 0.81
27 1.59
28 0.87
29 4.92
39 2.62
40 0.35
41 9.63
42 0.5
43 0.94
51 1.04
52 0.33
53 1.12
55 2.1
57 32.14
58 1.53
65 1.48
66 0.85
67 0.64
73 1.36
74 1.87
77 2.83
78 0.75
79 1.55
80 0.33
87 0.21
88 1.63
89 0.5
90 0.19
91 4.26
92 0.48
93 0.5
94 0.42
95 0.97
102 0.31
103 1.16
104 0.35
105 2.16
106 0.37
107 4.12
108 0.55
109 0.32
115 2.24
116 0.86
117 1.25
118 0.34
119 1.44
120 0.53
121 1.98
122 0.26
127 0.59
128 0.86
129 0.59
130 0.23
131 1.3
132 0.65
133 1.98
134 0.71
135 3.8
136 0.38
145 0.7
146 0.43
147 2.91
148 0.73
149 0.98
150 0.17
161 1.12
162 0.21
163 3.41
164 0.67
175 1.39
176 0.5
177 0.47
190 0.35
191 99.99
192 15.45
193 1.31
206 36.25
207 5.74
208 0.5

$$$$

     RDKit          2D

  9  9  0  0  0  0  0  0  0  0999 V2000
    1.2990   -2.9500    0.0000 C   0  0  0  0  0  0  0  0  0  0  0  0
   -0.0000   -2.2000    0.0000 C   0  0  0  0  0  0  0  0  0  0  0  0
   -0.7400    1.5900    0.0000 C   0  0  0  0  0  0  0  0  0  0  0  0
    0.7400    1.5900    0.0000 C   0  0  0  0  0  0  0  0  0  0  0  0
   -1.2100    0.1700    0.0000 C   0  0  0  0  0  0  0  0  0  0  0  0
    1.2100    0.1700    0.0000 C   0  0  0  0  0  0  0  0  0  0  0  0
   -0.0000   -0.7000    0.0000 N   0  0  0  0  0  0  0  0  0  0  0  0
   -2.6367   -0.2931    0.0000 O   0  0  0  0  0  0  0  0  0  0  0  0
    2.6367   -0.2931    0.0000 O   0  0  0  0  0  0  0  0  0  0  0  0
  2  1  1  0
  4  3  2  0
  5  3  1  0
  6  4  1  0
  7  2  1  0
  7  5  1  0
  7  6  1  0
  8  5  2  0
  9  6  2  0
M  END
>  <NAME>  (4384) 
N-ETHYLMALEIMIDE

>  <SYNONYMS>  (4384) 


>  <SPECTRUM TYPE>  (4384) 
MS1

>  <INSTRUMENT TYPE>  (4384) 
EI-B

>  <INSTRUMENT>  (4384) 
HITACHI M-80

>  <ION MODE>  (4384) 
P

>  <INCHIKEY>  (4384) 
HDFGOPSGAURCEO-UHFFFAOYSA-N

>  <FORMULA>  (4384) 
C6H7NO2

>  <EXACT MASS>  (4384) 
125.047678464

>  <MW>  (4384) 
125

>  <ID>  (4384) 
JP005691

>  <CONTRIBUTOR>  (4384) 
University of Tokyo Team, {Faculty of Engineering, University of Tokyo

>  <COMMENT>  (4384) 
SMILES=CCn(c(=O)1)c(=O)cc1
cas=128-53-0
InChI=InChI=1S/C6H7NO2/c1-2-7-5(8)3-4-6(7)9/h3-4H,2H2,1H3
computed SMILES=O=C1C=CC(=O)N1CC
accession=JP005691
date=2016.01.19 (Created 2008.10.21, modified 2011.05.06)
author=MASS SPECTROSCOPY SOC. OF JAPAN (MSSJ)
license=CC BY-NC-SA
exact mass=125.04768
ionization energy=70 eV
ion type=[M]+*
computed spectral entropy=3.037313233816875
computed normalized entropy=0.8026324068416074
SPLASH=splash10-004i-9100000000-48f43555ac8c500a19ef
submitter=submitter = University of Tokyo Team (Faculty of Engineering, University of Tokyo)
MoNA Rating=3.75

>  <NUM PEAKS>  (4384) 
44

>  <MASS SPECTRAL PEAKS>  (4384) 
14 3.38
15 14.22
16 2.07
18 6.05
25 7.14
26 99.99
27 49.76
28 79.27
29 20.07
30 4.02
31 2.42
32 7.5
36 1.3
37 6.14
38 9.07
40 31.6
41 37.93
42 67.15
44 37.07
45 2.66
50 1.52
51 2.67
52 6.89
53 38.75
54 68.21
55 24.01
56 19.58
57 1.36
61 0.98
63 0.74
64 0.64
68 1.7
69 3.06
70 2.74
71 1.29
80 2.03
82 21.16
83 1.52
96 2.93
110 64.04
111 3.62
124 1.39
125 57.07
126 4.84

$$$$

     RDKit          2D

 13 14  0  0  0  0  0  0  0  0999 V2000
    3.8989    1.5002    0.0000 C   0  0  0  0  0  0  0  0  0  0  0  0
   -2.6000   -0.7500    0.0000 C   0  0  0  0  0  0  0  0  0  0  0  0
   -2.6000    0.7500    0.0000 C   0  0  0  0  0  0  0  0  0  0  0  0
   -1.3000   -1.5000    0.0000 C   0  0  0  0  0  0  0  0  0  0  0  0
   -1.3000    1.5000    0.0000 C   0  0  0  0  0  0  0  0  0  0  0  0
    2.6000   -0.7500    0.0000 C   0  0  0  0  0  0  0  0  0  0  0  0
    1.3000   -1.5000    0.0000 C   0  0  0  0  0  0  0  0  0  0  0  0
    1.3000    3.0000    0.0000 C   0  0  0  0  0  0  0  0  0  0  0  0
    2.6000    0.7500    0.0000 C   0  0  0  0  0  0  0  0  0  0  0  0
    0.0000   -0.7500    0.0000 C   0  0  0  0  0  0  0  0  0  0  0  0
    0.0000    0.7500    0.0000 C   0  0  0  0  0  0  0  0  0  0  0  0
    1.3000    1.5000    0.0000 C   0  0  0  0  0  0  0  0  0  0  0  0
    2.5990    3.7500    0.0000 Cl  0  0  0  0  0  0  0  0  0  0  0  0
  3  2  2  0
  4  2  1  0
  5  3  1  0
  7  6  2  0
  9  1  1  0
  9  6  1  0
 10  4  2  0
 10  7  1  0
 11  5  2  0
 11 10  1  0
 12  8  1  0
 12  9  2  0
 12 11  1  0
 13  8  1  0
M  END
>  <NAME>  (4385) 
1-CHLOROMETHYL-2-METHYLNAPHTHALENE

>  <SYNONYMS>  (4385) 


>  <SPECTRUM TYPE>  (4385) 
MS1

>  <INSTRUMENT TYPE>  (4385) 
EI-B

>  <INSTRUMENT>  (4385) 
HITACHI M-80

>  <ION MODE>  (4385) 
P

>  <INCHIKEY>  (4385) 
STBYRSZXHDPASK-UHFFFAOYSA-N

>  <FORMULA>  (4385) 
C12H11Cl

>  <EXACT MASS>  (4385) 
190.054928032

>  <MW>  (4385) 
190

>  <ID>  (4385) 
JP005690

>  <CONTRIBUTOR>  (4385) 
University of Tokyo Team, {Faculty of Engineering, University of Tokyo

>  <COMMENT>  (4385) 
SMILES=ClCc(c(C)1)c(c2)c(ccc2)cc1
cas=6626-23-9
InChI=InChI=1S/C12H11Cl/c1-9-6-7-10-4-2-3-5-11(10)12(9)8-13/h2-7H,8H2,1H3
computed SMILES=ClCC=1C=2C=CC=CC2C=CC1C
accession=JP005690
date=2016.01.19 (Created 2008.10.21, modified 2011.05.06)
author=MASS SPECTROSCOPY SOC. OF JAPAN (MSSJ)
license=CC BY-NC-SA
exact mass=190.05493
ionization energy=70 eV
ion type=[M]+*
computed spectral entropy=2.5014486925154227
computed normalized entropy=0.6980425485327905
SPLASH=splash10-0a4i-1900000000-a9b2102546cb48fa0d85
submitter=submitter = University of Tokyo Team (Faculty of Engineering, University of Tokyo)
MoNA Rating=3.75

>  <NUM PEAKS>  (4385) 
36

>  <MASS SPECTRAL PEAKS>  (4385) 
38 1.63
50 1.44
51 2.51
62 1.27
63 3.59
64 2.23
74 1.61
75 2.01
76 5.64
77 3.29
87 1.18
89 1.14
101 0.71
102 1.27
115 5.73
116 0.74
126 1.75
127 4.78
128 8.04
129 4.16
139 3.6
140 0.87
141 1.04
150 0.98
151 2.79
152 9.04
153 12.34
154 7.22
155 99.99
156 12.57
157 0.94
189 0.53
190 38.52
191 5.19
192 12.15
193 1.67

$$$$

     RDKit          2D

 14 15  0  0  0  0  0  0  0  0999 V2000
   -2.6377    0.8500    0.0000 C   0  0  0  0  0  0  0  0  0  0  0  0
    0.0000    2.7800    0.0000 C   0  0  0  0  0  0  0  0  0  0  0  0
    5.4932    1.7699    0.0000 C   0  0  0  0  0  0  0  0  0  0  0  0
    5.1780    0.3026    0.0000 C   0  0  0  0  0  0  0  0  0  0  0  0
    4.3807    2.7773    0.0000 C   0  0  0  0  0  0  0  0  0  0  0  0
    3.7502   -0.1574    0.0000 C   0  0  0  0  0  0  0  0  0  0  0  0
    2.9530    2.3173    0.0000 C   0  0  0  0  0  0  0  0  0  0  0  0
   -0.7500   -1.0300    0.0000 C   0  0  0  0  0  0  0  0  0  0  0  0
   -1.2100    0.3900    0.0000 C   0  0  0  0  0  0  0  0  0  0  0  0
    2.6377    0.8500    0.0000 C   0  0  0  0  0  0  0  0  0  0  0  0
    0.7500   -1.0300    0.0000 C   0  0  0  0  0  0  0  0  0  0  0  0
    0.0000    1.2800    0.0000 N   0  0  0  0  0  0  0  0  0  0  0  0
    1.2100    0.3900    0.0000 N   0  0  0  0  0  0  0  0  0  0  0  0
    1.6322   -2.2431    0.0000 O   0  0  0  0  0  0  0  0  0  0  0  0
  4  3  2  0
  5  3  1  0
  6  4  1  0
  7  5  2  0
  9  1  1  0
  9  8  2  0
 10  6  2  0
 10  7  1  0
 11  8  1  0
 12  2  1  0
 12  9  1  0
 13 10  1  0
 13 11  1  0
 13 12  1  0
 14 11  2  0
M  END
>  <NAME>  (4386) 
ANTIPYRINE

>  <SYNONYMS>  (4386) 
2,3-DIMETHYL-1-PHENYL-3-PYRAZOLINE-5-ONE

>  <SPECTRUM TYPE>  (4386) 
MS1

>  <INSTRUMENT TYPE>  (4386) 
EI-B

>  <INSTRUMENT>  (4386) 
HITACHI M-80

>  <ION MODE>  (4386) 
P

>  <INCHIKEY>  (4386) 
VEQOALNAAJBPNY-UHFFFAOYSA-N

>  <FORMULA>  (4386) 
C11H12N2O

>  <EXACT MASS>  (4386) 
188.094963004

>  <MW>  (4386) 
188

>  <ID>  (4386) 
JP005689

>  <CONTRIBUTOR>  (4386) 
University of Tokyo Team, {Faculty of Engineering, University of Tokyo

>  <COMMENT>  (4386) 
SMILES=CC(=C2)N(C)N(C(=O)2)c(c1)cccc1
cas=60-80-0
InChI=InChI=1S/C11H12N2O/c1-9-8-11(14)13(12(9)2)10-6-4-3-5-7-10/h3-8H,1-2H3
computed SMILES=O=C1C=C(N(N1C=2C=CC=CC2)C)C
accession=JP005689
date=2016.01.19 (Created 2008.10.21, modified 2011.05.06)
author=MASS SPECTROSCOPY SOC. OF JAPAN (MSSJ)
license=CC BY-NC-SA
exact mass=188.09496
ionization energy=70 eV
ion type=[M]+*
computed spectral entropy=3.371053447639874
computed normalized entropy=0.7882433077135939
SPLASH=splash10-000i-9600000000-297680e0a5f2e22c7de5
submitter=submitter = University of Tokyo Team (Faculty of Engineering, University of Tokyo)
MoNA Rating=3.75

>  <NUM PEAKS>  (4386) 
72

>  <MASS SPECTRAL PEAKS>  (4386) 
15 2.59
26 3.38
27 4.56
28 1.08
36 0.9
37 2.87
39 13.72
40 4.36
42 4.62
43 3.11
50 2.74
51 11.79
52 2.47
53 1.16
54 3.19
55 9.72
56 25.96
57 1.56
62 0.82
63 4.33
64 6.75
65 4.59
66 1.21
67 4.18
68 4.25
69 1.94
75 0.7
76 1.25
77 42.47
78 3.48
79 0.65
82 9.02
83 1.38
84 6.89
89 0.55
90 0.88
91 6.85
92 4.61
93 9.44
94 2.62
95 1.28
96 53.69
97 3.45
103 1.43
104 3.93
105 17.73
106 9.02
107 1.45
115 5
116 3.45
117 2.79
118 3.04
119 1.16
121 2.01
128 0.95
129 3.07
130 3.21
131 1.89
132 1.39
133 0.59
144 1.88
145 2.55
146 1.71
158 1.3
159 4.02
160 1.85
173 5.32
174 0.84
187 9.92
188 99.99
189 14.7
190 1.27

$$$$

     RDKit          2D

 14 16  0  0  0  0  0  0  0  0999 V2000
   -5.1124    1.5545    0.0000 C   0  0  0  0  0  0  0  0  0  0  0  0
   -5.1124    0.0545    0.0000 C   0  0  0  0  0  0  0  0  0  0  0  0
   -3.8134    2.3045    0.0000 C   0  0  0  0  0  0  0  0  0  0  0  0
   -3.8134   -0.6955    0.0000 C   0  0  0  0  0  0  0  0  0  0  0  0
    1.3828    0.8045    0.0000 C   0  0  0  0  0  0  0  0  0  0  0  0
    2.3469   -0.3445    0.0000 H   0  0  0  0  0  0  0  0  0  0  0  0
    2.3469    1.9536    0.0000 H   0  0  0  0  0  0  0  0  0  0  0  0
   -2.5144    1.5545    0.0000 C   0  0  0  0  0  0  0  0  0  0  0  0
    0.0837    1.5545    0.0000 C   0  0  0  0  0  0  0  0  0  0  0  0
   -2.5144    0.0545    0.0000 C   0  0  0  0  0  0  0  0  0  0  0  0
    0.0837    0.0545    0.0000 C   0  0  0  0  0  0  0  0  0  0  0  0
   -1.2153    2.3045    0.0000 C   0  0  0  0  0  0  0  0  0  0  0  0
   -1.2153    3.8045    0.0000 O   0  0  0  0  0  0  0  0  0  0  0  0
   -1.2153   -0.6955    0.0000 O   0  0  0  0  0  0  0  0  0  0  0  0
  5  6  1  0
  5  7  1  0
  2  1  2  0
  3  1  1  0
  4  2  1  0
  8  3  2  0
  9  5  1  0
 10  4  2  0
 10  8  1  0
 11  5  1  0
 11  9  1  0
 12  8  1  0
 12  9  1  0
 13 12  2  0
 14 10  1  0
 14 11  1  0
M  ISO  2   6   2   7   2
M  END
>  <NAME>  (4387) 
3,4-BENZO-2-OXABICYCLO(4.1.0)HEPT-3-EN-5-ONE(7,7-D2)

>  <SYNONYMS>  (4387) 


>  <SPECTRUM TYPE>  (4387) 
MS1

>  <INSTRUMENT TYPE>  (4387) 
EI-B

>  <INSTRUMENT>  (4387) 
HITACHI RMS-4

>  <ION MODE>  (4387) 
P

>  <INCHIKEY>  (4387) 
DQYKWUOLGDGKNU-BFWBPSQCSA-N

>  <FORMULA>  (4387) 
C10H8O2

>  <EXACT MASS>  (4387) 
162.064982988

>  <MW>  (4387) 
162

>  <ID>  (4387) 
JP005559

>  <CONTRIBUTOR>  (4387) 
University of Tokyo Team, {Faculty of Engineering, University of Tokyo

>  <COMMENT>  (4387) 
SMILES=O=C(c32)C(C(Oc(cccc3)2)1)C([2H])([2H])1
InChI=InChI=1S/C10H8O2/c11-10-6-3-1-2-4-8(6)12-9-5-7(9)10/h1-4,7,9H,5H2/i5D2
computed SMILES=[H]C1([H])C2OC=3C=CC=CC3C(=O)C21
accession=JP005559
date=2016.01.19 (Created 2008.10.21, modified 2011.05.06)
author=MASS SPECTROSCOPY SOC. OF JAPAN (MSSJ)
license=CC BY-NC-SA
exact mass=160.05243
ionization energy=70 eV
ion type=[M]+*
computed spectral entropy=3.072969226849949
computed normalized entropy=0.8072607527218314
SPLASH=splash10-0il0-6900000000-ad5299a7cbc4e09fc159
submitter=submitter = University of Tokyo Team (Faculty of Engineering, University of Tokyo)
MoNA Rating=3.75

>  <NUM PEAKS>  (4387) 
45

>  <MASS SPECTRAL PEAKS>  (4387) 
40 5
41 38
42 24
43 0.45
44 15
45 3
50 22
51 0.16
53 12
54 5
55 3
56 0.05
57 9
59 5
61 2
62 0.07
63 16
64 11
65 4
66 0.03
67 4
74 9
75 11
76 0.54
77 20
78 16
79 16
90 0.11
91 4
103 5
104 54
105 0.24
106 9
120 14
121 7
131 0.09
132 57
133 53
134 18
135 0.09
160 12
161 43
162 99.99
163 0.09
164 2

$$$$

     RDKit          2D

 12 14  0  0  0  0  0  0  0  0999 V2000
    0.9743   -0.5625    0.0000 C   0  0  0  0  0  0  0  0  0  0  0  0
    0.9743    0.9375    0.0000 C   0  0  0  0  0  0  0  0  0  0  0  0
   -0.3248   -1.3125    0.0000 C   0  0  0  0  0  0  0  0  0  0  0  0
   -0.3248    1.6875    0.0000 C   0  0  0  0  0  0  0  0  0  0  0  0
   -5.5209    0.1875    0.0000 C   0  0  0  0  0  0  0  0  0  0  0  0
   -1.6238   -0.5625    0.0000 C   0  0  0  0  0  0  0  0  0  0  0  0
   -4.2219   -0.5625    0.0000 C   0  0  0  0  0  0  0  0  0  0  0  0
   -1.6238    0.9375    0.0000 C   0  0  0  0  0  0  0  0  0  0  0  0
   -4.2219    0.9375    0.0000 C   0  0  0  0  0  0  0  0  0  0  0  0
   -2.9228   -1.3125    0.0000 C   0  0  0  0  0  0  0  0  0  0  0  0
   -2.9228   -2.8125    0.0000 O   0  0  0  0  0  0  0  0  0  0  0  0
   -2.9228    1.6875    0.0000 O   0  0  0  0  0  0  0  0  0  0  0  0
  2  1  2  0
  3  1  1  0
  4  2  1  0
  6  3  2  0
  7  5  1  0
  8  4  2  0
  8  6  1  0
  9  5  1  0
  9  7  1  0
 10  6  1  0
 10  7  1  0
 11 10  2  0
 12  8  1  0
 12  9  1  0
M  END
>  <NAME>  (4388) 
3,4-BENZO-2-OXABICYCLO(4.1.0)HEPT-3-EN-5-ONE

>  <SYNONYMS>  (4388) 


>  <SPECTRUM TYPE>  (4388) 
MS1

>  <INSTRUMENT TYPE>  (4388) 
EI-B

>  <INSTRUMENT>  (4388) 
HITACHI RMS-4

>  <ION MODE>  (4388) 
P

>  <INCHIKEY>  (4388) 
DQYKWUOLGDGKNU-UHFFFAOYSA-N

>  <FORMULA>  (4388) 
C10H8O2

>  <EXACT MASS>  (4388) 
160.052429496

>  <MW>  (4388) 
160

>  <ID>  (4388) 
JP005558

>  <CONTRIBUTOR>  (4388) 
University of Tokyo Team, {Faculty of Engineering, University of Tokyo

>  <COMMENT>  (4388) 
SMILES=O=C(c32)C(C1)C(Oc(cccc3)2)1
InChI=InChI=1S/C10H8O2/c11-10-6-3-1-2-4-8(6)12-9-5-7(9)10/h1-4,7,9H,5H2
computed SMILES=O=C1C=2C=CC=CC2OC3CC13
accession=JP005558
date=2016.01.19 (Created 2008.10.21, modified 2011.05.06)
author=MASS SPECTROSCOPY SOC. OF JAPAN (MSSJ)
license=CC BY-NC-SA
exact mass=160.05243
ionization energy=70 eV
ion type=[M]+*
computed spectral entropy=2.8579881246496237
computed normalized entropy=0.7856825925642398
SPLASH=splash10-0ik9-6900000000-fb91a28511ac942b1fef
submitter=submitter = University of Tokyo Team (Faculty of Engineering, University of Tokyo)
MoNA Rating=3.75

>  <NUM PEAKS>  (4388) 
38

>  <MASS SPECTRAL PEAKS>  (4388) 
39 3
40 29
41 7
42 0.09
50 19
51 13
52 4
53 0.04
55 12
60 7
61 3
62 0.03
63 12
64 11
65 7
66 0.05
73 2
74 7
75 8
76 0.64
77 20
78 9
79 2
92 0.04
102 3
103 19
104 43
105 0.09
119 3
120 9
121 7
131 0.69
132 20
133 4
134 3
159 0.04
160 99.99
161 15

$$$$

     RDKit          2D

 14 16  0  0  0  0  0  0  0  0999 V2000
   -1.2990    3.7500    0.0000 C   0  0  0  0  0  0  0  0  0  0  0  0
    0.7500    2.7990    0.0000 C   0  0  0  0  0  0  0  0  0  0  0  0
    0.7500   -1.2990    0.0000 C   0  0  0  0  0  0  0  0  0  0  0  0
   -5.1962    1.5000    0.0000 C   0  0  0  0  0  0  0  0  0  0  0  0
   -5.1962   -0.0000    0.0000 C   0  0  0  0  0  0  0  0  0  0  0  0
   -3.8971    2.2500    0.0000 C   0  0  0  0  0  0  0  0  0  0  0  0
   -3.8971   -0.7500    0.0000 C   0  0  0  0  0  0  0  0  0  0  0  0
    1.2990    0.7500    0.0000 C   0  0  0  0  0  0  0  0  0  0  0  0
   -1.2990    2.2500    0.0000 C   0  0  0  0  0  0  0  0  0  0  0  0
   -2.5981    1.5000    0.0000 C   0  0  0  0  0  0  0  0  0  0  0  0
   -2.5981   -0.0000    0.0000 C   0  0  0  0  0  0  0  0  0  0  0  0
    0.0000    1.5000    0.0000 C   0  0  0  0  0  0  0  0  0  0  0  0
    0.0000    0.0000    0.0000 C   0  0  0  0  0  0  0  0  0  0  0  0
   -1.2990   -0.7500    0.0000 O   0  0  0  0  0  0  0  0  0  0  0  0
  5  4  2  0
  6  4  1  0
  7  5  1  0
  9  1  2  0
 10  6  2  0
 10  9  1  0
 11  7  2  0
 11 10  1  0
 12  2  1  0
 12  8  1  0
 12  9  1  0
 13  3  1  0
 13  8  1  0
 13 12  1  0
 14 11  1  0
 14 13  1  0
M  END
>  <NAME>  (4389) 
1,6-DIMETHYL-5-METHYLENE-3,4-BENZO-2-OXABICYCLO(4.1.0)HEPT-3-ENE

>  <SYNONYMS>  (4389) 


>  <SPECTRUM TYPE>  (4389) 
MS1

>  <INSTRUMENT TYPE>  (4389) 
EI-B

>  <INSTRUMENT>  (4389) 
HITACHI RMS-4

>  <ION MODE>  (4389) 
P

>  <INCHIKEY>  (4389) 
SBDZNYORKBFULW-UHFFFAOYSA-N

>  <FORMULA>  (4389) 
C13H14O

>  <EXACT MASS>  (4389) 
186.104465068

>  <MW>  (4389) 
186

>  <ID>  (4389) 
JP005557

>  <CONTRIBUTOR>  (4389) 
University of Tokyo Team, {Faculty of Engineering, University of Tokyo

>  <COMMENT>  (4389) 
SMILES=c(c3)cc(O1)c(c3)C(=C)C(C)(C2)C(C)12
InChI=InChI=1S/C13H14O/c1-9-10-6-4-5-7-11(10)14-13(3)8-12(9,13)2/h4-7H,1,8H2,2-3H3
computed SMILES=O1C=2C=CC=CC2C(=C)C3(C)CC13C
accession=JP005557
date=2016.01.19 (Created 2008.10.21, modified 2011.05.06)
author=MASS SPECTROSCOPY SOC. OF JAPAN (MSSJ)
license=CC BY-NC-SA
exact mass=186.10447
ionization energy=70 eV
ion type=[M]+*
computed spectral entropy=3.7715160116971793
computed normalized entropy=0.9103049407669118
SPLASH=splash10-002v-4900000000-662d9f011fb835a1160c
submitter=submitter = University of Tokyo Team (Faculty of Engineering, University of Tokyo)
MoNA Rating=3.75

>  <NUM PEAKS>  (4389) 
63

>  <MASS SPECTRAL PEAKS>  (4389) 
39 33
41 14
43 45
50 9
51 24
52 8
53 10
55 7
62 7
63 22
64 9
65 17
74 7
75 10
76 9
77 27
78 9
79 7
89 13
90 6
91 25
92 8
101 6
102 10
103 11
105 5
107 12
115 39
116 9
117 6
118 5
126 4
127 20
128 66
129 18
130 4
131 27
132 8
133 4
139 5
141 18
142 12
143 33
144 12
145 35
146 35
147 7
152 10
153 11
154 4
155 4
156 5
157 9
158 10
159 8
169 9
170 6
171 66
172 16
185 24
186 99.99
187 16
188 3

$$$$

     RDKit          2D

 13 15  0  0  0  0  0  0  0  0999 V2000
    1.2990    2.2500    0.0000 C   0  0  0  0  0  0  0  0  0  0  0  0
    1.5000   -0.0000    0.0000 C   0  0  0  0  0  0  0  0  0  0  0  0
   -2.5981    4.5000    0.0000 C   0  0  0  0  0  0  0  0  0  0  0  0
   -3.8971    3.7500    0.0000 C   0  0  0  0  0  0  0  0  0  0  0  0
   -1.2990    3.7500    0.0000 C   0  0  0  0  0  0  0  0  0  0  0  0
   -3.8971    2.2500    0.0000 C   0  0  0  0  0  0  0  0  0  0  0  0
   -0.0000   -1.5000    0.0000 C   0  0  0  0  0  0  0  0  0  0  0  0
    0.0000    1.5000    0.0000 C   0  0  0  0  0  0  0  0  0  0  0  0
   -1.2990    2.2500    0.0000 C   0  0  0  0  0  0  0  0  0  0  0  0
   -2.5981    1.5000    0.0000 C   0  0  0  0  0  0  0  0  0  0  0  0
   -1.2990   -0.7500    0.0000 C   0  0  0  0  0  0  0  0  0  0  0  0
    0.0000    0.0000    0.0000 C   0  0  0  0  0  0  0  0  0  0  0  0
   -2.5981   -0.0000    0.0000 O   0  0  0  0  0  0  0  0  0  0  0  0
  4  3  2  0
  5  3  1  0
  6  4  1  0
  8  1  2  0
  9  5  2  0
  9  8  1  0
 10  6  2  0
 10  9  1  0
 11  7  1  0
 12  2  1  0
 12  7  1  0
 12  8  1  0
 12 11  1  0
 13 10  1  0
 13 11  1  0
M  END
>  <NAME>  (4390) 
6-METHYL-5-METHYLENE-3,4-BENZO-2-OXABICYCLO(4.1.0)HEPT-3-ENE

>  <SYNONYMS>  (4390) 


>  <SPECTRUM TYPE>  (4390) 
MS1

>  <INSTRUMENT TYPE>  (4390) 
EI-B

>  <INSTRUMENT>  (4390) 
HITACHI RMS-4

>  <ION MODE>  (4390) 
P

>  <INCHIKEY>  (4390) 
UFRUXWQYRJYVNJ-UHFFFAOYSA-N

>  <FORMULA>  (4390) 
C12H12O

>  <EXACT MASS>  (4390) 
172.088815004

>  <MW>  (4390) 
172

>  <ID>  (4390) 
JP005556

>  <CONTRIBUTOR>  (4390) 
University of Tokyo Team, {Faculty of Engineering, University of Tokyo

>  <COMMENT>  (4390) 
SMILES=c(c3)cc(O1)c(c3)C(=C)C(C)(C2)C12
InChI=InChI=1S/C12H12O/c1-8-9-5-3-4-6-10(9)13-11-7-12(8,11)2/h3-6,11H,1,7H2,2H3
computed SMILES=O1C=2C=CC=CC2C(=C)C3(C)CC13
accession=JP005556
date=2016.01.19 (Created 2008.10.21, modified 2011.05.06)
author=MASS SPECTROSCOPY SOC. OF JAPAN (MSSJ)
license=CC BY-NC-SA
exact mass=172.08882
ionization energy=70 eV
ion type=[M]+*
computed spectral entropy=3.4469837750761383
computed normalized entropy=0.9222280530667298
SPLASH=splash10-05i0-4900000000-c62cfdfbf178bf859e70
submitter=submitter = University of Tokyo Team (Faculty of Engineering, University of Tokyo)
MoNA Rating=3.75

>  <NUM PEAKS>  (4390) 
42

>  <MASS SPECTRAL PEAKS>  (4390) 
39 36
41 14
43 21
50 17
51 35
63 25
64 13
65 16
74 7
75 11
76 14
77 25
78 10
79 3
89 12
91 16
102 12
103 12
104 7
105 5
107 11
115 30
117 27
119 15
121 10
127 23
128 54
129 38
130 7
131 35
134 8
141 5
144 8
145 28
146 10
157 66
158 11
171 32
172 99.99
173 17
174 17
175 5

$$$$

     RDKit          2D

 16 17  0  0  0  0  0  0  0  0999 V2000
    3.8989   -1.5002    0.0000 C   0  0  0  0  0  0  0  0  0  0  0  0
    3.8989    1.5002    0.0000 C   0  0  0  0  0  0  0  0  0  0  0  0
    4.6491    0.2013    0.0000 H   0  0  0  0  0  0  0  0  0  0  0  0
    5.1978    2.2504    0.0000 H   0  0  0  0  0  0  0  0  0  0  0  0
    3.1487    2.7991    0.0000 H   0  0  0  0  0  0  0  0  0  0  0  0
   -2.6000   -0.7500    0.0000 C   0  0  0  0  0  0  0  0  0  0  0  0
   -2.6000    0.7500    0.0000 C   0  0  0  0  0  0  0  0  0  0  0  0
   -1.3000   -1.5000    0.0000 C   0  0  0  0  0  0  0  0  0  0  0  0
   -1.3000    1.5000    0.0000 C   0  0  0  0  0  0  0  0  0  0  0  0
    2.6000   -0.7500    0.0000 C   0  0  0  0  0  0  0  0  0  0  0  0
    2.6000    0.7500    0.0000 C   0  0  0  0  0  0  0  0  0  0  0  0
    0.0000   -0.7500    0.0000 C   0  0  0  0  0  0  0  0  0  0  0  0
    0.0000    0.7500    0.0000 C   0  0  0  0  0  0  0  0  0  0  0  0
    1.3000   -1.5000    0.0000 C   0  0  0  0  0  0  0  0  0  0  0  0
    1.3000   -3.0000    0.0000 O   0  0  0  0  0  0  0  0  0  0  0  0
    1.3000    1.5000    0.0000 O   0  0  0  0  0  0  0  0  0  0  0  0
  2  3  1  0
  2  4  1  0
  2  5  1  0
  7  6  2  0
  8  6  1  0
  9  7  1  0
 10  1  1  0
 11  2  1  0
 11 10  2  0
 12  8  2  0
 13  9  2  0
 13 12  1  0
 14 10  1  0
 14 12  1  0
 15 14  2  0
 16 11  1  0
 16 13  1  0
M  ISO  3   3   2   4   2   5   2
M  END
>  <NAME>  (4391) 
2-METHYL-3-METHYLBENZOPYRAN-4-ONE (2,2,2-D3)

>  <SYNONYMS>  (4391) 
2-METHYL-3-METHYLCHROMONE (2,2,2-D3)

>  <SPECTRUM TYPE>  (4391) 
MS1

>  <INSTRUMENT TYPE>  (4391) 
EI-B

>  <INSTRUMENT>  (4391) 
HITACHI RMU-7L

>  <ION MODE>  (4391) 
P

>  <INCHIKEY>  (4391) 
KQLDYIIDXBUUCK-BMSJAHLVSA-N

>  <FORMULA>  (4391) 
C11H10O2

>  <EXACT MASS>  (4391) 
177.086909798

>  <MW>  (4391) 
177

>  <ID>  (4391) 
JP005555

>  <CONTRIBUTOR>  (4391) 
University of Tokyo Team, {Faculty of Engineering, University of Tokyo

>  <COMMENT>  (4391) 
SMILES=[2H]C([2H])([2H])C(O1)=C(C)C(=O)c(c2)c(ccc2)1
InChI=InChI=1S/C11H10O2/c1-7-8(2)13-10-6-4-3-5-9(10)11(7)12/h3-6H,1-2H3/i2D3
computed SMILES=[H]C([H])([H])C=1OC=2C=CC=CC2C(=O)C1C
accession=JP005555
date=2016.01.19 (Created 2008.10.21, modified 2011.05.06)
author=MASS SPECTROSCOPY SOC. OF JAPAN (MSSJ)
license=CC BY-NC-SA
exact mass=174.06808
ionization energy=70 eV
ion type=[M]+*
computed spectral entropy=3.3288407778547393
computed normalized entropy=0.8097647575290328
SPLASH=splash10-00b9-4900000000-9752aafadb5550594a58
submitter=submitter = University of Tokyo Team (Faculty of Engineering, University of Tokyo)
MoNA Rating=3.75

>  <NUM PEAKS>  (4391) 
61

>  <MASS SPECTRAL PEAKS>  (4391) 
50 13
51 8
52 2
53 5
54 2
55 6
56 6
57 1
61 2
62 4
63 7
64 15
65 15
74 3
75 5
76 10
77 11
78 4
79 1
83 2
84 2
89 1
90 2
91 2
92 37
93 11
94 3
95 2
101 1
102 2
103 5
104 6
105 5
106 2
107 1
117 2
118 1
119 1
120 20
121 65
122 32
123 1
130 6
131 13
132 8
133 3
146 1
147 2
148 13
149 13
158 1
159 12
160 6
161 1
174 1
175 8
176 35
177 99.99
178 25
179 3
180 1

$$$$

     RDKit          2D

 13 14  0  0  0  0  0  0  0  0999 V2000
    3.8989   -1.5002    0.0000 C   0  0  0  0  0  0  0  0  0  0  0  0
    3.8989    1.5002    0.0000 C   0  0  0  0  0  0  0  0  0  0  0  0
   -2.6000   -0.7500    0.0000 C   0  0  0  0  0  0  0  0  0  0  0  0
   -2.6000    0.7500    0.0000 C   0  0  0  0  0  0  0  0  0  0  0  0
   -1.3000   -1.5000    0.0000 C   0  0  0  0  0  0  0  0  0  0  0  0
   -1.3000    1.5000    0.0000 C   0  0  0  0  0  0  0  0  0  0  0  0
    2.6000   -0.7500    0.0000 C   0  0  0  0  0  0  0  0  0  0  0  0
    2.6000    0.7500    0.0000 C   0  0  0  0  0  0  0  0  0  0  0  0
    0.0000   -0.7500    0.0000 C   0  0  0  0  0  0  0  0  0  0  0  0
    0.0000    0.7500    0.0000 C   0  0  0  0  0  0  0  0  0  0  0  0
    1.3000   -1.5000    0.0000 C   0  0  0  0  0  0  0  0  0  0  0  0
    1.3000   -3.0000    0.0000 O   0  0  0  0  0  0  0  0  0  0  0  0
    1.3000    1.5000    0.0000 O   0  0  0  0  0  0  0  0  0  0  0  0
  4  3  2  0
  5  3  1  0
  6  4  1  0
  7  1  1  0
  8  2  1  0
  8  7  2  0
  9  5  2  0
 10  6  2  0
 10  9  1  0
 11  7  1  0
 11  9  1  0
 12 11  2  0
 13  8  1  0
 13 10  1  0
M  END
>  <NAME>  (4392) 
2,3-DIMETHYLBENZOPYRAN-4-ONE

>  <SYNONYMS>  (4392) 
2,3-DIMETHYLCHROMONE

>  <SPECTRUM TYPE>  (4392) 
MS1

>  <INSTRUMENT TYPE>  (4392) 
EI-B

>  <INSTRUMENT>  (4392) 
HITACHI RMU-7L

>  <ION MODE>  (4392) 
P

>  <INCHIKEY>  (4392) 
KQLDYIIDXBUUCK-UHFFFAOYSA-N

>  <FORMULA>  (4392) 
C11H10O2

>  <EXACT MASS>  (4392) 
174.06807956

>  <MW>  (4392) 
174

>  <ID>  (4392) 
JP005554

>  <CONTRIBUTOR>  (4392) 
University of Tokyo Team, {Faculty of Engineering, University of Tokyo

>  <COMMENT>  (4392) 
SMILES=CC(O1)=C(C)C(=O)c(c2)c(ccc2)1
InChI=InChI=1S/C11H10O2/c1-7-8(2)13-10-6-4-3-5-9(10)11(7)12/h3-6H,1-2H3
computed SMILES=O=C1C=2C=CC=CC2OC(=C1C)C
accession=JP005554
date=2016.01.19 (Created 2008.10.21, modified 2011.05.06)
author=MASS SPECTROSCOPY SOC. OF JAPAN (MSSJ)
license=CC BY-NC-SA
exact mass=174.06808
ionization energy=70 eV
ion type=[M]+*
computed spectral entropy=3.4226039906175134
computed normalized entropy=0.8292930811798898
SPLASH=splash10-00di-9800000000-ce02fa82faf5ba848c30
submitter=submitter = University of Tokyo Team (Faculty of Engineering, University of Tokyo)
MoNA Rating=3.75

>  <NUM PEAKS>  (4392) 
62

>  <MASS SPECTRAL PEAKS>  (4392) 
49 2
50 25
51 23
52 4
53 26
54 2
55 8
61 5
62 11
63 37
64 35
65 27
66 3
67 3
68 1
72 1
73 4
74 10
75 15
76 17
77 2
78 1
81 3
82 1
83 2
87 5
88 1
89 4
90 1
91 8
92 40
93 13
94 8
101 1
102 3
103 8
104 7
105 7
115 6
116 1
117 2
118 1
119 1
120 19
121 73
122 9
123 2
130 1
131 19
132 6
133 1
145 22
146 7
147 5
148 2
159 18
160 3
163 5
173 5
174 99.99
175 10
176 2

$$$$

     RDKit          2D

 14 16  0  0  0  0  0  0  0  0999 V2000
   -2.0490    3.5490    0.0000 C   0  0  0  0  0  0  0  0  0  0  0  0
    1.5000    1.5000    0.0000 C   0  0  0  0  0  0  0  0  0  0  0  0
   -3.8971   -2.2500    0.0000 C   0  0  0  0  0  0  0  0  0  0  0  0
   -2.5981   -3.0000    0.0000 C   0  0  0  0  0  0  0  0  0  0  0  0
   -3.8971   -0.7500    0.0000 C   0  0  0  0  0  0  0  0  0  0  0  0
   -1.2990   -2.2500    0.0000 C   0  0  0  0  0  0  0  0  0  0  0  0
    0.0000    3.0000    0.0000 C   0  0  0  0  0  0  0  0  0  0  0  0
   -2.5981    0.0000    0.0000 C   0  0  0  0  0  0  0  0  0  0  0  0
   -1.2990   -0.7500    0.0000 C   0  0  0  0  0  0  0  0  0  0  0  0
   -2.5981    1.5000    0.0000 C   0  0  0  0  0  0  0  0  0  0  0  0
   -1.2990    2.2500    0.0000 C   0  0  0  0  0  0  0  0  0  0  0  0
    0.0000    1.5000    0.0000 C   0  0  0  0  0  0  0  0  0  0  0  0
   -3.8971    2.2500    0.0000 O   0  0  0  0  0  0  0  0  0  0  0  0
    0.0000   -0.0000    0.0000 O   0  0  0  0  0  0  0  0  0  0  0  0
  4  3  2  0
  5  3  1  0
  6  4  1  0
  8  5  2  0
  9  6  2  0
  9  8  1  0
 10  8  1  0
 11  1  1  0
 11  7  1  0
 11 10  1  0
 12  2  1  0
 12  7  1  0
 12 11  1  0
 13 10  2  0
 14  9  1  0
 14 12  1  0
M  END
>  <NAME>  (4393) 
1,6-DIMETHYL-3,4-BENZO-2-OXABICYCLO(4.1.0)HEPT-3-EN-5-ONE

>  <SYNONYMS>  (4393) 


>  <SPECTRUM TYPE>  (4393) 
MS1

>  <INSTRUMENT TYPE>  (4393) 
EI-B

>  <INSTRUMENT>  (4393) 
HITACHI RMU-7L

>  <ION MODE>  (4393) 
P

>  <INCHIKEY>  (4393) 
IKUPBRUXXGSVLP-UHFFFAOYSA-N

>  <FORMULA>  (4393) 
C12H12O2

>  <EXACT MASS>  (4393) 
188.083729624

>  <MW>  (4393) 
188

>  <ID>  (4393) 
JP005553

>  <CONTRIBUTOR>  (4393) 
University of Tokyo Team, {Faculty of Engineering, University of Tokyo

>  <COMMENT>  (4393) 
SMILES=c(c3)cc(O1)c(c3)C(=O)C(C)(C2)C(C)12
InChI=InChI=1S/C12H12O2/c1-11-7-12(11,2)14-9-6-4-3-5-8(9)10(11)13/h3-6H,7H2,1-2H3
computed SMILES=O=C1C=2C=CC=CC2OC3(C)CC13C
accession=JP005553
date=2016.01.19 (Created 2008.10.21, modified 2011.05.06)
author=MASS SPECTROSCOPY SOC. OF JAPAN (MSSJ)
license=CC BY-NC-SA
exact mass=188.08373
ionization energy=70 eV
ion type=[M]+*
computed spectral entropy=3.449568633132644
computed normalized entropy=0.8910848657594341
SPLASH=splash10-0076-7900000000-8f8e2e16534c01d74732
submitter=submitter = University of Tokyo Team (Faculty of Engineering, University of Tokyo)
MoNA Rating=3.75

>  <NUM PEAKS>  (4393) 
48

>  <MASS SPECTRAL PEAKS>  (4393) 
41 43
43 54
50 13
51 16
53 13
63 17
64 14
65 31
66 5
67 21
69 12
76 28
77 14
78 5
91 15
92 14
93 8
94 41
95 5
104 20
105 4
107 3
115 14
116 6
117 12
118 5
120 4
121 47
122 5
131 11
132 4
144 4
145 49
146 14
147 8
148 23
159 18
160 6
161 2
171 7
172 3
173 27
174 6
175 1
187 10
188 99.99
189 24
190 1

$$$$

     RDKit          2D

 13 15  0  0  0  0  0  0  0  0999 V2000
    1.5000   -0.0000    0.0000 C   0  0  0  0  0  0  0  0  0  0  0  0
   -2.5981    4.5000    0.0000 C   0  0  0  0  0  0  0  0  0  0  0  0
   -3.8971    3.7500    0.0000 C   0  0  0  0  0  0  0  0  0  0  0  0
   -1.2990    3.7500    0.0000 C   0  0  0  0  0  0  0  0  0  0  0  0
   -3.8971    2.2500    0.0000 C   0  0  0  0  0  0  0  0  0  0  0  0
   -0.0000   -1.5000    0.0000 C   0  0  0  0  0  0  0  0  0  0  0  0
   -1.2990    2.2500    0.0000 C   0  0  0  0  0  0  0  0  0  0  0  0
   -2.5981    1.5000    0.0000 C   0  0  0  0  0  0  0  0  0  0  0  0
   -1.2990   -0.7500    0.0000 C   0  0  0  0  0  0  0  0  0  0  0  0
    0.0000    1.5000    0.0000 C   0  0  0  0  0  0  0  0  0  0  0  0
    0.0000    0.0000    0.0000 C   0  0  0  0  0  0  0  0  0  0  0  0
    1.2990    2.2500    0.0000 O   0  0  0  0  0  0  0  0  0  0  0  0
   -2.5981   -0.0000    0.0000 O   0  0  0  0  0  0  0  0  0  0  0  0
  3  2  2  0
  4  2  1  0
  5  3  1  0
  7  4  2  0
  8  5  2  0
  8  7  1  0
  9  6  1  0
 10  7  1  0
 11  1  1  0
 11  6  1  0
 11  9  1  0
 11 10  1  0
 12 10  2  0
 13  8  1  0
 13  9  1  0
M  END
>  <NAME>  (4394) 
6-METHYL-3,4-BENZO-2-OXABICYCLO(4.1.0)HEPT-3-EN-5-ONE

>  <SYNONYMS>  (4394) 


>  <SPECTRUM TYPE>  (4394) 
MS1

>  <INSTRUMENT TYPE>  (4394) 
EI-B

>  <INSTRUMENT>  (4394) 
HITACHI RMU-7L

>  <ION MODE>  (4394) 
P

>  <INCHIKEY>  (4394) 
WYYFVKUBHSHHHS-UHFFFAOYSA-N

>  <FORMULA>  (4394) 
C11H10O2

>  <EXACT MASS>  (4394) 
174.06807956

>  <MW>  (4394) 
174

>  <ID>  (4394) 
JP005552

>  <CONTRIBUTOR>  (4394) 
University of Tokyo Team, {Faculty of Engineering, University of Tokyo

>  <COMMENT>  (4394) 
SMILES=O=C(c32)C(C)(C1)C(Oc(cccc3)2)1
InChI=InChI=1S/C11H10O2/c1-11-6-9(11)13-8-5-3-2-4-7(8)10(11)12/h2-5,9H,6H2,1H3
computed SMILES=O=C1C=2C=CC=CC2OC3CC13C
accession=JP005552
date=2016.01.19 (Created 2008.10.21, modified 2011.05.06)
author=MASS SPECTROSCOPY SOC. OF JAPAN (MSSJ)
license=CC BY-NC-SA
exact mass=174.06808
ionization energy=70 eV
ion type=[M]+*
computed spectral entropy=3.6782904167076356
computed normalized entropy=0.9137811300249071
SPLASH=splash10-0kji-9600000000-484d4c7b03aedb09fc07
submitter=submitter = University of Tokyo Team (Faculty of Engineering, University of Tokyo)
MoNA Rating=3.75

>  <NUM PEAKS>  (4394) 
56

>  <MASS SPECTRAL PEAKS>  (4394) 
40 13
41 28
43 30
45 28
46 5
47 11
50 24
51 33
52 4
53 19
54 6
55 32
57 40
63 21
64 5
65 16
67 5
69 22
71 28
75 8
76 64
77 18
81 14
82 7
83 28
84 4
85 27
91 20
92 35
93 6
94 8
95 8
97 22
103 11
104 43
105 17
111 17
115 14
116 4
117 12
120 10
121 23
123 8
131 72
132 9
133 3
134 47
135 3
145 49
146 9
159 11
160 1
173 7
174 99.99
175 26
176 1

$$$$

     RDKit          2D

 14 16  0  0  0  0  0  0  0  0999 V2000
   -1.2990    3.7500    0.0000 C   0  0  0  0  0  0  0  0  0  0  0  0
    0.7500    2.7990    0.0000 C   0  0  0  0  0  0  0  0  0  0  0  0
    0.7500   -1.2990    0.0000 C   0  0  0  0  0  0  0  0  0  0  0  0
   -5.1962    1.5000    0.0000 C   0  0  0  0  0  0  0  0  0  0  0  0
   -5.1962   -0.0000    0.0000 C   0  0  0  0  0  0  0  0  0  0  0  0
   -3.8971    2.2500    0.0000 C   0  0  0  0  0  0  0  0  0  0  0  0
   -3.8971   -0.7500    0.0000 C   0  0  0  0  0  0  0  0  0  0  0  0
    1.2990    0.7500    0.0000 C   0  0  0  0  0  0  0  0  0  0  0  0
   -1.2990    2.2500    0.0000 C   0  0  0  0  0  0  0  0  0  0  0  0
   -2.5981    1.5000    0.0000 C   0  0  0  0  0  0  0  0  0  0  0  0
   -2.5981   -0.0000    0.0000 C   0  0  0  0  0  0  0  0  0  0  0  0
    0.0000    1.5000    0.0000 C   0  0  0  0  0  0  0  0  0  0  0  0
    0.0000    0.0000    0.0000 C   0  0  0  0  0  0  0  0  0  0  0  0
   -1.2990   -0.7500    0.0000 S   0  0  0  0  0  0  0  0  0  0  0  0
  5  4  2  0
  6  4  1  0
  7  5  1  0
  9  1  2  0
 10  6  2  0
 10  9  1  0
 11  7  2  0
 11 10  1  0
 12  2  1  0
 12  8  1  0
 12  9  1  0
 13  3  1  0
 13  8  1  0
 13 12  1  0
 14 11  1  0
 14 13  1  0
M  END
>  <NAME>  (4395) 
1,6-DIMETHYL-5-METHYLENE-3,4-BENZO-2-THIABICYCLO(4.1.0)HEPT-3-ENE

>  <SYNONYMS>  (4395) 


>  <SPECTRUM TYPE>  (4395) 
MS1

>  <INSTRUMENT TYPE>  (4395) 
EI-B

>  <INSTRUMENT>  (4395) 
HITACHI RMU-6L

>  <ION MODE>  (4395) 
P

>  <INCHIKEY>  (4395) 
XSUQCGXKUHOAEX-UHFFFAOYSA-N

>  <FORMULA>  (4395) 
C13H14S

>  <EXACT MASS>  (4395) 
202.081621448

>  <MW>  (4395) 
202

>  <ID>  (4395) 
JP005551

>  <CONTRIBUTOR>  (4395) 
University of Tokyo Team, {Faculty of Engineering, University of Tokyo

>  <COMMENT>  (4395) 
SMILES=c(c3)cc(c(c3)2)C(=C)C(C)(C1)C(C)(S2)1
InChI=InChI=1S/C13H14S/c1-9-10-6-4-5-7-11(10)14-13(3)8-12(9,13)2/h4-7H,1,8H2,2-3H3
computed SMILES=S1C=2C=CC=CC2C(=C)C3(C)CC13C
accession=JP005551
date=2016.01.19 (Created 2008.10.21, modified 2011.05.06)
author=MASS SPECTROSCOPY SOC. OF JAPAN (MSSJ)
license=CC BY-NC-SA
exact mass=202.08162
ionization energy=70 eV
ion type=[M]+*
computed spectral entropy=4.121799335547957
computed normalized entropy=0.92294763484514
SPLASH=splash10-0f79-5910000000-02c19950a0d4692824f4
submitter=submitter = University of Tokyo Team (Faculty of Engineering, University of Tokyo)
MoNA Rating=3.75

>  <NUM PEAKS>  (4395) 
87

>  <MASS SPECTRAL PEAKS>  (4395) 
27 13
29 5
39 28
41 18
43 6
45 17
47 9
50 7
51 18
52 5
53 8
55 5
56 6
57 7
58 5
59 18
61 4
62 6
63 14
64 4
65 9
69 10
74 6
75 8
76 6
77 14
78 5
79 4
82 15
84 6
85 5
86 6
87 6
89 8
90 5
91 22
92 6
101 4
102 7
103 6
105 5
106 6
115 20
116 5
117 21
119 18
121 8
127 8
128 25
129 10
134 13
135 5
139 5
141 15
142 6
143 10
147 25
148 7
152 8
153 10
154 11
155 10
156 17
157 5
158 5
159 5
160 6
161 33
162 8
169 21
170 6
171 17
172 25
173 8
174 5
175 8
184 6
185 8
186 7
187 99.99
188 20
189 7
201 15
202 72
203 15
204 7
205 2

$$$$

     RDKit          2D

 13 14  0  0  0  0  0  0  0  0999 V2000
    3.8989   -1.5002    0.0000 C   0  0  0  0  0  0  0  0  0  0  0  0
    3.8989    1.5002    0.0000 C   0  0  0  0  0  0  0  0  0  0  0  0
   -2.6000   -0.7500    0.0000 C   0  0  0  0  0  0  0  0  0  0  0  0
   -2.6000    0.7500    0.0000 C   0  0  0  0  0  0  0  0  0  0  0  0
   -1.3000   -1.5000    0.0000 C   0  0  0  0  0  0  0  0  0  0  0  0
   -1.3000    1.5000    0.0000 C   0  0  0  0  0  0  0  0  0  0  0  0
    2.6000   -0.7500    0.0000 C   0  0  0  0  0  0  0  0  0  0  0  0
    2.6000    0.7500    0.0000 C   0  0  0  0  0  0  0  0  0  0  0  0
    0.0000   -0.7500    0.0000 C   0  0  0  0  0  0  0  0  0  0  0  0
    0.0000    0.7500    0.0000 C   0  0  0  0  0  0  0  0  0  0  0  0
    1.3000   -1.5000    0.0000 C   0  0  0  0  0  0  0  0  0  0  0  0
    1.3000   -3.0000    0.0000 S   0  0  0  0  0  0  0  0  0  0  0  0
    1.3000    1.5000    0.0000 S   0  0  0  0  0  0  0  0  0  0  0  0
  4  3  2  0
  5  3  1  0
  6  4  1  0
  7  1  1  0
  8  2  1  0
  8  7  2  0
  9  5  2  0
 10  6  2  0
 10  9  1  0
 11  7  1  0
 11  9  1  0
 12 11  2  0
 13  8  1  0
 13 10  1  0
M  END
>  <NAME>  (4396) 
2,3-DIMETHYLBENZOTHIOPYRAN-4-THIONE

>  <SYNONYMS>  (4396) 
2,3-DIMETHYLTHIOCHROMOTHIONE

>  <SPECTRUM TYPE>  (4396) 
MS1

>  <INSTRUMENT TYPE>  (4396) 
EI-B

>  <INSTRUMENT>  (4396) 
HITACHI RMU-6L

>  <ION MODE>  (4396) 
P

>  <INCHIKEY>  (4396) 
FRIYENJAXQGJMB-UHFFFAOYSA-N

>  <FORMULA>  (4396) 
C11H10S2

>  <EXACT MASS>  (4396) 
206.02239232

>  <MW>  (4396) 
206

>  <ID>  (4396) 
JP005550

>  <CONTRIBUTOR>  (4396) 
University of Tokyo Team, {Faculty of Engineering, University of Tokyo

>  <COMMENT>  (4396) 
SMILES=CC(S1)=C(C)C(=S)c(c2)c(ccc2)1
InChI=InChI=1S/C11H10S2/c1-7-8(2)13-10-6-4-3-5-9(10)11(7)12/h3-6H,1-2H3
computed SMILES=S=C1C=2C=CC=CC2SC(=C1C)C
accession=JP005550
date=2016.01.19 (Created 2008.10.21, modified 2011.05.06)
author=MASS SPECTROSCOPY SOC. OF JAPAN (MSSJ)
license=CC BY-NC-SA
exact mass=206.02239
ionization energy=70 eV
ion type=[M]+*
computed spectral entropy=3.2869624701238456
computed normalized entropy=0.83188046707074
SPLASH=splash10-0a4i-4970000000-7dd62101c0255175f194
submitter=submitter = University of Tokyo Team (Faculty of Engineering, University of Tokyo)
MoNA Rating=3.75

>  <NUM PEAKS>  (4396) 
52

>  <MASS SPECTRAL PEAKS>  (4396) 
27 4.5
39 9.2
45 12.4
50 4.2
51 6
59 7.9
62 3
63 4.7
69 8.6
74 2
75 3
76 2.5
77 7.4
82 2.8
89 3.2
91 2.2
93 2.8
95 2.5
102 3
103 2.7
108 9
114 2.5
115 6.5
121 3.2
127 3.4
128 7.8
129 9.8
145 2.5
146 2
147 16
148 3
158 3.2
159 1.8
160 9.3
161 7.5
162 3.6
171 9.6
172 4.7
173 37
174 5.8
175 2.7
190 6.5
191 12
192 3.5
193 1.6
203 1.1
204 1
205 22
206 99.99
207 16
208 9.2
209 1.3

$$$$

     RDKit          2D

 15 18  0  0  0  0  0  0  0  0999 V2000
    0.9743   -0.5625    0.0000 C   0  0  0  0  0  0  0  0  0  0  0  0
    0.9743    0.9375    0.0000 C   0  0  0  0  0  0  0  0  0  0  0  0
   -1.9136    0.1875    0.0000 C   0  0  0  0  0  0  0  0  0  0  0  0
   -0.3248   -1.3125    0.0000 C   0  0  0  0  0  0  0  0  0  0  0  0
   -0.3248    1.6875    0.0000 C   0  0  0  0  0  0  0  0  0  0  0  0
   -2.7953   -1.0260    0.0000 C   0  0  0  0  0  0  0  0  0  0  0  0
   -2.7953    1.4010    0.0000 C   0  0  0  0  0  0  0  0  0  0  0  0
   -5.5209    0.1875    0.0000 C   0  0  0  0  0  0  0  0  0  0  0  0
   -1.6238   -0.5625    0.0000 C   0  0  0  0  0  0  0  0  0  0  0  0
   -1.6238    0.9375    0.0000 C   0  0  0  0  0  0  0  0  0  0  0  0
   -2.9228   -1.3125    0.0000 C   0  0  0  0  0  0  0  0  0  0  0  0
   -4.2219   -0.5625    0.0000 C   0  0  0  0  0  0  0  0  0  0  0  0
   -4.2219    0.9375    0.0000 C   0  0  0  0  0  0  0  0  0  0  0  0
   -2.9228   -2.8125    0.0000 O   0  0  0  0  0  0  0  0  0  0  0  0
   -2.9228    1.6875    0.0000 S   0  0  0  0  0  0  0  0  0  0  0  0
  2  1  2  0
  4  1  1  0
  5  2  1  0
  6  3  1  0
  7  3  1  0
  9  4  2  0
 10  5  2  0
 10  9  1  0
 11  9  1  0
 12  6  1  0
 12  8  1  0
 12 11  1  0
 13  7  1  0
 13  8  1  0
 13 12  1  0
 14 11  2  0
 15 10  1  0
 15 13  1  0
M  END
>  <NAME>  (4397) 
3,4-BENZO-2-THIATRICYCLO(4.3.1.0)DEC-3-EN-5-ONE

>  <SYNONYMS>  (4397) 


>  <SPECTRUM TYPE>  (4397) 
MS1

>  <INSTRUMENT TYPE>  (4397) 
EI-B

>  <INSTRUMENT>  (4397) 
HITACHI RMU-6L

>  <ION MODE>  (4397) 
P

>  <INCHIKEY>  (4397) 
RMHQTQMPLJWNQF-UHFFFAOYSA-N

>  <FORMULA>  (4397) 
C13H12OS

>  <EXACT MASS>  (4397) 
216.060886004

>  <MW>  (4397) 
216

>  <ID>  (4397) 
JP005549

>  <CONTRIBUTOR>  (4397) 
University of Tokyo Team, {Faculty of Engineering, University of Tokyo

>  <COMMENT>  (4397) 
SMILES=c(c4)cc(S1)c(c4)C(=O)C(C3)(C2)C(CC3)12
InChI=InChI=1S/C13H12OS/c14-11-9-4-1-2-5-10(9)15-13-7-3-6-12(11,13)8-13/h1-2,4-5H,3,6-8H2
computed SMILES=O=C1C=2C=CC=CC2SC34CCCC14C3
accession=JP005549
date=2016.01.19 (Created 2008.10.21, modified 2011.05.06)
author=MASS SPECTROSCOPY SOC. OF JAPAN (MSSJ)
license=CC BY-NC-SA
exact mass=216.06089
ionization energy=70 eV
ion type=[M]+*
computed spectral entropy=3.25716619745993
computed normalized entropy=0.8607301727866541
SPLASH=splash10-0uxr-3890000000-f1d4a70033455d18b16c
submitter=submitter = University of Tokyo Team (Faculty of Engineering, University of Tokyo)
MoNA Rating=3.75

>  <NUM PEAKS>  (4397) 
44

>  <MASS SPECTRAL PEAKS>  (4397) 
39 9.7
41 5
43 7
45 5.3
50 4.9
51 8.2
53 4.7
63 4.5
65 5.2
69 7.7
71 5
76 6.7
79 9
91 4.4
108 8.5
109 5.5
115 10
128 5.3
136 8.6
137 5.5
147 7.5
153 5.8
154 5.1
155 10.2
160 9.3
163 26
172 4
173 9.3
174 17
175 3.8
183 10.3
184 5.3
185 3.6
187 22
188 7
199 15
200 3.5
201 99.99
202 13.3
203 5.3
215 9
216 71
217 11.4
218 4.1

$$$$

     RDKit          2D

 12 13  0  0  0  0  0  0  0  0999 V2000
    3.8989    1.5002    0.0000 C   0  0  0  0  0  0  0  0  0  0  0  0
   -2.6000   -0.7500    0.0000 C   0  0  0  0  0  0  0  0  0  0  0  0
   -2.6000    0.7500    0.0000 C   0  0  0  0  0  0  0  0  0  0  0  0
   -1.3000   -1.5000    0.0000 C   0  0  0  0  0  0  0  0  0  0  0  0
   -1.3000    1.5000    0.0000 C   0  0  0  0  0  0  0  0  0  0  0  0
    2.6000   -0.7500    0.0000 C   0  0  0  0  0  0  0  0  0  0  0  0
    2.6000    0.7500    0.0000 C   0  0  0  0  0  0  0  0  0  0  0  0
    0.0000   -0.7500    0.0000 C   0  0  0  0  0  0  0  0  0  0  0  0
    1.3000   -1.5000    0.0000 C   0  0  0  0  0  0  0  0  0  0  0  0
    0.0000    0.7500    0.0000 C   0  0  0  0  0  0  0  0  0  0  0  0
    1.3000   -3.0000    0.0000 S   0  0  0  0  0  0  0  0  0  0  0  0
    1.3000    1.5000    0.0000 S   0  0  0  0  0  0  0  0  0  0  0  0
  3  2  2  0
  4  2  1  0
  5  3  1  0
  7  1  1  0
  7  6  2  0
  8  4  2  0
  9  6  1  0
  9  8  1  0
 10  5  2  0
 10  8  1  0
 11  9  2  0
 12  7  1  0
 12 10  1  0
M  END
>  <NAME>  (4398) 
2-METHYLBENZOTHIOPYRAN-4-THIONE

>  <SYNONYMS>  (4398) 
2-METHYLTHIOCHROMOTHIONE

>  <SPECTRUM TYPE>  (4398) 
MS1

>  <INSTRUMENT TYPE>  (4398) 
EI-B

>  <INSTRUMENT>  (4398) 
HITACHI RMU-6L

>  <ION MODE>  (4398) 
P

>  <INCHIKEY>  (4398) 
OPFHNXXKRKLZGV-UHFFFAOYSA-N

>  <FORMULA>  (4398) 
C10H8S2

>  <EXACT MASS>  (4398) 
192.006742256

>  <MW>  (4398) 
192

>  <ID>  (4398) 
JP005548

>  <CONTRIBUTOR>  (4398) 
University of Tokyo Team, {Faculty of Engineering, University of Tokyo

>  <COMMENT>  (4398) 
SMILES=CC(=C1)Sc(c2)c(ccc2)C(=S)1
InChI=InChI=1S/C10H8S2/c1-7-6-9(11)8-4-2-3-5-10(8)12-7/h2-6H,1H3
computed SMILES=S=C1C=C(SC=2C=CC=CC12)C
accession=JP005548
date=2016.01.19 (Created 2008.10.21, modified 2011.05.06)
author=MASS SPECTROSCOPY SOC. OF JAPAN (MSSJ)
license=CC BY-NC-SA
exact mass=192.00674
ionization energy=70 eV
ion type=[M]+*
computed spectral entropy=3.3196402723601803
computed normalized entropy=0.8575220617597544
SPLASH=splash10-0006-5900000000-1149299c67a01b4ae124
submitter=submitter = University of Tokyo Team (Faculty of Engineering, University of Tokyo)
MoNA Rating=3.75

>  <NUM PEAKS>  (4398) 
48

>  <MASS SPECTRAL PEAKS>  (4398) 
27 5.3
28 3.8
29 4
39 15.7
41 8.6
43 6.3
45 10.6
50 5
51 5.8
55 7.3
57 5.1
58 3.8
59 6.3
61 3.3
62 6.5
63 8.5
69 19.5
73 3.5
74 5.5
75 4
76 3
77 6
81 3.7
82 5.5
83 4.1
89 4.7
93 6.5
108 14.4
114 3.5
115 13
116 3.2
121 8
128 3.7
145 3.2
146 3.2
147 34
148 14.1
149 5
152 3.3
158 4.5
159 4.2
175 9.7
190 11.3
191 44
192 99.99
193 13
194 9.6
195 1.5

$$$$

     RDKit          2D

 12 13  0  0  0  0  0  0  0  0999 V2000
    3.8989    1.5002    0.0000 C   0  0  0  0  0  0  0  0  0  0  0  0
   -2.6000   -0.7500    0.0000 C   0  0  0  0  0  0  0  0  0  0  0  0
   -2.6000    0.7500    0.0000 C   0  0  0  0  0  0  0  0  0  0  0  0
   -1.3000   -1.5000    0.0000 C   0  0  0  0  0  0  0  0  0  0  0  0
   -1.3000    1.5000    0.0000 C   0  0  0  0  0  0  0  0  0  0  0  0
    2.6000   -0.7500    0.0000 C   0  0  0  0  0  0  0  0  0  0  0  0
    2.6000    0.7500    0.0000 C   0  0  0  0  0  0  0  0  0  0  0  0
    0.0000   -0.7500    0.0000 C   0  0  0  0  0  0  0  0  0  0  0  0
    1.3000   -1.5000    0.0000 C   0  0  0  0  0  0  0  0  0  0  0  0
    0.0000    0.7500    0.0000 C   0  0  0  0  0  0  0  0  0  0  0  0
    1.3000   -3.0000    0.0000 O   0  0  0  0  0  0  0  0  0  0  0  0
    1.3000    1.5000    0.0000 S   0  0  0  0  0  0  0  0  0  0  0  0
  3  2  2  0
  4  2  1  0
  5  3  1  0
  7  1  1  0
  7  6  2  0
  8  4  2  0
  9  6  1  0
  9  8  1  0
 10  5  2  0
 10  8  1  0
 11  9  2  0
 12  7  1  0
 12 10  1  0
M  END
>  <NAME>  (4399) 
2-METHYLBENZOTHIOPYRAN-4-ONE

>  <SYNONYMS>  (4399) 
2-METHYLTHIOCHROMONE

>  <SPECTRUM TYPE>  (4399) 
MS1

>  <INSTRUMENT TYPE>  (4399) 
EI-B

>  <INSTRUMENT>  (4399) 
HITACHI RMU-6L

>  <ION MODE>  (4399) 
P

>  <INCHIKEY>  (4399) 
MGMTVGPDPYFNAU-UHFFFAOYSA-N

>  <FORMULA>  (4399) 
C10H8OS

>  <EXACT MASS>  (4399) 
176.029585876

>  <MW>  (4399) 
176

>  <ID>  (4399) 
JP005547

>  <CONTRIBUTOR>  (4399) 
University of Tokyo Team, {Faculty of Engineering, University of Tokyo

>  <COMMENT>  (4399) 
SMILES=CC(=C1)Sc(c2)c(ccc2)C(=O)1
InChI=InChI=1S/C10H8OS/c1-7-6-9(11)8-4-2-3-5-10(8)12-7/h2-6H,1H3
computed SMILES=O=C1C=C(SC=2C=CC=CC12)C
accession=JP005547
date=2016.01.19 (Created 2008.10.21, modified 2011.05.06)
author=MASS SPECTROSCOPY SOC. OF JAPAN (MSSJ)
license=CC BY-NC-SA
exact mass=176.02959
ionization energy=70 eV
ion type=[M]+*
computed spectral entropy=2.661417150170348
computed normalized entropy=0.807508762834153
SPLASH=splash10-002b-3900000000-21aad71533c46a8e62c2
submitter=submitter = University of Tokyo Team (Faculty of Engineering, University of Tokyo)
MoNA Rating=3.75

>  <NUM PEAKS>  (4399) 
27

>  <MASS SPECTRAL PEAKS>  (4399) 
38 5.2
39 22
45 10
50 7
51 5.3
58 5
62 4
63 10
67 5.8
69 22
73 4.1
74 11
82 7.3
108 28
115 5
136 33
137 3.6
146 2.5
147 51
148 51
149 5.8
150 2.2
175 1
176 99.99
177 12
178 4.8
179 1.2

$$$$

     RDKit          2D

 14 16  0  0  0  0  0  0  0  0999 V2000
   -2.0490    3.5490    0.0000 C   0  0  0  0  0  0  0  0  0  0  0  0
    1.5000    1.5000    0.0000 C   0  0  0  0  0  0  0  0  0  0  0  0
   -3.8971   -2.2500    0.0000 C   0  0  0  0  0  0  0  0  0  0  0  0
   -2.5981   -3.0000    0.0000 C   0  0  0  0  0  0  0  0  0  0  0  0
   -3.8971   -0.7500    0.0000 C   0  0  0  0  0  0  0  0  0  0  0  0
   -1.2990   -2.2500    0.0000 C   0  0  0  0  0  0  0  0  0  0  0  0
    0.0000    3.0000    0.0000 C   0  0  0  0  0  0  0  0  0  0  0  0
   -2.5981    0.0000    0.0000 C   0  0  0  0  0  0  0  0  0  0  0  0
   -1.2990   -0.7500    0.0000 C   0  0  0  0  0  0  0  0  0  0  0  0
   -2.5981    1.5000    0.0000 C   0  0  0  0  0  0  0  0  0  0  0  0
   -1.2990    2.2500    0.0000 C   0  0  0  0  0  0  0  0  0  0  0  0
    0.0000    1.5000    0.0000 C   0  0  0  0  0  0  0  0  0  0  0  0
   -3.8971    2.2500    0.0000 O   0  0  0  0  0  0  0  0  0  0  0  0
    0.0000   -0.0000    0.0000 S   0  0  0  0  0  0  0  0  0  0  0  0
  4  3  2  0
  5  3  1  0
  6  4  1  0
  8  5  2  0
  9  6  2  0
  9  8  1  0
 10  8  1  0
 11  1  1  0
 11  7  1  0
 11 10  1  0
 12  2  1  0
 12  7  1  0
 12 11  1  0
 13 10  2  0
 14  9  1  0
 14 12  1  0
M  END
>  <NAME>  (4400) 
1,6-DIMETHYL-3,4-BENZO-2-THIABICYCLO(4.1.0)HEPT-3-EN-5-ONE

>  <SYNONYMS>  (4400) 


>  <SPECTRUM TYPE>  (4400) 
MS1

>  <INSTRUMENT TYPE>  (4400) 
EI-B

>  <INSTRUMENT>  (4400) 
HITACHI RMU-6L

>  <ION MODE>  (4400) 
P

>  <INCHIKEY>  (4400) 
JNRKQNZIYOQNJR-UHFFFAOYSA-N

>  <FORMULA>  (4400) 
C12H12OS

>  <EXACT MASS>  (4400) 
204.060886004

>  <MW>  (4400) 
204

>  <ID>  (4400) 
JP005546

>  <CONTRIBUTOR>  (4400) 
University of Tokyo Team, {Faculty of Engineering, University of Tokyo

>  <COMMENT>  (4400) 
SMILES=c(c3)cc(S1)c(c3)C(=O)C(C)(C2)C(C)12
InChI=InChI=1S/C12H12OS/c1-11-7-12(11,2)14-9-6-4-3-5-8(9)10(11)13/h3-6H,7H2,1-2H3
computed SMILES=O=C1C=2C=CC=CC2SC3(C)CC13C
accession=JP005546
date=2016.01.19 (Created 2008.10.21, modified 2011.05.06)
author=MASS SPECTROSCOPY SOC. OF JAPAN (MSSJ)
license=CC BY-NC-SA
exact mass=204.06089
ionization energy=70 eV
ion type=[M]+*
computed spectral entropy=3.34862262546624
computed normalized entropy=0.8903069558820208
SPLASH=splash10-0imi-4930000000-32253f8421083ae66b00
submitter=submitter = University of Tokyo Team (Faculty of Engineering, University of Tokyo)
MoNA Rating=3.75

>  <NUM PEAKS>  (4400) 
43

>  <MASS SPECTRAL PEAKS>  (4400) 
41 27
43 7.9
45 6.7
50 5.5
51 7.2
58 12
63 5.6
65 13
67 16
69 9.6
76 7.1
77 7.5
85 14
87 5
91 8.2
108 9
109 7.3
110 18
115 8.4
128 17
129 4.3
134 4.6
135 7.8
136 7.3
137 5
143 11
145 5
147 7.6
161 46
162 14
163 22
164 23
171 32
172 4.5
175 47
176 7.7
177 3.5
189 16
190 2
203 6.2
204 99.99
205 15
206 5.4

$$$$

     RDKit          2D

 13 14  0  0  0  0  0  0  0  0999 V2000
    3.8989   -1.5002    0.0000 C   0  0  0  0  0  0  0  0  0  0  0  0
    3.8989    1.5002    0.0000 C   0  0  0  0  0  0  0  0  0  0  0  0
   -2.6000   -0.7500    0.0000 C   0  0  0  0  0  0  0  0  0  0  0  0
   -2.6000    0.7500    0.0000 C   0  0  0  0  0  0  0  0  0  0  0  0
   -1.3000   -1.5000    0.0000 C   0  0  0  0  0  0  0  0  0  0  0  0
   -1.3000    1.5000    0.0000 C   0  0  0  0  0  0  0  0  0  0  0  0
    2.6000   -0.7500    0.0000 C   0  0  0  0  0  0  0  0  0  0  0  0
    2.6000    0.7500    0.0000 C   0  0  0  0  0  0  0  0  0  0  0  0
    0.0000   -0.7500    0.0000 C   0  0  0  0  0  0  0  0  0  0  0  0
    0.0000    0.7500    0.0000 C   0  0  0  0  0  0  0  0  0  0  0  0
    1.3000   -1.5000    0.0000 C   0  0  0  0  0  0  0  0  0  0  0  0
    1.3000   -3.0000    0.0000 O   0  0  0  0  0  0  0  0  0  0  0  0
    1.3000    1.5000    0.0000 S   0  0  0  0  0  0  0  0  0  0  0  0
  4  3  2  0
  5  3  1  0
  6  4  1  0
  7  1  1  0
  8  2  1  0
  8  7  2  0
  9  5  2  0
 10  6  2  0
 10  9  1  0
 11  7  1  0
 11  9  1  0
 12 11  2  0
 13  8  1  0
 13 10  1  0
M  END
>  <NAME>  (4401) 
2,3-DIMETHYLBENZOTHIOPYRAN-4-ONE

>  <SYNONYMS>  (4401) 
2,3-DIMETHYLTHIOCHROMONE

>  <SPECTRUM TYPE>  (4401) 
MS1

>  <INSTRUMENT TYPE>  (4401) 
EI-B

>  <INSTRUMENT>  (4401) 
HITACHI RMU-6L

>  <ION MODE>  (4401) 
P

>  <INCHIKEY>  (4401) 
MBMJRWSFDYUTRL-UHFFFAOYSA-N

>  <FORMULA>  (4401) 
C11H10OS

>  <EXACT MASS>  (4401) 
190.04523594

>  <MW>  (4401) 
190

>  <ID>  (4401) 
JP005545

>  <CONTRIBUTOR>  (4401) 
University of Tokyo Team, {Faculty of Engineering, University of Tokyo

>  <COMMENT>  (4401) 
SMILES=CC(S1)=C(C)C(=O)c(c2)c(ccc2)1
InChI=InChI=1S/C11H10OS/c1-7-8(2)13-10-6-4-3-5-9(10)11(7)12/h3-6H,1-2H3
computed SMILES=O=C1C=2C=CC=CC2SC(=C1C)C
accession=JP005545
date=2016.01.19 (Created 2008.10.21, modified 2011.05.06)
author=MASS SPECTROSCOPY SOC. OF JAPAN (MSSJ)
license=CC BY-NC-SA
exact mass=190.04524
ionization energy=70 eV
ion type=[M]+*
computed spectral entropy=3.199743570613938
computed normalized entropy=0.8861302438943596
SPLASH=splash10-052f-4900000000-50c288744f7fc51052f2
submitter=submitter = University of Tokyo Team (Faculty of Engineering, University of Tokyo)
MoNA Rating=3.75

>  <NUM PEAKS>  (4401) 
37

>  <MASS SPECTRAL PEAKS>  (4401) 
27 12.7
29 5.6
39 14.7
45 11.3
50 10.2
51 12.6
53 10
58 6.1
59 5.6
63 11.3
65 6.8
69 26.8
71 5
74 4.5
75 4.7
76 6.9
77 8.6
81 5
82 10.8
108 31
109 11
115 6.3
128 12.2
129 9.8
136 39
137 12
138 3.3
147 32
148 4.2
149 3.5
157 35
158 5
161 17
162 10.3
190 99.99
191 14
192 6.4

$$$$

     RDKit          2D

 15 17  0  0  0  0  0  0  0  0999 V2000
   -5.0741   -1.5501    0.0000 C   0  0  0  0  0  0  0  0  0  0  0  0
   -5.3859   -0.0829    0.0000 C   0  0  0  0  0  0  0  0  0  0  0  0
    2.0400   -0.5993    0.0000 C   0  0  0  0  0  0  0  0  0  0  0  0
   -3.6475   -2.0137    0.0000 C   0  0  0  0  0  0  0  0  0  0  0  0
    2.5036    0.8273    0.0000 C   0  0  0  0  0  0  0  0  0  0  0  0
   -4.2712    0.9208    0.0000 C   0  0  0  0  0  0  0  0  0  0  0  0
    0.5728   -0.9112    0.0000 C   0  0  0  0  0  0  0  0  0  0  0  0
   -1.0410   -1.1668    0.0000 C   0  0  0  0  0  0  0  0  0  0  0  0
    0.0326    1.6301    0.0000 C   0  0  0  0  0  0  0  0  0  0  0  0
   -2.5328   -1.0100    0.0000 C   0  0  0  0  0  0  0  0  0  0  0  0
    1.4999    1.9420    0.0000 C   0  0  0  0  0  0  0  0  0  0  0  0
   -2.8446    0.4573    0.0000 C   0  0  0  0  0  0  0  0  0  0  0  0
   -0.4309    0.2036    0.0000 C   0  0  0  0  0  0  0  0  0  0  0  0
    1.9634    3.3686    0.0000 O   0  0  0  0  0  0  0  0  0  0  0  0
   -1.5456    1.2073    0.0000 S   0  0  0  0  0  0  0  0  0  0  0  0
  2  1  2  0
  4  1  1  0
  5  3  1  0
  6  2  1  0
  7  3  1  0
 10  4  2  0
 10  8  1  0
 11  5  1  0
 11  9  1  0
 12  6  2  0
 12 10  1  0
 13  7  1  0
 13  8  1  0
 13  9  1  0
 14 11  1  0
 15 12  1  0
 15 13  1  0
M  END
>  <NAME>  (4402) 
2,3-BENZO-1-THIASPIRO(4.5)DEC-2-EN-7-OL

>  <SYNONYMS>  (4402) 


>  <SPECTRUM TYPE>  (4402) 
MS1

>  <INSTRUMENT TYPE>  (4402) 
EI-B

>  <INSTRUMENT>  (4402) 
HITACHI RMU-7L

>  <ION MODE>  (4402) 
P

>  <INCHIKEY>  (4402) 
RRJHOAVXFJNTTO-UHFFFAOYSA-N

>  <FORMULA>  (4402) 
C13H16OS

>  <EXACT MASS>  (4402) 
220.092186132

>  <MW>  (4402) 
220

>  <ID>  (4402) 
JP005544

>  <CONTRIBUTOR>  (4402) 
University of Tokyo Team, {Faculty of Engineering, University of Tokyo

>  <COMMENT>  (4402) 
SMILES=OC(C3)CC(CC3)(C1)Sc(c2)c(ccc2)1
InChI=InChI=1S/C13H16OS/c14-11-5-3-7-13(9-11)8-10-4-1-2-6-12(10)15-13/h1-2,4,6,11,14H,3,5,7-9H2
computed SMILES=OC1CCCC2(SC=3C=CC=CC3C2)C1
accession=JP005544
date=2016.01.19 (Created 2008.10.21, modified 2011.05.06)
author=MASS SPECTROSCOPY SOC. OF JAPAN (MSSJ)
license=CC BY-NC-SA
exact mass=220.09219
ionization energy=70 eV
ion type=[M]+*
computed spectral entropy=3.3546606714118408
computed normalized entropy=0.8713070298712327
SPLASH=splash10-006t-2930000000-56c1731520210239d217
submitter=submitter = University of Tokyo Team (Faculty of Engineering, University of Tokyo)
MoNA Rating=3.75

>  <NUM PEAKS>  (4402) 
47

>  <MASS SPECTRAL PEAKS>  (4402) 
41 11.1
43 5.5
45 12.1
55 5.7
57 6.3
77 11.1
79 9.2
91 13.3
97 42.1
115 12.2
116 6.2
117 6.2
119 6.2
121 5.6
123 7.7
124 1
127 3.1
128 12
129 7.7
130 4.1
134 16.2
135 19.3
136 2.9
141 6.5
142 2.7
146 1.8
147 41.4
148 54.8
149 37.2
150 6.2
160 28.2
161 14.5
162 5.5
169 5.3
173 21.1
174 11.3
175 4.3
176 2
177 15.2
178 2.4
187 9.5
201 8.1
202 13.8
203 2.9
220 99.99
221 13.8
222 4.3

$$$$

     RDKit          2D

 14 16  0  0  0  0  0  0  0  0999 V2000
   -5.1124    1.5545    0.0000 C   0  0  0  0  0  0  0  0  0  0  0  0
   -5.1124    0.0545    0.0000 C   0  0  0  0  0  0  0  0  0  0  0  0
   -3.8134    2.3045    0.0000 C   0  0  0  0  0  0  0  0  0  0  0  0
   -3.8134   -0.6955    0.0000 C   0  0  0  0  0  0  0  0  0  0  0  0
    1.3828    0.8045    0.0000 C   0  0  0  0  0  0  0  0  0  0  0  0
    2.3469   -0.3445    0.0000 H   0  0  0  0  0  0  0  0  0  0  0  0
    2.3469    1.9536    0.0000 H   0  0  0  0  0  0  0  0  0  0  0  0
   -2.5144    1.5545    0.0000 C   0  0  0  0  0  0  0  0  0  0  0  0
    0.0837    1.5545    0.0000 C   0  0  0  0  0  0  0  0  0  0  0  0
   -2.5144    0.0545    0.0000 C   0  0  0  0  0  0  0  0  0  0  0  0
    0.0837    0.0545    0.0000 C   0  0  0  0  0  0  0  0  0  0  0  0
   -1.2153    2.3045    0.0000 C   0  0  0  0  0  0  0  0  0  0  0  0
   -1.2153    3.8045    0.0000 O   0  0  0  0  0  0  0  0  0  0  0  0
   -1.2153   -0.6955    0.0000 O   0  0  0  0  0  0  0  0  0  0  0  0
  5  6  1  0
  5  7  1  0
  2  1  2  0
  3  1  1  0
  4  2  1  0
  8  3  2  0
  9  5  1  0
 10  4  2  0
 10  8  1  0
 11  5  1  0
 11  9  1  0
 12  8  1  0
 12  9  1  0
 13 12  2  0
 14 10  1  0
 14 11  1  0
M  ISO  2   6   2   7   2
M  END
>  <NAME>  (4403) 
3,4-BENZO-2-OXABICYCLO(4.1.0)HEPT-3-EN-5-ONE (7,7-D2)

>  <SYNONYMS>  (4403) 


>  <SPECTRUM TYPE>  (4403) 
MS1

>  <INSTRUMENT TYPE>  (4403) 
EI-B

>  <INSTRUMENT>  (4403) 
HITACHI RMU-7L

>  <ION MODE>  (4403) 
P

>  <INCHIKEY>  (4403) 
DQYKWUOLGDGKNU-BFWBPSQCSA-N

>  <FORMULA>  (4403) 
C10H8O2

>  <EXACT MASS>  (4403) 
162.064982988

>  <MW>  (4403) 
162

>  <ID>  (4403) 
JP005543

>  <CONTRIBUTOR>  (4403) 
University of Tokyo Team, {Faculty of Engineering, University of Tokyo

>  <COMMENT>  (4403) 
SMILES=O=C(c32)C(C(Oc(cccc3)2)1)C([2H])([2H])1
InChI=InChI=1S/C10H8O2/c11-10-6-3-1-2-4-8(6)12-9-5-7(9)10/h1-4,7,9H,5H2/i5D2
computed SMILES=[H]C1([H])C2OC=3C=CC=CC3C(=O)C21
accession=JP005543
date=2016.01.19 (Created 2008.10.21, modified 2011.05.06)
author=MASS SPECTROSCOPY SOC. OF JAPAN (MSSJ)
license=CC BY-NC-SA
exact mass=160.05243
ionization energy=70 eV
ion type=[M]+*
computed spectral entropy=2.4937524235539925
computed normalized entropy=0.8469363573837637
SPLASH=splash10-03e9-1900000000-d6f1e4eb58b2e3b3e53c
submitter=submitter = University of Tokyo Team (Faculty of Engineering, University of Tokyo)
MoNA Rating=3.75

>  <NUM PEAKS>  (4403) 
19

>  <MASS SPECTRAL PEAKS>  (4403) 
75 9
76 53.2
77 17
103 7
104 51.3
105 21
119 1
120 13
121 5.7
130 0.2
131 11
132 55.2
133 53.8
134 18.2
135 6
160 9.5
161 44.8
162 99.99
163 13.3

$$$$

     RDKit          2D

 12 14  0  0  0  0  0  0  0  0999 V2000
    0.9743   -0.5625    0.0000 C   0  0  0  0  0  0  0  0  0  0  0  0
    0.9743    0.9375    0.0000 C   0  0  0  0  0  0  0  0  0  0  0  0
   -0.3248   -1.3125    0.0000 C   0  0  0  0  0  0  0  0  0  0  0  0
   -0.3248    1.6875    0.0000 C   0  0  0  0  0  0  0  0  0  0  0  0
   -5.5209    0.1875    0.0000 C   0  0  0  0  0  0  0  0  0  0  0  0
   -1.6238   -0.5625    0.0000 C   0  0  0  0  0  0  0  0  0  0  0  0
   -4.2219   -0.5625    0.0000 C   0  0  0  0  0  0  0  0  0  0  0  0
   -1.6238    0.9375    0.0000 C   0  0  0  0  0  0  0  0  0  0  0  0
   -4.2219    0.9375    0.0000 C   0  0  0  0  0  0  0  0  0  0  0  0
   -2.9228   -1.3125    0.0000 C   0  0  0  0  0  0  0  0  0  0  0  0
   -2.9228   -2.8125    0.0000 O   0  0  0  0  0  0  0  0  0  0  0  0
   -2.9228    1.6875    0.0000 O   0  0  0  0  0  0  0  0  0  0  0  0
  2  1  2  0
  3  1  1  0
  4  2  1  0
  6  3  2  0
  7  5  1  0
  8  4  2  0
  8  6  1  0
  9  5  1  0
  9  7  1  0
 10  6  1  0
 10  7  1  0
 11 10  2  0
 12  8  1  0
 12  9  1  0
M  END
>  <NAME>  (4404) 
3,4-BENZO-2-OXABICYCLO(4.1.0)HEPT-3-EN-5-ONE

>  <SYNONYMS>  (4404) 


>  <SPECTRUM TYPE>  (4404) 
MS1

>  <INSTRUMENT TYPE>  (4404) 
EI-B

>  <INSTRUMENT>  (4404) 
HITACHI RMU-7L

>  <ION MODE>  (4404) 
P

>  <INCHIKEY>  (4404) 
DQYKWUOLGDGKNU-UHFFFAOYSA-N

>  <FORMULA>  (4404) 
C10H8O2

>  <EXACT MASS>  (4404) 
160.052429496

>  <MW>  (4404) 
160

>  <ID>  (4404) 
JP005542

>  <CONTRIBUTOR>  (4404) 
University of Tokyo Team, {Faculty of Engineering, University of Tokyo

>  <COMMENT>  (4404) 
SMILES=O=C(c32)C(C1)C(Oc(cccc3)2)1
InChI=InChI=1S/C10H8O2/c11-10-6-3-1-2-4-8(6)12-9-5-7(9)10/h1-4,7,9H,5H2
computed SMILES=O=C1C=2C=CC=CC2OC3CC13
accession=JP005542
date=2016.01.19 (Created 2008.10.21, modified 2011.05.06)
author=MASS SPECTROSCOPY SOC. OF JAPAN (MSSJ)
license=CC BY-NC-SA
exact mass=160.05243
ionization energy=70 eV
ion type=[M]+*
computed spectral entropy=2.32488270349756
computed normalized entropy=0.8043542140024883
SPLASH=splash10-0in9-2900000000-8382adbc668635572081
submitter=submitter = University of Tokyo Team (Faculty of Engineering, University of Tokyo)
MoNA Rating=3.75

>  <NUM PEAKS>  (4404) 
18

>  <MASS SPECTRAL PEAKS>  (4404) 
75 7.5
76 51.3
77 21.3
103 19
104 47.7
105 11.6
119 3
120 12.8
121 6.9
122 2.3
130 0.5
131 69.7
132 20.3
133 6.8
134 5
159 5.1
160 99.99
161 11

$$$$

     RDKit          2D

 11 10  0  0  0  0  0  0  0  0999 V2000
   -6.4952    4.5000    0.0000 C   0  0  0  0  0  0  0  0  0  0  0  0
    2.5981    3.7500    0.0000 C   0  0  0  0  0  0  0  0  0  0  0  0
   -3.8971    4.5000    0.0000 C   0  0  0  0  0  0  0  0  0  0  0  0
   -2.5981    3.7500    0.0000 C   0  0  0  0  0  0  0  0  0  0  0  0
    0.0000    3.7500    0.0000 C   0  0  0  0  0  0  0  0  0  0  0  0
   -5.1962    3.7500    0.0000 C   0  0  0  0  0  0  0  0  0  0  0  0
    1.2990    4.5000    0.0000 C   0  0  0  0  0  0  0  0  0  0  0  0
   -1.2990    4.5000    0.0000 C   0  0  0  0  0  0  0  0  0  0  0  0
   -5.1962    2.2500    0.0000 O   0  0  0  0  0  0  0  0  0  0  0  0
    1.2990    6.0000    0.0000 O   0  0  0  0  0  0  0  0  0  0  0  0
   -1.2990    6.0000    0.0000 O   0  0  0  0  0  0  0  0  0  0  0  0
  4  3  1  0
  6  1  1  0
  6  3  1  0
  7  2  1  0
  7  5  1  0
  8  4  1  0
  8  5  1  0
  9  6  2  0
 10  7  2  0
 11  8  2  0
M  END
>  <NAME>  (4405) 
2,4,7-OCTANETRIONE

>  <SYNONYMS>  (4405) 


>  <SPECTRUM TYPE>  (4405) 
MS1

>  <INSTRUMENT TYPE>  (4405) 
EI-B

>  <INSTRUMENT>  (4405) 
HITACHI RMU-6L

>  <ION MODE>  (4405) 
P

>  <INCHIKEY>  (4405) 
AIVJKJUUXMUBEG-UHFFFAOYSA-N

>  <FORMULA>  (4405) 
C8H12O3

>  <EXACT MASS>  (4405) 
156.07864424399997

>  <MW>  (4405) 
156

>  <ID>  (4405) 
JP005540

>  <CONTRIBUTOR>  (4405) 
University of Tokyo Team, {Faculty of Engineering, University of Tokyo

>  <COMMENT>  (4405) 
SMILES=CC(=O)CCC(=O)CC(C)=O
InChI=InChI=1S/C8H12O3/c1-6(9)3-4-8(11)5-7(2)10/h3-5H2,1-2H3
computed SMILES=O=C(C)CC(=O)CCC(=O)C
accession=JP005540
date=2016.01.19 (Created 2008.10.21, modified 2011.05.06)
author=MASS SPECTROSCOPY SOC. OF JAPAN (MSSJ)
license=CC BY-NC-SA
exact mass=156.07864
ionization energy=70 eV
ion type=[M]+*
computed spectral entropy=2.12771941028484
computed normalized entropy=0.5892461312494198
SPLASH=splash10-004i-9000000000-78cb463115d2a5f0fa75
submitter=submitter = University of Tokyo Team (Faculty of Engineering, University of Tokyo)
MoNA Rating=3.75

>  <NUM PEAKS>  (4405) 
37

>  <MASS SPECTRAL PEAKS>  (4405) 
27 3.8
28 99.99
29 2.7
31 1.2
32 18.3
39 2.2
40 1.8
41 2.3
42 2.3
43 45.8
44 1.3
45 0.3
51 0.3
53 0.8
55 2.7
56 0.7
57 1.2
58 1
67 1.3
69 0.8
71 3.7
72 0.8
85 13.3
86 0.7
95 1
96 1
97 0.3
98 0.8
99 7.3
100 0.5
113 7
114 1.3
123 1
138 1
139 0.3
156 1.3
157 0.3

$$$$

     RDKit          2D

 26 27  0  0  0  0  0  0  0  0999 V2000
   -2.0993   -0.1420    0.0000 C   0  0  0  0  0  0  0  0  0  0  0  0
    4.3959    3.6080    0.0000 C   0  0  0  0  0  0  0  0  0  0  0  0
    3.6459    2.3089    0.0000 H   0  0  0  0  0  0  0  0  0  0  0  0
    5.6950    2.8580    0.0000 H   0  0  0  0  0  0  0  0  0  0  0  0
    5.1459    4.9070    0.0000 H   0  0  0  0  0  0  0  0  0  0  0  0
   -4.6974    5.8580    0.0000 C   0  0  0  0  0  0  0  0  0  0  0  0
    1.7978   -0.8920    0.0000 C   0  0  0  0  0  0  0  0  0  0  0  0
   -4.6978    4.3571    0.0000 C   0  0  0  0  0  0  0  0  0  0  0  0
   -3.3978    6.6088    0.0000 C   0  0  0  0  0  0  0  0  0  0  0  0
    3.0978   -0.1420    0.0000 C   0  0  0  0  0  0  0  0  0  0  0  0
    0.4978   -0.1420    0.0000 C   0  0  0  0  0  0  0  0  0  0  0  0
   -3.3988    3.6071    0.0000 C   0  0  0  0  0  0  0  0  0  0  0  0
   -2.0988    5.8588    0.0000 C   0  0  0  0  0  0  0  0  0  0  0  0
    3.0978    1.3580    0.0000 C   0  0  0  0  0  0  0  0  0  0  0  0
    0.4978    1.3580    0.0000 C   0  0  0  0  0  0  0  0  0  0  0  0
   -0.8002    2.1080    0.0000 C   0  0  0  0  0  0  0  0  0  0  0  0
   -2.0993    1.3580    0.0000 C   0  0  0  0  0  0  0  0  0  0  0  0
    3.0969    4.3580    0.0000 C   0  0  0  0  0  0  0  0  0  0  0  0
   -2.0993    4.3580    0.0000 C   0  0  0  0  0  0  0  0  0  0  0  0
    1.7978    2.1080    0.0000 C   0  0  0  0  0  0  0  0  0  0  0  0
   -0.8002    3.6080    0.0000 C   0  0  0  0  0  0  0  0  0  0  0  0
    1.7978    3.6080    0.0000 C   0  0  0  0  0  0  0  0  0  0  0  0
    0.4988    4.3580    0.0000 C   0  0  0  0  0  0  0  0  0  0  0  0
   -3.3983    2.1080    0.0000 O   0  0  0  0  0  0  0  0  0  0  0  0
    3.0969    5.8580    0.0000 O   0  0  0  0  0  0  0  0  0  0  0  0
    0.4988    5.8580    0.0000 O   0  0  0  0  0  0  0  0  0  0  0  0
  2  3  1  0
  2  4  1  0
  2  5  1  0
  8  6  2  0
  9  6  1  0
 10  7  2  0
 11  7  1  0
 12  8  1  0
 13  9  2  0
 14 10  1  0
 15 11  2  0
 17  1  1  0
 17 16  1  0
 18  2  1  0
 19 12  2  0
 19 13  1  0
 20 14  2  0
 20 15  1  0
 21 16  1  0
 21 19  1  0
 22 18  1  0
 22 20  1  0
 23 21  1  0
 23 22  1  0
 24 17  2  0
 25 18  2  0
 26 23  2  0
M  ISO  3   3   2   4   2   5   2
M  END
>  <NAME>  (4406) 
3,5-DIPHENYL-2,4,7-OCTANETRIONE (1,1,1-D3)

>  <SYNONYMS>  (4406) 


>  <SPECTRUM TYPE>  (4406) 
MS1

>  <INSTRUMENT TYPE>  (4406) 
EI-B

>  <INSTRUMENT>  (4406) 
HITACHI RMU-6L

>  <ION MODE>  (4406) 
P

>  <INCHIKEY>  (4406) 
XODLHHIXDHKQQO-BMSJAHLVSA-N

>  <FORMULA>  (4406) 
C20H20O3

>  <EXACT MASS>  (4406) 
311.160074738

>  <MW>  (4406) 
311

>  <ID>  (4406) 
JP005539

>  <CONTRIBUTOR>  (4406) 
University of Tokyo Team, {Faculty of Engineering, University of Tokyo

>  <COMMENT>  (4406) 
SMILES=CC(=O)CC(c(c2)cccc2)C(=O)C(C(=O)C([2H])([2H])[2H])c(c1)cccc1
InChI=InChI=1S/C20H20O3/c1-14(21)13-18(16-9-5-3-6-10-16)20(23)19(15(2)22)17-11-7-4-8-12-17/h3-12,18-19H,13H2,1-2H3/i2D3
computed SMILES=[H]C([H])([H])C(=O)C(C=1C=CC=CC1)C(=O)C(C=2C=CC=CC2)CC(=O)C
accession=JP005539
date=2016.01.19 (Created 2008.10.21, modified 2011.05.06)
author=MASS SPECTROSCOPY SOC. OF JAPAN (MSSJ)
license=CC BY-NC-SA
exact mass=308.14124
ionization energy=70 eV
ion type=[M]+*
computed spectral entropy=3.6853818046924878
computed normalized entropy=0.8020208231531859
SPLASH=splash10-03di-8920000000-8898592867b5fb3a220a
submitter=submitter = University of Tokyo Team (Faculty of Engineering, University of Tokyo)
MoNA Rating=3.75

>  <NUM PEAKS>  (4406) 
99

>  <MASS SPECTRAL PEAKS>  (4406) 
27 1.9
28 23
29 2
30 3
32 6.8
39 2.9
41 2.1
43 44.6
44 2.2
45 6.4
46 13.8
51 30.8
52 1.1
55 2.2
56 2.4
57 13.5
58 29.7
59 1.3
63 2.5
65 2
69 1.3
77 6.9
78 3.6
79 3
80 1.6
81 2.4
82 1.5
83 1.1
89 3.6
90 3.4
91 5.3
92 2.7
93 2.4
94 1
102 1.9
103 4
104 3.2
105 7.3
106 2.2
107 2.3
108 3.6
115 2.4
116 1.5
117 3.1
118 4.9
119 3.3
127 1.1
128 1.3
129 1.3
131 1.8
133 1.8
134 1.6
135 8.2
136 23
137 4
138 0.7
147 3.6
148 2.1
149 1.3
161 1.7
162 4.7
163 36.5
164 99.99
165 13.5
166 1.7
174 1.6
175 2.3
176 1.1
178 2.4
189 1.2
190 1.1
202 1.6
203 1.5
204 1.3
205 2.1
206 1.2
207 1.1
224 1
233 0.7
247 12.7
248 6
249 3.4
250 3.4
251 1.6
265 0.7
267 1.1
268 1.7
275 0.8
276 0.9
291 1.5
292 9.1
293 23
294 4.4
295 0.8
309 0.4
310 3.4
311 7.4
312 1.9
313 0.3

$$$$

     RDKit          2D

 23 24  0  0  0  0  0  0  0  0999 V2000
   -2.0392    8.3529    0.0000 C   0  0  0  0  0  0  0  0  0  0  0  0
   -2.5069   -0.3771    0.0000 C   0  0  0  0  0  0  0  0  0  0  0  0
   -7.2354    2.3529    0.0000 C   0  0  0  0  0  0  0  0  0  0  0  0
    2.6892   -0.3771    0.0000 C   0  0  0  0  0  0  0  0  0  0  0  0
   -7.2359    3.8537    0.0000 C   0  0  0  0  0  0  0  0  0  0  0  0
   -5.9359    1.6021    0.0000 C   0  0  0  0  0  0  0  0  0  0  0  0
    1.3897   -1.1279    0.0000 C   0  0  0  0  0  0  0  0  0  0  0  0
    2.6897    1.1237    0.0000 C   0  0  0  0  0  0  0  0  0  0  0  0
   -5.9368    4.6037    0.0000 C   0  0  0  0  0  0  0  0  0  0  0  0
   -4.6368    2.3521    0.0000 C   0  0  0  0  0  0  0  0  0  0  0  0
    0.0907   -0.3779    0.0000 C   0  0  0  0  0  0  0  0  0  0  0  0
    1.3907    1.8737    0.0000 C   0  0  0  0  0  0  0  0  0  0  0  0
   -3.3383    6.1029    0.0000 C   0  0  0  0  0  0  0  0  0  0  0  0
   -2.0392    6.8529    0.0000 C   0  0  0  0  0  0  0  0  0  0  0  0
   -2.5069    1.1229    0.0000 C   0  0  0  0  0  0  0  0  0  0  0  0
   -4.6373    3.8529    0.0000 C   0  0  0  0  0  0  0  0  0  0  0  0
    0.0912    1.1229    0.0000 C   0  0  0  0  0  0  0  0  0  0  0  0
   -3.3383    4.6029    0.0000 C   0  0  0  0  0  0  0  0  0  0  0  0
   -1.2079    1.8729    0.0000 C   0  0  0  0  0  0  0  0  0  0  0  0
   -1.2079    3.3729    0.0000 C   0  0  0  0  0  0  0  0  0  0  0  0
   -0.7402    6.1029    0.0000 O   0  0  0  0  0  0  0  0  0  0  0  0
   -3.8059    1.8729    0.0000 O   0  0  0  0  0  0  0  0  0  0  0  0
    0.0912    4.1229    0.0000 O   0  0  0  0  0  0  0  0  0  0  0  0
  5  3  2  0
  6  3  1  0
  7  4  2  0
  8  4  1  0
  9  5  1  0
 10  6  2  0
 11  7  1  0
 12  8  2  0
 14  1  1  0
 14 13  1  0
 15  2  1  0
 16  9  2  0
 16 10  1  0
 17 11  2  0
 17 12  1  0
 18 13  1  0
 18 16  1  0
 19 15  1  0
 19 17  1  0
 20 18  1  0
 20 19  1  0
 21 14  2  0
 22 15  2  0
 23 20  2  0
M  END
>  <NAME>  (4407) 
3,5-DIPHENYL-2,4,7-OCTANETRIONE

>  <SYNONYMS>  (4407) 


>  <SPECTRUM TYPE>  (4407) 
MS1

>  <INSTRUMENT TYPE>  (4407) 
EI-B

>  <INSTRUMENT>  (4407) 
HITACHI RMU-6L

>  <ION MODE>  (4407) 
P

>  <INCHIKEY>  (4407) 
XODLHHIXDHKQQO-UHFFFAOYSA-N

>  <FORMULA>  (4407) 
C20H20O3

>  <EXACT MASS>  (4407) 
308.14124449999997

>  <MW>  (4407) 
308

>  <ID>  (4407) 
JP005538

>  <CONTRIBUTOR>  (4407) 
University of Tokyo Team, {Faculty of Engineering, University of Tokyo

>  <COMMENT>  (4407) 
SMILES=CC(=O)CC(c(c2)cccc2)C(=O)C(C(C)=O)c(c1)cccc1
InChI=InChI=1S/C20H20O3/c1-14(21)13-18(16-9-5-3-6-10-16)20(23)19(15(2)22)17-11-7-4-8-12-17/h3-12,18-19H,13H2,1-2H3
computed SMILES=O=C(C)CC(C=1C=CC=CC1)C(=O)C(C=2C=CC=CC2)C(=O)C
accession=JP005538
date=2016.01.19 (Created 2008.10.21, modified 2011.05.06)
author=MASS SPECTROSCOPY SOC. OF JAPAN (MSSJ)
license=CC BY-NC-SA
exact mass=308.14124
ionization energy=70 eV
ion type=[M]+*
computed spectral entropy=3.4916594049893495
computed normalized entropy=0.8087247290947254
SPLASH=splash10-01ox-7960000000-382c197fe84c5e493032
submitter=submitter = University of Tokyo Team (Faculty of Engineering, University of Tokyo)
MoNA Rating=3.75

>  <NUM PEAKS>  (4407) 
75

>  <MASS SPECTRAL PEAKS>  (4407) 
27 6.6
39 5
41 9.5
42 9.5
43 62.8
45 3.3
50 1.5
51 4.9
55 27
56 3.4
57 8
60 2.8
63 2.3
65 2.5
69 2.3
71 2.5
72 1.8
77 10.2
78 3.4
79 3.1
89 3.7
90 3.7
91 9.5
92 1.8
94 1.5
102 1.9
103 7.3
104 3.4
105 11.7
106 1.6
115 7.3
116 2
117 4.6
118 4.2
119 4.2
130 1.5
131 4.7
133 23.4
134 10.2
135 1.7
145 1.9
147 6.6
148 2.8
161 99.99
162 18.2
163 1.9
174 3.2
175 5.1
176 1.5
178 2.8
179 2
202 2.4
203 2.4
204 2.1
205 4.8
219 1.8
223 2.6
233 2.1
246 2.1
247 25.5
248 17.5
249 3.8
250 1.7
265 3.8
266 3.3
272 2
273 1.8
274 1.2
275 1
290 62.8
291 14.6
292 2
308 13.1
309 3.5
310 0.4

$$$$

     RDKit          2D

 25 27  0  0  0  0  0  0  0  0999 V2000
   -1.2931   -7.2176    0.0000 C   0  0  0  0  0  0  0  0  0  0  0  0
   -2.5141    0.9738    0.0000 C   0  0  0  0  0  0  0  0  0  0  0  0
   -1.0477    0.6583    0.0000 H   0  0  0  0  0  0  0  0  0  0  0  0
   -2.1986    2.4402    0.0000 H   0  0  0  0  0  0  0  0  0  0  0  0
   -3.9805    1.2893    0.0000 H   0  0  0  0  0  0  0  0  0  0  0  0
   -7.3859   -1.7629    0.0000 C   0  0  0  0  0  0  0  0  0  0  0  0
    2.5658   -0.1192    0.0000 C   0  0  0  0  0  0  0  0  0  0  0  0
   -6.0823   -1.0191    0.0000 C   0  0  0  0  0  0  0  0  0  0  0  0
   -7.3945   -3.2637    0.0000 C   0  0  0  0  0  0  0  0  0  0  0  0
    1.4533    0.8882    0.0000 C   0  0  0  0  0  0  0  0  0  0  0  0
    2.2506   -1.5866    0.0000 C   0  0  0  0  0  0  0  0  0  0  0  0
   -4.7874   -1.7761    0.0000 C   0  0  0  0  0  0  0  0  0  0  0  0
   -6.0995   -4.0207    0.0000 C   0  0  0  0  0  0  0  0  0  0  0  0
    0.0256    0.4282    0.0000 C   0  0  0  0  0  0  0  0  0  0  0  0
    0.8228   -2.0465    0.0000 C   0  0  0  0  0  0  0  0  0  0  0  0
   -3.3517   -5.5265    0.0000 C   0  0  0  0  0  0  0  0  0  0  0  0
   -1.8929   -5.8428    0.0000 C   0  0  0  0  0  0  0  0  0  0  0  0
   -2.8296   -0.4927    0.0000 C   0  0  0  0  0  0  0  0  0  0  0  0
   -4.7960   -3.2769    0.0000 C   0  0  0  0  0  0  0  0  0  0  0  0
   -0.2897   -1.0392    0.0000 C   0  0  0  0  0  0  0  0  0  0  0  0
   -3.5010   -4.0339    0.0000 C   0  0  0  0  0  0  0  0  0  0  0  0
   -1.7174   -1.4991    0.0000 C   0  0  0  0  0  0  0  0  0  0  0  0
   -2.1339   -3.4348    0.0000 C   0  0  0  0  0  0  0  0  0  0  0  0
   -4.2574   -0.9526    0.0000 O   0  0  0  0  0  0  0  0  0  0  0  0
   -1.1278   -4.5502    0.0000 O   0  0  0  0  0  0  0  0  0  0  0  0
  2  3  1  0
  2  4  1  0
  2  5  1  0
  8  6  2  0
  9  6  1  0
 10  7  2  0
 11  7  1  0
 12  8  1  0
 13  9  2  0
 14 10  1  0
 15 11  2  0
 17  1  1  0
 17 16  2  0
 18  2  1  0
 19 12  2  0
 19 13  1  0
 20 14  2  0
 20 15  1  0
 21 16  1  0
 21 19  1  0
 22 18  1  0
 22 20  1  0
 23 21  2  0
 23 22  1  0
 24 18  2  0
 25 17  1  0
 25 23  1  0
M  ISO  3   3   2   4   2   5   2
M  END
>  <NAME>  (4408) 
1-PHENYL-1-(5-METHYL-3-PHENYL-2-FURYL)ACETONE (3,3,3-D3)

>  <SYNONYMS>  (4408) 


>  <SPECTRUM TYPE>  (4408) 
MS1

>  <INSTRUMENT TYPE>  (4408) 
EI-B

>  <INSTRUMENT>  (4408) 
HITACHI RMU-6L

>  <ION MODE>  (4408) 
P

>  <INCHIKEY>  (4408) 
PYTUHOXYDQJXEZ-BMSJAHLVSA-N

>  <FORMULA>  (4408) 
C20H18O2

>  <EXACT MASS>  (4408) 
293.14951005399996

>  <MW>  (4408) 
293

>  <ID>  (4408) 
JP005537

>  <CONTRIBUTOR>  (4408) 
University of Tokyo Team, {Faculty of Engineering, University of Tokyo

>  <COMMENT>  (4408) 
SMILES=[2H]C([2H])([2H])C(=O)C(c(c3)cccc3)c(o2)c(cc(C)2)c(c1)cccc1
InChI=InChI=1S/C20H18O2/c1-14-13-18(16-9-5-3-6-10-16)20(22-14)19(15(2)21)17-11-7-4-8-12-17/h3-13,19H,1-2H3/i2D3
computed SMILES=[H]C([H])([H])C(=O)C(C=1C=CC=CC1)C=2OC(=CC2C=3C=CC=CC3)C
accession=JP005537
date=2016.01.19 (Created 2008.10.21, modified 2011.05.06)
author=MASS SPECTROSCOPY SOC. OF JAPAN (MSSJ)
license=CC BY-NC-SA
exact mass=290.13068
ionization energy=70 eV
ion type=[M]+*
computed spectral entropy=3.8918497042062277
computed normalized entropy=0.8312132905759274
SPLASH=splash10-0002-9570000000-b2042361c796948d6b58
submitter=submitter = University of Tokyo Team (Faculty of Engineering, University of Tokyo)
MoNA Rating=3.75

>  <NUM PEAKS>  (4408) 
108

>  <MASS SPECTRAL PEAKS>  (4408) 
39 6
40 2.9
41 4.4
43 35.6
44 2.4
45 4.4
46 8
47 9.1
49 5.3
50 3.6
51 8.2
52 2.2
55 4
56 1.8
57 2.9
62 1.6
63 3.8
64 1.8
65 4
66 3.6
67 2
69 2
71 2
74 1.8
75 1.8
76 3.1
77 15.8
78 2.7
79 1.6
81 2
82 4.4
83 2
84 21.3
85 1.6
86 14.2
88 3.3
89 3.3
90 2.2
91 4.2
92 1.6
93 1.6
94 7.3
95 1.8
97 1.8
101 2.2
102 8.4
103 2.7
105 14.7
106 3.6
107 1.8
108 1.8
115 4.4
116 2
117 14.2
119 15.1
121 4.9
123 1.8
126 2.7
127 2.9
128 3.1
129 1.8
140 1.6
141 3.8
149 1.8
150 1.1
151 1.8
152 2.2
161 1.3
163 1.3
165 1.8
168 1.3
169 3.8
170 1.3
176 1.3
177 1.3
178 2.2
179 1.8
189 2
190 1.3
190.5 1.3
191 1.3
200 2
201 2
202 10.4
203 8.2
204 4.9
205 2.4
209 2
215 2
216 0.9
217 0.9
218 0.9
219 0.9
228 1.6
229 1.6
230 0.9
231 1.8
232 1.1
245 1.6
246 1.8
247 99.99
248 26.7
249 4
250 1.1
262 2.2
292 2
293 5.3
294 1.6

$$$$

     RDKit          2D

 22 24  0  0  0  0  0  0  0  0999 V2000
   -2.6199    3.7274    0.0000 C   0  0  0  0  0  0  0  0  0  0  0  0
    1.1704   -3.6363    0.0000 C   0  0  0  0  0  0  0  0  0  0  0  0
   -4.3827   -4.2582    0.0000 C   0  0  0  0  0  0  0  0  0  0  0  0
    4.6569    0.2165    0.0000 C   0  0  0  0  0  0  0  0  0  0  0  0
   -2.8901   -4.1012    0.0000 C   0  0  0  0  0  0  0  0  0  0  0  0
   -5.2658   -3.0447    0.0000 C   0  0  0  0  0  0  0  0  0  0  0  0
    4.3417   -1.2508    0.0000 C   0  0  0  0  0  0  0  0  0  0  0  0
    3.5444    1.2239    0.0000 C   0  0  0  0  0  0  0  0  0  0  0  0
   -2.2806   -2.7306    0.0000 C   0  0  0  0  0  0  0  0  0  0  0  0
   -4.6563   -1.6741    0.0000 C   0  0  0  0  0  0  0  0  0  0  0  0
    2.9140   -1.7108    0.0000 C   0  0  0  0  0  0  0  0  0  0  0  0
    2.1167    0.7640    0.0000 C   0  0  0  0  0  0  0  0  0  0  0  0
   -3.3042    1.1526    0.0000 C   0  0  0  0  0  0  0  0  0  0  0  0
   -2.3044    2.2610    0.0000 C   0  0  0  0  0  0  0  0  0  0  0  0
    0.0582   -2.6298    0.0000 C   0  0  0  0  0  0  0  0  0  0  0  0
   -3.1637   -1.5170    0.0000 C   0  0  0  0  0  0  0  0  0  0  0  0
    1.8015   -0.7034    0.0000 C   0  0  0  0  0  0  0  0  0  0  0  0
   -2.5542   -0.1465    0.0000 C   0  0  0  0  0  0  0  0  0  0  0  0
    0.3737   -1.1634    0.0000 C   0  0  0  0  0  0  0  0  0  0  0  0
   -1.0944    0.1652    0.0000 C   0  0  0  0  0  0  0  0  0  0  0  0
   -1.3695   -3.0898    0.0000 O   0  0  0  0  0  0  0  0  0  0  0  0
   -0.9286    1.6581    0.0000 O   0  0  0  0  0  0  0  0  0  0  0  0
  5  3  2  0
  6  3  1  0
  7  4  2  0
  8  4  1  0
  9  5  1  0
 10  6  2  0
 11  7  1  0
 12  8  2  0
 14  1  1  0
 14 13  2  0
 15  2  1  0
 16  9  2  0
 16 10  1  0
 17 11  2  0
 17 12  1  0
 18 13  1  0
 18 16  1  0
 19 15  1  0
 19 17  1  0
 20 18  2  0
 20 19  1  0
 21 15  2  0
 22 14  1  0
 22 20  1  0
M  END
>  <NAME>  (4409) 
1-PHENYL-1-(5-METHYL-3-PHENYL-2-FURYL)ACETONE

>  <SYNONYMS>  (4409) 


>  <SPECTRUM TYPE>  (4409) 
MS1

>  <INSTRUMENT TYPE>  (4409) 
EI-B

>  <INSTRUMENT>  (4409) 
HITACHI RMU-6L

>  <ION MODE>  (4409) 
P

>  <INCHIKEY>  (4409) 
PYTUHOXYDQJXEZ-UHFFFAOYSA-N

>  <FORMULA>  (4409) 
C20H18O2

>  <EXACT MASS>  (4409) 
290.130679816

>  <MW>  (4409) 
290

>  <ID>  (4409) 
JP005536

>  <CONTRIBUTOR>  (4409) 
University of Tokyo Team, {Faculty of Engineering, University of Tokyo

>  <COMMENT>  (4409) 
SMILES=c(c3)ccc(c3)C(C(C)=O)c(o2)c(cc(C)2)c(c1)cccc1
InChI=InChI=1S/C20H18O2/c1-14-13-18(16-9-5-3-6-10-16)20(22-14)19(15(2)21)17-11-7-4-8-12-17/h3-13,19H,1-2H3
computed SMILES=O=C(C)C(C=1C=CC=CC1)C=2OC(=CC2C=3C=CC=CC3)C
accession=JP005536
license=CC BY-NC-SA
date=2016.01.19 (Created 2008.10.21, modified 2011.05.06)
author=MASS SPECTROSCOPY SOC. OF JAPAN (MSSJ)
exact mass=290.13068
ionization energy=70 eV
ion type=[M]+*
computed spectral entropy=2.579964194665746
computed normalized entropy=0.5957337919344554
SPLASH=splash10-0002-1190000000-cbac982009b7931ec89d
submitter=submitter = University of Tokyo Team (Faculty of Engineering, University of Tokyo)
MoNA Rating=3.75

>  <NUM PEAKS>  (4409) 
76

>  <MASS SPECTRAL PEAKS>  (4409) 
28 0.5
39 1
43 11.2
44 1
50 0.5
51 1.8
52 0.5
55 0.9
63 1.2
65 0.6
69 0.6
74 0.4
75 0.7
76 1.2
77 4.3
78 0.7
88 0.4
89 1.2
90 0.8
91 1.6
101 1.2
102 3.8
103 1.2
105 3.1
106 0.4
115 1.6
116 0.9
126 0.8
127 1.2
128 1.1
129 0.4
133 0.5
139 0.5
141 1.1
147 0.5
149 0.4
150 0.3
151 0.4
152 0.6
161 2
162 0.9
163 0.3
165 0.7
169 1.5
176 0.6
178 1.1
179 0.4
189 1
190 0.7
191 0.5
200 0.7
201 0.9
202 4.9
203 4.2
204 2.6
205 1.2
215 1
216 0.3
217 0.4
228 0.9
229 0.8
231 1
232 0.5
245 0.8
246 1.2
247 99.99
248 20.8
249 2.3
261 0.1
262 0.1
263 0.4
264 0.2
289 0.1
290 2.8
291 0.9
292 0.1

$$$$

     RDKit          2D

 22 25  0  0  0  0  0  0  0  0999 V2000
    2.9689   -1.5002    0.0000 C   0  0  0  0  0  0  0  0  0  0  0  0
   -1.6796   -2.0493    0.0000 C   0  0  0  0  0  0  0  0  0  0  0  0
    5.5668    3.0006    0.0000 C   0  0  0  0  0  0  0  0  0  0  0  0
   -3.1788    4.6478    0.0000 C   0  0  0  0  0  0  0  0  0  0  0  0
    4.2671    3.7512    0.0000 C   0  0  0  0  0  0  0  0  0  0  0  0
    5.5675    1.4998    0.0000 C   0  0  0  0  0  0  0  0  0  0  0  0
   -3.9300    3.3486    0.0000 C   0  0  0  0  0  0  0  0  0  0  0  0
   -1.6779    4.6478    0.0000 C   0  0  0  0  0  0  0  0  0  0  0  0
    2.9682    3.0010    0.0000 C   0  0  0  0  0  0  0  0  0  0  0  0
    4.2686    0.7496    0.0000 C   0  0  0  0  0  0  0  0  0  0  0  0
   -3.1804    2.0493    0.0000 C   0  0  0  0  0  0  0  0  0  0  0  0
   -0.9283    3.3486    0.0000 C   0  0  0  0  0  0  0  0  0  0  0  0
   -2.2300    0.0000    0.0000 C   0  0  0  0  0  0  0  0  0  0  0  0
    1.6700   -0.7500    0.0000 C   0  0  0  0  0  0  0  0  0  0  0  0
    2.9689    1.5002    0.0000 C   0  0  0  0  0  0  0  0  0  0  0  0
   -1.6796    2.0493    0.0000 C   0  0  0  0  0  0  0  0  0  0  0  0
    1.6700    0.7500    0.0000 C   0  0  0  0  0  0  0  0  0  0  0  0
    0.3700    1.5000    0.0000 C   0  0  0  0  0  0  0  0  0  0  0  0
   -0.9300   -0.7500    0.0000 C   0  0  0  0  0  0  0  0  0  0  0  0
   -0.9300    0.7500    0.0000 C   0  0  0  0  0  0  0  0  0  0  0  0
    0.3700    3.0000    0.0000 O   0  0  0  0  0  0  0  0  0  0  0  0
    0.3700   -1.5000    0.0000 O   0  0  0  0  0  0  0  0  0  0  0  0
  5  3  2  0
  6  3  1  0
  7  4  2  0
  8  4  1  0
  9  5  1  0
 10  6  2  0
 11  7  1  0
 12  8  2  0
 14  1  1  0
 15  9  2  0
 15 10  1  0
 16 11  2  0
 16 12  1  0
 17 14  2  0
 17 15  1  0
 18 17  1  0
 19  2  1  0
 19 13  1  0
 20 13  1  0
 20 16  1  0
 20 18  1  0
 20 19  1  0
 21 18  2  0
 22 14  1  0
 22 19  1  0
M  END
>  <NAME>  (4410) 
1,3-DIMETHYL-4,6-DIPHENYL-2-OXABICYCLO(4.1.0)HEPT-3-EN-5-ONE

>  <SYNONYMS>  (4410) 


>  <SPECTRUM TYPE>  (4410) 
MS1

>  <INSTRUMENT TYPE>  (4410) 
EI-B

>  <INSTRUMENT>  (4410) 
HITACHI RMS-4

>  <ION MODE>  (4410) 
P

>  <INCHIKEY>  (4410) 
YVOMXSLUOQIDON-UHFFFAOYSA-N

>  <FORMULA>  (4410) 
C20H18O2

>  <EXACT MASS>  (4410) 
290.130679816

>  <MW>  (4410) 
290

>  <ID>  (4410) 
JP005535

>  <CONTRIBUTOR>  (4410) 
University of Tokyo Team, {Faculty of Engineering, University of Tokyo

>  <COMMENT>  (4410) 
SMILES=c(c4)ccc(c4)C(=C(C)2)C(=O)C(c(c3)cccc3)(C1)C(C)(O2)1
InChI=InChI=1S/C20H18O2/c1-14-17(15-9-5-3-6-10-15)18(21)20(13-19(20,2)22-14)16-11-7-4-8-12-16/h3-12H,13H2,1-2H3
computed SMILES=O=C1C(C=2C=CC=CC2)=C(OC3(C)CC13C=4C=CC=CC4)C
accession=JP005535
date=2016.01.19 (Created 2008.10.21, modified 2011.05.06)
author=MASS SPECTROSCOPY SOC. OF JAPAN (MSSJ)
license=CC BY-NC-SA
exact mass=290.13068
ionization energy=70 eV
ion type=[M]+*
computed spectral entropy=3.719297854280946
computed normalized entropy=0.8186345004060341
SPLASH=splash10-0f6x-7920000000-9add140a58a021cc1c0b
submitter=submitter = University of Tokyo Team (Faculty of Engineering, University of Tokyo)
MoNA Rating=3.75

>  <NUM PEAKS>  (4410) 
94

>  <MASS SPECTRAL PEAKS>  (4410) 
27 8.5
28 9
29 3
31 2
32 3
39 7
40 2
41 5
42 2.5
43 99.99
44 4
45 2
50 3
51 8
52 3
53 3
55 37
56 3
57 3
62 2
63 5.5
64 2.5
65 5.5
74 2
75 2
76 2.5
77 21
78 6
88 2
89 7
90 5
91 10.5
92 2
101 2
102 5
103 95.5
104 8.5
105 10.5
114 2
115 24
116 9
117 4.5
118 4.5
127 3.5
128 5.5
129 6.5
130 4.5
131 17.5
132 3.5
133 11.5
134 4
141 2.5
142 2.5
145 3
146 2
147 5
148 2
149 3
158 2
160 2
161 66
162 5.5
170 3
174 8.5
175 5
178 2.5
179 2
185 2
187 2
188 2
189 2
191 2
202 3
203 3.5
204 4.5
205 3
215 2
218 2
219 4.5
220 2
230 2
232 2
233 3
247 10
248 10.5
249 3
261 3
262 4.5
263 2
275 6
276 2.5
290 25
291 7
292 2

$$$$

     RDKit          2D

 21 23  0  0  0  0  0  0  0  0999 V2000
    2.5989   -1.5002    0.0000 C   0  0  0  0  0  0  0  0  0  0  0  0
   -2.5989   -1.5002    0.0000 C   0  0  0  0  0  0  0  0  0  0  0  0
    5.1968    3.0006    0.0000 C   0  0  0  0  0  0  0  0  0  0  0  0
   -5.1968    3.0006    0.0000 C   0  0  0  0  0  0  0  0  0  0  0  0
    3.8971    3.7512    0.0000 C   0  0  0  0  0  0  0  0  0  0  0  0
    5.1975    1.4998    0.0000 C   0  0  0  0  0  0  0  0  0  0  0  0
   -5.1975    1.4998    0.0000 C   0  0  0  0  0  0  0  0  0  0  0  0
   -3.8971    3.7512    0.0000 C   0  0  0  0  0  0  0  0  0  0  0  0
    2.5982    3.0010    0.0000 C   0  0  0  0  0  0  0  0  0  0  0  0
    3.8986    0.7496    0.0000 C   0  0  0  0  0  0  0  0  0  0  0  0
   -3.8986    0.7496    0.0000 C   0  0  0  0  0  0  0  0  0  0  0  0
   -2.5982    3.0010    0.0000 C   0  0  0  0  0  0  0  0  0  0  0  0
    1.3000   -0.7500    0.0000 C   0  0  0  0  0  0  0  0  0  0  0  0
   -1.3000   -0.7500    0.0000 C   0  0  0  0  0  0  0  0  0  0  0  0
    2.5989    1.5002    0.0000 C   0  0  0  0  0  0  0  0  0  0  0  0
   -2.5989    1.5002    0.0000 C   0  0  0  0  0  0  0  0  0  0  0  0
    1.3000    0.7500    0.0000 C   0  0  0  0  0  0  0  0  0  0  0  0
   -1.3000    0.7500    0.0000 C   0  0  0  0  0  0  0  0  0  0  0  0
    0.0000    1.5000    0.0000 C   0  0  0  0  0  0  0  0  0  0  0  0
   -0.0000   -1.5000    0.0000 O   0  0  0  0  0  0  0  0  0  0  0  0
    0.0000    3.0000    0.0000 S   0  0  0  0  0  0  0  0  0  0  0  0
  5  3  2  0
  6  3  1  0
  7  4  2  0
  8  4  1  0
  9  5  1  0
 10  6  2  0
 11  7  1  0
 12  8  2  0
 13  1  1  0
 14  2  1  0
 15  9  2  0
 15 10  1  0
 16 11  2  0
 16 12  1  0
 17 13  2  0
 17 15  1  0
 18 14  2  0
 18 16  1  0
 19 17  1  0
 19 18  1  0
 20 13  1  0
 20 14  1  0
 21 19  2  0
M  END
>  <NAME>  (4411) 
2,6-DIMETHYL-3,5-DIPHENYL-4-PYRAN-4-THIONE

>  <SYNONYMS>  (4411) 


>  <SPECTRUM TYPE>  (4411) 
MS1

>  <INSTRUMENT TYPE>  (4411) 
EI-B

>  <INSTRUMENT>  (4411) 
HITACHI RMS-4

>  <ION MODE>  (4411) 
P

>  <INCHIKEY>  (4411) 
RJPSKYMOAGEJKT-UHFFFAOYSA-N

>  <FORMULA>  (4411) 
C19H16OS

>  <EXACT MASS>  (4411) 
292.09218613200005

>  <MW>  (4411) 
292

>  <ID>  (4411) 
JP005534

>  <CONTRIBUTOR>  (4411) 
University of Tokyo Team, {Faculty of Engineering, University of Tokyo

>  <COMMENT>  (4411) 
SMILES=c(c3)ccc(c3)C(=C(C)1)C(=S)C(c(c2)cccc2)=C(C)O1
InChI=InChI=1S/C19H16OS/c1-13-17(15-9-5-3-6-10-15)19(21)18(14(2)20-13)16-11-7-4-8-12-16/h3-12H,1-2H3
computed SMILES=S=C1C(C=2C=CC=CC2)=C(OC(=C1C=3C=CC=CC3)C)C
accession=JP005534
date=2016.01.19 (Created 2008.10.21, modified 2011.05.06)
author=MASS SPECTROSCOPY SOC. OF JAPAN (MSSJ)
license=CC BY-NC-SA
exact mass=292.09219
ionization energy=70 eV
ion type=[M]+*
computed spectral entropy=3.0376705025536226
computed normalized entropy=0.6581996052906337
SPLASH=splash10-0006-2190000000-ae654c58b183d01fbeef
submitter=submitter = University of Tokyo Team (Faculty of Engineering, University of Tokyo)
MoNA Rating=3.75

>  <NUM PEAKS>  (4411) 
101

>  <MASS SPECTRAL PEAKS>  (4411) 
28 1.2
29 0.7
31 1.4
32 1.1
39 1.6
41 1
43 20.3
44 0.7
45 1
51 1.7
55 1.2
57 1.6
63 1.7
65 1.2
69 1
71 0.9
75 0.7
77 3.3
78 0.7
81 0.7
83 0.7
85 0.7
87 0.7
88 0.7
89 2.2
90 0.6
91 2.9
92 0.5
93 0.7
95 0.7
97 0.7
101 1.1
102 0.7
103 1.2
105 1.8
113 0.7
114 0.7
115 5.9
116 0.9
117 1.1
121 1.1
122.5 0.7
123 0.6
123.5 0.7
124 0.6
125 0.4
126 0.7
127 1.1
128 0.9
129 1.4
129.5 0.9
132 1.1
134 0.7
135.5 0.6
136 0.7
137 0.7
138 0.6
138.5 0.6
139 1.1
145 1
146 4
146.5 0.9
147 1.7
171 1.7
184 0.7
185 0.7
186 0.6
187 0.6
189 1.6
199 0.4
200 0.6
201 0.4
202 2
203 0.9
213 1.2
214 0.6
215 4.3
216 1.4
221 1.2
232 0.7
233 0.5
234 2.2
235 0.5
245 1.7
246 0.7
247 5.3
248 2.8
249 0.9
258 0.7
259 0.7
261 0.7
275 0.9
276 0.7
277 0.7
289 0.4
290 1.2
291 99.99
292 48.5
293 13.8
294 3.6
295 0.6

$$$$

     RDKit          2D

 21 23  0  0  0  0  0  0  0  0999 V2000
    2.5989   -1.5002    0.0000 C   0  0  0  0  0  0  0  0  0  0  0  0
   -2.5989   -1.5002    0.0000 C   0  0  0  0  0  0  0  0  0  0  0  0
    5.1968    3.0006    0.0000 C   0  0  0  0  0  0  0  0  0  0  0  0
   -5.1968    3.0006    0.0000 C   0  0  0  0  0  0  0  0  0  0  0  0
    3.8971    3.7512    0.0000 C   0  0  0  0  0  0  0  0  0  0  0  0
    5.1975    1.4998    0.0000 C   0  0  0  0  0  0  0  0  0  0  0  0
   -5.1975    1.4998    0.0000 C   0  0  0  0  0  0  0  0  0  0  0  0
   -3.8971    3.7512    0.0000 C   0  0  0  0  0  0  0  0  0  0  0  0
    2.5982    3.0010    0.0000 C   0  0  0  0  0  0  0  0  0  0  0  0
    3.8986    0.7496    0.0000 C   0  0  0  0  0  0  0  0  0  0  0  0
   -3.8986    0.7496    0.0000 C   0  0  0  0  0  0  0  0  0  0  0  0
   -2.5982    3.0010    0.0000 C   0  0  0  0  0  0  0  0  0  0  0  0
    1.3000   -0.7500    0.0000 C   0  0  0  0  0  0  0  0  0  0  0  0
   -1.3000   -0.7500    0.0000 C   0  0  0  0  0  0  0  0  0  0  0  0
    2.5989    1.5002    0.0000 C   0  0  0  0  0  0  0  0  0  0  0  0
   -2.5989    1.5002    0.0000 C   0  0  0  0  0  0  0  0  0  0  0  0
    1.3000    0.7500    0.0000 C   0  0  0  0  0  0  0  0  0  0  0  0
   -1.3000    0.7500    0.0000 C   0  0  0  0  0  0  0  0  0  0  0  0
    0.0000    1.5000    0.0000 C   0  0  0  0  0  0  0  0  0  0  0  0
    0.0000    3.0000    0.0000 O   0  0  0  0  0  0  0  0  0  0  0  0
   -0.0000   -1.5000    0.0000 O   0  0  0  0  0  0  0  0  0  0  0  0
  5  3  2  0
  6  3  1  0
  7  4  2  0
  8  4  1  0
  9  5  1  0
 10  6  2  0
 11  7  1  0
 12  8  2  0
 13  1  1  0
 14  2  1  0
 15  9  2  0
 15 10  1  0
 16 11  2  0
 16 12  1  0
 17 13  2  0
 17 15  1  0
 18 14  2  0
 18 16  1  0
 19 17  1  0
 19 18  1  0
 20 19  2  0
 21 13  1  0
 21 14  1  0
M  END
>  <NAME>  (4412) 
2,6-DIMETHYL-3,5-DIPHENYL-4-PYRONE

>  <SYNONYMS>  (4412) 
2,6-DIMETHYL-3,5-DIPHENYL-GAMMA-PYRONE

>  <SPECTRUM TYPE>  (4412) 
MS1

>  <INSTRUMENT TYPE>  (4412) 
EI-B

>  <INSTRUMENT>  (4412) 
HITACHI RMS-4

>  <ION MODE>  (4412) 
P

>  <INCHIKEY>  (4412) 
YCMLUTKKOKKIMN-UHFFFAOYSA-N

>  <FORMULA>  (4412) 
C19H16O2

>  <EXACT MASS>  (4412) 
276.115029752

>  <MW>  (4412) 
276

>  <ID>  (4412) 
JP005533

>  <CONTRIBUTOR>  (4412) 
University of Tokyo Team, {Faculty of Engineering, University of Tokyo

>  <COMMENT>  (4412) 
SMILES=c(c3)ccc(c3)C(=C(C)1)C(=O)C(c(c2)cccc2)=C(C)O1
InChI=InChI=1S/C19H16O2/c1-13-17(15-9-5-3-6-10-15)19(20)18(14(2)21-13)16-11-7-4-8-12-16/h3-12H,1-2H3
computed SMILES=O=C1C(C=2C=CC=CC2)=C(OC(=C1C=3C=CC=CC3)C)C
accession=JP005533
date=2016.01.19 (Created 2008.10.21, modified 2011.05.06)
author=MASS SPECTROSCOPY SOC. OF JAPAN (MSSJ)
license=CC BY-NC-SA
exact mass=276.11503
ionization energy=70 eV
ion type=[M]+*
computed spectral entropy=3.9272920158704823
computed normalized entropy=0.8232135060301442
SPLASH=splash10-004i-8790000000-60149ccb12c4ad8a9061
submitter=submitter = University of Tokyo Team (Faculty of Engineering, University of Tokyo)
MoNA Rating=3.75

>  <NUM PEAKS>  (4412) 
118

>  <MASS SPECTRAL PEAKS>  (4412) 
27 5.5
28 19.5
29 3.5
31 1.5
32 4.5
38 1.5
39 12.5
40 2
41 5.5
42 2
43 32
44 3.5
45 1
50 3
51 9.5
52 2.5
53 2.5
55 15
56 2.5
57 2
62 3
63 14
64 3.5
65 7.5
66 1.5
67 2.5
69 2
74 2
75 3
76 3
77 14
78 6
79 3
81 2
82 1
83 2
85 1.5
87 2
88 3.5
89 20.5
90 22
91 8.5
92 2.5
93 2
95 2
101 3
102 4
103 10
104 4.5
105 4.5
107 2
109 2
111 1.5
113 2.5
114 5
115 49
116 19
117 3.5
118 22.5
119 3.5
126 2
127 5
128 3.5
129 2
130 1
131 3
133 4
136 2.5
137 2
138 5
139 2
141 2
143 1.5
145 2
149 2
150 1.5
151 1.5
152 2
160 3
161 5
162 1.5
163 1.5
164 1.5
165 3
176 2
177 1.5
178 3
179 2
189 4
190 3
191 2
197 2
200 2
201 2
202 6
203 6
204 3.5
205 7
206 2
215 4.5
216 2
218 2.5
219 1.5
230 1.5
231 2
233 3
234 2
235 4.5
236 1.5
247 2.5
248 3
257 1.5
261 3
262 2
276 99.99
277 84
278 20
279 3.5

$$$$

     RDKit          2D

 12 13  0  0  0  0  0  0  0  0999 V2000
    2.9689   -1.5002    0.0000 C   0  0  0  0  0  0  0  0  0  0  0  0
    2.9689    1.5002    0.0000 C   0  0  0  0  0  0  0  0  0  0  0  0
   -1.6796   -2.0493    0.0000 C   0  0  0  0  0  0  0  0  0  0  0  0
   -1.6796    2.0493    0.0000 C   0  0  0  0  0  0  0  0  0  0  0  0
   -2.2300    0.0000    0.0000 C   0  0  0  0  0  0  0  0  0  0  0  0
    1.6700   -0.7500    0.0000 C   0  0  0  0  0  0  0  0  0  0  0  0
    1.6700    0.7500    0.0000 C   0  0  0  0  0  0  0  0  0  0  0  0
    0.3700   -1.5000    0.0000 C   0  0  0  0  0  0  0  0  0  0  0  0
   -0.9300   -0.7500    0.0000 C   0  0  0  0  0  0  0  0  0  0  0  0
   -0.9300    0.7500    0.0000 C   0  0  0  0  0  0  0  0  0  0  0  0
    0.3700   -3.0000    0.0000 O   0  0  0  0  0  0  0  0  0  0  0  0
    0.3700    1.5000    0.0000 O   0  0  0  0  0  0  0  0  0  0  0  0
  6  1  1  0
  7  2  1  0
  7  6  2  0
  8  6  1  0
  9  3  1  0
  9  5  1  0
  9  8  1  0
 10  4  1  0
 10  5  1  0
 10  9  1  0
 11  8  2  0
 12  7  1  0
 12 10  1  0
M  END
>  <NAME>  (4413) 
1,3,4,6-TETRAMETHYL-2-OXABICYCLO(4.1.0)HEPT-3-EN-5-ONE

>  <SYNONYMS>  (4413) 


>  <SPECTRUM TYPE>  (4413) 
MS1

>  <INSTRUMENT TYPE>  (4413) 
EI-B

>  <INSTRUMENT>  (4413) 
HITACHI RMS-6L

>  <ION MODE>  (4413) 
P

>  <INCHIKEY>  (4413) 
VCFJZOLLJFVYCM-UHFFFAOYSA-N

>  <FORMULA>  (4413) 
C10H14O2

>  <EXACT MASS>  (4413) 
166.099379688

>  <MW>  (4413) 
166

>  <ID>  (4413) 
JP005532

>  <CONTRIBUTOR>  (4413) 
University of Tokyo Team, {Faculty of Engineering, University of Tokyo

>  <COMMENT>  (4413) 
SMILES=CC(=C(C)2)OC(C)(C1)C(C)(C(=O)2)1
InChI=InChI=1S/C10H14O2/c1-6-7(2)12-10(4)5-9(10,3)8(6)11/h5H2,1-4H3
computed SMILES=O=C1C(=C(OC2(C)CC12C)C)C
accession=JP005532
date=2016.01.19 (Created 2008.10.21, modified 2011.05.06)
author=MASS SPECTROSCOPY SOC. OF JAPAN (MSSJ)
license=CC BY-NC-SA
exact mass=166.09938
ionization energy=70 eV
ion type=[M]+*
computed spectral entropy=3.3355389732075573
computed normalized entropy=0.7990487603444011
SPLASH=splash10-00mo-9200000000-b4a788e5a21d4fb5970f
submitter=submitter = University of Tokyo Team (Faculty of Engineering, University of Tokyo)
MoNA Rating=3.75

>  <NUM PEAKS>  (4413) 
65

>  <MASS SPECTRAL PEAKS>  (4413) 
27 3.4
28 24
29 77.1
30 5.1
38 2.9
39 35.4
40 8
41 48
42 5.1
43 99.99
44 2.9
50 2.9
51 5.7
52 3.4
53 15.4
54 48
55 9.7
56 1.7
57 5.7
63 1.7
65 2.9
66 1.7
67 16.6
68 2.9
69 54.3
70 4
71 1.1
77 3.4
78 1.1
79 3.4
80 1.7
81 2.9
82 2.3
83 3.4
84 1.7
85 9.7
91 1.7
93 1.7
95 5.7
97 4.6
99 9.7
105 1.7
107 1.7
108 1.7
109 17.1
110 1.7
111 1.7
112 2.9
113 1.7
121 1.1
122 1.1
123 25.7
124 15.4
125 4.6
126 20
127 1.7
137 5.7
138 1.1
149 1.1
151 23.4
152 2.9
165 1.7
166 34.3
167 6.9
168 1.1

$$$$

     RDKit          2D

 10 11  0  0  0  0  0  0  0  0999 V2000
    2.9689    1.5002    0.0000 C   0  0  0  0  0  0  0  0  0  0  0  0
   -1.6796    2.0493    0.0000 C   0  0  0  0  0  0  0  0  0  0  0  0
    1.6700   -0.7500    0.0000 C   0  0  0  0  0  0  0  0  0  0  0  0
   -2.2300    0.0000    0.0000 C   0  0  0  0  0  0  0  0  0  0  0  0
    1.6700    0.7500    0.0000 C   0  0  0  0  0  0  0  0  0  0  0  0
   -0.9300   -0.7500    0.0000 C   0  0  0  0  0  0  0  0  0  0  0  0
    0.3700   -1.5000    0.0000 C   0  0  0  0  0  0  0  0  0  0  0  0
   -0.9300    0.7500    0.0000 C   0  0  0  0  0  0  0  0  0  0  0  0
    0.3700   -3.0000    0.0000 O   0  0  0  0  0  0  0  0  0  0  0  0
    0.3700    1.5000    0.0000 O   0  0  0  0  0  0  0  0  0  0  0  0
  5  1  1  0
  5  3  2  0
  6  4  1  0
  7  3  1  0
  7  6  1  0
  8  2  1  0
  8  4  1  0
  8  6  1  0
  9  7  2  0
 10  5  1  0
 10  8  1  0
M  END
>  <NAME>  (4414) 
1,3-DIMETHYL-2-OXABICYCLO(4.1.0)HEPT-3-EN-5-ONE

>  <SYNONYMS>  (4414) 


>  <SPECTRUM TYPE>  (4414) 
MS1

>  <INSTRUMENT TYPE>  (4414) 
EI-B

>  <INSTRUMENT>  (4414) 
HITACHI RMS-6L

>  <ION MODE>  (4414) 
P

>  <INCHIKEY>  (4414) 
GZOUQKLFUKOBFC-UHFFFAOYSA-N

>  <FORMULA>  (4414) 
C8H10O2

>  <EXACT MASS>  (4414) 
138.06807956

>  <MW>  (4414) 
138

>  <ID>  (4414) 
JP005531

>  <CONTRIBUTOR>  (4414) 
University of Tokyo Team, {Faculty of Engineering, University of Tokyo

>  <COMMENT>  (4414) 
SMILES=CC(=C([H])2)OC(C)(C1)C(C(=O)2)1
InChI=InChI=1S/C8H10O2/c1-5-3-7(9)6-4-8(6,2)10-5/h3,6H,4H2,1-2H3
computed SMILES=O=C1C=C(OC2(C)CC12)C
accession=JP005531
date=2016.01.19 (Created 2008.10.21, modified 2011.05.06)
author=MASS SPECTROSCOPY SOC. OF JAPAN (MSSJ)
license=CC BY-NC-SA
exact mass=138.06808
ionization energy=70 eV
ion type=[M]+*
computed spectral entropy=2.7254142872755893
computed normalized entropy=0.738819015686765
SPLASH=splash10-004l-9000000000-15ed5139c6502addfc6b
submitter=submitter = University of Tokyo Team (Faculty of Engineering, University of Tokyo)
MoNA Rating=3.75

>  <NUM PEAKS>  (4414) 
40

>  <MASS SPECTRAL PEAKS>  (4414) 
26 2
27 13
28 99.99
29 2
31 1.5
32 5
37 1
38 2
39 16.5
40 24.5
41 6
42 2
43 41
44 1.5
45 2
50 1.5
51 2
52 1
53 4.5
54 3.5
55 17
56 1
61 1
65 1
67 4.5
68 20
69 3.5
71 4
85 11.5
95 7.5
96 15
97 1
99 0.5
109 2
110 1
112 0.5
123 1.5
138 11.5
139 2
140 0.2

$$$$

     RDKit          2D

 14 17  0  0  0  0  0  0  0  0999 V2000
   -4.8526   -0.0310    0.0000 C   0  0  0  0  0  0  0  0  0  0  0  0
   -2.2546   -0.0310    0.0000 C   0  0  0  0  0  0  0  0  0  0  0  0
   -3.9710    1.1825    0.0000 C   0  0  0  0  0  0  0  0  0  0  0  0
   -3.9710   -1.2445    0.0000 C   0  0  0  0  0  0  0  0  0  0  0  0
   -1.3729    1.1825    0.0000 C   0  0  0  0  0  0  0  0  0  0  0  0
   -1.3729   -1.2445    0.0000 C   0  0  0  0  0  0  0  0  0  0  0  0
    1.3527   -0.0310    0.0000 C   0  0  0  0  0  0  0  0  0  0  0  0
   -2.5444    0.7190    0.0000 C   0  0  0  0  0  0  0  0  0  0  0  0
   -2.5444   -0.7810    0.0000 C   0  0  0  0  0  0  0  0  0  0  0  0
   -1.2453    1.4690    0.0000 C   0  0  0  0  0  0  0  0  0  0  0  0
    0.0537    0.7190    0.0000 C   0  0  0  0  0  0  0  0  0  0  0  0
    0.0537   -0.7810    0.0000 C   0  0  0  0  0  0  0  0  0  0  0  0
   -1.2453    2.9690    0.0000 O   0  0  0  0  0  0  0  0  0  0  0  0
   -1.2453   -1.5310    0.0000 O   0  0  0  0  0  0  0  0  0  0  0  0
  3  1  1  0
  4  1  1  0
  5  2  1  0
  6  2  1  0
  8  3  1  0
  9  4  1  0
  9  8  2  0
 10  8  1  0
 11  5  1  0
 11  7  1  0
 11 10  1  0
 12  6  1  0
 12  7  1  0
 12 11  1  0
 13 10  2  0
 14  9  1  0
 14 12  1  0
M  END
>  <NAME>  (4415) 
3,4-TRIMETHYLENE-2-OXATRICYCLO(4.3.1.0(1,6))DEC-3-EN-5-ONE

>  <SYNONYMS>  (4415) 


>  <SPECTRUM TYPE>  (4415) 
MS1

>  <INSTRUMENT TYPE>  (4415) 
EI-B

>  <INSTRUMENT>  (4415) 
HITACHI RMS-4

>  <ION MODE>  (4415) 
P

>  <INCHIKEY>  (4415) 
APMUNNMORCOGEY-UHFFFAOYSA-N

>  <FORMULA>  (4415) 
C12H14O2

>  <EXACT MASS>  (4415) 
190.099379688

>  <MW>  (4415) 
190

>  <ID>  (4415) 
JP005530

>  <CONTRIBUTOR>  (4415) 
University of Tokyo Team, {Faculty of Engineering, University of Tokyo

>  <COMMENT>  (4415) 
SMILES=C(C4)CC(=C42)C(=O)C(C3)(C1)C(CC3)(O2)1
InChI=InChI=1S/C12H14O2/c13-10-8-3-1-4-9(8)14-12-6-2-5-11(10,12)7-12/h1-7H2
computed SMILES=O=C1C2=C(OC34CCCC14C3)CCC2
accession=JP005530
date=2016.01.19 (Created 2008.10.21, modified 2011.05.06)
author=MASS SPECTROSCOPY SOC. OF JAPAN (MSSJ)
license=CC BY-NC-SA
exact mass=190.09938
ionization energy=70 eV
ion type=[M]+*
computed spectral entropy=3.958496940863014
computed normalized entropy=0.8633642352487949
SPLASH=splash10-0f76-9400000000-2557cd77fb04e49a5ffe
submitter=submitter = University of Tokyo Team (Faculty of Engineering, University of Tokyo)
MoNA Rating=3.75

>  <NUM PEAKS>  (4415) 
98

>  <MASS SPECTRAL PEAKS>  (4415) 
26 10
27 37
28 17.5
29 18.5
31 6
38 6.5
39 88.5
40 20.5
41 35.5
42 6
43 8.5
45 2
50 8
51 28
52 36
53 91.5
54 12
55 32.5
56 4
57 6
62 2
63 6.5
64 3
65 16.5
66 25.5
67 12
68 3
69 3
70 2
71 2
77 24.5
78 12
79 34
80 33
81 22.5
82 7
83 4
84 1.5
89 2
91 33.5
92 8.5
93 7
94 7
95 7
96 3
97 3
103 3
104 1.5
105 9.5
106 8.5
107 5
108 5
109 14
110 5
111 21
112 2
115 4
116 5
117 5.5
118 2
119 6.5
120 3
121 3
122 2.5
128 4.5
129 7.5
130 5
131 3
133 15.5
134 28
135 13.5
136 2
141 1.5
142 3
143 6
144 5
145 5
146 2.5
147 16.5
148 5.5
149 6
159 1.5
160 1.5
161 10.5
162 5.5
163 1
170 3
172 2
173 6.5
174 2
175 13.5
176 2.5
187 2
188 1.5
189 6
190 99.99
191 14
192 2

$$$$

     RDKit          2D

 13 15  0  0  0  0  0  0  0  0999 V2000
    3.6100    0.0000    0.0000 C   0  0  0  0  0  0  0  0  0  0  0  0
   -3.6100    0.0000    0.0000 C   0  0  0  0  0  0  0  0  0  0  0  0
    2.7300   -1.2100    0.0000 C   0  0  0  0  0  0  0  0  0  0  0  0
   -2.7300   -1.2100    0.0000 C   0  0  0  0  0  0  0  0  0  0  0  0
    2.7300    1.2100    0.0000 C   0  0  0  0  0  0  0  0  0  0  0  0
   -2.7300    1.2100    0.0000 C   0  0  0  0  0  0  0  0  0  0  0  0
    1.3000   -0.7500    0.0000 C   0  0  0  0  0  0  0  0  0  0  0  0
   -1.3000   -0.7500    0.0000 C   0  0  0  0  0  0  0  0  0  0  0  0
    1.3000    0.7500    0.0000 C   0  0  0  0  0  0  0  0  0  0  0  0
   -1.3000    0.7500    0.0000 C   0  0  0  0  0  0  0  0  0  0  0  0
    0.0000   -1.5000    0.0000 C   0  0  0  0  0  0  0  0  0  0  0  0
   -0.0000   -3.0000    0.0000 O   0  0  0  0  0  0  0  0  0  0  0  0
    0.0000    1.5000    0.0000 O   0  0  0  0  0  0  0  0  0  0  0  0
  3  1  1  0
  4  2  1  0
  5  1  1  0
  6  2  1  0
  7  3  1  0
  8  4  1  0
  9  5  1  0
  9  7  2  0
 10  6  1  0
 10  8  2  0
 11  7  1  0
 11  8  1  0
 12 11  2  0
 13  9  1  0
 13 10  1  0
M  END
>  <NAME>  (4416) 
2,3:5,6-BIS(TRIMETHYLENE)PYRAN-4-ONE

>  <SYNONYMS>  (4416) 


>  <SPECTRUM TYPE>  (4416) 
MS1

>  <INSTRUMENT TYPE>  (4416) 
EI-B

>  <INSTRUMENT>  (4416) 
HITACHI RMS-4

>  <ION MODE>  (4416) 
P

>  <INCHIKEY>  (4416) 
SYXQGSUZSKBHAC-UHFFFAOYSA-N

>  <FORMULA>  (4416) 
C11H12O2

>  <EXACT MASS>  (4416) 
176.083729624

>  <MW>  (4416) 
176

>  <ID>  (4416) 
JP005529

>  <CONTRIBUTOR>  (4416) 
University of Tokyo Team, {Faculty of Engineering, University of Tokyo

>  <COMMENT>  (4416) 
SMILES=O=C(C2=1)C(C3)=C(CC3)OC(CCC2)1
InChI=InChI=1S/C11H12O2/c12-11-7-3-1-5-9(7)13-10-6-2-4-8(10)11/h1-6H2
computed SMILES=O=C1C2=C(OC3=C1CCC3)CCC2
accession=JP005529
date=2016.01.19 (Created 2008.10.21, modified 2011.05.06)
author=MASS SPECTROSCOPY SOC. OF JAPAN (MSSJ)
license=CC BY-NC-SA
exact mass=176.08373
ionization energy=70 eV
ion type=[M]+*
computed spectral entropy=3.3027531975672417
computed normalized entropy=0.7854921861198104
SPLASH=splash10-004i-9700000000-3740ad9283f0f4f92ed8
submitter=submitter = University of Tokyo Team (Faculty of Engineering, University of Tokyo)
MoNA Rating=3.75

>  <NUM PEAKS>  (4416) 
67

>  <MASS SPECTRAL PEAKS>  (4416) 
26 3.5
27 12
28 5
29 4
38 3.5
39 26
40 11
41 10
42 2.5
43 3.5
50 2.5
51 67.5
52 5
53 9.5
54 5
55 12
60 2
62 2
63 6
64 4
65 23
66 22.5
67 4
68 1.5
69 1.5
74 1.5
75 1.5
76 1.5
77 4.5
78 2
79 4
80 1.5
81 3.5
82 3.5
83 1.5
88 1.5
89 2
91 9.5
92 4.5
93 2
94 2
103 2
104 1.5
105 6
106 1.5
107 1.5
108 1.5
109 5
110 2
111 18
112 2
115 3.5
116 2
117 1.5
119 1.5
120 2
121 1.5
129 2.5
130 1.5
147 3.5
148 2
161 2
174 3.5
175 99.99
176 57.5
177 20
178 3.5

$$$$

     RDKit          2D

 10 11  0  0  0  0  0  0  0  0999 V2000
    2.6000    0.0000    0.0000 C   0  0  0  0  0  0  0  0  0  0  0  0
    1.7200   -1.2100    0.0000 C   0  0  0  0  0  0  0  0  0  0  0  0
    1.7200    1.2100    0.0000 C   0  0  0  0  0  0  0  0  0  0  0  0
   -2.3100   -0.7500    0.0000 C   0  0  0  0  0  0  0  0  0  0  0  0
   -2.3100    0.7500    0.0000 C   0  0  0  0  0  0  0  0  0  0  0  0
    0.2900   -0.7500    0.0000 C   0  0  0  0  0  0  0  0  0  0  0  0
   -1.0100   -1.5000    0.0000 C   0  0  0  0  0  0  0  0  0  0  0  0
    0.2900    0.7500    0.0000 C   0  0  0  0  0  0  0  0  0  0  0  0
   -1.0100   -3.0000    0.0000 O   0  0  0  0  0  0  0  0  0  0  0  0
   -1.0100    1.5000    0.0000 O   0  0  0  0  0  0  0  0  0  0  0  0
  2  1  1  0
  3  1  1  0
  5  4  2  0
  6  2  1  0
  7  4  1  0
  7  6  1  0
  8  3  1  0
  8  6  2  0
  9  7  2  0
 10  5  1  0
 10  8  1  0
M  END
>  <NAME>  (4417) 
2,3-TRIMETHYLENE-4-PYRONE

>  <SYNONYMS>  (4417) 
2,3-TRIMETHYLENE-GAMMA-PYRONE

>  <SPECTRUM TYPE>  (4417) 
MS1

>  <INSTRUMENT TYPE>  (4417) 
EI-B

>  <INSTRUMENT>  (4417) 
HITACHI RMS-4

>  <ION MODE>  (4417) 
P

>  <INCHIKEY>  (4417) 
HZEXINHQHZFXBU-UHFFFAOYSA-N

>  <FORMULA>  (4417) 
C8H8O2

>  <EXACT MASS>  (4417) 
136.052429496

>  <MW>  (4417) 
136

>  <ID>  (4417) 
JP005528

>  <CONTRIBUTOR>  (4417) 
University of Tokyo Team, {Faculty of Engineering, University of Tokyo

>  <COMMENT>  (4417) 
SMILES=O=C(C=1)C(C2)=C(CC2)OC1
InChI=InChI=1S/C8H8O2/c9-7-4-5-10-8-3-1-2-6(7)8/h4-5H,1-3H2
computed SMILES=O=C1C=COC2=C1CCC2
accession=JP005528
date=2016.01.19 (Created 2008.10.21, modified 2011.05.06)
author=MASS SPECTROSCOPY SOC. OF JAPAN (MSSJ)
license=CC BY-NC-SA
exact mass=136.05243
ionization energy=70 eV
ion type=[M]+*
computed spectral entropy=3.691635093408127
computed normalized entropy=0.8604288524447671
SPLASH=splash10-000i-9300000000-80997dc861c1e2113788
submitter=submitter = University of Tokyo Team (Faculty of Engineering, University of Tokyo)
MoNA Rating=3.75

>  <NUM PEAKS>  (4417) 
73

>  <MASS SPECTRAL PEAKS>  (4417) 
26 23
27 31
28 13.5
29 5
30 4.5
32 4.5
37 4.5
38 12
39 55
40 19
41 14
42 10
43 8
44 2
45 3
49 3
50 15
51 26
52 21
53 27.5
54 36.5
55 41
56 4.5
57 2
58 2
60 2
61 3.5
62 7.5
63 15
64 6
65 25
66 35.5
67 9
68 7.5
69 10.5
70 3
71 15
72 2
73 2
74 3
75 3
76 4
77 15
78 6
79 29
80 10.5
81 12
82 44.5
83 13.5
84 3
89 3
90 3
91 3
92 2
93 3
94 3
95 3
105 2
106 2
107 15.5
108 13.5
109 9
110 9
111 2
118 2
119 2
120 2
121 5
134 4
135 99.99
136 98.5
137 27
138 4

$$$$

     RDKit          2D

  6  5  0  0  0  0  0  0  0  0999 V2000
    0.0000    0.0000    0.0000 C   0  0  0  0  0  0  0  0  0  0  0  0
   -2.5981    4.5000    0.0000 C   0  0  0  0  0  0  0  0  0  0  0  0
   -1.2990    2.2500    0.0000 C   0  0  0  0  0  0  0  0  0  0  0  0
    0.0000    1.5000    0.0000 C   0  0  0  0  0  0  0  0  0  0  0  0
    1.2990    2.2500    0.0000 O   0  0  0  0  0  0  0  0  0  0  0  0
   -1.2990    3.7500    0.0000 O   0  0  0  0  0  0  0  0  0  0  0  0
  4  1  1  0
  4  3  1  0
  5  4  2  0
  6  2  1  0
  6  3  1  0
M  END
>  <NAME>  (4418) 
METHOXYACETONE

>  <SYNONYMS>  (4418) 
1-METHOXY-2-PROPANONE

>  <SPECTRUM TYPE>  (4418) 
MS1

>  <INSTRUMENT TYPE>  (4418) 
EI-B

>  <INSTRUMENT>  (4418) 
HITACHI RMU-7M

>  <ION MODE>  (4418) 
P

>  <INCHIKEY>  (4418) 
CUZLJOLBIRPEFB-UHFFFAOYSA-N

>  <FORMULA>  (4418) 
C4H8O2

>  <EXACT MASS>  (4418) 
88.052429496

>  <MW>  (4418) 
88

>  <ID>  (4418) 
JP005436

>  <CONTRIBUTOR>  (4418) 
University of Tokyo Team, {Faculty of Engineering, University of Tokyo

>  <COMMENT>  (4418) 
SMILES=COCC(C)=O
InChI=InChI=1S/C4H8O2/c1-4(5)3-6-2/h3H2,1-2H3
computed SMILES=O=C(C)COC
accession=JP005436
date=2016.01.19 (Created 2008.10.21, modified 2011.05.06)
author=TAJIMA S, GUNMA COLLEGE OF TECHNOLOGY
license=CC BY-NC-SA
exact mass=88.05243
ionization energy=70 eV
ion type=[M]+*
computed spectral entropy=1.7585977302547482
computed normalized entropy=0.6342800560892781
SPLASH=splash10-0005-9000000000-c5e2cf813246f9753405
submitter=submitter = University of Tokyo Team (Faculty of Engineering, University of Tokyo)
MoNA Rating=3.75

>  <NUM PEAKS>  (4418) 
16

>  <MASS SPECTRAL PEAKS>  (4418) 
14 1.32
15 13.49
27 3.64
28 1.92
29 14.95
31 2.58
42 4.63
43 76.65
44 2.58
45 99.99
46 2.31
57 1.92
58 35.65
59 1.39
88 2.05
89 1.46

$$$$

     RDKit          2D

  6  5  0  0  0  0  0  0  0  0999 V2000
    0.0000    0.0000    0.0000 C   0  0  0  0  0  0  0  0  0  0  0  0
   -2.5981    4.5000    0.0000 C   0  0  0  0  0  0  0  0  0  0  0  0
   -1.2990    2.2500    0.0000 C   0  0  0  0  0  0  0  0  0  0  0  0
    0.0000    1.5000    0.0000 C   0  0  0  0  0  0  0  0  0  0  0  0
    1.2990    2.2500    0.0000 O   0  0  0  0  0  0  0  0  0  0  0  0
   -1.2990    3.7500    0.0000 O   0  0  0  0  0  0  0  0  0  0  0  0
  4  1  1  0
  4  3  1  0
  5  4  2  0
  6  2  1  0
  6  3  1  0
M  END
>  <NAME>  (4419) 
METHOXYACETONE

>  <SYNONYMS>  (4419) 
1-METHOXY-2-PROPANONE

>  <SPECTRUM TYPE>  (4419) 
MS1

>  <INSTRUMENT TYPE>  (4419) 
EI-B

>  <INSTRUMENT>  (4419) 
HITACHI RMU-7M

>  <ION MODE>  (4419) 
P

>  <INCHIKEY>  (4419) 
CUZLJOLBIRPEFB-UHFFFAOYSA-N

>  <FORMULA>  (4419) 
C4H8O2

>  <EXACT MASS>  (4419) 
88.052429496

>  <MW>  (4419) 
88

>  <ID>  (4419) 
JP005435

>  <CONTRIBUTOR>  (4419) 
University of Tokyo Team, {Faculty of Engineering, University of Tokyo

>  <COMMENT>  (4419) 
SMILES=COCC(C)=O
InChI=InChI=1S/C4H8O2/c1-4(5)3-6-2/h3H2,1-2H3
computed SMILES=O=C(C)COC
accession=JP005435
date=2016.01.19 (Created 2008.10.21, modified 2011.05.06)
author=TAJIMA S, GUNMA COLLEGE OF TECHNOLOGY
license=CC BY-NC-SA
exact mass=88.05243
ionization energy=70 eV
ion type=[M]+*
computed spectral entropy=1.7585977302547482
computed normalized entropy=0.6342800560892781
SPLASH=splash10-0005-9000000000-c5e2cf813246f9753405
submitter=submitter = University of Tokyo Team (Faculty of Engineering, University of Tokyo)
MoNA Rating=3.75

>  <NUM PEAKS>  (4419) 
16

>  <MASS SPECTRAL PEAKS>  (4419) 
14 1.32
15 13.49
27 3.64
28 1.92
29 14.95
31 2.58
42 4.63
43 76.65
44 2.58
45 99.99
46 2.31
57 1.92
58 35.65
59 1.39
88 2.05
89 1.46

$$$$

     RDKit          2D

  3  2  0  0  0  0  0  0  0  0999 V2000
   -1.2990    0.0000    0.0000 C   0  0  0  0  0  0  0  0  0  0  0  0
    0.0000    2.2500    0.0000 C   0  0  0  0  0  0  0  0  0  0  0  0
   -0.0000    0.7500    0.0000 S   0  0  0  0  0  0  0  0  0  0  0  0
  3  1  1  0
  3  2  1  0
M  END
>  <NAME>  (4420) 
DIMETHYL THIOETHER

>  <SYNONYMS>  (4420) 
DIMETHYL SULFIDE

>  <SPECTRUM TYPE>  (4420) 
MS1

>  <INSTRUMENT TYPE>  (4420) 
EI-B

>  <INSTRUMENT>  (4420) 
HITACHI RMU-7M

>  <ION MODE>  (4420) 
P

>  <INCHIKEY>  (4420) 
QMMFVYPAHWMCMS-UHFFFAOYSA-N

>  <FORMULA>  (4420) 
C2H6S

>  <EXACT MASS>  (4420) 
62.019021192

>  <MW>  (4420) 
62

>  <ID>  (4420) 
JP005434

>  <CONTRIBUTOR>  (4420) 
University of Tokyo Team, {Faculty of Engineering, University of Tokyo

>  <COMMENT>  (4420) 
SMILES=CSC
InChI=InChI=1S/C2H6S/c1-3-2/h1-2H3
computed SMILES=S(C)C
accession=JP005434
date=2016.01.19 (Created 2008.10.21, modified 2011.05.06)
author=TAJIMA S, GUNMA COLLEGE OF TECHNOLOGY
license=CC BY-NC-SA
exact mass=62.01902
ionization energy=70 eV
ion type=[M]+*
computed spectral entropy=2.1788598121940366
computed normalized entropy=0.7690419137567086
SPLASH=splash10-01ot-9000000000-8ed5810ef2a492b40ae1
submitter=submitter = University of Tokyo Team (Faculty of Engineering, University of Tokyo)
MoNA Rating=3.75

>  <NUM PEAKS>  (4420) 
17

>  <MASS SPECTRAL PEAKS>  (4420) 
14 3.22
15 7.13
27 18.71
35 29.12
44 3.51
45 40.35
46 33.33
47 87.6
48 3.39
49 3.68
57 2.05
58 2.57
59 2.69
61 31.75
62 99.99
63 11.35
64 4.62

$$$$

     RDKit          2D

  3  2  0  0  0  0  0  0  0  0999 V2000
   -1.2990    0.0000    0.0000 C   0  0  0  0  0  0  0  0  0  0  0  0
   -0.0000    0.7500    0.0000 C   0  0  0  0  0  0  0  0  0  0  0  0
    0.0000    2.2500    0.0000 S   0  0  0  0  0  0  0  0  0  0  0  0
  2  1  1  0
  3  2  1  0
M  END
>  <NAME>  (4421) 
ETHANETHIOL

>  <SYNONYMS>  (4421) 


>  <SPECTRUM TYPE>  (4421) 
MS1

>  <INSTRUMENT TYPE>  (4421) 
EI-B

>  <INSTRUMENT>  (4421) 
HITACHI RMU-7M

>  <ION MODE>  (4421) 
P

>  <INCHIKEY>  (4421) 
DNJIEGIFACGWOD-UHFFFAOYSA-N

>  <FORMULA>  (4421) 
C2H6S

>  <EXACT MASS>  (4421) 
62.019021192

>  <MW>  (4421) 
62

>  <ID>  (4421) 
JP005433

>  <CONTRIBUTOR>  (4421) 
University of Tokyo Team, {Faculty of Engineering, University of Tokyo

>  <COMMENT>  (4421) 
SMILES=CCS
InChI=InChI=1S/C2H6S/c1-2-3/h3H,2H2,1H3
computed SMILES=SCC
accession=JP005433
date=2016.01.19 (Created 2008.10.21, modified 2011.05.06)
author=TAJIMA S, GUNMA COLLEGE OF TECHNOLOGY
license=CC BY-NC-SA
exact mass=62.01902
ionization energy=70 eV
ion type=[M]+*
computed spectral entropy=2.372860938332994
computed normalized entropy=0.8209535440728722
SPLASH=splash10-01t9-9000000000-851df2ea54d45dbde8e4
submitter=submitter = University of Tokyo Team (Faculty of Engineering, University of Tokyo)
MoNA Rating=3.75

>  <NUM PEAKS>  (4421) 
18

>  <MASS SPECTRAL PEAKS>  (4421) 
26 9.35
27 48.76
28 23.97
29 79.23
33 3.04
34 14.57
35 12.63
45 14.21
46 11.11
47 61.32
49 2.73
57 5.4
58 7.89
59 6.13
61 14.33
62 99.99
63 17.49
64 4.8

$$$$

     RDKit          2D

  5  4  0  0  0  0  0  0  0  0999 V2000
    1.9486    1.8750    0.0000 C   0  0  0  0  0  0  0  0  0  0  0  0
    0.6495    2.6250    0.0000 C   0  0  0  0  0  0  0  0  0  0  0  0
   -0.6495    1.8750    0.0000 C   0  0  0  0  0  0  0  0  0  0  0  0
   -1.9486    2.6250    0.0000 C   0  0  0  0  0  0  0  0  0  0  0  0
   -3.2476    3.3750    0.0000 N   0  0  0  0  0  0  0  0  0  0  0  0
  2  1  2  0
  3  2  1  0
  4  3  1  0
  5  4  3  0
M  END
>  <NAME>  (4422) 
ALLYLCYANIDE

>  <SYNONYMS>  (4422) 
1-CYANO-2-PROPENE

>  <SPECTRUM TYPE>  (4422) 
MS1

>  <INSTRUMENT TYPE>  (4422) 
EI-B

>  <INSTRUMENT>  (4422) 
HITACHI RMU-7M

>  <ION MODE>  (4422) 
P

>  <INCHIKEY>  (4422) 
SJNALLRHIVGIBI-UHFFFAOYSA-N

>  <FORMULA>  (4422) 
C4H5N

>  <EXACT MASS>  (4422) 
67.04219916

>  <MW>  (4422) 
67

>  <ID>  (4422) 
JP005432

>  <CONTRIBUTOR>  (4422) 
University of Tokyo Team, {Faculty of Engineering, University of Tokyo

>  <COMMENT>  (4422) 
SMILES=C=CCC#N
InChI=InChI=1S/C4H5N/c1-2-3-4-5/h2H,1,3H2
computed SMILES=N#CCC=C
accession=JP005432
date=2016.01.19 (Created 2008.10.21, modified 2011.05.06)
author=TAJIMA S, GUNMA COLLEGE OF TECHNOLOGY
license=CC BY-NC-SA
exact mass=67.0422
ionization energy=70 eV
ion type=[M]+*
computed spectral entropy=2.2710238092575854
computed normalized entropy=0.7580863715045382
SPLASH=splash10-00kf-9000000000-c5cfb8ff062960dbe8d8
submitter=submitter = University of Tokyo Team (Faculty of Engineering, University of Tokyo)
MoNA Rating=3.75

>  <NUM PEAKS>  (4422) 
20

>  <MASS SPECTRAL PEAKS>  (4422) 
26 4.45
27 20.37
28 4.15
32.5 1.23
37 8.72
38 12.3
39 37.47
40 23.71
41 99.99
42 2.75
50 1.17
51 2.28
52 7.38
62 1.11
63 2.69
64 7.14
65 2.05
66 15.16
67 50.59
68 10.42

$$$$

     RDKit          2D

  9 10  0  0  0  0  0  0  0  0999 V2000
   -2.3100    0.7500    0.0000 C   0  0  0  0  0  0  0  0  0  0  0  0
   -2.3100   -0.7500    0.0000 C   0  0  0  0  0  0  0  0  0  0  0  0
   -1.0100    1.5000    0.0000 C   0  0  0  0  0  0  0  0  0  0  0  0
   -1.0100   -1.5000    0.0000 C   0  0  0  0  0  0  0  0  0  0  0  0
    1.7200    1.2100    0.0000 C   0  0  0  0  0  0  0  0  0  0  0  0
    2.6000    0.0000    0.0000 C   0  0  0  0  0  0  0  0  0  0  0  0
    0.2900    0.7500    0.0000 C   0  0  0  0  0  0  0  0  0  0  0  0
    0.2900   -0.7500    0.0000 C   0  0  0  0  0  0  0  0  0  0  0  0
    1.7200   -1.2100    0.0000 O   0  0  0  0  0  0  0  0  0  0  0  0
  2  1  2  0
  3  1  1  0
  4  2  1  0
  6  5  1  0
  7  3  2  0
  7  5  1  0
  8  4  2  0
  8  7  1  0
  9  6  1  0
  9  8  1  0
M  END
>  <NAME>  (4423) 
DIHYDROBENZOFURAN

>  <SYNONYMS>  (4423) 


>  <SPECTRUM TYPE>  (4423) 
MS1

>  <INSTRUMENT TYPE>  (4423) 
EI-B

>  <INSTRUMENT>  (4423) 
HITACHI RMU-7M

>  <ION MODE>  (4423) 
P

>  <INCHIKEY>  (4423) 
HBEDSQVIWPRPAY-UHFFFAOYSA-N

>  <FORMULA>  (4423) 
C8H8O

>  <EXACT MASS>  (4423) 
120.057514876

>  <MW>  (4423) 
120

>  <ID>  (4423) 
JP005431

>  <CONTRIBUTOR>  (4423) 
University of Tokyo Team, {Faculty of Engineering, University of Tokyo

>  <COMMENT>  (4423) 
SMILES=c(c2)cc(C1)c(c2)OC1
InChI=InChI=1S/C8H8O/c1-2-4-8-7(3-1)5-6-9-8/h1-4H,5-6H2
computed SMILES=O1C=2C=CC=CC2CC1
accession=JP005431
date=2016.01.19 (Created 2008.10.21, modified 2011.05.06)
author=TAJIMA S, GUNMA COLLEGE OF TECHNOLOGY
license=CC BY-NC-SA
exact mass=120.05751
ionization energy=70 eV
ion type=[M]+*
computed spectral entropy=2.2678572256474316
computed normalized entropy=0.6880975357244677
SPLASH=splash10-00dl-9800000000-3ba67e4900f8c1b81fb5
submitter=submitter = University of Tokyo Team (Faculty of Engineering, University of Tokyo)
MoNA Rating=3.75

>  <NUM PEAKS>  (4423) 
27

>  <MASS SPECTRAL PEAKS>  (4423) 
27 2.07
31 3.19
38 2.23
39 7.26
40 1.12
45 4.39
46 2.39
50 2.23
51 4.39
52 1.2
60 1.75
62 2.39
63 6.62
64 2.23
65 7.5
66 1.52
77 1.99
89 9.41
90 5.58
91 65.39
92 14.35
93 1
105 1.2
118 2.79
119 26.71
120 99.99
121 9.25

$$$$

     RDKit          2D

 10  9  0  0  0  0  0  0  0  0999 V2000
   -6.4952    4.5000    0.0000 C   0  0  0  0  0  0  0  0  0  0  0  0
    2.5981    3.7500    0.0000 C   0  0  0  0  0  0  0  0  0  0  0  0
   -2.5981    3.7500    0.0000 C   0  0  0  0  0  0  0  0  0  0  0  0
   -1.2990    4.5000    0.0000 C   0  0  0  0  0  0  0  0  0  0  0  0
   -5.1962    3.7500    0.0000 C   0  0  0  0  0  0  0  0  0  0  0  0
    1.2990    4.5000    0.0000 C   0  0  0  0  0  0  0  0  0  0  0  0
   -5.1962    2.2500    0.0000 O   0  0  0  0  0  0  0  0  0  0  0  0
    1.2990    6.0000    0.0000 O   0  0  0  0  0  0  0  0  0  0  0  0
   -3.8971    4.5000    0.0000 O   0  0  0  0  0  0  0  0  0  0  0  0
    0.0000    3.7500    0.0000 O   0  0  0  0  0  0  0  0  0  0  0  0
  4  3  1  0
  5  1  1  0
  6  2  1  0
  7  5  2  0
  8  6  2  0
  9  3  1  0
  9  5  1  0
 10  4  1  0
 10  6  1  0
M  END
>  <NAME>  (4424) 
1,2-DIACETOXYETHANE

>  <SYNONYMS>  (4424) 
ETHYLENEGLYCOL DIACETATE

>  <SPECTRUM TYPE>  (4424) 
MS1

>  <INSTRUMENT TYPE>  (4424) 
EI-B

>  <INSTRUMENT>  (4424) 
HITACHI RMU-7M

>  <ION MODE>  (4424) 
P

>  <INCHIKEY>  (4424) 
JTXMVXSTHSMVQF-UHFFFAOYSA-N

>  <FORMULA>  (4424) 
C6H10O4

>  <EXACT MASS>  (4424) 
146.0579088

>  <MW>  (4424) 
146

>  <ID>  (4424) 
JP005430

>  <CONTRIBUTOR>  (4424) 
University of Tokyo Team, {Faculty of Engineering, University of Tokyo

>  <COMMENT>  (4424) 
SMILES=CC(=O)OCCOC(C)=O
InChI=InChI=1S/C6H10O4/c1-5(7)9-3-4-10-6(2)8/h3-4H2,1-2H3
computed SMILES=O=C(OCCOC(=O)C)C
accession=JP005430
date=2016.01.19 (Created 2008.10.21, modified 2011.05.06)
author=TAJIMA S, GUNMA COLLEGE OF TECHNOLOGY
license=CC BY-NC-SA
exact mass=146.05791
ionization energy=70 eV
ion type=[M]+*
computed spectral entropy=1.1571163151000532
computed normalized entropy=0.5025292305681774
SPLASH=splash10-0006-9000000000-8667267aab52464c5b23
submitter=submitter = University of Tokyo Team (Faculty of Engineering, University of Tokyo)
MoNA Rating=3.75

>  <NUM PEAKS>  (4424) 
10

>  <MASS SPECTRAL PEAKS>  (4424) 
15 4.43
42 1.94
43 99.99
44 2.91
73 5.22
74 1.7
86 12.31
87 3.58
103 2.3
116 4.79

$$$$

     RDKit          2D

  7  6  0  0  0  0  0  0  0  0999 V2000
    1.9486    3.3750    0.0000 C   0  0  0  0  0  0  0  0  0  0  0  0
    0.6495    4.1250    0.0000 C   0  0  0  0  0  0  0  0  0  0  0  0
   -4.5466    4.1250    0.0000 C   0  0  0  0  0  0  0  0  0  0  0  0
   -0.6495    3.3750    0.0000 C   0  0  0  0  0  0  0  0  0  0  0  0
   -3.2476    3.3750    0.0000 C   0  0  0  0  0  0  0  0  0  0  0  0
   -5.8457    3.3750    0.0000 O   0  0  0  0  0  0  0  0  0  0  0  0
   -1.9486    4.1250    0.0000 O   0  0  0  0  0  0  0  0  0  0  0  0
  2  1  2  0
  4  2  1  0
  5  3  1  0
  6  3  1  0
  7  4  1  0
  7  5  1  0
M  END
>  <NAME>  (4425) 
2-ALLYLOXYETHANOL

>  <SYNONYMS>  (4425) 
ETHYLENE GLYCOL MONOALLYL ETHER

>  <SPECTRUM TYPE>  (4425) 
MS1

>  <INSTRUMENT TYPE>  (4425) 
EI-B

>  <INSTRUMENT>  (4425) 
HITACHI RMU-7M

>  <ION MODE>  (4425) 
P

>  <INCHIKEY>  (4425) 
GCYHRYNSUGLLMA-UHFFFAOYSA-N

>  <FORMULA>  (4425) 
C5H10O2

>  <EXACT MASS>  (4425) 
102.06807956

>  <MW>  (4425) 
102

>  <ID>  (4425) 
JP005429

>  <CONTRIBUTOR>  (4425) 
University of Tokyo Team, {Faculty of Engineering, University of Tokyo

>  <COMMENT>  (4425) 
SMILES=C=CCOCCO
InChI=InChI=1S/C5H10O2/c1-2-4-7-5-3-6/h2,6H,1,3-5H2
computed SMILES=OCCOCC=C
accession=JP005429
date=2016.01.19 (Created 2008.10.21, modified 2011.05.06)
author=TAJIMA S, GUNMA COLLEGE OF TECHNOLOGY
license=CC BY-NC-SA
exact mass=102.06808
ionization energy=70 eV
ion type=[M]+*
computed spectral entropy=2.61801965601523
computed normalized entropy=0.7856719622162618
SPLASH=splash10-052f-9000000000-011c18dc5ad5da734b01
submitter=submitter = University of Tokyo Team (Faculty of Engineering, University of Tokyo)
MoNA Rating=3.75

>  <NUM PEAKS>  (4425) 
28

>  <MASS SPECTRAL PEAKS>  (4425) 
15 2.37
19 2.47
26 1.43
27 9.87
28 2.25
29 9.03
30 2.22
31 28.13
38 1.73
39 23.84
40 3.95
41 99.99
42 18.76
43 14.12
44 5.08
45 29.86
54 1.04
55 5.48
56 3.21
57 18.76
58 45.9
59 16.54
61 4.2
69 1
71 14.81
81 2.17
83 1.58
85 2.86

$$$$

     RDKit          2D

 12 11  0  0  0  0  0  0  0  0999 V2000
   -5.5920    5.0214    0.0000 C   0  0  0  0  0  0  0  0  0  0  0  0
   -0.2796    0.5638    0.0000 C   0  0  0  0  0  0  0  0  0  0  0  0
   -2.6591    3.1224    0.0000 C   0  0  0  0  0  0  0  0  0  0  0  0
   -4.2930    4.2714    0.0000 C   0  0  0  0  0  0  0  0  0  0  0  0
   -1.2437    1.7128    0.0000 C   0  0  0  0  0  0  0  0  0  0  0  0
    0.9032    4.2714    0.0000 C   0  0  0  0  0  0  0  0  0  0  0  0
    2.2022    5.0214    0.0000 C   0  0  0  0  0  0  0  0  0  0  0  0
   -0.3959    5.0214    0.0000 C   0  0  0  0  0  0  0  0  0  0  0  0
    3.5013    4.2714    0.0000 N   0  0  0  0  0  0  0  0  0  0  0  0
   -2.9939    5.0214    0.0000 O   0  0  0  0  0  0  0  0  0  0  0  0
   -0.7307    3.1224    0.0000 O   0  0  0  0  0  0  0  0  0  0  0  0
   -1.6949    4.2714    0.0000 Si  0  0  0  0  0  4  0  0  0  0  0  0
  4  1  1  0
  5  2  1  0
  7  6  1  0
  8  6  1  0
  9  7  1  0
 10  4  1  0
 11  5  1  0
 12  3  1  0
 12  8  1  0
 12 10  1  0
 12 11  1  0
M  END
>  <NAME>  (4426) 
3-AMINOPROPYLMETHYLDIETHOXYSILANE

>  <SYNONYMS>  (4426) 


>  <SPECTRUM TYPE>  (4426) 
MS1

>  <INSTRUMENT TYPE>  (4426) 
EI-B

>  <INSTRUMENT>  (4426) 
HITACHI RMU-7M

>  <ION MODE>  (4426) 
P

>  <INCHIKEY>  (4426) 
HXLAEGYMDGUSBD-UHFFFAOYSA-N

>  <FORMULA>  (4426) 
C8H21NO2Si

>  <EXACT MASS>  (4426) 
191.134155442

>  <MW>  (4426) 
191

>  <ID>  (4426) 
JP005428

>  <CONTRIBUTOR>  (4426) 
University of Tokyo Team, {Faculty of Engineering, University of Tokyo

>  <COMMENT>  (4426) 
SMILES=NCCC[Si](C)(OCC)OCC
InChI=InChI=1S/C8H21NO2Si/c1-4-10-12(3,11-5-2)8-6-7-9/h4-9H2,1-3H3
computed SMILES=O(CC)[Si](OCC)(C)CCCN
accession=JP005428
date=2016.01.19 (Created 2008.10.21, modified 2011.05.06)
author=TAJIMA S, GUNMA COLLEGE OF TECHNOLOGY
license=CC BY-NC-SA
exact mass=191.13416
ionization energy=70 eV
ion type=[M]+*
computed spectral entropy=3.5640658444811195
computed normalized entropy=0.8389007498951347
SPLASH=splash10-001i-5900000000-9f946c697f0651b8ddd8
submitter=submitter = University of Tokyo Team (Faculty of Engineering, University of Tokyo)
MoNA Rating=3.75

>  <NUM PEAKS>  (4426) 
70

>  <MASS SPECTRAL PEAKS>  (4426) 
15 1.09
27 2.84
28 5.03
29 3.06
30 53.39
31 6.45
41 1.2
43 3.22
44 6.17
45 14.15
46 1.69
47 1.09
56 2.9
57 2.24
58 2.68
59 2.57
60 4.26
61 13.39
62 3.28
63 2.3
71 1.37
72 1.37
73 11.04
74 2.46
75 2.84
76 8.96
77 33.88
78 7.1
79 1.64
86 1.69
87 2.84
88 12.08
89 28.25
90 7.16
91 2.84
98 4.7
99 1.64
100 14.97
101 4.32
102 7.98
103 3.39
104 33.88
105 31.15
106 7.65
107 1.58
115 1.09
116 15.52
117 12.02
118 10
119 3.83
120 3.14
130 14.1
131 2.73
132 1.58
133 99.99
134 36.61
135 7.1
136 1.42
144 4.43
145 32.9
146 15.74
147 3.66
148 5.57
149 7.32
150 2.57
159 1.64
162 12.73
163 2.51
176 6.56
192 1.53

$$$$

     RDKit          2D

 14 14  0  0  0  0  0  0  0  0999 V2000
    0.3774   -1.8726    0.0000 C   0  0  0  0  0  0  0  0  0  0  0  0
    5.5736    3.3236    0.0000 C   0  0  0  0  0  0  0  0  0  0  0  0
   -0.3726   -0.5736    0.0000 C   0  0  0  0  0  0  0  0  0  0  0  0
    4.2745    2.5736    0.0000 C   0  0  0  0  0  0  0  0  0  0  0  0
   -0.1716    5.3726    0.0000 C   0  0  0  0  0  0  0  0  0  0  0  0
    1.1274    4.6226    0.0000 C   0  0  0  0  0  0  0  0  0  0  0  0
   -0.9216    4.0736    0.0000 C   0  0  0  0  0  0  0  0  0  0  0  0
   -0.3726    2.0245    0.0000 C   0  0  0  0  0  0  0  0  0  0  0  0
    1.6764    2.5736    0.0000 C   0  0  0  0  0  0  0  0  0  0  0  0
    0.3774    3.3236    0.0000 C   0  0  0  0  0  0  0  0  0  0  0  0
   -1.8726    2.0245    0.0000 O   0  0  0  0  0  0  0  0  0  0  0  0
    1.6764    1.0736    0.0000 O   0  0  0  0  0  0  0  0  0  0  0  0
    0.3774    0.7255    0.0000 O   0  0  0  0  0  0  0  0  0  0  0  0
    2.9755    3.3236    0.0000 O   0  0  0  0  0  0  0  0  0  0  0  0
  3  1  1  0
  4  2  1  0
  6  5  1  0
  7  5  1  0
 10  6  1  0
 10  7  1  0
 10  8  1  0
 10  9  1  0
 11  8  2  0
 12  9  2  0
 13  3  1  0
 13  8  1  0
 14  4  1  0
 14  9  1  0
M  END
>  <NAME>  (4427) 
1,1-CYCLOBUTANEDICARBOXYLIC ACID DIETHYL ESTER

>  <SYNONYMS>  (4427) 


>  <SPECTRUM TYPE>  (4427) 
MS1

>  <INSTRUMENT TYPE>  (4427) 
EI-B

>  <INSTRUMENT>  (4427) 
HITACHI RMU-7M

>  <ION MODE>  (4427) 
P

>  <INCHIKEY>  (4427) 
JPNJEJSZSMXWSV-UHFFFAOYSA-N

>  <FORMULA>  (4427) 
C10H16O4

>  <EXACT MASS>  (4427) 
200.104858992

>  <MW>  (4427) 
200

>  <ID>  (4427) 
JP005427

>  <CONTRIBUTOR>  (4427) 
University of Tokyo Team, {Faculty of Engineering, University of Tokyo

>  <COMMENT>  (4427) 
SMILES=CCOC(=O)C(C1)(CC1)C(=O)OCC
InChI=InChI=1S/C10H16O4/c1-3-13-8(11)10(6-5-7-10)9(12)14-4-2/h3-7H2,1-2H3
computed SMILES=O=C(OCC)C1(C(=O)OCC)CCC1
accession=JP005427
date=2016.01.19 (Created 2008.10.21, modified 2011.05.06)
author=TAJIMA S, GUNMA COLLEGE OF TECHNOLOGY
license=CC BY-NC-SA
exact mass=200.10486
ionization energy=70 eV
ion type=[M]+*
computed spectral entropy=3.378439999819314
computed normalized entropy=0.8251479445554413
SPLASH=splash10-056s-9500000000-bef643d516455638c737
submitter=submitter = University of Tokyo Team (Faculty of Engineering, University of Tokyo)
MoNA Rating=3.75

>  <NUM PEAKS>  (4427) 
60

>  <MASS SPECTRAL PEAKS>  (4427) 
15 1.52
26 4.18
27 26.43
28 12.36
29 79.97
30 1.9
31 2.98
32 1.58
39 8.24
40 1.39
41 7.54
42 2.47
43 12.04
44 1.01
45 10.52
51 1.2
52 1.27
53 21.55
54 20.79
55 27.95
56 5.7
57 2.6
58 1.65
59 1.08
69 3.8
70 1.96
71 4.37
72 4.69
73 3.61
80 4.06
81 28.71
82 28.71
83 19.14
84 1.9
85 6.53
97 1.71
98 9.76
99 99.99
100 30.54
101 2.72
108 54.94
109 5.83
110 5.83
111 4.31
113 10.39
125 2.03
126 19.33
127 35.74
128 14.58
129 1.39
143 1.65
144 1.27
145 1.77
154 24.4
155 52.47
156 4.75
171 2.28
173 6.02
200 4.56
201 4.75

$$$$

     RDKit          2D

  6  5  0  0  0  0  0  0  0  0999 V2000
   -4.5466    3.3750    0.0000 C   0  0  0  0  0  0  0  0  0  0  0  0
   -0.6495    2.6250    0.0000 C   0  0  0  0  0  0  0  0  0  0  0  0
    0.6495    3.3750    0.0000 C   0  0  0  0  0  0  0  0  0  0  0  0
   -1.9486    3.3750    0.0000 C   0  0  0  0  0  0  0  0  0  0  0  0
    1.9486    2.6250    0.0000 N   0  0  0  0  0  0  0  0  0  0  0  0
   -3.2476    2.6250    0.0000 O   0  0  0  0  0  0  0  0  0  0  0  0
  3  2  1  0
  4  2  1  0
  5  3  1  0
  6  1  1  0
  6  4  1  0
M  END
>  <NAME>  (4428) 
3-METHOXYPROPYLAMINE

>  <SYNONYMS>  (4428) 
3-AMINOPROPYL METHYL ETHER

>  <SPECTRUM TYPE>  (4428) 
MS1

>  <INSTRUMENT TYPE>  (4428) 
EI-B

>  <INSTRUMENT>  (4428) 
HITACHI RMU-7M

>  <ION MODE>  (4428) 
P

>  <INCHIKEY>  (4428) 
FAXDZWQIWUSWJH-UHFFFAOYSA-N

>  <FORMULA>  (4428) 
C4H11NO

>  <EXACT MASS>  (4428) 
89.084063972

>  <MW>  (4428) 
89

>  <ID>  (4428) 
JP005426

>  <CONTRIBUTOR>  (4428) 
University of Tokyo Team, {Faculty of Engineering, University of Tokyo

>  <COMMENT>  (4428) 
SMILES=NCCCOC
InChI=InChI=1S/C4H11NO/c1-6-4-2-3-5/h2-5H2,1H3
computed SMILES=O(C)CCCN
accession=JP005426
date=2016.01.19 (Created 2008.10.21, modified 2011.05.06)
author=TAJIMA S, GUNMA COLLEGE OF TECHNOLOGY
license=CC BY-NC-SA
exact mass=89.08406
ionization energy=70 eV
ion type=[M]+*
computed spectral entropy=2.113538507024718
computed normalized entropy=0.6837623678472704
SPLASH=splash10-001i-9000000000-87a5a1a3107145d78ac0
submitter=submitter = University of Tokyo Team (Faculty of Engineering, University of Tokyo)
MoNA Rating=3.75

>  <NUM PEAKS>  (4428) 
22

>  <MASS SPECTRAL PEAKS>  (4428) 
15 3.37
18 5.64
27 1.88
28 7.26
29 5.31
30 99.99
31 5.25
33 2.27
39 1
41 3.31
42 3.37
43 2.07
44 3.89
45 16.07
56 8.62
57 6.74
58 1.36
59 3.24
71 2.2
72 29.03
73 1.36
74 4.08

$$$$

     RDKit          2D

  5  4  0  0  0  0  0  0  0  0999 V2000
    0.0000    0.0000    0.0000 C   0  0  0  0  0  0  0  0  0  0  0  0
   -1.2990    2.2500    0.0000 C   0  0  0  0  0  0  0  0  0  0  0  0
    0.0000    1.5000    0.0000 C   0  0  0  0  0  0  0  0  0  0  0  0
   -1.2990    3.7500    0.0000 N   0  0  0  0  0  0  0  0  0  0  0  0
    1.2990    2.2500    0.0000 O   0  0  0  0  0  0  0  0  0  0  0  0
  3  1  1  0
  3  2  1  0
  4  2  1  0
  5  3  1  0
M  END
>  <NAME>  (4429) 
1-AMINO-2-PROPANOL

>  <SYNONYMS>  (4429) 
2-HYDROXYPROPYLAMINE

>  <SPECTRUM TYPE>  (4429) 
MS1

>  <INSTRUMENT TYPE>  (4429) 
EI-B

>  <INSTRUMENT>  (4429) 
HITACHI RMU-7M

>  <ION MODE>  (4429) 
P

>  <INCHIKEY>  (4429) 
HXKKHQJGJAFBHI-UHFFFAOYSA-N

>  <FORMULA>  (4429) 
C3H9NO

>  <EXACT MASS>  (4429) 
75.068413908

>  <MW>  (4429) 
75

>  <ID>  (4429) 
JP005425

>  <CONTRIBUTOR>  (4429) 
University of Tokyo Team, {Faculty of Engineering, University of Tokyo

>  <COMMENT>  (4429) 
SMILES=NCC(C)O
InChI=InChI=1S/C3H9NO/c1-3(5)2-4/h3,5H,2,4H2,1H3
computed SMILES=OC(C)CN
accession=JP005425
date=2016.01.19 (Created 2008.10.21, modified 2011.05.06)
author=TAJIMA S, GUNMA COLLEGE OF TECHNOLOGY
license=CC BY-NC-SA
exact mass=75.06841
ionization energy=70 eV
ion type=[M]+*
computed spectral entropy=1.8319803911881107
computed normalized entropy=0.6338217172871795
SPLASH=splash10-001i-9000000000-c01f38e3017c6be78f5e
submitter=submitter = University of Tokyo Team (Faculty of Engineering, University of Tokyo)
MoNA Rating=3.75

>  <NUM PEAKS>  (4429) 
18

>  <MASS SPECTRAL PEAKS>  (4429) 
15 2.36
18 3.14
19 1.42
27 3.54
28 6.13
29 3.14
30 99.99
31 20.91
32 6.84
41 2.28
42 4.95
43 2.99
44 6.76
45 11.79
46 1.89
56 1.97
60 3.22
75 1

$$$$

     RDKit          2D

  9 10  0  0  0  0  0  0  0  0999 V2000
   -2.5115    3.3300    0.0000 C   0  0  0  0  0  0  0  0  0  0  0  0
   -2.5120    1.8292    0.0000 C   0  0  0  0  0  0  0  0  0  0  0  0
   -1.2120    4.0808    0.0000 C   0  0  0  0  0  0  0  0  0  0  0  0
   -1.2129    1.0792    0.0000 C   0  0  0  0  0  0  0  0  0  0  0  0
    0.0871    3.3308    0.0000 C   0  0  0  0  0  0  0  0  0  0  0  0
    2.8865    1.0795    0.0000 C   0  0  0  0  0  0  0  0  0  0  0  0
    0.0866    1.8300    0.0000 C   0  0  0  0  0  0  0  0  0  0  0  0
    1.3856    1.0800    0.0000 C   0  0  0  0  0  0  0  0  0  0  0  0
    2.1365   -0.2195    0.0000 O   0  0  0  0  0  0  0  0  0  0  0  0
  2  1  2  0
  3  1  1  0
  4  2  1  0
  5  3  2  0
  7  4  2  0
  7  5  1  0
  8  6  1  0
  8  7  1  0
  9  6  1  0
  9  8  1  0
M  END
>  <NAME>  (4430) 
2-PHENYLOXIRANE

>  <SYNONYMS>  (4430) 
(1,2-EPOXYETHYL)BENZENE

>  <SPECTRUM TYPE>  (4430) 
MS1

>  <INSTRUMENT TYPE>  (4430) 
EI-B

>  <INSTRUMENT>  (4430) 
HITACHI RMU-7M

>  <ION MODE>  (4430) 
P

>  <INCHIKEY>  (4430) 
AWMVMTVKBNGEAK-UHFFFAOYSA-N

>  <FORMULA>  (4430) 
C8H8O

>  <EXACT MASS>  (4430) 
120.057514876

>  <MW>  (4430) 
120

>  <ID>  (4430) 
JP005424

>  <CONTRIBUTOR>  (4430) 
University of Tokyo Team, {Faculty of Engineering, University of Tokyo

>  <COMMENT>  (4430) 
SMILES=c(c2)ccc(c2)C(C1)O1
InChI=InChI=1S/C8H8O/c1-2-4-7(5-3-1)8-6-9-8/h1-5,8H,6H2
computed SMILES=O1CC1C=2C=CC=CC2
accession=JP005424
date=2016.01.19 (Created 2008.10.21, modified 2011.05.06)
author=TAJIMA S, GUNMA COLLEGE OF TECHNOLOGY
license=CC BY-NC-SA
exact mass=120.05751
ionization energy=70 eV
ion type=[M]+*
computed spectral entropy=2.6139748697869516
computed normalized entropy=0.7475959436194146
SPLASH=splash10-0006-9200000000-b4eb73a2a96ffcb5044f
submitter=submitter = University of Tokyo Team (Faculty of Engineering, University of Tokyo)
MoNA Rating=3.75

>  <NUM PEAKS>  (4430) 
33

>  <MASS SPECTRAL PEAKS>  (4430) 
27 2.85
28 1.43
29 2
31 4.28
37 1.83
38 3.76
39 14.26
40 2.28
41 2.05
43 2.17
45 3.31
46 1.43
50 6.85
51 13.63
52 2.34
62 4.91
63 15.17
64 6.56
65 16.66
74 1.83
75 1.43
77 7.59
78 1.71
89 66.74
90 82.89
91 99.99
92 36.39
93 2.62
105 3.19
107 2.28
119 58.3
120 47.92
121 4.51

$$$$

     RDKit          2D

  7  6  0  0  0  0  0  0  0  0999 V2000
    1.9486    2.6250    0.0000 C   0  0  0  0  0  0  0  0  0  0  0  0
   -1.9486    4.8750    0.0000 C   0  0  0  0  0  0  0  0  0  0  0  0
    0.6495    3.3750    0.0000 C   0  0  0  0  0  0  0  0  0  0  0  0
   -0.6495    2.6250    0.0000 C   0  0  0  0  0  0  0  0  0  0  0  0
   -3.2476    2.6250    0.0000 C   0  0  0  0  0  0  0  0  0  0  0  0
   -1.9486    3.3750    0.0000 C   0  0  0  0  0  0  0  0  0  0  0  0
   -4.5466    3.3750    0.0000 O   0  0  0  0  0  0  0  0  0  0  0  0
  3  1  1  0
  4  3  1  0
  6  2  1  0
  6  4  1  0
  6  5  1  0
  7  5  1  0
M  END
>  <NAME>  (4431) 
2-METHYL-1-PENTANOL

>  <SYNONYMS>  (4431) 


>  <SPECTRUM TYPE>  (4431) 
MS1

>  <INSTRUMENT TYPE>  (4431) 
EI-B

>  <INSTRUMENT>  (4431) 
HITACHI RMU-7M

>  <ION MODE>  (4431) 
P

>  <INCHIKEY>  (4431) 
PFNHSEQQEPMLNI-UHFFFAOYSA-N

>  <FORMULA>  (4431) 
C6H14O

>  <EXACT MASS>  (4431) 
102.104465068

>  <MW>  (4431) 
102

>  <ID>  (4431) 
JP005423

>  <CONTRIBUTOR>  (4431) 
University of Tokyo Team, {Faculty of Engineering, University of Tokyo

>  <COMMENT>  (4431) 
SMILES=CCCC(C)CO
InChI=InChI=1S/C6H14O/c1-3-4-6(2)5-7/h6-7H,3-5H2,1-2H3
computed SMILES=OCC(C)CCC
accession=JP005423
date=2016.01.19 (Created 2008.10.21, modified 2011.05.06)
author=TAJIMA S, GUNMA COLLEGE OF TECHNOLOGY
license=CC BY-NC-SA
exact mass=102.10447
ionization energy=70 eV
ion type=[M]+*
computed spectral entropy=2.581864996407256
computed normalized entropy=0.8124044255488849
SPLASH=splash10-0006-9000000000-eb5f827647062d21f333
submitter=submitter = University of Tokyo Team (Faculty of Engineering, University of Tokyo)
MoNA Rating=3.75

>  <NUM PEAKS>  (4431) 
24

>  <MASS SPECTRAL PEAKS>  (4431) 
15 1.12
27 11.47
28 1.65
29 16.19
31 13.64
39 8.4
40 1.5
41 25.49
42 15.89
43 99.99
44 3.52
45 3.15
53 1.5
55 21.89
56 17.62
57 4.42
59 1.87
69 21.14
70 26.69
71 32.23
72 1.87
83 1.42
84 11.24
85 12.59

$$$$

     RDKit          2D

  9  8  0  0  0  0  0  0  0  0999 V2000
    1.9486    3.3750    0.0000 C   0  0  0  0  0  0  0  0  0  0  0  0
   -5.8457    3.3750    0.0000 C   0  0  0  0  0  0  0  0  0  0  0  0
    0.6495    4.1250    0.0000 C   0  0  0  0  0  0  0  0  0  0  0  0
   -3.2476    3.3750    0.0000 C   0  0  0  0  0  0  0  0  0  0  0  0
   -4.5466    4.1250    0.0000 C   0  0  0  0  0  0  0  0  0  0  0  0
   -1.9486    4.1250    0.0000 C   0  0  0  0  0  0  0  0  0  0  0  0
   -4.5466    5.6250    0.0000 O   0  0  0  0  0  0  0  0  0  0  0  0
   -1.9486    5.6250    0.0000 O   0  0  0  0  0  0  0  0  0  0  0  0
   -0.6495    3.3750    0.0000 O   0  0  0  0  0  0  0  0  0  0  0  0
  3  1  1  0
  5  2  1  0
  5  4  1  0
  6  4  1  0
  7  5  2  0
  8  6  2  0
  9  3  1  0
  9  6  1  0
M  END
>  <NAME>  (4432) 
ETHYL ACETYLACETATE

>  <SYNONYMS>  (4432) 
ETHYL 3-OXOBUTANOATE

>  <SPECTRUM TYPE>  (4432) 
MS1

>  <INSTRUMENT TYPE>  (4432) 
EI-B

>  <INSTRUMENT>  (4432) 
HITACHI RMU-7M

>  <ION MODE>  (4432) 
P

>  <INCHIKEY>  (4432) 
XYIBRDXRRQCHLP-UHFFFAOYSA-N

>  <FORMULA>  (4432) 
C6H10O3

>  <EXACT MASS>  (4432) 
130.06299418

>  <MW>  (4432) 
130

>  <ID>  (4432) 
JP005422

>  <CONTRIBUTOR>  (4432) 
University of Tokyo Team, {Faculty of Engineering, University of Tokyo

>  <COMMENT>  (4432) 
SMILES=CCOC(=O)CC(C)=O
InChI=InChI=1S/C6H10O3/c1-3-9-6(8)4-5(2)7/h3-4H2,1-2H3
computed SMILES=O=C(OCC)CC(=O)C
accession=JP005422
date=2016.01.19 (Created 2008.10.21, modified 2011.05.06)
author=TAJIMA S, GUNMA COLLEGE OF TECHNOLOGY
license=CC BY-NC-SA
exact mass=130.06299
ionization energy=70 eV
ion type=[M]+*
computed spectral entropy=2.63617170765598
computed normalized entropy=0.7750716620767509
SPLASH=splash10-0006-9000000000-f40d68840be65d2cc6bd
submitter=submitter = University of Tokyo Team (Faculty of Engineering, University of Tokyo)
MoNA Rating=3.75

>  <NUM PEAKS>  (4432) 
30

>  <MASS SPECTRAL PEAKS>  (4432) 
14 1.7
15 7.61
26 2.84
27 9.83
28 1.14
29 20.11
31 14.2
39 1.14
41 3.3
42 10.68
43 99.99
44 3.58
45 10.23
46 2.95
58 2.84
60 8.3
61 3.86
69 12.67
70 2.44
73 1.42
84 14.83
85 19.89
86 1.25
87 3.01
88 19.43
102 3.69
103 1.08
115 1.36
130 5.45
131 6.48

$$$$

     RDKit          2D

  8  8  0  0  0  0  0  0  0  0999 V2000
   -0.6520   -2.2491    0.0000 C   0  0  0  0  0  0  0  0  0  0  0  0
   -1.9467    1.4939    0.0000 C   0  0  0  0  0  0  0  0  0  0  0  0
   -1.9512    0.0017    0.0000 C   0  0  0  0  0  0  0  0  0  0  0  0
   -0.6477    2.2439    0.0000 C   0  0  0  0  0  0  0  0  0  0  0  0
    0.6473    0.0009    0.0000 C   0  0  0  0  0  0  0  0  0  0  0  0
   -0.6517   -0.7491    0.0000 C   0  0  0  0  0  0  0  0  0  0  0  0
    0.6468    1.5017    0.0000 C   0  0  0  0  0  0  0  0  0  0  0  0
    1.9446    2.2539    0.0000 O   0  0  0  0  0  0  0  0  0  0  0  0
  3  2  2  0
  4  2  1  0
  6  1  1  0
  6  3  1  0
  6  5  2  0
  7  4  2  0
  7  5  1  0
  8  7  1  0
M  END
>  <NAME>  (4433) 
M-CRESOL

>  <SYNONYMS>  (4433) 
3-METHYLPHENOL

>  <SPECTRUM TYPE>  (4433) 
MS1

>  <INSTRUMENT TYPE>  (4433) 
EI-B

>  <INSTRUMENT>  (4433) 
HITACHI RMU-7M

>  <ION MODE>  (4433) 
P

>  <INCHIKEY>  (4433) 
RLSSMJSEOOYNOY-UHFFFAOYSA-N

>  <FORMULA>  (4433) 
C7H8O

>  <EXACT MASS>  (4433) 
108.057514876

>  <MW>  (4433) 
108

>  <ID>  (4433) 
JP005421

>  <CONTRIBUTOR>  (4433) 
University of Tokyo Team, {Faculty of Engineering, University of Tokyo

>  <COMMENT>  (4433) 
SMILES=Cc(c1)cc(O)cc1
InChI=InChI=1S/C7H8O/c1-6-3-2-4-7(8)5-6/h2-5,8H,1H3
computed SMILES=OC1=CC=CC(=C1)C
accession=JP005421
date=2016.01.19 (Created 2008.10.21, modified 2011.05.06)
author=TAJIMA S, GUNMA COLLEGE OF TECHNOLOGY
license=CC BY-NC-SA
exact mass=108.05751
ionization energy=70 eV
ion type=[M]+*
computed spectral entropy=2.1505690273207363
computed normalized entropy=0.6858788054512333
SPLASH=splash10-0a4i-5900000000-80356192ec6d2f2cce17
submitter=submitter = University of Tokyo Team (Faculty of Engineering, University of Tokyo)
MoNA Rating=3.75

>  <NUM PEAKS>  (4433) 
23

>  <MASS SPECTRAL PEAKS>  (4433) 
27 3.43
38 2.18
39 8.27
40 1.41
41 1.09
50 2.61
51 5.17
52 2.61
53 5.49
54 2.72
55 1.74
63 2.83
65 2.18
77 15.77
78 3.37
79 19.25
80 6.09
89 2.66
90 9.79
91 4.73
107 76.4
108 99.99
109 8.54

$$$$

     RDKit          2D

  8  8  0  0  0  0  0  0  0  0999 V2000
    1.9489    1.5002    0.0000 C   0  0  0  0  0  0  0  0  0  0  0  0
   -1.9500    0.7500    0.0000 C   0  0  0  0  0  0  0  0  0  0  0  0
   -1.9500   -0.7500    0.0000 C   0  0  0  0  0  0  0  0  0  0  0  0
   -0.6500    1.5000    0.0000 C   0  0  0  0  0  0  0  0  0  0  0  0
   -0.6500   -1.5000    0.0000 C   0  0  0  0  0  0  0  0  0  0  0  0
    0.6500    0.7500    0.0000 C   0  0  0  0  0  0  0  0  0  0  0  0
    0.6500   -0.7500    0.0000 C   0  0  0  0  0  0  0  0  0  0  0  0
    1.9489   -1.5002    0.0000 O   0  0  0  0  0  0  0  0  0  0  0  0
  3  2  2  0
  4  2  1  0
  5  3  1  0
  6  1  1  0
  6  4  2  0
  7  5  2  0
  7  6  1  0
  8  7  1  0
M  END
>  <NAME>  (4434) 
O-CRESOL

>  <SYNONYMS>  (4434) 
2-METHYLPHENOL

>  <SPECTRUM TYPE>  (4434) 
MS1

>  <INSTRUMENT TYPE>  (4434) 
EI-B

>  <INSTRUMENT>  (4434) 
HITACHI RMU-7M

>  <ION MODE>  (4434) 
P

>  <INCHIKEY>  (4434) 
QWVGKYWNOKOFNN-UHFFFAOYSA-N

>  <FORMULA>  (4434) 
C7H8O

>  <EXACT MASS>  (4434) 
108.057514876

>  <MW>  (4434) 
108

>  <ID>  (4434) 
JP005420

>  <CONTRIBUTOR>  (4434) 
University of Tokyo Team, {Faculty of Engineering, University of Tokyo

>  <COMMENT>  (4434) 
SMILES=Cc(c1)c(O)ccc1
InChI=InChI=1S/C7H8O/c1-6-4-2-3-5-7(6)8/h2-5,8H,1H3
computed SMILES=OC=1C=CC=CC1C
accession=JP005420
date=2016.01.19 (Created 2008.10.21, modified 2011.05.06)
author=TAJIMA S, GUNMA COLLEGE OF TECHNOLOGY
license=CC BY-NC-SA
exact mass=108.05751
ionization energy=70 eV
ion type=[M]+*
computed spectral entropy=2.4833432730581744
computed normalized entropy=0.7452553603703042
SPLASH=splash10-0a4i-7900000000-c8eb63e9fe9da99fda0f
submitter=submitter = University of Tokyo Team (Faculty of Engineering, University of Tokyo)
MoNA Rating=3.75

>  <NUM PEAKS>  (4434) 
28

>  <MASS SPECTRAL PEAKS>  (4434) 
26 1.41
27 6.16
29 1.52
31 4.55
38 2.63
39 9.7
40 1.72
45 2.83
50 4.04
51 7.98
52 4.04
53 7.07
53.5 1.82
54 3.84
55 1.72
63 3.54
65 2.22
66 1.41
77 17.98
78 4.34
79 21.21
80 7.88
89 8.48
90 19.49
91 5.66
107 67.37
108 99.99
109 8.89

$$$$

     RDKit          2D

  8  7  0  0  0  0  0  0  0  0999 V2000
    0.0000    0.0000    0.0000 C   0  0  0  0  0  0  0  0  0  0  0  0
   -1.2990    2.2500    0.0000 C   0  0  0  0  0  0  0  0  0  0  0  0
   -1.2990    3.7500    0.0000 C   0  0  0  0  0  0  0  0  0  0  0  0
    0.0000    1.5000    0.0000 C   0  0  0  0  0  0  0  0  0  0  0  0
   -2.5981    4.5000    0.0000 C   0  0  0  0  0  0  0  0  0  0  0  0
    1.2990    2.2500    0.0000 O   0  0  0  0  0  0  0  0  0  0  0  0
   -3.8971    3.7500    0.0000 O   0  0  0  0  0  0  0  0  0  0  0  0
   -2.5981    6.0000    0.0000 O   0  0  0  0  0  0  0  0  0  0  0  0
  3  2  1  0
  4  1  1  0
  4  2  1  0
  5  3  1  0
  6  4  2  0
  7  5  2  0
  8  5  1  0
M  END
>  <NAME>  (4435) 
4-OXOPENTANOIC ACID

>  <SYNONYMS>  (4435) 
LEVULINIC ACID

>  <SPECTRUM TYPE>  (4435) 
MS1

>  <INSTRUMENT TYPE>  (4435) 
EI-B

>  <INSTRUMENT>  (4435) 
HITACHI RMU-7M

>  <ION MODE>  (4435) 
P

>  <INCHIKEY>  (4435) 
JOOXCMJARBKPKM-UHFFFAOYSA-N

>  <FORMULA>  (4435) 
C5H8O3

>  <EXACT MASS>  (4435) 
116.04734411599999

>  <MW>  (4435) 
116

>  <ID>  (4435) 
JP005419

>  <CONTRIBUTOR>  (4435) 
University of Tokyo Team, {Faculty of Engineering, University of Tokyo

>  <COMMENT>  (4435) 
SMILES=CC(=O)CCC(O)=O
InChI=InChI=1S/C5H8O3/c1-4(6)2-3-5(7)8/h2-3H2,1H3,(H,7,8)
computed SMILES=O=C(O)CCC(=O)C
accession=JP005419
date=2016.01.19 (Created 2008.10.21, modified 2011.05.06)
author=TAJIMA S, GUNMA COLLEGE OF TECHNOLOGY
license=CC BY-NC-SA
exact mass=116.04734
ionization energy=70 eV
ion type=[M]+*
computed spectral entropy=1.966141970641697
computed normalized entropy=0.6457965118864102
SPLASH=splash10-0006-9000000000-dd0d17209893b2b71d10
submitter=submitter = University of Tokyo Team (Faculty of Engineering, University of Tokyo)
MoNA Rating=3.75

>  <NUM PEAKS>  (4435) 
21

>  <MASS SPECTRAL PEAKS>  (4435) 
15 5.36
27 5.3
28 3.62
29 6.49
31 1.02
39 1.13
42 3.56
43 99.99
44 3.05
45 6.32
55 6.21
56 39.45
57 2.31
61 1.69
71 2.26
73 5.81
74 1.64
77 1.35
99 7.34
101 2.82
116 2.71

$$$$

     RDKit          2D

 16 17  0  0  0  0  0  0  0  0999 V2000
   10.0251    2.7910    0.0000 C   0  0  0  0  0  0  0  0  0  0  0  0
   -1.6700   -0.9600    0.0000 C   0  0  0  0  0  0  0  0  0  0  0  0
   10.0251    1.2910    0.0000 C   0  0  0  0  0  0  0  0  0  0  0  0
    8.7251    3.5410    0.0000 C   0  0  0  0  0  0  0  0  0  0  0  0
   -1.6700    0.5400    0.0000 C   0  0  0  0  0  0  0  0  0  0  0  0
   -0.3700   -1.7100    0.0000 C   0  0  0  0  0  0  0  0  0  0  0  0
    8.7251    0.5410    0.0000 C   0  0  0  0  0  0  0  0  0  0  0  0
    7.4251    2.7910    0.0000 C   0  0  0  0  0  0  0  0  0  0  0  0
   -0.3700    1.2900    0.0000 C   0  0  0  0  0  0  0  0  0  0  0  0
    0.9300   -0.9600    0.0000 C   0  0  0  0  0  0  0  0  0  0  0  0
    4.8270    1.2906    0.0000 C   0  0  0  0  0  0  0  0  0  0  0  0
    3.5281    0.5404    0.0000 C   0  0  0  0  0  0  0  0  0  0  0  0
    7.4251    1.2910    0.0000 C   0  0  0  0  0  0  0  0  0  0  0  0
    0.9300    0.5400    0.0000 C   0  0  0  0  0  0  0  0  0  0  0  0
    6.1262    0.5408    0.0000 O   0  0  0  0  0  0  0  0  0  0  0  0
    2.2289    1.2902    0.0000 O   0  0  0  0  0  0  0  0  0  0  0  0
  3  1  2  0
  4  1  1  0
  5  2  2  0
  6  2  1  0
  7  3  1  0
  8  4  2  0
  9  5  1  0
 10  6  2  0
 12 11  1  0
 13  7  2  0
 13  8  1  0
 14  9  2  0
 14 10  1  0
 15 11  1  0
 15 13  1  0
 16 12  1  0
 16 14  1  0
M  END
>  <NAME>  (4436) 
1,2-DIPHENOXYETHANE

>  <SYNONYMS>  (4436) 


>  <SPECTRUM TYPE>  (4436) 
MS1

>  <INSTRUMENT TYPE>  (4436) 
EI-B

>  <INSTRUMENT>  (4436) 
HITACHI RMU-7M

>  <ION MODE>  (4436) 
P

>  <INCHIKEY>  (4436) 
XCSGHNKDXGYELG-UHFFFAOYSA-N

>  <FORMULA>  (4436) 
C14H14O2

>  <EXACT MASS>  (4436) 
214.099379688

>  <MW>  (4436) 
214

>  <ID>  (4436) 
JP005418

>  <CONTRIBUTOR>  (4436) 
University of Tokyo Team, {Faculty of Engineering, University of Tokyo

>  <COMMENT>  (4436) 
SMILES=c(c2)ccc(c2)OCCOc(c1)cccc1
InChI=InChI=1S/C14H14O2/c1-3-7-13(8-4-1)15-11-12-16-14-9-5-2-6-10-14/h1-10H,11-12H2
computed SMILES=O(C=1C=CC=CC1)CCOC=2C=CC=CC2
license=CC BY-NC-SA
exact mass=214.09938
accession=JP005418
date=2016.01.19 (Created 2008.10.21, modified 2011.05.06)
author=TAJIMA S, GUNMA COLLEGE OF TECHNOLOGY
ionization energy=70 eV
ion type=[M]+*
computed spectral entropy=2.697080094139491
computed normalized entropy=0.8009632150883295
SPLASH=splash10-00fr-9520000000-5267d510262b3f05dd40
submitter=submitter = University of Tokyo Team (Faculty of Engineering, University of Tokyo)
MoNA Rating=3.75

>  <NUM PEAKS>  (4436) 
29

>  <MASS SPECTRAL PEAKS>  (4436) 
27 3.08
28 2.27
38 2.78
39 20.98
40 2.12
43 4.23
50 3.26
51 20.8
55 2.42
63 4.17
64 2.42
65 26.3
66 5.14
77 99.99
78 7.86
79 7.26
91 22.67
92 5.02
93 24
94 16.2
103 7.86
107 9.73
119 5.93
120 59.98
121 78.9
122 6.65
142 1.75
214 65.36
215 10.28

$$$$

     RDKit          2D

  5  4  0  0  0  0  0  0  0  0999 V2000
   -3.8971    2.2500    0.0000 C   0  0  0  0  0  0  0  0  0  0  0  0
    1.2990    2.2500    0.0000 C   0  0  0  0  0  0  0  0  0  0  0  0
   -2.5981    1.5000    0.0000 C   0  0  0  0  0  0  0  0  0  0  0  0
    0.0000    1.5000    0.0000 C   0  0  0  0  0  0  0  0  0  0  0  0
   -1.2990    2.2500    0.0000 S   0  0  0  0  0  0  0  0  0  0  0  0
  3  1  1  0
  4  2  1  0
  5  3  1  0
  5  4  1  0
M  END
>  <NAME>  (4437) 
DIETHYL SULFIDE

>  <SYNONYMS>  (4437) 
DIETHYL THIOETHER

>  <SPECTRUM TYPE>  (4437) 
MS1

>  <INSTRUMENT TYPE>  (4437) 
EI-B

>  <INSTRUMENT>  (4437) 
HITACHI RMU-7M

>  <ION MODE>  (4437) 
P

>  <INCHIKEY>  (4437) 
LJSQFQKUNVCTIA-UHFFFAOYSA-N

>  <FORMULA>  (4437) 
C4H10S

>  <EXACT MASS>  (4437) 
90.05032132

>  <MW>  (4437) 
90

>  <ID>  (4437) 
JP005417

>  <CONTRIBUTOR>  (4437) 
University of Tokyo Team, {Faculty of Engineering, University of Tokyo

>  <COMMENT>  (4437) 
SMILES=CCSCC
InChI=InChI=1S/C4H10S/c1-3-5-4-2/h3-4H2,1-2H3
computed SMILES=S(CC)CC
accession=JP005417
date=2016.01.19 (Created 2008.10.21, modified 2011.05.06)
author=TAJIMA S, GUNMA COLLEGE OF TECHNOLOGY
license=CC BY-NC-SA
exact mass=90.05032
ionization energy=70 eV
ion type=[M]+*
computed spectral entropy=2.610230394071072
computed normalized entropy=0.7751710945104449
SPLASH=splash10-01td-9000000000-fb34a415a646adff1023
submitter=submitter = University of Tokyo Team (Faculty of Engineering, University of Tokyo)
MoNA Rating=3.75

>  <NUM PEAKS>  (4437) 
29

>  <MASS SPECTRAL PEAKS>  (4437) 
26 2.86
27 23.14
28 5.86
29 30.3
34 2.91
35 10.29
41 13.71
45 9.14
46 11.49
47 66.86
48 2
49 3.31
55 1.14
56 1.43
57 2.86
58 4.46
59 7.14
60 10.29
61 50
62 52.29
63 4
64 2.29
75 99.99
76 4.29
77 4.57
89 3.71
90 95.71
91 9.71
92 4.57

$$$$

     RDKit          2D

  7  6  0  0  0  0  0  0  0  0999 V2000
   -2.1397    4.0147    0.0000 C   0  0  0  0  0  0  0  0  0  0  0  0
    3.0565    2.5147    0.0000 C   0  0  0  0  0  0  0  0  0  0  0  0
   -0.5058    1.3656    0.0000 C   0  0  0  0  0  0  0  0  0  0  0  0
   -0.8406    3.2647    0.0000 C   0  0  0  0  0  0  0  0  0  0  0  0
    1.7574    3.2647    0.0000 C   0  0  0  0  0  0  0  0  0  0  0  0
    0.4584    2.5147    0.0000 C   0  0  0  0  0  0  0  0  0  0  0  0
    1.4226    1.3656    0.0000 O   0  0  0  0  0  0  0  0  0  0  0  0
  4  1  3  0
  5  2  1  0
  6  3  1  0
  6  4  1  0
  6  5  1  0
  7  6  1  0
M  END
>  <NAME>  (4438) 
3-METHYL-1-PENTYN-3-OL

>  <SYNONYMS>  (4438) 


>  <SPECTRUM TYPE>  (4438) 
MS1

>  <INSTRUMENT TYPE>  (4438) 
EI-B

>  <INSTRUMENT>  (4438) 
HITACHI RMU-7M

>  <ION MODE>  (4438) 
P

>  <INCHIKEY>  (4438) 
QXLPXWSKPNOQLE-UHFFFAOYSA-N

>  <FORMULA>  (4438) 
C6H10O

>  <EXACT MASS>  (4438) 
98.07316494

>  <MW>  (4438) 
98

>  <ID>  (4438) 
JP005416

>  <CONTRIBUTOR>  (4438) 
University of Tokyo Team, {Faculty of Engineering, University of Tokyo

>  <COMMENT>  (4438) 
SMILES=CCC(C)(O)C#C
InChI=InChI=1S/C6H10O/c1-4-6(3,7)5-2/h1,7H,5H2,2-3H3
computed SMILES=C#CC(O)(C)CC
accession=JP005416
date=2016.01.19 (Created 2008.10.21, modified 2011.05.06)
author=TAJIMA S, GUNMA COLLEGE OF TECHNOLOGY
license=CC BY-NC-SA
exact mass=98.07316
ionization energy=70 eV
ion type=[M]+*
computed spectral entropy=1.955826273254522
computed normalized entropy=0.6766694519178817
SPLASH=splash10-014i-9000000000-d08636da239511cea4f5
submitter=submitter = University of Tokyo Team (Faculty of Engineering, University of Tokyo)
MoNA Rating=3.75

>  <NUM PEAKS>  (4438) 
18

>  <MASS SPECTRAL PEAKS>  (4438) 
27 5.86
29 7.42
31 2.19
39 6.95
41 3.91
43 32.58
50 1.64
51 2.58
53 5.63
55 8.13
68 2.19
69 99.99
70 4.69
79 2.66
81 3.75
83 23.44
84 1.48
98 1.56

$$$$

     RDKit          2D

  7  6  0  0  0  0  0  0  0  0999 V2000
    0.6495    4.1250    0.0000 C   0  0  0  0  0  0  0  0  0  0  0  0
   -0.6495    3.3750    0.0000 C   0  0  0  0  0  0  0  0  0  0  0  0
   -3.2476    3.3750    0.0000 C   0  0  0  0  0  0  0  0  0  0  0  0
   -4.5466    4.1250    0.0000 C   0  0  0  0  0  0  0  0  0  0  0  0
    1.9486    3.3750    0.0000 N   0  0  0  0  0  0  0  0  0  0  0  0
   -1.9486    4.1250    0.0000 N   0  0  0  0  0  0  0  0  0  0  0  0
   -5.8457    3.3750    0.0000 O   0  0  0  0  0  0  0  0  0  0  0  0
  2  1  1  0
  4  3  1  0
  5  1  1  0
  6  2  1  0
  6  3  1  0
  7  4  1  0
M  END
>  <NAME>  (4439) 
2-(2-AMINOETHYLAMINO)ETHANOL

>  <SYNONYMS>  (4439) 


>  <SPECTRUM TYPE>  (4439) 
MS1

>  <INSTRUMENT TYPE>  (4439) 
EI-B

>  <INSTRUMENT>  (4439) 
HITACHI RMU-7M

>  <ION MODE>  (4439) 
P

>  <INCHIKEY>  (4439) 
LHIJANUOQQMGNT-UHFFFAOYSA-N

>  <FORMULA>  (4439) 
C4H12N2O

>  <EXACT MASS>  (4439) 
104.094963004

>  <MW>  (4439) 
104

>  <ID>  (4439) 
JP005415

>  <CONTRIBUTOR>  (4439) 
University of Tokyo Team, {Faculty of Engineering, University of Tokyo

>  <COMMENT>  (4439) 
SMILES=NCCNCCO
InChI=InChI=1S/C4H12N2O/c5-1-2-6-3-4-7/h6-7H,1-5H2
computed SMILES=OCCNCCN
accession=JP005415
date=2016.01.19 (Created 2008.10.21, modified 2011.05.06)
author=TAJIMA S, GUNMA COLLEGE OF TECHNOLOGY
license=CC BY-NC-SA
exact mass=104.09496
ionization energy=70 eV
ion type=[M]+*
computed spectral entropy=2.2631797969063574
computed normalized entropy=0.7830064733796299
SPLASH=splash10-05gl-9000000000-1b0db5fddb9263154c44
submitter=submitter = University of Tokyo Team (Faculty of Engineering, University of Tokyo)
MoNA Rating=3.75

>  <NUM PEAKS>  (4439) 
18

>  <MASS SPECTRAL PEAKS>  (4439) 
15 3.81
27 4.96
28 4.78
29 8.32
30 67.7
31 9.73
41 3.54
42 10.53
43 10.35
44 64.6
45 15.49
56 62.65
57 4.87
73 8.32
74 99.99
75 5.13
88 6.28
105 11.86

$$$$

     RDKit          2D

  8  8  0  0  0  0  0  0  0  0999 V2000
    2.2733   -0.6175    0.0000 C   0  0  0  0  0  0  0  0  0  0  0  0
    2.2738    0.8833    0.0000 C   0  0  0  0  0  0  0  0  0  0  0  0
    0.9738   -1.3683    0.0000 C   0  0  0  0  0  0  0  0  0  0  0  0
    0.9748    1.6333    0.0000 C   0  0  0  0  0  0  0  0  0  0  0  0
   -0.3252   -0.6183    0.0000 C   0  0  0  0  0  0  0  0  0  0  0  0
   -1.6238    1.6325    0.0000 C   0  0  0  0  0  0  0  0  0  0  0  0
   -0.3248    0.8825    0.0000 C   0  0  0  0  0  0  0  0  0  0  0  0
   -2.9228    0.8825    0.0000 N   0  0  0  0  0  0  0  0  0  0  0  0
  2  1  2  0
  3  1  1  0
  4  2  1  0
  5  3  2  0
  7  4  2  0
  7  5  1  0
  7  6  1  0
  8  6  1  0
M  END
>  <NAME>  (4440) 
BENZYLAMINE

>  <SYNONYMS>  (4440) 


>  <SPECTRUM TYPE>  (4440) 
MS1

>  <INSTRUMENT TYPE>  (4440) 
EI-B

>  <INSTRUMENT>  (4440) 
HITACHI RMU-7M

>  <ION MODE>  (4440) 
P

>  <INCHIKEY>  (4440) 
WGQKYBSKWIADBV-UHFFFAOYSA-N

>  <FORMULA>  (4440) 
C7H9N

>  <EXACT MASS>  (4440) 
107.073499288

>  <MW>  (4440) 
107

>  <ID>  (4440) 
JP005414

>  <CONTRIBUTOR>  (4440) 
University of Tokyo Team, {Faculty of Engineering, University of Tokyo

>  <COMMENT>  (4440) 
SMILES=NCc(c1)cccc1
InChI=InChI=1S/C7H9N/c8-6-7-4-2-1-3-5-7/h1-5H,6,8H2
computed SMILES=NCC=1C=CC=CC1
accession=JP005414
date=2016.01.19 (Created 2008.10.21, modified 2011.05.06)
author=TAJIMA S, GUNMA COLLEGE OF TECHNOLOGY
license=CC BY-NC-SA
exact mass=107.0735
ionization energy=70 eV
ion type=[M]+*
computed spectral entropy=2.590054291560261
computed normalized entropy=0.7858563384237778
SPLASH=splash10-0a6r-9700000000-7e253eff483b8a31ec7a
submitter=submitter = University of Tokyo Team (Faculty of Engineering, University of Tokyo)
MoNA Rating=3.75

>  <NUM PEAKS>  (4440) 
27

>  <MASS SPECTRAL PEAKS>  (4440) 
27 3.89
28 18.05
29 5.8
30 31.6
31 8.53
39 6.14
45 4.1
50 5.12
51 11.6
52 4.37
52.5 2.05
53 2.87
63 3.28
65 5.46
77 19.93
78 12.29
79 40.27
80 3.55
89 3.48
90 1.84
91 18.02
92 1.57
104 3.96
105 1.64
106 99.99
107 61.84
108 8.05

$$$$

     RDKit          2D

  7  7  0  0  0  0  0  0  0  0999 V2000
   -2.5989    1.5002    0.0000 C   0  0  0  0  0  0  0  0  0  0  0  0
   -0.0000    1.5000    0.0000 C   0  0  0  0  0  0  0  0  0  0  0  0
    1.3000    0.7500    0.0000 C   0  0  0  0  0  0  0  0  0  0  0  0
    0.0000   -1.5000    0.0000 C   0  0  0  0  0  0  0  0  0  0  0  0
   -1.3000    0.7500    0.0000 C   0  0  0  0  0  0  0  0  0  0  0  0
    1.3000   -0.7500    0.0000 O   0  0  0  0  0  0  0  0  0  0  0  0
   -1.3000   -0.7500    0.0000 O   0  0  0  0  0  0  0  0  0  0  0  0
  3  2  1  0
  5  1  1  0
  5  2  1  0
  6  3  1  0
  6  4  1  0
  7  4  1  0
  7  5  1  0
M  END
>  <NAME>  (4441) 
4-METHYL-1,3-DIOXANE

>  <SYNONYMS>  (4441) 


>  <SPECTRUM TYPE>  (4441) 
MS1

>  <INSTRUMENT TYPE>  (4441) 
EI-B

>  <INSTRUMENT>  (4441) 
HITACHI RMU-7M

>  <ION MODE>  (4441) 
P

>  <INCHIKEY>  (4441) 
INCCMBMMWVKEGJ-UHFFFAOYSA-N

>  <FORMULA>  (4441) 
C5H10O2

>  <EXACT MASS>  (4441) 
102.06807956

>  <MW>  (4441) 
102

>  <ID>  (4441) 
JP005413

>  <CONTRIBUTOR>  (4441) 
University of Tokyo Team, {Faculty of Engineering, University of Tokyo

>  <COMMENT>  (4441) 
SMILES=CC(C1)OCOC1
InChI=InChI=1S/C5H10O2/c1-5-2-3-6-4-7-5/h5H,2-4H2,1H3
computed SMILES=O1COC(C)CC1
accession=JP005413
date=2016.01.19 (Created 2008.10.21, modified 2011.05.06)
author=TAJIMA S, GUNMA COLLEGE OF TECHNOLOGY
license=CC BY-NC-SA
exact mass=102.06808
ionization energy=70 eV
ion type=[M]+*
computed spectral entropy=2.7919289964852663
computed normalized entropy=0.8569202796491409
SPLASH=splash10-0kfx-9100000000-c35efcdde61d2ee3ac7f
submitter=submitter = University of Tokyo Team (Faculty of Engineering, University of Tokyo)
MoNA Rating=3.75

>  <NUM PEAKS>  (4441) 
26

>  <MASS SPECTRAL PEAKS>  (4441) 
15 2.19
27 12.43
28 32.6
29 21.74
30 10.71
31 36.36
39 8.52
40 2.58
41 19.08
42 33.23
43 99.99
44 15.95
45 38.55
55 81.47
56 4.3
57 22.05
58 16.65
59 7.51
61 2.19
71 8.6
72 73.89
73 8.21
87 21.89
101 83.11
102 4.69
103 6.65

$$$$

     RDKit          2D

  6  5  0  0  0  0  0  0  0  0999 V2000
    0.8002    0.0135    0.0000 C   0  0  0  0  0  0  0  0  0  0  0  0
   -0.6998    2.6115    0.0000 C   0  0  0  0  0  0  0  0  0  0  0  0
    1.3493    2.0625    0.0000 C   0  0  0  0  0  0  0  0  0  0  0  0
    0.0502    1.3125    0.0000 C   0  0  0  0  0  0  0  0  0  0  0  0
   -1.2488    0.5625    0.0000 N   0  0  0  0  0  0  0  0  0  0  0  0
    1.3493    3.5625    0.0000 O   0  0  0  0  0  0  0  0  0  0  0  0
  4  1  1  0
  4  2  1  0
  4  3  1  0
  5  4  1  0
  6  3  1  0
M  END
>  <NAME>  (4442) 
2-AMINO-2-METHYLPROPANOL

>  <SYNONYMS>  (4442) 


>  <SPECTRUM TYPE>  (4442) 
MS1

>  <INSTRUMENT TYPE>  (4442) 
EI-B

>  <INSTRUMENT>  (4442) 
HITACHI RMU-7M

>  <ION MODE>  (4442) 
P

>  <INCHIKEY>  (4442) 
CBTVGIZVANVGBH-UHFFFAOYSA-N

>  <FORMULA>  (4442) 
C4H11NO

>  <EXACT MASS>  (4442) 
89.08406397200001

>  <MW>  (4442) 
89

>  <ID>  (4442) 
JP005412

>  <CONTRIBUTOR>  (4442) 
University of Tokyo Team, {Faculty of Engineering, University of Tokyo

>  <COMMENT>  (4442) 
SMILES=OCC(C)(C)N
InChI=InChI=1S/C4H11NO/c1-4(2,5)3-6/h6H,3,5H2,1-2H3
computed SMILES=OCC(N)(C)C
accession=JP005412
date=2016.01.19 (Created 2008.10.21, modified 2011.05.06)
author=TAJIMA S, GUNMA COLLEGE OF TECHNOLOGY
license=CC BY-NC-SA
exact mass=89.08406
ionization energy=70 eV
ion type=[M]+*
computed spectral entropy=2.003732478861451
computed normalized entropy=0.6805141804734225
SPLASH=splash10-0a4i-9000000000-6a3ec763291bffa9e358
submitter=submitter = University of Tokyo Team (Faculty of Engineering, University of Tokyo)
MoNA Rating=3.75

>  <NUM PEAKS>  (4442) 
19

>  <MASS SPECTRAL PEAKS>  (4442) 
15 2.73
18 15.33
27 2.13
28 4.6
29 4
30 6
31 2.67
39 2.8
41 14.53
42 8.2
43 4.33
55 1.93
56 8.27
57 4
58 99.99
59 4.8
70 1.27
72 5.73
74 3.13

$$$$

     RDKit          2D

 16 17  0  0  0  0  0  0  0  0999 V2000
    3.2481    2.1950    0.0000 C   0  0  0  0  0  0  0  0  0  0  0  0
   -7.1442    2.1950    0.0000 C   0  0  0  0  0  0  0  0  0  0  0  0
    3.2486    3.6958    0.0000 C   0  0  0  0  0  0  0  0  0  0  0  0
    1.9486    1.4442    0.0000 C   0  0  0  0  0  0  0  0  0  0  0  0
   -5.8447    1.4442    0.0000 C   0  0  0  0  0  0  0  0  0  0  0  0
   -7.1447    3.6958    0.0000 C   0  0  0  0  0  0  0  0  0  0  0  0
    1.9495    4.4458    0.0000 C   0  0  0  0  0  0  0  0  0  0  0  0
    0.6495    2.1942    0.0000 C   0  0  0  0  0  0  0  0  0  0  0  0
   -4.5457    2.1942    0.0000 C   0  0  0  0  0  0  0  0  0  0  0  0
   -5.8457    4.4458    0.0000 C   0  0  0  0  0  0  0  0  0  0  0  0
   -0.6490    4.4450    0.0000 C   0  0  0  0  0  0  0  0  0  0  0  0
    0.6500    3.6950    0.0000 C   0  0  0  0  0  0  0  0  0  0  0  0
   -4.5462    3.6950    0.0000 C   0  0  0  0  0  0  0  0  0  0  0  0
   -3.2471    4.4450    0.0000 C   0  0  0  0  0  0  0  0  0  0  0  0
   -3.2471    5.9450    0.0000 O   0  0  0  0  0  0  0  0  0  0  0  0
   -1.9481    3.6950    0.0000 O   0  0  0  0  0  0  0  0  0  0  0  0
  3  1  2  0
  4  1  1  0
  5  2  2  0
  6  2  1  0
  7  3  1  0
  8  4  2  0
  9  5  1  0
 10  6  2  0
 12  7  2  0
 12  8  1  0
 12 11  1  0
 13  9  2  0
 13 10  1  0
 14 13  1  0
 15 14  2  0
 16 11  1  0
 16 14  1  0
M  END
>  <NAME>  (4443) 
BENZYL BENZOATE

>  <SYNONYMS>  (4443) 


>  <SPECTRUM TYPE>  (4443) 
MS1

>  <INSTRUMENT TYPE>  (4443) 
EI-B

>  <INSTRUMENT>  (4443) 
HITACHI RMU-7M

>  <ION MODE>  (4443) 
P

>  <INCHIKEY>  (4443) 
SESFRYSPDFLNCH-UHFFFAOYSA-N

>  <FORMULA>  (4443) 
C14H12O2

>  <EXACT MASS>  (4443) 
212.083729624

>  <MW>  (4443) 
212

>  <ID>  (4443) 
JP005411

>  <CONTRIBUTOR>  (4443) 
University of Tokyo Team, {Faculty of Engineering, University of Tokyo

>  <COMMENT>  (4443) 
SMILES=O=C(OCc(c2)cccc2)c(c1)cccc1
InChI=InChI=1S/C14H12O2/c15-14(13-9-5-2-6-10-13)16-11-12-7-3-1-4-8-12/h1-10H,11H2
computed SMILES=O=C(OCC=1C=CC=CC1)C=2C=CC=CC2
accession=JP005411
date=2016.01.19 (Created 2008.10.21, modified 2011.05.06)
author=TAJIMA S, GUNMA COLLEGE OF TECHNOLOGY
license=CC BY-NC-SA
exact mass=212.08373
ionization energy=70 eV
ion type=[M]+*
computed spectral entropy=2.4004882594231143
computed normalized entropy=0.7553327877899096
SPLASH=splash10-0a4l-9810000000-7d82df2148f364364d37
submitter=submitter = University of Tokyo Team (Faculty of Engineering, University of Tokyo)
MoNA Rating=3.75

>  <NUM PEAKS>  (4443) 
24

>  <MASS SPECTRAL PEAKS>  (4443) 
27 2.06
31 6.71
39 3.87
45 3.35
50 2.65
51 10.13
63 1.87
65 9.23
77 32.9
78 2.58
79 5.48
89 4.52
90 7.16
91 43.81
92 3.48
105 99.99
106 8.39
107 6.26
167 5.74
168 1.23
194 10.32
195 1.67
212 22.06
213 3.48

$$$$

     RDKit          2D

 10  9  0  0  0  0  0  0  0  0999 V2000
   -7.1447    4.8750    0.0000 C   0  0  0  0  0  0  0  0  0  0  0  0
    1.9486    5.6250    0.0000 C   0  0  0  0  0  0  0  0  0  0  0  0
   -5.8457    5.6250    0.0000 C   0  0  0  0  0  0  0  0  0  0  0  0
    0.6495    4.8750    0.0000 C   0  0  0  0  0  0  0  0  0  0  0  0
   -3.2476    5.6250    0.0000 C   0  0  0  0  0  0  0  0  0  0  0  0
   -1.9486    4.8750    0.0000 C   0  0  0  0  0  0  0  0  0  0  0  0
   -8.4437    5.6250    0.0000 Cl  0  0  0  0  0  0  0  0  0  0  0  0
    3.2476    4.8750    0.0000 Cl  0  0  0  0  0  0  0  0  0  0  0  0
   -4.5466    4.8750    0.0000 O   0  0  0  0  0  0  0  0  0  0  0  0
   -0.6495    5.6250    0.0000 O   0  0  0  0  0  0  0  0  0  0  0  0
  3  1  1  0
  4  2  1  0
  6  5  1  0
  7  1  1  0
  8  2  1  0
  9  3  1  0
  9  5  1  0
 10  4  1  0
 10  6  1  0
M  END
>  <NAME>  (4444) 
1,2-BIS(2-CHLOROETHOXY)ETHANE

>  <SYNONYMS>  (4444) 


>  <SPECTRUM TYPE>  (4444) 
MS1

>  <INSTRUMENT TYPE>  (4444) 
EI-B

>  <INSTRUMENT>  (4444) 
HITACHI RMU-7M

>  <ION MODE>  (4444) 
P

>  <INCHIKEY>  (4444) 
AGYUOJIYYGGHKV-UHFFFAOYSA-N

>  <FORMULA>  (4444) 
C6H12Cl2O2

>  <EXACT MASS>  (4444) 
186.021434984

>  <MW>  (4444) 
186

>  <ID>  (4444) 
JP005410

>  <CONTRIBUTOR>  (4444) 
University of Tokyo Team, {Faculty of Engineering, University of Tokyo

>  <COMMENT>  (4444) 
SMILES=ClCCOCCOCCCl
InChI=InChI=1S/C6H12Cl2O2/c7-1-3-9-5-6-10-4-2-8/h1-6H2
computed SMILES=ClCCOCCOCCCl
accession=JP005410
date=2016.01.19 (Created 2008.10.21, modified 2011.05.06)
author=TAJIMA S, GUNMA COLLEGE OF TECHNOLOGY
license=CC BY-NC-SA
exact mass=186.02144
ionization energy=70 eV
ion type=[M]+*
computed spectral entropy=2.6062713836183082
computed normalized entropy=0.7907768162014621
SPLASH=splash10-03dl-9100000000-50807c462c5efa9e298a
submitter=submitter = University of Tokyo Team (Faculty of Engineering, University of Tokyo)
MoNA Rating=3.75

>  <NUM PEAKS>  (4444) 
27

>  <MASS SPECTRAL PEAKS>  (4444) 
15 2.52
27 32.53
28 2.86
29 3.93
31 7.85
43 17.22
44 3.76
45 24.57
49 2.36
59 9.03
62 3.42
63 99.99
64 3.31
65 31.63
72 2.47
73 9.48
93 49.86
94 1.68
95 16.04
101 1.29
106 11.72
107 24.73
108 4.88
109 8.02
115 1
137 4.6
139 1.63

$$$$

     RDKit          2D

  7  6  0  0  0  0  0  0  0  0999 V2000
    1.6238    1.6875    0.0000 C   0  0  0  0  0  0  0  0  0  0  0  0
    0.3248    3.9375    0.0000 C   0  0  0  0  0  0  0  0  0  0  0  0
   -3.5724    1.6875    0.0000 C   0  0  0  0  0  0  0  0  0  0  0  0
   -0.9743    1.6875    0.0000 C   0  0  0  0  0  0  0  0  0  0  0  0
    0.3248    2.4375    0.0000 C   0  0  0  0  0  0  0  0  0  0  0  0
   -2.2733    2.4375    0.0000 C   0  0  0  0  0  0  0  0  0  0  0  0
   -2.2733    3.9375    0.0000 O   0  0  0  0  0  0  0  0  0  0  0  0
  5  1  1  0
  5  2  1  0
  5  4  2  0
  6  3  1  0
  6  4  1  0
  7  6  2  0
M  END
>  <NAME>  (4445) 
MESITYL OXIDE

>  <SYNONYMS>  (4445) 
4-METHYL-3-PENTEN-2-ONE

>  <SPECTRUM TYPE>  (4445) 
MS1

>  <INSTRUMENT TYPE>  (4445) 
EI-B

>  <INSTRUMENT>  (4445) 
HITACHI RMU-7M

>  <ION MODE>  (4445) 
P

>  <INCHIKEY>  (4445) 
SHOJXDKTYKFBRD-UHFFFAOYSA-N

>  <FORMULA>  (4445) 
C6H10O

>  <EXACT MASS>  (4445) 
98.07316494

>  <MW>  (4445) 
98

>  <ID>  (4445) 
JP005409

>  <CONTRIBUTOR>  (4445) 
University of Tokyo Team, {Faculty of Engineering, University of Tokyo

>  <COMMENT>  (4445) 
SMILES=CC(C)=CC(C)=O
InChI=InChI=1S/C6H10O/c1-5(2)4-6(3)7/h4H,1-3H3
computed SMILES=O=C(C=C(C)C)C
accession=JP005409
date=2016.01.19 (Created 2008.10.21, modified 2011.05.06)
author=TAJIMA S, GUNMA COLLEGE OF TECHNOLOGY
license=CC BY-NC-SA
exact mass=98.07316
ionization energy=70 eV
ion type=[M]+*
computed spectral entropy=2.3273517446439
computed normalized entropy=0.7323197997527602
SPLASH=splash10-0a7i-9000000000-3661666f8de0c561e186
submitter=submitter = University of Tokyo Team (Faculty of Engineering, University of Tokyo)
MoNA Rating=3.75

>  <NUM PEAKS>  (4445) 
24

>  <MASS SPECTRAL PEAKS>  (4445) 
15 6.41
26 1.45
27 16.91
28 2.01
29 34.19
38 2.51
39 23.88
40 2.45
41 8.17
42 3.02
43 46.64
44 1.38
50 2.64
51 3.52
52 1.32
53 10.62
54 1.76
55 99.99
56 5.03
79 1.76
83 94.59
84 5.34
98 40.98
99 4.34

$$$$

     RDKit          2D

  5  4  0  0  0  0  0  0  0  0999 V2000
    0.0000    0.0000    0.0000 C   0  0  0  0  0  0  0  0  0  0  0  0
    1.2990    2.2500    0.0000 C   0  0  0  0  0  0  0  0  0  0  0  0
   -1.2990    2.2500    0.0000 C   0  0  0  0  0  0  0  0  0  0  0  0
    0.0000    1.5000    0.0000 C   0  0  0  0  0  0  0  0  0  0  0  0
   -1.2990    3.7500    0.0000 N   0  0  0  0  0  0  0  0  0  0  0  0
  4  1  1  0
  4  2  1  0
  4  3  1  0
  5  3  1  0
M  END
>  <NAME>  (4446) 
ISOBUTYLAMINE

>  <SYNONYMS>  (4446) 
2-METHYLPROPYLAMINE

>  <SPECTRUM TYPE>  (4446) 
MS1

>  <INSTRUMENT TYPE>  (4446) 
EI-B

>  <INSTRUMENT>  (4446) 
HITACHI RMU-7M

>  <ION MODE>  (4446) 
P

>  <INCHIKEY>  (4446) 
KDSNLYIMUZNERS-UHFFFAOYSA-N

>  <FORMULA>  (4446) 
C4H11N

>  <EXACT MASS>  (4446) 
73.08914935199999

>  <MW>  (4446) 
73

>  <ID>  (4446) 
JP005408

>  <CONTRIBUTOR>  (4446) 
University of Tokyo Team, {Faculty of Engineering, University of Tokyo

>  <COMMENT>  (4446) 
SMILES=NCC(C)C
InChI=InChI=1S/C4H11N/c1-4(2)3-5/h4H,3,5H2,1-2H3
computed SMILES=NCC(C)C
accession=JP005408
date=2016.01.19 (Created 2008.10.21, modified 2011.05.06)
author=TAJIMA S, GUNMA COLLEGE OF TECHNOLOGY
license=CC BY-NC-SA
exact mass=73.08915
ionization energy=70 eV
ion type=[M]+*
computed spectral entropy=1.2762305928707887
computed normalized entropy=0.47127287092068937
SPLASH=splash10-001i-9000000000-cbacb2f6f569309df9ee
submitter=submitter = University of Tokyo Team (Faculty of Engineering, University of Tokyo)
MoNA Rating=3.75

>  <NUM PEAKS>  (4446) 
15

>  <MASS SPECTRAL PEAKS>  (4446) 
27 2.02
28 2.55
29 1.95
30 99.99
31 2.21
39 1.95
41 5.17
43 1.26
44 3.28
55 2.65
56 1.77
58 1.7
72 1.13
73 8.45
74 2.4

$$$$

     RDKit          2D

  4  3  0  0  0  0  0  0  0  0999 V2000
   -2.5981    2.2500    0.0000 C   0  0  0  0  0  0  0  0  0  0  0  0
   -1.2990    1.5000    0.0000 C   0  0  0  0  0  0  0  0  0  0  0  0
    0.0000    2.2500    0.0000 C   0  0  0  0  0  0  0  0  0  0  0  0
    1.2990    1.5000    0.0000 O   0  0  0  0  0  0  0  0  0  0  0  0
  2  1  2  0
  3  2  1  0
  4  3  1  0
M  END
>  <NAME>  (4447) 
ALLYL ALCOHOL

>  <SYNONYMS>  (4447) 
2-PROPEN-1-OL

>  <SPECTRUM TYPE>  (4447) 
MS1

>  <INSTRUMENT TYPE>  (4447) 
EI-B

>  <INSTRUMENT>  (4447) 
HITACHI RMU-7M

>  <ION MODE>  (4447) 
P

>  <INCHIKEY>  (4447) 
XXROGKLTLUQVRX-UHFFFAOYSA-N

>  <FORMULA>  (4447) 
C3H6O

>  <EXACT MASS>  (4447) 
58.041864812

>  <MW>  (4447) 
58

>  <ID>  (4447) 
JP005407

>  <CONTRIBUTOR>  (4447) 
University of Tokyo Team, {Faculty of Engineering, University of Tokyo

>  <COMMENT>  (4447) 
SMILES=C=CCO
InChI=InChI=1S/C3H6O/c1-2-3-4/h2,4H,1,3H2
computed SMILES=OCC=C
accession=JP005407
date=2016.01.19 (Created 2008.10.21, modified 2011.05.06)
author=TAJIMA S, GUNMA COLLEGE OF TECHNOLOGY
license=CC BY-NC-SA
exact mass=58.04186
ionization energy=70 eV
ion type=[M]+*
computed spectral entropy=2.350908904832693
computed normalized entropy=0.7984233741866258
SPLASH=splash10-0a7i-9000000000-dace94bd535c06f6ec98
submitter=submitter = University of Tokyo Team (Faculty of Engineering, University of Tokyo)
MoNA Rating=3.75

>  <NUM PEAKS>  (4447) 
19

>  <MASS SPECTRAL PEAKS>  (4447) 
15 2.68
18 4.23
26 9.87
27 26.85
28 14.21
29 47.65
30 19.27
31 41.66
37 3.11
38 4.7
39 26.56
40 8.81
41 6.76
43 4.41
55 5.11
56 1.18
57 99.99
58 20.09
59 1.18

$$$$

     RDKit          2D

 13 12  0  0  0  0  0  0  0  0999 V2000
    2.1863    2.8358    0.0000 C   0  0  0  0  0  0  0  0  0  0  0  0
    2.1863    1.3358    0.0000 C   0  0  0  0  0  0  0  0  0  0  0  0
    3.4853    3.5858    0.0000 C   0  0  0  0  0  0  0  0  0  0  0  0
    0.8873    0.5858    0.0000 C   0  0  0  0  0  0  0  0  0  0  0  0
    3.4853    5.0858    0.0000 C   0  0  0  0  0  0  0  0  0  0  0  0
    1.6373   -0.7132    0.0000 F   0  0  0  0  0  0  0  0  0  0  0  0
    0.1373    1.8849    0.0000 F   0  0  0  0  0  0  0  0  0  0  0  0
   -0.4118   -0.1642    0.0000 F   0  0  0  0  0  0  0  0  0  0  0  0
    4.9853    5.0858    0.0000 F   0  0  0  0  0  0  0  0  0  0  0  0
    3.4853    6.5858    0.0000 F   0  0  0  0  0  0  0  0  0  0  0  0
    1.9853    5.0858    0.0000 F   0  0  0  0  0  0  0  0  0  0  0  0
    3.4853    0.5858    0.0000 O   0  0  0  0  0  0  0  0  0  0  0  0
    4.7844    2.8358    0.0000 O   0  0  0  0  0  0  0  0  0  0  0  0
  2  1  1  0
  3  1  1  0
  4  2  1  0
  5  3  1  0
  6  4  1  0
  7  4  1  0
  8  4  1  0
  9  5  1  0
 10  5  1  0
 11  5  1  0
 12  2  2  0
 13  3  2  0
M  END
>  <NAME>  (4448) 
1,1,1,5,5,5-HEXAFLUOROACETYLACETONE

>  <SYNONYMS>  (4448) 
1,1,1,5,5,5-HEXAFLUORO-2,4-PENTADIONE

>  <SPECTRUM TYPE>  (4448) 
MS1

>  <INSTRUMENT TYPE>  (4448) 
EI-B

>  <INSTRUMENT>  (4448) 
HITACHI RMU-7M

>  <ION MODE>  (4448) 
P

>  <INCHIKEY>  (4448) 
QAMFBRUWYYMMGJ-UHFFFAOYSA-N

>  <FORMULA>  (4448) 
C5H2F6O2

>  <EXACT MASS>  (4448) 
207.995898624

>  <MW>  (4448) 
208

>  <ID>  (4448) 
JP005406

>  <CONTRIBUTOR>  (4448) 
University of Tokyo Team, {Faculty of Engineering, University of Tokyo

>  <COMMENT>  (4448) 
SMILES=O=C(CC(=O)C(F)(F)F)C(F)(F)F
InChI=InChI=1S/C5H2F6O2/c6-4(7,8)2(12)1-3(13)5(9,10)11/h1H2
computed SMILES=O=C(CC(=O)C(F)(F)F)C(F)(F)F
accession=JP005406
date=2016.01.19 (Created 2008.10.21, modified 2011.05.06)
author=TAJIMA S, GUNMA COLLEGE OF TECHNOLOGY
license=CC BY-NC-SA
exact mass=207.9959
ionization energy=70 eV
ion type=[M]+*
computed spectral entropy=1.7737324019744767
computed normalized entropy=0.5656946815476301
SPLASH=splash10-014r-9400000000-143ea0627121cb91cf07
submitter=submitter = University of Tokyo Team (Faculty of Engineering, University of Tokyo)
MoNA Rating=3.75

>  <NUM PEAKS>  (4448) 
23

>  <MASS SPECTRAL PEAKS>  (4448) 
19 1
29 1.79
31 2.45
33 1.2
41 3.71
42 4.24
50 1.67
51 1.08
53 1.06
63 1.79
69 99.99
70 2.93
75 1.79
83 1.67
89 3.53
91 4.66
97 1.91
119 5.86
120 1.73
137 1.73
139 50.75
140 2.27
208 2.39

$$$$

     RDKit          2D

 10  9  0  0  0  0  0  0  0  0999 V2000
   -4.4596    3.2243    0.0000 C   0  0  0  0  0  0  0  0  0  0  0  0
   -1.8615    3.2243    0.0000 C   0  0  0  0  0  0  0  0  0  0  0  0
   -3.1606    2.4743    0.0000 C   0  0  0  0  0  0  0  0  0  0  0  0
   -0.5625    2.4743    0.0000 C   0  0  0  0  0  0  0  0  0  0  0  0
    0.7365    3.2243    0.0000 C   0  0  0  0  0  0  0  0  0  0  0  0
    1.4865    1.9252    0.0000 F   0  0  0  0  0  0  0  0  0  0  0  0
    2.0356    3.9743    0.0000 F   0  0  0  0  0  0  0  0  0  0  0  0
   -0.0135    4.5233    0.0000 F   0  0  0  0  0  0  0  0  0  0  0  0
   -3.1606    0.9743    0.0000 O   0  0  0  0  0  0  0  0  0  0  0  0
   -0.5625    0.9743    0.0000 O   0  0  0  0  0  0  0  0  0  0  0  0
  3  1  1  0
  3  2  1  0
  4  2  1  0
  5  4  1  0
  6  5  1  0
  7  5  1  0
  8  5  1  0
  9  3  2  0
 10  4  2  0
M  END
>  <NAME>  (4449) 
1,1,1-TRIFLUOROACETYLACETONE

>  <SYNONYMS>  (4449) 
1,1,1-TRIFLUORO-2,4-PENTADIONE

>  <SPECTRUM TYPE>  (4449) 
MS1

>  <INSTRUMENT TYPE>  (4449) 
EI-B

>  <INSTRUMENT>  (4449) 
HITACHI RMU-7M

>  <ION MODE>  (4449) 
P

>  <INCHIKEY>  (4449) 
SHXHPUAKLCCLDV-UHFFFAOYSA-N

>  <FORMULA>  (4449) 
C5H5F3O2

>  <EXACT MASS>  (4449) 
154.02416406

>  <MW>  (4449) 
154

>  <ID>  (4449) 
JP005405

>  <CONTRIBUTOR>  (4449) 
University of Tokyo Team, {Faculty of Engineering, University of Tokyo

>  <COMMENT>  (4449) 
SMILES=CC(=O)CC(=O)C(F)(F)F
InChI=InChI=1S/C5H5F3O2/c1-3(9)2-4(10)5(6,7)8/h2H2,1H3
computed SMILES=O=C(C)CC(=O)C(F)(F)F
accession=JP005405
date=2016.01.19 (Created 2008.10.21, modified 2011.05.06)
author=TAJIMA S, GUNMA COLLEGE OF TECHNOLOGY
license=CC BY-NC-SA
exact mass=154.02416
ionization energy=70 eV
ion type=[M]+*
computed spectral entropy=2.5254345094660775
computed normalized entropy=0.7286863685793123
SPLASH=splash10-00ko-9000000000-f8bf974377af1253f3e3
submitter=submitter = University of Tokyo Team (Faculty of Engineering, University of Tokyo)
MoNA Rating=3.75

>  <NUM PEAKS>  (4449) 
32

>  <MASS SPECTRAL PEAKS>  (4449) 
15 8.47
26 1.93
27 7.16
29 7.27
31 6.7
38 2.39
39 8.35
40 1.59
41 7.73
42 8.07
43 99.99
44 4.55
45 5.97
50 2.16
51 3.47
53 1.7
55 3.86
69 50.06
70 1.65
77 1.48
85 57.27
86 2.78
89 1.82
91 2.22
94 4.43
97 1.25
107 3.58
119 5.63
127 1
139 8.64
154 11.08
155 1.82

$$$$

     RDKit          2D

 10 10  0  0  0  0  0  0  0  0999 V2000
    6.1262    0.5406    0.0000 C   0  0  0  0  0  0  0  0  0  0  0  0
    6.1262   -0.9594    0.0000 C   0  0  0  0  0  0  0  0  0  0  0  0
    4.8262    1.2906    0.0000 C   0  0  0  0  0  0  0  0  0  0  0  0
    4.8262   -1.7094    0.0000 C   0  0  0  0  0  0  0  0  0  0  0  0
    3.5262    0.5406    0.0000 C   0  0  0  0  0  0  0  0  0  0  0  0
   -0.3708   -1.7100    0.0000 C   0  0  0  0  0  0  0  0  0  0  0  0
    0.9281   -0.9598    0.0000 C   0  0  0  0  0  0  0  0  0  0  0  0
    3.5262   -0.9594    0.0000 C   0  0  0  0  0  0  0  0  0  0  0  0
   -1.6700   -0.9602    0.0000 Cl  0  0  0  0  0  0  0  0  0  0  0  0
    2.2272   -1.7096    0.0000 O   0  0  0  0  0  0  0  0  0  0  0  0
  2  1  2  0
  3  1  1  0
  4  2  1  0
  5  3  2  0
  7  6  1  0
  8  4  2  0
  8  5  1  0
  9  6  1  0
 10  7  1  0
 10  8  1  0
M  END
>  <NAME>  (4450) 
2-CHLOROETHYL PHENYL ETHER

>  <SYNONYMS>  (4450) 
1-PHENOXY-2-CHLOROETHANE

>  <SPECTRUM TYPE>  (4450) 
MS1

>  <INSTRUMENT TYPE>  (4450) 
EI-B

>  <INSTRUMENT>  (4450) 
HITACHI RMU-7M

>  <ION MODE>  (4450) 
P

>  <INCHIKEY>  (4450) 
VQUYNUJARXBNPK-UHFFFAOYSA-N

>  <FORMULA>  (4450) 
C8H9ClO

>  <EXACT MASS>  (4450) 
156.034192588

>  <MW>  (4450) 
156

>  <ID>  (4450) 
JP005404

>  <CONTRIBUTOR>  (4450) 
University of Tokyo Team, {Faculty of Engineering, University of Tokyo

>  <COMMENT>  (4450) 
SMILES=ClCCOc(c1)cccc1
InChI=InChI=1S/C8H9ClO/c9-6-7-10-8-4-2-1-3-5-8/h1-5H,6-7H2
computed SMILES=ClCCOC=1C=CC=CC1
accession=JP005404
date=2016.01.19 (Created 2008.10.21, modified 2011.05.06)
author=TAJIMA S, GUNMA COLLEGE OF TECHNOLOGY
license=CC BY-NC-SA
exact mass=156.03419
ionization energy=70 eV
ion type=[M]+*
computed spectral entropy=2.8171700374296753
computed normalized entropy=0.7988888310665058
SPLASH=splash10-05ox-9100000000-d9ccc56abb8526decfde
submitter=submitter = University of Tokyo Team (Faculty of Engineering, University of Tokyo)
MoNA Rating=3.75

>  <NUM PEAKS>  (4450) 
34

>  <MASS SPECTRAL PEAKS>  (4450) 
26 4
27 33.05
28 3
37 2
38 7.16
39 32.69
40 4.85
49 2.49
50 6.67
51 17.53
52 1.33
53 1.33
55 2.61
61 1.58
62 3.21
63 28.14
64 4.37
65 30.87
66 28.62
67 1.52
77 29.71
78 2.43
79 8.97
91 2.43
93 2.73
94 99.99
95 6.67
107 25.17
108 1.94
121 2
156 27.47
157 2.49
158 9.1
159 1.09

$$$$

     RDKit          2D

  9  8  0  0  0  0  0  0  0  0999 V2000
    1.5368    3.1373    0.0000 C   0  0  0  0  0  0  0  0  0  0  0  0
    0.2377    3.8873    0.0000 C   0  0  0  0  0  0  0  0  0  0  0  0
   -2.3603    3.8873    0.0000 C   0  0  0  0  0  0  0  0  0  0  0  0
   -3.6594    3.1373    0.0000 C   0  0  0  0  0  0  0  0  0  0  0  0
   -4.4094    4.4363    0.0000 F   0  0  0  0  0  0  0  0  0  0  0  0
   -4.9584    2.3873    0.0000 F   0  0  0  0  0  0  0  0  0  0  0  0
   -2.9094    1.8382    0.0000 F   0  0  0  0  0  0  0  0  0  0  0  0
   -2.3603    5.3873    0.0000 O   0  0  0  0  0  0  0  0  0  0  0  0
   -1.0613    3.1373    0.0000 O   0  0  0  0  0  0  0  0  0  0  0  0
  2  1  1  0
  4  3  1  0
  5  4  1  0
  6  4  1  0
  7  4  1  0
  8  3  2  0
  9  2  1  0
  9  3  1  0
M  END
>  <NAME>  (4451) 
TRIFLUOROACETIC ACID ETHYL ESTER

>  <SYNONYMS>  (4451) 
ETHYL TRIFLUOROACETATE

>  <SPECTRUM TYPE>  (4451) 
MS1

>  <INSTRUMENT TYPE>  (4451) 
EI-B

>  <INSTRUMENT>  (4451) 
HITACHI RMU-7M

>  <ION MODE>  (4451) 
P

>  <INCHIKEY>  (4451) 
STSCVKRWJPWALQ-UHFFFAOYSA-N

>  <FORMULA>  (4451) 
C4H5F3O2

>  <EXACT MASS>  (4451) 
142.02416406

>  <MW>  (4451) 
142

>  <ID>  (4451) 
JP005403

>  <CONTRIBUTOR>  (4451) 
University of Tokyo Team, {Faculty of Engineering, University of Tokyo

>  <COMMENT>  (4451) 
SMILES=CCOC(=O)C(F)(F)F
InChI=InChI=1S/C4H5F3O2/c1-2-9-3(8)4(5,6)7/h2H2,1H3
computed SMILES=O=C(OCC)C(F)(F)F
accession=JP005403
date=2016.01.19 (Created 2008.10.21, modified 2011.05.06)
author=TAJIMA S, GUNMA COLLEGE OF TECHNOLOGY
license=CC BY-NC-SA
exact mass=142.02416
ionization energy=70 eV
ion type=[M]+*
computed spectral entropy=2.0085479981368386
computed normalized entropy=0.6497963157880984
SPLASH=splash10-004i-9000000000-b8b335c3b1c91f1b15d5
submitter=submitter = University of Tokyo Team (Faculty of Engineering, University of Tokyo)
MoNA Rating=3.75

>  <NUM PEAKS>  (4451) 
22

>  <MASS SPECTRAL PEAKS>  (4451) 
15 3.52
26 4.61
27 27.78
28 13.35
29 99.99
30 2.5
31 5.38
33 2.69
43 2.88
44 3.97
45 1.98
47 1.73
50 2.24
51 1.66
69 27.46
73 1.02
97 1.22
99 5.83
115 1
127 1.86
141 3.78
142 1.15

$$$$

     RDKit          2D

  7  6  0  0  0  0  0  0  0  0999 V2000
    1.9486    2.6250    0.0000 C   0  0  0  0  0  0  0  0  0  0  0  0
   -4.5466    3.3750    0.0000 C   0  0  0  0  0  0  0  0  0  0  0  0
    0.6495    3.3750    0.0000 C   0  0  0  0  0  0  0  0  0  0  0  0
   -0.6495    2.6250    0.0000 C   0  0  0  0  0  0  0  0  0  0  0  0
   -1.9486    3.3750    0.0000 C   0  0  0  0  0  0  0  0  0  0  0  0
   -1.9486    4.8750    0.0000 O   0  0  0  0  0  0  0  0  0  0  0  0
   -3.2476    2.6250    0.0000 O   0  0  0  0  0  0  0  0  0  0  0  0
  3  1  1  0
  3  4  2  0
  5  4  1  0
  6  5  2  0
  7  2  1  0
  7  5  1  0
M  END
>  <NAME>  (4452) 
METHYL CROTONATE

>  <SYNONYMS>  (4452) 
2-BUTENOIC ACID METHYL ESTER

>  <SPECTRUM TYPE>  (4452) 
MS1

>  <INSTRUMENT TYPE>  (4452) 
EI-B

>  <INSTRUMENT>  (4452) 
HITACHI RMU-7M

>  <ION MODE>  (4452) 
P

>  <INCHIKEY>  (4452) 
MCVVUJPXSBQTRZ-ONEGZZNKSA-N

>  <FORMULA>  (4452) 
C5H8O2

>  <EXACT MASS>  (4452) 
100.052429496

>  <MW>  (4452) 
100

>  <ID>  (4452) 
JP005402

>  <CONTRIBUTOR>  (4452) 
University of Tokyo Team, {Faculty of Engineering, University of Tokyo

>  <COMMENT>  (4452) 
SMILES=CC=CC(=O)OC
InChI=InChI=1S/C5H8O2/c1-3-4-5(6)7-2/h3-4H,1-2H3/b4-3+
computed SMILES=O=C(OC)C=CC
accession=JP005402
date=2016.01.19 (Created 2008.10.21, modified 2011.05.06)
author=TAJIMA S, GUNMA COLLEGE OF TECHNOLOGY
license=CC BY-NC-SA
exact mass=100.05243
ionization energy=70 eV
ion type=[M]+*
computed spectral entropy=1.887736963887193
computed normalized entropy=0.6808571890757105
SPLASH=splash10-014i-9000000000-051848b3008ab240a288
submitter=submitter = University of Tokyo Team (Faculty of Engineering, University of Tokyo)
MoNA Rating=3.75

>  <NUM PEAKS>  (4452) 
16

>  <MASS SPECTRAL PEAKS>  (4452) 
15 7.64
27 1.48
29 2.17
37 1.03
39 19.51
40 3.42
41 44.1
42 2.68
59 4.68
68 3.31
69 99.99
70 4.51
85 21.11
86 1.03
100 14.6
101 2.57

$$$$

     RDKit          2D

  4  3  0  0  0  0  0  0  0  0999 V2000
    0.9743    0.5625    0.0000 C   0  0  0  0  0  0  0  0  0  0  0  0
   -1.6238    0.5625    0.0000 C   0  0  0  0  0  0  0  0  0  0  0  0
   -0.3248    1.3125    0.0000 C   0  0  0  0  0  0  0  0  0  0  0  0
   -0.3248    2.8125    0.0000 N   0  0  0  0  0  0  0  0  0  0  0  0
  3  1  1  0
  3  2  1  0
  4  3  1  0
M  END
>  <NAME>  (4453) 
ISOPROPYLAMINE

>  <SYNONYMS>  (4453) 


>  <SPECTRUM TYPE>  (4453) 
MS1

>  <INSTRUMENT TYPE>  (4453) 
EI-B

>  <INSTRUMENT>  (4453) 
HITACHI RMU-7M

>  <ION MODE>  (4453) 
P

>  <INCHIKEY>  (4453) 
JJWLVOIRVHMVIS-UHFFFAOYSA-N

>  <FORMULA>  (4453) 
C3H9N

>  <EXACT MASS>  (4453) 
59.073499287999994

>  <MW>  (4453) 
59

>  <ID>  (4453) 
JP005401

>  <CONTRIBUTOR>  (4453) 
University of Tokyo Team, {Faculty of Engineering, University of Tokyo

>  <COMMENT>  (4453) 
SMILES=CC(C)N
InChI=InChI=1S/C3H9N/c1-3(2)4/h3H,4H2,1-2H3
computed SMILES=NC(C)C
accession=JP005401
date=2016.01.19 (Created 2008.10.21, modified 2011.05.06)
author=TAJIMA S, GUNMA COLLEGE OF TECHNOLOGY
license=CC BY-NC-SA
exact mass=59.0735
ionization energy=70 eV
ion type=[M]+*
computed spectral entropy=2.237821363490326
computed normalized entropy=0.7600162133853577
SPLASH=splash10-0006-9000000000-3a7059ff99a8a5e0b6f5
submitter=submitter = University of Tokyo Team (Faculty of Engineering, University of Tokyo)
MoNA Rating=3.75

>  <NUM PEAKS>  (4453) 
19

>  <MASS SPECTRAL PEAKS>  (4453) 
15 6.63
18 22.6
19 8.22
26 1.66
27 7.81
28 8.02
29 2.49
30 2.56
38 1.66
39 6.29
40 3.39
41 12.44
42 14.51
43 10.44
44 99.99
45 36.07
46 3.8
58 7.39
59 4.63

$$$$

     RDKit          2D

  6  6  0  0  0  0  0  0  0  0999 V2000
    2.0279    0.1311    0.0000 C   0  0  0  0  0  0  0  0  0  0  0  0
    1.2779   -1.1679    0.0000 C   0  0  0  0  0  0  0  0  0  0  0  0
    0.9958    1.2235    0.0000 C   0  0  0  0  0  0  0  0  0  0  0  0
   -0.1745   -0.8836    0.0000 C   0  0  0  0  0  0  0  0  0  0  0  0
   -0.3540    0.6056    0.0000 C   0  0  0  0  0  0  0  0  0  0  0  0
   -1.6625    1.3389    0.0000 O   0  0  0  0  0  0  0  0  0  0  0  0
  2  1  1  0
  3  1  1  0
  4  2  1  0
  5  3  1  0
  5  4  1  0
  6  5  1  0
M  END
>  <NAME>  (4454) 
CYCLOPENTANOL

>  <SYNONYMS>  (4454) 


>  <SPECTRUM TYPE>  (4454) 
MS1

>  <INSTRUMENT TYPE>  (4454) 
EI-B

>  <INSTRUMENT>  (4454) 
HITACHI RMU-7M

>  <ION MODE>  (4454) 
P

>  <INCHIKEY>  (4454) 
XCIXKGXIYUWCLL-UHFFFAOYSA-N

>  <FORMULA>  (4454) 
C5H10O

>  <EXACT MASS>  (4454) 
86.07316494

>  <MW>  (4454) 
86

>  <ID>  (4454) 
JP005400

>  <CONTRIBUTOR>  (4454) 
University of Tokyo Team, {Faculty of Engineering, University of Tokyo

>  <COMMENT>  (4454) 
SMILES=OC(C1)CCC1
InChI=InChI=1S/C5H10O/c6-5-3-1-2-4-5/h5-6H,1-4H2
computed SMILES=OC1CCCC1
accession=JP005400
date=2016.01.19 (Created 2008.10.21, modified 2011.05.06)
author=TAJIMA S, GUNMA COLLEGE OF TECHNOLOGY
license=CC BY-NC-SA
exact mass=86.07316
ionization energy=70 eV
ion type=[M]+*
computed spectral entropy=2.7206135968317118
computed normalized entropy=0.7850031488648392
SPLASH=splash10-0a4i-9000000000-21ac54e00a0f56585859
submitter=submitter = University of Tokyo Team (Faculty of Engineering, University of Tokyo)
MoNA Rating=3.75

>  <NUM PEAKS>  (4454) 
32

>  <MASS SPECTRAL PEAKS>  (4454) 
15 2.63
26 3.37
27 14.16
28 7.42
29 17.73
30 5.46
31 6.2
32 2.23
38 2.36
39 14.77
40 5.6
41 19.69
42 7.62
43 13.62
44 38.98
45 13.49
46 1.28
50 1.01
51 1.01
53 2.7
55 4.11
56 2.63
57 99.99
58 51.31
59 4.79
67 7.28
68 6.74
69 2.09
71 2.83
72 1.28
86 7.35
87 3.84

$$$$

     RDKit          2D

  8  7  0  0  0  0  0  0  0  0999 V2000
    1.9486    3.3750    0.0000 C   0  0  0  0  0  0  0  0  0  0  0  0
   -5.8457    3.3750    0.0000 C   0  0  0  0  0  0  0  0  0  0  0  0
    0.6495    4.1250    0.0000 C   0  0  0  0  0  0  0  0  0  0  0  0
   -4.5466    4.1250    0.0000 C   0  0  0  0  0  0  0  0  0  0  0  0
   -0.6495    3.3750    0.0000 C   0  0  0  0  0  0  0  0  0  0  0  0
   -1.9486    4.1250    0.0000 C   0  0  0  0  0  0  0  0  0  0  0  0
   -1.9486    5.6250    0.0000 O   0  0  0  0  0  0  0  0  0  0  0  0
   -3.2476    3.3750    0.0000 O   0  0  0  0  0  0  0  0  0  0  0  0
  3  1  1  0
  4  2  1  0
  3  5  2  0
  6  5  1  0
  7  6  2  0
  8  4  1  0
  8  6  1  0
M  END
>  <NAME>  (4455) 
CROTONIC ACID ETHYL ESTER

>  <SYNONYMS>  (4455) 
TRANS-2-BUTENOIC ACID ETHYL ESTER

>  <SPECTRUM TYPE>  (4455) 
MS1

>  <INSTRUMENT TYPE>  (4455) 
EI-B

>  <INSTRUMENT>  (4455) 
HITACHI RMU-7M

>  <ION MODE>  (4455) 
P

>  <INCHIKEY>  (4455) 
ZFDIRQKJPRINOQ-HWKANZROSA-N

>  <FORMULA>  (4455) 
C6H10O2

>  <EXACT MASS>  (4455) 
114.06807956

>  <MW>  (4455) 
114

>  <ID>  (4455) 
JP005399

>  <CONTRIBUTOR>  (4455) 
University of Tokyo Team, {Faculty of Engineering, University of Tokyo

>  <COMMENT>  (4455) 
SMILES=CC=CC(=O)OCC
InChI=InChI=1S/C6H10O2/c1-3-5-6(7)8-4-2/h3,5H,4H2,1-2H3/b5-3+
computed SMILES=O=C(OCC)C=CC
accession=JP005399
date=2016.01.19 (Created 2008.10.21, modified 2011.05.06)
author=TAJIMA S, GUNMA COLLEGE OF TECHNOLOGY
license=CC BY-NC-SA
exact mass=114.06808
ionization energy=70 eV
ion type=[M]+*
computed spectral entropy=2.3673716233363473
computed normalized entropy=0.7266118715972615
SPLASH=splash10-014i-9000000000-3459609df67fdefbdd29
submitter=submitter = University of Tokyo Team (Faculty of Engineering, University of Tokyo)
MoNA Rating=3.75

>  <NUM PEAKS>  (4455) 
26

>  <MASS SPECTRAL PEAKS>  (4455) 
15 4.3
26 2.72
27 10.35
28 13.97
29 17.97
37 1.58
38 3.43
39 23.69
40 4.52
41 34.86
42 4.14
43 2.67
44 2.12
45 5.56
55 1.09
68 4.52
69 99.99
70 4.68
71 1.74
77 1.03
86 5.07
87 1.36
94 3.05
99 18.95
100 1.03
114 1.09

$$$$

     RDKit          2D

  7  6  0  0  0  0  0  0  0  0999 V2000
   -0.9743    1.6875    0.0000 C   0  0  0  0  0  0  0  0  0  0  0  0
    0.3248    2.4375    0.0000 C   0  0  0  0  0  0  0  0  0  0  0  0
   -2.2733    2.4375    0.0000 C   0  0  0  0  0  0  0  0  0  0  0  0
    1.6238    1.6875    0.0000 O   0  0  0  0  0  0  0  0  0  0  0  0
    0.3248    3.9375    0.0000 O   0  0  0  0  0  0  0  0  0  0  0  0
   -2.2733    3.9375    0.0000 O   0  0  0  0  0  0  0  0  0  0  0  0
   -3.5724    1.6875    0.0000 O   0  0  0  0  0  0  0  0  0  0  0  0
  2  1  1  0
  3  1  1  0
  4  2  2  0
  5  2  1  0
  6  3  2  0
  7  3  1  0
M  END
>  <NAME>  (4456) 
MALONIC ACID

>  <SYNONYMS>  (4456) 
PROPANEDIOIC ACID

>  <SPECTRUM TYPE>  (4456) 
MS1

>  <INSTRUMENT TYPE>  (4456) 
EI-B

>  <INSTRUMENT>  (4456) 
HITACHI RMU-7M

>  <ION MODE>  (4456) 
P

>  <INCHIKEY>  (4456) 
OFOBLEOULBTSOW-UHFFFAOYSA-N

>  <FORMULA>  (4456) 
C3H4O4

>  <EXACT MASS>  (4456) 
104.010958608

>  <MW>  (4456) 
104

>  <ID>  (4456) 
JP005398

>  <CONTRIBUTOR>  (4456) 
University of Tokyo Team, {Faculty of Engineering, University of Tokyo

>  <COMMENT>  (4456) 
SMILES=OC(=O)CC(O)=O
InChI=InChI=1S/C3H4O4/c4-2(5)1-3(6)7/h1H2,(H,4,5)(H,6,7)
computed SMILES=O=C(O)CC(=O)O
accession=JP005398
date=2016.01.19 (Created 2008.10.21, modified 2011.05.06)
author=TAJIMA S, GUNMA COLLEGE OF TECHNOLOGY
license=CC BY-NC-SA
exact mass=104.01096
ionization energy=70 eV
ion type=[M]+*
computed spectral entropy=2.140694161383248
computed normalized entropy=0.7406293517555715
SPLASH=splash10-0006-9000000000-f239df8fdd12e9a74445
submitter=submitter = University of Tokyo Team (Faculty of Engineering, University of Tokyo)
MoNA Rating=3.75

>  <NUM PEAKS>  (4456) 
18

>  <MASS SPECTRAL PEAKS>  (4456) 
12 4.79
13 3.76
14 11.29
15 29.55
16 5.61
17 1.44
18 2.39
22 1.78
28 10.74
29 6.63
31 2.19
41 2.12
42 7.32
43 52.33
44 99.99
45 45.83
46 1.09
60 25.31

$$$$

     RDKit          2D

  9  8  0  0  0  0  0  0  0  0999 V2000
    1.9486    3.3750    0.0000 C   0  0  0  0  0  0  0  0  0  0  0  0
   -3.2476    3.3750    0.0000 C   0  0  0  0  0  0  0  0  0  0  0  0
   -1.9486    4.1250    0.0000 C   0  0  0  0  0  0  0  0  0  0  0  0
   -4.5466    4.1250    0.0000 C   0  0  0  0  0  0  0  0  0  0  0  0
   -0.6495    3.3750    0.0000 C   0  0  0  0  0  0  0  0  0  0  0  0
   -5.8457    3.3750    0.0000 Cl  0  0  0  0  0  0  0  0  0  0  0  0
   -4.5466    5.6250    0.0000 O   0  0  0  0  0  0  0  0  0  0  0  0
   -0.6495    1.8750    0.0000 O   0  0  0  0  0  0  0  0  0  0  0  0
    0.6495    4.1250    0.0000 O   0  0  0  0  0  0  0  0  0  0  0  0
  3  2  1  0
  4  2  1  0
  5  3  1  0
  6  4  1  0
  7  4  2  0
  8  5  2  0
  9  1  1  0
  9  5  1  0
M  END
>  <NAME>  (4457) 
3-CARBOMETHOXYPROPIONYL CHLORIDE

>  <SYNONYMS>  (4457) 


>  <SPECTRUM TYPE>  (4457) 
MS1

>  <INSTRUMENT TYPE>  (4457) 
EI-B

>  <INSTRUMENT>  (4457) 
HITACHI RMU-7M

>  <ION MODE>  (4457) 
P

>  <INCHIKEY>  (4457) 
SRXOJMOGPYFZKC-UHFFFAOYSA-N

>  <FORMULA>  (4457) 
C5H7ClO3

>  <EXACT MASS>  (4457) 
150.008371764

>  <MW>  (4457) 
150

>  <ID>  (4457) 
JP005397

>  <CONTRIBUTOR>  (4457) 
University of Tokyo Team, {Faculty of Engineering, University of Tokyo

>  <COMMENT>  (4457) 
computed SMILES=O=C(Cl)CCC(=O)OC
SMILES=COC(=O)CCC(=O)Cl
InChI=InChI=1S/C5H7ClO3/c1-9-5(8)3-2-4(6)7/h2-3H2,1H3
accession=JP005397
date=2016.01.19 (Created 2008.10.21, modified 2011.05.06)
author=TAJIMA S, GUNMA COLLEGE OF TECHNOLOGY
license=CC BY-NC-SA
exact mass=150.00837
ionization energy=70 eV
ion type=[M]+*
computed spectral entropy=2.83839173129966
computed normalized entropy=0.8345272010977929
SPLASH=splash10-05r0-9300000000-d56c2a3cb57e57daf5d1
submitter=submitter = University of Tokyo Team (Faculty of Engineering, University of Tokyo)
MoNA Rating=3.75

>  <NUM PEAKS>  (4457) 
30

>  <MASS SPECTRAL PEAKS>  (4457) 
14 6.58
15 25.64
25 3.12
26 20.65
27 38.67
28 41.23
29 26.33
30 4.3
31 7.62
35 4.85
36 5.2
37 2.91
38 2.49
41 3.81
42 11.09
43 4.02
45 6.38
50 3.27
55 68.95
56 18.16
59 31.12
63 8.52
65 3.19
87 11.3
101 4.3
114 16.08
115 99.99
116 5.68
119 13.79
121 4.23

$$$$

     RDKit          2D

  6  5  0  0  0  0  0  0  0  0999 V2000
   -4.5466    3.3750    0.0000 C   0  0  0  0  0  0  0  0  0  0  0  0
   -3.2476    2.6250    0.0000 C   0  0  0  0  0  0  0  0  0  0  0  0
    0.6495    3.3750    0.0000 C   0  0  0  0  0  0  0  0  0  0  0  0
   -0.6495    2.6250    0.0000 C   0  0  0  0  0  0  0  0  0  0  0  0
    1.9486    2.6250    0.0000 O   0  0  0  0  0  0  0  0  0  0  0  0
   -1.9486    3.3750    0.0000 O   0  0  0  0  0  0  0  0  0  0  0  0
  2  1  1  0
  4  3  1  0
  5  3  1  0
  6  2  1  0
  6  4  1  0
M  END
>  <NAME>  (4458) 
2-ETHOXYETHANOL

>  <SYNONYMS>  (4458) 


>  <SPECTRUM TYPE>  (4458) 
MS1

>  <INSTRUMENT TYPE>  (4458) 
EI-B

>  <INSTRUMENT>  (4458) 
HITACHI RMU-7M

>  <ION MODE>  (4458) 
P

>  <INCHIKEY>  (4458) 
ZNQVEEAIQZEUHB-UHFFFAOYSA-N

>  <FORMULA>  (4458) 
C4H10O2

>  <EXACT MASS>  (4458) 
90.06807956

>  <MW>  (4458) 
90

>  <ID>  (4458) 
JP005396

>  <CONTRIBUTOR>  (4458) 
University of Tokyo Team, {Faculty of Engineering, University of Tokyo

>  <COMMENT>  (4458) 
SMILES=CCOCCO
InChI=InChI=1S/C4H10O2/c1-2-6-4-3-5/h5H,2-4H2,1H3
computed SMILES=OCCOCC
license=CC BY-NC-SA
accession=JP005396
date=2016.01.19 (Created 2008.10.21, modified 2011.05.06)
author=TAJIMA S, GUNMA COLLEGE OF TECHNOLOGY
exact mass=90.06808
ionization energy=70 eV
ion type=[M]+*
computed spectral entropy=2.177317148589704
computed normalized entropy=0.7151588444911637
SPLASH=splash10-053r-9000000000-5dc066ff709d1b4ac65f
submitter=submitter = University of Tokyo Team (Faculty of Engineering, University of Tokyo)
MoNA Rating=3.75

>  <NUM PEAKS>  (4458) 
21

>  <MASS SPECTRAL PEAKS>  (4458) 
15 5.05
19 2.83
27 15.04
28 5.35
29 34.81
30 1.82
31 99.99
32 2.72
41 7.37
42 1.82
43 14.03
44 4.54
45 24.12
46 1.11
55 1.21
57 2.83
59 63.98
60 2.42
61 2.02
71 1.41
72 13.12

$$$$

     RDKit          2D

 12 12  0  0  0  0  0  0  0  0999 V2000
   -5.5207    3.1321    0.0000 C   0  0  0  0  0  0  0  0  0  0  0  0
    3.5726    0.8821    0.0000 C   0  0  0  0  0  0  0  0  0  0  0  0
    3.5731    2.3829    0.0000 C   0  0  0  0  0  0  0  0  0  0  0  0
    2.2731    0.1313    0.0000 C   0  0  0  0  0  0  0  0  0  0  0  0
    2.2740    3.1329    0.0000 C   0  0  0  0  0  0  0  0  0  0  0  0
    0.9740    0.8813    0.0000 C   0  0  0  0  0  0  0  0  0  0  0  0
   -0.3245    3.1321    0.0000 C   0  0  0  0  0  0  0  0  0  0  0  0
   -1.6236    2.3821    0.0000 C   0  0  0  0  0  0  0  0  0  0  0  0
    0.9745    2.3821    0.0000 C   0  0  0  0  0  0  0  0  0  0  0  0
   -2.9226    3.1321    0.0000 C   0  0  0  0  0  0  0  0  0  0  0  0
   -2.9226    4.6321    0.0000 O   0  0  0  0  0  0  0  0  0  0  0  0
   -4.2216    2.3821    0.0000 O   0  0  0  0  0  0  0  0  0  0  0  0
  3  2  2  0
  4  2  1  0
  5  3  1  0
  6  4  2  0
  7  8  2  0
  9  5  2  0
  9  6  1  0
  9  7  1  0
 10  8  1  0
 11 10  2  0
 12  1  1  0
 12 10  1  0
M  END
>  <NAME>  (4459) 
METHYL CINNAMATE

>  <SYNONYMS>  (4459) 
3-PHENYL-2-PROPENOIC ACID METHYL ESTER

>  <SPECTRUM TYPE>  (4459) 
MS1

>  <INSTRUMENT TYPE>  (4459) 
EI-B

>  <INSTRUMENT>  (4459) 
SHIMADZU QP-1000

>  <ION MODE>  (4459) 
P

>  <INCHIKEY>  (4459) 
CCRCUPLGCSFEDV-BQYQJAHWSA-N

>  <FORMULA>  (4459) 
C10H10O2

>  <EXACT MASS>  (4459) 
162.06807956

>  <MW>  (4459) 
162

>  <ID>  (4459) 
JP005394

>  <CONTRIBUTOR>  (4459) 
University of Tokyo Team, {Faculty of Engineering, University of Tokyo

>  <COMMENT>  (4459) 
SMILES=COC(=O)C=Cc(c1)cccc1
InChI=InChI=1S/C10H10O2/c1-12-10(11)8-7-9-5-3-2-4-6-9/h2-8H,1H3/b8-7+
computed SMILES=O=C(OC)C=CC=1C=CC=CC1
accession=JP005394
date=2016.01.19 (Created 2008.10.21, modified 2011.05.06)
author=YAMAOKA R, KYOTO INSTITUTE OF TECHNOLOGY
license=CC BY-NC-SA
exact mass=162.06808
ionization energy=70 eV
ion type=[M]+*
computed spectral entropy=2.3913442710319726
computed normalized entropy=0.6726048279026121
SPLASH=splash10-0gx0-1900000000-c3cda6f91e8c845eb5d7
submitter=submitter = University of Tokyo Team (Faculty of Engineering, University of Tokyo)
MoNA Rating=3.75

>  <NUM PEAKS>  (4459) 
35

>  <MASS SPECTRAL PEAKS>  (4459) 
40 1.5
41 4.4
51 7.8
52 2.18
53 3.1
54 1.3
59 1.1
63 0.14
64 3.6
65 1.2
74 2.6
75 0.29
76 4.3
77 24.7
78 3
91 0.25
102 11.7
103 48.8
104 6.6
105 0.11
115 1.1
116 1.3
117 3.6
118 0.11
121 1.7
131 99.99
132 10.4
133 0.12
134 1.2
144 2.1
147 1.5
160 0.38
161 28.1
162 66.8
163 9.5

$$$$

     RDKit          2D

 10 10  0  0  0  0  0  0  0  0999 V2000
    2.9231    0.5071    0.0000 C   0  0  0  0  0  0  0  0  0  0  0  0
    2.9236    2.0079    0.0000 C   0  0  0  0  0  0  0  0  0  0  0  0
    1.6236   -0.2437    0.0000 C   0  0  0  0  0  0  0  0  0  0  0  0
   -2.2731    2.0071    0.0000 C   0  0  0  0  0  0  0  0  0  0  0  0
    1.6245    2.7579    0.0000 C   0  0  0  0  0  0  0  0  0  0  0  0
    0.3245    0.5063    0.0000 C   0  0  0  0  0  0  0  0  0  0  0  0
   -0.9740    2.7571    0.0000 C   0  0  0  0  0  0  0  0  0  0  0  0
   -3.5721    2.7571    0.0000 C   0  0  0  0  0  0  0  0  0  0  0  0
    0.3250    2.0071    0.0000 C   0  0  0  0  0  0  0  0  0  0  0  0
   -4.8712    2.0071    0.0000 O   0  0  0  0  0  0  0  0  0  0  0  0
  2  1  2  0
  3  1  1  0
  5  2  1  0
  6  3  2  0
  4  7  2  0
  8  4  1  0
  9  5  2  0
  9  6  1  0
  9  7  1  0
 10  8  2  0
M  END
>  <NAME>  (4460) 
CINNAMIC ALDEHYDE

>  <SYNONYMS>  (4460) 
3-PHENYL-2-PROPENAL

>  <SPECTRUM TYPE>  (4460) 
MS1

>  <INSTRUMENT TYPE>  (4460) 
EI-B

>  <INSTRUMENT>  (4460) 
SHIMADZU QP-1000

>  <ION MODE>  (4460) 
P

>  <INCHIKEY>  (4460) 
KJPRLNWUNMBNBZ-QPJJXVBHSA-N

>  <FORMULA>  (4460) 
C9H8O

>  <EXACT MASS>  (4460) 
132.057514876

>  <MW>  (4460) 
132

>  <ID>  (4460) 
JP005392

>  <CONTRIBUTOR>  (4460) 
University of Tokyo Team, {Faculty of Engineering, University of Tokyo

>  <COMMENT>  (4460) 
SMILES=O=CC=Cc(c1)cccc1
InChI=InChI=1S/C9H8O/c10-8-4-7-9-5-2-1-3-6-9/h1-8H/b7-4+
computed SMILES=O=CC=CC=1C=CC=CC1
accession=JP005392
date=2016.01.19 (Created 2008.10.21, modified 2011.05.06)
author=YAMAOKA R, KYOTO INSTITUTE OF TECHNOLOGY
license=CC BY-NC-SA
exact mass=132.05751
ionization energy=70 eV
ion type=[M]+*
computed spectral entropy=2.203994544631406
computed normalized entropy=0.6764669244484106
SPLASH=splash10-001i-3900000000-9d274f5e3981ab662650
submitter=submitter = University of Tokyo Team (Faculty of Engineering, University of Tokyo)
MoNA Rating=3.75

>  <NUM PEAKS>  (4460) 
26

>  <MASS SPECTRAL PEAKS>  (4460) 
40 2.6
41 7.4
51 11.2
52 2.71
53 6.3
54 1.5
55 1.3
61 0.1
63 2.4
64 5.3
65 1.1
74 0.38
75 3.4
76 4.2
77 25.6
78 2.01
79 1.3
91 1.3
102 7.4
103 3.86
104 19.5
105 2.7
115 1
131 99.99
132 63.5
133 7.4

$$$$

     RDKit          2D

 10 10  0  0  0  0  0  0  0  0999 V2000
    2.9231    0.5071    0.0000 C   0  0  0  0  0  0  0  0  0  0  0  0
    2.9236    2.0079    0.0000 C   0  0  0  0  0  0  0  0  0  0  0  0
    1.6236   -0.2437    0.0000 C   0  0  0  0  0  0  0  0  0  0  0  0
   -2.2731    2.0071    0.0000 C   0  0  0  0  0  0  0  0  0  0  0  0
    1.6245    2.7579    0.0000 C   0  0  0  0  0  0  0  0  0  0  0  0
    0.3245    0.5063    0.0000 C   0  0  0  0  0  0  0  0  0  0  0  0
   -0.9740    2.7571    0.0000 C   0  0  0  0  0  0  0  0  0  0  0  0
   -3.5721    2.7571    0.0000 C   0  0  0  0  0  0  0  0  0  0  0  0
    0.3250    2.0071    0.0000 C   0  0  0  0  0  0  0  0  0  0  0  0
   -4.8712    2.0071    0.0000 O   0  0  0  0  0  0  0  0  0  0  0  0
  2  1  2  0
  3  1  1  0
  5  2  1  0
  6  3  2  0
  4  7  2  0
  8  4  1  0
  9  5  2  0
  9  6  1  0
  9  7  1  0
 10  8  1  0
M  END
>  <NAME>  (4461) 
CINNAMYL ALCOHOL

>  <SYNONYMS>  (4461) 
3-PHENYL-2-PROPEN-1-OL

>  <SPECTRUM TYPE>  (4461) 
MS1

>  <INSTRUMENT TYPE>  (4461) 
EI-B

>  <INSTRUMENT>  (4461) 
SHIMADZU QP-1000

>  <ION MODE>  (4461) 
P

>  <INCHIKEY>  (4461) 
OOCCDEMITAIZTP-QPJJXVBHSA-N

>  <FORMULA>  (4461) 
C9H10O

>  <EXACT MASS>  (4461) 
134.07316494

>  <MW>  (4461) 
134

>  <ID>  (4461) 
JP005390

>  <CONTRIBUTOR>  (4461) 
University of Tokyo Team, {Faculty of Engineering, University of Tokyo

>  <COMMENT>  (4461) 
SMILES=OCC=Cc(c1)cccc1
InChI=InChI=1S/C9H10O/c10-8-4-7-9-5-2-1-3-6-9/h1-7,10H,8H2/b7-4+
computed SMILES=OCC=CC=1C=CC=CC1
accession=JP005390
date=2016.01.19 (Created 2008.10.21, modified 2011.05.06)
author=YAMAOKA R, KYOTO INSTITUTE OF TECHNOLOGY
license=CC BY-NC-SA
exact mass=134.07316
ionization energy=70 eV
ion type=[M]+*
computed spectral entropy=3.226209794338071
computed normalized entropy=0.8050765048005146
SPLASH=splash10-05qc-9700000000-718fd9691cbd38d42c60
submitter=submitter = University of Tokyo Team (Faculty of Engineering, University of Tokyo)
MoNA Rating=3.75

>  <NUM PEAKS>  (4461) 
55

>  <MASS SPECTRAL PEAKS>  (4461) 
40 5.9
41 30.3
42 2.9
43 0.4
44 9.7
45 4
46 14.8
50 0.11
51 18.2
52 41.7
53 9.7
54 0.52
55 27.3
56 5.8
57 6.3
58 0.28
59 2.2
61 2.1
63 6.5
64 1.75
65 12.5
66 3.5
73 3.1
74 0.6
75 5.5
76 6.2
77 45.3
78 5.41
79 27.9
80 1.9
86 2
87 0.33
88 1.3
89 10.9
91 68.2
92 8.92
93 7.1
101 1.8
102 10.1
103 3
104 6.5
105 57.3
106 7.5
107 0.35
115 65.7
116 22.8
117 13.2
118 0.26
119 1.9
131 6.4
132 5
133 2.95
134 99.99
135 10.4
147 1

$$$$

     RDKit          2D

 17 16  0  0  0  0  0  0  0  0999 V2000
    5.5209    7.6875    0.0000 C   0  0  0  0  0  0  0  0  0  0  0  0
   -6.1704    8.4375    0.0000 C   0  0  0  0  0  0  0  0  0  0  0  0
   -4.8714    7.6875    0.0000 C   0  0  0  0  0  0  0  0  0  0  0  0
   -7.4695    7.6875    0.0000 C   0  0  0  0  0  0  0  0  0  0  0  0
   -3.5724    8.4375    0.0000 C   0  0  0  0  0  0  0  0  0  0  0  0
   -8.7685    8.4375    0.0000 C   0  0  0  0  0  0  0  0  0  0  0  0
   -2.2733    7.6875    0.0000 C   0  0  0  0  0  0  0  0  0  0  0  0
  -10.0675    7.6875    0.0000 C   0  0  0  0  0  0  0  0  0  0  0  0
   -0.9743    8.4375    0.0000 C   0  0  0  0  0  0  0  0  0  0  0  0
  -11.3666    8.4375    0.0000 C   0  0  0  0  0  0  0  0  0  0  0  0
    0.3248    7.6875    0.0000 C   0  0  0  0  0  0  0  0  0  0  0  0
  -12.6656    7.6875    0.0000 C   0  0  0  0  0  0  0  0  0  0  0  0
    1.6238    8.4375    0.0000 C   0  0  0  0  0  0  0  0  0  0  0  0
    4.2219    8.4375    0.0000 C   0  0  0  0  0  0  0  0  0  0  0  0
  -13.9647    8.4375    0.0000 F   0  0  0  0  0  0  0  0  0  0  0  0
    4.2219    9.9375    0.0000 O   0  0  0  0  0  0  0  0  0  0  0  0
    2.9228    7.6875    0.0000 O   0  0  0  0  0  0  0  0  0  0  0  0
  3  2  1  0
  4  2  1  0
  5  3  1  0
  6  4  1  0
  7  5  1  0
  8  6  1  0
  9  7  1  0
 10  8  1  0
 11  9  1  0
 12 10  1  0
 13 11  1  0
 14  1  1  0
 15 12  1  0
 16 14  2  0
 17 13  1  0
 17 14  1  0
M  END
>  <NAME>  (4462) 
12-FLUORODODECYL ACETATE

>  <SYNONYMS>  (4462) 


>  <SPECTRUM TYPE>  (4462) 
MS1

>  <INSTRUMENT TYPE>  (4462) 
EI-B

>  <INSTRUMENT>  (4462) 
SHIMADZU QP-1000

>  <ION MODE>  (4462) 
P

>  <INCHIKEY>  (4462) 
GJRKOAXTXXIFAH-UHFFFAOYSA-N

>  <FORMULA>  (4462) 
C14H27FO2

>  <EXACT MASS>  (4462) 
246.199508324

>  <MW>  (4462) 
246

>  <ID>  (4462) 
JP005388

>  <CONTRIBUTOR>  (4462) 
University of Tokyo Team, {Faculty of Engineering, University of Tokyo

>  <COMMENT>  (4462) 
SMILES=FCCCCCCCCCCCCOC(C)=O
InChI=InChI=1S/C14H27FO2/c1-14(16)17-13-11-9-7-5-3-2-4-6-8-10-12-15/h2-13H2,1H3
computed SMILES=O=C(OCCCCCCCCCCCCF)C
accession=JP005388
date=2016.01.19 (Created 2008.10.21, modified 2011.05.06)
author=YAMAOKA R, KYOTO INSTITUTE OF TECHNOLOGY
license=CC BY-NC-SA
exact mass=246.19951
ionization energy=70 eV
ion type=[M]+*
computed spectral entropy=3.0285167993783855
computed normalized entropy=0.7458587133256758
SPLASH=splash10-0006-9100000000-1dd284ae5b91de42040d
submitter=submitter = University of Tokyo Team (Faculty of Engineering, University of Tokyo)
MoNA Rating=3.75

>  <NUM PEAKS>  (4462) 
58

>  <MASS SPECTRAL PEAKS>  (4462) 
41 8.5
42 1.9
43 43.6
44 99.99
45 6.3
46 18.1
48 4.3
54 0.66
55 36.5
56 13.2
57 10.3
58 0.35
59 4.2
61 15.8
67 7.6
68 0.75
69 16.6
70 9.1
71 3.3
72 0.11
73 5.4
74 1.8
75 1.3
81 0.49
82 5.8
83 9.5
84 3.6
85 0.12
86 1.1
87 2.9
88 3.3
89 0.31
95 3.2
96 2.8
97 6.9
98 0.31
101 2.4
102 3.2
103 1.9
109 0.29
110 1.4
111 3.3
112 1.2
114 0.1
115 1.7
116 5.8
117 1.2
123 0.22
125 1.4
129 2.3
130 2.9
133 0.14
137 1.1
143 1.2
144 1.4
157 0.14
158 5.6
186 2.4

$$$$

     RDKit          2D

 13 12  0  0  0  0  0  0  0  0999 V2000
    0.6495    5.6250    0.0000 C   0  0  0  0  0  0  0  0  0  0  0  0
   -0.6495    6.3750    0.0000 C   0  0  0  0  0  0  0  0  0  0  0  0
   -1.9486    5.6250    0.0000 C   0  0  0  0  0  0  0  0  0  0  0  0
   -3.2476    6.3750    0.0000 C   0  0  0  0  0  0  0  0  0  0  0  0
   -4.5466    5.6250    0.0000 C   0  0  0  0  0  0  0  0  0  0  0  0
   -5.8457    6.3750    0.0000 C   0  0  0  0  0  0  0  0  0  0  0  0
   -7.1447    5.6250    0.0000 C   0  0  0  0  0  0  0  0  0  0  0  0
   -7.1447    4.1250    0.0000 C   0  0  0  0  0  0  0  0  0  0  0  0
   -8.4437    3.3750    0.0000 C   0  0  0  0  0  0  0  0  0  0  0  0
   -8.4437    1.8750    0.0000 C   0  0  0  0  0  0  0  0  0  0  0  0
   -7.1447    1.1250    0.0000 C   0  0  0  0  0  0  0  0  0  0  0  0
   -7.1447   -0.3750    0.0000 C   0  0  0  0  0  0  0  0  0  0  0  0
   -5.8457   -1.1250    0.0000 O   0  0  0  0  0  0  0  0  0  0  0  0
  2  1  1  0
  3  2  1  0
  4  3  1  0
  5  4  1  0
  6  5  1  0
  6  7  2  0
  8  7  1  0
  9  8  1  0
  9 10  2  0
 11 10  1  0
 12 11  1  0
 13 12  1  0
M  END
>  <NAME>  (4463) 
(Z,Z)-3,6-DODECADIEN-1-OL

>  <SYNONYMS>  (4463) 


>  <SPECTRUM TYPE>  (4463) 
MS1

>  <INSTRUMENT TYPE>  (4463) 
EI-B

>  <INSTRUMENT>  (4463) 
SHIMADZU QP-1000

>  <ION MODE>  (4463) 
P

>  <INCHIKEY>  (4463) 
WVTVMLXNKUWGBH-HZJYTTRNSA-N

>  <FORMULA>  (4463) 
C12H22O

>  <EXACT MASS>  (4463) 
182.167065324

>  <MW>  (4463) 
182

>  <ID>  (4463) 
JP005386

>  <CONTRIBUTOR>  (4463) 
University of Tokyo Team, {Faculty of Engineering, University of Tokyo

>  <COMMENT>  (4463) 
SMILES=CCCCCC([H])=C([H])CC([H])=C([H])CCO
InChI=InChI=1S/C12H22O/c1-2-3-4-5-6-7-8-9-10-11-12-13/h6-7,9-10,13H,2-5,8,11-12H2,1H3/b7-6-,10-9-
computed SMILES=OCCC=CCC=CCCCCC
accession=JP005386
date=2016.01.19 (Created 2008.10.21, modified 2011.05.06)
author=YAMAOKA R, KYOTO INSTITUTE OF TECHNOLOGY
license=CC BY-NC-SA
exact mass=182.16707
ionization energy=70 eV
ion type=[M]+*
computed spectral entropy=3.6010679586482874
computed normalized entropy=0.7926115586206924
SPLASH=splash10-00kf-9100000000-5d764fe917ce70412659
submitter=submitter = University of Tokyo Team (Faculty of Engineering, University of Tokyo)
MoNA Rating=3.75

>  <NUM PEAKS>  (4463) 
94

>  <MASS SPECTRAL PEAKS>  (4463) 
40 1.1
41 35.6
42 6
43 99.99
44 51.6
45 18.9
46 90.8
47 0.23
51 1.2
52 4.7
53 3
54 3.23
55 87
56 11.6
57 18.1
58 0.97
59 15.1
64 1
65 11.2
66 1.06
67 97.5
68 35.6
69 23.1
70 1.74
71 8.4
72 5.4
73 10.9
74 0.11
75 2
77 22.8
78 6.2
79 9.73
80 31.8
81 45.4
82 17.2
83 1.4
84 8.9
85 1.8
86 3.7
87 1.26
88 4.4
89 21.6
90 3.1
91 2.51
92 5.9
93 42.6
94 16.8
95 2.18
96 16.3
97 15.4
98 12.8
99 0.19
100 1.7
101 4
102 3.2
103 0.95
104 1.1
105 6.7
106 2.5
107 1.99
108 6
109 10.8
110 5.3
111 0.7
112 6.3
113 1.1
114 1.9
115 0.18
116 1.1
117 4
119 1.8
120 0.17
121 14.6
122 3.9
123 2.6
125 0.2
126 1.1
131 4
132 1.6
133 1.19
134 1.2
135 7.6
136 2.2
137 0.1
138 6
139 1.9
147 3.2
149 0.16
151 1.3
163 1
164 3.9
175 0.19
177 2.5
182 1.2

$$$$

     RDKit          2D

 17 16  0  0  0  0  0  0  0  0999 V2000
    4.2219   14.4375    0.0000 C   0  0  0  0  0  0  0  0  0  0  0  0
   -3.5724    8.4375    0.0000 C   0  0  0  0  0  0  0  0  0  0  0  0
   -2.2733    7.6875    0.0000 C   0  0  0  0  0  0  0  0  0  0  0  0
   -4.8714    7.6875    0.0000 C   0  0  0  0  0  0  0  0  0  0  0  0
   -0.9743    8.4375    0.0000 C   0  0  0  0  0  0  0  0  0  0  0  0
   -6.1704    8.4375    0.0000 C   0  0  0  0  0  0  0  0  0  0  0  0
    0.3248    7.6875    0.0000 C   0  0  0  0  0  0  0  0  0  0  0  0
   -7.4695    7.6875    0.0000 C   0  0  0  0  0  0  0  0  0  0  0  0
    1.6238    8.4375    0.0000 C   0  0  0  0  0  0  0  0  0  0  0  0
   -8.7685    8.4375    0.0000 C   0  0  0  0  0  0  0  0  0  0  0  0
    1.6238    9.9375    0.0000 C   0  0  0  0  0  0  0  0  0  0  0  0
  -10.0675    7.6875    0.0000 C   0  0  0  0  0  0  0  0  0  0  0  0
    2.9228   10.6875    0.0000 C   0  0  0  0  0  0  0  0  0  0  0  0
    4.2219   12.9375    0.0000 C   0  0  0  0  0  0  0  0  0  0  0  0
  -11.3666    8.4375    0.0000 F   0  0  0  0  0  0  0  0  0  0  0  0
    5.5209   12.1875    0.0000 O   0  0  0  0  0  0  0  0  0  0  0  0
    2.9228   12.1875    0.0000 O   0  0  0  0  0  0  0  0  0  0  0  0
  3  2  1  0
  4  2  1  0
  5  3  1  0
  6  4  1  0
  7  5  1  0
  8  6  1  0
  7  9  2  0
 10  8  1  0
 11  9  1  0
 12 10  1  0
 13 11  1  0
 14  1  1  0
 15 12  1  0
 16 14  2  0
 17 13  1  0
 17 14  1  0
M  END
>  <NAME>  (4464) 
12-FLUORO-(Z)-3-DODECENYL ACETATE

>  <SYNONYMS>  (4464) 


>  <SPECTRUM TYPE>  (4464) 
MS1

>  <INSTRUMENT TYPE>  (4464) 
EI-B

>  <INSTRUMENT>  (4464) 
SHIMADZU QP-1000

>  <ION MODE>  (4464) 
P

>  <INCHIKEY>  (4464) 
JYVIOFGAFDOEFQ-CLFYSBASSA-N

>  <FORMULA>  (4464) 
C14H25FO2

>  <EXACT MASS>  (4464) 
244.18385826

>  <MW>  (4464) 
244

>  <ID>  (4464) 
JP005382

>  <CONTRIBUTOR>  (4464) 
University of Tokyo Team, {Faculty of Engineering, University of Tokyo

>  <COMMENT>  (4464) 
SMILES=FCCCCCCCCC([H])=C([H])CCOC(C)=O
InChI=InChI=1S/C14H25FO2/c1-14(16)17-13-11-9-7-5-3-2-4-6-8-10-12-15/h7,9H,2-6,8,10-13H2,1H3/b9-7-
computed SMILES=O=C(OCCC=CCCCCCCCCF)C
accession=JP005382
date=2016.01.19 (Created 2008.10.21, modified 2011.05.06)
author=YAMAOKA R, KYOTO INSTITUTE OF TECHNOLOGY
license=CC BY-NC-SA
exact mass=244.18386
ionization energy=70 eV
ion type=[M]+*
computed spectral entropy=3.4176471956906935
computed normalized entropy=0.7672610527170235
SPLASH=splash10-066r-9000000000-dd455da3f74de86dec98
submitter=submitter = University of Tokyo Team (Faculty of Engineering, University of Tokyo)
MoNA Rating=3.75

>  <NUM PEAKS>  (4464) 
86

>  <MASS SPECTRAL PEAKS>  (4464) 
41 25.1
42 4.4
43 88.5
44 5.24
45 22.2
46 83.6
47 2.8
48 0.93
52 1.8
53 1.1
54 52.9
55 99.99
56 18
57 26.7
58 9.5
59 1.79
60 1.6
61 4.9
65 3.1
66 0.58
67 68
68 82.7
69 33.6
70 0.94
71 9.8
72 6.1
73 13.4
74 0.25
75 3.3
77 2.5
79 9.5
80 0.32
81 52.6
82 34.2
83 13.7
84 0.28
85 3.2
86 3.6
87 14.7
88 0.75
89 23.2
90 1.2
93 2.1
94 0.38
95 24.1
96 12.8
97 5.2
98 0.12
99 2.3
100 2.3
101 6
102 0.45
103 9.3
107 1.4
108 1.7
109 1.11
110 3.5
111 1.2
113 2.3
114 0.51
115 3.1
116 2.1
117 3.6
119 0.13
121 1.6
123 3.9
127 2.6
128 0.58
129 1.8
130 1.5
131 4.1
132 0.18
133 12.1
134 1.3
141 2.7
142 0.52
145 1.1
147 2.9
155 2.8
156 0.53
163 1.2
175 1.9
177 2.5
183 0.17
184 11.2
185 1.4

$$$$

     RDKit          2D

 13 12  0  0  0  0  0  0  0  0999 V2000
    4.5466    5.6250    0.0000 C   0  0  0  0  0  0  0  0  0  0  0  0
    3.2476    6.3750    0.0000 C   0  0  0  0  0  0  0  0  0  0  0  0
    1.9486    5.6250    0.0000 C   0  0  0  0  0  0  0  0  0  0  0  0
    0.6495    6.3750    0.0000 C   0  0  0  0  0  0  0  0  0  0  0  0
   -0.6495    5.6250    0.0000 C   0  0  0  0  0  0  0  0  0  0  0  0
   -1.9486    6.3750    0.0000 C   0  0  0  0  0  0  0  0  0  0  0  0
   -3.2476    5.6250    0.0000 C   0  0  0  0  0  0  0  0  0  0  0  0
   -4.5466    6.3750    0.0000 C   0  0  0  0  0  0  0  0  0  0  0  0
   -5.8457    5.6250    0.0000 C   0  0  0  0  0  0  0  0  0  0  0  0
   -7.1447    6.3750    0.0000 C   0  0  0  0  0  0  0  0  0  0  0  0
   -7.1447    7.8750    0.0000 C   0  0  0  0  0  0  0  0  0  0  0  0
   -8.4437    8.6250    0.0000 C   0  0  0  0  0  0  0  0  0  0  0  0
   -8.4437   10.1250    0.0000 O   0  0  0  0  0  0  0  0  0  0  0  0
  2  1  1  0
  3  2  1  0
  4  3  1  0
  5  4  1  0
  6  5  1  0
  7  6  1  0
  8  7  1  0
  9  8  1  0
  9 10  2  0
 11 10  1  0
 12 11  1  0
 13 12  1  0
M  END
>  <NAME>  (4465) 
(Z)-3-DODECEN-1-OL

>  <SYNONYMS>  (4465) 


>  <SPECTRUM TYPE>  (4465) 
MS1

>  <INSTRUMENT TYPE>  (4465) 
EI-B

>  <INSTRUMENT>  (4465) 
SHIMADZU QP-1000

>  <ION MODE>  (4465) 
P

>  <INCHIKEY>  (4465) 
BDGQTWOHKASHQU-KTKRTIGZSA-N

>  <FORMULA>  (4465) 
C12H24O

>  <EXACT MASS>  (4465) 
184.182715388

>  <MW>  (4465) 
184

>  <ID>  (4465) 
JP005380

>  <CONTRIBUTOR>  (4465) 
University of Tokyo Team, {Faculty of Engineering, University of Tokyo

>  <COMMENT>  (4465) 
SMILES=CCCCCCCCC([H])=C([H])CCO
InChI=InChI=1S/C12H24O/c1-2-3-4-5-6-7-8-9-10-11-12-13/h9-10,13H,2-8,11-12H2,1H3/b10-9-
computed SMILES=OCCC=CCCCCCCCC
accession=JP005380
date=2016.01.19 (Created 2008.10.21, modified 2011.05.06)
author=YAMAOKA R, KYOTO INSTITUTE OF TECHNOLOGY
license=CC BY-NC-SA
exact mass=184.18272
ionization energy=70 eV
ion type=[M]+*
computed spectral entropy=3.1060128625564825
computed normalized entropy=0.7682348446251726
SPLASH=splash10-00kf-9000000000-69e659b42c5575782ccf
submitter=submitter = University of Tokyo Team (Faculty of Engineering, University of Tokyo)
MoNA Rating=3.75

>  <NUM PEAKS>  (4465) 
57

>  <MASS SPECTRAL PEAKS>  (4465) 
40 1.2
41 32.4
42 5.9
43 99.99
44 66.2
45 9
46 5.1
51 0.1
52 2.8
53 1.4
54 35
55 8.13
56 24.1
57 38.1
58 2.8
65 0.32
66 6
67 53.1
68 69.3
69 3.59
70 14.6
71 10.1
72 1.2
77 0.29
78 1.9
79 7.5
81 39.1
82 3.82
83 18.2
84 5.2
85 3.4
91 0.26
92 3
93 1.2
95 19.3
96 2.03
97 9.9
98 3
99 1.1
103 0.11
105 1.8
109 10.9
110 11.4
111 0.38
112 1.5
116 1.2
117 1.2
123 0.54
124 5.6
125 1
133 1.4
134 0.34
137 2.8
138 6
149 1.7
166 0.47
167 1.3

$$$$

     RDKit          2D

 14 13  0  0  0  0  0  0  0  0999 V2000
    3.8971    6.7500    0.0000 C   0  0  0  0  0  0  0  0  0  0  0  0
  -11.6913    6.7500    0.0000 C   0  0  0  0  0  0  0  0  0  0  0  0
    2.5981    7.5000    0.0000 C   0  0  0  0  0  0  0  0  0  0  0  0
    1.2990    6.7500    0.0000 C   0  0  0  0  0  0  0  0  0  0  0  0
    0.0000    7.5000    0.0000 C   0  0  0  0  0  0  0  0  0  0  0  0
   -1.2990    6.7500    0.0000 C   0  0  0  0  0  0  0  0  0  0  0  0
   -2.5981    7.5000    0.0000 C   0  0  0  0  0  0  0  0  0  0  0  0
   -3.8971    6.7500    0.0000 C   0  0  0  0  0  0  0  0  0  0  0  0
   -5.1962    7.5000    0.0000 C   0  0  0  0  0  0  0  0  0  0  0  0
   -6.4952    6.7500    0.0000 C   0  0  0  0  0  0  0  0  0  0  0  0
   -7.7942    7.5000    0.0000 C   0  0  0  0  0  0  0  0  0  0  0  0
   -9.0933    6.7500    0.0000 C   0  0  0  0  0  0  0  0  0  0  0  0
   -9.0933    5.2500    0.0000 O   0  0  0  0  0  0  0  0  0  0  0  0
  -10.3923    7.5000    0.0000 O   0  0  0  0  0  0  0  0  0  0  0  0
  3  1  2  0
  4  3  1  0
  5  4  1  0
  6  5  1  0
  7  6  1  0
  8  7  1  0
  9  8  1  0
 10  9  1  0
 11 10  1  0
 12 11  1  0
 13 12  2  0
 14  2  1  0
 14 12  1  0
M  END
>  <NAME>  (4466) 
10-UNDECENOIC ACID METHYL ESTER

>  <SYNONYMS>  (4466) 


>  <SPECTRUM TYPE>  (4466) 
MS1

>  <INSTRUMENT TYPE>  (4466) 
EI-B

>  <INSTRUMENT>  (4466) 
SHIMADZU QP-1000

>  <ION MODE>  (4466) 
P

>  <INCHIKEY>  (4466) 
KISVAASFGZJBCY-UHFFFAOYSA-N

>  <FORMULA>  (4466) 
C12H22O2

>  <EXACT MASS>  (4466) 
198.161979944

>  <MW>  (4466) 
198

>  <ID>  (4466) 
JP005378

>  <CONTRIBUTOR>  (4466) 
University of Tokyo Team, {Faculty of Engineering, University of Tokyo

>  <COMMENT>  (4466) 
SMILES=C=CCCCCCCCCC(=O)OC
InChI=InChI=1S/C12H22O2/c1-3-4-5-6-7-8-9-10-11-12(13)14-2/h3H,1,4-11H2,2H3
computed SMILES=O=C(OC)CCCCCCCCC=C
accession=JP005378
date=2016.01.19 (Created 2008.10.21, modified 2011.05.06)
author=YAMAOKA R, KYOTO INSTITUTE OF TECHNOLOGY
license=CC BY-NC-SA
exact mass=198.16198
ionization energy=70 eV
ion type=[M]+*
computed spectral entropy=3.417041656006126
computed normalized entropy=0.7914420529133412
SPLASH=splash10-0abc-9200000000-f1efe8e848066cb630a9
submitter=submitter = University of Tokyo Team (Faculty of Engineering, University of Tokyo)
MoNA Rating=3.75

>  <NUM PEAKS>  (4466) 
75

>  <MASS SPECTRAL PEAKS>  (4466) 
40 1
41 32.9
42 5.8
43 8.77
44 42.3
45 2.3
46 5.8
52 0.13
54 14.2
55 99.99
56 12
57 0.9
59 29.1
65 1.5
66 1.3
67 1.88
68 16.1
69 32.6
70 4.6
71 0.41
72 1.6
73 7.3
74 93.1
75 0.78
79 4.1
80 2.9
81 13.6
82 2.18
83 26.9
84 23.9
85 4.8
87 3.89
88 4.2
93 2.4
94 3.5
95 0.93
96 33.2
97 18.4
98 16
99 0.27
100 1.1
101 6
106 1.1
107 0.3
108 1.3
109 5.7
110 9.6
111 0.59
112 1.6
113 3.8
114 5.1
115 0.54
116 1.1
119 3.9
122 6.9
123 1.4
124 34.5
125 9
127 2.5
128 0.3
129 1.8
133 1.3
137 9.4
138 0.51
141 2.4
147 1.1
148 5.5
149 1.32
150 1.6
151 1.3
155 1.9
165 0.19
166 11.8
167 6.9
198 4.2

$$$$

     RDKit          2D

 17 16  0  0  0  0  0  0  0  0999 V2000
    5.1962    8.2500    0.0000 C   0  0  0  0  0  0  0  0  0  0  0  0
  -14.2894    9.0000    0.0000 C   0  0  0  0  0  0  0  0  0  0  0  0
    3.8971    9.0000    0.0000 C   0  0  0  0  0  0  0  0  0  0  0  0
  -12.9904    8.2500    0.0000 C   0  0  0  0  0  0  0  0  0  0  0  0
    2.5981    8.2500    0.0000 C   0  0  0  0  0  0  0  0  0  0  0  0
    1.2990    9.0000    0.0000 C   0  0  0  0  0  0  0  0  0  0  0  0
    0.0000    8.2500    0.0000 C   0  0  0  0  0  0  0  0  0  0  0  0
   -1.2990    9.0000    0.0000 C   0  0  0  0  0  0  0  0  0  0  0  0
   -2.5981    8.2500    0.0000 C   0  0  0  0  0  0  0  0  0  0  0  0
   -3.8971    9.0000    0.0000 C   0  0  0  0  0  0  0  0  0  0  0  0
   -5.1962    8.2500    0.0000 C   0  0  0  0  0  0  0  0  0  0  0  0
   -6.4952    9.0000    0.0000 C   0  0  0  0  0  0  0  0  0  0  0  0
   -7.7942    8.2500    0.0000 C   0  0  0  0  0  0  0  0  0  0  0  0
   -9.0933    9.0000    0.0000 C   0  0  0  0  0  0  0  0  0  0  0  0
  -11.6913    9.0000    0.0000 C   0  0  0  0  0  0  0  0  0  0  0  0
  -11.6913   10.5000    0.0000 O   0  0  0  0  0  0  0  0  0  0  0  0
  -10.3923    8.2500    0.0000 O   0  0  0  0  0  0  0  0  0  0  0  0
  3  1  1  0
  4  2  1  0
  3  5  2  0
  6  5  1  0
  6  7  2  0
  8  7  1  0
  9  8  1  0
 10  9  1  0
 11 10  1  0
 12 11  1  0
 13 12  1  0
 14 13  1  0
 15  4  1  0
 16 15  2  0
 17 14  1  0
 17 15  1  0
M  END
>  <NAME>  (4467) 
(E,E)-8,10-DODECADIENYL PROPIONATE

>  <SYNONYMS>  (4467) 


>  <SPECTRUM TYPE>  (4467) 
MS1

>  <INSTRUMENT TYPE>  (4467) 
EI-B

>  <INSTRUMENT>  (4467) 
SHIMADZU QP-1000

>  <ION MODE>  (4467) 
P

>  <INCHIKEY>  (4467) 
VBAWYVHXKMJINV-TWTPFVCWSA-N

>  <FORMULA>  (4467) 
C15H26O2

>  <EXACT MASS>  (4467) 
238.193280072

>  <MW>  (4467) 
238

>  <ID>  (4467) 
JP005376

>  <CONTRIBUTOR>  (4467) 
University of Tokyo Team, {Faculty of Engineering, University of Tokyo

>  <COMMENT>  (4467) 
SMILES=CCC(=O)OCCCCCCCC([H])=C([H])C([H])=C([H])C
InChI=InChI=1S/C15H26O2/c1-3-5-6-7-8-9-10-11-12-13-14-17-15(16)4-2/h3,5-7H,4,8-14H2,1-2H3/b5-3+,7-6+
computed SMILES=O=C(OCCCCCCCC=CC=CC)CC
accession=JP005376
date=2016.01.19 (Created 2008.10.21, modified 2011.05.06)
author=YAMAOKA R, KYOTO INSTITUTE OF TECHNOLOGY
license=CC BY-NC-SA
exact mass=238.19328
ionization energy=70 eV
ion type=[M]+*
computed spectral entropy=3.359624261938343
computed normalized entropy=0.820552401216324
SPLASH=splash10-053u-9200000000-57668ae97b483bb007fe
submitter=submitter = University of Tokyo Team (Faculty of Engineering, University of Tokyo)
MoNA Rating=3.75

>  <NUM PEAKS>  (4467) 
60

>  <MASS SPECTRAL PEAKS>  (4467) 
40 1.5
41 34.8
42 8.6
43 9.5
44 19
45 5
46 17.1
51 0.12
52 4.3
53 3.8
54 35.2
55 4.98
56 6.2
57 99.99
58 4.8
59 0.25
65 8.4
66 14
67 75.9
68 8
69 10.3
70 1
71 2.2
73 0.22
75 7.5
77 12.3
78 5.4
79 8.88
80 32.1
81 97.6
82 31.1
83 0.57
87 2.5
89 2.4
91 7.4
92 0.26
93 31.5
94 31.1
95 22.3
96 2.64
97 4.9
103 1.6
105 2.1
107 2.13
108 13.8
109 9.2
110 3.8
111 0.1
121 28.8
122 9.8
123 3.3
133 0.16
135 23.6
136 6.6
149 3.2
163 0.69
164 39.3
165 5.8
238 8
239 1.3

$$$$

     RDKit          2D

 19 18  0  0  0  0  0  0  0  0999 V2000
   -8.7685    4.3125    0.0000 C   0  0  0  0  0  0  0  0  0  0  0  0
    9.4180   11.8125    0.0000 C   0  0  0  0  0  0  0  0  0  0  0  0
   -7.4695    5.0625    0.0000 C   0  0  0  0  0  0  0  0  0  0  0  0
   -7.4695    6.5625    0.0000 C   0  0  0  0  0  0  0  0  0  0  0  0
   -6.1704    7.3125    0.0000 C   0  0  0  0  0  0  0  0  0  0  0  0
   -6.1704    8.8125    0.0000 C   0  0  0  0  0  0  0  0  0  0  0  0
   -4.8714    9.5625    0.0000 C   0  0  0  0  0  0  0  0  0  0  0  0
   -4.8714   11.0625    0.0000 C   0  0  0  0  0  0  0  0  0  0  0  0
   -3.5724   11.8125    0.0000 C   0  0  0  0  0  0  0  0  0  0  0  0
   -2.2733   11.0625    0.0000 C   0  0  0  0  0  0  0  0  0  0  0  0
   -0.9743   11.8125    0.0000 C   0  0  0  0  0  0  0  0  0  0  0  0
    0.3248   11.0625    0.0000 C   0  0  0  0  0  0  0  0  0  0  0  0
    1.6238   11.8125    0.0000 C   0  0  0  0  0  0  0  0  0  0  0  0
    2.9228   11.0625    0.0000 C   0  0  0  0  0  0  0  0  0  0  0  0
    4.2219   11.8125    0.0000 C   0  0  0  0  0  0  0  0  0  0  0  0
    5.5209   11.0625    0.0000 C   0  0  0  0  0  0  0  0  0  0  0  0
    6.8200   11.8125    0.0000 C   0  0  0  0  0  0  0  0  0  0  0  0
    6.8200   13.3125    0.0000 O   0  0  0  0  0  0  0  0  0  0  0  0
    8.1190   11.0625    0.0000 O   0  0  0  0  0  0  0  0  0  0  0  0
  3  1  1  0
  4  3  1  0
  5  4  1  0
  6  5  1  0
  7  6  1  0
  8  7  1  0
  8  9  2  0
 10  9  1  0
 11 10  1  0
 12 11  1  0
 13 12  1  0
 14 13  1  0
 15 14  1  0
 16 15  1  0
 17 16  1  0
 18 17  2  0
 19  2  1  0
 19 17  1  0
M  END
>  <NAME>  (4468) 
(Z)-9-HEXADECENOIC ACID METHYL ESTER

>  <SYNONYMS>  (4468) 
METHYL PALMITOOLEATE

>  <SPECTRUM TYPE>  (4468) 
MS1

>  <INSTRUMENT TYPE>  (4468) 
EI-B

>  <INSTRUMENT>  (4468) 
SHIMADZU QP-1000

>  <ION MODE>  (4468) 
P

>  <INCHIKEY>  (4468) 
IZFGRAGOVZCUFB-HJWRWDBZSA-N

>  <FORMULA>  (4468) 
C17H32O2

>  <EXACT MASS>  (4468) 
268.240230264

>  <MW>  (4468) 
268

>  <ID>  (4468) 
JP005374

>  <CONTRIBUTOR>  (4468) 
University of Tokyo Team, {Faculty of Engineering, University of Tokyo

>  <COMMENT>  (4468) 
SMILES=CCCCCCC([H])=C([H])CCCCCCCC(=O)OC
InChI=InChI=1S/C17H32O2/c1-3-4-5-6-7-8-9-10-11-12-13-14-15-16-17(18)19-2/h8-9H,3-7,10-16H2,1-2H3/b9-8-
computed SMILES=O=C(OC)CCCCCCCC=CCCCCCC
accession=JP005374
date=2016.01.19 (Created 2008.10.21, modified 2011.05.06)
author=YAMAOKA R, KYOTO INSTITUTE OF TECHNOLOGY
license=CC BY-NC-SA
exact mass=268.24023
ionization energy=70 eV
ion type=[M]+*
computed spectral entropy=3.796870015049669
computed normalized entropy=0.8077621263310149
SPLASH=splash10-052g-9200000000-e766f1f17f44a600f63e
submitter=submitter = University of Tokyo Team (Faculty of Engineering, University of Tokyo)
MoNA Rating=3.75

>  <NUM PEAKS>  (4468) 
110

>  <MASS SPECTRAL PEAKS>  (4468) 
40 1.1
41 23.9
42 5.1
43 99.99
44 66.5
45 4.1
46 8.5
52 0.12
54 22.9
55 97.8
56 21.8
57 1.76
58 1.7
59 21.1
65 2.6
66 0.21
67 27.3
68 18.2
69 51.1
70 1.22
71 6.6
72 1.3
73 5
74 4.6
75 5.9
77 1.9
79 6.5
80 0.35
81 20.4
82 14.8
83 30.9
84 2.7
85 5.3
87 26.9
88 2.7
89 0.11
91 1.9
93 3.2
94 3.7
95 1.49
96 30.3
97 29.8
98 25.5
99 0.35
100 1
101 6.2
105 1.5
107 0.3
108 3
109 11.1
110 19.1
111 1.72
112 6.7
113 3.6
114 4.3
115 0.63
119 3.7
120 1.4
121 4.4
123 1.51
124 10.5
125 9.5
126 2.1
127 0.39
128 4.5
129 4
133 3.9
134 0.31
135 4.5
136 2.6
137 10.1
138 1.01
139 6.2
140 1.9
141 8.5
142 0.15
143 3.3
147 3
148 2.6
149 0.26
150 1.5
151 6.6
152 16.7
153 0.51
155 2.3
161 1.8
163 1.2
165 0.42
166 3.8
167 1.5
171 1.2
175 0.13
179 2.5
180 1.4
185 1.2
192 0.54
193 5.4
194 16.1
195 3.5
207 0.28
208 1.8
218 2.7
219 1.7
225 0.11
235 2.4
236 25.2
237 15.8
238 0.25
268 4.7
269 2.4

$$$$

     RDKit          2D

 20 19  0  0  0  0  0  0  0  0999 V2000
    7.1447    7.8750    0.0000 C   0  0  0  0  0  0  0  0  0  0  0  0
  -13.6399   12.3750    0.0000 C   0  0  0  0  0  0  0  0  0  0  0  0
    5.8457    8.6250    0.0000 C   0  0  0  0  0  0  0  0  0  0  0  0
    4.5466    7.8750    0.0000 C   0  0  0  0  0  0  0  0  0  0  0  0
    3.2476    8.6250    0.0000 C   0  0  0  0  0  0  0  0  0  0  0  0
    1.9486    7.8750    0.0000 C   0  0  0  0  0  0  0  0  0  0  0  0
    0.6495    8.6250    0.0000 C   0  0  0  0  0  0  0  0  0  0  0  0
    0.6495   10.1250    0.0000 C   0  0  0  0  0  0  0  0  0  0  0  0
   -0.6495   10.8750    0.0000 C   0  0  0  0  0  0  0  0  0  0  0  0
   -0.6495   12.3750    0.0000 C   0  0  0  0  0  0  0  0  0  0  0  0
   -1.9486   13.1250    0.0000 C   0  0  0  0  0  0  0  0  0  0  0  0
   -3.2476   12.3750    0.0000 C   0  0  0  0  0  0  0  0  0  0  0  0
   -4.5466   13.1250    0.0000 C   0  0  0  0  0  0  0  0  0  0  0  0
   -5.8457   12.3750    0.0000 C   0  0  0  0  0  0  0  0  0  0  0  0
   -7.1447   13.1250    0.0000 C   0  0  0  0  0  0  0  0  0  0  0  0
   -8.4437   12.3750    0.0000 C   0  0  0  0  0  0  0  0  0  0  0  0
   -9.7428   13.1250    0.0000 C   0  0  0  0  0  0  0  0  0  0  0  0
  -12.3409   13.1250    0.0000 C   0  0  0  0  0  0  0  0  0  0  0  0
  -12.3409   14.6250    0.0000 O   0  0  0  0  0  0  0  0  0  0  0  0
  -11.0418   12.3750    0.0000 O   0  0  0  0  0  0  0  0  0  0  0  0
  3  1  1  0
  4  3  1  0
  5  4  1  0
  6  5  1  0
  6  7  2  0
  8  7  1  0
  9  8  1  0
 10  9  1  0
 10 11  2  0
 12 11  1  0
 13 12  1  0
 14 13  1  0
 15 14  1  0
 16 15  1  0
 17 16  1  0
 18  2  1  0
 19 18  2  0
 20 17  1  0
 20 18  1  0
M  END
>  <NAME>  (4469) 
(Z,Z)-7,11-HEXADECADIENYL ACETATE

>  <SYNONYMS>  (4469) 


>  <SPECTRUM TYPE>  (4469) 
MS1

>  <INSTRUMENT TYPE>  (4469) 
EI-B

>  <INSTRUMENT>  (4469) 
SHIMADZU QP-1000

>  <ION MODE>  (4469) 
P

>  <INCHIKEY>  (4469) 
BXJHOKLLMOYSRQ-QOXWLJPHSA-N

>  <FORMULA>  (4469) 
C18H32O2

>  <EXACT MASS>  (4469) 
280.240230264

>  <MW>  (4469) 
280

>  <ID>  (4469) 
JP005372

>  <CONTRIBUTOR>  (4469) 
University of Tokyo Team, {Faculty of Engineering, University of Tokyo

>  <COMMENT>  (4469) 
SMILES=CCCCC([H])=C([H])CCC([H])=C([H])CCCCCCOC(C)=O
InChI=InChI=1S/C18H32O2/c1-3-4-5-6-7-8-9-10-11-12-13-14-15-16-17-20-18(2)19/h6-7,10-11H,3-5,8-9,12-17H2,1-2H3/b7-6-,11-10-
computed SMILES=O=C(OCCCCCCC=CCCC=CCCCC)C
accession=JP005372
date=2016.01.19 (Created 2008.10.21, modified 2011.05.06)
author=YAMAOKA R, KYOTO INSTITUTE OF TECHNOLOGY
license=CC BY-NC-SA
exact mass=280.24023
ionization energy=70 eV
ion type=[M]+*
computed spectral entropy=3.4567895081798836
computed normalized entropy=0.7822842720510732
SPLASH=splash10-05nb-9100000000-c8f5884f5fd76e9cc769
submitter=submitter = University of Tokyo Team (Faculty of Engineering, University of Tokyo)
MoNA Rating=3.75

>  <NUM PEAKS>  (4469) 
83

>  <MASS SPECTRAL PEAKS>  (4469) 
41 9.4
42 2
43 44.5
44 9.27
45 16.7
46 77.6
47 1.9
54 2.95
55 99.99
56 8
57 9.4
58 0.82
59 11.5
60 1
61 6.8
65 0.22
66 3.5
67 44.9
68 18.6
69 1.91
70 4.2
71 4.9
72 4.3
73 1.1
75 1.8
77 3
78 1.3
79 1.1
80 8.8
81 45.7
82 27.1
83 1.06
84 1.6
85 1.6
86 3.3
87 0.95
88 3.6
89 15.6
91 2.2
92 0.13
93 7.9
94 6.2
95 20
96 2.37
97 12.5
98 1.5
99 2.8
101 0.36
102 3.2
103 7.2
105 1.1
106 0.1
107 6.3
109 8
110 8.5
111 0.21
115 1.2
117 2.3
119 1.2
120 0.15
121 8.9
122 6.5
123 8.7
124 0.78
125 1.4
131 2.3
132 1.4
133 0.66
134 1.3
135 6
136 4.6
137 0.45
138 3.8
147 2.6
148 1.3
149 0.6
150 2.9
151 1.5
152 1.3
163 0.38
164 1.8
177 2.4
220 3.3

$$$$

     RDKit          2D

 20 19  0  0  0  0  0  0  0  0999 V2000
   -9.7428    3.3750    0.0000 C   0  0  0  0  0  0  0  0  0  0  0  0
    8.4437   12.3750    0.0000 C   0  0  0  0  0  0  0  0  0  0  0  0
   -8.4437    4.1250    0.0000 C   0  0  0  0  0  0  0  0  0  0  0  0
   -8.4437    5.6250    0.0000 C   0  0  0  0  0  0  0  0  0  0  0  0
   -7.1447    6.3750    0.0000 C   0  0  0  0  0  0  0  0  0  0  0  0
   -7.1447    7.8750    0.0000 C   0  0  0  0  0  0  0  0  0  0  0  0
   -5.8457    8.6250    0.0000 C   0  0  0  0  0  0  0  0  0  0  0  0
   -5.8457   10.1250    0.0000 C   0  0  0  0  0  0  0  0  0  0  0  0
   -4.5466   10.8750    0.0000 C   0  0  0  0  0  0  0  0  0  0  0  0
   -4.5466   12.3750    0.0000 C   0  0  0  0  0  0  0  0  0  0  0  0
   -3.2476   13.1250    0.0000 C   0  0  0  0  0  0  0  0  0  0  0  0
   -1.9486   12.3750    0.0000 C   0  0  0  0  0  0  0  0  0  0  0  0
   -0.6495   13.1250    0.0000 C   0  0  0  0  0  0  0  0  0  0  0  0
    0.6495   12.3750    0.0000 C   0  0  0  0  0  0  0  0  0  0  0  0
    1.9486   13.1250    0.0000 C   0  0  0  0  0  0  0  0  0  0  0  0
    3.2476   12.3750    0.0000 C   0  0  0  0  0  0  0  0  0  0  0  0
    4.5466   13.1250    0.0000 C   0  0  0  0  0  0  0  0  0  0  0  0
    7.1447   13.1250    0.0000 C   0  0  0  0  0  0  0  0  0  0  0  0
    7.1447   14.6250    0.0000 O   0  0  0  0  0  0  0  0  0  0  0  0
    5.8457   12.3750    0.0000 O   0  0  0  0  0  0  0  0  0  0  0  0
  3  1  1  0
  4  3  1  0
  5  4  1  0
  6  5  1  0
  7  6  1  0
  8  7  1  0
  9  8  1  0
 10  9  1  0
 10 11  2  0
 12 11  1  0
 13 12  1  0
 14 13  1  0
 15 14  1  0
 16 15  1  0
 17 16  1  0
 18  2  1  0
 19 18  2  0
 20 17  1  0
 20 18  1  0
M  END
>  <NAME>  (4470) 
(Z)-7-HEXADECENYL ACETATE

>  <SYNONYMS>  (4470) 


>  <SPECTRUM TYPE>  (4470) 
MS1

>  <INSTRUMENT TYPE>  (4470) 
EI-B

>  <INSTRUMENT>  (4470) 
SHIMADZU QP-1000

>  <ION MODE>  (4470) 
P

>  <INCHIKEY>  (4470) 
QVXFGVVYTKZLJN-KHPPLWFESA-N

>  <FORMULA>  (4470) 
C18H34O2

>  <EXACT MASS>  (4470) 
282.255880328

>  <MW>  (4470) 
282

>  <ID>  (4470) 
JP005370

>  <CONTRIBUTOR>  (4470) 
University of Tokyo Team, {Faculty of Engineering, University of Tokyo

>  <COMMENT>  (4470) 
SMILES=CCCCCCCCC([H])=C([H])CCCCCCOC(C)=O
InChI=InChI=1S/C18H34O2/c1-3-4-5-6-7-8-9-10-11-12-13-14-15-16-17-20-18(2)19/h10-11H,3-9,12-17H2,1-2H3/b11-10-
computed SMILES=O=C(OCCCCCCC=CCCCCCCCC)C
accession=JP005370
date=2016.01.19 (Created 2008.10.21, modified 2011.05.06)
author=YAMAOKA R, KYOTO INSTITUTE OF TECHNOLOGY
license=CC BY-NC-SA
exact mass=282.25588
ionization energy=70 eV
ion type=[M]+*
computed spectral entropy=3.307205827106011
computed normalized entropy=0.789374311427486
SPLASH=splash10-00kg-9100000000-88a8e6bacc340e3496b7
submitter=submitter = University of Tokyo Team (Faculty of Engineering, University of Tokyo)
MoNA Rating=3.75

>  <NUM PEAKS>  (4470) 
66

>  <MASS SPECTRAL PEAKS>  (4470) 
41 8
42 1.8
43 48.7
44 99.99
45 13.9
46 59.4
47 1.5
54 2.7
55 48.5
56 11.9
57 17.9
58 0.66
59 8.3
61 8.3
65 1.5
66 0.42
67 45.5
68 24.4
69 25.4
70 0.77
71 5.6
72 3
73 7.7
75 0.13
77 1.5
79 5.2
80 3.5
81 3.47
82 42.7
83 17.7
84 3
85 0.19
86 2.3
87 6.2
88 2.3
89 1
93 1.5
94 1.8
95 25.1
96 3.48
97 12.8
98 2.2
101 2.1
102 0.22
103 4.7
108 3
109 17.6
110 1.33
111 5.1
112 1.1
117 1.3
122 0.15
123 8.5
124 9
125 2.2
131 0.13
133 3.8
137 4.7
138 5.3
147 0.14
151 1.4
165 1.6
166 2.6
194 0.22
222 9.8
223 1.9

$$$$

     RDKit          2D

 17 16  0  0  0  0  0  0  0  0999 V2000
   -8.1190    3.9375    0.0000 C   0  0  0  0  0  0  0  0  0  0  0  0
   -6.8200    4.6875    0.0000 C   0  0  0  0  0  0  0  0  0  0  0  0
   -6.8200    6.1875    0.0000 C   0  0  0  0  0  0  0  0  0  0  0  0
   -5.5209    6.9375    0.0000 C   0  0  0  0  0  0  0  0  0  0  0  0
   -5.5209    8.4375    0.0000 C   0  0  0  0  0  0  0  0  0  0  0  0
   -4.2219    9.1875    0.0000 C   0  0  0  0  0  0  0  0  0  0  0  0
   -4.2219   10.6875    0.0000 C   0  0  0  0  0  0  0  0  0  0  0  0
   -2.9228   11.4375    0.0000 C   0  0  0  0  0  0  0  0  0  0  0  0
   -1.6238   10.6875    0.0000 C   0  0  0  0  0  0  0  0  0  0  0  0
   -0.3248   11.4375    0.0000 C   0  0  0  0  0  0  0  0  0  0  0  0
    0.9743   10.6875    0.0000 C   0  0  0  0  0  0  0  0  0  0  0  0
    2.2733   11.4375    0.0000 C   0  0  0  0  0  0  0  0  0  0  0  0
    3.5724   10.6875    0.0000 C   0  0  0  0  0  0  0  0  0  0  0  0
    4.8714   11.4375    0.0000 C   0  0  0  0  0  0  0  0  0  0  0  0
    6.1704   10.6875    0.0000 C   0  0  0  0  0  0  0  0  0  0  0  0
    7.4695   11.4375    0.0000 C   0  0  0  0  0  0  0  0  0  0  0  0
    8.7685   10.6875    0.0000 O   0  0  0  0  0  0  0  0  0  0  0  0
  2  1  1  0
  3  2  1  0
  4  3  1  0
  5  4  1  0
  6  5  1  0
  7  6  1  0
  7  8  2  0
  9  8  1  0
 10  9  1  0
 11 10  1  0
 12 11  1  0
 13 12  1  0
 14 13  1  0
 15 14  1  0
 16 15  1  0
 17 16  1  0
M  END
>  <NAME>  (4471) 
(Z)-9-HEXADECEN-1-OL

>  <SYNONYMS>  (4471) 


>  <SPECTRUM TYPE>  (4471) 
MS1

>  <INSTRUMENT TYPE>  (4471) 
EI-B

>  <INSTRUMENT>  (4471) 
SHIMADZU QP-1000

>  <ION MODE>  (4471) 
P

>  <INCHIKEY>  (4471) 
LBIYNOAMNIKVKF-FPLPWBNLSA-N

>  <FORMULA>  (4471) 
C16H32O

>  <EXACT MASS>  (4471) 
240.24531564400002

>  <MW>  (4471) 
240

>  <ID>  (4471) 
JP005368

>  <CONTRIBUTOR>  (4471) 
University of Tokyo Team, {Faculty of Engineering, University of Tokyo

>  <COMMENT>  (4471) 
SMILES=CCCCCCC([H])=C([H])CCCCCCCCO
InChI=InChI=1S/C16H32O/c1-2-3-4-5-6-7-8-9-10-11-12-13-14-15-16-17/h7-8,17H,2-6,9-16H2,1H3/b8-7-
computed SMILES=OCCCCCCCCC=CCCCCCC
accession=JP005368
date=2016.01.19 (Created 2008.10.21, modified 2011.05.06)
author=YAMAOKA R, KYOTO INSTITUTE OF TECHNOLOGY
license=CC BY-NC-SA
exact mass=240.24532
ionization energy=70 eV
ion type=[M]+*
computed spectral entropy=3.3914183680229497
computed normalized entropy=0.7930051759110022
SPLASH=splash10-067j-9100000000-cf863e6bcb2d298bcc92
submitter=submitter = University of Tokyo Team (Faculty of Engineering, University of Tokyo)
MoNA Rating=3.75

>  <NUM PEAKS>  (4471) 
72

>  <MASS SPECTRAL PEAKS>  (4471) 
40 1.1
41 21.7
42 4.9
43 9.56
44 52.3
45 9.3
46 20
52 0.1
54 41.8
55 99.99
56 23.1
57 2.12
58 4.4
59 4.4
65 2.7
66 0.68
67 61.5
68 42.6
69 47.5
70 1.39
71 8.4
72 3
73 7.4
77 0.2
79 5.5
80 4.3
81 51.4
82 6.3
83 25.8
84 5.2
85 4
86 0.14
87 5.4
88 2
89 9.7
93 0.17
95 40.5
96 46.9
97 17
98 0.32
99 1.4
101 1.8
102 1.8
103 0.45
109 24.1
110 21.9
111 6.5
112 0.16
117 1.7
121 1.2
123 13.2
124 1.25
125 2.3
131 1.8
133 5.4
134 0.1
137 6.4
138 6.5
139 1.1
147 0.16
151 2.6
152 2.9
161 1.1
163 0.11
165 2.1
166 2.8
177 1.1
179 0.11
180 1.1
194 2.4
222 7.3
223 1.5

$$$$

     RDKit          2D

 13 12  0  0  0  0  0  0  0  0999 V2000
    3.8971    6.7500    0.0000 C   0  0  0  0  0  0  0  0  0  0  0  0
    2.5981    7.5000    0.0000 C   0  0  0  0  0  0  0  0  0  0  0  0
    1.2990    6.7500    0.0000 C   0  0  0  0  0  0  0  0  0  0  0  0
    0.0000    7.5000    0.0000 C   0  0  0  0  0  0  0  0  0  0  0  0
   -1.2990    6.7500    0.0000 C   0  0  0  0  0  0  0  0  0  0  0  0
   -2.5981    7.5000    0.0000 C   0  0  0  0  0  0  0  0  0  0  0  0
   -3.8971    6.7500    0.0000 C   0  0  0  0  0  0  0  0  0  0  0  0
   -5.1962    7.5000    0.0000 C   0  0  0  0  0  0  0  0  0  0  0  0
   -6.4952    6.7500    0.0000 C   0  0  0  0  0  0  0  0  0  0  0  0
   -7.7942    7.5000    0.0000 C   0  0  0  0  0  0  0  0  0  0  0  0
   -9.0933    6.7500    0.0000 C   0  0  0  0  0  0  0  0  0  0  0  0
  -10.3923    7.5000    0.0000 C   0  0  0  0  0  0  0  0  0  0  0  0
  -11.6913    6.7500    0.0000 O   0  0  0  0  0  0  0  0  0  0  0  0
  2  1  1  0
  2  3  2  0
  4  3  1  0
  4  5  2  0
  6  5  1  0
  7  6  1  0
  8  7  1  0
  9  8  1  0
 10  9  1  0
 11 10  1  0
 12 11  1  0
 13 12  1  0
M  END
>  <NAME>  (4472) 
(E,E)-8,10-DODECADIEN-1-OL

>  <SYNONYMS>  (4472) 


>  <SPECTRUM TYPE>  (4472) 
MS1

>  <INSTRUMENT TYPE>  (4472) 
EI-B

>  <INSTRUMENT>  (4472) 
SHIMADZU QP-1000

>  <ION MODE>  (4472) 
P

>  <INCHIKEY>  (4472) 
CSWBSLXBXRFNST-MQQKCMAXSA-N

>  <FORMULA>  (4472) 
C12H22O

>  <EXACT MASS>  (4472) 
182.167065324

>  <MW>  (4472) 
182

>  <ID>  (4472) 
JP005366

>  <CONTRIBUTOR>  (4472) 
University of Tokyo Team, {Faculty of Engineering, University of Tokyo

>  <COMMENT>  (4472) 
SMILES=OCCCCCCCC([H])=C([H])C([H])=C([H])C
InChI=InChI=1S/C12H22O/c1-2-3-4-5-6-7-8-9-10-11-12-13/h2-5,13H,6-12H2,1H3/b3-2+,5-4+
computed SMILES=OCCCCCCCC=CC=CC
accession=JP005366
date=2016.01.19 (Created 2008.10.21, modified 2011.05.06)
author=YAMAOKA R, KYOTO INSTITUTE OF TECHNOLOGY
license=CC BY-NC-SA
exact mass=182.16707
ionization energy=70 eV
ion type=[M]+*
computed spectral entropy=3.3709594045298243
computed normalized entropy=0.7882213178954897
SPLASH=splash10-0002-9100000000-8c375351e5cf881ff389
submitter=submitter = University of Tokyo Team (Faculty of Engineering, University of Tokyo)
MoNA Rating=3.75

>  <NUM PEAKS>  (4472) 
72

>  <MASS SPECTRAL PEAKS>  (4472) 
41 14.8
42 3.6
43 42.1
44 2.34
45 16
46 99.99
47 2.6
52 0.23
53 1.6
54 15.7
55 23.7
56 0.25
57 5.9
58 8.2
59 12.9
60 0.13
65 4
66 4.6
67 36.1
68 5.86
69 7.8
70 3.5
71 3.5
72 0.39
73 28.1
74 1.3
75 2.1
77 0.63
78 1.8
79 31.6
80 8.5
81 4.58
82 14
83 3
84 1.3
86 0.19
87 8.8
88 3.5
89 15.8
91 0.29
92 1.6
93 8.8
94 6.7
95 0.87
96 7
97 2.5
98 2.8
101 0.28
102 2.1
103 6.1
105 1.1
107 0.51
108 2.7
109 3.4
110 1.3
111 0.16
117 2.4
119 1.3
121 5.8
122 0.2
123 1.1
131 2.3
133 5.9
135 0.37
136 1
147 1.3
149 1.2
164 0.36
177 1
181 1.3
182 10.5
183 1.4

$$$$

     RDKit          2D

 22 22  0  0  0  0  0  0  0  0999 V2000
    9.7331    0.0488    0.0000 C   0  0  0  0  0  0  0  0  0  0  0  0
  -15.1493    0.0496    0.0000 C   0  0  0  0  0  0  0  0  0  0  0  0
    8.4342    0.7990    0.0000 C   0  0  0  0  0  0  0  0  0  0  0  0
    7.1351    0.0492    0.0000 C   0  0  0  0  0  0  0  0  0  0  0  0
    5.8362    0.7994    0.0000 C   0  0  0  0  0  0  0  0  0  0  0  0
    4.5370    0.0496    0.0000 C   0  0  0  0  0  0  0  0  0  0  0  0
    3.2381    0.7998    0.0000 C   0  0  0  0  0  0  0  0  0  0  0  0
    1.9389    0.0500    0.0000 C   0  0  0  0  0  0  0  0  0  0  0  0
    0.6400    0.8002    0.0000 C   0  0  0  0  0  0  0  0  0  0  0  0
   -0.6592    0.0504    0.0000 C   0  0  0  0  0  0  0  0  0  0  0  0
   -1.9581    0.8006    0.0000 C   0  0  0  0  0  0  0  0  0  0  0  0
   -8.6542    0.8006    0.0000 C   0  0  0  0  0  0  0  0  0  0  0  0
   -9.9531    0.0504    0.0000 C   0  0  0  0  0  0  0  0  0  0  0  0
   -3.2572    0.0508    0.0000 C   0  0  0  0  0  0  0  0  0  0  0  0
   -7.3551    0.0508    0.0000 C   0  0  0  0  0  0  0  0  0  0  0  0
  -11.2523    0.8002    0.0000 C   0  0  0  0  0  0  0  0  0  0  0  0
   -4.5562    0.8010    0.0000 C   0  0  0  0  0  0  0  0  0  0  0  0
   -6.0562    0.8010    0.0000 C   0  0  0  0  0  0  0  0  0  0  0  0
  -12.5512    0.0500    0.0000 C   0  0  0  0  0  0  0  0  0  0  0  0
  -12.5510   -1.4500    0.0000 O   0  0  0  0  0  0  0  0  0  0  0  0
  -13.8504    0.7998    0.0000 O   0  0  0  0  0  0  0  0  0  0  0  0
   -5.3062    2.1010    0.0000 O   0  0  0  0  0  0  0  0  0  0  0  0
  3  1  1  0
  4  3  1  0
  5  4  1  0
  6  5  1  0
  7  6  1  0
  8  7  1  0
  9  8  1  0
 10  9  1  0
 11 10  1  0
 13 12  1  0
 14 11  1  0
 15 12  1  0
 16 13  1  0
 17 14  1  0
 18 15  1  0
 18 17  1  0
 19 16  1  0
 20 19  2  0
 21  2  1  0
 21 19  1  0
 22 17  1  0
 22 18  1  0
M  END
>  <NAME>  (4473) 
6,7-EPOXYOCTADECANOIC ACID METHYL ESTER

>  <SYNONYMS>  (4473) 


>  <SPECTRUM TYPE>  (4473) 
MS1

>  <INSTRUMENT TYPE>  (4473) 
EI-B

>  <INSTRUMENT>  (4473) 
HITACHI M-80B

>  <ION MODE>  (4473) 
P

>  <INCHIKEY>  (4473) 
XZBRNQGAEDOQPT-UHFFFAOYSA-N

>  <FORMULA>  (4473) 
C19H36O3

>  <EXACT MASS>  (4473) 
312.26644501199996

>  <MW>  (4473) 
312

>  <ID>  (4473) 
JP005364

>  <CONTRIBUTOR>  (4473) 
University of Tokyo Team, {Faculty of Engineering, University of Tokyo

>  <COMMENT>  (4473) 
SMILES=CCCCCCCCCCCC(O1)C(CCCCC(=O)OC)1
InChI=InChI=1S/C19H36O3/c1-3-4-5-6-7-8-9-10-11-14-17-18(22-17)15-12-13-16-19(20)21-2/h17-18H,3-16H2,1-2H3
computed SMILES=O=C(OC)CCCCC1OC1CCCCCCCCCCC
accession=JP005364
date=2016.01.19 (Created 2008.10.21, modified 2011.05.06)
author=YAMAOKA R, KYOTO INSTITUTE OF TECHNOLOGY
license=CC BY-NC-SA
exact mass=312.26645
ionization energy=70 eV
ion type=[M]+*
computed spectral entropy=3.7286732099768587
computed normalized entropy=0.8349193738227138
SPLASH=splash10-07bf-9300000000-5370036622a9596ac699
submitter=submitter = University of Tokyo Team (Faculty of Engineering, University of Tokyo)
MoNA Rating=3.75

>  <NUM PEAKS>  (4473) 
87

>  <MASS SPECTRAL PEAKS>  (4473) 
41 86.08
42 18.71
43 84.2
45 4.38
53 6.77
54 13.01
55 83.74
56 25.46
57 57.79
58 5.85
59 25.5
65 1.34
66 1.71
67 49.31
68 29.72
69 74.04
70 28.78
71 23.71
72 2.29
73 6.94
74 19.87
75 1.01
77 1.89
79 5.01
80 2.84
81 17.48
82 19.41
83 34.99
84 21.01
85 30.7
86 2.04
87 31.31
88 2.59
93 3.57
94 2.58
95 20.28
96 11.29
97 40.27
98 15.13
99 4.03
100 2.25
101 3.43
102 1.14
107 3.17
109 7.95
110 3.17
111 13.26
112 23.9
113 99.99
114 7.65
115 10.9
116 4.72
121 2.02
123 3.89
124 2
125 5.78
126 6.83
127 3.93
128 6.23
129 30.05
130 3.81
135 1.22
137 2.42
138 2.29
139 3.36
140 5.12
141 1.09
143 3.3
144 6.93
145 19.27
146 1.84
147 1.52
153 1.61
154 1.97
155 1.19
157 2.85
158 5.27
165 1.1
166 1.88
171 1.31
172 3.67
183 2.35
197 14.35
198 3.86
225 1.86
238 2.66
239 1.03

$$$$

     RDKit          2D

 21 20  0  0  0  0  0  0  0  0999 V2000
    1.6238   10.6875    0.0000 C   0  0  0  0  0  0  0  0  0  0  0  0
  -17.8618    2.4375    0.0000 C   0  0  0  0  0  0  0  0  0  0  0  0
    0.3248   11.4375    0.0000 C   0  0  0  0  0  0  0  0  0  0  0  0
   -0.9743   10.6875    0.0000 C   0  0  0  0  0  0  0  0  0  0  0  0
   -2.2733   11.4375    0.0000 C   0  0  0  0  0  0  0  0  0  0  0  0
   -3.5724   10.6875    0.0000 C   0  0  0  0  0  0  0  0  0  0  0  0
   -4.8714   11.4375    0.0000 C   0  0  0  0  0  0  0  0  0  0  0  0
   -6.1704   10.6875    0.0000 C   0  0  0  0  0  0  0  0  0  0  0  0
   -7.4695   11.4375    0.0000 C   0  0  0  0  0  0  0  0  0  0  0  0
   -8.7685   10.6875    0.0000 C   0  0  0  0  0  0  0  0  0  0  0  0
  -10.0675   11.4375    0.0000 C   0  0  0  0  0  0  0  0  0  0  0  0
  -11.3666   10.6875    0.0000 C   0  0  0  0  0  0  0  0  0  0  0  0
  -12.6656   11.4375    0.0000 C   0  0  0  0  0  0  0  0  0  0  0  0
  -13.9647   10.6875    0.0000 C   0  0  0  0  0  0  0  0  0  0  0  0
  -13.9647    9.1875    0.0000 C   0  0  0  0  0  0  0  0  0  0  0  0
  -15.2637    8.4375    0.0000 C   0  0  0  0  0  0  0  0  0  0  0  0
  -15.2637    6.9375    0.0000 C   0  0  0  0  0  0  0  0  0  0  0  0
  -16.5627    6.1875    0.0000 C   0  0  0  0  0  0  0  0  0  0  0  0
  -16.5627    4.6875    0.0000 C   0  0  0  0  0  0  0  0  0  0  0  0
  -15.2637    3.9375    0.0000 O   0  0  0  0  0  0  0  0  0  0  0  0
  -17.8618    3.9375    0.0000 O   0  0  0  0  0  0  0  0  0  0  0  0
  3  1  1  0
  4  3  1  0
  5  4  1  0
  6  5  1  0
  7  6  1  0
  8  7  1  0
  9  8  1  0
 10  9  1  0
 11 10  1  0
 12 11  1  0
 13 12  1  0
 13 14  2  0
 15 14  1  0
 16 15  1  0
 17 16  1  0
 18 17  1  0
 19 18  1  0
 20 19  2  0
 21  2  1  0
 21 19  1  0
M  END
>  <NAME>  (4474) 
(Z)-6-OCTADECENOIC ACID METHYL ESTER

>  <SYNONYMS>  (4474) 


>  <SPECTRUM TYPE>  (4474) 
MS1

>  <INSTRUMENT TYPE>  (4474) 
EI-B

>  <INSTRUMENT>  (4474) 
HITACHI M-80B

>  <ION MODE>  (4474) 
P

>  <INCHIKEY>  (4474) 
QRTVDKVXAFJVRU-YPKPFQOOSA-N

>  <FORMULA>  (4474) 
C19H36O2

>  <EXACT MASS>  (4474) 
296.271530392

>  <MW>  (4474) 
296

>  <ID>  (4474) 
JP005362

>  <CONTRIBUTOR>  (4474) 
University of Tokyo Team, {Faculty of Engineering, University of Tokyo

>  <COMMENT>  (4474) 
SMILES=CCCCCCCCCCCC([H])=C([H])CCCCC(=O)OC
InChI=InChI=1S/C19H36O2/c1-3-4-5-6-7-8-9-10-11-12-13-14-15-16-17-18-19(20)21-2/h13-14H,3-12,15-18H2,1-2H3/b14-13-
computed SMILES=O=C(OC)CCCCC=CCCCCCCCCCCC
accession=JP005362
date=2016.01.19 (Created 2008.10.21, modified 2011.05.06)
author=YAMAOKA R, KYOTO INSTITUTE OF TECHNOLOGY
license=CC BY-NC-SA
exact mass=296.27153
ionization energy=70 eV
ion type=[M]+*
computed spectral entropy=4.014399515856306
computed normalized entropy=0.8491792232416759
SPLASH=splash10-00l7-9200000000-25b3ada4753ac2bcad99
submitter=submitter = University of Tokyo Team (Faculty of Engineering, University of Tokyo)
MoNA Rating=3.75

>  <NUM PEAKS>  (4474) 
113

>  <MASS SPECTRAL PEAKS>  (4474) 
41 99.99
42 15.49
43 86.92
45 4.77
51 1.19
53 11.77
54 34.82
55 85.89
56 20.25
57 42.01
58 2.1
59 27.24
65 4.69
66 2.95
67 44.93
68 36.58
69 54.47
70 15.74
71 20.16
73 4.87
74 83.73
75 11.29
77 4.32
79 17.47
80 12.57
81 46.57
82 28.98
83 40.71
84 70.67
85 14.33
87 39.28
88 2.71
89 1.16
91 3.95
92 1.84
93 5.5
94 5.84
95 32.94
96 58.91
97 47.43
98 38.98
99 5.73
100 1.82
101 9.44
105 2.42
107 2.44
108 3.26
109 16.99
110 28.85
111 25.08
112 6.99
113 6.43
114 5.61
115 7.03
119 4.17
120 1.55
121 6.92
122 2
123 20.43
124 11.34
125 8.32
126 2.14
127 4.78
128 5.74
129 4.66
130 1.06
133 2.75
134 3.54
135 5.99
136 1.32
137 12.09
138 8.11
139 7.19
140 2.13
141 6.98
142 2.31
143 5.8
147 2.15
148 2.56
149 1.72
151 6.44
152 6.49
153 4.77
155 1.75
157 1.12
161 1.16
164 1.76
165 4.84
166 5.56
169 2.47
179 1.6
180 15.43
181 2.9
183 1.81
185 1.9
193 1.9
194 2.73
207 1.18
208 1.33
220 6.13
221 4
222 15.69
223 4.83
235 3.11
236 2.05
246 2.18
247 2.03
253 1.03
264 29.71
265 13.31
266 1.69
296 4
297 1.07

$$$$

     RDKit          2D

 21 20  0  0  0  0  0  0  0  0999 V2000
    0.6495    2.6250    0.0000 C   0  0  0  0  0  0  0  0  0  0  0  0
   -3.2476   -1.1250    0.0000 C   0  0  0  0  0  0  0  0  0  0  0  0
    1.9486    3.3750    0.0000 C   0  0  0  0  0  0  0  0  0  0  0  0
    1.9486    4.8750    0.0000 C   0  0  0  0  0  0  0  0  0  0  0  0
    3.2476    5.6250    0.0000 C   0  0  0  0  0  0  0  0  0  0  0  0
    4.5466    4.8750    0.0000 C   0  0  0  0  0  0  0  0  0  0  0  0
    5.8457    5.6250    0.0000 C   0  0  0  0  0  0  0  0  0  0  0  0
    7.1447    4.8750    0.0000 C   0  0  0  0  0  0  0  0  0  0  0  0
    7.1447    3.3750    0.0000 C   0  0  0  0  0  0  0  0  0  0  0  0
    8.4437    2.6250    0.0000 C   0  0  0  0  0  0  0  0  0  0  0  0
    8.4437    1.1250    0.0000 C   0  0  0  0  0  0  0  0  0  0  0  0
    7.1447    0.3750    0.0000 C   0  0  0  0  0  0  0  0  0  0  0  0
    7.1447   -1.1250    0.0000 C   0  0  0  0  0  0  0  0  0  0  0  0
    5.8457   -1.8750    0.0000 C   0  0  0  0  0  0  0  0  0  0  0  0
    4.5466   -1.1250    0.0000 C   0  0  0  0  0  0  0  0  0  0  0  0
    3.2476   -1.8750    0.0000 C   0  0  0  0  0  0  0  0  0  0  0  0
    1.9486   -1.1250    0.0000 C   0  0  0  0  0  0  0  0  0  0  0  0
    0.6495   -1.8750    0.0000 C   0  0  0  0  0  0  0  0  0  0  0  0
   -0.6495   -1.1250    0.0000 C   0  0  0  0  0  0  0  0  0  0  0  0
   -0.6495    0.3750    0.0000 O   0  0  0  0  0  0  0  0  0  0  0  0
   -1.9486   -1.8750    0.0000 O   0  0  0  0  0  0  0  0  0  0  0  0
  3  1  1  0
  4  3  1  0
  4  5  2  0
  6  5  1  0
  7  6  1  0
  7  8  2  0
  9  8  1  0
 10  9  1  0
 10 11  2  0
 12 11  1  0
 13 12  1  0
 13 14  2  0
 15 14  1  0
 16 15  1  0
 17 16  1  0
 18 17  1  0
 19 18  1  0
 20 19  2  0
 21  2  1  0
 21 19  1  0
M  END
>  <NAME>  (4475) 
(Z,Z,Z,Z)-6,9,12,15-OCTADECATETRAENOIC ACID METHYL ESTER

>  <SYNONYMS>  (4475) 


>  <SPECTRUM TYPE>  (4475) 
MS1

>  <INSTRUMENT TYPE>  (4475) 
EI-B

>  <INSTRUMENT>  (4475) 
HITACHI M-80B

>  <ION MODE>  (4475) 
P

>  <INCHIKEY>  (4475) 
BIRKCHKCDPCDEG-GJDCDIHCSA-N

>  <FORMULA>  (4475) 
C19H30O2

>  <EXACT MASS>  (4475) 
290.2245802

>  <MW>  (4475) 
290

>  <ID>  (4475) 
JP005361

>  <CONTRIBUTOR>  (4475) 
University of Tokyo Team, {Faculty of Engineering, University of Tokyo

>  <COMMENT>  (4475) 
SMILES=CCC([H])=C([H])CC([H])=C([H])CC([H])=C([H])CC([H])=C([H])CCCCC(=O)OC
InChI=InChI=1S/C19H30O2/c1-3-4-5-6-7-8-9-10-11-12-13-14-15-16-17-18-19(20)21-2/h4-5,7-8,10-11,13-14H,3,6,9,12,15-18H2,1-2H3/b5-4-,8-7-,11-10-,14-13-
computed SMILES=O=C(OC)CCCCC=CCC=CCC=CCC=CCC
accession=JP005361
date=2016.01.19 (Created 2008.10.21, modified 2011.05.06)
author=YAMAOKA R, KYOTO INSTITUTE OF TECHNOLOGY
license=CC BY-NC-SA
exact mass=290.22458
ionization energy=70 eV
ion type=[M]+*
computed spectral entropy=3.7638127043747165
computed normalized entropy=0.8120890593459295
SPLASH=splash10-054o-9300000000-d1c4f449e87d4021bc51
submitter=submitter = University of Tokyo Team (Faculty of Engineering, University of Tokyo)
MoNA Rating=3.75

>  <NUM PEAKS>  (4475) 
103

>  <MASS SPECTRAL PEAKS>  (4475) 
40 4
41 72.69
42 6.48
43 8.81
44 1.24
45 6.33
50 0.36
51 4.58
52 3.47
53 15.15
54 8.1
55 33.16
56 1.6
57 0.44
59 19.01
63 1.8
65 12.53
66 16.24
67 64.51
68 8.66
69 14.67
70 1.75
71 2.15
73 0.96
74 9.04
77 30.49
78 20.39
79 99.99
80 34.06
81 20.35
82 4.03
83 0.67
84 2.57
85 2.22
87 7.28
89 0.57
91 52.07
92 9.34
93 40.98
94 15.24
95 13.45
96 0.74
97 2.15
98 1.13
99 0.41
101 0.73
103 2.66
104 3.05
105 25.52
106 11.64
107 14.28
108 28.08
109 5.35
111 0.48
113 0.5
115 5.13
116 1.86
117 7.52
118 2.83
119 18.23
120 8.49
121 9.93
122 8.86
123 2.99
128 0.32
129 1.63
130 0.36
131 6.35
132 0.81
133 9.31
134 6.9
135 6.25
136 2.31
137 0.29
141 0.4
145 4.5
147 7.5
148 5.16
149 1.92
150 0.71
159 0.86
161 10.83
162 3.76
173 1.24
174 0.29
175 3.81
176 1.25
183 0.36
185 0.23
187 0.3
189 2.21
194 5.51
195 0.44
201 0.49
208 1.09
210 0.57
215 0.27
221 4.06
222 0.29
233 0.74
234 1.6
236 0.51
290 1

$$$$

     RDKit          2D

 21 20  0  0  0  0  0  0  0  0999 V2000
   15.2637    6.1875    0.0000 C   0  0  0  0  0  0  0  0  0  0  0  0
   -4.2219    9.9375    0.0000 C   0  0  0  0  0  0  0  0  0  0  0  0
   13.9647    5.4375    0.0000 C   0  0  0  0  0  0  0  0  0  0  0  0
   13.9647    3.9375    0.0000 C   0  0  0  0  0  0  0  0  0  0  0  0
   12.6656    3.1875    0.0000 C   0  0  0  0  0  0  0  0  0  0  0  0
   11.3666    3.9375    0.0000 C   0  0  0  0  0  0  0  0  0  0  0  0
   10.0675    3.1875    0.0000 C   0  0  0  0  0  0  0  0  0  0  0  0
    8.7685    3.9375    0.0000 C   0  0  0  0  0  0  0  0  0  0  0  0
    8.7685    5.4375    0.0000 C   0  0  0  0  0  0  0  0  0  0  0  0
    7.4695    6.1875    0.0000 C   0  0  0  0  0  0  0  0  0  0  0  0
    7.4695    7.6875    0.0000 C   0  0  0  0  0  0  0  0  0  0  0  0
    6.1704    8.4375    0.0000 C   0  0  0  0  0  0  0  0  0  0  0  0
    6.1704    9.9375    0.0000 C   0  0  0  0  0  0  0  0  0  0  0  0
    4.8714   10.6875    0.0000 C   0  0  0  0  0  0  0  0  0  0  0  0
    3.5724    9.9375    0.0000 C   0  0  0  0  0  0  0  0  0  0  0  0
    2.2733   10.6875    0.0000 C   0  0  0  0  0  0  0  0  0  0  0  0
    0.9743    9.9375    0.0000 C   0  0  0  0  0  0  0  0  0  0  0  0
   -0.3248   10.6875    0.0000 C   0  0  0  0  0  0  0  0  0  0  0  0
   -1.6238    9.9375    0.0000 C   0  0  0  0  0  0  0  0  0  0  0  0
   -1.6238    8.4375    0.0000 O   0  0  0  0  0  0  0  0  0  0  0  0
   -2.9228   10.6875    0.0000 O   0  0  0  0  0  0  0  0  0  0  0  0
  3  1  1  0
  4  3  1  0
  4  5  2  0
  6  5  1  0
  7  6  1  0
  7  8  2  0
  9  8  1  0
 10  9  1  0
 11 10  1  0
 12 11  1  0
 13 12  1  0
 13 14  2  0
 15 14  1  0
 16 15  1  0
 17 16  1  0
 18 17  1  0
 19 18  1  0
 20 19  2  0
 21  2  1  0
 21 19  1  0
M  END
>  <NAME>  (4476) 
(Z,Z,Z)-6,12,15-OCTADECATRIENOIC ACID METHYL ESTER

>  <SYNONYMS>  (4476) 


>  <SPECTRUM TYPE>  (4476) 
MS1

>  <INSTRUMENT TYPE>  (4476) 
EI-B

>  <INSTRUMENT>  (4476) 
HITACHI M-80B

>  <ION MODE>  (4476) 
P

>  <INCHIKEY>  (4476) 
NTHHALPEFAAFAP-RBIKCNJLSA-N

>  <FORMULA>  (4476) 
C19H32O2

>  <EXACT MASS>  (4476) 
292.240230264

>  <MW>  (4476) 
292

>  <ID>  (4476) 
JP005360

>  <CONTRIBUTOR>  (4476) 
University of Tokyo Team, {Faculty of Engineering, University of Tokyo

>  <COMMENT>  (4476) 
SMILES=CCC([H])=C([H])CC([H])=C([H])CCCCC([H])=C([H])CCCCC(=O)OC
InChI=InChI=1S/C19H32O2/c1-3-4-5-6-7-8-9-10-11-12-13-14-15-16-17-18-19(20)21-2/h4-5,7-8,13-14H,3,6,9-12,15-18H2,1-2H3/b5-4-,8-7-,14-13-
computed SMILES=O=C(OC)CCCCC=CCCCCC=CCC=CCC
accession=JP005360
date=2016.01.19 (Created 2008.10.21, modified 2011.05.06)
author=YAMAOKA R, KYOTO INSTITUTE OF TECHNOLOGY
license=CC BY-NC-SA
exact mass=292.24023
ionization energy=70 eV
ion type=[M]+*
computed spectral entropy=3.7551930447496975
computed normalized entropy=0.8208590799277574
SPLASH=splash10-00nf-9200000000-d1553d9d354fa07a7d43
submitter=submitter = University of Tokyo Team (Faculty of Engineering, University of Tokyo)
MoNA Rating=3.75

>  <NUM PEAKS>  (4476) 
97

>  <MASS SPECTRAL PEAKS>  (4476) 
40 5.21
41 97.99
42 1.76
43 16.34
44 2.19
45 6.15
51 4.63
52 1.34
53 18.94
54 21.7
55 51.82
56 4.98
57 0.91
59 18.48
60 0.68
65 14.95
66 12.69
67 99.99
68 11.45
69 13.72
71 5
73 1.82
74 6.6
75 0.83
77 9
78 2.96
79 68.59
80 27.93
81 52.35
82 28.74
83 10.52
85 6.05
87 9.32
88 1.93
91 11.98
92 4.7
93 37.08
94 17.77
95 43.08
96 14.81
97 6.19
99 3.37
101 2.34
105 6.27
106 2.65
107 15.77
108 10.85
109 20.12
110 4.68
111 2.38
113 0.43
115 5.33
116 0.41
117 1.94
119 5.78
120 3.29
121 23.36
122 12.06
123 2.13
125 1.61
126 0.8
131 2.74
134 3.93
135 11.37
136 7.22
137 2.64
139 0.38
145 0.67
147 3.55
148 1.69
149 5.22
150 8.8
151 1.3
154 0.59
161 3.48
162 0.63
163 8.91
164 7.51
165 1.06
173 1.5
175 2.34
176 0.48
177 10.56
178 3.94
189 0.51
191 2.5
192 0.82
196 0.8
207 0.49
208 0.37
209 1.02
210 6.38
222 0.79
223 0.43
235 2.45
249 2.7
292 2.88

$$$$

     RDKit          2D

 21 20  0  0  0  0  0  0  0  0999 V2000
  -10.7171    7.3125    0.0000 C   0  0  0  0  0  0  0  0  0  0  0  0
    4.8714    8.8125    0.0000 C   0  0  0  0  0  0  0  0  0  0  0  0
   -9.4180    6.5625    0.0000 C   0  0  0  0  0  0  0  0  0  0  0  0
   -8.1190    7.3125    0.0000 C   0  0  0  0  0  0  0  0  0  0  0  0
   -6.8200    6.5625    0.0000 C   0  0  0  0  0  0  0  0  0  0  0  0
   -6.8200    5.0625    0.0000 C   0  0  0  0  0  0  0  0  0  0  0  0
   -5.5209    4.3125    0.0000 C   0  0  0  0  0  0  0  0  0  0  0  0
   -5.5209    2.8125    0.0000 C   0  0  0  0  0  0  0  0  0  0  0  0
   -4.2219    2.0625    0.0000 C   0  0  0  0  0  0  0  0  0  0  0  0
   -4.2219    0.5625    0.0000 C   0  0  0  0  0  0  0  0  0  0  0  0
   -2.9228   -0.1875    0.0000 C   0  0  0  0  0  0  0  0  0  0  0  0
   -1.6238    0.5625    0.0000 C   0  0  0  0  0  0  0  0  0  0  0  0
   -0.3248   -0.1875    0.0000 C   0  0  0  0  0  0  0  0  0  0  0  0
    0.9743    0.5625    0.0000 C   0  0  0  0  0  0  0  0  0  0  0  0
    0.9743    2.0625    0.0000 C   0  0  0  0  0  0  0  0  0  0  0  0
    2.2733    2.8125    0.0000 C   0  0  0  0  0  0  0  0  0  0  0  0
    2.2733    4.3125    0.0000 C   0  0  0  0  0  0  0  0  0  0  0  0
    3.5724    5.0625    0.0000 C   0  0  0  0  0  0  0  0  0  0  0  0
    3.5724    6.5625    0.0000 C   0  0  0  0  0  0  0  0  0  0  0  0
    2.2733    7.3125    0.0000 O   0  0  0  0  0  0  0  0  0  0  0  0
    4.8714    7.3125    0.0000 O   0  0  0  0  0  0  0  0  0  0  0  0
  3  1  1  0
  4  3  1  0
  4  5  2  0
  6  5  1  0
  7  6  1  0
  8  7  1  0
  9  8  1  0
 10  9  1  0
 10 11  2  0
 12 11  1  0
 13 12  1  0
 13 14  2  0
 15 14  1  0
 16 15  1  0
 17 16  1  0
 18 17  1  0
 19 18  1  0
 20 19  2  0
 21  2  1  0
 21 19  1  0
M  END
>  <NAME>  (4477) 
(Z,Z,Z)-6,9,15-OCTADECATRIENOIC ACID METHYL ESTER

>  <SYNONYMS>  (4477) 


>  <SPECTRUM TYPE>  (4477) 
MS1

>  <INSTRUMENT TYPE>  (4477) 
EI-B

>  <INSTRUMENT>  (4477) 
HITACHI M-80B

>  <ION MODE>  (4477) 
P

>  <INCHIKEY>  (4477) 
SWFJVJVXGIDQRY-WMWLCQRCSA-N

>  <FORMULA>  (4477) 
C19H32O2

>  <EXACT MASS>  (4477) 
292.240230264

>  <MW>  (4477) 
292

>  <ID>  (4477) 
JP005359

>  <CONTRIBUTOR>  (4477) 
University of Tokyo Team, {Faculty of Engineering, University of Tokyo

>  <COMMENT>  (4477) 
SMILES=CCC([H])=C([H])CCCCC([H])=C([H])CC([H])=C([H])CCCCC(=O)OC
InChI=InChI=1S/C19H32O2/c1-3-4-5-6-7-8-9-10-11-12-13-14-15-16-17-18-19(20)21-2/h4-5,10-11,13-14H,3,6-9,12,15-18H2,1-2H3/b5-4-,11-10-,14-13-
computed SMILES=O=C(OC)CCCCC=CCC=CCCCCC=CCC
accession=JP005359
date=2016.01.19 (Created 2008.10.21, modified 2011.05.06)
author=YAMAOKA R, KYOTO INSTITUTE OF TECHNOLOGY
license=CC BY-NC-SA
exact mass=292.24023
ionization energy=70 eV
ion type=[M]+*
computed spectral entropy=3.7045365397216576
computed normalized entropy=0.8134907086650804
SPLASH=splash10-05nf-9200000000-f4616e4dfac647f6f9d8
submitter=submitter = University of Tokyo Team (Faculty of Engineering, University of Tokyo)
MoNA Rating=3.75

>  <NUM PEAKS>  (4477) 
95

>  <MASS SPECTRAL PEAKS>  (4477) 
40 4.55
41 99.99
42 10.86
43 11.97
44 0.4
45 4.09
51 0.75
52 0.55
53 20.17
54 16.5
55 51.63
56 4.05
57 6.39
59 21.86
65 5.39
66 8.51
67 82.19
68 15.62
69 20.57
71 1.94
74 6.97
76 0.31
77 16.22
78 5.86
79 52.9
80 28.54
81 49.49
82 22.78
83 7.51
84 0.59
85 4.27
87 8.89
88 1.2
90 0.29
91 16
92 6.15
93 28.44
94 21.34
95 29.96
96 9.22
97 3.04
98 1.04
99 0.64
101 1.4
103 0.35
104 0.85
105 5.93
106 4.46
107 15.62
108 10.89
109 10.24
110 7.49
111 2.03
115 0.44
117 0.48
118 0.37
119 5.49
120 3.75
121 20.97
122 9.41
123 6.59
124 3.36
129 1.08
131 1.75
133 3.07
134 1.35
135 12.22
136 8.32
137 2.51
138 0.57
140 0.56
145 0.39
147 2.15
148 0.81
149 10.66
150 6.63
151 1.19
154 1.12
155 0.34
161 1.54
163 9.56
164 3.75
168 0.94
173 0.52
176 0.49
177 2.53
178 0.44
191 0.44
196 0.6
210 2.52
249 2.21
250 0.44
263 3.82
264 0.55
292 0.66

$$$$

     RDKit          2D

 21 20  0  0  0  0  0  0  0  0999 V2000
    3.2476   -4.1250    0.0000 C   0  0  0  0  0  0  0  0  0  0  0  0
   13.6399    3.3750    0.0000 C   0  0  0  0  0  0  0  0  0  0  0  0
    1.9486   -3.3750    0.0000 C   0  0  0  0  0  0  0  0  0  0  0  0
    0.6495   -4.1250    0.0000 C   0  0  0  0  0  0  0  0  0  0  0  0
   -0.6495   -3.3750    0.0000 C   0  0  0  0  0  0  0  0  0  0  0  0
   -0.6495   -1.8750    0.0000 C   0  0  0  0  0  0  0  0  0  0  0  0
   -1.9486   -1.1250    0.0000 C   0  0  0  0  0  0  0  0  0  0  0  0
   -1.9486    0.3750    0.0000 C   0  0  0  0  0  0  0  0  0  0  0  0
   -0.6495    1.1250    0.0000 C   0  0  0  0  0  0  0  0  0  0  0  0
   -0.6495    2.6250    0.0000 C   0  0  0  0  0  0  0  0  0  0  0  0
    0.6495    3.3750    0.0000 C   0  0  0  0  0  0  0  0  0  0  0  0
    1.9486    2.6250    0.0000 C   0  0  0  0  0  0  0  0  0  0  0  0
    3.2476    3.3750    0.0000 C   0  0  0  0  0  0  0  0  0  0  0  0
    4.5466    2.6250    0.0000 C   0  0  0  0  0  0  0  0  0  0  0  0
    5.8457    3.3750    0.0000 C   0  0  0  0  0  0  0  0  0  0  0  0
    7.1447    2.6250    0.0000 C   0  0  0  0  0  0  0  0  0  0  0  0
    8.4437    3.3750    0.0000 C   0  0  0  0  0  0  0  0  0  0  0  0
    9.7428    2.6250    0.0000 C   0  0  0  0  0  0  0  0  0  0  0  0
   11.0418    3.3750    0.0000 C   0  0  0  0  0  0  0  0  0  0  0  0
   11.0418    4.8750    0.0000 O   0  0  0  0  0  0  0  0  0  0  0  0
   12.3409    2.6250    0.0000 O   0  0  0  0  0  0  0  0  0  0  0  0
  3  1  1  0
  4  3  1  0
  4  5  2  0
  6  5  1  0
  7  6  1  0
  7  8  2  0
  9  8  1  0
 10  9  1  0
 10 11  2  0
 12 11  1  0
 13 12  1  0
 14 13  1  0
 15 14  1  0
 16 15  1  0
 17 16  1  0
 18 17  1  0
 19 18  1  0
 20 19  2  0
 21  2  1  0
 21 19  1  0
M  END
>  <NAME>  (4478) 
(Z,Z,Z)-9,12,15-OCTADECATRIENOIC ACID METHYL ESTER

>  <SYNONYMS>  (4478) 
METHYL ALPHA-LINOLENATE

>  <SPECTRUM TYPE>  (4478) 
MS1

>  <INSTRUMENT TYPE>  (4478) 
EI-B

>  <INSTRUMENT>  (4478) 
HITACHI M-80B

>  <ION MODE>  (4478) 
P

>  <INCHIKEY>  (4478) 
DVWSXZIHSUZZKJ-YSTUJMKBSA-N

>  <FORMULA>  (4478) 
C19H32O2

>  <EXACT MASS>  (4478) 
292.240230264

>  <MW>  (4478) 
292

>  <ID>  (4478) 
JP005358

>  <CONTRIBUTOR>  (4478) 
University of Tokyo Team, {Faculty of Engineering, University of Tokyo

>  <COMMENT>  (4478) 
SMILES=CCC([H])=C([H])CC([H])=C([H])CC([H])=C([H])CCCCCCCC(=O)OC
InChI=InChI=1S/C19H32O2/c1-3-4-5-6-7-8-9-10-11-12-13-14-15-16-17-18-19(20)21-2/h4-5,7-8,10-11H,3,6,9,12-18H2,1-2H3/b5-4-,8-7-,11-10-
computed SMILES=O=C(OC)CCCCCCCC=CCC=CCC=CCC
accession=JP005358
date=2016.01.19 (Created 2008.10.21, modified 2011.05.06)
author=YAMAOKA R, KYOTO INSTITUTE OF TECHNOLOGY
license=CC BY-NC-SA
exact mass=292.24023
ionization energy=70 eV
ion type=[M]+*
computed spectral entropy=3.643261422629152
computed normalized entropy=0.8387257413280771
SPLASH=splash10-055f-9100000000-b4672589fefe1c9de76b
submitter=submitter = University of Tokyo Team (Faculty of Engineering, University of Tokyo)
MoNA Rating=3.75

>  <NUM PEAKS>  (4478) 
77

>  <MASS SPECTRAL PEAKS>  (4478) 
40 3.36
41 63.91
42 5.97
43 24.27
45 3.36
51 2.71
53 17.52
54 11.91
55 51.99
56 3.84
57 5.62
59 16.52
60 1.47
63 1.24
65 8.96
66 11.1
67 64.73
68 19.07
69 18.93
71 2.48
73 2.08
74 12.78
77 23.71
78 11.04
79 99.99
80 42.71
81 50.26
82 10.88
83 6.98
84 1.47
85 2.97
87 12.5
88 1.47
91 27.4
92 6.17
93 46.5
94 20.63
95 54.65
96 6.68
97 3.31
101 1.8
105 7.01
106 4.46
107 17.69
108 38.35
109 11.7
110 1.87
111 2.99
115 2.27
117 2.8
119 3.88
120 3.1
121 14.32
122 4.36
123 4.36
129 2.01
131 1.78
133 2.92
135 9.37
136 6.68
137 1.86
147 1.63
149 7.8
150 4
151 1.2
163 2.73
164 1.98
173 2.7
175 1.29
189 1.03
191 2.38
236 3.71
237 1.43
261 3.02
263 1.5
292 6.49
293 2.69

$$$$

     RDKit          2D

 21 20  0  0  0  0  0  0  0  0999 V2000
    0.0000    0.0000    0.0000 C   0  0  0  0  0  0  0  0  0  0  0  0
   18.1865    6.0000    0.0000 C   0  0  0  0  0  0  0  0  0  0  0  0
    0.0000    1.5000    0.0000 C   0  0  0  0  0  0  0  0  0  0  0  0
   -1.2990    2.2500    0.0000 C   0  0  0  0  0  0  0  0  0  0  0  0
   -1.2990    3.7500    0.0000 C   0  0  0  0  0  0  0  0  0  0  0  0
    0.0000    4.5000    0.0000 C   0  0  0  0  0  0  0  0  0  0  0  0
    0.0000    6.0000    0.0000 C   0  0  0  0  0  0  0  0  0  0  0  0
    1.2990    6.7500    0.0000 C   0  0  0  0  0  0  0  0  0  0  0  0
    2.5981    6.0000    0.0000 C   0  0  0  0  0  0  0  0  0  0  0  0
    3.8971    6.7500    0.0000 C   0  0  0  0  0  0  0  0  0  0  0  0
    5.1962    6.0000    0.0000 C   0  0  0  0  0  0  0  0  0  0  0  0
    6.4952    6.7500    0.0000 C   0  0  0  0  0  0  0  0  0  0  0  0
    7.7942    6.0000    0.0000 C   0  0  0  0  0  0  0  0  0  0  0  0
    9.0933    6.7500    0.0000 C   0  0  0  0  0  0  0  0  0  0  0  0
   10.3923    6.0000    0.0000 C   0  0  0  0  0  0  0  0  0  0  0  0
   11.6913    6.7500    0.0000 C   0  0  0  0  0  0  0  0  0  0  0  0
   12.9904    6.0000    0.0000 C   0  0  0  0  0  0  0  0  0  0  0  0
   14.2894    6.7500    0.0000 C   0  0  0  0  0  0  0  0  0  0  0  0
   15.5885    6.0000    0.0000 C   0  0  0  0  0  0  0  0  0  0  0  0
   15.5885    4.5000    0.0000 O   0  0  0  0  0  0  0  0  0  0  0  0
   16.8875    6.7500    0.0000 O   0  0  0  0  0  0  0  0  0  0  0  0
  3  1  1  0
  4  3  1  0
  4  5  2  0
  6  5  1  0
  7  6  1  0
  7  8  2  0
  9  8  1  0
 10  9  1  0
 11 10  1  0
 12 11  1  0
 13 12  1  0
 14 13  1  0
 15 14  1  0
 16 15  1  0
 17 16  1  0
 18 17  1  0
 19 18  1  0
 20 19  2  0
 21  2  1  0
 21 19  1  0
M  END
>  <NAME>  (4479) 
(Z,Z)-12,15-OCTADECADIENOIC ACID METHYL ESTER

>  <SYNONYMS>  (4479) 


>  <SPECTRUM TYPE>  (4479) 
MS1

>  <INSTRUMENT TYPE>  (4479) 
EI-B

>  <INSTRUMENT>  (4479) 
HITACHI M-80B

>  <ION MODE>  (4479) 
P

>  <INCHIKEY>  (4479) 
SQXLGHNKHZNVRT-UTOQUPLUSA-N

>  <FORMULA>  (4479) 
C19H34O2

>  <EXACT MASS>  (4479) 
294.255880328

>  <MW>  (4479) 
294

>  <ID>  (4479) 
JP005357

>  <CONTRIBUTOR>  (4479) 
University of Tokyo Team, {Faculty of Engineering, University of Tokyo

>  <COMMENT>  (4479) 
SMILES=CCC([H])=C([H])CC([H])=C([H])CCCCCCCCCCC(=O)OC
InChI=InChI=1S/C19H34O2/c1-3-4-5-6-7-8-9-10-11-12-13-14-15-16-17-18-19(20)21-2/h4-5,7-8H,3,6,9-18H2,1-2H3/b5-4-,8-7-
computed SMILES=O=C(OC)CCCCCCCCCCC=CCC=CCC
accession=JP005357
license=CC BY-NC-SA
date=2016.01.19 (Created 2008.10.21, modified 2011.05.06)
author=YAMAOKA R, KYOTO INSTITUTE OF TECHNOLOGY
exact mass=294.25588
ionization energy=70 eV
ion type=[M]+*
computed spectral entropy=3.558957233624269
computed normalized entropy=0.8268827623549708
SPLASH=splash10-0159-9100000000-791da97eec38c1b73101
submitter=submitter = University of Tokyo Team (Faculty of Engineering, University of Tokyo)
MoNA Rating=3.75

>  <NUM PEAKS>  (4479) 
74

>  <MASS SPECTRAL PEAKS>  (4479) 
40 1.13
41 65.82
42 6.38
43 20.58
45 2.95
51 1.47
53 11.19
54 26.85
55 66.97
56 4.47
57 5.35
59 17.42
65 6.49
66 5.91
67 99.99
68 52.82
69 24.15
70 2.59
71 1.92
73 4.13
74 16.88
75 1.59
77 8.4
78 2.32
79 21.51
80 11.16
81 57.8
82 48.07
83 15.91
84 4.49
85 1.9
87 8.72
91 4.71
93 8.49
94 6.19
95 48.38
96 35.69
97 12.94
105 1.12
107 4.65
108 6.61
109 18.58
110 11.67
111 3.78
121 4.93
122 4.58
123 6.95
124 5.18
125 3.42
129 2.27
133 1.65
135 4.64
136 3.28
137 3.55
138 3.93
143 1.92
149 3.23
150 4.07
151 2.55
152 2.67
153 1.36
163 2.79
164 4.02
165 1.64
166 1.49
177 1.76
178 2.16
179 1.72
192 1.67
220 1.78
262 3.41
263 4.75
294 8.5
295 1.85

$$$$

     RDKit          2D

 21 20  0  0  0  0  0  0  0  0999 V2000
    9.0933    6.0000    0.0000 C   0  0  0  0  0  0  0  0  0  0  0  0
  -11.6913   13.5000    0.0000 C   0  0  0  0  0  0  0  0  0  0  0  0
    7.7942    6.7500    0.0000 C   0  0  0  0  0  0  0  0  0  0  0  0
    6.4952    6.0000    0.0000 C   0  0  0  0  0  0  0  0  0  0  0  0
    5.1962    6.7500    0.0000 C   0  0  0  0  0  0  0  0  0  0  0  0
    5.1962    8.2500    0.0000 C   0  0  0  0  0  0  0  0  0  0  0  0
    3.8971    9.0000    0.0000 C   0  0  0  0  0  0  0  0  0  0  0  0
    3.8971   10.5000    0.0000 C   0  0  0  0  0  0  0  0  0  0  0  0
    2.5981   11.2500    0.0000 C   0  0  0  0  0  0  0  0  0  0  0  0
    2.5981   12.7500    0.0000 C   0  0  0  0  0  0  0  0  0  0  0  0
    1.2990   13.5000    0.0000 C   0  0  0  0  0  0  0  0  0  0  0  0
    0.0000   12.7500    0.0000 C   0  0  0  0  0  0  0  0  0  0  0  0
   -1.2990   13.5000    0.0000 C   0  0  0  0  0  0  0  0  0  0  0  0
   -2.5981   12.7500    0.0000 C   0  0  0  0  0  0  0  0  0  0  0  0
   -3.8971   13.5000    0.0000 C   0  0  0  0  0  0  0  0  0  0  0  0
   -5.1962   12.7500    0.0000 C   0  0  0  0  0  0  0  0  0  0  0  0
   -6.4952   13.5000    0.0000 C   0  0  0  0  0  0  0  0  0  0  0  0
   -7.7942   12.7500    0.0000 C   0  0  0  0  0  0  0  0  0  0  0  0
   -9.0933   13.5000    0.0000 C   0  0  0  0  0  0  0  0  0  0  0  0
   -9.0933   15.0000    0.0000 O   0  0  0  0  0  0  0  0  0  0  0  0
  -10.3923   12.7500    0.0000 O   0  0  0  0  0  0  0  0  0  0  0  0
  3  1  1  0
  4  3  1  0
  4  5  2  0
  6  5  1  0
  7  6  1  0
  8  7  1  0
  9  8  1  0
 10  9  1  0
 10 11  2  0
 12 11  1  0
 13 12  1  0
 14 13  1  0
 15 14  1  0
 16 15  1  0
 17 16  1  0
 18 17  1  0
 19 18  1  0
 20 19  2  0
 21  2  1  0
 21 19  1  0
M  END
>  <NAME>  (4480) 
(Z,Z)-9,15-OCTADECADIENOIC ACID METHYL ESTER

>  <SYNONYMS>  (4480) 


>  <SPECTRUM TYPE>  (4480) 
MS1

>  <INSTRUMENT TYPE>  (4480) 
EI-B

>  <INSTRUMENT>  (4480) 
HITACHI M-80B

>  <ION MODE>  (4480) 
P

>  <INCHIKEY>  (4480) 
OTROKOXHZSGHEN-NKIGAPEHSA-N

>  <FORMULA>  (4480) 
C19H34O2

>  <EXACT MASS>  (4480) 
294.255880328

>  <MW>  (4480) 
294

>  <ID>  (4480) 
JP005356

>  <CONTRIBUTOR>  (4480) 
University of Tokyo Team, {Faculty of Engineering, University of Tokyo

>  <COMMENT>  (4480) 
SMILES=CCC([H])=C([H])CCCCC([H])=C([H])CCCCCCCC(=O)OC
InChI=InChI=1S/C19H34O2/c1-3-4-5-6-7-8-9-10-11-12-13-14-15-16-17-18-19(20)21-2/h4-5,10-11H,3,6-9,12-18H2,1-2H3/b5-4-,11-10-
computed SMILES=O=C(OC)CCCCCCCC=CCCCCC=CCC
accession=JP005356
date=2016.01.19 (Created 2008.10.21, modified 2011.05.06)
author=YAMAOKA R, KYOTO INSTITUTE OF TECHNOLOGY
license=CC BY-NC-SA
exact mass=294.25588
ionization energy=70 eV
ion type=[M]+*
computed spectral entropy=3.5278050382586144
computed normalized entropy=0.8170966417251134
SPLASH=splash10-015c-9100000000-be34042db473516c40f2
submitter=submitter = University of Tokyo Team (Faculty of Engineering, University of Tokyo)
MoNA Rating=3.75

>  <NUM PEAKS>  (4480) 
75

>  <MASS SPECTRAL PEAKS>  (4480) 
40 3.31
41 90.23
42 11.27
43 18.8
45 5.41
51 1.69
52 1.08
53 12.75
54 30.38
55 80.75
56 5.94
57 6.03
59 21.22
60 1.04
65 4.24
66 6.93
67 99.99
68 33.29
69 47.12
70 3.46
71 2
73 4.47
74 14.92
77 4.01
79 16.3
80 11.19
81 69.65
82 78.58
83 20.74
84 3.19
87 10.24
91 2.34
93 6.54
94 6.02
95 45.44
96 38.19
97 9.07
98 3.36
101 2.64
105 1.15
107 5.37
108 4.07
109 21.29
110 26.79
111 8.47
115 2.64
121 6.77
122 3.56
123 15.64
124 14.01
125 4.97
127 1.91
129 2.59
135 4.73
136 3.86
137 8.21
138 3.96
139 2.05
149 2.36
150 4.44
151 3.08
152 1.08
157 2.94
163 2.48
164 2.55
178 2.66
179 1.08
192 1.59
206 2.11
238 1.4
251 1.76
252 1.2
263 4.78
294 4.66
295 2.1

$$$$

     RDKit          2D

 21 20  0  0  0  0  0  0  0  0999 V2000
   -1.6238    4.3125    0.0000 C   0  0  0  0  0  0  0  0  0  0  0  0
    0.9743   -1.6875    0.0000 C   0  0  0  0  0  0  0  0  0  0  0  0
   -2.9228    5.0625    0.0000 C   0  0  0  0  0  0  0  0  0  0  0  0
   -4.2219    4.3125    0.0000 C   0  0  0  0  0  0  0  0  0  0  0  0
   -5.5209    5.0625    0.0000 C   0  0  0  0  0  0  0  0  0  0  0  0
   -6.8200    4.3125    0.0000 C   0  0  0  0  0  0  0  0  0  0  0  0
   -8.1190    5.0625    0.0000 C   0  0  0  0  0  0  0  0  0  0  0  0
   -9.4180    4.3125    0.0000 C   0  0  0  0  0  0  0  0  0  0  0  0
   -9.4180    2.8125    0.0000 C   0  0  0  0  0  0  0  0  0  0  0  0
  -10.7171    2.0625    0.0000 C   0  0  0  0  0  0  0  0  0  0  0  0
  -10.7171    0.5625    0.0000 C   0  0  0  0  0  0  0  0  0  0  0  0
   -9.4180   -0.1875    0.0000 C   0  0  0  0  0  0  0  0  0  0  0  0
   -9.4180   -1.6875    0.0000 C   0  0  0  0  0  0  0  0  0  0  0  0
   -8.1190   -2.4375    0.0000 C   0  0  0  0  0  0  0  0  0  0  0  0
   -6.8200   -1.6875    0.0000 C   0  0  0  0  0  0  0  0  0  0  0  0
   -5.5209   -2.4375    0.0000 C   0  0  0  0  0  0  0  0  0  0  0  0
   -4.2219   -1.6875    0.0000 C   0  0  0  0  0  0  0  0  0  0  0  0
   -2.9228   -2.4375    0.0000 C   0  0  0  0  0  0  0  0  0  0  0  0
   -1.6238   -1.6875    0.0000 C   0  0  0  0  0  0  0  0  0  0  0  0
   -1.6238   -0.1875    0.0000 O   0  0  0  0  0  0  0  0  0  0  0  0
   -0.3248   -2.4375    0.0000 O   0  0  0  0  0  0  0  0  0  0  0  0
  3  1  1  0
  4  3  1  0
  5  4  1  0
  6  5  1  0
  7  6  1  0
  7  8  2  0
  9  8  1  0
 10  9  1  0
 10 11  2  0
 12 11  1  0
 13 12  1  0
 13 14  2  0
 15 14  1  0
 16 15  1  0
 17 16  1  0
 18 17  1  0
 19 18  1  0
 20 19  2  0
 21  2  1  0
 21 19  1  0
M  END
>  <NAME>  (4481) 
(Z,Z,Z)-6,9,12-OCTADECATRIENOIC ACID METHYL ESTER

>  <SYNONYMS>  (4481) 


>  <SPECTRUM TYPE>  (4481) 
MS1

>  <INSTRUMENT TYPE>  (4481) 
EI-B

>  <INSTRUMENT>  (4481) 
HITACHI M-80B

>  <ION MODE>  (4481) 
P

>  <INCHIKEY>  (4481) 
JFRWATCOFCPIBM-JPFHKJGASA-N

>  <FORMULA>  (4481) 
C19H32O2

>  <EXACT MASS>  (4481) 
292.240230264

>  <MW>  (4481) 
292

>  <ID>  (4481) 
JP005350

>  <CONTRIBUTOR>  (4481) 
University of Tokyo Team, {Faculty of Engineering, University of Tokyo

>  <COMMENT>  (4481) 
SMILES=CCCCCC([H])=C([H])CC([H])=C([H])CC([H])=C([H])CCCCC(=O)OC
InChI=InChI=1S/C19H32O2/c1-3-4-5-6-7-8-9-10-11-12-13-14-15-16-17-18-19(20)21-2/h7-8,10-11,13-14H,3-6,9,12,15-18H2,1-2H3/b8-7-,11-10-,14-13-
computed SMILES=O=C(OC)CCCCC=CCC=CCC=CCCCCC
accession=JP005350
date=2016.01.19 (Created 2008.10.21, modified 2011.05.06)
author=YAMAOKA R, KYOTO INSTITUTE OF TECHNOLOGY
license=CC BY-NC-SA
exact mass=292.24023
ionization energy=70 eV
ion type=[M]+*
computed spectral entropy=3.730495013396478
computed normalized entropy=0.8537680593419175
SPLASH=splash10-000x-9200000000-0020be36febd0c21e122
submitter=submitter = University of Tokyo Team (Faculty of Engineering, University of Tokyo)
MoNA Rating=3.75

>  <NUM PEAKS>  (4481) 
79

>  <MASS SPECTRAL PEAKS>  (4481) 
41 81.12
42 7.55
43 27.03
44 1.95
45 1.93
50 1.47
51 2.89
53 14.36
54 20.9
55 45.74
56 4.43
57 11.26
58 1.98
59 22.59
63 1.09
65 12.29
66 15.5
67 98.94
68 13.29
69 17.66
71 6.09
74 13.17
77 25.09
78 19.77
79 99.99
80 68.06
81 55.38
82 14.21
83 6.72
84 7.46
85 6.73
87 16.15
91 42.08
92 9.41
93 59.85
94 27.24
95 30.21
96 11.18
97 5.77
99 2.2
101 1.59
105 15.02
106 6.7
107 25.03
108 10.01
109 9.63
110 1.43
117 2.42
118 3.89
119 8.9
120 14.61
121 14.09
122 5.27
123 4.09
131 2.77
133 4.41
134 3.37
135 8.31
136 2.36
137 6.52
144 1.24
147 6.93
148 1.11
149 7.52
150 14.46
151 1.98
157 2.32
161 6.14
162 2.19
163 13.07
164 4.5
175 1.99
176 1.13
177 2.76
194 9.54
221 2.25
222 1.57
292 8.18
293 2.11

$$$$

     RDKit          2D

 21 20  0  0  0  0  0  0  0  0999 V2000
  -10.0675    7.3125    0.0000 C   0  0  0  0  0  0  0  0  0  0  0  0
    1.6238   -2.4375    0.0000 C   0  0  0  0  0  0  0  0  0  0  0  0
  -11.3666    6.5625    0.0000 C   0  0  0  0  0  0  0  0  0  0  0  0
  -11.3666    5.0625    0.0000 C   0  0  0  0  0  0  0  0  0  0  0  0
  -12.6656    4.3125    0.0000 C   0  0  0  0  0  0  0  0  0  0  0  0
  -12.6656    2.8125    0.0000 C   0  0  0  0  0  0  0  0  0  0  0  0
  -13.9647    2.0625    0.0000 C   0  0  0  0  0  0  0  0  0  0  0  0
  -13.9647    0.5625    0.0000 C   0  0  0  0  0  0  0  0  0  0  0  0
  -12.6656   -0.1875    0.0000 C   0  0  0  0  0  0  0  0  0  0  0  0
  -12.6656   -1.6875    0.0000 C   0  0  0  0  0  0  0  0  0  0  0  0
  -11.3666   -2.4375    0.0000 C   0  0  0  0  0  0  0  0  0  0  0  0
  -10.0675   -1.6875    0.0000 C   0  0  0  0  0  0  0  0  0  0  0  0
   -8.7685   -2.4375    0.0000 C   0  0  0  0  0  0  0  0  0  0  0  0
   -7.4695   -1.6875    0.0000 C   0  0  0  0  0  0  0  0  0  0  0  0
   -6.1704   -2.4375    0.0000 C   0  0  0  0  0  0  0  0  0  0  0  0
   -4.8714   -1.6875    0.0000 C   0  0  0  0  0  0  0  0  0  0  0  0
   -3.5724   -2.4375    0.0000 C   0  0  0  0  0  0  0  0  0  0  0  0
   -2.2733   -1.6875    0.0000 C   0  0  0  0  0  0  0  0  0  0  0  0
   -0.9743   -2.4375    0.0000 C   0  0  0  0  0  0  0  0  0  0  0  0
   -0.9743   -3.9375    0.0000 O   0  0  0  0  0  0  0  0  0  0  0  0
    0.3248   -1.6875    0.0000 O   0  0  0  0  0  0  0  0  0  0  0  0
  3  1  1  0
  4  3  1  0
  5  4  1  0
  6  5  1  0
  7  6  1  0
  7  8  2  0
  9  8  1  0
 10  9  1  0
 10 11  2  0
 12 11  1  0
 13 12  1  0
 14 13  1  0
 15 14  1  0
 16 15  1  0
 17 16  1  0
 18 17  1  0
 19 18  1  0
 20 19  2  0
 21  2  1  0
 21 19  1  0
M  END
>  <NAME>  (4482) 
(Z,Z)-9,12-OCTADECADIENOIC ACID METHYL ESTER

>  <SYNONYMS>  (4482) 


>  <SPECTRUM TYPE>  (4482) 
MS1

>  <INSTRUMENT TYPE>  (4482) 
EI-B

>  <INSTRUMENT>  (4482) 
HITACHI M-80B

>  <ION MODE>  (4482) 
P

>  <INCHIKEY>  (4482) 
WTTJVINHCBCLGX-NQLNTKRDSA-N

>  <FORMULA>  (4482) 
C19H34O2

>  <EXACT MASS>  (4482) 
294.255880328

>  <MW>  (4482) 
294

>  <ID>  (4482) 
JP005349

>  <CONTRIBUTOR>  (4482) 
University of Tokyo Team, {Faculty of Engineering, University of Tokyo

>  <COMMENT>  (4482) 
SMILES=CCCCCC([H])=C([H])CC([H])=C([H])CCCCCCCC(=O)OC
InChI=InChI=1S/C19H34O2/c1-3-4-5-6-7-8-9-10-11-12-13-14-15-16-17-18-19(20)21-2/h7-8,10-11H,3-6,9,12-18H2,1-2H3/b8-7-,11-10-
computed SMILES=O=C(OC)CCCCCCCC=CCC=CCCCCC
accession=JP005349
date=2016.01.19 (Created 2008.10.21, modified 2011.05.06)
author=YAMAOKA R, KYOTO INSTITUTE OF TECHNOLOGY
license=CC BY-NC-SA
exact mass=294.25588
ionization energy=70 eV
ion type=[M]+*
computed spectral entropy=3.514356321461612
computed normalized entropy=0.8515245673114216
SPLASH=splash10-0159-9100000000-c55236eae15e103cc906
submitter=submitter = University of Tokyo Team (Faculty of Engineering, University of Tokyo)
MoNA Rating=3.75

>  <NUM PEAKS>  (4482) 
62

>  <MASS SPECTRAL PEAKS>  (4482) 
40 3.78
41 72.5
42 18.3
43 29.71
45 10.69
53 12.88
54 39.98
55 68.79
56 8.55
57 4.65
59 21.61
65 4.77
66 10.13
67 99.99
68 39.5
69 33.9
71 1.93
73 8.95
74 7.25
77 13.99
78 4
79 28.57
80 25.58
81 96.03
82 47.89
83 12.43
84 3.46
87 11.88
91 13.32
93 7.47
94 6.61
95 50.94
96 32.97
97 15.94
98 4.74
105 1.08
107 10.03
108 8.21
109 21.75
110 10.68
119 2.4
120 1.71
121 8.64
123 10.45
124 6.88
129 2.47
135 3.52
136 9.48
137 2.58
138 3.37
150 6.88
151 2.8
154 1.45
163 2.39
164 5.49
177 2.86
206 1.06
262 4.22
263 3.45
264 2.34
294 7.25
295 0.92

$$$$

     RDKit          2D

 21 20  0  0  0  0  0  0  0  0999 V2000
    0.0000    0.0000    0.0000 C   0  0  0  0  0  0  0  0  0  0  0  0
  -20.7846    6.0000    0.0000 C   0  0  0  0  0  0  0  0  0  0  0  0
    0.0000    1.5000    0.0000 C   0  0  0  0  0  0  0  0  0  0  0  0
   -1.2990    2.2500    0.0000 C   0  0  0  0  0  0  0  0  0  0  0  0
   -1.2990    3.7500    0.0000 C   0  0  0  0  0  0  0  0  0  0  0  0
   -2.5981    4.5000    0.0000 C   0  0  0  0  0  0  0  0  0  0  0  0
   -2.5981    6.0000    0.0000 C   0  0  0  0  0  0  0  0  0  0  0  0
   -3.8971    6.7500    0.0000 C   0  0  0  0  0  0  0  0  0  0  0  0
   -5.1962    6.0000    0.0000 C   0  0  0  0  0  0  0  0  0  0  0  0
   -6.4952    6.7500    0.0000 C   0  0  0  0  0  0  0  0  0  0  0  0
   -7.7942    6.0000    0.0000 C   0  0  0  0  0  0  0  0  0  0  0  0
   -9.0933    6.7500    0.0000 C   0  0  0  0  0  0  0  0  0  0  0  0
  -10.3923    6.0000    0.0000 C   0  0  0  0  0  0  0  0  0  0  0  0
  -11.6913    6.7500    0.0000 C   0  0  0  0  0  0  0  0  0  0  0  0
  -12.9904    6.0000    0.0000 C   0  0  0  0  0  0  0  0  0  0  0  0
  -14.2894    6.7500    0.0000 C   0  0  0  0  0  0  0  0  0  0  0  0
  -15.5885    6.0000    0.0000 C   0  0  0  0  0  0  0  0  0  0  0  0
  -16.8875    6.7500    0.0000 C   0  0  0  0  0  0  0  0  0  0  0  0
  -18.1865    6.0000    0.0000 C   0  0  0  0  0  0  0  0  0  0  0  0
  -18.1865    4.5000    0.0000 O   0  0  0  0  0  0  0  0  0  0  0  0
  -19.4856    6.7500    0.0000 O   0  0  0  0  0  0  0  0  0  0  0  0
  3  1  1  0
  4  3  1  0
  5  4  1  0
  6  5  1  0
  7  6  1  0
  7  8  2  0
  9  8  1  0
 10  9  1  0
 11 10  1  0
 12 11  1  0
 13 12  1  0
 14 13  1  0
 15 14  1  0
 16 15  1  0
 17 16  1  0
 18 17  1  0
 19 18  1  0
 20 19  2  0
 21  2  1  0
 21 19  1  0
M  END
>  <NAME>  (4483) 
(Z)-12-OCTADECENOIC ACID METHYL ESTER

>  <SYNONYMS>  (4483) 


>  <SPECTRUM TYPE>  (4483) 
MS1

>  <INSTRUMENT TYPE>  (4483) 
EI-B

>  <INSTRUMENT>  (4483) 
HITACHI M-80B

>  <ION MODE>  (4483) 
P

>  <INCHIKEY>  (4483) 
LMWAESDDOGRMOK-FPLPWBNLSA-N

>  <FORMULA>  (4483) 
C19H36O2

>  <EXACT MASS>  (4483) 
296.271530392

>  <MW>  (4483) 
296

>  <ID>  (4483) 
JP005348

>  <CONTRIBUTOR>  (4483) 
University of Tokyo Team, {Faculty of Engineering, University of Tokyo

>  <COMMENT>  (4483) 
SMILES=CCCCCC([H])=C([H])CCCCCCCCCCC(=O)OC
InChI=InChI=1S/C19H36O2/c1-3-4-5-6-7-8-9-10-11-12-13-14-15-16-17-18-19(20)21-2/h7-8H,3-6,9-18H2,1-2H3/b8-7-
computed SMILES=O=C(OC)CCCCCCCCCCC=CCCCCC
accession=JP005348
date=2016.01.19 (Created 2008.10.21, modified 2011.05.06)
author=YAMAOKA R, KYOTO INSTITUTE OF TECHNOLOGY
license=CC BY-NC-SA
exact mass=296.27153
ionization energy=70 eV
ion type=[M]+*
computed spectral entropy=3.5099337146934597
computed normalized entropy=0.8799066814309717
SPLASH=splash10-05nf-9100000000-a6012de37e96b19c750a
submitter=submitter = University of Tokyo Team (Faculty of Engineering, University of Tokyo)
MoNA Rating=3.75

>  <NUM PEAKS>  (4483) 
54

>  <MASS SPECTRAL PEAKS>  (4483) 
40 3.63
41 70.26
42 21.79
43 46.2
45 6.82
53 11.78
54 20.61
55 99.99
56 11.09
57 10.43
59 21.87
60 2.44
67 27.31
68 13.83
69 36.83
70 22.84
73 5.78
74 46.35
75 2.71
81 13.17
82 16.1
83 38.57
84 37.42
85 3.9
87 28.09
95 16.94
96 24.8
97 27.42
98 20.57
101 7.37
105 4.04
108 2.89
109 10.45
110 15.14
111 14.42
112 2.49
123 5.38
124 9.08
125 11.06
127 2.44
135 3.61
137 2.64
138 11.3
139 6.32
141 2.71
153 2.26
155 1.37
161 1.8
183 1.7
199 1.49
207 3.13
222 3.79
264 20.1
265 13.77

$$$$

     RDKit          2D

  7  7  0  0  0  0  0  0  0  0999 V2000
   -0.0000   -1.9300    0.0000 C   0  0  0  0  0  0  0  0  0  0  0  0
    0.0000    2.5700    0.0000 C   0  0  0  0  0  0  0  0  0  0  0  0
   -1.3000    1.8200    0.0000 C   0  0  0  0  0  0  0  0  0  0  0  0
    1.3000    1.8200    0.0000 C   0  0  0  0  0  0  0  0  0  0  0  0
   -1.3000    0.3200    0.0000 C   0  0  0  0  0  0  0  0  0  0  0  0
    1.3000    0.3200    0.0000 C   0  0  0  0  0  0  0  0  0  0  0  0
   -0.0000   -0.4300    0.0000 C   0  0  0  0  0  0  0  0  0  0  0  0
  3  2  1  0
  4  2  1  0
  5  3  1  0
  6  4  1  0
  7  1  1  0
  7  5  2  0
  7  6  1  0
M  END
>  <NAME>  (4484) 
1-METHYLCYCLOHEXENE

>  <SYNONYMS>  (4484) 


>  <SPECTRUM TYPE>  (4484) 
MS1

>  <INSTRUMENT TYPE>  (4484) 
EI-B

>  <INSTRUMENT>  (4484) 
HITACHI RMU-6M

>  <ION MODE>  (4484) 
P

>  <INCHIKEY>  (4484) 
CTMHWPIWNRWQEG-UHFFFAOYSA-N

>  <FORMULA>  (4484) 
C7H12

>  <EXACT MASS>  (4484) 
96.093900384

>  <MW>  (4484) 
96

>  <ID>  (4484) 
JP005341

>  <CONTRIBUTOR>  (4484) 
University of Tokyo Team, {Faculty of Engineering, University of Tokyo

>  <COMMENT>  (4484) 
SMILES=[H]C(C1)=C(C)CCC1
InChI=InChI=1S/C7H12/c1-7-5-3-2-4-6-7/h5H,2-4,6H2,1H3
computed SMILES=C1=C(C)CCCC1
accession=JP005341
date=2016.01.19 (Created 2008.10.21, modified 2011.05.06)
author=YAMAMOTO M, DEP. CHEMISTRY, FAC. SCIENCE, NARA WOMEN'S UNIV.
license=CC BY-NC-SA
exact mass=96.0939
ionization energy=70 eV
ion type=[M]+*
computed spectral entropy=2.8680312205231657
computed normalized entropy=0.7625308763966958
SPLASH=splash10-00lr-9000000000-5168a17331c71387c458
submitter=submitter = University of Tokyo Team (Faculty of Engineering, University of Tokyo)
MoNA Rating=3.75

>  <NUM PEAKS>  (4484) 
43

>  <MASS SPECTRAL PEAKS>  (4484) 
27 1.28
28 14.43
29 2.47
30 7.5
32 0.82
33 0.62
38 0.51
39 2.05
40 23.16
41 5.86
42 16.38
43 3.18
44 1.03
46 0.92
47 1.03
50 2.52
51 5.44
52 2.82
53 17.67
54 18.59
55 33.74
56 2.26
59 0.62
62 0.82
63 1.9
65 4.11
66 3.65
67 39.63
68 42.03
69 2.41
71 1.28
77 5.65
78 1.49
79 10.12
80 2.05
81 99.99
82 6.57
91 2.52
93 1.28
94 0.51
95 7.4
96 38.25
97 2.88

$$$$

     RDKit          2D

  7  7  0  0  0  0  0  0  0  0999 V2000
   -0.0000   -1.9300    0.0000 C   0  0  0  0  0  0  0  0  0  0  0  0
    0.0000    2.5700    0.0000 C   0  0  0  0  0  0  0  0  0  0  0  0
   -1.3000    1.8200    0.0000 C   0  0  0  0  0  0  0  0  0  0  0  0
    1.3000    1.8200    0.0000 C   0  0  0  0  0  0  0  0  0  0  0  0
   -1.3000    0.3200    0.0000 C   0  0  0  0  0  0  0  0  0  0  0  0
    1.3000    0.3200    0.0000 C   0  0  0  0  0  0  0  0  0  0  0  0
   -0.0000   -0.4300    0.0000 C   0  0  0  0  0  0  0  0  0  0  0  0
  3  2  1  0
  4  2  1  0
  5  3  1  0
  6  4  1  0
  7  1  1  0
  7  5  2  0
  7  6  1  0
M  END
>  <NAME>  (4485) 
1-METHYLCYCLOHEXENE

>  <SYNONYMS>  (4485) 


>  <SPECTRUM TYPE>  (4485) 
MS1

>  <INSTRUMENT TYPE>  (4485) 
EI-B

>  <INSTRUMENT>  (4485) 
HITACHI RMU-6M

>  <ION MODE>  (4485) 
P

>  <INCHIKEY>  (4485) 
CTMHWPIWNRWQEG-UHFFFAOYSA-N

>  <FORMULA>  (4485) 
C7H12

>  <EXACT MASS>  (4485) 
96.093900384

>  <MW>  (4485) 
96

>  <ID>  (4485) 
JP005340

>  <CONTRIBUTOR>  (4485) 
University of Tokyo Team, {Faculty of Engineering, University of Tokyo

>  <COMMENT>  (4485) 
SMILES=[H]C(C1)=C(C)CCC1
InChI=InChI=1S/C7H12/c1-7-5-3-2-4-6-7/h5H,2-4,6H2,1H3
computed SMILES=C1=C(C)CCCC1
accession=JP005340
date=2016.01.19 (Created 2008.10.21, modified 2011.05.06)
author=YAMAMOTO M, DEP. CHEMISTRY, FAC. SCIENCE, NARA WOMEN'S UNIV.
license=CC BY-NC-SA
exact mass=96.0939
ionization energy=70 eV
ion type=[M]+*
computed spectral entropy=2.8680312205231657
computed normalized entropy=0.7625308763966958
SPLASH=splash10-00lr-9000000000-5168a17331c71387c458
submitter=submitter = University of Tokyo Team (Faculty of Engineering, University of Tokyo)
MoNA Rating=3.75

>  <NUM PEAKS>  (4485) 
43

>  <MASS SPECTRAL PEAKS>  (4485) 
27 1.28
28 14.43
29 2.47
30 7.5
32 0.82
33 0.62
38 0.51
39 2.05
40 23.16
41 5.86
42 16.38
43 3.18
44 1.03
46 0.92
47 1.03
50 2.52
51 5.44
52 2.82
53 17.67
54 18.59
55 33.74
56 2.26
59 0.62
62 0.82
63 1.9
65 4.11
66 3.65
67 39.63
68 42.03
69 2.41
71 1.28
77 5.65
78 1.49
79 10.12
80 2.05
81 99.99
82 6.57
91 2.52
93 1.28
94 0.51
95 7.4
96 38.25
97 2.88

$$$$

     RDKit          2D

  7  7  0  0  0  0  0  0  0  0999 V2000
   -0.0000   -1.9300    0.0000 C   0  0  0  0  0  0  0  0  0  0  0  0
    0.0000    2.5700    0.0000 C   0  0  0  0  0  0  0  0  0  0  0  0
   -1.3000    1.8200    0.0000 C   0  0  0  0  0  0  0  0  0  0  0  0
    1.3000    1.8200    0.0000 C   0  0  0  0  0  0  0  0  0  0  0  0
   -1.3000    0.3200    0.0000 C   0  0  0  0  0  0  0  0  0  0  0  0
    1.3000    0.3200    0.0000 C   0  0  0  0  0  0  0  0  0  0  0  0
   -0.0000   -0.4300    0.0000 C   0  0  0  0  0  0  0  0  0  0  0  0
  3  2  1  0
  4  2  1  0
  5  3  2  0
  6  4  1  0
  7  1  1  0
  7  5  1  0
  7  6  1  0
M  END
>  <NAME>  (4486) 
3-METHYLCYCLOHEXENE

>  <SYNONYMS>  (4486) 


>  <SPECTRUM TYPE>  (4486) 
MS1

>  <INSTRUMENT TYPE>  (4486) 
EI-B

>  <INSTRUMENT>  (4486) 
HITACHI RMU-6M

>  <ION MODE>  (4486) 
P

>  <INCHIKEY>  (4486) 
UZPWKTCMUADILM-UHFFFAOYSA-N

>  <FORMULA>  (4486) 
C7H12

>  <EXACT MASS>  (4486) 
96.093900384

>  <MW>  (4486) 
96

>  <ID>  (4486) 
JP005339

>  <CONTRIBUTOR>  (4486) 
University of Tokyo Team, {Faculty of Engineering, University of Tokyo

>  <COMMENT>  (4486) 
SMILES=CC(C1)C=CCC1
InChI=InChI=1S/C7H12/c1-7-5-3-2-4-6-7/h3,5,7H,2,4,6H2,1H3
computed SMILES=C1=CC(C)CCC1
accession=JP005339
date=2016.01.19 (Created 2008.10.21, modified 2011.05.06)
author=YAMAMOTO M, DEP. CHEMISTRY, FAC. SCIENCE, NARA WOMEN'S UNIV.
license=CC BY-NC-SA
exact mass=96.0939
ionization energy=70 eV
ion type=[M]+*
computed spectral entropy=2.8392619442091993
computed normalized entropy=0.7696814112596656
SPLASH=splash10-00lr-9000000000-34427aee78a6d1324948
submitter=submitter = University of Tokyo Team (Faculty of Engineering, University of Tokyo)
MoNA Rating=3.75

>  <NUM PEAKS>  (4486) 
40

>  <MASS SPECTRAL PEAKS>  (4486) 
27 1.34
28 14.71
29 2.31
30 7
33 0.57
38 0.57
39 2.06
40 22.74
41 5.04
42 17.08
43 2.78
44 0.57
45 0.67
46 0.51
47 0.57
50 2.57
51 5.66
52 3.09
53 17.08
54 19.34
55 32.15
56 2.01
62 0.77
63 1.75
65 4.37
66 3.86
67 33.69
68 37.8
69 2.16
77 6.28
78 1.59
79 11.57
80 2.06
81 99.99
82 6.79
91 1.65
93 0.93
95 7.05
96 33.69
97 2.93

$$$$

     RDKit          2D

  7  7  0  0  0  0  0  0  0  0999 V2000
   -0.0000   -1.9300    0.0000 C   0  0  0  0  0  0  0  0  0  0  0  0
    0.0000    2.5700    0.0000 C   0  0  0  0  0  0  0  0  0  0  0  0
   -1.3000    1.8200    0.0000 C   0  0  0  0  0  0  0  0  0  0  0  0
    1.3000    1.8200    0.0000 C   0  0  0  0  0  0  0  0  0  0  0  0
   -1.3000    0.3200    0.0000 C   0  0  0  0  0  0  0  0  0  0  0  0
    1.3000    0.3200    0.0000 C   0  0  0  0  0  0  0  0  0  0  0  0
   -0.0000   -0.4300    0.0000 C   0  0  0  0  0  0  0  0  0  0  0  0
  3  2  2  0
  4  2  1  0
  5  3  1  0
  6  4  1  0
  7  1  1  0
  7  5  1  0
  7  6  1  0
M  END
>  <NAME>  (4487) 
4-METHYLCYCLOHEXENE

>  <SYNONYMS>  (4487) 


>  <SPECTRUM TYPE>  (4487) 
MS1

>  <INSTRUMENT TYPE>  (4487) 
EI-B

>  <INSTRUMENT>  (4487) 
HITACHI RMU-6M

>  <ION MODE>  (4487) 
P

>  <INCHIKEY>  (4487) 
FSWCCQWDVGZMRD-UHFFFAOYSA-N

>  <FORMULA>  (4487) 
C7H12

>  <EXACT MASS>  (4487) 
96.093900384

>  <MW>  (4487) 
96

>  <ID>  (4487) 
JP005338

>  <CONTRIBUTOR>  (4487) 
University of Tokyo Team, {Faculty of Engineering, University of Tokyo

>  <COMMENT>  (4487) 
SMILES=CC(C1)CC=CC1
InChI=InChI=1S/C7H12/c1-7-5-3-2-4-6-7/h2-3,7H,4-6H2,1H3
computed SMILES=C1=CCC(C)CC1
accession=JP005338
date=2016.01.19 (Created 2008.10.21, modified 2011.05.06)
author=YAMAMOTO M, DEP. CHEMISTRY, FAC. SCIENCE, NARA WOMEN'S UNIV.
license=CC BY-NC-SA
exact mass=96.0939
ionization energy=70 eV
ion type=[M]+*
computed spectral entropy=2.8352191377254745
computed normalized entropy=0.7538070431018963
SPLASH=splash10-0a59-9000000000-cfbaf1b66e4ae62f3838
submitter=submitter = University of Tokyo Team (Faculty of Engineering, University of Tokyo)
MoNA Rating=3.75

>  <NUM PEAKS>  (4487) 
43

>  <MASS SPECTRAL PEAKS>  (4487) 
15 0.88
17 1.81
18 8.16
27 1.46
28 16.18
29 3.97
30 7.94
33 0.53
38 0.62
39 2.16
40 32.95
41 3.88
42 18.96
43 3.57
44 0.53
45 0.62
46 0.53
47 0.62
51 2.87
52 5.91
53 2.87
54 14.77
55 74.59
56 40.67
57 2.25
62 0.71
63 1.72
65 4.01
66 3.35
67 31.13
68 26.46
69 1.72
77 5.82
78 1.46
79 9.44
80 1.85
81 99.99
82 6.97
91 1.81
93 0.79
95 6.44
96 38.45
97 2.95

$$$$

     RDKit          2D

  5  4  0  0  0  0  0  0  0  0999 V2000
   -3.8971    2.2500    0.0000 C   0  0  0  0  0  0  0  0  0  0  0  0
    1.2990    2.2500    0.0000 C   0  0  0  0  0  0  0  0  0  0  0  0
   -2.5981    1.5000    0.0000 C   0  0  0  0  0  0  0  0  0  0  0  0
   -1.2990    2.2500    0.0000 C   0  0  0  0  0  0  0  0  0  0  0  0
    0.0000    1.5000    0.0000 Si  0  0  0  0  0  4  0  0  0  0  0  0
  3  1  1  0
  4  3  1  0
  5  2  1  0
  5  4  1  0
M  END
>  <NAME>  (4488) 
METHYLPROPYLSILANE

>  <SYNONYMS>  (4488) 


>  <SPECTRUM TYPE>  (4488) 
MS1

>  <INSTRUMENT TYPE>  (4488) 
EI-B

>  <INSTRUMENT>  (4488) 
HITACHI RMU-6M

>  <ION MODE>  (4488) 
P

>  <INCHIKEY>  (4488) 
ROMCRKSGDFOTBY-UHFFFAOYSA-N

>  <FORMULA>  (4488) 
C4H12Si

>  <EXACT MASS>  (4488) 
88.070826914

>  <MW>  (4488) 
88

>  <ID>  (4488) 
JP005335

>  <CONTRIBUTOR>  (4488) 
University of Tokyo Team, {Faculty of Engineering, University of Tokyo

>  <COMMENT>  (4488) 
SMILES=CCC[SiH2]C
InChI=InChI=1S/C4H12Si/c1-3-4-5-2/h3-5H2,1-2H3
computed SMILES=CCC[SiH2]C
accession=JP005335
date=2016.01.19 (Created 2008.10.21, modified 2011.05.06)
author=YAMAMOTO M, DEP. CHEMISTRY, FAC. SCIENCE, NARA WOMEN'S UNIV.
license=CC BY-NC-SA
exact mass=88.07083
ionization energy=70 eV
ion type=[M]+*
computed spectral entropy=2.5577317174433434
computed normalized entropy=0.7380053729359846
SPLASH=splash10-052n-9000000000-14081c818ecfd2b0f7f4
submitter=submitter = University of Tokyo Team (Faculty of Engineering, University of Tokyo)
MoNA Rating=3.75

>  <NUM PEAKS>  (4488) 
32

>  <MASS SPECTRAL PEAKS>  (4488) 
15 0.8
27 5.7
28 6.8
29 0.5
31 4
39 4.5
41 5.7
42 1.3
43 27
44 49.3
45 99.99
46 0.73
47 3.2
53 2.6
55 2.8
57 0.18
58 30.9
59 40
60 3.6
61 0.15
66 1.3
67 1.3
70 1.7
71 0.59
72 7.1
73 33.1
74 2.8
75 0.1
85 1.4
86 37.7
87 16.4
88 15.6

$$$$

     RDKit          2D

  4  3  0  0  0  0  0  0  0  0999 V2000
   -2.5981    2.2500    0.0000 C   0  0  0  0  0  0  0  0  0  0  0  0
    1.2990    1.5000    0.0000 C   0  0  0  0  0  0  0  0  0  0  0  0
   -1.2990    1.5000    0.0000 C   0  0  0  0  0  0  0  0  0  0  0  0
    0.0000    2.2500    0.0000 Si  0  0  0  0  0  4  0  0  0  0  0  0
  3  1  1  0
  4  2  1  0
  4  3  1  0
M  END
>  <NAME>  (4489) 
ETHYLMETHYLSILANE

>  <SYNONYMS>  (4489) 


>  <SPECTRUM TYPE>  (4489) 
MS1

>  <INSTRUMENT TYPE>  (4489) 
EI-B

>  <INSTRUMENT>  (4489) 
HITACHI RMU-6M

>  <ION MODE>  (4489) 
P

>  <INCHIKEY>  (4489) 
BCSGKKPVRAKXLL-UHFFFAOYSA-N

>  <FORMULA>  (4489) 
C3H10Si

>  <EXACT MASS>  (4489) 
74.05517685

>  <MW>  (4489) 
74

>  <ID>  (4489) 
JP005334

>  <CONTRIBUTOR>  (4489) 
University of Tokyo Team, {Faculty of Engineering, University of Tokyo

>  <COMMENT>  (4489) 
SMILES=CC[SiH2]C
InChI=InChI=1S/C3H10Si/c1-3-4-2/h3-4H2,1-2H3
computed SMILES=CC[SiH2]C
accession=JP005334
date=2016.01.19 (Created 2008.10.21, modified 2011.05.06)
author=YAMAMOTO M, DEP. CHEMISTRY, FAC. SCIENCE, NARA WOMEN'S UNIV.
license=CC BY-NC-SA
exact mass=74.05518
ionization energy=70 eV
ion type=[M]+*
computed spectral entropy=2.377449547067175
computed normalized entropy=0.7213492790222501
SPLASH=splash10-00dm-9000000000-654f92399d31f56fba70
submitter=submitter = University of Tokyo Team (Faculty of Engineering, University of Tokyo)
MoNA Rating=3.75

>  <NUM PEAKS>  (4489) 
27

>  <MASS SPECTRAL PEAKS>  (4489) 
26 1
27 4.7
28 9.5
29 0.88
30 1.7
31 11.8
39 0.8
41 0.24
42 8.6
43 31.2
44 80.5
45 99.99
46 7.2
47 3
53 4.2
54 0.1
55 4.2
56 2.6
57 4.8
58 1.41
59 23.2
60 2.1
70 2.1
71 0.25
72 55.1
73 43.4
74 17.2

$$$$

     RDKit          2D

  5  4  0  0  0  0  0  0  0  0999 V2000
   -3.8971    2.2500    0.0000 C   0  0  0  0  0  0  0  0  0  0  0  0
    1.2990    2.2500    0.0000 C   0  0  0  0  0  0  0  0  0  0  0  0
   -2.5981    1.5000    0.0000 C   0  0  0  0  0  0  0  0  0  0  0  0
    0.0000    1.5000    0.0000 C   0  0  0  0  0  0  0  0  0  0  0  0
   -1.2990    2.2500    0.0000 Si  0  0  0  0  0  4  0  0  0  0  0  0
  3  1  1  0
  4  2  1  0
  5  3  1  0
  5  4  1  0
M  END
>  <NAME>  (4490) 
DIETHYLSILANE

>  <SYNONYMS>  (4490) 


>  <SPECTRUM TYPE>  (4490) 
MS1

>  <INSTRUMENT TYPE>  (4490) 
EI-B

>  <INSTRUMENT>  (4490) 
HITACHI RMU-6M

>  <ION MODE>  (4490) 
P

>  <INCHIKEY>  (4490) 
UCXUKTLCVSGCNR-UHFFFAOYSA-N

>  <FORMULA>  (4490) 
C4H12Si

>  <EXACT MASS>  (4490) 
88.070826914

>  <MW>  (4490) 
88

>  <ID>  (4490) 
JP005333

>  <CONTRIBUTOR>  (4490) 
University of Tokyo Team, {Faculty of Engineering, University of Tokyo

>  <COMMENT>  (4490) 
SMILES=CC[SiH2]CC
InChI=InChI=1S/C4H12Si/c1-3-5-4-2/h3-5H2,1-2H3
computed SMILES=CC[SiH2]CC
accession=JP005333
date=2016.01.19 (Created 2008.10.21, modified 2011.05.06)
author=YAMAMOTO M, DEP. CHEMISTRY, FAC. SCIENCE, NARA WOMEN'S UNIV.
license=CC BY-NC-SA
exact mass=88.07083
ionization energy=70 eV
ion type=[M]+*
computed spectral entropy=2.121816887168724
computed normalized entropy=0.6591794783682293
SPLASH=splash10-0a4i-9000000000-b438c271a937e8d07177
submitter=submitter = University of Tokyo Team (Faculty of Engineering, University of Tokyo)
MoNA Rating=3.75

>  <NUM PEAKS>  (4490) 
25

>  <MASS SPECTRAL PEAKS>  (4490) 
26 1
27 5.1
28 3.8
29 1.13
30 2.7
31 31.5
32 2.1
33 0.12
42 2.5
43 23.8
44 2.6
45 0.26
53 4.7
54 1.6
55 6.2
56 0.55
57 10
58 99.99
59 96.9
60 0.97
61 3.7
86 16.2
87 17.7
88 1.68
89 2

$$$$

     RDKit          2D

  6  5  0  0  0  0  0  0  0  0999 V2000
    0.0000    0.0000    0.0000 C   0  0  0  0  0  0  0  0  0  0  0  0
   -0.5490    3.5490    0.0000 C   0  0  0  0  0  0  0  0  0  0  0  0
   -2.5981    3.0000    0.0000 C   0  0  0  0  0  0  0  0  0  0  0  0
   -2.0490    0.9510    0.0000 C   0  0  0  0  0  0  0  0  0  0  0  0
    0.0000    1.5000    0.0000 C   0  0  0  0  0  0  0  0  0  0  0  0
   -1.2990    2.2500    0.0000 Si  0  0  0  0  0  4  0  0  0  0  0  0
  5  1  1  0
  6  2  1  0
  6  3  1  0
  6  4  1  0
  6  5  1  0
M  END
>  <NAME>  (4491) 
ETHYLTRIMETHYLSILANE

>  <SYNONYMS>  (4491) 


>  <SPECTRUM TYPE>  (4491) 
MS1

>  <INSTRUMENT TYPE>  (4491) 
EI-B

>  <INSTRUMENT>  (4491) 
HITACHI RMU-6M

>  <ION MODE>  (4491) 
P

>  <INCHIKEY>  (4491) 
UKAJDOBPPOAZSS-UHFFFAOYSA-N

>  <FORMULA>  (4491) 
C5H14Si

>  <EXACT MASS>  (4491) 
102.08647697800001

>  <MW>  (4491) 
102

>  <ID>  (4491) 
JP005332

>  <CONTRIBUTOR>  (4491) 
University of Tokyo Team, {Faculty of Engineering, University of Tokyo

>  <COMMENT>  (4491) 
computed SMILES=CC[Si](C)(C)C
SMILES=CC[Si](C)(C)C
InChI=InChI=1S/C5H14Si/c1-5-6(2,3)4/h5H2,1-4H3
accession=JP005332
date=2016.01.19 (Created 2008.10.21, modified 2011.05.06)
author=YAMAMOTO M, DEP. CHEMISTRY, FAC. SCIENCE, NARA WOMEN'S UNIV.
license=CC BY-NC-SA
exact mass=102.08648
ionization energy=70 eV
ion type=[M]+*
computed spectral entropy=1.7793598382558933
computed normalized entropy=0.567489434110983
SPLASH=splash10-05fr-9000000000-e0c82ddae9b1691b9716
submitter=submitter = University of Tokyo Team (Faculty of Engineering, University of Tokyo)
MoNA Rating=3.75

>  <NUM PEAKS>  (4491) 
23

>  <MASS SPECTRAL PEAKS>  (4491) 
27 1.1
28 3.5
29 3.5
31 0.29
42 1.8
43 11.1
44 2.5
45 0.97
53 1.3
55 1.8
57 1.6
58 0.36
59 51.4
60 3.6
61 1.6
72 0.1
73 99.99
74 7.9
75 3.4
87 2.1
88 2.2
89 0.8
102 5.2

$$$$

     RDKit          2D

 11 11  0  0  1  0  0  0  0  0999 V2000
   -2.2386   -2.4551    0.0000 C   0  0  0  0  0  0  0  0  0  0  0  0
   -3.5376   -0.2051    0.0000 C   0  0  0  0  0  0  0  0  0  0  0  0
    2.9576    2.0449    0.0000 C   0  0  0  0  0  0  0  0  0  0  0  0
    0.3590    2.0458    0.0000 C   0  0  0  0  0  0  0  0  0  0  0  0
   -0.9400    1.2958    0.0000 C   0  0  0  0  0  0  0  0  0  0  0  0
    1.6590   -0.2059    0.0000 C   0  0  0  0  0  0  0  0  0  0  0  0
   -2.2386   -0.9551    0.0000 C   0  0  0  0  0  0  0  0  0  0  0  0
    1.6585    1.2949    0.0000 C   0  0  0  0  0  0  0  0  0  0  0  0
   -0.9395   -0.2051    0.0000 C   0  0  0  0  0  0  0  0  0  0  0  0
    0.3600   -0.9559    0.0000 C   0  0  0  0  0  0  0  0  0  0  0  0
    0.3597   -2.4559    0.0000 O   0  0  0  0  0  0  0  0  0  0  0  0
  5  4  1  0
  7  1  2  0
  7  2  1  0
  8  3  1  1
  8  4  1  0
  8  6  1  0
  9  5  1  0
  9  7  1  6
 10  6  1  0
 10  9  1  0
 10 11  1  1
M  END
>  <NAME>  (4492) 
ISOPULEGOL(AXIAL)

>  <SYNONYMS>  (4492) 
(1R-(1ALPHA,2BETA,5ALPHA))-5-METHYL-2-(1-METHYLETHENYL)CYCLOHEXANOL(AXIAL)

>  <SPECTRUM TYPE>  (4492) 
MS1

>  <INSTRUMENT TYPE>  (4492) 
EI-B

>  <INSTRUMENT>  (4492) 
HITACHI M-80

>  <ION MODE>  (4492) 
P

>  <INCHIKEY>  (4492) 
ZYTMANIQRDEHIO-KXUCPTDWSA-N

>  <FORMULA>  (4492) 
C10H18O

>  <EXACT MASS>  (4492) 
154.135765196

>  <MW>  (4492) 
154

>  <ID>  (4492) 
JP005331

>  <CONTRIBUTOR>  (4492) 
University of Tokyo Team, {Faculty of Engineering, University of Tokyo

>  <COMMENT>  (4492) 
SMILES=CC(=C)C([H])(C1)C([H])(O)CC([H])(C)C1
InChI=InChI=1S/C10H18O/c1-7(2)9-5-4-8(3)6-10(9)11/h8-11H,1,4-6H2,2-3H3/t8-,9+,10-/m1/s1
computed SMILES=OC1CC(C)CCC1C(=C)C
accession=JP005331
date=2016.01.19 (Created 2008.10.21, modified 2011.05.06)
author=YAMAMOTO M, DEP. CHEMISTRY, FAC. SCIENCE, NARA WOMEN'S UNIV.
license=CC BY-NC-SA
exact mass=154.13577
ionization energy=70 eV
ion type=[M]+*
computed spectral entropy=3.710129382474076
computed normalized entropy=0.8989601588739012
SPLASH=splash10-015c-9100000000-48d93dc21b89adaab452
submitter=submitter = University of Tokyo Team (Faculty of Engineering, University of Tokyo)
MoNA Rating=3.75

>  <NUM PEAKS>  (4492) 
62

>  <MASS SPECTRAL PEAKS>  (4492) 
27 49.77
29 40.72
31 12.76
39 57.85
40 12.67
41 99.99
42 17.73
43 37.77
44 10.95
45 2.88
51 3.73
52 4.08
53 34.67
54 6.05
55 64.16
56 38.57
58 2.75
59 3.98
63 1.87
65 7.3
66 3.72
67 51.19
68 60.57
69 55.84
70 17.63
71 54.26
72 5.38
77 8.16
79 25.56
80 16.33
81 65.21
82 14.86
83 28.74
84 43.04
85 12.68
86 2.04
91 8.04
92 8.16
93 33.88
94 16.95
95 37.77
96 8.36
97 22.69
98 14.21
99 3.14
105 3.5
107 16.21
108 10.76
109 17.48
110 16.16
111 23.55
112 11.57
113 1.76
121 37.37
122 4.08
123 5.85
136 25.44
137 3.97
139 12.5
140 2.26
154 8.87
155 1.8

$$$$

     RDKit          2D

 11 11  0  0  1  0  0  0  0  0999 V2000
   -2.2386   -2.4551    0.0000 C   0  0  0  0  0  0  0  0  0  0  0  0
   -3.5376   -0.2051    0.0000 C   0  0  0  0  0  0  0  0  0  0  0  0
    2.9576    2.0449    0.0000 C   0  0  0  0  0  0  0  0  0  0  0  0
    0.3590    2.0458    0.0000 C   0  0  0  0  0  0  0  0  0  0  0  0
   -0.9400    1.2958    0.0000 C   0  0  0  0  0  0  0  0  0  0  0  0
    1.6590   -0.2059    0.0000 C   0  0  0  0  0  0  0  0  0  0  0  0
   -2.2386   -0.9551    0.0000 C   0  0  0  0  0  0  0  0  0  0  0  0
    1.6585    1.2949    0.0000 C   0  0  0  0  0  0  0  0  0  0  0  0
   -0.9395   -0.2051    0.0000 C   0  0  0  0  0  0  0  0  0  0  0  0
    0.3600   -0.9559    0.0000 C   0  0  0  0  0  0  0  0  0  0  0  0
    0.3597   -2.4559    0.0000 O   0  0  0  0  0  0  0  0  0  0  0  0
  5  4  1  0
  7  1  2  0
  7  2  1  0
  8  3  1  1
  8  4  1  0
  8  6  1  0
  9  5  1  0
  9  7  1  6
 10  6  1  0
 10  9  1  0
 10 11  1  1
M  END
>  <NAME>  (4493) 
ISOPULEGOL(EQUATORIAL)

>  <SYNONYMS>  (4493) 
(1R-(1ALPHA,2BETA,5ALPHA))-5-METHYL-2-(1-METHYLETHENYL)CYCLOHEXANOL(EQUATORIAL)

>  <SPECTRUM TYPE>  (4493) 
MS1

>  <INSTRUMENT TYPE>  (4493) 
EI-B

>  <INSTRUMENT>  (4493) 
HITACHI M-80

>  <ION MODE>  (4493) 
P

>  <INCHIKEY>  (4493) 
ZYTMANIQRDEHIO-KXUCPTDWSA-N

>  <FORMULA>  (4493) 
C10H18O

>  <EXACT MASS>  (4493) 
154.135765196

>  <MW>  (4493) 
154

>  <ID>  (4493) 
JP005330

>  <CONTRIBUTOR>  (4493) 
University of Tokyo Team, {Faculty of Engineering, University of Tokyo

>  <COMMENT>  (4493) 
SMILES=CC(=C)C([H])(C1)C([H])(O)CC([H])(C)C1
InChI=InChI=1S/C10H18O/c1-7(2)9-5-4-8(3)6-10(9)11/h8-11H,1,4-6H2,2-3H3/t8-,9+,10-/m1/s1
computed SMILES=OC1CC(C)CCC1C(=C)C
accession=JP005330
date=2016.01.19 (Created 2008.10.21, modified 2011.05.06)
author=YAMAMOTO M, DEP. CHEMISTRY, FAC. SCIENCE, NARA WOMEN'S UNIV.
license=CC BY-NC-SA
exact mass=154.13577
ionization energy=70 eV
ion type=[M]+*
computed spectral entropy=3.711004666215899
computed normalized entropy=0.9219081837637293
SPLASH=splash10-066u-9100000000-b05fac870c7dbc59229b
submitter=submitter = University of Tokyo Team (Faculty of Engineering, University of Tokyo)
MoNA Rating=3.75

>  <NUM PEAKS>  (4493) 
56

>  <MASS SPECTRAL PEAKS>  (4493) 
27 37.4
28 3.03
29 43.62
31 13.9
39 47.76
40 13.05
41 99.99
42 11.75
43 44.5
44 10.87
45 3.56
51 8.66
53 30.8
54 10.51
55 53.17
56 46.61
57 17.5
59 4.72
65 6.61
66 3.69
67 42.99
68 55.96
69 61.93
70 17.1
71 55.17
72 9.15
77 7.98
79 16.8
80 12.7
81 42.13
82 14.88
83 29.35
84 41.37
85 12.04
91 4.82
92 8.15
93 34.01
94 15.75
95 38.55
96 8.34
97 21.7
98 13.9
105 3.42
107 14.75
108 9.64
109 16.69
110 19.4
111 23.27
112 13.52
121 31.85
122 6.78
123 7.4
136 21.57
137 2.97
139 11.9
154 7.98

$$$$

     RDKit          2D

 11 11  0  0  1  0  0  0  0  0999 V2000
   -2.5989   -1.5002    0.0000 C   0  0  0  0  0  0  0  0  0  0  0  0
    3.3491    0.2013    0.0000 C   0  0  0  0  0  0  0  0  0  0  0  0
    3.8978    2.2504    0.0000 C   0  0  0  0  0  0  0  0  0  0  0  0
   -1.3000    0.7500    0.0000 C   0  0  0  0  0  0  0  0  0  0  0  0
   -0.0000   -1.5000    0.0000 C   0  0  0  0  0  0  0  0  0  0  0  0
    0.0000    1.5000    0.0000 C   0  0  0  0  0  0  0  0  0  0  0  0
    1.3000   -0.7500    0.0000 C   0  0  0  0  0  0  0  0  0  0  0  0
   -1.3000   -0.7500    0.0000 C   0  0  0  0  0  0  0  0  0  0  0  0
    1.3000    0.7500    0.0000 C   0  0  0  0  0  0  0  0  0  0  0  0
    2.5989    1.5002    0.0000 C   0  0  0  0  0  0  0  0  0  0  0  0
    1.8487    2.7991    0.0000 O   0  0  0  0  0  0  0  0  0  0  0  0
  6  4  1  0
  7  5  1  0
  8  1  1  0
  8  4  2  0
  8  5  1  0
  9  6  1  0
  9  7  1  0
 10  2  1  0
 10  3  1  0
  9 10  1  1
 11 10  1  0
M  END
>  <NAME>  (4494) 
ALPHA-TERPINEOL

>  <SYNONYMS>  (4494) 
P-MENTH-1-EN-8-OL

>  <SPECTRUM TYPE>  (4494) 
MS1

>  <INSTRUMENT TYPE>  (4494) 
EI-B

>  <INSTRUMENT>  (4494) 
HITACHI RMU-6M

>  <ION MODE>  (4494) 
P

>  <INCHIKEY>  (4494) 
WUOACPNHFRMFPN-SECBINFHSA-N

>  <FORMULA>  (4494) 
C10H18O

>  <EXACT MASS>  (4494) 
154.135765196

>  <MW>  (4494) 
154

>  <ID>  (4494) 
JP005329

>  <CONTRIBUTOR>  (4494) 
University of Tokyo Team, {Faculty of Engineering, University of Tokyo

>  <COMMENT>  (4494) 
SMILES=CC(C1)=C([H])CC([H])(C1)C(C)(C)O
InChI=InChI=1S/C10H18O/c1-8-4-6-9(7-5-8)10(2,3)11/h4,9,11H,5-7H2,1-3H3/t9-/m1/s1
computed SMILES=OC(C)(C)C1CC=C(C)CC1
accession=JP005329
date=2016.01.19 (Created 2008.10.21, modified 2011.05.06)
author=YAMAMOTO M, DEP. CHEMISTRY, FAC. SCIENCE, NARA WOMEN'S UNIV.
license=CC BY-NC-SA
exact mass=154.13577
ionization energy=70 eV
ion type=[M]+*
computed spectral entropy=3.1588938709768586
computed normalized entropy=0.820460459638956
SPLASH=splash10-052f-9200000000-b00b2a6ddf8692ac7554
submitter=submitter = University of Tokyo Team (Faculty of Engineering, University of Tokyo)
MoNA Rating=3.75

>  <NUM PEAKS>  (4494) 
47

>  <MASS SPECTRAL PEAKS>  (4494) 
15 1.7
27 8.06
28 1.07
29 5.99
31 8.06
39 10.29
40 2.42
41 17.37
42 1.43
43 34.13
45 1.97
51 2.59
52 1.34
53 7.97
54 4.92
55 12.63
57 1.07
58 1.07
59 99.99
60 3.31
65 2.95
66 1.43
67 14.86
68 14.96
69 3.58
71 7.79
77 7.07
78 1.61
79 10.74
80 5.55
81 31.13
82 2.33
91 5.46
92 15.22
93 51.34
94 7.43
95 13.97
96 7.25
105 2.23
107 5.01
108 2.33
121 38.27
122 4.02
136 41.81
137 5.28
139 6.89
154 0.35

$$$$

     RDKit          2D

  8  7  0  0  0  0  0  0  0  0999 V2000
    1.9486    3.3750    0.0000 C   0  0  0  0  0  0  0  0  0  0  0  0
   -3.2476    1.8750    0.0000 C   0  0  0  0  0  0  0  0  0  0  0  0
    0.6495    4.1250    0.0000 C   0  0  0  0  0  0  0  0  0  0  0  0
   -0.6495    3.3750    0.0000 C   0  0  0  0  0  0  0  0  0  0  0  0
   -1.9486    4.1250    0.0000 C   0  0  0  0  0  0  0  0  0  0  0  0
   -4.5466    4.1250    0.0000 C   0  0  0  0  0  0  0  0  0  0  0  0
   -3.2476    3.3750    0.0000 C   0  0  0  0  0  0  0  0  0  0  0  0
   -5.8457    3.3750    0.0000 O   0  0  0  0  0  0  0  0  0  0  0  0
  3  1  1  0
  4  3  1  0
  5  4  1  0
  7  2  1  0
  7  5  1  0
  7  6  1  0
  8  6  1  0
M  END
>  <NAME>  (4495) 
2-METHYL-1-HEXANOL

>  <SYNONYMS>  (4495) 


>  <SPECTRUM TYPE>  (4495) 
MS1

>  <INSTRUMENT TYPE>  (4495) 
EI-B

>  <INSTRUMENT>  (4495) 
HITACHI RMU-6M

>  <ION MODE>  (4495) 
P

>  <INCHIKEY>  (4495) 
LCFKURIJYIJNRU-UHFFFAOYSA-N

>  <FORMULA>  (4495) 
C7H16O

>  <EXACT MASS>  (4495) 
116.120115132

>  <MW>  (4495) 
116

>  <ID>  (4495) 
JP005328

>  <CONTRIBUTOR>  (4495) 
University of Tokyo Team, {Faculty of Engineering, University of Tokyo

>  <COMMENT>  (4495) 
SMILES=CCCCC(C)CO
InChI=InChI=1S/C7H16O/c1-3-4-5-7(2)6-8/h7-8H,3-6H2,1-2H3
computed SMILES=OCC(C)CCCC
accession=JP005328
date=2016.01.19 (Created 2008.10.21, modified 2011.05.06)
author=YAMAMOTO M, DEP. CHEMISTRY, FAC. SCIENCE, NARA WOMEN'S UNIV.
license=CC BY-NC-SA
exact mass=116.12012
ionization energy=70 eV
ion type=[M]+*
computed spectral entropy=2.5982269591537324
computed normalized entropy=0.8071845888184018
SPLASH=splash10-052f-9000000000-b337b824323d290d0e42
submitter=submitter = University of Tokyo Team (Faculty of Engineering, University of Tokyo)
MoNA Rating=3.75

>  <NUM PEAKS>  (4495) 
25

>  <MASS SPECTRAL PEAKS>  (4495) 
27 11.84
28 3.36
29 12.89
31 10.56
39 7.66
40 1.29
41 27.87
42 8.24
43 99.99
44 3.37
45 2.21
53 1.62
54 1.51
55 15.33
56 32.4
57 17.42
59 1.28
68 1.62
69 21.95
70 12.89
83 3.71
84 11.26
85 21.95
86 1.39
98 10.86

$$$$

     RDKit          2D

  8  7  0  0  0  0  0  0  0  0999 V2000
   -6.4952    4.5000    0.0000 C   0  0  0  0  0  0  0  0  0  0  0  0
   -5.1962    3.7500    0.0000 C   0  0  0  0  0  0  0  0  0  0  0  0
   -3.8971    4.5000    0.0000 C   0  0  0  0  0  0  0  0  0  0  0  0
   -2.5981    3.7500    0.0000 C   0  0  0  0  0  0  0  0  0  0  0  0
   -1.2990    4.5000    0.0000 C   0  0  0  0  0  0  0  0  0  0  0  0
    0.0000    3.7500    0.0000 C   0  0  0  0  0  0  0  0  0  0  0  0
    1.2990    4.5000    0.0000 C   0  0  0  0  0  0  0  0  0  0  0  0
    2.5981    3.7500    0.0000 O   0  0  0  0  0  0  0  0  0  0  0  0
  2  1  1  0
  3  2  1  0
  4  3  1  0
  5  4  1  0
  6  5  1  0
  7  6  1  0
  8  7  1  0
M  END
>  <NAME>  (4496) 
HEPTYL ALCOHOL

>  <SYNONYMS>  (4496) 


>  <SPECTRUM TYPE>  (4496) 
MS1

>  <INSTRUMENT TYPE>  (4496) 
EI-B

>  <INSTRUMENT>  (4496) 
HITACHI RMU-6M

>  <ION MODE>  (4496) 
P

>  <INCHIKEY>  (4496) 
BBMCTIGTTCKYKF-UHFFFAOYSA-N

>  <FORMULA>  (4496) 
C7H16O

>  <EXACT MASS>  (4496) 
116.120115132

>  <MW>  (4496) 
116

>  <ID>  (4496) 
JP005327

>  <CONTRIBUTOR>  (4496) 
University of Tokyo Team, {Faculty of Engineering, University of Tokyo

>  <COMMENT>  (4496) 
SMILES=CCCCCCCO
InChI=InChI=1S/C7H16O/c1-2-3-4-5-6-7-8/h8H,2-7H2,1H3
computed SMILES=OCCCCCCC
accession=JP005327
date=2016.01.19 (Created 2008.10.21, modified 2011.05.06)
author=YAMAMOTO M, DEP. CHEMISTRY, FAC. SCIENCE, NARA WOMEN'S UNIV.
license=CC BY-NC-SA
exact mass=116.12012
ionization energy=70 eV
ion type=[M]+*
computed spectral entropy=2.704038552778115
computed normalized entropy=0.8114863732166125
SPLASH=splash10-0596-9000000000-7ad1437199575e596cd7
submitter=submitter = University of Tokyo Team (Faculty of Engineering, University of Tokyo)
MoNA Rating=3.75

>  <NUM PEAKS>  (4496) 
28

>  <MASS SPECTRAL PEAKS>  (4496) 
15 1.88
26 1.57
27 24.29
28 7.05
29 30.2
31 28.68
39 15.04
40 2.98
41 65.6
42 47.81
43 69.27
44 2.51
45 3.6
53 3.29
54 5.64
55 63.65
56 93.26
57 22.73
67 1.73
68 14.73
69 51.5
70 99.99
71 6.26
73 2.04
83 7.99
85 1.09
97 1.09
98 11.59

$$$$

     RDKit          2D

  6  5  0  0  0  0  0  0  0  0999 V2000
   -1.9486    1.1250    0.0000 C   0  0  0  0  0  0  0  0  0  0  0  0
    1.3995    1.3260    0.0000 C   0  0  0  0  0  0  0  0  0  0  0  0
    1.9486    3.3750    0.0000 C   0  0  0  0  0  0  0  0  0  0  0  0
   -0.6495    1.8750    0.0000 C   0  0  0  0  0  0  0  0  0  0  0  0
    0.6495    2.6250    0.0000 C   0  0  0  0  0  0  0  0  0  0  0  0
   -0.1005    3.9240    0.0000 O   0  0  0  0  0  0  0  0  0  0  0  0
  4  1  3  0
  5  2  1  0
  5  3  1  0
  5  4  1  0
  6  5  1  0
M  END
>  <NAME>  (4497) 
3-METHYL-1-BUTYN-3-OL

>  <SYNONYMS>  (4497) 


>  <SPECTRUM TYPE>  (4497) 
MS1

>  <INSTRUMENT TYPE>  (4497) 
EI-B

>  <INSTRUMENT>  (4497) 
HITACHI RMU-6M

>  <ION MODE>  (4497) 
P

>  <INCHIKEY>  (4497) 
CEBKHWWANWSNTI-UHFFFAOYSA-N

>  <FORMULA>  (4497) 
C5H8O

>  <EXACT MASS>  (4497) 
84.057514876

>  <MW>  (4497) 
84

>  <ID>  (4497) 
JP005326

>  <CONTRIBUTOR>  (4497) 
University of Tokyo Team, {Faculty of Engineering, University of Tokyo

>  <COMMENT>  (4497) 
SMILES=C#CC(C)(C)O
InChI=InChI=1S/C5H8O/c1-4-5(2,3)6/h1,6H,2-3H3
computed SMILES=C#CC(O)(C)C
accession=JP005326
date=2016.01.19 (Created 2008.10.21, modified 2011.05.06)
author=YAMAMOTO M, DEP. CHEMISTRY, FAC. SCIENCE, NARA WOMEN'S UNIV.
license=CC BY-NC-SA
exact mass=84.05751
ionization energy=70 eV
ion type=[M]+*
computed spectral entropy=2.082185012834104
computed normalized entropy=0.6390802078868221
SPLASH=splash10-00di-9000000000-3ef028875ff7d084c478
submitter=submitter = University of Tokyo Team (Faculty of Engineering, University of Tokyo)
MoNA Rating=3.75

>  <NUM PEAKS>  (4497) 
26

>  <MASS SPECTRAL PEAKS>  (4497) 
15 4.73
26 1.48
27 3.65
29 1.58
31 1.28
37 1.68
38 2.86
39 12.72
40 2.17
41 9.66
42 1.97
43 41.66
44 1.28
49 1.08
50 3.64
51 4.34
53 4.53
55 2.07
56 1.28
65 1.18
67 2.07
69 2.66
70 99.99
71 4.63
83 6.8
84 0.49

$$$$

     RDKit          2D

  7  7  0  0  0  0  0  0  0  0999 V2000
   -0.0000   -1.9300    0.0000 C   0  0  0  0  0  0  0  0  0  0  0  0
    0.0000    2.5700    0.0000 C   0  0  0  0  0  0  0  0  0  0  0  0
   -1.3000    1.8200    0.0000 C   0  0  0  0  0  0  0  0  0  0  0  0
    1.3000    1.8200    0.0000 C   0  0  0  0  0  0  0  0  0  0  0  0
   -1.3000    0.3200    0.0000 C   0  0  0  0  0  0  0  0  0  0  0  0
    1.3000    0.3200    0.0000 C   0  0  0  0  0  0  0  0  0  0  0  0
   -0.0000   -0.4300    0.0000 C   0  0  0  0  0  0  0  0  0  0  0  0
  3  2  1  0
  4  2  1  0
  5  3  1  0
  6  4  1  0
  7  1  1  0
  7  5  1  0
  7  6  1  0
M  END
>  <NAME>  (4498) 
METHYLCYCLOHEXANE

>  <SYNONYMS>  (4498) 


>  <SPECTRUM TYPE>  (4498) 
MS1

>  <INSTRUMENT TYPE>  (4498) 
EI-B

>  <INSTRUMENT>  (4498) 
HITACHI RMU-6M

>  <ION MODE>  (4498) 
P

>  <INCHIKEY>  (4498) 
UAEPNZWRGJTJPN-UHFFFAOYSA-N

>  <FORMULA>  (4498) 
C7H14

>  <EXACT MASS>  (4498) 
98.109550448

>  <MW>  (4498) 
98

>  <ID>  (4498) 
JP005325

>  <CONTRIBUTOR>  (4498) 
University of Tokyo Team, {Faculty of Engineering, University of Tokyo

>  <COMMENT>  (4498) 
SMILES=CC(C1)CCCC1
InChI=InChI=1S/C7H14/c1-7-5-3-2-4-6-7/h7H,2-6H2,1H3
computed SMILES=CC1CCCCC1
accession=JP005325
date=2016.01.19 (Created 2008.10.21, modified 2011.05.06)
author=YAMAMOTO M, DEP. CHEMISTRY, FAC. SCIENCE, NARA WOMEN'S UNIV.
license=CC BY-NC-SA
exact mass=98.10955
ionization energy=70 eV
ion type=[M]+*
computed spectral entropy=2.722848717320289
computed normalized entropy=0.7856480683137711
SPLASH=splash10-0a5c-9000000000-c6881e4acb08e32a7f47
submitter=submitter = University of Tokyo Team (Faculty of Engineering, University of Tokyo)
MoNA Rating=3.75

>  <NUM PEAKS>  (4498) 
32

>  <MASS SPECTRAL PEAKS>  (4498) 
15 1.02
26 1.43
27 16.17
28 4.09
29 13.2
38 1.12
39 19.64
40 3.37
41 44.8
42 29.67
43 7.16
50 1.02
51 1.94
52 1.02
53 5.22
54 4.81
55 77.75
56 28.8
57 4.91
65 1.02
67 4.71
68 9.21
69 21.59
70 21.9
71 1.22
81 1.33
82 15.14
83 99.99
84 6.25
97 2.35
98 48.84
99 3.78

$$$$

     RDKit          2D

  8  7  0  0  0  0  0  0  0  0999 V2000
    1.8983    1.9620    0.0000 C   0  0  0  0  0  0  0  0  0  0  0  0
    0.5993    4.2120    0.0000 C   0  0  0  0  0  0  0  0  0  0  0  0
   -1.2488    4.0111    0.0000 C   0  0  0  0  0  0  0  0  0  0  0  0
   -3.2978    3.4620    0.0000 C   0  0  0  0  0  0  0  0  0  0  0  0
   -2.7488    1.4130    0.0000 C   0  0  0  0  0  0  0  0  0  0  0  0
   -0.6998    1.9620    0.0000 C   0  0  0  0  0  0  0  0  0  0  0  0
    0.5993    2.7120    0.0000 C   0  0  0  0  0  0  0  0  0  0  0  0
   -1.9988    2.7120    0.0000 C   0  0  0  0  0  0  0  0  0  0  0  0
  7  1  1  0
  7  2  1  0
  7  6  1  0
  8  3  1  0
  8  4  1  0
  8  5  1  0
  8  6  1  0
M  END
>  <NAME>  (4499) 
2,2,4-TRIMETHYLPENTANE

>  <SYNONYMS>  (4499) 


>  <SPECTRUM TYPE>  (4499) 
MS1

>  <INSTRUMENT TYPE>  (4499) 
EI-B

>  <INSTRUMENT>  (4499) 
HITACHI RMU-6M

>  <ION MODE>  (4499) 
P

>  <INCHIKEY>  (4499) 
NHTMVDHEPJAVLT-UHFFFAOYSA-N

>  <FORMULA>  (4499) 
C8H18

>  <EXACT MASS>  (4499) 
114.14085057599999

>  <MW>  (4499) 
114

>  <ID>  (4499) 
JP005324

>  <CONTRIBUTOR>  (4499) 
University of Tokyo Team, {Faculty of Engineering, University of Tokyo

>  <COMMENT>  (4499) 
SMILES=CC(C)CC(C)(C)C
InChI=InChI=1S/C8H18/c1-7(2)6-8(3,4)5/h7H,6H2,1-5H3
computed SMILES=CC(C)CC(C)(C)C
accession=JP005324
date=2016.01.19 (Created 2008.10.21, modified 2011.05.06)
author=YAMAMOTO M, DEP. CHEMISTRY, FAC. SCIENCE, NARA WOMEN'S UNIV.
license=CC BY-NC-SA
exact mass=114.14085
ionization energy=70 eV
ion type=[M]+*
computed spectral entropy=1.7298077688283147
computed normalized entropy=0.69612585606622
SPLASH=splash10-0a4i-9000000000-e5c24987d83bc5fa562f
submitter=submitter = University of Tokyo Team (Faculty of Engineering, University of Tokyo)
MoNA Rating=3.75

>  <NUM PEAKS>  (4499) 
12

>  <MASS SPECTRAL PEAKS>  (4499) 
27 5.38
29 9.61
39 5.12
40 1.25
41 20.64
42 1.25
43 18.92
55 3.4
56 35.9
57 99.99
58 4.54
99 5.86

$$$$

     RDKit          2D

  8  7  0  0  0  0  0  0  0  0999 V2000
   -6.4952    4.5000    0.0000 C   0  0  0  0  0  0  0  0  0  0  0  0
    2.5981    3.7500    0.0000 C   0  0  0  0  0  0  0  0  0  0  0  0
   -5.1962    3.7500    0.0000 C   0  0  0  0  0  0  0  0  0  0  0  0
    1.2990    4.5000    0.0000 C   0  0  0  0  0  0  0  0  0  0  0  0
   -3.8971    4.5000    0.0000 C   0  0  0  0  0  0  0  0  0  0  0  0
    0.0000    3.7500    0.0000 C   0  0  0  0  0  0  0  0  0  0  0  0
   -2.5981    3.7500    0.0000 C   0  0  0  0  0  0  0  0  0  0  0  0
   -1.2990    4.5000    0.0000 C   0  0  0  0  0  0  0  0  0  0  0  0
  3  1  1  0
  4  2  1  0
  5  3  1  0
  6  4  1  0
  7  5  1  0
  8  6  1  0
  8  7  1  0
M  END
>  <NAME>  (4500) 
OCTANE

>  <SYNONYMS>  (4500) 


>  <SPECTRUM TYPE>  (4500) 
MS1

>  <INSTRUMENT TYPE>  (4500) 
EI-B

>  <INSTRUMENT>  (4500) 
HITACHI RMU-6M

>  <ION MODE>  (4500) 
P

>  <INCHIKEY>  (4500) 
TVMXDCGIABBOFY-UHFFFAOYSA-N

>  <FORMULA>  (4500) 
C8H18

>  <EXACT MASS>  (4500) 
114.14085057599999

>  <MW>  (4500) 
114

>  <ID>  (4500) 
JP005323

>  <CONTRIBUTOR>  (4500) 
University of Tokyo Team, {Faculty of Engineering, University of Tokyo

>  <COMMENT>  (4500) 
SMILES=CCCCCCCC
InChI=InChI=1S/C8H18/c1-3-5-7-8-6-4-2/h3-8H2,1-2H3
computed SMILES=CCCCCCCC
accession=JP005323
date=2016.01.19 (Created 2008.10.21, modified 2011.05.06)
author=YAMAMOTO M, DEP. CHEMISTRY, FAC. SCIENCE, NARA WOMEN'S UNIV.
license=CC BY-NC-SA
exact mass=114.14085
ionization energy=70 eV
ion type=[M]+*
computed spectral entropy=2.525033225215769
computed normalized entropy=0.8053062934665688
SPLASH=splash10-0006-9000000000-8dd19c0387246b61990c
submitter=submitter = University of Tokyo Team (Faculty of Engineering, University of Tokyo)
MoNA Rating=3.75

>  <NUM PEAKS>  (4500) 
23

>  <MASS SPECTRAL PEAKS>  (4500) 
27 14.5
28 2.91
29 22.79
39 8.36
40 1.55
41 31.63
42 13.46
43 99.99
44 3.23
53 1.35
55 9.32
56 14.92
57 38.3
58 1.55
69 1.68
70 15.02
71 26.68
72 1.55
84 8.48
85 38.91
86 2.53
114 14.63
115 1.35

$$$$

     RDKit          2D

  6  5  0  0  0  0  0  0  0  0999 V2000
    0.0000    0.0000    0.0000 C   0  0  0  0  0  0  0  0  0  0  0  0
   -0.5490    3.5490    0.0000 C   0  0  0  0  0  0  0  0  0  0  0  0
   -2.5981    3.0000    0.0000 C   0  0  0  0  0  0  0  0  0  0  0  0
   -2.0490    0.9510    0.0000 C   0  0  0  0  0  0  0  0  0  0  0  0
    0.0000    1.5000    0.0000 C   0  0  0  0  0  0  0  0  0  0  0  0
   -1.2990    2.2500    0.0000 C   0  0  0  0  0  0  0  0  0  0  0  0
  5  1  1  0
  6  2  1  0
  6  3  1  0
  6  4  1  0
  6  5  1  0
M  END
>  <NAME>  (4501) 
2,2-DIMETHYLBUTANE

>  <SYNONYMS>  (4501) 


>  <SPECTRUM TYPE>  (4501) 
MS1

>  <INSTRUMENT TYPE>  (4501) 
EI-B

>  <INSTRUMENT>  (4501) 
HITACHI RMU-6M

>  <ION MODE>  (4501) 
P

>  <INCHIKEY>  (4501) 
HNRMPXKDFBEGFZ-UHFFFAOYSA-N

>  <FORMULA>  (4501) 
C6H14

>  <EXACT MASS>  (4501) 
86.109550448

>  <MW>  (4501) 
86

>  <ID>  (4501) 
JP005322

>  <CONTRIBUTOR>  (4501) 
University of Tokyo Team, {Faculty of Engineering, University of Tokyo

>  <COMMENT>  (4501) 
SMILES=CCC(C)(C)C
InChI=InChI=1S/C6H14/c1-5-6(2,3)4/h5H2,1-4H3
computed SMILES=CCC(C)(C)C
accession=JP005322
date=2016.01.19 (Created 2008.10.21, modified 2011.05.06)
author=YAMAMOTO M, DEP. CHEMISTRY, FAC. SCIENCE, NARA WOMEN'S UNIV.
license=CC BY-NC-SA
exact mass=86.10955
ionization energy=70 eV
ion type=[M]+*
computed spectral entropy=2.2612751444500607
computed normalized entropy=0.7315574530505913
SPLASH=splash10-0abc-9000000000-e3710bd9ea401e28289d
submitter=submitter = University of Tokyo Team (Faculty of Engineering, University of Tokyo)
MoNA Rating=3.75

>  <NUM PEAKS>  (4501) 
22

>  <MASS SPECTRAL PEAKS>  (4501) 
15 1.57
26 1.29
27 18.96
28 2.59
29 33.39
38 1.01
39 15.54
40 1.94
41 47.88
42 3.23
43 93.93
44 3.14
50 1.01
51 1.48
53 2.87
55 12.02
56 34.91
57 99.99
58 4.62
70 3.79
71 81.03
72 4.62

$$$$

     RDKit          2D

  7  6  0  0  0  0  0  0  0  0999 V2000
    1.9486    3.3750    0.0000 C   0  0  0  0  0  0  0  0  0  0  0  0
   -5.8457    3.3750    0.0000 C   0  0  0  0  0  0  0  0  0  0  0  0
    0.6495    4.1250    0.0000 C   0  0  0  0  0  0  0  0  0  0  0  0
   -4.5466    4.1250    0.0000 C   0  0  0  0  0  0  0  0  0  0  0  0
   -0.6495    3.3750    0.0000 C   0  0  0  0  0  0  0  0  0  0  0  0
   -3.2476    3.3750    0.0000 C   0  0  0  0  0  0  0  0  0  0  0  0
   -1.9486    4.1250    0.0000 C   0  0  0  0  0  0  0  0  0  0  0  0
  3  1  1  0
  4  2  1  0
  5  3  1  0
  6  4  1  0
  7  5  1  0
  7  6  1  0
M  END
>  <NAME>  (4502) 
HEPTANE

>  <SYNONYMS>  (4502) 


>  <SPECTRUM TYPE>  (4502) 
MS1

>  <INSTRUMENT TYPE>  (4502) 
EI-B

>  <INSTRUMENT>  (4502) 
HITACHI RMU-6M

>  <ION MODE>  (4502) 
P

>  <INCHIKEY>  (4502) 
IMNFDUFMRHMDMM-UHFFFAOYSA-N

>  <FORMULA>  (4502) 
C7H16

>  <EXACT MASS>  (4502) 
100.12520051199999

>  <MW>  (4502) 
100

>  <ID>  (4502) 
JP005321

>  <CONTRIBUTOR>  (4502) 
University of Tokyo Team, {Faculty of Engineering, University of Tokyo

>  <COMMENT>  (4502) 
SMILES=CCCCCCC
InChI=InChI=1S/C7H16/c1-3-5-7-6-4-2/h3-7H2,1-2H3
computed SMILES=CCCCCCC
accession=JP005321
date=2016.01.19 (Created 2008.10.21, modified 2011.05.06)
author=YAMAMOTO M, DEP. CHEMISTRY, FAC. SCIENCE, NARA WOMEN'S UNIV.
license=CC BY-NC-SA
exact mass=100.1252
ionization energy=70 eV
ion type=[M]+*
computed spectral entropy=2.4748630746045976
computed normalized entropy=0.8128904040711242
SPLASH=splash10-0006-9000000000-f0cc7fc3d738a53fb2f4
submitter=submitter = University of Tokyo Team (Faculty of Engineering, University of Tokyo)
MoNA Rating=3.75

>  <NUM PEAKS>  (4502) 
21

>  <MASS SPECTRAL PEAKS>  (4502) 
26 1.09
27 19.26
28 3.96
29 30.55
39 11.35
40 2.05
41 42.82
42 22.16
43 99.99
44 3.14
53 1.5
55 9.57
56 29.55
57 48.91
58 2.46
70 22.02
71 52.46
72 3.01
85 2.46
100 24.49
101 2.05

$$$$

     RDKit          2D

 10 10  0  0  0  0  0  0  0  0999 V2000
    2.5983    0.3196    0.0000 C   0  0  0  0  0  0  0  0  0  0  0  0
    2.5988    1.8204    0.0000 C   0  0  0  0  0  0  0  0  0  0  0  0
    1.2988   -0.4312    0.0000 C   0  0  0  0  0  0  0  0  0  0  0  0
    1.2998    2.5704    0.0000 C   0  0  0  0  0  0  0  0  0  0  0  0
   -0.0002    0.3188    0.0000 C   0  0  0  0  0  0  0  0  0  0  0  0
   -1.2988    2.5696    0.0000 C   0  0  0  0  0  0  0  0  0  0  0  0
    0.0002    1.8196    0.0000 C   0  0  0  0  0  0  0  0  0  0  0  0
   -2.5978    1.8196    0.0000 C   0  0  0  0  0  0  0  0  0  0  0  0
   -3.8969    2.5696    0.0000 Cl  0  0  0  0  0  0  0  0  0  0  0  0
   -2.5978    0.3196    0.0000 O   0  0  0  0  0  0  0  0  0  0  0  0
  2  1  2  0
  3  1  1  0
  4  2  1  0
  5  3  2  0
  7  4  2  0
  7  5  1  0
  7  6  1  0
  8  6  1  0
  9  8  1  0
 10  8  2  0
M  END
>  <NAME>  (4503) 
PHENYLACETYL CHLORIDE

>  <SYNONYMS>  (4503) 


>  <SPECTRUM TYPE>  (4503) 
MS1

>  <INSTRUMENT TYPE>  (4503) 
EI-B

>  <INSTRUMENT>  (4503) 
HITACHI RMU-6M

>  <ION MODE>  (4503) 
P

>  <INCHIKEY>  (4503) 
VMZCDNSFRSVYKQ-UHFFFAOYSA-N

>  <FORMULA>  (4503) 
C8H7ClO

>  <EXACT MASS>  (4503) 
154.018542524

>  <MW>  (4503) 
154

>  <ID>  (4503) 
JP005320

>  <CONTRIBUTOR>  (4503) 
University of Tokyo Team, {Faculty of Engineering, University of Tokyo

>  <COMMENT>  (4503) 
SMILES=O=C(Cl)Cc(c1)cccc1
InChI=InChI=1S/C8H7ClO/c9-8(10)6-7-4-2-1-3-5-7/h1-5H,6H2
computed SMILES=O=C(Cl)CC=1C=CC=CC1
accession=JP005320
date=2016.01.19 (Created 2008.10.21, modified 2011.05.06)
author=YAMAMOTO M, DEP. CHEMISTRY, FAC. SCIENCE, NARA WOMEN'S UNIV.
license=CC BY-NC-SA
exact mass=154.01854
ionization energy=70 eV
ion type=[M]+*
computed spectral entropy=2.7663845502150415
computed normalized entropy=0.7499254406727485
SPLASH=splash10-0006-9200000000-456eb171451d26a6b5eb
submitter=submitter = University of Tokyo Team (Faculty of Engineering, University of Tokyo)
MoNA Rating=3.75

>  <NUM PEAKS>  (4503) 
40

>  <MASS SPECTRAL PEAKS>  (4503) 
27 1.43
36 2.03
37 2.27
38 4.89
39 13.58
40 1.91
41 2.09
43 2.27
44 1.01
44.5 1.07
45 3.28
45.5 5.71
49 1.07
50 6.08
51 8.02
52 1.49
59 2.3
59.5 1.49
61 2.97
62 6.68
63 15.86
64 5.96
65 12.85
74 1.73
75 1.31
77 1.43
85 1.06
86 1.66
87 1.25
89 29.57
90 39.57
91 99.99
92 8.15
105 1.19
112 1.31
118 38.88
119 7.86
154 15.13
155 1.37
156 5

$$$$

     RDKit          2D

 13 13  0  0  0  0  0  0  0  0999 V2000
   -6.8197    3.1321    0.0000 C   0  0  0  0  0  0  0  0  0  0  0  0
   -5.5207    3.8821    0.0000 C   0  0  0  0  0  0  0  0  0  0  0  0
    3.5726    1.6321    0.0000 C   0  0  0  0  0  0  0  0  0  0  0  0
    3.5731    3.1329    0.0000 C   0  0  0  0  0  0  0  0  0  0  0  0
    2.2731    0.8813    0.0000 C   0  0  0  0  0  0  0  0  0  0  0  0
    2.2740    3.8829    0.0000 C   0  0  0  0  0  0  0  0  0  0  0  0
    0.9740    1.6313    0.0000 C   0  0  0  0  0  0  0  0  0  0  0  0
   -4.2216    3.1321    0.0000 C   0  0  0  0  0  0  0  0  0  0  0  0
   -0.3245    3.8821    0.0000 C   0  0  0  0  0  0  0  0  0  0  0  0
    0.9745    3.1321    0.0000 C   0  0  0  0  0  0  0  0  0  0  0  0
   -1.6236    3.1321    0.0000 C   0  0  0  0  0  0  0  0  0  0  0  0
   -1.6236    1.6321    0.0000 O   0  0  0  0  0  0  0  0  0  0  0  0
   -2.9226    3.8821    0.0000 O   0  0  0  0  0  0  0  0  0  0  0  0
  2  1  2  0
  4  3  2  0
  5  3  1  0
  6  4  1  0
  7  5  2  0
  8  2  1  0
 10  6  2  0
 10  7  1  0
 10  9  1  0
 11  9  1  0
 12 11  2  0
 13  8  1  0
 13 11  1  0
M  END
>  <NAME>  (4504) 
ALLYL PHENYLACETATE

>  <SYNONYMS>  (4504) 


>  <SPECTRUM TYPE>  (4504) 
MS1

>  <INSTRUMENT TYPE>  (4504) 
EI-B

>  <INSTRUMENT>  (4504) 
HITACHI RMU-6M

>  <ION MODE>  (4504) 
P

>  <INCHIKEY>  (4504) 
ZCDYAMJXVAUTIM-UHFFFAOYSA-N

>  <FORMULA>  (4504) 
C11H12O2

>  <EXACT MASS>  (4504) 
176.083729624

>  <MW>  (4504) 
176

>  <ID>  (4504) 
JP005319

>  <CONTRIBUTOR>  (4504) 
University of Tokyo Team, {Faculty of Engineering, University of Tokyo

>  <COMMENT>  (4504) 
SMILES=C=CCOC(=O)Cc(c1)cccc1
InChI=InChI=1S/C11H12O2/c1-2-8-13-11(12)9-10-6-4-3-5-7-10/h2-7H,1,8-9H2
computed SMILES=O=C(OCC=C)CC=1C=CC=CC1
accession=JP005319
date=2016.01.19 (Created 2008.10.21, modified 2011.05.06)
author=YAMAMOTO M, DEP. CHEMISTRY, FAC. SCIENCE, NARA WOMEN'S UNIV.
license=CC BY-NC-SA
exact mass=176.08373
ionization energy=70 eV
ion type=[M]+*
computed spectral entropy=1.8401147905391593
computed normalized entropy=0.6366360263215888
SPLASH=splash10-0006-9100000000-646b8c316cbe73398d54
submitter=submitter = University of Tokyo Team (Faculty of Engineering, University of Tokyo)
MoNA Rating=3.75

>  <NUM PEAKS>  (4504) 
18

>  <MASS SPECTRAL PEAKS>  (4504) 
27 1.54
38 1.1
39 10.67
40 1
41 23.33
50 1.2
51 2.47
63 3.14
64 1.15
65 11.67
89 2.97
90 2.2
91 99.99
92 12.77
118 1.64
119 2.48
176 17.17
177 2.26

$$$$

     RDKit          2D

 15 15  0  0  0  0  0  0  0  0999 V2000
   -7.7940    4.8196    0.0000 C   0  0  0  0  0  0  0  0  0  0  0  0
   -6.4949    2.5696    0.0000 C   0  0  0  0  0  0  0  0  0  0  0  0
    3.8974    2.5696    0.0000 C   0  0  0  0  0  0  0  0  0  0  0  0
    3.8978    4.0704    0.0000 C   0  0  0  0  0  0  0  0  0  0  0  0
    2.5978    1.8188    0.0000 C   0  0  0  0  0  0  0  0  0  0  0  0
    2.5988    4.8204    0.0000 C   0  0  0  0  0  0  0  0  0  0  0  0
    1.2988    2.5688    0.0000 C   0  0  0  0  0  0  0  0  0  0  0  0
   -5.1959    4.8196    0.0000 C   0  0  0  0  0  0  0  0  0  0  0  0
   -3.8969    4.0696    0.0000 C   0  0  0  0  0  0  0  0  0  0  0  0
    0.0002    4.8196    0.0000 C   0  0  0  0  0  0  0  0  0  0  0  0
   -6.4949    4.0696    0.0000 C   0  0  0  0  0  0  0  0  0  0  0  0
    1.2993    4.0696    0.0000 C   0  0  0  0  0  0  0  0  0  0  0  0
   -1.2988    4.0696    0.0000 C   0  0  0  0  0  0  0  0  0  0  0  0
   -1.2988    2.5696    0.0000 O   0  0  0  0  0  0  0  0  0  0  0  0
   -2.5978    4.8196    0.0000 O   0  0  0  0  0  0  0  0  0  0  0  0
  4  3  2  0
  5  3  1  0
  6  4  1  0
  7  5  2  0
  9  8  1  0
 11  1  1  0
 11  2  1  0
 11  8  1  0
 12  6  2  0
 12  7  1  0
 12 10  1  0
 13 10  1  0
 14 13  2  0
 15  9  1  0
 15 13  1  0
M  END
>  <NAME>  (4505) 
ISOPENTYL PHENYLACETATE

>  <SYNONYMS>  (4505) 


>  <SPECTRUM TYPE>  (4505) 
MS1

>  <INSTRUMENT TYPE>  (4505) 
EI-B

>  <INSTRUMENT>  (4505) 
HITACHI RMU-6M

>  <ION MODE>  (4505) 
P

>  <INCHIKEY>  (4505) 
QWBQBUWZZBUFHN-UHFFFAOYSA-N

>  <FORMULA>  (4505) 
C13H18O2

>  <EXACT MASS>  (4505) 
206.130679816

>  <MW>  (4505) 
206

>  <ID>  (4505) 
JP005318

>  <CONTRIBUTOR>  (4505) 
University of Tokyo Team, {Faculty of Engineering, University of Tokyo

>  <COMMENT>  (4505) 
SMILES=CC(C)CCOC(=O)Cc(c1)cccc1
InChI=InChI=1S/C13H18O2/c1-11(2)8-9-15-13(14)10-12-6-4-3-5-7-12/h3-7,11H,8-10H2,1-2H3
computed SMILES=O=C(OCCC(C)C)CC=1C=CC=CC1
accession=JP005318
date=2016.01.19 (Created 2008.10.21, modified 2011.05.06)
author=YAMAMOTO M, DEP. CHEMISTRY, FAC. SCIENCE, NARA WOMEN'S UNIV.
license=CC BY-NC-SA
exact mass=206.13068
ionization energy=70 eV
ion type=[M]+*
computed spectral entropy=2.4951490290821954
computed normalized entropy=0.7409948977046719
SPLASH=splash10-0006-9000000000-e5998bc1f7c80cacb981
submitter=submitter = University of Tokyo Team (Faculty of Engineering, University of Tokyo)
MoNA Rating=3.75

>  <NUM PEAKS>  (4505) 
29

>  <MASS SPECTRAL PEAKS>  (4505) 
27 6.09
28 2.74
29 9.34
39 8.43
40 1.12
41 13.41
42 2.94
43 99.99
44 3.35
51 2.54
53 1.01
55 11.48
57 1.01
63 3.04
64 1.11
65 12.9
69 2.54
70 55.28
71 27.54
72 1.42
89 3.25
90 3.15
91 80.03
92 17.98
93 1.12
119 3.55
136 19.82
137 5.89
206 5.08

$$$$

     RDKit          2D

 14 14  0  0  0  0  0  0  0  0999 V2000
   -6.8197    3.1321    0.0000 C   0  0  0  0  0  0  0  0  0  0  0  0
   -5.5207    5.3821    0.0000 C   0  0  0  0  0  0  0  0  0  0  0  0
    3.5726    1.6321    0.0000 C   0  0  0  0  0  0  0  0  0  0  0  0
    3.5731    3.1329    0.0000 C   0  0  0  0  0  0  0  0  0  0  0  0
    2.2731    0.8813    0.0000 C   0  0  0  0  0  0  0  0  0  0  0  0
    2.2740    3.8829    0.0000 C   0  0  0  0  0  0  0  0  0  0  0  0
    0.9740    1.6313    0.0000 C   0  0  0  0  0  0  0  0  0  0  0  0
   -0.3245    3.8821    0.0000 C   0  0  0  0  0  0  0  0  0  0  0  0
   -4.2216    3.1321    0.0000 C   0  0  0  0  0  0  0  0  0  0  0  0
   -5.5207    3.8821    0.0000 C   0  0  0  0  0  0  0  0  0  0  0  0
    0.9745    3.1321    0.0000 C   0  0  0  0  0  0  0  0  0  0  0  0
   -1.6236    3.1321    0.0000 C   0  0  0  0  0  0  0  0  0  0  0  0
   -1.6236    1.6321    0.0000 O   0  0  0  0  0  0  0  0  0  0  0  0
   -2.9226    3.8821    0.0000 O   0  0  0  0  0  0  0  0  0  0  0  0
  4  3  2  0
  5  3  1  0
  6  4  1  0
  7  5  2  0
 10  1  1  0
 10  2  1  0
 10  9  1  0
 11  6  2  0
 11  7  1  0
 11  8  1  0
 12  8  1  0
 13 12  2  0
 14  9  1  0
 14 12  1  0
M  END
>  <NAME>  (4506) 
ISOBUTYL PHENYLACETATE

>  <SYNONYMS>  (4506) 


>  <SPECTRUM TYPE>  (4506) 
MS1

>  <INSTRUMENT TYPE>  (4506) 
EI-B

>  <INSTRUMENT>  (4506) 
HITACHI RMU-6M

>  <ION MODE>  (4506) 
P

>  <INCHIKEY>  (4506) 
RJASFPFZACBKBE-UHFFFAOYSA-N

>  <FORMULA>  (4506) 
C12H16O2

>  <EXACT MASS>  (4506) 
192.115029752

>  <MW>  (4506) 
192

>  <ID>  (4506) 
JP005317

>  <CONTRIBUTOR>  (4506) 
University of Tokyo Team, {Faculty of Engineering, University of Tokyo

>  <COMMENT>  (4506) 
SMILES=CC(C)COC(=O)Cc(c1)cccc1
InChI=InChI=1S/C12H16O2/c1-10(2)9-14-12(13)8-11-6-4-3-5-7-11/h3-7,10H,8-9H2,1-2H3
computed SMILES=O=C(OCC(C)C)CC=1C=CC=CC1
accession=JP005317
date=2016.01.19 (Created 2008.10.21, modified 2011.05.06)
author=YAMAMOTO M, DEP. CHEMISTRY, FAC. SCIENCE, NARA WOMEN'S UNIV.
license=CC BY-NC-SA
exact mass=192.11503
ionization energy=70 eV
ion type=[M]+*
computed spectral entropy=2.5840106165759233
computed normalized entropy=0.7455878604277034
SPLASH=splash10-0006-9100000000-ace9dec3575724d71acf
submitter=submitter = University of Tokyo Team (Faculty of Engineering, University of Tokyo)
MoNA Rating=3.75

>  <NUM PEAKS>  (4506) 
32

>  <MASS SPECTRAL PEAKS>  (4506) 
27 5.7
28 1.24
29 27.94
39 11.05
40 1.17
41 33.65
42 1.9
43 3.95
50 1.24
51 3.29
52 1.17
55 2.12
56 6.14
57 70.89
58 3.22
62 1.09
63 4.02
64 1.46
65 16.09
66 1.1
71 1.83
89 4.31
90 3.8
91 99.99
92 31.78
93 2.27
119 9.29
136 37.46
137 13.31
138 1.09
192 9.21
193 1.35

$$$$

     RDKit          2D

 12 12  0  0  0  0  0  0  0  0999 V2000
   -5.5207    3.1321    0.0000 C   0  0  0  0  0  0  0  0  0  0  0  0
   -4.2216    2.3821    0.0000 C   0  0  0  0  0  0  0  0  0  0  0  0
    3.5726    0.8821    0.0000 C   0  0  0  0  0  0  0  0  0  0  0  0
    3.5731    2.3829    0.0000 C   0  0  0  0  0  0  0  0  0  0  0  0
    2.2731    0.1313    0.0000 C   0  0  0  0  0  0  0  0  0  0  0  0
    2.2740    3.1329    0.0000 C   0  0  0  0  0  0  0  0  0  0  0  0
    0.9740    0.8813    0.0000 C   0  0  0  0  0  0  0  0  0  0  0  0
   -0.3245    3.1321    0.0000 C   0  0  0  0  0  0  0  0  0  0  0  0
    0.9745    2.3821    0.0000 C   0  0  0  0  0  0  0  0  0  0  0  0
   -1.6236    2.3821    0.0000 C   0  0  0  0  0  0  0  0  0  0  0  0
   -1.6236    0.8821    0.0000 O   0  0  0  0  0  0  0  0  0  0  0  0
   -2.9226    3.1321    0.0000 O   0  0  0  0  0  0  0  0  0  0  0  0
  2  1  1  0
  4  3  2  0
  5  3  1  0
  6  4  1  0
  7  5  2  0
  9  6  2  0
  9  7  1  0
  9  8  1  0
 10  8  1  0
 11 10  2  0
 12  2  1  0
 12 10  1  0
M  END
>  <NAME>  (4507) 
ETHYL PHENYLACETATE

>  <SYNONYMS>  (4507) 


>  <SPECTRUM TYPE>  (4507) 
MS1

>  <INSTRUMENT TYPE>  (4507) 
EI-B

>  <INSTRUMENT>  (4507) 
HITACHI RMU-6M

>  <ION MODE>  (4507) 
P

>  <INCHIKEY>  (4507) 
DULCUDSUACXJJC-UHFFFAOYSA-N

>  <FORMULA>  (4507) 
C10H12O2

>  <EXACT MASS>  (4507) 
164.083729624

>  <MW>  (4507) 
164

>  <ID>  (4507) 
JP005316

>  <CONTRIBUTOR>  (4507) 
University of Tokyo Team, {Faculty of Engineering, University of Tokyo

>  <COMMENT>  (4507) 
SMILES=CCOC(=O)Cc(c1)cccc1
InChI=InChI=1S/C10H12O2/c1-2-12-10(11)8-9-6-4-3-5-7-9/h3-7H,2,8H2,1H3
computed SMILES=O=C(OCC)CC=1C=CC=CC1
accession=JP005316
date=2016.01.19 (Created 2008.10.21, modified 2011.05.06)
author=YAMAMOTO M, DEP. CHEMISTRY, FAC. SCIENCE, NARA WOMEN'S UNIV.
license=CC BY-NC-SA
exact mass=164.08373
ionization energy=70 eV
ion type=[M]+*
computed spectral entropy=1.8651628946448726
computed normalized entropy=0.6334527248966434
SPLASH=splash10-0006-9100000000-4f677bc70cc721a1e807
submitter=submitter = University of Tokyo Team (Faculty of Engineering, University of Tokyo)
MoNA Rating=3.75

>  <NUM PEAKS>  (4507) 
19

>  <MASS SPECTRAL PEAKS>  (4507) 
27 3.32
29 20.39
39 5.68
41 1.61
45 1.28
50 1.18
51 2.47
63 3
64 1.18
65 10.62
77 1.07
89 3
90 2.36
91 99.99
92 11.8
105 2.14
119 2.57
164 19.86
165 2.14

$$$$

     RDKit          2D

 11 11  0  0  0  0  0  0  0  0999 V2000
   -4.8712    2.0071    0.0000 C   0  0  0  0  0  0  0  0  0  0  0  0
    2.9231    0.5071    0.0000 C   0  0  0  0  0  0  0  0  0  0  0  0
    2.9236    2.0079    0.0000 C   0  0  0  0  0  0  0  0  0  0  0  0
    1.6236   -0.2437    0.0000 C   0  0  0  0  0  0  0  0  0  0  0  0
    1.6245    2.7579    0.0000 C   0  0  0  0  0  0  0  0  0  0  0  0
    0.3245    0.5063    0.0000 C   0  0  0  0  0  0  0  0  0  0  0  0
   -0.9740    2.7571    0.0000 C   0  0  0  0  0  0  0  0  0  0  0  0
    0.3250    2.0071    0.0000 C   0  0  0  0  0  0  0  0  0  0  0  0
   -2.2731    2.0071    0.0000 C   0  0  0  0  0  0  0  0  0  0  0  0
   -2.2731    0.5071    0.0000 O   0  0  0  0  0  0  0  0  0  0  0  0
   -3.5721    2.7571    0.0000 O   0  0  0  0  0  0  0  0  0  0  0  0
  3  2  2  0
  4  2  1  0
  5  3  1  0
  6  4  2  0
  8  5  2  0
  8  6  1  0
  8  7  1  0
  9  7  1  0
 10  9  2  0
 11  1  1  0
 11  9  1  0
M  END
>  <NAME>  (4508) 
METHYL PHENYLACETATE

>  <SYNONYMS>  (4508) 


>  <SPECTRUM TYPE>  (4508) 
MS1

>  <INSTRUMENT TYPE>  (4508) 
EI-B

>  <INSTRUMENT>  (4508) 
HITACHI RMU-6M

>  <ION MODE>  (4508) 
P

>  <INCHIKEY>  (4508) 
CRZQGDNQQAALAY-UHFFFAOYSA-N

>  <FORMULA>  (4508) 
C9H10O2

>  <EXACT MASS>  (4508) 
150.06807956

>  <MW>  (4508) 
150

>  <ID>  (4508) 
JP005315

>  <CONTRIBUTOR>  (4508) 
University of Tokyo Team, {Faculty of Engineering, University of Tokyo

>  <COMMENT>  (4508) 
SMILES=COC(=O)Cc(c1)cccc1
InChI=InChI=1S/C9H10O2/c1-11-9(10)7-8-5-3-2-4-6-8/h2-6H,7H2,1H3
computed SMILES=O=C(OC)CC=1C=CC=CC1
accession=JP005315
date=2016.01.19 (Created 2008.10.21, modified 2011.05.06)
author=YAMAMOTO M, DEP. CHEMISTRY, FAC. SCIENCE, NARA WOMEN'S UNIV.
license=CC BY-NC-SA
exact mass=150.06808
ionization energy=70 eV
ion type=[M]+*
computed spectral entropy=2.0078825453501583
computed normalized entropy=0.6403719500261164
SPLASH=splash10-0006-9200000000-eeeabb5445489ab0953b
submitter=submitter = University of Tokyo Team (Faculty of Engineering, University of Tokyo)
MoNA Rating=3.75

>  <NUM PEAKS>  (4508) 
23

>  <MASS SPECTRAL PEAKS>  (4508) 
15 4.77
38 1.34
39 7.57
41 2.07
45 1.55
50 1.86
51 3.39
52 1.04
59 6.94
62 1.55
63 4.87
64 1.45
65 12.44
77 1.14
89 4.04
90 2.8
91 99.99
92 7.67
105 1.24
118 1.24
119 2.49
150 31.42
151 3.11

$$$$

     RDKit          2D

 15 14  0  0  0  0  0  0  0  0999 V2000
    3.8971    6.7500    0.0000 C   0  0  0  0  0  0  0  0  0  0  0  0
  -11.6913    6.7500    0.0000 C   0  0  0  0  0  0  0  0  0  0  0  0
  -10.3923    9.0000    0.0000 C   0  0  0  0  0  0  0  0  0  0  0  0
    2.5981    7.5000    0.0000 C   0  0  0  0  0  0  0  0  0  0  0  0
    1.2990    6.7500    0.0000 C   0  0  0  0  0  0  0  0  0  0  0  0
    0.0000    7.5000    0.0000 C   0  0  0  0  0  0  0  0  0  0  0  0
   -1.2990    6.7500    0.0000 C   0  0  0  0  0  0  0  0  0  0  0  0
   -2.5981    7.5000    0.0000 C   0  0  0  0  0  0  0  0  0  0  0  0
   -3.8971    6.7500    0.0000 C   0  0  0  0  0  0  0  0  0  0  0  0
   -9.0933    6.7500    0.0000 C   0  0  0  0  0  0  0  0  0  0  0  0
   -7.7942    7.5000    0.0000 C   0  0  0  0  0  0  0  0  0  0  0  0
  -10.3923    7.5000    0.0000 C   0  0  0  0  0  0  0  0  0  0  0  0
   -5.1962    7.5000    0.0000 C   0  0  0  0  0  0  0  0  0  0  0  0
   -5.1962    9.0000    0.0000 O   0  0  0  0  0  0  0  0  0  0  0  0
   -6.4952    6.7500    0.0000 O   0  0  0  0  0  0  0  0  0  0  0  0
  4  1  1  0
  5  4  1  0
  6  5  1  0
  7  6  1  0
  8  7  1  0
  9  8  1  0
 11 10  1  0
 12  2  1  0
 12  3  1  0
 12 10  1  0
 13  9  1  0
 14 13  2  0
 15 11  1  0
 15 13  1  0
M  END
>  <NAME>  (4509) 
OCTANOIC ACID ISOPENTYL ESTER

>  <SYNONYMS>  (4509) 


>  <SPECTRUM TYPE>  (4509) 
MS1

>  <INSTRUMENT TYPE>  (4509) 
EI-B

>  <INSTRUMENT>  (4509) 
HITACHI RMU-6M

>  <ION MODE>  (4509) 
P

>  <INCHIKEY>  (4509) 
XKWSWANXMRXDES-UHFFFAOYSA-N

>  <FORMULA>  (4509) 
C13H26O2

>  <EXACT MASS>  (4509) 
214.193280072

>  <MW>  (4509) 
214

>  <ID>  (4509) 
JP005314

>  <CONTRIBUTOR>  (4509) 
University of Tokyo Team, {Faculty of Engineering, University of Tokyo

>  <COMMENT>  (4509) 
SMILES=CCCCCCCC(=O)OCCC(C)C
InChI=InChI=1S/C13H26O2/c1-4-5-6-7-8-9-13(14)15-11-10-12(2)3/h12H,4-11H2,1-3H3
computed SMILES=O=C(OCCC(C)C)CCCCCCC
accession=JP005314
date=2016.01.19 (Created 2008.10.21, modified 2011.05.06)
author=YAMAMOTO M, DEP. CHEMISTRY, FAC. SCIENCE, NARA WOMEN'S UNIV.
license=CC BY-NC-SA
exact mass=214.19328
ionization energy=70 eV
ion type=[M]+*
computed spectral entropy=2.582271434097998
computed normalized entropy=0.7205965640049107
SPLASH=splash10-00di-9100000000-2e391c2db5cea0812e66
submitter=submitter = University of Tokyo Team (Faculty of Engineering, University of Tokyo)
MoNA Rating=3.75

>  <NUM PEAKS>  (4509) 
36

>  <MASS SPECTRAL PEAKS>  (4509) 
27 6.17
28 2.2
29 10.78
39 3.31
41 16
42 7.19
43 34.55
44 1.24
45 1.1
53 1.05
55 17.3
56 2.45
57 20.89
58 1.05
60 3.69
61 1.15
67 1.15
69 3.59
70 99.99
71 25.06
72 1.44
73 3.03
83 1.33
84 1.34
87 1.44
98 1.01
101 1.96
109 1
115 1.72
127 19.45
128 1.82
130 1.82
144 2.64
145 7.28
171 1.29
214 0.67

$$$$

     RDKit          2D

 15 14  0  0  0  0  0  0  0  0999 V2000
    4.5466    7.1250    0.0000 C   0  0  0  0  0  0  0  0  0  0  0  0
  -12.3409    7.8750    0.0000 C   0  0  0  0  0  0  0  0  0  0  0  0
    3.2476    7.8750    0.0000 C   0  0  0  0  0  0  0  0  0  0  0  0
  -11.0418    7.1250    0.0000 C   0  0  0  0  0  0  0  0  0  0  0  0
    1.9486    7.1250    0.0000 C   0  0  0  0  0  0  0  0  0  0  0  0
   -9.7428    7.8750    0.0000 C   0  0  0  0  0  0  0  0  0  0  0  0
    0.6495    7.8750    0.0000 C   0  0  0  0  0  0  0  0  0  0  0  0
   -0.6495    7.1250    0.0000 C   0  0  0  0  0  0  0  0  0  0  0  0
   -1.9486    7.8750    0.0000 C   0  0  0  0  0  0  0  0  0  0  0  0
   -8.4437    7.1250    0.0000 C   0  0  0  0  0  0  0  0  0  0  0  0
   -3.2476    7.1250    0.0000 C   0  0  0  0  0  0  0  0  0  0  0  0
   -7.1447    7.8750    0.0000 C   0  0  0  0  0  0  0  0  0  0  0  0
   -4.5466    7.8750    0.0000 C   0  0  0  0  0  0  0  0  0  0  0  0
   -4.5466    9.3750    0.0000 O   0  0  0  0  0  0  0  0  0  0  0  0
   -5.8457    7.1250    0.0000 O   0  0  0  0  0  0  0  0  0  0  0  0
  3  1  1  0
  4  2  1  0
  5  3  1  0
  6  4  1  0
  7  5  1  0
  8  7  1  0
  9  8  1  0
 10  6  1  0
 11  9  1  0
 12 10  1  0
 13 11  1  0
 14 13  2  0
 15 12  1  0
 15 13  1  0
M  END
>  <NAME>  (4510) 
OCTANOIC ACID PENTYL ESTER

>  <SYNONYMS>  (4510) 


>  <SPECTRUM TYPE>  (4510) 
MS1

>  <INSTRUMENT TYPE>  (4510) 
EI-B

>  <INSTRUMENT>  (4510) 
HITACHI RMU-6M

>  <ION MODE>  (4510) 
P

>  <INCHIKEY>  (4510) 
GJWGZSBNFSBUPX-UHFFFAOYSA-N

>  <FORMULA>  (4510) 
C13H26O2

>  <EXACT MASS>  (4510) 
214.193280072

>  <MW>  (4510) 
214

>  <ID>  (4510) 
JP005313

>  <CONTRIBUTOR>  (4510) 
University of Tokyo Team, {Faculty of Engineering, University of Tokyo

>  <COMMENT>  (4510) 
SMILES=CCCCCCCC(=O)OCCCCC
InChI=InChI=1S/C13H26O2/c1-3-5-7-8-9-11-13(14)15-12-10-6-4-2/h3-12H2,1-2H3
computed SMILES=O=C(OCCCCC)CCCCCCC
accession=JP005313
date=2016.01.19 (Created 2008.10.21, modified 2011.05.06)
author=YAMAMOTO M, DEP. CHEMISTRY, FAC. SCIENCE, NARA WOMEN'S UNIV.
license=CC BY-NC-SA
exact mass=214.19328
ionization energy=70 eV
ion type=[M]+*
computed spectral entropy=3.0954230892802728
computed normalized entropy=0.7872737446740441
SPLASH=splash10-05bg-9300000000-3a1c4bd12668cd0b03e5
submitter=submitter = University of Tokyo Team (Faculty of Engineering, University of Tokyo)
MoNA Rating=3.75

>  <NUM PEAKS>  (4510) 
51

>  <MASS SPECTRAL PEAKS>  (4510) 
27 11.97
28 3.9
29 23.13
31 1.21
39 6.32
40 1.48
41 31.61
42 21.38
43 57.23
44 1.75
45 1.74
53 1.74
54 1.34
55 25.15
56 3.63
57 38.87
58 1.48
59 1.48
60 16.81
61 14.21
67 2.28
68 1.61
69 7.53
70 99.99
71 16
72 1
73 13.31
74 1.61
82 1.48
83 3.36
84 3.09
85 2.01
87 4.43
89 3.36
97 1.74
98 2.42
101 6.72
102 2.82
103 1.61
109 1.61
115 4.98
125 1.34
127 36.32
128 3.36
130 7.93
131 1.21
143 1.88
144 6.59
145 65.7
146 5.92
214 2.15

$$$$

     RDKit          2D

 14 13  0  0  0  0  0  0  0  0999 V2000
    3.5724    6.5625    0.0000 C   0  0  0  0  0  0  0  0  0  0  0  0
  -10.7171    7.3125    0.0000 C   0  0  0  0  0  0  0  0  0  0  0  0
   -9.4180    5.0625    0.0000 C   0  0  0  0  0  0  0  0  0  0  0  0
    2.2733    7.3125    0.0000 C   0  0  0  0  0  0  0  0  0  0  0  0
    0.9743    6.5625    0.0000 C   0  0  0  0  0  0  0  0  0  0  0  0
   -0.3248    7.3125    0.0000 C   0  0  0  0  0  0  0  0  0  0  0  0
   -1.6238    6.5625    0.0000 C   0  0  0  0  0  0  0  0  0  0  0  0
   -2.9228    7.3125    0.0000 C   0  0  0  0  0  0  0  0  0  0  0  0
   -4.2219    6.5625    0.0000 C   0  0  0  0  0  0  0  0  0  0  0  0
   -8.1190    7.3125    0.0000 C   0  0  0  0  0  0  0  0  0  0  0  0
   -9.4180    6.5625    0.0000 C   0  0  0  0  0  0  0  0  0  0  0  0
   -5.5209    7.3125    0.0000 C   0  0  0  0  0  0  0  0  0  0  0  0
   -5.5209    8.8125    0.0000 O   0  0  0  0  0  0  0  0  0  0  0  0
   -6.8200    6.5625    0.0000 O   0  0  0  0  0  0  0  0  0  0  0  0
  4  1  1  0
  5  4  1  0
  6  5  1  0
  7  6  1  0
  8  7  1  0
  9  8  1  0
 11  2  1  0
 11  3  1  0
 11 10  1  0
 12  9  1  0
 13 12  2  0
 14 10  1  0
 14 12  1  0
M  END
>  <NAME>  (4511) 
OCTANOIC ACID ISOBUTYL ESTER

>  <SYNONYMS>  (4511) 


>  <SPECTRUM TYPE>  (4511) 
MS1

>  <INSTRUMENT TYPE>  (4511) 
EI-B

>  <INSTRUMENT>  (4511) 
HITACHI RMU-6M

>  <ION MODE>  (4511) 
P

>  <INCHIKEY>  (4511) 
CFQRBRGFNFRMBD-UHFFFAOYSA-N

>  <FORMULA>  (4511) 
C12H24O2

>  <EXACT MASS>  (4511) 
200.177630008

>  <MW>  (4511) 
200

>  <ID>  (4511) 
JP005312

>  <CONTRIBUTOR>  (4511) 
University of Tokyo Team, {Faculty of Engineering, University of Tokyo

>  <COMMENT>  (4511) 
SMILES=CCCCCCCC(=O)OCC(C)C
InChI=InChI=1S/C12H24O2/c1-4-5-6-7-8-9-12(13)14-10-11(2)3/h11H,4-10H2,1-3H3
computed SMILES=O=C(OCC(C)C)CCCCCCC
accession=JP005312
date=2016.01.19 (Created 2008.10.21, modified 2011.05.06)
author=YAMAMOTO M, DEP. CHEMISTRY, FAC. SCIENCE, NARA WOMEN'S UNIV.
license=CC BY-NC-SA
exact mass=200.17763
ionization energy=70 eV
ion type=[M]+*
computed spectral entropy=2.8929692270724328
computed normalized entropy=0.7433460451596111
SPLASH=splash10-0a4i-9300000000-c43b65147276dc57d073
submitter=submitter = University of Tokyo Team (Faculty of Engineering, University of Tokyo)
MoNA Rating=3.75

>  <NUM PEAKS>  (4511) 
49

>  <MASS SPECTRAL PEAKS>  (4511) 
27 11.87
28 4.14
29 27.66
31 1.74
39 7.51
40 1.8
41 37.18
42 7.78
43 25.38
45 1.25
53 1.63
54 1.14
55 13.34
56 99.83
57 99.99
58 4.46
59 1.3
60 20.42
61 5.39
67 2.12
69 2.83
70 1.25
71 1.09
73 9.86
74 1.52
82 1.47
83 3.04
84 3.21
85 2.72
86 1.2
87 4.64
89 1.58
97 1.47
98 2.34
101 6.1
109 2.12
115 7.24
116 7.24
117 1.14
125 1.09
127 65.17
128 6.21
129 1.09
144 8.57
145 34.74
146 3.15
157 1
170 1.57
200 0.98

$$$$

     RDKit          2D

 14 13  0  0  0  0  0  0  0  0999 V2000
    3.8971    6.7500    0.0000 C   0  0  0  0  0  0  0  0  0  0  0  0
  -11.6913    6.7500    0.0000 C   0  0  0  0  0  0  0  0  0  0  0  0
    2.5981    7.5000    0.0000 C   0  0  0  0  0  0  0  0  0  0  0  0
  -10.3923    7.5000    0.0000 C   0  0  0  0  0  0  0  0  0  0  0  0
    1.2990    6.7500    0.0000 C   0  0  0  0  0  0  0  0  0  0  0  0
   -9.0933    6.7500    0.0000 C   0  0  0  0  0  0  0  0  0  0  0  0
    0.0000    7.5000    0.0000 C   0  0  0  0  0  0  0  0  0  0  0  0
   -1.2990    6.7500    0.0000 C   0  0  0  0  0  0  0  0  0  0  0  0
   -2.5981    7.5000    0.0000 C   0  0  0  0  0  0  0  0  0  0  0  0
   -3.8971    6.7500    0.0000 C   0  0  0  0  0  0  0  0  0  0  0  0
   -7.7942    7.5000    0.0000 C   0  0  0  0  0  0  0  0  0  0  0  0
   -5.1962    7.5000    0.0000 C   0  0  0  0  0  0  0  0  0  0  0  0
   -5.1962    9.0000    0.0000 O   0  0  0  0  0  0  0  0  0  0  0  0
   -6.4952    6.7500    0.0000 O   0  0  0  0  0  0  0  0  0  0  0  0
  3  1  1  0
  4  2  1  0
  5  3  1  0
  6  4  1  0
  7  5  1  0
  8  7  1  0
  9  8  1  0
 10  9  1  0
 11  6  1  0
 12 10  1  0
 13 12  2  0
 14 11  1  0
 14 12  1  0
M  END
>  <NAME>  (4512) 
OCTANOIC ACID BUTYL ESTER

>  <SYNONYMS>  (4512) 


>  <SPECTRUM TYPE>  (4512) 
MS1

>  <INSTRUMENT TYPE>  (4512) 
EI-B

>  <INSTRUMENT>  (4512) 
HITACHI RMU-6M

>  <ION MODE>  (4512) 
P

>  <INCHIKEY>  (4512) 
PSXNDMJWRZYVTM-UHFFFAOYSA-N

>  <FORMULA>  (4512) 
C12H24O2

>  <EXACT MASS>  (4512) 
200.177630008

>  <MW>  (4512) 
200

>  <ID>  (4512) 
JP005311

>  <CONTRIBUTOR>  (4512) 
University of Tokyo Team, {Faculty of Engineering, University of Tokyo

>  <COMMENT>  (4512) 
SMILES=CCCCCCCC(=O)OCCCC
InChI=InChI=1S/C12H24O2/c1-3-5-7-8-9-10-12(13)14-11-6-4-2/h3-11H2,1-2H3
computed SMILES=O=C(OCCCC)CCCCCCC
accession=JP005311
date=2016.01.19 (Created 2008.10.21, modified 2011.05.06)
author=YAMAMOTO M, DEP. CHEMISTRY, FAC. SCIENCE, NARA WOMEN'S UNIV.
license=CC BY-NC-SA
exact mass=200.17763
ionization energy=70 eV
ion type=[M]+*
computed spectral entropy=3.027462532860755
computed normalized entropy=0.7779039886118344
SPLASH=splash10-0a4l-9300000000-5e5c50a310e1dc15cdb1
submitter=submitter = University of Tokyo Team (Faculty of Engineering, University of Tokyo)
MoNA Rating=3.75

>  <NUM PEAKS>  (4512) 
49

>  <MASS SPECTRAL PEAKS>  (4512) 
27 13.04
28 5.26
29 31.59
31 1.54
39 7.13
40 1.54
41 38.67
42 7.56
43 22.85
45 1.71
53 1.75
54 1.24
55 18.81
56 99.99
57 62.62
58 2.9
59 1.32
60 25.64
61 10.69
67 1.96
69 3.8
70 1.54
71 1.19
73 16.37
74 2.09
81 1
82 1.45
83 4.06
84 2.9
85 1.84
87 5.51
89 4.14
97 1.79
98 2.26
101 10.04
103 1.84
109 1.53
115 2.69
116 10.99
117 1.66
125 1.28
127 40.94
128 3.93
129 3.08
143 5.64
144 57.94
145 5.34
156 1.15
200 1.75

$$$$

     RDKit          2D

 13 12  0  0  0  0  0  0  0  0999 V2000
    3.2476    5.6250    0.0000 C   0  0  0  0  0  0  0  0  0  0  0  0
   -9.7428    5.6250    0.0000 C   0  0  0  0  0  0  0  0  0  0  0  0
   -8.4437    7.8750    0.0000 C   0  0  0  0  0  0  0  0  0  0  0  0
    1.9486    6.3750    0.0000 C   0  0  0  0  0  0  0  0  0  0  0  0
    0.6495    5.6250    0.0000 C   0  0  0  0  0  0  0  0  0  0  0  0
   -0.6495    6.3750    0.0000 C   0  0  0  0  0  0  0  0  0  0  0  0
   -1.9486    5.6250    0.0000 C   0  0  0  0  0  0  0  0  0  0  0  0
   -3.2476    6.3750    0.0000 C   0  0  0  0  0  0  0  0  0  0  0  0
   -4.5466    5.6250    0.0000 C   0  0  0  0  0  0  0  0  0  0  0  0
   -8.4437    6.3750    0.0000 C   0  0  0  0  0  0  0  0  0  0  0  0
   -5.8457    6.3750    0.0000 C   0  0  0  0  0  0  0  0  0  0  0  0
   -5.8457    7.8750    0.0000 O   0  0  0  0  0  0  0  0  0  0  0  0
   -7.1447    5.6250    0.0000 O   0  0  0  0  0  0  0  0  0  0  0  0
  4  1  1  0
  5  4  1  0
  6  5  1  0
  7  6  1  0
  8  7  1  0
  9  8  1  0
 10  2  1  0
 10  3  1  0
 11  9  1  0
 12 11  2  0
 13 10  1  0
 13 11  1  0
M  END
>  <NAME>  (4513) 
OCTANOIC ACID ISOPROPYL ESTER

>  <SYNONYMS>  (4513) 


>  <SPECTRUM TYPE>  (4513) 
MS1

>  <INSTRUMENT TYPE>  (4513) 
EI-B

>  <INSTRUMENT>  (4513) 
HITACHI RMU-6M

>  <ION MODE>  (4513) 
P

>  <INCHIKEY>  (4513) 
WCGIIHOFOFCKSM-UHFFFAOYSA-N

>  <FORMULA>  (4513) 
C11H22O2

>  <EXACT MASS>  (4513) 
186.161979944

>  <MW>  (4513) 
186

>  <ID>  (4513) 
JP005310

>  <CONTRIBUTOR>  (4513) 
University of Tokyo Team, {Faculty of Engineering, University of Tokyo

>  <COMMENT>  (4513) 
SMILES=CCCCCCCC(=O)OC(C)C
InChI=InChI=1S/C11H22O2/c1-4-5-6-7-8-9-11(12)13-10(2)3/h10H,4-9H2,1-3H3
computed SMILES=O=C(OC(C)C)CCCCCCC
accession=JP005310
date=2016.01.19 (Created 2008.10.21, modified 2011.05.06)
author=YAMAMOTO M, DEP. CHEMISTRY, FAC. SCIENCE, NARA WOMEN'S UNIV.
license=CC BY-NC-SA
exact mass=186.16198
ionization energy=70 eV
ion type=[M]+*
computed spectral entropy=3.2094440303553786
computed normalized entropy=0.8246639835640605
SPLASH=splash10-0006-9300000000-5efed11841ac50077dcd
submitter=submitter = University of Tokyo Team (Faculty of Engineering, University of Tokyo)
MoNA Rating=3.75

>  <NUM PEAKS>  (4513) 
49

>  <MASS SPECTRAL PEAKS>  (4513) 
15 1.93
27 21.43
28 4.87
29 20.92
31 1.32
39 10.76
40 2.53
41 44.38
42 18.08
43 99.99
44 3.55
45 4.36
53 1.93
54 1.62
55 20.11
56 5.69
57 51.9
58 2.13
59 27.93
60 71.66
61 13
67 2.74
69 5.08
70 1.93
71 1.42
73 22.14
74 3.05
81 1.22
82 2.54
83 5.69
84 16.66
85 11.27
87 9.37
89 2.94
97 2.84
98 3.25
101 12.59
102 51.24
103 5.28
109 2.23
115 4.36
125 2.53
127 51.55
128 4.57
144 26.1
145 38.55
146 3.55
171 3.15
186 2.43

$$$$

     RDKit          2D

 12 11  0  0  0  0  0  0  0  0999 V2000
    3.2476    5.6250    0.0000 C   0  0  0  0  0  0  0  0  0  0  0  0
   -9.7428    5.6250    0.0000 C   0  0  0  0  0  0  0  0  0  0  0  0
    1.9486    6.3750    0.0000 C   0  0  0  0  0  0  0  0  0  0  0  0
   -8.4437    6.3750    0.0000 C   0  0  0  0  0  0  0  0  0  0  0  0
    0.6495    5.6250    0.0000 C   0  0  0  0  0  0  0  0  0  0  0  0
   -0.6495    6.3750    0.0000 C   0  0  0  0  0  0  0  0  0  0  0  0
   -1.9486    5.6250    0.0000 C   0  0  0  0  0  0  0  0  0  0  0  0
   -3.2476    6.3750    0.0000 C   0  0  0  0  0  0  0  0  0  0  0  0
   -4.5466    5.6250    0.0000 C   0  0  0  0  0  0  0  0  0  0  0  0
   -5.8457    6.3750    0.0000 C   0  0  0  0  0  0  0  0  0  0  0  0
   -5.8457    7.8750    0.0000 O   0  0  0  0  0  0  0  0  0  0  0  0
   -7.1447    5.6250    0.0000 O   0  0  0  0  0  0  0  0  0  0  0  0
  3  1  1  0
  4  2  1  0
  5  3  1  0
  6  5  1  0
  7  6  1  0
  8  7  1  0
  9  8  1  0
 10  9  1  0
 11 10  2  0
 12  4  1  0
 12 10  1  0
M  END
>  <NAME>  (4514) 
OCTANOIC ACID ETHYL ESTER

>  <SYNONYMS>  (4514) 


>  <SPECTRUM TYPE>  (4514) 
MS1

>  <INSTRUMENT TYPE>  (4514) 
EI-B

>  <INSTRUMENT>  (4514) 
HITACHI RMU-6M

>  <ION MODE>  (4514) 
P

>  <INCHIKEY>  (4514) 
YYZUSRORWSJGET-UHFFFAOYSA-N

>  <FORMULA>  (4514) 
C10H20O2

>  <EXACT MASS>  (4514) 
172.14632988

>  <MW>  (4514) 
172

>  <ID>  (4514) 
JP005309

>  <CONTRIBUTOR>  (4514) 
University of Tokyo Team, {Faculty of Engineering, University of Tokyo

>  <COMMENT>  (4514) 
SMILES=CCCCCCCC(=O)OCC
InChI=InChI=1S/C10H20O2/c1-3-5-6-7-8-9-10(11)12-4-2/h3-9H2,1-2H3
computed SMILES=O=C(OCC)CCCCCCC
accession=JP005309
date=2016.01.19 (Created 2008.10.21, modified 2011.05.06)
author=YAMAMOTO M, DEP. CHEMISTRY, FAC. SCIENCE, NARA WOMEN'S UNIV.
license=CC BY-NC-SA
exact mass=172.14633
ionization energy=70 eV
ion type=[M]+*
computed spectral entropy=2.90814382129485
computed normalized entropy=0.7831122620102393
SPLASH=splash10-000l-9200000000-8db5abfa0094ff1f7642
submitter=submitter = University of Tokyo Team (Faculty of Engineering, University of Tokyo)
MoNA Rating=3.75

>  <NUM PEAKS>  (4514) 
41

>  <MASS SPECTRAL PEAKS>  (4514) 
31 1.02
39 6.44
40 1.95
41 33.34
42 1.02
43 18.77
45 10.18
53 1.49
54 1.12
55 14.19
56 3.45
57 30.07
58 1.31
59 1.58
60 23.53
61 18.21
67 1.68
69 4.38
70 13.35
71 1.03
73 16.25
74 2.43
82 1.02
83 2.8
84 3.17
87 3.08
88 99.99
89 7.28
97 1.68
98 2.24
101 29.13
102 2.52
109 1.12
115 5.88
125 1.02
127 22.22
128 1.96
129 6.35
143 3.17
145 1.31
172 4.57

$$$$

     RDKit          2D

 13 12  0  0  0  0  0  0  0  0999 V2000
    3.2476    5.6250    0.0000 C   0  0  0  0  0  0  0  0  0  0  0  0
   -9.7428    5.6250    0.0000 C   0  0  0  0  0  0  0  0  0  0  0  0
   -8.4437    7.8750    0.0000 C   0  0  0  0  0  0  0  0  0  0  0  0
    1.9486    6.3750    0.0000 C   0  0  0  0  0  0  0  0  0  0  0  0
    0.6495    5.6250    0.0000 C   0  0  0  0  0  0  0  0  0  0  0  0
   -0.6495    6.3750    0.0000 C   0  0  0  0  0  0  0  0  0  0  0  0
   -1.9486    5.6250    0.0000 C   0  0  0  0  0  0  0  0  0  0  0  0
   -7.1447    5.6250    0.0000 C   0  0  0  0  0  0  0  0  0  0  0  0
   -5.8457    6.3750    0.0000 C   0  0  0  0  0  0  0  0  0  0  0  0
   -8.4437    6.3750    0.0000 C   0  0  0  0  0  0  0  0  0  0  0  0
   -3.2476    6.3750    0.0000 C   0  0  0  0  0  0  0  0  0  0  0  0
   -3.2476    7.8750    0.0000 O   0  0  0  0  0  0  0  0  0  0  0  0
   -4.5466    5.6250    0.0000 O   0  0  0  0  0  0  0  0  0  0  0  0
  4  1  1  0
  5  4  1  0
  6  5  1  0
  7  6  1  0
  9  8  1  0
 10  2  1  0
 10  3  1  0
 10  8  1  0
 11  7  1  0
 12 11  2  0
 13  9  1  0
 13 11  1  0
M  END
>  <NAME>  (4515) 
HEXANOIC ACID ISOPENTYL ESTER

>  <SYNONYMS>  (4515) 


>  <SPECTRUM TYPE>  (4515) 
MS1

>  <INSTRUMENT TYPE>  (4515) 
EI-B

>  <INSTRUMENT>  (4515) 
HITACHI RMU-6M

>  <ION MODE>  (4515) 
P

>  <INCHIKEY>  (4515) 
XVSZRAWFCDHCBP-UHFFFAOYSA-N

>  <FORMULA>  (4515) 
C11H22O2

>  <EXACT MASS>  (4515) 
186.161979944

>  <MW>  (4515) 
186

>  <ID>  (4515) 
JP005307

>  <CONTRIBUTOR>  (4515) 
University of Tokyo Team, {Faculty of Engineering, University of Tokyo

>  <COMMENT>  (4515) 
SMILES=CCCCCC(=O)OCCC(C)C
InChI=InChI=1S/C11H22O2/c1-4-5-6-7-11(12)13-9-8-10(2)3/h10H,4-9H2,1-3H3
computed SMILES=O=C(OCCC(C)C)CCCCC
accession=JP005307
date=2016.01.19 (Created 2008.10.21, modified 2011.05.06)
author=YAMAMOTO M, DEP. CHEMISTRY, FAC. SCIENCE, NARA WOMEN'S UNIV.
license=CC BY-NC-SA
exact mass=186.16198
ionization energy=70 eV
ion type=[M]+*
computed spectral entropy=2.4579305442268606
computed normalized entropy=0.7299419677767764
SPLASH=splash10-00di-9000000000-2b8fdd0269fd8c5f0f7d
submitter=submitter = University of Tokyo Team (Faculty of Engineering, University of Tokyo)
MoNA Rating=3.75

>  <NUM PEAKS>  (4515) 
29

>  <MASS SPECTRAL PEAKS>  (4515) 
27 9.28
28 3.24
29 12.44
39 5.16
41 16.73
42 9.81
43 50.59
44 1.75
45 1.57
53 1.22
55 21.37
56 2.01
57 1.31
60 4.2
61 1.22
69 4.72
70 99.99
71 34.91
72 1.83
73 2.71
87 2.1
99 33.73
100 2.54
115 1.31
116 1.75
117 10.07
130 1.57
143 1.75
184 0.43

$$$$

     RDKit          2D

 12 11  0  0  0  0  0  0  0  0999 V2000
    2.9228    5.4375    0.0000 C   0  0  0  0  0  0  0  0  0  0  0  0
   -8.7685    6.1875    0.0000 C   0  0  0  0  0  0  0  0  0  0  0  0
   -7.4695    3.9375    0.0000 C   0  0  0  0  0  0  0  0  0  0  0  0
    1.6238    6.1875    0.0000 C   0  0  0  0  0  0  0  0  0  0  0  0
    0.3248    5.4375    0.0000 C   0  0  0  0  0  0  0  0  0  0  0  0
   -0.9743    6.1875    0.0000 C   0  0  0  0  0  0  0  0  0  0  0  0
   -2.2733    5.4375    0.0000 C   0  0  0  0  0  0  0  0  0  0  0  0
   -6.1704    6.1875    0.0000 C   0  0  0  0  0  0  0  0  0  0  0  0
   -7.4695    5.4375    0.0000 C   0  0  0  0  0  0  0  0  0  0  0  0
   -3.5724    6.1875    0.0000 C   0  0  0  0  0  0  0  0  0  0  0  0
   -3.5724    7.6875    0.0000 O   0  0  0  0  0  0  0  0  0  0  0  0
   -4.8714    5.4375    0.0000 O   0  0  0  0  0  0  0  0  0  0  0  0
  4  1  1  0
  5  4  1  0
  6  5  1  0
  7  6  1  0
  9  2  1  0
  9  3  1  0
  9  8  1  0
 10  7  1  0
 11 10  2  0
 12  8  1  0
 12 10  1  0
M  END
>  <NAME>  (4516) 
HEXANOIC ACID ISOBUTYL ESTER

>  <SYNONYMS>  (4516) 


>  <SPECTRUM TYPE>  (4516) 
MS1

>  <INSTRUMENT TYPE>  (4516) 
EI-B

>  <INSTRUMENT>  (4516) 
HITACHI RMU-6M

>  <ION MODE>  (4516) 
P

>  <INCHIKEY>  (4516) 
UXUPPWPIGVTVQI-UHFFFAOYSA-N

>  <FORMULA>  (4516) 
C10H20O2

>  <EXACT MASS>  (4516) 
172.14632988

>  <MW>  (4516) 
172

>  <ID>  (4516) 
JP005306

>  <CONTRIBUTOR>  (4516) 
University of Tokyo Team, {Faculty of Engineering, University of Tokyo

>  <COMMENT>  (4516) 
SMILES=CCCCCC(=O)OCC(C)C
InChI=InChI=1S/C10H20O2/c1-4-5-6-7-10(11)12-8-9(2)3/h9H,4-8H2,1-3H3
computed SMILES=O=C(OCC(C)C)CCCCC
accession=JP005306
date=2016.01.19 (Created 2008.10.21, modified 2011.05.06)
author=YAMAMOTO M, DEP. CHEMISTRY, FAC. SCIENCE, NARA WOMEN'S UNIV.
license=CC BY-NC-SA
exact mass=172.14633
ionization energy=70 eV
ion type=[M]+*
computed spectral entropy=2.763940708837407
computed normalized entropy=0.7598282452903622
SPLASH=splash10-0a4m-9100000000-83cdb3222e6258087562
submitter=submitter = University of Tokyo Team (Faculty of Engineering, University of Tokyo)
MoNA Rating=3.75

>  <NUM PEAKS>  (4516) 
38

>  <MASS SPECTRAL PEAKS>  (4516) 
15 1.25
27 15.4
28 4.78
29 27.99
31 1.97
39 9.36
40 1.77
41 34.81
42 7.49
43 50
44 1.56
45 1.45
53 1.35
55 9.26
56 93.8
57 47.92
58 2.08
60 19.88
61 4.16
69 2.91
70 2.08
71 26.64
72 1.56
73 9.41
74 1.56
86 1.45
87 5.41
89 1.56
98 1.04
99 99.99
100 6.86
101 1.04
116 10.09
117 34.5
118 2.39
129 2.81
142 2.08
172 0.62

$$$$

     RDKit          2D

 12 11  0  0  0  0  0  0  0  0999 V2000
    3.2476    5.6250    0.0000 C   0  0  0  0  0  0  0  0  0  0  0  0
   -9.7428    5.6250    0.0000 C   0  0  0  0  0  0  0  0  0  0  0  0
    1.9486    6.3750    0.0000 C   0  0  0  0  0  0  0  0  0  0  0  0
   -8.4437    6.3750    0.0000 C   0  0  0  0  0  0  0  0  0  0  0  0
    0.6495    5.6250    0.0000 C   0  0  0  0  0  0  0  0  0  0  0  0
   -7.1447    5.6250    0.0000 C   0  0  0  0  0  0  0  0  0  0  0  0
   -0.6495    6.3750    0.0000 C   0  0  0  0  0  0  0  0  0  0  0  0
   -1.9486    5.6250    0.0000 C   0  0  0  0  0  0  0  0  0  0  0  0
   -5.8457    6.3750    0.0000 C   0  0  0  0  0  0  0  0  0  0  0  0
   -3.2476    6.3750    0.0000 C   0  0  0  0  0  0  0  0  0  0  0  0
   -3.2476    7.8750    0.0000 O   0  0  0  0  0  0  0  0  0  0  0  0
   -4.5466    5.6250    0.0000 O   0  0  0  0  0  0  0  0  0  0  0  0
  3  1  1  0
  4  2  1  0
  5  3  1  0
  6  4  1  0
  7  5  1  0
  8  7  1  0
  9  6  1  0
 10  8  1  0
 11 10  2  0
 12  9  1  0
 12 10  1  0
M  END
>  <NAME>  (4517) 
HEXANOIC ACID BUTYL ESTER

>  <SYNONYMS>  (4517) 


>  <SPECTRUM TYPE>  (4517) 
MS1

>  <INSTRUMENT TYPE>  (4517) 
EI-B

>  <INSTRUMENT>  (4517) 
HITACHI RMU-6M

>  <ION MODE>  (4517) 
P

>  <INCHIKEY>  (4517) 
RPRPDTXKGSIXMD-UHFFFAOYSA-N

>  <FORMULA>  (4517) 
C10H20O2

>  <EXACT MASS>  (4517) 
172.14632988

>  <MW>  (4517) 
172

>  <ID>  (4517) 
JP005305

>  <CONTRIBUTOR>  (4517) 
University of Tokyo Team, {Faculty of Engineering, University of Tokyo

>  <COMMENT>  (4517) 
SMILES=CCCCCC(=O)OCCCC
InChI=InChI=1S/C10H20O2/c1-3-5-7-8-10(11)12-9-6-4-2/h3-9H2,1-2H3
computed SMILES=O=C(OCCCC)CCCCC
accession=JP005305
date=2016.01.19 (Created 2008.10.21, modified 2011.05.06)
author=YAMAMOTO M, DEP. CHEMISTRY, FAC. SCIENCE, NARA WOMEN'S UNIV.
license=CC BY-NC-SA
exact mass=172.14633
ionization energy=70 eV
ion type=[M]+*
computed spectral entropy=2.901717312095435
computed normalized entropy=0.7763439812607439
SPLASH=splash10-0aov-9100000000-0be1efe36e16fde2adf0
submitter=submitter = University of Tokyo Team (Faculty of Engineering, University of Tokyo)
MoNA Rating=3.75

>  <NUM PEAKS>  (4517) 
42

>  <MASS SPECTRAL PEAKS>  (4517) 
15 1.3
26 1.11
27 19.01
28 6.74
29 36.77
30 1.01
31 2.21
39 9.45
40 1.91
41 39.84
42 7.95
43 50.86
44 1.61
45 2.61
53 1.81
55 15.49
56 99.99
57 27.87
58 1.01
60 21.16
61 9.06
69 4.22
70 2.51
71 22.89
72 1.2
73 15.49
74 2.21
75 1.81
84 1.01
86 1.2
87 8.45
89 4.03
97 1.2
98 1.1
99 70.21
100 4.83
101 3.21
116 11.77
117 72.29
118 4.93
129 2.72
172 0.6

$$$$

     RDKit          2D

 11 10  0  0  0  0  0  0  0  0999 V2000
    2.5981    4.5000    0.0000 C   0  0  0  0  0  0  0  0  0  0  0  0
   -7.7942    4.5000    0.0000 C   0  0  0  0  0  0  0  0  0  0  0  0
   -6.4952    6.7500    0.0000 C   0  0  0  0  0  0  0  0  0  0  0  0
    1.2990    5.2500    0.0000 C   0  0  0  0  0  0  0  0  0  0  0  0
    0.0000    4.5000    0.0000 C   0  0  0  0  0  0  0  0  0  0  0  0
   -1.2990    5.2500    0.0000 C   0  0  0  0  0  0  0  0  0  0  0  0
   -2.5981    4.5000    0.0000 C   0  0  0  0  0  0  0  0  0  0  0  0
   -6.4952    5.2500    0.0000 C   0  0  0  0  0  0  0  0  0  0  0  0
   -3.8971    5.2500    0.0000 C   0  0  0  0  0  0  0  0  0  0  0  0
   -3.8971    6.7500    0.0000 O   0  0  0  0  0  0  0  0  0  0  0  0
   -5.1962    4.5000    0.0000 O   0  0  0  0  0  0  0  0  0  0  0  0
  4  1  1  0
  5  4  1  0
  6  5  1  0
  7  6  1  0
  8  2  1  0
  8  3  1  0
  9  7  1  0
 10  9  2  0
 11  8  1  0
 11  9  1  0
M  END
>  <NAME>  (4518) 
HEXANOIC ACID ISOPROPYL ESTER

>  <SYNONYMS>  (4518) 


>  <SPECTRUM TYPE>  (4518) 
MS1

>  <INSTRUMENT TYPE>  (4518) 
EI-B

>  <INSTRUMENT>  (4518) 
HITACHI RMU-6M

>  <ION MODE>  (4518) 
P

>  <INCHIKEY>  (4518) 
JSHDAORXSNJOBA-UHFFFAOYSA-N

>  <FORMULA>  (4518) 
C9H18O2

>  <EXACT MASS>  (4518) 
158.130679816

>  <MW>  (4518) 
158

>  <ID>  (4518) 
JP005304

>  <CONTRIBUTOR>  (4518) 
University of Tokyo Team, {Faculty of Engineering, University of Tokyo

>  <COMMENT>  (4518) 
SMILES=CCCCCC(=O)OC(C)C
InChI=InChI=1S/C9H18O2/c1-4-5-6-7-9(10)11-8(2)3/h8H,4-7H2,1-3H3
computed SMILES=O=C(OC(C)C)CCCCC
accession=JP005304
date=2016.01.19 (Created 2008.10.21, modified 2011.05.06)
author=YAMAMOTO M, DEP. CHEMISTRY, FAC. SCIENCE, NARA WOMEN'S UNIV.
license=CC BY-NC-SA
exact mass=158.13068
ionization energy=70 eV
ion type=[M]+*
computed spectral entropy=2.912706681295827
computed normalized entropy=0.8066388524359704
SPLASH=splash10-0006-9100000000-78c00e08ab30763b5e58
submitter=submitter = University of Tokyo Team (Faculty of Engineering, University of Tokyo)
MoNA Rating=3.75

>  <NUM PEAKS>  (4518) 
37

>  <MASS SPECTRAL PEAKS>  (4518) 
15 2.13
27 19.16
28 3.46
29 11.62
31 1.24
39 8.95
40 1.86
41 27.76
42 14.73
43 99.99
44 3.37
45 3.28
55 7.28
56 7.72
57 3.9
59 20.68
60 52.09
61 8.78
69 4.26
70 3.37
71 20.05
72 1.06
73 15.35
74 2.39
75 1.06
87 7.45
89 2.21
97 1.51
99 57.19
100 3.72
102 22.72
103 1.42
116 13.75
117 31.28
118 2.04
143 4.35
158 1.24

$$$$

     RDKit          2D

 10  9  0  0  0  0  0  0  0  0999 V2000
    2.5981    4.5000    0.0000 C   0  0  0  0  0  0  0  0  0  0  0  0
   -7.7942    4.5000    0.0000 C   0  0  0  0  0  0  0  0  0  0  0  0
    1.2990    5.2500    0.0000 C   0  0  0  0  0  0  0  0  0  0  0  0
   -6.4952    5.2500    0.0000 C   0  0  0  0  0  0  0  0  0  0  0  0
    0.0000    4.5000    0.0000 C   0  0  0  0  0  0  0  0  0  0  0  0
   -1.2990    5.2500    0.0000 C   0  0  0  0  0  0  0  0  0  0  0  0
   -2.5981    4.5000    0.0000 C   0  0  0  0  0  0  0  0  0  0  0  0
   -3.8971    5.2500    0.0000 C   0  0  0  0  0  0  0  0  0  0  0  0
   -3.8971    6.7500    0.0000 O   0  0  0  0  0  0  0  0  0  0  0  0
   -5.1962    4.5000    0.0000 O   0  0  0  0  0  0  0  0  0  0  0  0
  3  1  1  0
  4  2  1  0
  5  3  1  0
  6  5  1  0
  7  6  1  0
  8  7  1  0
  9  8  2  0
 10  4  1  0
 10  8  1  0
M  END
>  <NAME>  (4519) 
HEXANOIC ACID ETHYL ESTER

>  <SYNONYMS>  (4519) 


>  <SPECTRUM TYPE>  (4519) 
MS1

>  <INSTRUMENT TYPE>  (4519) 
EI-B

>  <INSTRUMENT>  (4519) 
HITACHI RMU-6M

>  <ION MODE>  (4519) 
P

>  <INCHIKEY>  (4519) 
SHZIWNPUGXLXDT-UHFFFAOYSA-N

>  <FORMULA>  (4519) 
C8H16O2

>  <EXACT MASS>  (4519) 
144.115029752

>  <MW>  (4519) 
144

>  <ID>  (4519) 
JP005303

>  <CONTRIBUTOR>  (4519) 
University of Tokyo Team, {Faculty of Engineering, University of Tokyo

>  <COMMENT>  (4519) 
SMILES=CCCCCC(=O)OCC
InChI=InChI=1S/C8H16O2/c1-3-5-6-7-8(9)10-4-2/h3-7H2,1-2H3
computed SMILES=O=C(OCC)CCCCC
accession=JP005303
date=2016.01.19 (Created 2008.10.21, modified 2011.05.06)
author=YAMAMOTO M, DEP. CHEMISTRY, FAC. SCIENCE, NARA WOMEN'S UNIV.
license=CC BY-NC-SA
exact mass=144.11503
ionization energy=70 eV
ion type=[M]+*
computed spectral entropy=2.9839668604965057
computed normalized entropy=0.8144988807951149
SPLASH=splash10-01rl-9000000000-c4a428f4af3678af55b5
submitter=submitter = University of Tokyo Team (Faculty of Engineering, University of Tokyo)
MoNA Rating=3.75

>  <NUM PEAKS>  (4519) 
39

>  <MASS SPECTRAL PEAKS>  (4519) 
15 2.21
26 2.12
27 25.59
28 6.92
29 50.02
30 1.34
31 1.73
39 10.1
40 2.02
41 24.43
42 10.19
43 57.19
44 1.92
45 16.45
53 1.63
55 11.25
56 2.59
57 1.73
59 1.25
60 36.08
61 22.22
69 5
70 19.14
71 22.7
72 1.34
73 19.53
74 3.31
87 5.58
88 99.99
89 5.58
97 1.92
98 1.34
99 48.25
100 3.27
101 23.67
102 2.98
115 7.21
117 4.71
144 2.88

$$$$

     RDKit          2D

  9  8  0  0  0  0  0  0  0  0999 V2000
   -6.4952    4.5000    0.0000 C   0  0  0  0  0  0  0  0  0  0  0  0
    2.5981    3.7500    0.0000 C   0  0  0  0  0  0  0  0  0  0  0  0
   -5.1962    3.7500    0.0000 C   0  0  0  0  0  0  0  0  0  0  0  0
   -3.8971    4.5000    0.0000 C   0  0  0  0  0  0  0  0  0  0  0  0
   -2.5981    3.7500    0.0000 C   0  0  0  0  0  0  0  0  0  0  0  0
   -1.2990    4.5000    0.0000 C   0  0  0  0  0  0  0  0  0  0  0  0
    0.0000    3.7500    0.0000 C   0  0  0  0  0  0  0  0  0  0  0  0
   -0.0000    2.2500    0.0000 O   0  0  0  0  0  0  0  0  0  0  0  0
    1.2990    4.5000    0.0000 O   0  0  0  0  0  0  0  0  0  0  0  0
  3  1  1  0
  4  3  1  0
  5  4  1  0
  6  5  1  0
  7  6  1  0
  8  7  2  0
  9  2  1  0
  9  7  1  0
M  END
>  <NAME>  (4520) 
HEXANOIC ACID METHYL ESTER

>  <SYNONYMS>  (4520) 


>  <SPECTRUM TYPE>  (4520) 
MS1

>  <INSTRUMENT TYPE>  (4520) 
EI-B

>  <INSTRUMENT>  (4520) 
HITACHI RMU-6M

>  <ION MODE>  (4520) 
P

>  <INCHIKEY>  (4520) 
NUKZAGXMHTUAFE-UHFFFAOYSA-N

>  <FORMULA>  (4520) 
C7H14O2

>  <EXACT MASS>  (4520) 
130.099379688

>  <MW>  (4520) 
130

>  <ID>  (4520) 
JP005302

>  <CONTRIBUTOR>  (4520) 
University of Tokyo Team, {Faculty of Engineering, University of Tokyo

>  <COMMENT>  (4520) 
SMILES=CCCCCC(=O)OC
InChI=InChI=1S/C7H14O2/c1-3-4-5-6-7(8)9-2/h3-6H2,1-2H3
computed SMILES=O=C(OC)CCCCC
accession=JP005302
date=2016.01.19 (Created 2008.10.21, modified 2011.05.06)
author=YAMAMOTO M, DEP. CHEMISTRY, FAC. SCIENCE, NARA WOMEN'S UNIV.
license=CC BY-NC-SA
exact mass=130.09938
ionization energy=70 eV
ion type=[M]+*
computed spectral entropy=2.6065760050675375
computed normalized entropy=0.7663701081040205
SPLASH=splash10-00di-9000000000-1c6d18f72b4323dcbb3d
submitter=submitter = University of Tokyo Team (Faculty of Engineering, University of Tokyo)
MoNA Rating=3.75

>  <NUM PEAKS>  (4520) 
30

>  <MASS SPECTRAL PEAKS>  (4520) 
15 11.76
26 1.12
27 12.97
28 3.26
29 12.22
31 2.05
39 8.58
40 1.49
41 17.45
42 6.34
43 28.28
44 1.49
45 1.77
53 1.3
55 7.09
56 1.21
57 3.26
59 12.22
69 2.24
70 2.24
71 8.31
73 1.21
74 99.99
75 5.04
83 28.65
84 3.54
99 18.66
100 1.3
101 6.7
130 1.21

$$$$

     RDKit          2D

 12 11  0  0  0  0  0  0  0  0999 V2000
   -6.8200    5.0625    0.0000 C   0  0  0  0  0  0  0  0  0  0  0  0
   -5.5209    2.8125    0.0000 C   0  0  0  0  0  0  0  0  0  0  0  0
    3.5724    5.0625    0.0000 C   0  0  0  0  0  0  0  0  0  0  0  0
    2.2733    2.8125    0.0000 C   0  0  0  0  0  0  0  0  0  0  0  0
   -4.2219    5.0625    0.0000 C   0  0  0  0  0  0  0  0  0  0  0  0
   -2.9228    4.3125    0.0000 C   0  0  0  0  0  0  0  0  0  0  0  0
    0.9743    5.0625    0.0000 C   0  0  0  0  0  0  0  0  0  0  0  0
   -5.5209    4.3125    0.0000 C   0  0  0  0  0  0  0  0  0  0  0  0
    2.2733    4.3125    0.0000 C   0  0  0  0  0  0  0  0  0  0  0  0
   -0.3248    4.3125    0.0000 C   0  0  0  0  0  0  0  0  0  0  0  0
   -0.3248    2.8125    0.0000 O   0  0  0  0  0  0  0  0  0  0  0  0
   -1.6238    5.0625    0.0000 O   0  0  0  0  0  0  0  0  0  0  0  0
  6  5  1  0
  8  1  1  0
  8  2  1  0
  8  5  1  0
  9  3  1  0
  9  4  1  0
  9  7  1  0
 10  7  1  0
 11 10  2  0
 12  6  1  0
 12 10  1  0
M  END
>  <NAME>  (4521) 
ISOPENTYL ISOVALERATE

>  <SYNONYMS>  (4521) 
3-METHYLBUTANOIC ACID ISOPENTYL ESTER

>  <SPECTRUM TYPE>  (4521) 
MS1

>  <INSTRUMENT TYPE>  (4521) 
EI-B

>  <INSTRUMENT>  (4521) 
HITACHI RMU-6M

>  <ION MODE>  (4521) 
P

>  <INCHIKEY>  (4521) 
XINCECQTMHSORG-UHFFFAOYSA-N

>  <FORMULA>  (4521) 
C10H20O2

>  <EXACT MASS>  (4521) 
172.14632988

>  <MW>  (4521) 
172

>  <ID>  (4521) 
JP005301

>  <CONTRIBUTOR>  (4521) 
University of Tokyo Team, {Faculty of Engineering, University of Tokyo

>  <COMMENT>  (4521) 
SMILES=CC(C)CCOC(=O)CC(C)C
InChI=InChI=1S/C10H20O2/c1-8(2)5-6-12-10(11)7-9(3)4/h8-9H,5-7H2,1-4H3
computed SMILES=O=C(OCCC(C)C)CC(C)C
accession=JP005301
date=2016.01.19 (Created 2008.10.21, modified 2011.05.06)
author=YAMAMOTO M, DEP. CHEMISTRY, FAC. SCIENCE, NARA WOMEN'S UNIV.
license=CC BY-NC-SA
exact mass=172.14633
ionization energy=70 eV
ion type=[M]+*
computed spectral entropy=2.60491724279315
computed normalized entropy=0.7516202376207659
SPLASH=splash10-00dl-9000000000-85cd3d65446dc9af8115
submitter=submitter = University of Tokyo Team (Faculty of Engineering, University of Tokyo)
MoNA Rating=3.75

>  <NUM PEAKS>  (4521) 
32

>  <MASS SPECTRAL PEAKS>  (4521) 
15 1.26
27 9.87
28 2.22
29 14.3
39 7.21
40 1.14
41 22.6
42 10.76
43 38.48
44 1.14
45 1.64
53 1.14
55 22.4
56 3.16
57 33.93
58 1.39
59 1.77
60 5.06
61 2.28
69 3.54
70 99.99
71 28.73
72 1.26
85 56.39
86 3.16
87 3.67
102 2.28
103 11.65
115 2.91
129 1.77
130 1.77
170 0.5

$$$$

     RDKit          2D

 11 10  0  0  0  0  0  0  0  0999 V2000
   -6.4952    4.5000    0.0000 C   0  0  0  0  0  0  0  0  0  0  0  0
   -5.1962    2.2500    0.0000 C   0  0  0  0  0  0  0  0  0  0  0  0
    2.5981    3.7500    0.0000 C   0  0  0  0  0  0  0  0  0  0  0  0
    1.2990    6.0000    0.0000 C   0  0  0  0  0  0  0  0  0  0  0  0
   -3.8971    4.5000    0.0000 C   0  0  0  0  0  0  0  0  0  0  0  0
    0.0000    3.7500    0.0000 C   0  0  0  0  0  0  0  0  0  0  0  0
   -5.1962    3.7500    0.0000 C   0  0  0  0  0  0  0  0  0  0  0  0
    1.2990    4.5000    0.0000 C   0  0  0  0  0  0  0  0  0  0  0  0
   -2.5981    3.7500    0.0000 C   0  0  0  0  0  0  0  0  0  0  0  0
   -2.5981    2.2500    0.0000 O   0  0  0  0  0  0  0  0  0  0  0  0
   -1.2990    4.5000    0.0000 O   0  0  0  0  0  0  0  0  0  0  0  0
  7  1  1  0
  7  2  1  0
  7  5  1  0
  8  3  1  0
  8  4  1  0
  8  6  1  0
  9  5  1  0
 10  9  2  0
 11  6  1  0
 11  9  1  0
M  END
>  <NAME>  (4522) 
ISOBUTYL ISOVALERATE

>  <SYNONYMS>  (4522) 
3-METHYLBUTANOIC ACID ISOBUTYL ESTER

>  <SPECTRUM TYPE>  (4522) 
MS1

>  <INSTRUMENT TYPE>  (4522) 
EI-B

>  <INSTRUMENT>  (4522) 
HITACHI RMU-6M

>  <ION MODE>  (4522) 
P

>  <INCHIKEY>  (4522) 
KEBDNKNVCHQIJU-UHFFFAOYSA-N

>  <FORMULA>  (4522) 
C9H18O2

>  <EXACT MASS>  (4522) 
158.130679816

>  <MW>  (4522) 
158

>  <ID>  (4522) 
JP005300

>  <CONTRIBUTOR>  (4522) 
University of Tokyo Team, {Faculty of Engineering, University of Tokyo

>  <COMMENT>  (4522) 
SMILES=CC(C)COC(=O)CC(C)C
InChI=InChI=1S/C9H18O2/c1-7(2)5-9(10)11-6-8(3)4/h7-8H,5-6H2,1-4H3
computed SMILES=O=C(OCC(C)C)CC(C)C
accession=JP005300
date=2016.01.19 (Created 2008.10.21, modified 2011.05.06)
author=YAMAMOTO M, DEP. CHEMISTRY, FAC. SCIENCE, NARA WOMEN'S UNIV.
license=CC BY-NC-SA
exact mass=158.13068
ionization energy=70 eV
ion type=[M]+*
computed spectral entropy=2.5509621373095364
computed normalized entropy=0.7428572051688815
SPLASH=splash10-0a4r-9000000000-1e5622a34261a1d42c75
submitter=submitter = University of Tokyo Team (Faculty of Engineering, University of Tokyo)
MoNA Rating=3.75

>  <NUM PEAKS>  (4522) 
31

>  <MASS SPECTRAL PEAKS>  (4522) 
15 1.6
27 11.43
28 2.99
29 24.36
31 1.6
39 10.18
40 1.99
41 35.64
42 5.44
43 12.08
45 1.45
55 4.44
56 64.36
57 88.45
58 3.89
59 2.65
60 16.98
61 4.09
69 1.5
73 2.8
85 99.99
86 5.89
87 8.88
101 1.35
102 4.19
103 25.16
104 1.5
115 4.64
116 4.84
128 2.09
158 0.59

$$$$

     RDKit          2D

  9  8  0  0  0  0  0  0  0  0999 V2000
    1.9486    3.3750    0.0000 C   0  0  0  0  0  0  0  0  0  0  0  0
   -5.8457    3.3750    0.0000 C   0  0  0  0  0  0  0  0  0  0  0  0
   -4.5466    5.6250    0.0000 C   0  0  0  0  0  0  0  0  0  0  0  0
    0.6495    4.1250    0.0000 C   0  0  0  0  0  0  0  0  0  0  0  0
   -3.2476    3.3750    0.0000 C   0  0  0  0  0  0  0  0  0  0  0  0
   -4.5466    4.1250    0.0000 C   0  0  0  0  0  0  0  0  0  0  0  0
   -1.9486    4.1250    0.0000 C   0  0  0  0  0  0  0  0  0  0  0  0
   -1.9486    5.6250    0.0000 O   0  0  0  0  0  0  0  0  0  0  0  0
   -0.6495    3.3750    0.0000 O   0  0  0  0  0  0  0  0  0  0  0  0
  4  1  1  0
  6  2  1  0
  6  3  1  0
  6  5  1  0
  7  5  1  0
  8  7  2  0
  9  4  1  0
  9  7  1  0
M  END
>  <NAME>  (4523) 
ETHYL ISOVALERATE

>  <SYNONYMS>  (4523) 
3-METHYLBUTANOIC ACID ETHYL ESTER

>  <SPECTRUM TYPE>  (4523) 
MS1

>  <INSTRUMENT TYPE>  (4523) 
EI-B

>  <INSTRUMENT>  (4523) 
HITACHI RMU-6M

>  <ION MODE>  (4523) 
P

>  <INCHIKEY>  (4523) 
PPXUHEORWJQRHJ-UHFFFAOYSA-N

>  <FORMULA>  (4523) 
C7H14O2

>  <EXACT MASS>  (4523) 
130.099379688

>  <MW>  (4523) 
130

>  <ID>  (4523) 
JP005299

>  <CONTRIBUTOR>  (4523) 
University of Tokyo Team, {Faculty of Engineering, University of Tokyo

>  <COMMENT>  (4523) 
SMILES=CCOC(=O)CC(C)C
InChI=InChI=1S/C7H14O2/c1-4-9-7(8)5-6(2)3/h6H,4-5H2,1-3H3
computed SMILES=O=C(OCC)CC(C)C
accession=JP005299
date=2016.01.19 (Created 2008.10.21, modified 2011.05.06)
author=YAMAMOTO M, DEP. CHEMISTRY, FAC. SCIENCE, NARA WOMEN'S UNIV.
license=CC BY-NC-SA
exact mass=130.09938
ionization energy=70 eV
ion type=[M]+*
computed spectral entropy=2.8907043969980384
computed normalized entropy=0.8066664210915103
SPLASH=splash10-002r-9000000000-2e5a458a237911c47c6a
submitter=submitter = University of Tokyo Team (Faculty of Engineering, University of Tokyo)
MoNA Rating=3.75

>  <NUM PEAKS>  (4523) 
36

>  <MASS SPECTRAL PEAKS>  (4523) 
15 4.17
26 2.14
27 24.77
28 4.69
29 67.12
30 1.39
31 1.85
38 1.1
39 14.68
40 2.55
41 37.12
42 8.58
43 22.96
44 1.33
45 18.45
53 1.27
55 5.56
56 7.19
57 62.3
58 2.9
59 13.57
60 43.45
61 24.31
69 3.54
70 15.72
71 1.22
73 6.26
85 68.08
86 4
87 12.29
88 99.99
89 4.87
101 1.39
103 4.23
115 10.32
130 4.93

$$$$

     RDKit          2D

  8  7  0  0  0  0  0  0  0  0999 V2000
   -3.5724    3.9375    0.0000 C   0  0  0  0  0  0  0  0  0  0  0  0
   -2.2733    1.6875    0.0000 C   0  0  0  0  0  0  0  0  0  0  0  0
    2.9228    3.1875    0.0000 C   0  0  0  0  0  0  0  0  0  0  0  0
   -0.9743    3.9375    0.0000 C   0  0  0  0  0  0  0  0  0  0  0  0
   -2.2733    3.1875    0.0000 C   0  0  0  0  0  0  0  0  0  0  0  0
    0.3248    3.1875    0.0000 C   0  0  0  0  0  0  0  0  0  0  0  0
    0.3248    1.6875    0.0000 O   0  0  0  0  0  0  0  0  0  0  0  0
    1.6238    3.9375    0.0000 O   0  0  0  0  0  0  0  0  0  0  0  0
  5  1  1  0
  5  2  1  0
  5  4  1  0
  6  4  1  0
  7  6  2  0
  8  3  1  0
  8  6  1  0
M  END
>  <NAME>  (4524) 
METHYL ISOVALERATE

>  <SYNONYMS>  (4524) 
3-METHYLBUTANOIC ACID METHYL ESTER

>  <SPECTRUM TYPE>  (4524) 
MS1

>  <INSTRUMENT TYPE>  (4524) 
EI-B

>  <INSTRUMENT>  (4524) 
HITACHI RMU-6M

>  <ION MODE>  (4524) 
P

>  <INCHIKEY>  (4524) 
OQAGVSWESNCJJT-UHFFFAOYSA-N

>  <FORMULA>  (4524) 
C6H12O2

>  <EXACT MASS>  (4524) 
116.083729624

>  <MW>  (4524) 
116

>  <ID>  (4524) 
JP005298

>  <CONTRIBUTOR>  (4524) 
University of Tokyo Team, {Faculty of Engineering, University of Tokyo

>  <COMMENT>  (4524) 
SMILES=COC(=O)CC(C)C
InChI=InChI=1S/C6H12O2/c1-5(2)4-6(7)8-3/h5H,4H2,1-3H3
computed SMILES=O=C(OC)CC(C)C
accession=JP005298
date=2016.01.19 (Created 2008.10.21, modified 2011.05.06)
author=YAMAMOTO M, DEP. CHEMISTRY, FAC. SCIENCE, NARA WOMEN'S UNIV.
license=CC BY-NC-SA
exact mass=116.08373
ionization energy=70 eV
ion type=[M]+*
computed spectral entropy=2.5749155101326195
computed normalized entropy=0.7812630341908546
SPLASH=splash10-00dl-9000000000-7f5aff59c48fa693bf95
submitter=submitter = University of Tokyo Team (Faculty of Engineering, University of Tokyo)
MoNA Rating=3.75

>  <NUM PEAKS>  (4524) 
27

>  <MASS SPECTRAL PEAKS>  (4524) 
15 15.99
27 11.24
28 2.14
29 16.34
31 2.9
38 1.16
39 12.79
40 2.08
41 27.59
42 5.21
43 34.68
44 1.97
45 1.16
53 1.16
55 3.24
56 4.29
57 25.76
58 1.16
59 20.62
69 4.98
73 2.89
74 99.99
75 4.06
85 30.25
86 1.74
101 13.67
116 2.89

$$$$

     RDKit          2D

  9  8  0  0  0  0  0  0  0  0999 V2000
   -6.4952    4.5000    0.0000 C   0  0  0  0  0  0  0  0  0  0  0  0
    2.5981    3.7500    0.0000 C   0  0  0  0  0  0  0  0  0  0  0  0
   -5.1962    3.7500    0.0000 C   0  0  0  0  0  0  0  0  0  0  0  0
    1.2990    4.5000    0.0000 C   0  0  0  0  0  0  0  0  0  0  0  0
   -3.8971    4.5000    0.0000 C   0  0  0  0  0  0  0  0  0  0  0  0
   -2.5981    3.7500    0.0000 C   0  0  0  0  0  0  0  0  0  0  0  0
   -1.2990    4.5000    0.0000 C   0  0  0  0  0  0  0  0  0  0  0  0
   -1.2990    6.0000    0.0000 O   0  0  0  0  0  0  0  0  0  0  0  0
   -0.0000    3.7500    0.0000 O   0  0  0  0  0  0  0  0  0  0  0  0
  3  1  1  0
  4  2  1  0
  5  3  1  0
  6  5  1  0
  7  6  1  0
  8  7  2  0
  9  4  1  0
  9  7  1  0
M  END
>  <NAME>  (4525) 
ETHYL VALERATE

>  <SYNONYMS>  (4525) 
PENTANOIC ACID ETHYL ESTER

>  <SPECTRUM TYPE>  (4525) 
MS1

>  <INSTRUMENT TYPE>  (4525) 
EI-B

>  <INSTRUMENT>  (4525) 
HITACHI RMU-6M

>  <ION MODE>  (4525) 
P

>  <INCHIKEY>  (4525) 
ICMAFTSLXCXHRK-UHFFFAOYSA-N

>  <FORMULA>  (4525) 
C7H14O2

>  <EXACT MASS>  (4525) 
130.099379688

>  <MW>  (4525) 
130

>  <ID>  (4525) 
JP005297

>  <CONTRIBUTOR>  (4525) 
University of Tokyo Team, {Faculty of Engineering, University of Tokyo

>  <COMMENT>  (4525) 
SMILES=CCCCC(=O)OCC
InChI=InChI=1S/C7H14O2/c1-3-5-6-7(8)9-4-2/h3-6H2,1-2H3
computed SMILES=O=C(OCC)CCCC
accession=JP005297
date=2016.01.19 (Created 2008.10.21, modified 2011.05.06)
author=YAMAMOTO M, DEP. CHEMISTRY, FAC. SCIENCE, NARA WOMEN'S UNIV.
license=CC BY-NC-SA
exact mass=130.09938
ionization energy=70 eV
ion type=[M]+*
computed spectral entropy=2.8743269837409935
computed normalized entropy=0.7901742687401242
SPLASH=splash10-002r-9000000000-0f14f9667756ca3a3845
submitter=submitter = University of Tokyo Team (Faculty of Engineering, University of Tokyo)
MoNA Rating=3.75

>  <NUM PEAKS>  (4525) 
38

>  <MASS SPECTRAL PEAKS>  (4525) 
15 3.54
26 3.81
27 35.22
28 15.17
29 96.6
30 2.32
31 2.51
39 11.35
40 1.4
41 38.02
42 7.63
43 9.68
44 1.77
46 20.1
53 1.67
55 9.49
56 6.14
57 71.98
58 3.26
59 2.33
60 45.79
61 24.29
70 17.03
73 24.19
74 2.88
75 1.02
83 1.86
84 1.39
85 86.32
86 4.83
87 2.79
88 99.99
89 4.56
101 24.01
102 3.45
103 8.84
115 2.14
130 2.79

$$$$

     RDKit          2D

 16 15  0  0  0  0  0  0  0  0999 V2000
    4.5466    7.1250    0.0000 C   0  0  0  0  0  0  0  0  0  0  0  0
  -12.3409    7.8750    0.0000 C   0  0  0  0  0  0  0  0  0  0  0  0
    3.2476    7.8750    0.0000 C   0  0  0  0  0  0  0  0  0  0  0  0
  -11.0418    7.1250    0.0000 C   0  0  0  0  0  0  0  0  0  0  0  0
    1.9486    7.1250    0.0000 C   0  0  0  0  0  0  0  0  0  0  0  0
   -9.7428    7.8750    0.0000 C   0  0  0  0  0  0  0  0  0  0  0  0
   -3.2476    7.1250    0.0000 C   0  0  0  0  0  0  0  0  0  0  0  0
   -4.5466    7.8750    0.0000 C   0  0  0  0  0  0  0  0  0  0  0  0
    0.6495    7.8750    0.0000 C   0  0  0  0  0  0  0  0  0  0  0  0
   -8.4437    7.1250    0.0000 C   0  0  0  0  0  0  0  0  0  0  0  0
   -1.9486    7.8750    0.0000 C   0  0  0  0  0  0  0  0  0  0  0  0
   -5.8457    7.1250    0.0000 C   0  0  0  0  0  0  0  0  0  0  0  0
   -1.9486    9.3750    0.0000 O   0  0  0  0  0  0  0  0  0  0  0  0
   -5.8457    5.6250    0.0000 O   0  0  0  0  0  0  0  0  0  0  0  0
   -0.6495    7.1250    0.0000 O   0  0  0  0  0  0  0  0  0  0  0  0
   -7.1447    7.8750    0.0000 O   0  0  0  0  0  0  0  0  0  0  0  0
  3  1  1  0
  4  2  1  0
  5  3  1  0
  6  4  1  0
  7  8  2  0
  9  5  1  0
 10  6  1  0
 11  7  1  0
 12  8  1  0
 13 11  2  0
 14 12  2  0
 15  9  1  0
 15 11  1  0
 16 10  1  0
 16 12  1  0
M  END
>  <NAME>  (4526) 
DIBUTYL FUMARATE

>  <SYNONYMS>  (4526) 
FUMARIC ACID DIBUTYL ESTER

>  <SPECTRUM TYPE>  (4526) 
MS1

>  <INSTRUMENT TYPE>  (4526) 
EI-B

>  <INSTRUMENT>  (4526) 
HITACHI RMU-6M

>  <ION MODE>  (4526) 
P

>  <INCHIKEY>  (4526) 
JBSLOWBPDRZSMB-BQYQJAHWSA-N

>  <FORMULA>  (4526) 
C12H20O4

>  <EXACT MASS>  (4526) 
228.13615912

>  <MW>  (4526) 
228

>  <ID>  (4526) 
JP005296

>  <CONTRIBUTOR>  (4526) 
University of Tokyo Team, {Faculty of Engineering, University of Tokyo

>  <COMMENT>  (4526) 
SMILES=CCCCOC(=O)C=CC(=O)OCCCC
InChI=InChI=1S/C12H20O4/c1-3-5-9-15-11(13)7-8-12(14)16-10-6-4-2/h7-8H,3-6,9-10H2,1-2H3/b8-7+
computed SMILES=O=C(OCCCC)C=CC(=O)OCCCC
accession=JP005296
date=2016.01.19 (Created 2008.10.21, modified 2011.05.06)
author=YAMAMOTO M, DEP. CHEMISTRY, FAC. SCIENCE, NARA WOMEN'S UNIV.
license=CC BY-NC-SA
exact mass=228.13616
ionization energy=70 eV
ion type=[M]+*
computed spectral entropy=2.9443800932613406
computed normalized entropy=0.7734807331025015
SPLASH=splash10-0a4i-9600000000-62d2fc41017e38396f5a
submitter=submitter = University of Tokyo Team (Faculty of Engineering, University of Tokyo)
MoNA Rating=3.75

>  <NUM PEAKS>  (4526) 
45

>  <MASS SPECTRAL PEAKS>  (4526) 
15 1.42
26 7.74
27 26.4
28 7.75
29 41.9
30 1.26
31 2.37
39 8.85
40 1.58
41 44.75
42 2.69
43 5.53
44 1.11
45 2.53
53 6.48
54 17.23
55 17.07
56 99.99
57 59.53
58 2.69
71 5.85
72 2.21
73 1.26
81 8.54
82 13.91
97 2.27
98 2.06
99 49.96
100 17.39
101 1.26
109 2.53
117 97.4
118 4.32
119 1.42
126 1.9
127 9.96
128 1.58
154 5.22
155 96.92
156 9.8
157 1.74
171 1.26
172 1.11
173 52.33
174 4.9

$$$$

     RDKit          2D

 12 11  0  0  0  0  0  0  0  0999 V2000
    3.2476    4.8750    0.0000 C   0  0  0  0  0  0  0  0  0  0  0  0
   -8.4437    5.6250    0.0000 C   0  0  0  0  0  0  0  0  0  0  0  0
    1.9486    5.6250    0.0000 C   0  0  0  0  0  0  0  0  0  0  0  0
   -7.1447    4.8750    0.0000 C   0  0  0  0  0  0  0  0  0  0  0  0
   -1.9486    4.8750    0.0000 C   0  0  0  0  0  0  0  0  0  0  0  0
   -3.2476    5.6250    0.0000 C   0  0  0  0  0  0  0  0  0  0  0  0
   -0.6495    5.6250    0.0000 C   0  0  0  0  0  0  0  0  0  0  0  0
   -4.5466    4.8750    0.0000 C   0  0  0  0  0  0  0  0  0  0  0  0
   -0.6495    7.1250    0.0000 O   0  0  0  0  0  0  0  0  0  0  0  0
   -4.5466    3.3750    0.0000 O   0  0  0  0  0  0  0  0  0  0  0  0
    0.6495    4.8750    0.0000 O   0  0  0  0  0  0  0  0  0  0  0  0
   -5.8457    5.6250    0.0000 O   0  0  0  0  0  0  0  0  0  0  0  0
  3  1  1  0
  4  2  1  0
  5  6  2  0
  7  5  1  0
  8  6  1  0
  9  7  2  0
 10  8  2  0
 11  3  1  0
 11  7  1  0
 12  4  1  0
 12  8  1  0
M  END
>  <NAME>  (4527) 
DIETHYL FUMARATE

>  <SYNONYMS>  (4527) 
FUMARIC ACID DIETHYL ESTER

>  <SPECTRUM TYPE>  (4527) 
MS1

>  <INSTRUMENT TYPE>  (4527) 
EI-B

>  <INSTRUMENT>  (4527) 
HITACHI RMU-6M

>  <ION MODE>  (4527) 
P

>  <INCHIKEY>  (4527) 
IEPRKVQEAMIZSS-AATRIKPKSA-N

>  <FORMULA>  (4527) 
C8H12O4

>  <EXACT MASS>  (4527) 
172.073558864

>  <MW>  (4527) 
172

>  <ID>  (4527) 
JP005295

>  <CONTRIBUTOR>  (4527) 
University of Tokyo Team, {Faculty of Engineering, University of Tokyo

>  <COMMENT>  (4527) 
SMILES=CCOC(=O)C=CC(=O)OCC
InChI=InChI=1S/C8H12O4/c1-3-11-7(9)5-6-8(10)12-4-2/h5-6H,3-4H2,1-2H3/b6-5+
computed SMILES=O=C(OCC)C=CC(=O)OCC
accession=JP005295
date=2016.01.19 (Created 2008.10.21, modified 2011.05.06)
author=YAMAMOTO M, DEP. CHEMISTRY, FAC. SCIENCE, NARA WOMEN'S UNIV.
license=CC BY-NC-SA
exact mass=172.07356
ionization energy=70 eV
ion type=[M]+*
computed spectral entropy=2.692095415036729
computed normalized entropy=0.7915140207832072
SPLASH=splash10-004i-9600000000-aced4161cb1aea6be0e9
submitter=submitter = University of Tokyo Team (Faculty of Engineering, University of Tokyo)
MoNA Rating=3.75

>  <NUM PEAKS>  (4527) 
30

>  <MASS SPECTRAL PEAKS>  (4527) 
15 3.76
26 13.44
27 26.9
28 4.74
29 44.33
30 1.07
31 1.72
42 1.08
43 6.34
44 1.07
45 11.62
53 9.89
54 14.09
55 18.83
56 1.07
71 10.76
72 2.47
81 5.7
82 8.92
98 1.83
99 50.19
100 9.89
117 3.66
125 2.04
126 32.06
127 99.99
128 11.08
129 1.07
143 5.59
145 3.23

$$$$

     RDKit          2D

 10  9  0  0  0  0  0  0  0  0999 V2000
   -6.4952    4.5000    0.0000 C   0  0  0  0  0  0  0  0  0  0  0  0
    2.5981    3.7500    0.0000 C   0  0  0  0  0  0  0  0  0  0  0  0
   -2.5981    3.7500    0.0000 C   0  0  0  0  0  0  0  0  0  0  0  0
   -1.2990    4.5000    0.0000 C   0  0  0  0  0  0  0  0  0  0  0  0
   -3.8971    4.5000    0.0000 C   0  0  0  0  0  0  0  0  0  0  0  0
    0.0000    3.7500    0.0000 C   0  0  0  0  0  0  0  0  0  0  0  0
   -3.8971    6.0000    0.0000 O   0  0  0  0  0  0  0  0  0  0  0  0
   -0.0000    2.2500    0.0000 O   0  0  0  0  0  0  0  0  0  0  0  0
   -5.1962    3.7500    0.0000 O   0  0  0  0  0  0  0  0  0  0  0  0
    1.2990    4.5000    0.0000 O   0  0  0  0  0  0  0  0  0  0  0  0
  3  4  2  0
  5  3  1  0
  6  4  1  0
  7  5  2  0
  8  6  2  0
  9  1  1  0
  9  5  1  0
 10  2  1  0
 10  6  1  0
M  END
>  <NAME>  (4528) 
DIMETHYL FUMARATE

>  <SYNONYMS>  (4528) 
FUMARIC ACID DIMETHYL ESTER

>  <SPECTRUM TYPE>  (4528) 
MS1

>  <INSTRUMENT TYPE>  (4528) 
EI-B

>  <INSTRUMENT>  (4528) 
HITACHI RMU-6M

>  <ION MODE>  (4528) 
P

>  <INCHIKEY>  (4528) 
LDCRTTXIJACKKU-ONEGZZNKSA-N

>  <FORMULA>  (4528) 
C6H8O4

>  <EXACT MASS>  (4528) 
144.042258736

>  <MW>  (4528) 
144

>  <ID>  (4528) 
JP005294

>  <CONTRIBUTOR>  (4528) 
University of Tokyo Team, {Faculty of Engineering, University of Tokyo

>  <COMMENT>  (4528) 
SMILES=COC(=O)C=CC(=O)OC
InChI=InChI=1S/C6H8O4/c1-9-5(7)3-4-6(8)10-2/h3-4H,1-2H3/b4-3+
computed SMILES=O=C(OC)C=CC(=O)OC
accession=JP005294
date=2016.01.19 (Created 2008.10.21, modified 2011.05.06)
author=YAMAMOTO M, DEP. CHEMISTRY, FAC. SCIENCE, NARA WOMEN'S UNIV.
license=CC BY-NC-SA
exact mass=144.04226
ionization energy=70 eV
ion type=[M]+*
computed spectral entropy=2.5547862556441587
computed normalized entropy=0.7371554923098222
SPLASH=splash10-03di-9500000000-38079515fe54a7a128d6
submitter=submitter = University of Tokyo Team (Faculty of Engineering, University of Tokyo)
MoNA Rating=3.75

>  <NUM PEAKS>  (4528) 
32

>  <MASS SPECTRAL PEAKS>  (4528) 
14 1.06
15 30.79
25 1.37
26 14.51
27 3.96
28 7.04
29 6.81
30 2.01
31 2.36
39 4.26
41 4.5
42 1.42
43 1.95
44 2.01
53 13.85
54 10.6
55 3.14
56 1.9
59 27.69
69 1.41
71 1.43
81 3.66
82 5.14
83 1.12
85 42.63
86 2.13
99 1.48
100 2.07
113 99.99
114 18.12
115 1.66
144 3.08

$$$$

     RDKit          2D

  8  8  0  0  0  0  0  0  0  0999 V2000
    2.6360    0.5353    0.0000 C   0  0  0  0  0  0  0  0  0  0  0  0
    0.7500   -1.3600    0.0000 C   0  0  0  0  0  0  0  0  0  0  0  0
   -0.7500   -1.3600    0.0000 C   0  0  0  0  0  0  0  0  0  0  0  0
   -2.6360    0.5353    0.0000 C   0  0  0  0  0  0  0  0  0  0  0  0
    1.2100    0.0700    0.0000 C   0  0  0  0  0  0  0  0  0  0  0  0
   -1.2100    0.0700    0.0000 C   0  0  0  0  0  0  0  0  0  0  0  0
   -3.7520   -0.4670    0.0000 O   0  0  0  0  0  0  0  0  0  0  0  0
    0.0000    0.9500    0.0000 O   0  0  0  0  0  0  0  0  0  0  0  0
  3  2  1  0
  5  1  1  0
  5  2  2  0
  6  3  2  0
  6  4  1  0
  7  4  2  0
  8  5  1  0
  8  6  1  0
M  END
>  <NAME>  (4529) 
5-METHYL-2-FURFURAL

>  <SYNONYMS>  (4529) 


>  <SPECTRUM TYPE>  (4529) 
MS1

>  <INSTRUMENT TYPE>  (4529) 
EI-B

>  <INSTRUMENT>  (4529) 
HITACHI RMU-6M

>  <ION MODE>  (4529) 
P

>  <INCHIKEY>  (4529) 
OUDFNZMQXZILJD-UHFFFAOYSA-N

>  <FORMULA>  (4529) 
C6H6O2

>  <EXACT MASS>  (4529) 
110.036779432

>  <MW>  (4529) 
110

>  <ID>  (4529) 
JP005293

>  <CONTRIBUTOR>  (4529) 
University of Tokyo Team, {Faculty of Engineering, University of Tokyo

>  <COMMENT>  (4529) 
SMILES=O=Cc(c1)oc(C)c1
InChI=InChI=1S/C6H6O2/c1-5-2-3-6(4-7)8-5/h2-4H,1H3
computed SMILES=O=CC=1OC(=CC1)C
accession=JP005293
date=2016.01.19 (Created 2008.10.21, modified 2011.05.06)
author=YAMAMOTO M, DEP. CHEMISTRY, FAC. SCIENCE, NARA WOMEN'S UNIV.
license=CC BY-NC-SA
exact mass=110.03678
ionization energy=70 eV
ion type=[M]+*
computed spectral entropy=2.4122664010876567
computed normalized entropy=0.7239250753432365
SPLASH=splash10-0nmi-8900000000-5ccf71472dd6f90fd628
submitter=submitter = University of Tokyo Team (Faculty of Engineering, University of Tokyo)
MoNA Rating=3.75

>  <NUM PEAKS>  (4529) 
28

>  <MASS SPECTRAL PEAKS>  (4529) 
14 1.07
15 3.45
26 4.88
27 25.59
28 2.5
29 6.78
37 3.57
38 5.35
39 13.57
41 1.07
42 2.26
43 10.36
49 2.38
50 10.12
51 12.97
52 6.9
53 52.5
54 4.76
55 1.19
79 2.14
80 1.66
81 10.71
82 1.07
95 3.21
96 2.02
109 86.42
110 99.99
111 7.02

$$$$

     RDKit          2D

  7  7  0  0  0  0  0  0  0  0999 V2000
   -0.0000   -1.9300    0.0000 C   0  0  0  0  0  0  0  0  0  0  0  0
   -1.3000    0.3200    0.0000 C   0  0  0  0  0  0  0  0  0  0  0  0
    1.3000    0.3200    0.0000 C   0  0  0  0  0  0  0  0  0  0  0  0
   -1.3000    1.8200    0.0000 C   0  0  0  0  0  0  0  0  0  0  0  0
    1.3000    1.8200    0.0000 C   0  0  0  0  0  0  0  0  0  0  0  0
   -0.0000   -0.4300    0.0000 C   0  0  0  0  0  0  0  0  0  0  0  0
    0.0000    2.5700    0.0000 N   0  0  0  0  0  0  0  0  0  0  0  0
  4  2  2  0
  5  3  1  0
  6  1  1  0
  6  2  1  0
  6  3  2  0
  7  4  1  0
  7  5  2  0
M  END
>  <NAME>  (4530) 
GAMMA-PICOLINE

>  <SYNONYMS>  (4530) 
4-METHYLPYRIDINE

>  <SPECTRUM TYPE>  (4530) 
MS1

>  <INSTRUMENT TYPE>  (4530) 
EI-B

>  <INSTRUMENT>  (4530) 
HITACHI RMU-6M

>  <ION MODE>  (4530) 
P

>  <INCHIKEY>  (4530) 
FKNQCJSGGFJEIZ-UHFFFAOYSA-N

>  <FORMULA>  (4530) 
C6H7N

>  <EXACT MASS>  (4530) 
93.057849224

>  <MW>  (4530) 
93

>  <ID>  (4530) 
JP005292

>  <CONTRIBUTOR>  (4530) 
University of Tokyo Team, {Faculty of Engineering, University of Tokyo

>  <COMMENT>  (4530) 
SMILES=Cc(c1)ccnc1
InChI=InChI=1S/C6H7N/c1-6-2-4-7-5-3-6/h2-5H,1H3
computed SMILES=N=1C=CC(=CC1)C
accession=JP005292
date=2016.01.19 (Created 2008.10.21, modified 2011.05.06)
author=YAMAMOTO M, DEP. CHEMISTRY, FAC. SCIENCE, NARA WOMEN'S UNIV.
license=CC BY-NC-SA
exact mass=93.05785
ionization energy=70 eV
ion type=[M]+*
computed spectral entropy=2.5289386090564254
computed normalized entropy=0.7762012511121458
SPLASH=splash10-0006-9000000000-75f1d52abf95872b6e73
submitter=submitter = University of Tokyo Team (Faculty of Engineering, University of Tokyo)
MoNA Rating=3.75

>  <NUM PEAKS>  (4530) 
26

>  <MASS SPECTRAL PEAKS>  (4530) 
26 3.22
27 3.72
28 4
37 3.1
38 6.38
39 22.99
40 10.44
41 3.55
49 1.17
50 5.32
51 8.6
52 4.16
53 5.61
54 7.6
61 1.72
62 2.66
63 5.83
64 3.05
65 18.88
66 36.15
67 8.38
78 4.22
91 1.39
92 21.77
93 99.99
94 7.72

$$$$

     RDKit          2D

  7  7  0  0  0  0  0  0  0  0999 V2000
    2.2289    1.2902    0.0000 C   0  0  0  0  0  0  0  0  0  0  0  0
   -1.6700    0.5400    0.0000 C   0  0  0  0  0  0  0  0  0  0  0  0
   -0.3700    1.2900    0.0000 C   0  0  0  0  0  0  0  0  0  0  0  0
   -1.6700   -0.9600    0.0000 C   0  0  0  0  0  0  0  0  0  0  0  0
    0.9300   -0.9600    0.0000 C   0  0  0  0  0  0  0  0  0  0  0  0
    0.9300    0.5400    0.0000 C   0  0  0  0  0  0  0  0  0  0  0  0
   -0.3700   -1.7100    0.0000 N   0  0  0  0  0  0  0  0  0  0  0  0
  3  2  2  0
  4  2  1  0
  6  1  1  0
  6  3  1  0
  6  5  2  0
  7  4  2  0
  7  5  1  0
M  END
>  <NAME>  (4531) 
BETA-PICOLINE

>  <SYNONYMS>  (4531) 
3-METHYLPYRIDINE

>  <SPECTRUM TYPE>  (4531) 
MS1

>  <INSTRUMENT TYPE>  (4531) 
EI-B

>  <INSTRUMENT>  (4531) 
HITACHI RMU-6M

>  <ION MODE>  (4531) 
P

>  <INCHIKEY>  (4531) 
ITQTTZVARXURQS-UHFFFAOYSA-N

>  <FORMULA>  (4531) 
C6H7N

>  <EXACT MASS>  (4531) 
93.057849224

>  <MW>  (4531) 
93

>  <ID>  (4531) 
JP005291

>  <CONTRIBUTOR>  (4531) 
University of Tokyo Team, {Faculty of Engineering, University of Tokyo

>  <COMMENT>  (4531) 
SMILES=Cc(c1)cncc1
InChI=InChI=1S/C6H7N/c1-6-3-2-4-7-5-6/h2-5H,1H3
computed SMILES=N=1C=CC=C(C1)C
ionization energy=70 eV
accession=JP005291
date=2016.01.19 (Created 2008.10.21, modified 2011.05.06)
author=YAMAMOTO M, DEP. CHEMISTRY, FAC. SCIENCE, NARA WOMEN'S UNIV.
license=CC BY-NC-SA
exact mass=93.05785
ion type=[M]+*
computed spectral entropy=2.474107899453389
computed normalized entropy=0.7506766869966007
SPLASH=splash10-0006-9000000000-6547e160a6da43a20e11
submitter=submitter = University of Tokyo Team (Faculty of Engineering, University of Tokyo)
MoNA Rating=3.75

>  <NUM PEAKS>  (4531) 
27

>  <MASS SPECTRAL PEAKS>  (4531) 
26 2.01
27 2.98
28 3.53
31 1.04
37 3.6
38 8.23
39 28.3
40 12.38
41 2.8
45.5 1.1
50 3.29
51 5.37
52 2.68
53 2.32
54 2.5
61 2.25
62 3.54
63 7.44
64 3.53
65 23.49
66 39.28
67 9.82
78 3.53
91 1.83
92 30.01
93 99.99
94 7.07

$$$$

     RDKit          2D

  7  7  0  0  0  0  0  0  0  0999 V2000
    2.2289    1.2902    0.0000 C   0  0  0  0  0  0  0  0  0  0  0  0
   -0.3700   -1.7100    0.0000 C   0  0  0  0  0  0  0  0  0  0  0  0
   -1.6700   -0.9600    0.0000 C   0  0  0  0  0  0  0  0  0  0  0  0
    0.9300   -0.9600    0.0000 C   0  0  0  0  0  0  0  0  0  0  0  0
   -1.6700    0.5400    0.0000 C   0  0  0  0  0  0  0  0  0  0  0  0
    0.9300    0.5400    0.0000 C   0  0  0  0  0  0  0  0  0  0  0  0
   -0.3700    1.2900    0.0000 N   0  0  0  0  0  0  0  0  0  0  0  0
  3  2  2  0
  4  2  1  0
  5  3  1  0
  6  1  1  0
  6  4  2  0
  7  5  2  0
  7  6  1  0
M  END
>  <NAME>  (4532) 
ALPHA-PICOLINE

>  <SYNONYMS>  (4532) 
2-METHYLPYRIDINE

>  <SPECTRUM TYPE>  (4532) 
MS1

>  <INSTRUMENT TYPE>  (4532) 
EI-B

>  <INSTRUMENT>  (4532) 
HITACHI RMU-6M

>  <ION MODE>  (4532) 
P

>  <INCHIKEY>  (4532) 
BSKHPKMHTQYZBB-UHFFFAOYSA-N

>  <FORMULA>  (4532) 
C6H7N

>  <EXACT MASS>  (4532) 
93.057849224

>  <MW>  (4532) 
93

>  <ID>  (4532) 
JP005290

>  <CONTRIBUTOR>  (4532) 
University of Tokyo Team, {Faculty of Engineering, University of Tokyo

>  <COMMENT>  (4532) 
SMILES=Cc(c1)nccc1
InChI=InChI=1S/C6H7N/c1-6-4-2-3-5-7-6/h2-5H,1H3
computed SMILES=N=1C=CC=CC1C
accession=JP005290
date=2016.01.19 (Created 2008.10.21, modified 2011.05.06)
author=YAMAMOTO M, DEP. CHEMISTRY, FAC. SCIENCE, NARA WOMEN'S UNIV.
license=CC BY-NC-SA
exact mass=93.05785
ionization energy=70 eV
ion type=[M]+*
computed spectral entropy=2.601540579815832
computed normalized entropy=0.7648896220614126
SPLASH=splash10-0006-9000000000-b3226bb92643c265010a
submitter=submitter = University of Tokyo Team (Faculty of Engineering, University of Tokyo)
MoNA Rating=3.75

>  <NUM PEAKS>  (4532) 
30

>  <MASS SPECTRAL PEAKS>  (4532) 
15 1.13
26 3.27
27 3.78
28 3.78
37 3.02
38 5.67
39 17.4
40 6.3
41 3.15
42 3.4
46.5 2.65
49 1.13
50 6.81
51 12.23
52 6.81
53 4.54
54 1.89
61 1.64
62 2.14
63 4.79
64 3.15
65 13.74
66 38.71
67 7.57
78 16.52
79 1.26
91 1.89
92 18.53
93 99.99
94 6.68

$$$$

     RDKit          2D

  3  2  0  0  0  0  0  0  0  0999 V2000
   -1.2990    0.0000    0.0000 C   0  0  0  0  0  0  0  0  0  0  0  0
   -0.0000    0.7500    0.0000 C   0  0  0  0  0  0  0  0  0  0  0  0
    0.0000    2.2500    0.0000 Br  0  0  0  0  0  0  0  0  0  0  0  0
  2  1  1  0
  3  2  1  0
M  END
>  <NAME>  (4533) 
ETHYL BROMIDE

>  <SYNONYMS>  (4533) 


>  <SPECTRUM TYPE>  (4533) 
MS1

>  <INSTRUMENT TYPE>  (4533) 
EI-B

>  <INSTRUMENT>  (4533) 
HITACHI RMU-6M

>  <ION MODE>  (4533) 
P

>  <INCHIKEY>  (4533) 
RDHPKYGYEGBMSE-UHFFFAOYSA-N

>  <FORMULA>  (4533) 
C2H5Br

>  <EXACT MASS>  (4533) 
107.95746226

>  <MW>  (4533) 
108

>  <ID>  (4533) 
JP005289

>  <CONTRIBUTOR>  (4533) 
University of Tokyo Team, {Faculty of Engineering, University of Tokyo

>  <COMMENT>  (4533) 
SMILES=CCBr
InChI=InChI=1S/C2H5Br/c1-2-3/h2H2,1H3
computed SMILES=BrCC
accession=JP005289
date=2016.01.19 (Created 2008.10.21, modified 2011.05.06)
author=YAMAMOTO M, DEP. CHEMISTRY, FAC. SCIENCE, NARA WOMEN'S UNIV.
license=CC BY-NC-SA
exact mass=107.95746
ionization energy=70 eV
ion type=[M]+*
computed spectral entropy=2.0214063696549984
computed normalized entropy=0.6639485866842645
SPLASH=splash10-004i-9600000000-37a75d6e9fb6c7febdd9
submitter=submitter = University of Tokyo Team (Faculty of Engineering, University of Tokyo)
MoNA Rating=3.75

>  <NUM PEAKS>  (4533) 
21

>  <MASS SPECTRAL PEAKS>  (4533) 
14 1.65
15 1.55
25 3.79
26 24.18
27 80.61
28 20.73
29 99.99
30 2.13
53 1.07
54 1
79 3.78
80 1.55
81 3.69
82 1.65
93 4.27
95 3.4
107 1.36
108 86.93
109 2.91
110 84.72
111 2.04

$$$$

     RDKit          2D

  8  8  0  0  0  0  0  0  0  0999 V2000
    2.2733   -0.6175    0.0000 C   0  0  0  0  0  0  0  0  0  0  0  0
    2.2738    0.8833    0.0000 C   0  0  0  0  0  0  0  0  0  0  0  0
    0.9738   -1.3683    0.0000 C   0  0  0  0  0  0  0  0  0  0  0  0
    0.9748    1.6333    0.0000 C   0  0  0  0  0  0  0  0  0  0  0  0
   -0.3252   -0.6183    0.0000 C   0  0  0  0  0  0  0  0  0  0  0  0
   -1.6238    1.6325    0.0000 C   0  0  0  0  0  0  0  0  0  0  0  0
   -0.3248    0.8825    0.0000 C   0  0  0  0  0  0  0  0  0  0  0  0
   -2.9228    0.8825    0.0000 Cl  0  0  0  0  0  0  0  0  0  0  0  0
  2  1  2  0
  3  1  1  0
  4  2  1  0
  5  3  2  0
  7  4  2  0
  7  5  1  0
  7  6  1  0
  8  6  1  0
M  END
>  <NAME>  (4534) 
BENZYL CHLORIDE

>  <SYNONYMS>  (4534) 


>  <SPECTRUM TYPE>  (4534) 
MS1

>  <INSTRUMENT TYPE>  (4534) 
EI-B

>  <INSTRUMENT>  (4534) 
HITACHI RMU-6M

>  <ION MODE>  (4534) 
P

>  <INCHIKEY>  (4534) 
KCXMKQUNVWSEMD-UHFFFAOYSA-N

>  <FORMULA>  (4534) 
C7H7Cl

>  <EXACT MASS>  (4534) 
126.023627904

>  <MW>  (4534) 
126

>  <ID>  (4534) 
JP005288

>  <CONTRIBUTOR>  (4534) 
University of Tokyo Team, {Faculty of Engineering, University of Tokyo

>  <COMMENT>  (4534) 
SMILES=ClCc(c1)cccc1
InChI=InChI=1S/C7H7Cl/c8-6-7-4-2-1-3-5-7/h1-5H,6H2
computed SMILES=ClCC=1C=CC=CC1
accession=JP005288
date=2016.01.19 (Created 2008.10.21, modified 2011.05.06)
author=YAMAMOTO M, DEP. CHEMISTRY, FAC. SCIENCE, NARA WOMEN'S UNIV.
license=CC BY-NC-SA
exact mass=126.02363
ionization energy=70 eV
ion type=[M]+*
computed spectral entropy=2.1071753920912255
computed normalized entropy=0.6630395533169819
SPLASH=splash10-0006-9100000000-67b83a9d6a1325358c6b
submitter=submitter = University of Tokyo Team (Faculty of Engineering, University of Tokyo)
MoNA Rating=3.75

>  <NUM PEAKS>  (4534) 
24

>  <MASS SPECTRAL PEAKS>  (4534) 
37 1.19
38 2.4
39 8.43
41 1.56
43 1.14
44 1.09
45 4.16
45.5 1.14
50 3.29
51 4.68
52 1.3
61 1.25
62 3.17
63 7.7
64 1.94
65 10.61
89 5.2
90 2.29
91 99.99
92 7.81
125 2.81
126 22.04
127 2.7
128 7.28

$$$$

     RDKit          2D

  7  7  0  0  0  0  0  0  0  0999 V2000
    0.0000    2.5700    0.0000 C   0  0  0  0  0  0  0  0  0  0  0  0
    1.3000    1.8200    0.0000 C   0  0  0  0  0  0  0  0  0  0  0  0
   -1.3000    1.8200    0.0000 C   0  0  0  0  0  0  0  0  0  0  0  0
    1.3000    0.3200    0.0000 C   0  0  0  0  0  0  0  0  0  0  0  0
   -1.3000    0.3200    0.0000 C   0  0  0  0  0  0  0  0  0  0  0  0
   -0.0000   -0.4300    0.0000 C   0  0  0  0  0  0  0  0  0  0  0  0
   -0.0000   -1.9300    0.0000 Cl  0  0  0  0  0  0  0  0  0  0  0  0
  2  1  1  0
  3  1  1  0
  4  2  1  0
  5  3  1  0
  6  4  1  0
  6  5  1  0
  7  6  1  0
M  END
>  <NAME>  (4535) 
CYCLOHEXYL CHLORIDE

>  <SYNONYMS>  (4535) 


>  <SPECTRUM TYPE>  (4535) 
MS1

>  <INSTRUMENT TYPE>  (4535) 
EI-B

>  <INSTRUMENT>  (4535) 
HITACHI RMU-6M

>  <ION MODE>  (4535) 
P

>  <INCHIKEY>  (4535) 
UNFUYWDGSFDHCW-UHFFFAOYSA-N

>  <FORMULA>  (4535) 
C6H11Cl

>  <EXACT MASS>  (4535) 
118.05492803199999

>  <MW>  (4535) 
118

>  <ID>  (4535) 
JP005287

>  <CONTRIBUTOR>  (4535) 
University of Tokyo Team, {Faculty of Engineering, University of Tokyo

>  <COMMENT>  (4535) 
SMILES=ClC(C1)CCCC1
InChI=InChI=1S/C6H11Cl/c7-6-4-2-1-3-5-6/h6H,1-5H2
computed SMILES=ClC1CCCCC1
accession=JP005287
date=2016.01.19 (Created 2008.10.21, modified 2011.05.06)
author=YAMAMOTO M, DEP. CHEMISTRY, FAC. SCIENCE, NARA WOMEN'S UNIV.
license=CC BY-NC-SA
exact mass=118.05493
ionization energy=70 eV
ion type=[M]+*
computed spectral entropy=2.457467858308956
computed normalized entropy=0.7542648996525078
SPLASH=splash10-0gb9-9000000000-b1861e1c572fc3b165dd
submitter=submitter = University of Tokyo Team (Faculty of Engineering, University of Tokyo)
MoNA Rating=3.75

>  <NUM PEAKS>  (4535) 
26

>  <MASS SPECTRAL PEAKS>  (4535) 
15 1.19
26 2.49
27 19.73
28 5.7
29 7.56
38 2.12
39 24.24
40 5.07
41 50.09
42 7.25
43 3.68
49 1.45
50 2.59
51 4.45
52 1.97
53 36.8
54 44.63
55 9.86
62 2.75
65 1.76
66 1.71
67 99.99
68 33.05
69 1.96
118 4.4
120 1.3

$$$$

     RDKit          2D

  5  4  0  0  0  0  0  0  0  0999 V2000
   -1.2990    0.7500    0.0000 C   0  0  0  0  0  0  0  0  0  0  0  0
    0.7500    0.2010    0.0000 C   0  0  0  0  0  0  0  0  0  0  0  0
    1.2990    2.2500    0.0000 C   0  0  0  0  0  0  0  0  0  0  0  0
    0.0000    1.5000    0.0000 C   0  0  0  0  0  0  0  0  0  0  0  0
   -0.7500    2.7990    0.0000 Cl  0  0  0  0  0  0  0  0  0  0  0  0
  4  1  1  0
  4  2  1  0
  4  3  1  0
  5  4  1  0
M  END
>  <NAME>  (4536) 
TERT-BUTYL CHLORIDE

>  <SYNONYMS>  (4536) 


>  <SPECTRUM TYPE>  (4536) 
MS1

>  <INSTRUMENT TYPE>  (4536) 
EI-B

>  <INSTRUMENT>  (4536) 
HITACHI RMU-6M

>  <ION MODE>  (4536) 
P

>  <INCHIKEY>  (4536) 
NBRKLOOSMBRFMH-UHFFFAOYSA-N

>  <FORMULA>  (4536) 
C4H9Cl

>  <EXACT MASS>  (4536) 
92.039277968

>  <MW>  (4536) 
92

>  <ID>  (4536) 
JP005286

>  <CONTRIBUTOR>  (4536) 
University of Tokyo Team, {Faculty of Engineering, University of Tokyo

>  <COMMENT>  (4536) 
SMILES=CC(C)(C)Cl
InChI=InChI=1S/C4H9Cl/c1-4(2,3)5/h1-3H3
computed SMILES=ClC(C)(C)C
accession=JP005286
date=2016.01.19 (Created 2008.10.21, modified 2011.05.06)
author=YAMAMOTO M, DEP. CHEMISTRY, FAC. SCIENCE, NARA WOMEN'S UNIV.
license=CC BY-NC-SA
exact mass=92.03928
ionization energy=70 eV
ion type=[M]+*
computed spectral entropy=2.250424789169349
computed normalized entropy=0.7081141193014229
SPLASH=splash10-0a6u-9000000000-a79b092d10fb12408ae6
submitter=submitter = University of Tokyo Team (Faculty of Engineering, University of Tokyo)
MoNA Rating=3.75

>  <NUM PEAKS>  (4536) 
24

>  <MASS SPECTRAL PEAKS>  (4536) 
15 2.2
26 2.2
27 12.03
28 3.88
29 23.16
37 1.68
38 3.49
39 20.07
40 2.98
41 63.73
42 3.36
49 2.07
50 1.81
51 1.55
53 1.29
55 3.75
56 5.7
57 99.99
58 4.4
59 1.95
76 2.85
77 37.54
78 1.81
79 12.3

$$$$

     RDKit          2D

 10 10  0  0  0  0  0  0  0  0999 V2000
    2.2395    2.4655    0.0000 C   0  0  0  0  0  0  0  0  0  0  0  0
    0.9362    3.2129    0.0000 C   0  0  0  0  0  0  0  0  0  0  0  0
    2.2656    0.9657    0.0000 C   0  0  0  0  0  0  0  0  0  0  0  0
   -0.3605    2.4401    0.0000 C   0  0  0  0  0  0  0  0  0  0  0  0
    0.9688    0.2030    0.0000 C   0  0  0  0  0  0  0  0  0  0  0  0
   -0.3343    0.9403    0.0000 C   0  0  0  0  0  0  0  0  0  0  0  0
    0.9813   -1.2970    0.0000 C   0  0  0  0  0  0  0  0  0  0  0  0
   -1.6234    0.1735    0.0000 Cl  0  0  0  0  0  0  0  0  0  0  0  0
   -0.3114   -2.0578    0.0000 O   0  0  0  0  0  0  0  0  0  0  0  0
    2.2865   -2.0361    0.0000 O   0  0  0  0  0  0  0  0  0  0  0  0
  2  1  2  0
  3  1  1  0
  4  2  1  0
  5  3  2  0
  6  4  2  0
  6  5  1  0
  7  5  1  0
  8  6  1  0
  9  7  2  0
 10  7  1  0
M  END
>  <NAME>  (4537) 
O-CHLOROBENZOIC ACID

>  <SYNONYMS>  (4537) 
2-CHLOROBENZOIC ACID

>  <SPECTRUM TYPE>  (4537) 
MS1

>  <INSTRUMENT TYPE>  (4537) 
EI-B

>  <INSTRUMENT>  (4537) 
HITACHI RMU-6M

>  <ION MODE>  (4537) 
P

>  <INCHIKEY>  (4537) 
IKCLCGXPQILATA-UHFFFAOYSA-N

>  <FORMULA>  (4537) 
C7H5ClO2

>  <EXACT MASS>  (4537) 
155.99780708

>  <MW>  (4537) 
156

>  <ID>  (4537) 
JP005285

>  <CONTRIBUTOR>  (4537) 
University of Tokyo Team, {Faculty of Engineering, University of Tokyo

>  <COMMENT>  (4537) 
SMILES=OC(=O)c(c1)c(Cl)ccc1
InChI=InChI=1S/C7H5ClO2/c8-6-4-2-1-3-5(6)7(9)10/h1-4H,(H,9,10)
computed SMILES=O=C(O)C=1C=CC=CC1Cl
accession=JP005285
date=2016.01.19 (Created 2008.10.21, modified 2011.05.06)
author=YAMAMOTO M, DEP. CHEMISTRY, FAC. SCIENCE, NARA WOMEN'S UNIV.
license=CC BY-NC-SA
exact mass=155.99781
ionization energy=70 eV
ion type=[M]+*
computed spectral entropy=2.907370915136075
computed normalized entropy=0.7637585215261612
SPLASH=splash10-0a4r-4900000000-5757c9282425922eb936
submitter=submitter = University of Tokyo Team (Faculty of Engineering, University of Tokyo)
MoNA Rating=3.75

>  <NUM PEAKS>  (4537) 
45

>  <MASS SPECTRAL PEAKS>  (4537) 
27 1.74
37 4.84
37.5 2.9
38 7.17
39 5.62
45 3.19
49 3.34
50 23.63
51 12.58
53 1.45
55.5 2.51
60 1.16
61 1.45
62 1.26
63 2.51
64 2.61
65 4.5
69.5 3.15
70.5 1.16
73 3.39
74 12.06
75 28.58
76 16.71
77 9.06
78 1.16
84 2.13
85 3.63
86 1.06
87 1.35
92 1.4
110 1.45
111 36.56
112 3.97
113 11.86
114 1.3
121 1.5
128 2.91
139 99.99
140 8.51
141 33.03
142 2.47
156 81.65
157 6.83
158 26.93
159 2.13

$$$$

     RDKit          2D

  4  3  0  0  0  0  0  0  0  0999 V2000
   -2.5981    2.2500    0.0000 C   0  0  0  0  0  0  0  0  0  0  0  0
   -1.2990    1.5000    0.0000 C   0  0  0  0  0  0  0  0  0  0  0  0
    0.0000    2.2500    0.0000 C   0  0  0  0  0  0  0  0  0  0  0  0
    1.2990    1.5000    0.0000 Cl  0  0  0  0  0  0  0  0  0  0  0  0
  2  1  2  0
  3  2  1  0
  4  3  1  0
M  END
>  <NAME>  (4538) 
ALLYL CHLORIDE

>  <SYNONYMS>  (4538) 


>  <SPECTRUM TYPE>  (4538) 
MS1

>  <INSTRUMENT TYPE>  (4538) 
EI-B

>  <INSTRUMENT>  (4538) 
HITACHI RMU-6M

>  <ION MODE>  (4538) 
P

>  <INCHIKEY>  (4538) 
OSDWBNJEKMUWAV-UHFFFAOYSA-N

>  <FORMULA>  (4538) 
C3H5Cl

>  <EXACT MASS>  (4538) 
76.00797784

>  <MW>  (4538) 
76

>  <ID>  (4538) 
JP005284

>  <CONTRIBUTOR>  (4538) 
University of Tokyo Team, {Faculty of Engineering, University of Tokyo

>  <COMMENT>  (4538) 
SMILES=C=CCCl
InChI=InChI=1S/C3H5Cl/c1-2-3-4/h2H,1,3H2
computed SMILES=ClCC=C
exact mass=76.00798
accession=JP005284
date=2016.01.19 (Created 2008.10.21, modified 2011.05.06)
author=YAMAMOTO M, DEP. CHEMISTRY, FAC. SCIENCE, NARA WOMEN'S UNIV.
license=CC BY-NC-SA
ionization energy=70 eV
ion type=[M]+*
computed spectral entropy=1.9081526318860471
computed normalized entropy=0.6734941566928416
SPLASH=splash10-0006-9000000000-63087e52fce1ba624cbd
submitter=submitter = University of Tokyo Team (Faculty of Engineering, University of Tokyo)
MoNA Rating=3.75

>  <NUM PEAKS>  (4538) 
17

>  <MASS SPECTRAL PEAKS>  (4538) 
15 1.76
26 2.75
27 6.4
28 3.08
36 1.09
37 5.31
38 7.31
39 45.94
40 7.92
41 99.99
42 3.75
49 3.37
51 1.14
75 3.6
76 29.38
77 1.95
78 9.49

$$$$

     RDKit          2D

  5  4  0  0  0  0  0  0  0  0999 V2000
   -0.0000   -0.0000    0.0000 C   0  0  0  0  0  0  0  0  0  0  0  0
   -1.2990    3.7500    0.0000 C   0  0  0  0  0  0  0  0  0  0  0  0
    0.0000    1.5000    0.0000 C   0  0  0  0  0  0  0  0  0  0  0  0
   -1.2990    2.2500    0.0000 C   0  0  0  0  0  0  0  0  0  0  0  0
   -2.5981    1.5000    0.0000 Cl  0  0  0  0  0  0  0  0  0  0  0  0
  3  1  1  0
  4  2  1  0
  4  3  1  0
  5  4  1  0
M  END
>  <NAME>  (4539) 
SEC-BUTYL CHLORIDE

>  <SYNONYMS>  (4539) 
1-METHYLPROPYL CHLORIDE

>  <SPECTRUM TYPE>  (4539) 
MS1

>  <INSTRUMENT TYPE>  (4539) 
EI-B

>  <INSTRUMENT>  (4539) 
HITACHI RMU-6M

>  <ION MODE>  (4539) 
P

>  <INCHIKEY>  (4539) 
BSPCSKHALVHRSR-UHFFFAOYSA-N

>  <FORMULA>  (4539) 
C4H9Cl

>  <EXACT MASS>  (4539) 
92.039277968

>  <MW>  (4539) 
92

>  <ID>  (4539) 
JP005283

>  <CONTRIBUTOR>  (4539) 
University of Tokyo Team, {Faculty of Engineering, University of Tokyo

>  <COMMENT>  (4539) 
SMILES=CCC(C)Cl
InChI=InChI=1S/C4H9Cl/c1-3-4(2)5/h4H,3H2,1-2H3
computed SMILES=ClC(C)CC
accession=JP005283
date=2016.01.19 (Created 2008.10.21, modified 2011.05.06)
author=YAMAMOTO M, DEP. CHEMISTRY, FAC. SCIENCE, NARA WOMEN'S UNIV.
license=CC BY-NC-SA
exact mass=92.03928
ionization energy=70 eV
ion type=[M]+*
computed spectral entropy=2.4680154706079787
computed normalized entropy=0.7406554618936678
SPLASH=splash10-0a6r-9000000000-e3b59e25e1a91193d374
submitter=submitter = University of Tokyo Team (Faculty of Engineering, University of Tokyo)
MoNA Rating=3.75

>  <NUM PEAKS>  (4539) 
28

>  <MASS SPECTRAL PEAKS>  (4539) 
15 1.96
26 5.99
27 40.63
28 12.81
29 40.42
37 1.08
38 2.32
39 15.72
40 2.32
41 57.86
42 2.89
49 2.22
50 2.33
51 2.12
53 2.07
55 7.6
56 99.99
57 87.45
58 3.77
61 1.13
62 12.2
63 37.63
64 4.65
65 12.1
76 1.13
77 5.38
79 1.71
92 0.62

$$$$

     RDKit          2D

  5  4  0  0  0  0  0  0  0  0999 V2000
   -3.8971    2.2500    0.0000 C   0  0  0  0  0  0  0  0  0  0  0  0
   -2.5981    1.5000    0.0000 C   0  0  0  0  0  0  0  0  0  0  0  0
   -1.2990    2.2500    0.0000 C   0  0  0  0  0  0  0  0  0  0  0  0
    0.0000    1.5000    0.0000 C   0  0  0  0  0  0  0  0  0  0  0  0
    1.2990    2.2500    0.0000 Cl  0  0  0  0  0  0  0  0  0  0  0  0
  2  1  1  0
  3  2  1  0
  4  3  1  0
  5  4  1  0
M  END
>  <NAME>  (4540) 
BUTYL CHLORIDE

>  <SYNONYMS>  (4540) 


>  <SPECTRUM TYPE>  (4540) 
MS1

>  <INSTRUMENT TYPE>  (4540) 
EI-B

>  <INSTRUMENT>  (4540) 
HITACHI RMU-6M

>  <ION MODE>  (4540) 
P

>  <INCHIKEY>  (4540) 
VFWCMGCRMGJXDK-UHFFFAOYSA-N

>  <FORMULA>  (4540) 
C4H9Cl

>  <EXACT MASS>  (4540) 
92.039277968

>  <MW>  (4540) 
92

>  <ID>  (4540) 
JP005282

>  <CONTRIBUTOR>  (4540) 
University of Tokyo Team, {Faculty of Engineering, University of Tokyo

>  <COMMENT>  (4540) 
SMILES=CCCCCl
InChI=InChI=1S/C4H9Cl/c1-2-3-4-5/h2-4H2,1H3
computed SMILES=ClCCCC
accession=JP005282
date=2016.01.19 (Created 2008.10.21, modified 2011.05.06)
author=YAMAMOTO M, DEP. CHEMISTRY, FAC. SCIENCE, NARA WOMEN'S UNIV.
license=CC BY-NC-SA
exact mass=92.03928
ionization energy=70 eV
ion type=[M]+*
computed spectral entropy=2.197915506845977
computed normalized entropy=0.7009789702943727
SPLASH=splash10-0a6u-9000000000-2bbe44ca1f38152734c7
submitter=submitter = University of Tokyo Team (Faculty of Engineering, University of Tokyo)
MoNA Rating=3.75

>  <NUM PEAKS>  (4540) 
23

>  <MASS SPECTRAL PEAKS>  (4540) 
15 1.3
26 4.05
27 28.51
28 15.8
29 17.96
38 1.59
39 9.78
40 2.12
41 53.98
42 4.38
43 34.04
44 1.15
49 2.45
50 1.35
51 1.21
53 1.21
55 7.32
56 99.99
57 5.35
62 1.3
63 4.47
65 1.39
92 0.67

$$$$

     RDKit          2D

  4  3  0  0  0  0  0  0  0  0999 V2000
    0.9743    0.5625    0.0000 C   0  0  0  0  0  0  0  0  0  0  0  0
   -1.6238    0.5625    0.0000 C   0  0  0  0  0  0  0  0  0  0  0  0
   -0.3248    1.3125    0.0000 C   0  0  0  0  0  0  0  0  0  0  0  0
   -0.3248    2.8125    0.0000 Cl  0  0  0  0  0  0  0  0  0  0  0  0
  3  1  1  0
  3  2  1  0
  4  3  1  0
M  END
>  <NAME>  (4541) 
ISOPROPYL CHLORIDE

>  <SYNONYMS>  (4541) 


>  <SPECTRUM TYPE>  (4541) 
MS1

>  <INSTRUMENT TYPE>  (4541) 
EI-B

>  <INSTRUMENT>  (4541) 
HITACHI RMU-6M

>  <ION MODE>  (4541) 
P

>  <INCHIKEY>  (4541) 
ULYZAYCEDJDHCC-UHFFFAOYSA-N

>  <FORMULA>  (4541) 
C3H7Cl

>  <EXACT MASS>  (4541) 
78.023627904

>  <MW>  (4541) 
78

>  <ID>  (4541) 
JP005281

>  <CONTRIBUTOR>  (4541) 
University of Tokyo Team, {Faculty of Engineering, University of Tokyo

>  <COMMENT>  (4541) 
SMILES=CC(C)Cl
InChI=InChI=1S/C3H7Cl/c1-3(2)4/h3H,1-2H3
computed SMILES=ClC(C)C
accession=JP005281
date=2016.01.19 (Created 2008.10.21, modified 2011.05.06)
author=YAMAMOTO M, DEP. CHEMISTRY, FAC. SCIENCE, NARA WOMEN'S UNIV.
license=CC BY-NC-SA
exact mass=78.02363
ionization energy=70 eV
ion type=[M]+*
computed spectral entropy=2.03463224057623
computed normalized entropy=0.7181359091240603
SPLASH=splash10-0006-9000000000-3fc4a3253e039536029a
submitter=submitter = University of Tokyo Team (Faculty of Engineering, University of Tokyo)
MoNA Rating=3.75

>  <NUM PEAKS>  (4541) 
17

>  <MASS SPECTRAL PEAKS>  (4541) 
15 1.72
26 2.96
27 33.42
28 1.53
37 2.05
38 3.12
39 10.24
40 1.82
41 21.45
42 5.66
43 99.99
44 3.18
62 2.04
63 20.91
65 6.68
78 20.32
80 6.35

$$$$

     RDKit          2D

  4  3  0  0  0  0  0  0  0  0999 V2000
   -2.5981    2.2500    0.0000 C   0  0  0  0  0  0  0  0  0  0  0  0
   -1.2990    1.5000    0.0000 C   0  0  0  0  0  0  0  0  0  0  0  0
    0.0000    2.2500    0.0000 C   0  0  0  0  0  0  0  0  0  0  0  0
    1.2990    1.5000    0.0000 Cl  0  0  0  0  0  0  0  0  0  0  0  0
  2  1  1  0
  3  2  1  0
  4  3  1  0
M  END
>  <NAME>  (4542) 
PROPYL CHLORIDE

>  <SYNONYMS>  (4542) 


>  <SPECTRUM TYPE>  (4542) 
MS1

>  <INSTRUMENT TYPE>  (4542) 
EI-B

>  <INSTRUMENT>  (4542) 
HITACHI RMU-6M

>  <ION MODE>  (4542) 
P

>  <INCHIKEY>  (4542) 
SNMVRZFUUCLYTO-UHFFFAOYSA-N

>  <FORMULA>  (4542) 
C3H7Cl

>  <EXACT MASS>  (4542) 
78.023627904

>  <MW>  (4542) 
78

>  <ID>  (4542) 
JP005280

>  <CONTRIBUTOR>  (4542) 
University of Tokyo Team, {Faculty of Engineering, University of Tokyo

>  <COMMENT>  (4542) 
SMILES=CCCCl
InChI=InChI=1S/C3H7Cl/c1-2-3-4/h2-3H2,1H3
computed SMILES=ClCCC
accession=JP005280
date=2016.01.19 (Created 2008.10.21, modified 2011.05.06)
author=YAMAMOTO M, DEP. CHEMISTRY, FAC. SCIENCE, NARA WOMEN'S UNIV.
license=CC BY-NC-SA
exact mass=78.02363
ionization energy=70 eV
ion type=[M]+*
computed spectral entropy=2.1319467018939657
computed normalized entropy=0.7240587144032145
SPLASH=splash10-002f-9000000000-d0f3d2fc925f7ad3bfd6
submitter=submitter = University of Tokyo Team (Faculty of Engineering, University of Tokyo)
MoNA Rating=3.75

>  <NUM PEAKS>  (4542) 
19

>  <MASS SPECTRAL PEAKS>  (4542) 
15 2.32
26 4.52
27 35.53
28 13.79
29 44.44
30 1.03
37 2.43
38 3.36
39 11.36
40 3.24
41 23.82
42 99.99
43 13.91
49 3.77
51 1.39
63 4.63
65 1.33
78 6.03
80 2.02

$$$$

     RDKit          2D

  8  7  0  0  0  0  0  0  0  0999 V2000
    1.9486    3.3750    0.0000 C   0  0  0  0  0  0  0  0  0  0  0  0
    0.6495    4.1250    0.0000 C   0  0  0  0  0  0  0  0  0  0  0  0
   -0.6495    3.3750    0.0000 C   0  0  0  0  0  0  0  0  0  0  0  0
   -4.5466    4.1250    0.0000 C   0  0  0  0  0  0  0  0  0  0  0  0
   -3.2476    3.3750    0.0000 C   0  0  0  0  0  0  0  0  0  0  0  0
   -5.8457    3.3750    0.0000 Cl  0  0  0  0  0  0  0  0  0  0  0  0
   -3.2476    1.8750    0.0000 O   0  0  0  0  0  0  0  0  0  0  0  0
   -1.9486    4.1250    0.0000 O   0  0  0  0  0  0  0  0  0  0  0  0
  2  1  2  0
  3  2  1  0
  5  4  1  0
  6  4  1  0
  7  5  2  0
  8  3  1  0
  8  5  1  0
M  END
>  <NAME>  (4543) 
CHLOROACETIC ACID ALLYL ESTER

>  <SYNONYMS>  (4543) 
ALLYL CHLOROACETATE

>  <SPECTRUM TYPE>  (4543) 
MS1

>  <INSTRUMENT TYPE>  (4543) 
EI-B

>  <INSTRUMENT>  (4543) 
HITACHI RMU-6M

>  <ION MODE>  (4543) 
P

>  <INCHIKEY>  (4543) 
VMBJJCDVORDOCF-UHFFFAOYSA-N

>  <FORMULA>  (4543) 
C5H7ClO2

>  <EXACT MASS>  (4543) 
134.013457144

>  <MW>  (4543) 
134

>  <ID>  (4543) 
JP005279

>  <CONTRIBUTOR>  (4543) 
University of Tokyo Team, {Faculty of Engineering, University of Tokyo

>  <COMMENT>  (4543) 
SMILES=C=CCOC(=O)CCl
InChI=InChI=1S/C5H7ClO2/c1-2-3-8-5(7)4-6/h2H,1,3-4H2
computed SMILES=O=C(OCC=C)CCl
accession=JP005279
date=2016.01.19 (Created 2008.10.21, modified 2011.05.06)
author=YAMAMOTO M, DEP. CHEMISTRY, FAC. SCIENCE, NARA WOMEN'S UNIV.
license=CC BY-NC-SA
exact mass=134.01346
ionization energy=70 eV
ion type=[M]+*
computed spectral entropy=2.7075336857535235
computed normalized entropy=0.7615382907459356
SPLASH=splash10-054x-9000000000-bbc79634cdf3cdb429e3
submitter=submitter = University of Tokyo Team (Faculty of Engineering, University of Tokyo)
MoNA Rating=3.75

>  <NUM PEAKS>  (4543) 
35

>  <MASS SPECTRAL PEAKS>  (4543) 
14 3.51
15 3.9
26 4.56
27 12.31
28 4.46
29 8.75
30 1.14
31 2.94
37 1.95
38 4.27
39 41.44
40 11.38
41 99.99
42 13.78
43 3.75
47 1
48 2.04
49 28.99
50 2.04
51 8.94
55 3.19
57 27.33
58 83.89
59 2.75
70 1.71
71 4.81
75 1.23
76 3.28
77 54.18
78 2
79 17.11
85 23.57
86 1.23
95 2.09
99 1.14

$$$$

     RDKit          2D

  9  8  0  0  0  0  0  0  0  0999 V2000
   -6.4952    4.5000    0.0000 C   0  0  0  0  0  0  0  0  0  0  0  0
   -5.1962    3.7500    0.0000 C   0  0  0  0  0  0  0  0  0  0  0  0
   -3.8971    4.5000    0.0000 C   0  0  0  0  0  0  0  0  0  0  0  0
   -2.5981    3.7500    0.0000 C   0  0  0  0  0  0  0  0  0  0  0  0
    1.2990    4.5000    0.0000 C   0  0  0  0  0  0  0  0  0  0  0  0
    0.0000    3.7500    0.0000 C   0  0  0  0  0  0  0  0  0  0  0  0
    2.5981    3.7500    0.0000 Cl  0  0  0  0  0  0  0  0  0  0  0  0
   -0.0000    2.2500    0.0000 O   0  0  0  0  0  0  0  0  0  0  0  0
   -1.2990    4.5000    0.0000 O   0  0  0  0  0  0  0  0  0  0  0  0
  2  1  1  0
  3  2  1  0
  4  3  1  0
  6  5  1  0
  7  5  1  0
  8  6  2  0
  9  4  1  0
  9  6  1  0
M  END
>  <NAME>  (4544) 
CHLOROACETIC ACID BUTYL ESTER

>  <SYNONYMS>  (4544) 
BUTYL CHLOROACETATE

>  <SPECTRUM TYPE>  (4544) 
MS1

>  <INSTRUMENT TYPE>  (4544) 
EI-B

>  <INSTRUMENT>  (4544) 
HITACHI RMU-6M

>  <ION MODE>  (4544) 
P

>  <INCHIKEY>  (4544) 
YJRGMUWRPCPLNH-UHFFFAOYSA-N

>  <FORMULA>  (4544) 
C6H11ClO2

>  <EXACT MASS>  (4544) 
150.044757272

>  <MW>  (4544) 
150

>  <ID>  (4544) 
JP005278

>  <CONTRIBUTOR>  (4544) 
University of Tokyo Team, {Faculty of Engineering, University of Tokyo

>  <COMMENT>  (4544) 
SMILES=CCCCOC(=O)CCl
InChI=InChI=1S/C6H11ClO2/c1-2-3-4-9-6(8)5-7/h2-5H2,1H3
computed SMILES=O=C(OCCCC)CCl
accession=JP005278
date=2016.01.19 (Created 2008.10.21, modified 2011.05.06)
author=YAMAMOTO M, DEP. CHEMISTRY, FAC. SCIENCE, NARA WOMEN'S UNIV.
license=CC BY-NC-SA
exact mass=150.04476
ionization energy=70 eV
ion type=[M]+*
computed spectral entropy=2.610918358869579
computed normalized entropy=0.7467217825133277
SPLASH=splash10-0a6r-9000000000-bff09048d89d45767b35
submitter=submitter = University of Tokyo Team (Faculty of Engineering, University of Tokyo)
MoNA Rating=3.75

>  <NUM PEAKS>  (4544) 
33

>  <MASS SPECTRAL PEAKS>  (4544) 
14 1.55
15 2.42
26 2.13
27 18.14
28 10.13
29 50.87
30 1.09
31 4.03
39 9.44
40 1.78
41 57.25
42 9.33
43 9.91
48 1.04
49 17.05
51 5.13
53 1
55 12.27
56 99.99
57 73.6
58 3.17
60 1.84
71 2.99
73 1.32
76 1.41
77 40.17
78 1.38
79 12.38
95 5.64
97 1.78
107 5.3
109 1.9
121 1.03

$$$$

     RDKit          2D

  8  7  0  0  0  0  0  0  0  0999 V2000
   -3.5724    3.9375    0.0000 C   0  0  0  0  0  0  0  0  0  0  0  0
   -2.2733    1.6875    0.0000 C   0  0  0  0  0  0  0  0  0  0  0  0
    1.6238    3.9375    0.0000 C   0  0  0  0  0  0  0  0  0  0  0  0
   -2.2733    3.1875    0.0000 C   0  0  0  0  0  0  0  0  0  0  0  0
    0.3248    3.1875    0.0000 C   0  0  0  0  0  0  0  0  0  0  0  0
    2.9228    3.1875    0.0000 Cl  0  0  0  0  0  0  0  0  0  0  0  0
    0.3248    1.6875    0.0000 O   0  0  0  0  0  0  0  0  0  0  0  0
   -0.9743    3.9375    0.0000 O   0  0  0  0  0  0  0  0  0  0  0  0
  4  1  1  0
  4  2  1  0
  5  3  1  0
  6  3  1  0
  7  5  2  0
  8  4  1  0
  8  5  1  0
M  END
>  <NAME>  (4545) 
CHLOROACETIC ACID ISOPROPYL ESTER

>  <SYNONYMS>  (4545) 
ISOPROPYL CHLOROACETATE

>  <SPECTRUM TYPE>  (4545) 
MS1

>  <INSTRUMENT TYPE>  (4545) 
EI-B

>  <INSTRUMENT>  (4545) 
HITACHI RMU-6M

>  <ION MODE>  (4545) 
P

>  <INCHIKEY>  (4545) 
VODRWDBLLGYRJT-UHFFFAOYSA-N

>  <FORMULA>  (4545) 
C5H9ClO2

>  <EXACT MASS>  (4545) 
136.029107208

>  <MW>  (4545) 
136

>  <ID>  (4545) 
JP005277

>  <CONTRIBUTOR>  (4545) 
University of Tokyo Team, {Faculty of Engineering, University of Tokyo

>  <COMMENT>  (4545) 
SMILES=CC(C)OC(=O)CCl
InChI=InChI=1S/C5H9ClO2/c1-4(2)8-5(7)3-6/h4H,3H2,1-2H3
computed SMILES=O=C(OC(C)C)CCl
accession=JP005277
date=2016.01.19 (Created 2008.10.21, modified 2011.05.06)
author=YAMAMOTO M, DEP. CHEMISTRY, FAC. SCIENCE, NARA WOMEN'S UNIV.
license=CC BY-NC-SA
exact mass=136.02911
ionization energy=70 eV
ion type=[M]+*
computed spectral entropy=2.4825453213468958
computed normalized entropy=0.7450158937622847
SPLASH=splash10-00kf-9000000000-c6374d4ba9548e91edc9
submitter=submitter = University of Tokyo Team (Faculty of Engineering, University of Tokyo)
MoNA Rating=3.75

>  <NUM PEAKS>  (4545) 
28

>  <MASS SPECTRAL PEAKS>  (4545) 
14 2.33
15 5.05
26 1.44
27 19
28 1.44
29 2.5
31 1.55
38 1.11
39 8.39
40 1.78
41 28.66
42 10.73
43 99.99
44 3.44
45 7.11
48 1.11
49 17.22
51 5.33
59 8.11
66 1
67 61.94
68 1.55
69 19.33
95 4.94
97 1.67
121 23.22
122 1.05
123 7.55

$$$$

     RDKit          2D

  7  6  0  0  0  0  0  0  0  0999 V2000
    1.9486    2.6250    0.0000 C   0  0  0  0  0  0  0  0  0  0  0  0
    0.6495    3.3750    0.0000 C   0  0  0  0  0  0  0  0  0  0  0  0
   -3.2476    2.6250    0.0000 C   0  0  0  0  0  0  0  0  0  0  0  0
   -1.9486    3.3750    0.0000 C   0  0  0  0  0  0  0  0  0  0  0  0
   -4.5466    3.3750    0.0000 Cl  0  0  0  0  0  0  0  0  0  0  0  0
   -1.9486    4.8750    0.0000 O   0  0  0  0  0  0  0  0  0  0  0  0
   -0.6495    2.6250    0.0000 O   0  0  0  0  0  0  0  0  0  0  0  0
  2  1  1  0
  4  3  1  0
  5  3  1  0
  6  4  2  0
  7  2  1  0
  7  4  1  0
M  END
>  <NAME>  (4546) 
CHLOROACETIC ACID ETHYL ESTER

>  <SYNONYMS>  (4546) 
ETHYL CHLOROACETATE

>  <SPECTRUM TYPE>  (4546) 
MS1

>  <INSTRUMENT TYPE>  (4546) 
EI-B

>  <INSTRUMENT>  (4546) 
HITACHI RMU-6M

>  <ION MODE>  (4546) 
P

>  <INCHIKEY>  (4546) 
VEUUMBGHMNQHGO-UHFFFAOYSA-N

>  <FORMULA>  (4546) 
C4H7ClO2

>  <EXACT MASS>  (4546) 
122.013457144

>  <MW>  (4546) 
122

>  <ID>  (4546) 
JP005276

>  <CONTRIBUTOR>  (4546) 
University of Tokyo Team, {Faculty of Engineering, University of Tokyo

>  <COMMENT>  (4546) 
SMILES=CCOC(=O)CCl
InChI=InChI=1S/C4H7ClO2/c1-2-7-4(6)3-5/h2-3H2,1H3
computed SMILES=O=C(OCC)CCl
accession=JP005276
date=2016.01.19 (Created 2008.10.21, modified 2011.05.06)
author=YAMAMOTO M, DEP. CHEMISTRY, FAC. SCIENCE, NARA WOMEN'S UNIV.
license=CC BY-NC-SA
exact mass=122.01346
ionization energy=70 eV
ion type=[M]+*
computed spectral entropy=2.203154974228979
computed normalized entropy=0.684448575868623
SPLASH=splash10-004i-9000000000-c5cc066f10ab36c547f5
submitter=submitter = University of Tokyo Team (Faculty of Engineering, University of Tokyo)
MoNA Rating=3.75

>  <NUM PEAKS>  (4546) 
25

>  <MASS SPECTRAL PEAKS>  (4546) 
14 2.64
15 2.85
26 2.59
27 19.36
28 23.27
29 99.99
30 2.17
31 1.32
42 7.72
43 3.17
45 4.12
48 1.37
49 14.44
51 4.44
60 1.27
73 1.69
76 1.16
77 29.83
78 1
79 9.68
94 3.96
95 1.8
96 1.22
107 1.85
122 1.37

$$$$

     RDKit          2D

  6  5  0  0  0  0  0  0  0  0999 V2000
    1.2990    2.2500    0.0000 C   0  0  0  0  0  0  0  0  0  0  0  0
   -2.5981    3.0000    0.0000 C   0  0  0  0  0  0  0  0  0  0  0  0
   -1.2990    2.2500    0.0000 C   0  0  0  0  0  0  0  0  0  0  0  0
   -3.8971    2.2500    0.0000 Cl  0  0  0  0  0  0  0  0  0  0  0  0
   -1.2990    0.7500    0.0000 O   0  0  0  0  0  0  0  0  0  0  0  0
    0.0000    3.0000    0.0000 O   0  0  0  0  0  0  0  0  0  0  0  0
  3  2  1  0
  4  2  1  0
  5  3  2  0
  6  1  1  0
  6  3  1  0
M  END
>  <NAME>  (4547) 
CHLOROACETIC ACID METHYL ESTER

>  <SYNONYMS>  (4547) 
METHYL CHLOROACETATE

>  <SPECTRUM TYPE>  (4547) 
MS1

>  <INSTRUMENT TYPE>  (4547) 
EI-B

>  <INSTRUMENT>  (4547) 
HITACHI RMU-6M

>  <ION MODE>  (4547) 
P

>  <INCHIKEY>  (4547) 
QABLOFMHHSOFRJ-UHFFFAOYSA-N

>  <FORMULA>  (4547) 
C3H5ClO2

>  <EXACT MASS>  (4547) 
107.99780708

>  <MW>  (4547) 
108

>  <ID>  (4547) 
JP005275

>  <CONTRIBUTOR>  (4547) 
University of Tokyo Team, {Faculty of Engineering, University of Tokyo

>  <COMMENT>  (4547) 
SMILES=COC(=O)CCl
InChI=InChI=1S/C3H5ClO2/c1-6-3(5)2-4/h2H2,1H3
computed SMILES=O=C(OC)CCl
accession=JP005275
date=2016.01.19 (Created 2008.10.21, modified 2011.05.06)
author=YAMAMOTO M, DEP. CHEMISTRY, FAC. SCIENCE, NARA WOMEN'S UNIV.
license=CC BY-NC-SA
exact mass=107.99781
ionization energy=70 eV
ion type=[M]+*
computed spectral entropy=2.5029203705423932
computed normalized entropy=0.7594187674636884
SPLASH=splash10-0a4i-9000000000-64d1f3bf476efbaa05ae
submitter=submitter = University of Tokyo Team (Faculty of Engineering, University of Tokyo)
MoNA Rating=3.75

>  <NUM PEAKS>  (4547) 
27

>  <MASS SPECTRAL PEAKS>  (4547) 
13 1.85
14 6.45
15 43.33
27 1.37
28 6.08
29 20.35
30 1.26
31 3.28
41 1.79
42 12.42
43 1.32
45 2.91
47 1.79
48 3.75
49 48.35
50 1.69
51 15.59
59 99.99
60 2.38
64 19.18
66 5.97
76 2.59
77 31.18
78 1.42
79 9.83
108 10.41
110 3.33

$$$$

     RDKit          2D

 10 10  0  0  0  0  0  0  0  0999 V2000
   -0.3238    1.6700    0.0000 C   0  0  0  0  0  0  0  0  0  0  0  0
    0.9712   -0.5730    0.0000 C   0  0  0  0  0  0  0  0  0  0  0  0
   -1.6229    0.9200    0.0000 C   0  0  0  0  0  0  0  0  0  0  0  0
   -0.3279   -1.3230    0.0000 C   0  0  0  0  0  0  0  0  0  0  0  0
    0.9657    0.9365    0.0000 C   0  0  0  0  0  0  0  0  0  0  0  0
   -1.6410   -0.5685    0.0000 C   0  0  0  0  0  0  0  0  0  0  0  0
    2.2610    1.6930    0.0000 C   0  0  0  0  0  0  0  0  0  0  0  0
   -2.9438   -1.3119    0.0000 Cl  0  0  0  0  0  0  0  0  0  0  0  0
    3.5637    0.9495    0.0000 O   0  0  0  0  0  0  0  0  0  0  0  0
    2.2534    3.1930    0.0000 O   0  0  0  0  0  0  0  0  0  0  0  0
  3  1  2  0
  4  2  1  0
  5  1  1  0
  5  2  2  0
  6  3  1  0
  6  4  2  0
  7  5  1  0
  8  6  1  0
  9  7  1  0
 10  7  2  0
M  END
>  <NAME>  (4548) 
P-CHLOROBENZOIC ACID

>  <SYNONYMS>  (4548) 
4-CHLOROBENZOIC ACID

>  <SPECTRUM TYPE>  (4548) 
MS1

>  <INSTRUMENT TYPE>  (4548) 
EI-B

>  <INSTRUMENT>  (4548) 
HITACHI RMU-6M

>  <ION MODE>  (4548) 
P

>  <INCHIKEY>  (4548) 
XRHGYUZYPHTUJZ-UHFFFAOYSA-N

>  <FORMULA>  (4548) 
C7H5ClO2

>  <EXACT MASS>  (4548) 
155.99780708

>  <MW>  (4548) 
156

>  <ID>  (4548) 
JP005274

>  <CONTRIBUTOR>  (4548) 
University of Tokyo Team, {Faculty of Engineering, University of Tokyo

>  <COMMENT>  (4548) 
SMILES=OC(=O)c(c1)ccc(Cl)c1
InChI=InChI=1S/C7H5ClO2/c8-6-3-1-5(2-4-6)7(9)10/h1-4H,(H,9,10)
computed SMILES=O=C(O)C1=CC=C(Cl)C=C1
accession=JP005274
date=2016.01.19 (Created 2008.10.21, modified 2011.05.06)
author=YAMAMOTO M, DEP. CHEMISTRY, FAC. SCIENCE, NARA WOMEN'S UNIV.
license=CC BY-NC-SA
exact mass=155.99781
ionization energy=70 eV
ion type=[M]+*
computed spectral entropy=2.9890749589975463
computed normalized entropy=0.7680403333238848
SPLASH=splash10-0bti-4900000000-77e4728242ff5dcde92a
submitter=submitter = University of Tokyo Team (Faculty of Engineering, University of Tokyo)
MoNA Rating=3.75

>  <NUM PEAKS>  (4548) 
49

>  <MASS SPECTRAL PEAKS>  (4548) 
26 1.19
27 1.68
28 7.67
36 2.48
37 5.51
37.5 5.65
38 9.7
39 4.21
44 2.92
45 3.2
49 3.37
50 26.22
51 12.46
52 1.01
53 1.8
55.5 3.21
56.5 1.01
61 1.91
62 1.4
63 1.97
64 4.54
65 4.6
69.5 3.2
70.5 1.12
73 4.39
74 16.23
75 33.6
76 8.88
77 7.36
84 1.79
85 3.93
87 1.35
99 1.07
104 1.01
110 2.03
111 49.16
112 4.6
113 16.66
114 1.28
128 2.71
130 1.07
139 99.99
140 8.31
141 34.22
142 2.69
156 84.69
157 6.74
158 29.29
159 2.19

$$$$

     RDKit          2D

  9  9  0  0  0  0  0  0  0  0999 V2000
   -0.3162    1.6831    0.0000 C   0  0  0  0  0  0  0  0  0  0  0  0
    0.9788   -0.5599    0.0000 C   0  0  0  0  0  0  0  0  0  0  0  0
   -1.6153    0.9331    0.0000 C   0  0  0  0  0  0  0  0  0  0  0  0
   -0.3203   -1.3099    0.0000 C   0  0  0  0  0  0  0  0  0  0  0  0
    2.2685    1.7061    0.0000 C   0  0  0  0  0  0  0  0  0  0  0  0
    0.9733    0.9496    0.0000 C   0  0  0  0  0  0  0  0  0  0  0  0
   -1.6334   -0.5554    0.0000 C   0  0  0  0  0  0  0  0  0  0  0  0
   -2.9363   -1.2988    0.0000 Cl  0  0  0  0  0  0  0  0  0  0  0  0
    3.5713    0.9627    0.0000 O   0  0  0  0  0  0  0  0  0  0  0  0
  3  1  2  0
  4  2  1  0
  6  1  1  0
  6  2  2  0
  6  5  1  0
  7  3  1  0
  7  4  2  0
  8  7  1  0
  9  5  2  0
M  END
>  <NAME>  (4549) 
P-CHLOROBENZALDEHYDE

>  <SYNONYMS>  (4549) 
4-CHLOROBENZALDEHYDE

>  <SPECTRUM TYPE>  (4549) 
MS1

>  <INSTRUMENT TYPE>  (4549) 
EI-B

>  <INSTRUMENT>  (4549) 
HITACHI RMU-6M

>  <ION MODE>  (4549) 
P

>  <INCHIKEY>  (4549) 
AVPYQKSLYISFPO-UHFFFAOYSA-N

>  <FORMULA>  (4549) 
C7H5ClO

>  <EXACT MASS>  (4549) 
140.00289246

>  <MW>  (4549) 
140

>  <ID>  (4549) 
JP005273

>  <CONTRIBUTOR>  (4549) 
University of Tokyo Team, {Faculty of Engineering, University of Tokyo

>  <COMMENT>  (4549) 
SMILES=O=Cc(c1)ccc(Cl)c1
InChI=InChI=1S/C7H5ClO/c8-7-3-1-6(5-9)2-4-7/h1-5H
computed SMILES=O=CC1=CC=C(Cl)C=C1
accession=JP005273
date=2016.01.19 (Created 2008.10.21, modified 2011.05.06)
author=YAMAMOTO M, DEP. CHEMISTRY, FAC. SCIENCE, NARA WOMEN'S UNIV.
license=CC BY-NC-SA
exact mass=140.00289
ionization energy=70 eV
ion type=[M]+*
computed spectral entropy=2.748644521333556
computed normalized entropy=0.7612038234679122
SPLASH=splash10-01p6-4900000000-c472a44843eaabe4bc7c
submitter=submitter = University of Tokyo Team (Faculty of Engineering, University of Tokyo)
MoNA Rating=3.75

>  <NUM PEAKS>  (4549) 
37

>  <MASS SPECTRAL PEAKS>  (4549) 
26 1.04
27 2.04
29 3.49
37 4.72
37.5 1.57
38 6.7
39 2.15
44 1.22
49 3.5
50 25.89
51 18.48
52 4.78
55 1.22
60 1
61 2.27
62 1.98
63 1.75
73 4.2
74 14.57
75 28.86
76 8.57
77 17.08
78 1.28
84 1.57
85 3.91
86 1
87 1.28
110 1.1
111 55.51
112 8.45
113 18.36
114 2.68
139 99.99
140 71.02
141 37.67
142 24.37
143 1.52

$$$$

     RDKit          2D

  8  8  0  0  0  0  0  0  0  0999 V2000
    2.5961    1.5170    0.0000 C   0  0  0  0  0  0  0  0  0  0  0  0
    0.0113    1.4940    0.0000 C   0  0  0  0  0  0  0  0  0  0  0  0
    1.3063   -0.7490    0.0000 C   0  0  0  0  0  0  0  0  0  0  0  0
   -1.2877    0.7440    0.0000 C   0  0  0  0  0  0  0  0  0  0  0  0
    0.0073   -1.4990    0.0000 C   0  0  0  0  0  0  0  0  0  0  0  0
    1.3009    0.7605    0.0000 C   0  0  0  0  0  0  0  0  0  0  0  0
   -1.3059   -0.7445    0.0000 C   0  0  0  0  0  0  0  0  0  0  0  0
   -2.6087   -1.4879    0.0000 Cl  0  0  0  0  0  0  0  0  0  0  0  0
  4  2  2  0
  5  3  1  0
  6  1  1  0
  6  2  1  0
  6  3  2  0
  7  4  1  0
  7  5  2  0
  8  7  1  0
M  END
>  <NAME>  (4550) 
P-CHLOROTOLUENE

>  <SYNONYMS>  (4550) 
4-CHLOROTOLUENE

>  <SPECTRUM TYPE>  (4550) 
MS1

>  <INSTRUMENT TYPE>  (4550) 
EI-B

>  <INSTRUMENT>  (4550) 
HITACHI RMU-6M

>  <ION MODE>  (4550) 
P

>  <INCHIKEY>  (4550) 
NPDACUSDTOMAMK-UHFFFAOYSA-N

>  <FORMULA>  (4550) 
C7H7Cl

>  <EXACT MASS>  (4550) 
126.023627904

>  <MW>  (4550) 
126

>  <ID>  (4550) 
JP005272

>  <CONTRIBUTOR>  (4550) 
University of Tokyo Team, {Faculty of Engineering, University of Tokyo

>  <COMMENT>  (4550) 
computed SMILES=ClC1=CC=C(C=C1)C
SMILES=Cc(c1)ccc(Cl)c1
InChI=InChI=1S/C7H7Cl/c1-6-2-4-7(8)5-3-6/h2-5H,1H3
accession=JP005272
date=2016.01.19 (Created 2008.10.21, modified 2011.05.06)
author=YAMAMOTO M, DEP. CHEMISTRY, FAC. SCIENCE, NARA WOMEN'S UNIV.
license=CC BY-NC-SA
exact mass=126.02363
ionization energy=70 eV
ion type=[M]+*
computed spectral entropy=2.485956913209508
computed normalized entropy=0.7239272499217785
SPLASH=splash10-002f-9300000000-06a13ca9fc2642d0199a
submitter=submitter = University of Tokyo Team (Faculty of Engineering, University of Tokyo)
MoNA Rating=3.75

>  <NUM PEAKS>  (4550) 
31

>  <MASS SPECTRAL PEAKS>  (4550) 
27 1.29
37 1.39
38 2.27
39 8.59
41 1.03
43 2.12
44 2.07
44.5 1.75
45 7.03
50 4.97
51 4.29
61 2.07
62 4.4
63 10.76
64 2.12
65 8.07
73 2.84
74 1.55
75 2.07
86 1.14
87 1.03
89 8.95
90 3.15
91 99.99
92 7.97
99 2.58
125 16.97
126 40.34
127 7.96
128 12.78
129 1.13

$$$$

     RDKit          2D

  8  8  0  0  0  0  0  0  0  0999 V2000
    1.9603    1.8559    0.0000 C   0  0  0  0  0  0  0  0  0  0  0  0
   -1.9404    1.1322    0.0000 C   0  0  0  0  0  0  0  0  0  0  0  0
   -1.9623   -0.3699    0.0000 C   0  0  0  0  0  0  0  0  0  0  0  0
   -0.6414    1.8822    0.0000 C   0  0  0  0  0  0  0  0  0  0  0  0
   -0.6578   -1.1294    0.0000 C   0  0  0  0  0  0  0  0  0  0  0  0
    0.6545    1.1177    0.0000 C   0  0  0  0  0  0  0  0  0  0  0  0
    0.6413   -0.3794    0.0000 C   0  0  0  0  0  0  0  0  0  0  0  0
    1.9370   -1.1351    0.0000 Cl  0  0  0  0  0  0  0  0  0  0  0  0
  3  2  2  0
  4  2  1  0
  5  3  1  0
  6  1  1  0
  6  4  2  0
  7  5  2  0
  7  6  1  0
  8  7  1  0
M  END
>  <NAME>  (4551) 
O-CHLOROTOLUENE

>  <SYNONYMS>  (4551) 
2-CHLOROTOLUENE

>  <SPECTRUM TYPE>  (4551) 
MS1

>  <INSTRUMENT TYPE>  (4551) 
EI-B

>  <INSTRUMENT>  (4551) 
HITACHI RMU-6M

>  <ION MODE>  (4551) 
P

>  <INCHIKEY>  (4551) 
IBSQPLPBRSHTTG-UHFFFAOYSA-N

>  <FORMULA>  (4551) 
C7H7Cl

>  <EXACT MASS>  (4551) 
126.023627904

>  <MW>  (4551) 
126

>  <ID>  (4551) 
JP005271

>  <CONTRIBUTOR>  (4551) 
University of Tokyo Team, {Faculty of Engineering, University of Tokyo

>  <COMMENT>  (4551) 
SMILES=Cc(c1)c(Cl)ccc1
InChI=InChI=1S/C7H7Cl/c1-6-4-2-3-5-7(6)8/h2-5H,1H3
computed SMILES=ClC=1C=CC=CC1C
accession=JP005271
date=2016.01.19 (Created 2008.10.21, modified 2011.05.06)
author=YAMAMOTO M, DEP. CHEMISTRY, FAC. SCIENCE, NARA WOMEN'S UNIV.
license=CC BY-NC-SA
exact mass=126.02363
ionization energy=70 eV
ion type=[M]+*
computed spectral entropy=2.4715378324530244
computed normalized entropy=0.7339829813714206
SPLASH=splash10-002f-9200000000-5c62ea65db101410dcba
submitter=submitter = University of Tokyo Team (Faculty of Engineering, University of Tokyo)
MoNA Rating=3.75

>  <NUM PEAKS>  (4551) 
29

>  <MASS SPECTRAL PEAKS>  (4551) 
27 1.2
37 1.39
38 2.32
39 9.28
43 1.9
44 2.07
44.5 1.67
45 6.7
50 4.08
51 4.46
61 2.07
62 4.59
63 11.89
64 2.65
65 8.26
73 2.32
74 1.25
75 1.58
86 1.16
89 13.19
90 10.87
91 99.99
92 7.98
99 2.16
125 10.49
126 38.03
127 6.13
128 12.54
129 1.02

$$$$

     RDKit          2D

  8  8  0  0  0  0  0  0  0  0999 V2000
   -1.3000    0.7500    0.0000 C   0  0  0  0  0  0  0  0  0  0  0  0
   -0.0000   -1.5000    0.0000 C   0  0  0  0  0  0  0  0  0  0  0  0
    0.0000    1.5000    0.0000 C   0  0  0  0  0  0  0  0  0  0  0  0
    1.3000   -0.7500    0.0000 C   0  0  0  0  0  0  0  0  0  0  0  0
   -1.3000   -0.7500    0.0000 C   0  0  0  0  0  0  0  0  0  0  0  0
    1.3000    0.7500    0.0000 C   0  0  0  0  0  0  0  0  0  0  0  0
   -2.5989   -1.5002    0.0000 Cl  0  0  0  0  0  0  0  0  0  0  0  0
    2.5989    1.5002    0.0000 N   0  0  0  0  0  0  0  0  0  0  0  0
  3  1  2  0
  4  2  1  0
  5  1  1  0
  5  2  2  0
  6  3  1  0
  6  4  2  0
  7  5  1  0
  8  6  1  0
M  END
>  <NAME>  (4552) 
P-CHLOROANILINE

>  <SYNONYMS>  (4552) 
4-CHLOROANILINE

>  <SPECTRUM TYPE>  (4552) 
MS1

>  <INSTRUMENT TYPE>  (4552) 
EI-B

>  <INSTRUMENT>  (4552) 
HITACHI RMU-6M

>  <ION MODE>  (4552) 
P

>  <INCHIKEY>  (4552) 
QSNSCYSYFYORTR-UHFFFAOYSA-N

>  <FORMULA>  (4552) 
C6H6ClN

>  <EXACT MASS>  (4552) 
127.01887687199999

>  <MW>  (4552) 
127

>  <ID>  (4552) 
JP005270

>  <CONTRIBUTOR>  (4552) 
University of Tokyo Team, {Faculty of Engineering, University of Tokyo

>  <COMMENT>  (4552) 
SMILES=Nc(c1)ccc(Cl)c1
InChI=InChI=1S/C6H6ClN/c7-5-1-3-6(8)4-2-5/h1-4H,8H2
computed SMILES=ClC1=CC=C(N)C=C1
accession=JP005270
date=2016.01.19 (Created 2008.10.21, modified 2011.05.06)
author=YAMAMOTO M, DEP. CHEMISTRY, FAC. SCIENCE, NARA WOMEN'S UNIV.
license=CC BY-NC-SA
exact mass=127.01888
ionization energy=70 eV
ion type=[M]+*
computed spectral entropy=2.7029413135262326
computed normalized entropy=0.7485468733757248
SPLASH=splash10-004i-7900000000-a2f8dccba0c4f29cf5f5
submitter=submitter = University of Tokyo Team (Faculty of Engineering, University of Tokyo)
MoNA Rating=3.75

>  <NUM PEAKS>  (4552) 
37

>  <MASS SPECTRAL PEAKS>  (4552) 
37 3.6
38 3.83
39 7.56
40 1.37
41 3.88
42 1.12
44 1.42
44.5 1.81
45.5 8.63
50 2.75
51 1.82
52 3.98
55 1.03
61 2.45
62 3.58
63 7.32
63.5 6.73
64 5.55
64.5 2.16
65 23.98
66 3
73 3.73
74 1.37
75 1.81
90 2.11
91 4.81
92 16.81
93 1.22
99 5.89
100 8.15
101 2.65
102 2.65
126 2.11
127 99.99
128 7.37
129 31.7
130 2.36

$$$$

     RDKit          2D

  8  8  0  0  0  0  0  0  0  0999 V2000
    1.9467   -1.4939    0.0000 C   0  0  0  0  0  0  0  0  0  0  0  0
    1.9512   -0.0017    0.0000 C   0  0  0  0  0  0  0  0  0  0  0  0
    0.6477   -2.2439    0.0000 C   0  0  0  0  0  0  0  0  0  0  0  0
   -0.6473   -0.0009    0.0000 C   0  0  0  0  0  0  0  0  0  0  0  0
    0.6517    0.7491    0.0000 C   0  0  0  0  0  0  0  0  0  0  0  0
   -0.6468   -1.5017    0.0000 C   0  0  0  0  0  0  0  0  0  0  0  0
    0.6520    2.2491    0.0000 Cl  0  0  0  0  0  0  0  0  0  0  0  0
   -1.9446   -2.2539    0.0000 N   0  0  0  0  0  0  0  0  0  0  0  0
  2  1  2  0
  3  1  1  0
  5  2  1  0
  5  4  2  0
  6  3  2  0
  6  4  1  0
  7  5  1  0
  8  6  1  0
M  END
>  <NAME>  (4553) 
M-CHLOROANILINE

>  <SYNONYMS>  (4553) 
3-CHLOROANILINE

>  <SPECTRUM TYPE>  (4553) 
MS1

>  <INSTRUMENT TYPE>  (4553) 
EI-B

>  <INSTRUMENT>  (4553) 
HITACHI RMU-6M

>  <ION MODE>  (4553) 
P

>  <INCHIKEY>  (4553) 
PNPCRKVUWYDDST-UHFFFAOYSA-N

>  <FORMULA>  (4553) 
C6H6ClN

>  <EXACT MASS>  (4553) 
127.01887687199999

>  <MW>  (4553) 
127

>  <ID>  (4553) 
JP005269

>  <CONTRIBUTOR>  (4553) 
University of Tokyo Team, {Faculty of Engineering, University of Tokyo

>  <COMMENT>  (4553) 
SMILES=Nc(c1)cc(Cl)cc1
InChI=InChI=1S/C6H6ClN/c7-5-2-1-3-6(8)4-5/h1-4H,8H2
computed SMILES=ClC1=CC=CC(N)=C1
accession=JP005269
date=2016.01.19 (Created 2008.10.21, modified 2011.05.06)
author=YAMAMOTO M, DEP. CHEMISTRY, FAC. SCIENCE, NARA WOMEN'S UNIV.
license=CC BY-NC-SA
exact mass=127.01888
ionization energy=70 eV
ion type=[M]+*
computed spectral entropy=2.6441827965271485
computed normalized entropy=0.7437198133055479
SPLASH=splash10-004i-7900000000-54dad2f5a9187b00fde0
submitter=submitter = University of Tokyo Team (Faculty of Engineering, University of Tokyo)
MoNA Rating=3.75

>  <NUM PEAKS>  (4553) 
35

>  <MASS SPECTRAL PEAKS>  (4553) 
37 2.75
38 4.39
39 8.57
40 1.07
41 3.47
42 1.17
44.5 1.83
45.5 8.39
50 2.24
51 1.64
52 4.08
61 2.34
62 3.47
63 7.54
63.5 6.21
64 6.23
64.5 1.99
65 23.51
66 2.85
73 2.75
74 1.22
75 1.43
90 2.24
91 5.77
92 18.46
93 1.38
99 5.2
100 7.34
101 2.19
102 2.45
126 1.84
127 99.99
128 7.65
129 31.64
130 2.24

$$$$

     RDKit          2D

  8  8  0  0  0  0  0  0  0  0999 V2000
   -1.3000    0.7500    0.0000 C   0  0  0  0  0  0  0  0  0  0  0  0
    0.0000    1.5000    0.0000 C   0  0  0  0  0  0  0  0  0  0  0  0
   -1.3000   -0.7500    0.0000 C   0  0  0  0  0  0  0  0  0  0  0  0
    1.3000    0.7500    0.0000 C   0  0  0  0  0  0  0  0  0  0  0  0
    0.0000   -1.5000    0.0000 C   0  0  0  0  0  0  0  0  0  0  0  0
    1.3000   -0.7500    0.0000 C   0  0  0  0  0  0  0  0  0  0  0  0
   -0.0000   -3.0000    0.0000 Cl  0  0  0  0  0  0  0  0  0  0  0  0
    2.5989   -1.5002    0.0000 N   0  0  0  0  0  0  0  0  0  0  0  0
  2  1  2  0
  3  1  1  0
  4  2  1  0
  5  3  2  0
  6  4  2  0
  6  5  1  0
  7  5  1  0
  8  6  1  0
M  END
>  <NAME>  (4554) 
O-CHLOROANILINE

>  <SYNONYMS>  (4554) 
2-CHLOROANILINE

>  <SPECTRUM TYPE>  (4554) 
MS1

>  <INSTRUMENT TYPE>  (4554) 
EI-B

>  <INSTRUMENT>  (4554) 
HITACHI RMU-6M

>  <ION MODE>  (4554) 
P

>  <INCHIKEY>  (4554) 
AKCRQHGQIJBRMN-UHFFFAOYSA-N

>  <FORMULA>  (4554) 
C6H6ClN

>  <EXACT MASS>  (4554) 
127.01887687199999

>  <MW>  (4554) 
127

>  <ID>  (4554) 
JP005268

>  <CONTRIBUTOR>  (4554) 
University of Tokyo Team, {Faculty of Engineering, University of Tokyo

>  <COMMENT>  (4554) 
SMILES=Nc(c1)c(Cl)ccc1
InChI=InChI=1S/C6H6ClN/c7-5-3-1-2-4-6(5)8/h1-4H,8H2
computed SMILES=ClC=1C=CC=CC1N
accession=JP005268
date=2016.01.19 (Created 2008.10.21, modified 2011.05.06)
author=YAMAMOTO M, DEP. CHEMISTRY, FAC. SCIENCE, NARA WOMEN'S UNIV.
license=CC BY-NC-SA
exact mass=127.01888
ionization energy=70 eV
ion type=[M]+*
computed spectral entropy=2.642583004082149
computed normalized entropy=0.7493797034180983
SPLASH=splash10-004i-7900000000-67f5307905643f810ff5
submitter=submitter = University of Tokyo Team (Faculty of Engineering, University of Tokyo)
MoNA Rating=3.75

>  <NUM PEAKS>  (4554) 
34

>  <MASS SPECTRAL PEAKS>  (4554) 
37 2.92
38 4.83
39 8.11
40 1.06
41 3.76
42 1.24
44.5 1.95
45.5 8.95
50 1.91
51 1.86
52 5.62
61 2.13
62 3.14
63 8.2
63.5 6.52
64 9.66
64.5 2.08
65 18.12
66 2.52
73 3.01
75 1.19
90 2.53
91 8.16
92 17.38
93 1.46
99 4.09
100 5.4
101 2.08
102 1.82
126 1.81
127 99.99
128 7.71
129 32.54
130 2.35

$$$$

     RDKit          2D

 19 19  0  0  0  0  0  0  0  0999 V2000
   11.1575   -0.8991    0.0000 C   0  0  0  0  0  0  0  0  0  0  0  0
   -3.9842   -6.4421    0.0000 C   0  0  0  0  0  0  0  0  0  0  0  0
    9.6804   -0.6383    0.0000 C   0  0  0  0  0  0  0  0  0  0  0  0
    8.7159   -1.7872    0.0000 C   0  0  0  0  0  0  0  0  0  0  0  0
    7.2388   -1.5264    0.0000 C   0  0  0  0  0  0  0  0  0  0  0  0
    6.2744   -2.6753    0.0000 C   0  0  0  0  0  0  0  0  0  0  0  0
    4.7972   -2.4145    0.0000 C   0  0  0  0  0  0  0  0  0  0  0  0
    3.8328   -3.5633    0.0000 C   0  0  0  0  0  0  0  0  0  0  0  0
    2.3556   -3.3025    0.0000 C   0  0  0  0  0  0  0  0  0  0  0  0
   -2.6845   -4.1914    0.0000 C   0  0  0  0  0  0  0  0  0  0  0  0
    1.3912   -4.4514    0.0000 C   0  0  0  0  0  0  0  0  0  0  0  0
   -1.3850   -3.4406    0.0000 C   0  0  0  0  0  0  0  0  0  0  0  0
    0.4272   -2.7811    0.0000 C   0  0  0  0  0  0  0  0  0  0  0  0
   -2.6850   -5.6923    0.0000 C   0  0  0  0  0  0  0  0  0  0  0  0
   -1.3860   -6.4423    0.0000 C   0  0  0  0  0  0  0  0  0  0  0  0
   -0.0860   -4.1906    0.0000 C   0  0  0  0  0  0  0  0  0  0  0  0
   -0.5368   -1.6320    0.0000 O   0  0  0  0  0  0  0  0  0  0  0  0
   -1.3857   -7.9423    0.0000 O   0  0  0  0  0  0  0  0  0  0  0  0
   -0.0865   -5.6914    0.0000 O   0  0  0  0  0  0  0  0  0  0  0  0
  3  1  1  0
  4  3  1  0
  5  4  1  0
  6  5  1  0
  7  6  1  0
  8  7  1  0
  9  8  1  0
 11  9  1  0
 12 10  1  0
 14  2  1  0
 14 10  2  0
 15 14  1  0
 16 11  1  0
 16 12  1  0
 16 13  1  0
 17 13  1  0
 18 15  2  0
 19 15  1  0
 19 16  1  0
M  END
>  <NAME>  (4555) 
5,6-DIHYDRO-6-HYDROXYMETHYL-3-METHYL-6-NONYL-2H-PYRAN-2-ONE

>  <SYNONYMS>  (4555) 


>  <SPECTRUM TYPE>  (4555) 
MS1

>  <INSTRUMENT TYPE>  (4555) 
EI-B

>  <INSTRUMENT>  (4555) 
JEOL JMS-DX-300

>  <ION MODE>  (4555) 
P

>  <INCHIKEY>  (4555) 
QSCPZTHCXWAHQG-UHFFFAOYSA-N

>  <FORMULA>  (4555) 
C16H28O3

>  <EXACT MASS>  (4555) 
268.20384475599997

>  <MW>  (4555) 
268

>  <ID>  (4555) 
JP005235

>  <CONTRIBUTOR>  (4555) 
University of Tokyo Team, {Faculty of Engineering, University of Tokyo

>  <COMMENT>  (4555) 
SMILES=CCCCCCCCCC(CO)(C1)OC(=O)C(C)=C1
InChI=InChI=1S/C16H28O3/c1-3-4-5-6-7-8-9-11-16(13-17)12-10-14(2)15(18)19-16/h10,17H,3-9,11-13H2,1-2H3
computed SMILES=O=C1OC(CO)(CC=C1C)CCCCCCCCC
accession=JP005235
date=2016.01.19 (Created 2008.10.21, modified 2011.05.06)
author=HISAHIRO HAGIWARA, CHEMICAL RESEARCH INSTITUTE OF NON-AQUEOUSSOLUTIONS TOHOKU UNIV.
license=CC BY-NC-SA
exact mass=268.20384
ionization energy=70 eV
ion type=[M]+*
computed spectral entropy=2.7495118341837324
computed normalized entropy=0.6992964823515383
SPLASH=splash10-000i-9000000000-d02a6e50ad395f343347
submitter=submitter = University of Tokyo Team (Faculty of Engineering, University of Tokyo)
MoNA Rating=3.75

>  <NUM PEAKS>  (4555) 
51

>  <MASS SPECTRAL PEAKS>  (4555) 
14 1.3
17 5.7
18 23.4
27 0.46
28 29.7
29 12
31 2
32 0.57
39 2.6
40 1
41 16.5
42 0.27
43 24.8
44 3.2
45 1.1
53 0.15
54 1.4
55 13
56 7.1
57 1.32
58 1.2
67 7.1
68 1.5
69 0.51
70 1.1
71 4.6
73 1.1
81 0.33
82 1.3
83 4.5
84 4.8
85 99.99
86 6.1
95 3
97 1.9
98 0.18
101 4.8
109 1.4
111 1.3
115 0.01
151 1.1
155 5.6
156 1.1
194 0.01
195 1.5
211 1.2
226 1.1
253 0.55
254 1.1
266 1.2
267 1.2

$$$$

     RDKit          2D

 19 19  0  0  1  0  0  0  0  0999 V2000
   11.1575   -0.8991    0.0000 C   0  0  0  0  0  0  0  0  0  0  0  0
   -3.9842   -6.4421    0.0000 C   0  0  0  0  0  0  0  0  0  0  0  0
    9.6804   -0.6383    0.0000 C   0  0  0  0  0  0  0  0  0  0  0  0
    8.7159   -1.7872    0.0000 C   0  0  0  0  0  0  0  0  0  0  0  0
    7.2388   -1.5264    0.0000 C   0  0  0  0  0  0  0  0  0  0  0  0
    6.2744   -2.6753    0.0000 C   0  0  0  0  0  0  0  0  0  0  0  0
    4.7972   -2.4145    0.0000 C   0  0  0  0  0  0  0  0  0  0  0  0
    3.8328   -3.5633    0.0000 C   0  0  0  0  0  0  0  0  0  0  0  0
    2.3556   -3.3025    0.0000 C   0  0  0  0  0  0  0  0  0  0  0  0
   -2.6845   -4.1914    0.0000 C   0  0  0  0  0  0  0  0  0  0  0  0
    1.3912   -4.4514    0.0000 C   0  0  0  0  0  0  0  0  0  0  0  0
   -1.3850   -3.4406    0.0000 C   0  0  0  0  0  0  0  0  0  0  0  0
    0.4272   -2.7811    0.0000 C   0  0  0  0  0  0  0  0  0  0  0  0
   -2.6850   -5.6923    0.0000 C   0  0  0  0  0  0  0  0  0  0  0  0
   -1.3860   -6.4423    0.0000 C   0  0  0  0  0  0  0  0  0  0  0  0
   -0.0860   -4.1906    0.0000 C   0  0  0  0  0  0  0  0  0  0  0  0
   -0.5368   -1.6320    0.0000 O   0  0  0  0  0  0  0  0  0  0  0  0
   -1.3857   -7.9423    0.0000 O   0  0  0  0  0  0  0  0  0  0  0  0
   -0.0865   -5.6914    0.0000 O   0  0  0  0  0  0  0  0  0  0  0  0
  3  1  1  0
  4  3  1  0
  5  4  1  0
  6  5  1  0
  7  6  1  0
  8  7  1  0
  9  8  1  0
 11  9  1  0
 12 10  1  0
 14  2  1  6
 14 10  1  0
 15 14  1  0
 16 11  1  1
 16 12  1  0
 16 13  1  0
 17 13  1  0
 18 15  2  0
 19 15  1  0
 19 16  1  0
M  END
>  <NAME>  (4556) 
3,4,5,6-TETRAHYDRO-(6ALPHA)-HYDROXYMETHYL-(3ALPHA)-METHYL-(6BETA)-NONYL-2H-PYRAN-2-ONE

>  <SYNONYMS>  (4556) 
2-EPI-MALYNGOLIDE

>  <SPECTRUM TYPE>  (4556) 
MS1

>  <INSTRUMENT TYPE>  (4556) 
EI-B

>  <INSTRUMENT>  (4556) 
JEOL JMS-DX-300

>  <ION MODE>  (4556) 
P

>  <INCHIKEY>  (4556) 
OEXPVULGTKWKEH-GDBMZVCRSA-N

>  <FORMULA>  (4556) 
C16H30O3

>  <EXACT MASS>  (4556) 
270.21949481999997

>  <MW>  (4556) 
270

>  <ID>  (4556) 
JP005234

>  <CONTRIBUTOR>  (4556) 
University of Tokyo Team, {Faculty of Engineering, University of Tokyo

>  <COMMENT>  (4556) 
SMILES=CCCCCCCCCC(CO)(C1)OC(=O)C([H])(C)C1
InChI=InChI=1S/C16H30O3/c1-3-4-5-6-7-8-9-11-16(13-17)12-10-14(2)15(18)19-16/h14,17H,3-13H2,1-2H3/t14-,16-/m1/s1
computed SMILES=O=C1OC(CO)(CCCCCCCCC)CCC1C
accession=JP005234
date=2016.01.19 (Created 2008.10.21, modified 2011.05.06)
author=HISAHIRO HAGIWARA, CHEMICAL RESEARCH INSTITUTE OF NON-AQUEOUSSOLUTIONS TOHOKU UNIV.
license=CC BY-NC-SA
exact mass=270.21949
ionization energy=70 eV
ion type=[M]+*
computed spectral entropy=3.2852098965848695
computed normalized entropy=0.7785765843145336
SPLASH=splash10-052o-9240000000-b6060321174fe6b11aee
submitter=submitter = University of Tokyo Team (Faculty of Engineering, University of Tokyo)
MoNA Rating=3.75

>  <NUM PEAKS>  (4556) 
68

>  <MASS SPECTRAL PEAKS>  (4556) 
27 11.4
29 26.2
31 12.6
39 0.74
41 50.2
42 9.4
43 47.3
44 0.15
45 1.4
53 4.5
54 4.3
55 4.13
56 15.7
57 39.5
58 5.6
59 0.19
67 10.9
68 5.5
69 20.4
70 0.48
71 34.2
72 3.4
73 1.3
74 0.13
77 1.1
79 3.6
80 1.3
81 0.14
82 5.4
83 9.7
84 3
85 1.76
86 1.3
93 1.9
95 11.6
96 0.38
97 7.8
98 4.3
99 1.4
107 0.01
109 3.2
110 3.1
111 7.1
112 0.14
113 1.5
115 7.1
123 1.6
124 0.11
125 1.5
126 3.1
127 1
137 0.18
139 2.1
140 1.1
143 27.4
144 0.22
151 1.4
155 26.6
156 3
166 0.13
211 35.1
212 6
223 2.9
226 0.11
239 99.99
240 17.4
241 2
270 0.3

$$$$

     RDKit          2D

 27 29  0  0  1  0  0  0  0  0999 V2000
    0.4758   -7.8665    0.0000 C   0  0  0  0  0  0  0  0  0  0  0  0
   -1.9655   -6.9776    0.0000 C   0  0  0  0  0  0  0  0  0  0  0  0
    3.8089    1.4002    0.0000 C   0  0  0  0  0  0  0  0  0  0  0  0
   -2.3541   -2.7492    0.0000 C   0  0  0  0  0  0  0  0  0  0  0  0
   -0.0900    2.1500    0.0000 C   0  0  0  0  0  0  0  0  0  0  0  0
    1.0173    4.9932    0.0000 C   0  0  0  0  0  0  0  0  0  0  0  0
   -0.9391   -4.1587    0.0000 C   0  0  0  0  0  0  0  0  0  0  0  0
   -2.6900    0.6500    0.0000 C   0  0  0  0  0  0  0  0  0  0  0  0
    0.0249   -5.3078    0.0000 C   0  0  0  0  0  0  0  0  0  0  0  0
    2.5100   -0.8500    0.0000 C   0  0  0  0  0  0  0  0  0  0  0  0
    1.2100   -1.6000    0.0000 C   0  0  0  0  0  0  0  0  0  0  0  0
    1.2100    2.9000    0.0000 C   0  0  0  0  0  0  0  0  0  0  0  0
   -0.4259   -2.7492    0.0000 C   0  0  0  0  0  0  0  0  0  0  0  0
   -2.6900   -0.8500    0.0000 C   0  0  0  0  0  0  0  0  0  0  0  0
   -1.3900    1.4000    0.0000 C   0  0  0  0  0  0  0  0  0  0  0  0
    2.5090    3.6500    0.0000 C   0  0  0  0  0  0  0  0  0  0  0  0
    3.4962    7.3672    0.0000 C   0  0  0  0  0  0  0  0  0  0  0  0
    4.6109    6.3635    0.0000 C   0  0  0  0  0  0  0  0  0  0  0  0
   -0.4882   -6.7173    0.0000 C   0  0  0  0  0  0  0  0  0  0  0  0
    2.5100    0.6500    0.0000 C   0  0  0  0  0  0  0  0  0  0  0  0
    1.2100    1.4000    0.0000 C   0  0  0  0  0  0  0  0  0  0  0  0
   -0.0900   -0.8500    0.0000 C   0  0  0  0  0  0  0  0  0  0  0  0
   -1.3900   -1.6000    0.0000 C   0  0  0  0  0  0  0  0  0  0  0  0
   -0.0900    0.6500    0.0000 C   0  0  0  0  0  0  0  0  0  0  0  0
    2.5090    5.1500    0.0000 C   0  0  0  0  0  0  0  0  0  0  0  0
    2.1972    6.6172    0.0000 O   0  0  0  0  0  0  0  0  0  0  0  0
    4.0008    4.9932    0.0000 O   0  0  0  0  0  0  0  0  0  0  0  0
  9  7  1  0
 11 10  1  0
 13  7  1  0
 14  8  1  0
 15  8  1  0
 16 12  1  0
 18 17  1  0
 19  1  1  0
 19  2  1  0
 19  9  2  0
 20  3  1  0
 20 10  1  0
 21 12  1  0
 21 20  2  0
 22 11  1  0
 23  4  1  1
 23 13  1  0
 23 14  1  0
 23 22  1  0
 24  5  1  1
 24 15  1  0
 24 21  1  0
 24 22  1  0
 25  6  1  0
 25 16  1  0
 26 17  1  0
 26 25  1  0
 27 18  1  0
 27 25  1  0
M  END
>  <NAME>  (4557) 
5-(3-ETHYLENEDIOXYBUTYL)-1-(4-METHYL-3-PENTENYL)-(1BETA,4ABETA),6-TRIMETHYL-1,2,3,4,4A,7,8,8A-OCTAHYDRONAPHTHALENE

>  <SYNONYMS>  (4557) 


>  <SPECTRUM TYPE>  (4557) 
MS1

>  <INSTRUMENT TYPE>  (4557) 
EI-B

>  <INSTRUMENT>  (4557) 
JEOL JMS-DX-300

>  <ION MODE>  (4557) 
P

>  <INCHIKEY>  (4557) 
BBPHUYZEVNFFEW-HEYJASKDSA-N

>  <FORMULA>  (4557) 
C25H42O2

>  <EXACT MASS>  (4557) 
374.318480584

>  <MW>  (4557) 
374

>  <ID>  (4557) 
JP005227

>  <CONTRIBUTOR>  (4557) 
University of Tokyo Team, {Faculty of Engineering, University of Tokyo

>  <COMMENT>  (4557) 
SMILES=CC(C)=CCCC(C)(C3)C(C1)C(C)(CC3)C(CCC(C)(O2)OCC2)=C(C)C1
InChI=InChI=1S/C25H42O2/c1-19(2)9-7-13-23(4)14-8-15-24(5)21(20(3)10-11-22(23)24)12-16-25(6)26-17-18-27-25/h9,22H,7-8,10-18H2,1-6H3/t22?,23-,24-/m1/s1
computed SMILES=O1CCOC1(C)CCC2=C(C)CCC3C2(C)CCCC3(C)CCC=C(C)C
accession=JP005227
date=2016.01.19 (Created 2008.10.21, modified 2011.05.06)
author=HISAHIRO HAGIWARA, CHEMICAL RESEARCH INSTITUTE OF NON-AQUEOUSSOLUTIONS TOHOKU UNIV.
license=CC BY-NC-SA
exact mass=374.31848
ionization energy=70 eV
ion type=[M]+*
computed spectral entropy=3.8705810385387456
computed normalized entropy=0.8499529369531027
SPLASH=splash10-0079-9620000000-ebf839fd06a1863bb4d3
submitter=submitter = University of Tokyo Team (Faculty of Engineering, University of Tokyo)
MoNA Rating=3.75

>  <NUM PEAKS>  (4557) 
95

>  <MASS SPECTRAL PEAKS>  (4557) 
32 25.9
41 24.3
42 2.2
43 3.21
44 5
45 5.2
53 2.5
55 1.76
56 2.5
57 8.2
67 6.7
69 0.39
70 5
71 7.7
73 20.3
77 0.29
79 6.3
81 13.8
82 2.6
83 1.05
87 99.99
88 5.4
89 4.3
91 0.74
93 11.1
94 2
95 16.6
96 0.22
97 3.8
99 3.4
103 2.2
105 0.97
106 3.7
107 11.1
108 4.6
109 1.19
113 2.3
115 5.3
116 7
117 0.24
119 24.9
120 7
121 21.4
122 0.52
123 6
131 4
132 2.4
133 1.58
134 6.3
135 8.2
137 2.6
145 0.53
146 7.6
147 9.3
148 2.4
149 1.33
157 3
159 9.5
160 3.4
161 0.55
163 2.6
167 5.1
168 2.2
171 0.29
173 15.6
174 3.8
175 10.9
176 0.25
177 6.3
187 5.4
188 2.1
189 0.62
190 2.4
199 2.2
201 2
213 0.39
215 7.2
227 3.9
228 2.1
229 0.63
230 8
231 2.8
257 7.4
258 0.23
259 12.2
260 2.5
272 4.9
290 0.33
297 13.7
298 3.4
312 9.1
313 0.26
359 2.7
374 9
375 2.5

$$$$

     RDKit          2D

 24 26  0  0  1  0  0  0  0  0999 V2000
    0.5658   -8.7265    0.0000 C   0  0  0  0  0  0  0  0  0  0  0  0
   -1.8755   -7.8376    0.0000 C   0  0  0  0  0  0  0  0  0  0  0  0
    3.8989    0.5402    0.0000 C   0  0  0  0  0  0  0  0  0  0  0  0
   -2.2641   -3.6092    0.0000 C   0  0  0  0  0  0  0  0  0  0  0  0
   -0.8491   -5.0187    0.0000 C   0  0  0  0  0  0  0  0  0  0  0  0
   -2.6000   -0.2100    0.0000 C   0  0  0  0  0  0  0  0  0  0  0  0
    0.1149   -6.1678    0.0000 C   0  0  0  0  0  0  0  0  0  0  0  0
    2.6000   -1.7100    0.0000 C   0  0  0  0  0  0  0  0  0  0  0  0
    1.3000   -2.4600    0.0000 C   0  0  0  0  0  0  0  0  0  0  0  0
   -0.3359   -3.6092    0.0000 C   0  0  0  0  0  0  0  0  0  0  0  0
   -2.6000   -1.7100    0.0000 C   0  0  0  0  0  0  0  0  0  0  0  0
   -1.3000    0.5400    0.0000 C   0  0  0  0  0  0  0  0  0  0  0  0
   -0.7500    4.5583    0.0000 C   0  0  0  0  0  0  0  0  0  0  0  0
    0.7500    4.5583    0.0000 C   0  0  0  0  0  0  0  0  0  0  0  0
   -0.3982   -7.5773    0.0000 C   0  0  0  0  0  0  0  0  0  0  0  0
    2.6000   -0.2100    0.0000 C   0  0  0  0  0  0  0  0  0  0  0  0
    0.0000   -1.7100    0.0000 C   0  0  0  0  0  0  0  0  0  0  0  0
    1.3000    0.5400    0.0000 C   0  0  0  0  0  0  0  0  0  0  0  0
   -0.0000    2.2500    0.0000 C   0  0  0  0  0  0  0  0  0  0  0  0
   -1.3000   -2.4600    0.0000 C   0  0  0  0  0  0  0  0  0  0  0  0
    0.0000   -0.2100    0.0000 C   0  0  0  0  0  0  0  0  0  0  0  0
    1.3000    2.0400    0.0000 O   0  0  0  0  0  0  0  0  0  0  0  0
   -1.2135    3.1317    0.0000 O   0  0  0  0  0  0  0  0  0  0  0  0
    1.2135    3.1317    0.0000 O   0  0  0  0  0  0  0  0  0  0  0  0
  7  5  1  0
  9  8  1  0
 10  5  1  0
 11  6  1  0
 12  6  1  0
 14 13  1  0
 15  1  1  0
 15  2  1  0
 15  7  2  0
 16  3  1  0
 16  8  1  0
 17  9  1  1
 18 16  1  0
 20  4  1  1
 20 10  1  0
 20 11  1  0
 20 17  1  0
 21 12  1  0
 21 17  1  0
 21 18  1  0
 21 19  1  1
 22 18  2  0
 23 13  1  0
 23 19  1  0
 24 14  1  0
 24 19  1  0
M  END
>  <NAME>  (4558) 
4ABETA-ETHYLENEDIOXYMETHYL-(1BETA),6-DIMETHYL-(1ALPHA)-(4-METHYL-3-PENTENYL)-1,2,3,4,4A,7,8,8A-OCTAHYDRONAPHTHALENE-5(6H)-ONE

>  <SYNONYMS>  (4558) 


>  <SPECTRUM TYPE>  (4558) 
MS1

>  <INSTRUMENT TYPE>  (4558) 
EI-B

>  <INSTRUMENT>  (4558) 
JEOL JMS-DX-300

>  <ION MODE>  (4558) 
P

>  <INCHIKEY>  (4558) 
YXNQMYYPGYBXJH-JMCPUQKHSA-N

>  <FORMULA>  (4558) 
C21H34O3

>  <EXACT MASS>  (4558) 
334.25079494799996

>  <MW>  (4558) 
334

>  <ID>  (4558) 
JP005226

>  <CONTRIBUTOR>  (4558) 
University of Tokyo Team, {Faculty of Engineering, University of Tokyo

>  <COMMENT>  (4558) 
SMILES=CC(C)=CCCC(C)(C3)C([H])(C1)C(CC3)(C(O2)OCC2)C(=O)C(C)C1
InChI=InChI=1S/C21H34O3/c1-15(2)7-5-10-20(4)11-6-12-21(19-23-13-14-24-19)17(20)9-8-16(3)18(21)22/h7,16-17,19H,5-6,8-14H2,1-4H3/t16?,17-,20+,21+/m0/s1
computed SMILES=O=C1C(C)CCC2C(C)(CCC=C(C)C)CCCC12C3OCCO3
accession=JP005226
date=2016.01.19 (Created 2008.10.21, modified 2011.05.06)
author=HISAHIRO HAGIWARA, CHEMICAL RESEARCH INSTITUTE OF NON-AQUEOUSSOLUTIONS TOHOKU UNIV.
license=CC BY-NC-SA
exact mass=334.25079
ionization energy=70 eV
ion type=[M]+*
computed spectral entropy=3.9291711598142047
computed normalized entropy=0.7852144926386888
SPLASH=splash10-00kg-9410000000-4b7f8bcb8bbf81a69577
submitter=submitter = University of Tokyo Team (Faculty of Engineering, University of Tokyo)
MoNA Rating=3.75

>  <NUM PEAKS>  (4558) 
149

>  <MASS SPECTRAL PEAKS>  (4558) 
39 9.8
40 2
41 94.2
42 0.54
43 30.3
44 2.5
45 99.99
46 0.16
51 1.4
52 1.8
53 20.3
54 0.38
55 66.6
56 8.1
57 5.9
59 0.13
65 7.2
66 4.2
67 40.8
68 1.13
69 93.3
70 6.6
71 2.7
74 8.61
75 13.6
77 15
78 3.9
79 2.87
80 5.9
81 35.2
82 12.6
83 1.38
84 2
85 1.2
87 1
91 2.02
92 4
93 30.8
94 10.2
95 2.72
96 4.6
97 4.6
98 2
99 0.11
100 17.2
101 2.6
103 1.6
104 0.14
105 17.1
106 3.9
107 19.1
108 0.63
109 15.1
110 3.6
111 4.4
112 0.21
113 8.4
114 5.7
115 2.3
116 0.02
117 3.4
118 1.7
119 10
120 0.26
121 10.6
122 3.9
123 7.8
124 0.28
125 9.5
126 3.1
127 4.4
128 0.21
129 2.7
131 4.1
132 1.2
133 0.81
134 4.3
135 10.5
136 6.7
137 0.64
138 2.9
139 3.6
140 1.3
141 0.11
145 3.4
147 6.1
148 2.8
149 1.08
150 3.1
151 4
152 1.1
153 0.36
155 1.8
159 4.6
160 1
161 0.72
162 3
163 4.1
165 1.7
166 0.24
167 2.8
169 1.2
170 1.4
173 0.24
174 2.7
175 8.7
176 4.1
177 0.1
178 29.5
179 8.5
180 1.9
181 0.01
182 1.6
183 1.6
184 1.5
186 0.15
187 1.4
189 4.7
190 1.9
191 0.06
192 1.3
193 1.3
197 5
201 0.12
203 1.7
205 1.7
217 1.5
229 0.12
230 1.2
234 1.6
242 1.1
247 0.01
248 2.4
249 1.6
250 50
251 1.42
252 3
253 1.7
256 1.5
260 0.03
261 2.7
262 2.2
263 1.4
264 0.18
291 1.6
320 3.9
334 37.6
335 1.09
336 2

$$$$

     RDKit          2D

 23 23  0  0  1  0  0  0  0  0999 V2000
    5.1968   -3.0006    0.0000 C   0  0  0  0  0  0  0  0  0  0  0  0
   11.6923   -0.7517    0.0000 C   0  0  0  0  0  0  0  0  0  0  0  0
   -0.0000   -3.0000    0.0000 C   0  0  0  0  0  0  0  0  0  0  0  0
    2.7772    0.4897    0.0000 C   0  0  0  0  0  0  0  0  0  0  0  0
    1.3610    4.7182    0.0000 C   0  0  0  0  0  0  0  0  0  0  0  0
    7.7951   -1.5010    0.0000 C   0  0  0  0  0  0  0  0  0  0  0  0
    6.4962   -0.7508    0.0000 C   0  0  0  0  0  0  0  0  0  0  0  0
    9.0942   -0.7512    0.0000 C   0  0  0  0  0  0  0  0  0  0  0  0
    3.8981   -0.7504    0.0000 C   0  0  0  0  0  0  0  0  0  0  0  0
    2.5989   -1.5002    0.0000 C   0  0  0  0  0  0  0  0  0  0  0  0
   -1.3000    0.7500    0.0000 C   0  0  0  0  0  0  0  0  0  0  0  0
    0.0000    1.5000    0.0000 C   0  0  0  0  0  0  0  0  0  0  0  0
    5.1970   -1.5006    0.0000 C   0  0  0  0  0  0  0  0  0  0  0  0
   10.3931   -1.5015    0.0000 C   0  0  0  0  0  0  0  0  0  0  0  0
    0.0000   -1.5000    0.0000 C   0  0  0  0  0  0  0  0  0  0  0  0
    1.3000   -0.7500    0.0000 C   0  0  0  0  0  0  0  0  0  0  0  0
   -1.3000   -0.7500    0.0000 C   0  0  0  0  0  0  0  0  0  0  0  0
    1.8127    2.1596    0.0000 C   0  0  0  0  0  0  0  0  0  0  0  0
    1.3000    0.7500    0.0000 C   0  0  0  0  0  0  0  0  0  0  0  0
   10.3929   -3.0015    0.0000 O   0  0  0  0  0  0  0  0  0  0  0  0
   -2.5989   -1.5002    0.0000 O   0  0  0  0  0  0  0  0  0  0  0  0
    3.2899    2.4204    0.0000 O   0  0  0  0  0  0  0  0  0  0  0  0
    0.8483    3.3085    0.0000 O   0  0  0  0  0  0  0  0  0  0  0  0
  7  6  1  0
  8  6  1  0
  9 10  2  0
 12 11  1  0
 13  1  1  0
  7 13  2  0
 13  9  1  0
 14  2  1  0
 14  8  1  0
 15  3  1  0
 16 10  1  0
 16 15  2  0
 17 11  1  0
 17 15  1  0
 19  4  1  1
 19 12  1  0
 19 16  1  0
 19 18  1  0
 20 14  2  0
 21 17  2  0
 22 18  2  0
 23  5  1  0
 23 18  1  0
M  END
>  <NAME>  (4559) 
METHYL 2-((1E),(3E)-3-METHYL-7-OXOOCTA-1,3-DIENYL)-1,3-DIMETHYL-4-OXOCYCLOHEX-2-ENYL-1-CARBOXYLATE

>  <SYNONYMS>  (4559) 
TRISPORIC ACID B METHYL ESTER

>  <SPECTRUM TYPE>  (4559) 
MS1

>  <INSTRUMENT TYPE>  (4559) 
EI-B

>  <INSTRUMENT>  (4559) 
JEOL JMS-DX-300

>  <ION MODE>  (4559) 
P

>  <INCHIKEY>  (4559) 
IBEKLXNZXQHTGY-OUOIIHKDSA-N

>  <FORMULA>  (4559) 
C19H26O4

>  <EXACT MASS>  (4559) 
318.183109312

>  <MW>  (4559) 
318

>  <ID>  (4559) 
JP005224

>  <CONTRIBUTOR>  (4559) 
University of Tokyo Team, {Faculty of Engineering, University of Tokyo

>  <COMMENT>  (4559) 
SMILES=CC(=O)CCC=C(C)C=CC(=C(C)1)C(C)(CCC(=O)1)C(=O)OC
InChI=InChI=1S/C19H26O4/c1-13(7-6-8-14(2)20)9-10-16-15(3)17(21)11-12-19(16,4)18(22)23-5/h7,9-10H,6,8,11-12H2,1-5H3/b10-9+,13-7+/t19-/m0/s1
computed SMILES=O=C(OC)C1(C(C=CC(=CCCC(=O)C)C)=C(C(=O)CC1)C)C
accession=JP005224
date=2016.01.19 (Created 2008.10.21, modified 2011.05.06)
author=HISAHIRO HAGIWARA, CHEMICAL RESEARCH INSTITUTE OF NON-AQUEOUSSOLUTIONS TOHOKU UNIV.
license=CC BY-NC-SA
exact mass=318.18311
ionization energy=70 eV
ion type=[M]+*
computed spectral entropy=3.305132847572705
computed normalized entropy=0.8842763500029951
SPLASH=splash10-014l-6923000000-7e4c3e4a77865bfb1a63
submitter=submitter = University of Tokyo Team (Faculty of Engineering, University of Tokyo)
MoNA Rating=3.75

>  <NUM PEAKS>  (4559) 
42

>  <MASS SPECTRAL PEAKS>  (4559) 
32 11.8
42 20.2
43 99.99
55 3.01
69 11
77 13.3
79 14.2
81 0.13
91 23
93 23.8
95 10.5
105 1.69
117 10.7
119 18.1
123 10.8
131 0.15
133 18.4
135 12.9
143 12
145 2.04
147 16.6
149 19.3
157 17.1
158 0.1
159 32.7
160 23.1
161 23.5
163 1.04
173 33.7
175 13.4
183 24.4
185 1.75
187 21.1
197 29.2
200 14.7
201 3.34
215 36.4
243 11.7
260 19.9
275 2.54
318 93.1
319 21.7

$$$$

     RDKit          2D

 23 23  0  0  1  0  0  0  0  0999 V2000
    5.1968   -3.0006    0.0000 C   0  0  0  0  0  0  0  0  0  0  0  0
   11.6923   -0.7517    0.0000 C   0  0  0  0  0  0  0  0  0  0  0  0
   -0.0000   -3.0000    0.0000 C   0  0  0  0  0  0  0  0  0  0  0  0
    2.7772    0.4897    0.0000 C   0  0  0  0  0  0  0  0  0  0  0  0
    1.3610    4.7182    0.0000 C   0  0  0  0  0  0  0  0  0  0  0  0
    7.7951   -1.5010    0.0000 C   0  0  0  0  0  0  0  0  0  0  0  0
    6.4962   -0.7508    0.0000 C   0  0  0  0  0  0  0  0  0  0  0  0
    9.0942   -0.7512    0.0000 C   0  0  0  0  0  0  0  0  0  0  0  0
    3.8981   -0.7504    0.0000 C   0  0  0  0  0  0  0  0  0  0  0  0
    2.5989   -1.5002    0.0000 C   0  0  0  0  0  0  0  0  0  0  0  0
   -1.3000    0.7500    0.0000 C   0  0  0  0  0  0  0  0  0  0  0  0
    0.0000    1.5000    0.0000 C   0  0  0  0  0  0  0  0  0  0  0  0
    5.1970   -1.5006    0.0000 C   0  0  0  0  0  0  0  0  0  0  0  0
   10.3931   -1.5015    0.0000 C   0  0  0  0  0  0  0  0  0  0  0  0
    0.0000   -1.5000    0.0000 C   0  0  0  0  0  0  0  0  0  0  0  0
    1.3000   -0.7500    0.0000 C   0  0  0  0  0  0  0  0  0  0  0  0
   -1.3000   -0.7500    0.0000 C   0  0  0  0  0  0  0  0  0  0  0  0
    1.8127    2.1596    0.0000 C   0  0  0  0  0  0  0  0  0  0  0  0
    1.3000    0.7500    0.0000 C   0  0  0  0  0  0  0  0  0  0  0  0
   10.3929   -3.0015    0.0000 O   0  0  0  0  0  0  0  0  0  0  0  0
   -2.5989   -1.5002    0.0000 O   0  0  0  0  0  0  0  0  0  0  0  0
    3.2899    2.4204    0.0000 O   0  0  0  0  0  0  0  0  0  0  0  0
    0.8483    3.3085    0.0000 O   0  0  0  0  0  0  0  0  0  0  0  0
  7  6  1  0
  8  6  1  0
  9 10  2  0
 12 11  1  0
 13  1  1  0
  7 13  2  0
 13  9  1  0
 14  2  1  0
 14  8  1  0
 15  3  1  0
 16 10  1  0
 16 15  2  0
 17 11  1  0
 17 15  1  0
 19  4  1  1
 19 12  1  0
 19 16  1  0
 19 18  1  0
 20 14  2  0
 21 17  2  0
 22 18  2  0
 23  5  1  0
 23 18  1  0
M  END
>  <NAME>  (4560) 
METHYL 2-((1E),(3Z)-3-METHYL-7-OXOOCTA-1,3-DIENYL)-1,3-DIMETHYL-4-OXOCYCLOHEX-2-ENYL-1-CARBOXYLATE

>  <SYNONYMS>  (4560) 
9E-TRISPORIC ACID B METHYL ESTER

>  <SPECTRUM TYPE>  (4560) 
MS1

>  <INSTRUMENT TYPE>  (4560) 
EI-B

>  <INSTRUMENT>  (4560) 
JEOL JMS-DX-300

>  <ION MODE>  (4560) 
P

>  <INCHIKEY>  (4560) 
IBEKLXNZXQHTGY-OUOIIHKDSA-N

>  <FORMULA>  (4560) 
C19H26O4

>  <EXACT MASS>  (4560) 
318.183109312

>  <MW>  (4560) 
318

>  <ID>  (4560) 
JP005223

>  <CONTRIBUTOR>  (4560) 
University of Tokyo Team, {Faculty of Engineering, University of Tokyo

>  <COMMENT>  (4560) 
SMILES=CC(=O)CCC=C(C)C=CC(=C(C)1)C(C)(CCC(=O)1)C(=O)OC
InChI=InChI=1S/C19H26O4/c1-13(7-6-8-14(2)20)9-10-16-15(3)17(21)11-12-19(16,4)18(22)23-5/h7,9-10H,6,8,11-12H2,1-5H3/b10-9+,13-7+/t19-/m0/s1
computed SMILES=O=C(OC)C1(C(C=CC(=CCCC(=O)C)C)=C(C(=O)CC1)C)C
accession=JP005223
date=2016.01.19 (Created 2008.10.21, modified 2011.05.06)
author=HISAHIRO HAGIWARA, CHEMICAL RESEARCH INSTITUTE OF NON-AQUEOUSSOLUTIONS TOHOKU UNIV.
license=CC BY-NC-SA
exact mass=318.18311
ionization energy=70 eV
ion type=[M]+*
computed spectral entropy=3.470384376976087
computed normalized entropy=0.9013639828859293
SPLASH=splash10-02td-4921000000-7d300ca2ef5ac45c51c1
submitter=submitter = University of Tokyo Team (Faculty of Engineering, University of Tokyo)
MoNA Rating=3.75

>  <NUM PEAKS>  (4560) 
47

>  <MASS SPECTRAL PEAKS>  (4560) 
41 17.1
43 99.99
55 31.7
77 1.65
79 20.3
81 12.8
91 25.9
93 2.92
95 10.5
105 21
107 12.3
115 1.15
117 14.6
119 17.9
123 12.2
128 0.1
129 12.6
131 20.7
133 22.5
135 1.37
136 13.3
143 14.2
145 26.4
147 0.21
149 15
157 20
158 11.7
159 3.95
160 29.3
161 27.6
163 11.6
171 1.17
172 10.6
173 37.2
175 13.5
183 0.3
185 21.4
187 23.3
197 36.8
200 1.77
201 38.4
215 39.4
243 12.9
260 2.62
275 20.3
318 64.4
319 14.2

$$$$

     RDKit          2D

 17 18  0  0  0  0  0  0  0  0999 V2000
    4.4175   -2.1516    0.0000 C   0  0  0  0  0  0  0  0  0  0  0  0
    2.3846   -3.7694    0.0000 C   0  0  0  0  0  0  0  0  0  0  0  0
   -2.5193   -2.4880    0.0000 C   0  0  0  0  0  0  0  0  0  0  0  0
   -2.9400    0.1500    0.0000 C   0  0  0  0  0  0  0  0  0  0  0  0
    2.0000    1.5100    0.0000 C   0  0  0  0  0  0  0  0  0  0  0  0
    2.6500    0.1500    0.0000 C   0  0  0  0  0  0  0  0  0  0  0  0
   -2.0600    1.3700    0.0000 C   0  0  0  0  0  0  0  0  0  0  0  0
    0.2089    3.3030    0.0000 C   0  0  0  0  0  0  0  0  0  0  0  0
    1.3103    4.3213    0.0000 C   0  0  0  0  0  0  0  0  0  0  0  0
    0.5400   -1.5300    0.0000 C   0  0  0  0  0  0  0  0  0  0  0  0
    2.9340   -2.3737    0.0000 C   0  0  0  0  0  0  0  0  0  0  0  0
   -2.0600   -1.0600    0.0000 C   0  0  0  0  0  0  0  0  0  0  0  0
    0.5400    1.8400    0.0000 C   0  0  0  0  0  0  0  0  0  0  0  0
    2.0000   -1.2000    0.0000 C   0  0  0  0  0  0  0  0  0  0  0  0
   -0.6400    0.9100    0.0000 C   0  0  0  0  0  0  0  0  0  0  0  0
   -0.6400   -0.5900    0.0000 C   0  0  0  0  0  0  0  0  0  0  0  0
    0.9792    5.7843    0.0000 O   0  0  0  0  0  0  0  0  0  0  0  0
  6  5  2  0
  7  4  2  0
  9  8  1  0
 11  1  1  0
 11  2  1  0
 12  3  1  0
 12  4  1  0
 13  5  1  0
 13  8  1  0
 14  6  1  0
 14 10  2  0
 14 11  1  0
 15  7  1  0
 15 13  2  0
 16 10  1  0
 16 12  2  0
 16 15  1  0
 17  9  1  0
M  END
>  <NAME>  (4561) 
4-(2-HYDROXYETHYL)-7-ISOPROPYL-1-METHYLAZULENE

>  <SYNONYMS>  (4561) 


>  <SPECTRUM TYPE>  (4561) 
MS1

>  <INSTRUMENT TYPE>  (4561) 
EI-B

>  <INSTRUMENT>  (4561) 
JEOL JMS-HX-100

>  <ION MODE>  (4561) 
P

>  <INCHIKEY>  (4561) 
IKCSTPCYLTYEQG-UHFFFAOYSA-N

>  <FORMULA>  (4561) 
C16H20O

>  <EXACT MASS>  (4561) 
228.15141526

>  <MW>  (4561) 
228

>  <ID>  (4561) 
JP005157

>  <CONTRIBUTOR>  (4561) 
University of Tokyo Team, {Faculty of Engineering, University of Tokyo

>  <COMMENT>  (4561) 
SMILES=OCCC(C=2)=C(C=1)C(C=C(C(C)C)C2)=C(C)C1
InChI=InChI=1S/C16H20O/c1-11(2)14-6-5-13(8-9-17)15-7-4-12(3)16(15)10-14/h4-7,10-11,17H,8-9H2,1-3H3
computed SMILES=OCCC1=CC=C(C=C2C1=CC=C2C)C(C)C
accession=JP005157
date=2016.01.19 (Created 2008.10.21, modified 2011.05.06)
author=HAYASHI A, FAC. OF SCIENCE AND TECHNOLOGY, KINKI UNIV.
license=CC BY-NC-SA
exact mass=228.15142
ionization energy=70 eV
ion type=[M]+*
computed spectral entropy=4.168650655879553
computed normalized entropy=0.8399720254110067
SPLASH=splash10-00or-2930000000-6057264564613cf50298
submitter=submitter = University of Tokyo Team (Faculty of Engineering, University of Tokyo)
MoNA Rating=3.75

>  <NUM PEAKS>  (4561) 
143

>  <MASS SPECTRAL PEAKS>  (4561) 
35 0.79
39 5.78
40 0.77
41 10.66
42 2.23
43 20.66
44 4.5
45 2.49
50 1.25
51 4.67
52 1.06
53 2.98
54 0.58
55 6.42
56 3.75
57 6.7
58 0.64
60 1.33
61 2.16
62 1
63 4.49
64 1.64
65 2.9
67 1.51
68 0.61
69 3.4
70 2.26
71 3.73
73 1.21
74 2.44
75 2.29
76 4.51
77 6.48
78 1.68
79 1.58
81 1.83
82 2.53
83 3.37
84 1.25
85 1.47
86 0.82
87 1.48
88 1.41
89 4.4
90 1.5
91 5.27
92 0.78
93 1.02
95 1.31
96 0.75
97 1.56
98 0.77
99 0.83
101 1.15
102 1.84
103 1.32
104 0.76
105 2.77
107 0.72
109 0.79
111 0.99
112 0.72
113 1.28
114 3.7
115 12.24
116 2.32
117 1.34
118 4.55
119 1
123 0.58
125 0.66
126 1.91
127 6.01
128 15.3
129 10.37
130 1.77
131 1.09
133 0.53
137 0.57
138 0.55
139 5.6
140 1.68
141 18.38
142 12.58
143 34.72
144 5.1
145 1.16
149 6.2
150 2.5
151 5.55
152 21.7
153 20.56
154 12.03
155 16.86
156 4.74
157 19.6
158 4.08
159 0.78
163 1.94
164 2.46
165 28.81
166 11.67
167 26.25
168 12.03
169 23.24
170 7.57
171 3.42
172 0.67
176 1.5
177 1.56
178 6.43
179 7
180 4.7
181 11.32
182 12.35
183 12.18
184 5.95
185 27.87
186 4.66
187 0.76
189 0.71
191 0.64
193 1.02
194 0.84
195 5.08
196 1.92
197 5.91
198 3.87
199 3.83
200 0.87
209 1.34
210 1.07
211 4.81
212 1.86
213 48.04
214 8.82
215 0.95
226 1.11
227 5.64
228 99.99
229 20.83
230 2.23
231 0.27

$$$$

     RDKit          2D

 28 28  0  0  0  0  0  0  0  0999 V2000
    7.2459   -2.0500    0.0000 C   0  0  0  0  0  0  0  0  0  0  0  0
    7.7953   -0.0010    0.0000 C   0  0  0  0  0  0  0  0  0  0  0  0
    5.7464    0.5483    0.0000 C   0  0  0  0  0  0  0  0  0  0  0  0
   -0.5490    5.0490    0.0000 C   0  0  0  0  0  0  0  0  0  0  0  0
   -2.5981    4.5000    0.0000 C   0  0  0  0  0  0  0  0  0  0  0  0
   -2.0490    2.4510    0.0000 C   0  0  0  0  0  0  0  0  0  0  0  0
   -3.1483    0.5487    0.0000 C   0  0  0  0  0  0  0  0  0  0  0  0
   -5.1972   -0.0006    0.0000 C   0  0  0  0  0  0  0  0  0  0  0  0
   -4.6479   -2.0496    0.0000 C   0  0  0  0  0  0  0  0  0  0  0  0
    3.1474   -5.0493    0.0000 C   0  0  0  0  0  0  0  0  0  0  0  0
    5.1965   -4.5006    0.0000 C   0  0  0  0  0  0  0  0  0  0  0  0
    4.6478   -2.4515    0.0000 C   0  0  0  0  0  0  0  0  0  0  0  0
    1.3000    0.7500    0.0000 C   0  0  0  0  0  0  0  0  0  0  0  0
   -0.0000   -1.5000    0.0000 C   0  0  0  0  0  0  0  0  0  0  0  0
   -1.3000    0.7500    0.0000 C   0  0  0  0  0  0  0  0  0  0  0  0
    3.8981   -0.7504    0.0000 C   0  0  0  0  0  0  0  0  0  0  0  0
    1.3000   -0.7500    0.0000 C   0  0  0  0  0  0  0  0  0  0  0  0
    0.0000    1.5000    0.0000 C   0  0  0  0  0  0  0  0  0  0  0  0
   -1.3000   -0.7500    0.0000 C   0  0  0  0  0  0  0  0  0  0  0  0
    2.5989   -1.5002    0.0000 C   0  0  0  0  0  0  0  0  0  0  0  0
    6.4962   -0.7508    0.0000 C   0  0  0  0  0  0  0  0  0  0  0  0
    5.1970   -1.5006    0.0000 N   0  0  0  0  0  0  0  0  0  0  0  0
    0.0000    3.0000    0.0000 O   0  0  0  0  0  0  0  0  0  0  0  0
   -2.5989   -1.5002    0.0000 O   0  0  0  0  0  0  0  0  0  0  0  0
    2.5987   -3.0002    0.0000 O   0  0  0  0  0  0  0  0  0  0  0  0
   -1.2990    3.7500    0.0000 Si  0  0  0  0  0  4  0  0  0  0  0  0
   -3.8981   -0.7504    0.0000 Si  0  0  0  0  0  4  0  0  0  0  0  0
    3.8976   -3.7504    0.0000 Si  0  0  0  0  0  4  0  0  0  0  0  0
 17 13  2  0
 17 14  1  0
 18 13  1  0
 18 15  2  0
 19 14  2  0
 19 15  1  0
 20 16  1  0
 20 17  1  0
 21  1  1  0
 21  2  1  0
 21  3  1  0
 22 16  1  0
 22 21  1  0
 23 18  1  0
 24 19  1  0
 25 20  1  0
 26  4  1  0
 26  5  1  0
 26  6  1  0
 26 23  1  0
 27  7  1  0
 27  8  1  0
 27  9  1  0
 27 24  1  0
 28 10  1  0
 28 11  1  0
 28 12  1  0
 28 25  1  0
M  END
>  <NAME>  (4562) 
(TERT-BUTYL)(2-(3,5-DITRIMETHYLSILYLOXYPHENYL)-2-TRIMETHYLSILYLOXYETHYL)AMINE

>  <SYNONYMS>  (4562) 
TRI-TMS-TERBUTALINE

>  <SPECTRUM TYPE>  (4562) 
MS1

>  <INSTRUMENT TYPE>  (4562) 
EI-B

>  <INSTRUMENT>  (4562) 
JEOL JMS-HX-100

>  <ION MODE>  (4562) 
P

>  <INCHIKEY>  (4562) 
HCOIHNBLVDOGQK-UHFFFAOYSA-N

>  <FORMULA>  (4562) 
C21H43NO3Si3

>  <EXACT MASS>  (4562) 
441.255073826

>  <MW>  (4562) 
441

>  <ID>  (4562) 
JP005155

>  <CONTRIBUTOR>  (4562) 
University of Tokyo Team, {Faculty of Engineering, University of Tokyo

>  <COMMENT>  (4562) 
SMILES=CC(C)(C)NCC(O[Si](C)(C)C)c(c1)cc(O[Si](C)(C)C)cc(O[Si](C)(C)C)1
InChI=InChI=1S/C21H43NO3Si3/c1-21(2,3)22-16-20(25-28(10,11)12)17-13-18(23-26(4,5)6)15-19(14-17)24-27(7,8)9/h13-15,20,22H,16H2,1-12H3
computed SMILES=O(C=1C=C(O[Si](C)(C)C)C=C(C1)C(O[Si](C)(C)C)CNC(C)(C)C)[Si](C)(C)C
accession=JP005155
date=2016.01.19 (Created 2008.10.21, modified 2011.05.06)
author=HAYASHI A, FAC. OF SCIENCE AND TECHNOLOGY, KINKI UNIV.
license=CC BY-NC-SA
exact mass=441.25507
ionization energy=70 eV
ion type=[M]+*
computed spectral entropy=2.91227003663192
computed normalized entropy=0.668456431788852
SPLASH=splash10-0a4i-2019000000-101504a804493824ce50
submitter=submitter = University of Tokyo Team (Faculty of Engineering, University of Tokyo)
MoNA Rating=3.75

>  <NUM PEAKS>  (4562) 
78

>  <MASS SPECTRAL PEAKS>  (4562) 
40 0.55
41 1.17
43 0.57
44 0.54
45 0.66
57 2.29
59 0.84
73 16.15
74 2.06
82 0.51
86 36.38
87 2.59
133 0.67
147 4.02
148 0.7
177 0.55
179 0.86
191 0.55
195 0.71
206 0.85
207 0.92
221 2.28
222 0.53
223 0.59
235 0.58
237 0.93
239 1.18
240 0.53
250 0.53
251 1.6
252 0.58
263 0.62
264 0.75
265 2.01
266 0.64
267 1.56
269 0.89
278 0.72
279 0.85
280 3.33
281 4.33
282 1.24
283 1.3
284 0.84
294 1.87
295 0.52
296 0.84
325 0.98
327 0.62
328 0.52
336 5.89
337 1.86
338 1.27
339 1.36
340 1.84
341 0.87
342 0.75
343 0.67
350 0.69
351 0.51
352 0.75
353 1.04
354 0.95
355 17.47
356 99.99
357 36.91
358 17.12
359 3.61
360 1.14
370 4.61
371 1.73
372 0.98
376 0.51
399 0.67
415 0.65
426 9.74
427 3.86
428 1.5

$$$$

     RDKit          2D

 38 40  0  0  0  0  0  0  0  0999 V2000
    3.3628   -4.7521    0.0000 C   0  0  0  0  0  0  0  0  0  0  0  0
   -3.0989   -4.3922    0.0000 C   0  0  0  0  0  0  0  0  0  0  0  0
    1.1212   -6.1998    0.0000 C   0  0  0  0  0  0  0  0  0  0  0  0
   -6.9965    0.8570    0.0000 C   0  0  0  0  0  0  0  0  0  0  0  0
    6.1024    1.9937    0.0000 C   0  0  0  0  0  0  0  0  0  0  0  0
   -0.3416   -5.8859    0.0000 C   0  0  0  0  0  0  0  0  0  0  0  0
   -5.6975    0.1070    0.0000 C   0  0  0  0  0  0  0  0  0  0  0  0
    4.6745    1.5344    0.0000 C   0  0  0  0  0  0  0  0  0  0  0  0
   -5.6965    3.1086    0.0000 C   0  0  0  0  0  0  0  0  0  0  0  0
    6.8986   -0.4814    0.0000 C   0  0  0  0  0  0  0  0  0  0  0  0
   -1.7999   -2.1422    0.0000 C   0  0  0  0  0  0  0  0  0  0  0  0
    1.1865   -2.3178    0.0000 C   0  0  0  0  0  0  0  0  0  0  0  0
    1.8706   -4.9049    0.0000 C   0  0  0  0  0  0  0  0  0  0  0  0
   -1.7999   -3.6422    0.0000 C   0  0  0  0  0  0  0  0  0  0  0  0
   -6.9960    2.3578    0.0000 C   0  0  0  0  0  0  0  0  0  0  0  0
    7.2145    0.9858    0.0000 C   0  0  0  0  0  0  0  0  0  0  0  0
   -0.5008   -4.3922    0.0000 C   0  0  0  0  0  0  0  0  0  0  0  0
    0.8704   -3.7841    0.0000 C   0  0  0  0  0  0  0  0  0  0  0  0
   -4.3980    0.8578    0.0000 C   0  0  0  0  0  0  0  0  0  0  0  0
    4.3586    0.0672    0.0000 C   0  0  0  0  0  0  0  0  0  0  0  0
   -4.3975    2.3586    0.0000 C   0  0  0  0  0  0  0  0  0  0  0  0
    5.4707   -0.9407    0.0000 C   0  0  0  0  0  0  0  0  0  0  0  0
   -3.0989   -1.3922    0.0000 N   0  0  0  0  0  0  0  0  0  0  0  0
    2.6145   -1.8585    0.0000 N   0  0  0  0  0  0  0  0  0  0  0  0
   -3.0989    0.1078    0.0000 N   0  0  0  0  0  0  0  0  0  0  0  0
    2.9307   -0.3922    0.0000 N   0  0  0  0  0  0  0  0  0  0  0  0
   -8.2951    3.1078    0.0000 N   0  0  0  0  0  0  0  0  0  0  0  0
    8.6424    1.4452    0.0000 N   0  0  0  0  0  0  0  0  0  0  0  0
   -3.0983    3.1084    0.0000 N   0  0  0  0  0  0  0  0  0  0  0  0
    5.1542   -2.4070    0.0000 N   0  0  0  0  0  0  0  0  0  0  0  0
   -8.2951    4.6078    0.0000 O   0  0  0  0  0  0  0  0  0  0  0  0
   -9.5941    2.3578    0.0000 O   0  0  0  0  0  0  0  0  0  0  0  0
    8.9586    2.9115    0.0000 O   0  0  0  0  0  0  0  0  0  0  0  0
    9.7542    0.4382    0.0000 O   0  0  0  0  0  0  0  0  0  0  0  0
   -3.0981    4.6084    0.0000 O   0  0  0  0  0  0  0  0  0  0  0  0
   -1.7994    2.3582    0.0000 O   0  0  0  0  0  0  0  0  0  0  0  0
    6.2659   -3.4141    0.0000 O   0  0  0  0  0  0  0  0  0  0  0  0
    3.7262   -2.8661    0.0000 O   0  0  0  0  0  0  0  0  0  0  0  0
  6  3  1  0
  7  4  2  0
  8  5  2  0
 13  1  1  0
 13  3  1  0
 14  2  1  0
 14 11  1  0
 15  4  1  0
 15  9  2  0
 16  5  1  0
 16 10  2  0
 17  6  1  0
 17 14  1  0
 18 12  1  0
 18 13  1  0
 18 17  1  0
 19  7  1  0
 20  8  1  0
 21  9  1  0
 21 19  2  0
 22 10  1  0
 22 20  2  0
 11 23  2  0
 12 24  2  0
 25 19  1  0
 25 23  1  0
 26 20  1  0
 26 24  1  0
 27 15  1  0
 28 16  1  0
 29 21  1  0
 30 22  1  0
 31 27  1  0
 32 27  2  0
 33 28  1  0
 34 28  2  0
 35 29  1  0
 36 29  2  0
 37 30  1  0
 38 30  2  0
M  CHG  8  27   1  28   1  29   1  30   1  31  -1  33  -1  35  -1  37  -1
M  END
>  <NAME>  (4563) 
2-(1-(2,4-DINITROPHENYLHYDRAZONOMETHYL)ETHYL)-5-METHYLCYCLOPENTANECARBALDEHYDE 2,4-DINITROPHENYLHYDRAZONE

>  <SYNONYMS>  (4563) 
IRIDODIAL BIS-2,4-DINITROPHENYLHYDRAZONE

>  <SPECTRUM TYPE>  (4563) 
MS1

>  <INSTRUMENT TYPE>  (4563) 
EI-B

>  <INSTRUMENT>  (4563) 
JEOL JMS-HX-100

>  <ION MODE>  (4563) 
P

>  <INCHIKEY>  (4563) 
SCNCMQWVAQHERI-ASIDMNOUSA-N

>  <FORMULA>  (4563) 
C22H24N8O8

>  <EXACT MASS>  (4563) 
528.171709728

>  <MW>  (4563) 
528

>  <ID>  (4563) 
JP005154

>  <CONTRIBUTOR>  (4563) 
University of Tokyo Team, {Faculty of Engineering, University of Tokyo

>  <COMMENT>  (4563) 
SMILES=[O-1][N+1](=O)c(c1)cc([N+1]([O-1])=O)c(NN=CC(C)C(C2)C(C=NNc(c3)c([N+1]([O-1])=O)cc([N+1]([O-1])=O)c3)C(C)C2)c1
InChI=InChI=1S/C22H24N8O8/c1-13-3-6-17(14(2)11-23-25-19-7-4-15(27(31)32)9-21(19)29(35)36)18(13)12-24-26-20-8-5-16(28(33)34)10-22(20)30(37)38/h4-5,7-14,17-18,25-26H,3,6H2,1-2H3/b23-11+,24-12+
computed SMILES=O=N(=O)C1=CC=C(NN=CC(C)C2CCC(C)C2C=NNC3=CC=C(C=C3N(=O)=O)N(=O)=O)C(=C1)N(=O)=O
license=CC BY-NC-SA
accession=JP005154
date=2016.01.19 (Created 2008.10.21, modified 2011.05.06)
author=HAYASHI A, FAC. OF SCIENCE AND TECHNOLOGY, KINKI UNIV.
exact mass=528.17171
ionization energy=70 eV
ion type=[M]+*
computed spectral entropy=4.625276439858393
computed normalized entropy=0.8634746464793198
SPLASH=splash10-001i-9512000000-74fe984a2b839a918ce4
submitter=submitter = University of Tokyo Team (Faculty of Engineering, University of Tokyo)
MoNA Rating=3.75

>  <NUM PEAKS>  (4563) 
212

>  <MASS SPECTRAL PEAKS>  (4563) 
35 0.57
37 0.87
38 2.97
39 12.22
40 2.72
41 36.47
42 6.04
43 11.05
44 15.06
45 2.01
46 0.83
50 2.32
51 7.06
52 5.77
53 11.78
54 4.58
55 24.45
56 6.18
57 7.48
58 1.09
60 1.41
61 1.43
62 2.92
63 7.92
64 5.85
65 6.46
66 4.2
67 20.04
68 7.47
69 7.92
70 4.58
71 3.04
73 1.3
74 1.34
75 7.29
76 4.95
77 16.22
78 9.54
79 21.44
80 9.45
81 37.06
82 6.32
83 3.56
84 1.35
85 1.65
87 0.61
88 0.81
89 2.23
90 4.67
91 14.52
92 6.49
93 19.37
94 15.35
95 12.29
96 3.22
97 2.24
98 1.19
99 0.56
101 0.58
102 1.16
103 2.75
104 2.56
105 6.54
106 7.81
107 16.33
108 8.66
109 8.47
110 2.03
111 1.26
115 2.8
116 2.29
117 5.5
118 4.61
119 4.67
120 3.79
121 7.76
122 5.03
123 8.18
124 1.43
125 0.65
127 1.03
128 1.91
129 2.7
130 3.65
131 4.54
132 4.49
133 5.41
134 7.96
135 8.11
136 3.97
137 3.37
138 2.06
139 0.65
140 0.62
141 1.02
142 1.11
143 1.94
144 2.27
145 2.06
146 4.14
147 3.13
148 15.35
149 7.94
150 7.88
151 3.42
152 3.58
153 4.71
154 1.45
155 1.58
156 2.1
157 2.52
158 1.37
159 1.46
160 0.65
161 0.9
162 0.75
163 1.34
164 3.32
165 4.34
166 1.55
167 4.1
168 2.98
169 2.01
170 1.5
171 1.37
176 1.32
177 2.35
178 1.57
179 0.99
180 1.33
181 2.8
182 1.8
183 5.02
184 3.04
185 1.08
189 1.14
190 1.1
191 1.38
193 1.45
194 1.28
195 6.17
196 1.82
197 1.23
202 1.55
203 4
204 1.35
205 1.16
209 1
210 1.61
215 1.42
216 1.13
217 1.33
220 1.25
228 1.45
229 1.77
230 0.9
231 1.06
237 1.55
238 0.99
241 1.37
242 1.29
243 1.19
249 1.64
255 1.67
256 1.01
257 1.09
268 0.99
269 1.37
270 0.82
271 1.55
272 0.63
275 1.09
282 1.13
283 1.71
284 1.3
285 2.16
286 0.89
287 0.7
288 1.08
289 1.02
290 0.64
291 2.15
295 1.52
296 1.04
297 1.73
298 1.73
299 3.6
300 1.32
301 1.26
302 0.56
313 1.5
314 0.95
315 5.05
316 1.18
317 0.67
328 0.59
329 4.11
330 2.29
331 99.99
332 21.27
333 3.29
334 0.39
345 0.59
346 0.62
477 0.38
493 1.11
494 0.57
496 0.66
511 0.49
526 1.33
528 4.72
529 1.24

$$$$

     RDKit          2D

 16 17  0  0  0  0  0  0  0  0999 V2000
   -3.8987   -3.0002    0.0000 C   0  0  0  0  0  0  0  0  0  0  0  0
   -5.1981   -0.7504    0.0000 C   0  0  0  0  0  0  0  0  0  0  0  0
    1.3000   -3.0000    0.0000 C   0  0  0  0  0  0  0  0  0  0  0  0
    0.0000    2.2500    0.0000 C   0  0  0  0  0  0  0  0  0  0  0  0
   -2.6000    0.7500    0.0000 C   0  0  0  0  0  0  0  0  0  0  0  0
    2.6000    0.7500    0.0000 C   0  0  0  0  0  0  0  0  0  0  0  0
   -1.3000    1.5000    0.0000 C   0  0  0  0  0  0  0  0  0  0  0  0
    1.3000    1.5000    0.0000 C   0  0  0  0  0  0  0  0  0  0  0  0
   -1.3000   -1.5000    0.0000 C   0  0  0  0  0  0  0  0  0  0  0  0
   -3.8989   -1.5002    0.0000 C   0  0  0  0  0  0  0  0  0  0  0  0
    1.3000   -1.5000    0.0000 C   0  0  0  0  0  0  0  0  0  0  0  0
   -2.6000   -0.7500    0.0000 C   0  0  0  0  0  0  0  0  0  0  0  0
    0.0000   -0.7500    0.0000 C   0  0  0  0  0  0  0  0  0  0  0  0
    2.6000   -0.7500    0.0000 C   0  0  0  0  0  0  0  0  0  0  0  0
    0.0000    0.7500    0.0000 C   0  0  0  0  0  0  0  0  0  0  0  0
    3.8989   -1.5002    0.0000 O   0  0  0  0  0  0  0  0  0  0  0  0
  7  5  1  0
  8  6  1  0
 10  1  2  0
 10  2  1  0
 11  3  1  0
 12  5  1  0
 12  9  1  0
 12 10  1  0
 13  9  1  0
 13 11  2  0
 14  6  1  0
 14 11  1  0
 15  4  1  0
 15  7  1  0
 15  8  1  0
 15 13  1  0
 16 14  2  0
M  END
>  <NAME>  (4564) 
7-ISOPROPENYL-1,4A-DIMETHYL-3,4,5,6,7,8-HEXAHYDRO-2-NAPHTHALENONE

>  <SYNONYMS>  (4564) 


>  <SPECTRUM TYPE>  (4564) 
MS1

>  <INSTRUMENT TYPE>  (4564) 
EI-B

>  <INSTRUMENT>  (4564) 
JEOL JMS-HX-100

>  <ION MODE>  (4564) 
P

>  <INCHIKEY>  (4564) 
KUFXJZXMWHNCEH-UHFFFAOYSA-N

>  <FORMULA>  (4564) 
C15H22O

>  <EXACT MASS>  (4564) 
218.167065324

>  <MW>  (4564) 
218

>  <ID>  (4564) 
JP005153

>  <CONTRIBUTOR>  (4564) 
University of Tokyo Team, {Faculty of Engineering, University of Tokyo

>  <COMMENT>  (4564) 
SMILES=CC(=C)C(C1)CC(=C(C)2)C(C)(CCC(=O)2)C1
InChI=InChI=1S/C15H22O/c1-10(2)12-5-7-15(4)8-6-14(16)11(3)13(15)9-12/h12H,1,5-9H2,2-4H3
computed SMILES=O=C1C(=C2CC(C(=C)C)CCC2(C)CC1)C
accession=JP005153
date=2016.01.19 (Created 2008.10.21, modified 2011.05.06)
author=HAYASHI A, FAC. OF SCIENCE AND TECHNOLOGY, KINKI UNIV.
license=CC BY-NC-SA
exact mass=218.16707
ionization energy=70 eV
ion type=[M]+*
computed spectral entropy=4.214876724812701
computed normalized entropy=0.8834951493539113
SPLASH=splash10-0006-7910000000-df760ddca07d59ed812c
submitter=submitter = University of Tokyo Team (Faculty of Engineering, University of Tokyo)
MoNA Rating=3.75

>  <NUM PEAKS>  (4564) 
118

>  <MASS SPECTRAL PEAKS>  (4564) 
38 1.25
39 44.3
40 8.54
41 90.25
42 6.24
43 14.28
45 0.96
50 2.47
51 14.55
52 9.08
53 52.28
54 7.39
55 54.28
56 3.6
57 2.56
58 1.31
59 0.87
63 5.4
64 3.64
65 27.42
66 10.44
67 50.1
68 9.41
69 19.71
70 2.1
71 2.22
72 0.86
73 0.97
74 1.48
75 1.22
76 1.15
77 54.15
78 13.76
79 61.23
80 17.83
81 42.27
82 17.83
83 7.28
86 1.3
89 1.92
91 72.58
92 13.04
93 70.3
94 17.17
95 37.83
96 10.13
97 9.42
103 7.16
104 4.13
105 52.74
106 17.24
107 54.62
108 36.98
109 47.63
110 20.03
111 16.25
112 1.87
115 9.29
116 4.21
117 12.94
118 5.47
119 50.96
120 23.52
121 55.64
122 29.53
123 15.76
124 20.83
125 2.48
127 1.68
128 5.07
129 5.81
130 2.55
131 12.55
132 12.86
133 48.68
134 24.9
135 27.53
136 57.62
137 46.69
138 10.33
141 1.58
142 1.65
143 6.91
144 2.65
145 9.48
146 7.11
147 67.17
148 21.06
149 11.65
150 19.86
151 3.29
157 13.16
158 2.94
159 6.95
160 5.43
161 58.83
162 28.66
163 10.19
164 2.15
171 2.24
172 3.05
173 1.75
174 1.91
175 49.3
176 21.78
177 7.29
185 10.84
186 1.91
189 8.32
190 10.55
191 1.7
200 2.75
201 3.54
203 42.41
204 7.03
218 99.99
219 18.38
220 1.71

$$$$

     RDKit          2D

 15 16  0  0  0  0  0  0  0  0999 V2000
    3.6987   -2.8302    0.0000 C   0  0  0  0  0  0  0  0  0  0  0  0
    4.9981   -0.5804    0.0000 C   0  0  0  0  0  0  0  0  0  0  0  0
   -1.5000   -2.8300    0.0000 C   0  0  0  0  0  0  0  0  0  0  0  0
   -0.2000    2.4200    0.0000 C   0  0  0  0  0  0  0  0  0  0  0  0
   -2.8000    0.9200    0.0000 C   0  0  0  0  0  0  0  0  0  0  0  0
   -2.8000   -0.5800    0.0000 C   0  0  0  0  0  0  0  0  0  0  0  0
    2.4000    0.9200    0.0000 C   0  0  0  0  0  0  0  0  0  0  0  0
   -1.5000    1.6700    0.0000 C   0  0  0  0  0  0  0  0  0  0  0  0
    1.1000    1.6700    0.0000 C   0  0  0  0  0  0  0  0  0  0  0  0
    1.1000   -1.3300    0.0000 C   0  0  0  0  0  0  0  0  0  0  0  0
    3.6989   -1.3302    0.0000 C   0  0  0  0  0  0  0  0  0  0  0  0
   -1.5000   -1.3300    0.0000 C   0  0  0  0  0  0  0  0  0  0  0  0
    2.4000   -0.5800    0.0000 C   0  0  0  0  0  0  0  0  0  0  0  0
   -0.2000   -0.5800    0.0000 C   0  0  0  0  0  0  0  0  0  0  0  0
   -0.2000    0.9200    0.0000 C   0  0  0  0  0  0  0  0  0  0  0  0
  6  5  1  0
  8  5  1  0
  9  7  1  0
 11  1  2  0
 11  2  1  0
 12  3  2  0
 12  6  1  0
 13  7  1  0
 13 10  1  0
 13 11  1  0
 14 10  1  0
 14 12  1  0
 15  4  1  0
 15  8  1  0
 15  9  1  0
 15 14  1  0
M  END
>  <NAME>  (4565) 
7-ISOPROPENYL-4A-METHYL-1-DECAHYDRONAPHTHYLIDENE

>  <SYNONYMS>  (4565) 


>  <SPECTRUM TYPE>  (4565) 
MS1

>  <INSTRUMENT TYPE>  (4565) 
EI-B

>  <INSTRUMENT>  (4565) 
JEOL JMS-HX-100

>  <ION MODE>  (4565) 
P

>  <INCHIKEY>  (4565) 
YOVSPTNQHMDJAG-UHFFFAOYSA-N

>  <FORMULA>  (4565) 
C15H24

>  <EXACT MASS>  (4565) 
204.187800768

>  <MW>  (4565) 
204

>  <ID>  (4565) 
JP005152

>  <CONTRIBUTOR>  (4565) 
University of Tokyo Team, {Faculty of Engineering, University of Tokyo

>  <COMMENT>  (4565) 
SMILES=CC(=C)C(C1)CC(C(=C)2)C(C)(CCC2)C1
cas=17066-67-0
InChI=InChI=1S/C15H24/c1-11(2)13-7-9-15(4)8-5-6-12(3)14(15)10-13/h13-14H,1,3,5-10H2,2,4H3
computed SMILES=C=C(C)C1CCC2(C)CCCC(=C)C2C1
accession=JP005152
date=2016.01.19 (Created 2008.10.21, modified 2011.05.06)
author=HAYASHI A, FAC. OF SCIENCE AND TECHNOLOGY, KINKI UNIV.
license=CC BY-NC-SA
exact mass=204.1878
ionization energy=70 eV
ion type=[M]+*
computed spectral entropy=3.7681054014778965
computed normalized entropy=0.928003518751718
SPLASH=splash10-052f-9600000000-77ccff44fcef614446d5
submitter=submitter = University of Tokyo Team (Faculty of Engineering, University of Tokyo)
MoNA Rating=3.75

>  <NUM PEAKS>  (4565) 
58

>  <MASS SPECTRAL PEAKS>  (4565) 
39 40.76
41 99.99
42 7.48
43 25.05
44 1.51
51 8.91
53 44.85
54 8.4
55 58.42
56 6.41
57 24.32
65 18.94
66 8.78
67 70.49
68 28.91
69 29
70 3.77
71 9.56
77 39.58
78 12.43
79 78.15
80 34.43
81 71.29
82 32.27
83 6.98
85 2.37
91 54.08
92 16.25
93 92.63
94 32.8
95 51.89
96 9.91
97 7.86
99 7.72
105 83.62
106 23.37
107 84.93
108 49.6
109 26.73
119 40.39
120 15.75
121 63.2
122 27.01
123 23.76
133 42.42
134 15.96
135 27.07
136 8.64
147 34.89
148 19.96
149 12.79
161 44.49
162 16.15
175 17.49
176 7.79
189 41.27
204 44.86
205 8.54

$$$$

     RDKit          2D

 22 24  0  0  0  0  0  0  0  0999 V2000
    1.3000    6.0000    0.0000 C   0  0  0  0  0  0  0  0  0  0  0  0
    0.0000    5.2500    0.0000 C   0  0  0  0  0  0  0  0  0  0  0  0
    2.6000    5.2500    0.0000 C   0  0  0  0  0  0  0  0  0  0  0  0
   -2.6000    0.7500    0.0000 C   0  0  0  0  0  0  0  0  0  0  0  0
   -2.6000   -0.7500    0.0000 C   0  0  0  0  0  0  0  0  0  0  0  0
    0.0000    3.7500    0.0000 C   0  0  0  0  0  0  0  0  0  0  0  0
    2.6000    3.7500    0.0000 C   0  0  0  0  0  0  0  0  0  0  0  0
   -1.3000    1.5000    0.0000 C   0  0  0  0  0  0  0  0  0  0  0  0
   -1.3000   -1.5000    0.0000 C   0  0  0  0  0  0  0  0  0  0  0  0
    5.1981    0.7504    0.0000 C   0  0  0  0  0  0  0  0  0  0  0  0
    1.3000    3.0000    0.0000 C   0  0  0  0  0  0  0  0  0  0  0  0
   -0.0000    0.7500    0.0000 C   0  0  0  0  0  0  0  0  0  0  0  0
   -0.0000   -0.7500    0.0000 C   0  0  0  0  0  0  0  0  0  0  0  0
    6.4970    1.5006    0.0000 C   0  0  0  0  0  0  0  0  0  0  0  0
    1.3000    1.5000    0.0000 C   0  0  0  0  0  0  0  0  0  0  0  0
    2.6000    0.7500    0.0000 C   0  0  0  0  0  0  0  0  0  0  0  0
    2.6000   -0.7500    0.0000 C   0  0  0  0  0  0  0  0  0  0  0  0
    1.3000   -1.5000    0.0000 N   0  0  0  0  0  0  0  0  0  0  0  0
    6.4968    3.0006    0.0000 O   0  0  0  0  0  0  0  0  0  0  0  0
    7.7962    0.7508    0.0000 O   0  0  0  0  0  0  0  0  0  0  0  0
    3.8989   -1.5002    0.0000 O   0  0  0  0  0  0  0  0  0  0  0  0
    3.8989    1.5002    0.0000 O   0  0  0  0  0  0  0  0  0  0  0  0
  2  1  2  0
  3  1  1  0
  5  4  2  0
  6  2  1  0
  7  3  2  0
  8  4  1  0
  9  5  1  0
 11  6  2  0
 11  7  1  0
 12  8  2  0
 13  9  2  0
 13 12  1  0
 14 10  1  0
 15 11  1  0
 15 12  1  0
 16 15  2  0
 17 16  1  0
 18 13  1  0
 18 17  2  0
 19 14  2  0
 20 14  1  0
 21 17  1  0
 22 10  1  0
 22 16  1  0
M  END
>  <NAME>  (4566) 
2-OXO-4-PHENYL-1,2-DIHYDROQUINOLIN-3-YLOXYACETIC ACID

>  <SYNONYMS>  (4566) 


>  <SPECTRUM TYPE>  (4566) 
MS1

>  <INSTRUMENT TYPE>  (4566) 
EI-B

>  <INSTRUMENT>  (4566) 
JEOL JMS-HX-100

>  <ION MODE>  (4566) 
P

>  <INCHIKEY>  (4566) 
CXHYJXBDMMINFW-UHFFFAOYSA-N

>  <FORMULA>  (4566) 
C17H13NO4

>  <EXACT MASS>  (4566) 
295.084457896

>  <MW>  (4566) 
295

>  <ID>  (4566) 
JP005150

>  <CONTRIBUTOR>  (4566) 
University of Tokyo Team, {Faculty of Engineering, University of Tokyo

>  <COMMENT>  (4566) 
SMILES=OC(=O)COC(C(=O)1)=C(c(c3)cccc3)c(c2)c(ccc2)N1
InChI=InChI=1S/C17H13NO4/c19-14(20)10-22-16-15(11-6-2-1-3-7-11)12-8-4-5-9-13(12)18-17(16)21/h1-9H,10H2,(H,18,21)(H,19,20)
computed SMILES=O=C(O)COC1=C(O)N=C2C=CC=CC2=C1C=3C=CC=CC3
accession=JP005150
date=2016.01.19 (Created 2008.10.21, modified 2011.05.06)
author=HAYASHI A, FAC. OF SCIENCE AND TECHNOLOGY, KINKI UNIV.
license=CC BY-NC-SA
exact mass=295.08446
ionization energy=70 eV
ion type=[M]+*
computed spectral entropy=3.731350991208554
computed normalized entropy=0.8067833351346467
SPLASH=splash10-0udi-0390000000-6af66c7bc8cd5a3a134d
submitter=submitter = University of Tokyo Team (Faculty of Engineering, University of Tokyo)
MoNA Rating=3.75

>  <NUM PEAKS>  (4566) 
102

>  <MASS SPECTRAL PEAKS>  (4566) 
39 1.31
44 0.91
50 0.84
51 1.77
52 0.61
62 0.79
63 2.15
64 0.56
65 0.59
74 0.67
75 1.73
76 3.71
77 6.2
78 0.8
81 1
82 1.87
86 0.61
87 0.92
88 1.94
89 2.72
90 1.85
91 1.18
95 2.04
96 0.68
100 0.55
101 2.84
102 1.91
103 0.78
104 0.75
109 0.64
110 1
113 0.82
114 0.81
115 1.43
116 1.2
124 6.71
125 1.71
126 1.89
127 2.23
128 1.32
139 2
140 1.28
150 1.27
151 4.42
152 8.83
153 4.05
154 1.16
163 3.91
164 4.39
165 9.51
166 2.16
174 0.64
175 0.96
176 1.87
177 3.11
178 4.61
179 7.99
180 13.31
181 3.39
188 0.52
189 0.96
190 8.58
191 5.82
192 2.2
193 3.25
194 2.2
201 1.15
202 8.52
203 2.66
204 5.34
205 1.62
206 1.52
207 2.69
208 20.46
209 3.69
215 1.35
216 0.59
218 0.81
219 2.51
220 32.51
221 9.23
222 7.62
223 1.67
232 8.28
233 15.65
234 4.41
235 2.31
236 14.34
237 8.98
238 1.79
248 6.07
249 5.73
250 99.99
251 27.22
252 3.69
266 0.61
277 6.16
278 1.46
294 1.79
295 26.04
296 5.39
297 0.8

$$$$

     RDKit          2D

 25 28  0  0  0  0  0  0  0  0999 V2000
    0.9449   -4.4487    0.0000 C   0  0  0  0  0  0  0  0  0  0  0  0
   -4.0636    2.7287    0.0000 C   0  0  0  0  0  0  0  0  0  0  0  0
   -5.3779    1.3195    0.0000 C   0  0  0  0  0  0  0  0  0  0  0  0
   -2.6953   -6.0200    0.0000 C   0  0  0  0  0  0  0  0  0  0  0  0
   -3.5420   -4.7914    0.0000 C   0  0  0  0  0  0  0  0  0  0  0  0
    3.8800    1.2400    0.0000 C   0  0  0  0  0  0  0  0  0  0  0  0
    4.2200   -0.2200    0.0000 C   0  0  0  0  0  0  0  0  0  0  0  0
   -1.1997   -5.9050    0.0000 C   0  0  0  0  0  0  0  0  0  0  0  0
   -2.8940   -3.4377    0.0000 C   0  0  0  0  0  0  0  0  0  0  0  0
    2.4500    1.6800    0.0000 C   0  0  0  0  0  0  0  0  0  0  0  0
    3.1200   -1.2400    0.0000 C   0  0  0  0  0  0  0  0  0  0  0  0
   -2.4500    1.6800    0.0000 C   0  0  0  0  0  0  0  0  0  0  0  0
   -4.2200   -0.2200    0.0000 C   0  0  0  0  0  0  0  0  0  0  0  0
   -0.5509   -4.5613    0.0000 C   0  0  0  0  0  0  0  0  0  0  0  0
   -1.3984   -3.3226    0.0000 C   0  0  0  0  0  0  0  0  0  0  0  0
    1.3500    0.6600    0.0000 C   0  0  0  0  0  0  0  0  0  0  0  0
    1.6900   -0.8000    0.0000 C   0  0  0  0  0  0  0  0  0  0  0  0
   -1.3500    0.6600    0.0000 C   0  0  0  0  0  0  0  0  0  0  0  0
   -3.1200   -1.2400    0.0000 C   0  0  0  0  0  0  0  0  0  0  0  0
   -1.6900   -0.8000    0.0000 C   0  0  0  0  0  0  0  0  0  0  0  0
   -0.7500   -1.9700    0.0000 C   0  0  0  0  0  0  0  0  0  0  0  0
   -3.8800    1.2400    0.0000 C   0  0  0  0  0  0  0  0  0  0  0  0
    0.0000    1.3100    0.0000 N   0  0  0  0  0  0  0  0  0  0  0  0
    0.7500   -1.9700    0.0000 N   0  0  0  0  0  0  0  0  0  0  0  0
   -3.4541   -2.7023    0.0000 O   0  0  0  0  0  0  0  0  0  0  0  0
  5  4  2  0
  7  6  2  0
  8  4  1  0
  9  5  1  0
 10  6  1  0
 11  7  1  0
 14  1  1  0
 14  8  2  0
 15  9  2  0
 15 14  1  0
 16 10  2  0
 17 11  2  0
 17 16  1  0
 18 12  1  0
 19 13  1  0
 20 18  2  0
 20 19  1  0
 21 15  1  0
 21 20  1  0
 22  2  1  0
 22  3  1  0
 22 12  1  0
 22 13  1  0
 23 16  1  0
 23 18  1  0
 24 17  1  0
 24 21  2  0
 25 19  2  0
M  END
>  <NAME>  (4567) 
3,3-DIMETHYL-11-O-TOLYL-2,3,4,5-TETRAHYDRO-1H-DIBENZO(B,E)(1,4)-DIAZEPIN-1-ONE

>  <SYNONYMS>  (4567) 


>  <SPECTRUM TYPE>  (4567) 
MS1

>  <INSTRUMENT TYPE>  (4567) 
EI-B

>  <INSTRUMENT>  (4567) 
JEOL JMS-HX-100

>  <ION MODE>  (4567) 
P

>  <INCHIKEY>  (4567) 
NDVVNGHRFCMKLV-UHFFFAOYSA-N

>  <FORMULA>  (4567) 
C22H22N2O

>  <EXACT MASS>  (4567) 
330.173213324

>  <MW>  (4567) 
330

>  <ID>  (4567) 
JP005149

>  <CONTRIBUTOR>  (4567) 
University of Tokyo Team, {Faculty of Engineering, University of Tokyo

>  <COMMENT>  (4567) 
SMILES=Cc(c4)c(ccc4)C(=N1)C(C(=O)3)=C(CC(C)(C)C3)Nc(c2)c(ccc2)1
InChI=InChI=1S/C22H22N2O/c1-14-8-4-5-9-15(14)21-20-18(12-22(2,3)13-19(20)25)23-16-10-6-7-11-17(16)24-21/h4-11,23H,12-13H2,1-3H3
computed SMILES=O=C1C=2C(=NC=3C=CC=CC3NC2CC(C)(C)C1)C4=CC=CC=C4C
accession=JP005149
date=2016.01.19 (Created 2008.10.21, modified 2011.05.06)
author=HAYASHI A, FAC. OF SCIENCE AND TECHNOLOGY, KINKI UNIV.
license=CC BY-NC-SA
exact mass=330.17321
ionization energy=70 eV
ion type=[M]+*
computed spectral entropy=3.775357439441467
computed normalized entropy=0.8432149726223915
SPLASH=splash10-000t-2397000000-1e88f659e08197de4c24
submitter=submitter = University of Tokyo Team (Faculty of Engineering, University of Tokyo)
MoNA Rating=3.75

>  <NUM PEAKS>  (4567) 
88

>  <MASS SPECTRAL PEAKS>  (4567) 
39 6.72
41 6.8
43 8.33
51 4.07
53 2.17
55 4.84
58 2.41
63 3.6
64 2.07
65 7.29
76 3.05
77 10.13
78 2.51
83 4.94
89 4.41
90 2.7
91 6.08
92 3.56
102 5.69
103 3.37
114 2.58
115 12.79
116 5.29
117 2.15
118 2.26
119 2.9
121 2.45
122 3.43
127 3.6
128 7.57
129 5.07
130 2.77
131 3.52
132 2.13
136 2.75
139 2.22
140 2.3
141 3.09
142 2.58
143 5.39
149 2.27
150 6.21
157 2.61
165 11.53
195 2.01
203 2.07
204 6.69
205 3.61
206 4.45
207 5.97
208 2.02
209 2.72
217 3.06
218 3.79
219 4.42
229 3.54
230 4.15
231 13.37
232 6.29
233 3.3
242 2.11
243 4.83
245 45.76
246 99.99
247 23.91
248 2.76
256 2.04
257 2.5
259 5.2
271 2.64
272 2.3
273 10.87
274 6.85
275 3.01
285 2.09
287 5.8
301 3.36
302 24.75
303 6.27
313 17.65
314 5.66
315 62.11
316 17.07
317 2.39
329 12.24
330 59.16
331 16.62
332 2.37

$$$$

     RDKit          2D

 20 21  0  0  0  0  0  0  0  0999 V2000
   -1.6353    4.6878    0.0000 C   0  0  0  0  0  0  0  0  0  0  0  0
   -2.9306    2.4356    0.0000 C   0  0  0  0  0  0  0  0  0  0  0  0
    7.6438   -0.0689    0.0000 C   0  0  0  0  0  0  0  0  0  0  0  0
    6.6796    1.6012    0.0000 C   0  0  0  0  0  0  0  0  0  0  0  0
   -1.6200   -1.3100    0.0000 C   0  0  0  0  0  0  0  0  0  0  0  0
   -0.3300   -2.0600    0.0000 C   0  0  0  0  0  0  0  0  0  0  0  0
   -1.6200    0.1900    0.0000 C   0  0  0  0  0  0  0  0  0  0  0  0
    0.9700   -1.3100    0.0000 C   0  0  0  0  0  0  0  0  0  0  0  0
    3.5678   -1.3104    0.0000 C   0  0  0  0  0  0  0  0  0  0  0  0
    4.8675    0.9415    0.0000 C   0  0  0  0  0  0  0  0  0  0  0  0
    6.1664   -1.3092    0.0000 C   0  0  0  0  0  0  0  0  0  0  0  0
   -1.6328    3.1878    0.0000 C   0  0  0  0  0  0  0  0  0  0  0  0
    3.5681    0.1904    0.0000 C   0  0  0  0  0  0  0  0  0  0  0  0
    4.8670   -2.0602    0.0000 C   0  0  0  0  0  0  0  0  0  0  0  0
   -0.3300    0.9400    0.0000 C   0  0  0  0  0  0  0  0  0  0  0  0
    0.9700    0.1900    0.0000 C   0  0  0  0  0  0  0  0  0  0  0  0
    6.1666    0.1917    0.0000 C   0  0  0  0  0  0  0  0  0  0  0  0
   -0.3325    2.4400    0.0000 N   0  0  0  0  0  0  0  0  0  0  0  0
    2.2689    0.9402    0.0000 N   0  0  0  0  0  0  0  0  0  0  0  0
    4.8675   -3.5602    0.0000 O   0  0  0  0  0  0  0  0  0  0  0  0
  6  5  2  0
  7  5  1  0
  8  6  1  0
 12  1  1  0
 12  2  1  0
 13  9  2  0
 13 10  1  0
 14  9  1  0
 14 11  1  0
 15  7  2  0
 16  8  2  0
 16 15  1  0
 17  3  1  0
 17  4  1  0
 17 10  1  0
 17 11  1  0
 18 12  1  0
 18 15  1  0
 19 13  1  0
 19 16  1  0
 20 14  2  0
M  END
>  <NAME>  (4568) 
3-(2-ISOPROPYLAMINOANILINO)-5,5-DIMETHYL-2-CYCLOHEXEN-E-ONE

>  <SYNONYMS>  (4568) 


>  <SPECTRUM TYPE>  (4568) 
MS1

>  <INSTRUMENT TYPE>  (4568) 
EI-B

>  <INSTRUMENT>  (4568) 
JEOL JMS-HX-100

>  <ION MODE>  (4568) 
P

>  <INCHIKEY>  (4568) 
AKAQOFZTVJADDM-UHFFFAOYSA-N

>  <FORMULA>  (4568) 
C17H24N2O

>  <EXACT MASS>  (4568) 
272.188863388

>  <MW>  (4568) 
272

>  <ID>  (4568) 
JP005148

>  <CONTRIBUTOR>  (4568) 
University of Tokyo Team, {Faculty of Engineering, University of Tokyo

>  <COMMENT>  (4568) 
SMILES=CC(C)Nc(c2)c(ccc2)NC(=C1)CC(C)(C)CC(=O)1
InChI=InChI=1S/C17H24N2O/c1-12(2)18-15-7-5-6-8-16(15)19-13-9-14(20)11-17(3,4)10-13/h5-9,12,18-19H,10-11H2,1-4H3
computed SMILES=O=C1C=C(NC=2C=CC=CC2NC(C)C)CC(C)(C)C1
accession=JP005148
date=2016.01.19 (Created 2008.10.21, modified 2011.05.06)
author=HAYASHI A, FAC. OF SCIENCE AND TECHNOLOGY, KINKI UNIV.
license=CC BY-NC-SA
exact mass=272.18886
ionization energy=70 eV
ion type=[M]+*
computed spectral entropy=3.8422852523098756
computed normalized entropy=0.8625922041466257
SPLASH=splash10-00si-5950000000-240fd57cd4b2a30d1259
submitter=submitter = University of Tokyo Team (Faculty of Engineering, University of Tokyo)
MoNA Rating=3.75

>  <NUM PEAKS>  (4568) 
86

>  <MASS SPECTRAL PEAKS>  (4568) 
39 23.28
40 3.41
41 32.87
42 9.09
43 21.79
44 4.03
51 5.91
52 4.83
53 9.68
55 23.93
56 5.16
57 7.51
58 5.53
65 22.99
66 5.64
67 11.79
68 4.57
69 12.26
71 3.11
77 18.16
78 6.23
79 8.06
80 9.04
81 6.12
83 61.89
84 4.92
90 3.38
91 10.35
92 22.33
93 16.96
94 3.01
97 4.1
100 4.81
103 3.65
104 5.5
105 3.74
106 3.31
107 7.69
108 3.81
109 3.43
117 7.25
118 9.21
119 39.02
120 4.76
129 3.9
130 9.69
131 18.16
132 97.17
133 99.99
134 11.38
135 3.93
143 4.01
144 6.2
145 27.73
146 8.24
147 4.68
149 21
157 5.15
158 5.93
159 32.19
160 7.33
169 3.24
171 4.93
172 4.6
173 41.01
174 88.47
175 19.74
183 3.09
185 3.45
187 4.07
199 9.36
200 4.48
201 18.1
213 3.23
214 3.58
215 90.9
216 47.63
217 6.85
229 9.64
255 3.09
257 60.43
258 12.54
271 3.3
272 80.95
273 17.86
274 2.9

$$$$

     RDKit          2D

 17 18  0  0  0  0  0  0  0  0999 V2000
    8.6000    2.5981    0.0000 C   0  0  0  0  0  0  0  0  0  0  0  0
    5.1105    2.7762    0.0000 C   0  0  0  0  0  0  0  0  0  0  0  0
    3.4405    1.8121    0.0000 C   0  0  0  0  0  0  0  0  0  0  0  0
   -2.3100   -0.7500    0.0000 C   0  0  0  0  0  0  0  0  0  0  0  0
   -2.3100    0.7500    0.0000 C   0  0  0  0  0  0  0  0  0  0  0  0
   -1.0100   -1.5000    0.0000 C   0  0  0  0  0  0  0  0  0  0  0  0
   -1.0100    1.5000    0.0000 C   0  0  0  0  0  0  0  0  0  0  0  0
    6.3500    1.2990    0.0000 C   0  0  0  0  0  0  0  0  0  0  0  0
    4.1000   -0.0000    0.0000 C   0  0  0  0  0  0  0  0  0  0  0  0
    7.1000    2.5981    0.0000 C   0  0  0  0  0  0  0  0  0  0  0  0
    0.2900   -0.7500    0.0000 C   0  0  0  0  0  0  0  0  0  0  0  0
    0.2900    0.7500    0.0000 C   0  0  0  0  0  0  0  0  0  0  0  0
    2.6000    0.0000    0.0000 C   0  0  0  0  0  0  0  0  0  0  0  0
    4.8500    1.2990    0.0000 C   0  0  0  0  0  0  0  0  0  0  0  0
    1.7200   -1.2100    0.0000 N   0  0  0  0  0  0  0  0  0  0  0  0
    6.3500    3.8971    0.0000 O   0  0  0  0  0  0  0  0  0  0  0  0
    1.7200    1.2100    0.0000 S   0  0  0  0  0  0  0  0  0  0  0  0
  5  4  2  0
  6  4  1  0
  7  5  1  0
 10  1  1  0
 10  8  1  0
 11  6  2  0
 12  7  2  0
 12 11  1  0
 13  9  1  0
 14  2  1  0
 14  3  1  0
 14  8  1  0
 14  9  1  0
 15 11  1  0
 15 13  2  0
 16 10  2  0
 17 12  1  0
 17 13  1  0
M  END
>  <NAME>  (4569) 
2-(2,2-DIMETHYL-4-OXOPENTYL)BENZOTHIAZOLE

>  <SYNONYMS>  (4569) 


>  <SPECTRUM TYPE>  (4569) 
MS1

>  <INSTRUMENT TYPE>  (4569) 
EI-B

>  <INSTRUMENT>  (4569) 
JEOL JMS-HX-100

>  <ION MODE>  (4569) 
P

>  <INCHIKEY>  (4569) 
URIOICYHTUHHPI-UHFFFAOYSA-N

>  <FORMULA>  (4569) 
C14H17NOS

>  <EXACT MASS>  (4569) 
247.103085164

>  <MW>  (4569) 
247

>  <ID>  (4569) 
JP005147

>  <CONTRIBUTOR>  (4569) 
University of Tokyo Team, {Faculty of Engineering, University of Tokyo

>  <COMMENT>  (4569) 
SMILES=CC(=O)CC(C)(C)Cc(n1)sc(c2)c(ccc2)1
InChI=InChI=1S/C14H17NOS/c1-10(16)8-14(2,3)9-13-15-11-6-4-5-7-12(11)17-13/h4-7H,8-9H2,1-3H3
computed SMILES=O=C(C)CC(C)(C)CC1=NC=2C=CC=CC2S1
accession=JP005147
date=2016.01.19 (Created 2008.10.21, modified 2011.05.06)
author=HAYASHI A, FAC. OF SCIENCE AND TECHNOLOGY, KINKI UNIV.
license=CC BY-NC-SA
exact mass=247.10308
ionization energy=70 eV
ion type=[M]+*
computed spectral entropy=2.9024933902527947
computed normalized entropy=0.7419417999908043
SPLASH=splash10-0006-4910000000-43cab3ffd3f15477acc1
submitter=submitter = University of Tokyo Team (Faculty of Engineering, University of Tokyo)
MoNA Rating=3.75

>  <NUM PEAKS>  (4569) 
50

>  <MASS SPECTRAL PEAKS>  (4569) 
39 5.84
40 3.15
41 6.78
42 1.22
43 70.14
44 3.86
45 9.26
51 1.79
53 1.6
55 4.74
56 1.54
57 3.53
58 2.52
61 1.41
63 3
65 3.36
69 6.92
71 1.51
77 3.13
81 1.27
82 2.41
83 3.73
85 1.07
97 1.16
104 3.32
108 8.04
109 4.83
116 1.06
117 1.11
121 2.39
136 1.78
148 9.54
149 66.56
150 8.58
151 3.89
162 1.49
173 2.37
174 5.69
175 1.99
177 1.3
188 2.35
189 14.49
190 99.99
191 16.54
192 6.51
232 7.93
233 1.34
247 19.21
248 3.44
249 1.26

$$$$

     RDKit          2D

 27 30  0  0  0  0  0  0  0  0999 V2000
    2.8940   -3.4374    0.0000 C   0  0  0  0  0  0  0  0  0  0  0  0
    0.5512   -4.5605    0.0000 C   0  0  0  0  0  0  0  0  0  0  0  0
   -4.0636    2.7287    0.0000 C   0  0  0  0  0  0  0  0  0  0  0  0
   -5.3779    1.3195    0.0000 C   0  0  0  0  0  0  0  0  0  0  0  0
   -2.6951   -6.0279    0.0000 C   0  0  0  0  0  0  0  0  0  0  0  0
   -1.1987   -5.9135    0.0000 C   0  0  0  0  0  0  0  0  0  0  0  0
   -3.5432   -4.7896    0.0000 C   0  0  0  0  0  0  0  0  0  0  0  0
    3.8800    1.2400    0.0000 C   0  0  0  0  0  0  0  0  0  0  0  0
    4.2200   -0.2200    0.0000 C   0  0  0  0  0  0  0  0  0  0  0  0
   -0.5503   -4.5609    0.0000 C   0  0  0  0  0  0  0  0  0  0  0  0
   -2.8948   -3.4370    0.0000 C   0  0  0  0  0  0  0  0  0  0  0  0
    2.4500    1.6800    0.0000 C   0  0  0  0  0  0  0  0  0  0  0  0
    3.1200   -1.2400    0.0000 C   0  0  0  0  0  0  0  0  0  0  0  0
   -2.4500    1.6800    0.0000 C   0  0  0  0  0  0  0  0  0  0  0  0
   -4.2200   -0.2200    0.0000 C   0  0  0  0  0  0  0  0  0  0  0  0
    1.3984   -3.3226    0.0000 C   0  0  0  0  0  0  0  0  0  0  0  0
   -1.3984   -3.3226    0.0000 C   0  0  0  0  0  0  0  0  0  0  0  0
    1.3500    0.6600    0.0000 C   0  0  0  0  0  0  0  0  0  0  0  0
   -1.3500    0.6600    0.0000 C   0  0  0  0  0  0  0  0  0  0  0  0
    1.6900   -0.8000    0.0000 C   0  0  0  0  0  0  0  0  0  0  0  0
   -3.1200   -1.2400    0.0000 C   0  0  0  0  0  0  0  0  0  0  0  0
   -1.6900   -0.8000    0.0000 C   0  0  0  0  0  0  0  0  0  0  0  0
   -0.7500   -1.9700    0.0000 C   0  0  0  0  0  0  0  0  0  0  0  0
   -3.8800    1.2400    0.0000 C   0  0  0  0  0  0  0  0  0  0  0  0
    0.0000    1.3100    0.0000 N   0  0  0  0  0  0  0  0  0  0  0  0
    0.7500   -1.9700    0.0000 N   0  0  0  0  0  0  0  0  0  0  0  0
   -3.4541   -2.7023    0.0000 O   0  0  0  0  0  0  0  0  0  0  0  0
  6  5  2  0
  7  5  1  0
  9  8  2  0
 10  6  1  0
 11  7  2  0
 12  8  1  0
 13  9  1  0
 16  1  1  0
 16  2  1  0
 17 10  2  0
 17 11  1  0
 18 12  2  0
 19 14  1  0
 20 13  2  0
 20 18  1  0
 21 15  1  0
 22 19  2  0
 22 21  1  0
 23 17  1  0
 23 22  1  0
 24  3  1  0
 24  4  1  0
 24 14  1  0
 24 15  1  0
 25 18  1  0
 25 19  1  0
 26 16  1  0
 26 20  1  0
 26 23  1  0
 27 21  2  0
M  END
>  <NAME>  (4570) 
10-ISOPROPYL-3,3-DIMETHYL-11-PHENYL-2,3,4,5,10,11-HEXAHYDRO-1H-DIBENZO(B,E)(1,4)-DIAZEPIN-1-ONE

>  <SYNONYMS>  (4570) 


>  <SPECTRUM TYPE>  (4570) 
MS1

>  <INSTRUMENT TYPE>  (4570) 
EI-B

>  <INSTRUMENT>  (4570) 
JEOL JMS-HX-100

>  <ION MODE>  (4570) 
P

>  <INCHIKEY>  (4570) 
SEVRCRYZZRHOEP-UHFFFAOYSA-N

>  <FORMULA>  (4570) 
C24H28N2O

>  <EXACT MASS>  (4570) 
360.22016351599996

>  <MW>  (4570) 
360

>  <ID>  (4570) 
JP005146

>  <CONTRIBUTOR>  (4570) 
University of Tokyo Team, {Faculty of Engineering, University of Tokyo

>  <COMMENT>  (4570) 
SMILES=c(c4)ccc(c4)C(N(C(C)C)1)C(C(=O)3)=C(CC(C)(C)C3)Nc(c2)c(ccc2)1
InChI=InChI=1S/C24H28N2O/c1-16(2)26-20-13-9-8-12-18(20)25-19-14-24(3,4)15-21(27)22(19)23(26)17-10-6-5-7-11-17/h5-13,16,23,25H,14-15H2,1-4H3
computed SMILES=O=C1C2=C(NC=3C=CC=CC3N(C2C=4C=CC=CC4)C(C)C)CC(C)(C)C1
accession=JP005146
date=2016.01.19 (Created 2008.10.21, modified 2011.05.06)
author=HAYASHI A, FAC. OF SCIENCE AND TECHNOLOGY, KINKI UNIV.
license=CC BY-NC-SA
exact mass=360.22016
ionization energy=70 eV
ion type=[M]+*
computed spectral entropy=4.115715537993605
computed normalized entropy=0.8755946664399628
SPLASH=splash10-0w29-3459000000-1c43a50e0b9ad8d0f243
submitter=submitter = University of Tokyo Team (Faculty of Engineering, University of Tokyo)
MoNA Rating=3.75

>  <NUM PEAKS>  (4570) 
110

>  <MASS SPECTRAL PEAKS>  (4570) 
39 5.61
40 2.26
41 12.92
42 3.46
43 13.35
44 2.47
51 3.98
53 2.41
55 9.11
65 7.99
76 2.48
77 13.15
78 3.63
83 16.44
89 3.07
90 2.7
91 13.37
92 8.47
93 3.18
102 5.61
103 4.43
104 3.44
105 2.41
115 7.55
116 4.62
117 3.87
118 3.51
119 10.24
127 4.79
128 7.39
129 9.16
130 6.64
131 6.53
132 8.42
133 14.39
134 2.11
141 2.63
142 3.33
143 4.64
144 2.88
145 2.39
152 2.61
155 3.48
156 2.45
157 3.72
158 12.05
159 6.41
165 3.42
167 2.23
168 2.19
169 3.34
172 2.6
173 3.16
180 2.25
181 2.45
182 2.17
183 3.34
184 2.65
185 5.32
194 2.18
195 4.17
197 2.29
199 2.18
204 2.14
206 2.01
215 6.26
216 2.24
217 3.89
218 5.9
219 9.89
220 4.96
226 16.97
227 4.88
231 6.16
232 6.1
233 6.5
234 2.62
239 6.11
241 15.49
242 3.41
245 5.57
246 10.17
247 2.86
259 2.62
261 17.81
262 4.12
267 4.66
269 3.29
273 2.12
275 4.53
276 7.43
283 31.22
284 7.37
287 2.36
289 4.94
301 3.02
302 99.99
303 37.11
304 9.37
315 5.45
317 58.89
318 15.66
319 2.09
330 4.48
345 32.95
346 9.23
359 11.22
360 63.79
361 18.72
362 2.86

$$$$

     RDKit          2D

 25 27  0  0  0  0  0  0  0  0999 V2000
   -5.0798    0.8915    0.0000 C   0  0  0  0  0  0  0  0  0  0  0  0
   -7.0083    0.8918    0.0000 C   0  0  0  0  0  0  0  0  0  0  0  0
    4.3523   -3.2696    0.0000 C   0  0  0  0  0  0  0  0  0  0  0  0
    3.0538   -2.5170    0.0000 C   0  0  0  0  0  0  0  0  0  0  0  0
    4.3507   -4.7704    0.0000 C   0  0  0  0  0  0  0  0  0  0  0  0
   -3.4494   -7.7588    0.0000 C   0  0  0  0  0  0  0  0  0  0  0  0
   -4.7382   -7.0068    0.0000 C   0  0  0  0  0  0  0  0  0  0  0  0
    1.7537   -3.2652    0.0000 C   0  0  0  0  0  0  0  0  0  0  0  0
    3.0507   -5.5186    0.0000 C   0  0  0  0  0  0  0  0  0  0  0  0
   -2.1482   -7.0108    0.0000 C   0  0  0  0  0  0  0  0  0  0  0  0
   -4.7359   -5.5068    0.0000 C   0  0  0  0  0  0  0  0  0  0  0  0
   -6.0432   -3.2590    0.0000 C   0  0  0  0  0  0  0  0  0  0  0  0
   -7.3432   -1.0073    0.0000 C   0  0  0  0  0  0  0  0  0  0  0  0
   -4.7447   -1.0082    0.0000 C   0  0  0  0  0  0  0  0  0  0  0  0
    1.7522   -4.7660    0.0000 C   0  0  0  0  0  0  0  0  0  0  0  0
   -7.3428   -2.5082    0.0000 C   0  0  0  0  0  0  0  0  0  0  0  0
   -4.7442   -2.5090    0.0000 C   0  0  0  0  0  0  0  0  0  0  0  0
   -2.1459   -5.5108    0.0000 C   0  0  0  0  0  0  0  0  0  0  0  0
   -3.4448   -4.7588    0.0000 C   0  0  0  0  0  0  0  0  0  0  0  0
    0.4521   -5.5143    0.0000 C   0  0  0  0  0  0  0  0  0  0  0  0
   -6.0442   -0.2573    0.0000 C   0  0  0  0  0  0  0  0  0  0  0  0
   -0.8459   -4.7625    0.0000 N   0  0  0  0  0  0  0  0  0  0  0  0
   -8.6418   -3.2582    0.0000 O   0  0  0  0  0  0  0  0  0  0  0  0
    0.4501   -7.0143    0.0000 O   0  0  0  0  0  0  0  0  0  0  0  0
   -3.4451   -3.2588    0.0000 S   0  0  0  0  0  0  0  0  0  0  0  0
  4  3  2  0
  5  3  1  0
  7  6  2  0
  8  4  1  0
  9  5  2  0
 10  6  1  0
 11  7  1  0
 15  8  2  0
 15  9  1  0
 16 12  1  0
 16 13  1  0
 17 12  1  0
 17 14  1  0
 18 10  2  0
 19 11  2  0
 19 18  1  0
 20 15  1  0
 21  1  1  0
 21  2  1  0
 21 13  1  0
 21 14  1  0
 22 18  1  0
 22 20  2  3
 23 16  2  0
 24 20  1  0
 25 17  1  0
 25 19  1  0
M  END
>  <NAME>  (4571) 
3-(2-BENZOYLAMINOPHENYLTHIO)-5,5-DIMETHYL-1-CYCLOHEXANONE

>  <SYNONYMS>  (4571) 


>  <SPECTRUM TYPE>  (4571) 
MS1

>  <INSTRUMENT TYPE>  (4571) 
EI-B

>  <INSTRUMENT>  (4571) 
JEOL JMS-HX-100

>  <ION MODE>  (4571) 
P

>  <INCHIKEY>  (4571) 
LDVNHMXTVMRLBL-UHFFFAOYSA-N

>  <FORMULA>  (4571) 
C21H23NO2S

>  <EXACT MASS>  (4571) 
353.144949976

>  <MW>  (4571) 
353

>  <ID>  (4571) 
JP005145

>  <CONTRIBUTOR>  (4571) 
University of Tokyo Team, {Faculty of Engineering, University of Tokyo

>  <COMMENT>  (4571) 
SMILES=c(c3)ccc(c3)C(=O)Nc(c2)c(ccc2)SC(C1)CC(C)(C)CC(=O)1
InChI=InChI=1S/C21H23NO2S/c1-21(2)13-16(23)12-17(14-21)25-19-11-7-6-10-18(19)22-20(24)15-8-4-3-5-9-15/h3-11,17H,12-14H2,1-2H3,(H,22,24)
computed SMILES=O=C1CC(SC=2C=CC=CC2N=C(O)C=3C=CC=CC3)CC(C)(C)C1
accession=JP005145
date=2016.01.19 (Created 2008.10.21, modified 2011.05.06)
author=HAYASHI A, FAC. OF SCIENCE AND TECHNOLOGY, KINKI UNIV.
license=CC BY-NC-SA
exact mass=353.14495
ionization energy=70 eV
ion type=[M]+*
computed spectral entropy=3.022421109451415
computed normalized entropy=0.7114097903504961
SPLASH=splash10-0a6r-9730000000-2c07d086703344cf3820
submitter=submitter = University of Tokyo Team (Faculty of Engineering, University of Tokyo)
MoNA Rating=3.75

>  <NUM PEAKS>  (4571) 
70

>  <MASS SPECTRAL PEAKS>  (4571) 
39 3.31
40 0.99
41 16.12
42 1.14
43 4.84
44 1.88
45 0.6
50 0.74
51 4.02
52 0.64
53 1.66
54 0.51
55 25.03
56 2.49
57 3.42
60 0.84
63 0.52
65 1.22
67 1.92
68 4.97
69 19.74
70 1.23
71 1.67
73 0.87
76 0.94
77 30.49
78 2.56
79 1.18
80 1.24
81 2.79
82 0.8
83 10.2
84 1.12
85 0.89
91 0.73
93 0.79
95 1.31
96 0.78
97 1.89
99 1.31
104 0.5
105 99.99
106 8.88
107 1.07
108 0.5
109 1.06
111 0.58
123 0.71
124 1.37
125 7.02
126 0.78
149 1.93
150 3.71
151 0.45
167 0.88
196 7.75
197 1.45
198 0.45
211 2.65
212 1.01
228 0.96
229 40.11
230 7.86
231 2.63
232 0.44
248 2.86
249 0.53
353 4.97
354 1.43
355 0.44

$$$$

     RDKit          2D

 24 25  0  0  0  0  0  0  0  0999 V2000
    6.4894    1.9537    0.0000 C   0  0  0  0  0  0  0  0  0  0  0  0
    3.8912    4.9544    0.0000 C   0  0  0  0  0  0  0  0  0  0  0  0
   -1.3048   -4.0463    0.0000 C   0  0  0  0  0  0  0  0  0  0  0  0
   -4.9505    1.8947    0.0000 C   0  0  0  0  0  0  0  0  0  0  0  0
   -4.4376    0.4842    0.0000 C   0  0  0  0  0  0  0  0  0  0  0  0
   -3.9861    3.0447    0.0000 C   0  0  0  0  0  0  0  0  0  0  0  0
   -2.9604    0.2237    0.0000 C   0  0  0  0  0  0  0  0  0  0  0  0
   -2.5089    2.7842    0.0000 C   0  0  0  0  0  0  0  0  0  0  0  0
    2.5928   -0.2971    0.0000 C   0  0  0  0  0  0  0  0  0  0  0  0
    3.8918    0.4529    0.0000 C   0  0  0  0  0  0  0  0  0  0  0  0
    1.2928    1.9546    0.0000 C   0  0  0  0  0  0  0  0  0  0  0  0
   -0.5188    1.1133    0.0000 C   0  0  0  0  0  0  0  0  0  0  0  0
   -1.4830   -0.5567    0.0000 C   0  0  0  0  0  0  0  0  0  0  0  0
   -1.9960    1.3737    0.0000 C   0  0  0  0  0  0  0  0  0  0  0  0
    1.2932    0.4537    0.0000 C   0  0  0  0  0  0  0  0  0  0  0  0
    3.8913    1.9537    0.0000 C   0  0  0  0  0  0  0  0  0  0  0  0
    2.5918    2.7046    0.0000 C   0  0  0  0  0  0  0  0  0  0  0  0
   -0.0058   -1.7963    0.0000 C   0  0  0  0  0  0  0  0  0  0  0  0
   -0.0058   -0.2963    0.0000 C   0  0  0  0  0  0  0  0  0  0  0  0
   -2.9602   -0.8172    0.0000 N   0  0  0  0  0  0  0  0  0  0  0  0
    1.2932   -2.5463    0.0000 O   0  0  0  0  0  0  0  0  0  0  0  0
    5.1904    2.7037    0.0000 O   0  0  0  0  0  0  0  0  0  0  0  0
    2.5920    4.2046    0.0000 O   0  0  0  0  0  0  0  0  0  0  0  0
   -1.3048   -2.5463    0.0000 O   0  0  0  0  0  0  0  0  0  0  0  0
  5  4  2  0
  6  4  1  0
  7  5  1  0
  8  6  2  0
 10  9  2  0
 14  7  2  0
 14  8  1  0
 14 12  1  0
 15  9  1  0
 15 11  2  0
 16 10  1  0
 17 11  1  0
 17 16  2  0
 19 12  1  0
 19 13  1  0
 19 15  1  0
 19 18  1  0
 20 13  3  0
 21 18  2  0
 22  1  1  0
 22 16  1  0
 23  2  1  0
 23 17  1  0
 24  3  1  0
 24 18  1  0
M  END
>  <NAME>  (4572) 
METHYL 2-CYANO-2-(3,4-DIMETHOXYPHENYL)-3-PHENYLPROPIONATE

>  <SYNONYMS>  (4572) 


>  <SPECTRUM TYPE>  (4572) 
MS1

>  <INSTRUMENT TYPE>  (4572) 
EI-B

>  <INSTRUMENT>  (4572) 
JEOL JMS-HX-100

>  <ION MODE>  (4572) 
P

>  <INCHIKEY>  (4572) 
CLPZAUNVVJMFAY-UHFFFAOYSA-N

>  <FORMULA>  (4572) 
C19H19NO4

>  <EXACT MASS>  (4572) 
325.131408088

>  <MW>  (4572) 
325

>  <ID>  (4572) 
JP005143

>  <CONTRIBUTOR>  (4572) 
University of Tokyo Team, {Faculty of Engineering, University of Tokyo

>  <COMMENT>  (4572) 
SMILES=COc(c2)c(OC)cc(c2)C(C#N)(Cc(c1)cccc1)C(=O)OC
InChI=InChI=1S/C19H19NO4/c1-22-16-10-9-15(11-17(16)23-2)19(13-20,18(21)24-3)12-14-7-5-4-6-8-14/h4-11H,12H2,1-3H3
computed SMILES=N#CC(C(=O)OC)(C1=CC=C(OC)C(OC)=C1)CC=2C=CC=CC2
license=CC BY-NC-SA
accession=JP005143
date=2016.01.19 (Created 2008.10.21, modified 2011.05.06)
author=HAYASHI A, FAC. OF SCIENCE AND TECHNOLOGY, KINKI UNIV.
exact mass=325.13141
ionization energy=70 eV
ion type=[M]+*
computed spectral entropy=2.538511429252604
computed normalized entropy=0.6127030851983718
SPLASH=splash10-001i-3192000000-de82880ff81259e3874e
submitter=submitter = University of Tokyo Team (Faculty of Engineering, University of Tokyo)
MoNA Rating=3.75

>  <NUM PEAKS>  (4572) 
63

>  <MASS SPECTRAL PEAKS>  (4572) 
39 0.78
45 1.09
50 0.6
51 1.31
59 0.71
63 1.04
65 2.71
75 0.65
76 0.72
77 1.36
79 0.58
89 1.06
90 0.74
91 36.28
92 3.11
101 0.52
102 0.77
103 0.69
115 0.65
117 1.08
119 0.56
127 0.6
128 0.51
130 0.61
146 0.56
151 0.61
152 1.48
153 1.53
160 1.24
165 1.74
166 0.54
174 0.94
175 1.37
176 2.15
177 1.09
178 0.97
179 0.45
180 0.43
181 0.73
188 3.74
189 0.89
190 1.62
191 2.09
203 5.69
204 1.59
206 1.07
208 0.73
218 0.57
219 1.04
220 0.49
224 0.48
234 99.99
235 14.93
236 1.97
239 0.75
250 0.89
251 0.9
265 0.43
266 4.47
267 1.2
325 33.75
326 7.08
327 1.04

$$$$

     RDKit          2D

 26 27  0  0  0  0  0  0  0  0999 V2000
    6.6376    1.8427    0.0000 C   0  0  0  0  0  0  0  0  0  0  0  0
    4.0394    4.8433    0.0000 C   0  0  0  0  0  0  0  0  0  0  0  0
   -1.1567   -4.1573    0.0000 C   0  0  0  0  0  0  0  0  0  0  0  0
   -3.3251   -2.3378    0.0000 C   0  0  0  0  0  0  0  0  0  0  0  0
   -5.2750    1.8670    0.0000 C   0  0  0  0  0  0  0  0  0  0  0  0
   -4.7621    0.4565    0.0000 C   0  0  0  0  0  0  0  0  0  0  0  0
   -4.3107    3.0170    0.0000 C   0  0  0  0  0  0  0  0  0  0  0  0
   -3.2849    0.1960    0.0000 C   0  0  0  0  0  0  0  0  0  0  0  0
   -2.8334    2.7565    0.0000 C   0  0  0  0  0  0  0  0  0  0  0  0
    2.7409   -0.4082    0.0000 C   0  0  0  0  0  0  0  0  0  0  0  0
    4.0400    0.3418    0.0000 C   0  0  0  0  0  0  0  0  0  0  0  0
    1.4409    1.8435    0.0000 C   0  0  0  0  0  0  0  0  0  0  0  0
   -0.3707    1.0022    0.0000 C   0  0  0  0  0  0  0  0  0  0  0  0
   -2.3206    1.3460    0.0000 C   0  0  0  0  0  0  0  0  0  0  0  0
    1.4414    0.3427    0.0000 C   0  0  0  0  0  0  0  0  0  0  0  0
    4.0395    1.8427    0.0000 C   0  0  0  0  0  0  0  0  0  0  0  0
    2.7400    2.5935    0.0000 C   0  0  0  0  0  0  0  0  0  0  0  0
    0.1424   -1.9073    0.0000 C   0  0  0  0  0  0  0  0  0  0  0  0
   -1.3348   -0.6678    0.0000 C   0  0  0  0  0  0  0  0  0  0  0  0
    0.1424   -0.4073    0.0000 C   0  0  0  0  0  0  0  0  0  0  0  0
    1.4414   -2.6573    0.0000 O   0  0  0  0  0  0  0  0  0  0  0  0
   -2.2990    0.4813    0.0000 O   0  0  0  0  0  0  0  0  0  0  0  0
    5.3385    2.5927    0.0000 O   0  0  0  0  0  0  0  0  0  0  0  0
    2.7402    4.0935    0.0000 O   0  0  0  0  0  0  0  0  0  0  0  0
   -1.1567   -2.6573    0.0000 O   0  0  0  0  0  0  0  0  0  0  0  0
   -1.8479   -2.0773    0.0000 O   0  0  0  0  0  0  0  0  0  0  0  0
  6  5  2  0
  7  5  1  0
  8  6  1  0
  9  7  2  0
 11 10  2  0
 14  8  2  0
 14  9  1  0
 14 13  1  0
 15 10  1  0
 15 12  2  0
 16 11  1  0
 17 12  1  0
 17 16  2  0
 20 13  1  0
 20 15  1  0
 20 18  1  0
 20 19  1  0
 21 18  2  0
 22 19  2  0
 23  1  1  0
 23 16  1  0
 24  2  1  0
 24 17  1  0
 25  3  1  0
 25 18  1  0
 26  4  1  0
 26 19  1  0
M  END
>  <NAME>  (4573) 
DIMETHYL 2-BENZYL-2-(3,4-DIMETHOXYPHENYL)MALONATE

>  <SYNONYMS>  (4573) 


>  <SPECTRUM TYPE>  (4573) 
MS1

>  <INSTRUMENT TYPE>  (4573) 
EI-B

>  <INSTRUMENT>  (4573) 
JEOL JMS-HX-100

>  <ION MODE>  (4573) 
P

>  <INCHIKEY>  (4573) 
UHEVCYGHLILPDY-UHFFFAOYSA-N

>  <FORMULA>  (4573) 
C20H22O6

>  <EXACT MASS>  (4573) 
358.141638424

>  <MW>  (4573) 
358

>  <ID>  (4573) 
JP005142

>  <CONTRIBUTOR>  (4573) 
University of Tokyo Team, {Faculty of Engineering, University of Tokyo

>  <COMMENT>  (4573) 
SMILES=COc(c2)c(OC)cc(c2)C(Cc(c1)cccc1)(C(=O)OC)C(=O)OC
InChI=InChI=1S/C20H22O6/c1-23-16-11-10-15(12-17(16)24-2)20(18(21)25-3,19(22)26-4)13-14-8-6-5-7-9-14/h5-12H,13H2,1-4H3
computed SMILES=O=C(OC)C(C(=O)OC)(C1=CC=C(OC)C(OC)=C1)CC=2C=CC=CC2
accession=JP005142
date=2016.01.19 (Created 2008.10.21, modified 2011.05.06)
author=HAYASHI A, FAC. OF SCIENCE AND TECHNOLOGY, KINKI UNIV.
license=CC BY-NC-SA
exact mass=358.14164
ionization energy=70 eV
ion type=[M]+*
computed spectral entropy=3.10830805231308
computed normalized entropy=0.7073259794138572
SPLASH=splash10-014i-1292000000-ddaf8abb0b1506938f52
submitter=submitter = University of Tokyo Team (Faculty of Engineering, University of Tokyo)
MoNA Rating=3.75

>  <NUM PEAKS>  (4573) 
81

>  <MASS SPECTRAL PEAKS>  (4573) 
39 0.85
43 0.67
45 2.23
51 1.06
59 2.07
63 0.94
65 1.97
75 0.55
76 1.42
77 1.97
78 0.63
79 0.59
89 0.89
91 10.9
92 1.02
102 0.61
103 0.74
104 0.57
105 1.02
107 0.51
115 0.99
119 1.55
120 0.66
121 4.81
122 0.85
127 0.63
128 0.69
133 1.94
134 0.7
135 0.54
137 0.64
139 0.77
141 0.58
151 2.19
152 2.92
153 2.3
154 1
163 1.32
164 0.84
165 10.88
166 2.31
176 0.5
177 0.76
178 1.96
179 1.72
181 8.22
182 1.22
193 2.21
194 0.85
195 0.71
196 0.83
205 0.79
207 1.65
208 2.7
209 2
211 1.45
220 7.77
221 2.8
222 0.6
223 0.5
224 0.79
225 0.74
235 5.41
236 2.88
237 1.25
239 20.01
240 3.94
241 0.79
252 0.76
265 0.53
267 99.99
268 15.94
269 2.63
271 1.96
294 1.37
298 0.56
299 6.15
300 1.35
358 35.85
359 8.29
360 1.36

$$$$

     RDKit          2D

 17 17  0  0  0  0  0  0  0  0999 V2000
    4.5816   -0.0179    0.0000 C   0  0  0  0  0  0  0  0  0  0  0  0
    4.5821    1.4826    0.0000 C   0  0  0  0  0  0  0  0  0  0  0  0
   -5.8107    1.4821    0.0000 C   0  0  0  0  0  0  0  0  0  0  0  0
   -0.6150   -0.0187    0.0000 C   0  0  0  0  0  0  0  0  0  0  0  0
    0.6840   -0.7687    0.0000 C   0  0  0  0  0  0  0  0  0  0  0  0
    0.6850    2.2330    0.0000 C   0  0  0  0  0  0  0  0  0  0  0  0
   -1.9136    3.7321    0.0000 C   0  0  0  0  0  0  0  0  0  0  0  0
   -0.6145    1.4821    0.0000 C   0  0  0  0  0  0  0  0  0  0  0  0
   -1.9136    2.2321    0.0000 C   0  0  0  0  0  0  0  0  0  0  0  0
    1.9835   -0.0179    0.0000 C   0  0  0  0  0  0  0  0  0  0  0  0
    1.9840    1.4830    0.0000 C   0  0  0  0  0  0  0  0  0  0  0  0
   -3.2126    1.4821    0.0000 C   0  0  0  0  0  0  0  0  0  0  0  0
   -1.9136    5.2321    0.0000 N   0  0  0  0  0  0  0  0  0  0  0  0
   -3.2126   -0.0179    0.0000 O   0  0  0  0  0  0  0  0  0  0  0  0
    3.2826   -0.7679    0.0000 O   0  0  0  0  0  0  0  0  0  0  0  0
    3.2832    2.2328    0.0000 O   0  0  0  0  0  0  0  0  0  0  0  0
   -4.5117    2.2321    0.0000 O   0  0  0  0  0  0  0  0  0  0  0  0
  5  4  2  0
  8  4  1  0
  8  6  2  0
  9  7  1  0
  9  8  1  0
 10  5  1  0
 11  6  1  0
 11 10  2  0
 12  9  1  0
 13  7  3  0
 14 12  2  0
 15  1  1  0
 15 10  1  0
 16  2  1  0
 16 11  1  0
 17  3  1  0
 17 12  1  0
M  END
>  <NAME>  (4574) 
METHYL 2-(3,4-DIMETHOXYPHENYL)-2-CYANOACETATE

>  <SYNONYMS>  (4574) 


>  <SPECTRUM TYPE>  (4574) 
MS1

>  <INSTRUMENT TYPE>  (4574) 
EI-B

>  <INSTRUMENT>  (4574) 
JEOL JMS-HX-100

>  <ION MODE>  (4574) 
P

>  <INCHIKEY>  (4574) 
DUGGTIYZQSBNOY-UHFFFAOYSA-N

>  <FORMULA>  (4574) 
C12H13NO4

>  <EXACT MASS>  (4574) 
235.084457896

>  <MW>  (4574) 
235

>  <ID>  (4574) 
JP005141

>  <CONTRIBUTOR>  (4574) 
University of Tokyo Team, {Faculty of Engineering, University of Tokyo

>  <COMMENT>  (4574) 
SMILES=COC(=O)C(C#N)c(c1)cc(OC)c(OC)c1
InChI=InChI=1S/C12H13NO4/c1-15-10-5-4-8(6-11(10)16-2)9(7-13)12(14)17-3/h4-6,9H,1-3H3
computed SMILES=N#CC(C(=O)OC)C1=CC=C(OC)C(OC)=C1
accession=JP005141
date=2016.01.19 (Created 2008.10.21, modified 2011.05.06)
author=HAYASHI A, FAC. OF SCIENCE AND TECHNOLOGY, KINKI UNIV.
license=CC BY-NC-SA
exact mass=235.08446
ion type=[M]+*
ionization energy=70 eV
computed spectral entropy=2.2054505132385573
computed normalized entropy=0.5978646200485029
SPLASH=splash10-004i-1920000000-bfc970a2a813e9f7715e
submitter=submitter = University of Tokyo Team (Faculty of Engineering, University of Tokyo)
MoNA Rating=3.75

>  <NUM PEAKS>  (4574) 
40

>  <MASS SPECTRAL PEAKS>  (4574) 
39 1.36
50 0.98
51 1.29
52 0.5
59 3.94
62 0.82
63 3.37
64 1.75
75 1.22
76 2.02
77 1.24
78 1.21
79 0.59
88 0.84
89 1.02
90 3.24
92 0.66
102 1.4
103 2.44
104 1.12
105 1.04
106 1.04
107 0.64
115 2.4
116 0.87
117 0.87
130 3.8
131 5.1
132 3.55
133 2.35
146 0.74
148 0.76
160 1.72
161 0.63
176 99.99
177 13.37
178 1.41
235 34.76
236 5.06
237 0.74

$$$$

     RDKit          2D

 19 19  0  0  0  0  0  0  0  0999 V2000
    3.2826   -2.2679    0.0000 C   0  0  0  0  0  0  0  0  0  0  0  0
    4.5821    1.4826    0.0000 C   0  0  0  0  0  0  0  0  0  0  0  0
   -5.8107    1.4821    0.0000 C   0  0  0  0  0  0  0  0  0  0  0  0
   -3.2126    5.9821    0.0000 C   0  0  0  0  0  0  0  0  0  0  0  0
   -0.6150   -0.0187    0.0000 C   0  0  0  0  0  0  0  0  0  0  0  0
    0.6840   -0.7687    0.0000 C   0  0  0  0  0  0  0  0  0  0  0  0
    0.6850    2.2330    0.0000 C   0  0  0  0  0  0  0  0  0  0  0  0
   -0.6145    1.4821    0.0000 C   0  0  0  0  0  0  0  0  0  0  0  0
    1.9835   -0.0179    0.0000 C   0  0  0  0  0  0  0  0  0  0  0  0
    1.9840    1.4830    0.0000 C   0  0  0  0  0  0  0  0  0  0  0  0
   -1.9136    2.2321    0.0000 C   0  0  0  0  0  0  0  0  0  0  0  0
   -3.2126    1.4821    0.0000 C   0  0  0  0  0  0  0  0  0  0  0  0
   -1.9136    3.7321    0.0000 C   0  0  0  0  0  0  0  0  0  0  0  0
   -3.2126   -0.0179    0.0000 O   0  0  0  0  0  0  0  0  0  0  0  0
   -0.6145    4.4821    0.0000 O   0  0  0  0  0  0  0  0  0  0  0  0
    3.2826   -0.7679    0.0000 O   0  0  0  0  0  0  0  0  0  0  0  0
    3.2832    2.2328    0.0000 O   0  0  0  0  0  0  0  0  0  0  0  0
   -4.5117    2.2321    0.0000 O   0  0  0  0  0  0  0  0  0  0  0  0
   -3.2126    4.4821    0.0000 O   0  0  0  0  0  0  0  0  0  0  0  0
  6  5  2  0
  8  5  1  0
  8  7  2  0
  9  6  1  0
 10  7  1  0
 10  9  2  0
 11  8  1  0
 12 11  1  0
 13 11  1  0
 14 12  2  0
 15 13  2  0
 16  1  1  0
 16  9  1  0
 17  2  1  0
 17 10  1  0
 18  3  1  0
 18 12  1  0
 19  4  1  0
 19 13  1  0
M  END
>  <NAME>  (4575) 
DIMETHYL 2-(3,4-DIMETHOXYPHENYL)MALONATE

>  <SYNONYMS>  (4575) 


>  <SPECTRUM TYPE>  (4575) 
MS1

>  <INSTRUMENT TYPE>  (4575) 
EI-B

>  <INSTRUMENT>  (4575) 
JEOL JMS-HX-100

>  <ION MODE>  (4575) 
P

>  <INCHIKEY>  (4575) 
XAVJSXAJKRURQW-UHFFFAOYSA-N

>  <FORMULA>  (4575) 
C13H16O6

>  <EXACT MASS>  (4575) 
268.09468823199995

>  <MW>  (4575) 
268

>  <ID>  (4575) 
JP005140

>  <CONTRIBUTOR>  (4575) 
University of Tokyo Team, {Faculty of Engineering, University of Tokyo

>  <COMMENT>  (4575) 
SMILES=COC(=O)C(C(=O)OC)c(c1)cc(OC)c(OC)c1
InChI=InChI=1S/C13H16O6/c1-16-9-6-5-8(7-10(9)17-2)11(12(14)18-3)13(15)19-4/h5-7,11H,1-4H3
computed SMILES=O=C(OC)C(C(=O)OC)C1=CC=C(OC)C(OC)=C1
accession=JP005140
date=2016.01.19 (Created 2008.10.21, modified 2011.05.06)
author=HAYASHI A, FAC. OF SCIENCE AND TECHNOLOGY, KINKI UNIV.
license=CC BY-NC-SA
exact mass=268.09469
ionization energy=70 eV
ion type=[M]+*
computed spectral entropy=2.7038794301423272
computed normalized entropy=0.6343144472812403
SPLASH=splash10-0aor-1490000000-edcfa8eb01ed9806fe25
submitter=submitter = University of Tokyo Team (Faculty of Engineering, University of Tokyo)
MoNA Rating=3.75

>  <NUM PEAKS>  (4575) 
71

>  <MASS SPECTRAL PEAKS>  (4575) 
38 0.52
39 0.71
45 1.03
50 1.12
51 1.47
53 0.65
59 3.23
62 0.57
63 2.34
64 1.63
65 1.28
66 0.6
75 0.77
76 1.22
77 3.26
78 0.93
79 1.75
89 1.16
90 0.82
91 1.03
92 3.3
95 1.08
105 1.28
106 0.82
107 2.47
108 0.55
109 0.49
119 0.75
120 1.38
121 1.02
122 0.41
123 0.74
133 1.18
134 0.85
135 4.69
136 1.42
137 1.52
138 0.62
147 0.48
148 0.64
149 0.6
150 0.61
151 5.72
152 0.76
162 0.52
163 5.75
164 0.93
165 3.91
166 6.6
167 1.22
176 1.76
177 0.7
178 6.98
179 1.59
181 32.08
182 3.87
183 0.46
193 1.29
194 1.18
207 0.69
208 0.62
209 99.99
210 14.17
211 1.82
221 0.45
235 1
236 0.79
253 0.4
268 80.04
269 12.1
270 2.02

$$$$

     RDKit          2D

 21 22  0  0  0  0  0  0  0  0999 V2000
    4.8725   -0.2422    0.0000 C   0  0  0  0  0  0  0  0  0  0  0  0
    2.2730    2.7569    0.0000 C   0  0  0  0  0  0  0  0  0  0  0  0
   -5.5217    4.2565    0.0000 C   0  0  0  0  0  0  0  0  0  0  0  0
   -4.2222    5.0073    0.0000 C   0  0  0  0  0  0  0  0  0  0  0  0
   -5.5222    2.7557    0.0000 C   0  0  0  0  0  0  0  0  0  0  0  0
    0.9748   -2.4933    0.0000 C   0  0  0  0  0  0  0  0  0  0  0  0
   -2.9232    4.2573    0.0000 C   0  0  0  0  0  0  0  0  0  0  0  0
   -4.2232    2.0057    0.0000 C   0  0  0  0  0  0  0  0  0  0  0  0
   -0.3253   -1.7435    0.0000 C   0  0  0  0  0  0  0  0  0  0  0  0
    2.2747   -1.7431    0.0000 C   0  0  0  0  0  0  0  0  0  0  0  0
   -1.6246    2.0065    0.0000 C   0  0  0  0  0  0  0  0  0  0  0  0
   -2.9236    2.7565    0.0000 C   0  0  0  0  0  0  0  0  0  0  0  0
   -0.3256   -0.2435    0.0000 C   0  0  0  0  0  0  0  0  0  0  0  0
   -1.6246    0.5065    0.0000 C   0  0  0  0  0  0  0  0  0  0  0  0
    2.2744   -0.2431    0.0000 C   0  0  0  0  0  0  0  0  0  0  0  0
    0.9743    0.5067    0.0000 C   0  0  0  0  0  0  0  0  0  0  0  0
   -2.9236   -0.2435    0.0000 C   0  0  0  0  0  0  0  0  0  0  0  0
   -2.9236   -1.7435    0.0000 N   0  0  0  0  0  0  0  0  0  0  0  0
   -4.2227    0.5065    0.0000 O   0  0  0  0  0  0  0  0  0  0  0  0
    3.5732    0.5073    0.0000 O   0  0  0  0  0  0  0  0  0  0  0  0
    0.9741    2.0067    0.0000 O   0  0  0  0  0  0  0  0  0  0  0  0
  4  3  2  0
  5  3  1  0
  7  4  1  0
  8  5  2  0
  9  6  2  0
 10  6  1  0
 12  7  2  0
 12  8  1  0
 12 11  1  0
 13  9  1  0
 14 11  1  0
 14 13  1  0
 15 10  2  0
 16 13  2  0
 16 15  1  0
 17 14  1  0
 18 17  2  0
 19 17  1  0
 20  1  1  0
 20 15  1  0
 21  2  1  0
 21 16  1  0
M  END
>  <NAME>  (4576) 
2-(2,3-DIMETHOXYPHENYL)-3-PHENYLPROPANAMIDE

>  <SYNONYMS>  (4576) 


>  <SPECTRUM TYPE>  (4576) 
MS1

>  <INSTRUMENT TYPE>  (4576) 
EI-B

>  <INSTRUMENT>  (4576) 
JEOL JMS-HX-100

>  <ION MODE>  (4576) 
P

>  <INCHIKEY>  (4576) 
XLADAWOYVRSIJI-UHFFFAOYSA-N

>  <FORMULA>  (4576) 
C17H19NO3

>  <EXACT MASS>  (4576) 
285.136493468

>  <MW>  (4576) 
285

>  <ID>  (4576) 
JP005139

>  <CONTRIBUTOR>  (4576) 
University of Tokyo Team, {Faculty of Engineering, University of Tokyo

>  <COMMENT>  (4576) 
SMILES=COc(c2)c(OC)c(cc2)C(C(N)=O)Cc(c1)cccc1
InChI=InChI=1S/C17H19NO3/c1-20-15-10-6-9-13(16(15)21-2)14(17(18)19)11-12-7-4-3-5-8-12/h3-10,14H,11H2,1-2H3,(H2,18,19)
computed SMILES=N=C(O)C(C=1C=CC=C(OC)C1OC)CC=2C=CC=CC2
accession=JP005139
date=2016.01.19 (Created 2008.10.21, modified 2011.05.06)
author=HAYASHI A, FAC. OF SCIENCE AND TECHNOLOGY, KINKI UNIV.
license=CC BY-NC-SA
exact mass=285.13649
ionization energy=70 eV
ion type=[M]+*
computed spectral entropy=3.425892704463168
computed normalized entropy=0.7361241709648884
SPLASH=splash10-0006-1940000000-1c27da0f83e85bd1c67a
submitter=submitter = University of Tokyo Team (Faculty of Engineering, University of Tokyo)
MoNA Rating=3.75

>  <NUM PEAKS>  (4576) 
105

>  <MASS SPECTRAL PEAKS>  (4576) 
39 1.73
41 0.51
44 0.63
45 0.63
50 0.78
51 2.46
52 0.73
53 0.62
55 0.86
63 1.7
64 1.19
65 3.64
66 0.56
75 0.73
76 2
77 4.08
78 1.91
79 1.24
80 0.66
82 0.52
83 0.5
89 1.79
90 0.82
91 12.62
92 1.88
93 0.71
94 0.52
95 0.61
102 0.9
103 3.47
104 1.6
105 2.4
106 0.91
107 1.2
108 1.23
109 0.57
113 0.5
115 2.08
117 1.74
118 0.8
119 0.83
120 1.5
121 1.97
122 1.68
123 0.84
124 3.07
125 0.54
127 1.37
128 2.29
129 1.48
131 0.55
132 0.52
133 1
134 0.77
135 1.73
136 1.33
137 0.92
138 4.54
139 3.75
140 0.56
141 1.32
148 2.38
149 0.98
150 2.18
151 8.47
152 4.88
153 2.99
154 1.41
155 1.59
162 1.68
163 11.72
164 2.57
165 7.08
166 31.61
167 5.73
168 0.86
176 3.12
177 2.09
178 4.13
179 3.27
180 0.77
181 1.95
182 0.86
183 0.86
193 1.41
194 99.99
195 14.55
196 2.41
197 0.62
208 0.74
209 2.07
210 4.53
211 1.51
225 0.88
226 3.99
227 0.98
239 0.63
240 1.33
241 32.29
242 5.96
243 0.67
267 0.77
285 56.59
286 12.04
287 1.27

$$$$

     RDKit          2D

 26 27  0  0  0  0  0  0  0  0999 V2000
    1.9478    1.4446    0.0000 C   0  0  0  0  0  0  0  0  0  0  0  0
   -5.8449    8.9462    0.0000 C   0  0  0  0  0  0  0  0  0  0  0  0
   -1.9472    8.1956    0.0000 C   0  0  0  0  0  0  0  0  0  0  0  0
   -9.7435    3.6946    0.0000 C   0  0  0  0  0  0  0  0  0  0  0  0
   -9.7440    2.1938    0.0000 C   0  0  0  0  0  0  0  0  0  0  0  0
   -8.4440    4.4454    0.0000 C   0  0  0  0  0  0  0  0  0  0  0  0
   -8.4450    1.4438    0.0000 C   0  0  0  0  0  0  0  0  0  0  0  0
   -7.1449    3.6954    0.0000 C   0  0  0  0  0  0  0  0  0  0  0  0
   -5.8463    4.4448    0.0000 C   0  0  0  0  0  0  0  0  0  0  0  0
   -5.8456    5.9456    0.0000 C   0  0  0  0  0  0  0  0  0  0  0  0
   -5.8464    1.4446    0.0000 C   0  0  0  0  0  0  0  0  0  0  0  0
   -1.9493    2.1946    0.0000 C   0  0  0  0  0  0  0  0  0  0  0  0
    0.6488    2.1946    0.0000 C   0  0  0  0  0  0  0  0  0  0  0  0
   -7.1454    2.1946    0.0000 C   0  0  0  0  0  0  0  0  0  0  0  0
   -4.5474    3.6946    0.0000 C   0  0  0  0  0  0  0  0  0  0  0  0
   -4.5474    2.1946    0.0000 C   0  0  0  0  0  0  0  0  0  0  0  0
   -3.2483    1.4446    0.0000 C   0  0  0  0  0  0  0  0  0  0  0  0
   -4.5459    6.6962    0.0000 C   0  0  0  0  0  0  0  0  0  0  0  0
   -3.2477    4.4452    0.0000 C   0  0  0  0  0  0  0  0  0  0  0  0
   -3.2470    5.9460    0.0000 C   0  0  0  0  0  0  0  0  0  0  0  0
   -1.9488    3.6950    0.0000 Cl  0  0  0  0  0  0  0  0  0  0  0  0
    0.6488    3.6946    0.0000 O   0  0  0  0  0  0  0  0  0  0  0  0
   -3.2483   -0.0554    0.0000 O   0  0  0  0  0  0  0  0  0  0  0  0
   -4.5459    8.1962    0.0000 O   0  0  0  0  0  0  0  0  0  0  0  0
   -1.9477    6.6956    0.0000 O   0  0  0  0  0  0  0  0  0  0  0  0
   -0.6502    1.4446    0.0000 O   0  0  0  0  0  0  0  0  0  0  0  0
  5  4  2  0
  6  4  1  0
  7  5  1  0
  8  6  2  0
 10  9  2  0
 13  1  1  0
 14  7  2  0
 14  8  1  0
 14 11  1  0
 15  9  1  0
 16 11  1  0
 16 15  1  0
 17 12  1  0
 17 16  1  0
 18 10  1  0
 19 15  2  0
 20 18  2  0
 20 19  1  0
 21 19  1  0
 22 13  2  0
 23 17  2  0
 24  2  1  0
 24 18  1  0
 25  3  1  0
 25 20  1  0
 26 12  1  0
 26 13  1  0
M  END
>  <NAME>  (4577) 
1-ACETOXY-3-(2-CHLORO-3,4-DIMETHOXYPHENYL)-4-PHENYL-2-BUTANONE

>  <SYNONYMS>  (4577) 


>  <SPECTRUM TYPE>  (4577) 
MS1

>  <INSTRUMENT TYPE>  (4577) 
EI-B

>  <INSTRUMENT>  (4577) 
JEOL JMS-HX-100

>  <ION MODE>  (4577) 
P

>  <INCHIKEY>  (4577) 
IHZNCXSMDVOALJ-UHFFFAOYSA-N

>  <FORMULA>  (4577) 
C20H21ClO5

>  <EXACT MASS>  (4577) 
376.107751452

>  <MW>  (4577) 
376

>  <ID>  (4577) 
JP005138

>  <CONTRIBUTOR>  (4577) 
University of Tokyo Team, {Faculty of Engineering, University of Tokyo

>  <COMMENT>  (4577) 
SMILES=CC(=O)OCC(=O)C(Cc(c2)cccc2)c(c1)c(Cl)c(OC)c(OC)c1
InChI=InChI=1S/C20H21ClO5/c1-13(22)26-12-17(23)16(11-14-7-5-4-6-8-14)15-9-10-18(24-2)20(25-3)19(15)21/h4-10,16H,11-12H2,1-3H3
computed SMILES=O=C(OCC(=O)C(C1=CC=C(OC)C(OC)=C1Cl)CC=2C=CC=CC2)C
accession=JP005138
date=2016.01.19 (Created 2008.10.21, modified 2011.05.06)
author=HAYASHI A, FAC. OF SCIENCE AND TECHNOLOGY, KINKI UNIV.
license=CC BY-NC-SA
exact mass=376.10775
ionization energy=70 eV
ion type=[M]+*
computed spectral entropy=3.7530981579192426
computed normalized entropy=0.7984499169983317
SPLASH=splash10-004l-6591000000-4dfb5fcbb042e376fbf8
submitter=submitter = University of Tokyo Team (Faculty of Engineering, University of Tokyo)
MoNA Rating=3.75

>  <NUM PEAKS>  (4577) 
110

>  <MASS SPECTRAL PEAKS>  (4577) 
39 2.59
41 2.55
42 1.54
43 99.99
45 2.59
50 1.04
51 3.22
55 4
57 1.85
60 1.17
63 3.39
65 6.1
71 1.02
73 6.15
75 2.08
76 2.14
77 6.33
78 1.45
81 1.15
89 3
91 28.51
92 2.74
97 1.18
101 5.89
102 1.84
103 6.31
104 1.54
105 3.65
113 1.24
115 2.74
117 2.88
119 2.31
125 1.32
126 1.16
127 1.65
128 1.43
129 2.04
139 3.47
141 2.19
147 1.11
149 3.4
150 1.02
151 2.81
152 9.1
153 7.14
154 2.49
155 1.5
163 1.3
164 1.35
165 12.47
166 3.98
167 2.31
169 1.56
171 1.15
176 1.43
177 2.35
178 4.39
179 4.85
180 1.79
181 3.88
182 2.21
183 1.29
185 7.89
186 1.03
187 2.63
191 1.07
192 2.44
193 2.67
194 2.62
195 2.24
196 1.44
197 4.32
198 1.75
199 2.96
200 1.28
201 1.08
207 1.74
208 4.5
209 4.09
210 1.4
211 1.13
212 1.45
215 4.99
217 1.97
224 3.05
225 7.39
226 1.45
227 3.21
228 1.78
229 1.33
239 4.89
240 28.75
241 5.36
243 1.17
244 2.1
250 2.72
260 3.14
262 1.08
274 1.51
275 86.88
276 17.67
277 31.05
278 5.66
285 12.21
286 1.84
287 4.3
376 31.14
377 7.2
378 11.12
379 2.41

$$$$

     RDKit          2D

 22 23  0  0  0  0  0  0  0  0999 V2000
   -6.1354    0.5454    0.0000 C   0  0  0  0  0  0  0  0  0  0  0  0
   -3.5372   -2.4552    0.0000 C   0  0  0  0  0  0  0  0  0  0  0  0
    1.6588    6.5454    0.0000 C   0  0  0  0  0  0  0  0  0  0  0  0
    5.5559    4.2954    0.0000 C   0  0  0  0  0  0  0  0  0  0  0  0
    4.2564    5.0462    0.0000 C   0  0  0  0  0  0  0  0  0  0  0  0
    5.5564    2.7946    0.0000 C   0  0  0  0  0  0  0  0  0  0  0  0
    2.9574    4.2962    0.0000 C   0  0  0  0  0  0  0  0  0  0  0  0
    4.2574    2.0446    0.0000 C   0  0  0  0  0  0  0  0  0  0  0  0
   -2.2388    2.7962    0.0000 C   0  0  0  0  0  0  0  0  0  0  0  0
   -3.5378    2.0462    0.0000 C   0  0  0  0  0  0  0  0  0  0  0  0
    1.6588    2.0454    0.0000 C   0  0  0  0  0  0  0  0  0  0  0  0
   -0.9388    0.5446    0.0000 C   0  0  0  0  0  0  0  0  0  0  0  0
    2.9578    2.7954    0.0000 C   0  0  0  0  0  0  0  0  0  0  0  0
   -0.9393    2.0454    0.0000 C   0  0  0  0  0  0  0  0  0  0  0  0
    0.3598    2.7954    0.0000 C   0  0  0  0  0  0  0  0  0  0  0  0
   -3.5374    0.5454    0.0000 C   0  0  0  0  0  0  0  0  0  0  0  0
   -2.2378   -0.2054    0.0000 C   0  0  0  0  0  0  0  0  0  0  0  0
    0.3598    4.2954    0.0000 C   0  0  0  0  0  0  0  0  0  0  0  0
   -0.9393    5.0454    0.0000 O   0  0  0  0  0  0  0  0  0  0  0  0
   -4.8364   -0.2046    0.0000 O   0  0  0  0  0  0  0  0  0  0  0  0
   -2.2381   -1.7054    0.0000 O   0  0  0  0  0  0  0  0  0  0  0  0
    1.6588    5.0454    0.0000 O   0  0  0  0  0  0  0  0  0  0  0  0
  5  4  2  0
  6  4  1  0
  7  5  1  0
  8  6  2  0
 10  9  2  0
 13  7  2  0
 13  8  1  0
 13 11  1  0
 14  9  1  0
 14 12  2  0
 15 11  1  0
 15 14  1  0
 16 10  1  0
 17 12  1  0
 17 16  2  0
 18 15  1  0
 19 18  2  0
 20  1  1  0
 20 16  1  0
 21  2  1  0
 21 17  1  0
 22  3  1  0
 22 18  1  0
M  END
>  <NAME>  (4578) 
METHYL 3-PHENYL-2-(3,4-DIMETHOXYPHENYL)PROPIONATE

>  <SYNONYMS>  (4578) 


>  <SPECTRUM TYPE>  (4578) 
MS1

>  <INSTRUMENT TYPE>  (4578) 
EI-B

>  <INSTRUMENT>  (4578) 
JEOL JMS-HX-100

>  <ION MODE>  (4578) 
P

>  <INCHIKEY>  (4578) 
PTHKYMVDSUZYTR-UHFFFAOYSA-N

>  <FORMULA>  (4578) 
C18H20O4

>  <EXACT MASS>  (4578) 
300.13615912

>  <MW>  (4578) 
300

>  <ID>  (4578) 
JP005137

>  <CONTRIBUTOR>  (4578) 
University of Tokyo Team, {Faculty of Engineering, University of Tokyo

>  <COMMENT>  (4578) 
SMILES=COC(=O)C(Cc(c2)cccc2)c(c1)cc(OC)c(OC)c1
InChI=InChI=1S/C18H20O4/c1-20-16-10-9-14(12-17(16)21-2)15(18(19)22-3)11-13-7-5-4-6-8-13/h4-10,12,15H,11H2,1-3H3
computed SMILES=O=C(OC)C(C1=CC=C(OC)C(OC)=C1)CC=2C=CC=CC2
accession=JP005137
date=2016.01.19 (Created 2008.10.21, modified 2011.05.06)
author=HAYASHI A, FAC. OF SCIENCE AND TECHNOLOGY, KINKI UNIV.
license=CC BY-NC-SA
exact mass=300.13616
ionization energy=70 eV
ion type=[M]+*
computed spectral entropy=2.7699110057581593
computed normalized entropy=0.6519746046419083
SPLASH=splash10-0a4i-2492000000-f272a500bdd26cf331f2
submitter=submitter = University of Tokyo Team (Faculty of Engineering, University of Tokyo)
MoNA Rating=3.75

>  <NUM PEAKS>  (4578) 
70

>  <MASS SPECTRAL PEAKS>  (4578) 
39 0.91
43 0.43
45 0.9
50 0.44
51 1.77
52 0.47
58 0.44
59 0.39
63 1.59
64 1.18
65 2.6
75 0.53
76 1.6
77 3.25
78 1.36
79 0.54
89 1.45
90 0.66
91 9.7
92 1.23
102 0.71
103 1.73
104 0.42
105 1.05
107 0.64
115 0.96
120 1.06
121 0.58
127 0.54
128 1.16
133 0.4
135 1.48
136 0.54
137 0.58
138 0.44
141 0.45
149 0.43
150 0.41
151 3.78
152 1.97
153 1.5
154 0.63
155 0.84
163 2.5
164 0.95
165 4.91
166 5.34
167 0.96
168 0.4
177 0.64
178 3.8
179 1.46
181 20.59
182 2.53
183 0.7
193 0.69
194 1.2
195 0.83
209 99.99
210 14.38
211 2.15
225 0.45
226 0.95
239 0.6
240 0.58
241 8.6
242 1.38
300 31.38
301 6.64
302 0.88

$$$$

     RDKit          2D

 19 20  0  0  0  0  0  0  0  0999 V2000
    0.9966    5.4825    0.0000 C   0  0  0  0  0  0  0  0  0  0  0  0
    2.2795    4.7548    0.0000 C   0  0  0  0  0  0  0  0  0  0  0  0
    4.8981   -1.2372    0.0000 C   0  0  0  0  0  0  0  0  0  0  0  0
   -0.2804    4.7301    0.0000 C   0  0  0  0  0  0  0  0  0  0  0  0
    3.5963   -1.9841    0.0000 C   0  0  0  0  0  0  0  0  0  0  0  0
    4.9016    0.2628    0.0000 C   0  0  0  0  0  0  0  0  0  0  0  0
    2.3157    3.2552    0.0000 C   0  0  0  0  0  0  0  0  0  0  0  0
   -1.5693    2.4925    0.0000 C   0  0  0  0  0  0  0  0  0  0  0  0
   -0.2746    3.2500    0.0000 C   0  0  0  0  0  0  0  0  0  0  0  0
    2.2981   -1.2310    0.0000 C   0  0  0  0  0  0  0  0  0  0  0  0
    3.6034    1.0159    0.0000 C   0  0  0  0  0  0  0  0  0  0  0  0
    1.0083    2.5222    0.0000 C   0  0  0  0  0  0  0  0  0  0  0  0
   -2.8726    3.2350    0.0000 C   0  0  0  0  0  0  0  0  0  0  0  0
    2.3017    0.2690    0.0000 C   0  0  0  0  0  0  0  0  0  0  0  0
    0.9974   -1.9782    0.0000 Cl  0  0  0  0  0  0  0  0  0  0  0  0
    3.6070    2.5159    0.0000 Cl  0  0  0  0  0  0  0  0  0  0  0  0
    1.0045    1.0222    0.0000 N   0  0  0  0  0  0  0  0  0  0  0  0
   -2.8813    4.7349    0.0000 O   0  0  0  0  0  0  0  0  0  0  0  0
   -4.1673    2.4775    0.0000 O   0  0  0  0  0  0  0  0  0  0  0  0
  2  1  2  0
  4  1  1  0
  5  3  2  0
  6  3  1  0
  7  2  1  0
  9  4  2  0
  9  8  1  0
 10  5  1  0
 11  6  2  0
 12  7  2  0
 12  9  1  0
 13  8  1  0
 14 10  2  0
 14 11  1  0
 15 10  1  0
 16 11  1  0
 17 12  1  0
 17 14  1  0
 18 13  2  0
 19 13  1  0
M  END
>  <NAME>  (4579) 
2-(2,6-DICHLOROANILINO)PHENYLACETIC ACID

>  <SYNONYMS>  (4579) 


>  <SPECTRUM TYPE>  (4579) 
MS1

>  <INSTRUMENT TYPE>  (4579) 
EI-B

>  <INSTRUMENT>  (4579) 
JEOL JMS-HX-100

>  <ION MODE>  (4579) 
P

>  <INCHIKEY>  (4579) 
DCOPUUMXTXDBNB-UHFFFAOYSA-N

>  <FORMULA>  (4579) 
C14H11Cl2NO2

>  <EXACT MASS>  (4579) 
295.016683952

>  <MW>  (4579) 
295

>  <ID>  (4579) 
JP005136

>  <CONTRIBUTOR>  (4579) 
University of Tokyo Team, {Faculty of Engineering, University of Tokyo

>  <COMMENT>  (4579) 
SMILES=OC(=O)Cc(c2)c(ccc2)Nc(c(Cl)1)c(Cl)ccc1
InChI=InChI=1S/C14H11Cl2NO2/c15-10-5-3-6-11(16)14(10)17-12-7-2-1-4-9(12)8-13(18)19/h1-7,17H,8H2,(H,18,19)
computed SMILES=O=C(O)CC=1C=CC=CC1NC=2C(Cl)=CC=CC2Cl
accession=JP005136
date=2016.01.19 (Created 2008.10.21, modified 2011.05.06)
author=HAYASHI A, FAC. OF SCIENCE AND TECHNOLOGY, KINKI UNIV.
license=CC BY-NC-SA
exact mass=295.01668
ionization energy=70 eV
ion type=[M]+*
computed spectral entropy=3.7709446749655116
computed normalized entropy=0.7849559025349552
SPLASH=splash10-03xv-3390000000-cd724f772f8ff3648856
submitter=submitter = University of Tokyo Team (Faculty of Engineering, University of Tokyo)
MoNA Rating=3.75

>  <NUM PEAKS>  (4579) 
122

>  <MASS SPECTRAL PEAKS>  (4579) 
35 1.59
38 1.47
39 8.35
40 0.94
41 2.18
42 0.53
43 1.69
44 1.31
45 3.65
50 3.79
51 10.02
52 4.93
53 2.17
55 1.26
56 0.61
57 1.53
61 0.84
62 2.64
63 8.42
64 2.6
65 2.76
66 0.57
67 0.53
69 1.33
71 0.82
73 1.73
74 3.17
75 6.5
76 8.07
77 11.34
78 6.77
79 1.84
81 0.76
83 0.58
84 0.71
85 0.85
86 0.68
87 1.14
88 1.78
89 10.25
90 5.17
91 1.43
93 1.57
94 0.95
97 0.6
98 0.67
99 1.21
100 1.07
101 1.22
102 1.07
103 0.55
104 1.1
105 0.61
106 3.11
107 7.72
108 2.82
109 2.88
110 0.85
111 1.8
113 0.83
114 0.64
115 0.6
124 2.68
125 1.73
126 1.65
127 1.56
128 1.13
133 0.67
135 0.6
136 0.81
138 0.85
139 1.01
140 0.95
145 1.21
147 0.86
149 1.11
150 2.62
151 10.15
152 6.46
153 1.81
154 0.62
161 0.5
164 1.41
165 0.82
166 1.3
167 0.68
174 0.54
176 1.39
177 8.21
178 12.12
179 16.39
180 8.36
181 2.01
186 0.51
201 1.17
212 0.76
213 4.88
214 99.99
215 27.73
216 40.27
217 9.28
218 1.5
241 0.61
242 39.02
243 6.77
244 13.3
245 2.14
248 1.09
250 1.92
251 0.53
252 0.94
277 4.8
278 0.97
279 3.23
280 0.57
281 0.56
295 38.54
296 6.52
297 25.2
298 4.14
299 4.64
300 0.75

$$$$

     RDKit          2D

 18 19  0  0  0  0  0  0  0  0999 V2000
    2.5987    3.0002    0.0000 C   0  0  0  0  0  0  0  0  0  0  0  0
   -7.7948   -3.0010    0.0000 C   0  0  0  0  0  0  0  0  0  0  0  0
   -6.4952   -3.7517    0.0000 C   0  0  0  0  0  0  0  0  0  0  0  0
   -7.7956   -1.5002    0.0000 C   0  0  0  0  0  0  0  0  0  0  0  0
   -5.1963   -3.0015    0.0000 C   0  0  0  0  0  0  0  0  0  0  0  0
   -6.4966   -0.7500    0.0000 C   0  0  0  0  0  0  0  0  0  0  0  0
   -1.3000    0.7500    0.0000 C   0  0  0  0  0  0  0  0  0  0  0  0
    0.0000    1.5000    0.0000 C   0  0  0  0  0  0  0  0  0  0  0  0
   -0.0000   -1.5000    0.0000 C   0  0  0  0  0  0  0  0  0  0  0  0
   -3.8981   -0.7504    0.0000 C   0  0  0  0  0  0  0  0  0  0  0  0
    2.5989    1.5002    0.0000 C   0  0  0  0  0  0  0  0  0  0  0  0
   -5.1970   -1.5006    0.0000 C   0  0  0  0  0  0  0  0  0  0  0  0
   -1.3000   -0.7500    0.0000 C   0  0  0  0  0  0  0  0  0  0  0  0
    1.3000    0.7500    0.0000 C   0  0  0  0  0  0  0  0  0  0  0  0
    1.3000   -0.7500    0.0000 C   0  0  0  0  0  0  0  0  0  0  0  0
    3.8981    0.7504    0.0000 O   0  0  0  0  0  0  0  0  0  0  0  0
    2.5989   -1.5002    0.0000 O   0  0  0  0  0  0  0  0  0  0  0  0
   -2.5989   -1.5002    0.0000 O   0  0  0  0  0  0  0  0  0  0  0  0
  3  2  2  0
  4  2  1  0
  5  3  1  0
  6  4  2  0
  8  7  2  0
 11  1  1  0
 12  5  2  0
 12  6  1  0
 12 10  1  0
 13  7  1  0
 13  9  2  0
 14  8  1  0
 14 11  1  0
 15  9  1  0
 15 14  2  0
 16 11  2  0
 17 15  1  0
 18 10  1  0
 18 13  1  0
M  END
>  <NAME>  (4580) 
1-ACETYL-2-HYDROXY-4-BENZYLOXYBENZENE

>  <SYNONYMS>  (4580) 


>  <SPECTRUM TYPE>  (4580) 
MS1

>  <INSTRUMENT TYPE>  (4580) 
EI-B

>  <INSTRUMENT>  (4580) 
JEOL JMS-HX-100

>  <ION MODE>  (4580) 
P

>  <INCHIKEY>  (4580) 
AGQNLHOTLJFJCG-UHFFFAOYSA-N

>  <FORMULA>  (4580) 
C15H14O3

>  <EXACT MASS>  (4580) 
242.09429430799997

>  <MW>  (4580) 
242

>  <ID>  (4580) 
JP005135

>  <CONTRIBUTOR>  (4580) 
University of Tokyo Team, {Faculty of Engineering, University of Tokyo

>  <COMMENT>  (4580) 
SMILES=CC(=O)c(c1)c(O)cc(OCc(c2)cccc2)c1
InChI=InChI=1S/C15H14O3/c1-11(16)14-8-7-13(9-15(14)17)18-10-12-5-3-2-4-6-12/h2-9,17H,10H2,1H3
computed SMILES=O=C(C1=CC=C(OCC=2C=CC=CC2)C=C1O)C
accession=JP005135
date=2016.01.19 (Created 2008.10.21, modified 2011.05.06)
author=HAYASHI A, FAC. OF SCIENCE AND TECHNOLOGY, KINKI UNIV.
license=CC BY-NC-SA
exact mass=242.09429
ionization energy=70 eV
ion type=[M]+*
computed spectral entropy=2.1824387438992714
computed normalized entropy=0.5086725032215004
SPLASH=splash10-0006-9030000000-3ed128357bdb65415452
submitter=submitter = University of Tokyo Team (Faculty of Engineering, University of Tokyo)
MoNA Rating=3.75

>  <NUM PEAKS>  (4580) 
73

>  <MASS SPECTRAL PEAKS>  (4580) 
38 0.45
39 2.76
40 0.35
41 0.99
42 0.26
43 2.95
50 0.76
51 1.98
52 1.06
53 0.65
55 0.39
56 0.17
57 0.44
61 0.33
62 0.47
63 1.95
64 0.8
65 8.1
66 0.73
67 0.52
68 0.25
69 0.41
70 0.38
71 0.31
75 0.29
76 0.28
77 1.59
78 0.33
79 0.51
80 0.41
81 0.19
82 0.3
83 0.22
85 0.16
89 1.5
90 0.85
91 99.99
92 8.57
93 0.54
95 0.51
97 0.18
105 0.91
108 1.26
109 0.25
111 0.27
113 0.27
115 0.5
118 0.29
120 0.29
121 0.84
123 1.03
128 0.33
129 0.36
136 0.3
137 0.7
141 0.36
149 0.57
152 0.37
153 0.24
157 0.27
164 0.42
165 0.25
181 0.25
197 0.28
198 0.26
199 0.8
200 0.33
225 0.24
227 2.32
228 0.47
242 39.91
243 6.68
244 0.92

$$$$

     RDKit          2D

 11 11  0  0  0  0  0  0  0  0999 V2000
    2.5987    3.0002    0.0000 C   0  0  0  0  0  0  0  0  0  0  0  0
   -1.3000    0.7500    0.0000 C   0  0  0  0  0  0  0  0  0  0  0  0
    0.0000    1.5000    0.0000 C   0  0  0  0  0  0  0  0  0  0  0  0
   -0.0000   -1.5000    0.0000 C   0  0  0  0  0  0  0  0  0  0  0  0
    2.5989    1.5002    0.0000 C   0  0  0  0  0  0  0  0  0  0  0  0
   -1.3000   -0.7500    0.0000 C   0  0  0  0  0  0  0  0  0  0  0  0
    1.3000    0.7500    0.0000 C   0  0  0  0  0  0  0  0  0  0  0  0
    1.3000   -0.7500    0.0000 C   0  0  0  0  0  0  0  0  0  0  0  0
    3.8981    0.7504    0.0000 O   0  0  0  0  0  0  0  0  0  0  0  0
   -2.5989   -1.5002    0.0000 O   0  0  0  0  0  0  0  0  0  0  0  0
    2.5989   -1.5002    0.0000 O   0  0  0  0  0  0  0  0  0  0  0  0
  3  2  2  0
  5  1  1  0
  6  2  1  0
  6  4  2  0
  7  3  1  0
  7  5  1  0
  8  4  1  0
  8  7  2  0
  9  5  2  0
 10  6  1  0
 11  8  1  0
M  END
>  <NAME>  (4581) 
1-ACETYL-2,4-DIHYDROXYBENZENE

>  <SYNONYMS>  (4581) 


>  <SPECTRUM TYPE>  (4581) 
MS1

>  <INSTRUMENT TYPE>  (4581) 
EI-B

>  <INSTRUMENT>  (4581) 
JEOL JMS-HX-100

>  <ION MODE>  (4581) 
P

>  <INCHIKEY>  (4581) 
SULYEHHGGXARJS-UHFFFAOYSA-N

>  <FORMULA>  (4581) 
C8H8O3

>  <EXACT MASS>  (4581) 
152.04734411599998

>  <MW>  (4581) 
152

>  <ID>  (4581) 
JP005134

>  <CONTRIBUTOR>  (4581) 
University of Tokyo Team, {Faculty of Engineering, University of Tokyo

>  <COMMENT>  (4581) 
SMILES=CC(=O)c(c1)c(O)cc(O)c1
cas=89-84-9
InChI=InChI=1S/C8H8O3/c1-5(9)7-3-2-6(10)4-8(7)11/h2-4,10-11H,1H3
computed SMILES=O=C(C1=CC=C(O)C=C1O)C
accession=JP005134
date=2016.01.19 (Created 2008.10.21, modified 2011.05.06)
author=HAYASHI A, FAC. OF SCIENCE AND TECHNOLOGY, KINKI UNIV.
license=CC BY-NC-SA
exact mass=152.04734
ionization energy=70 eV
ion type=[M]+*
computed spectral entropy=2.3141727179006915
computed normalized entropy=0.5376714031473675
SPLASH=splash10-0f79-2900000000-eb08d342b85b33b724f7
submitter=submitter = University of Tokyo Team (Faculty of Engineering, University of Tokyo)
MoNA Rating=3.75

>  <NUM PEAKS>  (4581) 
74

>  <MASS SPECTRAL PEAKS>  (4581) 
37 0.56
38 1.15
39 3.12
41 1.15
42 0.97
43 7.04
45 0.17
46 0.12
47 0.15
49 0.41
50 1.86
51 2.91
52 2.08
53 3.75
54 0.68
55 1.54
56 0.24
57 0.71
58 0.11
60 0.17
61 0.58
62 2.22
63 2.28
64 0.48
65 0.76
66 0.7
67 0.54
68 0.98
70 0.25
71 0.5
72 0.13
73 0.2
74 0.31
75 0.23
76 0.37
77 1.51
78 0.56
79 0.97
80 0.95
81 8.61
82 0.64
83 0.21
85 0.35
87 0.22
89 0.13
90 0.14
91 0.29
92 0.31
94 0.16
95 0.63
97 0.21
104 0.19
105 0.9
106 0.27
107 0.12
108 1.75
109 2.08
110 0.6
111 0.17
121 0.22
123 1.73
125 0.19
126 0.16
129 0.12
134 0.25
136 0.26
137 99.99
138 9.49
139 1.16
140 0.14
149 1.39
152 51.1
153 5.35
154 0.55

$$$$

     RDKit          2D

 14 15  0  0  0  0  0  0  0  0999 V2000
    7.4270    2.7906    0.0000 C   0  0  0  0  0  0  0  0  0  0  0  0
   -1.6700   -0.9600    0.0000 C   0  0  0  0  0  0  0  0  0  0  0  0
    6.1270    3.5406    0.0000 C   0  0  0  0  0  0  0  0  0  0  0  0
    7.4270    1.2906    0.0000 C   0  0  0  0  0  0  0  0  0  0  0  0
   -0.3700   -1.7100    0.0000 C   0  0  0  0  0  0  0  0  0  0  0  0
   -1.6700    0.5400    0.0000 C   0  0  0  0  0  0  0  0  0  0  0  0
    4.8270    2.7906    0.0000 C   0  0  0  0  0  0  0  0  0  0  0  0
    6.1270    0.5406    0.0000 C   0  0  0  0  0  0  0  0  0  0  0  0
    0.9300   -0.9600    0.0000 C   0  0  0  0  0  0  0  0  0  0  0  0
   -0.3700    1.2900    0.0000 C   0  0  0  0  0  0  0  0  0  0  0  0
    4.8270    1.2906    0.0000 C   0  0  0  0  0  0  0  0  0  0  0  0
    0.9300    0.5400    0.0000 C   0  0  0  0  0  0  0  0  0  0  0  0
    3.5281    0.5404    0.0000 S   0  0  0  0  0  0  0  0  0  0  0  0
    2.2289    1.2902    0.0000 S   0  0  0  0  0  0  0  0  0  0  0  0
  3  1  2  0
  4  1  1  0
  5  2  2  0
  6  2  1  0
  7  3  1  0
  8  4  2  0
  9  5  1  0
 10  6  2  0
 11  7  2  0
 11  8  1  0
 12  9  2  0
 12 10  1  0
 13 11  1  0
 14 12  1  0
 14 13  1  0
M  END
>  <NAME>  (4582) 
DIPHENYLDISULFIDE

>  <SYNONYMS>  (4582) 


>  <SPECTRUM TYPE>  (4582) 
MS1

>  <INSTRUMENT TYPE>  (4582) 
EI-B

>  <INSTRUMENT>  (4582) 
JEOL JMS-HX-100

>  <ION MODE>  (4582) 
P

>  <INCHIKEY>  (4582) 
GUUVPOWQJOLRAS-UHFFFAOYSA-N

>  <FORMULA>  (4582) 
C12H10S2

>  <EXACT MASS>  (4582) 
218.02239232

>  <MW>  (4582) 
218

>  <ID>  (4582) 
JP005133

>  <CONTRIBUTOR>  (4582) 
University of Tokyo Team, {Faculty of Engineering, University of Tokyo

>  <COMMENT>  (4582) 
SMILES=c(c2)ccc(c2)SSc(c1)cccc1
cas=882-33-7
InChI=InChI=1S/C12H10S2/c1-3-7-11(8-4-1)13-14-12-9-5-2-6-10-12/h1-10H
computed SMILES=S(SC=1C=CC=CC1)C=2C=CC=CC2
accession=JP005133
date=2016.01.19 (Created 2008.10.21, modified 2011.05.06)
author=HAYASHI A, FAC. OF SCIENCE AND TECHNOLOGY, KINKI UNIV.
license=CC BY-NC-SA
exact mass=218.02239
ionization energy=70 eV
ion type=[M]+*
computed spectral entropy=2.9711462131472883
computed normalized entropy=0.7381084788158394
SPLASH=splash10-066r-8950000000-606fa4f2d89db624bc13
submitter=submitter = University of Tokyo Team (Faculty of Engineering, University of Tokyo)
MoNA Rating=3.75

>  <NUM PEAKS>  (4582) 
56

>  <MASS SPECTRAL PEAKS>  (4582) 
37 0.72
38 2.77
39 22.29
40 0.67
44 1.24
45 7.53
50 5.89
51 15.84
52 1.33
57 2.17
58 3
59 1.65
61 0.61
62 1.72
63 5.48
64 1.02
65 43.34
66 3.92
69 17.72
70 1.36
71 1.33
74 1.84
75 1.78
76 1.07
77 12.98
78 1.92
81 1.72
82 4.94
83 2.7
84 0.86
93 0.66
96 0.96
97 1.11
107 0.56
108 9.36
109 99.99
110 11.51
111 6.19
112 0.5
140 7.06
141 5.48
142 1.07
152 1.4
153 1.44
154 18.07
155 2.55
184 5.61
185 13.59
186 3.82
187 1.02
217 1.29
218 91.25
219 16.62
220 11.28
221 1.59
222 0.39

$$$$

     RDKit          2D

 24 24  0  0  0  0  0  0  0  0999 V2000
   15.0079   -5.5812    0.0000 C   0  0  0  0  0  0  0  0  0  0  0  0
   -7.0764   -6.3294    0.0000 C   0  0  0  0  0  0  0  0  0  0  0  0
   13.7087   -6.3310    0.0000 C   0  0  0  0  0  0  0  0  0  0  0  0
   12.4098   -5.5808    0.0000 C   0  0  0  0  0  0  0  0  0  0  0  0
   11.1106   -6.3306    0.0000 C   0  0  0  0  0  0  0  0  0  0  0  0
    9.8117   -5.5804    0.0000 C   0  0  0  0  0  0  0  0  0  0  0  0
    8.5125   -6.3302    0.0000 C   0  0  0  0  0  0  0  0  0  0  0  0
    7.2136   -5.5800    0.0000 C   0  0  0  0  0  0  0  0  0  0  0  0
    5.9145   -6.3298    0.0000 C   0  0  0  0  0  0  0  0  0  0  0  0
    4.6156   -5.5796    0.0000 C   0  0  0  0  0  0  0  0  0  0  0  0
    3.3164   -6.3294    0.0000 C   0  0  0  0  0  0  0  0  0  0  0  0
    2.0175   -5.5792    0.0000 C   0  0  0  0  0  0  0  0  0  0  0  0
    0.7183   -6.3290    0.0000 C   0  0  0  0  0  0  0  0  0  0  0  0
   -3.1798   -8.5802    0.0000 C   0  0  0  0  0  0  0  0  0  0  0  0
   -0.5806   -5.5788    0.0000 C   0  0  0  0  0  0  0  0  0  0  0  0
   -1.8802   -7.8294    0.0000 C   0  0  0  0  0  0  0  0  0  0  0  0
   -4.4788   -7.8302    0.0000 C   0  0  0  0  0  0  0  0  0  0  0  0
   -1.8798   -6.3285    0.0000 C   0  0  0  0  0  0  0  0  0  0  0  0
   -4.4783   -6.3294    0.0000 C   0  0  0  0  0  0  0  0  0  0  0  0
   -3.1788   -5.5785    0.0000 C   0  0  0  0  0  0  0  0  0  0  0  0
   -3.1790   -4.0785    0.0000 C   0  0  0  0  0  0  0  0  0  0  0  0
   -1.8801   -3.3283    0.0000 O   0  0  0  0  0  0  0  0  0  0  0  0
   -4.4782   -3.3288    0.0000 O   0  0  0  0  0  0  0  0  0  0  0  0
   -5.7774   -5.5794    0.0000 O   0  0  0  0  0  0  0  0  0  0  0  0
  3  1  1  0
  4  3  1  0
  5  4  1  0
  6  5  1  0
  7  6  1  0
  8  7  1  0
  9  8  1  0
 10  9  1  0
 11 10  1  0
 12 11  1  0
 13 12  1  0
 15 13  1  0
 16 14  2  0
 17 14  1  0
 18 15  1  0
 18 16  1  0
 19 17  2  0
 20 18  2  0
 20 19  1  0
 21 20  1  0
 22 21  2  0
 23 21  1  0
 24  2  1  0
 24 19  1  0
M  END
>  <NAME>  (4583) 
2-TRIDECYL-6-METHOXYBENZOIC ACID

>  <SYNONYMS>  (4583) 


>  <SPECTRUM TYPE>  (4583) 
MS1

>  <INSTRUMENT TYPE>  (4583) 
EI-B

>  <INSTRUMENT>  (4583) 
JEOL JMS-HX-100

>  <ION MODE>  (4583) 
P

>  <INCHIKEY>  (4583) 
DDGQLWOLBRRZGR-UHFFFAOYSA-N

>  <FORMULA>  (4583) 
C21H34O3

>  <EXACT MASS>  (4583) 
334.25079494799996

>  <MW>  (4583) 
334

>  <ID>  (4583) 
JP005132

>  <CONTRIBUTOR>  (4583) 
University of Tokyo Team, {Faculty of Engineering, University of Tokyo

>  <COMMENT>  (4583) 
SMILES=CCCCCCCCCCCCCc(c1)c(C(O)=O)c(OC)cc1
InChI=InChI=1S/C21H34O3/c1-3-4-5-6-7-8-9-10-11-12-13-15-18-16-14-17-19(24-2)20(18)21(22)23/h14,16-17H,3-13,15H2,1-2H3,(H,22,23)
computed SMILES=O=C(O)C=1C(OC)=CC=CC1CCCCCCCCCCCCC
accession=JP005132
date=2016.01.19 (Created 2008.10.21, modified 2011.05.06)
author=HAYASHI A, FAC. OF SCIENCE AND TECHNOLOGY, KINKI UNIV.
license=CC BY-NC-SA
exact mass=334.25079
ionization energy=70 eV
ion type=[M]+*
computed spectral entropy=3.9513994791069944
computed normalized entropy=0.8239307871222555
SPLASH=splash10-03ec-4902000000-53b1dedec19d88186905
submitter=submitter = University of Tokyo Team (Faculty of Engineering, University of Tokyo)
MoNA Rating=3.75

>  <NUM PEAKS>  (4583) 
121

>  <MASS SPECTRAL PEAKS>  (4583) 
39 5.06
40 1.05
41 31.4
42 5.78
43 43.13
44 1.71
51 2.19
53 2.8
54 1.4
55 15.3
56 3.62
57 13.78
63 1.32
65 4.06
66 1.4
67 2.98
68 1
69 4.96
70 1.24
71 2.45
76 1.1
77 10.55
78 4.91
79 7.61
80 1.03
81 2.01
83 1.52
89 3.13
90 8.12
91 14.45
92 2.72
93 1.85
94 1.6
95 1.28
97 1.19
102 1.52
103 6.94
104 3.12
105 10.2
106 2.06
107 9.69
108 2.77
109 2.28
115 5.38
116 2.28
117 3.12
118 5.66
119 3.74
120 2.16
121 22.2
122 15.05
123 2.08
127 1.32
128 2.45
129 2.73
130 2.02
131 4.35
132 3.53
133 6.51
134 6
135 8.92
136 1.74
144 1.87
145 2.8
146 5.84
147 10.71
148 20.93
149 5.89
150 4.29
151 4.69
152 1.28
157 1.08
158 1.73
159 4.15
160 4.54
161 93.68
162 22.93
163 6.54
164 2.43
165 18.08
166 40.26
167 4.19
171 1.52
173 2.37
174 3.51
175 18.64
176 6.7
177 6.87
178 3.27
179 7.71
180 1.24
185 1.1
187 1.68
189 3.95
190 3.88
191 1.14
199 1.5
201 1.1
203 2.66
204 3.45
207 1.23
217 2.24
231 1.39
259 1.15
273 1.28
287 1.02
290 2.09
298 1.23
299 1.58
302 1.05
315 1.78
316 5.17
317 7.55
318 1.82
320 1.55
332 1
333 1.38
334 99.99
335 24.41
336 3.72
337 0.44

$$$$

     RDKit          2D

 23 23  0  0  0  0  0  0  0  0999 V2000
   14.6832   -5.7687    0.0000 C   0  0  0  0  0  0  0  0  0  0  0  0
   13.3840   -6.5185    0.0000 C   0  0  0  0  0  0  0  0  0  0  0  0
   12.0851   -5.7683    0.0000 C   0  0  0  0  0  0  0  0  0  0  0  0
   10.7860   -6.5181    0.0000 C   0  0  0  0  0  0  0  0  0  0  0  0
    9.4870   -5.7679    0.0000 C   0  0  0  0  0  0  0  0  0  0  0  0
    8.1879   -6.5177    0.0000 C   0  0  0  0  0  0  0  0  0  0  0  0
    6.8890   -5.7674    0.0000 C   0  0  0  0  0  0  0  0  0  0  0  0
    5.5898   -6.5172    0.0000 C   0  0  0  0  0  0  0  0  0  0  0  0
    4.2909   -5.7670    0.0000 C   0  0  0  0  0  0  0  0  0  0  0  0
    2.9917   -6.5168    0.0000 C   0  0  0  0  0  0  0  0  0  0  0  0
    1.6928   -5.7666    0.0000 C   0  0  0  0  0  0  0  0  0  0  0  0
    0.3936   -6.5164    0.0000 C   0  0  0  0  0  0  0  0  0  0  0  0
   -3.5044   -8.7677    0.0000 C   0  0  0  0  0  0  0  0  0  0  0  0
   -0.9053   -5.7662    0.0000 C   0  0  0  0  0  0  0  0  0  0  0  0
   -2.2049   -8.0168    0.0000 C   0  0  0  0  0  0  0  0  0  0  0  0
   -4.8035   -8.0177    0.0000 C   0  0  0  0  0  0  0  0  0  0  0  0
   -2.2044   -6.5160    0.0000 C   0  0  0  0  0  0  0  0  0  0  0  0
   -4.8030   -6.5168    0.0000 C   0  0  0  0  0  0  0  0  0  0  0  0
   -3.5035   -5.7660    0.0000 C   0  0  0  0  0  0  0  0  0  0  0  0
   -3.5037   -4.2660    0.0000 C   0  0  0  0  0  0  0  0  0  0  0  0
   -6.1020   -5.7668    0.0000 O   0  0  0  0  0  0  0  0  0  0  0  0
   -2.2048   -3.5158    0.0000 O   0  0  0  0  0  0  0  0  0  0  0  0
   -4.8029   -3.5162    0.0000 O   0  0  0  0  0  0  0  0  0  0  0  0
  2  1  1  0
  3  2  1  0
  4  3  1  0
  5  4  1  0
  6  5  1  0
  7  6  1  0
  8  7  1  0
  9  8  1  0
 10  9  1  0
 11 10  1  0
 12 11  1  0
 14 12  1  0
 15 13  2  0
 16 13  1  0
 17 14  1  0
 17 15  1  0
 18 16  2  0
 19 17  2  0
 19 18  1  0
 20 19  1  0
 21 18  1  0
 22 20  2  0
 23 20  1  0
M  END
>  <NAME>  (4584) 
2-TRIDECYL-6-HYDROXYBENZOIC ACID

>  <SYNONYMS>  (4584) 


>  <SPECTRUM TYPE>  (4584) 
MS1

>  <INSTRUMENT TYPE>  (4584) 
EI-B

>  <INSTRUMENT>  (4584) 
JEOL JMS-HX-100

>  <ION MODE>  (4584) 
P

>  <INCHIKEY>  (4584) 
VEPUCZUJLKAVNM-UHFFFAOYSA-N

>  <FORMULA>  (4584) 
C20H32O3

>  <EXACT MASS>  (4584) 
320.23514488399996

>  <MW>  (4584) 
320

>  <ID>  (4584) 
JP005131

>  <CONTRIBUTOR>  (4584) 
University of Tokyo Team, {Faculty of Engineering, University of Tokyo

>  <COMMENT>  (4584) 
SMILES=CCCCCCCCCCCCCc(c1)c(C(O)=O)c(O)cc1
InChI=InChI=1S/C20H32O3/c1-2-3-4-5-6-7-8-9-10-11-12-14-17-15-13-16-18(21)19(17)20(22)23/h13,15-16,21H,2-12,14H2,1H3,(H,22,23)
computed SMILES=O=C(O)C=1C(O)=CC=CC1CCCCCCCCCCCCC
ionization energy=70 eV
computed spectral entropy=4.277387262066551
computed normalized entropy=0.8631026087776575
ion type=[M]+*
accession=JP005131
date=2016.01.19 (Created 2008.10.21, modified 2011.05.06)
author=HAYASHI A, FAC. OF SCIENCE AND TECHNOLOGY, KINKI UNIV.
license=CC BY-NC-SA
exact mass=320.23514
SPLASH=splash10-0596-5912000000-e3210e2a3d493d9d31eb
submitter=submitter = University of Tokyo Team (Faculty of Engineering, University of Tokyo)
MoNA Rating=3.75

>  <NUM PEAKS>  (4584) 
142

>  <MASS SPECTRAL PEAKS>  (4584) 
39 9.85
40 1.76
41 50.92
42 8.76
43 61.24
44 3.41
45 1.17
51 4.91
52 1.91
53 4.57
54 2.15
55 25.5
56 5.07
57 19.35
58 0.85
59 1.11
60 1.3
63 1.89
64 1.13
65 6.74
66 2.7
67 7.39
68 1.83
69 8.89
70 1.86
71 3.32
73 1.05
76 1.09
77 19.97
78 9.89
79 7.65
80 1.46
81 4.79
82 1.14
83 3.32
85 1.33
89 3.22
90 2.86
91 18.14
92 4.11
93 2.63
94 1.65
95 5.18
97 2.23
102 1.57
103 5.6
104 3.07
105 50.12
106 9.92
107 24.86
108 11.36
109 2.2
115 4.54
116 2.14
117 2.98
118 7.58
119 7.61
120 7.82
121 7.64
122 2.17
123 1.81
127 2.29
128 1.7
129 2.16
130 1.72
131 5.95
132 8.16
133 18.65
134 40.04
135 9.34
136 5.62
143 1.11
144 5.69
145 11.17
146 20.86
147 50.04
148 23.29
149 9
150 1.7
151 20.38
152 22.77
153 2.19
157 4.73
158 5.29
159 7.38
160 10.99
161 33.81
162 14.69
163 3.27
164 1.49
165 2.71
171 4.54
172 4.71
173 5.93
174 5.56
175 12.59
176 6.29
177 1.63
183 1.17
185 8.65
186 4.37
187 3.29
188 3.05
189 7.19
190 1.9
199 7.49
200 4.24
201 1.86
202 1.3
203 3.15
213 4.24
214 1.66
217 2.23
227 4.01
228 2.11
231 3.52
241 3.14
242 1.49
245 5.48
246 1.95
255 2.65
256 1.77
259 9.33
260 2.75
269 1.47
273 11
274 3.04
276 2.43
284 7.87
285 4.33
286 1.15
287 1.59
301 1.99
302 31.61
303 7.24
304 1.87
308 1.52
318 2.9
319 1.48
320 99.99
321 22.05
322 3.3

$$$$

     RDKit          2D

 27 28  0  0  0  0  0  0  0  0999 V2000
  -17.2140    9.8820    0.0000 C   0  0  0  0  0  0  0  0  0  0  0  0
   -2.9227    9.1332    0.0000 C   0  0  0  0  0  0  0  0  0  0  0  0
   -4.2217    9.8832    0.0000 C   0  0  0  0  0  0  0  0  0  0  0  0
   -1.6236    9.8832    0.0000 C   0  0  0  0  0  0  0  0  0  0  0  0
   -5.5207    9.1332    0.0000 C   0  0  0  0  0  0  0  0  0  0  0  0
   -0.3246    9.1332    0.0000 C   0  0  0  0  0  0  0  0  0  0  0  0
   -6.8198    9.8832    0.0000 C   0  0  0  0  0  0  0  0  0  0  0  0
    0.9745    9.8832    0.0000 C   0  0  0  0  0  0  0  0  0  0  0  0
   -8.1188    9.1332    0.0000 C   0  0  0  0  0  0  0  0  0  0  0  0
    7.4696    7.6332    0.0000 C   0  0  0  0  0  0  0  0  0  0  0  0
    2.2735    9.1332    0.0000 C   0  0  0  0  0  0  0  0  0  0  0  0
    7.4701    9.1341    0.0000 C   0  0  0  0  0  0  0  0  0  0  0  0
    6.1701    6.8824    0.0000 C   0  0  0  0  0  0  0  0  0  0  0  0
   -9.4178    9.8832    0.0000 C   0  0  0  0  0  0  0  0  0  0  0  0
  -13.3163   12.1330    0.0000 C   0  0  0  0  0  0  0  0  0  0  0  0
    3.5725    9.8832    0.0000 C   0  0  0  0  0  0  0  0  0  0  0  0
    6.1711    9.8841    0.0000 C   0  0  0  0  0  0  0  0  0  0  0  0
    4.8711    7.6324    0.0000 C   0  0  0  0  0  0  0  0  0  0  0  0
  -10.7169    9.1332    0.0000 C   0  0  0  0  0  0  0  0  0  0  0  0
  -12.0162   11.3832    0.0000 C   0  0  0  0  0  0  0  0  0  0  0  0
  -14.6162   11.3828    0.0000 C   0  0  0  0  0  0  0  0  0  0  0  0
    4.8716    9.1332    0.0000 C   0  0  0  0  0  0  0  0  0  0  0  0
  -12.0159    9.8832    0.0000 C   0  0  0  0  0  0  0  0  0  0  0  0
  -14.6159    9.8828    0.0000 C   0  0  0  0  0  0  0  0  0  0  0  0
  -13.3158    9.1330    0.0000 C   0  0  0  0  0  0  0  0  0  0  0  0
  -13.3156    7.6330    0.0000 O   0  0  0  0  0  0  0  0  0  0  0  0
  -15.9147    9.1324    0.0000 O   0  0  0  0  0  0  0  0  0  0  0  0
  3  2  1  0
  4  2  1  0
  5  3  1  0
  6  4  1  0
  7  5  1  0
  8  6  1  0
  9  7  1  0
 11  8  1  0
 12 10  2  0
 13 10  1  0
 14  9  1  0
 16 11  1  0
 17 12  1  0
 18 13  2  0
 19 14  1  0
 20 15  2  0
 21 15  1  0
 22 16  1  0
 22 17  2  0
 22 18  1  0
 23 19  1  0
 23 20  1  0
 24 21  2  0
 25 23  2  0
 25 24  1  0
 26 25  1  0
 27  1  1  0
 27 24  1  0
M  END
>  <NAME>  (4585) 
1-(2-HYDROXY-3-METHOXYPHENYL)-12-PHENYLDODECANE

>  <SYNONYMS>  (4585) 


>  <SPECTRUM TYPE>  (4585) 
MS1

>  <INSTRUMENT TYPE>  (4585) 
EI-B

>  <INSTRUMENT>  (4585) 
JEOL JMS-HX-100

>  <ION MODE>  (4585) 
P

>  <INCHIKEY>  (4585) 
FVKLYKTYJMVZBN-UHFFFAOYSA-N

>  <FORMULA>  (4585) 
C25H36O2

>  <EXACT MASS>  (4585) 
368.271530392

>  <MW>  (4585) 
368

>  <ID>  (4585) 
JP005130

>  <CONTRIBUTOR>  (4585) 
University of Tokyo Team, {Faculty of Engineering, University of Tokyo

>  <COMMENT>  (4585) 
SMILES=C(CCCCCCc(c2)c(O)c(OC)cc2)CCCCCc(c1)cccc1
InChI=InChI=1S/C25H36O2/c1-27-24-21-15-20-23(25(24)26)19-14-9-7-5-3-2-4-6-8-11-16-22-17-12-10-13-18-22/h10,12-13,15,17-18,20-21,26H,2-9,11,14,16,19H2,1H3
computed SMILES=OC=1C(OC)=CC=CC1CCCCCCCCCCCCC=2C=CC=CC2
accession=JP005130
date=2016.01.19 (Created 2008.10.21, modified 2011.05.06)
author=HAYASHI A, FAC. OF SCIENCE AND TECHNOLOGY, KINKI UNIV.
license=CC BY-NC-SA
exact mass=368.27153
ionization energy=70 eV
ion type=[M]+*
computed spectral entropy=2.9107333268485407
computed normalized entropy=0.6534589993233622
SPLASH=splash10-014r-3906000000-88d7589cae22d4cefc61
submitter=submitter = University of Tokyo Team (Faculty of Engineering, University of Tokyo)
MoNA Rating=3.75

>  <NUM PEAKS>  (4585) 
86

>  <MASS SPECTRAL PEAKS>  (4585) 
39 1.12
41 4.54
42 0.69
43 2.63
51 0.77
53 0.83
54 0.44
55 3.61
56 0.92
57 1.64
60 0.41
65 2.43
66 1.22
67 1.16
68 0.56
69 2.58
70 0.58
71 0.78
75 0.16
77 3.02
78 2.25
79 2.94
80 0.71
81 2.05
82 0.75
83 0.83
85 0.67
89 0.53
90 0.48
91 27.6
92 4.24
93 1.18
94 2.34
95 1.16
96 0.52
97 0.7
99 0.39
103 1.76
104 2
105 3.31
106 7.61
107 3.83
108 0.97
109 2.53
110 0.6
111 0.65
115 0.87
117 1.44
118 0.57
119 1.51
120 1.04
121 1.31
122 5.13
123 5.76
124 4.34
125 1.86
126 0.52
129 0.52
131 1.67
132 0.55
133 1.08
134 0.39
135 1.31
136 1.7
137 77.4
138 46.47
139 4.63
140 0.8
145 0.13
149 0.59
150 3.42
151 2.22
152 0.16
161 0.38
163 0.72
164 0.89
165 0.52
177 0.5
179 0.59
213 0.4
276 0.56
354 0.9
367 0.41
368 99.99
369 27.6
370 3.99

$$$$

     RDKit          2D

 25 26  0  0  0  0  0  0  0  0999 V2000
  -15.2654    8.7570    0.0000 C   0  0  0  0  0  0  0  0  0  0  0  0
   -2.2731    8.7582    0.0000 C   0  0  0  0  0  0  0  0  0  0  0  0
   -3.5722    8.0082    0.0000 C   0  0  0  0  0  0  0  0  0  0  0  0
   -0.9741    8.0082    0.0000 C   0  0  0  0  0  0  0  0  0  0  0  0
   -4.8712    8.7582    0.0000 C   0  0  0  0  0  0  0  0  0  0  0  0
    0.3249    8.7582    0.0000 C   0  0  0  0  0  0  0  0  0  0  0  0
   -6.1703    8.0082    0.0000 C   0  0  0  0  0  0  0  0  0  0  0  0
    6.8201    6.5082    0.0000 C   0  0  0  0  0  0  0  0  0  0  0  0
    1.6240    8.0082    0.0000 C   0  0  0  0  0  0  0  0  0  0  0  0
    6.8206    8.0091    0.0000 C   0  0  0  0  0  0  0  0  0  0  0  0
    5.5206    5.7574    0.0000 C   0  0  0  0  0  0  0  0  0  0  0  0
   -7.4693    8.7582    0.0000 C   0  0  0  0  0  0  0  0  0  0  0  0
  -11.3677   11.0080    0.0000 C   0  0  0  0  0  0  0  0  0  0  0  0
    2.9230    8.7582    0.0000 C   0  0  0  0  0  0  0  0  0  0  0  0
    5.5216    8.7591    0.0000 C   0  0  0  0  0  0  0  0  0  0  0  0
    4.2216    6.5074    0.0000 C   0  0  0  0  0  0  0  0  0  0  0  0
   -8.7683    8.0082    0.0000 C   0  0  0  0  0  0  0  0  0  0  0  0
  -10.0676   10.2582    0.0000 C   0  0  0  0  0  0  0  0  0  0  0  0
  -12.6676   10.2578    0.0000 C   0  0  0  0  0  0  0  0  0  0  0  0
    4.2221    8.0082    0.0000 C   0  0  0  0  0  0  0  0  0  0  0  0
  -10.0674    8.7582    0.0000 C   0  0  0  0  0  0  0  0  0  0  0  0
  -12.6674    8.7578    0.0000 C   0  0  0  0  0  0  0  0  0  0  0  0
  -11.3672    8.0080    0.0000 C   0  0  0  0  0  0  0  0  0  0  0  0
  -11.3670    6.5080    0.0000 O   0  0  0  0  0  0  0  0  0  0  0  0
  -13.9662    8.0074    0.0000 O   0  0  0  0  0  0  0  0  0  0  0  0
  3  2  1  0
  4  2  1  0
  5  3  1  0
  6  4  1  0
  7  5  1  0
  9  6  1  0
 10  8  2  0
 11  8  1  0
 12  7  1  0
 14  9  1  0
 15 10  1  0
 16 11  2  0
 17 12  1  0
 18 13  2  0
 19 13  1  0
 20 14  1  0
 20 15  2  0
 20 16  1  0
 21 17  1  0
 21 18  1  0
 22 19  2  0
 23 21  2  0
 23 22  1  0
 24 23  1  0
 25  1  1  0
 25 22  1  0
M  END
>  <NAME>  (4586) 
1-(2-HYDROXY-3-METHOXYPHENYL)-10-PHENYLDECANE

>  <SYNONYMS>  (4586) 


>  <SPECTRUM TYPE>  (4586) 
MS1

>  <INSTRUMENT TYPE>  (4586) 
EI-B

>  <INSTRUMENT>  (4586) 
JEOL JMS-HX-100

>  <ION MODE>  (4586) 
P

>  <INCHIKEY>  (4586) 
CXDMGALFOYTAAG-UHFFFAOYSA-N

>  <FORMULA>  (4586) 
C23H32O2

>  <EXACT MASS>  (4586) 
340.240230264

>  <MW>  (4586) 
340

>  <ID>  (4586) 
JP005129

>  <CONTRIBUTOR>  (4586) 
University of Tokyo Team, {Faculty of Engineering, University of Tokyo

>  <COMMENT>  (4586) 
SMILES=C(CCCCCc(c2)c(O)c(OC)cc2)CCCCc(c1)cccc1
InChI=InChI=1S/C23H32O2/c1-25-22-19-13-18-21(23(22)24)17-12-7-5-3-2-4-6-9-14-20-15-10-8-11-16-20/h8,10-11,13,15-16,18-19,24H,2-7,9,12,14,17H2,1H3
computed SMILES=OC=1C(OC)=CC=CC1CCCCCCCCCCC=2C=CC=CC2
accession=JP005129
date=2016.01.19 (Created 2008.10.21, modified 2011.05.06)
author=HAYASHI A, FAC. OF SCIENCE AND TECHNOLOGY, KINKI UNIV.
license=CC BY-NC-SA
exact mass=340.24023
ionization energy=70 eV
ion type=[M]+*
computed spectral entropy=3.3774657509222945
computed normalized entropy=0.7302671577271175
SPLASH=splash10-000f-5904000000-7bd8e094a9e316d78f28
submitter=submitter = University of Tokyo Team (Faculty of Engineering, University of Tokyo)
MoNA Rating=3.75

>  <NUM PEAKS>  (4586) 
102

>  <MASS SPECTRAL PEAKS>  (4586) 
39 4.38
40 0.93
41 5.68
43 9.52
44 9.88
45 1.94
50 0.65
51 2.11
55 3.04
57 7.47
59 0.72
61 1.41
63 1.05
65 6.51
66 2.91
67 3.42
69 6.58
71 3.35
73 5.51
74 1.1
76 0.74
77 6.86
78 4.96
79 6.99
80 1.33
81 1.74
82 1.71
83 1.24
84 1.35
85 2.22
89 1.18
90 0.99
91 43.65
92 7.09
93 2.31
94 4.61
95 0.92
96 1.12
97 2.46
98 1.35
99 1.09
101 0.82
102 0.69
103 3.37
104 2.8
105 5.9
106 11.43
107 5.91
108 1.26
109 4.8
110 1.03
111 1.41
113 0.91
115 1.09
116 1
117 3.1
119 2.71
120 1.52
121 2.5
122 7.81
123 7.49
124 6.5
125 2.43
126 0.76
127 0.61
129 0.69
131 2.07
132 0.73
133 1.74
134 0.58
135 2
136 2.63
137 99.99
138 63.04
139 6.78
140 0.91
141 0.67
143 0.63
145 0.59
147 1.78
148 0.66
149 0.62
150 5.04
151 2.79
152 0.81
163 1.34
164 1.84
165 0.91
179 0.67
185 1.02
199 0.63
207 1.96
208 0.65
213 1.02
221 1.34
248 0.77
256 0.72
262 0.93
281 1.21
340 99.64
341 27.94
342 3.94

$$$$

     RDKit          2D

 19 19  0  0  0  0  0  0  0  0999 V2000
   -4.2216    6.8821    0.0000 C   0  0  0  0  0  0  0  0  0  0  0  0
   -5.5207    7.6321    0.0000 C   0  0  0  0  0  0  0  0  0  0  0  0
   -2.9226    7.6321    0.0000 C   0  0  0  0  0  0  0  0  0  0  0  0
   -6.8197    6.8821    0.0000 C   0  0  0  0  0  0  0  0  0  0  0  0
   -1.6236    6.8821    0.0000 C   0  0  0  0  0  0  0  0  0  0  0  0
   -8.1187    7.6321    0.0000 C   0  0  0  0  0  0  0  0  0  0  0  0
   -0.3245    7.6321    0.0000 C   0  0  0  0  0  0  0  0  0  0  0  0
   -9.4178    6.8821    0.0000 C   0  0  0  0  0  0  0  0  0  0  0  0
    6.1707    5.3821    0.0000 C   0  0  0  0  0  0  0  0  0  0  0  0
    0.9745    6.8821    0.0000 C   0  0  0  0  0  0  0  0  0  0  0  0
    6.1712    6.8829    0.0000 C   0  0  0  0  0  0  0  0  0  0  0  0
    4.8712    4.6313    0.0000 C   0  0  0  0  0  0  0  0  0  0  0  0
  -10.7168    7.6321    0.0000 C   0  0  0  0  0  0  0  0  0  0  0  0
    2.2736    7.6321    0.0000 C   0  0  0  0  0  0  0  0  0  0  0  0
    4.8721    7.6329    0.0000 C   0  0  0  0  0  0  0  0  0  0  0  0
    3.5721    5.3813    0.0000 C   0  0  0  0  0  0  0  0  0  0  0  0
  -12.0159    6.8821    0.0000 C   0  0  0  0  0  0  0  0  0  0  0  0
    3.5726    6.8821    0.0000 C   0  0  0  0  0  0  0  0  0  0  0  0
  -13.3149    7.6321    0.0000 O   0  0  0  0  0  0  0  0  0  0  0  0
  2  1  1  0
  3  1  1  0
  4  2  1  0
  5  3  1  0
  6  4  1  0
  7  5  1  0
  8  6  1  0
 10  7  1  0
 11  9  2  0
 12  9  1  0
 13  8  1  0
 14 10  1  0
 15 11  1  0
 16 12  2  0
 17 13  1  0
 18 14  1  0
 18 15  2  0
 18 16  1  0
 19 17  1  0
M  END
>  <NAME>  (4587) 
12-PHEMYLDODECAN-1-OL

>  <SYNONYMS>  (4587) 
12-PHENYL-1-DODECANOL

>  <SPECTRUM TYPE>  (4587) 
MS1

>  <INSTRUMENT TYPE>  (4587) 
EI-B

>  <INSTRUMENT>  (4587) 
JEOL JMS-HX-100

>  <ION MODE>  (4587) 
P

>  <INCHIKEY>  (4587) 
DXFKBQGRBJLAPG-UHFFFAOYSA-N

>  <FORMULA>  (4587) 
C18H30O

>  <EXACT MASS>  (4587) 
262.22966558

>  <MW>  (4587) 
262

>  <ID>  (4587) 
JP005128

>  <CONTRIBUTOR>  (4587) 
University of Tokyo Team, {Faculty of Engineering, University of Tokyo

>  <COMMENT>  (4587) 
SMILES=OCCCCCCCCCCCCc(c1)cccc1
InChI=InChI=1S/C18H30O/c19-17-13-8-6-4-2-1-3-5-7-10-14-18-15-11-9-12-16-18/h9,11-12,15-16,19H,1-8,10,13-14,17H2
computed SMILES=OCCCCCCCCCCCCC=1C=CC=CC1
accession=JP005128
date=2016.01.19 (Created 2008.10.21, modified 2011.05.06)
author=HAYASHI A, FAC. OF SCIENCE AND TECHNOLOGY, KINKI UNIV.
license=CC BY-NC-SA
exact mass=262.22967
ionization energy=70 eV
ion type=[M]+*
computed spectral entropy=2.921019082876264
computed normalized entropy=0.7163684265467664
SPLASH=splash10-0f6x-9700000000-6496e5b8b6475d5603ca
submitter=submitter = University of Tokyo Team (Faculty of Engineering, University of Tokyo)
MoNA Rating=3.75

>  <NUM PEAKS>  (4587) 
59

>  <MASS SPECTRAL PEAKS>  (4587) 
39 2.34
41 12.35
42 2.21
43 6.13
51 1.01
53 1.05
54 1.44
55 17.57
56 1.65
57 2.19
65 4.36
67 2.78
68 1.38
69 9.97
70 0.75
71 0.59
77 2.96
78 3.57
79 3.31
80 0.95
81 1.91
82 1.27
83 5.24
89 0.77
90 0.85
91 80.68
92 51.97
93 5.2
94 3.73
95 1.39
96 0.71
97 3.88
103 2.59
104 99.99
105 21.78
106 2.7
107 0.64
111 0.69
115 1.05
116 0.64
117 23.65
118 9.37
119 2.54
120 0.6
121 0.55
131 10.55
132 3.77
133 3.29
134 1.07
145 2.82
146 0.89
159 1.33
160 0.85
174 0.96
244 6.58
245 1.38
262 14.46
263 3.02
264 0.28

$$$$

     RDKit          2D

 17 17  0  0  0  0  0  0  0  0999 V2000
   -3.5721    6.5071    0.0000 C   0  0  0  0  0  0  0  0  0  0  0  0
   -4.8712    5.7571    0.0000 C   0  0  0  0  0  0  0  0  0  0  0  0
   -2.2731    5.7571    0.0000 C   0  0  0  0  0  0  0  0  0  0  0  0
   -6.1702    6.5071    0.0000 C   0  0  0  0  0  0  0  0  0  0  0  0
   -0.9740    6.5071    0.0000 C   0  0  0  0  0  0  0  0  0  0  0  0
   -7.4692    5.7571    0.0000 C   0  0  0  0  0  0  0  0  0  0  0  0
    5.5212    4.2571    0.0000 C   0  0  0  0  0  0  0  0  0  0  0  0
    0.3250    5.7571    0.0000 C   0  0  0  0  0  0  0  0  0  0  0  0
    5.5216    5.7579    0.0000 C   0  0  0  0  0  0  0  0  0  0  0  0
    4.2216    3.5063    0.0000 C   0  0  0  0  0  0  0  0  0  0  0  0
   -8.7683    6.5071    0.0000 C   0  0  0  0  0  0  0  0  0  0  0  0
    1.6240    6.5071    0.0000 C   0  0  0  0  0  0  0  0  0  0  0  0
    4.2226    6.5079    0.0000 C   0  0  0  0  0  0  0  0  0  0  0  0
    2.9226    4.2563    0.0000 C   0  0  0  0  0  0  0  0  0  0  0  0
  -10.0673    5.7571    0.0000 C   0  0  0  0  0  0  0  0  0  0  0  0
    2.9231    5.7571    0.0000 C   0  0  0  0  0  0  0  0  0  0  0  0
  -11.3663    6.5071    0.0000 O   0  0  0  0  0  0  0  0  0  0  0  0
  2  1  1  0
  3  1  1  0
  4  2  1  0
  5  3  1  0
  6  4  1  0
  8  5  1  0
  9  7  2  0
 10  7  1  0
 11  6  1  0
 12  8  1  0
 13  9  1  0
 14 10  2  0
 15 11  1  0
 16 12  1  0
 16 13  2  0
 16 14  1  0
 17 15  1  0
M  END
>  <NAME>  (4588) 
10-PHENYLDECAN-1-OL

>  <SYNONYMS>  (4588) 
10-PHENYL-1-DECANOL

>  <SPECTRUM TYPE>  (4588) 
MS1

>  <INSTRUMENT TYPE>  (4588) 
EI-B

>  <INSTRUMENT>  (4588) 
JEOL JMS-HX-100

>  <ION MODE>  (4588) 
P

>  <INCHIKEY>  (4588) 
WNFXODBOMMSELY-UHFFFAOYSA-N

>  <FORMULA>  (4588) 
C16H26O

>  <EXACT MASS>  (4588) 
234.198365452

>  <MW>  (4588) 
234

>  <ID>  (4588) 
JP005127

>  <CONTRIBUTOR>  (4588) 
University of Tokyo Team, {Faculty of Engineering, University of Tokyo

>  <COMMENT>  (4588) 
SMILES=OCCCCCCCCCCc(c1)cccc1
InChI=InChI=1S/C16H26O/c17-15-11-6-4-2-1-3-5-8-12-16-13-9-7-10-14-16/h7,9-10,13-14,17H,1-6,8,11-12,15H2
computed SMILES=OCCCCCCCCCCC=1C=CC=CC1
accession=JP005127
date=2016.01.19 (Created 2008.10.21, modified 2011.05.06)
author=HAYASHI A, FAC. OF SCIENCE AND TECHNOLOGY, KINKI UNIV.
license=CC BY-NC-SA
exact mass=234.19837
ionization energy=70 eV
ion type=[M]+*
computed spectral entropy=2.943765881980457
computed normalized entropy=0.7078260732452218
SPLASH=splash10-0f6x-9610000000-d7ff83701b1103a91506
submitter=submitter = University of Tokyo Team (Faculty of Engineering, University of Tokyo)
MoNA Rating=3.75

>  <NUM PEAKS>  (4588) 
64

>  <MASS SPECTRAL PEAKS>  (4588) 
39 3.46
41 14.64
42 1.59
43 1.67
51 1.66
53 1.41
54 1.57
55 16.84
56 1.89
57 2.85
63 0.91
65 7.11
66 0.74
67 2.94
68 1.72
69 11.84
70 0.96
77 4.35
78 4.6
79 4.46
80 0.96
81 2.37
82 1.68
83 5.41
89 1.27
90 0.97
91 95.07
92 57.45
93 5.6
94 3.63
95 1.54
96 0.88
97 0.66
103 2.78
104 99.99
105 22.52
106 2.63
107 1.02
115 1.6
116 0.75
117 25.5
118 9.59
119 2.65
120 0.82
130 0.52
131 8.67
132 3.66
133 3.36
134 1.3
135 0.6
145 2.65
146 0.95
147 0.67
159 1.55
160 0.91
173 0.65
174 0.54
188 0.71
199 0.55
216 5.48
217 1.06
234 20.56
235 4.14
236 0.45

$$$$

     RDKit          2D

 14 13  0  0  0  0  0  0  0  0999 V2000
  -11.3666    8.4375    0.0000 C   0  0  0  0  0  0  0  0  0  0  0  0
  -10.0675    7.6875    0.0000 C   0  0  0  0  0  0  0  0  0  0  0  0
   -8.7685    8.4375    0.0000 C   0  0  0  0  0  0  0  0  0  0  0  0
   -7.4695    7.6875    0.0000 C   0  0  0  0  0  0  0  0  0  0  0  0
   -6.1704    8.4375    0.0000 C   0  0  0  0  0  0  0  0  0  0  0  0
   -4.8714    7.6875    0.0000 C   0  0  0  0  0  0  0  0  0  0  0  0
   -3.5724    8.4375    0.0000 C   0  0  0  0  0  0  0  0  0  0  0  0
   -2.2733    7.6875    0.0000 C   0  0  0  0  0  0  0  0  0  0  0  0
   -0.9743    8.4375    0.0000 C   0  0  0  0  0  0  0  0  0  0  0  0
    0.3248    7.6875    0.0000 C   0  0  0  0  0  0  0  0  0  0  0  0
    1.6238    8.4375    0.0000 C   0  0  0  0  0  0  0  0  0  0  0  0
    2.9228    7.6875    0.0000 C   0  0  0  0  0  0  0  0  0  0  0  0
    2.9228    6.1875    0.0000 C   0  0  0  0  0  0  0  0  0  0  0  0
    4.2219    5.4375    0.0000 O   0  0  0  0  0  0  0  0  0  0  0  0
  2  1  1  0
  3  2  1  0
  4  3  1  0
  5  4  1  0
  6  5  1  0
  7  6  1  0
  8  7  1  0
  9  8  1  0
 10  9  1  0
 11 10  1  0
 11 12  2  0
 13 12  1  0
 14 13  1  0
M  END
>  <NAME>  (4589) 
(Z)-2-TRIDECEN-1-OL

>  <SYNONYMS>  (4589) 


>  <SPECTRUM TYPE>  (4589) 
MS1

>  <INSTRUMENT TYPE>  (4589) 
EI-B

>  <INSTRUMENT>  (4589) 
JEOL JMS-HX-100

>  <ION MODE>  (4589) 
P

>  <INCHIKEY>  (4589) 
VPYJHNADOJDSGU-QXMHVHEDSA-N

>  <FORMULA>  (4589) 
C13H26O

>  <EXACT MASS>  (4589) 
198.198365452

>  <MW>  (4589) 
198

>  <ID>  (4589) 
JP005126

>  <CONTRIBUTOR>  (4589) 
University of Tokyo Team, {Faculty of Engineering, University of Tokyo

>  <COMMENT>  (4589) 
SMILES=CCCCCCCCCCC([H])=C([H])CO
InChI=InChI=1S/C13H26O/c1-2-3-4-5-6-7-8-9-10-11-12-13-14/h11-12,14H,2-10,13H2,1H3/b12-11-
computed SMILES=OCC=CCCCCCCCCCC
accession=JP005126
date=2016.01.19 (Created 2008.10.21, modified 2011.05.06)
author=HAYASHI A, FAC. OF SCIENCE AND TECHNOLOGY, KINKI UNIV.
license=CC BY-NC-SA
exact mass=198.19837
ionization energy=70 eV
ion type=[M]+*
computed spectral entropy=3.330755244131143
computed normalized entropy=0.8238221638765142
SPLASH=splash10-0aou-9000000000-d100174becd06d967c78
submitter=submitter = University of Tokyo Team (Faculty of Engineering, University of Tokyo)
MoNA Rating=3.75

>  <NUM PEAKS>  (4589) 
57

>  <MASS SPECTRAL PEAKS>  (4589) 
39 12.38
40 2.69
41 58.84
42 16.18
43 73.61
44 14.77
45 5.61
51 0.87
52 0.65
53 7.3
54 25.01
55 54.07
56 28.67
57 99.99
58 10.24
59 1.15
65 1.39
66 6.31
67 39.86
68 43.11
69 35.54
70 20.88
71 20.02
72 7.29
73 1.92
77 1.07
79 2.81
80 2.41
81 32.68
82 52.36
83 27.85
84 10.36
85 8.2
86 1.47
93 0.71
94 1.54
95 27.15
96 27.44
97 14.99
98 4.67
99 2.72
109 11.99
110 8.99
111 4.32
112 2.01
113 0.99
123 5.13
124 5.85
125 1.27
126 1.54
137 2.27
138 1.83
151 0.67
152 2.41
180 1.16
181 0.18
198 0.35

$$$$

     RDKit          2D

 14 15  0  0  0  0  0  0  0  0999 V2000
    6.1270    3.5406    0.0000 C   0  0  0  0  0  0  0  0  0  0  0  0
   -0.3700   -1.7100    0.0000 C   0  0  0  0  0  0  0  0  0  0  0  0
    7.4270    2.7906    0.0000 C   0  0  0  0  0  0  0  0  0  0  0  0
   -1.6700   -0.9600    0.0000 C   0  0  0  0  0  0  0  0  0  0  0  0
    4.8270    2.7906    0.0000 C   0  0  0  0  0  0  0  0  0  0  0  0
    0.9300   -0.9600    0.0000 C   0  0  0  0  0  0  0  0  0  0  0  0
    3.5281    0.5404    0.0000 C   0  0  0  0  0  0  0  0  0  0  0  0
    2.2289    1.2902    0.0000 C   0  0  0  0  0  0  0  0  0  0  0  0
    7.4270    1.2906    0.0000 C   0  0  0  0  0  0  0  0  0  0  0  0
   -1.6700    0.5400    0.0000 C   0  0  0  0  0  0  0  0  0  0  0  0
    4.8270    1.2906    0.0000 C   0  0  0  0  0  0  0  0  0  0  0  0
    0.9300    0.5400    0.0000 C   0  0  0  0  0  0  0  0  0  0  0  0
    6.1270    0.5406    0.0000 N   0  0  0  0  0  0  0  0  0  0  0  0
   -0.3700    1.2900    0.0000 N   0  0  0  0  0  0  0  0  0  0  0  0
  3  1  2  0
  4  2  2  0
  5  1  1  0
  6  2  1  0
  7  8  2  0
  9  3  1  0
 10  4  1  0
 11  5  2  0
 11  7  1  0
 12  6  2  0
 12  8  1  0
 13  9  2  0
 13 11  1  0
 14 10  2  0
 14 12  1  0
M  END
>  <NAME>  (4590) 
2,2'-TRANS-VINYLENEDIPYRIDINE

>  <SYNONYMS>  (4590) 


>  <SPECTRUM TYPE>  (4590) 
MS1

>  <INSTRUMENT TYPE>  (4590) 
EI-B

>  <INSTRUMENT>  (4590) 
MX-1309

>  <ION MODE>  (4590) 
P

>  <INCHIKEY>  (4590) 
HKEOCEQLCZEBMK-BQYQJAHWSA-N

>  <FORMULA>  (4590) 
C12H10N2

>  <EXACT MASS>  (4590) 
182.08439832

>  <MW>  (4590) 
182

>  <ID>  (4590) 
JP005106

>  <CONTRIBUTOR>  (4590) 
University of Tokyo Team, {Faculty of Engineering, University of Tokyo

>  <COMMENT>  (4590) 
SMILES=[H]C(c(c2)nccc2)=C([H])c(c1)nccc1
InChI=InChI=1S/C12H10N2/c1-3-9-13-11(5-1)7-8-12-6-2-4-10-14-12/h1-10H/b8-7+
computed SMILES=N=1C=CC=CC1C=CC2=NC=CC=C2
accession=JP005106
date=2016.01.19 (Created 2008.10.21, modified 2011.05.06)
author=SASAKI S, TOYOHASHI UNIV. OF TECH.
license=CC BY-NC-SA
exact mass=182.0844
ionization energy=70 eV
ion type=[M]+*
computed spectral entropy=2.480244068072201
computed normalized entropy=0.7033438727431794
SPLASH=splash10-001i-4900000000-61885906bd1eb44fbf8b
submitter=submitter = University of Tokyo Team (Faculty of Engineering, University of Tokyo)
MoNA Rating=3.75

>  <NUM PEAKS>  (4590) 
34

>  <MASS SPECTRAL PEAKS>  (4590) 
50 5.6
51 17.9
52 12.1
62 0.11
63 4.5
64 2.6
65 1.2
75 0.2
76 3.9
77 13.8
78 25.9
79 0.89
80 1.2
90 5.9
91 13.1
101 0.14
102 1.6
103 1.4
104 28.3
105 0.23
126 1.3
127 4.5
128 2.6
129 0.17
130 1.3
152 1.6
153 2.1
154 1.03
155 2.5
179 3.8
180 3.8
181 99.99
182 51.1
183 6

$$$$

     RDKit          2D

 14 15  0  0  0  0  0  0  0  0999 V2000
   -1.2990    2.5700    0.0000 C   0  0  0  0  0  0  0  0  0  0  0  0
    0.0000    3.3200    0.0000 C   0  0  0  0  0  0  0  0  0  0  0  0
   -3.8976    2.5692    0.0000 C   0  0  0  0  0  0  0  0  0  0  0  0
   -2.5976    4.8208    0.0000 C   0  0  0  0  0  0  0  0  0  0  0  0
    2.5986    3.3208    0.0000 C   0  0  0  0  0  0  0  0  0  0  0  0
    1.2986    1.0692    0.0000 C   0  0  0  0  0  0  0  0  0  0  0  0
   -5.1966    3.3192    0.0000 C   0  0  0  0  0  0  0  0  0  0  0  0
   -3.8966    5.5708    0.0000 C   0  0  0  0  0  0  0  0  0  0  0  0
    3.8976    2.5708    0.0000 C   0  0  0  0  0  0  0  0  0  0  0  0
    2.5976    0.3192    0.0000 C   0  0  0  0  0  0  0  0  0  0  0  0
   -2.5981    3.3200    0.0000 C   0  0  0  0  0  0  0  0  0  0  0  0
    1.2990    2.5700    0.0000 C   0  0  0  0  0  0  0  0  0  0  0  0
   -5.1962    4.8200    0.0000 N   0  0  0  0  0  0  0  0  0  0  0  0
    3.8971    1.0700    0.0000 N   0  0  0  0  0  0  0  0  0  0  0  0
  1  2  2  0
  7  3  2  0
  8  4  1  0
  9  5  2  0
 10  6  1  0
 11  1  1  0
 11  3  1  0
 11  4  2  0
 12  2  1  0
 12  5  1  0
 12  6  2  0
 13  7  1  0
 13  8  2  0
 14  9  1  0
 14 10  2  0
M  END
>  <NAME>  (4591) 
4,4'-TRANS-VINYLENEDIPYRIDINE

>  <SYNONYMS>  (4591) 


>  <SPECTRUM TYPE>  (4591) 
MS1

>  <INSTRUMENT TYPE>  (4591) 
EI-B

>  <INSTRUMENT>  (4591) 
MX-1309

>  <ION MODE>  (4591) 
P

>  <INCHIKEY>  (4591) 
MGFJDEHFNMWYBD-OWOJBTEDSA-N

>  <FORMULA>  (4591) 
C12H10N2

>  <EXACT MASS>  (4591) 
182.08439832

>  <MW>  (4591) 
182

>  <ID>  (4591) 
JP005105

>  <CONTRIBUTOR>  (4591) 
University of Tokyo Team, {Faculty of Engineering, University of Tokyo

>  <COMMENT>  (4591) 
SMILES=n(c2)ccc(c2)C=Cc(c1)ccnc1
InChI=InChI=1S/C12H10N2/c1(11-3-7-13-8-4-11)2-12-5-9-14-10-6-12/h1-10H/b2-1+
computed SMILES=N=1C=CC(=CC1)C=CC=2C=CN=CC2
accession=JP005105
date=2016.01.19 (Created 2008.10.21, modified 2011.05.06)
author=SASAKI S, TOYOHASHI UNIV. OF TECH.
license=CC BY-NC-SA
exact mass=182.0844
ionization energy=70 eV
ion type=[M]+*
computed spectral entropy=2.895325582547365
computed normalized entropy=0.7562279364169258
SPLASH=splash10-0ugi-9600000000-909a6430546f52bff5f0
submitter=submitter = University of Tokyo Team (Faculty of Engineering, University of Tokyo)
MoNA Rating=3.75

>  <NUM PEAKS>  (4591) 
46

>  <MASS SPECTRAL PEAKS>  (4591) 
50 23.9
51 64.9
52 19.3
61 0.21
62 6.7
63 33.8
64 12.6
65 0.46
75 13.4
76 19.6
77 61
78 1.37
79 6.6
80 1.2
84 4.3
87 0.33
88 2.5
89 8.4
90 6
91 0.83
98 1.3
99 2
100 1.8
101 1.05
102 9.2
103 3.9
104 2.9
114 0.11
115 1.5
126 3
127 12.5
128 0.54
129 3.7
140 1.3
141 1.3
142 0.12
152 2
153 3
154 23.2
155 1.02
156 1.4
179 3.9
180 3.3
181 9.91
182 99.99
183 14.3

$$$$

     RDKit          2D

 14 15  0  0  0  0  0  0  0  0999 V2000
    7.4248    2.7910    0.0000 C   0  0  0  0  0  0  0  0  0  0  0  0
    6.1252    3.5417    0.0000 C   0  0  0  0  0  0  0  0  0  0  0  0
    7.4256    1.2902    0.0000 C   0  0  0  0  0  0  0  0  0  0  0  0
   -0.3700   -1.7100    0.0000 C   0  0  0  0  0  0  0  0  0  0  0  0
   -1.6700   -0.9600    0.0000 C   0  0  0  0  0  0  0  0  0  0  0  0
    4.8263    2.7915    0.0000 C   0  0  0  0  0  0  0  0  0  0  0  0
    6.1266    0.5400    0.0000 C   0  0  0  0  0  0  0  0  0  0  0  0
    0.9300   -0.9600    0.0000 C   0  0  0  0  0  0  0  0  0  0  0  0
    3.5281    0.5404    0.0000 C   0  0  0  0  0  0  0  0  0  0  0  0
    2.2289    1.2902    0.0000 C   0  0  0  0  0  0  0  0  0  0  0  0
   -1.6700    0.5400    0.0000 C   0  0  0  0  0  0  0  0  0  0  0  0
    4.8270    1.2906    0.0000 C   0  0  0  0  0  0  0  0  0  0  0  0
    0.9300    0.5400    0.0000 C   0  0  0  0  0  0  0  0  0  0  0  0
   -0.3700    1.2900    0.0000 N   0  0  0  0  0  0  0  0  0  0  0  0
  2  1  2  0
  3  1  1  0
  5  4  2  0
  6  2  1  0
  7  3  2  0
  8  4  1  0
  9 10  2  0
 11  5  1  0
 12  6  2  0
 12  7  1  0
 12  9  1  0
 13  8  2  0
 13 10  1  0
 14 11  2  0
 14 13  1  0
M  END
>  <NAME>  (4592) 
2-(TRANS-STYRYL)PYRIDINE

>  <SYNONYMS>  (4592) 


>  <SPECTRUM TYPE>  (4592) 
MS1

>  <INSTRUMENT TYPE>  (4592) 
EI-B

>  <INSTRUMENT>  (4592) 
MX-1309

>  <ION MODE>  (4592) 
P

>  <INCHIKEY>  (4592) 
BIAWAXVRXKIUQB-MDZDMXLPSA-N

>  <FORMULA>  (4592) 
C13H11N

>  <EXACT MASS>  (4592) 
181.089149352

>  <MW>  (4592) 
181

>  <ID>  (4592) 
JP005104

>  <CONTRIBUTOR>  (4592) 
University of Tokyo Team, {Faculty of Engineering, University of Tokyo

>  <COMMENT>  (4592) 
SMILES=[H]C(c(c2)cccc2)=C([H])c(c1)nccc1
InChI=InChI=1S/C13H11N/c1-2-6-12(7-3-1)9-10-13-8-4-5-11-14-13/h1-11H/b10-9+
computed SMILES=N=1C=CC=CC1C=CC=2C=CC=CC2
accession=JP005104
date=2016.01.19 (Created 2008.10.21, modified 2011.05.06)
author=SASAKI S, TOYOHASHI UNIV. OF TECH.
license=CC BY-NC-SA
exact mass=181.08915
ionization energy=70 eV
ion type=[M]+*
computed spectral entropy=2.1986925854400474
computed normalized entropy=0.6598312254623419
SPLASH=splash10-001i-2900000000-1c4ce796226bcc051aa8
submitter=submitter = University of Tokyo Team (Faculty of Engineering, University of Tokyo)
MoNA Rating=3.75

>  <NUM PEAKS>  (4592) 
28

>  <MASS SPECTRAL PEAKS>  (4592) 
50 2.6
51 8.1
52 1.7
63 0.38
64 1
75 2.2
76 5.7
77 1.13
78 6.9
79 5.8
89 6.4
90 1.08
91 1.4
101 1
102 2.2
104 0.14
126 12.2
127 2.9
128 2.2
151 0.4
152 11.8
153 4
154 1.6
178 0.48
179 4.7
180 99.99
181 32.9
182 6.5

$$$$

     RDKit          2D

 14 15  0  0  0  0  0  0  0  0999 V2000
    6.1255    5.7914    0.0000 C   0  0  0  0  0  0  0  0  0  0  0  0
    4.8256    5.0412    0.0000 C   0  0  0  0  0  0  0  0  0  0  0  0
    7.4256    5.0416    0.0000 C   0  0  0  0  0  0  0  0  0  0  0  0
    2.2274    3.5406    0.0000 C   0  0  0  0  0  0  0  0  0  0  0  0
    0.9276    2.7902    0.0000 C   0  0  0  0  0  0  0  0  0  0  0  0
    4.8258    3.5412    0.0000 C   0  0  0  0  0  0  0  0  0  0  0  0
    7.4258    3.5416    0.0000 C   0  0  0  0  0  0  0  0  0  0  0  0
    3.5276    2.7910    0.0000 C   0  0  0  0  0  0  0  0  0  0  0  0
    6.1262    1.2914    0.0000 C   0  0  0  0  0  0  0  0  0  0  0  0
    4.8273    0.5412    0.0000 C   0  0  0  0  0  0  0  0  0  0  0  0
    0.9281    1.2902    0.0000 C   0  0  0  0  0  0  0  0  0  0  0  0
    6.1259    2.7914    0.0000 C   0  0  0  0  0  0  0  0  0  0  0  0
    3.5281    1.2910    0.0000 C   0  0  0  0  0  0  0  0  0  0  0  0
    2.2283    0.5406    0.0000 N   0  0  0  0  0  0  0  0  0  0  0  0
  2  1  2  0
  3  1  1  0
  5  4  2  0
  6  2  1  0
  7  3  2  0
  8  4  1  0
  9 10  2  0
 11  5  1  0
 12  6  2  0
 12  7  1  0
 12  9  1  0
 13  8  2  0
 13 10  1  0
 14 11  2  0
 14 13  1  0
M  END
>  <NAME>  (4593) 
2-(CIS-STYRYL)PYRIDINE

>  <SYNONYMS>  (4593) 


>  <SPECTRUM TYPE>  (4593) 
MS1

>  <INSTRUMENT TYPE>  (4593) 
EI-B

>  <INSTRUMENT>  (4593) 
MX-1309

>  <ION MODE>  (4593) 
P

>  <INCHIKEY>  (4593) 
BIAWAXVRXKIUQB-KTKRTIGZSA-N

>  <FORMULA>  (4593) 
C13H11N

>  <EXACT MASS>  (4593) 
181.089149352

>  <MW>  (4593) 
181

>  <ID>  (4593) 
JP005103

>  <CONTRIBUTOR>  (4593) 
University of Tokyo Team, {Faculty of Engineering, University of Tokyo

>  <COMMENT>  (4593) 
SMILES=[H]C(c(c2)cccc2)=C([H])c(c1)nccc1
InChI=InChI=1S/C13H11N/c1-2-6-12(7-3-1)9-10-13-8-4-5-11-14-13/h1-11H/b10-9-
computed SMILES=N=1C=CC=CC1C=CC=2C=CC=CC2
accession=JP005103
date=2016.01.19 (Created 2008.10.21, modified 2011.05.06)
author=SASAKI S, TOYOHASHI UNIV. OF TECH.
license=CC BY-NC-SA
exact mass=181.08915
ionization energy=70 eV
ion type=[M]+*
computed spectral entropy=2.3370447375039656
computed normalized entropy=0.687124114026531
SPLASH=splash10-001i-2900000000-ac01cdb4d35f86f76eff
submitter=submitter = University of Tokyo Team (Faculty of Engineering, University of Tokyo)
MoNA Rating=3.75

>  <NUM PEAKS>  (4593) 
30

>  <MASS SPECTRAL PEAKS>  (4593) 
50 2
51 7.8
52 1.5
63 0.34
64 1
75 2.8
76 7.3
77 4.22
78 7.9
79 6.2
89 7.7
90 5.62
91 1.3
101 1.5
102 2.6
103 0.1
104 1.6
115 1
126 10.8
127 0.25
128 1.9
151 3.9
152 11.6
153 0.34
154 1.6
178 4.9
179 4.8
180 99.99
181 22.6
182 4.5

$$$$

     RDKit          2D

 40 43  0  0  0  0  0  0  0  0999 V2000
  -20.1648    2.5103    0.0000 C   0  0  0  0  0  0  0  0  0  0  0  0
   14.9672   -7.0108    0.0000 C   0  0  0  0  0  0  0  0  0  0  0  0
  -18.8559    1.7777    0.0000 C   0  0  0  0  0  0  0  0  0  0  0  0
   13.6583   -6.2781    0.0000 C   0  0  0  0  0  0  0  0  0  0  0  0
  -17.5669    2.5450    0.0000 C   0  0  0  0  0  0  0  0  0  0  0  0
   12.3694   -7.0454    0.0000 C   0  0  0  0  0  0  0  0  0  0  0  0
  -16.2580    1.8124    0.0000 C   0  0  0  0  0  0  0  0  0  0  0  0
   11.0604   -6.3128    0.0000 C   0  0  0  0  0  0  0  0  0  0  0  0
  -14.9691    2.5796    0.0000 C   0  0  0  0  0  0  0  0  0  0  0  0
    9.7715   -7.0800    0.0000 C   0  0  0  0  0  0  0  0  0  0  0  0
   -9.7408   -0.3807    0.0000 C   0  0  0  0  0  0  0  0  0  0  0  0
   -8.4386    1.8508    0.0000 C   0  0  0  0  0  0  0  0  0  0  0  0
    4.5432   -4.1198    0.0000 C   0  0  0  0  0  0  0  0  0  0  0  0
    3.2410   -6.3513    0.0000 C   0  0  0  0  0  0  0  0  0  0  0  0
  -11.0290    0.3377    0.0000 C   0  0  0  0  0  0  0  0  0  0  0  0
   -9.7671    2.6382    0.0000 C   0  0  0  0  0  0  0  0  0  0  0  0
    5.8314   -4.8381    0.0000 C   0  0  0  0  0  0  0  0  0  0  0  0
    4.5695   -7.1387    0.0000 C   0  0  0  0  0  0  0  0  0  0  0  0
  -13.6602    1.8470    0.0000 C   0  0  0  0  0  0  0  0  0  0  0  0
    8.4626   -6.3474    0.0000 C   0  0  0  0  0  0  0  0  0  0  0  0
   -4.5479   -0.3747    0.0000 C   0  0  0  0  0  0  0  0  0  0  0  0
   -5.8465   -2.6255    0.0000 C   0  0  0  0  0  0  0  0  0  0  0  0
   -0.6497   -4.1257    0.0000 C   0  0  0  0  0  0  0  0  0  0  0  0
    0.6489   -1.8749    0.0000 C   0  0  0  0  0  0  0  0  0  0  0  0
   -8.4456    0.3759    0.0000 C   0  0  0  0  0  0  0  0  0  0  0  0
    3.2480   -4.8764    0.0000 C   0  0  0  0  0  0  0  0  0  0  0  0
   -4.5474   -1.8755    0.0000 C   0  0  0  0  0  0  0  0  0  0  0  0
   -0.6502   -2.6249    0.0000 C   0  0  0  0  0  0  0  0  0  0  0  0
  -11.0623    1.8816    0.0000 C   0  0  0  0  0  0  0  0  0  0  0  0
    5.8647   -6.3821    0.0000 C   0  0  0  0  0  0  0  0  0  0  0  0
   -7.1465   -0.3739    0.0000 C   0  0  0  0  0  0  0  0  0  0  0  0
    1.9489   -4.1266    0.0000 C   0  0  0  0  0  0  0  0  0  0  0  0
   -5.8474    0.3761    0.0000 N   0  0  0  0  0  0  0  0  0  0  0  0
   -7.1460   -1.8747    0.0000 N   0  0  0  0  0  0  0  0  0  0  0  0
    0.6498   -4.8766    0.0000 N   0  0  0  0  0  0  0  0  0  0  0  0
    1.9484   -2.6257    0.0000 N   0  0  0  0  0  0  0  0  0  0  0  0
   -3.2483   -2.6253    0.0000 N   0  0  0  0  0  0  0  0  0  0  0  0
   -1.9493   -1.8751    0.0000 N   0  0  0  0  0  0  0  0  0  0  0  0
  -12.3713    2.6143    0.0000 O   0  0  0  0  0  0  0  0  0  0  0  0
    7.1737   -7.1147    0.0000 O   0  0  0  0  0  0  0  0  0  0  0  0
  3  1  1  0
  4  2  1  0
  5  3  1  0
  6  4  1  0
  7  5  1  0
  8  6  1  0
  9  7  1  0
 10  8  1  0
 15 11  2  0
 16 12  1  0
 17 13  2  0
 18 14  1  0
 19  9  1  0
 20 10  1  0
 25 11  1  0
 25 12  2  0
 26 13  1  0
 26 14  2  0
 27 21  2  0
 27 22  1  0
 28 23  2  0
 28 24  1  0
 29 15  1  0
 29 16  2  0
 30 17  1  0
 30 18  2  0
 31 25  1  0
 32 26  1  0
 33 21  1  0
 33 31  2  0
 34 22  2  0
 34 31  1  0
 35 23  1  0
 35 32  2  0
 36 24  2  0
 36 32  1  0
 37 27  1  0
 38 28  1  0
 37 38  2  0
 39 19  1  0
 39 29  1  0
 40 20  1  0
 40 30  1  0
M  END
>  <NAME>  (4594) 
2,2'-DI(4-HEXYLOXYPHENYL)-5,5'-DIAZODIPYRIMIDINE

>  <SYNONYMS>  (4594) 


>  <SPECTRUM TYPE>  (4594) 
MS1

>  <INSTRUMENT TYPE>  (4594) 
EI-B

>  <INSTRUMENT>  (4594) 
MS-902

>  <ION MODE>  (4594) 
P

>  <INCHIKEY>  (4594) 
NVKCRPKKJGPKEK-HEFFKOSUSA-N

>  <FORMULA>  (4594) 
C32H38N6O2

>  <EXACT MASS>  (4594) 
538.305624456

>  <MW>  (4594) 
538

>  <ID>  (4594) 
JP005088

>  <CONTRIBUTOR>  (4594) 
University of Tokyo Team, {Faculty of Engineering, University of Tokyo

>  <COMMENT>  (4594) 
SMILES=C(CC)CCCOc(c1)ccc(c(n4)ncc(c4)N=Nc(c3)cnc(n3)c(c2)ccc(OCCCCCC)c2)c1
InChI=InChI=1S/C32H38N6O2/c1-3-5-7-9-19-39-29-15-11-25(12-16-29)31-33-21-27(22-34-31)37-38-28-23-35-32(36-24-28)26-13-17-30(18-14-26)40-20-10-8-6-4-2/h11-18,21-24H,3-10,19-20H2,1-2H3/b38-37+
computed SMILES=N(=NC1=CN=C(N=C1)C=2C=CC(OCCCCCC)=CC2)C3=CN=C(N=C3)C=4C=CC(OCCCCCC)=CC4
accession=JP005088
date=2016.01.19 (Created 2008.10.21, modified 2011.05.06)
author=SASAKI S, TOYOHASHI UNIV. OF TECH.
license=CC BY-NC-SA
exact mass=538.30562
ionization energy=70 eV
ion type=[M]+*
computed spectral entropy=3.362049281162834
computed normalized entropy=0.7316564944577801
SPLASH=splash10-007c-5902140000-491b25c2d367d1bf2b57
submitter=submitter = University of Tokyo Team (Faculty of Engineering, University of Tokyo)
MoNA Rating=3.75

>  <NUM PEAKS>  (4594) 
99

>  <MASS SPECTRAL PEAKS>  (4594) 
38 1.2
39 5.2
40 17.8
41 2.42
42 3.9
43 59.1
44 10.1
50 0.13
51 1.7
53 2.3
54 1
55 1.48
56 3.2
57 7.7
63 1.3
65 0.5
67 3.4
68 1
69 4.3
70 0.11
71 1.5
76 1.7
77 2.3
78 0.13
79 1.8
80 1
81 3.9
82 0.13
83 3.5
84 1
85 2.7
89 0.12
91 2.7
93 4.2
94 1
95 0.34
96 1.2
97 2
103 2.7
104 0.14
105 1.3
107 1.2
109 2.8
111 0.13
115 2.2
116 1.8
119 5
120 1.61
121 1.3
123 1.8
127 2.2
128 0.11
130 1.2
131 1.5
132 2.2
135 0.1
142 3.7
143 2.9
144 28.5
145 0.33
149 1.5
154 1.3
155 1.1
157 0.11
158 5.1
159 16.8
160 2.2
170 0.42
171 92.6
172 12.1
173 1.1
177 0.1
185 6.6
186 30.2
187 3.42
188 4.3
189 1.9
197 1.7
199 11.4
200 0.18
223 1.1
224 1.7
228 2.1
255 0.77
256 1.7
271 7.9
272 1.4
369 0.64
370 63.8
371 14.8
372 1.8
453 0.19
454 28.2
455 9.4
456 1.5
537 0.12
538 99.99
539 36.9
540 6.5

$$$$

     RDKit          2D

 40 45  0  0  0  0  0  0  0  0999 V2000
   -5.1968    3.0006    0.0000 C   0  0  0  0  0  0  0  0  0  0  0  0
   -0.0000   -6.0000    0.0000 C   0  0  0  0  0  0  0  0  0  0  0  0
   14.2918   -0.7496    0.0000 C   0  0  0  0  0  0  0  0  0  0  0  0
    9.0951    8.2510    0.0000 C   0  0  0  0  0  0  0  0  0  0  0  0
   -5.1975    1.4998    0.0000 C   0  0  0  0  0  0  0  0  0  0  0  0
   -3.8971    3.7512    0.0000 C   0  0  0  0  0  0  0  0  0  0  0  0
    1.3000   -5.2500    0.0000 C   0  0  0  0  0  0  0  0  0  0  0  0
   -1.3000   -5.2500    0.0000 C   0  0  0  0  0  0  0  0  0  0  0  0
   14.2925    0.7512    0.0000 C   0  0  0  0  0  0  0  0  0  0  0  0
   12.9922   -1.5002    0.0000 C   0  0  0  0  0  0  0  0  0  0  0  0
    7.7951    7.5010    0.0000 C   0  0  0  0  0  0  0  0  0  0  0  0
   10.3951    7.5010    0.0000 C   0  0  0  0  0  0  0  0  0  0  0  0
   -3.8986    0.7496    0.0000 C   0  0  0  0  0  0  0  0  0  0  0  0
   -2.5982    3.0010    0.0000 C   0  0  0  0  0  0  0  0  0  0  0  0
    1.3000   -3.7500    0.0000 C   0  0  0  0  0  0  0  0  0  0  0  0
   -1.3000   -3.7500    0.0000 C   0  0  0  0  0  0  0  0  0  0  0  0
   12.9936    1.5015    0.0000 C   0  0  0  0  0  0  0  0  0  0  0  0
   11.6933   -0.7500    0.0000 C   0  0  0  0  0  0  0  0  0  0  0  0
    7.7951    6.0010    0.0000 C   0  0  0  0  0  0  0  0  0  0  0  0
   10.3951    6.0010    0.0000 C   0  0  0  0  0  0  0  0  0  0  0  0
    3.8981    0.7504    0.0000 C   0  0  0  0  0  0  0  0  0  0  0  0
    5.1970    1.5006    0.0000 C   0  0  0  0  0  0  0  0  0  0  0  0
   -1.3000   -0.7500    0.0000 C   0  0  0  0  0  0  0  0  0  0  0  0
   10.3951    3.0010    0.0000 C   0  0  0  0  0  0  0  0  0  0  0  0
   -2.5989    1.5002    0.0000 C   0  0  0  0  0  0  0  0  0  0  0  0
   -0.0000   -3.0000    0.0000 C   0  0  0  0  0  0  0  0  0  0  0  0
   11.6940    0.7508    0.0000 C   0  0  0  0  0  0  0  0  0  0  0  0
    9.0951    5.2510    0.0000 C   0  0  0  0  0  0  0  0  0  0  0  0
   -1.3000    0.7500    0.0000 C   0  0  0  0  0  0  0  0  0  0  0  0
    0.0000   -1.5000    0.0000 C   0  0  0  0  0  0  0  0  0  0  0  0
   10.3951    1.5010    0.0000 C   0  0  0  0  0  0  0  0  0  0  0  0
    9.0951    3.7510    0.0000 C   0  0  0  0  0  0  0  0  0  0  0  0
    1.3000    0.7500    0.0000 C   0  0  0  0  0  0  0  0  0  0  0  0
    7.7951    1.5010    0.0000 C   0  0  0  0  0  0  0  0  0  0  0  0
    0.0000    1.5000    0.0000 N   0  0  0  0  0  0  0  0  0  0  0  0
    1.3000   -0.7500    0.0000 N   0  0  0  0  0  0  0  0  0  0  0  0
    9.0951    0.7510    0.0000 N   0  0  0  0  0  0  0  0  0  0  0  0
    7.7951    3.0010    0.0000 N   0  0  0  0  0  0  0  0  0  0  0  0
    2.5989    1.5002    0.0000 O   0  0  0  0  0  0  0  0  0  0  0  0
    6.4962    0.7508    0.0000 O   0  0  0  0  0  0  0  0  0  0  0  0
  5  1  2  0
  6  1  1  0
  7  2  2  0
  8  2  1  0
  9  3  2  0
 10  3  1  0
 11  4  2  0
 12  4  1  0
 13  5  1  0
 14  6  2  0
 15  7  1  0
 16  8  2  0
 17  9  1  0
 18 10  2  0
 19 11  1  0
 20 12  2  0
 22 21  1  0
 25 13  2  0
 25 14  1  0
 26 15  2  0
 26 16  1  0
 27 17  2  0
 27 18  1  0
 28 19  2  0
 28 20  1  0
 29 23  2  0
 29 25  1  0
 30 23  1  0
 30 26  1  0
 31 24  2  0
 31 27  1  0
 32 24  1  0
 32 28  1  0
 35 29  1  0
 35 33  2  0
 36 30  2  0
 36 33  1  0
 37 31  1  0
 37 34  2  0
 38 32  2  0
 38 34  1  0
 39 21  1  0
 39 33  1  0
 40 22  1  0
 40 34  1  0
M  END
>  <NAME>  (4595) 
4,4',6,6'-TETRAPHENYL-2,2'-ETHYLENEDIOXYDIPYRIMIDINE

>  <SYNONYMS>  (4595) 


>  <SPECTRUM TYPE>  (4595) 
MS1

>  <INSTRUMENT TYPE>  (4595) 
EI-B

>  <INSTRUMENT>  (4595) 
MS-902

>  <ION MODE>  (4595) 
P

>  <INCHIKEY>  (4595) 
YSJCUZMQWZRYBT-UHFFFAOYSA-N

>  <FORMULA>  (4595) 
C34H26N4O2

>  <EXACT MASS>  (4595) 
522.205576072

>  <MW>  (4595) 
522

>  <ID>  (4595) 
JP005087

>  <CONTRIBUTOR>  (4595) 
University of Tokyo Team, {Faculty of Engineering, University of Tokyo

>  <COMMENT>  (4595) 
SMILES=c(c5c(c6)cccc6)c(nc(n5)OCCOc(n3)nc(cc3c(c4)cccc4)c(c2)cccc2)c(c1)cccc1
InChI=InChI=1S/C34H26N4O2/c1-5-13-25(14-6-1)29-23-30(26-15-7-2-8-16-26)36-33(35-29)39-21-22-40-34-37-31(27-17-9-3-10-18-27)24-32(38-34)28-19-11-4-12-20-28/h1-20,23-24H,21-22H2
computed SMILES=N=1C(=NC(=CC1C=2C=CC=CC2)C=3C=CC=CC3)OCCOC=4N=C(C=C(N4)C=5C=CC=CC5)C=6C=CC=CC6
accession=JP005087
date=2016.01.19 (Created 2008.10.21, modified 2011.05.06)
author=SASAKI S, TOYOHASHI UNIV. OF TECH.
license=CC BY-NC-SA
exact mass=522.20558
ionization energy=70 eV
ion type=[M]+*
computed spectral entropy=2.5650272295522183
computed normalized entropy=0.6662152974117022
SPLASH=splash10-004j-0190000000-becc75dfd620ef126e75
submitter=submitter = University of Tokyo Team (Faculty of Engineering, University of Tokyo)
MoNA Rating=3.75

>  <NUM PEAKS>  (4595) 
47

>  <MASS SPECTRAL PEAKS>  (4595) 
39 1
58 2.5
76 1.3
77 1.04
83 2.9
85 1.2
88 3.2
91 0.33
102 1.9
103 3.7
104 5.8
115 0.31
116 2.5
117 1.2
128 4.4
129 1.32
130 2.1
141 1.2
142 1.2
143 0.37
156 2
170 1.8
171 4.6
189 0.13
199 2
203 1
204 3.2
205 0.12
206 1
210 3
230 1.6
231 1.05
232 4.1
233 1.2
245 2
246 0.12
247 51.3
248 16.8
249 9.3
250 0.12
258 1.2
261 3.2
273 48.5
274 8.44
275 99.99
276 17.8
277 2

$$$$

     RDKit          2D

 30 33  0  0  0  0  0  0  0  0999 V2000
   -3.8965    3.7511    0.0000 C   0  0  0  0  0  0  0  0  0  0  0  0
   -2.5974   -6.0004    0.0000 C   0  0  0  0  0  0  0  0  0  0  0  0
    5.1966   -2.9995    0.0000 C   0  0  0  0  0  0  0  0  0  0  0  0
   -7.7946   -2.9997    0.0000 C   0  0  0  0  0  0  0  0  0  0  0  0
   -1.2975   -5.2502    0.0000 C   0  0  0  0  0  0  0  0  0  0  0  0
   -3.8975   -5.2506    0.0000 C   0  0  0  0  0  0  0  0  0  0  0  0
    5.1971   -1.4987    0.0000 C   0  0  0  0  0  0  0  0  0  0  0  0
    3.8971   -3.7504    0.0000 C   0  0  0  0  0  0  0  0  0  0  0  0
   -6.4952   -3.7508    0.0000 C   0  0  0  0  0  0  0  0  0  0  0  0
   -7.7949   -1.4989    0.0000 C   0  0  0  0  0  0  0  0  0  0  0  0
   -1.2977   -3.7502    0.0000 C   0  0  0  0  0  0  0  0  0  0  0  0
   -3.8977   -3.7506    0.0000 C   0  0  0  0  0  0  0  0  0  0  0  0
    3.8980   -0.7487    0.0000 C   0  0  0  0  0  0  0  0  0  0  0  0
    2.5980   -3.0004    0.0000 C   0  0  0  0  0  0  0  0  0  0  0  0
   -5.1961   -3.0010    0.0000 C   0  0  0  0  0  0  0  0  0  0  0  0
   -6.4957   -0.7491    0.0000 C   0  0  0  0  0  0  0  0  0  0  0  0
   -2.5979   -3.0004    0.0000 C   0  0  0  0  0  0  0  0  0  0  0  0
    2.5985   -1.4995    0.0000 C   0  0  0  0  0  0  0  0  0  0  0  0
   -5.1963   -1.5002    0.0000 C   0  0  0  0  0  0  0  0  0  0  0  0
   -2.5981   -1.5004    0.0000 C   0  0  0  0  0  0  0  0  0  0  0  0
    1.2995   -0.7495    0.0000 C   0  0  0  0  0  0  0  0  0  0  0  0
    0.0005   -1.4995    0.0000 C   0  0  0  0  0  0  0  0  0  0  0  0
   -3.8971   -0.7504    0.0000 C   0  0  0  0  0  0  0  0  0  0  0  0
   -1.2986   -0.7495    0.0000 C   0  0  0  0  0  0  0  0  0  0  0  0
   -2.5971    1.5013    0.0000 C   0  0  0  0  0  0  0  0  0  0  0  0
    1.2995    0.7505    0.0000 Br  0  0  0  0  0  0  0  0  0  0  0  0
    0.0005   -2.9995    0.0000 Br  0  0  0  0  0  0  0  0  0  0  0  0
   -3.8967    0.7505    0.0000 N   0  0  0  0  0  0  0  0  0  0  0  0
   -1.2981    0.7513    0.0000 N   0  0  0  0  0  0  0  0  0  0  0  0
   -2.5974    3.0013    0.0000 O   0  0  0  0  0  0  0  0  0  0  0  0
  5  2  2  0
  6  2  1  0
  7  3  2  0
  8  3  1  0
  9  4  2  0
 10  4  1  0
 11  5  1  0
 12  6  2  0
 13  7  1  0
 14  8  2  0
 15  9  1  0
 16 10  2  0
 17 11  2  0
 17 12  1  0
 18 13  2  0
 18 14  1  0
 19 15  2  0
 19 16  1  0
 20 17  1  0
 21 18  1  0
 22 21  1  0
 23 19  1  0
 23 20  2  0
 24 20  1  0
 24 22  1  0
 26 21  1  0
 27 22  1  0
 28 23  1  0
 28 25  2  0
 29 24  2  0
 29 25  1  0
 30  1  1  0
 30 25  1  0
M  END
>  <NAME>  (4596) 
4-(ALPHA,BETA-DIBROMOPHENETHYL)-2-METHOXY-5,6-DIPHENYLPYRIMIDINE

>  <SYNONYMS>  (4596) 


>  <SPECTRUM TYPE>  (4596) 
MS1

>  <INSTRUMENT TYPE>  (4596) 
EI-B

>  <INSTRUMENT>  (4596) 
MS-902

>  <ION MODE>  (4596) 
P

>  <INCHIKEY>  (4596) 
HFWYESJTBLLQKD-UHFFFAOYSA-N

>  <FORMULA>  (4596) 
C25H20Br2N2O

>  <EXACT MASS>  (4596) 
521.99423746

>  <MW>  (4596) 
522

>  <ID>  (4596) 
JP005086

>  <CONTRIBUTOR>  (4596) 
University of Tokyo Team, {Faculty of Engineering, University of Tokyo

>  <COMMENT>  (4596) 
SMILES=COc(n1)nc(C(Br)C(Br)c(c4)cccc4)c(c(c3)cccc3)c1c(c2)cccc2
InChI=InChI=1S/C25H20Br2N2O/c1-30-25-28-23(19-15-9-4-10-16-19)20(17-11-5-2-6-12-17)24(29-25)22(27)21(26)18-13-7-3-8-14-18/h2-16,21-22H,1H3
computed SMILES=BrC(C=1C=CC=CC1)C(Br)C=2N=C(N=C(C=3C=CC=CC3)C2C=4C=CC=CC4)OC
accession=JP005086
date=2016.01.19 (Created 2008.10.21, modified 2011.05.06)
author=SASAKI S, TOYOHASHI UNIV. OF TECH.
license=CC BY-NC-SA
exact mass=521.99424
ionization energy=70 eV
ion type=[M]+*
computed spectral entropy=3.1458602763013546
computed normalized entropy=0.6908092491704768
SPLASH=splash10-03di-1349500000-fe01712d5228cbb5df94
submitter=submitter = University of Tokyo Team (Faculty of Engineering, University of Tokyo)
MoNA Rating=3.75

>  <NUM PEAKS>  (4596) 
95

>  <MASS SPECTRAL PEAKS>  (4596) 
32 3.1
36 2.3
51 1.5
76 0.13
77 6
79 1.3
80 4.4
81 0.16
82 4.5
89 1.8
91 3.4
101 0.2
102 1.2
103 1
104 1.5
115 0.12
118 8.7
126 1.2
127 1.1
128 0.27
129 1.1
135 1.3
138 1.3
139 0.12
140 1.2
143 1.7
145 2.2
146 0.11
151 2.4
152 5.8
152.5 5
153 0.31
153.5 1.3
158 1
159 1.3
160 0.14
160.5 1.5
164 1
165 2.4
166 0.13
166.5 1.3
167 4.5
167.5 1.3
175 0.2
176 1.6
177 1.1
178 1.6
181 0.23
181.5 4.4
182 7.4
182.5 1.9
189 0.1
190 1.3
201 1.2
202 4.2
203 0.28
204 1.2
216 1.5
217 1.5
227 0.13
228 2.4
229 1
230 2.8
242 0.1
245 4.9
246 1.5
253 1.2
255 0.13
260 3.1
272 1.1
285 2.6
286 0.1
287 46.8
289 1.7
291 1.1
304 0.34
305 1.3
306 6.8
307 2.3
329 0.12
331 1.6
333 1.1
347 5
348 0.22
349 2.3
361 1.9
362 1
363 99.99
364 47.1
365 8.6
443 50.6
444 1.36
445 51.7
448 1.8
524 1.2

$$$$

     RDKit          2D

 28 32  0  0  0  0  0  0  0  0999 V2000
    3.0600    2.2000    0.0000 C   0  0  0  0  0  0  0  0  0  0  0  0
    1.7600    2.9500    0.0000 C   0  0  0  0  0  0  0  0  0  0  0  0
    3.0600    0.7000    0.0000 C   0  0  0  0  0  0  0  0  0  0  0  0
    0.4600    2.2000    0.0000 C   0  0  0  0  0  0  0  0  0  0  0  0
   -3.4289    2.9502    0.0000 C   0  0  0  0  0  0  0  0  0  0  0  0
   -0.8304    2.9506    0.0000 C   0  0  0  0  0  0  0  0  0  0  0  0
   -4.7289   -3.8002    0.0000 C   0  0  0  0  0  0  0  0  0  0  0  0
   -6.0289   -1.5502    0.0000 C   0  0  0  0  0  0  0  0  0  0  0  0
    1.7600   -1.5500    0.0000 C   0  0  0  0  0  0  0  0  0  0  0  0
   -3.4282    4.4510    0.0000 C   0  0  0  0  0  0  0  0  0  0  0  0
   -0.8296    4.4515    0.0000 C   0  0  0  0  0  0  0  0  0  0  0  0
   -6.0289   -4.5502    0.0000 C   0  0  0  0  0  0  0  0  0  0  0  0
   -7.3289   -2.3002    0.0000 C   0  0  0  0  0  0  0  0  0  0  0  0
    0.4600   -2.3000    0.0000 C   0  0  0  0  0  0  0  0  0  0  0  0
    1.7600   -0.0500    0.0000 C   0  0  0  0  0  0  0  0  0  0  0  0
   -2.1300    2.2000    0.0000 C   0  0  0  0  0  0  0  0  0  0  0  0
   -4.7289   -2.3002    0.0000 C   0  0  0  0  0  0  0  0  0  0  0  0
   -2.1286    5.2017    0.0000 C   0  0  0  0  0  0  0  0  0  0  0  0
   -7.3289   -3.8002    0.0000 C   0  0  0  0  0  0  0  0  0  0  0  0
    0.4600    0.7000    0.0000 C   0  0  0  0  0  0  0  0  0  0  0  0
   -0.8300   -1.5500    0.0000 C   0  0  0  0  0  0  0  0  0  0  0  0
   -0.8300   -0.0500    0.0000 C   0  0  0  0  0  0  0  0  0  0  0  0
   -2.1300    0.7000    0.0000 C   0  0  0  0  0  0  0  0  0  0  0  0
   -3.4300   -1.5500    0.0000 C   0  0  0  0  0  0  0  0  0  0  0  0
   -2.1286    6.7017    0.0000 Br  0  0  0  0  0  0  0  0  0  0  0  0
   -8.6278   -4.5504    0.0000 Br  0  0  0  0  0  0  0  0  0  0  0  0
   -2.1300   -2.3000    0.0000 N   0  0  0  0  0  0  0  0  0  0  0  0
   -3.4300   -0.0500    0.0000 N   0  0  0  0  0  0  0  0  0  0  0  0
  2  1  2  0
  3  1  1  0
  4  2  1  0
 10  5  2  0
 11  6  1  0
 12  7  2  0
 13  8  1  0
 14  9  2  0
 15  3  2  0
 15  9  1  0
 16  5  1  0
 16  6  2  0
 17  7  1  0
 17  8  2  0
 18 10  1  0
 18 11  2  0
 19 12  1  0
 19 13  2  0
 20  4  2  0
 20 15  1  0
 21 14  1  0
 22 20  1  0
 22 21  2  0
 23 16  1  0
 23 22  1  0
 24 17  1  0
 25 18  1  0
 26 19  1  0
 27 21  1  0
 27 24  2  0
 28 23  2  0
 28 24  1  0
M  END
>  <NAME>  (4597) 
1,3-DI(4-BROMOPHENYL)BENZO(F)QUINAZOLINE

>  <SYNONYMS>  (4597) 


>  <SPECTRUM TYPE>  (4597) 
MS1

>  <INSTRUMENT TYPE>  (4597) 
EI-B

>  <INSTRUMENT>  (4597) 
MS-902

>  <ION MODE>  (4597) 
P

>  <INCHIKEY>  (4597) 
BVWXZSVFMDWDQR-UHFFFAOYSA-N

>  <FORMULA>  (4597) 
C24H14Br2N2

>  <EXACT MASS>  (4597) 
487.952372648

>  <MW>  (4597) 
488

>  <ID>  (4597) 
JP005085

>  <CONTRIBUTOR>  (4597) 
University of Tokyo Team, {Faculty of Engineering, University of Tokyo

>  <COMMENT>  (4597) 
SMILES=Brc(c5)ccc(c5)c(n1)nc(c(c4)ccc(Br)c4)c(c32)c(ccc(cccc3)2)1
InChI=InChI=1S/C24H14Br2N2/c25-18-10-5-16(6-11-18)23-22-20-4-2-1-3-15(20)9-14-21(22)27-24(28-23)17-7-12-19(26)13-8-17/h1-14H
computed SMILES=BrC1=CC=C(C=C1)C2=NC=3C=CC4=CC=CC=C4C3C(=N2)C=5C=CC(Br)=CC5
accession=JP005085
date=2016.01.19 (Created 2008.10.21, modified 2011.05.06)
author=SASAKI S, TOYOHASHI UNIV. OF TECH.
license=CC BY-NC-SA
exact mass=487.95237
ionization energy=70 eV
ion type=[M]+*
computed spectral entropy=3.628258257550958
computed normalized entropy=0.7828415138760622
SPLASH=splash10-000f-1411900000-627f6492d52c5d2ba545
submitter=submitter = University of Tokyo Team (Faculty of Engineering, University of Tokyo)
MoNA Rating=3.75

>  <NUM PEAKS>  (4597) 
103

>  <MASS SPECTRAL PEAKS>  (4597) 
40 5.9
41 3.3
43 2.9
44 0.59
45 3.6
47 3.2
48 1.7
49 0.11
50 1.9
51 2
55 2.7
56 0.21
57 4.3
67 1.1
69 2.4
71 0.32
74 2
75 4.5
76 5.9
77 0.29
79 1.6
80 4.7
81 1.6
82 0.51
87 3
95 1.4
97 1.6
99 0.22
100 6
101 1.7
102 2
124 0.18
125 6.3
126 39.8
127 4.9
136 0.19
137 3.4
137.5 3.1
138 2.3
149 1.49
149.5 2.2
150.5 8.1
151 15.5
151.5 0.87
152 10.6
153 1.5
157 1.5
162.5 0.13
163 3
163.5 16.4
164 23.8
164.5 3.34
165 51.8
165.5 12.9
166 1.6
176 0.16
198 1.1
199 9
200 4.8
201 0.29
202 1.5
203.5 1.3
204 1.3
204.5 1.41
205 5.5
205.5 17.1
206 3.8
223 0.11
225 3.8
226 6
227 8.8
228 0.3
251 1.6
252 8.4
253 7.5
254 0.2
280 2.5
301 1.5
302 1.7
303 0.13
327 6.2
328 6.2
329 15.9
330 0.93
331 9.2
332 2.2
333 11
334 0.21
335 1.5
407 9.5
408 17.9
409 2.65
410 19.3
411 18.8
412 5.2
435 0.11
487 44.1
488 52.9
489 93.4
490 99.99
491 64.5
492 54.6
493 10.1

$$$$

     RDKit          2D

 34 38  0  0  0  0  0  0  0  0999 V2000
   -0.8310    7.4500    0.0000 C   0  0  0  0  0  0  0  0  0  0  0  0
   -8.6254   -6.0508    0.0000 C   0  0  0  0  0  0  0  0  0  0  0  0
   -4.7287    6.7002    0.0000 C   0  0  0  0  0  0  0  0  0  0  0  0
   -7.3262   -6.8012    0.0000 C   0  0  0  0  0  0  0  0  0  0  0  0
    3.0600    2.2000    0.0000 C   0  0  0  0  0  0  0  0  0  0  0  0
    1.7600    2.9500    0.0000 C   0  0  0  0  0  0  0  0  0  0  0  0
    3.0600    0.7000    0.0000 C   0  0  0  0  0  0  0  0  0  0  0  0
    0.4600    2.2000    0.0000 C   0  0  0  0  0  0  0  0  0  0  0  0
    1.7600   -1.5500    0.0000 C   0  0  0  0  0  0  0  0  0  0  0  0
   -0.8300    2.9500    0.0000 C   0  0  0  0  0  0  0  0  0  0  0  0
   -6.0286   -1.5496    0.0000 C   0  0  0  0  0  0  0  0  0  0  0  0
    0.4600   -2.3000    0.0000 C   0  0  0  0  0  0  0  0  0  0  0  0
   -0.8300    4.4500    0.0000 C   0  0  0  0  0  0  0  0  0  0  0  0
   -7.3275   -2.2998    0.0000 C   0  0  0  0  0  0  0  0  0  0  0  0
   -3.4300    2.9500    0.0000 C   0  0  0  0  0  0  0  0  0  0  0  0
   -4.7282   -3.8010    0.0000 C   0  0  0  0  0  0  0  0  0  0  0  0
    1.7600   -0.0500    0.0000 C   0  0  0  0  0  0  0  0  0  0  0  0
   -2.1300    2.2000    0.0000 C   0  0  0  0  0  0  0  0  0  0  0  0
   -4.7289   -2.3002    0.0000 C   0  0  0  0  0  0  0  0  0  0  0  0
    0.4600    0.7000    0.0000 C   0  0  0  0  0  0  0  0  0  0  0  0
   -0.8300   -1.5500    0.0000 C   0  0  0  0  0  0  0  0  0  0  0  0
   -2.1300    5.2000    0.0000 C   0  0  0  0  0  0  0  0  0  0  0  0
   -7.3268   -3.8006    0.0000 C   0  0  0  0  0  0  0  0  0  0  0  0
   -3.4300    4.4500    0.0000 C   0  0  0  0  0  0  0  0  0  0  0  0
   -6.0271   -4.5512    0.0000 C   0  0  0  0  0  0  0  0  0  0  0  0
   -0.8300   -0.0500    0.0000 C   0  0  0  0  0  0  0  0  0  0  0  0
   -2.1300    0.7000    0.0000 C   0  0  0  0  0  0  0  0  0  0  0  0
   -3.4300   -1.5500    0.0000 C   0  0  0  0  0  0  0  0  0  0  0  0
   -2.1300   -2.3000    0.0000 N   0  0  0  0  0  0  0  0  0  0  0  0
   -3.4300   -0.0500    0.0000 N   0  0  0  0  0  0  0  0  0  0  0  0
   -2.1300    6.7000    0.0000 O   0  0  0  0  0  0  0  0  0  0  0  0
   -8.6257   -4.5508    0.0000 O   0  0  0  0  0  0  0  0  0  0  0  0
   -4.7289    5.2002    0.0000 O   0  0  0  0  0  0  0  0  0  0  0  0
   -6.0271   -6.0512    0.0000 O   0  0  0  0  0  0  0  0  0  0  0  0
  6  5  2  0
  7  5  1  0
  8  6  1  0
 12  9  2  0
 13 10  2  0
 14 11  2  0
 17  7  2  0
 17  9  1  0
 18 10  1  0
 18 15  2  0
 19 11  1  0
 19 16  2  0
 20  8  2  0
 20 17  1  0
 21 12  1  0
 22 13  1  0
 23 14  1  0
 24 15  1  0
 24 22  2  0
 25 16  1  0
 25 23  2  0
 26 20  1  0
 26 21  2  0
 27 18  1  0
 27 26  1  0
 28 19  1  0
 29 21  1  0
 29 28  2  0
 30 27  2  0
 30 28  1  0
 31  1  1  0
 31 22  1  0
 32  2  1  0
 32 23  1  0
 33  3  1  0
 33 24  1  0
 34  4  1  0
 34 25  1  0
M  END
>  <NAME>  (4598) 
1,3-DI(3,4-DIMETHOXYPHENYL)BENZO(F)QUINAZOLINE

>  <SYNONYMS>  (4598) 


>  <SPECTRUM TYPE>  (4598) 
MS1

>  <INSTRUMENT TYPE>  (4598) 
EI-B

>  <INSTRUMENT>  (4598) 
MS-902

>  <ION MODE>  (4598) 
P

>  <INCHIKEY>  (4598) 
XCDSYIVMRAJUSN-UHFFFAOYSA-N

>  <FORMULA>  (4598) 
C28H24N2O4

>  <EXACT MASS>  (4598) 
452.173607248

>  <MW>  (4598) 
452

>  <ID>  (4598) 
JP005083

>  <CONTRIBUTOR>  (4598) 
University of Tokyo Team, {Faculty of Engineering, University of Tokyo

>  <COMMENT>  (4598) 
SMILES=c(c15)cccc(c(c3cc5)c(nc(c(c4)cc(c(OC)c4)OC)n3)c(c2)cc(c(OC)c2)OC)1
InChI=InChI=1S/C28H24N2O4/c1-31-22-13-10-18(15-24(22)33-3)27-26-20-8-6-5-7-17(20)9-12-21(26)29-28(30-27)19-11-14-23(32-2)25(16-19)34-4/h5-16H,1-4H3
computed SMILES=N1=C(N=C(C=2C=CC(OC)=C(OC)C2)C3=C1C=CC4=CC=CC=C43)C5=CC=C(OC)C(OC)=C5
accession=JP005083
date=2016.01.19 (Created 2008.10.21, modified 2011.05.06)
author=SASAKI S, TOYOHASHI UNIV. OF TECH.
license=CC BY-NC-SA
exact mass=452.17361
ionization energy=70 eV
ion type=[M]+*
computed spectral entropy=3.3854048091530413
computed normalized entropy=0.7259459683792938
SPLASH=splash10-0udi-0301900000-6f3b5f7e12acd4ab2fd5
submitter=submitter = University of Tokyo Team (Faculty of Engineering, University of Tokyo)
MoNA Rating=3.75

>  <NUM PEAKS>  (4598) 
106

>  <MASS SPECTRAL PEAKS>  (4598) 
127 1
133 1.5
139 1.7
139.5 0.29
140 3.2
145 2.7
145.5 3.7
146 0.3
146.5 1.6
147 1.1
151 1
151.5 0.25
152 4.7
152.5 2.5
153 2.4
153.5 0.12
154 1.7
158 1.9
158.5 1.5
159 0.13
159.5 1.6
160 2.2
160.5 1.4
161 0.21
161.5 1.7
166 1.7
166.5 1.7
167 0.41
167.5 2.9
168 1.7
173 1.2
173.5 0.12
174 2
174.5 1.2
175 2
175.5 0.14
180 1.8
180.5 1
181 2.4
181.5 0.21
182 2.1
182.5 1
183 1.9
188 0.18
188.5 1.6
189 6.2
189.5 2.2
190 0.1
196.5 1.1
197 2.2
203 2.5
203.5 0.11
204 2.5
204.5 1.1
210 1.1
210.5 0.47
211 2.3
218 1.1
218.5 1.9
226 1.16
226.5 3.5
227 1
279 1.6
285 0.35
287 1.1
292 1.1
319 1
321 0.14
335 1.3
349 2.1
350 1.1
362 0.11
363 1.8
364 1
365 1.6
366 0.18
375 1.1
376 1.4
377 2.5
378 0.2
379 1.2
390 1.9
391 2.7
392 0.26
393 4.5
394 2
405 2.9
406 1.39
407 7.9
408 2.1
409 1.8
419 0.29
420 1.5
421 9.8
422 4.7
423 0.4
424 1.1
435 15.2
436 7.6
437 1.48
438 4.4
451 50.8
452 99.99
453 2.97
454 6.5
455 1

$$$$

     RDKit          2D

 30 34  0  0  0  0  0  0  0  0999 V2000
   -6.0270    2.9510    0.0000 C   0  0  0  0  0  0  0  0  0  0  0  0
   -3.4302   -6.0504    0.0000 C   0  0  0  0  0  0  0  0  0  0  0  0
    3.0600    2.2000    0.0000 C   0  0  0  0  0  0  0  0  0  0  0  0
    1.7600    2.9500    0.0000 C   0  0  0  0  0  0  0  0  0  0  0  0
   -0.8296    4.4515    0.0000 C   0  0  0  0  0  0  0  0  0  0  0  0
   -7.3289   -2.3002    0.0000 C   0  0  0  0  0  0  0  0  0  0  0  0
   -2.1286    5.2017    0.0000 C   0  0  0  0  0  0  0  0  0  0  0  0
   -7.3289   -3.8002    0.0000 C   0  0  0  0  0  0  0  0  0  0  0  0
    3.0600    0.7000    0.0000 C   0  0  0  0  0  0  0  0  0  0  0  0
    0.4600    2.2000    0.0000 C   0  0  0  0  0  0  0  0  0  0  0  0
   -0.8304    2.9506    0.0000 C   0  0  0  0  0  0  0  0  0  0  0  0
   -6.0289   -1.5502    0.0000 C   0  0  0  0  0  0  0  0  0  0  0  0
   -3.4282    4.4510    0.0000 C   0  0  0  0  0  0  0  0  0  0  0  0
   -6.0289   -4.5502    0.0000 C   0  0  0  0  0  0  0  0  0  0  0  0
    1.7600   -1.5500    0.0000 C   0  0  0  0  0  0  0  0  0  0  0  0
    0.4600   -2.3000    0.0000 C   0  0  0  0  0  0  0  0  0  0  0  0
    1.7600   -0.0500    0.0000 C   0  0  0  0  0  0  0  0  0  0  0  0
    0.4600    0.7000    0.0000 C   0  0  0  0  0  0  0  0  0  0  0  0
   -2.1300    2.2000    0.0000 C   0  0  0  0  0  0  0  0  0  0  0  0
   -4.7289   -2.3002    0.0000 C   0  0  0  0  0  0  0  0  0  0  0  0
   -0.8300   -1.5500    0.0000 C   0  0  0  0  0  0  0  0  0  0  0  0
   -3.4289    2.9502    0.0000 C   0  0  0  0  0  0  0  0  0  0  0  0
   -4.7289   -3.8002    0.0000 C   0  0  0  0  0  0  0  0  0  0  0  0
   -0.8300   -0.0500    0.0000 C   0  0  0  0  0  0  0  0  0  0  0  0
   -2.1300    0.7000    0.0000 C   0  0  0  0  0  0  0  0  0  0  0  0
   -3.4300   -1.5500    0.0000 C   0  0  0  0  0  0  0  0  0  0  0  0
   -2.1300   -2.3000    0.0000 N   0  0  0  0  0  0  0  0  0  0  0  0
   -3.4300   -0.0500    0.0000 N   0  0  0  0  0  0  0  0  0  0  0  0
   -4.7282    2.2006    0.0000 O   0  0  0  0  0  0  0  0  0  0  0  0
   -3.4300   -4.5504    0.0000 O   0  0  0  0  0  0  0  0  0  0  0  0
  4  3  2  0
  7  5  2  0
  8  6  2  0
  9  3  1  0
 10  4  1  0
 11  5  1  0
 12  6  1  0
 13  7  1  0
 14  8  1  0
 16 15  2  0
 17  9  2  0
 17 15  1  0
 18 10  2  0
 18 17  1  0
 19 11  2  0
 20 12  2  0
 21 16  1  0
 22 13  2  0
 22 19  1  0
 23 14  2  0
 23 20  1  0
 24 18  1  0
 24 21  2  0
 25 19  1  0
 25 24  1  0
 26 20  1  0
 27 21  1  0
 27 26  2  0
 28 25  2  0
 28 26  1  0
 29  1  1  0
 29 22  1  0
 30  2  1  0
 30 23  1  0
M  END
>  <NAME>  (4599) 
1,3-DI(2-METHOXYPHENYL)BENZO(F)QUINAZOLINE

>  <SYNONYMS>  (4599) 


>  <SPECTRUM TYPE>  (4599) 
MS1

>  <INSTRUMENT TYPE>  (4599) 
EI-B

>  <INSTRUMENT>  (4599) 
MS-902

>  <ION MODE>  (4599) 
P

>  <INCHIKEY>  (4599) 
ZGFNWRPKMZWLGN-UHFFFAOYSA-N

>  <FORMULA>  (4599) 
C26H20N2O2

>  <EXACT MASS>  (4599) 
392.15247788

>  <MW>  (4599) 
392

>  <ID>  (4599) 
JP005079

>  <CONTRIBUTOR>  (4599) 
University of Tokyo Team, {Faculty of Engineering, University of Tokyo

>  <COMMENT>  (4599) 
SMILES=c(c12)cccc(ccc(n4)c2c(nc(c(c(OC)5)cccc5)4)c(c(OC)3)cccc3)1
InChI=InChI=1S/C26H20N2O2/c1-29-22-13-7-5-11-19(22)25-24-18-10-4-3-9-17(18)15-16-21(24)27-26(28-25)20-12-6-8-14-23(20)30-2/h3-16H,1-2H3
computed SMILES=N1=C(N=C(C=2C=CC=CC2OC)C3=C1C=CC4=CC=CC=C43)C=5C=CC=CC5OC
accession=JP005079
date=2016.01.19 (Created 2008.10.21, modified 2011.05.06)
author=SASAKI S, TOYOHASHI UNIV. OF TECH.
license=CC BY-NC-SA
exact mass=392.15248
ionization energy=70 eV
ion type=[M]+*
computed spectral entropy=3.8529884736662847
computed normalized entropy=0.7890937487845905
SPLASH=splash10-0006-9626000000-af67cc2881bf0b1fa4f3
submitter=submitter = University of Tokyo Team (Faculty of Engineering, University of Tokyo)
MoNA Rating=3.75

>  <NUM PEAKS>  (4599) 
132

>  <MASS SPECTRAL PEAKS>  (4599) 
50 4.9
51 15.1
52 7.2
53 0.29
56 1.6
57 2.6
62 1.9
63 0.55
64 1.6
65 8.3
71 1.3
74 0.22
75 1.9
76 3.9
77 22.6
78 0.88
79 10.1
89 2.3
90 1.2
91 99.99
92 8.3
93 1
101 1.2
102 0.19
103 8.4
104 14.5
105 24.8
106 5.83
107 6.3
120 12.5
121 1.2
125 0.14
126 9.1
127 3.4
128 1.1
139 0.12
140 1.4
145.5 1
146 1.5
146.5 0.12
150 1.4
151 1.6
151.5 1.8
152 0.48
152.5 1.3
153 2.4
158 3.5
158.5 0.34
159 3.2
159.5 2.5
160 1.6
164 0.16
164.5 1.7
165 4.7
165.5 2.6
166 0.29
166.5 1.3
167 1.8
173.5 2
174 0.36
174.5 1.3
180 2.2
180.5 1.1
181 0.14
188 2.7
188.5 2.3
189 2.6
196 0.4
196.5 1.1
201 1
202 1.4
215 0.2
216 1.7
223 1
226 2
227 0.72
228 1.4
229 1
230 12.4
231 0.36
240 1.1
241 1.1
242 1.2
243 0.13
244 2.2
245 1.1
246 1.1
253 0.53
254 1.4
255 2.1
256 2.8
257 0.77
258 6.6
259 3.3
260 2.7
269 0.12
272 1
273 1.3
284 1.1
285 0.78
286 2
287 3.1
292 1.2
317 0.12
318 2.1
319 1.6
331 6.7
332 0.23
333 1.9
345 1.7
346 2.7
347 0.79
348 2.7
349 3.6
350 1.1
359 0.19
360 1.1
361 6
362 2.2
363 0.59
364 2
373 3.3
374 2
375 0.41
376 1.4
377 18
378 14.4
379 0.31
391 14.4
392 46
393 13.6
394 2.3

$$$$

     RDKit          2D

 29 34  0  0  0  0  0  0  0  0999 V2000
    2.2081   -6.5755    0.0000 C   0  0  0  0  0  0  0  0  0  0  0  0
    7.4042    2.4245    0.0000 C   0  0  0  0  0  0  0  0  0  0  0  0
    3.5081   -5.8255    0.0000 C   0  0  0  0  0  0  0  0  0  0  0  0
    0.9081   -5.8255    0.0000 C   0  0  0  0  0  0  0  0  0  0  0  0
    6.1047    3.1754    0.0000 C   0  0  0  0  0  0  0  0  0  0  0  0
    7.4047    0.9237    0.0000 C   0  0  0  0  0  0  0  0  0  0  0  0
   -2.3478   -5.8999    0.0000 C   0  0  0  0  0  0  0  0  0  0  0  0
   -0.8561   -5.7431    0.0000 C   0  0  0  0  0  0  0  0  0  0  0  0
   -3.2295   -4.6864    0.0000 C   0  0  0  0  0  0  0  0  0  0  0  0
    3.5081   -4.3255    0.0000 C   0  0  0  0  0  0  0  0  0  0  0  0
    0.9081   -4.3255    0.0000 C   0  0  0  0  0  0  0  0  0  0  0  0
    4.8057    2.4254    0.0000 C   0  0  0  0  0  0  0  0  0  0  0  0
    6.1057    0.1737    0.0000 C   0  0  0  0  0  0  0  0  0  0  0  0
   -0.2460   -4.3728    0.0000 C   0  0  0  0  0  0  0  0  0  0  0  0
   -3.5011   -2.1026    0.0000 C   0  0  0  0  0  0  0  0  0  0  0  0
   -2.8910   -0.7322    0.0000 C   0  0  0  0  0  0  0  0  0  0  0  0
   -2.6194   -3.3161    0.0000 C   0  0  0  0  0  0  0  0  0  0  0  0
    2.2081   -3.5755    0.0000 C   0  0  0  0  0  0  0  0  0  0  0  0
    4.8062    0.9245    0.0000 C   0  0  0  0  0  0  0  0  0  0  0  0
   -1.1276   -3.1593    0.0000 C   0  0  0  0  0  0  0  0  0  0  0  0
   -1.3992   -0.5755    0.0000 C   0  0  0  0  0  0  0  0  0  0  0  0
   -0.5175   -1.7890    0.0000 C   0  0  0  0  0  0  0  0  0  0  0  0
    0.9091   -1.3255    0.0000 C   0  0  0  0  0  0  0  0  0  0  0  0
    2.2081   -2.0755    0.0000 C   0  0  0  0  0  0  0  0  0  0  0  0
    3.5071    0.1745    0.0000 C   0  0  0  0  0  0  0  0  0  0  0  0
    0.9091    0.1745    0.0000 C   0  0  0  0  0  0  0  0  0  0  0  0
   -0.5175    0.6381    0.0000 N   0  0  0  0  0  0  0  0  0  0  0  0
    3.5071   -1.3255    0.0000 N   0  0  0  0  0  0  0  0  0  0  0  0
    2.2081    0.9245    0.0000 N   0  0  0  0  0  0  0  0  0  0  0  0
  3  1  2  0
  4  1  1  0
  5  2  2  0
  6  2  1  0
  8  7  2  0
  9  7  1  0
 10  3  1  0
 11  4  2  0
 12  5  1  0
 13  6  2  0
 14  8  1  0
 16 15  2  0
 17  9  2  0
 17 15  1  0
 18 10  2  0
 18 11  1  0
 19 12  2  0
 19 13  1  0
 20 14  1  0
 20 17  1  0
 21 16  1  0
 22 20  2  0
 22 21  1  0
 23 22  1  0
 24 18  1  0
 24 23  2  0
 25 19  1  0
 26 23  1  0
 27 21  2  0
 27 26  1  0
 28 24  1  0
 28 25  2  0
 29 25  1  0
 29 26  2  0
M  END
>  <NAME>  (4600) 
9,11-DIPHENYLBENZO(E)PYRIMIDO(4,5-B)INDOLE

>  <SYNONYMS>  (4600) 


>  <SPECTRUM TYPE>  (4600) 
MS1

>  <INSTRUMENT TYPE>  (4600) 
EI-B

>  <INSTRUMENT>  (4600) 
MS-902

>  <ION MODE>  (4600) 
P

>  <INCHIKEY>  (4600) 
ILMXIHSUBMOWPZ-UHFFFAOYSA-N

>  <FORMULA>  (4600) 
C26H17N3

>  <EXACT MASS>  (4600) 
371.14224754400004

>  <MW>  (4600) 
371

>  <ID>  (4600) 
JP005077

>  <CONTRIBUTOR>  (4600) 
University of Tokyo Team, {Faculty of Engineering, University of Tokyo

>  <COMMENT>  (4600) 
SMILES=c(c(c(c6)cccc6)4)(c(nc(c(c5)cccc5)n4)1)c(c32)c(ccc2=CC=CC3)=N1
InChI=InChI=1S/C26H17N3/c1-3-10-18(11-4-1)24-23-22-20-14-8-7-9-17(20)15-16-21(22)27-26(23)29-25(28-24)19-12-5-2-6-13-19/h1-13,15-16H,14H2
computed SMILES=N=1C(=NC(C=2C=CC=CC2)=C3C1N=C4C=CC5=CC=CCC5=C43)C=6C=CC=CC6
accession=JP005077
date=2016.01.19 (Created 2008.10.21, modified 2011.05.06)
author=SASAKI S, TOYOHASHI UNIV. OF TECH.
license=CC BY-NC-SA
exact mass=371.14225
ionization energy=70 eV
ion type=[M]+*
computed spectral entropy=2.5478785283580248
computed normalized entropy=0.6512943622322016
SPLASH=splash10-00di-0219000000-461aaa5ebf7bf57216d7
submitter=submitter = University of Tokyo Team (Faculty of Engineering, University of Tokyo)
MoNA Rating=3.75

>  <NUM PEAKS>  (4600) 
50

>  <MASS SPECTRAL PEAKS>  (4600) 
36 2.3
44 12.2
69 0.66
73 1.2
77 2
80 1
106.5 0.12
107 1
119.5 1
120 1.4
120.5 0.15
131 4.9
133 1.1
133.5 1.1
138 0.24
139 1.4
164 3.5
165 2.2
170.5 0.12
171 1.9
172 1.8
177 1.2
183 0.12
183.5 1
184 3.4
185 21.6
186 1.85
189 1.2
190 1
213 3
214 0.25
215 1.3
238 2.1
239 2.5
240 0.86
241 2.5
265 5.2
266 12
267 0.47
268 1.8
291 1.8
292 3.2
293 0.18
325 18.9
368 1.6
369 4.8
370 76.3
371 99.99
372 25.2
373 3.2

$$$$

     RDKit          2D

 28 31  0  0  0  0  0  0  0  0999 V2000
   -3.8965    3.7511    0.0000 C   0  0  0  0  0  0  0  0  0  0  0  0
    5.1966   -2.9995    0.0000 C   0  0  0  0  0  0  0  0  0  0  0  0
   -2.5974   -6.0004    0.0000 C   0  0  0  0  0  0  0  0  0  0  0  0
   -7.7946   -2.9997    0.0000 C   0  0  0  0  0  0  0  0  0  0  0  0
    5.1971   -1.4987    0.0000 C   0  0  0  0  0  0  0  0  0  0  0  0
    3.8971   -3.7504    0.0000 C   0  0  0  0  0  0  0  0  0  0  0  0
   -1.2975   -5.2502    0.0000 C   0  0  0  0  0  0  0  0  0  0  0  0
   -3.8975   -5.2506    0.0000 C   0  0  0  0  0  0  0  0  0  0  0  0
   -6.4952   -3.7508    0.0000 C   0  0  0  0  0  0  0  0  0  0  0  0
   -7.7949   -1.4989    0.0000 C   0  0  0  0  0  0  0  0  0  0  0  0
    3.8980   -0.7487    0.0000 C   0  0  0  0  0  0  0  0  0  0  0  0
    2.5980   -3.0004    0.0000 C   0  0  0  0  0  0  0  0  0  0  0  0
   -1.2977   -3.7502    0.0000 C   0  0  0  0  0  0  0  0  0  0  0  0
   -3.8977   -3.7506    0.0000 C   0  0  0  0  0  0  0  0  0  0  0  0
   -5.1961   -3.0010    0.0000 C   0  0  0  0  0  0  0  0  0  0  0  0
   -6.4957   -0.7491    0.0000 C   0  0  0  0  0  0  0  0  0  0  0  0
    1.2995   -0.7495    0.0000 C   0  0  0  0  0  0  0  0  0  0  0  0
    0.0005   -1.4995    0.0000 C   0  0  0  0  0  0  0  0  0  0  0  0
    2.5985   -1.4995    0.0000 C   0  0  0  0  0  0  0  0  0  0  0  0
   -2.5979   -3.0004    0.0000 C   0  0  0  0  0  0  0  0  0  0  0  0
   -5.1963   -1.5002    0.0000 C   0  0  0  0  0  0  0  0  0  0  0  0
   -1.2986   -0.7495    0.0000 C   0  0  0  0  0  0  0  0  0  0  0  0
   -2.5981   -1.5004    0.0000 C   0  0  0  0  0  0  0  0  0  0  0  0
   -3.8971   -0.7504    0.0000 C   0  0  0  0  0  0  0  0  0  0  0  0
   -2.5971    1.5013    0.0000 C   0  0  0  0  0  0  0  0  0  0  0  0
   -1.2981    0.7513    0.0000 N   0  0  0  0  0  0  0  0  0  0  0  0
   -3.8967    0.7505    0.0000 N   0  0  0  0  0  0  0  0  0  0  0  0
   -2.5974    3.0013    0.0000 O   0  0  0  0  0  0  0  0  0  0  0  0
  5  2  2  0
  6  2  1  0
  7  3  2  0
  8  3  1  0
  9  4  2  0
 10  4  1  0
 11  5  1  0
 12  6  2  0
 13  7  1  0
 14  8  2  0
 15  9  1  0
 16 10  2  0
 18 17  1  0
 19 11  2  0
 19 12  1  0
 19 17  1  0
 20 13  2  0
 20 14  1  0
 21 15  2  0
 21 16  1  0
 22 18  1  0
 23 20  1  0
 23 22  2  0
 24 21  1  0
 24 23  1  0
 26 22  1  0
 26 25  2  0
 27 24  2  0
 27 25  1  0
 28  1  1  0
 28 25  1  0
M  END
>  <NAME>  (4601) 
2-METHOXY-4-PHENETHYL-5,6-DIPHENYLPYRIMIDINE

>  <SYNONYMS>  (4601) 


>  <SPECTRUM TYPE>  (4601) 
MS1

>  <INSTRUMENT TYPE>  (4601) 
EI-B

>  <INSTRUMENT>  (4601) 
MS-902

>  <ION MODE>  (4601) 
P

>  <INCHIKEY>  (4601) 
XVUHEFHMMXQDDJ-UHFFFAOYSA-N

>  <FORMULA>  (4601) 
C25H22N2O

>  <EXACT MASS>  (4601) 
366.17321332399996

>  <MW>  (4601) 
366

>  <ID>  (4601) 
JP005076

>  <CONTRIBUTOR>  (4601) 
University of Tokyo Team, {Faculty of Engineering, University of Tokyo

>  <COMMENT>  (4601) 
SMILES=COc(n1)nc(c(c4)cccc4)c(c(c3)cccc3)c(CCc(c2)cccc2)1
InChI=InChI=1S/C25H22N2O/c1-28-25-26-22(18-17-19-11-5-2-6-12-19)23(20-13-7-3-8-14-20)24(27-25)21-15-9-4-10-16-21/h2-16H,17-18H2,1H3
computed SMILES=N=1C(=NC(=C(C=2C=CC=CC2)C1C=3C=CC=CC3)CCC=4C=CC=CC4)OC
accession=JP005076
date=2016.01.19 (Created 2008.10.21, modified 2011.05.06)
author=SASAKI S, TOYOHASHI UNIV. OF TECH.
license=CC BY-NC-SA
exact mass=366.17321
ionization energy=70 eV
ion type=[M]+*
computed spectral entropy=3.542309972519761
computed normalized entropy=0.749316558818867
SPLASH=splash10-014i-4479000000-7082d1dba88a9e7a91e0
submitter=submitter = University of Tokyo Team (Faculty of Engineering, University of Tokyo)
MoNA Rating=3.75

>  <NUM PEAKS>  (4601) 
113

>  <MASS SPECTRAL PEAKS>  (4601) 
32 2.3
39 5.3
41 1.6
42 0.26
50 1.5
51 7.3
52 1.4
54 0.13
58 1.3
63 3.2
64 1
65 1.13
75 1.1
77 18.6
78 4.1
79 0.15
83 1.3
88 1.6
89 6.5
90 0.16
91 40.4
92 3.2
101 1.6
102 0.33
103 5.3
104 6.9
105 1.6
114 0.2
115 9.4
116 2.3
117 1.3
118 0.65
126 1.3
127 2.3
128 4.1
129 0.68
130 3.7
132 1.1
136 1.3
138 0.11
139 1.7
140 2.7
144 1.3
150 0.11
151 2.9
152 3.4
155 1.4
156 0.22
157 4.9
163 1.3
164 1.7
165 0.76
166 1.6
167 1.2
175 1
176 0.5
177 5.1
178 9.2
179 2.5
189 0.35
190 5.3
191 4.1
192 1.7
201 0.16
202 4.4
203 6.5
204 7.2
205 0.21
215 2.1
216 2.9
217 4
218 0.35
219 2.3
228 1.1
229 4
230 0.26
231 3.3
232 2
241 1.1
242 0.14
243 2.7
244 1.5
245 5.7
246 0.17
247 2.7
248 1
258 1.5
259 0.29
260 1.7
261 25
262 5
263 0.35
271 1.1
273 10.1
274 14
275 0.81
276 1.6
287 4.1
289 37.2
290 0.8
291 1.6
308 1.9
309 1
337 0.11
349 1.2
351 4.1
352 1.1
364 0.2
364.5 1
365 74.1
366 99.99
367 2.32
368 2.6

$$$$

     RDKit          2D

 28 31  0  0  0  0  0  0  0  0999 V2000
   -3.8965    3.7511    0.0000 C   0  0  0  0  0  0  0  0  0  0  0  0
    5.1966   -2.9995    0.0000 C   0  0  0  0  0  0  0  0  0  0  0  0
   -2.5974   -6.0004    0.0000 C   0  0  0  0  0  0  0  0  0  0  0  0
   -7.7946   -2.9997    0.0000 C   0  0  0  0  0  0  0  0  0  0  0  0
    5.1971   -1.4987    0.0000 C   0  0  0  0  0  0  0  0  0  0  0  0
    3.8971   -3.7504    0.0000 C   0  0  0  0  0  0  0  0  0  0  0  0
   -1.2975   -5.2502    0.0000 C   0  0  0  0  0  0  0  0  0  0  0  0
   -3.8975   -5.2506    0.0000 C   0  0  0  0  0  0  0  0  0  0  0  0
   -6.4952   -3.7508    0.0000 C   0  0  0  0  0  0  0  0  0  0  0  0
   -7.7949   -1.4989    0.0000 C   0  0  0  0  0  0  0  0  0  0  0  0
    3.8980   -0.7487    0.0000 C   0  0  0  0  0  0  0  0  0  0  0  0
    2.5980   -3.0004    0.0000 C   0  0  0  0  0  0  0  0  0  0  0  0
   -1.2977   -3.7502    0.0000 C   0  0  0  0  0  0  0  0  0  0  0  0
   -3.8977   -3.7506    0.0000 C   0  0  0  0  0  0  0  0  0  0  0  0
   -5.1961   -3.0010    0.0000 C   0  0  0  0  0  0  0  0  0  0  0  0
   -6.4957   -0.7491    0.0000 C   0  0  0  0  0  0  0  0  0  0  0  0
    1.2995   -0.7495    0.0000 C   0  0  0  0  0  0  0  0  0  0  0  0
    0.0005   -1.4995    0.0000 C   0  0  0  0  0  0  0  0  0  0  0  0
    2.5985   -1.4995    0.0000 C   0  0  0  0  0  0  0  0  0  0  0  0
   -2.5979   -3.0004    0.0000 C   0  0  0  0  0  0  0  0  0  0  0  0
   -5.1963   -1.5002    0.0000 C   0  0  0  0  0  0  0  0  0  0  0  0
   -1.2986   -0.7495    0.0000 C   0  0  0  0  0  0  0  0  0  0  0  0
   -2.5981   -1.5004    0.0000 C   0  0  0  0  0  0  0  0  0  0  0  0
   -3.8971   -0.7504    0.0000 C   0  0  0  0  0  0  0  0  0  0  0  0
   -2.5971    1.5013    0.0000 C   0  0  0  0  0  0  0  0  0  0  0  0
   -1.2981    0.7513    0.0000 N   0  0  0  0  0  0  0  0  0  0  0  0
   -3.8967    0.7505    0.0000 N   0  0  0  0  0  0  0  0  0  0  0  0
   -2.5974    3.0013    0.0000 O   0  0  0  0  0  0  0  0  0  0  0  0
  5  2  2  0
  6  2  1  0
  7  3  2  0
  8  3  1  0
  9  4  2  0
 10  4  1  0
 11  5  1  0
 12  6  2  0
 13  7  1  0
 14  8  2  0
 15  9  1  0
 16 10  2  0
 17 18  2  0
 19 11  2  0
 19 12  1  0
 19 17  1  0
 20 13  2  0
 20 14  1  0
 21 15  2  0
 21 16  1  0
 22 18  1  0
 23 20  1  0
 23 22  2  0
 24 21  1  0
 24 23  1  0
 26 22  1  0
 26 25  2  0
 27 24  2  0
 27 25  1  0
 28  1  1  0
 28 25  1  0
M  END
>  <NAME>  (4602) 
2-METHOXY-4,5-DIPHENYL-6-STYRYLPYRIMIDINE

>  <SYNONYMS>  (4602) 


>  <SPECTRUM TYPE>  (4602) 
MS1

>  <INSTRUMENT TYPE>  (4602) 
EI-B

>  <INSTRUMENT>  (4602) 
MS-902

>  <ION MODE>  (4602) 
P

>  <INCHIKEY>  (4602) 
JNQXQVXORRLFKD-ISLYRVAYSA-N

>  <FORMULA>  (4602) 
C25H20N2O

>  <EXACT MASS>  (4602) 
364.15756325999996

>  <MW>  (4602) 
364

>  <ID>  (4602) 
JP005075

>  <CONTRIBUTOR>  (4602) 
University of Tokyo Team, {Faculty of Engineering, University of Tokyo

>  <COMMENT>  (4602) 
SMILES=COc(n1)nc(c(c4)cccc4)c(c(c3)cccc3)c(C=Cc(c2)cccc2)1
InChI=InChI=1S/C25H20N2O/c1-28-25-26-22(18-17-19-11-5-2-6-12-19)23(20-13-7-3-8-14-20)24(27-25)21-15-9-4-10-16-21/h2-18H,1H3/b18-17+
computed SMILES=N=1C(=NC(C=2C=CC=CC2)=C(C1C=CC=3C=CC=CC3)C=4C=CC=CC4)OC
accession=JP005075
date=2016.01.19 (Created 2008.10.21, modified 2011.05.06)
author=SASAKI S, TOYOHASHI UNIV. OF TECH.
license=CC BY-NC-SA
exact mass=364.15756
ionization energy=70 eV
ion type=[M]+*
computed spectral entropy=3.7107417359237047
computed normalized entropy=0.7660194929912364
SPLASH=splash10-01p9-2495000000-fdeab19cbd58b9d235dc
submitter=submitter = University of Tokyo Team (Faculty of Engineering, University of Tokyo)
MoNA Rating=3.75

>  <NUM PEAKS>  (4602) 
127

>  <MASS SPECTRAL PEAKS>  (4602) 
32 1.7
39 3.2
50 1.7
51 0.7
52 1.6
58 1.1
63 3.2
65 0.26
75 2
76 3.9
77 20.9
78 0.31
83 2.4
85 2
87 1.1
88 0.17
89 4.4
91 8
100 1
101 0.35
102 4
103 3.3
104 4
105 0.11
113 1.3
114 1.5
115 3.8
116 0.14
118 15.2
119 1.4
125 1.2
126 0.32
127 2.8
128 7
129 2.4
138 0.13
139 2.6
140 2.5
141 1.2
143 0.1
145.5 1.4
150 1.4
151 3.5
151.5 0.11
152 7.4
152.5 2.4
153 2.4
155 0.1
163 2.2
164 1.5
165 4.7
166 0.1
167 1.2
169 1
173 1.2
174 0.22
175 1.4
176 4.6
177 2.6
178 0.53
179 1
189 2.8
190 4.5
191 0.22
194 1.1
200 1.7
201 2.9
202 1.31
203 6.1
204 2.2
209 1.7
214 0.18
215 2.8
216 2.9
217 3.5
218 0.14
219 1
226 1.4
227 3
228 0.39
229 1.9
230 7.2
231 1.7
242 0.26
243 1.7
244 1.4
245 2.4
246 0.15
253 2.6
255 3.2
256 1.1
257 0.14
260 2.4
261 1.1
271 6.8
272 0.24
277 1.2
278 1.2
285 3.2
286 0.2
287 99.99
288 18.4
289 3.5
290 0.14
291 1.8
302 1
303 1
304 0.5
305 2
306 8.2
307 4
308 0.1
319 1.3
329 1.3
331 1.3
332 0.12
333 1.8
347 5.1
348 2.4
349 0.43
350 1.5
361 1.4
362 1.2
363 7.48
364 60.4
365 12.6
366 1.5

$$$$

     RDKit          2D

 27 30  0  0  0  0  0  0  0  0999 V2000
    5.1966   -2.9995    0.0000 C   0  0  0  0  0  0  0  0  0  0  0  0
   -2.5974   -6.0004    0.0000 C   0  0  0  0  0  0  0  0  0  0  0  0
   -7.7946   -2.9997    0.0000 C   0  0  0  0  0  0  0  0  0  0  0  0
    5.1971   -1.4987    0.0000 C   0  0  0  0  0  0  0  0  0  0  0  0
    3.8971   -3.7504    0.0000 C   0  0  0  0  0  0  0  0  0  0  0  0
   -1.2975   -5.2502    0.0000 C   0  0  0  0  0  0  0  0  0  0  0  0
   -3.8975   -5.2506    0.0000 C   0  0  0  0  0  0  0  0  0  0  0  0
   -6.4952   -3.7508    0.0000 C   0  0  0  0  0  0  0  0  0  0  0  0
   -7.7949   -1.4989    0.0000 C   0  0  0  0  0  0  0  0  0  0  0  0
    3.8980   -0.7487    0.0000 C   0  0  0  0  0  0  0  0  0  0  0  0
    2.5980   -3.0004    0.0000 C   0  0  0  0  0  0  0  0  0  0  0  0
   -1.2977   -3.7502    0.0000 C   0  0  0  0  0  0  0  0  0  0  0  0
   -3.8977   -3.7506    0.0000 C   0  0  0  0  0  0  0  0  0  0  0  0
   -5.1961   -3.0010    0.0000 C   0  0  0  0  0  0  0  0  0  0  0  0
   -6.4957   -0.7491    0.0000 C   0  0  0  0  0  0  0  0  0  0  0  0
    1.2995   -0.7495    0.0000 C   0  0  0  0  0  0  0  0  0  0  0  0
    0.0005   -1.4995    0.0000 C   0  0  0  0  0  0  0  0  0  0  0  0
    2.5985   -1.4995    0.0000 C   0  0  0  0  0  0  0  0  0  0  0  0
   -2.5979   -3.0004    0.0000 C   0  0  0  0  0  0  0  0  0  0  0  0
   -5.1963   -1.5002    0.0000 C   0  0  0  0  0  0  0  0  0  0  0  0
   -1.2986   -0.7495    0.0000 C   0  0  0  0  0  0  0  0  0  0  0  0
   -2.5981   -1.5004    0.0000 C   0  0  0  0  0  0  0  0  0  0  0  0
   -3.8971   -0.7504    0.0000 C   0  0  0  0  0  0  0  0  0  0  0  0
   -2.5971    1.5013    0.0000 C   0  0  0  0  0  0  0  0  0  0  0  0
   -1.2981    0.7513    0.0000 N   0  0  0  0  0  0  0  0  0  0  0  0
   -3.8967    0.7505    0.0000 N   0  0  0  0  0  0  0  0  0  0  0  0
   -2.5974    3.0013    0.0000 O   0  0  0  0  0  0  0  0  0  0  0  0
  4  1  2  0
  5  1  1  0
  6  2  2  0
  7  2  1  0
  8  3  2  0
  9  3  1  0
 10  4  1  0
 11  5  2  0
 12  6  1  0
 13  7  2  0
 14  8  1  0
 15  9  2  0
 16 17  2  0
 18 10  2  0
 18 11  1  0
 18 16  1  0
 19 12  2  0
 19 13  1  0
 20 14  2  0
 20 15  1  0
 21 17  1  0
 22 19  1  0
 22 21  2  0
 23 20  1  0
 23 22  1  0
 25 21  1  0
 25 24  2  0
 26 23  2  0
 26 24  1  0
 27 24  1  0
M  END
>  <NAME>  (4603) 
4,5-DIPHENYL-6-STYRYL-1,2-DIHYDROPYRIMIDIN-2-ONE

>  <SYNONYMS>  (4603) 


>  <SPECTRUM TYPE>  (4603) 
MS1

>  <INSTRUMENT TYPE>  (4603) 
EI-B

>  <INSTRUMENT>  (4603) 
MS-902

>  <ION MODE>  (4603) 
P

>  <INCHIKEY>  (4603) 
XVZMRIDMPDUGKB-WUKNDPDISA-N

>  <FORMULA>  (4603) 
C24H18N2O

>  <EXACT MASS>  (4603) 
350.14191319599996

>  <MW>  (4603) 
350

>  <ID>  (4603) 
JP005074

>  <CONTRIBUTOR>  (4603) 
University of Tokyo Team, {Faculty of Engineering, University of Tokyo

>  <COMMENT>  (4603) 
SMILES=c(c4)ccc(c4)C=CC(N2)=C(c(c3)cccc3)C(=NC(=O)2)c(c1)cccc1
InChI=InChI=1S/C24H18N2O/c27-24-25-21(17-16-18-10-4-1-5-11-18)22(19-12-6-2-7-13-19)23(26-24)20-14-8-3-9-15-20/h1-17H,(H,25,26,27)/b17-16+
computed SMILES=OC=1N=C(C=CC=2C=CC=CC2)C(C=3C=CC=CC3)=C(N1)C=4C=CC=CC4
accession=JP005074
date=2016.01.19 (Created 2008.10.21, modified 2011.05.06)
author=SASAKI S, TOYOHASHI UNIV. OF TECH.
license=CC BY-NC-SA
exact mass=350.14191
ionization energy=70 eV
ion type=[M]+*
computed spectral entropy=3.776143858845982
computed normalized entropy=0.7745622604597451
SPLASH=splash10-0uk9-4695000000-5c4cd91aaf72cba24d6d
submitter=submitter = University of Tokyo Team (Faculty of Engineering, University of Tokyo)
MoNA Rating=3.75

>  <NUM PEAKS>  (4603) 
131

>  <MASS SPECTRAL PEAKS>  (4603) 
32 2.2
38 1
39 5.6
43 0.37
44 1.2
50 3.1
51 14.3
52 0.26
62 1.6
63 5.5
65 3.1
74 0.19
75 2.9
76 6.1
77 41
78 0.48
79 1
87 1.4
88 3.1
89 0.64
90 2.1
91 11.4
92 1.1
94.5 0.1
100 1
101 4.3
102 5.6
103 0.72
104 33.9
105 4.6
109 1.1
113 0.19
114 2.1
115 6.1
116 2.1
120 0.1
125 1
126 4.2
127 4.6
128 0.64
129 2.3
130 3.1
132 1.3
136 0.16
138 1.3
139 3.1
140 6.4
141 0.14
145 1.1
146 1.4
150 2.6
151 0.44
152 6.2
153 2.4
163 2.2
164 0.23
165 7.4
166 1.8
167 2.1
174 0.11
175 2.3
176 5.7
177 3.9
178 0.63
179 1.3
188 1.1
189 4.1
190 0.54
191 3.7
192 1.9
193 1.6
195 0.14
200 2.1
201 3.3
202 14.6
203 0.81
204 3.3
205 1
214 1.8
215 0.13
216 4.6
217 8
218 5
219 0.29
226 1.2
227 4.1
228 4.4
229 0.24
230 7.1
231 2.4
232 1.3
242 0.13
243 1.4
244 1.3
245 1.6
246 0.22
247 1.4
252 1.1
253 4.1
254 0.11
255 1.8
258 2.3
259 1
271 0.76
272 2.4
273 99.99
274 18.7
275 0.23
276 1.9
277 1.3
278 1.3
289 0.14
290 1.1
291 1.3
303 1
304 0.46
305 2.1
306 10.9
307 6.8
308 0.88
309 1.8
319 1.1
321 2.9
322 0.11
323 1.3
347 2.6
348 1.6
349 8.33
350 66.4
351 13
352 2.8

$$$$

     RDKit          2D

 27 31  0  0  0  0  0  0  0  0999 V2000
   -2.1300   -6.8000    0.0000 C   0  0  0  0  0  0  0  0  0  0  0  0
   -0.8300   -6.0500    0.0000 C   0  0  0  0  0  0  0  0  0  0  0  0
   -3.4300   -6.0500    0.0000 C   0  0  0  0  0  0  0  0  0  0  0  0
    3.0600    2.2000    0.0000 C   0  0  0  0  0  0  0  0  0  0  0  0
    1.7600    2.9500    0.0000 C   0  0  0  0  0  0  0  0  0  0  0  0
   -6.0282    2.9523    0.0000 C   0  0  0  0  0  0  0  0  0  0  0  0
   -7.3275    2.2027    0.0000 C   0  0  0  0  0  0  0  0  0  0  0  0
    3.0600    0.7000    0.0000 C   0  0  0  0  0  0  0  0  0  0  0  0
   -0.8300   -4.5500    0.0000 C   0  0  0  0  0  0  0  0  0  0  0  0
   -3.4300   -4.5500    0.0000 C   0  0  0  0  0  0  0  0  0  0  0  0
    0.4600    2.2000    0.0000 C   0  0  0  0  0  0  0  0  0  0  0  0
   -4.7289    2.2010    0.0000 C   0  0  0  0  0  0  0  0  0  0  0  0
   -7.3275    0.7019    0.0000 C   0  0  0  0  0  0  0  0  0  0  0  0
    1.7600   -1.5500    0.0000 C   0  0  0  0  0  0  0  0  0  0  0  0
    0.4600   -2.3000    0.0000 C   0  0  0  0  0  0  0  0  0  0  0  0
    1.7600   -0.0500    0.0000 C   0  0  0  0  0  0  0  0  0  0  0  0
   -2.1300   -3.8000    0.0000 C   0  0  0  0  0  0  0  0  0  0  0  0
    0.4600    0.7000    0.0000 C   0  0  0  0  0  0  0  0  0  0  0  0
   -4.7289    0.7002    0.0000 C   0  0  0  0  0  0  0  0  0  0  0  0
   -0.8300   -1.5500    0.0000 C   0  0  0  0  0  0  0  0  0  0  0  0
   -6.0282   -0.0494    0.0000 C   0  0  0  0  0  0  0  0  0  0  0  0
   -2.1300   -2.3000    0.0000 C   0  0  0  0  0  0  0  0  0  0  0  0
   -0.8300   -0.0500    0.0000 C   0  0  0  0  0  0  0  0  0  0  0  0
   -3.4300   -0.0500    0.0000 C   0  0  0  0  0  0  0  0  0  0  0  0
   -3.4300   -1.5500    0.0000 N   0  0  0  0  0  0  0  0  0  0  0  0
   -2.1300    0.7000    0.0000 N   0  0  0  0  0  0  0  0  0  0  0  0
   -6.0289   -1.5494    0.0000 O   0  0  0  0  0  0  0  0  0  0  0  0
  2  1  2  0
  3  1  1  0
  5  4  2  0
  7  6  2  0
  8  4  1  0
  9  2  1  0
 10  3  2  0
 11  5  1  0
 12  6  1  0
 13  7  1  0
 15 14  1  0
 16  8  2  0
 16 14  1  0
 17  9  2  0
 17 10  1  0
 18 11  2  0
 18 16  1  0
 19 12  2  0
 20 15  1  0
 21 13  2  0
 21 19  1  0
 22 17  1  0
 22 20  1  0
 23 18  1  0
 23 20  2  0
 24 19  1  0
 25 22  2  0
 25 24  1  0
 26 23  1  0
 26 24  2  0
 27 21  1  0
M  END
>  <NAME>  (4604) 
2-(2-HYDROXYPHENYL)-4-PHENYL-5,6-DIHYDROBENZO(H)QUINAZOLINE

>  <SYNONYMS>  (4604) 


>  <SPECTRUM TYPE>  (4604) 
MS1

>  <INSTRUMENT TYPE>  (4604) 
EI-B

>  <INSTRUMENT>  (4604) 
MS-902

>  <ION MODE>  (4604) 
P

>  <INCHIKEY>  (4604) 
LRBKHMOUDPDKHY-UHFFFAOYSA-N

>  <FORMULA>  (4604) 
C24H18N2O

>  <EXACT MASS>  (4604) 
350.14191319599996

>  <MW>  (4604) 
350

>  <ID>  (4604) 
JP005073

>  <CONTRIBUTOR>  (4604) 
University of Tokyo Team, {Faculty of Engineering, University of Tokyo

>  <COMMENT>  (4604) 
SMILES=c(c5)ccc(c5)c(n3)c(C1)c(nc(c(c4)c(O)ccc4)3)c(c2)c(ccc2)C1
InChI=InChI=1S/C24H18N2O/c27-21-13-7-6-12-19(21)24-25-22(17-9-2-1-3-10-17)20-15-14-16-8-4-5-11-18(16)23(20)26-24/h1-13,27H,14-15H2
computed SMILES=OC=1C=CC=CC1C=2N=C(C=3C=CC=CC3)C4=C(N2)C=5C=CC=CC5CC4
accession=JP005073
date=2016.01.19 (Created 2008.10.21, modified 2011.05.06)
author=SASAKI S, TOYOHASHI UNIV. OF TECH.
license=CC BY-NC-SA
exact mass=350.14191
ionization energy=70 eV
ion type=[M]+*
computed spectral entropy=2.0103559432194715
computed normalized entropy=0.5654456071390347
SPLASH=splash10-0udi-0109000000-741e2a6a93082866a2c1
submitter=submitter = University of Tokyo Team (Faculty of Engineering, University of Tokyo)
MoNA Rating=3.75

>  <NUM PEAKS>  (4604) 
35

>  <MASS SPECTRAL PEAKS>  (4604) 
77 2.8
83 1.8
85 1.4
115 0.29
126 1.9
127 4
128 2.9
146 0.1
147 1.7
149 1.3
152 1.7
153 0.18
154 1
159 1.1
159.5 1.2
160 0.25
161 1.7
165 1.6
165.5 1.1
174 0.31
175 6.6
176 1.5
202 1.3
230 0.33
246 1.3
255 1.1
319 1
321 0.25
322 1.5
347 3.3
348 10.7
349 3.17
350 99.99
351 23.8
352 2.9

$$$$

     RDKit          2D

 21 23  0  0  0  0  0  0  0  0999 V2000
    2.2735   -2.0624    0.0000 C   0  0  0  0  0  0  0  0  0  0  0  0
    0.9740   -1.3116    0.0000 C   0  0  0  0  0  0  0  0  0  0  0  0
    2.2740   -3.5632    0.0000 C   0  0  0  0  0  0  0  0  0  0  0  0
   -0.3251   -2.0616    0.0000 C   0  0  0  0  0  0  0  0  0  0  0  0
    0.9749   -4.3132    0.0000 C   0  0  0  0  0  0  0  0  0  0  0  0
   -2.9228   -3.5626    0.0000 C   0  0  0  0  0  0  0  0  0  0  0  0
   -8.1204   -2.0622    0.0000 C   0  0  0  0  0  0  0  0  0  0  0  0
   -0.3246   -3.5624    0.0000 C   0  0  0  0  0  0  0  0  0  0  0  0
   -1.6236   -4.3124    0.0000 C   0  0  0  0  0  0  0  0  0  0  0  0
   -4.2222   -4.3136    0.0000 C   0  0  0  0  0  0  0  0  0  0  0  0
   -5.5213   -3.5639    0.0000 C   0  0  0  0  0  0  0  0  0  0  0  0
   -6.8204   -4.3139    0.0000 C   0  0  0  0  0  0  0  0  0  0  0  0
   -5.5218   -2.0630    0.0000 C   0  0  0  0  0  0  0  0  0  0  0  0
   -2.9233   -6.5643    0.0000 C   0  0  0  0  0  0  0  0  0  0  0  0
   -6.8206   -5.8139    0.0000 Cl  0  0  0  0  0  0  0  0  0  0  0  0
   -4.2228   -1.3130    0.0000 Cl  0  0  0  0  0  0  0  0  0  0  0  0
   -2.9228   -8.0643    0.0000 Cl  0  0  0  0  0  0  0  0  0  0  0  0
   -8.1199   -3.5630    0.0000 N   0  0  0  0  0  0  0  0  0  0  0  0
   -6.8213   -1.3122    0.0000 N   0  0  0  0  0  0  0  0  0  0  0  0
   -1.6239   -5.8132    0.0000 N   0  0  0  0  0  0  0  0  0  0  0  0
   -4.2224   -5.8145    0.0000 N   0  0  0  0  0  0  0  0  0  0  0  0
  2  1  2  0
  3  1  1  0
  4  2  1  0
  5  3  2  0
  8  4  2  0
  8  5  1  0
  9  6  2  0
  9  8  1  0
 10  6  1  0
 11 10  1  0
 12 11  2  0
 13 11  1  0
 15 12  1  0
 16 13  1  0
 17 14  1  0
 18  7  2  0
 18 12  1  0
 19  7  1  0
 19 13  2  0
 20  9  1  0
 20 14  2  0
 21 10  2  0
 21 14  1  0
M  END
>  <NAME>  (4605) 
2,4',6'-TRICHLORO-6-PHENYL-4,5'-BIPYRIMIDINE

>  <SYNONYMS>  (4605) 


>  <SPECTRUM TYPE>  (4605) 
MS1

>  <INSTRUMENT TYPE>  (4605) 
EI-B

>  <INSTRUMENT>  (4605) 
MS-902

>  <ION MODE>  (4605) 
P

>  <INCHIKEY>  (4605) 
XCTTWVSSTMNUNV-UHFFFAOYSA-N

>  <FORMULA>  (4605) 
C14H7Cl3N4

>  <EXACT MASS>  (4605) 
335.973629264

>  <MW>  (4605) 
336

>  <ID>  (4605) 
JP005072

>  <CONTRIBUTOR>  (4605) 
University of Tokyo Team, {Faculty of Engineering, University of Tokyo

>  <COMMENT>  (4605) 
SMILES=c(c3)ccc(c3)c(n2)cc(nc(Cl)2)c(c(Cl)1)c(Cl)ncn1
InChI=InChI=1S/C14H7Cl3N4/c15-12-11(13(16)19-7-18-12)10-6-9(20-14(17)21-10)8-4-2-1-3-5-8/h1-7H
computed SMILES=ClC=1N=C(C=C(N1)C2=C(Cl)N=CN=C2Cl)C=3C=CC=CC3
accession=JP005072
date=2016.01.19 (Created 2008.10.21, modified 2011.05.06)
author=SASAKI S, TOYOHASHI UNIV. OF TECH.
license=CC BY-NC-SA
exact mass=335.97363
ionization energy=70 eV
ion type=[M]+*
computed spectral entropy=3.2283312040312206
computed normalized entropy=0.721038272928648
SPLASH=splash10-000i-1239000000-1e2191e6155e869218d9
submitter=submitter = University of Tokyo Team (Faculty of Engineering, University of Tokyo)
MoNA Rating=3.75

>  <NUM PEAKS>  (4605) 
88

>  <MASS SPECTRAL PEAKS>  (4605) 
51 5.9
52 4.3
63 1.8
64 0.18
75 3.1
77 12.8
78 7.2
83 0.14
84 1.8
85 1.4
86 1.7
87 0.15
88 1
89 1.9
94.5 1.6
95.5 0.12
101 2.8
102 6.8
103 6.4
104 0.31
106 7.7
106.5 2.2
107 1.2
107.5 0.19
110 1.7
111 1.8
112 1.1
119.5 0.44
120 1.7
120.5 4.7
121 1.3
127 0.2
128 7.5
129 10
130 4.9
137 0.49
137.5 3.4
138 6.6
138.5 3.9
139 0.32
151 1.8
151.5 1
152 1.4
153 0.13
154.5 1.1
169 2.1
170 1.2
171 0.13
172 2.1
173 1.6
174 1.4
177 0.26
178 2.9
179 1.6
186 1
189 0.11
199 1.6
201 1
203 1.2
204 0.37
212 1
213 2.9
238 6.1
239 0.17
240 6.3
241 1.1
242 1.5
265 0.32
266 2.4
267 1.2
274 55.3
275 1.22
276 36.1
277 8.2
278 6.8
279 0.13
301 46.1
302 8.2
303 30.5
304 0.53
305 5.3
335 1.2
336 99.99
337 1.97
338 97.4
339 18.4
340 35.3
342 4.2

$$$$

     RDKit          2D

 26 30  0  0  0  0  0  0  0  0999 V2000
   -2.1300    5.2000    0.0000 C   0  0  0  0  0  0  0  0  0  0  0  0
   -7.3268   -3.8006    0.0000 C   0  0  0  0  0  0  0  0  0  0  0  0
   -3.4300    4.4500    0.0000 C   0  0  0  0  0  0  0  0  0  0  0  0
   -0.8300    4.4500    0.0000 C   0  0  0  0  0  0  0  0  0  0  0  0
   -6.0271   -4.5512    0.0000 C   0  0  0  0  0  0  0  0  0  0  0  0
   -7.3275   -2.2998    0.0000 C   0  0  0  0  0  0  0  0  0  0  0  0
    3.0600    2.2000    0.0000 C   0  0  0  0  0  0  0  0  0  0  0  0
    1.7600    2.9500    0.0000 C   0  0  0  0  0  0  0  0  0  0  0  0
    3.0600    0.7000    0.0000 C   0  0  0  0  0  0  0  0  0  0  0  0
   -3.4300    2.9500    0.0000 C   0  0  0  0  0  0  0  0  0  0  0  0
   -0.8300    2.9500    0.0000 C   0  0  0  0  0  0  0  0  0  0  0  0
   -4.7282   -3.8010    0.0000 C   0  0  0  0  0  0  0  0  0  0  0  0
   -6.0286   -1.5496    0.0000 C   0  0  0  0  0  0  0  0  0  0  0  0
    0.4600    2.2000    0.0000 C   0  0  0  0  0  0  0  0  0  0  0  0
    1.7600   -1.5500    0.0000 C   0  0  0  0  0  0  0  0  0  0  0  0
    0.4600   -2.3000    0.0000 C   0  0  0  0  0  0  0  0  0  0  0  0
    1.7600   -0.0500    0.0000 C   0  0  0  0  0  0  0  0  0  0  0  0
   -2.1300    2.2000    0.0000 C   0  0  0  0  0  0  0  0  0  0  0  0
   -4.7289   -2.3002    0.0000 C   0  0  0  0  0  0  0  0  0  0  0  0
    0.4600    0.7000    0.0000 C   0  0  0  0  0  0  0  0  0  0  0  0
   -0.8300   -1.5500    0.0000 C   0  0  0  0  0  0  0  0  0  0  0  0
   -0.8300   -0.0500    0.0000 C   0  0  0  0  0  0  0  0  0  0  0  0
   -2.1300    0.7000    0.0000 C   0  0  0  0  0  0  0  0  0  0  0  0
   -3.4300   -1.5500    0.0000 C   0  0  0  0  0  0  0  0  0  0  0  0
   -2.1300   -2.3000    0.0000 N   0  0  0  0  0  0  0  0  0  0  0  0
   -3.4300   -0.0500    0.0000 N   0  0  0  0  0  0  0  0  0  0  0  0
  3  1  2  0
  4  1  1  0
  5  2  2  0
  6  2  1  0
  8  7  2  0
  9  7  1  0
 10  3  1  0
 11  4  2  0
 12  5  1  0
 13  6  2  0
 14  8  1  0
 16 15  2  0
 17  9  2  0
 17 15  1  0
 18 10  2  0
 18 11  1  0
 19 12  2  0
 19 13  1  0
 20 14  2  0
 20 17  1  0
 21 16  1  0
 22 20  1  0
 22 21  2  0
 23 18  1  0
 23 22  1  0
 24 19  1  0
 25 21  1  0
 25 24  2  0
 26 23  1  0
 26 24  1  0
M  END
>  <NAME>  (4606) 
1,3-DIPHENYL-1,2-DIHYDROBENZO(F)QUINAZOLINE

>  <SYNONYMS>  (4606) 


>  <SPECTRUM TYPE>  (4606) 
MS1

>  <INSTRUMENT TYPE>  (4606) 
EI-B

>  <INSTRUMENT>  (4606) 
MS-902

>  <ION MODE>  (4606) 
P

>  <INCHIKEY>  (4606) 
RLLZDIXPNCTESL-UHFFFAOYSA-N

>  <FORMULA>  (4606) 
C24H18N2

>  <EXACT MASS>  (4606) 
334.146998576

>  <MW>  (4606) 
334

>  <ID>  (4606) 
JP005071

>  <CONTRIBUTOR>  (4606) 
University of Tokyo Team, {Faculty of Engineering, University of Tokyo

>  <COMMENT>  (4606) 
SMILES=c(c5)ccc(c5)C(=N1)NC(c(c4)cccc4)c(c32)c(ccc(cccc3)2)1
InChI=InChI=1S/C24H18N2/c1-3-10-18(11-4-1)23-22-20-14-8-7-9-17(20)15-16-21(22)25-24(26-23)19-12-5-2-6-13-19/h1-16,23H,(H,25,26)
computed SMILES=N=1C=2C=CC=3C=CC=CC3C2C(NC1C=4C=CC=CC4)C=5C=CC=CC5
accession=JP005071
date=2016.01.19 (Created 2008.10.21, modified 2011.05.06)
author=SASAKI S, TOYOHASHI UNIV. OF TECH.
license=CC BY-NC-SA
exact mass=334.147
ionization energy=70 eV
ion type=[M]+*
computed spectral entropy=2.3652065380837715
computed normalized entropy=0.6411720869452728
SPLASH=splash10-0a4i-1291000000-2d64136af02a52102d61
submitter=submitter = University of Tokyo Team (Faculty of Engineering, University of Tokyo)
MoNA Rating=3.75

>  <NUM PEAKS>  (4606) 
40

>  <MASS SPECTRAL PEAKS>  (4606) 
45.5 11.8
55 1.5
57 2.6
70 0.1
81 2
83 6.1
85 2.9
95 0.12
125 1
126 3.1
127 5
128 0.23
129 1.4
131 1
149 7.3
152 0.49
153 2.9
159.5 1.1
165 1.5
166 0.29
167 3.6
179 7.4
201 1.1
202 0.21
205 1
227 1
228 1.2
229 0.14
230 3.3
253 1.5
255 1.5
256 0.18
257 99.99
258 18.7
259 1.7
331 0.5
332 3.1
333 3.1
334 14.9
335 4.4

$$$$

     RDKit          2D

 23 25  0  0  0  0  0  0  0  0999 V2000
    6.1553   -0.9201    0.0000 C   0  0  0  0  0  0  0  0  0  0  0  0
   -9.4665   -0.9951    0.0000 C   0  0  0  0  0  0  0  0  0  0  0  0
    0.9375   -0.9664    0.0000 C   0  0  0  0  0  0  0  0  0  0  0  0
    2.2182   -3.2103    0.0000 C   0  0  0  0  0  0  0  0  0  0  0  0
   -5.5475   -3.2234    0.0000 C   0  0  0  0  0  0  0  0  0  0  0  0
   -4.2449   -0.9921    0.0000 C   0  0  0  0  0  0  0  0  0  0  0  0
    2.2039   -0.2104    0.0000 C   0  0  0  0  0  0  0  0  0  0  0  0
    3.5646   -2.4539    0.0000 C   0  0  0  0  0  0  0  0  0  0  0  0
   -6.8356   -2.5049    0.0000 C   0  0  0  0  0  0  0  0  0  0  0  0
   -5.5733   -0.2045    0.0000 C   0  0  0  0  0  0  0  0  0  0  0  0
   -1.6536   -2.4662    0.0000 C   0  0  0  0  0  0  0  0  0  0  0  0
    0.9446   -2.4664    0.0000 C   0  0  0  0  0  0  0  0  0  0  0  0
   -4.2522   -2.4670    0.0000 C   0  0  0  0  0  0  0  0  0  0  0  0
    3.5574   -0.9539    0.0000 C   0  0  0  0  0  0  0  0  0  0  0  0
   -6.8686   -0.9609    0.0000 C   0  0  0  0  0  0  0  0  0  0  0  0
   -0.3546   -3.2162    0.0000 C   0  0  0  0  0  0  0  0  0  0  0  0
   -2.9531   -3.2170    0.0000 C   0  0  0  0  0  0  0  0  0  0  0  0
   -1.6546   -5.4679    0.0000 C   0  0  0  0  0  0  0  0  0  0  0  0
   -1.6543   -6.9679    0.0000 Cl  0  0  0  0  0  0  0  0  0  0  0  0
   -0.3550   -4.7170    0.0000 N   0  0  0  0  0  0  0  0  0  0  0  0
   -2.9536   -4.7179    0.0000 N   0  0  0  0  0  0  0  0  0  0  0  0
    4.8466   -0.1871    0.0000 O   0  0  0  0  0  0  0  0  0  0  0  0
   -8.1774   -0.2281    0.0000 O   0  0  0  0  0  0  0  0  0  0  0  0
  7  3  2  0
  8  4  1  0
  9  5  2  0
 10  6  1  0
 12  3  1  0
 12  4  2  0
 13  5  1  0
 13  6  2  0
 14  7  1  0
 14  8  2  0
 15  9  1  0
 15 10  2  0
 16 11  2  0
 16 12  1  0
 17 11  1  0
 17 13  1  0
 19 18  1  0
 20 16  1  0
 20 18  2  0
 21 17  2  0
 21 18  1  0
 22  1  1  0
 22 14  1  0
 23  2  1  0
 23 15  1  0
M  END
>  <NAME>  (4607) 
2-CHLORO-4,6-BIS(4-METHOXYPHENYL)PYRIMIDINE

>  <SYNONYMS>  (4607) 


>  <SPECTRUM TYPE>  (4607) 
MS1

>  <INSTRUMENT TYPE>  (4607) 
EI-B

>  <INSTRUMENT>  (4607) 
MS-902

>  <ION MODE>  (4607) 
P

>  <INCHIKEY>  (4607) 
DKOMXBVVTZTZDB-UHFFFAOYSA-N

>  <FORMULA>  (4607) 
C18H15ClN2O2

>  <EXACT MASS>  (4607) 
326.0822054

>  <MW>  (4607) 
326

>  <ID>  (4607) 
JP005070

>  <CONTRIBUTOR>  (4607) 
University of Tokyo Team, {Faculty of Engineering, University of Tokyo

>  <COMMENT>  (4607) 
SMILES=COc(c3)ccc(c3)c(n2)cc(nc(Cl)2)c(c1)ccc(OC)c1
InChI=InChI=1S/C18H15ClN2O2/c1-22-14-7-3-12(4-8-14)16-11-17(21-18(19)20-16)13-5-9-15(23-2)10-6-13/h3-11H,1-2H3
computed SMILES=ClC=1N=C(C=C(N1)C=2C=CC(OC)=CC2)C=3C=CC(OC)=CC3
accession=JP005070
date=2016.01.19 (Created 2008.10.21, modified 2011.05.06)
author=SASAKI S, TOYOHASHI UNIV. OF TECH.
license=CC BY-NC-SA
exact mass=326.08221
ionization energy=70 eV
ion type=[M]+*
computed spectral entropy=3.5550553457561644
computed normalized entropy=0.760792973955688
SPLASH=splash10-004i-4449000000-3b7bb1639996a3c420ba
submitter=submitter = University of Tokyo Team (Faculty of Engineering, University of Tokyo)
MoNA Rating=3.75

>  <NUM PEAKS>  (4607) 
107

>  <MASS SPECTRAL PEAKS>  (4607) 
32 2.5
38 1.2
39 5.6
50 0.3
51 5.1
52 1.2
62 3.8
63 1.37
64 5.2
65 1.7
74 1.6
75 0.38
76 4
77 7.7
78 1.4
87 0.17
88 3.4
89 20.2
90 4.7
92 0.55
95.5 1.2
99 1
101 1.9
102 0.29
103 2.9
104 1.2
113 1
114 0.43
115 4
116 3.1
117 5.1
118 0.12
119 1
120 1.2
123 1.4
125 0.12
126 2.3
127 2.2
128 1.6
133 2.6
134 1.4
137 0.57
140 1
141 0.12
141.5 1.4
142 1
143 2.1
150 0.34
151 2.5
152 3.8
153 1.7
157 0.14
158 3.5
159 11.1
163 3.8
164 0.3
165 1.4
177 2.8
178 5.3
179 0.3
190 3.6
191 2.5
192 1
203 0.15
204 1.4
205 3.1
206 2.2
207 0.19
216 1
222 1.6
233 2.6
234 0.12
239 2.6
240 7
241 1.4
242 0.23
248 6.1
249 1.9
250 1.6
252 0.34
253 1
254 1.6
261 1.4
267 0.1
268 3.1
269 1.2
270 1
275 0.12
276 3.2
277 1
282 1.2
283 0.82
284 1.9
285 3.2
291 19.1
292 0.4
295 3
296 1.2
297 1.5
311 0.38
312 1
313 1.9
325 1.3
326 99.99
327 20.8
328 32.7
329 5.6

$$$$

     RDKit          2D

 25 28  0  0  0  0  0  0  0  0999 V2000
   -5.1968    3.0006    0.0000 C   0  0  0  0  0  0  0  0  0  0  0  0
   -0.0000   -6.0000    0.0000 C   0  0  0  0  0  0  0  0  0  0  0  0
    6.4971   -0.7512    0.0000 C   0  0  0  0  0  0  0  0  0  0  0  0
   -5.1975    1.4998    0.0000 C   0  0  0  0  0  0  0  0  0  0  0  0
   -3.8971    3.7512    0.0000 C   0  0  0  0  0  0  0  0  0  0  0  0
    1.3000   -5.2500    0.0000 C   0  0  0  0  0  0  0  0  0  0  0  0
   -1.3000   -5.2500    0.0000 C   0  0  0  0  0  0  0  0  0  0  0  0
    5.1981   -1.5012    0.0000 C   0  0  0  0  0  0  0  0  0  0  0  0
    6.4966    0.7496    0.0000 C   0  0  0  0  0  0  0  0  0  0  0  0
   -3.8986    0.7496    0.0000 C   0  0  0  0  0  0  0  0  0  0  0  0
   -2.5982    3.0010    0.0000 C   0  0  0  0  0  0  0  0  0  0  0  0
    1.3000   -3.7500    0.0000 C   0  0  0  0  0  0  0  0  0  0  0  0
   -1.3000   -3.7500    0.0000 C   0  0  0  0  0  0  0  0  0  0  0  0
    3.8986   -0.7504    0.0000 C   0  0  0  0  0  0  0  0  0  0  0  0
    5.1971    1.5004    0.0000 C   0  0  0  0  0  0  0  0  0  0  0  0
   -1.3000   -0.7500    0.0000 C   0  0  0  0  0  0  0  0  0  0  0  0
   -2.5989    1.5002    0.0000 C   0  0  0  0  0  0  0  0  0  0  0  0
   -0.0000   -3.0000    0.0000 C   0  0  0  0  0  0  0  0  0  0  0  0
    3.8981    0.7504    0.0000 C   0  0  0  0  0  0  0  0  0  0  0  0
   -1.3000    0.7500    0.0000 C   0  0  0  0  0  0  0  0  0  0  0  0
    0.0000   -1.5000    0.0000 C   0  0  0  0  0  0  0  0  0  0  0  0
    1.3000    0.7500    0.0000 C   0  0  0  0  0  0  0  0  0  0  0  0
    0.0000    1.5000    0.0000 N   0  0  0  0  0  0  0  0  0  0  0  0
    1.3000   -0.7500    0.0000 N   0  0  0  0  0  0  0  0  0  0  0  0
    2.5989    1.5002    0.0000 O   0  0  0  0  0  0  0  0  0  0  0  0
  4  1  2  0
  5  1  1  0
  6  2  2  0
  7  2  1  0
  8  3  2  0
  9  3  1  0
 10  4  1  0
 11  5  2  0
 12  6  1  0
 13  7  2  0
 14  8  1  0
 15  9  2  0
 17 10  2  0
 17 11  1  0
 18 12  2  0
 18 13  1  0
 19 14  2  0
 19 15  1  0
 20 16  2  0
 20 17  1  0
 21 16  1  0
 21 18  1  0
 23 20  1  0
 23 22  2  0
 24 21  2  0
 24 22  1  0
 25 19  1  0
 25 22  1  0
M  END
>  <NAME>  (4608) 
2-PHENOXY-4,6-DIPHENYLPYRIMIDINE

>  <SYNONYMS>  (4608) 


>  <SPECTRUM TYPE>  (4608) 
MS1

>  <INSTRUMENT TYPE>  (4608) 
EI-B

>  <INSTRUMENT>  (4608) 
MS-902

>  <ION MODE>  (4608) 
P

>  <INCHIKEY>  (4608) 
JFBGDKDDIHPIEL-UHFFFAOYSA-N

>  <FORMULA>  (4608) 
C22H16N2O

>  <EXACT MASS>  (4608) 
324.12626313199996

>  <MW>  (4608) 
324

>  <ID>  (4608) 
JP005069

>  <CONTRIBUTOR>  (4608) 
University of Tokyo Team, {Faculty of Engineering, University of Tokyo

>  <COMMENT>  (4608) 
SMILES=c(c4)ccc(c4)Oc(n1)nc(c(c3)cccc3)cc1c(c2)cccc2
InChI=InChI=1S/C22H16N2O/c1-4-10-17(11-5-1)20-16-21(18-12-6-2-7-13-18)24-22(23-20)25-19-14-8-3-9-15-19/h1-16H
computed SMILES=N=1C(=NC(=CC1C=2C=CC=CC2)C=3C=CC=CC3)OC=4C=CC=CC4
accession=JP005069
date=2016.01.19 (Created 2008.10.21, modified 2011.05.06)
author=SASAKI S, TOYOHASHI UNIV. OF TECH.
license=CC BY-NC-SA
exact mass=324.12626
ionization energy=70 eV
ion type=[M]+*
computed spectral entropy=2.9413100350922194
computed normalized entropy=0.6812549236373209
SPLASH=splash10-00fr-7319000000-48a8535e880dccbeac74
submitter=submitter = University of Tokyo Team (Faculty of Engineering, University of Tokyo)
MoNA Rating=3.75

>  <NUM PEAKS>  (4608) 
75

>  <MASS SPECTRAL PEAKS>  (4608) 
39 7.3
50 3.7
51 22.6
52 0.26
62 1.4
63 3.8
64 1.6
65 0.43
66 1.2
74 2.5
75 3.8
76 0.95
77 76
78 5.7
79 1.2
88 0.17
89 5
90 4
91 1.2
93 0.12
101 2.5
102 7.9
103 4.3
104 0.33
114 1.6
115 2.1
116 5.5
117 0.12
118 1.2
127 2.1
128 3.2
129 2.64
130 2.6
139.5 1.2
140 1.7
141 0.25
144 1.9
145 1.2
151 1.2
152 0.14
153 1.5
154 1.2
162 1.5
165 0.35
166 1.5
169 1.2
176 1.2
177 0.23
178 1.9
180 6
181 1.2
189 0.23
190 2.4
191 2.5
192 1.5
193 0.25
203 2.9
204 4.8
205 1.6
219 0.14
220 1.2
221 3.2
229 1.2
232 2.5
239 0.59
245 1.5
247 8.2
280 0.12
282 2.6
295 1.7
296 1.9
322 0.15
323 99.99
324 52
325 9.7

$$$$

     RDKit          2D

 23 25  0  0  0  0  0  0  0  0999 V2000
   -0.0000   -6.0000    0.0000 C   0  0  0  0  0  0  0  0  0  0  0  0
    5.1989    1.5002    0.0000 C   0  0  0  0  0  0  0  0  0  0  0  0
    5.1989    3.0002    0.0000 C   0  0  0  0  0  0  0  0  0  0  0  0
    1.3000   -5.2500    0.0000 C   0  0  0  0  0  0  0  0  0  0  0  0
   -1.3000   -5.2500    0.0000 C   0  0  0  0  0  0  0  0  0  0  0  0
    3.8989    0.7502    0.0000 C   0  0  0  0  0  0  0  0  0  0  0  0
    3.8989    3.7502    0.0000 C   0  0  0  0  0  0  0  0  0  0  0  0
    1.3000   -3.7500    0.0000 C   0  0  0  0  0  0  0  0  0  0  0  0
   -1.3000   -3.7500    0.0000 C   0  0  0  0  0  0  0  0  0  0  0  0
   -1.3000   -0.7500    0.0000 C   0  0  0  0  0  0  0  0  0  0  0  0
    2.5989    1.5002    0.0000 C   0  0  0  0  0  0  0  0  0  0  0  0
    2.5989    3.0002    0.0000 C   0  0  0  0  0  0  0  0  0  0  0  0
   -1.3000    0.7500    0.0000 C   0  0  0  0  0  0  0  0  0  0  0  0
    0.0000   -1.5000    0.0000 C   0  0  0  0  0  0  0  0  0  0  0  0
    1.3000    0.7500    0.0000 C   0  0  0  0  0  0  0  0  0  0  0  0
   -2.5989    1.5002    0.0000 C   0  0  0  0  0  0  0  0  0  0  0  0
   -1.8487    2.7991    0.0000 F   0  0  0  0  0  0  0  0  0  0  0  0
   -3.8978    2.2504    0.0000 F   0  0  0  0  0  0  0  0  0  0  0  0
   -3.3491    0.2013    0.0000 F   0  0  0  0  0  0  0  0  0  0  0  0
    0.0000    1.5000    0.0000 N   0  0  0  0  0  0  0  0  0  0  0  0
    1.3000   -0.7500    0.0000 N   0  0  0  0  0  0  0  0  0  0  0  0
   -0.0000   -3.0000    0.0000 N   0  0  0  0  0  0  0  0  0  0  0  0
    1.3000    3.7504    0.0000 O   0  0  0  0  0  0  0  0  0  0  0  0
  3  2  2  0
  4  1  1  0
  5  1  1  0
  6  2  1  0
  7  3  1  0
  8  4  1  0
  9  5  1  0
 11  6  2  0
 12  7  2  0
 12 11  1  0
 13 10  2  0
 14 10  1  0
 15 11  1  0
 16 13  1  0
 17 16  1  0
 18 16  1  0
 19 16  1  0
 20 13  1  0
 20 15  2  0
 21 14  2  0
 21 15  1  0
 22  8  1  0
 22  9  1  0
 22 14  1  0
 23 12  1  0
M  END
>  <NAME>  (4609) 
2-(2-HYDROXYPHENYL)-4-PIPERIDINO-6-TRIFLUOROMETHYLPYRIMIDINE

>  <SYNONYMS>  (4609) 


>  <SPECTRUM TYPE>  (4609) 
MS1

>  <INSTRUMENT TYPE>  (4609) 
EI-B

>  <INSTRUMENT>  (4609) 
MS-902

>  <ION MODE>  (4609) 
P

>  <INCHIKEY>  (4609) 
VWGOMZPDBSWHRL-UHFFFAOYSA-N

>  <FORMULA>  (4609) 
C16H16F3N3O

>  <EXACT MASS>  (4609) 
323.124546792

>  <MW>  (4609) 
323

>  <ID>  (4609) 
JP005067

>  <CONTRIBUTOR>  (4609) 
University of Tokyo Team, {Faculty of Engineering, University of Tokyo

>  <COMMENT>  (4609) 
SMILES=C(C3)CCN(C3)c(c2)nc(nc2C(F)(F)F)c(c1)c(O)ccc1
InChI=InChI=1S/C16H16F3N3O/c17-16(18,19)13-10-14(22-8-4-1-5-9-22)21-15(20-13)11-6-2-3-7-12(11)23/h2-3,6-7,10,23H,1,4-5,8-9H2
computed SMILES=FC(F)(F)C=1N=C(N=C(C1)N2CCCCC2)C=3C=CC=CC3O
accession=JP005067
date=2016.01.19 (Created 2008.10.21, modified 2011.05.06)
author=SASAKI S, TOYOHASHI UNIV. OF TECH.
license=CC BY-NC-SA
exact mass=323.12455
ionization energy=70 eV
ion type=[M]+*
computed spectral entropy=2.715174365516915
computed normalized entropy=0.6715656531783621
SPLASH=splash10-00di-2159000000-93e3a9b6881de282541c
submitter=submitter = University of Tokyo Team (Faculty of Engineering, University of Tokyo)
MoNA Rating=3.75

>  <NUM PEAKS>  (4609) 
57

>  <MASS SPECTRAL PEAKS>  (4609) 
50 2.3
52 2
53 2.1
54 0.13
55 2.9
56 1
63 1.4
65 0.13
67 1.4
68 1.1
69 2.2
71 0.14
75 1.5
79 3.2
81 1.1
82 0.24
84 14.1
85 1.3
102 1.1
106 0.11
109.5 1.1
117 1.1
118 2.9
119 0.86
120 7.3
141 1.8
147.5 1.4
149 0.3
161 1.8
161.5 1.5
171 1.1
186 0.14
211 1.6
212 3.5
213 1.1
239 0.49
240 8.3
241 1.7
255 1.1
267 0.53
268 10.5
269 4.6
280 4
281 0.31
282 2.7
294 24.8
295 4.9
296 0.11
304 2.1
306 1.1
308 2.8
309 0.11
321 1.4
322 12.4
323 99.99
324 1.71
325 2.7

$$$$

     RDKit          2D

 23 25  0  0  0  0  0  0  0  0999 V2000
    9.0935    3.0003    0.0000 C   0  0  0  0  0  0  0  0  0  0  0  0
   -5.1961   -0.7502    0.0000 C   0  0  0  0  0  0  0  0  0  0  0  0
    7.7940    3.7511    0.0000 C   0  0  0  0  0  0  0  0  0  0  0  0
    9.0940    1.4994    0.0000 C   0  0  0  0  0  0  0  0  0  0  0  0
   -5.1968    0.7507    0.0000 C   0  0  0  0  0  0  0  0  0  0  0  0
   -3.8965   -1.5008    0.0000 C   0  0  0  0  0  0  0  0  0  0  0  0
    6.4950    3.0011    0.0000 C   0  0  0  0  0  0  0  0  0  0  0  0
    7.7950    0.7494    0.0000 C   0  0  0  0  0  0  0  0  0  0  0  0
   -3.8979    1.5009    0.0000 C   0  0  0  0  0  0  0  0  0  0  0  0
   -2.5976   -0.7506    0.0000 C   0  0  0  0  0  0  0  0  0  0  0  0
    5.1969   -0.7506    0.0000 C   0  0  0  0  0  0  0  0  0  0  0  0
    3.8979   -1.5006    0.0000 C   0  0  0  0  0  0  0  0  0  0  0  0
    6.4955    1.5003    0.0000 C   0  0  0  0  0  0  0  0  0  0  0  0
   -2.5983    0.7503    0.0000 C   0  0  0  0  0  0  0  0  0  0  0  0
    5.1964    0.7503    0.0000 C   0  0  0  0  0  0  0  0  0  0  0  0
    2.5979    0.7511    0.0000 C   0  0  0  0  0  0  0  0  0  0  0  0
   -0.0002    0.7507    0.0000 C   0  0  0  0  0  0  0  0  0  0  0  0
   -1.2994    1.5005    0.0000 N   0  0  0  0  0  0  0  0  0  0  0  0
    3.8969    1.5011    0.0000 N   0  0  0  0  0  0  0  0  0  0  0  0
    1.2987    1.5009    0.0000 N   0  0  0  0  0  0  0  0  0  0  0  0
    2.5983   -0.7497    0.0000 N   0  0  0  0  0  0  0  0  0  0  0  0
    0.0000   -0.7493    0.0000 O   0  0  0  0  0  0  0  0  0  0  0  0
    1.2993   -1.4997    0.0000 O   0  0  0  0  0  0  0  0  0  0  0  0
  3  1  2  0
  4  1  1  0
  5  2  2  0
  6  2  1  0
  7  3  1  0
  8  4  2  0
  9  5  1  0
 10  6  2  0
 12 11  1  0
 13  7  2  0
 13  8  1  0
 14  9  2  0
 14 10  1  0
 15 11  2  0
 15 13  1  0
 18 14  1  0
 18 17  2  3
 19 15  1  0
 19 16  1  0
 20 16  2  3
 20 17  1  0
 21 12  2  0
 21 16  1  0
 22 17  1  0
 23 21  1  0
M  CHG  2  21   1  23  -1
M  END
>  <NAME>  (4610) 
4-PHENYL-2-(N'-PHENYLUREIDO)PYRIMIDINE-1-OXIDE

>  <SYNONYMS>  (4610) 


>  <SPECTRUM TYPE>  (4610) 
MS1

>  <INSTRUMENT TYPE>  (4610) 
EI-B

>  <INSTRUMENT>  (4610) 
MS-902

>  <ION MODE>  (4610) 
P

>  <INCHIKEY>  (4610) 
WXZOCNMWVLUOMZ-UHFFFAOYSA-N

>  <FORMULA>  (4610) 
C17H14N4O2

>  <EXACT MASS>  (4610) 
306.111675688

>  <MW>  (4610) 
306

>  <ID>  (4610) 
JP005066

>  <CONTRIBUTOR>  (4610) 
University of Tokyo Team, {Faculty of Engineering, University of Tokyo

>  <COMMENT>  (4610) 
SMILES=O=C(Nc(c3)cccc3)Nc([n+1]([O-1])2)nc(cc2)c(c1)cccc1
InChI=InChI=1S/C17H14N4O2/c22-17(18-14-9-5-2-6-10-14)20-16-19-15(11-12-21(16)23)13-7-3-1-4-8-13/h1-12H,(H2,18,19,20,22)
computed SMILES=O=N1=CC=C(NC1=NC(O)=NC=2C=CC=CC2)C=3C=CC=CC3
accession=JP005066
date=2016.01.19 (Created 2008.10.21, modified 2011.05.06)
author=SASAKI S, TOYOHASHI UNIV. OF TECH.
license=CC BY-NC-SA
exact mass=306.11168
ionization energy=70 eV
ion type=[M]+*
computed spectral entropy=3.357361865534129
computed normalized entropy=0.7825180290331546
SPLASH=splash10-0006-9410000000-bd94dee6a8f3b565b57f
submitter=submitter = University of Tokyo Team (Faculty of Engineering, University of Tokyo)
MoNA Rating=3.75

>  <NUM PEAKS>  (4610) 
73

>  <MASS SPECTRAL PEAKS>  (4610) 
37 1.4
38 2.6
39 8.4
40 0.19
41 3.5
42 1.4
43 1.2
44 2.12
45 1.6
45.5 1.3
46.5 2.6
50 0.49
51 9.9
52 3.2
54 1.6
57.5 0.11
62 2.1
63 6.4
64 6.7
65 1.28
66 23.2
67 2.6
70 3.5
74 0.19
75 2.6
76 4.9
77 19.1
78 0.32
89 4.1
90 4.1
91 9.7
92 0.78
93 99.99
94 7.5
98 1.3
101 0.17
102 6.7
103 4.9
104 4.6
105 1.88
106 1.5
113 6.4
114 1.3
115 0.61
116 3.8
117 3.2
119 18.3
120 0.17
128 4.9
129 6.4
130 1.4
142 0.19
143 2.6
144 1.6
145 2
146 0.26
155 1.7
165 1.1
169 3.2
170 2.9
171 29
172 3.5
186 4.8
187 1.74
188 2
197 3.6
198 1.4
213 4.06
214 18.6
215 2
290 5.8
291 0.1
306 2.6

$$$$

     RDKit          2D

 23 26  0  0  0  0  0  0  0  0999 V2000
   -9.9256   -3.8031    0.0000 C   0  0  0  0  0  0  0  0  0  0  0  0
   -8.6262   -6.0529    0.0000 C   0  0  0  0  0  0  0  0  0  0  0  0
    3.0600    2.2000    0.0000 C   0  0  0  0  0  0  0  0  0  0  0  0
    1.7600    2.9500    0.0000 C   0  0  0  0  0  0  0  0  0  0  0  0
    3.0600    0.7000    0.0000 C   0  0  0  0  0  0  0  0  0  0  0  0
    0.4600    2.2000    0.0000 C   0  0  0  0  0  0  0  0  0  0  0  0
   -6.0282   -1.5506    0.0000 C   0  0  0  0  0  0  0  0  0  0  0  0
   -4.7289   -3.8010    0.0000 C   0  0  0  0  0  0  0  0  0  0  0  0
    1.7600   -1.5500    0.0000 C   0  0  0  0  0  0  0  0  0  0  0  0
   -7.3275   -2.3019    0.0000 C   0  0  0  0  0  0  0  0  0  0  0  0
   -6.0282   -4.5523    0.0000 C   0  0  0  0  0  0  0  0  0  0  0  0
    0.4600   -2.3000    0.0000 C   0  0  0  0  0  0  0  0  0  0  0  0
   -2.1300    0.7000    0.0000 C   0  0  0  0  0  0  0  0  0  0  0  0
    1.7600   -0.0500    0.0000 C   0  0  0  0  0  0  0  0  0  0  0  0
   -4.7289   -2.3002    0.0000 C   0  0  0  0  0  0  0  0  0  0  0  0
   -7.3275   -3.8027    0.0000 C   0  0  0  0  0  0  0  0  0  0  0  0
    0.4600    0.7000    0.0000 C   0  0  0  0  0  0  0  0  0  0  0  0
   -0.8300   -0.0500    0.0000 C   0  0  0  0  0  0  0  0  0  0  0  0
   -0.8300   -1.5500    0.0000 C   0  0  0  0  0  0  0  0  0  0  0  0
   -3.4300   -1.5500    0.0000 C   0  0  0  0  0  0  0  0  0  0  0  0
   -3.4300   -0.0500    0.0000 N   0  0  0  0  0  0  0  0  0  0  0  0
   -2.1300   -2.3000    0.0000 N   0  0  0  0  0  0  0  0  0  0  0  0
   -8.6264   -4.5529    0.0000 N   0  0  0  0  0  0  0  0  0  0  0  0
  4  3  2  0
  5  3  1  0
  6  4  1  0
 10  7  2  0
 11  8  1  0
 12  9  2  0
 14  5  2  0
 14  9  1  0
 15  7  1  0
 15  8  2  0
 16 10  1  0
 16 11  2  0
 17  6  2  0
 17 14  1  0
 18 13  2  0
 18 17  1  0
 19 12  1  0
 19 18  1  0
 20 15  1  0
 21 13  1  0
 21 20  2  0
 22 19  2  0
 22 20  1  0
 23  1  1  0
 23  2  1  0
 23 16  1  0
M  END
>  <NAME>  (4611) 
3-(4-DIMETHYLAMINOPHENYL)BENZO(F)QUINAZOLINE

>  <SYNONYMS>  (4611) 


>  <SPECTRUM TYPE>  (4611) 
MS1

>  <INSTRUMENT TYPE>  (4611) 
EI-B

>  <INSTRUMENT>  (4611) 
MS-902

>  <ION MODE>  (4611) 
P

>  <INCHIKEY>  (4611) 
GBGROYFHCSRCGK-UHFFFAOYSA-N

>  <FORMULA>  (4611) 
C20H17N3

>  <EXACT MASS>  (4611) 
299.14224754400004

>  <MW>  (4611) 
299

>  <ID>  (4611) 
JP005065

>  <CONTRIBUTOR>  (4611) 
University of Tokyo Team, {Faculty of Engineering, University of Tokyo

>  <COMMENT>  (4611) 
SMILES=CN(C)c(c4)ccc(c4)c(n3)nc(c1)c(c3)c(c2)c(ccc2)c1
InChI=InChI=1S/C20H17N3/c1-23(2)16-10-7-15(8-11-16)20-21-13-18-17-6-4-3-5-14(17)9-12-19(18)22-20/h3-13H,1-2H3
computed SMILES=N1=CC=2C(N=C1C=3C=CC(=CC3)N(C)C)=CC=C4C=CC=CC42
accession=JP005065
date=2016.01.19 (Created 2008.10.21, modified 2011.05.06)
author=SASAKI S, TOYOHASHI UNIV. OF TECH.
license=CC BY-NC-SA
exact mass=299.14225
ionization energy=70 eV
ion type=[M]+*
computed spectral entropy=3.100525329495791
computed normalized entropy=0.7273652769928
SPLASH=splash10-0002-0491000000-9a45721840b9e285e99c
submitter=submitter = University of Tokyo Team (Faculty of Engineering, University of Tokyo)
MoNA Rating=3.75

>  <NUM PEAKS>  (4611) 
71

>  <MASS SPECTRAL PEAKS>  (4611) 
69 2.1
71 1.4
75 1.8
76 0.29
77 4.6
78 1.3
79 1.1
81 0.2
91 1.7
95 2.3
97 1.5
100 0.2
101 1.4
102 1.7
103 1.5
104 0.22
105 1.4
114 1.2
118 1.1
120 0.37
121 1.8
125 2.2
126 11.3
127 0.51
127.5 3.7
128 5.6
129 2.1
130 0.16
131 1
134 1.6
135 2.7
141 0.17
141.5 2.2
142 1.7
145 7.4
146 0.21
148.5 2
149 15.7
149.5 16.1
150 0.29
152 4.7
153 2.2
179 2.4
194 0.11
201 1.4
227 2.8
228 2.9
229 0.18
242 1.3
247 2.6
253 1.7
254 0.16
255 8.7
256 5.9
257 4.8
258 0.12
268 1.8
269 2.6
270 1.7
271 0.19
281 1.2
282 8.6
283 18.6
284 0.93
285 3.7
286 1.5
287 1.2
298 7.68
299 99.99
300 33.1
301 3.8

$$$$

     RDKit          2D

 22 24  0  0  0  0  0  0  0  0999 V2000
  -11.2242   -0.0488    0.0000 C   0  0  0  0  0  0  0  0  0  0  0  0
   -9.9251    0.7010    0.0000 C   0  0  0  0  0  0  0  0  0  0  0  0
   -8.6262   -0.0492    0.0000 C   0  0  0  0  0  0  0  0  0  0  0  0
    3.0600    2.2000    0.0000 C   0  0  0  0  0  0  0  0  0  0  0  0
    1.7600    2.9500    0.0000 C   0  0  0  0  0  0  0  0  0  0  0  0
    3.0600    0.7000    0.0000 C   0  0  0  0  0  0  0  0  0  0  0  0
    0.4600    2.2000    0.0000 C   0  0  0  0  0  0  0  0  0  0  0  0
    1.7600   -1.5500    0.0000 C   0  0  0  0  0  0  0  0  0  0  0  0
    0.4600   -2.3000    0.0000 C   0  0  0  0  0  0  0  0  0  0  0  0
   -7.3270    0.7006    0.0000 C   0  0  0  0  0  0  0  0  0  0  0  0
   -3.4300   -1.5500    0.0000 C   0  0  0  0  0  0  0  0  0  0  0  0
    1.7600   -0.0500    0.0000 C   0  0  0  0  0  0  0  0  0  0  0  0
   -3.4300   -0.0500    0.0000 C   0  0  0  0  0  0  0  0  0  0  0  0
    0.4600    0.7000    0.0000 C   0  0  0  0  0  0  0  0  0  0  0  0
   -0.8300   -1.5500    0.0000 C   0  0  0  0  0  0  0  0  0  0  0  0
   -2.1300    0.7000    0.0000 C   0  0  0  0  0  0  0  0  0  0  0  0
   -4.7289    0.7002    0.0000 C   0  0  0  0  0  0  0  0  0  0  0  0
   -2.1300   -2.3000    0.0000 N   0  0  0  0  0  0  0  0  0  0  0  0
   -0.8300   -0.0500    0.0000 N   0  0  0  0  0  0  0  0  0  0  0  0
   -2.1300    2.2000    0.0000 O   0  0  0  0  0  0  0  0  0  0  0  0
   -4.7287    2.2002    0.0000 O   0  0  0  0  0  0  0  0  0  0  0  0
   -6.0281   -0.0496    0.0000 O   0  0  0  0  0  0  0  0  0  0  0  0
  2  1  1  0
  3  2  1  0
  5  4  2  0
  6  4  1  0
  7  5  1  0
  9  8  2  0
 10  3  1  0
 12  6  2  0
 12  8  1  0
 13 11  2  0
 14  7  2  0
 14 12  1  0
 15  9  1  0
 16 13  1  0
 17 13  1  0
 18 11  1  0
 18 15  2  0
 19 14  1  0
 19 15  1  0
 19 16  1  0
 20 16  2  0
 21 17  2  0
 22 10  1  0
 22 17  1  0
M  END
>  <NAME>  (4612) 
1-OXO-1H-PYRIMIDO(1,2-A)QUINOLINE-2-CARBOXYLIC ACID BUTYL ESTER

>  <SYNONYMS>  (4612) 


>  <SPECTRUM TYPE>  (4612) 
MS1

>  <INSTRUMENT TYPE>  (4612) 
EI-B

>  <INSTRUMENT>  (4612) 
MS-902

>  <ION MODE>  (4612) 
P

>  <INCHIKEY>  (4612) 
LDBMQSOXPOLETB-UHFFFAOYSA-N

>  <FORMULA>  (4612) 
C17H16N2O3

>  <EXACT MASS>  (4612) 
296.11609237199997

>  <MW>  (4612) 
296

>  <ID>  (4612) 
JP005064

>  <CONTRIBUTOR>  (4612) 
University of Tokyo Team, {Faculty of Engineering, University of Tokyo

>  <COMMENT>  (4612) 
SMILES=CCCCOC(=O)C(=C([H])3)C(=O)N(c21)C(=N3)C([H])=C([H])c(cccc2)1
cas=63455-53-8
InChI=InChI=1S/C17H16N2O3/c1-2-3-10-22-17(21)13-11-18-15-9-8-12-6-4-5-7-14(12)19(15)16(13)20/h4-9,11H,2-3,10H2,1H3
computed SMILES=O=C(OCCCC)C1=CN=C2C=CC=3C=CC=CC3N2C1=O
accession=JP005064
date=2016.01.19 (Created 2008.10.21, modified 2011.05.06)
author=SASAKI S, TOYOHASHI UNIV. OF TECH.
license=CC BY-NC-SA
exact mass=296.11609
ionization energy=70 eV
ion type=[M]+*
computed spectral entropy=2.6197340271753187
computed normalized entropy=0.84752444093062
SPLASH=splash10-004j-0980000000-148df66c0a6c8e97faac
submitter=submitter = University of Tokyo Team (Faculty of Engineering, University of Tokyo)
MoNA Rating=3.75

>  <NUM PEAKS>  (4612) 
22

>  <MASS SPECTRAL PEAKS>  (4612) 
64 8
77 7.8
101 14
128 99.99
129 24
140 14
155 10
168 4.7
169 9.6
194 3.2
195 23
196 6
197 9.4
212 34
213 4.7
223 9.5
224 16
240 46
241 12
268 0.33
296 60
297 17

$$$$

     RDKit          2D

 22 25  0  0  0  0  0  0  0  0999 V2000
   -9.9391   -3.8481    0.0000 C   0  0  0  0  0  0  0  0  0  0  0  0
    3.0600    2.2000    0.0000 C   0  0  0  0  0  0  0  0  0  0  0  0
    1.7600    2.9500    0.0000 C   0  0  0  0  0  0  0  0  0  0  0  0
    3.0600    0.7000    0.0000 C   0  0  0  0  0  0  0  0  0  0  0  0
    0.4600    2.2000    0.0000 C   0  0  0  0  0  0  0  0  0  0  0  0
   -4.7213   -3.8002    0.0000 C   0  0  0  0  0  0  0  0  0  0  0  0
   -6.0027   -1.5567    0.0000 C   0  0  0  0  0  0  0  0  0  0  0  0
    1.7600   -1.5500    0.0000 C   0  0  0  0  0  0  0  0  0  0  0  0
   -5.9875   -4.5566    0.0000 C   0  0  0  0  0  0  0  0  0  0  0  0
   -7.3489   -2.3135    0.0000 C   0  0  0  0  0  0  0  0  0  0  0  0
    0.4600   -2.3000    0.0000 C   0  0  0  0  0  0  0  0  0  0  0  0
   -2.1300    0.7000    0.0000 C   0  0  0  0  0  0  0  0  0  0  0  0
    1.7600   -0.0500    0.0000 C   0  0  0  0  0  0  0  0  0  0  0  0
   -4.7289   -2.3002    0.0000 C   0  0  0  0  0  0  0  0  0  0  0  0
   -7.3413   -3.8135    0.0000 C   0  0  0  0  0  0  0  0  0  0  0  0
    0.4600    0.7000    0.0000 C   0  0  0  0  0  0  0  0  0  0  0  0
   -0.8300   -0.0500    0.0000 C   0  0  0  0  0  0  0  0  0  0  0  0
   -0.8300   -1.5500    0.0000 C   0  0  0  0  0  0  0  0  0  0  0  0
   -3.4300   -1.5500    0.0000 C   0  0  0  0  0  0  0  0  0  0  0  0
   -3.4300   -0.0500    0.0000 N   0  0  0  0  0  0  0  0  0  0  0  0
   -2.1300   -2.3000    0.0000 N   0  0  0  0  0  0  0  0  0  0  0  0
   -8.6302   -4.5808    0.0000 O   0  0  0  0  0  0  0  0  0  0  0  0
  3  2  2  0
  4  2  1  0
  5  3  1  0
  9  6  2  0
 10  7  1  0
 11  8  2  0
 13  4  2  0
 13  8  1  0
 14  6  1  0
 14  7  2  0
 15  9  1  0
 15 10  2  0
 16  5  2  0
 16 13  1  0
 17 12  2  0
 17 16  1  0
 18 11  1  0
 18 17  1  0
 19 14  1  0
 20 12  1  0
 20 19  2  0
 21 18  2  0
 21 19  1  0
 22  1  1  0
 22 15  1  0
M  END
>  <NAME>  (4613) 
3-(4-METHOXYPHENYL)BENZO(F)QUINAZOLINE

>  <SYNONYMS>  (4613) 


>  <SPECTRUM TYPE>  (4613) 
MS1

>  <INSTRUMENT TYPE>  (4613) 
EI-B

>  <INSTRUMENT>  (4613) 
MS-902

>  <ION MODE>  (4613) 
P

>  <INCHIKEY>  (4613) 
CADPXUBGTFMZAG-UHFFFAOYSA-N

>  <FORMULA>  (4613) 
C19H14N2O

>  <EXACT MASS>  (4613) 
286.11061306799996

>  <MW>  (4613) 
286

>  <ID>  (4613) 
JP005063

>  <CONTRIBUTOR>  (4613) 
University of Tokyo Team, {Faculty of Engineering, University of Tokyo

>  <COMMENT>  (4613) 
SMILES=COc(c4)ccc(c4)c(n3)nc(c1)c(c3)c(c2)c(ccc2)c1
cas=68725-85-9
InChI=InChI=1S/C19H14N2O/c1-22-15-9-6-14(7-10-15)19-20-12-17-16-5-3-2-4-13(16)8-11-18(17)21-19/h2-12H,1H3
computed SMILES=N1=CC=2C(N=C1C=3C=CC(OC)=CC3)=CC=C4C=CC=CC42
accession=JP005063
date=2016.01.19 (Created 2008.10.21, modified 2011.05.06)
author=SASAKI S, TOYOHASHI UNIV. OF TECH.
license=CC BY-NC-SA
exact mass=286.11061
ionization energy=70 eV
ion type=[M]+*
computed spectral entropy=1.8683746466163298
computed normalized entropy=0.5734558889869245
SPLASH=splash10-000i-0190000000-b6a4d607b26ec57f66d5
submitter=submitter = University of Tokyo Team (Faculty of Engineering, University of Tokyo)
MoNA Rating=3.75

>  <NUM PEAKS>  (4613) 
26

>  <MASS SPECTRAL PEAKS>  (4613) 
75 1
99 1
107.5 1.2
108 0.11
121 1.6
121.5 4.7
122 1.2
125 0.14
126 16
127 2.2
127.5 1.1
143 0.65
144 1.6
152 1.8
216 1.7
242 0.46
243 5
244 1.5
257 2.1
259 0.15
271 9.4
272 2.7
285 6.3
286 99.99
287 20
288 2.2

$$$$

     RDKit          2D

 17 18  0  0  0  0  0  0  0  0999 V2000
    6.1107    3.5160    0.0000 C   0  0  0  0  0  0  0  0  0  0  0  0
    7.3895    2.7811    0.0000 C   0  0  0  0  0  0  0  0  0  0  0  0
   -0.3700   -1.7100    0.0000 C   0  0  0  0  0  0  0  0  0  0  0  0
   -1.6700   -0.9600    0.0000 C   0  0  0  0  0  0  0  0  0  0  0  0
    4.8295    2.7708    0.0000 C   0  0  0  0  0  0  0  0  0  0  0  0
    0.9300   -0.9600    0.0000 C   0  0  0  0  0  0  0  0  0  0  0  0
    7.4173    1.2813    0.0000 C   0  0  0  0  0  0  0  0  0  0  0  0
    3.5281    0.5404    0.0000 C   0  0  0  0  0  0  0  0  0  0  0  0
    2.2289    1.2902    0.0000 C   0  0  0  0  0  0  0  0  0  0  0  0
   -1.6700    0.5400    0.0000 C   0  0  0  0  0  0  0  0  0  0  0  0
    4.8270    1.2906    0.0000 C   0  0  0  0  0  0  0  0  0  0  0  0
    0.9300    0.5400    0.0000 C   0  0  0  0  0  0  0  0  0  0  0  0
    6.1058    0.5557    0.0000 C   0  0  0  0  0  0  0  0  0  0  0  0
   -0.3700    1.2900    0.0000 N   0  0  0  0  0  0  0  0  0  0  0  0
    6.0936   -0.9442    0.0000 N   0  0  0  0  0  0  0  0  0  0  0  0
    7.3865   -1.7048    0.0000 O   0  0  0  0  0  0  0  0  0  0  0  0
    4.7885   -1.6836    0.0000 O   0  0  0  0  0  0  0  0  0  0  0  0
  2  1  2  0
  4  3  2  0
  5  1  1  0
  6  3  1  0
  7  2  1  0
  8  9  2  0
 10  4  1  0
 11  5  2  0
 11  8  1  0
 12  6  2  0
 12  9  1  0
 13  7  2  0
 13 11  1  0
 14 10  2  0
 14 12  1  0
 15 13  1  0
 16 15  1  0
 17 15  2  0
M  CHG  2  15   1  16  -1
M  END
>  <NAME>  (4614) 
2-(2-(2-NITROPHENYL)-TRANS-VINYL)PYRIDINE

>  <SYNONYMS>  (4614) 


>  <SPECTRUM TYPE>  (4614) 
MS1

>  <INSTRUMENT TYPE>  (4614) 
EI-B

>  <INSTRUMENT>  (4614) 
MX-1309

>  <ION MODE>  (4614) 
P

>  <INCHIKEY>  (4614) 
YADNATDOWRSAOC-CMDGGOBGSA-N

>  <FORMULA>  (4614) 
C13H10N2O2

>  <EXACT MASS>  (4614) 
226.07422756

>  <MW>  (4614) 
226

>  <ID>  (4614) 
JP005029

>  <CONTRIBUTOR>  (4614) 
University of Tokyo Team, {Faculty of Engineering, University of Tokyo

>  <COMMENT>  (4614) 
SMILES=[O-1][N+1](=O)c(c2)c(ccc2)C([H])=C([H])c(c1)nccc1
InChI=InChI=1S/C13H10N2O2/c16-15(17)13-7-2-1-5-11(13)8-9-12-6-3-4-10-14-12/h1-10H/b9-8+
computed SMILES=O=N(=O)C=1C=CC=CC1C=CC2=NC=CC=C2
accession=JP005029
date=2016.01.19 (Created 2008.10.21, modified 2011.05.06)
author=SASAKI S, TOYOHASHI UNIV. OF TECH.
license=CC BY-NC-SA
exact mass=226.07423
ionization energy=70 eV
ion type=[M]+*
computed spectral entropy=3.4094601135242573
computed normalized entropy=0.7872708489825506
SPLASH=splash10-00o0-3910000000-d32e778b81325eb7cec1
submitter=submitter = University of Tokyo Team (Faculty of Engineering, University of Tokyo)
MoNA Rating=3.75

>  <NUM PEAKS>  (4614) 
76

>  <MASS SPECTRAL PEAKS>  (4614) 
62 2.4
63 8.2
65 8.4
75 0.52
76 9.8
77 19
78 29.7
79 2.04
80 2.1
84 7.4
87 1.4
88 0.12
89 9
90 3.3
91 8
92 3.08
93 3
97 1
98 1
99 0.12
101 3.5
102 4.9
103 1.5
104 0.42
105 6.6
106 2
108 1.6
114 1.15
115 2.9
119 42.2
120 5.9
121 0.11
125 1.2
126 3
127 6.8
128 0.37
129 1.2
130 1
139 4.1
140 0.32
141 2.9
142 1
149 1
150 0.29
151 6.9
152 14.8
153 5.2
154 0.62
155 2.3
156 11.2
165 1.1
166 0.68
167 19.7
168 4.4
169 2.3
177 0.29
178 12.8
179 16.5
180 99.99
181 2.59
182 3.5
192 1.1
193 1.4
194 0.25
195 1.7
196 1.1
197 5.6
198 0.1
206 9.4
207 1
209 2.6
223 0.32
224 2.6
225 10.3
226 14.3
227 3

$$$$

     RDKit          2D

 17 18  0  0  0  0  0  0  0  0999 V2000
   -0.3700   -1.7100    0.0000 C   0  0  0  0  0  0  0  0  0  0  0  0
   -1.6700   -0.9600    0.0000 C   0  0  0  0  0  0  0  0  0  0  0  0
    7.4206    1.2945    0.0000 C   0  0  0  0  0  0  0  0  0  0  0  0
    6.1204    0.5465    0.0000 C   0  0  0  0  0  0  0  0  0  0  0  0
    0.9300   -0.9600    0.0000 C   0  0  0  0  0  0  0  0  0  0  0  0
    7.4273    2.7867    0.0000 C   0  0  0  0  0  0  0  0  0  0  0  0
    3.5281    0.5404    0.0000 C   0  0  0  0  0  0  0  0  0  0  0  0
    2.2289    1.2902    0.0000 C   0  0  0  0  0  0  0  0  0  0  0  0
   -1.6700    0.5400    0.0000 C   0  0  0  0  0  0  0  0  0  0  0  0
    4.8288    2.7915    0.0000 C   0  0  0  0  0  0  0  0  0  0  0  0
    4.8270    1.2906    0.0000 C   0  0  0  0  0  0  0  0  0  0  0  0
    0.9300    0.5400    0.0000 C   0  0  0  0  0  0  0  0  0  0  0  0
    6.1290    3.5395    0.0000 C   0  0  0  0  0  0  0  0  0  0  0  0
   -0.3700    1.2900    0.0000 N   0  0  0  0  0  0  0  0  0  0  0  0
    6.1315    5.0395    0.0000 N   0  0  0  0  0  0  0  0  0  0  0  0
    7.4318    5.7873    0.0000 O   0  0  0  0  0  0  0  0  0  0  0  0
    4.8337    5.7917    0.0000 O   0  0  0  0  0  0  0  0  0  0  0  0
  2  1  2  0
  4  3  2  0
  5  1  1  0
  6  3  1  0
  7  8  2  0
  9  2  1  0
 11  4  1  0
 11  7  1  0
 11 10  2  0
 12  5  2  0
 12  8  1  0
 13  6  2  0
 13 10  1  0
 14  9  2  0
 14 12  1  0
 15 13  1  0
 16 15  1  0
 17 15  2  0
M  CHG  2  15   1  16  -1
M  END
>  <NAME>  (4615) 
2-(2-(3-NITROPHENYL)-TRANS-VINYL)PYRIDINE

>  <SYNONYMS>  (4615) 


>  <SPECTRUM TYPE>  (4615) 
MS1

>  <INSTRUMENT TYPE>  (4615) 
EI-B

>  <INSTRUMENT>  (4615) 
MX-1309

>  <ION MODE>  (4615) 
P

>  <INCHIKEY>  (4615) 
NFTQPJVUAHNPTC-BQYQJAHWSA-N

>  <FORMULA>  (4615) 
C13H10N2O2

>  <EXACT MASS>  (4615) 
226.07422756

>  <MW>  (4615) 
226

>  <ID>  (4615) 
JP005028

>  <CONTRIBUTOR>  (4615) 
University of Tokyo Team, {Faculty of Engineering, University of Tokyo

>  <COMMENT>  (4615) 
SMILES=[O-1][N+1](=O)c(c2)cc(cc2)C([H])=C([H])c(c1)nccc1
InChI=InChI=1S/C13H10N2O2/c16-15(17)13-6-3-4-11(10-13)7-8-12-5-1-2-9-14-12/h1-10H/b8-7+
computed SMILES=O=N(=O)C=1C=CC=C(C=CC2=NC=CC=C2)C1
accession=JP005028
date=2016.01.19 (Created 2008.10.21, modified 2011.05.06)
author=SASAKI S, TOYOHASHI UNIV. OF TECH.
license=CC BY-NC-SA
exact mass=226.07423
ionization energy=70 eV
ion type=[M]+*
computed spectral entropy=2.694083203240877
computed normalized entropy=0.6997350444549942
SPLASH=splash10-004i-2590000000-9d61cf39a15b065e8ea9
submitter=submitter = University of Tokyo Team (Faculty of Engineering, University of Tokyo)
MoNA Rating=3.75

>  <NUM PEAKS>  (4615) 
47

>  <MASS SPECTRAL PEAKS>  (4615) 
62 1.7
63 5.9
64 1.5
75 0.45
76 9.4
77 16.2
78 11.3
79 0.14
80 1.3
87 1.2
88 1.1
89 1.1
90 7.2
101 2.8
102 3.2
104 0.32
139 1.4
140 1.9
141 4.4
149 0.11
150 3
151 8.1
152 19.4
153 0.89
154 3.5
165 1
166 1.6
167 0.78
168 1.8
177 2.5
178 26.9
179 1.08
180 26.1
181 3.2
192 1
193 0.16
194 1
195 2.6
196 1
209 0.1
210 17.9
211 3.5
223 4.6
224 0.44
225 99.99
226 65.6
227 1.06

$$$$

     RDKit          2D

 17 18  0  0  0  0  0  0  0  0999 V2000
    8.7236    5.0433    0.0000 C   0  0  0  0  0  0  0  0  0  0  0  0
   10.0236    4.2933    0.0000 C   0  0  0  0  0  0  0  0  0  0  0  0
    7.4236    4.2933    0.0000 C   0  0  0  0  0  0  0  0  0  0  0  0
    4.8256    2.7929    0.0000 C   0  0  0  0  0  0  0  0  0  0  0  0
    2.2274    2.7923    0.0000 C   0  0  0  0  0  0  0  0  0  0  0  0
    3.5266    0.5419    0.0000 C   0  0  0  0  0  0  0  0  0  0  0  0
    6.1247    2.0431    0.0000 C   0  0  0  0  0  0  0  0  0  0  0  0
    0.9281    2.0410    0.0000 C   0  0  0  0  0  0  0  0  0  0  0  0
    2.2274   -0.2094    0.0000 C   0  0  0  0  0  0  0  0  0  0  0  0
   10.0236    2.7933    0.0000 C   0  0  0  0  0  0  0  0  0  0  0  0
    3.5266    2.0427    0.0000 C   0  0  0  0  0  0  0  0  0  0  0  0
    7.4236    2.7933    0.0000 C   0  0  0  0  0  0  0  0  0  0  0  0
    0.9281    0.5402    0.0000 C   0  0  0  0  0  0  0  0  0  0  0  0
    8.7236    2.0433    0.0000 N   0  0  0  0  0  0  0  0  0  0  0  0
   -0.3708   -0.2100    0.0000 N   0  0  0  0  0  0  0  0  0  0  0  0
   -1.6700    0.5398    0.0000 O   0  0  0  0  0  0  0  0  0  0  0  0
   -0.3706   -1.7100    0.0000 O   0  0  0  0  0  0  0  0  0  0  0  0
  2  1  2  0
  3  1  1  0
  4  7  2  0
  8  5  2  0
  9  6  1  0
 10  2  1  0
 11  4  1  0
 11  5  1  0
 11  6  2  0
 12  3  2  0
 12  7  1  0
 13  8  1  0
 13  9  2  0
 14 10  2  0
 14 12  1  0
 15 13  1  0
 16 15  1  0
 17 15  2  0
M  CHG  2  15   1  16  -1
M  END
>  <NAME>  (4616) 
2-(2-(4-NITROPHENYL)-TRANS-VINYL)PYRIDINE

>  <SYNONYMS>  (4616) 


>  <SPECTRUM TYPE>  (4616) 
MS1

>  <INSTRUMENT TYPE>  (4616) 
EI-B

>  <INSTRUMENT>  (4616) 
MX-1309

>  <ION MODE>  (4616) 
P

>  <INCHIKEY>  (4616) 
RBWIGCZMJZUUCB-QPJJXVBHSA-N

>  <FORMULA>  (4616) 
C13H10N2O2

>  <EXACT MASS>  (4616) 
226.07422756

>  <MW>  (4616) 
226

>  <ID>  (4616) 
JP005027

>  <CONTRIBUTOR>  (4616) 
University of Tokyo Team, {Faculty of Engineering, University of Tokyo

>  <COMMENT>  (4616) 
SMILES=[O-1][N+1](=O)c(c2)ccc(c2)C([H])=C([H])c(c1)nccc1
InChI=InChI=1S/C13H10N2O2/c16-15(17)13-8-5-11(6-9-13)4-7-12-3-1-2-10-14-12/h1-10H/b7-4+
computed SMILES=O=N(=O)C1=CC=C(C=CC2=NC=CC=C2)C=C1
accession=JP005027
date=2016.01.19 (Created 2008.10.21, modified 2011.05.06)
author=SASAKI S, TOYOHASHI UNIV. OF TECH.
license=CC BY-NC-SA
exact mass=226.07423
ionization energy=70 eV
ion type=[M]+*
computed spectral entropy=2.506031286816619
computed normalized entropy=0.679347568276276
SPLASH=splash10-004i-3790000000-bcf9a4ae4d8266f4df69
submitter=submitter = University of Tokyo Team (Faculty of Engineering, University of Tokyo)
MoNA Rating=3.75

>  <NUM PEAKS>  (4616) 
40

>  <MASS SPECTRAL PEAKS>  (4616) 
50 3.1
51 8.4
52 6.2
62 0.11
63 4.7
64 1.5
75 3.9
76 0.52
77 10
78 7.6
79 9.8
89 0.6
90 3.8
101 2.1
102 2.2
103 0.1
104 2
114 1.1
139 1
140 0.14
141 2.6
149 1
150 1.6
151 0.47
152 10.1
153 6.3
154 2.4
166 0.1
167 6.2
168 1.6
177 1.8
178 1.94
179 66.3
180 14.8
181 1.7
195 0.12
210 1.8
225 99.99
226 51.9
227 7.7

$$$$

     RDKit          2D

 17 18  0  0  0  0  0  0  0  0999 V2000
   -1.6700    0.5398    0.0000 C   0  0  0  0  0  0  0  0  0  0  0  0
   -0.3706   -1.7100    0.0000 C   0  0  0  0  0  0  0  0  0  0  0  0
    8.7236    5.0433    0.0000 C   0  0  0  0  0  0  0  0  0  0  0  0
   10.0236    4.2933    0.0000 C   0  0  0  0  0  0  0  0  0  0  0  0
    7.4236    4.2933    0.0000 C   0  0  0  0  0  0  0  0  0  0  0  0
    4.8256    2.7929    0.0000 C   0  0  0  0  0  0  0  0  0  0  0  0
    2.2274    2.7923    0.0000 C   0  0  0  0  0  0  0  0  0  0  0  0
    3.5266    0.5419    0.0000 C   0  0  0  0  0  0  0  0  0  0  0  0
    6.1247    2.0431    0.0000 C   0  0  0  0  0  0  0  0  0  0  0  0
    0.9281    2.0410    0.0000 C   0  0  0  0  0  0  0  0  0  0  0  0
    2.2274   -0.2094    0.0000 C   0  0  0  0  0  0  0  0  0  0  0  0
   10.0236    2.7933    0.0000 C   0  0  0  0  0  0  0  0  0  0  0  0
    3.5266    2.0427    0.0000 C   0  0  0  0  0  0  0  0  0  0  0  0
    7.4236    2.7933    0.0000 C   0  0  0  0  0  0  0  0  0  0  0  0
    0.9281    0.5402    0.0000 C   0  0  0  0  0  0  0  0  0  0  0  0
    8.7236    2.0433    0.0000 N   0  0  0  0  0  0  0  0  0  0  0  0
   -0.3708   -0.2100    0.0000 N   0  0  0  0  0  0  0  0  0  0  0  0
  4  3  2  0
  5  3  1  0
  6  9  2  0
 10  7  2  0
 11  8  1  0
 12  4  1  0
 13  6  1  0
 13  7  1  0
 13  8  2  0
 14  5  2  0
 14  9  1  0
 15 10  1  0
 15 11  2  0
 16 12  2  0
 16 14  1  0
 17  1  1  0
 17  2  1  0
 17 15  1  0
M  END
>  <NAME>  (4617) 
2-(2-(4-DIMETHYLAMINOPHENYL)-TRANS-VINYL)PYRIDINE

>  <SYNONYMS>  (4617) 


>  <SPECTRUM TYPE>  (4617) 
MS1

>  <INSTRUMENT TYPE>  (4617) 
EI-B

>  <INSTRUMENT>  (4617) 
MX-1309

>  <ION MODE>  (4617) 
P

>  <INCHIKEY>  (4617) 
BKJUFUDGHOBEFF-RMKNXTFCSA-N

>  <FORMULA>  (4617) 
C15H16N2

>  <EXACT MASS>  (4617) 
224.131348512

>  <MW>  (4617) 
224

>  <ID>  (4617) 
JP005026

>  <CONTRIBUTOR>  (4617) 
University of Tokyo Team, {Faculty of Engineering, University of Tokyo

>  <COMMENT>  (4617) 
SMILES=CN(C)c(c2)ccc(c2)C([H])=C([H])c(c1)nccc1
InChI=InChI=1S/C15H16N2/c1-17(2)15-10-7-13(8-11-15)6-9-14-5-3-4-12-16-14/h3-12H,1-2H3/b9-6+
computed SMILES=N=1C=CC=CC1C=CC2=CC=C(C=C2)N(C)C
accession=JP005026
date=2016.01.19 (Created 2008.10.21, modified 2011.05.06)
author=SASAKI S, TOYOHASHI UNIV. OF TECH.
license=CC BY-NC-SA
exact mass=224.13135
ionization energy=70 eV
ion type=[M]+*
computed spectral entropy=2.285952142400017
computed normalized entropy=0.6196874066596735
SPLASH=splash10-00di-0290000000-0de4afa77b5dc75411e0
submitter=submitter = University of Tokyo Team (Faculty of Engineering, University of Tokyo)
MoNA Rating=3.75

>  <NUM PEAKS>  (4617) 
40

>  <MASS SPECTRAL PEAKS>  (4617) 
75 1.1
76 2.2
77 2.7
78 0.2
79 1.3
84 2.5
89 1.7
90 0.22
101 1
102 1
103 4.4
104 0.42
111 13.9
112 8.3
127 1
128 0.1
130 1
151 1.5
152 2.8
153 0.16
154 1.1
166 1
167 3.1
168 0.18
178 6.4
179 6.4
180 6.4
181 0.17
192 1.3
193 1.4
194 1.5
206 0.1
207 25.5
208 9.9
209 3.5
221 0.13
222 1
223 99.99
224 85.4
225 15

$$$$

     RDKit          2D

 15 16  0  0  0  0  0  0  0  0999 V2000
    7.4474    3.5438    0.0000 C   0  0  0  0  0  0  0  0  0  0  0  0
    8.7474    2.7938    0.0000 C   0  0  0  0  0  0  0  0  0  0  0  0
    6.1474    2.7938    0.0000 C   0  0  0  0  0  0  0  0  0  0  0  0
    0.9645    1.2830    0.0000 C   0  0  0  0  0  0  0  0  0  0  0  0
    2.2486   -0.9663    0.0000 C   0  0  0  0  0  0  0  0  0  0  0  0
    3.5494    1.2934    0.0000 C   0  0  0  0  0  0  0  0  0  0  0  0
   -0.3382    0.5393    0.0000 C   0  0  0  0  0  0  0  0  0  0  0  0
    0.9459   -1.7100    0.0000 C   0  0  0  0  0  0  0  0  0  0  0  0
    4.8485    0.5436    0.0000 C   0  0  0  0  0  0  0  0  0  0  0  0
    8.7474    1.2938    0.0000 C   0  0  0  0  0  0  0  0  0  0  0  0
    2.2504    0.5432    0.0000 C   0  0  0  0  0  0  0  0  0  0  0  0
   -0.3636   -0.9491    0.0000 C   0  0  0  0  0  0  0  0  0  0  0  0
    6.1474    1.2938    0.0000 C   0  0  0  0  0  0  0  0  0  0  0  0
   -1.6700   -1.6862    0.0000 Cl  0  0  0  0  0  0  0  0  0  0  0  0
    7.4474    0.5438    0.0000 N   0  0  0  0  0  0  0  0  0  0  0  0
  2  1  2  0
  3  1  1  0
  7  4  2  0
  8  5  1  0
  6  9  2  0
 10  2  1  0
 11  4  1  0
 11  5  2  0
 11  6  1  0
 12  7  1  0
 12  8  2  0
 13  3  2  0
 13  9  1  0
 14 12  1  0
 15 10  2  0
 15 13  1  0
M  END
>  <NAME>  (4618) 
2-(2-(4-CHLOROPHENYL)-TRANS-VINYL)PYRIDINE

>  <SYNONYMS>  (4618) 


>  <SPECTRUM TYPE>  (4618) 
MS1

>  <INSTRUMENT TYPE>  (4618) 
EI-B

>  <INSTRUMENT>  (4618) 
MX-1309

>  <ION MODE>  (4618) 
P

>  <INCHIKEY>  (4618) 
KSRMKBJYFVLXQU-RMKNXTFCSA-N

>  <FORMULA>  (4618) 
C13H10ClN

>  <EXACT MASS>  (4618) 
215.050177

>  <MW>  (4618) 
215

>  <ID>  (4618) 
JP005025

>  <CONTRIBUTOR>  (4618) 
University of Tokyo Team, {Faculty of Engineering, University of Tokyo

>  <COMMENT>  (4618) 
SMILES=Clc(c2)ccc(c2)C([H])=C([H])c(c1)nccc1
InChI=InChI=1S/C13H10ClN/c14-12-7-4-11(5-8-12)6-9-13-3-1-2-10-15-13/h1-10H/b9-6+
computed SMILES=ClC1=CC=C(C=C1)C=CC2=NC=CC=C2
accession=JP005025
date=2016.01.19 (Created 2008.10.21, modified 2011.05.06)
author=SASAKI S, TOYOHASHI UNIV. OF TECH.
license=CC BY-NC-SA
exact mass=215.05018
ionization energy=70 eV
ion type=[M]+*
computed spectral entropy=2.1199445032404327
computed normalized entropy=0.6432188817071288
SPLASH=splash10-03di-2190000000-b8a1be38d6a1142c7258
submitter=submitter = University of Tokyo Team (Faculty of Engineering, University of Tokyo)
MoNA Rating=3.75

>  <NUM PEAKS>  (4618) 
27

>  <MASS SPECTRAL PEAKS>  (4618) 
50 1.9
51 5.3
52 6
62 0.1
63 2.6
75 3.3
76 4.9
77 0.4
78 5.1
79 5.2
89 10.5
90 0.42
126 1.1
127 1
150 1
151 0.33
152 5.2
153 1.6
177 1.2
178 0.91
179 8.9
180 5.1
214 99.99
215 2.86
216 36.3
217 9.8
218 1

$$$$

     RDKit          2D

 16 17  0  0  0  0  0  0  0  0999 V2000
   10.0372    2.8386    0.0000 C   0  0  0  0  0  0  0  0  0  0  0  0
   -0.3700   -1.7100    0.0000 C   0  0  0  0  0  0  0  0  0  0  0  0
   -1.6700   -0.9600    0.0000 C   0  0  0  0  0  0  0  0  0  0  0  0
    0.9300   -0.9600    0.0000 C   0  0  0  0  0  0  0  0  0  0  0  0
    3.5281    0.5404    0.0000 C   0  0  0  0  0  0  0  0  0  0  0  0
    4.8194    2.7906    0.0000 C   0  0  0  0  0  0  0  0  0  0  0  0
    6.1008    0.5471    0.0000 C   0  0  0  0  0  0  0  0  0  0  0  0
    2.2289    1.2902    0.0000 C   0  0  0  0  0  0  0  0  0  0  0  0
    6.0855    3.5470    0.0000 C   0  0  0  0  0  0  0  0  0  0  0  0
    7.4470    1.3039    0.0000 C   0  0  0  0  0  0  0  0  0  0  0  0
   -1.6700    0.5400    0.0000 C   0  0  0  0  0  0  0  0  0  0  0  0
    4.8270    1.2906    0.0000 C   0  0  0  0  0  0  0  0  0  0  0  0
    0.9300    0.5400    0.0000 C   0  0  0  0  0  0  0  0  0  0  0  0
    7.4393    2.8039    0.0000 C   0  0  0  0  0  0  0  0  0  0  0  0
   -0.3700    1.2900    0.0000 N   0  0  0  0  0  0  0  0  0  0  0  0
    8.7283    3.5712    0.0000 O   0  0  0  0  0  0  0  0  0  0  0  0
  3  2  2  0
  4  2  1  0
  5  8  2  0
  9  6  2  0
 10  7  1  0
 11  3  1  0
 12  5  1  0
 12  6  1  0
 12  7  2  0
 13  4  2  0
 13  8  1  0
 14  9  1  0
 14 10  2  0
 15 11  2  0
 15 13  1  0
 16  1  1  0
 16 14  1  0
M  END
>  <NAME>  (4619) 
2-(2-(4-METHOXYPHENYL)-TRANS-VINYL)PYRIDINE

>  <SYNONYMS>  (4619) 


>  <SPECTRUM TYPE>  (4619) 
MS1

>  <INSTRUMENT TYPE>  (4619) 
EI-B

>  <INSTRUMENT>  (4619) 
MX-1309

>  <ION MODE>  (4619) 
P

>  <INCHIKEY>  (4619) 
YVXLWJRTXKPYON-VMPITWQZSA-N

>  <FORMULA>  (4619) 
C14H13NO

>  <EXACT MASS>  (4619) 
211.099714036

>  <MW>  (4619) 
211

>  <ID>  (4619) 
JP005023

>  <CONTRIBUTOR>  (4619) 
University of Tokyo Team, {Faculty of Engineering, University of Tokyo

>  <COMMENT>  (4619) 
SMILES=COc(c2)ccc(c2)C([H])=C([H])c(c1)nccc1
InChI=InChI=1S/C14H13NO/c1-16-14-9-6-12(7-10-14)5-8-13-4-2-3-11-15-13/h2-11H,1H3/b8-5+
computed SMILES=N=1C=CC=CC1C=CC2=CC=C(OC)C=C2
accession=JP005023
date=2016.01.19 (Created 2008.10.21, modified 2011.05.06)
author=SASAKI S, TOYOHASHI UNIV. OF TECH.
license=CC BY-NC-SA
exact mass=211.09971
ionization energy=70 eV
ion type=[M]+*
computed spectral entropy=1.333825159632845
computed normalized entropy=0.4614718352367606
SPLASH=splash10-03di-0090000000-8b7352a74d36d95a3b8f
submitter=submitter = University of Tokyo Team (Faculty of Engineering, University of Tokyo)
MoNA Rating=3.75

>  <NUM PEAKS>  (4619) 
18

>  <MASS SPECTRAL PEAKS>  (4619) 
50 1.3
62 1
77 1
78 0.11
79 1
89 1.4
90 1.2
132 0.12
140 1
141 1.3
166 2.2
167 1.6
168 5.5
178 1.1
180 1.1
210 99.99
211 41.8
212 6

$$$$

     RDKit          2D

 15 14  0  0  0  0  0  0  0  0999 V2000
    4.1716    7.0245    0.0000 C   0  0  0  0  0  0  0  0  0  0  0  0
   -9.3678    9.0736    0.0000 C   0  0  0  0  0  0  0  0  0  0  0  0
  -11.4168    8.5245    0.0000 C   0  0  0  0  0  0  0  0  0  0  0  0
  -10.8678    6.4755    0.0000 C   0  0  0  0  0  0  0  0  0  0  0  0
    2.8726    7.7745    0.0000 C   0  0  0  0  0  0  0  0  0  0  0  0
    1.5736    7.0245    0.0000 C   0  0  0  0  0  0  0  0  0  0  0  0
    0.2745    7.7745    0.0000 C   0  0  0  0  0  0  0  0  0  0  0  0
   -1.0245    7.0245    0.0000 C   0  0  0  0  0  0  0  0  0  0  0  0
   -2.3236    7.7745    0.0000 C   0  0  0  0  0  0  0  0  0  0  0  0
   -3.6226    7.0245    0.0000 C   0  0  0  0  0  0  0  0  0  0  0  0
   -4.9216    7.7745    0.0000 C   0  0  0  0  0  0  0  0  0  0  0  0
   -6.2207    7.0245    0.0000 C   0  0  0  0  0  0  0  0  0  0  0  0
   -7.5197    7.7745    0.0000 C   0  0  0  0  0  0  0  0  0  0  0  0
   -8.8187    7.0245    0.0000 C   0  0  0  0  0  0  0  0  0  0  0  0
  -10.1178    7.7745    0.0000 Si  0  0  0  0  0  4  0  0  0  0  0  0
  5  1  1  0
  6  5  1  0
  7  6  1  0
  8  7  1  0
  9  8  1  0
 10  9  1  0
 11 10  1  0
 11 12  2  0
 13 12  1  0
 14 13  1  0
 15  2  1  0
 15  3  1  0
 15  4  1  0
 15 14  1  0
M  END
>  <NAME>  (4620) 
TRIMETHYL(3-UNDECENYL)SILANE

>  <SYNONYMS>  (4620) 


>  <SPECTRUM TYPE>  (4620) 
MS1

>  <INSTRUMENT TYPE>  (4620) 
EI-B

>  <INSTRUMENT>  (4620) 
JEOL JMS-D-3000

>  <ION MODE>  (4620) 
P

>  <INCHIKEY>  (4620) 
NZAXKKKKVBISRC-VAWYXSNFSA-N

>  <FORMULA>  (4620) 
C14H30Si

>  <EXACT MASS>  (4620) 
226.21167749

>  <MW>  (4620) 
226

>  <ID>  (4620) 
JP005004

>  <CONTRIBUTOR>  (4620) 
University of Tokyo Team, {Faculty of Engineering, University of Tokyo

>  <COMMENT>  (4620) 
SMILES=CCCCCCCC=CCC[Si](C)(C)C
InChI=InChI=1S/C14H30Si/c1-5-6-7-8-9-10-11-12-13-14-15(2,3)4/h11-12H,5-10,13-14H2,1-4H3/b12-11+
computed SMILES=C(=CCC[Si](C)(C)C)CCCCCCC
accession=JP005004
date=2016.01.19 (Created 2008.10.21, modified 2011.05.06)
author=MASS SPECTROSCOPY SOC. OF JAPAN (MSSJ)
license=CC BY-NC-SA
exact mass=226.21168
ionization energy=70 eV
ion type=[M]+*
computed spectral entropy=1.402307354267479
computed normalized entropy=0.54671931443329
SPLASH=splash10-00di-9000000000-3b590ff6d388ab94de04
submitter=submitter = University of Tokyo Team (Faculty of Engineering, University of Tokyo)
MoNA Rating=3.75

>  <NUM PEAKS>  (4620) 
13

>  <MASS SPECTRAL PEAKS>  (4620) 
41 3.18
43 2.33
45 3.45
55 2.22
59 8.57
73 99.99
74 8.66
75 3.77
99 6.53
113 1.86
127 2.97
211 2.31
226 3.09

$$$$

     RDKit          2D

 15 14  0  0  0  0  0  0  0  0999 V2000
    4.1716    7.0245    0.0000 C   0  0  0  0  0  0  0  0  0  0  0  0
   -9.3678    9.0736    0.0000 C   0  0  0  0  0  0  0  0  0  0  0  0
  -11.4168    8.5245    0.0000 C   0  0  0  0  0  0  0  0  0  0  0  0
  -10.8678    6.4755    0.0000 C   0  0  0  0  0  0  0  0  0  0  0  0
    2.8726    7.7745    0.0000 C   0  0  0  0  0  0  0  0  0  0  0  0
    1.5736    7.0245    0.0000 C   0  0  0  0  0  0  0  0  0  0  0  0
    0.2745    7.7745    0.0000 C   0  0  0  0  0  0  0  0  0  0  0  0
   -1.0245    7.0245    0.0000 C   0  0  0  0  0  0  0  0  0  0  0  0
   -2.3236    7.7745    0.0000 C   0  0  0  0  0  0  0  0  0  0  0  0
   -3.6226    7.0245    0.0000 C   0  0  0  0  0  0  0  0  0  0  0  0
   -4.9216    7.7745    0.0000 C   0  0  0  0  0  0  0  0  0  0  0  0
   -6.2207    7.0245    0.0000 C   0  0  0  0  0  0  0  0  0  0  0  0
   -7.5197    7.7745    0.0000 C   0  0  0  0  0  0  0  0  0  0  0  0
   -8.8187    7.0245    0.0000 C   0  0  0  0  0  0  0  0  0  0  0  0
  -10.1178    7.7745    0.0000 Si  0  0  0  0  0  4  0  0  0  0  0  0
  5  1  1  0
  6  5  1  0
  7  6  1  0
  8  7  1  0
  9  8  1  0
 10  9  1  0
 11 10  1  0
 11 12  2  0
 13 12  1  0
 14 13  1  0
 15  2  1  0
 15  3  1  0
 15  4  1  0
 15 14  1  0
M  END
>  <NAME>  (4621) 
TRIMETHYL(3-UNDECENYL)SILANE

>  <SYNONYMS>  (4621) 


>  <SPECTRUM TYPE>  (4621) 
MS1

>  <INSTRUMENT TYPE>  (4621) 
EI-B

>  <INSTRUMENT>  (4621) 
JEOL JMS-D-3000

>  <ION MODE>  (4621) 
P

>  <INCHIKEY>  (4621) 
NZAXKKKKVBISRC-VAWYXSNFSA-N

>  <FORMULA>  (4621) 
C14H30Si

>  <EXACT MASS>  (4621) 
226.21167749

>  <MW>  (4621) 
226

>  <ID>  (4621) 
JP005003

>  <CONTRIBUTOR>  (4621) 
University of Tokyo Team, {Faculty of Engineering, University of Tokyo

>  <COMMENT>  (4621) 
SMILES=CCCCCCCC=CCC[Si](C)(C)C
InChI=InChI=1S/C14H30Si/c1-5-6-7-8-9-10-11-12-13-14-15(2,3)4/h11-12H,5-10,13-14H2,1-4H3/b12-11+
computed SMILES=C(=CCC[Si](C)(C)C)CCCCCCC
accession=JP005003
date=2016.01.19 (Created 2008.10.21, modified 2011.05.06)
author=MASS SPECTROSCOPY SOC. OF JAPAN (MSSJ)
license=CC BY-NC-SA
exact mass=226.21168
ionization energy=70 eV
ion type=[M]+*
computed spectral entropy=1.402307354267479
computed normalized entropy=0.54671931443329
SPLASH=splash10-00di-9000000000-3b590ff6d388ab94de04
submitter=submitter = University of Tokyo Team (Faculty of Engineering, University of Tokyo)
MoNA Rating=3.75

>  <NUM PEAKS>  (4621) 
13

>  <MASS SPECTRAL PEAKS>  (4621) 
41 3.18
43 2.33
45 3.45
55 2.22
59 8.57
73 99.99
74 8.66
75 3.77
99 6.53
113 1.86
127 2.97
211 2.31
226 3.09

$$$$

     RDKit          2D

 18 17  0  0  0  0  0  0  0  0999 V2000
    3.3550    6.9390    0.0000 C   0  0  0  0  0  0  0  0  0  0  0  0
  -10.9344    7.6890    0.0000 C   0  0  0  0  0  0  0  0  0  0  0  0
  -10.4429    4.9013    0.0000 C   0  0  0  0  0  0  0  0  0  0  0  0
   -8.0634    4.1199    0.0000 C   0  0  0  0  0  0  0  0  0  0  0  0
    2.0560    7.6890    0.0000 C   0  0  0  0  0  0  0  0  0  0  0  0
   -9.6354    6.9390    0.0000 C   0  0  0  0  0  0  0  0  0  0  0  0
   -9.4787    6.0504    0.0000 C   0  0  0  0  0  0  0  0  0  0  0  0
   -6.5861    4.3803    0.0000 C   0  0  0  0  0  0  0  0  0  0  0  0
    0.7569    6.9390    0.0000 C   0  0  0  0  0  0  0  0  0  0  0  0
   -0.5421    7.6890    0.0000 C   0  0  0  0  0  0  0  0  0  0  0  0
   -1.8411    6.9390    0.0000 C   0  0  0  0  0  0  0  0  0  0  0  0
   -3.1402    7.6890    0.0000 C   0  0  0  0  0  0  0  0  0  0  0  0
   -4.4392    6.9390    0.0000 C   0  0  0  0  0  0  0  0  0  0  0  0
   -5.7383    7.6890    0.0000 C   0  0  0  0  0  0  0  0  0  0  0  0
   -8.3363    7.6890    0.0000 O   0  0  0  0  0  0  0  0  0  0  0  0
   -8.0015    5.7899    0.0000 O   0  0  0  0  0  0  0  0  0  0  0  0
   -6.0731    5.7899    0.0000 O   0  0  0  0  0  0  0  0  0  0  0  0
   -7.0373    6.9390    0.0000 Si  0  0  0  0  0  4  0  0  0  0  0  0
  5  1  1  0
  6  2  1  0
  7  3  1  0
  8  4  1  0
  9  5  1  0
 10  9  1  0
 11 10  1  0
 12 11  1  0
 13 12  1  0
 13 14  2  0
 15  6  1  0
 16  7  1  0
 17  8  1  0
 18 14  1  0
 18 15  1  0
 18 16  1  0
 18 17  1  0
M  END
>  <NAME>  (4622) 
TRIETHOXY(1-OCTENYL)SILANE

>  <SYNONYMS>  (4622) 


>  <SPECTRUM TYPE>  (4622) 
MS1

>  <INSTRUMENT TYPE>  (4622) 
EI-B

>  <INSTRUMENT>  (4622) 
JEOL JMS-D-3000

>  <ION MODE>  (4622) 
P

>  <INCHIKEY>  (4622) 
SDIRFAFFHXXYEL-BUHFOSPRSA-N

>  <FORMULA>  (4622) 
C14H30O3Si

>  <EXACT MASS>  (4622) 
274.19642135

>  <MW>  (4622) 
274

>  <ID>  (4622) 
JP005002

>  <CONTRIBUTOR>  (4622) 
University of Tokyo Team, {Faculty of Engineering, University of Tokyo

>  <COMMENT>  (4622) 
SMILES=CCCCCCC=C[Si](OCC)(OCC)OCC
cas=106865-23-0
InChI=InChI=1S/C14H30O3Si/c1-5-9-10-11-12-13-14-18(15-6-2,16-7-3)17-8-4/h13-14H,5-12H2,1-4H3/b14-13+
computed SMILES=O(CC)[Si](OCC)(OCC)C=CCCCCCC
accession=JP005002
date=2016.01.19 (Created 2008.10.21, modified 2011.05.06)
author=MASS SPECTROSCOPY SOC. OF JAPAN (MSSJ)
license=CC BY-NC-SA
exact mass=274.19642
ionization energy=70 eV
ion type=[M]+*
computed spectral entropy=2.893069518893458
computed normalized entropy=0.7556386768284001
SPLASH=splash10-03di-1900000000-8ec0bf6ef09e3ca770c4
submitter=submitter = University of Tokyo Team (Faculty of Engineering, University of Tokyo)
MoNA Rating=3.75

>  <NUM PEAKS>  (4622) 
46

>  <MASS SPECTRAL PEAKS>  (4622) 
55 1.85
62 1.58
63 9.55
67 1.79
73 5.5
76 1.58
77 2
79 10.17
81 1.5
89 2.29
91 8.88
99 2.2
103 2.83
107 6.12
108 2.11
117 2.08
118 2.79
119 31.76
120 3.47
121 2
127 4.44
132 1.44
133 1.99
135 9.93
141 2.65
143 1.92
145 3.11
146 1.86
147 5.97
149 1.5
157 1.59
158 1.91
159 3.32
163 99.99
164 11.77
165 5.04
171 3.8
187 2.04
189 10.08
190 1.62
204 1.47
215 1.51
228 5.94
229 5.72
259 1.48
274 1.62

$$$$

     RDKit          2D

 19 20  0  0  0  0  0  0  0  0999 V2000
   -4.1510   -4.7758    0.0000 C   0  0  0  0  0  0  0  0  0  0  0  0
   -5.4230   -3.9809    0.0000 C   0  0  0  0  0  0  0  0  0  0  0  0
   -5.3707   -2.4818    0.0000 C   0  0  0  0  0  0  0  0  0  0  0  0
   -6.6428   -1.6870    0.0000 C   0  0  0  0  0  0  0  0  0  0  0  0
   -6.5905   -0.1879    0.0000 C   0  0  0  0  0  0  0  0  0  0  0  0
   -7.8626    0.6070    0.0000 C   0  0  0  0  0  0  0  0  0  0  0  0
   -7.8102    2.1061    0.0000 C   0  0  0  0  0  0  0  0  0  0  0  0
   -7.6000    6.3600    0.0000 C   0  0  0  0  0  0  0  0  0  0  0  0
  -10.3330    6.2026    0.0000 C   0  0  0  0  0  0  0  0  0  0  0  0
  -10.4600    6.3600    0.0000 C   0  0  0  0  0  0  0  0  0  0  0  0
   -6.7200    5.1500    0.0000 C   0  0  0  0  0  0  0  0  0  0  0  0
  -10.6397    5.1500    0.0000 C   0  0  0  0  0  0  0  0  0  0  0  0
  -11.3400    5.1500    0.0000 C   0  0  0  0  0  0  0  0  0  0  0  0
   -9.0823    2.9009    0.0000 C   0  0  0  0  0  0  0  0  0  0  0  0
   -9.0300    5.9000    0.0000 N   0  0  0  0  0  0  0  0  0  0  0  0
   -7.6000    3.9300    0.0000 O   0  0  0  0  0  0  0  0  0  0  0  0
  -10.3330    4.0974    0.0000 O   0  0  0  0  0  0  0  0  0  0  0  0
  -10.4600    3.9300    0.0000 O   0  0  0  0  0  0  0  0  0  0  0  0
   -9.0300    4.4000    0.0000 Si  0  0  0  0  0  4  0  0  0  0  0  0
  2  1  1  0
  3  2  1  0
  4  3  1  0
  5  4  1  0
  6  5  1  0
  7  6  1  0
 11  8  1  0
 12  9  1  0
 13 10  1  0
 14  7  1  0
 15  8  1  0
 15  9  1  0
 15 10  1  0
 16 11  1  0
 17 12  1  0
 18 13  1  0
 19 14  1  0
 19 16  1  0
 19 17  1  0
 19 18  1  0
M  END
>  <NAME>  (4623) 
1-OCTYLSILATRANE

>  <SYNONYMS>  (4623) 


>  <SPECTRUM TYPE>  (4623) 
MS1

>  <INSTRUMENT TYPE>  (4623) 
EI-B

>  <INSTRUMENT>  (4623) 
JEOL JMS-D-3000

>  <ION MODE>  (4623) 
P

>  <INCHIKEY>  (4623) 
RPEZIKXYNXVEST-UHFFFAOYSA-N

>  <FORMULA>  (4623) 
C14H29NO3Si

>  <EXACT MASS>  (4623) 
287.191670318

>  <MW>  (4623) 
287

>  <ID>  (4623) 
JP005001

>  <CONTRIBUTOR>  (4623) 
University of Tokyo Team, {Faculty of Engineering, University of Tokyo

>  <COMMENT>  (4623) 
SMILES=CCCCCCCC[Si](O2)(O1)OCCN(CC2)CC1
InChI=InChI=1S/C14H29NO3Si/c1-2-3-4-5-6-7-14-19-16-11-8-15(9-12-17-19)10-13-18-19/h2-14H2,1H3
computed SMILES=O1CCN2CCO[Si]1(OCC2)CCCCCCCC
accession=JP005001
date=2016.01.19 (Created 2008.10.21, modified 2011.05.06)
author=MASS SPECTROSCOPY SOC. OF JAPAN (MSSJ)
license=CC BY-NC-SA
exact mass=287.19167
ionization energy=70 eV
ion type=[M]+*
computed spectral entropy=0.8313682186213537
computed normalized entropy=0.39980360205257287
SPLASH=splash10-00di-0900000000-69523157de906a68bd7e
submitter=submitter = University of Tokyo Team (Faculty of Engineering, University of Tokyo)
MoNA Rating=3.75

>  <NUM PEAKS>  (4623) 
8

>  <MASS SPECTRAL PEAKS>  (4623) 
102 1.44
130 2.49
132 1.35
149 1.62
174 99.99
175 12.52
176 4.76
287 1.83

$$$$

     RDKit          2D

 19 21  0  0  0  0  0  0  0  0999 V2000
   -7.9672   -2.3912    0.0000 C   0  0  0  0  0  0  0  0  0  0  0  0
   -6.6418   -1.6870    0.0000 C   0  0  0  0  0  0  0  0  0  0  0  0
   -9.2403   -1.5963    0.0000 C   0  0  0  0  0  0  0  0  0  0  0  0
   -6.5895   -0.1879    0.0000 C   0  0  0  0  0  0  0  0  0  0  0  0
   -9.1879   -0.0972    0.0000 C   0  0  0  0  0  0  0  0  0  0  0  0
   -7.8102    2.1061    0.0000 C   0  0  0  0  0  0  0  0  0  0  0  0
   -7.6000    6.3600    0.0000 C   0  0  0  0  0  0  0  0  0  0  0  0
  -10.3330    6.2026    0.0000 C   0  0  0  0  0  0  0  0  0  0  0  0
  -10.4600    6.3600    0.0000 C   0  0  0  0  0  0  0  0  0  0  0  0
   -6.7200    5.1500    0.0000 C   0  0  0  0  0  0  0  0  0  0  0  0
  -10.6397    5.1500    0.0000 C   0  0  0  0  0  0  0  0  0  0  0  0
  -11.3400    5.1500    0.0000 C   0  0  0  0  0  0  0  0  0  0  0  0
   -9.0823    2.9009    0.0000 C   0  0  0  0  0  0  0  0  0  0  0  0
   -7.8626    0.6070    0.0000 C   0  0  0  0  0  0  0  0  0  0  0  0
   -9.0300    5.9000    0.0000 N   0  0  0  0  0  0  0  0  0  0  0  0
   -7.6000    3.9300    0.0000 O   0  0  0  0  0  0  0  0  0  0  0  0
  -10.3330    4.0974    0.0000 O   0  0  0  0  0  0  0  0  0  0  0  0
  -10.4600    3.9300    0.0000 O   0  0  0  0  0  0  0  0  0  0  0  0
   -9.0300    4.4000    0.0000 Si  0  0  0  0  0  4  0  0  0  0  0  0
  2  1  2  0
  3  1  1  0
  4  2  1  0
  5  3  1  0
 10  7  1  0
 11  8  1  0
 12  9  1  0
 13  6  1  0
 14  4  1  0
 14  5  1  0
 14  6  1  0
 15  7  1  0
 15  8  1  0
 15  9  1  0
 16 10  1  0
 17 11  1  0
 18 12  1  0
 19 13  1  0
 19 16  1  0
 19 17  1  0
 19 18  1  0
M  END
>  <NAME>  (4624) 
1-(2-(3-CYCLOHEXENYL)ETHYL)SILATRANE

>  <SYNONYMS>  (4624) 


>  <SPECTRUM TYPE>  (4624) 
MS1

>  <INSTRUMENT TYPE>  (4624) 
EI-B

>  <INSTRUMENT>  (4624) 
JEOL JMS-D-3000

>  <ION MODE>  (4624) 
P

>  <INCHIKEY>  (4624) 
CTIDMPCTUFVTFC-UHFFFAOYSA-N

>  <FORMULA>  (4624) 
C14H25NO3Si

>  <EXACT MASS>  (4624) 
283.16037019

>  <MW>  (4624) 
283

>  <ID>  (4624) 
JP005000

>  <CONTRIBUTOR>  (4624) 
University of Tokyo Team, {Faculty of Engineering, University of Tokyo

>  <COMMENT>  (4624) 
SMILES=[H]C(C3)=C([H])CC(C3)CC[Si](O2)(O1)OCCN(CC2)CC1
InChI=InChI=1S/C14H25NO3Si/c1-2-4-14(5-3-1)6-13-19-16-10-7-15(8-11-17-19)9-12-18-19/h1-2,14H,3-13H2
computed SMILES=O1CCN2CCO[Si]1(OCC2)CCC3CC=CCC3
accession=JP005000
date=2016.01.19 (Created 2008.10.21, modified 2011.05.06)
author=MASS SPECTROSCOPY SOC. OF JAPAN (MSSJ)
license=CC BY-NC-SA
exact mass=283.16037
ionization energy=70 eV
ion type=[M]+*
computed spectral entropy=0.944222663231516
computed normalized entropy=0.37998315281263073
SPLASH=splash10-00di-0900000000-14d7daee907d959d59f3
submitter=submitter = University of Tokyo Team (Faculty of Engineering, University of Tokyo)
MoNA Rating=3.75

>  <NUM PEAKS>  (4624) 
12

>  <MASS SPECTRAL PEAKS>  (4624) 
56 1.13
63 1.01
88 1
89 1.15
105 1.02
106 1.26
130 2.77
172 1.23
174 99.99
175 12.67
176 5.21
283 0.45

$$$$

     RDKit          2D

 16 16  0  0  0  0  0  0  0  0999 V2000
    2.2265    2.5893    0.0000 C   0  0  0  0  0  0  0  0  0  0  0  0
   -1.1213    0.8878    0.0000 C   0  0  0  0  0  0  0  0  0  0  0  0
   -1.6700   -1.1613    0.0000 C   0  0  0  0  0  0  0  0  0  0  0  0
    0.3791   -1.7100    0.0000 C   0  0  0  0  0  0  0  0  0  0  0  0
    3.5257    1.8395    0.0000 C   0  0  0  0  0  0  0  0  0  0  0  0
    8.7240    1.8400    0.0000 C   0  0  0  0  0  0  0  0  0  0  0  0
    7.4240    2.5900    0.0000 C   0  0  0  0  0  0  0  0  0  0  0  0
    8.7240    0.3400    0.0000 C   0  0  0  0  0  0  0  0  0  0  0  0
    6.1240    1.8400    0.0000 C   0  0  0  0  0  0  0  0  0  0  0  0
    7.4240   -0.4100    0.0000 C   0  0  0  0  0  0  0  0  0  0  0  0
    2.2270   -0.4107    0.0000 C   0  0  0  0  0  0  0  0  0  0  0  0
    0.9278    0.3391    0.0000 C   0  0  0  0  0  0  0  0  0  0  0  0
    3.5259    0.3395    0.0000 C   0  0  0  0  0  0  0  0  0  0  0  0
    6.1240    0.3400    0.0000 C   0  0  0  0  0  0  0  0  0  0  0  0
    4.8251   -0.4102    0.0000 S   0  0  0  0  0  0  0  0  0  0  0  0
   -0.3711   -0.4111    0.0000 Si  0  0  0  0  0  4  0  0  0  0  0  0
  5  1  1  0
  7  6  2  0
  8  6  1  0
  9  7  1  0
 10  8  2  0
 12 11  1  0
 13  5  1  0
 13 11  1  0
 14  9  2  0
 14 10  1  0
 15 13  1  0
 15 14  1  0
 16  2  1  0
 16  3  1  0
 16  4  1  0
 16 12  1  0
M  END
>  <NAME>  (4625) 
TRIMETHYL(3-PHENYLTHIOPENTYL)SILANE

>  <SYNONYMS>  (4625) 


>  <SPECTRUM TYPE>  (4625) 
MS1

>  <INSTRUMENT TYPE>  (4625) 
EI-B

>  <INSTRUMENT>  (4625) 
JEOL JMS-D-3000

>  <ION MODE>  (4625) 
P

>  <INCHIKEY>  (4625) 
SWCGWXTVPFCQKY-UHFFFAOYSA-N

>  <FORMULA>  (4625) 
C14H24SSi

>  <EXACT MASS>  (4625) 
252.13679829799997

>  <MW>  (4625) 
252

>  <ID>  (4625) 
JP004999

>  <CONTRIBUTOR>  (4625) 
University of Tokyo Team, {Faculty of Engineering, University of Tokyo

>  <COMMENT>  (4625) 
SMILES=CCC(CC[Si](C)(C)C)Sc(c1)cccc1
InChI=InChI=1S/C14H24SSi/c1-5-13(11-12-16(2,3)4)15-14-9-7-6-8-10-14/h6-10,13H,5,11-12H2,1-4H3
computed SMILES=S(C=1C=CC=CC1)C(CC)CC[Si](C)(C)C
accession=JP004999
date=2016.01.19 (Created 2008.10.21, modified 2011.05.06)
author=MASS SPECTROSCOPY SOC. OF JAPAN (MSSJ)
license=CC BY-NC-SA
exact mass=252.1368
ionization energy=70 eV
ion type=[M]+*
computed spectral entropy=2.07871109917662
computed normalized entropy=0.682770825867521
SPLASH=splash10-00di-9200000000-8f0c1e60e032e5f4e71d
submitter=submitter = University of Tokyo Team (Faculty of Engineering, University of Tokyo)
MoNA Rating=3.75

>  <NUM PEAKS>  (4625) 
21

>  <MASS SPECTRAL PEAKS>  (4625) 
42 3.3
43 3.3
45 6.47
51 3.16
55 2.61
59 5.64
69 1.65
73 99.99
74 8.4
75 5.5
77 2.47
99 2.2
109 3.44
110 5.78
119 2.89
151 5.78
167 12.39
169 2.61
182 3.3
237 7.57
252 5.37

$$$$

     RDKit          2D

 18 17  0  0  0  0  0  0  0  0999 V2000
    3.3550    6.9390    0.0000 C   0  0  0  0  0  0  0  0  0  0  0  0
  -10.9344    7.6890    0.0000 C   0  0  0  0  0  0  0  0  0  0  0  0
  -10.4429    4.9013    0.0000 C   0  0  0  0  0  0  0  0  0  0  0  0
   -8.0634    4.1199    0.0000 C   0  0  0  0  0  0  0  0  0  0  0  0
    2.0560    7.6890    0.0000 C   0  0  0  0  0  0  0  0  0  0  0  0
   -9.6354    6.9390    0.0000 C   0  0  0  0  0  0  0  0  0  0  0  0
   -9.4787    6.0504    0.0000 C   0  0  0  0  0  0  0  0  0  0  0  0
   -6.5861    4.3803    0.0000 C   0  0  0  0  0  0  0  0  0  0  0  0
    0.7569    6.9390    0.0000 C   0  0  0  0  0  0  0  0  0  0  0  0
   -0.5421    7.6890    0.0000 C   0  0  0  0  0  0  0  0  0  0  0  0
   -1.8411    6.9390    0.0000 C   0  0  0  0  0  0  0  0  0  0  0  0
   -3.1402    7.6890    0.0000 C   0  0  0  0  0  0  0  0  0  0  0  0
   -4.4392    6.9390    0.0000 C   0  0  0  0  0  0  0  0  0  0  0  0
   -5.7383    7.6890    0.0000 C   0  0  0  0  0  0  0  0  0  0  0  0
   -8.3363    7.6890    0.0000 O   0  0  0  0  0  0  0  0  0  0  0  0
   -8.0015    5.7899    0.0000 O   0  0  0  0  0  0  0  0  0  0  0  0
   -6.0731    5.7899    0.0000 O   0  0  0  0  0  0  0  0  0  0  0  0
   -7.0373    6.9390    0.0000 Si  0  0  0  0  0  4  0  0  0  0  0  0
  5  1  1  0
  6  2  1  0
  7  3  1  0
  8  4  1  0
  9  5  1  0
 10  9  1  0
 11 10  1  0
 12 11  1  0
 13 12  1  0
 14 13  1  0
 15  6  1  0
 16  7  1  0
 17  8  1  0
 18 14  1  0
 18 15  1  0
 18 16  1  0
 18 17  1  0
M  END
>  <NAME>  (4626) 
TRIETHOXYOCTYLSILANE

>  <SYNONYMS>  (4626) 


>  <SPECTRUM TYPE>  (4626) 
MS1

>  <INSTRUMENT TYPE>  (4626) 
EI-B

>  <INSTRUMENT>  (4626) 
JEOL JMS-D-3000

>  <ION MODE>  (4626) 
P

>  <INCHIKEY>  (4626) 
MSRJTTSHWYDFIU-UHFFFAOYSA-N

>  <FORMULA>  (4626) 
C14H32O3Si

>  <EXACT MASS>  (4626) 
276.212071414

>  <MW>  (4626) 
276

>  <ID>  (4626) 
JP004998

>  <CONTRIBUTOR>  (4626) 
University of Tokyo Team, {Faculty of Engineering, University of Tokyo

>  <COMMENT>  (4626) 
SMILES=CCCCCCCC[Si](OCC)(OCC)OCC
cas=2943-75-1
InChI=InChI=1S/C14H32O3Si/c1-5-9-10-11-12-13-14-18(15-6-2,16-7-3)17-8-4/h5-14H2,1-4H3
computed SMILES=O(CC)[Si](OCC)(OCC)CCCCCCCC
accession=JP004998
date=2016.01.19 (Created 2008.10.21, modified 2011.05.06)
author=MASS SPECTROSCOPY SOC. OF JAPAN (MSSJ)
license=CC BY-NC-SA
exact mass=276.21207
ionization energy=70 eV
ion type=[M]+*
computed spectral entropy=1.538176610395059
computed normalized entropy=0.5828507752119602
SPLASH=splash10-03di-0900000000-221a37e3aa875b4a302e
submitter=submitter = University of Tokyo Team (Faculty of Engineering, University of Tokyo)
MoNA Rating=3.75

>  <NUM PEAKS>  (4626) 
14

>  <MASS SPECTRAL PEAKS>  (4626) 
63 3.95
73 1.3
79 4.17
91 3.56
107 2.92
119 15.82
120 1.52
135 4.33
149 3.9
163 99.99
164 12.6
165 4.85
231 1.81
276 1.85

$$$$

     RDKit          2D

 14 13  0  0  0  0  0  0  0  0999 V2000
  -11.2796    6.0368    0.0000 C   0  0  0  0  0  0  0  0  0  0  0  0
    2.4608    4.7377    0.0000 C   0  0  0  0  0  0  0  0  0  0  0  0
    3.0099    6.7868    0.0000 C   0  0  0  0  0  0  0  0  0  0  0  0
    0.9608    7.3358    0.0000 C   0  0  0  0  0  0  0  0  0  0  0  0
   -9.9805    5.2868    0.0000 C   0  0  0  0  0  0  0  0  0  0  0  0
   -8.6815    6.0368    0.0000 C   0  0  0  0  0  0  0  0  0  0  0  0
   -7.3825    5.2868    0.0000 C   0  0  0  0  0  0  0  0  0  0  0  0
   -6.0834    6.0368    0.0000 C   0  0  0  0  0  0  0  0  0  0  0  0
   -4.7844    5.2868    0.0000 C   0  0  0  0  0  0  0  0  0  0  0  0
   -3.4853    6.0368    0.0000 C   0  0  0  0  0  0  0  0  0  0  0  0
   -2.1863    5.2868    0.0000 C   0  0  0  0  0  0  0  0  0  0  0  0
   -0.8873    6.0368    0.0000 C   0  0  0  0  0  0  0  0  0  0  0  0
    0.4118    5.2868    0.0000 C   0  0  0  0  0  0  0  0  0  0  0  0
    1.7108    6.0368    0.0000 Si  0  0  0  0  0  4  0  0  0  0  0  0
  5  1  1  0
  6  5  1  0
  7  6  1  0
  8  7  1  0
  9  8  1  0
 10  9  1  0
 10 11  2  0
 12 11  1  0
 13 12  1  0
 14  2  1  0
 14  3  1  0
 14  4  1  0
 14 13  1  0
M  END
>  <NAME>  (4627) 
3-DECENYLTRIMETHYLSILANE

>  <SYNONYMS>  (4627) 


>  <SPECTRUM TYPE>  (4627) 
MS1

>  <INSTRUMENT TYPE>  (4627) 
EI-B

>  <INSTRUMENT>  (4627) 
JEOL JMS-D-3000

>  <ION MODE>  (4627) 
P

>  <INCHIKEY>  (4627) 
CXYBIESMEVGOIP-ZHACJKMWSA-N

>  <FORMULA>  (4627) 
C13H28Si

>  <EXACT MASS>  (4627) 
212.196027426

>  <MW>  (4627) 
212

>  <ID>  (4627) 
JP004997

>  <CONTRIBUTOR>  (4627) 
University of Tokyo Team, {Faculty of Engineering, University of Tokyo

>  <COMMENT>  (4627) 
SMILES=CCCCCCC=CCC[Si](C)(C)C
InChI=InChI=1S/C13H28Si/c1-5-6-7-8-9-10-11-12-13-14(2,3)4/h10-11H,5-9,12-13H2,1-4H3/b11-10+
computed SMILES=C(=CCC[Si](C)(C)C)CCCCCC
accession=JP004997
date=2016.01.19 (Created 2008.10.21, modified 2011.05.06)
author=MASS SPECTROSCOPY SOC. OF JAPAN (MSSJ)
license=CC BY-NC-SA
exact mass=212.19603
ionization energy=70 eV
ion type=[M]+*
computed spectral entropy=1.876577932134126
computed normalized entropy=0.5984951024947225
SPLASH=splash10-00di-9100000000-a8a9fdf8d289ad61ff14
submitter=submitter = University of Tokyo Team (Faculty of Engineering, University of Tokyo)
MoNA Rating=3.75

>  <NUM PEAKS>  (4627) 
23

>  <MASS SPECTRAL PEAKS>  (4627) 
42 2.16
45 3.25
59 10.04
72 1.66
73 99.99
74 8.17
75 4.44
80 1.18
85 1.26
99 6.24
113 2.45
114 1.03
127 2.47
129 1.6
138 1.81
159 9.67
160 1.32
169 1.87
174 2.16
177 2.73
197 3.04
212 3.72
213 1.03

$$$$

     RDKit          2D

  8  8  0  0  0  0  0  0  0  0999 V2000
    2.5961    1.5170    0.0000 C   0  0  0  0  0  0  0  0  0  0  0  0
    0.0113    1.4940    0.0000 C   0  0  0  0  0  0  0  0  0  0  0  0
    1.3063   -0.7490    0.0000 C   0  0  0  0  0  0  0  0  0  0  0  0
   -1.2877    0.7440    0.0000 C   0  0  0  0  0  0  0  0  0  0  0  0
    0.0073   -1.4990    0.0000 C   0  0  0  0  0  0  0  0  0  0  0  0
    1.3009    0.7605    0.0000 C   0  0  0  0  0  0  0  0  0  0  0  0
   -1.3059   -0.7445    0.0000 C   0  0  0  0  0  0  0  0  0  0  0  0
   -2.6087   -1.4879    0.0000 Cl  0  0  0  0  0  0  0  0  0  0  0  0
  4  2  2  0
  5  3  1  0
  6  1  1  0
  6  2  1  0
  6  3  2  0
  7  4  1  0
  7  5  2  0
  8  7  1  0
M  END
>  <NAME>  (4628) 
P-CHLOROTOLUENE

>  <SYNONYMS>  (4628) 
1-CHLORO-4-METHYLBENZENE

>  <SPECTRUM TYPE>  (4628) 
MS1

>  <INSTRUMENT TYPE>  (4628) 
EI-B

>  <INSTRUMENT>  (4628) 
JEOL JMS-D-3000

>  <ION MODE>  (4628) 
P

>  <INCHIKEY>  (4628) 
NPDACUSDTOMAMK-UHFFFAOYSA-N

>  <FORMULA>  (4628) 
C7H7Cl

>  <EXACT MASS>  (4628) 
126.023627904

>  <MW>  (4628) 
126

>  <ID>  (4628) 
JP004996

>  <CONTRIBUTOR>  (4628) 
University of Tokyo Team, {Faculty of Engineering, University of Tokyo

>  <COMMENT>  (4628) 
SMILES=Cc(c1)ccc(Cl)c1
cas=106-43-4
InChI=InChI=1S/C7H7Cl/c1-6-2-4-7(8)5-3-6/h2-5H,1H3
computed SMILES=ClC1=CC=C(C=C1)C
accession=JP004996
date=2016.01.19 (Created 2008.10.21, modified 2011.05.06)
author=MASS SPECTROSCOPY SOC. OF JAPAN (MSSJ)
license=CC BY-NC-SA
exact mass=126.02363
ionization energy=70 eV
ion type=[M]+*
computed spectral entropy=2.1912883738062305
computed normalized entropy=0.6988653854546755
SPLASH=splash10-002f-9400000000-da4d4e7fa2dc673e749c
submitter=submitter = University of Tokyo Team (Faculty of Engineering, University of Tokyo)
MoNA Rating=3.75

>  <NUM PEAKS>  (4628) 
23

>  <MASS SPECTRAL PEAKS>  (4628) 
43 1.92
44 1.5
45 7.05
50 3.27
51 3.12
61 1.42
62 3.12
63 8.98
64 1.85
65 7.51
73 2.27
74 1.34
75 2.15
89 7.36
90 2.73
91 99.99
92 7.67
99 2.23
125 16.19
126 39.2
127 8.13
128 12.02
129 1

$$$$

     RDKit          2D

  8  8  0  0  0  0  0  0  0  0999 V2000
    2.5967    1.1340    0.0000 C   0  0  0  0  0  0  0  0  0  0  0  0
   -0.0000   -1.8800    0.0000 C   0  0  0  0  0  0  0  0  0  0  0  0
    1.3000   -1.1200    0.0000 C   0  0  0  0  0  0  0  0  0  0  0  0
   -1.3000   -1.1200    0.0000 C   0  0  0  0  0  0  0  0  0  0  0  0
   -0.0000    1.1200    0.0000 C   0  0  0  0  0  0  0  0  0  0  0  0
    1.3000    0.3800    0.0000 C   0  0  0  0  0  0  0  0  0  0  0  0
   -1.3000    0.3800    0.0000 C   0  0  0  0  0  0  0  0  0  0  0  0
   -2.5967    1.1340    0.0000 Cl  0  0  0  0  0  0  0  0  0  0  0  0
  3  2  2  0
  4  2  1  0
  6  1  1  0
  6  3  1  0
  6  5  2  0
  7  4  2  0
  7  5  1  0
  8  7  1  0
M  END
>  <NAME>  (4629) 
M-CHLOROTOLUENE

>  <SYNONYMS>  (4629) 


>  <SPECTRUM TYPE>  (4629) 
MS1

>  <INSTRUMENT TYPE>  (4629) 
EI-B

>  <INSTRUMENT>  (4629) 
JEOL JMS-D-3000

>  <ION MODE>  (4629) 
P

>  <INCHIKEY>  (4629) 
OSOUNOBYRMOXQQ-UHFFFAOYSA-N

>  <FORMULA>  (4629) 
C7H7Cl

>  <EXACT MASS>  (4629) 
126.023627904

>  <MW>  (4629) 
126

>  <ID>  (4629) 
JP004995

>  <CONTRIBUTOR>  (4629) 
University of Tokyo Team, {Faculty of Engineering, University of Tokyo

>  <COMMENT>  (4629) 
SMILES=Cc(c1)cc(Cl)cc1
cas=108-41-8
InChI=InChI=1S/C7H7Cl/c1-6-3-2-4-7(8)5-6/h2-5H,1H3
computed SMILES=ClC1=CC=CC(=C1)C
accession=JP004995
date=2016.01.19 (Created 2008.10.21, modified 2011.05.06)
author=MASS SPECTROSCOPY SOC. OF JAPAN (MSSJ)
license=CC BY-NC-SA
exact mass=126.02363
ionization energy=70 eV
ion type=[M]+*
computed spectral entropy=2.197084723952627
computed normalized entropy=0.7007140095461981
SPLASH=splash10-002f-9400000000-c49525ddb410ce828d26
submitter=submitter = University of Tokyo Team (Faculty of Engineering, University of Tokyo)
MoNA Rating=3.75

>  <NUM PEAKS>  (4629) 
23

>  <MASS SPECTRAL PEAKS>  (4629) 
43 1.58
44 1.77
45 7.61
50 3.31
51 3.49
61 1.58
62 3.44
63 9.38
64 2.07
65 8.2
73 2.17
74 1.14
75 2.31
89 7.96
90 2.73
91 99.99
92 7.87
99 2.22
125 12.23
126 41.39
127 7.17
128 13.46
129 1.01

$$$$

     RDKit          2D

  8  8  0  0  0  0  0  0  0  0999 V2000
   -4.7860    0.7500    0.0000 C   0  0  0  0  0  0  0  0  0  0  0  0
    0.0000    1.5000    0.0000 C   0  0  0  0  0  0  0  0  0  0  0  0
    0.0000    0.0000    0.0000 C   0  0  0  0  0  0  0  0  0  0  0  0
   -1.1727    2.4352    0.0000 C   0  0  0  0  0  0  0  0  0  0  0  0
   -1.1727   -0.9352    0.0000 C   0  0  0  0  0  0  0  0  0  0  0  0
   -2.6351    2.1015    0.0000 C   0  0  0  0  0  0  0  0  0  0  0  0
   -2.6351   -0.6015    0.0000 C   0  0  0  0  0  0  0  0  0  0  0  0
   -3.2860    0.7500    0.0000 B   0  0  0  0  0  0  0  0  0  0  0  0
  3  2  2  0
  4  2  1  0
  5  3  1  0
  6  4  2  0
  7  5  2  0
  8  1  1  0
  8  6  1  0
  8  7  1  0
M  END
>  <NAME>  (4630) 
1-METHYL-1-BORACYCLOHEPTA-2,4,6-TRIENE

>  <SYNONYMS>  (4630) 


>  <SPECTRUM TYPE>  (4630) 
MS1

>  <INSTRUMENT TYPE>  (4630) 
EI-B

>  <INSTRUMENT>  (4630) 
JEOL JMS-D-3000

>  <ION MODE>  (4630) 
P

>  <INCHIKEY>  (4630) 
METKHXNXRUJTPV-UHFFFAOYSA-N

>  <FORMULA>  (4630) 
C7H9B

>  <EXACT MASS>  (4630) 
104.079730688

>  <MW>  (4630) 
104

>  <ID>  (4630) 
JP004994

>  <CONTRIBUTOR>  (4630) 
University of Tokyo Team, {Faculty of Engineering, University of Tokyo

>  <COMMENT>  (4630) 
SMILES=[H]C(=C([H])1)C([H])=C([H])[B](C)C([H])=C([H])1
InChI=InChI=1S/C7H9B/c1-8-6-4-2-3-5-7-8/h2-7H,1H3
computed SMILES=C1=CC=CB(C=C1)C
accession=JP004994
author=MASS SPECTROSCOPY SOC. OF JAPAN (MSSJ)
date=2016.01.19 (Created 2008.10.21, modified 2011.05.06)
license=CC BY-NC-SA
exact mass=104.07973
ionization energy=70 eV
ion type=[M]+*
computed spectral entropy=2.6925412202041263
computed normalized entropy=0.816952212646495
SPLASH=splash10-0udi-9700000000-5e4d8990377d0bd3f113
submitter=submitter = University of Tokyo Team (Faculty of Engineering, University of Tokyo)
MoNA Rating=3.75

>  <NUM PEAKS>  (4630) 
27

>  <MASS SPECTRAL PEAKS>  (4630) 
43 2.08
44 3.02
45 3.95
49 1.66
50 13.22
51 17.6
52 9.16
61 6.97
62 3.75
63 12.5
69 3.64
73 3.02
74 4.89
75 4.68
76 8.95
77 17.29
78 29.58
79 6.35
86 1.56
87 8.22
88 7.39
89 28.12
101 3.43
102 24.68
103 99.99
104 27.91
105 3.54

$$$$

     RDKit          2D

 13 13  0  0  0  0  0  0  0  0999 V2000
   -4.5466    1.4450    0.0000 C   0  0  0  0  0  0  0  0  0  0  0  0
   -1.9486    5.9450    0.0000 C   0  0  0  0  0  0  0  0  0  0  0  0
   -3.2476    2.1950    0.0000 C   0  0  0  0  0  0  0  0  0  0  0  0
   -1.9486    4.4450    0.0000 C   0  0  0  0  0  0  0  0  0  0  0  0
    3.2476   -0.0550    0.0000 C   0  0  0  0  0  0  0  0  0  0  0  0
    3.2481    1.4458    0.0000 C   0  0  0  0  0  0  0  0  0  0  0  0
    1.9481   -0.8058    0.0000 C   0  0  0  0  0  0  0  0  0  0  0  0
    1.9490    2.1958    0.0000 C   0  0  0  0  0  0  0  0  0  0  0  0
    0.6490   -0.0558    0.0000 C   0  0  0  0  0  0  0  0  0  0  0  0
    0.6495    1.4450    0.0000 C   0  0  0  0  0  0  0  0  0  0  0  0
   -0.6495    2.1950    0.0000 C   0  0  0  0  0  0  0  0  0  0  0  0
   -1.9486    1.4450    0.0000 O   0  0  0  0  0  0  0  0  0  0  0  0
   -0.6495    3.6950    0.0000 O   0  0  0  0  0  0  0  0  0  0  0  0
  3  1  1  0
  4  2  1  0
  6  5  2  0
  7  5  1  0
  8  6  1  0
  9  7  2  0
 10  8  2  0
 10  9  1  0
 11 10  1  0
 12  3  1  0
 12 11  1  0
 13  4  1  0
 13 11  1  0
M  END
>  <NAME>  (4631) 
BENZALDEHYDE DIETHYLACETAL

>  <SYNONYMS>  (4631) 


>  <SPECTRUM TYPE>  (4631) 
MS1

>  <INSTRUMENT TYPE>  (4631) 
EI-B

>  <INSTRUMENT>  (4631) 
JEOL JMS-D-3000

>  <ION MODE>  (4631) 
P

>  <INCHIKEY>  (4631) 
MAQMEXSLUSZDQM-UHFFFAOYSA-N

>  <FORMULA>  (4631) 
C11H16O2

>  <EXACT MASS>  (4631) 
180.115029752

>  <MW>  (4631) 
180

>  <ID>  (4631) 
JP004991

>  <CONTRIBUTOR>  (4631) 
University of Tokyo Team, {Faculty of Engineering, University of Tokyo

>  <COMMENT>  (4631) 
SMILES=CCOC(OCC)c(c1)cccc1
cas=774-48-1
InChI=InChI=1S/C11H16O2/c1-3-12-11(13-4-2)10-8-6-5-7-9-10/h5-9,11H,3-4H2,1-2H3
computed SMILES=O(CC)C(OCC)C=1C=CC=CC1
accession=JP004991
date=2016.01.19 (Created 2008.10.21, modified 2011.05.06)
author=MASS SPECTROSCOPY SOC. OF JAPAN (MSSJ)
license=CC BY-NC-SA
exact mass=180.11503
ionization energy=70 eV
ion type=[M]+*
computed spectral entropy=2.3233016992458304
computed normalized entropy=0.6034318523824714
SPLASH=splash10-052r-4900000000-d477bb54640bdf04db22
submitter=submitter = University of Tokyo Team (Faculty of Engineering, University of Tokyo)
MoNA Rating=3.75

>  <NUM PEAKS>  (4631) 
47

>  <MASS SPECTRAL PEAKS>  (4631) 
42 0.14
43 1.01
44 0.23
45 0.91
46 0.2
47 8.65
50 1.81
51 6.63
52 1.65
53 0.64
57 0.15
58 0.23
59 0.17
62 0.22
63 1.03
64 0.35
65 0.66
73 0.2
74 0.62
75 6.79
76 0.94
77 18.65
78 3.36
79 33.74
80 2.17
89 1.44
90 1.56
91 2.09
92 0.62
95 0.25
102 0.71
103 5.54
104 0.41
105 11.16
106 3.48
107 66.67
108 5.33
109 0.34
123 1.78
124 0.15
133 0.4
134 0.28
135 99.99
136 10.39
137 0.74
179 0.27
180 0.23

$$$$

     RDKit          2D

 13 13  0  0  0  0  0  0  0  0999 V2000
   -3.9180   -0.7714    0.0000 C   0  0  0  0  0  0  0  0  0  0  0  0
    5.2008    1.4808    0.0000 C   0  0  0  0  0  0  0  0  0  0  0  0
    3.9128    3.7372    0.0000 C   0  0  0  0  0  0  0  0  0  0  0  0
    1.3000   -0.7500    0.0000 C   0  0  0  0  0  0  0  0  0  0  0  0
    0.0300    1.5000    0.0000 C   0  0  0  0  0  0  0  0  0  0  0  0
    0.0300   -1.5000    0.0000 C   0  0  0  0  0  0  0  0  0  0  0  0
   -1.3200    0.7500    0.0000 C   0  0  0  0  0  0  0  0  0  0  0  0
    1.3000    0.7500    0.0000 C   0  0  0  0  0  0  0  0  0  0  0  0
   -1.3200   -0.7500    0.0000 C   0  0  0  0  0  0  0  0  0  0  0  0
    2.6027    1.4936    0.0000 C   0  0  0  0  0  0  0  0  0  0  0  0
   -2.6128   -1.5107    0.0000 O   0  0  0  0  0  0  0  0  0  0  0  0
    3.8980    0.7372    0.0000 O   0  0  0  0  0  0  0  0  0  0  0  0
    2.6101    2.9936    0.0000 O   0  0  0  0  0  0  0  0  0  0  0  0
  6  4  2  0
  7  5  1  0
  8  4  1  0
  8  5  2  0
  9  6  1  0
  9  7  2  0
 10  8  1  0
 11  1  1  0
 11  9  1  0
 12  2  1  0
 12 10  1  0
 13  3  1  0
 13 10  1  0
M  END
>  <NAME>  (4632) 
P-ANISALDEHYDE DIMETHYLACETAL

>  <SYNONYMS>  (4632) 


>  <SPECTRUM TYPE>  (4632) 
MS1

>  <INSTRUMENT TYPE>  (4632) 
EI-B

>  <INSTRUMENT>  (4632) 
JEOL JMS-D-3000

>  <ION MODE>  (4632) 
P

>  <INCHIKEY>  (4632) 
NNHYAHOTXLASEA-UHFFFAOYSA-N

>  <FORMULA>  (4632) 
C10H14O3

>  <EXACT MASS>  (4632) 
182.09429430799997

>  <MW>  (4632) 
182

>  <ID>  (4632) 
JP004990

>  <CONTRIBUTOR>  (4632) 
University of Tokyo Team, {Faculty of Engineering, University of Tokyo

>  <COMMENT>  (4632) 
SMILES=COc(c1)ccc(c1)C(OC)OC
cas=2186-92-7
InChI=InChI=1S/C10H14O3/c1-11-9-6-4-8(5-7-9)10(12-2)13-3/h4-7,10H,1-3H3
computed SMILES=O(C1=CC=C(C=C1)C(OC)OC)C
accession=JP004990
date=2016.01.19 (Created 2008.10.21, modified 2011.05.06)
author=MASS SPECTROSCOPY SOC. OF JAPAN (MSSJ)
license=CC BY-NC-SA
exact mass=182.09429
ionization energy=70 eV
ion type=[M]+*
computed spectral entropy=2.2654454964026853
computed normalized entropy=0.687365785536944
SPLASH=splash10-0udi-2900000000-cbe4c3b3e0856695af93
submitter=submitter = University of Tokyo Team (Faculty of Engineering, University of Tokyo)
MoNA Rating=3.75

>  <NUM PEAKS>  (4632) 
27

>  <MASS SPECTRAL PEAKS>  (4632) 
47 1.18
50 2.37
51 4.63
53 0.97
59 1.61
63 3.2
64 3.51
65 4.13
74 1.21
75 5.34
76 1.94
77 10.83
78 2.77
79 1.49
91 3.42
92 5.39
93 1.02
107 3.87
108 5.01
121 1.44
135 34.79
136 18.97
137 1.94
151 99.99
152 10.09
166 1.99
182 5.67

$$$$

     RDKit          2D

 12 12  0  0  0  0  0  0  0  0999 V2000
   -2.5989   -1.5002    0.0000 C   0  0  0  0  0  0  0  0  0  0  0  0
    5.1970    1.5006    0.0000 C   0  0  0  0  0  0  0  0  0  0  0  0
    3.8976    3.7504    0.0000 C   0  0  0  0  0  0  0  0  0  0  0  0
   -1.3000    0.7500    0.0000 C   0  0  0  0  0  0  0  0  0  0  0  0
   -0.0000   -1.5000    0.0000 C   0  0  0  0  0  0  0  0  0  0  0  0
    0.0000    1.5000    0.0000 C   0  0  0  0  0  0  0  0  0  0  0  0
    1.3000   -0.7500    0.0000 C   0  0  0  0  0  0  0  0  0  0  0  0
   -1.3000   -0.7500    0.0000 C   0  0  0  0  0  0  0  0  0  0  0  0
    1.3000    0.7500    0.0000 C   0  0  0  0  0  0  0  0  0  0  0  0
    2.5989    1.5002    0.0000 C   0  0  0  0  0  0  0  0  0  0  0  0
    3.8981    0.7504    0.0000 O   0  0  0  0  0  0  0  0  0  0  0  0
    2.5987    3.0002    0.0000 O   0  0  0  0  0  0  0  0  0  0  0  0
  6  4  2  0
  7  5  1  0
  8  1  1  0
  8  4  1  0
  8  5  2  0
  9  6  1  0
  9  7  2  0
 10  9  1  0
 11  2  1  0
 11 10  1  0
 12  3  1  0
 12 10  1  0
M  END
>  <NAME>  (4633) 
P-TOLUALDEHYDE DIMETHYLACETAL

>  <SYNONYMS>  (4633) 


>  <SPECTRUM TYPE>  (4633) 
MS1

>  <INSTRUMENT TYPE>  (4633) 
EI-B

>  <INSTRUMENT>  (4633) 
JEOL JMS-D-3000

>  <ION MODE>  (4633) 
P

>  <INCHIKEY>  (4633) 
MKZGLAOLSFUPRT-UHFFFAOYSA-N

>  <FORMULA>  (4633) 
C10H14O2

>  <EXACT MASS>  (4633) 
166.099379688

>  <MW>  (4633) 
166

>  <ID>  (4633) 
JP004989

>  <CONTRIBUTOR>  (4633) 
University of Tokyo Team, {Faculty of Engineering, University of Tokyo

>  <COMMENT>  (4633) 
SMILES=COC(OC)c(c1)ccc(C)c1
cas=3395-83-3
InChI=InChI=1S/C10H14O2/c1-8-4-6-9(7-5-8)10(11-2)12-3/h4-7,10H,1-3H3
computed SMILES=O(C)C(OC)C1=CC=C(C=C1)C
accession=JP004989
date=2016.01.19 (Created 2008.10.21, modified 2011.05.06)
author=MASS SPECTROSCOPY SOC. OF JAPAN (MSSJ)
license=CC BY-NC-SA
exact mass=166.09938
ionization energy=70 eV
ion type=[M]+*
computed spectral entropy=1.9304181984639348
computed normalized entropy=0.634062726733401
SPLASH=splash10-000i-4900000000-1dc8523d33d3e53f1779
submitter=submitter = University of Tokyo Team (Faculty of Engineering, University of Tokyo)
MoNA Rating=3.75

>  <NUM PEAKS>  (4633) 
21

>  <MASS SPECTRAL PEAKS>  (4633) 
47 1.78
50 1
51 2.41
59 3.31
63 2.33
65 6.67
74 1.21
75 10.17
77 1.81
79 1.75
89 1.69
90 0.92
91 23.14
92 3.01
105 3.55
119 12.13
120 3.83
135 99.99
136 10.21
165 1.03
166 3.14

$$$$

     RDKit          2D

 11 11  0  0  0  0  0  0  0  0999 V2000
   -4.8712    2.0071    0.0000 C   0  0  0  0  0  0  0  0  0  0  0  0
   -0.9740    4.2571    0.0000 C   0  0  0  0  0  0  0  0  0  0  0  0
   -3.5721    2.7571    0.0000 C   0  0  0  0  0  0  0  0  0  0  0  0
    2.9231    0.5071    0.0000 C   0  0  0  0  0  0  0  0  0  0  0  0
    1.6236   -0.2437    0.0000 C   0  0  0  0  0  0  0  0  0  0  0  0
    2.9236    2.0079    0.0000 C   0  0  0  0  0  0  0  0  0  0  0  0
    0.3245    0.5063    0.0000 C   0  0  0  0  0  0  0  0  0  0  0  0
    1.6245    2.7579    0.0000 C   0  0  0  0  0  0  0  0  0  0  0  0
   -2.2731    2.0071    0.0000 C   0  0  0  0  0  0  0  0  0  0  0  0
    0.3250    2.0071    0.0000 C   0  0  0  0  0  0  0  0  0  0  0  0
   -0.9740    2.7571    0.0000 N   0  0  0  0  0  0  0  0  0  0  0  0
  3  1  2  0
  5  4  2  0
  6  4  1  0
  7  5  1  0
  8  6  2  0
  9  3  1  0
 10  7  2  0
 10  8  1  0
 11  2  1  0
 11  9  1  0
 11 10  1  0
M  END
>  <NAME>  (4634) 
N-ALLYL-N-METHYLANILINE

>  <SYNONYMS>  (4634) 


>  <SPECTRUM TYPE>  (4634) 
MS1

>  <INSTRUMENT TYPE>  (4634) 
EI-B

>  <INSTRUMENT>  (4634) 
JEOL JMS-D-3000

>  <ION MODE>  (4634) 
P

>  <INCHIKEY>  (4634) 
WJYIMFNLIJXFMX-UHFFFAOYSA-N

>  <FORMULA>  (4634) 
C10H13N

>  <EXACT MASS>  (4634) 
147.104799416

>  <MW>  (4634) 
147

>  <ID>  (4634) 
JP004988

>  <CONTRIBUTOR>  (4634) 
University of Tokyo Team, {Faculty of Engineering, University of Tokyo

>  <COMMENT>  (4634) 
SMILES=C=CCN(C)c(c1)cccc1
cas=6628-07-5
InChI=InChI=1S/C10H13N/c1-3-9-11(2)10-7-5-4-6-8-10/h3-8H,1,9H2,2H3
computed SMILES=C=CCN(C=1C=CC=CC1)C
accession=JP004988
date=2016.01.19 (Created 2008.10.21, modified 2011.05.06)
author=MASS SPECTROSCOPY SOC. OF JAPAN (MSSJ)
license=CC BY-NC-SA
exact mass=147.1048
ionization energy=70 eV
ion type=[M]+*
computed spectral entropy=2.8076948711810195
computed normalized entropy=0.7464890951869182
SPLASH=splash10-006t-2900000000-242c0d8f7a53af7ccdf5
submitter=submitter = University of Tokyo Team (Faculty of Engineering, University of Tokyo)
MoNA Rating=3.75

>  <NUM PEAKS>  (4634) 
43

>  <MASS SPECTRAL PEAKS>  (4634) 
42 10.17
50 2.05
51 9.75
52 1.84
56 1.53
63 1.87
64 1.27
65 2.95
66 1.56
68 0.85
70 3.17
72 0.85
73 3.14
74 1.77
75 0.85
76 1.11
77 29.75
78 5.32
79 5.06
91 9.65
92 1.77
93 0.87
103 2.53
104 15.05
105 14.51
106 8.23
107 1.27
115 1.01
117 3.9
118 4.52
119 1.51
120 99.99
121 9.37
129 1.65
130 7.85
131 7.43
132 11.17
133 1.23
144 4.11
145 1.25
146 28.33
147 73.29
148 8.68

$$$$

     RDKit          2D

 13 13  0  0  0  0  0  0  0  0999 V2000
    5.1970    1.5006    0.0000 C   0  0  0  0  0  0  0  0  0  0  0  0
    3.8976    3.7504    0.0000 C   0  0  0  0  0  0  0  0  0  0  0  0
   -1.3000    0.7500    0.0000 C   0  0  0  0  0  0  0  0  0  0  0  0
   -0.0000   -1.5000    0.0000 C   0  0  0  0  0  0  0  0  0  0  0  0
    0.0000    1.5000    0.0000 C   0  0  0  0  0  0  0  0  0  0  0  0
    1.3000   -0.7500    0.0000 C   0  0  0  0  0  0  0  0  0  0  0  0
   -2.5989   -1.5002    0.0000 C   0  0  0  0  0  0  0  0  0  0  0  0
   -1.3000   -0.7500    0.0000 C   0  0  0  0  0  0  0  0  0  0  0  0
    1.3000    0.7500    0.0000 C   0  0  0  0  0  0  0  0  0  0  0  0
    2.5989    1.5002    0.0000 C   0  0  0  0  0  0  0  0  0  0  0  0
   -3.8978   -2.2504    0.0000 N   0  0  0  0  0  0  0  0  0  0  0  0
    3.8981    0.7504    0.0000 O   0  0  0  0  0  0  0  0  0  0  0  0
    2.5987    3.0002    0.0000 O   0  0  0  0  0  0  0  0  0  0  0  0
  5  3  2  0
  6  4  1  0
  8  3  1  0
  8  4  2  0
  8  7  1  0
  9  5  1  0
  9  6  2  0
 10  9  1  0
 11  7  3  0
 12  1  1  0
 12 10  1  0
 13  2  1  0
 13 10  1  0
M  END
>  <NAME>  (4635) 
P-CYANOBENZALDEHYDE DIMETHYLACETAL

>  <SYNONYMS>  (4635) 


>  <SPECTRUM TYPE>  (4635) 
MS1

>  <INSTRUMENT TYPE>  (4635) 
EI-B

>  <INSTRUMENT>  (4635) 
JEOL JMS-D-3000

>  <ION MODE>  (4635) 
P

>  <INCHIKEY>  (4635) 
KAIKLOZUJNGBNP-UHFFFAOYSA-N

>  <FORMULA>  (4635) 
C10H11NO2

>  <EXACT MASS>  (4635) 
177.078978592

>  <MW>  (4635) 
177

>  <ID>  (4635) 
JP004987

>  <CONTRIBUTOR>  (4635) 
University of Tokyo Team, {Faculty of Engineering, University of Tokyo

>  <COMMENT>  (4635) 
SMILES=N#Cc(c1)ccc(c1)C(OC)OC
InChI=InChI=1S/C10H11NO2/c1-12-10(13-2)9-5-3-8(7-11)4-6-9/h3-6,10H,1-2H3
computed SMILES=N#CC1=CC=C(C=C1)C(OC)OC
accession=JP004987
date=2016.01.19 (Created 2008.10.21, modified 2011.05.06)
author=MASS SPECTROSCOPY SOC. OF JAPAN (MSSJ)
license=CC BY-NC-SA
exact mass=177.07898
ionization energy=70 eV
ion type=[M]+*
computed spectral entropy=1.7468070614860534
computed normalized entropy=0.5737540442606324
SPLASH=splash10-0002-1900000000-ad0fe4754b872ecf4203
submitter=submitter = University of Tokyo Team (Faculty of Engineering, University of Tokyo)
MoNA Rating=3.75

>  <NUM PEAKS>  (4635) 
21

>  <MASS SPECTRAL PEAKS>  (4635) 
47 0.95
50 1.47
51 1.93
59 1.74
74 1.36
75 7.86
76 2.89
77 1.06
89 1
91 3.65
102 8.93
103 1.69
116 6.32
117 1.81
118 2.14
130 8.33
131 1.79
146 99.99
147 10.81
176 1.26
177 0.98

$$$$

     RDKit          2D

  9  9  0  0  0  0  0  0  0  0999 V2000
    3.8981    1.5002    0.0000 C   0  0  0  0  0  0  0  0  0  0  0  0
    2.5992   -0.7500    0.0000 C   0  0  0  0  0  0  0  0  0  0  0  0
    1.2992    1.5000    0.0000 C   0  0  0  0  0  0  0  0  0  0  0  0
    1.2992   -1.5000    0.0000 C   0  0  0  0  0  0  0  0  0  0  0  0
   -0.0008    0.7500    0.0000 C   0  0  0  0  0  0  0  0  0  0  0  0
   -1.2998   -1.5002    0.0000 C   0  0  0  0  0  0  0  0  0  0  0  0
    2.5992    0.7500    0.0000 C   0  0  0  0  0  0  0  0  0  0  0  0
   -0.0008   -0.7500    0.0000 C   0  0  0  0  0  0  0  0  0  0  0  0
   -2.5989   -0.7504    0.0000 O   0  0  0  0  0  0  0  0  0  0  0  0
  4  2  2  0
  5  3  1  0
  7  1  1  0
  7  2  1  0
  7  3  2  0
  8  4  1  0
  8  5  2  0
  8  6  1  0
  9  6  2  0
M  END
>  <NAME>  (4636) 
P-TOLUALDEHYDE

>  <SYNONYMS>  (4636) 
4-METHYLBENZALDEHYDE

>  <SPECTRUM TYPE>  (4636) 
MS1

>  <INSTRUMENT TYPE>  (4636) 
EI-B

>  <INSTRUMENT>  (4636) 
JEOL JMS-D-3000

>  <ION MODE>  (4636) 
P

>  <INCHIKEY>  (4636) 
FXLOVSHXALFLKQ-UHFFFAOYSA-N

>  <FORMULA>  (4636) 
C8H8O

>  <EXACT MASS>  (4636) 
120.057514876

>  <MW>  (4636) 
120

>  <ID>  (4636) 
JP004986

>  <CONTRIBUTOR>  (4636) 
University of Tokyo Team, {Faculty of Engineering, University of Tokyo

>  <COMMENT>  (4636) 
SMILES=O=Cc(c1)ccc(C)c1
InChI=InChI=1S/C8H8O/c1-7-2-4-8(6-9)5-3-7/h2-6H,1H3
computed SMILES=O=CC1=CC=C(C=C1)C
accession=JP004986
date=2016.01.19 (Created 2008.10.21, modified 2011.05.06)
author=MASS SPECTROSCOPY SOC. OF JAPAN (MSSJ)
license=CC BY-NC-SA
exact mass=120.05751
ionization energy=70 eV
ion type=[M]+*
computed spectral entropy=2.024169979602815
computed normalized entropy=0.6455664849641533
SPLASH=splash10-01bc-8900000000-cc469f3657d6fab4bdef
submitter=submitter = University of Tokyo Team (Faculty of Engineering, University of Tokyo)
MoNA Rating=3.75

>  <NUM PEAKS>  (4636) 
23

>  <MASS SPECTRAL PEAKS>  (4636) 
43 0.94
45 1.2
50 5.08
51 8.01
52 1.56
59 2.38
61 1.84
62 4.09
63 10.66
64 2.44
65 22.97
66 1.39
74 1.45
75 1.03
77 1.1
86 1.14
89 7.19
90 3.6
91 98.26
92 9.41
119 99.99
120 84.24
121 7.23

$$$$

     RDKit          2D

  8  7  0  0  0  0  0  0  0  0999 V2000
   -4.2219    2.8125    0.0000 C   0  0  0  0  0  0  0  0  0  0  0  0
   -1.0748    0.7635    0.0000 C   0  0  0  0  0  0  0  0  0  0  0  0
    0.9743    1.3125    0.0000 C   0  0  0  0  0  0  0  0  0  0  0  0
    0.4252    3.3615    0.0000 C   0  0  0  0  0  0  0  0  0  0  0  0
   -2.9228    2.0625    0.0000 C   0  0  0  0  0  0  0  0  0  0  0  0
   -1.6238    2.8125    0.0000 C   0  0  0  0  0  0  0  0  0  0  0  0
   -1.6238    4.3125    0.0000 Br  0  0  0  0  0  0  0  0  0  0  0  0
   -0.3248    2.0625    0.0000 Si  0  0  0  0  0  4  0  0  0  0  0  0
  5  1  2  0
  6  5  1  0
  7  6  1  0
  8  2  1  0
  8  3  1  0
  8  4  1  0
  8  6  1  0
M  END
>  <NAME>  (4637) 
ALPHA-BROMOALLYLTRIMETHYLSILANE

>  <SYNONYMS>  (4637) 


>  <SPECTRUM TYPE>  (4637) 
MS1

>  <INSTRUMENT TYPE>  (4637) 
EI-B

>  <INSTRUMENT>  (4637) 
JEOL JMS-D-3000

>  <ION MODE>  (4637) 
P

>  <INCHIKEY>  (4637) 
CNCUFOZUVQDEDC-UHFFFAOYSA-N

>  <FORMULA>  (4637) 
C6H13BrSi

>  <EXACT MASS>  (4637) 
191.99698904599998

>  <MW>  (4637) 
192

>  <ID>  (4637) 
JP004985

>  <CONTRIBUTOR>  (4637) 
University of Tokyo Team, {Faculty of Engineering, University of Tokyo

>  <COMMENT>  (4637) 
SMILES=C=CC(Br)[Si](C)(C)C
cas=94397-40-7
InChI=InChI=1S/C6H13BrSi/c1-5-6(7)8(2,3)4/h5-6H,1H2,2-4H3
computed SMILES=BrC(C=C)[Si](C)(C)C
accession=JP004985
date=2016.01.19 (Created 2008.10.21, modified 2011.05.06)
author=MASS SPECTROSCOPY SOC. OF JAPAN (MSSJ)
license=CC BY-NC-SA
exact mass=191.99699
ionization energy=70 eV
ion type=[M]+*
computed spectral entropy=2.11875308900111
computed normalized entropy=0.6959229673424355
SPLASH=splash10-00di-9000000000-7dca1bd30cac344bd741
submitter=submitter = University of Tokyo Team (Faculty of Engineering, University of Tokyo)
MoNA Rating=3.75

>  <NUM PEAKS>  (4637) 
21

>  <MASS SPECTRAL PEAKS>  (4637) 
41 2.64
43 31.85
45 26.37
46 1.11
58 12.69
59 32.9
60 1.27
73 99.99
74 29.23
75 3.6
93 1.64
97 5.84
98 0.99
113 3.29
123 2.76
125 2.64
133 1.8
149 3.23
151 3.73
192 1.21
194 1.71

$$$$

     RDKit          2D

 14 14  0  0  0  0  0  0  0  0999 V2000
   -4.4962    5.4556    0.0000 C   0  0  0  0  0  0  0  0  0  0  0  0
   -6.5452    4.9066    0.0000 C   0  0  0  0  0  0  0  0  0  0  0  0
   -5.9962    2.8576    0.0000 C   0  0  0  0  0  0  0  0  0  0  0  0
    3.8471    1.9066    0.0000 C   0  0  0  0  0  0  0  0  0  0  0  0
    3.8476    3.4074    0.0000 C   0  0  0  0  0  0  0  0  0  0  0  0
    2.5476    1.1558    0.0000 C   0  0  0  0  0  0  0  0  0  0  0  0
   -1.3490    3.4066    0.0000 C   0  0  0  0  0  0  0  0  0  0  0  0
   -2.6481    4.1566    0.0000 C   0  0  0  0  0  0  0  0  0  0  0  0
    2.5486    4.1574    0.0000 C   0  0  0  0  0  0  0  0  0  0  0  0
    1.2486    1.9058    0.0000 C   0  0  0  0  0  0  0  0  0  0  0  0
   -0.0500    4.1566    0.0000 C   0  0  0  0  0  0  0  0  0  0  0  0
   -3.9471    3.4066    0.0000 C   0  0  0  0  0  0  0  0  0  0  0  0
    1.2490    3.4066    0.0000 C   0  0  0  0  0  0  0  0  0  0  0  0
   -5.2462    4.1566    0.0000 Si  0  0  0  0  0  4  0  0  0  0  0  0
  5  4  2  0
  6  4  1  0
  8  7  1  0
  9  5  1  0
 10  6  2  0
  7 11  2  0
 12  8  1  0
 13  9  2  0
 13 10  1  0
 13 11  1  0
 14  1  1  0
 14  2  1  0
 14  3  1  0
 14 12  1  0
M  END
>  <NAME>  (4638) 
(4-PHENYL-3-BUTENYL)TRIMETHYLSILANE

>  <SYNONYMS>  (4638) 
1-PHENYL-4-TRIMETHYLSILYL-1-BUTENE

>  <SPECTRUM TYPE>  (4638) 
MS1

>  <INSTRUMENT TYPE>  (4638) 
EI-B

>  <INSTRUMENT>  (4638) 
JEOL JMS-D-3000

>  <ION MODE>  (4638) 
P

>  <INCHIKEY>  (4638) 
ZVCCRJYTBSOWGI-YRNVUSSQSA-N

>  <FORMULA>  (4638) 
C13H20Si

>  <EXACT MASS>  (4638) 
204.13342717

>  <MW>  (4638) 
204

>  <ID>  (4638) 
JP004984

>  <CONTRIBUTOR>  (4638) 
University of Tokyo Team, {Faculty of Engineering, University of Tokyo

>  <COMMENT>  (4638) 
SMILES=c(c1)ccc(c1)C=CCC[Si](C)(C)C
InChI=InChI=1S/C13H20Si/c1-14(2,3)12-8-7-11-13-9-5-4-6-10-13/h4-7,9-11H,8,12H2,1-3H3/b11-7+
computed SMILES=C=1C=CC(=CC1)C=CCC[Si](C)(C)C
accession=JP004984
date=2016.01.19 (Created 2008.10.21, modified 2011.05.06)
author=MASS SPECTROSCOPY SOC. OF JAPAN (MSSJ)
license=CC BY-NC-SA
exact mass=204.13343
ionization energy=70 eV
ion type=[M]+*
computed spectral entropy=2.3176295671567133
computed normalized entropy=0.6955244073644372
SPLASH=splash10-00di-9300000000-571f9934d6f211fb7832
submitter=submitter = University of Tokyo Team (Faculty of Engineering, University of Tokyo)
MoNA Rating=3.75

>  <NUM PEAKS>  (4638) 
28

>  <MASS SPECTRAL PEAKS>  (4638) 
43 2.97
44 7.18
45 5.88
51 1.28
58 1.11
59 10.29
72 1.47
73 99.99
74 8.89
75 4.54
77 1.34
91 2.72
104 2.97
105 1.16
115 4.6
116 1.22
117 3.22
121 1.2
128 2.49
129 4.67
130 23.73
131 3.02
135 4.02
145 1.78
161 5.73
189 2.43
204 13.51
205 2.79

$$$$

     RDKit          2D

 14 14  0  0  0  0  0  0  0  0999 V2000
   -4.4962    5.4556    0.0000 C   0  0  0  0  0  0  0  0  0  0  0  0
   -6.5452    4.9066    0.0000 C   0  0  0  0  0  0  0  0  0  0  0  0
   -5.9962    2.8576    0.0000 C   0  0  0  0  0  0  0  0  0  0  0  0
    3.8471    1.9066    0.0000 C   0  0  0  0  0  0  0  0  0  0  0  0
    3.8476    3.4074    0.0000 C   0  0  0  0  0  0  0  0  0  0  0  0
    2.5476    1.1558    0.0000 C   0  0  0  0  0  0  0  0  0  0  0  0
   -1.3490    3.4066    0.0000 C   0  0  0  0  0  0  0  0  0  0  0  0
   -2.6481    4.1566    0.0000 C   0  0  0  0  0  0  0  0  0  0  0  0
    2.5486    4.1574    0.0000 C   0  0  0  0  0  0  0  0  0  0  0  0
    1.2486    1.9058    0.0000 C   0  0  0  0  0  0  0  0  0  0  0  0
   -0.0500    4.1566    0.0000 C   0  0  0  0  0  0  0  0  0  0  0  0
   -3.9471    3.4066    0.0000 C   0  0  0  0  0  0  0  0  0  0  0  0
    1.2490    3.4066    0.0000 C   0  0  0  0  0  0  0  0  0  0  0  0
   -5.2462    4.1566    0.0000 Si  0  0  0  0  0  4  0  0  0  0  0  0
  5  4  2  0
  6  4  1  0
  7  8  2  0
  9  5  1  0
 10  6  2  0
 11  7  1  0
 12  8  1  0
 13  9  2  0
 13 10  1  0
 13 11  1  0
 14  1  1  0
 14  2  1  0
 14  3  1  0
 14 12  1  0
M  END
>  <NAME>  (4639) 
(4-PHENYL-2-BUTENYL)TRIMETHYLSILANE

>  <SYNONYMS>  (4639) 
1-PHENYL-4-TRIMETHYLSILYL-2-BUTENE

>  <SPECTRUM TYPE>  (4639) 
MS1

>  <INSTRUMENT TYPE>  (4639) 
EI-B

>  <INSTRUMENT>  (4639) 
JEOL JMS-D-3000

>  <ION MODE>  (4639) 
P

>  <INCHIKEY>  (4639) 
SPZMUNLMWTULJC-BQYQJAHWSA-N

>  <FORMULA>  (4639) 
C13H20Si

>  <EXACT MASS>  (4639) 
204.13342717

>  <MW>  (4639) 
204

>  <ID>  (4639) 
JP004983

>  <CONTRIBUTOR>  (4639) 
University of Tokyo Team, {Faculty of Engineering, University of Tokyo

>  <COMMENT>  (4639) 
SMILES=c(c1)ccc(c1)CC=CC[Si](C)(C)C
InChI=InChI=1S/C13H20Si/c1-14(2,3)12-8-7-11-13-9-5-4-6-10-13/h4-10H,11-12H2,1-3H3/b8-7+
computed SMILES=C=1C=CC(=CC1)CC=CC[Si](C)(C)C
accession=JP004983
date=2016.01.19 (Created 2008.10.21, modified 2011.05.06)
author=MASS SPECTROSCOPY SOC. OF JAPAN (MSSJ)
license=CC BY-NC-SA
exact mass=204.13343
ionization energy=70 eV
ion type=[M]+*
computed spectral entropy=1.7833285539191852
computed normalized entropy=0.6056598783460063
SPLASH=splash10-00di-9100000000-5462a3e25cde805ff9c6
submitter=submitter = University of Tokyo Team (Faculty of Engineering, University of Tokyo)
MoNA Rating=3.75

>  <NUM PEAKS>  (4639) 
19

>  <MASS SPECTRAL PEAKS>  (4639) 
43 2.31
45 6.29
59 7.14
65 1.21
73 99.99
74 8.49
75 4.27
77 1.24
91 3.21
115 1.83
128 1.71
129 2.67
130 12.66
131 1.63
135 3.76
161 2.23
189 1.12
204 9.38
205 1.94

$$$$

     RDKit          2D

 17 17  0  0  0  0  0  0  0  0999 V2000
   -4.4962    5.4556    0.0000 C   0  0  0  0  0  0  0  0  0  0  0  0
   -6.5452    4.9066    0.0000 C   0  0  0  0  0  0  0  0  0  0  0  0
   -5.9962    2.8576    0.0000 C   0  0  0  0  0  0  0  0  0  0  0  0
    3.8471    1.9066    0.0000 C   0  0  0  0  0  0  0  0  0  0  0  0
    3.8476    3.4074    0.0000 C   0  0  0  0  0  0  0  0  0  0  0  0
    2.5476    1.1558    0.0000 C   0  0  0  0  0  0  0  0  0  0  0  0
    2.5486    4.1574    0.0000 C   0  0  0  0  0  0  0  0  0  0  0  0
    1.2486    1.9058    0.0000 C   0  0  0  0  0  0  0  0  0  0  0  0
   -0.0500    4.1566    0.0000 C   0  0  0  0  0  0  0  0  0  0  0  0
   -1.3490    3.4066    0.0000 C   0  0  0  0  0  0  0  0  0  0  0  0
    1.2490    3.4066    0.0000 C   0  0  0  0  0  0  0  0  0  0  0  0
   -2.6481    4.1566    0.0000 C   0  0  0  0  0  0  0  0  0  0  0  0
   -3.9471    3.4066    0.0000 C   0  0  0  0  0  0  0  0  0  0  0  0
   -4.9113    2.2575    0.0000 Cl  0  0  0  0  0  0  0  0  0  0  0  0
   -2.9829    2.2575    0.0000 Cl  0  0  0  0  0  0  0  0  0  0  0  0
   -2.6481    5.6566    0.0000 O   0  0  0  0  0  0  0  0  0  0  0  0
   -5.2462    4.1566    0.0000 Si  0  0  0  0  0  4  0  0  0  0  0  0
  5  4  2  0
  6  4  1  0
  7  5  1  0
  8  6  2  0
 10  9  1  0
 11  7  2  0
 11  8  1  0
 11  9  1  0
 12 10  1  0
 13 12  1  0
 14 13  1  0
 15 13  1  0
 16 12  1  0
 17  1  1  0
 17  2  1  0
 17  3  1  0
 17 13  1  0
M  END
>  <NAME>  (4640) 
1,1-DICHLORO-4-PHENYL-1-TRIMETHYLSILYL-2-BUTANOL

>  <SYNONYMS>  (4640) 


>  <SPECTRUM TYPE>  (4640) 
MS1

>  <INSTRUMENT TYPE>  (4640) 
EI-B

>  <INSTRUMENT>  (4640) 
JEOL JMS-D-3000

>  <ION MODE>  (4640) 
P

>  <INCHIKEY>  (4640) 
CNMYGWLCQSBOOX-UHFFFAOYSA-N

>  <FORMULA>  (4640) 
C13H20Cl2OSi

>  <EXACT MASS>  (4640) 
290.06604715000003

>  <MW>  (4640) 
290

>  <ID>  (4640) 
JP004982

>  <CONTRIBUTOR>  (4640) 
University of Tokyo Team, {Faculty of Engineering, University of Tokyo

>  <COMMENT>  (4640) 
SMILES=c(c1)ccc(c1)CCC(O)C(Cl)(Cl)[Si](C)(C)C
InChI=InChI=1S/C13H20Cl2OSi/c1-17(2,3)13(14,15)12(16)10-9-11-7-5-4-6-8-11/h4-8,12,16H,9-10H2,1-3H3
computed SMILES=ClC(Cl)(C(O)CCC=1C=CC=CC1)[Si](C)(C)C
accession=JP004982
date=2016.01.19 (Created 2008.10.21, modified 2011.05.06)
author=MASS SPECTROSCOPY SOC. OF JAPAN (MSSJ)
license=CC BY-NC-SA
exact mass=290.06605
ionization energy=70 eV
ion type=[M]+*
computed spectral entropy=2.7776578374932064
computed normalized entropy=0.8088725065327252
SPLASH=splash10-004l-8930000000-9ff99bb7635893c5bb1e
submitter=submitter = University of Tokyo Team (Faculty of Engineering, University of Tokyo)
MoNA Rating=3.75

>  <NUM PEAKS>  (4640) 
31

>  <MASS SPECTRAL PEAKS>  (4640) 
45 12.24
59 3.14
72 3.9
73 91.32
74 5.46
75 12.42
91 99.99
93 31.14
95 3.72
103 3.9
104 37.89
117 35.62
123 8.33
125 72.87
126 4.23
127 21.5
129 90.17
130 6.85
165 11.46
185 2.75
200 28.06
201 4.28
202 17.9
203 3.9
204 3.45
207 20.67
208 4.55
239 13.7
241 4.76
254 1.37
290 0.45

$$$$

     RDKit          2D

 15 16  0  0  0  0  0  0  0  0999 V2000
   -1.6700   -0.9600    0.0000 C   0  0  0  0  0  0  0  0  0  0  0  0
    8.7252   -0.9608    0.0000 C   0  0  0  0  0  0  0  0  0  0  0  0
   -0.3700   -1.7100    0.0000 C   0  0  0  0  0  0  0  0  0  0  0  0
   -1.6700    0.5400    0.0000 C   0  0  0  0  0  0  0  0  0  0  0  0
    8.7247    0.5400    0.0000 C   0  0  0  0  0  0  0  0  0  0  0  0
    7.4262   -1.7108    0.0000 C   0  0  0  0  0  0  0  0  0  0  0  0
    0.9300   -0.9600    0.0000 C   0  0  0  0  0  0  0  0  0  0  0  0
   -0.3700    1.2900    0.0000 C   0  0  0  0  0  0  0  0  0  0  0  0
    7.4252    1.2908    0.0000 C   0  0  0  0  0  0  0  0  0  0  0  0
    6.1266   -0.9600    0.0000 C   0  0  0  0  0  0  0  0  0  0  0  0
    3.5281    0.5404    0.0000 C   0  0  0  0  0  0  0  0  0  0  0  0
    0.9300    0.5400    0.0000 C   0  0  0  0  0  0  0  0  0  0  0  0
    6.1262    0.5408    0.0000 C   0  0  0  0  0  0  0  0  0  0  0  0
    2.2289    1.2902    0.0000 S   0  0  0  0  0  0  0  0  0  0  0  0
    4.8270    1.2906    0.0000 S   0  0  0  0  0  0  0  0  0  0  0  0
  3  1  2  0
  4  1  1  0
  5  2  2  0
  6  2  1  0
  7  3  1  0
  8  4  2  0
  9  5  1  0
 10  6  2  0
 12  7  2  0
 12  8  1  0
 13  9  2  0
 13 10  1  0
 14 11  1  0
 14 12  1  0
 15 11  1  0
 15 13  1  0
M  END
>  <NAME>  (4641) 
BIS(PHENYLTHIO)METHANE

>  <SYNONYMS>  (4641) 


>  <SPECTRUM TYPE>  (4641) 
MS1

>  <INSTRUMENT TYPE>  (4641) 
EI-B

>  <INSTRUMENT>  (4641) 
JEOL JMS-D-3000

>  <ION MODE>  (4641) 
P

>  <INCHIKEY>  (4641) 
ZHUPZVIALZHGGP-UHFFFAOYSA-N

>  <FORMULA>  (4641) 
C13H12S2

>  <EXACT MASS>  (4641) 
232.038042384

>  <MW>  (4641) 
232

>  <ID>  (4641) 
JP004981

>  <CONTRIBUTOR>  (4641) 
University of Tokyo Team, {Faculty of Engineering, University of Tokyo

>  <COMMENT>  (4641) 
SMILES=c(c2)ccc(c2)SCSc(c1)cccc1
InChI=InChI=1S/C13H12S2/c1-3-7-12(8-4-1)14-11-15-13-9-5-2-6-10-13/h1-10H,11H2
computed SMILES=S(C=1C=CC=CC1)CSC=2C=CC=CC2
accession=JP004981
date=2016.01.19 (Created 2008.10.21, modified 2011.05.06)
author=MASS SPECTROSCOPY SOC. OF JAPAN (MSSJ)
license=CC BY-NC-SA
exact mass=232.03804
ionization energy=70 eV
ion type=[M]+*
computed spectral entropy=2.359094208893005
computed normalized entropy=0.7240713040153172
SPLASH=splash10-00dj-9500000000-35a6fbcd5f2ede607099
submitter=submitter = University of Tokyo Team (Faculty of Engineering, University of Tokyo)
MoNA Rating=3.75

>  <NUM PEAKS>  (4641) 
26

>  <MASS SPECTRAL PEAKS>  (4641) 
45 82.73
46 2.84
47 4.08
50 5.88
51 26.82
52 2.21
58 1.51
63 2.75
65 13.71
66 2.5
69 6.61
77 25.38
78 3.63
79 10.49
82 1.71
91 4.12
97 1.52
108 2.32
109 9.79
110 3.24
121 3.13
123 99.99
124 8.46
125 4.73
232 10.78
233 1.64

$$$$

     RDKit          2D

 14 10  0  0  0  0  0  0  0  0999 V2000
   -1.6700   -0.9602    0.0000 C   0  0  0  0  0  3  0  0  0  0  0  0
   -0.3708   -1.7100    0.0000 C   0  0  0  0  0  0  0  0  0  0  0  0
    6.1262    0.5406    0.0000 C   0  0  0  0  0  0  0  0  0  0  0  0
    4.8262    1.2906    0.0000 C   0  0  0  0  0  0  0  0  0  0  0  0
    6.1262   -0.9594    0.0000 C   0  0  0  0  0  0  0  0  0  0  0  0
    3.5262    0.5406    0.0000 C   0  0  0  0  0  0  0  0  0  0  0  0
    4.8262   -1.7094    0.0000 C   0  0  0  0  0  0  0  0  0  0  0  0
    0.9281   -0.9598    0.0000 C   0  0  0  0  0  0  0  0  0  0  0  0
    3.5262   -0.9594    0.0000 C   0  0  0  0  0  0  0  0  0  0  0  0
    2.2272   -1.7096    0.0000 S   0  0  0  0  0  0  0  0  0  0  0  0
    0.0000    0.0000    0.0000 C   0  0  0  0  0  3  0  0  0  0  0  0
    0.0000    0.0000    0.0000 C   0  0  0  0  0  3  0  0  0  0  0  0
    0.0000    0.0000    0.0000 C   0  0  0  0  0  3  0  0  0  0  0  0
    0.0000    0.0000    0.0000 Sn  0  0  0  0  0 15  0  0  0  0  0  0
  2  1  1  0
  4  3  2  0
  5  3  1  0
  6  4  1  0
  7  5  2  0
  8  2  1  0
  9  6  2  0
  9  7  1  0
 10  8  1  0
 10  9  1  0
M  RAD  4   1   2  11   2  12   2  13   2
M  END
>  <NAME>  (4642) 
PHENYL-3-TRIMETHYLSTANNYLPROPYL SULFIDE

>  <SYNONYMS>  (4642) 
1-PHENYLTHIO-3-TRIMETHYLSTANNYLPROPANE

>  <SPECTRUM TYPE>  (4642) 
MS1

>  <INSTRUMENT TYPE>  (4642) 
EI-B

>  <INSTRUMENT>  (4642) 
JEOL JMS-D-3000

>  <ION MODE>  (4642) 
P

>  <INCHIKEY>  (4642) 
HMJQOLXJRJTWPL-UHFFFAOYSA-N

>  <FORMULA>  (4642) 
C12H20SSn

>  <EXACT MASS>  (4642) 
316.03076634

>  <MW>  (4642) 
316

>  <ID>  (4642) 
JP004979

>  <CONTRIBUTOR>  (4642) 
University of Tokyo Team, {Faculty of Engineering, University of Tokyo

>  <COMMENT>  (4642) 
SMILES=c(c1)ccc(c1)SCCC[Sn](C)(C)C
InChI=InChI=1S/C9H11S.3CH3.Sn/c1-2-8-10-9-6-4-3-5-7-9;;;;/h3-7H,1-2,8H2;3*1H3;
computed SMILES=[Sn].S(C=1C=CC=CC1)CC[CH2].[CH3].[CH3].[CH3]
accession=JP004979
date=2016.01.19 (Created 2008.10.21, modified 2011.05.06)
author=MASS SPECTROSCOPY SOC. OF JAPAN (MSSJ)
license=CC BY-NC-SA
exact mass=316.03077
ionization energy=70 eV
ion type=[M]+*
computed spectral entropy=3.1810735000271833
computed normalized entropy=0.9546453377376666
SPLASH=splash10-0zfs-1794000000-bdaaeffa0497d36e43a1
submitter=submitter = University of Tokyo Team (Faculty of Engineering, University of Tokyo)
MoNA Rating=3.75

>  <NUM PEAKS>  (4642) 
28

>  <MASS SPECTRAL PEAKS>  (4642) 
45 24.78
77 40.59
91 16.66
109 16.23
123 27.35
131 17.94
133 30.34
135 41.45
150 28.2
162 16.23
163 53.41
164 21.79
165 66.66
227 19.23
229 26.92
255 31.62
256 22.22
257 54.27
258 23.93
259 76.49
297 44.01
298 28.63
299 72.22
300 35.47
301 99.99
302 17.94
303 19.23
305 18.8

$$$$

     RDKit          2D

 14 14  0  0  0  0  0  0  0  0999 V2000
   -1.1213    0.8878    0.0000 C   0  0  0  0  0  0  0  0  0  0  0  0
   -1.6700   -1.1613    0.0000 C   0  0  0  0  0  0  0  0  0  0  0  0
    0.3791   -1.7100    0.0000 C   0  0  0  0  0  0  0  0  0  0  0  0
    8.7240    1.8400    0.0000 C   0  0  0  0  0  0  0  0  0  0  0  0
    7.4240    2.5900    0.0000 C   0  0  0  0  0  0  0  0  0  0  0  0
    8.7240    0.3400    0.0000 C   0  0  0  0  0  0  0  0  0  0  0  0
    2.2270   -0.4107    0.0000 C   0  0  0  0  0  0  0  0  0  0  0  0
    6.1240    1.8400    0.0000 C   0  0  0  0  0  0  0  0  0  0  0  0
    7.4240   -0.4100    0.0000 C   0  0  0  0  0  0  0  0  0  0  0  0
    3.5259    0.3395    0.0000 C   0  0  0  0  0  0  0  0  0  0  0  0
    0.9278    0.3391    0.0000 C   0  0  0  0  0  0  0  0  0  0  0  0
    6.1240    0.3400    0.0000 C   0  0  0  0  0  0  0  0  0  0  0  0
    4.8251   -0.4102    0.0000 S   0  0  0  0  0  0  0  0  0  0  0  0
   -0.3711   -0.4111    0.0000 Si  0  0  0  0  0  4  0  0  0  0  0  0
  5  4  2  0
  6  4  1  0
  8  5  1  0
  9  6  2  0
 10  7  1  0
 11  7  1  0
 12  8  2  0
 12  9  1  0
 13 10  1  0
 13 12  1  0
 14  1  1  0
 14  2  1  0
 14  3  1  0
 14 11  1  0
M  END
>  <NAME>  (4643) 
(3-PHENYLTHIOPROPYL)TRIMETHYLSILANE

>  <SYNONYMS>  (4643) 
PHENYL-3-TRIMETHYLSILYLPROPYL SULFIDE

>  <SPECTRUM TYPE>  (4643) 
MS1

>  <INSTRUMENT TYPE>  (4643) 
EI-B

>  <INSTRUMENT>  (4643) 
JEOL JMS-D-3000

>  <ION MODE>  (4643) 
P

>  <INCHIKEY>  (4643) 
LOBCIEZDGYXMPV-UHFFFAOYSA-N

>  <FORMULA>  (4643) 
C12H20SSi

>  <EXACT MASS>  (4643) 
224.10549817

>  <MW>  (4643) 
224

>  <ID>  (4643) 
JP004978

>  <CONTRIBUTOR>  (4643) 
University of Tokyo Team, {Faculty of Engineering, University of Tokyo

>  <COMMENT>  (4643) 
SMILES=C[Si](C)(C)CCCSc(c1)cccc1
InChI=InChI=1S/C12H20SSi/c1-14(2,3)11-7-10-13-12-8-5-4-6-9-12/h4-6,8-9H,7,10-11H2,1-3H3
computed SMILES=S(C=1C=CC=CC1)CCC[Si](C)(C)C
accession=JP004978
date=2016.01.19 (Created 2008.10.21, modified 2011.05.06)
author=MASS SPECTROSCOPY SOC. OF JAPAN (MSSJ)
license=CC BY-NC-SA
exact mass=224.1055
ionization energy=70 eV
ion type=[M]+*
computed spectral entropy=2.5308838637524054
computed normalized entropy=0.7679032569414438
SPLASH=splash10-00di-9340000000-07fb862d683e941564a2
submitter=submitter = University of Tokyo Team (Faculty of Engineering, University of Tokyo)
MoNA Rating=3.75

>  <NUM PEAKS>  (4643) 
27

>  <MASS SPECTRAL PEAKS>  (4643) 
42 2.8
43 5.07
44 3.29
45 14.1
51 3.14
59 7.96
65 2.84
72 3.33
73 99.99
74 9.02
75 5.34
77 5.07
91 5
109 3.67
110 3.41
118 5.45
151 5.87
167 32.25
168 4.51
169 3.03
181 2.95
182 5.87
209 55.87
210 10.46
211 5.61
224 14.29
225 3.03

$$$$

     RDKit          2D

 16 16  0  0  0  0  0  0  0  0999 V2000
    6.4962   -0.7508    0.0000 C   0  0  0  0  0  0  0  0  0  0  0  0
    1.1830   -5.2077    0.0000 C   0  0  0  0  0  0  0  0  0  0  0  0
    6.0042   -3.5384    0.0000 C   0  0  0  0  0  0  0  0  0  0  0  0
    5.1970   -1.5006    0.0000 C   0  0  0  0  0  0  0  0  0  0  0  0
    2.1474   -4.0587    0.0000 C   0  0  0  0  0  0  0  0  0  0  0  0
    5.0402   -2.3892    0.0000 C   0  0  0  0  0  0  0  0  0  0  0  0
   -1.3000    0.7500    0.0000 C   0  0  0  0  0  0  0  0  0  0  0  0
    0.0000    1.5000    0.0000 C   0  0  0  0  0  0  0  0  0  0  0  0
   -1.3000   -0.7500    0.0000 C   0  0  0  0  0  0  0  0  0  0  0  0
    1.3000    0.7500    0.0000 C   0  0  0  0  0  0  0  0  0  0  0  0
    0.0000   -1.5000    0.0000 C   0  0  0  0  0  0  0  0  0  0  0  0
    1.3000   -0.7500    0.0000 C   0  0  0  0  0  0  0  0  0  0  0  0
    3.8981   -0.7504    0.0000 O   0  0  0  0  0  0  0  0  0  0  0  0
    1.6346   -2.6491    0.0000 O   0  0  0  0  0  0  0  0  0  0  0  0
    3.5629   -2.6494    0.0000 O   0  0  0  0  0  0  0  0  0  0  0  0
    2.5989   -1.5002    0.0000 Si  0  0  0  0  0  4  0  0  0  0  0  0
  4  1  1  0
  5  2  1  0
  6  3  1  0
  8  7  2  0
  9  7  1  0
 10  8  1  0
 11  9  2  0
 12 10  2  0
 12 11  1  0
 13  4  1  0
 14  5  1  0
 15  6  1  0
 16 12  1  0
 16 13  1  0
 16 14  1  0
 16 15  1  0
M  END
>  <NAME>  (4644) 
PHENYLTRIETHOXYSILANE

>  <SYNONYMS>  (4644) 


>  <SPECTRUM TYPE>  (4644) 
MS1

>  <INSTRUMENT TYPE>  (4644) 
EI-B

>  <INSTRUMENT>  (4644) 
JEOL JMS-D-3000

>  <ION MODE>  (4644) 
P

>  <INCHIKEY>  (4644) 
JCVQKRGIASEUKR-UHFFFAOYSA-N

>  <FORMULA>  (4644) 
C12H20O3Si

>  <EXACT MASS>  (4644) 
240.11817102999998

>  <MW>  (4644) 
240

>  <ID>  (4644) 
JP004977

>  <CONTRIBUTOR>  (4644) 
University of Tokyo Team, {Faculty of Engineering, University of Tokyo

>  <COMMENT>  (4644) 
SMILES=CCO[Si](OCC)(OCC)c(c1)cccc1
InChI=InChI=1S/C12H20O3Si/c1-4-13-16(14-5-2,15-6-3)12-10-8-7-9-11-12/h7-11H,4-6H2,1-3H3
computed SMILES=O(CC)[Si](OCC)(OCC)C=1C=CC=CC1
accession=JP004977
date=2016.01.19 (Created 2008.10.21, modified 2011.05.06)
author=MASS SPECTROSCOPY SOC. OF JAPAN (MSSJ)
license=CC BY-NC-SA
exact mass=240.11817
ionization energy=70 eV
ion type=[M]+*
computed spectral entropy=2.698392792586467
computed normalized entropy=0.916436989076395
SPLASH=splash10-0002-1900000000-9329b6347a07770a8650
submitter=submitter = University of Tokyo Team (Faculty of Engineering, University of Tokyo)
MoNA Rating=3.75

>  <NUM PEAKS>  (4644) 
19

>  <MASS SPECTRAL PEAKS>  (4644) 
45 17.63
77 13.55
79 12.16
91 15.01
105 11.74
118 22.03
119 30.02
121 10.64
123 18.08
135 36.55
139 33.77
147 99.99
151 24.65
162 65.9
163 16.53
181 16.62
195 67.06
196 13.55
240 31.38

$$$$

     RDKit          2D

 13 14  0  0  0  0  0  0  0  0999 V2000
   -4.5601    3.7189    0.0000 C   0  0  0  0  0  0  0  0  0  0  0  0
   -5.1095    1.6699    0.0000 C   0  0  0  0  0  0  0  0  0  0  0  0
   -3.0605    1.1206    0.0000 C   0  0  0  0  0  0  0  0  0  0  0  0
    2.8868    0.9190    0.0000 C   0  0  0  0  0  0  0  0  0  0  0  0
    2.8873    2.4199    0.0000 C   0  0  0  0  0  0  0  0  0  0  0  0
    1.5873    0.1682    0.0000 C   0  0  0  0  0  0  0  0  0  0  0  0
    1.5883    3.1699    0.0000 C   0  0  0  0  0  0  0  0  0  0  0  0
    0.2883    0.9182    0.0000 C   0  0  0  0  0  0  0  0  0  0  0  0
   -1.7611    4.4685    0.0000 C   0  0  0  0  0  0  0  0  0  0  0  0
    0.2887    2.4190    0.0000 C   0  0  0  0  0  0  0  0  0  0  0  0
   -1.0103    3.1690    0.0000 C   0  0  0  0  0  0  0  0  0  0  0  0
   -2.5111    3.1695    0.0000 C   0  0  0  0  0  0  0  0  0  0  0  0
   -3.8103    2.4197    0.0000 Si  0  0  0  0  0  4  0  0  0  0  0  0
  5  4  2  0
  6  4  1  0
  7  5  1  0
  8  6  2  0
 10  7  2  0
 10  8  1  0
 11  9  1  0
 11 10  1  0
 12  9  1  0
 12 11  1  0
 13  1  1  0
 13  2  1  0
 13  3  1  0
 13 12  1  0
M  END
>  <NAME>  (4645) 
1-PHENYL-2-TRIMETHYLSILYLCYCLOPROPANE

>  <SYNONYMS>  (4645) 


>  <SPECTRUM TYPE>  (4645) 
MS1

>  <INSTRUMENT TYPE>  (4645) 
EI-B

>  <INSTRUMENT>  (4645) 
JEOL JMS-D-3000

>  <ION MODE>  (4645) 
P

>  <INCHIKEY>  (4645) 
YGQICJZACGXFSO-UHFFFAOYSA-N

>  <FORMULA>  (4645) 
C12H18Si

>  <EXACT MASS>  (4645) 
190.117777106

>  <MW>  (4645) 
190

>  <ID>  (4645) 
JP004976

>  <CONTRIBUTOR>  (4645) 
University of Tokyo Team, {Faculty of Engineering, University of Tokyo

>  <COMMENT>  (4645) 
SMILES=c(c2)ccc(c2)C(C1)C1[Si](C)(C)C
InChI=InChI=1S/C12H18Si/c1-13(2,3)12-9-11(12)10-7-5-4-6-8-10/h4-8,11-12H,9H2,1-3H3
computed SMILES=C=1C=CC(=CC1)C2CC2[Si](C)(C)C
accession=JP004976
computed spectral entropy=1.3443794060590322
date=2016.01.19 (Created 2008.10.21, modified 2011.05.06)
author=MASS SPECTROSCOPY SOC. OF JAPAN (MSSJ)
license=CC BY-NC-SA
exact mass=190.11778
ionization energy=70 eV
ion type=[M]+*
computed normalized entropy=0.49643814044209855
SPLASH=splash10-00di-9100000000-3ed7d49df69c617571d0
submitter=submitter = University of Tokyo Team (Faculty of Engineering, University of Tokyo)
MoNA Rating=3.75

>  <NUM PEAKS>  (4645) 
15

>  <MASS SPECTRAL PEAKS>  (4645) 
45 3.75
59 6.13
65 1
72 1.31
73 99.99
74 8.82
75 1.59
115 2.56
121 1.62
135 1.59
145 1.08
159 1.18
175 3.29
190 8.51
191 2.19

$$$$

     RDKit          2D

 16 16  0  0  0  0  0  0  0  0999 V2000
   -2.7838    3.3492    0.0000 C   0  0  0  0  0  0  0  0  0  0  0  0
   -0.2218    0.9887    0.0000 C   0  0  0  0  0  0  0  0  0  0  0  0
    0.3273   -1.0603    0.0000 C   0  0  0  0  0  0  0  0  0  0  0  0
   -1.7218   -1.6094    0.0000 C   0  0  0  0  0  0  0  0  0  0  0  0
    1.6263    4.1897    0.0000 C   0  0  0  0  0  0  0  0  0  0  0  0
    0.3268    4.9405    0.0000 C   0  0  0  0  0  0  0  0  0  0  0  0
    1.6268    2.6888    0.0000 C   0  0  0  0  0  0  0  0  0  0  0  0
   -0.9722    4.1905    0.0000 C   0  0  0  0  0  0  0  0  0  0  0  0
    0.3278    1.9388    0.0000 C   0  0  0  0  0  0  0  0  0  0  0  0
   -0.9718    2.6897    0.0000 C   0  0  0  0  0  0  0  0  0  0  0  0
   -3.7480    1.6792    0.0000 C   0  0  0  0  0  0  0  0  0  0  0  0
   -2.2708    1.9397    0.0000 C   0  0  0  0  0  0  0  0  0  0  0  0
   -4.2610    0.2696    0.0000 Cl  0  0  0  0  0  0  0  0  0  0  0  0
   -4.7122    2.8282    0.0000 Cl  0  0  0  0  0  0  0  0  0  0  0  0
   -2.2708    0.4397    0.0000 O   0  0  0  0  0  0  0  0  0  0  0  0
   -0.9718   -0.3103    0.0000 Si  0  0  0  0  0  4  0  0  0  0  0  0
  6  5  2  0
  7  5  1  0
  8  6  1  0
  9  7  2  0
 10  8  2  0
 10  9  1  0
 12  1  1  0
 12 10  1  0
 12 11  1  0
 13 11  1  0
 14 11  1  0
 15 12  1  0
 16  2  1  0
 16  3  1  0
 16  4  1  0
 16 15  1  0
M  END
>  <NAME>  (4646) 
1,1-DICHLORO-2-PHENYL-2-TRIMETHYLSILOXYPROPANE

>  <SYNONYMS>  (4646) 


>  <SPECTRUM TYPE>  (4646) 
MS1

>  <INSTRUMENT TYPE>  (4646) 
EI-B

>  <INSTRUMENT>  (4646) 
JEOL JMS-D-3000

>  <ION MODE>  (4646) 
P

>  <INCHIKEY>  (4646) 
VMXRBRRRVHEDKG-UHFFFAOYSA-N

>  <FORMULA>  (4646) 
C12H18Cl2OSi

>  <EXACT MASS>  (4646) 
276.050397086

>  <MW>  (4646) 
276

>  <ID>  (4646) 
JP004975

>  <CONTRIBUTOR>  (4646) 
University of Tokyo Team, {Faculty of Engineering, University of Tokyo

>  <COMMENT>  (4646) 
SMILES=c(c1)ccc(c1)C(C)(C(Cl)Cl)O[Si](C)(C)C
InChI=InChI=1S/C12H18Cl2OSi/c1-12(11(13)14,15-16(2,3)4)10-8-6-5-7-9-10/h5-9,11H,1-4H3
computed SMILES=ClC(Cl)C(O[Si](C)(C)C)(C=1C=CC=CC1)C
accession=JP004975
date=2016.01.19 (Created 2008.10.21, modified 2011.05.06)
author=MASS SPECTROSCOPY SOC. OF JAPAN (MSSJ)
license=CC BY-NC-SA
exact mass=276.0504
ionization energy=70 eV
ion type=[M]+*
computed spectral entropy=2.4809967522455096
computed normalized entropy=0.752766855009216
SPLASH=splash10-006x-6900000000-1e83da04b8322f07669a
submitter=submitter = University of Tokyo Team (Faculty of Engineering, University of Tokyo)
MoNA Rating=3.75

>  <NUM PEAKS>  (4646) 
27

>  <MASS SPECTRAL PEAKS>  (4646) 
45 11.78
47 3.6
51 4.08
65 3.26
73 74.45
74 12.32
75 2.92
78 5.19
79 2.82
81 4.86
89 3.09
91 3.34
93 6.69
95 6.95
103 5.62
105 35.49
106 4.74
115 9.75
125 2.72
133 25.2
134 4.15
177 3.47
193 99.99
194 17.89
195 7.75
261 0.45
263 0.3

$$$$

     RDKit          2D

 14 15  0  0  0  0  0  0  0  0999 V2000
   -1.6700   -0.9600    0.0000 C   0  0  0  0  0  0  0  0  0  0  0  0
   -0.3700   -1.7100    0.0000 C   0  0  0  0  0  0  0  0  0  0  0  0
   -1.6700    0.5400    0.0000 C   0  0  0  0  0  0  0  0  0  0  0  0
    6.1266    0.5417    0.0000 C   0  0  0  0  0  0  0  0  0  0  0  0
    6.1264   -0.9592    0.0000 C   0  0  0  0  0  0  0  0  0  0  0  0
    0.9300   -0.9600    0.0000 C   0  0  0  0  0  0  0  0  0  0  0  0
   -0.3700    1.2900    0.0000 C   0  0  0  0  0  0  0  0  0  0  0  0
    4.8275    1.2915    0.0000 C   0  0  0  0  0  0  0  0  0  0  0  0
    3.5278   -0.9604    0.0000 C   0  0  0  0  0  0  0  0  0  0  0  0
    4.8270   -1.7102    0.0000 C   0  0  0  0  0  0  0  0  0  0  0  0
    0.9300    0.5400    0.0000 C   0  0  0  0  0  0  0  0  0  0  0  0
    3.5281    0.5404    0.0000 C   0  0  0  0  0  0  0  0  0  0  0  0
    4.8275   -3.2102    0.0000 O   0  0  0  0  0  0  0  0  0  0  0  0
    2.2289    1.2902    0.0000 S   0  0  0  0  0  0  0  0  0  0  0  0
  2  1  2  0
  3  1  1  0
  5  4  1  0
  6  2  1  0
  7  3  2  0
  8  4  1  0
 10  5  1  0
 10  9  1  0
 11  6  2  0
 11  7  1  0
 12  8  1  0
 12  9  1  0
 13 10  2  0
 14 11  1  0
 14 12  1  0
M  END
>  <NAME>  (4647) 
3-PHENYLTHIOCYCLOHEXANONE

>  <SYNONYMS>  (4647) 


>  <SPECTRUM TYPE>  (4647) 
MS1

>  <INSTRUMENT TYPE>  (4647) 
EI-B

>  <INSTRUMENT>  (4647) 
JEOL JMS-D-3000

>  <ION MODE>  (4647) 
P

>  <INCHIKEY>  (4647) 
ODZCHNYVOXNEKZ-UHFFFAOYSA-N

>  <FORMULA>  (4647) 
C12H14OS

>  <EXACT MASS>  (4647) 
206.076536068

>  <MW>  (4647) 
206

>  <ID>  (4647) 
JP004974

>  <CONTRIBUTOR>  (4647) 
University of Tokyo Team, {Faculty of Engineering, University of Tokyo

>  <COMMENT>  (4647) 
SMILES=O=C(C2)CC(CC2)Sc(c1)cccc1
InChI=InChI=1S/C12H14OS/c13-10-5-4-8-12(9-10)14-11-6-2-1-3-7-11/h1-3,6-7,12H,4-5,8-9H2
computed SMILES=O=C1CCCC(SC=2C=CC=CC2)C1
accession=JP004974
date=2016.01.19 (Created 2008.10.21, modified 2011.05.06)
author=MASS SPECTROSCOPY SOC. OF JAPAN (MSSJ)
license=CC BY-NC-SA
exact mass=206.07654
ionization energy=70 eV
ion type=[M]+*
computed spectral entropy=2.552999263142144
computed normalized entropy=0.8033215922156459
SPLASH=splash10-0aov-9120000000-635cc5a359f4bd8f1fb0
submitter=submitter = University of Tokyo Team (Faculty of Engineering, University of Tokyo)
MoNA Rating=3.75

>  <NUM PEAKS>  (4647) 
24

>  <MASS SPECTRAL PEAKS>  (4647) 
42 81.46
45 4.95
51 6.75
53 3.85
55 39.97
65 13.39
66 9.64
67 6.02
68 15.78
69 99.99
70 6.06
77 7.33
84 4.17
91 3.82
96 9.67
97 77.41
98 5.95
109 17.28
110 46.01
111 3.84
135 4.01
206 77
207 10.89
208 4.37

$$$$

     RDKit          2D

 15 14  0  0  0  0  0  0  0  0999 V2000
   -1.3000    0.7500    0.0000 C   0  0  0  0  0  0  0  0  0  0  0  0
    0.0000    1.5000    0.0000 C   0  0  0  0  0  0  0  0  0  0  0  0
   -1.3000   -0.7500    0.0000 C   0  0  0  0  0  0  0  0  0  0  0  0
    1.3000    0.7500    0.0000 C   0  0  0  0  0  0  0  0  0  0  0  0
    0.0000   -1.5000    0.0000 C   0  0  0  0  0  3  0  0  0  0  0  0
    1.3000   -0.7500    0.0000 C   0  0  0  0  0  0  0  0  0  0  0  0
    2.5989   -1.5002    0.0000 F   0  0  0  0  0  0  0  0  0  0  0  0
   -1.3000    0.7500    0.0000 C   0  0  0  0  0  0  0  0  0  0  0  0
    0.0000    1.5000    0.0000 C   0  0  0  0  0  0  0  0  0  0  0  0
   -1.3000   -0.7500    0.0000 C   0  0  0  0  0  0  0  0  0  0  0  0
    1.3000    0.7500    0.0000 C   0  0  0  0  0  0  0  0  0  0  0  0
    0.0000   -1.5000    0.0000 C   0  0  0  0  0  3  0  0  0  0  0  0
    1.3000   -0.7500    0.0000 C   0  0  0  0  0  0  0  0  0  0  0  0
    2.5989   -1.5002    0.0000 F   0  0  0  0  0  0  0  0  0  0  0  0
    0.0000    0.0000    0.0000 Hg  0  0  0  0  0 15  0  0  0  0  0  0
  2  1  2  0
  3  1  1  0
  4  2  1  0
  5  3  2  0
  6  4  2  0
  6  5  1  0
  7  6  1  0
  9  8  2  0
 10  8  1  0
 11  9  1  0
 12 10  2  0
 13 11  2  0
 13 12  1  0
 14 13  1  0
M  RAD  2   5   2  12   2
M  END
>  <NAME>  (4648) 
BIS(O-FLUOROPHENYL)MERCURY

>  <SYNONYMS>  (4648) 


>  <SPECTRUM TYPE>  (4648) 
MS1

>  <INSTRUMENT TYPE>  (4648) 
EI-B

>  <INSTRUMENT>  (4648) 
JEOL JMS-D-3000

>  <ION MODE>  (4648) 
P

>  <INCHIKEY>  (4648) 
VCIMYPFASJQYDJ-UHFFFAOYSA-N

>  <FORMULA>  (4648) 
C12H8F2Hg

>  <EXACT MASS>  (4648) 
392.030049696

>  <MW>  (4648) 
392

>  <ID>  (4648) 
JP004973

>  <CONTRIBUTOR>  (4648) 
University of Tokyo Team, {Faculty of Engineering, University of Tokyo

>  <COMMENT>  (4648) 
SMILES=Fc(c2)c(ccc2)[Hg]c(c1)c(F)ccc1
InChI=InChI=1S/2C6H4F.Hg/c2*7-6-4-2-1-3-5-6;/h2*1-4H;
computed SMILES=[Hg].FC1=[C]C=CC=C1.FC1=[C]C=CC=C1
accession=JP004973
date=2016.01.19 (Created 2008.10.21, modified 2011.05.06)
author=MASS SPECTROSCOPY SOC. OF JAPAN (MSSJ)
license=CC BY-NC-SA
exact mass=392.03003
ionization energy=70 eV
ion type=[M]+*
computed spectral entropy=2.7216958317540096
computed normalized entropy=0.8082734541814647
SPLASH=splash10-0007-3039000000-5450f19952542e8eae61
submitter=submitter = University of Tokyo Team (Faculty of Engineering, University of Tokyo)
MoNA Rating=3.75

>  <NUM PEAKS>  (4648) 
29

>  <MASS SPECTRAL PEAKS>  (4648) 
28 4.59
32 1.39
70 1.56
95 50.41
96 68.44
97 4.02
189 1.69
190 7.62
191 1.02
198 1.42
199 2.21
200 3.75
201 1.84
202 4.34
293 12
294 19.41
295 28.88
296 17.77
297 36.89
298 2.01
299 7.71
388 31.59
389 58.02
390 82.24
391 52.89
392 99.99
393 12.57
394 22.59
395 2.45

$$$$

     RDKit          2D

 15 15  0  0  0  0  0  0  0  0999 V2000
   -3.1086    0.0467    0.0000 C   0  0  0  0  0  0  0  0  0  0  0  0
   -4.0728    1.7167    0.0000 C   0  0  0  0  0  0  0  0  0  0  0  0
   -6.8490   -3.0919    0.0000 C   0  0  0  0  0  0  0  0  0  0  0  0
   -4.9207   -3.0919    0.0000 C   0  0  0  0  0  0  0  0  0  0  0  0
   -0.6887   -1.9428    0.0000 C   0  0  0  0  0  0  0  0  0  0  0  0
   -1.9877   -1.1928    0.0000 C   0  0  0  0  0  0  0  0  0  0  0  0
   -7.1839    0.3072    0.0000 C   0  0  0  0  0  0  0  0  0  0  0  0
    0.6103   -1.1928    0.0000 C   0  0  0  0  0  0  0  0  0  0  0  0
   -3.2868   -1.9428    0.0000 C   0  0  0  0  0  0  0  0  0  0  0  0
   -5.8848    1.0572    0.0000 C   0  0  0  0  0  0  0  0  0  0  0  0
   -7.1839   -1.1928    0.0000 C   0  0  0  0  0  0  0  0  0  0  0  0
    1.9094   -1.9428    0.0000 Cl  0  0  0  0  0  0  0  0  0  0  0  0
   -4.5858   -1.1928    0.0000 N   0  0  0  0  0  0  0  0  0  0  0  0
   -4.5858    0.3072    0.0000 Si  0  0  0  0  0  4  0  0  0  0  0  0
   -5.8848   -1.9428    0.0000 Si  0  0  0  0  0  4  0  0  0  0  0  0
  6  5  1  0
  8  5  1  0
  9  6  1  0
 10  7  1  0
 11  7  1  0
 12  8  1  0
 13  9  1  0
 14  1  1  0
 14  2  1  0
 14 10  1  0
 14 13  1  0
 15  3  1  0
 15  4  1  0
 15 11  1  0
 15 13  1  0
M  END
>  <NAME>  (4649) 
1-(4-CHLOROBUTYL)-2,2,6,6-TETRAMETHYL-2,6-DISILAPIPERIDINE

>  <SYNONYMS>  (4649) 


>  <SPECTRUM TYPE>  (4649) 
MS1

>  <INSTRUMENT TYPE>  (4649) 
EI-B

>  <INSTRUMENT>  (4649) 
JEOL JMS-D-3000

>  <ION MODE>  (4649) 
P

>  <INCHIKEY>  (4649) 
ZYFRNLUVMCUXNF-UHFFFAOYSA-N

>  <FORMULA>  (4649) 
C11H26ClNSi2

>  <EXACT MASS>  (4649) 
263.129230572

>  <MW>  (4649) 
263

>  <ID>  (4649) 
JP004972

>  <CONTRIBUTOR>  (4649) 
University of Tokyo Team, {Faculty of Engineering, University of Tokyo

>  <COMMENT>  (4649) 
SMILES=ClCCCCN([Si](C)(C)1)[Si](C)(C)CCC1
InChI=InChI=1S/C11H26ClNSi2/c1-14(2)10-7-11-15(3,4)13(14)9-6-5-8-12/h5-11H2,1-4H3
computed SMILES=ClCCCCN1[Si](C)(C)CCC[Si]1(C)C
ionization energy=70 eV
accession=JP004972
date=2016.01.19 (Created 2008.10.21, modified 2011.05.06)
author=MASS SPECTROSCOPY SOC. OF JAPAN (MSSJ)
license=CC BY-NC-SA
exact mass=263.12923
ion type=[M]+*
computed spectral entropy=2.243722395835199
computed normalized entropy=0.7155881150845339
SPLASH=splash10-000i-4910000000-dabb1fc54cf41c50268f
submitter=submitter = University of Tokyo Team (Faculty of Engineering, University of Tokyo)
MoNA Rating=3.75

>  <NUM PEAKS>  (4649) 
23

>  <MASS SPECTRAL PEAKS>  (4649) 
41 3.78
43 4.01
45 3.7
59 18.81
73 11.32
85 4.69
86 5.48
88 6.78
93 3.86
99 4.01
100 2.89
117 1.8
130 1.82
144 3.6
158 1.8
170 2.92
186 99.99
187 19.65
188 9.29
206 9.31
207 1.72
208 3.88
263 1.22

$$$$

     RDKit          2D

 15 15  0  0  0  0  0  0  0  0999 V2000
   -2.5476    4.3306    0.0000 C   0  0  0  0  0  0  0  0  0  0  0  0
   -4.5966    3.7816    0.0000 C   0  0  0  0  0  0  0  0  0  0  0  0
   -4.0476    1.7326    0.0000 C   0  0  0  0  0  0  0  0  0  0  0  0
    3.1976    0.7816    0.0000 C   0  0  0  0  0  0  0  0  0  0  0  0
    3.1981    2.2824    0.0000 C   0  0  0  0  0  0  0  0  0  0  0  0
    1.8981    0.0308    0.0000 C   0  0  0  0  0  0  0  0  0  0  0  0
    1.8990    3.0324    0.0000 C   0  0  0  0  0  0  0  0  0  0  0  0
    0.5990    0.7808    0.0000 C   0  0  0  0  0  0  0  0  0  0  0  0
    0.5995    2.2816    0.0000 C   0  0  0  0  0  0  0  0  0  0  0  0
   -0.6995    3.0316    0.0000 C   0  0  0  0  0  0  0  0  0  0  0  0
   -1.9986    2.2816    0.0000 C   0  0  0  0  0  0  0  0  0  0  0  0
   -2.9627    1.1325    0.0000 Cl  0  0  0  0  0  0  0  0  0  0  0  0
   -1.0344    1.1325    0.0000 Cl  0  0  0  0  0  0  0  0  0  0  0  0
   -0.6995    4.5316    0.0000 O   0  0  0  0  0  0  0  0  0  0  0  0
   -3.2976    3.0316    0.0000 Si  0  0  0  0  0  4  0  0  0  0  0  0
  5  4  2  0
  6  4  1  0
  7  5  1  0
  8  6  2  0
  9  7  2  0
  9  8  1  0
 10  9  1  0
 11 10  1  0
 12 11  1  0
 13 11  1  0
 14 10  1  0
 15  1  1  0
 15  2  1  0
 15  3  1  0
 15 11  1  0
M  END
>  <NAME>  (4650) 
2,2-DICHLORO-1-PHENYL-2-TRIMETHYLSILYLETHANOL

>  <SYNONYMS>  (4650) 


>  <SPECTRUM TYPE>  (4650) 
MS1

>  <INSTRUMENT TYPE>  (4650) 
EI-B

>  <INSTRUMENT>  (4650) 
JEOL JMS-D-3000

>  <ION MODE>  (4650) 
P

>  <INCHIKEY>  (4650) 
OWRRAILSOARBMK-UHFFFAOYSA-N

>  <FORMULA>  (4650) 
C11H16Cl2OSi

>  <EXACT MASS>  (4650) 
262.034747022

>  <MW>  (4650) 
262

>  <ID>  (4650) 
JP004971

>  <CONTRIBUTOR>  (4650) 
University of Tokyo Team, {Faculty of Engineering, University of Tokyo

>  <COMMENT>  (4650) 
SMILES=c(c1)ccc(c1)C(O)C(Cl)(Cl)[Si](C)(C)C
InChI=InChI=1S/C11H16Cl2OSi/c1-15(2,3)11(12,13)10(14)9-7-5-4-6-8-9/h4-8,10,14H,1-3H3
computed SMILES=ClC(Cl)(C(O)C=1C=CC=CC1)[Si](C)(C)C
accession=JP004971
date=2016.01.19 (Created 2008.10.21, modified 2011.05.06)
author=MASS SPECTROSCOPY SOC. OF JAPAN (MSSJ)
license=CC BY-NC-SA
exact mass=262.03475
ionization energy=70 eV
ion type=[M]+*
computed spectral entropy=2.623661369237038
computed normalized entropy=0.8052742877994302
SPLASH=splash10-0adi-5900000000-cf69747ffd1faca28ba9
submitter=submitter = University of Tokyo Team (Faculty of Engineering, University of Tokyo)
MoNA Rating=3.75

>  <NUM PEAKS>  (4650) 
26

>  <MASS SPECTRAL PEAKS>  (4650) 
43 3.1
44 2.72
45 5.97
51 3.38
65 3.09
73 25.99
74 2.66
75 15.22
77 9.02
79 18.06
91 4.95
93 16.39
95 8.05
102 3.35
105 4.54
107 99.99
108 7.79
119 11.49
137 6.73
155 3.55
172 18.97
174 11.96
179 17.02
180 2.89
183 2.46
226 1.42

$$$$

     RDKit          2D

 15 15  0  0  0  0  0  0  0  0999 V2000
   -2.2231    3.7686    0.0000 C   0  0  0  0  0  0  0  0  0  0  0  0
   -4.2721    3.2195    0.0000 C   0  0  0  0  0  0  0  0  0  0  0  0
   -3.7231    1.1705    0.0000 C   0  0  0  0  0  0  0  0  0  0  0  0
    3.5221    0.2195    0.0000 C   0  0  0  0  0  0  0  0  0  0  0  0
    3.5226    1.7204    0.0000 C   0  0  0  0  0  0  0  0  0  0  0  0
    2.2226   -0.5313    0.0000 C   0  0  0  0  0  0  0  0  0  0  0  0
    2.2236    2.4704    0.0000 C   0  0  0  0  0  0  0  0  0  0  0  0
    0.9236    0.2187    0.0000 C   0  0  0  0  0  0  0  0  0  0  0  0
    0.9240    1.7195    0.0000 C   0  0  0  0  0  0  0  0  0  0  0  0
   -0.3750    2.4695    0.0000 C   0  0  0  0  0  0  0  0  0  0  0  0
   -0.3750    3.9695    0.0000 C   0  0  0  0  0  0  0  0  0  0  0  0
   -1.6740    4.7195    0.0000 Cl  0  0  0  0  0  0  0  0  0  0  0  0
    0.9240    4.7195    0.0000 Cl  0  0  0  0  0  0  0  0  0  0  0  0
   -1.6740    1.7195    0.0000 O   0  0  0  0  0  0  0  0  0  0  0  0
   -2.9731    2.4695    0.0000 Si  0  0  0  0  0  4  0  0  0  0  0  0
  5  4  2  0
  6  4  1  0
  7  5  1  0
  8  6  2  0
  9  7  2  0
  9  8  1  0
 10  9  1  0
 11 10  1  0
 12 11  1  0
 13 11  1  0
 14 10  1  0
 15  1  1  0
 15  2  1  0
 15  3  1  0
 15 14  1  0
M  END
>  <NAME>  (4651) 
1,1-DICHLORO-2-PHENYL-2-TRIMETHYLSILOXYETHANE

>  <SYNONYMS>  (4651) 


>  <SPECTRUM TYPE>  (4651) 
MS1

>  <INSTRUMENT TYPE>  (4651) 
EI-B

>  <INSTRUMENT>  (4651) 
JEOL JMS-D-3000

>  <ION MODE>  (4651) 
P

>  <INCHIKEY>  (4651) 
WUTQBTWFSIXMBI-UHFFFAOYSA-N

>  <FORMULA>  (4651) 
C11H16Cl2OSi

>  <EXACT MASS>  (4651) 
262.034747022

>  <MW>  (4651) 
262

>  <ID>  (4651) 
JP004970

>  <CONTRIBUTOR>  (4651) 
University of Tokyo Team, {Faculty of Engineering, University of Tokyo

>  <COMMENT>  (4651) 
SMILES=c(c1)ccc(c1)C(C(Cl)Cl)O[Si](C)(C)C
InChI=InChI=1S/C11H16Cl2OSi/c1-15(2,3)14-10(11(12)13)9-7-5-4-6-8-9/h4-8,10-11H,1-3H3
computed SMILES=ClC(Cl)C(O[Si](C)(C)C)C=1C=CC=CC1
accession=JP004970
date=2016.01.19 (Created 2008.10.21, modified 2011.05.06)
author=MASS SPECTROSCOPY SOC. OF JAPAN (MSSJ)
license=CC BY-NC-SA
exact mass=262.03475
ionization energy=70 eV
ion type=[M]+*
computed spectral entropy=2.7198667508571295
computed normalized entropy=0.855827778901828
SPLASH=splash10-005c-6900000000-b8a8fc29876ca6575f7d
submitter=submitter = University of Tokyo Team (Faculty of Engineering, University of Tokyo)
MoNA Rating=3.75

>  <NUM PEAKS>  (4651) 
24

>  <MASS SPECTRAL PEAKS>  (4651) 
43 7.25
45 15.24
51 7.87
65 6.24
74 17.72
75 17.1
77 17.49
79 5.96
90 4.69
91 29.9
92 12.57
93 47.11
95 17.91
102 9.62
103 19.8
105 7.22
119 29.98
138 8.63
163 5.51
179 99.99
180 70.74
181 20.56
247 1.82
249 1.37

$$$$

     RDKit          2D

 13 13  0  0  0  0  0  0  0  0999 V2000
   -5.1959    2.5696    0.0000 C   0  0  0  0  0  0  0  0  0  0  0  0
   -3.8969    0.3196    0.0000 C   0  0  0  0  0  0  0  0  0  0  0  0
   -3.8969    3.3196    0.0000 C   0  0  0  0  0  0  0  0  0  0  0  0
   -2.5978    1.0696    0.0000 C   0  0  0  0  0  0  0  0  0  0  0  0
    2.5983    1.0696    0.0000 C   0  0  0  0  0  0  0  0  0  0  0  0
    2.5988    2.5704    0.0000 C   0  0  0  0  0  0  0  0  0  0  0  0
    1.2988    0.3188    0.0000 C   0  0  0  0  0  0  0  0  0  0  0  0
    1.2998    3.3204    0.0000 C   0  0  0  0  0  0  0  0  0  0  0  0
   -0.0002    1.0688    0.0000 C   0  0  0  0  0  0  0  0  0  0  0  0
    0.0002    2.5696    0.0000 C   0  0  0  0  0  0  0  0  0  0  0  0
   -1.2988    3.3196    0.0000 C   0  0  0  0  0  0  0  0  0  0  0  0
   -2.5978    2.5696    0.0000 N   0  0  0  0  0  0  0  0  0  0  0  0
   -1.2988    4.8196    0.0000 O   0  0  0  0  0  0  0  0  0  0  0  0
  3  1  1  0
  4  2  1  0
  6  5  2  0
  7  5  1  0
  8  6  1  0
  9  7  2  0
 10  8  2  0
 10  9  1  0
 11 10  1  0
 12  3  1  0
 12  4  1  0
 12 11  1  0
 13 11  2  0
M  END
>  <NAME>  (4652) 
N,N-DIETHYLBENZAMIDE

>  <SYNONYMS>  (4652) 


>  <SPECTRUM TYPE>  (4652) 
MS1

>  <INSTRUMENT TYPE>  (4652) 
EI-B

>  <INSTRUMENT>  (4652) 
JEOL JMS-D-3000

>  <ION MODE>  (4652) 
P

>  <INCHIKEY>  (4652) 
JLNGEXDJAQASHD-UHFFFAOYSA-N

>  <FORMULA>  (4652) 
C11H15NO

>  <EXACT MASS>  (4652) 
177.1153641

>  <MW>  (4652) 
177

>  <ID>  (4652) 
JP004969

>  <CONTRIBUTOR>  (4652) 
University of Tokyo Team, {Faculty of Engineering, University of Tokyo

>  <COMMENT>  (4652) 
SMILES=CCN(CC)C(=O)c(c1)cccc1
InChI=InChI=1S/C11H15NO/c1-3-12(4-2)11(13)10-8-6-5-7-9-10/h5-9H,3-4H2,1-2H3
computed SMILES=O=C(C=1C=CC=CC1)N(CC)CC
accession=JP004969
date=2016.01.19 (Created 2008.10.21, modified 2011.05.06)
author=MASS SPECTROSCOPY SOC. OF JAPAN (MSSJ)
license=CC BY-NC-SA
exact mass=177.11536
ionization energy=70 eV
ion type=[M]+*
computed spectral entropy=1.788047006966725
computed normalized entropy=0.6602709972802452
SPLASH=splash10-0a6r-3900000000-c2ac50229b0f5be1728e
submitter=submitter = University of Tokyo Team (Faculty of Engineering, University of Tokyo)
MoNA Rating=3.75

>  <NUM PEAKS>  (4652) 
15

>  <MASS SPECTRAL PEAKS>  (4652) 
51 3.49
52 12.31
53 1.04
56 2.08
72 1.26
76 2.01
77 39.86
78 3.41
105 99.99
106 8.22
134 2.28
148 3.31
176 20.38
177 14.72
178 1.71

$$$$

     RDKit          2D

 16 16  0  0  0  0  0  0  0  0999 V2000
    4.6840    1.7974    0.0000 C   0  0  0  0  0  0  0  0  0  0  0  0
    5.2228    3.8492    0.0000 C   0  0  0  0  0  0  0  0  0  0  0  0
    3.1710    4.3879    0.0000 C   0  0  0  0  0  0  0  0  0  0  0  0
   -1.2553    3.0566    0.0000 C   0  0  0  0  0  0  0  0  0  0  0  0
    0.0397    0.8136    0.0000 C   0  0  0  0  0  0  0  0  0  0  0  0
   -2.5543    2.3066    0.0000 C   0  0  0  0  0  0  0  0  0  0  0  0
   -1.2593    0.0636    0.0000 C   0  0  0  0  0  0  0  0  0  0  0  0
    0.0342    2.3231    0.0000 C   0  0  0  0  0  0  0  0  0  0  0  0
   -2.5725    0.8181    0.0000 C   0  0  0  0  0  0  0  0  0  0  0  0
    1.3295    3.0796    0.0000 C   0  0  0  0  0  0  0  0  0  0  0  0
    2.6323    2.3361    0.0000 C   0  0  0  0  0  0  0  0  0  0  0  0
   -3.8753    0.0747    0.0000 Cl  0  0  0  0  0  0  0  0  0  0  0  0
    1.6739    1.1822    0.0000 Cl  0  0  0  0  0  0  0  0  0  0  0  0
    3.6022    1.1919    0.0000 Cl  0  0  0  0  0  0  0  0  0  0  0  0
    1.3219    4.5796    0.0000 O   0  0  0  0  0  0  0  0  0  0  0  0
    3.9275    3.0926    0.0000 Si  0  0  0  0  0  4  0  0  0  0  0  0
  6  4  2  0
  7  5  1  0
  8  4  1  0
  8  5  2  0
  9  6  1  0
  9  7  2  0
 10  8  1  0
 11 10  1  0
 12  9  1  0
 13 11  1  0
 14 11  1  0
 15 10  1  0
 16  1  1  0
 16  2  1  0
 16  3  1  0
 16 11  1  0
M  END
>  <NAME>  (4653) 
1-(P-CHLOROPHENYL)-2,2-DICHLORO-2-TRIMETHYLSILYLETHANOL

>  <SYNONYMS>  (4653) 


>  <SPECTRUM TYPE>  (4653) 
MS1

>  <INSTRUMENT TYPE>  (4653) 
EI-B

>  <INSTRUMENT>  (4653) 
JEOL JMS-D-3000

>  <ION MODE>  (4653) 
P

>  <INCHIKEY>  (4653) 
WJDFXRPGSMEIJW-UHFFFAOYSA-N

>  <FORMULA>  (4653) 
C11H15Cl3OSi

>  <EXACT MASS>  (4653) 
295.99577466999995

>  <MW>  (4653) 
296

>  <ID>  (4653) 
JP004968

>  <CONTRIBUTOR>  (4653) 
University of Tokyo Team, {Faculty of Engineering, University of Tokyo

>  <COMMENT>  (4653) 
SMILES=Clc(c1)ccc(c1)C(O)C(Cl)(Cl)[Si](C)(C)C
InChI=InChI=1S/C11H15Cl3OSi/c1-16(2,3)11(13,14)10(15)8-4-6-9(12)7-5-8/h4-7,10,15H,1-3H3
computed SMILES=ClC1=CC=C(C=C1)C(O)C(Cl)(Cl)[Si](C)(C)C
accession=JP004968
date=2016.01.19 (Created 2008.10.21, modified 2011.05.06)
author=MASS SPECTROSCOPY SOC. OF JAPAN (MSSJ)
license=CC BY-NC-SA
exact mass=295.99577
ionization energy=70 eV
ion type=[M]+*
computed spectral entropy=2.758520759167771
computed normalized entropy=0.827836572078444
SPLASH=splash10-0006-9820000000-9e927c7eb82fff3670e5
submitter=submitter = University of Tokyo Team (Faculty of Engineering, University of Tokyo)
MoNA Rating=3.75

>  <NUM PEAKS>  (4653) 
28

>  <MASS SPECTRAL PEAKS>  (4653) 
43 3.88
45 9.11
51 3.14
63 3.73
65 5.01
73 57.03
74 5.54
75 34.18
77 19.41
89 4.47
93 32.6
95 14.74
113 6.39
125 3.66
136 6.48
139 4.92
141 99.99
142 8.06
143 32.22
153 9.62
155 3.12
171 6.75
173 4.29
206 21.04
208 20.13
210 6.53
260 4.61
262 3.27

$$$$

     RDKit          2D

 16 16  0  0  0  0  0  0  0  0999 V2000
  -12.4532    6.1553    0.0000 C   0  0  0  0  0  0  0  0  0  0  0  0
  -12.4572    4.1490    0.0000 C   0  0  0  0  0  0  0  0  0  0  0  0
   -8.4186    7.2697    0.0000 C   0  0  0  0  0  0  0  0  0  0  0  0
   -9.6414    7.2697    0.0000 C   0  0  0  0  0  0  0  0  0  0  0  0
   -9.6386    3.0290    0.0000 C   0  0  0  0  0  0  0  0  0  0  0  0
   -8.4214    3.0290    0.0000 C   0  0  0  0  0  0  0  0  0  0  0  0
   -5.6028    4.1490    0.0000 C   0  0  0  0  0  0  0  0  0  0  0  0
   -5.6068    6.1553    0.0000 C   0  0  0  0  0  0  0  0  0  0  0  0
  -10.4600    6.3600    0.0000 C   0  0  0  0  0  0  0  0  0  0  0  0
   -7.6000    3.9300    0.0000 C   0  0  0  0  0  0  0  0  0  0  0  0
  -10.4600    3.9300    0.0000 N   0  0  0  0  0  0  0  0  0  0  0  0
   -7.6000    6.3600    0.0000 N   0  0  0  0  0  0  0  0  0  0  0  0
  -11.3400    5.1500    0.0000 Si  0  0  0  0  0  4  0  0  0  0  0  0
   -9.0300    5.9000    0.0000 Si  0  0  0  0  0  4  0  0  0  0  0  0
   -9.0300    4.4000    0.0000 Si  0  0  0  0  0  4  0  0  0  0  0  0
   -6.7200    5.1500    0.0000 Si  0  0  0  0  0  4  0  0  0  0  0  0
 13  1  1  0
 13  2  1  0
 13  9  1  0
 13 11  1  0
 14  3  1  0
 14  4  1  0
 14  9  1  0
 14 12  1  0
 15  5  1  0
 15  6  1  0
 15 10  1  0
 15 11  1  0
 16  7  1  0
 16  8  1  0
 16 10  1  0
 16 12  1  0
M  END
>  <NAME>  (4654) 
2,2,4,4,6,6,8,8-OCTAMETHYL-1,5-DIAZA-2,4,6,8-TETRASILACYCLOOCTANE

>  <SYNONYMS>  (4654) 


>  <SPECTRUM TYPE>  (4654) 
MS1

>  <INSTRUMENT TYPE>  (4654) 
EI-B

>  <INSTRUMENT>  (4654) 
JEOL JMS-D-3000

>  <ION MODE>  (4654) 
P

>  <INCHIKEY>  (4654) 
NVVQBMDSDDUFJD-UHFFFAOYSA-N

>  <FORMULA>  (4654) 
C10H30N2Si4

>  <EXACT MASS>  (4654) 
290.14860508

>  <MW>  (4654) 
290

>  <ID>  (4654) 
JP004967

>  <CONTRIBUTOR>  (4654) 
University of Tokyo Team, {Faculty of Engineering, University of Tokyo

>  <COMMENT>  (4654) 
SMILES=C[Si](C)(C1)N[Si](C)(C)C[Si](C)(C)N[Si](C)(C)1
InChI=InChI=1S/C10H30N2Si4/c1-13(2)9-14(3,4)12-16(7,8)10-15(5,6)11-13/h11-12H,9-10H2,1-8H3
computed SMILES=N1[Si](C)(C)C[Si](N[Si](C)(C)C[Si]1(C)C)(C)C
accession=JP004967
date=2016.01.19 (Created 2008.10.21, modified 2011.05.06)
author=MASS SPECTROSCOPY SOC. OF JAPAN (MSSJ)
license=CC BY-NC-SA
exact mass=290.14861
ionization energy=70 eV
ion type=[M]+*
computed spectral entropy=2.2683271790385238
computed normalized entropy=0.7046954596738451
SPLASH=splash10-004i-0190000000-2d6e0f51ea7a8eb76b25
submitter=submitter = University of Tokyo Team (Faculty of Engineering, University of Tokyo)
MoNA Rating=3.75

>  <NUM PEAKS>  (4654) 
25

>  <MASS SPECTRAL PEAKS>  (4654) 
59 1.45
73 5.22
74 1.74
100 3.26
114 1.81
116 1.81
130 11.46
131 4.42
170 1.66
172 1.3
186 2.97
187 5.22
188 2.39
189 1.59
203 3.62
242 1.88
243 3.04
258 6.6
259 20.46
260 6.09
261 3.55
275 99.99
276 32.43
277 18.57
278 3.99

$$$$

     RDKit          2D

 11 10  0  0  0  0  0  0  0  0999 V2000
   -8.2697    4.9755    0.0000 C   0  0  0  0  0  0  0  0  0  0  0  0
    0.0736    2.9264    0.0000 C   0  0  0  0  0  0  0  0  0  0  0  0
    2.1226    3.4755    0.0000 C   0  0  0  0  0  0  0  0  0  0  0  0
    1.5736    5.5245    0.0000 C   0  0  0  0  0  0  0  0  0  0  0  0
   -6.9707    4.2255    0.0000 C   0  0  0  0  0  0  0  0  0  0  0  0
   -5.6716    4.9755    0.0000 C   0  0  0  0  0  0  0  0  0  0  0  0
   -4.3726    4.2255    0.0000 C   0  0  0  0  0  0  0  0  0  0  0  0
   -3.0736    4.9755    0.0000 C   0  0  0  0  0  0  0  0  0  0  0  0
   -1.7745    4.2255    0.0000 C   0  0  0  0  0  0  0  0  0  0  0  0
   -0.4755    4.9755    0.0000 C   0  0  0  0  0  0  0  0  0  0  0  0
    0.8236    4.2255    0.0000 Si  0  0  0  0  0  4  0  0  0  0  0  0
  5  1  1  0
  6  5  1  0
  7  6  1  0
  8  7  1  0
  8  9  2  0
 10  9  1  0
 11  2  1  0
 11  3  1  0
 11  4  1  0
 11 10  1  0
M  END
>  <NAME>  (4655) 
2-HEPTENYLTRIMETHYLSILANE

>  <SYNONYMS>  (4655) 
1-TRIMETHYLSILYL-2-HEPTENE

>  <SPECTRUM TYPE>  (4655) 
MS1

>  <INSTRUMENT TYPE>  (4655) 
EI-B

>  <INSTRUMENT>  (4655) 
JEOL JMS-D-3000

>  <ION MODE>  (4655) 
P

>  <INCHIKEY>  (4655) 
UGNHZGDOTJSVAL-CMDGGOBGSA-N

>  <FORMULA>  (4655) 
C10H22Si

>  <EXACT MASS>  (4655) 
170.149077234

>  <MW>  (4655) 
170

>  <ID>  (4655) 
JP004966

>  <CONTRIBUTOR>  (4655) 
University of Tokyo Team, {Faculty of Engineering, University of Tokyo

>  <COMMENT>  (4655) 
SMILES=CCCCC=CC[Si](C)(C)C
InChI=InChI=1S/C10H22Si/c1-5-6-7-8-9-10-11(2,3)4/h8-9H,5-7,10H2,1-4H3/b9-8+
computed SMILES=C(=CC[Si](C)(C)C)CCCC
accession=JP004966
date=2016.01.19 (Created 2008.10.21, modified 2011.05.06)
author=MASS SPECTROSCOPY SOC. OF JAPAN (MSSJ)
license=CC BY-NC-SA
exact mass=170.14908
ionization energy=70 eV
ion type=[M]+*
computed spectral entropy=1.5759414290102796
computed normalized entropy=0.5684007210911491
SPLASH=splash10-00di-9100000000-048c16150592020e8abc
submitter=submitter = University of Tokyo Team (Faculty of Engineering, University of Tokyo)
MoNA Rating=3.75

>  <NUM PEAKS>  (4655) 
16

>  <MASS SPECTRAL PEAKS>  (4655) 
45 5.02
59 5.83
73 99.99
74 8.48
75 4.23
77 1.33
79 2.94
85 1.18
93 1.52
94 10.73
95 1.57
111 4.66
153 3.68
168 7.05
169 1.09
170 0.53

$$$$

     RDKit          2D

 13 12  0  0  0  0  0  0  0  0999 V2000
   -7.1447    3.3750    0.0000 C   0  0  0  0  0  0  0  0  0  0  0  0
   -1.3995    1.3260    0.0000 C   0  0  0  0  0  0  0  0  0  0  0  0
    0.6495    1.8750    0.0000 C   0  0  0  0  0  0  0  0  0  0  0  0
    0.1005    3.9240    0.0000 C   0  0  0  0  0  0  0  0  0  0  0  0
   -0.4486    4.8750    0.0000 C   0  0  0  0  0  0  0  0  0  0  0  0
   -1.9486    6.3750    0.0000 C   0  0  0  0  0  0  0  0  0  0  0  0
   -3.4486    4.8750    0.0000 C   0  0  0  0  0  0  0  0  0  0  0  0
   -5.8457    2.6250    0.0000 C   0  0  0  0  0  0  0  0  0  0  0  0
   -4.5466    3.3750    0.0000 C   0  0  0  0  0  0  0  0  0  0  0  0
   -3.2476    2.6250    0.0000 C   0  0  0  0  0  0  0  0  0  0  0  0
   -1.9486    3.3750    0.0000 N   0  0  0  0  0  0  0  0  0  0  0  0
   -0.6495    2.6250    0.0000 Si  0  0  0  0  0  4  0  0  0  0  0  0
   -1.9486    4.8750    0.0000 Si  0  0  0  0  0  4  0  0  0  0  0  0
  8  1  1  0
  9  8  1  0
 10  9  1  0
 11 10  1  0
 12  2  1  0
 12  3  1  0
 12  4  1  0
 12 11  1  0
 13  5  1  0
 13  6  1  0
 13  7  1  0
 13 11  1  0
M  END
>  <NAME>  (4656) 
BUTYLBIS(TRIMETHYLSILYL)AMINE

>  <SYNONYMS>  (4656) 


>  <SPECTRUM TYPE>  (4656) 
MS1

>  <INSTRUMENT TYPE>  (4656) 
EI-B

>  <INSTRUMENT>  (4656) 
JEOL JMS-D-3000

>  <ION MODE>  (4656) 
P

>  <INCHIKEY>  (4656) 
VJVMYSNNXQHHFU-UHFFFAOYSA-N

>  <FORMULA>  (4656) 
C10H27NSi2

>  <EXACT MASS>  (4656) 
217.16820292399998

>  <MW>  (4656) 
217

>  <ID>  (4656) 
JP004965

>  <CONTRIBUTOR>  (4656) 
University of Tokyo Team, {Faculty of Engineering, University of Tokyo

>  <COMMENT>  (4656) 
SMILES=CCCCN([Si](C)(C)C)[Si](C)(C)C
InChI=InChI=1S/C10H27NSi2/c1-8-9-10-11(12(2,3)4)13(5,6)7/h8-10H2,1-7H3
computed SMILES=N(CCCC)([Si](C)(C)C)[Si](C)(C)C
accession=JP004965
date=2016.01.19 (Created 2008.10.21, modified 2011.05.06)
author=MASS SPECTROSCOPY SOC. OF JAPAN (MSSJ)
license=CC BY-NC-SA
exact mass=217.1682
ionization energy=70 eV
ion type=[M]+*
computed spectral entropy=2.5908762542833332
computed normalized entropy=0.7694234142456502
SPLASH=splash10-00di-5910000000-6e38b1e0a58a7ebe95f5
submitter=submitter = University of Tokyo Team (Faculty of Engineering, University of Tokyo)
MoNA Rating=3.75

>  <NUM PEAKS>  (4656) 
29

>  <MASS SPECTRAL PEAKS>  (4656) 
41 2.41
43 2.54
45 9.66
47 1.54
59 19.26
60 1.98
72 1.54
73 50.68
74 4.33
75 7.49
86 22.49
87 2.29
94 1.42
100 11.58
101 1.85
102 4.33
114 2.47
117 1.73
128 34.01
129 4.33
130 6.19
131 2.97
174 99.99
175 17.84
176 8.85
202 25.58
203 5.32
204 2.29
217 3.34

$$$$

     RDKit          2D

 13 13  0  0  0  0  0  0  0  0999 V2000
   -5.1962   -3.0000    0.0000 C   0  0  0  0  0  0  0  0  0  0  0  0
   -2.2632   -1.8991    0.0000 C   0  0  0  0  0  0  0  0  0  0  0  0
   -0.3349   -1.8991    0.0000 C   0  0  0  0  0  0  0  0  0  0  0  0
   -3.1111    2.9095    0.0000 C   0  0  0  0  0  0  0  0  0  0  0  0
   -4.0753    1.2395    0.0000 C   0  0  0  0  0  0  0  0  0  0  0  0
   -3.8971   -2.2500    0.0000 C   0  0  0  0  0  0  0  0  0  0  0  0
    0.0000    1.5000    0.0000 C   0  0  0  0  0  0  0  0  0  0  0  0
   -3.8971   -0.7500    0.0000 C   0  0  0  0  0  0  0  0  0  0  0  0
    0.0000   -0.0000    0.0000 C   0  0  0  0  0  0  0  0  0  0  0  0
   -1.2990    2.2500    0.0000 C   0  0  0  0  0  0  0  0  0  0  0  0
   -2.5981   -0.0000    0.0000 N   0  0  0  0  0  0  0  0  0  0  0  0
   -1.2990   -0.7500    0.0000 Si  0  0  0  0  0  4  0  0  0  0  0  0
   -2.5981    1.5000    0.0000 Si  0  0  0  0  0  4  0  0  0  0  0  0
  6  1  1  0
  8  6  1  0
  9  7  1  0
 10  7  1  0
 11  8  1  0
 12  2  1  0
 12  3  1  0
 12  9  1  0
 12 11  1  0
 13  4  1  0
 13  5  1  0
 13 10  1  0
 13 11  1  0
M  END
>  <NAME>  (4657) 
1-PROPYL-2,2,6,6-TETRAMETHYL-2,6-DISILAPIPERIDINE

>  <SYNONYMS>  (4657) 


>  <SPECTRUM TYPE>  (4657) 
MS1

>  <INSTRUMENT TYPE>  (4657) 
EI-B

>  <INSTRUMENT>  (4657) 
JEOL JMS-D-3000

>  <ION MODE>  (4657) 
P

>  <INCHIKEY>  (4657) 
HKEZIKHMMUJDIJ-UHFFFAOYSA-N

>  <FORMULA>  (4657) 
C10H25NSi2

>  <EXACT MASS>  (4657) 
215.15255286

>  <MW>  (4657) 
215

>  <ID>  (4657) 
JP004964

>  <CONTRIBUTOR>  (4657) 
University of Tokyo Team, {Faculty of Engineering, University of Tokyo

>  <COMMENT>  (4657) 
SMILES=CCCN([Si](C)(C)1)[Si](C)(C)CCC1
InChI=InChI=1S/C10H25NSi2/c1-6-8-11-12(2,3)9-7-10-13(11,4)5/h6-10H2,1-5H3
computed SMILES=N1(CCC)[Si](C)(C)CCC[Si]1(C)C
accession=JP004964
date=2016.01.19 (Created 2008.10.21, modified 2011.05.06)
author=MASS SPECTROSCOPY SOC. OF JAPAN (MSSJ)
license=CC BY-NC-SA
exact mass=215.15255
ionization energy=70 eV
ion type=[M]+*
computed spectral entropy=2.1762353425103464
computed normalized entropy=0.6602982583748694
SPLASH=splash10-000i-1910000000-df11085171f06e6c54d9
submitter=submitter = University of Tokyo Team (Faculty of Engineering, University of Tokyo)
MoNA Rating=3.75

>  <NUM PEAKS>  (4657) 
27

>  <MASS SPECTRAL PEAKS>  (4657) 
43 2.68
45 3.13
59 11.13
73 6.59
85 2.1
86 2.34
88 3.68
99 1.5
100 2.36
114 2.04
115 1.25
116 1.38
117 2.77
130 1.37
131 1.63
144 2.38
158 1.42
159 3.32
170 1.46
172 3.17
186 99.99
187 20.05
188 8.82
200 14.51
201 3.09
202 1.42
215 2.68

$$$$

     RDKit          2D

 13 13  0  0  0  0  0  0  0  0999 V2000
    0.5418   -0.9097    0.0000 C   0  0  0  0  0  0  0  0  0  0  0  0
   -6.9418    1.6884    0.0000 C   0  0  0  0  0  0  0  0  0  0  0  0
   -5.4500    0.3452    0.0000 C   0  0  0  0  0  0  0  0  0  0  0  0
   -2.0491    2.3087    0.0000 C   0  0  0  0  0  0  0  0  0  0  0  0
   -2.4664    4.2722    0.0000 C   0  0  0  0  0  0  0  0  0  0  0  0
   -0.9582   -0.9097    0.0000 C   0  0  0  0  0  0  0  0  0  0  0  0
   -1.7082    0.3893    0.0000 C   0  0  0  0  0  0  0  0  0  0  0  0
   -3.2082    0.3893    0.0000 C   0  0  0  0  0  0  0  0  0  0  0  0
   -5.7619    3.3124    0.0000 C   0  0  0  0  0  0  0  0  0  0  0  0
   -4.4628    4.0624    0.0000 C   0  0  0  0  0  0  0  0  0  0  0  0
   -3.9582    1.6884    0.0000 N   0  0  0  0  0  0  0  0  0  0  0  0
   -5.4500    1.8452    0.0000 Si  0  0  0  0  0  4  0  0  0  0  0  0
   -3.3481    3.0587    0.0000 Si  0  0  0  0  0  4  0  0  0  0  0  0
  6  1  1  0
  7  6  1  0
  8  7  1  0
 10  9  1  0
 11  8  1  0
 12  2  1  0
 12  3  1  0
 12  9  1  0
 12 11  1  0
 13  4  1  0
 13  5  1  0
 13 10  1  0
 13 11  1  0
M  END
>  <NAME>  (4658) 
1-BUTYL-2,2,5,5-TETRAMETHYL-2,5-DISILAPYRROLIDINE

>  <SYNONYMS>  (4658) 


>  <SPECTRUM TYPE>  (4658) 
MS1

>  <INSTRUMENT TYPE>  (4658) 
EI-B

>  <INSTRUMENT>  (4658) 
JEOL JMS-D-3000

>  <ION MODE>  (4658) 
P

>  <INCHIKEY>  (4658) 
MFAHYUQAWVRZMH-UHFFFAOYSA-N

>  <FORMULA>  (4658) 
C10H25NSi2

>  <EXACT MASS>  (4658) 
215.15255286

>  <MW>  (4658) 
215

>  <ID>  (4658) 
JP004963

>  <CONTRIBUTOR>  (4658) 
University of Tokyo Team, {Faculty of Engineering, University of Tokyo

>  <COMMENT>  (4658) 
SMILES=CCCCN([Si](C)(C)1)[Si](C)(C)CC1
InChI=InChI=1S/C10H25NSi2/c1-6-7-8-11-12(2,3)9-10-13(11,4)5/h6-10H2,1-5H3
computed SMILES=N1(CCCC)[Si](C)(C)CC[Si]1(C)C
accession=JP004963
date=2016.01.19 (Created 2008.10.21, modified 2011.05.06)
author=MASS SPECTROSCOPY SOC. OF JAPAN (MSSJ)
license=CC BY-NC-SA
exact mass=215.15255
ionization energy=70 eV
ion type=[M]+*
computed spectral entropy=2.5513444556155336
computed normalized entropy=0.6870324339443292
SPLASH=splash10-00di-2900000000-212cb433e79d1669c459
submitter=submitter = University of Tokyo Team (Faculty of Engineering, University of Tokyo)
MoNA Rating=3.75

>  <NUM PEAKS>  (4658) 
41

>  <MASS SPECTRAL PEAKS>  (4658) 
41 2.08
43 2.38
45 4.26
58 1.37
59 13.71
60 1.16
71 1.82
72 1.32
73 12.29
74 1.42
79 1.92
85 3.4
86 2.08
100 2.79
101 1.57
102 1.21
103 1.77
114 1.01
115 1.11
116 2.33
117 9.34
118 1.52
119 1.01
128 1.16
129 1.37
130 2.03
131 1.37
132 1.16
144 1.37
145 7.56
146 1.32
158 2.59
160 1.32
172 99.99
173 19.14
174 8.37
175 1.11
198 1.06
200 10.86
201 2.23
215 2.64

$$$$

     RDKit          2D

 13 13  0  0  0  0  0  0  0  0999 V2000
   -5.1962   -3.0000    0.0000 C   0  0  0  0  0  0  0  0  0  0  0  0
   -2.2632   -1.8991    0.0000 C   0  0  0  0  0  0  0  0  0  0  0  0
   -0.3349   -1.8991    0.0000 C   0  0  0  0  0  0  0  0  0  0  0  0
   -3.1111    2.9095    0.0000 C   0  0  0  0  0  0  0  0  0  0  0  0
   -4.0753    1.2395    0.0000 C   0  0  0  0  0  0  0  0  0  0  0  0
   -3.8971   -2.2500    0.0000 C   0  0  0  0  0  0  0  0  0  0  0  0
    0.0000    1.5000    0.0000 C   0  0  0  0  0  0  0  0  0  0  0  0
   -3.8971   -0.7500    0.0000 C   0  0  0  0  0  0  0  0  0  0  0  0
    0.0000   -0.0000    0.0000 C   0  0  0  0  0  0  0  0  0  0  0  0
   -1.2990    2.2500    0.0000 C   0  0  0  0  0  0  0  0  0  0  0  0
   -2.5981   -0.0000    0.0000 N   0  0  0  0  0  0  0  0  0  0  0  0
   -1.2990   -0.7500    0.0000 Si  0  0  0  0  0  4  0  0  0  0  0  0
   -2.5981    1.5000    0.0000 Si  0  0  0  0  0  4  0  0  0  0  0  0
  6  1  2  0
  8  6  1  0
  9  7  1  0
 10  7  1  0
 11  8  1  0
 12  2  1  0
 12  3  1  0
 12  9  1  0
 12 11  1  0
 13  4  1  0
 13  5  1  0
 13 10  1  0
 13 11  1  0
M  END
>  <NAME>  (4659) 
1-ALLYL-2,2,6,6-TETRAMETHYL-2,6-DISILAPIPERIDINE

>  <SYNONYMS>  (4659) 


>  <SPECTRUM TYPE>  (4659) 
MS1

>  <INSTRUMENT TYPE>  (4659) 
EI-B

>  <INSTRUMENT>  (4659) 
JEOL JMS-D-3000

>  <ION MODE>  (4659) 
P

>  <INCHIKEY>  (4659) 
LXIRELDZPWPPQB-UHFFFAOYSA-N

>  <FORMULA>  (4659) 
C10H23NSi2

>  <EXACT MASS>  (4659) 
213.136902796

>  <MW>  (4659) 
213

>  <ID>  (4659) 
JP004962

>  <CONTRIBUTOR>  (4659) 
University of Tokyo Team, {Faculty of Engineering, University of Tokyo

>  <COMMENT>  (4659) 
SMILES=C=CCN([Si](C)(C)1)[Si](C)(C)CCC1
InChI=InChI=1S/C10H23NSi2/c1-6-8-11-12(2,3)9-7-10-13(11,4)5/h6H,1,7-10H2,2-5H3
computed SMILES=C=CCN1[Si](C)(C)CCC[Si]1(C)C
accession=JP004962
date=2016.01.19 (Created 2008.10.21, modified 2011.05.06)
author=MASS SPECTROSCOPY SOC. OF JAPAN (MSSJ)
license=CC BY-NC-SA
exact mass=213.1369
ionization energy=70 eV
ion type=[M]+*
computed spectral entropy=2.830042259444363
computed normalized entropy=0.8686182948903471
SPLASH=splash10-0002-3910000000-3f3d7bc1e73268d48b5d
submitter=submitter = University of Tokyo Team (Faculty of Engineering, University of Tokyo)
MoNA Rating=3.75

>  <NUM PEAKS>  (4659) 
26

>  <MASS SPECTRAL PEAKS>  (4659) 
42 1.91
43 1.43
45 14.35
52 14.35
58 9.09
59 22
66 9.56
69 1.91
72 10.04
73 11
75 13.87
102 8.13
117 11.96
119 4.3
131 14.83
132 7.65
133 14.35
159 44.01
160 11
161 9.09
174 10.04
186 7.65
198 99.99
199 18.66
200 13.87
213 17.7

$$$$

     RDKit          2D

 11  6  0  0  0  0  0  0  0  0999 V2000
    1.9486    3.3750    0.0000 C   0  0  0  0  0  3  0  0  0  0  0  0
   -5.8457    3.3750    0.0000 C   0  0  0  0  0  0  0  0  0  0  0  0
    0.6495    4.1250    0.0000 C   0  0  0  0  0  0  0  0  0  0  0  0
   -4.5466    4.1250    0.0000 C   0  0  0  0  0  0  0  0  0  0  0  0
   -0.6495    3.3750    0.0000 C   0  0  0  0  0  0  0  0  0  0  0  0
   -3.2476    3.3750    0.0000 C   0  0  0  0  0  0  0  0  0  0  0  0
   -1.9486    4.1250    0.0000 C   0  0  0  0  0  0  0  0  0  0  0  0
    0.0000    0.0000    0.0000 C   0  0  0  0  0  3  0  0  0  0  0  0
    0.0000    0.0000    0.0000 C   0  0  0  0  0  3  0  0  0  0  0  0
    0.0000    0.0000    0.0000 C   0  0  0  0  0  3  0  0  0  0  0  0
    0.0000    0.0000    0.0000 Sn  0  0  0  0  0 15  0  0  0  0  0  0
  3  1  1  0
  4  2  1  0
  5  3  1  0
  6  4  1  0
  5  7  2  0
  7  6  1  0
M  RAD  4   1   2   8   2   9   2  10   2
M  END
>  <NAME>  (4660) 
3-HEPTENYLTRIMETHYLSTANNANE

>  <SYNONYMS>  (4660) 
1-TRIMETHYLSTANNYL-3-HEPTENE

>  <SPECTRUM TYPE>  (4660) 
MS1

>  <INSTRUMENT TYPE>  (4660) 
EI-B

>  <INSTRUMENT>  (4660) 
JEOL JMS-D-3000

>  <ION MODE>  (4660) 
P

>  <INCHIKEY>  (4660) 
TZNXFWLGOAUSQR-IGFSWITOSA-N

>  <FORMULA>  (4660) 
C10H22Sn

>  <EXACT MASS>  (4660) 
262.074345404

>  <MW>  (4660) 
262

>  <ID>  (4660) 
JP004961

>  <CONTRIBUTOR>  (4660) 
University of Tokyo Team, {Faculty of Engineering, University of Tokyo

>  <COMMENT>  (4660) 
SMILES=CCCC=CCC[Sn](C)(C)C
InChI=InChI=1S/C7H13.3CH3.Sn/c1-3-5-7-6-4-2;;;;/h5,7H,1,3-4,6H2,2H3;3*1H3;/b7-5+;;;;
computed SMILES=[Sn].[CH3].[CH3].[CH3].[CH2]CC=CCCC
accession=JP004961
date=2016.01.19 (Created 2008.10.21, modified 2011.05.06)
author=MASS SPECTROSCOPY SOC. OF JAPAN (MSSJ)
license=CC BY-NC-SA
exact mass=262.07435
ionization energy=70 eV
ion type=[M]+*
computed spectral entropy=3.2519015935028435
computed normalized entropy=0.8939723901268216
SPLASH=splash10-03xs-0920000000-1a30c2658f8f53a41cd2
submitter=submitter = University of Tokyo Team (Faculty of Engineering, University of Tokyo)
MoNA Rating=3.75

>  <NUM PEAKS>  (4660) 
38

>  <MASS SPECTRAL PEAKS>  (4660) 
41 5.54
55 6.89
118 7.5
120 5.08
131 10.83
132 10.41
133 18.2
134 7.92
135 24.03
137 5.36
139 6.43
146 6.3
147 19.75
148 14.67
149 31.15
150 17.69
151 35.72
153 8.51
155 6.73
157 5.02
161 45.2
162 25.14
163 75.07
164 28.93
165 99.99
166 5.3
167 15.19
169 18.57
243 15.76
244 9.55
245 26.1
246 11.58
247 34.13
248 5.15
249 7.46
251 9.19
260 5.38
262 7.16

$$$$

     RDKit          2D

 11 10  0  0  0  0  0  0  0  0999 V2000
    2.5111    3.6998    0.0000 C   0  0  0  0  0  0  0  0  0  0  0  0
    1.2120    5.9498    0.0000 C   0  0  0  0  0  0  0  0  0  0  0  0
   -6.0332    4.9988    0.0000 C   0  0  0  0  0  0  0  0  0  0  0  0
   -6.5822    2.9498    0.0000 C   0  0  0  0  0  0  0  0  0  0  0  0
   -4.5332    2.4007    0.0000 C   0  0  0  0  0  0  0  0  0  0  0  0
   -1.3861    4.4498    0.0000 C   0  0  0  0  0  0  0  0  0  0  0  0
   -2.6851    3.6998    0.0000 C   0  0  0  0  0  0  0  0  0  0  0  0
   -0.0870    3.6998    0.0000 C   0  0  0  0  0  0  0  0  0  0  0  0
   -3.9841    4.4498    0.0000 C   0  0  0  0  0  0  0  0  0  0  0  0
    1.2120    4.4498    0.0000 C   0  0  0  0  0  0  0  0  0  0  0  0
   -5.2832    3.6998    0.0000 Si  0  0  0  0  0  4  0  0  0  0  0  0
  7  6  1  0
  6  8  2  0
  9  7  1  0
 10  1  1  0
 10  2  1  0
 10  8  1  0
 11  3  1  0
 11  4  1  0
 11  5  1  0
 11  9  1  0
M  END
>  <NAME>  (4661) 
5-METHYL-3-HEXENYLTRIMETHYLSILANE

>  <SYNONYMS>  (4661) 
5-METHYL-1-TRIMETHYLSILYL-3-HEXENE

>  <SPECTRUM TYPE>  (4661) 
MS1

>  <INSTRUMENT TYPE>  (4661) 
EI-B

>  <INSTRUMENT>  (4661) 
JEOL JMS-D-3000

>  <ION MODE>  (4661) 
P

>  <INCHIKEY>  (4661) 
JULRGPRGMOYRIX-SOFGYWHQSA-N

>  <FORMULA>  (4661) 
C10H22Si

>  <EXACT MASS>  (4661) 
170.149077234

>  <MW>  (4661) 
170

>  <ID>  (4661) 
JP004960

>  <CONTRIBUTOR>  (4661) 
University of Tokyo Team, {Faculty of Engineering, University of Tokyo

>  <COMMENT>  (4661) 
SMILES=CC(C)C=CCC[Si](C)(C)C
InChI=InChI=1S/C10H22Si/c1-10(2)8-6-7-9-11(3,4)5/h6,8,10H,7,9H2,1-5H3/b8-6+
computed SMILES=C(=CC(C)C)CC[Si](C)(C)C
accession=JP004960
date=2016.01.19 (Created 2008.10.21, modified 2011.05.06)
author=MASS SPECTROSCOPY SOC. OF JAPAN (MSSJ)
license=CC BY-NC-SA
exact mass=170.14908
ionization energy=70 eV
ion type=[M]+*
computed spectral entropy=2.2059030735497287
computed normalized entropy=0.6619951046863402
SPLASH=splash10-00di-9200000000-4665438a32d8c0fcc91e
submitter=submitter = University of Tokyo Team (Faculty of Engineering, University of Tokyo)
MoNA Rating=3.75

>  <NUM PEAKS>  (4661) 
28

>  <MASS SPECTRAL PEAKS>  (4661) 
41 2.94
43 2.61
44 5.06
45 4.16
55 1.37
56 1.28
58 1.24
59 6.56
72 1.35
73 99.99
74 8.84
75 3.92
81 2.12
82 1.13
85 1.97
95 1.65
96 2.23
99 4.65
101 2.34
113 1.39
117 5.25
119 5.28
121 1.67
127 6.61
128 1.05
155 4.63
170 16.78
171 2.83

$$$$

     RDKit          2D

 17 17  0  0  0  0  0  0  0  0999 V2000
    4.8277   -3.2094    0.0000 C   0  0  0  0  0  0  0  0  0  0  0  0
    8.1753   -0.0079    0.0000 C   0  0  0  0  0  0  0  0  0  0  0  0
    8.7240    2.0412    0.0000 C   0  0  0  0  0  0  0  0  0  0  0  0
    6.6749    2.5900    0.0000 C   0  0  0  0  0  0  0  0  0  0  0  0
    4.8275   -1.7094    0.0000 C   0  0  0  0  0  0  0  0  0  0  0  0
   -1.6700   -0.9600    0.0000 C   0  0  0  0  0  0  0  0  0  0  0  0
   -0.3700   -1.7100    0.0000 C   0  0  0  0  0  0  0  0  0  0  0  0
   -1.6700    0.5400    0.0000 C   0  0  0  0  0  0  0  0  0  0  0  0
    3.5283   -0.9596    0.0000 C   0  0  0  0  0  0  0  0  0  0  0  0
    0.9300   -0.9600    0.0000 C   0  0  0  0  0  0  0  0  0  0  0  0
   -0.3700    1.2900    0.0000 C   0  0  0  0  0  0  0  0  0  0  0  0
    4.8270    1.2906    0.0000 C   0  0  0  0  0  0  0  0  0  0  0  0
    6.1262    0.5408    0.0000 C   0  0  0  0  0  0  0  0  0  0  0  0
    3.5281    0.5404    0.0000 C   0  0  0  0  0  0  0  0  0  0  0  0
    0.9300    0.5400    0.0000 C   0  0  0  0  0  0  0  0  0  0  0  0
    2.2289    1.2902    0.0000 S   0  0  0  0  0  0  0  0  0  0  0  0
    7.4251    1.2910    0.0000 Si  0  0  0  0  0  4  0  0  0  0  0  0
  5  1  2  0
  7  6  2  0
  8  6  1  0
  9  5  1  0
 10  7  1  0
 11  8  2  0
 13 12  1  0
 14  9  1  0
 14 12  1  0
 15 10  2  0
 15 11  1  0
 16 14  1  0
 16 15  1  0
 17  2  1  0
 17  3  1  0
 17  4  1  0
 17 13  1  0
M  END
>  <NAME>  (4662) 
(3-PHENYLTHIO-5-HEXENYL)TRIMETHYLSILANE

>  <SYNONYMS>  (4662) 
4-PHENYLTHIO-6-TRIMETHYLSILYL-1-HEXENE

>  <SPECTRUM TYPE>  (4662) 
MS1

>  <INSTRUMENT TYPE>  (4662) 
EI-B

>  <INSTRUMENT>  (4662) 
JEOL JMS-D-3000

>  <ION MODE>  (4662) 
P

>  <INCHIKEY>  (4662) 
LZQJZXYYZMVBJU-UHFFFAOYSA-N

>  <FORMULA>  (4662) 
C15H24SSi

>  <EXACT MASS>  (4662) 
264.13679829800003

>  <MW>  (4662) 
264

>  <ID>  (4662) 
JP004959

>  <CONTRIBUTOR>  (4662) 
University of Tokyo Team, {Faculty of Engineering, University of Tokyo

>  <COMMENT>  (4662) 
SMILES=C=CCC(CC[Si](C)(C)C)Sc(c1)cccc1
InChI=InChI=1S/C15H24SSi/c1-5-9-14(12-13-17(2,3)4)16-15-10-7-6-8-11-15/h5-8,10-11,14H,1,9,12-13H2,2-4H3
computed SMILES=S(C=1C=CC=CC1)C(CC=C)CC[Si](C)(C)C
accession=JP004959
date=2016.01.19 (Created 2008.10.21, modified 2011.05.06)
author=MASS SPECTROSCOPY SOC. OF JAPAN (MSSJ)
license=CC BY-NC-SA
exact mass=264.1368
ionization energy=70 eV
ion type=[M]+*
computed spectral entropy=2.161205125379762
computed normalized entropy=0.6633336674217086
SPLASH=splash10-00di-9110000000-ad431a8ac2d876adeb54
submitter=submitter = University of Tokyo Team (Faculty of Engineering, University of Tokyo)
MoNA Rating=3.75

>  <NUM PEAKS>  (4662) 
26

>  <MASS SPECTRAL PEAKS>  (4662) 
41 3.47
45 6.94
53 1.41
59 5.84
65 2.24
67 1.6
72 1.67
73 99.99
74 9.06
75 5.91
77 2.57
79 1.6
85 1.47
91 3.14
101 1.73
109 3.59
110 2.63
135 1.6
151 2.12
167 11.18
168 1.79
182 1.92
223 14.01
224 3.47
249 3.66
264 3.92

$$$$

     RDKit          2D

 14 13  0  0  0  0  0  0  0  0999 V2000
   -7.3825    3.7868    0.0000 C   0  0  0  0  0  0  0  0  0  0  0  0
   -3.4853    1.5368    0.0000 C   0  0  0  0  0  0  0  0  0  0  0  0
    1.1618    2.4877    0.0000 C   0  0  0  0  0  0  0  0  0  0  0  0
    1.7108    4.5368    0.0000 C   0  0  0  0  0  0  0  0  0  0  0  0
   -0.3382    5.0858    0.0000 C   0  0  0  0  0  0  0  0  0  0  0  0
   -6.0834    3.0368    0.0000 C   0  0  0  0  0  0  0  0  0  0  0  0
   -4.7844    3.7868    0.0000 C   0  0  0  0  0  0  0  0  0  0  0  0
   -3.4853    3.0368    0.0000 C   0  0  0  0  0  0  0  0  0  0  0  0
   -2.1863    3.7868    0.0000 C   0  0  0  0  0  0  0  0  0  0  0  0
   -0.8873    3.0368    0.0000 C   0  0  0  0  0  0  0  0  0  0  0  0
   -1.8514    1.8877    0.0000 Cl  0  0  0  0  0  0  0  0  0  0  0  0
    0.0769    1.8877    0.0000 Cl  0  0  0  0  0  0  0  0  0  0  0  0
   -2.1863    5.2868    0.0000 O   0  0  0  0  0  0  0  0  0  0  0  0
    0.4118    3.7868    0.0000 Si  0  0  0  0  0  4  0  0  0  0  0  0
  6  1  1  0
  7  6  1  0
  8  2  1  0
  8  7  1  0
  9  8  1  0
 10  9  1  0
 11 10  1  0
 12 10  1  0
 13  9  1  0
 14  3  1  0
 14  4  1  0
 14  5  1  0
 14 10  1  0
M  END
>  <NAME>  (4663) 
1,1-DICHLORO-3-METHYL-1-TRIMETHYLSILYL-2-HEXANOL

>  <SYNONYMS>  (4663) 


>  <SPECTRUM TYPE>  (4663) 
MS1

>  <INSTRUMENT TYPE>  (4663) 
EI-B

>  <INSTRUMENT>  (4663) 
JEOL JMS-D-3000

>  <ION MODE>  (4663) 
P

>  <INCHIKEY>  (4663) 
SSUALHCFYMRLAJ-UHFFFAOYSA-N

>  <FORMULA>  (4663) 
C10H22Cl2OSi

>  <EXACT MASS>  (4663) 
256.081697214

>  <MW>  (4663) 
256

>  <ID>  (4663) 
JP004958

>  <CONTRIBUTOR>  (4663) 
University of Tokyo Team, {Faculty of Engineering, University of Tokyo

>  <COMMENT>  (4663) 
SMILES=CCCC(C)C(O)C(Cl)(Cl)[Si](C)(C)C
cas=88920-81-4
InChI=InChI=1S/C10H22Cl2OSi/c1-6-7-8(2)9(13)10(11,12)14(3,4)5/h8-9,13H,6-7H2,1-5H3
computed SMILES=ClC(Cl)(C(O)C(C)CCC)[Si](C)(C)C
accession=JP004958
date=2016.01.19 (Created 2008.10.21, modified 2011.05.06)
author=MASS SPECTROSCOPY SOC. OF JAPAN (MSSJ)
license=CC BY-NC-SA
exact mass=256.0817
ionization energy=70 eV
ion type=[M]+*
computed spectral entropy=2.8124179997114442
computed normalized entropy=0.8268905576826663
SPLASH=splash10-00di-9200000000-befb85019e9f134cabdc
submitter=submitter = University of Tokyo Team (Faculty of Engineering, University of Tokyo)
MoNA Rating=3.75

>  <NUM PEAKS>  (4663) 
30

>  <MASS SPECTRAL PEAKS>  (4663) 
42 4.82
43 24.43
45 15.06
55 20.14
57 7.21
59 10.01
70 99.99
71 18.44
73 64.89
74 6.88
75 27.28
83 25.64
89 8.6
91 4.05
93 14.09
95 8.62
101 18.53
105 4.04
110 6.3
112 4.47
123 19.56
125 12.83
163 3.49
173 4.17
177 6.02
178 2.08
179 2.33
185 1.03
205 1.07
220 0.59

$$$$

     RDKit          2D

 14 13  0  0  0  0  0  0  0  0999 V2000
   -8.2697    4.9755    0.0000 C   0  0  0  0  0  0  0  0  0  0  0  0
    0.0736    2.9264    0.0000 C   0  0  0  0  0  0  0  0  0  0  0  0
    2.1226    3.4755    0.0000 C   0  0  0  0  0  0  0  0  0  0  0  0
    1.5736    5.5245    0.0000 C   0  0  0  0  0  0  0  0  0  0  0  0
   -6.9707    4.2255    0.0000 C   0  0  0  0  0  0  0  0  0  0  0  0
   -5.6716    4.9755    0.0000 C   0  0  0  0  0  0  0  0  0  0  0  0
   -4.3726    4.2255    0.0000 C   0  0  0  0  0  0  0  0  0  0  0  0
   -3.0736    4.9755    0.0000 C   0  0  0  0  0  0  0  0  0  0  0  0
   -1.7745    4.2255    0.0000 C   0  0  0  0  0  0  0  0  0  0  0  0
   -0.4755    4.9755    0.0000 C   0  0  0  0  0  0  0  0  0  0  0  0
    0.4887    6.1245    0.0000 Cl  0  0  0  0  0  0  0  0  0  0  0  0
   -1.4397    6.1245    0.0000 Cl  0  0  0  0  0  0  0  0  0  0  0  0
   -1.7745    2.7255    0.0000 O   0  0  0  0  0  0  0  0  0  0  0  0
    0.8236    4.2255    0.0000 Si  0  0  0  0  0  4  0  0  0  0  0  0
  5  1  1  0
  6  5  1  0
  7  6  1  0
  8  7  1  0
  9  8  1  0
 10  9  1  0
 11 10  1  0
 12 10  1  0
 13  9  1  0
 14  2  1  0
 14  3  1  0
 14  4  1  0
 14 10  1  0
M  END
>  <NAME>  (4664) 
1,1-DICHLORO-1-TRIMETHYLSILYL-2-HEPTANOL

>  <SYNONYMS>  (4664) 


>  <SPECTRUM TYPE>  (4664) 
MS1

>  <INSTRUMENT TYPE>  (4664) 
EI-B

>  <INSTRUMENT>  (4664) 
JEOL JMS-D-3000

>  <ION MODE>  (4664) 
P

>  <INCHIKEY>  (4664) 
OHGNPNQLXCOCCC-UHFFFAOYSA-N

>  <FORMULA>  (4664) 
C10H22Cl2OSi

>  <EXACT MASS>  (4664) 
256.081697214

>  <MW>  (4664) 
256

>  <ID>  (4664) 
JP004957

>  <CONTRIBUTOR>  (4664) 
University of Tokyo Team, {Faculty of Engineering, University of Tokyo

>  <COMMENT>  (4664) 
SMILES=CCCCCC(O)C(Cl)(Cl)[Si](C)(C)C
cas=88920-80-3
InChI=InChI=1S/C10H22Cl2OSi/c1-5-6-7-8-9(13)10(11,12)14(2,3)4/h9,13H,5-8H2,1-4H3
computed SMILES=ClC(Cl)(C(O)CCCCC)[Si](C)(C)C
accession=JP004957
date=2016.01.19 (Created 2008.10.21, modified 2011.05.06)
author=MASS SPECTROSCOPY SOC. OF JAPAN (MSSJ)
license=CC BY-NC-SA
exact mass=256.0817
ionization energy=70 eV
ion type=[M]+*
computed spectral entropy=2.5954369174839647
computed normalized entropy=0.8396639504786185
SPLASH=splash10-00di-9000000000-fe36138b3b45d855626e
submitter=submitter = University of Tokyo Team (Faculty of Engineering, University of Tokyo)
MoNA Rating=3.75

>  <NUM PEAKS>  (4664) 
22

>  <MASS SPECTRAL PEAKS>  (4664) 
42 11.25
43 7.6
45 10.08
55 10.38
57 15.61
68 11.61
70 30.88
73 99.99
74 8.69
75 54.37
76 4.49
83 23.93
91 11.91
93 32.18
95 25.7
99 5.09
143 5.15
149 11.2
163 8.99
173 3.73
177 1.28
220 2.07

$$$$

     RDKit          2D

 14 14  0  0  0  0  0  0  0  0999 V2000
    6.4962   -0.7508    0.0000 C   0  0  0  0  0  0  0  0  0  0  0  0
    2.1474   -4.0587    0.0000 C   0  0  0  0  0  0  0  0  0  0  0  0
    5.0402   -2.3892    0.0000 C   0  0  0  0  0  0  0  0  0  0  0  0
    5.1970   -1.5006    0.0000 C   0  0  0  0  0  0  0  0  0  0  0  0
   -1.3000    0.7500    0.0000 C   0  0  0  0  0  0  0  0  0  0  0  0
    0.0000    1.5000    0.0000 C   0  0  0  0  0  0  0  0  0  0  0  0
   -1.3000   -0.7500    0.0000 C   0  0  0  0  0  0  0  0  0  0  0  0
    1.3000    0.7500    0.0000 C   0  0  0  0  0  0  0  0  0  0  0  0
   -0.0000   -1.5000    0.0000 C   0  0  0  0  0  0  0  0  0  0  0  0
    1.3000   -0.7500    0.0000 C   0  0  0  0  0  0  0  0  0  0  0  0
    1.6346   -2.6491    0.0000 O   0  0  0  0  0  0  0  0  0  0  0  0
    3.5629   -2.6494    0.0000 O   0  0  0  0  0  0  0  0  0  0  0  0
    3.8981   -0.7504    0.0000 O   0  0  0  0  0  0  0  0  0  0  0  0
    2.5989   -1.5002    0.0000 Si  0  0  0  0  0  4  0  0  0  0  0  0
  4  1  1  0
  6  5  2  0
  7  5  1  0
  8  6  1  0
  9  7  2  0
 10  8  2  0
 10  9  1  0
 11  2  1  0
 12  3  1  0
 13  4  1  0
 14 10  1  0
 14 11  1  0
 14 12  1  0
 14 13  1  0
M  END
>  <NAME>  (4665) 
ETHOXY DIMETHOXY PHENYLSILANE

>  <SYNONYMS>  (4665) 


>  <SPECTRUM TYPE>  (4665) 
MS1

>  <INSTRUMENT TYPE>  (4665) 
EI-B

>  <INSTRUMENT>  (4665) 
JEOL JMS-D-3000

>  <ION MODE>  (4665) 
P

>  <INCHIKEY>  (4665) 
CBXRNQWZWLYUFD-UHFFFAOYSA-N

>  <FORMULA>  (4665) 
C10H16O3Si

>  <EXACT MASS>  (4665) 
212.086870902

>  <MW>  (4665) 
212

>  <ID>  (4665) 
JP004956

>  <CONTRIBUTOR>  (4665) 
University of Tokyo Team, {Faculty of Engineering, University of Tokyo

>  <COMMENT>  (4665) 
SMILES=CCO[Si](OC)(OC)c(c1)cccc1
InChI=InChI=1S/C10H16O3Si/c1-4-13-14(11-2,12-3)10-8-6-5-7-9-10/h5-9H,4H2,1-3H3
computed SMILES=O(C)[Si](OC)(OCC)C=1C=CC=CC1
accession=JP004956
date=2016.01.19 (Created 2008.10.21, modified 2011.05.06)
author=MASS SPECTROSCOPY SOC. OF JAPAN (MSSJ)
license=CC BY-NC-SA
exact mass=212.08687
ionization energy=70 eV
ion type=[M]+*
computed spectral entropy=2.641556609724572
computed normalized entropy=0.8971340986908097
SPLASH=splash10-014i-2900000000-c4adbbc57b9b07d88a9c
submitter=submitter = University of Tokyo Team (Faculty of Engineering, University of Tokyo)
MoNA Rating=3.75

>  <NUM PEAKS>  (4665) 
19

>  <MASS SPECTRAL PEAKS>  (4665) 
59 15.1
77 18.78
84 9.31
90 23
91 40.36
104 24.89
105 11.05
107 61.05
119 77.68
120 11.42
121 9.84
123 11.89
134 82.73
135 20.47
136 11.47
137 25.15
167 99.99
168 16.52
212 39.63

$$$$

     RDKit          2D

 13 13  0  0  0  0  0  0  0  0999 V2000
    5.5772   -0.0083    0.0000 C   0  0  0  0  0  0  0  0  0  0  0  0
    6.1259    2.0408    0.0000 C   0  0  0  0  0  0  0  0  0  0  0  0
    4.0768    2.5895    0.0000 C   0  0  0  0  0  0  0  0  0  0  0  0
   -1.6700   -0.9600    0.0000 C   0  0  0  0  0  0  0  0  0  0  0  0
   -0.3700   -1.7100    0.0000 C   0  0  0  0  0  0  0  0  0  0  0  0
   -1.6700    0.5400    0.0000 C   0  0  0  0  0  0  0  0  0  0  0  0
    0.9300   -0.9600    0.0000 C   0  0  0  0  0  0  0  0  0  0  0  0
   -0.3700    1.2900    0.0000 C   0  0  0  0  0  0  0  0  0  0  0  0
    0.9300    0.5400    0.0000 C   0  0  0  0  0  0  0  0  0  0  0  0
    3.5281    0.5404    0.0000 C   0  0  0  0  0  0  0  0  0  0  0  0
    3.5283   -0.9596    0.0000 Cl  0  0  0  0  0  0  0  0  0  0  0  0
    2.2289    1.2902    0.0000 S   0  0  0  0  0  0  0  0  0  0  0  0
    4.8270    1.2906    0.0000 Si  0  0  0  0  0  4  0  0  0  0  0  0
  5  4  2  0
  6  4  1  0
  7  5  1  0
  8  6  2  0
  9  7  2  0
  9  8  1  0
 11 10  1  0
 12  9  1  0
 12 10  1  0
 13  1  1  0
 13  2  1  0
 13  3  1  0
 13 10  1  0
M  END
>  <NAME>  (4666) 
CHLORO(TRIMETHYLSILYL)METHYL PHENYL SULFIDE

>  <SYNONYMS>  (4666) 


>  <SPECTRUM TYPE>  (4666) 
MS1

>  <INSTRUMENT TYPE>  (4666) 
EI-B

>  <INSTRUMENT>  (4666) 
JEOL JMS-D-3000

>  <ION MODE>  (4666) 
P

>  <INCHIKEY>  (4666) 
QNJUWMRZLQBWEU-UHFFFAOYSA-N

>  <FORMULA>  (4666) 
C10H15ClSSi

>  <EXACT MASS>  (4666) 
230.03522568999998

>  <MW>  (4666) 
230

>  <ID>  (4666) 
JP004955

>  <CONTRIBUTOR>  (4666) 
University of Tokyo Team, {Faculty of Engineering, University of Tokyo

>  <COMMENT>  (4666) 
SMILES=c(c1)ccc(c1)SC(Cl)[Si](C)(C)C
cas=79239-13-7
InChI=InChI=1S/C10H15ClSSi/c1-13(2,3)10(11)12-9-7-5-4-6-8-9/h4-8,10H,1-3H3
computed SMILES=ClC(SC=1C=CC=CC1)[Si](C)(C)C
accession=JP004955
date=2016.01.19 (Created 2008.10.21, modified 2011.05.06)
author=MASS SPECTROSCOPY SOC. OF JAPAN (MSSJ)
license=CC BY-NC-SA
exact mass=230.03523
ionization energy=70 eV
ion type=[M]+*
computed spectral entropy=3.251165303281443
computed normalized entropy=0.8353842300631907
SPLASH=splash10-00di-8900000000-f3c3b068d626091fc670
submitter=submitter = University of Tokyo Team (Faculty of Engineering, University of Tokyo)
MoNA Rating=3.75

>  <NUM PEAKS>  (4666) 
49

>  <MASS SPECTRAL PEAKS>  (4666) 
43 14.62
44 9.91
45 16.28
50 2.97
51 10.7
55 5.11
57 4.04
58 3.62
59 10.66
63 3.91
65 7.96
66 4.67
69 3.91
71 23.88
72 2.64
73 87.21
74 8.29
75 11.25
77 15.73
78 23.88
79 4.35
85 4.21
91 7.58
93 16.55
95 6.55
99 3.43
103 2.66
105 7.16
109 10.95
110 11.19
113 4.67
121 99.99
122 85.68
123 17.26
124 4.94
135 9.13
136 3.41
137 6.51
151 20.55
152 2.95
153 3.58
165 3.1
167 15.46
179 3.37
187 6.01
195 8.17
196 2.55
230 10.47
232 4.25

$$$$

     RDKit          2D

 13 12  0  0  0  0  0  0  0  0999 V2000
   -5.3469    4.4130    0.0000 C   0  0  0  0  0  0  0  0  0  0  0  0
   -4.0478    2.1630    0.0000 C   0  0  0  0  0  0  0  0  0  0  0  0
    0.3983    2.3639    0.0000 C   0  0  0  0  0  0  0  0  0  0  0  0
    2.4474    2.9130    0.0000 C   0  0  0  0  0  0  0  0  0  0  0  0
    1.8983    4.9620    0.0000 C   0  0  0  0  0  0  0  0  0  0  0  0
   -2.7488    4.4130    0.0000 C   0  0  0  0  0  0  0  0  0  0  0  0
   -4.0478    3.6630    0.0000 C   0  0  0  0  0  0  0  0  0  0  0  0
   -1.4498    3.6630    0.0000 C   0  0  0  0  0  0  0  0  0  0  0  0
   -0.1507    4.4130    0.0000 C   0  0  0  0  0  0  0  0  0  0  0  0
    0.8135    5.5620    0.0000 Cl  0  0  0  0  0  0  0  0  0  0  0  0
   -1.1149    5.5620    0.0000 Cl  0  0  0  0  0  0  0  0  0  0  0  0
   -1.4498    2.1630    0.0000 O   0  0  0  0  0  0  0  0  0  0  0  0
    1.1483    3.6630    0.0000 Si  0  0  0  0  0  4  0  0  0  0  0  0
  7  1  1  0
  7  2  1  0
  7  6  1  0
  8  6  1  0
  9  8  1  0
 10  9  1  0
 11  9  1  0
 12  8  1  0
 13  3  1  0
 13  4  1  0
 13  5  1  0
 13  9  1  0
M  END
>  <NAME>  (4667) 
1,1-DICHLORO-4-METHYL-1-TRIMETHYLSILYL-2-PENTANOL

>  <SYNONYMS>  (4667) 


>  <SPECTRUM TYPE>  (4667) 
MS1

>  <INSTRUMENT TYPE>  (4667) 
EI-B

>  <INSTRUMENT>  (4667) 
JEOL JMS-D-3000

>  <ION MODE>  (4667) 
P

>  <INCHIKEY>  (4667) 
JIFGAVHEDYIENH-UHFFFAOYSA-N

>  <FORMULA>  (4667) 
C9H20Cl2OSi

>  <EXACT MASS>  (4667) 
242.06604715

>  <MW>  (4667) 
242

>  <ID>  (4667) 
JP004954

>  <CONTRIBUTOR>  (4667) 
University of Tokyo Team, {Faculty of Engineering, University of Tokyo

>  <COMMENT>  (4667) 
SMILES=CC(C)CC(O)C(Cl)(Cl)[Si](C)(C)C
cas=88920-85-8
InChI=InChI=1S/C9H20Cl2OSi/c1-7(2)6-8(12)9(10,11)13(3,4)5/h7-8,12H,6H2,1-5H3
computed SMILES=ClC(Cl)(C(O)CC(C)C)[Si](C)(C)C
accession=JP004954
date=2016.01.19 (Created 2008.10.21, modified 2011.05.06)
author=MASS SPECTROSCOPY SOC. OF JAPAN (MSSJ)
license=CC BY-NC-SA
exact mass=242.06605
ionization energy=70 eV
ion type=[M]+*
computed spectral entropy=2.9833498048560196
computed normalized entropy=0.85323705223299
SPLASH=splash10-0596-9100000000-addedf71efbfcfde4254
submitter=submitter = University of Tokyo Team (Faculty of Engineering, University of Tokyo)
MoNA Rating=3.75

>  <NUM PEAKS>  (4667) 
33

>  <MASS SPECTRAL PEAKS>  (4667) 
41 36.15
43 99.99
45 53.85
55 19.98
56 46.52
57 14.08
58 25.59
59 44.33
69 70.21
73 93.43
74 30.54
75 44.24
81 14.84
87 25.3
93 27.68
95 12.55
110 13.03
152 15.98
154 12.74
163 12.55
164 6.94
165 6.27
166 1.99
169 1.71
183 5.42
185 2.85
187 2.18
191 10.18
192 1.33
193 4.18
198 1.04
206 4.18
208 1.99

$$$$

     RDKit          2D

 10  9  0  0  0  0  0  0  0  0999 V2000
    2.1863    4.2623    0.0000 C   0  0  0  0  0  0  0  0  0  0  0  0
   -6.3579    5.5613    0.0000 C   0  0  0  0  0  0  0  0  0  0  0  0
   -6.9070    3.5123    0.0000 C   0  0  0  0  0  0  0  0  0  0  0  0
   -4.8579    2.9632    0.0000 C   0  0  0  0  0  0  0  0  0  0  0  0
    0.8873    5.0123    0.0000 C   0  0  0  0  0  0  0  0  0  0  0  0
   -0.4118    4.2623    0.0000 C   0  0  0  0  0  0  0  0  0  0  0  0
   -1.7108    5.0123    0.0000 C   0  0  0  0  0  0  0  0  0  0  0  0
   -3.0099    4.2623    0.0000 C   0  0  0  0  0  0  0  0  0  0  0  0
   -4.3089    5.0123    0.0000 C   0  0  0  0  0  0  0  0  0  0  0  0
   -5.6079    4.2623    0.0000 Si  0  0  0  0  0  4  0  0  0  0  0  0
  5  1  1  0
  6  5  1  0
  6  7  2  0
  8  7  1  0
  9  8  1  0
 10  2  1  0
 10  3  1  0
 10  4  1  0
 10  9  1  0
M  END
>  <NAME>  (4668) 
3-HEXENYLTRIMETHYLSILANE

>  <SYNONYMS>  (4668) 
1-TRIMETHYLSILYL-3-HEXENE

>  <SPECTRUM TYPE>  (4668) 
MS1

>  <INSTRUMENT TYPE>  (4668) 
EI-B

>  <INSTRUMENT>  (4668) 
JEOL JMS-D-3000

>  <ION MODE>  (4668) 
P

>  <INCHIKEY>  (4668) 
VLFAYCDTMFFDTR-VOTSOKGWSA-N

>  <FORMULA>  (4668) 
C9H20Si

>  <EXACT MASS>  (4668) 
156.13342717

>  <MW>  (4668) 
156

>  <ID>  (4668) 
JP004953

>  <CONTRIBUTOR>  (4668) 
University of Tokyo Team, {Faculty of Engineering, University of Tokyo

>  <COMMENT>  (4668) 
SMILES=CCC=CCC[Si](C)(C)C
cas=103110-63-0
InChI=InChI=1S/C9H20Si/c1-5-6-7-8-9-10(2,3)4/h6-7H,5,8-9H2,1-4H3/b7-6+
computed SMILES=C(=CCC[Si](C)(C)C)CC
accession=JP004953
date=2016.01.19 (Created 2008.10.21, modified 2011.05.06)
author=MASS SPECTROSCOPY SOC. OF JAPAN (MSSJ)
license=CC BY-NC-SA
exact mass=156.13343
ionization energy=70 eV
ion type=[M]+*
computed spectral entropy=1.7454575086428061
computed normalized entropy=0.5826480303502156
SPLASH=splash10-00di-9100000000-db10523a2a81664de191
submitter=submitter = University of Tokyo Team (Faculty of Engineering, University of Tokyo)
MoNA Rating=3.75

>  <NUM PEAKS>  (4668) 
20

>  <MASS SPECTRAL PEAKS>  (4668) 
41 1.71
43 3.4
44 1.36
45 5.84
58 1.15
59 10.53
67 1.23
72 1.28
73 99.99
74 8.76
75 3.84
78 1.01
81 1.4
82 1.59
85 2.76
99 4.45
113 6.35
141 2.6
156 7.02
157 1.04

$$$$

     RDKit          2D

 12 12  0  0  0  0  0  0  0  0999 V2000
   -0.7332   -2.5705    0.0000 C   0  0  0  0  0  0  0  0  0  0  0  0
   -0.2202   -0.9800    0.0000 C   0  0  0  0  0  0  0  0  0  0  0  0
    0.7440    0.6900    0.0000 C   0  0  0  0  0  0  0  0  0  0  0  0
   -4.8085    0.6900    0.0000 C   0  0  0  0  0  0  0  0  0  0  0  0
   -3.8443   -0.9800    0.0000 C   0  0  0  0  0  0  0  0  0  0  0  0
   -2.0323   -1.8205    0.0000 C   0  0  0  0  0  0  0  0  0  0  0  0
   -2.0323    2.6795    0.0000 C   0  0  0  0  0  0  0  0  0  0  0  0
   -0.7332    1.9295    0.0000 C   0  0  0  0  0  0  0  0  0  0  0  0
   -3.3313    1.9295    0.0000 C   0  0  0  0  0  0  0  0  0  0  0  0
   -2.0323   -0.3205    0.0000 N   0  0  0  0  0  0  0  0  0  0  0  0
   -0.7332    0.4295    0.0000 Si  0  0  0  0  0  4  0  0  0  0  0  0
   -3.3313    0.4295    0.0000 Si  0  0  0  0  0  4  0  0  0  0  0  0
  6  1  1  0
  8  7  1  0
  9  7  1  0
 10  6  1  0
 11  2  1  0
 11  3  1  0
 11  8  1  0
 11 10  1  0
 12  4  1  0
 12  5  1  0
 12  9  1  0
 12 10  1  0
M  END
>  <NAME>  (4669) 
1-ETHYL-2,2,6,6-TETRAMETHYL-2,6-DISILAPIPERIDINE

>  <SYNONYMS>  (4669) 


>  <SPECTRUM TYPE>  (4669) 
MS1

>  <INSTRUMENT TYPE>  (4669) 
EI-B

>  <INSTRUMENT>  (4669) 
JEOL JMS-D-3000

>  <ION MODE>  (4669) 
P

>  <INCHIKEY>  (4669) 
WIXJPVASNJQNDE-UHFFFAOYSA-N

>  <FORMULA>  (4669) 
C9H23NSi2

>  <EXACT MASS>  (4669) 
201.136902796

>  <MW>  (4669) 
201

>  <ID>  (4669) 
JP004952

>  <CONTRIBUTOR>  (4669) 
University of Tokyo Team, {Faculty of Engineering, University of Tokyo

>  <COMMENT>  (4669) 
SMILES=CCN([Si](C)(C)1)[Si](C)(C)CCC1
InChI=InChI=1S/C9H23NSi2/c1-6-10-11(2,3)8-7-9-12(10,4)5/h6-9H2,1-5H3
computed SMILES=N1(CC)[Si](C)(C)CCC[Si]1(C)C
accession=JP004952
date=2016.01.19 (Created 2008.10.21, modified 2011.05.06)
author=MASS SPECTROSCOPY SOC. OF JAPAN (MSSJ)
license=CC BY-NC-SA
exact mass=201.1369
ionization energy=70 eV
ion type=[M]+*
computed spectral entropy=2.1463077452687487
computed normalized entropy=0.6943637228071248
SPLASH=splash10-000i-2900000000-cf6c02f8a7b22730befb
submitter=submitter = University of Tokyo Team (Faculty of Engineering, University of Tokyo)
MoNA Rating=3.75

>  <NUM PEAKS>  (4669) 
22

>  <MASS SPECTRAL PEAKS>  (4669) 
45 4.7
59 14.93
70 1.57
73 9.23
85 3.18
86 4.6
88 3.09
99 1.89
100 6.45
101 2.04
102 1.84
115 1.57
116 1.54
117 4.68
130 1.8
144 2.19
158 11.44
186 99.99
187 20.04
188 8.61
201 8.57
202 1.89

$$$$

     RDKit          2D

 11 11  0  0  0  0  0  0  0  0999 V2000
   -0.6456    2.6126    0.0000 C   0  0  0  0  0  0  0  0  0  0  0  0
    0.6494    0.3696    0.0000 C   0  0  0  0  0  0  0  0  0  0  0  0
   -1.9447    1.8626    0.0000 C   0  0  0  0  0  0  0  0  0  0  0  0
   -0.6497   -0.3804    0.0000 C   0  0  0  0  0  0  0  0  0  0  0  0
    1.9392    2.6356    0.0000 C   0  0  0  0  0  0  0  0  0  0  0  0
    0.6439    1.8791    0.0000 C   0  0  0  0  0  0  0  0  0  0  0  0
   -1.9628    0.3741    0.0000 C   0  0  0  0  0  0  0  0  0  0  0  0
    3.2419    1.8921    0.0000 C   0  0  0  0  0  0  0  0  0  0  0  0
   -3.2656   -0.3693    0.0000 Cl  0  0  0  0  0  0  0  0  0  0  0  0
    4.5372    2.6487    0.0000 Cl  0  0  0  0  0  0  0  0  0  0  0  0
    3.2495    0.3922    0.0000 Cl  0  0  0  0  0  0  0  0  0  0  0  0
  3  1  2  0
  4  2  1  0
  6  1  1  0
  6  2  2  0
  6  5  1  0
  7  3  1  0
  7  4  2  0
  8  5  2  0
  9  7  1  0
 10  8  1  0
 11  8  1  0
M  END
>  <NAME>  (4670) 
1,1-DICHLORO-2-(P-CHLOROPHENYL)ETHENE

>  <SYNONYMS>  (4670) 
4,BETA,BETA-TRICHLOROSTYRENE

>  <SPECTRUM TYPE>  (4670) 
MS1

>  <INSTRUMENT TYPE>  (4670) 
EI-B

>  <INSTRUMENT>  (4670) 
JEOL JMS-D-3000

>  <ION MODE>  (4670) 
P

>  <INCHIKEY>  (4670) 
XHNKLLVUWOTSGX-UHFFFAOYSA-N

>  <FORMULA>  (4670) 
C8H5Cl3

>  <EXACT MASS>  (4670) 
205.9456832

>  <MW>  (4670) 
206

>  <ID>  (4670) 
JP004951

>  <CONTRIBUTOR>  (4670) 
University of Tokyo Team, {Faculty of Engineering, University of Tokyo

>  <COMMENT>  (4670) 
SMILES=Clc(c1)ccc(c1)C=C(Cl)Cl
cas=5263-17-2
InChI=InChI=1S/C8H5Cl3/c9-7-3-1-6(2-4-7)5-8(10)11/h1-5H
computed SMILES=ClC(Cl)=CC1=CC=C(Cl)C=C1
accession=JP004951
date=2016.01.19 (Created 2008.10.21, modified 2011.05.06)
author=MASS SPECTROSCOPY SOC. OF JAPAN (MSSJ)
license=CC BY-NC-SA
exact mass=205.94568
ionization energy=70 eV
ion type=[M]+*
computed spectral entropy=2.8289121945856817
computed normalized entropy=0.8489611564798406
SPLASH=splash10-0a4i-2690000000-b64f370d844d59577808
submitter=submitter = University of Tokyo Team (Faculty of Engineering, University of Tokyo)
MoNA Rating=3.75

>  <NUM PEAKS>  (4670) 
28

>  <MASS SPECTRAL PEAKS>  (4670) 
50 10.64
67 7.74
68 11.31
74 14.75
75 8.28
85 15.49
86 9.4
99 7.46
100 5.71
101 9.7
103 6.82
104 6.46
135 11.21
136 44.37
137 6.59
138 13.84
146 8.91
148 5.61
170 7.29
171 26.15
172 8.97
173 17.33
206 99.99
207 6.69
208 97.82
209 14.72
210 32.54
212 5.88

$$$$

     RDKit          2D

 13 13  0  0  0  0  0  0  0  0999 V2000
    3.2478    1.4446    0.0000 C   0  0  0  0  0  0  0  0  0  0  0  0
    3.2483    2.9454    0.0000 C   0  0  0  0  0  0  0  0  0  0  0  0
    1.9483    0.6938    0.0000 C   0  0  0  0  0  0  0  0  0  0  0  0
    1.9493    3.6954    0.0000 C   0  0  0  0  0  0  0  0  0  0  0  0
    0.6493    1.4438    0.0000 C   0  0  0  0  0  0  0  0  0  0  0  0
   -0.6493    3.6946    0.0000 C   0  0  0  0  0  0  0  0  0  0  0  0
   -1.9483    2.9446    0.0000 C   0  0  0  0  0  0  0  0  0  0  0  0
    0.6498    2.9446    0.0000 C   0  0  0  0  0  0  0  0  0  0  0  0
   -3.2474    3.6946    0.0000 C   0  0  0  0  0  0  0  0  0  0  0  0
   -4.5464    2.9446    0.0000 C   0  0  0  0  0  0  0  0  0  0  0  0
   -5.8454    3.6946    0.0000 Cl  0  0  0  0  0  0  0  0  0  0  0  0
   -4.5464    1.4446    0.0000 Cl  0  0  0  0  0  0  0  0  0  0  0  0
   -3.2474    5.1946    0.0000 O   0  0  0  0  0  0  0  0  0  0  0  0
  2  1  2  0
  3  1  1  0
  4  2  1  0
  5  3  2  0
  7  6  1  0
  8  4  2  0
  8  5  1  0
  8  6  1  0
  9  7  1  0
 10  9  1  0
 11 10  1  0
 12 10  1  0
 13  9  1  0
M  END
>  <NAME>  (4671) 
1,1-DICHLORO-4-PHENYL-2-BUTANOL

>  <SYNONYMS>  (4671) 


>  <SPECTRUM TYPE>  (4671) 
MS1

>  <INSTRUMENT TYPE>  (4671) 
EI-B

>  <INSTRUMENT>  (4671) 
JEOL JMS-D-3000

>  <ION MODE>  (4671) 
P

>  <INCHIKEY>  (4671) 
AVSJCXYYYDSTTG-UHFFFAOYSA-N

>  <FORMULA>  (4671) 
C10H12Cl2O

>  <EXACT MASS>  (4671) 
218.026520364

>  <MW>  (4671) 
218

>  <ID>  (4671) 
JP004950

>  <CONTRIBUTOR>  (4671) 
University of Tokyo Team, {Faculty of Engineering, University of Tokyo

>  <COMMENT>  (4671) 
SMILES=ClC(Cl)C(O)CCc(c1)cccc1
InChI=InChI=1S/C10H12Cl2O/c11-10(12)9(13)7-6-8-4-2-1-3-5-8/h1-5,9-10,13H,6-7H2
computed SMILES=ClC(Cl)C(O)CCC=1C=CC=CC1
accession=JP004950
date=2016.01.19 (Created 2008.10.21, modified 2011.05.06)
author=MASS SPECTROSCOPY SOC. OF JAPAN (MSSJ)
license=CC BY-NC-SA
exact mass=218.02652
ionization energy=70 eV
ion type=[M]+*
computed spectral entropy=2.3130917226338026
computed normalized entropy=0.709951867797771
SPLASH=splash10-0006-9600000000-5f0243cc4ae7922a4c0a
submitter=submitter = University of Tokyo Team (Faculty of Engineering, University of Tokyo)
MoNA Rating=3.75

>  <NUM PEAKS>  (4671) 
26

>  <MASS SPECTRAL PEAKS>  (4671) 
49 1.23
65 7.17
68 1.43
83 2.16
85 1.94
89 1.33
91 99.99
92 22.39
104 17.67
105 1.99
117 26.57
118 3.42
125 10.18
129 5.56
135 3.5
143 1.67
146 4.1
147 6.15
174 2.65
182 8.31
183 1.65
184 3.18
218 6.07
219 1.23
220 4.27
222 1.16

$$$$

     RDKit          2D

 11 11  0  0  0  0  0  0  0  0999 V2000
    1.2821    1.2761    0.0000 C   0  0  0  0  0  0  0  0  0  0  0  0
   -4.5326    1.6817    0.0000 C   0  0  0  0  0  0  0  0  0  0  0  0
   -4.8114   -0.1679    0.0000 C   0  0  0  0  0  0  0  0  0  0  0  0
   -0.3749   -0.6493    0.0000 C   0  0  0  0  0  0  0  0  0  0  0  0
   -1.6739   -1.3993    0.0000 C   0  0  0  0  0  0  0  0  0  0  0  0
   -1.1716    1.9335    0.0000 C   0  0  0  0  0  0  0  0  0  0  0  0
   -2.6674    1.8214    0.0000 C   0  0  0  0  0  0  0  0  0  0  0  0
   -0.1513    0.8340    0.0000 C   0  0  0  0  0  0  0  0  0  0  0  0
   -3.0702   -0.8513    0.0000 C   0  0  0  0  0  0  0  0  0  0  0  0
   -3.5123    0.5821    0.0000 C   0  0  0  0  0  0  0  0  0  0  0  0
   -4.1698   -1.8715    0.0000 O   0  0  0  0  0  0  0  0  0  0  0  0
  5  4  1  0
  7  6  1  0
  8  1  1  0
  8  4  1  0
  8  6  2  0
  9  5  1  0
 10  2  1  0
 10  3  1  0
 10  7  1  0
 10  9  1  0
 11  9  2  0
M  END
>  <NAME>  (4672) 
KARAHANAENONE

>  <SYNONYMS>  (4672) 
2,2,5-TRIMETHYL-4-CYCLOHEPTEN-1-ONE

>  <SPECTRUM TYPE>  (4672) 
MS1

>  <INSTRUMENT TYPE>  (4672) 
EI-B

>  <INSTRUMENT>  (4672) 
JEOL JMS-D-3000

>  <ION MODE>  (4672) 
P

>  <INCHIKEY>  (4672) 
SKKTZNHVYFHGDC-UHFFFAOYSA-N

>  <FORMULA>  (4672) 
C10H16O

>  <EXACT MASS>  (4672) 
152.120115132

>  <MW>  (4672) 
152

>  <ID>  (4672) 
JP004949

>  <CONTRIBUTOR>  (4672) 
University of Tokyo Team, {Faculty of Engineering, University of Tokyo

>  <COMMENT>  (4672) 
SMILES=CC(C1)=CCC(C)(C)C(=O)C1
InChI=InChI=1S/C10H16O/c1-8-4-5-9(11)10(2,3)7-6-8/h6H,4-5,7H2,1-3H3
computed SMILES=O=C1CCC(=CCC1(C)C)C
accession=JP004949
date=2016.01.19 (Created 2008.10.21, modified 2011.05.06)
author=MASS SPECTROSCOPY SOC. OF JAPAN (MSSJ)
license=CC BY-NC-SA
exact mass=152.12012
ionization energy=70 eV
ion type=[M]+*
computed spectral entropy=2.966248274996121
computed normalized entropy=0.9104236907594552
SPLASH=splash10-0fr2-9300000000-4dd178a06286135f9ed3
submitter=submitter = University of Tokyo Team (Faculty of Engineering, University of Tokyo)
MoNA Rating=3.75

>  <NUM PEAKS>  (4672) 
26

>  <MASS SPECTRAL PEAKS>  (4672) 
42 38.49
43 18.29
53 14.03
55 18.68
56 9.31
67 47.6
68 22.36
69 14.62
70 26.62
77 7.27
79 14.75
81 44.59
82 12.85
83 7.08
84 6.49
91 7.08
93 10.42
94 8.85
95 64.78
96 48.59
97 26.36
109 52.52
110 21.31
137 19.8
152 99.99
153 11.73

$$$$

     RDKit          2D

 14 14  0  0  0  0  0  0  0  0999 V2000
   -1.6353    4.6878    0.0000 C   0  0  0  0  0  0  0  0  0  0  0  0
    4.8670    0.9406    0.0000 C   0  0  0  0  0  0  0  0  0  0  0  0
   -1.6200   -1.3100    0.0000 C   0  0  0  0  0  0  0  0  0  0  0  0
   -0.3300   -2.0600    0.0000 C   0  0  0  0  0  0  0  0  0  0  0  0
   -1.6200    0.1900    0.0000 C   0  0  0  0  0  0  0  0  0  0  0  0
    0.9700   -1.3100    0.0000 C   0  0  0  0  0  0  0  0  0  0  0  0
   -0.3300    0.9400    0.0000 C   0  0  0  0  0  0  0  0  0  0  0  0
    0.9700    0.1900    0.0000 C   0  0  0  0  0  0  0  0  0  0  0  0
   -0.3325    2.4400    0.0000 C   0  0  0  0  0  0  0  0  0  0  0  0
    2.2689    0.9402    0.0000 C   0  0  0  0  0  0  0  0  0  0  0  0
    0.9653    3.1922    0.0000 O   0  0  0  0  0  0  0  0  0  0  0  0
    2.2687    2.4402    0.0000 O   0  0  0  0  0  0  0  0  0  0  0  0
   -1.6328    3.1878    0.0000 O   0  0  0  0  0  0  0  0  0  0  0  0
    3.5681    0.1904    0.0000 O   0  0  0  0  0  0  0  0  0  0  0  0
  4  3  2  0
  5  3  1  0
  6  4  1  0
  7  5  2  0
  8  6  2  0
  8  7  1  0
  9  7  1  0
 10  8  1  0
 11  9  2  0
 12 10  2  0
 13  1  1  0
 13  9  1  0
 14  2  1  0
 14 10  1  0
M  END
>  <NAME>  (4673) 
DIMETHYL PHTHALATE

>  <SYNONYMS>  (4673) 


>  <SPECTRUM TYPE>  (4673) 
MS1

>  <INSTRUMENT TYPE>  (4673) 
EI-B

>  <INSTRUMENT>  (4673) 
JEOL JMS-D-3000

>  <ION MODE>  (4673) 
P

>  <INCHIKEY>  (4673) 
NIQCNGHVCWTJSM-UHFFFAOYSA-N

>  <FORMULA>  (4673) 
C10H10O4

>  <EXACT MASS>  (4673) 
194.0579088

>  <MW>  (4673) 
194

>  <ID>  (4673) 
JP004948

>  <CONTRIBUTOR>  (4673) 
University of Tokyo Team, {Faculty of Engineering, University of Tokyo

>  <COMMENT>  (4673) 
SMILES=COC(=O)c(c1)c(ccc1)C(=O)OC
InChI=InChI=1S/C10H10O4/c1-13-9(11)7-5-3-4-6-8(7)10(12)14-2/h3-6H,1-2H3
computed SMILES=O=C(OC)C=1C=CC=CC1C(=O)OC
accession=JP004948
date=2016.01.19 (Created 2008.10.21, modified 2011.05.06)
author=MASS SPECTROSCOPY SOC. OF JAPAN (MSSJ)
license=CC BY-NC-SA
exact mass=194.05791
ionization energy=70 eV
ion type=[M]+*
computed spectral entropy=1.998165960135741
computed normalized entropy=0.6464375660595666
SPLASH=splash10-03di-3900000000-e194a5ec6782fe9c8422
submitter=submitter = University of Tokyo Team (Faculty of Engineering, University of Tokyo)
MoNA Rating=3.75

>  <NUM PEAKS>  (4673) 
22

>  <MASS SPECTRAL PEAKS>  (4673) 
50 6.5
51 2.34
52 1.49
63 1.09
64 1.89
66 1.54
74 1.9
75 2.19
76 8.05
77 18.71
78 1.33
79 1.3
92 6.43
104 4.69
105 2.76
120 2.01
133 3.85
135 6.88
163 99.99
164 10.54
165 1.14
194 7.15

$$$$

     RDKit          2D

 13 13  0  0  0  0  0  0  0  0999 V2000
    3.9079    3.6547    0.0000 C   0  0  0  0  0  0  0  0  0  0  0  0
   -2.9868   -0.3245    0.0000 C   0  0  0  0  0  0  0  0  0  0  0  0
    4.1682    2.1774    0.0000 C   0  0  0  0  0  0  0  0  0  0  0  0
   -1.5772    0.1882    0.0000 C   0  0  0  0  0  0  0  0  0  0  0  0
    2.8802   -2.5270    0.0000 C   0  0  0  0  0  0  0  0  0  0  0  0
    1.3794   -2.5274    0.0000 C   0  0  0  0  0  0  0  0  0  0  0  0
    3.2794   -0.2639    0.0000 C   0  0  0  0  0  0  0  0  0  0  0  0
    0.9813   -0.2635    0.0000 C   0  0  0  0  0  0  0  0  0  0  0  0
    2.1302   -1.2279    0.0000 C   0  0  0  0  0  0  0  0  0  0  0  0
    4.6888   -0.7770    0.0000 O   0  0  0  0  0  0  0  0  0  0  0  0
    1.2421    1.2137    0.0000 O   0  0  0  0  0  0  0  0  0  0  0  0
    3.0190    1.2134    0.0000 O   0  0  0  0  0  0  0  0  0  0  0  0
   -0.4283   -0.7762    0.0000 O   0  0  0  0  0  0  0  0  0  0  0  0
  3  1  1  0
  4  2  1  0
  6  5  1  0
  9  5  1  0
  9  6  1  0
  9  7  1  0
  9  8  1  0
 10  7  2  0
 11  8  2  0
 12  3  1  0
 12  7  1  0
 13  4  1  0
 13  8  1  0
M  END
>  <NAME>  (4674) 
1,1-BIS(ETHOXYCARBONYL)CYCLOPROPANE

>  <SYNONYMS>  (4674) 
DIETHYL 1,1-CYCLOPROPANEDICARBOXYLATE

>  <SPECTRUM TYPE>  (4674) 
MS1

>  <INSTRUMENT TYPE>  (4674) 
EI-B

>  <INSTRUMENT>  (4674) 
JEOL JMS-D-3000

>  <ION MODE>  (4674) 
P

>  <INCHIKEY>  (4674) 
KYYUCZOHNYSLFV-UHFFFAOYSA-N

>  <FORMULA>  (4674) 
C9H14O4

>  <EXACT MASS>  (4674) 
186.089208928

>  <MW>  (4674) 
186

>  <ID>  (4674) 
JP004947

>  <CONTRIBUTOR>  (4674) 
University of Tokyo Team, {Faculty of Engineering, University of Tokyo

>  <COMMENT>  (4674) 
SMILES=CCOC(=O)C(C1)(C1)C(=O)OCC
cas=1559-02-0
InChI=InChI=1S/C9H14O4/c1-3-12-7(10)9(5-6-9)8(11)13-4-2/h3-6H2,1-2H3
computed SMILES=O=C(OCC)C1(C(=O)OCC)CC1
accession=JP004947
date=2016.01.19 (Created 2008.10.21, modified 2011.05.06)
author=MASS SPECTROSCOPY SOC. OF JAPAN (MSSJ)
license=CC BY-NC-SA
exact mass=186.08921
ionization energy=70 eV
ion type=[M]+*
computed spectral entropy=2.9045087130752405
computed normalized entropy=0.7873688335996057
SPLASH=splash10-03dl-3900000000-fefbdf6273cf8ed7b6ef
submitter=submitter = University of Tokyo Team (Faculty of Engineering, University of Tokyo)
MoNA Rating=3.75

>  <NUM PEAKS>  (4674) 
40

>  <MASS SPECTRAL PEAKS>  (4674) 
40 7.7
42 1.77
43 4.75
44 6.1
45 8
53 2.77
54 2.78
55 2.51
57 2.4
59 2.55
67 1.67
68 14.22
69 13.42
70 1.23
71 1.12
82 8.62
83 1.56
84 5.85
85 15.17
86 17.02
87 1.17
95 10.14
96 1.33
97 4.67
99 2.86
111 1.14
112 49.61
113 58.8
114 19.02
127 1.24
130 36.36
131 3.92
140 4.4
141 99.99
142 8.81
143 1.26
158 20.37
159 17.37
160 1.51
186 2.79

$$$$

     RDKit          2D

 11 11  0  0  0  0  0  0  0  0999 V2000
   -4.8712    2.0071    0.0000 C   0  0  0  0  0  0  0  0  0  0  0  0
    2.9231    0.5071    0.0000 C   0  0  0  0  0  0  0  0  0  0  0  0
    2.9236    2.0079    0.0000 C   0  0  0  0  0  0  0  0  0  0  0  0
    1.6236   -0.2437    0.0000 C   0  0  0  0  0  0  0  0  0  0  0  0
    1.6245    2.7579    0.0000 C   0  0  0  0  0  0  0  0  0  0  0  0
    0.3245    0.5063    0.0000 C   0  0  0  0  0  0  0  0  0  0  0  0
   -0.9740    2.7571    0.0000 C   0  0  0  0  0  0  0  0  0  0  0  0
   -3.5721    2.7571    0.0000 C   0  0  0  0  0  0  0  0  0  0  0  0
    0.3250    2.0071    0.0000 C   0  0  0  0  0  0  0  0  0  0  0  0
   -3.5721    4.2571    0.0000 O   0  0  0  0  0  0  0  0  0  0  0  0
   -2.2731    2.0071    0.0000 O   0  0  0  0  0  0  0  0  0  0  0  0
  3  2  2  0
  4  2  1  0
  5  3  1  0
  6  4  2  0
  8  1  1  0
  9  5  2  0
  9  6  1  0
  9  7  1  0
 10  8  2  0
 11  7  1  0
 11  8  1  0
M  END
>  <NAME>  (4675) 
BENZYL ACETATE

>  <SYNONYMS>  (4675) 


>  <SPECTRUM TYPE>  (4675) 
MS1

>  <INSTRUMENT TYPE>  (4675) 
EI-B

>  <INSTRUMENT>  (4675) 
JEOL JMS-D-3000

>  <ION MODE>  (4675) 
P

>  <INCHIKEY>  (4675) 
QUKGYYKBILRGFE-UHFFFAOYSA-N

>  <FORMULA>  (4675) 
C9H10O2

>  <EXACT MASS>  (4675) 
150.06807956

>  <MW>  (4675) 
150

>  <ID>  (4675) 
JP004946

>  <CONTRIBUTOR>  (4675) 
University of Tokyo Team, {Faculty of Engineering, University of Tokyo

>  <COMMENT>  (4675) 
SMILES=CC(=O)OCc(c1)cccc1
cas=140-11-4
InChI=InChI=1S/C9H10O2/c1-8(10)11-7-9-5-3-2-4-6-9/h2-6H,7H2,1H3
computed SMILES=O=C(OCC=1C=CC=CC1)C
accession=JP004946
date=2016.01.19 (Created 2008.10.21, modified 2011.05.06)
author=MASS SPECTROSCOPY SOC. OF JAPAN (MSSJ)
license=CC BY-NC-SA
exact mass=150.06808
ionization energy=70 eV
ion type=[M]+*
computed spectral entropy=2.601057780423674
computed normalized entropy=0.7805816757288145
SPLASH=splash10-052f-9500000000-841f27b9e65e2ce89c1a
submitter=submitter = University of Tokyo Team (Faculty of Engineering, University of Tokyo)
MoNA Rating=3.75

>  <NUM PEAKS>  (4675) 
28

>  <MASS SPECTRAL PEAKS>  (4675) 
42 3.51
43 47.7
44 3.2
45 1.29
50 4.38
51 11.24
52 2.47
53 1.02
62 1.36
63 4.88
64 1.58
65 11.59
74 1.23
77 15.47
78 4.05
79 23.19
80 2.29
89 10.82
90 43.13
91 49.95
92 4
105 5.68
106 3.21
107 17.13
108 99.99
109 8.13
150 24.81
151 2.72

$$$$

     RDKit          2D

 10 10  0  0  0  0  0  0  0  0999 V2000
   -3.5724    2.0075    0.0000 C   0  0  0  0  0  0  0  0  0  0  0  0
    2.9228   -0.2425    0.0000 C   0  0  0  0  0  0  0  0  0  0  0  0
    2.9233    1.2583    0.0000 C   0  0  0  0  0  0  0  0  0  0  0  0
    1.6233   -0.9933    0.0000 C   0  0  0  0  0  0  0  0  0  0  0  0
    1.6243    2.0083    0.0000 C   0  0  0  0  0  0  0  0  0  0  0  0
    0.3243   -0.2433    0.0000 C   0  0  0  0  0  0  0  0  0  0  0  0
    0.3248    1.2575    0.0000 C   0  0  0  0  0  0  0  0  0  0  0  0
   -0.9743    2.0075    0.0000 C   0  0  0  0  0  0  0  0  0  0  0  0
   -0.9743    3.5075    0.0000 O   0  0  0  0  0  0  0  0  0  0  0  0
   -2.2733    1.2575    0.0000 O   0  0  0  0  0  0  0  0  0  0  0  0
  3  2  2  0
  4  2  1  0
  5  3  1  0
  6  4  2  0
  7  5  2  0
  7  6  1  0
  8  7  1  0
  9  8  2  0
 10  1  1  0
 10  8  1  0
M  END
>  <NAME>  (4676) 
METHYL BENZOATE

>  <SYNONYMS>  (4676) 


>  <SPECTRUM TYPE>  (4676) 
MS1

>  <INSTRUMENT TYPE>  (4676) 
EI-B

>  <INSTRUMENT>  (4676) 
JEOL JMS-D-3000

>  <ION MODE>  (4676) 
P

>  <INCHIKEY>  (4676) 
QPJVMBTYPHYUOC-UHFFFAOYSA-N

>  <FORMULA>  (4676) 
C8H8O2

>  <EXACT MASS>  (4676) 
136.052429496

>  <MW>  (4676) 
136

>  <ID>  (4676) 
JP004945

>  <CONTRIBUTOR>  (4676) 
University of Tokyo Team, {Faculty of Engineering, University of Tokyo

>  <COMMENT>  (4676) 
SMILES=COC(=O)c(c1)cccc1
cas=93-58-3
InChI=InChI=1S/C8H8O2/c1-10-8(9)7-5-3-2-4-6-7/h2-6H,1H3
computed SMILES=O=C(OC)C=1C=CC=CC1
accession=JP004945
date=2016.01.19 (Created 2008.10.21, modified 2011.05.06)
author=MASS SPECTROSCOPY SOC. OF JAPAN (MSSJ)
license=CC BY-NC-SA
exact mass=136.05243
ionization energy=70 eV
ion type=[M]+*
computed spectral entropy=1.9749359140839229
computed normalized entropy=0.6970657251163704
SPLASH=splash10-056r-9700000000-798ac6947aeb7428e12c
submitter=submitter = University of Tokyo Team (Faculty of Engineering, University of Tokyo)
MoNA Rating=3.75

>  <NUM PEAKS>  (4676) 
17

>  <MASS SPECTRAL PEAKS>  (4676) 
44 1.77
50 10.14
51 23.3
52 1.32
53 1.04
74 3.12
75 2.67
76 3.45
77 61.22
78 61.22
91 2.05
92 2.08
105 99.99
106 8.29
135 1.86
136 39.66
137 3.12

$$$$

     RDKit          2D

 10 10  0  0  0  0  0  0  0  0999 V2000
    4.8270    1.2906    0.0000 C   0  0  0  0  0  0  0  0  0  0  0  0
   -1.6700   -0.9600    0.0000 C   0  0  0  0  0  0  0  0  0  0  0  0
   -1.6700    0.5400    0.0000 C   0  0  0  0  0  0  0  0  0  0  0  0
   -0.3700   -1.7100    0.0000 C   0  0  0  0  0  0  0  0  0  0  0  0
   -0.3700    1.2900    0.0000 C   0  0  0  0  0  0  0  0  0  0  0  0
    0.9300   -0.9600    0.0000 C   0  0  0  0  0  0  0  0  0  0  0  0
    3.5281    0.5404    0.0000 C   0  0  0  0  0  0  0  0  0  0  0  0
    0.9300    0.5400    0.0000 C   0  0  0  0  0  0  0  0  0  0  0  0
    3.5283   -0.9596    0.0000 O   0  0  0  0  0  0  0  0  0  0  0  0
    2.2289    1.2902    0.0000 O   0  0  0  0  0  0  0  0  0  0  0  0
  3  2  2  0
  4  2  1  0
  5  3  1  0
  6  4  2  0
  7  1  1  0
  8  5  2  0
  8  6  1  0
  9  7  2  0
 10  7  1  0
 10  8  1  0
M  END
>  <NAME>  (4677) 
PHENYL ACETATE

>  <SYNONYMS>  (4677) 


>  <SPECTRUM TYPE>  (4677) 
MS1

>  <INSTRUMENT TYPE>  (4677) 
EI-B

>  <INSTRUMENT>  (4677) 
JEOL JMS-D-3000

>  <ION MODE>  (4677) 
P

>  <INCHIKEY>  (4677) 
IPBVNPXQWQGGJP-UHFFFAOYSA-N

>  <FORMULA>  (4677) 
C8H8O2

>  <EXACT MASS>  (4677) 
136.052429496

>  <MW>  (4677) 
136

>  <ID>  (4677) 
JP004944

>  <CONTRIBUTOR>  (4677) 
University of Tokyo Team, {Faculty of Engineering, University of Tokyo

>  <COMMENT>  (4677) 
SMILES=CC(=O)Oc(c1)cccc1
cas=122-79-2
InChI=InChI=1S/C8H8O2/c1-7(9)10-8-5-3-2-4-6-8/h2-6H,1H3
computed SMILES=O=C(OC=1C=CC=CC1)C
accession=JP004944
date=2016.01.19 (Created 2008.10.21, modified 2011.05.06)
author=MASS SPECTROSCOPY SOC. OF JAPAN (MSSJ)
license=CC BY-NC-SA
exact mass=136.05243
ionization energy=70 eV
ion type=[M]+*
computed spectral entropy=1.5513953284118949
computed normalized entropy=0.587859653900762
SPLASH=splash10-0006-9000000000-aa83092457f08d648525
submitter=submitter = University of Tokyo Team (Faculty of Engineering, University of Tokyo)
MoNA Rating=3.75

>  <NUM PEAKS>  (4677) 
14

>  <MASS SPECTRAL PEAKS>  (4677) 
42 2.03
43 26.01
44 1.7
50 1.75
51 2.37
55 1.44
63 2.27
65 6.07
66 7.84
77 2.1
93 1.34
94 99.99
95 6.67
136 10.87

$$$$

     RDKit          2D

  9  8  0  0  0  0  0  0  0  0999 V2000
    1.9486    3.3750    0.0000 C   0  0  0  0  0  0  0  0  0  0  0  0
   -5.8457    3.3750    0.0000 C   0  0  0  0  0  0  0  0  0  0  0  0
   -4.5466    5.6250    0.0000 C   0  0  0  0  0  0  0  0  0  0  0  0
    0.6495    4.1250    0.0000 C   0  0  0  0  0  0  0  0  0  0  0  0
   -3.2476    3.3750    0.0000 C   0  0  0  0  0  0  0  0  0  0  0  0
   -4.5466    4.1250    0.0000 C   0  0  0  0  0  0  0  0  0  0  0  0
   -1.9486    4.1250    0.0000 C   0  0  0  0  0  0  0  0  0  0  0  0
   -1.9486    5.6250    0.0000 O   0  0  0  0  0  0  0  0  0  0  0  0
   -0.6495    3.3750    0.0000 O   0  0  0  0  0  0  0  0  0  0  0  0
  4  1  1  0
  6  2  1  0
  6  3  1  0
  6  5  1  0
  7  5  1  0
  8  7  2  0
  9  4  1  0
  9  7  1  0
M  END
>  <NAME>  (4678) 
ETHYL ISOVALERATE

>  <SYNONYMS>  (4678) 


>  <SPECTRUM TYPE>  (4678) 
MS1

>  <INSTRUMENT TYPE>  (4678) 
EI-B

>  <INSTRUMENT>  (4678) 
JEOL JMS-D-3000

>  <ION MODE>  (4678) 
P

>  <INCHIKEY>  (4678) 
PPXUHEORWJQRHJ-UHFFFAOYSA-N

>  <FORMULA>  (4678) 
C7H14O2

>  <EXACT MASS>  (4678) 
130.099379688

>  <MW>  (4678) 
130

>  <ID>  (4678) 
JP004943

>  <CONTRIBUTOR>  (4678) 
University of Tokyo Team, {Faculty of Engineering, University of Tokyo

>  <COMMENT>  (4678) 
SMILES=CCOC(=O)CC(C)C
cas=108-64-5
InChI=InChI=1S/C7H14O2/c1-4-9-7(8)5-6(2)3/h6H,4-5H2,1-3H3
computed SMILES=O=C(OCC)CC(C)C
accession=JP004943
date=2016.01.19 (Created 2008.10.21, modified 2011.05.06)
author=MASS SPECTROSCOPY SOC. OF JAPAN (MSSJ)
license=CC BY-NC-SA
exact mass=130.09938
ionization energy=70 eV
ion type=[M]+*
computed spectral entropy=2.6511654568740326
computed normalized entropy=0.7956190710319389
SPLASH=splash10-000i-9000000000-131dee797c5fc67efffb
submitter=submitter = University of Tokyo Team (Faculty of Engineering, University of Tokyo)
MoNA Rating=3.75

>  <NUM PEAKS>  (4678) 
28

>  <MASS SPECTRAL PEAKS>  (4678) 
40 22.87
42 11.53
43 29.99
44 1.6
45 19.2
53 1.05
55 5.59
56 8.71
57 66.79
58 2.84
59 13.69
60 47.89
61 26.98
69 4.35
70 20.3
71 1.59
73 9.07
83 1.2
84 1.04
85 78.31
86 4.6
87 14.12
88 99.99
89 5.14
101 1.39
103 4.69
115 10.33
130 1.65

$$$$

     RDKit          2D

  8  7  0  0  0  0  0  0  0  0999 V2000
    1.9486    3.3750    0.0000 C   0  0  0  0  0  0  0  0  0  0  0  0
   -5.8457    3.3750    0.0000 C   0  0  0  0  0  0  0  0  0  0  0  0
    0.6495    4.1250    0.0000 C   0  0  0  0  0  0  0  0  0  0  0  0
   -4.5466    4.1250    0.0000 C   0  0  0  0  0  0  0  0  0  0  0  0
   -0.6495    3.3750    0.0000 C   0  0  0  0  0  0  0  0  0  0  0  0
   -1.9486    4.1250    0.0000 C   0  0  0  0  0  0  0  0  0  0  0  0
   -1.9486    5.6250    0.0000 O   0  0  0  0  0  0  0  0  0  0  0  0
   -3.2476    3.3750    0.0000 O   0  0  0  0  0  0  0  0  0  0  0  0
  3  1  1  0
  4  2  1  0
  5  3  1  0
  6  5  1  0
  7  6  2  0
  8  4  1  0
  8  6  1  0
M  END
>  <NAME>  (4679) 
ETHYL BUTANOATE

>  <SYNONYMS>  (4679) 
ETHYL BUTYRATE

>  <SPECTRUM TYPE>  (4679) 
MS1

>  <INSTRUMENT TYPE>  (4679) 
EI-B

>  <INSTRUMENT>  (4679) 
JEOL JMS-D-3000

>  <ION MODE>  (4679) 
P

>  <INCHIKEY>  (4679) 
OBNCKNCVKJNDBV-UHFFFAOYSA-N

>  <FORMULA>  (4679) 
C6H12O2

>  <EXACT MASS>  (4679) 
116.083729624

>  <MW>  (4679) 
116

>  <ID>  (4679) 
JP004942

>  <CONTRIBUTOR>  (4679) 
University of Tokyo Team, {Faculty of Engineering, University of Tokyo

>  <COMMENT>  (4679) 
SMILES=CCCC(=O)OCC
cas=105-54-4
InChI=InChI=1S/C6H12O2/c1-3-5-6(7)8-4-2/h3-5H2,1-2H3
computed SMILES=O=C(OCC)CCC
accession=JP004942
date=2016.01.19 (Created 2008.10.21, modified 2011.05.06)
author=MASS SPECTROSCOPY SOC. OF JAPAN (MSSJ)
license=CC BY-NC-SA
exact mass=116.08373
ionization energy=70 eV
ion type=[M]+*
computed spectral entropy=2.2373269261677065
computed normalized entropy=0.7896782396784143
SPLASH=splash10-00du-9000000000-5cfbe6fd33a8e1accffd
submitter=submitter = University of Tokyo Team (Faculty of Engineering, University of Tokyo)
MoNA Rating=3.75

>  <NUM PEAKS>  (4679) 
17

>  <MASS SPECTRAL PEAKS>  (4679) 
40 11.96
42 11.97
43 75.93
44 1.59
45 15.87
55 3.68
57 1.27
60 20.54
61 9.87
70 9.07
71 99.99
72 4.64
73 18.07
88 54
89 16.26
101 7.63
116 4.51

$$$$

     RDKit          2D

  8  7  0  0  0  0  0  0  0  0999 V2000
    1.9486    3.3750    0.0000 C   0  0  0  0  0  0  0  0  0  0  0  0
   -5.8457    3.3750    0.0000 C   0  0  0  0  0  0  0  0  0  0  0  0
    0.6495    4.1250    0.0000 C   0  0  0  0  0  0  0  0  0  0  0  0
   -4.5466    4.1250    0.0000 C   0  0  0  0  0  0  0  0  0  0  0  0
   -0.6495    3.3750    0.0000 C   0  0  0  0  0  0  0  0  0  0  0  0
   -1.9486    4.1250    0.0000 C   0  0  0  0  0  0  0  0  0  0  0  0
   -1.9486    5.6250    0.0000 O   0  0  0  0  0  0  0  0  0  0  0  0
   -3.2476    3.3750    0.0000 O   0  0  0  0  0  0  0  0  0  0  0  0
  3  1  1  0
  4  2  1  0
  3  5  2  0
  6  5  1  0
  7  6  2  0
  8  4  1  0
  8  6  1  0
M  END
>  <NAME>  (4680) 
ETHYL CROTONATE

>  <SYNONYMS>  (4680) 


>  <SPECTRUM TYPE>  (4680) 
MS1

>  <INSTRUMENT TYPE>  (4680) 
EI-B

>  <INSTRUMENT>  (4680) 
JEOL JMS-D-3000

>  <ION MODE>  (4680) 
P

>  <INCHIKEY>  (4680) 
ZFDIRQKJPRINOQ-HWKANZROSA-N

>  <FORMULA>  (4680) 
C6H10O2

>  <EXACT MASS>  (4680) 
114.06807956

>  <MW>  (4680) 
114

>  <ID>  (4680) 
JP004941

>  <CONTRIBUTOR>  (4680) 
University of Tokyo Team, {Faculty of Engineering, University of Tokyo

>  <COMMENT>  (4680) 
SMILES=CC=CC(=O)OCC
cas=623-70-1
InChI=InChI=1S/C6H10O2/c1-3-5-6(7)8-4-2/h3,5H,4H2,1-2H3/b5-3+
computed SMILES=O=C(OCC)C=CC
accession=JP004941
date=2016.01.19 (Created 2008.10.21, modified 2011.05.06)
author=MASS SPECTROSCOPY SOC. OF JAPAN (MSSJ)
license=CC BY-NC-SA
exact mass=114.06808
ionization energy=70 eV
ion type=[M]+*
computed spectral entropy=1.591757356455778
computed normalized entropy=0.6031537619866092
SPLASH=splash10-014i-9000000000-e76d15352df041ad9a32
submitter=submitter = University of Tokyo Team (Faculty of Engineering, University of Tokyo)
MoNA Rating=3.75

>  <NUM PEAKS>  (4680) 
14

>  <MASS SPECTRAL PEAKS>  (4680) 
40 12.16
42 2.14
43 1.36
45 3.37
55 1.03
68 5.3
69 99.99
70 5.44
71 2.14
86 8.82
87 2.5
99 31.87
100 1.92
114 3.02

$$$$

     RDKit          2D

  7  7  0  0  0  0  0  0  0  0999 V2000
   -0.3829   -2.2600    0.0000 C   0  0  0  0  0  0  0  0  0  0  0  0
   -1.1300    1.5500    0.0000 C   0  0  0  0  0  0  0  0  0  0  0  0
    0.3700    1.5500    0.0000 C   0  0  0  0  0  0  0  0  0  0  0  0
   -1.5900    0.1200    0.0000 C   0  0  0  0  0  0  0  0  0  0  0  0
    0.8400    0.1200    0.0000 C   0  0  0  0  0  0  0  0  0  0  0  0
   -0.3800   -0.7600    0.0000 N   0  0  0  0  0  0  0  0  0  0  0  0
    2.2666   -0.3436    0.0000 O   0  0  0  0  0  0  0  0  0  0  0  0
  3  2  1  0
  4  2  1  0
  5  3  1  0
  6  1  1  0
  6  4  1  0
  6  5  1  0
  7  5  2  0
M  END
>  <NAME>  (4681) 
N-METHYL-2-PYRROLIDONE

>  <SYNONYMS>  (4681) 


>  <SPECTRUM TYPE>  (4681) 
MS1

>  <INSTRUMENT TYPE>  (4681) 
EI-B

>  <INSTRUMENT>  (4681) 
JEOL JMS-D-3000

>  <ION MODE>  (4681) 
P

>  <INCHIKEY>  (4681) 
SECXISVLQFMRJM-UHFFFAOYSA-N

>  <FORMULA>  (4681) 
C5H9NO

>  <EXACT MASS>  (4681) 
99.068413908

>  <MW>  (4681) 
99

>  <ID>  (4681) 
JP004940

>  <CONTRIBUTOR>  (4681) 
University of Tokyo Team, {Faculty of Engineering, University of Tokyo

>  <COMMENT>  (4681) 
SMILES=CN(C1)C(=O)CC1
InChI=InChI=1S/C5H9NO/c1-6-4-2-3-5(6)7/h2-4H2,1H3
computed SMILES=O=C1N(C)CCC1
accession=JP004940
date=2016.01.19 (Created 2008.10.21, modified 2011.05.06)
author=MASS SPECTROSCOPY SOC. OF JAPAN (MSSJ)
license=CC BY-NC-SA
exact mass=99.06841
ionization energy=70 eV
ion type=[M]+*
computed spectral entropy=2.2254385085533857
computed normalized entropy=0.7428696242983135
SPLASH=splash10-0007-9000000000-f6b5ec5cf179d5b2b4e3
submitter=submitter = University of Tokyo Team (Faculty of Engineering, University of Tokyo)
MoNA Rating=3.75

>  <NUM PEAKS>  (4681) 
20

>  <MASS SPECTRAL PEAKS>  (4681) 
40 38.45
42 51.67
43 17.27
44 65.44
45 2.94
52 1.14
54 2.26
55 3.4
56 7.27
57 2.26
58 5.44
62 1.88
68 3.8
69 4.27
70 7.86
71 11.17
97 1.64
98 69.28
99 99.99
100 6.13

$$$$

     RDKit          2D

  7  6  0  0  0  0  0  0  0  0999 V2000
    1.6238    1.6875    0.0000 C   0  0  0  0  0  0  0  0  0  0  0  0
    0.3248    3.9375    0.0000 C   0  0  0  0  0  0  0  0  0  0  0  0
   -3.5724    1.6875    0.0000 C   0  0  0  0  0  0  0  0  0  0  0  0
    0.3248    2.4375    0.0000 C   0  0  0  0  0  0  0  0  0  0  0  0
   -2.2733    2.4375    0.0000 C   0  0  0  0  0  0  0  0  0  0  0  0
   -2.2733    3.9375    0.0000 O   0  0  0  0  0  0  0  0  0  0  0  0
   -0.9743    1.6875    0.0000 O   0  0  0  0  0  0  0  0  0  0  0  0
  4  1  2  0
  4  2  1  0
  5  3  1  0
  6  5  2  0
  7  4  1  0
  7  5  1  0
M  END
>  <NAME>  (4682) 
ISOPROPENYL ACETATE

>  <SYNONYMS>  (4682) 


>  <SPECTRUM TYPE>  (4682) 
MS1

>  <INSTRUMENT TYPE>  (4682) 
EI-B

>  <INSTRUMENT>  (4682) 
JEOL JMS-D-3000

>  <ION MODE>  (4682) 
P

>  <INCHIKEY>  (4682) 
HETCEOQFVDFGSY-UHFFFAOYSA-N

>  <FORMULA>  (4682) 
C5H8O2

>  <EXACT MASS>  (4682) 
100.052429496

>  <MW>  (4682) 
100

>  <ID>  (4682) 
JP004939

>  <CONTRIBUTOR>  (4682) 
University of Tokyo Team, {Faculty of Engineering, University of Tokyo

>  <COMMENT>  (4682) 
SMILES=CC(=C)OC(C)=O
InChI=InChI=1S/C5H8O2/c1-4(2)7-5(3)6/h1H2,2-3H3
computed SMILES=O=C(OC(=C)C)C
accession=JP004939
date=2016.01.19 (Created 2008.10.21, modified 2011.05.06)
author=MASS SPECTROSCOPY SOC. OF JAPAN (MSSJ)
license=CC BY-NC-SA
exact mass=100.05243
ionization energy=70 eV
ion type=[M]+*
computed spectral entropy=1.2047472559725867
computed normalized entropy=0.5793609639054125
SPLASH=splash10-0006-9000000000-abe0e6beac8338461e08
submitter=submitter = University of Tokyo Team (Faculty of Engineering, University of Tokyo)
MoNA Rating=3.75

>  <NUM PEAKS>  (4682) 
8

>  <MASS SPECTRAL PEAKS>  (4682) 
40 4.38
42 5.52
43 99.99
44 3.62
57 2.84
58 19.26
72 8.05
100 5.63

$$$$

     RDKit          2D

  7  6  0  0  0  0  0  0  0  0999 V2000
    1.9486    2.6250    0.0000 C   0  0  0  0  0  0  0  0  0  0  0  0
   -4.5466    3.3750    0.0000 C   0  0  0  0  0  0  0  0  0  0  0  0
    0.6495    3.3750    0.0000 C   0  0  0  0  0  0  0  0  0  0  0  0
   -3.2476    2.6250    0.0000 C   0  0  0  0  0  0  0  0  0  0  0  0
   -0.6495    2.6250    0.0000 C   0  0  0  0  0  0  0  0  0  0  0  0
   -0.6495    1.1250    0.0000 O   0  0  0  0  0  0  0  0  0  0  0  0
   -1.9486    3.3750    0.0000 O   0  0  0  0  0  0  0  0  0  0  0  0
  3  1  2  0
  4  2  1  0
  5  3  1  0
  6  5  2  0
  7  4  1  0
  7  5  1  0
M  END
>  <NAME>  (4683) 
ETHYL ACRYLATE

>  <SYNONYMS>  (4683) 


>  <SPECTRUM TYPE>  (4683) 
MS1

>  <INSTRUMENT TYPE>  (4683) 
EI-B

>  <INSTRUMENT>  (4683) 
JEOL JMS-D-3000

>  <ION MODE>  (4683) 
P

>  <INCHIKEY>  (4683) 
JIGUQPWFLRLWPJ-UHFFFAOYSA-N

>  <FORMULA>  (4683) 
C5H8O2

>  <EXACT MASS>  (4683) 
100.052429496

>  <MW>  (4683) 
100

>  <ID>  (4683) 
JP004938

>  <CONTRIBUTOR>  (4683) 
University of Tokyo Team, {Faculty of Engineering, University of Tokyo

>  <COMMENT>  (4683) 
SMILES=CCOC(=O)C=C
cas=140-88-5
InChI=InChI=1S/C5H8O2/c1-3-5(6)7-4-2/h3H,1,4H2,2H3
computed SMILES=O=C(OCC)C=C
accession=JP004938
date=2016.01.19 (Created 2008.10.21, modified 2011.05.06)
author=MASS SPECTROSCOPY SOC. OF JAPAN (MSSJ)
license=CC BY-NC-SA
exact mass=100.05243
ionization energy=70 eV
ion type=[M]+*
computed spectral entropy=1.773596893510676
computed normalized entropy=0.6549350129435563
SPLASH=splash10-0a4i-9000000000-9fb2ce6a8c6e827cca22
submitter=submitter = University of Tokyo Team (Faculty of Engineering, University of Tokyo)
MoNA Rating=3.75

>  <NUM PEAKS>  (4683) 
15

>  <MASS SPECTRAL PEAKS>  (4683) 
43 9.19
44 1.31
45 10.83
53 1.23
54 4.43
55 99.99
56 13.02
57 1.84
58 4.94
72 1.61
73 10.8
82 4.96
85 5.15
99 9.01
100 3.42

$$$$

     RDKit          2D

  7  6  0  0  0  0  0  0  0  0999 V2000
    1.6238    1.6875    0.0000 C   0  0  0  0  0  0  0  0  0  0  0  0
    0.3248    3.9375    0.0000 C   0  0  0  0  0  0  0  0  0  0  0  0
   -3.5724    1.6875    0.0000 C   0  0  0  0  0  0  0  0  0  0  0  0
    0.3248    2.4375    0.0000 C   0  0  0  0  0  0  0  0  0  0  0  0
   -0.9743    1.6875    0.0000 C   0  0  0  0  0  0  0  0  0  0  0  0
   -0.9743    0.1875    0.0000 O   0  0  0  0  0  0  0  0  0  0  0  0
   -2.2733    2.4375    0.0000 O   0  0  0  0  0  0  0  0  0  0  0  0
  4  1  2  0
  4  2  1  0
  5  4  1  0
  6  5  2  0
  7  3  1  0
  7  5  1  0
M  END
>  <NAME>  (4684) 
METHYL 2-METHYLPROPENOATE

>  <SYNONYMS>  (4684) 
METHYL METHACRYLATE

>  <SPECTRUM TYPE>  (4684) 
MS1

>  <INSTRUMENT TYPE>  (4684) 
EI-B

>  <INSTRUMENT>  (4684) 
JEOL JMS-D-3000

>  <ION MODE>  (4684) 
P

>  <INCHIKEY>  (4684) 
VVQNEPGJFQJSBK-UHFFFAOYSA-N

>  <FORMULA>  (4684) 
C5H8O2

>  <EXACT MASS>  (4684) 
100.052429496

>  <MW>  (4684) 
100

>  <ID>  (4684) 
JP004937

>  <CONTRIBUTOR>  (4684) 
University of Tokyo Team, {Faculty of Engineering, University of Tokyo

>  <COMMENT>  (4684) 
SMILES=COC(=O)C(C)=C
InChI=InChI=1S/C5H8O2/c1-4(2)5(6)7-3/h1H2,2-3H3
computed SMILES=O=C(OC)C(=C)C
accession=JP004937
date=2016.01.19 (Created 2008.10.21, modified 2011.05.06)
author=MASS SPECTROSCOPY SOC. OF JAPAN (MSSJ)
license=CC BY-NC-SA
exact mass=100.05243
ionization energy=70 eV
ion type=[M]+*
computed spectral entropy=1.831304138731848
computed normalized entropy=0.6463700104242879
SPLASH=splash10-014i-9200000000-598b3051ae73088545da
submitter=submitter = University of Tokyo Team (Faculty of Engineering, University of Tokyo)
MoNA Rating=3.75

>  <NUM PEAKS>  (4684) 
17

>  <MASS SPECTRAL PEAKS>  (4684) 
40 3.5
42 6.03
45 1.37
53 1.95
54 1.28
55 8.35
56 3.53
57 1.32
59 11.49
68 1.91
69 99.99
70 5.17
82 2.63
85 5.01
99 11.49
100 45.77
101 2.82

$$$$

     RDKit          2D

  6  5  0  0  0  0  0  0  0  0999 V2000
    1.2990    2.2500    0.0000 C   0  0  0  0  0  0  0  0  0  0  0  0
   -3.8971    2.2500    0.0000 C   0  0  0  0  0  0  0  0  0  0  0  0
    0.0000    3.0000    0.0000 C   0  0  0  0  0  0  0  0  0  0  0  0
   -1.2990    2.2500    0.0000 C   0  0  0  0  0  0  0  0  0  0  0  0
   -1.2990    0.7500    0.0000 O   0  0  0  0  0  0  0  0  0  0  0  0
   -2.5981    3.0000    0.0000 O   0  0  0  0  0  0  0  0  0  0  0  0
  3  1  1  0
  4  3  1  0
  5  4  2  0
  6  2  1  0
  6  4  1  0
M  END
>  <NAME>  (4685) 
METHYL PROPIONATE

>  <SYNONYMS>  (4685) 
PROPANOIC ACID METHYL ESTER

>  <SPECTRUM TYPE>  (4685) 
MS1

>  <INSTRUMENT TYPE>  (4685) 
EI-B

>  <INSTRUMENT>  (4685) 
JEOL JMS-D-3000

>  <ION MODE>  (4685) 
P

>  <INCHIKEY>  (4685) 
RJUFJBKOKNCXHH-UHFFFAOYSA-N

>  <FORMULA>  (4685) 
C4H8O2

>  <EXACT MASS>  (4685) 
88.052429496

>  <MW>  (4685) 
88

>  <ID>  (4685) 
JP004936

>  <CONTRIBUTOR>  (4685) 
University of Tokyo Team, {Faculty of Engineering, University of Tokyo

>  <COMMENT>  (4685) 
SMILES=CCC(=O)OC
cas=554-12-1
InChI=InChI=1S/C4H8O2/c1-3-4(5)6-2/h3H2,1-2H3
computed SMILES=O=C(OC)CC
accession=JP004936
date=2016.01.19 (Created 2008.10.21, modified 2011.05.06)
author=MASS SPECTROSCOPY SOC. OF JAPAN (MSSJ)
license=CC BY-NC-SA
exact mass=88.05243
ionization energy=70 eV
ion type=[M]+*
computed spectral entropy=1.3745684084209149
computed normalized entropy=0.5732395505399942
SPLASH=splash10-0a4i-9000000000-00ff6f017d731e682f2f
submitter=submitter = University of Tokyo Team (Faculty of Engineering, University of Tokyo)
MoNA Rating=3.75

>  <NUM PEAKS>  (4685) 
11

>  <MASS SPECTRAL PEAKS>  (4685) 
42 1.39
45 2.76
55 4.49
56 3.24
57 99.99
58 1.71
59 32.02
60 1.34
87 2.24
88 30.82
89 1.53

$$$$

     RDKit          2D

  7  6  0  0  0  0  0  0  0  0999 V2000
    1.9486    2.6250    0.0000 C   0  0  0  0  0  0  0  0  0  0  0  0
    0.6495    3.3750    0.0000 C   0  0  0  0  0  0  0  0  0  0  0  0
   -3.2476    2.6250    0.0000 C   0  0  0  0  0  0  0  0  0  0  0  0
   -1.9486    3.3750    0.0000 C   0  0  0  0  0  0  0  0  0  0  0  0
   -4.5466    3.3750    0.0000 Cl  0  0  0  0  0  0  0  0  0  0  0  0
   -1.9486    4.8750    0.0000 O   0  0  0  0  0  0  0  0  0  0  0  0
   -0.6495    2.6250    0.0000 O   0  0  0  0  0  0  0  0  0  0  0  0
  2  1  1  0
  4  3  1  0
  5  3  1  0
  6  4  2  0
  7  2  1  0
  7  4  1  0
M  END
>  <NAME>  (4686) 
ETHYL CHLOROACETATE

>  <SYNONYMS>  (4686) 


>  <SPECTRUM TYPE>  (4686) 
MS1

>  <INSTRUMENT TYPE>  (4686) 
EI-B

>  <INSTRUMENT>  (4686) 
JEOL JMS-D-3000

>  <ION MODE>  (4686) 
P

>  <INCHIKEY>  (4686) 
VEUUMBGHMNQHGO-UHFFFAOYSA-N

>  <FORMULA>  (4686) 
C4H7ClO2

>  <EXACT MASS>  (4686) 
122.013457144

>  <MW>  (4686) 
122

>  <ID>  (4686) 
JP004935

>  <CONTRIBUTOR>  (4686) 
University of Tokyo Team, {Faculty of Engineering, University of Tokyo

>  <COMMENT>  (4686) 
SMILES=CCOC(=O)CCl
cas=105-39-5
InChI=InChI=1S/C4H7ClO2/c1-2-7-4(6)3-5/h2-3H2,1H3
computed SMILES=O=C(OCC)CCl
accession=JP004935
date=2016.01.19 (Created 2008.10.21, modified 2011.05.06)
author=MASS SPECTROSCOPY SOC. OF JAPAN (MSSJ)
license=CC BY-NC-SA
exact mass=122.01346
ionization energy=70 eV
ion type=[M]+*
computed spectral entropy=2.1060494691063587
computed normalized entropy=0.8475366546610659
SPLASH=splash10-004l-9000000000-0468979fb972805a2475
submitter=submitter = University of Tokyo Team (Faculty of Engineering, University of Tokyo)
MoNA Rating=3.75

>  <NUM PEAKS>  (4686) 
12

>  <MASS SPECTRAL PEAKS>  (4686) 
42 36.48
43 17.38
44 13.3
45 14.59
49 44.2
51 16.09
73 6.22
77 99.99
79 31.33
94 11.58
95 6.22
107 7.08

$$$$

     RDKit          2D

  6  5  0  0  0  0  0  0  0  0999 V2000
    1.2990    2.2500    0.0000 C   0  0  0  0  0  0  0  0  0  0  0  0
   -3.8971    2.2500    0.0000 C   0  0  0  0  0  0  0  0  0  0  0  0
    0.0000    3.0000    0.0000 C   0  0  0  0  0  0  0  0  0  0  0  0
   -2.5981    3.0000    0.0000 C   0  0  0  0  0  0  0  0  0  0  0  0
   -2.5981    4.5000    0.0000 O   0  0  0  0  0  0  0  0  0  0  0  0
   -1.2990    2.2500    0.0000 O   0  0  0  0  0  0  0  0  0  0  0  0
  3  1  2  0
  4  2  1  0
  5  4  2  0
  6  3  1  0
  6  4  1  0
M  END
>  <NAME>  (4687) 
VINYL ACETATE

>  <SYNONYMS>  (4687) 
ACETIC ACID ETHENYL ESTER

>  <SPECTRUM TYPE>  (4687) 
MS1

>  <INSTRUMENT TYPE>  (4687) 
EI-B

>  <INSTRUMENT>  (4687) 
JEOL JMS-D-3000

>  <ION MODE>  (4687) 
P

>  <INCHIKEY>  (4687) 
XTXRWKRVRITETP-UHFFFAOYSA-N

>  <FORMULA>  (4687) 
C4H6O2

>  <EXACT MASS>  (4687) 
86.036779432

>  <MW>  (4687) 
86

>  <ID>  (4687) 
JP004934

>  <CONTRIBUTOR>  (4687) 
University of Tokyo Team, {Faculty of Engineering, University of Tokyo

>  <COMMENT>  (4687) 
SMILES=C=COC(C)=O
cas=108-05-4
InChI=InChI=1S/C4H6O2/c1-3-6-4(2)5/h3H,1H2,2H3
computed SMILES=O=C(OC=C)C
accession=JP004934
date=2016.01.19 (Created 2008.10.21, modified 2011.05.06)
author=MASS SPECTROSCOPY SOC. OF JAPAN (MSSJ)
license=CC BY-NC-SA
exact mass=86.03678
ionization energy=70 eV
ion type=[M]+*
computed spectral entropy=0.5959445012026152
computed normalized entropy=0.42988308826502997
SPLASH=splash10-0006-9000000000-822a98d017022e0d3838
submitter=submitter = University of Tokyo Team (Faculty of Engineering, University of Tokyo)
MoNA Rating=3.75

>  <NUM PEAKS>  (4687) 
4

>  <MASS SPECTRAL PEAKS>  (4687) 
42 6.08
43 99.99
44 2.55
86 10.55

$$$$

     RDKit          2D

  6  6  0  0  0  0  0  0  0  0999 V2000
   -1.1900   -1.1800    0.0000 C   0  0  0  0  0  0  0  0  0  0  0  0
    0.3100   -1.1800    0.0000 C   0  0  0  0  0  0  0  0  0  0  0  0
   -1.6500    0.2500    0.0000 C   0  0  0  0  0  0  0  0  0  0  0  0
    0.7700    0.2500    0.0000 C   0  0  0  0  0  0  0  0  0  0  0  0
    2.1960    0.7153    0.0000 O   0  0  0  0  0  0  0  0  0  0  0  0
   -0.4400    1.1300    0.0000 O   0  0  0  0  0  0  0  0  0  0  0  0
  2  1  1  0
  3  1  1  0
  4  2  1  0
  5  4  2  0
  6  3  1  0
  6  4  1  0
M  END
>  <NAME>  (4688) 
GAMMA-BUTYROLACTONE

>  <SYNONYMS>  (4688) 
DIHYDRO-2(3H)-FURANONE

>  <SPECTRUM TYPE>  (4688) 
MS1

>  <INSTRUMENT TYPE>  (4688) 
EI-B

>  <INSTRUMENT>  (4688) 
JEOL JMS-D-3000

>  <ION MODE>  (4688) 
P

>  <INCHIKEY>  (4688) 
YEJRWHAVMIAJKC-UHFFFAOYSA-N

>  <FORMULA>  (4688) 
C4H6O2

>  <EXACT MASS>  (4688) 
86.036779432

>  <MW>  (4688) 
86

>  <ID>  (4688) 
JP004933

>  <CONTRIBUTOR>  (4688) 
University of Tokyo Team, {Faculty of Engineering, University of Tokyo

>  <COMMENT>  (4688) 
SMILES=O=C(C1)OCC1
InChI=InChI=1S/C4H6O2/c5-4-2-1-3-6-4/h1-3H2
computed SMILES=O=C1OCCC1
accession=JP004933
date=2016.01.19 (Created 2008.10.21, modified 2011.05.06)
author=MASS SPECTROSCOPY SOC. OF JAPAN (MSSJ)
license=CC BY-NC-SA
exact mass=86.03678
ionization energy=70 eV
ion type=[M]+*
computed spectral entropy=1.7486575959058108
computed normalized entropy=0.7292468590027736
SPLASH=splash10-0006-9000000000-c2f6d51e7b2f9ce1e9f1
submitter=submitter = University of Tokyo Team (Faculty of Engineering, University of Tokyo)
MoNA Rating=3.75

>  <NUM PEAKS>  (4688) 
11

>  <MASS SPECTRAL PEAKS>  (4688) 
40 16.4
42 99.99
43 6.51
44 3.05
53 1.41
55 9.09
56 31.57
57 6.03
85 14.23
86 36.31
87 1.77

$$$$

     RDKit          2D

 11 11  0  0  1  0  0  0  0  0999 V2000
   -3.5376   -0.2051    0.0000 C   0  0  0  0  0  0  0  0  0  0  0  0
   -2.2386   -2.4551    0.0000 C   0  0  0  0  0  0  0  0  0  0  0  0
    2.9576    2.0449    0.0000 C   0  0  0  0  0  0  0  0  0  0  0  0
    0.3590    2.0458    0.0000 C   0  0  0  0  0  0  0  0  0  0  0  0
   -0.9400    1.2958    0.0000 C   0  0  0  0  0  0  0  0  0  0  0  0
    1.6590   -0.2059    0.0000 C   0  0  0  0  0  0  0  0  0  0  0  0
   -2.2386   -0.9551    0.0000 C   0  0  0  0  0  0  0  0  0  0  0  0
    1.6585    1.2949    0.0000 C   0  0  0  0  0  0  0  0  0  0  0  0
   -0.9395   -0.2051    0.0000 C   0  0  0  0  0  0  0  0  0  0  0  0
    0.3600   -0.9559    0.0000 C   0  0  0  0  0  0  0  0  0  0  0  0
    0.3597   -2.4559    0.0000 O   0  0  0  0  0  0  0  0  0  0  0  0
  5  4  1  0
  7  1  1  0
  7  2  1  0
  8  3  1  6
  8  4  1  0
  8  6  1  0
  9  5  1  0
  9  7  1  0
 10  6  1  0
 10  9  1  0
 11 10  2  0
M  END
>  <NAME>  (4689) 
L-MENTHONE

>  <SYNONYMS>  (4689) 
L-P-MENTHAN-3-ONE

>  <SPECTRUM TYPE>  (4689) 
MS1

>  <INSTRUMENT TYPE>  (4689) 
EI-B

>  <INSTRUMENT>  (4689) 
JEOL JMS-D-3000

>  <ION MODE>  (4689) 
P

>  <INCHIKEY>  (4689) 
NFLGAXVYCFJBMK-IENPIDJESA-N

>  <FORMULA>  (4689) 
C10H18O

>  <EXACT MASS>  (4689) 
154.135765196

>  <MW>  (4689) 
154

>  <ID>  (4689) 
JP004932

>  <CONTRIBUTOR>  (4689) 
University of Tokyo Team, {Faculty of Engineering, University of Tokyo

>  <COMMENT>  (4689) 
SMILES=CC(C1)CC(=O)C(C1)C(C)C
InChI=InChI=1S/C10H18O/c1-7(2)9-5-4-8(3)6-10(9)11/h7-9H,4-6H2,1-3H3/t8-,9?/m0/s1
computed SMILES=O=C1CC(C)CCC1C(C)C
accession=JP004932
date=2016.01.19 (Created 2008.10.21, modified 2011.05.06)
author=MASS SPECTROSCOPY SOC. OF JAPAN (MSSJ)
license=CC BY-NC-SA
exact mass=154.13577
ionization energy=70 eV
ion type=[M]+*
computed spectral entropy=2.9731377314857843
computed normalized entropy=0.8233745001720622
SPLASH=splash10-03di-9700000000-2cb64410c8a8e0320328
submitter=submitter = University of Tokyo Team (Faculty of Engineering, University of Tokyo)
MoNA Rating=3.75

>  <NUM PEAKS>  (4689) 
37

>  <MASS SPECTRAL PEAKS>  (4689) 
42 7.79
43 14.53
53 3.61
54 1.44
55 33.07
56 21.88
57 5.11
58 1.44
67 4.24
68 3.6
69 53.95
70 25.91
71 4.21
77 1.44
79 2.32
81 4.19
82 1.5
83 19.82
84 12.14
85 1.89
93 2.77
94 1.83
95 14.12
96 2.04
97 20.74
98 9.95
109 2.13
110 7.61
111 24.96
112 99.99
113 7.84
121 4.59
125 7.05
139 42.9
140 4.5
154 32.59
155 3.76

$$$$

     RDKit          2D

 11 12  0  0  0  0  0  0  0  0999 V2000
   -2.6000   -0.7500    0.0000 C   0  0  0  0  0  0  0  0  0  0  0  0
   -2.6000    0.7500    0.0000 C   0  0  0  0  0  0  0  0  0  0  0  0
    2.6000   -0.7500    0.0000 C   0  0  0  0  0  0  0  0  0  0  0  0
   -1.3000   -1.5000    0.0000 C   0  0  0  0  0  0  0  0  0  0  0  0
    1.3000   -1.5000    0.0000 C   0  0  0  0  0  0  0  0  0  0  0  0
   -1.3000    1.5000    0.0000 C   0  0  0  0  0  0  0  0  0  0  0  0
    2.6000    0.7500    0.0000 C   0  0  0  0  0  0  0  0  0  0  0  0
    0.0000   -0.7500    0.0000 C   0  0  0  0  0  0  0  0  0  0  0  0
    0.0000    0.7500    0.0000 C   0  0  0  0  0  0  0  0  0  0  0  0
    1.3000    1.5000    0.0000 C   0  0  0  0  0  0  0  0  0  0  0  0
    1.3000    3.0000    0.0000 Cl  0  0  0  0  0  0  0  0  0  0  0  0
  2  1  2  0
  4  1  1  0
  5  3  2  0
  6  2  1  0
  7  3  1  0
  8  4  2  0
  8  5  1  0
  9  6  2  0
  9  8  1  0
 10  7  2  0
 10  9  1  0
 11 10  1  0
M  END
>  <NAME>  (4690) 
1-CHLORONAPHTHALENE

>  <SYNONYMS>  (4690) 


>  <SPECTRUM TYPE>  (4690) 
MS1

>  <INSTRUMENT TYPE>  (4690) 
EI-B

>  <INSTRUMENT>  (4690) 
JEOL JMS-D-3000

>  <ION MODE>  (4690) 
P

>  <INCHIKEY>  (4690) 
JTPNRXUCIXHOKM-UHFFFAOYSA-N

>  <FORMULA>  (4690) 
C10H7Cl

>  <EXACT MASS>  (4690) 
162.023627904

>  <MW>  (4690) 
162

>  <ID>  (4690) 
JP004931

>  <CONTRIBUTOR>  (4690) 
University of Tokyo Team, {Faculty of Engineering, University of Tokyo

>  <COMMENT>  (4690) 
SMILES=Clc(c1)c(c2)c(ccc2)cc1
cas=90-13-1
InChI=InChI=1S/C10H7Cl/c11-10-7-3-5-8-4-1-2-6-9(8)10/h1-7H
computed SMILES=ClC1=CC=CC=2C=CC=CC12
accession=JP004931
date=2016.01.19 (Created 2008.10.21, modified 2011.05.06)
author=MASS SPECTROSCOPY SOC. OF JAPAN (MSSJ)
license=CC BY-NC-SA
exact mass=162.02363
ionization energy=70 eV
ion type=[M]+*
computed spectral entropy=1.9836245531814372
computed normalized entropy=0.6515388188975594
SPLASH=splash10-03di-1900000000-b37a4cf2f132a52a5bba
submitter=submitter = University of Tokyo Team (Faculty of Engineering, University of Tokyo)
MoNA Rating=3.75

>  <NUM PEAKS>  (4690) 
21

>  <MASS SPECTRAL PEAKS>  (4690) 
50 1.41
51 1.37
63 4.75
68 1.89
74 2.08
75 2.87
76 1.27
77 2.76
81 6.22
82 1.95
98 1.12
99 1.42
101 2.42
125 1.81
126 11.55
127 24.18
128 2.66
162 99.99
163 11.84
164 32.94
165 3.78

$$$$

     RDKit          2D

 10 10  0  0  0  0  0  0  0  0999 V2000
    2.9231    0.5071    0.0000 C   0  0  0  0  0  0  0  0  0  0  0  0
    2.9236    2.0079    0.0000 C   0  0  0  0  0  0  0  0  0  0  0  0
    1.6236   -0.2437    0.0000 C   0  0  0  0  0  0  0  0  0  0  0  0
   -2.2731    2.0071    0.0000 C   0  0  0  0  0  0  0  0  0  0  0  0
    1.6245    2.7579    0.0000 C   0  0  0  0  0  0  0  0  0  0  0  0
    0.3245    0.5063    0.0000 C   0  0  0  0  0  0  0  0  0  0  0  0
   -0.9740    2.7571    0.0000 C   0  0  0  0  0  0  0  0  0  0  0  0
   -3.5721    2.7571    0.0000 C   0  0  0  0  0  0  0  0  0  0  0  0
    0.3250    2.0071    0.0000 C   0  0  0  0  0  0  0  0  0  0  0  0
   -4.8712    2.0071    0.0000 O   0  0  0  0  0  0  0  0  0  0  0  0
  2  1  2  0
  3  1  1  0
  5  2  1  0
  6  3  2  0
  4  7  2  0
  8  4  1  0
  9  5  2  0
  9  6  1  0
  9  7  1  0
 10  8  2  0
M  END
>  <NAME>  (4691) 
TRANS-3-PHENYL-2-PROPENAL

>  <SYNONYMS>  (4691) 


>  <SPECTRUM TYPE>  (4691) 
MS1

>  <INSTRUMENT TYPE>  (4691) 
EI-B

>  <INSTRUMENT>  (4691) 
JEOL JMS-D-3000

>  <ION MODE>  (4691) 
P

>  <INCHIKEY>  (4691) 
KJPRLNWUNMBNBZ-QPJJXVBHSA-N

>  <FORMULA>  (4691) 
C9H8O

>  <EXACT MASS>  (4691) 
132.057514876

>  <MW>  (4691) 
132

>  <ID>  (4691) 
JP004930

>  <CONTRIBUTOR>  (4691) 
University of Tokyo Team, {Faculty of Engineering, University of Tokyo

>  <COMMENT>  (4691) 
SMILES=O=CC=Cc(c1)cccc1
InChI=InChI=1S/C9H8O/c10-8-4-7-9-5-2-1-3-6-9/h1-8H/b7-4+
computed SMILES=O=CC=CC=1C=CC=CC1
accession=JP004930
date=2016.01.19 (Created 2008.10.21, modified 2011.05.06)
author=MASS SPECTROSCOPY SOC. OF JAPAN (MSSJ)
license=CC BY-NC-SA
exact mass=132.05751
ionization energy=70 eV
ion type=[M]+*
computed spectral entropy=2.498072871720501
computed normalized entropy=0.749675736916026
SPLASH=splash10-0f89-5900000000-482f8b5c30c53689d8eb
submitter=submitter = University of Tokyo Team (Faculty of Engineering, University of Tokyo)
MoNA Rating=3.75

>  <NUM PEAKS>  (4691) 
28

>  <MASS SPECTRAL PEAKS>  (4691) 
50 10.54
51 31.6
52 10.1
53 1.89
54 1.69
55 1.94
61 1.27
62 2.78
63 6.5
65 1.69
66 2.49
74 5.12
75 5.05
76 5.19
77 40.13
78 26.06
79 1.7
89 1.23
91 2.96
101 1.5
102 8.68
103 53.98
104 23.77
105 2.96
115 1.1
131 99.99
132 73.48
133 7.43

$$$$

     RDKit          2D

 12 12  0  0  0  0  0  0  0  0999 V2000
   -5.5207    3.1321    0.0000 C   0  0  0  0  0  0  0  0  0  0  0  0
   -4.2216    2.3821    0.0000 C   0  0  0  0  0  0  0  0  0  0  0  0
    3.5726    0.8821    0.0000 C   0  0  0  0  0  0  0  0  0  0  0  0
    3.5731    2.3829    0.0000 C   0  0  0  0  0  0  0  0  0  0  0  0
    2.2731    0.1313    0.0000 C   0  0  0  0  0  0  0  0  0  0  0  0
    2.2740    3.1329    0.0000 C   0  0  0  0  0  0  0  0  0  0  0  0
    0.9740    0.8813    0.0000 C   0  0  0  0  0  0  0  0  0  0  0  0
   -2.9226    3.1321    0.0000 C   0  0  0  0  0  0  0  0  0  0  0  0
    0.9745    2.3821    0.0000 C   0  0  0  0  0  0  0  0  0  0  0  0
   -0.3245    3.1321    0.0000 C   0  0  0  0  0  0  0  0  0  0  0  0
   -0.3245    4.6321    0.0000 O   0  0  0  0  0  0  0  0  0  0  0  0
   -1.6236    2.3821    0.0000 O   0  0  0  0  0  0  0  0  0  0  0  0
  2  1  1  0
  4  3  2  0
  5  3  1  0
  6  4  1  0
  7  5  2  0
  8  2  1  0
  9  6  2  0
  9  7  1  0
 10  9  1  0
 11 10  2  0
 12  8  1  0
 12 10  1  0
M  END
>  <NAME>  (4692) 
PROPYL BENZOATE

>  <SYNONYMS>  (4692) 


>  <SPECTRUM TYPE>  (4692) 
MS1

>  <INSTRUMENT TYPE>  (4692) 
EI-B

>  <INSTRUMENT>  (4692) 
JEOL JMS-D-3000

>  <ION MODE>  (4692) 
P

>  <INCHIKEY>  (4692) 
UDEWPOVQBGFNGE-UHFFFAOYSA-N

>  <FORMULA>  (4692) 
C10H12O2

>  <EXACT MASS>  (4692) 
164.083729624

>  <MW>  (4692) 
164

>  <ID>  (4692) 
JP004929

>  <CONTRIBUTOR>  (4692) 
University of Tokyo Team, {Faculty of Engineering, University of Tokyo

>  <COMMENT>  (4692) 
SMILES=CCCOC(=O)c(c1)cccc1
cas=2315-68-6
InChI=InChI=1S/C10H12O2/c1-2-8-12-10(11)9-6-4-3-5-7-9/h3-7H,2,8H2,1H3
computed SMILES=O=C(OCCC)C=1C=CC=CC1
accession=JP004929
date=2016.01.19 (Created 2008.10.21, modified 2011.05.06)
author=MASS SPECTROSCOPY SOC. OF JAPAN (MSSJ)
license=CC BY-NC-SA
exact mass=164.08373
ionization energy=70 eV
ion type=[M]+*
computed spectral entropy=1.9897771361640726
computed normalized entropy=0.6757746213261214
SPLASH=splash10-0ab9-3900000000-ce49dd0a4c304d8d369e
submitter=submitter = University of Tokyo Team (Faculty of Engineering, University of Tokyo)
MoNA Rating=3.75

>  <NUM PEAKS>  (4692) 
19

>  <MASS SPECTRAL PEAKS>  (4692) 
40 2
42 3.15
43 1.96
50 4.32
51 15.27
52 1.1
59 1.99
75 1
76 2.22
77 42.46
78 3.69
79 2.62
105 99.99
106 8.92
122 26.69
123 42.71
124 3.23
135 1.35
164 1.53

$$$$

     RDKit          2D

 10  9  0  0  0  0  0  0  0  0999 V2000
   -4.8714    3.9375    0.0000 C   0  0  0  0  0  0  0  0  0  0  0  0
    2.9228    3.9375    0.0000 C   0  0  0  0  0  0  0  0  0  0  0  0
    0.3248   -0.5625    0.0000 C   0  0  0  0  0  0  0  0  0  0  0  0
   -3.5724    3.1875    0.0000 C   0  0  0  0  0  0  0  0  0  0  0  0
    1.6238    3.1875    0.0000 C   0  0  0  0  0  0  0  0  0  0  0  0
    0.3248    0.9375    0.0000 C   0  0  0  0  0  0  0  0  0  0  0  0
   -0.9743    3.1875    0.0000 C   0  0  0  0  0  0  0  0  0  0  0  0
   -2.2733    3.9375    0.0000 O   0  0  0  0  0  0  0  0  0  0  0  0
    0.3248    3.9375    0.0000 O   0  0  0  0  0  0  0  0  0  0  0  0
   -0.9743    1.6875    0.0000 O   0  0  0  0  0  0  0  0  0  0  0  0
  4  1  1  0
  5  2  1  0
  6  3  1  0
  8  4  1  0
  8  7  1  0
  9  5  1  0
  9  7  1  0
 10  6  1  0
 10  7  1  0
M  END
>  <NAME>  (4693) 
TRIETHYL ORTHOFORMATE

>  <SYNONYMS>  (4693) 


>  <SPECTRUM TYPE>  (4693) 
MS1

>  <INSTRUMENT TYPE>  (4693) 
EI-B

>  <INSTRUMENT>  (4693) 
JEOL JMS-D-300

>  <ION MODE>  (4693) 
P

>  <INCHIKEY>  (4693) 
GKASDNZWUGIAMG-UHFFFAOYSA-N

>  <FORMULA>  (4693) 
C7H16O3

>  <EXACT MASS>  (4693) 
148.109944372

>  <MW>  (4693) 
148

>  <ID>  (4693) 
JP004928

>  <CONTRIBUTOR>  (4693) 
University of Tokyo Team, {Faculty of Engineering, University of Tokyo

>  <COMMENT>  (4693) 
SMILES=CCOC(OCC)OCC
InChI=InChI=1S/C7H16O3/c1-4-8-7(9-5-2)10-6-3/h7H,4-6H2,1-3H3
computed SMILES=O(CC)C(OCC)OCC
accession=JP004928
date=2016.01.19 (Created 2008.10.21, modified 2011.05.06)
author=MASS SPECTROSCOPY SOC. OF JAPAN (MSSJ)
license=CC BY-NC-SA
exact mass=148.10994
ionization energy=70 eV
ion type=[M]+*
computed spectral entropy=1.443202804273503
computed normalized entropy=0.6018623167763575
SPLASH=splash10-0f92-9400000000-830692210143934501d6
submitter=submitter = University of Tokyo Team (Faculty of Engineering, University of Tokyo)
MoNA Rating=3.75

>  <NUM PEAKS>  (4693) 
11

>  <MASS SPECTRAL PEAKS>  (4693) 
43 1.81
45 8.24
47 99.99
48 1.26
63 2.91
75 56.37
76 1.98
91 1.07
103 76.65
104 4.51
147 1.35

$$$$

     RDKit          2D

  8  7  0  0  0  0  0  0  0  0999 V2000
   -2.2733    0.5625    0.0000 C   0  0  0  0  0  0  0  0  0  0  0  0
    0.3248    0.5625    0.0000 C   0  0  0  0  0  0  0  0  0  0  0  0
    0.3248    5.0625    0.0000 C   0  0  0  0  0  0  0  0  0  0  0  0
    1.6238    2.8125    0.0000 C   0  0  0  0  0  0  0  0  0  0  0  0
   -0.9743    1.3125    0.0000 C   0  0  0  0  0  0  0  0  0  0  0  0
    0.3248    3.5625    0.0000 C   0  0  0  0  0  0  0  0  0  0  0  0
   -0.9743    2.8125    0.0000 C   0  0  0  0  0  0  0  0  0  0  0  0
   -2.2733    3.5625    0.0000 O   0  0  0  0  0  0  0  0  0  0  0  0
  5  1  1  0
  5  2  1  0
  6  3  1  0
  6  4  1  0
  7  5  1  0
  7  6  1  0
  8  7  2  0
M  END
>  <NAME>  (4694) 
DIISOPROPYL KETONE

>  <SYNONYMS>  (4694) 
2,4-DIMETHYL-3-PENTANONE

>  <SPECTRUM TYPE>  (4694) 
MS1

>  <INSTRUMENT TYPE>  (4694) 
EI-B

>  <INSTRUMENT>  (4694) 
JEOL JMS-D-3000

>  <ION MODE>  (4694) 
P

>  <INCHIKEY>  (4694) 
HXVNBWAKAOHACI-UHFFFAOYSA-N

>  <FORMULA>  (4694) 
C7H14O

>  <EXACT MASS>  (4694) 
114.104465068

>  <MW>  (4694) 
114

>  <ID>  (4694) 
JP004927

>  <CONTRIBUTOR>  (4694) 
University of Tokyo Team, {Faculty of Engineering, University of Tokyo

>  <COMMENT>  (4694) 
SMILES=CC(C)C(=O)C(C)C
cas=565-80-0
InChI=InChI=1S/C7H14O/c1-5(2)7(8)6(3)4/h5-6H,1-4H3
computed SMILES=O=C(C(C)C)C(C)C
accession=JP004927
date=2016.01.19 (Created 2008.10.21, modified 2011.05.06)
author=MASS SPECTROSCOPY SOC. OF JAPAN (MSSJ)
license=CC BY-NC-SA
exact mass=114.10447
ionization energy=70 eV
ion type=[M]+*
computed spectral entropy=1.1076597140402251
computed normalized entropy=0.6181966570085654
SPLASH=splash10-0006-9000000000-1d1a0ce69adf31b36584
submitter=submitter = University of Tokyo Team (Faculty of Engineering, University of Tokyo)
MoNA Rating=3.75

>  <NUM PEAKS>  (4694) 
6

>  <MASS SPECTRAL PEAKS>  (4694) 
42 5.76
43 99.99
70 8
71 36.58
72 2
114 8.23

$$$$

     RDKit          2D

 13 13  0  0  0  0  0  0  0  0999 V2000
   -5.8454    3.6946    0.0000 C   0  0  0  0  0  0  0  0  0  0  0  0
   -4.5464    1.4446    0.0000 C   0  0  0  0  0  0  0  0  0  0  0  0
    3.2478    1.4446    0.0000 C   0  0  0  0  0  0  0  0  0  0  0  0
    3.2483    2.9454    0.0000 C   0  0  0  0  0  0  0  0  0  0  0  0
    1.9483    0.6938    0.0000 C   0  0  0  0  0  0  0  0  0  0  0  0
    1.9493    3.6954    0.0000 C   0  0  0  0  0  0  0  0  0  0  0  0
    0.6493    1.4438    0.0000 C   0  0  0  0  0  0  0  0  0  0  0  0
   -3.2474    3.6946    0.0000 C   0  0  0  0  0  0  0  0  0  0  0  0
   -4.5464    2.9446    0.0000 C   0  0  0  0  0  0  0  0  0  0  0  0
    0.6498    2.9446    0.0000 C   0  0  0  0  0  0  0  0  0  0  0  0
   -0.6493    3.6946    0.0000 C   0  0  0  0  0  0  0  0  0  0  0  0
   -0.6493    5.1946    0.0000 O   0  0  0  0  0  0  0  0  0  0  0  0
   -1.9483    2.9446    0.0000 O   0  0  0  0  0  0  0  0  0  0  0  0
  4  3  2  0
  5  3  1  0
  6  4  1  0
  7  5  2  0
  9  1  1  0
  9  2  1  0
  9  8  1  0
 10  6  2  0
 10  7  1  0
 11 10  1  0
 12 11  2  0
 13  8  1  0
 13 11  1  0
M  END
>  <NAME>  (4695) 
BUTYL BENZOATE

>  <SYNONYMS>  (4695) 


>  <SPECTRUM TYPE>  (4695) 
MS1

>  <INSTRUMENT TYPE>  (4695) 
EI-B

>  <INSTRUMENT>  (4695) 
JEOL JMS-D-3000

>  <ION MODE>  (4695) 
P

>  <INCHIKEY>  (4695) 
KYZHGEFMXZOSJN-UHFFFAOYSA-N

>  <FORMULA>  (4695) 
C11H14O2

>  <EXACT MASS>  (4695) 
178.099379688

>  <MW>  (4695) 
178

>  <ID>  (4695) 
JP004926

>  <CONTRIBUTOR>  (4695) 
University of Tokyo Team, {Faculty of Engineering, University of Tokyo

>  <COMMENT>  (4695) 
SMILES=CC(C)COC(=O)c(c1)cccc1
cas=136-60-7
InChI=InChI=1S/C11H14O2/c1-9(2)8-13-11(12)10-6-4-3-5-7-10/h3-7,9H,8H2,1-2H3
computed SMILES=O=C(OCC(C)C)C=1C=CC=CC1
accession=JP004926
date=2016.01.19 (Created 2008.10.21, modified 2011.05.06)
author=MASS SPECTROSCOPY SOC. OF JAPAN (MSSJ)
license=CC BY-NC-SA
exact mass=178.09938
ionization energy=70 eV
ion type=[M]+*
computed spectral entropy=2.096549942128508
computed normalized entropy=0.7120371510371846
SPLASH=splash10-0ab9-5900000000-f47e935b7d9fd061c4df
submitter=submitter = University of Tokyo Team (Faculty of Engineering, University of Tokyo)
MoNA Rating=3.75

>  <NUM PEAKS>  (4695) 
19

>  <MASS SPECTRAL PEAKS>  (4695) 
40 3.09
50 3.64
51 13.91
52 1.11
55 4.35
56 30.56
57 2.16
73 1.02
76 2.53
77 42.29
78 3.57
79 5.49
105 99.99
106 8.83
122 17.19
123 64.14
124 5.16
135 1.31
178 1.52

$$$$

     RDKit          2D

 10 10  0  0  0  0  0  0  0  0999 V2000
   -2.5981   -0.4300    0.0000 C   0  0  0  0  0  0  0  0  0  0  0  0
   -1.2986   -1.1808    0.0000 C   0  0  0  0  0  0  0  0  0  0  0  0
   -2.5986    1.0708    0.0000 C   0  0  0  0  0  0  0  0  0  0  0  0
    0.0005   -0.4308    0.0000 C   0  0  0  0  0  0  0  0  0  0  0  0
   -1.2995    1.8208    0.0000 C   0  0  0  0  0  0  0  0  0  0  0  0
    0.0000    1.0700    0.0000 C   0  0  0  0  0  0  0  0  0  0  0  0
    1.2990    1.8200    0.0000 C   0  0  0  0  0  0  0  0  0  0  0  0
    2.0490    0.5210    0.0000 F   0  0  0  0  0  0  0  0  0  0  0  0
    2.5981    2.5700    0.0000 F   0  0  0  0  0  0  0  0  0  0  0  0
    0.5490    3.1190    0.0000 F   0  0  0  0  0  0  0  0  0  0  0  0
  2  1  2  0
  3  1  1  0
  4  2  1  0
  5  3  2  0
  6  4  2  0
  6  5  1  0
  7  6  1  0
  8  7  1  0
  9  7  1  0
 10  7  1  0
M  END
>  <NAME>  (4696) 
BENZOTRIFLUORIDE

>  <SYNONYMS>  (4696) 
ALPHA,ALPHA,ALPHA-TRIFLUOROTOLUENE

>  <SPECTRUM TYPE>  (4696) 
MS1

>  <INSTRUMENT TYPE>  (4696) 
EI-B

>  <INSTRUMENT>  (4696) 
JEOL JMS-D-3000

>  <ION MODE>  (4696) 
P

>  <INCHIKEY>  (4696) 
GETTZEONDQJALK-UHFFFAOYSA-N

>  <FORMULA>  (4696) 
C7H5F3

>  <EXACT MASS>  (4696) 
146.03433482

>  <MW>  (4696) 
146

>  <ID>  (4696) 
JP004925

>  <CONTRIBUTOR>  (4696) 
University of Tokyo Team, {Faculty of Engineering, University of Tokyo

>  <COMMENT>  (4696) 
SMILES=FC(F)(F)c(c1)cccc1
cas=98-08-8
InChI=InChI=1S/C7H5F3/c8-7(9,10)6-4-2-1-3-5-6/h1-5H
computed SMILES=FC(F)(F)C=1C=CC=CC1
accession=JP004925
date=2016.01.19 (Created 2008.10.21, modified 2011.05.06)
author=MASS SPECTROSCOPY SOC. OF JAPAN (MSSJ)
license=CC BY-NC-SA
exact mass=146.03433
ionization energy=70 eV
ion type=[M]+*
computed spectral entropy=2.1579998707406727
computed normalized entropy=0.6981463060774454
SPLASH=splash10-0002-3900000000-6ab7cc3d0490f1660a2a
submitter=submitter = University of Tokyo Team (Faculty of Engineering, University of Tokyo)
MoNA Rating=3.75

>  <NUM PEAKS>  (4696) 
22

>  <MASS SPECTRAL PEAKS>  (4696) 
50 5.98
51 9.32
57 1.35
63 1.72
69 2.36
70 1.35
73 2.04
74 2.68
75 5.48
76 1.58
77 11.34
95 3.53
96 28.47
97 1.99
99 1.36
125 2.95
126 2.42
127 35.14
128 2.74
145 40.97
146 99.99
147 7.8

$$$$

     RDKit          2D

  7  6  0  0  0  0  0  0  0  0999 V2000
    1.6238    1.6875    0.0000 C   0  0  0  0  0  0  0  0  0  0  0  0
    0.3248    3.9375    0.0000 C   0  0  0  0  0  0  0  0  0  0  0  0
   -3.5724    1.6875    0.0000 C   0  0  0  0  0  0  0  0  0  0  0  0
   -0.9743    1.6875    0.0000 C   0  0  0  0  0  0  0  0  0  0  0  0
    0.3248    2.4375    0.0000 C   0  0  0  0  0  0  0  0  0  0  0  0
   -2.2733    2.4375    0.0000 C   0  0  0  0  0  0  0  0  0  0  0  0
   -2.2733    3.9375    0.0000 O   0  0  0  0  0  0  0  0  0  0  0  0
  5  1  1  0
  5  2  1  0
  5  4  1  0
  6  3  1  0
  6  4  1  0
  7  6  2  0
M  END
>  <NAME>  (4697) 
4-METHYLPENTAN-2-ONE

>  <SYNONYMS>  (4697) 
4-METHYL-2-PENTANONE

>  <SPECTRUM TYPE>  (4697) 
MS1

>  <INSTRUMENT TYPE>  (4697) 
EI-B

>  <INSTRUMENT>  (4697) 
JEOL JMS-D-3000

>  <ION MODE>  (4697) 
P

>  <INCHIKEY>  (4697) 
NTIZESTWPVYFNL-UHFFFAOYSA-N

>  <FORMULA>  (4697) 
C6H12O

>  <EXACT MASS>  (4697) 
100.088815004

>  <MW>  (4697) 
100

>  <ID>  (4697) 
JP004924

>  <CONTRIBUTOR>  (4697) 
University of Tokyo Team, {Faculty of Engineering, University of Tokyo

>  <COMMENT>  (4697) 
SMILES=CC(C)CC(C)=O
cas=108-10-1
InChI=InChI=1S/C6H12O/c1-5(2)4-6(3)7/h5H,4H2,1-3H3
computed SMILES=O=C(C)CC(C)C
accession=JP004924
date=2016.01.19 (Created 2008.10.21, modified 2011.05.06)
author=MASS SPECTROSCOPY SOC. OF JAPAN (MSSJ)
license=CC BY-NC-SA
exact mass=100.08882
ionization energy=70 eV
ion type=[M]+*
computed spectral entropy=1.5806469547513267
computed normalized entropy=0.6360991286679439
SPLASH=splash10-052f-9000000000-ef9512a77e6eca91c42f
submitter=submitter = University of Tokyo Team (Faculty of Engineering, University of Tokyo)
MoNA Rating=3.75

>  <NUM PEAKS>  (4697) 
12

>  <MASS SPECTRAL PEAKS>  (4697) 
42 3.88
43 99.99
44 1.47
55 1.33
56 1.47
57 17.67
58 45.91
59 3.34
67 1.53
85 14.65
100 14.99
101 1.13

$$$$

     RDKit          2D

 10  9  0  0  0  0  0  0  0  0999 V2000
   -7.1447    4.8750    0.0000 C   0  0  0  0  0  0  0  0  0  0  0  0
    1.9486    5.6250    0.0000 C   0  0  0  0  0  0  0  0  0  0  0  0
   -5.8457    5.6250    0.0000 C   0  0  0  0  0  0  0  0  0  0  0  0
    0.6495    4.8750    0.0000 C   0  0  0  0  0  0  0  0  0  0  0  0
   -3.2476    5.6250    0.0000 C   0  0  0  0  0  0  0  0  0  0  0  0
   -1.9486    4.8750    0.0000 C   0  0  0  0  0  0  0  0  0  0  0  0
   -8.4437    5.6250    0.0000 Cl  0  0  0  0  0  0  0  0  0  0  0  0
    3.2476    4.8750    0.0000 Cl  0  0  0  0  0  0  0  0  0  0  0  0
   -4.5466    4.8750    0.0000 O   0  0  0  0  0  0  0  0  0  0  0  0
   -0.6495    5.6250    0.0000 O   0  0  0  0  0  0  0  0  0  0  0  0
  3  1  1  0
  4  2  1  0
  6  5  1  0
  7  1  1  0
  8  2  1  0
  9  3  1  0
  9  5  1  0
 10  4  1  0
 10  6  1  0
M  END
>  <NAME>  (4698) 
1,2-BIS(2-CHLOROETHOXY)ETHANE

>  <SYNONYMS>  (4698) 


>  <SPECTRUM TYPE>  (4698) 
MS1

>  <INSTRUMENT TYPE>  (4698) 
EI-B

>  <INSTRUMENT>  (4698) 
JEOL JMS-D-3000

>  <ION MODE>  (4698) 
P

>  <INCHIKEY>  (4698) 
AGYUOJIYYGGHKV-UHFFFAOYSA-N

>  <FORMULA>  (4698) 
C6H12Cl2O2

>  <EXACT MASS>  (4698) 
186.021434984

>  <MW>  (4698) 
186

>  <ID>  (4698) 
JP004923

>  <CONTRIBUTOR>  (4698) 
University of Tokyo Team, {Faculty of Engineering, University of Tokyo

>  <COMMENT>  (4698) 
SMILES=ClCCOCCOCCCl
cas=112-26-5
InChI=InChI=1S/C6H12Cl2O2/c7-1-3-9-5-6-10-4-2-8/h1-6H2
computed SMILES=ClCCOCCOCCCl
accession=JP004923
date=2016.01.19 (Created 2008.10.21, modified 2011.05.06)
author=MASS SPECTROSCOPY SOC. OF JAPAN (MSSJ)
license=CC BY-NC-SA
exact mass=186.02144
ionization energy=70 eV
ion type=[M]+*
computed spectral entropy=2.336555462001142
computed normalized entropy=0.7559117990963052
SPLASH=splash10-03dl-9100000000-c6260de32ab2d38c1595
submitter=submitter = University of Tokyo Team (Faculty of Engineering, University of Tokyo)
MoNA Rating=3.75

>  <NUM PEAKS>  (4698) 
22

>  <MASS SPECTRAL PEAKS>  (4698) 
43 12.66
44 3.21
45 20.43
49 2.31
57 1.12
59 7
62 3.23
63 99.99
64 3.28
65 31.57
72 1.92
73 7.78
93 50.42
94 1.9
95 15.96
101 1.36
106 10.41
107 21.26
108 4.3
109 7.13
137 4.48
139 1.45

$$$$

     RDKit          2D

  6  5  0  0  0  0  0  0  0  0999 V2000
    1.2990    2.2500    0.0000 C   0  0  0  0  0  0  0  0  0  0  0  0
   -3.8971    2.2500    0.0000 C   0  0  0  0  0  0  0  0  0  0  0  0
    0.0000    3.0000    0.0000 C   0  0  0  0  0  0  0  0  0  0  0  0
   -2.5981    3.0000    0.0000 C   0  0  0  0  0  0  0  0  0  0  0  0
   -1.2990    2.2500    0.0000 C   0  0  0  0  0  0  0  0  0  0  0  0
   -1.2990    0.7500    0.0000 O   0  0  0  0  0  0  0  0  0  0  0  0
  3  1  1  0
  4  2  1  0
  5  3  1  0
  5  4  1  0
  6  5  2  0
M  END
>  <NAME>  (4699) 
3-PENTANONE

>  <SYNONYMS>  (4699) 


>  <SPECTRUM TYPE>  (4699) 
MS1

>  <INSTRUMENT TYPE>  (4699) 
EI-B

>  <INSTRUMENT>  (4699) 
JEOL JMS-D-3000

>  <ION MODE>  (4699) 
P

>  <INCHIKEY>  (4699) 
FDPIMTJIUBPUKL-UHFFFAOYSA-N

>  <FORMULA>  (4699) 
C5H10O

>  <EXACT MASS>  (4699) 
86.07316494

>  <MW>  (4699) 
86

>  <ID>  (4699) 
JP004922

>  <CONTRIBUTOR>  (4699) 
University of Tokyo Team, {Faculty of Engineering, University of Tokyo

>  <COMMENT>  (4699) 
SMILES=CCC(=O)CC
cas=96-22-0
InChI=InChI=1S/C5H10O/c1-3-5(6)4-2/h3-4H2,1-2H3
computed SMILES=O=C(CC)CC
accession=JP004922
date=2016.01.19 (Created 2008.10.21, modified 2011.05.06)
author=MASS SPECTROSCOPY SOC. OF JAPAN (MSSJ)
license=CC BY-NC-SA
exact mass=86.07316
ionization energy=70 eV
ion type=[M]+*
computed spectral entropy=0.9087921044443699
computed normalized entropy=0.4136091111570096
SPLASH=splash10-0a4i-9000000000-8c54b4d20d574dc02730
submitter=submitter = University of Tokyo Team (Faculty of Engineering, University of Tokyo)
MoNA Rating=3.75

>  <NUM PEAKS>  (4699) 
9

>  <MASS SPECTRAL PEAKS>  (4699) 
42 1.27
43 1.52
53 1.03
55 1.27
56 4.68
57 99.99
58 3.4
86 17.27
87 1.15

$$$$

     RDKit          2D

  7  6  0  0  0  0  0  0  0  0999 V2000
   -1.9486    4.1250    0.0000 C   0  0  0  0  0  0  0  0  0  0  0  0
   -0.6495    3.3750    0.0000 C   0  0  0  0  0  0  0  0  0  0  0  0
   -3.2476    3.3750    0.0000 C   0  0  0  0  0  0  0  0  0  0  0  0
    0.6495    4.1250    0.0000 C   0  0  0  0  0  0  0  0  0  0  0  0
   -4.5466    4.1250    0.0000 C   0  0  0  0  0  0  0  0  0  0  0  0
    1.9486    3.3750    0.0000 Br  0  0  0  0  0  0  0  0  0  0  0  0
   -5.8457    3.3750    0.0000 Br  0  0  0  0  0  0  0  0  0  0  0  0
  2  1  1  0
  3  1  1  0
  4  2  1  0
  5  3  1  0
  6  4  1  0
  7  5  1  0
M  END
>  <NAME>  (4700) 
1,5-DIBROMOPENTANE

>  <SYNONYMS>  (4700) 


>  <SPECTRUM TYPE>  (4700) 
MS1

>  <INSTRUMENT TYPE>  (4700) 
EI-B

>  <INSTRUMENT>  (4700) 
JEOL JMS-D-3000

>  <ION MODE>  (4700) 
P

>  <INCHIKEY>  (4700) 
IBODDUNKEPPBKW-UHFFFAOYSA-N

>  <FORMULA>  (4700) 
C5H10Br2

>  <EXACT MASS>  (4700) 
227.91492452

>  <MW>  (4700) 
228

>  <ID>  (4700) 
JP004921

>  <CONTRIBUTOR>  (4700) 
University of Tokyo Team, {Faculty of Engineering, University of Tokyo

>  <COMMENT>  (4700) 
SMILES=BrCCCCCBr
cas=111-24-0
InChI=InChI=1S/C5H10Br2/c6-4-2-1-3-5-7/h1-5H2
computed SMILES=BrCCCCCBr
accession=JP004921
date=2016.01.19 (Created 2008.10.21, modified 2011.05.06)
author=MASS SPECTROSCOPY SOC. OF JAPAN (MSSJ)
license=CC BY-NC-SA
exact mass=227.91493
ionization energy=70 eV
ion type=[M]+*
computed spectral entropy=1.847757303184297
computed normalized entropy=0.6069120333256532
SPLASH=splash10-014i-9200000000-b46f99a6b435df9b10c5
submitter=submitter = University of Tokyo Team (Faculty of Engineering, University of Tokyo)
MoNA Rating=3.75

>  <NUM PEAKS>  (4700) 
21

>  <MASS SPECTRAL PEAKS>  (4700) 
42 7.68
43 8.48
53 2.45
55 1
67 2.75
68 3.71
69 99.99
70 5.74
80 1.21
82 1.18
93 1.15
95 1.28
107 5.23
109 4.98
148 7.87
149 6.76
150 8.05
151 6.41
228 0.24
230 0.45
232 0.24

$$$$

     RDKit          2D

  8  7  0  0  0  0  0  0  0  0999 V2000
   -3.5724    3.9375    0.0000 C   0  0  0  0  0  0  0  0  0  0  0  0
    2.9228    3.1875    0.0000 C   0  0  0  0  0  0  0  0  0  0  0  0
   -0.9743    3.9375    0.0000 C   0  0  0  0  0  0  0  0  0  0  0  0
   -2.2733    3.1875    0.0000 C   0  0  0  0  0  0  0  0  0  0  0  0
    0.3248    3.1875    0.0000 C   0  0  0  0  0  0  0  0  0  0  0  0
   -2.2733    1.6875    0.0000 O   0  0  0  0  0  0  0  0  0  0  0  0
    0.3248    1.6875    0.0000 O   0  0  0  0  0  0  0  0  0  0  0  0
    1.6238    3.9375    0.0000 O   0  0  0  0  0  0  0  0  0  0  0  0
  4  1  1  0
  4  3  1  0
  5  3  1  0
  6  4  2  0
  7  5  2  0
  8  2  1  0
  8  5  1  0
M  END
>  <NAME>  (4701) 
METHYL ACETOACETATE

>  <SYNONYMS>  (4701) 


>  <SPECTRUM TYPE>  (4701) 
MS1

>  <INSTRUMENT TYPE>  (4701) 
EI-B

>  <INSTRUMENT>  (4701) 
JEOL JMS-D-3000

>  <ION MODE>  (4701) 
P

>  <INCHIKEY>  (4701) 
WRQNANDWMGAFTP-UHFFFAOYSA-N

>  <FORMULA>  (4701) 
C5H8O3

>  <EXACT MASS>  (4701) 
116.04734411599999

>  <MW>  (4701) 
116

>  <ID>  (4701) 
JP004920

>  <CONTRIBUTOR>  (4701) 
University of Tokyo Team, {Faculty of Engineering, University of Tokyo

>  <COMMENT>  (4701) 
SMILES=COC(=O)CC(C)=O
InChI=InChI=1S/C5H8O3/c1-4(6)3-5(7)8-2/h3H2,1-2H3
computed SMILES=O=C(OC)CC(=O)C
accession=JP004920
date=2016.01.19 (Created 2008.10.21, modified 2011.05.06)
author=MASS SPECTROSCOPY SOC. OF JAPAN (MSSJ)
license=CC BY-NC-SA
exact mass=116.04734
ionization energy=70 eV
ion type=[M]+*
computed spectral entropy=1.6924741969181238
computed normalized entropy=0.6413177076243605
SPLASH=splash10-0006-9000000000-f8789e71041e62cce331
submitter=submitter = University of Tokyo Team (Faculty of Engineering, University of Tokyo)
MoNA Rating=3.75

>  <NUM PEAKS>  (4701) 
14

>  <MASS SPECTRAL PEAKS>  (4701) 
42 9.91
43 99.99
44 4.62
57 2.58
58 1.72
59 10.96
69 6.56
74 9.71
84 5.02
85 9.2
86 1.28
88 3
101 3.1
116 5.45

$$$$

     RDKit          2D

  7  6  0  0  0  0  0  0  0  0999 V2000
    1.6238    1.6875    0.0000 C   0  0  0  0  0  0  0  0  0  0  0  0
   -3.5724    1.6875    0.0000 C   0  0  0  0  0  0  0  0  0  0  0  0
   -0.9743    1.6875    0.0000 C   0  0  0  0  0  0  0  0  0  0  0  0
    0.3248    2.4375    0.0000 C   0  0  0  0  0  0  0  0  0  0  0  0
   -2.2733    2.4375    0.0000 C   0  0  0  0  0  0  0  0  0  0  0  0
    0.3248    3.9375    0.0000 O   0  0  0  0  0  0  0  0  0  0  0  0
   -2.2733    3.9375    0.0000 O   0  0  0  0  0  0  0  0  0  0  0  0
  4  1  1  0
  4  3  1  0
  5  2  1  0
  5  3  1  0
  6  4  2  0
  7  5  2  0
M  END
>  <NAME>  (4702) 
ACETYLACETONE

>  <SYNONYMS>  (4702) 
2,4-PENTANEDIONE

>  <SPECTRUM TYPE>  (4702) 
MS1

>  <INSTRUMENT TYPE>  (4702) 
EI-B

>  <INSTRUMENT>  (4702) 
JEOL JMS-D-3000

>  <ION MODE>  (4702) 
P

>  <INCHIKEY>  (4702) 
YRKCREAYFQTBPV-UHFFFAOYSA-N

>  <FORMULA>  (4702) 
C5H8O2

>  <EXACT MASS>  (4702) 
100.052429496

>  <MW>  (4702) 
100

>  <ID>  (4702) 
JP004919

>  <CONTRIBUTOR>  (4702) 
University of Tokyo Team, {Faculty of Engineering, University of Tokyo

>  <COMMENT>  (4702) 
SMILES=CC(=O)CC(C)=O
InChI=InChI=1S/C5H8O2/c1-4(6)3-5(2)7/h3H2,1-2H3
computed SMILES=O=C(C)CC(=O)C
accession=JP004919
date=2016.01.19 (Created 2008.10.21, modified 2011.05.06)
author=MASS SPECTROSCOPY SOC. OF JAPAN (MSSJ)
license=CC BY-NC-SA
exact mass=100.05243
ionization energy=70 eV
ion type=[M]+*
computed spectral entropy=1.3657701355360274
computed normalized entropy=0.6215887759601721
SPLASH=splash10-0006-9100000000-f1c22c3e7618740489d1
submitter=submitter = University of Tokyo Team (Faculty of Engineering, University of Tokyo)
MoNA Rating=3.75

>  <NUM PEAKS>  (4702) 
9

>  <MASS SPECTRAL PEAKS>  (4702) 
42 5.74
43 99.99
44 1.73
55 1.5
58 4.14
72 4.08
85 44.2
100 31.78
101 1.92

$$$$

     RDKit          2D

  6  6  0  0  0  0  0  0  0  0999 V2000
    0.0000    1.5000    0.0000 C   0  0  0  0  0  0  0  0  0  0  0  0
    1.3000    0.7500    0.0000 C   0  0  0  0  0  0  0  0  0  0  0  0
   -1.3000    0.7500    0.0000 C   0  0  0  0  0  0  0  0  0  0  0  0
    1.3000   -0.7500    0.0000 C   0  0  0  0  0  0  0  0  0  0  0  0
   -1.3000   -0.7500    0.0000 C   0  0  0  0  0  0  0  0  0  0  0  0
   -0.0000   -1.5000    0.0000 O   0  0  0  0  0  0  0  0  0  0  0  0
  2  1  1  0
  3  1  1  0
  4  2  2  0
  5  3  1  0
  6  4  1  0
  6  5  1  0
M  END
>  <NAME>  (4703) 
3,4-DIHYDRO-2H-PYRAN

>  <SYNONYMS>  (4703) 


>  <SPECTRUM TYPE>  (4703) 
MS1

>  <INSTRUMENT TYPE>  (4703) 
EI-B

>  <INSTRUMENT>  (4703) 
JEOL JMS-D-3000

>  <ION MODE>  (4703) 
P

>  <INCHIKEY>  (4703) 
BUDQDWGNQVEFAC-UHFFFAOYSA-N

>  <FORMULA>  (4703) 
C5H8O

>  <EXACT MASS>  (4703) 
84.057514876

>  <MW>  (4703) 
84

>  <ID>  (4703) 
JP004918

>  <CONTRIBUTOR>  (4703) 
University of Tokyo Team, {Faculty of Engineering, University of Tokyo

>  <COMMENT>  (4703) 
SMILES=C(C1)C=COC1
cas=110-87-2
InChI=InChI=1S/C5H8O/c1-2-4-6-5-3-1/h2,4H,1,3,5H2
computed SMILES=O1C=CCCC1
accession=JP004918
computed spectral entropy=2.0949545124269093
computed normalized entropy=0.7248045192469562
date=2016.01.19 (Created 2008.10.21, modified 2011.05.06)
author=MASS SPECTROSCOPY SOC. OF JAPAN (MSSJ)
license=CC BY-NC-SA
exact mass=84.05751
ionization energy=70 eV
ion type=[M]+*
SPLASH=splash10-0a59-9000000000-7db99326ead83ffed3f2
submitter=submitter = University of Tokyo Team (Faculty of Engineering, University of Tokyo)
MoNA Rating=3.75

>  <NUM PEAKS>  (4703) 
18

>  <MASS SPECTRAL PEAKS>  (4703) 
42 3.57
43 2.33
44 1.74
50 3.31
51 4.05
52 1.9
53 12.7
54 30.1
55 99.99
56 26.33
57 11.8
65 1.54
66 1.65
69 10.62
81 1.02
83 32.31
84 69.57
85 3.89

$$$$

     RDKit          2D

  7  7  0  0  0  0  0  0  0  0999 V2000
   -1.1700   -1.2200    0.0000 C   0  0  0  0  0  0  0  0  0  0  0  0
    0.3300   -1.2200    0.0000 C   0  0  0  0  0  0  0  0  0  0  0  0
   -1.6300    0.2000    0.0000 C   0  0  0  0  0  0  0  0  0  0  0  0
    2.2271    0.6621    0.0000 C   0  0  0  0  0  0  0  0  0  0  0  0
    0.8000    0.2000    0.0000 C   0  0  0  0  0  0  0  0  0  0  0  0
    3.3407   -0.3428    0.0000 O   0  0  0  0  0  0  0  0  0  0  0  0
   -0.4200    1.0800    0.0000 O   0  0  0  0  0  0  0  0  0  0  0  0
  2  1  1  0
  3  1  2  0
  5  2  2  0
  5  4  1  0
  6  4  2  0
  7  3  1  0
  7  5  1  0
M  END
>  <NAME>  (4704) 
FURFURAL

>  <SYNONYMS>  (4704) 
2-FURALDEHYDE

>  <SPECTRUM TYPE>  (4704) 
MS1

>  <INSTRUMENT TYPE>  (4704) 
EI-B

>  <INSTRUMENT>  (4704) 
JEOL JMS-D-3000

>  <ION MODE>  (4704) 
P

>  <INCHIKEY>  (4704) 
HYBBIBNJHNGZAN-UHFFFAOYSA-N

>  <FORMULA>  (4704) 
C5H4O2

>  <EXACT MASS>  (4704) 
96.021129368

>  <MW>  (4704) 
96

>  <ID>  (4704) 
JP004917

>  <CONTRIBUTOR>  (4704) 
University of Tokyo Team, {Faculty of Engineering, University of Tokyo

>  <COMMENT>  (4704) 
SMILES=O=Cc(c1)occ1
cas=98-01-1
InChI=InChI=1S/C5H4O2/c6-4-5-2-1-3-7-5/h1-4H
computed SMILES=O=CC=1OC=CC1
accession=JP004917
date=2016.01.19 (Created 2008.10.21, modified 2011.05.06)
author=MASS SPECTROSCOPY SOC. OF JAPAN (MSSJ)
license=CC BY-NC-SA
exact mass=96.02113
ionization energy=70 eV
ion type=[M]+*
computed spectral entropy=1.0385397818375595
computed normalized entropy=0.49943206434098436
SPLASH=splash10-0002-9000000000-316042e81451a85c85c7
submitter=submitter = University of Tokyo Team (Faculty of Engineering, University of Tokyo)
MoNA Rating=3.75

>  <NUM PEAKS>  (4704) 
8

>  <MASS SPECTRAL PEAKS>  (4704) 
50 2.19
51 2.64
53 1.74
67 2.27
68 1.21
95 91.9
96 99.99
97 6.05

$$$$

     RDKit          2D

  7  6  0  0  0  0  0  0  0  0999 V2000
    1.2990    2.2500    0.0000 C   0  0  0  0  0  0  0  0  0  0  0  0
   -3.8971    2.2500    0.0000 C   0  0  0  0  0  0  0  0  0  0  0  0
   -0.0000    0.0000    0.0000 C   0  0  0  0  0  0  0  0  0  0  0  0
   -1.2990    2.2500    0.0000 C   0  0  0  0  0  0  0  0  0  0  0  0
    0.0000    3.0000    0.0000 O   0  0  0  0  0  0  0  0  0  0  0  0
   -2.5981    3.0000    0.0000 O   0  0  0  0  0  0  0  0  0  0  0  0
   -1.2990    0.7500    0.0000 O   0  0  0  0  0  0  0  0  0  0  0  0
  5  1  1  0
  5  4  1  0
  6  2  1  0
  6  4  1  0
  7  3  1  0
  7  4  1  0
M  END
>  <NAME>  (4705) 
TRIMETHYL ORTHOFORMATE

>  <SYNONYMS>  (4705) 
TRIMEOXYMETHANE

>  <SPECTRUM TYPE>  (4705) 
MS1

>  <INSTRUMENT TYPE>  (4705) 
EI-B

>  <INSTRUMENT>  (4705) 
JEOL JMS-D-3000

>  <ION MODE>  (4705) 
P

>  <INCHIKEY>  (4705) 
PYOKUURKVVELLB-UHFFFAOYSA-N

>  <FORMULA>  (4705) 
C4H10O3

>  <EXACT MASS>  (4705) 
106.06299417999999

>  <MW>  (4705) 
106

>  <ID>  (4705) 
JP004916

>  <CONTRIBUTOR>  (4705) 
University of Tokyo Team, {Faculty of Engineering, University of Tokyo

>  <COMMENT>  (4705) 
SMILES=COC(OC)OC
cas=149-73-5
InChI=InChI=1S/C4H10O3/c1-5-4(6-2)7-3/h4H,1-3H3
computed SMILES=O(C)C(OC)OC
accession=JP004916
date=2016.01.19 (Created 2008.10.21, modified 2011.05.06)
author=MASS SPECTROSCOPY SOC. OF JAPAN (MSSJ)
license=CC BY-NC-SA
exact mass=106.06299
ionization energy=70 eV
ion type=[M]+*
computed spectral entropy=0.8462167470185022
computed normalized entropy=0.434869383578331
SPLASH=splash10-004i-9000000000-6dda3526ae52cdb0f0b2
submitter=submitter = University of Tokyo Team (Faculty of Engineering, University of Tokyo)
MoNA Rating=3.75

>  <NUM PEAKS>  (4705) 
7

>  <MASS SPECTRAL PEAKS>  (4705) 
43 1.21
45 2.19
47 21.87
60 1.51
75 99.99
76 3.59
105 2.57

$$$$

     RDKit          2D

  6  5  0  0  0  0  0  0  0  0999 V2000
   -1.9486    3.3750    0.0000 C   0  0  0  0  0  0  0  0  0  0  0  0
   -0.6495    2.6250    0.0000 C   0  0  0  0  0  0  0  0  0  0  0  0
   -3.2476    2.6250    0.0000 C   0  0  0  0  0  0  0  0  0  0  0  0
    0.6495    3.3750    0.0000 C   0  0  0  0  0  0  0  0  0  0  0  0
   -4.5466    3.3750    0.0000 Cl  0  0  0  0  0  0  0  0  0  0  0  0
    1.9486    2.6250    0.0000 Cl  0  0  0  0  0  0  0  0  0  0  0  0
  2  1  1  0
  3  1  1  0
  4  2  1  0
  5  3  1  0
  6  4  1  0
M  END
>  <NAME>  (4706) 
1,4-DICHLOROBUTANE

>  <SYNONYMS>  (4706) 


>  <SPECTRUM TYPE>  (4706) 
MS1

>  <INSTRUMENT TYPE>  (4706) 
EI-B

>  <INSTRUMENT>  (4706) 
JEOL JMS-D-3000

>  <ION MODE>  (4706) 
P

>  <INCHIKEY>  (4706) 
KJDRSWPQXHESDQ-UHFFFAOYSA-N

>  <FORMULA>  (4706) 
C4H8Cl2

>  <EXACT MASS>  (4706) 
126.00030561599999

>  <MW>  (4706) 
126

>  <ID>  (4706) 
JP004915

>  <CONTRIBUTOR>  (4706) 
University of Tokyo Team, {Faculty of Engineering, University of Tokyo

>  <COMMENT>  (4706) 
SMILES=ClCCCCCl
cas=110-56-5
InChI=InChI=1S/C4H8Cl2/c5-3-1-2-4-6/h1-4H2
computed SMILES=ClCCCCCl
accession=JP004915
date=2016.01.19 (Created 2008.10.21, modified 2011.05.06)
author=MASS SPECTROSCOPY SOC. OF JAPAN (MSSJ)
license=CC BY-NC-SA
exact mass=126.00031
ionization energy=70 eV
ion type=[M]+*
computed spectral entropy=1.8466448791568726
computed normalized entropy=0.6517846187019201
SPLASH=splash10-0a4i-9000000000-4f89cf9b30df87f74e43
submitter=submitter = University of Tokyo Team (Faculty of Engineering, University of Tokyo)
MoNA Rating=3.75

>  <NUM PEAKS>  (4706) 
17

>  <MASS SPECTRAL PEAKS>  (4706) 
42 1.49
49 5.71
51 2.49
53 3.75
54 8.27
55 99.99
56 4.68
61 1.13
62 14.8
63 6.06
64 4.83
65 1.79
75 5.38
77 2.27
90 18.2
91 1.16
92 5.92

$$$$

     RDKit          2D

  7  6  0  0  0  0  0  0  0  0999 V2000
    0.6495    4.1250    0.0000 C   0  0  0  0  0  0  0  0  0  0  0  0
   -4.5466    4.1250    0.0000 C   0  0  0  0  0  0  0  0  0  0  0  0
   -0.6495    3.3750    0.0000 C   0  0  0  0  0  0  0  0  0  0  0  0
   -3.2476    3.3750    0.0000 C   0  0  0  0  0  0  0  0  0  0  0  0
    1.9486    3.3750    0.0000 Cl  0  0  0  0  0  0  0  0  0  0  0  0
   -5.8457    3.3750    0.0000 Cl  0  0  0  0  0  0  0  0  0  0  0  0
   -1.9486    4.1250    0.0000 O   0  0  0  0  0  0  0  0  0  0  0  0
  3  1  1  0
  4  2  1  0
  5  1  1  0
  6  2  1  0
  7  3  1  0
  7  4  1  0
M  END
>  <NAME>  (4707) 
BIS(2-CHLOROETHYL) ETHER

>  <SYNONYMS>  (4707) 


>  <SPECTRUM TYPE>  (4707) 
MS1

>  <INSTRUMENT TYPE>  (4707) 
EI-B

>  <INSTRUMENT>  (4707) 
JEOL JMS-D-3000

>  <ION MODE>  (4707) 
P

>  <INCHIKEY>  (4707) 
ZNSMNVMLTJELDZ-UHFFFAOYSA-N

>  <FORMULA>  (4707) 
C4H8Cl2O

>  <EXACT MASS>  (4707) 
141.995220236

>  <MW>  (4707) 
142

>  <ID>  (4707) 
JP004914

>  <CONTRIBUTOR>  (4707) 
University of Tokyo Team, {Faculty of Engineering, University of Tokyo

>  <COMMENT>  (4707) 
SMILES=ClCCOCCCl
InChI=InChI=1S/C4H8Cl2O/c5-1-3-7-4-2-6/h1-4H2
computed SMILES=ClCCOCCCl
accession=JP004914
date=2016.01.19 (Created 2008.10.21, modified 2011.05.06)
author=MASS SPECTROSCOPY SOC. OF JAPAN (MSSJ)
license=CC BY-NC-SA
exact mass=141.99522
ionization energy=70 eV
ion type=[M]+*
computed spectral entropy=1.524230244229912
computed normalized entropy=0.613395374172286
SPLASH=splash10-01ox-9000000000-88c9c34737f002a9f00c
submitter=submitter = University of Tokyo Team (Faculty of Engineering, University of Tokyo)
MoNA Rating=3.75

>  <NUM PEAKS>  (4707) 
12

>  <MASS SPECTRAL PEAKS>  (4707) 
43 1.6
45 1.12
49 3.22
62 2.01
63 78.5
64 2.37
65 24.74
93 99.99
94 3.76
95 32.31
96 1.2
142 0.88

$$$$

     RDKit          2D

  5  4  0  0  0  0  0  0  0  0999 V2000
    0.0000    0.0000    0.0000 C   0  0  0  0  0  0  0  0  0  0  0  0
    1.2990    2.2500    0.0000 C   0  0  0  0  0  0  0  0  0  0  0  0
   -1.2990    2.2500    0.0000 C   0  0  0  0  0  0  0  0  0  0  0  0
    0.0000    1.5000    0.0000 C   0  0  0  0  0  0  0  0  0  0  0  0
   -1.2990    3.7500    0.0000 Cl  0  0  0  0  0  0  0  0  0  0  0  0
  4  1  2  0
  4  2  1  0
  4  3  1  0
  5  3  1  0
M  END
>  <NAME>  (4708) 
3-CHLORO-2-METHYLPROPENE

>  <SYNONYMS>  (4708) 


>  <SPECTRUM TYPE>  (4708) 
MS1

>  <INSTRUMENT TYPE>  (4708) 
EI-B

>  <INSTRUMENT>  (4708) 
JEOL JMS-D-3000

>  <ION MODE>  (4708) 
P

>  <INCHIKEY>  (4708) 
OHXAOPZTJOUYKM-UHFFFAOYSA-N

>  <FORMULA>  (4708) 
C4H7Cl

>  <EXACT MASS>  (4708) 
90.023627904

>  <MW>  (4708) 
90

>  <ID>  (4708) 
JP004913

>  <CONTRIBUTOR>  (4708) 
University of Tokyo Team, {Faculty of Engineering, University of Tokyo

>  <COMMENT>  (4708) 
SMILES=CC(=C)CCl
cas=563-47-3
InChI=InChI=1S/C4H7Cl/c1-4(2)3-5/h1,3H2,2H3
computed SMILES=ClCC(=C)C
accession=JP004913
date=2016.01.19 (Created 2008.10.21, modified 2011.05.06)
author=MASS SPECTROSCOPY SOC. OF JAPAN (MSSJ)
license=CC BY-NC-SA
exact mass=90.02363
ionization energy=70 eV
ion type=[M]+*
computed spectral entropy=2.365015195544023
computed normalized entropy=0.7542719050569804
SPLASH=splash10-0a4l-9000000000-1922b4057771797409ca
submitter=submitter = University of Tokyo Team (Faculty of Engineering, University of Tokyo)
MoNA Rating=3.75

>  <NUM PEAKS>  (4708) 
23

>  <MASS SPECTRAL PEAKS>  (4708) 
42 1.31
43 10.1
44 1.01
45 9.24
49 3.44
50 3.78
51 4
52 1.37
53 15.21
54 25
55 99.99
56 4.67
58 4.36
59 12.2
62 5.65
64 1.98
74 7.82
75 12.93
77 4.18
89 1.29
90 47.54
91 2.73
92 15.74

$$$$

     RDKit          2D

  6  5  0  0  0  0  0  0  0  0999 V2000
   -1.9486    3.3750    0.0000 C   0  0  0  0  0  0  0  0  0  0  0  0
   -0.6495    2.6250    0.0000 C   0  0  0  0  0  0  0  0  0  0  0  0
   -3.2476    2.6250    0.0000 C   0  0  0  0  0  0  0  0  0  0  0  0
    0.6495    3.3750    0.0000 C   0  0  0  0  0  0  0  0  0  0  0  0
   -4.5466    3.3750    0.0000 Cl  0  0  0  0  0  0  0  0  0  0  0  0
    1.9486    2.6250    0.0000 Cl  0  0  0  0  0  0  0  0  0  0  0  0
  1  2  2  0
  3  1  1  0
  4  2  1  0
  5  3  1  0
  6  4  1  0
M  END
>  <NAME>  (4709) 
TRANS-1,4-DICHLORO-2-BUTENE

>  <SYNONYMS>  (4709) 


>  <SPECTRUM TYPE>  (4709) 
MS1

>  <INSTRUMENT TYPE>  (4709) 
EI-B

>  <INSTRUMENT>  (4709) 
JEOL JMS-D-3000

>  <ION MODE>  (4709) 
P

>  <INCHIKEY>  (4709) 
FQDIANVAWVHZIR-OWOJBTEDSA-N

>  <FORMULA>  (4709) 
C4H6Cl2

>  <EXACT MASS>  (4709) 
123.98465555199999

>  <MW>  (4709) 
124

>  <ID>  (4709) 
JP004912

>  <CONTRIBUTOR>  (4709) 
University of Tokyo Team, {Faculty of Engineering, University of Tokyo

>  <COMMENT>  (4709) 
SMILES=ClCC=CCCl
cas=764-41-0
InChI=InChI=1S/C4H6Cl2/c5-3-1-2-4-6/h1-2H,3-4H2/b2-1+
computed SMILES=ClCC=CCCl
accession=JP004912
date=2016.01.19 (Created 2008.10.21, modified 2011.05.06)
author=MASS SPECTROSCOPY SOC. OF JAPAN (MSSJ)
license=CC BY-NC-SA
exact mass=123.98466
ionization energy=70 eV
ion type=[M]+*
computed spectral entropy=2.5535456115676447
computed normalized entropy=0.7837538212168248
SPLASH=splash10-004i-9000000000-17ef71e72caab134c987
submitter=submitter = University of Tokyo Team (Faculty of Engineering, University of Tokyo)
MoNA Rating=3.75

>  <NUM PEAKS>  (4709) 
26

>  <MASS SPECTRAL PEAKS>  (4709) 
49 6.52
50 5.13
51 10.55
52 2.54
53 40.17
54 10.58
57 1.37
61 2.52
62 23.57
63 3.11
64 7.74
73 1.11
75 99.99
76 3.64
77 32.92
78 1.08
87 2.13
88 13.1
89 41.58
90 6.1
91 11.96
93 3.07
95 1.66
124 17.33
126 11.46
128 1.92

$$$$

     RDKit          2D

  3  2  0  0  0  0  0  0  0  0999 V2000
   -1.2990    0.0000    0.0000 C   0  0  0  0  0  0  0  0  0  0  0  0
   -0.0000    0.7500    0.0000 C   0  0  0  0  0  0  0  0  0  0  0  0
    0.0000    2.2500    0.0000 I   0  0  0  0  0  0  0  0  0  0  0  0
  2  1  1  0
  3  2  1  0
M  END
>  <NAME>  (4710) 
ETHYL IODIDE

>  <SYNONYMS>  (4710) 
IODOETHANE

>  <SPECTRUM TYPE>  (4710) 
MS1

>  <INSTRUMENT TYPE>  (4710) 
EI-B

>  <INSTRUMENT>  (4710) 
JEOL JMS-D-3000

>  <ION MODE>  (4710) 
P

>  <INCHIKEY>  (4710) 
HVTICUPFWKNHNG-UHFFFAOYSA-N

>  <FORMULA>  (4710) 
C2H5I

>  <EXACT MASS>  (4710) 
155.94359816

>  <MW>  (4710) 
156

>  <ID>  (4710) 
JP004911

>  <CONTRIBUTOR>  (4710) 
University of Tokyo Team, {Faculty of Engineering, University of Tokyo

>  <COMMENT>  (4710) 
SMILES=CCI
cas=75-03-6
InChI=InChI=1S/C2H5I/c1-2-3/h2H2,1H3
computed SMILES=ICC
accession=JP004911
date=2016.01.19 (Created 2008.10.21, modified 2011.05.06)
author=MASS SPECTROSCOPY SOC. OF JAPAN (MSSJ)
license=CC BY-NC-SA
exact mass=155.94359
ionization energy=70 eV
ion type=[M]+*
computed spectral entropy=0.7265221266093168
computed normalized entropy=0.4514135779929099
SPLASH=splash10-0a4i-0900000000-37ba6ddd14ffdfce14d3
submitter=submitter = University of Tokyo Team (Faculty of Engineering, University of Tokyo)
MoNA Rating=3.75

>  <NUM PEAKS>  (4710) 
5

>  <MASS SPECTRAL PEAKS>  (4710) 
127 14.09
128 7.68
141 1.71
156 99.99
157 2.17

$$$$

     RDKit          2D

  4  3  0  0  0  0  0  0  0  0999 V2000
   -1.2990    1.5000    0.0000 C   0  0  0  0  0  0  0  0  0  0  0  0
    0.0000    2.2500    0.0000 C   0  0  0  0  0  0  0  0  0  0  0  0
   -2.5981    2.2500    0.0000 Cl  0  0  0  0  0  0  0  0  0  0  0  0
    1.2990    1.5000    0.0000 Cl  0  0  0  0  0  0  0  0  0  0  0  0
  2  1  1  0
  3  1  1  0
  4  2  1  0
M  END
>  <NAME>  (4711) 
1,2-DICHLOROETHANE

>  <SYNONYMS>  (4711) 


>  <SPECTRUM TYPE>  (4711) 
MS1

>  <INSTRUMENT TYPE>  (4711) 
EI-B

>  <INSTRUMENT>  (4711) 
JEOL JMS-D-3000

>  <ION MODE>  (4711) 
P

>  <INCHIKEY>  (4711) 
WSLDOOZREJYCGB-UHFFFAOYSA-N

>  <FORMULA>  (4711) 
C2H4Cl2

>  <EXACT MASS>  (4711) 
97.969005488

>  <MW>  (4711) 
98

>  <ID>  (4711) 
JP004910

>  <CONTRIBUTOR>  (4711) 
University of Tokyo Team, {Faculty of Engineering, University of Tokyo

>  <COMMENT>  (4711) 
SMILES=ClCCCl
cas=107-06-2
InChI=InChI=1S/C2H4Cl2/c3-1-2-4/h1-2H2
computed SMILES=ClCCCl
accession=JP004910
date=2016.01.19 (Created 2008.10.21, modified 2011.05.06)
author=MASS SPECTROSCOPY SOC. OF JAPAN (MSSJ)
license=CC BY-NC-SA
exact mass=97.96901
ionization energy=70 eV
ion type=[M]+*
computed spectral entropy=2.6967147249391403
computed normalized entropy=0.8182185085539359
SPLASH=splash10-03dj-9000000000-cbc052552f77ec2f97a6
submitter=submitter = University of Tokyo Team (Faculty of Engineering, University of Tokyo)
MoNA Rating=3.75

>  <NUM PEAKS>  (4711) 
27

>  <MASS SPECTRAL PEAKS>  (4711) 
42 5.07
43 61.22
44 2.84
45 30.04
46 1.6
47 1.95
48 3.15
49 62.65
50 1.85
51 21.22
57 1.22
58 27.89
59 41.91
60 4.44
61 20.8
62 99.99
63 35.38
64 34.84
65 10.12
73 2.29
74 24.98
75 1.26
97 1.36
98 29.28
99 1.34
100 19.09
102 3.11

$$$$

     RDKit          2D

  4  3  0  0  0  0  0  0  0  0999 V2000
   -1.2990    1.5000    0.0000 C   0  0  0  0  0  0  0  0  0  0  0  0
    0.0000    2.2500    0.0000 C   0  0  0  0  0  0  0  0  0  0  0  0
   -2.5981    2.2500    0.0000 Br  0  0  0  0  0  0  0  0  0  0  0  0
    1.2990    1.5000    0.0000 Br  0  0  0  0  0  0  0  0  0  0  0  0
  2  1  1  0
  3  1  1  0
  4  2  1  0
M  END
>  <NAME>  (4712) 
1,2-DIBROMOETHANE

>  <SYNONYMS>  (4712) 


>  <SPECTRUM TYPE>  (4712) 
MS1

>  <INSTRUMENT TYPE>  (4712) 
EI-B

>  <INSTRUMENT>  (4712) 
JEOL JMS-D-3000

>  <ION MODE>  (4712) 
P

>  <INCHIKEY>  (4712) 
PAAZPARNPHGIKF-UHFFFAOYSA-N

>  <FORMULA>  (4712) 
C2H4Br2

>  <EXACT MASS>  (4712) 
185.867974328

>  <MW>  (4712) 
186

>  <ID>  (4712) 
JP004909

>  <CONTRIBUTOR>  (4712) 
University of Tokyo Team, {Faculty of Engineering, University of Tokyo

>  <COMMENT>  (4712) 
SMILES=BrCCBr
cas=106-93-4
InChI=InChI=1S/C2H4Br2/c3-1-2-4/h1-2H2
computed SMILES=BrCCBr
accession=JP004909
date=2016.01.19 (Created 2008.10.21, modified 2011.05.06)
author=MASS SPECTROSCOPY SOC. OF JAPAN (MSSJ)
license=CC BY-NC-SA
exact mass=185.86798
ionization energy=70 eV
ion type=[M]+*
computed spectral entropy=1.3992196658324279
computed normalized entropy=0.5166889687875535
SPLASH=splash10-0a4i-0900000000-2ee3f4bc49d4cb3289c7
submitter=submitter = University of Tokyo Team (Faculty of Engineering, University of Tokyo)
MoNA Rating=3.75

>  <NUM PEAKS>  (4712) 
15

>  <MASS SPECTRAL PEAKS>  (4712) 
79 2.79
80 2.67
81 2.84
82 2.61
93 3.93
95 3.58
105 2.64
106 1.89
107 99.99
108 3.45
109 93.7
110 2.03
186 1.72
188 3.06
190 1.59

$$$$

     RDKit          2D

  6  5  0  0  0  0  0  0  0  0999 V2000
   -0.0000    1.5000    0.0000 C   0  0  0  0  0  0  0  0  0  0  0  0
   -1.2990    2.2500    0.0000 C   0  0  0  0  0  0  0  0  0  0  0  0
   -0.0000   -0.0000    0.0000 Cl  0  0  0  0  0  0  0  0  0  0  0  0
    1.2990    2.2500    0.0000 Cl  0  0  0  0  0  0  0  0  0  0  0  0
   -1.2990    3.7500    0.0000 Cl  0  0  0  0  0  0  0  0  0  0  0  0
   -2.5981    1.5000    0.0000 Cl  0  0  0  0  0  0  0  0  0  0  0  0
  2  1  1  0
  3  1  1  0
  4  1  1  0
  5  2  1  0
  6  2  1  0
M  END
>  <NAME>  (4713) 
1,1,2,2-TETRACHLOROETHANE

>  <SYNONYMS>  (4713) 


>  <SPECTRUM TYPE>  (4713) 
MS1

>  <INSTRUMENT TYPE>  (4713) 
EI-B

>  <INSTRUMENT>  (4713) 
JEOL JMS-D-3000

>  <ION MODE>  (4713) 
P

>  <INCHIKEY>  (4713) 
QPFMBZIOSGYJDE-UHFFFAOYSA-N

>  <FORMULA>  (4713) 
C2H2Cl4

>  <EXACT MASS>  (4713) 
165.891060784

>  <MW>  (4713) 
166

>  <ID>  (4713) 
JP004908

>  <CONTRIBUTOR>  (4713) 
University of Tokyo Team, {Faculty of Engineering, University of Tokyo

>  <COMMENT>  (4713) 
SMILES=ClC(Cl)C(Cl)Cl
cas=79-34-5
InChI=InChI=1S/C2H2Cl4/c3-1(4)2(5)6/h1-2H
computed SMILES=ClC(Cl)C(Cl)Cl
accession=JP004908
date=2016.01.19 (Created 2008.10.21, modified 2011.05.06)
author=MASS SPECTROSCOPY SOC. OF JAPAN (MSSJ)
license=CC BY-NC-SA
exact mass=165.89106
ionization energy=70 eV
ion type=[M]+*
computed spectral entropy=2.0362308889296603
computed normalized entropy=0.6494130585810245
SPLASH=splash10-001r-9100000000-40ddb7760ad76f76ef2c
submitter=submitter = University of Tokyo Team (Faculty of Engineering, University of Tokyo)
MoNA Rating=3.75

>  <NUM PEAKS>  (4713) 
23

>  <MASS SPECTRAL PEAKS>  (4713) 
47 1.39
48 1.29
60 4.16
61 4.52
62 1.45
63 1.37
83 99.99
84 1.33
85 65.21
87 10.48
95 8
96 5.46
97 5.12
98 3.39
130 1.21
131 7.78
132 1.29
133 7.19
135 2.85
137 1
166 5.25
168 6.66
170 3.23

$$$$

     RDKit          2D

  5  4  0  0  0  0  0  0  0  0999 V2000
    0.0000    1.5000    0.0000 C   0  0  0  0  0  0  0  0  0  0  0  0
   -1.2990    2.2500    0.0000 C   0  0  0  0  0  0  0  0  0  0  0  0
   -0.0000   -0.0000    0.0000 Cl  0  0  0  0  0  0  0  0  0  0  0  0
   -1.2990    3.7500    0.0000 Cl  0  0  0  0  0  0  0  0  0  0  0  0
   -2.5981    1.5000    0.0000 Cl  0  0  0  0  0  0  0  0  0  0  0  0
  2  1  2  0
  3  1  1  0
  4  2  1  0
  5  2  1  0
M  END
>  <NAME>  (4714) 
TRICHLOROETHYLENE

>  <SYNONYMS>  (4714) 


>  <SPECTRUM TYPE>  (4714) 
MS1

>  <INSTRUMENT TYPE>  (4714) 
EI-B

>  <INSTRUMENT>  (4714) 
JEOL JMS-D-3000

>  <ION MODE>  (4714) 
P

>  <INCHIKEY>  (4714) 
XSTXAVWGXDQKEL-UHFFFAOYSA-N

>  <FORMULA>  (4714) 
C2HCl3

>  <EXACT MASS>  (4714) 
129.914383072

>  <MW>  (4714) 
130

>  <ID>  (4714) 
JP004907

>  <CONTRIBUTOR>  (4714) 
University of Tokyo Team, {Faculty of Engineering, University of Tokyo

>  <COMMENT>  (4714) 
SMILES=ClC=C(Cl)Cl
cas=79-01-6
InChI=InChI=1S/C2HCl3/c3-1-2(4)5/h1H
computed SMILES=ClC=C(Cl)Cl
accession=JP004907
date=2016.01.19 (Created 2008.10.21, modified 2011.05.06)
author=MASS SPECTROSCOPY SOC. OF JAPAN (MSSJ)
license=CC BY-NC-SA
exact mass=129.91438
ionization energy=70 eV
ion type=[M]+*
computed spectral entropy=2.200884257831019
computed normalized entropy=0.7019257910443394
SPLASH=splash10-001j-9800000000-152d0336467c74545ec4
submitter=submitter = University of Tokyo Team (Faculty of Engineering, University of Tokyo)
MoNA Rating=3.75

>  <NUM PEAKS>  (4714) 
23

>  <MASS SPECTRAL PEAKS>  (4714) 
47 5.49
48 1.85
49 1.93
59 3.38
60 27.98
61 1.95
62 8.98
65 2.44
66 2.79
82 1.34
83 1.06
94 6.56
95 99.99
96 6.38
97 66
98 2.08
99 10.38
130 98.82
131 2.64
132 98.06
133 2.23
134 32.18
136 3.38

$$$$

     RDKit          2D

  9 10  0  0  0  0  0  0  0  0999 V2000
   -6.7200    5.1500    0.0000 C   0  0  0  0  0  0  0  0  0  0  0  0
   -7.6000    3.9300    0.0000 C   0  0  0  0  0  0  0  0  0  0  0  0
   -7.6000    6.3600    0.0000 C   0  0  0  0  0  0  0  0  0  0  0  0
   -9.0300    4.4000    0.0000 C   0  0  0  0  0  0  0  0  0  0  0  0
   -9.0300    5.9000    0.0000 C   0  0  0  0  0  0  0  0  0  0  0  0
  -10.4600    3.9300    0.0000 C   0  0  0  0  0  0  0  0  0  0  0  0
  -11.9506    6.5191    0.0000 C   0  0  0  0  0  0  0  0  0  0  0  0
  -10.4600    6.3600    0.0000 C   0  0  0  0  0  0  0  0  0  0  0  0
  -11.3400    5.1500    0.0000 C   0  0  0  0  0  0  0  0  0  0  0  0
  2  1  1  0
  3  1  1  0
  4  2  1  0
  5  3  1  0
  6  4  1  0
  8  5  1  0
  8  7  1  0
  9  6  1  0
  9  7  1  0
  9  8  1  0
M  END
>  <NAME>  (4715) 
BICYCLO(6.1.0)NONANE

>  <SYNONYMS>  (4715) 


>  <SPECTRUM TYPE>  (4715) 
MS1

>  <INSTRUMENT TYPE>  (4715) 
EI-B

>  <INSTRUMENT>  (4715) 
JEOL JMS-D-3000

>  <ION MODE>  (4715) 
P

>  <INCHIKEY>  (4715) 
FYECUAIUGWFPJF-UHFFFAOYSA-N

>  <FORMULA>  (4715) 
C9H16

>  <EXACT MASS>  (4715) 
124.12520051199999

>  <MW>  (4715) 
124

>  <ID>  (4715) 
JP004905

>  <CONTRIBUTOR>  (4715) 
University of Tokyo Team, {Faculty of Engineering, University of Tokyo

>  <COMMENT>  (4715) 
SMILES=C(C2)CCC(C1)C(CC2)1
cas=286-60-2
InChI=InChI=1S/C9H16/c1-2-4-6-9-7-8(9)5-3-1/h8-9H,1-7H2
computed SMILES=C1CCCC2CC2CC1
accession=JP004905
date=2016.01.19 (Created 2008.10.21, modified 2011.05.06)
author=MASS SPECTROSCOPY SOC. OF JAPAN (MSSJ)
license=CC BY-NC-SA
exact mass=124.1252
ionization energy=70 eV
ion type=[M]+*
computed spectral entropy=2.70804355595557
computed normalized entropy=0.8216558240149295
SPLASH=splash10-0gc1-9000000000-137cb3b1e6823371194f
submitter=submitter = University of Tokyo Team (Faculty of Engineering, University of Tokyo)
MoNA Rating=3.75

>  <NUM PEAKS>  (4715) 
27

>  <MASS SPECTRAL PEAKS>  (4715) 
41 72.55
42 6.5
51 3.33
52 2.2
53 14.88
54 89.86
55 68.81
56 8.71
57 3.45
65 3.45
66 9.05
67 99.99
68 45.33
69 14.77
70 4.01
77 3.62
79 7.64
80 3.73
81 69.38
82 52
83 12.67
95 37.06
96 69.89
97 5.48
109 4.75
124 16.24
125 1.58

$$$$

     RDKit          2D

 13 13  0  0  0  0  0  0  0  0999 V2000
    5.1970   -1.5006    0.0000 C   0  0  0  0  0  0  0  0  0  0  0  0
    2.1474   -4.0587    0.0000 C   0  0  0  0  0  0  0  0  0  0  0  0
    5.0402   -2.3892    0.0000 C   0  0  0  0  0  0  0  0  0  0  0  0
   -1.3000    0.7500    0.0000 C   0  0  0  0  0  0  0  0  0  0  0  0
    0.0000    1.5000    0.0000 C   0  0  0  0  0  0  0  0  0  0  0  0
   -1.3000   -0.7500    0.0000 C   0  0  0  0  0  0  0  0  0  0  0  0
    1.3000    0.7500    0.0000 C   0  0  0  0  0  0  0  0  0  0  0  0
    0.0000   -1.5000    0.0000 C   0  0  0  0  0  0  0  0  0  0  0  0
    1.3000   -0.7500    0.0000 C   0  0  0  0  0  0  0  0  0  0  0  0
    3.8981   -0.7504    0.0000 O   0  0  0  0  0  0  0  0  0  0  0  0
    1.6346   -2.6491    0.0000 O   0  0  0  0  0  0  0  0  0  0  0  0
    3.5629   -2.6494    0.0000 O   0  0  0  0  0  0  0  0  0  0  0  0
    2.5989   -1.5002    0.0000 Si  0  0  0  0  0  4  0  0  0  0  0  0
  5  4  2  0
  6  4  1  0
  7  5  1  0
  8  6  2  0
  9  7  2  0
  9  8  1  0
 10  1  1  0
 11  2  1  0
 12  3  1  0
 13  9  1  0
 13 10  1  0
 13 11  1  0
 13 12  1  0
M  END
>  <NAME>  (4716) 
PHENYLTRIMETHOXYSILANE

>  <SYNONYMS>  (4716) 


>  <SPECTRUM TYPE>  (4716) 
MS1

>  <INSTRUMENT TYPE>  (4716) 
EI-B

>  <INSTRUMENT>  (4716) 
JEOL JMS-D-3000

>  <ION MODE>  (4716) 
P

>  <INCHIKEY>  (4716) 
ZNOCGWVLWPVKAO-UHFFFAOYSA-N

>  <FORMULA>  (4716) 
C9H14O3Si

>  <EXACT MASS>  (4716) 
198.071220838

>  <MW>  (4716) 
198

>  <ID>  (4716) 
JP004904

>  <CONTRIBUTOR>  (4716) 
University of Tokyo Team, {Faculty of Engineering, University of Tokyo

>  <COMMENT>  (4716) 
SMILES=CO[Si](OC)(OC)c(c1)cccc1
cas=2996-92-1
InChI=InChI=1S/C9H14O3Si/c1-10-13(11-2,12-3)9-7-5-4-6-8-9/h4-8H,1-3H3
computed SMILES=O(C)[Si](OC)(OC)C=1C=CC=CC1
accession=JP004904
date=2016.01.19 (Created 2008.10.21, modified 2011.05.06)
author=MASS SPECTROSCOPY SOC. OF JAPAN (MSSJ)
license=CC BY-NC-SA
exact mass=198.07122
ionization energy=70 eV
ion type=[M]+*
computed spectral entropy=2.2465893847743272
computed normalized entropy=0.8512847976295581
SPLASH=splash10-00dl-3900000000-8cef4c5d53d8ae98db08
submitter=submitter = University of Tokyo Team (Faculty of Engineering, University of Tokyo)
MoNA Rating=3.75

>  <NUM PEAKS>  (4716) 
14

>  <MASS SPECTRAL PEAKS>  (4716) 
59 16.42
61 5.38
90 36.65
91 37.71
92 4.94
107 32.73
120 99.99
121 42.42
122 7.32
136 5.31
137 9.47
167 18.99
198 33.66
199 5.39

$$$$

     RDKit          2D

 10 10  0  0  0  0  0  0  0  0999 V2000
    3.1239   -2.0857    0.0000 C   0  0  0  0  0  0  0  0  0  0  0  0
   -2.2174   -1.3410    0.0000 C   0  0  0  0  0  0  0  0  0  0  0  0
   -0.5936   -2.5218    0.0000 C   0  0  0  0  0  0  0  0  0  0  0  0
    1.6322   -2.2431    0.0000 C   0  0  0  0  0  0  0  0  0  0  0  0
    1.2100    0.3900    0.0000 C   0  0  0  0  0  0  0  0  0  0  0  0
    0.0000    1.2800    0.0000 C   0  0  0  0  0  0  0  0  0  0  0  0
    0.7500   -1.0300    0.0000 C   0  0  0  0  0  0  0  0  0  0  0  0
   -1.2100    0.3900    0.0000 C   0  0  0  0  0  0  0  0  0  0  0  0
   -0.7500   -1.0300    0.0000 C   0  0  0  0  0  0  0  0  0  0  0  0
   -2.6377    0.8500    0.0000 O   0  0  0  0  0  0  0  0  0  0  0  0
  4  1  2  0
  6  5  1  0
  7  4  1  0
  7  5  1  0
  8  6  1  0
  9  2  1  0
  9  3  1  0
  9  7  1  0
  9  8  1  0
 10  8  2  0
M  END
>  <NAME>  (4717) 
2,2-DIMETHYL-3-VINYLCYCLOPENTANONE

>  <SYNONYMS>  (4717) 


>  <SPECTRUM TYPE>  (4717) 
MS1

>  <INSTRUMENT TYPE>  (4717) 
EI-B

>  <INSTRUMENT>  (4717) 
JEOL JMS-D-3000

>  <ION MODE>  (4717) 
P

>  <INCHIKEY>  (4717) 
FXJIIGNUCAFHEE-UHFFFAOYSA-N

>  <FORMULA>  (4717) 
C9H14O

>  <EXACT MASS>  (4717) 
138.104465068

>  <MW>  (4717) 
138

>  <ID>  (4717) 
JP004903

>  <CONTRIBUTOR>  (4717) 
University of Tokyo Team, {Faculty of Engineering, University of Tokyo

>  <COMMENT>  (4717) 
SMILES=C=CC(C1)C(C)(C)C(=O)C1
InChI=InChI=1S/C9H14O/c1-4-7-5-6-8(10)9(7,2)3/h4,7H,1,5-6H2,2-3H3
computed SMILES=O=C1CCC(C=C)C1(C)C
accession=JP004903
date=2016.01.19 (Created 2008.10.21, modified 2011.05.06)
author=MASS SPECTROSCOPY SOC. OF JAPAN (MSSJ)
license=CC BY-NC-SA
exact mass=138.10447
ionization energy=70 eV
ion type=[M]+*
computed spectral entropy=2.928628436298099
computed normalized entropy=0.8885841609777819
SPLASH=splash10-00m1-9200000000-b6b3bdc959d214d960fd
submitter=submitter = University of Tokyo Team (Faculty of Engineering, University of Tokyo)
MoNA Rating=3.75

>  <NUM PEAKS>  (4717) 
27

>  <MASS SPECTRAL PEAKS>  (4717) 
42 46.72
43 14.4
53 13.92
54 16.96
55 31.84
56 10.24
59 5.44
67 75.68
68 16
69 17.6
70 37.92
77 6.72
79 18.56
81 73.28
82 54.88
83 21.12
84 5.12
95 45.12
96 68.8
97 9.76
105 7.68
109 8.16
110 7.52
120 5.28
123 24.8
138 99.99
139 10.24

$$$$

     RDKit          2D

 11 11  0  0  0  0  0  0  0  0999 V2000
   -2.2733   -1.3675    0.0000 C   0  0  0  0  0  0  0  0  0  0  0  0
   -3.5724    0.8825    0.0000 C   0  0  0  0  0  0  0  0  0  0  0  0
    2.9228    3.1325    0.0000 C   0  0  0  0  0  0  0  0  0  0  0  0
    1.6233    3.8833    0.0000 C   0  0  0  0  0  0  0  0  0  0  0  0
    2.9233    1.6317    0.0000 C   0  0  0  0  0  0  0  0  0  0  0  0
    0.3243    3.1333    0.0000 C   0  0  0  0  0  0  0  0  0  0  0  0
    1.6243    0.8817    0.0000 C   0  0  0  0  0  0  0  0  0  0  0  0
    0.3248    1.6325    0.0000 C   0  0  0  0  0  0  0  0  0  0  0  0
   -0.9743    0.8825    0.0000 C   0  0  0  0  0  0  0  0  0  0  0  0
   -0.9743   -0.6175    0.0000 O   0  0  0  0  0  0  0  0  0  0  0  0
   -2.2733    1.6325    0.0000 O   0  0  0  0  0  0  0  0  0  0  0  0
  4  3  2  0
  5  3  1  0
  6  4  1  0
  7  5  2  0
  8  6  2  0
  8  7  1  0
  9  8  1  0
 10  1  1  0
 10  9  1  0
 11  2  1  0
 11  9  1  0
M  END
>  <NAME>  (4718) 
BENZALDEHYDE DIMETHYL ACETAL

>  <SYNONYMS>  (4718) 


>  <SPECTRUM TYPE>  (4718) 
MS1

>  <INSTRUMENT TYPE>  (4718) 
EI-B

>  <INSTRUMENT>  (4718) 
JEOL JMS-D-3000

>  <ION MODE>  (4718) 
P

>  <INCHIKEY>  (4718) 
HEVMDQBCAHEHDY-UHFFFAOYSA-N

>  <FORMULA>  (4718) 
C9H12O2

>  <EXACT MASS>  (4718) 
152.083729624

>  <MW>  (4718) 
152

>  <ID>  (4718) 
JP004902

>  <CONTRIBUTOR>  (4718) 
University of Tokyo Team, {Faculty of Engineering, University of Tokyo

>  <COMMENT>  (4718) 
SMILES=COC(OC)c(c1)cccc1
InChI=InChI=1S/C9H12O2/c1-10-9(11-2)8-6-4-3-5-7-8/h3-7,9H,1-2H3
computed SMILES=O(C)C(OC)C=1C=CC=CC1
accession=JP004902
date=2016.01.19 (Created 2008.10.21, modified 2011.05.06)
author=MASS SPECTROSCOPY SOC. OF JAPAN (MSSJ)
license=CC BY-NC-SA
exact mass=152.08373
ionization energy=70 eV
ion type=[M]+*
computed spectral entropy=2.2354335501221723
computed normalized entropy=0.7890099610083642
SPLASH=splash10-05i0-6900000000-55139b3f0df693da0a3f
submitter=submitter = University of Tokyo Team (Faculty of Engineering, University of Tokyo)
MoNA Rating=3.75

>  <NUM PEAKS>  (4718) 
17

>  <MASS SPECTRAL PEAKS>  (4718) 
43 3.62
44 3.23
47 3.23
50 10.48
51 23.66
52 4.11
75 12.05
76 3.38
77 67.66
78 8.77
91 15.87
105 58.94
106 22.78
121 99.99
122 8.91
136 12.78
152 3.52

$$$$

     RDKit          2D

 11 11  0  0  0  0  0  0  0  0999 V2000
   -1.6700   -0.9600    0.0000 C   0  0  0  0  0  0  0  0  0  0  0  0
   -0.3700   -1.7100    0.0000 C   0  0  0  0  0  0  0  0  0  0  0  0
   -1.6700    0.5400    0.0000 C   0  0  0  0  0  0  0  0  0  0  0  0
    4.8270    1.2906    0.0000 C   0  0  0  0  0  0  0  0  0  0  0  0
    0.9300   -0.9600    0.0000 C   0  0  0  0  0  0  0  0  0  0  0  0
   -0.3700    1.2900    0.0000 C   0  0  0  0  0  0  0  0  0  0  0  0
    6.1262    0.5408    0.0000 C   0  0  0  0  0  0  0  0  0  0  0  0
    3.5281    0.5404    0.0000 C   0  0  0  0  0  0  0  0  0  0  0  0
    0.9300    0.5400    0.0000 C   0  0  0  0  0  0  0  0  0  0  0  0
    7.4251    1.2910    0.0000 Br  0  0  0  0  0  0  0  0  0  0  0  0
    2.2289    1.2902    0.0000 S   0  0  0  0  0  0  0  0  0  0  0  0
  2  1  2  0
  3  1  1  0
  5  2  1  0
  6  3  2  0
  7  4  1  0
  8  4  1  0
  9  5  2  0
  9  6  1  0
 10  7  1  0
 11  8  1  0
 11  9  1  0
M  END
>  <NAME>  (4719) 
3-BROMOPROPYL PHENYL SULFIDE

>  <SYNONYMS>  (4719) 


>  <SPECTRUM TYPE>  (4719) 
MS1

>  <INSTRUMENT TYPE>  (4719) 
EI-B

>  <INSTRUMENT>  (4719) 
JEOL JMS-D-3000

>  <ION MODE>  (4719) 
P

>  <INCHIKEY>  (4719) 
QKGLUZCZUKTKCC-UHFFFAOYSA-N

>  <FORMULA>  (4719) 
C9H11BrS

>  <EXACT MASS>  (4719) 
229.976483452

>  <MW>  (4719) 
230

>  <ID>  (4719) 
JP004901

>  <CONTRIBUTOR>  (4719) 
University of Tokyo Team, {Faculty of Engineering, University of Tokyo

>  <COMMENT>  (4719) 
SMILES=BrCCCSc(c1)cccc1
cas=3238-98-0
InChI=InChI=1S/C9H11BrS/c10-7-4-8-11-9-5-2-1-3-6-9/h1-3,5-6H,4,7-8H2
computed SMILES=BrCCCSC=1C=CC=CC1
accession=JP004901
date=2016.01.19 (Created 2008.10.21, modified 2011.05.06)
author=MASS SPECTROSCOPY SOC. OF JAPAN (MSSJ)
license=CC BY-NC-SA
exact mass=229.97648
ionization energy=70 eV
ion type=[M]+*
computed spectral entropy=2.3685689754712067
computed normalized entropy=0.7108114067544641
SPLASH=splash10-0089-1950000000-5c4e60e857b7e89387be
submitter=submitter = University of Tokyo Team (Faculty of Engineering, University of Tokyo)
MoNA Rating=3.75

>  <NUM PEAKS>  (4719) 
28

>  <MASS SPECTRAL PEAKS>  (4719) 
41 8.37
45 14.69
65 1.12
66 2.69
73 2.89
77 2.24
79 2
91 2.03
109 10.11
110 43.55
111 4.31
112 2.18
117 1.41
121 1.12
123 99.99
124 9.4
125 4.94
137 1.71
149 1.23
151 9.55
168 2.21
188 1.24
190 1.14
230 55.8
231 6.37
232 56.51
233 6.46
234 2.79

$$$$

     RDKit          2D

 11 11  0  0  0  0  0  0  0  0999 V2000
   -0.1782    1.7605    0.0000 C   0  0  0  0  0  0  0  0  0  0  0  0
   -1.8121    2.9095    0.0000 C   0  0  0  0  0  0  0  0  0  0  0  0
   -3.7404    2.9095    0.0000 C   0  0  0  0  0  0  0  0  0  0  0  0
   -0.9642   -1.8991    0.0000 C   0  0  0  0  0  0  0  0  0  0  0  0
    0.0000   -0.2291    0.0000 C   0  0  0  0  0  0  0  0  0  0  0  0
   -4.0753   -0.4895    0.0000 C   0  0  0  0  0  0  0  0  0  0  0  0
   -4.0753    1.0105    0.0000 C   0  0  0  0  0  0  0  0  0  0  0  0
   -2.7762   -1.2395    0.0000 C   0  0  0  0  0  0  0  0  0  0  0  0
   -1.4772    1.0105    0.0000 N   0  0  0  0  0  0  0  0  0  0  0  0
   -2.7762    1.7605    0.0000 Si  0  0  0  0  0  4  0  0  0  0  0  0
   -1.4772   -0.4895    0.0000 Si  0  0  0  0  0  4  0  0  0  0  0  0
  7  6  1  0
  8  6  1  0
  9  1  1  0
 10  2  1  0
 10  3  1  0
 10  7  1  0
 10  9  1  0
 11  4  1  0
 11  5  1  0
 11  8  1  0
 11  9  1  0
M  END
>  <NAME>  (4720) 
1,2,2,6,6-PENTAMETHYL-2,6-DISILAPIPERIDINE

>  <SYNONYMS>  (4720) 


>  <SPECTRUM TYPE>  (4720) 
MS1

>  <INSTRUMENT TYPE>  (4720) 
EI-B

>  <INSTRUMENT>  (4720) 
JEOL JMS-D-3000

>  <ION MODE>  (4720) 
P

>  <INCHIKEY>  (4720) 
XSFQDEKDQXXGQN-UHFFFAOYSA-N

>  <FORMULA>  (4720) 
C8H21NSi2

>  <EXACT MASS>  (4720) 
187.121252732

>  <MW>  (4720) 
187

>  <ID>  (4720) 
JP004900

>  <CONTRIBUTOR>  (4720) 
University of Tokyo Team, {Faculty of Engineering, University of Tokyo

>  <COMMENT>  (4720) 
SMILES=CN([Si](C)(C)1)[Si](C)(C)CCC1
InChI=InChI=1S/C8H21NSi2/c1-9-10(2,3)7-6-8-11(9,4)5/h6-8H2,1-5H3
computed SMILES=N1(C)[Si](C)(C)CCC[Si]1(C)C
accession=JP004900
date=2016.01.19 (Created 2008.10.21, modified 2011.05.06)
author=MASS SPECTROSCOPY SOC. OF JAPAN (MSSJ)
license=CC BY-NC-SA
exact mass=187.12125
ionization energy=70 eV
ion type=[M]+*
computed spectral entropy=2.7545888694519247
computed normalized entropy=0.8180418378812263
SPLASH=splash10-00di-6900000000-fc51ba9d6f2c11e7bd71
submitter=submitter = University of Tokyo Team (Faculty of Engineering, University of Tokyo)
MoNA Rating=3.75

>  <NUM PEAKS>  (4720) 
29

>  <MASS SPECTRAL PEAKS>  (4720) 
42 2.69
43 10.29
45 8.87
51 3.33
58 3.33
59 24.6
64 29.15
65 4.4
71 2.98
72 4.16
73 17.43
78 8.8
79 9.91
85 3.54
86 5.67
88 6.01
100 3.69
101 3.45
117 7.78
130 4.28
144 39.94
145 6.64
146 4.3
159 3.83
172 99.99
173 17.91
174 8.4
187 13.58
188 2.74

$$$$

     RDKit          2D

 16 19  0  0  0  0  0  0  0  0999 V2000
   -3.2500   -1.8800    0.0000 C   0  0  0  0  0  0  0  0  0  0  0  0
    3.2500    1.8800    0.0000 C   0  0  0  0  0  0  0  0  0  0  0  0
   -1.9500   -2.6200    0.0000 C   0  0  0  0  0  0  0  0  0  0  0  0
   -3.2500   -0.3800    0.0000 C   0  0  0  0  0  0  0  0  0  0  0  0
    3.2500    0.3800    0.0000 C   0  0  0  0  0  0  0  0  0  0  0  0
    1.9500    2.6200    0.0000 C   0  0  0  0  0  0  0  0  0  0  0  0
    0.6500   -2.6200    0.0000 C   0  0  0  0  0  0  0  0  0  0  0  0
   -1.9500    1.8800    0.0000 C   0  0  0  0  0  0  0  0  0  0  0  0
    1.9500   -1.8800    0.0000 C   0  0  0  0  0  0  0  0  0  0  0  0
   -0.6500    2.6200    0.0000 C   0  0  0  0  0  0  0  0  0  0  0  0
   -0.6500   -1.8800    0.0000 C   0  0  0  0  0  0  0  0  0  0  0  0
   -1.9500    0.3800    0.0000 C   0  0  0  0  0  0  0  0  0  0  0  0
    1.9500   -0.3800    0.0000 C   0  0  0  0  0  0  0  0  0  0  0  0
    0.6500    1.8800    0.0000 C   0  0  0  0  0  0  0  0  0  0  0  0
   -0.6500   -0.3800    0.0000 C   0  0  0  0  0  0  0  0  0  0  0  0
    0.6500    0.3800    0.0000 C   0  0  0  0  0  0  0  0  0  0  0  0
  3  1  2  0
  4  1  1  0
  5  2  2  0
  6  2  1  0
  9  7  1  0
 10  8  2  0
 11  3  1  0
 11  7  2  0
 12  4  2  0
 12  8  1  0
 13  5  1  0
 13  9  2  0
 14  6  2  0
 14 10  1  0
 15 11  1  0
 15 12  1  0
 16 13  1  0
 16 14  1  0
 16 15  2  0
M  END
>  <NAME>  (4721) 
PYRENE

>  <SYNONYMS>  (4721) 


>  <SPECTRUM TYPE>  (4721) 
MS1

>  <INSTRUMENT TYPE>  (4721) 
EI-B

>  <INSTRUMENT>  (4721) 
JEOL JMS-D-3000

>  <ION MODE>  (4721) 
P

>  <INCHIKEY>  (4721) 
BBEAQIROQSPTKN-UHFFFAOYSA-N

>  <FORMULA>  (4721) 
C16H10

>  <EXACT MASS>  (4721) 
202.07825032

>  <MW>  (4721) 
202

>  <ID>  (4721) 
JP004838

>  <CONTRIBUTOR>  (4721) 
University of Tokyo Team, {Faculty of Engineering, University of Tokyo

>  <COMMENT>  (4721) 
SMILES=c(c4)cc(c3)c(c41)c(c2c3)c(ccc2)cc1
cas=129-00-0
InChI=InChI=1S/C16H10/c1-3-11-7-9-13-5-2-6-14-10-8-12(4-1)15(11)16(13)14/h1-10H
computed SMILES=C=1C=C2C=CC3=CC=CC=4C=CC(C1)=C2C34
accession=JP004838
date=2016.01.19 (Created 2008.10.21, modified 2011.05.06)
author=MASS SPECTROSCOPY SOC. OF JAPAN (MSSJ)
license=CC BY-NC-SA
exact mass=202.07825
ionization energy=70 eV
ion type=[M]+*
computed spectral entropy=2.0282246507601887
computed normalized entropy=0.666188110696539
SPLASH=splash10-0udi-0390000000-aed9be9c54a99a10a772
submitter=submitter = University of Tokyo Team (Faculty of Engineering, University of Tokyo)
MoNA Rating=3.75

>  <NUM PEAKS>  (4721) 
21

>  <MASS SPECTRAL PEAKS>  (4721) 
58 1.35
73 1.67
74 1.02
75 1.69
87 3.22
88 4.93
99 2.25
100 14.81
101 21.77
102 3.63
150 1.38
167 1.3
174 1.8
175 1.43
198 2.01
199 3.28
200 17.71
201 15.08
202 99.99
203 17.5
204 1.67

$$$$

     RDKit          2D

 18 20  0  0  0  0  0  0  0  0999 V2000
    3.9000   -0.7500    0.0000 C   0  0  0  0  0  0  0  0  0  0  0  0
    3.9000    0.7500    0.0000 C   0  0  0  0  0  0  0  0  0  0  0  0
   -3.9000   -0.7500    0.0000 C   0  0  0  0  0  0  0  0  0  0  0  0
   -3.9000    0.7500    0.0000 C   0  0  0  0  0  0  0  0  0  0  0  0
    2.6000   -1.5000    0.0000 C   0  0  0  0  0  0  0  0  0  0  0  0
    2.6000    1.5000    0.0000 C   0  0  0  0  0  0  0  0  0  0  0  0
   -2.6000   -1.5000    0.0000 C   0  0  0  0  0  0  0  0  0  0  0  0
   -2.6000    1.5000    0.0000 C   0  0  0  0  0  0  0  0  0  0  0  0
   -0.0000   -3.0000    0.0000 C   0  0  0  0  0  0  0  0  0  0  0  0
    0.0000    3.0000    0.0000 C   0  0  0  0  0  0  0  0  0  0  0  0
    1.3000   -0.7500    0.0000 C   0  0  0  0  0  0  0  0  0  0  0  0
    1.3000    0.7500    0.0000 C   0  0  0  0  0  0  0  0  0  0  0  0
   -1.3000   -0.7500    0.0000 C   0  0  0  0  0  0  0  0  0  0  0  0
   -1.3000    0.7500    0.0000 C   0  0  0  0  0  0  0  0  0  0  0  0
   -0.0000   -1.5000    0.0000 C   0  0  0  0  0  0  0  0  0  0  0  0
   -0.0000    1.5000    0.0000 C   0  0  0  0  0  0  0  0  0  0  0  0
   -0.0000   -4.5000    0.0000 N   0  0  0  0  0  0  0  0  0  0  0  0
    0.0000    4.5000    0.0000 N   0  0  0  0  0  0  0  0  0  0  0  0
  2  1  2  0
  4  3  1  0
  5  1  1  0
  6  2  1  0
  7  3  2  0
  8  4  2  0
 11  5  2  0
 12  6  2  0
 12 11  1  0
 13  7  1  0
 14  8  1  0
 14 13  1  0
 15  9  1  0
 15 11  1  0
 15 13  2  0
 16 10  1  0
 16 12  1  0
 16 14  2  0
 17  9  3  0
 18 10  3  0
M  END
>  <NAME>  (4722) 
9,10-DICYANOANTHRACENE

>  <SYNONYMS>  (4722) 


>  <SPECTRUM TYPE>  (4722) 
MS1

>  <INSTRUMENT TYPE>  (4722) 
EI-B

>  <INSTRUMENT>  (4722) 
JEOL JMS-D-3000

>  <ION MODE>  (4722) 
P

>  <INCHIKEY>  (4722) 
BIOPPFDHKHWJIA-UHFFFAOYSA-N

>  <FORMULA>  (4722) 
C16H8N2

>  <EXACT MASS>  (4722) 
228.068748256

>  <MW>  (4722) 
228

>  <ID>  (4722) 
JP004837

>  <CONTRIBUTOR>  (4722) 
University of Tokyo Team, {Faculty of Engineering, University of Tokyo

>  <COMMENT>  (4722) 
SMILES=N#Cc(c21)c(c3)c(ccc3)c(C#N)c(cccc2)1
cas=1217-45-4
InChI=InChI=1S/C16H8N2/c17-9-15-11-5-1-2-6-12(11)16(10-18)14-8-4-3-7-13(14)15/h1-8H
computed SMILES=N#CC=1C=2C=CC=CC2C(C#N)=C3C=CC=CC13
accession=JP004837
date=2016.01.19 (Created 2008.10.21, modified 2011.05.06)
author=MASS SPECTROSCOPY SOC. OF JAPAN (MSSJ)
license=CC BY-NC-SA
exact mass=228.06875
ionization energy=70 eV
ion type=[M]+*
computed spectral entropy=2.160292814599159
computed normalized entropy=0.6415512398290935
SPLASH=splash10-004i-1190000000-b58b7eb7ac26e99fd7ca
submitter=submitter = University of Tokyo Team (Faculty of Engineering, University of Tokyo)
MoNA Rating=3.75

>  <NUM PEAKS>  (4722) 
29

>  <MASS SPECTRAL PEAKS>  (4722) 
51 1.1
73 1.21
74 2.26
75 2.26
86 1.21
87 5.91
88 1.45
98 1.16
99 1.33
100 2.55
101 6.5
114 6.9
147 1.04
150 1.16
151 1.16
174 2.95
175 3.59
176 1.39
177 1.1
199 3.54
200 5.62
201 8.76
202 3.07
207 1.56
226 3.13
227 5.74
228 99.99
229 18.97
230 1.68

$$$$

     RDKit          2D

 13 14  0  0  0  0  0  0  0  0999 V2000
    2.5986    1.0700    0.0000 C   0  0  0  0  0  0  0  0  0  0  0  0
   -5.1957    1.0700    0.0000 C   0  0  0  0  0  0  0  0  0  0  0  0
    2.5990    2.5708    0.0000 C   0  0  0  0  0  0  0  0  0  0  0  0
    1.2990    0.3192    0.0000 C   0  0  0  0  0  0  0  0  0  0  0  0
   -3.8962    0.3192    0.0000 C   0  0  0  0  0  0  0  0  0  0  0  0
   -5.1962    2.5708    0.0000 C   0  0  0  0  0  0  0  0  0  0  0  0
    1.3000    3.3208    0.0000 C   0  0  0  0  0  0  0  0  0  0  0  0
    0.0000    1.0692    0.0000 C   0  0  0  0  0  0  0  0  0  0  0  0
   -2.5971    1.0692    0.0000 C   0  0  0  0  0  0  0  0  0  0  0  0
   -3.8971    3.3208    0.0000 C   0  0  0  0  0  0  0  0  0  0  0  0
   -1.2986    3.3200    0.0000 C   0  0  0  0  0  0  0  0  0  0  0  0
    0.0005    2.5700    0.0000 C   0  0  0  0  0  0  0  0  0  0  0  0
   -2.5976    2.5700    0.0000 C   0  0  0  0  0  0  0  0  0  0  0  0
  3  1  2  0
  4  1  1  0
  5  2  2  0
  6  2  1  0
  7  3  1  0
  8  4  2  0
  9  5  1  0
 10  6  2  0
 12  7  2  0
 12  8  1  0
 12 11  1  0
 13  9  2  0
 13 10  1  0
 13 11  1  0
M  END
>  <NAME>  (4723) 
DIPHENYLMETHANE

>  <SYNONYMS>  (4723) 


>  <SPECTRUM TYPE>  (4723) 
MS1

>  <INSTRUMENT TYPE>  (4723) 
EI-B

>  <INSTRUMENT>  (4723) 
JE0L

>  <ION MODE>  (4723) 
P

>  <INCHIKEY>  (4723) 
CZZYITDELCSZES-UHFFFAOYSA-N

>  <FORMULA>  (4723) 
C13H12

>  <EXACT MASS>  (4723) 
168.093900384

>  <MW>  (4723) 
168

>  <ID>  (4723) 
JP004836

>  <CONTRIBUTOR>  (4723) 
University of Tokyo Team, {Faculty of Engineering, University of Tokyo

>  <COMMENT>  (4723) 
SMILES=c(c2)ccc(c2)Cc(c1)cccc1
cas=101-81-5
InChI=InChI=1S/C13H12/c1-3-7-12(8-4-1)11-13-9-5-2-6-10-13/h1-10H,11H2
computed SMILES=C=1C=CC(=CC1)CC=2C=CC=CC2
accession=JP004836
date=2016.01.19 (Created 2008.10.21, modified 2011.05.06)
author=MASS SPECTROSCOPY SOC. OF JAPAN (MSSJ)
license=CC BY-NC-SA
exact mass=168.0939
ionization energy=70 eV
ion type=[M]+*
computed spectral entropy=2.527961210742901
computed normalized entropy=0.7168754281067348
SPLASH=splash10-014i-2900000000-ca78efaa0ce4f7ff0bb8
submitter=submitter = University of Tokyo Team (Faculty of Engineering, University of Tokyo)
MoNA Rating=3.75

>  <NUM PEAKS>  (4723) 
34

>  <MASS SPECTRAL PEAKS>  (4723) 
50 1.99
51 5.12
62 1.32
63 4.16
64 1.29
65 7.47
70 1.86
71 1.77
75 1.08
76 2.29
77 1.75
82 6.01
83 10.28
84 2.61
89 5.94
90 3.44
91 19.06
92 1.53
115 3.76
128 2.79
139 2.58
141 2.29
151 1.63
152 16.11
153 14.28
154 1.59
163 1.99
164 2.74
165 28.33
166 10.33
167 86.04
168 99.99
169 13.3
170 1.11

$$$$

     RDKit          2D

 13 14  0  0  0  0  0  0  0  0999 V2000
    6.1271    0.5392    0.0000 C   0  0  0  0  0  0  0  0  0  0  0  0
   -1.6700    0.5404    0.0000 C   0  0  0  0  0  0  0  0  0  0  0  0
    6.1271   -0.9608    0.0000 C   0  0  0  0  0  0  0  0  0  0  0  0
    4.8271    1.2892    0.0000 C   0  0  0  0  0  0  0  0  0  0  0  0
   -0.3710    1.2904    0.0000 C   0  0  0  0  0  0  0  0  0  0  0  0
   -1.6695   -0.9604    0.0000 C   0  0  0  0  0  0  0  0  0  0  0  0
    4.8271   -1.7108    0.0000 C   0  0  0  0  0  0  0  0  0  0  0  0
    3.5271    0.5392    0.0000 C   0  0  0  0  0  0  0  0  0  0  0  0
    0.9286    0.5396    0.0000 C   0  0  0  0  0  0  0  0  0  0  0  0
   -0.3700   -1.7112    0.0000 C   0  0  0  0  0  0  0  0  0  0  0  0
    3.5271   -0.9608    0.0000 C   0  0  0  0  0  0  0  0  0  0  0  0
    0.9290   -0.9612    0.0000 C   0  0  0  0  0  0  0  0  0  0  0  0
    2.2282   -1.7110    0.0000 O   0  0  0  0  0  0  0  0  0  0  0  0
  3  1  2  0
  4  1  1  0
  5  2  2  0
  6  2  1  0
  7  3  1  0
  8  4  2  0
  9  5  1  0
 10  6  2  0
 11  7  2  0
 11  8  1  0
 12  9  2  0
 12 10  1  0
 13 11  1  0
 13 12  1  0
M  END
>  <NAME>  (4724) 
DIPHENYL ETHER

>  <SYNONYMS>  (4724) 
PHENYL ETHER

>  <SPECTRUM TYPE>  (4724) 
MS1

>  <INSTRUMENT TYPE>  (4724) 
EI-B

>  <INSTRUMENT>  (4724) 
JEOL JMS-D-3000

>  <ION MODE>  (4724) 
P

>  <INCHIKEY>  (4724) 
USIUVYZYUHIAEV-UHFFFAOYSA-N

>  <FORMULA>  (4724) 
C12H10O

>  <EXACT MASS>  (4724) 
170.07316494

>  <MW>  (4724) 
170

>  <ID>  (4724) 
JP004835

>  <CONTRIBUTOR>  (4724) 
University of Tokyo Team, {Faculty of Engineering, University of Tokyo

>  <COMMENT>  (4724) 
SMILES=c(c2)ccc(c2)Oc(c1)cccc1
cas=101-84-8
InChI=InChI=1S/C12H10O/c1-3-7-11(8-4-1)13-12-9-5-2-6-10-12/h1-10H
computed SMILES=O(C=1C=CC=CC1)C=2C=CC=CC2
accession=JP004835
date=2016.01.19 (Created 2008.10.21, modified 2011.05.06)
author=MASS SPECTROSCOPY SOC. OF JAPAN (MSSJ)
license=CC BY-NC-SA
exact mass=170.07316
ionization energy=70 eV
ion type=[M]+*
computed spectral entropy=2.4018372687265037
computed normalized entropy=0.7207952757378081
SPLASH=splash10-00di-4900000000-5a461502693f815d0a1c
submitter=submitter = University of Tokyo Team (Faculty of Engineering, University of Tokyo)
MoNA Rating=3.75

>  <NUM PEAKS>  (4724) 
28

>  <MASS SPECTRAL PEAKS>  (4724) 
50 5
51 24.09
52 1.35
55 1.18
63 2.99
64 1.34
65 4.06
66 1.21
70 3.37
71 4.53
74 1.33
75 1.41
76 1.77
77 34.07
78 2.49
84 1.11
85 3.47
94 4.93
115 7.65
116 1.43
139 1.85
141 32.36
142 20.33
143 2.36
169 17.92
170 99.99
171 13.53
172 1.12

$$$$

     RDKit          2D

 13 12  0  0  0  0  0  0  0  0999 V2000
    4.6740    1.6005    0.0000 C   0  0  0  0  0  0  0  0  0  0  0  0
    2.0760    0.1005    0.0000 C   0  0  0  0  0  0  0  0  0  0  0  0
    4.1250   -0.4486    0.0000 C   0  0  0  0  0  0  0  0  0  0  0  0
    1.6740    4.1986    0.0000 C   0  0  0  0  0  0  0  0  0  0  0  0
   -0.3750    4.7476    0.0000 C   0  0  0  0  0  0  0  0  0  0  0  0
   -0.9240    2.6986    0.0000 C   0  0  0  0  0  0  0  0  0  0  0  0
    3.3750    3.4486    0.0000 C   0  0  0  0  0  0  0  0  0  0  0  0
   -0.2845    1.6365    0.0000 C   0  0  0  0  0  0  0  0  0  0  0  0
    3.3750    0.8505    0.0000 C   0  0  0  0  0  0  0  0  0  0  0  0
    0.3750    3.4486    0.0000 C   0  0  0  0  0  0  0  0  0  0  0  0
    1.3855    0.6723    0.0000 Cl  0  0  0  0  0  0  0  0  0  0  0  0
    2.6250    2.1495    0.0000 Si  0  0  0  0  0  4  0  0  0  0  0  0
    1.1250    2.1495    0.0000 Si  0  0  0  0  0  4  0  0  0  0  0  0
  9  1  1  0
  9  2  1  0
  9  3  1  0
 10  4  1  0
 10  5  1  0
 10  6  1  0
 12  7  1  0
 12  9  1  0
 13  8  1  0
 13 10  1  0
 13 11  1  0
 13 12  1  0
M  END
>  <NAME>  (4725) 
1,2-DI-TERT-BUTYL-1-CHLORO-1,2-DIMETHYLDISILANE

>  <SYNONYMS>  (4725) 


>  <SPECTRUM TYPE>  (4725) 
MS1

>  <INSTRUMENT TYPE>  (4725) 
EI-B

>  <INSTRUMENT>  (4725) 
JEOL JMS-D-3000

>  <ION MODE>  (4725) 
P

>  <INCHIKEY>  (4725) 
NHPCBPMRAYGCSY-UHFFFAOYSA-N

>  <FORMULA>  (4725) 
C10H25ClSi2

>  <EXACT MASS>  (4725) 
236.11833153999999

>  <MW>  (4725) 
236

>  <ID>  (4725) 
JP004834

>  <CONTRIBUTOR>  (4725) 
University of Tokyo Team, {Faculty of Engineering, University of Tokyo

>  <COMMENT>  (4725) 
SMILES=CC(C)(C)[SiH](C)[Si](C)(Cl)C(C)(C)C
InChI=InChI=1S/C10H25ClSi2/c1-9(2,3)12(7)13(8,11)10(4,5)6/h12H,1-8H3
computed SMILES=Cl[Si](C)([SiH](C)C(C)(C)C)C(C)(C)C
accession=JP004834
date=2016.01.19 (Created 2008.10.21, modified 2011.05.06)
author=MASS SPECTROSCOPY SOC. OF JAPAN (MSSJ)
license=CC BY-NC-SA
exact mass=236.11833
ionization energy=70 eV
ion type=[M]+*
computed spectral entropy=3.201750351554001
computed normalized entropy=0.7819933820656103
SPLASH=splash10-059i-9300000000-d319ca24da33c55d9e0b
submitter=submitter = University of Tokyo Team (Faculty of Engineering, University of Tokyo)
MoNA Rating=3.75

>  <NUM PEAKS>  (4725) 
60

>  <MASS SPECTRAL PEAKS>  (4725) 
43 16.88
44 2.36
45 7.3
55 1.36
56 3.73
57 15.54
58 16.26
59 59.74
60 4.87
61 2.27
63 3.45
65 2.46
69 1.19
71 3.4
72 7.78
73 92.7
74 8.26
75 3.47
79 2.74
81 1.15
83 1.11
85 99.99
86 10.57
87 4.33
93 21.76
94 1.9
95 7.98
99 5.98
100 35.44
101 10.94
102 2.43
105 1.15
113 1.85
119 1.3
121 1.23
122 2.94
123 6.15
124 2.41
125 2.67
127 1.07
135 2.47
136 1.33
137 16.22
138 2.53
139 6.71
151 3.57
153 1.59
157 2.84
179 22.14
180 9.1
181 10.12
182 3.39
187 9.44
188 1.37
189 6.77
191 1.55
229 1.47
236 4.82
237 1.13
238 2.12

$$$$

     RDKit          2D

 14 13  0  0  0  0  0  0  0  0999 V2000
    4.6740    1.6005    0.0000 C   0  0  0  0  0  0  0  0  0  0  0  0
    2.0760    0.1005    0.0000 C   0  0  0  0  0  0  0  0  0  0  0  0
    4.1250   -0.4486    0.0000 C   0  0  0  0  0  0  0  0  0  0  0  0
    1.6740    4.1986    0.0000 C   0  0  0  0  0  0  0  0  0  0  0  0
   -0.3750    4.7476    0.0000 C   0  0  0  0  0  0  0  0  0  0  0  0
   -0.9240    2.6986    0.0000 C   0  0  0  0  0  0  0  0  0  0  0  0
    4.0345    2.6625    0.0000 C   0  0  0  0  0  0  0  0  0  0  0  0
   -0.2845    1.6365    0.0000 C   0  0  0  0  0  0  0  0  0  0  0  0
    3.3750    0.8505    0.0000 C   0  0  0  0  0  0  0  0  0  0  0  0
    0.3750    3.4486    0.0000 C   0  0  0  0  0  0  0  0  0  0  0  0
    2.3645    3.6267    0.0000 F   0  0  0  0  0  0  0  0  0  0  0  0
    1.3855    0.6723    0.0000 F   0  0  0  0  0  0  0  0  0  0  0  0
    2.6250    2.1495    0.0000 Si  0  0  0  0  0  4  0  0  0  0  0  0
    1.1250    2.1495    0.0000 Si  0  0  0  0  0  4  0  0  0  0  0  0
  9  1  1  0
  9  2  1  0
  9  3  1  0
 10  4  1  0
 10  5  1  0
 10  6  1  0
 13  7  1  0
 13  9  1  0
 13 11  1  0
 14  8  1  0
 14 10  1  0
 14 12  1  0
 14 13  1  0
M  END
>  <NAME>  (4726) 
1,2-DI-TERT-BUTYL-1,2-DIFLUORO-1,2-DIMETHYLDISILANE

>  <SYNONYMS>  (4726) 


>  <SPECTRUM TYPE>  (4726) 
MS1

>  <INSTRUMENT TYPE>  (4726) 
EI-B

>  <INSTRUMENT>  (4726) 
JEOL JMS-D-3000

>  <ION MODE>  (4726) 
P

>  <INCHIKEY>  (4726) 
DCFFYZURNZFNOS-UHFFFAOYSA-N

>  <FORMULA>  (4726) 
C10H24F2Si2

>  <EXACT MASS>  (4726) 
238.138460268

>  <MW>  (4726) 
238

>  <ID>  (4726) 
JP004833

>  <CONTRIBUTOR>  (4726) 
University of Tokyo Team, {Faculty of Engineering, University of Tokyo

>  <COMMENT>  (4726) 
SMILES=CC(C)(C)[Si](C)(F)[Si](C)(F)C(C)(C)C
InChI=InChI=1S/C10H24F2Si2/c1-9(2,3)13(7,11)14(8,12)10(4,5)6/h1-8H3
computed SMILES=F[Si](C)(C(C)(C)C)[Si](F)(C)C(C)(C)C
accession=JP004833
date=2016.01.19 (Created 2008.10.21, modified 2011.05.06)
author=MASS SPECTROSCOPY SOC. OF JAPAN (MSSJ)
license=CC BY-NC-SA
exact mass=238.13846
ionization energy=70 eV
ion type=[M]+*
computed spectral entropy=2.8228297437779037
computed normalized entropy=0.7552378974240022
SPLASH=splash10-0kp0-9200000000-e6e90e7b1eee2f5979fb
submitter=submitter = University of Tokyo Team (Faculty of Engineering, University of Tokyo)
MoNA Rating=3.75

>  <NUM PEAKS>  (4726) 
42

>  <MASS SPECTRAL PEAKS>  (4726) 
43 11.69
44 3.07
45 3.11
47 5.12
49 5.31
55 1.19
56 5.12
57 17.51
58 29.1
59 51.02
60 4.25
61 1.73
62 1.42
63 6.11
72 16.83
73 83.79
74 8.6
75 3.16
76 1.48
77 80.21
78 5.97
79 2.87
81 1.17
85 99.99
86 9.29
87 4.19
89 2.93
99 3.22
100 83.15
101 10.01
102 3.41
103 9.18
104 1.17
118 4.28
119 5.45
125 1.23
139 2.52
153 5.29
181 7.14
182 1.52
238 6.88
239 1.63

$$$$

     RDKit          2D

 14 13  0  0  0  0  0  0  0  0999 V2000
    4.6740    1.6005    0.0000 C   0  0  0  0  0  0  0  0  0  0  0  0
    2.0760    0.1005    0.0000 C   0  0  0  0  0  0  0  0  0  0  0  0
    4.1250   -0.4486    0.0000 C   0  0  0  0  0  0  0  0  0  0  0  0
    1.6740    4.1986    0.0000 C   0  0  0  0  0  0  0  0  0  0  0  0
   -0.3750    4.7476    0.0000 C   0  0  0  0  0  0  0  0  0  0  0  0
   -0.9240    2.6986    0.0000 C   0  0  0  0  0  0  0  0  0  0  0  0
    4.0345    2.6625    0.0000 C   0  0  0  0  0  0  0  0  0  0  0  0
   -0.2845    1.6365    0.0000 C   0  0  0  0  0  0  0  0  0  0  0  0
    3.3750    0.8505    0.0000 C   0  0  0  0  0  0  0  0  0  0  0  0
    0.3750    3.4486    0.0000 C   0  0  0  0  0  0  0  0  0  0  0  0
    2.3645    3.6267    0.0000 Cl  0  0  0  0  0  0  0  0  0  0  0  0
    1.3855    0.6723    0.0000 Cl  0  0  0  0  0  0  0  0  0  0  0  0
    2.6250    2.1495    0.0000 Si  0  0  0  0  0  4  0  0  0  0  0  0
    1.1250    2.1495    0.0000 Si  0  0  0  0  0  4  0  0  0  0  0  0
  9  1  1  0
  9  2  1  0
  9  3  1  0
 10  4  1  0
 10  5  1  0
 10  6  1  0
 13  7  1  0
 13  9  1  0
 13 11  1  0
 14  8  1  0
 14 10  1  0
 14 12  1  0
 14 13  1  0
M  END
>  <NAME>  (4727) 
1,2-DI-TERT-BUTYL-1,2-DICHLORO-1,2-DIMETHYLDISILANE

>  <SYNONYMS>  (4727) 


>  <SPECTRUM TYPE>  (4727) 
MS1

>  <INSTRUMENT TYPE>  (4727) 
EI-B

>  <INSTRUMENT>  (4727) 
JEOL JMS-D-3000

>  <ION MODE>  (4727) 
P

>  <INCHIKEY>  (4727) 
FRISHBNSKGDUHD-UHFFFAOYSA-N

>  <FORMULA>  (4727) 
C10H24Cl2Si2

>  <EXACT MASS>  (4727) 
270.079359188

>  <MW>  (4727) 
270

>  <ID>  (4727) 
JP004832

>  <CONTRIBUTOR>  (4727) 
University of Tokyo Team, {Faculty of Engineering, University of Tokyo

>  <COMMENT>  (4727) 
SMILES=CC(C)(C)[Si](C)(Cl)[Si](C)(Cl)C(C)(C)C
InChI=InChI=1S/C10H24Cl2Si2/c1-9(2,3)13(7,11)14(8,12)10(4,5)6/h1-8H3
computed SMILES=Cl[Si](C)(C(C)(C)C)[Si](Cl)(C)C(C)(C)C
accession=JP004832
date=2016.01.19 (Created 2008.10.21, modified 2011.05.06)
author=MASS SPECTROSCOPY SOC. OF JAPAN (MSSJ)
license=CC BY-NC-SA
exact mass=270.07936
ionization energy=70 eV
ion type=[M]+*
computed spectral entropy=3.1847333284354575
computed normalized entropy=0.7657664965812729
SPLASH=splash10-059l-9200000000-fb97bac8f2212d977b10
submitter=submitter = University of Tokyo Team (Faculty of Engineering, University of Tokyo)
MoNA Rating=3.75

>  <NUM PEAKS>  (4727) 
64

>  <MASS SPECTRAL PEAKS>  (4727) 
43 15.02
44 1.91
45 3.81
55 1.82
56 4.51
57 36.47
58 15.76
59 32.1
60 2.87
61 1.31
63 6.57
65 5.85
67 1.58
72 10.48
73 86.16
74 7.94
75 6.09
78 2.18
79 6.34
80 1.46
81 2.05
83 1.08
85 99.99
86 10.24
87 3.89
92 1.48
93 83.35
94 6.7
95 30.25
96 2.05
97 1.11
99 3.36
100 48.2
101 6.57
102 1.99
105 8.3
106 1.22
107 2.96
113 1.55
115 1.09
119 10.1
120 5.32
121 4.05
122 1.99
134 6.5
135 10.19
136 3.55
137 4.15
153 1.24
157 2.05
158 1.08
159 1.4
167 1.4
169 1.88
171 1.67
195 1.71
211 1
213 7.7
214 3.91
215 5.56
216 2.7
217 1.36
270 2.46
272 1.69

$$$$

     RDKit          2D

 14 13  0  0  0  0  0  0  0  0999 V2000
    4.6740    1.6005    0.0000 C   0  0  0  0  0  0  0  0  0  0  0  0
    2.0760    0.1005    0.0000 C   0  0  0  0  0  0  0  0  0  0  0  0
    4.1250   -0.4486    0.0000 C   0  0  0  0  0  0  0  0  0  0  0  0
    1.6740    4.1986    0.0000 C   0  0  0  0  0  0  0  0  0  0  0  0
   -0.3750    4.7476    0.0000 C   0  0  0  0  0  0  0  0  0  0  0  0
   -0.9240    2.6986    0.0000 C   0  0  0  0  0  0  0  0  0  0  0  0
    4.0345    2.6625    0.0000 C   0  0  0  0  0  0  0  0  0  0  0  0
   -0.2845    1.6365    0.0000 C   0  0  0  0  0  0  0  0  0  0  0  0
    3.3750    0.8505    0.0000 C   0  0  0  0  0  0  0  0  0  0  0  0
    0.3750    3.4486    0.0000 C   0  0  0  0  0  0  0  0  0  0  0  0
    2.3645    3.6267    0.0000 Cl  0  0  0  0  0  0  0  0  0  0  0  0
    1.3855    0.6723    0.0000 F   0  0  0  0  0  0  0  0  0  0  0  0
    2.6250    2.1495    0.0000 Si  0  0  0  0  0  4  0  0  0  0  0  0
    1.1250    2.1495    0.0000 Si  0  0  0  0  0  4  0  0  0  0  0  0
  9  1  1  0
  9  2  1  0
  9  3  1  0
 10  4  1  0
 10  5  1  0
 10  6  1  0
 13  7  1  0
 13  9  1  0
 13 11  1  0
 14  8  1  0
 14 10  1  0
 14 12  1  0
 14 13  1  0
M  END
>  <NAME>  (4728) 
1,2-DI-TERT-BUTYL-1-CHLORO-2-FLUORO-1,2-DIMETHYLDISILANE

>  <SYNONYMS>  (4728) 


>  <SPECTRUM TYPE>  (4728) 
MS1

>  <INSTRUMENT TYPE>  (4728) 
EI-B

>  <INSTRUMENT>  (4728) 
JEOL JMS-D-3000

>  <ION MODE>  (4728) 
P

>  <INCHIKEY>  (4728) 
GFHWQOCAOXRKLP-UHFFFAOYSA-N

>  <FORMULA>  (4728) 
C10H24ClFSi2

>  <EXACT MASS>  (4728) 
254.10890972800001

>  <MW>  (4728) 
254

>  <ID>  (4728) 
JP004831

>  <CONTRIBUTOR>  (4728) 
University of Tokyo Team, {Faculty of Engineering, University of Tokyo

>  <COMMENT>  (4728) 
SMILES=CC(C)(C)[Si](C)(F)[Si](C)(Cl)C(C)(C)C
InChI=InChI=1S/C10H24ClFSi2/c1-9(2,3)13(7,11)14(8,12)10(4,5)6/h1-8H3
computed SMILES=F[Si](C)(C(C)(C)C)[Si](Cl)(C)C(C)(C)C
accession=JP004831
date=2016.01.19 (Created 2008.10.21, modified 2011.05.06)
author=MASS SPECTROSCOPY SOC. OF JAPAN (MSSJ)
license=CC BY-NC-SA
exact mass=254.10891
ionization energy=70 eV
ion type=[M]+*
computed spectral entropy=3.0581843933565653
computed normalized entropy=0.7597309821140248
SPLASH=splash10-0kg9-9200000000-9b20715cd1875f0fecc3
submitter=submitter = University of Tokyo Team (Faculty of Engineering, University of Tokyo)
MoNA Rating=3.75

>  <NUM PEAKS>  (4728) 
56

>  <MASS SPECTRAL PEAKS>  (4728) 
43 11.63
44 1.51
45 3.46
47 3.14
49 2.92
55 1.45
56 4.95
57 18.92
58 21.14
59 35.67
60 3.25
61 1.62
63 3.47
65 2.11
72 14.14
73 76.39
74 7.19
75 7.83
77 40.12
78 3.47
79 4.08
81 1.05
85 99.99
86 9.74
87 4.42
89 1.26
93 24.23
94 2
95 9.12
97 1.06
99 3.31
100 69.83
101 9.4
102 3
103 4.05
105 1.37
118 2.36
119 8.23
120 1.14
121 2.75
123 1.38
134 3.93
135 1.66
136 1.65
137 2.48
141 1.71
153 1.11
155 1.22
169 1.68
171 1.33
179 2.83
197 4.21
198 1.46
199 1.95
254 3.96
256 1.53

$$$$

     RDKit          2D

 10 10  0  0  0  0  0  0  0  0999 V2000
    3.8971   -0.7500    0.0000 C   0  0  0  0  0  0  0  0  0  0  0  0
   -3.8971    0.7500    0.0000 C   0  0  0  0  0  0  0  0  0  0  0  0
    1.2995    0.7508    0.0000 C   0  0  0  0  0  0  0  0  0  0  0  0
   -0.0005   -1.5008    0.0000 C   0  0  0  0  0  0  0  0  0  0  0  0
    0.0005    1.5008    0.0000 C   0  0  0  0  0  0  0  0  0  0  0  0
   -1.2995   -0.7508    0.0000 C   0  0  0  0  0  0  0  0  0  0  0  0
    1.2990   -0.7500    0.0000 C   0  0  0  0  0  0  0  0  0  0  0  0
   -1.2990    0.7500    0.0000 C   0  0  0  0  0  0  0  0  0  0  0  0
    2.5981   -1.5000    0.0000 O   0  0  0  0  0  0  0  0  0  0  0  0
   -2.5981    1.5000    0.0000 O   0  0  0  0  0  0  0  0  0  0  0  0
  5  3  2  0
  6  4  1  0
  7  3  1  0
  7  4  2  0
  8  5  1  0
  8  6  2  0
  9  1  1  0
  9  7  1  0
 10  2  1  0
 10  8  1  0
M  END
>  <NAME>  (4729) 
1,4-DIMETHOXYBENZENE

>  <SYNONYMS>  (4729) 


>  <SPECTRUM TYPE>  (4729) 
MS1

>  <INSTRUMENT TYPE>  (4729) 
EI-B

>  <INSTRUMENT>  (4729) 
JEOL JMS-D-3000

>  <ION MODE>  (4729) 
P

>  <INCHIKEY>  (4729) 
OHBQPCCCRFSCAX-UHFFFAOYSA-N

>  <FORMULA>  (4729) 
C8H10O2

>  <EXACT MASS>  (4729) 
138.06807956

>  <MW>  (4729) 
138

>  <ID>  (4729) 
JP004830

>  <CONTRIBUTOR>  (4729) 
University of Tokyo Team, {Faculty of Engineering, University of Tokyo

>  <COMMENT>  (4729) 
SMILES=COc(c1)ccc(OC)c1
cas=150-78-7
InChI=InChI=1S/C8H10O2/c1-9-7-3-5-8(10-2)6-4-7/h3-6H,1-2H3
computed SMILES=O(C1=CC=C(OC)C=C1)C
accession=JP004830
date=2016.01.19 (Created 2008.10.21, modified 2011.05.06)
author=MASS SPECTROSCOPY SOC. OF JAPAN (MSSJ)
license=CC BY-NC-SA
exact mass=138.06808
ionization energy=70 eV
ion type=[M]+*
computed spectral entropy=2.099863614256667
computed normalized entropy=0.6445062599439837
SPLASH=splash10-00dr-3900000000-83320534feed23b07657
submitter=submitter = University of Tokyo Team (Faculty of Engineering, University of Tokyo)
MoNA Rating=3.75

>  <NUM PEAKS>  (4729) 
26

>  <MASS SPECTRAL PEAKS>  (4729) 
50 2.78
51 3.86
52 5.23
53 3.41
54 3.46
62 1.84
63 5.93
64 6.59
65 3.95
67 1.39
69 1.57
73 2.21
74 1
77 4.48
79 1.88
80 4.27
82 1.02
92 4.09
95 21.31
96 1.46
107 1.83
108 1.97
123 99.99
124 8.08
138 87.8
139 8.02

$$$$

     RDKit          2D

  5  4  0  0  0  0  0  0  0  0999 V2000
    0.0000    0.0000    0.0000 C   0  0  0  0  0  0  0  0  0  0  0  0
    1.2990    2.2500    0.0000 C   0  0  0  0  0  0  0  0  0  0  0  0
   -1.2990    2.2500    0.0000 C   0  0  0  0  0  0  0  0  0  0  0  0
    0.0000    1.5000    0.0000 C   0  0  0  0  0  0  0  0  0  0  0  0
   -1.2990    3.7500    0.0000 Br  0  0  0  0  0  0  0  0  0  0  0  0
  4  1  1  0
  4  2  1  0
  4  3  1  0
  5  3  1  0
M  END
>  <NAME>  (4730) 
1-BROMO-2-METHYLPROPANE

>  <SYNONYMS>  (4730) 


>  <SPECTRUM TYPE>  (4730) 
MS1

>  <INSTRUMENT TYPE>  (4730) 
EI-B

>  <INSTRUMENT>  (4730) 
JEOL JMS-D-3000

>  <ION MODE>  (4730) 
P

>  <INCHIKEY>  (4730) 
HLVFKOKELQSXIQ-UHFFFAOYSA-N

>  <FORMULA>  (4730) 
C4H9Br

>  <EXACT MASS>  (4730) 
135.988762388

>  <MW>  (4730) 
136

>  <ID>  (4730) 
JP004829

>  <CONTRIBUTOR>  (4730) 
University of Tokyo Team, {Faculty of Engineering, University of Tokyo

>  <COMMENT>  (4730) 
SMILES=CC(C)CBr
cas=78-77-3
InChI=InChI=1S/C4H9Br/c1-4(2)3-5/h4H,3H2,1-2H3
computed SMILES=BrCC(C)C
accession=JP004829
date=2016.01.19 (Created 2008.10.21, modified 2011.05.06)
author=MASS SPECTROSCOPY SOC. OF JAPAN (MSSJ)
license=CC BY-NC-SA
exact mass=135.98876
ionization energy=70 eV
ion type=[M]+*
computed spectral entropy=1.3115035291940262
computed normalized entropy=0.527787846398945
SPLASH=splash10-0a4i-9000000000-a2abbf1893c3661e5c13
submitter=submitter = University of Tokyo Team (Faculty of Engineering, University of Tokyo)
MoNA Rating=3.75

>  <NUM PEAKS>  (4730) 
12

>  <MASS SPECTRAL PEAKS>  (4730) 
42 9.22
43 34.27
55 3.33
56 2.23
57 99.99
58 4.31
93 1.02
95 0.97
121 2.17
123 2
136 2.2
138 2.14

$$$$

     RDKit          2D

 10 10  0  0  0  0  0  0  0  0999 V2000
   -1.3000    0.7500    0.0000 C   0  0  0  0  0  0  0  0  0  0  0  0
   -0.0000   -1.5000    0.0000 C   0  0  0  0  0  0  0  0  0  0  0  0
    0.0000    1.5000    0.0000 C   0  0  0  0  0  0  0  0  0  0  0  0
    1.3000   -0.7500    0.0000 C   0  0  0  0  0  0  0  0  0  0  0  0
   -1.3000   -0.7500    0.0000 C   0  0  0  0  0  0  0  0  0  0  0  0
    1.3000    0.7500    0.0000 C   0  0  0  0  0  0  0  0  0  0  0  0
   -2.5989   -1.5002    0.0000 Br  0  0  0  0  0  0  0  0  0  0  0  0
    2.5989    1.5002    0.0000 N   0  0  0  0  0  0  0  0  0  0  0  0
    3.8981    0.7504    0.0000 O   0  0  0  0  0  0  0  0  0  0  0  0
    2.5987    3.0002    0.0000 O   0  0  0  0  0  0  0  0  0  0  0  0
  3  1  2  0
  4  2  1  0
  5  1  1  0
  5  2  2  0
  6  3  1  0
  6  4  2  0
  7  5  1  0
  8  6  1  0
  9  8  1  0
 10  8  2  0
M  CHG  2   8   1   9  -1
M  END
>  <NAME>  (4731) 
1-BROMO-4-NITROBENZENE

>  <SYNONYMS>  (4731) 


>  <SPECTRUM TYPE>  (4731) 
MS1

>  <INSTRUMENT TYPE>  (4731) 
EI-B

>  <INSTRUMENT>  (4731) 
JEOL JMS-D-3000

>  <ION MODE>  (4731) 
P

>  <INCHIKEY>  (4731) 
ZDFBKZUDCQQKAC-UHFFFAOYSA-N

>  <FORMULA>  (4731) 
C6H4BrNO2

>  <EXACT MASS>  (4731) 
200.942540468

>  <MW>  (4731) 
201

>  <ID>  (4731) 
JP004828

>  <CONTRIBUTOR>  (4731) 
University of Tokyo Team, {Faculty of Engineering, University of Tokyo

>  <COMMENT>  (4731) 
SMILES=[O-1][N+1](=O)c(c1)ccc(Br)c1
cas=586-78-7
InChI=InChI=1S/C6H4BrNO2/c7-5-1-3-6(4-2-5)8(9)10/h1-4H
computed SMILES=O=N(=O)C1=CC=C(Br)C=C1
accession=JP004828
date=2016.01.19 (Created 2008.10.21, modified 2011.05.06)
author=MASS SPECTROSCOPY SOC. OF JAPAN (MSSJ)
license=CC BY-NC-SA
exact mass=200.94254
ionization energy=70 eV
ion type=[M]+*
computed spectral entropy=2.7911919555707936
computed normalized entropy=0.7788969455742084
SPLASH=splash10-0zi0-8960000000-c01faa456f981c912aa6
submitter=submitter = University of Tokyo Team (Faculty of Engineering, University of Tokyo)
MoNA Rating=3.75

>  <NUM PEAKS>  (4731) 
36

>  <MASS SPECTRAL PEAKS>  (4731) 
49 3.25
50 47.13
51 6.79
61 2.44
62 2.66
63 5.93
64 5.33
73 5.96
74 27.26
75 83.05
76 66.95
77 4.74
92 2.91
117 1.93
119 1.84
129 2.79
131 2.76
143 21.17
144 1.29
145 20.3
146 1.25
154 1.1
155 77.36
156 6.27
157 74.72
158 5.38
171 34.4
172 2.58
173 33.5
174 2.41
185 2.48
187 2.49
201 99.99
202 7.75
203 98.79
204 7.33

$$$$

     RDKit          2D

 24 24  0  0  0  0  0  0  0  0999 V2000
   -5.0509   -0.5917    0.0000 C   0  0  0  0  0  0  0  0  0  0  0  0
   -4.4951   -2.6389    0.0000 C   0  0  0  0  0  0  0  0  0  0  0  0
   -2.4479   -2.0831    0.0000 C   0  0  0  0  0  0  0  0  0  0  0  0
   -2.4614    2.0150    0.0000 C   0  0  0  0  0  0  0  0  0  0  0  0
   -4.5123    2.5572    0.0000 C   0  0  0  0  0  0  0  0  0  0  0  0
   -5.0545    0.5064    0.0000 C   0  0  0  0  0  0  0  0  0  0  0  0
    2.4584   -2.0400    0.0000 C   0  0  0  0  0  0  0  0  0  0  0  0
    4.5130   -2.5679    0.0000 C   0  0  0  0  0  0  0  0  0  0  0  0
    5.0408   -0.5133    0.0000 C   0  0  0  0  0  0  0  0  0  0  0  0
    5.0295    0.5847    0.0000 C   0  0  0  0  0  0  0  0  0  0  0  0
    4.4593    2.6280    0.0000 C   0  0  0  0  0  0  0  0  0  0  0  0
    2.4161    2.0578    0.0000 C   0  0  0  0  0  0  0  0  0  0  0  0
   -0.7637   -1.3209    0.0000 C   0  0  0  0  0  0  0  0  0  0  0  0
   -0.7637    1.2791    0.0000 C   0  0  0  0  0  0  0  0  0  0  0  0
    0.7463   -1.3009    0.0000 C   0  0  0  0  0  0  0  0  0  0  0  0
    0.7163    1.2891    0.0000 C   0  0  0  0  0  0  0  0  0  0  0  0
   -1.5037   -0.0309    0.0000 C   0  0  0  0  0  0  0  0  0  0  0  0
    1.4863   -0.0009    0.0000 C   0  0  0  0  0  0  0  0  0  0  0  0
   -3.0037   -0.0359    0.0000 N   0  0  0  0  0  0  0  0  0  0  0  0
    2.9862    0.0146    0.0000 N   0  0  0  0  0  0  0  0  0  0  0  0
   -3.7494   -1.3374    0.0000 Si  0  0  0  0  0  4  0  0  0  0  0  0
   -3.7580    1.2607    0.0000 Si  0  0  0  0  0  4  0  0  0  0  0  0
    3.7496   -1.2767    0.0000 Si  0  0  0  0  0  4  0  0  0  0  0  0
    3.7228    1.3213    0.0000 Si  0  0  0  0  0  4  0  0  0  0  0  0
 15 13  2  0
 16 14  1  0
 17 13  1  0
 17 14  2  0
 18 15  1  0
 18 16  2  0
 19 17  1  0
 20 18  1  0
 21  1  1  0
 21  2  1  0
 21  3  1  0
 21 19  1  0
 22  4  1  0
 22  5  1  0
 22  6  1  0
 22 19  1  0
 23  7  1  0
 23  8  1  0
 23  9  1  0
 23 20  1  0
 24 10  1  0
 24 11  1  0
 24 12  1  0
 24 20  1  0
M  END
>  <NAME>  (4732) 
N,N,N',N'-TETRAKIS(TRIMETHYLSILYL)-',4-PHENYLENEDIAMINE

>  <SYNONYMS>  (4732) 


>  <SPECTRUM TYPE>  (4732) 
MS1

>  <INSTRUMENT TYPE>  (4732) 
EI-B

>  <INSTRUMENT>  (4732) 
JEOL JMS-D-3000

>  <ION MODE>  (4732) 
P

>  <INCHIKEY>  (4732) 
XQKWWUIRCYZBMX-UHFFFAOYSA-N

>  <FORMULA>  (4732) 
C18H40N2Si4

>  <EXACT MASS>  (4732) 
396.2268554

>  <MW>  (4732) 
396

>  <ID>  (4732) 
JP004827

>  <CONTRIBUTOR>  (4732) 
University of Tokyo Team, {Faculty of Engineering, University of Tokyo

>  <COMMENT>  (4732) 
SMILES=C[Si](C)(C)N([Si](C)(C)C)c(c1)ccc(c1)N([Si](C)(C)C)[Si](C)(C)C
cas=25811-68-1
InChI=InChI=1S/C18H40N2Si4/c1-21(2,3)19(22(4,5)6)17-13-15-18(16-14-17)20(23(7,8)9)24(10,11)12/h13-16H,1-12H3
computed SMILES=C=1C=C(C=CC1N([Si](C)(C)C)[Si](C)(C)C)N([Si](C)(C)C)[Si](C)(C)C
accession=JP004827
date=2016.01.19 (Created 2008.10.21, modified 2011.05.06)
author=MASS SPECTROSCOPY SOC. OF JAPAN (MSSJ)
license=CC BY-NC-SA
exact mass=396.22686
ionization energy=70 eV
ion type=[M]+*
computed spectral entropy=2.655226368110792
computed normalized entropy=0.715006015883578
SPLASH=splash10-001j-1009000000-d86312fd74f6425fabf4
submitter=submitter = University of Tokyo Team (Faculty of Engineering, University of Tokyo)
MoNA Rating=3.75

>  <NUM PEAKS>  (4732) 
41

>  <MASS SPECTRAL PEAKS>  (4732) 
45 2.5
59 1.76
73 26.76
74 2.68
75 2.43
100 1.09
130 5.36
131 1.03
183 15.12
184 3.17
194 1.76
206 1.34
208 1.03
220 1.09
234 1.34
235 1.76
266 1.52
277 1.64
291 1.15
292 1.28
293 3.65
294 1.4
309 1.76
324 1.09
335 1.15
349 1.09
365 12.37
366 5.3
367 3.1
368 1.09
379 4.2
381 99.99
382 39.63
383 20.97
384 5.79
385 1.58
396 66.15
397 27.43
398 14.02
399 3.84
400 1.15

$$$$

     RDKit          2D

 17 17  0  0  0  0  0  0  0  0999 V2000
    3.8981    0.7504    0.0000 C   0  0  0  0  0  0  0  0  0  0  0  0
   -3.1483    0.5487    0.0000 C   0  0  0  0  0  0  0  0  0  0  0  0
   -5.1972   -0.0006    0.0000 C   0  0  0  0  0  0  0  0  0  0  0  0
   -4.6479   -2.0496    0.0000 C   0  0  0  0  0  0  0  0  0  0  0  0
   -4.0987   -3.0004    0.0000 C   0  0  0  0  0  0  0  0  0  0  0  0
   -2.5984   -4.5002    0.0000 C   0  0  0  0  0  0  0  0  0  0  0  0
   -1.0987   -3.0000    0.0000 C   0  0  0  0  0  0  0  0  0  0  0  0
   -1.3000    0.7500    0.0000 C   0  0  0  0  0  0  0  0  0  0  0  0
   -0.0000   -1.5000    0.0000 C   0  0  0  0  0  0  0  0  0  0  0  0
    0.0000    1.5000    0.0000 C   0  0  0  0  0  0  0  0  0  0  0  0
    1.3000   -0.7500    0.0000 C   0  0  0  0  0  0  0  0  0  0  0  0
   -1.3000   -0.7500    0.0000 C   0  0  0  0  0  0  0  0  0  0  0  0
    1.3000    0.7500    0.0000 C   0  0  0  0  0  0  0  0  0  0  0  0
   -2.5989   -1.5002    0.0000 N   0  0  0  0  0  0  0  0  0  0  0  0
    2.5989    1.5002    0.0000 O   0  0  0  0  0  0  0  0  0  0  0  0
   -3.8981   -0.7504    0.0000 Si  0  0  0  0  0  4  0  0  0  0  0  0
   -2.5987   -3.0002    0.0000 Si  0  0  0  0  0  4  0  0  0  0  0  0
 10  8  2  0
 11  9  1  0
 12  8  1  0
 12  9  2  0
 13 10  1  0
 13 11  2  0
 14 12  1  0
 15  1  1  0
 15 13  1  0
 16  2  1  0
 16  3  1  0
 16  4  1  0
 16 14  1  0
 17  5  1  0
 17  6  1  0
 17  7  1  0
 17 14  1  0
M  END
>  <NAME>  (4733) 
4-N,N-BIS(TRIMETHYLSILYL)ANISIDINE

>  <SYNONYMS>  (4733) 


>  <SPECTRUM TYPE>  (4733) 
MS1

>  <INSTRUMENT TYPE>  (4733) 
EI-B

>  <INSTRUMENT>  (4733) 
JEOL JMS-D-3000

>  <ION MODE>  (4733) 
P

>  <INCHIKEY>  (4733) 
YQDOBHUSDRFHKO-UHFFFAOYSA-N

>  <FORMULA>  (4733) 
C13H25NOSi2

>  <EXACT MASS>  (4733) 
267.14746748

>  <MW>  (4733) 
267

>  <ID>  (4733) 
JP004826

>  <CONTRIBUTOR>  (4733) 
University of Tokyo Team, {Faculty of Engineering, University of Tokyo

>  <COMMENT>  (4733) 
SMILES=COc(c1)ccc(c1)N([Si](C)(C)C)[Si](C)(C)C
InChI=InChI=1S/C13H25NOSi2/c1-15-13-10-8-12(9-11-13)14(16(2,3)4)17(5,6)7/h8-11H,1-7H3
computed SMILES=O(C1=CC=C(C=C1)N([Si](C)(C)C)[Si](C)(C)C)C
accession=JP004826
date=2016.01.19 (Created 2008.10.21, modified 2011.05.06)
author=MASS SPECTROSCOPY SOC. OF JAPAN (MSSJ)
license=CC BY-NC-SA
exact mass=267.14747
ionization energy=70 eV
ion type=[M]+*
computed spectral entropy=2.190859720930635
computed normalized entropy=0.6806288406668627
SPLASH=splash10-0udi-1090000000-53d2b14c484e47447771
submitter=submitter = University of Tokyo Team (Faculty of Engineering, University of Tokyo)
MoNA Rating=3.75

>  <NUM PEAKS>  (4733) 
25

>  <MASS SPECTRAL PEAKS>  (4733) 
43 1.69
45 5.79
59 3.54
73 22.65
74 2.06
75 1.66
130 1.12
164 3.38
179 1.56
180 1.41
206 3.36
220 1.1
221 2.64
222 1.73
236 2.78
237 7.47
238 2.09
250 1.07
252 99.99
253 24.49
254 9.85
255 1.54
267 28.76
268 7.19
269 2.73

$$$$

     RDKit          2D

 16 16  0  0  0  0  0  0  0  0999 V2000
   -0.5500    3.5487    0.0000 C   0  0  0  0  0  0  0  0  0  0  0  0
   -2.5989    2.9994    0.0000 C   0  0  0  0  0  0  0  0  0  0  0  0
   -2.0496    0.9504    0.0000 C   0  0  0  0  0  0  0  0  0  0  0  0
   -1.5004   -0.0004    0.0000 C   0  0  0  0  0  0  0  0  0  0  0  0
   -0.0001   -1.5002    0.0000 C   0  0  0  0  0  0  0  0  0  0  0  0
    1.4996    0.0000    0.0000 C   0  0  0  0  0  0  0  0  0  0  0  0
    3.8983    2.2500    0.0000 C   0  0  0  0  0  0  0  0  0  0  0  0
    2.5983    4.5000    0.0000 C   0  0  0  0  0  0  0  0  0  0  0  0
    2.5983    1.5000    0.0000 C   0  0  0  0  0  0  0  0  0  0  0  0
    1.2983    3.7500    0.0000 C   0  0  0  0  0  0  0  0  0  0  0  0
    3.8983    3.7500    0.0000 C   0  0  0  0  0  0  0  0  0  0  0  0
    1.2983    2.2500    0.0000 C   0  0  0  0  0  0  0  0  0  0  0  0
    5.1972    4.5002    0.0000 Cl  0  0  0  0  0  0  0  0  0  0  0  0
   -0.0006    1.4998    0.0000 N   0  0  0  0  0  0  0  0  0  0  0  0
   -1.2998    2.2496    0.0000 Si  0  0  0  0  0  4  0  0  0  0  0  0
   -0.0004   -0.0002    0.0000 Si  0  0  0  0  0  4  0  0  0  0  0  0
  9  7  2  0
 10  8  1  0
 11  7  1  0
 11  8  2  0
 12  9  1  0
 12 10  2  0
 13 11  1  0
 14 12  1  0
 15  1  1  0
 15  2  1  0
 15  3  1  0
 15 14  1  0
 16  4  1  0
 16  5  1  0
 16  6  1  0
 16 14  1  0
M  END
>  <NAME>  (4734) 
4-CHLORO-N,N-BIS(TRIMETHYLSILYL)ANILINE

>  <SYNONYMS>  (4734) 


>  <SPECTRUM TYPE>  (4734) 
MS1

>  <INSTRUMENT TYPE>  (4734) 
EI-B

>  <INSTRUMENT>  (4734) 
JEOL JMS-D-3000

>  <ION MODE>  (4734) 
P

>  <INCHIKEY>  (4734) 
FTAAFHOZHUFYBM-UHFFFAOYSA-N

>  <FORMULA>  (4734) 
C12H22ClNSi2

>  <EXACT MASS>  (4734) 
271.09793044400004

>  <MW>  (4734) 
271

>  <ID>  (4734) 
JP004825

>  <CONTRIBUTOR>  (4734) 
University of Tokyo Team, {Faculty of Engineering, University of Tokyo

>  <COMMENT>  (4734) 
SMILES=Clc(c1)ccc(c1)N([Si](C)(C)C)[Si](C)(C)C
InChI=InChI=1S/C12H22ClNSi2/c1-15(2,3)14(16(4,5)6)12-9-7-11(13)8-10-12/h7-10H,1-6H3
computed SMILES=ClC1=CC=C(C=C1)N([Si](C)(C)C)[Si](C)(C)C
accession=JP004825
date=2016.01.19 (Created 2008.10.21, modified 2011.05.06)
author=MASS SPECTROSCOPY SOC. OF JAPAN (MSSJ)
license=CC BY-NC-SA
exact mass=271.09793
ionization energy=70 eV
ion type=[M]+*
computed spectral entropy=2.4947578402058266
computed normalized entropy=0.7198349528567614
SPLASH=splash10-0a4i-2090000000-830121da1f7e263ae35b
submitter=submitter = University of Tokyo Team (Faculty of Engineering, University of Tokyo)
MoNA Rating=3.75

>  <NUM PEAKS>  (4734) 
32

>  <MASS SPECTRAL PEAKS>  (4734) 
43 3.62
45 9.99
59 5.1
63 1.27
70 1.01
73 37.87
74 3.24
75 1.6
93 4.22
95 1.77
100 1.35
121 1.9
130 1.77
148 2.86
183 1.6
184 1.11
206 4.87
207 1.18
220 1.08
221 7.56
222 1.88
240 3.6
242 1.64
256 99.99
257 23.25
258 41.1
259 8.9
260 3.18
271 18.72
272 4.49
273 7.67
274 1.68

$$$$

     RDKit          2D

 16 16  0  0  0  0  0  0  0  0999 V2000
   -0.5500    3.5487    0.0000 C   0  0  0  0  0  0  0  0  0  0  0  0
   -2.5989    2.9994    0.0000 C   0  0  0  0  0  0  0  0  0  0  0  0
   -2.0496    0.9504    0.0000 C   0  0  0  0  0  0  0  0  0  0  0  0
   -1.5004   -0.0004    0.0000 C   0  0  0  0  0  0  0  0  0  0  0  0
   -0.0001   -1.5002    0.0000 C   0  0  0  0  0  0  0  0  0  0  0  0
    1.4996    0.0000    0.0000 C   0  0  0  0  0  0  0  0  0  0  0  0
    3.8983    2.2500    0.0000 C   0  0  0  0  0  0  0  0  0  0  0  0
    2.5983    4.5000    0.0000 C   0  0  0  0  0  0  0  0  0  0  0  0
    2.5983    1.5000    0.0000 C   0  0  0  0  0  0  0  0  0  0  0  0
    1.2983    3.7500    0.0000 C   0  0  0  0  0  0  0  0  0  0  0  0
    3.8983    3.7500    0.0000 C   0  0  0  0  0  0  0  0  0  0  0  0
    1.2983    2.2500    0.0000 C   0  0  0  0  0  0  0  0  0  0  0  0
    5.1972    4.5002    0.0000 Br  0  0  0  0  0  0  0  0  0  0  0  0
   -0.0006    1.4998    0.0000 N   0  0  0  0  0  0  0  0  0  0  0  0
   -1.2998    2.2496    0.0000 Si  0  0  0  0  0  4  0  0  0  0  0  0
   -0.0004   -0.0002    0.0000 Si  0  0  0  0  0  4  0  0  0  0  0  0
  9  7  2  0
 10  8  1  0
 11  7  1  0
 11  8  2  0
 12  9  1  0
 12 10  2  0
 13 11  1  0
 14 12  1  0
 15  1  1  0
 15  2  1  0
 15  3  1  0
 15 14  1  0
 16  4  1  0
 16  5  1  0
 16  6  1  0
 16 14  1  0
M  END
>  <NAME>  (4735) 
4-BROMO-N,N-BIS(TRIMETHYLSILYL)ANILINE

>  <SYNONYMS>  (4735) 


>  <SPECTRUM TYPE>  (4735) 
MS1

>  <INSTRUMENT TYPE>  (4735) 
EI-B

>  <INSTRUMENT>  (4735) 
JEOL JMS-D-3000

>  <ION MODE>  (4735) 
P

>  <INCHIKEY>  (4735) 
YJYMZGDBOMZWSR-UHFFFAOYSA-N

>  <FORMULA>  (4735) 
C12H22BrNSi2

>  <EXACT MASS>  (4735) 
315.0474148640001

>  <MW>  (4735) 
315

>  <ID>  (4735) 
JP004824

>  <CONTRIBUTOR>  (4735) 
University of Tokyo Team, {Faculty of Engineering, University of Tokyo

>  <COMMENT>  (4735) 
SMILES=Brc(c1)ccc(c1)N([Si](C)(C)C)[Si](C)(C)C
InChI=InChI=1S/C12H22BrNSi2/c1-15(2,3)14(16(4,5)6)12-9-7-11(13)8-10-12/h7-10H,1-6H3
computed SMILES=BrC1=CC=C(C=C1)N([Si](C)(C)C)[Si](C)(C)C
accession=JP004824
date=2016.01.19 (Created 2008.10.21, modified 2011.05.06)
author=MASS SPECTROSCOPY SOC. OF JAPAN (MSSJ)
license=CC BY-NC-SA
exact mass=315.04742
ionization energy=70 eV
ion type=[M]+*
computed spectral entropy=2.97329855760416
computed normalized entropy=0.7453774000838815
SPLASH=splash10-0uk9-2139000000-4c33528dabb69db6b4ac
submitter=submitter = University of Tokyo Team (Faculty of Engineering, University of Tokyo)
MoNA Rating=3.75

>  <NUM PEAKS>  (4735) 
54

>  <MASS SPECTRAL PEAKS>  (4735) 
43 6.44
44 1.92
45 15.4
57 1.08
58 1.77
59 8.4
70 1.51
73 58.81
74 5.2
75 2.49
83 1.06
84 1.45
90 1.23
100 3.03
109 1
119 1.06
121 1.77
130 4.9
131 1
132 1.47
134 1.25
137 3.32
139 3.39
146 1.13
147 1.04
148 2.73
149 1.83
162 1.79
163 1.66
190 2.3
192 1.53
206 31.09
207 7.02
208 2.81
220 4.67
221 65.13
222 15.25
223 5.54
227 2.02
229 1.94
235 1.57
284 2.41
286 2.6
300 95.21
301 22.79
302 99.99
303 22.44
304 8.57
305 1.36
315 27.31
316 6.61
317 28.91
318 6.61
319 2.51

$$$$

     RDKit          2D

  8  8  0  0  0  0  0  0  0  0999 V2000
   -1.3000    0.7500    0.0000 C   0  0  0  0  0  0  0  0  0  0  0  0
    0.0000    1.5000    0.0000 C   0  0  0  0  0  0  0  0  0  0  0  0
   -1.3000   -0.7500    0.0000 C   0  0  0  0  0  0  0  0  0  0  0  0
    1.3000   -0.7500    0.0000 C   0  0  0  0  0  0  0  0  0  0  0  0
    1.3000    0.7500    0.0000 C   0  0  0  0  0  0  0  0  0  0  0  0
   -0.0000   -1.5000    0.0000 C   0  0  0  0  0  0  0  0  0  0  0  0
    2.5989    1.5002    0.0000 Br  0  0  0  0  0  0  0  0  0  0  0  0
   -0.0000   -3.0000    0.0000 Br  0  0  0  0  0  0  0  0  0  0  0  0
  2  1  2  0
  3  1  1  0
  5  2  1  0
  5  4  2  0
  6  3  2  0
  6  4  1  0
  7  5  1  0
  8  6  1  0
M  END
>  <NAME>  (4736) 
1,3-DIBROMOBENZENE

>  <SYNONYMS>  (4736) 


>  <SPECTRUM TYPE>  (4736) 
MS1

>  <INSTRUMENT TYPE>  (4736) 
EI-B

>  <INSTRUMENT>  (4736) 
JEOL JMS-D-3000

>  <ION MODE>  (4736) 
P

>  <INCHIKEY>  (4736) 
JSRLURSZEMLAFO-UHFFFAOYSA-N

>  <FORMULA>  (4736) 
C6H4Br2

>  <EXACT MASS>  (4736) 
233.867974328

>  <MW>  (4736) 
234

>  <ID>  (4736) 
JP004823

>  <CONTRIBUTOR>  (4736) 
University of Tokyo Team, {Faculty of Engineering, University of Tokyo

>  <COMMENT>  (4736) 
SMILES=Brc(c1)cc(Br)cc1
cas=108-36-1
InChI=InChI=1S/C6H4Br2/c7-5-2-1-3-6(8)4-5/h1-4H
computed SMILES=BrC1=CC=CC(Br)=C1
accession=JP004823
date=2016.01.19 (Created 2008.10.21, modified 2011.05.06)
author=MASS SPECTROSCOPY SOC. OF JAPAN (MSSJ)
license=CC BY-NC-SA
exact mass=233.86798
ionization energy=70 eV
ion type=[M]+*
computed spectral entropy=2.5979380061756787
computed normalized entropy=0.7973790757450384
SPLASH=splash10-052r-5590000000-f9cce5bac7801d284fd9
submitter=submitter = University of Tokyo Team (Faculty of Engineering, University of Tokyo)
MoNA Rating=3.75

>  <NUM PEAKS>  (4736) 
26

>  <MASS SPECTRAL PEAKS>  (4736) 
49 3.69
50 27.11
51 4.2
73 4.31
74 16.01
75 36.64
76 26.1
77 7.21
78 6.26
79 1.72
81 1.75
117 5.24
118 9.4
119 4.82
129 1.06
131 1.02
155 47.62
156 4.16
157 46.35
158 3.08
234 51.93
235 3.75
236 99.99
237 7.01
238 49.36
239 3.32

$$$$

     RDKit          2D

  8  8  0  0  0  0  0  0  0  0999 V2000
   -1.3000    0.7500    0.0000 C   0  0  0  0  0  0  0  0  0  0  0  0
   -0.0000   -1.5000    0.0000 C   0  0  0  0  0  0  0  0  0  0  0  0
    0.0000    1.5000    0.0000 C   0  0  0  0  0  0  0  0  0  0  0  0
    1.3000   -0.7500    0.0000 C   0  0  0  0  0  0  0  0  0  0  0  0
   -1.3000   -0.7500    0.0000 C   0  0  0  0  0  0  0  0  0  0  0  0
    1.3000    0.7500    0.0000 C   0  0  0  0  0  0  0  0  0  0  0  0
   -2.5989   -1.5002    0.0000 Br  0  0  0  0  0  0  0  0  0  0  0  0
    2.5989    1.5002    0.0000 Cl  0  0  0  0  0  0  0  0  0  0  0  0
  3  1  2  0
  4  2  1  0
  5  1  1  0
  5  2  2  0
  6  3  1  0
  6  4  2  0
  7  5  1  0
  8  6  1  0
M  END
>  <NAME>  (4737) 
1-BROMO-4-CHLOROBENZENE

>  <SYNONYMS>  (4737) 


>  <SPECTRUM TYPE>  (4737) 
MS1

>  <INSTRUMENT TYPE>  (4737) 
EI-B

>  <INSTRUMENT>  (4737) 
JEOL JMS-D-3000

>  <ION MODE>  (4737) 
P

>  <INCHIKEY>  (4737) 
NHDODQWIKUYWMW-UHFFFAOYSA-N

>  <FORMULA>  (4737) 
C6H4BrCl

>  <EXACT MASS>  (4737) 
189.918489908

>  <MW>  (4737) 
190

>  <ID>  (4737) 
JP004822

>  <CONTRIBUTOR>  (4737) 
University of Tokyo Team, {Faculty of Engineering, University of Tokyo

>  <COMMENT>  (4737) 
SMILES=Clc(c1)ccc(Br)c1
cas=106-39-8
InChI=InChI=1S/C6H4BrCl/c7-5-1-3-6(8)4-2-5/h1-4H
computed SMILES=ClC1=CC=C(Br)C=C1
accession=JP004822
date=2016.01.19 (Created 2008.10.21, modified 2011.05.06)
author=MASS SPECTROSCOPY SOC. OF JAPAN (MSSJ)
license=CC BY-NC-SA
exact mass=189.91849
ionization energy=70 eV
ion type=[M]+*
computed spectral entropy=2.6612128913897286
computed normalized entropy=0.7426255970998888
SPLASH=splash10-0006-4900000000-714f10b888e94e883cb0
submitter=submitter = University of Tokyo Team (Faculty of Engineering, University of Tokyo)
MoNA Rating=3.75

>  <NUM PEAKS>  (4737) 
36

>  <MASS SPECTRAL PEAKS>  (4737) 
40 1.12
42 1.25
43 12.82
45 6.72
49 2.41
50 14.89
51 3.94
55 2.96
56 1.07
58 5.58
59 9.73
61 1.42
73 4.14
74 14.81
75 31.93
76 6.23
77 1.87
78 1.71
84 1.36
85 2.35
95 4.8
96 6.68
97 1.61
110 1.48
111 65.28
112 4.77
113 20.3
114 1.5
155 1.16
157 1.07
190 77.95
191 5.58
192 99.99
193 6.81
194 25.06
195 1.66

$$$$

     RDKit          2D

 21 22  0  0  0  0  0  0  0  0999 V2000
    6.0532   -2.7460    0.0000 C   0  0  0  0  0  0  0  0  0  0  0  0
   -5.1704   -2.7460    0.0000 C   0  0  0  0  0  0  0  0  0  0  0  0
    3.4554    1.7548    0.0000 C   0  0  0  0  0  0  0  0  0  0  0  0
    0.8565   -2.7466    0.0000 C   0  0  0  0  0  0  0  0  0  0  0  0
   -0.1236   -2.9608    0.0000 C   0  0  0  0  0  0  0  0  0  0  0  0
   -2.5726    1.7548    0.0000 C   0  0  0  0  0  0  0  0  0  0  0  0
    4.7547   -0.4952    0.0000 C   0  0  0  0  0  0  0  0  0  0  0  0
    3.4547   -2.7468    0.0000 C   0  0  0  0  0  0  0  0  0  0  0  0
   -2.5719   -2.7468    0.0000 C   0  0  0  0  0  0  0  0  0  0  0  0
   -3.8719   -0.4952    0.0000 C   0  0  0  0  0  0  0  0  0  0  0  0
    4.7542   -1.9960    0.0000 C   0  0  0  0  0  0  0  0  0  0  0  0
   -3.8714   -1.9960    0.0000 C   0  0  0  0  0  0  0  0  0  0  0  0
    3.4557    0.2548    0.0000 C   0  0  0  0  0  0  0  0  0  0  0  0
    2.1557   -1.9968    0.0000 C   0  0  0  0  0  0  0  0  0  0  0  0
   -1.2728   -1.9968    0.0000 C   0  0  0  0  0  0  0  0  0  0  0  0
   -2.5728    0.2548    0.0000 C   0  0  0  0  0  0  0  0  0  0  0  0
    2.1561   -0.4960    0.0000 C   0  0  0  0  0  0  0  0  0  0  0  0
   -1.2733   -0.4960    0.0000 C   0  0  0  0  0  0  0  0  0  0  0  0
    1.4056    1.6431    0.0000 F   0  0  0  0  0  0  0  0  0  0  0  0
   -0.5228    1.6431    0.0000 F   0  0  0  0  0  0  0  0  0  0  0  0
    0.4414    0.4940    0.0000 Si  0  0  0  0  0  4  0  0  0  0  0  0
 11  1  1  0
 11  7  2  0
 11  8  1  0
 12  2  1  0
 12  9  2  0
 12 10  1  0
 13  3  1  0
 13  7  1  0
 14  4  1  0
 14  8  2  0
 15  5  1  0
 15  9  1  0
 16  6  1  0
 16 10  2  0
 17 13  2  0
 17 14  1  0
 18 15  2  0
 18 16  1  0
 21 17  1  0
 21 18  1  0
 21 19  1  0
 21 20  1  0
M  END
>  <NAME>  (4738) 
DIFLUORODIMESITYLSILANE

>  <SYNONYMS>  (4738) 


>  <SPECTRUM TYPE>  (4738) 
MS1

>  <INSTRUMENT TYPE>  (4738) 
EI-B

>  <INSTRUMENT>  (4738) 
JEOL JMS-D-3000

>  <ION MODE>  (4738) 
P

>  <INCHIKEY>  (4738) 
WXVJHQLEUYJXTJ-UHFFFAOYSA-N

>  <FORMULA>  (4738) 
C18H22F2Si

>  <EXACT MASS>  (4738) 
304.145883674

>  <MW>  (4738) 
304

>  <ID>  (4738) 
JP004819

>  <CONTRIBUTOR>  (4738) 
University of Tokyo Team, {Faculty of Engineering, University of Tokyo

>  <COMMENT>  (4738) 
SMILES=Cc(c2)cc(C)c(c(C)2)[Si](F)(F)c(c(C)1)c(C)cc(C)c1
InChI=InChI=1S/C18H22F2Si/c1-11-7-13(3)17(14(4)8-11)21(19,20)18-15(5)9-12(2)10-16(18)6/h7-10H,1-6H3
computed SMILES=F[Si](F)(C=1C(=CC(=CC1C)C)C)C=2C(=CC(=CC2C)C)C
accession=JP004819
date=2016.01.19 (Created 2008.10.21, modified 2011.05.06)
author=MASS SPECTROSCOPY SOC. OF JAPAN (MSSJ)
license=CC BY-NC-SA
exact mass=304.14588
ionization energy=70 eV
ion type=[M]+*
computed spectral entropy=2.901948090023448
computed normalized entropy=0.7537238543100363
SPLASH=splash10-014i-4690000000-7e9eb621ad46cf15b0c2
submitter=submitter = University of Tokyo Team (Faculty of Engineering, University of Tokyo)
MoNA Rating=3.75

>  <NUM PEAKS>  (4738) 
47

>  <MASS SPECTRAL PEAKS>  (4738) 
40 11.96
51 2.49
52 1.08
53 2.35
55 1.07
56 1.3
57 68.19
58 3.11
63 4.01
65 2.75
77 6.44
78 2.41
79 2.76
91 11.79
92 1.35
93 1.62
102 1.35
103 4.93
104 3.42
105 4.53
113 2.89
115 5.29
116 1.47
117 7.08
118 3.87
119 99.99
120 31.87
121 2.73
145 1.4
154 1.06
181 3.94
182 3.41
183 1.51
184 1.08
215 1.12
217 69.91
218 44.49
219 52.52
220 29.78
221 12.43
222 5.65
223 1.14
274 16.38
275 3.33
276 11.23
277 2.17
278 2.14

$$$$

     RDKit          2D

 21 22  0  0  0  0  0  0  0  0999 V2000
    6.0532   -2.7460    0.0000 C   0  0  0  0  0  0  0  0  0  0  0  0
   -5.1704   -2.7460    0.0000 C   0  0  0  0  0  0  0  0  0  0  0  0
    3.4554    1.7548    0.0000 C   0  0  0  0  0  0  0  0  0  0  0  0
    0.8565   -2.7466    0.0000 C   0  0  0  0  0  0  0  0  0  0  0  0
   -0.1236   -2.9608    0.0000 C   0  0  0  0  0  0  0  0  0  0  0  0
   -2.5726    1.7548    0.0000 C   0  0  0  0  0  0  0  0  0  0  0  0
    4.7547   -0.4952    0.0000 C   0  0  0  0  0  0  0  0  0  0  0  0
    3.4547   -2.7468    0.0000 C   0  0  0  0  0  0  0  0  0  0  0  0
   -2.5719   -2.7468    0.0000 C   0  0  0  0  0  0  0  0  0  0  0  0
   -3.8719   -0.4952    0.0000 C   0  0  0  0  0  0  0  0  0  0  0  0
    4.7542   -1.9960    0.0000 C   0  0  0  0  0  0  0  0  0  0  0  0
   -3.8714   -1.9960    0.0000 C   0  0  0  0  0  0  0  0  0  0  0  0
    3.4557    0.2548    0.0000 C   0  0  0  0  0  0  0  0  0  0  0  0
    2.1557   -1.9968    0.0000 C   0  0  0  0  0  0  0  0  0  0  0  0
   -1.2728   -1.9968    0.0000 C   0  0  0  0  0  0  0  0  0  0  0  0
   -2.5728    0.2548    0.0000 C   0  0  0  0  0  0  0  0  0  0  0  0
    2.1561   -0.4960    0.0000 C   0  0  0  0  0  0  0  0  0  0  0  0
   -1.2733   -0.4960    0.0000 C   0  0  0  0  0  0  0  0  0  0  0  0
    1.4056    1.6431    0.0000 Cl  0  0  0  0  0  0  0  0  0  0  0  0
   -0.5228    1.6431    0.0000 Cl  0  0  0  0  0  0  0  0  0  0  0  0
    0.4414    0.4940    0.0000 Si  0  0  0  0  0  4  0  0  0  0  0  0
 11  1  1  0
 11  7  2  0
 11  8  1  0
 12  2  1  0
 12  9  2  0
 12 10  1  0
 13  3  1  0
 13  7  1  0
 14  4  1  0
 14  8  2  0
 15  5  1  0
 15  9  1  0
 16  6  1  0
 16 10  2  0
 17 13  2  0
 17 14  1  0
 18 15  2  0
 18 16  1  0
 21 17  1  0
 21 18  1  0
 21 19  1  0
 21 20  1  0
M  END
>  <NAME>  (4739) 
DICHLORODIMESITYLSILANE

>  <SYNONYMS>  (4739) 
DICHLOROBIS(2,4,6-TRIMETHYLPHENYL)SILANE

>  <SPECTRUM TYPE>  (4739) 
MS1

>  <INSTRUMENT TYPE>  (4739) 
EI-B

>  <INSTRUMENT>  (4739) 
JEOL JMS-D-3000

>  <ION MODE>  (4739) 
P

>  <INCHIKEY>  (4739) 
RUSBLLCPBKKDKQ-UHFFFAOYSA-N

>  <FORMULA>  (4739) 
C18H22Cl2Si

>  <EXACT MASS>  (4739) 
336.086782594

>  <MW>  (4739) 
336

>  <ID>  (4739) 
JP004818

>  <CONTRIBUTOR>  (4739) 
University of Tokyo Team, {Faculty of Engineering, University of Tokyo

>  <COMMENT>  (4739) 
SMILES=Cc(c2)cc(C)c(c(C)2)[Si](Cl)(Cl)c(c(C)1)c(C)cc(C)c1
cas=5599-27-9
InChI=InChI=1S/C18H22Cl2Si/c1-11-7-13(3)17(14(4)8-11)21(19,20)18-15(5)9-12(2)10-16(18)6/h7-10H,1-6H3
computed SMILES=Cl[Si](Cl)(C=1C(=CC(=CC1C)C)C)C=2C(=CC(=CC2C)C)C
accession=JP004818
date=2016.01.19 (Created 2008.10.21, modified 2011.05.06)
author=MASS SPECTROSCOPY SOC. OF JAPAN (MSSJ)
license=CC BY-NC-SA
exact mass=336.08678
ionization energy=70 eV
ion type=[M]+*
computed spectral entropy=2.5964536076496842
computed normalized entropy=0.7087238754103391
SPLASH=splash10-00di-0911000000-bb3c70fe13b413465900
submitter=submitter = University of Tokyo Team (Faculty of Engineering, University of Tokyo)
MoNA Rating=3.75

>  <NUM PEAKS>  (4739) 
39

>  <MASS SPECTRAL PEAKS>  (4739) 
40 1.16
63 1.47
65 1.3
77 2.96
78 1.17
79 1.39
91 5.38
103 3.26
104 1.55
105 17.29
106 1.55
115 2.98
116 1.09
117 6.71
118 15.04
119 9.33
120 99.99
121 10.5
150 1.81
179 1.04
180 3.91
181 2.03
182 1.55
201 1.05
216 9.48
217 2.22
218 6.66
219 1.44
220 1.54
285 1.06
321 15.65
322 3.75
323 10.88
324 2.49
325 2.21
336 1.44
337 0.37
338 0.98
339 0.28

$$$$

     RDKit          2D

 16 16  0  0  0  0  0  0  0  0999 V2000
   -3.4853    0.9877    0.0000 C   0  0  0  0  0  0  0  0  0  0  0  0
   -0.8875   -3.5131    0.0000 C   0  0  0  0  0  0  0  0  0  0  0  0
    1.7114    0.9884    0.0000 C   0  0  0  0  0  0  0  0  0  0  0  0
    3.7599   -2.5613    0.0000 C   0  0  0  0  0  0  0  0  0  0  0  0
    4.3089   -0.5123    0.0000 C   0  0  0  0  0  0  0  0  0  0  0  0
    2.2599    0.0368    0.0000 C   0  0  0  0  0  0  0  0  0  0  0  0
   -2.1868   -1.2631    0.0000 C   0  0  0  0  0  0  0  0  0  0  0  0
   -0.8868    0.9886    0.0000 C   0  0  0  0  0  0  0  0  0  0  0  0
   -2.1863    0.2377    0.0000 C   0  0  0  0  0  0  0  0  0  0  0  0
   -0.8877   -2.0131    0.0000 C   0  0  0  0  0  0  0  0  0  0  0  0
    0.4123    0.2386    0.0000 C   0  0  0  0  0  0  0  0  0  0  0  0
    0.4118   -1.2623    0.0000 C   0  0  0  0  0  0  0  0  0  0  0  0
    3.0099   -1.2623    0.0000 C   0  0  0  0  0  0  0  0  0  0  0  0
    0.7466   -3.1613    0.0000 Cl  0  0  0  0  0  0  0  0  0  0  0  0
    2.6750   -3.1613    0.0000 Cl  0  0  0  0  0  0  0  0  0  0  0  0
    1.7108   -2.0123    0.0000 Si  0  0  0  0  0  4  0  0  0  0  0  0
  9  1  1  0
  9  7  2  0
  9  8  1  0
 10  2  1  0
 10  7  1  0
 11  3  1  0
 11  8  2  0
 12 10  2  0
 12 11  1  0
 13  4  1  0
 13  5  1  0
 13  6  1  0
 16 12  1  0
 16 13  1  0
 16 14  1  0
 16 15  1  0
M  END
>  <NAME>  (4740) 
TERT-BUTYLDICHLOROMESITYLSILANE

>  <SYNONYMS>  (4740) 


>  <SPECTRUM TYPE>  (4740) 
MS1

>  <INSTRUMENT TYPE>  (4740) 
EI-B

>  <INSTRUMENT>  (4740) 
JEOL JMS-D-3000

>  <ION MODE>  (4740) 
P

>  <INCHIKEY>  (4740) 
AGBTWRCKSJZBSE-UHFFFAOYSA-N

>  <FORMULA>  (4740) 
C13H20Cl2Si

>  <EXACT MASS>  (4740) 
274.07113253

>  <MW>  (4740) 
274

>  <ID>  (4740) 
JP004817

>  <CONTRIBUTOR>  (4740) 
University of Tokyo Team, {Faculty of Engineering, University of Tokyo

>  <COMMENT>  (4740) 
SMILES=Cc(c1)cc(C)c(c(C)1)[Si](Cl)(Cl)C(C)(C)C
InChI=InChI=1S/C13H20Cl2Si/c1-9-7-10(2)12(11(3)8-9)16(14,15)13(4,5)6/h7-8H,1-6H3
computed SMILES=Cl[Si](Cl)(C=1C(=CC(=CC1C)C)C)C(C)(C)C
accession=JP004817
date=2016.01.19 (Created 2008.10.21, modified 2011.05.06)
author=MASS SPECTROSCOPY SOC. OF JAPAN (MSSJ)
license=CC BY-NC-SA
exact mass=274.07113
ionization energy=70 eV
ion type=[M]+*
computed spectral entropy=3.177786448640346
computed normalized entropy=0.7670005101205198
SPLASH=splash10-00ri-1931000000-782fc32f1030b72bd767
submitter=submitter = University of Tokyo Team (Faculty of Engineering, University of Tokyo)
MoNA Rating=3.75

>  <NUM PEAKS>  (4740) 
63

>  <MASS SPECTRAL PEAKS>  (4740) 
40 3.92
51 2.69
52 1.18
53 2.92
63 1.49
65 3.52
77 8.77
78 3.43
79 3.99
81 1.56
89 2.45
91 15.22
92 2.14
93 1.48
96 1.46
102 2.25
103 9.38
104 4.45
105 45.13
106 4.38
115 8.34
116 2.78
117 15.17
118 36.92
119 43.51
120 89.32
121 9.24
128 1.6
129 1.35
132 1.98
133 1.03
137 1.01
143 2.09
152 2.64
165 2.08
169 7.09
170 1.09
178 1.47
179 1.25
183 4.27
184 23.11
185 17.35
186 3.22
189 1.15
191 2.01
192 2.09
193 1.68
205 1.4
206 2.09
207 2.97
208 1.18
221 3.21
222 1.34
223 4.21
238 2.43
273 1.81
274 1.6
289 99.99
290 24.47
291 6.17
304 41.34
305 10.47
306 2.67

$$$$

     RDKit          2D

 13 13  0  0  0  0  0  0  0  0999 V2000
    3.2476    1.1250    0.0000 C   0  0  0  0  0  0  0  0  0  0  0  0
   -1.9492    1.1256    0.0000 C   0  0  0  0  0  0  0  0  0  0  0  0
    0.6498   -3.3758    0.0000 C   0  0  0  0  0  0  0  0  0  0  0  0
    0.6490    1.1258    0.0000 C   0  0  0  0  0  0  0  0  0  0  0  0
    1.9490   -1.1258    0.0000 C   0  0  0  0  0  0  0  0  0  0  0  0
    1.9486    0.3750    0.0000 C   0  0  0  0  0  0  0  0  0  0  0  0
   -0.6500    0.3758    0.0000 C   0  0  0  0  0  0  0  0  0  0  0  0
    0.6500   -1.8758    0.0000 C   0  0  0  0  0  0  0  0  0  0  0  0
   -0.6495   -1.1250    0.0000 C   0  0  0  0  0  0  0  0  0  0  0  0
   -2.6986   -0.5760    0.0000 Cl  0  0  0  0  0  0  0  0  0  0  0  0
   -3.2476   -2.6250    0.0000 Cl  0  0  0  0  0  0  0  0  0  0  0  0
   -1.1986   -3.1740    0.0000 Cl  0  0  0  0  0  0  0  0  0  0  0  0
   -1.9486   -1.8750    0.0000 Si  0  0  0  0  0  4  0  0  0  0  0  0
  6  1  1  0
  6  4  2  0
  6  5  1  0
  7  2  1  0
  7  4  1  0
  8  3  1  0
  8  5  2  0
  9  7  2  0
  9  8  1  0
 13  9  1  0
 13 10  1  0
 13 11  1  0
 13 12  1  0
M  END
>  <NAME>  (4741) 
TRICHLOROMESITYLSILANE

>  <SYNONYMS>  (4741) 


>  <SPECTRUM TYPE>  (4741) 
MS1

>  <INSTRUMENT TYPE>  (4741) 
EI-B

>  <INSTRUMENT>  (4741) 
JEOL JMS-D-3000

>  <ION MODE>  (4741) 
P

>  <INCHIKEY>  (4741) 
DNKIGCMPHGFTRD-UHFFFAOYSA-N

>  <FORMULA>  (4741) 
C9H11Cl3Si

>  <EXACT MASS>  (4741) 
251.96955992199997

>  <MW>  (4741) 
252

>  <ID>  (4741) 
JP004816

>  <CONTRIBUTOR>  (4741) 
University of Tokyo Team, {Faculty of Engineering, University of Tokyo

>  <COMMENT>  (4741) 
SMILES=Cc(c1)cc(C)c(c(C)1)[Si](Cl)(Cl)Cl
InChI=InChI=1S/C9H11Cl3Si/c1-6-4-7(2)9(8(3)5-6)13(10,11)12/h4-5H,1-3H3
computed SMILES=Cl[Si](Cl)(Cl)C=1C(=CC(=CC1C)C)C
accession=JP004816
date=2016.01.19 (Created 2008.10.21, modified 2011.05.06)
author=MASS SPECTROSCOPY SOC. OF JAPAN (MSSJ)
license=CC BY-NC-SA
exact mass=251.96956
ionization energy=70 eV
ion type=[M]+*
computed spectral entropy=3.034826114537761
computed normalized entropy=0.775768984570585
SPLASH=splash10-014i-2960000000-e9c9ed2a8b319a967d91
submitter=submitter = University of Tokyo Team (Faculty of Engineering, University of Tokyo)
MoNA Rating=3.75

>  <NUM PEAKS>  (4741) 
50

>  <MASS SPECTRAL PEAKS>  (4741) 
40 1.35
50 1.38
51 3.93
52 1.66
53 2.32
63 3.33
65 3.29
77 7.21
78 2.72
79 1.98
89 1.47
90 1.51
91 10.95
92 1.12
102 1.8
103 5.34
104 2.72
105 1.09
108 2.04
109 1.35
115 6.5
116 1.92
117 8.57
118 27.04
119 99.99
120 10.22
133 3.29
135 3.17
137 1.42
165 1.21
179 1.22
180 7.08
181 1.86
182 2.56
201 2.54
203 1.73
216 26.29
217 6.14
218 18.44
219 3.81
220 3.69
237 1.62
239 1.66
252 26.53
253 4.85
254 26.4
255 4.32
256 9.44
257 1.4
258 1.32

$$$$

     RDKit          2D

 21 21  0  0  0  0  0  0  0  0999 V2000
    3.1483   -0.5487    0.0000 C   0  0  0  0  0  0  0  0  0  0  0  0
    5.1972    0.0006    0.0000 C   0  0  0  0  0  0  0  0  0  0  0  0
    4.6479    2.0496    0.0000 C   0  0  0  0  0  0  0  0  0  0  0  0
   -5.9472   -0.2017    0.0000 C   0  0  0  0  0  0  0  0  0  0  0  0
   -6.4959   -2.2508    0.0000 C   0  0  0  0  0  0  0  0  0  0  0  0
   -4.4468   -2.7995    0.0000 C   0  0  0  0  0  0  0  0  0  0  0  0
    3.5629    2.6494    0.0000 C   0  0  0  0  0  0  0  0  0  0  0  0
    1.6346    2.6491    0.0000 C   0  0  0  0  0  0  0  0  0  0  0  0
   -2.9341    0.3988    0.0000 C   0  0  0  0  0  0  0  0  0  0  0  0
   -4.8624    0.3985    0.0000 C   0  0  0  0  0  0  0  0  0  0  0  0
   -1.3000    0.7500    0.0000 C   0  0  0  0  0  0  0  0  0  0  0  0
   -0.0000   -1.5000    0.0000 C   0  0  0  0  0  0  0  0  0  0  0  0
    0.0000    1.5000    0.0000 C   0  0  0  0  0  0  0  0  0  0  0  0
    1.3000   -0.7500    0.0000 C   0  0  0  0  0  0  0  0  0  0  0  0
   -1.3000   -0.7500    0.0000 C   0  0  0  0  0  0  0  0  0  0  0  0
    1.3000    0.7500    0.0000 C   0  0  0  0  0  0  0  0  0  0  0  0
   -2.5989   -1.5002    0.0000 O   0  0  0  0  0  0  0  0  0  0  0  0
    3.8981    0.7504    0.0000 Si  0  0  0  0  0  4  0  0  0  0  0  0
   -5.1970   -1.5006    0.0000 Si  0  0  0  0  0  4  0  0  0  0  0  0
    2.5989    1.5002    0.0000 Si  0  0  0  0  0  4  0  0  0  0  0  0
   -3.8981   -0.7504    0.0000 Si  0  0  0  0  0  4  0  0  0  0  0  0
 13 11  2  0
 14 12  1  0
 15 11  1  0
 15 12  2  0
 16 13  1  0
 16 14  2  0
 17 15  1  0
 18  1  1  0
 18  2  1  0
 18  3  1  0
 19  4  1  0
 19  5  1  0
 19  6  1  0
 20  7  1  0
 20  8  1  0
 20 16  1  0
 20 18  1  0
 21  9  1  0
 21 10  1  0
 21 17  1  0
 21 19  1  0
M  END
>  <NAME>  (4742) 
1-PENTAMETHYLDISILANYLOXY-4-PENTAMETHYLDISILANYLBENZENE

>  <SYNONYMS>  (4742) 


>  <SPECTRUM TYPE>  (4742) 
MS1

>  <INSTRUMENT TYPE>  (4742) 
EI-B

>  <INSTRUMENT>  (4742) 
JEOL JMS-D-3000

>  <ION MODE>  (4742) 
P

>  <INCHIKEY>  (4742) 
YAOOGXJXOIJGSB-UHFFFAOYSA-N

>  <FORMULA>  (4742) 
C16H34OSi4

>  <EXACT MASS>  (4742) 
354.16867182799996

>  <MW>  (4742) 
354

>  <ID>  (4742) 
JP004815

>  <CONTRIBUTOR>  (4742) 
University of Tokyo Team, {Faculty of Engineering, University of Tokyo

>  <COMMENT>  (4742) 
SMILES=C[Si](C)(C)[Si](C)(C)Oc(c1)ccc(c1)[Si](C)(C)[Si](C)(C)C
InChI=InChI=1S/C16H34OSi4/c1-18(2,3)20(7,8)16-13-11-15(12-14-16)17-21(9,10)19(4,5)6/h11-14H,1-10H3
computed SMILES=O(C1=CC=C(C=C1)[Si](C)(C)[Si](C)(C)C)[Si](C)(C)[Si](C)(C)C
accession=JP004815
date=2016.01.19 (Created 2008.10.21, modified 2011.05.06)
author=MASS SPECTROSCOPY SOC. OF JAPAN (MSSJ)
license=CC BY-NC-SA
exact mass=354.16867
ionization energy=70 eV
ion type=[M]+*
computed spectral entropy=2.4948430224325757
computed normalized entropy=0.7074838222062207
SPLASH=splash10-00di-9720000000-26cfb8f211aa5dc4c063
submitter=submitter = University of Tokyo Team (Faculty of Engineering, University of Tokyo)
MoNA Rating=3.75

>  <NUM PEAKS>  (4742) 
34

>  <MASS SPECTRAL PEAKS>  (4742) 
43 2.67
45 6.58
59 2.83
73 99.99
74 8.51
75 4.69
83 1.22
116 3.01
117 1.73
119 2.73
121 1.38
131 22.21
132 3.55
133 3
134 1.94
135 1.4
145 1.06
147 8.24
148 1.8
149 2.99
151 1.24
192 2.98
193 32.92
194 6.93
195 3.05
205 1.14
207 3.35
223 5.4
224 1.19
251 1.22
281 11.86
282 3.49
283 1.67
354 1.93

$$$$

     RDKit          2D

 18 19  0  0  0  0  0  0  0  0999 V2000
    4.5466    2.1950    0.0000 C   0  0  0  0  0  0  0  0  0  0  0  0
   -7.1447    5.9450    0.0000 C   0  0  0  0  0  0  0  0  0  0  0  0
    4.5471    3.6958    0.0000 C   0  0  0  0  0  0  0  0  0  0  0  0
    3.2471    1.4442    0.0000 C   0  0  0  0  0  0  0  0  0  0  0  0
   -7.1452    4.4442    0.0000 C   0  0  0  0  0  0  0  0  0  0  0  0
   -5.8452    6.6958    0.0000 C   0  0  0  0  0  0  0  0  0  0  0  0
    3.2481    4.4458    0.0000 C   0  0  0  0  0  0  0  0  0  0  0  0
    1.9481    2.1942    0.0000 C   0  0  0  0  0  0  0  0  0  0  0  0
   -5.8462    3.6942    0.0000 C   0  0  0  0  0  0  0  0  0  0  0  0
   -4.5462    5.9458    0.0000 C   0  0  0  0  0  0  0  0  0  0  0  0
   -0.6495    3.6950    0.0000 C   0  0  0  0  0  0  0  0  0  0  0  0
   -1.9486    4.4450    0.0000 C   0  0  0  0  0  0  0  0  0  0  0  0
    1.9486    3.6950    0.0000 C   0  0  0  0  0  0  0  0  0  0  0  0
   -4.5466    4.4450    0.0000 C   0  0  0  0  0  0  0  0  0  0  0  0
    0.6495    4.4450    0.0000 C   0  0  0  0  0  0  0  0  0  0  0  0
   -3.2476    3.6950    0.0000 C   0  0  0  0  0  0  0  0  0  0  0  0
    0.6495    5.9450    0.0000 O   0  0  0  0  0  0  0  0  0  0  0  0
   -3.2476    2.1950    0.0000 O   0  0  0  0  0  0  0  0  0  0  0  0
  3  1  2  0
  4  1  1  0
  5  2  2  0
  6  2  1  0
  7  3  1  0
  8  4  2  0
  9  5  1  0
 10  6  2  0
 12 11  1  0
 13  7  2  0
 13  8  1  0
 14  9  2  0
 14 10  1  0
 15 11  1  0
 15 13  1  0
 16 12  1  0
 16 14  1  0
 17 15  2  0
 18 16  2  0
M  END
>  <NAME>  (4743) 
1,4-DIPHENYLBUTANE-1,4-DIONE

>  <SYNONYMS>  (4743) 


>  <SPECTRUM TYPE>  (4743) 
MS1

>  <INSTRUMENT TYPE>  (4743) 
EI-B

>  <INSTRUMENT>  (4743) 
JEOL JMS-D-3000

>  <ION MODE>  (4743) 
P

>  <INCHIKEY>  (4743) 
OSWWFLDIIGGSJV-UHFFFAOYSA-N

>  <FORMULA>  (4743) 
C16H14O2

>  <EXACT MASS>  (4743) 
238.099379688

>  <MW>  (4743) 
238

>  <ID>  (4743) 
JP004814

>  <CONTRIBUTOR>  (4743) 
University of Tokyo Team, {Faculty of Engineering, University of Tokyo

>  <COMMENT>  (4743) 
SMILES=O=C(CCC(=O)c(c2)cccc2)c(c1)cccc1
InChI=InChI=1S/C16H14O2/c17-15(13-7-3-1-4-8-13)11-12-16(18)14-9-5-2-6-10-14/h1-10H,11-12H2
computed SMILES=O=C(C=1C=CC=CC1)CCC(=O)C=2C=CC=CC2
accession=JP004814
date=2016.01.19 (Created 2008.10.21, modified 2011.05.06)
author=MASS SPECTROSCOPY SOC. OF JAPAN (MSSJ)
license=CC BY-NC-SA
exact mass=238.09938
ionization energy=70 eV
ion type=[M]+*
computed spectral entropy=1.5535548481719286
computed normalized entropy=0.6251964629353259
SPLASH=splash10-0a4i-3910000000-201eacae0824c53c4519
submitter=submitter = University of Tokyo Team (Faculty of Engineering, University of Tokyo)
MoNA Rating=3.75

>  <NUM PEAKS>  (4743) 
12

>  <MASS SPECTRAL PEAKS>  (4743) 
50 1.63
51 7.73
55 2.24
76 1.1
77 31.59
78 2.37
105 99.99
106 8.06
133 10.81
134 1.07
238 15.68
239 2.83

$$$$

     RDKit          2D

 18 18  0  0  0  0  0  0  0  0999 V2000
   -3.1483    0.5487    0.0000 C   0  0  0  0  0  0  0  0  0  0  0  0
   -5.1972   -0.0006    0.0000 C   0  0  0  0  0  0  0  0  0  0  0  0
   -4.6479   -2.0496    0.0000 C   0  0  0  0  0  0  0  0  0  0  0  0
    3.1483   -0.5487    0.0000 C   0  0  0  0  0  0  0  0  0  0  0  0
    5.1972    0.0006    0.0000 C   0  0  0  0  0  0  0  0  0  0  0  0
    4.6479    2.0496    0.0000 C   0  0  0  0  0  0  0  0  0  0  0  0
    3.5629    2.6494    0.0000 C   0  0  0  0  0  0  0  0  0  0  0  0
    1.6346    2.6491    0.0000 C   0  0  0  0  0  0  0  0  0  0  0  0
   -1.3000    0.7500    0.0000 C   0  0  0  0  0  0  0  0  0  0  0  0
    0.0000   -1.5000    0.0000 C   0  0  0  0  0  0  0  0  0  0  0  0
    0.0000    1.5000    0.0000 C   0  0  0  0  0  0  0  0  0  0  0  0
    1.3000   -0.7500    0.0000 C   0  0  0  0  0  0  0  0  0  0  0  0
   -1.3000   -0.7500    0.0000 C   0  0  0  0  0  0  0  0  0  0  0  0
    1.3000    0.7500    0.0000 C   0  0  0  0  0  0  0  0  0  0  0  0
   -2.5989   -1.5002    0.0000 O   0  0  0  0  0  0  0  0  0  0  0  0
   -3.8981   -0.7504    0.0000 Si  0  0  0  0  0  4  0  0  0  0  0  0
    3.8981    0.7504    0.0000 Si  0  0  0  0  0  4  0  0  0  0  0  0
    2.5989    1.5002    0.0000 Si  0  0  0  0  0  4  0  0  0  0  0  0
 11  9  2  0
 12 10  1  0
 13  9  1  0
 13 10  2  0
 14 11  1  0
 14 12  2  0
 15 13  1  0
 16  1  1  0
 16  2  1  0
 16  3  1  0
 16 15  1  0
 17  4  1  0
 17  5  1  0
 17  6  1  0
 18  7  1  0
 18  8  1  0
 18 14  1  0
 18 17  1  0
M  END
>  <NAME>  (4744) 
1-PENTAMETHYLDISILANYL-4-TRIMETHYLSILOXYBENZENE

>  <SYNONYMS>  (4744) 


>  <SPECTRUM TYPE>  (4744) 
MS1

>  <INSTRUMENT TYPE>  (4744) 
EI-B

>  <INSTRUMENT>  (4744) 
JEOL JMS-D-3000

>  <ION MODE>  (4744) 
P

>  <INCHIKEY>  (4744) 
NPRHWBLCHAPWGX-UHFFFAOYSA-N

>  <FORMULA>  (4744) 
C14H28OSi3

>  <EXACT MASS>  (4744) 
296.144795106

>  <MW>  (4744) 
296

>  <ID>  (4744) 
JP004813

>  <CONTRIBUTOR>  (4744) 
University of Tokyo Team, {Faculty of Engineering, University of Tokyo

>  <COMMENT>  (4744) 
SMILES=C[Si](C)(C)Oc(c1)ccc(c1)[Si](C)(C)[Si](C)(C)C
InChI=InChI=1S/C14H28OSi3/c1-16(2,3)15-13-9-11-14(12-10-13)18(7,8)17(4,5)6/h9-12H,1-8H3
computed SMILES=O(C1=CC=C(C=C1)[Si](C)(C)[Si](C)(C)C)[Si](C)(C)C
accession=JP004813
date=2016.01.19 (Created 2008.10.21, modified 2011.05.06)
author=MASS SPECTROSCOPY SOC. OF JAPAN (MSSJ)
license=CC BY-NC-SA
exact mass=296.1448
ionization energy=70 eV
ion type=[M]+*
computed spectral entropy=2.3495031192738223
computed normalized entropy=0.6841909941321638
SPLASH=splash10-00di-3390000000-6146b8252127d27f4bd6
submitter=submitter = University of Tokyo Team (Faculty of Engineering, University of Tokyo)
MoNA Rating=3.75

>  <NUM PEAKS>  (4744) 
31

>  <MASS SPECTRAL PEAKS>  (4744) 
43 1.15
45 4.77
59 1.96
73 46.81
74 4.13
75 2.64
83 1.08
119 1.97
121 1.42
131 2.22
133 2.28
134 1.9
135 1.38
147 5.34
148 1.41
149 2.35
179 2.16
193 31.96
194 6.52
195 2.96
207 2.78
208 1.39
223 99.99
224 22.2
225 9.2
226 1.42
281 7.8
282 2.35
283 1.07
296 4.79
297 1.45

$$$$

     RDKit          2D

 15 16  0  0  0  0  0  0  0  0999 V2000
   -2.2746   -3.5637    0.0000 C   0  0  0  0  0  0  0  0  0  0  0  0
    5.5225   -3.5625    0.0000 C   0  0  0  0  0  0  0  0  0  0  0  0
   -2.2742   -2.0629    0.0000 C   0  0  0  0  0  0  0  0  0  0  0  0
   -0.9756   -4.3137    0.0000 C   0  0  0  0  0  0  0  0  0  0  0  0
    4.2225   -4.3125    0.0000 C   0  0  0  0  0  0  0  0  0  0  0  0
    5.5225   -2.0625    0.0000 C   0  0  0  0  0  0  0  0  0  0  0  0
   -0.9746   -1.3121    0.0000 C   0  0  0  0  0  0  0  0  0  0  0  0
    0.3239   -3.5629    0.0000 C   0  0  0  0  0  0  0  0  0  0  0  0
    2.9225   -3.5625    0.0000 C   0  0  0  0  0  0  0  0  0  0  0  0
    4.2225   -1.3125    0.0000 C   0  0  0  0  0  0  0  0  0  0  0  0
    1.6238    0.1877    0.0000 C   0  0  0  0  0  0  0  0  0  0  0  0
    0.3244   -2.0621    0.0000 C   0  0  0  0  0  0  0  0  0  0  0  0
    2.9225   -2.0625    0.0000 C   0  0  0  0  0  0  0  0  0  0  0  0
    2.9230    0.9375    0.0000 Cl  0  0  0  0  0  0  0  0  0  0  0  0
    1.6236   -1.3123    0.0000 Si  0  0  0  0  0  4  0  0  0  0  0  0
  3  1  2  0
  4  1  1  0
  5  2  2  0
  6  2  1  0
  7  3  1  0
  8  4  2  0
  9  5  1  0
 10  6  2  0
 12  7  2  0
 12  8  1  0
 13  9  2  0
 13 10  1  0
 14 11  1  0
 15 11  1  0
 15 12  1  0
 15 13  1  0
M  END
>  <NAME>  (4745) 
CHLOROMETHYLDIPHENYLSILANE

>  <SYNONYMS>  (4745) 


>  <SPECTRUM TYPE>  (4745) 
MS1

>  <INSTRUMENT TYPE>  (4745) 
EI-B

>  <INSTRUMENT>  (4745) 
JEOL JMS-D-3000

>  <ION MODE>  (4745) 
P

>  <INCHIKEY>  (4745) 
FEHFUPASEBBYRC-UHFFFAOYSA-N

>  <FORMULA>  (4745) 
C13H13ClSi

>  <EXACT MASS>  (4745) 
232.04750462599998

>  <MW>  (4745) 
232

>  <ID>  (4745) 
JP004812

>  <CONTRIBUTOR>  (4745) 
University of Tokyo Team, {Faculty of Engineering, University of Tokyo

>  <COMMENT>  (4745) 
computed SMILES=ClC[SiH](C=1C=CC=CC1)C=2C=CC=CC2
SMILES=ClC[SiH](c(c2)cccc2)c(c1)cccc1
cas=144-79-6
InChI=InChI=1S/C13H13ClSi/c14-11-15(12-7-3-1-4-8-12)13-9-5-2-6-10-13/h1-10,15H,11H2
accession=JP004812
date=2016.01.19 (Created 2008.10.21, modified 2011.05.06)
author=MASS SPECTROSCOPY SOC. OF JAPAN (MSSJ)
license=CC BY-NC-SA
exact mass=232.0475
ionization energy=70 eV
ion type=[M]+*
computed spectral entropy=2.416639900093657
computed normalized entropy=0.703741672926816
SPLASH=splash10-014i-0190000000-1b0267478f413db1d85c
submitter=submitter = University of Tokyo Team (Faculty of Engineering, University of Tokyo)
MoNA Rating=3.75

>  <NUM PEAKS>  (4745) 
31

>  <MASS SPECTRAL PEAKS>  (4745) 
51 1.34
63 5.33
65 1.92
77 1.38
91 5.52
98 4.01
103 1.14
105 1.7
139 1.3
152 2.2
153 1.29
154 3.83
155 9.83
156 1.3
157 2.92
165 1.37
180 2.22
181 7.7
182 1.52
195 1.22
199 2.63
215 2.52
217 99.99
218 18.8
219 37.23
220 6.73
221 1.62
232 25.61
233 5.23
234 9.8
235 1.79

$$$$

     RDKit          2D

 18 18  0  0  0  0  0  0  0  0999 V2000
    1.4772    1.2395    0.0000 C   0  0  0  0  0  0  0  0  0  0  0  0
    0.5130    2.9095    0.0000 C   0  0  0  0  0  0  0  0  0  0  0  0
    0.5130   -1.4095    0.0000 C   0  0  0  0  0  0  0  0  0  0  0  0
    1.4772    0.2605    0.0000 C   0  0  0  0  0  0  0  0  0  0  0  0
   -0.3349    3.3991    0.0000 C   0  0  0  0  0  0  0  0  0  0  0  0
   -2.2632    3.3991    0.0000 C   0  0  0  0  0  0  0  0  0  0  0  0
   -2.2632   -1.8991    0.0000 C   0  0  0  0  0  0  0  0  0  0  0  0
   -0.3349   -1.8991    0.0000 C   0  0  0  0  0  0  0  0  0  0  0  0
   -3.1111    2.9095    0.0000 C   0  0  0  0  0  0  0  0  0  0  0  0
   -4.0753    1.2395    0.0000 C   0  0  0  0  0  0  0  0  0  0  0  0
   -4.0753    0.2605    0.0000 C   0  0  0  0  0  0  0  0  0  0  0  0
   -3.1111   -1.4095    0.0000 C   0  0  0  0  0  0  0  0  0  0  0  0
    0.0000    1.5000    0.0000 Si  0  0  0  0  0  4  0  0  0  0  0  0
    0.0000    0.0000    0.0000 Si  0  0  0  0  0  4  0  0  0  0  0  0
   -1.2990    2.2500    0.0000 Si  0  0  0  0  0  4  0  0  0  0  0  0
   -1.2990   -0.7500    0.0000 Si  0  0  0  0  0  4  0  0  0  0  0  0
   -2.5981    1.5000    0.0000 Si  0  0  0  0  0  4  0  0  0  0  0  0
   -2.5981   -0.0000    0.0000 Si  0  0  0  0  0  4  0  0  0  0  0  0
 13  1  1  0
 13  2  1  0
 14  3  1  0
 14  4  1  0
 14 13  1  0
 15  5  1  0
 15  6  1  0
 15 13  1  0
 16  7  1  0
 16  8  1  0
 16 14  1  0
 17  9  1  0
 17 10  1  0
 17 15  1  0
 18 11  1  0
 18 12  1  0
 18 16  1  0
 18 17  1  0
M  END
>  <NAME>  (4746) 
DODECAMETHYLCYCLOHEXASILANE

>  <SYNONYMS>  (4746) 


>  <SPECTRUM TYPE>  (4746) 
MS1

>  <INSTRUMENT TYPE>  (4746) 
EI-B

>  <INSTRUMENT>  (4746) 
JEOL JMS-D-3000

>  <ION MODE>  (4746) 
P

>  <INCHIKEY>  (4746) 
RTCLHEHPUHREBC-UHFFFAOYSA-N

>  <FORMULA>  (4746) 
C12H36Si6

>  <EXACT MASS>  (4746) 
348.14326033199995

>  <MW>  (4746) 
348

>  <ID>  (4746) 
JP004811

>  <CONTRIBUTOR>  (4746) 
University of Tokyo Team, {Faculty of Engineering, University of Tokyo

>  <COMMENT>  (4746) 
SMILES=C[Si](C)([Si](C)(C)1)[Si](C)(C)[Si](C)(C)[Si](C)(C)[Si](C)(C)1
cas=4098-30-0
InChI=InChI=1S/C12H36Si6/c1-13(2)14(3,4)16(7,8)18(11,12)17(9,10)15(13,5)6/h1-12H3
computed SMILES=C[Si]1(C)[Si](C)(C)[Si](C)(C)[Si](C)(C)[Si](C)(C)[Si]1(C)C
accession=JP004811
date=2016.01.19 (Created 2008.10.21, modified 2011.05.06)
author=MASS SPECTROSCOPY SOC. OF JAPAN (MSSJ)
license=CC BY-NC-SA
exact mass=348.14326
ionization energy=70 eV
ion type=[M]+*
computed spectral entropy=3.6652619383832152
computed normalized entropy=0.83174391939279
SPLASH=splash10-0fka-7793000000-e80b0e76db7faf0ac099
submitter=submitter = University of Tokyo Team (Faculty of Engineering, University of Tokyo)
MoNA Rating=3.75

>  <NUM PEAKS>  (4746) 
82

>  <MASS SPECTRAL PEAKS>  (4746) 
43 3.67
44 1.01
45 9.25
59 13.95
60 1.07
69 1.4
71 1.14
73 99.99
74 8.55
75 3.86
85 2.95
87 1
99 7.64
100 1.57
101 4.46
103 1.08
111 1.44
113 5.9
114 1.25
115 7.11
116 3.22
117 3.74
125 6.02
126 1.52
127 4.56
128 1.29
129 7.32
130 1.24
131 7.22
132 1.08
141 5.39
142 1.7
143 6.57
144 1.49
145 2.7
155 2.66
157 13.1
158 3.31
159 4.85
160 1.03
169 1.49
171 8.04
172 1.93
173 4.17
174 1.09
183 1.69
185 6.51
186 5.03
187 5.38
188 1.77
197 1.73
199 12.17
200 6.81
201 46.78
202 13.88
203 8.04
204 1.85
213 5.06
214 1.78
215 26.74
216 8.43
217 7.67
218 1.95
229 2.52
231 1
245 1.42
257 1.42
259 14.32
260 7.46
261 3.91
262 1.4
273 2.71
274 3.63
275 7.7
276 2.96
277 1.66
330 1.17
348 33.9
349 14.93
350 9.82
351 3.06
352 1.05

$$$$

     RDKit          2D

 14 13  0  0  0  0  0  0  0  0999 V2000
    1.7205   -0.6081    0.0000 C   0  0  0  0  0  0  0  0  0  0  0  0
    0.2205    1.9900    0.0000 C   0  0  0  0  0  0  0  0  0  0  0  0
   -0.3286   -0.0591    0.0000 C   0  0  0  0  0  0  0  0  0  0  0  0
    4.3186    2.8719    0.0000 C   0  0  0  0  0  0  0  0  0  0  0  0
    4.8676    4.9209    0.0000 C   0  0  0  0  0  0  0  0  0  0  0  0
    2.8186    5.4700    0.0000 C   0  0  0  0  0  0  0  0  0  0  0  0
    1.7205    5.4700    0.0000 C   0  0  0  0  0  0  0  0  0  0  0  0
   -0.3286    4.9209    0.0000 C   0  0  0  0  0  0  0  0  0  0  0  0
    0.2205    2.8719    0.0000 C   0  0  0  0  0  0  0  0  0  0  0  0
    2.2695    1.4409    0.0000 C   0  0  0  0  0  0  0  0  0  0  0  0
    2.2695    3.4209    0.0000 C   0  0  0  0  0  0  0  0  0  0  0  0
    0.9705    0.6909    0.0000 Si  0  0  0  0  0  4  0  0  0  0  0  0
    3.5686    4.1709    0.0000 Si  0  0  0  0  0  4  0  0  0  0  0  0
    0.9705    4.1709    0.0000 Si  0  0  0  0  0  4  0  0  0  0  0  0
 11 10  2  3
 12  1  1  0
 12  2  1  0
 12  3  1  0
 12 10  1  0
 13  4  1  0
 13  5  1  0
 13  6  1  0
 13 11  1  0
 14  7  1  0
 14  8  1  0
 14  9  1  0
 14 11  1  0
M  END
>  <NAME>  (4747) 
TRIS(TRIMETHYLSILYL)ETHYLENE

>  <SYNONYMS>  (4747) 


>  <SPECTRUM TYPE>  (4747) 
MS1

>  <INSTRUMENT TYPE>  (4747) 
EI-B

>  <INSTRUMENT>  (4747) 
JEOL JMS-D-3000

>  <ION MODE>  (4747) 
P

>  <INCHIKEY>  (4747) 
CUFNUQSBSOKXJH-UHFFFAOYSA-N

>  <FORMULA>  (4747) 
C11H28Si3

>  <EXACT MASS>  (4747) 
244.149880486

>  <MW>  (4747) 
244

>  <ID>  (4747) 
JP004810

>  <CONTRIBUTOR>  (4747) 
University of Tokyo Team, {Faculty of Engineering, University of Tokyo

>  <COMMENT>  (4747) 
SMILES=C[Si](C)(C)C=C([Si](C)(C)C)[Si](C)(C)C
InChI=InChI=1S/C11H28Si3/c1-12(2,3)10-11(13(4,5)6)14(7,8)9/h10H,1-9H3
computed SMILES=C(=C([Si](C)(C)C)[Si](C)(C)C)[Si](C)(C)C
accession=JP004810
date=2016.01.19 (Created 2008.10.21, modified 2011.05.06)
author=MASS SPECTROSCOPY SOC. OF JAPAN (MSSJ)
license=CC BY-NC-SA
exact mass=244.14988
ionization energy=70 eV
ion type=[M]+*
computed spectral entropy=1.9865428010888024
computed normalized entropy=0.674676165865453
SPLASH=splash10-00di-9400000000-2204b4256a6ae5c69de8
submitter=submitter = University of Tokyo Team (Faculty of Engineering, University of Tokyo)
MoNA Rating=3.75

>  <NUM PEAKS>  (4747) 
19

>  <MASS SPECTRAL PEAKS>  (4747) 
43 2.1
45 9.44
59 1.83
73 99.99
74 7.86
75 3.94
83 2.71
97 2.48
141 11.97
142 2.22
143 1.27
155 13.94
156 19.56
157 4.11
158 1.85
171 4.14
229 3.51
244 6.59
245 1.9

$$$$

     RDKit          2D

 13 13  0  0  0  0  0  0  0  0999 V2000
   -5.3834    4.1934    0.0000 C   0  0  0  0  0  0  0  0  0  0  0  0
   -5.9324    2.1443    0.0000 C   0  0  0  0  0  0  0  0  0  0  0  0
   -3.8834    1.5953    0.0000 C   0  0  0  0  0  0  0  0  0  0  0  0
    3.1608    1.3943    0.0000 C   0  0  0  0  0  0  0  0  0  0  0  0
    3.1613    2.8952    0.0000 C   0  0  0  0  0  0  0  0  0  0  0  0
    1.8613    0.6435    0.0000 C   0  0  0  0  0  0  0  0  0  0  0  0
    1.8623    3.6452    0.0000 C   0  0  0  0  0  0  0  0  0  0  0  0
    0.5623    1.3935    0.0000 C   0  0  0  0  0  0  0  0  0  0  0  0
   -0.7363    3.6443    0.0000 C   0  0  0  0  0  0  0  0  0  0  0  0
   -2.0353    2.8943    0.0000 C   0  0  0  0  0  0  0  0  0  0  0  0
    0.5627    2.8943    0.0000 C   0  0  0  0  0  0  0  0  0  0  0  0
   -3.3344    3.6443    0.0000 O   0  0  0  0  0  0  0  0  0  0  0  0
   -4.6334    2.8943    0.0000 Si  0  0  0  0  0  4  0  0  0  0  0  0
  5  4  2  0
  6  4  1  0
  7  5  1  0
  8  6  2  0
 10  9  1  0
 11  7  2  0
 11  8  1  0
 11  9  1  0
 12 10  1  0
 13  1  1  0
 13  2  1  0
 13  3  1  0
 13 12  1  0
M  END
>  <NAME>  (4748) 
1-PHENYL-2-TRIMETHYLSI1OXYETHANE

>  <SYNONYMS>  (4748) 


>  <SPECTRUM TYPE>  (4748) 
MS1

>  <INSTRUMENT TYPE>  (4748) 
EI-B

>  <INSTRUMENT>  (4748) 
JEOL JMS-D-3000

>  <ION MODE>  (4748) 
P

>  <INCHIKEY>  (4748) 
ZDEFWWOHFSCODL-UHFFFAOYSA-N

>  <FORMULA>  (4748) 
C11H18OSi

>  <EXACT MASS>  (4748) 
194.112691726

>  <MW>  (4748) 
194

>  <ID>  (4748) 
JP004809

>  <CONTRIBUTOR>  (4748) 
University of Tokyo Team, {Faculty of Engineering, University of Tokyo

>  <COMMENT>  (4748) 
SMILES=c(c1)ccc(c1)CCO[Si](C)(C)C
InChI=InChI=1S/C11H18OSi/c1-13(2,3)12-10-9-11-7-5-4-6-8-11/h4-8H,9-10H2,1-3H3
computed SMILES=O(CCC=1C=CC=CC1)[Si](C)(C)C
accession=JP004809
date=2016.01.19 (Created 2008.10.21, modified 2011.05.06)
author=MASS SPECTROSCOPY SOC. OF JAPAN (MSSJ)
license=CC BY-NC-SA
exact mass=194.11269
ionization energy=70 eV
ion type=[M]+*
computed spectral entropy=2.396489950334894
computed normalized entropy=0.7116956962894824
SPLASH=splash10-0fmi-9800000000-92a480bc5a3c44bfd70f
submitter=submitter = University of Tokyo Team (Faculty of Engineering, University of Tokyo)
MoNA Rating=3.75

>  <NUM PEAKS>  (4748) 
29

>  <MASS SPECTRAL PEAKS>  (4748) 
43 3.15
44 1.66
45 6.74
47 3.2
51 2.53
58 3.99
59 3.55
61 2.47
65 1.92
72 1.77
73 99.99
74 8.83
75 28.15
76 2.43
77 7.62
78 2.1
79 3.65
88 1.42
90 2.78
91 1.9
103 73.43
104 11.16
105 22.12
106 1.86
161 4.87
179 46.17
180 7.49
181 2.08
194 0.24

$$$$

     RDKit          2D

 15 14  0  0  0  0  0  0  0  0999 V2000
   -3.8568    2.0125    0.0000 C   0  0  0  0  0  0  0  0  0  0  0  0
   -2.7587    0.5125    0.0000 C   0  0  0  0  0  0  0  0  0  0  0  0
   -1.2587   -0.9875    0.0000 C   0  0  0  0  0  0  0  0  0  0  0  0
    0.7213    0.5125    0.0000 C   0  0  0  0  0  0  0  0  0  0  0  0
    0.7367   -0.8373    0.0000 C   0  0  0  0  0  0  0  0  0  0  0  0
    2.6411    1.3249    0.0000 C   0  0  0  0  0  0  0  0  0  0  0  0
    1.5077    3.5353    0.0000 C   0  0  0  0  0  0  0  0  0  0  0  0
    0.7903    2.5616    0.0000 C   0  0  0  0  0  0  0  0  0  0  0  0
    0.2413    4.6106    0.0000 C   0  0  0  0  0  0  0  0  0  0  0  0
   -1.8078    4.0616    0.0000 C   0  0  0  0  0  0  0  0  0  0  0  0
   -2.5578    2.7625    0.0000 O   0  0  0  0  0  0  0  0  0  0  0  0
   -1.2587    0.5125    0.0000 Si  0  0  0  0  0  4  0  0  0  0  0  0
    1.1639    1.5853    0.0000 Si  0  0  0  0  0  4  0  0  0  0  0  0
   -0.5087    3.3116    0.0000 Si  0  0  0  0  0  4  0  0  0  0  0  0
   -1.2587    2.0125    0.0000 Si  0  0  0  0  0  4  0  0  0  0  0  0
 11  1  1  0
 12  2  1  0
 12  3  1  0
 12  4  1  0
 13  5  1  0
 13  6  1  0
 13  7  1  0
 14  8  1  0
 14  9  1  0
 14 10  1  0
 15 11  1  0
 15 12  1  0
 15 13  1  0
 15 14  1  0
M  END
>  <NAME>  (4749) 
METHOXYTRIS(TRIMETHYLSILYL)SILANE

>  <SYNONYMS>  (4749) 


>  <SPECTRUM TYPE>  (4749) 
MS1

>  <INSTRUMENT TYPE>  (4749) 
EI-B

>  <INSTRUMENT>  (4749) 
JEOL JMS-D-3000

>  <ION MODE>  (4749) 
P

>  <INCHIKEY>  (4749) 
VGECNGCCOSRMRH-UHFFFAOYSA-N

>  <FORMULA>  (4749) 
C10H30OSi4

>  <EXACT MASS>  (4749) 
278.1373717

>  <MW>  (4749) 
278

>  <ID>  (4749) 
JP004808

>  <CONTRIBUTOR>  (4749) 
University of Tokyo Team, {Faculty of Engineering, University of Tokyo

>  <COMMENT>  (4749) 
SMILES=CO[Si]([Si](C)(C)C)([Si](C)(C)C)[Si](C)(C)C
InChI=InChI=1S/C10H30OSi4/c1-11-15(12(2,3)4,13(5,6)7)14(8,9)10/h1-10H3
computed SMILES=O(C)[Si]([Si](C)(C)C)([Si](C)(C)C)[Si](C)(C)C
accession=JP004808
date=2016.01.19 (Created 2008.10.21, modified 2011.05.06)
author=MASS SPECTROSCOPY SOC. OF JAPAN (MSSJ)
license=CC BY-NC-SA
exact mass=278.13737
ionization energy=70 eV
ion type=[M]+*
computed spectral entropy=3.4260875025662787
computed normalized entropy=0.8064237588538823
SPLASH=splash10-08or-4950000000-0eda4012cca231fcdab1
submitter=submitter = University of Tokyo Team (Faculty of Engineering, University of Tokyo)
MoNA Rating=3.75

>  <NUM PEAKS>  (4749) 
70

>  <MASS SPECTRAL PEAKS>  (4749) 
43 4.01
45 12.32
58 1.27
59 24.75
60 1.74
71 1.08
73 99.99
74 8.03
75 7.32
85 2.4
89 10.15
90 1.08
99 4.2
100 3.82
101 6.04
102 1.79
103 2.03
113 2.59
114 3.87
115 12.94
116 5.47
117 24.79
118 4.1
119 1.22
129 17.43
130 2.64
131 44.87
132 7.69
133 4.01
145 4.86
146 1.32
147 13.08
148 2.36
149 1.13
157 2.4
159 30.27
160 6.75
161 6.42
162 1.27
173 5.9
174 6.14
175 60.65
176 14.02
177 6.7
178 1.03
187 1.13
189 27.3
190 11.38
191 4.34
192 1.27
203 2.22
204 1.27
205 45.96
206 10.15
207 5.76
208 1.13
219 1.51
233 3.21
247 1.41
248 1.18
250 1.22
252 2.12
254 1.27
263 86.96
264 26.54
265 16.62
266 3.58
278 6.37
279 2.59
280 1.08

$$$$

     RDKit          2D

 13 12  0  0  0  0  0  0  0  0999 V2000
    4.2990    5.3971    0.0000 C   0  0  0  0  0  0  0  0  0  0  0  0
    4.2990    2.3971    0.0000 C   0  0  0  0  0  0  0  0  0  0  0  0
    5.7990    3.8971    0.0000 C   0  0  0  0  0  0  0  0  0  0  0  0
   -1.5000    2.0490    0.0000 C   0  0  0  0  0  0  0  0  0  0  0  0
   -0.9510    0.0000    0.0000 C   0  0  0  0  0  0  0  0  0  0  0  0
    1.0981    0.5490    0.0000 C   0  0  0  0  0  0  0  0  0  0  0  0
    0.8095    4.0753    0.0000 C   0  0  0  0  0  0  0  0  0  0  0  0
   -0.8605    3.1111    0.0000 C   0  0  0  0  0  0  0  0  0  0  0  0
    2.7990    3.8971    0.0000 C   0  0  0  0  0  0  0  0  0  0  0  0
    2.0490    2.5981    0.0000 C   0  0  0  0  0  0  0  0  0  0  0  0
    4.2990    3.8971    0.0000 Si  0  0  0  0  0  4  0  0  0  0  0  0
   -0.2010    1.2990    0.0000 Si  0  0  0  0  0  4  0  0  0  0  0  0
    0.5490    2.5981    0.0000 Si  0  0  0  0  0  4  0  0  0  0  0  0
  9 10  2  0
 11  1  1  0
 11  2  1  0
 11  3  1  0
 11  9  1  0
 12  4  1  0
 12  5  1  0
 12  6  1  0
 13  7  1  0
 13  8  1  0
 13 10  1  0
 13 12  1  0
M  END
>  <NAME>  (4750) 
(E)-PENTAMETHYLDISILANYLTRIMETHYLSILYLETHYLENE

>  <SYNONYMS>  (4750) 


>  <SPECTRUM TYPE>  (4750) 
MS1

>  <INSTRUMENT TYPE>  (4750) 
EI-B

>  <INSTRUMENT>  (4750) 
JEOL JMS-D-3000

>  <ION MODE>  (4750) 
P

>  <INCHIKEY>  (4750) 
JNIYOGWIJMFISY-MDZDMXLPSA-N

>  <FORMULA>  (4750) 
C10H26Si3

>  <EXACT MASS>  (4750) 
230.134230422

>  <MW>  (4750) 
230

>  <ID>  (4750) 
JP004807

>  <CONTRIBUTOR>  (4750) 
University of Tokyo Team, {Faculty of Engineering, University of Tokyo

>  <COMMENT>  (4750) 
SMILES=C[Si](C)(C)C([H])=C([H])[Si](C)(C)[Si](C)(C)C
InChI=InChI=1S/C10H26Si3/c1-11(2,3)9-10-13(7,8)12(4,5)6/h9-10H,1-8H3/b10-9+
computed SMILES=C(=C[Si](C)(C)[Si](C)(C)C)[Si](C)(C)C
accession=JP004807
date=2016.01.19 (Created 2008.10.21, modified 2011.05.06)
author=MASS SPECTROSCOPY SOC. OF JAPAN (MSSJ)
license=CC BY-NC-SA
exact mass=230.13423
ionization energy=70 eV
ion type=[M]+*
computed spectral entropy=1.893031799560993
computed normalized entropy=0.6319095388705054
SPLASH=splash10-00di-9300000000-b3e651021a63ae014fdc
submitter=submitter = University of Tokyo Team (Faculty of Engineering, University of Tokyo)
MoNA Rating=3.75

>  <NUM PEAKS>  (4750) 
20

>  <MASS SPECTRAL PEAKS>  (4750) 
43 3
45 7.1
59 4.12
73 99.99
75 3.35
83 2.72
85 1.23
117 1.5
127 5.13
131 2.25
141 8.41
142 2.93
155 2.2
156 2.39
157 21.23
158 4.36
159 1.92
215 1.99
230 7.35
231 1.96

$$$$

     RDKit          2D

 12 12  0  0  0  0  0  0  0  0999 V2000
   -1.3000    0.3512    0.0000 C   0  0  0  0  0  0  0  0  0  0  0  0
   -0.0013   -1.8990    0.0000 C   0  0  0  0  0  0  0  0  0  0  0  0
    2.2624    1.4997    0.0000 C   0  0  0  0  0  0  0  0  0  0  0  0
    5.1970   -1.8994    0.0000 C   0  0  0  0  0  0  0  0  0  0  0  0
    3.8970   -2.6494    0.0000 C   0  0  0  0  0  0  0  0  0  0  0  0
    5.1970   -0.3994    0.0000 C   0  0  0  0  0  0  0  0  0  0  0  0
    2.5970   -1.8994    0.0000 C   0  0  0  0  0  0  0  0  0  0  0  0
    3.8970    0.3506    0.0000 C   0  0  0  0  0  0  0  0  0  0  0  0
   -0.0011   -0.3990    0.0000 C   0  0  0  0  0  0  0  0  0  0  0  0
    2.5970   -0.3994    0.0000 C   0  0  0  0  0  0  0  0  0  0  0  0
    0.3341    1.5000    0.0000 Cl  0  0  0  0  0  0  0  0  0  0  0  0
    1.2981    0.3508    0.0000 Si  0  0  0  0  0  4  0  0  0  0  0  0
  5  4  2  0
  6  4  1  0
  7  5  1  0
  8  6  2  0
  9  1  1  0
  9  2  1  0
 10  7  2  0
 10  8  1  0
 12  3  1  0
 12  9  1  0
 12 10  1  0
 12 11  1  0
M  END
>  <NAME>  (4751) 
CHLOROISOPROPYLMETHYLPHENYLSILANE

>  <SYNONYMS>  (4751) 


>  <SPECTRUM TYPE>  (4751) 
MS1

>  <INSTRUMENT TYPE>  (4751) 
EI-B

>  <INSTRUMENT>  (4751) 
JEOL JMS-D-3000

>  <ION MODE>  (4751) 
P

>  <INCHIKEY>  (4751) 
KZSZEXYXZJZLHY-UHFFFAOYSA-N

>  <FORMULA>  (4751) 
C10H15ClSi

>  <EXACT MASS>  (4751) 
198.06315469

>  <MW>  (4751) 
198

>  <ID>  (4751) 
JP004806

>  <CONTRIBUTOR>  (4751) 
University of Tokyo Team, {Faculty of Engineering, University of Tokyo

>  <COMMENT>  (4751) 
SMILES=CC(C)[Si](C)(Cl)c(c1)cccc1
cas=51657-50-2
InChI=InChI=1S/C10H15ClSi/c1-9(2)12(3,11)10-7-5-4-6-8-10/h4-9H,1-3H3
computed SMILES=Cl[Si](C=1C=CC=CC1)(C)C(C)C
accession=JP004806
date=2016.01.19 (Created 2008.10.21, modified 2011.05.06)
author=MASS SPECTROSCOPY SOC. OF JAPAN (MSSJ)
license=CC BY-NC-SA
exact mass=198.06315
ionization energy=70 eV
ion type=[M]+*
computed spectral entropy=2.069630380331592
computed normalized entropy=0.6512257157409448
SPLASH=splash10-0a4i-2900000000-07a8392fa6b1946de865
submitter=submitter = University of Tokyo Team (Faculty of Engineering, University of Tokyo)
MoNA Rating=3.75

>  <NUM PEAKS>  (4751) 
24

>  <MASS SPECTRAL PEAKS>  (4751) 
43 1.28
51 2.01
53 1.42
63 13.05
65 4.98
77 1.47
78 1.71
79 2.41
91 10.75
93 1.83
103 1.55
105 2.7
119 1.77
120 1.4
137 6.92
140 1.41
141 1.89
155 99.99
156 13.15
157 35.87
158 4.32
159 1.41
198 5.19
200 2.01

$$$$

     RDKit          2D

 12 12  0  0  0  0  0  0  0  0999 V2000
   -1.3000    0.3512    0.0000 C   0  0  0  0  0  0  0  0  0  0  0  0
   -1.1432    1.2398    0.0000 C   0  0  0  0  0  0  0  0  0  0  0  0
    2.2624    1.4997    0.0000 C   0  0  0  0  0  0  0  0  0  0  0  0
    5.1970   -1.8994    0.0000 C   0  0  0  0  0  0  0  0  0  0  0  0
    3.8970   -2.6494    0.0000 C   0  0  0  0  0  0  0  0  0  0  0  0
    5.1970   -0.3994    0.0000 C   0  0  0  0  0  0  0  0  0  0  0  0
    2.5970   -1.8994    0.0000 C   0  0  0  0  0  0  0  0  0  0  0  0
    3.8970    0.3506    0.0000 C   0  0  0  0  0  0  0  0  0  0  0  0
    2.5970   -0.3994    0.0000 C   0  0  0  0  0  0  0  0  0  0  0  0
   -0.0011   -0.3990    0.0000 O   0  0  0  0  0  0  0  0  0  0  0  0
    0.3341    1.5000    0.0000 O   0  0  0  0  0  0  0  0  0  0  0  0
    1.2981    0.3508    0.0000 Si  0  0  0  0  0  4  0  0  0  0  0  0
  5  4  2  0
  6  4  1  0
  7  5  1  0
  8  6  2  0
  9  7  2  0
  9  8  1  0
 10  1  1  0
 11  2  1  0
 12  3  1  0
 12  9  1  0
 12 10  1  0
 12 11  1  0
M  END
>  <NAME>  (4752) 
DIMETHOXYMETHYLPHENYLSILANE

>  <SYNONYMS>  (4752) 


>  <SPECTRUM TYPE>  (4752) 
MS1

>  <INSTRUMENT TYPE>  (4752) 
EI-B

>  <INSTRUMENT>  (4752) 
JEOL JMS-D-3000

>  <ION MODE>  (4752) 
P

>  <INCHIKEY>  (4752) 
CVQVSVBUMVSJES-UHFFFAOYSA-N

>  <FORMULA>  (4752) 
C9H14O2Si

>  <EXACT MASS>  (4752) 
182.076306218

>  <MW>  (4752) 
182

>  <ID>  (4752) 
JP004805

>  <CONTRIBUTOR>  (4752) 
University of Tokyo Team, {Faculty of Engineering, University of Tokyo

>  <COMMENT>  (4752) 
SMILES=CO[Si](C)(OC)c(c1)cccc1
cas=3027-21-2
InChI=InChI=1S/C9H14O2Si/c1-10-12(3,11-2)9-7-5-4-6-8-9/h4-8H,1-3H3
computed SMILES=O(C)[Si](OC)(C=1C=CC=CC1)C
accession=JP004805
date=2016.01.19 (Created 2008.10.21, modified 2011.05.06)
author=MASS SPECTROSCOPY SOC. OF JAPAN (MSSJ)
license=CC BY-NC-SA
exact mass=182.07631
ionization energy=70 eV
ion type=[M]+*
computed spectral entropy=2.4478041192534348
computed normalized entropy=0.7128169016053254
SPLASH=splash10-014i-3900000000-5f90eb2eb739562a2f50
submitter=submitter = University of Tokyo Team (Faculty of Engineering, University of Tokyo)
MoNA Rating=3.75

>  <NUM PEAKS>  (4752) 
31

>  <MASS SPECTRAL PEAKS>  (4752) 
43 1.83
45 3.41
51 2.31
53 1.22
59 13.64
60 1.57
61 1.44
65 1.26
74 2.05
75 9.05
77 2.79
78 2.23
84 2.53
90 1.13
91 16.31
92 1.44
104 1.26
105 8.31
106 1
107 9.93
108 1.26
121 5.51
137 27.95
138 3.54
139 1.39
151 3.23
167 99.99
168 13.73
169 4.81
182 8.88
183 1.66

$$$$

     RDKit          2D

 11 11  0  0  0  0  0  0  0  0999 V2000
    3.3491    0.2013    0.0000 C   0  0  0  0  0  0  0  0  0  0  0  0
    3.8978    2.2504    0.0000 C   0  0  0  0  0  0  0  0  0  0  0  0
    1.8487    2.7991    0.0000 C   0  0  0  0  0  0  0  0  0  0  0  0
   -1.3000    0.7500    0.0000 C   0  0  0  0  0  0  0  0  0  0  0  0
   -0.0000   -1.5000    0.0000 C   0  0  0  0  0  0  0  0  0  0  0  0
    0.0000    1.5000    0.0000 C   0  0  0  0  0  0  0  0  0  0  0  0
    1.3000   -0.7500    0.0000 C   0  0  0  0  0  0  0  0  0  0  0  0
   -1.3000   -0.7500    0.0000 C   0  0  0  0  0  0  0  0  0  0  0  0
    1.3000    0.7500    0.0000 C   0  0  0  0  0  0  0  0  0  0  0  0
   -2.5989   -1.5002    0.0000 O   0  0  0  0  0  0  0  0  0  0  0  0
    2.5989    1.5002    0.0000 Si  0  0  0  0  0  4  0  0  0  0  0  0
  6  4  2  0
  7  5  1  0
  8  4  1  0
  8  5  2  0
  9  6  1  0
  9  7  2  0
 10  8  1  0
 11  1  1  0
 11  2  1  0
 11  3  1  0
 11  9  1  0
M  END
>  <NAME>  (4753) 
4-TRIMETHYLSILYLPHENOL

>  <SYNONYMS>  (4753) 


>  <SPECTRUM TYPE>  (4753) 
MS1

>  <INSTRUMENT TYPE>  (4753) 
EI-B

>  <INSTRUMENT>  (4753) 
JEOL JMS-D-3000

>  <ION MODE>  (4753) 
P

>  <INCHIKEY>  (4753) 
ZOMMEPFDNFYOHO-UHFFFAOYSA-N

>  <FORMULA>  (4753) 
C9H14OSi

>  <EXACT MASS>  (4753) 
166.08139159799998

>  <MW>  (4753) 
166

>  <ID>  (4753) 
JP004804

>  <CONTRIBUTOR>  (4753) 
University of Tokyo Team, {Faculty of Engineering, University of Tokyo

>  <COMMENT>  (4753) 
SMILES=Oc(c1)ccc(c1)[Si](C)(C)C
InChI=InChI=1S/C9H14OSi/c1-11(2,3)9-6-4-8(10)5-7-9/h4-7,10H,1-3H3
computed SMILES=OC1=CC=C(C=C1)[Si](C)(C)C
accession=JP004804
date=2016.01.19 (Created 2008.10.21, modified 2011.05.06)
author=MASS SPECTROSCOPY SOC. OF JAPAN (MSSJ)
license=CC BY-NC-SA
exact mass=166.08139
ionization energy=70 eV
ion type=[M]+*
computed spectral entropy=2.1011968548730975
computed normalized entropy=0.6701325884125237
SPLASH=splash10-0udi-3900000000-c6ab56043a7896be5cdf
submitter=submitter = University of Tokyo Team (Faculty of Engineering, University of Tokyo)
MoNA Rating=3.75

>  <NUM PEAKS>  (4753) 
23

>  <MASS SPECTRAL PEAKS>  (4753) 
43 2.48
45 4.23
47 1.44
51 4.49
59 1.26
61 1.93
65 1.29
68 1.14
73 6.45
75 8.52
76 2.06
77 8.98
91 7.51
95 3.43
121 2.11
123 1.16
135 3.42
151 99.99
152 14.38
153 4.55
166 26.93
167 4.24
168 1.19

$$$$

     RDKit          2D

 12 12  0  0  0  0  0  0  0  0999 V2000
    3.1483   -0.5487    0.0000 C   0  0  0  0  0  0  0  0  0  0  0  0
    5.1972    0.0006    0.0000 C   0  0  0  0  0  0  0  0  0  0  0  0
    4.6479    2.0496    0.0000 C   0  0  0  0  0  0  0  0  0  0  0  0
   -1.3000    0.7500    0.0000 C   0  0  0  0  0  0  0  0  0  0  0  0
   -0.0000   -1.5000    0.0000 C   0  0  0  0  0  0  0  0  0  0  0  0
    0.0000    1.5000    0.0000 C   0  0  0  0  0  0  0  0  0  0  0  0
    1.3000   -0.7500    0.0000 C   0  0  0  0  0  0  0  0  0  0  0  0
   -1.3000   -0.7500    0.0000 C   0  0  0  0  0  0  0  0  0  0  0  0
    1.3000    0.7500    0.0000 C   0  0  0  0  0  0  0  0  0  0  0  0
   -2.5989   -1.5002    0.0000 Br  0  0  0  0  0  0  0  0  0  0  0  0
    2.5989    1.5002    0.0000 O   0  0  0  0  0  0  0  0  0  0  0  0
    3.8981    0.7504    0.0000 Si  0  0  0  0  0  4  0  0  0  0  0  0
  6  4  2  0
  7  5  1  0
  8  4  1  0
  8  5  2  0
  9  6  1  0
  9  7  2  0
 10  8  1  0
 11  9  1  0
 12  1  1  0
 12  2  1  0
 12  3  1  0
 12 11  1  0
M  END
>  <NAME>  (4754) 
1-BROMO-4-TRIMETHYLSILOXYBENZENE

>  <SYNONYMS>  (4754) 


>  <SPECTRUM TYPE>  (4754) 
MS1

>  <INSTRUMENT TYPE>  (4754) 
EI-B

>  <INSTRUMENT>  (4754) 
JEOL JMS-D-3000

>  <ION MODE>  (4754) 
P

>  <INCHIKEY>  (4754) 
HWKPTBHJWBSOOP-UHFFFAOYSA-N

>  <FORMULA>  (4754) 
C9H13BrOSi

>  <EXACT MASS>  (4754) 
243.991903666

>  <MW>  (4754) 
244

>  <ID>  (4754) 
JP004803

>  <CONTRIBUTOR>  (4754) 
University of Tokyo Team, {Faculty of Engineering, University of Tokyo

>  <COMMENT>  (4754) 
SMILES=C[Si](C)(C)Oc(c1)ccc(Br)c1
InChI=InChI=1S/C9H13BrOSi/c1-12(2,3)11-9-6-4-8(10)5-7-9/h4-7H,1-3H3
computed SMILES=BrC1=CC=C(O[Si](C)(C)C)C=C1
accession=JP004803
date=2016.01.19 (Created 2008.10.21, modified 2011.05.06)
author=MASS SPECTROSCOPY SOC. OF JAPAN (MSSJ)
license=CC BY-NC-SA
exact mass=243.9919
ionization energy=70 eV
ion type=[M]+*
computed spectral entropy=3.580482957381057
computed normalized entropy=0.8017368163991083
SPLASH=splash10-00av-4690000000-336d98d0f67dd3899114
submitter=submitter = University of Tokyo Team (Faculty of Engineering, University of Tokyo)
MoNA Rating=3.75

>  <NUM PEAKS>  (4754) 
87

>  <MASS SPECTRAL PEAKS>  (4754) 
42 1.31
43 7.11
44 3.55
45 10.73
46 2.86
47 2.53
50 5.96
51 2.5
53 2.96
55 1.94
57 1.08
58 1.77
59 1.77
60 2.27
61 4.64
62 3.49
63 9.38
64 4.84
65 15.31
66 1.54
67 1.91
72 1.41
73 46.6
74 6.78
75 17.06
76 8.3
77 3.98
79 1.71
85 1.31
86 1.87
87 2.07
89 2.93
90 3.95
91 10.01
92 2.27
93 9.94
94 1.02
100 2.23
101 1.54
105 1.61
107 1.08
109 1.44
114 17.75
115 17.35
116 3.09
117 1.44
119 1.51
121 4.41
123 2.27
125 2.14
135 17.39
136 2.89
137 27.76
138 2.04
139 27.04
140 1.91
141 1.31
143 3.45
145 3.45
148 1.31
149 26.21
150 49.53
151 6.22
152 2.4
155 6.45
157 6.15
164 1.05
169 1.58
171 3.52
172 26.15
173 3.88
174 25.95
175 2.2
199 2.6
201 3.19
213 1.38
215 1.48
229 99.2
230 14.29
231 99.99
232 13.96
233 4.47
244 72.03
245 11.19
246 71.6
247 10.44
248 3.39

$$$$

     RDKit          2D

 11 10  0  0  0  0  0  0  0  0999 V2000
    2.0490    4.0981    0.0000 C   0  0  0  0  0  0  0  0  0  0  0  0
    2.0490    1.0981    0.0000 C   0  0  0  0  0  0  0  0  0  0  0  0
    3.5490    2.5981    0.0000 C   0  0  0  0  0  0  0  0  0  0  0  0
   -1.5000    2.0490    0.0000 C   0  0  0  0  0  0  0  0  0  0  0  0
   -0.9510    0.0000    0.0000 C   0  0  0  0  0  0  0  0  0  0  0  0
    1.0981    0.5490    0.0000 C   0  0  0  0  0  0  0  0  0  0  0  0
    0.8095    4.0753    0.0000 C   0  0  0  0  0  0  0  0  0  0  0  0
   -0.8605    3.1111    0.0000 C   0  0  0  0  0  0  0  0  0  0  0  0
    2.0490    2.5981    0.0000 Si  0  0  0  0  0  4  0  0  0  0  0  0
   -0.2010    1.2990    0.0000 Si  0  0  0  0  0  4  0  0  0  0  0  0
    0.5490    2.5981    0.0000 Si  0  0  0  0  0  4  0  0  0  0  0  0
  9  1  1  0
  9  2  1  0
  9  3  1  0
 10  4  1  0
 10  5  1  0
 10  6  1  0
 11  7  1  0
 11  8  1  0
 11  9  1  0
 11 10  1  0
M  END
>  <NAME>  (4755) 
OCTAMETHYLTRISILANE

>  <SYNONYMS>  (4755) 


>  <SPECTRUM TYPE>  (4755) 
MS1

>  <INSTRUMENT TYPE>  (4755) 
EI-B

>  <INSTRUMENT>  (4755) 
JEOL JMS-D-3000

>  <ION MODE>  (4755) 
P

>  <INCHIKEY>  (4755) 
DDIMPUQNMJIVKL-UHFFFAOYSA-N

>  <FORMULA>  (4755) 
C8H24Si3

>  <EXACT MASS>  (4755) 
204.118580358

>  <MW>  (4755) 
204

>  <ID>  (4755) 
JP004802

>  <CONTRIBUTOR>  (4755) 
University of Tokyo Team, {Faculty of Engineering, University of Tokyo

>  <COMMENT>  (4755) 
cas=3704-44-7
SMILES=C[Si](C)(C)[Si](C)(C)[Si](C)(C)C
InChI=InChI=1S/C8H24Si3/c1-9(2,3)11(7,8)10(4,5)6/h1-8H3
computed SMILES=C[Si](C)(C)[Si](C)(C)[Si](C)(C)C
accession=JP004802
date=2016.01.19 (Created 2008.10.21, modified 2011.05.06)
author=MASS SPECTROSCOPY SOC. OF JAPAN (MSSJ)
license=CC BY-NC-SA
exact mass=204.11858
ionization energy=70 eV
ion type=[M]+*
computed spectral entropy=2.558800310702211
computed normalized entropy=0.7679001402490965
SPLASH=splash10-00si-3910000000-571acf4a7bbd85970673
submitter=submitter = University of Tokyo Team (Faculty of Engineering, University of Tokyo)
MoNA Rating=3.75

>  <NUM PEAKS>  (4755) 
28

>  <MASS SPECTRAL PEAKS>  (4755) 
43 2.95
45 8.49
59 5.06
73 83.43
74 7.25
75 3.59
85 1.45
99 2.49
101 7.22
113 1.27
115 11.86
116 46.63
117 8.54
118 3.81
129 5.53
130 2.02
131 99.99
132 16.84
133 8.4
145 5.44
173 1.97
187 2.25
189 28.37
190 6.72
191 3.8
204 35.73
205 8.93
206 4.69

$$$$

     RDKit          2D

  9  8  0  0  0  0  0  0  0  0999 V2000
    2.5981    4.5000    0.0000 C   0  0  0  0  0  0  0  0  0  0  0  0
   -7.7942    4.5000    0.0000 C   0  0  0  0  0  0  0  0  0  0  0  0
    1.2990    5.2500    0.0000 C   0  0  0  0  0  0  0  0  0  0  0  0
   -6.4952    5.2500    0.0000 C   0  0  0  0  0  0  0  0  0  0  0  0
    0.0000    4.5000    0.0000 C   0  0  0  0  0  0  0  0  0  0  0  0
   -5.1962    4.5000    0.0000 C   0  0  0  0  0  0  0  0  0  0  0  0
   -1.2990    5.2500    0.0000 C   0  0  0  0  0  0  0  0  0  0  0  0
   -3.8971    5.2500    0.0000 C   0  0  0  0  0  0  0  0  0  0  0  0
   -2.5981    4.5000    0.0000 O   0  0  0  0  0  0  0  0  0  0  0  0
  3  1  1  0
  4  2  1  0
  5  3  1  0
  6  4  1  0
  7  5  1  0
  8  6  1  0
  9  7  1  0
  9  8  1  0
M  END
>  <NAME>  (4756) 
DIBUTYL ETHER

>  <SYNONYMS>  (4756) 


>  <SPECTRUM TYPE>  (4756) 
MS1

>  <INSTRUMENT TYPE>  (4756) 
EI-B

>  <INSTRUMENT>  (4756) 
JEOL JMS-D-3000

>  <ION MODE>  (4756) 
P

>  <INCHIKEY>  (4756) 
DURPTKYDGMDSBL-UHFFFAOYSA-N

>  <FORMULA>  (4756) 
C8H18O

>  <EXACT MASS>  (4756) 
130.135765196

>  <MW>  (4756) 
130

>  <ID>  (4756) 
JP004801

>  <CONTRIBUTOR>  (4756) 
University of Tokyo Team, {Faculty of Engineering, University of Tokyo

>  <COMMENT>  (4756) 
SMILES=CCCCOCCCC
cas=142-96-1
InChI=InChI=1S/C8H18O/c1-3-5-7-9-8-6-4-2/h3-8H2,1-2H3
computed SMILES=O(CCCC)CCCC
accession=JP004801
date=2016.01.19 (Created 2008.10.21, modified 2011.05.06)
author=MASS SPECTROSCOPY SOC. OF JAPAN (MSSJ)
license=CC BY-NC-SA
exact mass=130.13577
ionization energy=70 eV
ion type=[M]+*
computed spectral entropy=1.1911113205665378
computed normalized entropy=0.4967320024683553
SPLASH=splash10-0a4i-9000000000-103afd75e179a129caae
submitter=submitter = University of Tokyo Team (Faculty of Engineering, University of Tokyo)
MoNA Rating=3.75

>  <NUM PEAKS>  (4756) 
11

>  <MASS SPECTRAL PEAKS>  (4756) 
42 1.22
43 1.59
45 1.6
55 3.47
56 15.5
57 99.99
58 4.74
73 1.26
87 13.29
101 2.09
130 1.02

$$$$

     RDKit          2D

 10  9  0  0  0  0  0  0  0  0999 V2000
    1.8983    1.9620    0.0000 C   0  0  0  0  0  0  0  0  0  0  0  0
    0.5993    4.2120    0.0000 C   0  0  0  0  0  0  0  0  0  0  0  0
   -1.2488    4.0111    0.0000 C   0  0  0  0  0  0  0  0  0  0  0  0
   -3.2978    3.4620    0.0000 C   0  0  0  0  0  0  0  0  0  0  0  0
   -2.7488    1.4130    0.0000 C   0  0  0  0  0  0  0  0  0  0  0  0
   -1.6639    0.8130    0.0000 C   0  0  0  0  0  0  0  0  0  0  0  0
    0.2644    0.8130    0.0000 C   0  0  0  0  0  0  0  0  0  0  0  0
    0.5993    2.7120    0.0000 Si  0  0  0  0  0  4  0  0  0  0  0  0
   -1.9988    2.7120    0.0000 Si  0  0  0  0  0  4  0  0  0  0  0  0
   -0.6998    1.9620    0.0000 Si  0  0  0  0  0  4  0  0  0  0  0  0
  8  1  1  0
  8  2  1  0
  9  3  1  0
  9  4  1  0
  9  5  1  0
 10  6  1  0
 10  7  1  0
 10  8  1  0
 10  9  1  0
M  END
>  <NAME>  (4757) 
1,1,1,2,2,3,3-HEPTAMETHYLTRISILANE

>  <SYNONYMS>  (4757) 


>  <SPECTRUM TYPE>  (4757) 
MS1

>  <INSTRUMENT TYPE>  (4757) 
EI-B

>  <INSTRUMENT>  (4757) 
JEOL JMS-D-3000

>  <ION MODE>  (4757) 
P

>  <INCHIKEY>  (4757) 
YNNGBLKAOSDCHG-UHFFFAOYSA-N

>  <FORMULA>  (4757) 
C7H22Si3

>  <EXACT MASS>  (4757) 
190.10293029399998

>  <MW>  (4757) 
190

>  <ID>  (4757) 
JP004800

>  <CONTRIBUTOR>  (4757) 
University of Tokyo Team, {Faculty of Engineering, University of Tokyo

>  <COMMENT>  (4757) 
SMILES=C[SiH](C)[Si](C)(C)[Si](C)(C)C
InChI=InChI=1S/C7H22Si3/c1-8(2)10(6,7)9(3,4)5/h8H,1-7H3
computed SMILES=C[SiH](C)[Si](C)(C)[Si](C)(C)C
accession=JP004800
date=2016.01.19 (Created 2008.10.21, modified 2011.05.06)
author=MASS SPECTROSCOPY SOC. OF JAPAN (MSSJ)
license=CC BY-NC-SA
exact mass=190.10293
ionization energy=70 eV
ion type=[M]+*
computed spectral entropy=2.7035788491285926
computed normalized entropy=0.7379646121103972
SPLASH=splash10-01b9-4900000000-69b496b343e7d8b97bd8
submitter=submitter = University of Tokyo Team (Faculty of Engineering, University of Tokyo)
MoNA Rating=3.75

>  <NUM PEAKS>  (4757) 
39

>  <MASS SPECTRAL PEAKS>  (4757) 
43 6.37
45 11.78
57 1.04
59 12.26
60 1.07
69 1.65
71 1.2
73 99.99
74 8.46
75 4.75
85 2.66
87 1.46
99 3.57
100 1.13
101 15.35
102 11.91
103 3.09
104 1.13
113 1.17
115 9.59
116 94.3
117 36.15
118 10.25
119 2.34
129 3.05
131 59.25
132 10.25
133 5.01
145 1.33
159 2.01
173 3.54
174 2.27
175 20.46
176 4.36
177 2.53
189 1.82
190 9.3
191 2.4
192 1.23

$$$$

     RDKit          2D

  9  8  0  0  0  0  0  0  0  0999 V2000
   -4.2219    2.8125    0.0000 C   0  0  0  0  0  0  0  0  0  0  0  0
   -1.0748    0.7635    0.0000 C   0  0  0  0  0  0  0  0  0  0  0  0
    0.9743    1.3125    0.0000 C   0  0  0  0  0  0  0  0  0  0  0  0
    0.4252    3.3615    0.0000 C   0  0  0  0  0  0  0  0  0  0  0  0
   -0.6596    3.9616    0.0000 C   0  0  0  0  0  0  0  0  0  0  0  0
   -2.5880    3.9616    0.0000 C   0  0  0  0  0  0  0  0  0  0  0  0
   -2.9228    2.0625    0.0000 C   0  0  0  0  0  0  0  0  0  0  0  0
   -0.3248    2.0625    0.0000 Si  0  0  0  0  0  4  0  0  0  0  0  0
   -1.6238    2.8125    0.0000 Si  0  0  0  0  0  4  0  0  0  0  0  0
  7  1  1  0
  8  2  1  0
  8  3  1  0
  8  4  1  0
  9  5  1  0
  9  6  1  0
  9  7  1  0
  9  8  1  0
M  END
>  <NAME>  (4758) 
ETHYLPENTAMETHYLDISILANE

>  <SYNONYMS>  (4758) 


>  <SPECTRUM TYPE>  (4758) 
MS1

>  <INSTRUMENT TYPE>  (4758) 
EI-B

>  <INSTRUMENT>  (4758) 
JEOL JMS-D-3000

>  <ION MODE>  (4758) 
P

>  <INCHIKEY>  (4758) 
AIYNVZFMBDWFLW-UHFFFAOYSA-N

>  <FORMULA>  (4758) 
C7H20Si2

>  <EXACT MASS>  (4758) 
160.1103537

>  <MW>  (4758) 
160

>  <ID>  (4758) 
JP004799

>  <CONTRIBUTOR>  (4758) 
University of Tokyo Team, {Faculty of Engineering, University of Tokyo

>  <COMMENT>  (4758) 
SMILES=CC[Si](C)(C)[Si](C)(C)C
InChI=InChI=1S/C7H20Si2/c1-7-9(5,6)8(2,3)4/h7H2,1-6H3
computed SMILES=CC[Si](C)(C)[Si](C)(C)C
accession=JP004799
date=2016.01.19 (Created 2008.10.21, modified 2011.05.06)
author=MASS SPECTROSCOPY SOC. OF JAPAN (MSSJ)
license=CC BY-NC-SA
exact mass=160.11035
ionization energy=70 eV
ion type=[M]+*
computed spectral entropy=2.6865782772641493
computed normalized entropy=0.7497039428014325
SPLASH=splash10-05g0-9300000000-85814d2a052131a35587
submitter=submitter = University of Tokyo Team (Faculty of Engineering, University of Tokyo)
MoNA Rating=3.75

>  <NUM PEAKS>  (4758) 
36

>  <MASS SPECTRAL PEAKS>  (4758) 
43 8.91
44 2.34
45 12.05
55 1.36
57 1.68
58 6.58
59 66.7
60 5.24
61 2.56
69 1.12
71 1.45
72 3.05
73 99.99
74 9.13
75 4
85 5.27
86 8.52
87 72.45
88 7.36
89 2.83
99 1.2
101 2.05
115 3.01
116 1.03
117 39.11
118 5.97
119 3.12
129 1.4
131 32.49
132 5.2
133 2.72
145 11.82
146 2.05
160 25.05
161 4.63
162 2.07

$$$$

     RDKit          2D

  9  8  0  0  0  0  0  0  0  0999 V2000
    0.9926    2.4721    0.0000 C   0  0  0  0  0  0  0  0  0  0  0  0
   -4.2035    2.4721    0.0000 C   0  0  0  0  0  0  0  0  0  0  0  0
    0.8359    1.5836    0.0000 C   0  0  0  0  0  0  0  0  0  0  0  0
   -1.1543   -0.0865    0.0000 C   0  0  0  0  0  0  0  0  0  0  0  0
   -2.5697    1.3231    0.0000 C   0  0  0  0  0  0  0  0  0  0  0  0
   -0.3064    3.2221    0.0000 C   0  0  0  0  0  0  0  0  0  0  0  0
   -2.9045    3.2221    0.0000 C   0  0  0  0  0  0  0  0  0  0  0  0
   -0.6413    1.3231    0.0000 Si  0  0  0  0  0  4  0  0  0  0  0  0
   -1.6055    2.4721    0.0000 Si  0  0  0  0  0  4  0  0  0  0  0  0
  6  1  1  0
  7  2  1  0
  8  3  1  0
  8  4  1  0
  9  5  1  0
  9  6  1  0
  9  7  1  0
  9  8  1  0
M  END
>  <NAME>  (4759) 
1,1-DIETHYL-1,2,2-TRIMETHYLDISILANE

>  <SYNONYMS>  (4759) 


>  <SPECTRUM TYPE>  (4759) 
MS1

>  <INSTRUMENT TYPE>  (4759) 
EI-B

>  <INSTRUMENT>  (4759) 
JEOL JMS-D-3000

>  <ION MODE>  (4759) 
P

>  <INCHIKEY>  (4759) 
KPISIPFWLMPWOU-UHFFFAOYSA-N

>  <FORMULA>  (4759) 
C7H20Si2

>  <EXACT MASS>  (4759) 
160.1103537

>  <MW>  (4759) 
160

>  <ID>  (4759) 
JP004798

>  <CONTRIBUTOR>  (4759) 
University of Tokyo Team, {Faculty of Engineering, University of Tokyo

>  <COMMENT>  (4759) 
SMILES=CC[Si](C)(CC)[SiH](C)C
InChI=InChI=1S/C7H20Si2/c1-6-9(5,7-2)8(3)4/h8H,6-7H2,1-5H3
computed SMILES=CC[Si](C)(CC)[SiH](C)C
accession=JP004798
date=2016.01.19 (Created 2008.10.21, modified 2011.05.06)
author=MASS SPECTROSCOPY SOC. OF JAPAN (MSSJ)
license=CC BY-NC-SA
exact mass=160.11035
ionization energy=70 eV
ion type=[M]+*
computed spectral entropy=2.6018280383512074
computed normalized entropy=0.7205447759530832
SPLASH=splash10-0uk9-7900000000-82858b4839c5d9738d69
submitter=submitter = University of Tokyo Team (Faculty of Engineering, University of Tokyo)
MoNA Rating=3.75

>  <NUM PEAKS>  (4759) 
37

>  <MASS SPECTRAL PEAKS>  (4759) 
43 7.45
44 2.08
45 15.1
55 1.31
57 1.67
58 1.67
59 17.04
60 1.31
69 1.34
71 5.77
72 5.29
73 99.16
74 9.02
75 3.79
85 2.85
86 1.71
87 3.57
88 3
89 8.09
90 1.13
100 3.69
101 99.99
102 11.96
103 41.79
104 5.69
105 2.9
115 1.13
116 1.94
117 8.05
118 1.24
131 9.06
132 1.45
144 2.23
145 4.58
160 19.53
161 3.52
162 1.64

$$$$

     RDKit          2D

 10  9  0  0  0  0  0  0  0  0999 V2000
   -0.0775    4.0652    0.0000 C   0  0  0  0  0  0  0  0  0  0  0  0
   -3.9747    1.8152    0.0000 C   0  0  0  0  0  0  0  0  0  0  0  0
   -1.5615   -0.2980    0.0000 C   0  0  0  0  0  0  0  0  0  0  0  0
    0.5518   -0.4829    0.0000 C   0  0  0  0  0  0  0  0  0  0  0  0
   -2.3408    0.6662    0.0000 C   0  0  0  0  0  0  0  0  0  0  0  0
   -0.0775    2.5652    0.0000 C   0  0  0  0  0  0  0  0  0  0  0  0
   -2.6756    2.5652    0.0000 C   0  0  0  0  0  0  0  0  0  0  0  0
    0.7367    1.6303    0.0000 Cl  0  0  0  0  0  0  0  0  0  0  0  0
   -0.4124    0.6662    0.0000 Si  0  0  0  0  0  4  0  0  0  0  0  0
   -1.3766    1.8152    0.0000 Si  0  0  0  0  0  4  0  0  0  0  0  0
  6  1  1  0
  7  2  1  0
  9  3  1  0
  9  4  1  0
  9  8  1  0
 10  5  1  0
 10  6  1  0
 10  7  1  0
 10  9  1  0
M  END
>  <NAME>  (4760) 
1-CHLORO-2,2-DIETHYL-1,1,2-TRIMETHYLDISILANE

>  <SYNONYMS>  (4760) 


>  <SPECTRUM TYPE>  (4760) 
MS1

>  <INSTRUMENT TYPE>  (4760) 
EI-B

>  <INSTRUMENT>  (4760) 
JEOL JMS-D-3000

>  <ION MODE>  (4760) 
P

>  <INCHIKEY>  (4760) 
HMACUZHWIGKBMY-UHFFFAOYSA-N

>  <FORMULA>  (4760) 
C7H19ClSi2

>  <EXACT MASS>  (4760) 
194.071381348

>  <MW>  (4760) 
194

>  <ID>  (4760) 
JP004797

>  <CONTRIBUTOR>  (4760) 
University of Tokyo Team, {Faculty of Engineering, University of Tokyo

>  <COMMENT>  (4760) 
SMILES=CC[Si](C)(CC)[Si](C)(C)Cl
InChI=InChI=1S/C7H19ClSi2/c1-6-10(5,7-2)9(3,4)8/h6-7H2,1-5H3
computed SMILES=Cl[Si](C)(C)[Si](C)(CC)CC
accession=JP004797
date=2016.01.19 (Created 2008.10.21, modified 2011.05.06)
author=MASS SPECTROSCOPY SOC. OF JAPAN (MSSJ)
license=CC BY-NC-SA
exact mass=194.07138
ionization energy=70 eV
ion type=[M]+*
computed spectral entropy=2.771673414703289
computed normalized entropy=0.741551206437625
SPLASH=splash10-0uk9-9800000000-fb2e245280c8e76be787
submitter=submitter = University of Tokyo Team (Faculty of Engineering, University of Tokyo)
MoNA Rating=3.75

>  <NUM PEAKS>  (4760) 
42

>  <MASS SPECTRAL PEAKS>  (4760) 
43 6.22
44 2.26
45 13.89
55 1.53
57 1.59
58 2.54
59 19.42
60 1.52
61 1.76
63 1.64
65 2.22
71 3.68
72 7.7
73 99.99
74 9.16
75 5.24
79 2.28
85 1.83
87 7.92
89 1.56
93 4.7
95 1.59
100 32.61
101 79.93
102 10.26
103 5.28
119 2.53
123 3.33
125 1.23
131 3.21
137 16.8
138 2.3
139 6.61
147 3.78
151 5.19
153 2.13
159 4.5
165 3.99
167 1.53
179 1.63
194 4.02
196 1.63

$$$$

     RDKit          2D

  7  7  0  0  0  0  0  0  0  0999 V2000
   -0.0000   -1.9300    0.0000 C   0  0  0  0  0  0  0  0  0  0  0  0
    0.0000    2.5700    0.0000 C   0  0  0  0  0  0  0  0  0  0  0  0
   -1.3000    1.8200    0.0000 C   0  0  0  0  0  0  0  0  0  0  0  0
    1.3000    1.8200    0.0000 C   0  0  0  0  0  0  0  0  0  0  0  0
   -1.3000    0.3200    0.0000 C   0  0  0  0  0  0  0  0  0  0  0  0
    1.3000    0.3200    0.0000 C   0  0  0  0  0  0  0  0  0  0  0  0
   -0.0000   -0.4300    0.0000 C   0  0  0  0  0  0  0  0  0  0  0  0
  3  2  1  0
  4  2  1  0
  5  3  1  0
  6  4  1  0
  7  1  1  0
  7  5  1  0
  7  6  1  0
M  END
>  <NAME>  (4761) 
METHYLCYCLOHEXANE

>  <SYNONYMS>  (4761) 


>  <SPECTRUM TYPE>  (4761) 
MS1

>  <INSTRUMENT TYPE>  (4761) 
EI-B

>  <INSTRUMENT>  (4761) 
JEOL JMS-D-3000

>  <ION MODE>  (4761) 
P

>  <INCHIKEY>  (4761) 
UAEPNZWRGJTJPN-UHFFFAOYSA-N

>  <FORMULA>  (4761) 
C7H14

>  <EXACT MASS>  (4761) 
98.109550448

>  <MW>  (4761) 
98

>  <ID>  (4761) 
JP004796

>  <CONTRIBUTOR>  (4761) 
University of Tokyo Team, {Faculty of Engineering, University of Tokyo

>  <COMMENT>  (4761) 
SMILES=CC(C1)CCCC1
cas=108-87-2
InChI=InChI=1S/C7H14/c1-7-5-3-2-4-6-7/h7H,2-6H2,1H3
computed SMILES=CC1CCCCC1
accession=JP004796
date=2016.01.19 (Created 2008.10.21, modified 2011.05.06)
author=MASS SPECTROSCOPY SOC. OF JAPAN (MSSJ)
license=CC BY-NC-SA
exact mass=98.10955
ionization energy=70 eV
ion type=[M]+*
computed spectral entropy=2.3147602188924767
computed normalized entropy=0.7603032220131594
SPLASH=splash10-053r-9000000000-88370d240d0d0b493ed6
submitter=submitter = University of Tokyo Team (Faculty of Engineering, University of Tokyo)
MoNA Rating=3.75

>  <NUM PEAKS>  (4761) 
21

>  <MASS SPECTRAL PEAKS>  (4761) 
42 32.27
43 4.53
51 1.41
52 1
53 4.29
54 4.71
55 79.56
56 28.85
57 4.71
67 3.71
68 8.48
69 23.55
70 21.55
71 1.29
81 1.94
82 15.31
83 99.99
84 5.83
97 2.41
98 38.33
99 2.82

$$$$

     RDKit          2D

  9  9  0  0  0  0  0  0  0  0999 V2000
   -2.5989   -0.7504    0.0000 C   0  0  0  0  0  0  0  0  0  0  0  0
    2.5992   -0.7500    0.0000 C   0  0  0  0  0  0  0  0  0  0  0  0
    1.2992    1.5000    0.0000 C   0  0  0  0  0  0  0  0  0  0  0  0
    1.2992   -1.5000    0.0000 C   0  0  0  0  0  0  0  0  0  0  0  0
   -0.0008    0.7500    0.0000 C   0  0  0  0  0  0  0  0  0  0  0  0
    2.5992    0.7500    0.0000 C   0  0  0  0  0  0  0  0  0  0  0  0
   -0.0008   -0.7500    0.0000 C   0  0  0  0  0  0  0  0  0  0  0  0
    3.8981    1.5002    0.0000 Br  0  0  0  0  0  0  0  0  0  0  0  0
   -1.2998   -1.5002    0.0000 O   0  0  0  0  0  0  0  0  0  0  0  0
  4  2  2  0
  5  3  1  0
  6  2  1  0
  6  3  2  0
  7  4  1  0
  7  5  2  0
  8  6  1  0
  9  1  1  0
  9  7  1  0
M  END
>  <NAME>  (4762) 
1-BROMO-4-METHOXYBENZENE

>  <SYNONYMS>  (4762) 


>  <SPECTRUM TYPE>  (4762) 
MS1

>  <INSTRUMENT TYPE>  (4762) 
EI-B

>  <INSTRUMENT>  (4762) 
JEOL JMS-D-3000

>  <ION MODE>  (4762) 
P

>  <INCHIKEY>  (4762) 
QJPJQTDYNZXKQF-UHFFFAOYSA-N

>  <FORMULA>  (4762) 
C7H7BrO

>  <EXACT MASS>  (4762) 
185.968026944

>  <MW>  (4762) 
186

>  <ID>  (4762) 
JP004795

>  <CONTRIBUTOR>  (4762) 
University of Tokyo Team, {Faculty of Engineering, University of Tokyo

>  <COMMENT>  (4762) 
SMILES=COc(c1)ccc(Br)c1
cas=104-92-7
InChI=InChI=1S/C7H7BrO/c1-9-7-4-2-6(8)3-5-7/h2-5H,1H3
computed SMILES=BrC1=CC=C(OC)C=C1
accession=JP004795
date=2016.01.19 (Created 2008.10.21, modified 2011.05.06)
author=MASS SPECTROSCOPY SOC. OF JAPAN (MSSJ)
license=CC BY-NC-SA
exact mass=185.96803
ionization energy=70 eV
ion type=[M]+*
computed spectral entropy=2.5896122934276655
computed normalized entropy=0.7948236840766659
SPLASH=splash10-000i-2900000000-2df130174e98f611d714
submitter=submitter = University of Tokyo Team (Faculty of Engineering, University of Tokyo)
MoNA Rating=3.75

>  <NUM PEAKS>  (4762) 
26

>  <MASS SPECTRAL PEAKS>  (4762) 
50 12.41
51 3.41
61 2.72
62 6.27
63 18.28
64 12.14
74 6.95
75 9
76 6.95
77 13.09
79 4.22
92 8.59
117 3
119 3.13
143 25.51
145 27.69
155 2.86
157 3.41
171 41.6
172 3.41
173 43.11
174 2.72
186 99.99
187 7.91
188 98.77
189 7.91

$$$$

     RDKit          2D

 11 10  0  0  0  0  0  0  0  0999 V2000
    2.0490    4.0981    0.0000 C   0  0  0  0  0  0  0  0  0  0  0  0
    2.0490    1.0981    0.0000 C   0  0  0  0  0  0  0  0  0  0  0  0
   -1.5000    2.0490    0.0000 C   0  0  0  0  0  0  0  0  0  0  0  0
   -0.9510    0.0000    0.0000 C   0  0  0  0  0  0  0  0  0  0  0  0
    0.8095    4.0753    0.0000 C   0  0  0  0  0  0  0  0  0  0  0  0
   -0.8605    3.1111    0.0000 C   0  0  0  0  0  0  0  0  0  0  0  0
    3.5490    2.5981    0.0000 Cl  0  0  0  0  0  0  0  0  0  0  0  0
    1.0981    0.5490    0.0000 Cl  0  0  0  0  0  0  0  0  0  0  0  0
    2.0490    2.5981    0.0000 Si  0  0  0  0  0  4  0  0  0  0  0  0
   -0.2010    1.2990    0.0000 Si  0  0  0  0  0  4  0  0  0  0  0  0
    0.5490    2.5981    0.0000 Si  0  0  0  0  0  4  0  0  0  0  0  0
  9  1  1  0
  9  2  1  0
  9  7  1  0
 10  3  1  0
 10  4  1  0
 10  8  1  0
 11  5  1  0
 11  6  1  0
 11  9  1  0
 11 10  1  0
M  END
>  <NAME>  (4763) 
1,3-DICHLORO-1,1,2,2,3,3-HEXAMETHYLTRISILANE

>  <SYNONYMS>  (4763) 


>  <SPECTRUM TYPE>  (4763) 
MS1

>  <INSTRUMENT TYPE>  (4763) 
EI-B

>  <INSTRUMENT>  (4763) 
JEOL JMS-D-3000

>  <ION MODE>  (4763) 
P

>  <INCHIKEY>  (4763) 
VXZHPKCBWCBOAU-UHFFFAOYSA-N

>  <FORMULA>  (4763) 
C6H18Cl2Si3

>  <EXACT MASS>  (4763) 
244.00933552599997

>  <MW>  (4763) 
244

>  <ID>  (4763) 
JP004794

>  <CONTRIBUTOR>  (4763) 
University of Tokyo Team, {Faculty of Engineering, University of Tokyo

>  <COMMENT>  (4763) 
SMILES=C[Si](C)(Cl)[Si](C)(C)[Si](C)(C)Cl
InChI=InChI=1S/C6H18Cl2Si3/c1-9(2,7)11(5,6)10(3,4)8/h1-6H3
computed SMILES=Cl[Si](C)(C)[Si](C)(C)[Si](Cl)(C)C
accession=JP004794
date=2016.01.19 (Created 2008.10.21, modified 2011.05.06)
author=MASS SPECTROSCOPY SOC. OF JAPAN (MSSJ)
license=CC BY-NC-SA
exact mass=244.00934
ionization energy=70 eV
ion type=[M]+*
computed spectral entropy=2.689669465908847
computed normalized entropy=0.7196113462655789
SPLASH=splash10-0fk9-9710000000-746fdbca9036f9a0f1fe
submitter=submitter = University of Tokyo Team (Faculty of Engineering, University of Tokyo)
MoNA Rating=3.75

>  <NUM PEAKS>  (4763) 
42

>  <MASS SPECTRAL PEAKS>  (4763) 
43 7.49
44 1.21
45 7.61
55 1.39
58 2.08
59 3.92
63 2.06
65 3.56
67 1.14
73 99.99
74 8.66
75 4.21
85 1.27
93 8.12
95 2.93
101 2.32
116 32.16
117 5.51
118 2.49
119 1.11
121 1
131 9.03
132 1.48
133 1.48
135 2.29
137 1
147 1.76
151 39.39
152 6.05
153 15.52
154 2.21
155 1
191 5.21
205 2.83
209 2.84
211 1.44
221 6.97
222 1.67
229 1.36
231 1.03
244 0.69
246 0.52

$$$$

     RDKit          2D

  8  8  0  0  0  0  0  0  0  0999 V2000
   -1.3000    0.7500    0.0000 C   0  0  0  0  0  0  0  0  0  0  0  0
   -0.0000   -1.5000    0.0000 C   0  0  0  0  0  0  0  0  0  0  0  0
    0.0000    1.5000    0.0000 C   0  0  0  0  0  0  0  0  0  0  0  0
    1.3000   -0.7500    0.0000 C   0  0  0  0  0  0  0  0  0  0  0  0
   -1.3000   -0.7500    0.0000 C   0  0  0  0  0  0  0  0  0  0  0  0
    1.3000    0.7500    0.0000 C   0  0  0  0  0  0  0  0  0  0  0  0
   -2.5989   -1.5002    0.0000 Br  0  0  0  0  0  0  0  0  0  0  0  0
    2.5989    1.5002    0.0000 O   0  0  0  0  0  0  0  0  0  0  0  0
  3  1  2  0
  4  2  1  0
  5  1  1  0
  5  2  2  0
  6  3  1  0
  6  4  2  0
  7  5  1  0
  8  6  1  0
M  END
>  <NAME>  (4764) 
4-BROMOPHENOL

>  <SYNONYMS>  (4764) 


>  <SPECTRUM TYPE>  (4764) 
MS1

>  <INSTRUMENT TYPE>  (4764) 
EI-B

>  <INSTRUMENT>  (4764) 
JEOL JMS-D-3000

>  <ION MODE>  (4764) 
P

>  <INCHIKEY>  (4764) 
GZFGOTFRPZRKDS-UHFFFAOYSA-N

>  <FORMULA>  (4764) 
C6H5BrO

>  <EXACT MASS>  (4764) 
171.95237688

>  <MW>  (4764) 
172

>  <ID>  (4764) 
JP004793

>  <CONTRIBUTOR>  (4764) 
University of Tokyo Team, {Faculty of Engineering, University of Tokyo

>  <COMMENT>  (4764) 
SMILES=Oc(c1)ccc(Br)c1
cas=106-41-2
InChI=InChI=1S/C6H5BrO/c7-5-1-3-6(8)4-2-5/h1-4,8H
computed SMILES=BrC1=CC=C(O)C=C1
accession=JP004793
date=2016.01.19 (Created 2008.10.21, modified 2011.05.06)
author=MASS SPECTROSCOPY SOC. OF JAPAN (MSSJ)
license=CC BY-NC-SA
exact mass=171.95238
ionization energy=70 eV
ion type=[M]+*
computed spectral entropy=2.5007403027184654
computed normalized entropy=0.7504762373024275
SPLASH=splash10-00di-6900000000-bd0a78cdcabcc25baaa9
submitter=submitter = University of Tokyo Team (Faculty of Engineering, University of Tokyo)
MoNA Rating=3.75

>  <NUM PEAKS>  (4764) 
28

>  <MASS SPECTRAL PEAKS>  (4764) 
43 1.42
46 6.29
49 1.84
50 6.04
51 2.34
53 5.28
60 1.42
61 5.28
62 8.3
63 17.86
64 10.57
65 55.28
66 3.77
74 2.93
86 6.79
87 6.29
92 3.27
93 34.73
94 2.76
117 2.34
119 3.94
143 9.22
145 9.47
171 6.62
172 99.99
173 12.5
174 97.65
175 6.79

$$$$

     RDKit          2D

 10 10  0  0  0  0  0  0  0  0999 V2000
   -3.5724    2.0075    0.0000 C   0  0  0  0  0  0  0  0  0  0  0  0
   -2.2733    1.2575    0.0000 C   0  0  0  0  0  0  0  0  0  0  0  0
    2.9228   -0.2425    0.0000 C   0  0  0  0  0  0  0  0  0  0  0  0
    2.9233    1.2583    0.0000 C   0  0  0  0  0  0  0  0  0  0  0  0
    1.6233   -0.9933    0.0000 C   0  0  0  0  0  0  0  0  0  0  0  0
    1.6243    2.0083    0.0000 C   0  0  0  0  0  0  0  0  0  0  0  0
    0.3243   -0.2433    0.0000 C   0  0  0  0  0  0  0  0  0  0  0  0
    0.3248    1.2575    0.0000 C   0  0  0  0  0  0  0  0  0  0  0  0
   -0.9743    2.0075    0.0000 C   0  0  0  0  0  0  0  0  0  0  0  0
   -0.9743    3.5075    0.0000 O   0  0  0  0  0  0  0  0  0  0  0  0
  2  1  1  0
  4  3  2  0
  5  3  1  0
  6  4  1  0
  7  5  2  0
  8  6  2  0
  8  7  1  0
  9  2  1  0
  9  8  1  0
 10  9  2  0
M  END
>  <NAME>  (4765) 
PROPIOPHENONE

>  <SYNONYMS>  (4765) 
1-PHENYL-1-PROPANONE

>  <SPECTRUM TYPE>  (4765) 
MS1

>  <INSTRUMENT TYPE>  (4765) 
EI-B

>  <INSTRUMENT>  (4765) 
JEOL JMS-D-3000

>  <ION MODE>  (4765) 
P

>  <INCHIKEY>  (4765) 
KRIOVPPHQSLHCZ-UHFFFAOYSA-N

>  <FORMULA>  (4765) 
C9H10O

>  <EXACT MASS>  (4765) 
134.07316494

>  <MW>  (4765) 
134

>  <ID>  (4765) 
JP004792

>  <CONTRIBUTOR>  (4765) 
University of Tokyo Team, {Faculty of Engineering, University of Tokyo

>  <COMMENT>  (4765) 
SMILES=CCC(=O)c(c1)cccc1
cas=93-55-0
InChI=InChI=1S/C9H10O/c1-2-9(10)8-6-4-3-5-7-8/h3-7H,2H2,1H3
computed SMILES=O=C(C=1C=CC=CC1)CC
accession=JP004792
date=2016.01.19 (Created 2008.10.21, modified 2011.05.06)
author=MASS SPECTROSCOPY SOC. OF JAPAN (MSSJ)
license=CC BY-NC-SA
exact mass=134.07316
ionization energy=70 eV
ion type=[M]+*
computed spectral entropy=1.4574643668426959
computed normalized entropy=0.6078098503200344
SPLASH=splash10-0a4i-5900000000-abf641e4be97c713405f
submitter=submitter = University of Tokyo Team (Faculty of Engineering, University of Tokyo)
MoNA Rating=3.75

>  <NUM PEAKS>  (4765) 
11

>  <MASS SPECTRAL PEAKS>  (4765) 
50 3.89
51 13.91
52 1.13
74 1.14
76 1.72
77 45.43
78 3.65
105 99.99
106 8.04
134 11.08
135 1.1

$$$$

     RDKit          2D

  5  4  0  0  0  0  0  0  0  0999 V2000
   -1.2990    0.7500    0.0000 C   0  0  0  0  0  0  0  0  0  0  0  0
    0.7500    0.2010    0.0000 C   0  0  0  0  0  0  0  0  0  0  0  0
    1.2990    2.2500    0.0000 C   0  0  0  0  0  0  0  0  0  0  0  0
   -0.7500    2.7990    0.0000 Cl  0  0  0  0  0  0  0  0  0  0  0  0
    0.0000    1.5000    0.0000 Ge  0  0  0  0  0  4  0  0  0  0  0  0
  5  1  1  0
  5  2  1  0
  5  3  1  0
  5  4  1  0
M  END
>  <NAME>  (4766) 
CHLOROTRIMETHYLGERMANE

>  <SYNONYMS>  (4766) 


>  <SPECTRUM TYPE>  (4766) 
MS1

>  <INSTRUMENT TYPE>  (4766) 
EI-B

>  <INSTRUMENT>  (4766) 
JEOL JMS-D-3000

>  <ION MODE>  (4766) 
P

>  <INCHIKEY>  (4766) 
ZZBNZZCHSNOXOH-UHFFFAOYSA-N

>  <FORMULA>  (4766) 
C3H9ClGe

>  <EXACT MASS>  (4766) 
153.96045576799997

>  <MW>  (4766) 
154

>  <ID>  (4766) 
JP004791

>  <CONTRIBUTOR>  (4766) 
University of Tokyo Team, {Faculty of Engineering, University of Tokyo

>  <COMMENT>  (4766) 
SMILES=C[Ge](C)(C)Cl
cas=1529-47-1
InChI=InChI=1S/C3H9ClGe/c1-5(2,3)4/h1-3H3
computed SMILES=Cl[Ge](C)(C)C
accession=JP004791
date=2016.01.19 (Created 2008.10.21, modified 2011.05.06)
author=MASS SPECTROSCOPY SOC. OF JAPAN (MSSJ)
license=CC BY-NC-SA
exact mass=153.96046
ionization energy=70 eV
ion type=[M]+*
computed spectral entropy=3.169830724920412
computed normalized entropy=0.791007530045577
SPLASH=splash10-000i-1900000000-6781bb2787cfec92ac63
submitter=submitter = University of Tokyo Team (Faculty of Engineering, University of Tokyo)
MoNA Rating=3.75

>  <NUM PEAKS>  (4766) 
55

>  <MASS SPECTRAL PEAKS>  (4766) 
43 2.35
58 1.29
70 2.32
71 2.42
72 2.84
73 3.85
74 3.22
75 4.03
84 1.92
85 8.77
86 3.19
87 15
88 6.75
89 17.03
90 2.19
91 7.64
93 1.17
99 1.82
100 2.83
101 1.85
102 3.77
103 2.76
104 4.75
105 6.42
107 11.07
108 2.38
109 14.93
110 1.05
111 6.85
113 1.15
115 30.61
116 1.8
117 40.63
118 14.77
119 54.4
120 3.58
121 12.17
122 5.1
123 3.35
124 5.94
125 1.64
126 2.41
135 46.83
136 1.56
137 76.29
138 19.65
139 99.99
140 8.49
141 43.49
142 1.07
143 5.54
150 1.49
152 2.18
154 2.97
156 1.23

$$$$

     RDKit          2D

  5  4  0  0  0  0  0  0  0  0999 V2000
   -1.2990    0.7500    0.0000 C   0  0  0  0  0  0  0  0  0  0  0  0
    0.7500    0.2010    0.0000 C   0  0  0  0  0  0  0  0  0  0  0  0
    1.2990    2.2500    0.0000 Cl  0  0  0  0  0  0  0  0  0  0  0  0
   -0.7500    2.7990    0.0000 Cl  0  0  0  0  0  0  0  0  0  0  0  0
    0.0000    1.5000    0.0000 Ge  0  0  0  0  0  4  0  0  0  0  0  0
  5  1  1  0
  5  2  1  0
  5  3  1  0
  5  4  1  0
M  END
>  <NAME>  (4767) 
DICHLORODIMETHYLGERMANE

>  <SYNONYMS>  (4767) 


>  <SPECTRUM TYPE>  (4767) 
MS1

>  <INSTRUMENT TYPE>  (4767) 
EI-B

>  <INSTRUMENT>  (4767) 
JEOL JMS-D-3000

>  <ION MODE>  (4767) 
P

>  <INCHIKEY>  (4767) 
YQECBLVSMFAWIZ-UHFFFAOYSA-N

>  <FORMULA>  (4767) 
C2H6Cl2Ge

>  <EXACT MASS>  (4767) 
173.905833352

>  <MW>  (4767) 
174

>  <ID>  (4767) 
JP004790

>  <CONTRIBUTOR>  (4767) 
University of Tokyo Team, {Faculty of Engineering, University of Tokyo

>  <COMMENT>  (4767) 
SMILES=C[Ge](C)(Cl)Cl
cas=1529-48-2
InChI=InChI=1S/C2H6Cl2Ge/c1-5(2,3)4/h1-2H3
computed SMILES=Cl[Ge](Cl)(C)C
accession=JP004790
date=2016.01.19 (Created 2008.10.21, modified 2011.05.06)
author=MASS SPECTROSCOPY SOC. OF JAPAN (MSSJ)
license=CC BY-NC-SA
exact mass=173.90583
ionization energy=70 eV
ion type=[M]+*
computed spectral entropy=3.0351929028663056
computed normalized entropy=0.7883315698125996
SPLASH=splash10-0a4i-0900000000-dc360d963018af4a1592
submitter=submitter = University of Tokyo Team (Faculty of Engineering, University of Tokyo)
MoNA Rating=3.75

>  <NUM PEAKS>  (4767) 
47

>  <MASS SPECTRAL PEAKS>  (4767) 
70 1.57
72 2.08
84 1.3
85 3.44
86 2
87 4.93
88 3.14
89 4.97
105 11.63
107 18.93
108 4.53
109 25.24
110 1.56
111 11.41
113 1.62
120 2.01
121 1.36
122 3.36
123 2.44
124 3.7
125 1.05
126 1.46
135 15.06
136 1.02
137 25.65
138 7.34
139 33.45
140 3.45
141 14.91
142 1.1
143 2.04
144 1.16
155 37.77
157 72.86
158 15.37
159 99.99
160 10.56
161 62.24
162 2.26
163 16
165 1.45
170 4.24
172 8.09
173 1.77
174 11.38
175 1.24
176 6.98

$$$$

     RDKit          2D

 10 10  0  0  0  0  0  0  0  0999 V2000
    4.0601    2.5380    0.0000 C   0  0  0  0  0  0  0  0  0  0  0  0
    2.4306   -0.6695    0.0000 C   0  0  0  0  0  0  0  0  0  0  0  0
    3.3100    1.2390    0.0000 C   0  0  0  0  0  0  0  0  0  0  0  0
   -0.9000   -1.4800    0.0000 C   0  0  0  0  0  0  0  0  0  0  0  0
    1.8100    1.2390    0.0000 C   0  0  0  0  0  0  0  0  0  0  0  0
    0.6000   -1.4800    0.0000 C   0  0  0  0  0  0  0  0  0  0  0  0
   -1.3600   -0.0600    0.0000 C   0  0  0  0  0  0  0  0  0  0  0  0
    1.0600   -0.0600    0.0000 C   0  0  0  0  0  0  0  0  0  0  0  0
   -2.7865    0.4038    0.0000 O   0  0  0  0  0  0  0  0  0  0  0  0
   -0.1500    0.8200    0.0000 O   0  0  0  0  0  0  0  0  0  0  0  0
  3  1  2  0
  5  3  1  0
  6  4  1  0
  7  4  1  0
  8  2  1  0
  8  5  1  0
  8  6  1  0
  9  7  2  0
 10  7  1  0
 10  8  1  0
M  END
>  <NAME>  (4768) 
4-METHYL-6-HEPTEN-4-OLIDE

>  <SYNONYMS>  (4768) 


>  <SPECTRUM TYPE>  (4768) 
MS1

>  <INSTRUMENT TYPE>  (4768) 
EI-B

>  <INSTRUMENT>  (4768) 
JEOL JMS-D-3000

>  <ION MODE>  (4768) 
P

>  <INCHIKEY>  (4768) 
HSHSOYVJJCKZDP-UHFFFAOYSA-N

>  <FORMULA>  (4768) 
C8H12O2

>  <EXACT MASS>  (4768) 
140.083729624

>  <MW>  (4768) 
140

>  <ID>  (4768) 
JP004789

>  <CONTRIBUTOR>  (4768) 
University of Tokyo Team, {Faculty of Engineering, University of Tokyo

>  <COMMENT>  (4768) 
SMILES=C=CCC(C)(C1)OC(=O)C1
InChI=InChI=1S/C8H12O2/c1-3-5-8(2)6-4-7(9)10-8/h3H,1,4-6H2,2H3
computed SMILES=O=C1OC(C)(CC=C)CC1
accession=JP004789
date=2016.01.19 (Created 2008.10.21, modified 2011.05.06)
author=MASS SPECTROSCOPY SOC. OF JAPAN (MSSJ)
license=CC BY-NC-SA
exact mass=140.08373
ionization energy=70 eV
ion type=[M]+*
computed spectral entropy=1.1873795346765523
computed normalized entropy=0.47783667639098376
SPLASH=splash10-0002-9000000000-49b20d696fe378e75179
submitter=submitter = University of Tokyo Team (Faculty of Engineering, University of Tokyo)
MoNA Rating=3.75

>  <NUM PEAKS>  (4768) 
12

>  <MASS SPECTRAL PEAKS>  (4768) 
55 2.64
57 7.89
67 1.5
69 1.17
71 12.31
79 1.78
81 2.94
85 1.83
99 99.99
100 6.14
125 1.85
140 0.52

$$$$

     RDKit          2D

 19 21  0  0  0  0  0  0  0  0999 V2000
    0.0000    2.2500    0.0000 C   0  0  0  0  0  0  0  0  0  0  0  0
   -3.8526   -2.3912    0.0000 C   0  0  0  0  0  0  0  0  0  0  0  0
   -9.8284   -3.2811    0.0000 C   0  0  0  0  0  0  0  0  0  0  0  0
   -9.8284   -1.7811    0.0000 C   0  0  0  0  0  0  0  0  0  0  0  0
   -8.5294   -4.0311    0.0000 C   0  0  0  0  0  0  0  0  0  0  0  0
   -1.0570   -0.1235    0.0000 C   0  0  0  0  0  0  0  0  0  0  0  0
   -2.5847    1.9785    0.0000 C   0  0  0  0  0  0  0  0  0  0  0  0
   -2.2716   -1.0051    0.0000 C   0  0  0  0  0  0  0  0  0  0  0  0
   -3.7993    1.0970    0.0000 C   0  0  0  0  0  0  0  0  0  0  0  0
   -8.5294   -1.0311    0.0000 C   0  0  0  0  0  0  0  0  0  0  0  0
   -7.2303   -3.2811    0.0000 C   0  0  0  0  0  0  0  0  0  0  0  0
   -5.6063    0.0225    0.0000 C   0  0  0  0  0  0  0  0  0  0  0  0
   -5.8600   -2.3912    0.0000 C   0  0  0  0  0  0  0  0  0  0  0  0
   -1.2135    1.3683    0.0000 C   0  0  0  0  0  0  0  0  0  0  0  0
   -3.6428   -0.3948    0.0000 C   0  0  0  0  0  0  0  0  0  0  0  0
   -7.0735   -0.2894    0.0000 C   0  0  0  0  0  0  0  0  0  0  0  0
   -4.8563   -1.2765    0.0000 C   0  0  0  0  0  0  0  0  0  0  0  0
   -7.2303   -1.7811    0.0000 C   0  0  0  0  0  0  0  0  0  0  0  0
   -8.1882    0.7143    0.0000 O   0  0  0  0  0  0  0  0  0  0  0  0
  4  3  1  0
  5  3  1  0
  8  6  2  0
  9  7  1  0
 10  4  1  0
 11  5  1  0
 14  1  1  0
 14  6  1  0
 14  7  2  0
 15  8  1  0
 15  9  2  0
 16 12  1  0
 17  2  1  0
 17 12  1  0
 17 13  1  0
 17 15  1  0
 18 10  1  0
 18 11  1  0
 18 13  1  0
 18 16  1  0
 19 16  2  0
M  END
>  <NAME>  (4769) 
3-METHYL-3-PARA-TOLYLSPIRO(4,5)DECAN-1-ONE

>  <SYNONYMS>  (4769) 


>  <SPECTRUM TYPE>  (4769) 
MS1

>  <INSTRUMENT TYPE>  (4769) 
EI-B

>  <INSTRUMENT>  (4769) 
JEOL JMS-D-3000

>  <ION MODE>  (4769) 
P

>  <INCHIKEY>  (4769) 
CRGRICRBYBKJMS-UHFFFAOYSA-N

>  <FORMULA>  (4769) 
C18H24O

>  <EXACT MASS>  (4769) 
256.18271538799996

>  <MW>  (4769) 
256

>  <ID>  (4769) 
JP004788

>  <CONTRIBUTOR>  (4769) 
University of Tokyo Team, {Faculty of Engineering, University of Tokyo

>  <COMMENT>  (4769) 
SMILES=Cc(c3)ccc(c3)C(C)(C1)CC(C2)(CCCC2)C(=O)1
InChI=InChI=1S/C18H24O/c1-14-6-8-15(9-7-14)17(2)12-16(19)18(13-17)10-4-3-5-11-18/h6-9H,3-5,10-13H2,1-2H3
computed SMILES=O=C1CC(C2=CC=C(C=C2)C)(C)CC13CCCCC3
accession=JP004788
date=2016.01.19 (Created 2008.10.21, modified 2011.05.06)
author=MASS SPECTROSCOPY SOC. OF JAPAN (MSSJ)
license=CC BY-NC-SA
exact mass=256.18272
ionization energy=70 eV
ion type=[M]+*
computed spectral entropy=3.2272884989513586
computed normalized entropy=0.8478000105404884
SPLASH=splash10-053r-1950000000-d6c286b042f4e186b977
submitter=submitter = University of Tokyo Team (Faculty of Engineering, University of Tokyo)
MoNA Rating=3.75

>  <NUM PEAKS>  (4769) 
45

>  <MASS SPECTRAL PEAKS>  (4769) 
54 2.8
55 4.51
67 5.13
77 3.77
79 3.87
81 9.32
82 3.46
91 11.29
92 4.61
93 4.4
95 7.59
96 3.34
105 12.39
115 8.32
116 4.17
117 18.45
118 2.91
119 23.85
120 2.73
123 3.93
124 5.01
128 2.93
129 3.07
131 9.35
132 99.99
133 19.07
143 4.64
145 8.19
157 6.25
159 17.26
160 3.64
161 5.89
171 3.13
173 2.77
175 9.78
188 10.83
199 4.07
201 47.49
202 7.85
213 12.26
214 8.36
215 10.94
241 13.25
256 64.07
257 12.87

$$$$

     RDKit          2D

 19 21  0  0  0  0  0  0  0  0999 V2000
   -5.3224   -2.9391    0.0000 C   0  0  0  0  0  0  0  0  0  0  0  0
   -2.0942    1.5277    0.0000 C   0  0  0  0  0  0  0  0  0  0  0  0
    0.4896   -2.9641    0.0000 C   0  0  0  0  0  0  0  0  0  0  0  0
   -0.8094   -2.2141    0.0000 C   0  0  0  0  0  0  0  0  0  0  0  0
    1.7887   -2.2141    0.0000 C   0  0  0  0  0  0  0  0  0  0  0  0
   -4.4335   -0.4977    0.0000 C   0  0  0  0  0  0  0  0  0  0  0  0
   -2.7629   -2.4880    0.0000 C   0  0  0  0  0  0  0  0  0  0  0  0
   -3.2834    0.4665    0.0000 C   0  0  0  0  0  0  0  0  0  0  0  0
   -1.6127   -1.5239    0.0000 C   0  0  0  0  0  0  0  0  0  0  0  0
    1.2396    2.3442    0.0000 C   0  0  0  0  0  0  0  0  0  0  0  0
   -0.8094   -0.7141    0.0000 C   0  0  0  0  0  0  0  0  0  0  0  0
    1.7887   -0.7141    0.0000 C   0  0  0  0  0  0  0  0  0  0  0  0
   -0.2604    2.3442    0.0000 C   0  0  0  0  0  0  0  0  0  0  0  0
   -4.1733   -1.9749    0.0000 C   0  0  0  0  0  0  0  0  0  0  0  0
   -1.8730   -0.0466    0.0000 C   0  0  0  0  0  0  0  0  0  0  0  0
    1.7031    0.9176    0.0000 C   0  0  0  0  0  0  0  0  0  0  0  0
   -0.7239    0.9176    0.0000 C   0  0  0  0  0  0  0  0  0  0  0  0
    0.4896    0.0359    0.0000 C   0  0  0  0  0  0  0  0  0  0  0  0
    3.1297    0.4540    0.0000 O   0  0  0  0  0  0  0  0  0  0  0  0
  4  3  1  0
  5  3  1  0
  8  6  2  0
  9  7  1  0
 11  4  1  0
 12  5  1  0
 13 10  1  0
 14  1  1  0
 14  6  1  0
 14  7  2  0
 15  8  1  0
 15  9  2  0
 16 10  1  0
 17  2  1  0
 17 13  1  0
 17 15  1  0
 18 11  1  0
 18 12  1  0
 18 16  1  0
 18 17  1  0
 19 16  2  0
M  END
>  <NAME>  (4770) 
4-METHYL-4-PARA-TOLYLSPIRO(4,5)DECAN-1-ONE

>  <SYNONYMS>  (4770) 


>  <SPECTRUM TYPE>  (4770) 
MS1

>  <INSTRUMENT TYPE>  (4770) 
EI-B

>  <INSTRUMENT>  (4770) 
JEOL JMS-D-3000

>  <ION MODE>  (4770) 
P

>  <INCHIKEY>  (4770) 
QBXOFBXUZLPVDH-UHFFFAOYSA-N

>  <FORMULA>  (4770) 
C18H24O

>  <EXACT MASS>  (4770) 
256.182715388

>  <MW>  (4770) 
256

>  <ID>  (4770) 
JP004787

>  <CONTRIBUTOR>  (4770) 
University of Tokyo Team, {Faculty of Engineering, University of Tokyo

>  <COMMENT>  (4770) 
SMILES=Cc(c3)ccc(c3)C(C)(C1)C(C2)(CCCC2)C(=O)C1
InChI=InChI=1S/C18H24O/c1-14-6-8-15(9-7-14)17(2)13-10-16(19)18(17)11-4-3-5-12-18/h6-9H,3-5,10-13H2,1-2H3
computed SMILES=O=C1CCC(C2=CC=C(C=C2)C)(C)C13CCCCC3
accession=JP004787
date=2016.01.19 (Created 2008.10.21, modified 2011.05.06)
author=MASS SPECTROSCOPY SOC. OF JAPAN (MSSJ)
license=CC BY-NC-SA
exact mass=256.18272
ionization energy=70 eV
ion type=[M]+*
computed spectral entropy=3.046146645470783
computed normalized entropy=0.8098868849760938
SPLASH=splash10-001i-6920000000-6360669ff611e21c076e
submitter=submitter = University of Tokyo Team (Faculty of Engineering, University of Tokyo)
MoNA Rating=3.75

>  <NUM PEAKS>  (4770) 
43

>  <MASS SPECTRAL PEAKS>  (4770) 
29 3.16
32 92.33
40 6.42
41 5.48
43 8.52
44 3.55
53 2.47
55 6.4
67 7.28
77 3.74
79 5.15
80 6.03
81 14.53
82 2.98
83 23.3
91 9.47
92 2.93
95 3.74
105 8.57
109 4.91
110 3.21
111 8.5
115 5.65
116 2.8
117 8.83
119 8.65
124 47.38
125 5.24
128 4.21
129 4.46
130 2.75
131 10.51
132 99.99
133 18.47
137 2.51
143 4.24
145 20.16
146 4.61
160 7.58
173 3.43
241 3.58
256 53.11
257 10.73

$$$$

     RDKit          2D

 18 20  0  0  0  0  0  0  0  0999 V2000
  -13.9799    7.9949    0.0000 C   0  0  0  0  0  0  0  0  0  0  0  0
   -6.7200    5.1500    0.0000 C   0  0  0  0  0  0  0  0  0  0  0  0
   -7.6000    3.9300    0.0000 C   0  0  0  0  0  0  0  0  0  0  0  0
  -16.4065    2.9654    0.0000 C   0  0  0  0  0  0  0  0  0  0  0  0
   -7.6000    6.3600    0.0000 C   0  0  0  0  0  0  0  0  0  0  0  0
  -16.5645    4.4579    0.0000 C   0  0  0  0  0  0  0  0  0  0  0  0
  -15.0353    2.3551    0.0000 C   0  0  0  0  0  0  0  0  0  0  0  0
   -9.0300    4.4000    0.0000 C   0  0  0  0  0  0  0  0  0  0  0  0
   -9.0300    5.9000    0.0000 C   0  0  0  0  0  0  0  0  0  0  0  0
  -15.3513    5.3401    0.0000 C   0  0  0  0  0  0  0  0  0  0  0  0
  -13.8222    3.2373    0.0000 C   0  0  0  0  0  0  0  0  0  0  0  0
  -10.4600    3.9300    0.0000 C   0  0  0  0  0  0  0  0  0  0  0  0
  -11.3392    7.5753    0.0000 C   0  0  0  0  0  0  0  0  0  0  0  0
  -12.7668    7.1127    0.0000 C   0  0  0  0  0  0  0  0  0  0  0  0
  -10.4600    6.3600    0.0000 C   0  0  0  0  0  0  0  0  0  0  0  0
  -13.9802    4.7298    0.0000 C   0  0  0  0  0  0  0  0  0  0  0  0
  -11.3400    5.1500    0.0000 C   0  0  0  0  0  0  0  0  0  0  0  0
  -12.7670    5.6120    0.0000 N   0  0  0  0  0  0  0  0  0  0  0  0
  3  2  1  0
  5  2  1  0
  6  4  1  0
  7  4  1  0
  8  3  1  0
  9  5  1  0
 10  6  1  0
 11  7  1  0
 12  8  1  0
 14  1  1  0
 14 13  2  0
 15  9  1  0
 15 13  1  0
 16 10  1  0
 16 11  1  0
 17 12  1  0
 17 15  2  0
 18 14  1  0
 18 16  1  0
 18 17  1  0
M  END
>  <NAME>  (4771) 
1-CYCLOHEXYL-2-METHYL-4,5,6,7,8,9-HEXAHYDROCYCLOOCTA(B)PYRROLE

>  <SYNONYMS>  (4771) 


>  <SPECTRUM TYPE>  (4771) 
MS1

>  <INSTRUMENT TYPE>  (4771) 
EI-B

>  <INSTRUMENT>  (4771) 
JEOL JMS-D-3000

>  <ION MODE>  (4771) 
P

>  <INCHIKEY>  (4771) 
PVLINPQETXKYJN-UHFFFAOYSA-N

>  <FORMULA>  (4771) 
C17H27N

>  <EXACT MASS>  (4771) 
245.21434986399998

>  <MW>  (4771) 
245

>  <ID>  (4771) 
JP004786

>  <CONTRIBUTOR>  (4771) 
University of Tokyo Team, {Faculty of Engineering, University of Tokyo

>  <COMMENT>  (4771) 
SMILES=C(C3)CCc(c([H])1)c(CC3)n(C(C2)CCCC2)c(C)1
InChI=InChI=1S/C17H27N/c1-14-13-15-9-5-2-3-8-12-17(15)18(14)16-10-6-4-7-11-16/h13,16H,2-12H2,1H3
computed SMILES=C=1C2=C(N(C1C)C3CCCCC3)CCCCCC2
accession=JP004786
date=2016.01.19 (Created 2008.10.21, modified 2011.05.06)
author=MASS SPECTROSCOPY SOC. OF JAPAN (MSSJ)
license=CC BY-NC-SA
exact mass=245.21435
ionization energy=70 eV
ion type=[M]+*
computed spectral entropy=3.7278914445599103
computed normalized entropy=0.9180996839205097
SPLASH=splash10-0ldm-4970000000-40008f56db2ef9ac9dcc
submitter=submitter = University of Tokyo Team (Faculty of Engineering, University of Tokyo)
MoNA Rating=3.75

>  <NUM PEAKS>  (4771) 
58

>  <MASS SPECTRAL PEAKS>  (4771) 
41 41.47
42 10.23
53 8.43
55 39.06
65 8.33
66 5.57
67 8.21
77 10.59
79 11.84
81 8.04
83 10.34
91 9.33
93 8.61
94 29.49
95 10.13
96 6.56
106 9.21
107 40.72
108 40.92
109 8.94
117 6.52
118 7.06
120 44.76
121 29.39
122 12.56
131 5.8
132 25.07
133 11.31
134 29.53
135 10.29
144 5.65
146 16.58
148 11.06
160 11.14
161 6.86
162 24.72
163 19.43
164 12.01
174 5.37
176 19.88
177 17.22
188 6.35
189 21.05
190 33.34
191 11.61
202 66.83
203 13.53
214 6.7
216 54.85
217 76.68
218 12.71
228 7.18
230 11.05
242 5.4
243 28.51
244 18.76
245 99.99
246 19.31

$$$$

     RDKit          2D

 17 19  0  0  0  0  0  0  0  0999 V2000
    4.3800   -0.0000    0.0000 C   0  0  0  0  0  0  0  0  0  0  0  0
   -2.7100   -0.0000    0.0000 C   0  0  0  0  0  0  0  0  0  0  0  0
    3.3958   -5.4880    0.0000 C   0  0  0  0  0  0  0  0  0  0  0  0
   -2.0600    1.3500    0.0000 C   0  0  0  0  0  0  0  0  0  0  0  0
    1.9273   -5.1783    0.0000 C   0  0  0  0  0  0  0  0  0  0  0  0
    4.3991   -4.3718    0.0000 C   0  0  0  0  0  0  0  0  0  0  0  0
   -2.0600   -1.3500    0.0000 C   0  0  0  0  0  0  0  0  0  0  0  0
   -0.6000    1.6900    0.0000 C   0  0  0  0  0  0  0  0  0  0  0  0
    1.4620   -3.7523    0.0000 C   0  0  0  0  0  0  0  0  0  0  0  0
    3.9338   -2.9458    0.0000 C   0  0  0  0  0  0  0  0  0  0  0  0
   -0.6000   -1.6900    0.0000 C   0  0  0  0  0  0  0  0  0  0  0  0
    2.0000    1.2100    0.0000 C   0  0  0  0  0  0  0  0  0  0  0  0
    2.8800   -0.0000    0.0000 C   0  0  0  0  0  0  0  0  0  0  0  0
    0.5700    0.7500    0.0000 C   0  0  0  0  0  0  0  0  0  0  0  0
    2.4653   -2.6360    0.0000 C   0  0  0  0  0  0  0  0  0  0  0  0
    0.5700   -0.7500    0.0000 C   0  0  0  0  0  0  0  0  0  0  0  0
    2.0000   -1.2100    0.0000 N   0  0  0  0  0  0  0  0  0  0  0  0
  4  2  1  0
  5  3  1  0
  6  3  1  0
  7  2  1  0
  8  4  1  0
  9  5  1  0
 10  6  1  0
 11  7  1  0
 13  1  1  0
 13 12  2  0
 14  8  1  0
 14 12  1  0
 15  9  1  0
 15 10  1  0
 16 11  1  0
 16 14  2  0
 17 13  1  0
 17 15  1  0
 17 16  1  0
M  END
>  <NAME>  (4772) 
1-CYCLOHEXYL-2-METHYL-1,4,5,6,7,8-HEXAHYDRO-1-AZAAZULENE

>  <SYNONYMS>  (4772) 


>  <SPECTRUM TYPE>  (4772) 
MS1

>  <INSTRUMENT TYPE>  (4772) 
EI-B

>  <INSTRUMENT>  (4772) 
JEOL JMS-D-3000

>  <ION MODE>  (4772) 
P

>  <INCHIKEY>  (4772) 
ZBJSOGJLJZYIHY-UHFFFAOYSA-N

>  <FORMULA>  (4772) 
C16H25N

>  <EXACT MASS>  (4772) 
231.19869979999999

>  <MW>  (4772) 
231

>  <ID>  (4772) 
JP004785

>  <CONTRIBUTOR>  (4772) 
University of Tokyo Team, {Faculty of Engineering, University of Tokyo

>  <COMMENT>  (4772) 
SMILES=C(C3)CCC(C3)n(c(C)1)c(C2)c(CCCC2)c([H])1
InChI=InChI=1S/C16H25N/c1-13-12-14-8-4-2-7-11-16(14)17(13)15-9-5-3-6-10-15/h12,15H,2-11H2,1H3
computed SMILES=C=1C2=C(N(C1C)C3CCCCC3)CCCCC2
accession=JP004785
date=2016.01.19 (Created 2008.10.21, modified 2011.05.06)
author=MASS SPECTROSCOPY SOC. OF JAPAN (MSSJ)
license=CC BY-NC-SA
exact mass=231.1987
ionization energy=70 eV
ion type=[M]+*
computed spectral entropy=3.105969918301689
computed normalized entropy=0.9131989619443404
SPLASH=splash10-053s-4960000000-73f728064cfa5e826609
submitter=submitter = University of Tokyo Team (Faculty of Engineering, University of Tokyo)
MoNA Rating=3.75

>  <NUM PEAKS>  (4772) 
30

>  <MASS SPECTRAL PEAKS>  (4772) 
41 27.68
42 6.37
55 25.01
77 7.53
79 8.74
91 5.75
93 7.4
94 15.12
95 14.43
107 22.53
108 27.51
120 31.66
121 16.79
132 8.9
134 14.09
146 9.06
147 5.9
148 48.45
149 32.68
150 17.86
176 8.33
177 9.35
190 8.5
202 21.61
203 12.95
216 13.51
229 8.77
230 16.66
231 99.99
232 18.12

$$$$

     RDKit          2D

 18 18  0  0  0  0  0  0  0  0999 V2000
  -11.0027   -2.6476    0.0000 C   0  0  0  0  0  0  0  0  0  0  0  0
   -2.0876   -3.8871    0.0000 C   0  0  0  0  0  0  0  0  0  0  0  0
   -1.1234   -5.5572    0.0000 C   0  0  0  0  0  0  0  0  0  0  0  0
    1.6529   -0.7485    0.0000 C   0  0  0  0  0  0  0  0  0  0  0  0
   -0.2755   -0.7485    0.0000 C   0  0  0  0  0  0  0  0  0  0  0  0
   -9.7036   -1.8976    0.0000 C   0  0  0  0  0  0  0  0  0  0  0  0
   -8.4046   -2.6476    0.0000 C   0  0  0  0  0  0  0  0  0  0  0  0
   -7.1055   -1.8976    0.0000 C   0  0  0  0  0  0  0  0  0  0  0  0
   -5.8065   -2.6476    0.0000 C   0  0  0  0  0  0  0  0  0  0  0  0
   -4.5075   -1.8976    0.0000 C   0  0  0  0  0  0  0  0  0  0  0  0
   -3.2084   -2.6476    0.0000 C   0  0  0  0  0  0  0  0  0  0  0  0
    1.9877   -4.1476    0.0000 C   0  0  0  0  0  0  0  0  0  0  0  0
   -1.9094   -1.8976    0.0000 C   0  0  0  0  0  0  0  0  0  0  0  0
    0.6887   -4.8976    0.0000 C   0  0  0  0  0  0  0  0  0  0  0  0
    1.9877   -2.6476    0.0000 C   0  0  0  0  0  0  0  0  0  0  0  0
   -0.6103   -2.6476    0.0000 N   0  0  0  0  0  0  0  0  0  0  0  0
   -0.6103   -4.1476    0.0000 Si  0  0  0  0  0  4  0  0  0  0  0  0
    0.6887   -1.8976    0.0000 Si  0  0  0  0  0  4  0  0  0  0  0  0
  6  1  1  0
  7  6  1  0
  8  7  1  0
  9  8  1  0
 10  9  1  0
 11 10  1  0
 13 11  1  0
 14 12  1  0
 15 12  1  0
 16 13  1  0
 17  2  1  0
 17  3  1  0
 17 14  1  0
 17 16  1  0
 18  4  1  0
 18  5  1  0
 18 15  1  0
 18 16  1  0
M  END
>  <NAME>  (4773) 
1-OCTYL-2,2,6,6-TETRAMETHYL-2,6-DISILAPIPERIDINE

>  <SYNONYMS>  (4773) 


>  <SPECTRUM TYPE>  (4773) 
MS1

>  <INSTRUMENT TYPE>  (4773) 
EI-B

>  <INSTRUMENT>  (4773) 
JEOL JMS-D-3000

>  <ION MODE>  (4773) 
P

>  <INCHIKEY>  (4773) 
AFMAQORKHHJCAG-UHFFFAOYSA-N

>  <FORMULA>  (4773) 
C15H35NSi2

>  <EXACT MASS>  (4773) 
285.23080318

>  <MW>  (4773) 
285

>  <ID>  (4773) 
JP004784

>  <CONTRIBUTOR>  (4773) 
University of Tokyo Team, {Faculty of Engineering, University of Tokyo

>  <COMMENT>  (4773) 
SMILES=CCCCCCCCN([Si](C)(C)1)[Si](C)(C)CCC1
InChI=InChI=1S/C15H35NSi2/c1-6-7-8-9-10-11-13-16-17(2,3)14-12-15-18(16,4)5/h6-15H2,1-5H3
computed SMILES=N1(CCCCCCCC)[Si](C)(C)CCC[Si]1(C)C
accession=JP004784
date=2016.01.19 (Created 2008.10.21, modified 2011.05.06)
author=MASS SPECTROSCOPY SOC. OF JAPAN (MSSJ)
license=CC BY-NC-SA
exact mass=285.2308
ionization energy=70 eV
ion type=[M]+*
computed spectral entropy=1.5604199222723794
computed normalized entropy=0.5299549195324565
SPLASH=splash10-000i-1900000000-02775825fa26b180afd8
submitter=submitter = University of Tokyo Team (Faculty of Engineering, University of Tokyo)
MoNA Rating=3.75

>  <NUM PEAKS>  (4773) 
19

>  <MASS SPECTRAL PEAKS>  (4773) 
44 1.01
59 6.16
73 3.53
85 1.51
86 1.27
88 1.46
99 1.07
117 1.16
144 1.13
158 1.27
184 1.06
186 99.99
187 20.27
188 8.45
189 1.07
270 5.83
271 1.4
284 1.06
285 3.65

$$$$

     RDKit          2D

 19 19  0  0  0  0  0  0  0  0999 V2000
  -14.2904   -0.7521    0.0000 C   0  0  0  0  0  0  0  0  0  0  0  0
    2.5989    1.5002    0.0000 C   0  0  0  0  0  0  0  0  0  0  0  0
  -12.9912   -1.5019    0.0000 C   0  0  0  0  0  0  0  0  0  0  0  0
  -11.6923   -0.7517    0.0000 C   0  0  0  0  0  0  0  0  0  0  0  0
  -10.3931   -1.5015    0.0000 C   0  0  0  0  0  0  0  0  0  0  0  0
   -9.0942   -0.7512    0.0000 C   0  0  0  0  0  0  0  0  0  0  0  0
   -7.7951   -1.5010    0.0000 C   0  0  0  0  0  0  0  0  0  0  0  0
   -6.4962   -0.7508    0.0000 C   0  0  0  0  0  0  0  0  0  0  0  0
    0.0000    1.5000    0.0000 C   0  0  0  0  0  0  0  0  0  0  0  0
    1.3000   -0.7500    0.0000 C   0  0  0  0  0  0  0  0  0  0  0  0
   -1.3000    0.7500    0.0000 C   0  0  0  0  0  0  0  0  0  0  0  0
   -0.0000   -1.5000    0.0000 C   0  0  0  0  0  0  0  0  0  0  0  0
   -5.1970   -1.5006    0.0000 C   0  0  0  0  0  0  0  0  0  0  0  0
    1.3000    0.7500    0.0000 C   0  0  0  0  0  0  0  0  0  0  0  0
   -1.3000   -0.7500    0.0000 C   0  0  0  0  0  0  0  0  0  0  0  0
   -3.5629   -2.6494    0.0000 O   0  0  0  0  0  0  0  0  0  0  0  0
   -1.6346   -2.6491    0.0000 O   0  0  0  0  0  0  0  0  0  0  0  0
   -3.8981   -0.7504    0.0000 O   0  0  0  0  0  0  0  0  0  0  0  0
   -2.5989   -1.5002    0.0000 S   0  0  0  0  0  0  0  0  0  0  0  0
  3  1  1  0
  4  3  1  0
  5  4  1  0
  6  5  1  0
  7  6  1  0
  8  7  1  0
 11  9  2  0
 12 10  1  0
 13  8  1  0
 14  2  1  0
 14  9  1  0
 14 10  2  0
 15 11  1  0
 15 12  2  0
 18 13  1  0
 19 15  1  0
 19 16  2  0
 19 17  2  0
 19 18  1  0
M  END
>  <NAME>  (4774) 
OCTYL P-TOLUENESULFONATE

>  <SYNONYMS>  (4774) 
4-METHYLBENZENESULFONIC ACID OCTYL ESTER

>  <SPECTRUM TYPE>  (4774) 
MS1

>  <INSTRUMENT TYPE>  (4774) 
EI-B

>  <INSTRUMENT>  (4774) 
JEOL JMS-D-3000

>  <ION MODE>  (4774) 
P

>  <INCHIKEY>  (4774) 
LYQJBZLAANNIER-UHFFFAOYSA-N

>  <FORMULA>  (4774) 
C15H24O3S

>  <EXACT MASS>  (4774) 
284.144615628

>  <MW>  (4774) 
284

>  <ID>  (4774) 
JP004783

>  <CONTRIBUTOR>  (4774) 
University of Tokyo Team, {Faculty of Engineering, University of Tokyo

>  <COMMENT>  (4774) 
SMILES=CCCCCCCCOS(=O)(=O)c(c1)ccc(C)c1
cas=3386-35-4
InChI=InChI=1S/C15H24O3S/c1-3-4-5-6-7-8-13-18-19(16,17)15-11-9-14(2)10-12-15/h9-12H,3-8,13H2,1-2H3
computed SMILES=O=S(=O)(OCCCCCCCC)C1=CC=C(C=C1)C
accession=JP004783
date=2016.01.19 (Created 2008.10.21, modified 2011.05.06)
author=MASS SPECTROSCOPY SOC. OF JAPAN (MSSJ)
license=CC BY-NC-SA
exact mass=284.14462
ionization energy=70 eV
ion type=[M]+*
computed spectral entropy=2.9446448483451997
computed normalized entropy=0.8836927143437464
SPLASH=splash10-00dl-9400000000-93a513565490bc4670a3
submitter=submitter = University of Tokyo Team (Faculty of Engineering, University of Tokyo)
MoNA Rating=3.75

>  <NUM PEAKS>  (4774) 
28

>  <MASS SPECTRAL PEAKS>  (4774) 
41 34.08
42 15.72
43 22.41
55 38.13
56 45.27
57 20.26
65 15.64
68 6.85
69 39.9
70 50.76
71 8.17
82 7.3
83 32.43
84 67.76
85 5.15
91 63.02
92 10.68
107 4.62
111 4.95
112 61.28
113 5.98
155 29.46
157 4.66
172 38.09
173 99.99
174 10.27
175 5.36
284 0.33

$$$$

     RDKit          2D

 17 16  0  0  0  0  0  0  0  0999 V2000
  -11.0418    5.6250    0.0000 C   0  0  0  0  0  0  0  0  0  0  0  0
   -0.1005    3.5760    0.0000 C   0  0  0  0  0  0  0  0  0  0  0  0
    1.9486    4.1250    0.0000 C   0  0  0  0  0  0  0  0  0  0  0  0
    1.3995    6.1740    0.0000 C   0  0  0  0  0  0  0  0  0  0  0  0
    0.8505    7.1250    0.0000 C   0  0  0  0  0  0  0  0  0  0  0  0
   -0.6495    8.6250    0.0000 C   0  0  0  0  0  0  0  0  0  0  0  0
   -2.1495    7.1250    0.0000 C   0  0  0  0  0  0  0  0  0  0  0  0
   -9.7428    4.8750    0.0000 C   0  0  0  0  0  0  0  0  0  0  0  0
   -8.4437    5.6250    0.0000 C   0  0  0  0  0  0  0  0  0  0  0  0
   -7.1447    4.8750    0.0000 C   0  0  0  0  0  0  0  0  0  0  0  0
   -5.8457    5.6250    0.0000 C   0  0  0  0  0  0  0  0  0  0  0  0
   -4.5466    4.8750    0.0000 C   0  0  0  0  0  0  0  0  0  0  0  0
   -3.2476    5.6250    0.0000 C   0  0  0  0  0  0  0  0  0  0  0  0
   -1.9486    4.8750    0.0000 C   0  0  0  0  0  0  0  0  0  0  0  0
   -0.6495    5.6250    0.0000 N   0  0  0  0  0  0  0  0  0  0  0  0
    0.6495    4.8750    0.0000 Si  0  0  0  0  0  4  0  0  0  0  0  0
   -0.6495    7.1250    0.0000 Si  0  0  0  0  0  4  0  0  0  0  0  0
  8  1  1  0
  9  8  1  0
 10  9  1  0
 11 10  1  0
 12 11  1  0
 13 12  1  0
 14 13  1  0
 15 14  1  0
 16  2  1  0
 16  3  1  0
 16  4  1  0
 16 15  1  0
 17  5  1  0
 17  6  1  0
 17  7  1  0
 17 15  1  0
M  END
>  <NAME>  (4775) 
N-OCTYLBIS(TRIMETHYLSILYL)AMINE

>  <SYNONYMS>  (4775) 


>  <SPECTRUM TYPE>  (4775) 
MS1

>  <INSTRUMENT TYPE>  (4775) 
EI-B

>  <INSTRUMENT>  (4775) 
JEOL JMS-D-3000

>  <ION MODE>  (4775) 
P

>  <INCHIKEY>  (4775) 
JQZMOUCEQQEWJG-UHFFFAOYSA-N

>  <FORMULA>  (4775) 
C14H35NSi2

>  <EXACT MASS>  (4775) 
273.23080318

>  <MW>  (4775) 
273

>  <ID>  (4775) 
JP004782

>  <CONTRIBUTOR>  (4775) 
University of Tokyo Team, {Faculty of Engineering, University of Tokyo

>  <COMMENT>  (4775) 
SMILES=CCCCCCCCN([Si](C)(C)C)[Si](C)(C)C
InChI=InChI=1S/C14H35NSi2/c1-8-9-10-11-12-13-14-15(16(2,3)4)17(5,6)7/h8-14H2,1-7H3
computed SMILES=N(CCCCCCCC)([Si](C)(C)C)[Si](C)(C)C
accession=JP004782
date=2016.01.19 (Created 2008.10.21, modified 2011.05.06)
author=MASS SPECTROSCOPY SOC. OF JAPAN (MSSJ)
license=CC BY-NC-SA
exact mass=273.2308
ionization energy=70 eV
ion type=[M]+*
computed spectral entropy=1.9351408310218294
computed normalized entropy=0.6572188606094532
SPLASH=splash10-00di-1920000000-9cfa3943d6db57ea88cd
submitter=submitter = University of Tokyo Team (Faculty of Engineering, University of Tokyo)
MoNA Rating=3.75

>  <NUM PEAKS>  (4775) 
19

>  <MASS SPECTRAL PEAKS>  (4775) 
41 1.1
45 1.33
59 5.25
73 15.69
74 1.51
86 5.4
100 2.8
130 1.79
131 1.3
172 1.22
174 99.99
175 19.56
176 8.48
184 5.72
258 18.34
259 4.9
260 1.77
273 5.05
274 1.45

$$$$

     RDKit          2D

 17 17  0  0  0  0  0  0  0  0999 V2000
    0.5418   -3.5078    0.0000 C   0  0  0  0  0  0  0  0  0  0  0  0
  -11.4418    1.6884    0.0000 C   0  0  0  0  0  0  0  0  0  0  0  0
   -9.9500    0.3452    0.0000 C   0  0  0  0  0  0  0  0  0  0  0  0
   -6.5491    2.3087    0.0000 C   0  0  0  0  0  0  0  0  0  0  0  0
   -6.9664    4.2722    0.0000 C   0  0  0  0  0  0  0  0  0  0  0  0
   -0.9582   -3.5078    0.0000 C   0  0  0  0  0  0  0  0  0  0  0  0
   -1.7082   -2.2087    0.0000 C   0  0  0  0  0  0  0  0  0  0  0  0
   -3.2082   -2.2087    0.0000 C   0  0  0  0  0  0  0  0  0  0  0  0
   -3.9582   -0.9097    0.0000 C   0  0  0  0  0  0  0  0  0  0  0  0
   -5.4582   -0.9097    0.0000 C   0  0  0  0  0  0  0  0  0  0  0  0
   -6.2082    0.3893    0.0000 C   0  0  0  0  0  0  0  0  0  0  0  0
   -7.7082    0.3893    0.0000 C   0  0  0  0  0  0  0  0  0  0  0  0
  -10.2619    3.3124    0.0000 C   0  0  0  0  0  0  0  0  0  0  0  0
   -8.9628    4.0624    0.0000 C   0  0  0  0  0  0  0  0  0  0  0  0
   -8.4582    1.6884    0.0000 N   0  0  0  0  0  0  0  0  0  0  0  0
   -9.9500    1.8452    0.0000 Si  0  0  0  0  0  4  0  0  0  0  0  0
   -7.8481    3.0587    0.0000 Si  0  0  0  0  0  4  0  0  0  0  0  0
  6  1  1  0
  7  6  1  0
  8  7  1  0
  9  8  1  0
 10  9  1  0
 11 10  1  0
 12 11  1  0
 14 13  1  0
 15 12  1  0
 16  2  1  0
 16  3  1  0
 16 13  1  0
 16 15  1  0
 17  4  1  0
 17  5  1  0
 17 14  1  0
 17 15  1  0
M  END
>  <NAME>  (4776) 
1-OCTYL-2,2,5,5-TETRAMETHYL-2,5-DISILAPYRROLIDINE

>  <SYNONYMS>  (4776) 


>  <SPECTRUM TYPE>  (4776) 
MS1

>  <INSTRUMENT TYPE>  (4776) 
EI-B

>  <INSTRUMENT>  (4776) 
JEOL JMS-D-3000

>  <ION MODE>  (4776) 
P

>  <INCHIKEY>  (4776) 
WEJCEXJZYNXOMD-UHFFFAOYSA-N

>  <FORMULA>  (4776) 
C14H33NSi2

>  <EXACT MASS>  (4776) 
271.215153116

>  <MW>  (4776) 
271

>  <ID>  (4776) 
JP004781

>  <CONTRIBUTOR>  (4776) 
University of Tokyo Team, {Faculty of Engineering, University of Tokyo

>  <COMMENT>  (4776) 
SMILES=CCCCCCCCN([Si](C)(C)1)[Si](C)(C)CC1
InChI=InChI=1S/C14H33NSi2/c1-6-7-8-9-10-11-12-15-16(2,3)13-14-17(15,4)5/h6-14H2,1-5H3
computed SMILES=N1(CCCCCCCC)[Si](C)(C)CC[Si]1(C)C
accession=JP004781
date=2016.01.19 (Created 2008.10.21, modified 2011.05.06)
author=MASS SPECTROSCOPY SOC. OF JAPAN (MSSJ)
license=CC BY-NC-SA
exact mass=271.21515
ionization energy=70 eV
ion type=[M]+*
computed spectral entropy=1.6528191418534768
computed normalized entropy=0.5613358448071435
SPLASH=splash10-00di-1900000000-9f1bb4ebbd912fdd7ba3
submitter=submitter = University of Tokyo Team (Faculty of Engineering, University of Tokyo)
MoNA Rating=3.75

>  <NUM PEAKS>  (4776) 
19

>  <MASS SPECTRAL PEAKS>  (4776) 
41 1.68
43 1.15
45 1.22
59 9.34
73 8.68
86 1.18
100 1.69
116 1.63
117 2.13
130 1.21
144 1.1
158 1.33
172 99.99
173 18.45
174 8.31
198 2.52
256 4.58
257 1.19
271 1.49

$$$$

     RDKit          2D

 17 18  0  0  0  0  0  0  0  0999 V2000
   -3.0621   -1.8251    0.0000 C   0  0  0  0  0  0  0  0  0  0  0  0
   -2.0979   -3.4951    0.0000 C   0  0  0  0  0  0  0  0  0  0  0  0
    0.6784    1.3135    0.0000 C   0  0  0  0  0  0  0  0  0  0  0  0
   -1.2500    1.3135    0.0000 C   0  0  0  0  0  0  0  0  0  0  0  0
   -6.7810   -2.0855    0.0000 C   0  0  0  0  0  0  0  0  0  0  0  0
   -5.4815   -2.8364    0.0000 C   0  0  0  0  0  0  0  0  0  0  0  0
   -6.7815   -0.5847    0.0000 C   0  0  0  0  0  0  0  0  0  0  0  0
    1.0132   -2.0855    0.0000 C   0  0  0  0  0  0  0  0  0  0  0  0
   -4.1825   -2.0864    0.0000 C   0  0  0  0  0  0  0  0  0  0  0  0
   -5.4825    0.1653    0.0000 C   0  0  0  0  0  0  0  0  0  0  0  0
   -0.2858   -2.8355    0.0000 C   0  0  0  0  0  0  0  0  0  0  0  0
    1.0132   -0.5855    0.0000 C   0  0  0  0  0  0  0  0  0  0  0  0
   -2.8839    0.1645    0.0000 C   0  0  0  0  0  0  0  0  0  0  0  0
   -4.1829   -0.5855    0.0000 C   0  0  0  0  0  0  0  0  0  0  0  0
   -1.5849   -0.5855    0.0000 N   0  0  0  0  0  0  0  0  0  0  0  0
   -1.5849   -2.0855    0.0000 Si  0  0  0  0  0  4  0  0  0  0  0  0
   -0.2858    0.1645    0.0000 Si  0  0  0  0  0  4  0  0  0  0  0  0
  6  5  2  0
  7  5  1  0
  9  6  1  0
 10  7  2  0
 11  8  1  0
 12  8  1  0
 14  9  2  0
 14 10  1  0
 14 13  1  0
 15 13  1  0
 16  1  1  0
 16  2  1  0
 16 11  1  0
 16 15  1  0
 17  3  1  0
 17  4  1  0
 17 12  1  0
 17 15  1  0
M  END
>  <NAME>  (4777) 
1-BENZYL-2,2,6,6-TETRAMETHYL-2,6-DISILAPIPERIDINE

>  <SYNONYMS>  (4777) 


>  <SPECTRUM TYPE>  (4777) 
MS1

>  <INSTRUMENT TYPE>  (4777) 
EI-B

>  <INSTRUMENT>  (4777) 
JEOL JMS-D-3000

>  <ION MODE>  (4777) 
P

>  <INCHIKEY>  (4777) 
XYGDRIWRTXHXLG-UHFFFAOYSA-N

>  <FORMULA>  (4777) 
C14H25NSi2

>  <EXACT MASS>  (4777) 
263.15255286

>  <MW>  (4777) 
263

>  <ID>  (4777) 
JP004780

>  <CONTRIBUTOR>  (4777) 
University of Tokyo Team, {Faculty of Engineering, University of Tokyo

>  <COMMENT>  (4777) 
SMILES=c(c2)ccc(c2)CN([Si](C)(C)1)[Si](C)(C)CCC1
InChI=InChI=1S/C14H25NSi2/c1-16(2)11-8-12-17(3,4)15(16)13-14-9-6-5-7-10-14/h5-7,9-10H,8,11-13H2,1-4H3
computed SMILES=C=1C=CC(=CC1)CN2[Si](C)(C)CCC[Si]2(C)C
accession=JP004780
date=2016.01.19 (Created 2008.10.21, modified 2011.05.06)
author=MASS SPECTROSCOPY SOC. OF JAPAN (MSSJ)
license=CC BY-NC-SA
exact mass=263.15255
ionization energy=70 eV
ion type=[M]+*
computed spectral entropy=2.250754522425882
computed normalized entropy=0.7513203173378695
SPLASH=splash10-0002-1190000000-d77c324a38b66a63fbbb
submitter=submitter = University of Tokyo Team (Faculty of Engineering, University of Tokyo)
MoNA Rating=3.75

>  <NUM PEAKS>  (4777) 
20

>  <MASS SPECTRAL PEAKS>  (4777) 
44 2.8
59 11.71
73 7.14
91 6.57
100 3.01
117 2.58
121 2.99
130 3.42
135 4.4
144 2.29
148 6.17
186 7.52
206 15.62
207 3.37
220 4.03
248 99.99
249 25.55
250 9.51
263 20.19
264 5.42

$$$$

     RDKit          2D

 16 15  0  0  0  0  0  0  0  0999 V2000
  -11.2796    6.0368    0.0000 C   0  0  0  0  0  0  0  0  0  0  0  0
    2.4608    4.7377    0.0000 C   0  0  0  0  0  0  0  0  0  0  0  0
    3.0099    6.7868    0.0000 C   0  0  0  0  0  0  0  0  0  0  0  0
    0.9608    7.3358    0.0000 C   0  0  0  0  0  0  0  0  0  0  0  0
   -0.5524    4.1377    0.0000 C   0  0  0  0  0  0  0  0  0  0  0  0
    1.3760    4.1377    0.0000 C   0  0  0  0  0  0  0  0  0  0  0  0
   -9.9805    5.2868    0.0000 C   0  0  0  0  0  0  0  0  0  0  0  0
   -8.6815    6.0368    0.0000 C   0  0  0  0  0  0  0  0  0  0  0  0
   -7.3825    5.2868    0.0000 C   0  0  0  0  0  0  0  0  0  0  0  0
   -6.0834    6.0368    0.0000 C   0  0  0  0  0  0  0  0  0  0  0  0
   -4.7844    5.2868    0.0000 C   0  0  0  0  0  0  0  0  0  0  0  0
   -3.4853    6.0368    0.0000 C   0  0  0  0  0  0  0  0  0  0  0  0
   -2.1863    5.2868    0.0000 C   0  0  0  0  0  0  0  0  0  0  0  0
    1.7108    6.0368    0.0000 C   0  0  0  0  0  0  0  0  0  0  0  0
   -0.8873    6.0368    0.0000 N   0  0  0  0  0  0  0  0  0  0  0  0
    0.4118    5.2868    0.0000 Si  0  0  0  0  0  4  0  0  0  0  0  0
  7  1  1  0
  8  7  1  0
  9  8  1  0
 10  9  1  0
 11 10  1  0
 12 11  1  0
 13 12  1  0
 14  2  1  0
 14  3  1  0
 14  4  1  0
 15 13  1  0
 16  5  1  0
 16  6  1  0
 16 14  1  0
 16 15  1  0
M  END
>  <NAME>  (4778) 
N-OCTYL(TERT-BUTYLDIMETHYLSILYL)AMINE

>  <SYNONYMS>  (4778) 


>  <SPECTRUM TYPE>  (4778) 
MS1

>  <INSTRUMENT TYPE>  (4778) 
EI-B

>  <INSTRUMENT>  (4778) 
JEOL JMS-D-3000

>  <ION MODE>  (4778) 
P

>  <INCHIKEY>  (4778) 
UNIQFZXKPCLILS-UHFFFAOYSA-N

>  <FORMULA>  (4778) 
C14H33NSi

>  <EXACT MASS>  (4778) 
243.238226586

>  <MW>  (4778) 
243

>  <ID>  (4778) 
JP004779

>  <CONTRIBUTOR>  (4778) 
University of Tokyo Team, {Faculty of Engineering, University of Tokyo

>  <COMMENT>  (4778) 
SMILES=CCCCCCCCN[Si](C)(C)C(C)(C)C
InChI=InChI=1S/C14H33NSi/c1-7-8-9-10-11-12-13-15-16(5,6)14(2,3)4/h15H,7-13H2,1-6H3
computed SMILES=N(CCCCCCCC)[Si](C)(C)C(C)(C)C
accession=JP004779
date=2016.01.19 (Created 2008.10.21, modified 2011.05.06)
author=MASS SPECTROSCOPY SOC. OF JAPAN (MSSJ)
license=CC BY-NC-SA
exact mass=243.23823
ionization energy=70 eV
ion type=[M]+*
computed spectral entropy=2.819980347985355
computed normalized entropy=0.8462806947695666
SPLASH=splash10-059i-9200000000-e10142586ddc87bffe60
submitter=submitter = University of Tokyo Team (Faculty of Engineering, University of Tokyo)
MoNA Rating=3.75

>  <NUM PEAKS>  (4778) 
28

>  <MASS SPECTRAL PEAKS>  (4778) 
41 25.79
43 15.71
44 4.36
45 8.53
55 11.94
57 7.5
58 11.73
59 74.92
60 9.39
69 11.6
72 6.44
73 99.99
74 26.05
75 14.46
85 5.82
86 16.37
87 11.88
88 82.19
89 7.54
99 6.11
100 7.88
114 8.3
128 5.66
144 28.21
187 46.71
188 12.68
228 3.2
243 2.01

$$$$

     RDKit          2D

 15 16  0  0  0  0  0  0  0  0999 V2000
  -10.4600    6.3600    0.0000 C   0  0  0  0  0  0  0  0  0  0  0  0
  -11.3400    5.1500    0.0000 C   0  0  0  0  0  0  0  0  0  0  0  0
   -9.0300    5.9000    0.0000 C   0  0  0  0  0  0  0  0  0  0  0  0
   -2.7348    1.5679    0.0000 C   0  0  0  0  0  0  0  0  0  0  0  0
  -10.4600    3.9300    0.0000 C   0  0  0  0  0  0  0  0  0  0  0  0
   -7.6000    6.3600    0.0000 C   0  0  0  0  0  0  0  0  0  0  0  0
   -3.7386    0.4522    0.0000 C   0  0  0  0  0  0  0  0  0  0  0  0
   -3.1981    2.9954    0.0000 C   0  0  0  0  0  0  0  0  0  0  0  0
   -9.0300    4.4000    0.0000 C   0  0  0  0  0  0  0  0  0  0  0  0
   -6.7200    5.1500    0.0000 C   0  0  0  0  0  0  0  0  0  0  0  0
   -5.2059    0.7641    0.0000 C   0  0  0  0  0  0  0  0  0  0  0  0
   -4.6653    3.3073    0.0000 C   0  0  0  0  0  0  0  0  0  0  0  0
   -7.6000    3.9300    0.0000 C   0  0  0  0  0  0  0  0  0  0  0  0
   -5.6692    2.1916    0.0000 C   0  0  0  0  0  0  0  0  0  0  0  0
   -7.1364    2.5034    0.0000 N   0  0  0  0  0  0  0  0  0  0  0  0
  2  1  1  0
  3  1  1  0
  5  2  1  0
  6  3  1  0
  7  4  1  0
  8  4  1  0
  9  5  1  0
 10  6  1  0
 11  7  1  0
 12  8  1  0
 13  9  1  0
 13 10  1  0
 14 11  1  0
 14 12  1  0
 15 13  2  3
 15 14  1  0
M  END
>  <NAME>  (4779) 
N-CYCLOHEXYLCYCLOOCTANIMINE

>  <SYNONYMS>  (4779) 


>  <SPECTRUM TYPE>  (4779) 
MS1

>  <INSTRUMENT TYPE>  (4779) 
EI-B

>  <INSTRUMENT>  (4779) 
JEOL JMS-D-3000

>  <ION MODE>  (4779) 
P

>  <INCHIKEY>  (4779) 
QEPBYAZZLLFREJ-UHFFFAOYSA-N

>  <FORMULA>  (4779) 
C14H25N

>  <EXACT MASS>  (4779) 
207.19869979999999

>  <MW>  (4779) 
207

>  <ID>  (4779) 
JP004778

>  <CONTRIBUTOR>  (4779) 
University of Tokyo Team, {Faculty of Engineering, University of Tokyo

>  <COMMENT>  (4779) 
SMILES=C(C2)CCCC(CC2)=NC(C1)CCCC1
InChI=InChI=1S/C14H25N/c1-2-5-9-13(10-6-3-1)15-14-11-7-4-8-12-14/h14H,1-12H2
computed SMILES=N(=C1CCCCCCC1)C2CCCCC2
accession=JP004778
date=2016.01.19 (Created 2008.10.21, modified 2011.05.06)
author=MASS SPECTROSCOPY SOC. OF JAPAN (MSSJ)
license=CC BY-NC-SA
exact mass=207.1987
ionization energy=70 eV
ion type=[M]+*
computed spectral entropy=3.124669260222798
computed normalized entropy=0.9186968322008354
SPLASH=splash10-056r-2910000000-550dcb01ab1ec7695dbf
submitter=submitter = University of Tokyo Team (Faculty of Engineering, University of Tokyo)
MoNA Rating=3.75

>  <NUM PEAKS>  (4779) 
30

>  <MASS SPECTRAL PEAKS>  (4779) 
41 14.69
43 10.39
54 12.22
55 28.44
58 9.18
67 10.67
82 17.55
83 33.66
96 10.34
97 14.86
98 17.49
110 12.51
123 14
124 17.95
126 50.02
136 26.4
139 20.16
150 13.54
152 64.17
153 11.23
164 76.45
165 24.81
166 13.35
178 53.74
179 99.99
180 13.8
192 32.68
206 26.23
207 77.75
208 14.59

$$$$

     RDKit          2D

 15 16  0  0  0  0  0  0  0  0999 V2000
   -1.9647    1.6863    0.0000 C   0  0  0  0  0  0  0  0  0  0  0  0
   -2.5795   -0.2220    0.0000 C   0  0  0  0  0  0  0  0  0  0  0  0
    0.5936   -2.5218    0.0000 C   0  0  0  0  0  0  0  0  0  0  0  0
    5.1522   -1.9630    0.0000 C   0  0  0  0  0  0  0  0  0  0  0  0
    4.6880   -0.5358    0.0000 C   0  0  0  0  0  0  0  0  0  0  0  0
    4.1490   -3.0793    0.0000 C   0  0  0  0  0  0  0  0  0  0  0  0
    3.2206   -0.2248    0.0000 C   0  0  0  0  0  0  0  0  0  0  0  0
    2.6816   -2.7683    0.0000 C   0  0  0  0  0  0  0  0  0  0  0  0
    1.2100    0.3900    0.0000 C   0  0  0  0  0  0  0  0  0  0  0  0
   -0.7500   -1.0300    0.0000 C   0  0  0  0  0  0  0  0  0  0  0  0
    2.2174   -1.3410    0.0000 C   0  0  0  0  0  0  0  0  0  0  0  0
    0.0000    1.2800    0.0000 C   0  0  0  0  0  0  0  0  0  0  0  0
   -1.2100    0.3900    0.0000 C   0  0  0  0  0  0  0  0  0  0  0  0
    0.7500   -1.0300    0.0000 C   0  0  0  0  0  0  0  0  0  0  0  0
    0.0000    2.7800    0.0000 O   0  0  0  0  0  0  0  0  0  0  0  0
  5  4  2  0
  6  4  1  0
  7  5  1  0
  8  6  2  0
 11  7  2  0
 11  8  1  0
 12  9  1  0
 13  1  1  0
 13  2  1  0
 13 10  1  0
 13 12  1  0
 14  3  1  0
 14  9  1  0
 14 10  1  0
 14 11  1  0
 15 12  2  0
M  END
>  <NAME>  (4780) 
2,2,4-TRIMETHYL-4-PHENYLCYCLOPENTANONE

>  <SYNONYMS>  (4780) 


>  <SPECTRUM TYPE>  (4780) 
MS1

>  <INSTRUMENT TYPE>  (4780) 
EI-B

>  <INSTRUMENT>  (4780) 
JEOL JMS-D-3000

>  <ION MODE>  (4780) 
P

>  <INCHIKEY>  (4780) 
SHZFCSMUTTUMRK-UHFFFAOYSA-N

>  <FORMULA>  (4780) 
C14H18O

>  <EXACT MASS>  (4780) 
202.135765196

>  <MW>  (4780) 
202

>  <ID>  (4780) 
JP004776

>  <CONTRIBUTOR>  (4780) 
University of Tokyo Team, {Faculty of Engineering, University of Tokyo

>  <COMMENT>  (4780) 
SMILES=c(c2)ccc(c2)C(C)(C1)CC(C)(C)C(=O)1
InChI=InChI=1S/C14H18O/c1-13(2)10-14(3,9-12(13)15)11-7-5-4-6-8-11/h4-8H,9-10H2,1-3H3
computed SMILES=O=C1CC(C=2C=CC=CC2)(C)CC1(C)C
accession=JP004776
date=2016.01.19 (Created 2008.10.21, modified 2011.05.06)
author=MASS SPECTROSCOPY SOC. OF JAPAN (MSSJ)
license=CC BY-NC-SA
exact mass=202.13577
ionization energy=70 eV
ion type=[M]+*
computed spectral entropy=2.617247131321273
computed normalized entropy=0.769507569725998
SPLASH=splash10-014i-2910000000-d8a6d8fd4ed5624dff4f
submitter=submitter = University of Tokyo Team (Faculty of Engineering, University of Tokyo)
MoNA Rating=3.75

>  <NUM PEAKS>  (4780) 
30

>  <MASS SPECTRAL PEAKS>  (4780) 
41 8.32
43 1.67
51 3.96
53 1.82
55 3.24
56 5.7
65 2.82
70 1.99
77 8.3
78 7.14
79 1.63
91 10.74
102 1.79
103 10.15
105 2.84
115 6.98
116 2.19
117 21.69
118 99.99
119 11.65
128 2.29
129 2.28
131 2.85
145 23.77
146 4.82
159 7.88
160 2.19
187 3.5
202 33.88
203 5.31

$$$$

     RDKit          2D

 16 16  0  0  0  0  0  0  0  0999 V2000
    0.2250   -0.4161    0.0000 C   0  0  0  0  0  0  0  0  0  0  0  0
    2.2740    0.1329    0.0000 C   0  0  0  0  0  0  0  0  0  0  0  0
    1.7250    2.1820    0.0000 C   0  0  0  0  0  0  0  0  0  0  0  0
    1.1760    3.1329    0.0000 C   0  0  0  0  0  0  0  0  0  0  0  0
   -0.3240    4.6329    0.0000 C   0  0  0  0  0  0  0  0  0  0  0  0
   -1.8240    3.1329    0.0000 C   0  0  0  0  0  0  0  0  0  0  0  0
   -5.5202    3.1329    0.0000 C   0  0  0  0  0  0  0  0  0  0  0  0
   -5.5207    1.6321    0.0000 C   0  0  0  0  0  0  0  0  0  0  0  0
   -4.2207    3.8837    0.0000 C   0  0  0  0  0  0  0  0  0  0  0  0
   -4.2216    0.8821    0.0000 C   0  0  0  0  0  0  0  0  0  0  0  0
   -2.9216    3.1337    0.0000 C   0  0  0  0  0  0  0  0  0  0  0  0
   -1.6231    0.8829    0.0000 C   0  0  0  0  0  0  0  0  0  0  0  0
   -2.9221    1.6329    0.0000 C   0  0  0  0  0  0  0  0  0  0  0  0
   -0.3240    1.6329    0.0000 N   0  0  0  0  0  0  0  0  0  0  0  0
    0.9750    0.8829    0.0000 Si  0  0  0  0  0  4  0  0  0  0  0  0
   -0.3240    3.1329    0.0000 Si  0  0  0  0  0  4  0  0  0  0  0  0
  8  7  2  0
  9  7  1  0
 10  8  1  0
 11  9  2  0
 13 10  2  0
 13 11  1  0
 13 12  1  0
 14 12  1  0
 15  1  1  0
 15  2  1  0
 15  3  1  0
 15 14  1  0
 16  4  1  0
 16  5  1  0
 16  6  1  0
 16 14  1  0
M  END
>  <NAME>  (4781) 
N-BENZYLBIS(TRIMETHYLSILYL)AMINE

>  <SYNONYMS>  (4781) 


>  <SPECTRUM TYPE>  (4781) 
MS1

>  <INSTRUMENT TYPE>  (4781) 
EI-B

>  <INSTRUMENT>  (4781) 
JEOL JMS-D-3000

>  <ION MODE>  (4781) 
P

>  <INCHIKEY>  (4781) 
MISAGEOFUVTSBB-UHFFFAOYSA-N

>  <FORMULA>  (4781) 
C13H25NSi2

>  <EXACT MASS>  (4781) 
251.15255286000001

>  <MW>  (4781) 
251

>  <ID>  (4781) 
JP004774

>  <CONTRIBUTOR>  (4781) 
University of Tokyo Team, {Faculty of Engineering, University of Tokyo

>  <COMMENT>  (4781) 
SMILES=c(c1)ccc(c1)CN([Si](C)(C)C)[Si](C)(C)C
InChI=InChI=1S/C13H25NSi2/c1-15(2,3)14(16(4,5)6)12-13-10-8-7-9-11-13/h7-11H,12H2,1-6H3
computed SMILES=C=1C=CC(=CC1)CN([Si](C)(C)C)[Si](C)(C)C
accession=JP004774
date=2016.01.19 (Created 2008.10.21, modified 2011.05.06)
author=MASS SPECTROSCOPY SOC. OF JAPAN (MSSJ)
license=CC BY-NC-SA
exact mass=251.15255
ionization energy=70 eV
ion type=[M]+*
computed spectral entropy=2.595702404409772
computed normalized entropy=0.8167584764055379
SPLASH=splash10-000i-4590000000-575bc61204838fcc9672
submitter=submitter = University of Tokyo Team (Faculty of Engineering, University of Tokyo)
MoNA Rating=3.75

>  <NUM PEAKS>  (4781) 
24

>  <MASS SPECTRAL PEAKS>  (4781) 
43 2.97
45 7.47
59 13.71
73 41.36
74 3.62
86 10.52
91 9.94
100 6.53
111 5.87
121 2.53
130 4.28
135 20.39
136 2.97
162 32.65
163 5.22
174 17.12
175 3.26
176 2.32
236 99.99
237 24.09
238 9.57
251 27.21
252 6.96
253 2.46

$$$$

     RDKit          2D

 19 18  0  0  0  0  0  0  0  0999 V2000
    2.8358    5.3873    0.0000 C   0  0  0  0  0  0  0  0  0  0  0  0
    0.2377    0.8873    0.0000 C   0  0  0  0  0  0  0  0  0  0  0  0
   -4.9584    3.8873    0.0000 C   0  0  0  0  0  0  0  0  0  0  0  0
   -8.3065    6.6863    0.0000 C   0  0  0  0  0  0  0  0  0  0  0  0
   -8.8555    4.6373    0.0000 C   0  0  0  0  0  0  0  0  0  0  0  0
   -6.8065    4.0882    0.0000 C   0  0  0  0  0  0  0  0  0  0  0  0
    1.5368    6.1373    0.0000 C   0  0  0  0  0  0  0  0  0  0  0  0
   -1.0613    1.6373    0.0000 C   0  0  0  0  0  0  0  0  0  0  0  0
   -3.6594    6.1373    0.0000 C   0  0  0  0  0  0  0  0  0  0  0  0
   -4.9584    5.3873    0.0000 C   0  0  0  0  0  0  0  0  0  0  0  0
   -2.3603    5.3873    0.0000 C   0  0  0  0  0  0  0  0  0  0  0  0
   -1.0613    6.1373    0.0000 C   0  0  0  0  0  0  0  0  0  0  0  0
   -2.3603    3.8873    0.0000 C   0  0  0  0  0  0  0  0  0  0  0  0
   -1.0613    7.6373    0.0000 O   0  0  0  0  0  0  0  0  0  0  0  0
   -3.6594    3.1373    0.0000 O   0  0  0  0  0  0  0  0  0  0  0  0
    0.2377    5.3873    0.0000 O   0  0  0  0  0  0  0  0  0  0  0  0
   -1.0613    3.1373    0.0000 O   0  0  0  0  0  0  0  0  0  0  0  0
   -6.2575    6.1373    0.0000 O   0  0  0  0  0  0  0  0  0  0  0  0
   -7.5565    5.3873    0.0000 Si  0  0  0  0  0  4  0  0  0  0  0  0
  7  1  1  0
  8  2  1  0
 10  3  2  0
 10  9  1  0
 11  9  1  0
 12 11  1  0
 13 11  1  0
 14 12  2  0
 15 13  2  0
 16  7  1  0
 16 12  1  0
 17  8  1  0
 17 13  1  0
 18 10  1  0
 19  4  1  0
 19  5  1  0
 19  6  1  0
 19 18  1  0
M  END
>  <NAME>  (4782) 
DIETHYL (2-TRIMETHYLSILOXY-2-PROPENYL)MALONATE

>  <SYNONYMS>  (4782) 


>  <SPECTRUM TYPE>  (4782) 
MS1

>  <INSTRUMENT TYPE>  (4782) 
EI-B

>  <INSTRUMENT>  (4782) 
JEOL JMS-D-3000

>  <ION MODE>  (4782) 
P

>  <INCHIKEY>  (4782) 
XRQYWQXVPALWDW-UHFFFAOYSA-N

>  <FORMULA>  (4782) 
C13H24O5Si

>  <EXACT MASS>  (4782) 
288.139300398

>  <MW>  (4782) 
288

>  <ID>  (4782) 
JP004773

>  <CONTRIBUTOR>  (4782) 
University of Tokyo Team, {Faculty of Engineering, University of Tokyo

>  <COMMENT>  (4782) 
SMILES=CCOC(=O)C(CC(=C)O[Si](C)(C)C)C(=O)OCC
InChI=InChI=1S/C13H24O5Si/c1-7-16-12(14)11(13(15)17-8-2)9-10(3)18-19(4,5)6/h11H,3,7-9H2,1-2,4-6H3
computed SMILES=O=C(OCC)C(C(=O)OCC)CC(O[Si](C)(C)C)=C
accession=JP004773
date=2016.01.19 (Created 2008.10.21, modified 2011.05.06)
author=MASS SPECTROSCOPY SOC. OF JAPAN (MSSJ)
license=CC BY-NC-SA
exact mass=288.1393
ionization energy=70 eV
ion type=[M]+*
computed spectral entropy=3.3912077693406557
computed normalized entropy=0.8351817179880322
SPLASH=splash10-01ba-9880000000-f942b96be7f21c9fe123
submitter=submitter = University of Tokyo Team (Faculty of Engineering, University of Tokyo)
MoNA Rating=3.75

>  <NUM PEAKS>  (4782) 
58

>  <MASS SPECTRAL PEAKS>  (4782) 
42 12.92
44 6.9
46 2.4
51 1.75
53 8.4
58 2.52
60 2.45
72 2.51
73 61.66
74 5.29
75 30.98
76 2.21
77 3.05
81 2.06
85 1.94
96 1.74
97 58.26
98 4.44
99 4.2
101 6.91
102 2.2
103 4.66
111 2.24
124 16.49
125 15.28
127 13.46
128 8.56
129 3.62
130 1.67
141 18.89
142 3.02
143 8.81
145 1.76
155 4.72
169 5.78
170 3.8
171 22.67
172 3.13
173 4.44
174 5.41
185 2.25
187 4.59
197 20.73
198 4.27
199 10.32
214 2.12
215 99.99
216 19.17
217 11.4
218 1.61
227 3.18
242 10.34
243 19.51
244 3.89
245 6.6
273 8.07
288 11.34
289 2.33

$$$$

     RDKit          2D

 14 14  0  0  0  0  0  0  0  0999 V2000
   -3.8978   -2.0496    0.0000 C   0  0  0  0  0  0  0  0  0  0  0  0
   -5.1972    0.2002    0.0000 C   0  0  0  0  0  0  0  0  0  0  0  0
    1.8491    0.4019    0.0000 C   0  0  0  0  0  0  0  0  0  0  0  0
    3.8981    0.9513    0.0000 C   0  0  0  0  0  0  0  0  0  0  0  0
    3.3487    3.0002    0.0000 C   0  0  0  0  0  0  0  0  0  0  0  0
    0.0008    0.2006    0.0000 C   0  0  0  0  0  0  0  0  0  0  0  0
   -1.2992    2.4506    0.0000 C   0  0  0  0  0  0  0  0  0  0  0  0
   -1.2992   -0.5494    0.0000 C   0  0  0  0  0  0  0  0  0  0  0  0
   -2.5992    1.7006    0.0000 C   0  0  0  0  0  0  0  0  0  0  0  0
    1.2998    2.4508    0.0000 C   0  0  0  0  0  0  0  0  0  0  0  0
   -3.8981   -0.5496    0.0000 C   0  0  0  0  0  0  0  0  0  0  0  0
    0.0008    1.7006    0.0000 C   0  0  0  0  0  0  0  0  0  0  0  0
   -2.5992    0.2006    0.0000 C   0  0  0  0  0  0  0  0  0  0  0  0
    2.5989    1.7010    0.0000 Si  0  0  0  0  0  4  0  0  0  0  0  0
  8  6  1  0
  9  7  1  0
 11  1  2  0
 11  2  1  0
 12  6  2  0
 12  7  1  0
 12 10  1  0
 13  8  1  0
 13  9  1  0
 13 11  1  0
 14  3  1  0
 14  4  1  0
 14  5  1  0
 14 10  1  0
M  END
>  <NAME>  (4783) 
1-TRIMETHYLSILYLMETHYL-4-ISOPROPENYLCYCLOHEXENE

>  <SYNONYMS>  (4783) 


>  <SPECTRUM TYPE>  (4783) 
MS1

>  <INSTRUMENT TYPE>  (4783) 
EI-B

>  <INSTRUMENT>  (4783) 
JEOL JMS-D-3000

>  <ION MODE>  (4783) 
P

>  <INCHIKEY>  (4783) 
FDRSHCOPRLFDOK-UHFFFAOYSA-N

>  <FORMULA>  (4783) 
C13H24Si

>  <EXACT MASS>  (4783) 
208.164727298

>  <MW>  (4783) 
208

>  <ID>  (4783) 
JP004772

>  <CONTRIBUTOR>  (4783) 
University of Tokyo Team, {Faculty of Engineering, University of Tokyo

>  <COMMENT>  (4783) 
SMILES=CC(=C)C(C1)CC=C(C1)C[Si](C)(C)C
InChI=InChI=1S/C13H24Si/c1-11(2)13-8-6-12(7-9-13)10-14(3,4)5/h6,13H,1,7-10H2,2-5H3
computed SMILES=C=C(C)C1CC=C(CC1)C[Si](C)(C)C
accession=JP004772
date=2016.01.19 (Created 2008.10.21, modified 2011.05.06)
author=MASS SPECTROSCOPY SOC. OF JAPAN (MSSJ)
license=CC BY-NC-SA
exact mass=208.16473
ionization energy=70 eV
ion type=[M]+*
computed spectral entropy=1.9872084967486678
computed normalized entropy=0.596364506044133
SPLASH=splash10-00di-9100000000-d8466d9ba3adc1b94cac
submitter=submitter = University of Tokyo Team (Faculty of Engineering, University of Tokyo)
MoNA Rating=3.75

>  <NUM PEAKS>  (4783) 
28

>  <MASS SPECTRAL PEAKS>  (4783) 
42 2.72
43 3.17
45 6.06
53 1.21
58 1.7
59 5.69
67 1.21
72 1.04
73 99.99
74 8.27
75 4.58
77 1.74
79 1.58
91 2.17
92 1.66
93 3.01
94 1.15
98 3.88
105 1.07
119 1.92
125 1.41
134 7.54
135 1.05
140 2.52
149 1.01
151 1.03
208 5.2
209 1.05

$$$$

     RDKit          2D

 16 17  0  0  0  0  0  0  0  0999 V2000
   -7.5051    0.7141    0.0000 C   0  0  0  0  0  0  0  0  0  0  0  0
   -6.0133   -0.6291    0.0000 C   0  0  0  0  0  0  0  0  0  0  0  0
   -2.6124    1.3344    0.0000 C   0  0  0  0  0  0  0  0  0  0  0  0
   -3.0298    3.2979    0.0000 C   0  0  0  0  0  0  0  0  0  0  0  0
    0.7284   -0.5849    0.0000 C   0  0  0  0  0  0  0  0  0  0  0  0
   -0.0216    0.7151    0.0000 C   0  0  0  0  0  0  0  0  0  0  0  0
   -0.0216   -1.8849    0.0000 C   0  0  0  0  0  0  0  0  0  0  0  0
   -1.5216    0.7151    0.0000 C   0  0  0  0  0  0  0  0  0  0  0  0
   -1.5216   -1.8849    0.0000 C   0  0  0  0  0  0  0  0  0  0  0  0
   -6.3252    2.3381    0.0000 C   0  0  0  0  0  0  0  0  0  0  0  0
   -5.0262    3.0881    0.0000 C   0  0  0  0  0  0  0  0  0  0  0  0
   -3.7716   -0.5849    0.0000 C   0  0  0  0  0  0  0  0  0  0  0  0
   -2.2716   -0.5849    0.0000 C   0  0  0  0  0  0  0  0  0  0  0  0
   -4.5216    0.7141    0.0000 N   0  0  0  0  0  0  0  0  0  0  0  0
   -6.0133    0.8709    0.0000 Si  0  0  0  0  0  4  0  0  0  0  0  0
   -3.9115    2.0844    0.0000 Si  0  0  0  0  0  4  0  0  0  0  0  0
  6  5  2  0
  7  5  1  0
  8  6  1  0
  9  7  2  0
 11 10  1  0
 13  8  2  0
 13  9  1  0
 13 12  1  0
 14 12  1  0
 15  1  1  0
 15  2  1  0
 15 10  1  0
 15 14  1  0
 16  3  1  0
 16  4  1  0
 16 11  1  0
 16 14  1  0
M  END
>  <NAME>  (4784) 
1-BENZYL-2,2,5,5-TETRAMETHYL-2,5-DISILAPYRROLIDINE

>  <SYNONYMS>  (4784) 


>  <SPECTRUM TYPE>  (4784) 
MS1

>  <INSTRUMENT TYPE>  (4784) 
EI-B

>  <INSTRUMENT>  (4784) 
JEOL JMS-D-3000

>  <ION MODE>  (4784) 
P

>  <INCHIKEY>  (4784) 
ZWHJOKVPBMQCSF-UHFFFAOYSA-N

>  <FORMULA>  (4784) 
C13H23NSi2

>  <EXACT MASS>  (4784) 
249.136902796

>  <MW>  (4784) 
249

>  <ID>  (4784) 
JP004771

>  <CONTRIBUTOR>  (4784) 
University of Tokyo Team, {Faculty of Engineering, University of Tokyo

>  <COMMENT>  (4784) 
SMILES=c(c2)ccc(c2)CN([Si](C)(C)1)[Si](C)(C)CC1
InChI=InChI=1S/C13H23NSi2/c1-15(2)10-11-16(3,4)14(15)12-13-8-6-5-7-9-13/h5-9H,10-12H2,1-4H3
computed SMILES=C=1C=CC(=CC1)CN2[Si](C)(C)CC[Si]2(C)C
accession=JP004771
date=2016.01.19 (Created 2008.10.21, modified 2011.05.06)
author=MASS SPECTROSCOPY SOC. OF JAPAN (MSSJ)
license=CC BY-NC-SA
exact mass=249.1369
ionization energy=70 eV
ion type=[M]+*
computed spectral entropy=2.3567517673675353
computed normalized entropy=0.762445615978843
SPLASH=splash10-001i-2290000000-07a63c2456f871e6387b
submitter=submitter = University of Tokyo Team (Faculty of Engineering, University of Tokyo)
MoNA Rating=3.75

>  <NUM PEAKS>  (4784) 
22

>  <MASS SPECTRAL PEAKS>  (4784) 
43 3.77
45 3.49
59 13.42
73 10.2
85 3.49
91 13
100 5.59
103 4.61
117 5.87
121 2.79
130 6.57
135 2.65
145 4.61
171 2.37
172 10.9
206 2.23
234 99.99
235 22.79
236 9.51
248 2.79
249 14.54
250 4.05

$$$$

     RDKit          2D

 16 16  0  0  0  0  0  0  0  0999 V2000
   -5.1962    2.5700    0.0000 C   0  0  0  0  0  0  0  0  0  0  0  0
   -1.2990    6.3200    0.0000 C   0  0  0  0  0  0  0  0  0  0  0  0
   -3.8971    1.8200    0.0000 C   0  0  0  0  0  0  0  0  0  0  0  0
    3.8971    0.3200    0.0000 C   0  0  0  0  0  0  0  0  0  0  0  0
    3.8976    1.8208    0.0000 C   0  0  0  0  0  0  0  0  0  0  0  0
    2.5976   -0.4308    0.0000 C   0  0  0  0  0  0  0  0  0  0  0  0
    2.5986    2.5708    0.0000 C   0  0  0  0  0  0  0  0  0  0  0  0
    1.2986    0.3192    0.0000 C   0  0  0  0  0  0  0  0  0  0  0  0
    0.0000    4.0700    0.0000 C   0  0  0  0  0  0  0  0  0  0  0  0
   -1.2990    4.8200    0.0000 C   0  0  0  0  0  0  0  0  0  0  0  0
    1.2990    1.8200    0.0000 C   0  0  0  0  0  0  0  0  0  0  0  0
    0.0000    2.5700    0.0000 C   0  0  0  0  0  0  0  0  0  0  0  0
   -1.2990    1.8200    0.0000 C   0  0  0  0  0  0  0  0  0  0  0  0
   -2.5981    4.0700    0.0000 O   0  0  0  0  0  0  0  0  0  0  0  0
   -1.2990    0.3200    0.0000 O   0  0  0  0  0  0  0  0  0  0  0  0
   -2.5981    2.5700    0.0000 O   0  0  0  0  0  0  0  0  0  0  0  0
  3  1  1  0
  5  4  2  0
  6  4  1  0
  7  5  1  0
  8  6  2  0
 10  2  1  0
 10  9  1  0
 11  7  2  0
 11  8  1  0
 12  9  1  0
 12 11  1  0
 13 12  1  0
 14 10  2  0
 15 13  2  0
 16  3  1  0
 16 13  1  0
M  END
>  <NAME>  (4785) 
ETHYL 4-OXO-2-PHENYLPENTANOATE

>  <SYNONYMS>  (4785) 


>  <SPECTRUM TYPE>  (4785) 
MS1

>  <INSTRUMENT TYPE>  (4785) 
EI-B

>  <INSTRUMENT>  (4785) 
JEOL JMS-D-3000

>  <ION MODE>  (4785) 
P

>  <INCHIKEY>  (4785) 
MPTUXQOIIUTVGD-UHFFFAOYSA-N

>  <FORMULA>  (4785) 
C13H16O3

>  <EXACT MASS>  (4785) 
220.10994437199997

>  <MW>  (4785) 
220

>  <ID>  (4785) 
JP004770

>  <CONTRIBUTOR>  (4785) 
University of Tokyo Team, {Faculty of Engineering, University of Tokyo

>  <COMMENT>  (4785) 
SMILES=CCOC(=O)C(CC(C)=O)c(c1)cccc1
InChI=InChI=1S/C13H16O3/c1-3-16-13(15)12(9-10(2)14)11-7-5-4-6-8-11/h4-8,12H,3,9H2,1-2H3
computed SMILES=O=C(OCC)C(C=1C=CC=CC1)CC(=O)C
accession=JP004770
date=2016.01.19 (Created 2008.10.21, modified 2011.05.06)
author=MASS SPECTROSCOPY SOC. OF JAPAN (MSSJ)
license=CC BY-NC-SA
exact mass=220.10994
ionization energy=70 eV
ion type=[M]+*
computed spectral entropy=2.5784700793474786
computed normalized entropy=0.7581065695421028
SPLASH=splash10-0a4i-5390000000-920861c86a9c8d13051f
submitter=submitter = University of Tokyo Team (Faculty of Engineering, University of Tokyo)
MoNA Rating=3.75

>  <NUM PEAKS>  (4785) 
30

>  <MASS SPECTRAL PEAKS>  (4785) 
40 8.69
53 6.14
56 30.15
57 1.72
67 6.71
69 2.28
77 2.39
79 1.88
80 1.79
81 10.02
91 4.4
95 6.26
105 6.44
115 2.69
119 3.56
121 3.08
128 2.25
129 2.37
131 3.42
133 2.13
145 11.68
149 2.25
161 3.97
163 2.11
177 7.09
189 3.65
205 99.99
206 16
220 26.72
221 4.5

$$$$

     RDKit          2D

 15 14  0  0  0  0  0  0  0  0999 V2000
   -3.2268    0.8525    0.0000 C   0  0  0  0  0  0  0  0  0  0  0  0
   -3.9180    4.7725    0.0000 C   0  0  0  0  0  0  0  0  0  0  0  0
   -3.9180    1.4325    0.0000 C   0  0  0  0  0  0  0  0  0  0  0  0
    3.2684    3.1025    0.0000 C   0  0  0  0  0  0  0  0  0  0  0  0
    3.1118    2.2139    0.0000 C   0  0  0  0  0  0  0  0  0  0  0  0
    0.2192    0.5439    0.0000 C   0  0  0  0  0  0  0  0  0  0  0  0
   -1.9277    1.6025    0.0000 C   0  0  0  0  0  0  0  0  0  0  0  0
   -2.4407    4.5120    0.0000 C   0  0  0  0  0  0  0  0  0  0  0  0
   -3.4049    2.8420    0.0000 C   0  0  0  0  0  0  0  0  0  0  0  0
    1.9694    3.8525    0.0000 C   0  0  0  0  0  0  0  0  0  0  0  0
    1.6345    1.9534    0.0000 C   0  0  0  0  0  0  0  0  0  0  0  0
   -0.2938    1.9534    0.0000 C   0  0  0  0  0  0  0  0  0  0  0  0
   -0.6287    3.8525    0.0000 N   0  0  0  0  0  0  0  0  0  0  0  0
   -1.9277    3.1025    0.0000 Si  0  0  0  0  0  4  0  0  0  0  0  0
    0.6704    3.1025    0.0000 Si  0  0  0  0  0  4  0  0  0  0  0  0
  7  1  1  0
  8  2  1  0
  9  3  1  0
 10  4  1  0
 11  5  1  0
 12  6  1  0
 14  7  1  0
 14  8  1  0
 14  9  1  0
 14 13  1  0
 15 10  1  0
 15 11  1  0
 15 12  1  0
 15 13  1  0
M  END
>  <NAME>  (4786) 
HEXAETHYLDISILAZANE

>  <SYNONYMS>  (4786) 
BIS(TRIETHYLSILYL)AMINE

>  <SPECTRUM TYPE>  (4786) 
MS1

>  <INSTRUMENT TYPE>  (4786) 
EI-B

>  <INSTRUMENT>  (4786) 
JEOL JMS-D-3000

>  <ION MODE>  (4786) 
P

>  <INCHIKEY>  (4786) 
APDDLLVYBXGBRF-UHFFFAOYSA-N

>  <FORMULA>  (4786) 
C12H31NSi2

>  <EXACT MASS>  (4786) 
245.199503052

>  <MW>  (4786) 
245

>  <ID>  (4786) 
JP004769

>  <CONTRIBUTOR>  (4786) 
University of Tokyo Team, {Faculty of Engineering, University of Tokyo

>  <COMMENT>  (4786) 
SMILES=CC[Si](CC)(CC)N[Si](CC)(CC)CC
InChI=InChI=1S/C12H31NSi2/c1-7-14(8-2,9-3)13-15(10-4,11-5)12-6/h13H,7-12H2,1-6H3
computed SMILES=N([Si](CC)(CC)CC)[Si](CC)(CC)CC
accession=JP004769
date=2016.01.19 (Created 2008.10.21, modified 2011.05.06)
author=MASS SPECTROSCOPY SOC. OF JAPAN (MSSJ)
license=CC BY-NC-SA
exact mass=245.1995
ionization energy=70 eV
ion type=[M]+*
computed spectral entropy=2.6141462281871424
computed normalized entropy=0.7931661470115094
SPLASH=splash10-014i-4890000000-085430b80fc7031841f3
submitter=submitter = University of Tokyo Team (Faculty of Engineering, University of Tokyo)
MoNA Rating=3.75

>  <NUM PEAKS>  (4786) 
27

>  <MASS SPECTRAL PEAKS>  (4786) 
51 3.64
57 2.7
59 11.86
65 11.04
72 3.29
74 1.99
76 5.52
80 9.98
87 5.87
94 4.93
100 4.34
102 9.28
104 8.34
130 7.87
132 9.87
158 4.11
160 21.62
161 3.76
186 4.34
188 38.19
189 8.81
190 2.58
216 99.99
217 22.79
218 8.1
219 0.94
245 0.94

$$$$

     RDKit          2D

 15 14  0  0  0  0  0  0  0  0999 V2000
    5.6813    1.9785    0.0000 C   0  0  0  0  0  0  0  0  0  0  0  0
    3.0832    0.4785    0.0000 C   0  0  0  0  0  0  0  0  0  0  0  0
    5.1323   -0.0706    0.0000 C   0  0  0  0  0  0  0  0  0  0  0  0
   -0.5977    5.3265    0.0000 C   0  0  0  0  0  0  0  0  0  0  0  0
   -2.0977    3.8265    0.0000 C   0  0  0  0  0  0  0  0  0  0  0  0
   -0.5977    2.3265    0.0000 C   0  0  0  0  0  0  0  0  0  0  0  0
    5.0418    3.0405    0.0000 C   0  0  0  0  0  0  0  0  0  0  0  0
    3.3718    4.0047    0.0000 C   0  0  0  0  0  0  0  0  0  0  0  0
    2.3118    4.3396    0.0000 C   0  0  0  0  0  0  0  0  0  0  0  0
    0.6418    5.3037    0.0000 C   0  0  0  0  0  0  0  0  0  0  0  0
    4.3823    1.2285    0.0000 C   0  0  0  0  0  0  0  0  0  0  0  0
   -0.5977    3.8265    0.0000 C   0  0  0  0  0  0  0  0  0  0  0  0
    1.6523    2.5275    0.0000 N   0  0  0  0  0  0  0  0  0  0  0  0
    3.6323    2.5275    0.0000 Si  0  0  0  0  0  4  0  0  0  0  0  0
    0.9023    3.8265    0.0000 Si  0  0  0  0  0  4  0  0  0  0  0  0
 11  1  1  0
 11  2  1  0
 11  3  1  0
 12  4  1  0
 12  5  1  0
 12  6  1  0
 14  7  1  0
 14  8  1  0
 14 11  1  0
 14 13  1  0
 15  9  1  0
 15 10  1  0
 15 12  1  0
 15 13  1  0
M  END
>  <NAME>  (4787) 
BIS(TERT-BUTYLDIMETHYLSILYL)AMINE

>  <SYNONYMS>  (4787) 


>  <SPECTRUM TYPE>  (4787) 
MS1

>  <INSTRUMENT TYPE>  (4787) 
EI-B

>  <INSTRUMENT>  (4787) 
JEOL JMS-D-3000

>  <ION MODE>  (4787) 
P

>  <INCHIKEY>  (4787) 
ZBLRLJUOIRWSCE-UHFFFAOYSA-N

>  <FORMULA>  (4787) 
C12H31NSi2

>  <EXACT MASS>  (4787) 
245.199503052

>  <MW>  (4787) 
245

>  <ID>  (4787) 
JP004768

>  <CONTRIBUTOR>  (4787) 
University of Tokyo Team, {Faculty of Engineering, University of Tokyo

>  <COMMENT>  (4787) 
SMILES=CC(C)(C)[Si](C)(C)N[Si](C)(C)C(C)(C)C
InChI=InChI=1S/C12H31NSi2/c1-11(2,3)14(7,8)13-15(9,10)12(4,5)6/h13H,1-10H3
computed SMILES=N([Si](C)(C)C(C)(C)C)[Si](C)(C)C(C)(C)C
accession=JP004768
date=2016.01.19 (Created 2008.10.21, modified 2011.05.06)
author=MASS SPECTROSCOPY SOC. OF JAPAN (MSSJ)
license=CC BY-NC-SA
exact mass=245.1995
ionization energy=70 eV
ion type=[M]+*
computed spectral entropy=2.276121265311601
computed normalized entropy=0.6906049534153768
SPLASH=splash10-000b-1900000000-dc2799c2be20be85ec9b
submitter=submitter = University of Tokyo Team (Faculty of Engineering, University of Tokyo)
MoNA Rating=3.75

>  <NUM PEAKS>  (4787) 
27

>  <MASS SPECTRAL PEAKS>  (4787) 
41 3.53
45 2.05
57 3.65
59 3.44
66 2.43
73 15.14
74 7.5
75 1.07
99 2.7
100 4.33
102 1.16
113 1.22
116 7.29
117 1.37
130 18.05
131 2.85
132 7.18
133 1.16
146 99.99
147 16.66
148 7.71
188 93.93
189 18.67
190 7.44
230 4.48
231 1.09
245 0.65

$$$$

     RDKit          2D

 14 13  0  0  0  0  0  0  0  0999 V2000
    1.0526    5.8577    0.0000 C   0  0  0  0  0  0  0  0  0  0  0  0
   -6.7416    4.3577    0.0000 C   0  0  0  0  0  0  0  0  0  0  0  0
   -5.4426    2.1077    0.0000 C   0  0  0  0  0  0  0  0  0  0  0  0
   -1.2106    2.4587    0.0000 C   0  0  0  0  0  0  0  0  0  0  0  0
   -0.4313    1.4945    0.0000 C   0  0  0  0  0  0  0  0  0  0  0  0
    1.6819    1.3096    0.0000 C   0  0  0  0  0  0  0  0  0  0  0  0
    1.0526    4.3577    0.0000 C   0  0  0  0  0  0  0  0  0  0  0  0
   -2.8445    3.6077    0.0000 C   0  0  0  0  0  0  0  0  0  0  0  0
   -4.1435    4.3577    0.0000 C   0  0  0  0  0  0  0  0  0  0  0  0
   -1.5455    4.3577    0.0000 C   0  0  0  0  0  0  0  0  0  0  0  0
   -5.4426    3.6077    0.0000 C   0  0  0  0  0  0  0  0  0  0  0  0
   -0.2464    3.6077    0.0000 C   0  0  0  0  0  0  0  0  0  0  0  0
    1.8668    3.4228    0.0000 F   0  0  0  0  0  0  0  0  0  0  0  0
    0.7178    2.4587    0.0000 Si  0  0  0  0  0  4  0  0  0  0  0  0
  7  1  2  0
  9  8  1  0
 10  8  1  0
 11  2  1  0
 11  3  1  0
 11  9  2  0
 12  4  1  0
 12  7  1  0
 12 10  1  0
 14  5  1  0
 14  6  1  0
 14 12  1  0
 14 13  1  0
M  END
>  <NAME>  (4788) 
3-(DIMETHYLFLUOROSILYL)-3,7-DIMETHYL-1,6-OCTADIENE

>  <SYNONYMS>  (4788) 


>  <SPECTRUM TYPE>  (4788) 
MS1

>  <INSTRUMENT TYPE>  (4788) 
EI-B

>  <INSTRUMENT>  (4788) 
JEOL JMS-D-3000

>  <ION MODE>  (4788) 
P

>  <INCHIKEY>  (4788) 
IUEPASPTDFFCEL-UHFFFAOYSA-N

>  <FORMULA>  (4788) 
C12H23FSi

>  <EXACT MASS>  (4788) 
214.15530548599997

>  <MW>  (4788) 
214

>  <ID>  (4788) 
JP004767

>  <CONTRIBUTOR>  (4788) 
University of Tokyo Team, {Faculty of Engineering, University of Tokyo

>  <COMMENT>  (4788) 
SMILES=CC(C)=CCCC(C)(C=C)[Si](C)(C)F
InChI=InChI=1S/C12H23FSi/c1-7-12(4,14(5,6)13)10-8-9-11(2)3/h7,9H,1,8,10H2,2-6H3
computed SMILES=F[Si](C)(C)C(C=C)(C)CCC=C(C)C
accession=JP004767
license=CC BY-NC-SA
date=2016.01.19 (Created 2008.10.21, modified 2011.05.06)
author=MASS SPECTROSCOPY SOC. OF JAPAN (MSSJ)
exact mass=214.15531
ionization energy=70 eV
ion type=[M]+*
computed spectral entropy=1.9931221497263742
computed normalized entropy=0.6271517904113536
SPLASH=splash10-004i-9200000000-f62a95dabc459b48798f
submitter=submitter = University of Tokyo Team (Faculty of Engineering, University of Tokyo)
MoNA Rating=3.75

>  <NUM PEAKS>  (4788) 
24

>  <MASS SPECTRAL PEAKS>  (4788) 
40 1.63
41 1.96
42 10.98
48 1.75
49 3.53
53 1.72
55 2.24
56 1.48
60 1.94
64 1.33
67 1.41
68 2.08
69 11.07
70 1.48
73 1.47
77 99.99
78 7.32
79 3.7
145 26.58
146 4.4
147 2.64
171 1.98
199 1.49
214 3.53

$$$$

     RDKit          2D

 15 15  0  0  0  0  0  0  0  0999 V2000
    5.7524    1.0739    0.0000 C   0  0  0  0  0  0  0  0  0  0  0  0
   -4.0936    1.6171    0.0000 C   0  0  0  0  0  0  0  0  0  0  0  0
   -4.6392   -0.4328    0.0000 C   0  0  0  0  0  0  0  0  0  0  0  0
   -2.5893   -0.9784    0.0000 C   0  0  0  0  0  0  0  0  0  0  0  0
    0.5602   -1.9185    0.0000 C   0  0  0  0  0  0  0  0  0  0  0  0
   -0.7389   -1.1685    0.0000 C   0  0  0  0  0  0  0  0  0  0  0  0
    1.8547   -1.1763    0.0000 C   0  0  0  0  0  0  0  0  0  0  0  0
    0.5561    1.0745    0.0000 C   0  0  0  0  0  0  0  0  0  0  0  0
   -2.0437    1.0715    0.0000 C   0  0  0  0  0  0  0  0  0  0  0  0
   -0.7434    0.3237    0.0000 C   0  0  0  0  0  0  0  0  0  0  0  0
    1.8552    0.3245    0.0000 C   0  0  0  0  0  0  0  0  0  0  0  0
    3.1543    1.0743    0.0000 C   0  0  0  0  0  0  0  0  0  0  0  0
    3.1546    2.5743    0.0000 O   0  0  0  0  0  0  0  0  0  0  0  0
    4.4533    0.3241    0.0000 O   0  0  0  0  0  0  0  0  0  0  0  0
   -3.3414    0.3193    0.0000 Si  0  0  0  0  0  4  0  0  0  0  0  0
  6  5  1  0
  7  5  1  0
 10  6  2  0
 10  8  1  0
 10  9  1  0
 11  7  1  0
 11  8  1  0
 12 11  1  0
 13 12  2  0
 14  1  1  0
 14 12  1  0
 15  2  1  0
 15  3  1  0
 15  4  1  0
 15  9  1  0
M  END
>  <NAME>  (4789) 
METHYL 3-TRIMETHYLSILYLMETHYL-3-CYCLOHEXENECARBOXYLATE

>  <SYNONYMS>  (4789) 


>  <SPECTRUM TYPE>  (4789) 
MS1

>  <INSTRUMENT TYPE>  (4789) 
EI-B

>  <INSTRUMENT>  (4789) 
JEOL JMS-D-3000

>  <ION MODE>  (4789) 
P

>  <INCHIKEY>  (4789) 
MHABJOQBNQANTI-UHFFFAOYSA-N

>  <FORMULA>  (4789) 
C12H22O2Si

>  <EXACT MASS>  (4789) 
226.138906474

>  <MW>  (4789) 
226

>  <ID>  (4789) 
JP004766

>  <CONTRIBUTOR>  (4789) 
University of Tokyo Team, {Faculty of Engineering, University of Tokyo

>  <COMMENT>  (4789) 
SMILES=COC(=O)C(C1)CC(=CC1)C[Si](C)(C)C
InChI=InChI=1S/C12H22O2Si/c1-14-12(13)11-7-5-6-10(8-11)9-15(2,3)4/h6,11H,5,7-9H2,1-4H3
computed SMILES=O=C(OC)C1CC(=CCC1)C[Si](C)(C)C
accession=JP004766
date=2016.01.19 (Created 2008.10.21, modified 2011.05.06)
author=MASS SPECTROSCOPY SOC. OF JAPAN (MSSJ)
license=CC BY-NC-SA
exact mass=226.13891
ionization energy=70 eV
ion type=[M]+*
computed spectral entropy=2.4887522400957383
computed normalized entropy=0.8174524218506767
SPLASH=splash10-00dl-9110000000-91ed1df06d778c80836d
submitter=submitter = University of Tokyo Team (Faculty of Engineering, University of Tokyo)
MoNA Rating=3.75

>  <NUM PEAKS>  (4789) 
21

>  <MASS SPECTRAL PEAKS>  (4789) 
58 6.86
59 7.79
73 99.99
74 6.16
75 8.37
79 35.46
80 4.76
89 17.32
92 6.27
93 14.41
94 67.32
95 5.93
104 4.06
107 3.72
122 20.81
195 12.67
205 15.11
211 6.16
220 6.27
226 16.27
227 4.3

$$$$

     RDKit          2D

 14 14  0  0  0  0  0  0  0  0999 V2000
   -7.1055   -0.3976    0.0000 C   0  0  0  0  0  0  0  0  0  0  0  0
   -3.3866   -1.6371    0.0000 C   0  0  0  0  0  0  0  0  0  0  0  0
   -2.4224   -3.3072    0.0000 C   0  0  0  0  0  0  0  0  0  0  0  0
    0.3538    1.5015    0.0000 C   0  0  0  0  0  0  0  0  0  0  0  0
   -1.5745    1.5015    0.0000 C   0  0  0  0  0  0  0  0  0  0  0  0
   -5.8065    0.3524    0.0000 C   0  0  0  0  0  0  0  0  0  0  0  0
   -4.5075   -0.3976    0.0000 C   0  0  0  0  0  0  0  0  0  0  0  0
    0.6887   -1.8976    0.0000 C   0  0  0  0  0  0  0  0  0  0  0  0
   -3.2084    0.3524    0.0000 C   0  0  0  0  0  0  0  0  0  0  0  0
   -0.6103   -2.6476    0.0000 C   0  0  0  0  0  0  0  0  0  0  0  0
    0.6887   -0.3976    0.0000 C   0  0  0  0  0  0  0  0  0  0  0  0
   -1.9094   -0.3976    0.0000 N   0  0  0  0  0  0  0  0  0  0  0  0
   -1.9094   -1.8976    0.0000 Si  0  0  0  0  0  4  0  0  0  0  0  0
   -0.6103    0.3524    0.0000 Si  0  0  0  0  0  4  0  0  0  0  0  0
  6  1  1  0
  7  6  1  0
  9  7  1  0
 10  8  1  0
 11  8  1  0
 12  9  1  0
 13  2  1  0
 13  3  1  0
 13 10  1  0
 13 12  1  0
 14  4  1  0
 14  5  1  0
 14 11  1  0
 14 12  1  0
M  END
>  <NAME>  (4790) 
1-BUTYL-2,2,6,6-TETRAMETHYL-2,6-DISILAPIPERIDINE

>  <SYNONYMS>  (4790) 


>  <SPECTRUM TYPE>  (4790) 
MS1

>  <INSTRUMENT TYPE>  (4790) 
EI-B

>  <INSTRUMENT>  (4790) 
JEOL JMS-D-3000

>  <ION MODE>  (4790) 
P

>  <INCHIKEY>  (4790) 
ZWDFPXZHLQWYKN-UHFFFAOYSA-N

>  <FORMULA>  (4790) 
C11H27NSi2

>  <EXACT MASS>  (4790) 
229.16820292399998

>  <MW>  (4790) 
229

>  <ID>  (4790) 
JP004765

>  <CONTRIBUTOR>  (4790) 
University of Tokyo Team, {Faculty of Engineering, University of Tokyo

>  <COMMENT>  (4790) 
SMILES=CCCCN([Si](C)(C)1)[Si](C)(C)CCC1
InChI=InChI=1S/C11H27NSi2/c1-6-7-9-12-13(2,3)10-8-11-14(12,4)5/h6-11H2,1-5H3
computed SMILES=N1(CCCC)[Si](C)(C)CCC[Si]1(C)C
accession=JP004765
date=2016.01.19 (Created 2008.10.21, modified 2011.05.06)
author=MASS SPECTROSCOPY SOC. OF JAPAN (MSSJ)
license=CC BY-NC-SA
exact mass=229.1682
ionization energy=70 eV
ion type=[M]+*
computed spectral entropy=1.3382210043405136
computed normalized entropy=0.6435482688585024
SPLASH=splash10-000i-1900000000-81e9d858aad4c6dbb2be
submitter=submitter = University of Tokyo Team (Faculty of Engineering, University of Tokyo)
MoNA Rating=3.75

>  <NUM PEAKS>  (4790) 
8

>  <MASS SPECTRAL PEAKS>  (4790) 
59 10.19
73 5.62
88 2.34
186 99.99
187 20.29
188 8.73
214 9.15
229 4.99

$$$$

     RDKit          2D

 13 13  0  0  0  0  0  0  0  0999 V2000
    3.1483   -0.5487    0.0000 C   0  0  0  0  0  0  0  0  0  0  0  0
    5.1972    0.0006    0.0000 C   0  0  0  0  0  0  0  0  0  0  0  0
    4.6479    2.0496    0.0000 C   0  0  0  0  0  0  0  0  0  0  0  0
   -1.3000    0.7500    0.0000 C   0  0  0  0  0  0  0  0  0  0  0  0
   -0.0000   -1.5000    0.0000 C   0  0  0  0  0  0  0  0  0  0  0  0
    0.0000    1.5000    0.0000 C   0  0  0  0  0  0  0  0  0  0  0  0
    1.3000   -0.7500    0.0000 C   0  0  0  0  0  0  0  0  0  0  0  0
   -2.5989   -1.5002    0.0000 C   0  0  0  0  0  0  0  0  0  0  0  0
    2.5989    1.5002    0.0000 C   0  0  0  0  0  0  0  0  0  0  0  0
   -1.3000   -0.7500    0.0000 C   0  0  0  0  0  0  0  0  0  0  0  0
    1.3000    0.7500    0.0000 C   0  0  0  0  0  0  0  0  0  0  0  0
   -3.8981   -0.7504    0.0000 O   0  0  0  0  0  0  0  0  0  0  0  0
    3.8981    0.7504    0.0000 Si  0  0  0  0  0  4  0  0  0  0  0  0
  6  4  1  0
  7  5  1  0
 10  4  1  0
 10  5  1  0
 10  8  1  0
 11  6  2  0
 11  7  1  0
 11  9  1  0
 12  8  2  0
 13  1  1  0
 13  2  1  0
 13  3  1  0
 13  9  1  0
M  END
>  <NAME>  (4791) 
4-TRIMETHYLSILYLMETHYL-3-CYCLOHEXENEC-1-ARBALDEHYDE

>  <SYNONYMS>  (4791) 


>  <SPECTRUM TYPE>  (4791) 
MS1

>  <INSTRUMENT TYPE>  (4791) 
EI-B

>  <INSTRUMENT>  (4791) 
JEOL JMS-D-3000

>  <ION MODE>  (4791) 
P

>  <INCHIKEY>  (4791) 
PTJDAESHYAVRRS-UHFFFAOYSA-N

>  <FORMULA>  (4791) 
C11H20OSi

>  <EXACT MASS>  (4791) 
196.12834179

>  <MW>  (4791) 
196

>  <ID>  (4791) 
JP004764

>  <CONTRIBUTOR>  (4791) 
University of Tokyo Team, {Faculty of Engineering, University of Tokyo

>  <COMMENT>  (4791) 
computed SMILES=O=CC1CC=C(CC1)C[Si](C)(C)C
SMILES=O=CC(C1)CC=C(C1)C[Si](C)(C)C
cas=74043-11-1
InChI=InChI=1S/C11H20OSi/c1-13(2,3)9-11-6-4-10(8-12)5-7-11/h6,8,10H,4-5,7,9H2,1-3H3
accession=JP004764
date=2016.01.19 (Created 2008.10.21, modified 2011.05.06)
author=MASS SPECTROSCOPY SOC. OF JAPAN (MSSJ)
license=CC BY-NC-SA
exact mass=196.12834
ionization energy=70 eV
ion type=[M]+*
computed spectral entropy=2.386496166711964
computed normalized entropy=0.7016635316665127
SPLASH=splash10-00di-9300000000-b6a2a4caf7685746c6c1
submitter=submitter = University of Tokyo Team (Faculty of Engineering, University of Tokyo)
MoNA Rating=3.75

>  <NUM PEAKS>  (4791) 
30

>  <MASS SPECTRAL PEAKS>  (4791) 
41 2.1
43 4.19
45 10.05
53 1.37
55 1.11
57 1.09
59 6.91
65 1.09
72 1.28
73 99.99
74 8.67
75 12.91
77 3.12
78 4.97
79 2.61
80 2.75
91 5.85
92 1.62
93 3.03
103 10.28
104 1.2
105 1.91
106 10.28
107 1.43
129 36.83
130 4.43
131 1.63
151 2.15
181 2.28
196 3.66

$$$$

     RDKit          2D

 14 14  0  0  0  0  0  0  0  0999 V2000
    0.0000    3.0000    0.0000 C   0  0  0  0  0  0  0  0  0  0  0  0
   -2.7772   -0.4897    0.0000 C   0  0  0  0  0  0  0  0  0  0  0  0
   -1.8127   -2.1596    0.0000 C   0  0  0  0  0  0  0  0  0  0  0  0
    5.1970    1.5006    0.0000 C   0  0  0  0  0  0  0  0  0  0  0  0
   -1.3000    0.7500    0.0000 C   0  0  0  0  0  0  0  0  0  0  0  0
   -0.0000   -1.5000    0.0000 C   0  0  0  0  0  0  0  0  0  0  0  0
    0.0000    1.5000    0.0000 C   0  0  0  0  0  0  0  0  0  0  0  0
    1.3000   -0.7500    0.0000 C   0  0  0  0  0  0  0  0  0  0  0  0
    1.3000    0.7500    0.0000 C   0  0  0  0  0  0  0  0  0  0  0  0
    2.5989    1.5002    0.0000 C   0  0  0  0  0  0  0  0  0  0  0  0
   -1.3000   -0.7500    0.0000 C   0  0  0  0  0  0  0  0  0  0  0  0
    2.5989   -1.5002    0.0000 O   0  0  0  0  0  0  0  0  0  0  0  0
    2.5987    3.0002    0.0000 O   0  0  0  0  0  0  0  0  0  0  0  0
    3.8981    0.7504    0.0000 O   0  0  0  0  0  0  0  0  0  0  0  0
  7  1  1  0
  7  5  1  0
  8  6  1  0
  9  7  2  0
  9  8  1  0
 10  9  1  0
 11  2  1  0
 11  3  1  0
 11  5  1  0
 11  6  1  0
 12  8  2  0
 13 10  2  0
 14  4  1  0
 14 10  1  0
M  END
>  <NAME>  (4792) 
3,5,5-TRIMETHYL-2-METHOXYCARBONYL-2-CYCLOHEXENONE

>  <SYNONYMS>  (4792) 


>  <SPECTRUM TYPE>  (4792) 
MS1

>  <INSTRUMENT TYPE>  (4792) 
EI-B

>  <INSTRUMENT>  (4792) 
JEOL JMS-D-3000

>  <ION MODE>  (4792) 
P

>  <INCHIKEY>  (4792) 
NRQHBEIJFHZERL-UHFFFAOYSA-N

>  <FORMULA>  (4792) 
C11H16O3

>  <EXACT MASS>  (4792) 
196.10994437199997

>  <MW>  (4792) 
196

>  <ID>  (4792) 
JP004763

>  <CONTRIBUTOR>  (4792) 
University of Tokyo Team, {Faculty of Engineering, University of Tokyo

>  <COMMENT>  (4792) 
SMILES=COC(=O)C(=C(C)1)C(=O)CC(C)(C)C1
InChI=InChI=1S/C11H16O3/c1-7-5-11(2,3)6-8(12)9(7)10(13)14-4/h5-6H2,1-4H3
computed SMILES=O=C(OC)C=1C(=O)CC(C)(C)CC1C
accession=JP004763
date=2016.01.19 (Created 2008.10.21, modified 2011.05.06)
author=MASS SPECTROSCOPY SOC. OF JAPAN (MSSJ)
license=CC BY-NC-SA
exact mass=196.10994
ionization energy=70 eV
ion type=[M]+*
computed spectral entropy=2.9890326545160826
computed normalized entropy=0.8624525175451053
SPLASH=splash10-03e9-7900000000-8032da41321fd223eef5
submitter=submitter = University of Tokyo Team (Faculty of Engineering, University of Tokyo)
MoNA Rating=3.75

>  <NUM PEAKS>  (4792) 
32

>  <MASS SPECTRAL PEAKS>  (4792) 
41 26.28
43 4.82
51 6.2
53 20.28
54 13.15
55 15.19
59 8.57
65 4.74
66 5.51
67 25
77 11.2
79 8.84
81 8.4
82 93.14
83 26.13
91 6.79
93 10.11
95 7.73
96 5.45
108 7.27
109 18.08
112 99.99
113 7.48
121 7.4
123 5.12
138 5.89
140 43.67
149 19.59
164 68.61
165 33.07
196 32.26
197 4.24

$$$$

     RDKit          2D

 14 14  0  0  0  0  0  0  0  0999 V2000
    3.6169    1.0147    0.0000 C   0  0  0  0  0  0  0  0  0  0  0  0
    0.0549   -3.1350    0.0000 C   0  0  0  0  0  0  0  0  0  0  0  0
    1.9834   -3.1353    0.0000 C   0  0  0  0  0  0  0  0  0  0  0  0
   -4.1773   -1.9853    0.0000 C   0  0  0  0  0  0  0  0  0  0  0  0
    1.0184    1.0155    0.0000 C   0  0  0  0  0  0  0  0  0  0  0  0
    2.3184   -1.2361    0.0000 C   0  0  0  0  0  0  0  0  0  0  0  0
    2.3179    0.2647    0.0000 C   0  0  0  0  0  0  0  0  0  0  0  0
   -0.2807    0.2655    0.0000 C   0  0  0  0  0  0  0  0  0  0  0  0
   -0.2802   -1.2353    0.0000 C   0  0  0  0  0  0  0  0  0  0  0  0
   -1.5792   -1.9853    0.0000 C   0  0  0  0  0  0  0  0  0  0  0  0
    1.0193   -1.9861    0.0000 C   0  0  0  0  0  0  0  0  0  0  0  0
   -1.5798    1.0153    0.0000 O   0  0  0  0  0  0  0  0  0  0  0  0
   -1.5792   -3.4853    0.0000 O   0  0  0  0  0  0  0  0  0  0  0  0
   -2.8783   -1.2353    0.0000 O   0  0  0  0  0  0  0  0  0  0  0  0
  7  1  1  0
  7  5  2  0
  7  6  1  0
  8  5  1  0
  9  8  1  0
 10  9  1  0
 11  2  1  0
 11  3  1  0
 11  6  1  0
 11  9  1  0
 12  8  2  0
 13 10  2  0
 14  4  1  0
 14 10  1  0
M  END
>  <NAME>  (4793) 
3,5,5-TRIMETHYL-6-METHOXYCARBONYL-2-CYCLOHEXENONE

>  <SYNONYMS>  (4793) 


>  <SPECTRUM TYPE>  (4793) 
MS1

>  <INSTRUMENT TYPE>  (4793) 
EI-B

>  <INSTRUMENT>  (4793) 
JEOL JMS-D-3000

>  <ION MODE>  (4793) 
P

>  <INCHIKEY>  (4793) 
DVRUDYWXVMIYKQ-UHFFFAOYSA-N

>  <FORMULA>  (4793) 
C11H16O3

>  <EXACT MASS>  (4793) 
196.10994437199997

>  <MW>  (4793) 
196

>  <ID>  (4793) 
JP004762

>  <CONTRIBUTOR>  (4793) 
University of Tokyo Team, {Faculty of Engineering, University of Tokyo

>  <COMMENT>  (4793) 
SMILES=COC(=O)C(C(=O)1)C(C)(C)CC(C)=C1
InChI=InChI=1S/C11H16O3/c1-7-5-8(12)9(10(13)14-4)11(2,3)6-7/h5,9H,6H2,1-4H3
computed SMILES=O=C(OC)C1C(=O)C=C(C)CC1(C)C
accession=JP004762
date=2016.01.19 (Created 2008.10.21, modified 2011.05.06)
author=MASS SPECTROSCOPY SOC. OF JAPAN (MSSJ)
license=CC BY-NC-SA
exact mass=196.10994
ionization energy=70 eV
ion type=[M]+*
computed spectral entropy=2.3833130933533124
computed normalized entropy=0.7231283556345115
SPLASH=splash10-001i-9400000000-1828f07b8fb0921a8495
submitter=submitter = University of Tokyo Team (Faculty of Engineering, University of Tokyo)
MoNA Rating=3.75

>  <NUM PEAKS>  (4793) 
27

>  <MASS SPECTRAL PEAKS>  (4793) 
41 2.26
44 5.36
51 1.57
53 5.53
54 12.25
55 2.57
59 2.13
67 1.42
77 2.48
79 2.19
82 99.99
83 14.33
93 3.37
108 2.91
109 2.52
122 3.69
123 1.64
136 3.08
137 6.97
138 7.08
149 17.28
150 1.9
164 6.29
165 5.03
181 4.9
196 14.01
197 1.69

$$$$

     RDKit          2D

 14 14  0  0  0  0  0  0  0  0999 V2000
   -6.8197    3.1321    0.0000 C   0  0  0  0  0  0  0  0  0  0  0  0
    3.5726    1.6321    0.0000 C   0  0  0  0  0  0  0  0  0  0  0  0
    3.5731    3.1329    0.0000 C   0  0  0  0  0  0  0  0  0  0  0  0
    2.2731    0.8813    0.0000 C   0  0  0  0  0  0  0  0  0  0  0  0
    2.2740    3.8829    0.0000 C   0  0  0  0  0  0  0  0  0  0  0  0
    0.9740    1.6313    0.0000 C   0  0  0  0  0  0  0  0  0  0  0  0
   -0.3245    3.8821    0.0000 C   0  0  0  0  0  0  0  0  0  0  0  0
   -4.2216    3.1321    0.0000 C   0  0  0  0  0  0  0  0  0  0  0  0
   -5.5207    3.8821    0.0000 C   0  0  0  0  0  0  0  0  0  0  0  0
    0.9745    3.1321    0.0000 C   0  0  0  0  0  0  0  0  0  0  0  0
   -1.6236    3.1321    0.0000 C   0  0  0  0  0  0  0  0  0  0  0  0
   -5.5207    5.3821    0.0000 O   0  0  0  0  0  0  0  0  0  0  0  0
   -1.6236    1.6321    0.0000 O   0  0  0  0  0  0  0  0  0  0  0  0
   -2.9226    3.8821    0.0000 O   0  0  0  0  0  0  0  0  0  0  0  0
  3  2  2  0
  4  2  1  0
  5  3  1  0
  6  4  2  0
  9  1  1  0
  9  8  1  0
 10  5  2  0
 10  6  1  0
 10  7  1  0
 11  7  1  0
 12  9  2  0
 13 11  2  0
 14  8  1  0
 14 11  1  0
M  END
>  <NAME>  (4794) 
2-OXOPROPYL PHENYLACETATE

>  <SYNONYMS>  (4794) 


>  <SPECTRUM TYPE>  (4794) 
MS1

>  <INSTRUMENT TYPE>  (4794) 
EI-B

>  <INSTRUMENT>  (4794) 
JEOL JMS-D-3000

>  <ION MODE>  (4794) 
P

>  <INCHIKEY>  (4794) 
MXZBBLQECZKOBV-UHFFFAOYSA-N

>  <FORMULA>  (4794) 
C11H12O3

>  <EXACT MASS>  (4794) 
192.078644244

>  <MW>  (4794) 
192

>  <ID>  (4794) 
JP004761

>  <CONTRIBUTOR>  (4794) 
University of Tokyo Team, {Faculty of Engineering, University of Tokyo

>  <COMMENT>  (4794) 
SMILES=CC(=O)COC(=O)Cc(c1)cccc1
InChI=InChI=1S/C11H12O3/c1-9(12)8-14-11(13)7-10-5-3-2-4-6-10/h2-6H,7-8H2,1H3
computed SMILES=O=C(OCC(=O)C)CC=1C=CC=CC1
accession=JP004761
date=2016.01.19 (Created 2008.10.21, modified 2011.05.06)
author=MASS SPECTROSCOPY SOC. OF JAPAN (MSSJ)
license=CC BY-NC-SA
exact mass=192.07864
ionization energy=70 eV
ion type=[M]+*
computed spectral entropy=1.9166783549631945
computed normalized entropy=0.6631252017070292
SPLASH=splash10-00kf-9300000000-4e4725b9e9d3dc6e6521
submitter=submitter = University of Tokyo Team (Faculty of Engineering, University of Tokyo)
MoNA Rating=3.75

>  <NUM PEAKS>  (4794) 
18

>  <MASS SPECTRAL PEAKS>  (4794) 
40 1.91
41 1.26
42 34.19
48 1.05
49 2.55
56 4.15
63 3.13
65 11.79
71 2.13
85 1.01
89 3.81
90 3.83
91 99.99
92 9.44
118 48.28
119 15.82
120 1.35
192 1.63

$$$$

     RDKit          2D

 13 13  0  0  0  0  0  0  0  0999 V2000
   -5.8454    3.6946    0.0000 C   0  0  0  0  0  0  0  0  0  0  0  0
    3.2478    1.4446    0.0000 C   0  0  0  0  0  0  0  0  0  0  0  0
    3.2483    2.9454    0.0000 C   0  0  0  0  0  0  0  0  0  0  0  0
    1.9483    0.6938    0.0000 C   0  0  0  0  0  0  0  0  0  0  0  0
    1.9493    3.6954    0.0000 C   0  0  0  0  0  0  0  0  0  0  0  0
    0.6493    1.4438    0.0000 C   0  0  0  0  0  0  0  0  0  0  0  0
   -3.2474    3.6946    0.0000 C   0  0  0  0  0  0  0  0  0  0  0  0
   -1.9483    2.9446    0.0000 C   0  0  0  0  0  0  0  0  0  0  0  0
   -4.5464    2.9446    0.0000 C   0  0  0  0  0  0  0  0  0  0  0  0
    0.6498    2.9446    0.0000 C   0  0  0  0  0  0  0  0  0  0  0  0
   -0.6493    3.6946    0.0000 C   0  0  0  0  0  0  0  0  0  0  0  0
   -4.5464    1.4446    0.0000 O   0  0  0  0  0  0  0  0  0  0  0  0
   -0.6493    5.1946    0.0000 O   0  0  0  0  0  0  0  0  0  0  0  0
  3  2  2  0
  4  2  1  0
  5  3  1  0
  6  4  2  0
  8  7  1  0
  9  1  1  0
  9  7  1  0
 10  5  2  0
 10  6  1  0
 11  8  1  0
 11 10  1  0
 12  9  2  0
 13 11  2  0
M  END
>  <NAME>  (4795) 
1-PHENYL-1,4-PENTANEDIONE

>  <SYNONYMS>  (4795) 


>  <SPECTRUM TYPE>  (4795) 
MS1

>  <INSTRUMENT TYPE>  (4795) 
EI-B

>  <INSTRUMENT>  (4795) 
JEOL JMS-D-3000

>  <ION MODE>  (4795) 
P

>  <INCHIKEY>  (4795) 
RBLXWIPBPPVLPU-UHFFFAOYSA-N

>  <FORMULA>  (4795) 
C11H12O2

>  <EXACT MASS>  (4795) 
176.083729624

>  <MW>  (4795) 
176

>  <ID>  (4795) 
JP004760

>  <CONTRIBUTOR>  (4795) 
University of Tokyo Team, {Faculty of Engineering, University of Tokyo

>  <COMMENT>  (4795) 
SMILES=CC(=O)CCC(=O)c(c1)cccc1
cas=583-05-1
InChI=InChI=1S/C11H12O2/c1-9(12)7-8-11(13)10-5-3-2-4-6-10/h2-6H,7-8H2,1H3
computed SMILES=O=C(C=1C=CC=CC1)CCC(=O)C
accession=JP004760
date=2016.01.19 (Created 2008.10.21, modified 2011.05.06)
author=MASS SPECTROSCOPY SOC. OF JAPAN (MSSJ)
license=CC BY-NC-SA
exact mass=176.08373
ionization energy=70 eV
ion type=[M]+*
computed spectral entropy=2.372199397002619
computed normalized entropy=0.7369651785494865
SPLASH=splash10-0a4i-3900000000-833d98f53f0115f00be5
submitter=submitter = University of Tokyo Team (Faculty of Engineering, University of Tokyo)
MoNA Rating=3.75

>  <NUM PEAKS>  (4795) 
25

>  <MASS SPECTRAL PEAKS>  (4795) 
43 17.96
50 3.32
51 12.46
55 2.79
63 1.39
76 1.78
77 37.95
78 3.36
79 1.99
105 99.99
106 7.75
115 8.61
116 1.32
128 1.98
129 2.6
131 1.68
133 8.78
134 4
157 9.09
158 20.29
159 3.78
161 14.2
162 1.51
174 1.48
176 5.13

$$$$

     RDKit          2D

 15 14  0  0  0  0  0  0  0  0999 V2000
    2.5981    4.5000    0.0000 C   0  0  0  0  0  0  0  0  0  0  0  0
   -7.7942    4.5000    0.0000 C   0  0  0  0  0  0  0  0  0  0  0  0
   -1.2990    0.7500    0.0000 C   0  0  0  0  0  0  0  0  0  0  0  0
    1.2990    5.2500    0.0000 C   0  0  0  0  0  0  0  0  0  0  0  0
   -6.4952    5.2500    0.0000 C   0  0  0  0  0  0  0  0  0  0  0  0
   -2.5981    3.0000    0.0000 C   0  0  0  0  0  0  0  0  0  0  0  0
   -1.2990    2.2500    0.0000 C   0  0  0  0  0  0  0  0  0  0  0  0
   -2.5981    4.5000    0.0000 C   0  0  0  0  0  0  0  0  0  0  0  0
   -1.2990    5.2500    0.0000 C   0  0  0  0  0  0  0  0  0  0  0  0
   -3.8971    5.2500    0.0000 C   0  0  0  0  0  0  0  0  0  0  0  0
    0.0000    3.0000    0.0000 O   0  0  0  0  0  0  0  0  0  0  0  0
   -1.2990    6.7500    0.0000 O   0  0  0  0  0  0  0  0  0  0  0  0
   -3.8971    6.7500    0.0000 O   0  0  0  0  0  0  0  0  0  0  0  0
    0.0000    4.5000    0.0000 O   0  0  0  0  0  0  0  0  0  0  0  0
   -5.1962    4.5000    0.0000 O   0  0  0  0  0  0  0  0  0  0  0  0
  4  1  1  0
  5  2  1  0
  7  3  1  0
  7  6  1  0
  8  6  1  0
  9  8  1  0
 10  8  1  0
 11  7  2  0
 12  9  2  0
 13 10  2  0
 14  4  1  0
 14  9  1  0
 15  5  1  0
 15 10  1  0
M  END
>  <NAME>  (4796) 
DIETHYL (2-OXOPROPYL)MALONATE

>  <SYNONYMS>  (4796) 


>  <SPECTRUM TYPE>  (4796) 
MS1

>  <INSTRUMENT TYPE>  (4796) 
EI-B

>  <INSTRUMENT>  (4796) 
JEOL JMS-D-3000

>  <ION MODE>  (4796) 
P

>  <INCHIKEY>  (4796) 
KGZCSZOGMMZHKB-UHFFFAOYSA-N

>  <FORMULA>  (4796) 
C10H16O5

>  <EXACT MASS>  (4796) 
216.09977361199998

>  <MW>  (4796) 
216

>  <ID>  (4796) 
JP004759

>  <CONTRIBUTOR>  (4796) 
University of Tokyo Team, {Faculty of Engineering, University of Tokyo

>  <COMMENT>  (4796) 
SMILES=CCOC(=O)C(CC(C)=O)C(=O)OCC
InChI=InChI=1S/C10H16O5/c1-4-14-9(12)8(6-7(3)11)10(13)15-5-2/h8H,4-6H2,1-3H3
computed SMILES=O=C(OCC)C(C(=O)OCC)CC(=O)C
accession=JP004759
date=2016.01.19 (Created 2008.10.21, modified 2011.05.06)
author=MASS SPECTROSCOPY SOC. OF JAPAN (MSSJ)
license=CC BY-NC-SA
exact mass=216.09977
ionization energy=70 eV
ion type=[M]+*
computed spectral entropy=3.123819159443216
computed normalized entropy=0.794495852879099
SPLASH=splash10-00bc-4900000000-0ee24ee02467bcb83894
submitter=submitter = University of Tokyo Team (Faculty of Engineering, University of Tokyo)
MoNA Rating=3.75

>  <NUM PEAKS>  (4796) 
51

>  <MASS SPECTRAL PEAKS>  (4796) 
41 1.89
42 3.25
43 99.99
45 7.31
46 1
53 2.06
54 1.43
55 35.95
56 4.3
57 1.77
58 1.61
69 1.92
71 2.84
72 2.03
73 48.38
74 2.96
82 1.07
85 1
87 1.05
96 1.12
97 18.98
98 5.51
99 15.4
100 24.49
101 60.11
102 19.34
103 1.4
115 2.84
117 2.57
124 3.9
125 85.63
126 6.22
127 25.96
128 67.17
129 14.19
130 1.25
143 23.1
144 4.49
145 6.18
146 1.31
155 3.98
170 4.94
171 49.29
172 4.54
173 22.39
174 45.89
175 11.03
176 1.25
201 12.28
202 1.31
216 2.15

$$$$

     RDKit          2D

 15 14  0  0  0  0  0  0  0  0999 V2000
   -1.4836    0.9827    0.0000 C   0  0  0  0  0  0  0  0  0  0  0  0
   -4.9295    2.7913    0.0000 C   0  0  0  0  0  0  0  0  0  0  0  0
    0.2666    7.2913    0.0000 C   0  0  0  0  0  0  0  0  0  0  0  0
    2.8862    2.9132    0.0000 C   0  0  0  0  0  0  0  0  0  0  0  0
   -0.5194    2.1318    0.0000 C   0  0  0  0  0  0  0  0  0  0  0  0
   -2.3315    2.7913    0.0000 C   0  0  0  0  0  0  0  0  0  0  0  0
   -3.6305    3.5413    0.0000 C   0  0  0  0  0  0  0  0  0  0  0  0
   -1.0324    5.0413    0.0000 C   0  0  0  0  0  0  0  0  0  0  0  0
    0.4448    3.8018    0.0000 C   0  0  0  0  0  0  0  0  0  0  0  0
   -1.0324    3.5413    0.0000 C   0  0  0  0  0  0  0  0  0  0  0  0
   -3.6305    5.0413    0.0000 O   0  0  0  0  0  0  0  0  0  0  0  0
   -2.3315    5.7913    0.0000 O   0  0  0  0  0  0  0  0  0  0  0  0
    0.9578    5.2113    0.0000 O   0  0  0  0  0  0  0  0  0  0  0  0
    0.2666    5.7913    0.0000 O   0  0  0  0  0  0  0  0  0  0  0  0
    1.4090    2.6527    0.0000 O   0  0  0  0  0  0  0  0  0  0  0  0
  5  1  1  0
  7  2  1  0
  7  6  1  0
 10  5  1  0
 10  6  1  0
 10  8  1  0
 10  9  1  0
 11  7  2  0
 12  8  2  0
 13  9  2  0
 14  3  1  0
 14  8  1  0
 15  4  1  0
 15  9  1  0
M  END
>  <NAME>  (4797) 
DIMETHYL ETHYL(2-OXOPROPYL)MALONATE

>  <SYNONYMS>  (4797) 


>  <SPECTRUM TYPE>  (4797) 
MS1

>  <INSTRUMENT TYPE>  (4797) 
EI-B

>  <INSTRUMENT>  (4797) 
JEOL JMS-D-3000

>  <ION MODE>  (4797) 
P

>  <INCHIKEY>  (4797) 
PBRWHUUBOYQIEO-UHFFFAOYSA-N

>  <FORMULA>  (4797) 
C10H16O5

>  <EXACT MASS>  (4797) 
216.09977361199998

>  <MW>  (4797) 
216

>  <ID>  (4797) 
JP004758

>  <CONTRIBUTOR>  (4797) 
University of Tokyo Team, {Faculty of Engineering, University of Tokyo

>  <COMMENT>  (4797) 
SMILES=COC(=O)C(CC)(CC(C)=O)C(=O)OC
InChI=InChI=1S/C10H16O5/c1-5-10(6-7(2)11,8(12)14-3)9(13)15-4/h5-6H2,1-4H3
computed SMILES=O=C(OC)C(C(=O)OC)(CC(=O)C)CC
accession=JP004758
date=2016.01.19 (Created 2008.10.21, modified 2011.05.06)
author=MASS SPECTROSCOPY SOC. OF JAPAN (MSSJ)
license=CC BY-NC-SA
exact mass=216.09977
ionization energy=70 eV
ion type=[M]+*
computed spectral entropy=2.945499259084151
computed normalized entropy=0.7783698873553264
SPLASH=splash10-054o-7900000000-0ced305c2a338fc13791
submitter=submitter = University of Tokyo Team (Faculty of Engineering, University of Tokyo)
MoNA Rating=3.75

>  <NUM PEAKS>  (4797) 
44

>  <MASS SPECTRAL PEAKS>  (4797) 
41 5.05
42 2.32
43 99.99
44 2.98
45 3.05
53 4.85
54 2.66
55 15.91
56 1.01
58 3.46
59 24.18
69 1.92
71 3.77
79 1.05
81 6.34
82 4.13
83 10.54
85 1.74
95 3.38
97 2.44
99 3.61
113 20.31
114 10.96
115 12.5
124 2.69
125 29.95
126 2.56
127 52.15
128 3.73
129 2.67
141 10.31
142 5.93
145 14.34
146 1.22
155 1.2
156 1.05
157 3.5
159 43.4
160 3.39
173 1.49
184 1.1
185 9.51
201 1.26
216 0.06

$$$$

     RDKit          2D

 12 12  0  0  0  0  0  0  0  0999 V2000
    5.2185   -1.3785    0.0000 C   0  0  0  0  0  0  0  0  0  0  0  0
    1.8127   -2.1596    0.0000 C   0  0  0  0  0  0  0  0  0  0  0  0
   -1.3000    0.7500    0.0000 C   0  0  0  0  0  0  0  0  0  0  0  0
    0.0000    1.5000    0.0000 C   0  0  0  0  0  0  0  0  0  0  0  0
   -1.3000   -0.7500    0.0000 C   0  0  0  0  0  0  0  0  0  0  0  0
    1.3000    0.7500    0.0000 C   0  0  0  0  0  0  0  0  0  0  0  0
    2.7772   -0.4897    0.0000 C   0  0  0  0  0  0  0  0  0  0  0  0
    3.7413   -1.6389    0.0000 C   0  0  0  0  0  0  0  0  0  0  0  0
    0.0000   -1.5000    0.0000 C   0  0  0  0  0  0  0  0  0  0  0  0
    1.3000   -0.7500    0.0000 C   0  0  0  0  0  0  0  0  0  0  0  0
    3.2281   -3.0483    0.0000 O   0  0  0  0  0  0  0  0  0  0  0  0
   -0.0000   -3.0000    0.0000 O   0  0  0  0  0  0  0  0  0  0  0  0
  4  3  1  0
  5  3  1  0
  6  4  1  0
  8  1  1  0
  8  7  1  0
  9  5  1  0
 10  2  1  0
 10  6  1  0
 10  7  1  0
 10  9  1  0
 11  8  2  0
 12  9  2  0
M  END
>  <NAME>  (4798) 
2-METHYL-2-(2-OXOPROPYL)CYCLOHEXANONE

>  <SYNONYMS>  (4798) 


>  <SPECTRUM TYPE>  (4798) 
MS1

>  <INSTRUMENT TYPE>  (4798) 
EI-B

>  <INSTRUMENT>  (4798) 
JEOL JMS-D-3000

>  <ION MODE>  (4798) 
P

>  <INCHIKEY>  (4798) 
GSNMEWFUVUYCCQ-UHFFFAOYSA-N

>  <FORMULA>  (4798) 
C10H16O2

>  <EXACT MASS>  (4798) 
168.115029752

>  <MW>  (4798) 
168

>  <ID>  (4798) 
JP004757

>  <CONTRIBUTOR>  (4798) 
University of Tokyo Team, {Faculty of Engineering, University of Tokyo

>  <COMMENT>  (4798) 
SMILES=CC(=O)CC(C)(C1)C(=O)CCC1
InChI=InChI=1S/C10H16O2/c1-8(11)7-10(2)6-4-3-5-9(10)12/h3-7H2,1-2H3
computed SMILES=O=C(C)CC1(C(=O)CCCC1)C
accession=JP004757
date=2016.01.19 (Created 2008.10.21, modified 2011.05.06)
author=MASS SPECTROSCOPY SOC. OF JAPAN (MSSJ)
license=CC BY-NC-SA
exact mass=168.11503
ionization energy=70 eV
ion type=[M]+*
computed spectral entropy=3.1497837003880838
computed normalized entropy=0.8136450914103741
SPLASH=splash10-0006-9300000000-1947cb7d05e51c9f2213
submitter=submitter = University of Tokyo Team (Faculty of Engineering, University of Tokyo)
MoNA Rating=3.75

>  <NUM PEAKS>  (4798) 
48

>  <MASS SPECTRAL PEAKS>  (4798) 
40 17.73
42 16.3
43 99.99
44 10.82
45 1.52
51 1.25
53 4.15
54 2.3
55 35.08
56 4.07
57 2.07
58 6.27
59 2.57
67 10.89
68 3.09
69 10.21
70 2.6
71 2.6
73 2.58
77 1.67
79 3.86
80 1.37
81 8.41
82 15.25
83 7.69
84 5.66
85 7.3
86 1.36
91 2.04
93 6.71
95 2.84
97 8.9
98 4.33
107 4.23
108 4.22
109 3.36
110 8.63
111 57.04
112 6.19
122 3.21
124 6.66
125 10.28
126 3.88
135 4.85
150 3.12
153 2.48
168 13.74
169 1.69

$$$$

     RDKit          2D

 12 12  0  0  0  0  0  0  0  0999 V2000
    1.3245   -0.6144    0.0000 C   0  0  0  0  0  0  0  0  0  0  0  0
   -5.7147   -0.1086    0.0000 C   0  0  0  0  0  0  0  0  0  0  0  0
   -4.4157    0.6414    0.0000 C   0  0  0  0  0  0  0  0  0  0  0  0
   -5.9383   -1.5919    0.0000 C   0  0  0  0  0  0  0  0  0  0  0  0
   -3.0194    0.0934    0.0000 C   0  0  0  0  0  0  0  0  0  0  0  0
   -4.9180   -2.6915    0.0000 C   0  0  0  0  0  0  0  0  0  0  0  0
   -1.0940   -1.5636    0.0000 C   0  0  0  0  0  0  0  0  0  0  0  0
   -0.1587   -0.3908    0.0000 C   0  0  0  0  0  0  0  0  0  0  0  0
   -2.5772   -1.3400    0.0000 C   0  0  0  0  0  0  0  0  0  0  0  0
   -3.4222   -2.5794    0.0000 C   0  0  0  0  0  0  0  0  0  0  0  0
   -0.7068    1.0055    0.0000 O   0  0  0  0  0  0  0  0  0  0  0  0
   -2.6722   -3.8784    0.0000 O   0  0  0  0  0  0  0  0  0  0  0  0
  3  2  1  0
  4  2  1  0
  5  3  1  0
  6  4  1  0
  8  1  1  0
  8  7  1  0
  9  5  1  0
  9  7  1  0
 10  6  1  0
 10  9  1  0
 11  8  2  0
 12 10  2  0
M  END
>  <NAME>  (4799) 
2-(2-OXOPROPYL)CYCLOHEPTANONE

>  <SYNONYMS>  (4799) 


>  <SPECTRUM TYPE>  (4799) 
MS1

>  <INSTRUMENT TYPE>  (4799) 
EI-B

>  <INSTRUMENT>  (4799) 
JEOL JMS-D-3000

>  <ION MODE>  (4799) 
P

>  <INCHIKEY>  (4799) 
UJSZNPKZSFYPBL-UHFFFAOYSA-N

>  <FORMULA>  (4799) 
C10H16O2

>  <EXACT MASS>  (4799) 
168.115029752

>  <MW>  (4799) 
168

>  <ID>  (4799) 
JP004755

>  <CONTRIBUTOR>  (4799) 
University of Tokyo Team, {Faculty of Engineering, University of Tokyo

>  <COMMENT>  (4799) 
SMILES=CC(=O)CC(C1)C(=O)CCCC1
InChI=InChI=1S/C10H16O2/c1-8(11)7-9-5-3-2-4-6-10(9)12/h9H,2-7H2,1H3
computed SMILES=O=C(C)CC1C(=O)CCCCC1
accession=JP004755
date=2016.01.19 (Created 2008.10.21, modified 2011.05.06)
author=MASS SPECTROSCOPY SOC. OF JAPAN (MSSJ)
license=CC BY-NC-SA
exact mass=168.11503
ionization energy=70 eV
ion type=[M]+*
computed spectral entropy=3.055818421900158
computed normalized entropy=0.9074992445532867
SPLASH=splash10-0006-9400000000-40e5e526f02ead149e7b
submitter=submitter = University of Tokyo Team (Faculty of Engineering, University of Tokyo)
MoNA Rating=3.75

>  <NUM PEAKS>  (4799) 
29

>  <MASS SPECTRAL PEAKS>  (4799) 
40 7.32
41 20.3
43 99.99
55 41
58 11.82
67 10.28
69 10.53
71 9.51
79 14.52
81 8.35
82 7.84
83 11.18
84 7.19
93 7.71
95 7.45
96 14.01
97 15.55
98 35.34
107 9.89
108 11.31
110 9.64
111 40.23
121 15.8
122 9.25
125 20.82
135 11.69
149 10.28
150 26.47
168 20.95

$$$$

     RDKit          2D

 10 10  0  0  0  0  0  0  0  0999 V2000
    2.5987    3.0002    0.0000 C   0  0  0  0  0  0  0  0  0  0  0  0
    3.8981    0.7504    0.0000 C   0  0  0  0  0  0  0  0  0  0  0  0
   -2.5989   -1.5002    0.0000 C   0  0  0  0  0  0  0  0  0  0  0  0
   -1.3000    0.7500    0.0000 C   0  0  0  0  0  0  0  0  0  0  0  0
   -0.0000   -1.5000    0.0000 C   0  0  0  0  0  0  0  0  0  0  0  0
    0.0000    1.5000    0.0000 C   0  0  0  0  0  0  0  0  0  0  0  0
    1.3000   -0.7500    0.0000 C   0  0  0  0  0  0  0  0  0  0  0  0
    2.5989    1.5002    0.0000 C   0  0  0  0  0  0  0  0  0  0  0  0
   -1.3000   -0.7500    0.0000 C   0  0  0  0  0  0  0  0  0  0  0  0
    1.3000    0.7500    0.0000 C   0  0  0  0  0  0  0  0  0  0  0  0
  6  4  1  0
  7  5  1  0
  8  1  2  0
  8  2  1  0
  9  3  2  0
  9  4  1  0
  9  5  1  0
 10  6  1  0
 10  7  1  0
 10  8  1  0
M  END
>  <NAME>  (4800) 
PARA-MENTA-1(7),8-DIENE

>  <SYNONYMS>  (4800) 
1-ISOPROPENYL-4-METHYLENECYCLOHEXANE

>  <SPECTRUM TYPE>  (4800) 
MS1

>  <INSTRUMENT TYPE>  (4800) 
EI-B

>  <INSTRUMENT>  (4800) 
JEOL JMS-D-3000

>  <ION MODE>  (4800) 
P

>  <INCHIKEY>  (4800) 
GOQRXDTWKVYHJH-UHFFFAOYSA-N

>  <FORMULA>  (4800) 
C10H16

>  <EXACT MASS>  (4800) 
136.125200512

>  <MW>  (4800) 
136

>  <ID>  (4800) 
JP004754

>  <CONTRIBUTOR>  (4800) 
University of Tokyo Team, {Faculty of Engineering, University of Tokyo

>  <COMMENT>  (4800) 
SMILES=CC(=C)C(C1)CCC(=C)C1
InChI=InChI=1S/C10H16/c1-8(2)10-6-4-9(3)5-7-10/h10H,1,3-7H2,2H3
computed SMILES=C=C1CCC(C(=C)C)CC1
accession=JP004754
date=2016.01.19 (Created 2008.10.21, modified 2011.05.06)
author=MASS SPECTROSCOPY SOC. OF JAPAN (MSSJ)
license=CC BY-NC-SA
exact mass=136.1252
ionization energy=70 eV
ion type=[M]+*
computed spectral entropy=2.559099954085529
computed normalized entropy=0.8853878215127038
SPLASH=splash10-0006-9100000000-0366ad427ff073025058
submitter=submitter = University of Tokyo Team (Faculty of Engineering, University of Tokyo)
MoNA Rating=3.75

>  <NUM PEAKS>  (4800) 
18

>  <MASS SPECTRAL PEAKS>  (4800) 
42 24.72
43 7.1
53 11.44
55 7.87
67 16.42
68 10.28
69 21.15
77 11.88
79 35.26
80 16.55
81 8.2
91 14.16
92 10.94
93 99.99
94 16.3
106 11.08
121 9.81
136 24.61

$$$$

     RDKit          2D

 11 12  0  0  0  0  0  0  0  0999 V2000
   -2.7100   -0.0000    0.0000 C   0  0  0  0  0  0  0  0  0  0  0  0
   -2.0600    1.3500    0.0000 C   0  0  0  0  0  0  0  0  0  0  0  0
   -2.0600   -1.3500    0.0000 C   0  0  0  0  0  0  0  0  0  0  0  0
   -0.6000    1.6900    0.0000 C   0  0  0  0  0  0  0  0  0  0  0  0
   -0.6000   -1.6900    0.0000 C   0  0  0  0  0  0  0  0  0  0  0  0
    2.0000    1.2100    0.0000 C   0  0  0  0  0  0  0  0  0  0  0  0
    2.0000   -1.2100    0.0000 C   0  0  0  0  0  0  0  0  0  0  0  0
    0.5700    0.7500    0.0000 C   0  0  0  0  0  0  0  0  0  0  0  0
    0.5700   -0.7500    0.0000 C   0  0  0  0  0  0  0  0  0  0  0  0
    2.8800   -0.0000    0.0000 C   0  0  0  0  0  0  0  0  0  0  0  0
    4.3800   -0.0000    0.0000 O   0  0  0  0  0  0  0  0  0  0  0  0
  2  1  1  0
  3  1  1  0
  4  2  1  0
  5  3  1  0
  8  4  1  0
  8  6  2  0
  9  5  1  0
  9  7  1  0
  9  8  1  0
 10  6  1  0
 10  7  1  0
 11 10  2  0
M  END
>  <NAME>  (4801) 
BICYCLO(5.3.0)DEC-7-EN-9-ONE

>  <SYNONYMS>  (4801) 


>  <SPECTRUM TYPE>  (4801) 
MS1

>  <INSTRUMENT TYPE>  (4801) 
EI-B

>  <INSTRUMENT>  (4801) 
JEOL JMS-D-3000

>  <ION MODE>  (4801) 
P

>  <INCHIKEY>  (4801) 
LPTBBUOSXDRPJK-UHFFFAOYSA-N

>  <FORMULA>  (4801) 
C10H14O

>  <EXACT MASS>  (4801) 
150.104465068

>  <MW>  (4801) 
150

>  <ID>  (4801) 
JP004753

>  <CONTRIBUTOR>  (4801) 
University of Tokyo Team, {Faculty of Engineering, University of Tokyo

>  <COMMENT>  (4801) 
SMILES=O=C(C1)C=C(C2)C(CCCC2)1
InChI=InChI=1S/C10H14O/c11-10-6-8-4-2-1-3-5-9(8)7-10/h6,9H,1-5,7H2
computed SMILES=O=C1C=C2CCCCCC2C1
accession=JP004753
date=2016.01.19 (Created 2008.10.21, modified 2011.05.06)
author=MASS SPECTROSCOPY SOC. OF JAPAN (MSSJ)
license=CC BY-NC-SA
exact mass=150.10447
ionization energy=70 eV
ion type=[M]+*
computed spectral entropy=2.697363226662726
computed normalized entropy=0.8010472981441494
SPLASH=splash10-0uka-2900000000-b13fbdffb134f10eac1f
submitter=submitter = University of Tokyo Team (Faculty of Engineering, University of Tokyo)
MoNA Rating=3.75

>  <NUM PEAKS>  (4801) 
29

>  <MASS SPECTRAL PEAKS>  (4801) 
41 2.41
43 6.74
44 2.13
55 4.45
57 6.73
77 4.6
79 10.27
81 4.31
91 5.99
92 1.88
93 4.29
95 6.69
96 27.1
97 2.1
99 3.8
105 2.07
107 11.83
108 21.28
109 11.93
110 2.76
117 1.88
121 39.34
122 22.38
123 2.31
135 24.14
136 2.41
149 45.37
150 99.99
151 11.36

$$$$

     RDKit          2D

 11 11  0  0  0  0  0  0  0  0999 V2000
   -2.5989   -1.5002    0.0000 C   0  0  0  0  0  0  0  0  0  0  0  0
    5.1970    1.5006    0.0000 C   0  0  0  0  0  0  0  0  0  0  0  0
   -1.3000    0.7500    0.0000 C   0  0  0  0  0  0  0  0  0  0  0  0
   -0.0000   -1.5000    0.0000 C   0  0  0  0  0  0  0  0  0  0  0  0
    0.0000    1.5000    0.0000 C   0  0  0  0  0  0  0  0  0  0  0  0
    1.3000   -0.7500    0.0000 C   0  0  0  0  0  0  0  0  0  0  0  0
   -1.3000   -0.7500    0.0000 C   0  0  0  0  0  0  0  0  0  0  0  0
    1.3000    0.7500    0.0000 C   0  0  0  0  0  0  0  0  0  0  0  0
    2.5989    1.5002    0.0000 C   0  0  0  0  0  0  0  0  0  0  0  0
    2.5987    3.0002    0.0000 O   0  0  0  0  0  0  0  0  0  0  0  0
    3.8981    0.7504    0.0000 O   0  0  0  0  0  0  0  0  0  0  0  0
  5  3  1  0
  6  4  1  0
  7  1  2  0
  7  3  1  0
  7  4  1  0
  8  5  1  0
  8  6  1  0
  9  8  1  0
 10  9  2  0
 11  2  1  0
 11  9  1  0
M  END
>  <NAME>  (4802) 
METHYL 4-METHYLENECYCLOHEXANECARBOXYLATE

>  <SYNONYMS>  (4802) 


>  <SPECTRUM TYPE>  (4802) 
MS1

>  <INSTRUMENT TYPE>  (4802) 
EI-B

>  <INSTRUMENT>  (4802) 
JEOL JMS-D-3000

>  <ION MODE>  (4802) 
P

>  <INCHIKEY>  (4802) 
SYRKANZKKKAWNJ-UHFFFAOYSA-N

>  <FORMULA>  (4802) 
C9H14O2

>  <EXACT MASS>  (4802) 
154.099379688

>  <MW>  (4802) 
154

>  <ID>  (4802) 
JP004750

>  <CONTRIBUTOR>  (4802) 
University of Tokyo Team, {Faculty of Engineering, University of Tokyo

>  <COMMENT>  (4802) 
SMILES=COC(=O)C(C1)CCC(=C)C1
InChI=InChI=1S/C9H14O2/c1-7-3-5-8(6-4-7)9(10)11-2/h8H,1,3-6H2,2H3
computed SMILES=O=C(OC)C1CCC(=C)CC1
accession=JP004750
date=2016.01.19 (Created 2008.10.21, modified 2011.05.06)
author=MASS SPECTROSCOPY SOC. OF JAPAN (MSSJ)
license=CC BY-NC-SA
exact mass=154.09938
ionization energy=70 eV
ion type=[M]+*
computed spectral entropy=2.812011381939142
computed normalized entropy=0.767562184987355
SPLASH=splash10-000g-9100000000-594f493605fd4b954e02
submitter=submitter = University of Tokyo Team (Faculty of Engineering, University of Tokyo)
MoNA Rating=3.75

>  <NUM PEAKS>  (4802) 
39

>  <MASS SPECTRAL PEAKS>  (4802) 
40 3.28
42 13.83
43 1.71
45 1.36
51 2.6
52 1.67
53 8.71
54 3.62
55 29.96
56 1.37
59 4.67
63 1.01
65 3.7
66 2.91
67 15.99
68 19.61
69 2.12
77 8.07
78 2.01
79 33.36
80 5.43
81 2.44
87 58.63
88 2.71
91 5.15
92 1.15
93 9.47
94 99.99
95 57.62
96 4.19
107 1.09
111 1.39
122 27.77
123 14.14
124 1.26
125 1.23
139 2.12
154 10.21
155 1.13

$$$$

     RDKit          2D

 11 10  0  0  0  0  0  0  0  0999 V2000
    2.1863    4.2623    0.0000 C   0  0  0  0  0  0  0  0  0  0  0  0
   -6.3579    5.5613    0.0000 C   0  0  0  0  0  0  0  0  0  0  0  0
   -6.9070    3.5123    0.0000 C   0  0  0  0  0  0  0  0  0  0  0  0
   -4.8579    2.9632    0.0000 C   0  0  0  0  0  0  0  0  0  0  0  0
    0.8873    5.0123    0.0000 C   0  0  0  0  0  0  0  0  0  0  0  0
   -1.7108    5.0123    0.0000 C   0  0  0  0  0  0  0  0  0  0  0  0
   -4.3089    5.0123    0.0000 C   0  0  0  0  0  0  0  0  0  0  0  0
   -3.0099    4.2623    0.0000 C   0  0  0  0  0  0  0  0  0  0  0  0
   -3.0099    2.7623    0.0000 O   0  0  0  0  0  0  0  0  0  0  0  0
   -0.4118    4.2623    0.0000 O   0  0  0  0  0  0  0  0  0  0  0  0
   -5.6079    4.2623    0.0000 Si  0  0  0  0  0  4  0  0  0  0  0  0
  5  1  1  0
  8  6  1  0
  8  7  1  0
  9  8  2  0
 10  5  1  0
 10  6  1  0
 11  2  1  0
 11  3  1  0
 11  4  1  0
 11  7  1  0
M  END
>  <NAME>  (4803) 
1-ETHOXY-3-TRIMETHYLSILYL-2-PROPANONE

>  <SYNONYMS>  (4803) 


>  <SPECTRUM TYPE>  (4803) 
MS1

>  <INSTRUMENT TYPE>  (4803) 
EI-B

>  <INSTRUMENT>  (4803) 
JEOL JMS-D-3000

>  <ION MODE>  (4803) 
P

>  <INCHIKEY>  (4803) 
DRFOZBMDVDTHMQ-UHFFFAOYSA-N

>  <FORMULA>  (4803) 
C8H18O2Si

>  <EXACT MASS>  (4803) 
174.107606346

>  <MW>  (4803) 
174

>  <ID>  (4803) 
JP004749

>  <CONTRIBUTOR>  (4803) 
University of Tokyo Team, {Faculty of Engineering, University of Tokyo

>  <COMMENT>  (4803) 
SMILES=CCOCC(=O)C[Si](C)(C)C
InChI=InChI=1S/C8H18O2Si/c1-5-10-6-8(9)7-11(2,3)4/h5-7H2,1-4H3
computed SMILES=O=C(COCC)C[Si](C)(C)C
accession=JP004749
date=2016.01.19 (Created 2008.10.21, modified 2011.05.06)
author=MASS SPECTROSCOPY SOC. OF JAPAN (MSSJ)
license=CC BY-NC-SA
exact mass=174.10761
ionization energy=70 eV
ion type=[M]+*
computed spectral entropy=1.630474350238323
computed normalized entropy=0.6020842411173544
SPLASH=splash10-014i-1900000000-f7181051d5c42d13662e
submitter=submitter = University of Tokyo Team (Faculty of Engineering, University of Tokyo)
MoNA Rating=3.75

>  <NUM PEAKS>  (4803) 
15

>  <MASS SPECTRAL PEAKS>  (4803) 
58 2
59 1.73
73 20.13
74 1.89
75 6.28
103 1.58
115 99.99
116 11.98
117 5.09
129 1.29
130 26.82
131 3.93
132 1.45
159 1.94
174 0.21

$$$$

     RDKit          2D

 11 10  0  0  0  0  0  0  0  0999 V2000
    2.1863    4.2623    0.0000 C   0  0  0  0  0  0  0  0  0  0  0  0
   -3.0099    2.7623    0.0000 C   0  0  0  0  0  0  0  0  0  0  0  0
   -6.3579    5.5613    0.0000 C   0  0  0  0  0  0  0  0  0  0  0  0
   -6.9070    3.5123    0.0000 C   0  0  0  0  0  0  0  0  0  0  0  0
   -4.8579    2.9632    0.0000 C   0  0  0  0  0  0  0  0  0  0  0  0
    0.8873    5.0123    0.0000 C   0  0  0  0  0  0  0  0  0  0  0  0
   -1.7108    5.0123    0.0000 C   0  0  0  0  0  0  0  0  0  0  0  0
   -3.0099    4.2623    0.0000 C   0  0  0  0  0  0  0  0  0  0  0  0
   -0.4118    4.2623    0.0000 O   0  0  0  0  0  0  0  0  0  0  0  0
   -4.3089    5.0123    0.0000 O   0  0  0  0  0  0  0  0  0  0  0  0
   -5.6079    4.2623    0.0000 Si  0  0  0  0  0  4  0  0  0  0  0  0
  6  1  1  0
  8  2  2  0
  8  7  1  0
  9  6  1  0
  9  7  1  0
 10  8  1  0
 11  3  1  0
 11  4  1  0
 11  5  1  0
 11 10  1  0
M  END
>  <NAME>  (4804) 
3-ETHOXY-2-TRIMETHYLSILOXYPROPENE

>  <SYNONYMS>  (4804) 


>  <SPECTRUM TYPE>  (4804) 
MS1

>  <INSTRUMENT TYPE>  (4804) 
EI-B

>  <INSTRUMENT>  (4804) 
JEOL JMS-D-3000

>  <ION MODE>  (4804) 
P

>  <INCHIKEY>  (4804) 
CRMAIVBWLODODC-UHFFFAOYSA-N

>  <FORMULA>  (4804) 
C8H18O2Si

>  <EXACT MASS>  (4804) 
174.10760634599998

>  <MW>  (4804) 
174

>  <ID>  (4804) 
JP004748

>  <CONTRIBUTOR>  (4804) 
University of Tokyo Team, {Faculty of Engineering, University of Tokyo

>  <COMMENT>  (4804) 
SMILES=CCOCC(=C)O[Si](C)(C)C
InChI=InChI=1S/C8H18O2Si/c1-6-9-7-8(2)10-11(3,4)5/h2,6-7H2,1,3-5H3
computed SMILES=O(C(=C)COCC)[Si](C)(C)C
accession=JP004748
date=2016.01.19 (Created 2008.10.21, modified 2011.05.06)
author=MASS SPECTROSCOPY SOC. OF JAPAN (MSSJ)
license=CC BY-NC-SA
exact mass=174.10761
ionization energy=70 eV
ion type=[M]+*
computed spectral entropy=2.032318398906739
computed normalized entropy=0.7700925539207689
SPLASH=splash10-001i-2900000000-c65b1a36448fcfe82525
submitter=submitter = University of Tokyo Team (Faculty of Engineering, University of Tokyo)
MoNA Rating=3.75

>  <NUM PEAKS>  (4804) 
14

>  <MASS SPECTRAL PEAKS>  (4804) 
18 7.63
32 7.62
73 20.8
75 18.48
115 54.51
116 6.18
117 3.47
130 99.99
131 14.94
132 4.48
145 8.84
147 3.78
174 17.92
175 2.26

$$$$

     RDKit          2D

 10  9  0  0  0  0  0  0  0  0999 V2000
   -4.4596    3.2243    0.0000 C   0  0  0  0  0  0  0  0  0  0  0  0
    1.4865    1.9252    0.0000 C   0  0  0  0  0  0  0  0  0  0  0  0
    2.0356    3.9743    0.0000 C   0  0  0  0  0  0  0  0  0  0  0  0
   -0.0135    4.5233    0.0000 C   0  0  0  0  0  0  0  0  0  0  0  0
   -1.8615    3.2243    0.0000 C   0  0  0  0  0  0  0  0  0  0  0  0
   -3.1606    2.4743    0.0000 C   0  0  0  0  0  0  0  0  0  0  0  0
   -0.5625    2.4743    0.0000 C   0  0  0  0  0  0  0  0  0  0  0  0
    0.7365    3.2243    0.0000 C   0  0  0  0  0  0  0  0  0  0  0  0
   -3.1606    0.9743    0.0000 O   0  0  0  0  0  0  0  0  0  0  0  0
   -0.5625    0.9743    0.0000 O   0  0  0  0  0  0  0  0  0  0  0  0
  6  1  1  0
  6  5  1  0
  7  5  1  0
  8  2  1  0
  8  3  1  0
  8  4  1  0
  8  7  1  0
  9  6  2  0
 10  7  2  0
M  END
>  <NAME>  (4805) 
5,5-DIMETHYLHEXAN-2,4-DIONE

>  <SYNONYMS>  (4805) 


>  <SPECTRUM TYPE>  (4805) 
MS1

>  <INSTRUMENT TYPE>  (4805) 
EI-B

>  <INSTRUMENT>  (4805) 
JEOL JMS-D-3000

>  <ION MODE>  (4805) 
P

>  <INCHIKEY>  (4805) 
LCLCVVVHIPPHCG-UHFFFAOYSA-N

>  <FORMULA>  (4805) 
C8H14O2

>  <EXACT MASS>  (4805) 
142.099379688

>  <MW>  (4805) 
142

>  <ID>  (4805) 
JP004747

>  <CONTRIBUTOR>  (4805) 
University of Tokyo Team, {Faculty of Engineering, University of Tokyo

>  <COMMENT>  (4805) 
cas=7307-04-2
InChI=InChI=1S/C8H14O2/c1-6(9)5-7(10)8(2,3)4/h5H2,1-4H3
SMILES=CC(=O)CC(=O)C(C)(C)C
computed SMILES=O=C(C)CC(=O)C(C)(C)C
accession=JP004747
date=2016.01.19 (Created 2008.10.21, modified 2011.05.06)
author=MASS SPECTROSCOPY SOC. OF JAPAN (MSSJ)
license=CC BY-NC-SA
exact mass=142.09938
ionization energy=70 eV
ion type=[M]+*
computed spectral entropy=2.6044157079160324
computed normalized entropy=0.7993672616888126
SPLASH=splash10-052o-9100000000-3fcb4be8549999c686c1
submitter=submitter = University of Tokyo Team (Faculty of Engineering, University of Tokyo)
MoNA Rating=3.75

>  <NUM PEAKS>  (4805) 
26

>  <MASS SPECTRAL PEAKS>  (4805) 
18 7.39
28 9.86
29 6.84
41 17.68
42 2.73
43 70.1
55 4.11
56 14.74
57 98.9
58 20.3
59 6.57
69 7.27
71 9.76
83 3.38
84 30.09
85 99.99
86 19.47
87 5.27
98 4.38
99 5.36
112 4.2
113 2.22
114 13.13
127 5.28
142 56.49
143 5.3

$$$$

     RDKit          2D

 11 10  0  0  0  0  0  0  0  0999 V2000
    2.9228    3.1875    0.0000 C   0  0  0  0  0  0  0  0  0  0  0  0
    1.6238    5.4375    0.0000 C   0  0  0  0  0  0  0  0  0  0  0  0
   -6.1704    3.9375    0.0000 C   0  0  0  0  0  0  0  0  0  0  0  0
    0.3248    3.1875    0.0000 C   0  0  0  0  0  0  0  0  0  0  0  0
   -2.2733    3.1875    0.0000 C   0  0  0  0  0  0  0  0  0  0  0  0
    1.6238    3.9375    0.0000 C   0  0  0  0  0  0  0  0  0  0  0  0
   -0.9743    3.9375    0.0000 C   0  0  0  0  0  0  0  0  0  0  0  0
   -3.5724    3.9375    0.0000 C   0  0  0  0  0  0  0  0  0  0  0  0
   -0.9743    5.4375    0.0000 O   0  0  0  0  0  0  0  0  0  0  0  0
   -3.5724    5.4375    0.0000 O   0  0  0  0  0  0  0  0  0  0  0  0
   -4.8714    3.1875    0.0000 O   0  0  0  0  0  0  0  0  0  0  0  0
  6  1  1  0
  6  2  1  0
  6  4  2  0
  7  4  1  0
  7  5  1  0
  8  5  1  0
  9  7  2  0
 10  8  2  0
 11  3  1  0
 11  8  1  0
M  END
>  <NAME>  (4806) 
METHYL 5-METHYL-3-KETO-4-HEXENOATE

>  <SYNONYMS>  (4806) 


>  <SPECTRUM TYPE>  (4806) 
MS1

>  <INSTRUMENT TYPE>  (4806) 
EI-B

>  <INSTRUMENT>  (4806) 
JEOL JMS-D-3000

>  <ION MODE>  (4806) 
P

>  <INCHIKEY>  (4806) 
BRUOTCVCYPVYPM-UHFFFAOYSA-N

>  <FORMULA>  (4806) 
C8H12O3

>  <EXACT MASS>  (4806) 
156.07864424399997

>  <MW>  (4806) 
156

>  <ID>  (4806) 
JP004746

>  <CONTRIBUTOR>  (4806) 
University of Tokyo Team, {Faculty of Engineering, University of Tokyo

>  <COMMENT>  (4806) 
SMILES=COC(=O)CC(=O)C=C(C)C
InChI=InChI=1S/C8H12O3/c1-6(2)4-7(9)5-8(10)11-3/h4H,5H2,1-3H3
computed SMILES=O=C(OC)CC(=O)C=C(C)C
accession=JP004746
date=2016.01.19 (Created 2008.10.21, modified 2011.05.06)
author=MASS SPECTROSCOPY SOC. OF JAPAN (MSSJ)
license=CC BY-NC-SA
exact mass=156.07864
ionization energy=70 eV
ion type=[M]+*
computed spectral entropy=2.509877616321999
computed normalized entropy=0.7379394179985606
SPLASH=splash10-001i-9000000000-4c39713ab49ee8855d01
submitter=submitter = University of Tokyo Team (Faculty of Engineering, University of Tokyo)
MoNA Rating=3.75

>  <NUM PEAKS>  (4806) 
30

>  <MASS SPECTRAL PEAKS>  (4806) 
41 5.37
42 2
43 17.29
44 6.04
50 1.84
51 2.71
52 1.06
53 7.48
54 3.18
55 56.77
56 3.24
59 1.84
67 2.4
69 7.51
77 1.17
79 1.5
81 1.86
82 18.15
83 99.99
84 5.94
95 3.62
96 13.1
98 26.85
99 2.12
101 2.04
123 2.28
124 10.93
125 2.25
141 3.1
156 8.28

$$$$

     RDKit          2D

  9  9  0  0  0  0  0  0  0  0999 V2000
    0.0000    2.7800    0.0000 C   0  0  0  0  0  0  0  0  0  0  0  0
    1.6322   -2.2431    0.0000 C   0  0  0  0  0  0  0  0  0  0  0  0
   -2.6377    0.8500    0.0000 C   0  0  0  0  0  0  0  0  0  0  0  0
    1.2100    0.3900    0.0000 C   0  0  0  0  0  0  0  0  0  0  0  0
    0.0000    1.2800    0.0000 C   0  0  0  0  0  0  0  0  0  0  0  0
    0.7500   -1.0300    0.0000 C   0  0  0  0  0  0  0  0  0  0  0  0
   -1.2100    0.3900    0.0000 C   0  0  0  0  0  0  0  0  0  0  0  0
   -0.7500   -1.0300    0.0000 C   0  0  0  0  0  0  0  0  0  0  0  0
   -1.6322   -2.2431    0.0000 O   0  0  0  0  0  0  0  0  0  0  0  0
  5  1  1  0
  5  4  1  0
  6  2  1  0
  6  4  1  0
  7  3  1  0
  7  5  2  0
  8  6  1  0
  8  7  1  0
  9  8  2  0
M  END
>  <NAME>  (4807) 
2,3,5-TRIMETHYLCYCLOPENT-2-ENONE

>  <SYNONYMS>  (4807) 


>  <SPECTRUM TYPE>  (4807) 
MS1

>  <INSTRUMENT TYPE>  (4807) 
EI-B

>  <INSTRUMENT>  (4807) 
JEOL JMS-D-3000

>  <ION MODE>  (4807) 
P

>  <INCHIKEY>  (4807) 
HNZWNWPTJZTRTK-UHFFFAOYSA-N

>  <FORMULA>  (4807) 
C8H12O

>  <EXACT MASS>  (4807) 
124.088815004

>  <MW>  (4807) 
124

>  <ID>  (4807) 
JP004745

>  <CONTRIBUTOR>  (4807) 
University of Tokyo Team, {Faculty of Engineering, University of Tokyo

>  <COMMENT>  (4807) 
SMILES=CC(C1)=C(C)C(=O)C(C)1
InChI=InChI=1S/C8H12O/c1-5-4-6(2)8(9)7(5)3/h6H,4H2,1-3H3
computed SMILES=O=C1C(=C(C)CC1C)C
accession=JP004745
date=2016.01.19 (Created 2008.10.21, modified 2011.05.06)
author=MASS SPECTROSCOPY SOC. OF JAPAN (MSSJ)
license=CC BY-NC-SA
exact mass=124.08882
ionization energy=70 eV
ion type=[M]+*
computed spectral entropy=2.7776134407600477
computed normalized entropy=0.833566316916726
SPLASH=splash10-0a4i-9600000000-7919e132429a553a629a
submitter=submitter = University of Tokyo Team (Faculty of Engineering, University of Tokyo)
MoNA Rating=3.75

>  <NUM PEAKS>  (4807) 
28

>  <MASS SPECTRAL PEAKS>  (4807) 
41 20.84
42 5.19
43 46.52
50 3
51 6.43
52 3.89
53 17.72
54 12.62
55 12.02
56 3.27
57 38.56
65 3.71
67 18.09
68 5.48
71 4.84
77 4.09
79 11.86
81 55.27
82 4.51
85 3.49
95 3.69
96 15.46
109 99.99
110 7.48
113 21.42
123 8.52
124 63.76
125 6.1

$$$$

     RDKit          2D

 12 11  0  0  0  0  0  0  0  0999 V2000
    2.2733    4.3125    0.0000 C   0  0  0  0  0  0  0  0  0  0  0  0
   -6.8200    5.0625    0.0000 C   0  0  0  0  0  0  0  0  0  0  0  0
    0.9743    5.0625    0.0000 C   0  0  0  0  0  0  0  0  0  0  0  0
   -4.2219    5.0625    0.0000 C   0  0  0  0  0  0  0  0  0  0  0  0
   -2.9228    2.8125    0.0000 C   0  0  0  0  0  0  0  0  0  0  0  0
   -5.5209    4.3125    0.0000 C   0  0  0  0  0  0  0  0  0  0  0  0
   -2.9228    4.3125    0.0000 C   0  0  0  0  0  0  0  0  0  0  0  0
   -1.6238    5.0625    0.0000 C   0  0  0  0  0  0  0  0  0  0  0  0
   -2.9228    1.3125    0.0000 N   0  0  0  0  0  0  0  0  0  0  0  0
   -5.5209    2.8125    0.0000 O   0  0  0  0  0  0  0  0  0  0  0  0
   -1.6238    6.5625    0.0000 O   0  0  0  0  0  0  0  0  0  0  0  0
   -0.3248    4.3125    0.0000 O   0  0  0  0  0  0  0  0  0  0  0  0
  3  1  1  0
  6  2  1  0
  6  4  1  0
  7  4  1  0
  7  5  1  0
  8  7  1  0
  9  5  3  0
 10  6  2  0
 11  8  2  0
 12  3  1  0
 12  8  1  0
M  END
>  <NAME>  (4808) 
ETHYL ALPHA-CYANO-GAMMA-KETOVALERATE

>  <SYNONYMS>  (4808) 


>  <SPECTRUM TYPE>  (4808) 
MS1

>  <INSTRUMENT TYPE>  (4808) 
EI-B

>  <INSTRUMENT>  (4808) 
JEOL JMS-D-3000

>  <ION MODE>  (4808) 
P

>  <INCHIKEY>  (4808) 
WCOOHFKTZREKRW-UHFFFAOYSA-N

>  <FORMULA>  (4808) 
C8H11NO3

>  <EXACT MASS>  (4808) 
169.07389321199997

>  <MW>  (4808) 
169

>  <ID>  (4808) 
JP004744

>  <CONTRIBUTOR>  (4808) 
University of Tokyo Team, {Faculty of Engineering, University of Tokyo

>  <COMMENT>  (4808) 
SMILES=CCOC(=O)C(C#N)CC(C)=O
InChI=InChI=1S/C8H11NO3/c1-3-12-8(11)7(5-9)4-6(2)10/h7H,3-4H2,1-2H3
computed SMILES=N#CC(C(=O)OCC)CC(=O)C
accession=JP004744
date=2016.01.19 (Created 2008.10.21, modified 2011.05.06)
author=MASS SPECTROSCOPY SOC. OF JAPAN (MSSJ)
license=CC BY-NC-SA
exact mass=169.07389
ionization energy=70 eV
ion type=[M]+*
computed spectral entropy=1.5457978636156848
computed normalized entropy=0.5348093577903057
SPLASH=splash10-0006-9100000000-ad7398f4976d5aa0111c
submitter=submitter = University of Tokyo Team (Faculty of Engineering, University of Tokyo)
MoNA Rating=3.75

>  <NUM PEAKS>  (4808) 
18

>  <MASS SPECTRAL PEAKS>  (4808) 
41 2.75
42 99.99
43 1.16
44 1.74
50 2.52
51 1.52
52 20.57
53 1.96
80 1.57
82 1.38
96 1.63
98 4.35
106 1.42
123 1.22
124 13.19
126 1.34
152 1.91
169 2.83

$$$$

     RDKit          2D

 10 10  0  0  0  0  0  0  0  0999 V2000
   -0.0682   -0.8923    0.0000 C   0  0  0  0  0  0  0  0  0  0  0  0
    0.8959    0.7777    0.0000 C   0  0  0  0  0  0  0  0  0  0  0  0
   -4.6566    0.7777    0.0000 C   0  0  0  0  0  0  0  0  0  0  0  0
   -3.6924   -0.8923    0.0000 C   0  0  0  0  0  0  0  0  0  0  0  0
   -1.8803    2.7673    0.0000 C   0  0  0  0  0  0  0  0  0  0  0  0
   -0.5813    2.0173    0.0000 C   0  0  0  0  0  0  0  0  0  0  0  0
   -3.1794    2.0173    0.0000 C   0  0  0  0  0  0  0  0  0  0  0  0
   -1.8803   -0.2327    0.0000 N   0  0  0  0  0  0  0  0  0  0  0  0
   -0.5813    0.5173    0.0000 Si  0  0  0  0  0  4  0  0  0  0  0  0
   -3.1794    0.5173    0.0000 Si  0  0  0  0  0  4  0  0  0  0  0  0
  6  5  1  0
  7  5  1  0
  9  1  1  0
  9  2  1  0
  9  6  1  0
  9  8  1  0
 10  3  1  0
 10  4  1  0
 10  7  1  0
 10  8  1  0
M  END
>  <NAME>  (4809) 
2,2,6,6-TETRAMETHYL-2,6-DISILAPIPERIDINE

>  <SYNONYMS>  (4809) 


>  <SPECTRUM TYPE>  (4809) 
MS1

>  <INSTRUMENT TYPE>  (4809) 
EI-B

>  <INSTRUMENT>  (4809) 
JEOL JMS-D-3000

>  <ION MODE>  (4809) 
P

>  <INCHIKEY>  (4809) 
VVNWHIYYCOBFMW-UHFFFAOYSA-N

>  <FORMULA>  (4809) 
C7H19NSi2

>  <EXACT MASS>  (4809) 
173.105602668

>  <MW>  (4809) 
173

>  <ID>  (4809) 
JP004743

>  <CONTRIBUTOR>  (4809) 
University of Tokyo Team, {Faculty of Engineering, University of Tokyo

>  <COMMENT>  (4809) 
SMILES=C[Si](C)(C1)N[Si](C)(C)CC1
InChI=InChI=1S/C7H19NSi2/c1-9(2)6-5-7-10(3,4)8-9/h8H,5-7H2,1-4H3
computed SMILES=N1[Si](C)(C)CCC[Si]1(C)C
accession=JP004743
date=2016.01.19 (Created 2008.10.21, modified 2011.05.06)
author=MASS SPECTROSCOPY SOC. OF JAPAN (MSSJ)
license=CC BY-NC-SA
exact mass=173.1056
ionization energy=70 eV
ion type=[M]+*
computed spectral entropy=1.425412140163464
computed normalized entropy=0.7325169360237229
SPLASH=splash10-0a4i-0900000000-d48db79dd18dacdf6079
submitter=submitter = University of Tokyo Team (Faculty of Engineering, University of Tokyo)
MoNA Rating=3.75

>  <NUM PEAKS>  (4809) 
7

>  <MASS SPECTRAL PEAKS>  (4809) 
57 8.62
116 8.06
130 27.1
158 99.99
159 18.29
160 7.98
173 9.78

$$$$

     RDKit          2D

  9  9  0  0  0  0  0  0  0  0999 V2000
    1.1480    1.5688    0.0000 C   0  0  0  0  0  0  0  0  0  0  0  0
   -0.3438    2.9120    0.0000 C   0  0  0  0  0  0  0  0  0  0  0  0
   -3.7447    0.9485    0.0000 C   0  0  0  0  0  0  0  0  0  0  0  0
   -3.3273   -1.0151    0.0000 C   0  0  0  0  0  0  0  0  0  0  0  0
   -0.0319   -0.0552    0.0000 C   0  0  0  0  0  0  0  0  0  0  0  0
   -1.3309   -0.8052    0.0000 C   0  0  0  0  0  0  0  0  0  0  0  0
   -1.8355    1.5688    0.0000 N   0  0  0  0  0  0  0  0  0  0  0  0
   -0.3438    1.4120    0.0000 Si  0  0  0  0  0  4  0  0  0  0  0  0
   -2.4456    0.1985    0.0000 Si  0  0  0  0  0  4  0  0  0  0  0  0
  6  5  1  0
  8  1  1  0
  8  2  1  0
  8  5  1  0
  8  7  1  0
  9  3  1  0
  9  4  1  0
  9  6  1  0
  9  7  1  0
M  END
>  <NAME>  (4810) 
2,2,5,5-TETRAMETHYL-2,5-DISILAPYRROLIDINE

>  <SYNONYMS>  (4810) 


>  <SPECTRUM TYPE>  (4810) 
MS1

>  <INSTRUMENT TYPE>  (4810) 
EI-B

>  <INSTRUMENT>  (4810) 
JEOL JMS-D-3000

>  <ION MODE>  (4810) 
P

>  <INCHIKEY>  (4810) 
IPKOJSMGLIKFLO-UHFFFAOYSA-N

>  <FORMULA>  (4810) 
C6H17NSi2

>  <EXACT MASS>  (4810) 
159.089952604

>  <MW>  (4810) 
159

>  <ID>  (4810) 
JP004742

>  <CONTRIBUTOR>  (4810) 
University of Tokyo Team, {Faculty of Engineering, University of Tokyo

>  <COMMENT>  (4810) 
SMILES=C[Si](C)(C1)N[Si](C)(C)C1
InChI=InChI=1S/C6H17NSi2/c1-8(2)5-6-9(3,4)7-8/h7H,5-6H2,1-4H3
computed SMILES=N1[Si](C)(C)CC[Si]1(C)C
accession=JP004742
date=2016.01.19 (Created 2008.10.21, modified 2011.05.06)
author=MASS SPECTROSCOPY SOC. OF JAPAN (MSSJ)
license=CC BY-NC-SA
exact mass=159.08995
ionization energy=70 eV
ion type=[M]+*
computed spectral entropy=2.368983410133312
computed normalized entropy=0.7454195355381839
SPLASH=splash10-0006-2900000000-6ecfe08357ebc65b522b
submitter=submitter = University of Tokyo Team (Faculty of Engineering, University of Tokyo)
MoNA Rating=3.75

>  <NUM PEAKS>  (4810) 
24

>  <MASS SPECTRAL PEAKS>  (4810) 
45 3.64
51 2.58
52 2.9
57 3.45
59 6.97
64 7.32
66 3.16
70 3.03
72 2.35
73 13.1
74 2.26
86 2.45
100 9.81
102 2.35
116 26.83
117 13.07
118 4.19
130 3.55
132 2.22
144 99.99
145 25.83
146 9.58
159 6.26
160 2.71

$$$$

     RDKit          2D

  8  7  0  0  0  0  0  0  0  0999 V2000
    1.6740    0.1005    0.0000 C   0  0  0  0  0  0  0  0  0  0  0  0
   -0.9240    1.6005    0.0000 C   0  0  0  0  0  0  0  0  0  0  0  0
   -0.3750   -0.4486    0.0000 C   0  0  0  0  0  0  0  0  0  0  0  0
    2.4240    1.3995    0.0000 C   0  0  0  0  0  0  0  0  0  0  0  0
    1.8750    3.4486    0.0000 C   0  0  0  0  0  0  0  0  0  0  0  0
    0.3750    0.8505    0.0000 C   0  0  0  0  0  0  0  0  0  0  0  0
   -0.1740    2.8995    0.0000 N   0  0  0  0  0  0  0  0  0  0  0  0
    1.1250    2.1495    0.0000 Si  0  0  0  0  0  4  0  0  0  0  0  0
  6  1  1  0
  6  2  1  0
  6  3  1  0
  8  4  1  0
  8  5  1  0
  8  6  1  0
  8  7  1  0
M  END
>  <NAME>  (4811) 
TERT-BUTYLDIMETHYLSILYLAMINE

>  <SYNONYMS>  (4811) 


>  <SPECTRUM TYPE>  (4811) 
MS1

>  <INSTRUMENT TYPE>  (4811) 
EI-B

>  <INSTRUMENT>  (4811) 
JEOL JMS-D-3000

>  <ION MODE>  (4811) 
P

>  <INCHIKEY>  (4811) 
FPTVUFLXTAXDDB-UHFFFAOYSA-N

>  <FORMULA>  (4811) 
C6H17NSi

>  <EXACT MASS>  (4811) 
131.113026074

>  <MW>  (4811) 
131

>  <ID>  (4811) 
JP004741

>  <CONTRIBUTOR>  (4811) 
University of Tokyo Team, {Faculty of Engineering, University of Tokyo

>  <COMMENT>  (4811) 
SMILES=CC(C)(C)[Si](C)(C)N
InChI=InChI=1S/C6H17NSi/c1-6(2,3)8(4,5)7/h7H2,1-5H3
computed SMILES=N[Si](C)(C)C(C)(C)C
accession=JP004741
date=2016.01.19 (Created 2008.10.21, modified 2011.05.06)
author=MASS SPECTROSCOPY SOC. OF JAPAN (MSSJ)
license=CC BY-NC-SA
exact mass=131.11303
ionization energy=70 eV
ion type=[M]+*
computed spectral entropy=1.2094986452571097
computed normalized entropy=0.4583070749105096
SPLASH=splash10-00di-9000000000-7ad7d149e47884f392c3
submitter=submitter = University of Tokyo Team (Faculty of Engineering, University of Tokyo)
MoNA Rating=3.75

>  <NUM PEAKS>  (4811) 
14

>  <MASS SPECTRAL PEAKS>  (4811) 
41 1.67
43 3.67
44 4.24
45 1.91
46 2.73
58 1.47
59 2.5
60 1.68
73 2.82
74 99.99
75 5.3
76 3.42
116 1.31
131 2.02

$$$$

     RDKit          2D

  7  6  0  0  0  0  0  0  0  0999 V2000
    1.4498    2.6115    0.0000 C   0  0  0  0  0  0  0  0  0  0  0  0
   -0.0502    0.0135    0.0000 C   0  0  0  0  0  0  0  0  0  0  0  0
    1.9988    0.5625    0.0000 C   0  0  0  0  0  0  0  0  0  0  0  0
   -0.5993    2.0625    0.0000 C   0  0  0  0  0  0  0  0  0  0  0  0
   -1.8983    1.3125    0.0000 Cl  0  0  0  0  0  0  0  0  0  0  0  0
   -0.5993    3.5625    0.0000 Cl  0  0  0  0  0  0  0  0  0  0  0  0
    0.6998    1.3125    0.0000 Si  0  0  0  0  0  4  0  0  0  0  0  0
  5  4  1  0
  6  4  1  0
  7  1  1  0
  7  2  1  0
  7  3  1  0
  7  4  1  0
M  END
>  <NAME>  (4812) 
DICHLOROMETHYLTRIMETHYLSILANE

>  <SYNONYMS>  (4812) 


>  <SPECTRUM TYPE>  (4812) 
MS1

>  <INSTRUMENT TYPE>  (4812) 
EI-B

>  <INSTRUMENT>  (4812) 
JEOL JMS-D-3000

>  <ION MODE>  (4812) 
P

>  <INCHIKEY>  (4812) 
XJTUNBKAWATELL-UHFFFAOYSA-N

>  <FORMULA>  (4812) 
C4H10Cl2Si

>  <EXACT MASS>  (4812) 
155.99288221

>  <MW>  (4812) 
156

>  <ID>  (4812) 
JP004740

>  <CONTRIBUTOR>  (4812) 
University of Tokyo Team, {Faculty of Engineering, University of Tokyo

>  <COMMENT>  (4812) 
SMILES=C[Si](C)(C)C(Cl)Cl
cas=5926-38-5
InChI=InChI=1S/C4H10Cl2Si/c1-7(2,3)4(5)6/h4H,1-3H3
computed SMILES=ClC(Cl)[Si](C)(C)C
accession=JP004740
date=2016.01.19 (Created 2008.10.21, modified 2011.05.06)
author=MASS SPECTROSCOPY SOC. OF JAPAN (MSSJ)
license=CC BY-NC-SA
exact mass=155.99288
ionization energy=70 eV
ion type=[M]+*
computed spectral entropy=2.041501377047993
computed normalized entropy=0.6705489674678008
SPLASH=splash10-00di-9300000000-7d28c0c436b7d9c6f40b
submitter=submitter = University of Tokyo Team (Faculty of Engineering, University of Tokyo)
MoNA Rating=3.75

>  <NUM PEAKS>  (4812) 
21

>  <MASS SPECTRAL PEAKS>  (4812) 
42 1.44
43 4.66
44 1.25
45 12.43
53 1.13
63 5.59
65 4.18
73 99.99
74 8.65
75 3.91
78 1.37
79 2.1
93 11.9
94 1.01
95 4.49
113 31.11
114 2.17
115 21.27
116 1.32
117 4.04
156 0.47

$$$$

     RDKit          2D

  8  7  0  0  0  0  0  0  0  0999 V2000
    1.6740    0.1005    0.0000 C   0  0  0  0  0  0  0  0  0  0  0  0
   -0.9240    1.6005    0.0000 C   0  0  0  0  0  0  0  0  0  0  0  0
   -0.3750   -0.4486    0.0000 C   0  0  0  0  0  0  0  0  0  0  0  0
    2.4240    1.3995    0.0000 C   0  0  0  0  0  0  0  0  0  0  0  0
    1.8750    3.4486    0.0000 C   0  0  0  0  0  0  0  0  0  0  0  0
    0.3750    0.8505    0.0000 C   0  0  0  0  0  0  0  0  0  0  0  0
   -0.1740    2.8995    0.0000 O   0  0  0  0  0  0  0  0  0  0  0  0
    1.1250    2.1495    0.0000 Si  0  0  0  0  0  4  0  0  0  0  0  0
  6  1  1  0
  6  2  1  0
  6  3  1  0
  8  4  1  0
  8  5  1  0
  8  6  1  0
  8  7  1  0
M  END
>  <NAME>  (4813) 
TERT-BUTYLDIMETHYLSILANOL

>  <SYNONYMS>  (4813) 


>  <SPECTRUM TYPE>  (4813) 
MS1

>  <INSTRUMENT TYPE>  (4813) 
EI-B

>  <INSTRUMENT>  (4813) 
JEOL JMS-D-3000

>  <ION MODE>  (4813) 
P

>  <INCHIKEY>  (4813) 
FGWRMMTYIZKYMA-UHFFFAOYSA-N

>  <FORMULA>  (4813) 
C6H16OSi

>  <EXACT MASS>  (4813) 
132.097041662

>  <MW>  (4813) 
132

>  <ID>  (4813) 
JP004739

>  <CONTRIBUTOR>  (4813) 
University of Tokyo Team, {Faculty of Engineering, University of Tokyo

>  <COMMENT>  (4813) 
SMILES=CC(C)(C)[Si](C)(C)O
InChI=InChI=1S/C6H16OSi/c1-6(2,3)8(4,5)7/h7H,1-5H3
computed SMILES=O[Si](C)(C)C(C)(C)C
accession=JP004739
date=2016.01.19 (Created 2008.10.21, modified 2011.05.06)
author=MASS SPECTROSCOPY SOC. OF JAPAN (MSSJ)
license=CC BY-NC-SA
exact mass=132.09704
ionization energy=70 eV
ion type=[M]+*
computed spectral entropy=1.2552347990637136
computed normalized entropy=0.48937995419371033
SPLASH=splash10-004i-9000000000-1ef01eb9977cbb19c712
submitter=submitter = University of Tokyo Team (Faculty of Engineering, University of Tokyo)
MoNA Rating=3.75

>  <NUM PEAKS>  (4813) 
13

>  <MASS SPECTRAL PEAKS>  (4813) 
41 3.08
43 1.46
45 4.39
47 3.59
56 1.97
57 1.25
60 1.04
61 2.19
74 3.79
75 99.99
76 7.88
77 4.02
132 4.73

$$$$

     RDKit          2D

  8  7  0  0  0  0  0  0  0  0999 V2000
    1.1262    2.5493    0.0000 C   0  0  0  0  0  0  0  0  0  0  0  0
   -4.0699    2.5493    0.0000 C   0  0  0  0  0  0  0  0  0  0  0  0
   -3.9132    1.6607    0.0000 C   0  0  0  0  0  0  0  0  0  0  0  0
   -0.1728    3.2993    0.0000 C   0  0  0  0  0  0  0  0  0  0  0  0
   -2.7709    3.2993    0.0000 C   0  0  0  0  0  0  0  0  0  0  0  0
   -2.4360    1.4002    0.0000 C   0  0  0  0  0  0  0  0  0  0  0  0
   -0.5077    1.4002    0.0000 Cl  0  0  0  0  0  0  0  0  0  0  0  0
   -1.4718    2.5493    0.0000 Si  0  0  0  0  0  4  0  0  0  0  0  0
  4  1  1  0
  5  2  1  0
  6  3  1  0
  8  4  1  0
  8  5  1  0
  8  6  1  0
  8  7  1  0
M  END
>  <NAME>  (4814) 
CHLOROTRIETHYLSILANE

>  <SYNONYMS>  (4814) 


>  <SPECTRUM TYPE>  (4814) 
MS1

>  <INSTRUMENT TYPE>  (4814) 
EI-B

>  <INSTRUMENT>  (4814) 
JEOL JMS-D-3000

>  <ION MODE>  (4814) 
P

>  <INCHIKEY>  (4814) 
DCFKHNIGBAHNSS-UHFFFAOYSA-N

>  <FORMULA>  (4814) 
C6H15ClSi

>  <EXACT MASS>  (4814) 
150.06315469

>  <MW>  (4814) 
150

>  <ID>  (4814) 
JP004738

>  <CONTRIBUTOR>  (4814) 
University of Tokyo Team, {Faculty of Engineering, University of Tokyo

>  <COMMENT>  (4814) 
SMILES=CC[Si](Cl)(CC)CC
cas=994-30-9
InChI=InChI=1S/C6H15ClSi/c1-4-8(7,5-2)6-3/h4-6H2,1-3H3
computed SMILES=Cl[Si](CC)(CC)CC
accession=JP004738
date=2016.01.19 (Created 2008.10.21, modified 2011.05.06)
author=MASS SPECTROSCOPY SOC. OF JAPAN (MSSJ)
license=CC BY-NC-SA
exact mass=150.06315
ionization energy=70 eV
ion type=[M]+*
computed spectral entropy=2.3459002340618698
computed normalized entropy=0.7040084805414674
SPLASH=splash10-00dl-8900000000-e4f35c9e55012532dcca
submitter=submitter = University of Tokyo Team (Faculty of Engineering, University of Tokyo)
MoNA Rating=3.75

>  <NUM PEAKS>  (4814) 
28

>  <MASS SPECTRAL PEAKS>  (4814) 
43 1.66
57 1.63
58 1.88
59 1.54
63 8.6
64 1.42
65 14.32
66 1.23
67 4.36
79 2.04
86 2.04
87 2.73
91 2.7
92 4.81
93 70.95
94 6.89
95 26.44
96 1.85
114 2.17
115 4.31
121 99.99
122 9.86
123 36.81
124 3.38
125 1.3
150 11.63
151 1.45
152 4.48

$$$$

     RDKit          2D

  9  8  0  0  0  0  0  0  0  0999 V2000
    0.4755    3.8236    0.0000 C   0  0  0  0  0  0  0  0  0  0  0  0
    1.2255   -0.4755    0.0000 C   0  0  0  0  0  0  0  0  0  0  0  0
   -0.2745    2.1226    0.0000 C   0  0  0  0  0  0  0  0  0  0  0  0
   -0.8236    0.0736    0.0000 C   0  0  0  0  0  0  0  0  0  0  0  0
    3.0736    3.8236    0.0000 C   0  0  0  0  0  0  0  0  0  0  0  0
    1.7745    3.0736    0.0000 C   0  0  0  0  0  0  0  0  0  0  0  0
    3.0736    5.3236    0.0000 Cl  0  0  0  0  0  0  0  0  0  0  0  0
    1.7745    1.5736    0.0000 O   0  0  0  0  0  0  0  0  0  0  0  0
    0.4755    0.8236    0.0000 Si  0  0  0  0  0  4  0  0  0  0  0  0
  6  1  2  0
  6  5  1  0
  7  5  1  0
  8  6  1  0
  9  2  1  0
  9  3  1  0
  9  4  1  0
  9  8  1  0
M  END
>  <NAME>  (4815) 
3-CHLORO-2-TRIMETHYLSILOXYPROPENE

>  <SYNONYMS>  (4815) 


>  <SPECTRUM TYPE>  (4815) 
MS1

>  <INSTRUMENT TYPE>  (4815) 
EI-B

>  <INSTRUMENT>  (4815) 
JEOL JMS-D-3000

>  <ION MODE>  (4815) 
P

>  <INCHIKEY>  (4815) 
OHLRLWSRPAPEMZ-UHFFFAOYSA-N

>  <FORMULA>  (4815) 
C6H13ClOSi

>  <EXACT MASS>  (4815) 
164.042419246

>  <MW>  (4815) 
164

>  <ID>  (4815) 
JP004736

>  <CONTRIBUTOR>  (4815) 
University of Tokyo Team, {Faculty of Engineering, University of Tokyo

>  <COMMENT>  (4815) 
SMILES=ClCC(=C)O[Si](C)(C)C
InChI=InChI=1S/C6H13ClOSi/c1-6(5-7)8-9(2,3)4/h1,5H2,2-4H3
computed SMILES=ClCC(O[Si](C)(C)C)=C
accession=JP004736
date=2016.01.19 (Created 2008.10.21, modified 2011.05.06)
author=MASS SPECTROSCOPY SOC. OF JAPAN (MSSJ)
license=CC BY-NC-SA
exact mass=164.04242
ionization energy=70 eV
ion type=[M]+*
computed spectral entropy=2.273149282482692
computed normalized entropy=0.8394044104343014
SPLASH=splash10-0002-9600000000-9d413625678c1e5b12d0
submitter=submitter = University of Tokyo Team (Faculty of Engineering, University of Tokyo)
MoNA Rating=3.75

>  <NUM PEAKS>  (4815) 
15

>  <MASS SPECTRAL PEAKS>  (4815) 
72 5.73
73 44.3
74 4.69
75 6.25
93 52.71
95 99.99
96 7.18
97 29.98
113 7.41
149 75.4
150 8.94
151 27.13
164 37.09
165 5.36
166 14.42

$$$$

     RDKit          2D

  9  8  0  0  0  0  0  0  0  0999 V2000
    1.2255   -0.4755    0.0000 C   0  0  0  0  0  0  0  0  0  0  0  0
   -0.2745    2.1226    0.0000 C   0  0  0  0  0  0  0  0  0  0  0  0
   -0.8236    0.0736    0.0000 C   0  0  0  0  0  0  0  0  0  0  0  0
    3.0736    3.8236    0.0000 C   0  0  0  0  0  0  0  0  0  0  0  0
    1.7745    1.5736    0.0000 C   0  0  0  0  0  0  0  0  0  0  0  0
    1.7745    3.0736    0.0000 C   0  0  0  0  0  0  0  0  0  0  0  0
    3.0736    5.3236    0.0000 Cl  0  0  0  0  0  0  0  0  0  0  0  0
    0.4755    3.8236    0.0000 O   0  0  0  0  0  0  0  0  0  0  0  0
    0.4755    0.8236    0.0000 Si  0  0  0  0  0  4  0  0  0  0  0  0
  6  4  1  0
  6  5  1  0
  7  4  1  0
  8  6  2  0
  9  1  1  0
  9  2  1  0
  9  3  1  0
  9  5  1  0
M  END
>  <NAME>  (4816) 
1-CHLORO-3-TRIMETHYLSILYL-2-PROPANONE

>  <SYNONYMS>  (4816) 


>  <SPECTRUM TYPE>  (4816) 
MS1

>  <INSTRUMENT TYPE>  (4816) 
EI-B

>  <INSTRUMENT>  (4816) 
JEOL JMS-D-3000

>  <ION MODE>  (4816) 
P

>  <INCHIKEY>  (4816) 
GVDVPDPHJUOSTN-UHFFFAOYSA-N

>  <FORMULA>  (4816) 
C6H13ClOSi

>  <EXACT MASS>  (4816) 
164.04241924599998

>  <MW>  (4816) 
164

>  <ID>  (4816) 
JP004735

>  <CONTRIBUTOR>  (4816) 
University of Tokyo Team, {Faculty of Engineering, University of Tokyo

>  <COMMENT>  (4816) 
SMILES=ClCC(=O)C[Si](C)(C)C
InChI=InChI=1S/C6H13ClOSi/c1-9(2,3)5-6(8)4-7/h4-5H2,1-3H3
computed SMILES=O=C(CCl)C[Si](C)(C)C
accession=JP004735
date=2016.01.19 (Created 2008.10.21, modified 2011.05.06)
author=MASS SPECTROSCOPY SOC. OF JAPAN (MSSJ)
license=CC BY-NC-SA
exact mass=164.04242
ionization energy=70 eV
ion type=[M]+*
computed spectral entropy=2.42922284560076
computed normalized entropy=0.8108945071779889
SPLASH=splash10-0002-9800000000-e30a40b3c7b698814a32
submitter=submitter = University of Tokyo Team (Faculty of Engineering, University of Tokyo)
MoNA Rating=3.75

>  <NUM PEAKS>  (4816) 
20

>  <MASS SPECTRAL PEAKS>  (4816) 
72 4
73 21.97
74 2.67
75 3.53
93 45.36
94 4.03
95 99.99
96 7.36
97 31.72
113 9.31
115 49.88
116 5.58
117 2.54
149 68.04
150 7.2
151 24.67
152 2.63
164 30.52
165 3.84
166 11.47

$$$$

     RDKit          2D

 10  9  0  0  0  0  0  0  0  0999 V2000
    5.3603    1.9118    0.0000 C   0  0  0  0  0  0  0  0  0  0  0  0
    3.8603    4.5099    0.0000 C   0  0  0  0  0  0  0  0  0  0  0  0
    5.9094    3.9608    0.0000 C   0  0  0  0  0  0  0  0  0  0  0  0
    2.0123    4.7108    0.0000 C   0  0  0  0  0  0  0  0  0  0  0  0
    0.7132    2.4608    0.0000 C   0  0  0  0  0  0  0  0  0  0  0  0
    2.0123    3.2108    0.0000 C   0  0  0  0  0  0  0  0  0  0  0  0
    3.3113    5.4608    0.0000 Cl  0  0  0  0  0  0  0  0  0  0  0  0
   -0.5858    3.2108    0.0000 Cl  0  0  0  0  0  0  0  0  0  0  0  0
    3.3113    2.4608    0.0000 O   0  0  0  0  0  0  0  0  0  0  0  0
    4.6103    3.2108    0.0000 Si  0  0  0  0  0  4  0  0  0  0  0  0
  4  6  2  0
  6  5  1  0
  7  4  1  0
  8  5  1  0
  9  6  1  0
 10  1  1  0
 10  2  1  0
 10  3  1  0
 10  9  1  0
M  END
>  <NAME>  (4817) 
1,3-DICHLORO-2-TRIMETHYLSILOXYPROPENE

>  <SYNONYMS>  (4817) 


>  <SPECTRUM TYPE>  (4817) 
MS1

>  <INSTRUMENT TYPE>  (4817) 
EI-B

>  <INSTRUMENT>  (4817) 
JEOL JMS-D-3000

>  <ION MODE>  (4817) 
P

>  <INCHIKEY>  (4817) 
ZHKMMCJJRXLVPW-XQRVVYSFSA-N

>  <FORMULA>  (4817) 
C6H12Cl2OSi

>  <EXACT MASS>  (4817) 
198.00344689399998

>  <MW>  (4817) 
198

>  <ID>  (4817) 
JP004734

>  <CONTRIBUTOR>  (4817) 
University of Tokyo Team, {Faculty of Engineering, University of Tokyo

>  <COMMENT>  (4817) 
SMILES=ClCC(=CCl)O[Si](C)(C)C
InChI=InChI=1S/C6H12Cl2OSi/c1-10(2,3)9-6(4-7)5-8/h4H,5H2,1-3H3/b6-4-
computed SMILES=ClC=C(O[Si](C)(C)C)CCl
accession=JP004734
date=2016.01.19 (Created 2008.10.21, modified 2011.05.06)
author=MASS SPECTROSCOPY SOC. OF JAPAN (MSSJ)
license=CC BY-NC-SA
exact mass=198.00345
ionization energy=70 eV
ion type=[M]+*
computed spectral entropy=2.8681956788780503
computed normalized entropy=0.8432899820346126
SPLASH=splash10-00di-9400000000-8044a8bfbbcaed521c04
submitter=submitter = University of Tokyo Team (Faculty of Engineering, University of Tokyo)
MoNA Rating=3.75

>  <NUM PEAKS>  (4817) 
30

>  <MASS SPECTRAL PEAKS>  (4817) 
27 10.9
36 5.13
39 4.2
43 10.73
45 16.47
47 3.56
53 16.27
55 10.52
63 4.55
65 6.93
69 4.65
72 2.65
73 99.99
74 10.53
75 8.3
79 4.5
93 46.21
94 3.46
95 21.99
111 9.85
113 43.08
114 2.78
115 29.42
117 5.57
147 3.52
183 21.52
185 14.8
187 2.73
198 9.29
200 6.16

$$$$

     RDKit          2D

 10  9  0  0  0  0  0  0  0  0999 V2000
    1.3260   -0.6495    0.0000 C   0  0  0  0  0  0  0  0  0  0  0  0
   -0.1740    1.9486    0.0000 C   0  0  0  0  0  0  0  0  0  0  0  0
    3.9240    2.3505    0.0000 C   0  0  0  0  0  0  0  0  0  0  0  0
    1.8750    1.3995    0.0000 C   0  0  0  0  0  0  0  0  0  0  0  0
    1.8750    2.8995    0.0000 C   0  0  0  0  0  0  0  0  0  0  0  0
   -0.7231   -0.1005    0.0000 Cl  0  0  0  0  0  0  0  0  0  0  0  0
    4.4731    4.3995    0.0000 Cl  0  0  0  0  0  0  0  0  0  0  0  0
    2.4240    4.9486    0.0000 Cl  0  0  0  0  0  0  0  0  0  0  0  0
    0.5760    0.6495    0.0000 Si  0  0  0  0  0  4  0  0  0  0  0  0
    3.1740    3.6495    0.0000 Si  0  0  0  0  0  4  0  0  0  0  0  0
  5  4  1  0
  9  1  1  0
  9  2  1  0
  9  4  1  0
  9  6  1  0
 10  3  1  0
 10  5  1  0
 10  7  1  0
 10  8  1  0
M  END
>  <NAME>  (4818) 
2,2,5-TRICHLORO-5-METHYL-2,5-DISILAHEXANE

>  <SYNONYMS>  (4818) 


>  <SPECTRUM TYPE>  (4818) 
MS1

>  <INSTRUMENT TYPE>  (4818) 
EI-B

>  <INSTRUMENT>  (4818) 
JEOL JMS-D-3000

>  <ION MODE>  (4818) 
P

>  <INCHIKEY>  (4818) 
NIRGYLDVTGAPIO-UHFFFAOYSA-N

>  <FORMULA>  (4818) 
C5H13Cl3Si2

>  <EXACT MASS>  (4818) 
233.962136516

>  <MW>  (4818) 
234

>  <ID>  (4818) 
JP004732

>  <CONTRIBUTOR>  (4818) 
University of Tokyo Team, {Faculty of Engineering, University of Tokyo

>  <COMMENT>  (4818) 
SMILES=C[Si](C)(Cl)CC[Si](C)(Cl)Cl
InChI=InChI=1S/C5H13Cl3Si2/c1-9(2,6)4-5-10(3,7)8/h4-5H2,1-3H3
computed SMILES=Cl[Si](Cl)(C)CC[Si](Cl)(C)C
accession=JP004732
date=2016.01.19 (Created 2008.10.21, modified 2011.05.06)
author=MASS SPECTROSCOPY SOC. OF JAPAN (MSSJ)
license=CC BY-NC-SA
exact mass=233.96214
ionization energy=70 eV
ion type=[M]+*
computed spectral entropy=2.0277523571491805
computed normalized entropy=0.7905623365429694
SPLASH=splash10-0a4i-6910000000-af431a73edf63558c574
submitter=submitter = University of Tokyo Team (Faculty of Engineering, University of Tokyo)
MoNA Rating=3.75

>  <NUM PEAKS>  (4818) 
13

>  <MASS SPECTRAL PEAKS>  (4818) 
59 16.04
79 20.14
94 67.69
96 24.54
105 18.82
106 99.99
107 13.96
108 34.94
221 12.12
222 1.63
223 4.45
234 1.56
236 1.47

$$$$

     RDKit          2D

  6  5  0  0  0  0  0  0  0  0999 V2000
   -4.5466    3.3750    0.0000 C   0  0  0  0  0  0  0  0  0  0  0  0
   -3.2476    2.6250    0.0000 C   0  0  0  0  0  0  0  0  0  0  0  0
   -1.9486    3.3750    0.0000 C   0  0  0  0  0  0  0  0  0  0  0  0
   -0.6495    2.6250    0.0000 C   0  0  0  0  0  0  0  0  0  0  0  0
    0.6495    3.3750    0.0000 C   0  0  0  0  0  0  0  0  0  0  0  0
    1.9486    2.6250    0.0000 O   0  0  0  0  0  0  0  0  0  0  0  0
  2  1  2  0
  3  2  1  0
  4  3  1  0
  5  4  1  0
  6  5  1  0
M  END
>  <NAME>  (4819) 
4-PENTEN-1-OL

>  <SYNONYMS>  (4819) 


>  <SPECTRUM TYPE>  (4819) 
MS1

>  <INSTRUMENT TYPE>  (4819) 
EI-B

>  <INSTRUMENT>  (4819) 
JEOL JMS-D-3000

>  <ION MODE>  (4819) 
P

>  <INCHIKEY>  (4819) 
LQAVWYMTUMSFBE-UHFFFAOYSA-N

>  <FORMULA>  (4819) 
C5H10O

>  <EXACT MASS>  (4819) 
86.07316494

>  <MW>  (4819) 
86

>  <ID>  (4819) 
JP004731

>  <CONTRIBUTOR>  (4819) 
University of Tokyo Team, {Faculty of Engineering, University of Tokyo

>  <COMMENT>  (4819) 
SMILES=C=CCCCO
cas=821-09-0
InChI=InChI=1S/C5H10O/c1-2-3-4-5-6/h2,6H,1,3-5H2
computed SMILES=OCCCC=C
accession=JP004731
date=2016.01.19 (Created 2008.10.21, modified 2011.05.06)
author=MASS SPECTROSCOPY SOC. OF JAPAN (MSSJ)
license=CC BY-NC-SA
exact mass=86.07316
ionization energy=70 eV
ion type=[M]+*
computed spectral entropy=1.654886650684278
computed normalized entropy=0.6451927192519996
SPLASH=splash10-00kf-9000000000-215d4d2a171d667c3b34
submitter=submitter = University of Tokyo Team (Faculty of Engineering, University of Tokyo)
MoNA Rating=3.75

>  <NUM PEAKS>  (4819) 
13

>  <MASS SPECTRAL PEAKS>  (4819) 
41 15.51
42 3.4
43 99.99
44 1.16
53 8.92
54 1.38
55 3.4
61 2.86
67 37.83
68 77.25
69 5.31
73 2.44
86 1.27

$$$$

     RDKit          2D

 20 20  0  0  0  0  0  0  0  0999 V2000
    9.0942    0.7512    0.0000 C   0  0  0  0  0  0  0  0  0  0  0  0
    7.7948    3.0010    0.0000 C   0  0  0  0  0  0  0  0  0  0  0  0
    3.5629    2.6494    0.0000 C   0  0  0  0  0  0  0  0  0  0  0  0
   -3.1483    0.5487    0.0000 C   0  0  0  0  0  0  0  0  0  0  0  0
   -5.1972   -0.0006    0.0000 C   0  0  0  0  0  0  0  0  0  0  0  0
   -4.6479   -2.0496    0.0000 C   0  0  0  0  0  0  0  0  0  0  0  0
    5.1970    1.5006    0.0000 C   0  0  0  0  0  0  0  0  0  0  0  0
    6.4962    0.7508    0.0000 C   0  0  0  0  0  0  0  0  0  0  0  0
   -1.3000    0.7500    0.0000 C   0  0  0  0  0  0  0  0  0  0  0  0
   -0.0000   -1.5000    0.0000 C   0  0  0  0  0  0  0  0  0  0  0  0
    0.0000    1.5000    0.0000 C   0  0  0  0  0  0  0  0  0  0  0  0
    1.3000   -0.7500    0.0000 C   0  0  0  0  0  0  0  0  0  0  0  0
    3.8981    0.7504    0.0000 C   0  0  0  0  0  0  0  0  0  0  0  0
   -2.5989   -1.5002    0.0000 C   0  0  0  0  0  0  0  0  0  0  0  0
    7.7951    1.5010    0.0000 C   0  0  0  0  0  0  0  0  0  0  0  0
   -1.3000   -0.7500    0.0000 C   0  0  0  0  0  0  0  0  0  0  0  0
    1.3000    0.7500    0.0000 C   0  0  0  0  0  0  0  0  0  0  0  0
    2.5989    1.5002    0.0000 C   0  0  0  0  0  0  0  0  0  0  0  0
    1.6346    2.6491    0.0000 O   0  0  0  0  0  0  0  0  0  0  0  0
   -3.8981   -0.7504    0.0000 Si  0  0  0  0  0  4  0  0  0  0  0  0
  8  7  1  0
 11  9  1  0
 12 10  1  0
 13  7  1  0
 15  1  1  0
 15  2  1  0
 15  8  2  0
 16  9  2  0
 16 10  1  0
 16 14  1  0
 17 11  1  0
 17 12  1  0
 18  3  1  0
 18 13  1  0
 18 17  1  0
 19 18  1  0
 20  4  1  0
 20  5  1  0
 20  6  1  0
 20 14  1  0
M  END
>  <NAME>  (4820) 
2-(4-TRIMETHYLSILYLMETHYL-3-CYCLOHEXENYL)-6-METHYL-5-HEPTEN-2-OL

>  <SYNONYMS>  (4820) 


>  <SPECTRUM TYPE>  (4820) 
MS1

>  <INSTRUMENT TYPE>  (4820) 
EI-B

>  <INSTRUMENT>  (4820) 
JEOL JMS-D-3000

>  <ION MODE>  (4820) 
P

>  <INCHIKEY>  (4820) 
JYKDIEVVWXVFHF-UHFFFAOYSA-N

>  <FORMULA>  (4820) 
C18H34OSi

>  <EXACT MASS>  (4820) 
294.237892238

>  <MW>  (4820) 
294

>  <ID>  (4820) 
JP004730

>  <CONTRIBUTOR>  (4820) 
University of Tokyo Team, {Faculty of Engineering, University of Tokyo

>  <COMMENT>  (4820) 
SMILES=CC(C)=CCCC(C)(O)C(C1)CC=C(C1)C[Si](C)(C)C
InChI=InChI=1S/C18H34OSi/c1-15(2)8-7-13-18(3,19)17-11-9-16(10-12-17)14-20(4,5)6/h8-9,17,19H,7,10-14H2,1-6H3
computed SMILES=OC(C)(CCC=C(C)C)C1CC=C(CC1)C[Si](C)(C)C
accession=JP004730
date=2016.01.19 (Created 2008.10.21, modified 2011.05.06)
author=MASS SPECTROSCOPY SOC. OF JAPAN (MSSJ)
license=CC BY-NC-SA
exact mass=294.23789
ionization energy=70 eV
ion type=[M]+*
computed spectral entropy=2.520492456382739
computed normalized entropy=0.7485212418633451
SPLASH=splash10-00di-9110000000-65e853b786b42f593184
submitter=submitter = University of Tokyo Team (Faculty of Engineering, University of Tokyo)
MoNA Rating=3.75

>  <NUM PEAKS>  (4820) 
29

>  <MASS SPECTRAL PEAKS>  (4820) 
41 10
45 5.08
55 3.08
59 4.69
67 2.77
69 12.31
73 99.99
74 8.25
75 7.96
79 2.99
80 4.57
91 4.04
92 4.7
93 17.45
94 2.58
98 2.92
105 3
107 2.77
109 5.58
121 3.81
133 3.97
191 5.79
193 2.69
206 2.7
207 2.57
261 1.6
276 14.62
277 3.97
294 0.49

$$$$

     RDKit          2D

 19 19  0  0  0  0  0  0  0  0999 V2000
    9.0942    0.7512    0.0000 C   0  0  0  0  0  0  0  0  0  0  0  0
    7.7948    3.0010    0.0000 C   0  0  0  0  0  0  0  0  0  0  0  0
   -3.1483    0.5487    0.0000 C   0  0  0  0  0  0  0  0  0  0  0  0
   -5.1972   -0.0006    0.0000 C   0  0  0  0  0  0  0  0  0  0  0  0
   -4.6479   -2.0496    0.0000 C   0  0  0  0  0  0  0  0  0  0  0  0
    5.1970    1.5006    0.0000 C   0  0  0  0  0  0  0  0  0  0  0  0
    6.4962    0.7508    0.0000 C   0  0  0  0  0  0  0  0  0  0  0  0
    3.8981    0.7504    0.0000 C   0  0  0  0  0  0  0  0  0  0  0  0
   -1.3000    0.7500    0.0000 C   0  0  0  0  0  0  0  0  0  0  0  0
   -0.0000   -1.5000    0.0000 C   0  0  0  0  0  0  0  0  0  0  0  0
    0.0000    1.5000    0.0000 C   0  0  0  0  0  0  0  0  0  0  0  0
    1.3000   -0.7500    0.0000 C   0  0  0  0  0  0  0  0  0  0  0  0
   -2.5989   -1.5002    0.0000 C   0  0  0  0  0  0  0  0  0  0  0  0
    7.7951    1.5010    0.0000 C   0  0  0  0  0  0  0  0  0  0  0  0
   -1.3000   -0.7500    0.0000 C   0  0  0  0  0  0  0  0  0  0  0  0
    1.3000    0.7500    0.0000 C   0  0  0  0  0  0  0  0  0  0  0  0
    2.5989    1.5002    0.0000 C   0  0  0  0  0  0  0  0  0  0  0  0
    2.5987    3.0002    0.0000 O   0  0  0  0  0  0  0  0  0  0  0  0
   -3.8981   -0.7504    0.0000 Si  0  0  0  0  0  4  0  0  0  0  0  0
  7  6  1  0
  8  6  1  0
 11  9  1  0
 12 10  1  0
 14  1  1  0
 14  2  1  0
 14  7  2  0
 15  9  2  0
 15 10  1  0
 15 13  1  0
 16 11  1  0
 16 12  1  0
 17  8  1  0
 17 16  1  0
 18 17  1  0
 19  3  1  0
 19  4  1  0
 19  5  1  0
 19 13  1  0
M  END
>  <NAME>  (4821) 
1-(4-TRIMETHYLSILYLMETHYL-3-CYCLOHEXENYL)-5-METHYL-4-HEXEN-1-OL

>  <SYNONYMS>  (4821) 


>  <SPECTRUM TYPE>  (4821) 
MS1

>  <INSTRUMENT TYPE>  (4821) 
EI-B

>  <INSTRUMENT>  (4821) 
JEOL JMS-D-3000

>  <ION MODE>  (4821) 
P

>  <INCHIKEY>  (4821) 
GYSUXFPJPGFPTA-UHFFFAOYSA-N

>  <FORMULA>  (4821) 
C17H32OSi

>  <EXACT MASS>  (4821) 
280.22224217400003

>  <MW>  (4821) 
280

>  <ID>  (4821) 
JP004729

>  <CONTRIBUTOR>  (4821) 
University of Tokyo Team, {Faculty of Engineering, University of Tokyo

>  <COMMENT>  (4821) 
SMILES=CC(C)=CCCC(O)C(C1)CC([H])=C(C1)C[Si](C)(C)C
InChI=InChI=1S/C17H32OSi/c1-14(2)7-6-8-17(18)16-11-9-15(10-12-16)13-19(3,4)5/h7,9,16-18H,6,8,10-13H2,1-5H3
computed SMILES=OC(CCC=C(C)C)C1CC=C(CC1)C[Si](C)(C)C
accession=JP004729
date=2016.01.19 (Created 2008.10.21, modified 2011.05.06)
author=MASS SPECTROSCOPY SOC. OF JAPAN (MSSJ)
license=CC BY-NC-SA
exact mass=280.22224
ionization energy=70 eV
ion type=[M]+*
computed spectral entropy=2.5532212815755915
computed normalized entropy=0.7367039362442539
SPLASH=splash10-00di-9100000000-88a3d645ad3844765f62
submitter=submitter = University of Tokyo Team (Faculty of Engineering, University of Tokyo)
MoNA Rating=3.75

>  <NUM PEAKS>  (4821) 
32

>  <MASS SPECTRAL PEAKS>  (4821) 
42 14.5
43 2.73
45 6.96
55 4.29
57 1.95
59 3.91
67 3.41
69 12.6
73 99.99
74 8.91
75 15.62
77 2.52
79 4.37
82 3.76
91 4.49
92 2.19
93 4.14
95 3.72
104 2.27
105 2.44
106 5.29
107 1.85
111 1.78
115 1.81
119 3.82
152 3.86
165 3.42
166 3.2
167 3.18
213 6.08
262 1.03
280 1.78

$$$$

     RDKit          2D

 11 10  0  0  0  0  0  0  0  0999 V2000
   -0.0000   -0.0000    0.0000 C   0  0  0  0  0  0  0  0  0  0  0  0
    1.2990    2.2500    0.0000 C   0  0  0  0  0  0  0  0  0  0  0  0
   -2.5981    0.0000    0.0000 C   0  0  0  0  0  0  0  0  0  0  0  0
   -2.5981    6.0000    0.0000 C   0  0  0  0  0  0  0  0  0  0  0  0
   -0.0000    1.5000    0.0000 C   0  0  0  0  0  0  0  0  0  0  0  0
   -2.5981    1.5000    0.0000 C   0  0  0  0  0  0  0  0  0  0  0  0
   -1.2990    2.2500    0.0000 C   0  0  0  0  0  0  0  0  0  0  0  0
   -1.2990    3.7500    0.0000 C   0  0  0  0  0  0  0  0  0  0  0  0
   -3.8971    2.2500    0.0000 O   0  0  0  0  0  0  0  0  0  0  0  0
    0.0000    4.5000    0.0000 O   0  0  0  0  0  0  0  0  0  0  0  0
   -2.5981    4.5000    0.0000 O   0  0  0  0  0  0  0  0  0  0  0  0
  5  1  1  0
  5  2  1  0
  6  3  1  0
  7  5  2  0
  7  6  1  0
  8  7  1  0
  9  6  2  0
 10  8  2  0
 11  4  1  0
 11  8  1  0
M  END
>  <NAME>  (4822) 
METHYL ALPHA-ACETYLDIMETHYLACRYLATE

>  <SYNONYMS>  (4822) 


>  <SPECTRUM TYPE>  (4822) 
MS1

>  <INSTRUMENT TYPE>  (4822) 
EI-B

>  <INSTRUMENT>  (4822) 
JEOL JMS-D-3000

>  <ION MODE>  (4822) 
P

>  <INCHIKEY>  (4822) 
CDHWLGSCWGPPCT-UHFFFAOYSA-N

>  <FORMULA>  (4822) 
C8H12O3

>  <EXACT MASS>  (4822) 
156.078644244

>  <MW>  (4822) 
156

>  <ID>  (4822) 
JP004728

>  <CONTRIBUTOR>  (4822) 
University of Tokyo Team, {Faculty of Engineering, University of Tokyo

>  <COMMENT>  (4822) 
SMILES=COC(=O)C(=C(C)C)C(C)=O
InChI=InChI=1S/C8H12O3/c1-5(2)7(6(3)9)8(10)11-4/h1-4H3
computed SMILES=O=C(OC)C(C(=O)C)=C(C)C
accession=JP004728
date=2016.01.19 (Created 2008.10.21, modified 2011.05.06)
author=MASS SPECTROSCOPY SOC. OF JAPAN (MSSJ)
license=CC BY-NC-SA
exact mass=156.07864
ionization energy=70 eV
ion type=[M]+*
computed spectral entropy=2.8481690133879307
computed normalized entropy=0.7947966962928928
SPLASH=splash10-0537-9300000000-341ffe8985e9fe67c24f
submitter=submitter = University of Tokyo Team (Faculty of Engineering, University of Tokyo)
MoNA Rating=3.75

>  <NUM PEAKS>  (4822) 
36

>  <MASS SPECTRAL PEAKS>  (4822) 
41 17.21
42 2.68
43 99.99
45 1.61
50 1.7
51 2.77
52 1.61
53 7.7
54 6.38
55 14.75
56 1.41
59 12.6
66 3.94
67 42.77
68 8.46
69 1.72
73 12.92
81 2.77
82 21.4
83 52.49
84 3.58
95 3.58
96 88.18
97 7.15
98 1.29
99 5.07
109 46.02
110 2.99
114 2.2
123 1.55
124 49.35
125 29.45
126 1.98
141 12.38
156 31.92
157 2.68

$$$$

     RDKit          2D

 16 17  0  0  0  0  0  0  0  0999 V2000
   -4.4483    0.5487    0.0000 C   0  0  0  0  0  0  0  0  0  0  0  0
   -6.4972   -0.0006    0.0000 C   0  0  0  0  0  0  0  0  0  0  0  0
   -5.9479   -2.0496    0.0000 C   0  0  0  0  0  0  0  0  0  0  0  0
    2.6000   -0.7500    0.0000 C   0  0  0  0  0  0  0  0  0  0  0  0
    1.3000   -1.5000    0.0000 C   0  0  0  0  0  0  0  0  0  0  0  0
    2.6000    0.7500    0.0000 C   0  0  0  0  0  0  0  0  0  0  0  0
   -2.6000    0.7500    0.0000 C   0  0  0  0  0  0  0  0  0  0  0  0
   -1.3000    1.5000    0.0000 C   0  0  0  0  0  0  0  0  0  0  0  0
   -1.3000   -1.5000    0.0000 C   0  0  0  0  0  0  0  0  0  0  0  0
   -3.8989   -1.5002    0.0000 C   0  0  0  0  0  0  0  0  0  0  0  0
   -2.6000   -0.7500    0.0000 C   0  0  0  0  0  0  0  0  0  0  0  0
    0.0000   -0.7500    0.0000 C   0  0  0  0  0  0  0  0  0  0  0  0
    0.0000    0.7500    0.0000 C   0  0  0  0  0  0  0  0  0  0  0  0
    1.3000    1.5000    0.0000 C   0  0  0  0  0  0  0  0  0  0  0  0
    1.3000    3.0000    0.0000 O   0  0  0  0  0  0  0  0  0  0  0  0
   -5.1981   -0.7504    0.0000 Si  0  0  0  0  0  4  0  0  0  0  0  0
  5  4  1  0
  6  4  1  0
  8  7  1  0
 11  7  2  0
 11  9  1  0
 11 10  1  0
 12  5  1  0
 12  9  1  0
 13  8  1  0
 13 12  1  0
 14  6  1  0
 14 13  1  0
 15 14  2  0
 16  1  1  0
 16  2  1  0
 16  3  1  0
 16 10  1  0
M  END
>  <NAME>  (4823) 
6-TRIMETHYLSILYLMETHYL-3,4,4A,5,8,8A-HEXAHYDRO-1(2H)-NAPHTHALENONE

>  <SYNONYMS>  (4823) 


>  <SPECTRUM TYPE>  (4823) 
MS1

>  <INSTRUMENT TYPE>  (4823) 
EI-B

>  <INSTRUMENT>  (4823) 
JEOL JMS-D-3000

>  <ION MODE>  (4823) 
P

>  <INCHIKEY>  (4823) 
RWOJYFLMIFUXLK-UHFFFAOYSA-N

>  <FORMULA>  (4823) 
C14H24OSi

>  <EXACT MASS>  (4823) 
236.15964191799998

>  <MW>  (4823) 
236

>  <ID>  (4823) 
JP004727

>  <CONTRIBUTOR>  (4823) 
University of Tokyo Team, {Faculty of Engineering, University of Tokyo

>  <COMMENT>  (4823) 
computed SMILES=O=C1CCCC2CC(=CCC12)C[Si](C)(C)C
SMILES=O=C(C2)C(C1)C(CC2)CC(=C1)C[Si](C)(C)C
cas=82096-10-4
InChI=InChI=1S/C14H24OSi/c1-16(2,3)10-11-7-8-13-12(9-11)5-4-6-14(13)15/h7,12-13H,4-6,8-10H2,1-3H3
accession=JP004727
date=2016.01.19 (Created 2008.10.21, modified 2011.05.06)
author=MASS SPECTROSCOPY SOC. OF JAPAN (MSSJ)
license=CC BY-NC-SA
exact mass=236.15964
ionization energy=70 eV
ion type=[M]+*
computed spectral entropy=2.5985407405482555
computed normalized entropy=0.7798263079632008
SPLASH=splash10-00di-9610000000-3b4e3b71538b85289c49
submitter=submitter = University of Tokyo Team (Faculty of Engineering, University of Tokyo)
MoNA Rating=3.75

>  <NUM PEAKS>  (4823) 
28

>  <MASS SPECTRAL PEAKS>  (4823) 
42 2.94
43 2.17
45 10.33
55 1.9
59 7.07
73 99.99
74 8.94
75 17.01
77 4.39
79 2.82
91 7.13
92 2.65
104 7.92
105 8.01
117 3.54
118 7.82
129 2.61
131 11.15
145 3.9
146 16.87
147 2.74
149 2.72
169 41.5
170 6.48
171 2.01
203 4.05
236 12.87
237 2.76

$$$$

     RDKit          2D

 15 15  0  0  0  0  0  0  0  0999 V2000
    9.0942    0.7512    0.0000 C   0  0  0  0  0  0  0  0  0  0  0  0
    7.7948    3.0010    0.0000 C   0  0  0  0  0  0  0  0  0  0  0  0
   -2.5989   -1.5002    0.0000 C   0  0  0  0  0  0  0  0  0  0  0  0
    5.1970    1.5006    0.0000 C   0  0  0  0  0  0  0  0  0  0  0  0
    6.4962    0.7508    0.0000 C   0  0  0  0  0  0  0  0  0  0  0  0
    3.8981    0.7504    0.0000 C   0  0  0  0  0  0  0  0  0  0  0  0
   -1.3000    0.7500    0.0000 C   0  0  0  0  0  0  0  0  0  0  0  0
   -0.0000   -1.5000    0.0000 C   0  0  0  0  0  0  0  0  0  0  0  0
    0.0000    1.5000    0.0000 C   0  0  0  0  0  0  0  0  0  0  0  0
    1.3000   -0.7500    0.0000 C   0  0  0  0  0  0  0  0  0  0  0  0
    7.7951    1.5010    0.0000 C   0  0  0  0  0  0  0  0  0  0  0  0
   -1.3000   -0.7500    0.0000 C   0  0  0  0  0  0  0  0  0  0  0  0
    1.3000    0.7500    0.0000 C   0  0  0  0  0  0  0  0  0  0  0  0
    2.5989    1.5002    0.0000 C   0  0  0  0  0  0  0  0  0  0  0  0
    2.5987    3.0002    0.0000 O   0  0  0  0  0  0  0  0  0  0  0  0
  5  4  1  0
  6  4  1  0
  9  7  1  0
 10  8  1  0
 11  1  1  0
 11  2  1  0
 11  5  2  0
 12  3  2  0
 12  7  1  0
 12  8  1  0
 13  9  1  0
 13 10  1  0
 14  6  1  0
 14 13  1  0
 15 14  1  0
M  END
>  <NAME>  (4824) 
1-(4-METHYLENECYCLOHEXYL)-5-METHYL-4-HEXEN-1-OL

>  <SYNONYMS>  (4824) 


>  <SPECTRUM TYPE>  (4824) 
MS1

>  <INSTRUMENT TYPE>  (4824) 
EI-B

>  <INSTRUMENT>  (4824) 
JEOL JMS-D-3000

>  <ION MODE>  (4824) 
P

>  <INCHIKEY>  (4824) 
YNTXRJAXNARKST-UHFFFAOYSA-N

>  <FORMULA>  (4824) 
C14H24O

>  <EXACT MASS>  (4824) 
208.182715388

>  <MW>  (4824) 
208

>  <ID>  (4824) 
JP004726

>  <CONTRIBUTOR>  (4824) 
University of Tokyo Team, {Faculty of Engineering, University of Tokyo

>  <COMMENT>  (4824) 
SMILES=CC(C)=CCCC(O)C(C1)CCC(=C)C1
InChI=InChI=1S/C14H24O/c1-11(2)5-4-6-14(15)13-9-7-12(3)8-10-13/h5,13-15H,3-4,6-10H2,1-2H3
computed SMILES=OC(CCC=C(C)C)C1CCC(=C)CC1
accession=JP004726
date=2016.01.19 (Created 2008.10.21, modified 2011.05.06)
exact mass=208.18272
author=MASS SPECTROSCOPY SOC. OF JAPAN (MSSJ)
license=CC BY-NC-SA
ionization energy=70 eV
ion type=[M]+*
computed spectral entropy=3.1575211387361493
computed normalized entropy=0.88112305054442
SPLASH=splash10-067m-9200000000-5e56e632536c522ea2f8
submitter=submitter = University of Tokyo Team (Faculty of Engineering, University of Tokyo)
MoNA Rating=3.75

>  <NUM PEAKS>  (4824) 
36

>  <MASS SPECTRAL PEAKS>  (4824) 
42 99.99
43 27.07
53 19.23
55 51.36
56 15.23
57 20.62
67 53.52
68 15.61
69 81.21
70 10.39
79 31.01
81 28.46
82 93.82
83 16.17
91 25.29
92 14.5
93 27.57
94 14.11
95 80.87
96 11.56
105 19.89
106 36.29
107 13.56
119 16.78
123 16.28
147 21.9
151 29.4
161 1.66
165 11.17
166 1.94
175 2.72
190 6.55
191 1.55
193 1.16
208 4.55
209 1.11

$$$$

     RDKit          2D

 15 15  0  0  0  0  0  0  0  0999 V2000
    9.0942    0.7512    0.0000 C   0  0  0  0  0  0  0  0  0  0  0  0
    7.7948    3.0010    0.0000 C   0  0  0  0  0  0  0  0  0  0  0  0
   -2.5989   -1.5002    0.0000 C   0  0  0  0  0  0  0  0  0  0  0  0
    5.1970    1.5006    0.0000 C   0  0  0  0  0  0  0  0  0  0  0  0
    6.4962    0.7508    0.0000 C   0  0  0  0  0  0  0  0  0  0  0  0
    3.8981    0.7504    0.0000 C   0  0  0  0  0  0  0  0  0  0  0  0
   -1.3000    0.7500    0.0000 C   0  0  0  0  0  0  0  0  0  0  0  0
   -0.0000   -1.5000    0.0000 C   0  0  0  0  0  0  0  0  0  0  0  0
    0.0000    1.5000    0.0000 C   0  0  0  0  0  0  0  0  0  0  0  0
    1.3000   -0.7500    0.0000 C   0  0  0  0  0  0  0  0  0  0  0  0
    7.7951    1.5010    0.0000 C   0  0  0  0  0  0  0  0  0  0  0  0
   -1.3000   -0.7500    0.0000 C   0  0  0  0  0  0  0  0  0  0  0  0
    1.3000    0.7500    0.0000 C   0  0  0  0  0  0  0  0  0  0  0  0
    2.5989    1.5002    0.0000 C   0  0  0  0  0  0  0  0  0  0  0  0
    2.5987    3.0002    0.0000 O   0  0  0  0  0  0  0  0  0  0  0  0
  5  4  1  0
  6  4  1  0
  9  7  1  0
 10  8  1  0
 11  1  1  0
 11  2  1  0
 11  5  2  0
 12  3  2  0
 12  7  1  0
 12  8  1  0
 13  9  1  0
 13 10  1  0
 14  6  1  0
 14 13  1  0
 15 14  2  0
M  END
>  <NAME>  (4825) 
4-METHYLENECYCLOHEXYL 4-METHYL-3-PENTENYLKETONE

>  <SYNONYMS>  (4825) 


>  <SPECTRUM TYPE>  (4825) 
MS1

>  <INSTRUMENT TYPE>  (4825) 
EI-B

>  <INSTRUMENT>  (4825) 
JEOL JMS-D-3000

>  <ION MODE>  (4825) 
P

>  <INCHIKEY>  (4825) 
RUVQJUFOCKSEQX-UHFFFAOYSA-N

>  <FORMULA>  (4825) 
C14H22O

>  <EXACT MASS>  (4825) 
206.167065324

>  <MW>  (4825) 
206

>  <ID>  (4825) 
JP004725

>  <CONTRIBUTOR>  (4825) 
University of Tokyo Team, {Faculty of Engineering, University of Tokyo

>  <COMMENT>  (4825) 
SMILES=CC(C)=CCCC(=O)C(C1)CCC(=C)C1
InChI=InChI=1S/C14H22O/c1-11(2)5-4-6-14(15)13-9-7-12(3)8-10-13/h5,13H,3-4,6-10H2,1-2H3
computed SMILES=O=C(CCC=C(C)C)C1CCC(=C)CC1
accession=JP004725
date=2016.01.19 (Created 2008.10.21, modified 2011.05.06)
author=MASS SPECTROSCOPY SOC. OF JAPAN (MSSJ)
license=CC BY-NC-SA
exact mass=206.16707
ionization energy=70 eV
ion type=[M]+*
computed spectral entropy=2.9497633564209957
computed normalized entropy=0.867272029646058
SPLASH=splash10-052r-9710000000-72b1ba0dbd27a79fd917
submitter=submitter = University of Tokyo Team (Faculty of Engineering, University of Tokyo)
MoNA Rating=3.75

>  <NUM PEAKS>  (4825) 
30

>  <MASS SPECTRAL PEAKS>  (4825) 
41 20.84
43 13.15
44 5.62
53 4.94
55 15.29
65 3.53
67 8.34
69 21.33
77 10.3
79 15.58
80 3.71
81 14.19
83 26.09
91 9.8
92 3.89
93 13.31
94 4.6
95 9.85
97 4.81
105 6.48
107 4.28
121 27.45
122 3.81
136 4.23
139 99.99
140 9.96
145 10.82
163 10.48
206 38.8
207 5.49

$$$$

     RDKit          2D

 15 16  0  0  0  0  0  0  0  0999 V2000
   -2.5990    3.7500    0.0000 C   0  0  0  0  0  0  0  0  0  0  0  0
   -0.0010    3.7500    0.0000 C   0  0  0  0  0  0  0  0  0  0  0  0
    3.8989    1.5002    0.0000 C   0  0  0  0  0  0  0  0  0  0  0  0
    2.6000   -0.7500    0.0000 C   0  0  0  0  0  0  0  0  0  0  0  0
    1.3000   -1.5000    0.0000 C   0  0  0  0  0  0  0  0  0  0  0  0
   -2.6000    0.7500    0.0000 C   0  0  0  0  0  0  0  0  0  0  0  0
   -2.6000   -0.7500    0.0000 C   0  0  0  0  0  0  0  0  0  0  0  0
    1.3000    1.5000    0.0000 C   0  0  0  0  0  0  0  0  0  0  0  0
   -1.3000    3.0000    0.0000 C   0  0  0  0  0  0  0  0  0  0  0  0
    2.6000    0.7500    0.0000 C   0  0  0  0  0  0  0  0  0  0  0  0
   -1.3000    1.5000    0.0000 C   0  0  0  0  0  0  0  0  0  0  0  0
    0.0000   -0.7500    0.0000 C   0  0  0  0  0  0  0  0  0  0  0  0
    0.0000    0.7500    0.0000 C   0  0  0  0  0  0  0  0  0  0  0  0
   -1.3000   -1.5000    0.0000 C   0  0  0  0  0  0  0  0  0  0  0  0
   -1.3000   -3.0000    0.0000 O   0  0  0  0  0  0  0  0  0  0  0  0
  5  4  1  0
  7  6  1  0
  9  1  1  0
  9  2  1  0
 10  3  2  0
 10  4  1  0
 10  8  1  0
 11  6  1  0
 11  9  1  0
 12  5  1  0
 13  8  1  0
 13 11  1  0
 13 12  1  0
 14  7  1  0
 14 12  1  0
 15 14  2  0
M  END
>  <NAME>  (4826) 
4-ISOPROPYL-6-METHYLENE-3,4,4A,5,6,7,8,8A-OCTAHYDRO-1(2H)-NAPHTHALENONE

>  <SYNONYMS>  (4826) 


>  <SPECTRUM TYPE>  (4826) 
MS1

>  <INSTRUMENT TYPE>  (4826) 
EI-B

>  <INSTRUMENT>  (4826) 
JEOL JMS-D-3000

>  <ION MODE>  (4826) 
P

>  <INCHIKEY>  (4826) 
JSJLUTZQCLOLOV-UHFFFAOYSA-N

>  <FORMULA>  (4826) 
C14H22O

>  <EXACT MASS>  (4826) 
206.167065324

>  <MW>  (4826) 
206

>  <ID>  (4826) 
JP004724

>  <CONTRIBUTOR>  (4826) 
University of Tokyo Team, {Faculty of Engineering, University of Tokyo

>  <COMMENT>  (4826) 
SMILES=CC(C)C(C1)C(C2)C(CCC(=C)2)C(=O)C1
cas=82096-16-0
InChI=InChI=1S/C14H22O/c1-9(2)11-6-7-14(15)12-5-4-10(3)8-13(11)12/h9,11-13H,3-8H2,1-2H3
computed SMILES=O=C1CCC(C(C)C)C2CC(=C)CCC12
accession=JP004724
date=2016.01.19 (Created 2008.10.21, modified 2011.05.06)
author=MASS SPECTROSCOPY SOC. OF JAPAN (MSSJ)
license=CC BY-NC-SA
exact mass=206.16707
ionization energy=70 eV
ion type=[M]+*
computed spectral entropy=3.1543139618186014
computed normalized entropy=0.9274127925728018
SPLASH=splash10-053r-9410000000-dbe58e3a031386772c52
submitter=submitter = University of Tokyo Team (Faculty of Engineering, University of Tokyo)
MoNA Rating=3.75

>  <NUM PEAKS>  (4826) 
30

>  <MASS SPECTRAL PEAKS>  (4826) 
43 18.09
53 11.4
55 30.17
67 19.64
69 23.52
77 16.68
79 32.45
80 24.44
81 60.21
82 10.1
83 99.99
91 20.78
92 11.97
93 31.76
94 10
95 17.86
105 11.4
107 13.9
109 10.78
119 9.24
121 31.87
123 11.1
135 10.88
136 12.35
139 50.57
145 34.75
163 33.75
188 9.76
206 57.26
207 9.07

$$$$

     RDKit          2D

 15 15  0  0  0  0  0  0  0  0999 V2000
    3.3491    0.2013    0.0000 C   0  0  0  0  0  0  0  0  0  0  0  0
    3.8978    2.2504    0.0000 C   0  0  0  0  0  0  0  0  0  0  0  0
   -3.1483    0.5487    0.0000 C   0  0  0  0  0  0  0  0  0  0  0  0
   -5.1972   -0.0006    0.0000 C   0  0  0  0  0  0  0  0  0  0  0  0
   -4.6479   -2.0496    0.0000 C   0  0  0  0  0  0  0  0  0  0  0  0
   -1.3000    0.7500    0.0000 C   0  0  0  0  0  0  0  0  0  0  0  0
    0.0000   -1.5000    0.0000 C   0  0  0  0  0  0  0  0  0  0  0  0
    0.0000    1.5000    0.0000 C   0  0  0  0  0  0  0  0  0  0  0  0
    1.3000   -0.7500    0.0000 C   0  0  0  0  0  0  0  0  0  0  0  0
   -2.5989   -1.5002    0.0000 C   0  0  0  0  0  0  0  0  0  0  0  0
   -1.3000   -0.7500    0.0000 C   0  0  0  0  0  0  0  0  0  0  0  0
    1.3000    0.7500    0.0000 C   0  0  0  0  0  0  0  0  0  0  0  0
    2.5989    1.5002    0.0000 C   0  0  0  0  0  0  0  0  0  0  0  0
    1.8487    2.7991    0.0000 O   0  0  0  0  0  0  0  0  0  0  0  0
   -3.8981   -0.7504    0.0000 Si  0  0  0  0  0  4  0  0  0  0  0  0
  8  6  1  0
  9  7  1  0
 11  6  2  0
 11  7  1  0
 11 10  1  0
 12  8  1  0
 12  9  1  0
 13  1  1  0
 13  2  1  0
 13 12  1  0
 14 13  1  0
 15  3  1  0
 15  4  1  0
 15  5  1  0
 15 10  1  0
M  END
>  <NAME>  (4827) 
2-(4-TRIMETHYLSILYLMETHYL-3-CYCLOHEXENYL)-2-PROPANOL

>  <SYNONYMS>  (4827) 


>  <SPECTRUM TYPE>  (4827) 
MS1

>  <INSTRUMENT TYPE>  (4827) 
EI-B

>  <INSTRUMENT>  (4827) 
JEOL JMS-D-3000

>  <ION MODE>  (4827) 
P

>  <INCHIKEY>  (4827) 
JKVMEKIYWAVPHZ-UHFFFAOYSA-N

>  <FORMULA>  (4827) 
C13H26OSi

>  <EXACT MASS>  (4827) 
226.175291982

>  <MW>  (4827) 
226

>  <ID>  (4827) 
JP004723

>  <CONTRIBUTOR>  (4827) 
University of Tokyo Team, {Faculty of Engineering, University of Tokyo

>  <COMMENT>  (4827) 
SMILES=CC(C)(O)C(C1)CC=C(C1)C[Si](C)(C)C
InChI=InChI=1S/C13H26OSi/c1-13(2,14)12-8-6-11(7-9-12)10-15(3,4)5/h6,12,14H,7-10H2,1-5H3
computed SMILES=OC(C)(C)C1CC=C(CC1)C[Si](C)(C)C
accession=JP004723
date=2016.01.19 (Created 2008.10.21, modified 2011.05.06)
author=MASS SPECTROSCOPY SOC. OF JAPAN (MSSJ)
license=CC BY-NC-SA
exact mass=226.17529
ionization energy=70 eV
ion type=[M]+*
computed spectral entropy=2.450653509931319
computed normalized entropy=0.7711176842032949
SPLASH=splash10-00di-9010000000-a42ca9fdbf78932f4aa2
submitter=submitter = University of Tokyo Team (Faculty of Engineering, University of Tokyo)
MoNA Rating=3.75

>  <NUM PEAKS>  (4827) 
24

>  <MASS SPECTRAL PEAKS>  (4827) 
42 2.57
43 5.28
45 7.99
59 12.87
69 3.52
71 2.71
73 99.99
74 11.24
75 16.26
77 4.74
79 4.33
91 5.28
92 7.72
93 18.97
94 5.14
121 2.71
134 6.5
135 2.71
149 2.84
193 3.11
208 25.74
209 5.14
211 2.84
226 5.28

$$$$

     RDKit          2D

 16 17  0  0  0  0  0  0  0  0999 V2000
   -1.4390   -5.5000    0.0000 C   0  0  0  0  0  0  0  0  0  0  0  0
    1.1596    3.0977    0.0000 C   0  0  0  0  0  0  0  0  0  0  0  0
    0.6112    5.1469    0.0000 C   0  0  0  0  0  0  0  0  0  0  0  0
   -1.4380    4.5985    0.0000 C   0  0  0  0  0  0  0  0  0  0  0  0
   -1.4400   -1.0000    0.0000 C   0  0  0  0  0  0  0  0  0  0  0  0
   -1.4400    0.5000    0.0000 C   0  0  0  0  0  0  0  0  0  0  0  0
    1.1600   -1.0000    0.0000 C   0  0  0  0  0  0  0  0  0  0  0  0
   -0.8896    2.5493    0.0000 C   0  0  0  0  0  0  0  0  0  0  0  0
   -0.1400   -1.7500    0.0000 C   0  0  0  0  0  0  0  0  0  0  0  0
    1.1600    0.5000    0.0000 C   0  0  0  0  0  0  0  0  0  0  0  0
   -0.1400   -3.2500    0.0000 C   0  0  0  0  0  0  0  0  0  0  0  0
   -0.1400    1.2500    0.0000 C   0  0  0  0  0  0  0  0  0  0  0  0
    1.1590   -4.0000    0.0000 O   0  0  0  0  0  0  0  0  0  0  0  0
   -1.4390   -4.0000    0.0000 O   0  0  0  0  0  0  0  0  0  0  0  0
    1.1600    2.0000    0.0000 O   0  0  0  0  0  0  0  0  0  0  0  0
   -0.1392    3.8481    0.0000 Si  0  0  0  0  0  4  0  0  0  0  0  0
  6  5  1  0
  9  5  1  0
  9  7  1  0
 10  7  1  0
 11  9  1  0
 12  6  1  0
 12  8  1  0
 12 10  1  0
 13 11  2  0
 14  1  1  0
 14 11  1  0
 15 10  1  0
 15 12  1  0
 16  2  1  0
 16  3  1  0
 16  4  1  0
 16  8  1  0
M  END
>  <NAME>  (4828) 
METHYL 3,4-EPOXY-4-TRIMETHYLSILYLMETHYLCYCLOHEXANECARBOXYLATE

>  <SYNONYMS>  (4828) 


>  <SPECTRUM TYPE>  (4828) 
MS1

>  <INSTRUMENT TYPE>  (4828) 
EI-B

>  <INSTRUMENT>  (4828) 
JEOL JMS-D-3000

>  <ION MODE>  (4828) 
P

>  <INCHIKEY>  (4828) 
ZRXHXHKQHYXCHY-UHFFFAOYSA-N

>  <FORMULA>  (4828) 
C12H22O3Si

>  <EXACT MASS>  (4828) 
242.13382109399998

>  <MW>  (4828) 
242

>  <ID>  (4828) 
JP004722

>  <CONTRIBUTOR>  (4828) 
University of Tokyo Team, {Faculty of Engineering, University of Tokyo

>  <COMMENT>  (4828) 
SMILES=COC(=O)C(C2)CC(O1)C(C2)(C[Si](C)(C)C)1
InChI=InChI=1S/C12H22O3Si/c1-14-11(13)9-5-6-12(8-16(2,3)4)10(7-9)15-12/h9-10H,5-8H2,1-4H3
computed SMILES=O=C(OC)C1CCC2(OC2C1)C[Si](C)(C)C
accession=JP004722
date=2016.01.19 (Created 2008.10.21, modified 2011.05.06)
author=MASS SPECTROSCOPY SOC. OF JAPAN (MSSJ)
license=CC BY-NC-SA
exact mass=242.13382
ionization energy=70 eV
ion type=[M]+*
computed spectral entropy=2.9386577491457393
computed normalized entropy=0.855756755676767
SPLASH=splash10-05c6-9300000000-a2470f8237378e321703
submitter=submitter = University of Tokyo Team (Faculty of Engineering, University of Tokyo)
MoNA Rating=3.75

>  <NUM PEAKS>  (4828) 
31

>  <MASS SPECTRAL PEAKS>  (4828) 
43 7.61
45 15.22
47 7.59
55 32.29
59 18.85
61 14.77
73 81.8
74 8.6
75 99.99
76 8.07
77 15.73
87 9.01
89 30.33
91 27.25
92 8.28
93 74.8
94 6.23
109 7.33
121 6.95
149 25.24
151 7.27
159 32.93
167 30.28
182 12.33
183 65.96
184 11.61
213 1.36
224 2.21
227 7.58
228 1.39
242 2.28

$$$$

     RDKit          2D

 21 23  0  0  0  0  0  0  0  0999 V2000
   -0.5490    5.0490    0.0000 C   0  0  0  0  0  0  0  0  0  0  0  0
   -2.5981    4.5000    0.0000 C   0  0  0  0  0  0  0  0  0  0  0  0
   -2.0490    2.4510    0.0000 C   0  0  0  0  0  0  0  0  0  0  0  0
    1.4772    2.7395    0.0000 C   0  0  0  0  0  0  0  0  0  0  0  0
    0.5130    4.4095    0.0000 C   0  0  0  0  0  0  0  0  0  0  0  0
    3.9000   -0.7500    0.0000 C   0  0  0  0  0  0  0  0  0  0  0  0
   -3.9000   -0.7500    0.0000 C   0  0  0  0  0  0  0  0  0  0  0  0
    3.9000    0.7500    0.0000 C   0  0  0  0  0  0  0  0  0  0  0  0
   -3.9000    0.7500    0.0000 C   0  0  0  0  0  0  0  0  0  0  0  0
    2.6000   -1.5000    0.0000 C   0  0  0  0  0  0  0  0  0  0  0  0
   -2.6000   -1.5000    0.0000 C   0  0  0  0  0  0  0  0  0  0  0  0
    2.6000    1.5000    0.0000 C   0  0  0  0  0  0  0  0  0  0  0  0
   -2.6000    1.5000    0.0000 C   0  0  0  0  0  0  0  0  0  0  0  0
   -0.0000   -1.5000    0.0000 C   0  0  0  0  0  0  0  0  0  0  0  0
    1.3000   -0.7500    0.0000 C   0  0  0  0  0  0  0  0  0  0  0  0
   -1.3000   -0.7500    0.0000 C   0  0  0  0  0  0  0  0  0  0  0  0
    1.3000    0.7500    0.0000 C   0  0  0  0  0  0  0  0  0  0  0  0
   -1.3000    0.7500    0.0000 C   0  0  0  0  0  0  0  0  0  0  0  0
   -0.0000    1.5000    0.0000 C   0  0  0  0  0  0  0  0  0  0  0  0
   -1.2990    3.7500    0.0000 Si  0  0  0  0  0  4  0  0  0  0  0  0
    0.0000    3.0000    0.0000 Si  0  0  0  0  0  4  0  0  0  0  0  0
  8  6  2  0
  9  7  1  0
 10  6  1  0
 11  7  2  0
 12  8  1  0
 13  9  2  0
 15 10  2  0
 15 14  1  0
 16 11  1  0
 16 14  2  0
 17 12  2  0
 17 15  1  0
 18 13  1  0
 18 16  1  0
 19 17  1  0
 19 18  2  0
 20  1  1  0
 20  2  1  0
 20  3  1  0
 21  4  1  0
 21  5  1  0
 21 19  1  0
 21 20  1  0
M  END
>  <NAME>  (4829) 
9-(PENTAMETHYLDISILANYL)ANTHRACENE

>  <SYNONYMS>  (4829) 
9-ANTHRYLPENTAMETHYLDISILANE

>  <SPECTRUM TYPE>  (4829) 
MS1

>  <INSTRUMENT TYPE>  (4829) 
EI-B

>  <INSTRUMENT>  (4829) 
JEOL JMS-D-3000

>  <ION MODE>  (4829) 
P

>  <INCHIKEY>  (4829) 
FHUHBAOZQYFCRI-UHFFFAOYSA-N

>  <FORMULA>  (4829) 
C19H24Si2

>  <EXACT MASS>  (4829) 
308.141653828

>  <MW>  (4829) 
308

>  <ID>  (4829) 
JP004721

>  <CONTRIBUTOR>  (4829) 
University of Tokyo Team, {Faculty of Engineering, University of Tokyo

>  <COMMENT>  (4829) 
SMILES=c(c3)cc(c1)c(c3)c(c(c2)c(ccc2)1)[Si](C)(C)[Si](C)(C)C
InChI=InChI=1S/C19H24Si2/c1-20(2,3)21(4,5)19-17-12-8-6-10-15(17)14-16-11-7-9-13-18(16)19/h6-14H,1-5H3
computed SMILES=C=1C=CC2=C(C1)C=C3C=CC=CC3=C2[Si](C)(C)[Si](C)(C)C
accession=JP004721
date=2016.01.19 (Created 2008.10.21, modified 2011.05.06)
author=MASS SPECTROSCOPY SOC. OF JAPAN (MSSJ)
license=CC BY-NC-SA
exact mass=308.14165
ionization energy=70 eV
ion type=[M]+*
computed spectral entropy=3.207962513187645
computed normalized entropy=0.7900523427752641
SPLASH=splash10-000i-2291000000-367bfb3ba73ec208e55c
submitter=submitter = University of Tokyo Team (Faculty of Engineering, University of Tokyo)
MoNA Rating=3.75

>  <NUM PEAKS>  (4829) 
58

>  <MASS SPECTRAL PEAKS>  (4829) 
43 4.27
45 6.97
47 1.7
53 1.79
59 2.82
63 1.19
73 19.56
74 2.1
75 14.27
76 4.88
77 2.13
88 2.09
89 3.72
117 1.03
150 1.32
151 2.11
152 2.79
165 2.6
176 3.36
177 2.18
178 18.02
179 4.73
180 3.33
181 1.29
189 1.8
191 3.37
192 1.6
193 1.4
195 1.06
202 1.79
203 2.03
204 2.37
205 5.95
206 1.63
207 2.46
208 3.8
209 1.23
217 7.1
218 3.13
219 10.05
220 7.14
221 1.85
231 1.97
232 1.62
233 7.76
234 4.36
235 99.99
236 24.09
237 7.09
249 2.13
250 3.89
251 1.29
277 1.63
293 4
294 1.3
308 21.6
309 7
310 2.59

$$$$

     RDKit          2D

 18 21  0  0  0  0  0  0  0  0999 V2000
   -1.3000    3.7500    0.0000 C   0  0  0  0  0  0  0  0  0  0  0  0
   -2.6000    3.0000    0.0000 C   0  0  0  0  0  0  0  0  0  0  0  0
    3.9000    0.7500    0.0000 C   0  0  0  0  0  0  0  0  0  0  0  0
    3.9000   -0.7500    0.0000 C   0  0  0  0  0  0  0  0  0  0  0  0
   -2.6000   -3.0000    0.0000 C   0  0  0  0  0  0  0  0  0  0  0  0
   -1.3000   -3.7500    0.0000 C   0  0  0  0  0  0  0  0  0  0  0  0
   -0.0000    3.0000    0.0000 C   0  0  0  0  0  0  0  0  0  0  0  0
   -2.6000    1.5000    0.0000 C   0  0  0  0  0  0  0  0  0  0  0  0
    2.6000    1.5000    0.0000 C   0  0  0  0  0  0  0  0  0  0  0  0
   -2.6000   -1.5000    0.0000 C   0  0  0  0  0  0  0  0  0  0  0  0
    2.6000   -1.5000    0.0000 C   0  0  0  0  0  0  0  0  0  0  0  0
   -0.0000   -3.0000    0.0000 C   0  0  0  0  0  0  0  0  0  0  0  0
   -0.0000    1.5000    0.0000 C   0  0  0  0  0  0  0  0  0  0  0  0
   -1.3000    0.7500    0.0000 C   0  0  0  0  0  0  0  0  0  0  0  0
    1.3000    0.7500    0.0000 C   0  0  0  0  0  0  0  0  0  0  0  0
   -1.3000   -0.7500    0.0000 C   0  0  0  0  0  0  0  0  0  0  0  0
    1.3000   -0.7500    0.0000 C   0  0  0  0  0  0  0  0  0  0  0  0
   -0.0000   -1.5000    0.0000 C   0  0  0  0  0  0  0  0  0  0  0  0
  2  1  2  0
  4  3  2  0
  6  5  2  0
  7  1  1  0
  8  2  1  0
  9  3  1  0
 10  5  1  0
 11  4  1  0
 12  6  1  0
 13  7  2  0
 14  8  2  0
 14 13  1  0
 15  9  2  0
 15 13  1  0
 16 10  2  0
 16 14  1  0
 17 11  2  0
 17 15  1  0
 18 12  2  0
 18 16  1  0
 18 17  1  0
M  END
>  <NAME>  (4830) 
TRIPHENYLENE

>  <SYNONYMS>  (4830) 


>  <SPECTRUM TYPE>  (4830) 
MS1

>  <INSTRUMENT TYPE>  (4830) 
EI-B

>  <INSTRUMENT>  (4830) 
JEOL JMS-D-3000

>  <ION MODE>  (4830) 
P

>  <INCHIKEY>  (4830) 
SLGBZMMZGDRARJ-UHFFFAOYSA-N

>  <FORMULA>  (4830) 
C18H12

>  <EXACT MASS>  (4830) 
228.093900384

>  <MW>  (4830) 
228

>  <ID>  (4830) 
JP004720

>  <CONTRIBUTOR>  (4830) 
University of Tokyo Team, {Faculty of Engineering, University of Tokyo

>  <COMMENT>  (4830) 
SMILES=c(c4)cc(c(c4)1)c(c3)c(ccc3)c(c2)c(ccc2)1
cas=217-59-4
InChI=InChI=1S/C18H12/c1-2-8-14-13(7-1)15-9-3-4-11-17(15)18-12-6-5-10-16(14)18/h1-12H
computed SMILES=C=1C=CC=2C(C1)=C3C=CC=CC3=C4C=CC=CC24
accession=JP004720
date=2016.01.19 (Created 2008.10.21, modified 2011.05.06)
author=MASS SPECTROSCOPY SOC. OF JAPAN (MSSJ)
license=CC BY-NC-SA
exact mass=228.0939
ionization energy=70 eV
ion type=[M]+*
computed spectral entropy=2.2648290364472237
computed normalized entropy=0.7327071920304948
SPLASH=splash10-004i-0390000000-1cbe3a83291fbe590abb
submitter=submitter = University of Tokyo Team (Faculty of Engineering, University of Tokyo)
MoNA Rating=3.75

>  <NUM PEAKS>  (4830) 
22

>  <MASS SPECTRAL PEAKS>  (4830) 
75 1.34
87 1.89
88 2.88
99 1.52
100 7.22
101 8.76
102 1.46
112 9.26
113 22.94
114 18.69
115 3.28
200 3.18
201 1.76
202 2.7
223 1.08
224 6.14
225 4.78
226 27.09
227 12.69
228 99.99
229 19.88
230 1.99

$$$$

     RDKit          2D

 14 16  0  0  0  0  0  0  0  0999 V2000
    3.0600    2.2000    0.0000 C   0  0  0  0  0  0  0  0  0  0  0  0
   -3.4300   -1.5500    0.0000 C   0  0  0  0  0  0  0  0  0  0  0  0
    1.7600    2.9500    0.0000 C   0  0  0  0  0  0  0  0  0  0  0  0
   -3.4300   -0.0500    0.0000 C   0  0  0  0  0  0  0  0  0  0  0  0
    3.0600    0.7000    0.0000 C   0  0  0  0  0  0  0  0  0  0  0  0
   -2.1300   -2.3000    0.0000 C   0  0  0  0  0  0  0  0  0  0  0  0
    0.4600    2.2000    0.0000 C   0  0  0  0  0  0  0  0  0  0  0  0
   -2.1300    0.7000    0.0000 C   0  0  0  0  0  0  0  0  0  0  0  0
    1.7600   -1.5500    0.0000 C   0  0  0  0  0  0  0  0  0  0  0  0
    0.4600   -2.3000    0.0000 C   0  0  0  0  0  0  0  0  0  0  0  0
    1.7600   -0.0500    0.0000 C   0  0  0  0  0  0  0  0  0  0  0  0
   -0.8300   -1.5500    0.0000 C   0  0  0  0  0  0  0  0  0  0  0  0
    0.4600    0.7000    0.0000 C   0  0  0  0  0  0  0  0  0  0  0  0
   -0.8300   -0.0500    0.0000 C   0  0  0  0  0  0  0  0  0  0  0  0
  3  1  2  0
  4  2  2  0
  5  1  1  0
  6  2  1  0
  7  3  1  0
  8  4  1  0
 10  9  2  0
 11  5  2  0
 11  9  1  0
 12  6  2  0
 12 10  1  0
 13  7  2  0
 13 11  1  0
 14  8  2  0
 14 12  1  0
 14 13  1  0
M  END
>  <NAME>  (4831) 
PHENANTHRENE

>  <SYNONYMS>  (4831) 


>  <SPECTRUM TYPE>  (4831) 
MS1

>  <INSTRUMENT TYPE>  (4831) 
EI-B

>  <INSTRUMENT>  (4831) 
JEOL JMS-D-3000

>  <ION MODE>  (4831) 
P

>  <INCHIKEY>  (4831) 
YNPNZTXNASCQKK-UHFFFAOYSA-N

>  <FORMULA>  (4831) 
C14H10

>  <EXACT MASS>  (4831) 
178.07825032

>  <MW>  (4831) 
178

>  <ID>  (4831) 
JP004719

>  <CONTRIBUTOR>  (4831) 
University of Tokyo Team, {Faculty of Engineering, University of Tokyo

>  <COMMENT>  (4831) 
SMILES=c(c3)cc(c1)c(c3)c(c2)c(ccc2)c1
cas=85-01-8
InChI=InChI=1S/C14H10/c1-3-7-13-11(5-1)9-10-12-6-2-4-8-14(12)13/h1-10H
computed SMILES=C=1C=CC2=C(C1)C=CC=3C=CC=CC32
accession=JP004719
date=2016.01.19 (Created 2008.10.21, modified 2011.05.06)
author=MASS SPECTROSCOPY SOC. OF JAPAN (MSSJ)
license=CC BY-NC-SA
exact mass=178.07825
ionization energy=70 eV
ion type=[M]+*
computed spectral entropy=2.0996877248137307
computed normalized entropy=0.6896607818675814
SPLASH=splash10-004i-2900000000-07a5e1d9cbbd4196ce30
submitter=submitter = University of Tokyo Team (Faculty of Engineering, University of Tokyo)
MoNA Rating=3.75

>  <NUM PEAKS>  (4831) 
21

>  <MASS SPECTRAL PEAKS>  (4831) 
63 2.7
74 1.25
75 3.57
76 12.66
77 1.33
87 1.87
88 10.11
89 13.28
90 1.92
119 2.81
126 1.09
150 3.53
151 6.29
152 5.93
174 1.62
175 2.29
176 15.53
177 9.89
178 99.99
179 15.96
180 1.23

$$$$

     RDKit          2D

 13 15  0  0  0  0  0  0  0  0999 V2000
    3.6900    0.1600    0.0000 C   0  0  0  0  0  0  0  0  0  0  0  0
   -3.6800    0.1600    0.0000 C   0  0  0  0  0  0  0  0  0  0  0  0
    3.2200   -1.2700    0.0000 C   0  0  0  0  0  0  0  0  0  0  0  0
   -3.2200   -1.2700    0.0000 C   0  0  0  0  0  0  0  0  0  0  0  0
    2.6800    1.2700    0.0000 C   0  0  0  0  0  0  0  0  0  0  0  0
   -2.6800    1.2700    0.0000 C   0  0  0  0  0  0  0  0  0  0  0  0
    1.7500   -1.5800    0.0000 C   0  0  0  0  0  0  0  0  0  0  0  0
   -1.7500   -1.5800    0.0000 C   0  0  0  0  0  0  0  0  0  0  0  0
   -0.0000    1.8400    0.0000 C   0  0  0  0  0  0  0  0  0  0  0  0
    1.2100    0.9600    0.0000 C   0  0  0  0  0  0  0  0  0  0  0  0
   -1.2100    0.9600    0.0000 C   0  0  0  0  0  0  0  0  0  0  0  0
    0.7500   -0.4700    0.0000 C   0  0  0  0  0  0  0  0  0  0  0  0
   -0.7500   -0.4700    0.0000 C   0  0  0  0  0  0  0  0  0  0  0  0
  3  1  2  0
  4  2  2  0
  5  1  1  0
  6  2  1  0
  7  3  1  0
  8  4  1  0
 10  5  2  0
 10  9  1  0
 11  6  2  0
 11  9  1  0
 12  7  2  0
 12 10  1  0
 13  8  2  0
 13 11  1  0
 13 12  1  0
M  END
>  <NAME>  (4832) 
FLUORENE

>  <SYNONYMS>  (4832) 
2,3-BENZOINDENE

>  <SPECTRUM TYPE>  (4832) 
MS1

>  <INSTRUMENT TYPE>  (4832) 
EI-B

>  <INSTRUMENT>  (4832) 
JEOL JMS-D-3000

>  <ION MODE>  (4832) 
P

>  <INCHIKEY>  (4832) 
NIHNNTQXNPWCJQ-UHFFFAOYSA-N

>  <FORMULA>  (4832) 
C13H10

>  <EXACT MASS>  (4832) 
166.07825032

>  <MW>  (4832) 
166

>  <ID>  (4832) 
JP004718

>  <CONTRIBUTOR>  (4832) 
University of Tokyo Team, {Faculty of Engineering, University of Tokyo

>  <COMMENT>  (4832) 
SMILES=c(c3)cc(C1)c(c3)c(c2)c(ccc2)1
InChI=InChI=1S/C13H10/c1-3-7-12-10(5-1)9-11-6-2-4-8-13(11)12/h1-8H,9H2
computed SMILES=C=1C=CC2=C(C1)C=3C=CC=CC3C2
accession=JP004718
date=2016.01.19 (Created 2008.10.21, modified 2011.05.06)
author=MASS SPECTROSCOPY SOC. OF JAPAN (MSSJ)
license=CC BY-NC-SA
exact mass=166.07825
ionization energy=70 eV
ion type=[M]+*
computed spectral entropy=2.0588495508323095
computed normalized entropy=0.647833441703188
SPLASH=splash10-014i-2900000000-f04939dbad3d225fb7c9
submitter=submitter = University of Tokyo Team (Faculty of Engineering, University of Tokyo)
MoNA Rating=3.75

>  <NUM PEAKS>  (4832) 
24

>  <MASS SPECTRAL PEAKS>  (4832) 
51 1.03
62 1.17
63 3.06
69 7.09
70 1.07
74 1.12
75 1.03
76 1.01
81 6.89
82 18.66
83 13.34
86 1.12
87 1.57
89 1.51
113 1.08
115 3.03
139 5.23
162 1.63
163 12.94
164 10.32
165 83.32
166 99.99
167 13.91
168 1.11

$$$$

     RDKit          2D

 10 10  0  0  0  0  0  0  0  0999 V2000
    2.5989    1.5002    0.0000 C   0  0  0  0  0  0  0  0  0  0  0  0
    2.5989   -1.5002    0.0000 C   0  0  0  0  0  0  0  0  0  0  0  0
   -2.5989    1.5002    0.0000 C   0  0  0  0  0  0  0  0  0  0  0  0
   -2.5989   -1.5002    0.0000 C   0  0  0  0  0  0  0  0  0  0  0  0
    0.0000    1.5000    0.0000 C   0  0  0  0  0  0  0  0  0  0  0  0
   -0.0000   -1.5000    0.0000 C   0  0  0  0  0  0  0  0  0  0  0  0
    1.3000    0.7500    0.0000 C   0  0  0  0  0  0  0  0  0  0  0  0
    1.3000   -0.7500    0.0000 C   0  0  0  0  0  0  0  0  0  0  0  0
   -1.3000    0.7500    0.0000 C   0  0  0  0  0  0  0  0  0  0  0  0
   -1.3000   -0.7500    0.0000 C   0  0  0  0  0  0  0  0  0  0  0  0
  7  1  1  0
  7  5  2  0
  8  2  1  0
  8  6  2  0
  8  7  1  0
  9  3  1  0
  9  5  1  0
 10  4  1  0
 10  6  1  0
 10  9  2  0
M  END
>  <NAME>  (4833) 
1,2,4,5-TETRAMETHYLBENZENE

>  <SYNONYMS>  (4833) 
DURENE

>  <SPECTRUM TYPE>  (4833) 
MS1

>  <INSTRUMENT TYPE>  (4833) 
EI-B

>  <INSTRUMENT>  (4833) 
JEOL JMS-D-3000

>  <ION MODE>  (4833) 
P

>  <INCHIKEY>  (4833) 
SQNZJJAZBFDUTD-UHFFFAOYSA-N

>  <FORMULA>  (4833) 
C10H14

>  <EXACT MASS>  (4833) 
134.109550448

>  <MW>  (4833) 
134

>  <ID>  (4833) 
JP004716

>  <CONTRIBUTOR>  (4833) 
University of Tokyo Team, {Faculty of Engineering, University of Tokyo

>  <COMMENT>  (4833) 
SMILES=Cc(c1)c(C)cc(C)c(C)1
cas=95-93-2
InChI=InChI=1S/C10H14/c1-7-5-9(3)10(4)6-8(7)2/h5-6H,1-4H3
computed SMILES=C=1C(=C(C=C(C1C)C)C)C
accession=JP004716
date=2016.01.19 (Created 2008.10.21, modified 2011.05.06)
author=MASS SPECTROSCOPY SOC. OF JAPAN (MSSJ)
license=CC BY-NC-SA
exact mass=134.10955
ionization energy=70 eV
ion type=[M]+*
computed spectral entropy=2.229209860516243
computed normalized entropy=0.6620178247080826
SPLASH=splash10-0159-2900000000-c5e275a652f2792c1cad
submitter=submitter = University of Tokyo Team (Faculty of Engineering, University of Tokyo)
MoNA Rating=3.75

>  <NUM PEAKS>  (4833) 
29

>  <MASS SPECTRAL PEAKS>  (4833) 
50 1.09
51 3.58
52 1.34
53 2.76
57 1.1
58 1.17
63 2.11
64 2.28
65 5.36
66 2.77
67 1.54
77 6.11
78 1.57
79 2.53
91 11.32
92 1.17
93 1.34
103 2.87
104 1.75
105 3.1
115 4.86
116 2.1
117 6.08
118 2.3
119 99.99
120 10.04
133 12.67
134 64.76
135 7.2

$$$$

     RDKit          2D

 10 11  0  0  0  0  0  0  0  0999 V2000
   -2.6000   -0.7500    0.0000 C   0  0  0  0  0  0  0  0  0  0  0  0
   -2.6000    0.7500    0.0000 C   0  0  0  0  0  0  0  0  0  0  0  0
    2.6000   -0.7500    0.0000 C   0  0  0  0  0  0  0  0  0  0  0  0
    2.6000    0.7500    0.0000 C   0  0  0  0  0  0  0  0  0  0  0  0
   -1.3000   -1.5000    0.0000 C   0  0  0  0  0  0  0  0  0  0  0  0
   -1.3000    1.5000    0.0000 C   0  0  0  0  0  0  0  0  0  0  0  0
    1.3000   -1.5000    0.0000 C   0  0  0  0  0  0  0  0  0  0  0  0
    1.3000    1.5000    0.0000 C   0  0  0  0  0  0  0  0  0  0  0  0
    0.0000   -0.7500    0.0000 C   0  0  0  0  0  0  0  0  0  0  0  0
    0.0000    0.7500    0.0000 C   0  0  0  0  0  0  0  0  0  0  0  0
  2  1  2  0
  4  3  1  0
  5  1  1  0
  6  2  1  0
  7  3  2  0
  8  4  2  0
  9  5  2  0
  9  7  1  0
 10  6  2  0
 10  8  1  0
 10  9  1  0
M  END
>  <NAME>  (4834) 
NAPHTHALENE

>  <SYNONYMS>  (4834) 


>  <SPECTRUM TYPE>  (4834) 
MS1

>  <INSTRUMENT TYPE>  (4834) 
EI-B

>  <INSTRUMENT>  (4834) 
JEOL JMS-D-3000

>  <ION MODE>  (4834) 
P

>  <INCHIKEY>  (4834) 
UFWIBTONFRDIAS-UHFFFAOYSA-N

>  <FORMULA>  (4834) 
C10H8

>  <EXACT MASS>  (4834) 
128.062600256

>  <MW>  (4834) 
128

>  <ID>  (4834) 
JP004715

>  <CONTRIBUTOR>  (4834) 
University of Tokyo Team, {Faculty of Engineering, University of Tokyo

>  <COMMENT>  (4834) 
SMILES=c(c2)cc(c1)c(c2)ccc1
cas=91-20-3
InChI=InChI=1S/C10H8/c1-2-6-10-8-4-3-7-9(10)5-1/h1-8H
computed SMILES=C=1C=CC=2C=CC=CC2C1
accession=JP004715
date=2016.01.19 (Created 2008.10.21, modified 2011.05.06)
author=MASS SPECTROSCOPY SOC. OF JAPAN (MSSJ)
license=CC BY-NC-SA
exact mass=128.0626
ionization energy=70 eV
ion type=[M]+*
computed spectral entropy=1.8746985133942278
computed normalized entropy=0.64860117328256
SPLASH=splash10-004i-3900000000-0e32d0a2d4bb6373bea3
submitter=submitter = University of Tokyo Team (Faculty of Engineering, University of Tokyo)
MoNA Rating=3.75

>  <NUM PEAKS>  (4834) 
18

>  <MASS SPECTRAL PEAKS>  (4834) 
50 2.74
51 10.07
62 1.32
63 6.14
64 10.84
65 1.11
74 2.69
75 3.33
76 2.54
77 3.88
78 2.37
87 1.01
101 2.46
102 5.54
126 5.92
127 12.07
128 99.99
129 10.92

$$$$

     RDKit          2D

  9  9  0  0  0  0  0  0  0  0999 V2000
   -3.5724    2.0075    0.0000 C   0  0  0  0  0  0  0  0  0  0  0  0
   -2.2733    1.2575    0.0000 C   0  0  0  0  0  0  0  0  0  0  0  0
    2.9228   -0.2425    0.0000 C   0  0  0  0  0  0  0  0  0  0  0  0
    2.9233    1.2583    0.0000 C   0  0  0  0  0  0  0  0  0  0  0  0
    1.6233   -0.9933    0.0000 C   0  0  0  0  0  0  0  0  0  0  0  0
   -0.9743    2.0075    0.0000 C   0  0  0  0  0  0  0  0  0  0  0  0
    1.6243    2.0083    0.0000 C   0  0  0  0  0  0  0  0  0  0  0  0
    0.3243   -0.2433    0.0000 C   0  0  0  0  0  0  0  0  0  0  0  0
    0.3248    1.2575    0.0000 C   0  0  0  0  0  0  0  0  0  0  0  0
  2  1  2  0
  4  3  2  0
  5  3  1  0
  6  2  1  0
  7  4  1  0
  8  5  2  0
  9  6  1  0
  9  7  2  0
  9  8  1  0
M  END
>  <NAME>  (4835) 
ALLYLBENZENE

>  <SYNONYMS>  (4835) 


>  <SPECTRUM TYPE>  (4835) 
MS1

>  <INSTRUMENT TYPE>  (4835) 
EI-B

>  <INSTRUMENT>  (4835) 
JEOL JMS-D-3000

>  <ION MODE>  (4835) 
P

>  <INCHIKEY>  (4835) 
HJWLCRVIBGQPNF-UHFFFAOYSA-N

>  <FORMULA>  (4835) 
C9H10

>  <EXACT MASS>  (4835) 
118.07825032

>  <MW>  (4835) 
118

>  <ID>  (4835) 
JP004714

>  <CONTRIBUTOR>  (4835) 
University of Tokyo Team, {Faculty of Engineering, University of Tokyo

>  <COMMENT>  (4835) 
SMILES=C=CCc(c1)cccc1
cas=300-57-2
InChI=InChI=1S/C9H10/c1-2-6-9-7-4-3-5-8-9/h2-5,7-8H,1,6H2
computed SMILES=C=CCC=1C=CC=CC1
accession=JP004714
date=2016.01.19 (Created 2008.10.21, modified 2011.05.06)
author=MASS SPECTROSCOPY SOC. OF JAPAN (MSSJ)
license=CC BY-NC-SA
exact mass=118.07825
ionization energy=70 eV
ion type=[M]+*
computed spectral entropy=2.2627952734847216
computed normalized entropy=0.7029768765862142
SPLASH=splash10-014i-3900000000-77b3ba66c4073c4892cb
submitter=submitter = University of Tokyo Team (Faculty of Engineering, University of Tokyo)
MoNA Rating=3.75

>  <NUM PEAKS>  (4835) 
25

>  <MASS SPECTRAL PEAKS>  (4835) 
50 3.43
51 8.45
52 2.14
57 1.4
58 6.79
62 1.98
63 5.6
64 1.3
65 9.85
74 1.23
75 1.16
76 1.1
77 5.17
78 6.22
89 4.65
90 2.31
91 33.91
92 3.16
102 1.57
103 7.93
115 27.1
116 7.42
117 99.99
118 82.97
119 8.02

$$$$

     RDKit          2D

  8  8  0  0  0  0  0  0  0  0999 V2000
   -0.0005    1.5008    0.0000 C   0  0  0  0  0  0  0  0  0  0  0  0
   -1.2995    0.7508    0.0000 C   0  0  0  0  0  0  0  0  0  0  0  0
    1.2995   -0.7508    0.0000 C   0  0  0  0  0  0  0  0  0  0  0  0
    0.0005   -1.5008    0.0000 C   0  0  0  0  0  0  0  0  0  0  0  0
    1.2990    0.7500    0.0000 C   0  0  0  0  0  0  0  0  0  0  0  0
   -1.2990   -0.7500    0.0000 C   0  0  0  0  0  0  0  0  0  0  0  0
    2.5981    1.5000    0.0000 O   0  0  0  0  0  0  0  0  0  0  0  0
   -2.5981   -1.5000    0.0000 O   0  0  0  0  0  0  0  0  0  0  0  0
  2  1  2  0
  4  3  2  0
  5  1  1  0
  5  3  1  0
  6  2  1  0
  6  4  1  0
  7  5  2  0
  8  6  2  0
M  END
>  <NAME>  (4836) 
1,4-BENZOQUINONE

>  <SYNONYMS>  (4836) 
2,5-CYCLOHEXADIENE-1,4-DIONE

>  <SPECTRUM TYPE>  (4836) 
MS1

>  <INSTRUMENT TYPE>  (4836) 
EI-B

>  <INSTRUMENT>  (4836) 
JEOL JMS-D-3000

>  <ION MODE>  (4836) 
P

>  <INCHIKEY>  (4836) 
AZQWKYJCGOJGHM-UHFFFAOYSA-N

>  <FORMULA>  (4836) 
C6H4O2

>  <EXACT MASS>  (4836) 
108.021129368

>  <MW>  (4836) 
108

>  <ID>  (4836) 
JP004713

>  <CONTRIBUTOR>  (4836) 
University of Tokyo Team, {Faculty of Engineering, University of Tokyo

>  <COMMENT>  (4836) 
SMILES=[H]c(c([H])1)c(=O)c([H])c([H])c(=O)1
cas=106-51-4
InChI=InChI=1S/C6H4O2/c7-5-1-2-6(8)4-3-5/h1-4H
computed SMILES=O=C1C=CC(=O)C=C1
accession=JP004713
date=2016.01.19 (Created 2008.10.21, modified 2011.05.06)
author=MASS SPECTROSCOPY SOC. OF JAPAN (MSSJ)
license=CC BY-NC-SA
exact mass=108.02113
ionization energy=70 eV
ion type=[M]+*
computed spectral entropy=1.9635631419957054
computed normalized entropy=0.6930516355625158
SPLASH=splash10-0zgi-9500000000-c8bfbbc465fad7929f87
submitter=submitter = University of Tokyo Team (Faculty of Engineering, University of Tokyo)
MoNA Rating=3.75

>  <NUM PEAKS>  (4836) 
17

>  <MASS SPECTRAL PEAKS>  (4836) 
49 2.15
50 4.89
51 3.94
52 16.25
53 14.28
54 69.78
55 3.16
61 2.04
62 1.68
63 1.03
80 27.63
81 1.85
82 33.67
83 1.55
108 99.99
109 6.93
110 1.8

$$$$

     RDKit          2D

  7  6  0  0  0  0  0  0  0  0999 V2000
    1.2545    2.3272    0.0000 C   0  0  0  0  0  0  0  0  0  0  0  0
   -3.9417    2.3272    0.0000 C   0  0  0  0  0  0  0  0  0  0  0  0
   -2.3078    1.1781    0.0000 C   0  0  0  0  0  0  0  0  0  0  0  0
   -0.3794    1.1781    0.0000 C   0  0  0  0  0  0  0  0  0  0  0  0
   -0.0445    3.0772    0.0000 O   0  0  0  0  0  0  0  0  0  0  0  0
   -2.6426    3.0772    0.0000 O   0  0  0  0  0  0  0  0  0  0  0  0
   -1.3436    2.3272    0.0000 Si  0  0  0  0  0  4  0  0  0  0  0  0
  5  1  1  0
  6  2  1  0
  7  3  1  0
  7  4  1  0
  7  5  1  0
  7  6  1  0
M  END
>  <NAME>  (4837) 
DIMETHOXYDIMETHYLSILANE

>  <SYNONYMS>  (4837) 


>  <SPECTRUM TYPE>  (4837) 
MS1

>  <INSTRUMENT TYPE>  (4837) 
EI-B

>  <INSTRUMENT>  (4837) 
JEOL JMS-D-3000

>  <ION MODE>  (4837) 
P

>  <INCHIKEY>  (4837) 
JJQZDUKDJDQPMQ-UHFFFAOYSA-N

>  <FORMULA>  (4837) 
C4H12O2Si

>  <EXACT MASS>  (4837) 
120.060656154

>  <MW>  (4837) 
120

>  <ID>  (4837) 
JP004712

>  <CONTRIBUTOR>  (4837) 
University of Tokyo Team, {Faculty of Engineering, University of Tokyo

>  <COMMENT>  (4837) 
SMILES=CO[Si](C)(C)OC
cas=1112-39-6
InChI=InChI=1S/C4H12O2Si/c1-5-7(3,4)6-2/h1-4H3
computed SMILES=O(C)[Si](OC)(C)C
accession=JP004712
date=2016.01.19 (Created 2008.10.21, modified 2011.05.06)
author=MASS SPECTROSCOPY SOC. OF JAPAN (MSSJ)
license=CC BY-NC-SA
exact mass=120.06066
ionization energy=70 eV
ion type=[M]+*
computed spectral entropy=1.5233551739967535
computed normalized entropy=0.5772345893746991
SPLASH=splash10-0a4i-6900000000-9adc793b1472ee3f147c
submitter=submitter = University of Tokyo Team (Faculty of Engineering, University of Tokyo)
MoNA Rating=3.75

>  <NUM PEAKS>  (4837) 
14

>  <MASS SPECTRAL PEAKS>  (4837) 
43 2.86
52 1.37
59 2.53
61 3.3
73 2.69
75 49.41
76 3.9
77 2.32
78 3.81
89 5.05
105 99.99
106 8.76
107 4.21
120 0.5

$$$$

     RDKit          2D

 24 24  0  0  0  0  0  0  0  0999 V2000
    1.7147   -5.0099    0.0000 C   0  0  0  0  0  0  0  0  0  0  0  0
    3.0137   -2.7599    0.0000 C   0  0  0  0  0  0  0  0  0  0  0  0
    1.9157    3.2401    0.0000 C   0  0  0  0  0  0  0  0  0  0  0  0
    0.4157    4.7401    0.0000 C   0  0  0  0  0  0  0  0  0  0  0  0
   -1.0843    3.2401    0.0000 C   0  0  0  0  0  0  0  0  0  0  0  0
   -3.3491   -0.2013    0.0000 C   0  0  0  0  0  0  0  0  0  0  0  0
   -3.8978   -2.2504    0.0000 C   0  0  0  0  0  0  0  0  0  0  0  0
   -1.8487   -2.7991    0.0000 C   0  0  0  0  0  0  0  0  0  0  0  0
    2.2644   -2.5591    0.0000 C   0  0  0  0  0  0  0  0  0  0  0  0
    4.3135   -2.0103    0.0000 C   0  0  0  0  0  0  0  0  0  0  0  0
    3.7648    0.0388    0.0000 C   0  0  0  0  0  0  0  0  0  0  0  0
   -0.8843    0.9901    0.0000 C   0  0  0  0  0  0  0  0  0  0  0  0
    1.7157    0.9901    0.0000 C   0  0  0  0  0  0  0  0  0  0  0  0
    1.7147   -3.5099    0.0000 C   0  0  0  0  0  0  0  0  0  0  0  0
    0.4157    1.7401    0.0000 C   0  0  0  0  0  0  0  0  0  0  0  0
   -0.8843   -0.5099    0.0000 C   0  0  0  0  0  0  0  0  0  0  0  0
    1.7157   -0.5099    0.0000 C   0  0  0  0  0  0  0  0  0  0  0  0
    0.4157   -1.2599    0.0000 C   0  0  0  0  0  0  0  0  0  0  0  0
    0.4157    3.2401    0.0000 C   0  0  0  0  0  0  0  0  0  0  0  0
   -2.5989   -1.5002    0.0000 C   0  0  0  0  0  0  0  0  0  0  0  0
    3.0146   -1.2601    0.0000 C   0  0  0  0  0  0  0  0  0  0  0  0
   -1.0616   -2.4995    0.0000 F   0  0  0  0  0  0  0  0  0  0  0  0
   -0.0974   -4.1695    0.0000 O   0  0  0  0  0  0  0  0  0  0  0  0
    0.4157   -2.7599    0.0000 Si  0  0  0  0  0  4  0  0  0  0  0  0
 14  1  1  0
 14  2  1  0
 15 12  2  0
 15 13  1  0
 16 12  1  0
 17 13  2  0
 18 16  2  0
 18 17  1  0
 19  3  1  0
 19  4  1  0
 19  5  1  0
 19 15  1  0
 20  6  1  0
 20  7  1  0
 20  8  1  0
 20 16  1  0
 21  9  1  0
 21 10  1  0
 21 11  1  0
 21 17  1  0
 24 14  1  0
 24 18  1  0
 24 22  1  0
 24 23  1  0
M  END
>  <NAME>  (4838) 
FLUOROISOPROPYL(2,4,6-TRI-TERT-BUTYLPHENYL)SILANOL

>  <SYNONYMS>  (4838) 


>  <SPECTRUM TYPE>  (4838) 
MS1

>  <INSTRUMENT TYPE>  (4838) 
EI-B

>  <INSTRUMENT>  (4838) 
JEOL JMS-D-3000

>  <ION MODE>  (4838) 
P

>  <INCHIKEY>  (4838) 
CHNRYWBDALCSCB-UHFFFAOYSA-N

>  <FORMULA>  (4838) 
C21H37FOSi

>  <EXACT MASS>  (4838) 
352.259770554

>  <MW>  (4838) 
352

>  <ID>  (4838) 
JP004711

>  <CONTRIBUTOR>  (4838) 
University of Tokyo Team, {Faculty of Engineering, University of Tokyo

>  <COMMENT>  (4838) 
SMILES=CC(C)(C)c(c1)cc(C(C)(C)C)c(c1C(C)(C)C)[Si](O)(F)C(C)C
InChI=InChI=1S/C21H37FOSi/c1-14(2)24(22,23)18-16(20(6,7)8)12-15(19(3,4)5)13-17(18)21(9,10)11/h12-14,23H,1-11H3
computed SMILES=F[Si](O)(C=1C(=CC(=CC1C(C)(C)C)C(C)(C)C)C(C)(C)C)C(C)C
accession=JP004711
date=2016.01.19 (Created 2008.10.21, modified 2011.05.06)
author=MASS SPECTROSCOPY SOC. OF JAPAN (MSSJ)
license=CC BY-NC-SA
exact mass=352.25977
ionization energy=70 eV
ion type=[M]+*
computed spectral entropy=2.4685190254862976
computed normalized entropy=0.6738030539472848
SPLASH=splash10-053r-5190000000-e5a9b6ee2cc13719a295
submitter=submitter = University of Tokyo Team (Faculty of Engineering, University of Tokyo)
MoNA Rating=3.75

>  <NUM PEAKS>  (4838) 
39

>  <MASS SPECTRAL PEAKS>  (4838) 
43 4.02
55 2.41
57 62.03
58 2.88
63 1.19
65 1.25
77 8.25
79 23.33
80 1.36
91 2.33
105 1.17
107 1.99
115 1.55
117 1.39
128 2.31
129 1.72
131 2.19
138 2.04
141 1.15
143 1.18
157 1.01
173 1.46
175 1.05
189 1.19
215 1.76
229 1.28
235 1.7
253 7.42
254 1.59
281 99.99
282 23.54
283 6.31
291 8.47
292 2.16
296 11.16
297 2.75
309 2.45
337 1.25
352 1.74

$$$$

     RDKit          2D

 22 22  0  0  0  0  0  0  0  0999 V2000
   -2.3677    3.2191    0.0000 C   0  0  0  0  0  0  0  0  0  0  0  0
   -4.4167    2.6701    0.0000 C   0  0  0  0  0  0  0  0  0  0  0  0
   -3.8677    0.6210    0.0000 C   0  0  0  0  0  0  0  0  0  0  0  0
   -2.0198   -2.5810    0.0000 C   0  0  0  0  0  0  0  0  0  0  0  0
   -0.5196   -4.0807    0.0000 C   0  0  0  0  0  0  0  0  0  0  0  0
    0.9802   -2.5805    0.0000 C   0  0  0  0  0  0  0  0  0  0  0  0
    3.2446    0.8615    0.0000 C   0  0  0  0  0  0  0  0  0  0  0  0
    3.7940    2.9104    0.0000 C   0  0  0  0  0  0  0  0  0  0  0  0
    1.7450    3.4598    0.0000 C   0  0  0  0  0  0  0  0  0  0  0  0
    1.7442   -2.6190    0.0000 C   0  0  0  0  0  0  0  0  0  0  0  0
   -1.8191   -0.3307    0.0000 C   0  0  0  0  0  0  0  0  0  0  0  0
   -0.5191    1.9209    0.0000 C   0  0  0  0  0  0  0  0  0  0  0  0
   -1.8186    1.1701    0.0000 C   0  0  0  0  0  0  0  0  0  0  0  0
   -0.5201   -1.0807    0.0000 C   0  0  0  0  0  0  0  0  0  0  0  0
    0.7799    1.1709    0.0000 C   0  0  0  0  0  0  0  0  0  0  0  0
    0.7795   -0.3299    0.0000 C   0  0  0  0  0  0  0  0  0  0  0  0
   -3.1177    1.9201    0.0000 C   0  0  0  0  0  0  0  0  0  0  0  0
   -0.5198   -2.5807    0.0000 C   0  0  0  0  0  0  0  0  0  0  0  0
    2.4948    2.1606    0.0000 C   0  0  0  0  0  0  0  0  0  0  0  0
    3.7932   -2.0699    0.0000 F   0  0  0  0  0  0  0  0  0  0  0  0
    3.2442   -0.0209    0.0000 O   0  0  0  0  0  0  0  0  0  0  0  0
    2.4942   -1.3199    0.0000 Si  0  0  0  0  0  4  0  0  0  0  0  0
 13 11  2  0
 13 12  1  0
 14 11  1  0
 15 12  2  0
 16 14  2  0
 16 15  1  0
 17  1  1  0
 17  2  1  0
 17  3  1  0
 17 13  1  0
 18  4  1  0
 18  5  1  0
 18  6  1  0
 18 14  1  0
 19  7  1  0
 19  8  1  0
 19  9  1  0
 19 15  1  0
 22 10  1  0
 22 16  1  0
 22 20  1  0
 22 21  1  0
M  END
>  <NAME>  (4839) 
FLUORO(METHYL)(2,4,6-TRI-TERT-BUTYLPHENYL)SILANOL

>  <SYNONYMS>  (4839) 


>  <SPECTRUM TYPE>  (4839) 
MS1

>  <INSTRUMENT TYPE>  (4839) 
EI-B

>  <INSTRUMENT>  (4839) 
JEOL JMS-D-3000

>  <ION MODE>  (4839) 
P

>  <INCHIKEY>  (4839) 
UGWOVUFMECJNIU-UHFFFAOYSA-N

>  <FORMULA>  (4839) 
C19H33FOSi

>  <EXACT MASS>  (4839) 
324.228470426

>  <MW>  (4839) 
324

>  <ID>  (4839) 
JP004709

>  <CONTRIBUTOR>  (4839) 
University of Tokyo Team, {Faculty of Engineering, University of Tokyo

>  <COMMENT>  (4839) 
SMILES=CC(C)(C)c(c1)cc(C(C)(C)C)c([Si](C)(O)F)c1C(C)(C)C
InChI=InChI=1S/C19H33FOSi/c1-17(2,3)13-11-14(18(4,5)6)16(22(10,20)21)15(12-13)19(7,8)9/h11-12,21H,1-10H3
computed SMILES=F[Si](O)(C=1C(=CC(=CC1C(C)(C)C)C(C)(C)C)C(C)(C)C)C
accession=JP004709
date=2016.01.19 (Created 2008.10.21, modified 2011.05.06)
author=MASS SPECTROSCOPY SOC. OF JAPAN (MSSJ)
license=CC BY-NC-SA
exact mass=324.22847
ionization energy=70 eV
ion type=[M]+*
computed spectral entropy=1.8779376355139124
computed normalized entropy=0.6168250272177865
SPLASH=splash10-0udi-2090000000-8fb9c95b3ec17998ec08
submitter=submitter = University of Tokyo Team (Faculty of Engineering, University of Tokyo)
MoNA Rating=3.75

>  <NUM PEAKS>  (4839) 
21

>  <MASS SPECTRAL PEAKS>  (4839) 
55 1.33
57 30.84
58 1.39
77 3.53
79 8.85
91 1.26
128 1.77
129 1.08
131 1.08
138 2.15
173 1.09
189 1.12
231 3.56
253 99.99
254 21.34
255 5.92
268 8.87
269 1.96
291 2.29
309 1.06
324 3.41

$$$$

     RDKit          2D

 22 22  0  0  0  0  0  0  0  0999 V2000
    1.2990   -5.0490    0.0000 C   0  0  0  0  0  0  0  0  0  0  0  0
   -1.2990   -5.0490    0.0000 C   0  0  0  0  0  0  0  0  0  0  0  0
    2.5987    1.7012    0.0000 C   0  0  0  0  0  0  0  0  0  0  0  0
    3.8981   -0.5486    0.0000 C   0  0  0  0  0  0  0  0  0  0  0  0
   -3.8981   -0.5486    0.0000 C   0  0  0  0  0  0  0  0  0  0  0  0
   -2.5987    1.7012    0.0000 C   0  0  0  0  0  0  0  0  0  0  0  0
   -0.5490    3.7500    0.0000 C   0  0  0  0  0  0  0  0  0  0  0  0
   -2.5981    3.2010    0.0000 C   0  0  0  0  0  0  0  0  0  0  0  0
   -2.0490    1.1519    0.0000 C   0  0  0  0  0  0  0  0  0  0  0  0
    1.3000   -2.0490    0.0000 C   0  0  0  0  0  0  0  0  0  0  0  0
   -1.3000   -2.0490    0.0000 C   0  0  0  0  0  0  0  0  0  0  0  0
   -0.0000   -4.2990    0.0000 C   0  0  0  0  0  0  0  0  0  0  0  0
    2.5989    0.2012    0.0000 C   0  0  0  0  0  0  0  0  0  0  0  0
   -2.5989    0.2012    0.0000 C   0  0  0  0  0  0  0  0  0  0  0  0
    0.0000   -2.7990    0.0000 C   0  0  0  0  0  0  0  0  0  0  0  0
    1.3000   -0.5490    0.0000 C   0  0  0  0  0  0  0  0  0  0  0  0
   -1.3000   -0.5490    0.0000 C   0  0  0  0  0  0  0  0  0  0  0  0
    0.0000    0.2010    0.0000 C   0  0  0  0  0  0  0  0  0  0  0  0
   -1.2990    2.4510    0.0000 C   0  0  0  0  0  0  0  0  0  0  0  0
    1.4772    1.4405    0.0000 F   0  0  0  0  0  0  0  0  0  0  0  0
    0.5130    3.1105    0.0000 O   0  0  0  0  0  0  0  0  0  0  0  0
    0.0000    1.7010    0.0000 Si  0  0  0  0  0  4  0  0  0  0  0  0
 12  1  1  0
 12  2  1  0
 13  3  1  0
 13  4  1  0
 14  5  1  0
 14  6  1  0
 15 10  2  0
 15 11  1  0
 15 12  1  0
 16 10  1  0
 16 13  1  0
 17 11  2  0
 17 14  1  0
 18 16  2  0
 18 17  1  0
 19  7  1  0
 19  8  1  0
 19  9  1  0
 22 18  1  0
 22 19  1  0
 22 20  1  0
 22 21  1  0
M  END
>  <NAME>  (4840) 
TERT-BUTYLFLUORO(2,4,6-TRIISOPROPYLPHENYL)SILANOL

>  <SYNONYMS>  (4840) 


>  <SPECTRUM TYPE>  (4840) 
MS1

>  <INSTRUMENT TYPE>  (4840) 
EI-B

>  <INSTRUMENT>  (4840) 
JEOL JMS-D-3000

>  <ION MODE>  (4840) 
P

>  <INCHIKEY>  (4840) 
PLHNVQGPMAWVKH-UHFFFAOYSA-N

>  <FORMULA>  (4840) 
C19H33FOSi

>  <EXACT MASS>  (4840) 
324.228470426

>  <MW>  (4840) 
324

>  <ID>  (4840) 
JP004708

>  <CONTRIBUTOR>  (4840) 
University of Tokyo Team, {Faculty of Engineering, University of Tokyo

>  <COMMENT>  (4840) 
SMILES=CC(C)c(c1)cc(C(C)C)c(c(C(C)C)1)[Si](O)(F)C(C)(C)C
InChI=InChI=1S/C19H33FOSi/c1-12(2)15-10-16(13(3)4)18(17(11-15)14(5)6)22(20,21)19(7,8)9/h10-14,21H,1-9H3
computed SMILES=F[Si](O)(C=1C(=CC(=CC1C(C)C)C(C)C)C(C)C)C(C)(C)C
accession=JP004708
date=2016.01.19 (Created 2008.10.21, modified 2011.05.06)
author=MASS SPECTROSCOPY SOC. OF JAPAN (MSSJ)
license=CC BY-NC-SA
exact mass=324.22847
ionization energy=70 eV
ion type=[M]+*
computed spectral entropy=2.622950483951591
computed normalized entropy=0.701760923737357
SPLASH=splash10-0002-1190000000-6c2da6b66cde0ffc2ead
submitter=submitter = University of Tokyo Team (Faculty of Engineering, University of Tokyo)
MoNA Rating=3.75

>  <NUM PEAKS>  (4840) 
42

>  <MASS SPECTRAL PEAKS>  (4840) 
43 13.2
57 2.53
63 1.36
77 5.05
79 9.12
91 2.69
105 1.62
115 1.74
117 2.53
128 1.84
129 2.46
131 1.49
141 1.49
143 1.89
145 1.85
159 1.15
161 1.51
165 2.22
187 2.01
189 2.39
191 1.1
203 1.6
204 1.88
205 1.26
207 2.06
225 1.07
229 1.8
233 1.85
235 6.92
236 1.52
247 1.2
249 99.99
250 22.14
251 6.76
252 1.02
253 1.88
267 38.64
268 9.62
269 2.55
291 1.5
324 9.91
325 2.68

$$$$

     RDKit          2D

 22 22  0  0  0  0  0  0  0  0999 V2000
   -2.3677    3.2191    0.0000 C   0  0  0  0  0  0  0  0  0  0  0  0
   -4.4167    2.6701    0.0000 C   0  0  0  0  0  0  0  0  0  0  0  0
   -3.8677    0.6210    0.0000 C   0  0  0  0  0  0  0  0  0  0  0  0
   -2.0198   -2.5810    0.0000 C   0  0  0  0  0  0  0  0  0  0  0  0
   -0.5196   -4.0807    0.0000 C   0  0  0  0  0  0  0  0  0  0  0  0
    0.9802   -2.5805    0.0000 C   0  0  0  0  0  0  0  0  0  0  0  0
    3.2446    0.8615    0.0000 C   0  0  0  0  0  0  0  0  0  0  0  0
    3.7940    2.9104    0.0000 C   0  0  0  0  0  0  0  0  0  0  0  0
    1.7450    3.4598    0.0000 C   0  0  0  0  0  0  0  0  0  0  0  0
    1.7442   -2.6190    0.0000 C   0  0  0  0  0  0  0  0  0  0  0  0
   -1.8191   -0.3307    0.0000 C   0  0  0  0  0  0  0  0  0  0  0  0
   -0.5191    1.9209    0.0000 C   0  0  0  0  0  0  0  0  0  0  0  0
   -1.8186    1.1701    0.0000 C   0  0  0  0  0  0  0  0  0  0  0  0
   -0.5201   -1.0807    0.0000 C   0  0  0  0  0  0  0  0  0  0  0  0
    0.7799    1.1709    0.0000 C   0  0  0  0  0  0  0  0  0  0  0  0
    0.7795   -0.3299    0.0000 C   0  0  0  0  0  0  0  0  0  0  0  0
   -3.1177    1.9201    0.0000 C   0  0  0  0  0  0  0  0  0  0  0  0
   -0.5198   -2.5807    0.0000 C   0  0  0  0  0  0  0  0  0  0  0  0
    2.4948    2.1606    0.0000 C   0  0  0  0  0  0  0  0  0  0  0  0
    3.7932   -2.0699    0.0000 F   0  0  0  0  0  0  0  0  0  0  0  0
    3.2442   -0.0209    0.0000 F   0  0  0  0  0  0  0  0  0  0  0  0
    2.4942   -1.3199    0.0000 Si  0  0  0  0  0  4  0  0  0  0  0  0
 13 11  2  0
 13 12  1  0
 14 11  1  0
 15 12  2  0
 16 14  2  0
 16 15  1  0
 17  1  1  0
 17  2  1  0
 17  3  1  0
 17 13  1  0
 18  4  1  0
 18  5  1  0
 18  6  1  0
 18 14  1  0
 19  7  1  0
 19  8  1  0
 19  9  1  0
 19 15  1  0
 22 10  1  0
 22 16  1  0
 22 20  1  0
 22 21  1  0
M  END
>  <NAME>  (4841) 
(2,4,6-TRI-TERT-BUTYLPHENYL)(DIFLUORO)METHYLSILANE

>  <SYNONYMS>  (4841) 
1,3,5-TRI-TERT-BUTYL-2-(DIFLUOROMETHYLSILYL)BENZENE

>  <SPECTRUM TYPE>  (4841) 
MS1

>  <INSTRUMENT TYPE>  (4841) 
EI-B

>  <INSTRUMENT>  (4841) 
JEOL JMS-D-3000

>  <ION MODE>  (4841) 
P

>  <INCHIKEY>  (4841) 
PNHOHXUAISPGBF-UHFFFAOYSA-N

>  <FORMULA>  (4841) 
C19H32F2Si

>  <EXACT MASS>  (4841) 
326.224133994

>  <MW>  (4841) 
326

>  <ID>  (4841) 
JP004707

>  <CONTRIBUTOR>  (4841) 
University of Tokyo Team, {Faculty of Engineering, University of Tokyo

>  <COMMENT>  (4841) 
SMILES=CC(C)(C)c(c1)cc(C(C)(C)C)c([Si](C)(F)F)c1C(C)(C)C
InChI=InChI=1S/C19H32F2Si/c1-17(2,3)13-11-14(18(4,5)6)16(22(10,20)21)15(12-13)19(7,8)9/h11-12H,1-10H3
computed SMILES=F[Si](F)(C=1C(=CC(=CC1C(C)(C)C)C(C)(C)C)C(C)(C)C)C
accession=JP004707
date=2016.01.19 (Created 2008.10.21, modified 2011.05.06)
author=MASS SPECTROSCOPY SOC. OF JAPAN (MSSJ)
license=CC BY-NC-SA
exact mass=326.22413
ionization energy=70 eV
ion type=[M]+*
computed spectral entropy=1.756482120375242
computed normalized entropy=0.5769319019007368
SPLASH=splash10-0a4i-3090000000-2db16e6ff172f91a7ed4
submitter=submitter = University of Tokyo Team (Faculty of Engineering, University of Tokyo)
MoNA Rating=3.75

>  <NUM PEAKS>  (4841) 
21

>  <MASS SPECTRAL PEAKS>  (4841) 
43 1.25
55 1.95
57 45
58 2.12
77 1.13
81 3.14
91 1.36
115 1.05
128 1.2
129 1.13
131 1.07
227 1.37
231 1.22
255 99.99
256 21.22
257 5.67
270 7.98
271 1.8
311 1.87
326 4.33
327 1.13

$$$$

     RDKit          2D

 19 19  0  0  0  0  0  0  0  0999 V2000
    1.5000    3.0000    0.0000 C   0  0  0  0  0  0  0  0  0  0  0  0
    0.0000    4.5000    0.0000 C   0  0  0  0  0  0  0  0  0  0  0  0
   -1.5000    3.0000    0.0000 C   0  0  0  0  0  0  0  0  0  0  0  0
   -3.3491   -0.2013    0.0000 C   0  0  0  0  0  0  0  0  0  0  0  0
   -3.8978   -2.2504    0.0000 C   0  0  0  0  0  0  0  0  0  0  0  0
   -1.8487   -2.7991    0.0000 C   0  0  0  0  0  0  0  0  0  0  0  0
    1.8487   -2.7991    0.0000 C   0  0  0  0  0  0  0  0  0  0  0  0
    3.8978   -2.2504    0.0000 C   0  0  0  0  0  0  0  0  0  0  0  0
    3.3491   -0.2013    0.0000 C   0  0  0  0  0  0  0  0  0  0  0  0
   -1.3000    0.7500    0.0000 C   0  0  0  0  0  0  0  0  0  0  0  0
    1.3000    0.7500    0.0000 C   0  0  0  0  0  0  0  0  0  0  0  0
    0.0000    1.5000    0.0000 C   0  0  0  0  0  0  0  0  0  0  0  0
   -1.3000   -0.7500    0.0000 C   0  0  0  0  0  0  0  0  0  0  0  0
    1.3000   -0.7500    0.0000 C   0  0  0  0  0  0  0  0  0  0  0  0
    0.0000   -1.5000    0.0000 C   0  0  0  0  0  0  0  0  0  0  0  0
    0.0000    3.0000    0.0000 C   0  0  0  0  0  0  0  0  0  0  0  0
   -2.5989   -1.5002    0.0000 C   0  0  0  0  0  0  0  0  0  0  0  0
    2.5989   -1.5002    0.0000 C   0  0  0  0  0  0  0  0  0  0  0  0
   -0.0000   -3.0000    0.0000 Br  0  0  0  0  0  0  0  0  0  0  0  0
 12 10  2  0
 12 11  1  0
 13 10  1  0
 14 11  2  0
 15 13  2  0
 15 14  1  0
 16  1  1  0
 16  2  1  0
 16  3  1  0
 16 12  1  0
 17  4  1  0
 17  5  1  0
 17  6  1  0
 17 13  1  0
 18  7  1  0
 18  8  1  0
 18  9  1  0
 18 14  1  0
 19 15  1  0
M  END
>  <NAME>  (4842) 
2-BROMO-1,3,5-TRI-TERT-BUTYLBENZENE

>  <SYNONYMS>  (4842) 
2,4,6-TRI-TERT-BUTYLPHENYLBROMIDE

>  <SPECTRUM TYPE>  (4842) 
MS1

>  <INSTRUMENT TYPE>  (4842) 
EI-B

>  <INSTRUMENT>  (4842) 
JEOL JMS-D-3000

>  <ION MODE>  (4842) 
P

>  <INCHIKEY>  (4842) 
JOKZWHPYNRDCOA-UHFFFAOYSA-N

>  <FORMULA>  (4842) 
C18H29Br

>  <EXACT MASS>  (4842) 
324.145263028

>  <MW>  (4842) 
324

>  <ID>  (4842) 
JP004706

>  <CONTRIBUTOR>  (4842) 
University of Tokyo Team, {Faculty of Engineering, University of Tokyo

>  <COMMENT>  (4842) 
SMILES=CC(C)(C)c(c1)cc(C(C)(C)C)c(Br)c1C(C)(C)C
InChI=InChI=1S/C18H29Br/c1-16(2,3)12-10-13(17(4,5)6)15(19)14(11-12)18(7,8)9/h10-11H,1-9H3
computed SMILES=BrC=1C(=CC(=CC1C(C)(C)C)C(C)(C)C)C(C)(C)C
accession=JP004706
date=2016.01.19 (Created 2008.10.21, modified 2011.05.06)
author=MASS SPECTROSCOPY SOC. OF JAPAN (MSSJ)
license=CC BY-NC-SA
exact mass=324.14526
ionization energy=70 eV
ion type=[M]+*
computed spectral entropy=2.8360973734566537
computed normalized entropy=0.7077268703056763
SPLASH=splash10-0bt9-5209000000-2ce7c52d34b07e1d9c34
submitter=submitter = University of Tokyo Team (Faculty of Engineering, University of Tokyo)
MoNA Rating=3.75

>  <NUM PEAKS>  (4842) 
55

>  <MASS SPECTRAL PEAKS>  (4842) 
43 1.94
53 1.5
55 5.26
57 99.99
58 4.8
65 1.34
71 1.57
77 2.6
78 1.07
79 1.63
91 4.12
105 2.34
115 4
116 1.45
117 2.27
119 1.44
127 1.18
128 4.15
129 3.8
130 1.44
131 3.55
133 2.07
134 1.56
141 2.85
142 2.29
143 2.89
144 1.1
145 2.21
147 1.86
148 1.02
153 1.06
155 1.37
157 2.03
158 1.31
159 1.41
171 1.07
173 3.51
187 2.4
215 3.02
229 1.69
239 1.14
253 1.19
255 1.02
267 1.6
269 1.42
281 3.37
283 3.23
309 60.45
310 12.24
311 59.41
312 11.74
324 19.66
325 4.13
326 19.45
327 3.91

$$$$

     RDKit          2D

 15 15  0  0  0  0  0  0  0  0999 V2000
   -1.2990    3.7500    0.0000 C   0  0  0  0  0  0  0  0  0  0  0  0
    1.2990    3.7500    0.0000 C   0  0  0  0  0  0  0  0  0  0  0  0
    2.5987   -3.0002    0.0000 C   0  0  0  0  0  0  0  0  0  0  0  0
    3.8981   -0.7504    0.0000 C   0  0  0  0  0  0  0  0  0  0  0  0
   -3.8981   -0.7504    0.0000 C   0  0  0  0  0  0  0  0  0  0  0  0
   -2.5987   -3.0002    0.0000 C   0  0  0  0  0  0  0  0  0  0  0  0
    1.3000    0.7500    0.0000 C   0  0  0  0  0  0  0  0  0  0  0  0
   -1.3000    0.7500    0.0000 C   0  0  0  0  0  0  0  0  0  0  0  0
    0.0000   -1.5000    0.0000 C   0  0  0  0  0  0  0  0  0  0  0  0
    0.0000    3.0000    0.0000 C   0  0  0  0  0  0  0  0  0  0  0  0
    2.5989   -1.5002    0.0000 C   0  0  0  0  0  0  0  0  0  0  0  0
   -2.5989   -1.5002    0.0000 C   0  0  0  0  0  0  0  0  0  0  0  0
    0.0000    1.5000    0.0000 C   0  0  0  0  0  0  0  0  0  0  0  0
    1.3000   -0.7500    0.0000 C   0  0  0  0  0  0  0  0  0  0  0  0
   -1.3000   -0.7500    0.0000 C   0  0  0  0  0  0  0  0  0  0  0  0
 10  1  1  0
 10  2  1  0
 11  3  1  0
 11  4  1  0
 12  5  1  0
 12  6  1  0
 13  7  2  0
 13  8  1  0
 13 10  1  0
 14  7  1  0
 14  9  2  0
 14 11  1  0
 15  8  2  0
 15  9  1  0
 15 12  1  0
M  END
>  <NAME>  (4843) 
1,3,5-TRIISOPROPYLBENZENE

>  <SYNONYMS>  (4843) 


>  <SPECTRUM TYPE>  (4843) 
MS1

>  <INSTRUMENT TYPE>  (4843) 
EI-B

>  <INSTRUMENT>  (4843) 
JEOL JMS-D-3000

>  <ION MODE>  (4843) 
P

>  <INCHIKEY>  (4843) 
VUMCUSHVMYIRMB-UHFFFAOYSA-N

>  <FORMULA>  (4843) 
C15H24

>  <EXACT MASS>  (4843) 
204.187800768

>  <MW>  (4843) 
204

>  <ID>  (4843) 
JP004705

>  <CONTRIBUTOR>  (4843) 
University of Tokyo Team, {Faculty of Engineering, University of Tokyo

>  <COMMENT>  (4843) 
SMILES=CC(C)c(c1)cc(C(C)C)cc(C(C)C)1
cas=717-74-8
InChI=InChI=1S/C15H24/c1-10(2)13-7-14(11(3)4)9-15(8-13)12(5)6/h7-12H,1-6H3
computed SMILES=C=1C(=CC(=CC1C(C)C)C(C)C)C(C)C
accession=JP004705
date=2016.01.19 (Created 2008.10.21, modified 2011.05.06)
author=MASS SPECTROSCOPY SOC. OF JAPAN (MSSJ)
license=CC BY-NC-SA
exact mass=204.1878
ionization energy=70 eV
ion type=[M]+*
computed spectral entropy=2.5602280474313734
computed normalized entropy=0.7260256089981185
SPLASH=splash10-000l-2910000000-01f6f06b484cc7a176a4
submitter=submitter = University of Tokyo Team (Faculty of Engineering, University of Tokyo)
MoNA Rating=3.75

>  <NUM PEAKS>  (4843) 
34

>  <MASS SPECTRAL PEAKS>  (4843) 
43 30.47
51 1.05
53 1.35
65 1.77
71 1.05
73 1.02
77 2.86
78 1.17
79 4.23
87 6.45
91 15.14
92 1.3
103 1.29
105 13.4
106 1.25
115 3.23
116 1.83
117 3.48
119 5.74
128 2.63
129 2.34
130 1.03
131 3.06
133 5.99
145 2.47
147 4.09
161 43.82
162 6.04
173 2.23
189 99.99
190 15.48
191 1.15
204 31.05
205 5.31

$$$$

     RDKit          2D

 16 16  0  0  0  0  0  0  0  0999 V2000
    1.2990   -3.0002    0.0000 C   0  0  0  0  0  0  0  0  0  0  0  0
   -1.2990   -3.0002    0.0000 C   0  0  0  0  0  0  0  0  0  0  0  0
    2.5987    3.7500    0.0000 C   0  0  0  0  0  0  0  0  0  0  0  0
    3.8981    1.5002    0.0000 C   0  0  0  0  0  0  0  0  0  0  0  0
   -3.8981    1.5002    0.0000 C   0  0  0  0  0  0  0  0  0  0  0  0
   -2.5987    3.7500    0.0000 C   0  0  0  0  0  0  0  0  0  0  0  0
    1.3000   -0.0002    0.0000 C   0  0  0  0  0  0  0  0  0  0  0  0
   -1.3000   -0.0002    0.0000 C   0  0  0  0  0  0  0  0  0  0  0  0
   -0.0000   -2.2502    0.0000 C   0  0  0  0  0  0  0  0  0  0  0  0
    2.5989    2.2500    0.0000 C   0  0  0  0  0  0  0  0  0  0  0  0
   -2.5989    2.2500    0.0000 C   0  0  0  0  0  0  0  0  0  0  0  0
    0.0000   -0.7502    0.0000 C   0  0  0  0  0  0  0  0  0  0  0  0
    1.3000    1.4998    0.0000 C   0  0  0  0  0  0  0  0  0  0  0  0
   -1.3000    1.4998    0.0000 C   0  0  0  0  0  0  0  0  0  0  0  0
    0.0000    2.2498    0.0000 C   0  0  0  0  0  0  0  0  0  0  0  0
    0.0000    3.7498    0.0000 Br  0  0  0  0  0  0  0  0  0  0  0  0
  9  1  1  0
  9  2  1  0
 10  3  1  0
 10  4  1  0
 11  5  1  0
 11  6  1  0
 12  7  2  0
 12  8  1  0
 12  9  1  0
 13  7  1  0
 13 10  1  0
 14  8  2  0
 14 11  1  0
 15 13  2  0
 15 14  1  0
 16 15  1  0
M  END
>  <NAME>  (4844) 
2-BROMO-1,3,5-TRIISOPROPYLBENZENE

>  <SYNONYMS>  (4844) 
2,4,6-TRIISOPROPYLPHENYLBROMIDE

>  <SPECTRUM TYPE>  (4844) 
MS1

>  <INSTRUMENT TYPE>  (4844) 
EI-B

>  <INSTRUMENT>  (4844) 
JEOL JMS-D-3000

>  <ION MODE>  (4844) 
P

>  <INCHIKEY>  (4844) 
FUMMYHVKFAHQST-UHFFFAOYSA-N

>  <FORMULA>  (4844) 
C15H23Br

>  <EXACT MASS>  (4844) 
282.098312836

>  <MW>  (4844) 
282

>  <ID>  (4844) 
JP004704

>  <CONTRIBUTOR>  (4844) 
University of Tokyo Team, {Faculty of Engineering, University of Tokyo

>  <COMMENT>  (4844) 
SMILES=CC(C)c(c1)cc(C(C)C)c(Br)c(C(C)C)1
InChI=InChI=1S/C15H23Br/c1-9(2)12-7-13(10(3)4)15(16)14(8-12)11(5)6/h7-11H,1-6H3
computed SMILES=BrC=1C(=CC(=CC1C(C)C)C(C)C)C(C)C
accession=JP004704
date=2016.01.19 (Created 2008.10.21, modified 2011.05.06)
author=MASS SPECTROSCOPY SOC. OF JAPAN (MSSJ)
license=CC BY-NC-SA
exact mass=282.09831
ionization energy=70 eV
ion type=[M]+*
computed spectral entropy=3.276984329238686
computed normalized entropy=0.771328233301247
SPLASH=splash10-014i-2390000000-4462eee6986b6aeb9038
submitter=submitter = University of Tokyo Team (Faculty of Engineering, University of Tokyo)
MoNA Rating=3.75

>  <NUM PEAKS>  (4844) 
70

>  <MASS SPECTRAL PEAKS>  (4844) 
43 68.68
51 2.27
53 2.27
55 1.63
63 1.63
64 3.34
65 3.41
70 1.13
71 3.34
76 1.92
77 6.9
78 2.27
79 2.06
91 11.24
92 1.06
103 1.77
104 1.7
105 5.83
111 1.35
112 1.35
115 8.89
116 3.84
117 11.1
118 4.55
119 4.83
126 1.56
127 3.91
128 9.25
129 8.46
130 5.05
131 7.04
132 2.2
133 1.35
141 4.27
142 3.13
143 4.19
144 2.49
145 8.68
146 4.69
147 1.13
157 1.56
159 5.62
169 1.35
171 1.42
173 2.98
183 2.34
185 1.7
197 1.42
199 1.28
203 7.4
204 1.06
211 3.77
213 3.41
225 5.62
227 6.12
239 10.96
240 1.42
241 11.95
242 1.13
253 2.34
255 1.99
267 99.99
268 16.15
269 97.93
270 15.08
271 1.77
282 38.93
283 6.9
284 38.5
285 6.61

$$$$

     RDKit          2D

  9  9  0  0  0  0  0  0  0  0999 V2000
   -0.0000   -1.5002    0.0000 C   0  0  0  0  0  0  0  0  0  0  0  0
   -2.5989    3.0000    0.0000 C   0  0  0  0  0  0  0  0  0  0  0  0
    2.5989    3.0000    0.0000 C   0  0  0  0  0  0  0  0  0  0  0  0
   -1.3000    0.7498    0.0000 C   0  0  0  0  0  0  0  0  0  0  0  0
    1.3000    0.7498    0.0000 C   0  0  0  0  0  0  0  0  0  0  0  0
   -0.0000    2.9998    0.0000 C   0  0  0  0  0  0  0  0  0  0  0  0
   -0.0000   -0.0002    0.0000 C   0  0  0  0  0  0  0  0  0  0  0  0
   -1.3000    2.2498    0.0000 C   0  0  0  0  0  0  0  0  0  0  0  0
    1.3000    2.2498    0.0000 C   0  0  0  0  0  0  0  0  0  0  0  0
  7  1  1  0
  7  4  2  0
  7  5  1  0
  8  2  1  0
  8  4  1  0
  8  6  2  0
  9  3  1  0
  9  5  2  0
  9  6  1  0
M  END
>  <NAME>  (4845) 
1,3,5-TRIMETHYLBENZENE

>  <SYNONYMS>  (4845) 
MESITYLENE

>  <SPECTRUM TYPE>  (4845) 
MS1

>  <INSTRUMENT TYPE>  (4845) 
EI-B

>  <INSTRUMENT>  (4845) 
JEOL JMS-D-3000

>  <ION MODE>  (4845) 
P

>  <INCHIKEY>  (4845) 
AUHZEENZYGFFBQ-UHFFFAOYSA-N

>  <FORMULA>  (4845) 
C9H12

>  <EXACT MASS>  (4845) 
120.093900384

>  <MW>  (4845) 
120

>  <ID>  (4845) 
JP004703

>  <CONTRIBUTOR>  (4845) 
University of Tokyo Team, {Faculty of Engineering, University of Tokyo

>  <COMMENT>  (4845) 
SMILES=Cc(c1)cc(C)cc(C)1
cas=108-67-8
InChI=InChI=1S/C9H12/c1-7-4-8(2)6-9(3)5-7/h4-6H,1-3H3
computed SMILES=C=1C(=CC(=CC1C)C)C
accession=JP004703
date=2016.01.19 (Created 2008.10.21, modified 2011.05.06)
author=MASS SPECTROSCOPY SOC. OF JAPAN (MSSJ)
license=CC BY-NC-SA
exact mass=120.0939
ionization energy=70 eV
ion type=[M]+*
computed spectral entropy=2.167018895193492
computed normalized entropy=0.7010640998602582
SPLASH=splash10-0ab9-2900000000-57c888686dc5a578d8dc
submitter=submitter = University of Tokyo Team (Faculty of Engineering, University of Tokyo)
MoNA Rating=3.75

>  <NUM PEAKS>  (4845) 
22

>  <MASS SPECTRAL PEAKS>  (4845) 
50 1.81
51 5.51
52 2.12
53 2.91
59 4.01
63 3.07
65 3.78
77 9.85
78 3.3
79 6.3
89 1.41
91 8.74
103 5.35
104 3.23
105 99.99
106 9.45
115 3.62
117 4.49
118 3.23
119 17.1
120 68.16
121 7.09

$$$$

     RDKit          2D

 10 10  0  0  0  0  0  0  0  0999 V2000
   -0.0000   -3.0000    0.0000 C   0  0  0  0  0  0  0  0  0  0  0  0
    2.5989    1.5002    0.0000 C   0  0  0  0  0  0  0  0  0  0  0  0
   -2.5989    1.5002    0.0000 C   0  0  0  0  0  0  0  0  0  0  0  0
    1.3000   -0.7500    0.0000 C   0  0  0  0  0  0  0  0  0  0  0  0
   -1.3000   -0.7500    0.0000 C   0  0  0  0  0  0  0  0  0  0  0  0
   -0.0000   -1.5000    0.0000 C   0  0  0  0  0  0  0  0  0  0  0  0
    1.3000    0.7500    0.0000 C   0  0  0  0  0  0  0  0  0  0  0  0
   -1.3000    0.7500    0.0000 C   0  0  0  0  0  0  0  0  0  0  0  0
   -0.0000    1.5000    0.0000 C   0  0  0  0  0  0  0  0  0  0  0  0
    0.0000    3.0000    0.0000 Br  0  0  0  0  0  0  0  0  0  0  0  0
  6  1  1  0
  6  4  2  0
  6  5  1  0
  7  2  1  0
  7  4  1  0
  8  3  1  0
  8  5  2  0
  9  7  2  0
  9  8  1  0
 10  9  1  0
M  END
>  <NAME>  (4846) 
2-BROMO-1,3,5-TRIMETHYLBENZENE

>  <SYNONYMS>  (4846) 
MESITYLBROMIDE

>  <SPECTRUM TYPE>  (4846) 
MS1

>  <INSTRUMENT TYPE>  (4846) 
EI-B

>  <INSTRUMENT>  (4846) 
JEOL JMS-D-3000

>  <ION MODE>  (4846) 
P

>  <INCHIKEY>  (4846) 
RRTLQRYOJOSPEA-UHFFFAOYSA-N

>  <FORMULA>  (4846) 
C9H11Br

>  <EXACT MASS>  (4846) 
198.004412452

>  <MW>  (4846) 
198

>  <ID>  (4846) 
JP004702

>  <CONTRIBUTOR>  (4846) 
University of Tokyo Team, {Faculty of Engineering, University of Tokyo

>  <COMMENT>  (4846) 
SMILES=Cc(c1)cc(C)c(Br)c(C)1
cas=576-83-0
InChI=InChI=1S/C9H11Br/c1-6-4-7(2)9(10)8(3)5-6/h4-5H,1-3H3
computed SMILES=BrC=1C(=CC(=CC1C)C)C
accession=JP004702
date=2016.01.19 (Created 2008.10.21, modified 2011.05.06)
author=MASS SPECTROSCOPY SOC. OF JAPAN (MSSJ)
license=CC BY-NC-SA
exact mass=198.00441
ionization energy=70 eV
ion type=[M]+*
computed spectral entropy=2.9516641945096116
computed normalized entropy=0.7753942469135751
SPLASH=splash10-0gba-2920000000-ab319d49dafecca67e58
submitter=submitter = University of Tokyo Team (Faculty of Engineering, University of Tokyo)
MoNA Rating=3.75

>  <NUM PEAKS>  (4846) 
45

>  <MASS SPECTRAL PEAKS>  (4846) 
50 2.56
51 7.12
52 2.38
53 2.93
57 4.52
58 8.48
59 2.04
62 1.39
63 4.2
64 1.03
65 5.4
74 1.33
75 1.58
76 1.21
77 10.61
78 4.77
79 4.09
89 1.73
91 22.71
92 2.7
93 3.29
98 2.49
99 3.12
102 2.2
103 10.67
104 7.06
105 10.09
107 7.31
115 8.05
116 2.31
117 14.88
118 8.85
119 99.99
120 30.21
121 5.24
135 1.32
149 2.21
164 2.77
183 5.85
185 5.76
197 4.53
198 66.92
199 11.28
200 66.11
201 2.24

$$$$

     RDKit          2D

 23 23  0  0  0  0  0  0  0  0999 V2000
    5.1831   -1.2675    0.0000 C   0  0  0  0  0  0  0  0  0  0  0  0
   -1.8611    3.0316    0.0000 C   0  0  0  0  0  0  0  0  0  0  0  0
   -3.9101    2.4825    0.0000 C   0  0  0  0  0  0  0  0  0  0  0  0
   -3.3611    0.4335    0.0000 C   0  0  0  0  0  0  0  0  0  0  0  0
   -1.5132   -3.2485    0.0000 C   0  0  0  0  0  0  0  0  0  0  0  0
   -0.0129   -4.7483    0.0000 C   0  0  0  0  0  0  0  0  0  0  0  0
    1.4868   -3.2480    0.0000 C   0  0  0  0  0  0  0  0  0  0  0  0
    3.3354    0.4340    0.0000 C   0  0  0  0  0  0  0  0  0  0  0  0
    3.8848    2.4830    0.0000 C   0  0  0  0  0  0  0  0  0  0  0  0
    1.8359    3.0323    0.0000 C   0  0  0  0  0  0  0  0  0  0  0  0
    3.8841   -0.5175    0.0000 C   0  0  0  0  0  0  0  0  0  0  0  0
   -1.3125   -0.5183    0.0000 C   0  0  0  0  0  0  0  0  0  0  0  0
   -0.0125    1.7334    0.0000 C   0  0  0  0  0  0  0  0  0  0  0  0
   -1.3121    0.9825    0.0000 C   0  0  0  0  0  0  0  0  0  0  0  0
   -0.0135   -1.2683    0.0000 C   0  0  0  0  0  0  0  0  0  0  0  0
    1.2865    0.9834    0.0000 C   0  0  0  0  0  0  0  0  0  0  0  0
    1.2860   -0.5175    0.0000 C   0  0  0  0  0  0  0  0  0  0  0  0
   -2.6111    1.7325    0.0000 C   0  0  0  0  0  0  0  0  0  0  0  0
   -0.0132   -3.2483    0.0000 C   0  0  0  0  0  0  0  0  0  0  0  0
    2.5857    1.7332    0.0000 C   0  0  0  0  0  0  0  0  0  0  0  0
    1.6209   -2.4165    0.0000 F   0  0  0  0  0  0  0  0  0  0  0  0
    3.5492   -2.4165    0.0000 F   0  0  0  0  0  0  0  0  0  0  0  0
    2.5851   -1.2675    0.0000 Si  0  0  0  0  0  4  0  0  0  0  0  0
 11  1  1  0
 14 12  2  0
 14 13  1  0
 15 12  1  0
 16 13  2  0
 17 15  2  0
 17 16  1  0
 18  2  1  0
 18  3  1  0
 18  4  1  0
 18 14  1  0
 19  5  1  0
 19  6  1  0
 19  7  1  0
 19 15  1  0
 20  8  1  0
 20  9  1  0
 20 10  1  0
 20 16  1  0
 23 11  1  0
 23 17  1  0
 23 21  1  0
 23 22  1  0
M  END
>  <NAME>  (4847) 
ETHYLDIFLUORO(2,4,6-TRI-TERT-BUTYLPHENYL)SILANE

>  <SYNONYMS>  (4847) 
1,3,5-TRI-TERT-BUTYL-2-(ETHYLDIFLUOROSILYL)BENZENE

>  <SPECTRUM TYPE>  (4847) 
MS1

>  <INSTRUMENT TYPE>  (4847) 
EI-B

>  <INSTRUMENT>  (4847) 
JEOL JMS-D-3000

>  <ION MODE>  (4847) 
P

>  <INCHIKEY>  (4847) 
QCSVJWLHWUAGLU-UHFFFAOYSA-N

>  <FORMULA>  (4847) 
C20H34F2Si

>  <EXACT MASS>  (4847) 
340.239784058

>  <MW>  (4847) 
340

>  <ID>  (4847) 
JP004701

>  <CONTRIBUTOR>  (4847) 
University of Tokyo Team, {Faculty of Engineering, University of Tokyo

>  <COMMENT>  (4847) 
SMILES=CC[Si](F)(F)c(c1C(C)(C)C)c(cc(C(C)(C)C)c1)C(C)(C)C
InChI=InChI=1S/C20H34F2Si/c1-11-23(21,22)17-15(19(5,6)7)12-14(18(2,3)4)13-16(17)20(8,9)10/h12-13H,11H2,1-10H3
computed SMILES=F[Si](F)(C=1C(=CC(=CC1C(C)(C)C)C(C)(C)C)C(C)(C)C)CC
accession=JP004701
date=2016.01.19 (Created 2008.10.21, modified 2011.05.06)
author=MASS SPECTROSCOPY SOC. OF JAPAN (MSSJ)
license=CC BY-NC-SA
exact mass=340.23978
ionization energy=70 eV
ion type=[M]+*
computed spectral entropy=1.9158209007387634
computed normalized entropy=0.5812851116813277
SPLASH=splash10-066r-4090000000-1b2dc8c38ef7051d1217
submitter=submitter = University of Tokyo Team (Faculty of Engineering, University of Tokyo)
MoNA Rating=3.75

>  <NUM PEAKS>  (4847) 
27

>  <MASS SPECTRAL PEAKS>  (4847) 
43 1.63
55 2.59
57 57.92
58 2.75
67 1.38
77 1.21
91 2.39
95 3.57
105 1.25
115 1.66
117 1.39
128 1.6
129 1.76
131 1.68
141 1.18
142 1
143 1.44
173 1.12
189 1.08
241 1.17
269 99.99
270 22.5
271 5.85
284 7.53
285 1.03
325 1.46
340 2.39

$$$$

     RDKit          2D

 24 24  0  0  0  0  0  0  0  0999 V2000
    1.7147   -5.0099    0.0000 C   0  0  0  0  0  0  0  0  0  0  0  0
    3.0137   -2.7599    0.0000 C   0  0  0  0  0  0  0  0  0  0  0  0
    1.9157    3.2401    0.0000 C   0  0  0  0  0  0  0  0  0  0  0  0
    0.4157    4.7401    0.0000 C   0  0  0  0  0  0  0  0  0  0  0  0
   -1.0843    3.2401    0.0000 C   0  0  0  0  0  0  0  0  0  0  0  0
   -3.3491   -0.2013    0.0000 C   0  0  0  0  0  0  0  0  0  0  0  0
   -3.8978   -2.2504    0.0000 C   0  0  0  0  0  0  0  0  0  0  0  0
   -1.8487   -2.7991    0.0000 C   0  0  0  0  0  0  0  0  0  0  0  0
    2.2644   -2.5591    0.0000 C   0  0  0  0  0  0  0  0  0  0  0  0
    4.3135   -2.0103    0.0000 C   0  0  0  0  0  0  0  0  0  0  0  0
    3.7648    0.0388    0.0000 C   0  0  0  0  0  0  0  0  0  0  0  0
   -0.8843    0.9901    0.0000 C   0  0  0  0  0  0  0  0  0  0  0  0
    1.7157    0.9901    0.0000 C   0  0  0  0  0  0  0  0  0  0  0  0
    1.7147   -3.5099    0.0000 C   0  0  0  0  0  0  0  0  0  0  0  0
    0.4157    1.7401    0.0000 C   0  0  0  0  0  0  0  0  0  0  0  0
   -0.8843   -0.5099    0.0000 C   0  0  0  0  0  0  0  0  0  0  0  0
    1.7157   -0.5099    0.0000 C   0  0  0  0  0  0  0  0  0  0  0  0
    0.4157   -1.2599    0.0000 C   0  0  0  0  0  0  0  0  0  0  0  0
    0.4157    3.2401    0.0000 C   0  0  0  0  0  0  0  0  0  0  0  0
   -2.5989   -1.5002    0.0000 C   0  0  0  0  0  0  0  0  0  0  0  0
    3.0146   -1.2601    0.0000 C   0  0  0  0  0  0  0  0  0  0  0  0
   -1.0616   -2.4995    0.0000 F   0  0  0  0  0  0  0  0  0  0  0  0
   -0.0974   -4.1695    0.0000 F   0  0  0  0  0  0  0  0  0  0  0  0
    0.4157   -2.7599    0.0000 Si  0  0  0  0  0  4  0  0  0  0  0  0
 14  1  1  0
 14  2  1  0
 15 12  2  0
 15 13  1  0
 16 12  1  0
 17 13  2  0
 18 16  2  0
 18 17  1  0
 19  3  1  0
 19  4  1  0
 19  5  1  0
 19 15  1  0
 20  6  1  0
 20  7  1  0
 20  8  1  0
 20 16  1  0
 21  9  1  0
 21 10  1  0
 21 11  1  0
 21 17  1  0
 24 14  1  0
 24 18  1  0
 24 22  1  0
 24 23  1  0
M  END
>  <NAME>  (4848) 
DIFLUOROISOPROPYL(2,4,6-TRI-TERT-BUTYLPHENYL)SILANE

>  <SYNONYMS>  (4848) 
1,3,5-TRI-TERT-BUTYL-2-(DEFLUOROISOPROPYLSILYL)BENZENE

>  <SPECTRUM TYPE>  (4848) 
MS1

>  <INSTRUMENT TYPE>  (4848) 
EI-B

>  <INSTRUMENT>  (4848) 
JEOL JMS-D-3000

>  <ION MODE>  (4848) 
P

>  <INCHIKEY>  (4848) 
DIOHUZHBUVEMJL-UHFFFAOYSA-N

>  <FORMULA>  (4848) 
C21H36F2Si

>  <EXACT MASS>  (4848) 
354.255434122

>  <MW>  (4848) 
354

>  <ID>  (4848) 
JP004700

>  <CONTRIBUTOR>  (4848) 
University of Tokyo Team, {Faculty of Engineering, University of Tokyo

>  <COMMENT>  (4848) 
SMILES=CC(C)(C)c(c1)cc(C(C)(C)C)c(c1C(C)(C)C)[Si](F)(F)C(C)C
InChI=InChI=1S/C21H36F2Si/c1-14(2)24(22,23)18-16(20(6,7)8)12-15(19(3,4)5)13-17(18)21(9,10)11/h12-14H,1-11H3
computed SMILES=F[Si](F)(C=1C(=CC(=CC1C(C)(C)C)C(C)(C)C)C(C)(C)C)C(C)C
accession=JP004700
date=2016.01.19 (Created 2008.10.21, modified 2011.05.06)
author=MASS SPECTROSCOPY SOC. OF JAPAN (MSSJ)
license=CC BY-NC-SA
exact mass=354.25543
ionization energy=70 eV
ion type=[M]+*
computed spectral entropy=1.7064960796790523
computed normalized entropy=0.5795657820567757
SPLASH=splash10-053r-4090000000-e75bb9cae1cd7588a09c
submitter=submitter = University of Tokyo Team (Faculty of Engineering, University of Tokyo)
MoNA Rating=3.75

>  <NUM PEAKS>  (4848) 
19

>  <MASS SPECTRAL PEAKS>  (4848) 
43 2.58
55 1.84
57 61.94
58 2.85
81 4
91 1.36
117 1.12
129 1.02
131 1.38
189 1.17
231 1.52
255 1.12
283 99.99
284 23.54
285 6.08
298 8.58
299 2.06
339 1.64
354 1.73

$$$$

     RDKit          2D

 24 24  0  0  0  0  0  0  0  0999 V2000
   -2.0963    4.7998    0.0000 C   0  0  0  0  0  0  0  0  0  0  0  0
   -3.7663    3.8353    0.0000 C   0  0  0  0  0  0  0  0  0  0  0  0
   -0.4297    5.7452    0.0000 C   0  0  0  0  0  0  0  0  0  0  0  0
    0.5530    2.8098    0.0000 C   0  0  0  0  0  0  0  0  0  0  0  0
   -2.7174    0.0458    0.0000 C   0  0  0  0  0  0  0  0  0  0  0  0
   -1.1170    2.1998    0.0000 C   0  0  0  0  0  0  0  0  0  0  0  0
    3.2925    2.3585    0.0000 C   0  0  0  0  0  0  0  0  0  0  0  0
    3.2925    4.2866    0.0000 C   0  0  0  0  0  0  0  0  0  0  0  0
   -1.5163   -1.0902    0.0000 C   0  0  0  0  0  0  0  0  0  0  0  0
    0.1537   -2.0547    0.0000 C   0  0  0  0  0  0  0  0  0  0  0  0
    2.9103    0.7500    0.0000 C   0  0  0  0  0  0  0  0  0  0  0  0
    0.2442    1.0585    0.0000 C   0  0  0  0  0  0  0  0  0  0  0  0
   -3.1066    2.0226    0.0000 C   0  0  0  0  0  0  0  0  0  0  0  0
   -2.3566    0.7226    0.0000 C   0  0  0  0  0  0  0  0  0  0  0  0
   -0.1066    4.6226    0.0000 C   0  0  0  0  0  0  0  0  0  0  0  0
    1.3934    4.6226    0.0000 C   0  0  0  0  0  0  0  0  0  0  0  0
    1.3934   -0.5774    0.0000 C   0  0  0  0  0  0  0  0  0  0  0  0
    2.1434    0.7226    0.0000 C   0  0  0  0  0  0  0  0  0  0  0  0
   -2.3566    3.3226    0.0000 Si  0  0  0  0  0  4  0  0  0  0  0  0
   -0.8566    3.3226    0.0000 Si  0  0  0  0  0  4  0  0  0  0  0  0
   -0.8566    0.7226    0.0000 Si  0  0  0  0  0  4  0  0  0  0  0  0
    2.1434    3.3226    0.0000 Si  0  0  0  0  0  4  0  0  0  0  0  0
   -0.1066   -0.5774    0.0000 Si  0  0  0  0  0  4  0  0  0  0  0  0
    1.3934    2.0226    0.0000 Si  0  0  0  0  0  4  0  0  0  0  0  0
 14 13  3  0
 16 15  3  0
 18 17  3  0
 19  1  1  0
 19  2  1  0
 19 13  1  0
 20  3  1  0
 20  4  1  0
 20 15  1  0
 20 19  1  0
 21  5  1  0
 21  6  1  0
 21 14  1  0
 22  7  1  0
 22  8  1  0
 22 16  1  0
 23  9  1  0
 23 10  1  0
 23 17  1  0
 23 21  1  0
 24 11  1  0
 24 12  1  0
 24 18  1  0
 24 22  1  0
M  END
>  <NAME>  (4849) 
1,1,2,2,5,5,6,6,9,9,10,10-DODECAMETHYL-1,2,5,6,9,10-HEXASILA-3,7,11-CYCLODODECATRIYNE

>  <SYNONYMS>  (4849) 
DODECAMETHYL-3,4,7,8,11,12-HEXASILACYCLODODECA-1,5,9-TRIYNE

>  <SPECTRUM TYPE>  (4849) 
MS1

>  <INSTRUMENT TYPE>  (4849) 
EI-B

>  <INSTRUMENT>  (4849) 
Unknown

>  <ION MODE>  (4849) 
P

>  <INCHIKEY>  (4849) 
QDTVPSUSAHRZKV-UHFFFAOYSA-N

>  <FORMULA>  (4849) 
C18H36Si6

>  <EXACT MASS>  (4849) 
420.143260332

>  <MW>  (4849) 
420

>  <ID>  (4849) 
JP004699

>  <CONTRIBUTOR>  (4849) 
University of Tokyo Team, {Faculty of Engineering, University of Tokyo

>  <COMMENT>  (4849) 
SMILES=C[Si](C)(C#1)[Si](C)(C)C#C[Si](C)(C)[Si](C)(C)C#C[Si](C)(C)[Si](C)(C)C1
InChI=InChI=1S/C18H36Si6/c1-19(2)13-14-21(5,6)23(9,10)17-18-24(11,12)22(7,8)16-15-20(19,3)4/h1-12H3
computed SMILES=C1#C[Si](C)(C)[Si](C#C[Si](C)(C)[Si](C#C[Si](C)(C)[Si]1(C)C)(C)C)(C)C
accession=JP004699
date=2016.01.19 (Created 2008.10.21, modified 2011.05.06)
author=MASS SPECTROSCOPY SOC. OF JAPAN (MSSJ)
license=CC BY-NC-SA
exact mass=420.14326
ionization energy=70 eV
ion type=[M]+*
computed spectral entropy=3.017472074126179
computed normalized entropy=0.7753369485202285
SPLASH=splash10-05fr-9601400000-737a6ea3cf6fffb1aa13
submitter=submitter = University of Tokyo Team (Faculty of Engineering, University of Tokyo)
MoNA Rating=3.75

>  <NUM PEAKS>  (4849) 
49

>  <MASS SPECTRAL PEAKS>  (4849) 
43 3.17
45 7.5
59 4.4
67 2.07
73 99.99
74 8.93
75 3.9
83 8.57
85 2.84
97 9.75
99 6.01
101 3.77
109 2.29
111 3.25
113 3.01
115 2.1
116 39.61
117 6.38
118 3.1
123 3.86
125 7.55
126 1.27
127 2.34
129 2.98
139 2.16
141 3.83
153 3.26
155 11.28
156 2.09
157 1.89
165 2.38
167 2.18
177 2.2
183 6.47
191 2.01
207 2.93
231 2.12
235 2.63
259 3.01
265 3.48
289 3.1
307 2.22
317 2.91
331 2.62
333 2.13
347 17.22
361 5.78
405 62.03
420 16.63

$$$$

     RDKit          2D

 27 27  0  0  0  0  0  0  0  0999 V2000
   -1.8451    3.9882    0.0000 C   0  0  0  0  0  0  0  0  0  0  0  0
   -3.0700    3.6603    0.0000 C   0  0  0  0  0  0  0  0  0  0  0  0
   -0.6670    1.5494    0.0000 C   0  0  0  0  0  0  0  0  0  0  0  0
    1.4468    1.3608    0.0000 C   0  0  0  0  0  0  0  0  0  0  0  0
   -4.3700   -0.8881    0.0000 C   0  0  0  0  0  0  0  0  0  0  0  0
   -2.4419   -0.8881    0.0000 C   0  0  0  0  0  0  0  0  0  0  0  0
    3.5968   -0.3986    0.0000 C   0  0  0  0  0  0  0  0  0  0  0  0
    4.5613    1.2714    0.0000 C   0  0  0  0  0  0  0  0  0  0  0  0
    0.6713    0.0008    0.0000 C   0  0  0  0  0  0  0  0  0  0  0  0
   -1.4827   -1.5996    0.0000 C   0  0  0  0  0  0  0  0  0  0  0  0
    2.2968   -2.6486    0.0000 C   0  0  0  0  0  0  0  0  0  0  0  0
    3.2841   -1.2391    0.0000 C   0  0  0  0  0  0  0  0  0  0  0  0
   -4.7059    2.5111    0.0000 C   0  0  0  0  0  0  0  0  0  0  0  0
   -4.7059    1.0111    0.0000 C   0  0  0  0  0  0  0  0  0  0  0  0
    1.7841    3.2611    0.0000 C   0  0  0  0  0  0  0  0  0  0  0  0
    3.0841    2.5111    0.0000 C   0  0  0  0  0  0  0  0  0  0  0  0
   -0.8059   -1.2389    0.0000 C   0  0  0  0  0  0  0  0  0  0  0  0
    0.4841   -1.9889    0.0000 C   0  0  0  0  0  0  0  0  0  0  0  0
   -0.8059    3.2611    0.0000 O   0  0  0  0  0  0  0  0  0  0  0  0
   -2.1059    1.0111    0.0000 O   0  0  0  0  0  0  0  0  0  0  0  0
    1.7841    0.2611    0.0000 O   0  0  0  0  0  0  0  0  0  0  0  0
   -2.1059    2.5111    0.0000 Si  0  0  0  0  0  4  0  0  0  0  0  0
    0.4841    2.5111    0.0000 Si  0  0  0  0  0  4  0  0  0  0  0  0
   -3.4059    0.2611    0.0000 Si  0  0  0  0  0  4  0  0  0  0  0  0
    3.0841    1.0111    0.0000 Si  0  0  0  0  0  4  0  0  0  0  0  0
   -0.8059    0.2611    0.0000 Si  0  0  0  0  0  4  0  0  0  0  0  0
    1.7841   -1.2389    0.0000 Si  0  0  0  0  0  4  0  0  0  0  0  0
 14 13  3  0
 16 15  3  0
 18 17  3  0
 22  1  1  0
 22  2  1  0
 22 13  1  0
 22 19  1  0
 23  3  1  0
 23  4  1  0
 23 15  1  0
 23 19  1  0
 24  5  1  0
 24  6  1  0
 24 14  1  0
 24 20  1  0
 25  7  1  0
 25  8  1  0
 25 16  1  0
 25 21  1  0
 26  9  1  0
 26 10  1  0
 26 17  1  0
 26 20  1  0
 27 11  1  0
 27 12  1  0
 27 18  1  0
 27 21  1  0
M  END
>  <NAME>  (4850) 
2,2,5,5,7,7,10,10,12,12,15,15-DODECAMETHYL-1,6,11-TRIOXA-2,5,7,10,12,15-HEXASILA-3,8,13-CYCLOPENTADECATRIYNE

>  <SYNONYMS>  (4850) 
DODECAMETHYL-4,9,14-TRIOXA-3,5,8,10,13,15-HEXASILACYCLOPENTADECA-1,6,11-TRIYNE

>  <SPECTRUM TYPE>  (4850) 
MS1

>  <INSTRUMENT TYPE>  (4850) 
EI-B

>  <INSTRUMENT>  (4850) 
Unknown

>  <ION MODE>  (4850) 
P

>  <INCHIKEY>  (4850) 
FVXVINSCAYJVGZ-UHFFFAOYSA-N

>  <FORMULA>  (4850) 
C18H36O3Si6

>  <EXACT MASS>  (4850) 
468.128004192

>  <MW>  (4850) 
468

>  <ID>  (4850) 
JP004698

>  <CONTRIBUTOR>  (4850) 
University of Tokyo Team, {Faculty of Engineering, University of Tokyo

>  <COMMENT>  (4850) 
SMILES=C[Si](C)(C#1)O[Si](C)(C)C#C[Si](C)(C)O[Si](C)(C)C#C[Si](C)(C)O[Si](C)(C)C1
InChI=InChI=1S/C18H36O3Si6/c1-22(2)13-14-24(5,6)20-26(9,10)17-18-27(11,12)21-25(7,8)16-15-23(3,4)19-22/h1-12H3
computed SMILES=C1#C[Si](O[Si](C#C[Si](O[Si](C#C[Si](O[Si]1(C)C)(C)C)(C)C)(C)C)(C)C)(C)C
accession=JP004698
date=2016.01.19 (Created 2008.10.21, modified 2011.05.06)
author=MASS SPECTROSCOPY SOC. OF JAPAN (MSSJ)
license=CC BY-NC-SA
exact mass=468.128
ionization energy=70 eV
ion type=[M]+*
computed spectral entropy=2.7359073153761093
computed normalized entropy=0.6858656949838031
SPLASH=splash10-0uk9-4101900000-a7c420ad482a9b68d5ba
submitter=submitter = University of Tokyo Team (Faculty of Engineering, University of Tokyo)
MoNA Rating=3.75

>  <NUM PEAKS>  (4850) 
54

>  <MASS SPECTRAL PEAKS>  (4850) 
45 2.75
59 1.78
73 85.6
74 7.92
75 3.3
83 3.91
97 5.77
117 1.38
131 1.36
133 1.08
141 2.59
147 6.35
148 1.05
155 4.12
157 3.35
179 1.17
189 1.26
207 5.57
208 1.15
215 1.44
219 5.9
220 2.83
223 1.18
231 1.2
247 1.25
297 1.47
321 1.26
365 12.76
366 5.13
367 3.27
368 1.01
379 1.57
380 1.37
381 3.5
382 1.5
383 3.14
384 1.16
385 1.47
394 1.04
395 1.85
396 1.03
423 1.49
437 1.64
438 1
453 99.99
454 50.46
455 32.96
456 11.45
457 4.33
468 2.92
469 1.54
470 1
471 1.57
473 1.05

$$$$

     RDKit          2D

 18 17  0  0  0  0  0  0  0  0999 V2000
    0.9981   -0.8017    0.0000 C   0  0  0  0  0  0  0  0  0  0  0  0
   -0.5019    1.7964    0.0000 C   0  0  0  0  0  0  0  0  0  0  0  0
   -1.0509   -0.2526    0.0000 C   0  0  0  0  0  0  0  0  0  0  0  0
   -0.5019    2.6783    0.0000 C   0  0  0  0  0  0  0  0  0  0  0  0
   -1.0509    4.7274    0.0000 C   0  0  0  0  0  0  0  0  0  0  0  0
    0.9981    5.2764    0.0000 C   0  0  0  0  0  0  0  0  0  0  0  0
    2.0962   -0.8017    0.0000 C   0  0  0  0  0  0  0  0  0  0  0  0
    4.1452   -0.2526    0.0000 C   0  0  0  0  0  0  0  0  0  0  0  0
    2.5119    5.5164    0.0000 C   0  0  0  0  0  0  0  0  0  0  0  0
    4.5609    4.9674    0.0000 C   0  0  0  0  0  0  0  0  0  0  0  0
    1.5472    1.2474    0.0000 C   0  0  0  0  0  0  0  0  0  0  0  0
    1.5472    3.2274    0.0000 C   0  0  0  0  0  0  0  0  0  0  0  0
    3.5962    1.7964    0.0000 F   0  0  0  0  0  0  0  0  0  0  0  0
    4.0119    2.9183    0.0000 F   0  0  0  0  0  0  0  0  0  0  0  0
    0.2481    0.4974    0.0000 Si  0  0  0  0  0  4  0  0  0  0  0  0
    0.2481    3.9774    0.0000 Si  0  0  0  0  0  4  0  0  0  0  0  0
    2.8462    0.4974    0.0000 Si  0  0  0  0  0  4  0  0  0  0  0  0
    3.2619    4.2174    0.0000 Si  0  0  0  0  0  4  0  0  0  0  0  0
 11 12  2  0
 15  1  1  0
 15  2  1  0
 15  3  1  0
 15 11  1  0
 16  4  1  0
 16  5  1  0
 16  6  1  0
 16 12  1  0
 17  7  1  0
 17  8  1  0
 17 11  1  0
 17 13  1  0
 18  9  1  0
 18 10  1  0
 18 12  1  0
 18 14  1  0
M  END
>  <NAME>  (4851) 
(Z)-1,2-BIS(FLUORODIMETHYLSILYL)-1,2-BIS(TRIMETHYLSILYL)ETHYLENE

>  <SYNONYMS>  (4851) 


>  <SPECTRUM TYPE>  (4851) 
MS1

>  <INSTRUMENT TYPE>  (4851) 
EI-B

>  <INSTRUMENT>  (4851) 
Unknown

>  <ION MODE>  (4851) 
P

>  <INCHIKEY>  (4851) 
FPBYTAWRHHCVKE-QXMHVHEDSA-N

>  <FORMULA>  (4851) 
C12H30F2Si4

>  <EXACT MASS>  (4851) 
324.13926352

>  <MW>  (4851) 
324

>  <ID>  (4851) 
JP004697

>  <CONTRIBUTOR>  (4851) 
University of Tokyo Team, {Faculty of Engineering, University of Tokyo

>  <COMMENT>  (4851) 
SMILES=C[Si](C)(C)C([Si](C)(C)F)=C([Si](C)(C)C)[Si](C)(C)F
InChI=InChI=1S/C12H30F2Si4/c1-15(2,3)11(17(7,8)13)12(16(4,5)6)18(9,10)14/h1-10H3/b12-11-
computed SMILES=F[Si](C(=C([Si](F)(C)C)[Si](C)(C)C)[Si](C)(C)C)(C)C
accession=JP004697
license=CC BY-NC-SA
date=2016.01.19 (Created 2008.10.21, modified 2011.05.06)
author=MASS SPECTROSCOPY SOC. OF JAPAN (MSSJ)
exact mass=324.13926
ionization energy=70 eV
ion type=[M]+*
computed spectral entropy=3.1049512334346927
computed normalized entropy=0.7583512296653314
SPLASH=splash10-05gl-5921000000-a9f0a870c7229522928a
submitter=submitter = University of Tokyo Team (Faculty of Engineering, University of Tokyo)
MoNA Rating=3.75

>  <NUM PEAKS>  (4851) 
60

>  <MASS SPECTRAL PEAKS>  (4851) 
43 2.72
44 2.47
45 10.3
47 1.16
49 1.11
58 1.65
59 1.89
71 0.97
72 2.47
73 99.99
74 6.95
75 4.66
77 5.2
83 2.81
85 0.92
96 1.16
97 4.66
99 1.16
101 1.02
115 1.6
116 1.7
119 1.02
125 2.33
129 1.26
131 42.68
132 6.66
133 3.74
135 2.67
139 1.6
140 58.19
141 9.38
142 4.32
143 1.55
144 0.92
145 1.21
149 1.84
153 0.97
155 33.64
156 5.54
157 3.3
159 33.59
160 5.25
161 2.81
163 2.96
217 15.21
218 3.59
219 1.94
221 1.36
232 35.14
233 9.57
234 4.66
235 1.21
236 2.09
247 0.92
251 1.4
309 15.5
310 4.91
311 2.86
324 3.54
325 1.36

$$$$

     RDKit          2D

 12 13  0  0  0  0  0  0  0  0999 V2000
    3.2476   -0.0550    0.0000 C   0  0  0  0  0  0  0  0  0  0  0  0
   -3.2476    3.6950    0.0000 C   0  0  0  0  0  0  0  0  0  0  0  0
    3.2481    1.4458    0.0000 C   0  0  0  0  0  0  0  0  0  0  0  0
    1.9481   -0.8058    0.0000 C   0  0  0  0  0  0  0  0  0  0  0  0
   -3.2481    2.1942    0.0000 C   0  0  0  0  0  0  0  0  0  0  0  0
   -1.9481    4.4458    0.0000 C   0  0  0  0  0  0  0  0  0  0  0  0
    1.9490    2.1958    0.0000 C   0  0  0  0  0  0  0  0  0  0  0  0
    0.6490   -0.0558    0.0000 C   0  0  0  0  0  0  0  0  0  0  0  0
   -1.9490    1.4442    0.0000 C   0  0  0  0  0  0  0  0  0  0  0  0
   -0.6490    3.6958    0.0000 C   0  0  0  0  0  0  0  0  0  0  0  0
    0.6495    1.4450    0.0000 C   0  0  0  0  0  0  0  0  0  0  0  0
   -0.6495    2.1950    0.0000 C   0  0  0  0  0  0  0  0  0  0  0  0
  3  1  2  0
  4  1  1  0
  5  2  2  0
  6  2  1  0
  7  3  1  0
  8  4  2  0
  9  5  1  0
 10  6  2  0
 11  7  2  0
 11  8  1  0
 12  9  2  0
 12 10  1  0
 12 11  1  0
M  END
>  <NAME>  (4852) 
DIPHENYL

>  <SYNONYMS>  (4852) 
1,11-BIPHENYL

>  <SPECTRUM TYPE>  (4852) 
MS1

>  <INSTRUMENT TYPE>  (4852) 
EI-B

>  <INSTRUMENT>  (4852) 
JEOL JMS-D-3000

>  <ION MODE>  (4852) 
P

>  <INCHIKEY>  (4852) 
ZUOUZKKEUPVFJK-UHFFFAOYSA-N

>  <FORMULA>  (4852) 
C12H10

>  <EXACT MASS>  (4852) 
154.07825032

>  <MW>  (4852) 
154

>  <ID>  (4852) 
JP004696

>  <CONTRIBUTOR>  (4852) 
University of Tokyo Team, {Faculty of Engineering, University of Tokyo

>  <COMMENT>  (4852) 
SMILES=c(c2)ccc(c2)c(c1)cccc1
cas=92-52-4
InChI=InChI=1S/C12H10/c1-3-7-11(8-4-1)12-9-5-2-6-10-12/h1-10H
computed SMILES=C=1C=CC(=CC1)C=2C=CC=CC2
accession=JP004696
date=2016.01.19 (Created 2008.10.21, modified 2011.05.06)
author=MASS SPECTROSCOPY SOC. OF JAPAN (MSSJ)
license=CC BY-NC-SA
exact mass=154.07825
ionization energy=70 eV
ion type=[M]+*
computed spectral entropy=2.2009210060960296
computed normalized entropy=0.7019375111313432
SPLASH=splash10-0udi-2900000000-59a470228d72016ea76f
submitter=submitter = University of Tokyo Team (Faculty of Engineering, University of Tokyo)
MoNA Rating=3.75

>  <NUM PEAKS>  (4852) 
23

>  <MASS SPECTRAL PEAKS>  (4852) 
50 2.37
51 5.47
52 1.19
63 4.7
64 6.31
74 1.68
75 2.57
76 17.43
77 8.62
78 1.08
89 1.2
102 2.43
115 4.21
126 2.16
127 2.61
128 3.1
139 1.71
150 1.9
151 6.44
152 22.78
153 32.97
154 99.99
155 13.23

$$$$

     RDKit          2D

  8  7  0  0  0  0  0  0  0  0999 V2000
   -6.4952    4.5000    0.0000 C   0  0  0  0  0  0  0  0  0  0  0  0
    2.5981    3.7500    0.0000 C   0  0  0  0  0  0  0  0  0  0  0  0
   -5.1962    3.7500    0.0000 C   0  0  0  0  0  0  0  0  0  0  0  0
    1.2990    4.5000    0.0000 C   0  0  0  0  0  0  0  0  0  0  0  0
   -3.8971    4.5000    0.0000 C   0  0  0  0  0  0  0  0  0  0  0  0
    0.0000    3.7500    0.0000 C   0  0  0  0  0  0  0  0  0  0  0  0
   -2.5981    3.7500    0.0000 C   0  0  0  0  0  0  0  0  0  0  0  0
   -1.2990    4.5000    0.0000 C   0  0  0  0  0  0  0  0  0  0  0  0
  3  1  1  0
  4  2  1  0
  5  3  1  0
  6  4  1  0
  7  5  1  0
  8  6  1  0
  8  7  1  0
M  END
>  <NAME>  (4853) 
OCTANE

>  <SYNONYMS>  (4853) 


>  <SPECTRUM TYPE>  (4853) 
MS1

>  <INSTRUMENT TYPE>  (4853) 
EI-B

>  <INSTRUMENT>  (4853) 
JEOL JMS-D-3000

>  <ION MODE>  (4853) 
P

>  <INCHIKEY>  (4853) 
TVMXDCGIABBOFY-UHFFFAOYSA-N

>  <FORMULA>  (4853) 
C8H18

>  <EXACT MASS>  (4853) 
114.14085057599999

>  <MW>  (4853) 
114

>  <ID>  (4853) 
JP004695

>  <CONTRIBUTOR>  (4853) 
University of Tokyo Team, {Faculty of Engineering, University of Tokyo

>  <COMMENT>  (4853) 
SMILES=CCCCCCCC
cas=111-65-9
InChI=InChI=1S/C8H18/c1-3-5-7-8-6-4-2/h3-8H2,1-2H3
computed SMILES=CCCCCCCC
accession=JP004695
date=2016.01.19 (Created 2008.10.21, modified 2011.05.06)
author=MASS SPECTROSCOPY SOC. OF JAPAN (MSSJ)
license=CC BY-NC-SA
exact mass=114.14085
ionization energy=70 eV
ion type=[M]+*
computed spectral entropy=2.5005128491616238
computed normalized entropy=0.7868063231917811
SPLASH=splash10-052o-9000000000-dff2329c36bee36d9e67
submitter=submitter = University of Tokyo Team (Faculty of Engineering, University of Tokyo)
MoNA Rating=3.75

>  <NUM PEAKS>  (4853) 
24

>  <MASS SPECTRAL PEAKS>  (4853) 
42 14.07
43 99.99
44 2.54
45 4.03
53 1.58
55 19.83
56 25.78
57 56.51
58 6.03
59 4.44
69 5.22
70 20.51
71 34.27
72 2.17
74 2.85
83 1.86
84 15.56
85 60
86 3.81
97 14.34
98 1.58
99 1.22
112 3.76
114 12.48

$$$$

     RDKit          2D

  8  8  0  0  0  0  0  0  0  0999 V2000
    3.5281    0.5404    0.0000 C   0  0  0  0  0  0  0  0  0  0  0  0
   -1.6700   -0.9600    0.0000 C   0  0  0  0  0  0  0  0  0  0  0  0
   -1.6700    0.5400    0.0000 C   0  0  0  0  0  0  0  0  0  0  0  0
   -0.3700   -1.7100    0.0000 C   0  0  0  0  0  0  0  0  0  0  0  0
   -0.3700    1.2900    0.0000 C   0  0  0  0  0  0  0  0  0  0  0  0
    0.9300   -0.9600    0.0000 C   0  0  0  0  0  0  0  0  0  0  0  0
    0.9300    0.5400    0.0000 C   0  0  0  0  0  0  0  0  0  0  0  0
    2.2289    1.2902    0.0000 O   0  0  0  0  0  0  0  0  0  0  0  0
  3  2  2  0
  4  2  1  0
  5  3  1  0
  6  4  2  0
  7  5  2  0
  7  6  1  0
  8  1  1  0
  8  7  1  0
M  END
>  <NAME>  (4854) 
METHOXYBENZENE

>  <SYNONYMS>  (4854) 
ANISOLE

>  <SPECTRUM TYPE>  (4854) 
MS1

>  <INSTRUMENT TYPE>  (4854) 
EI-B

>  <INSTRUMENT>  (4854) 
JEOL JMS-D-3000

>  <ION MODE>  (4854) 
P

>  <INCHIKEY>  (4854) 
RDOXTESZEPMUJZ-UHFFFAOYSA-N

>  <FORMULA>  (4854) 
C7H8O

>  <EXACT MASS>  (4854) 
108.057514876

>  <MW>  (4854) 
108

>  <ID>  (4854) 
JP004694

>  <CONTRIBUTOR>  (4854) 
University of Tokyo Team, {Faculty of Engineering, University of Tokyo

>  <COMMENT>  (4854) 
SMILES=COc(c1)cccc1
cas=100-66-3
InChI=InChI=1S/C7H8O/c1-8-7-5-3-2-4-6-7/h2-6H,1H3
computed SMILES=O(C=1C=CC=CC1)C
accession=JP004694
date=2016.01.19 (Created 2008.10.21, modified 2011.05.06)
author=MASS SPECTROSCOPY SOC. OF JAPAN (MSSJ)
license=CC BY-NC-SA
exact mass=108.05751
ionization energy=70 eV
ion type=[M]+*
computed spectral entropy=2.1704844655360382
computed normalized entropy=0.7021852654200457
SPLASH=splash10-0ar0-9500000000-a1231ee8ae74f750d865
submitter=submitter = University of Tokyo Team (Faculty of Engineering, University of Tokyo)
MoNA Rating=3.75

>  <NUM PEAKS>  (4854) 
22

>  <MASS SPECTRAL PEAKS>  (4854) 
50 6.2
51 12.81
52 3.59
53 1.13
62 1.85
63 5.83
64 3.45
65 51.32
66 3.22
74 1.95
75 1.17
76 1.29
77 16.92
78 56.95
79 11.72
80 1.04
92 1.45
93 15.31
94 1.4
107 2.51
108 99.99
109 7.89

$$$$

     RDKit          2D

  7  7  0  0  0  0  0  0  0  0999 V2000
   -0.0000   -1.9300    0.0000 C   0  0  0  0  0  0  0  0  0  0  0  0
    0.0000    2.5700    0.0000 C   0  0  0  0  0  0  0  0  0  0  0  0
   -1.3000    1.8200    0.0000 C   0  0  0  0  0  0  0  0  0  0  0  0
    1.3000    1.8200    0.0000 C   0  0  0  0  0  0  0  0  0  0  0  0
   -1.3000    0.3200    0.0000 C   0  0  0  0  0  0  0  0  0  0  0  0
    1.3000    0.3200    0.0000 C   0  0  0  0  0  0  0  0  0  0  0  0
   -0.0000   -0.4300    0.0000 C   0  0  0  0  0  0  0  0  0  0  0  0
  3  2  2  0
  4  2  1  0
  5  3  1  0
  6  4  2  0
  7  1  1  0
  7  5  2  0
  7  6  1  0
M  END
>  <NAME>  (4855) 
TOLUENE

>  <SYNONYMS>  (4855) 


>  <SPECTRUM TYPE>  (4855) 
MS1

>  <INSTRUMENT TYPE>  (4855) 
EI-B

>  <INSTRUMENT>  (4855) 
JEOL JMS-D-3000

>  <ION MODE>  (4855) 
P

>  <INCHIKEY>  (4855) 
YXFVVABEGXRONW-UHFFFAOYSA-N

>  <FORMULA>  (4855) 
C7H8

>  <EXACT MASS>  (4855) 
92.062600256

>  <MW>  (4855) 
92

>  <ID>  (4855) 
JP004693

>  <CONTRIBUTOR>  (4855) 
University of Tokyo Team, {Faculty of Engineering, University of Tokyo

>  <COMMENT>  (4855) 
SMILES=Cc(c1)cccc1
cas=108-88-3
InChI=InChI=1S/C7H8/c1-7-5-3-2-4-6-7/h2-6H,1H3
computed SMILES=C=1C=CC(=CC1)C
accession=JP004693
date=2016.01.19 (Created 2008.10.21, modified 2011.05.06)
author=MASS SPECTROSCOPY SOC. OF JAPAN (MSSJ)
license=CC BY-NC-SA
exact mass=92.0626
ionization energy=70 eV
ion type=[M]+*
computed spectral entropy=2.2557275018121326
computed normalized entropy=0.7529803386388889
SPLASH=splash10-0006-9000000000-52239a45c9c9b566eb6b
submitter=submitter = University of Tokyo Team (Faculty of Engineering, University of Tokyo)
MoNA Rating=3.75

>  <NUM PEAKS>  (4855) 
20

>  <MASS SPECTRAL PEAKS>  (4855) 
45 8.93
46 9.15
49 1.2
50 11.62
51 22.81
52 6.08
53 3.64
61 5
62 10.23
63 26.93
64 6.08
65 49.52
66 5.25
75 1.07
77 2.02
89 3.8
90 2.28
91 99.99
92 71.54
93 5.41

$$$$

     RDKit          2D

  8  8  0  0  0  0  0  0  0  0999 V2000
   -2.5989   -1.5002    0.0000 C   0  0  0  0  0  0  0  0  0  0  0  0
   -1.3000    0.7500    0.0000 C   0  0  0  0  0  0  0  0  0  0  0  0
   -0.0000   -1.5000    0.0000 C   0  0  0  0  0  0  0  0  0  0  0  0
    0.0000    1.5000    0.0000 C   0  0  0  0  0  0  0  0  0  0  0  0
    1.3000   -0.7500    0.0000 C   0  0  0  0  0  0  0  0  0  0  0  0
   -1.3000   -0.7500    0.0000 C   0  0  0  0  0  0  0  0  0  0  0  0
    1.3000    0.7500    0.0000 C   0  0  0  0  0  0  0  0  0  0  0  0
    2.5989    1.5002    0.0000 Br  0  0  0  0  0  0  0  0  0  0  0  0
  4  2  2  0
  5  3  1  0
  6  1  1  0
  6  2  1  0
  6  3  2  0
  7  4  1  0
  7  5  2  0
  8  7  1  0
M  END
>  <NAME>  (4856) 
PARA-BROMOTOLUENE

>  <SYNONYMS>  (4856) 
4-BROMOTOLUENE

>  <SPECTRUM TYPE>  (4856) 
MS1

>  <INSTRUMENT TYPE>  (4856) 
EI-B

>  <INSTRUMENT>  (4856) 
JEOL JMS-D-3000

>  <ION MODE>  (4856) 
P

>  <INCHIKEY>  (4856) 
ZBTMRBYMKUEVEU-UHFFFAOYSA-N

>  <FORMULA>  (4856) 
C7H7Br

>  <EXACT MASS>  (4856) 
169.973112324

>  <MW>  (4856) 
170

>  <ID>  (4856) 
JP004692

>  <CONTRIBUTOR>  (4856) 
University of Tokyo Team, {Faculty of Engineering, University of Tokyo

>  <COMMENT>  (4856) 
SMILES=Cc(c1)ccc(Br)c1
cas=106-38-7
InChI=InChI=1S/C7H7Br/c1-6-2-4-7(8)5-3-6/h2-5H,1H3
computed SMILES=BrC1=CC=C(C=C1)C
accession=JP004692
date=2016.01.19 (Created 2008.10.21, modified 2011.05.06)
author=MASS SPECTROSCOPY SOC. OF JAPAN (MSSJ)
license=CC BY-NC-SA
exact mass=169.97311
ionization energy=70 eV
ion type=[M]+*
computed spectral entropy=2.2858640455106163
computed normalized entropy=0.7101435935647542
SPLASH=splash10-00dl-8900000000-41a373afcd3528e9670d
submitter=submitter = University of Tokyo Team (Faculty of Engineering, University of Tokyo)
MoNA Rating=3.75

>  <NUM PEAKS>  (4856) 
25

>  <MASS SPECTRAL PEAKS>  (4856) 
44 1.89
45 5.29
50 4.95
51 4.32
61 1.79
62 4.24
63 9.98
64 2.7
65 17.47
66 1.05
74 1.42
75 1.81
76 1.02
85 3.28
86 3.4
87 1.06
89 11.65
90 10.52
91 99.99
92 8.33
169 13.29
170 86.32
171 19.87
172 84.85
173 6.86

$$$$

     RDKit          2D

  8  8  0  0  0  0  0  0  0  0999 V2000
   -0.0000   -3.0000    0.0000 C   0  0  0  0  0  0  0  0  0  0  0  0
   -1.3000    0.7500    0.0000 C   0  0  0  0  0  0  0  0  0  0  0  0
    0.0000    1.5000    0.0000 C   0  0  0  0  0  0  0  0  0  0  0  0
   -1.3000   -0.7500    0.0000 C   0  0  0  0  0  0  0  0  0  0  0  0
    1.3000    0.7500    0.0000 C   0  0  0  0  0  0  0  0  0  0  0  0
    0.0000   -1.5000    0.0000 C   0  0  0  0  0  0  0  0  0  0  0  0
    1.3000   -0.7500    0.0000 C   0  0  0  0  0  0  0  0  0  0  0  0
    2.5989   -1.5002    0.0000 Br  0  0  0  0  0  0  0  0  0  0  0  0
  3  2  2  0
  4  2  1  0
  5  3  1  0
  6  1  1  0
  6  4  2  0
  7  5  2  0
  7  6  1  0
  8  7  1  0
M  END
>  <NAME>  (4857) 
ORTHO-BROMOTOLUENE

>  <SYNONYMS>  (4857) 
2-BROMOTOLUENE

>  <SPECTRUM TYPE>  (4857) 
MS1

>  <INSTRUMENT TYPE>  (4857) 
EI-B

>  <INSTRUMENT>  (4857) 
JEOL JMS-D-3000

>  <ION MODE>  (4857) 
P

>  <INCHIKEY>  (4857) 
QSSXJPIWXQTSIX-UHFFFAOYSA-N

>  <FORMULA>  (4857) 
C7H7Br

>  <EXACT MASS>  (4857) 
169.973112324

>  <MW>  (4857) 
170

>  <ID>  (4857) 
JP004691

>  <CONTRIBUTOR>  (4857) 
University of Tokyo Team, {Faculty of Engineering, University of Tokyo

>  <COMMENT>  (4857) 
SMILES=Cc(c1)c(Br)ccc1
cas=95-46-5
InChI=InChI=1S/C7H7Br/c1-6-4-2-3-5-7(6)8/h2-5H,1H3
computed SMILES=BrC=1C=CC=CC1C
accession=JP004691
date=2016.01.19 (Created 2008.10.21, modified 2011.05.06)
author=MASS SPECTROSCOPY SOC. OF JAPAN (MSSJ)
license=CC BY-NC-SA
exact mass=169.97311
ionization energy=70 eV
ion type=[M]+*
computed spectral entropy=2.3624354285272933
computed normalized entropy=0.7433591608700487
SPLASH=splash10-006x-9500000000-1eab3a6a4824ddea82d3
submitter=submitter = University of Tokyo Team (Faculty of Engineering, University of Tokyo)
MoNA Rating=3.75

>  <NUM PEAKS>  (4857) 
24

>  <MASS SPECTRAL PEAKS>  (4857) 
43 1.66
44 1.34
45 5.14
50 4.54
51 5
52 1.1
61 1.95
62 5.36
63 13.02
64 3.76
65 18.1
74 1.63
75 1.45
85 2.87
86 2.83
89 17.89
90 19.95
91 99.99
92 7.8
169 4.72
170 53.31
171 8.59
172 52.39
173 4.08

$$$$

     RDKit          2D

 10  9  0  0  0  0  0  0  0  0999 V2000
    1.0514   -0.9240    0.0000 C   0  0  0  0  0  0  0  0  0  0  0  0
   -0.4486    1.6740    0.0000 C   0  0  0  0  0  0  0  0  0  0  0  0
    4.9486    1.3260    0.0000 C   0  0  0  0  0  0  0  0  0  0  0  0
    5.4976    3.3750    0.0000 C   0  0  0  0  0  0  0  0  0  0  0  0
    1.6005    1.1250    0.0000 C   0  0  0  0  0  0  0  0  0  0  0  0
    2.8995    1.8750    0.0000 C   0  0  0  0  0  0  0  0  0  0  0  0
   -0.9976   -0.3750    0.0000 F   0  0  0  0  0  0  0  0  0  0  0  0
    3.4486    3.9240    0.0000 F   0  0  0  0  0  0  0  0  0  0  0  0
    0.3014    0.3750    0.0000 Si  0  0  0  0  0  4  0  0  0  0  0  0
    4.1986    2.6250    0.0000 Si  0  0  0  0  0  4  0  0  0  0  0  0
  6  5  3  0
  9  1  1  0
  9  2  1  0
  9  5  1  0
  9  7  1  0
 10  3  1  0
 10  4  1  0
 10  6  1  0
 10  8  1  0
M  END
>  <NAME>  (4858) 
BIS(FLUORODIMETHYLSILYL)ACETYLENE

>  <SYNONYMS>  (4858) 


>  <SPECTRUM TYPE>  (4858) 
MS1

>  <INSTRUMENT TYPE>  (4858) 
EI-B

>  <INSTRUMENT>  (4858) 
Unknown

>  <ION MODE>  (4858) 
P

>  <INCHIKEY>  (4858) 
WLXDJYZDTGKMSI-UHFFFAOYSA-N

>  <FORMULA>  (4858) 
C6H12F2Si2

>  <EXACT MASS>  (4858) 
178.044559884

>  <MW>  (4858) 
178

>  <ID>  (4858) 
JP004690

>  <CONTRIBUTOR>  (4858) 
University of Tokyo Team, {Faculty of Engineering, University of Tokyo

>  <COMMENT>  (4858) 
SMILES=C[Si](C)(F)C#C[Si](C)(C)F
InChI=InChI=1S/C6H12F2Si2/c1-9(2,7)5-6-10(3,4)8/h1-4H3
computed SMILES=F[Si](C#C[Si](F)(C)C)(C)C
accession=JP004690
date=2016.01.19 (Created 2008.10.21, modified 2011.05.06)
author=MASS SPECTROSCOPY SOC. OF JAPAN (MSSJ)
license=CC BY-NC-SA
exact mass=178.04456
ionization energy=70 eV
ion type=[M]+*
computed spectral entropy=2.7698999601607213
computed normalized entropy=0.7670902599201881
SPLASH=splash10-03di-9600000000-0b0c2dd074a0d1f789ac
submitter=submitter = University of Tokyo Team (Faculty of Engineering, University of Tokyo)
MoNA Rating=3.75

>  <NUM PEAKS>  (4858) 
37

>  <MASS SPECTRAL PEAKS>  (4858) 
42 3.36
43 38.7
45 18.28
47 11.7
49 3.78
53 3.58
55 3.46
57 1.21
58 15.94
59 26.08
66 2.16
67 4.94
69 2.94
73 5.71
74 17.74
75 1.49
77 5.75
79 1.05
81 3.88
82 1.88
83 4.13
87 2.43
96 1.98
97 16.16
98 1.95
101 2.11
133 3.78
135 2.47
137 1.51
145 1.16
147 1.21
151 1.51
153 1.51
163 99.99
164 16.61
165 8.14
178 4.37

$$$$

     RDKit          2D

 10  9  0  0  0  0  0  0  0  0999 V2000
    1.3260   -0.6495    0.0000 C   0  0  0  0  0  0  0  0  0  0  0  0
   -0.1740    1.9486    0.0000 C   0  0  0  0  0  0  0  0  0  0  0  0
   -0.7231   -0.1005    0.0000 C   0  0  0  0  0  0  0  0  0  0  0  0
    3.9240    2.3505    0.0000 C   0  0  0  0  0  0  0  0  0  0  0  0
    4.4731    4.3995    0.0000 C   0  0  0  0  0  0  0  0  0  0  0  0
    2.4240    4.9486    0.0000 C   0  0  0  0  0  0  0  0  0  0  0  0
    1.8750    1.3995    0.0000 C   0  0  0  0  0  0  0  0  0  0  0  0
    1.8750    2.8995    0.0000 C   0  0  0  0  0  0  0  0  0  0  0  0
    0.5760    0.6495    0.0000 Si  0  0  0  0  0  4  0  0  0  0  0  0
    3.1740    3.6495    0.0000 Si  0  0  0  0  0  4  0  0  0  0  0  0
  8  7  2  3
  9  1  1  0
  9  2  1  0
  9  3  1  0
  9  7  1  0
 10  4  1  0
 10  5  1  0
 10  6  1  0
 10  8  1  0
M  END
>  <NAME>  (4859) 
1,2-BIS(TRIMETHYLSILYL)ETHENE

>  <SYNONYMS>  (4859) 


>  <SPECTRUM TYPE>  (4859) 
MS1

>  <INSTRUMENT TYPE>  (4859) 
EI-B

>  <INSTRUMENT>  (4859) 
JEOL JMS-D-3000

>  <ION MODE>  (4859) 
P

>  <INCHIKEY>  (4859) 
AMGXUPKDZBCKPF-UHFFFAOYSA-N

>  <FORMULA>  (4859) 
C8H20Si2

>  <EXACT MASS>  (4859) 
172.1103537

>  <MW>  (4859) 
172

>  <ID>  (4859) 
JP004689

>  <CONTRIBUTOR>  (4859) 
University of Tokyo Team, {Faculty of Engineering, University of Tokyo

>  <COMMENT>  (4859) 
SMILES=C[Si](C)(C)C=C[Si](C)(C)C
InChI=InChI=1S/C8H20Si2/c1-9(2,3)7-8-10(4,5)6/h7-8H,1-6H3
computed SMILES=C(=C[Si](C)(C)C)[Si](C)(C)C
computed InChI=InChI=1S/C8H20Si2/c1-9(2,3)7-8-10(4,5)6/h7-8H,1-6H3/b8-7+
accession=JP004689
date=2016.01.19 (Created 2008.10.21, modified 2011.05.06)
author=MASS SPECTROSCOPY SOC. OF JAPAN (MSSJ)
license=CC BY-NC-SA
exact mass=172.11035
ionization energy=70 eV
ion type=[M]+*
computed spectral entropy=2.0427172838730887
computed normalized entropy=0.6937543275056678
SPLASH=splash10-00di-9300000000-3cdccd591d0dbabed314
submitter=submitter = University of Tokyo Team (Faculty of Engineering, University of Tokyo)
MoNA Rating=3.75

>  <NUM PEAKS>  (4859) 
19

>  <MASS SPECTRAL PEAKS>  (4859) 
43 3.5
45 8.58
58 1.41
59 3.56
71 1.67
73 99.99
74 8.99
75 4
83 4.69
84 1.45
98 3.57
99 17.25
100 2.05
157 28.75
158 5.27
159 2.4
172 22.3
173 4.18
174 1.89

$$$$

     RDKit          2D

  9  8  0  0  0  0  0  0  0  0999 V2000
    2.5981    4.5000    0.0000 C   0  0  0  0  0  0  0  0  0  0  0  0
    1.2990    5.2500    0.0000 C   0  0  0  0  0  0  0  0  0  0  0  0
    0.0000    4.5000    0.0000 C   0  0  0  0  0  0  0  0  0  0  0  0
   -1.2990    5.2500    0.0000 C   0  0  0  0  0  0  0  0  0  0  0  0
   -2.5981    4.5000    0.0000 C   0  0  0  0  0  0  0  0  0  0  0  0
   -3.8971    5.2500    0.0000 C   0  0  0  0  0  0  0  0  0  0  0  0
   -5.1962    4.5000    0.0000 C   0  0  0  0  0  0  0  0  0  0  0  0
   -6.4952    5.2500    0.0000 C   0  0  0  0  0  0  0  0  0  0  0  0
   -7.7942    4.5000    0.0000 N   0  0  0  0  0  0  0  0  0  0  0  0
  2  1  1  0
  3  2  1  0
  4  3  1  0
  5  4  1  0
  6  5  1  0
  7  6  1  0
  8  7  1  0
  9  8  1  0
M  END
>  <NAME>  (4860) 
OCTYLAMINE

>  <SYNONYMS>  (4860) 
1-OCTANAMINE

>  <SPECTRUM TYPE>  (4860) 
MS1

>  <INSTRUMENT TYPE>  (4860) 
EI-B

>  <INSTRUMENT>  (4860) 
JEOL JMS-D-3000

>  <ION MODE>  (4860) 
P

>  <INCHIKEY>  (4860) 
IOQPZZOEVPZRBK-UHFFFAOYSA-N

>  <FORMULA>  (4860) 
C8H19N

>  <EXACT MASS>  (4860) 
129.151749608

>  <MW>  (4860) 
129

>  <ID>  (4860) 
JP004688

>  <CONTRIBUTOR>  (4860) 
University of Tokyo Team, {Faculty of Engineering, University of Tokyo

>  <COMMENT>  (4860) 
SMILES=CCCCCCCCN
cas=111-86-4
InChI=InChI=1S/C8H19N/c1-2-3-4-5-6-7-8-9/h2-9H2,1H3
computed SMILES=NCCCCCCCC
accession=JP004688
date=2016.01.19 (Created 2008.10.21, modified 2011.05.06)
author=MASS SPECTROSCOPY SOC. OF JAPAN (MSSJ)
license=CC BY-NC-SA
exact mass=129.15175
ionization energy=70 eV
ion type=[M]+*
computed spectral entropy=2.9195300700965223
computed normalized entropy=0.8583830170625841
SPLASH=splash10-0006-9100000000-c0c97bb23194955f2ecf
submitter=submitter = University of Tokyo Team (Faculty of Engineering, University of Tokyo)
MoNA Rating=3.75

>  <NUM PEAKS>  (4860) 
30

>  <MASS SPECTRAL PEAKS>  (4860) 
41 96.06
42 32.8
43 50.43
44 99.99
45 73.17
53 6.48
54 5.56
55 46.44
56 38.11
57 11.85
58 4.39
59 19
67 4.64
68 4.75
69 32.95
70 18.9
71 3.47
72 17.42
73 6.94
82 3.78
83 12.77
84 10.98
86 44.71
87 5.31
100 21.25
112 4.7
114 3.67
128 9.29
129 35.25
130 5.21

$$$$

     RDKit          2D

 12 11  0  0  0  0  0  0  0  0999 V2000
    2.5478    3.0870    0.0000 C   0  0  0  0  0  0  0  0  0  0  0  0
   -3.1974    5.1361    0.0000 C   0  0  0  0  0  0  0  0  0  0  0  0
   -5.2464    4.5870    0.0000 C   0  0  0  0  0  0  0  0  0  0  0  0
   -4.6974    2.5380    0.0000 C   0  0  0  0  0  0  0  0  0  0  0  0
    1.2488    3.8370    0.0000 C   0  0  0  0  0  0  0  0  0  0  0  0
   -0.0502    3.0870    0.0000 C   0  0  0  0  0  0  0  0  0  0  0  0
   -1.3493    3.8370    0.0000 C   0  0  0  0  0  0  0  0  0  0  0  0
   -1.3493    5.3370    0.0000 C   0  0  0  0  0  0  0  0  0  0  0  0
   -2.6483    6.0870    0.0000 Cl  0  0  0  0  0  0  0  0  0  0  0  0
   -0.0502    6.0870    0.0000 Cl  0  0  0  0  0  0  0  0  0  0  0  0
   -2.6483    3.0870    0.0000 O   0  0  0  0  0  0  0  0  0  0  0  0
   -3.9474    3.8370    0.0000 Si  0  0  0  0  0  4  0  0  0  0  0  0
  5  1  1  0
  6  5  1  0
  7  6  1  0
  8  7  1  0
  9  8  1  0
 10  8  1  0
 11  7  1  0
 12  2  1  0
 12  3  1  0
 12  4  1  0
 12 11  1  0
M  END
>  <NAME>  (4861) 
1,1-DICHLORO-2-TRIMETHYLSILOXYPENTANE

>  <SYNONYMS>  (4861) 


>  <SPECTRUM TYPE>  (4861) 
MS1

>  <INSTRUMENT TYPE>  (4861) 
EI-B

>  <INSTRUMENT>  (4861) 
JEOL JMS-D-3000

>  <ION MODE>  (4861) 
P

>  <INCHIKEY>  (4861) 
HKBOWMWBSOSAMJ-UHFFFAOYSA-N

>  <FORMULA>  (4861) 
C8H18Cl2OSi

>  <EXACT MASS>  (4861) 
228.05039708599998

>  <MW>  (4861) 
228

>  <ID>  (4861) 
JP004687

>  <CONTRIBUTOR>  (4861) 
University of Tokyo Team, {Faculty of Engineering, University of Tokyo

>  <COMMENT>  (4861) 
SMILES=CCCC(C(Cl)Cl)O[Si](C)(C)C
InChI=InChI=1S/C8H18Cl2OSi/c1-5-6-7(8(9)10)11-12(2,3)4/h7-8H,5-6H2,1-4H3
computed SMILES=ClC(Cl)C(O[Si](C)(C)C)CCC
accession=JP004687
date=2016.01.19 (Created 2008.10.21, modified 2011.05.06)
author=MASS SPECTROSCOPY SOC. OF JAPAN (MSSJ)
license=CC BY-NC-SA
exact mass=228.0504
ionization energy=70 eV
ion type=[M]+*
computed spectral entropy=2.712084984047669
computed normalized entropy=0.8228820461419363
SPLASH=splash10-00dj-9500000000-2d198fe6b26d235ac3db
submitter=submitter = University of Tokyo Team (Faculty of Engineering, University of Tokyo)
MoNA Rating=3.75

>  <NUM PEAKS>  (4861) 
27

>  <MASS SPECTRAL PEAKS>  (4861) 
41 9.38
45 9.9
57 14.77
65 3.33
67 15.92
73 99.99
74 10.47
75 11.17
79 4.07
85 4.36
93 49.57
94 4.5
95 21.78
103 24.27
105 6.48
123 6.35
145 67.58
146 10.01
147 3.36
171 5.46
173 3.74
177 13.73
179 5.06
185 7.82
187 5.08
213 6.73
215 4.46

$$$$

     RDKit          2D

 12 11  0  0  0  0  0  0  0  0999 V2000
   -6.3212    3.8505    0.0000 C   0  0  0  0  0  0  0  0  0  0  0  0
   -0.5760    1.8014    0.0000 C   0  0  0  0  0  0  0  0  0  0  0  0
    1.4731    2.3505    0.0000 C   0  0  0  0  0  0  0  0  0  0  0  0
    0.9240    4.3995    0.0000 C   0  0  0  0  0  0  0  0  0  0  0  0
   -5.0221    3.1005    0.0000 C   0  0  0  0  0  0  0  0  0  0  0  0
   -3.7231    3.8505    0.0000 C   0  0  0  0  0  0  0  0  0  0  0  0
   -2.4240    3.1005    0.0000 C   0  0  0  0  0  0  0  0  0  0  0  0
   -1.1250    3.8505    0.0000 C   0  0  0  0  0  0  0  0  0  0  0  0
   -0.1608    4.9995    0.0000 Cl  0  0  0  0  0  0  0  0  0  0  0  0
   -2.0892    4.9995    0.0000 Cl  0  0  0  0  0  0  0  0  0  0  0  0
   -2.4240    1.6005    0.0000 O   0  0  0  0  0  0  0  0  0  0  0  0
    0.1740    3.1005    0.0000 Si  0  0  0  0  0  4  0  0  0  0  0  0
  5  1  1  0
  6  5  1  0
  7  6  1  0
  8  7  1  0
  9  8  1  0
 10  8  1  0
 11  7  1  0
 12  2  1  0
 12  3  1  0
 12  4  1  0
 12  8  1  0
M  END
>  <NAME>  (4862) 
1,1-DICHLORO-1-TRIMETHYLSILYL-2-PENTANOL

>  <SYNONYMS>  (4862) 


>  <SPECTRUM TYPE>  (4862) 
MS1

>  <INSTRUMENT TYPE>  (4862) 
EI-B

>  <INSTRUMENT>  (4862) 
JEOL JMS-D-3000

>  <ION MODE>  (4862) 
P

>  <INCHIKEY>  (4862) 
LPDRWGIWGCOOKJ-UHFFFAOYSA-N

>  <FORMULA>  (4862) 
C8H18Cl2OSi

>  <EXACT MASS>  (4862) 
228.05039708599998

>  <MW>  (4862) 
228

>  <ID>  (4862) 
JP004686

>  <CONTRIBUTOR>  (4862) 
University of Tokyo Team, {Faculty of Engineering, University of Tokyo

>  <COMMENT>  (4862) 
SMILES=CCCC(O)C(Cl)(Cl)[Si](C)(C)C
InChI=InChI=1S/C8H18Cl2OSi/c1-5-6-7(11)8(9,10)12(2,3)4/h7,11H,5-6H2,1-4H3
computed SMILES=ClC(Cl)(C(O)CCC)[Si](C)(C)C
accession=JP004686
date=2016.01.19 (Created 2008.10.21, modified 2011.05.06)
author=MASS SPECTROSCOPY SOC. OF JAPAN (MSSJ)
license=CC BY-NC-SA
exact mass=228.0504
ionization energy=70 eV
ion type=[M]+*
computed spectral entropy=3.077377475311614
computed normalized entropy=0.8879434445150928
SPLASH=splash10-006x-9300000000-67841fd2437242a22438
submitter=submitter = University of Tokyo Team (Faculty of Engineering, University of Tokyo)
MoNA Rating=3.75

>  <NUM PEAKS>  (4862) 
32

>  <MASS SPECTRAL PEAKS>  (4862) 
42 46.79
45 22.26
55 37.25
65 11.35
67 29.21
73 99.99
74 18.02
75 64.5
76 17.66
77 9.26
89 9.78
91 29.43
93 38.37
95 19.45
96 11.98
97 9.34
102 12.97
103 20.48
109 20.48
110 11.59
111 15.04
112 8.32
113 8.04
138 37.4
140 23.78
145 13.44
163 2.26
177 7.3
178 1.16
179 2.63
185 1.14
193 0.22

$$$$

     RDKit          2D

  9  8  0  0  0  0  0  0  0  0999 V2000
    2.5981    4.5000    0.0000 C   0  0  0  0  0  0  0  0  0  0  0  0
    1.2990    5.2500    0.0000 C   0  0  0  0  0  0  0  0  0  0  0  0
    0.0000    4.5000    0.0000 C   0  0  0  0  0  0  0  0  0  0  0  0
   -1.2990    5.2500    0.0000 C   0  0  0  0  0  0  0  0  0  0  0  0
   -2.5981    4.5000    0.0000 C   0  0  0  0  0  0  0  0  0  0  0  0
   -3.8971    5.2500    0.0000 C   0  0  0  0  0  0  0  0  0  0  0  0
   -5.1962    4.5000    0.0000 C   0  0  0  0  0  0  0  0  0  0  0  0
   -6.4952    5.2500    0.0000 C   0  0  0  0  0  0  0  0  0  0  0  0
   -7.7942    4.5000    0.0000 I   0  0  0  0  0  0  0  0  0  0  0  0
  2  1  1  0
  3  2  1  0
  4  3  1  0
  5  4  1  0
  6  5  1  0
  7  6  1  0
  8  7  1  0
  9  8  1  0
M  END
>  <NAME>  (4863) 
1-IODOOCTANE

>  <SYNONYMS>  (4863) 


>  <SPECTRUM TYPE>  (4863) 
MS1

>  <INSTRUMENT TYPE>  (4863) 
EI-B

>  <INSTRUMENT>  (4863) 
JEOL JMS-D-3000

>  <ION MODE>  (4863) 
P

>  <INCHIKEY>  (4863) 
UWLHSHAHTBJTBA-UHFFFAOYSA-N

>  <FORMULA>  (4863) 
C8H17I

>  <EXACT MASS>  (4863) 
240.037498544

>  <MW>  (4863) 
240

>  <ID>  (4863) 
JP004685

>  <CONTRIBUTOR>  (4863) 
University of Tokyo Team, {Faculty of Engineering, University of Tokyo

>  <COMMENT>  (4863) 
SMILES=CCCCCCCCI
cas=629-27-6
InChI=InChI=1S/C8H17I/c1-2-3-4-5-6-7-8-9/h2-8H2,1H3
computed SMILES=ICCCCCCCC
accession=JP004685
date=2016.01.19 (Created 2008.10.21, modified 2011.05.06)
author=MASS SPECTROSCOPY SOC. OF JAPAN (MSSJ)
license=CC BY-NC-SA
exact mass=240.03749
ionization energy=70 eV
ion type=[M]+*
computed spectral entropy=2.094943267735059
computed normalized entropy=0.6881024234794528
SPLASH=splash10-05fu-9100000000-442b8708e7e2a2d2acfd
submitter=submitter = University of Tokyo Team (Faculty of Engineering, University of Tokyo)
MoNA Rating=3.75

>  <NUM PEAKS>  (4863) 
21

>  <MASS SPECTRAL PEAKS>  (4863) 
42 22.2
43 44.73
44 4.57
53 1.17
55 8.84
56 1.81
57 93.4
58 4.67
69 2.29
71 99.99
72 6.2
84 1.09
85 2.88
113 26.82
114 2.78
141 1.27
155 8.99
169 1.22
183 1.2
240 13.15
241 1.32

$$$$

     RDKit          2D

  9  8  0  0  0  0  0  0  0  0999 V2000
    2.5981    4.5000    0.0000 C   0  0  0  0  0  0  0  0  0  0  0  0
    1.2990    5.2500    0.0000 C   0  0  0  0  0  0  0  0  0  0  0  0
    0.0000    4.5000    0.0000 C   0  0  0  0  0  0  0  0  0  0  0  0
   -1.2990    5.2500    0.0000 C   0  0  0  0  0  0  0  0  0  0  0  0
   -2.5981    4.5000    0.0000 C   0  0  0  0  0  0  0  0  0  0  0  0
   -3.8971    5.2500    0.0000 C   0  0  0  0  0  0  0  0  0  0  0  0
   -5.1962    4.5000    0.0000 C   0  0  0  0  0  0  0  0  0  0  0  0
   -6.4952    5.2500    0.0000 C   0  0  0  0  0  0  0  0  0  0  0  0
   -7.7942    4.5000    0.0000 Br  0  0  0  0  0  0  0  0  0  0  0  0
  2  1  1  0
  3  2  1  0
  4  3  1  0
  5  4  1  0
  6  5  1  0
  7  6  1  0
  8  7  1  0
  9  8  1  0
M  END
>  <NAME>  (4864) 
1-BROMOOCTANE

>  <SYNONYMS>  (4864) 


>  <SPECTRUM TYPE>  (4864) 
MS1

>  <INSTRUMENT TYPE>  (4864) 
EI-B

>  <INSTRUMENT>  (4864) 
JEOL JMS-D-3000

>  <ION MODE>  (4864) 
P

>  <INCHIKEY>  (4864) 
VMKOFRJSULQZRM-UHFFFAOYSA-N

>  <FORMULA>  (4864) 
C8H17Br

>  <EXACT MASS>  (4864) 
192.051362644

>  <MW>  (4864) 
192

>  <ID>  (4864) 
JP004684

>  <CONTRIBUTOR>  (4864) 
University of Tokyo Team, {Faculty of Engineering, University of Tokyo

>  <COMMENT>  (4864) 
SMILES=CCCCCCCCBr
cas=111-83-1
InChI=InChI=1S/C8H17Br/c1-2-3-4-5-6-7-8-9/h2-8H2,1H3
computed SMILES=BrCCCCCCCC
accession=JP004684
date=2016.01.19 (Created 2008.10.21, modified 2011.05.06)
author=MASS SPECTROSCOPY SOC. OF JAPAN (MSSJ)
license=CC BY-NC-SA
exact mass=192.05136
ionization energy=70 eV
ion type=[M]+*
computed spectral entropy=2.6726377709889064
computed normalized entropy=0.7401546741426119
SPLASH=splash10-0a4u-9300000000-a8f3edf1e27e2eed470b
submitter=submitter = University of Tokyo Team (Faculty of Engineering, University of Tokyo)
MoNA Rating=3.75

>  <NUM PEAKS>  (4864) 
37

>  <MASS SPECTRAL PEAKS>  (4864) 
40 2.12
42 62.72
43 82.82
53 3.36
54 2.14
55 55.54
56 20.18
57 99.99
58 4.92
67 2.1
68 1.5
69 30.86
70 13.41
71 71.44
72 4.13
73 4.46
75 1.78
83 8.91
84 4.07
85 5.28
99 1.1
107 3.42
109 3.32
113 1.17
121 1.3
123 1.03
130 1.77
135 70.37
136 3.41
137 68.52
138 3.28
149 6.25
151 6.02
185 2.02
187 1.1
192 1.08
194 1.01

$$$$

     RDKit          2D

  9  9  0  0  0  0  0  0  0  0999 V2000
    2.9228   -0.2425    0.0000 C   0  0  0  0  0  0  0  0  0  0  0  0
    2.9233    1.2583    0.0000 C   0  0  0  0  0  0  0  0  0  0  0  0
    1.6233   -0.9933    0.0000 C   0  0  0  0  0  0  0  0  0  0  0  0
    1.6243    2.0083    0.0000 C   0  0  0  0  0  0  0  0  0  0  0  0
    0.3243   -0.2433    0.0000 C   0  0  0  0  0  0  0  0  0  0  0  0
   -0.9743    2.0075    0.0000 C   0  0  0  0  0  0  0  0  0  0  0  0
   -2.2733    1.2575    0.0000 C   0  0  0  0  0  0  0  0  0  0  0  0
    0.3248    1.2575    0.0000 C   0  0  0  0  0  0  0  0  0  0  0  0
   -3.5724    2.0075    0.0000 O   0  0  0  0  0  0  0  0  0  0  0  0
  2  1  2  0
  3  1  1  0
  4  2  1  0
  5  3  1  0
  7  6  1  0
  8  4  1  0
  8  5  1  0
  8  6  1  0
  9  7  1  0
M  END
>  <NAME>  (4865) 
2-(3-CYCLOHEXENYL)ETHANOL

>  <SYNONYMS>  (4865) 


>  <SPECTRUM TYPE>  (4865) 
MS1

>  <INSTRUMENT TYPE>  (4865) 
EI-B

>  <INSTRUMENT>  (4865) 
JEOL JMS-D-3000

>  <ION MODE>  (4865) 
P

>  <INCHIKEY>  (4865) 
FELLSOCIMJMONP-UHFFFAOYSA-N

>  <FORMULA>  (4865) 
C8H14O

>  <EXACT MASS>  (4865) 
126.104465068

>  <MW>  (4865) 
126

>  <ID>  (4865) 
JP004683

>  <CONTRIBUTOR>  (4865) 
University of Tokyo Team, {Faculty of Engineering, University of Tokyo

>  <COMMENT>  (4865) 
SMILES=OCCC(C1)CC=CC1
InChI=InChI=1S/C8H14O/c9-7-6-8-4-2-1-3-5-8/h1-2,8-9H,3-7H2
computed SMILES=OCCC1CC=CCC1
accession=JP004683
date=2016.01.19 (Created 2008.10.21, modified 2011.05.06)
author=MASS SPECTROSCOPY SOC. OF JAPAN (MSSJ)
license=CC BY-NC-SA
exact mass=126.10447
ionization energy=70 eV
ion type=[M]+*
computed spectral entropy=3.2798315032526704
computed normalized entropy=0.856656751990487
SPLASH=splash10-005d-9000000000-6dae003548c772745e8b
submitter=submitter = University of Tokyo Team (Faculty of Engineering, University of Tokyo)
MoNA Rating=3.75

>  <NUM PEAKS>  (4865) 
46

>  <MASS SPECTRAL PEAKS>  (4865) 
42 32.33
43 10
44 3.71
50 3.31
51 8.56
52 5.75
53 12.88
54 14.27
55 26.14
56 5.26
57 12.67
58 8.79
63 1.64
65 7.28
66 6.65
67 38.97
68 11.22
69 9.65
70 46.89
71 7.45
77 28.48
78 11.04
79 76.75
80 27.51
81 10.65
82 13.56
83 27.81
84 4.58
91 22.28
92 2.7
93 55.86
94 2.22
95 6
96 4.01
97 23.24
98 99.99
99 7.51
104 1.63
105 2.18
106 1.52
107 4.29
108 32.54
109 3.34
111 2.07
124 2.13
126 3

$$$$

     RDKit          2D

  9  9  0  0  0  0  0  0  0  0999 V2000
   -3.5724    2.0075    0.0000 C   0  0  0  0  0  0  0  0  0  0  0  0
    2.9228   -0.2425    0.0000 C   0  0  0  0  0  0  0  0  0  0  0  0
    2.9233    1.2583    0.0000 C   0  0  0  0  0  0  0  0  0  0  0  0
    1.6233   -0.9933    0.0000 C   0  0  0  0  0  0  0  0  0  0  0  0
    1.6243    2.0083    0.0000 C   0  0  0  0  0  0  0  0  0  0  0  0
    0.3243   -0.2433    0.0000 C   0  0  0  0  0  0  0  0  0  0  0  0
   -0.9743    2.0075    0.0000 C   0  0  0  0  0  0  0  0  0  0  0  0
    0.3248    1.2575    0.0000 C   0  0  0  0  0  0  0  0  0  0  0  0
   -2.2733    1.2575    0.0000 O   0  0  0  0  0  0  0  0  0  0  0  0
  3  2  2  0
  4  2  1  0
  5  3  1  0
  6  4  2  0
  8  5  2  0
  8  6  1  0
  8  7  1  0
  9  1  1  0
  9  7  1  0
M  END
>  <NAME>  (4866) 
BENZYL METHYL ETHER

>  <SYNONYMS>  (4866) 


>  <SPECTRUM TYPE>  (4866) 
MS1

>  <INSTRUMENT TYPE>  (4866) 
EI-B

>  <INSTRUMENT>  (4866) 
JEOL JMS-D-3000

>  <ION MODE>  (4866) 
P

>  <INCHIKEY>  (4866) 
GQKZBCPTCWJTAS-UHFFFAOYSA-N

>  <FORMULA>  (4866) 
C8H10O

>  <EXACT MASS>  (4866) 
122.07316494

>  <MW>  (4866) 
122

>  <ID>  (4866) 
JP004682

>  <CONTRIBUTOR>  (4866) 
University of Tokyo Team, {Faculty of Engineering, University of Tokyo

>  <COMMENT>  (4866) 
SMILES=COCc(c1)cccc1
InChI=InChI=1S/C8H10O/c1-9-7-8-5-3-2-4-6-8/h2-6H,7H2,1H3
computed SMILES=O(C)CC=1C=CC=CC1
accession=JP004682
date=2016.01.19 (Created 2008.10.21, modified 2011.05.06)
author=MASS SPECTROSCOPY SOC. OF JAPAN (MSSJ)
license=CC BY-NC-SA
exact mass=122.07316
ionization energy=70 eV
ion type=[M]+*
computed spectral entropy=2.405793517810119
computed normalized entropy=0.8170634660227158
SPLASH=splash10-0a6r-7900000000-e97636b19256147bcb9e
submitter=submitter = University of Tokyo Team (Faculty of Engineering, University of Tokyo)
MoNA Rating=3.75

>  <NUM PEAKS>  (4866) 
19

>  <MASS SPECTRAL PEAKS>  (4866) 
43 7.53
50 13.3
51 28.55
52 6.89
63 3.99
65 7.71
74 5.17
77 84.29
78 13.39
79 4.85
89 3.31
91 58.32
92 12.11
105 88.37
106 99.99
107 7.85
121 39.85
122 50.06
123 4.31

$$$$

     RDKit          2D

  9 10  0  0  0  0  0  0  0  0999 V2000
   -2.5115    3.3300    0.0000 C   0  0  0  0  0  0  0  0  0  0  0  0
   -2.5120    1.8292    0.0000 C   0  0  0  0  0  0  0  0  0  0  0  0
   -1.2120    4.0808    0.0000 C   0  0  0  0  0  0  0  0  0  0  0  0
   -1.2129    1.0792    0.0000 C   0  0  0  0  0  0  0  0  0  0  0  0
    0.0871    3.3308    0.0000 C   0  0  0  0  0  0  0  0  0  0  0  0
    2.8865    1.0795    0.0000 C   0  0  0  0  0  0  0  0  0  0  0  0
    0.0866    1.8300    0.0000 C   0  0  0  0  0  0  0  0  0  0  0  0
    1.3856    1.0800    0.0000 C   0  0  0  0  0  0  0  0  0  0  0  0
    2.1365   -0.2195    0.0000 O   0  0  0  0  0  0  0  0  0  0  0  0
  2  1  2  0
  3  1  1  0
  4  2  1  0
  5  3  2  0
  7  4  2  0
  7  5  1  0
  8  6  1  0
  8  7  1  0
  9  6  1  0
  9  8  1  0
M  END
>  <NAME>  (4867) 
STYRENE 0XIDE

>  <SYNONYMS>  (4867) 
PHENYLOXIRANE

>  <SPECTRUM TYPE>  (4867) 
MS1

>  <INSTRUMENT TYPE>  (4867) 
EI-B

>  <INSTRUMENT>  (4867) 
JEOL JMS-D-3000

>  <ION MODE>  (4867) 
P

>  <INCHIKEY>  (4867) 
AWMVMTVKBNGEAK-UHFFFAOYSA-N

>  <FORMULA>  (4867) 
C8H8O

>  <EXACT MASS>  (4867) 
120.057514876

>  <MW>  (4867) 
120

>  <ID>  (4867) 
JP004681

>  <CONTRIBUTOR>  (4867) 
University of Tokyo Team, {Faculty of Engineering, University of Tokyo

>  <COMMENT>  (4867) 
SMILES=c(c2)ccc(c2)C(C1)O1
cas=96-09-3
InChI=InChI=1S/C8H8O/c1-2-4-7(5-3-1)8-6-9-8/h1-5,8H,6H2
computed SMILES=O1CC1C=2C=CC=CC2
accession=JP004681
date=2016.01.19 (Created 2008.10.21, modified 2011.05.06)
author=MASS SPECTROSCOPY SOC. OF JAPAN (MSSJ)
license=CC BY-NC-SA
exact mass=120.05751
ionization energy=70 eV
ion type=[M]+*
computed spectral entropy=1.702432023265994
computed normalized entropy=0.6450909588668114
SPLASH=splash10-0006-9100000000-65b82480c3888fa3d1d7
submitter=submitter = University of Tokyo Team (Faculty of Engineering, University of Tokyo)
MoNA Rating=3.75

>  <NUM PEAKS>  (4867) 
14

>  <MASS SPECTRAL PEAKS>  (4867) 
42 1.84
43 4.34
50 2.25
51 5.31
58 1.82
62 1.89
63 5.68
64 1.77
65 18.68
89 3.2
91 99.99
92 22.38
120 24.03
121 2.17

$$$$

     RDKit          2D

 11 11  0  0  0  0  0  0  0  0999 V2000
    2.5983    0.3196    0.0000 C   0  0  0  0  0  0  0  0  0  0  0  0
    2.5988    1.8204    0.0000 C   0  0  0  0  0  0  0  0  0  0  0  0
    1.2988   -0.4312    0.0000 C   0  0  0  0  0  0  0  0  0  0  0  0
    1.2998    2.5704    0.0000 C   0  0  0  0  0  0  0  0  0  0  0  0
   -0.0002    0.3188    0.0000 C   0  0  0  0  0  0  0  0  0  0  0  0
    0.0002    1.8196    0.0000 C   0  0  0  0  0  0  0  0  0  0  0  0
   -1.2988    2.5696    0.0000 C   0  0  0  0  0  0  0  0  0  0  0  0
   -2.5978    1.8196    0.0000 C   0  0  0  0  0  0  0  0  0  0  0  0
   -3.8969    2.5696    0.0000 Cl  0  0  0  0  0  0  0  0  0  0  0  0
   -2.5978    0.3196    0.0000 Cl  0  0  0  0  0  0  0  0  0  0  0  0
   -1.2988    4.0696    0.0000 O   0  0  0  0  0  0  0  0  0  0  0  0
  2  1  2  0
  3  1  1  0
  4  2  1  0
  5  3  2  0
  6  4  2  0
  6  5  1  0
  7  6  1  0
  8  7  1  0
  9  8  1  0
 10  8  1  0
 11  7  1  0
M  END
>  <NAME>  (4868) 
2,2-DICHLORO-1-PHENYLETHANOL

>  <SYNONYMS>  (4868) 


>  <SPECTRUM TYPE>  (4868) 
MS1

>  <INSTRUMENT TYPE>  (4868) 
EI-B

>  <INSTRUMENT>  (4868) 
JEOL JMS-D-3000

>  <ION MODE>  (4868) 
P

>  <INCHIKEY>  (4868) 
XNSCLDYOTQWNGW-UHFFFAOYSA-N

>  <FORMULA>  (4868) 
C8H8Cl2O

>  <EXACT MASS>  (4868) 
189.995220236

>  <MW>  (4868) 
190

>  <ID>  (4868) 
JP004680

>  <CONTRIBUTOR>  (4868) 
University of Tokyo Team, {Faculty of Engineering, University of Tokyo

>  <COMMENT>  (4868) 
SMILES=ClC(Cl)C(O)c(c1)cccc1
InChI=InChI=1S/C8H8Cl2O/c9-8(10)7(11)6-4-2-1-3-5-6/h1-5,7-8,11H
computed SMILES=ClC(Cl)C(O)C=1C=CC=CC1
accession=JP004680
date=2016.01.19 (Created 2008.10.21, modified 2011.05.06)
author=MASS SPECTROSCOPY SOC. OF JAPAN (MSSJ)
license=CC BY-NC-SA
exact mass=189.99522
ionization energy=70 eV
ion type=[M]+*
computed spectral entropy=2.7750247824151684
computed normalized entropy=0.8081057433151457
SPLASH=splash10-0a6r-9800000000-982c6b6998f31ba7a6e8
submitter=submitter = University of Tokyo Team (Faculty of Engineering, University of Tokyo)
MoNA Rating=3.75

>  <NUM PEAKS>  (4868) 
31

>  <MASS SPECTRAL PEAKS>  (4868) 
45 3.87
49 4.58
52 9.48
53 4.61
62 4.67
63 10.74
64 2.36
65 8.74
73 2.36
74 6.55
75 6.98
76 5.86
78 23.27
79 26.83
80 13.19
83 8.51
85 5.84
89 8.74
90 4.55
101 3.53
102 5.47
103 8.86
107 99.99
108 5.32
109 3.07
126 2.42
127 4.81
137 2.45
138 5.12
190 4.5
192 2.7

$$$$

     RDKit          2D

 11 11  0  0  0  0  0  0  0  0999 V2000
    5.1948    1.1419    0.0000 C   0  0  0  0  0  0  0  0  0  0  0  0
   -0.0000   -1.8800    0.0000 C   0  0  0  0  0  0  0  0  0  0  0  0
    1.3000   -1.1200    0.0000 C   0  0  0  0  0  0  0  0  0  0  0  0
   -1.3000   -1.1200    0.0000 C   0  0  0  0  0  0  0  0  0  0  0  0
   -0.0000    1.1200    0.0000 C   0  0  0  0  0  0  0  0  0  0  0  0
    1.3000    0.3800    0.0000 C   0  0  0  0  0  0  0  0  0  0  0  0
   -1.3000    0.3800    0.0000 C   0  0  0  0  0  0  0  0  0  0  0  0
    2.5967    1.1340    0.0000 C   0  0  0  0  0  0  0  0  0  0  0  0
   -2.5967    1.1340    0.0000 Cl  0  0  0  0  0  0  0  0  0  0  0  0
    2.5922    2.6340    0.0000 O   0  0  0  0  0  0  0  0  0  0  0  0
    3.8981    0.3879    0.0000 O   0  0  0  0  0  0  0  0  0  0  0  0
  3  2  2  0
  4  2  1  0
  6  3  1  0
  6  5  2  0
  7  4  2  0
  7  5  1  0
  8  6  1  0
  9  7  1  0
 10  8  2  0
 11  1  1  0
 11  8  1  0
M  END
>  <NAME>  (4869) 
METHYL M-CHLOROBENZOATE

>  <SYNONYMS>  (4869) 
2-CHLOROBENZOIC ACID METHYL ESTER

>  <SPECTRUM TYPE>  (4869) 
MS1

>  <INSTRUMENT TYPE>  (4869) 
EI-B

>  <INSTRUMENT>  (4869) 
JEOL JMS-D-3000

>  <ION MODE>  (4869) 
P

>  <INCHIKEY>  (4869) 
XRDRKVPNHIWTBX-UHFFFAOYSA-N

>  <FORMULA>  (4869) 
C8H7ClO2

>  <EXACT MASS>  (4869) 
170.013457144

>  <MW>  (4869) 
170

>  <ID>  (4869) 
JP004679

>  <CONTRIBUTOR>  (4869) 
University of Tokyo Team, {Faculty of Engineering, University of Tokyo

>  <COMMENT>  (4869) 
SMILES=COC(=O)c(c1)cc(Cl)cc1
cas=610-96-8
InChI=InChI=1S/C8H7ClO2/c1-11-8(10)6-3-2-4-7(9)5-6/h2-5H,1H3
computed SMILES=O=C(OC)C=1C=CC=C(Cl)C1
accession=JP004679
date=2016.01.19 (Created 2008.10.21, modified 2011.05.06)
author=MASS SPECTROSCOPY SOC. OF JAPAN (MSSJ)
license=CC BY-NC-SA
exact mass=170.01346
ionization energy=70 eV
ion type=[M]+*
computed spectral entropy=2.044214295138066
computed normalized entropy=0.8525035760850578
SPLASH=splash10-01w0-1900000000-e303ebdd66d909670413
submitter=submitter = University of Tokyo Team (Faculty of Engineering, University of Tokyo)
MoNA Rating=3.75

>  <NUM PEAKS>  (4869) 
11

>  <MASS SPECTRAL PEAKS>  (4869) 
50 10.98
74 5.94
75 25.58
76 6.84
111 50
113 16.44
139 99.99
140 9.68
141 39.82
170 42.61
172 13.97

$$$$

     RDKit          2D

 10 10  0  0  0  0  0  0  0  0999 V2000
    2.5983    0.3196    0.0000 C   0  0  0  0  0  0  0  0  0  0  0  0
    2.5988    1.8204    0.0000 C   0  0  0  0  0  0  0  0  0  0  0  0
    1.2988   -0.4312    0.0000 C   0  0  0  0  0  0  0  0  0  0  0  0
    1.2998    2.5704    0.0000 C   0  0  0  0  0  0  0  0  0  0  0  0
   -0.0002    0.3188    0.0000 C   0  0  0  0  0  0  0  0  0  0  0  0
   -1.2988    2.5696    0.0000 C   0  0  0  0  0  0  0  0  0  0  0  0
    0.0002    1.8196    0.0000 C   0  0  0  0  0  0  0  0  0  0  0  0
   -2.5978    1.8196    0.0000 C   0  0  0  0  0  0  0  0  0  0  0  0
   -3.8969    2.5696    0.0000 Cl  0  0  0  0  0  0  0  0  0  0  0  0
   -2.5978    0.3196    0.0000 Cl  0  0  0  0  0  0  0  0  0  0  0  0
  2  1  2  0
  3  1  1  0
  4  2  1  0
  5  3  2  0
  7  4  2  0
  7  5  1  0
  7  6  1  0
  8  6  2  0
  9  8  1  0
 10  8  1  0
M  END
>  <NAME>  (4870) 
1,1-DICHLORO-2-PHENYLETHENE

>  <SYNONYMS>  (4870) 
(2,2-DICHLOROETHENYL)BENZENE

>  <SPECTRUM TYPE>  (4870) 
MS1

>  <INSTRUMENT TYPE>  (4870) 
EI-B

>  <INSTRUMENT>  (4870) 
JEOL JMS-D-3000

>  <ION MODE>  (4870) 
P

>  <INCHIKEY>  (4870) 
CISIJYCKDJSTMX-UHFFFAOYSA-N

>  <FORMULA>  (4870) 
C8H6Cl2

>  <EXACT MASS>  (4870) 
171.984655552

>  <MW>  (4870) 
172

>  <ID>  (4870) 
JP004678

>  <CONTRIBUTOR>  (4870) 
University of Tokyo Team, {Faculty of Engineering, University of Tokyo

>  <COMMENT>  (4870) 
SMILES=ClC(Cl)=Cc(c1)cccc1
cas=698-88-4
InChI=InChI=1S/C8H6Cl2/c9-8(10)6-7-4-2-1-3-5-7/h1-6H
computed SMILES=ClC(Cl)=CC=1C=CC=CC1
accession=JP004678
date=2016.01.19 (Created 2008.10.21, modified 2011.05.06)
author=MASS SPECTROSCOPY SOC. OF JAPAN (MSSJ)
license=CC BY-NC-SA
exact mass=171.98466
ionization energy=70 eV
ion type=[M]+*
computed spectral entropy=2.5780089811810605
computed normalized entropy=0.7822016337557631
SPLASH=splash10-00di-2900000000-53edbd4c51a2ec2ad4cc
submitter=submitter = University of Tokyo Team (Faculty of Engineering, University of Tokyo)
MoNA Rating=3.75

>  <NUM PEAKS>  (4870) 
27

>  <MASS SPECTRAL PEAKS>  (4870) 
50 8.77
51 12.83
62 1.83
63 2.6
68 10.57
69 3.44
74 4.8
75 8.19
76 3.05
77 3.87
86 3.42
87 2.59
99 1.85
101 20.86
102 31.66
103 2.72
112 7.59
114 2.43
136 4.67
137 26.4
138 3.81
139 8.88
172 99.99
173 9.41
174 64.32
175 5.91
176 10.99

$$$$

     RDKit          2D

 12 12  0  0  0  0  0  0  0  0999 V2000
    3.2478    1.4446    0.0000 C   0  0  0  0  0  0  0  0  0  0  0  0
    3.2483    2.9454    0.0000 C   0  0  0  0  0  0  0  0  0  0  0  0
    1.9483    0.6938    0.0000 C   0  0  0  0  0  0  0  0  0  0  0  0
   -1.9483    2.9446    0.0000 C   0  0  0  0  0  0  0  0  0  0  0  0
    1.9493    3.6954    0.0000 C   0  0  0  0  0  0  0  0  0  0  0  0
    0.6493    1.4438    0.0000 C   0  0  0  0  0  0  0  0  0  0  0  0
   -0.6493    3.6946    0.0000 C   0  0  0  0  0  0  0  0  0  0  0  0
   -3.2474    3.6946    0.0000 C   0  0  0  0  0  0  0  0  0  0  0  0
    0.6498    2.9446    0.0000 C   0  0  0  0  0  0  0  0  0  0  0  0
   -4.5464    2.9446    0.0000 C   0  0  0  0  0  0  0  0  0  0  0  0
   -5.8454    3.6946    0.0000 Cl  0  0  0  0  0  0  0  0  0  0  0  0
   -4.5464    1.4446    0.0000 Cl  0  0  0  0  0  0  0  0  0  0  0  0
  2  1  2  0
  3  1  1  0
  5  2  1  0
  6  3  2  0
  7  4  1  0
  8  4  1  0
  9  5  2  0
  9  6  1  0
  9  7  1  0
 10  8  2  0
 11 10  1  0
 12 10  1  0
M  END
>  <NAME>  (4871) 
1,1-DICHLORO-4-PHENYL-1-BUTENE

>  <SYNONYMS>  (4871) 


>  <SPECTRUM TYPE>  (4871) 
MS1

>  <INSTRUMENT TYPE>  (4871) 
EI-B

>  <INSTRUMENT>  (4871) 
JEOL JMS-D-3000

>  <ION MODE>  (4871) 
P

>  <INCHIKEY>  (4871) 
UNJBNXSLPCBXPD-UHFFFAOYSA-N

>  <FORMULA>  (4871) 
C10H10Cl2

>  <EXACT MASS>  (4871) 
200.01595568

>  <MW>  (4871) 
200

>  <ID>  (4871) 
JP004677

>  <CONTRIBUTOR>  (4871) 
University of Tokyo Team, {Faculty of Engineering, University of Tokyo

>  <COMMENT>  (4871) 
SMILES=ClC(Cl)=CCCc(c1)cccc1
InChI=InChI=1S/C10H10Cl2/c11-10(12)8-4-7-9-5-2-1-3-6-9/h1-3,5-6,8H,4,7H2
computed SMILES=ClC(Cl)=CCCC=1C=CC=CC1
ionization energy=70 eV
ion type=[M]+*
accession=JP004677
date=2016.01.19 (Created 2008.10.21, modified 2011.05.06)
author=MASS SPECTROSCOPY SOC. OF JAPAN (MSSJ)
license=CC BY-NC-SA
exact mass=200.01596
computed spectral entropy=1.525334117760201
computed normalized entropy=0.5010093204965135
SPLASH=splash10-0006-9100000000-22d5a9fd6efec5af9480
submitter=submitter = University of Tokyo Team (Faculty of Engineering, University of Tokyo)
MoNA Rating=3.75

>  <NUM PEAKS>  (4871) 
21

>  <MASS SPECTRAL PEAKS>  (4871) 
44 1.81
50 1.14
51 3.53
63 2.1
64 1.16
65 7.9
77 1.86
78 1.04
89 1.28
91 99.99
92 7.78
117 1.88
119 1.8
127 1.02
128 1.45
129 1.5
164 2.22
165 4.81
166 1.22
167 1.61
200 1.34

$$$$

     RDKit          2D

 11 10  0  0  0  0  0  0  0  0999 V2000
    6.2476    3.7231    0.0000 C   0  0  0  0  0  0  0  0  0  0  0  0
    4.7476    1.1250    0.0000 C   0  0  0  0  0  0  0  0  0  0  0  0
    6.7966    1.6740    0.0000 C   0  0  0  0  0  0  0  0  0  0  0  0
    2.8995    2.4240    0.0000 C   0  0  0  0  0  0  0  0  0  0  0  0
    1.6005    3.1740    0.0000 C   0  0  0  0  0  0  0  0  0  0  0  0
    4.1986    3.1740    0.0000 C   0  0  0  0  0  0  0  0  0  0  0  0
   -0.9976    3.1740    0.0000 C   0  0  0  0  0  0  0  0  0  0  0  0
   -2.2966    2.4240    0.0000 Cl  0  0  0  0  0  0  0  0  0  0  0  0
   -0.9976    4.6740    0.0000 Cl  0  0  0  0  0  0  0  0  0  0  0  0
    0.3014    2.4240    0.0000 Si  0  0  0  0  0  4  0  0  0  0  0  0
    5.4976    2.4240    0.0000 Si  0  0  0  0  0  4  0  0  0  0  0  0
  5  4  1  0
  6  4  1  0
  8  7  1  0
  9  7  1  0
 10  5  1  0
 10  7  1  0
 11  1  1  0
 11  2  1  0
 11  3  1  0
 11  6  1  0
M  END
>  <NAME>  (4872) 
1-DICHLOROMETHYLSILYL-3-TRIMETHYLSILYLPROPANE

>  <SYNONYMS>  (4872) 


>  <SPECTRUM TYPE>  (4872) 
MS1

>  <INSTRUMENT TYPE>  (4872) 
EI-B

>  <INSTRUMENT>  (4872) 
JEOL JMS-D-3000

>  <ION MODE>  (4872) 
P

>  <INCHIKEY>  (4872) 
DFVDZCPIGDUXFT-UHFFFAOYSA-N

>  <FORMULA>  (4872) 
C7H18Cl2Si2

>  <EXACT MASS>  (4872) 
228.032408996

>  <MW>  (4872) 
228

>  <ID>  (4872) 
JP004676

>  <CONTRIBUTOR>  (4872) 
University of Tokyo Team, {Faculty of Engineering, University of Tokyo

>  <COMMENT>  (4872) 
SMILES=C[Si](C)(C)CCC[SiH2]C(Cl)Cl
InChI=InChI=1S/C7H18Cl2Si2/c1-11(2,3)6-4-5-10-7(8)9/h7H,4-6,10H2,1-3H3
computed SMILES=ClC(Cl)[SiH2]CCC[Si](C)(C)C
accession=JP004676
date=2016.01.19 (Created 2008.10.21, modified 2011.05.06)
author=MASS SPECTROSCOPY SOC. OF JAPAN (MSSJ)
license=CC BY-NC-SA
exact mass=228.03241
ionization energy=70 eV
ion type=[M]+*
computed spectral entropy=2.590753784362325
computed normalized entropy=0.7693870438382991
SPLASH=splash10-00di-9330000000-81dfac245d42bb316e9b
submitter=submitter = University of Tokyo Team (Faculty of Engineering, University of Tokyo)
MoNA Rating=3.75

>  <NUM PEAKS>  (4872) 
29

>  <MASS SPECTRAL PEAKS>  (4872) 
43 1.73
45 5.82
58 1.45
59 7.16
63 2.71
65 1.33
72 5.31
73 99.99
74 8.1
75 3.54
79 1.77
85 11.25
92 5.15
93 4.6
94 2.12
95 1.69
113 10.46
114 1.29
115 7.08
117 1.29
119 14.16
120 16.68
121 6.53
122 5.74
213 29.24
214 4.8
215 21.13
216 3.42
217 4.64

$$$$

     RDKit          2D

 11 10  0  0  0  0  0  0  0  0999 V2000
    5.3603    3.9608    0.0000 C   0  0  0  0  0  0  0  0  0  0  0  0
    3.8603    1.3627    0.0000 C   0  0  0  0  0  0  0  0  0  0  0  0
   -1.3358    3.9608    0.0000 C   0  0  0  0  0  0  0  0  0  0  0  0
   -1.8849    1.9118    0.0000 C   0  0  0  0  0  0  0  0  0  0  0  0
    2.0123    2.6618    0.0000 C   0  0  0  0  0  0  0  0  0  0  0  0
    3.3113    3.4118    0.0000 C   0  0  0  0  0  0  0  0  0  0  0  0
    0.7132    3.4118    0.0000 C   0  0  0  0  0  0  0  0  0  0  0  0
    5.9094    1.9118    0.0000 Cl  0  0  0  0  0  0  0  0  0  0  0  0
    0.1642    1.3627    0.0000 Cl  0  0  0  0  0  0  0  0  0  0  0  0
    4.6103    2.6618    0.0000 Si  0  0  0  0  0  4  0  0  0  0  0  0
   -0.5858    2.6618    0.0000 Si  0  0  0  0  0  4  0  0  0  0  0  0
  6  5  1  0
  7  5  1  0
 10  1  1  0
 10  2  1  0
 10  6  1  0
 10  8  1  0
 11  3  1  0
 11  4  1  0
 11  7  1  0
 11  9  1  0
M  END
>  <NAME>  (4873) 
1,3-BIS(CHLORODIMETHYLSILYL)PROPANE

>  <SYNONYMS>  (4873) 


>  <SPECTRUM TYPE>  (4873) 
MS1

>  <INSTRUMENT TYPE>  (4873) 
EI-B

>  <INSTRUMENT>  (4873) 
JEOL JMS-D-3000

>  <ION MODE>  (4873) 
P

>  <INCHIKEY>  (4873) 
XJYPEWPGZBASNR-UHFFFAOYSA-N

>  <FORMULA>  (4873) 
C7H18Cl2Si2

>  <EXACT MASS>  (4873) 
228.032408996

>  <MW>  (4873) 
228

>  <ID>  (4873) 
JP004675

>  <CONTRIBUTOR>  (4873) 
University of Tokyo Team, {Faculty of Engineering, University of Tokyo

>  <COMMENT>  (4873) 
SMILES=C[Si](C)(Cl)CCC[Si](C)(C)Cl
InChI=InChI=1S/C7H18Cl2Si2/c1-10(2,8)6-5-7-11(3,4)9/h5-7H2,1-4H3
computed SMILES=Cl[Si](C)(C)CCC[Si](Cl)(C)C
accession=JP004675
date=2016.01.19 (Created 2008.10.21, modified 2011.05.06)
author=MASS SPECTROSCOPY SOC. OF JAPAN (MSSJ)
license=CC BY-NC-SA
exact mass=228.03241
ionization energy=70 eV
ion type=[M]+*
computed spectral entropy=2.7477312625343684
computed normalized entropy=0.8336975931292223
SPLASH=splash10-006x-9210000000-e3611a0886e052fb0da6
submitter=submitter = University of Tokyo Team (Faculty of Engineering, University of Tokyo)
MoNA Rating=3.75

>  <NUM PEAKS>  (4873) 
27

>  <MASS SPECTRAL PEAKS>  (4873) 
59 13.91
63 14.36
65 18.85
67 5.28
72 59.1
73 11.07
74 3.27
79 7.67
85 12.89
92 8.23
93 99.99
94 8.21
95 27.48
99 3.72
100 33.13
101 3.7
119 13.78
121 6.09
147 21.78
148 3.92
159 3.12
193 3.16
213 22.67
214 3.83
215 16.12
217 3.46
228 0.41

$$$$

     RDKit          2D

  8  7  0  0  0  0  0  0  0  0999 V2000
    1.8983    1.9620    0.0000 C   0  0  0  0  0  0  0  0  0  0  0  0
    0.5993    4.2120    0.0000 C   0  0  0  0  0  0  0  0  0  0  0  0
   -1.2488    4.0111    0.0000 C   0  0  0  0  0  0  0  0  0  0  0  0
   -3.2978    3.4620    0.0000 C   0  0  0  0  0  0  0  0  0  0  0  0
   -2.7488    1.4130    0.0000 C   0  0  0  0  0  0  0  0  0  0  0  0
   -0.6998    1.9620    0.0000 C   0  0  0  0  0  0  0  0  0  0  0  0
    0.5993    2.7120    0.0000 C   0  0  0  0  0  0  0  0  0  0  0  0
   -1.9988    2.7120    0.0000 Si  0  0  0  0  0  4  0  0  0  0  0  0
  7  1  2  0
  7  2  1  0
  7  6  1  0
  8  3  1  0
  8  4  1  0
  8  5  1  0
  8  6  1  0
M  END
>  <NAME>  (4874) 
(2-METHYL-2-PROPENYL)TRIMETHYLSILANE

>  <SYNONYMS>  (4874) 
2,4,4-TRIMETHYL-4-SILA-1-PENTENE

>  <SPECTRUM TYPE>  (4874) 
MS1

>  <INSTRUMENT TYPE>  (4874) 
EI-B

>  <INSTRUMENT>  (4874) 
JEOL JMS-D-3000

>  <ION MODE>  (4874) 
P

>  <INCHIKEY>  (4874) 
OWVJMAKUWHECNI-UHFFFAOYSA-N

>  <FORMULA>  (4874) 
C7H16Si

>  <EXACT MASS>  (4874) 
128.102127042

>  <MW>  (4874) 
128

>  <ID>  (4874) 
JP004674

>  <CONTRIBUTOR>  (4874) 
University of Tokyo Team, {Faculty of Engineering, University of Tokyo

>  <COMMENT>  (4874) 
SMILES=CC(=C)C[Si](C)(C)C
InChI=InChI=1S/C7H16Si/c1-7(2)6-8(3,4)5/h1,6H2,2-5H3
computed SMILES=C=C(C)C[Si](C)(C)C
accession=JP004674
date=2016.01.19 (Created 2008.10.21, modified 2011.05.06)
author=MASS SPECTROSCOPY SOC. OF JAPAN (MSSJ)
license=CC BY-NC-SA
exact mass=128.10213
ionization energy=70 eV
ion type=[M]+*
computed spectral entropy=1.3824392065649866
computed normalized entropy=0.6003857189778834
SPLASH=splash10-00di-9100000000-900702a6c9e55beb11d1
submitter=submitter = University of Tokyo Team (Faculty of Engineering, University of Tokyo)
MoNA Rating=3.75

>  <NUM PEAKS>  (4874) 
10

>  <MASS SPECTRAL PEAKS>  (4874) 
45 5.33
59 9.73
73 99.99
74 7.14
75 3.35
85 6.16
113 11.46
114 1.36
128 10.77
129 1.37

$$$$

     RDKit          2D

  9  8  0  0  0  0  0  0  0  0999 V2000
    1.9486    3.3750    0.0000 C   0  0  0  0  0  0  0  0  0  0  0  0
   -1.9486    5.6250    0.0000 C   0  0  0  0  0  0  0  0  0  0  0  0
    0.6495    4.1250    0.0000 C   0  0  0  0  0  0  0  0  0  0  0  0
   -0.6495    3.3750    0.0000 C   0  0  0  0  0  0  0  0  0  0  0  0
   -3.2476    3.3750    0.0000 C   0  0  0  0  0  0  0  0  0  0  0  0
   -1.9486    4.1250    0.0000 C   0  0  0  0  0  0  0  0  0  0  0  0
   -4.5466    4.1250    0.0000 C   0  0  0  0  0  0  0  0  0  0  0  0
   -5.8457    3.3750    0.0000 Cl  0  0  0  0  0  0  0  0  0  0  0  0
   -4.5466    5.6250    0.0000 Cl  0  0  0  0  0  0  0  0  0  0  0  0
  3  1  1  0
  4  3  1  0
  6  2  1  0
  6  4  1  0
  6  5  1  0
  7  5  2  0
  8  7  1  0
  9  7  1  0
M  END
>  <NAME>  (4875) 
1,1-DICHLORO-3-METHYL-1-HEXENE

>  <SYNONYMS>  (4875) 


>  <SPECTRUM TYPE>  (4875) 
MS1

>  <INSTRUMENT TYPE>  (4875) 
EI-B

>  <INSTRUMENT>  (4875) 
JEOL JMS-D-3000

>  <ION MODE>  (4875) 
P

>  <INCHIKEY>  (4875) 
ZKIPLTGOCRHGCH-UHFFFAOYSA-N

>  <FORMULA>  (4875) 
C7H12Cl2

>  <EXACT MASS>  (4875) 
166.031605744

>  <MW>  (4875) 
166

>  <ID>  (4875) 
JP004673

>  <CONTRIBUTOR>  (4875) 
University of Tokyo Team, {Faculty of Engineering, University of Tokyo

>  <COMMENT>  (4875) 
SMILES=CCCC(C)C=C(Cl)Cl
InChI=InChI=1S/C7H12Cl2/c1-3-4-6(2)5-7(8)9/h5-6H,3-4H2,1-2H3
computed SMILES=ClC(Cl)=CC(C)CCC
accession=JP004673
date=2016.01.19 (Created 2008.10.21, modified 2011.05.06)
author=MASS SPECTROSCOPY SOC. OF JAPAN (MSSJ)
license=CC BY-NC-SA
exact mass=166.03161
ionization energy=70 eV
ion type=[M]+*
computed spectral entropy=2.7404836478158137
computed normalized entropy=0.8411302783188876
SPLASH=splash10-00di-9600000000-2381328771d14c197ee6
submitter=submitter = University of Tokyo Team (Faculty of Engineering, University of Tokyo)
MoNA Rating=3.75

>  <NUM PEAKS>  (4875) 
26

>  <MASS SPECTRAL PEAKS>  (4875) 
41 19.22
42 12.33
43 23.77
51 10.01
53 4.94
55 21.31
56 3.85
65 3.78
70 99.99
71 6.08
75 4.03
87 26.11
89 15.89
91 2.74
95 2.78
109 15.83
110 11.54
111 10.42
112 7.58
123 67.24
124 6.53
125 44.38
126 3.57
127 7.53
166 12.5
168 7.99

$$$$

     RDKit          2D

  9  8  0  0  0  0  0  0  0  0999 V2000
   -7.4695    3.9375    0.0000 C   0  0  0  0  0  0  0  0  0  0  0  0
   -6.1704    3.1875    0.0000 C   0  0  0  0  0  0  0  0  0  0  0  0
   -4.8714    3.9375    0.0000 C   0  0  0  0  0  0  0  0  0  0  0  0
   -3.5724    3.1875    0.0000 C   0  0  0  0  0  0  0  0  0  0  0  0
   -2.2733    3.9375    0.0000 C   0  0  0  0  0  0  0  0  0  0  0  0
   -0.9743    3.1875    0.0000 C   0  0  0  0  0  0  0  0  0  0  0  0
    0.3248    3.9375    0.0000 C   0  0  0  0  0  0  0  0  0  0  0  0
    1.6238    3.1875    0.0000 Cl  0  0  0  0  0  0  0  0  0  0  0  0
    0.3248    5.4375    0.0000 Cl  0  0  0  0  0  0  0  0  0  0  0  0
  2  1  1  0
  3  2  1  0
  4  3  1  0
  5  4  1  0
  6  5  1  0
  7  6  2  0
  8  7  1  0
  9  7  1  0
M  END
>  <NAME>  (4876) 
1,1-DICHLORO-1-HEPTENE

>  <SYNONYMS>  (4876) 


>  <SPECTRUM TYPE>  (4876) 
MS1

>  <INSTRUMENT TYPE>  (4876) 
EI-B

>  <INSTRUMENT>  (4876) 
JEOL JMS-D-3000

>  <ION MODE>  (4876) 
P

>  <INCHIKEY>  (4876) 
SHIGTIVKNFPBPY-UHFFFAOYSA-N

>  <FORMULA>  (4876) 
C7H12Cl2

>  <EXACT MASS>  (4876) 
166.031605744

>  <MW>  (4876) 
166

>  <ID>  (4876) 
JP004672

>  <CONTRIBUTOR>  (4876) 
University of Tokyo Team, {Faculty of Engineering, University of Tokyo

>  <COMMENT>  (4876) 
SMILES=CCCCCC=C(Cl)Cl
InChI=InChI=1S/C7H12Cl2/c1-2-3-4-5-6-7(8)9/h6H,2-5H2,1H3
computed SMILES=ClC(Cl)=CCCCCC
accession=JP004672
date=2016.01.19 (Created 2008.10.21, modified 2011.05.06)
author=MASS SPECTROSCOPY SOC. OF JAPAN (MSSJ)
license=CC BY-NC-SA
exact mass=166.03161
ionization energy=70 eV
ion type=[M]+*
computed spectral entropy=2.7606852896521428
computed normalized entropy=0.7535522959109087
SPLASH=splash10-0abc-9100000000-8b58749e55025eb101c6
submitter=submitter = University of Tokyo Team (Faculty of Engineering, University of Tokyo)
MoNA Rating=3.75

>  <NUM PEAKS>  (4876) 
39

>  <MASS SPECTRAL PEAKS>  (4876) 
42 88.63
43 9.23
49 4
50 1.78
51 7.36
53 4.32
54 1.95
55 67.58
56 10.64
57 62.45
58 2.86
61 1.96
63 1.67
65 3.4
67 2.39
68 14.2
69 14.19
70 99.99
71 5.8
73 4.34
75 5.58
77 1.84
83 11.44
85 3.52
87 4.71
88 3.65
89 3.13
90 1.63
95 11.59
96 2.34
98 1.47
104 2.07
109 15.96
110 1.97
111 10.2
113 1.72
166 13.88
168 8.62
170 1.48

$$$$

     RDKit          2D

  7  8  0  0  0  0  0  0  0  0999 V2000
    1.6700   -0.7500    0.0000 C   0  0  0  0  0  0  0  0  0  0  0  0
    1.6700    0.7500    0.0000 C   0  0  0  0  0  0  0  0  0  0  0  0
    0.3700   -1.5000    0.0000 C   0  0  0  0  0  0  0  0  0  0  0  0
    0.3700    1.5000    0.0000 C   0  0  0  0  0  0  0  0  0  0  0  0
   -2.2300    0.0000    0.0000 C   0  0  0  0  0  0  0  0  0  0  0  0
   -0.9300   -0.7500    0.0000 C   0  0  0  0  0  0  0  0  0  0  0  0
   -0.9300    0.7500    0.0000 C   0  0  0  0  0  0  0  0  0  0  0  0
  2  1  1  0
  3  1  1  0
  4  2  1  0
  6  3  1  0
  6  5  1  0
  7  4  1  0
  7  5  1  0
  7  6  1  0
M  END
>  <NAME>  (4877) 
NORCARANE

>  <SYNONYMS>  (4877) 
BICYCLO(4.1.0)HEPTANE

>  <SPECTRUM TYPE>  (4877) 
MS1

>  <INSTRUMENT TYPE>  (4877) 
EI-B

>  <INSTRUMENT>  (4877) 
JEOL JMS-D-3000

>  <ION MODE>  (4877) 
P

>  <INCHIKEY>  (4877) 
WPHGSKGZRAQSGP-UHFFFAOYSA-N

>  <FORMULA>  (4877) 
C7H12

>  <EXACT MASS>  (4877) 
96.093900384

>  <MW>  (4877) 
96

>  <ID>  (4877) 
JP004671

>  <CONTRIBUTOR>  (4877) 
University of Tokyo Team, {Faculty of Engineering, University of Tokyo

>  <COMMENT>  (4877) 
SMILES=C(C2)CC(C1)C(C2)1
cas=286-08-8
InChI=InChI=1S/C7H12/c1-2-4-7-5-6(7)3-1/h6-7H,1-5H2
computed SMILES=C1CCC2CC2C1
accession=JP004671
date=2016.01.19 (Created 2008.10.21, modified 2011.05.06)
author=MASS SPECTROSCOPY SOC. OF JAPAN (MSSJ)
license=CC BY-NC-SA
exact mass=96.0939
ionization energy=70 eV
ion type=[M]+*
computed spectral entropy=2.335611166365067
computed normalized entropy=0.793227906195655
SPLASH=splash10-0gc0-9000000000-e330b8a0a61cadd07dd2
submitter=submitter = University of Tokyo Team (Faculty of Engineering, University of Tokyo)
MoNA Rating=3.75

>  <NUM PEAKS>  (4877) 
19

>  <MASS SPECTRAL PEAKS>  (4877) 
41 26.38
42 2.66
51 3.41
53 20.04
54 73.63
55 51.88
56 3.17
65 4.5
66 10.59
67 99.99
68 56.9
73 2.87
77 3.56
79 6.21
81 95.77
82 5.45
95 7.88
96 54.77
97 4.68

$$$$

     RDKit          2D

  9  9  0  0  0  0  0  0  0  0999 V2000
    3.5724   -0.9375    0.0000 C   0  0  0  0  0  0  0  0  0  0  0  0
   -1.6243   -0.9383    0.0000 C   0  0  0  0  0  0  0  0  0  0  0  0
   -0.3243    1.3133    0.0000 C   0  0  0  0  0  0  0  0  0  0  0  0
   -0.3252   -1.6883    0.0000 C   0  0  0  0  0  0  0  0  0  0  0  0
    0.9748    0.5633    0.0000 C   0  0  0  0  0  0  0  0  0  0  0  0
   -1.6238    0.5625    0.0000 C   0  0  0  0  0  0  0  0  0  0  0  0
    0.9743   -0.9375    0.0000 C   0  0  0  0  0  0  0  0  0  0  0  0
   -2.9228    1.3125    0.0000 O   0  0  0  0  0  0  0  0  0  0  0  0
    2.2733   -1.6875    0.0000 O   0  0  0  0  0  0  0  0  0  0  0  0
  4  2  2  0
  5  3  1  0
  6  2  1  0
  6  3  2  0
  7  4  1  0
  7  5  2  0
  8  6  1  0
  9  1  1  0
  9  7  1  0
M  END
>  <NAME>  (4878) 
P-METHOXYPHENOL

>  <SYNONYMS>  (4878) 
4-METHOXYPHENOL

>  <SPECTRUM TYPE>  (4878) 
MS1

>  <INSTRUMENT TYPE>  (4878) 
EI-B

>  <INSTRUMENT>  (4878) 
JEOL JMS-D-3000

>  <ION MODE>  (4878) 
P

>  <INCHIKEY>  (4878) 
NWVVVBRKAWDGAB-UHFFFAOYSA-N

>  <FORMULA>  (4878) 
C7H8O2

>  <EXACT MASS>  (4878) 
124.052429496

>  <MW>  (4878) 
124

>  <ID>  (4878) 
JP004670

>  <CONTRIBUTOR>  (4878) 
University of Tokyo Team, {Faculty of Engineering, University of Tokyo

>  <COMMENT>  (4878) 
SMILES=COc(c1)ccc(O)c1
cas=150-76-5
InChI=InChI=1S/C7H8O2/c1-9-7-4-2-6(8)3-5-7/h2-5,8H,1H3
computed SMILES=OC1=CC=C(OC)C=C1
accession=JP004670
date=2016.01.19 (Created 2008.10.21, modified 2011.05.06)
author=MASS SPECTROSCOPY SOC. OF JAPAN (MSSJ)
license=CC BY-NC-SA
exact mass=124.05243
ionization energy=70 eV
ion type=[M]+*
computed spectral entropy=2.0232936864551783
computed normalized entropy=0.654566773826395
SPLASH=splash10-0ab9-3900000000-b24cf2309ebe14f7ea37
submitter=submitter = University of Tokyo Team (Faculty of Engineering, University of Tokyo)
MoNA Rating=3.75

>  <NUM PEAKS>  (4878) 
22

>  <MASS SPECTRAL PEAKS>  (4878) 
44 4.27
50 2.28
51 3.33
52 4.95
53 14.56
54 5.64
55 1.46
62 2.36
63 2.83
64 1.42
65 4.6
80 1.83
81 31.45
82 3.35
93 1.85
95 2.06
108 5.64
109 99.99
110 6.95
123 3.33
124 95.6
125 6.71

$$$$

     RDKit          2D

  8  8  0  0  0  0  0  0  0  0999 V2000
   -2.6070    1.5036    0.0000 C   0  0  0  0  0  0  0  0  0  0  0  0
   -0.0127    1.4972    0.0000 C   0  0  0  0  0  0  0  0  0  0  0  0
   -1.3262   -0.7277    0.0000 C   0  0  0  0  0  0  0  0  0  0  0  0
    1.2718    0.7723    0.0000 C   0  0  0  0  0  0  0  0  0  0  0  0
   -0.0017   -1.5218    0.0000 C   0  0  0  0  0  0  0  0  0  0  0  0
   -1.3117    0.7472    0.0000 C   0  0  0  0  0  0  0  0  0  0  0  0
    1.2973   -0.7718    0.0000 C   0  0  0  0  0  0  0  0  0  0  0  0
    2.6025   -1.5111    0.0000 O   0  0  0  0  0  0  0  0  0  0  0  0
  4  2  2  0
  5  3  1  0
  6  1  1  0
  6  2  1  0
  6  3  2  0
  7  4  1  0
  7  5  2  0
  8  7  1  0
M  END
>  <NAME>  (4879) 
P-CRESOL

>  <SYNONYMS>  (4879) 
4-METHYLPHENOL

>  <SPECTRUM TYPE>  (4879) 
MS1

>  <INSTRUMENT TYPE>  (4879) 
EI-B

>  <INSTRUMENT>  (4879) 
JEOL JMS-D-3000

>  <ION MODE>  (4879) 
P

>  <INCHIKEY>  (4879) 
IWDCLRJOBJJRNH-UHFFFAOYSA-N

>  <FORMULA>  (4879) 
C7H8O

>  <EXACT MASS>  (4879) 
108.057514876

>  <MW>  (4879) 
108

>  <ID>  (4879) 
JP004669

>  <CONTRIBUTOR>  (4879) 
University of Tokyo Team, {Faculty of Engineering, University of Tokyo

>  <COMMENT>  (4879) 
SMILES=Cc(c1)ccc(O)c1
cas=106-44-5
InChI=InChI=1S/C7H8O/c1-6-2-4-7(8)5-3-6/h2-5,8H,1H3
computed SMILES=OC1=CC=C(C=C1)C
accession=JP004669
date=2016.01.19 (Created 2008.10.21, modified 2011.05.06)
author=MASS SPECTROSCOPY SOC. OF JAPAN (MSSJ)
license=CC BY-NC-SA
exact mass=108.05751
ionization energy=70 eV
ion type=[M]+*
computed spectral entropy=2.1472571519488763
computed normalized entropy=0.6848225523875106
SPLASH=splash10-0a4i-4900000000-7d25deb1e39c6ef4866f
submitter=submitter = University of Tokyo Team (Faculty of Engineering, University of Tokyo)
MoNA Rating=3.75

>  <NUM PEAKS>  (4879) 
23

>  <MASS SPECTRAL PEAKS>  (4879) 
43 1.18
50 5.3
51 9.55
52 5.38
53 8.37
54 5.15
55 2.92
62 1.68
63 3.81
65 1.94
66 1.13
77 19.06
78 6.2
79 15.62
80 5.91
81 1.34
89 1.9
90 8.64
91 4.14
106 4.14
107 99.99
108 97.63
109 7.77

$$$$

     RDKit          2D

 11 10  0  0  0  0  0  0  0  0999 V2000
    5.3603    3.9608    0.0000 C   0  0  0  0  0  0  0  0  0  0  0  0
    3.8603    1.3627    0.0000 C   0  0  0  0  0  0  0  0  0  0  0  0
    5.9094    1.9118    0.0000 C   0  0  0  0  0  0  0  0  0  0  0  0
   -1.3358    3.9608    0.0000 C   0  0  0  0  0  0  0  0  0  0  0  0
   -1.8849    1.9118    0.0000 C   0  0  0  0  0  0  0  0  0  0  0  0
    0.1642    1.3627    0.0000 C   0  0  0  0  0  0  0  0  0  0  0  0
    2.0123    2.6618    0.0000 C   0  0  0  0  0  0  0  0  0  0  0  0
    3.3113    3.4118    0.0000 C   0  0  0  0  0  0  0  0  0  0  0  0
    0.7132    3.4118    0.0000 C   0  0  0  0  0  0  0  0  0  0  0  0
    4.6103    2.6618    0.0000 Si  0  0  0  0  0  4  0  0  0  0  0  0
   -0.5858    2.6618    0.0000 Si  0  0  0  0  0  4  0  0  0  0  0  0
  8  7  1  0
  9  7  1  0
 10  1  1  0
 10  2  1  0
 10  3  1  0
 10  8  1  0
 11  4  1  0
 11  5  1  0
 11  6  1  0
 11  9  1  0
M  END
>  <NAME>  (4880) 
1,3-BIS(TRIMETHYLSILYL)PROPANE

>  <SYNONYMS>  (4880) 


>  <SPECTRUM TYPE>  (4880) 
MS1

>  <INSTRUMENT TYPE>  (4880) 
EI-B

>  <INSTRUMENT>  (4880) 
JEOL JMS-D-3000

>  <ION MODE>  (4880) 
P

>  <INCHIKEY>  (4880) 
YMPSYNWHUIOPJH-UHFFFAOYSA-N

>  <FORMULA>  (4880) 
C9H24Si2

>  <EXACT MASS>  (4880) 
188.14165382800002

>  <MW>  (4880) 
188

>  <ID>  (4880) 
JP004668

>  <CONTRIBUTOR>  (4880) 
University of Tokyo Team, {Faculty of Engineering, University of Tokyo

>  <COMMENT>  (4880) 
SMILES=C[Si](C)(C)CCC[Si](C)(C)C
InChI=InChI=1S/C9H24Si2/c1-10(2,3)8-7-9-11(4,5)6/h7-9H2,1-6H3
computed SMILES=C[Si](C)(C)CCC[Si](C)(C)C
accession=JP004668
date=2016.01.19 (Created 2008.10.21, modified 2011.05.06)
author=MASS SPECTROSCOPY SOC. OF JAPAN (MSSJ)
license=CC BY-NC-SA
exact mass=188.14165
ionization energy=70 eV
ion type=[M]+*
computed spectral entropy=2.6370278004691063
computed normalized entropy=0.7913763373216413
SPLASH=splash10-00di-9300000000-859084ab896dc2bff487
submitter=submitter = University of Tokyo Team (Faculty of Engineering, University of Tokyo)
MoNA Rating=3.75

>  <NUM PEAKS>  (4880) 
28

>  <MASS SPECTRAL PEAKS>  (4880) 
42 1.94
43 20.87
44 2.23
45 9.9
49 8.54
51 3.3
58 9.41
59 8.64
72 14.75
73 99.99
74 9.7
75 3.59
84 6.69
85 4.07
86 3.68
99 27.57
100 18.34
101 4.36
114 10.58
115 2.23
117 1.65
119 1.45
159 2.03
173 26.89
174 5.72
175 2.03
188 7.28
189 1.26

$$$$

     RDKit          2D

  8  8  0  0  0  0  0  0  0  0999 V2000
    2.2733   -0.6175    0.0000 C   0  0  0  0  0  0  0  0  0  0  0  0
    2.2738    0.8833    0.0000 C   0  0  0  0  0  0  0  0  0  0  0  0
    0.9738   -1.3683    0.0000 C   0  0  0  0  0  0  0  0  0  0  0  0
    0.9748    1.6333    0.0000 C   0  0  0  0  0  0  0  0  0  0  0  0
   -0.3252   -0.6183    0.0000 C   0  0  0  0  0  0  0  0  0  0  0  0
   -1.6238    1.6325    0.0000 C   0  0  0  0  0  0  0  0  0  0  0  0
   -0.3248    0.8825    0.0000 C   0  0  0  0  0  0  0  0  0  0  0  0
   -2.9228    0.8825    0.0000 O   0  0  0  0  0  0  0  0  0  0  0  0
  2  1  2  0
  3  1  1  0
  4  2  1  0
  5  3  2  0
  7  4  2  0
  7  5  1  0
  7  6  1  0
  8  6  2  0
M  END
>  <NAME>  (4881) 
BENZALDEHYDE

>  <SYNONYMS>  (4881) 


>  <SPECTRUM TYPE>  (4881) 
MS1

>  <INSTRUMENT TYPE>  (4881) 
EI-B

>  <INSTRUMENT>  (4881) 
JEOL JMS-D-3000

>  <ION MODE>  (4881) 
P

>  <INCHIKEY>  (4881) 
HUMNYLRZRPPJDN-UHFFFAOYSA-N

>  <FORMULA>  (4881) 
C7H6O

>  <EXACT MASS>  (4881) 
106.041864812

>  <MW>  (4881) 
106

>  <ID>  (4881) 
JP004667

>  <CONTRIBUTOR>  (4881) 
University of Tokyo Team, {Faculty of Engineering, University of Tokyo

>  <COMMENT>  (4881) 
SMILES=O=Cc(c1)cccc1
cas=100-52-7
InChI=InChI=1S/C7H6O/c8-6-7-4-2-1-3-5-7/h1-6H
computed SMILES=O=CC=1C=CC=CC1
accession=JP004667
date=2016.01.19 (Created 2008.10.21, modified 2011.05.06)
author=MASS SPECTROSCOPY SOC. OF JAPAN (MSSJ)
license=CC BY-NC-SA
exact mass=106.04186
ionization energy=70 eV
ion type=[M]+*
computed spectral entropy=2.1748328985376806
computed normalized entropy=0.7386238648264899
SPLASH=splash10-0a6r-9700000000-af6ef18ad5441da71000
submitter=submitter = University of Tokyo Team (Faculty of Engineering, University of Tokyo)
MoNA Rating=3.75

>  <NUM PEAKS>  (4881) 
19

>  <MASS SPECTRAL PEAKS>  (4881) 
49 4.1
50 19.79
51 41.07
52 18.47
53 2.84
56 1.01
61 2.01
62 2.56
63 3.83
73 2.97
74 11.83
75 6.16
76 7.21
77 99.99
78 13.27
79 1.52
105 87.14
106 94.64
107 13.67

$$$$

     RDKit          2D

  9  8  0  0  0  0  0  0  0  0999 V2000
    2.0490    4.0981    0.0000 C   0  0  0  0  0  0  0  0  0  0  0  0
    2.0490    1.0981    0.0000 C   0  0  0  0  0  0  0  0  0  0  0  0
    3.5490    2.5981    0.0000 C   0  0  0  0  0  0  0  0  0  0  0  0
   -1.5000    2.0490    0.0000 C   0  0  0  0  0  0  0  0  0  0  0  0
   -0.9510    0.0000    0.0000 C   0  0  0  0  0  0  0  0  0  0  0  0
    1.0981    0.5490    0.0000 C   0  0  0  0  0  0  0  0  0  0  0  0
    0.5490    2.5981    0.0000 N   0  0  0  0  0  0  0  0  0  0  0  0
    2.0490    2.5981    0.0000 Si  0  0  0  0  0  4  0  0  0  0  0  0
   -0.2010    1.2990    0.0000 Si  0  0  0  0  0  4  0  0  0  0  0  0
  8  1  1  0
  8  2  1  0
  8  3  1  0
  8  7  1  0
  9  4  1  0
  9  5  1  0
  9  6  1  0
  9  7  1  0
M  END
>  <NAME>  (4882) 
BIS(TRIMETHYLSILYL)AMINE

>  <SYNONYMS>  (4882) 


>  <SPECTRUM TYPE>  (4882) 
MS1

>  <INSTRUMENT TYPE>  (4882) 
EI-B

>  <INSTRUMENT>  (4882) 
JEOL JMS-D-3000

>  <ION MODE>  (4882) 
P

>  <INCHIKEY>  (4882) 
FFUAGWLWBBFQJT-UHFFFAOYSA-N

>  <FORMULA>  (4882) 
C6H19NSi2

>  <EXACT MASS>  (4882) 
161.105602668

>  <MW>  (4882) 
161

>  <ID>  (4882) 
JP004666

>  <CONTRIBUTOR>  (4882) 
University of Tokyo Team, {Faculty of Engineering, University of Tokyo

>  <COMMENT>  (4882) 
SMILES=C[Si](C)(C)N[Si](C)(C)C
InChI=InChI=1S/C6H19NSi2/c1-8(2,3)7-9(4,5)6/h7H,1-6H3
computed SMILES=N([Si](C)(C)C)[Si](C)(C)C
accession=JP004666
date=2016.01.19 (Created 2008.10.21, modified 2011.05.06)
author=MASS SPECTROSCOPY SOC. OF JAPAN (MSSJ)
license=CC BY-NC-SA
exact mass=161.1056
ionization energy=70 eV
ion type=[M]+*
computed spectral entropy=1.8002592088858254
computed normalized entropy=0.6114099227811038
SPLASH=splash10-0002-1900000000-7b5bff15142af052d2d6
submitter=submitter = University of Tokyo Team (Faculty of Engineering, University of Tokyo)
MoNA Rating=3.75

>  <NUM PEAKS>  (4882) 
19

>  <MASS SPECTRAL PEAKS>  (4882) 
45 1.44
51 1.42
59 1.71
66 5.16
73 4.78
74 3.04
75 3.35
86 1.03
100 3.72
113 1.25
116 1.3
130 22.06
131 3.51
132 2.19
146 99.99
147 17.59
148 8.65
149 1.05
161 2.97

$$$$

     RDKit          2D

  8  7  0  0  0  0  0  0  0  0999 V2000
    3.8236    3.0736    0.0000 C   0  0  0  0  0  0  0  0  0  0  0  0
    2.3236    0.4755    0.0000 C   0  0  0  0  0  0  0  0  0  0  0  0
    4.3726    1.0245    0.0000 C   0  0  0  0  0  0  0  0  0  0  0  0
    0.4755    1.7745    0.0000 C   0  0  0  0  0  0  0  0  0  0  0  0
   -0.8236    2.5245    0.0000 C   0  0  0  0  0  0  0  0  0  0  0  0
    1.7745    2.5245    0.0000 C   0  0  0  0  0  0  0  0  0  0  0  0
   -2.1226    1.7745    0.0000 Br  0  0  0  0  0  0  0  0  0  0  0  0
    3.0736    1.7745    0.0000 Si  0  0  0  0  0  4  0  0  0  0  0  0
  5  4  1  0
  6  4  1  0
  7  5  1  0
  8  1  1  0
  8  2  1  0
  8  3  1  0
  8  6  1  0
M  END
>  <NAME>  (4883) 
3-BROMOPROPYLTRIMETHYLSILANE

>  <SYNONYMS>  (4883) 


>  <SPECTRUM TYPE>  (4883) 
MS1

>  <INSTRUMENT TYPE>  (4883) 
EI-B

>  <INSTRUMENT>  (4883) 
JEOL JMS-D-3000

>  <ION MODE>  (4883) 
P

>  <INCHIKEY>  (4883) 
NVEYOAXSXPSFHL-UHFFFAOYSA-N

>  <FORMULA>  (4883) 
C6H15BrSi

>  <EXACT MASS>  (4883) 
194.01263911

>  <MW>  (4883) 
194

>  <ID>  (4883) 
JP004665

>  <CONTRIBUTOR>  (4883) 
University of Tokyo Team, {Faculty of Engineering, University of Tokyo

>  <COMMENT>  (4883) 
SMILES=BrCCC[Si](C)(C)C
InChI=InChI=1S/C6H15BrSi/c1-8(2,3)6-4-5-7/h4-6H2,1-3H3
computed SMILES=BrCCC[Si](C)(C)C
accession=JP004665
date=2016.01.19 (Created 2008.10.21, modified 2011.05.06)
author=MASS SPECTROSCOPY SOC. OF JAPAN (MSSJ)
license=CC BY-NC-SA
exact mass=194.01264
ionization energy=70 eV
ion type=[M]+*
computed spectral entropy=2.4050906876190528
computed normalized entropy=0.7297359624885917
SPLASH=splash10-000i-8900000000-097a2a7ed7dd60b51a6a
submitter=submitter = University of Tokyo Team (Faculty of Engineering, University of Tokyo)
MoNA Rating=3.75

>  <NUM PEAKS>  (4883) 
27

>  <MASS SPECTRAL PEAKS>  (4883) 
41 5.59
42 69.93
43 16.22
44 6.04
45 13.19
55 3.48
57 2.93
58 3.02
59 4.94
72 4.39
73 97.15
74 7.33
75 4.67
107 3.94
109 6.32
111 3.11
123 3.29
125 3.11
137 99.99
138 10.26
139 99.08
140 8.34
141 4.12
152 8.06
154 8.34
179 3.2
181 3.66

$$$$

     RDKit          2D

  7  7  0  0  0  0  0  0  0  0999 V2000
   -1.6700   -0.9600    0.0000 C   0  0  0  0  0  0  0  0  0  0  0  0
   -1.6700    0.5400    0.0000 C   0  0  0  0  0  0  0  0  0  0  0  0
   -0.3700   -1.7100    0.0000 C   0  0  0  0  0  0  0  0  0  0  0  0
   -0.3700    1.2900    0.0000 C   0  0  0  0  0  0  0  0  0  0  0  0
    0.9300   -0.9600    0.0000 C   0  0  0  0  0  0  0  0  0  0  0  0
    0.9300    0.5400    0.0000 C   0  0  0  0  0  0  0  0  0  0  0  0
    2.2289    1.2902    0.0000 O   0  0  0  0  0  0  0  0  0  0  0  0
  2  1  2  0
  3  1  1  0
  4  2  1  0
  5  3  2  0
  6  4  2  0
  6  5  1  0
  7  6  1  0
M  END
>  <NAME>  (4884) 
PHENOL

>  <SYNONYMS>  (4884) 


>  <SPECTRUM TYPE>  (4884) 
MS1

>  <INSTRUMENT TYPE>  (4884) 
EI-B

>  <INSTRUMENT>  (4884) 
JEOL JMS-D-3000

>  <ION MODE>  (4884) 
P

>  <INCHIKEY>  (4884) 
ISWSIDIOOBJBQZ-UHFFFAOYSA-N

>  <FORMULA>  (4884) 
C6H6O

>  <EXACT MASS>  (4884) 
94.041864812

>  <MW>  (4884) 
94

>  <ID>  (4884) 
JP004664

>  <CONTRIBUTOR>  (4884) 
University of Tokyo Team, {Faculty of Engineering, University of Tokyo

>  <COMMENT>  (4884) 
SMILES=Oc(c1)cccc1
cas=108-95-2
InChI=InChI=1S/C6H6O/c7-6-4-2-1-3-5-6/h1-5,7H
computed SMILES=OC=1C=CC=CC1
accession=JP004664
date=2016.01.19 (Created 2008.10.21, modified 2011.05.06)
author=MASS SPECTROSCOPY SOC. OF JAPAN (MSSJ)
license=CC BY-NC-SA
exact mass=94.04186
ionization energy=70 eV
ion type=[M]+*
computed spectral entropy=1.2774268585323338
computed normalized entropy=0.6564675450983644
SPLASH=splash10-0006-9000000000-fc01d0ad6740cfd70e13
submitter=submitter = University of Tokyo Team (Faculty of Engineering, University of Tokyo)
MoNA Rating=3.75

>  <NUM PEAKS>  (4884) 
7

>  <MASS SPECTRAL PEAKS>  (4884) 
43 8.26
47 4.62
55 7.03
65 15.55
66 15.93
94 99.99
95 6.57

$$$$

     RDKit          2D

  8  8  0  0  0  0  0  0  0  0999 V2000
   -1.3000    0.7500    0.0000 C   0  0  0  0  0  0  0  0  0  0  0  0
   -0.0000   -1.5000    0.0000 C   0  0  0  0  0  0  0  0  0  0  0  0
    0.0000    1.5000    0.0000 C   0  0  0  0  0  0  0  0  0  0  0  0
    1.3000   -0.7500    0.0000 C   0  0  0  0  0  0  0  0  0  0  0  0
   -1.3000   -0.7500    0.0000 C   0  0  0  0  0  0  0  0  0  0  0  0
    1.3000    0.7500    0.0000 C   0  0  0  0  0  0  0  0  0  0  0  0
   -2.5989   -1.5002    0.0000 Cl  0  0  0  0  0  0  0  0  0  0  0  0
    2.5989    1.5002    0.0000 O   0  0  0  0  0  0  0  0  0  0  0  0
  3  1  2  0
  4  2  1  0
  5  1  1  0
  5  2  2  0
  6  3  1  0
  6  4  2  0
  7  5  1  0
  8  6  1  0
M  END
>  <NAME>  (4885) 
4-CHLOROPHENOL

>  <SYNONYMS>  (4885) 


>  <SPECTRUM TYPE>  (4885) 
MS1

>  <INSTRUMENT TYPE>  (4885) 
EI-B

>  <INSTRUMENT>  (4885) 
JEOL JMS-D-3000

>  <ION MODE>  (4885) 
P

>  <INCHIKEY>  (4885) 
WXNZTHHGJRFXKQ-UHFFFAOYSA-N

>  <FORMULA>  (4885) 
C6H5ClO

>  <EXACT MASS>  (4885) 
128.00289246

>  <MW>  (4885) 
128

>  <ID>  (4885) 
JP004663

>  <CONTRIBUTOR>  (4885) 
University of Tokyo Team, {Faculty of Engineering, University of Tokyo

>  <COMMENT>  (4885) 
SMILES=Oc(c1)ccc(Cl)c1
cas=106-48-9
InChI=InChI=1S/C6H5ClO/c7-5-1-3-6(8)4-2-5/h1-4,8H
computed SMILES=ClC1=CC=C(O)C=C1
accession=JP004663
date=2016.01.19 (Created 2008.10.21, modified 2011.05.06)
author=MASS SPECTROSCOPY SOC. OF JAPAN (MSSJ)
license=CC BY-NC-SA
exact mass=128.00289
ionization energy=70 eV
ion type=[M]+*
computed spectral entropy=2.3158270709089828
computed normalized entropy=0.7026522140085621
SPLASH=splash10-004i-5900000000-7c45de518d13780605c4
submitter=submitter = University of Tokyo Team (Faculty of Engineering, University of Tokyo)
MoNA Rating=3.75

>  <NUM PEAKS>  (4885) 
27

>  <MASS SPECTRAL PEAKS>  (4885) 
46 2.38
49 1.49
50 3.23
51 1.73
53 3.24
55 1.05
61 2.91
62 3.7
63 8.83
64 15.47
65 30.15
66 2.33
73 5.2
74 2.25
75 3.1
89 1.22
92 2.32
93 3.88
99 4.94
100 8.49
101 2.21
102 3.21
127 1.16
128 99.99
129 7.21
130 33.56
131 2.22

$$$$

     RDKit          2D

  9  8  0  0  0  0  0  0  0  0999 V2000
    2.0490    4.0981    0.0000 C   0  0  0  0  0  0  0  0  0  0  0  0
    2.0490    1.0981    0.0000 C   0  0  0  0  0  0  0  0  0  0  0  0
   -1.5000    2.0490    0.0000 C   0  0  0  0  0  0  0  0  0  0  0  0
   -0.9510    0.0000    0.0000 C   0  0  0  0  0  0  0  0  0  0  0  0
    0.5490    2.5981    0.0000 C   0  0  0  0  0  0  0  0  0  0  0  0
    3.5490    2.5981    0.0000 Cl  0  0  0  0  0  0  0  0  0  0  0  0
    1.0981    0.5490    0.0000 Cl  0  0  0  0  0  0  0  0  0  0  0  0
    2.0490    2.5981    0.0000 Si  0  0  0  0  0  4  0  0  0  0  0  0
   -0.2010    1.2990    0.0000 Si  0  0  0  0  0  4  0  0  0  0  0  0
  8  1  1  0
  8  2  1  0
  8  5  1  0
  8  6  1  0
  9  3  1  0
  9  4  1  0
  9  5  1  0
  9  7  1  0
M  END
>  <NAME>  (4886) 
BIS(CHLORODIMETHYLSILYL)METHANE

>  <SYNONYMS>  (4886) 


>  <SPECTRUM TYPE>  (4886) 
MS1

>  <INSTRUMENT TYPE>  (4886) 
EI-B

>  <INSTRUMENT>  (4886) 
JEOL JMS-D-3000

>  <ION MODE>  (4886) 
P

>  <INCHIKEY>  (4886) 
VTDZAHJRMRMQNP-UHFFFAOYSA-N

>  <FORMULA>  (4886) 
C5H14Cl2Si2

>  <EXACT MASS>  (4886) 
200.001108868

>  <MW>  (4886) 
200

>  <ID>  (4886) 
JP004662

>  <CONTRIBUTOR>  (4886) 
University of Tokyo Team, {Faculty of Engineering, University of Tokyo

>  <COMMENT>  (4886) 
SMILES=C[Si](C)(Cl)C[Si](C)(C)Cl
cas=5357-38-0
InChI=InChI=1S/C5H14Cl2Si2/c1-8(2,6)5-9(3,4)7/h5H2,1-4H3
computed SMILES=Cl[Si](C)(C)C[Si](Cl)(C)C
accession=JP004662
date=2016.01.19 (Created 2008.10.21, modified 2011.05.06)
author=MASS SPECTROSCOPY SOC. OF JAPAN (MSSJ)
license=CC BY-NC-SA
exact mass=200.00111
ionization energy=70 eV
ion type=[M]+*
computed spectral entropy=2.6227141983169107
computed normalized entropy=0.7788784623439057
SPLASH=splash10-000i-2900000000-4fc4ec25d1d710054c98
submitter=submitter = University of Tokyo Team (Faculty of Engineering, University of Tokyo)
MoNA Rating=3.75

>  <NUM PEAKS>  (4886) 
29

>  <MASS SPECTRAL PEAKS>  (4886) 
43 4.93
45 2.72
55 2.09
59 3.77
63 5.71
65 5.5
71 2.88
72 12.95
73 11.12
75 3.35
79 3.2
85 4.4
86 1.99
93 17.83
95 6.45
131 10.12
149 8.65
151 4.03
165 14.58
166 2.78
167 10.38
169 3.77
171 1.99
185 99.99
186 15.73
187 71.72
188 10.54
189 15.63
190 1.99

$$$$

     RDKit          2D

  7  6  0  0  0  0  0  0  0  0999 V2000
    1.6238    3.1875    0.0000 C   0  0  0  0  0  0  0  0  0  0  0  0
    0.3248    3.9375    0.0000 C   0  0  0  0  0  0  0  0  0  0  0  0
   -0.9743    3.1875    0.0000 C   0  0  0  0  0  0  0  0  0  0  0  0
   -2.2733    3.9375    0.0000 C   0  0  0  0  0  0  0  0  0  0  0  0
   -3.5724    3.1875    0.0000 C   0  0  0  0  0  0  0  0  0  0  0  0
   -4.8714    3.9375    0.0000 Cl  0  0  0  0  0  0  0  0  0  0  0  0
   -3.5724    1.6875    0.0000 Cl  0  0  0  0  0  0  0  0  0  0  0  0
  2  1  1  0
  3  2  1  0
  4  3  1  0
  5  4  2  0
  6  5  1  0
  7  5  1  0
M  END
>  <NAME>  (4887) 
1,1-DICHLORO-1-PENTENE

>  <SYNONYMS>  (4887) 


>  <SPECTRUM TYPE>  (4887) 
MS1

>  <INSTRUMENT TYPE>  (4887) 
EI-B

>  <INSTRUMENT>  (4887) 
JEOL JMS-D-3000

>  <ION MODE>  (4887) 
P

>  <INCHIKEY>  (4887) 
ZNPAFRLFBXOLET-UHFFFAOYSA-N

>  <FORMULA>  (4887) 
C5H8Cl2

>  <EXACT MASS>  (4887) 
138.000305616

>  <MW>  (4887) 
138

>  <ID>  (4887) 
JP004661

>  <CONTRIBUTOR>  (4887) 
University of Tokyo Team, {Faculty of Engineering, University of Tokyo

>  <COMMENT>  (4887) 
SMILES=CCCC=C(Cl)Cl
InChI=InChI=1S/C5H8Cl2/c1-2-3-4-5(6)7/h4H,2-3H2,1H3
computed SMILES=ClC(Cl)=CCCC
accession=JP004661
date=2016.01.19 (Created 2008.10.21, modified 2011.05.06)
author=MASS SPECTROSCOPY SOC. OF JAPAN (MSSJ)
license=CC BY-NC-SA
exact mass=138.00031
ionization energy=70 eV
ion type=[M]+*
computed spectral entropy=2.4490010028180427
computed normalized entropy=0.751666187370012
SPLASH=splash10-0006-9400000000-49202441f3646d5503c1
submitter=submitter = University of Tokyo Team (Faculty of Engineering, University of Tokyo)
MoNA Rating=3.75

>  <NUM PEAKS>  (4887) 
26

>  <MASS SPECTRAL PEAKS>  (4887) 
41 12.95
42 99.99
43 5.06
49 4.36
50 2.03
51 3.97
55 1.98
57 2.54
61 2.04
65 2.63
67 4.43
73 3.84
75 5.84
83 5.95
85 3.99
87 2.5
96 10.87
97 2.74
98 6.85
103 2.38
109 40.39
110 2.48
111 25.62
113 4.28
138 15.52
140 9.88

$$$$

     RDKit          2D

  7  6  0  0  0  0  0  0  0  0999 V2000
    1.4498    2.6115    0.0000 C   0  0  0  0  0  0  0  0  0  0  0  0
   -0.0502    0.0135    0.0000 C   0  0  0  0  0  0  0  0  0  0  0  0
    1.9988    0.5625    0.0000 C   0  0  0  0  0  0  0  0  0  0  0  0
   -0.5993    2.0625    0.0000 C   0  0  0  0  0  0  0  0  0  0  0  0
   -1.8983    1.3125    0.0000 I   0  0  0  0  0  0  0  0  0  0  0  0
   -0.5993    3.5625    0.0000 I   0  0  0  0  0  0  0  0  0  0  0  0
    0.6998    1.3125    0.0000 Si  0  0  0  0  0  4  0  0  0  0  0  0
  5  4  1  0
  6  4  1  0
  7  1  1  0
  7  2  1  0
  7  3  1  0
  7  4  1  0
M  END
>  <NAME>  (4888) 
(DIIODOMETHYL)TRIMETHYLSILANE

>  <SYNONYMS>  (4888) 


>  <SPECTRUM TYPE>  (4888) 
MS1

>  <INSTRUMENT TYPE>  (4888) 
EI-B

>  <INSTRUMENT>  (4888) 
JEOL JMS-D-3000

>  <ION MODE>  (4888) 
P

>  <INCHIKEY>  (4888) 
RXBPBTHLRBDCFU-UHFFFAOYSA-N

>  <FORMULA>  (4888) 
C4H10I2Si

>  <EXACT MASS>  (4888) 
339.86412285

>  <MW>  (4888) 
340

>  <ID>  (4888) 
JP004660

>  <CONTRIBUTOR>  (4888) 
University of Tokyo Team, {Faculty of Engineering, University of Tokyo

>  <COMMENT>  (4888) 
SMILES=C[Si](C)(C)C(I)I
InChI=InChI=1S/C4H10I2Si/c1-7(2,3)4(5)6/h4H,1-3H3
computed SMILES=IC(I)[Si](C)(C)C
accession=JP004660
date=2016.01.19 (Created 2008.10.21, modified 2011.05.06)
author=MASS SPECTROSCOPY SOC. OF JAPAN (MSSJ)
license=CC BY-NC-SA
exact mass=339.86411
ionization energy=70 eV
ion type=[M]+*
computed spectral entropy=2.5635620037161284
computed normalized entropy=0.842024342455844
SPLASH=splash10-000g-6968000000-ad1c209704066aa31e93
submitter=submitter = University of Tokyo Team (Faculty of Engineering, University of Tokyo)
MoNA Rating=3.75

>  <NUM PEAKS>  (4888) 
21

>  <MASS SPECTRAL PEAKS>  (4888) 
42 13.34
53 11.65
55 13.15
59 13.53
73 49.43
75 8.45
155 9.21
157 13.15
171 6.76
185 80.45
186 18.79
187 9.21
198 9.58
283 6.39
297 75.75
298 10.33
299 6.01
325 12.03
340 99.99
341 18.98
342 7.7

$$$$

     RDKit          2D

  7  6  0  0  0  0  0  0  0  0999 V2000
    1.4498    2.6115    0.0000 C   0  0  0  0  0  0  0  0  0  0  0  0
   -0.0502    0.0135    0.0000 C   0  0  0  0  0  0  0  0  0  0  0  0
    1.9988    0.5625    0.0000 C   0  0  0  0  0  0  0  0  0  0  0  0
   -0.5993    2.0625    0.0000 C   0  0  0  0  0  0  0  0  0  0  0  0
   -1.8983    1.3125    0.0000 Cl  0  0  0  0  0  0  0  0  0  0  0  0
   -0.5993    3.5625    0.0000 I   0  0  0  0  0  0  0  0  0  0  0  0
    0.6998    1.3125    0.0000 Si  0  0  0  0  0  4  0  0  0  0  0  0
  5  4  1  0
  6  4  1  0
  7  1  1  0
  7  2  1  0
  7  3  1  0
  7  4  1  0
M  END
>  <NAME>  (4889) 
(CHLOROIODOMETHYL)TRIMETHYLSILANE

>  <SYNONYMS>  (4889) 


>  <SPECTRUM TYPE>  (4889) 
MS1

>  <INSTRUMENT TYPE>  (4889) 
EI-B

>  <INSTRUMENT>  (4889) 
JEOL JMS-D-3000

>  <ION MODE>  (4889) 
P

>  <INCHIKEY>  (4889) 
CSULUJJLSAGOBX-UHFFFAOYSA-N

>  <FORMULA>  (4889) 
C4H10ClISi

>  <EXACT MASS>  (4889) 
247.92850253

>  <MW>  (4889) 
248

>  <ID>  (4889) 
JP004659

>  <CONTRIBUTOR>  (4889) 
University of Tokyo Team, {Faculty of Engineering, University of Tokyo

>  <COMMENT>  (4889) 
SMILES=C[Si](C)(C)C(Cl)I
InChI=InChI=1S/C4H10ClISi/c1-7(2,3)4(5)6/h4H,1-3H3
computed SMILES=ClC(I)[Si](C)(C)C
accession=JP004659
date=2016.01.19 (Created 2008.10.21, modified 2011.05.06)
author=MASS SPECTROSCOPY SOC. OF JAPAN (MSSJ)
license=CC BY-NC-SA
exact mass=247.9285
ionization energy=70 eV
ion type=[M]+*
computed spectral entropy=2.649836588682092
computed normalized entropy=0.8133081870837494
SPLASH=splash10-05fu-9020000000-8890edb8a816d1b58bf6
submitter=submitter = University of Tokyo Team (Faculty of Engineering, University of Tokyo)
MoNA Rating=3.75

>  <NUM PEAKS>  (4889) 
26

>  <MASS SPECTRAL PEAKS>  (4889) 
41 4.13
42 2.95
43 17.25
44 34.69
45 14.06
57 2.83
58 4.66
59 14.24
63 6.2
65 4.9
73 99.99
74 16.43
75 4.49
78 4.13
79 4.66
93 23.46
95 9.51
127 2.3
155 3.01
185 2.77
205 35.75
206 2.48
207 14
248 21.33
249 2.24
250 7.09

$$$$

     RDKit          2D

  6  5  0  0  0  0  0  0  0  0999 V2000
    0.8002    0.0135    0.0000 C   0  0  0  0  0  0  0  0  0  0  0  0
    1.3493    2.0625    0.0000 C   0  0  0  0  0  0  0  0  0  0  0  0
    1.3493    3.5625    0.0000 Cl  0  0  0  0  0  0  0  0  0  0  0  0
   -0.6998    2.6115    0.0000 Cl  0  0  0  0  0  0  0  0  0  0  0  0
   -1.2488    0.5625    0.0000 Cl  0  0  0  0  0  0  0  0  0  0  0  0
    0.0502    1.3125    0.0000 Si  0  0  0  0  0  4  0  0  0  0  0  0
  3  2  1  0
  6  1  1  0
  6  2  1  0
  6  4  1  0
  6  5  1  0
M  END
>  <NAME>  (4890) 
DICHLORO(CHLOROMETHYL)METHYLSILANE

>  <SYNONYMS>  (4890) 


>  <SPECTRUM TYPE>  (4890) 
MS1

>  <INSTRUMENT TYPE>  (4890) 
EI-B

>  <INSTRUMENT>  (4890) 
JEOL JMS-D-3000

>  <ION MODE>  (4890) 
P

>  <INCHIKEY>  (4890) 
JAYBZWYBCUJLNQ-UHFFFAOYSA-N

>  <FORMULA>  (4890) 
C2H5Cl3Si

>  <EXACT MASS>  (4890) 
161.92260972999998

>  <MW>  (4890) 
162

>  <ID>  (4890) 
JP004658

>  <CONTRIBUTOR>  (4890) 
University of Tokyo Team, {Faculty of Engineering, University of Tokyo

>  <COMMENT>  (4890) 
SMILES=ClC[Si](C)(Cl)Cl
cas=1558-33-4
InChI=InChI=1S/C2H5Cl3Si/c1-6(4,5)2-3/h2H2,1H3
computed SMILES=ClC[Si](Cl)(Cl)C
accession=JP004658
date=2016.01.19 (Created 2008.10.21, modified 2011.05.06)
author=MASS SPECTROSCOPY SOC. OF JAPAN (MSSJ)
license=CC BY-NC-SA
exact mass=161.92261
ionization energy=70 eV
ion type=[M]+*
computed spectral entropy=2.6858563815732195
computed normalized entropy=0.7280954596057296
SPLASH=splash10-03xr-2900000000-e817da5b36dbc1c86294
submitter=submitter = University of Tokyo Team (Faculty of Engineering, University of Tokyo)
MoNA Rating=3.75

>  <NUM PEAKS>  (4890) 
40

>  <MASS SPECTRAL PEAKS>  (4890) 
43 1.27
44 3.82
49 3.48
51 1.14
59 1.4
63 19.83
64 1.95
65 7.09
77 1.82
78 1.14
79 7.26
80 1.14
81 2.63
95 2.42
98 3.82
99 5.9
100 3.05
101 4.33
109 19.49
110 1.48
111 7.3
112 2.2
113 99.99
114 6.92
115 68.78
116 4.11
117 12.35
123 2.46
127 3.09
129 2.29
133 1.91
135 1.78
143 1.57
145 1.27
147 7.77
149 7.81
151 3.09
162 4.24
164 4.5
166 1.78

$$$$

     RDKit          2D

  7  6  0  0  0  0  0  0  0  0999 V2000
    1.9486    2.6250    0.0000 C   0  0  0  0  0  0  0  0  0  0  0  0
    0.6495    3.3750    0.0000 C   0  0  0  0  0  0  0  0  0  0  0  0
   -3.2476    2.6250    0.0000 C   0  0  0  0  0  0  0  0  0  0  0  0
   -1.9486    3.3750    0.0000 C   0  0  0  0  0  0  0  0  0  0  0  0
   -4.5466    3.3750    0.0000 Br  0  0  0  0  0  0  0  0  0  0  0  0
   -1.9486    4.8750    0.0000 O   0  0  0  0  0  0  0  0  0  0  0  0
   -0.6495    2.6250    0.0000 O   0  0  0  0  0  0  0  0  0  0  0  0
  2  1  1  0
  4  3  1  0
  5  3  1  0
  6  4  2  0
  7  2  1  0
  7  4  1  0
M  END
>  <NAME>  (4891) 
ETHYL BROMOACETATE

>  <SYNONYMS>  (4891) 


>  <SPECTRUM TYPE>  (4891) 
MS1

>  <INSTRUMENT TYPE>  (4891) 
EI-B

>  <INSTRUMENT>  (4891) 
JEOL JMS-D-3000

>  <ION MODE>  (4891) 
P

>  <INCHIKEY>  (4891) 
PQJJJMRNHATNKG-UHFFFAOYSA-N

>  <FORMULA>  (4891) 
C4H7BrO2

>  <EXACT MASS>  (4891) 
165.962941564

>  <MW>  (4891) 
166

>  <ID>  (4891) 
JP004657

>  <CONTRIBUTOR>  (4891) 
University of Tokyo Team, {Faculty of Engineering, University of Tokyo

>  <COMMENT>  (4891) 
SMILES=CCOC(=O)CBr
cas=105-36-2
InChI=InChI=1S/C4H7BrO2/c1-2-7-4(6)3-5/h2-3H2,1H3
computed SMILES=O=C(OCC)CBr
accession=JP004657
date=2016.01.19 (Created 2008.10.21, modified 2011.05.06)
author=MASS SPECTROSCOPY SOC. OF JAPAN (MSSJ)
license=CC BY-NC-SA
exact mass=165.96294
ionization energy=70 eV
ion type=[M]+*
computed spectral entropy=2.6272873482049586
computed normalized entropy=0.8266969310325725
SPLASH=splash10-0btc-9100000000-8cbb490b30659f3b6cf2
submitter=submitter = University of Tokyo Team (Faculty of Engineering, University of Tokyo)
MoNA Rating=3.75

>  <NUM PEAKS>  (4891) 
24

>  <MASS SPECTRAL PEAKS>  (4891) 
41 7.96
42 17.83
43 22.53
44 15.43
45 21.83
59 99.99
60 29.03
61 21.77
70 9.7
73 3.31
87 4.27
88 39.79
89 3.45
93 7.27
94 4.27
95 6.84
96 3.02
103 2.66
121 12.45
123 13.33
138 5.31
140 5.76
166 2.07
168 2.96

$$$$

     RDKit          2D

  8  8  0  0  0  0  0  0  0  0999 V2000
   -1.3000    0.7500    0.0000 C   0  0  0  0  0  0  0  0  0  0  0  0
    0.0000    1.5000    0.0000 C   0  0  0  0  0  0  0  0  0  0  0  0
   -1.3000   -0.7500    0.0000 C   0  0  0  0  0  0  0  0  0  0  0  0
    1.3000   -0.7500    0.0000 C   0  0  0  0  0  0  0  0  0  0  0  0
    1.3000    0.7500    0.0000 C   0  0  0  0  0  0  0  0  0  0  0  0
   -0.0000   -1.5000    0.0000 C   0  0  0  0  0  0  0  0  0  0  0  0
    2.5989    1.5002    0.0000 Cl  0  0  0  0  0  0  0  0  0  0  0  0
   -0.0000   -3.0000    0.0000 Cl  0  0  0  0  0  0  0  0  0  0  0  0
  2  1  2  0
  3  1  1  0
  5  2  1  0
  5  4  2  0
  6  3  2  0
  6  4  1  0
  7  5  1  0
  8  6  1  0
M  END
>  <NAME>  (4892) 
1,3-DICHLOROBENZENE

>  <SYNONYMS>  (4892) 


>  <SPECTRUM TYPE>  (4892) 
MS1

>  <INSTRUMENT TYPE>  (4892) 
EI-B

>  <INSTRUMENT>  (4892) 
JEOL JMS-D-3000

>  <ION MODE>  (4892) 
P

>  <INCHIKEY>  (4892) 
ZPQOPVIELGIULI-UHFFFAOYSA-N

>  <FORMULA>  (4892) 
C6H4Cl2

>  <EXACT MASS>  (4892) 
145.969005488

>  <MW>  (4892) 
146

>  <ID>  (4892) 
JP004655

>  <CONTRIBUTOR>  (4892) 
University of Tokyo Team, {Faculty of Engineering, University of Tokyo

>  <COMMENT>  (4892) 
SMILES=Clc(c1)cc(Cl)cc1
InChI=InChI=1S/C6H4Cl2/c7-5-2-1-3-6(8)4-5/h1-4H
computed SMILES=ClC1=CC=CC(Cl)=C1
accession=JP004655
date=2016.01.19 (Created 2008.10.21, modified 2011.05.06)
author=MASS SPECTROSCOPY SOC. OF JAPAN (MSSJ)
license=CC BY-NC-SA
exact mass=145.96901
ionization energy=70 eV
ion type=[M]+*
computed spectral entropy=2.269084322060181
computed normalized entropy=0.7236767685721203
SPLASH=splash10-0002-2900000000-2281bf748000d702c707
submitter=submitter = University of Tokyo Team (Faculty of Engineering, University of Tokyo)
MoNA Rating=3.75

>  <NUM PEAKS>  (4892) 
23

>  <MASS SPECTRAL PEAKS>  (4892) 
49 1.96
50 10.32
51 3.74
55 5.11
56 1.63
61 1.41
73 7.86
74 10.73
75 20.45
76 2.67
84 2.28
85 2.62
86 1.35
109 1.52
110 2.29
111 34.44
112 3.02
113 11.16
146 99.99
147 6.99
148 64.12
149 4.33
150 10.7

$$$$

     RDKit          2D

  8  8  0  0  0  0  0  0  0  0999 V2000
   -1.3000    0.7500    0.0000 C   0  0  0  0  0  0  0  0  0  0  0  0
    0.0000    1.5000    0.0000 C   0  0  0  0  0  0  0  0  0  0  0  0
   -0.0000   -1.5000    0.0000 C   0  0  0  0  0  0  0  0  0  0  0  0
    1.3000   -0.7500    0.0000 C   0  0  0  0  0  0  0  0  0  0  0  0
   -1.3000   -0.7500    0.0000 C   0  0  0  0  0  0  0  0  0  0  0  0
    1.3000    0.7500    0.0000 C   0  0  0  0  0  0  0  0  0  0  0  0
   -2.5989   -1.5002    0.0000 Cl  0  0  0  0  0  0  0  0  0  0  0  0
    2.5989    1.5002    0.0000 Cl  0  0  0  0  0  0  0  0  0  0  0  0
  2  1  2  0
  4  3  1  0
  5  1  1  0
  5  3  2  0
  6  2  1  0
  6  4  2  0
  7  5  1  0
  8  6  1  0
M  END
>  <NAME>  (4893) 
1,4-DICHLOROBENZENE

>  <SYNONYMS>  (4893) 


>  <SPECTRUM TYPE>  (4893) 
MS1

>  <INSTRUMENT TYPE>  (4893) 
EI-B

>  <INSTRUMENT>  (4893) 
JEOL JMS-D-3000

>  <ION MODE>  (4893) 
P

>  <INCHIKEY>  (4893) 
OCJBOOLMMGQPQU-UHFFFAOYSA-N

>  <FORMULA>  (4893) 
C6H4Cl2

>  <EXACT MASS>  (4893) 
145.969005488

>  <MW>  (4893) 
146

>  <ID>  (4893) 
JP004654

>  <CONTRIBUTOR>  (4893) 
University of Tokyo Team, {Faculty of Engineering, University of Tokyo

>  <COMMENT>  (4893) 
SMILES=Clc(c1)ccc(Cl)c1
cas=106-46-7
InChI=InChI=1S/C6H4Cl2/c7-5-1-2-6(8)4-3-5/h1-4H
computed SMILES=ClC1=CC=C(Cl)C=C1
accession=JP004654
date=2016.01.19 (Created 2008.10.21, modified 2011.05.06)
author=MASS SPECTROSCOPY SOC. OF JAPAN (MSSJ)
license=CC BY-NC-SA
exact mass=145.96901
ionization energy=70 eV
ion type=[M]+*
computed spectral entropy=2.2201850154638807
computed normalized entropy=0.7080813621612653
SPLASH=splash10-0002-2900000000-324c6fc09e913a17becf
submitter=submitter = University of Tokyo Team (Faculty of Engineering, University of Tokyo)
MoNA Rating=3.75

>  <NUM PEAKS>  (4893) 
23

>  <MASS SPECTRAL PEAKS>  (4893) 
49 1.68
50 9.63
51 3.07
55 4.31
56 1.34
61 1.24
73 7.57
74 10.89
75 18.65
76 2.32
84 1.77
85 2.28
86 1.17
109 1.23
110 2.14
111 31.13
112 2.67
113 10.2
146 99.99
147 6.95
148 64.47
149 4.33
150 10.34

$$$$

     RDKit          2D

 24 26  0  0  0  0  0  0  0  0999 V2000
    3.7979    1.2902    0.0000 C   0  0  0  0  0  0  0  0  0  0  0  0
   -0.2352   -1.8338    0.0000 C   0  0  0  0  0  0  0  0  0  0  0  0
    1.6740   -1.2135    0.0000 C   0  0  0  0  0  0  0  0  0  0  0  0
    1.6740    2.7135    0.0000 C   0  0  0  0  0  0  0  0  0  0  0  0
   -0.2352    3.3338    0.0000 C   0  0  0  0  0  0  0  0  0  0  0  0
    2.3713   -0.2537    0.0000 C   0  0  0  0  0  0  0  0  0  0  0  0
    2.3713    1.7537    0.0000 C   0  0  0  0  0  0  0  0  0  0  0  0
   -4.6922   -2.6450    0.0000 C   0  0  0  0  0  0  0  0  0  0  0  0
   -4.6922    4.1450    0.0000 C   0  0  0  0  0  0  0  0  0  0  0  0
   -3.3213   -3.2559    0.0000 C   0  0  0  0  0  0  0  0  0  0  0  0
   -4.8496   -1.1525    0.0000 C   0  0  0  0  0  0  0  0  0  0  0  0
   -4.8496    2.6525    0.0000 C   0  0  0  0  0  0  0  0  0  0  0  0
   -3.3213    4.7559    0.0000 C   0  0  0  0  0  0  0  0  0  0  0  0
   -2.1078   -2.3742    0.0000 C   0  0  0  0  0  0  0  0  0  0  0  0
   -3.6360   -0.2708    0.0000 C   0  0  0  0  0  0  0  0  0  0  0  0
   -3.6360    1.7708    0.0000 C   0  0  0  0  0  0  0  0  0  0  0  0
   -2.1078    3.8742    0.0000 C   0  0  0  0  0  0  0  0  0  0  0  0
   -2.2652   -0.8817    0.0000 C   0  0  0  0  0  0  0  0  0  0  0  0
   -2.2652    2.3817    0.0000 C   0  0  0  0  0  0  0  0  0  0  0  0
   -1.0516    0.0000    0.0000 C   0  0  0  0  0  0  0  0  0  0  0  0
   -1.0516    1.5000    0.0000 C   0  0  0  0  0  0  0  0  0  0  0  0
    0.3750   -0.4635    0.0000 Si  0  0  0  0  0  4  0  0  0  0  0  0
    0.3750    1.9635    0.0000 Si  0  0  0  0  0  4  0  0  0  0  0  0
    1.2566    0.7500    0.0000 Si  0  0  0  0  0  4  0  0  0  0  0  0
  7  1  1  0
 10  8  2  0
 11  8  1  0
 12  9  2  0
 13  9  1  0
 14 10  1  0
 15 11  2  0
 16 12  1  0
 17 13  2  0
 18 14  2  0
 18 15  1  0
 19 16  2  0
 19 17  1  0
 20 18  1  0
 21 19  1  0
 21 20  2  0
 22  2  1  0
 22  3  1  0
 22 20  1  0
 23  4  1  0
 23  5  1  0
 23 21  1  0
 24  6  1  0
 24  7  1  0
 24 22  1  0
 24 23  1  0
M  END
>  <NAME>  (4894) 
2-ETHYL-1,1,2,3,3-PENTAMETHYL-4,5-DIPHENYL-1,2,3-TRISILACYCLOPENT-4-ENE

>  <SYNONYMS>  (4894) 


>  <SPECTRUM TYPE>  (4894) 
MS1

>  <INSTRUMENT TYPE>  (4894) 
EI-B

>  <INSTRUMENT>  (4894) 
JEOL JMS-D-3000

>  <ION MODE>  (4894) 
P

>  <INCHIKEY>  (4894) 
WNWHEIYCWOFGOD-UHFFFAOYSA-N

>  <FORMULA>  (4894) 
C21H30Si3

>  <EXACT MASS>  (4894) 
366.16553054999997

>  <MW>  (4894) 
366

>  <ID>  (4894) 
JP004653

>  <CONTRIBUTOR>  (4894) 
University of Tokyo Team, {Faculty of Engineering, University of Tokyo

>  <COMMENT>  (4894) 
SMILES=c(c3)ccc(c3)C(=C(c(c2)cccc2)1)[Si](C)(C)[Si](C)(CC)[Si](C)(C)1
InChI=InChI=1S/C21H30Si3/c1-7-24(6)22(2,3)20(18-14-10-8-11-15-18)21(23(24,4)5)19-16-12-9-13-17-19/h8-17H,7H2,1-6H3
computed SMILES=C=1C=CC(=CC1)C2=C(C=3C=CC=CC3)[Si](C)(C)[Si](C)(CC)[Si]2(C)C
accession=JP004653
date=2016.01.19 (Created 2008.10.21, modified 2011.05.06)
author=MASS SPECTROSCOPY SOC. OF JAPAN (MSSJ)
license=CC BY-NC-SA
exact mass=366.16553
ionization energy=70 eV
ion type=[M]+*
computed spectral entropy=4.547426664254491
computed normalized entropy=0.8658015860278093
SPLASH=splash10-01b9-4944000000-10cdad965296f7719640
submitter=submitter = University of Tokyo Team (Faculty of Engineering, University of Tokyo)
MoNA Rating=3.75

>  <NUM PEAKS>  (4894) 
191

>  <MASS SPECTRAL PEAKS>  (4894) 
43 14.11
45 8.2
50 1.14
51 1.98
53 2.18
58 2.63
59 46.42
60 3.82
61 2.23
63 1.68
71 1.14
72 1.88
73 99.99
74 10.38
75 5.51
76 3.57
77 2.38
83 1.29
85 6.01
86 3.97
87 9.69
88 2.68
89 4.37
93 1.64
95 1.09
99 7.65
100 3.62
101 7.9
102 20.12
103 6.51
104 2.33
105 15.05
106 2.43
107 2.88
109 1.09
111 1.09
113 5.06
114 2.38
115 11.92
116 14.01
117 17.94
118 3.13
119 3.97
120 1.39
121 8.1
122 1.44
125 1.29
126 1.98
127 2.23
128 1.34
129 11.23
130 25.74
131 11.72
132 3.72
133 3.87
135 37.77
136 5.76
137 2.23
139 1.64
140 1.29
141 1.64
143 4.62
144 1.44
145 13.32
146 2.68
147 4.87
148 2.73
149 6.56
150 2.23
151 2.63
152 3.13
154 1.88
155 2.08
157 2.23
158 1.29
159 11.72
160 11.67
161 5.91
162 2.53
163 12.27
164 10.48
165 4.07
166 1.24
169 1.14
171 1.49
173 2.53
175 4.32
176 6.11
177 13.22
178 43.88
179 12.27
180 3.37
181 2.08
183 1.24
187 3.77
188 9.39
189 3.52
190 1.78
191 5.96
192 14.11
193 9.54
194 2.93
195 3.33
197 10.08
198 2.03
199 1.34
201 1.78
202 4.67
203 7.85
204 2.73
205 2.68
206 1.09
207 2.58
208 1.73
209 2.08
211 1.59
215 1.34
216 4.82
217 7.85
218 3.08
219 3.82
220 1.24
221 9.44
222 2.18
223 1.24
231 8.59
232 2.33
233 3.87
234 1.14
235 1.88
237 1.59
239 1.93
245 1.93
247 2.73
248 1.19
249 4.07
250 1.68
251 1.39
253 1.78
259 2.98
260 1.09
261 1.83
262 1.24
263 8.34
264 7.3
265 11.72
266 3.67
267 1.83
273 1.24
275 3.03
276 1.34
277 7.1
278 6.01
279 23.8
280 6.95
281 3.92
282 1.34
291 1.78
292 2.38
293 17.49
294 6.66
295 24.7
296 7.6
297 2.98
307 4.97
308 2.13
309 4.07
310 9.84
311 3.42
312 1.39
321 3.87
322 1.78
323 8.79
324 3.28
325 1.68
335 2.63
336 1.29
337 22.96
338 8.69
339 4.62
340 1.34
351 7.1
352 2.63
353 5.11
354 2.68
355 1.34
366 95.17
367 38.41
368 38.41
369 4.47
370 1.09

$$$$

     RDKit          2D

 14 15  0  0  0  0  0  0  0  0999 V2000
    1.2992    0.7499    0.0000 C   0  0  0  0  0  0  0  0  0  0  0  0
   -2.5992   -3.0016    0.0000 C   0  0  0  0  0  0  0  0  0  0  0  0
    5.1979   -3.0003    0.0000 C   0  0  0  0  0  0  0  0  0  0  0  0
   -2.5987   -1.5007    0.0000 C   0  0  0  0  0  0  0  0  0  0  0  0
   -1.3002   -3.7516    0.0000 C   0  0  0  0  0  0  0  0  0  0  0  0
    3.8979   -3.7503    0.0000 C   0  0  0  0  0  0  0  0  0  0  0  0
    5.1979   -1.5003    0.0000 C   0  0  0  0  0  0  0  0  0  0  0  0
   -1.2992   -0.7499    0.0000 C   0  0  0  0  0  0  0  0  0  0  0  0
   -0.0007   -3.0007    0.0000 C   0  0  0  0  0  0  0  0  0  0  0  0
    2.5979   -3.0003    0.0000 C   0  0  0  0  0  0  0  0  0  0  0  0
    3.8979   -0.7503    0.0000 C   0  0  0  0  0  0  0  0  0  0  0  0
   -0.0002   -1.4999    0.0000 C   0  0  0  0  0  0  0  0  0  0  0  0
    2.5979   -1.5003    0.0000 C   0  0  0  0  0  0  0  0  0  0  0  0
    1.2990   -0.7501    0.0000 Si  0  0  0  0  0  4  0  0  0  0  0  0
  4  2  2  0
  5  2  1  0
  6  3  2  0
  7  3  1  0
  8  4  1  0
  9  5  2  0
 10  6  1  0
 11  7  2  0
 12  8  2  0
 12  9  1  0
 13 10  2  0
 13 11  1  0
 14  1  1  0
 14 12  1  0
 14 13  1  0
M  END
>  <NAME>  (4895) 
METHYLDIPHENYLSILANE

>  <SYNONYMS>  (4895) 


>  <SPECTRUM TYPE>  (4895) 
MS1

>  <INSTRUMENT TYPE>  (4895) 
EI-B

>  <INSTRUMENT>  (4895) 
JEOL JMS-D-3000

>  <ION MODE>  (4895) 
P

>  <INCHIKEY>  (4895) 
FULSRCPEOUATID-UHFFFAOYSA-N

>  <FORMULA>  (4895) 
C13H14Si

>  <EXACT MASS>  (4895) 
198.086476978

>  <MW>  (4895) 
198

>  <ID>  (4895) 
JP004652

>  <CONTRIBUTOR>  (4895) 
University of Tokyo Team, {Faculty of Engineering, University of Tokyo

>  <COMMENT>  (4895) 
SMILES=c(c2)ccc(c2)[SiH](C)c(c1)cccc1
cas=776-76-1
InChI=InChI=1S/C13H14Si/c1-14(12-8-4-2-5-9-12)13-10-6-3-7-11-13/h2-11,14H,1H3
computed SMILES=C=1C=CC(=CC1)[SiH](C=2C=CC=CC2)C
accession=JP004652
date=2016.01.19 (Created 2008.10.21, modified 2011.05.06)
author=MASS SPECTROSCOPY SOC. OF JAPAN (MSSJ)
license=CC BY-NC-SA
exact mass=198.08648
ionization energy=70 eV
ion type=[M]+*
computed spectral entropy=2.8540118980229114
computed normalized entropy=0.7372419799388242
SPLASH=splash10-00dl-5900000000-8f5f68dfcd2b1f34dc46
submitter=submitter = University of Tokyo Team (Faculty of Engineering, University of Tokyo)
MoNA Rating=3.75

>  <NUM PEAKS>  (4895) 
48

>  <MASS SPECTRAL PEAKS>  (4895) 
43 6.87
50 1.58
51 5.27
52 1.32
53 10.09
54 1.45
55 1.54
63 2.16
65 9.88
66 1.2
67 1.87
69 1.45
76 1.08
77 4.09
78 4.09
79 6.47
89 2.13
91 99.99
92 7.83
93 3.07
95 1.35
98 2.98
103 2.91
104 2.76
105 49.51
106 6.04
107 2.18
119 2.62
120 98.48
121 17.93
122 4.87
129 1.41
152 1.29
155 2.09
165 3.05
178 1.05
179 1.39
180 2.44
181 8.1
182 22.12
183 32.59
184 5.73
185 1.49
195 1.73
197 9.19
198 24.54
199 4.97
200 1.26

$$$$

     RDKit          2D

 14 13  0  0  0  0  0  0  0  0999 V2000
    1.9486    2.6250    0.0000 C   0  0  0  0  0  0  0  0  0  0  0  0
   -1.1007    0.0664    0.0000 C   0  0  0  0  0  0  0  0  0  0  0  0
    1.7919    1.7364    0.0000 C   0  0  0  0  0  0  0  0  0  0  0  0
   -4.5466    3.3750    0.0000 C   0  0  0  0  0  0  0  0  0  0  0  0
   -1.4974    5.9336    0.0000 C   0  0  0  0  0  0  0  0  0  0  0  0
   -4.3900    4.2636    0.0000 C   0  0  0  0  0  0  0  0  0  0  0  0
    0.6495    3.3750    0.0000 C   0  0  0  0  0  0  0  0  0  0  0  0
   -1.6137    1.4759    0.0000 C   0  0  0  0  0  0  0  0  0  0  0  0
    0.3147    1.4759    0.0000 C   0  0  0  0  0  0  0  0  0  0  0  0
   -3.2476    2.6250    0.0000 C   0  0  0  0  0  0  0  0  0  0  0  0
   -0.9844    4.5241    0.0000 C   0  0  0  0  0  0  0  0  0  0  0  0
   -2.9127    4.5241    0.0000 C   0  0  0  0  0  0  0  0  0  0  0  0
   -0.6495    2.6250    0.0000 Si  0  0  0  0  0  4  0  0  0  0  0  0
   -1.9486    3.3750    0.0000 Si  0  0  0  0  0  4  0  0  0  0  0  0
  7  1  1  0
  8  2  1  0
  9  3  1  0
 10  4  1  0
 11  5  1  0
 12  6  1  0
 13  7  1  0
 13  8  1  0
 13  9  1  0
 14 10  1  0
 14 11  1  0
 14 12  1  0
 14 13  1  0
M  END
>  <NAME>  (4896) 
HEXAETHYLDISILANE

>  <SYNONYMS>  (4896) 


>  <SPECTRUM TYPE>  (4896) 
MS1

>  <INSTRUMENT TYPE>  (4896) 
EI-B

>  <INSTRUMENT>  (4896) 
JEOL JMS-D-3000

>  <ION MODE>  (4896) 
P

>  <INCHIKEY>  (4896) 
XEJUFRSVJVTIFW-UHFFFAOYSA-N

>  <FORMULA>  (4896) 
C12H30Si2

>  <EXACT MASS>  (4896) 
230.18860402

>  <MW>  (4896) 
230

>  <ID>  (4896) 
JP004651

>  <CONTRIBUTOR>  (4896) 
University of Tokyo Team, {Faculty of Engineering, University of Tokyo

>  <COMMENT>  (4896) 
SMILES=CC[Si](CC)(CC)[Si](CC)(CC)CC
cas=1633-09-6
InChI=InChI=1S/C12H30Si2/c1-7-13(8-2,9-3)14(10-4,11-5)12-6/h7-12H2,1-6H3
computed SMILES=CC[Si](CC)(CC)[Si](CC)(CC)CC
accession=JP004651
date=2016.01.19 (Created 2008.10.21, modified 2011.05.06)
author=MASS SPECTROSCOPY SOC. OF JAPAN (MSSJ)
license=CC BY-NC-SA
exact mass=230.1886
ionization energy=70 eV
ion type=[M]+*
computed spectral entropy=2.886881641141354
computed normalized entropy=0.7723747511068774
SPLASH=splash10-014r-8920000000-3e308c2a634e1d9fb155
submitter=submitter = University of Tokyo Team (Faculty of Engineering, University of Tokyo)
MoNA Rating=3.75

>  <NUM PEAKS>  (4896) 
42

>  <MASS SPECTRAL PEAKS>  (4896) 
43 3.31
45 3.71
55 2.04
56 1.21
57 10.13
58 6.71
59 37.83
60 3.34
61 2.18
71 1.35
73 1.73
75 1.35
83 1.33
85 7.28
86 7.61
87 99.99
88 12.34
89 13.9
90 1.73
101 1.34
103 1.38
113 6.25
114 15.3
115 99.45
116 14.26
117 20.16
118 2.75
119 1.23
143 1.1
144 1.03
145 27.57
146 4.67
147 2.2
173 28.98
174 5.66
175 2.63
201 30.23
202 6.47
203 2.68
230 25.41
231 6.27
232 2.38

$$$$

     RDKit          2D

 12 13  0  0  0  0  0  0  0  0999 V2000
    0.0210    0.5966    0.0000 C   0  0  0  0  0  0  0  0  0  0  0  0
   -1.2789   -0.1537    0.0000 C   0  0  0  0  0  0  0  0  0  0  0  0
    0.0207    2.0966    0.0000 C   0  0  0  0  0  0  0  0  0  0  0  0
   -5.9802    1.6326    0.0000 C   0  0  0  0  0  0  0  0  0  0  0  0
   -6.2921    3.0998    0.0000 C   0  0  0  0  0  0  0  0  0  0  0  0
   -2.5790    0.5961    0.0000 C   0  0  0  0  0  0  0  0  0  0  0  0
   -1.2794    2.8463    0.0000 C   0  0  0  0  0  0  0  0  0  0  0  0
   -4.4884    1.4758    0.0000 C   0  0  0  0  0  0  0  0  0  0  0  0
   -4.9930    3.8498    0.0000 C   0  0  0  0  0  0  0  0  0  0  0  0
   -2.5793    2.0961    0.0000 C   0  0  0  0  0  0  0  0  0  0  0  0
   -2.9966    4.0597    0.0000 Cl  0  0  0  0  0  0  0  0  0  0  0  0
   -3.8783    2.8461    0.0000 Si  0  0  0  0  0  4  0  0  0  0  0  0
  2  1  2  0
  3  1  1  0
  5  4  1  0
  6  2  1  0
  7  3  2  0
  8  4  1  0
  9  5  1  0
 10  6  2  0
 10  7  1  0
 12  8  1  0
 12  9  1  0
 12 10  1  0
 12 11  1  0
M  END
>  <NAME>  (4897) 
1-CHLORO-1-PHENYL-1-SILACYCLOPENTANE

>  <SYNONYMS>  (4897) 


>  <SPECTRUM TYPE>  (4897) 
MS1

>  <INSTRUMENT TYPE>  (4897) 
EI-B

>  <INSTRUMENT>  (4897) 
JEOL JMS-D-3000

>  <ION MODE>  (4897) 
P

>  <INCHIKEY>  (4897) 
YSIVTLKOXHCOIE-UHFFFAOYSA-N

>  <FORMULA>  (4897) 
C10H13ClSi

>  <EXACT MASS>  (4897) 
196.047504626

>  <MW>  (4897) 
196

>  <ID>  (4897) 
JP004650

>  <CONTRIBUTOR>  (4897) 
University of Tokyo Team, {Faculty of Engineering, University of Tokyo

>  <COMMENT>  (4897) 
SMILES=c(c2)ccc(c2)[Si](Cl)(C1)CCC1
InChI=InChI=1S/C10H13ClSi/c11-12(8-4-5-9-12)10-6-2-1-3-7-10/h1-3,6-7H,4-5,8-9H2
computed SMILES=Cl[Si]1(C=2C=CC=CC2)CCCC1
accession=JP004650
date=2016.01.19 (Created 2008.10.21, modified 2011.05.06)
author=MASS SPECTROSCOPY SOC. OF JAPAN (MSSJ)
license=CC BY-NC-SA
exact mass=196.0475
ionization energy=70 eV
ion type=[M]+*
computed spectral entropy=3.162828840040614
computed normalized entropy=0.7724872179111545
SPLASH=splash10-00kf-2900000000-39b3d15aa621dfc707cd
submitter=submitter = University of Tokyo Team (Faculty of Engineering, University of Tokyo)
MoNA Rating=3.75

>  <NUM PEAKS>  (4897) 
60

>  <MASS SPECTRAL PEAKS>  (4897) 
50 1.77
51 4.23
53 3.97
55 1.25
63 47.62
64 2.71
65 16.72
66 1.51
67 1.09
73 1.3
75 1.25
77 3.34
78 3.86
79 3.13
82 2.45
83 1.82
84 1.56
89 1.35
90 3.65
91 13.74
92 1.62
93 1.09
103 2.19
104 1.56
105 10.71
106 1.72
107 1.56
115 1.09
117 5.33
118 17.98
119 3.76
120 6.27
121 1.35
122 1.2
131 2.71
132 9.2
133 1.77
139 1.3
140 99.99
141 28.9
142 37.89
143 10.45
144 2.35
154 6.42
155 2.03
156 2.56
157 1.09
159 1.09
161 1.15
166 1.46
167 22.63
168 86.3
169 21.01
170 31.52
171 4.49
172 1.41
196 46.88
197 8.46
198 17.35
199 2.66

$$$$

     RDKit          2D

 11 12  0  0  0  0  0  0  0  0999 V2000
   -2.6000   -0.7500    0.0000 C   0  0  0  0  0  0  0  0  0  0  0  0
   -2.6000    0.7500    0.0000 C   0  0  0  0  0  0  0  0  0  0  0  0
    2.6000   -0.7500    0.0000 C   0  0  0  0  0  0  0  0  0  0  0  0
   -1.3000   -1.5000    0.0000 C   0  0  0  0  0  0  0  0  0  0  0  0
    1.3000   -1.5000    0.0000 C   0  0  0  0  0  0  0  0  0  0  0  0
   -1.3000    1.5000    0.0000 C   0  0  0  0  0  0  0  0  0  0  0  0
    2.6000    0.7500    0.0000 C   0  0  0  0  0  0  0  0  0  0  0  0
    0.0000   -0.7500    0.0000 C   0  0  0  0  0  0  0  0  0  0  0  0
    0.0000    0.7500    0.0000 C   0  0  0  0  0  0  0  0  0  0  0  0
    1.3000    1.5000    0.0000 C   0  0  0  0  0  0  0  0  0  0  0  0
    1.3000    3.0000    0.0000 Br  0  0  0  0  0  0  0  0  0  0  0  0
  2  1  2  0
  4  1  1  0
  5  3  2  0
  6  2  1  0
  7  3  1  0
  8  4  2  0
  8  5  1  0
  9  6  2  0
  9  8  1  0
 10  7  2  0
 10  9  1  0
 11 10  1  0
M  END
>  <NAME>  (4898) 
1-BROMONAPHTHALENE

>  <SYNONYMS>  (4898) 


>  <SPECTRUM TYPE>  (4898) 
MS1

>  <INSTRUMENT TYPE>  (4898) 
EI-B

>  <INSTRUMENT>  (4898) 
JEOL JMS-D-3000

>  <ION MODE>  (4898) 
P

>  <INCHIKEY>  (4898) 
DLKQHBOKULLWDQ-UHFFFAOYSA-N

>  <FORMULA>  (4898) 
C10H7Br

>  <EXACT MASS>  (4898) 
205.973112324

>  <MW>  (4898) 
206

>  <ID>  (4898) 
JP004649

>  <CONTRIBUTOR>  (4898) 
University of Tokyo Team, {Faculty of Engineering, University of Tokyo

>  <COMMENT>  (4898) 
SMILES=c(c2)cc(c1)c(c2)c(Br)cc1
cas=580-13-2
InChI=InChI=1S/C10H7Br/c11-10-7-3-5-8-4-1-2-6-9(8)10/h1-7H
computed SMILES=BrC1=CC=CC=2C=CC=CC12
accession=JP004649
date=2016.01.19 (Created 2008.10.21, modified 2011.05.06)
author=MASS SPECTROSCOPY SOC. OF JAPAN (MSSJ)
license=CC BY-NC-SA
exact mass=205.97311
ionization energy=70 eV
ion type=[M]+*
computed spectral entropy=2.730447818676706
computed normalized entropy=0.7506207959846884
SPLASH=splash10-0a6r-5890000000-badc7d953f668103ca0c
submitter=submitter = University of Tokyo Team (Faculty of Engineering, University of Tokyo)
MoNA Rating=3.75

>  <NUM PEAKS>  (4898) 
38

>  <MASS SPECTRAL PEAKS>  (4898) 
49 1.13
50 10.17
51 9.17
52 1.5
57 1.76
61 2.72
62 5.12
63 27.17
64 2.52
74 9.96
75 12.46
76 6.65
77 13.44
78 1.15
85 1.28
86 2.56
87 4.8
89 1.17
90 2.29
91 2.31
98 3.76
99 3.55
100 2.37
101 8.97
102 1.07
103 11.79
104 11.69
115 1.17
125 1.68
126 22.84
127 99.99
128 11.43
129 1.01
205 6
206 86.28
207 9.74
208 82.85
209 9.56

$$$$

     RDKit          2D

  8  8  0  0  0  0  0  0  0  0999 V2000
    2.2733   -0.6175    0.0000 C   0  0  0  0  0  0  0  0  0  0  0  0
    2.2738    0.8833    0.0000 C   0  0  0  0  0  0  0  0  0  0  0  0
    0.9738   -1.3683    0.0000 C   0  0  0  0  0  0  0  0  0  0  0  0
    0.9748    1.6333    0.0000 C   0  0  0  0  0  0  0  0  0  0  0  0
   -0.3252   -0.6183    0.0000 C   0  0  0  0  0  0  0  0  0  0  0  0
   -1.6238    1.6325    0.0000 C   0  0  0  0  0  0  0  0  0  0  0  0
   -0.3248    0.8825    0.0000 C   0  0  0  0  0  0  0  0  0  0  0  0
   -2.9228    0.8825    0.0000 I   0  0  0  0  0  0  0  0  0  0  0  0
  2  1  2  0
  3  1  1  0
  4  2  1  0
  5  3  2  0
  7  4  2  0
  7  5  1  0
  7  6  1  0
  8  6  1  0
M  END
>  <NAME>  (4899) 
BENZYL IODIDE

>  <SYNONYMS>  (4899) 


>  <SPECTRUM TYPE>  (4899) 
MS1

>  <INSTRUMENT TYPE>  (4899) 
EI-B

>  <INSTRUMENT>  (4899) 
JEOL JMS-D-3000

>  <ION MODE>  (4899) 
P

>  <INCHIKEY>  (4899) 
XJTQJERLRPWUGL-UHFFFAOYSA-N

>  <FORMULA>  (4899) 
C7H7I

>  <EXACT MASS>  (4899) 
217.959248224

>  <MW>  (4899) 
218

>  <ID>  (4899) 
JP004648

>  <CONTRIBUTOR>  (4899) 
University of Tokyo Team, {Faculty of Engineering, University of Tokyo

>  <COMMENT>  (4899) 
SMILES=c(c1)ccc(c1)CI
cas=620-05-3
InChI=InChI=1S/C7H7I/c8-6-7-4-2-1-3-5-7/h1-5H,6H2
computed SMILES=ICC=1C=CC=CC1
accession=JP004648
date=2016.01.19 (Created 2008.10.21, modified 2011.05.06)
author=MASS SPECTROSCOPY SOC. OF JAPAN (MSSJ)
license=CC BY-NC-SA
exact mass=217.95924
ionization energy=70 eV
ion type=[M]+*
computed spectral entropy=1.1600395686338518
computed normalized entropy=0.46683426467260675
SPLASH=splash10-0006-9000000000-2b5e04d017144ec55080
submitter=submitter = University of Tokyo Team (Faculty of Engineering, University of Tokyo)
MoNA Rating=3.75

>  <NUM PEAKS>  (4899) 
12

>  <MASS SPECTRAL PEAKS>  (4899) 
50 1.24
51 1.8
62 1.18
63 3.1
64 1.2
65 8.18
89 3.46
90 2.1
91 99.99
92 8.12
127 2.94
218 3.15

$$$$

     RDKit          2D

  9  8  0  0  0  0  0  0  0  0999 V2000
    2.5981    4.5000    0.0000 C   0  0  0  0  0  0  0  0  0  0  0  0
   -7.7942    4.5000    0.0000 C   0  0  0  0  0  0  0  0  0  0  0  0
    0.0000    4.5000    0.0000 C   0  0  0  0  0  0  0  0  0  0  0  0
   -5.1962    4.5000    0.0000 C   0  0  0  0  0  0  0  0  0  0  0  0
   -1.2990    5.2500    0.0000 C   0  0  0  0  0  0  0  0  0  0  0  0
   -3.8971    5.2500    0.0000 C   0  0  0  0  0  0  0  0  0  0  0  0
    1.2990    5.2500    0.0000 O   0  0  0  0  0  0  0  0  0  0  0  0
   -6.4952    5.2500    0.0000 O   0  0  0  0  0  0  0  0  0  0  0  0
   -2.5981    4.5000    0.0000 O   0  0  0  0  0  0  0  0  0  0  0  0
  5  3  1  0
  6  4  1  0
  7  1  1  0
  7  3  1  0
  8  2  1  0
  8  4  1  0
  9  5  1  0
  9  6  1  0
M  END
>  <NAME>  (4900) 
DIETHYLENE GLYCOL DIMETHYL ETHER

>  <SYNONYMS>  (4900) 
BIS(2-METHOXYETHYL) ETHER

>  <SPECTRUM TYPE>  (4900) 
MS1

>  <INSTRUMENT TYPE>  (4900) 
EI-B

>  <INSTRUMENT>  (4900) 
JEOL JMS-D-3000

>  <ION MODE>  (4900) 
P

>  <INCHIKEY>  (4900) 
SBZXBUIDTXKZTM-UHFFFAOYSA-N

>  <FORMULA>  (4900) 
C6H14O3

>  <EXACT MASS>  (4900) 
134.09429430799997

>  <MW>  (4900) 
134

>  <ID>  (4900) 
JP004647

>  <CONTRIBUTOR>  (4900) 
University of Tokyo Team, {Faculty of Engineering, University of Tokyo

>  <COMMENT>  (4900) 
SMILES=COCCOCCOC
InChI=InChI=1S/C6H14O3/c1-7-3-5-9-6-4-8-2/h3-6H2,1-2H3
computed SMILES=O(C)CCOCCOC
exact mass=134.09429
accession=JP004647
date=2016.01.19 (Created 2008.10.21, modified 2011.05.06)
author=MASS SPECTROSCOPY SOC. OF JAPAN (MSSJ)
license=CC BY-NC-SA
ionization energy=70 eV
ion type=[M]+*
computed spectral entropy=1.3930091897687988
computed normalized entropy=0.6698958166640664
SPLASH=splash10-0a4i-9000000000-3298471c1c313c776e38
submitter=submitter = University of Tokyo Team (Faculty of Engineering, University of Tokyo)
MoNA Rating=3.75

>  <NUM PEAKS>  (4900) 
8

>  <MASS SPECTRAL PEAKS>  (4900) 
43 6.28
45 21.79
58 42.98
59 99.99
60 3.11
87 1.81
89 18.33
102 1.18

$$$$

     RDKit          2D

 23 23  0  0  0  0  0  0  0  0999 V2000
   -8.1314    2.4264    0.0000 C   0  0  0  0  0  0  0  0  0  0  0  0
   -4.2305    0.1829    0.0000 C   0  0  0  0  0  0  0  0  0  0  0  0
    7.4571    5.4452    0.0000 C   0  0  0  0  0  0  0  0  0  0  0  0
    6.1585    3.1950    0.0000 C   0  0  0  0  0  0  0  0  0  0  0  0
   -6.8336    3.1785    0.0000 C   0  0  0  0  0  0  0  0  0  0  0  0
   -2.9328    0.9351    0.0000 C   0  0  0  0  0  0  0  0  0  0  0  0
   -5.5333    2.4307    0.0000 C   0  0  0  0  0  0  0  0  0  0  0  0
    3.5644    0.2016    0.0000 C   0  0  0  0  0  0  0  0  0  0  0  0
    4.8589    0.9438    0.0000 C   0  0  0  0  0  0  0  0  0  0  0  0
   -4.2356    3.1829    0.0000 C   0  0  0  0  0  0  0  0  0  0  0  0
    2.2654    0.9516    0.0000 C   0  0  0  0  0  0  0  0  0  0  0  0
    4.8594    2.4446    0.0000 C   0  0  0  0  0  0  0  0  0  0  0  0
   -1.6375    3.1872    0.0000 C   0  0  0  0  0  0  0  0  0  0  0  0
    6.1582    4.6950    0.0000 C   0  0  0  0  0  0  0  0  0  0  0  0
   -2.9353    2.4351    0.0000 C   0  0  0  0  0  0  0  0  0  0  0  0
    2.2609    2.4438    0.0000 C   0  0  0  0  0  0  0  0  0  0  0  0
    3.5604    3.1946    0.0000 C   0  0  0  0  0  0  0  0  0  0  0  0
    0.9606    3.1916    0.0000 C   0  0  0  0  0  0  0  0  0  0  0  0
    3.5601    4.6946    0.0000 C   0  0  0  0  0  0  0  0  0  0  0  0
    0.9581    4.6916    0.0000 O   0  0  0  0  0  0  0  0  0  0  0  0
    2.2610    5.4444    0.0000 O   0  0  0  0  0  0  0  0  0  0  0  0
   -0.3372    2.4394    0.0000 O   0  0  0  0  0  0  0  0  0  0  0  0
    4.8591    5.4448    0.0000 O   0  0  0  0  0  0  0  0  0  0  0  0
  5  1  1  0
  6  2  1  0
  7  5  1  0
  9  8  2  0
 10  7  1  0
 11  8  1  0
 12  9  1  0
 14  3  1  0
 14  4  1  0
 15  6  1  0
 15 10  1  0
 15 13  1  0
 16 11  2  0
 17 12  2  0
 17 16  1  0
 18 16  1  0
 19 17  1  0
 20 18  2  0
 21 19  2  0
 22 13  1  0
 22 18  1  0
 23 14  1  0
 23 19  1  0
M  END
>  <NAME>  (4901) 
1,2-BENZENEDICARBOXYLIC ACID ISOPROPYL 2-ETHYLHEXYL ESTER

>  <SYNONYMS>  (4901) 


>  <SPECTRUM TYPE>  (4901) 
MS1

>  <INSTRUMENT TYPE>  (4901) 
EI-B

>  <INSTRUMENT>  (4901) 
JEOL JMS-DX-303

>  <ION MODE>  (4901) 
P

>  <INCHIKEY>  (4901) 
NDQBOQJEHVQCJE-UHFFFAOYSA-N

>  <FORMULA>  (4901) 
C19H28O4

>  <EXACT MASS>  (4901) 
320.198759376

>  <MW>  (4901) 
320

>  <ID>  (4901) 
JP004646

>  <CONTRIBUTOR>  (4901) 
University of Tokyo Team, {Faculty of Engineering, University of Tokyo

>  <COMMENT>  (4901) 
SMILES=CCCCC(CC)COC(=O)c(c1)c(ccc1)C(=O)OC(C)C
InChI=InChI=1S/C19H28O4/c1-5-7-10-15(6-2)13-22-18(20)16-11-8-9-12-17(16)19(21)23-14(3)4/h8-9,11-12,14-15H,5-7,10,13H2,1-4H3
computed SMILES=O=C(OCC(CC)CCCC)C=1C=CC=CC1C(=O)OC(C)C
accession=JP004646
date=2016.01.19 (Created 2008.10.21, modified 2011.05.06)
author=MASS SPECTROSCOPY SOC. OF JAPAN (MSSJ)
license=CC BY-NC-SA
exact mass=320.19876
ionization energy=70 eV
ion type=[M]+*
computed spectral entropy=2.6421823892118184
computed normalized entropy=0.7069063504936843
SPLASH=splash10-0002-4920000000-67379cdc663420ef0ba3
submitter=submitter = University of Tokyo Team (Faculty of Engineering, University of Tokyo)
MoNA Rating=3.75

>  <NUM PEAKS>  (4901) 
42

>  <MASS SPECTRAL PEAKS>  (4901) 
27 1.74
29 0.91
32 4.99
39 1.56
41 7.81
42 1.7
43 6.56
44 1.12
50 0.65
55 5.2
56 3.19
57 6.37
59 0.64
65 2.25
69 2.44
70 11.06
71 4.07
76 2.41
77 1.09
82 0.88
83 3.87
84 2.36
93 2.35
104 3.08
105 1.66
112 5.11
113 2.84
121 2.34
122 1.74
132 0.83
149 99.99
150 10.59
151 1.26
167 15.5
168 1.18
191 5.68
192 1.08
209 30.27
210 3.9
211 0.64
261 0.5
320 0.6

$$$$

     RDKit          2D

 19 22  0  0  1  0  0  0  0  0999 V2000
    2.3487    3.1916    0.0000 C   0  0  0  0  0  0  0  0  0  0  0  0
   -1.7100    0.9500    0.0000 C   0  0  0  0  0  0  0  0  0  0  0  0
   -4.3000   -2.0500    0.0000 C   0  0  0  0  0  0  0  0  0  0  0  0
   -4.3000   -0.5500    0.0000 C   0  0  0  0  0  0  0  0  0  0  0  0
    4.5000    0.9500    0.0000 C   0  0  0  0  0  0  0  0  0  0  0  0
   -3.0100   -2.8000    0.0000 C   0  0  0  0  0  0  0  0  0  0  0  0
    3.6200   -0.2700    0.0000 C   0  0  0  0  0  0  0  0  0  0  0  0
   -0.4100   -2.8000    0.0000 C   0  0  0  0  0  0  0  0  0  0  0  0
    0.8900   -2.0500    0.0000 C   0  0  0  0  0  0  0  0  0  0  0  0
   -0.4100    1.7000    0.0000 C   0  0  0  0  0  0  0  0  0  0  0  0
    3.6200    2.1600    0.0000 C   0  0  0  0  0  0  0  0  0  0  0  0
   -3.0100    0.2000    0.0000 C   0  0  0  0  0  0  0  0  0  0  0  0
    0.8900    2.4500    0.0000 C   0  0  0  0  0  0  0  0  0  0  0  0
   -1.7100   -2.0500    0.0000 C   0  0  0  0  0  0  0  0  0  0  0  0
    0.8900   -0.5500    0.0000 C   0  0  0  0  0  0  0  0  0  0  0  0
    2.1900    0.2000    0.0000 C   0  0  0  0  0  0  0  0  0  0  0  0
   -0.4100    0.2000    0.0000 C   0  0  0  0  0  0  0  0  0  0  0  0
    2.1900    1.7000    0.0000 C   0  0  0  0  0  0  0  0  0  0  0  0
   -1.7100   -0.5500    0.0000 C   0  0  0  0  0  0  0  0  0  0  0  0
  4  3  1  0
  6  3  1  0
  7  5  1  0
  9  8  1  0
 11  5  1  0
 12  4  1  0
 13 10  1  0
 14  6  1  6
 14  8  1  0
 15  9  1  6
 16  7  1  1
 16 15  1  0
 17 10  1  1
 17 15  1  0
 18  1  1  1
 18 11  1  0
 18 13  1  0
 18 16  1  0
 19  2  1  1
 19 12  1  0
 19 14  1  0
 19 17  1  0
M  END
>  <NAME>  (4902) 
5-BETA-ANDROSTANE

>  <SYNONYMS>  (4902) 


>  <SPECTRUM TYPE>  (4902) 
MS1

>  <INSTRUMENT TYPE>  (4902) 
EI-B

>  <INSTRUMENT>  (4902) 
HITACHI RMU-6M

>  <ION MODE>  (4902) 
P

>  <INCHIKEY>  (4902) 
QZLYKIGBANMMBK-DYKIIFRCSA-N

>  <FORMULA>  (4902) 
C19H32

>  <EXACT MASS>  (4902) 
260.250401024

>  <MW>  (4902) 
260

>  <ID>  (4902) 
JP004645

>  <CONTRIBUTOR>  (4902) 
University of Tokyo Team, {Faculty of Engineering, University of Tokyo

>  <COMMENT>  (4902) 
SMILES=C(C4)CC([H])(C3)C(C)(C4)C([H])(C1)C([H])(C3)C([H])(C2)C(C)(CC2)C1
cas=438-23-3
InChI=InChI=1S/C19H32/c1-18-11-5-7-16(18)15-9-8-14-6-3-4-12-19(14,2)17(15)10-13-18/h14-17H,3-13H2,1-2H3/t14-,15-,16-,17-,18-,19-/m0/s1
computed SMILES=CC12CCCC2C3CCC4CCCCC4(C)C3CC1
accession=JP004645
date=2016.01.19 (Created 2008.10.21, modified 2011.05.06)
author=YAMAMOTO M, DEP. CHEMISTRY, FAC. SCIENCE, NARA WOMEN'S UNIV.
license=CC BY-NC-SA
exact mass=260.2504
ionization energy=70 eV
ion type=[M]+*
computed spectral entropy=3.841845946189115
computed normalized entropy=0.8742497207196575
SPLASH=splash10-0002-9770000000-031d9eab9656f5d5d66e
submitter=submitter = University of Tokyo Team (Faculty of Engineering, University of Tokyo)
MoNA Rating=3.75

>  <NUM PEAKS>  (4902) 
81

>  <MASS SPECTRAL PEAKS>  (4902) 
27 2.6
29 8.95
39 6.1
40 1.15
41 28.19
42 2.1
43 5.9
53 8.5
54 3.75
55 30.69
56 2.5
57 2
65 3.7
66 2
67 37.37
68 7
69 10.1
77 8.75
78 2
79 21.24
80 5.65
81 43.28
82 6.7
83 7.75
91 10.75
92 2.25
93 20.49
94 14.69
95 51.61
96 17.59
97 4.5
105 6.45
106 2.6
107 23.19
108 15.59
109 24.24
110 5.15
111 2.75
117 1.5
119 3.75
120 2.5
121 21.19
122 8.15
123 8.6
124 1.5
133 5.7
134 3.5
135 40.05
136 9.75
137 5.75
147 6.5
148 12.14
149 25.79
150 12.74
151 6.2
161 8.05
162 4.5
163 12.54
164 7.1
165 3.25
175 13.64
176 5.5
177 3.05
178 2.2
189 10.1
190 4.45
203 40.32
204 23.64
205 3.85
217 10.95
218 8.45
219 1.95
231 3.5
232 3.5
244 1.3
245 99.99
246 20.64
247 1.95
260 81.72
261 17.44
262 1.55

$$$$

     RDKit          2D

 19 22  0  0  1  0  0  0  0  0999 V2000
    2.3487    3.1916    0.0000 C   0  0  0  0  0  0  0  0  0  0  0  0
   -1.7100    0.9500    0.0000 C   0  0  0  0  0  0  0  0  0  0  0  0
   -4.3000   -2.0500    0.0000 C   0  0  0  0  0  0  0  0  0  0  0  0
   -4.3000   -0.5500    0.0000 C   0  0  0  0  0  0  0  0  0  0  0  0
    4.5000    0.9500    0.0000 C   0  0  0  0  0  0  0  0  0  0  0  0
   -3.0100   -2.8000    0.0000 C   0  0  0  0  0  0  0  0  0  0  0  0
    3.6200   -0.2700    0.0000 C   0  0  0  0  0  0  0  0  0  0  0  0
   -0.4100   -2.8000    0.0000 C   0  0  0  0  0  0  0  0  0  0  0  0
    0.8900   -2.0500    0.0000 C   0  0  0  0  0  0  0  0  0  0  0  0
   -0.4100    1.7000    0.0000 C   0  0  0  0  0  0  0  0  0  0  0  0
    3.6200    2.1600    0.0000 C   0  0  0  0  0  0  0  0  0  0  0  0
   -3.0100    0.2000    0.0000 C   0  0  0  0  0  0  0  0  0  0  0  0
    0.8900    2.4500    0.0000 C   0  0  0  0  0  0  0  0  0  0  0  0
   -1.7100   -2.0500    0.0000 C   0  0  0  0  0  0  0  0  0  0  0  0
    0.8900   -0.5500    0.0000 C   0  0  0  0  0  0  0  0  0  0  0  0
    2.1900    0.2000    0.0000 C   0  0  0  0  0  0  0  0  0  0  0  0
   -0.4100    0.2000    0.0000 C   0  0  0  0  0  0  0  0  0  0  0  0
    2.1900    1.7000    0.0000 C   0  0  0  0  0  0  0  0  0  0  0  0
   -1.7100   -0.5500    0.0000 C   0  0  0  0  0  0  0  0  0  0  0  0
  4  3  1  0
  6  3  1  0
  7  5  1  0
  9  8  1  0
 11  5  1  0
 12  4  1  0
 13 10  1  0
 14  6  1  1
 14  8  1  0
 15  9  1  6
 16  7  1  1
 16 15  1  0
 17 10  1  1
 17 15  1  0
 18  1  1  1
 18 11  1  0
 18 13  1  0
 18 16  1  0
 19  2  1  1
 19 12  1  0
 19 14  1  0
 19 17  1  0
M  END
>  <NAME>  (4903) 
5-ALPHA-ANDROSTANE

>  <SYNONYMS>  (4903) 


>  <SPECTRUM TYPE>  (4903) 
MS1

>  <INSTRUMENT TYPE>  (4903) 
EI-B

>  <INSTRUMENT>  (4903) 
HITACHI RMU-6M

>  <ION MODE>  (4903) 
P

>  <INCHIKEY>  (4903) 
QZLYKIGBANMMBK-UGCZWRCOSA-N

>  <FORMULA>  (4903) 
C19H32

>  <EXACT MASS>  (4903) 
260.250401024

>  <MW>  (4903) 
260

>  <ID>  (4903) 
JP004644

>  <CONTRIBUTOR>  (4903) 
University of Tokyo Team, {Faculty of Engineering, University of Tokyo

>  <COMMENT>  (4903) 
SMILES=C(C4)CC([H])(C3)C(C)(C4)C([H])(C1)C([H])(C3)C([H])(C2)C(C)(CC2)C1
cas=438-22-2
InChI=InChI=1S/C19H32/c1-18-11-5-7-16(18)15-9-8-14-6-3-4-12-19(14,2)17(15)10-13-18/h14-17H,3-13H2,1-2H3/t14-,15+,16+,17+,18+,19+/m1/s1
computed SMILES=CC12CCCC2C3CCC4CCCCC4(C)C3CC1
accession=JP004644
date=2016.01.19 (Created 2008.10.21, modified 2011.05.06)
author=YAMAMOTO M, DEP. CHEMISTRY, FAC. SCIENCE, NARA WOMEN'S UNIV.
license=CC BY-NC-SA
exact mass=260.2504
ionization energy=70 eV
ion type=[M]+*
computed spectral entropy=3.851344136280048
computed normalized entropy=0.8692176434118107
SPLASH=splash10-01ot-8790000000-e6fbfbcebbadbdf83a0d
submitter=submitter = University of Tokyo Team (Faculty of Engineering, University of Tokyo)
MoNA Rating=3.75

>  <NUM PEAKS>  (4903) 
84

>  <MASS SPECTRAL PEAKS>  (4903) 
27 2.24
28 1.12
29 6.35
39 4.78
40 1.19
41 24.26
42 2.09
43 5.37
53 7.46
54 3.28
55 28.37
56 2.24
57 2.24
65 3.66
66 2.24
67 35.46
68 8.21
69 10.08
77 7.09
78 2.02
79 20.98
80 5.82
81 41.95
82 8.36
83 7.99
88 1.19
91 11.2
92 2.24
93 19.71
94 11.65
95 48.89
96 11.79
97 3.81
105 5.97
106 2.46
107 23.14
108 13.81
109 23.89
110 4.85
111 1.87
117 1.12
119 3.36
120 2.09
121 19.48
122 7.09
123 7.84
124 1.12
133 6.12
134 3.06
135 30.16
136 7.46
137 4.18
147 6.79
148 16.72
149 28.14
150 15.3
151 5.52
161 9.26
162 5.9
163 11.57
164 5
165 2.24
175 7.32
176 4.48
177 4.11
178 1.87
189 13.44
190 9.33
191 2.09
203 46.28
204 29.49
205 5.23
217 24.19
218 16.87
219 2.84
231 2.84
232 7.46
233 1.49
245 86.59
246 17.32
247 1.57
260 99.99
261 20.83
262 2.24

$$$$

     RDKit          2D

 26 27  0  0  0  0  0  0  0  0999 V2000
   15.2502  -13.3626    0.0000 C   0  0  0  0  0  0  0  0  0  0  0  0
   -2.3090    3.7500    0.0000 C   0  0  0  0  0  0  0  0  0  0  0  0
   13.7826  -13.0525    0.0000 C   0  0  0  0  0  0  0  0  0  0  0  0
   13.3173  -11.6265    0.0000 C   0  0  0  0  0  0  0  0  0  0  0  0
   11.8497  -11.3164    0.0000 C   0  0  0  0  0  0  0  0  0  0  0  0
   11.3844   -9.8904    0.0000 C   0  0  0  0  0  0  0  0  0  0  0  0
    9.9168   -9.5803    0.0000 C   0  0  0  0  0  0  0  0  0  0  0  0
    9.4515   -8.1543    0.0000 C   0  0  0  0  0  0  0  0  0  0  0  0
    7.9839   -7.8443    0.0000 C   0  0  0  0  0  0  0  0  0  0  0  0
    7.5186   -6.4182    0.0000 C   0  0  0  0  0  0  0  0  0  0  0  0
    6.0510   -6.1082    0.0000 C   0  0  0  0  0  0  0  0  0  0  0  0
    5.5858   -4.6822    0.0000 C   0  0  0  0  0  0  0  0  0  0  0  0
    4.1182   -4.3721    0.0000 C   0  0  0  0  0  0  0  0  0  0  0  0
    3.6529   -2.9461    0.0000 C   0  0  0  0  0  0  0  0  0  0  0  0
   -2.3100   -0.7500    0.0000 C   0  0  0  0  0  0  0  0  0  0  0  0
   -1.0100   -1.5000    0.0000 C   0  0  0  0  0  0  0  0  0  0  0  0
    2.1853   -2.6360    0.0000 C   0  0  0  0  0  0  0  0  0  0  0  0
   -2.3100    0.7500    0.0000 C   0  0  0  0  0  0  0  0  0  0  0  0
    0.2900   -0.7500    0.0000 C   0  0  0  0  0  0  0  0  0  0  0  0
    1.7200   -1.2100    0.0000 C   0  0  0  0  0  0  0  0  0  0  0  0
   -1.0100    1.5000    0.0000 C   0  0  0  0  0  0  0  0  0  0  0  0
    0.2900    0.7500    0.0000 C   0  0  0  0  0  0  0  0  0  0  0  0
    1.7200    1.2100    0.0000 C   0  0  0  0  0  0  0  0  0  0  0  0
    2.1853    2.6360    0.0000 O   0  0  0  0  0  0  0  0  0  0  0  0
   -1.0100    3.0000    0.0000 O   0  0  0  0  0  0  0  0  0  0  0  0
    2.6000    0.0000    0.0000 O   0  0  0  0  0  0  0  0  0  0  0  0
  3  1  1  0
  4  3  1  0
  5  4  1  0
  6  5  1  0
  7  6  1  0
  8  7  1  0
  9  8  1  0
 10  9  1  0
 11 10  1  0
 12 11  1  0
 13 12  1  0
 14 13  1  0
 16 15  2  0
 17 14  1  0
 18 15  1  0
 19 16  1  0
 20 17  1  0
 20 19  1  0
 21 18  2  0
 22 19  2  0
 22 21  1  0
 23 22  1  0
 24 23  2  0
 25  2  1  0
 25 21  1  0
 26 20  1  0
 26 23  1  0
M  END
>  <NAME>  (4904) 
7-METHOXY-3-TETRADECANYL-2-OXAINDAN-1-ONE

>  <SYNONYMS>  (4904) 
7-METHOXY-3-TETRADECANYLPHTHALIDE

>  <SPECTRUM TYPE>  (4904) 
MS1

>  <INSTRUMENT TYPE>  (4904) 
EI-B

>  <INSTRUMENT>  (4904) 
SHIMADZU LKB-9000B

>  <ION MODE>  (4904) 
P

>  <INCHIKEY>  (4904) 
PTWYVJKLACDNEO-UHFFFAOYSA-N

>  <FORMULA>  (4904) 
C23H36O3

>  <EXACT MASS>  (4904) 
360.26644501199996

>  <MW>  (4904) 
360

>  <ID>  (4904) 
JP004592

>  <CONTRIBUTOR>  (4904) 
University of Tokyo Team, {Faculty of Engineering, University of Tokyo

>  <COMMENT>  (4904) 
SMILES=CCCCCCCCCCCCCCC(O1)c(c2)c(c(OC)cc2)C(=O)1
InChI=InChI=1S/C23H36O3/c1-3-4-5-6-7-8-9-10-11-12-13-14-17-20-19-16-15-18-21(25-2)22(19)23(24)26-20/h15-16,18,20H,3-14,17H2,1-2H3
computed SMILES=O=C1OC(C=2C=CC=C(OC)C12)CCCCCCCCCCCCCC
accession=JP004592
date=2016.01.19 (Created 2008.10.21, modified 2011.05.06)
license=CC BY-NC-SA
author=HAYASHI A, DEPT. OF CHEMISTRY, FAC. OF SCI. AND TECHNOLOGY, KINKI UNIV.
exact mass=360.26645
ionization energy=70 eV
ion type=[M]+*
computed spectral entropy=3.996722963966594
computed normalized entropy=0.7987141986751279
SPLASH=splash10-03di-8901000000-e595ba911e2792099a38
submitter=submitter = University of Tokyo Team (Faculty of Engineering, University of Tokyo)
MoNA Rating=3.75

>  <NUM PEAKS>  (4904) 
149

>  <MASS SPECTRAL PEAKS>  (4904) 
38 1.5
39 7.9
41 35.9
42 1.55
43 34.1
50 1.2
51 0.9
53 0.21
54 4.5
55 30
56 50.6
57 1.69
58 2.3
59 1.7
60 9.5
61 1.17
63 1.1
64 1
65 2.5
66 0.19
67 8.2
68 8.8
69 21.4
70 5.15
71 9.7
72 3
73 1.8
74 0.09
75 1.6
76 2.9
77 8
78 0.18
79 2.7
81 6.7
82 5.3
83 0.91
84 6.2
85 7.9
86 1.6
87 0.08
91 3.6
92 3.2
93 2.5
94 0.16
95 4.5
96 3.3
97 9.6
98 0.98
99 18.4
100 3.9
101 0.9
103 0.13
104 2
105 4.9
106 1.1
107 0.29
108 1.1
109 3.6
110 8.3
111 0.28
112 1.9
113 12.1
114 3.3
115 0.2
116 0.8
117 1.4
118 1.7
119 0.33
120 3
121 3.7
122 1.7
123 0.21
124 1.1
125 2.6
126 1.1
127 0.14
128 1.1
129 1.7
131 1.8
132 0.32
133 3.7
134 2.9
135 22
136 0.28
137 2.5
138 3.2
139 1.5
140 0.3
141 5.4
142 3
143 10.7
144 0.16
145 3.9
146 5.4
147 5.5
148 0.5
149 14.8
150 2.6
151 1.2
155 0.09
156 1.1
157 0.8
158 0.8
159 0.45
160 6.6
161 6.3
162 2.5
163 99.99
164 23.5
165 4.4
166 11
167 0.25
168 0.9
169 1.9
171 0.8
173 0.37
174 4.6
175 4.7
176 2.9
177 2.22
178 7.7
179 1.8
184 3
185 0.09
186 0.7
187 2.4
188 1.4
189 0.31
190 1.2
191 1.6
192 0.9
201 0.17
202 0.8
203 1.3
205 1
206 0.2
215 1.1
217 0.8
219 0.8
223 0.08
224 10
225 1.7
231 1.6
331 0.18
358 0.9
359 1.9
360 46.6
361 1.1
362 1.6

$$$$

     RDKit          2D

 28 29  0  0  0  0  0  0  0  0999 V2000
   -9.3781    5.4560    0.0000 C   0  0  0  0  0  0  0  0  0  0  0  0
   -8.0902    3.1996    0.0000 C   0  0  0  0  0  0  0  0  0  0  0  0
    2.3094    4.6485    0.0000 C   0  0  0  0  0  0  0  0  0  0  0  0
    1.0141    5.4049    0.0000 C   0  0  0  0  0  0  0  0  0  0  0  0
    3.6121    5.3921    0.0000 C   0  0  0  0  0  0  0  0  0  0  0  0
   -0.2887    4.6613    0.0000 C   0  0  0  0  0  0  0  0  0  0  0  0
   15.3003    4.6463    0.0000 C   0  0  0  0  0  0  0  0  0  0  0  0
    4.9074    4.6357    0.0000 C   0  0  0  0  0  0  0  0  0  0  0  0
   15.3124    3.1464    0.0000 C   0  0  0  0  0  0  0  0  0  0  0  0
   13.9943    5.3858    0.0000 C   0  0  0  0  0  0  0  0  0  0  0  0
   -1.5840    5.4177    0.0000 C   0  0  0  0  0  0  0  0  0  0  0  0
    6.2102    5.3793    0.0000 C   0  0  0  0  0  0  0  0  0  0  0  0
   14.0185    2.3859    0.0000 C   0  0  0  0  0  0  0  0  0  0  0  0
   12.7004    4.6253    0.0000 C   0  0  0  0  0  0  0  0  0  0  0  0
   -2.8867    4.6741    0.0000 C   0  0  0  0  0  0  0  0  0  0  0  0
    8.8045    5.3729    0.0000 C   0  0  0  0  0  0  0  0  0  0  0  0
    7.4910    3.1481    0.0000 C   0  0  0  0  0  0  0  0  0  0  0  0
   10.0890    4.6481    0.0000 C   0  0  0  0  0  0  0  0  0  0  0  0
    8.8155    2.3539    0.0000 C   0  0  0  0  0  0  0  0  0  0  0  0
   -6.7801    5.4432    0.0000 C   0  0  0  0  0  0  0  0  0  0  0  0
   -8.0828    4.6996    0.0000 C   0  0  0  0  0  0  0  0  0  0  0  0
    7.5055    4.6229    0.0000 C   0  0  0  0  0  0  0  0  0  0  0  0
   12.7125    3.1254    0.0000 C   0  0  0  0  0  0  0  0  0  0  0  0
   10.1145    3.1039    0.0000 C   0  0  0  0  0  0  0  0  0  0  0  0
   -4.1820    5.4304    0.0000 C   0  0  0  0  0  0  0  0  0  0  0  0
   -5.4847    4.6868    0.0000 N   0  0  0  0  0  0  0  0  0  0  0  0
   -4.1746    6.9304    0.0000 O   0  0  0  0  0  0  0  0  0  0  0  0
   11.4197    2.3647    0.0000 O   0  0  0  0  0  0  0  0  0  0  0  0
  4  3  1  0
  5  3  1  0
  4  6  2  0
  8  5  1  0
  9  7  2  0
 10  7  1  0
 11  6  1  0
 12  8  1  0
 13  9  1  0
 14 10  2  0
 11 15  2  0
 18 16  2  0
 19 17  1  0
 21  1  1  0
 21  2  1  0
 21 20  1  0
 22 12  1  0
 22 16  1  0
 22 17  2  0
 23 13  2  0
 23 14  1  0
 24 18  1  0
 24 19  2  0
 25 15  1  0
 26 20  1  0
 26 25  2  3
 27 25  1  0
 28 23  1  0
 28 24  1  0
M  END
>  <NAME>  (4905) 
N-ISOBUTYL 9-(PARA-PHENOXYPHENYL)-2,4-NONADIENAMIDE

>  <SYNONYMS>  (4905) 


>  <SPECTRUM TYPE>  (4905) 
MS1

>  <INSTRUMENT TYPE>  (4905) 
EI-B

>  <INSTRUMENT>  (4905) 
JEOL JMS-HX-100

>  <ION MODE>  (4905) 
P

>  <INCHIKEY>  (4905) 
OTARDPWABOQJQA-OKOYHYLBSA-N

>  <FORMULA>  (4905) 
C25H31NO2

>  <EXACT MASS>  (4905) 
377.235479232

>  <MW>  (4905) 
377

>  <ID>  (4905) 
JP004591

>  <CONTRIBUTOR>  (4905) 
University of Tokyo Team, {Faculty of Engineering, University of Tokyo

>  <COMMENT>  (4905) 
SMILES=CC(C)CNC(=O)C=CC=CCCCCc(c2)ccc(c2)Oc(c1)cccc1
InChI=InChI=1S/C25H31NO2/c1-21(2)20-26-25(27)15-11-6-4-3-5-8-12-22-16-18-24(19-17-22)28-23-13-9-7-10-14-23/h4,6-7,9-11,13-19,21H,3,5,8,12,20H2,1-2H3,(H,26,27)/b6-4+,15-11+
computed SMILES=OC(=NCC(C)C)C=CC=CCCCCC1=CC=C(OC=2C=CC=CC2)C=C1
accession=JP004591
date=2016.01.19 (Created 2008.10.21, modified 2011.05.06)
author=HAYASHI A, DEPT. OF CHEMISTRY, FAC. OF SCI. AND TECHNOLOGY, KINKI UNIV.
license=CC BY-NC-SA
exact mass=377.23548
ionization energy=70 eV
ion type=[M]+*
computed spectral entropy=4.209657740779865
computed normalized entropy=0.8855743914685453
SPLASH=splash10-0fc3-5922000000-af125467c3769ec4aa83
submitter=submitter = University of Tokyo Team (Faculty of Engineering, University of Tokyo)
MoNA Rating=3.75

>  <NUM PEAKS>  (4905) 
116

>  <MASS SPECTRAL PEAKS>  (4905) 
39 8.06
40 2.47
41 19.71
42 2.17
43 6.5
44 4.03
51 10.51
53 11.24
55 28.72
56 5.49
57 27.83
58 2.27
60 10.51
65 7.99
66 12.7
67 9.86
68 2.3
69 4.06
71 2.5
72 3.55
74 4.17
77 41.65
78 6.96
79 9.37
80 2.49
81 15.71
82 4.11
83 3.26
84 2.19
85 4.24
86 2.06
89 3.57
90 4.13
91 11.95
93 3.44
94 7
95 5.55
96 8.38
98 7.89
100 4.28
103 3
104 2.93
107 18.65
108 2.95
109 2.25
110 3.23
115 32.81
116 16.44
117 8.04
118 2.11
121 2.44
126 4.89
127 2.7
128 10.57
129 7.95
130 3.75
131 2.7
138 2.79
141 31.75
142 5.26
143 2.66
152 32.27
153 27.6
154 32.95
155 10.59
156 3.19
161 3.9
165 2.07
166 4.48
167 2.89
168 5.51
169 6.6
170 7.75
180 8.77
181 9.82
182 2.91
183 99.99
184 19.69
185 3.23
194 47.56
195 7.32
196 15.21
197 6.7
207 2.85
209 15.49
210 6.49
211 2.07
212 3.64
221 2.44
222 2.79
223 4.14
233 2.08
235 5.08
236 4.91
237 4.28
238 2.2
240 3.08
249 2.08
250 4.85
254 2.2
262 23.71
263 7.35
276 14.39
277 13.79
278 8.02
296 3.41
304 3.32
305 11.1
306 2.87
309 9.73
310 2.49
322 6.05
376 2.41
377 71.81
378 21.86
379 3.56

$$$$

     RDKit          2D

 26 27  0  0  0  0  0  0  0  0999 V2000
   -9.3873    4.6964    0.0000 C   0  0  0  0  0  0  0  0  0  0  0  0
   -8.0846    5.4400    0.0000 C   0  0  0  0  0  0  0  0  0  0  0  0
    1.0048    4.6453    0.0000 C   0  0  0  0  0  0  0  0  0  0  0  0
   -0.2905    5.4017    0.0000 C   0  0  0  0  0  0  0  0  0  0  0  0
    2.3075    5.3889    0.0000 C   0  0  0  0  0  0  0  0  0  0  0  0
   -1.5932    4.6581    0.0000 C   0  0  0  0  0  0  0  0  0  0  0  0
   13.9957    4.6431    0.0000 C   0  0  0  0  0  0  0  0  0  0  0  0
    3.6029    4.6325    0.0000 C   0  0  0  0  0  0  0  0  0  0  0  0
   14.0079    3.1432    0.0000 C   0  0  0  0  0  0  0  0  0  0  0  0
   12.6897    5.3826    0.0000 C   0  0  0  0  0  0  0  0  0  0  0  0
   -2.8885    5.4145    0.0000 C   0  0  0  0  0  0  0  0  0  0  0  0
    4.9056    5.3761    0.0000 C   0  0  0  0  0  0  0  0  0  0  0  0
   12.7140    2.3827    0.0000 C   0  0  0  0  0  0  0  0  0  0  0  0
   11.3958    4.6221    0.0000 C   0  0  0  0  0  0  0  0  0  0  0  0
   -4.1913    4.6709    0.0000 C   0  0  0  0  0  0  0  0  0  0  0  0
    7.5000    5.3697    0.0000 C   0  0  0  0  0  0  0  0  0  0  0  0
    6.1864    3.1449    0.0000 C   0  0  0  0  0  0  0  0  0  0  0  0
    8.7845    4.6449    0.0000 C   0  0  0  0  0  0  0  0  0  0  0  0
    7.5109    2.3507    0.0000 C   0  0  0  0  0  0  0  0  0  0  0  0
    6.2009    4.6197    0.0000 C   0  0  0  0  0  0  0  0  0  0  0  0
   11.4080    3.1222    0.0000 C   0  0  0  0  0  0  0  0  0  0  0  0
    8.8100    3.1007    0.0000 C   0  0  0  0  0  0  0  0  0  0  0  0
   -5.4866    5.4272    0.0000 C   0  0  0  0  0  0  0  0  0  0  0  0
   -5.4792    6.9272    0.0000 O   0  0  0  0  0  0  0  0  0  0  0  0
   -6.7893    4.6836    0.0000 O   0  0  0  0  0  0  0  0  0  0  0  0
   10.1151    2.3615    0.0000 O   0  0  0  0  0  0  0  0  0  0  0  0
  2  1  1  0
  4  3  1  0
  5  3  1  0
  4  6  2  0
  8  5  1  0
  9  7  2  0
 10  7  1  0
 11  6  1  0
 12  8  1  0
 13  9  1  0
 14 10  2  0
 11 15  2  0
 18 16  2  0
 19 17  1  0
 20 12  1  0
 20 16  1  0
 20 17  2  0
 21 13  2  0
 21 14  1  0
 22 18  1  0
 22 19  2  0
 23 15  1  0
 24 23  2  0
 25  2  1  0
 25 23  1  0
 26 21  1  0
 26 22  1  0
M  END
>  <NAME>  (4906) 
ETHYL 9-(PARA-PHENOXYPHENYL)-2,4-NONADIENOATE

>  <SYNONYMS>  (4906) 


>  <SPECTRUM TYPE>  (4906) 
MS1

>  <INSTRUMENT TYPE>  (4906) 
EI-B

>  <INSTRUMENT>  (4906) 
JEOL JMS-HX-100

>  <ION MODE>  (4906) 
P

>  <INCHIKEY>  (4906) 
CICFIKLRBCYDKV-OKOYHYLBSA-N

>  <FORMULA>  (4906) 
C23H26O3

>  <EXACT MASS>  (4906) 
350.188194692

>  <MW>  (4906) 
350

>  <ID>  (4906) 
JP004590

>  <CONTRIBUTOR>  (4906) 
University of Tokyo Team, {Faculty of Engineering, University of Tokyo

>  <COMMENT>  (4906) 
SMILES=CCOC(=O)C=CC=CCCCCc(c2)ccc(c2)Oc(c1)cccc1
InChI=InChI=1S/C23H26O3/c1-2-25-23(24)15-11-6-4-3-5-8-12-20-16-18-22(19-17-20)26-21-13-9-7-10-14-21/h4,6-7,9-11,13-19H,2-3,5,8,12H2,1H3/b6-4+,15-11+
computed SMILES=O=C(OCC)C=CC=CCCCCC1=CC=C(OC=2C=CC=CC2)C=C1
accession=JP004590
date=2016.01.19 (Created 2008.10.21, modified 2011.05.06)
author=HAYASHI A, DEPT. OF CHEMISTRY, FAC. OF SCI. AND TECHNOLOGY, KINKI UNIV.
license=CC BY-NC-SA
exact mass=350.18819
ionization energy=70 eV
ion type=[M]+*
computed spectral entropy=3.831744752094285
computed normalized entropy=0.8795044389059629
SPLASH=splash10-003r-4941000000-8e6fc749cfe98a0ba5a0
submitter=submitter = University of Tokyo Team (Faculty of Engineering, University of Tokyo)
MoNA Rating=3.75

>  <NUM PEAKS>  (4906) 
78

>  <MASS SPECTRAL PEAKS>  (4906) 
39 5.88
41 5.99
51 10.02
53 5.45
55 9.04
65 7.08
66 6.54
67 4.93
77 39.59
78 6.01
79 7.08
81 5.39
86 3.6
89 3.87
90 4.34
91 12.08
93 2.77
94 3.04
97 4.3
99 2.89
103 2.92
104 2.75
105 2.01
107 17.52
108 2.39
114 8.4
115 16.63
116 22.17
117 8.39
121 2.93
125 4.08
127 4.94
128 5.12
129 6.78
130 2.88
131 4.13
139 2.27
141 4.49
142 3.13
143 2.81
152 4.32
153 5.85
154 5.74
155 7.28
167 5.82
168 2.68
169 3.8
170 11.53
180 2.3
181 5.03
182 3.13
183 99.99
184 19.72
185 2.42
196 21.08
197 6.24
209 26.54
210 6.81
211 2.32
221 3.48
222 2.77
223 4.04
233 2.59
235 6.89
236 6.38
237 3.66
262 4.98
268 31.01
269 7.01
275 2.73
276 22.22
277 15.38
278 3.12
282 2.55
305 11.58
306 2.87
350 36.28
351 10.21

$$$$

     RDKit          2D

 24 25  0  0  0  0  0  0  0  0999 V2000
    5.2279    2.9835    0.0000 C   0  0  0  0  0  0  0  0  0  0  0  0
    6.5232    2.2271    0.0000 C   0  0  0  0  0  0  0  0  0  0  0  0
    3.9252    2.2399    0.0000 C   0  0  0  0  0  0  0  0  0  0  0  0
    7.8259    2.9707    0.0000 C   0  0  0  0  0  0  0  0  0  0  0  0
   -7.7630    2.9856    0.0000 C   0  0  0  0  0  0  0  0  0  0  0  0
    2.6298    2.9963    0.0000 C   0  0  0  0  0  0  0  0  0  0  0  0
   -7.7752    4.4856    0.0000 C   0  0  0  0  0  0  0  0  0  0  0  0
   -6.4570    2.2462    0.0000 C   0  0  0  0  0  0  0  0  0  0  0  0
    9.1212    2.2143    0.0000 C   0  0  0  0  0  0  0  0  0  0  0  0
    1.3271    2.2527    0.0000 C   0  0  0  0  0  0  0  0  0  0  0  0
   -6.4813    5.2461    0.0000 C   0  0  0  0  0  0  0  0  0  0  0  0
   -5.1631    3.0067    0.0000 C   0  0  0  0  0  0  0  0  0  0  0  0
   10.4240    2.9579    0.0000 C   0  0  0  0  0  0  0  0  0  0  0  0
   -1.2673    2.2591    0.0000 C   0  0  0  0  0  0  0  0  0  0  0  0
    0.0463    4.4839    0.0000 C   0  0  0  0  0  0  0  0  0  0  0  0
   -2.5518    2.9839    0.0000 C   0  0  0  0  0  0  0  0  0  0  0  0
   -1.2782    5.2781    0.0000 C   0  0  0  0  0  0  0  0  0  0  0  0
    0.0318    3.0091    0.0000 C   0  0  0  0  0  0  0  0  0  0  0  0
   -5.1752    4.5066    0.0000 C   0  0  0  0  0  0  0  0  0  0  0  0
   -2.5773    4.5281    0.0000 C   0  0  0  0  0  0  0  0  0  0  0  0
   11.7193    2.2015    0.0000 C   0  0  0  0  0  0  0  0  0  0  0  0
   11.7119    0.7015    0.0000 O   0  0  0  0  0  0  0  0  0  0  0  0
   13.0220    2.9451    0.0000 O   0  0  0  0  0  0  0  0  0  0  0  0
   -3.8824    5.2673    0.0000 O   0  0  0  0  0  0  0  0  0  0  0  0
  2  1  1  0
  3  1  1  0
  2  4  2  0
  6  3  1  0
  7  5  2  0
  8  5  1  0
  9  4  1  0
 10  6  1  0
 11  7  1  0
 12  8  2  0
  9 13  2  0
 16 14  2  0
 17 15  1  0
 18 10  1  0
 18 14  1  0
 18 15  2  0
 19 11  2  0
 19 12  1  0
 20 16  1  0
 20 17  2  0
 21 13  1  0
 22 21  2  0
 23 21  1  0
 24 19  1  0
 24 20  1  0
M  END
>  <NAME>  (4907) 
9-(PARA-PHENOXYPHNYL)-2,4-NONADIENOIC ACID

>  <SYNONYMS>  (4907) 


>  <SPECTRUM TYPE>  (4907) 
MS1

>  <INSTRUMENT TYPE>  (4907) 
EI-B

>  <INSTRUMENT>  (4907) 
JEOL JMS-HX-100

>  <ION MODE>  (4907) 
P

>  <INCHIKEY>  (4907) 
XRGBVKNNGJJCAV-SUMSYXJWSA-N

>  <FORMULA>  (4907) 
C21H22O3

>  <EXACT MASS>  (4907) 
322.156894564

>  <MW>  (4907) 
322

>  <ID>  (4907) 
JP004589

>  <CONTRIBUTOR>  (4907) 
University of Tokyo Team, {Faculty of Engineering, University of Tokyo

>  <COMMENT>  (4907) 
SMILES=OC(=O)C=CC=CCCCCc(c2)ccc(c2)Oc(c1)cccc1
InChI=InChI=1S/C21H22O3/c22-21(23)13-9-4-2-1-3-6-10-18-14-16-20(17-15-18)24-19-11-7-5-8-12-19/h2,4-5,7-9,11-17H,1,3,6,10H2,(H,22,23)/b4-2+,13-9+
computed SMILES=O=C(O)C=CC=CCCCCC1=CC=C(OC=2C=CC=CC2)C=C1
accession=JP004589
date=2016.01.19 (Created 2008.10.21, modified 2011.05.06)
author=HAYASHI A, DEPT. OF CHEMISTRY, FAC. OF SCI. AND TECHNOLOGY, KINKI UNIV.
license=CC BY-NC-SA
exact mass=322.15689
ionization energy=70 eV
ion type=[M]+*
computed spectral entropy=3.628126666654455
computed normalized entropy=0.8456266086233751
SPLASH=splash10-0089-5932000000-e9da515bac42fac9e184
submitter=submitter = University of Tokyo Team (Faculty of Engineering, University of Tokyo)
MoNA Rating=3.75

>  <NUM PEAKS>  (4907) 
73

>  <MASS SPECTRAL PEAKS>  (4907) 
39 9.47
41 12.31
43 3.57
44 3.2
45 2.28
50 2.19
51 14.19
52 2.33
53 4.58
55 5.73
57 3.13
63 2.34
65 8.66
66 3.06
67 5.47
69 2.46
76 2.05
77 46.33
78 7.62
79 6.06
81 2.83
89 4.98
90 5.31
91 14.2
93 2.1
97 3.48
103 3.35
104 2.96
107 18.97
108 2.59
115 19.63
116 25.58
117 9.43
127 2.97
128 5.46
129 7.52
130 2.8
131 4.41
139 2.05
141 4.59
142 3.16
143 3.16
152 2.83
153 4.78
154 3.37
155 7.76
165 2.17
169 3.16
170 12.7
171 2.05
181 4.78
183 99.99
184 19.85
185 2.48
196 20.46
197 6.37
209 38.59
210 9.12
221 4.36
222 2.51
223 2.91
235 8.75
236 8.42
237 2.83
240 35.41
241 6.75
254 2.95
262 2.33
276 2.2
277 5.54
322 71.09
323 18.6
324 2.88

$$$$

     RDKit          2D

 19 20  0  0  0  0  0  0  0  0999 V2000
   -1.6700   -0.9600    0.0000 C   0  0  0  0  0  0  0  0  0  0  0  0
   10.0118   -1.8003    0.0000 C   0  0  0  0  0  0  0  0  0  0  0  0
    8.7226   -1.0334    0.0000 C   0  0  0  0  0  0  0  0  0  0  0  0
   -1.6700    0.5400    0.0000 C   0  0  0  0  0  0  0  0  0  0  0  0
   -0.3700   -1.7100    0.0000 C   0  0  0  0  0  0  0  0  0  0  0  0
   11.3205   -1.0672    0.0000 C   0  0  0  0  0  0  0  0  0  0  0  0
    7.4139   -1.7665    0.0000 C   0  0  0  0  0  0  0  0  0  0  0  0
   -0.3700    1.2900    0.0000 C   0  0  0  0  0  0  0  0  0  0  0  0
    0.9300   -0.9600    0.0000 C   0  0  0  0  0  0  0  0  0  0  0  0
    4.8197   -1.7391    0.0000 C   0  0  0  0  0  0  0  0  0  0  0  0
    6.1512    0.4751    0.0000 C   0  0  0  0  0  0  0  0  0  0  0  0
    3.5411   -1.0039    0.0000 C   0  0  0  0  0  0  0  0  0  0  0  0
    4.8331    1.2799    0.0000 C   0  0  0  0  0  0  0  0  0  0  0  0
   12.6096   -1.8341    0.0000 C   0  0  0  0  0  0  0  0  0  0  0  0
    6.1247   -0.9996    0.0000 C   0  0  0  0  0  0  0  0  0  0  0  0
    0.9300    0.5400    0.0000 C   0  0  0  0  0  0  0  0  0  0  0  0
    3.5281    0.5404    0.0000 C   0  0  0  0  0  0  0  0  0  0  0  0
   13.9183   -1.1010    0.0000 O   0  0  0  0  0  0  0  0  0  0  0  0
    2.2289    1.2902    0.0000 O   0  0  0  0  0  0  0  0  0  0  0  0
  3  2  1  0
  4  1  2  0
  5  1  1  0
  6  2  1  0
  7  3  1  0
  8  4  1  0
  9  5  2  0
 12 10  2  0
 13 11  1  0
 14  6  1  0
 15  7  1  0
 15 10  1  0
 15 11  2  0
 16  8  2  0
 16  9  1  0
 17 12  1  0
 17 13  2  0
 18 14  2  0
 19 16  1  0
 19 17  1  0
M  END
>  <NAME>  (4908) 
5-(PARA-PHENOXYPHENYL)PENTANAL

>  <SYNONYMS>  (4908) 


>  <SPECTRUM TYPE>  (4908) 
MS1

>  <INSTRUMENT TYPE>  (4908) 
EI-B

>  <INSTRUMENT>  (4908) 
JEOL JMS-HX-100

>  <ION MODE>  (4908) 
P

>  <INCHIKEY>  (4908) 
PTCVKJYCZZJKTC-UHFFFAOYSA-N

>  <FORMULA>  (4908) 
C17H18O2

>  <EXACT MASS>  (4908) 
254.130679816

>  <MW>  (4908) 
254

>  <ID>  (4908) 
JP004588

>  <CONTRIBUTOR>  (4908) 
University of Tokyo Team, {Faculty of Engineering, University of Tokyo

>  <COMMENT>  (4908) 
SMILES=O=CCCCCc(c2)ccc(c2)Oc(c1)cccc1
InChI=InChI=1S/C17H18O2/c18-14-6-2-3-7-15-10-12-17(13-11-15)19-16-8-4-1-5-9-16/h1,4-5,8-14H,2-3,6-7H2
computed SMILES=O=CCCCCC1=CC=C(OC=2C=CC=CC2)C=C1
accession=JP004588
date=2016.01.19 (Created 2008.10.21, modified 2011.05.06)
author=HAYASHI A, DEPT. OF CHEMISTRY, FAC. OF SCI. AND TECHNOLOGY, KINKI UNIV.
license=CC BY-NC-SA
exact mass=254.13068
ionization energy=70 eV
ion type=[M]+*
computed spectral entropy=2.897212470727474
computed normalized entropy=0.7405918796253073
SPLASH=splash10-001i-5920000000-f1d304356981df1746b8
submitter=submitter = University of Tokyo Team (Faculty of Engineering, University of Tokyo)
MoNA Rating=3.75

>  <NUM PEAKS>  (4908) 
50

>  <MASS SPECTRAL PEAKS>  (4908) 
39 6.06
41 3.47
43 1.54
50 2.76
51 15.9
52 2.07
53 1.42
55 2.45
63 2.74
64 1.42
65 4.62
71 1.37
75 1.04
76 1.91
77 33.99
78 5
79 1.03
89 3.83
90 2.65
91 8.96
92 1.1
103 2.02
104 1.98
107 11.75
108 1.1
115 6.98
116 3.97
117 4.96
127 1.96
128 2.84
129 2.9
133 1.12
141 1.39
143 1.19
152 1.42
153 2.71
154 1.84
155 4.26
165 1.26
170 1.26
181 1.59
183 99.99
184 18.06
185 1.7
196 1.95
197 1.5
209 2.35
210 1.75
254 35.47
255 7.16

$$$$

     RDKit          2D

 26 26  0  0  0  0  0  0  0  0999 V2000
    9.0940   -7.5002    0.0000 C   0  0  0  0  0  0  0  0  0  0  0  0
   -9.0917  -12.0008    0.0000 C   0  0  0  0  0  0  0  0  0  0  0  0
  -15.5882   -8.2498    0.0000 C   0  0  0  0  0  0  0  0  0  0  0  0
    7.7950   -8.2502    0.0000 C   0  0  0  0  0  0  0  0  0  0  0  0
    6.4959   -7.5002    0.0000 C   0  0  0  0  0  0  0  0  0  0  0  0
    5.1969   -8.2502    0.0000 C   0  0  0  0  0  0  0  0  0  0  0  0
    3.8978   -7.5002    0.0000 C   0  0  0  0  0  0  0  0  0  0  0  0
    2.5988   -8.2502    0.0000 C   0  0  0  0  0  0  0  0  0  0  0  0
    1.2998   -7.5002    0.0000 C   0  0  0  0  0  0  0  0  0  0  0  0
    0.0007   -8.2502    0.0000 C   0  0  0  0  0  0  0  0  0  0  0  0
   -1.2983   -7.5002    0.0000 C   0  0  0  0  0  0  0  0  0  0  0  0
   -2.5974   -8.2502    0.0000 C   0  0  0  0  0  0  0  0  0  0  0  0
   -3.8964   -7.5002    0.0000 C   0  0  0  0  0  0  0  0  0  0  0  0
   -5.1954   -8.2502    0.0000 C   0  0  0  0  0  0  0  0  0  0  0  0
   -6.4945   -7.5002    0.0000 C   0  0  0  0  0  0  0  0  0  0  0  0
   -7.7935   -8.2502    0.0000 C   0  0  0  0  0  0  0  0  0  0  0  0
   -9.0925   -7.5002    0.0000 C   0  0  0  0  0  0  0  0  0  0  0  0
  -11.6901  -10.5010    0.0000 C   0  0  0  0  0  0  0  0  0  0  0  0
  -12.9897   -9.7502    0.0000 C   0  0  0  0  0  0  0  0  0  0  0  0
  -10.3916   -8.2502    0.0000 C   0  0  0  0  0  0  0  0  0  0  0  0
  -10.3911   -9.7510    0.0000 C   0  0  0  0  0  0  0  0  0  0  0  0
  -12.9901   -8.2494    0.0000 C   0  0  0  0  0  0  0  0  0  0  0  0
  -11.6911   -7.4994    0.0000 C   0  0  0  0  0  0  0  0  0  0  0  0
  -11.6909   -5.9994    0.0000 O   0  0  0  0  0  0  0  0  0  0  0  0
   -9.0919  -10.5008    0.0000 O   0  0  0  0  0  0  0  0  0  0  0  0
  -14.2893   -7.4996    0.0000 O   0  0  0  0  0  0  0  0  0  0  0  0
  4  1  1  0
  5  4  1  0
  6  5  1  0
  7  6  1  0
  7  8  2  0
  9  8  1  0
 10  9  1  0
 11 10  1  0
 12 11  1  0
 13 12  1  0
 14 13  1  0
 15 14  1  0
 16 15  1  0
 17 16  1  0
 19 18  2  0
 20 17  1  0
 21 18  1  0
 21 20  2  0
 22 19  1  0
 23 20  1  0
 23 22  2  0
 24 23  1  0
 25  2  1  0
 25 21  1  0
 26  3  1  0
 26 22  1  0
M  END
>  <NAME>  (4909) 
3,6-DIMETHOXY-2-(10-PENTADECENYL)PHENOL

>  <SYNONYMS>  (4909) 


>  <SPECTRUM TYPE>  (4909) 
MS1

>  <INSTRUMENT TYPE>  (4909) 
EI-B

>  <INSTRUMENT>  (4909) 
JEOL JMS-HX-100

>  <ION MODE>  (4909) 
P

>  <INCHIKEY>  (4909) 
XVPHAYWQBAYETP-BQYQJAHWSA-N

>  <FORMULA>  (4909) 
C23H38O3

>  <EXACT MASS>  (4909) 
362.282095076

>  <MW>  (4909) 
362

>  <ID>  (4909) 
JP004587

>  <CONTRIBUTOR>  (4909) 
University of Tokyo Team, {Faculty of Engineering, University of Tokyo

>  <COMMENT>  (4909) 
SMILES=CCCCC=CCCCCCCCCCc(c(OC)1)c(O)c(OC)cc1
InChI=InChI=1S/C23H38O3/c1-4-5-6-7-8-9-10-11-12-13-14-15-16-17-20-21(25-2)18-19-22(26-3)23(20)24/h7-8,18-19,24H,4-6,9-17H2,1-3H3/b8-7+
computed SMILES=OC=1C(OC)=CC=C(OC)C1CCCCCCCCCC=CCCCC
accession=JP004587
date=2016.01.19 (Created 2008.10.21, modified 2011.05.06)
author=HAYASHI A, DEPT. OF CHEMISTRY, FAC. OF SCI. AND TECHNOLOGY, KINKI UNIV.
license=CC BY-NC-SA
exact mass=362.2821
ionization energy=70 eV
ion type=[M]+*
computed spectral entropy=2.5631551818510485
computed normalized entropy=0.7098347965418261
SPLASH=splash10-03xr-3908000000-3313d451511190905514
submitter=submitter = University of Tokyo Team (Faculty of Engineering, University of Tokyo)
MoNA Rating=3.75

>  <NUM PEAKS>  (4909) 
37

>  <MASS SPECTRAL PEAKS>  (4909) 
39 1.99
41 9.56
42 1.71
43 6.15
53 1.56
54 1.55
55 11.78
57 1.44
67 3.59
69 3.51
77 2.13
79 2.73
81 3.56
83 1.26
91 2.64
94 1.51
95 2.19
97 1.23
107 4.49
109 2.19
122 4.57
123 3.99
137 14.08
138 2.19
139 2.44
151 1.46
152 2.21
153 18.47
154 3.72
165 1.88
166 1.94
167 72.57
168 8.44
180 1.61
362 99.99
363 27.59
364 4.34

$$$$

     RDKit          2D

 26 26  0  0  0  0  0  0  0  0999 V2000
   20.7855   -1.5031    0.0000 C   0  0  0  0  0  0  0  0  0  0  0  0
   -3.8981   -0.7504    0.0000 C   0  0  0  0  0  0  0  0  0  0  0  0
   19.4865   -0.7529    0.0000 C   0  0  0  0  0  0  0  0  0  0  0  0
   18.1874   -1.5027    0.0000 C   0  0  0  0  0  0  0  0  0  0  0  0
   16.8885   -0.7525    0.0000 C   0  0  0  0  0  0  0  0  0  0  0  0
   15.5893   -1.5023    0.0000 C   0  0  0  0  0  0  0  0  0  0  0  0
   14.2904   -0.7521    0.0000 C   0  0  0  0  0  0  0  0  0  0  0  0
   12.9912   -1.5019    0.0000 C   0  0  0  0  0  0  0  0  0  0  0  0
   11.6923   -0.7517    0.0000 C   0  0  0  0  0  0  0  0  0  0  0  0
   10.3931   -1.5015    0.0000 C   0  0  0  0  0  0  0  0  0  0  0  0
    9.0942   -0.7512    0.0000 C   0  0  0  0  0  0  0  0  0  0  0  0
    7.7951   -1.5010    0.0000 C   0  0  0  0  0  0  0  0  0  0  0  0
    6.4962   -0.7508    0.0000 C   0  0  0  0  0  0  0  0  0  0  0  0
    5.1970   -1.5006    0.0000 C   0  0  0  0  0  0  0  0  0  0  0  0
    3.8981   -0.7504    0.0000 C   0  0  0  0  0  0  0  0  0  0  0  0
    2.5989   -1.5002    0.0000 C   0  0  0  0  0  0  0  0  0  0  0  0
   -1.3000    0.7500    0.0000 C   0  0  0  0  0  0  0  0  0  0  0  0
    1.3000   -0.7500    0.0000 C   0  0  0  0  0  0  0  0  0  0  0  0
    0.0000    1.5000    0.0000 C   0  0  0  0  0  0  0  0  0  0  0  0
   -1.3000   -0.7500    0.0000 C   0  0  0  0  0  0  0  0  0  0  0  0
    1.3000    0.7500    0.0000 C   0  0  0  0  0  0  0  0  0  0  0  0
    0.0000   -1.5000    0.0000 C   0  0  0  0  0  0  0  0  0  0  0  0
    0.0000    3.0000    0.0000 O   0  0  0  0  0  0  0  0  0  0  0  0
    2.5989    1.5002    0.0000 O   0  0  0  0  0  0  0  0  0  0  0  0
   -0.0000   -3.0000    0.0000 O   0  0  0  0  0  0  0  0  0  0  0  0
   -2.5989   -1.5002    0.0000 O   0  0  0  0  0  0  0  0  0  0  0  0
  3  1  1  0
  4  3  1  0
  5  4  1  0
  6  5  1  0
  6  7  2  0
  8  7  1  0
  9  8  1  0
 10  9  1  0
 11 10  1  0
 12 11  1  0
 13 12  1  0
 14 13  1  0
 15 14  1  0
 16 15  1  0
 18 16  1  0
 19 17  1  0
 20 17  2  0
 21 18  2  0
 21 19  1  0
 22 18  1  0
 22 20  1  0
 23 19  2  0
 24 21  1  0
 25 22  2  0
 26  2  1  0
 26 20  1  0
M  END
>  <NAME>  (4910) 
2-HYDROXY-5-METHOXY-3-(10-PENTADECENYL)-PARA-BENZOQUINONE

>  <SYNONYMS>  (4910) 
MAESANINE

>  <SPECTRUM TYPE>  (4910) 
MS1

>  <INSTRUMENT TYPE>  (4910) 
EI-B

>  <INSTRUMENT>  (4910) 
JEOL JMS-HX-100

>  <ION MODE>  (4910) 
P

>  <INCHIKEY>  (4910) 
WVHQJXPRVZBEFP-VOTSOKGWSA-N

>  <FORMULA>  (4910) 
C22H34O4

>  <EXACT MASS>  (4910) 
362.245709568

>  <MW>  (4910) 
362

>  <ID>  (4910) 
JP004586

>  <CONTRIBUTOR>  (4910) 
University of Tokyo Team, {Faculty of Engineering, University of Tokyo

>  <COMMENT>  (4910) 
SMILES=CCCCC=CCCCCCCCCCc(c(O)1)c(=O)c(OC)cc(=O)1
InChI=InChI=1S/C22H34O4/c1-3-4-5-6-7-8-9-10-11-12-13-14-15-16-18-21(24)19(23)17-20(26-2)22(18)25/h6-7,17,24H,3-5,8-16H2,1-2H3/b7-6+
computed SMILES=O=C1C=C(OC)C(=O)C(=C1O)CCCCCCCCCC=CCCCC
accession=JP004586
date=2016.01.19 (Created 2008.10.21, modified 2011.05.06)
author=HAYASHI A, DEPT. OF CHEMISTRY, FAC. OF SCI. AND TECHNOLOGY, KINKI UNIV.
license=CC BY-NC-SA
exact mass=362.24571
ionization energy=70 eV
ion type=[M]+*
computed spectral entropy=3.0860400982627434
computed normalized entropy=0.8483758082296177
SPLASH=splash10-02t9-5904000000-df702e0f77911f8f93c0
submitter=submitter = University of Tokyo Team (Faculty of Engineering, University of Tokyo)
MoNA Rating=3.75

>  <NUM PEAKS>  (4910) 
38

>  <MASS SPECTRAL PEAKS>  (4910) 
39 5.83
41 37.99
42 4.86
43 16.57
53 5.64
54 6.52
55 53.29
56 5.3
57 6.17
67 16.58
69 20.6
79 4.93
81 13.1
83 7.77
95 10.21
109 5.67
125 5.84
139 20.35
140 4.11
141 7.17
149 5.5
153 20.08
154 5.38
155 10.1
156 9.72
163 5.31
167 27.93
168 99.99
169 84.34
170 12.39
179 4.01
182 7.37
193 8.53
348 5.4
362 95.43
363 26.63
364 22.27
365 4.66

$$$$

     RDKit          2D

 28 28  0  0  0  0  0  0  0  0999 V2000
   -8.3761   -6.3301    0.0000 C   0  0  0  0  0  0  0  0  0  0  0  0
   16.3061   -8.5826    0.0000 C   0  0  0  0  0  0  0  0  0  0  0  0
   16.3062   -5.5824    0.0000 C   0  0  0  0  0  0  0  0  0  0  0  0
   -7.0769   -5.5803    0.0000 C   0  0  0  0  0  0  0  0  0  0  0  0
   15.0070   -7.8328    0.0000 C   0  0  0  0  0  0  0  0  0  0  0  0
   -5.7780   -6.3305    0.0000 C   0  0  0  0  0  0  0  0  0  0  0  0
   -4.4789   -5.5807    0.0000 C   0  0  0  0  0  0  0  0  0  0  0  0
   -3.1799   -6.3309    0.0000 C   0  0  0  0  0  0  0  0  0  0  0  0
   -1.8808   -5.5811    0.0000 C   0  0  0  0  0  0  0  0  0  0  0  0
   -0.5819   -6.3314    0.0000 C   0  0  0  0  0  0  0  0  0  0  0  0
    0.7173   -5.5816    0.0000 C   0  0  0  0  0  0  0  0  0  0  0  0
    2.0162   -6.3318    0.0000 C   0  0  0  0  0  0  0  0  0  0  0  0
    3.3154   -5.5820    0.0000 C   0  0  0  0  0  0  0  0  0  0  0  0
    4.6143   -6.3322    0.0000 C   0  0  0  0  0  0  0  0  0  0  0  0
    5.9134   -5.5824    0.0000 C   0  0  0  0  0  0  0  0  0  0  0  0
    7.2124   -6.3326    0.0000 C   0  0  0  0  0  0  0  0  0  0  0  0
    8.5115   -5.5828    0.0000 C   0  0  0  0  0  0  0  0  0  0  0  0
   12.4096   -3.3316    0.0000 C   0  0  0  0  0  0  0  0  0  0  0  0
    9.8104   -6.3330    0.0000 C   0  0  0  0  0  0  0  0  0  0  0  0
   11.1101   -4.0824    0.0000 C   0  0  0  0  0  0  0  0  0  0  0  0
   13.7086   -4.0816    0.0000 C   0  0  0  0  0  0  0  0  0  0  0  0
   11.1096   -5.5832    0.0000 C   0  0  0  0  0  0  0  0  0  0  0  0
   13.7082   -5.5824    0.0000 C   0  0  0  0  0  0  0  0  0  0  0  0
   12.4086   -6.3332    0.0000 C   0  0  0  0  0  0  0  0  0  0  0  0
   12.4089   -7.8332    0.0000 C   0  0  0  0  0  0  0  0  0  0  0  0
   11.1100   -8.5834    0.0000 O   0  0  0  0  0  0  0  0  0  0  0  0
   15.0072   -6.3324    0.0000 O   0  0  0  0  0  0  0  0  0  0  0  0
   13.7080   -8.5830    0.0000 O   0  0  0  0  0  0  0  0  0  0  0  0
  4  1  1  0
  5  2  1  0
  6  4  1  0
  7  6  1  0
  8  7  1  0
  9  8  1  0
 10  9  1  0
 11 10  1  0
 12 11  1  0
 13 12  1  0
 14 13  1  0
 15 14  1  0
 16 15  1  0
 17 16  1  0
 17 19  2  0
 20 18  2  0
 21 18  1  0
 22 19  1  0
 22 20  1  0
 23 21  2  0
 24 22  2  0
 24 23  1  0
 25 24  1  0
 26 25  2  0
 27  3  1  0
 27 23  1  0
 28  5  1  0
 28 25  1  0
M  END
>  <NAME>  (4911) 
ETHYL2-METHOXY-6(1-PENTDECENYL)BENZOATE

>  <SYNONYMS>  (4911) 


>  <SPECTRUM TYPE>  (4911) 
MS1

>  <INSTRUMENT TYPE>  (4911) 
EI-B

>  <INSTRUMENT>  (4911) 
JEOL JMS-HX-100

>  <ION MODE>  (4911) 
P

>  <INCHIKEY>  (4911) 
JUWPXQAVBPMMNP-HTXNQAPBSA-N

>  <FORMULA>  (4911) 
C25H40O3

>  <EXACT MASS>  (4911) 
388.29774513999996

>  <MW>  (4911) 
388

>  <ID>  (4911) 
JP004585

>  <CONTRIBUTOR>  (4911) 
University of Tokyo Team, {Faculty of Engineering, University of Tokyo

>  <COMMENT>  (4911) 
SMILES=CCCCCCCCCCCCCC=Cc(c1)c(C(=O)OCC)c(OC)cc1
InChI=InChI=1S/C25H40O3/c1-4-6-7-8-9-10-11-12-13-14-15-16-17-19-22-20-18-21-23(27-3)24(22)25(26)28-5-2/h17-21H,4-16H2,1-3H3/b19-17+
computed SMILES=O=C(OCC)C=1C(OC)=CC=CC1C=CCCCCCCCCCCCCC
accession=JP004585
date=2016.01.19 (Created 2008.10.21, modified 2011.05.06)
author=HAYASHI A, DEPT. OF CHEMISTRY, FAC. OF SCI. AND TECHNOLOGY, KINKI UNIV.
license=CC BY-NC-SA
exact mass=388.29775
ionization energy=70 eV
ion type=[M]+*
computed spectral entropy=3.8486185810811637
computed normalized entropy=0.8171979829344181
SPLASH=splash10-0a4l-1963000000-a07041eb831b561e1701
submitter=submitter = University of Tokyo Team (Faculty of Engineering, University of Tokyo)
MoNA Rating=3.75

>  <NUM PEAKS>  (4911) 
111

>  <MASS SPECTRAL PEAKS>  (4911) 
40 1.93
43 0.79
44 0.14
45 0.89
55 0.9
56 0.32
57 1.53
67 0.69
69 1.52
70 0.38
71 0.89
81 1.19
83 1.36
85 0.38
91 0.28
95 0.81
97 1
121 2.04
122 0.86
123 0.35
128 0.36
129 0.96
130 0.35
131 0.33
132 1.23
133 0.4
135 0.5
145 0.83
146 1.46
147 5.71
148 5.37
149 1.62
150 0.59
155 0.28
156 0.85
157 0.42
158 0.41
159 1.94
160 2
161 5.89
162 1.01
163 3.95
164 1.97
165 1.41
166 0.51
170 0.31
171 0.38
172 0.33
173 3.11
177 9.5
178 1.59
179 0.6
183 0.38
185 0.58
186 0.35
187 12.58
188 5.33
189 1.89
190 0.44
191 0.83
192 6.05
193 1.47
194 12.93
195 1.61
197 0.04
199 0.9
200 0.33
201 5.37
202 1.37
203 0.53
205 34.59
206 7.36
207 1.48
211 0.51
213 0.5
215 3.21
216 0.78
219 4.53
220 2.85
221 0.48
229 0.1
230 0.37
233 1.41
234 0.47
243 0.31
247 0.76
248 0.31
261 1.13
262 0.28
275 0.88
276 0.28
289 0.56
303 0.41
313 0.38
315 1.23
316 0.35
317 0.46
324 0.31
327 0.31
331 0.46
340 0.35
341 0.88
342 3.66
343 8.56
344 2.22
345 0.57
359 12.2
360 3.18
361 0.52
387 0.35
390 0.9

$$$$

     RDKit          2D

 28 28  0  0  0  0  0  0  0  0999 V2000
   -8.3761   -6.3301    0.0000 C   0  0  0  0  0  0  0  0  0  0  0  0
   16.3061   -8.5826    0.0000 C   0  0  0  0  0  0  0  0  0  0  0  0
   16.3062   -5.5824    0.0000 C   0  0  0  0  0  0  0  0  0  0  0  0
   -7.0769   -5.5803    0.0000 C   0  0  0  0  0  0  0  0  0  0  0  0
   15.0070   -7.8328    0.0000 C   0  0  0  0  0  0  0  0  0  0  0  0
   -5.7780   -6.3305    0.0000 C   0  0  0  0  0  0  0  0  0  0  0  0
   -4.4789   -5.5807    0.0000 C   0  0  0  0  0  0  0  0  0  0  0  0
   -3.1799   -6.3309    0.0000 C   0  0  0  0  0  0  0  0  0  0  0  0
   -1.8808   -5.5811    0.0000 C   0  0  0  0  0  0  0  0  0  0  0  0
   -0.5819   -6.3314    0.0000 C   0  0  0  0  0  0  0  0  0  0  0  0
    0.7173   -5.5816    0.0000 C   0  0  0  0  0  0  0  0  0  0  0  0
    2.0162   -6.3318    0.0000 C   0  0  0  0  0  0  0  0  0  0  0  0
    3.3154   -5.5820    0.0000 C   0  0  0  0  0  0  0  0  0  0  0  0
    4.6143   -6.3322    0.0000 C   0  0  0  0  0  0  0  0  0  0  0  0
    5.9134   -5.5824    0.0000 C   0  0  0  0  0  0  0  0  0  0  0  0
    7.2124   -6.3326    0.0000 C   0  0  0  0  0  0  0  0  0  0  0  0
    8.5115   -5.5828    0.0000 C   0  0  0  0  0  0  0  0  0  0  0  0
   12.4096   -3.3316    0.0000 C   0  0  0  0  0  0  0  0  0  0  0  0
    9.8104   -6.3330    0.0000 C   0  0  0  0  0  0  0  0  0  0  0  0
   11.1101   -4.0824    0.0000 C   0  0  0  0  0  0  0  0  0  0  0  0
   13.7086   -4.0816    0.0000 C   0  0  0  0  0  0  0  0  0  0  0  0
   11.1096   -5.5832    0.0000 C   0  0  0  0  0  0  0  0  0  0  0  0
   13.7082   -5.5824    0.0000 C   0  0  0  0  0  0  0  0  0  0  0  0
   12.4086   -6.3332    0.0000 C   0  0  0  0  0  0  0  0  0  0  0  0
   12.4089   -7.8332    0.0000 C   0  0  0  0  0  0  0  0  0  0  0  0
   11.1100   -8.5834    0.0000 O   0  0  0  0  0  0  0  0  0  0  0  0
   15.0072   -6.3324    0.0000 O   0  0  0  0  0  0  0  0  0  0  0  0
   13.7080   -8.5830    0.0000 O   0  0  0  0  0  0  0  0  0  0  0  0
  4  1  1  0
  5  2  1  0
  6  4  1  0
  7  6  1  0
  8  7  1  0
  9  8  1  0
 10  9  1  0
 11 10  1  0
 12 11  1  0
 13 12  1  0
 14 13  1  0
 15 14  1  0
 16 15  1  0
 17 16  1  0
 19 17  1  0
 20 18  2  0
 21 18  1  0
 22 19  1  0
 22 20  1  0
 23 21  2  0
 24 22  2  0
 24 23  1  0
 25 24  1  0
 26 25  2  0
 27  3  1  0
 27 23  1  0
 28  5  1  0
 28 25  1  0
M  END
>  <NAME>  (4912) 
ETHYL 2-METHOXY-6-PENTADECYLBENZOATE

>  <SYNONYMS>  (4912) 


>  <SPECTRUM TYPE>  (4912) 
MS1

>  <INSTRUMENT TYPE>  (4912) 
EI-B

>  <INSTRUMENT>  (4912) 
JEOL JMS-HX-100

>  <ION MODE>  (4912) 
P

>  <INCHIKEY>  (4912) 
SQFAYXIKUHVPRT-UHFFFAOYSA-N

>  <FORMULA>  (4912) 
C25H42O3

>  <EXACT MASS>  (4912) 
390.313395204

>  <MW>  (4912) 
390

>  <ID>  (4912) 
JP004584

>  <CONTRIBUTOR>  (4912) 
University of Tokyo Team, {Faculty of Engineering, University of Tokyo

>  <COMMENT>  (4912) 
SMILES=CCCCCCCCCCCCCCCc(c1)c(C(=O)OCC)c(OC)cc1
InChI=InChI=1S/C25H42O3/c1-4-6-7-8-9-10-11-12-13-14-15-16-17-19-22-20-18-21-23(27-3)24(22)25(26)28-5-2/h18,20-21H,4-17,19H2,1-3H3
computed SMILES=O=C(OCC)C=1C(OC)=CC=CC1CCCCCCCCCCCCCCC
accession=JP004584
date=2016.01.19 (Created 2008.10.21, modified 2011.05.06)
author=HAYASHI A, DEPT. OF CHEMISTRY, FAC. OF SCI. AND TECHNOLOGY, KINKI UNIV.
license=CC BY-NC-SA
exact mass=390.3134
ionization energy=70 eV
ion type=[M]+*
computed spectral entropy=3.4910802287689005
computed normalized entropy=0.8597781620629373
SPLASH=splash10-03dl-2901000000-3f13d6f68bfb07c5ca58
submitter=submitter = University of Tokyo Team (Faculty of Engineering, University of Tokyo)
MoNA Rating=3.75

>  <NUM PEAKS>  (4912) 
58

>  <MASS SPECTRAL PEAKS>  (4912) 
39 2.29
41 17.66
42 2.65
43 26.7
55 14.64
57 9.61
67 2.63
69 6.45
71 2.29
77 4.77
78 2.16
79 3.52
81 2.02
83 2.62
90 4
91 9.31
103 2.82
105 4.74
107 3.13
115 2.34
119 2.02
121 29.3
122 9.69
131 2.18
132 2.39
133 4.01
134 3.75
135 7.65
146 4.2
147 10.68
148 16.41
149 8.17
150 6.09
159 4.25
160 3.59
161 99.99
162 24.98
163 10.1
165 9.73
174 2.3
175 19.14
176 7.6
177 3.75
179 3.87
189 4.01
190 4.51
193 9.26
194 36.71
195 4.87
203 3.25
204 3.87
207 10.05
217 2.74
344 2.93
345 34.47
346 9.46
390 24.15
391 7.07

$$$$

     RDKit          2D

 21 21  0  0  0  0  0  0  0  0999 V2000
   19.1165    0.5429    0.0000 C   0  0  0  0  0  0  0  0  0  0  0  0
   17.8174    1.2927    0.0000 C   0  0  0  0  0  0  0  0  0  0  0  0
    8.7242    0.5412    0.0000 C   0  0  0  0  0  0  0  0  0  0  0  0
   10.0231    1.2915    0.0000 C   0  0  0  0  0  0  0  0  0  0  0  0
    7.4251    1.2910    0.0000 C   0  0  0  0  0  0  0  0  0  0  0  0
   11.3223    0.5417    0.0000 C   0  0  0  0  0  0  0  0  0  0  0  0
    6.1262    0.5408    0.0000 C   0  0  0  0  0  0  0  0  0  0  0  0
   -1.6700   -0.9600    0.0000 C   0  0  0  0  0  0  0  0  0  0  0  0
   -1.6700    0.5400    0.0000 C   0  0  0  0  0  0  0  0  0  0  0  0
   -0.3700   -1.7100    0.0000 C   0  0  0  0  0  0  0  0  0  0  0  0
   12.6212    1.2919    0.0000 C   0  0  0  0  0  0  0  0  0  0  0  0
    4.8270    1.2906    0.0000 C   0  0  0  0  0  0  0  0  0  0  0  0
   -0.3700    1.2900    0.0000 C   0  0  0  0  0  0  0  0  0  0  0  0
    0.9300   -0.9600    0.0000 C   0  0  0  0  0  0  0  0  0  0  0  0
   13.9204    0.5421    0.0000 C   0  0  0  0  0  0  0  0  0  0  0  0
    3.5281    0.5404    0.0000 C   0  0  0  0  0  0  0  0  0  0  0  0
    0.9300    0.5400    0.0000 C   0  0  0  0  0  0  0  0  0  0  0  0
   15.2193    1.2923    0.0000 C   0  0  0  0  0  0  0  0  0  0  0  0
   15.2191    2.7923    0.0000 O   0  0  0  0  0  0  0  0  0  0  0  0
   16.5185    0.5425    0.0000 O   0  0  0  0  0  0  0  0  0  0  0  0
    2.2289    1.2902    0.0000 O   0  0  0  0  0  0  0  0  0  0  0  0
  2  1  1  0
  4  3  1  0
  5  3  1  0
  4  6  2  0
  7  5  1  0
  9  8  2  0
 10  8  1  0
 11  6  1  0
 12  7  1  0
 13  9  1  0
 14 10  2  0
 11 15  2  0
 16 12  1  0
 17 13  2  0
 17 14  1  0
 18 15  1  0
 19 18  2  0
 20  2  1  0
 20 18  1  0
 21 16  1  0
 21 17  1  0
M  END
>  <NAME>  (4913) 
ETHYL 10-PHENOXY-2,4-DECADIENOATE

>  <SYNONYMS>  (4913) 


>  <SPECTRUM TYPE>  (4913) 
MS1

>  <INSTRUMENT TYPE>  (4913) 
EI-B

>  <INSTRUMENT>  (4913) 
SHIMADZU LKB-9000B

>  <ION MODE>  (4913) 
P

>  <INCHIKEY>  (4913) 
UBCABTOWERAKNF-OKOYHYLBSA-N

>  <FORMULA>  (4913) 
C18H24O3

>  <EXACT MASS>  (4913) 
288.17254462799997

>  <MW>  (4913) 
288

>  <ID>  (4913) 
JP004583

>  <CONTRIBUTOR>  (4913) 
University of Tokyo Team, {Faculty of Engineering, University of Tokyo

>  <COMMENT>  (4913) 
SMILES=CCOC(=O)C=CC=CCCCCCOc(c1)cccc1
InChI=InChI=1S/C18H24O3/c1-2-20-18(19)15-11-6-4-3-5-7-12-16-21-17-13-9-8-10-14-17/h4,6,8-11,13-15H,2-3,5,7,12,16H2,1H3/b6-4+,15-11+
computed SMILES=O=C(OCC)C=CC=CCCCCCOC=1C=CC=CC1
accession=JP004583
date=2016.01.19 (Created 2008.10.21, modified 2011.05.06)
author=HAYASHI A, DEPT. OF CHEMISTRY, FAC. OF SCI. AND TECHNOLOGY, KINKI UNIV.
license=CC BY-NC-SA
exact mass=288.17254
ionization energy=70 eV
ion type=[M]+*
computed spectral entropy=3.7832948999452998
computed normalized entropy=0.7760290813133925
SPLASH=splash10-056v-9510000000-ed0a8eb548e48e739715
submitter=submitter = University of Tokyo Team (Faculty of Engineering, University of Tokyo)
MoNA Rating=3.75

>  <NUM PEAKS>  (4913) 
131

>  <MASS SPECTRAL PEAKS>  (4913) 
37 0.5
38 1.7
39 18.5
41 2.6
42 1.8
43 9.1
45 1.9
47 0.05
50 2.5
51 9.9
52 2.6
53 1.54
54 3.2
55 38.4
56 2.5
57 0.27
60 0.6
61 0.9
62 0.6
63 0.25
64 2.3
65 27.2
66 25.9
67 4.58
68 10.3
69 7.2
70 1.3
71 0.19
73 0.8
74 0.5
75 0.9
76 0.16
77 57.8
78 12
79 70.7
80 1.02
81 38.5
82 5
83 9.5
84 0.58
85 2.1
86 2.5
87 0.5
88 0.15
90 0.6
91 19.7
92 6.4
93 2.86
94 99.99
95 18.5
96 0.5
97 1.9
98 3.2
99 9.3
100 0.8
101 0.13
102 0.5
103 0.6
104 1.7
105 1.04
106 9.3
107 57.4
108 5.1
109 0.21
110 1
111 9.1
112 7.9
113 0.18
114 5.9
115 1.6
116 0.7
117 0.13
118 1
119 20.5
120 21.2
121 6.85
122 10.3
123 8.3
124 8
125 2.78
126 2.3
127 5.9
128 1.3
129 0.14
130 1.4
131 9.7
132 1.4
133 0.92
134 1.1
135 1
137 3.7
138 0.14
139 1.8
140 1.7
141 0.8
144 0.06
145 1.1
146 1.1
147 6.6
148 1.79
149 69.1
150 8.7
151 2.8
152 0.35
153 5.3
154 0.6
157 0.5
159 0.15
160 0.5
161 0.6
165 10.3
166 0.25
167 2.7
171 0.5
173 0.7
194 0.7
195 22
196 2.9
200 0.8
203 0.07
204 0.6
214 0.7
215 0.6
225 0.14
242 9
243 12.5
244 2.1
287 0.08
288 36.4
289 7.8
290 1

$$$$

     RDKit          2D

 10  9  0  0  0  0  0  0  0  0999 V2000
    2.5981    4.5000    0.0000 C   0  0  0  0  0  0  0  0  0  0  0  0
    1.2990    5.2500    0.0000 C   0  0  0  0  0  0  0  0  0  0  0  0
    0.0000    4.5000    0.0000 C   0  0  0  0  0  0  0  0  0  0  0  0
   -1.2990    5.2500    0.0000 C   0  0  0  0  0  0  0  0  0  0  0  0
   -2.5981    4.5000    0.0000 C   0  0  0  0  0  0  0  0  0  0  0  0
   -3.8971    5.2500    0.0000 C   0  0  0  0  0  0  0  0  0  0  0  0
   -5.1962    4.5000    0.0000 C   0  0  0  0  0  0  0  0  0  0  0  0
   -6.4952    5.2500    0.0000 C   0  0  0  0  0  0  0  0  0  0  0  0
   -6.4952    6.7500    0.0000 O   0  0  0  0  0  0  0  0  0  0  0  0
   -7.7942    4.5000    0.0000 O   0  0  0  0  0  0  0  0  0  0  0  0
  2  1  1  0
  3  2  1  0
  4  3  1  0
  4  5  2  0
  6  5  1  0
  6  7  2  0
  8  7  1  0
  9  8  2  0
 10  8  1  0
M  END
>  <NAME>  (4914) 
2,4-OCTADIENOIC ACID

>  <SYNONYMS>  (4914) 


>  <SPECTRUM TYPE>  (4914) 
MS1

>  <INSTRUMENT TYPE>  (4914) 
EI-B

>  <INSTRUMENT>  (4914) 
SHIMADZU LKB-9000B

>  <ION MODE>  (4914) 
P

>  <INCHIKEY>  (4914) 
QZGIOJSVUOCUMC-YTXTXJHMSA-N

>  <FORMULA>  (4914) 
C8H12O2

>  <EXACT MASS>  (4914) 
140.083729624

>  <MW>  (4914) 
140

>  <ID>  (4914) 
JP004582

>  <CONTRIBUTOR>  (4914) 
University of Tokyo Team, {Faculty of Engineering, University of Tokyo

>  <COMMENT>  (4914) 
SMILES=CCCC=CC=CC(O)=O
cas=83615-26-3
InChI=InChI=1S/C8H12O2/c1-2-3-4-5-6-7-8(9)10/h4-7H,2-3H2,1H3,(H,9,10)/b5-4+,7-6+
computed SMILES=O=C(O)C=CC=CCCC
accession=JP004582
date=2016.01.19 (Created 2008.10.21, modified 2011.05.06)
author=HAYASHI A, DEPT. OF CHEMISTRY, FAC. OF SCI. AND TECHNOLOGY, KINKI UNIV.
license=CC BY-NC-SA
exact mass=140.08373
ionization energy=70 eV
ion type=[M]+*
computed spectral entropy=3.216757017615405
computed normalized entropy=0.7794165921205544
SPLASH=splash10-0005-9000000000-c25d99f74a022b97d871
submitter=submitter = University of Tokyo Team (Faculty of Engineering, University of Tokyo)
MoNA Rating=3.75

>  <NUM PEAKS>  (4914) 
62

>  <MASS SPECTRAL PEAKS>  (4914) 
31 1.7
37 1.3
38 4.4
39 4.49
41 42.1
42 28.5
43 11.4
44 0.12
45 10
47 0.5
50 4.4
51 1.01
52 6.2
53 20.9
54 4.2
55 3.45
56 2.6
57 3.6
59 0.5
60 0.06
61 0.5
62 1.5
63 4.6
64 0.14
65 20.9
66 10.8
67 27.8
68 0.96
69 7.9
70 24.3
71 2.9
73 0.09
74 0.6
75 0.8
77 9.7
78 0.26
79 17.1
80 6.2
81 13.3
82 0.22
83 7.1
84 9.8
85 0.8
86 0.6
91 3.4
92 0.5
93 5.4
94 0.55
95 25.8
96 3.1
97 99.99
98 2.85
99 9.5
100 0.5
107 2.2
111 0.56
112 0.9
122 0.9
123 1.7
125 0.27
140 32.4
141 3

$$$$

     RDKit          2D

 16 15  0  0  0  0  0  0  0  0999 V2000
    5.1962    8.2500    0.0000 C   0  0  0  0  0  0  0  0  0  0  0  0
    3.8971    9.0000    0.0000 C   0  0  0  0  0  0  0  0  0  0  0  0
    2.5981    8.2500    0.0000 C   0  0  0  0  0  0  0  0  0  0  0  0
    1.2990    9.0000    0.0000 C   0  0  0  0  0  0  0  0  0  0  0  0
    0.0000    8.2500    0.0000 C   0  0  0  0  0  0  0  0  0  0  0  0
   -1.2990    9.0000    0.0000 C   0  0  0  0  0  0  0  0  0  0  0  0
   -2.5981    8.2500    0.0000 C   0  0  0  0  0  0  0  0  0  0  0  0
   -3.8971    9.0000    0.0000 C   0  0  0  0  0  0  0  0  0  0  0  0
   -5.1962    8.2500    0.0000 C   0  0  0  0  0  0  0  0  0  0  0  0
   -6.4952    9.0000    0.0000 C   0  0  0  0  0  0  0  0  0  0  0  0
   -7.7942    8.2500    0.0000 C   0  0  0  0  0  0  0  0  0  0  0  0
   -9.0933    9.0000    0.0000 C   0  0  0  0  0  0  0  0  0  0  0  0
  -10.3923    8.2500    0.0000 C   0  0  0  0  0  0  0  0  0  0  0  0
  -11.6913    9.0000    0.0000 C   0  0  0  0  0  0  0  0  0  0  0  0
  -12.9904    8.2500    0.0000 C   0  0  0  0  0  0  0  0  0  0  0  0
  -14.2894    9.0000    0.0000 O   0  0  0  0  0  0  0  0  0  0  0  0
  2  1  1  0
  3  2  1  0
  4  3  1  0
  5  4  1  0
  5  6  2  0
  7  6  1  0
  8  7  1  0
  9  8  1  0
 10  9  1  0
 11 10  1  0
 12 11  1  0
 13 12  1  0
 14 13  1  0
 15 14  1  0
 16 15  2  0
M  END
>  <NAME>  (4915) 
10-PENTADECENAL

>  <SYNONYMS>  (4915) 


>  <SPECTRUM TYPE>  (4915) 
MS1

>  <INSTRUMENT TYPE>  (4915) 
EI-B

>  <INSTRUMENT>  (4915) 
JEOL JMS-HX-100

>  <ION MODE>  (4915) 
P

>  <INCHIKEY>  (4915) 
CQHGVQUJJPIQQW-AATRIKPKSA-N

>  <FORMULA>  (4915) 
C15H28O

>  <EXACT MASS>  (4915) 
224.214015516

>  <MW>  (4915) 
224

>  <ID>  (4915) 
JP004581

>  <CONTRIBUTOR>  (4915) 
University of Tokyo Team, {Faculty of Engineering, University of Tokyo

>  <COMMENT>  (4915) 
SMILES=CCCCC=CCCCCCCCCC=O
InChI=InChI=1S/C15H28O/c1-2-3-4-5-6-7-8-9-10-11-12-13-14-15-16/h5-6,15H,2-4,7-14H2,1H3/b6-5+
computed SMILES=O=CCCCCCCCCC=CCCCC
accession=JP004581
date=2016.01.19 (Created 2008.10.21, modified 2011.05.06)
author=HAYASHI A, DEPT. OF CHEMISTRY, FAC. OF SCI. AND TECHNOLOGY, KINKI UNIV.
license=CC BY-NC-SA
exact mass=224.21402
ionization energy=70 eV
ion type=[M]+*
computed spectral entropy=3.717824920271921
computed normalized entropy=0.8090811646975926
SPLASH=splash10-0a5d-9200000000-16382fc28fcbee24a341
submitter=submitter = University of Tokyo Team (Faculty of Engineering, University of Tokyo)
MoNA Rating=3.75

>  <NUM PEAKS>  (4915) 
99

>  <MASS SPECTRAL PEAKS>  (4915) 
38 0.27
39 10.86
41 58.26
42 12.59
43 29.39
44 0.54
45 1.72
50 0.3
51 1.18
52 0.63
53 7.57
54 27.29
55 99.99
56 28.83
57 20.7
58 3.15
59 1.46
65 2.05
66 3.65
67 43.91
68 28.2
69 5.17
70 26.34
71 10.51
72 2.44
73 0.74
77 2.18
78 1.35
79 12.23
80 1.17
81 40.59
82 36.29
83 31.92
84 2.04
85 6.99
86 2.17
87 0.5
91 1.36
92 0.48
93 11.17
94 9.88
95 31.02
96 26.16
97 24.04
98 36.32
99 4.51
100 1.09
105 0.43
107 7.44
108 7.11
109 13.39
110 13.46
111 17.91
112 1.19
113 1.73
114 0.58
120 0.39
121 16.26
122 6.14
123 5.59
124 8.09
125 5.63
126 2.49
127 0.62
128 0.84
131 1.17
135 9.54
136 3.57
137 2.98
138 3.38
139 2.09
140 1.37
141 0.41
142 0.99
149 3.76
150 1.4
151 1.25
152 1.64
153 1.3
154 1.11
156 0.31
163 1.67
164 0.8
165 0.57
167 0.95
168 0.84
169 1.11
177 0.82
178 0.8
180 2.01
181 1.42
182 0.64
193 0.37
195 0.67
206 14.38
207 2.5
219 0.03
224 4.49
225 0.83

$$$$

     RDKit          2D

 18 17  0  0  0  0  0  0  0  0999 V2000
   -7.1447    5.6250    0.0000 C   0  0  0  0  0  0  0  0  0  0  0  0
   11.0418   10.1250    0.0000 C   0  0  0  0  0  0  0  0  0  0  0  0
   -5.8457    6.3750    0.0000 C   0  0  0  0  0  0  0  0  0  0  0  0
   -5.8457    7.8750    0.0000 C   0  0  0  0  0  0  0  0  0  0  0  0
   -4.5466    8.6250    0.0000 C   0  0  0  0  0  0  0  0  0  0  0  0
   -4.5466   10.1250    0.0000 C   0  0  0  0  0  0  0  0  0  0  0  0
   -3.2476   10.8750    0.0000 C   0  0  0  0  0  0  0  0  0  0  0  0
   -1.9486   10.1250    0.0000 C   0  0  0  0  0  0  0  0  0  0  0  0
   -0.6495   10.8750    0.0000 C   0  0  0  0  0  0  0  0  0  0  0  0
    0.6495   10.1250    0.0000 C   0  0  0  0  0  0  0  0  0  0  0  0
    1.9486   10.8750    0.0000 C   0  0  0  0  0  0  0  0  0  0  0  0
    3.2476   10.1250    0.0000 C   0  0  0  0  0  0  0  0  0  0  0  0
    4.5466   10.8750    0.0000 C   0  0  0  0  0  0  0  0  0  0  0  0
    5.8457   10.1250    0.0000 C   0  0  0  0  0  0  0  0  0  0  0  0
    7.1447   10.8750    0.0000 C   0  0  0  0  0  0  0  0  0  0  0  0
    8.4437   10.1250    0.0000 C   0  0  0  0  0  0  0  0  0  0  0  0
    8.4437    8.6250    0.0000 O   0  0  0  0  0  0  0  0  0  0  0  0
    9.7428   10.8750    0.0000 O   0  0  0  0  0  0  0  0  0  0  0  0
  3  1  1  0
  4  3  1  0
  5  4  1  0
  6  5  1  0
  6  7  2  0
  8  7  1  0
  9  8  1  0
 10  9  1  0
 11 10  1  0
 12 11  1  0
 13 12  1  0
 14 13  1  0
 15 14  1  0
 16 15  1  0
 17 16  2  0
 18  2  1  0
 18 16  1  0
M  END
>  <NAME>  (4916) 
METHYL (Z)-10-PENTADECENOATE

>  <SYNONYMS>  (4916) 


>  <SPECTRUM TYPE>  (4916) 
MS1

>  <INSTRUMENT TYPE>  (4916) 
EI-B

>  <INSTRUMENT>  (4916) 
JEOL JMS-HX-100

>  <ION MODE>  (4916) 
P

>  <INCHIKEY>  (4916) 
JEDIPLFNJDRCFD-SREVYHEPSA-N

>  <FORMULA>  (4916) 
C16H30O2

>  <EXACT MASS>  (4916) 
254.2245802

>  <MW>  (4916) 
254

>  <ID>  (4916) 
JP004580

>  <CONTRIBUTOR>  (4916) 
University of Tokyo Team, {Faculty of Engineering, University of Tokyo

>  <COMMENT>  (4916) 
SMILES=CCCCC=CCCCCCCCCC(=O)OC
InChI=InChI=1S/C16H30O2/c1-3-4-5-6-7-8-9-10-11-12-13-14-15-16(17)18-2/h6-7H,3-5,8-15H2,1-2H3/b7-6-
computed SMILES=O=C(OC)CCCCCCCCC=CCCCC
accession=JP004580
date=2016.01.19 (Created 2008.10.21, modified 2011.05.06)
author=HAYASHI A, DEPT. OF CHEMISTRY, FAC. OF SCI. AND TECHNOLOGY, KINKI UNIV.
license=CC BY-NC-SA
exact mass=254.22458
ionization energy=70 eV
ion type=[M]+*
computed spectral entropy=3.758873165650424
computed normalized entropy=0.8627781463436867
SPLASH=splash10-0awa-9200000000-e19e54480862687b5a6c
submitter=submitter = University of Tokyo Team (Faculty of Engineering, University of Tokyo)
MoNA Rating=3.75

>  <NUM PEAKS>  (4916) 
78

>  <MASS SPECTRAL PEAKS>  (4916) 
45 2.63
53 7.46
54 19
55 99.99
56 21.51
57 12.53
59 14.59
65 1.88
66 1.58
67 24.79
68 18.12
69 52.9
70 13.43
71 4.78
73 5.28
74 63.27
75 8.11
77 1.73
79 5.24
80 3.55
81 23.29
82 16.93
83 35.43
84 30.87
85 5.99
87 41.53
88 4.34
91 1.73
93 3.02
94 3.9
95 17.6
96 27.75
97 28
98 23.75
99 3.51
101 6.74
107 2.3
108 2.59
109 9.56
110 15.26
111 12.48
112 5.04
113 3.4
114 4.46
115 6.86
119 2.22
121 2.8
122 1.71
123 11.94
124 9.38
125 7.73
126 1.55
127 4.13
128 4.18
129 3.84
133 2.09
134 1.41
135 2.65
137 7.02
138 12.55
139 5.79
141 4.38
143 2.46
147 1.56
149 1.43
151 4.14
152 4.18
153 1.72
165 2.37
178 3.99
179 3
180 14.23
181 2.82
193 1.55
222 14.64
223 10.36
224 1.5
254 2.82

$$$$

     RDKit          2D

 16 15  0  0  0  0  0  0  0  0999 V2000
    8.4437   12.3750    0.0000 C   0  0  0  0  0  0  0  0  0  0  0  0
    7.1447   11.6250    0.0000 C   0  0  0  0  0  0  0  0  0  0  0  0
    7.1447   10.1250    0.0000 C   0  0  0  0  0  0  0  0  0  0  0  0
    5.8457    9.3750    0.0000 C   0  0  0  0  0  0  0  0  0  0  0  0
    5.8457    7.8750    0.0000 C   0  0  0  0  0  0  0  0  0  0  0  0
    4.5466    7.1250    0.0000 C   0  0  0  0  0  0  0  0  0  0  0  0
    3.2476    7.8750    0.0000 C   0  0  0  0  0  0  0  0  0  0  0  0
    1.9486    7.1250    0.0000 C   0  0  0  0  0  0  0  0  0  0  0  0
    0.6495    7.8750    0.0000 C   0  0  0  0  0  0  0  0  0  0  0  0
   -0.6495    7.1250    0.0000 C   0  0  0  0  0  0  0  0  0  0  0  0
   -1.9486    7.8750    0.0000 C   0  0  0  0  0  0  0  0  0  0  0  0
   -3.2476    7.1250    0.0000 C   0  0  0  0  0  0  0  0  0  0  0  0
   -4.5466    7.8750    0.0000 C   0  0  0  0  0  0  0  0  0  0  0  0
   -5.8457    7.1250    0.0000 C   0  0  0  0  0  0  0  0  0  0  0  0
   -7.1447    7.8750    0.0000 C   0  0  0  0  0  0  0  0  0  0  0  0
   -8.4437    7.1250    0.0000 O   0  0  0  0  0  0  0  0  0  0  0  0
  2  1  1  0
  3  2  1  0
  4  3  1  0
  5  4  1  0
  5  6  2  0
  7  6  1  0
  8  7  1  0
  9  8  1  0
 10  9  1  0
 11 10  1  0
 12 11  1  0
 13 12  1  0
 14 13  1  0
 15 14  1  0
 16 15  1  0
M  END
>  <NAME>  (4917) 
(Z)-10-PENTADECENE-1-OL

>  <SYNONYMS>  (4917) 


>  <SPECTRUM TYPE>  (4917) 
MS1

>  <INSTRUMENT TYPE>  (4917) 
EI-B

>  <INSTRUMENT>  (4917) 
JEOL JMS-HX-100

>  <ION MODE>  (4917) 
P

>  <INCHIKEY>  (4917) 
YWAXGXIQALUWKR-WAYWQWQTSA-N

>  <FORMULA>  (4917) 
C15H30O

>  <EXACT MASS>  (4917) 
226.22966558000002

>  <MW>  (4917) 
226

>  <ID>  (4917) 
JP004579

>  <CONTRIBUTOR>  (4917) 
University of Tokyo Team, {Faculty of Engineering, University of Tokyo

>  <COMMENT>  (4917) 
SMILES=CCCCC([H])=C([H])CCCCCCCCCO
InChI=InChI=1S/C15H30O/c1-2-3-4-5-6-7-8-9-10-11-12-13-14-15-16/h5-6,16H,2-4,7-15H2,1H3/b6-5-
computed SMILES=OCCCCCCCCCC=CCCCC
accession=JP004579
date=2016.01.19 (Created 2008.10.21, modified 2011.05.06)
author=HAYASHI A, DEPT. OF CHEMISTRY, FAC. OF SCI. AND TECHNOLOGY, KINKI UNIV.
license=CC BY-NC-SA
exact mass=226.22967
ionization energy=70 eV
ion type=[M]+*
computed spectral entropy=3.2677443083274973
computed normalized entropy=0.7592227899822068
SPLASH=splash10-067j-9000000000-73087b15960fd726a3a4
submitter=submitter = University of Tokyo Team (Faculty of Engineering, University of Tokyo)
MoNA Rating=3.75

>  <NUM PEAKS>  (4917) 
74

>  <MASS SPECTRAL PEAKS>  (4917) 
38 0.3
39 10
40 2.17
41 59.64
42 13.9
43 27.32
44 2.05
45 1.81
50 0.2
51 0.65
52 0.53
53 7.35
54 39.74
55 99.99
56 22.26
57 14.31
58 1.28
59 0.4
65 1.78
66 4.73
67 53.16
68 43.44
69 50.48
70 12.94
71 5.36
72 0.8
73 0.53
77 1.54
78 0.41
79 3.79
80 3.06
81 50.54
82 65.95
83 27.45
84 5.36
85 3.2
86 0.55
91 0.68
93 1.21
94 1.45
95 39.67
96 45.75
97 14.18
98 2.58
99 0.86
107 0.39
108 0.51
109 19.07
110 16.2
111 3.64
112 0.88
113 0.25
121 0.26
122 0.43
123 8.12
124 7.01
125 1.08
126 0.61
136 0.19
137 3.7
138 3.34
139 0.48
140 0.35
149 0.44
151 1.65
152 2.03
153 0.28
165 0.8
166 0.82
179 0.46
180 1.53
181 0.22
208 4.66
209 0.82

$$$$

     RDKit          2D

 18 18  0  0  0  0  0  0  0  0999 V2000
   -3.2976    3.0316    0.0000 C   0  0  0  0  0  0  0  0  0  0  0  0
    4.4966    3.0316    0.0000 C   0  0  0  0  0  0  0  0  0  0  0  0
    4.4971    4.5324    0.0000 C   0  0  0  0  0  0  0  0  0  0  0  0
    3.1971    2.2808    0.0000 C   0  0  0  0  0  0  0  0  0  0  0  0
    3.1981    5.2824    0.0000 C   0  0  0  0  0  0  0  0  0  0  0  0
    1.8981    3.0308    0.0000 C   0  0  0  0  0  0  0  0  0  0  0  0
   -4.5966    5.2816    0.0000 C   0  0  0  0  0  0  0  0  0  0  0  0
   -5.8957    4.5316    0.0000 C   0  0  0  0  0  0  0  0  0  0  0  0
    0.5995    5.2816    0.0000 C   0  0  0  0  0  0  0  0  0  0  0  0
    1.8986    4.5316    0.0000 C   0  0  0  0  0  0  0  0  0  0  0  0
   -1.9986    5.2816    0.0000 C   0  0  0  0  0  0  0  0  0  0  0  0
   -3.2976    4.5316    0.0000 N   0  0  0  0  0  0  0  0  0  0  0  0
   -1.9986    6.7816    0.0000 O   0  0  0  0  0  0  0  0  0  0  0  0
   -6.4447    6.5806    0.0000 O   0  0  0  0  0  0  0  0  0  0  0  0
   -8.4937    6.0316    0.0000 O   0  0  0  0  0  0  0  0  0  0  0  0
   -7.9447    3.9826    0.0000 O   0  0  0  0  0  0  0  0  0  0  0  0
   -0.6995    4.5316    0.0000 O   0  0  0  0  0  0  0  0  0  0  0  0
   -7.1947    5.2816    0.0000 P   0  0  0  0  0  0  0  0  0  0  0  0
  3  2  2  0
  4  2  1  0
  5  3  1  0
  6  4  2  0
  8  7  1  0
 10  5  2  0
 10  6  1  0
 10  9  1  0
 12  1  1  0
 12  7  1  0
 12 11  1  0
 13 11  2  0
 17  9  1  0
 17 11  1  0
 18  8  1  0
 18 14  1  0
 18 15  1  0
 18 16  2  0
M  END
>  <NAME>  (4918) 
2-(N-BENZYLOXYCARBONYL-N-METHYLAMINO)ETHYLPHOSPHONIC ACID

>  <SYNONYMS>  (4918) 


>  <SPECTRUM TYPE>  (4918) 
MS1

>  <INSTRUMENT TYPE>  (4918) 
EI-B

>  <INSTRUMENT>  (4918) 
JEOL JMS-HX-100

>  <ION MODE>  (4918) 
P

>  <INCHIKEY>  (4918) 
KNNQEYPDIAAUJQ-UHFFFAOYSA-N

>  <FORMULA>  (4918) 
C11H16NO5P

>  <EXACT MASS>  (4918) 
273.076609242

>  <MW>  (4918) 
273

>  <ID>  (4918) 
JP004578

>  <CONTRIBUTOR>  (4918) 
University of Tokyo Team, {Faculty of Engineering, University of Tokyo

>  <COMMENT>  (4918) 
SMILES=O=C(OCc(c1)cccc1)N(C)CCP(O)(O)=O
InChI=InChI=1S/C11H16NO5P/c1-12(7-8-18(14,15)16)11(13)17-9-10-5-3-2-4-6-10/h2-6H,7-9H2,1H3,(H2,14,15,16)
computed SMILES=O=C(OCC=1C=CC=CC1)N(C)CCP(=O)(O)O
accession=JP004578
date=2016.01.19 (Created 2008.10.21, modified 2011.05.06)
author=HAYASHI A, DEPT. OF CHEMISTRY, FAC. OF SCI. AND TECHNOLOGY, KINKI UNIV.
license=CC BY-NC-SA
exact mass=273.07661
ionization energy=70 eV
ion type=[M]+*
computed spectral entropy=3.461497496287615
computed normalized entropy=0.7453070965511444
SPLASH=splash10-0006-9300000000-cefee5aafe817b384778
submitter=submitter = University of Tokyo Team (Faculty of Engineering, University of Tokyo)
MoNA Rating=3.75

>  <NUM PEAKS>  (4918) 
104

>  <MASS SPECTRAL PEAKS>  (4918) 
36 2.73
38 0.87
39 5.47
40 1.85
41 6.24
42 3.76
43 5.39
44 19.55
45 2.21
46 0.32
47 0.39
50 1.64
51 4.09
52 1.33
53 1.07
54 0.87
55 4.22
56 3.38
57 12.25
58 1.6
59 0.37
60 2.07
61 1.31
62 0.78
63 2.91
64 0.92
65 11.61
66 0.91
67 1.52
68 1.23
69 5.2
70 1.46
71 3.04
73 2.32
74 0.53
76 0.49
77 5.71
78 1.73
79 7.31
80 1.3
81 4.94
82 1.48
83 2.62
84 1.16
85 1.67
86 0.35
87 0.74
89 3.52
90 3.16
91 99.99
92 9.69
93 1
94 1.43
95 1.98
96 0.93
97 1.57
98 1.21
99 0.39
101 0.53
102 0.51
104 2.27
105 1.26
106 0.57
107 5.56
108 9.07
109 6.99
110 0.74
111 0.9
112 0.31
115 0.51
116 0.31
117 0.16
118 1.56
119 0.5
120 4.11
121 0.71
122 0.89
123 0.64
125 0.53
129 1
134 0.81
135 0.31
136 0.16
137 0.56
138 41.69
139 7.98
140 0.78
143 0.15
146 0.73
149 0.69
152 0.91
165 0.34
166 13.64
167 1
185 0.49
193 0.48
213 0.32
228 4.24
229 0.83
236 0.69
256 0.36
264 0.16
273 7.79
274 1.18

$$$$

     RDKit          2D

 25 27  0  0  0  0  0  0  0  0999 V2000
    5.1105    2.7762    0.0000 C   0  0  0  0  0  0  0  0  0  0  0  0
    3.4405    1.8121    0.0000 C   0  0  0  0  0  0  0  0  0  0  0  0
   13.8500    3.8971    0.0000 C   0  0  0  0  0  0  0  0  0  0  0  0
   13.1000    5.1971    0.0000 C   0  0  0  0  0  0  0  0  0  0  0  0
   13.1000    2.5971    0.0000 C   0  0  0  0  0  0  0  0  0  0  0  0
   -2.3100   -0.7500    0.0000 C   0  0  0  0  0  0  0  0  0  0  0  0
   -2.3100    0.7500    0.0000 C   0  0  0  0  0  0  0  0  0  0  0  0
   11.6000    5.1971    0.0000 C   0  0  0  0  0  0  0  0  0  0  0  0
   11.6000    2.5971    0.0000 C   0  0  0  0  0  0  0  0  0  0  0  0
   -1.0100   -1.5000    0.0000 C   0  0  0  0  0  0  0  0  0  0  0  0
   -1.0100    1.5000    0.0000 C   0  0  0  0  0  0  0  0  0  0  0  0
    8.6000    2.5981    0.0000 C   0  0  0  0  0  0  0  0  0  0  0  0
    6.3500    1.2990    0.0000 C   0  0  0  0  0  0  0  0  0  0  0  0
    4.1000   -0.0000    0.0000 C   0  0  0  0  0  0  0  0  0  0  0  0
   10.8500    3.8971    0.0000 C   0  0  0  0  0  0  0  0  0  0  0  0
    7.1000    2.5981    0.0000 C   0  0  0  0  0  0  0  0  0  0  0  0
    0.2900   -0.7500    0.0000 C   0  0  0  0  0  0  0  0  0  0  0  0
    9.3500    3.8971    0.0000 C   0  0  0  0  0  0  0  0  0  0  0  0
    0.2900    0.7500    0.0000 C   0  0  0  0  0  0  0  0  0  0  0  0
    2.6000    0.0000    0.0000 C   0  0  0  0  0  0  0  0  0  0  0  0
    4.8500    1.2990    0.0000 C   0  0  0  0  0  0  0  0  0  0  0  0
    1.7200   -1.2100    0.0000 N   0  0  0  0  0  0  0  0  0  0  0  0
    6.3500    3.8971    0.0000 O   0  0  0  0  0  0  0  0  0  0  0  0
    8.6000    5.1962    0.0000 O   0  0  0  0  0  0  0  0  0  0  0  0
    1.7200    1.2100    0.0000 S   0  0  0  0  0  0  0  0  0  0  0  0
  4  3  2  0
  5  3  1  0
  7  6  2  0
  8  4  1  0
  9  5  2  0
 10  6  1  0
 11  7  1  0
 15  8  2  0
 15  9  1  0
 16 12  1  0
 16 13  1  0
 17 10  2  0
 18 12  1  0
 18 15  1  0
 19 11  2  0
 19 17  1  0
 20 14  1  0
 21  1  1  0
 21  2  1  0
 21 13  1  0
 21 14  1  0
 22 17  1  0
 22 20  2  0
 23 16  2  0
 24 18  2  0
 25 19  1  0
 25 20  1  0
M  END
>  <NAME>  (4919) 
2-(2,2-DIMETHYL-4,6-DIOXO-6-PHENYLHEXYL)BENZOTHIAZOLE

>  <SYNONYMS>  (4919) 


>  <SPECTRUM TYPE>  (4919) 
MS1

>  <INSTRUMENT TYPE>  (4919) 
EI-B

>  <INSTRUMENT>  (4919) 
JEOL JMS-HX-100

>  <ION MODE>  (4919) 
P

>  <INCHIKEY>  (4919) 
WRLWXBVNBFQXMJ-UHFFFAOYSA-N

>  <FORMULA>  (4919) 
C21H21NO2S

>  <EXACT MASS>  (4919) 
351.1292999120001

>  <MW>  (4919) 
351

>  <ID>  (4919) 
JP004577

>  <CONTRIBUTOR>  (4919) 
University of Tokyo Team, {Faculty of Engineering, University of Tokyo

>  <COMMENT>  (4919) 
SMILES=O=C(CC(=O)c(c3)cccc3)CC(C)(C)Cc(n1)sc(c2)c(ccc2)1
InChI=InChI=1S/C21H21NO2S/c1-21(2,14-20-22-17-10-6-7-11-19(17)25-20)13-16(23)12-18(24)15-8-4-3-5-9-15/h3-11H,12-14H2,1-2H3
computed SMILES=O=C(C=1C=CC=CC1)CC(=O)CC(C)(C)CC2=NC=3C=CC=CC3S2
accession=JP004577
date=2016.01.19 (Created 2008.10.21, modified 2011.05.06)
author=HAYASHI A, DEPT. OF CHEMISTRY, FAC. OF SCI. AND TECHNOLOGY, KINKI UNIV.
license=CC BY-NC-SA
exact mass=351.1293
ionization energy=70 eV
ion type=[M]+*
computed spectral entropy=2.8046034428818616
computed normalized entropy=0.7710067390109104
SPLASH=splash10-0007-3900000000-ed9c4e3ab135556665fc
submitter=submitter = University of Tokyo Team (Faculty of Engineering, University of Tokyo)
MoNA Rating=3.75

>  <NUM PEAKS>  (4919) 
38

>  <MASS SPECTRAL PEAKS>  (4919) 
39 4.21
41 4.99
43 2.25
45 7.28
51 4.8
55 6.82
63 2.19
65 4.4
69 31.37
77 24.26
78 2.84
83 8.19
91 3.09
104 2.72
105 30.72
106 2.62
108 5.6
109 4.61
147 11.68
148 7.78
149 87.08
150 10.84
151 4.96
161 2.95
162 2.26
172 2.02
174 3.69
175 2.24
188 2.6
189 5.16
190 99.99
191 14.95
192 5.92
204 2.13
216 2.91
278 2.31
351 9.5
352 2.42

$$$$

     RDKit          2D

  7  7  0  0  0  0  0  0  0  0999 V2000
   -0.3700   -1.7100    0.0000 C   0  0  0  0  0  0  0  0  0  0  0  0
   -1.6700   -0.9600    0.0000 C   0  0  0  0  0  0  0  0  0  0  0  0
    0.9300   -0.9600    0.0000 C   0  0  0  0  0  0  0  0  0  0  0  0
   -1.6700    0.5400    0.0000 C   0  0  0  0  0  0  0  0  0  0  0  0
    0.9300    0.5400    0.0000 C   0  0  0  0  0  0  0  0  0  0  0  0
    2.2289    1.2902    0.0000 O   0  0  0  0  0  0  0  0  0  0  0  0
   -0.3700    1.2900    0.0000 O   0  0  0  0  0  0  0  0  0  0  0  0
  2  1  1  0
  3  1  1  0
  4  2  1  0
  5  3  1  0
  6  5  2  0
  7  4  1  0
  7  5  1  0
M  END
>  <NAME>  (4920) 
TETRAHYDRO-2-PYRONE

>  <SYNONYMS>  (4920) 
TETRAHYDROPYRAN-2-ONE

>  <SPECTRUM TYPE>  (4920) 
MS1

>  <INSTRUMENT TYPE>  (4920) 
EI-B

>  <INSTRUMENT>  (4920) 
SHIMADZU LKB-9000B

>  <ION MODE>  (4920) 
P

>  <INCHIKEY>  (4920) 
OZJPLYNZGCXSJM-UHFFFAOYSA-N

>  <FORMULA>  (4920) 
C5H8O2

>  <EXACT MASS>  (4920) 
100.052429496

>  <MW>  (4920) 
100

>  <ID>  (4920) 
JP004576

>  <CONTRIBUTOR>  (4920) 
University of Tokyo Team, {Faculty of Engineering, University of Tokyo

>  <COMMENT>  (4920) 
SMILES=O=C(C1)OCCC1
cas=542-28-9
InChI=InChI=1S/C5H8O2/c6-5-3-1-2-4-7-5/h1-4H2
computed SMILES=O=C1OCCCC1
accession=JP004576
date=2016.01.19 (Created 2008.10.21, modified 2011.05.06)
author=HAYASHI A, DEPT. OF CHEMISTRY, FAC. OF SCI. AND TECHNOLOGY, KINKI UNIV.
license=CC BY-NC-SA
exact mass=100.05243
ionization energy=70 eV
ion type=[M]+*
computed spectral entropy=2.2165121075361625
computed normalized entropy=0.6516858208484682
SPLASH=splash10-0006-9100000000-5cbf9b97b1ef90d8f999
submitter=submitter = University of Tokyo Team (Faculty of Engineering, University of Tokyo)
MoNA Rating=3.75

>  <NUM PEAKS>  (4920) 
30

>  <MASS SPECTRAL PEAKS>  (4920) 
37 2.1
38 3.5
39 22
41 8.28
42 99.99
43 8.8
44 12.3
45 0.58
47 0.6
48 1
50 1.7
51 0.17
53 1.7
54 1.3
55 18.9
56 6.95
57 3.4
68 0.8
70 15.1
71 0.32
73 0.9
75 0.8
76 0.9
81 0.07
83 3.1
85 1.9
86 0.6
99 0.07
100 24.1
101 1.4

$$$$

     RDKit          2D

 12 13  0  0  0  0  0  0  0  0999 V2000
    2.1853    2.6360    0.0000 C   0  0  0  0  0  0  0  0  0  0  0  0
   -2.3100    0.7500    0.0000 C   0  0  0  0  0  0  0  0  0  0  0  0
   -1.0100    1.5000    0.0000 C   0  0  0  0  0  0  0  0  0  0  0  0
   -2.3100   -0.7500    0.0000 C   0  0  0  0  0  0  0  0  0  0  0  0
    1.7200    1.2100    0.0000 C   0  0  0  0  0  0  0  0  0  0  0  0
    0.2900    0.7500    0.0000 C   0  0  0  0  0  0  0  0  0  0  0  0
   -1.0100   -1.5000    0.0000 C   0  0  0  0  0  0  0  0  0  0  0  0
    0.2900   -0.7500    0.0000 C   0  0  0  0  0  0  0  0  0  0  0  0
    2.6000    0.0000    0.0000 C   0  0  0  0  0  0  0  0  0  0  0  0
   -1.0100   -3.0000    0.0000 O   0  0  0  0  0  0  0  0  0  0  0  0
    4.1000   -0.0000    0.0000 O   0  0  0  0  0  0  0  0  0  0  0  0
    1.7200   -1.2100    0.0000 O   0  0  0  0  0  0  0  0  0  0  0  0
  3  2  1  0
  4  2  1  0
  5  1  2  0
  6  3  1  0
  6  5  1  0
  7  4  1  0
  8  6  1  0
  8  7  1  0
  9  5  1  0
 10  7  1  0
 11  9  2  0
 12  8  1  0
 12  9  1  0
M  END
>  <NAME>  (4921) 
7-HYDROXYOCTAHYDRO-3-METHYLENE-1-BENZOFRAN-2-ONE

>  <SYNONYMS>  (4921) 


>  <SPECTRUM TYPE>  (4921) 
MS1

>  <INSTRUMENT TYPE>  (4921) 
EI-B

>  <INSTRUMENT>  (4921) 
JEOL JMS-HX-100

>  <ION MODE>  (4921) 
P

>  <INCHIKEY>  (4921) 
LBZLIYFBRVMLEG-UHFFFAOYSA-N

>  <FORMULA>  (4921) 
C9H12O3

>  <EXACT MASS>  (4921) 
168.078644244

>  <MW>  (4921) 
168

>  <ID>  (4921) 
JP004575

>  <CONTRIBUTOR>  (4921) 
University of Tokyo Team, {Faculty of Engineering, University of Tokyo

>  <COMMENT>  (4921) 
SMILES=OC(C2)C(O1)C(CC2)C(=C)C(=O)1
InChI=InChI=1S/C9H12O3/c1-5-6-3-2-4-7(10)8(6)12-9(5)11/h6-8,10H,1-4H2
computed SMILES=O=C1OC2C(O)CCCC2C1=C
accession=JP004575
date=2016.01.19 (Created 2008.10.21, modified 2011.05.06)
author=HAYASHI A, DEPT. OF CHEMISTRY, FAC. OF SCI. AND TECHNOLOGY, KINKI UNIV.
license=CC BY-NC-SA
exact mass=168.07864
ionization energy=70 eV
ion type=[M]+*
computed spectral entropy=3.542784779684592
computed normalized entropy=0.8966252228441428
SPLASH=splash10-0fg6-9200000000-0866512144acd25b25c6
submitter=submitter = University of Tokyo Team (Faculty of Engineering, University of Tokyo)
MoNA Rating=3.75

>  <NUM PEAKS>  (4921) 
52

>  <MASS SPECTRAL PEAKS>  (4921) 
38 8.56
39 78.41
40 18.44
41 67.01
42 13.41
43 33.55
44 22.19
45 3.44
50 10.38
51 22.13
52 15.76
53 50.29
54 11.59
55 38.27
56 4.74
57 30.69
58 5.02
63 5.91
65 16.2
66 19.13
67 39.21
68 10.35
69 12.01
70 14.95
71 3.49
77 29.89
78 8.8
79 78.09
80 11.78
81 20.26
82 4.65
83 12.75
84 5.21
91 19.09
93 53.82
94 32.12
95 16.94
96 7.62
97 9.43
98 3.46
105 3.84
107 5.66
109 14.87
111 10.84
112 10.9
121 9.34
122 99.99
123 13.79
124 3.69
139 6.89
150 75.39
151 10.36

$$$$

     RDKit          2D

 15 16  0  0  0  0  0  0  0  0999 V2000
   -0.2668   -3.1525    0.0000 C   0  0  0  0  0  0  0  0  0  0  0  0
   -4.2100    0.0000    0.0000 C   0  0  0  0  0  0  0  0  0  0  0  0
   -0.2668    3.1525    0.0000 C   0  0  0  0  0  0  0  0  0  0  0  0
    2.0000    1.2100    0.0000 C   0  0  0  0  0  0  0  0  0  0  0  0
    2.8800   -0.0000    0.0000 C   0  0  0  0  0  0  0  0  0  0  0  0
   -2.0600   -1.3500    0.0000 C   0  0  0  0  0  0  0  0  0  0  0  0
   -0.6000   -1.6900    0.0000 C   0  0  0  0  0  0  0  0  0  0  0  0
   -2.7100   -0.0000    0.0000 C   0  0  0  0  0  0  0  0  0  0  0  0
   -0.6000    1.6900    0.0000 C   0  0  0  0  0  0  0  0  0  0  0  0
    0.5700    0.7500    0.0000 C   0  0  0  0  0  0  0  0  0  0  0  0
    2.0000   -1.2100    0.0000 C   0  0  0  0  0  0  0  0  0  0  0  0
    0.5700   -0.7500    0.0000 C   0  0  0  0  0  0  0  0  0  0  0  0
   -2.0600    1.3500    0.0000 C   0  0  0  0  0  0  0  0  0  0  0  0
    2.4653   -2.6360    0.0000 O   0  0  0  0  0  0  0  0  0  0  0  0
   -2.9979    2.5207    0.0000 O   0  0  0  0  0  0  0  0  0  0  0  0
  5  4  2  0
  7  1  1  0
  7  6  2  0
  8  2  1  0
  8  6  1  0
  9  3  1  0
 10  4  1  0
 10  9  2  0
 11  5  1  0
 12  7  1  0
 12 10  1  0
 12 11  2  0
 13  8  2  0
 13  9  1  0
 14 11  1  0
 15 13  1  0
M  END
>  <NAME>  (4922) 
1,5-DIHYDROXY-4,6,8-TRIMETHYLAZULENE

>  <SYNONYMS>  (4922) 


>  <SPECTRUM TYPE>  (4922) 
MS1

>  <INSTRUMENT TYPE>  (4922) 
EI-B

>  <INSTRUMENT>  (4922) 
JEOL JMS-HX-100

>  <ION MODE>  (4922) 
P

>  <INCHIKEY>  (4922) 
UYNMLOQGFXASNF-UHFFFAOYSA-N

>  <FORMULA>  (4922) 
C13H14O2

>  <EXACT MASS>  (4922) 
202.099379688

>  <MW>  (4922) 
202

>  <ID>  (4922) 
JP004574

>  <CONTRIBUTOR>  (4922) 
University of Tokyo Team, {Faculty of Engineering, University of Tokyo

>  <COMMENT>  (4922) 
SMILES=CC(C=1)=C(O)C(C)=C(C=2)C(=C(O)C2)C(C)1
InChI=InChI=1S/C13H14O2/c1-7-6-8(2)13(15)9(3)10-4-5-11(14)12(7)10/h4-6,14-15H,1-3H3
computed SMILES=OC1=CC=C2C1=C(C=C(C(O)=C2C)C)C
accession=JP004574
date=2016.01.19 (Created 2008.10.21, modified 2011.05.06)
license=CC BY-NC-SA
author=HAYASHI A, DEPT. OF CHEMISTRY, FAC. OF SCI. AND TECHNOLOGY, KINKI UNIV.
exact mass=202.09938
ionization energy=70 eV
ion type=[M]+*
computed spectral entropy=3.550113001314616
computed normalized entropy=0.8504512810579197
SPLASH=splash10-0f89-4910000000-230ad510949cc810c5c5
submitter=submitter = University of Tokyo Team (Faculty of Engineering, University of Tokyo)
MoNA Rating=3.75

>  <NUM PEAKS>  (4922) 
65

>  <MASS SPECTRAL PEAKS>  (4922) 
38 2.05
39 24.9
40 4.05
41 10.38
42 2.62
43 6.49
50 6.54
51 20.47
52 7.84
53 12.11
55 4.05
57.5 1.73
58 2.46
62 2.97
63 12.4
64 6.58
64.5 1.68
65 14.96
66 2.95
67 2.87
71 2.46
72 1.67
73 1.89
74 3.46
75 4.8
76 4.22
77 21.84
78 8.38
79 6.42
86 1.83
87 5.1
89 4.97
91 35.1
92 3.87
102 3.88
103 7.47
104 2.43
105 8.08
115 31.42
116 15.98
117 14.58
118 5.98
119 3.96
127 6.89
128 17.1
129 15.56
130 9.14
131 99.99
132 43.8
133 5.61
141 3.76
143 1.92
144 2.05
145 17.17
146 46.44
147 7.99
149 1.95
157 1.85
159 29.04
160 3.95
173 12.11
174 63.62
175 8.65
202 81.55
203 12.92

$$$$

     RDKit          2D

 27 30  0  0  0  0  0  0  0  0999 V2000
   -3.0331    6.0702    0.0000 C   0  0  0  0  0  0  0  0  0  0  0  0
    3.0331    6.0702    0.0000 C   0  0  0  0  0  0  0  0  0  0  0  0
    1.3000   -6.5000    0.0000 C   0  0  0  0  0  0  0  0  0  0  0  0
    2.6000   -5.7500    0.0000 C   0  0  0  0  0  0  0  0  0  0  0  0
   -0.0000   -5.7500    0.0000 C   0  0  0  0  0  0  0  0  0  0  0  0
   -2.6000   -1.2500    0.0000 C   0  0  0  0  0  0  0  0  0  0  0  0
    2.6000   -4.2500    0.0000 C   0  0  0  0  0  0  0  0  0  0  0  0
   -0.0000   -4.2500    0.0000 C   0  0  0  0  0  0  0  0  0  0  0  0
   -1.3000   -2.0000    0.0000 C   0  0  0  0  0  0  0  0  0  0  0  0
   -2.6000    0.2500    0.0000 C   0  0  0  0  0  0  0  0  0  0  0  0
    2.6000   -1.2500    0.0000 C   0  0  0  0  0  0  0  0  0  0  0  0
    1.3000   -3.5000    0.0000 C   0  0  0  0  0  0  0  0  0  0  0  0
    1.3000   -2.0000    0.0000 C   0  0  0  0  0  0  0  0  0  0  0  0
    0.0000   -1.2500    0.0000 C   0  0  0  0  0  0  0  0  0  0  0  0
   -1.3000    1.0000    0.0000 C   0  0  0  0  0  0  0  0  0  0  0  0
    2.6000    0.2500    0.0000 C   0  0  0  0  0  0  0  0  0  0  0  0
   -1.3000    2.5000    0.0000 C   0  0  0  0  0  0  0  0  0  0  0  0
    1.3000    2.5000    0.0000 C   0  0  0  0  0  0  0  0  0  0  0  0
    1.3000    1.0000    0.0000 C   0  0  0  0  0  0  0  0  0  0  0  0
   -2.3607    3.5607    0.0000 C   0  0  0  0  0  0  0  0  0  0  0  0
    2.3607    3.5607    0.0000 C   0  0  0  0  0  0  0  0  0  0  0  0
    0.0000    0.2500    0.0000 N   0  0  0  0  0  0  0  0  0  0  0  0
    3.8989    1.0002    0.0000 O   0  0  0  0  0  0  0  0  0  0  0  0
   -3.8095    3.1724    0.0000 O   0  0  0  0  0  0  0  0  0  0  0  0
    3.8095    3.1724    0.0000 O   0  0  0  0  0  0  0  0  0  0  0  0
   -1.9724    5.0095    0.0000 O   0  0  0  0  0  0  0  0  0  0  0  0
    1.9724    5.0095    0.0000 O   0  0  0  0  0  0  0  0  0  0  0  0
  4  3  2  0
  5  3  1  0
  7  4  1  0
  8  5  2  0
  9  6  1  0
 10  6  2  0
 12  7  2  0
 12  8  1  0
 13 11  2  0
 13 12  1  0
 14  9  2  0
 14 13  1  0
 15 10  1  0
 16 11  1  0
 17 15  2  0
 18 17  1  0
 19 16  1  0
 19 18  2  0
 20 17  1  0
 21 18  1  0
 22 14  1  0
 22 15  1  0
 22 19  1  0
 23 16  2  0
 24 20  2  0
 25 21  2  0
 26  1  1  0
 26 20  1  0
 27  2  1  0
 27 21  1  0
M  END
>  <NAME>  (4923) 
1,2-DIMETHOXYCARBONYL-3-OXO-5-PHENYL-4,5-DEHYDROPIPERIDINO(2,1,6-CD)INDOLIZINE

>  <SYNONYMS>  (4923) 


>  <SPECTRUM TYPE>  (4923) 
MS1

>  <INSTRUMENT TYPE>  (4923) 
EI-B

>  <INSTRUMENT>  (4923) 
JEOL JMS-HX-100

>  <ION MODE>  (4923) 
P

>  <INCHIKEY>  (4923) 
UISUVSVDSFOHCY-UHFFFAOYSA-N

>  <FORMULA>  (4923) 
C21H15NO5

>  <EXACT MASS>  (4923) 
361.09502258

>  <MW>  (4923) 
361

>  <ID>  (4923) 
JP004573

>  <CONTRIBUTOR>  (4923) 
University of Tokyo Team, {Faculty of Engineering, University of Tokyo

>  <COMMENT>  (4923) 
SMILES=COC(=O)c(c(C(=O)OC)1)c(C([H])=4)n(C(=C([H])C([H])4)2)c(C(=O)C([H])=C(c(c3)cccc3)2)1
InChI=InChI=1S/C21H15NO5/c1-26-20(24)17-15-10-6-9-14-13(12-7-4-3-5-8-12)11-16(23)19(22(14)15)18(17)21(25)27-2/h3-11H,1-2H3
computed SMILES=O=C(OC)C1=C2C=CC=C3C(=CC(=O)C(=C1C(=O)OC)N32)C=4C=CC=CC4
accession=JP004573
date=2016.01.19 (Created 2008.10.21, modified 2011.05.06)
author=HAYASHI A, DEPT. OF CHEMISTRY, FAC. OF SCI. AND TECHNOLOGY, KINKI UNIV.
license=CC BY-NC-SA
exact mass=361.09502
ionization energy=70 eV
ion type=[M]+*
computed spectral entropy=3.184666113945979
computed normalized entropy=0.8226558385814993
SPLASH=splash10-01ot-1193000000-b663d8b2dc49c176ca01
submitter=submitter = University of Tokyo Team (Faculty of Engineering, University of Tokyo)
MoNA Rating=3.75

>  <NUM PEAKS>  (4923) 
48

>  <MASS SPECTRAL PEAKS>  (4923) 
41 2.13
43 2.47
44 10.95
51 2.22
57 2.17
63 2.08
77 2.37
78 4.68
94 2.57
95 2.43
108 10.55
122 4.51
123 2.1
135 6.18
136 5.96
151 2.85
163 2.12
165 3.19
187 3.59
188 3.49
189 4.8
190 3.02
213 2.42
214 8.93
215 15.4
216 15.49
217 17.24
218 3.03
228 4.14
229 6.98
230 2.96
243 4.31
244 6.02
245 99.99
246 21.01
247 2.26
257 2.97
258 2.64
259 5.87
272 9.52
273 23.51
274 5.08
302 3.22
330 17.06
331 7.87
361 48.76
362 12.18
363 2.15

$$$$

     RDKit          2D

 18 20  0  0  0  0  0  0  0  0999 V2000
   -3.9427    1.3596    0.0000 C   0  0  0  0  0  0  0  0  0  0  0  0
   -4.9072   -0.3103    0.0000 C   0  0  0  0  0  0  0  0  0  0  0  0
    3.0589   -2.3002    0.0000 C   0  0  0  0  0  0  0  0  0  0  0  0
    1.7600    2.9500    0.0000 C   0  0  0  0  0  0  0  0  0  0  0  0
    3.0600    2.2000    0.0000 C   0  0  0  0  0  0  0  0  0  0  0  0
    0.4600    2.2000    0.0000 C   0  0  0  0  0  0  0  0  0  0  0  0
    3.0600    0.7000    0.0000 C   0  0  0  0  0  0  0  0  0  0  0  0
   -2.1300   -2.3000    0.0000 C   0  0  0  0  0  0  0  0  0  0  0  0
   -3.4300   -1.5500    0.0000 C   0  0  0  0  0  0  0  0  0  0  0  0
    0.4600    0.7000    0.0000 C   0  0  0  0  0  0  0  0  0  0  0  0
   -0.8300   -1.5500    0.0000 C   0  0  0  0  0  0  0  0  0  0  0  0
    1.7600   -0.0500    0.0000 C   0  0  0  0  0  0  0  0  0  0  0  0
   -0.8300   -0.0500    0.0000 C   0  0  0  0  0  0  0  0  0  0  0  0
    0.4600   -2.3000    0.0000 C   0  0  0  0  0  0  0  0  0  0  0  0
   -3.4300   -0.0500    0.0000 C   0  0  0  0  0  0  0  0  0  0  0  0
    1.7600   -1.5500    0.0000 N   0  0  0  0  0  0  0  0  0  0  0  0
    0.4575   -3.8000    0.0000 O   0  0  0  0  0  0  0  0  0  0  0  0
   -2.1300    0.7000    0.0000 O   0  0  0  0  0  0  0  0  0  0  0  0
  5  4  2  0
  6  4  1  0
  7  5  1  0
  9  8  2  0
 10  6  2  0
 11  8  1  0
 12  7  2  0
 12 10  1  0
 13 10  1  0
 13 11  2  0
 14 11  1  0
 15  1  1  0
 15  2  1  0
 15  9  1  0
 16  3  1  0
 16 12  1  0
 16 14  1  0
 17 14  2  0
 18 13  1  0
 18 15  1  0
M  END
>  <NAME>  (4924) 
N-METHYLFLINDERSINE

>  <SYNONYMS>  (4924) 
2,2,6-TRIMETHYL-2H-PYRANO(3,2-C)QUINOLIN-5(6H)-ONE

>  <SPECTRUM TYPE>  (4924) 
MS1

>  <INSTRUMENT TYPE>  (4924) 
EI-B

>  <INSTRUMENT>  (4924) 
JEOL JMS-HX-100

>  <ION MODE>  (4924) 
P

>  <INCHIKEY>  (4924) 
RJZFGBNKPOVCHQ-UHFFFAOYSA-N

>  <FORMULA>  (4924) 
C15H15NO2

>  <EXACT MASS>  (4924) 
241.11027872

>  <MW>  (4924) 
241

>  <ID>  (4924) 
JP004572

>  <CONTRIBUTOR>  (4924) 
University of Tokyo Team, {Faculty of Engineering, University of Tokyo

>  <COMMENT>  (4924) 
SMILES=CC(C)(C=3)OC(=C(C3)1)c(c2)c(ccc2)N(C)C(=O)1
InChI=InChI=1S/C15H15NO2/c1-15(2)9-8-11-13(18-15)10-6-4-5-7-12(10)16(3)14(11)17/h4-9H,1-3H3
computed SMILES=O=C1C=2C=CC(OC2C=3C=CC=CC3N1C)(C)C
accession=JP004572
date=2016.01.19 (Created 2008.10.21, modified 2011.05.06)
author=HAYASHI A, DEPT. OF CHEMISTRY, FAC. OF SCI. AND TECHNOLOGY, KINKI UNIV.
license=CC BY-NC-SA
exact mass=241.11028
ionization energy=70 eV
ion type=[M]+*
computed spectral entropy=2.074992859267255
computed normalized entropy=0.6100771658989141
SPLASH=splash10-004i-1090000000-eae38f6a791f6e36dddb
submitter=submitter = University of Tokyo Team (Faculty of Engineering, University of Tokyo)
MoNA Rating=3.75

>  <NUM PEAKS>  (4924) 
30

>  <MASS SPECTRAL PEAKS>  (4924) 
39 2.36
43 2.01
51 2.39
63 1.96
64 1.35
65 1.22
76 1.43
77 6.72
78 2.52
79 1.72
91 1.25
92 1.22
128 1.37
132 1.86
134 1.39
154 1.9
183 2.34
184 1.21
198 2.01
200 2.26
211 1.21
212 1.23
224 2.15
225 1.45
226 99.99
227 17.95
228 1.87
240 4.01
241 20.76
242 3.7

$$$$

     RDKit          2D

 12 13  0  0  0  0  0  0  0  0999 V2000
   -2.3100    0.7500    0.0000 C   0  0  0  0  0  0  0  0  0  0  0  0
   -2.3100   -0.7500    0.0000 C   0  0  0  0  0  0  0  0  0  0  0  0
   -1.0000    1.5000    0.0000 C   0  0  0  0  0  0  0  0  0  0  0  0
   -1.0000   -1.5000    0.0000 C   0  0  0  0  0  0  0  0  0  0  0  0
    0.3000    0.7500    0.0000 C   0  0  0  0  0  0  0  0  0  0  0  0
    0.2900   -0.7500    0.0000 C   0  0  0  0  0  0  0  0  0  0  0  0
    1.7200    1.2100    0.0000 C   0  0  0  0  0  0  0  0  0  0  0  0
    2.6000   -0.0000    0.0000 N   0  0  0  0  0  0  0  0  0  0  0  0
    2.1838    2.6365    0.0000 O   0  0  0  0  0  0  0  0  0  0  0  0
    1.0980   -2.5795    0.0000 O   0  0  0  0  0  0  0  0  0  0  0  0
    3.0063   -1.9647    0.0000 O   0  0  0  0  0  0  0  0  0  0  0  0
    1.7100   -1.2100    0.0000 S   0  0  0  0  0  0  0  0  0  0  0  0
  2  1  2  0
  3  1  1  0
  4  2  1  0
  5  3  2  0
  6  4  2  0
  6  5  1  0
  7  5  1  0
  8  7  2  0
  9  7  1  0
 12  6  1  0
 12  8  1  0
 12 10  2  0
 12 11  2  0
M  END
>  <NAME>  (4925) 
SACCHARIN

>  <SYNONYMS>  (4925) 
2,3-DIHYDRO-3-OXOBENZISOSULFONAZOLE

>  <SPECTRUM TYPE>  (4925) 
MS1

>  <INSTRUMENT TYPE>  (4925) 
EI-B

>  <INSTRUMENT>  (4925) 
JEOL JMS-HX-100

>  <ION MODE>  (4925) 
P

>  <INCHIKEY>  (4925) 
CVHZOJJKTDOEJC-UHFFFAOYSA-N

>  <FORMULA>  (4925) 
C7H5NO3S

>  <EXACT MASS>  (4925) 
182.99901401999998

>  <MW>  (4925) 
183

>  <ID>  (4925) 
JP004570

>  <CONTRIBUTOR>  (4925) 
University of Tokyo Team, {Faculty of Engineering, University of Tokyo

>  <COMMENT>  (4925) 
SMILES=C1=CC=C2C(=C1)C(=O)NS2(=O)=O
cas=81-07-2
InChI=InChI=1S/C7H5NO3S/c9-7-5-3-1-2-4-6(5)12(10,11)8-7/h1-4H,(H,8,9)
computed SMILES=O=S1(=O)N=C(O)C=2C=CC=CC21
accession=JP004570
date=2016.01.19 (Created 2008.10.21, modified 2011.05.06)
author=HAYASHI A, DEPT. OF CHEMISTRY, FAC. OF SCI. AND TECHNOLOGY, KINKI UNIV.
license=CC BY-NC-SA
exact mass=182.99901
ionization energy=70 eV
ion type=[M]+*
computed spectral entropy=3.3401708800104553
computed normalized entropy=0.841291006489769
SPLASH=splash10-0fiv-9200000000-3cbd853d90d67ac630ab
submitter=submitter = University of Tokyo Team (Faculty of Engineering, University of Tokyo)
MoNA Rating=3.75

>  <NUM PEAKS>  (4925) 
53

>  <MASS SPECTRAL PEAKS>  (4925) 
37 12.59
38 24.24
39 15.98
40 1.89
41 2.85
42 3.41
43 44.53
44 7.38
45 4.19
48 61.29
49 9.27
50 87.65
51 11.26
52 11.44
53 5.59
57 1.57
58 1.24
61 5.44
62 8.27
63 30.93
64 23.79
65 10.33
66 1.45
69 8.12
70 2.88
73 8.41
74 44.92
75 28.55
76 99.99
77 10.3
78 1.71
79 5.35
81 1.88
82 1.28
84 4.35
90 3.47
91 10.13
92 46.12
93 4.09
95 1.93
96 2.21
103 16.92
104 24.1
105 2.18
112 1.99
119 42.54
120 39.73
121 5.02
122 1.65
140 6.35
183 59.39
184 15.72
185 4.56

$$$$

     RDKit          2D

 11 10  0  0  0  0  0  0  0  0999 V2000
    2.5981    4.5000    0.0000 C   0  0  0  0  0  0  0  0  0  0  0  0
   -3.8971    6.7500    0.0000 C   0  0  0  0  0  0  0  0  0  0  0  0
   -7.7942    4.5000    0.0000 C   0  0  0  0  0  0  0  0  0  0  0  0
    1.2990    5.2500    0.0000 C   0  0  0  0  0  0  0  0  0  0  0  0
   -5.1962    4.5000    0.0000 C   0  0  0  0  0  0  0  0  0  0  0  0
   -2.5981    4.5000    0.0000 C   0  0  0  0  0  0  0  0  0  0  0  0
   -3.8971    5.2500    0.0000 C   0  0  0  0  0  0  0  0  0  0  0  0
    0.0000    4.5000    0.0000 C   0  0  0  0  0  0  0  0  0  0  0  0
    0.0000    3.0000    0.0000 O   0  0  0  0  0  0  0  0  0  0  0  0
   -6.4952    5.2500    0.0000 O   0  0  0  0  0  0  0  0  0  0  0  0
   -1.2990    5.2500    0.0000 O   0  0  0  0  0  0  0  0  0  0  0  0
  4  1  2  0
  7  2  1  0
  7  5  1  0
  7  6  1  0
  8  4  1  0
  9  8  2  0
 10  3  1  0
 10  5  1  0
 11  6  1  0
 11  8  1  0
M  END
>  <NAME>  (4926) 
2-METHYL-3-METHOXYPROPYL 2-PROPENOATE

>  <SYNONYMS>  (4926) 


>  <SPECTRUM TYPE>  (4926) 
MS1

>  <INSTRUMENT TYPE>  (4926) 
EI-B

>  <INSTRUMENT>  (4926) 
JEOL JMS-HX-100

>  <ION MODE>  (4926) 
P

>  <INCHIKEY>  (4926) 
RCQZQQQKVUVYAW-UHFFFAOYSA-N

>  <FORMULA>  (4926) 
C8H14O3

>  <EXACT MASS>  (4926) 
158.094294308

>  <MW>  (4926) 
158

>  <ID>  (4926) 
JP004569

>  <CONTRIBUTOR>  (4926) 
University of Tokyo Team, {Faculty of Engineering, University of Tokyo

>  <COMMENT>  (4926) 
SMILES=COCC(C)COC(=O)C=C
InChI=InChI=1S/C8H14O3/c1-4-8(9)11-6-7(2)5-10-3/h4,7H,1,5-6H2,2-3H3
computed SMILES=O=C(OCC(C)COC)C=C
accession=JP004569
date=2016.01.19 (Created 2008.10.21, modified 2011.05.06)
author=HAYASHI A, DEPT. OF CHEMISTRY, FAC. OF SCI. AND TECHNOLOGY, KINKI UNIV.
license=CC BY-NC-SA
exact mass=158.09429
ionization energy=70 eV
ion type=[M]+*
computed spectral entropy=2.4375255426101914
computed normalized entropy=0.6263201679156523
SPLASH=splash10-0bt9-9300000000-46f7bc84532b76603a85
submitter=submitter = University of Tokyo Team (Faculty of Engineering, University of Tokyo)
MoNA Rating=3.75

>  <NUM PEAKS>  (4926) 
49

>  <MASS SPECTRAL PEAKS>  (4926) 
38 0.15
39 2.36
41 14.18
42 3.51
43 5.15
44 0.24
45 20.24
46 0.56
53 0.52
54 0.65
55 99.99
56 4.93
57 2.32
58 7.96
59 24.97
60 1.04
67 0.18
68 1.42
69 1.02
70 0.48
71 1.48
72 2.38
73 37.79
74 2.04
75 0.25
84 0.43
85 0.7
86 0.68
87 1.9
89 6.12
90 0.29
95 0.14
99 1.42
100 0.48
101 0.49
103 2.69
104 0.21
112 0.39
113 81.5
114 7.04
115 0.78
116 3.18
117 3.06
118 0.24
130 1.89
131 0.21
143 0.36
157 4.07
158 0.45

$$$$

     RDKit          2D

 12 12  0  0  0  0  0  0  0  0999 V2000
   -4.1871    1.6701    0.0000 C   0  0  0  0  0  0  0  0  0  0  0  0
   -0.2905   -0.5808    0.0000 C   0  0  0  0  0  0  0  0  0  0  0  0
    1.0085   -1.3308    0.0000 C   0  0  0  0  0  0  0  0  0  0  0  0
    1.0095    1.6709    0.0000 C   0  0  0  0  0  0  0  0  0  0  0  0
   -0.2900    0.9201    0.0000 C   0  0  0  0  0  0  0  0  0  0  0  0
    2.3080   -0.5799    0.0000 C   0  0  0  0  0  0  0  0  0  0  0  0
    2.3085    0.9209    0.0000 C   0  0  0  0  0  0  0  0  0  0  0  0
   -1.5891    1.6701    0.0000 C   0  0  0  0  0  0  0  0  0  0  0  0
    3.6071   -1.3299    0.0000 O   0  0  0  0  0  0  0  0  0  0  0  0
    3.6077    1.6707    0.0000 O   0  0  0  0  0  0  0  0  0  0  0  0
   -1.5891    3.1701    0.0000 O   0  0  0  0  0  0  0  0  0  0  0  0
   -2.8881    0.9201    0.0000 O   0  0  0  0  0  0  0  0  0  0  0  0
  3  2  2  0
  5  2  1  0
  5  4  2  0
  6  3  1  0
  7  4  1  0
  7  6  2  0
  8  5  1  0
  9  6  1  0
 10  7  1  0
 11  8  2  0
 12  1  1  0
 12  8  1  0
M  END
>  <NAME>  (4927) 
PROTOCATECHUIC ACID METHYLESTER

>  <SYNONYMS>  (4927) 
METHYL 3,4-DIHYDROXYBENZOATE

>  <SPECTRUM TYPE>  (4927) 
MS1

>  <INSTRUMENT TYPE>  (4927) 
EI-B

>  <INSTRUMENT>  (4927) 
SHIMADZU LKB-9000B

>  <ION MODE>  (4927) 
P

>  <INCHIKEY>  (4927) 
CUFLZUDASVUNOE-UHFFFAOYSA-N

>  <FORMULA>  (4927) 
C8H8O4

>  <EXACT MASS>  (4927) 
168.042258736

>  <MW>  (4927) 
168

>  <ID>  (4927) 
JP004568

>  <CONTRIBUTOR>  (4927) 
University of Tokyo Team, {Faculty of Engineering, University of Tokyo

>  <COMMENT>  (4927) 
SMILES=COC(=O)c(c1)cc(O)c(O)c1
cas=2150-43-8
InChI=InChI=1S/C8H8O4/c1-12-8(11)5-2-3-6(9)7(10)4-5/h2-4,9-10H,1H3
computed SMILES=O=C(OC)C1=CC=C(O)C(O)=C1
accession=JP004568
date=2016.01.19 (Created 2008.10.21, modified 2011.05.06)
author=HAYASHI A, DEPT. OF CHEMISTRY, FAC. OF SCI. AND TECHNOLOGY, KINKI UNIV.
license=CC BY-NC-SA
exact mass=168.04226
ionization energy=70 eV
ion type=[M]+*
computed spectral entropy=2.1888813017493893
computed normalized entropy=0.6017400566297608
SPLASH=splash10-000i-2900000000-934d0a8a65603862a0cb
submitter=submitter = University of Tokyo Team (Faculty of Engineering, University of Tokyo)
MoNA Rating=3.75

>  <NUM PEAKS>  (4927) 
38

>  <MASS SPECTRAL PEAKS>  (4927) 
37 0.5
38 1
39 1.9
41 0.05
49 0.7
50 3.6
51 7.2
52 0.55
53 5.2
54 0.8
55 3.9
59 0.07
61 0.8
62 2.1
63 4.1
64 0.05
66 0.5
77 0.9
79 4.4
80 0.19
81 8.9
82 0.7
91 1.9
107 0.22
108 3.2
109 19.7
110 2.3
111 0.13
123 2.3
136 2.1
137 99.99
138 0.94
139 1.9
151 1.5
166 1.9
167 0.24
168 37.2
169 3.4

$$$$

     RDKit          2D

 13 13  0  0  0  0  0  0  0  0999 V2000
   -3.8978    3.7551    0.0000 C   0  0  0  0  0  0  0  0  0  0  0  0
    3.8927    3.7232    0.0000 C   0  0  0  0  0  0  0  0  0  0  0  0
    2.5791    1.4983    0.0000 C   0  0  0  0  0  0  0  0  0  0  0  0
    1.2983    3.7296    0.0000 C   0  0  0  0  0  0  0  0  0  0  0  0
    5.1772    2.9983    0.0000 C   0  0  0  0  0  0  0  0  0  0  0  0
    3.9037    0.7042    0.0000 C   0  0  0  0  0  0  0  0  0  0  0  0
   -0.0044    2.9860    0.0000 C   0  0  0  0  0  0  0  0  0  0  0  0
    2.5937    2.9732    0.0000 C   0  0  0  0  0  0  0  0  0  0  0  0
    5.2027    1.4542    0.0000 C   0  0  0  0  0  0  0  0  0  0  0  0
   -1.2997    3.7423    0.0000 C   0  0  0  0  0  0  0  0  0  0  0  0
    6.5079    0.7149    0.0000 O   0  0  0  0  0  0  0  0  0  0  0  0
   -1.2923    5.2423    0.0000 O   0  0  0  0  0  0  0  0  0  0  0  0
   -2.6024    2.9987    0.0000 O   0  0  0  0  0  0  0  0  0  0  0  0
  5  2  2  0
  6  3  1  0
  4  7  2  0
  8  2  1  0
  8  3  2  0
  8  4  1  0
  9  5  1  0
  9  6  2  0
 10  7  1  0
 11  9  1  0
 12 10  2  0
 13  1  1  0
 13 10  1  0
M  END
>  <NAME>  (4928) 
METHYL 3-(4-HYDROXYPHENYL)-2-PROPENOATE

>  <SYNONYMS>  (4928) 
METHYL COUMARATE

>  <SPECTRUM TYPE>  (4928) 
MS1

>  <INSTRUMENT TYPE>  (4928) 
EI-B

>  <INSTRUMENT>  (4928) 
SHIMADZU LKB-9000B

>  <ION MODE>  (4928) 
P

>  <INCHIKEY>  (4928) 
NITWSHWHQAQBAW-QPJJXVBHSA-N

>  <FORMULA>  (4928) 
C10H10O3

>  <EXACT MASS>  (4928) 
178.06299417999998

>  <MW>  (4928) 
178

>  <ID>  (4928) 
JP004567

>  <CONTRIBUTOR>  (4928) 
University of Tokyo Team, {Faculty of Engineering, University of Tokyo

>  <COMMENT>  (4928) 
SMILES=COC(=O)C=Cc(c1)ccc(O)c1
cas=3943-97-3
InChI=InChI=1S/C10H10O3/c1-13-10(12)7-4-8-2-5-9(11)6-3-8/h2-7,11H,1H3/b7-4+
computed SMILES=O=C(OC)C=CC1=CC=C(O)C=C1
accession=JP004567
date=2016.01.19 (Created 2008.10.21, modified 2011.05.06)
author=HAYASHI A, DEPT. OF CHEMISTRY, FAC. OF SCI. AND TECHNOLOGY, KINKI UNIV.
license=CC BY-NC-SA
exact mass=178.06299
ionization energy=70 eV
ion type=[M]+*
computed spectral entropy=2.624259361107744
computed normalized entropy=0.6333994751344583
SPLASH=splash10-00mk-2900000000-f22d0087108aa992862d
submitter=submitter = University of Tokyo Team (Faculty of Engineering, University of Tokyo)
MoNA Rating=3.75

>  <NUM PEAKS>  (4928) 
63

>  <MASS SPECTRAL PEAKS>  (4928) 
37 0.5
38 1.5
39 7.3
41 0.09
43 0.9
45 0.7
46 1.4
50 0.17
51 3.5
52 0.9
53 2.1
59 0.45
60 2.1
61 0.8
62 2.8
63 0.78
64 3.5
65 15
66 1.7
74 0.17
75 2.1
77 1.5
78 0.7
79 0.09
86 0.5
87 0.6
88 0.5
89 0.77
90 3.2
91 19.3
92 2.5
94 0.06
101 1.7
102 0.7
103 0.7
105 0.07
106 0.8
107 2.5
108 0.5
117 0.14
118 11.1
119 30.9
120 9.4
121 0.2
122 0.8
131 0.6
132 1
133 0.15
134 1
135 0.9
137 1.2
145 0.05
146 2.2
147 99.99
148 9.1
149 0.06
150 0.5
160 0.5
161 0.6
177 0.26
178 55.4
179 7.7
180 1.2

$$$$

     RDKit          2D

 11 11  0  0  0  0  0  0  0  0999 V2000
   -3.2538    2.6270    0.0000 C   0  0  0  0  0  0  0  0  0  0  0  0
    1.9386    2.6078    0.0000 C   0  0  0  0  0  0  0  0  0  0  0  0
    0.6251    0.3829    0.0000 C   0  0  0  0  0  0  0  0  0  0  0  0
    3.2231    1.8829    0.0000 C   0  0  0  0  0  0  0  0  0  0  0  0
    1.9496   -0.4112    0.0000 C   0  0  0  0  0  0  0  0  0  0  0  0
    0.6396    1.8578    0.0000 C   0  0  0  0  0  0  0  0  0  0  0  0
    3.2486    0.3388    0.0000 C   0  0  0  0  0  0  0  0  0  0  0  0
   -0.6558    2.6142    0.0000 C   0  0  0  0  0  0  0  0  0  0  0  0
    4.5538   -0.4005    0.0000 O   0  0  0  0  0  0  0  0  0  0  0  0
   -0.6484    4.1141    0.0000 O   0  0  0  0  0  0  0  0  0  0  0  0
   -1.9585    1.8706    0.0000 O   0  0  0  0  0  0  0  0  0  0  0  0
  4  2  2  0
  5  3  1  0
  6  2  1  0
  6  3  2  0
  7  4  1  0
  7  5  2  0
  8  6  1  0
  9  7  1  0
 10  8  2  0
 11  1  1  0
 11  8  1  0
M  END
>  <NAME>  (4929) 
4-HYDROXYBENZOIC ACID METHYL ESTER

>  <SYNONYMS>  (4929) 
METHYL PARA-HYDROXYBENZOATE

>  <SPECTRUM TYPE>  (4929) 
MS1

>  <INSTRUMENT TYPE>  (4929) 
EI-B

>  <INSTRUMENT>  (4929) 
SHIMADZU LKB-9000B

>  <ION MODE>  (4929) 
P

>  <INCHIKEY>  (4929) 
LXCFILQKKLGQFO-UHFFFAOYSA-N

>  <FORMULA>  (4929) 
C8H8O3

>  <EXACT MASS>  (4929) 
152.04734411599998

>  <MW>  (4929) 
152

>  <ID>  (4929) 
JP004566

>  <CONTRIBUTOR>  (4929) 
University of Tokyo Team, {Faculty of Engineering, University of Tokyo

>  <COMMENT>  (4929) 
computed SMILES=O=C(OC)C1=CC=C(O)C=C1
SMILES=COC(=O)c(c1)ccc(O)c1
cas=99-76-3
InChI=InChI=1S/C8H8O3/c1-11-8(10)6-2-4-7(9)5-3-6/h2-5,9H,1H3
accession=JP004566
date=2016.01.19 (Created 2008.10.21, modified 2011.05.06)
author=HAYASHI A, DEPT. OF CHEMISTRY, FAC. OF SCI. AND TECHNOLOGY, KINKI UNIV.
license=CC BY-NC-SA
exact mass=152.04734
ionization energy=70 eV
ion type=[M]+*
computed spectral entropy=1.896161791160332
computed normalized entropy=0.5690412414274758
SPLASH=splash10-00di-4900000000-c5ef5603a5b5d1102f5a
submitter=submitter = University of Tokyo Team (Faculty of Engineering, University of Tokyo)
MoNA Rating=3.75

>  <NUM PEAKS>  (4929) 
28

>  <MASS SPECTRAL PEAKS>  (4929) 
37 0.9
38 2.6
39 11.9
50 0.15
51 1.1
52 0.6
53 2.8
61 0.11
62 2.8
63 5.9
64 3.5
65 1.73
66 1.9
74 1
75 0.8
92 0.31
93 28.4
94 2.2
95 0.7
107 0.05
108 0.5
120 0.9
121 99.99
122 0.79
123 1.3
151 1.8
152 34.3
153 3.8

$$$$

     RDKit          2D

 12 12  0  0  0  0  0  0  0  0999 V2000
   -3.5795   -0.5686    0.0000 C   0  0  0  0  0  0  0  0  0  0  0  0
    5.5143    0.1860    0.0000 C   0  0  0  0  0  0  0  0  0  0  0  0
    1.6127    2.4238    0.0000 C   0  0  0  0  0  0  0  0  0  0  0  0
    0.3182    1.6816    0.0000 C   0  0  0  0  0  0  0  0  0  0  0  0
    2.9117    1.6738    0.0000 C   0  0  0  0  0  0  0  0  0  0  0  0
   -0.9815   -0.5690    0.0000 C   0  0  0  0  0  0  0  0  0  0  0  0
    1.6167   -0.5692    0.0000 C   0  0  0  0  0  0  0  0  0  0  0  0
   -2.2804    0.1812    0.0000 C   0  0  0  0  0  0  0  0  0  0  0  0
    0.3177    0.1808    0.0000 C   0  0  0  0  0  0  0  0  0  0  0  0
    2.9163    0.1816    0.0000 C   0  0  0  0  0  0  0  0  0  0  0  0
   -2.2801    1.6812    0.0000 O   0  0  0  0  0  0  0  0  0  0  0  0
    4.2165   -0.5662    0.0000 O   0  0  0  0  0  0  0  0  0  0  0  0
  4  3  2  0
  5  3  1  0
  8  1  1  0
  8  6  1  0
  9  4  1  0
  9  6  1  0
  9  7  2  0
 10  5  2  0
 10  7  1  0
 11  8  1  0
 12  2  1  0
 12 10  1  0
M  END
>  <NAME>  (4930) 
1-META-METHOXYPHENYL-2-PROPANOL

>  <SYNONYMS>  (4930) 


>  <SPECTRUM TYPE>  (4930) 
MS1

>  <INSTRUMENT TYPE>  (4930) 
EI-B

>  <INSTRUMENT>  (4930) 
JEOL JMS-HX-100

>  <ION MODE>  (4930) 
P

>  <INCHIKEY>  (4930) 
JNKFBLWILRREOG-UHFFFAOYSA-N

>  <FORMULA>  (4930) 
C10H14O2

>  <EXACT MASS>  (4930) 
166.099379688

>  <MW>  (4930) 
166

>  <ID>  (4930) 
JP004565

>  <CONTRIBUTOR>  (4930) 
University of Tokyo Team, {Faculty of Engineering, University of Tokyo

>  <COMMENT>  (4930) 
SMILES=COc(c1)cc(cc1)CC(C)O
InChI=InChI=1S/C10H14O2/c1-8(11)6-9-4-3-5-10(7-9)12-2/h3-5,7-8,11H,6H2,1-2H3
computed SMILES=OC(C)CC=1C=CC=C(OC)C1
accession=JP004565
date=2016.01.19 (Created 2008.10.21, modified 2011.05.06)
author=HAYASHI A, DEPT. OF CHEMISTRY, FAC. OF SCI. AND TECHNOLOGY, KINKI UNIV.
license=CC BY-NC-SA
exact mass=166.09938
ionization energy=70 eV
ion type=[M]+*
computed spectral entropy=3.1609247084706964
computed normalized entropy=0.719299415516007
SPLASH=splash10-00di-6900000000-2617644f3b519601ea70
submitter=submitter = University of Tokyo Team (Faculty of Engineering, University of Tokyo)
MoNA Rating=3.75

>  <NUM PEAKS>  (4930) 
81

>  <MASS SPECTRAL PEAKS>  (4930) 
37 0.25
38 1.17
39 5.63
40 0.08
41 2.39
42 0.35
43 7.44
44 0.11
45 20.61
46 0.62
50 2.24
51 4.65
52 2.79
53 1.62
54 0.22
55 1.08
57 0.4
58 0.25
59 0.32
61 0.26
62 1.04
63 3.71
64 1.99
65 6.17
66 1.34
67 1.33
68 0.35
69 0.12
74 0.68
75 0.74
77 12.42
78 8.95
79 9.71
80 0.94
81 0.31
89 4.34
90 20.59
91 23.98
92 8.89
93 2.4
94 1.96
95 1.23
102 0.34
103 0.96
104 0.44
105 2.76
106 1.58
107 28.06
108 4.88
109 6.37
110 0.56
115 1.23
116 0.42
117 0.69
118 0.33
119 0.6
120 0.52
121 26.21
122 99.99
123 12.73
124 1.02
131 0.29
132 0.27
133 0.66
134 0.35
135 0.62
136 0.4
137 2.32
138 7.84
139 0.79
147 0.48
148 0.48
149 0.54
150 0.28
151 3.99
152 0.44
164 0.97
165 0.92
166 28.44
167 3.54
168 0.31

$$$$

     RDKit          2D

 13 13  0  0  0  0  0  0  0  0999 V2000
    4.9065    0.9204    0.0000 C   0  0  0  0  0  0  0  0  0  0  0  0
   -4.1872    1.6700    0.0000 C   0  0  0  0  0  0  0  0  0  0  0  0
   -0.2906   -0.5808    0.0000 C   0  0  0  0  0  0  0  0  0  0  0  0
    1.0084   -1.3308    0.0000 C   0  0  0  0  0  0  0  0  0  0  0  0
    1.0094    1.6708    0.0000 C   0  0  0  0  0  0  0  0  0  0  0  0
   -0.2901    0.9200    0.0000 C   0  0  0  0  0  0  0  0  0  0  0  0
    2.3080   -0.5800    0.0000 C   0  0  0  0  0  0  0  0  0  0  0  0
    2.3084    0.9208    0.0000 C   0  0  0  0  0  0  0  0  0  0  0  0
   -1.5892    1.6700    0.0000 C   0  0  0  0  0  0  0  0  0  0  0  0
    3.6070   -1.3300    0.0000 O   0  0  0  0  0  0  0  0  0  0  0  0
   -1.5892    3.1700    0.0000 O   0  0  0  0  0  0  0  0  0  0  0  0
    3.6076    1.6706    0.0000 O   0  0  0  0  0  0  0  0  0  0  0  0
   -2.8882    0.9200    0.0000 O   0  0  0  0  0  0  0  0  0  0  0  0
  4  3  2  0
  6  3  1  0
  6  5  2  0
  7  4  1  0
  8  5  1  0
  8  7  2  0
  9  6  1  0
 10  7  1  0
 11  9  2  0
 12  1  1  0
 12  8  1  0
 13  2  1  0
 13  9  1  0
M  END
>  <NAME>  (4931) 
METHYL 4-HYDROXY-3-METHOXYBENZOATE

>  <SYNONYMS>  (4931) 


>  <SPECTRUM TYPE>  (4931) 
MS1

>  <INSTRUMENT TYPE>  (4931) 
EI-B

>  <INSTRUMENT>  (4931) 
SHIMADZU LKB-9000B

>  <ION MODE>  (4931) 
P

>  <INCHIKEY>  (4931) 
BVWTXUYLKBHMOX-UHFFFAOYSA-N

>  <FORMULA>  (4931) 
C9H10O4

>  <EXACT MASS>  (4931) 
182.0579088

>  <MW>  (4931) 
182

>  <ID>  (4931) 
JP004564

>  <CONTRIBUTOR>  (4931) 
University of Tokyo Team, {Faculty of Engineering, University of Tokyo

>  <COMMENT>  (4931) 
SMILES=COC(=O)c(c1)cc(OC)c(O)c1
cas=3943-74-6
InChI=InChI=1S/C9H10O4/c1-12-8-5-6(9(11)13-2)3-4-7(8)10/h3-5,10H,1-2H3
computed SMILES=O=C(OC)C1=CC=C(O)C(OC)=C1
accession=JP004564
date=2016.01.19 (Created 2008.10.21, modified 2011.05.06)
author=HAYASHI A, DEPT. OF CHEMISTRY, FAC. OF SCI. AND TECHNOLOGY, KINKI UNIV.
license=CC BY-NC-SA
exact mass=182.05791
ionization energy=70 eV
ion type=[M]+*
computed spectral entropy=2.6185924592724485
computed normalized entropy=0.6564559869643628
SPLASH=splash10-0udi-3900000000-baea5cfe4e199a5ff3bc
submitter=submitter = University of Tokyo Team (Faculty of Engineering, University of Tokyo)
MoNA Rating=3.75

>  <NUM PEAKS>  (4931) 
54

>  <MASS SPECTRAL PEAKS>  (4931) 
37 0.6
38 1.5
39 2
41 0.12
44 1.5
50 4.1
51 8.5
52 1.15
53 4.8
54 0.5
55 1.5
59 0.19
61 0.6
62 2
63 4.1
64 0.16
65 7
66 1.3
67 1.5
74 0.07
77 3.6
79 5.3
80 5
81 0.09
91 0.9
92 2
93 2.4
94 0.07
95 0.6
100 0.7
107 1.4
108 1.09
109 1.3
111 4.7
120 1.5
121 0.11
122 1.6
123 18.4
124 1.9
125 0.12
135 0.5
136 4.4
137 0.5
139 0.35
149 1.1
151 99.99
152 9
153 0.14
167 5.6
168 0.6
181 1.3
182 6.95
183 7.7
184 0.6

$$$$

     RDKit          2D

 20 21  0  0  0  0  0  0  0  0999 V2000
    1.4751    0.3865    0.0000 C   0  0  0  0  0  0  0  0  0  0  0  0
    2.7701    2.6296    0.0000 C   0  0  0  0  0  0  0  0  0  0  0  0
   -2.3052    4.3383    0.0000 C   0  0  0  0  0  0  0  0  0  0  0  0
   -2.7549    1.7877    0.0000 C   0  0  0  0  0  0  0  0  0  0  0  0
    2.7741   -0.3635    0.0000 C   0  0  0  0  0  0  0  0  0  0  0  0
    4.0691    1.8796    0.0000 C   0  0  0  0  0  0  0  0  0  0  0  0
   -3.7824    4.5988    0.0000 C   0  0  0  0  0  0  0  0  0  0  0  0
   -4.2321    2.0482    0.0000 C   0  0  0  0  0  0  0  0  0  0  0  0
    1.4656    1.8701    0.0000 C   0  0  0  0  0  0  0  0  0  0  0  0
   -1.7889    2.9475    0.0000 C   0  0  0  0  0  0  0  0  0  0  0  0
    4.0723    0.3651    0.0000 C   0  0  0  0  0  0  0  0  0  0  0  0
   -4.7531    3.4702    0.0000 C   0  0  0  0  0  0  0  0  0  0  0  0
    0.1628    2.6135    0.0000 C   0  0  0  0  0  0  0  0  0  0  0  0
    0.1552    4.1135    0.0000 C   0  0  0  0  0  0  0  0  0  0  0  0
    5.3675   -0.3915    0.0000 Cl  0  0  0  0  0  0  0  0  0  0  0  0
   -6.2290    3.7382    0.0000 Cl  0  0  0  0  0  0  0  0  0  0  0  0
   -0.3432    1.2014    0.0000 Cl  0  0  0  0  0  0  0  0  0  0  0  0
    1.6552    4.1210    0.0000 Cl  0  0  0  0  0  0  0  0  0  0  0  0
    0.1477    5.6135    0.0000 Cl  0  0  0  0  0  0  0  0  0  0  0  0
   -1.3447    4.1060    0.0000 Cl  0  0  0  0  0  0  0  0  0  0  0  0
  5  1  2  0
  6  2  1  0
  7  3  2  0
  8  4  1  0
  9  1  1  0
  9  2  2  0
 10  3  1  0
 10  4  2  0
 11  5  1  0
 11  6  2  0
 12  7  1  0
 12  8  2  0
 13  9  1  0
 13 10  1  0
 14 13  1  0
 15 11  1  0
 16 12  1  0
 17 13  1  0
 18 14  1  0
 19 14  1  0
 20 14  1  0
M  END
>  <NAME>  (4932) 
1,1-BIS(PARA-CHLOROPHENYL)-1-CHLORO-2,2,2-TRICHLOROETHANE

>  <SYNONYMS>  (4932) 


>  <SPECTRUM TYPE>  (4932) 
MS1

>  <INSTRUMENT TYPE>  (4932) 
EI-B

>  <INSTRUMENT>  (4932) 
SHIMADZU LKB-9000B

>  <ION MODE>  (4932) 
P

>  <INCHIKEY>  (4932) 
JOQCINXYMZALAZ-UHFFFAOYSA-N

>  <FORMULA>  (4932) 
C14H8Cl6

>  <EXACT MASS>  (4932) 
385.875716336

>  <MW>  (4932) 
386

>  <ID>  (4932) 
JP004563

>  <CONTRIBUTOR>  (4932) 
University of Tokyo Team, {Faculty of Engineering, University of Tokyo

>  <COMMENT>  (4932) 
SMILES=Clc(c2)ccc(c2)C(Cl)(c(c1)ccc(Cl)c1)C(Cl)(Cl)Cl
InChI=InChI=1S/C14H8Cl6/c15-11-5-1-9(2-6-11)13(17,14(18,19)20)10-3-7-12(16)8-4-10/h1-8H
computed SMILES=ClC1=CC=C(C=C1)C(Cl)(C2=CC=C(Cl)C=C2)C(Cl)(Cl)Cl
accession=JP004563
date=2016.01.19 (Created 2008.10.21, modified 2011.05.06)
author=HAYASHI A, DEPT. OF CHEMISTRY, FAC. OF SCI. AND TECHNOLOGY, KINKI UNIV.
license=CC BY-NC-SA
exact mass=385.87572
ionization energy=70 eV
ion type=[M]+*
computed spectral entropy=4.192155934994753
computed normalized entropy=0.7307771466310817
SPLASH=splash10-00xr-4491000000-d7ff74c25179e2e90551
submitter=submitter = University of Tokyo Team (Faculty of Engineering, University of Tokyo)
MoNA Rating=3.75

>  <NUM PEAKS>  (4932) 
310

>  <MASS SPECTRAL PEAKS>  (4932) 
35 0.4
36 2.6
37 0.2
38 0.07
39 1.7
41 9.8
42 1.3
43 2
47 0.1
49 0.2
50 2.8
51 0.25
52 0.2
53 0.9
54 1.2
55 1.48
56 9.5
57 44.1
58 2.2
59 0.04
60 1.4
61 0.9
62 1.5
63 0.22
64 0.2
65 0.3
66 0.3
67 0.42
68 3.1
69 17.6
70 9.5
71 2.45
72 1.5
73 2.9
74 4.7
75 0.69
76 1.1
77 0.9
78 0.2
79 0.13
80 0.8
81 7.3
82 4.9
83 1.32
84 4.5
85 15.6
86 2
87 0.68
88 4.3
89 0.5
90 0.2
91 0.09
92 1.7
93 2.1
95 0.7
96 0.58
97 12.7
99 10.2
100 10.2
101 0.11
102 0.3
103 0.3
104 1.4
105 1.35
106 4.3
107 1.1
108 0.7
109 0.37
110 3
111 7.8
114 7.2
115 0.07
116 0.3
117 3.3
118 1.9
119 0.11
120 0.4
121 1.2
122 5.9
123 0.98
124 4.3
125 0.3
126 5
128 0.46
129 1
130 0.3
131 0.3
132 0.03
133 0.8
134 0.8
135 2
136 0.11
137 2.7
138 1.4
139 2.4
140 0.55
141 5.6
142 1.9
143 0.4
144 0.02
145 0.4
146 0.5
147 0.9
148 0.06
149 9.6
150 3.2
151 1.4
152 0.07
153 1.5
154 1.1
155 2.7
156 0.04
157 0.4
158 0.7
159 0.8
160 0.18
161 0.9
162 1.2
163 4.1
164 0.24
165 1.1
166 0.6
167 2.4
168 0.09
169 2.2
170 3.1
171 0.7
172 0.22
173 1.3
174 4.2
175 4.8
176 1.47
177 2.6
178 0.5
179 0.7
180 0.06
181 0.9
182 0.1
183 0.8
184 0.18
185 0.9
186 0.6
187 0.5
188 0.02
189 0.4
190 0.2
191 0.5
192 0.04
193 0.6
194 0.5
195 0.8
196 0.08
197 1.6
198 1.2
199 17
200 0.3
201 5.9
202 1
203 0.5
204 0.03
205 0.5
206 0.3
207 0.5
208 0.05
209 0.9
210 7.6
211 2.6
212 0.28
213 0.7
214 0.2
215 0.3
216 0.02
217 0.4
218 0.3
219 0.3
220 0.05
221 0.4
222 0.4
223 0.5
224 0.06
225 1.1
226 0.2
227 0.2
228 0.02
229 0.3
230 0.1
231 0.3
232 0.02
233 9.9
234 3
235 6.6
236 0.19
237 1.4
238 0.5
239 0.9
240 0.02
241 0.2
242 0.2
243 0.2
244 0.09
245 1.2
246 31.9
247 5.5
248 2.11
249 3.4
250 3.7
251 0.7
252 0.06
253 0.8
254 0.2
255 0.1
256 0.04
257 0.2
258 0.1
259 0.2
260 0.01
261 0.2
262 0.2
263 0.2
264 0.03
265 0.4
266 0.5
267 0.8
268 0.06
269 99.99
270 15.3
271 96.2
272 1.38
273 32.1
274 4.4
275 3.7
276 0.05
277 0.2
278 0.3
279 1
280 0.54
281 3.1
282 5.4
283 2.9
284 0.21
285 0.9
286 0.3
287 0.1
288 0.01
289 0.1
290 0.1
291 0.1
292 0.02
293 0.2
294 0.4
295 0.7
296 0.01
297 0.1
301 0.1
302 0.1
303 0.01
305 0.1
306 0.2
307 0.2
308 0.08
309 1.2
310 0.2
311 0.1
314 0.01
315 2.6
316 12.3
317 5
318 1.63
319 3.9
320 7.8
321 1.4
322 0.17
323 0.8
324 0.2
330 0.1
332 0.01
333 0.1
334 0.1
335 0.01
336 0.5
338 0.8
341 0.1
345 0.01
349 0.1
350 0.1
351 1.6
352 0.06
353 2.7
354 0.4
355 1.6
356 0.02
357 0.5
362 0.1
363 0.1
364 0.01
365 0.3
366 0.4
367 0.1
378 0.01
379 0.3
380 0.1
386 1
387 0.01
388 2.1
389 0.3
390 1.6
391 0.02
392 0.6
393 0.3
394 0.2

$$$$

     RDKit          2D

 17 18  0  0  0  0  0  0  0  0999 V2000
   -0.9782    1.7050    0.0000 C   0  0  0  0  0  0  0  0  0  0  0  0
    0.3168    3.9480    0.0000 C   0  0  0  0  0  0  0  0  0  0  0  0
   -4.8753    3.9090    0.0000 C   0  0  0  0  0  0  0  0  0  0  0  0
   -3.5803    1.6660    0.0000 C   0  0  0  0  0  0  0  0  0  0  0  0
    0.3208    0.9550    0.0000 C   0  0  0  0  0  0  0  0  0  0  0  0
    1.6158    3.1980    0.0000 C   0  0  0  0  0  0  0  0  0  0  0  0
   -6.1743    3.1590    0.0000 C   0  0  0  0  0  0  0  0  0  0  0  0
   -4.8793    0.9160    0.0000 C   0  0  0  0  0  0  0  0  0  0  0  0
   -2.2981    5.4319    0.0000 C   0  0  0  0  0  0  0  0  0  0  0  0
   -0.9877    3.1885    0.0000 C   0  0  0  0  0  0  0  0  0  0  0  0
   -3.5858    3.1754    0.0000 C   0  0  0  0  0  0  0  0  0  0  0  0
    1.6190    1.6835    0.0000 C   0  0  0  0  0  0  0  0  0  0  0  0
   -6.1925    1.6704    0.0000 C   0  0  0  0  0  0  0  0  0  0  0  0
   -2.2905    3.9320    0.0000 C   0  0  0  0  0  0  0  0  0  0  0  0
   -3.6008    6.1754    0.0000 Cl  0  0  0  0  0  0  0  0  0  0  0  0
    2.9142    0.9269    0.0000 Cl  0  0  0  0  0  0  0  0  0  0  0  0
   -7.4953    0.9270    0.0000 Cl  0  0  0  0  0  0  0  0  0  0  0  0
  5  1  2  0
  6  2  1  0
  7  3  2  0
  8  4  1  0
 10  1  1  0
 10  2  2  0
 11  3  1  0
 11  4  2  0
 12  5  1  0
 12  6  2  0
 13  7  1  0
 13  8  2  0
 14  9  2  3
 14 10  1  0
 14 11  1  0
 15  9  1  0
 16 12  1  0
 17 13  1  0
M  END
>  <NAME>  (4933) 
1,1-BIS(PARA-CHLOROPHENYL)-2-CHLOROETHENE

>  <SYNONYMS>  (4933) 


>  <SPECTRUM TYPE>  (4933) 
MS1

>  <INSTRUMENT TYPE>  (4933) 
EI-B

>  <INSTRUMENT>  (4933) 
SHIMADZU LKB-9000B

>  <ION MODE>  (4933) 
P

>  <INCHIKEY>  (4933) 
LNKQQZFLNUVWQQ-UHFFFAOYSA-N

>  <FORMULA>  (4933) 
C14H9Cl3

>  <EXACT MASS>  (4933) 
281.97698332799996

>  <MW>  (4933) 
282

>  <ID>  (4933) 
JP004562

>  <CONTRIBUTOR>  (4933) 
University of Tokyo Team, {Faculty of Engineering, University of Tokyo

>  <COMMENT>  (4933) 
SMILES=ClC=C(c(c2)ccc(Cl)c2)c(c1)ccc(Cl)c1
InChI=InChI=1S/C14H9Cl3/c15-9-14(10-1-5-12(16)6-2-10)11-3-7-13(17)8-4-11/h1-9H
computed SMILES=ClC=C(C1=CC=C(Cl)C=C1)C2=CC=C(Cl)C=C2
accession=JP004562
date=2016.01.19 (Created 2008.10.21, modified 2011.05.06)
author=HAYASHI A, DEPT. OF CHEMISTRY, FAC. OF SCI. AND TECHNOLOGY, KINKI UNIV.
license=CC BY-NC-SA
exact mass=281.97698
ionization energy=70 eV
ion type=[M]+*
computed spectral entropy=3.4958495837315864
computed normalized entropy=0.7264579503960091
SPLASH=splash10-001i-1290000000-8045a277a479aa6efa73
submitter=submitter = University of Tokyo Team (Faculty of Engineering, University of Tokyo)
MoNA Rating=3.75

>  <NUM PEAKS>  (4933) 
123

>  <MASS SPECTRAL PEAKS>  (4933) 
36 1.1
38 0.6
39 1.8
40 0.81
41 0.8
43 0.8
44 1.7
45 0.06
50 3.9
51 4.1
55 0.7
57 0.09
61 0.8
62 1.8
63 2.6
67 0.06
69 0.8
70 0.5
73 2.4
74 0.53
75 12.4
76 2.2
77 1
81 0.08
82 0.6
83 0.6
85 1.4
86 0.18
87 5.6
88 18.7
89 2.9
92 0.1
93 3.4
94 1.4
96 0.7
97 0.1
98 2.2
99 3.8
100 1.3
101 0.36
102 0.6
105 12.2
106 8.3
107 0.22
109 0.7
110 3.1
111 3.4
112 0.08
113 1.4
122 0.9
123 12.4
124 0.77
125 2.6
126 2
127 0.6
133 0.06
135 1.4
136 5.9
137 1.8
138 0.26
139 0.8
141 0.7
142 0.6
146 0.05
147 0.9
148 0.8
149 2.4
150 0.46
151 5.2
152 1.1
160 1.1
161 0.06
162 0.7
163 1.5
170 0.7
172 0.07
173 1.3
174 3.9
175 7.3
176 3.6
177 11.1
178 1.9
180 0.8
181 0.07
182 1
183 0.7
184 0.9
185 0.08
186 1.7
199 0.5
207 0.6
208 0.07
209 1.1
210 3.9
211 9.7
212 9.67
213 18.5
214 33.4
215 5.5
216 0.13
217 1
218 0.8
219 0.6
233 0.42
234 0.6
235 2.8
237 0.5
245 0.08
246 10.7
247 26.9
248 10.7
249 1.72
250 3.4
251 2.8
280 0.9
281 0.21
282 99.99
283 16.6
284 91.9
285 1.52
286 29.9
287 4.7
288 3.1

$$$$

     RDKit          2D

 18 19  0  0  0  0  0  0  0  0999 V2000
   -0.6581    1.1505    0.0000 C   0  0  0  0  0  0  0  0  0  0  0  0
    0.6369    3.3935    0.0000 C   0  0  0  0  0  0  0  0  0  0  0  0
   -4.5552    3.3545    0.0000 C   0  0  0  0  0  0  0  0  0  0  0  0
   -3.2602    1.1115    0.0000 C   0  0  0  0  0  0  0  0  0  0  0  0
    0.6410    0.4005    0.0000 C   0  0  0  0  0  0  0  0  0  0  0  0
    1.9360    2.6435    0.0000 C   0  0  0  0  0  0  0  0  0  0  0  0
   -5.8542    2.6045    0.0000 C   0  0  0  0  0  0  0  0  0  0  0  0
   -4.5592    0.3615    0.0000 C   0  0  0  0  0  0  0  0  0  0  0  0
   -0.6676    2.6340    0.0000 C   0  0  0  0  0  0  0  0  0  0  0  0
   -3.2656    2.6210    0.0000 C   0  0  0  0  0  0  0  0  0  0  0  0
    1.9391    1.1290    0.0000 C   0  0  0  0  0  0  0  0  0  0  0  0
   -5.8724    1.1160    0.0000 C   0  0  0  0  0  0  0  0  0  0  0  0
   -1.9704    3.3775    0.0000 C   0  0  0  0  0  0  0  0  0  0  0  0
   -1.9779    4.8775    0.0000 C   0  0  0  0  0  0  0  0  0  0  0  0
    3.2344    0.3725    0.0000 Cl  0  0  0  0  0  0  0  0  0  0  0  0
   -7.1752    0.3725    0.0000 Cl  0  0  0  0  0  0  0  0  0  0  0  0
   -3.2807    5.6209    0.0000 Cl  0  0  0  0  0  0  0  0  0  0  0  0
   -0.6827    5.6340    0.0000 Cl  0  0  0  0  0  0  0  0  0  0  0  0
  5  1  2  0
  6  2  1  0
  7  3  2  0
  8  4  1  0
  9  1  1  0
  9  2  2  0
 10  3  1  0
 10  4  2  0
 11  5  1  0
 11  6  2  0
 12  7  1  0
 12  8  2  0
 13  9  1  0
 13 10  1  0
 14 13  2  0
 15 11  1  0
 16 12  1  0
 17 14  1  0
 18 14  1  0
M  END
>  <NAME>  (4934) 
1,1-DICHLORO-2,2-BIS(PARA-CHLOROPHENYL)ETHENE

>  <SYNONYMS>  (4934) 
TETRACHLORODIPHENYLETHENE

>  <SPECTRUM TYPE>  (4934) 
MS1

>  <INSTRUMENT TYPE>  (4934) 
EI-B

>  <INSTRUMENT>  (4934) 
SHIMADZU LKB-9000B

>  <ION MODE>  (4934) 
P

>  <INCHIKEY>  (4934) 
UCNVFOCBFJOQAL-UHFFFAOYSA-N

>  <FORMULA>  (4934) 
C14H8Cl4

>  <EXACT MASS>  (4934) 
315.938010976

>  <MW>  (4934) 
316

>  <ID>  (4934) 
JP004561

>  <CONTRIBUTOR>  (4934) 
University of Tokyo Team, {Faculty of Engineering, University of Tokyo

>  <COMMENT>  (4934) 
SMILES=Clc(c2)ccc(c2)C(=C(Cl)Cl)c(c1)ccc(Cl)c1
InChI=InChI=1S/C14H8Cl4/c15-11-5-1-9(2-6-11)13(14(17)18)10-3-7-12(16)8-4-10/h1-8H
computed SMILES=ClC(Cl)=C(C1=CC=C(Cl)C=C1)C2=CC=C(Cl)C=C2
accession=JP004561
date=2016.01.19 (Created 2008.10.21, modified 2011.05.06)
author=HAYASHI A, DEPT. OF CHEMISTRY, FAC. OF SCI. AND TECHNOLOGY, KINKI UNIV.
license=CC BY-NC-SA
exact mass=315.93801
ionization energy=70 eV
ion type=[M]+*
computed spectral entropy=3.6728645331245002
computed normalized entropy=0.7487581632060455
SPLASH=splash10-00kb-3695000000-8add5b58f6d541662919
submitter=submitter = University of Tokyo Team (Faculty of Engineering, University of Tokyo)
MoNA Rating=3.75

>  <NUM PEAKS>  (4934) 
135

>  <MASS SPECTRAL PEAKS>  (4934) 
36 0.7
38 0.8
39 1.9
40 0.13
42 0.5
44 0.7
49 0.5
50 0.55
51 5.2
61 1.6
62 2.8
63 0.33
67 0.5
69 0.6
71 0.5
73 0.29
74 8.6
75 13
76 1.8
77 0.06
81 1.1
82 1.1
84 1.4
85 0.28
86 3.5
87 12
88 7.9
89 0.1
92 3
93 2.3
94 0.7
96 0.05
97 2
98 4.5
99 7.7
100 0.15
101 1
104 2.1
105 26.3
106 0.83
107 1.6
108 1.3
109 2.4
110 0.54
111 4.9
112 0.8
113 1.6
121 0.07
122 11.6
123 18.1
124 8
125 0.33
126 1.4
127 1.7
128 1.5
133 0.13
134 1.3
135 3.1
136 1.8
137 0.26
138 1.2
140 12.2
141 11.8
142 0.39
143 0.6
146 0.6
147 1.4
148 0.09
149 3.3
150 4.6
151 1.1
158 0.05
159 0.8
160 2.9
161 1.1
162 0.14
163 2.7
164 1
170 4.5
171 0.08
172 3.3
173 2.1
174 8.3
175 1.05
176 34.1
177 5.2
178 0.7
180 0.05
184 1.7
185 1.2
186 1.3
191 0.05
197 0.5
199 1.7
201 0.5
207 0.13
208 0.7
209 1.4
210 16
211 0.45
212 5.3
213 1.5
216 0.5
217 0.05
220 0.9
222 0.4
233 2.9
234 0.05
235 2
244 1.7
245 4.5
246 99.99
247 18.6
248 64.5
249 11
250 1.17
251 1.9
252 0.5
280 5.7
281 0.96
282 7.5
283 9.2
284 3.3
285 0.28
286 0.5
314 0.6
315 1.5
316 7.03
317 12.5
318 91.6
319 14.3
320 4.33
321 6.7
322 9.4
323 1.3

$$$$

     RDKit          2D

 15 16  0  0  0  0  0  0  0  0999 V2000
    2.2916   -1.7501    0.0000 C   0  0  0  0  0  0  0  0  0  0  0  0
    6.1888    1.9999    0.0000 C   0  0  0  0  0  0  0  0  0  0  0  0
    4.8892    2.7507    0.0000 C   0  0  0  0  0  0  0  0  0  0  0  0
    6.1892    0.4991    0.0000 C   0  0  0  0  0  0  0  0  0  0  0  0
    3.5902    2.0007    0.0000 C   0  0  0  0  0  0  0  0  0  0  0  0
    4.8902   -0.2509    0.0000 C   0  0  0  0  0  0  0  0  0  0  0  0
    0.9905    1.9834    0.0000 C   0  0  0  0  0  0  0  0  0  0  0  0
   -0.3157   -0.2530    0.0000 C   0  0  0  0  0  0  0  0  0  0  0  0
   -0.3047    2.7399    0.0000 C   0  0  0  0  0  0  0  0  0  0  0  0
   -1.6110    0.5035    0.0000 C   0  0  0  0  0  0  0  0  0  0  0  0
    2.2916   -0.2501    0.0000 C   0  0  0  0  0  0  0  0  0  0  0  0
    3.5907    0.4999    0.0000 C   0  0  0  0  0  0  0  0  0  0  0  0
    0.9926    0.4999    0.0000 C   0  0  0  0  0  0  0  0  0  0  0  0
   -1.6065    2.0180    0.0000 C   0  0  0  0  0  0  0  0  0  0  0  0
   -2.8980    2.7810    0.0000 Cl  0  0  0  0  0  0  0  0  0  0  0  0
  3  2  2  0
  4  2  1  0
  5  3  1  0
  6  4  2  0
  9  7  2  0
 10  8  1  0
 11  1  1  0
 12  5  2  0
 12  6  1  0
 12 11  1  0
 13  7  1  0
 13  8  2  0
 13 11  1  0
 14  9  1  0
 14 10  2  0
 15 14  1  0
M  END
>  <NAME>  (4935) 
1-PHENYL-1-PARA-CHLOROPHENYLETHANE

>  <SYNONYMS>  (4935) 


>  <SPECTRUM TYPE>  (4935) 
MS1

>  <INSTRUMENT TYPE>  (4935) 
EI-B

>  <INSTRUMENT>  (4935) 
SHIMADZU LKB-9000B

>  <ION MODE>  (4935) 
P

>  <INCHIKEY>  (4935) 
OMWUABDOXSZJHX-UHFFFAOYSA-N

>  <FORMULA>  (4935) 
C14H13Cl

>  <EXACT MASS>  (4935) 
216.070578096

>  <MW>  (4935) 
216

>  <ID>  (4935) 
JP004560

>  <CONTRIBUTOR>  (4935) 
University of Tokyo Team, {Faculty of Engineering, University of Tokyo

>  <COMMENT>  (4935) 
SMILES=Clc(c2)ccc(c2)C(C)c(c1)cccc1
InChI=InChI=1S/C14H13Cl/c1-11(12-5-3-2-4-6-12)13-7-9-14(15)10-8-13/h2-11H,1H3
computed SMILES=ClC1=CC=C(C=C1)C(C=2C=CC=CC2)C
accession=JP004560
date=2016.01.19 (Created 2008.10.21, modified 2011.05.06)
author=HAYASHI A, DEPT. OF CHEMISTRY, FAC. OF SCI. AND TECHNOLOGY, KINKI UNIV.
license=CC BY-NC-SA
exact mass=216.07058
ionization energy=70 eV
ion type=[M]+*
computed spectral entropy=2.9924844299084192
computed normalized entropy=0.7043633708919785
SPLASH=splash10-0gb9-2790000000-484da18154f5f53a0ec4
submitter=submitter = University of Tokyo Team (Faculty of Engineering, University of Tokyo)
MoNA Rating=3.75

>  <NUM PEAKS>  (4935) 
70

>  <MASS SPECTRAL PEAKS>  (4935) 
39 3
41 0.6
50 3.1
51 0.68
52 1.3
57 1.2
62 1
63 0.41
65 1.5
69 1
70 2
73 0.14
74 2.1
75 4.8
76 5.5
77 1.25
78 3.6
79 2.4
81 1.9
82 0.74
83 9.4
87 1
88 2.2
89 0.99
90 2.7
91 1
101 3.1
102 0.36
103 13.2
104 4.2
105 4.4
108 0.11
115 2.4
127 1
135 0.9
137 0.22
138 2.9
139 5.7
140 1.4
141 0.12
151 1.7
152 2.5
153 0.9
163 0.39
164 5
165 46.1
166 44.9
167 0.58
176 1.5
177 1.5
178 5.5
179 0.5
180 1.9
181 10
182 1.4
187 0.12
199 2.7
200 1.1
201 99.99
202 1.52
203 34
204 4.4
207 0.7
208 0.13
214 1.7
215 0.9
216 43.2
217 0.64
218 13.4
219 2.1

$$$$

     RDKit          2D

 23 22  0  0  0  0  0  0  0  0999 V2000
   -0.0000    0.0000    0.0000 C   0  0  0  0  0  0  0  0  0  0  0  0
   -0.0000    3.0000    0.0000 C   0  0  0  0  0  0  0  0  0  0  0  0
   -1.5000    1.5000    0.0000 C   0  0  0  0  0  0  0  0  0  0  0  0
    0.9510   -0.5490    0.0000 C   0  0  0  0  0  0  0  0  0  0  0  0
    3.0000   -1.0981    0.0000 C   0  0  0  0  0  0  0  0  0  0  0  0
    3.5490    0.9510    0.0000 C   0  0  0  0  0  0  0  0  0  0  0  0
    8.0490    4.6471    0.0000 C   0  0  0  0  0  0  0  0  0  0  0  0
    7.5000    6.6962    0.0000 C   0  0  0  0  0  0  0  0  0  0  0  0
    5.4510    6.1471    0.0000 C   0  0  0  0  0  0  0  0  0  0  0  0
    4.3072    6.3488    0.0000 C   0  0  0  0  0  0  0  0  0  0  0  0
    2.5695    7.5655    0.0000 C   0  0  0  0  0  0  0  0  0  0  0  0
    1.3528    5.8278    0.0000 C   0  0  0  0  0  0  0  0  0  0  0  0
    2.2500    2.7990    0.0000 C   0  0  0  0  0  0  0  0  0  0  0  0
    3.7500    2.7990    0.0000 C   0  0  0  0  0  0  0  0  0  0  0  0
    1.5000    1.5000    0.0000 N   0  0  0  0  0  0  0  0  0  0  0  0
    4.7605    5.5753    0.0000 O   0  0  0  0  0  0  0  0  0  0  0  0
    6.0000    4.0981    0.0000 O   0  0  0  0  0  0  0  0  0  0  0  0
    3.0905    4.6111    0.0000 O   0  0  0  0  0  0  0  0  0  0  0  0
    4.5000    4.0981    0.0000 P   0  0  0  0  0  0  0  0  0  0  0  0
   -0.0000    1.5000    0.0000 Si  0  0  0  0  0  4  0  0  0  0  0  0
    2.2500    0.2010    0.0000 Si  0  0  0  0  0  4  0  0  0  0  0  0
    6.7500    5.3971    0.0000 Si  0  0  0  0  0  4  0  0  0  0  0  0
    2.8300    6.0883    0.0000 Si  0  0  0  0  0  4  0  0  0  0  0  0
 14 13  1  0
 15 13  1  0
 19 14  1  0
 19 16  2  0
 19 17  1  0
 19 18  1  0
 20  1  1  0
 20  2  1  0
 20  3  1  0
 20 15  1  0
 21  4  1  0
 21  5  1  0
 21  6  1  0
 21 15  1  0
 22  7  1  0
 22  8  1  0
 22  9  1  0
 22 17  1  0
 23 10  1  0
 23 11  1  0
 23 12  1  0
 23 18  1  0
M  END
>  <NAME>  (4936) 
2-(N,N-DI(TRIMETHYLSILYL)AMINO)ETHYLPHOSPHONIC ACID DI(TRIMETHYLSILYL) ESTER

>  <SYNONYMS>  (4936) 


>  <SPECTRUM TYPE>  (4936) 
MS1

>  <INSTRUMENT TYPE>  (4936) 
EI-B

>  <INSTRUMENT>  (4936) 
SHIMADZU LKB-9000B

>  <ION MODE>  (4936) 
P

>  <INCHIKEY>  (4936) 
MWAPEOTUZLVKOZ-UHFFFAOYSA-N

>  <FORMULA>  (4936) 
C14H40NO3PSi4

>  <EXACT MASS>  (4936) 
413.18228688999994

>  <MW>  (4936) 
413

>  <ID>  (4936) 
JP004559

>  <CONTRIBUTOR>  (4936) 
University of Tokyo Team, {Faculty of Engineering, University of Tokyo

>  <COMMENT>  (4936) 
SMILES=C[Si](C)(C)OP(=O)(CCN([Si](C)(C)C)[Si](C)(C)C)O[Si](C)(C)C
InChI=InChI=1S/C14H40NO3PSi4/c1-20(2,3)15(21(4,5)6)13-14-19(16,17-22(7,8)9)18-23(10,11)12/h13-14H2,1-12H3
computed SMILES=O=P(O[Si](C)(C)C)(O[Si](C)(C)C)CCN([Si](C)(C)C)[Si](C)(C)C
accession=JP004559
date=2016.01.19 (Created 2008.10.21, modified 2011.05.06)
author=HAYASHI A, DEPT. OF CHEMISTRY, FAC. OF SCI. AND TECHNOLOGY, KINKI UNIV.
license=CC BY-NC-SA
exact mass=413.18229
ionization energy=70 eV
ion type=[M]+*
computed spectral entropy=3.72445400060214
computed normalized entropy=0.7793173802623943
SPLASH=splash10-0002-4619000000-72dad9ffdcec322f129a
submitter=submitter = University of Tokyo Team (Faculty of Engineering, University of Tokyo)
MoNA Rating=3.75

>  <NUM PEAKS>  (4936) 
119

>  <MASS SPECTRAL PEAKS>  (4936) 
53 1.8
55 1.1
56 0.3
57 0.23
58 1.5
59 10.7
60 1.7
61 0.28
66 0.9
67 0.9
68 1.6
69 0.01
70 2
71 0.6
72 3.8
73 8.53
74 9.9
75 32
76 3.7
77 0.41
79 0.5
81 1
82 1.3
83 0.05
84 1
85 2.1
86 8.3
87 0.17
91 0.4
93 1
95 0.8
96 0.09
97 1.4
98 3.1
99 1.6
100 0.73
101 1.8
102 2.4
103 2.4
105 0.03
107 1.9
109 0.7
110 0.7
111 0.23
113 1.4
114 10.9
115 6.3
116 0.56
117 5.5
118 5.4
119 1.9
121 0.18
125 0.9
128 1.7
129 2.6
130 0.76
131 4.2
132 5.4
133 4.7
135 0.46
137 1.4
141 1.4
143 1.5
145 0.24
146 4.1
147 13.2
148 1.5
149 0.02
151 1.6
159 1.3
160 1.3
165 0.15
171 1.4
172 20.5
173 3.9
174 3.63
175 7.8
176 2.8
179 1.8
187 0.2
188 2.5
189 1.8
191 1.8
193 0.18
194 1.2
195 2.1
207 4
209 0.5
210 1.7
211 2.8
224 3.3
225 0.41
226 2
233 2.3
237 1.5
297 0.3
298 12.9
299 6.9
300 2.3
306 0.21
307 3.3
308 3.3
309 5.3
310 0.4
311 2.7
312 5.4
313 3.1
314 0.15
326 3.1
339 1.5
340 9.1
341 0.24
395 1.5
396 2.9
397 8
398 99.99
399 38.3
400 1.9
401 4.8

$$$$

     RDKit          2D

 21 20  0  0  0  0  0  0  0  0999 V2000
   -5.8134    7.8936    0.0000 C   0  0  0  0  0  0  0  0  0  0  0  0
    7.1769    7.8936    0.0000 C   0  0  0  0  0  0  0  0  0  0  0  0
   -4.5144    7.1436    0.0000 C   0  0  0  0  0  0  0  0  0  0  0  0
    5.8779    7.1436    0.0000 C   0  0  0  0  0  0  0  0  0  0  0  0
   -3.2154    7.8936    0.0000 C   0  0  0  0  0  0  0  0  0  0  0  0
    4.5789    7.8936    0.0000 C   0  0  0  0  0  0  0  0  0  0  0  0
    0.2306    4.5850    0.0000 C   0  0  0  0  0  0  0  0  0  0  0  0
   -1.9163    7.1436    0.0000 C   0  0  0  0  0  0  0  0  0  0  0  0
    3.2798    7.1436    0.0000 C   0  0  0  0  0  0  0  0  0  0  0  0
   -0.2824    5.9945    0.0000 C   0  0  0  0  0  0  0  0  0  0  0  0
   -0.2205    2.0264    0.0000 C   0  0  0  0  0  0  0  0  0  0  0  0
   -1.1847    0.8773    0.0000 C   0  0  0  0  0  0  0  0  0  0  0  0
   -2.3338    1.8415    0.0000 F   0  0  0  0  0  0  0  0  0  0  0  0
   -2.1489   -0.2717    0.0000 F   0  0  0  0  0  0  0  0  0  0  0  0
   -0.0357   -0.0868    0.0000 F   0  0  0  0  0  0  0  0  0  0  0  0
   -0.7336    3.4359    0.0000 N   0  0  0  0  0  0  0  0  0  0  0  0
    1.2567    1.7659    0.0000 O   0  0  0  0  0  0  0  0  0  0  0  0
    1.6459    5.9945    0.0000 O   0  0  0  0  0  0  0  0  0  0  0  0
   -0.6173    7.8936    0.0000 O   0  0  0  0  0  0  0  0  0  0  0  0
    1.9808    7.8936    0.0000 O   0  0  0  0  0  0  0  0  0  0  0  0
    0.6818    7.1436    0.0000 P   0  0  0  0  0  0  0  0  0  0  0  0
  3  1  1  0
  4  2  1  0
  5  3  1  0
  6  4  1  0
  8  5  1  0
  9  6  1  0
 10  7  1  0
 12 11  1  0
 13 12  1  0
 14 12  1  0
 15 12  1  0
 16  7  1  0
 16 11  2  3
 17 11  1  0
 19  8  1  0
 20  9  1  0
 21 10  1  0
 21 18  2  0
 21 19  1  0
 21 20  1  0
M  END
>  <NAME>  (4937) 
DIBUTYL 2-(N-TRIFLUOROACETYLAMINO)ETHYLPHOSPHONATE

>  <SYNONYMS>  (4937) 


>  <SPECTRUM TYPE>  (4937) 
MS1

>  <INSTRUMENT TYPE>  (4937) 
EI-B

>  <INSTRUMENT>  (4937) 
SHIMADZU LKB-9000B

>  <ION MODE>  (4937) 
P

>  <INCHIKEY>  (4937) 
ICWBNDWAEAJFRR-UHFFFAOYSA-N

>  <FORMULA>  (4937) 
C12H23F3NO4P

>  <EXACT MASS>  (4937) 
333.131679506

>  <MW>  (4937) 
333

>  <ID>  (4937) 
JP004557

>  <CONTRIBUTOR>  (4937) 
University of Tokyo Team, {Faculty of Engineering, University of Tokyo

>  <COMMENT>  (4937) 
SMILES=CCCCOP(=O)(OCCCC)CCNC(=O)C(F)(F)F
InChI=InChI=1S/C12H23F3NO4P/c1-3-5-8-19-21(18,20-9-6-4-2)10-7-16-11(17)12(13,14)15/h3-10H2,1-2H3,(H,16,17)
computed SMILES=O=P(OCCCC)(OCCCC)CCN=C(O)C(F)(F)F
accession=JP004557
date=2016.01.19 (Created 2008.10.21, modified 2011.05.06)
author=HAYASHI A, DEPT. OF CHEMISTRY, FAC. OF SCI. AND TECHNOLOGY, KINKI UNIV.
license=CC BY-NC-SA
exact mass=333.13168
ionization energy=70 eV
ion type=[M]+*
computed spectral entropy=2.7116333227929728
computed normalized entropy=0.6766677981221237
SPLASH=splash10-0zmi-1790000000-c336a3bffa3bb11d08db
submitter=submitter = University of Tokyo Team (Faculty of Engineering, University of Tokyo)
MoNA Rating=3.75

>  <NUM PEAKS>  (4937) 
55

>  <MASS SPECTRAL PEAKS>  (4937) 
80 3.3
81 2.4
82 1.8
83 1.23
84 1.4
85 6.4
87 1.1
90 0.11
91 3.5
96 3.5
97 6.8
106 0.62
107 1.2
108 32.8
109 22.3
110 0.29
111 2.3
114 1
120 1
123 0.31
124 1.6
126 2.6
134 2.8
135 0.16
136 3.1
137 1.8
138 4
139 0.82
140 7.5
141 1.4
149 1
150 0.13
152 81.8
153 5.4
154 2.6
185 0.12
192 1.1
204 56.5
205 2.7
206 0.1
208 15.1
209 1.4
220 1.2
221 0.36
222 99.99
223 4.7
248 2.5
250 0.12
260 5.8
264 24.4
265 3
278 2.46
279 2.3
304 0.5
334 1.2

$$$$

     RDKit          2D

 32 31  0  0  1  0  0  0  0  0999 V2000
   -1.1349    2.6618    0.0000 C   0  0  0  0  0  0  0  0  0  0  0  0
    0.3651    5.2599    0.0000 C   0  0  0  0  0  0  0  0  0  0  0  0
   -1.6839    4.7108    0.0000 C   0  0  0  0  0  0  0  0  0  0  0  0
   10.7575    2.6618    0.0000 C   0  0  0  0  0  0  0  0  0  0  0  0
   11.3065    4.7108    0.0000 C   0  0  0  0  0  0  0  0  0  0  0  0
    9.2575    5.2599    0.0000 C   0  0  0  0  0  0  0  0  0  0  0  0
    6.6594   -0.3382    0.0000 C   0  0  0  0  0  0  0  0  0  0  0  0
    8.7084    0.2108    0.0000 C   0  0  0  0  0  0  0  0  0  0  0  0
    8.1594    2.2599    0.0000 C   0  0  0  0  0  0  0  0  0  0  0  0
    1.4632    2.2599    0.0000 C   0  0  0  0  0  0  0  0  0  0  0  0
    0.9142    0.2108    0.0000 C   0  0  0  0  0  0  0  0  0  0  0  0
    2.9632   -0.3382    0.0000 C   0  0  0  0  0  0  0  0  0  0  0  0
    6.8603    4.9118    0.0000 C   0  0  0  0  0  0  0  0  0  0  0  0
    7.4094    6.9608    0.0000 C   0  0  0  0  0  0  0  0  0  0  0  0
    5.3603    7.5099    0.0000 C   0  0  0  0  0  0  0  0  0  0  0  0
    2.2132    5.4608    0.0000 C   0  0  0  0  0  0  0  0  0  0  0  0
    7.4094    3.9608    0.0000 C   0  0  0  0  0  0  0  0  0  0  0  0
    2.2132    3.9608    0.0000 C   0  0  0  0  0  0  0  0  0  0  0  0
    6.1103    3.2108    0.0000 C   0  0  0  0  0  0  0  0  0  0  0  0
    3.5123    3.2108    0.0000 C   0  0  0  0  0  0  0  0  0  0  0  0
    4.8113    3.9608    0.0000 C   0  0  0  0  0  0  0  0  0  0  0  0
    0.9142    3.2108    0.0000 N   0  0  0  0  0  0  0  0  0  0  0  0
    0.9142    6.2108    0.0000 O   0  0  0  0  0  0  0  0  0  0  0  0
    8.7084    3.2108    0.0000 O   0  0  0  0  0  0  0  0  0  0  0  0
    6.1103    1.7108    0.0000 O   0  0  0  0  0  0  0  0  0  0  0  0
    3.5123    1.7108    0.0000 O   0  0  0  0  0  0  0  0  0  0  0  0
    4.8113    5.4608    0.0000 O   0  0  0  0  0  0  0  0  0  0  0  0
   -0.3849    3.9608    0.0000 Si  0  0  0  0  0  4  0  0  0  0  0  0
   10.0075    3.9608    0.0000 Si  0  0  0  0  0  4  0  0  0  0  0  0
    7.4094    0.9608    0.0000 Si  0  0  0  0  0  4  0  0  0  0  0  0
    2.2132    0.9608    0.0000 Si  0  0  0  0  0  4  0  0  0  0  0  0
    6.1103    6.2108    0.0000 Si  0  0  0  0  0  4  0  0  0  0  0  0
 18 16  1  1
 19 17  1  1
 20 18  1  0
 21 19  1  0
 21 20  1  0
 18 22  1  0
 23 16  2  0
 24 17  1  0
 19 25  1  0
 20 26  1  6
 21 27  1  6
 28  1  1  0
 28  2  1  0
 28  3  1  0
 28 22  1  0
 29  4  1  0
 29  5  1  0
 29  6  1  0
 29 24  1  0
 30  7  1  0
 30  8  1  0
 30  9  1  0
 30 25  1  0
 31 10  1  0
 31 11  1  0
 31 12  1  0
 31 26  1  0
 32 13  1  0
 32 14  1  0
 32 15  1  0
 32 27  1  0
M  END
>  <NAME>  (4938) 
PENTATRIMETHYLSILYL GLUCOSAMINE

>  <SYNONYMS>  (4938) 
1,2,3,4,6-PENTATRIMETHYLSILYL 2-AMINO-2-DEOXY-D-GLUCOSE

>  <SPECTRUM TYPE>  (4938) 
MS1

>  <INSTRUMENT TYPE>  (4938) 
EI-B

>  <INSTRUMENT>  (4938) 
SHIMADZU LKB-9000B

>  <ION MODE>  (4938) 
P

>  <INCHIKEY>  (4938) 
QGZLJFWINYQKTC-DOIPELPJSA-N

>  <FORMULA>  (4938) 
C21H53NO5Si5

>  <EXACT MASS>  (4938) 
539.2770064460001

>  <MW>  (4938) 
539

>  <ID>  (4938) 
JP004554

>  <CONTRIBUTOR>  (4938) 
University of Tokyo Team, {Faculty of Engineering, University of Tokyo

>  <COMMENT>  (4938) 
SMILES=C[Si](C)(C)OCC([H])(O[Si](C)(C)C)C([H])(O[Si](C)(C)C)C([H])(O[Si](C)(C)C)C([H])(C=O)N[Si](C)(C)C
InChI=InChI=1S/C21H53NO5Si5/c1-28(2,3)22-18(16-23)20(26-31(10,11)12)21(27-32(13,14)15)19(25-30(7,8)9)17-24-29(4,5)6/h16,18-22H,17H2,1-15H3/t18-,19+,20+,21+/m0/s1
computed SMILES=O=CC(N[Si](C)(C)C)C(O[Si](C)(C)C)C(O[Si](C)(C)C)C(O[Si](C)(C)C)CO[Si](C)(C)C
accession=JP004554
date=2016.01.19 (Created 2008.10.21, modified 2011.05.06)
author=HAYASHI A, DEPT. OF CHEMISTRY, FAC. OF SCI. AND TECHNOLOGY, KINKI UNIV.
license=CC BY-NC-SA
exact mass=539.27701
ionization energy=70 eV
ion type=[M]+*
computed spectral entropy=2.9425209862300044
computed normalized entropy=0.6734308511242756
SPLASH=splash10-0ul0-7890000000-4ad852613fc0a591905a
submitter=submitter = University of Tokyo Team (Faculty of Engineering, University of Tokyo)
MoNA Rating=3.75

>  <NUM PEAKS>  (4938) 
79

>  <MASS SPECTRAL PEAKS>  (4938) 
55 1.7
56 1.6
57 2.8
59 0.38
61 1.2
67 1
69 1.4
70 0.09
71 1.1
72 1.9
73 91.6
74 0.92
75 43.5
76 3.9
77 2.7
79 0.13
80 1.6
81 1
82 0.2
83 0.09
84 1.5
85 0.7
89 2
91 0.14
93 0.1
95 0.8
97 0.2
100 0.37
101 2.3
102 1.4
103 9.5
104 0.18
105 2.7
108 1.3
109 0.4
111 0.03
115 2.6
116 3.1
117 8.8
118 0.18
119 1.6
123 1.3
128 3.7
129 0.5
130 2.4
131 87.2
132 10
133 0.75
142 1.7
143 1.2
144 8.8
145 0.31
146 1.3
147 16.5
148 3.5
149 0.86
156 1.5
169 1.4
172 1.3
188 0.15
189 3
191 6.4
200 1.4
202 0.43
203 99.99
204 29.3
205 11.9
206 0.24
216 13
217 18.2
218 7.5
219 0.34
231 3
232 1.9
259 1.2
303 0.27
304 6.7
305 2.7
434 1.2

$$$$

     RDKit          2D

 16 16  0  0  1  0  0  0  0  0999 V2000
   -3.9076    4.0204    0.0000 C   0  0  0  0  0  0  0  0  0  0  0  0
   -2.6151   -2.7165    0.0000 C   0  0  0  0  0  0  0  0  0  0  0  0
    1.2816   -3.4843    0.0000 C   0  0  0  0  0  0  0  0  0  0  0  0
    3.9081    1.0290    0.0000 C   0  0  0  0  0  0  0  0  0  0  0  0
   -2.6089    1.7702    0.0000 C   0  0  0  0  0  0  0  0  0  0  0  0
   -1.3100    1.0200    0.0000 C   0  0  0  0  0  0  0  0  0  0  0  0
    1.3100   -0.4700    0.0000 C   0  0  0  0  0  0  0  0  0  0  0  0
   -1.3100   -0.4700    0.0000 C   0  0  0  0  0  0  0  0  0  0  0  0
   -0.0100   -1.2300    0.0000 C   0  0  0  0  0  0  0  0  0  0  0  0
    1.3100    1.0200    0.0000 C   0  0  0  0  0  0  0  0  0  0  0  0
    2.6086   -1.2208    0.0000 O   0  0  0  0  0  0  0  0  0  0  0  0
   -2.6087    3.2702    0.0000 O   0  0  0  0  0  0  0  0  0  0  0  0
   -2.6111   -1.2165    0.0000 O   0  0  0  0  0  0  0  0  0  0  0  0
   -0.0150   -2.7300    0.0000 O   0  0  0  0  0  0  0  0  0  0  0  0
    2.6064    1.7745    0.0000 O   0  0  0  0  0  0  0  0  0  0  0  0
   -0.0100    1.7700    0.0000 O   0  0  0  0  0  0  0  0  0  0  0  0
  6  5  1  1
  8  6  1  0
  9  7  1  0
  9  8  1  0
 10  7  1  0
  7 11  1  1
 12  1  1  0
 12  5  1  0
 13  2  1  0
  8 13  1  6
 14  3  1  0
  9 14  1  1
 15  4  1  0
 10 15  1  6
 16  6  1  0
 16 10  1  0
M  END
>  <NAME>  (4939) 
METHYL 3,4,6-TRI-O-METHYL MANNOPYRANOSIDE

>  <SYNONYMS>  (4939) 


>  <SPECTRUM TYPE>  (4939) 
MS1

>  <INSTRUMENT TYPE>  (4939) 
EI-B

>  <INSTRUMENT>  (4939) 
SHIMADZU LKB-9000B

>  <ION MODE>  (4939) 
P

>  <INCHIKEY>  (4939) 
MJCQVUQCEVACLB-ZOZBQHSOSA-N

>  <FORMULA>  (4939) 
C10H20O6

>  <EXACT MASS>  (4939) 
236.12598835999998

>  <MW>  (4939) 
236

>  <ID>  (4939) 
JP004553

>  <CONTRIBUTOR>  (4939) 
University of Tokyo Team, {Faculty of Engineering, University of Tokyo

>  <COMMENT>  (4939) 
SMILES=COCC(O1)C(OC)C(OC)C(O)C(OC)1
InChI=InChI=1S/C10H20O6/c1-12-5-6-8(13-2)9(14-3)7(11)10(15-4)16-6/h6-11H,5H2,1-4H3/t6-,7+,8-,9-,10+/m1/s1
computed SMILES=OC1C(OC)OC(COC)C(OC)C1OC
accession=JP004553
date=2016.01.19 (Created 2008.10.21, modified 2011.05.06)
author=HAYASHI A, DEPT. OF CHEMISTRY, FAC. OF SCI. AND TECHNOLOGY, KINKI UNIV.
license=CC BY-NC-SA
exact mass=236.12599
ionization energy=70 eV
ion type=[M]+*
computed spectral entropy=3.054860777305398
computed normalized entropy=0.7120125057021234
SPLASH=splash10-00g1-9100000000-7c14360e763e7a44505c
submitter=submitter = University of Tokyo Team (Faculty of Engineering, University of Tokyo)
MoNA Rating=3.75

>  <NUM PEAKS>  (4939) 
73

>  <MASS SPECTRAL PEAKS>  (4939) 
41 22.6
42 5.1
43 13.4
44 0.44
45 75.5
46 1
47 1.6
53 0.52
54 1.6
55 8.3
56 3.2
57 0.89
58 14
59 20.6
60 1.6
61 0.31
67 0.9
68 3.4
69 7.9
70 0.13
71 99.99
72 9.7
73 17.3
74 6.13
75 98.5
76 2.6
77 0.5
81 0.34
82 1.6
83 2.5
84 3.6
85 1.22
86 1.5
87 34.3
88 67.3
89 2.9
90 0.7
95 0.4
97 1.6
98 0.06
99 11.5
100 2.2
101 37.8
102 1.36
103 1.8
111 4.5
112 3.9
113 0.32
114 1.4
115 8.2
116 1.2
117 0.7
118 1.2
127 15.1
128 0.4
129 0.08
130 2.2
131 4.4
140 0.6
141 0.16
143 1.1
144 1.7
145 0.6
149 0.23
159 5.4
161 18.4
162 0.7
172 0.23
173 2.1
175 0.8
191 0.5
204 0.08
205 1.6

$$$$

     RDKit          2D

 36 36  0  0  0  0  0  0  0  0999 V2000
   -0.0980    5.2133    0.0000 C   0  0  0  0  0  0  0  0  0  0  0  0
   -2.1471    4.6642    0.0000 C   0  0  0  0  0  0  0  0  0  0  0  0
   -1.5980    2.6152    0.0000 C   0  0  0  0  0  0  0  0  0  0  0  0
   -4.1968    2.2138    0.0000 C   0  0  0  0  0  0  0  0  0  0  0  0
   -4.7462    0.1649    0.0000 C   0  0  0  0  0  0  0  0  0  0  0  0
   -2.6973   -0.3845    0.0000 C   0  0  0  0  0  0  0  0  0  0  0  0
    3.5993   -0.3845    0.0000 C   0  0  0  0  0  0  0  0  0  0  0  0
    5.6483    0.1649    0.0000 C   0  0  0  0  0  0  0  0  0  0  0  0
    5.0989    2.2138    0.0000 C   0  0  0  0  0  0  0  0  0  0  0  0
   -4.4469   -2.4803    0.0000 C   0  0  0  0  0  0  0  0  0  0  0  0
   -3.4825   -4.1501    0.0000 C   0  0  0  0  0  0  0  0  0  0  0  0
   -1.4924   -3.0007    0.0000 C   0  0  0  0  0  0  0  0  0  0  0  0
    4.5497   -2.8362    0.0000 C   0  0  0  0  0  0  0  0  0  0  0  0
    3.0495   -4.3360    0.0000 C   0  0  0  0  0  0  0  0  0  0  0  0
    1.5497   -2.8357    0.0000 C   0  0  0  0  0  0  0  0  0  0  0  0
   -0.8480   -2.0858    0.0000 C   0  0  0  0  0  0  0  0  0  0  0  0
   -2.1471   -4.3358    0.0000 C   0  0  0  0  0  0  0  0  0  0  0  0
   -0.0980   -4.8848    0.0000 C   0  0  0  0  0  0  0  0  0  0  0  0
    0.4510    1.6642    0.0000 C   0  0  0  0  0  0  0  0  0  0  0  0
   -0.8490    0.9142    0.0000 C   0  0  0  0  0  0  0  0  0  0  0  0
    1.7510    0.9142    0.0000 C   0  0  0  0  0  0  0  0  0  0  0  0
   -0.8490   -0.5858    0.0000 C   0  0  0  0  0  0  0  0  0  0  0  0
    1.7510   -0.5858    0.0000 C   0  0  0  0  0  0  0  0  0  0  0  0
    0.4510   -1.3358    0.0000 C   0  0  0  0  0  0  0  0  0  0  0  0
    0.4510    3.1642    0.0000 O   0  0  0  0  0  0  0  0  0  0  0  0
   -2.1479    1.6645    0.0000 O   0  0  0  0  0  0  0  0  0  0  0  0
    3.0499    1.6645    0.0000 O   0  0  0  0  0  0  0  0  0  0  0  0
   -2.7095   -1.2633    0.0000 O   0  0  0  0  0  0  0  0  0  0  0  0
    3.0499   -1.3360    0.0000 O   0  0  0  0  0  0  0  0  0  0  0  0
    0.4510   -2.8358    0.0000 O   0  0  0  0  0  0  0  0  0  0  0  0
   -0.8480    3.9142    0.0000 Si  0  0  0  0  0  4  0  0  0  0  0  0
   -3.4471    0.9147    0.0000 Si  0  0  0  0  0  4  0  0  0  0  0  0
    4.3491    0.9147    0.0000 Si  0  0  0  0  0  4  0  0  0  0  0  0
   -2.9697   -2.7405    0.0000 Si  0  0  0  0  0  4  0  0  0  0  0  0
    3.0497   -2.8360    0.0000 Si  0  0  0  0  0  4  0  0  0  0  0  0
   -0.8480   -3.5858    0.0000 Si  0  0  0  0  0  4  0  0  0  0  0  0
 20 19  1  0
 21 19  1  0
 22 20  1  0
 23 21  1  0
 24 22  1  0
 24 23  1  0
 25 19  1  0
 26 20  1  0
 27 21  1  0
 28 22  1  0
 29 23  1  0
 30 24  1  0
 31  1  1  0
 31  2  1  0
 31  3  1  0
 31 25  1  0
 32  4  1  0
 32  5  1  0
 32  6  1  0
 32 26  1  0
 33  7  1  0
 33  8  1  0
 33  9  1  0
 33 27  1  0
 34 10  1  0
 34 11  1  0
 34 12  1  0
 34 28  1  0
 35 13  1  0
 35 14  1  0
 35 15  1  0
 35 29  1  0
 36 16  1  0
 36 17  1  0
 36 18  1  0
 36 30  1  0
M  END
>  <NAME>  (4940) 
HEXATRIMETHYLSILYLINOSITOL

>  <SYNONYMS>  (4940) 


>  <SPECTRUM TYPE>  (4940) 
MS1

>  <INSTRUMENT TYPE>  (4940) 
EI-B

>  <INSTRUMENT>  (4940) 
SHIMADZU LKB-9000B

>  <ION MODE>  (4940) 
P

>  <INCHIKEY>  (4940) 
FRTKXRNTVMCAKI-UHFFFAOYSA-N

>  <FORMULA>  (4940) 
C24H60O6Si6

>  <EXACT MASS>  (4940) 
612.30054882

>  <MW>  (4940) 
612

>  <ID>  (4940) 
JP004551

>  <CONTRIBUTOR>  (4940) 
University of Tokyo Team, {Faculty of Engineering, University of Tokyo

>  <COMMENT>  (4940) 
SMILES=C[Si](C)(C)OC(C(O[Si](C)(C)C)1)C(O[Si](C)(C)C)C(O[Si](C)(C)C)C(O[Si](C)(C)C)C(O[Si](C)(C)C)1
InChI=InChI=1S/C24H60O6Si6/c1-31(2,3)25-19-20(26-32(4,5)6)22(28-34(10,11)12)24(30-36(16,17)18)23(29-35(13,14)15)21(19)27-33(7,8)9/h19-24H,1-18H3
computed SMILES=O(C1C(O[Si](C)(C)C)C(O[Si](C)(C)C)C(O[Si](C)(C)C)C(O[Si](C)(C)C)C1O[Si](C)(C)C)[Si](C)(C)C
license=CC BY-NC-SA
exact mass=612.30055
accession=JP004551
date=2016.01.19 (Created 2008.10.21, modified 2011.05.06)
computed spectral entropy=3.3324863669726548
author=HAYASHI A, DEPT. OF CHEMISTRY, FAC. OF SCI. AND TECHNOLOGY, KINKI UNIV.
ionization energy=70 eV
ion type=[M]+*
computed normalized entropy=0.6438156813743453
SPLASH=splash10-0avi-5779100000-f8869fc0a32a54edc02e
submitter=submitter = University of Tokyo Team (Faculty of Engineering, University of Tokyo)
MoNA Rating=3.75

>  <NUM PEAKS>  (4940) 
177

>  <MASS SPECTRAL PEAKS>  (4940) 
53 0.4
55 0.4
57 0.3
58 0.02
59 1.5
61 0.3
67 0.5
68 0.02
69 0.3
70 0.3
71 0.2
72 0.12
73 99.99
74 8.4
75 7
76 0.05
77 0.2
79 0.2
81 0.5
83 0.03
84 0.2
85 0.2
87 0.2
89 0.02
95 0.2
97 0.1
99 0.2
101 0.06
102 0.2
103 7.8
104 0.6
105 0.06
109 0.3
111 0.2
113 0.4
115 0.02
116 0.7
117 1.1
118 0.2
119 0.05
123 0.2
125 0.2
127 0.5
128 0.01
129 9.8
130 1.1
131 3.1
132 0.06
133 9.4
134 1.2
135 0.9
141 0.03
142 0.2
143 2.2
144 0.3
145 0.06
146 0.8
147 50.7
148 8
149 0.49
150 0.5
151 0.3
153 0.2
155 0.03
156 0.2
157 0.9
159 0.3
161 0.2
162 0.3
163 0.3
169 0.3
173 0.02
175 0.7
177 0.7
189 1.5
190 0.21
191 46.8
192 8.8
193 4.1
194 0.05
201 0.3
203 1
204 20
205 0.5
206 2.1
207 1.6
208 0.3
209 0.02
215 0.6
216 3.8
217 91.3
218 1.8
219 8.4
220 1.1
221 4.8
222 0.1
223 0.5
229 0.3
230 1.6
231 0.12
232 0.4
233 0.2
243 0.9
244 0.02
245 0.3
246 0.2
264 0.3
265 2.19
266 5.4
267 2.6
268 0.4
271 0.04
277 0.3
278 0.3
279 0.3
289 0.02
290 0.3
291 6.5
292 2
293 0.4
294 1
295 0.4
303 0.6
304 0.49
305 84.3
306 25.4
307 13.4
308 0.26
309 0.7
316 0.6
317 3.7
318 4.46
319 21.2
320 8.8
321 2.4
322 0.05
331 0.3
343 1.1
344 0.3
345 0.05
366 0.6
367 10
368 3.3
369 0.21
370 0.5
379 0.3
391 0.2
392 0.07
393 5.7
394 2
395 1.1
396 0.02
406 0.4
407 0.4
417 0.3
418 0.03
419 0.9
420 0.3
421 0.2
430 0.03
431 0.8
432 9.1
433 8.5
434 0.39
435 1.6
436 0.3
506 0.5
507 0.47
508 0.2
509 1.2
510 0.3
521 0.02
522 0.3
611 0.2
612 1.2
613 0.08
614 0.5

$$$$

     RDKit          2D

 19 18  0  0  0  0  0  0  0  0999 V2000
    2.5882    7.6103    0.0000 C   0  0  0  0  0  0  0  0  0  0  0  0
    0.5392    7.0613    0.0000 C   0  0  0  0  0  0  0  0  0  0  0  0
    1.0882    5.0123    0.0000 C   0  0  0  0  0  0  0  0  0  0  0  0
    7.7844    4.6103    0.0000 C   0  0  0  0  0  0  0  0  0  0  0  0
    6.2844    2.0123    0.0000 C   0  0  0  0  0  0  0  0  0  0  0  0
    8.3334    2.5613    0.0000 C   0  0  0  0  0  0  0  0  0  0  0  0
   -1.5099    4.6103    0.0000 C   0  0  0  0  0  0  0  0  0  0  0  0
   -2.0589    2.5613    0.0000 C   0  0  0  0  0  0  0  0  0  0  0  0
   -0.0099    2.0123    0.0000 C   0  0  0  0  0  0  0  0  0  0  0  0
    4.4363    3.3113    0.0000 C   0  0  0  0  0  0  0  0  0  0  0  0
    3.1373    4.0613    0.0000 C   0  0  0  0  0  0  0  0  0  0  0  0
    1.8382    3.3113    0.0000 C   0  0  0  0  0  0  0  0  0  0  0  0
    3.1373    5.5613    0.0000 N   0  0  0  0  0  0  0  0  0  0  0  0
    1.8382    1.8113    0.0000 O   0  0  0  0  0  0  0  0  0  0  0  0
    5.7353    4.0613    0.0000 O   0  0  0  0  0  0  0  0  0  0  0  0
    0.5392    4.0613    0.0000 O   0  0  0  0  0  0  0  0  0  0  0  0
    1.8382    6.3113    0.0000 Si  0  0  0  0  0  4  0  0  0  0  0  0
    7.0344    3.3113    0.0000 Si  0  0  0  0  0  4  0  0  0  0  0  0
   -0.7599    3.3113    0.0000 Si  0  0  0  0  0  4  0  0  0  0  0  0
 11 10  1  0
 12 11  1  0
 13 11  1  0
 14 12  2  0
 15 10  1  0
 16 12  1  0
 17  1  1  0
 17  2  1  0
 17  3  1  0
 17 13  1  0
 18  4  1  0
 18  5  1  0
 18  6  1  0
 18 15  1  0
 19  7  1  0
 19  8  1  0
 19  9  1  0
 19 16  1  0
M  END
>  <NAME>  (4941) 
TRIMETHYLSILYLSERINE

>  <SYNONYMS>  (4941) 
DI-O-TRIMETHYLSILYL-MONP-N-TRIMETHYLSILYLSERINE

>  <SPECTRUM TYPE>  (4941) 
MS1

>  <INSTRUMENT TYPE>  (4941) 
EI-B

>  <INSTRUMENT>  (4941) 
SHIMADZU LKB-9000B

>  <ION MODE>  (4941) 
P

>  <INCHIKEY>  (4941) 
MBEDINMZZORSJN-UHFFFAOYSA-N

>  <FORMULA>  (4941) 
C12H31NO3Si3

>  <EXACT MASS>  (4941) 
321.161173442

>  <MW>  (4941) 
321

>  <ID>  (4941) 
JP004550

>  <CONTRIBUTOR>  (4941) 
University of Tokyo Team, {Faculty of Engineering, University of Tokyo

>  <COMMENT>  (4941) 
SMILES=C[Si](C)(C)OCC([H])(N[Si](C)(C)C)C(=O)O[Si](C)(C)C
InChI=InChI=1S/C12H31NO3Si3/c1-17(2,3)13-11(10-15-18(4,5)6)12(14)16-19(7,8)9/h11,13H,10H2,1-9H3
computed SMILES=O=C(O[Si](C)(C)C)C(N[Si](C)(C)C)CO[Si](C)(C)C
accession=JP004550
date=2016.01.19 (Created 2008.10.21, modified 2011.05.06)
author=HAYASHI A, DEPT. OF CHEMISTRY, FAC. OF SCI. AND TECHNOLOGY, KINKI UNIV.
license=CC BY-NC-SA
exact mass=321.16117
ionization energy=70 eV
ion type=[M]+*
computed spectral entropy=2.8583164778557344
computed normalized entropy=0.6847271930108187
SPLASH=splash10-0uxr-1490000000-9666ebcfcd4b5b750021
submitter=submitter = University of Tokyo Team (Faculty of Engineering, University of Tokyo)
MoNA Rating=3.75

>  <NUM PEAKS>  (4941) 
65

>  <MASS SPECTRAL PEAKS>  (4941) 
55 0.6
57 1.9
58 1.5
59 0.5
60 1.1
61 1.9
66 0.3
70 0.1
72 2.4
75 29.8
76 2.2
77 1.5
80 0.1
84 1
86 0.9
87 0.9
88 0.09
89 0.8
93 0.4
100 15.2
101 0.22
102 1.5
103 4.4
114 2.6
115 0.15
116 15.7
117 4.9
118 1.2
119 0.09
129 0.7
130 1.9
131 2.7
132 1.33
133 5.8
134 1.1
144 2.5
146 0.19
147 22.5
148 3.7
149 2.3
159 0.14
163 1.2
174 0.9
188 6.6
189 0.28
190 1
191 1.1
203 3.5
204 99.99
205 21.8
206 7.8
207 1
216 0.23
217 1.1
218 59.2
219 12.8
220 0.5
221 1.8
234 1.1
278 5.9
279 0.14
280 0.7
306 6
307 1.9
308 1.5

$$$$

     RDKit          2D

 24 23  0  0  0  0  0  0  0  0999 V2000
   -8.3212    6.4457    0.0000 C   0  0  0  0  0  0  0  0  0  0  0  0
    4.6692    6.4457    0.0000 C   0  0  0  0  0  0  0  0  0  0  0  0
    0.0405   -0.5705    0.0000 C   0  0  0  0  0  0  0  0  0  0  0  0
   -7.0222    5.6957    0.0000 C   0  0  0  0  0  0  0  0  0  0  0  0
    3.3701    5.6957    0.0000 C   0  0  0  0  0  0  0  0  0  0  0  0
   -0.9237    0.5785    0.0000 C   0  0  0  0  0  0  0  0  0  0  0  0
   -5.7231    6.4457    0.0000 C   0  0  0  0  0  0  0  0  0  0  0  0
    2.0711    6.4457    0.0000 C   0  0  0  0  0  0  0  0  0  0  0  0
   -0.4107    1.9881    0.0000 C   0  0  0  0  0  0  0  0  0  0  0  0
   -4.4241    5.6957    0.0000 C   0  0  0  0  0  0  0  0  0  0  0  0
    0.7721    5.6957    0.0000 C   0  0  0  0  0  0  0  0  0  0  0  0
   -1.3749    3.1371    0.0000 C   0  0  0  0  0  0  0  0  0  0  0  0
   -3.1251    6.4457    0.0000 C   0  0  0  0  0  0  0  0  0  0  0  0
   -4.4241    8.6957    0.0000 C   0  0  0  0  0  0  0  0  0  0  0  0
   -4.4241   10.1957    0.0000 C   0  0  0  0  0  0  0  0  0  0  0  0
   -2.9241   10.1957    0.0000 F   0  0  0  0  0  0  0  0  0  0  0  0
   -4.4241   11.6957    0.0000 F   0  0  0  0  0  0  0  0  0  0  0  0
   -5.9241   10.1957    0.0000 F   0  0  0  0  0  0  0  0  0  0  0  0
   -3.1251    7.9457    0.0000 N   0  0  0  0  0  0  0  0  0  0  0  0
   -5.7231    7.9457    0.0000 O   0  0  0  0  0  0  0  0  0  0  0  0
   -2.7902    4.5467    0.0000 O   0  0  0  0  0  0  0  0  0  0  0  0
   -0.5270    6.4457    0.0000 O   0  0  0  0  0  0  0  0  0  0  0  0
   -0.8618    4.5467    0.0000 O   0  0  0  0  0  0  0  0  0  0  0  0
   -1.8260    5.6957    0.0000 P   0  0  0  0  0  0  0  0  0  0  0  0
  4  1  1  0
  5  2  1  0
  6  3  1  0
  7  4  1  0
  8  5  1  0
  9  6  1  0
 10  7  1  0
 11  8  1  0
 12  9  1  0
 13 10  1  0
 15 14  1  0
 16 15  1  0
 17 15  1  0
 18 15  1  0
 19 13  1  0
 19 14  2  3
 20 14  1  0
 22 11  1  0
 23 12  1  0
 24 13  1  0
 24 21  2  0
 24 22  1  0
 24 23  1  0
M  END
>  <NAME>  (4942) 
DIBUTYL 1-(N-TRIFLUOROACETYLAMINO)PENTYLPHOSPHONATE

>  <SYNONYMS>  (4942) 


>  <SPECTRUM TYPE>  (4942) 
MS1

>  <INSTRUMENT TYPE>  (4942) 
EI-B

>  <INSTRUMENT>  (4942) 
SHIMADZU LKB-9000B

>  <ION MODE>  (4942) 
P

>  <INCHIKEY>  (4942) 
VTGKYJIQDAIQCK-UHFFFAOYSA-N

>  <FORMULA>  (4942) 
C15H29F3NO4P

>  <EXACT MASS>  (4942) 
375.178629698

>  <MW>  (4942) 
375

>  <ID>  (4942) 
JP004548

>  <CONTRIBUTOR>  (4942) 
University of Tokyo Team, {Faculty of Engineering, University of Tokyo

>  <COMMENT>  (4942) 
SMILES=CCCCOP(=O)(OCCCC)C(CCCC)NC(=O)C(F)(F)F
InChI=InChI=1S/C15H29F3NO4P/c1-4-7-10-13(19-14(20)15(16,17)18)24(21,22-11-8-5-2)23-12-9-6-3/h13H,4-12H2,1-3H3,(H,19,20)
computed SMILES=O=P(OCCCC)(OCCCC)C(N=C(O)C(F)(F)F)CCCC
accession=JP004548
date=2016.01.19 (Created 2008.10.21, modified 2011.05.06)
author=HAYASHI A, DEPT. OF CHEMISTRY, FAC. OF SCI. AND TECHNOLOGY, KINKI UNIV.
license=CC BY-NC-SA
exact mass=375.17863
ionization energy=70 eV
ion type=[M]+*
computed spectral entropy=2.7725099493210545
computed normalized entropy=0.7087151444339783
SPLASH=splash10-000i-2920000000-efe07716c894253510b8
submitter=submitter = University of Tokyo Team (Faculty of Engineering, University of Tokyo)
MoNA Rating=3.75

>  <NUM PEAKS>  (4942) 
50

>  <MASS SPECTRAL PEAKS>  (4942) 
69 5.1
82 2.9
83 43.7
96 0.14
97 1
99 4
109 2.8
110 0.4
111 1.2
112 1
114 3.6
123 1.75
124 1.1
126 9.5
136 1.9
137 0.29
138 45.6
139 99.99
140 7.7
141 0.1
145 2
150 1.6
152 3.3
155 0.36
164 1.4
165 2.1
166 2.8
178 0.12
179 3.3
180 3
182 20.5
183 0.23
189 1.4
194 12.1
195 2.9
206 0.34
207 11.2
208 10
211 3.1
220 0.42
246 8.1
263 3.1
264 18.2
265 0.15
302 2
319 3.8
320 4.6
332 0.1
375 0.9
376 1.8

$$$$

     RDKit          2D

 24 23  0  0  0  0  0  0  0  0999 V2000
   -8.3676    6.4190    0.0000 C   0  0  0  0  0  0  0  0  0  0  0  0
    4.6228    6.4190    0.0000 C   0  0  0  0  0  0  0  0  0  0  0  0
   -6.7552    3.8918    0.0000 C   0  0  0  0  0  0  0  0  0  0  0  0
   -4.7650    2.2218    0.0000 C   0  0  0  0  0  0  0  0  0  0  0  0
   -7.0686    5.6690    0.0000 C   0  0  0  0  0  0  0  0  0  0  0  0
    3.3237    5.6690    0.0000 C   0  0  0  0  0  0  0  0  0  0  0  0
   -5.7695    6.4190    0.0000 C   0  0  0  0  0  0  0  0  0  0  0  0
    2.0247    6.4190    0.0000 C   0  0  0  0  0  0  0  0  0  0  0  0
   -4.4705    5.6690    0.0000 C   0  0  0  0  0  0  0  0  0  0  0  0
    0.7256    5.6690    0.0000 C   0  0  0  0  0  0  0  0  0  0  0  0
   -4.3138    4.7804    0.0000 C   0  0  0  0  0  0  0  0  0  0  0  0
   -5.2780    3.6313    0.0000 C   0  0  0  0  0  0  0  0  0  0  0  0
   -2.8366    4.5199    0.0000 C   0  0  0  0  0  0  0  0  0  0  0  0
   -0.8464    2.8499    0.0000 C   0  0  0  0  0  0  0  0  0  0  0  0
   -0.3333    1.4403    0.0000 C   0  0  0  0  0  0  0  0  0  0  0  0
   -1.7429    0.9273    0.0000 F   0  0  0  0  0  0  0  0  0  0  0  0
    0.1797    0.0308    0.0000 F   0  0  0  0  0  0  0  0  0  0  0  0
    1.0762    1.9534    0.0000 F   0  0  0  0  0  0  0  0  0  0  0  0
   -2.3236    3.1103    0.0000 N   0  0  0  0  0  0  0  0  0  0  0  0
    0.1178    3.9989    0.0000 O   0  0  0  0  0  0  0  0  0  0  0  0
   -0.9082    4.5199    0.0000 O   0  0  0  0  0  0  0  0  0  0  0  0
   -3.1715    6.4190    0.0000 O   0  0  0  0  0  0  0  0  0  0  0  0
   -0.5734    6.4190    0.0000 O   0  0  0  0  0  0  0  0  0  0  0  0
   -1.8724    5.6690    0.0000 P   0  0  0  0  0  0  0  0  0  0  0  0
  5  1  1  0
  6  2  1  0
  7  5  1  0
  8  6  1  0
  9  7  1  0
 10  8  1  0
 12  3  1  0
 12  4  1  0
 12 11  1  0
 13 11  1  0
 15 14  1  0
 16 15  1  0
 17 15  1  0
 18 15  1  0
 19 13  1  0
 19 14  2  3
 20 14  1  0
 22  9  1  0
 23 10  1  0
 24 13  1  0
 24 21  2  0
 24 22  1  0
 24 23  1  0
M  END
>  <NAME>  (4943) 
DIBUTYL 3-METHYL-1-(N-TRIFLUOROACETYLAMINO)BUTYLPHOSPHONATE

>  <SYNONYMS>  (4943) 


>  <SPECTRUM TYPE>  (4943) 
MS1

>  <INSTRUMENT TYPE>  (4943) 
EI-B

>  <INSTRUMENT>  (4943) 
SHIMADZU LKB-9000B

>  <ION MODE>  (4943) 
P

>  <INCHIKEY>  (4943) 
XOWFAIAZFLPNQE-UHFFFAOYSA-N

>  <FORMULA>  (4943) 
C15H29F3NO4P

>  <EXACT MASS>  (4943) 
375.17862969800007

>  <MW>  (4943) 
375

>  <ID>  (4943) 
JP004547

>  <CONTRIBUTOR>  (4943) 
University of Tokyo Team, {Faculty of Engineering, University of Tokyo

>  <COMMENT>  (4943) 
SMILES=CCCCOP(=O)(OCCCC)C(CC(C)C)NC(=O)C(F)(F)F
InChI=InChI=1S/C15H29F3NO4P/c1-5-7-9-22-24(21,23-10-8-6-2)13(11-12(3)4)19-14(20)15(16,17)18/h12-13H,5-11H2,1-4H3,(H,19,20)
computed SMILES=O=P(OCCCC)(OCCCC)C(N=C(O)C(F)(F)F)CC(C)C
accession=JP004547
license=CC BY-NC-SA
date=2016.01.19 (Created 2008.10.21, modified 2011.05.06)
author=HAYASHI A, DEPT. OF CHEMISTRY, FAC. OF SCI. AND TECHNOLOGY, KINKI UNIV.
exact mass=375.17863
ionization energy=70 eV
ion type=[M]+*
computed spectral entropy=2.9043925237176484
computed normalized entropy=0.7215251602493444
SPLASH=splash10-000i-2920000000-c7ca2b7793092f3e08e3
submitter=submitter = University of Tokyo Team (Faculty of Engineering, University of Tokyo)
MoNA Rating=3.75

>  <NUM PEAKS>  (4943) 
56

>  <MASS SPECTRAL PEAKS>  (4943) 
69 5.2
82 3.4
83 55.5
96 0.18
97 1.4
99 4.4
106 1.4
109 0.4
110 4.9
111 1.4
114 2.4
122 0.28
123 20.1
124 1.6
126 3.9
137 0.34
138 54.4
139 99.99
140 25.5
141 0.18
150 6.4
151 2.5
152 1
155 0.37
164 1.9
165 3
166 7.6
178 0.15
179 3.8
180 5.6
181 1.1
182 1.23
183 2
189 1.7
194 15.6
195 0.39
202 1.2
206 3.8
207 16.7
208 1.67
211 3.6
220 6.9
246 8.8
248 0.33
263 3.3
264 21.4
265 1.8
276 0.2
302 2.4
304 1
319 6.6
320 0.4
332 3.5
370 0.5
375 0.5
376 2.8

$$$$

     RDKit          2D

 23 22  0  0  0  0  0  0  0  0999 V2000
    4.1060    4.1381    0.0000 C   0  0  0  0  0  0  0  0  0  0  0  0
   -8.8843    4.1381    0.0000 C   0  0  0  0  0  0  0  0  0  0  0  0
    2.4936    6.6653    0.0000 C   0  0  0  0  0  0  0  0  0  0  0  0
    2.8070    4.8881    0.0000 C   0  0  0  0  0  0  0  0  0  0  0  0
   -7.5853    4.8881    0.0000 C   0  0  0  0  0  0  0  0  0  0  0  0
    1.0164    6.9258    0.0000 C   0  0  0  0  0  0  0  0  0  0  0  0
    1.5080    4.1381    0.0000 C   0  0  0  0  0  0  0  0  0  0  0  0
   -6.2863    4.1381    0.0000 C   0  0  0  0  0  0  0  0  0  0  0  0
    0.0522    5.7767    0.0000 C   0  0  0  0  0  0  0  0  0  0  0  0
    0.2089    4.8881    0.0000 C   0  0  0  0  0  0  0  0  0  0  0  0
   -4.9872    4.8881    0.0000 C   0  0  0  0  0  0  0  0  0  0  0  0
   -1.4250    6.0372    0.0000 C   0  0  0  0  0  0  0  0  0  0  0  0
   -0.9738    8.5958    0.0000 C   0  0  0  0  0  0  0  0  0  0  0  0
   -1.4868   10.0053    0.0000 C   0  0  0  0  0  0  0  0  0  0  0  0
   -2.8964    9.4923    0.0000 F   0  0  0  0  0  0  0  0  0  0  0  0
   -1.9999   11.4149    0.0000 F   0  0  0  0  0  0  0  0  0  0  0  0
   -0.0773   10.5184    0.0000 F   0  0  0  0  0  0  0  0  0  0  0  0
   -1.9380    7.4467    0.0000 N   0  0  0  0  0  0  0  0  0  0  0  0
    0.5034    8.3353    0.0000 O   0  0  0  0  0  0  0  0  0  0  0  0
   -3.3533    6.0372    0.0000 O   0  0  0  0  0  0  0  0  0  0  0  0
   -1.0901    4.1381    0.0000 O   0  0  0  0  0  0  0  0  0  0  0  0
   -3.6882    4.1381    0.0000 O   0  0  0  0  0  0  0  0  0  0  0  0
   -2.3892    4.8881    0.0000 P   0  0  0  0  0  0  0  0  0  0  0  0
  4  1  1  0
  5  2  1  0
  6  3  1  0
  7  4  1  0
  8  5  1  0
  9  6  1  0
 10  7  1  0
 11  8  1  0
 12  9  1  0
 14 13  1  0
 15 14  1  0
 16 14  1  0
 17 14  1  0
 18 12  1  0
 18 13  2  3
 19 13  1  0
 21 10  1  0
 22 11  1  0
 23 12  1  0
 23 20  2  0
 23 21  1  0
 23 22  1  0
M  END
>  <NAME>  (4944) 
DIBUTYL 1-(N-TRIFLUOROACETYLAMINO)BUTYLPHOSPHONATE

>  <SYNONYMS>  (4944) 


>  <SPECTRUM TYPE>  (4944) 
MS1

>  <INSTRUMENT TYPE>  (4944) 
EI-B

>  <INSTRUMENT>  (4944) 
SHIMADZU LKB-9000B

>  <ION MODE>  (4944) 
P

>  <INCHIKEY>  (4944) 
HFNKBZCZJNNGKI-UHFFFAOYSA-N

>  <FORMULA>  (4944) 
C14H27F3NO4P

>  <EXACT MASS>  (4944) 
361.162979634

>  <MW>  (4944) 
361

>  <ID>  (4944) 
JP004545

>  <CONTRIBUTOR>  (4944) 
University of Tokyo Team, {Faculty of Engineering, University of Tokyo

>  <COMMENT>  (4944) 
SMILES=CCCCOP(=O)(OCCCC)C(CCC)NC(=O)C(F)(F)F
InChI=InChI=1S/C14H27F3NO4P/c1-4-7-10-21-23(20,22-11-8-5-2)12(9-6-3)18-13(19)14(15,16)17/h12H,4-11H2,1-3H3,(H,18,19)
computed SMILES=O=P(OCCCC)(OCCCC)C(N=C(O)C(F)(F)F)CCC
accession=JP004545
date=2016.01.19 (Created 2008.10.21, modified 2011.05.06)
author=HAYASHI A, DEPT. OF CHEMISTRY, FAC. OF SCI. AND TECHNOLOGY, KINKI UNIV.
license=CC BY-NC-SA
exact mass=361.16298
ionization energy=70 eV
ion type=[M]+*
computed spectral entropy=2.792003705307622
computed normalized entropy=0.6876106124518414
SPLASH=splash10-000i-2910000000-625c9284d51e614b4288
submitter=submitter = University of Tokyo Team (Faculty of Engineering, University of Tokyo)
MoNA Rating=3.75

>  <NUM PEAKS>  (4944) 
58

>  <MASS SPECTRAL PEAKS>  (4944) 
55 1.6
57 1.1
69 1.1
82 0.41
83 56.5
84 3.4
86 2.2
96 0.13
97 1.4
98 1.3
99 5.9
106 0.1
109 3.7
110 4.3
111 1.5
114 0.49
122 1.4
123 17.8
124 1.2
126 1.79
136 2.2
137 5.5
138 44.7
139 99.99
140 7.8
141 1
149 2.3
150 0.17
151 1.8
152 3.5
155 4.4
164 0.15
165 1.1
166 3.4
167 1.2
168 2.25
169 3.3
179 2.9
180 2.8
189 0.12
194 10.6
195 2.1
206 3.5
207 0.86
208 7.7
211 3.2
220 3.4
232 0.85
249 1.3
250 12.2
263 1.1
264 0.37
288 1.7
306 3.3
319 1.7
332 0.06
361 0.6
362 0.8

$$$$

     RDKit          2D

 22 21  0  0  0  0  0  0  0  0999 V2000
    4.1060    4.1381    0.0000 C   0  0  0  0  0  0  0  0  0  0  0  0
   -8.8843    4.1381    0.0000 C   0  0  0  0  0  0  0  0  0  0  0  0
    1.0164    6.9258    0.0000 C   0  0  0  0  0  0  0  0  0  0  0  0
    2.8070    4.8881    0.0000 C   0  0  0  0  0  0  0  0  0  0  0  0
   -7.5853    4.8881    0.0000 C   0  0  0  0  0  0  0  0  0  0  0  0
    0.0522    5.7767    0.0000 C   0  0  0  0  0  0  0  0  0  0  0  0
    1.5080    4.1381    0.0000 C   0  0  0  0  0  0  0  0  0  0  0  0
   -6.2863    4.1381    0.0000 C   0  0  0  0  0  0  0  0  0  0  0  0
    0.2089    4.8881    0.0000 C   0  0  0  0  0  0  0  0  0  0  0  0
   -4.9872    4.8881    0.0000 C   0  0  0  0  0  0  0  0  0  0  0  0
   -1.4250    6.0372    0.0000 C   0  0  0  0  0  0  0  0  0  0  0  0
   -0.9738    8.5958    0.0000 C   0  0  0  0  0  0  0  0  0  0  0  0
   -1.4868   10.0053    0.0000 C   0  0  0  0  0  0  0  0  0  0  0  0
   -0.0773   10.5184    0.0000 F   0  0  0  0  0  0  0  0  0  0  0  0
   -1.9999   11.4149    0.0000 F   0  0  0  0  0  0  0  0  0  0  0  0
   -2.8964    9.4923    0.0000 F   0  0  0  0  0  0  0  0  0  0  0  0
   -1.9380    7.4467    0.0000 N   0  0  0  0  0  0  0  0  0  0  0  0
    0.5034    8.3353    0.0000 O   0  0  0  0  0  0  0  0  0  0  0  0
   -3.3533    6.0372    0.0000 O   0  0  0  0  0  0  0  0  0  0  0  0
   -1.0901    4.1381    0.0000 O   0  0  0  0  0  0  0  0  0  0  0  0
   -3.6882    4.1381    0.0000 O   0  0  0  0  0  0  0  0  0  0  0  0
   -2.3892    4.8881    0.0000 P   0  0  0  0  0  0  0  0  0  0  0  0
  4  1  1  0
  5  2  1  0
  6  3  1  0
  7  4  1  0
  8  5  1  0
  9  7  1  0
 10  8  1  0
 11  6  1  0
 13 12  1  0
 14 13  1  0
 15 13  1  0
 16 13  1  0
 17 11  1  0
 17 12  2  3
 18 12  1  0
 20  9  1  0
 21 10  1  0
 22 11  1  0
 22 19  2  0
 22 20  1  0
 22 21  1  0
M  END
>  <NAME>  (4945) 
DIBUTYL 1-(N-TRIFUOROACETYLAMINO)PROPYLPHOSPHONATE

>  <SYNONYMS>  (4945) 


>  <SPECTRUM TYPE>  (4945) 
MS1

>  <INSTRUMENT TYPE>  (4945) 
EI-B

>  <INSTRUMENT>  (4945) 
SHIMADZU LKB-9000B

>  <ION MODE>  (4945) 
P

>  <INCHIKEY>  (4945) 
DOBUKKUNTRWKHT-UHFFFAOYSA-N

>  <FORMULA>  (4945) 
C13H25F3NO4P

>  <EXACT MASS>  (4945) 
347.14732957000007

>  <MW>  (4945) 
347

>  <ID>  (4945) 
JP004544

>  <CONTRIBUTOR>  (4945) 
University of Tokyo Team, {Faculty of Engineering, University of Tokyo

>  <COMMENT>  (4945) 
SMILES=CCCCOP(=O)(OCCCC)C(CC)NC(=O)C(F)(F)F
InChI=InChI=1S/C13H25F3NO4P/c1-4-7-9-20-22(19,21-10-8-5-2)11(6-3)17-12(18)13(14,15)16/h11H,4-10H2,1-3H3,(H,17,18)
computed SMILES=O=P(OCCCC)(OCCCC)C(N=C(O)C(F)(F)F)CC
accession=JP004544
date=2016.01.19 (Created 2008.10.21, modified 2011.05.06)
author=HAYASHI A, DEPT. OF CHEMISTRY, FAC. OF SCI. AND TECHNOLOGY, KINKI UNIV.
license=CC BY-NC-SA
exact mass=347.14733
ionization energy=70 eV
ion type=[M]+*
computed spectral entropy=2.6060455254927897
computed normalized entropy=0.6886667365013666
SPLASH=splash10-000i-0910000000-56893d3e4cd6e750ea39
submitter=submitter = University of Tokyo Team (Faculty of Engineering, University of Tokyo)
MoNA Rating=3.75

>  <NUM PEAKS>  (4945) 
44

>  <MASS SPECTRAL PEAKS>  (4945) 
57 1
69 1.3
82 4.2
83 5.77
85 1
96 1.2
97 1.2
99 0.86
109 4.2
110 3
111 1.3
120 0.14
122 1.6
123 21.9
124 1.4
126 0.69
136 2.5
137 9.6
138 51
139 99.99
140 7.1
150 1.9
152 1.5
153 0.15
154 47.2
155 12.1
165 1.1
166 0.48
179 2.9
194 13.9
195 1.7
206 0.51
207 3.7
208 2.5
211 4.3
218 1.23
220 1.6
235 2.1
236 18
237 0.11
274 2.2
292 4.2
347 0.7
348 1.4

$$$$

     RDKit          2D

 22 21  0  0  0  0  0  0  0  0999 V2000
    4.1848    5.3008    0.0000 C   0  0  0  0  0  0  0  0  0  0  0  0
    0.7059   10.5399    0.0000 C   0  0  0  0  0  0  0  0  0  0  0  0
   -6.2075    3.8008    0.0000 C   0  0  0  0  0  0  0  0  0  0  0  0
    2.8857    6.0508    0.0000 C   0  0  0  0  0  0  0  0  0  0  0  0
   -0.7713   10.2794    0.0000 C   0  0  0  0  0  0  0  0  0  0  0  0
    1.5867    5.3008    0.0000 C   0  0  0  0  0  0  0  0  0  0  0  0
   -1.2844    8.8699    0.0000 C   0  0  0  0  0  0  0  0  0  0  0  0
   -4.9085    6.0508    0.0000 C   0  0  0  0  0  0  0  0  0  0  0  0
    0.2877    6.0508    0.0000 C   0  0  0  0  0  0  0  0  0  0  0  0
   -2.7616    8.6094    0.0000 C   0  0  0  0  0  0  0  0  0  0  0  0
   -3.6095    5.3008    0.0000 C   0  0  0  0  0  0  0  0  0  0  0  0
   -7.5066    6.0508    0.0000 C   0  0  0  0  0  0  0  0  0  0  0  0
   -8.8056    5.3008    0.0000 C   0  0  0  0  0  0  0  0  0  0  0  0
   -9.5556    6.5998    0.0000 F   0  0  0  0  0  0  0  0  0  0  0  0
  -10.1046    4.5508    0.0000 F   0  0  0  0  0  0  0  0  0  0  0  0
   -8.0556    4.0018    0.0000 F   0  0  0  0  0  0  0  0  0  0  0  0
   -6.2075    5.3008    0.0000 N   0  0  0  0  0  0  0  0  0  0  0  0
   -7.5066    7.5508    0.0000 O   0  0  0  0  0  0  0  0  0  0  0  0
   -1.3462    7.1999    0.0000 O   0  0  0  0  0  0  0  0  0  0  0  0
   -1.0114    5.3008    0.0000 O   0  0  0  0  0  0  0  0  0  0  0  0
   -3.2746    7.1999    0.0000 O   0  0  0  0  0  0  0  0  0  0  0  0
   -2.3104    6.0508    0.0000 P   0  0  0  0  0  0  0  0  0  0  0  0
  4  1  1  0
  5  2  1  0
  6  4  1  0
  7  5  1  0
  9  6  1  0
 10  7  1  0
 11  8  1  0
 13 12  1  0
 14 13  1  0
 15 13  1  0
 16 13  1  0
 17  3  1  0
 17  8  1  0
 17 12  1  0
 18 12  2  0
 20  9  1  0
 21 10  1  0
 22 11  1  0
 22 19  2  0
 22 20  1  0
 22 21  1  0
M  END
>  <NAME>  (4946) 
DIBUTYL 2-(N-TRIFLUOROACETYL-N-METHYLAMINO)ETHYLPHOSPHONATE

>  <SYNONYMS>  (4946) 


>  <SPECTRUM TYPE>  (4946) 
MS1

>  <INSTRUMENT TYPE>  (4946) 
EI-B

>  <INSTRUMENT>  (4946) 
SHIMADZU LKB-9000B

>  <ION MODE>  (4946) 
P

>  <INCHIKEY>  (4946) 
ZXYLUWVQGVTPHW-UHFFFAOYSA-N

>  <FORMULA>  (4946) 
C13H25F3NO4P

>  <EXACT MASS>  (4946) 
347.14732957000007

>  <MW>  (4946) 
347

>  <ID>  (4946) 
JP004543

>  <CONTRIBUTOR>  (4946) 
University of Tokyo Team, {Faculty of Engineering, University of Tokyo

>  <COMMENT>  (4946) 
SMILES=CCCCOP(=O)(OCCCC)CCN(C)C(=O)C(F)(F)F
InChI=InChI=1S/C13H25F3NO4P/c1-4-6-9-20-22(19,21-10-7-5-2)11-8-17(3)12(18)13(14,15)16/h4-11H2,1-3H3
computed SMILES=O=C(N(C)CCP(=O)(OCCCC)OCCCC)C(F)(F)F
accession=JP004543
date=2016.01.19 (Created 2008.10.21, modified 2011.05.06)
author=HAYASHI A, DEPT. OF CHEMISTRY, FAC. OF SCI. AND TECHNOLOGY, KINKI UNIV.
license=CC BY-NC-SA
exact mass=347.14733
ionization energy=70 eV
ion type=[M]+*
computed spectral entropy=3.0791684809217528
computed normalized entropy=0.7520540672938901
SPLASH=splash10-0fe0-0940000000-c5a6051b252ffd3ad642
submitter=submitter = University of Tokyo Team (Faculty of Engineering, University of Tokyo)
MoNA Rating=3.75

>  <NUM PEAKS>  (4946) 
60

>  <MASS SPECTRAL PEAKS>  (4946) 
69 1.2
81 1.1
82 2.9
83 1.73
91 2.5
92 1.6
93 1.1
94 0.54
96 1.8
97 2.6
104 3.9
106 0.1
109 14.4
110 16.7
111 12.5
112 0.14
120 24
121 1.6
122 46.9
123 0.83
124 1.4
136 1.3
137 4.9
138 99.99
139 23.7
140 17.6
148 2.2
150 0.26
152 2.8
153 6.3
154 21.5
155 0.16
165 1
166 4.2
167 4
168 0.18
176 2.3
178 3.6
193 4.3
194 5.11
195 4.3
196 1.1
199 1.1
216 0.18
218 42.2
219 2.6
235 14.5
236 3.61
237 2.2
250 79.5
251 9.9
252 0.12
262 2.4
274 7.1
291 5.8
292 1.96
293 2
347 10.2
348 5.1
349 0.7

$$$$

     RDKit          2D

 21 20  0  0  0  0  0  0  0  0999 V2000
    4.1060    4.1381    0.0000 C   0  0  0  0  0  0  0  0  0  0  0  0
   -8.8843    4.1381    0.0000 C   0  0  0  0  0  0  0  0  0  0  0  0
    0.0522    5.7767    0.0000 C   0  0  0  0  0  0  0  0  0  0  0  0
    2.8070    4.8881    0.0000 C   0  0  0  0  0  0  0  0  0  0  0  0
   -7.5853    4.8881    0.0000 C   0  0  0  0  0  0  0  0  0  0  0  0
    1.5080    4.1381    0.0000 C   0  0  0  0  0  0  0  0  0  0  0  0
   -6.2863    4.1381    0.0000 C   0  0  0  0  0  0  0  0  0  0  0  0
    0.2089    4.8881    0.0000 C   0  0  0  0  0  0  0  0  0  0  0  0
   -4.9872    4.8881    0.0000 C   0  0  0  0  0  0  0  0  0  0  0  0
   -1.4250    6.0372    0.0000 C   0  0  0  0  0  0  0  0  0  0  0  0
   -0.9738    8.5958    0.0000 C   0  0  0  0  0  0  0  0  0  0  0  0
   -1.4868   10.0053    0.0000 C   0  0  0  0  0  0  0  0  0  0  0  0
   -0.0773   10.5184    0.0000 F   0  0  0  0  0  0  0  0  0  0  0  0
   -1.9999   11.4149    0.0000 F   0  0  0  0  0  0  0  0  0  0  0  0
   -2.8964    9.4923    0.0000 F   0  0  0  0  0  0  0  0  0  0  0  0
   -1.9380    7.4467    0.0000 N   0  0  0  0  0  0  0  0  0  0  0  0
    0.5034    8.3353    0.0000 O   0  0  0  0  0  0  0  0  0  0  0  0
   -3.3533    6.0372    0.0000 O   0  0  0  0  0  0  0  0  0  0  0  0
   -1.0901    4.1381    0.0000 O   0  0  0  0  0  0  0  0  0  0  0  0
   -3.6882    4.1381    0.0000 O   0  0  0  0  0  0  0  0  0  0  0  0
   -2.3892    4.8881    0.0000 P   0  0  0  0  0  0  0  0  0  0  0  0
  4  1  1  0
  5  2  1  0
  6  4  1  0
  7  5  1  0
  8  6  1  0
  9  7  1  0
 10  3  1  0
 12 11  1  0
 13 12  1  0
 14 12  1  0
 15 12  1  0
 16 10  1  0
 16 11  2  3
 17 11  1  0
 19  8  1  0
 20  9  1  0
 21 10  1  0
 21 18  2  0
 21 19  1  0
 21 20  1  0
M  END
>  <NAME>  (4947) 
DIBUTYL 1-(N-TRIFLUOROACETYLAMINO)ETHYLPHOSPHONATE

>  <SYNONYMS>  (4947) 


>  <SPECTRUM TYPE>  (4947) 
MS1

>  <INSTRUMENT TYPE>  (4947) 
EI-B

>  <INSTRUMENT>  (4947) 
SHIMADZU LKB-9000B

>  <ION MODE>  (4947) 
P

>  <INCHIKEY>  (4947) 
KXEFGAZWYZRDOU-UHFFFAOYSA-N

>  <FORMULA>  (4947) 
C12H23F3NO4P

>  <EXACT MASS>  (4947) 
333.13167950600007

>  <MW>  (4947) 
333

>  <ID>  (4947) 
JP004540

>  <CONTRIBUTOR>  (4947) 
University of Tokyo Team, {Faculty of Engineering, University of Tokyo

>  <COMMENT>  (4947) 
SMILES=CCCCOP(=O)(OCCCC)C(C)NC(=O)C(F)(F)F
InChI=InChI=1S/C12H23F3NO4P/c1-4-6-8-19-21(18,20-9-7-5-2)10(3)16-11(17)12(13,14)15/h10H,4-9H2,1-3H3,(H,16,17)
computed SMILES=O=P(OCCCC)(OCCCC)C(N=C(O)C(F)(F)F)C
accession=JP004540
date=2016.01.19 (Created 2008.10.21, modified 2011.05.06)
author=HAYASHI A, DEPT. OF CHEMISTRY, FAC. OF SCI. AND TECHNOLOGY, KINKI UNIV.
license=CC BY-NC-SA
exact mass=333.13168
ionization energy=70 eV
ion type=[M]+*
computed spectral entropy=2.926422093282849
computed normalized entropy=0.7090687678809072
SPLASH=splash10-001c-3910000000-30e1e948970a0c173c2f
submitter=submitter = University of Tokyo Team (Faculty of Engineering, University of Tokyo)
MoNA Rating=3.75

>  <NUM PEAKS>  (4947) 
62

>  <MASS SPECTRAL PEAKS>  (4947) 
57 2
65 1
69 3.7
70 0.33
72 1.3
82 9.5
83 99.9
84 0.27
86 1.8
91 1
92 4.1
93 0.22
96 2.3
97 2.6
99 23.2
106 0.2
109 7.7
110 4.7
111 2.7
113 0.13
121 1.3
122 1.9
123 69.4
124 1.15
125 2.1
126 1.6
127 1.1
136 0.53
137 9.5
138 72.3
139 99.7
140 99.99
141 18.5
142 1
152 14.4
153 0.14
155 15.5
164 1.1
165 1.8
179 0.64
192 1.7
194 23.6
195 2.3
201 0.14
203 2
204 37.6
205 2
206 0.37
208 1.6
211 7.9
221 11.4
222 5.72
223 2.9
248 2.3
260 5.6
264 0.12
277 2.2
278 10.8
279 1
333 0.15
334 15.9
335 2

$$$$

     RDKit          2D

 20 19  0  0  0  0  0  0  0  0999 V2000
    4.1060    4.1381    0.0000 C   0  0  0  0  0  0  0  0  0  0  0  0
   -8.8843    4.1381    0.0000 C   0  0  0  0  0  0  0  0  0  0  0  0
    2.8070    4.8881    0.0000 C   0  0  0  0  0  0  0  0  0  0  0  0
   -7.5853    4.8881    0.0000 C   0  0  0  0  0  0  0  0  0  0  0  0
    1.5080    4.1381    0.0000 C   0  0  0  0  0  0  0  0  0  0  0  0
   -6.2863    4.1381    0.0000 C   0  0  0  0  0  0  0  0  0  0  0  0
    0.2089    4.8881    0.0000 C   0  0  0  0  0  0  0  0  0  0  0  0
   -4.9872    4.8881    0.0000 C   0  0  0  0  0  0  0  0  0  0  0  0
   -1.4250    6.0372    0.0000 C   0  0  0  0  0  0  0  0  0  0  0  0
   -0.9738    8.5958    0.0000 C   0  0  0  0  0  0  0  0  0  0  0  0
   -1.4868   10.0053    0.0000 C   0  0  0  0  0  0  0  0  0  0  0  0
   -0.0773   10.5184    0.0000 F   0  0  0  0  0  0  0  0  0  0  0  0
   -1.9999   11.4149    0.0000 F   0  0  0  0  0  0  0  0  0  0  0  0
   -2.8964    9.4923    0.0000 F   0  0  0  0  0  0  0  0  0  0  0  0
   -1.9380    7.4467    0.0000 N   0  0  0  0  0  0  0  0  0  0  0  0
    0.5034    8.3353    0.0000 O   0  0  0  0  0  0  0  0  0  0  0  0
   -3.3533    6.0372    0.0000 O   0  0  0  0  0  0  0  0  0  0  0  0
   -1.0901    4.1381    0.0000 O   0  0  0  0  0  0  0  0  0  0  0  0
   -3.6882    4.1381    0.0000 O   0  0  0  0  0  0  0  0  0  0  0  0
   -2.3892    4.8881    0.0000 P   0  0  0  0  0  0  0  0  0  0  0  0
  3  1  1  0
  4  2  1  0
  5  3  1  0
  6  4  1  0
  7  5  1  0
  8  6  1  0
 11 10  1  0
 12 11  1  0
 13 11  1  0
 14 11  1  0
 15  9  1  0
 15 10  2  3
 16 10  1  0
 18  7  1  0
 19  8  1  0
 20  9  1  0
 20 17  2  0
 20 18  1  0
 20 19  1  0
M  END
>  <NAME>  (4948) 
(N-TRIFLUOROACETYLAMINO)METHYLPHOSPHONIC ACID DIBUTYL ESTER

>  <SYNONYMS>  (4948) 


>  <SPECTRUM TYPE>  (4948) 
MS1

>  <INSTRUMENT TYPE>  (4948) 
EI-B

>  <INSTRUMENT>  (4948) 
SHIMADZU LKB-9000B

>  <ION MODE>  (4948) 
P

>  <INCHIKEY>  (4948) 
DGEWAUAVZKJTCG-UHFFFAOYSA-N

>  <FORMULA>  (4948) 
C11H21F3NO4P

>  <EXACT MASS>  (4948) 
319.116029442

>  <MW>  (4948) 
319

>  <ID>  (4948) 
JP004538

>  <CONTRIBUTOR>  (4948) 
University of Tokyo Team, {Faculty of Engineering, University of Tokyo

>  <COMMENT>  (4948) 
SMILES=CCCCOP(=O)(OCCCC)CNC(=O)C(F)(F)F
InChI=InChI=1S/C11H21F3NO4P/c1-3-5-7-18-20(17,19-8-6-4-2)9-15-10(16)11(12,13)14/h3-9H2,1-2H3,(H,15,16)
computed SMILES=O=P(OCCCC)(OCCCC)CN=C(O)C(F)(F)F
accession=JP004538
date=2016.01.19 (Created 2008.10.21, modified 2011.05.06)
author=HAYASHI A, DEPT. OF CHEMISTRY, FAC. OF SCI. AND TECHNOLOGY, KINKI UNIV.
license=CC BY-NC-SA
exact mass=319.11603
ionization energy=70 eV
ion type=[M]+*
computed spectral entropy=3.1091328550015995
computed normalized entropy=0.7420976301015664
SPLASH=splash10-0a4r-2960000000-1946ea9923708f838896
submitter=submitter = University of Tokyo Team (Faculty of Engineering, University of Tokyo)
MoNA Rating=3.75

>  <NUM PEAKS>  (4948) 
66

>  <MASS SPECTRAL PEAKS>  (4948) 
56 1.2
57 4.8
65 1.8
69 0.4
78 4.5
82 4.1
83 28
84 0.54
86 3.3
94 6.5
95 1.9
96 0.27
97 3.2
98 1
99 13.2
106 0.16
109 68.6
110 10.5
111 2.4
112 0.27
113 3.5
119 1.2
121 1.3
122 0.86
123 6.1
124 1.2
125 1.3
126 8.23
127 26.1
128 1.4
136 1.2
137 3.89
138 75.7
139 18.6
140 1.6
150 0.15
155 3.5
165 2
169 1.4
178 0.46
187 8.1
188 1.2
189 2.2
190 9.53
191 5.7
192 1.4
194 13.1
195 0.1
199 1.4
206 1.8
207 99.99
208 9.88
209 13.8
210 2.9
211 1.5
234 0.69
235 1.8
236 2.2
246 9.2
250 0.95
251 1
263 7.1
264 52.4
265 0.43
320 13.4
321 1.7

$$$$

     RDKit          2D

 16 16  0  0  1  0  0  0  0  0999 V2000
   -3.9076    4.0204    0.0000 C   0  0  0  0  0  0  0  0  0  0  0  0
    1.2816   -3.4843    0.0000 C   0  0  0  0  0  0  0  0  0  0  0  0
    3.9081   -0.4716    0.0000 C   0  0  0  0  0  0  0  0  0  0  0  0
    3.9081    1.0290    0.0000 C   0  0  0  0  0  0  0  0  0  0  0  0
   -2.6089    1.7702    0.0000 C   0  0  0  0  0  0  0  0  0  0  0  0
   -1.3100    1.0200    0.0000 C   0  0  0  0  0  0  0  0  0  0  0  0
   -1.3100   -0.4700    0.0000 C   0  0  0  0  0  0  0  0  0  0  0  0
   -0.0100   -1.2300    0.0000 C   0  0  0  0  0  0  0  0  0  0  0  0
    1.3100   -0.4700    0.0000 C   0  0  0  0  0  0  0  0  0  0  0  0
    1.3100    1.0200    0.0000 C   0  0  0  0  0  0  0  0  0  0  0  0
   -2.6111   -1.2165    0.0000 O   0  0  0  0  0  0  0  0  0  0  0  0
   -2.6087    3.2702    0.0000 O   0  0  0  0  0  0  0  0  0  0  0  0
   -0.0150   -2.7300    0.0000 O   0  0  0  0  0  0  0  0  0  0  0  0
    2.6086   -1.2208    0.0000 O   0  0  0  0  0  0  0  0  0  0  0  0
    2.6064    1.7745    0.0000 O   0  0  0  0  0  0  0  0  0  0  0  0
   -0.0100    1.7700    0.0000 O   0  0  0  0  0  0  0  0  0  0  0  0
  6  5  1  1
  7  6  1  0
  8  7  1  0
  9  8  1  0
 10  9  1  0
  7 11  1  6
 12  1  1  0
 12  5  1  0
 13  2  1  0
  8 13  1  1
 14  3  1  0
  9 14  1  6
 15  4  1  0
 10 15  1  6
 16  6  1  0
 16 10  1  0
M  END
>  <NAME>  (4949) 
METHYL 2,3,6-TRI-O-METHYLGLUCOPYRANOSIDE

>  <SYNONYMS>  (4949) 


>  <SPECTRUM TYPE>  (4949) 
MS1

>  <INSTRUMENT TYPE>  (4949) 
EI-B

>  <INSTRUMENT>  (4949) 
SHIMADZU LKB-9000B

>  <ION MODE>  (4949) 
P

>  <INCHIKEY>  (4949) 
WMAJFVGSEYZPMZ-SPFKKGSWSA-N

>  <FORMULA>  (4949) 
C10H20O6

>  <EXACT MASS>  (4949) 
236.12598835999998

>  <MW>  (4949) 
236

>  <ID>  (4949) 
JP004537

>  <CONTRIBUTOR>  (4949) 
University of Tokyo Team, {Faculty of Engineering, University of Tokyo

>  <COMMENT>  (4949) 
SMILES=COCC(O1)C(O)C(OC)C(OC)C(OC)1
cas=23009-68-9
InChI=InChI=1S/C10H20O6/c1-12-5-6-7(11)8(13-2)9(14-3)10(15-4)16-6/h6-11H,5H2,1-4H3/t6-,7-,8+,9-,10+/m1/s1
computed SMILES=OC1C(OC(OC)C(OC)C1OC)COC
accession=JP004537
date=2016.01.19 (Created 2008.10.21, modified 2011.05.06)
author=HAYASHI A, DEPT. OF CHEMISTRY, FAC. OF SCI. AND TECHNOLOGY, KINKI UNIV.
license=CC BY-NC-SA
exact mass=236.12599
ionization energy=70 eV
ion type=[M]+*
computed spectral entropy=2.5217791724913945
computed normalized entropy=0.6624646075842541
SPLASH=splash10-002r-9000000000-06f16f7d20f8a2c67a66
submitter=submitter = University of Tokyo Team (Faculty of Engineering, University of Tokyo)
MoNA Rating=3.75

>  <NUM PEAKS>  (4949) 
45

>  <MASS SPECTRAL PEAKS>  (4949) 
41 7
42 2.5
43 7.2
44 0.09
45 44.8
47 0.8
53 0.8
55 0.39
56 1.9
57 6.3
58 7.3
59 0.71
60 0.8
61 2.5
69 3
70 0.13
71 18.8
72 0.8
73 21.4
74 1.27
75 66
76 1
81 1
83 0.09
84 2.1
85 13.2
87 13.6
88 99.99
89 8
97 0.5
99 5.1
101 2.01
102 0.6
111 1.1
113 2.4
115 0.1
117 0.6
118 1.3
127 1.3
130 0.64
131 0.4
144 1.9
159 0.5
161 0.81
173 2.7

$$$$

     RDKit          2D

 13 13  0  0  1  0  0  0  0  0999 V2000
   -2.6089    1.7702    0.0000 C   0  0  0  0  0  0  0  0  0  0  0  0
    3.9081   -0.4716    0.0000 C   0  0  0  0  0  0  0  0  0  0  0  0
    2.6013    3.2745    0.0000 C   0  0  0  0  0  0  0  0  0  0  0  0
   -1.3100    1.0200    0.0000 C   0  0  0  0  0  0  0  0  0  0  0  0
   -1.3100   -0.4700    0.0000 C   0  0  0  0  0  0  0  0  0  0  0  0
   -0.0100   -1.2300    0.0000 C   0  0  0  0  0  0  0  0  0  0  0  0
    1.3100   -0.4700    0.0000 C   0  0  0  0  0  0  0  0  0  0  0  0
    1.3100    1.0200    0.0000 C   0  0  0  0  0  0  0  0  0  0  0  0
   -2.6111   -1.2165    0.0000 O   0  0  0  0  0  0  0  0  0  0  0  0
   -0.0150   -2.7300    0.0000 O   0  0  0  0  0  0  0  0  0  0  0  0
    2.6086   -1.2208    0.0000 O   0  0  0  0  0  0  0  0  0  0  0  0
    2.6064    1.7745    0.0000 O   0  0  0  0  0  0  0  0  0  0  0  0
   -0.0100    1.7700    0.0000 O   0  0  0  0  0  0  0  0  0  0  0  0
  4  1  1  1
  5  4  1  0
  6  5  1  0
  7  6  1  0
  8  7  1  0
  5  9  1  1
  6 10  1  1
 11  2  1  0
  7 11  1  6
 12  3  1  0
  8 12  1  6
 13  4  1  0
 13  8  1  0
M  END
>  <NAME>  (4950) 
METHYL 2-O-METHYLFUCOPYRANOSIDE

>  <SYNONYMS>  (4950) 


>  <SPECTRUM TYPE>  (4950) 
MS1

>  <INSTRUMENT TYPE>  (4950) 
EI-B

>  <INSTRUMENT>  (4950) 
SHIMADZU LKB-9000B

>  <ION MODE>  (4950) 
P

>  <INCHIKEY>  (4950) 
ZIRPXMSHWUAJJI-HNEXDWKRSA-N

>  <FORMULA>  (4950) 
C8H16O5

>  <EXACT MASS>  (4950) 
192.09977361199998

>  <MW>  (4950) 
192

>  <ID>  (4950) 
JP004536

>  <CONTRIBUTOR>  (4950) 
University of Tokyo Team, {Faculty of Engineering, University of Tokyo

>  <COMMENT>  (4950) 
SMILES=COC(O1)C(OC)C(O)C(O)C(C)1
InChI=InChI=1S/C8H16O5/c1-4-5(9)6(10)7(11-2)8(12-3)13-4/h4-10H,1-3H3/t4-,5+,6+,7-,8+/m1/s1
computed SMILES=OC1C(O)C(OC)C(OC)OC1C
accession=JP004536
date=2016.01.19 (Created 2008.10.21, modified 2011.05.06)
author=HAYASHI A, DEPT. OF CHEMISTRY, FAC. OF SCI. AND TECHNOLOGY, KINKI UNIV.
license=CC BY-NC-SA
exact mass=192.09977
ionization energy=70 eV
ion type=[M]+*
computed spectral entropy=2.8239470196509364
computed normalized entropy=0.725610846169307
SPLASH=splash10-05g0-9000000000-c1a6aab3399814688304
submitter=submitter = University of Tokyo Team (Faculty of Engineering, University of Tokyo)
MoNA Rating=3.75

>  <NUM PEAKS>  (4950) 
49

>  <MASS SPECTRAL PEAKS>  (4950) 
41 24.5
42 7.4
43 19
44 0.37
45 36.7
46 0.3
47 1.5
53 0.1
54 0.6
55 10.3
56 3.3
57 1.07
58 39
59 30.4
60 1.8
61 0.39
68 7.3
69 16.8
70 4.4
71 2.91
72 6.6
73 12.5
74 99.99
75 7.88
76 2.7
77 0.2
83 1.7
85 0.52
86 0.3
87 56.2
88 22.5
89 0.31
97 1.2
98 0.3
99 3.9
100 0.81
101 15.9
102 1.4
105 0.3
114 0.2
115 1
117 0.3
128 2.3
129 0.24
130 3.1
131 1
160 1.4
161 1.32
162 1.2

$$$$

     RDKit          2D

 15 15  0  0  1  0  0  0  0  0999 V2000
   -3.9076    4.0204    0.0000 C   0  0  0  0  0  0  0  0  0  0  0  0
   -2.6151   -2.7165    0.0000 C   0  0  0  0  0  0  0  0  0  0  0  0
    3.9081    1.0290    0.0000 C   0  0  0  0  0  0  0  0  0  0  0  0
   -2.6089    1.7702    0.0000 C   0  0  0  0  0  0  0  0  0  0  0  0
   -1.3100    1.0200    0.0000 C   0  0  0  0  0  0  0  0  0  0  0  0
   -0.0100   -1.2300    0.0000 C   0  0  0  0  0  0  0  0  0  0  0  0
    1.3100   -0.4700    0.0000 C   0  0  0  0  0  0  0  0  0  0  0  0
   -1.3100   -0.4700    0.0000 C   0  0  0  0  0  0  0  0  0  0  0  0
    1.3100    1.0200    0.0000 C   0  0  0  0  0  0  0  0  0  0  0  0
   -0.0150   -2.7300    0.0000 O   0  0  0  0  0  0  0  0  0  0  0  0
    2.6086   -1.2208    0.0000 O   0  0  0  0  0  0  0  0  0  0  0  0
   -2.6087    3.2702    0.0000 O   0  0  0  0  0  0  0  0  0  0  0  0
   -2.6111   -1.2165    0.0000 O   0  0  0  0  0  0  0  0  0  0  0  0
    2.6064    1.7745    0.0000 O   0  0  0  0  0  0  0  0  0  0  0  0
   -0.0100    1.7700    0.0000 O   0  0  0  0  0  0  0  0  0  0  0  0
  5  4  1  1
  7  6  1  0
  8  5  1  0
  8  6  1  0
  9  7  1  0
  6 10  1  1
  7 11  1  1
 12  1  1  0
 12  4  1  0
 13  2  1  0
  8 13  1  6
 14  3  1  0
  9 14  1  6
 15  5  1  0
 15  9  1  0
M  END
>  <NAME>  (4951) 
METHYL 4,6-DI-O-METHYLMANNOPYRANOSIDE

>  <SYNONYMS>  (4951) 


>  <SPECTRUM TYPE>  (4951) 
MS1

>  <INSTRUMENT TYPE>  (4951) 
EI-B

>  <INSTRUMENT>  (4951) 
SHIMADZU LKB-9000B

>  <ION MODE>  (4951) 
P

>  <INCHIKEY>  (4951) 
UKSOTSKNRMTYIO-ZEBDFXRSSA-N

>  <FORMULA>  (4951) 
C9H18O6

>  <EXACT MASS>  (4951) 
222.11033829599998

>  <MW>  (4951) 
222

>  <ID>  (4951) 
JP004535

>  <CONTRIBUTOR>  (4951) 
University of Tokyo Team, {Faculty of Engineering, University of Tokyo

>  <COMMENT>  (4951) 
SMILES=COCC(O1)C(OC)C(O)C(O)C(OC)1
InChI=InChI=1S/C9H18O6/c1-12-4-5-8(13-2)6(10)7(11)9(14-3)15-5/h5-11H,4H2,1-3H3/t5-,6-,7+,8-,9+/m1/s1
computed SMILES=OC1C(OC)OC(COC)C(OC)C1O
accession=JP004535
date=2016.01.19 (Created 2008.10.21, modified 2011.05.06)
author=HAYASHI A, DEPT. OF CHEMISTRY, FAC. OF SCI. AND TECHNOLOGY, KINKI UNIV.
license=CC BY-NC-SA
exact mass=222.11034
ionization energy=70 eV
ion type=[M]+*
computed spectral entropy=2.9555766065823397
computed normalized entropy=0.7133672452781911
SPLASH=splash10-00di-9100000000-4c27a89d90f342329fa8
submitter=submitter = University of Tokyo Team (Faculty of Engineering, University of Tokyo)
MoNA Rating=3.75

>  <NUM PEAKS>  (4951) 
63

>  <MASS SPECTRAL PEAKS>  (4951) 
40 2.9
41 21.2
42 7.6
43 1.43
44 3.7
45 97.3
46 1.1
53 0.24
54 0.7
55 7.1
56 5
57 0.99
58 12
59 21.2
60 15.1
61 0.87
68 1.4
69 10.9
70 6.1
71 99.99
72 13
73 13.7
74 95.5
75 3.95
76 1.5
77 1.2
81 2
83 0.16
84 0.6
85 10.1
86 2.3
87 7.46
88 16.3
89 5.8
97 1.5
98 0.12
99 9.8
100 3.2
101 19.5
102 2.58
103 6.1
104 0.7
105 1.6
111 0.25
112 2
113 2.2
114 0.9
115 0.17
116 1.9
117 3.9
118 3.3
119 0.22
127 3.3
129 0.9
130 2.4
131 0.22
135 0.5
145 2
147 1.3
149 1.59
159 2.9
187 0.5
191 0.7

$$$$

     RDKit          2D

 14 14  0  0  1  0  0  0  0  0999 V2000
   -4.1581   -0.3004    0.0000 C   0  0  0  0  0  0  0  0  0  0  0  0
    1.0390   -3.3000    0.0000 C   0  0  0  0  0  0  0  0  0  0  0  0
    3.6381   -0.3004    0.0000 C   0  0  0  0  0  0  0  0  0  0  0  0
    2.3387    3.4502    0.0000 C   0  0  0  0  0  0  0  0  0  0  0  0
   -1.5600    1.2000    0.0000 C   0  0  0  0  0  0  0  0  0  0  0  0
   -1.5600   -0.3000    0.0000 C   0  0  0  0  0  0  0  0  0  0  0  0
   -0.2600   -1.0500    0.0000 C   0  0  0  0  0  0  0  0  0  0  0  0
    1.0400   -0.3000    0.0000 C   0  0  0  0  0  0  0  0  0  0  0  0
    1.0400    1.2000    0.0000 C   0  0  0  0  0  0  0  0  0  0  0  0
   -2.8589   -1.0502    0.0000 O   0  0  0  0  0  0  0  0  0  0  0  0
   -0.2600   -2.5500    0.0000 O   0  0  0  0  0  0  0  0  0  0  0  0
    2.3389   -1.0502    0.0000 O   0  0  0  0  0  0  0  0  0  0  0  0
    2.3389    1.9502    0.0000 O   0  0  0  0  0  0  0  0  0  0  0  0
   -0.2600    1.9500    0.0000 O   0  0  0  0  0  0  0  0  0  0  0  0
  6  5  1  0
  7  6  1  0
  8  7  1  0
  9  8  1  0
 10  1  1  0
  6 10  1  6
 11  2  1  0
  7 11  1  1
 12  3  1  0
  8 12  1  6
 13  4  1  0
  9 13  1  1
 14  5  1  0
 14  9  1  0
M  END
>  <NAME>  (4952) 
METHYL 2,3,4-TRI-O-METHYLXYLOPYRANOSIDE

>  <SYNONYMS>  (4952) 


>  <SPECTRUM TYPE>  (4952) 
MS1

>  <INSTRUMENT TYPE>  (4952) 
EI-B

>  <INSTRUMENT>  (4952) 
SHIMADZU LKB-9000B

>  <ION MODE>  (4952) 
P

>  <INCHIKEY>  (4952) 
OQFUMNZJTHPYPI-BZNPZCIMSA-N

>  <FORMULA>  (4952) 
C9H18O5

>  <EXACT MASS>  (4952) 
206.11542367599998

>  <MW>  (4952) 
206

>  <ID>  (4952) 
JP004534

>  <CONTRIBUTOR>  (4952) 
University of Tokyo Team, {Faculty of Engineering, University of Tokyo

>  <COMMENT>  (4952) 
SMILES=COC(C1)C(OC)C(OC)C(OC)O1
InChI=InChI=1S/C9H18O5/c1-10-6-5-14-9(13-4)8(12-3)7(6)11-2/h6-9H,5H2,1-4H3/t6-,7+,8-,9-/m1/s1
computed SMILES=O(C)C1OCC(OC)C(OC)C1OC
accession=JP004534
date=2016.01.19 (Created 2008.10.21, modified 2011.05.06)
author=HAYASHI A, DEPT. OF CHEMISTRY, FAC. OF SCI. AND TECHNOLOGY, KINKI UNIV.
license=CC BY-NC-SA
exact mass=206.11542
ionization energy=70 eV
ion type=[M]+*
computed spectral entropy=2.476831285762537
computed normalized entropy=0.658521538226054
SPLASH=splash10-000i-9100000000-e7974395f523d173965f
submitter=submitter = University of Tokyo Team (Faculty of Engineering, University of Tokyo)
MoNA Rating=3.75

>  <NUM PEAKS>  (4952) 
43

>  <MASS SPECTRAL PEAKS>  (4952) 
41 8.9
42 1.8
43 6.7
44 0.06
45 29.7
46 0.4
47 1.8
53 0.15
54 0.2
55 4.1
56 1.3
57 0.22
58 10.3
59 4.5
61 0.1
68 0.13
69 3
71 7.3
72 0.8
73 3.02
74 3
75 44.2
76 0.7
83 0.31
84 0.2
85 4
87 1.9
88 99.99
89 5.4
98 0.2
99 4.5
101 9.52
102 5.1
103 0.4
105 0.5
111 0.04
114 0.5
115 5.7
116 0.6
131 0.05
143 2.6
175 3.4
176 6.8

$$$$

     RDKit          2D

 13 13  0  0  1  0  0  0  0  0999 V2000
   -1.5590   -3.3000    0.0000 C   0  0  0  0  0  0  0  0  0  0  0  0
    3.6381   -0.3004    0.0000 C   0  0  0  0  0  0  0  0  0  0  0  0
    2.3387    3.4502    0.0000 C   0  0  0  0  0  0  0  0  0  0  0  0
   -1.5600    1.2000    0.0000 C   0  0  0  0  0  0  0  0  0  0  0  0
   -1.5600   -0.3000    0.0000 C   0  0  0  0  0  0  0  0  0  0  0  0
   -0.2600   -1.0500    0.0000 C   0  0  0  0  0  0  0  0  0  0  0  0
    1.0400   -0.3000    0.0000 C   0  0  0  0  0  0  0  0  0  0  0  0
    1.0400    1.2000    0.0000 C   0  0  0  0  0  0  0  0  0  0  0  0
   -2.8589   -1.0502    0.0000 O   0  0  0  0  0  0  0  0  0  0  0  0
   -0.2600   -2.5500    0.0000 O   0  0  0  0  0  0  0  0  0  0  0  0
    2.3389   -1.0502    0.0000 O   0  0  0  0  0  0  0  0  0  0  0  0
    2.3389    1.9502    0.0000 O   0  0  0  0  0  0  0  0  0  0  0  0
   -0.2600    1.9500    0.0000 O   0  0  0  0  0  0  0  0  0  0  0  0
  5  4  1  0
  6  5  1  0
  7  6  1  0
  8  7  1  0
  5  9  1  6
 10  1  1  0
  6 10  1  1
 11  2  1  0
  7 11  1  6
 12  3  1  0
  8 12  1  6
 13  4  1  0
 13  8  1  0
M  END
>  <NAME>  (4953) 
METHYL 2,3-DI-O-METHYLXYLOPYRANOSIDE

>  <SYNONYMS>  (4953) 


>  <SPECTRUM TYPE>  (4953) 
MS1

>  <INSTRUMENT TYPE>  (4953) 
EI-B

>  <INSTRUMENT>  (4953) 
SHIMADZU LKB-9000B

>  <ION MODE>  (4953) 
P

>  <INCHIKEY>  (4953) 
XOUFXMJHIWGWKK-CWKFCGSDSA-N

>  <FORMULA>  (4953) 
C8H16O5

>  <EXACT MASS>  (4953) 
192.099773612

>  <MW>  (4953) 
192

>  <ID>  (4953) 
JP004533

>  <CONTRIBUTOR>  (4953) 
University of Tokyo Team, {Faculty of Engineering, University of Tokyo

>  <COMMENT>  (4953) 
SMILES=COC(O1)C(OC)C(OC)C(O)C1
InChI=InChI=1S/C8H16O5/c1-10-6-5(9)4-13-8(12-3)7(6)11-2/h5-9H,4H2,1-3H3/t5-,6+,7-,8+/m1/s1
computed SMILES=OC1COC(OC)C(OC)C1OC
accession=JP004533
date=2016.01.19 (Created 2008.10.21, modified 2011.05.06)
author=HAYASHI A, DEPT. OF CHEMISTRY, FAC. OF SCI. AND TECHNOLOGY, KINKI UNIV.
license=CC BY-NC-SA
exact mass=192.09977
ionization energy=70 eV
ion type=[M]+*
computed spectral entropy=2.2338244303813974
computed normalized entropy=0.6334645634749855
SPLASH=splash10-000i-9100000000-43708f4a926dcf7996e3
submitter=submitter = University of Tokyo Team (Faculty of Engineering, University of Tokyo)
MoNA Rating=3.75

>  <NUM PEAKS>  (4953) 
34

>  <MASS SPECTRAL PEAKS>  (4953) 
45 16.9
47 0.8
53 1.1
55 0.43
56 0.6
57 4.3
59 5.1
67 0.07
69 1.3
71 3.8
72 11.7
73 1.84
74 2.4
75 38.4
76 0.6
83 0.06
85 3.2
88 99.99
89 5.7
97 0.25
99 1
101 24.6
102 1
111 0.04
114 0.8
115 0.2
119 2.8
129 0.75
131 2.9
176 2.3
410 7.8
420 1.6
430 7.3
440 0.06

$$$$

     RDKit          2D

 29 28  0  0  1  0  0  0  0  0999 V2000
  -19.9611   11.7255    0.0000 C   0  0  0  0  0  0  0  0  0  0  0  0
    3.9707    9.6764    0.0000 C   0  0  0  0  0  0  0  0  0  0  0  0
    6.0197   10.2255    0.0000 C   0  0  0  0  0  0  0  0  0  0  0  0
    5.4707   12.2745    0.0000 C   0  0  0  0  0  0  0  0  0  0  0  0
    0.0736    7.4264    0.0000 C   0  0  0  0  0  0  0  0  0  0  0  0
    2.1226    7.9755    0.0000 C   0  0  0  0  0  0  0  0  0  0  0  0
    1.5736   10.0245    0.0000 C   0  0  0  0  0  0  0  0  0  0  0  0
  -18.6620   10.9755    0.0000 C   0  0  0  0  0  0  0  0  0  0  0  0
  -17.3630   11.7255    0.0000 C   0  0  0  0  0  0  0  0  0  0  0  0
  -16.0639   10.9755    0.0000 C   0  0  0  0  0  0  0  0  0  0  0  0
  -14.7649   11.7255    0.0000 C   0  0  0  0  0  0  0  0  0  0  0  0
  -13.4659   10.9755    0.0000 C   0  0  0  0  0  0  0  0  0  0  0  0
  -12.1668   11.7255    0.0000 C   0  0  0  0  0  0  0  0  0  0  0  0
  -10.8678   10.9755    0.0000 C   0  0  0  0  0  0  0  0  0  0  0  0
   -9.5687   11.7255    0.0000 C   0  0  0  0  0  0  0  0  0  0  0  0
   -8.2697   10.9755    0.0000 C   0  0  0  0  0  0  0  0  0  0  0  0
   -6.9707   11.7255    0.0000 C   0  0  0  0  0  0  0  0  0  0  0  0
   -5.6716   10.9755    0.0000 C   0  0  0  0  0  0  0  0  0  0  0  0
   -4.3726   11.7255    0.0000 C   0  0  0  0  0  0  0  0  0  0  0  0
   -3.0736   10.9755    0.0000 C   0  0  0  0  0  0  0  0  0  0  0  0
   -1.7745   11.7255    0.0000 C   0  0  0  0  0  0  0  0  0  0  0  0
    2.1226   10.9755    0.0000 C   0  0  0  0  0  0  0  0  0  0  0  0
    0.8236   11.7255    0.0000 C   0  0  0  0  0  0  0  0  0  0  0  0
   -0.4755   10.9755    0.0000 C   0  0  0  0  0  0  0  0  0  0  0  0
    0.8236   13.2255    0.0000 N   0  0  0  0  0  0  0  0  0  0  0  0
    3.4216   11.7255    0.0000 O   0  0  0  0  0  0  0  0  0  0  0  0
   -0.4755    9.4755    0.0000 O   0  0  0  0  0  0  0  0  0  0  0  0
    4.7207   10.9755    0.0000 Si  0  0  0  0  0  4  0  0  0  0  0  0
    0.8236    8.7255    0.0000 Si  0  0  0  0  0  4  0  0  0  0  0  0
  8  1  1  0
  9  8  1  0
 10  9  1  0
 11 10  1  0
 12 11  1  0
 13 12  1  0
 14 13  1  0
 15 14  1  0
 16 15  1  0
 17 16  1  0
 18 17  1  0
 19 18  1  0
 20 19  1  0
 21 20  1  0
 23 22  1  0
 24 21  1  6
 24 23  1  0
 23 25  1  1
 26 22  1  0
 24 27  1  0
 28  2  1  0
 28  3  1  0
 28  4  1  0
 28 26  1  0
 29  5  1  0
 29  6  1  0
 29  7  1  0
 29 27  1  0
M  END
>  <NAME>  (4954) 
1,3-DI-O-TRIMETHYLSILYLOCTADECASPHINGANINE

>  <SYNONYMS>  (4954) 


>  <SPECTRUM TYPE>  (4954) 
MS1

>  <INSTRUMENT TYPE>  (4954) 
EI-B

>  <INSTRUMENT>  (4954) 
SHIMADZU LKB-9000B

>  <ION MODE>  (4954) 
P

>  <INCHIKEY>  (4954) 
NWWZXRAARCRWNA-BJKOFHAPSA-N

>  <FORMULA>  (4954) 
C24H55NO2Si2

>  <EXACT MASS>  (4954) 
445.37713306

>  <MW>  (4954) 
445

>  <ID>  (4954) 
JP004532

>  <CONTRIBUTOR>  (4954) 
University of Tokyo Team, {Faculty of Engineering, University of Tokyo

>  <COMMENT>  (4954) 
SMILES=CCCCCCCCCCCCCCCC([H])(O[Si](C)(C)C)C([H])(N)CO[Si](C)(C)C
InChI=InChI=1S/C24H55NO2Si2/c1-8-9-10-11-12-13-14-15-16-17-18-19-20-21-24(27-29(5,6)7)23(25)22-26-28(2,3)4/h23-24H,8-22,25H2,1-7H3/t23-,24+/m0/s1
computed SMILES=O(CC(N)C(O[Si](C)(C)C)CCCCCCCCCCCCCCC)[Si](C)(C)C
accession=JP004532
date=2016.01.19 (Created 2008.10.21, modified 2011.05.06)
author=HAYASHI A, DEPT. OF CHEMISTRY, FAC. OF SCI. AND TECHNOLOGY, KINKI UNIV.
license=CC BY-NC-SA
exact mass=445.37713
ionization energy=70 eV
ion type=[M]+*
computed spectral entropy=3.6509560340248957
computed normalized entropy=0.7549096815008153
SPLASH=splash10-001i-8902000000-a1a5db79576031966009
submitter=submitter = University of Tokyo Team (Faculty of Engineering, University of Tokyo)
MoNA Rating=3.75

>  <NUM PEAKS>  (4954) 
126

>  <MASS SPECTRAL PEAKS>  (4954) 
30 3.6
36 1.5
39 2.6
41 1.14
42 3.4
43 16.9
44 1.7
45 0.65
47 2.4
53 1.5
54 2.6
55 1.09
56 5.5
57 9.9
58 1.6
59 0.42
60 1.3
61 2
66 1.3
67 0.51
68 4.2
69 8.1
70 3.8
71 0.39
72 2.2
73 49.8
74 7.2
75 3.24
76 3.3
77 1.9
79 1.5
80 0.14
81 4.7
82 5.6
84 2.9
86 0.12
88 1.8
89 1.9
91 2
93 0.25
94 1.2
95 4.2
96 4.5
97 0.46
98 1.7
99 1.4
100 2.1
101 0.27
102 2.2
103 5.6
104 1.2
105 0.11
107 1.1
108 1.1
109 2.1
110 0.19
111 2.1
112 1.4
113 1.3
114 0.15
115 3.9
116 19.3
117 2.8
118 0.14
123 1.2
124 1.4
125 1.1
126 0.09
128 1.6
129 13.7
130 3.2
131 0.75
132 99.99
133 12.1
134 4.4
135 0.1
138 1.1
142 1.4
143 2.3
144 0.2
145 1.3
147 4.1
148 1.3
149 0.14
155 1.1
158 1
171 1
185 0.12
204 1.3
207 0.9
217 1.5
218 0.09
219 0.9
221 0.8
222 1.1
233 0.08
234 1
240 1
250 0.9
252 0.22
253 0.9
266 1
269 0.7
281 0.05
297 1.8
298 0.7
299 0.8
307 0.07
309 0.9
311 0.8
312 1.1
313 0.57
314 1.9
315 0.8
324 1.2
325 0.11
326 1.7
327 0.8
340 2.4
341 0.15
342 17
343 17
344 4.8
354 0.07
401 10
430 1.1

$$$$

     RDKit          2D

 10 10  0  0  0  0  0  0  0  0999 V2000
   -2.6818    2.7673    0.0000 C   0  0  0  0  0  0  0  0  0  0  0  0
   -0.5936    2.5218    0.0000 C   0  0  0  0  0  0  0  0  0  0  0  0
    0.7500    1.0300    0.0000 C   0  0  0  0  0  0  0  0  0  0  0  0
   -1.2100   -0.3900    0.0000 C   0  0  0  0  0  0  0  0  0  0  0  0
   -2.2174    1.3410    0.0000 C   0  0  0  0  0  0  0  0  0  0  0  0
    1.2100   -0.3900    0.0000 C   0  0  0  0  0  0  0  0  0  0  0  0
   -0.7500    1.0300    0.0000 C   0  0  0  0  0  0  0  0  0  0  0  0
   -3.2204    0.2257    0.0000 O   0  0  0  0  0  0  0  0  0  0  0  0
    2.6377   -0.8500    0.0000 O   0  0  0  0  0  0  0  0  0  0  0  0
   -0.0000   -1.2800    0.0000 O   0  0  0  0  0  0  0  0  0  0  0  0
  5  1  1  0
  6  3  1  0
  7  2  1  0
  7  3  1  0
  7  4  1  0
  7  5  1  0
  8  5  2  0
  9  6  2  0
 10  4  1  0
 10  6  1  0
M  END
>  <NAME>  (4955) 
3-ACETYL-3-METHYL-GAMMA-BUTYROLACTONE

>  <SYNONYMS>  (4955) 


>  <SPECTRUM TYPE>  (4955) 
MS1

>  <INSTRUMENT TYPE>  (4955) 
EI-B

>  <INSTRUMENT>  (4955) 
HITACHI RMU-6E

>  <ION MODE>  (4955) 
P

>  <INCHIKEY>  (4955) 
ZKYRRHDKDZNOQB-UHFFFAOYSA-N

>  <FORMULA>  (4955) 
C7H10O3

>  <EXACT MASS>  (4955) 
142.06299417999998

>  <MW>  (4955) 
142

>  <ID>  (4955) 
JP004531

>  <CONTRIBUTOR>  (4955) 
University of Tokyo Team, {Faculty of Engineering, University of Tokyo

>  <COMMENT>  (4955) 
SMILES=CC(=O)C(C)(C1)CC(=O)O1
InChI=InChI=1S/C7H10O3/c1-5(8)7(2)3-6(9)10-4-7/h3-4H2,1-2H3
computed SMILES=O=C1OCC(C(=O)C)(C)C1
accession=JP004531
date=2016.01.19 (Created 2008.10.21, modified 2011.05.06)
license=CC BY-NC-SA
author=MASS SPECTROSCOPY SOC. OF JAPAN (MSSJ)
exact mass=142.06299
ionization energy=70 eV
ion type=[M]+*
computed spectral entropy=2.952667224391634
computed normalized entropy=0.6611571814605908
SPLASH=splash10-0f6x-9300000000-a5f2ef220248cf540cf8
submitter=submitter = University of Tokyo Team (Faculty of Engineering, University of Tokyo)
MoNA Rating=3.75

>  <NUM PEAKS>  (4955) 
87

>  <MASS SPECTRAL PEAKS>  (4955) 
25 0.3
26 3.1
27 13.6
28 0.7
29 10.4
30 0.9
31 3.2
32 0.15
37 0.9
38 2.2
39 19.4
40 0.4
41 29.6
42 6
43 96
44 0.35
45 2.2
50 2
51 2.7
52 0.12
53 6
54 8
55 36.6
56 0.88
57 2.9
58 3.1
59 2.4
60 0.03
61 0.2
65 0.8
66 0.7
67 0.28
68 2.5
69 19.6
70 1.7
71 0.32
72 1.5
73 1.5
74 0.3
75 0.02
77 0.4
78 0.1
79 0.8
80 0.02
81 2.2
82 12.8
83 6.2
84 0.11
85 15
86 8
87 0.6
88 0.04
91 0.3
93 0.3
95 0.8
96 0.26
97 4.3
98 1.9
99 28.4
100 99.99
101 6.2
102 0.7
103 0.1
107 0.02
108 0.2
109 0.9
110 4.4
111 0.92
112 0.9
113 1
114 0.7
115 0.02
121 0.2
122 0.1
123 0.2
124 0.06
125 0.2
126 0.1
127 0.4
128 0.09
129 0.2
130 0.1
140 0.2
141 0.06
142 5
143 1.6
144 0.3

$$$$

     RDKit          2D

 36 36  0  0  1  0  0  0  0  0999 V2000
   -0.0980    5.2133    0.0000 C   0  0  0  0  0  0  0  0  0  0  0  0
   -2.1471    4.6642    0.0000 C   0  0  0  0  0  0  0  0  0  0  0  0
   -1.5980    2.6152    0.0000 C   0  0  0  0  0  0  0  0  0  0  0  0
   -4.1968    2.2138    0.0000 C   0  0  0  0  0  0  0  0  0  0  0  0
   -4.7462    0.1649    0.0000 C   0  0  0  0  0  0  0  0  0  0  0  0
   -2.6973   -0.3845    0.0000 C   0  0  0  0  0  0  0  0  0  0  0  0
    3.5993   -0.3845    0.0000 C   0  0  0  0  0  0  0  0  0  0  0  0
    5.6483    0.1649    0.0000 C   0  0  0  0  0  0  0  0  0  0  0  0
    5.0989    2.2138    0.0000 C   0  0  0  0  0  0  0  0  0  0  0  0
   -4.4469   -2.4803    0.0000 C   0  0  0  0  0  0  0  0  0  0  0  0
   -3.4825   -4.1501    0.0000 C   0  0  0  0  0  0  0  0  0  0  0  0
   -1.4924   -3.0007    0.0000 C   0  0  0  0  0  0  0  0  0  0  0  0
    4.5497   -2.8362    0.0000 C   0  0  0  0  0  0  0  0  0  0  0  0
    3.0495   -4.3360    0.0000 C   0  0  0  0  0  0  0  0  0  0  0  0
    1.5497   -2.8357    0.0000 C   0  0  0  0  0  0  0  0  0  0  0  0
   -0.8480   -2.0858    0.0000 C   0  0  0  0  0  0  0  0  0  0  0  0
   -2.1471   -4.3358    0.0000 C   0  0  0  0  0  0  0  0  0  0  0  0
   -0.0980   -4.8848    0.0000 C   0  0  0  0  0  0  0  0  0  0  0  0
    0.4510    1.6642    0.0000 C   0  0  0  0  0  0  0  0  0  0  0  0
   -0.8490    0.9142    0.0000 C   0  0  0  0  0  0  0  0  0  0  0  0
    1.7510    0.9142    0.0000 C   0  0  0  0  0  0  0  0  0  0  0  0
   -0.8490   -0.5858    0.0000 C   0  0  0  0  0  0  0  0  0  0  0  0
    1.7510   -0.5858    0.0000 C   0  0  0  0  0  0  0  0  0  0  0  0
    0.4510   -1.3358    0.0000 C   0  0  0  0  0  0  0  0  0  0  0  0
    0.4510    3.1642    0.0000 O   0  0  0  0  0  0  0  0  0  0  0  0
   -2.1479    1.6645    0.0000 O   0  0  0  0  0  0  0  0  0  0  0  0
    3.0499    1.6645    0.0000 O   0  0  0  0  0  0  0  0  0  0  0  0
   -2.7095   -1.2633    0.0000 O   0  0  0  0  0  0  0  0  0  0  0  0
    3.0499   -1.3360    0.0000 O   0  0  0  0  0  0  0  0  0  0  0  0
    0.4510   -2.8358    0.0000 O   0  0  0  0  0  0  0  0  0  0  0  0
   -0.8480    3.9142    0.0000 Si  0  0  0  0  0  4  0  0  0  0  0  0
   -3.4471    0.9147    0.0000 Si  0  0  0  0  0  4  0  0  0  0  0  0
    4.3491    0.9147    0.0000 Si  0  0  0  0  0  4  0  0  0  0  0  0
   -2.9697   -2.7405    0.0000 Si  0  0  0  0  0  4  0  0  0  0  0  0
    3.0497   -2.8360    0.0000 Si  0  0  0  0  0  4  0  0  0  0  0  0
   -0.8480   -3.5858    0.0000 Si  0  0  0  0  0  4  0  0  0  0  0  0
 20 19  1  0
 21 19  1  0
 22 20  1  0
 23 21  1  0
 24 22  1  0
 24 23  1  0
 19 25  1  6
 20 26  1  1
 21 27  1  6
 22 28  1  6
 23 29  1  6
 24 30  1  1
 31  1  1  0
 31  2  1  0
 31  3  1  0
 31 25  1  0
 32  4  1  0
 32  5  1  0
 32  6  1  0
 32 26  1  0
 33  7  1  0
 33  8  1  0
 33  9  1  0
 33 27  1  0
 34 10  1  0
 34 11  1  0
 34 12  1  0
 34 28  1  0
 35 13  1  0
 35 14  1  0
 35 15  1  0
 35 29  1  0
 36 16  1  0
 36 17  1  0
 36 18  1  0
 36 30  1  0
M  END
>  <NAME>  (4956) 
1,2,3,4,5,6-HEXA-O-TRIMETHELSILYL-MYO-INOSITOL

>  <SYNONYMS>  (4956) 


>  <SPECTRUM TYPE>  (4956) 
MS1

>  <INSTRUMENT TYPE>  (4956) 
EI-B

>  <INSTRUMENT>  (4956) 
SHIMADZU QP-1000

>  <ION MODE>  (4956) 
P

>  <INCHIKEY>  (4956) 
FRTKXRNTVMCAKI-HPEVMFQJSA-N

>  <FORMULA>  (4956) 
C24H60O6Si6

>  <EXACT MASS>  (4956) 
612.30054882

>  <MW>  (4956) 
612

>  <ID>  (4956) 
JP004524

>  <CONTRIBUTOR>  (4956) 
University of Tokyo Team, {Faculty of Engineering, University of Tokyo

>  <COMMENT>  (4956) 
SMILES=C(C1([H])O[Si](C)(C)C)(C(C(C(C1([H])O[Si](C)(C)C)([H])O[Si](C)(C)C)([H])O[Si](C)(C)C)([H])O[Si](C)(C)C)([H])O[Si](C)(C)C
InChI=InChI=1S/C24H60O6Si6/c1-31(2,3)25-19-20(26-32(4,5)6)22(28-34(10,11)12)24(30-36(16,17)18)23(29-35(13,14)15)21(19)27-33(7,8)9/h19-24H,1-18H3/t19-,20-,21-,22+,23-,24-
computed SMILES=O(C1C(O[Si](C)(C)C)C(O[Si](C)(C)C)C(O[Si](C)(C)C)C(O[Si](C)(C)C)C1O[Si](C)(C)C)[Si](C)(C)C
accession=JP004524
date=2016.01.19 (Created 2008.10.21, modified 2011.05.06)
author=SEYAMA Y, DEPT. OF PHYSIOL. CHEMISTRY AND NUTRITION, FAC. OF MEDICINE, UNIV. OF TOKYO
license=CC BY-NC-SA
exact mass=612.30055
ionization energy=70 eV
ion type=[M]+*
computed spectral entropy=3.226100535822251
computed normalized entropy=0.7341308141868178
SPLASH=splash10-066r-4589000000-293e23791a0a68738ecc
submitter=submitter = University of Tokyo Team (Faculty of Engineering, University of Tokyo)
MoNA Rating=3.75

>  <NUM PEAKS>  (4956) 
81

>  <MASS SPECTRAL PEAKS>  (4956) 
72 1.02
73 90.73
74 7.61
75 8.85
76 0.52
81 0.55
93 0.53
101 0.73
103 5.68
104 0.58
117 0.69
129 7.36
130 0.87
131 2.23
133 7.41
134 1.05
135 0.67
143 1.8
147 38.02
148 6.08
149 3.89
157 0.71
161 1.06
175 0.59
177 0.85
189 2.15
190 1.67
191 47.02
192 8.63
193 4.21
194 0.5
203 1
204 19.45
205 4.7
206 1.78
207 1.71
215 0.81
217 99.99
218 20.72
219 9.16
220 1.34
221 6.28
222 1.43
223 0.81
230 1.75
231 1.09
243 1.32
265 23.38
266 5.94
267 3.04
268 0.6
271 0.51
291 5.82
292 1.86
293 3.48
294 0.87
305 93.73
306 27.72
307 14.05
308 2.85
309 0.74
318 51.21
319 22.8
320 9.64
321 2.52
322 0.55
343 1.36
367 5.28
368 1.85
369 1
393 2.67
394 0.97
395 0.56
419 0.7
432 5.21
433 4.28
434 2.1
435 0.81
507 2.36
508 1.16
612 0.59

$$$$

     RDKit          2D

 15 15  0  0  0  0  0  0  0  0999 V2000
    2.9674    1.1803    0.0000 C   0  0  0  0  0  0  0  0  0  0  0  0
    2.9679    2.6812    0.0000 C   0  0  0  0  0  0  0  0  0  0  0  0
    1.6679    0.4295    0.0000 C   0  0  0  0  0  0  0  0  0  0  0  0
    1.6688    3.4312    0.0000 C   0  0  0  0  0  0  0  0  0  0  0  0
    0.3688    1.1795    0.0000 C   0  0  0  0  0  0  0  0  0  0  0  0
   -0.9297    3.4303    0.0000 C   0  0  0  0  0  0  0  0  0  0  0  0
    0.0344    4.5794    0.0000 H   0  0  0  0  0  0  0  0  0  0  0  0
   -1.8939    4.5794    0.0000 H   0  0  0  0  0  0  0  0  0  0  0  0
   -2.2288    2.6803    0.0000 C   0  0  0  0  0  0  0  0  0  0  0  0
   -3.1930    1.5313    0.0000 H   0  0  0  0  0  0  0  0  0  0  0  0
   -1.2646    1.5313    0.0000 H   0  0  0  0  0  0  0  0  0  0  0  0
   -4.8268    2.6803    0.0000 C   0  0  0  0  0  0  0  0  0  0  0  0
    0.3693    2.6803    0.0000 C   0  0  0  0  0  0  0  0  0  0  0  0
   -3.5278    3.4303    0.0000 N   0  0  0  0  0  0  0  0  0  0  0  0
   -6.1259    1.9303    0.0000 S   0  0  0  0  0  0  0  0  0  0  0  0
  6  7  1  0
  6  8  1  0
  9 10  1  0
  9 11  1  0
  2  1  2  0
  3  1  1  0
  4  2  1  0
  5  3  2  0
  9  6  1  0
 13  4  2  0
 13  5  1  0
 13  6  1  0
 14  9  1  0
 14 12  2  0
 15 12  2  0
M  ISO  4   7   2   8   2  10   2  11   2
M  END
>  <NAME>  (4957) 
1-ISOTHIOCYANATO-2-PHENYLETHANE (1,1,2,2-D4)

>  <SYNONYMS>  (4957) 


>  <SPECTRUM TYPE>  (4957) 
MS1

>  <INSTRUMENT TYPE>  (4957) 
EI-B

>  <INSTRUMENT>  (4957) 
SHIMADZU QP-1000

>  <ION MODE>  (4957) 
P

>  <INCHIKEY>  (4957) 
IZJDOKYDEWTZSO-KXGHAPEVSA-N

>  <FORMULA>  (4957) 
C9H9NS

>  <EXACT MASS>  (4957) 
167.070677272

>  <MW>  (4957) 
167

>  <ID>  (4957) 
JP004523

>  <CONTRIBUTOR>  (4957) 
University of Tokyo Team, {Faculty of Engineering, University of Tokyo

>  <COMMENT>  (4957) 
SMILES=S=C=NC([2H])([2H])C([2H])([2H])c(c1)cccc1
InChI=InChI=1S/C9H9NS/c11-8-10-7-6-9-4-2-1-3-5-9/h1-5H,6-7H2/i6D2,7D2
computed SMILES=[H]C([H])(N=C=S)C([H])([H])C=1C=CC=CC1
accession=JP004523
date=2016.01.19 (Created 2008.10.21, modified 2011.05.06)
author=SEYAMA Y, DEPT. OF PHYSIOL. CHEMISTRY AND NUTRITION, FAC. OF MEDICINE, UNIV. OF TOKYO
license=CC BY-NC-SA
exact mass=163.04557
ionization energy=70 eV
ion type=[M]+*
computed spectral entropy=2.718886897281237
computed normalized entropy=0.7142442768666062
SPLASH=splash10-0006-9300000000-dce10ef46bd36fa88995
submitter=submitter = University of Tokyo Team (Faculty of Engineering, University of Tokyo)
MoNA Rating=3.75

>  <NUM PEAKS>  (4957) 
45

>  <MASS SPECTRAL PEAKS>  (4957) 
39 5.56
40 7.06
41 5.52
42 0.94
43 2.55
44 0.72
46 1.73
50 2.51
51 6.73
52 3.71
53 2.78
54 1.17
58 0.72
63 1.58
64 3.04
65 2.75
66 8.18
67 7.64
68 1.07
74 5.45
76 0.89
77 1.88
78 2.31
79 4.72
80 4.55
81 2.51
82 3.99
83 2.47
90 1.02
91 1.69
92 2.24
93 99.99
94 7.88
105 1.05
106 2.04
107 2.09
108 1.02
109 13.45
110 1.41
137 1.34
151 0.92
166 2
167 48.11
168 5.45
169 2.91

$$$$

     RDKit          2D

 18 18  0  0  0  0  0  0  0  0999 V2000
    4.5818    1.4829    0.0000 C   0  0  0  0  0  0  0  0  0  0  0  0
   -0.6153   -0.0184    0.0000 C   0  0  0  0  0  0  0  0  0  0  0  0
   -1.9145   -0.7682    0.0000 H   0  0  0  0  0  0  0  0  0  0  0  0
    0.6837   -0.7684    0.0000 C   0  0  0  0  0  0  0  0  0  0  0  0
    0.6839   -2.2684    0.0000 H   0  0  0  0  0  0  0  0  0  0  0  0
    0.6847    2.2333    0.0000 C   0  0  0  0  0  0  0  0  0  0  0  0
    0.6844    3.7333    0.0000 H   0  0  0  0  0  0  0  0  0  0  0  0
   -1.9139    2.2324    0.0000 C   0  0  0  0  0  0  0  0  0  0  0  0
   -0.9497    3.3815    0.0000 H   0  0  0  0  0  0  0  0  0  0  0  0
   -2.8781    3.3815    0.0000 H   0  0  0  0  0  0  0  0  0  0  0  0
   -0.6148    1.4824    0.0000 C   0  0  0  0  0  0  0  0  0  0  0  0
    1.9832   -0.0176    0.0000 C   0  0  0  0  0  0  0  0  0  0  0  0
    1.9837    1.4833    0.0000 C   0  0  0  0  0  0  0  0  0  0  0  0
   -3.2129    1.4824    0.0000 C   0  0  0  0  0  0  0  0  0  0  0  0
    3.2823   -0.7676    0.0000 O   0  0  0  0  0  0  0  0  0  0  0  0
   -3.2129   -0.0176    0.0000 O   0  0  0  0  0  0  0  0  0  0  0  0
   -4.5120    2.2324    0.0000 O   0  0  0  0  0  0  0  0  0  0  0  0
    3.2829    2.2331    0.0000 O   0  0  0  0  0  0  0  0  0  0  0  0
  2  3  1  0
  4  5  1  0
  6  7  1  0
  8  9  1  0
  8 10  1  0
  4  2  2  0
 11  2  1  0
 11  6  2  0
 11  8  1  0
 12  4  1  0
 13  6  1  0
 13 12  2  0
 14  8  1  0
 15 12  1  0
 16 14  2  0
 17 14  1  0
 18  1  1  0
 18 13  1  0
M  ISO  5   3   2   5   2   7   2   9   2  10   2
M  END
>  <NAME>  (4958) 
4-HYDROXY-3-METHOXYPHENYLACETIC ACID (2,5,6-D3,ALPHA,ALPHA-D2)

>  <SYNONYMS>  (4958) 
HOMOVANILLIC ACID (2,5,6-D3,ALPHA,ALPHA-D2)

>  <SPECTRUM TYPE>  (4958) 
MS1

>  <INSTRUMENT TYPE>  (4958) 
EI-B

>  <INSTRUMENT>  (4958) 
SHIMADZU QP-1000

>  <ION MODE>  (4958) 
P

>  <INCHIKEY>  (4958) 
QRMZSPFSDQBLIX-DVHRWRHBSA-N

>  <FORMULA>  (4958) 
C9H10O4

>  <EXACT MASS>  (4958) 
187.08929253

>  <MW>  (4958) 
187

>  <ID>  (4958) 
JP004522

>  <CONTRIBUTOR>  (4958) 
University of Tokyo Team, {Faculty of Engineering, University of Tokyo

>  <COMMENT>  (4958) 
SMILES=COc(c(O)1)c([2H])c(c([2H])c([2H])1)C([2H])([2H])C(O)=O
InChI=InChI=1S/C9H10O4/c1-13-8-4-6(5-9(11)12)2-3-7(8)10/h2-4,10H,5H2,1H3,(H,11,12)/i2D,3D,4D,5D2
computed SMILES=[H]C1=C(OC)C(O)=C([H])C([H])=C1C([H])([H])C(=O)O
accession=JP004522
date=2016.01.19 (Created 2008.10.21, modified 2011.05.06)
author=SEYAMA Y, DEPT. OF PHYSIOL. CHEMISTRY AND NUTRITION, FAC. OF MEDICINE, UNIV. OF TOKYO
license=CC BY-NC-SA
exact mass=182.05791
ionization energy=70 eV
ion type=[M]+*
computed spectral entropy=3.4572468036147486
computed normalized entropy=0.8478761632911412
SPLASH=splash10-0006-9800000000-def178a40b9d8cc16724
submitter=submitter = University of Tokyo Team (Faculty of Engineering, University of Tokyo)
MoNA Rating=3.75

>  <NUM PEAKS>  (4958) 
59

>  <MASS SPECTRAL PEAKS>  (4958) 
40 8.91
41 23.11
42 19.57
43 19.69
44 10.53
45 17.07
46 1.4
51 1.64
52 5.91
53 8.37
54 20.47
55 11.15
56 6.49
57 13.1
58 5.72
59 1.09
60 4.1
64 1.32
65 1.5
66 2.67
67 2.89
68 5.29
69 12.08
70 12.6
71 12.37
72 3.5
73 4.49
79 1.44
80 3.25
81 7.02
82 7.25
83 6.01
84 2.6
85 2.4
95 1.75
96 1.62
97 3.03
98 6.97
99 11.64
100 3.23
109 2.23
110 3.72
111 4.02
112 2.25
125 1.97
126 7.65
127 14.78
128 4.86
129 1.23
139 1.25
140 9.49
141 51.66
142 99.99
143 9.52
149 1.18
185 3.35
186 16.67
187 32.2
188 3.64

$$$$

     RDKit          2D

  6  5  0  0  0  0  0  0  0  0999 V2000
    1.2990    2.2500    0.0000 C   0  0  0  0  0  0  0  0  0  0  0  0
    0.0000    3.0000    0.0000 C   0  0  0  0  0  0  0  0  0  0  0  0
   -2.5981    3.0000    0.0000 C   0  0  0  0  0  0  0  0  0  0  0  0
   -3.8971    2.2500    0.0000 N   0  0  0  0  0  0  0  0  0  0  0  0
   -2.5981    4.5000    0.0000 O   0  0  0  0  0  0  0  0  0  0  0  0
   -1.2990    2.2500    0.0000 O   0  0  0  0  0  0  0  0  0  0  0  0
  2  1  1  0
  4  3  2  0
  5  3  1  0
  6  2  1  0
  6  3  1  0
M  END
>  <NAME>  (4959) 
URETHAN

>  <SYNONYMS>  (4959) 
ETHYL CARBAMATE

>  <SPECTRUM TYPE>  (4959) 
MS1

>  <INSTRUMENT TYPE>  (4959) 
EI-B

>  <INSTRUMENT>  (4959) 
SHIMADZU QP-1000

>  <ION MODE>  (4959) 
P

>  <INCHIKEY>  (4959) 
JOYRKODLDBILNP-UHFFFAOYSA-N

>  <FORMULA>  (4959) 
C3H7NO2

>  <EXACT MASS>  (4959) 
89.047678464

>  <MW>  (4959) 
89

>  <ID>  (4959) 
JP004521

>  <CONTRIBUTOR>  (4959) 
University of Tokyo Team, {Faculty of Engineering, University of Tokyo

>  <COMMENT>  (4959) 
SMILES=CCOC(N)=O
cas=51-79-6
InChI=InChI=1S/C3H7NO2/c1-2-6-3(4)5/h2H2,1H3,(H2,4,5)
computed SMILES=N=C(O)OCC
accession=JP004521
date=2016.01.19 (Created 2008.10.21, modified 2011.05.06)
author=SEYAMA Y, DEPT. OF PHYSIOL. CHEMISTRY AND NUTRITION, FAC. OF MEDICINE, UNIV. OF TOKYO
license=CC BY-NC-SA
exact mass=89.04768
ionization energy=70 eV
ion type=[M]+*
computed spectral entropy=2.5146309914250797
computed normalized entropy=0.6727804349331431
SPLASH=splash10-01r7-9000000000-ba57e1f4b939a6bb2c1c
submitter=submitter = University of Tokyo Team (Faculty of Engineering, University of Tokyo)
MoNA Rating=3.75

>  <NUM PEAKS>  (4959) 
42

>  <MASS SPECTRAL PEAKS>  (4959) 
13 0.04
14 0.42
15 2.28
16 3.16
17 5.9
18 24.07
19 3.14
25 0.23
26 6.26
27 37.35
28 19.57
29 41.91
30 6.55
31 46.33
32 2.16
33 0.16
40 0.13
41 0.3
42 2
43 11.76
44 99.99
45 65.45
46 9.29
47 0.33
48 0.03
55 0.05
57 0.03
59 0.13
60 0.12
61 7.12
62 57.05
63 0.88
64 0.23
71 0.65
72 0.06
74 8.32
75 0.21
76 0.04
88 0.09
89 1.74
90 0.75
91 0.04

$$$$

     RDKit          2D

 36 40  0  0  1  0  0  0  0  0999 V2000
    9.5655    7.2342    0.0000 C   0  0  0  0  0  0  0  0  0  0  0  0
    7.1046    8.0672    0.0000 C   0  0  0  0  0  0  0  0  0  0  0  0
    3.2009    4.6377    0.0000 C   0  0  0  0  0  0  0  0  0  0  0  0
   -1.6125    0.9400    0.0000 C   0  0  0  0  0  0  0  0  0  0  0  0
    2.4507    3.1203    0.0000 C   0  0  0  0  0  0  0  0  0  0  0  0
   -9.3880   -6.5994    0.0000 C   0  0  0  0  0  0  0  0  0  0  0  0
   -8.0871   -7.3479    0.0000 C   0  0  0  0  0  0  0  0  0  0  0  0
   -9.3912   -5.0986    0.0000 C   0  0  0  0  0  0  0  0  0  0  0  0
    6.1427    5.2256    0.0000 C   0  0  0  0  0  0  0  0  0  0  0  0
    7.6137    5.5195    0.0000 C   0  0  0  0  0  0  0  0  0  0  0  0
    5.6618    3.8047    0.0000 C   0  0  0  0  0  0  0  0  0  0  0  0
   -6.7894   -6.5955    0.0000 C   0  0  0  0  0  0  0  0  0  0  0  0
   -8.0935   -4.3462    0.0000 C   0  0  0  0  0  0  0  0  0  0  0  0
   -0.3200   -2.8400    0.0000 C   0  0  0  0  0  0  0  0  0  0  0  0
    1.0100   -2.0900    0.0000 C   0  0  0  0  0  0  0  0  0  0  0  0
    4.5500    0.8800    0.0000 C   0  0  0  0  0  0  0  0  0  0  0  0
    3.7100   -0.3100    0.0000 C   0  0  0  0  0  0  0  0  0  0  0  0
   -4.2000   -0.5600    0.0000 C   0  0  0  0  0  0  0  0  0  0  0  0
   -0.3200    1.6300    0.0000 C   0  0  0  0  0  0  0  0  0  0  0  0
   -2.8900    0.1600    0.0000 C   0  0  0  0  0  0  0  0  0  0  0  0
    1.0100    2.3900    0.0000 C   0  0  0  0  0  0  0  0  0  0  0  0
   -2.8900   -2.8400    0.0000 C   0  0  0  0  0  0  0  0  0  0  0  0
    8.0946    6.9403    0.0000 C   0  0  0  0  0  0  0  0  0  0  0  0
    4.1909    3.5108    0.0000 C   0  0  0  0  0  0  0  0  0  0  0  0
   -6.7926   -5.0947    0.0000 C   0  0  0  0  0  0  0  0  0  0  0  0
   -1.6200   -2.0900    0.0000 C   0  0  0  0  0  0  0  0  0  0  0  0
   -4.2000   -2.0900    0.0000 C   0  0  0  0  0  0  0  0  0  0  0  0
    1.0100   -0.5600    0.0000 C   0  0  0  0  0  0  0  0  0  0  0  0
    3.7100    2.0900    0.0000 C   0  0  0  0  0  0  0  0  0  0  0  0
    2.2800    0.1600    0.0000 C   0  0  0  0  0  0  0  0  0  0  0  0
   -0.3200    0.1600    0.0000 C   0  0  0  0  0  0  0  0  0  0  0  0
   -5.4950   -4.3424    0.0000 C   0  0  0  0  0  0  0  0  0  0  0  0
   -1.6200   -0.5600    0.0000 C   0  0  0  0  0  0  0  0  0  0  0  0
    2.2800    1.6300    0.0000 C   0  0  0  0  0  0  0  0  0  0  0  0
   -4.1946   -5.0900    0.0000 O   0  0  0  0  0  0  0  0  0  0  0  0
   -5.4977   -2.8424    0.0000 O   0  0  0  0  0  0  0  0  0  0  0  0
  7  6  2  0
  8  6  1  0
 10  9  1  0
 11  9  1  0
 12  7  1  0
 13  8  2  0
 15 14  1  0
 17 16  1  0
 20 18  1  0
 21 19  1  0
 23  1  1  0
 23  2  1  0
 23 10  1  0
 24  3  1  6
 24 11  1  0
 25 12  2  0
 25 13  1  0
 26 14  1  1
 26 22  1  0
 27 18  1  0
 27 22  1  0
 28 15  1  0
 29 16  1  0
 29 24  1  0
 30 17  1  0
 30 28  1  0
 31 19  1  0
 31 28  1  0
 32 25  1  0
 33  4  1  1
 33 20  1  0
 33 26  1  0
 33 31  1  0
 34  5  1  1
 34 21  1  0
 34 29  1  0
 34 30  1  0
 35 32  2  0
 27 36  1  6
 36 32  1  0
M  END
>  <NAME>  (4960) 
5-ALPHA-CHOLESTAN-3-ALPHA-YL BENZOATE

>  <SYNONYMS>  (4960) 
EPICHOLESTANYL BENZOATE

>  <SPECTRUM TYPE>  (4960) 
MS1

>  <INSTRUMENT TYPE>  (4960) 
EI-B

>  <INSTRUMENT>  (4960) 
SHIMADZU QP-1000

>  <ION MODE>  (4960) 
P

>  <INCHIKEY>  (4960) 
YVXZAWFNDQLXBU-YVYPUYPBSA-N

>  <FORMULA>  (4960) 
C34H52O2

>  <EXACT MASS>  (4960) 
492.396730904

>  <MW>  (4960) 
492

>  <ID>  (4960) 
JP004520

>  <CONTRIBUTOR>  (4960) 
University of Tokyo Team, {Faculty of Engineering, University of Tokyo

>  <COMMENT>  (4960) 
SMILES=C(C([H])14)C(OC(=O)c(c5)cccc5)CCC1(C)C(C(CC4)3)CCC(C)(C23)C(C(CCCC(C)C)C)CC2
cas=6030-70-2
InChI=InChI=1S/C34H52O2/c1-23(2)10-9-11-24(3)29-16-17-30-28-15-14-26-22-27(36-32(35)25-12-7-6-8-13-25)18-20-33(26,4)31(28)19-21-34(29,30)5/h6-8,12-13,23-24,26-31H,9-11,14-22H2,1-5H3/t24-,26+,27-,28?,29?,30?,31?,33+,34-/m1/s1
computed SMILES=O=C(OC1CCC2(C)C(CCC3C4CCC(C(C)CCCC(C)C)C4(C)CCC32)C1)C=5C=CC=CC5
accession=JP004520
date=2016.01.19 (Created 2008.10.21, modified 2011.05.06)
author=SEYAMA Y, DEPT. OF PHYSIOL. CHEMISTRY AND NUTRITION, FAC. OF MEDICINE, UNIV. OF TOKYO
license=CC BY-NC-SA
exact mass=492.39673
ionization energy=70 eV
ion type=[M]+*
computed spectral entropy=4.322514835714775
computed normalized entropy=0.8559679383945609
SPLASH=splash10-0aou-9842000000-26746f83ca49a65ef28f
submitter=submitter = University of Tokyo Team (Faculty of Engineering, University of Tokyo)
MoNA Rating=3.75

>  <NUM PEAKS>  (4960) 
156

>  <MASS SPECTRAL PEAKS>  (4960) 
39 6.45
40 2.51
41 43.39
42 4.9
43 65.44
44 2.65
50 1.73
51 6.17
53 4.79
54 2.16
55 49.25
56 7.48
57 32.95
58 1.45
65 2.35
66 1.29
67 34.36
68 8.45
69 27.17
70 4.27
71 12.91
76 1.25
77 30.04
78 4.38
79 33.72
80 6.8
81 48.14
82 8.11
83 15.93
84 1.73
85 2.79
91 23.75
92 7.3
93 37.04
94 13.85
95 40.72
96 4.99
97 9.39
104 3.01
105 85.88
106 21.68
107 38.78
108 33.69
109 25.23
110 3.22
111 7.17
115 1.34
117 4.25
118 2.65
119 18.94
120 11.58
121 23.49
122 14.45
123 29.24
124 3.34
125 2.2
127 1
129 1.21
131 6.93
132 2.68
133 17.2
134 14.29
135 21.48
136 7.34
137 4.17
143 1.05
145 14.99
146 5.99
147 32.75
148 10.92
149 13.72
150 2.26
151 2.02
152 1.61
159 9.88
160 7.44
161 15.56
162 9.67
163 6.06
164 1.05
165 1.75
173 9.53
174 4.76
175 7.58
176 6.87
177 3.24
179 1.22
187 6.82
188 5.02
189 5.31
190 1.49
191 1.63
193 1.74
199 1.46
201 22.35
202 7.98
203 7.5
204 1.48
205 1.61
206 1.9
207 1.39
215 99.99
216 48.28
217 23.35
218 3.95
219 2.03
220 1.22
229 3.87
230 19.71
231 9.57
232 1.88
233 1.2
243 1.71
244 2.28
245 2.39
247 2.44
256 2.07
257 22.35
258 4.79
259 1.73
260 3.86
261 2.24
262 7.34
263 1.71
274 3.04
275 3.1
276 1.04
285 1.78
287 1.26
288 1.67
289 1.06
301 2.03
302 1.3
313 1.49
314 2.36
315 2.33
316 10.82
317 2.6
328 2.95
329 2.02
337 3.23
338 1.28
355 38.41
356 10.94
357 1.3
370 72.83
371 27.33
372 4.58
373 0.53
377 0.12
378 0.09
386 0.08
387 0.16
477 0.08
492 0.85
493 0.29

$$$$

     RDKit          2D

 36 40  0  0  1  0  0  0  0  0999 V2000
    9.5655    7.2342    0.0000 C   0  0  0  0  0  0  0  0  0  0  0  0
    7.1046    8.0672    0.0000 C   0  0  0  0  0  0  0  0  0  0  0  0
    3.2009    4.6377    0.0000 C   0  0  0  0  0  0  0  0  0  0  0  0
   -1.6125    0.9400    0.0000 C   0  0  0  0  0  0  0  0  0  0  0  0
    2.4507    3.1203    0.0000 C   0  0  0  0  0  0  0  0  0  0  0  0
   -9.3880   -6.5994    0.0000 C   0  0  0  0  0  0  0  0  0  0  0  0
   -8.0871   -7.3479    0.0000 C   0  0  0  0  0  0  0  0  0  0  0  0
   -9.3912   -5.0986    0.0000 C   0  0  0  0  0  0  0  0  0  0  0  0
    6.1427    5.2256    0.0000 C   0  0  0  0  0  0  0  0  0  0  0  0
    7.6137    5.5195    0.0000 C   0  0  0  0  0  0  0  0  0  0  0  0
    5.6618    3.8047    0.0000 C   0  0  0  0  0  0  0  0  0  0  0  0
   -6.7894   -6.5955    0.0000 C   0  0  0  0  0  0  0  0  0  0  0  0
   -8.0935   -4.3462    0.0000 C   0  0  0  0  0  0  0  0  0  0  0  0
   -0.3200   -2.8400    0.0000 C   0  0  0  0  0  0  0  0  0  0  0  0
    1.0100   -2.0900    0.0000 C   0  0  0  0  0  0  0  0  0  0  0  0
    4.5500    0.8800    0.0000 C   0  0  0  0  0  0  0  0  0  0  0  0
    3.7100   -0.3100    0.0000 C   0  0  0  0  0  0  0  0  0  0  0  0
   -4.2000   -0.5600    0.0000 C   0  0  0  0  0  0  0  0  0  0  0  0
   -0.3200    1.6300    0.0000 C   0  0  0  0  0  0  0  0  0  0  0  0
   -2.8900    0.1600    0.0000 C   0  0  0  0  0  0  0  0  0  0  0  0
    1.0100    2.3900    0.0000 C   0  0  0  0  0  0  0  0  0  0  0  0
   -2.8900   -2.8400    0.0000 C   0  0  0  0  0  0  0  0  0  0  0  0
    8.0946    6.9403    0.0000 C   0  0  0  0  0  0  0  0  0  0  0  0
    4.1909    3.5108    0.0000 C   0  0  0  0  0  0  0  0  0  0  0  0
   -6.7926   -5.0947    0.0000 C   0  0  0  0  0  0  0  0  0  0  0  0
   -1.6200   -2.0900    0.0000 C   0  0  0  0  0  0  0  0  0  0  0  0
   -4.2000   -2.0900    0.0000 C   0  0  0  0  0  0  0  0  0  0  0  0
    1.0100   -0.5600    0.0000 C   0  0  0  0  0  0  0  0  0  0  0  0
    3.7100    2.0900    0.0000 C   0  0  0  0  0  0  0  0  0  0  0  0
    2.2800    0.1600    0.0000 C   0  0  0  0  0  0  0  0  0  0  0  0
   -0.3200    0.1600    0.0000 C   0  0  0  0  0  0  0  0  0  0  0  0
   -5.4950   -4.3424    0.0000 C   0  0  0  0  0  0  0  0  0  0  0  0
   -1.6200   -0.5600    0.0000 C   0  0  0  0  0  0  0  0  0  0  0  0
    2.2800    1.6300    0.0000 C   0  0  0  0  0  0  0  0  0  0  0  0
   -4.1946   -5.0900    0.0000 O   0  0  0  0  0  0  0  0  0  0  0  0
   -5.4977   -2.8424    0.0000 O   0  0  0  0  0  0  0  0  0  0  0  0
  7  6  2  0
  8  6  1  0
 10  9  1  0
 11  9  1  0
 12  7  1  0
 13  8  2  0
 15 14  1  0
 17 16  1  0
 20 18  1  0
 21 19  1  0
 23  1  1  0
 23  2  1  0
 23 10  1  0
 24  3  1  6
 24 11  1  0
 25 12  2  0
 25 13  1  0
 26 14  1  1
 26 22  1  0
 27 18  1  0
 27 22  1  0
 28 15  1  0
 29 16  1  0
 29 24  1  0
 30 17  1  0
 30 28  1  0
 31 19  1  0
 31 28  1  0
 32 25  1  0
 33  4  1  1
 33 20  1  0
 33 26  1  0
 33 31  1  0
 34  5  1  1
 34 21  1  0
 34 29  1  0
 34 30  1  0
 35 32  2  0
 27 36  1  1
 36 32  1  0
M  END
>  <NAME>  (4961) 
5-ALPHA-CHOLESTAN-3-BETA-YL BENZOATE

>  <SYNONYMS>  (4961) 
CHOLESTANYL BENZOATE

>  <SPECTRUM TYPE>  (4961) 
MS1

>  <INSTRUMENT TYPE>  (4961) 
EI-B

>  <INSTRUMENT>  (4961) 
SHIMADZU QP-1000

>  <ION MODE>  (4961) 
P

>  <INCHIKEY>  (4961) 
YVXZAWFNDQLXBU-BUTIHPCESA-N

>  <FORMULA>  (4961) 
C34H52O2

>  <EXACT MASS>  (4961) 
492.396730904

>  <MW>  (4961) 
492

>  <ID>  (4961) 
JP004519

>  <CONTRIBUTOR>  (4961) 
University of Tokyo Team, {Faculty of Engineering, University of Tokyo

>  <COMMENT>  (4961) 
SMILES=C(C([H])14)C(OC(=O)c(c5)cccc5)CCC1(C)C(C(CC4)3)CCC(C)(C23)C(C(CCCC(C)C)C)CC2
cas=5808-11-7
InChI=InChI=1S/C34H52O2/c1-23(2)10-9-11-24(3)29-16-17-30-28-15-14-26-22-27(36-32(35)25-12-7-6-8-13-25)18-20-33(26,4)31(28)19-21-34(29,30)5/h6-8,12-13,23-24,26-31H,9-11,14-22H2,1-5H3/t24-,26+,27+,28?,29?,30?,31?,33+,34-/m1/s1
computed SMILES=O=C(OC1CCC2(C)C(CCC3C4CCC(C(C)CCCC(C)C)C4(C)CCC32)C1)C=5C=CC=CC5
accession=JP004519
date=2016.01.19 (Created 2008.10.21, modified 2011.05.06)
author=SEYAMA Y, DEPT. OF PHYSIOL. CHEMISTRY AND NUTRITION, FAC. OF MEDICINE, UNIV. OF TOKYO
license=CC BY-NC-SA
exact mass=492.39673
ionization energy=70 eV
ion type=[M]+*
computed spectral entropy=4.272175922781913
computed normalized entropy=0.8572458155450177
SPLASH=splash10-0aou-9841000000-57a75ee8904bc6bbaf91
submitter=submitter = University of Tokyo Team (Faculty of Engineering, University of Tokyo)
MoNA Rating=3.75

>  <NUM PEAKS>  (4961) 
146

>  <MASS SPECTRAL PEAKS>  (4961) 
39 5.61
40 11.01
41 37.68
42 4.35
43 56.48
44 4.14
50 2.05
51 6.24
53 4.4
54 1.96
55 47.34
56 8.13
57 31.76
58 1.41
65 2.17
66 1.24
67 34.16
68 9.48
69 28.69
70 4.5
71 12.98
76 1.25
77 31.31
78 4.6
79 32.66
80 6.91
81 51.84
82 9.1
83 16.07
84 1.65
85 2.79
91 24
92 7.59
93 38.95
94 14.1
95 42.62
96 5.26
97 10.7
104 3.2
105 95.81
106 25.27
107 44.12
108 27.85
109 23.53
110 3.42
111 8.31
115 1.52
117 4.28
118 2.9
119 20.76
120 11.43
121 26.79
122 15.51
123 25.65
124 3.24
125 2.05
129 1.23
131 6.58
132 2.51
133 16.45
134 9.97
135 16.96
136 7.19
137 4.06
143 1.17
145 15.81
146 6
147 35.51
148 10.01
149 12.55
150 2.18
151 1.72
152 1.54
159 9.06
160 7.66
161 13.07
162 7.54
163 5.94
165 1.35
173 8.5
174 4.15
175 5.86
176 6.64
177 2.65
187 5.93
188 5.15
189 4.42
190 1.17
191 1.29
193 1.13
199 1.48
201 26.88
202 8.5
203 5.75
204 1.19
206 1.08
208 1.29
215 99.99
216 52.81
217 23.3
218 3.65
219 1.07
229 3.12
230 19.21
231 6.91
232 1.34
243 1.2
244 1.42
245 1.14
247 1.63
255 1.53
256 1.69
257 13.87
258 2.78
260 2.23
261 1.52
262 8.28
263 1.96
274 1.85
275 2.06
285 1.28
288 1.98
301 1.16
314 1.17
315 1.38
316 7.51
317 1.91
328 2.27
329 1
337 7.75
338 4.67
355 23.84
356 6.95
370 54.76
371 17.46
372 2.72
373 0.33
377 0.49
378 0.27
387 0.19
477 0.81
478 0.3
490 0.3
491 0.21
492 2.12
493 0.82

$$$$

     RDKit          2D

 29 29  0  0  0  0  0  0  0  0999 V2000
    5.4758   -2.8354    0.0000 C   0  0  0  0  0  0  0  0  0  0  0  0
    5.4761   -4.3354    0.0000 C   0  0  0  0  0  0  0  0  0  0  0  0
    6.7752   -5.0852    0.0000 C   0  0  0  0  0  0  0  0  0  0  0  0
    6.7755   -6.5852    0.0000 C   0  0  0  0  0  0  0  0  0  0  0  0
    8.0746   -7.3349    0.0000 C   0  0  0  0  0  0  0  0  0  0  0  0
    8.0749   -8.8349    0.0000 C   0  0  0  0  0  0  0  0  0  0  0  0
    9.3740   -9.5847    0.0000 C   0  0  0  0  0  0  0  0  0  0  0  0
    9.3743  -11.0847    0.0000 C   0  0  0  0  0  0  0  0  0  0  0  0
   10.6734  -11.8345    0.0000 C   0  0  0  0  0  0  0  0  0  0  0  0
   11.9723  -11.0843    0.0000 C   0  0  0  0  0  0  0  0  0  0  0  0
   13.2715  -11.8341    0.0000 C   0  0  0  0  0  0  0  0  0  0  0  0
   14.5704  -11.0839    0.0000 C   0  0  0  0  0  0  0  0  0  0  0  0
   15.8696  -11.8337    0.0000 C   0  0  0  0  0  0  0  0  0  0  0  0
   17.1685  -11.0835    0.0000 C   0  0  0  0  0  0  0  0  0  0  0  0
   18.4676  -11.8333    0.0000 C   0  0  0  0  0  0  0  0  0  0  0  0
   19.7666  -11.0831    0.0000 C   0  0  0  0  0  0  0  0  0  0  0  0
   21.0657  -11.8329    0.0000 C   0  0  0  0  0  0  0  0  0  0  0  0
   22.3646  -11.0827    0.0000 C   0  0  0  0  0  0  0  0  0  0  0  0
   31.4599  -11.8308    0.0000 C   0  0  0  0  0  0  0  0  0  0  0  0
   30.1597  -11.0812    0.0000 C   0  0  0  0  0  0  0  0  0  0  0  0
   23.6638  -11.8325    0.0000 C   0  0  0  0  0  0  0  0  0  0  0  0
   31.4604  -13.3308    0.0000 C   0  0  0  0  0  0  0  0  0  0  0  0
   28.8604  -13.3316    0.0000 C   0  0  0  0  0  0  0  0  0  0  0  0
   27.5608  -11.0818    0.0000 C   0  0  0  0  0  0  0  0  0  0  0  0
   28.8599  -11.8316    0.0000 C   0  0  0  0  0  0  0  0  0  0  0  0
   24.9627  -11.0822    0.0000 C   0  0  0  0  0  0  0  0  0  0  0  0
   30.1607  -14.0812    0.0000 N   0  0  0  0  0  0  0  0  0  0  0  0
   24.9625   -9.5822    0.0000 O   0  0  0  0  0  0  0  0  0  0  0  0
   26.2619  -11.8320    0.0000 O   0  0  0  0  0  0  0  0  0  0  0  0
  2  1  1  0
  3  2  1  0
  4  3  1  0
  5  4  1  0
  6  5  1  0
  7  6  1  0
  8  7  1  0
  8  9  2  0
 10  9  1  0
 11 10  1  0
 12 11  1  0
 13 12  1  0
 14 13  1  0
 15 14  1  0
 16 15  1  0
 17 16  1  0
 18 17  1  0
 20 19  2  0
 21 18  1  0
 22 19  1  0
 25 20  1  0
 25 23  2  0
 25 24  1  0
 26 21  1  0
 27 22  2  0
 27 23  1  0
 28 26  2  0
 29 24  1  0
 29 26  1  0
M  END
>  <NAME>  (4962) 
(3-PYRIDYL)METHYL 12-EICOSENOATE

>  <SYNONYMS>  (4962) 
BETA-PICOLINYL 12-EICOSENOATE

>  <SPECTRUM TYPE>  (4962) 
MS1

>  <INSTRUMENT TYPE>  (4962) 
EI-B

>  <INSTRUMENT>  (4962) 
SHIMADZU QP-1000

>  <ION MODE>  (4962) 
P

>  <INCHIKEY>  (4962) 
RNIJINVRVTTYCR-HJWRWDBZSA-N

>  <FORMULA>  (4962) 
C26H43NO2

>  <EXACT MASS>  (4962) 
401.32937961600004

>  <MW>  (4962) 
401

>  <ID>  (4962) 
JP004518

>  <CONTRIBUTOR>  (4962) 
University of Tokyo Team, {Faculty of Engineering, University of Tokyo

>  <COMMENT>  (4962) 
SMILES=CCCCCCCC([H])=C([H])CCCCCCCCCCC(=O)OCc(c1)cncc1
InChI=InChI=1S/C26H43NO2/c1-2-3-4-5-6-7-8-9-10-11-12-13-14-15-16-17-18-21-26(28)29-24-25-20-19-22-27-23-25/h8-9,19-20,22-23H,2-7,10-18,21,24H2,1H3/b9-8-
computed SMILES=O=C(OCC=1C=NC=CC1)CCCCCCCCCCC=CCCCCCCC
accession=JP004518
license=CC BY-NC-SA
date=2016.01.19 (Created 2008.10.21, modified 2011.05.06)
author=SEYAMA Y, DEPT. OF PHYSIOL. CHEMISTRY AND NUTRITION, FAC. OF MEDICINE, UNIV. OF TOKYO
exact mass=401.32938
ionization energy=70 eV
ion type=[M]+*
computed spectral entropy=3.693504601198905
computed normalized entropy=0.8092074588225314
SPLASH=splash10-052f-9522000000-a6043788890173b2a8b4
submitter=submitter = University of Tokyo Team (Faculty of Engineering, University of Tokyo)
MoNA Rating=3.75

>  <NUM PEAKS>  (4962) 
96

>  <MASS SPECTRAL PEAKS>  (4962) 
54 12.73
55 77.96
56 12.75
57 13.07
64 1.49
65 16.83
66 1.83
67 16.49
68 5.54
69 31.18
70 4.36
71 3.15
79 3.2
81 7.31
82 2.44
83 11.38
84 1.28
85 1.12
91 2.17
92 99.99
93 46.66
94 5.63
95 4.84
97 5
107 1.14
108 55.6
109 18.26
110 8.07
111 1.82
120 1.23
133 2.37
134 1.11
146 1.1
147 1.4
148 1.83
151 31.23
152 3.97
162 1.09
164 58.99
165 8.55
166 1.19
176 1.11
178 8.65
179 2.38
190 1.48
192 3.35
193 2.42
202 1.4
204 2.4
206 11.89
216 1.24
217 1.61
218 2.19
220 12.6
221 2.88
231 1.04
232 2.19
233 1.09
234 11.94
235 2.65
246 1.6
248 8.19
249 1.96
260 1.76
261 1.24
262 8.55
263 2.41
274 2.15
275 1.51
276 9.22
277 1.76
288 2.36
289 1.46
290 3.02
302 3.5
303 2.03
304 1.23
312 1.19
316 7.55
317 2.73
326 1.41
330 22.43
331 5.95
332 1.16
344 17.4
345 4.93
346 1.03
358 5.66
359 2.31
372 3.29
373 1.82
386 1.66
400 6.2
401 17.2
402 5.71
403 1.12

$$$$

     RDKit          2D

 27 27  0  0  0  0  0  0  0  0999 V2000
   17.4928   -0.3955    0.0000 C   0  0  0  0  0  0  0  0  0  0  0  0
   16.1939   -1.1457    0.0000 C   0  0  0  0  0  0  0  0  0  0  0  0
   16.1941   -2.6457    0.0000 C   0  0  0  0  0  0  0  0  0  0  0  0
   14.8952   -3.3959    0.0000 C   0  0  0  0  0  0  0  0  0  0  0  0
   14.8954   -4.8959    0.0000 C   0  0  0  0  0  0  0  0  0  0  0  0
   13.5965   -5.6461    0.0000 C   0  0  0  0  0  0  0  0  0  0  0  0
   13.5968   -7.1461    0.0000 C   0  0  0  0  0  0  0  0  0  0  0  0
   14.8959   -7.8959    0.0000 C   0  0  0  0  0  0  0  0  0  0  0  0
   14.8962   -9.3959    0.0000 C   0  0  0  0  0  0  0  0  0  0  0  0
   16.1953  -10.1457    0.0000 C   0  0  0  0  0  0  0  0  0  0  0  0
   17.4942   -9.3955    0.0000 C   0  0  0  0  0  0  0  0  0  0  0  0
   18.7934  -10.1453    0.0000 C   0  0  0  0  0  0  0  0  0  0  0  0
   20.0923   -9.3951    0.0000 C   0  0  0  0  0  0  0  0  0  0  0  0
   21.3915  -10.1449    0.0000 C   0  0  0  0  0  0  0  0  0  0  0  0
   22.6904   -9.3947    0.0000 C   0  0  0  0  0  0  0  0  0  0  0  0
   23.9895  -10.1445    0.0000 C   0  0  0  0  0  0  0  0  0  0  0  0
   33.0846   -9.3934    0.0000 C   0  0  0  0  0  0  0  0  0  0  0  0
   31.7846  -10.1434    0.0000 C   0  0  0  0  0  0  0  0  0  0  0  0
   25.2885   -9.3943    0.0000 C   0  0  0  0  0  0  0  0  0  0  0  0
   33.0846   -7.8934    0.0000 C   0  0  0  0  0  0  0  0  0  0  0  0
   30.4846   -7.8934    0.0000 C   0  0  0  0  0  0  0  0  0  0  0  0
   29.1857  -10.1437    0.0000 C   0  0  0  0  0  0  0  0  0  0  0  0
   30.4846   -9.3934    0.0000 C   0  0  0  0  0  0  0  0  0  0  0  0
   26.5876  -10.1441    0.0000 C   0  0  0  0  0  0  0  0  0  0  0  0
   31.7846   -7.1434    0.0000 N   0  0  0  0  0  0  0  0  0  0  0  0
   26.5879  -11.6441    0.0000 O   0  0  0  0  0  0  0  0  0  0  0  0
   27.8865   -9.3939    0.0000 O   0  0  0  0  0  0  0  0  0  0  0  0
  2  1  1  0
  3  2  1  0
  4  3  1  0
  5  4  1  0
  6  5  1  0
  6  7  2  0
  8  7  1  0
  9  8  1  0
  9 10  2  0
 11 10  1  0
 12 11  1  0
 13 12  1  0
 14 13  1  0
 15 14  1  0
 16 15  1  0
 18 17  2  0
 19 16  1  0
 20 17  1  0
 23 18  1  0
 23 21  2  0
 23 22  1  0
 24 19  1  0
 25 20  2  0
 25 21  1  0
 26 24  2  0
 27 22  1  0
 27 24  1  0
M  END
>  <NAME>  (4963) 
(3-PYRIDYL)METHYL (Z,Z)-9,12-OCTADECDIENOATE

>  <SYNONYMS>  (4963) 
BETA-PICOLINYL LINOLEATE

>  <SPECTRUM TYPE>  (4963) 
MS1

>  <INSTRUMENT TYPE>  (4963) 
EI-B

>  <INSTRUMENT>  (4963) 
SHIMADZU QP-1000

>  <ION MODE>  (4963) 
P

>  <INCHIKEY>  (4963) 
CBIJRFCIJWDVAB-HZJYTTRNSA-N

>  <FORMULA>  (4963) 
C24H37NO2

>  <EXACT MASS>  (4963) 
371.28242942400004

>  <MW>  (4963) 
371

>  <ID>  (4963) 
JP004517

>  <CONTRIBUTOR>  (4963) 
University of Tokyo Team, {Faculty of Engineering, University of Tokyo

>  <COMMENT>  (4963) 
SMILES=CCCCCC([H])=C([H])CC([H])=C([H])CCCCCCCC(=O)OCc(c1)cncc1
cas=51861-91-7
InChI=InChI=1S/C24H37NO2/c1-2-3-4-5-6-7-8-9-10-11-12-13-14-15-16-19-24(26)27-22-23-18-17-20-25-21-23/h6-7,9-10,17-18,20-21H,2-5,8,11-16,19,22H2,1H3/b7-6-,10-9-
computed SMILES=O=C(OCC=1C=NC=CC1)CCCCCCCC=CCC=CCCCCC
accession=JP004517
date=2016.01.19 (Created 2008.10.21, modified 2011.05.06)
author=SEYAMA Y, DEPT. OF PHYSIOL. CHEMISTRY AND NUTRITION, FAC. OF MEDICINE, UNIV. OF TOKYO
license=CC BY-NC-SA
exact mass=371.28243
ionization energy=70 eV
ion type=[M]+*
computed spectral entropy=3.861073640390015
computed normalized entropy=0.8214210761284836
SPLASH=splash10-0006-9311000000-fa54a9f1389920b3008a
submitter=submitter = University of Tokyo Team (Faculty of Engineering, University of Tokyo)
MoNA Rating=3.75

>  <NUM PEAKS>  (4963) 
110

>  <MASS SPECTRAL PEAKS>  (4963) 
40 5.39
41 67.61
42 7.62
43 24.27
51 2.69
52 1.84
53 10.21
54 17.33
55 46.12
56 5.13
57 5.35
63 1.87
64 3.3
65 27.02
66 5.41
67 48.94
68 6.18
69 14.73
70 1.5
77 7.69
78 3.66
79 24.83
80 12.61
81 26.65
82 2.32
83 4.2
91 12.35
92 99.99
93 47.93
94 7.21
95 13.82
97 1.54
105 1.27
106 1.77
107 3.94
108 57.32
109 25.91
110 7.37
119 1.28
121 3.08
123 2.8
131 1.32
133 2.37
134 1.14
135 2.42
137 1.68
145 1.07
146 1.18
148 1.44
149 1.59
151 18.57
152 2.26
164 54.59
165 7.23
177 1.17
178 9.63
179 1.98
190 1.87
192 3.51
193 1.25
204 3.69
205 4.02
206 7.89
207 1.07
218 1.48
220 9.17
221 2.01
232 1.16
233 1.06
234 3.97
235 1
246 2.09
247 3.57
248 2.57
256 1.45
258 1.3
260 12.71
261 5.2
262 2.06
272 2.64
273 1.44
274 11.02
275 3.03
276 1.17
279 1.47
286 2.49
287 1.15
288 4.46
289 1.12
296 1.44
298 1.13
300 5.66
301 2.44
302 1.94
310 1.13
314 9.82
315 3.29
316 2.56
328 7.3
329 1.81
330 1.6
342 3.2
343 1.25
344 1.02
356 1.16
370 5.89
371 26.74
372 10.12
373 4.79
374 1.06

$$$$

     RDKit          2D

 27 27  0  0  0  0  0  0  0  0999 V2000
   29.1819   13.1076    0.0000 C   0  0  0  0  0  0  0  0  0  0  0  0
   27.8829   12.3574    0.0000 C   0  0  0  0  0  0  0  0  0  0  0  0
   27.8832   10.8574    0.0000 C   0  0  0  0  0  0  0  0  0  0  0  0
   26.5843   10.1072    0.0000 C   0  0  0  0  0  0  0  0  0  0  0  0
   26.5845    8.6072    0.0000 C   0  0  0  0  0  0  0  0  0  0  0  0
   25.2856    7.8570    0.0000 C   0  0  0  0  0  0  0  0  0  0  0  0
   25.2858    6.3570    0.0000 C   0  0  0  0  0  0  0  0  0  0  0  0
   23.9869    5.6068    0.0000 C   0  0  0  0  0  0  0  0  0  0  0  0
   23.9871    4.1068    0.0000 C   0  0  0  0  0  0  0  0  0  0  0  0
   22.6882    3.3566    0.0000 C   0  0  0  0  0  0  0  0  0  0  0  0
   21.3891    4.1064    0.0000 C   0  0  0  0  0  0  0  0  0  0  0  0
   20.0902    3.3561    0.0000 C   0  0  0  0  0  0  0  0  0  0  0  0
   18.7910    4.1059    0.0000 C   0  0  0  0  0  0  0  0  0  0  0  0
   17.4921    3.3557    0.0000 C   0  0  0  0  0  0  0  0  0  0  0  0
   16.1929    4.1055    0.0000 C   0  0  0  0  0  0  0  0  0  0  0  0
   14.8940    3.3553    0.0000 C   0  0  0  0  0  0  0  0  0  0  0  0
    5.7987    4.1034    0.0000 C   0  0  0  0  0  0  0  0  0  0  0  0
    7.0989    3.3539    0.0000 C   0  0  0  0  0  0  0  0  0  0  0  0
   13.5948    4.1051    0.0000 C   0  0  0  0  0  0  0  0  0  0  0  0
    5.7982    5.6034    0.0000 C   0  0  0  0  0  0  0  0  0  0  0  0
    8.3982    5.6043    0.0000 C   0  0  0  0  0  0  0  0  0  0  0  0
    9.6978    3.3545    0.0000 C   0  0  0  0  0  0  0  0  0  0  0  0
    8.3987    4.1043    0.0000 C   0  0  0  0  0  0  0  0  0  0  0  0
   12.2959    3.3549    0.0000 C   0  0  0  0  0  0  0  0  0  0  0  0
    7.0980    6.3539    0.0000 N   0  0  0  0  0  0  0  0  0  0  0  0
   12.2962    1.8549    0.0000 O   0  0  0  0  0  0  0  0  0  0  0  0
   10.9968    4.1047    0.0000 O   0  0  0  0  0  0  0  0  0  0  0  0
  2  1  1  0
  3  2  1  0
  4  3  1  0
  5  4  1  0
  6  5  1  0
  7  6  1  0
  8  7  1  0
  9  8  1  0
  9 10  2  0
 11 10  1  0
 12 11  1  0
 13 12  1  0
 14 13  1  0
 15 14  1  0
 16 15  1  0
 18 17  2  0
 19 16  1  0
 20 17  1  0
 23 18  1  0
 23 21  2  0
 23 22  1  0
 24 19  1  0
 25 20  2  0
 25 21  1  0
 26 24  2  0
 27 22  1  0
 27 24  1  0
M  END
>  <NAME>  (4964) 
(3-PYRIDYL)METHYL (Z)-9-OCTADECENOATE

>  <SYNONYMS>  (4964) 
BETA-PICOLINYL OLEATE

>  <SPECTRUM TYPE>  (4964) 
MS1

>  <INSTRUMENT TYPE>  (4964) 
EI-B

>  <INSTRUMENT>  (4964) 
SHIMADZU QP-1000

>  <ION MODE>  (4964) 
P

>  <INCHIKEY>  (4964) 
FBPJZADLPOSZEO-KTKRTIGZSA-N

>  <FORMULA>  (4964) 
C24H39NO2

>  <EXACT MASS>  (4964) 
373.298079488

>  <MW>  (4964) 
373

>  <ID>  (4964) 
JP004516

>  <CONTRIBUTOR>  (4964) 
University of Tokyo Team, {Faculty of Engineering, University of Tokyo

>  <COMMENT>  (4964) 
SMILES=CCCCCCCCC([H])=C([H])CCCCCCCC(=O)OCc(c1)cncc1
cas=82120-92-1
InChI=InChI=1S/C24H39NO2/c1-2-3-4-5-6-7-8-9-10-11-12-13-14-15-16-19-24(26)27-22-23-18-17-20-25-21-23/h9-10,17-18,20-21H,2-8,11-16,19,22H2,1H3/b10-9-
computed SMILES=O=C(OCC=1C=NC=CC1)CCCCCCCC=CCCCCCCCC
accession=JP004516
license=CC BY-NC-SA
date=2016.01.19 (Created 2008.10.21, modified 2011.05.06)
author=SEYAMA Y, DEPT. OF PHYSIOL. CHEMISTRY AND NUTRITION, FAC. OF MEDICINE, UNIV. OF TOKYO
exact mass=373.29808
ionization energy=70 eV
ion type=[M]+*
computed spectral entropy=3.760889573192327
computed normalized entropy=0.8221043014224917
SPLASH=splash10-052f-9520000000-67daa52ec270240878bb
submitter=submitter = University of Tokyo Team (Faculty of Engineering, University of Tokyo)
MoNA Rating=3.75

>  <NUM PEAKS>  (4964) 
97

>  <MASS SPECTRAL PEAKS>  (4964) 
41 58.47
42 9.92
43 49.46
51 2.89
53 6.87
54 11.69
55 56.87
56 8.38
57 15.23
58 1.6
63 2.05
64 1.66
65 19.96
66 1.12
67 16.66
68 5.16
69 26.14
70 4.39
71 3.43
77 2.32
78 1.75
79 4.96
80 2.27
81 12.02
82 3.04
83 8.48
84 1.06
85 1.71
87 1.19
89 1.03
91 5.28
92 99.99
93 49.93
94 5.56
95 4.31
97 4.88
102 1.51
103 1.06
105 1.63
106 1.89
107 2.45
108 67.39
109 30.96
110 9.45
111 2.02
113 1.65
116 1.18
118 1.18
120 2.09
123 1.14
130 1.23
132 1.64
133 1.41
134 2.7
135 1.23
137 1.15
139 1.57
141 1.29
151 25.34
152 5.23
153 1.76
161 2.52
162 1.42
164 71.78
165 10.84
166 2.71
177 1.83
178 14.28
179 3.9
190 1.75
192 6.85
193 3.73
204 3.14
206 11.57
207 4.48
209 1.8
220 15.22
221 1.63
234 8.16
246 3.8
247 3.88
248 4.26
256 2.12
260 9.12
261 3.52
270 2.93
274 24.82
275 7.81
288 24.82
289 6.65
302 6.04
316 5.66
330 5.56
344 2.96
372 4.11
373 16.13
374 4.91

$$$$

     RDKit          2D

 27 27  0  0  0  0  0  0  0  0999 V2000
   26.9108    0.5442    0.0000 C   0  0  0  0  0  0  0  0  0  0  0  0
   25.6116    1.2940    0.0000 C   0  0  0  0  0  0  0  0  0  0  0  0
   24.3127    0.5437    0.0000 C   0  0  0  0  0  0  0  0  0  0  0  0
   23.0135    1.2935    0.0000 C   0  0  0  0  0  0  0  0  0  0  0  0
   21.7146    0.5433    0.0000 C   0  0  0  0  0  0  0  0  0  0  0  0
   20.4155    1.2931    0.0000 C   0  0  0  0  0  0  0  0  0  0  0  0
   19.1165    0.5429    0.0000 C   0  0  0  0  0  0  0  0  0  0  0  0
   17.8174    1.2927    0.0000 C   0  0  0  0  0  0  0  0  0  0  0  0
   16.5185    0.5425    0.0000 C   0  0  0  0  0  0  0  0  0  0  0  0
   15.2193    1.2923    0.0000 C   0  0  0  0  0  0  0  0  0  0  0  0
   13.9204    0.5421    0.0000 C   0  0  0  0  0  0  0  0  0  0  0  0
   12.6212    1.2919    0.0000 C   0  0  0  0  0  0  0  0  0  0  0  0
   11.3223    0.5417    0.0000 C   0  0  0  0  0  0  0  0  0  0  0  0
   10.0231    1.2915    0.0000 C   0  0  0  0  0  0  0  0  0  0  0  0
    8.7242    0.5412    0.0000 C   0  0  0  0  0  0  0  0  0  0  0  0
    7.4251    1.2910    0.0000 C   0  0  0  0  0  0  0  0  0  0  0  0
   -1.6700    0.5400    0.0000 C   0  0  0  0  0  0  0  0  0  0  0  0
   -0.3700    1.2900    0.0000 C   0  0  0  0  0  0  0  0  0  0  0  0
    6.1262    0.5408    0.0000 C   0  0  0  0  0  0  0  0  0  0  0  0
   -1.6700   -0.9600    0.0000 C   0  0  0  0  0  0  0  0  0  0  0  0
    0.9300   -0.9600    0.0000 C   0  0  0  0  0  0  0  0  0  0  0  0
    2.2289    1.2902    0.0000 C   0  0  0  0  0  0  0  0  0  0  0  0
    0.9300    0.5400    0.0000 C   0  0  0  0  0  0  0  0  0  0  0  0
    4.8270    1.2906    0.0000 C   0  0  0  0  0  0  0  0  0  0  0  0
   -0.3700   -1.7100    0.0000 N   0  0  0  0  0  0  0  0  0  0  0  0
    4.8268    2.7906    0.0000 O   0  0  0  0  0  0  0  0  0  0  0  0
    3.5281    0.5404    0.0000 O   0  0  0  0  0  0  0  0  0  0  0  0
  2  1  1  0
  3  2  1  0
  4  3  1  0
  5  4  1  0
  6  5  1  0
  7  6  1  0
  8  7  1  0
  9  8  1  0
 10  9  1  0
 11 10  1  0
 12 11  1  0
 13 12  1  0
 14 13  1  0
 15 14  1  0
 16 15  1  0
 18 17  2  0
 19 16  1  0
 20 17  1  0
 23 18  1  0
 23 21  2  0
 23 22  1  0
 24 19  1  0
 25 20  2  0
 25 21  1  0
 26 24  2  0
 27 22  1  0
 27 24  1  0
M  END
>  <NAME>  (4965) 
(3-PYRIDYL)METHYL OCTADECANOATE

>  <SYNONYMS>  (4965) 
BETA-PICOLINYL STEARATE

>  <SPECTRUM TYPE>  (4965) 
MS1

>  <INSTRUMENT TYPE>  (4965) 
EI-B

>  <INSTRUMENT>  (4965) 
SHIMADZU QP-1000

>  <ION MODE>  (4965) 
P

>  <INCHIKEY>  (4965) 
MSCVPMAJZWQQRO-UHFFFAOYSA-N

>  <FORMULA>  (4965) 
C24H41NO2

>  <EXACT MASS>  (4965) 
375.31372955200004

>  <MW>  (4965) 
375

>  <ID>  (4965) 
JP004515

>  <CONTRIBUTOR>  (4965) 
University of Tokyo Team, {Faculty of Engineering, University of Tokyo

>  <COMMENT>  (4965) 
SMILES=CCCCCCCCCCCCCCCCCC(=O)OCc(c1)cncc1
cas=82120-89-6
InChI=InChI=1S/C24H41NO2/c1-2-3-4-5-6-7-8-9-10-11-12-13-14-15-16-19-24(26)27-22-23-18-17-20-25-21-23/h17-18,20-21H,2-16,19,22H2,1H3
computed SMILES=O=C(OCC=1C=NC=CC1)CCCCCCCCCCCCCCCCC
accession=JP004515
date=2016.01.19 (Created 2008.10.21, modified 2011.05.06)
author=SEYAMA Y, DEPT. OF PHYSIOL. CHEMISTRY AND NUTRITION, FAC. OF MEDICINE, UNIV. OF TOKYO
license=CC BY-NC-SA
exact mass=375.31373
ionization energy=70 eV
ion type=[M]+*
computed spectral entropy=3.5453966043557092
computed normalized entropy=0.7918538969172667
SPLASH=splash10-0a4l-8931000000-740abea74da10bb5b080
submitter=submitter = University of Tokyo Team (Faculty of Engineering, University of Tokyo)
MoNA Rating=3.75

>  <NUM PEAKS>  (4965) 
88

>  <MASS SPECTRAL PEAKS>  (4965) 
53 2.42
54 3.52
55 34.16
56 8.58
57 31.83
58 1.92
63 1.79
64 2.42
65 18.63
66 2.21
67 2.95
68 1.11
69 13.12
70 3.08
71 9.7
73 1.07
78 1.7
79 1.48
80 2.52
81 2.12
82 1.12
83 4.99
84 1.16
85 3.71
91 3.73
92 90.68
93 70.32
94 8.94
95 1.67
97 3.06
106 1.81
107 3.32
108 99.99
109 47.26
110 10.05
111 1.79
120 2.27
121 1.02
133 1.4
134 1.31
135 1.13
148 2.36
151 60.23
152 4.82
164 78.45
165 10.2
166 1.44
178 10.73
179 2.67
190 1.14
191 1.38
192 5.33
193 3.71
204 1.92
206 16.37
207 5.01
218 1.09
220 14.64
221 4.58
234 15.33
235 3.68
246 1.15
247 1.06
248 16.11
249 4.1
260 1.49
262 16.23
263 3.79
274 1.26
276 15.09
277 3.33
288 1.62
290 13.28
291 3.15
302 2.66
304 11.47
305 3.11
316 2.59
318 9.83
319 2.64
330 1.11
332 8.58
333 2.21
346 6.58
347 1.75
360 2.22
375 5.89
376 2.37

$$$$

     RDKit          2D

 25 25  0  0  0  0  0  0  0  0999 V2000
   24.3127    0.5437    0.0000 C   0  0  0  0  0  0  0  0  0  0  0  0
   23.0135    1.2935    0.0000 C   0  0  0  0  0  0  0  0  0  0  0  0
   21.7146    0.5433    0.0000 C   0  0  0  0  0  0  0  0  0  0  0  0
   20.4155    1.2931    0.0000 C   0  0  0  0  0  0  0  0  0  0  0  0
   19.1165    0.5429    0.0000 C   0  0  0  0  0  0  0  0  0  0  0  0
   17.8174    1.2927    0.0000 C   0  0  0  0  0  0  0  0  0  0  0  0
   16.5185    0.5425    0.0000 C   0  0  0  0  0  0  0  0  0  0  0  0
   15.2193    1.2923    0.0000 C   0  0  0  0  0  0  0  0  0  0  0  0
   13.9204    0.5421    0.0000 C   0  0  0  0  0  0  0  0  0  0  0  0
   12.6212    1.2919    0.0000 C   0  0  0  0  0  0  0  0  0  0  0  0
   11.3223    0.5417    0.0000 C   0  0  0  0  0  0  0  0  0  0  0  0
   10.0231    1.2915    0.0000 C   0  0  0  0  0  0  0  0  0  0  0  0
    8.7242    0.5412    0.0000 C   0  0  0  0  0  0  0  0  0  0  0  0
    7.4251    1.2910    0.0000 C   0  0  0  0  0  0  0  0  0  0  0  0
   -1.6700    0.5400    0.0000 C   0  0  0  0  0  0  0  0  0  0  0  0
   -0.3700    1.2900    0.0000 C   0  0  0  0  0  0  0  0  0  0  0  0
    6.1262    0.5408    0.0000 C   0  0  0  0  0  0  0  0  0  0  0  0
   -1.6700   -0.9600    0.0000 C   0  0  0  0  0  0  0  0  0  0  0  0
    0.9300   -0.9600    0.0000 C   0  0  0  0  0  0  0  0  0  0  0  0
    2.2289    1.2902    0.0000 C   0  0  0  0  0  0  0  0  0  0  0  0
    0.9300    0.5400    0.0000 C   0  0  0  0  0  0  0  0  0  0  0  0
    4.8270    1.2906    0.0000 C   0  0  0  0  0  0  0  0  0  0  0  0
   -0.3700   -1.7100    0.0000 N   0  0  0  0  0  0  0  0  0  0  0  0
    4.8268    2.7906    0.0000 O   0  0  0  0  0  0  0  0  0  0  0  0
    3.5281    0.5404    0.0000 O   0  0  0  0  0  0  0  0  0  0  0  0
  2  1  1  0
  3  2  1  0
  4  3  1  0
  5  4  1  0
  6  5  1  0
  7  6  1  0
  8  7  1  0
  9  8  1  0
 10  9  1  0
 11 10  1  0
 12 11  1  0
 13 12  1  0
 14 13  1  0
 16 15  2  0
 17 14  1  0
 18 15  1  0
 21 16  1  0
 21 19  2  0
 21 20  1  0
 22 17  1  0
 23 18  2  0
 23 19  1  0
 24 22  2  0
 25 20  1  0
 25 22  1  0
M  END
>  <NAME>  (4966) 
(3-PYRIDYL)METHYL HEXADECANOATE

>  <SYNONYMS>  (4966) 
BETA-PICOLINYL PALMITATE

>  <SPECTRUM TYPE>  (4966) 
MS1

>  <INSTRUMENT TYPE>  (4966) 
EI-B

>  <INSTRUMENT>  (4966) 
SHIMADZU QP-1000

>  <ION MODE>  (4966) 
P

>  <INCHIKEY>  (4966) 
BCEVKZRDQYYDNQ-UHFFFAOYSA-N

>  <FORMULA>  (4966) 
C22H37NO2

>  <EXACT MASS>  (4966) 
347.282429424

>  <MW>  (4966) 
347

>  <ID>  (4966) 
JP004514

>  <CONTRIBUTOR>  (4966) 
University of Tokyo Team, {Faculty of Engineering, University of Tokyo

>  <COMMENT>  (4966) 
SMILES=CCCCCCCCCCCCCCCC(=O)OCc(c1)cncc1
InChI=InChI=1S/C22H37NO2/c1-2-3-4-5-6-7-8-9-10-11-12-13-14-17-22(24)25-20-21-16-15-18-23-19-21/h15-16,18-19H,2-14,17,20H2,1H3
computed SMILES=O=C(OCC=1C=NC=CC1)CCCCCCCCCCCCCCC
accession=JP004514
license=CC BY-NC-SA
date=2016.01.19 (Created 2008.10.21, modified 2011.05.06)
author=SEYAMA Y, DEPT. OF PHYSIOL. CHEMISTRY AND NUTRITION, FAC. OF MEDICINE, UNIV. OF TOKYO
exact mass=347.28243
ionization energy=70 eV
ion type=[M]+*
computed spectral entropy=3.5570185654511244
computed normalized entropy=0.8213432428088376
SPLASH=splash10-0btc-8952000000-77116ef55e05711b9aa0
submitter=submitter = University of Tokyo Team (Faculty of Engineering, University of Tokyo)
MoNA Rating=3.75

>  <NUM PEAKS>  (4966) 
76

>  <MASS SPECTRAL PEAKS>  (4966) 
51 2.05
52 1.52
53 3.62
54 2.93
55 33.3
56 7.83
57 31.11
58 1.74
60 1.07
63 1.92
64 3.29
65 21.86
66 2.13
67 4.28
68 1.51
69 10.75
70 2.84
71 8.58
73 1.76
78 1.9
79 2.11
80 3.85
81 2.93
83 5.22
84 1.4
85 3.69
91 4.72
92 90.5
93 65.69
94 8.39
95 2.15
97 3.32
106 1.57
108 82.78
109 36.38
110 8.87
111 1.8
120 1.35
121 1.02
133 1.27
134 1.03
148 1.56
151 67.73
152 6.53
153 1.02
164 99.99
165 14.39
166 1.39
178 14.86
179 4.09
192 7.24
193 4.6
204 1.54
206 22.11
207 5.87
220 20.82
221 5.6
234 22.33
235 4.31
248 24.3
249 5.18
262 27.69
263 5.41
276 25.87
277 5.59
290 24.71
291 5.37
304 21.14
305 4.55
318 19.13
319 4.51
332 5.48
333 1.51
346 9.48
347 14.83
348 3.75

$$$$

     RDKit          2D

 24 24  0  0  0  0  0  0  0  0999 V2000
   -1.6700   -0.2129    0.0000 C   0  0  0  0  0  0  0  0  0  0  0  0
   -0.3711    0.5373    0.0000 C   0  0  0  0  0  0  0  0  0  0  0  0
    0.9281   -0.2125    0.0000 C   0  0  0  0  0  0  0  0  0  0  0  0
    2.2270    0.5377    0.0000 C   0  0  0  0  0  0  0  0  0  0  0  0
    3.5262   -0.2121    0.0000 C   0  0  0  0  0  0  0  0  0  0  0  0
    4.8251    0.5381    0.0000 C   0  0  0  0  0  0  0  0  0  0  0  0
    6.1242   -0.2117    0.0000 C   0  0  0  0  0  0  0  0  0  0  0  0
    7.4231    0.5385    0.0000 C   0  0  0  0  0  0  0  0  0  0  0  0
    8.7223   -0.2112    0.0000 C   0  0  0  0  0  0  0  0  0  0  0  0
   10.0212    0.5390    0.0000 C   0  0  0  0  0  0  0  0  0  0  0  0
   11.3204   -0.2108    0.0000 C   0  0  0  0  0  0  0  0  0  0  0  0
   12.6193    0.5394    0.0000 C   0  0  0  0  0  0  0  0  0  0  0  0
   13.9185   -0.2104    0.0000 C   0  0  0  0  0  0  0  0  0  0  0  0
   23.0135    0.5406    0.0000 C   0  0  0  0  0  0  0  0  0  0  0  0
   21.7135   -0.2094    0.0000 C   0  0  0  0  0  0  0  0  0  0  0  0
   15.2174    0.5398    0.0000 C   0  0  0  0  0  0  0  0  0  0  0  0
   23.0135    2.0406    0.0000 C   0  0  0  0  0  0  0  0  0  0  0  0
   20.4135    2.0406    0.0000 C   0  0  0  0  0  0  0  0  0  0  0  0
   19.1146   -0.2096    0.0000 C   0  0  0  0  0  0  0  0  0  0  0  0
   20.4135    0.5406    0.0000 C   0  0  0  0  0  0  0  0  0  0  0  0
   16.5165   -0.2100    0.0000 C   0  0  0  0  0  0  0  0  0  0  0  0
   21.7135    2.7906    0.0000 N   0  0  0  0  0  0  0  0  0  0  0  0
   16.5168   -1.7100    0.0000 O   0  0  0  0  0  0  0  0  0  0  0  0
   17.8155    0.5402    0.0000 O   0  0  0  0  0  0  0  0  0  0  0  0
  2  1  1  0
  3  2  1  0
  4  3  1  0
  5  4  1  0
  6  5  1  0
  7  6  1  0
  8  7  1  0
  9  8  1  0
 10  9  1  0
 11 10  1  0
 12 11  1  0
 13 12  1  0
 15 14  2  0
 16 13  1  0
 17 14  1  0
 20 15  1  0
 20 18  2  0
 20 19  1  0
 21 16  1  0
 22 17  2  0
 22 18  1  0
 23 21  2  0
 24 19  1  0
 24 21  1  0
M  END
>  <NAME>  (4967) 
(3-PYRIDYL)METHYL PENTADECANOATE

>  <SYNONYMS>  (4967) 
BETA-PICOLINYL PENTADECANOATE

>  <SPECTRUM TYPE>  (4967) 
MS1

>  <INSTRUMENT TYPE>  (4967) 
EI-B

>  <INSTRUMENT>  (4967) 
SHIMADZU QP-1000

>  <ION MODE>  (4967) 
P

>  <INCHIKEY>  (4967) 
UTNGTSRXVAVXCM-UHFFFAOYSA-N

>  <FORMULA>  (4967) 
C21H35NO2

>  <EXACT MASS>  (4967) 
333.26677936

>  <MW>  (4967) 
333

>  <ID>  (4967) 
JP004513

>  <CONTRIBUTOR>  (4967) 
University of Tokyo Team, {Faculty of Engineering, University of Tokyo

>  <COMMENT>  (4967) 
SMILES=CCCCCCCCCCCCCCC(=O)OCc(c1)cncc1
InChI=InChI=1S/C21H35NO2/c1-2-3-4-5-6-7-8-9-10-11-12-13-16-21(23)24-19-20-15-14-17-22-18-20/h14-15,17-18H,2-13,16,19H2,1H3
computed SMILES=O=C(OCC=1C=NC=CC1)CCCCCCCCCCCCCC
accession=JP004513
date=2016.01.19 (Created 2008.10.21, modified 2011.05.06)
author=SEYAMA Y, DEPT. OF PHYSIOL. CHEMISTRY AND NUTRITION, FAC. OF MEDICINE, UNIV. OF TOKYO
license=CC BY-NC-SA
exact mass=333.26678
ionization energy=70 eV
ion type=[M]+*
computed spectral entropy=3.499075590201847
computed normalized entropy=0.7985062351092383
SPLASH=splash10-06r6-6951000000-33ce408ba0b477fcb8dd
submitter=submitter = University of Tokyo Team (Faculty of Engineering, University of Tokyo)
MoNA Rating=3.75

>  <NUM PEAKS>  (4967) 
80

>  <MASS SPECTRAL PEAKS>  (4967) 
51 1.9
52 1.47
53 3.02
54 2.25
55 24.02
56 4.81
57 11.32
60 1.52
63 2.02
64 3.44
65 19.68
66 2.15
67 3.12
68 1.35
69 7.55
71 2.39
78 1.47
79 1.92
80 3.99
81 2.4
83 2.64
85 2.58
91 4.24
92 79.11
93 59.55
94 7.17
95 1.57
96 1.1
97 2.8
106 1.63
108 78.09
109 35.03
110 7.54
111 1.47
120 1
148 2.43
151 61.44
152 5.93
164 99.99
165 14.1
166 2.26
176 1.06
177 1.24
178 14.24
179 4.36
180 1.03
181 1.21
185 1.52
190 1.49
192 7.38
193 4.05
194 1.57
204 1.1
206 23.08
207 5.7
218 1.14
220 21.74
221 5.12
222 1.19
223 1.43
225 1.28
234 23.39
235 4.6
242 1.21
248 25.54
249 5.76
250 1.49
262 27.44
263 5.64
274 1.57
276 11.91
277 1.56
290 28.62
291 6.48
292 1.58
304 11.46
305 3.31
332 9.61
333 12.52
334 4.99

$$$$

     RDKit          2D

 23 23  0  0  0  0  0  0  0  0999 V2000
   -1.6700    0.5373    0.0000 C   0  0  0  0  0  0  0  0  0  0  0  0
   -0.3708   -0.2125    0.0000 C   0  0  0  0  0  0  0  0  0  0  0  0
    0.9281    0.5377    0.0000 C   0  0  0  0  0  0  0  0  0  0  0  0
    2.2272   -0.2121    0.0000 C   0  0  0  0  0  0  0  0  0  0  0  0
    3.5262    0.5381    0.0000 C   0  0  0  0  0  0  0  0  0  0  0  0
    4.8253   -0.2117    0.0000 C   0  0  0  0  0  0  0  0  0  0  0  0
    6.1242    0.5385    0.0000 C   0  0  0  0  0  0  0  0  0  0  0  0
    7.4234   -0.2112    0.0000 C   0  0  0  0  0  0  0  0  0  0  0  0
    8.7223    0.5390    0.0000 C   0  0  0  0  0  0  0  0  0  0  0  0
   10.0215   -0.2108    0.0000 C   0  0  0  0  0  0  0  0  0  0  0  0
   11.3204    0.5394    0.0000 C   0  0  0  0  0  0  0  0  0  0  0  0
   12.6195   -0.2104    0.0000 C   0  0  0  0  0  0  0  0  0  0  0  0
   21.7146    0.5406    0.0000 C   0  0  0  0  0  0  0  0  0  0  0  0
   20.4146   -0.2094    0.0000 C   0  0  0  0  0  0  0  0  0  0  0  0
   13.9185    0.5398    0.0000 C   0  0  0  0  0  0  0  0  0  0  0  0
   21.7146    2.0406    0.0000 C   0  0  0  0  0  0  0  0  0  0  0  0
   19.1146    2.0406    0.0000 C   0  0  0  0  0  0  0  0  0  0  0  0
   17.8157   -0.2096    0.0000 C   0  0  0  0  0  0  0  0  0  0  0  0
   19.1146    0.5406    0.0000 C   0  0  0  0  0  0  0  0  0  0  0  0
   15.2176   -0.2100    0.0000 C   0  0  0  0  0  0  0  0  0  0  0  0
   20.4146    2.7906    0.0000 N   0  0  0  0  0  0  0  0  0  0  0  0
   15.2179   -1.7100    0.0000 O   0  0  0  0  0  0  0  0  0  0  0  0
   16.5165    0.5402    0.0000 O   0  0  0  0  0  0  0  0  0  0  0  0
  2  1  1  0
  3  2  1  0
  4  3  1  0
  5  4  1  0
  6  5  1  0
  7  6  1  0
  8  7  1  0
  9  8  1  0
 10  9  1  0
 11 10  1  0
 12 11  1  0
 14 13  2  0
 15 12  1  0
 16 13  1  0
 19 14  1  0
 19 17  2  0
 19 18  1  0
 20 15  1  0
 21 16  2  0
 21 17  1  0
 22 20  2  0
 23 18  1  0
 23 20  1  0
M  END
>  <NAME>  (4968) 
(3-PYRIDYL)METHYL TETRADECANOATE

>  <SYNONYMS>  (4968) 
BETA-PICOLINYL MYRISTATE

>  <SPECTRUM TYPE>  (4968) 
MS1

>  <INSTRUMENT TYPE>  (4968) 
EI-B

>  <INSTRUMENT>  (4968) 
SHIMADZU QP-1000

>  <ION MODE>  (4968) 
P

>  <INCHIKEY>  (4968) 
UWHPETZHONZXLA-UHFFFAOYSA-N

>  <FORMULA>  (4968) 
C20H33NO2

>  <EXACT MASS>  (4968) 
319.251129296

>  <MW>  (4968) 
319

>  <ID>  (4968) 
JP004512

>  <CONTRIBUTOR>  (4968) 
University of Tokyo Team, {Faculty of Engineering, University of Tokyo

>  <COMMENT>  (4968) 
SMILES=CCCCCCCCCCCCCC(=O)OCc(c1)cncc1
InChI=InChI=1S/C20H33NO2/c1-2-3-4-5-6-7-8-9-10-11-12-15-20(22)23-18-19-14-13-16-21-17-19/h13-14,16-17H,2-12,15,18H2,1H3
computed SMILES=O=C(OCC=1C=NC=CC1)CCCCCCCCCCCCC
accession=JP004512
date=2016.01.19 (Created 2008.10.21, modified 2011.05.06)
author=SEYAMA Y, DEPT. OF PHYSIOL. CHEMISTRY AND NUTRITION, FAC. OF MEDICINE, UNIV. OF TOKYO
license=CC BY-NC-SA
exact mass=319.25113
ionization energy=70 eV
ion type=[M]+*
computed spectral entropy=3.4390194333482036
computed normalized entropy=0.81790031867926
SPLASH=splash10-06r6-8950000000-0413ce659d49e51ad874
submitter=submitter = University of Tokyo Team (Faculty of Engineering, University of Tokyo)
MoNA Rating=3.75

>  <NUM PEAKS>  (4968) 
67

>  <MASS SPECTRAL PEAKS>  (4968) 
51 2.29
52 1.54
53 3.54
54 2.23
55 26.96
56 5.82
57 23.21
58 1.19
63 2.27
64 3.29
65 22.15
66 1.9
67 3.61
68 1.26
69 9.66
70 2.21
71 6.73
73 1.6
78 1.99
79 2.24
80 3.79
81 2.72
83 4.66
84 1.24
85 2.47
91 4.4
92 83.06
93 59.41
94 6.2
95 2.23
97 2.98
106 1.44
108 72.91
109 31.91
110 7.57
111 1.68
120 1.12
133 1.02
148 1.53
151 63.58
152 6.05
164 99.99
165 13.88
166 1.48
178 13.85
179 4.04
192 7.23
193 4.18
204 1.38
206 22.39
207 5.55
220 20.55
221 5.43
234 22.79
235 4.18
248 23.55
249 5.32
262 27.32
263 5.13
276 25.16
277 4.98
290 24.48
291 5.29
304 6.23
318 8.49
319 11.25
320 3.01

$$$$

     RDKit          2D

 27 27  0  0  0  0  0  0  0  0999 V2000
   13.9180    2.7896    0.0000 C   0  0  0  0  0  0  0  0  0  0  0  0
   -1.6700   -0.2129    0.0000 C   0  0  0  0  0  0  0  0  0  0  0  0
   -0.3713    2.0373    0.0000 C   0  0  0  0  0  0  0  0  0  0  0  0
   12.6191    2.0394    0.0000 C   0  0  0  0  0  0  0  0  0  0  0  0
    6.1242   -0.2117    0.0000 C   0  0  0  0  0  0  0  0  0  0  0  0
    4.8251    0.5381    0.0000 C   0  0  0  0  0  0  0  0  0  0  0  0
    7.4231    0.5385    0.0000 C   0  0  0  0  0  0  0  0  0  0  0  0
    3.5262   -0.2121    0.0000 C   0  0  0  0  0  0  0  0  0  0  0  0
    8.7223   -0.2112    0.0000 C   0  0  0  0  0  0  0  0  0  0  0  0
    2.2270    0.5377    0.0000 C   0  0  0  0  0  0  0  0  0  0  0  0
   10.0212    0.5390    0.0000 C   0  0  0  0  0  0  0  0  0  0  0  0
   23.0135    0.5406    0.0000 C   0  0  0  0  0  0  0  0  0  0  0  0
    0.9281   -0.2125    0.0000 C   0  0  0  0  0  0  0  0  0  0  0  0
   11.3204   -0.2108    0.0000 C   0  0  0  0  0  0  0  0  0  0  0  0
   21.7135   -0.2094    0.0000 C   0  0  0  0  0  0  0  0  0  0  0  0
   13.9185   -0.2104    0.0000 C   0  0  0  0  0  0  0  0  0  0  0  0
   15.2174    0.5398    0.0000 C   0  0  0  0  0  0  0  0  0  0  0  0
   23.0135    2.0406    0.0000 C   0  0  0  0  0  0  0  0  0  0  0  0
   20.4135    2.0406    0.0000 C   0  0  0  0  0  0  0  0  0  0  0  0
   19.1146   -0.2096    0.0000 C   0  0  0  0  0  0  0  0  0  0  0  0
   -0.3711    0.5373    0.0000 C   0  0  0  0  0  0  0  0  0  0  0  0
   12.6193    0.5394    0.0000 C   0  0  0  0  0  0  0  0  0  0  0  0
   20.4135    0.5406    0.0000 C   0  0  0  0  0  0  0  0  0  0  0  0
   16.5165   -0.2100    0.0000 C   0  0  0  0  0  0  0  0  0  0  0  0
   21.7135    2.7906    0.0000 N   0  0  0  0  0  0  0  0  0  0  0  0
   16.5168   -1.7100    0.0000 O   0  0  0  0  0  0  0  0  0  0  0  0
   17.8155    0.5402    0.0000 O   0  0  0  0  0  0  0  0  0  0  0  0
  4  1  1  0
  6  5  1  0
  7  5  1  0
  8  6  1  0
  9  7  1  0
 10  8  1  0
 11  9  1  0
 13 10  1  0
 14 11  1  0
 15 12  2  0
 17 16  1  0
 18 12  1  0
 21  2  1  0
 21  3  1  0
 21 13  1  0
 22  4  1  0
 22 14  1  0
 22 16  1  0
 23 15  1  0
 23 19  2  0
 23 20  1  0
 24 17  1  0
 25 18  2  0
 25 19  1  0
 26 24  2  0
 27 20  1  0
 27 24  1  0
M  END
>  <NAME>  (4969) 
(3-PYRIDYL)METHYL 4-ETHYL-14-METHYLPENTADECANOATE

>  <SYNONYMS>  (4969) 
BETA-PICOLINYL 4-ETHYL-ISOPALMITATE

>  <SPECTRUM TYPE>  (4969) 
MS1

>  <INSTRUMENT TYPE>  (4969) 
EI-B

>  <INSTRUMENT>  (4969) 
SHIMADZU QP-1000

>  <ION MODE>  (4969) 
P

>  <INCHIKEY>  (4969) 
CKNSXXBZIRRIDD-UHFFFAOYSA-N

>  <FORMULA>  (4969) 
C24H41NO2

>  <EXACT MASS>  (4969) 
375.313729552

>  <MW>  (4969) 
375

>  <ID>  (4969) 
JP004511

>  <CONTRIBUTOR>  (4969) 
University of Tokyo Team, {Faculty of Engineering, University of Tokyo

>  <COMMENT>  (4969) 
SMILES=CC(C)CCCCCCCCCC(CC)CCC(=O)OCc(c1)cncc1
InChI=InChI=1S/C24H41NO2/c1-4-22(14-11-9-7-5-6-8-10-13-21(2)3)16-17-24(26)27-20-23-15-12-18-25-19-23/h12,15,18-19,21-22H,4-11,13-14,16-17,20H2,1-3H3
computed SMILES=O=C(OCC=1C=NC=CC1)CCC(CC)CCCCCCCCCC(C)C
accession=JP004511
date=2016.01.19 (Created 2008.10.21, modified 2011.05.06)
author=SEYAMA Y, DEPT. OF PHYSIOL. CHEMISTRY AND NUTRITION, FAC. OF MEDICINE, UNIV. OF TOKYO
license=CC BY-NC-SA
exact mass=375.31373
ionization energy=70 eV
ion type=[M]+*
computed spectral entropy=3.2208769884335906
computed normalized entropy=0.7966451016978288
SPLASH=splash10-06r6-9812000000-7cbf5c9f7f09066afc78
submitter=submitter = University of Tokyo Team (Faculty of Engineering, University of Tokyo)
MoNA Rating=3.75

>  <NUM PEAKS>  (4969) 
57

>  <MASS SPECTRAL PEAKS>  (4969) 
53 1.63
54 1.29
55 20.43
56 5.14
57 20.43
64 1.28
65 11.16
66 1.07
67 2.84
68 1.04
69 10.88
70 2.84
71 7.45
80 1.46
81 2.55
83 5.21
85 3.24
92 60.65
93 56.25
94 6.53
95 2.45
97 3.55
106 1.09
108 31.79
109 16
110 5.38
111 2.1
125 1.08
151 39.53
152 3.98
164 99.99
165 11.81
166 1.1
192 1.62
206 10.28
207 2.4
220 2.28
234 4.23
248 3.89
262 4.06
276 6.17
277 1.27
290 8.6
291 1.76
304 8.33
305 2.04
318 7.61
319 1.75
332 15.6
333 3.84
346 5.65
347 1.51
360 8.97
361 2.04
374 2.67
375 5.76
376 1.52

$$$$

     RDKit          2D

 29 28  0  0  0  0  0  0  0  0999 V2000
   -9.7428    4.8750    0.0000 C   0  0  0  0  0  0  0  0  0  0  0  0
    0.6495   12.3750    0.0000 C   0  0  0  0  0  0  0  0  0  0  0  0
    1.9486    7.1250    0.0000 C   0  0  0  0  0  0  0  0  0  0  0  0
   -0.6495    2.6250    0.0000 C   0  0  0  0  0  0  0  0  0  0  0  0
   -5.8457   10.1250    0.0000 C   0  0  0  0  0  0  0  0  0  0  0  0
   -5.8457    2.6250    0.0000 C   0  0  0  0  0  0  0  0  0  0  0  0
   -5.8457    5.6250    0.0000 C   0  0  0  0  0  0  0  0  0  0  0  0
   -5.8457    7.1250    0.0000 H   0  0  0  0  0  0  0  0  0  0  0  0
   -1.9486    9.3750    0.0000 C   0  0  0  0  0  0  0  0  0  0  0  0
   -8.4437    5.6250    0.0000 C   0  0  0  0  0  0  0  0  0  0  0  0
   -0.6495   11.6250    0.0000 C   0  0  0  0  0  0  0  0  0  0  0  0
    0.6495    7.8750    0.0000 C   0  0  0  0  0  0  0  0  0  0  0  0
   -1.9486    3.3750    0.0000 C   0  0  0  0  0  0  0  0  0  0  0  0
   -4.5466    9.3750    0.0000 C   0  0  0  0  0  0  0  0  0  0  0  0
   -4.5466    4.8750    0.0000 C   0  0  0  0  0  0  0  0  0  0  0  0
   -1.9486    7.8750    0.0000 C   0  0  0  0  0  0  0  0  0  0  0  0
   -3.2476    5.6250    0.0000 C   0  0  0  0  0  0  0  0  0  0  0  0
   -3.2476    7.1250    0.0000 C   0  0  0  0  0  0  0  0  0  0  0  0
   -8.4437    7.1250    0.0000 O   0  0  0  0  0  0  0  0  0  0  0  0
   -1.9486   12.3750    0.0000 O   0  0  0  0  0  0  0  0  0  0  0  0
    0.6495    9.3750    0.0000 O   0  0  0  0  0  0  0  0  0  0  0  0
   -3.2476    2.6250    0.0000 O   0  0  0  0  0  0  0  0  0  0  0  0
   -3.2476   10.1250    0.0000 O   0  0  0  0  0  0  0  0  0  0  0  0
   -4.5466    3.3750    0.0000 O   0  0  0  0  0  0  0  0  0  0  0  0
   -7.1447    4.8750    0.0000 O   0  0  0  0  0  0  0  0  0  0  0  0
   -0.6495   10.1250    0.0000 O   0  0  0  0  0  0  0  0  0  0  0  0
   -0.6495    7.1250    0.0000 O   0  0  0  0  0  0  0  0  0  0  0  0
   -1.9486    4.8750    0.0000 O   0  0  0  0  0  0  0  0  0  0  0  0
   -4.5466    7.8750    0.0000 O   0  0  0  0  0  0  0  0  0  0  0  0
  7  8  1  0
 10  1  1  0
 11  2  1  0
 12  3  1  0
 13  4  1  0
 14  5  1  0
 15  7  1  0
 16  9  1  0
 17 15  1  0
 18 16  1  0
 18 17  1  0
 19 10  2  0
 20 11  2  0
 21 12  2  0
 22 13  2  0
 23 14  2  0
 24  6  1  0
 24 15  1  0
 25  7  1  0
 25 10  1  0
 26  9  1  0
 26 11  1  0
 27 12  1  0
 27 16  1  0
 28 13  1  0
 28 17  1  0
 29 14  1  0
 29 18  1  0
M  ISO  1   8   2
M  END
>  <NAME>  (4970) 
1,3,4,5,6-PENTA-O-ACETYL-2-O-METHYLHEXITOL(1-D)

>  <SYNONYMS>  (4970) 
1,3,4,5,6-PENTACETOXY-2-METHOXYHEXANE (1-D)

>  <SPECTRUM TYPE>  (4970) 
MS1

>  <INSTRUMENT TYPE>  (4970) 
EI-B

>  <INSTRUMENT>  (4970) 
SHIMADZU LKB-9000B

>  <ION MODE>  (4970) 
P

>  <INCHIKEY>  (4970) 
ICWCFTONPLAURK-WHRKIXHSSA-N

>  <FORMULA>  (4970) 
C17H26O11

>  <EXACT MASS>  (4970) 
407.153788398

>  <MW>  (4970) 
407

>  <ID>  (4970) 
JP004510

>  <CONTRIBUTOR>  (4970) 
University of Tokyo Team, {Faculty of Engineering, University of Tokyo

>  <COMMENT>  (4970) 
SMILES=CC(=O)OCC(OC(C)=O)C(OC(C)=O)C(OC(C)=O)C(OC)C([2H])OC(C)=O
InChI=InChI=1S/C17H26O11/c1-9(18)24-7-14(23-6)16(27-12(4)21)17(28-13(5)22)15(26-11(3)20)8-25-10(2)19/h14-17H,7-8H2,1-6H3/i7D
computed SMILES=[H]C(OC(=O)C)C(OC)C(OC(=O)C)C(OC(=O)C)C(OC(=O)C)COC(=O)C
accession=JP004510
date=2016.01.19 (Created 2008.10.21, modified 2011.05.06)
author=SEYAMA Y, DEPT. OF PHYSIOL. CHEMISTRY AND NUTRITION, FAC. OF MEDICINE, UNIV. OF TOKYO
license=CC BY-NC-SA
exact mass=406.14751
ionization energy=70 eV
ion type=[M]+*
computed spectral entropy=2.290478939578793
computed normalized entropy=0.594906787096024
SPLASH=splash10-014l-5900000000-58ac27d98dad7343912f
submitter=submitter = University of Tokyo Team (Faculty of Engineering, University of Tokyo)
MoNA Rating=3.75

>  <NUM PEAKS>  (4970) 
47

>  <MASS SPECTRAL PEAKS>  (4970) 
43 80.1
44 1.9
45 1.9
59 0.54
61 1.1
69 1
73 1.2
74 0.17
85 2.8
86 1.4
87 5.3
88 0.18
97 9.3
98 1.5
100 1.4
101 0.1
103 3
112 1.4
113 1.1
115 0.51
116 1.2
117 2.6
118 99.99
119 0.59
120 1
126 1.1
127 1.1
128 0.18
129 9.7
130 2.3
139 20
140 0.32
145 2.5
148 1.1
154 1.2
157 0.33
160 4.9
161 2.2
171 3.1
172 0.13
187 1.3
189 1.5
202 1.8
231 0.11
259 4.8
333 6.1
334 1.1

$$$$

     RDKit          2D

 25 24  0  0  0  0  0  0  0  0999 V2000
    3.5724    5.0625    0.0000 C   0  0  0  0  0  0  0  0  0  0  0  0
   -6.8200    9.5625    0.0000 C   0  0  0  0  0  0  0  0  0  0  0  0
   -0.3248    1.3125    0.0000 C   0  0  0  0  0  0  0  0  0  0  0  0
   -9.4180    5.0625    0.0000 C   0  0  0  0  0  0  0  0  0  0  0  0
   -5.5209    2.8125    0.0000 C   0  0  0  0  0  0  0  0  0  0  0  0
   -4.2219    8.0625    0.0000 C   0  0  0  0  0  0  0  0  0  0  0  0
   -6.8200    5.0625    0.0000 C   0  0  0  0  0  0  0  0  0  0  0  0
   -0.3248    5.8125    0.0000 C   0  0  0  0  0  0  0  0  0  0  0  0
   -0.3248    7.3125    0.0000 H   0  0  0  0  0  0  0  0  0  0  0  0
    2.2733    5.8125    0.0000 C   0  0  0  0  0  0  0  0  0  0  0  0
   -6.8200    8.0625    0.0000 C   0  0  0  0  0  0  0  0  0  0  0  0
   -0.3248    2.8125    0.0000 C   0  0  0  0  0  0  0  0  0  0  0  0
   -5.5209    5.8125    0.0000 C   0  0  0  0  0  0  0  0  0  0  0  0
   -1.6238    5.0625    0.0000 C   0  0  0  0  0  0  0  0  0  0  0  0
   -4.2219    5.0625    0.0000 C   0  0  0  0  0  0  0  0  0  0  0  0
   -2.9228    5.8125    0.0000 C   0  0  0  0  0  0  0  0  0  0  0  0
    2.2733    7.3125    0.0000 O   0  0  0  0  0  0  0  0  0  0  0  0
   -8.1190    7.3125    0.0000 O   0  0  0  0  0  0  0  0  0  0  0  0
    0.9743    3.5625    0.0000 O   0  0  0  0  0  0  0  0  0  0  0  0
   -8.1190    5.8125    0.0000 O   0  0  0  0  0  0  0  0  0  0  0  0
   -4.2219    3.5625    0.0000 O   0  0  0  0  0  0  0  0  0  0  0  0
   -2.9228    7.3125    0.0000 O   0  0  0  0  0  0  0  0  0  0  0  0
    0.9743    5.0625    0.0000 O   0  0  0  0  0  0  0  0  0  0  0  0
   -5.5209    7.3125    0.0000 O   0  0  0  0  0  0  0  0  0  0  0  0
   -1.6238    3.5625    0.0000 O   0  0  0  0  0  0  0  0  0  0  0  0
  8  9  1  0
 10  1  1  0
 11  2  1  0
 12  3  1  0
 13  7  1  0
 14  8  1  0
 15 13  1  0
 16 14  1  0
 16 15  1  0
 17 10  2  0
 18 11  2  0
 19 12  2  0
 20  4  1  0
 20  7  1  0
 21  5  1  0
 21 15  1  0
 22  6  1  0
 22 16  1  0
 23  8  1  0
 23 10  1  0
 24 11  1  0
 24 13  1  0
 25 12  1  0
 25 14  1  0
M  ISO  1   9   2
M  END
>  <NAME>  (4971) 
1,2,5-TRI-O-ACETYL-3,4,6-TRI-O-METHYLHEXITOL (1-D)

>  <SYNONYMS>  (4971) 
1,2,5-TRIACETOXY-3,4,6-TRIMETHOXYHEXANE (1-D)

>  <SPECTRUM TYPE>  (4971) 
MS1

>  <INSTRUMENT TYPE>  (4971) 
EI-B

>  <INSTRUMENT>  (4971) 
SHIMADZU LKB-9000B

>  <ION MODE>  (4971) 
P

>  <INCHIKEY>  (4971) 
JTIPYRUUQYKTIG-BNEYPBHNSA-N

>  <FORMULA>  (4971) 
C15H26O9

>  <EXACT MASS>  (4971) 
351.163959158

>  <MW>  (4971) 
351

>  <ID>  (4971) 
JP004509

>  <CONTRIBUTOR>  (4971) 
University of Tokyo Team, {Faculty of Engineering, University of Tokyo

>  <COMMENT>  (4971) 
SMILES=COCC(OC(C)=O)C(OC)C(OC)C(OC(C)=O)C([H])([2H])OC(C)=O
InChI=InChI=1S/C15H26O9/c1-9(16)22-8-13(24-11(3)18)15(21-6)14(20-5)12(7-19-4)23-10(2)17/h12-15H,7-8H2,1-6H3/i8D
computed SMILES=[H]C(OC(=O)C)C(OC(=O)C)C(OC)C(OC)C(OC(=O)C)COC
accession=JP004509
date=2016.01.19 (Created 2008.10.21, modified 2011.05.06)
author=SEYAMA Y, DEPT. OF PHYSIOL. CHEMISTRY AND NUTRITION, FAC. OF MEDICINE, UNIV. OF TOKYO
license=CC BY-NC-SA
exact mass=350.15768
ionization energy=70 eV
ion type=[M]+*
computed spectral entropy=2.7593365897396964
computed normalized entropy=0.6949958969820399
SPLASH=splash10-01rx-4900000000-ae5f849b4266971a30eb
submitter=submitter = University of Tokyo Team (Faculty of Engineering, University of Tokyo)
MoNA Rating=3.75

>  <NUM PEAKS>  (4971) 
53

>  <MASS SPECTRAL PEAKS>  (4971) 
41 1.9
42 2.2
43 72.6
44 0.25
45 27.2
46 1.2
57 1
59 0.25
60 1
70 1.7
71 8.5
72 0.54
73 1.5
74 5.8
75 4
85 0.27
86 1.2
87 25.3
88 30
89 0.61
98 1.5
99 2.7
100 16.3
101 1.97
102 4.7
103 1.2
104 1.7
112 0.15
113 5
114 3.7
115 1.9
116 0.15
117 3.9
118 3.2
119 5.2
126 0.13
129 99.99
130 89.7
131 10.3
132 0.2
143 1.2
144 1.1
145 10.8
146 0.12
160 2
161 69
162 5.9
174 0.22
189 1.9
190 44.3
191 3.8
205 0.21
234 1.6

$$$$

     RDKit          2D

 23 22  0  0  0  0  0  0  0  0999 V2000
    3.5724    5.0625    0.0000 C   0  0  0  0  0  0  0  0  0  0  0  0
   -6.8200    9.5625    0.0000 C   0  0  0  0  0  0  0  0  0  0  0  0
   -9.4180    5.0625    0.0000 C   0  0  0  0  0  0  0  0  0  0  0  0
   -0.3248    2.8125    0.0000 C   0  0  0  0  0  0  0  0  0  0  0  0
   -4.2219    8.0625    0.0000 C   0  0  0  0  0  0  0  0  0  0  0  0
   -5.5209    2.8125    0.0000 C   0  0  0  0  0  0  0  0  0  0  0  0
   -6.8200    5.0625    0.0000 C   0  0  0  0  0  0  0  0  0  0  0  0
   -0.3248    5.8125    0.0000 C   0  0  0  0  0  0  0  0  0  0  0  0
   -0.3248    7.3125    0.0000 H   0  0  0  0  0  0  0  0  0  0  0  0
    2.2733    5.8125    0.0000 C   0  0  0  0  0  0  0  0  0  0  0  0
   -6.8200    8.0625    0.0000 C   0  0  0  0  0  0  0  0  0  0  0  0
   -1.6238    5.0625    0.0000 C   0  0  0  0  0  0  0  0  0  0  0  0
   -5.5209    5.8125    0.0000 C   0  0  0  0  0  0  0  0  0  0  0  0
   -2.9228    5.8125    0.0000 C   0  0  0  0  0  0  0  0  0  0  0  0
   -4.2219    5.0625    0.0000 C   0  0  0  0  0  0  0  0  0  0  0  0
    2.2733    7.3125    0.0000 O   0  0  0  0  0  0  0  0  0  0  0  0
   -8.1190    7.3125    0.0000 O   0  0  0  0  0  0  0  0  0  0  0  0
   -8.1190    5.8125    0.0000 O   0  0  0  0  0  0  0  0  0  0  0  0
   -1.6238    3.5625    0.0000 O   0  0  0  0  0  0  0  0  0  0  0  0
   -2.9228    7.3125    0.0000 O   0  0  0  0  0  0  0  0  0  0  0  0
   -4.2219    3.5625    0.0000 O   0  0  0  0  0  0  0  0  0  0  0  0
    0.9743    5.0625    0.0000 O   0  0  0  0  0  0  0  0  0  0  0  0
   -5.5209    7.3125    0.0000 O   0  0  0  0  0  0  0  0  0  0  0  0
  8  9  1  0
 10  1  1  0
 11  2  1  0
 12  8  1  0
 13  7  1  0
 14 12  1  0
 15 13  1  0
 15 14  1  0
 16 10  2  0
 17 11  2  0
 18  3  1  0
 18  7  1  0
 19  4  1  0
 19 12  1  0
 20  5  1  0
 20 14  1  0
 21  6  1  0
 21 15  1  0
 22  8  1  0
 22 10  1  0
 23 11  1  0
 23 13  1  0
M  ISO  1   9   2
M  END
>  <NAME>  (4972) 
1,5-DI-O-ACETYL-2,3,4,6-TETRA-O-METHYLHEXITOL (1-D)

>  <SYNONYMS>  (4972) 
1,5-DIACETOXY-2,3,4,6-TETRAMETHOXYHEXANE (1-D)

>  <SPECTRUM TYPE>  (4972) 
MS1

>  <INSTRUMENT TYPE>  (4972) 
EI-B

>  <INSTRUMENT>  (4972) 
SHIMADZU LKB-9000B

>  <ION MODE>  (4972) 
P

>  <INCHIKEY>  (4972) 
OVCJDQPBVXUBBF-BNEYPBHNSA-N

>  <FORMULA>  (4972) 
C14H26O8

>  <EXACT MASS>  (4972) 
323.169044538

>  <MW>  (4972) 
323

>  <ID>  (4972) 
JP004508

>  <CONTRIBUTOR>  (4972) 
University of Tokyo Team, {Faculty of Engineering, University of Tokyo

>  <COMMENT>  (4972) 
SMILES=COCC(OC(C)=O)C(OC)C(OC)C(OC)C([H])([2H])OC(C)=O
InChI=InChI=1S/C14H26O8/c1-9(15)21-8-11(18-4)13(19-5)14(20-6)12(7-17-3)22-10(2)16/h11-14H,7-8H2,1-6H3/i8D
computed SMILES=[H]C(OC(=O)C)C(OC)C(OC)C(OC)C(OC(=O)C)COC
accession=JP004508
date=2016.01.19 (Created 2008.10.21, modified 2011.05.06)
author=SEYAMA Y, DEPT. OF PHYSIOL. CHEMISTRY AND NUTRITION, FAC. OF MEDICINE, UNIV. OF TOKYO
license=CC BY-NC-SA
exact mass=322.16277
ionization energy=70 eV
ion type=[M]+*
computed spectral entropy=2.843368867612918
computed normalized entropy=0.7161611613260512
SPLASH=splash10-0ftf-6900000000-0dbc3b47ac9fe4120a9d
submitter=submitter = University of Tokyo Team (Faculty of Engineering, University of Tokyo)
MoNA Rating=3.75

>  <NUM PEAKS>  (4972) 
53

>  <MASS SPECTRAL PEAKS>  (4972) 
41 1.9
42 2.2
43 99.99
44 0.33
45 31.2
46 2
55 1.5
57 0.12
59 4.6
60 1.1
70 1.1
71 1.16
72 3.8
73 3.3
74 3.6
75 0.72
76 1.6
81 1.3
85 4.3
86 0.12
87 19.7
88 10.3
89 7.9
90 0.11
98 2.8
99 4
100 2.8
101 2.21
102 58.1
103 4
113 11.5
114 0.17
115 2
117 10.5
118 68.2
119 0.7
120 1
129 55.4
130 5.3
131 0.57
132 3.4
142 1.3
143 1.3
145 6.22
146 5.6
157 1.3
161 32.1
162 2.14
163 2
173 1.4
174 1.6
205 2.84
206 2.9

$$$$

     RDKit          2D

 28 27  0  0  0  0  0  0  0  0999 V2000
   -0.6495    1.8750    0.0000 C   0  0  0  0  0  0  0  0  0  0  0  0
    3.2476    5.6250    0.0000 C   0  0  0  0  0  0  0  0  0  0  0  0
   -7.1447   10.1250    0.0000 C   0  0  0  0  0  0  0  0  0  0  0  0
   -5.8457    1.8750    0.0000 C   0  0  0  0  0  0  0  0  0  0  0  0
   -3.2476    3.3750    0.0000 C   0  0  0  0  0  0  0  0  0  0  0  0
   -9.7428    5.6250    0.0000 C   0  0  0  0  0  0  0  0  0  0  0  0
   -4.5466    8.6250    0.0000 C   0  0  0  0  0  0  0  0  0  0  0  0
   -0.6495    6.3750    0.0000 C   0  0  0  0  0  0  0  0  0  0  0  0
   -0.6495    7.8750    0.0000 H   0  0  0  0  0  0  0  0  0  0  0  0
   -7.1447    5.6250    0.0000 C   0  0  0  0  0  0  0  0  0  0  0  0
   -0.6495    3.3750    0.0000 C   0  0  0  0  0  0  0  0  0  0  0  0
    1.9486    6.3750    0.0000 C   0  0  0  0  0  0  0  0  0  0  0  0
   -7.1447    8.6250    0.0000 C   0  0  0  0  0  0  0  0  0  0  0  0
   -5.8457    3.3750    0.0000 C   0  0  0  0  0  0  0  0  0  0  0  0
   -1.9486    5.6250    0.0000 C   0  0  0  0  0  0  0  0  0  0  0  0
   -5.8457    6.3750    0.0000 C   0  0  0  0  0  0  0  0  0  0  0  0
   -3.2476    6.3750    0.0000 C   0  0  0  0  0  0  0  0  0  0  0  0
   -4.5466    5.6250    0.0000 C   0  0  0  0  0  0  0  0  0  0  0  0
   -1.9486    4.1250    0.0000 N   0  0  0  0  0  0  0  0  0  0  0  0
    0.6495    4.1250    0.0000 O   0  0  0  0  0  0  0  0  0  0  0  0
    1.9486    7.8750    0.0000 O   0  0  0  0  0  0  0  0  0  0  0  0
   -8.4437    7.8750    0.0000 O   0  0  0  0  0  0  0  0  0  0  0  0
   -7.1447    4.1250    0.0000 O   0  0  0  0  0  0  0  0  0  0  0  0
   -8.4437    6.3750    0.0000 O   0  0  0  0  0  0  0  0  0  0  0  0
   -3.2476    7.8750    0.0000 O   0  0  0  0  0  0  0  0  0  0  0  0
    0.6495    5.6250    0.0000 O   0  0  0  0  0  0  0  0  0  0  0  0
   -5.8457    7.8750    0.0000 O   0  0  0  0  0  0  0  0  0  0  0  0
   -4.5466    4.1250    0.0000 O   0  0  0  0  0  0  0  0  0  0  0  0
  8  9  1  0
 11  1  1  0
 12  2  1  0
 13  3  1  0
 14  4  1  0
 15  8  1  0
 16 10  1  0
 17 15  1  0
 18 16  1  0
 18 17  1  0
 19  5  1  0
 19 11  1  0
 19 15  1  0
 20 11  2  0
 21 12  2  0
 22 13  2  0
 23 14  2  0
 24  6  1  0
 24 10  1  0
 25  7  1  0
 25 17  1  0
 26  8  1  0
 26 12  1  0
 27 13  1  0
 27 16  1  0
 28 14  1  0
 28 18  1  0
M  ISO  1   9   2
M  END
>  <NAME>  (4973) 
1,4,5-TRI-O-ACETYL-3,6-DI-O-METHYL-2-N-METHYLACETAMIDO-2-DEOXYHEXITOL (1-D)

>  <SYNONYMS>  (4973) 
1,4,5-TRIACETOXY-3,6-DIMETHOXY-2-N-METHYLACETAMIDOHEXANE (1-D)

>  <SPECTRUM TYPE>  (4973) 
MS1

>  <INSTRUMENT TYPE>  (4973) 
EI-B

>  <INSTRUMENT>  (4973) 
SHIMADZU LKB-9000B

>  <ION MODE>  (4973) 
P

>  <INCHIKEY>  (4973) 
AWYJVKOIRCMUHE-BNEYPBHNSA-N

>  <FORMULA>  (4973) 
C17H29NO9

>  <EXACT MASS>  (4973) 
392.190508254

>  <MW>  (4973) 
392

>  <ID>  (4973) 
JP004507

>  <CONTRIBUTOR>  (4973) 
University of Tokyo Team, {Faculty of Engineering, University of Tokyo

>  <COMMENT>  (4973) 
SMILES=COCC(OC(C)=O)C(OC(C)=O)C(OC)C(C([2H])OC(C)=O)N(C)C(C)=O
InChI=InChI=1S/C17H29NO9/c1-10(19)18(5)14(8-25-11(2)20)16(24-7)17(27-13(4)22)15(9-23-6)26-12(3)21/h14-17H,8-9H2,1-7H3/i8D
computed SMILES=[H]C(OC(=O)C)C(N(C(=O)C)C)C(OC)C(OC(=O)C)C(OC(=O)C)COC
accession=JP004507
date=2016.01.19 (Created 2008.10.21, modified 2011.05.06)
author=SEYAMA Y, DEPT. OF PHYSIOL. CHEMISTRY AND NUTRITION, FAC. OF MEDICINE, UNIV. OF TOKYO
license=CC BY-NC-SA
exact mass=391.18423
ionization energy=70 eV
ion type=[M]+*
computed spectral entropy=2.5882952829455674
computed normalized entropy=0.6839761040901036
SPLASH=splash10-066r-2910000000-d6f05c17ff402cb410b0
submitter=submitter = University of Tokyo Team (Faculty of Engineering, University of Tokyo)
MoNA Rating=3.75

>  <NUM PEAKS>  (4973) 
44

>  <MASS SPECTRAL PEAKS>  (4973) 
42 2.7
43 26.2
44 1
45 0.64
56 1.9
57 1.8
58 2.5
71 0.17
72 2.2
73 1.1
74 3.6
75 1.75
85 1.6
86 1.8
87 8.6
88 0.33
98 2.4
99 10.2
100 3.5
101 0.16
112 1
113 12.8
114 1.6
115 0.14
116 5
117 99.99
118 5.8
124 0.21
129 5.8
130 1.7
131 3.8
142 0.49
143 10.9
144 1.1
156 2.1
158 0.3
159 60.6
160 5.1
171 2.1
173 0.26
203 3.7
233 26.7
234 3.1
261 1.4

$$$$

     RDKit          2D

 26 25  0  0  0  0  0  0  0  0999 V2000
   -0.3248    1.3125    0.0000 C   0  0  0  0  0  0  0  0  0  0  0  0
    3.5724    5.0625    0.0000 C   0  0  0  0  0  0  0  0  0  0  0  0
   -6.8200    9.5625    0.0000 C   0  0  0  0  0  0  0  0  0  0  0  0
   -2.9228    2.8125    0.0000 C   0  0  0  0  0  0  0  0  0  0  0  0
   -9.4180    5.0625    0.0000 C   0  0  0  0  0  0  0  0  0  0  0  0
   -4.2219    8.0625    0.0000 C   0  0  0  0  0  0  0  0  0  0  0  0
   -5.5209    2.8125    0.0000 C   0  0  0  0  0  0  0  0  0  0  0  0
   -0.3248    5.8125    0.0000 C   0  0  0  0  0  0  0  0  0  0  0  0
   -0.3248    7.3125    0.0000 H   0  0  0  0  0  0  0  0  0  0  0  0
   -6.8200    5.0625    0.0000 C   0  0  0  0  0  0  0  0  0  0  0  0
   -0.3248    2.8125    0.0000 C   0  0  0  0  0  0  0  0  0  0  0  0
    2.2733    5.8125    0.0000 C   0  0  0  0  0  0  0  0  0  0  0  0
   -6.8200    8.0625    0.0000 C   0  0  0  0  0  0  0  0  0  0  0  0
   -1.6238    5.0625    0.0000 C   0  0  0  0  0  0  0  0  0  0  0  0
   -5.5209    5.8125    0.0000 C   0  0  0  0  0  0  0  0  0  0  0  0
   -2.9228    5.8125    0.0000 C   0  0  0  0  0  0  0  0  0  0  0  0
   -4.2219    5.0625    0.0000 C   0  0  0  0  0  0  0  0  0  0  0  0
   -1.6238    3.5625    0.0000 N   0  0  0  0  0  0  0  0  0  0  0  0
    0.9743    3.5625    0.0000 O   0  0  0  0  0  0  0  0  0  0  0  0
    2.2733    7.3125    0.0000 O   0  0  0  0  0  0  0  0  0  0  0  0
   -8.1190    7.3125    0.0000 O   0  0  0  0  0  0  0  0  0  0  0  0
   -8.1190    5.8125    0.0000 O   0  0  0  0  0  0  0  0  0  0  0  0
   -2.9228    7.3125    0.0000 O   0  0  0  0  0  0  0  0  0  0  0  0
   -4.2219    3.5625    0.0000 O   0  0  0  0  0  0  0  0  0  0  0  0
    0.9743    5.0625    0.0000 O   0  0  0  0  0  0  0  0  0  0  0  0
   -5.5209    7.3125    0.0000 O   0  0  0  0  0  0  0  0  0  0  0  0
  8  9  1  0
 11  1  1  0
 12  2  1  0
 13  3  1  0
 14  8  1  0
 15 10  1  0
 16 14  1  0
 17 15  1  0
 17 16  1  0
 18  4  1  0
 18 11  1  0
 18 14  1  0
 19 11  2  0
 20 12  2  0
 21 13  2  0
 22  5  1  0
 22 10  1  0
 23  6  1  0
 23 16  1  0
 24  7  1  0
 24 17  1  0
 25  8  1  0
 25 12  1  0
 26 13  1  0
 26 15  1  0
M  ISO  1   9   2
M  END
>  <NAME>  (4974) 
1,5-DI-O-ACETYL-3,4,6-TRI-O-METHYL-2-N-METHYLACETAMIDO-2-DEOXYHEXITOL (1-D)

>  <SYNONYMS>  (4974) 
1,5-DIACETOXY-3,4,6-TRIMETHOXY-2-N-METHYLACETAMIDOHEXANE (1-D)

>  <SPECTRUM TYPE>  (4974) 
MS1

>  <INSTRUMENT TYPE>  (4974) 
EI-B

>  <INSTRUMENT>  (4974) 
SHIMADZU LKB-9000B

>  <ION MODE>  (4974) 
P

>  <INCHIKEY>  (4974) 
VQVCINYAHOCEMY-BNEYPBHNSA-N

>  <FORMULA>  (4974) 
C16H29NO8

>  <EXACT MASS>  (4974) 
364.195593634

>  <MW>  (4974) 
364

>  <ID>  (4974) 
JP004506

>  <CONTRIBUTOR>  (4974) 
University of Tokyo Team, {Faculty of Engineering, University of Tokyo

>  <COMMENT>  (4974) 
SMILES=COCC(OC(C)=O)C(OC)C(OC)C(N(C)C(C)=O)C([H])([2H])OC(C)=O
InChI=InChI=1S/C16H29NO8/c1-10(18)17(4)13(8-24-11(2)19)15(22-6)16(23-7)14(9-21-5)25-12(3)20/h13-16H,8-9H2,1-7H3/i8D
computed SMILES=[H]C(OC(=O)C)C(N(C(=O)C)C)C(OC)C(OC)C(OC(=O)C)COC
accession=JP004506
date=2016.01.19 (Created 2008.10.21, modified 2011.05.06)
author=SEYAMA Y, DEPT. OF PHYSIOL. CHEMISTRY AND NUTRITION, FAC. OF MEDICINE, UNIV. OF TOKYO
license=CC BY-NC-SA
exact mass=363.18932
ionization energy=70 eV
ion type=[M]+*
computed spectral entropy=2.958226414555861
computed normalized entropy=0.7415989585377739
SPLASH=splash10-066u-3910000000-1f79d30b460d3345a248
submitter=submitter = University of Tokyo Team (Faculty of Engineering, University of Tokyo)
MoNA Rating=3.75

>  <NUM PEAKS>  (4974) 
54

>  <MASS SPECTRAL PEAKS>  (4974) 
41 1.5
42 4.1
43 33.1
44 0.15
45 16.5
56 3
57 2.7
58 0.32
59 1.7
69 1.2
70 1.2
71 0.4
72 3.5
73 2.2
74 3.6
75 2.35
85 2.2
86 1.5
87 10.8
88 0.55
89 3.7
98 2.6
99 5.8
100 0.9
101 8.6
113 7.8
114 1.3
115 0.25
116 5.5
117 99.99
118 6.1
119 0.21
129 26.4
130 3.2
131 3.5
142 0.39
143 31.7
144 2.9
145 33
146 0.26
158 3
159 51.6
160 4.3
161 1.44
162 1.1
171 2.1
173 1.5
202 0.13
203 23.9
204 2.7
205 28
206 0.28
272 1.4
273 1.4

$$$$

     RDKit          2D

 27 26  0  0  0  0  0  0  0  0999 V2000
   -9.7428    4.8750    0.0000 C   0  0  0  0  0  0  0  0  0  0  0  0
    0.6495   12.3750    0.0000 C   0  0  0  0  0  0  0  0  0  0  0  0
    1.9486    7.1250    0.0000 C   0  0  0  0  0  0  0  0  0  0  0  0
   -0.6495    2.6250    0.0000 C   0  0  0  0  0  0  0  0  0  0  0  0
   -5.8457    2.6250    0.0000 C   0  0  0  0  0  0  0  0  0  0  0  0
   -4.5466    9.3750    0.0000 C   0  0  0  0  0  0  0  0  0  0  0  0
   -5.8457    5.6250    0.0000 C   0  0  0  0  0  0  0  0  0  0  0  0
   -5.8457    7.1250    0.0000 H   0  0  0  0  0  0  0  0  0  0  0  0
   -1.9486    9.3750    0.0000 C   0  0  0  0  0  0  0  0  0  0  0  0
   -8.4437    5.6250    0.0000 C   0  0  0  0  0  0  0  0  0  0  0  0
   -0.6495   11.6250    0.0000 C   0  0  0  0  0  0  0  0  0  0  0  0
    0.6495    7.8750    0.0000 C   0  0  0  0  0  0  0  0  0  0  0  0
   -1.9486    3.3750    0.0000 C   0  0  0  0  0  0  0  0  0  0  0  0
   -4.5466    4.8750    0.0000 C   0  0  0  0  0  0  0  0  0  0  0  0
   -1.9486    7.8750    0.0000 C   0  0  0  0  0  0  0  0  0  0  0  0
   -3.2476    7.1250    0.0000 C   0  0  0  0  0  0  0  0  0  0  0  0
   -3.2476    5.6250    0.0000 C   0  0  0  0  0  0  0  0  0  0  0  0
   -8.4437    7.1250    0.0000 O   0  0  0  0  0  0  0  0  0  0  0  0
   -1.9486   12.3750    0.0000 O   0  0  0  0  0  0  0  0  0  0  0  0
    0.6495    9.3750    0.0000 O   0  0  0  0  0  0  0  0  0  0  0  0
   -3.2476    2.6250    0.0000 O   0  0  0  0  0  0  0  0  0  0  0  0
   -4.5466    3.3750    0.0000 O   0  0  0  0  0  0  0  0  0  0  0  0
   -4.5466    7.8750    0.0000 O   0  0  0  0  0  0  0  0  0  0  0  0
   -7.1447    4.8750    0.0000 O   0  0  0  0  0  0  0  0  0  0  0  0
   -0.6495   10.1250    0.0000 O   0  0  0  0  0  0  0  0  0  0  0  0
   -0.6495    7.1250    0.0000 O   0  0  0  0  0  0  0  0  0  0  0  0
   -1.9486    4.8750    0.0000 O   0  0  0  0  0  0  0  0  0  0  0  0
  7  8  1  0
 10  1  1  0
 11  2  1  0
 12  3  1  0
 13  4  1  0
 14  7  1  0
 15  9  1  0
 16 15  1  0
 17 14  1  0
 17 16  1  0
 18 10  2  0
 19 11  2  0
 20 12  2  0
 21 13  2  0
 22  5  1  0
 22 14  1  0
 23  6  1  0
 23 16  1  0
 24  7  1  0
 24 10  1  0
 25  9  1  0
 25 11  1  0
 26 12  1  0
 26 15  1  0
 27 13  1  0
 27 17  1  0
M  ISO  1   8   2
M  END
>  <NAME>  (4975) 
1,3,5,6-TETRA-O-ACETYL-2,4-DI-O-METHYLHEXITOL (1-D)

>  <SYNONYMS>  (4975) 
1,3,5,6-TETRACETOXY-2,4-DIMETHOXYHEXANE (1-D)

>  <SPECTRUM TYPE>  (4975) 
MS1

>  <INSTRUMENT TYPE>  (4975) 
EI-B

>  <INSTRUMENT>  (4975) 
SHIMADZU LKB-9000B

>  <ION MODE>  (4975) 
P

>  <INCHIKEY>  (4975) 
LYLOENTWFQIZDS-WHRKIXHSSA-N

>  <FORMULA>  (4975) 
C16H26O10

>  <EXACT MASS>  (4975) 
379.15887377800004

>  <MW>  (4975) 
379

>  <ID>  (4975) 
JP004505

>  <CONTRIBUTOR>  (4975) 
University of Tokyo Team, {Faculty of Engineering, University of Tokyo

>  <COMMENT>  (4975) 
SMILES=CC(=O)OCC(OC(C)=O)C(OC)C(OC(C)=O)C(OC)C([2H])OC(C)=O
InChI=InChI=1S/C16H26O10/c1-9(17)23-7-13(21-5)16(26-12(4)20)15(22-6)14(25-11(3)19)8-24-10(2)18/h13-16H,7-8H2,1-6H3/i7D
computed SMILES=[H]C(OC(=O)C)C(OC)C(OC(=O)C)C(OC)C(OC(=O)C)COC(=O)C
accession=JP004505
date=2016.01.19 (Created 2008.10.21, modified 2011.05.06)
author=SEYAMA Y, DEPT. OF PHYSIOL. CHEMISTRY AND NUTRITION, FAC. OF MEDICINE, UNIV. OF TOKYO
license=CC BY-NC-SA
exact mass=378.1526
ionization energy=70 eV
ion type=[M]+*
computed spectral entropy=2.793527549929321
computed normalized entropy=0.6971038894953439
SPLASH=splash10-016r-2900000000-2eacd948660cf506efd6
submitter=submitter = University of Tokyo Team (Faculty of Engineering, University of Tokyo)
MoNA Rating=3.75

>  <NUM PEAKS>  (4975) 
55

>  <MASS SPECTRAL PEAKS>  (4975) 
41 1.8
42 1.7
43 9.8
44 0.24
45 3
58 1.7
59 8.5
60 0.11
61 1
69 3.7
70 2.6
71 0.42
72 1.1
73 1.6
74 6.2
75 0.25
76 1.2
85 2.7
86 5.4
87 3.11
88 2.7
97 3.2
99 3.5
100 0.8
101 13.8
103 1.5
111 1.7
112 0.15
114 3
117 6
118 99.99
119 5.8
126 0.17
128 12.2
129 74.5
130 7.8
139 0.83
140 1.3
142 1.2
143 3.1
144 0.13
145 1.1
148 1.8
157 2.6
159 0.25
160 3.7
174 5.1
185 1.4
189 3.54
190 3.9
202 9.2
231 3.9
234 1.75
235 2.2
245 2.4

$$$$

     RDKit          2D

 27 26  0  0  0  0  0  0  0  0999 V2000
    3.2476    5.6250    0.0000 C   0  0  0  0  0  0  0  0  0  0  0  0
   -8.4437    7.8750    0.0000 C   0  0  0  0  0  0  0  0  0  0  0  0
   -0.6495    1.8750    0.0000 C   0  0  0  0  0  0  0  0  0  0  0  0
   -5.8457    1.8750    0.0000 C   0  0  0  0  0  0  0  0  0  0  0  0
   -9.7428    5.6250    0.0000 C   0  0  0  0  0  0  0  0  0  0  0  0
   -4.5466    8.6250    0.0000 C   0  0  0  0  0  0  0  0  0  0  0  0
   -7.1447    5.6250    0.0000 C   0  0  0  0  0  0  0  0  0  0  0  0
   -0.6495    6.3750    0.0000 C   0  0  0  0  0  0  0  0  0  0  0  0
   -0.6495    7.8750    0.0000 H   0  0  0  0  0  0  0  0  0  0  0  0
    1.9486    6.3750    0.0000 C   0  0  0  0  0  0  0  0  0  0  0  0
   -7.1447    8.6250    0.0000 C   0  0  0  0  0  0  0  0  0  0  0  0
   -0.6495    3.3750    0.0000 C   0  0  0  0  0  0  0  0  0  0  0  0
   -5.8457    3.3750    0.0000 C   0  0  0  0  0  0  0  0  0  0  0  0
   -5.8457    6.3750    0.0000 C   0  0  0  0  0  0  0  0  0  0  0  0
   -1.9486    5.6250    0.0000 C   0  0  0  0  0  0  0  0  0  0  0  0
   -3.2476    6.3750    0.0000 C   0  0  0  0  0  0  0  0  0  0  0  0
   -4.5466    5.6250    0.0000 C   0  0  0  0  0  0  0  0  0  0  0  0
    1.9486    7.8750    0.0000 O   0  0  0  0  0  0  0  0  0  0  0  0
   -7.1447   10.1250    0.0000 O   0  0  0  0  0  0  0  0  0  0  0  0
    0.6495    4.1250    0.0000 O   0  0  0  0  0  0  0  0  0  0  0  0
   -7.1447    4.1250    0.0000 O   0  0  0  0  0  0  0  0  0  0  0  0
   -8.4437    6.3750    0.0000 O   0  0  0  0  0  0  0  0  0  0  0  0
   -3.2476    7.8750    0.0000 O   0  0  0  0  0  0  0  0  0  0  0  0
    0.6495    5.6250    0.0000 O   0  0  0  0  0  0  0  0  0  0  0  0
   -5.8457    7.8750    0.0000 O   0  0  0  0  0  0  0  0  0  0  0  0
   -1.9486    4.1250    0.0000 O   0  0  0  0  0  0  0  0  0  0  0  0
   -4.5466    4.1250    0.0000 O   0  0  0  0  0  0  0  0  0  0  0  0
  8  9  1  0
 10  1  1  0
 11  2  1  0
 12  3  1  0
 13  4  1  0
 14  7  1  0
 15  8  1  0
 16 15  1  0
 17 14  1  0
 17 16  1  0
 18 10  2  0
 19 11  2  0
 20 12  2  0
 21 13  2  0
 22  5  1  0
 22  7  1  0
 23  6  1  0
 23 16  1  0
 24  8  1  0
 24 10  1  0
 25 11  1  0
 25 14  1  0
 26 12  1  0
 26 15  1  0
 27 13  1  0
 27 17  1  0
M  ISO  1   9   2
M  END
>  <NAME>  (4976) 
1,2,4,5-TETRA-O-ACETYL-3,6-DI-O-METHYLHEXITOL (1-D)

>  <SYNONYMS>  (4976) 
1,2,4,5-TETRACETOXY-3,6-DIMETHOXYHEXANE (1-D)

>  <SPECTRUM TYPE>  (4976) 
MS1

>  <INSTRUMENT TYPE>  (4976) 
EI-B

>  <INSTRUMENT>  (4976) 
SHIMADZU LKB-9000B

>  <ION MODE>  (4976) 
P

>  <INCHIKEY>  (4976) 
BWFYMIDEWZXNAH-BNEYPBHNSA-N

>  <FORMULA>  (4976) 
C16H26O10

>  <EXACT MASS>  (4976) 
379.158873778

>  <MW>  (4976) 
379

>  <ID>  (4976) 
JP004504

>  <CONTRIBUTOR>  (4976) 
University of Tokyo Team, {Faculty of Engineering, University of Tokyo

>  <COMMENT>  (4976) 
SMILES=COCC(OC(C)=O)C(OC(C)=O)C(OC)C(OC(C)=O)C([H])([2H])OC(C)=O
InChI=InChI=1S/C16H26O10/c1-9(17)23-8-14(25-11(3)19)15(22-6)16(26-12(4)20)13(7-21-5)24-10(2)18/h13-16H,7-8H2,1-6H3/i8D
computed SMILES=[H]C(OC(=O)C)C(OC(=O)C)C(OC)C(OC(=O)C)C(OC(=O)C)COC
accession=JP004504
date=2016.01.19 (Created 2008.10.21, modified 2011.05.06)
author=SEYAMA Y, DEPT. OF PHYSIOL. CHEMISTRY AND NUTRITION, FAC. OF MEDICINE, UNIV. OF TOKYO
license=CC BY-NC-SA
exact mass=378.1526
ionization energy=70 eV
ion type=[M]+*
computed spectral entropy=3.0884791615498437
computed normalized entropy=0.7319524876708198
SPLASH=splash10-001l-6910000000-0757ffc8ac6dc11260aa
submitter=submitter = University of Tokyo Team (Faculty of Engineering, University of Tokyo)
MoNA Rating=3.75

>  <NUM PEAKS>  (4976) 
68

>  <MASS SPECTRAL PEAKS>  (4976) 
41 1
42 2.3
43 64.6
44 0.21
45 14.3
55 1.3
56 2.1
57 0.11
59 2.8
69 1.1
70 2
71 0.39
72 4.7
73 1.3
74 4.7
75 0.33
81 1.4
82 1.1
85 3.8
86 0.19
87 24.9
88 43.9
89 8.3
98 0.64
99 18.9
100 4.9
101 8.6
103 0.11
104 1.3
112 3.5
113 34.5
114 0.37
115 3.6
116 1.5
117 5.5
124 0.15
126 2
128 1.2
129 17.6
130 99.99
131 20.4
132 1.8
140 4.6
142 0.44
143 2.2
145 1.1
146 1.7
147 0.47
156 2.1
157 1.7
158 2.4
159 0.16
160 2.4
172 1.3
173 6.9
174 0.19
189 3.2
190 49.7
191 5
192 0.1
205 6.5
214 1
230 1
232 0.28
233 31.7
234 3.6
274 1.3
290 2.3

$$$$

     RDKit          2D

 23 22  0  0  0  0  0  0  0  0999 V2000
    3.5724    4.3125    0.0000 C   0  0  0  0  0  0  0  0  0  0  0  0
   -4.2219    8.8125    0.0000 C   0  0  0  0  0  0  0  0  0  0  0  0
    0.9743    2.8125    0.0000 C   0  0  0  0  0  0  0  0  0  0  0  0
    0.9743    8.8125    0.0000 C   0  0  0  0  0  0  0  0  0  0  0  0
   -8.1190    5.0625    0.0000 C   0  0  0  0  0  0  0  0  0  0  0  0
   -5.5209    2.0625    0.0000 C   0  0  0  0  0  0  0  0  0  0  0  0
   -0.3248    2.0625    0.0000 C   0  0  0  0  0  0  0  0  0  0  0  0
   -0.3248    6.5625    0.0000 C   0  0  0  0  0  0  0  0  0  0  0  0
   -5.5209    5.0625    0.0000 C   0  0  0  0  0  0  0  0  0  0  0  0
    2.2733    5.0625    0.0000 C   0  0  0  0  0  0  0  0  0  0  0  0
   -4.2219    7.3125    0.0000 C   0  0  0  0  0  0  0  0  0  0  0  0
   -0.3248    5.0625    0.0000 C   0  0  0  0  0  0  0  0  0  0  0  0
   -4.2219    4.3125    0.0000 C   0  0  0  0  0  0  0  0  0  0  0  0
   -1.6238    4.3125    0.0000 C   0  0  0  0  0  0  0  0  0  0  0  0
   -2.9228    5.0625    0.0000 C   0  0  0  0  0  0  0  0  0  0  0  0
    0.9743    4.3125    0.0000 N   0  0  0  0  0  0  0  0  0  0  0  0
    2.2733    6.5625    0.0000 O   0  0  0  0  0  0  0  0  0  0  0  0
   -5.5209    6.5625    0.0000 O   0  0  0  0  0  0  0  0  0  0  0  0
    0.9743    7.3125    0.0000 O   0  0  0  0  0  0  0  0  0  0  0  0
   -6.8200    4.3125    0.0000 O   0  0  0  0  0  0  0  0  0  0  0  0
   -4.2219    2.8125    0.0000 O   0  0  0  0  0  0  0  0  0  0  0  0
   -1.6238    2.8125    0.0000 O   0  0  0  0  0  0  0  0  0  0  0  0
   -2.9228    6.5625    0.0000 O   0  0  0  0  0  0  0  0  0  0  0  0
 10  1  1  0
 11  2  1  0
 12  8  1  0
 13  9  1  0
 14 12  1  0
 15 13  1  0
 15 14  1  0
 16  3  1  0
 16 10  1  0
 16 12  1  0
 17 10  2  0
 18 11  2  0
 19  4  1  0
 19  8  1  0
 20  5  1  0
 20  9  1  0
 21  6  1  0
 21 13  1  0
 22  7  1  0
 22 14  1  0
 23 11  1  0
 23 15  1  0
M  END
>  <NAME>  (4977) 
4-O-ACETYL-1,3,5,6-TETRA-O-METHYL-2-N-METHYLACETAMIDO-2-DEOXYHEXITOL

>  <SYNONYMS>  (4977) 
4-ACETOXY-1,3,5,6-TETRAMETHOXY-2-N-METHYLACETAMIDOHEXANE

>  <SPECTRUM TYPE>  (4977) 
MS1

>  <INSTRUMENT TYPE>  (4977) 
EI-B

>  <INSTRUMENT>  (4977) 
SHIMADZU LKB-9000B

>  <ION MODE>  (4977) 
P

>  <INCHIKEY>  (4977) 
TZHLYKLJDVRHJC-UHFFFAOYSA-N

>  <FORMULA>  (4977) 
C15H29NO7

>  <EXACT MASS>  (4977) 
335.19440226800003

>  <MW>  (4977) 
335

>  <ID>  (4977) 
JP004503

>  <CONTRIBUTOR>  (4977) 
University of Tokyo Team, {Faculty of Engineering, University of Tokyo

>  <COMMENT>  (4977) 
SMILES=COCC(OC)C(OC(C)=O)C(OC)C(COC)N(C)C(C)=O
InChI=InChI=1S/C15H29NO7/c1-10(17)16(3)12(8-19-4)14(22-7)15(23-11(2)18)13(21-6)9-20-5/h12-15H,8-9H2,1-7H3
computed SMILES=O=C(OC(C(OC)COC)C(OC)C(N(C(=O)C)C)COC)C
accession=JP004503
date=2016.01.19 (Created 2008.10.21, modified 2011.05.06)
author=SEYAMA Y, DEPT. OF PHYSIOL. CHEMISTRY AND NUTRITION, FAC. OF MEDICINE, UNIV. OF TOKYO
license=CC BY-NC-SA
exact mass=335.1944
ionization energy=70 eV
ion type=[M]+*
computed spectral entropy=2.98442610198482
computed normalized entropy=0.7231230736752986
SPLASH=splash10-0019-9810000000-96e09f36eb2a1d0e6c76
submitter=submitter = University of Tokyo Team (Faculty of Engineering, University of Tokyo)
MoNA Rating=3.75

>  <NUM PEAKS>  (4977) 
62

>  <MASS SPECTRAL PEAKS>  (4977) 
41 2
42 3.3
43 18.3
44 0.21
45 17.2
55 1
56 8.7
57 0.38
58 2.8
59 9.4
68 1.1
71 0.32
72 3.1
73 1.3
74 4.3
75 0.21
85 2
86 3.5
87 5.1
88 99.99
89 29.6
90 1.5
98 2.4
99 0.77
100 4.3
101 39.6
102 2.1
110 0.1
112 1.6
113 9.7
114 2.5
115 0.12
116 1.1
117 2.7
118 1.1
124 0.76
125 2.3
126 1.1
128 2.9
129 0.5
130 87.3
131 9.7
132 1.6
142 2.02
143 2.8
145 4.3
156 10.6
157 0.55
170 2
172 1.4
173 6.4
174 0.52
184 2.5
188 2.3
198 3.6
205 4.52
206 4.6
216 1.7
230 6
248 0.22
290 15.8
291 2.4

$$$$

     RDKit          2D

 25 24  0  0  0  0  0  0  0  0999 V2000
    3.8971    6.0000    0.0000 C   0  0  0  0  0  0  0  0  0  0  0  0
  -10.3923    6.7500    0.0000 C   0  0  0  0  0  0  0  0  0  0  0  0
   -6.4952   10.5000    0.0000 C   0  0  0  0  0  0  0  0  0  0  0  0
    0.0000    3.7500    0.0000 C   0  0  0  0  0  0  0  0  0  0  0  0
   -1.2990    9.0000    0.0000 C   0  0  0  0  0  0  0  0  0  0  0  0
   -5.1962    3.7500    0.0000 C   0  0  0  0  0  0  0  0  0  0  0  0
    0.0000    6.7500    0.0000 C   0  0  0  0  0  0  0  0  0  0  0  0
    0.0000    8.2500    0.0000 H   0  0  0  0  0  0  0  0  0  0  0  0
   -6.4952    6.0000    0.0000 C   0  0  0  0  0  0  0  0  0  0  0  0
    2.5981    6.7500    0.0000 C   0  0  0  0  0  0  0  0  0  0  0  0
   -9.0933    6.0000    0.0000 C   0  0  0  0  0  0  0  0  0  0  0  0
   -6.4952    9.0000    0.0000 C   0  0  0  0  0  0  0  0  0  0  0  0
   -1.2990    6.0000    0.0000 C   0  0  0  0  0  0  0  0  0  0  0  0
   -5.1962    6.7500    0.0000 C   0  0  0  0  0  0  0  0  0  0  0  0
   -2.5981    6.7500    0.0000 C   0  0  0  0  0  0  0  0  0  0  0  0
   -3.8971    6.0000    0.0000 C   0  0  0  0  0  0  0  0  0  0  0  0
    2.5981    8.2500    0.0000 O   0  0  0  0  0  0  0  0  0  0  0  0
   -9.0933    4.5000    0.0000 O   0  0  0  0  0  0  0  0  0  0  0  0
   -7.7942    8.2500    0.0000 O   0  0  0  0  0  0  0  0  0  0  0  0
   -1.2990    4.5000    0.0000 O   0  0  0  0  0  0  0  0  0  0  0  0
   -2.5981    8.2500    0.0000 O   0  0  0  0  0  0  0  0  0  0  0  0
   -3.8971    4.5000    0.0000 O   0  0  0  0  0  0  0  0  0  0  0  0
    1.2990    6.0000    0.0000 O   0  0  0  0  0  0  0  0  0  0  0  0
   -7.7942    6.7500    0.0000 O   0  0  0  0  0  0  0  0  0  0  0  0
   -5.1962    8.2500    0.0000 O   0  0  0  0  0  0  0  0  0  0  0  0
  7  8  1  0
 10  1  1  0
 11  2  1  0
 12  3  1  0
 13  7  1  0
 14  9  1  0
 15 13  1  0
 16 14  1  0
 16 15  1  0
 17 10  2  0
 18 11  2  0
 19 12  2  0
 20  4  1  0
 20 13  1  0
 21  5  1  0
 21 15  1  0
 22  6  1  0
 22 16  1  0
 23  7  1  0
 23 10  1  0
 24  9  1  0
 24 11  1  0
 25 12  1  0
 25 14  1  0
M  ISO  1   8   2
M  END
>  <NAME>  (4978) 
1,5,6-TRI-O-ACETYL-2,3,4-TRI-O-METHYLHEXITOL (1-D)

>  <SYNONYMS>  (4978) 
1,5,6-TRIACETOXY-2,3,4-TRIMETHOXYHEXANE (1-D)

>  <SPECTRUM TYPE>  (4978) 
MS1

>  <INSTRUMENT TYPE>  (4978) 
EI-B

>  <INSTRUMENT>  (4978) 
SHIMADZU LKB-9000B

>  <ION MODE>  (4978) 
P

>  <INCHIKEY>  (4978) 
RUAAXNGDIMCTCD-WHRKIXHSSA-N

>  <FORMULA>  (4978) 
C15H26O9

>  <EXACT MASS>  (4978) 
351.163959158

>  <MW>  (4978) 
351

>  <ID>  (4978) 
JP004502

>  <CONTRIBUTOR>  (4978) 
University of Tokyo Team, {Faculty of Engineering, University of Tokyo

>  <COMMENT>  (4978) 
SMILES=CC(=O)OCC(OC(C)=O)C(OC)C(OC)C(OC)C([H])([2H])OC(C)=O
InChI=InChI=1S/C15H26O9/c1-9(16)22-7-12(19-4)14(20-5)15(21-6)13(24-11(3)18)8-23-10(2)17/h12-15H,7-8H2,1-6H3/i7D
computed SMILES=[H]C(OC(=O)C)C(OC)C(OC)C(OC)C(OC(=O)C)COC(=O)C
accession=JP004502
date=2016.01.19 (Created 2008.10.21, modified 2011.05.06)
author=SEYAMA Y, DEPT. OF PHYSIOL. CHEMISTRY AND NUTRITION, FAC. OF MEDICINE, UNIV. OF TOKYO
license=CC BY-NC-SA
exact mass=350.15768
ionization energy=70 eV
ion type=[M]+*
computed spectral entropy=2.8082583344213776
computed normalized entropy=0.7293897857770644
SPLASH=splash10-00kf-9700000000-fcf07294c77a7ace9f20
submitter=submitter = University of Tokyo Team (Faculty of Engineering, University of Tokyo)
MoNA Rating=3.75

>  <NUM PEAKS>  (4978) 
47

>  <MASS SPECTRAL PEAKS>  (4978) 
41 1.7
42 2.7
43 99.99
44 0.32
45 7.3
46 1.4
59 6.2
60 0.13
69 1
70 1.9
71 5.8
72 0.23
73 3.1
74 3.2
75 3.6
76 0.14
85 1.5
87 32
88 12.8
89 0.36
99 38.4
100 5.7
101 11.1
102 8.52
103 7.1
113 6.9
114 1.3
115 0.13
117 5.9
118 74.4
119 4.3
129 6.22
130 11.1
131 4.6
132 1.1
142 0.1
143 1.7
159 5.2
161 2.7
162 3.29
163 2.5
173 7.4
174 2.2
189 2.59
190 2.5
233 5.2
234 1

$$$$

     RDKit          2D

 18 20  0  0  0  0  0  0  0  0999 V2000
    3.0600    2.2000    0.0000 C   0  0  0  0  0  0  0  0  0  0  0  0
    1.7600    2.9500    0.0000 C   0  0  0  0  0  0  0  0  0  0  0  0
    3.0600    0.7000    0.0000 C   0  0  0  0  0  0  0  0  0  0  0  0
    0.4600    2.2000    0.0000 C   0  0  0  0  0  0  0  0  0  0  0  0
    1.7600   -1.5500    0.0000 C   0  0  0  0  0  0  0  0  0  0  0  0
    0.4600   -2.3000    0.0000 C   0  0  0  0  0  0  0  0  0  0  0  0
   -3.4300   -1.5500    0.0000 C   0  0  0  0  0  0  0  0  0  0  0  0
    1.7600   -0.0500    0.0000 C   0  0  0  0  0  0  0  0  0  0  0  0
   -3.4300   -0.0500    0.0000 C   0  0  0  0  0  0  0  0  0  0  0  0
    0.4600    0.7000    0.0000 C   0  0  0  0  0  0  0  0  0  0  0  0
   -0.8300   -1.5500    0.0000 C   0  0  0  0  0  0  0  0  0  0  0  0
   -2.1300    0.7000    0.0000 C   0  0  0  0  0  0  0  0  0  0  0  0
   -4.7289    0.7002    0.0000 C   0  0  0  0  0  0  0  0  0  0  0  0
   -2.1300   -2.3000    0.0000 N   0  0  0  0  0  0  0  0  0  0  0  0
   -0.8300   -0.0500    0.0000 N   0  0  0  0  0  0  0  0  0  0  0  0
   -2.1300    2.2000    0.0000 O   0  0  0  0  0  0  0  0  0  0  0  0
   -4.7287    2.2002    0.0000 O   0  0  0  0  0  0  0  0  0  0  0  0
   -6.0281   -0.0496    0.0000 O   0  0  0  0  0  0  0  0  0  0  0  0
  2  1  2  0
  3  1  1  0
  4  2  1  0
  6  5  1  0
  8  3  2  0
  8  5  1  0
  9  7  2  0
 10  4  2  0
 10  8  1  0
 11  6  1  0
 12  9  1  0
 13  9  1  0
 14  7  1  0
 14 11  2  0
 15 10  1  0
 15 11  1  0
 15 12  1  0
 16 12  2  0
 17 13  2  0
 18 13  1  0
M  END
>  <NAME>  (4979) 
1-OXO-5,6-DIHYDRO-1H-PYRIMIDO(1,2-A)QUINOLINE-2-CARBOXYLIC ACID

>  <SYNONYMS>  (4979) 


>  <SPECTRUM TYPE>  (4979) 
MS1

>  <INSTRUMENT TYPE>  (4979) 
EI-B

>  <INSTRUMENT>  (4979) 
MS-902

>  <ION MODE>  (4979) 
P

>  <INCHIKEY>  (4979) 
MLXRYOPMMKQPES-UHFFFAOYSA-N

>  <FORMULA>  (4979) 
C13H10N2O3

>  <EXACT MASS>  (4979) 
242.06914217999997

>  <MW>  (4979) 
242

>  <ID>  (4979) 
JP004501

>  <CONTRIBUTOR>  (4979) 
University of Tokyo Team, {Faculty of Engineering, University of Tokyo

>  <COMMENT>  (4979) 
SMILES=OC(=O)C(=C3)C(=O)N(C1=N3)c(c2)c(ccc2)CC1
InChI=InChI=1S/C13H10N2O3/c16-12-9(13(17)18)7-14-11-6-5-8-3-1-2-4-10(8)15(11)12/h1-4,7H,5-6H2,(H,17,18)
computed SMILES=O=C(O)C1=CN=C2N(C1=O)C=3C=CC=CC3CC2
accession=JP004501
date=2016.01.19 (Created 2008.10.21, modified 2011.05.06)
author=SASAKI S, TOYOHASHI UNIV. OF TECH.
license=CC BY-NC-SA
exact mass=242.06914
ionization energy=70 eV
ion type=[M]+*
computed spectral entropy=2.7159845703957544
computed normalized entropy=0.7909128394096503
SPLASH=splash10-0002-0910000000-e6cc14530b8e269aed0a
submitter=submitter = University of Tokyo Team (Faculty of Engineering, University of Tokyo)
MoNA Rating=3.75

>  <NUM PEAKS>  (4979) 
31

>  <MASS SPECTRAL PEAKS>  (4979) 
77 27
89 8.6
90 5.7
91 0.55
101 7.4
102 8.9
103 22
104 0.84
115 7.4
116 6.9
117 8.4
128 2.3
129 7.8
130 55
131 6.1
142 0.69
143 7.5
144 5
155 3.9
156 0.23
168 4.2
169 30
170 62
171 0.84
197 34
198 99.99
199 13
214 0.09
225 3.1
242 56
243 8.4

$$$$

     RDKit          2D

 18 20  0  0  0  0  0  0  0  0999 V2000
    3.0600    2.2000    0.0000 C   0  0  0  0  0  0  0  0  0  0  0  0
    1.7600    2.9500    0.0000 C   0  0  0  0  0  0  0  0  0  0  0  0
    3.0600    0.7000    0.0000 C   0  0  0  0  0  0  0  0  0  0  0  0
    0.4600    2.2000    0.0000 C   0  0  0  0  0  0  0  0  0  0  0  0
    1.7600   -1.5500    0.0000 C   0  0  0  0  0  0  0  0  0  0  0  0
    0.4600   -2.3000    0.0000 C   0  0  0  0  0  0  0  0  0  0  0  0
   -3.4300   -1.5500    0.0000 C   0  0  0  0  0  0  0  0  0  0  0  0
    1.7600   -0.0500    0.0000 C   0  0  0  0  0  0  0  0  0  0  0  0
   -3.4300   -0.0500    0.0000 C   0  0  0  0  0  0  0  0  0  0  0  0
    0.4600    0.7000    0.0000 C   0  0  0  0  0  0  0  0  0  0  0  0
   -0.8300   -1.5500    0.0000 C   0  0  0  0  0  0  0  0  0  0  0  0
   -2.1300    0.7000    0.0000 C   0  0  0  0  0  0  0  0  0  0  0  0
   -4.7289    0.7002    0.0000 C   0  0  0  0  0  0  0  0  0  0  0  0
   -2.1300   -2.3000    0.0000 N   0  0  0  0  0  0  0  0  0  0  0  0
   -0.8300   -0.0500    0.0000 N   0  0  0  0  0  0  0  0  0  0  0  0
   -2.1300    2.2000    0.0000 O   0  0  0  0  0  0  0  0  0  0  0  0
   -4.7287    2.2002    0.0000 O   0  0  0  0  0  0  0  0  0  0  0  0
   -6.0281   -0.0496    0.0000 O   0  0  0  0  0  0  0  0  0  0  0  0
  2  1  2  0
  3  1  1  0
  4  2  1  0
  6  5  2  0
  8  3  2  0
  8  5  1  0
  9  7  2  0
 10  4  2  0
 10  8  1  0
 11  6  1  0
 12  9  1  0
 13  9  1  0
 14  7  1  0
 14 11  2  0
 15 10  1  0
 15 11  1  0
 15 12  1  0
 16 12  2  0
 17 13  2  0
 18 13  1  0
M  END
>  <NAME>  (4980) 
1-OXO-1H-PYRIMIDO(1,2-A)QUINOLINE-2-CARBOXYLIC ACID

>  <SYNONYMS>  (4980) 


>  <SPECTRUM TYPE>  (4980) 
MS1

>  <INSTRUMENT TYPE>  (4980) 
EI-B

>  <INSTRUMENT>  (4980) 
MS-902

>  <ION MODE>  (4980) 
P

>  <INCHIKEY>  (4980) 
PBPJARVCNLMOJA-UHFFFAOYSA-N

>  <FORMULA>  (4980) 
C13H8N2O3

>  <EXACT MASS>  (4980) 
240.05349211599997

>  <MW>  (4980) 
240

>  <ID>  (4980) 
JP004500

>  <CONTRIBUTOR>  (4980) 
University of Tokyo Team, {Faculty of Engineering, University of Tokyo

>  <COMMENT>  (4980) 
SMILES=OC(=O)C(=C([H])3)C(=O)N(C(=N3)1)c(c2)c(ccc2)C([H])=C([H])1
InChI=InChI=1S/C13H8N2O3/c16-12-9(13(17)18)7-14-11-6-5-8-3-1-2-4-10(8)15(11)12/h1-7H,(H,17,18)
computed SMILES=O=C(O)C1=CN=C2C=CC=3C=CC=CC3N2C1=O
accession=JP004500
date=2016.01.19 (Created 2008.10.21, modified 2011.05.06)
author=SASAKI S, TOYOHASHI UNIV. OF TECH.
license=CC BY-NC-SA
exact mass=240.05349
ionization energy=70 eV
ion type=[M]+*
computed spectral entropy=2.4237663640596607
computed normalized entropy=0.7961072429711046
SPLASH=splash10-002g-1940000000-4a5c527728e986d76803
submitter=submitter = University of Tokyo Team (Faculty of Engineering, University of Tokyo)
MoNA Rating=3.75

>  <NUM PEAKS>  (4980) 
21

>  <MASS SPECTRAL PEAKS>  (4980) 
64 11
75 12
77 15
101 2.8
128 87
129 24
140 13
141 0.45
155 4.3
167 7.1
168 59
169 1.1
194 5.5
195 41
196 44
197 0.58
212 29
213 4.1
223 2
240 99.99
241 17

$$$$

     RDKit          2D

 18 20  0  0  0  0  0  0  0  0999 V2000
   -1.3000    3.0000    0.0000 C   0  0  0  0  0  0  0  0  0  0  0  0
    6.4968    3.0006    0.0000 C   0  0  0  0  0  0  0  0  0  0  0  0
    5.1971    3.7512    0.0000 C   0  0  0  0  0  0  0  0  0  0  0  0
    6.4975    1.4998    0.0000 C   0  0  0  0  0  0  0  0  0  0  0  0
   -2.6000   -0.7500    0.0000 C   0  0  0  0  0  0  0  0  0  0  0  0
   -2.6000    0.7500    0.0000 C   0  0  0  0  0  0  0  0  0  0  0  0
    3.8982    3.0010    0.0000 C   0  0  0  0  0  0  0  0  0  0  0  0
    5.1986    0.7496    0.0000 C   0  0  0  0  0  0  0  0  0  0  0  0
   -1.3000   -1.5000    0.0000 C   0  0  0  0  0  0  0  0  0  0  0  0
    2.6000   -0.7500    0.0000 C   0  0  0  0  0  0  0  0  0  0  0  0
   -1.3000    1.5000    0.0000 C   0  0  0  0  0  0  0  0  0  0  0  0
    3.8989    1.5002    0.0000 C   0  0  0  0  0  0  0  0  0  0  0  0
    2.6000    0.7500    0.0000 C   0  0  0  0  0  0  0  0  0  0  0  0
    0.0000   -0.7500    0.0000 C   0  0  0  0  0  0  0  0  0  0  0  0
    1.3000    1.5000    0.0000 C   0  0  0  0  0  0  0  0  0  0  0  0
    1.3000   -1.5000    0.0000 N   0  0  0  0  0  0  0  0  0  0  0  0
    0.0000    0.7500    0.0000 N   0  0  0  0  0  0  0  0  0  0  0  0
    1.3000    3.0000    0.0000 O   0  0  0  0  0  0  0  0  0  0  0  0
  3  2  2  0
  4  2  1  0
  6  5  1  0
  7  3  1  0
  8  4  2  0
  9  5  2  0
 11  1  1  0
 11  6  2  0
 12  7  2  0
 12  8  1  0
 13 10  2  0
 13 12  1  0
 14  9  1  0
 15 13  1  0
 16 10  1  0
 16 14  2  0
 17 11  1  0
 17 14  1  0
 17 15  1  0
 18 15  2  0
M  END
>  <NAME>  (4981) 
6-METHYL-3-PHENYL-4H-PYRIDO(1,2-A)PYRIMIDIN-4-ONE

>  <SYNONYMS>  (4981) 


>  <SPECTRUM TYPE>  (4981) 
MS1

>  <INSTRUMENT TYPE>  (4981) 
EI-B

>  <INSTRUMENT>  (4981) 
MS-902

>  <ION MODE>  (4981) 
P

>  <INCHIKEY>  (4981) 
IWZFFFOCUCZNBH-UHFFFAOYSA-N

>  <FORMULA>  (4981) 
C15H12N2O

>  <EXACT MASS>  (4981) 
236.094963004

>  <MW>  (4981) 
236

>  <ID>  (4981) 
JP004498

>  <CONTRIBUTOR>  (4981) 
University of Tokyo Team, {Faculty of Engineering, University of Tokyo

>  <COMMENT>  (4981) 
SMILES=c(c3)ccc(c3)C(=C1)C(=O)N(C(C)=2)C(C=CC2)=N1
InChI=InChI=1S/C15H12N2O/c1-11-6-5-9-14-16-10-13(15(18)17(11)14)12-7-3-2-4-8-12/h2-10H,1H3
computed SMILES=O=C1C(=CN=C2C=CC=C(N21)C)C=3C=CC=CC3
accession=JP004498
date=2016.01.19 (Created 2008.10.21, modified 2011.05.06)
author=SASAKI S, TOYOHASHI UNIV. OF TECH.
license=CC BY-NC-SA
exact mass=236.09496
ionization energy=70 eV
ion type=[M]+*
computed spectral entropy=2.7773462993250715
computed normalized entropy=0.7691524334019711
SPLASH=splash10-0a4r-7190000000-32a26919b7b5f6ca0868
submitter=submitter = University of Tokyo Team (Faculty of Engineering, University of Tokyo)
MoNA Rating=3.75

>  <NUM PEAKS>  (4981) 
37

>  <MASS SPECTRAL PEAKS>  (4981) 
39 25
41 6.5
50 5
51 0.8
52 5
62 4
63 15.5
64 0.8
65 50
66 9.5
74 3
75 0.35
76 7.5
77 5.5
89 16
90 1.05
91 5.5
92 47.5
93 6
102 0.8
103 5
116 4
119 4
149 0.2
180 4.5
181 6
192 3
193 0.6
205 9.5
206 11
207 52.5
208 99.99
209 14
235 1.5
236 57.5
237 0.85
238 0.5

$$$$

     RDKit          2D

 17 18  0  0  0  0  0  0  0  0999 V2000
    7.7962    0.7508    0.0000 C   0  0  0  0  0  0  0  0  0  0  0  0
    1.3000   -3.0000    0.0000 C   0  0  0  0  0  0  0  0  0  0  0  0
    6.4970    1.5006    0.0000 C   0  0  0  0  0  0  0  0  0  0  0  0
   -2.6000   -0.7500    0.0000 C   0  0  0  0  0  0  0  0  0  0  0  0
   -2.6000    0.7500    0.0000 C   0  0  0  0  0  0  0  0  0  0  0  0
   -1.3000   -1.5000    0.0000 C   0  0  0  0  0  0  0  0  0  0  0  0
   -1.3000    1.5000    0.0000 C   0  0  0  0  0  0  0  0  0  0  0  0
    2.6000   -0.7500    0.0000 C   0  0  0  0  0  0  0  0  0  0  0  0
    2.6000    0.7500    0.0000 C   0  0  0  0  0  0  0  0  0  0  0  0
    0.0000   -0.7500    0.0000 C   0  0  0  0  0  0  0  0  0  0  0  0
    1.3000    1.5000    0.0000 C   0  0  0  0  0  0  0  0  0  0  0  0
    3.8989    1.5002    0.0000 C   0  0  0  0  0  0  0  0  0  0  0  0
    1.3000   -1.5000    0.0000 N   0  0  0  0  0  0  0  0  0  0  0  0
    0.0000    0.7500    0.0000 N   0  0  0  0  0  0  0  0  0  0  0  0
    1.3000    3.0000    0.0000 O   0  0  0  0  0  0  0  0  0  0  0  0
    3.8987    3.0002    0.0000 O   0  0  0  0  0  0  0  0  0  0  0  0
    5.1981    0.7504    0.0000 O   0  0  0  0  0  0  0  0  0  0  0  0
  3  1  1  0
  5  4  1  0
  6  4  1  0
  7  5  1  0
  9  8  2  0
 10  6  2  0
 11  9  1  0
 12  9  1  0
 13  2  1  0
 13  8  1  0
 13 10  1  0
 14  7  1  0
 14 10  1  0
 14 11  1  0
 15 11  2  0
 16 12  2  0
 17  3  1  0
 17 12  1  0
M  END
>  <NAME>  (4982) 
1-METHYL-4-OXO-7,8-DIHYDRO-1H,4H,6H-PYRIDO(1,2-A)PYRIMIDINE-3-CARBOXYLIC ACID ETHYLESTER

>  <SYNONYMS>  (4982) 


>  <SPECTRUM TYPE>  (4982) 
MS1

>  <INSTRUMENT TYPE>  (4982) 
EI-B

>  <INSTRUMENT>  (4982) 
MS-902

>  <ION MODE>  (4982) 
P

>  <INCHIKEY>  (4982) 
RHEPHABEOUOQOY-UHFFFAOYSA-N

>  <FORMULA>  (4982) 
C12H16N2O3

>  <EXACT MASS>  (4982) 
236.116092372

>  <MW>  (4982) 
236

>  <ID>  (4982) 
JP004497

>  <CONTRIBUTOR>  (4982) 
University of Tokyo Team, {Faculty of Engineering, University of Tokyo

>  <COMMENT>  (4982) 
SMILES=CCOC(=O)C(=C([H])1)C(=O)N(C2)C(=C([H])CC2)N(C)1
InChI=InChI=1S/C12H16N2O3/c1-3-17-12(16)9-8-13(2)10-6-4-5-7-14(10)11(9)15/h6,8H,3-5,7H2,1-2H3
computed SMILES=O=C(OCC)C1=CN(C2=CCCCN2C1=O)C
accession=JP004497
date=2016.01.19 (Created 2008.10.21, modified 2011.05.06)
author=SASAKI S, TOYOHASHI UNIV. OF TECH.
license=CC BY-NC-SA
exact mass=236.11609
ionization energy=70 eV
ion type=[M]+*
computed spectral entropy=2.4829427308639778
computed normalized entropy=0.8288266454192635
SPLASH=splash10-000i-2790000000-7947eed6d704ae17e5c7
submitter=submitter = University of Tokyo Team (Faculty of Engineering, University of Tokyo)
MoNA Rating=3.75

>  <NUM PEAKS>  (4982) 
20

>  <MASS SPECTRAL PEAKS>  (4982) 
69 11
81 10
82 35
83 0.3
134 17
135 15
136 21
150 0.6
163 18
176 8
177 40
178 0.8
189 14
190 9
191 17
207 0.9
221 12
235 60
236 99.99
237 14

$$$$

     RDKit          2D

 17 18  0  0  0  0  0  0  0  0999 V2000
    9.0951    1.5010    0.0000 C   0  0  0  0  0  0  0  0  0  0  0  0
    7.7962    0.7508    0.0000 C   0  0  0  0  0  0  0  0  0  0  0  0
   -2.6000   -0.7500    0.0000 C   0  0  0  0  0  0  0  0  0  0  0  0
   -2.6000    0.7500    0.0000 C   0  0  0  0  0  0  0  0  0  0  0  0
   -1.3000   -1.5000    0.0000 C   0  0  0  0  0  0  0  0  0  0  0  0
   -1.3000    1.5000    0.0000 C   0  0  0  0  0  0  0  0  0  0  0  0
    3.8989    1.5002    0.0000 C   0  0  0  0  0  0  0  0  0  0  0  0
    2.6000   -0.7500    0.0000 C   0  0  0  0  0  0  0  0  0  0  0  0
    2.6000    0.7500    0.0000 C   0  0  0  0  0  0  0  0  0  0  0  0
    0.0000   -0.7500    0.0000 C   0  0  0  0  0  0  0  0  0  0  0  0
    5.1981    0.7504    0.0000 C   0  0  0  0  0  0  0  0  0  0  0  0
    1.3000    1.5000    0.0000 C   0  0  0  0  0  0  0  0  0  0  0  0
    1.3000   -1.5000    0.0000 N   0  0  0  0  0  0  0  0  0  0  0  0
    0.0000    0.7500    0.0000 N   0  0  0  0  0  0  0  0  0  0  0  0
    5.1983   -0.7496    0.0000 O   0  0  0  0  0  0  0  0  0  0  0  0
    1.3000    3.0000    0.0000 O   0  0  0  0  0  0  0  0  0  0  0  0
    6.4970    1.5006    0.0000 O   0  0  0  0  0  0  0  0  0  0  0  0
  2  1  1  0
  4  3  1  0
  5  3  1  0
  6  4  1  0
  9  7  1  0
  9  8  2  0
 10  5  1  0
 11  7  1  0
 12  9  1  0
 13  8  1  0
 13 10  2  0
 14  6  1  0
 14 10  1  0
 14 12  1  0
 15 11  2  0
 16 12  2  0
 17  2  1  0
 17 11  1  0
M  END
>  <NAME>  (4983) 
4-OXO-6,7,8,9-TETRAHYDRO-4H-PYRIDO(1,2-A)PYRIMIDINE-3-ACETIC ACID ETHYL ESTER

>  <SYNONYMS>  (4983) 


>  <SPECTRUM TYPE>  (4983) 
MS1

>  <INSTRUMENT TYPE>  (4983) 
EI-B

>  <INSTRUMENT>  (4983) 
MS-902

>  <ION MODE>  (4983) 
P

>  <INCHIKEY>  (4983) 
GPICITVVVLYZNF-UHFFFAOYSA-N

>  <FORMULA>  (4983) 
C12H16N2O3

>  <EXACT MASS>  (4983) 
236.11609237199997

>  <MW>  (4983) 
236

>  <ID>  (4983) 
JP004495

>  <CONTRIBUTOR>  (4983) 
University of Tokyo Team, {Faculty of Engineering, University of Tokyo

>  <COMMENT>  (4983) 
SMILES=CCOC(=O)CC(=C1)C(=O)N(C2)C(CCC2)=N1
InChI=InChI=1S/C12H16N2O3/c1-2-17-11(15)7-9-8-13-10-5-3-4-6-14(10)12(9)16/h8H,2-7H2,1H3
computed SMILES=O=C(OCC)CC1=CN=C2N(C1=O)CCCC2
accession=JP004495
date=2016.01.19 (Created 2008.10.21, modified 2011.05.06)
author=SASAKI S, TOYOHASHI UNIV. OF TECH.
license=CC BY-NC-SA
exact mass=236.11609
ionization energy=70 eV
ion type=[M]+*
computed spectral entropy=1.8109569123481715
computed normalized entropy=0.6150431118327494
SPLASH=splash10-03di-2910000000-1e972be3b9d06e964fc4
submitter=submitter = University of Tokyo Team (Faculty of Engineering, University of Tokyo)
MoNA Rating=3.75

>  <NUM PEAKS>  (4983) 
19

>  <MASS SPECTRAL PEAKS>  (4983) 
39 7.9
41 2.7
53 2.6
54 0.36
55 6.7
80 1.4
82 11.5
135 0.16
162 2.6
163 99.99
164 19.1
165 0.13
190 8.1
191 7.6
192 1
207 0.04
236 21.3
237 2.9
238 0.3

$$$$

     RDKit          2D

 16 17  0  0  0  0  0  0  0  0999 V2000
    3.5752   -1.3041    0.0000 C   0  0  0  0  0  0  0  0  0  0  0  0
    2.2773   -0.5521    0.0000 C   0  0  0  0  0  0  0  0  0  0  0  0
    4.8708   -0.5639    0.0000 C   0  0  0  0  0  0  0  0  0  0  0  0
   -1.6232    3.1915    0.0000 C   0  0  0  0  0  0  0  0  0  0  0  0
   -0.3241    3.9415    0.0000 C   0  0  0  0  0  0  0  0  0  0  0  0
    3.5757    1.6889    0.0000 C   0  0  0  0  0  0  0  0  0  0  0  0
    2.2750    0.9400    0.0000 C   0  0  0  0  0  0  0  0  0  0  0  0
    4.8736    0.9369    0.0000 C   0  0  0  0  0  0  0  0  0  0  0  0
   -1.6227    1.6907    0.0000 C   0  0  0  0  0  0  0  0  0  0  0  0
    0.9759    1.6898    0.0000 C   0  0  0  0  0  0  0  0  0  0  0  0
   -2.9217    0.9407    0.0000 Cl  0  0  0  0  0  0  0  0  0  0  0  0
    0.9754    3.1907    0.0000 N   0  0  0  0  0  0  0  0  0  0  0  0
   -0.3232    0.9398    0.0000 N   0  0  0  0  0  0  0  0  0  0  0  0
    6.1739    1.6848    0.0000 N   0  0  0  0  0  0  0  0  0  0  0  0
    7.4716    0.9326    0.0000 O   0  0  0  0  0  0  0  0  0  0  0  0
    6.1764    3.1848    0.0000 O   0  0  0  0  0  0  0  0  0  0  0  0
  2  1  2  0
  3  1  1  0
  5  4  2  0
  7  2  1  0
  7  6  2  0
  8  3  2  0
  8  6  1  0
  9  4  1  0
 10  7  1  0
 11  9  1  0
 12  5  1  0
 12 10  2  0
 13  9  2  0
 13 10  1  0
 14  8  1  0
 15 14  1  0
 16 14  2  0
M  CHG  2  14   1  15  -1
M  END
>  <NAME>  (4984) 
4-CHLORO-2-(3-NITROPHENYL)PYRIMIDINE

>  <SYNONYMS>  (4984) 


>  <SPECTRUM TYPE>  (4984) 
MS1

>  <INSTRUMENT TYPE>  (4984) 
EI-B

>  <INSTRUMENT>  (4984) 
MS-902

>  <ION MODE>  (4984) 
P

>  <INCHIKEY>  (4984) 
CXDJXNOXJBOUQW-UHFFFAOYSA-N

>  <FORMULA>  (4984) 
C10H6ClN3O2

>  <EXACT MASS>  (4984) 
235.014854112

>  <MW>  (4984) 
235

>  <ID>  (4984) 
JP004494

>  <CONTRIBUTOR>  (4984) 
University of Tokyo Team, {Faculty of Engineering, University of Tokyo

>  <COMMENT>  (4984) 
SMILES=[O-1][N+1](=O)c(c2)cc(cc2)c(n1)nc(Cl)cc1
InChI=InChI=1S/C10H6ClN3O2/c11-9-4-5-12-10(13-9)7-2-1-3-8(6-7)14(15)16/h1-6H
computed SMILES=O=N(=O)C1=CC=CC(=C1)C2=NC=CC(Cl)=N2
accession=JP004494
date=2016.01.19 (Created 2008.10.21, modified 2011.05.06)
author=SASAKI S, TOYOHASHI UNIV. OF TECH.
license=CC BY-NC-SA
exact mass=235.01485
ionization energy=70 eV
ion type=[M]+*
computed spectral entropy=2.79027581544181
computed normalized entropy=0.6280654623442401
SPLASH=splash10-000i-2960000000-15af16b46cb61bba2492
submitter=submitter = University of Tokyo Team (Faculty of Engineering, University of Tokyo)
MoNA Rating=3.75

>  <NUM PEAKS>  (4984) 
85

>  <MASS SPECTRAL PEAKS>  (4984) 
36 2.2
37 0.7
38 0.8
39 0.13
40 5
41 0.5
43 0.3
44 0.49
49 0.5
50 6.9
51 4.3
52 0.44
53 1
57 0.4
60 0.5
61 0.08
62 1
63 1.7
64 1.2
65 0.04
73 1.2
74 2.4
75 10.5
76 0.87
76.5 0.5
77 5.9
77.5 0.5
81.5 0.03
86 0.7
87 0.5
88 0.5
90 0.07
94 0.4
94.5 2.2
95.5 0.5
99 0.12
99.5 0.3
100 1.2
101 3.6
102 2.08
104 0.5
107 0.5
108 0.5
111 0.05
113 0.5
114 0.5
115 0.8
116 0.05
117.5 0.3
126 4.3
127 6.4
128 0.86
129 16
130 1.2
141 0.5
142 0.28
149 0.5
150 0.7
153 8.9
154 1.28
155 1.8
162 3.8
163 5.2
164 0.15
165 1.8
177 8.6
178 1.2
179 0.31
188 0.5
189 99.99
190 10.8
191 3.19
192 3.1
199 1
200 13.1
201 0.17
205 1.2
218 0.3
219 0.2
221 0.03
228 0.3
235 99.6
236 10.7
237 3.23
238 3.1

$$$$

     RDKit          2D

 17 18  0  0  0  0  0  0  0  0999 V2000
    7.7962    0.7508    0.0000 C   0  0  0  0  0  0  0  0  0  0  0  0
    6.4970    1.5006    0.0000 C   0  0  0  0  0  0  0  0  0  0  0  0
   -2.6000    0.7500    0.0000 C   0  0  0  0  0  0  0  0  0  0  0  0
   -2.6000   -0.7500    0.0000 C   0  0  0  0  0  0  0  0  0  0  0  0
   -1.3000    1.5000    0.0000 C   0  0  0  0  0  0  0  0  0  0  0  0
    2.6000   -0.7500    0.0000 C   0  0  0  0  0  0  0  0  0  0  0  0
    2.6000    0.7500    0.0000 C   0  0  0  0  0  0  0  0  0  0  0  0
   -1.3000   -1.5000    0.0000 C   0  0  0  0  0  0  0  0  0  0  0  0
    0.0000   -0.7500    0.0000 C   0  0  0  0  0  0  0  0  0  0  0  0
    1.3000    1.5000    0.0000 C   0  0  0  0  0  0  0  0  0  0  0  0
    3.8989    1.5002    0.0000 C   0  0  0  0  0  0  0  0  0  0  0  0
    1.3000   -1.5000    0.0000 N   0  0  0  0  0  0  0  0  0  0  0  0
    0.0000    0.7500    0.0000 N   0  0  0  0  0  0  0  0  0  0  0  0
   -1.3000   -3.0000    0.0000 O   0  0  0  0  0  0  0  0  0  0  0  0
    1.3000    3.0000    0.0000 O   0  0  0  0  0  0  0  0  0  0  0  0
    3.8987    3.0002    0.0000 O   0  0  0  0  0  0  0  0  0  0  0  0
    5.1981    0.7504    0.0000 O   0  0  0  0  0  0  0  0  0  0  0  0
  2  1  1  0
  4  3  1  0
  5  3  2  0
  7  6  2  0
  8  4  2  0
  9  8  1  0
 10  7  1  0
 11  7  1  0
 12  6  1  0
 12  9  2  0
 13  5  1  0
 13  9  1  0
 13 10  1  0
 14  8  1  0
 15 10  2  0
 16 11  2  0
 17  2  1  0
 17 11  1  0
M  END
>  <NAME>  (4985) 
9-HYDROXY-4-OXO-4H-PYRIDO(1,2-A)PYRIMIDINE-3-CARBOXYLIC ACID ETHYL ESTER

>  <SYNONYMS>  (4985) 


>  <SPECTRUM TYPE>  (4985) 
MS1

>  <INSTRUMENT TYPE>  (4985) 
EI-B

>  <INSTRUMENT>  (4985) 
MS-902

>  <ION MODE>  (4985) 
P

>  <INCHIKEY>  (4985) 
YSOFEUXECYEGGL-UHFFFAOYSA-N

>  <FORMULA>  (4985) 
C11H10N2O4

>  <EXACT MASS>  (4985) 
234.0640568

>  <MW>  (4985) 
234

>  <ID>  (4985) 
JP004493

>  <CONTRIBUTOR>  (4985) 
University of Tokyo Team, {Faculty of Engineering, University of Tokyo

>  <COMMENT>  (4985) 
SMILES=CCOC(=O)C(=C2)C(=O)N(C=1)C(=N2)C(O)=CC1
InChI=InChI=1S/C11H10N2O4/c1-2-17-11(16)7-6-12-9-8(14)4-3-5-13(9)10(7)15/h3-6,14H,2H2,1H3
computed SMILES=O=C(OCC)C1=CN=C2C(O)=CC=CN2C1=O
accession=JP004493
date=2016.01.19 (Created 2008.10.21, modified 2011.05.06)
author=SASAKI S, TOYOHASHI UNIV. OF TECH.
license=CC BY-NC-SA
exact mass=234.06406
ionization energy=70 eV
ion type=[M]+*
computed spectral entropy=3.1186969367334294
computed normalized entropy=0.7680681464148273
SPLASH=splash10-01qi-6940000000-b03d63f9759907906095
submitter=submitter = University of Tokyo Team (Faculty of Engineering, University of Tokyo)
MoNA Rating=3.75

>  <NUM PEAKS>  (4985) 
58

>  <MASS SPECTRAL PEAKS>  (4985) 
38 6.8
39 26.5
41 4.4
43 0.29
44 20.6
45 2.6
51 5.9
52 0.62
53 19.1
54 4.6
55 8.8
56 0.09
57 1.8
64 3.2
65 7.4
66 1.09
67 6.5
68 1.2
69 1.2
77 0.18
78 7.1
79 4.4
80 1.2
81 0.21
82 4.7
83 1.5
93 16.2
94 3.24
95 7.1
104 1.2
105 2.4
106 1.24
110 23.5
120 4.4
121 29.4
122 0.16
133 2.9
134 2.7
135 2.6
150 0.38
160 13.2
161 10
162 54.4
163 0.59
175 0.9
178 17.6
179 1.2
187 0.16
188 2.1
189 63.2
190 9.3
191 0.1
205 0.6
206 7.9
207 0.6
234 99.99
235 12.6
236 1.5

$$$$

     RDKit          2D

 17 18  0  0  0  0  0  0  0  0999 V2000
    9.0951    1.5010    0.0000 C   0  0  0  0  0  0  0  0  0  0  0  0
    7.7962    0.7508    0.0000 C   0  0  0  0  0  0  0  0  0  0  0  0
   -2.6000   -0.7500    0.0000 C   0  0  0  0  0  0  0  0  0  0  0  0
   -2.6000    0.7500    0.0000 C   0  0  0  0  0  0  0  0  0  0  0  0
   -1.3000   -1.5000    0.0000 C   0  0  0  0  0  0  0  0  0  0  0  0
   -1.3000    1.5000    0.0000 C   0  0  0  0  0  0  0  0  0  0  0  0
    3.8989    1.5002    0.0000 C   0  0  0  0  0  0  0  0  0  0  0  0
    2.6000   -0.7500    0.0000 C   0  0  0  0  0  0  0  0  0  0  0  0
    2.6000    0.7500    0.0000 C   0  0  0  0  0  0  0  0  0  0  0  0
    0.0000   -0.7500    0.0000 C   0  0  0  0  0  0  0  0  0  0  0  0
    5.1981    0.7504    0.0000 C   0  0  0  0  0  0  0  0  0  0  0  0
    1.3000    1.5000    0.0000 C   0  0  0  0  0  0  0  0  0  0  0  0
    1.3000   -1.5000    0.0000 N   0  0  0  0  0  0  0  0  0  0  0  0
    0.0000    0.7500    0.0000 N   0  0  0  0  0  0  0  0  0  0  0  0
    5.1983   -0.7496    0.0000 O   0  0  0  0  0  0  0  0  0  0  0  0
    1.3000    3.0000    0.0000 O   0  0  0  0  0  0  0  0  0  0  0  0
    6.4970    1.5006    0.0000 O   0  0  0  0  0  0  0  0  0  0  0  0
  2  1  1  0
  4  3  1  0
  5  3  2  0
  6  4  2  0
  9  7  1  0
  9  8  2  0
 10  5  1  0
 11  7  1  0
 12  9  1  0
 13  8  1  0
 13 10  2  0
 14  6  1  0
 14 10  1  0
 14 12  1  0
 15 11  2  0
 16 12  2  0
 17  2  1  0
 17 11  1  0
M  END
>  <NAME>  (4986) 
4-OXO-4H-PYRIDO(1,2-A)PYRIMIDINE-3-ACETICACID ETHYL ESTER

>  <SYNONYMS>  (4986) 


>  <SPECTRUM TYPE>  (4986) 
MS1

>  <INSTRUMENT TYPE>  (4986) 
EI-B

>  <INSTRUMENT>  (4986) 
MS-902

>  <ION MODE>  (4986) 
P

>  <INCHIKEY>  (4986) 
YGTOZAFCXGHMCT-UHFFFAOYSA-N

>  <FORMULA>  (4986) 
C12H12N2O3

>  <EXACT MASS>  (4986) 
232.08479224399997

>  <MW>  (4986) 
232

>  <ID>  (4986) 
JP004492

>  <CONTRIBUTOR>  (4986) 
University of Tokyo Team, {Faculty of Engineering, University of Tokyo

>  <COMMENT>  (4986) 
SMILES=CCOC(=O)CC(=C1)C(=O)N(C=2)C(C=CC2)=N1
InChI=InChI=1S/C12H12N2O3/c1-2-17-11(15)7-9-8-13-10-5-3-4-6-14(10)12(9)16/h3-6,8H,2,7H2,1H3
computed SMILES=O=C(OCC)CC1=CN=C2C=CC=CN2C1=O
accession=JP004492
date=2016.01.19 (Created 2008.10.21, modified 2011.05.06)
author=SASAKI S, TOYOHASHI UNIV. OF TECH.
license=CC BY-NC-SA
exact mass=232.08479
ionization energy=70 eV
ion type=[M]+*
computed spectral entropy=1.7349698199692323
computed normalized entropy=0.5101055967299838
SPLASH=splash10-0a4i-2900000000-58cc5cfcc77be7591b0b
submitter=submitter = University of Tokyo Team (Faculty of Engineering, University of Tokyo)
MoNA Rating=3.75

>  <NUM PEAKS>  (4986) 
30

>  <MASS SPECTRAL PEAKS>  (4986) 
39 2.1
51 3.8
52 1.8
55 0.57
65.5 1.1
77 0.7
78 23
79 0.46
79.5 1.1
104 0.5
105 7.5
106 0.05
129 0.2
130 0.9
131 4.1
132 0.11
158 1.1
159 99.99
160 11.1
161 0.13
175 0.5
186 1.2
187 4.5
188 0.11
203 0.1
218 0.7
231 0.1
232 2.6
233 3.6
234 0.9

$$$$

     RDKit          2D

 17 18  0  0  0  0  0  0  0  0999 V2000
    7.7962    0.7508    0.0000 C   0  0  0  0  0  0  0  0  0  0  0  0
   -1.3000   -3.0000    0.0000 C   0  0  0  0  0  0  0  0  0  0  0  0
    6.4970    1.5006    0.0000 C   0  0  0  0  0  0  0  0  0  0  0  0
   -2.6000    0.7500    0.0000 C   0  0  0  0  0  0  0  0  0  0  0  0
   -2.6000   -0.7500    0.0000 C   0  0  0  0  0  0  0  0  0  0  0  0
   -1.3000    1.5000    0.0000 C   0  0  0  0  0  0  0  0  0  0  0  0
    2.6000   -0.7500    0.0000 C   0  0  0  0  0  0  0  0  0  0  0  0
   -1.3000   -1.5000    0.0000 C   0  0  0  0  0  0  0  0  0  0  0  0
    2.6000    0.7500    0.0000 C   0  0  0  0  0  0  0  0  0  0  0  0
    0.0000   -0.7500    0.0000 C   0  0  0  0  0  0  0  0  0  0  0  0
    1.3000    1.5000    0.0000 C   0  0  0  0  0  0  0  0  0  0  0  0
    3.8989    1.5002    0.0000 C   0  0  0  0  0  0  0  0  0  0  0  0
    1.3000   -1.5000    0.0000 N   0  0  0  0  0  0  0  0  0  0  0  0
    0.0000    0.7500    0.0000 N   0  0  0  0  0  0  0  0  0  0  0  0
    1.3000    3.0000    0.0000 O   0  0  0  0  0  0  0  0  0  0  0  0
    3.8987    3.0002    0.0000 O   0  0  0  0  0  0  0  0  0  0  0  0
    5.1981    0.7504    0.0000 O   0  0  0  0  0  0  0  0  0  0  0  0
  3  1  1  0
  5  4  1  0
  6  4  2  0
  8  2  1  0
  8  5  2  0
  9  7  2  0
 10  8  1  0
 11  9  1  0
 12  9  1  0
 13  7  1  0
 13 10  2  0
 14  6  1  0
 14 10  1  0
 14 11  1  0
 15 11  2  0
 16 12  2  0
 17  3  1  0
 17 12  1  0
M  END
>  <NAME>  (4987) 
9-METHYL-4-OXO-4H-PYRIDO(1,2-A)PYRIMIDINE-3-CARBOXYLIC ACID ETHYL ESTER

>  <SYNONYMS>  (4987) 


>  <SPECTRUM TYPE>  (4987) 
MS1

>  <INSTRUMENT TYPE>  (4987) 
EI-B

>  <INSTRUMENT>  (4987) 
MS-902

>  <ION MODE>  (4987) 
P

>  <INCHIKEY>  (4987) 
ZXNPJNYRDHFJBV-UHFFFAOYSA-N

>  <FORMULA>  (4987) 
C12H12N2O3

>  <EXACT MASS>  (4987) 
232.08479224399997

>  <MW>  (4987) 
232

>  <ID>  (4987) 
JP004491

>  <CONTRIBUTOR>  (4987) 
University of Tokyo Team, {Faculty of Engineering, University of Tokyo

>  <COMMENT>  (4987) 
SMILES=CCOC(=O)C(=C2)C(=O)N(C=1)C(=N2)C(C)=CC1
InChI=InChI=1S/C12H12N2O3/c1-3-17-12(16)9-7-13-10-8(2)5-4-6-14(10)11(9)15/h4-7H,3H2,1-2H3
computed SMILES=O=C(OCC)C1=CN=C2C(=CC=CN2C1=O)C
accession=JP004491
date=2016.01.19 (Created 2008.10.21, modified 2011.05.06)
author=SASAKI S, TOYOHASHI UNIV. OF TECH.
license=CC BY-NC-SA
exact mass=232.08479
ionization energy=70 eV
ion type=[M]+*
computed spectral entropy=3.0189583277586776
computed normalized entropy=0.7499862272176585
SPLASH=splash10-000x-9510000000-a626e3eca183f01f7ace
submitter=submitter = University of Tokyo Team (Faculty of Engineering, University of Tokyo)
MoNA Rating=3.75

>  <NUM PEAKS>  (4987) 
56

>  <MASS SPECTRAL PEAKS>  (4987) 
39 19.2
41 3.5
43 1.5
44 0.27
50 2.3
51 8.5
52 7.3
53 1.92
54 1.5
63 4.6
64 8.5
65 0.44
65.5 3.1
66 8.1
67 1.5
76 0.31
77 13.5
78 7.7
79 2.3
80 0.12
90 1.3
91 8.1
92 99.99
93 2.31
93.5 0.8
94 1
102 1.5
103 0.27
104 10.8
105 3.5
118 6.5
119 0.32
120 2.3
129 1.9
130 2.3
131 1.27
132 50
133 4.6
158 4.6
159 0.23
160 8.4
161 8.5
175 2.3
176 2.31
177 1.9
186 2.3
187 7.6
188 0.92
189 1.5
203 0.8
204 6.9
205 0.04
231 0.4
232 8.6
233 11.5
234 1

$$$$

     RDKit          2D

 17 18  0  0  0  0  0  0  0  0999 V2000
    7.7962    0.7508    0.0000 C   0  0  0  0  0  0  0  0  0  0  0  0
   -3.8989   -1.5002    0.0000 C   0  0  0  0  0  0  0  0  0  0  0  0
    6.4970    1.5006    0.0000 C   0  0  0  0  0  0  0  0  0  0  0  0
   -2.6000    0.7500    0.0000 C   0  0  0  0  0  0  0  0  0  0  0  0
   -1.3000    1.5000    0.0000 C   0  0  0  0  0  0  0  0  0  0  0  0
   -1.3000   -1.5000    0.0000 C   0  0  0  0  0  0  0  0  0  0  0  0
    2.6000   -0.7500    0.0000 C   0  0  0  0  0  0  0  0  0  0  0  0
   -2.6000   -0.7500    0.0000 C   0  0  0  0  0  0  0  0  0  0  0  0
    2.6000    0.7500    0.0000 C   0  0  0  0  0  0  0  0  0  0  0  0
    0.0000   -0.7500    0.0000 C   0  0  0  0  0  0  0  0  0  0  0  0
    1.3000    1.5000    0.0000 C   0  0  0  0  0  0  0  0  0  0  0  0
    3.8989    1.5002    0.0000 C   0  0  0  0  0  0  0  0  0  0  0  0
    1.3000   -1.5000    0.0000 N   0  0  0  0  0  0  0  0  0  0  0  0
    0.0000    0.7500    0.0000 N   0  0  0  0  0  0  0  0  0  0  0  0
    1.3000    3.0000    0.0000 O   0  0  0  0  0  0  0  0  0  0  0  0
    3.8987    3.0002    0.0000 O   0  0  0  0  0  0  0  0  0  0  0  0
    5.1981    0.7504    0.0000 O   0  0  0  0  0  0  0  0  0  0  0  0
  3  1  1  0
  5  4  2  0
  8  2  1  0
  8  4  1  0
  8  6  2  0
  9  7  2  0
 10  6  1  0
 11  9  1  0
 12  9  1  0
 13  7  1  0
 13 10  2  0
 14  5  1  0
 14 10  1  0
 14 11  1  0
 15 11  2  0
 16 12  2  0
 17  3  1  0
 17 12  1  0
M  END
>  <NAME>  (4988) 
8-METHYL-4-OXO-4H-PYRIDO(1,2-A)PYRIMIDINE-3-CARBOXYLIC ACID ETHYL ESTER

>  <SYNONYMS>  (4988) 


>  <SPECTRUM TYPE>  (4988) 
MS1

>  <INSTRUMENT TYPE>  (4988) 
EI-B

>  <INSTRUMENT>  (4988) 
MS-902

>  <ION MODE>  (4988) 
P

>  <INCHIKEY>  (4988) 
BHAQEKYGTIQOGF-UHFFFAOYSA-N

>  <FORMULA>  (4988) 
C12H12N2O3

>  <EXACT MASS>  (4988) 
232.08479224399997

>  <MW>  (4988) 
232

>  <ID>  (4988) 
JP004490

>  <CONTRIBUTOR>  (4988) 
University of Tokyo Team, {Faculty of Engineering, University of Tokyo

>  <COMMENT>  (4988) 
SMILES=CCOC(=O)C(=C1)C(=O)N(C=2)C(C=C(C)C2)=N1
InChI=InChI=1S/C12H12N2O3/c1-3-17-12(16)9-7-13-10-6-8(2)4-5-14(10)11(9)15/h4-7H,3H2,1-2H3
computed SMILES=O=C(OCC)C1=CN=C2C=C(C=CN2C1=O)C
accession=JP004490
date=2016.01.19 (Created 2008.10.21, modified 2011.05.06)
author=SASAKI S, TOYOHASHI UNIV. OF TECH.
license=CC BY-NC-SA
exact mass=232.08479
ionization energy=70 eV
ion type=[M]+*
computed spectral entropy=2.6265886877073163
computed normalized entropy=0.6748997863499644
SPLASH=splash10-01qi-2920000000-ee1f10849b38cb8b70db
submitter=submitter = University of Tokyo Team (Faculty of Engineering, University of Tokyo)
MoNA Rating=3.75

>  <NUM PEAKS>  (4988) 
49

>  <MASS SPECTRAL PEAKS>  (4988) 
39 10
41 3
43 0.9
44 0.12
50 1.5
51 4.2
52 4.2
53 1.18
54 0.9
63 2.4
64 5.5
65 2.73
66 6.1
76 1.8
77 7.9
78 0.39
79.5 1.2
90 0.9
91 5.8
92 7.73
93 14.5
94 0.9
103 0.9
104 0.61
105 1.1
118 1.5
119 28.8
120 0.21
131 4.8
132 36.4
133 3.3
149 0.09
158 1.8
159 24.2
160 90.9
161 0.97
175 0.6
176 13.3
177 1.2
186 0.15
187 99.99
188 13.6
189 1.5
204 0.58
205 0.3
231 0.3
232 90.9
233 1.27
234 0.9

$$$$

     RDKit          2D

 17 18  0  0  0  0  0  0  0  0999 V2000
    7.7962   -0.7508    0.0000 C   0  0  0  0  0  0  0  0  0  0  0  0
   -3.8989   -1.5002    0.0000 C   0  0  0  0  0  0  0  0  0  0  0  0
    6.4970   -1.5006    0.0000 C   0  0  0  0  0  0  0  0  0  0  0  0
   -2.6000    0.7500    0.0000 C   0  0  0  0  0  0  0  0  0  0  0  0
   -1.3000    1.5000    0.0000 C   0  0  0  0  0  0  0  0  0  0  0  0
    2.6000    0.7500    0.0000 C   0  0  0  0  0  0  0  0  0  0  0  0
   -1.3000   -1.5000    0.0000 C   0  0  0  0  0  0  0  0  0  0  0  0
   -2.6000   -0.7500    0.0000 C   0  0  0  0  0  0  0  0  0  0  0  0
    2.6000   -0.7500    0.0000 C   0  0  0  0  0  0  0  0  0  0  0  0
    0.0000    0.7500    0.0000 C   0  0  0  0  0  0  0  0  0  0  0  0
    1.3000   -1.5000    0.0000 C   0  0  0  0  0  0  0  0  0  0  0  0
    3.8989   -1.5002    0.0000 C   0  0  0  0  0  0  0  0  0  0  0  0
    1.3000    1.5000    0.0000 N   0  0  0  0  0  0  0  0  0  0  0  0
    0.0000   -0.7500    0.0000 N   0  0  0  0  0  0  0  0  0  0  0  0
    1.3000   -3.0000    0.0000 O   0  0  0  0  0  0  0  0  0  0  0  0
    3.8987   -3.0002    0.0000 O   0  0  0  0  0  0  0  0  0  0  0  0
    5.1981   -0.7504    0.0000 O   0  0  0  0  0  0  0  0  0  0  0  0
  3  1  1  0
  5  4  2  0
  8  2  1  0
  8  4  1  0
  8  7  2  0
  9  6  2  0
 10  5  1  0
 11  9  1  0
 12  9  1  0
 13  6  1  0
 13 10  2  0
 14  7  1  0
 14 10  1  0
 14 11  1  0
 15 11  2  0
 16 12  2  0
 17  3  1  0
 17 12  1  0
M  END
>  <NAME>  (4989) 
7-METHYL-4-OXO-4H-PYRIDO(1,2-A)PYRIMIDINE-3-CARBOXYLIC ACID ETHYL ESTER

>  <SYNONYMS>  (4989) 


>  <SPECTRUM TYPE>  (4989) 
MS1

>  <INSTRUMENT TYPE>  (4989) 
EI-B

>  <INSTRUMENT>  (4989) 
MS-902

>  <ION MODE>  (4989) 
P

>  <INCHIKEY>  (4989) 
LVRKSDQLEQQBHH-UHFFFAOYSA-N

>  <FORMULA>  (4989) 
C12H12N2O3

>  <EXACT MASS>  (4989) 
232.084792244

>  <MW>  (4989) 
232

>  <ID>  (4989) 
JP004489

>  <CONTRIBUTOR>  (4989) 
University of Tokyo Team, {Faculty of Engineering, University of Tokyo

>  <COMMENT>  (4989) 
SMILES=CCOC(=O)C(=C1)C(=O)N(C=2)C(C=CC(C)2)=N1
InChI=InChI=1S/C12H12N2O3/c1-3-17-12(16)9-6-13-10-5-4-8(2)7-14(10)11(9)15/h4-7H,3H2,1-2H3
computed SMILES=O=C(OCC)C1=CN=C2C=CC(=CN2C1=O)C
accession=JP004489
date=2016.01.19 (Created 2008.10.21, modified 2011.05.06)
author=SASAKI S, TOYOHASHI UNIV. OF TECH.
license=CC BY-NC-SA
exact mass=232.08479
ionization energy=70 eV
ion type=[M]+*
computed spectral entropy=2.7270224222949193
computed normalized entropy=0.6935766427682071
SPLASH=splash10-01ql-4930000000-1263d82811b506b1d5d6
submitter=submitter = University of Tokyo Team (Faculty of Engineering, University of Tokyo)
MoNA Rating=3.75

>  <NUM PEAKS>  (4989) 
51

>  <MASS SPECTRAL PEAKS>  (4989) 
39 11.2
41 2.1
43 1.4
44 0.11
50 1.4
51 5.3
52 6.7
53 1.54
54 1.1
63 3.2
64 4.9
65 3.51
66 7.4
68 1.1
76 2.1
77 0.98
78 4.6
79 1.1
79.5 1.1
90 0.11
91 4.2
92 73.7
93 16.8
93.5 0.11
94 1.1
103 1.6
104 6
105 0.18
118 1.8
119 26.3
120 1.8
131 0.42
132 42.1
133 4.2
158 2.1
159 2.63
160 80.7
161 8.4
176 15.1
177 0.14
186 1.1
187 93
188 11.6
189 0.18
203 0.4
204 3.9
205 0.4
231 0.18
232 99.99
233 14
234 1.4

$$$$

     RDKit          2D

 17 18  0  0  0  0  0  0  0  0999 V2000
    7.7962    0.7508    0.0000 C   0  0  0  0  0  0  0  0  0  0  0  0
   -1.3000    3.0000    0.0000 C   0  0  0  0  0  0  0  0  0  0  0  0
    6.4970    1.5006    0.0000 C   0  0  0  0  0  0  0  0  0  0  0  0
   -2.6000   -0.7500    0.0000 C   0  0  0  0  0  0  0  0  0  0  0  0
   -2.6000    0.7500    0.0000 C   0  0  0  0  0  0  0  0  0  0  0  0
   -1.3000   -1.5000    0.0000 C   0  0  0  0  0  0  0  0  0  0  0  0
    2.6000   -0.7500    0.0000 C   0  0  0  0  0  0  0  0  0  0  0  0
   -1.3000    1.5000    0.0000 C   0  0  0  0  0  0  0  0  0  0  0  0
    2.6000    0.7500    0.0000 C   0  0  0  0  0  0  0  0  0  0  0  0
    0.0000   -0.7500    0.0000 C   0  0  0  0  0  0  0  0  0  0  0  0
    1.3000    1.5000    0.0000 C   0  0  0  0  0  0  0  0  0  0  0  0
    3.8989    1.5002    0.0000 C   0  0  0  0  0  0  0  0  0  0  0  0
    1.3000   -1.5000    0.0000 N   0  0  0  0  0  0  0  0  0  0  0  0
    0.0000    0.7500    0.0000 N   0  0  0  0  0  0  0  0  0  0  0  0
    1.3000    3.0000    0.0000 O   0  0  0  0  0  0  0  0  0  0  0  0
    3.8987    3.0002    0.0000 O   0  0  0  0  0  0  0  0  0  0  0  0
    5.1981    0.7504    0.0000 O   0  0  0  0  0  0  0  0  0  0  0  0
  3  1  1  0
  5  4  1  0
  6  4  2  0
  8  2  1  0
  8  5  2  0
  9  7  2  0
 10  6  1  0
 11  9  1  0
 12  9  1  0
 13  7  1  0
 13 10  2  0
 14  8  1  0
 14 10  1  0
 14 11  1  0
 15 11  2  0
 16 12  2  0
 17  3  1  0
 17 12  1  0
M  END
>  <NAME>  (4990) 
6-METHYL-4-OXO-4H-PYRIDO(1,2-A)PYRIMIDINE-3-CARBOXYLIC ACID ETHYL ESTER

>  <SYNONYMS>  (4990) 


>  <SPECTRUM TYPE>  (4990) 
MS1

>  <INSTRUMENT TYPE>  (4990) 
EI-B

>  <INSTRUMENT>  (4990) 
MS-902

>  <ION MODE>  (4990) 
P

>  <INCHIKEY>  (4990) 
ZLYHSYOPYSDSHB-UHFFFAOYSA-N

>  <FORMULA>  (4990) 
C12H12N2O3

>  <EXACT MASS>  (4990) 
232.08479224399997

>  <MW>  (4990) 
232

>  <ID>  (4990) 
JP004488

>  <CONTRIBUTOR>  (4990) 
University of Tokyo Team, {Faculty of Engineering, University of Tokyo

>  <COMMENT>  (4990) 
SMILES=CCOC(=O)C(=C1)C(=O)N(C(C)=2)C(C=CC2)=N1
InChI=InChI=1S/C12H12N2O3/c1-3-17-12(16)9-7-13-10-6-4-5-8(2)14(10)11(9)15/h4-7H,3H2,1-2H3
computed SMILES=O=C(OCC)C1=CN=C2C=CC=C(N2C1=O)C
accession=JP004488
date=2016.01.19 (Created 2008.10.21, modified 2011.05.06)
author=SASAKI S, TOYOHASHI UNIV. OF TECH.
license=CC BY-NC-SA
exact mass=232.08479
ionization energy=70 eV
ion type=[M]+*
computed spectral entropy=2.4684293502083943
computed normalized entropy=0.6647048464038714
SPLASH=splash10-0a4u-4910000000-ef3a3541fd339e60685d
submitter=submitter = University of Tokyo Team (Faculty of Engineering, University of Tokyo)
MoNA Rating=3.75

>  <NUM PEAKS>  (4990) 
41

>  <MASS SPECTRAL PEAKS>  (4990) 
39 6.1
51 2
52 1.5
53 0.49
63 1.6
64 3.2
65 20.7
66 0.44
77 3.2
78 2
79 8
79.5 0.12
91 5.1
92 42.7
93 12.2
103 0.07
104 2
105 0.7
119 7.8
120 0.05
130 3.2
131 4.1
132 2
133 0.2
143 1.2
147 1.7
158 99.99
159 1.83
160 2.7
161 0.4
175 0.7
176 0.07
186 53.7
187 18.3
188 2
189 0.04
203 1.1
204 0.5
232 24.4
233 0.32
234 0.4

$$$$

     RDKit          2D

 17 18  0  0  0  0  0  0  0  0999 V2000
    7.8091    3.0481    0.0000 C   0  0  0  0  0  0  0  0  0  0  0  0
    2.5913    3.0002    0.0000 C   0  0  0  0  0  0  0  0  0  0  0  0
    3.8727    0.7567    0.0000 C   0  0  0  0  0  0  0  0  0  0  0  0
    3.8575    3.7566    0.0000 C   0  0  0  0  0  0  0  0  0  0  0  0
    5.2189    1.5135    0.0000 C   0  0  0  0  0  0  0  0  0  0  0  0
   -0.0000   -1.5000    0.0000 C   0  0  0  0  0  0  0  0  0  0  0  0
   -1.3000    0.7500    0.0000 C   0  0  0  0  0  0  0  0  0  0  0  0
    2.5989    1.5002    0.0000 C   0  0  0  0  0  0  0  0  0  0  0  0
   -1.3000   -0.7500    0.0000 C   0  0  0  0  0  0  0  0  0  0  0  0
    5.2113    3.0135    0.0000 C   0  0  0  0  0  0  0  0  0  0  0  0
    1.3000    0.7500    0.0000 C   0  0  0  0  0  0  0  0  0  0  0  0
    1.3000   -0.7500    0.0000 N   0  0  0  0  0  0  0  0  0  0  0  0
    0.0000    1.5000    0.0000 N   0  0  0  0  0  0  0  0  0  0  0  0
   -2.5989   -1.5002    0.0000 N   0  0  0  0  0  0  0  0  0  0  0  0
   -2.5987   -3.0002    0.0000 O   0  0  0  0  0  0  0  0  0  0  0  0
   -3.8981   -0.7504    0.0000 O   0  0  0  0  0  0  0  0  0  0  0  0
    6.5002    3.7808    0.0000 O   0  0  0  0  0  0  0  0  0  0  0  0
  4  2  2  0
  5  3  1  0
  8  2  1  0
  8  3  2  0
  9  6  2  0
  9  7  1  0
 10  4  1  0
 10  5  2  0
 11  8  1  0
 12  6  1  0
 12 11  2  0
 13  7  2  0
 13 11  1  0
 14  9  1  0
 15 14  1  0
 16 14  2  0
 17  1  1  0
 17 10  1  0
M  CHG  2  14   1  15  -1
M  END
>  <NAME>  (4991) 
2-(4-METHOXYPHENYL)-5-NITROPYRIMIDINE

>  <SYNONYMS>  (4991) 


>  <SPECTRUM TYPE>  (4991) 
MS1

>  <INSTRUMENT TYPE>  (4991) 
EI-B

>  <INSTRUMENT>  (4991) 
MS-902

>  <ION MODE>  (4991) 
P

>  <INCHIKEY>  (4991) 
JLTGSEDKVYQMJR-UHFFFAOYSA-N

>  <FORMULA>  (4991) 
C11H9N3O3

>  <EXACT MASS>  (4991) 
231.06439114799997

>  <MW>  (4991) 
231

>  <ID>  (4991) 
JP004487

>  <CONTRIBUTOR>  (4991) 
University of Tokyo Team, {Faculty of Engineering, University of Tokyo

>  <COMMENT>  (4991) 
SMILES=COc(c2)ccc(c2)c(n1)ncc([N+1]([O-1])=O)c1
InChI=InChI=1S/C11H9N3O3/c1-17-10-4-2-8(3-5-10)11-12-6-9(7-13-11)14(15)16/h2-7H,1H3
computed SMILES=O=N(=O)C1=CN=C(N=C1)C=2C=CC(OC)=CC2
accession=JP004487
date=2016.01.19 (Created 2008.10.21, modified 2011.05.06)
author=SASAKI S, TOYOHASHI UNIV. OF TECH.
license=CC BY-NC-SA
exact mass=231.06439
ionization energy=70 eV
ion type=[M]+*
computed spectral entropy=3.0472791779589397
computed normalized entropy=0.6755429145058781
SPLASH=splash10-001i-5980000000-e85f879e42dd3f225680
submitter=submitter = University of Tokyo Team (Faculty of Engineering, University of Tokyo)
MoNA Rating=3.75

>  <NUM PEAKS>  (4991) 
91

>  <MASS SPECTRAL PEAKS>  (4991) 
38 1.4
39 3.2
40 1.1
41 0.38
42 3
43 2.4
44 2.7
45 0.1
50 2.1
51 1.8
52 1.8
53 0.1
54 1.1
55 2.3
56 1.3
57 0.38
59 0.3
60 1.5
61 0.4
62 0.12
63 3.5
64 3.8
65 2.7
66 0.03
67 0.7
68 0.4
69 1.7
70 0.54
71 3.6
72 1.6
73 1.5
74 0.09
75 1.4
76 2.7
77 7.3
78 0.17
79 1.5
80 0.9
81 0.9
82 0.06
83 0.9
84 0.4
85 1
87 0.04
88 0.5
89 0.6
90 3
91 0.35
92 3.2
93 0.6
94 0.4
95 0.06
96 0.3
97 1
102 1.6
103 0.38
104 1.1
105 0.8
106 0.4
107 0.43
108 1.1
111 0.6
113 0.3
114 0.05
115 1.8
116 0.5
117 1
118 0.11
119 5.4
133 11.4
134 32.4
135 0.22
142 1.9
143 0.6
146 1.8
149 0.76
150 23.8
151 2.7
158 14.5
159 0.12
170 3.2
171 1
172 0.4
173 0.2
174 0.9
179 0.9
185 15.2
187 0.1
201 2.7
231 99.99
232 10.8

$$$$

     RDKit          2D

 15 15  0  0  0  0  0  0  0  0999 V2000
    3.8978    0.5493    0.0000 C   0  0  0  0  0  0  0  0  0  0  0  0
    2.5984    2.7991    0.0000 C   0  0  0  0  0  0  0  0  0  0  0  0
   -5.9474   -0.4028    0.0000 C   0  0  0  0  0  0  0  0  0  0  0  0
   -2.5983    1.2985    0.0000 C   0  0  0  0  0  0  0  0  0  0  0  0
   -1.2983   -0.9515    0.0000 C   0  0  0  0  0  0  0  0  0  0  0  0
    1.2998    0.5489    0.0000 C   0  0  0  0  0  0  0  0  0  0  0  0
   -1.2983    0.5485    0.0000 C   0  0  0  0  0  0  0  0  0  0  0  0
   -3.8983   -0.9515    0.0000 C   0  0  0  0  0  0  0  0  0  0  0  0
   -3.8983    0.5485    0.0000 N   0  0  0  0  0  0  0  0  0  0  0  0
   -2.5983   -1.7015    0.0000 N   0  0  0  0  0  0  0  0  0  0  0  0
    0.0006    1.2987    0.0000 N   0  0  0  0  0  0  0  0  0  0  0  0
    2.5987    1.2991    0.0000 N   0  0  0  0  0  0  0  0  0  0  0  0
   -6.4962   -2.4519    0.0000 O   0  0  0  0  0  0  0  0  0  0  0  0
   -4.4470   -3.0006    0.0000 O   0  0  0  0  0  0  0  0  0  0  0  0
   -5.1972   -1.7017    0.0000 S   0  0  0  0  0  0  0  0  0  0  0  0
  7  4  2  0
  7  5  1  0
  9  4  1  0
  9  8  2  0
 10  5  2  0
 10  8  1  0
  6 11  2  0
 11  7  1  0
 12  1  1  0
 12  2  1  0
 12  6  1  0
 15  3  1  0
 15  8  1  0
 15 13  2  0
 15 14  2  0
M  END
>  <NAME>  (4992) 
5-DIMETHYLAMINOMETHYLENEAMINO-2-MESYLPYRIMIDINE

>  <SYNONYMS>  (4992) 


>  <SPECTRUM TYPE>  (4992) 
MS1

>  <INSTRUMENT TYPE>  (4992) 
EI-B

>  <INSTRUMENT>  (4992) 
MS-902

>  <ION MODE>  (4992) 
P

>  <INCHIKEY>  (4992) 
NAYHQVNVFIYDAF-IZZDOVSWSA-N

>  <FORMULA>  (4992) 
C8H12N4O2S

>  <EXACT MASS>  (4992) 
228.06809662400002

>  <MW>  (4992) 
228

>  <ID>  (4992) 
JP004486

>  <CONTRIBUTOR>  (4992) 
University of Tokyo Team, {Faculty of Engineering, University of Tokyo

>  <COMMENT>  (4992) 
SMILES=CN(C)C=Nc(c1)cnc(n1)S(C)(=O)=O
InChI=InChI=1S/C8H12N4O2S/c1-12(2)6-11-7-4-9-8(10-5-7)15(3,13)14/h4-6H,1-3H3/b11-6+
computed SMILES=O=S(=O)(C1=NC=C(N=CN(C)C)C=N1)C
accession=JP004486
date=2016.01.19 (Created 2008.10.21, modified 2011.05.06)
author=SASAKI S, TOYOHASHI UNIV. OF TECH.
license=CC BY-NC-SA
exact mass=228.0681
ionization energy=70 eV
ion type=[M]+*
computed spectral entropy=3.0134226734253104
computed normalized entropy=0.6410882375672473
SPLASH=splash10-002f-9360000000-3f53a84579b81f5b8921
submitter=submitter = University of Tokyo Team (Faculty of Engineering, University of Tokyo)
MoNA Rating=3.75

>  <NUM PEAKS>  (4992) 
110

>  <MASS SPECTRAL PEAKS>  (4992) 
38 0.3
39 0.5
40 1.2
41 0.26
42 25.8
43 3
44 99.99
45 0.49
46 1.4
47 0.3
48 0.7
51 0.17
52 4.2
53 1.6
54 2.2
55 0.1
56 4.1
57 13.4
58 0.7
63 0.13
64 0.9
65 0.5
66 0.9
67 0.21
68 1.2
69 1
70 0.3
71 0.16
74 0.5
76 0.2
77 2.9
78 0.26
79 8
80 1.8
81 3.8
82 0.08
83 2.3
84 0.6
91 0.1
92 0.02
93 0.9
94 1.3
95 4.9
96 0.07
97 0.4
104 0.2
105 0.5
106 0.17
107 2.6
108 8
109 1.9
110 0.18
111 0.4
119 0.3
120 1.1
121 0.22
122 9.7
123 1.2
124 3.1
125 0.02
126 0.2
132 1.3
133 1.1
134 0.19
135 0.6
136 0.8
137 0.5
138 0.7
139 0.5
147 1.2
148 6.3
149 3.48
150 3.7
151 0.6
154 0.2
158 0.05
160 0.2
163 1.1
164 0.8
165 1.61
166 1.6
170 0.2
172 2.1
173 0.03
174 0.1
181 0.2
184 0.6
185 0.02
186 0.4
187 3.4
188 0.3
189 0.02
196 0.8
197 0.4
198 3.4
199 0.06
200 4.3
201 1.3
202 0.3
211 0.03
212 6.1
213 3.9
214 0.7
215 0.02
226 1
227 29.5
228 78.7
229 1.34
230 4.8
231 0.5

$$$$

     RDKit          2D

 16 17  0  0  0  0  0  0  0  0999 V2000
    7.7962    0.7508    0.0000 C   0  0  0  0  0  0  0  0  0  0  0  0
    6.4970    1.5006    0.0000 C   0  0  0  0  0  0  0  0  0  0  0  0
   -2.6000   -0.7500    0.0000 C   0  0  0  0  0  0  0  0  0  0  0  0
   -2.6000    0.7500    0.0000 C   0  0  0  0  0  0  0  0  0  0  0  0
   -1.3000   -1.5000    0.0000 C   0  0  0  0  0  0  0  0  0  0  0  0
   -1.3000    1.5000    0.0000 C   0  0  0  0  0  0  0  0  0  0  0  0
    2.6000   -0.7500    0.0000 C   0  0  0  0  0  0  0  0  0  0  0  0
    2.6000    0.7500    0.0000 C   0  0  0  0  0  0  0  0  0  0  0  0
    0.0000   -0.7500    0.0000 C   0  0  0  0  0  0  0  0  0  0  0  0
    1.3000    1.5000    0.0000 C   0  0  0  0  0  0  0  0  0  0  0  0
    3.8989    1.5002    0.0000 C   0  0  0  0  0  0  0  0  0  0  0  0
    1.3000   -1.5000    0.0000 N   0  0  0  0  0  0  0  0  0  0  0  0
    0.0000    0.7500    0.0000 N   0  0  0  0  0  0  0  0  0  0  0  0
    1.3000    3.0000    0.0000 O   0  0  0  0  0  0  0  0  0  0  0  0
    3.8987    3.0002    0.0000 O   0  0  0  0  0  0  0  0  0  0  0  0
    5.1981    0.7504    0.0000 O   0  0  0  0  0  0  0  0  0  0  0  0
  2  1  1  0
  4  3  1  0
  5  3  1  0
  6  4  1  0
  8  7  2  0
  9  5  1  0
 10  8  1  0
 11  8  1  0
 12  7  1  0
 12  9  1  0
 13  6  1  0
 13  9  1  0
 13 10  1  0
 14 10  2  0
 15 11  2  0
 16  2  1  0
 16 11  1  0
M  END
>  <NAME>  (4993) 
4-OXO-1,6,7,8,9,9A-HEXAHYDRO-4H-PYRIDO(1,2-A)PYRIMIDINE-3-CARBOXYLIC ACID ETHYL ESTER

>  <SYNONYMS>  (4993) 


>  <SPECTRUM TYPE>  (4993) 
MS1

>  <INSTRUMENT TYPE>  (4993) 
EI-B

>  <INSTRUMENT>  (4993) 
MS-902

>  <ION MODE>  (4993) 
P

>  <INCHIKEY>  (4993) 
SVKDPZQTITZACV-UHFFFAOYSA-N

>  <FORMULA>  (4993) 
C11H16N2O3

>  <EXACT MASS>  (4993) 
224.11609237199997

>  <MW>  (4993) 
224

>  <ID>  (4993) 
JP004485

>  <CONTRIBUTOR>  (4993) 
University of Tokyo Team, {Faculty of Engineering, University of Tokyo

>  <COMMENT>  (4993) 
SMILES=CCOC(=O)C(=C1)C(=O)N(C2)C(CCC2)N1
InChI=InChI=1S/C11H16N2O3/c1-2-16-11(15)8-7-12-9-5-3-4-6-13(9)10(8)14/h7,9,12H,2-6H2,1H3
computed SMILES=O=C(OCC)C1=CNC2N(C1=O)CCCC2
license=CC BY-NC-SA
accession=JP004485
date=2016.01.19 (Created 2008.10.21, modified 2011.05.06)
author=SASAKI S, TOYOHASHI UNIV. OF TECH.
exact mass=224.11609
ionization energy=70 eV
ion type=[M]+*
computed spectral entropy=2.9959999910812636
computed normalized entropy=0.8568550012872567
SPLASH=splash10-00di-6940000000-3fba702ab459b286d46b
submitter=submitter = University of Tokyo Team (Faculty of Engineering, University of Tokyo)
MoNA Rating=3.75

>  <NUM PEAKS>  (4993) 
33

>  <MASS SPECTRAL PEAKS>  (4993) 
54 10
55 50
68 15
69 1.5
70 20
82 15
83 95
84 2
95 10
96 90
97 10
114 0.6
122 40
123 50
124 35
136 0.6
140 18
141 5
142 15
150 4.5
151 70
152 7
168 10
169 2.3
177 55
178 19
179 30
182 1
195 25
196 24
223 90
224 99.99
225 15

$$$$

     RDKit          2D

 16 17  0  0  0  0  0  0  0  0999 V2000
   -1.3000    3.0000    0.0000 C   0  0  0  0  0  0  0  0  0  0  0  0
    1.3000   -3.0000    0.0000 C   0  0  0  0  0  0  0  0  0  0  0  0
   -2.6000   -0.7500    0.0000 C   0  0  0  0  0  0  0  0  0  0  0  0
   -2.6000    0.7500    0.0000 C   0  0  0  0  0  0  0  0  0  0  0  0
   -1.3000   -1.5000    0.0000 C   0  0  0  0  0  0  0  0  0  0  0  0
    2.6000   -0.7500    0.0000 C   0  0  0  0  0  0  0  0  0  0  0  0
   -1.3000    1.5000    0.0000 C   0  0  0  0  0  0  0  0  0  0  0  0
    2.6000    0.7500    0.0000 C   0  0  0  0  0  0  0  0  0  0  0  0
    0.0000   -0.7500    0.0000 C   0  0  0  0  0  0  0  0  0  0  0  0
    1.3000    1.5000    0.0000 C   0  0  0  0  0  0  0  0  0  0  0  0
    3.8989    1.5002    0.0000 C   0  0  0  0  0  0  0  0  0  0  0  0
    1.3000   -1.5000    0.0000 N   0  0  0  0  0  0  0  0  0  0  0  0
    0.0000    0.7500    0.0000 N   0  0  0  0  0  0  0  0  0  0  0  0
    1.3000    3.0000    0.0000 O   0  0  0  0  0  0  0  0  0  0  0  0
    3.8987    3.0002    0.0000 O   0  0  0  0  0  0  0  0  0  0  0  0
    5.1981    0.7504    0.0000 O   0  0  0  0  0  0  0  0  0  0  0  0
  4  3  1  0
  5  3  1  0
  7  1  1  0
  7  4  1  0
  8  6  2  0
  9  5  2  0
 10  8  1  0
 11  8  1  0
 12  2  1  0
 12  6  1  0
 12  9  1  0
 13  7  1  0
 13  9  1  0
 13 10  1  0
 14 10  2  0
 15 11  2  0
 16 11  1  0
M  END
>  <NAME>  (4994) 
1,6-DIMETHYL-4-OXO-7,8-DIHYDRO-1H,4H,6H-PYRIDO(1,2-A)PYRIMIDINE-3-CARBOXYLIC ACID

>  <SYNONYMS>  (4994) 


>  <SPECTRUM TYPE>  (4994) 
MS1

>  <INSTRUMENT TYPE>  (4994) 
EI-B

>  <INSTRUMENT>  (4994) 
MX-1303

>  <ION MODE>  (4994) 
P

>  <INCHIKEY>  (4994) 
FVBPWWTWFCTXFK-UHFFFAOYSA-N

>  <FORMULA>  (4994) 
C11H14N2O3

>  <EXACT MASS>  (4994) 
222.100442308

>  <MW>  (4994) 
222

>  <ID>  (4994) 
JP004484

>  <CONTRIBUTOR>  (4994) 
University of Tokyo Team, {Faculty of Engineering, University of Tokyo

>  <COMMENT>  (4994) 
SMILES=OC(=O)C(=C([H])1)C(=O)N(C(C)2)C(=C([H])CC2)N(C)1
InChI=InChI=1S/C11H14N2O3/c1-7-4-3-5-9-12(2)6-8(11(15)16)10(14)13(7)9/h5-7H,3-4H2,1-2H3,(H,15,16)
computed SMILES=O=C(O)C1=CN(C2=CCCC(N2C1=O)C)C
accession=JP004484
date=2016.01.19 (Created 2008.10.21, modified 2011.05.06)
author=SASAKI S, TOYOHASHI UNIV. OF TECH.
license=CC BY-NC-SA
exact mass=222.10044
ionization energy=70 eV
ion type=[M]+*
computed spectral entropy=2.383396104790653
computed normalized entropy=0.6877027481711094
SPLASH=splash10-00di-1490000000-08a5bfb9074efc0ed233
submitter=submitter = University of Tokyo Team (Faculty of Engineering, University of Tokyo)
MoNA Rating=3.75

>  <NUM PEAKS>  (4994) 
32

>  <MASS SPECTRAL PEAKS>  (4994) 
53 4
54 5
82 2
83 0.2
94 3
95 3
96 2
99 0.2
102 3
108 3
109 2
110 0.9
122 3
135 3
136 4
148 0.6
149 9
150 5
163 14
164 0.2
168 2
177 12
178 2
181 0.4
189 2
193 6
203 3
204 0.3
207 10
221 13
222 99.99
223 10

$$$$

     RDKit          2D

 16 17  0  0  0  0  0  0  0  0999 V2000
    7.7962    0.7508    0.0000 C   0  0  0  0  0  0  0  0  0  0  0  0
    6.4970    1.5006    0.0000 C   0  0  0  0  0  0  0  0  0  0  0  0
   -2.6000   -0.7500    0.0000 C   0  0  0  0  0  0  0  0  0  0  0  0
   -2.6000    0.7500    0.0000 C   0  0  0  0  0  0  0  0  0  0  0  0
   -1.3000   -1.5000    0.0000 C   0  0  0  0  0  0  0  0  0  0  0  0
   -1.3000    1.5000    0.0000 C   0  0  0  0  0  0  0  0  0  0  0  0
    2.6000   -0.7500    0.0000 C   0  0  0  0  0  0  0  0  0  0  0  0
    2.6000    0.7500    0.0000 C   0  0  0  0  0  0  0  0  0  0  0  0
    0.0000   -0.7500    0.0000 C   0  0  0  0  0  0  0  0  0  0  0  0
    1.3000    1.5000    0.0000 C   0  0  0  0  0  0  0  0  0  0  0  0
    3.8989    1.5002    0.0000 C   0  0  0  0  0  0  0  0  0  0  0  0
    1.3000   -1.5000    0.0000 N   0  0  0  0  0  0  0  0  0  0  0  0
    0.0000    0.7500    0.0000 N   0  0  0  0  0  0  0  0  0  0  0  0
    1.3000    3.0000    0.0000 O   0  0  0  0  0  0  0  0  0  0  0  0
    3.8987    3.0002    0.0000 O   0  0  0  0  0  0  0  0  0  0  0  0
    5.1981    0.7504    0.0000 O   0  0  0  0  0  0  0  0  0  0  0  0
  2  1  1  0
  4  3  1  0
  5  3  1  0
  6  4  1  0
  8  7  2  0
  9  5  1  0
 10  8  1  0
 11  8  1  0
 12  7  1  0
 12  9  2  0
 13  6  1  0
 13  9  1  0
 13 10  1  0
 14 10  2  0
 15 11  2  0
 16  2  1  0
 16 11  1  0
M  END
>  <NAME>  (4995) 
4-OXO-6,7,8,9-TETRAHYDRO-4H-PYRIDO(1,2-A)PYRIMIDINE-3-CARBOXYLIC ACID ETHYL ESTER

>  <SYNONYMS>  (4995) 


>  <SPECTRUM TYPE>  (4995) 
MS1

>  <INSTRUMENT TYPE>  (4995) 
EI-B

>  <INSTRUMENT>  (4995) 
MS-902

>  <ION MODE>  (4995) 
P

>  <INCHIKEY>  (4995) 
GRBTZPKCTXIBMP-UHFFFAOYSA-N

>  <FORMULA>  (4995) 
C11H14N2O3

>  <EXACT MASS>  (4995) 
222.10044230799997

>  <MW>  (4995) 
222

>  <ID>  (4995) 
JP004483

>  <CONTRIBUTOR>  (4995) 
University of Tokyo Team, {Faculty of Engineering, University of Tokyo

>  <COMMENT>  (4995) 
SMILES=CCOC(=O)C(=C1)C(=O)N(C2)C(CCC2)=N1
InChI=InChI=1S/C11H14N2O3/c1-2-16-11(15)8-7-12-9-5-3-4-6-13(9)10(8)14/h7H,2-6H2,1H3
computed SMILES=O=C(OCC)C1=CN=C2N(C1=O)CCCC2
accession=JP004483
date=2016.01.19 (Created 2008.10.21, modified 2011.05.06)
author=SASAKI S, TOYOHASHI UNIV. OF TECH.
license=CC BY-NC-SA
exact mass=222.10044
ionization energy=70 eV
ion type=[M]+*
computed spectral entropy=1.7096099162046219
computed normalized entropy=0.6478108288969462
SPLASH=splash10-0udi-2900000000-648117fab40dd1f6f72f
submitter=submitter = University of Tokyo Team (Faculty of Engineering, University of Tokyo)
MoNA Rating=3.75

>  <NUM PEAKS>  (4995) 
14

>  <MASS SPECTRAL PEAKS>  (4995) 
53 10
55 15
67 8
82 2.5
148 3
149 5
150 99.99
151 1
161 1.5
165 1
176 15
177 7
222 12
223 2

$$$$

     RDKit          2D

 16 17  0  0  0  0  0  0  0  0999 V2000
   -1.3000    3.0000    0.0000 C   0  0  0  0  0  0  0  0  0  0  0  0
   -2.6000   -0.7500    0.0000 C   0  0  0  0  0  0  0  0  0  0  0  0
   -2.6000    0.7500    0.0000 C   0  0  0  0  0  0  0  0  0  0  0  0
   -1.3000   -1.5000    0.0000 C   0  0  0  0  0  0  0  0  0  0  0  0
    3.8989    1.5002    0.0000 C   0  0  0  0  0  0  0  0  0  0  0  0
    2.6000   -0.7500    0.0000 C   0  0  0  0  0  0  0  0  0  0  0  0
   -1.3000    1.5000    0.0000 C   0  0  0  0  0  0  0  0  0  0  0  0
    2.6000    0.7500    0.0000 C   0  0  0  0  0  0  0  0  0  0  0  0
    0.0000   -0.7500    0.0000 C   0  0  0  0  0  0  0  0  0  0  0  0
    5.1981    0.7504    0.0000 C   0  0  0  0  0  0  0  0  0  0  0  0
    1.3000    1.5000    0.0000 C   0  0  0  0  0  0  0  0  0  0  0  0
    1.3000   -1.5000    0.0000 N   0  0  0  0  0  0  0  0  0  0  0  0
    0.0000    0.7500    0.0000 N   0  0  0  0  0  0  0  0  0  0  0  0
    5.1983   -0.7496    0.0000 O   0  0  0  0  0  0  0  0  0  0  0  0
    6.4970    1.5006    0.0000 O   0  0  0  0  0  0  0  0  0  0  0  0
    1.3000    3.0000    0.0000 O   0  0  0  0  0  0  0  0  0  0  0  0
  3  2  1  0
  4  2  1  0
  7  1  1  0
  7  3  1  0
  8  5  1  0
  8  6  2  0
  9  4  1  0
 10  5  1  0
 11  8  1  0
 12  6  1  0
 12  9  2  0
 13  7  1  0
 13  9  1  0
 13 11  1  0
 14 10  2  0
 15 10  1  0
 16 11  2  0
M  END
>  <NAME>  (4996) 
6-METHYL-4-OXO-6,7,8,9-TETRAHYDRO-4H-PYRIDO(1,2-A)PYRIMIDINE-3-ACETIC ACID

>  <SYNONYMS>  (4996) 


>  <SPECTRUM TYPE>  (4996) 
MS1

>  <INSTRUMENT TYPE>  (4996) 
EI-B

>  <INSTRUMENT>  (4996) 
MS-902

>  <ION MODE>  (4996) 
P

>  <INCHIKEY>  (4996) 
QNQLQKRDBLQOEZ-UHFFFAOYSA-N

>  <FORMULA>  (4996) 
C11H14N2O3

>  <EXACT MASS>  (4996) 
222.10044230799997

>  <MW>  (4996) 
222

>  <ID>  (4996) 
JP004482

>  <CONTRIBUTOR>  (4996) 
University of Tokyo Team, {Faculty of Engineering, University of Tokyo

>  <COMMENT>  (4996) 
SMILES=OC(=O)CC(=C1)C(=O)N(C(C)2)C(CCC2)=N1
cas=54554-63-1
InChI=InChI=1S/C11H14N2O3/c1-7-3-2-4-9-12-6-8(5-10(14)15)11(16)13(7)9/h6-7H,2-5H2,1H3,(H,14,15)
computed SMILES=O=C(O)CC1=CN=C2N(C1=O)C(C)CCC2
accession=JP004482
date=2016.01.19 (Created 2008.10.21, modified 2011.05.06)
author=SASAKI S, TOYOHASHI UNIV. OF TECH.
license=CC BY-NC-SA
exact mass=222.10044
ionization energy=70 eV
ion type=[M]+*
computed spectral entropy=2.939304025510921
computed normalized entropy=0.7814803613470898
SPLASH=splash10-004i-3900000000-fbb11482f5927e8c3a6f
submitter=submitter = University of Tokyo Team (Faculty of Engineering, University of Tokyo)
MoNA Rating=3.75

>  <NUM PEAKS>  (4996) 
43

>  <MASS SPECTRAL PEAKS>  (4996) 
39 23.3
41 21.7
42 6
44 0.43
53 7.3
54 11
55 30
67 0.57
69 5.3
79 4.7
80 5
82 1.33
94 3.7
95 4
96 6
108 0.33
122 14
123 33.3
124 40
133 0.43
135 16.7
136 7.7
137 3.7
147 0.47
148 4
149 10
150 8.3
161 0.73
162 2
163 28.3
164 3.2
175 0.87
176 16.7
177 48.3
178 99.99
179 1.2
180 1.2
189 1.2
204 2.3
205 0.13
221 1
222 3
223 0.5

$$$$

     RDKit          2D

 16 17  0  0  0  0  0  0  0  0999 V2000
   -1.3000    3.0000    0.0000 C   0  0  0  0  0  0  0  0  0  0  0  0
    1.3000   -3.0000    0.0000 C   0  0  0  0  0  0  0  0  0  0  0  0
   -2.6000   -0.7500    0.0000 C   0  0  0  0  0  0  0  0  0  0  0  0
   -2.6000    0.7500    0.0000 C   0  0  0  0  0  0  0  0  0  0  0  0
   -1.3000   -1.5000    0.0000 C   0  0  0  0  0  0  0  0  0  0  0  0
    2.6000   -0.7500    0.0000 C   0  0  0  0  0  0  0  0  0  0  0  0
   -1.3000    1.5000    0.0000 C   0  0  0  0  0  0  0  0  0  0  0  0
    2.6000    0.7500    0.0000 C   0  0  0  0  0  0  0  0  0  0  0  0
    0.0000   -0.7500    0.0000 C   0  0  0  0  0  0  0  0  0  0  0  0
    3.8989    1.5002    0.0000 C   0  0  0  0  0  0  0  0  0  0  0  0
    1.3000    1.5000    0.0000 C   0  0  0  0  0  0  0  0  0  0  0  0
    5.1981    0.7504    0.0000 N   0  0  0  0  0  0  0  0  0  0  0  0
    1.3000   -1.5000    0.0000 N   0  0  0  0  0  0  0  0  0  0  0  0
    0.0000    0.7500    0.0000 N   0  0  0  0  0  0  0  0  0  0  0  0
    3.8987    3.0002    0.0000 O   0  0  0  0  0  0  0  0  0  0  0  0
    1.3000    3.0000    0.0000 O   0  0  0  0  0  0  0  0  0  0  0  0
  4  3  1  0
  5  3  1  0
  7  1  1  0
  7  4  1  0
  8  6  2  0
  9  5  2  0
 10  8  1  0
 11  8  1  0
 12 10  2  0
 13  2  1  0
 13  6  1  0
 13  9  1  0
 14  7  1  0
 14  9  1  0
 14 11  1  0
 15 10  1  0
 16 11  2  0
M  END
>  <NAME>  (4997) 
1,6-DIMETHYL-4-OXO-7,8-DIHYDRO-1H,4H,6H-PYRIDO(1,2-A)PYRIMIDINE-3-CARBOXAMIDE

>  <SYNONYMS>  (4997) 


>  <SPECTRUM TYPE>  (4997) 
MS1

>  <INSTRUMENT TYPE>  (4997) 
EI-B

>  <INSTRUMENT>  (4997) 
MS-902

>  <ION MODE>  (4997) 
P

>  <INCHIKEY>  (4997) 
OVTCEDCBXAYKQZ-UHFFFAOYSA-N

>  <FORMULA>  (4997) 
C11H15N3O2

>  <EXACT MASS>  (4997) 
221.11642672

>  <MW>  (4997) 
221

>  <ID>  (4997) 
JP004481

>  <CONTRIBUTOR>  (4997) 
University of Tokyo Team, {Faculty of Engineering, University of Tokyo

>  <COMMENT>  (4997) 
SMILES=NC(=O)C(=C([H])1)C(=O)N(C(C)2)C(=C([H])CC2)N(C)1
InChI=InChI=1S/C11H15N3O2/c1-7-4-3-5-9-13(2)6-8(10(12)15)11(16)14(7)9/h5-7H,3-4H2,1-2H3,(H2,12,15)
computed SMILES=O=C1C(=CN(C2=CCCC(N12)C)C)C(=N)O
accession=JP004481
date=2016.01.19 (Created 2008.10.21, modified 2011.05.06)
author=SASAKI S, TOYOHASHI UNIV. OF TECH.
license=CC BY-NC-SA
exact mass=221.11643
ionization energy=70 eV
ion type=[M]+*
computed spectral entropy=2.360852549047434
computed normalized entropy=0.7246109872732899
SPLASH=splash10-00di-1390000000-1d99424473e92c7d7c84
submitter=submitter = University of Tokyo Team (Faculty of Engineering, University of Tokyo)
MoNA Rating=3.75

>  <NUM PEAKS>  (4997) 
26

>  <MASS SPECTRAL PEAKS>  (4997) 
66 3
79 3
81 7
93 0.3
94 3
97 9
101 3
109 1
135 10
147 9.5
148 9
149 0.75
162 6.7
166 6
174 4
175 0.3
177 4
179 4
188 6
191 0.6
203 8
204 3
206 17
220 3
221 99.99
222 15

$$$$

     RDKit          2D

 16 17  0  0  0  0  0  0  0  0999 V2000
    7.7962    0.7508    0.0000 C   0  0  0  0  0  0  0  0  0  0  0  0
    6.4970    1.5006    0.0000 C   0  0  0  0  0  0  0  0  0  0  0  0
   -2.6000   -0.7500    0.0000 C   0  0  0  0  0  0  0  0  0  0  0  0
   -2.6000    0.7500    0.0000 C   0  0  0  0  0  0  0  0  0  0  0  0
   -1.3000   -1.5000    0.0000 C   0  0  0  0  0  0  0  0  0  0  0  0
   -1.3000    1.5000    0.0000 C   0  0  0  0  0  0  0  0  0  0  0  0
    2.6000   -0.7500    0.0000 C   0  0  0  0  0  0  0  0  0  0  0  0
    2.6000    0.7500    0.0000 C   0  0  0  0  0  0  0  0  0  0  0  0
    0.0000   -0.7500    0.0000 C   0  0  0  0  0  0  0  0  0  0  0  0
    1.3000    1.5000    0.0000 C   0  0  0  0  0  0  0  0  0  0  0  0
    3.8989    1.5002    0.0000 C   0  0  0  0  0  0  0  0  0  0  0  0
    1.3000   -1.5000    0.0000 N   0  0  0  0  0  0  0  0  0  0  0  0
    0.0000    0.7500    0.0000 N   0  0  0  0  0  0  0  0  0  0  0  0
    1.3000    3.0000    0.0000 O   0  0  0  0  0  0  0  0  0  0  0  0
    3.8987    3.0002    0.0000 O   0  0  0  0  0  0  0  0  0  0  0  0
    5.1981    0.7504    0.0000 O   0  0  0  0  0  0  0  0  0  0  0  0
  2  1  1  0
  4  3  1  0
  5  3  2  0
  6  4  2  0
  8  7  2  0
  9  5  1  0
 10  8  1  0
 11  8  1  0
 12  7  1  0
 12  9  2  0
 13  6  1  0
 13  9  1  0
 13 10  1  0
 14 10  2  0
 15 11  2  0
 16  2  1  0
 16 11  1  0
M  END
>  <NAME>  (4998) 
4-OXO-4H-PYRIDO(1,2-A)PYRIMIDINE-3-CARBOXYLIC ACID ETHYL ESTER

>  <SYNONYMS>  (4998) 


>  <SPECTRUM TYPE>  (4998) 
MS1

>  <INSTRUMENT TYPE>  (4998) 
EI-B

>  <INSTRUMENT>  (4998) 
MS-902

>  <ION MODE>  (4998) 
P

>  <INCHIKEY>  (4998) 
LURYFDMBWJWDQH-UHFFFAOYSA-N

>  <FORMULA>  (4998) 
C11H10N2O3

>  <EXACT MASS>  (4998) 
218.06914218

>  <MW>  (4998) 
218

>  <ID>  (4998) 
JP004480

>  <CONTRIBUTOR>  (4998) 
University of Tokyo Team, {Faculty of Engineering, University of Tokyo

>  <COMMENT>  (4998) 
SMILES=CCOC(=O)C(=C1)C(=O)N(C=2)C(C=CC2)=N1
InChI=InChI=1S/C11H10N2O3/c1-2-16-11(15)8-7-12-9-5-3-4-6-13(9)10(8)14/h3-7H,2H2,1H3
computed SMILES=O=C(OCC)C1=CN=C2C=CC=CN2C1=O
accession=JP004480
date=2016.01.19 (Created 2008.10.21, modified 2011.05.06)
author=SASAKI S, TOYOHASHI UNIV. OF TECH.
license=CC BY-NC-SA
exact mass=218.06914
ionization energy=70 eV
ion type=[M]+*
computed spectral entropy=2.619062820079882
computed normalized entropy=0.7052678049693074
SPLASH=splash10-01dj-5920000000-62aad06f8f1bc860a4dd
submitter=submitter = University of Tokyo Team (Faculty of Engineering, University of Tokyo)
MoNA Rating=3.75

>  <NUM PEAKS>  (4998) 
41

>  <MASS SPECTRAL PEAKS>  (4998) 
39 8.2
50 3.2
51 19.1
52 0.91
53 16.2
63 6.5
64 5
65 0.15
66 2.9
67 0.9
68 0.9
72.5 0.12
76 1.8
77 2.6
78 99.99
79 2.06
80 0.9
90 12.4
91 3.2
104 0.09
105 39.7
106 2.4
116 0.3
117 0.47
118 41.2
119 3.8
144 2.4
145 3.24
146 86.8
147 8.8
162 16.2
163 0.18
172 0.6
173 88.2
174 12.4
175 0.18
190 7.4
191 1.8
218 69.1
219 0.88
220 0.6

$$$$

     RDKit          2D

 16 17  0  0  0  0  0  0  0  0999 V2000
   -1.3000    3.0000    0.0000 C   0  0  0  0  0  0  0  0  0  0  0  0
   -2.6000   -0.7500    0.0000 C   0  0  0  0  0  0  0  0  0  0  0  0
   -2.6000    0.7500    0.0000 C   0  0  0  0  0  0  0  0  0  0  0  0
   -1.3000   -1.5000    0.0000 C   0  0  0  0  0  0  0  0  0  0  0  0
    3.8989    1.5002    0.0000 C   0  0  0  0  0  0  0  0  0  0  0  0
    2.6000   -0.7500    0.0000 C   0  0  0  0  0  0  0  0  0  0  0  0
   -1.3000    1.5000    0.0000 C   0  0  0  0  0  0  0  0  0  0  0  0
    2.6000    0.7500    0.0000 C   0  0  0  0  0  0  0  0  0  0  0  0
    0.0000   -0.7500    0.0000 C   0  0  0  0  0  0  0  0  0  0  0  0
    5.1981    0.7504    0.0000 C   0  0  0  0  0  0  0  0  0  0  0  0
    1.3000    1.5000    0.0000 C   0  0  0  0  0  0  0  0  0  0  0  0
    1.3000   -1.5000    0.0000 N   0  0  0  0  0  0  0  0  0  0  0  0
    0.0000    0.7500    0.0000 N   0  0  0  0  0  0  0  0  0  0  0  0
    5.1983   -0.7496    0.0000 O   0  0  0  0  0  0  0  0  0  0  0  0
    6.4970    1.5006    0.0000 O   0  0  0  0  0  0  0  0  0  0  0  0
    1.3000    3.0000    0.0000 O   0  0  0  0  0  0  0  0  0  0  0  0
  3  2  1  0
  4  2  2  0
  7  1  1  0
  7  3  2  0
  8  5  1  0
  8  6  2  0
  9  4  1  0
 10  5  1  0
 11  8  1  0
 12  6  1  0
 12  9  2  0
 13  7  1  0
 13  9  1  0
 13 11  1  0
 14 10  2  0
 15 10  1  0
 16 11  2  0
M  END
>  <NAME>  (4999) 
6-METHYL-4-OXO-4H-PYRIDO(1,2-A)PYRIMIDINE-3-ACETIC ACID

>  <SYNONYMS>  (4999) 


>  <SPECTRUM TYPE>  (4999) 
MS1

>  <INSTRUMENT TYPE>  (4999) 
EI-B

>  <INSTRUMENT>  (4999) 
MS-902

>  <ION MODE>  (4999) 
P

>  <INCHIKEY>  (4999) 
XIXNFCBRYVASGT-UHFFFAOYSA-N

>  <FORMULA>  (4999) 
C11H10N2O3

>  <EXACT MASS>  (4999) 
218.06914217999997

>  <MW>  (4999) 
218

>  <ID>  (4999) 
JP004479

>  <CONTRIBUTOR>  (4999) 
University of Tokyo Team, {Faculty of Engineering, University of Tokyo

>  <COMMENT>  (4999) 
SMILES=OC(=O)CC(=C1)C(=O)N(C(C)=2)C(C=CC2)=N1
InChI=InChI=1S/C11H10N2O3/c1-7-3-2-4-9-12-6-8(5-10(14)15)11(16)13(7)9/h2-4,6H,5H2,1H3,(H,14,15)
computed SMILES=O=C(O)CC1=CN=C2C=CC=C(N2C1=O)C
accession=JP004479
date=2016.01.19 (Created 2008.10.21, modified 2011.05.06)
author=SASAKI S, TOYOHASHI UNIV. OF TECH.
license=CC BY-NC-SA
exact mass=218.06914
ionization energy=70 eV
ion type=[M]+*
computed spectral entropy=3.130146181243915
computed normalized entropy=0.7645048270058415
SPLASH=splash10-00xr-6920000000-0d69537282cf696cbad0
submitter=submitter = University of Tokyo Team (Faculty of Engineering, University of Tokyo)
MoNA Rating=3.75

>  <NUM PEAKS>  (4999) 
60

>  <MASS SPECTRAL PEAKS>  (4999) 
38 5.5
39 28.9
40 3.8
41 0.45
42 2.4
43 2.1
44 6.4
45 0.42
50 2.9
51 4.2
52 5.5
53 0.41
54 3.1
55 14.8
57 2.4
60 0.17
63 4.5
64 7.6
65 41.4
66 1.14
67 2.1
69 8.9
72 2.8
72.5 0.31
73 1.7
75 1
76 2.1
77 0.24
78 2.1
81 1.4
91 8.3
92 8.62
93 24.1
94 2.1
95 1.7
116 0.14
117 3.6
118 3.3
119 12.4
120 0.17
131 2.8
143 12.4
144 4.8
145 5.17
146 31
147 3.4
159 2.8
171 0.12
172 31
173 99.99
174 51.7
175 0.62
176 0.8
189 2.4
200 7.2
201 0.14
217 1.4
218 62.1
219 14.1
220 1.4

$$$$

     RDKit          2D

 16 17  0  0  0  0  0  0  0  0999 V2000
    7.4707    0.1859    0.0000 C   0  0  0  0  0  0  0  0  0  0  0  0
    6.1716    2.4359    0.0000 C   0  0  0  0  0  0  0  0  0  0  0  0
   -0.3253    3.1806    0.0000 C   0  0  0  0  0  0  0  0  0  0  0  0
    0.9726    2.4287    0.0000 C   0  0  0  0  0  0  0  0  0  0  0  0
   -1.6209    2.4404    0.0000 C   0  0  0  0  0  0  0  0  0  0  0  0
    4.8731   -1.3150    0.0000 C   0  0  0  0  0  0  0  0  0  0  0  0
    3.5740   -2.0650    0.0000 C   0  0  0  0  0  0  0  0  0  0  0  0
   -0.3258    0.1876    0.0000 C   0  0  0  0  0  0  0  0  0  0  0  0
    0.9749    0.9365    0.0000 C   0  0  0  0  0  0  0  0  0  0  0  0
   -1.6237    0.9396    0.0000 C   0  0  0  0  0  0  0  0  0  0  0  0
    4.8726    0.1859    0.0000 C   0  0  0  0  0  0  0  0  0  0  0  0
    2.2740    0.1867    0.0000 C   0  0  0  0  0  0  0  0  0  0  0  0
   -2.9240    0.1918    0.0000 F   0  0  0  0  0  0  0  0  0  0  0  0
    2.2745   -1.3141    0.0000 N   0  0  0  0  0  0  0  0  0  0  0  0
    3.5731    0.9367    0.0000 N   0  0  0  0  0  0  0  0  0  0  0  0
    6.1716    0.9359    0.0000 N   0  0  0  0  0  0  0  0  0  0  0  0
  4  3  2  0
  5  3  1  0
  7  6  2  0
  9  4  1  0
  9  8  2  0
 10  5  2  0
 10  8  1  0
 11  6  1  0
 12  9  1  0
 13 10  1  0
 14  7  1  0
 14 12  2  0
 15 11  2  0
 15 12  1  0
 16  1  1  0
 16  2  1  0
 16 11  1  0
M  END
>  <NAME>  (5000) 
4-DIMETHYLAMINO-2-(3-FLUOROPHENYL)PYRIMIDINE

>  <SYNONYMS>  (5000) 


>  <SPECTRUM TYPE>  (5000) 
MS1

>  <INSTRUMENT TYPE>  (5000) 
EI-B

>  <INSTRUMENT>  (5000) 
MS-902

>  <ION MODE>  (5000) 
P

>  <INCHIKEY>  (5000) 
MCSYTOGAMSREKT-UHFFFAOYSA-N

>  <FORMULA>  (5000) 
C12H12FN3

>  <EXACT MASS>  (5000) 
217.10152560400002

>  <MW>  (5000) 
217

>  <ID>  (5000) 
JP004478

>  <CONTRIBUTOR>  (5000) 
University of Tokyo Team, {Faculty of Engineering, University of Tokyo

>  <COMMENT>  (5000) 
SMILES=CN(C)c(c2)nc(nc2)c(c1)cc(F)cc1
InChI=InChI=1S/C12H12FN3/c1-16(2)11-6-7-14-12(15-11)9-4-3-5-10(13)8-9/h3-8H,1-2H3
computed SMILES=FC1=CC=CC(=C1)C2=NC=CC(=N2)N(C)C
accession=JP004478
date=2016.01.19 (Created 2008.10.21, modified 2011.05.06)
author=SASAKI S, TOYOHASHI UNIV. OF TECH.
license=CC BY-NC-SA
exact mass=217.10153
ionization energy=70 eV
ion type=[M]+*
computed spectral entropy=2.422177168919056
computed normalized entropy=0.6759214086817703
SPLASH=splash10-01bi-1970000000-e5c6778287ee067e576c
submitter=submitter = University of Tokyo Team (Faculty of Engineering, University of Tokyo)
MoNA Rating=3.75

>  <NUM PEAKS>  (5000) 
36

>  <MASS SPECTRAL PEAKS>  (5000) 
67 4
68 2.4
69 1.1
70 0.06
75 2.8
80 1.6
81 8.4
87 0.09
94 2.8
95 9.8
96 0.6
98.5 0.14
100.5 1.1
107.5 0.6
108 5.2
108.5 0.7
121 5.2
122 39
123 1.7
133 0.08
136 0.9
146 5.2
147 4.2
161 0.07
173 25.9
174 17.1
175 3.7
187 0.12
188 83.2
189 9.8
202 49.7
203 0.63
204 0.5
216 2.5
217 99.99
218 12.9

$$$$

     RDKit          2D

 16 17  0  0  0  0  0  0  0  0999 V2000
    7.7957   -1.5004    0.0000 C   0  0  0  0  0  0  0  0  0  0  0  0
    6.4966    0.7496    0.0000 C   0  0  0  0  0  0  0  0  0  0  0  0
    0.0008   -1.4998    0.0000 C   0  0  0  0  0  0  0  0  0  0  0  0
    1.2994    0.7510    0.0000 C   0  0  0  0  0  0  0  0  0  0  0  0
   -1.2987   -0.7490    0.0000 C   0  0  0  0  0  0  0  0  0  0  0  0
   -0.0001    1.5019    0.0000 C   0  0  0  0  0  0  0  0  0  0  0  0
    5.1981   -3.0012    0.0000 C   0  0  0  0  0  0  0  0  0  0  0  0
    3.8990   -3.7512    0.0000 C   0  0  0  0  0  0  0  0  0  0  0  0
    1.2999   -0.7498    0.0000 C   0  0  0  0  0  0  0  0  0  0  0  0
   -1.2992    0.7519    0.0000 C   0  0  0  0  0  0  0  0  0  0  0  0
    5.1976   -1.5004    0.0000 C   0  0  0  0  0  0  0  0  0  0  0  0
    2.5990   -1.4996    0.0000 C   0  0  0  0  0  0  0  0  0  0  0  0
   -2.5983    1.5017    0.0000 F   0  0  0  0  0  0  0  0  0  0  0  0
    2.5995   -3.0004    0.0000 N   0  0  0  0  0  0  0  0  0  0  0  0
    3.8981   -0.7496    0.0000 N   0  0  0  0  0  0  0  0  0  0  0  0
    6.4966   -0.7504    0.0000 N   0  0  0  0  0  0  0  0  0  0  0  0
  5  3  2  0
  6  4  1  0
  8  7  2  0
  9  3  1  0
  9  4  2  0
 10  5  1  0
 10  6  2  0
 11  7  1  0
 12  9  1  0
 13 10  1  0
 14  8  1  0
 14 12  2  0
 15 11  2  0
 15 12  1  0
 16  1  1  0
 16  2  1  0
 16 11  1  0
M  END
>  <NAME>  (5001) 
4-DIMETHYLAMINO-2-(4-FLUOROPHENYL)PYRIMIDINE

>  <SYNONYMS>  (5001) 


>  <SPECTRUM TYPE>  (5001) 
MS1

>  <INSTRUMENT TYPE>  (5001) 
EI-B

>  <INSTRUMENT>  (5001) 
MS-902

>  <ION MODE>  (5001) 
P

>  <INCHIKEY>  (5001) 
ZOWCHJPRKFSBHL-UHFFFAOYSA-N

>  <FORMULA>  (5001) 
C12H12FN3

>  <EXACT MASS>  (5001) 
217.10152560400002

>  <MW>  (5001) 
217

>  <ID>  (5001) 
JP004477

>  <CONTRIBUTOR>  (5001) 
University of Tokyo Team, {Faculty of Engineering, University of Tokyo

>  <COMMENT>  (5001) 
SMILES=CN(C)c(c2)nc(nc2)c(c1)ccc(F)c1
InChI=InChI=1S/C12H12FN3/c1-16(2)11-7-8-14-12(15-11)9-3-5-10(13)6-4-9/h3-8H,1-2H3
computed SMILES=FC=1C=CC(=CC1)C2=NC=CC(=N2)N(C)C
accession=JP004477
date=2016.01.19 (Created 2008.10.21, modified 2011.05.06)
author=SASAKI S, TOYOHASHI UNIV. OF TECH.
license=CC BY-NC-SA
exact mass=217.10153
ionization energy=70 eV
ion type=[M]+*
computed spectral entropy=2.5785978618213443
computed normalized entropy=0.6660976411598426
SPLASH=splash10-0gi9-3970000000-72b5814cbb2b843401a8
submitter=submitter = University of Tokyo Team (Faculty of Engineering, University of Tokyo)
MoNA Rating=3.75

>  <NUM PEAKS>  (5001) 
48

>  <MASS SPECTRAL PEAKS>  (5001) 
52 9.1
53 14.1
54 6.2
55 0.06
57 0.9
66 0.9
67 5.9
68 0.35
69 1.8
70 0.9
73 0.7
75 0.36
80 2.2
81 7.3
83 0.7
87 0.3
87.5 0.7
94 3.7
95 11.8
96 0.1
98.5 0.7
100.5 1.4
101 0.6
102 0.14
108 4.9
108.5 9.6
109 0.6
121 0.74
122 35.7
123 4.2
133 1.6
134 0.05
148 1
161 0.9
173 36.2
174 2.05
175 3.6
187 1.3
188 92.7
189 1
190 1.3
202 47.6
203 6.7
204 0.05
216 2.6
217 99.99
218 13.8
219 0.7

$$$$

     RDKit          2D

 16 17  0  0  0  0  0  0  0  0999 V2000
    6.4962   -0.7509    0.0000 C   0  0  0  0  0  0  0  0  0  0  0  0
    5.1975   -3.0011    0.0000 C   0  0  0  0  0  0  0  0  0  0  0  0
    0.0003   -3.0005    0.0000 C   0  0  0  0  0  0  0  0  0  0  0  0
   -1.2993   -0.7503    0.0000 C   0  0  0  0  0  0  0  0  0  0  0  0
   -1.2998   -3.7503    0.0000 C   0  0  0  0  0  0  0  0  0  0  0  0
   -2.5995   -1.5001    0.0000 C   0  0  0  0  0  0  0  0  0  0  0  0
    1.2991    0.7503    0.0000 C   0  0  0  0  0  0  0  0  0  0  0  0
    2.5981    1.5003    0.0000 C   0  0  0  0  0  0  0  0  0  0  0  0
    0.0005   -1.5005    0.0000 C   0  0  0  0  0  0  0  0  0  0  0  0
   -2.5997   -3.0001    0.0000 C   0  0  0  0  0  0  0  0  0  0  0  0
    1.2996   -0.7505    0.0000 C   0  0  0  0  0  0  0  0  0  0  0  0
    3.8981   -0.7514    0.0000 C   0  0  0  0  0  0  0  0  0  0  0  0
   -3.8987   -3.7501    0.0000 F   0  0  0  0  0  0  0  0  0  0  0  0
    3.8977    0.7495    0.0000 N   0  0  0  0  0  0  0  0  0  0  0  0
    2.5991   -1.5014    0.0000 N   0  0  0  0  0  0  0  0  0  0  0  0
    5.1973   -1.5011    0.0000 N   0  0  0  0  0  0  0  0  0  0  0  0
  5  3  2  0
  6  4  1  0
  8  7  2  0
  9  3  1  0
  9  4  2  0
 10  5  1  0
 10  6  2  0
 11  7  1  0
 11  9  1  0
 13 10  1  0
 14  8  1  0
 14 12  2  0
 15 11  2  0
 15 12  1  0
 16  1  1  0
 16  2  1  0
 16 12  1  0
M  END
>  <NAME>  (5002) 
2-DIMETHYLAMINO-4-(4-FLUOROPHENYL)PYRIMIDINE

>  <SYNONYMS>  (5002) 


>  <SPECTRUM TYPE>  (5002) 
MS1

>  <INSTRUMENT TYPE>  (5002) 
EI-B

>  <INSTRUMENT>  (5002) 
MS-902

>  <ION MODE>  (5002) 
P

>  <INCHIKEY>  (5002) 
HWSMMLHOCMQSRL-UHFFFAOYSA-N

>  <FORMULA>  (5002) 
C12H12FN3

>  <EXACT MASS>  (5002) 
217.101525604

>  <MW>  (5002) 
217

>  <ID>  (5002) 
JP004476

>  <CONTRIBUTOR>  (5002) 
University of Tokyo Team, {Faculty of Engineering, University of Tokyo

>  <COMMENT>  (5002) 
SMILES=Fc(c2)ccc(c2)c(c1)nc(nc1)N(C)C
InChI=InChI=1S/C12H12FN3/c1-16(2)12-14-8-7-11(15-12)9-3-5-10(13)6-4-9/h3-8H,1-2H3
computed SMILES=FC=1C=CC(=CC1)C2=NC(=NC=C2)N(C)C
accession=JP004476
date=2016.01.19 (Created 2008.10.21, modified 2011.05.06)
author=SASAKI S, TOYOHASHI UNIV. OF TECH.
license=CC BY-NC-SA
exact mass=217.10153
ionization energy=70 eV
ion type=[M]+*
computed spectral entropy=3.2486155054468075
computed normalized entropy=0.6545873883778376
SPLASH=splash10-0fe0-2930000000-e4a16aad4612739734dc
submitter=submitter = University of Tokyo Team (Faculty of Engineering, University of Tokyo)
MoNA Rating=3.75

>  <NUM PEAKS>  (5002) 
143

>  <MASS SPECTRAL PEAKS>  (5002) 
30 0.7
31 0.3
32 8.2
36 0.11
37 0.3
38 0.4
39 0.8
40 0.14
41 1.9
42 8
43 2
44 3.19
45 2
50 1.3
51 1.6
52 0.15
53 4.2
54 0.7
55 2
56 0.05
57 1.6
58 0.2
59 0.2
60 0.03
61 0.3
62 0.5
63 0.6
64 0.03
65 0.5
66 0.3
67 1
68 0.05
69 3
70 1.8
71 1.4
73 0.03
74 2.2
75 4.6
76 11
77 1.16
78 0.6
79 2
80 1.1
81 0.12
82 0.7
83 0.7
84 0.5
85 0.06
86 0.3
87 1.7
88 0.5
89 0.02
91 0.5
92 0.5
93 0.8
94 0.28
95 6.6
96 1.1
97 0.3
98 0.03
99 1.8
100 1.5
101 11.4
102 0.11
103 0.5
104 0.3
105 0.3
106 0.08
107 1.1
108 2
109 5.6
110 0.01
111 0.2
113 0.2
115 0.1
116 0.02
118 0.8
119 1.2
120 8.8
121 1.59
122 5.3
123 0.5
124 0.2
125 0.02
126 3.4
127 0.6
128 0.7
129 0.03
131 0.3
132 0.5
133 3.7
134 0.08
135 0.2
136 0.6
137 0.1
138 0.02
141 0.1
145 1.2
146 6
147 1.8
148 3.6
149 0.5
153 0.6
154 0.03
155 1.5
156 0.7
157 0.1
158 0.03
159 0.02
160 0.5
161 0.3
162 0.3
163 0.02
165 0.2
169 0.2
170 1.3
171 0.07
172 0.5
173 50.4
174 34.9
175 0.74
176 0.8
184 0.1
185 0.2
186 0.02
187 2.5
188 99.99
189 11.9
190 0.08
198 0.1
199 0.3
200 0.3
201 0.06
202 71.2
203 8.6
204 0.6
211 0.19
214 0.3
215 0.2
216 8.2
217 9.7
218 12.9
219 1

$$$$

     RDKit          2D

 16 17  0  0  0  0  0  0  0  0999 V2000
   -2.9227   -5.0643    0.0000 C   0  0  0  0  0  0  0  0  0  0  0  0
   -1.6235   -5.8141    0.0000 C   0  0  0  0  0  0  0  0  0  0  0  0
    0.9747   -1.3114    0.0000 C   0  0  0  0  0  0  0  0  0  0  0  0
    2.2737   -0.5614    0.0000 C   0  0  0  0  0  0  0  0  0  0  0  0
   -1.6230   -2.8124    0.0000 C   0  0  0  0  0  0  0  0  0  0  0  0
    3.5737   -2.8131    0.0000 C   0  0  0  0  0  0  0  0  0  0  0  0
   -2.9224   -3.5635    0.0000 C   0  0  0  0  0  0  0  0  0  0  0  0
   -0.3239   -3.5622    0.0000 C   0  0  0  0  0  0  0  0  0  0  0  0
    0.9752   -2.8122    0.0000 C   0  0  0  0  0  0  0  0  0  0  0  0
   -0.3241   -5.0631    0.0000 C   0  0  0  0  0  0  0  0  0  0  0  0
    3.5732   -1.3122    0.0000 N   0  0  0  0  0  0  0  0  0  0  0  0
    2.2747   -3.5631    0.0000 N   0  0  0  0  0  0  0  0  0  0  0  0
   -4.2216   -2.8137    0.0000 N   0  0  0  0  0  0  0  0  0  0  0  0
    0.9750   -5.8129    0.0000 O   0  0  0  0  0  0  0  0  0  0  0  0
   -5.5205   -3.5639    0.0000 O   0  0  0  0  0  0  0  0  0  0  0  0
   -4.2218   -1.3137    0.0000 O   0  0  0  0  0  0  0  0  0  0  0  0
  2  1  2  0
  4  3  2  0
  7  1  1  0
  7  5  2  0
  8  5  1  0
  9  3  1  0
  9  8  1  0
 10  2  1  0
 10  8  2  0
 11  4  1  0
 11  6  2  0
 12  6  1  0
 12  9  2  0
 13  7  1  0
 14 10  1  0
 15 13  1  0
 16 13  2  0
M  CHG  2  13   1  15  -1
M  END
>  <NAME>  (5003) 
4-(2-HYDROXY-5-NITROPHENYL)PYRIMIDINE

>  <SYNONYMS>  (5003) 
4-NITRO-2-(4-PYRIMIDINYL)PHENOL

>  <SPECTRUM TYPE>  (5003) 
MS1

>  <INSTRUMENT TYPE>  (5003) 
EI-B

>  <INSTRUMENT>  (5003) 
MS-902

>  <ION MODE>  (5003) 
P

>  <INCHIKEY>  (5003) 
BCOZEBFOJIVOOU-UHFFFAOYSA-N

>  <FORMULA>  (5003) 
C10H7N3O3

>  <EXACT MASS>  (5003) 
217.04874108399997

>  <MW>  (5003) 
217

>  <ID>  (5003) 
JP004475

>  <CONTRIBUTOR>  (5003) 
University of Tokyo Team, {Faculty of Engineering, University of Tokyo

>  <COMMENT>  (5003) 
SMILES=[O-1][N+1](=O)c(c2)cc(c(O)c2)c(c1)ncnc1
InChI=InChI=1S/C10H7N3O3/c14-10-2-1-7(13(15)16)5-8(10)9-3-4-11-6-12-9/h1-6,14H
computed SMILES=O=N(=O)C=1C=CC(O)=C(C1)C=2N=CN=CC2
accession=JP004475
date=2016.01.19 (Created 2008.10.21, modified 2011.05.06)
author=SASAKI S, TOYOHASHI UNIV. OF TECH.
license=CC BY-NC-SA
exact mass=217.04874
ionization energy=70 eV
ion type=[M]+*
computed spectral entropy=2.3575295310281095
computed normalized entropy=0.6123218574739845
SPLASH=splash10-014i-3490000000-eebfebbd5f8d49b2a1a5
submitter=submitter = University of Tokyo Team (Faculty of Engineering, University of Tokyo)
MoNA Rating=3.75

>  <NUM PEAKS>  (5003) 
47

>  <MASS SPECTRAL PEAKS>  (5003) 
53 2.4
54 1.5
61 0.8
62 0.37
63 8.1
64 1.5
65 1.4
66 0.07
71 1.4
71.5 0.9
74 0.9
75 0.1
77 1.4
78 1.5
79 3.9
80 0.09
83 2.2
85 1.3
86 1
87 0.14
88 2
89 8.8
90 3.5
91 0.08
92 0.5
104 0.8
105 2.8
115 0.14
116 10.3
117 2.2
118 0.7
131 0.14
141 0.8
142 4.4
143 13.3
144 0.27
149 0.7
159 0.8
170 1.4
171 0.55
172 1
187 11.4
188 1.4
215 0.07
216 2.4
217 99.99
218 10.5

$$$$

     RDKit          2D

 16 17  0  0  0  0  0  0  0  0999 V2000
    6.1703    0.1880    0.0000 C   0  0  0  0  0  0  0  0  0  0  0  0
    4.8707    0.9389    0.0000 C   0  0  0  0  0  0  0  0  0  0  0  0
    6.1707   -1.3128    0.0000 C   0  0  0  0  0  0  0  0  0  0  0  0
    3.5717    0.1889    0.0000 C   0  0  0  0  0  0  0  0  0  0  0  0
    4.8717   -2.0628    0.0000 C   0  0  0  0  0  0  0  0  0  0  0  0
    2.2736   -3.5628    0.0000 C   0  0  0  0  0  0  0  0  0  0  0  0
    0.9746   -4.3128    0.0000 C   0  0  0  0  0  0  0  0  0  0  0  0
   -1.6246   -1.3114    0.0000 C   0  0  0  0  0  0  0  0  0  0  0  0
    3.5722   -1.3120    0.0000 C   0  0  0  0  0  0  0  0  0  0  0  0
    2.2731   -2.0620    0.0000 C   0  0  0  0  0  0  0  0  0  0  0  0
   -2.9235   -2.0616    0.0000 C   0  0  0  0  0  0  0  0  0  0  0  0
   -0.3254   -2.0611    0.0000 C   0  0  0  0  0  0  0  0  0  0  0  0
   -4.2227   -1.3118    0.0000 N   0  0  0  0  0  0  0  0  0  0  0  0
   -0.3249   -3.5620    0.0000 N   0  0  0  0  0  0  0  0  0  0  0  0
    0.9736   -1.3111    0.0000 N   0  0  0  0  0  0  0  0  0  0  0  0
   -2.9233   -3.5616    0.0000 O   0  0  0  0  0  0  0  0  0  0  0  0
  2  1  2  0
  3  1  1  0
  4  2  1  0
  5  3  2  0
  7  6  2  0
  9  4  2  0
  9  5  1  0
 10  6  1  0
 10  9  1  0
 11  8  1  0
 12  8  1  0
 13 11  2  0
 14  7  1  0
 14 12  2  0
 15 10  2  0
 15 12  1  0
 16 11  1  0
M  END
>  <NAME>  (5004) 
2-ACETAMIDO-4-PHENYLPYRIMIDINE

>  <SYNONYMS>  (5004) 


>  <SPECTRUM TYPE>  (5004) 
MS1

>  <INSTRUMENT TYPE>  (5004) 
EI-B

>  <INSTRUMENT>  (5004) 
MS-902

>  <ION MODE>  (5004) 
P

>  <INCHIKEY>  (5004) 
UAJUIJVWCSVKEA-UHFFFAOYSA-N

>  <FORMULA>  (5004) 
C12H11N3O

>  <EXACT MASS>  (5004) 
213.090211972

>  <MW>  (5004) 
213

>  <ID>  (5004) 
JP004474

>  <CONTRIBUTOR>  (5004) 
University of Tokyo Team, {Faculty of Engineering, University of Tokyo

>  <COMMENT>  (5004) 
SMILES=NC(=O)Cc(n2)nc(cc2)c(c1)cccc1
InChI=InChI=1S/C12H11N3O/c13-11(16)8-12-14-7-6-10(15-12)9-4-2-1-3-5-9/h1-7H,8H2,(H2,13,16)
computed SMILES=N=C(O)CC1=NC=CC(=N1)C=2C=CC=CC2
accession=JP004474
date=2016.01.19 (Created 2008.10.21, modified 2011.05.06)
author=SASAKI S, TOYOHASHI UNIV. OF TECH.
license=CC BY-NC-SA
exact mass=213.09021
ionization energy=70 eV
ion type=[M]+*
computed spectral entropy=3.2954628484129938
computed normalized entropy=0.6394869740985727
SPLASH=splash10-00di-3910000000-109463c66ebc987ab605
submitter=submitter = University of Tokyo Team (Faculty of Engineering, University of Tokyo)
MoNA Rating=3.75

>  <NUM PEAKS>  (5004) 
173

>  <MASS SPECTRAL PEAKS>  (5004) 
38 1.6
39 2.6
40 3.1
41 0.44
42 1.7
43 15.8
44 5.5
45 0.31
46 0.2
47 0.3
49 0.3
50 0.3
51 5.6
52 1.5
53 0.7
54 0.06
55 4.2
56 2
57 5.9
58 0.03
59 0.5
60 1.5
61 0.4
62 0.08
63 1.9
64 0.7
65 0.8
66 0.07
67 2.1
68 0.8
69 3.5
70 0.14
71 3.4
71.5 0.5
72 0.3
73 0.12
74 1.3
75 2.1
75.5 0.4
76 0.51
76.5 0.5
77 10.2
77.5 0.4
78 0.19
79 1.2
80 0.4
81 2.3
82 0.14
83 2.2
84 0.8
84.5 0.2
85 0.19
85.5 0.8
86 0.3
87 0.6
88 0.1
88.5 0.9
89 3
89.5 1
90 0.17
90.5 0.5
91 1.6
92 0.4
93 0.09
94 1.6
94.5 0.2
95 2
96 0.09
97 2.1
98 0.6
99 1.7
100 0.07
100.5 0.8
101 4
101.5 2.3
102 1.09
102.5 2.3
103 6.7
103.5 1
104 0.42
104.5 0.3
105 1.1
106 0.4
107 0.07
108 0.5
109 1.3
110 0.6
111 0.12
111.5 0.3
112 0.4
113 0.6
114 0.04
115 1
116 3.3
117 3
118 0.08
119 0.6
119.5 0.2
120 0.3
121 0.08
122 0.3
123 0.9
124 0.4
125 0.08
126 0.3
127 0.7
128 5.9
129 0.55
130 2.1
131 0.7
132 0.3
133 0.04
134 0.3
135 0.6
136 0.3
137 0.06
138 0.3
139 0.4
140 0.2
141 0.03
142 0.8
143 2.1
144 4.2
145 0.07
147 0.3
148 0.3
149 5
150 0.07
151 0.4
152 0.7
153 1
154 0.05
155 2.6
156 1.4
157 0.5
159 0.03
161 0.3
163 0.3
164 0.2
165 0.03
166 0.9
167 0.5
168 2.3
169 0.08
170 99.99
171 86
172 10.9
173 0.08
176 0.4
177 0.6
183 0.5
184 0.08
185 2
186 0.5
187 1.3
188 0.02
189 0.3
190 0.3
191 0.5
192 0.05
193 0.5
194 0.5
195 0.9
196 0.05
198 0.3
199 0.3
200 0.4
210 0.08
211 0.5
212 2.9
213 50
214 0.83
215 0.7

$$$$

     RDKit          2D

 16 18  0  0  0  0  0  0  0  0999 V2000
   -6.2068   -3.0006    0.0000 C   0  0  0  0  0  0  0  0  0  0  0  0
   -4.9071   -3.7512    0.0000 C   0  0  0  0  0  0  0  0  0  0  0  0
   -6.2075   -1.4998    0.0000 C   0  0  0  0  0  0  0  0  0  0  0  0
   -3.6082   -3.0010    0.0000 C   0  0  0  0  0  0  0  0  0  0  0  0
   -4.9086   -0.7496    0.0000 C   0  0  0  0  0  0  0  0  0  0  0  0
   -2.3100    0.7500    0.0000 C   0  0  0  0  0  0  0  0  0  0  0  0
   -1.0100    1.5000    0.0000 C   0  0  0  0  0  0  0  0  0  0  0  0
   -3.6089   -1.5002    0.0000 C   0  0  0  0  0  0  0  0  0  0  0  0
   -2.3100   -0.7500    0.0000 C   0  0  0  0  0  0  0  0  0  0  0  0
    0.2900   -0.7500    0.0000 C   0  0  0  0  0  0  0  0  0  0  0  0
    2.6000    0.0000    0.0000 C   0  0  0  0  0  0  0  0  0  0  0  0
   -1.0100   -1.5000    0.0000 N   0  0  0  0  0  0  0  0  0  0  0  0
    1.7200   -1.2100    0.0000 N   0  0  0  0  0  0  0  0  0  0  0  0
    0.2900    0.7500    0.0000 N   0  0  0  0  0  0  0  0  0  0  0  0
    4.1000   -0.0000    0.0000 O   0  0  0  0  0  0  0  0  0  0  0  0
    1.7200    1.2100    0.0000 O   0  0  0  0  0  0  0  0  0  0  0  0
  2  1  2  0
  3  1  1  0
  4  2  1  0
  5  3  2  0
  7  6  2  0
  8  4  2  0
  8  5  1  0
  9  6  1  0
  9  8  1  0
 12  9  2  0
 12 10  1  0
 13 10  2  0
 13 11  1  0
 14  7  1  0
 14 10  1  0
 15 11  2  0
 16 11  1  0
 16 14  1  0
M  END
>  <NAME>  (5005) 
5-PHENYL-2H-PYRIMIDO(1,2-B)(1,2,4)OXADIAZOL-2-ONE

>  <SYNONYMS>  (5005) 


>  <SPECTRUM TYPE>  (5005) 
MS1

>  <INSTRUMENT TYPE>  (5005) 
EI-B

>  <INSTRUMENT>  (5005) 
MS-902

>  <ION MODE>  (5005) 
P

>  <INCHIKEY>  (5005) 
LOVGUMOTBPBRIX-UHFFFAOYSA-N

>  <FORMULA>  (5005) 
C11H7N3O2

>  <EXACT MASS>  (5005) 
213.053826464

>  <MW>  (5005) 
213

>  <ID>  (5005) 
JP004473

>  <CONTRIBUTOR>  (5005) 
University of Tokyo Team, {Faculty of Engineering, University of Tokyo

>  <COMMENT>  (5005) 
SMILES=O=C(O1)N=C(N=2)N(C=CC2c(c3)cccc3)1
InChI=InChI=1S/C11H7N3O2/c15-11-13-10-12-9(6-7-14(10)16-11)8-4-2-1-3-5-8/h1-7H
computed SMILES=O=C1N=C2N=C(C=CN2O1)C=3C=CC=CC3
accession=JP004473
date=2016.01.19 (Created 2008.10.21, modified 2011.05.06)
author=SASAKI S, TOYOHASHI UNIV. OF TECH.
license=CC BY-NC-SA
exact mass=213.05383
ionization energy=70 eV
ion type=[M]+*
computed spectral entropy=3.381451231684107
computed normalized entropy=0.7100646213225124
SPLASH=splash10-03fu-9840000000-cabe09096819eb999741
submitter=submitter = University of Tokyo Team (Faculty of Engineering, University of Tokyo)
MoNA Rating=3.75

>  <NUM PEAKS>  (5005) 
117

>  <MASS SPECTRAL PEAKS>  (5005) 
36 1.2
37 0.8
38 1.9
39 0.64
40 1.9
41 3.7
42 1.2
43 0.08
44 32.4
45 1.6
46 0.7
47 0.03
49 0.6
50 9
51 26.2
52 0.36
53 3.3
54 0.5
55 0.5
56 0.05
56.5 0.4
57 1.7
57.5 3.4
58 0.04
58.5 0.2
61 1
62 2.9
63 0.66
64 3.3
65 3.2
66 3.4
67 0.11
68 0.4
69 0.3
69.5 0.2
70 0.07
70.5 0.5
73 0.4
74 3.7
75 0.53
76 8.1
77 58.6
78 5.3
79 0.03
81 0.3
83 1.8
85 1.2
85.5 0.07
86 0.5
87 1.2
88 2.8
89 0.6
90 3.4
91 2.6
92 1.4
93 1.72
94 1.3
95 0.3
98 0.5
99 0.06
100 1
101 4.4
102 8.7
103 1.19
104 3.4
105 3.8
106 0.3
106.5 0.06
109 0.2
113 2.8
114 20.5
115 2.28
116 6.2
117 2.6
118 2
119 0.28
120 0.4
121 0.3
126 0.3
127 0.18
128 7.7
129 10.3
130 1.5
131 0.02
139 0.4
140 32.8
141 7.1
142 4.83
143 7.4
144 1.7
145 0.5
146 0.03
149 0.2
153 0.4
154 0.3
155 0.86
156 1.5
157 0.3
158 0.6
159 0.02
168 5.8
169 8.1
170 25.7
171 2.59
172 2.8
173 0.2
183 0.7
186 0.07
187 1.9
188 0.2
196 0.2
197 0.05
198 0.3
212 1.4
213 99.99
214 1.47
215 1.3

$$$$

     RDKit          2D

 15 16  0  0  0  0  0  0  0  0999 V2000
   -2.6000   -0.7500    0.0000 C   0  0  0  0  0  0  0  0  0  0  0  0
   -2.6000    0.7500    0.0000 C   0  0  0  0  0  0  0  0  0  0  0  0
   -1.3000   -1.5000    0.0000 C   0  0  0  0  0  0  0  0  0  0  0  0
   -1.3000    1.5000    0.0000 C   0  0  0  0  0  0  0  0  0  0  0  0
    3.8989    1.5002    0.0000 C   0  0  0  0  0  0  0  0  0  0  0  0
    2.6000   -0.7500    0.0000 C   0  0  0  0  0  0  0  0  0  0  0  0
    2.6000    0.7500    0.0000 C   0  0  0  0  0  0  0  0  0  0  0  0
    0.0000   -0.7500    0.0000 C   0  0  0  0  0  0  0  0  0  0  0  0
    5.1981    0.7504    0.0000 C   0  0  0  0  0  0  0  0  0  0  0  0
    1.3000    1.5000    0.0000 C   0  0  0  0  0  0  0  0  0  0  0  0
    1.3000   -1.5000    0.0000 N   0  0  0  0  0  0  0  0  0  0  0  0
    0.0000    0.7500    0.0000 N   0  0  0  0  0  0  0  0  0  0  0  0
    5.1983   -0.7496    0.0000 O   0  0  0  0  0  0  0  0  0  0  0  0
    6.4970    1.5006    0.0000 O   0  0  0  0  0  0  0  0  0  0  0  0
    1.3000    3.0000    0.0000 O   0  0  0  0  0  0  0  0  0  0  0  0
  2  1  1  0
  3  1  1  0
  4  2  1  0
  7  5  1  0
  7  6  2  0
  8  3  1  0
  9  5  1  0
 10  7  1  0
 11  6  1  0
 11  8  2  0
 12  4  1  0
 12  8  1  0
 12 10  1  0
 13  9  2  0
 14  9  1  0
 15 10  2  0
M  END
>  <NAME>  (5006) 
4-OXO-6,7,8,9-TETRAHYDRO-4H-PYRIDO(1,2-A)PYRIMIDINE-3-ACETIC ACID

>  <SYNONYMS>  (5006) 


>  <SPECTRUM TYPE>  (5006) 
MS1

>  <INSTRUMENT TYPE>  (5006) 
EI-B

>  <INSTRUMENT>  (5006) 
MS-902

>  <ION MODE>  (5006) 
P

>  <INCHIKEY>  (5006) 
MIMCZKZOXPTTSU-UHFFFAOYSA-N

>  <FORMULA>  (5006) 
C10H12N2O3

>  <EXACT MASS>  (5006) 
208.084792244

>  <MW>  (5006) 
208

>  <ID>  (5006) 
JP004471

>  <CONTRIBUTOR>  (5006) 
University of Tokyo Team, {Faculty of Engineering, University of Tokyo

>  <COMMENT>  (5006) 
SMILES=OC(=O)CC(=C1)C(=O)N(C2)C(CCC2)=N1
InChI=InChI=1S/C10H12N2O3/c13-9(14)5-7-6-11-8-3-1-2-4-12(8)10(7)15/h6H,1-5H2,(H,13,14)
computed SMILES=O=C(O)CC1=CN=C2N(C1=O)CCCC2
accession=JP004471
date=2016.01.19 (Created 2008.10.21, modified 2011.05.06)
author=SASAKI S, TOYOHASHI UNIV. OF TECH.
license=CC BY-NC-SA
exact mass=208.08479
ionization energy=70 eV
ion type=[M]+*
computed spectral entropy=2.5366063600963353
computed normalized entropy=0.6876360129544067
SPLASH=splash10-03di-4900000000-3ba0cd315f5352b01873
submitter=submitter = University of Tokyo Team (Faculty of Engineering, University of Tokyo)
MoNA Rating=3.75

>  <NUM PEAKS>  (5006) 
40

>  <MASS SPECTRAL PEAKS>  (5006) 
38 2.3
39 29.7
41 10
42 0.31
44 2.8
45 2.8
52 3.9
53 0.94
54 14.1
55 25
56 2.8
67 0.28
79 3.4
80 4.4
81 3.1
82 3.28
83 3.8
84 6.9
94 2.8
108 0.31
109 2.8
122 2.2
124 4.7
133 0.38
134 3.1
135 8.4
136 3.1
137 0.44
149 17.2
150 1.9
161 2.7
162 0.56
163 99.99
164 90.6
165 9.1
188 0.14
190 1.4
191 0.6
208 3.4
209 0.6

$$$$

     RDKit          2D

 14 15  0  0  0  0  0  0  0  0999 V2000
   -1.2996   -3.0000    0.0000 C   0  0  0  0  0  0  0  0  0  0  0  0
   -2.5973   -2.2476    0.0000 C   0  0  0  0  0  0  0  0  0  0  0  0
   -0.0038   -2.2602    0.0000 C   0  0  0  0  0  0  0  0  0  0  0  0
   -1.2982   -0.0070    0.0000 C   0  0  0  0  0  0  0  0  0  0  0  0
   -3.8980    1.4948    0.0000 C   0  0  0  0  0  0  0  0  0  0  0  0
   -6.4980   -0.0052    0.0000 C   0  0  0  0  0  0  0  0  0  0  0  0
   -2.5991   -0.7554    0.0000 C   0  0  0  0  0  0  0  0  0  0  0  0
   -0.0005   -0.7594    0.0000 C   0  0  0  0  0  0  0  0  0  0  0  0
   -3.8980   -0.0052    0.0000 C   0  0  0  0  0  0  0  0  0  0  0  0
   -5.1980    2.2448    0.0000 C   0  0  0  0  0  0  0  0  0  0  0  0
   -5.1980    3.7448    0.0000 Cl  0  0  0  0  0  0  0  0  0  0  0  0
    1.3000   -0.0120    0.0000 F   0  0  0  0  0  0  0  0  0  0  0  0
   -5.1980   -0.7552    0.0000 N   0  0  0  0  0  0  0  0  0  0  0  0
   -6.4980    1.4948    0.0000 N   0  0  0  0  0  0  0  0  0  0  0  0
  2  1  2  0
  3  1  1  0
  7  2  1  0
  7  4  2  0
  8  3  2  0
  8  4  1  0
  9  5  2  0
  9  7  1  0
 10  5  1  0
 11 10  1  0
 12  8  1  0
 13  6  2  0
 13  9  1  0
 14  6  1  0
 14 10  2  0
M  END
>  <NAME>  (5007) 
4-CHLORO-6-(3-FLUOROPHENYL)PYRIMIDINE

>  <SYNONYMS>  (5007) 


>  <SPECTRUM TYPE>  (5007) 
MS1

>  <INSTRUMENT TYPE>  (5007) 
EI-B

>  <INSTRUMENT>  (5007) 
MS-902

>  <ION MODE>  (5007) 
P

>  <INCHIKEY>  (5007) 
HFGCFWZSUWARQE-UHFFFAOYSA-N

>  <FORMULA>  (5007) 
C10H6ClFN2

>  <EXACT MASS>  (5007) 
208.020354092

>  <MW>  (5007) 
208

>  <ID>  (5007) 
JP004469

>  <CONTRIBUTOR>  (5007) 
University of Tokyo Team, {Faculty of Engineering, University of Tokyo

>  <COMMENT>  (5007) 
SMILES=Fc(c2)cc(cc2)c(n1)cc(Cl)nc1
InChI=InChI=1S/C10H6ClFN2/c11-10-5-9(13-6-14-10)7-2-1-3-8(12)4-7/h1-6H
computed SMILES=FC1=CC=CC(=C1)C=2N=CN=C(Cl)C2
accession=JP004469
date=2016.01.19 (Created 2008.10.21, modified 2011.05.06)
author=SASAKI S, TOYOHASHI UNIV. OF TECH.
license=CC BY-NC-SA
exact mass=208.02035
ionization energy=70 eV
ion type=[M]+*
computed spectral entropy=2.234677760593554
computed normalized entropy=0.5836738229500358
SPLASH=splash10-0aba-1960000000-a4ae939d0feaedde7b67
submitter=submitter = University of Tokyo Team (Faculty of Engineering, University of Tokyo)
MoNA Rating=3.75

>  <NUM PEAKS>  (5007) 
46

>  <MASS SPECTRAL PEAKS>  (5007) 
52 1.8
57 1.5
60 2.7
61 0.09
62 1.3
63 1.2
68 1.2
73 0.18
73.5 0.5
74 2.4
75 5.4
86 0.13
86.5 0.6
87 1.1
88 0.5
90.5 0.18
94 5.1
95 7.6
96 0.9
98 0.05
99 3.3
104 3
118 1.5
120 0.29
121 5
122 1.7
124 0.5
126 1.76
127 1.8
128 0.5
144 0.6
145 0.33
146 61.1
147 5.1
148 0.6
153 0.15
173 89.9
174 8.8
181 0.6
183 0.06
189 0.5
207 1.9
208 99.99
209 1.13
210 31.1
211 3.2

$$$$

     RDKit          2D

 14 15  0  0  0  0  0  0  0  0999 V2000
   -3.8982    0.7506    0.0000 C   0  0  0  0  0  0  0  0  0  0  0  0
   -2.5989    3.0010    0.0000 C   0  0  0  0  0  0  0  0  0  0  0  0
   -5.1975    1.5019    0.0000 C   0  0  0  0  0  0  0  0  0  0  0  0
   -3.8982    3.7523    0.0000 C   0  0  0  0  0  0  0  0  0  0  0  0
   -1.3000   -0.7500    0.0000 C   0  0  0  0  0  0  0  0  0  0  0  0
    1.3000    0.7500    0.0000 C   0  0  0  0  0  0  0  0  0  0  0  0
   -2.5989    1.5002    0.0000 C   0  0  0  0  0  0  0  0  0  0  0  0
   -5.1975    3.0027    0.0000 C   0  0  0  0  0  0  0  0  0  0  0  0
   -1.3000    0.7500    0.0000 C   0  0  0  0  0  0  0  0  0  0  0  0
    0.0000   -1.5000    0.0000 C   0  0  0  0  0  0  0  0  0  0  0  0
   -0.0000   -3.0000    0.0000 Cl  0  0  0  0  0  0  0  0  0  0  0  0
   -6.4964    3.7529    0.0000 F   0  0  0  0  0  0  0  0  0  0  0  0
    0.0000    1.5000    0.0000 N   0  0  0  0  0  0  0  0  0  0  0  0
    1.3000   -0.7500    0.0000 N   0  0  0  0  0  0  0  0  0  0  0  0
  3  1  2  0
  4  2  1  0
  7  1  1  0
  7  2  2  0
  8  3  1  0
  8  4  2  0
  9  5  2  0
  9  7  1  0
 10  5  1  0
 11 10  1  0
 12  8  1  0
 13  6  2  0
 13  9  1  0
 14  6  1  0
 14 10  2  0
M  END
>  <NAME>  (5008) 
4-CHLORO-6-(4-FLUOROPHENYL)PYRIMIDINE

>  <SYNONYMS>  (5008) 


>  <SPECTRUM TYPE>  (5008) 
MS1

>  <INSTRUMENT TYPE>  (5008) 
EI-B

>  <INSTRUMENT>  (5008) 
MS-902

>  <ION MODE>  (5008) 
P

>  <INCHIKEY>  (5008) 
KYBYBOZNMFRRSF-UHFFFAOYSA-N

>  <FORMULA>  (5008) 
C10H6ClFN2

>  <EXACT MASS>  (5008) 
208.020354092

>  <MW>  (5008) 
208

>  <ID>  (5008) 
JP004468

>  <CONTRIBUTOR>  (5008) 
University of Tokyo Team, {Faculty of Engineering, University of Tokyo

>  <COMMENT>  (5008) 
SMILES=Fc(c2)ccc(c2)c(n1)cc(Cl)nc1
InChI=InChI=1S/C10H6ClFN2/c11-10-5-9(13-6-14-10)7-1-3-8(12)4-2-7/h1-6H
computed SMILES=FC=1C=CC(=CC1)C=2N=CN=C(Cl)C2
accession=JP004468
date=2016.01.19 (Created 2008.10.21, modified 2011.05.06)
author=SASAKI S, TOYOHASHI UNIV. OF TECH.
license=CC BY-NC-SA
exact mass=208.02035
ionization energy=70 eV
ion type=[M]+*
computed spectral entropy=2.345889476965059
computed normalized entropy=0.5802274870042676
SPLASH=splash10-0aba-1940000000-0d1d4616ea81add007e4
submitter=submitter = University of Tokyo Team (Faculty of Engineering, University of Tokyo)
MoNA Rating=3.75

>  <NUM PEAKS>  (5008) 
57

>  <MASS SPECTRAL PEAKS>  (5008) 
39 0.7
50 1.4
51 0.7
52 0.14
57 1.4
60 2.2
61 0.7
62 0.07
63 1
68 1
73 2.4
74 0.23
75 6.8
76 1.3
77 0.7
86 0.1
86.5 0.7
87 0.9
88 0.5
90.5 0.27
91 0.5
91.5 1
92 0.5
94 0.47
95 7.5
96 0.5
99 3.7
100 0.06
104 2.5
105 0.9
118 1.7
119 0.06
120 4.7
121 5.8
122 2.4
123 0.17
126 18
127 1.9
140 0.5
145 0.34
146 62.4
147 6.3
148 0.5
153 0.17
171 0.5
173 99.99
174 9.5
175 0.05
180 0.5
181 1.4
182 0.5
183 0.07
207 1.3
208 97
209 10.4
210 2.85
211 2.9

$$$$

     RDKit          2D

 14 15  0  0  0  0  0  0  0  0999 V2000
    0.3250   -3.9381    0.0000 C   0  0  0  0  0  0  0  0  0  0  0  0
   -0.9746   -1.6879    0.0000 C   0  0  0  0  0  0  0  0  0  0  0  0
   -0.9751   -4.6879    0.0000 C   0  0  0  0  0  0  0  0  0  0  0  0
   -2.2747   -2.4377    0.0000 C   0  0  0  0  0  0  0  0  0  0  0  0
    1.6238   -0.1872    0.0000 C   0  0  0  0  0  0  0  0  0  0  0  0
    2.9229    0.5628    0.0000 C   0  0  0  0  0  0  0  0  0  0  0  0
    0.3253   -2.4381    0.0000 C   0  0  0  0  0  0  0  0  0  0  0  0
   -2.2750   -3.9377    0.0000 C   0  0  0  0  0  0  0  0  0  0  0  0
    1.6243   -1.6881    0.0000 C   0  0  0  0  0  0  0  0  0  0  0  0
    4.2229   -1.6889    0.0000 C   0  0  0  0  0  0  0  0  0  0  0  0
    5.5220   -2.4387    0.0000 Cl  0  0  0  0  0  0  0  0  0  0  0  0
   -3.5740   -4.6877    0.0000 F   0  0  0  0  0  0  0  0  0  0  0  0
    4.2224   -0.1881    0.0000 N   0  0  0  0  0  0  0  0  0  0  0  0
    2.9238   -2.4389    0.0000 N   0  0  0  0  0  0  0  0  0  0  0  0
  3  1  2  0
  4  2  1  0
  6  5  2  0
  7  1  1  0
  7  2  2  0
  8  3  1  0
  8  4  2  0
  9  5  1  0
  9  7  1  0
 11 10  1  0
 12  8  1  0
 13  6  1  0
 13 10  2  0
 14  9  2  0
 14 10  1  0
M  END
>  <NAME>  (5009) 
2-CHLORO-4-(4-FLUOROPHENYL)PYRIMIDINE

>  <SYNONYMS>  (5009) 


>  <SPECTRUM TYPE>  (5009) 
MS1

>  <INSTRUMENT TYPE>  (5009) 
EI-B

>  <INSTRUMENT>  (5009) 
MS-902

>  <ION MODE>  (5009) 
P

>  <INCHIKEY>  (5009) 
DGTAWQNEBOGYLH-UHFFFAOYSA-N

>  <FORMULA>  (5009) 
C10H6ClFN2

>  <EXACT MASS>  (5009) 
208.020354092

>  <MW>  (5009) 
208

>  <ID>  (5009) 
JP004467

>  <CONTRIBUTOR>  (5009) 
University of Tokyo Team, {Faculty of Engineering, University of Tokyo

>  <COMMENT>  (5009) 
SMILES=Fc(c2)ccc(c2)c(c1)nc(Cl)nc1
InChI=InChI=1S/C10H6ClFN2/c11-10-13-6-5-9(14-10)7-1-3-8(12)4-2-7/h1-6H
computed SMILES=FC=1C=CC(=CC1)C2=NC(Cl)=NC=C2
accession=JP004467
date=2016.01.19 (Created 2008.10.21, modified 2011.05.06)
author=SASAKI S, TOYOHASHI UNIV. OF TECH.
license=CC BY-NC-SA
exact mass=208.02035
ionization energy=70 eV
ion type=[M]+*
computed spectral entropy=2.832124294348561
computed normalized entropy=0.6085407010940052
SPLASH=splash10-0ab9-4980000000-c748ce8778782e383786
submitter=submitter = University of Tokyo Team (Faculty of Engineering, University of Tokyo)
MoNA Rating=3.75

>  <NUM PEAKS>  (5009) 
105

>  <MASS SPECTRAL PEAKS>  (5009) 
32 29.5
35 0.6
36 2.6
37 0.02
38 0.8
39 0.8
40 2.1
44 0.08
45 0.4
46 0.2
47 0.2
49 0.03
49.5 0.2
50 3
50.5 0.2
51 0.12
52 1.7
53 1.9
56 0.3
57 0.15
59 0.2
60 1.4
61 0.5
62 0.13
63 1
63.5 0.2
64 0.3
68 0.1
69 1.1
70 1.4
71 0.4
73 0.08
74 2.7
75 4.1
76 0.9
77 0.09
78 0.2
81 0.8
82 0.2
83 0.02
85 0.2
86 0.8
87 3
88 0.04
89 1.1
92 0.4
93 1.1
94 0.45
95 7.1
96 0.7
98 0.4
99 0.19
100 1.8
101 3
102 0.4
103 0.02
104 0.9
104.5 0.2
105 0.6
106 0.04
107 0.4
113 0.2
118 0.8
119 0.13
120 16.5
121 11.2
122 2.5
123 0.03
124 0.2
126 3.5
127 0.7
128 0.02
132 0.2
133 0.2
144 0.4
145 0.29
146 7.6
147 40.3
148 4.2
149 0.03
153 0.2
155 0.2
167 0.4
169 0.02
171 0.8
172 0.4
173 42.1
174 0.35
175 0.2
179 0.3
180 0.4
181 0.04
182 0.2
183 0.3
190 0.2
198 0.02
199 1
200 0.2
207 2
208 99.99
209 9.6
210 22.1
211 1.9
212 0.02
222 0.3

$$$$

     RDKit          2D

 14 15  0  0  0  0  0  0  0  0999 V2000
   -2.9242   -2.0627    0.0000 C   0  0  0  0  0  0  0  0  0  0  0  0
   -2.9245   -3.5627    0.0000 C   0  0  0  0  0  0  0  0  0  0  0  0
   -1.6241   -1.3129    0.0000 C   0  0  0  0  0  0  0  0  0  0  0  0
   -1.6246   -4.3129    0.0000 C   0  0  0  0  0  0  0  0  0  0  0  0
    0.9743    0.1878    0.0000 C   0  0  0  0  0  0  0  0  0  0  0  0
    2.2733    0.9378    0.0000 C   0  0  0  0  0  0  0  0  0  0  0  0
   -0.3242   -2.0631    0.0000 C   0  0  0  0  0  0  0  0  0  0  0  0
    0.9748   -1.3131    0.0000 C   0  0  0  0  0  0  0  0  0  0  0  0
   -0.3245   -3.5631    0.0000 C   0  0  0  0  0  0  0  0  0  0  0  0
    3.5733   -1.3139    0.0000 C   0  0  0  0  0  0  0  0  0  0  0  0
    4.8725   -2.0637    0.0000 Cl  0  0  0  0  0  0  0  0  0  0  0  0
    3.5729    0.1869    0.0000 N   0  0  0  0  0  0  0  0  0  0  0  0
    2.2743   -2.0639    0.0000 N   0  0  0  0  0  0  0  0  0  0  0  0
    0.9743   -4.3135    0.0000 O   0  0  0  0  0  0  0  0  0  0  0  0
  2  1  2  0
  3  1  1  0
  4  2  1  0
  6  5  2  0
  7  3  2  0
  8  5  1  0
  8  7  1  0
  9  4  2  0
  9  7  1  0
 11 10  1  0
 12  6  1  0
 12 10  2  0
 13  8  2  0
 13 10  1  0
 14  9  1  0
M  END
>  <NAME>  (5010) 
2-CHLORO-4-(2-HYDROXYPHENYL)PYRIMIDINE

>  <SYNONYMS>  (5010) 


>  <SPECTRUM TYPE>  (5010) 
MS1

>  <INSTRUMENT TYPE>  (5010) 
EI-B

>  <INSTRUMENT>  (5010) 
MS-902

>  <ION MODE>  (5010) 
P

>  <INCHIKEY>  (5010) 
SERWHLJYMARUJU-UHFFFAOYSA-N

>  <FORMULA>  (5010) 
C10H7ClN2O

>  <EXACT MASS>  (5010) 
206.024690524

>  <MW>  (5010) 
206

>  <ID>  (5010) 
JP004464

>  <CONTRIBUTOR>  (5010) 
University of Tokyo Team, {Faculty of Engineering, University of Tokyo

>  <COMMENT>  (5010) 
SMILES=Oc(c2)c(ccc2)c(c1)nc(Cl)nc1
InChI=InChI=1S/C10H7ClN2O/c11-10-12-6-5-8(13-10)7-3-1-2-4-9(7)14/h1-6,14H
computed SMILES=ClC1=NC=CC(=N1)C=2C=CC=CC2O
accession=JP004464
date=2016.01.19 (Created 2008.10.21, modified 2011.05.06)
author=SASAKI S, TOYOHASHI UNIV. OF TECH.
license=CC BY-NC-SA
exact mass=206.02469
ionization energy=70 eV
ion type=[M]+*
computed spectral entropy=2.7330447258359665
computed normalized entropy=0.6411564566591255
SPLASH=splash10-0a4i-2290000000-cfaa7a509c5915252f25
submitter=submitter = University of Tokyo Team (Faculty of Engineering, University of Tokyo)
MoNA Rating=3.75

>  <NUM PEAKS>  (5010) 
71

>  <MASS SPECTRAL PEAKS>  (5010) 
38 2
39 3.7
40 0.6
42 0.08
43 1.3
45 0.6
52 3.2
57.5 0.45
58 0.8
58.5 1.8
61 0.8
62 0.26
63 5.6
64 2.9
65 2
71 0.66
71.5 2.2
72 0.8
74 0.9
75 0.13
76 0.7
78 0.8
83 0.9
85 0.22
86 0.9
87 0.6
88 1.8
88.5 0.09
89 5.6
90 2.8
91 1.6
92 0.08
93 0.6
95 0.6
96 0.6
99 0.06
102 1.3
103 5
103.5 1.2
104 0.2
109 0.6
111 0.8
115 6.5
116 0.62
117 1.7
120 0.8
125 0.5
141 0.08
142 5.6
143 2.8
144 2.4
145 0.05
149 2
152 4.8
153 0.6
154 0.13
159 0.8
163 0.6
170 0.9
171 2.88
172 1.5
177 0.8
178 3.3
179 0.08
180 1.3
204 0.6
205 40.8
206 99.99
207 23.7
208 30.1
209 2.8

$$$$

     RDKit          2D

 14 15  0  0  0  0  0  0  0  0999 V2000
   -5.8461   -1.1247    0.0000 C   0  0  0  0  0  0  0  0  0  0  0  0
   -4.5467   -1.8758    0.0000 C   0  0  0  0  0  0  0  0  0  0  0  0
   -5.8463    0.3761    0.0000 C   0  0  0  0  0  0  0  0  0  0  0  0
   -3.2475   -1.1260    0.0000 C   0  0  0  0  0  0  0  0  0  0  0  0
   -4.5471    1.1259    0.0000 C   0  0  0  0  0  0  0  0  0  0  0  0
   -0.6495    0.3746    0.0000 C   0  0  0  0  0  0  0  0  0  0  0  0
   -0.6486    3.3763    0.0000 C   0  0  0  0  0  0  0  0  0  0  0  0
   -3.2477    0.3748    0.0000 C   0  0  0  0  0  0  0  0  0  0  0  0
   -1.9486    1.1246    0.0000 C   0  0  0  0  0  0  0  0  0  0  0  0
    0.6500    1.1255    0.0000 C   0  0  0  0  0  0  0  0  0  0  0  0
    1.9490    0.3755    0.0000 Cl  0  0  0  0  0  0  0  0  0  0  0  0
    0.6505    2.6263    0.0000 N   0  0  0  0  0  0  0  0  0  0  0  0
   -1.9481    2.6255    0.0000 N   0  0  0  0  0  0  0  0  0  0  0  0
   -3.2471    3.3755    0.0000 O   0  0  0  0  0  0  0  0  0  0  0  0
  2  1  2  0
  3  1  1  0
  4  2  1  0
  5  3  2  0
  8  4  2  0
  8  5  1  0
  9  6  2  0
  9  8  1  0
 10  6  1  0
 11 10  1  0
 12  7  1  0
 12 10  2  0
 13  7  2  0
 13  9  1  0
 14 13  1  0
M  CHG  2  13   1  14  -1
M  END
>  <NAME>  (5011) 
4-CHLORO-6-PHENYLPYRIMIDINE-1-OXIDE

>  <SYNONYMS>  (5011) 


>  <SPECTRUM TYPE>  (5011) 
MS1

>  <INSTRUMENT TYPE>  (5011) 
EI-B

>  <INSTRUMENT>  (5011) 
MS-902

>  <ION MODE>  (5011) 
P

>  <INCHIKEY>  (5011) 
GOCVTCXBBBFQTJ-UHFFFAOYSA-N

>  <FORMULA>  (5011) 
C10H7ClN2O

>  <EXACT MASS>  (5011) 
206.024690524

>  <MW>  (5011) 
206

>  <ID>  (5011) 
JP004463

>  <CONTRIBUTOR>  (5011) 
University of Tokyo Team, {Faculty of Engineering, University of Tokyo

>  <COMMENT>  (5011) 
SMILES=Clc(n2)cc([n+1]([O-1])c2)c(c1)cccc1
InChI=InChI=1S/C10H7ClN2O/c11-10-6-9(13(14)7-12-10)8-4-2-1-3-5-8/h1-7H
computed SMILES=O=N1=CN=C(Cl)C=C1C=2C=CC=CC2
accession=JP004463
date=2016.01.19 (Created 2008.10.21, modified 2011.05.06)
author=SASAKI S, TOYOHASHI UNIV. OF TECH.
license=CC BY-NC-SA
exact mass=206.02469
ionization energy=70 eV
ion type=[M]+*
computed spectral entropy=3.8533588985171177
computed normalized entropy=0.7537887526440936
SPLASH=splash10-0a4i-3920000000-87aa87c6a8ff9be56bb0
submitter=submitter = University of Tokyo Team (Faculty of Engineering, University of Tokyo)
MoNA Rating=3.75

>  <NUM PEAKS>  (5011) 
166

>  <MASS SPECTRAL PEAKS>  (5011) 
35 1.2
36 9.1
37 1.3
38 0.3
39 9.2
40 0.9
41 1.5
42 0.03
43 1.2
44 2.1
45 0.6
47 0.25
48 1.1
49 1.4
50 26.1
50.5 0.05
51 24.4
51.5 0.4
52 5.8
53 0.06
55 1.4
55.5 0.4
56 1.5
56.5 0.39
57 6.9
57.5 1.2
58 0.4
58.5 0.03
59 0.3
60 3.2
61 2.8
61.5 0.03
62 7.7
63 15.8
63.5 0.6
64 0.49
65 3.5
66 0.6
67 0.8
68 0.09
69 2.6
70 0.4
70.5 0.6
71 0.09
71.5 0.6
72 0.4
72.5 0.5
73 0.18
74 9.2
74.5 16
75 12.3
76 1.52
76.5 0.5
77 47.1
77.5 0.7
78 0.56
79 0.6
81 1.1
81.5 1
82 0.05
82.5 0.3
83 15
84 0.4
85 0.96
86 3.2
87 5.6
88 8.3
89 1.42
89.5 0.3
90 4.6
91 2.4
92 0.11
93 0.5
94 0.4
94.5 0.6
95 0.22
95.5 0.4
96 0.7
97 1.6
98 0.11
99 3.8
100 4.6
101 14
102 1.08
103 12.3
104 6
105 37.7
106 0.26
107 0.3
108 0.2
109 0.8
110 0.06
111 0.7
112 0.6
113 13.1
114 2.1
115 6.7
116 24.6
117 5
118 0.08
119 0.7
120 0.6
121 2.3
122 0.03
123 2.9
124 2.2
125 1.8
126 0.36
127 9.2
128 59.4
129 7.6
130 0.05
131 0.9
135 0.3
136 0.7
137 0.03
138 0.7
139 1.6
140 2.8
141 0.34
142 12
143 11.5
144 43.8
145 0.46
146 0.4
147 0.2
148 1
149 1.6
150 5
151 5.2
152 41.3
153 0.41
154 13.2
155 93.8
156 12.3
157 0.07
161 0.2
162 1.5
163 3
164 0.07
165 4.6
166 0.4
167 1.3
169 0.3
170 1.1
171 2.9
172 0.7
176 0.07
177 12.5
178 26
179 10.6
180 0.9
181 2.4
189 3.9
190 71.9
191 0.98
192 25
193 2.8
194 0.2
204 0.04
205 54.2
206 99.99
207 29
208 3.31
209 3.9
210 0.3

$$$$

     RDKit          2D

 15 16  0  0  0  0  0  0  0  0999 V2000
    2.5953    1.4995    0.0000 C   0  0  0  0  0  0  0  0  0  0  0  0
   -6.4940    0.7458    0.0000 C   0  0  0  0  0  0  0  0  0  0  0  0
   -5.1936    1.4934    0.0000 C   0  0  0  0  0  0  0  0  0  0  0  0
   -6.5013   -0.7464    0.0000 C   0  0  0  0  0  0  0  0  0  0  0  0
   -3.9027   -0.7520    0.0000 C   0  0  0  0  0  0  0  0  0  0  0  0
   -1.3022    0.7487    0.0000 C   0  0  0  0  0  0  0  0  0  0  0  0
   -1.3013    3.7503    0.0000 C   0  0  0  0  0  0  0  0  0  0  0  0
   -3.9004    0.7489    0.0000 C   0  0  0  0  0  0  0  0  0  0  0  0
   -5.2031   -1.4996    0.0000 C   0  0  0  0  0  0  0  0  0  0  0  0
   -2.6013    1.4987    0.0000 C   0  0  0  0  0  0  0  0  0  0  0  0
   -0.0027    1.4995    0.0000 C   0  0  0  0  0  0  0  0  0  0  0  0
   -5.2061   -2.9996    0.0000 F   0  0  0  0  0  0  0  0  0  0  0  0
   -2.6008    2.9995    0.0000 N   0  0  0  0  0  0  0  0  0  0  0  0
   -0.0022    3.0003    0.0000 N   0  0  0  0  0  0  0  0  0  0  0  0
    1.2963    0.7495    0.0000 O   0  0  0  0  0  0  0  0  0  0  0  0
  3  2  2  0
  4  2  1  0
  8  3  1  0
  8  5  2  0
  9  4  2  0
  9  5  1  0
 10  6  2  0
 10  8  1  0
 11  6  1  0
 12  9  1  0
 13  7  2  0
 13 10  1  0
 14  7  1  0
 14 11  2  0
 15  1  1  0
 15 11  1  0
M  END
>  <NAME>  (5012) 
4-(3-FLUOROPHENYL)-6-METHOXYPYRIMIDINE

>  <SYNONYMS>  (5012) 


>  <SPECTRUM TYPE>  (5012) 
MS1

>  <INSTRUMENT TYPE>  (5012) 
EI-B

>  <INSTRUMENT>  (5012) 
MS-902

>  <ION MODE>  (5012) 
P

>  <INCHIKEY>  (5012) 
HRLQGXQHZGPTEA-UHFFFAOYSA-N

>  <FORMULA>  (5012) 
C11H9FN2O

>  <EXACT MASS>  (5012) 
204.069891128

>  <MW>  (5012) 
204

>  <ID>  (5012) 
JP004462

>  <CONTRIBUTOR>  (5012) 
University of Tokyo Team, {Faculty of Engineering, University of Tokyo

>  <COMMENT>  (5012) 
SMILES=COc(n2)cc(nc2)c(c1)cc(F)cc1
InChI=InChI=1S/C11H9FN2O/c1-15-11-6-10(13-7-14-11)8-3-2-4-9(12)5-8/h2-7H,1H3
computed SMILES=FC1=CC=CC(=C1)C=2N=CN=C(OC)C2
accession=JP004462
date=2016.01.19 (Created 2008.10.21, modified 2011.05.06)
author=SASAKI S, TOYOHASHI UNIV. OF TECH.
license=CC BY-NC-SA
exact mass=204.06989
ionization energy=70 eV
ion type=[M]+*
computed spectral entropy=2.438041929299784
computed normalized entropy=0.5930714514370218
SPLASH=splash10-0udi-1690000000-6fccc78a4b7eb69070d1
submitter=submitter = University of Tokyo Team (Faculty of Engineering, University of Tokyo)
MoNA Rating=3.75

>  <NUM PEAKS>  (5012) 
61

>  <MASS SPECTRAL PEAKS>  (5012) 
51 2.4
52 1.3
54 0.6
56 0.16
57 1.7
60 2.2
61 0.5
62 0.07
63 1
63.5 2.5
68 1
73 0.14
73.5 2
74 2
75 3.8
78 0.06
80.5 1
81 1.4
83 0.5
87 0.1
87.5 0.6
92 0.7
94 3.3
95 0.36
96 0.5
98 0.5
99 1.7
102 0.07
104 0.6
107 1.4
108 0.7
118 0.06
120 51.8
121 8.7
122 2.1
123 0.06
126 4.1
127 0.6
128 0.6
129 0.05
133 2.1
134 2
135 0.6
146 0.24
147 12.2
148 10.2
149 1.3
155 0.06
161 0.5
162 0.6
163 0.5
173 0.89
174 13.7
175 15.5
176 2.1
177 0.07
185 0.6
203 75.2
204 99.99
205 1.14
206 0.6

$$$$

     RDKit          2D

 15 16  0  0  0  0  0  0  0  0999 V2000
   -2.6000   -0.7500    0.0000 C   0  0  0  0  0  0  0  0  0  0  0  0
   -2.6000    0.7500    0.0000 C   0  0  0  0  0  0  0  0  0  0  0  0
   -1.3000   -1.5000    0.0000 C   0  0  0  0  0  0  0  0  0  0  0  0
   -1.3000    1.5000    0.0000 C   0  0  0  0  0  0  0  0  0  0  0  0
    3.8989    1.5002    0.0000 C   0  0  0  0  0  0  0  0  0  0  0  0
    2.6000   -0.7500    0.0000 C   0  0  0  0  0  0  0  0  0  0  0  0
    2.6000    0.7500    0.0000 C   0  0  0  0  0  0  0  0  0  0  0  0
    0.0000   -0.7500    0.0000 C   0  0  0  0  0  0  0  0  0  0  0  0
    5.1981    0.7504    0.0000 C   0  0  0  0  0  0  0  0  0  0  0  0
    1.3000    1.5000    0.0000 C   0  0  0  0  0  0  0  0  0  0  0  0
    1.3000   -1.5000    0.0000 N   0  0  0  0  0  0  0  0  0  0  0  0
    0.0000    0.7500    0.0000 N   0  0  0  0  0  0  0  0  0  0  0  0
    5.1983   -0.7496    0.0000 O   0  0  0  0  0  0  0  0  0  0  0  0
    6.4970    1.5006    0.0000 O   0  0  0  0  0  0  0  0  0  0  0  0
    1.3000    3.0000    0.0000 O   0  0  0  0  0  0  0  0  0  0  0  0
  2  1  1  0
  3  1  2  0
  4  2  2  0
  7  5  1  0
  7  6  2  0
  8  3  1  0
  9  5  1  0
 10  7  1  0
 11  6  1  0
 11  8  2  0
 12  4  1  0
 12  8  1  0
 12 10  1  0
 13  9  2  0
 14  9  1  0
 15 10  2  0
M  END
>  <NAME>  (5013) 
4-OXO-4H-PYRIDO(1,2-A)PYRIMIDINE-3-ACETICACID

>  <SYNONYMS>  (5013) 
3-CARBOXYMETHYL-4H-PYRIDO(1,2-A)PYRIMIDIN-4-ONE

>  <SPECTRUM TYPE>  (5013) 
MS1

>  <INSTRUMENT TYPE>  (5013) 
EI-B

>  <INSTRUMENT>  (5013) 
MS-902

>  <ION MODE>  (5013) 
P

>  <INCHIKEY>  (5013) 
RFQRASOBVQPNQC-UHFFFAOYSA-N

>  <FORMULA>  (5013) 
C10H8N2O3

>  <EXACT MASS>  (5013) 
204.05349211599997

>  <MW>  (5013) 
204

>  <ID>  (5013) 
JP004461

>  <CONTRIBUTOR>  (5013) 
University of Tokyo Team, {Faculty of Engineering, University of Tokyo

>  <COMMENT>  (5013) 
SMILES=OC(=O)CC(=C1)C(=O)N(C=2)C(C=CC2)=N1
InChI=InChI=1S/C10H8N2O3/c13-9(14)5-7-6-11-8-3-1-2-4-12(8)10(7)15/h1-4,6H,5H2,(H,13,14)
computed SMILES=O=C(O)CC1=CN=C2C=CC=CN2C1=O
accession=JP004461
date=2016.01.19 (Created 2008.10.21, modified 2011.05.06)
author=SASAKI S, TOYOHASHI UNIV. OF TECH.
license=CC BY-NC-SA
exact mass=204.05349
ionization energy=70 eV
ion type=[M]+*
computed spectral entropy=2.456301748492259
computed normalized entropy=0.6908751846544274
SPLASH=splash10-0a6r-7900000000-3849533bb1652cc70529
submitter=submitter = University of Tokyo Team (Faculty of Engineering, University of Tokyo)
MoNA Rating=3.75

>  <NUM PEAKS>  (5013) 
35

>  <MASS SPECTRAL PEAKS>  (5013) 
38 4
39 10.6
44 2.5
45 0.28
50 3.4
51 18.7
52 9.7
53 0.31
55 21.8
64 1.8
65 2.2
65.5 0.15
66 1.2
75 0.9
76 2.2
77 0.25
78 78.1
79 21.9
80 1.6
94 0.09
104 1.4
105 15.6
106 1.2
130 0.19
131 25
132 14
133 1.4
158 0.09
159 99.99
160 62.5
161 6.2
175 0.06
186 0.6
204 3.4
205 4.1

$$$$

     RDKit          2D

 15 16  0  0  0  0  0  0  0  0999 V2000
    0.3249   -3.1881    0.0000 C   0  0  0  0  0  0  0  0  0  0  0  0
   -0.9747   -0.9379    0.0000 C   0  0  0  0  0  0  0  0  0  0  0  0
   -0.9752   -3.9379    0.0000 C   0  0  0  0  0  0  0  0  0  0  0  0
   -2.2748   -1.6877    0.0000 C   0  0  0  0  0  0  0  0  0  0  0  0
    1.6237    0.5628    0.0000 C   0  0  0  0  0  0  0  0  0  0  0  0
    2.9227    1.3128    0.0000 C   0  0  0  0  0  0  0  0  0  0  0  0
    5.5219   -1.6887    0.0000 C   0  0  0  0  0  0  0  0  0  0  0  0
    0.3252   -1.6881    0.0000 C   0  0  0  0  0  0  0  0  0  0  0  0
   -2.2751   -3.1877    0.0000 C   0  0  0  0  0  0  0  0  0  0  0  0
    1.6242   -0.9381    0.0000 C   0  0  0  0  0  0  0  0  0  0  0  0
    4.2227   -0.9389    0.0000 C   0  0  0  0  0  0  0  0  0  0  0  0
   -3.5741   -3.9377    0.0000 F   0  0  0  0  0  0  0  0  0  0  0  0
    6.8211   -2.4385    0.0000 N   0  0  0  0  0  0  0  0  0  0  0  0
    4.2223    0.5619    0.0000 N   0  0  0  0  0  0  0  0  0  0  0  0
    2.9237   -1.6889    0.0000 N   0  0  0  0  0  0  0  0  0  0  0  0
  3  1  2  0
  4  2  1  0
  6  5  2  0
  8  1  1  0
  8  2  2  0
  9  3  1  0
  9  4  2  0
 10  5  1  0
 10  8  1  0
 11  7  1  0
 12  9  1  0
 13  7  3  0
 14  6  1  0
 14 11  2  0
 15 10  2  0
 15 11  1  0
M  END
>  <NAME>  (5014) 
2-CYANO-4-(4-FLUOROPHENYL)PYRIMIDINE

>  <SYNONYMS>  (5014) 


>  <SPECTRUM TYPE>  (5014) 
MS1

>  <INSTRUMENT TYPE>  (5014) 
EI-B

>  <INSTRUMENT>  (5014) 
MS-902

>  <ION MODE>  (5014) 
P

>  <INCHIKEY>  (5014) 
AVDFWALSDCMETF-UHFFFAOYSA-N

>  <FORMULA>  (5014) 
C11H6FN3

>  <EXACT MASS>  (5014) 
199.054575412

>  <MW>  (5014) 
199

>  <ID>  (5014) 
JP004460

>  <CONTRIBUTOR>  (5014) 
University of Tokyo Team, {Faculty of Engineering, University of Tokyo

>  <COMMENT>  (5014) 
SMILES=N#Cc(n2)nc(cc2)c(c1)ccc(F)c1
InChI=InChI=1S/C11H6FN3/c12-9-3-1-8(2-4-9)10-5-6-14-11(7-13)15-10/h1-6H
computed SMILES=N#CC1=NC=CC(=N1)C=2C=CC(F)=CC2
accession=JP004460
date=2016.01.19 (Created 2008.10.21, modified 2011.05.06)
author=SASAKI S, TOYOHASHI UNIV. OF TECH.
license=CC BY-NC-SA
exact mass=199.05458
ionization energy=70 eV
ion type=[M]+*
computed spectral entropy=2.663157836502913
computed normalized entropy=0.575821295393034
SPLASH=splash10-0002-2900000000-4539123228d031c72156
submitter=submitter = University of Tokyo Team (Faculty of Engineering, University of Tokyo)
MoNA Rating=3.75

>  <NUM PEAKS>  (5014) 
102

>  <MASS SPECTRAL PEAKS>  (5014) 
27 1.4
28 5.2
29 0.3
31 0.07
32 1.2
36 0.3
37 0.4
38 0.07
39 0.8
40 0.3
41 0.3
42 0.03
43 0.3
44 0.7
45 0.3
46 0.04
49 0.6
50 2.9
51 1.3
52 0.26
53 1.4
55 0.3
56 0.4
57 0.17
60 2
61 0.6
62 0.8
63 0.12
64 0.6
68 1.2
69 1.2
70 0.22
73 0.4
74 2.7
75 2.9
76 0.09
77 1.1
78 2.6
79 0.3
80 0.03
81 1.1
82 0.3
83 0.2
86 0.03
87 0.4
88 0.3
90 0.3
91 0.03
92 0.4
93 1.3
94 6.4
95 0.29
96 0.6
97 0.3
98 0.8
99 0.17
100 2.3
101 0.8
102 0.3
103 0.02
104 0.3
105 0.3
106 0.3
107 0.03
118 0.4
119 1.2
120 16.3
121 1.75
122 1.8
126 1.5
127 0.6
128 0.03
129 0.3
134 0.7
144 0.4
145 0.29
146 4.9
147 51.9
148 3.3
149 0.04
151 0.3
152 0.3
153 0.2
156 0.02
158 0.4
159 1.5
160 0.3
170 0.03
171 2.2
172 3.7
173 1.7
174 0.03
179 0.3
180 0.7
181 0.7
188 0.03
198 7.4
199 99.99
200 12.3
201 0.06
208 0.3
213 0.2

$$$$

     RDKit          2D

 15 16  0  0  0  0  0  0  0  0999 V2000
    0.9739   -0.9381    0.0000 C   0  0  0  0  0  0  0  0  0  0  0  0
   -0.3250   -3.1887    0.0000 C   0  0  0  0  0  0  0  0  0  0  0  0
    2.2733   -1.6892    0.0000 C   0  0  0  0  0  0  0  0  0  0  0  0
    0.9744   -3.9398    0.0000 C   0  0  0  0  0  0  0  0  0  0  0  0
   -2.9238   -1.6887    0.0000 C   0  0  0  0  0  0  0  0  0  0  0  0
   -5.5220   -1.6885    0.0000 C   0  0  0  0  0  0  0  0  0  0  0  0
   -2.9228    1.3129    0.0000 C   0  0  0  0  0  0  0  0  0  0  0  0
   -0.3252   -1.6879    0.0000 C   0  0  0  0  0  0  0  0  0  0  0  0
    2.2736   -3.1900    0.0000 C   0  0  0  0  0  0  0  0  0  0  0  0
   -4.2228   -0.9387    0.0000 C   0  0  0  0  0  0  0  0  0  0  0  0
   -1.6243   -0.9379    0.0000 C   0  0  0  0  0  0  0  0  0  0  0  0
    3.5726   -3.9400    0.0000 F   0  0  0  0  0  0  0  0  0  0  0  0
   -6.8212   -2.4383    0.0000 N   0  0  0  0  0  0  0  0  0  0  0  0
   -4.2224    0.5621    0.0000 N   0  0  0  0  0  0  0  0  0  0  0  0
   -1.6238    0.5629    0.0000 N   0  0  0  0  0  0  0  0  0  0  0  0
  3  1  2  0
  4  2  1  0
  8  1  1  0
  8  2  2  0
  9  3  1  0
  9  4  2  0
 10  5  2  0
 10  6  1  0
 11  5  1  0
 11  8  1  0
 12  9  1  0
 13  6  3  0
 14  7  2  0
 14 10  1  0
 15  7  1  0
 15 11  2  0
M  END
>  <NAME>  (5015) 
4-CYANO-6-(4-FLUOROPHENYL)PYRIMIDINE

>  <SYNONYMS>  (5015) 


>  <SPECTRUM TYPE>  (5015) 
MS1

>  <INSTRUMENT TYPE>  (5015) 
EI-B

>  <INSTRUMENT>  (5015) 
MS-902

>  <ION MODE>  (5015) 
P

>  <INCHIKEY>  (5015) 
XXGFPXWXJUQRRQ-UHFFFAOYSA-N

>  <FORMULA>  (5015) 
C11H6FN3

>  <EXACT MASS>  (5015) 
199.05457541200002

>  <MW>  (5015) 
199

>  <ID>  (5015) 
JP004459

>  <CONTRIBUTOR>  (5015) 
University of Tokyo Team, {Faculty of Engineering, University of Tokyo

>  <COMMENT>  (5015) 
SMILES=N#Cc(n2)cc(nc2)c(c1)ccc(F)c1
InChI=InChI=1S/C11H6FN3/c12-9-3-1-8(2-4-9)11-5-10(6-13)14-7-15-11/h1-5,7H
computed SMILES=N#CC1=NC=NC(=C1)C=2C=CC(F)=CC2
accession=JP004459
date=2016.01.19 (Created 2008.10.21, modified 2011.05.06)
author=SASAKI S, TOYOHASHI UNIV. OF TECH.
license=CC BY-NC-SA
exact mass=199.05458
ionization energy=70 eV
ion type=[M]+*
computed spectral entropy=2.313700060800173
computed normalized entropy=0.5326435777164301
SPLASH=splash10-006t-1900000000-b10df70206c3fb7b2021
submitter=submitter = University of Tokyo Team (Faculty of Engineering, University of Tokyo)
MoNA Rating=3.75

>  <NUM PEAKS>  (5015) 
77

>  <MASS SPECTRAL PEAKS>  (5015) 
32 3.1
36 0.3
37 0.3
38 0.03
39 0.7
40 0.3
41 0.2
44 0.07
45 0.2
49 0.3
50 2.7
51 0.52
52 0.9
53 0.3
56 0.2
57 0.12
60 2.3
60.5 0.3
61 0.6
62 0.07
63 0.9
64 0.2
68 0.9
69 0.12
70 2.1
71 0.2
73 0.3
74 0.22
75 3.4
76 1
77 1.2
78 0.12
81 0.8
85 0.3
86 0.9
87 0.04
88 0.3
92 0.3
93 0.9
94 0.57
95 3.2
96 0.6
98 0.3
99 0.12
99.5 1.5
100 1.6
101 0.4
102 0.03
104 0.3
105 0.3
107 0.3
118 0.07
119 0.9
120 13.7
121 13.4
122 0.45
123 0.4
124 0.4
125 0.2
126 0.1
127 0.3
144 0.6
145 32.2
146 0.45
147 1.2
148 0.3
151 0.6
170 0.03
171 2.6
172 67.1
173 7.7
174 0.09
180 0.3
198 2.8
199 99.99
200 1.21
201 0.6

$$$$

     RDKit          2D

 13 13  0  0  0  0  0  0  0  0999 V2000
   -6.4962   -0.7508    0.0000 C   0  0  0  0  0  0  0  0  0  0  0  0
   -5.1968   -3.0006    0.0000 C   0  0  0  0  0  0  0  0  0  0  0  0
    3.8981    0.7504    0.0000 C   0  0  0  0  0  0  0  0  0  0  0  0
    0.0000   -1.5000    0.0000 C   0  0  0  0  0  0  0  0  0  0  0  0
   -1.3000    0.7500    0.0000 C   0  0  0  0  0  0  0  0  0  0  0  0
   -3.8981   -0.7504    0.0000 C   0  0  0  0  0  0  0  0  0  0  0  0
   -1.3000   -0.7500    0.0000 C   0  0  0  0  0  0  0  0  0  0  0  0
    1.3000    0.7500    0.0000 C   0  0  0  0  0  0  0  0  0  0  0  0
    1.3000   -0.7500    0.0000 N   0  0  0  0  0  0  0  0  0  0  0  0
    0.0000    1.5000    0.0000 N   0  0  0  0  0  0  0  0  0  0  0  0
   -2.5989   -1.5002    0.0000 N   0  0  0  0  0  0  0  0  0  0  0  0
   -5.1970   -1.5006    0.0000 N   0  0  0  0  0  0  0  0  0  0  0  0
    2.5989    1.5002    0.0000 S   0  0  0  0  0  0  0  0  0  0  0  0
  7  4  2  0
  7  5  1  0
  9  4  1  0
  9  8  2  0
 10  5  2  0
 10  8  1  0
  6 11  2  0
 11  7  1  0
 12  1  1  0
 12  2  1  0
 12  6  1  0
 13  3  1  0
 13  8  1  0
M  END
>  <NAME>  (5016) 
5-DIMETHYLAMINOMETHYLENEAMINO-2-METHYLTHIOPYRIMIDINE

>  <SYNONYMS>  (5016) 


>  <SPECTRUM TYPE>  (5016) 
MS1

>  <INSTRUMENT TYPE>  (5016) 
EI-B

>  <INSTRUMENT>  (5016) 
MS-902

>  <ION MODE>  (5016) 
P

>  <INCHIKEY>  (5016) 
MDKISTZNRFJSFI-IZZDOVSWSA-N

>  <FORMULA>  (5016) 
C8H12N4S

>  <EXACT MASS>  (5016) 
196.078267384

>  <MW>  (5016) 
196

>  <ID>  (5016) 
JP004458

>  <CONTRIBUTOR>  (5016) 
University of Tokyo Team, {Faculty of Engineering, University of Tokyo

>  <COMMENT>  (5016) 
SMILES=CN(C)C=Nc(c1)cnc(SC)n1
InChI=InChI=1S/C8H12N4S/c1-12(2)6-11-7-4-9-8(13-3)10-5-7/h4-6H,1-3H3/b11-6+
computed SMILES=N=1C=C(N=CN(C)C)C=NC1SC
accession=JP004458
date=2016.01.19 (Created 2008.10.21, modified 2011.05.06)
author=SASAKI S, TOYOHASHI UNIV. OF TECH.
license=CC BY-NC-SA
exact mass=196.07827
ionization energy=70 eV
ion type=[M]+*
computed spectral entropy=3.7127511351118474
computed normalized entropy=0.765195378668676
SPLASH=splash10-0005-5900000000-74203e155a59017ee51e
submitter=submitter = University of Tokyo Team (Faculty of Engineering, University of Tokyo)
MoNA Rating=3.75

>  <NUM PEAKS>  (5016) 
128

>  <MASS SPECTRAL PEAKS>  (5016) 
36 0.6
38 0.7
39 1.2
40 0.4
41 11.7
42 39.5
43 4.4
44 6.1
45 5.7
46 2.5
47 2.6
48 0.05
50 0.3
51 1.8
52 7.5
53 0.34
54 7.5
55 3.9
56 2.1
57 0.65
58 1
59 1.9
60 0.4
65 0.04
66 6
67 2.8
68 8.3
69 0.57
70 1.8
71 4.5
72 1.6
73 0.08
74 4.3
75 0.3
76 1.6
77 0.13
78 1.1
79 4.2
80 9.4
81 1.09
82 2.2
83 2.3
84 2.5
84.5 0.22
85 1
86 1.4
88 0.7
89 0.03
91 0.2
92 0.5
93 1.8
94 0.18
95 11.7
96 5.7
97 1.4
98 0.36
99 1.1
100 0.6
101 0.1
103 0.04
104 0.3
105 1.2
106 1.6
107 0.6
108 22.9
109 3.7
110 4.9
111 0.2
112 1.8
113 1.7
114 0.3
115 0.02
118 0.4
119 0.9
120 1.9
121 0.52
122 9.6
123 2.7
124 3.3
125 0.3
126 1.6
127 2
128 0.3
132 0.05
133 0.6
134 1.8
135 5.3
136 0.78
137 1
138 2
139 11.2
140 0.49
141 17.9
142 1.6
143 0.8
146 0.05
147 1.2
148 1.9
149 2.3
150 0.1
151 1.2
152 8.4
153 1.3
154 2.4
155 2.1
156 1.1
162 0.8
163 4.88
164 5.5
165 0.4
166 2.3
167 0.07
168 7.9
169 1.4
170 0.4
178 0.07
179 1.1
180 3.5
181 26.5
182 0.28
183 1.2
193 1.3
194 0.3
195 1.14
196 99.99
197 13.5
198 5.7
199 0.5

$$$$

     RDKit          2D

 15 16  0  0  0  0  0  0  0  0999 V2000
    5.1989    1.5002    0.0000 C   0  0  0  0  0  0  0  0  0  0  0  0
    3.8989    3.7502    0.0000 C   0  0  0  0  0  0  0  0  0  0  0  0
    3.8989    0.7502    0.0000 C   0  0  0  0  0  0  0  0  0  0  0  0
    2.5989    3.0002    0.0000 C   0  0  0  0  0  0  0  0  0  0  0  0
    6.4978    3.7504    0.0000 C   0  0  0  0  0  0  0  0  0  0  0  0
   -0.0000   -1.5000    0.0000 C   0  0  0  0  0  0  0  0  0  0  0  0
   -1.3000    0.7500    0.0000 C   0  0  0  0  0  0  0  0  0  0  0  0
    5.1989    3.0002    0.0000 C   0  0  0  0  0  0  0  0  0  0  0  0
    2.5989    1.5002    0.0000 C   0  0  0  0  0  0  0  0  0  0  0  0
   -1.3000   -0.7500    0.0000 C   0  0  0  0  0  0  0  0  0  0  0  0
    1.3000    0.7500    0.0000 C   0  0  0  0  0  0  0  0  0  0  0  0
    7.7968    4.5006    0.0000 N   0  0  0  0  0  0  0  0  0  0  0  0
   -2.5989   -1.5002    0.0000 N   0  0  0  0  0  0  0  0  0  0  0  0
    1.3000   -0.7500    0.0000 N   0  0  0  0  0  0  0  0  0  0  0  0
    0.0000    1.5000    0.0000 N   0  0  0  0  0  0  0  0  0  0  0  0
  3  1  2  0
  4  2  1  0
  8  1  1  0
  8  2  2  0
  8  5  1  0
  9  3  1  0
  9  4  2  0
 10  6  2  0
 10  7  1  0
 11  9  1  0
 12  5  3  0
 13 10  1  0
 14  6  1  0
 14 11  2  0
 15  7  2  0
 15 11  1  0
M  END
>  <NAME>  (5017) 
5-AMINO-2-(4-CYANOPHENYL)PYRIMIDINE

>  <SYNONYMS>  (5017) 


>  <SPECTRUM TYPE>  (5017) 
MS1

>  <INSTRUMENT TYPE>  (5017) 
EI-B

>  <INSTRUMENT>  (5017) 
MS-902

>  <ION MODE>  (5017) 
P

>  <INCHIKEY>  (5017) 
ZUHYODFJXMGYJE-UHFFFAOYSA-N

>  <FORMULA>  (5017) 
C11H8N4

>  <EXACT MASS>  (5017) 
196.074896256

>  <MW>  (5017) 
196

>  <ID>  (5017) 
JP004457

>  <CONTRIBUTOR>  (5017) 
University of Tokyo Team, {Faculty of Engineering, University of Tokyo

>  <COMMENT>  (5017) 
SMILES=N#Cc(c2)ccc(c2)c(n1)ncc(N)c1
InChI=InChI=1S/C11H8N4/c12-5-8-1-3-9(4-2-8)11-14-6-10(13)7-15-11/h1-4,6-7H,13H2
computed SMILES=N#CC=1C=CC(=CC1)C2=NC=C(N)C=N2
accession=JP004457
date=2016.01.19 (Created 2008.10.21, modified 2011.05.06)
author=SASAKI S, TOYOHASHI UNIV. OF TECH.
license=CC BY-NC-SA
exact mass=196.0749
ionization energy=70 eV
ion type=[M]+*
computed spectral entropy=1.6330997796112385
computed normalized entropy=0.4712129906643986
SPLASH=splash10-0005-6900000000-bfb4d95abd33226d20de
submitter=submitter = University of Tokyo Team (Faculty of Engineering, University of Tokyo)
MoNA Rating=3.75

>  <NUM PEAKS>  (5017) 
32

>  <MASS SPECTRAL PEAKS>  (5017) 
41 87.5
42 0.8
43 1.2
44 0.28
47 0.5
50 0.8
51 0.5
61 0.08
63 0.5
75 2.3
76 0.7
83 0.15
84.5 2.7
85 0.9
88 1.3
98 0.19
99 2.4
101 1.5
102 6.4
114 0.13
118 0.8
119 0.9
128 2.3
129 1.37
130 1.7
141 1.6
168 0.8
171 0.07
195 2.2
196 99.99
197 12.7
198 1.1

$$$$

     RDKit          2D

 15 17  0  0  0  0  0  0  0  0999 V2000
    3.0600    2.2000    0.0000 C   0  0  0  0  0  0  0  0  0  0  0  0
    1.7600    2.9500    0.0000 C   0  0  0  0  0  0  0  0  0  0  0  0
    3.0600    0.7000    0.0000 C   0  0  0  0  0  0  0  0  0  0  0  0
    0.4600    2.2000    0.0000 C   0  0  0  0  0  0  0  0  0  0  0  0
    1.7600   -1.5500    0.0000 C   0  0  0  0  0  0  0  0  0  0  0  0
    0.4600   -2.3000    0.0000 C   0  0  0  0  0  0  0  0  0  0  0  0
   -3.4300   -0.0500    0.0000 C   0  0  0  0  0  0  0  0  0  0  0  0
   -3.4300   -1.5500    0.0000 C   0  0  0  0  0  0  0  0  0  0  0  0
    1.7600   -0.0500    0.0000 C   0  0  0  0  0  0  0  0  0  0  0  0
    0.4600    0.7000    0.0000 C   0  0  0  0  0  0  0  0  0  0  0  0
   -0.8300   -1.5500    0.0000 C   0  0  0  0  0  0  0  0  0  0  0  0
   -2.1300    0.7000    0.0000 C   0  0  0  0  0  0  0  0  0  0  0  0
   -2.1300   -2.3000    0.0000 N   0  0  0  0  0  0  0  0  0  0  0  0
   -0.8300   -0.0500    0.0000 N   0  0  0  0  0  0  0  0  0  0  0  0
   -2.1300    2.2000    0.0000 O   0  0  0  0  0  0  0  0  0  0  0  0
  2  1  2  0
  3  1  1  0
  4  2  1  0
  6  5  2  0
  8  7  2  0
  9  3  2  0
  9  5  1  0
 10  4  2  0
 10  9  1  0
 11  6  1  0
 12  7  1  0
 13  8  1  0
 13 11  2  0
 14 10  1  0
 14 11  1  0
 14 12  1  0
 15 12  2  0
M  END
>  <NAME>  (5018) 
1H-PYRIMIDO(1,2-A)QUINOLIN-1-ONE

>  <SYNONYMS>  (5018) 


>  <SPECTRUM TYPE>  (5018) 
MS1

>  <INSTRUMENT TYPE>  (5018) 
EI-B

>  <INSTRUMENT>  (5018) 
MS-902

>  <ION MODE>  (5018) 
P

>  <INCHIKEY>  (5018) 
AWTLDKNXRRLNGA-UHFFFAOYSA-N

>  <FORMULA>  (5018) 
C12H8N2O

>  <EXACT MASS>  (5018) 
196.063662876

>  <MW>  (5018) 
196

>  <ID>  (5018) 
JP004456

>  <CONTRIBUTOR>  (5018) 
University of Tokyo Team, {Faculty of Engineering, University of Tokyo

>  <COMMENT>  (5018) 
SMILES=[H]C(N=3)=C([H])C(=O)N(C31)c(c2)c(ccc2)C([H])=C([H])1
InChI=InChI=1S/C12H8N2O/c15-12-7-8-13-11-6-5-9-3-1-2-4-10(9)14(11)12/h1-8H
computed SMILES=O=C1C=CN=C2C=CC=3C=CC=CC3N12
accession=JP004456
date=2016.01.19 (Created 2008.10.21, modified 2011.05.06)
author=SASAKI S, TOYOHASHI UNIV. OF TECH.
license=CC BY-NC-SA
exact mass=196.06366
ionization energy=70 eV
ion type=[M]+*
computed spectral entropy=1.8993599797822973
computed normalized entropy=0.7013754689662821
SPLASH=splash10-00mk-0900000000-cd78e5d4aa79d52fd79d
submitter=submitter = University of Tokyo Team (Faculty of Engineering, University of Tokyo)
MoNA Rating=3.75

>  <NUM PEAKS>  (5018) 
15

>  <MASS SPECTRAL PEAKS>  (5018) 
77 9.4
84 9.2
98 5.8
101 2.6
102 8.5
114 8.2
128 66
129 1.2
141 4.8
149 6.2
168 99.99
169 1.3
195 6
196 92
197 12

$$$$

     RDKit          2D

 11 11  0  0  0  0  0  0  0  0999 V2000
    1.3000    0.7500    0.0000 C   0  0  0  0  0  0  0  0  0  0  0  0
   -1.3000   -0.7500    0.0000 C   0  0  0  0  0  0  0  0  0  0  0  0
   -1.3000    0.7500    0.0000 C   0  0  0  0  0  0  0  0  0  0  0  0
    0.0000   -1.5000    0.0000 C   0  0  0  0  0  0  0  0  0  0  0  0
   -2.5989   -1.5002    0.0000 C   0  0  0  0  0  0  0  0  0  0  0  0
   -2.5989    1.5002    0.0000 Cl  0  0  0  0  0  0  0  0  0  0  0  0
   -0.0000   -3.0000    0.0000 Cl  0  0  0  0  0  0  0  0  0  0  0  0
   -3.8981   -0.7504    0.0000 N   0  0  0  0  0  0  0  0  0  0  0  0
    0.0000    1.5000    0.0000 N   0  0  0  0  0  0  0  0  0  0  0  0
    1.3000   -0.7500    0.0000 N   0  0  0  0  0  0  0  0  0  0  0  0
   -2.5987   -3.0002    0.0000 O   0  0  0  0  0  0  0  0  0  0  0  0
  3  2  2  0
  4  2  1  0
  5  2  1  0
  6  3  1  0
  7  4  1  0
  8  5  2  0
  9  1  2  0
  9  3  1  0
 10  1  1  0
 10  4  2  0
 11  5  1  0
M  END
>  <NAME>  (5019) 
5-CARBAMOYL-4,6-DICHLOROPYRIMIDINE

>  <SYNONYMS>  (5019) 


>  <SPECTRUM TYPE>  (5019) 
MS1

>  <INSTRUMENT TYPE>  (5019) 
EI-B

>  <INSTRUMENT>  (5019) 
MS-902

>  <ION MODE>  (5019) 
P

>  <INCHIKEY>  (5019) 
QYAHLZVZKDGUAW-UHFFFAOYSA-N

>  <FORMULA>  (5019) 
C5H3Cl2N3O

>  <EXACT MASS>  (5019) 
190.965317076

>  <MW>  (5019) 
191

>  <ID>  (5019) 
JP004455

>  <CONTRIBUTOR>  (5019) 
University of Tokyo Team, {Faculty of Engineering, University of Tokyo

>  <COMMENT>  (5019) 
SMILES=NC(=O)c(c(Cl)1)c(Cl)ncn1
InChI=InChI=1S/C5H3Cl2N3O/c6-3-2(5(8)11)4(7)10-1-9-3/h1H,(H2,8,11)
computed SMILES=ClC1=NC=NC(Cl)=C1C(=N)O
accession=JP004455
date=2016.01.19 (Created 2008.10.21, modified 2011.05.06)
author=SASAKI S, TOYOHASHI UNIV. OF TECH.
license=CC BY-NC-SA
exact mass=190.96532
ionization energy=70 eV
ion type=[M]+*
computed spectral entropy=3.03054158793938
computed normalized entropy=0.6410604977115771
SPLASH=splash10-004i-5900000000-38559a748b7cfcf9a419
submitter=submitter = University of Tokyo Team (Faculty of Engineering, University of Tokyo)
MoNA Rating=3.75

>  <NUM PEAKS>  (5019) 
113

>  <MASS SPECTRAL PEAKS>  (5019) 
35 2.7
36 15.1
37 0.8
38 0.51
39 1.8
40 1.1
41 0.9
42 0.04
43 2.4
44 32.1
45 0.5
48 0.03
49 1.1
50 3.2
51 9.8
52 0.22
53 0.5
55 0.4
56 0.7
57 0.04
58 0.2
59 1.2
60 1.4
61 0.1
62 1.1
63 5.3
64 0.3
65 0.16
66 1.1
67 0.2
68 0.3
69 0.02
71 0.3
73 0.6
74 0.6
75 0.09
76 3.1
77 3.9
78 1
79 0.02
83 0.5
84 18.3
85 31.3
86 1.45
87 10.2
88 2.7
89 0.5
90 0.02
91 0.2
92 0.2
93 0.6
99 0.06
100 0.3
101 0.6
102 0.9
103 0.04
104 0.6
105 0.3
106 0.3
111 0.12
112 0.4
113 5.3
114 1.5
115 0.16
116 0.4
117 0.3
119 0.3
120 0.49
121 0.6
122 3
123 0.4
124 0.05
126 0.6
127 0.7
128 0.5
129 0.05
130 0.6
131 0.3
132 0.3
138 0.12
139 0.3
140 0.6
141 0.3
142 0.02
143 0.2
147 7.7
148 4.9
149 0.5
150 3.2
151 0.9
152 0.5
156 0.04
157 0.3
158 0.6
159 0.2
160 0.02
161 0.6
170 0.8
171 0.2
173 0.17
175 99.99
176 5.7
177 60.6
178 0.36
179 9.8
180 0.6
188 0.2
191 5.11
192 3.6
193 32.8
194 2
195 0.51
196 0.4

$$$$

     RDKit          2D

 14 15  0  0  0  0  0  0  0  0999 V2000
   -1.2996   -3.0000    0.0000 C   0  0  0  0  0  0  0  0  0  0  0  0
   -2.5973   -2.2476    0.0000 C   0  0  0  0  0  0  0  0  0  0  0  0
   -0.0038   -2.2602    0.0000 C   0  0  0  0  0  0  0  0  0  0  0  0
   -1.2982   -0.0070    0.0000 C   0  0  0  0  0  0  0  0  0  0  0  0
   -3.8980    1.4948    0.0000 C   0  0  0  0  0  0  0  0  0  0  0  0
   -6.4980   -0.0052    0.0000 C   0  0  0  0  0  0  0  0  0  0  0  0
   -2.5991   -0.7554    0.0000 C   0  0  0  0  0  0  0  0  0  0  0  0
   -0.0005   -0.7594    0.0000 C   0  0  0  0  0  0  0  0  0  0  0  0
   -3.8980   -0.0052    0.0000 C   0  0  0  0  0  0  0  0  0  0  0  0
   -5.1980    2.2448    0.0000 C   0  0  0  0  0  0  0  0  0  0  0  0
    1.3000   -0.0120    0.0000 F   0  0  0  0  0  0  0  0  0  0  0  0
   -5.1980   -0.7552    0.0000 N   0  0  0  0  0  0  0  0  0  0  0  0
   -6.4980    1.4948    0.0000 N   0  0  0  0  0  0  0  0  0  0  0  0
   -5.1980    3.7448    0.0000 O   0  0  0  0  0  0  0  0  0  0  0  0
  2  1  2  0
  3  1  1  0
  7  2  1  0
  7  4  2  0
  8  3  2  0
  8  4  1  0
  9  5  2  0
  9  7  1  0
 10  5  1  0
 11  8  1  0
 12  6  2  0
 12  9  1  0
 13  6  1  0
 13 10  2  0
 14 10  1  0
M  END
>  <NAME>  (5020) 
6-(3-FLUOROPHENYL)-3,4-DIHYDROPYRIMIDIN-4-ONE

>  <SYNONYMS>  (5020) 


>  <SPECTRUM TYPE>  (5020) 
MS1

>  <INSTRUMENT TYPE>  (5020) 
EI-B

>  <INSTRUMENT>  (5020) 
MS-902

>  <ION MODE>  (5020) 
P

>  <INCHIKEY>  (5020) 
YWRPJIHIQQSAFE-UHFFFAOYSA-N

>  <FORMULA>  (5020) 
C10H7FN2O

>  <EXACT MASS>  (5020) 
190.054241064

>  <MW>  (5020) 
190

>  <ID>  (5020) 
JP004454

>  <CONTRIBUTOR>  (5020) 
University of Tokyo Team, {Faculty of Engineering, University of Tokyo

>  <COMMENT>  (5020) 
SMILES=O=C(N2)C=C(N=C2)c(c1)cc(F)cc1
InChI=InChI=1S/C10H7FN2O/c11-8-3-1-2-7(4-8)9-5-10(14)13-6-12-9/h1-6H,(H,12,13,14)
computed SMILES=FC1=CC=CC(=C1)C=2N=CN=C(O)C2
accession=JP004454
date=2016.01.19 (Created 2008.10.21, modified 2011.05.06)
author=SASAKI S, TOYOHASHI UNIV. OF TECH.
license=CC BY-NC-SA
exact mass=190.05424
ionization energy=70 eV
ion type=[M]+*
computed spectral entropy=2.4155715271427503
computed normalized entropy=0.5876053624983983
SPLASH=splash10-000f-1900000000-45358e0e6514f630da60
submitter=submitter = University of Tokyo Team (Faculty of Engineering, University of Tokyo)
MoNA Rating=3.75

>  <NUM PEAKS>  (5020) 
61

>  <MASS SPECTRAL PEAKS>  (5020) 
51 1.1
52 0.7
56 0.7
57 0.23
60 1
61 0.6
62 0.8
63 0.12
64 0.5
67.5 1.4
68 5.9
69 0.06
70 0.6
73 0.6
74 1.9
75 0.44
76 1.1
79 0.6
82 0.6
83 0.06
85 0.7
87 0.6
88 0.5
89 0.05
91 0.5
92 0.5
94 3.4
94.5 0.06
95 9
96 1.9
99 1
101 0.07
106 0.6
107 5.4
108 4.7
110 0.05
111 1.5
115 1.1
120 4.9
121 0.29
122 22.3
123 2.6
125 0.5
126 0.07
133 0.5
134 5.9
135 7.4
136 0.15
141 0.5
146 0.7
147 2.1
149 0.06
160 0.6
161 2.7
162 12.2
163 0.23
171 2.2
189 62.4
190 99.99
191 1.1
192 0.8

$$$$

     RDKit          2D

 14 15  0  0  0  0  0  0  0  0999 V2000
   -3.8982    0.7506    0.0000 C   0  0  0  0  0  0  0  0  0  0  0  0
   -2.5989    3.0010    0.0000 C   0  0  0  0  0  0  0  0  0  0  0  0
   -5.1975    1.5019    0.0000 C   0  0  0  0  0  0  0  0  0  0  0  0
   -3.8982    3.7523    0.0000 C   0  0  0  0  0  0  0  0  0  0  0  0
   -1.3000   -0.7500    0.0000 C   0  0  0  0  0  0  0  0  0  0  0  0
    1.3000    0.7500    0.0000 C   0  0  0  0  0  0  0  0  0  0  0  0
   -2.5989    1.5002    0.0000 C   0  0  0  0  0  0  0  0  0  0  0  0
   -5.1975    3.0027    0.0000 C   0  0  0  0  0  0  0  0  0  0  0  0
   -1.3000    0.7500    0.0000 C   0  0  0  0  0  0  0  0  0  0  0  0
    0.0000   -1.5000    0.0000 C   0  0  0  0  0  0  0  0  0  0  0  0
   -6.4964    3.7529    0.0000 F   0  0  0  0  0  0  0  0  0  0  0  0
    0.0000    1.5000    0.0000 N   0  0  0  0  0  0  0  0  0  0  0  0
    1.3000   -0.7500    0.0000 N   0  0  0  0  0  0  0  0  0  0  0  0
   -0.0000   -3.0000    0.0000 O   0  0  0  0  0  0  0  0  0  0  0  0
  3  1  2  0
  4  2  1  0
  7  1  1  0
  7  2  2  0
  8  3  1  0
  8  4  2  0
  9  5  2  0
  9  7  1  0
 10  5  1  0
 11  8  1  0
 12  6  2  0
 12  9  1  0
 13  6  1  0
 13 10  2  0
 14 10  1  0
M  END
>  <NAME>  (5021) 
6-(4-FLUOROPHENYL)-3,4-DIHYDROPYRIMIDIN-4-ONE

>  <SYNONYMS>  (5021) 


>  <SPECTRUM TYPE>  (5021) 
MS1

>  <INSTRUMENT TYPE>  (5021) 
EI-B

>  <INSTRUMENT>  (5021) 
MS-902

>  <ION MODE>  (5021) 
P

>  <INCHIKEY>  (5021) 
UWDUMRWLLYZYBY-UHFFFAOYSA-N

>  <FORMULA>  (5021) 
C10H7FN2O

>  <EXACT MASS>  (5021) 
190.054241064

>  <MW>  (5021) 
190

>  <ID>  (5021) 
JP004453

>  <CONTRIBUTOR>  (5021) 
University of Tokyo Team, {Faculty of Engineering, University of Tokyo

>  <COMMENT>  (5021) 
SMILES=Fc(c2)ccc(c2)C(N=1)=CC(=O)NC1
InChI=InChI=1S/C10H7FN2O/c11-8-3-1-7(2-4-8)9-5-10(14)13-6-12-9/h1-6H,(H,12,13,14)
computed SMILES=FC=1C=CC(=CC1)C=2N=CN=C(O)C2
accession=JP004453
date=2016.01.19 (Created 2008.10.21, modified 2011.05.06)
author=SASAKI S, TOYOHASHI UNIV. OF TECH.
license=CC BY-NC-SA
exact mass=190.05424
ionization energy=70 eV
ion type=[M]+*
computed spectral entropy=2.353397421766303
computed normalized entropy=0.6219026130911749
SPLASH=splash10-0006-1900000000-57d528650e9eb1d401a1
submitter=submitter = University of Tokyo Team (Faculty of Engineering, University of Tokyo)
MoNA Rating=3.75

>  <NUM PEAKS>  (5021) 
44

>  <MASS SPECTRAL PEAKS>  (5021) 
50 2.4
51 2.3
56 0.6
57 0.24
60 0.8
63 1.2
67 0.7
67.5 0.12
68 3.9
70 0.6
73 0.6
74 0.19
75 3.9
76 0.8
82 0.6
83 0.22
85 1.4
94 3.6
95 8.8
96 0.19
99 0.8
101 0.6
107 5.1
108 0.58
111 0.8
120 7
121 4
122 2.55
123 4.3
134 5.1
135 8.1
136 0.12
140 0.6
146 0.6
147 2.2
149 0.09
161 2.4
162 14.3
163 2.3
171 0.08
189 48.5
190 99.99
191 11.4
192 0.8

$$$$

     RDKit          2D

 14 15  0  0  0  0  0  0  0  0999 V2000
   -0.0005    3.7431    0.0000 C   0  0  0  0  0  0  0  0  0  0  0  0
    1.2974    2.9912    0.0000 C   0  0  0  0  0  0  0  0  0  0  0  0
   -1.2962    3.0029    0.0000 C   0  0  0  0  0  0  0  0  0  0  0  0
    5.1978   -0.7525    0.0000 C   0  0  0  0  0  0  0  0  0  0  0  0
    3.8988   -1.5025    0.0000 C   0  0  0  0  0  0  0  0  0  0  0  0
   -0.0010    0.7501    0.0000 C   0  0  0  0  0  0  0  0  0  0  0  0
    1.2996    1.4990    0.0000 C   0  0  0  0  0  0  0  0  0  0  0  0
   -1.2989    1.5021    0.0000 C   0  0  0  0  0  0  0  0  0  0  0  0
    5.1974    0.7484    0.0000 C   0  0  0  0  0  0  0  0  0  0  0  0
    2.5988    0.7492    0.0000 C   0  0  0  0  0  0  0  0  0  0  0  0
   -2.5992    0.7543    0.0000 F   0  0  0  0  0  0  0  0  0  0  0  0
    2.5993   -0.7516    0.0000 N   0  0  0  0  0  0  0  0  0  0  0  0
    3.8978    1.4992    0.0000 N   0  0  0  0  0  0  0  0  0  0  0  0
    6.4964    1.4984    0.0000 O   0  0  0  0  0  0  0  0  0  0  0  0
  2  1  2  0
  3  1  1  0
  5  4  2  0
  7  2  1  0
  7  6  2  0
  8  3  2  0
  8  6  1  0
  9  4  1  0
 10  7  1  0
 11  8  1  0
 12  5  1  0
 12 10  2  0
 13  9  2  0
 13 10  1  0
 14  9  1  0
M  END
>  <NAME>  (5022) 
2-(3-FLUOROPHENYL)-3,4-DIHYDROPYRIMIDIN-4-ONE

>  <SYNONYMS>  (5022) 


>  <SPECTRUM TYPE>  (5022) 
MS1

>  <INSTRUMENT TYPE>  (5022) 
EI-B

>  <INSTRUMENT>  (5022) 
MS-902

>  <ION MODE>  (5022) 
P

>  <INCHIKEY>  (5022) 
ARWFGZSZTLFUEI-UHFFFAOYSA-N

>  <FORMULA>  (5022) 
C10H7FN2O

>  <EXACT MASS>  (5022) 
190.054241064

>  <MW>  (5022) 
190

>  <ID>  (5022) 
JP004452

>  <CONTRIBUTOR>  (5022) 
University of Tokyo Team, {Faculty of Engineering, University of Tokyo

>  <COMMENT>  (5022) 
SMILES=O=C(C=2)NC(=NC2)c(c1)cc(F)cc1
InChI=InChI=1S/C10H7FN2O/c11-8-3-1-2-7(6-8)10-12-5-4-9(14)13-10/h1-6H,(H,12,13,14)
computed SMILES=FC1=CC=CC(=C1)C2=NC=CC(O)=N2
accession=JP004452
date=2016.01.19 (Created 2008.10.21, modified 2011.05.06)
author=SASAKI S, TOYOHASHI UNIV. OF TECH.
license=CC BY-NC-SA
exact mass=190.05424
ionization energy=70 eV
ion type=[M]+*
computed spectral entropy=2.700992453150802
computed normalized entropy=0.6199616638606368
SPLASH=splash10-00dr-4900000000-24701840c4ab8ad7565d
submitter=submitter = University of Tokyo Team (Faculty of Engineering, University of Tokyo)
MoNA Rating=3.75

>  <NUM PEAKS>  (5022) 
78

>  <MASS SPECTRAL PEAKS>  (5022) 
49 5.8
50 5.6
51 3.4
52 0.2
53 0.7
55 2
55.5 0.6
56 0.15
57 1.8
59 0.5
60 4.7
61 0.21
62 1.3
63 1.7
64 0.6
65 0.07
67.5 1.5
68 3.5
68.5 0.5
69 0.12
70 1.6
71 1.3
73 1
74 0.2
75 11.2
76 1.1
81 0.3
82 0.1
83 2.2
84 1
85 1
86 0.07
87 0.5
88 0.5
91 0.7
92 0.06
93 0.2
94 8.7
95 38.4
96 0.65
97 0.4
98 0.6
99 0.5
101 0.1
102 0.5
106 0.5
107 1.4
108 0.14
110 0.1
111 1.5
113 0.5
115 0.05
120 1.1
121 16.4
122 99.99
123 0.81
124 0.7
126 0.6
130 0.6
133 0.06
134 1.4
135 2.4
136 1
137 0.21
138 60.2
139 6.6
140 0.5
146 0.14
147 0.5
161 1
162 7.3
163 0.13
173 0.9
174 0.5
189 1.4
190 7.6
191 8
192 0.5

$$$$

     RDKit          2D

 14 15  0  0  0  0  0  0  0  0999 V2000
    2.5989    3.0002    0.0000 C   0  0  0  0  0  0  0  0  0  0  0  0
    3.8989    0.7502    0.0000 C   0  0  0  0  0  0  0  0  0  0  0  0
    3.8989    3.7502    0.0000 C   0  0  0  0  0  0  0  0  0  0  0  0
    5.1989    1.5002    0.0000 C   0  0  0  0  0  0  0  0  0  0  0  0
   -1.3000   -0.7500    0.0000 C   0  0  0  0  0  0  0  0  0  0  0  0
   -1.3000    0.7500    0.0000 C   0  0  0  0  0  0  0  0  0  0  0  0
    2.5989    1.5002    0.0000 C   0  0  0  0  0  0  0  0  0  0  0  0
    5.1989    3.0002    0.0000 C   0  0  0  0  0  0  0  0  0  0  0  0
   -0.0000   -1.5000    0.0000 C   0  0  0  0  0  0  0  0  0  0  0  0
    1.3000    0.7500    0.0000 C   0  0  0  0  0  0  0  0  0  0  0  0
    6.4978    3.7504    0.0000 F   0  0  0  0  0  0  0  0  0  0  0  0
    0.0000    1.5000    0.0000 N   0  0  0  0  0  0  0  0  0  0  0  0
    1.3000   -0.7500    0.0000 N   0  0  0  0  0  0  0  0  0  0  0  0
   -0.0000   -3.0000    0.0000 O   0  0  0  0  0  0  0  0  0  0  0  0
  3  1  2  0
  4  2  1  0
  6  5  2  0
  7  1  1  0
  7  2  2  0
  8  3  1  0
  8  4  2  0
  9  5  1  0
 10  7  1  0
 11  8  1  0
 12  6  1  0
 12 10  1  0
 13  9  1  0
 13 10  2  0
 14  9  2  0
M  END
>  <NAME>  (5023) 
2-(4-FLUOROPHENYL)-3,4-DIHYDROPYRIMIDIN-4-ONE

>  <SYNONYMS>  (5023) 


>  <SPECTRUM TYPE>  (5023) 
MS1

>  <INSTRUMENT TYPE>  (5023) 
EI-B

>  <INSTRUMENT>  (5023) 
MS-902

>  <ION MODE>  (5023) 
P

>  <INCHIKEY>  (5023) 
SLVBPLUHJQMEAO-UHFFFAOYSA-N

>  <FORMULA>  (5023) 
C10H7FN2O

>  <EXACT MASS>  (5023) 
190.054241064

>  <MW>  (5023) 
190

>  <ID>  (5023) 
JP004451

>  <CONTRIBUTOR>  (5023) 
University of Tokyo Team, {Faculty of Engineering, University of Tokyo

>  <COMMENT>  (5023) 
SMILES=Fc(c2)ccc(c2)C(=N1)NC(=O)C=C1
InChI=InChI=1S/C10H7FN2O/c11-8-3-1-7(2-4-8)10-12-6-5-9(14)13-10/h1-6H,(H,12,13,14)
computed SMILES=O=C1N=C(NC=C1)C=2C=CC(F)=CC2
accession=JP004451
date=2016.01.19 (Created 2008.10.21, modified 2011.05.06)
author=SASAKI S, TOYOHASHI UNIV. OF TECH.
license=CC BY-NC-SA
exact mass=190.05424
ionization energy=70 eV
ion type=[M]+*
computed spectral entropy=2.4880215352902053
computed normalized entropy=0.6101774832279708
SPLASH=splash10-0006-3900000000-67d01762d498bb2a2174
submitter=submitter = University of Tokyo Team (Faculty of Engineering, University of Tokyo)
MoNA Rating=3.75

>  <NUM PEAKS>  (5023) 
59

>  <MASS SPECTRAL PEAKS>  (5023) 
53 0.8
57 2.2
60 1.3
61 0.11
62 0.9
64 0.7
65 0.5
67.5 0.11
68 2.7
69 0.6
70 1.7
71 0.11
73 0.8
74 1.5
75 8.4
81.5 0.07
82 1.1
83 2.6
85 1.6
86 0.07
87 0.6
91 0.7
93 0.5
94 0.76
95 26.9
96 3.1
97 0.6
99 0.07
104 0.6
106 0.6
107 1.8
108 0.13
111 0.7
120 1.1
121 8.2
122 8.81
123 7.4
124 0.7
134 1.3
135 0.52
136 0.8
137 1.1
138 18.6
139 0.19
143 0.5
146 1.8
147 0.8
149 0.39
152 0.6
161 1.1
162 8.5
163 0.15
167 0.5
173 1.4
174 0.6
189 0.14
190 99.99
191 9.5
192 0.7

$$$$

     RDKit          2D

 14 15  0  0  0  0  0  0  0  0999 V2000
    5.1981    0.7504    0.0000 C   0  0  0  0  0  0  0  0  0  0  0  0
   -1.3000    3.0000    0.0000 C   0  0  0  0  0  0  0  0  0  0  0  0
    3.8989    1.5002    0.0000 C   0  0  0  0  0  0  0  0  0  0  0  0
   -2.6000   -0.7500    0.0000 C   0  0  0  0  0  0  0  0  0  0  0  0
   -2.6000    0.7500    0.0000 C   0  0  0  0  0  0  0  0  0  0  0  0
   -1.3000   -1.5000    0.0000 C   0  0  0  0  0  0  0  0  0  0  0  0
    2.6000   -0.7500    0.0000 C   0  0  0  0  0  0  0  0  0  0  0  0
   -1.3000    1.5000    0.0000 C   0  0  0  0  0  0  0  0  0  0  0  0
    2.6000    0.7500    0.0000 C   0  0  0  0  0  0  0  0  0  0  0  0
    0.0000   -0.7500    0.0000 C   0  0  0  0  0  0  0  0  0  0  0  0
    1.3000    1.5000    0.0000 C   0  0  0  0  0  0  0  0  0  0  0  0
    1.3000   -1.5000    0.0000 N   0  0  0  0  0  0  0  0  0  0  0  0
    0.0000    0.7500    0.0000 N   0  0  0  0  0  0  0  0  0  0  0  0
    1.3000    3.0000    0.0000 O   0  0  0  0  0  0  0  0  0  0  0  0
  3  1  1  0
  5  4  1  0
  6  4  2  0
  8  2  1  0
  8  5  2  0
  9  3  1  0
  9  7  2  0
 10  6  1  0
 11  9  1  0
 12  7  1  0
 12 10  2  0
 13  8  1  0
 13 10  1  0
 13 11  1  0
 14 11  2  0
M  END
>  <NAME>  (5024) 
3-ETHYL-6-METHYL-4H-PYRIDO(1,2-A)PYRIMIDIN-4-ONE

>  <SYNONYMS>  (5024) 


>  <SPECTRUM TYPE>  (5024) 
MS1

>  <INSTRUMENT TYPE>  (5024) 
EI-B

>  <INSTRUMENT>  (5024) 
MS-902

>  <ION MODE>  (5024) 
P

>  <INCHIKEY>  (5024) 
JWAOHFWSXYKAAQ-UHFFFAOYSA-N

>  <FORMULA>  (5024) 
C11H12N2O

>  <EXACT MASS>  (5024) 
188.094963004

>  <MW>  (5024) 
188

>  <ID>  (5024) 
JP004450

>  <CONTRIBUTOR>  (5024) 
University of Tokyo Team, {Faculty of Engineering, University of Tokyo

>  <COMMENT>  (5024) 
SMILES=CCC(=C1)C(=O)N(C(C)=2)C(C=CC2)=N1
InChI=InChI=1S/C11H12N2O/c1-3-9-7-12-10-6-4-5-8(2)13(10)11(9)14/h4-7H,3H2,1-2H3
computed SMILES=O=C1C(=CN=C2C=CC=C(N21)C)CC
accession=JP004450
date=2016.01.19 (Created 2008.10.21, modified 2011.05.06)
author=SASAKI S, TOYOHASHI UNIV. OF TECH.
license=CC BY-NC-SA
exact mass=188.09496
ionization energy=70 eV
ion type=[M]+*
computed spectral entropy=2.415847284386222
computed normalized entropy=0.717444325168165
SPLASH=splash10-000i-6900000000-60135d66db3f2dafa9ef
submitter=submitter = University of Tokyo Team (Faculty of Engineering, University of Tokyo)
MoNA Rating=3.75

>  <NUM PEAKS>  (5024) 
29

>  <MASS SPECTRAL PEAKS>  (5024) 
39 14.8
41 4
51 3.4
52 0.35
53 2.5
55 3.7
63 2.5
64 0.4
65 24.6
66 6.8
72 2.2
72.5 0.22
78 2.2
91 4
92 49.2
93 1.6
119 5.2
132 2.9
143 3.7
145 8.46
146 8.6
159 8.8
160 5.2
173 7.85
174 9.5
187 3.1
188 99.99
189 1.23
190 0.6

$$$$

     RDKit          2D

 14 15  0  0  0  0  0  0  0  0999 V2000
   -2.5990    3.7500    0.0000 C   0  0  0  0  0  0  0  0  0  0  0  0
    3.8989   -1.5002    0.0000 C   0  0  0  0  0  0  0  0  0  0  0  0
   -1.3000    3.0000    0.0000 C   0  0  0  0  0  0  0  0  0  0  0  0
   -2.6000   -0.7500    0.0000 C   0  0  0  0  0  0  0  0  0  0  0  0
   -2.6000    0.7500    0.0000 C   0  0  0  0  0  0  0  0  0  0  0  0
   -1.3000   -1.5000    0.0000 C   0  0  0  0  0  0  0  0  0  0  0  0
    2.6000    0.7500    0.0000 C   0  0  0  0  0  0  0  0  0  0  0  0
    2.6000   -0.7500    0.0000 C   0  0  0  0  0  0  0  0  0  0  0  0
   -1.3000    1.5000    0.0000 C   0  0  0  0  0  0  0  0  0  0  0  0
    0.0000   -0.7500    0.0000 C   0  0  0  0  0  0  0  0  0  0  0  0
    1.3000    1.5000    0.0000 C   0  0  0  0  0  0  0  0  0  0  0  0
    1.3000   -1.5000    0.0000 N   0  0  0  0  0  0  0  0  0  0  0  0
    0.0000    0.7500    0.0000 N   0  0  0  0  0  0  0  0  0  0  0  0
    1.3000    3.0000    0.0000 O   0  0  0  0  0  0  0  0  0  0  0  0
  3  1  1  0
  5  4  1  0
  6  4  2  0
  8  2  1  0
  8  7  2  0
  9  3  1  0
  9  5  2  0
 10  6  1  0
 11  7  1  0
 12  8  1  0
 12 10  2  0
 13  9  1  0
 13 10  1  0
 13 11  1  0
 14 11  2  0
M  END
>  <NAME>  (5025) 
6-ETHYL-2-METHYL-4H-PYRIDO(1,2-A)PYRIMIDIN-4-ONE

>  <SYNONYMS>  (5025) 


>  <SPECTRUM TYPE>  (5025) 
MS1

>  <INSTRUMENT TYPE>  (5025) 
EI-B

>  <INSTRUMENT>  (5025) 
MS-902

>  <ION MODE>  (5025) 
P

>  <INCHIKEY>  (5025) 
FMOMCNYIHPIKJZ-UHFFFAOYSA-N

>  <FORMULA>  (5025) 
C11H12N2O

>  <EXACT MASS>  (5025) 
188.094963004

>  <MW>  (5025) 
188

>  <ID>  (5025) 
JP004449

>  <CONTRIBUTOR>  (5025) 
University of Tokyo Team, {Faculty of Engineering, University of Tokyo

>  <COMMENT>  (5025) 
SMILES=CCC(=C2)N(C(=O)1)C(C=C2)=NC(C)=C1
InChI=InChI=1S/C11H12N2O/c1-3-9-5-4-6-10-12-8(2)7-11(14)13(9)10/h4-7H,3H2,1-2H3
computed SMILES=O=C1C=C(N=C2C=CC=C(N12)CC)C
accession=JP004449
date=2016.01.19 (Created 2008.10.21, modified 2011.05.06)
author=SASAKI S, TOYOHASHI UNIV. OF TECH.
license=CC BY-NC-SA
exact mass=188.09496
ionization energy=70 eV
ion type=[M]+*
computed spectral entropy=2.8316861766442614
computed normalized entropy=0.7676277340768861
SPLASH=splash10-002r-4900000000-04a1ae64b159644bb0cc
submitter=submitter = University of Tokyo Team (Faculty of Engineering, University of Tokyo)
MoNA Rating=3.75

>  <NUM PEAKS>  (5025) 
40

>  <MASS SPECTRAL PEAKS>  (5025) 
39 18.6
40 4.6
50 6
51 1.29
52 11.7
63 3.7
65 5.7
66 0.46
67 4.9
73 6
76 4.6
77 3.43
78 68.6
79 25.7
86 5.1
91 0.43
92 7.1
94 4.6
104 11.1
106 1.37
107 4
121 2.9
132 14.3
133 0.26
143 3.4
144 2.9
145 45.7
146 1
149 2
159 65.7
160 65.7
161 0.71
171 20
172 4.6
173 2.6
174 0.49
187 15.4
188 99.99
189 12.6
190 0.7

$$$$

     RDKit          2D

 14 15  0  0  0  0  0  0  0  0999 V2000
   -3.5724   -3.1876    0.0000 C   0  0  0  0  0  0  0  0  0  0  0  0
   -2.2729   -3.9384    0.0000 C   0  0  0  0  0  0  0  0  0  0  0  0
   -3.5729   -1.6867    0.0000 C   0  0  0  0  0  0  0  0  0  0  0  0
   -0.9738   -3.1884    0.0000 C   0  0  0  0  0  0  0  0  0  0  0  0
   -2.2738   -0.9367    0.0000 C   0  0  0  0  0  0  0  0  0  0  0  0
    0.3242    0.5633    0.0000 C   0  0  0  0  0  0  0  0  0  0  0  0
    1.6233    1.3133    0.0000 C   0  0  0  0  0  0  0  0  0  0  0  0
   -0.9743   -1.6876    0.0000 C   0  0  0  0  0  0  0  0  0  0  0  0
    0.3247   -0.9376    0.0000 C   0  0  0  0  0  0  0  0  0  0  0  0
    2.9233   -0.9384    0.0000 C   0  0  0  0  0  0  0  0  0  0  0  0
    4.2224   -1.6882    0.0000 N   0  0  0  0  0  0  0  0  0  0  0  0
    1.6242   -1.6884    0.0000 N   0  0  0  0  0  0  0  0  0  0  0  0
    2.9228    0.5624    0.0000 N   0  0  0  0  0  0  0  0  0  0  0  0
    4.2218    1.3124    0.0000 O   0  0  0  0  0  0  0  0  0  0  0  0
  2  1  2  0
  3  1  1  0
  4  2  1  0
  5  3  2  0
  7  6  1  0
  8  4  2  0
  8  5  1  0
  9  6  2  0
  9  8  1  0
 11 10  2  0
 12  9  1  0
 12 10  1  0
 13  7  2  0
 13 10  1  0
 14 13  1  0
M  CHG  2  13   1  14  -1
M  END
>  <NAME>  (5026) 
2-AMINO-4PHENYLPYRIMIDINE-1-OXIDE

>  <SYNONYMS>  (5026) 


>  <SPECTRUM TYPE>  (5026) 
MS1

>  <INSTRUMENT TYPE>  (5026) 
EI-B

>  <INSTRUMENT>  (5026) 
MS-902

>  <ION MODE>  (5026) 
P

>  <INCHIKEY>  (5026) 
YWRVUPYBXNCILR-UHFFFAOYSA-N

>  <FORMULA>  (5026) 
C10H9N3O

>  <EXACT MASS>  (5026) 
187.074561908

>  <MW>  (5026) 
187

>  <ID>  (5026) 
JP004448

>  <CONTRIBUTOR>  (5026) 
University of Tokyo Team, {Faculty of Engineering, University of Tokyo

>  <COMMENT>  (5026) 
SMILES=[O-1][n+1](c2)c(N)nc(c2)c(c1)cccc1
InChI=InChI=1S/C10H9N3O/c11-10-12-9(6-7-13(10)14)8-4-2-1-3-5-8/h1-7H,(H2,11,12)
computed SMILES=O=N1=CC=C(NC1=N)C=2C=CC=CC2
accession=JP004448
date=2016.01.19 (Created 2008.10.21, modified 2011.05.06)
author=SASAKI S, TOYOHASHI UNIV. OF TECH.
license=CC BY-NC-SA
exact mass=187.07456
ionization energy=70 eV
ion type=[M]+*
computed spectral entropy=2.9906018829060828
computed normalized entropy=0.6466204243009174
SPLASH=splash10-000i-1900000000-c8028eaf8ea04aa3a507
submitter=submitter = University of Tokyo Team (Faculty of Engineering, University of Tokyo)
MoNA Rating=3.75

>  <NUM PEAKS>  (5026) 
102

>  <MASS SPECTRAL PEAKS>  (5026) 
41 1.8
42 1
43 1
44 0.16
45 0.8
50 1.9
51 3.6
52 0.1
53 0.5
54 0.3
55 1
56 0.06
57 1
60 0.4
61 0.2
62 0.08
63 2.3
64 0.5
65 1.3
66 0.05
67 1.1
68 0.6
69 0.6
70 0.04
71 0.5
71.5 0.5
72 0.2
73 0.04
74 0.9
75 1.5
76 3.2
77 1
78 1.5
79 0.5
81 0.4
82 0.03
83 0.4
84 0.1
84.5 0.6
85 0.27
85.5 0.9
86 0.3
87 0.5
88 0.08
89 3.6
90 3.2
91 1.8
92 0.03
93 0.2
93.5 2.3
94 0.7
95 0.07
100 0.3
101 2.1
102 5
103 0.27
104 7.7
105 12.3
106 0.9
111 0.23
113 0.8
114 1.2
115 5.7
116 0.41
117 5.1
118 1
119 0.2
127 0.05
128 5.7
129 3.2
130 1
131 0.09
132 0.4
140 0.3
141 0.7
142 0.1
143 1.7
144 1.6
145 1.4
146 0.7
147 0.8
149 0.2
150 0.6
152 0.03
153 0.5
155 1
156 0.5
157 0.05
159 0.2
160 0.4
161 0.8
162 0.03
164 0.5
168 0.4
169 7.3
170 3.32
171 23.6
172 3.3
186 25
187 99.99
188 13.2
189 1

$$$$

     RDKit          2D

 12 12  0  0  0  0  0  0  0  0999 V2000
   -3.3491   -0.2013    0.0000 C   0  0  0  0  0  0  0  0  0  0  0  0
   -3.8978   -2.2504    0.0000 C   0  0  0  0  0  0  0  0  0  0  0  0
   -1.8487   -2.7991    0.0000 C   0  0  0  0  0  0  0  0  0  0  0  0
   -0.0000   -1.5000    0.0000 C   0  0  0  0  0  0  0  0  0  0  0  0
   -1.3000   -0.7500    0.0000 C   0  0  0  0  0  0  0  0  0  0  0  0
   -1.3000    0.7500    0.0000 C   0  0  0  0  0  0  0  0  0  0  0  0
    1.3000    0.7500    0.0000 C   0  0  0  0  0  0  0  0  0  0  0  0
    1.3000   -0.7500    0.0000 N   0  0  0  0  0  0  0  0  0  0  0  0
    0.0000    1.5000    0.0000 N   0  0  0  0  0  0  0  0  0  0  0  0
   -2.5989    1.5002    0.0000 O   0  0  0  0  0  0  0  0  0  0  0  0
    2.5989    1.5002    0.0000 O   0  0  0  0  0  0  0  0  0  0  0  0
   -2.5989   -1.5002    0.0000 Si  0  0  0  0  0  4  0  0  0  0  0  0
  5  4  2  0
  6  5  1  0
  8  4  1  0
  8  7  2  0
  9  6  2  0
  9  7  1  0
 10  6  1  0
 11  7  1  0
 12  1  1  0
 12  2  1  0
 12  3  1  0
 12  5  1  0
M  END
>  <NAME>  (5027) 
5-TRIMETHYLSILYL-1,2,3,4-TETRAHYDROPYRIMIDINE-2,4-DIONE

>  <SYNONYMS>  (5027) 
5-TRIMETHYLSILYLURACIL

>  <SPECTRUM TYPE>  (5027) 
MS1

>  <INSTRUMENT TYPE>  (5027) 
EI-B

>  <INSTRUMENT>  (5027) 
Unknown

>  <ION MODE>  (5027) 
P

>  <INCHIKEY>  (5027) 
ZBCOQAVPBYMQCH-UHFFFAOYSA-N

>  <FORMULA>  (5027) 
C7H12N2O2Si

>  <EXACT MASS>  (5027) 
184.066804154

>  <MW>  (5027) 
184

>  <ID>  (5027) 
JP004447

>  <CONTRIBUTOR>  (5027) 
University of Tokyo Team, {Faculty of Engineering, University of Tokyo

>  <COMMENT>  (5027) 
SMILES=O=C(N1)NC(=O)C(=C1)[Si](C)(C)C
InChI=InChI=1S/C7H12N2O2Si/c1-12(2,3)5-4-8-7(11)9-6(5)10/h4H,1-3H3,(H2,8,9,10,11)
computed SMILES=OC1=NC=C(C(O)=N1)[Si](C)(C)C
accession=JP004447
date=2016.01.19 (Created 2008.10.21, modified 2011.05.06)
author=SASAKI S, TOYOHASHI UNIV. OF TECH.
license=CC BY-NC-SA
exact mass=184.0668
ionization energy=70 eV
ion type=[M]+*
computed spectral entropy=1.9983595706374795
computed normalized entropy=0.576604688494338
SPLASH=splash10-014i-2900000000-5a5c0dd72ab61398d7b9
submitter=submitter = University of Tokyo Team (Faculty of Engineering, University of Tokyo)
MoNA Rating=3.75

>  <NUM PEAKS>  (5027) 
32

>  <MASS SPECTRAL PEAKS>  (5027) 
43 4.4
44 2
45 2.8
47 0.15
52 1.5
53 2.2
55 1.7
59 0.21
69 1.4
70 1
73 1.9
74 4.29
75 6.7
76 1.6
77 1.8
83 0.37
84 1.1
99 1.8
100 7.6
101 0.11
110 1.4
112 0.8
126 1.8
129 0.15
149 1.8
153 0.9
158 1.5
169 99.99
170 11.1
171 3.5
184 9.4
185 1.2

$$$$

     RDKit          2D

 12 12  0  0  0  0  0  0  0  0999 V2000
    2.5989   -0.7496    0.0000 C   0  0  0  0  0  0  0  0  0  0  0  0
    1.2995    1.5002    0.0000 C   0  0  0  0  0  0  0  0  0  0  0  0
   -3.8972   -0.0004    0.0000 C   0  0  0  0  0  0  0  0  0  0  0  0
   -2.5972   -2.2504    0.0000 C   0  0  0  0  0  0  0  0  0  0  0  0
    0.0008   -0.7500    0.0000 C   0  0  0  0  0  0  0  0  0  0  0  0
   -2.5972   -0.7504    0.0000 C   0  0  0  0  0  0  0  0  0  0  0  0
   -5.1972   -2.2504    0.0000 C   0  0  0  0  0  0  0  0  0  0  0  0
   -6.4962   -3.0006    0.0000 Cl  0  0  0  0  0  0  0  0  0  0  0  0
   -5.1972   -0.7504    0.0000 N   0  0  0  0  0  0  0  0  0  0  0  0
   -3.8972   -3.0004    0.0000 N   0  0  0  0  0  0  0  0  0  0  0  0
   -1.2983   -0.0002    0.0000 N   0  0  0  0  0  0  0  0  0  0  0  0
    1.2998    0.0002    0.0000 N   0  0  0  0  0  0  0  0  0  0  0  0
  6  3  2  0
  6  4  1  0
  8  7  1  0
  9  3  1  0
  9  7  2  0
 10  4  2  0
 10  7  1  0
  5 11  2  0
 11  6  1  0
 12  1  1  0
 12  2  1  0
 12  5  1  0
M  END
>  <NAME>  (5028) 
2-CHLORO-5-DIMETHYLAMINOMETHYLENEAMINOPYRIMIDINE

>  <SYNONYMS>  (5028) 


>  <SPECTRUM TYPE>  (5028) 
MS1

>  <INSTRUMENT TYPE>  (5028) 
EI-B

>  <INSTRUMENT>  (5028) 
MS-902

>  <ION MODE>  (5028) 
P

>  <INCHIKEY>  (5028) 
PIJYDARGDRWFFF-VZUCSPMQSA-N

>  <FORMULA>  (5028) 
C7H9ClN4

>  <EXACT MASS>  (5028) 
184.05157396799999

>  <MW>  (5028) 
184

>  <ID>  (5028) 
JP004446

>  <CONTRIBUTOR>  (5028) 
University of Tokyo Team, {Faculty of Engineering, University of Tokyo

>  <COMMENT>  (5028) 
SMILES=CN(C)C=Nc(c1)cnc(Cl)n1
InChI=InChI=1S/C7H9ClN4/c1-12(2)5-11-6-3-9-7(8)10-4-6/h3-5H,1-2H3/b11-5+
computed SMILES=ClC1=NC=C(N=CN(C)C)C=N1
accession=JP004446
date=2016.01.19 (Created 2008.10.21, modified 2011.05.06)
author=SASAKI S, TOYOHASHI UNIV. OF TECH.
license=CC BY-NC-SA
exact mass=184.05157
ionization energy=70 eV
ion type=[M]+*
computed spectral entropy=3.4334710157207575
computed normalized entropy=0.6999548793500588
SPLASH=splash10-0006-8900000000-7e594a3ad51d6eefb000
submitter=submitter = University of Tokyo Team (Faculty of Engineering, University of Tokyo)
MoNA Rating=3.75

>  <NUM PEAKS>  (5028) 
135

>  <MASS SPECTRAL PEAKS>  (5028) 
36 4.6
37 0.3
38 1.4
39 0.12
40 2.3
41 4.2
42 34.4
43 0.56
44 99.99
45 7.9
46 2
47 0.06
50 0.6
51 5
52 11.8
53 0.18
54 3.4
55 1.3
56 1.3
57 2.15
58 2
61 0.3
62 2.2
63 0.02
64 0.7
65 0.5
66 0.6
67 0.1
68 1.8
69 1.4
70 0.5
71 0.06
73 0.5
74 0.5
75 1.4
76 0.05
77 2.1
78 0.7
78.5 9
79 0.32
79.5 3
80 2.3
81 4
82 0.06
83 0.9
84 0.2
86 8.3
87 0.04
88 2.8
89 0.2
90 0.2
91 0.05
92 1
93 0.5
94 0.3
95 0.18
96 0.9
97 0.3
98 0.5
100 0.08
101 0.7
102 0.4
103 0.2
104 0.06
105 0.4
106 1.8
107 1
108 0.81
109 0.6
111 0.6
112 0.3
113 1.13
114 1.5
115 4
116 0.7
117 0.04
118 0.4
119 0.2
120 1
121 0.06
122 4
123 0.6
125 0.2
126 0.03
127 1.4
128 2.6
129 0.8
130 0.08
131 0.4
132 1.1
133 1.3
134 0.05
137 0.6
138 0.5
139 0.4
140 1.83
141 3
142 35.4
143 3.3
144 1
145 0.8
147 0.9
148 0.5
149 1.6
150 1.3
153 0.3
154 5.2
155 0.15
156 14.8
157 2.1
158 4.6
159 0.06
160 1
161 0.1
164 0.2
165 0.06
166 0.4
167 4.2
168 8.5
169 3.56
170 5.5
171 10.8
172 0.8
173 0.03
174 1.3
175 1.6
176 0.2
178 0.02
181 0.5
182 0.4
183 56
184 7.71
185 25
186 26
187 2.3

$$$$

     RDKit          2D

 13 14  0  0  0  0  0  0  0  0999 V2000
    3.8989    1.5002    0.0000 C   0  0  0  0  0  0  0  0  0  0  0  0
   -1.3000    3.0000    0.0000 C   0  0  0  0  0  0  0  0  0  0  0  0
   -2.6000   -0.7500    0.0000 C   0  0  0  0  0  0  0  0  0  0  0  0
   -2.6000    0.7500    0.0000 C   0  0  0  0  0  0  0  0  0  0  0  0
   -1.3000   -1.5000    0.0000 C   0  0  0  0  0  0  0  0  0  0  0  0
    2.6000   -0.7500    0.0000 C   0  0  0  0  0  0  0  0  0  0  0  0
    2.6000    0.7500    0.0000 C   0  0  0  0  0  0  0  0  0  0  0  0
   -1.3000    1.5000    0.0000 C   0  0  0  0  0  0  0  0  0  0  0  0
    0.0000   -0.7500    0.0000 C   0  0  0  0  0  0  0  0  0  0  0  0
    1.3000    1.5000    0.0000 C   0  0  0  0  0  0  0  0  0  0  0  0
    1.3000   -1.5000    0.0000 N   0  0  0  0  0  0  0  0  0  0  0  0
    0.0000    0.7500    0.0000 N   0  0  0  0  0  0  0  0  0  0  0  0
    1.3000    3.0000    0.0000 O   0  0  0  0  0  0  0  0  0  0  0  0
  4  3  1  0
  5  3  1  0
  7  1  1  0
  7  6  2  0
  8  2  1  0
  8  4  1  0
  9  5  1  0
 10  7  1  0
 11  6  1  0
 11  9  2  0
 12  8  1  0
 12  9  1  0
 12 10  1  0
 13 10  2  0
M  END
>  <NAME>  (5029) 
3,6-DIMEYHYL-6,7,8,9-TETRAHYDRO-4H-PYRIDO(1,2-A)PYRIMIDIN-4-ONE

>  <SYNONYMS>  (5029) 


>  <SPECTRUM TYPE>  (5029) 
MS1

>  <INSTRUMENT TYPE>  (5029) 
EI-B

>  <INSTRUMENT>  (5029) 
MS-902

>  <ION MODE>  (5029) 
P

>  <INCHIKEY>  (5029) 
QLENPRKQIFCBST-UHFFFAOYSA-N

>  <FORMULA>  (5029) 
C10H14N2O

>  <EXACT MASS>  (5029) 
178.11061306800002

>  <MW>  (5029) 
178

>  <ID>  (5029) 
JP004445

>  <CONTRIBUTOR>  (5029) 
University of Tokyo Team, {Faculty of Engineering, University of Tokyo

>  <COMMENT>  (5029) 
SMILES=CC(=C1)C(=O)N(C(C)2)C(CCC2)=N1
InChI=InChI=1S/C10H14N2O/c1-7-6-11-9-5-3-4-8(2)12(9)10(7)13/h6,8H,3-5H2,1-2H3
computed SMILES=O=C1C(=CN=C2N1C(C)CCC2)C
accession=JP004445
date=2016.01.19 (Created 2008.10.21, modified 2011.05.06)
author=SASAKI S, TOYOHASHI UNIV. OF TECH.
license=CC BY-NC-SA
exact mass=178.11061
ionization energy=70 eV
ion type=[M]+*
computed spectral entropy=2.5626232566670115
computed normalized entropy=0.7462530009779762
SPLASH=splash10-004i-2900000000-3a53ec48b9af023cf18f
submitter=submitter = University of Tokyo Team (Faculty of Engineering, University of Tokyo)
MoNA Rating=3.75

>  <NUM PEAKS>  (5029) 
31

>  <MASS SPECTRAL PEAKS>  (5029) 
38 6
39 16.7
41 14.3
42 0.5
53 6.2
54 9.8
55 9.5
67 0.33
68 3.6
80 2.9
81 2.6
84 0.79
92 2.9
94 1.9
95 2.1
96 0.21
110 1.9
122 2.4
123 5.7
124 6.43
125 4.3
135 3.1
136 11.9
137 1.31
149 14.3
150 4.8
163 38.1
164 0.36
177 45.2
178 99.99
179 11.9

$$$$

     RDKit          2D

 13 14  0  0  0  0  0  0  0  0999 V2000
    3.8989    1.5002    0.0000 C   0  0  0  0  0  0  0  0  0  0  0  0
   -1.3000    3.0000    0.0000 C   0  0  0  0  0  0  0  0  0  0  0  0
   -2.6000   -0.7500    0.0000 C   0  0  0  0  0  0  0  0  0  0  0  0
   -2.6000    0.7500    0.0000 C   0  0  0  0  0  0  0  0  0  0  0  0
   -1.3000   -1.5000    0.0000 C   0  0  0  0  0  0  0  0  0  0  0  0
    2.6000   -0.7500    0.0000 C   0  0  0  0  0  0  0  0  0  0  0  0
    2.6000    0.7500    0.0000 C   0  0  0  0  0  0  0  0  0  0  0  0
   -1.3000    1.5000    0.0000 C   0  0  0  0  0  0  0  0  0  0  0  0
    0.0000   -0.7500    0.0000 C   0  0  0  0  0  0  0  0  0  0  0  0
    1.3000    1.5000    0.0000 C   0  0  0  0  0  0  0  0  0  0  0  0
    1.3000   -1.5000    0.0000 N   0  0  0  0  0  0  0  0  0  0  0  0
    0.0000    0.7500    0.0000 N   0  0  0  0  0  0  0  0  0  0  0  0
    1.3000    3.0000    0.0000 O   0  0  0  0  0  0  0  0  0  0  0  0
  4  3  1  0
  5  3  2  0
  7  1  1  0
  7  6  2  0
  8  2  1  0
  8  4  2  0
  9  5  1  0
 10  7  1  0
 11  6  1  0
 11  9  2  0
 12  8  1  0
 12  9  1  0
 12 10  1  0
 13 10  2  0
M  END
>  <NAME>  (5030) 
3,6-DIMETHYL-4H-PYRIDO(1,2-A)PYRIMIDIN-4-ONE

>  <SYNONYMS>  (5030) 


>  <SPECTRUM TYPE>  (5030) 
MS1

>  <INSTRUMENT TYPE>  (5030) 
EI-B

>  <INSTRUMENT>  (5030) 
MS-902

>  <ION MODE>  (5030) 
P

>  <INCHIKEY>  (5030) 
VNZAABOALQMGKL-UHFFFAOYSA-N

>  <FORMULA>  (5030) 
C10H10N2O

>  <EXACT MASS>  (5030) 
174.07931294

>  <MW>  (5030) 
174

>  <ID>  (5030) 
JP004444

>  <CONTRIBUTOR>  (5030) 
University of Tokyo Team, {Faculty of Engineering, University of Tokyo

>  <COMMENT>  (5030) 
SMILES=CC(=C1)C(=O)N(C(C)=2)C(C=CC2)=N1
InChI=InChI=1S/C10H10N2O/c1-7-6-11-9-5-3-4-8(2)12(9)10(7)13/h3-6H,1-2H3
computed SMILES=O=C1C(=CN=C2C=CC=C(N21)C)C
accession=JP004444
date=2016.01.19 (Created 2008.10.21, modified 2011.05.06)
author=SASAKI S, TOYOHASHI UNIV. OF TECH.
license=CC BY-NC-SA
exact mass=174.07931
ionization energy=70 eV
ion type=[M]+*
computed spectral entropy=2.366822961011006
computed normalized entropy=0.6769105798868428
SPLASH=splash10-00dm-7900000000-2cfb7600dfa341741a53
submitter=submitter = University of Tokyo Team (Faculty of Engineering, University of Tokyo)
MoNA Rating=3.75

>  <NUM PEAKS>  (5030) 
33

>  <MASS SPECTRAL PEAKS>  (5030) 
38 4
39 23.3
40 4
41 0.33
51 4
52 5
53 2.7
54 0.27
58 3
63 4
64 6.7
65 3
66 9.7
77 2.3
78 3.3
87 0.17
91 5.3
92 60
93 30
94 0.17
105 1.3
118 3
119 3.3
131 0.2
143 1.7
144 3
145 80
146 5.33
147 4.7
173 2.7
174 99.99
175 1.1
176 0.7

$$$$

     RDKit          2D

 13 14  0  0  0  0  0  0  0  0999 V2000
    3.8989   -1.5002    0.0000 C   0  0  0  0  0  0  0  0  0  0  0  0
   -1.3000    3.0000    0.0000 C   0  0  0  0  0  0  0  0  0  0  0  0
   -2.6000   -0.7500    0.0000 C   0  0  0  0  0  0  0  0  0  0  0  0
   -2.6000    0.7500    0.0000 C   0  0  0  0  0  0  0  0  0  0  0  0
   -1.3000   -1.5000    0.0000 C   0  0  0  0  0  0  0  0  0  0  0  0
    2.6000    0.7500    0.0000 C   0  0  0  0  0  0  0  0  0  0  0  0
    2.6000   -0.7500    0.0000 C   0  0  0  0  0  0  0  0  0  0  0  0
   -1.3000    1.5000    0.0000 C   0  0  0  0  0  0  0  0  0  0  0  0
    0.0000   -0.7500    0.0000 C   0  0  0  0  0  0  0  0  0  0  0  0
    1.3000    1.5000    0.0000 C   0  0  0  0  0  0  0  0  0  0  0  0
    1.3000   -1.5000    0.0000 N   0  0  0  0  0  0  0  0  0  0  0  0
    0.0000    0.7500    0.0000 N   0  0  0  0  0  0  0  0  0  0  0  0
    1.3000    3.0000    0.0000 O   0  0  0  0  0  0  0  0  0  0  0  0
  4  3  1  0
  5  3  2  0
  7  1  1  0
  7  6  2  0
  8  2  1  0
  8  4  2  0
  9  5  1  0
 10  6  1  0
 11  7  1  0
 11  9  2  0
 12  8  1  0
 12  9  1  0
 12 10  1  0
 13 10  2  0
M  END
>  <NAME>  (5031) 
2,6-DIMETHYL-4H-PYRIDO(1,2-A)PYRIMIDIN-4-ONE

>  <SYNONYMS>  (5031) 


>  <SPECTRUM TYPE>  (5031) 
MS1

>  <INSTRUMENT TYPE>  (5031) 
EI-B

>  <INSTRUMENT>  (5031) 
MS-902

>  <ION MODE>  (5031) 
P

>  <INCHIKEY>  (5031) 
UPQKNTNJVQSGIH-UHFFFAOYSA-N

>  <FORMULA>  (5031) 
C10H10N2O

>  <EXACT MASS>  (5031) 
174.07931294

>  <MW>  (5031) 
174

>  <ID>  (5031) 
JP004443

>  <CONTRIBUTOR>  (5031) 
University of Tokyo Team, {Faculty of Engineering, University of Tokyo

>  <COMMENT>  (5031) 
SMILES=CC(=C1)N=C(C=2)N(C(C)=CC2)C(=O)1
InChI=InChI=1S/C10H10N2O/c1-7-6-10(13)12-8(2)4-3-5-9(12)11-7/h3-6H,1-2H3
computed SMILES=O=C1C=C(N=C2C=CC=C(N12)C)C
accession=JP004443
date=2016.01.19 (Created 2008.10.21, modified 2011.05.06)
author=SASAKI S, TOYOHASHI UNIV. OF TECH.
license=CC BY-NC-SA
exact mass=174.07931
ionization energy=70 eV
ion type=[M]+*
computed spectral entropy=2.3139203238343415
computed normalized entropy=0.6803252102656668
SPLASH=splash10-00dm-4900000000-a4df8f1aed70775d6683
submitter=submitter = University of Tokyo Team (Faculty of Engineering, University of Tokyo)
MoNA Rating=3.75

>  <NUM PEAKS>  (5031) 
30

>  <MASS SPECTRAL PEAKS>  (5031) 
38 3.8
39 23.5
40 4.6
51 0.32
52 3.5
63 3.1
64 5.6
65 2.94
66 6.6
67 3.2
78 2.4
87 0.47
91 3.1
92 38.2
93 17.6
104 0.16
107 1.5
118 2.6
119 1.6
131 0.59
133 0.6
135 1.5
144 2.4
145 3.97
146 85.3
147 8.2
173 10.3
174 99.99
175 11.2
176 0.3

$$$$

     RDKit          2D

 13 14  0  0  0  0  0  0  0  0999 V2000
    2.2708   -5.4308    0.0000 C   0  0  0  0  0  0  0  0  0  0  0  0
    0.9730   -4.6786    0.0000 C   0  0  0  0  0  0  0  0  0  0  0  0
    3.5666   -4.6908    0.0000 C   0  0  0  0  0  0  0  0  0  0  0  0
   -1.6275   -3.1872    0.0000 C   0  0  0  0  0  0  0  0  0  0  0  0
   -2.9266   -2.4372    0.0000 C   0  0  0  0  0  0  0  0  0  0  0  0
    2.2718   -2.4378    0.0000 C   0  0  0  0  0  0  0  0  0  0  0  0
   -1.6266   -0.1856    0.0000 C   0  0  0  0  0  0  0  0  0  0  0  0
    0.9710   -3.1864    0.0000 C   0  0  0  0  0  0  0  0  0  0  0  0
    3.5696   -3.1899    0.0000 C   0  0  0  0  0  0  0  0  0  0  0  0
   -0.3280   -2.4364    0.0000 C   0  0  0  0  0  0  0  0  0  0  0  0
    4.8700   -2.4423    0.0000 F   0  0  0  0  0  0  0  0  0  0  0  0
   -2.9261   -0.9364    0.0000 N   0  0  0  0  0  0  0  0  0  0  0  0
   -0.3275   -0.9356    0.0000 N   0  0  0  0  0  0  0  0  0  0  0  0
  2  1  2  0
  3  1  1  0
  5  4  2  0
  8  2  1  0
  8  6  2  0
  9  3  2  0
  9  6  1  0
 10  4  1  0
 10  8  1  0
 11  9  1  0
 12  5  1  0
 12  7  2  0
 13  7  1  0
 13 10  2  0
M  END
>  <NAME>  (5032) 
4-(3-FLUOROPHENYL)PYRIMIDINE

>  <SYNONYMS>  (5032) 


>  <SPECTRUM TYPE>  (5032) 
MS1

>  <INSTRUMENT TYPE>  (5032) 
EI-B

>  <INSTRUMENT>  (5032) 
MS-902

>  <ION MODE>  (5032) 
P

>  <INCHIKEY>  (5032) 
WHCSLDOSGQOORQ-UHFFFAOYSA-N

>  <FORMULA>  (5032) 
C10H7FN2

>  <EXACT MASS>  (5032) 
174.059326444

>  <MW>  (5032) 
174

>  <ID>  (5032) 
JP004442

>  <CONTRIBUTOR>  (5032) 
University of Tokyo Team, {Faculty of Engineering, University of Tokyo

>  <COMMENT>  (5032) 
SMILES=Fc(c2)cc(cc2)c(c1)ncnc1
InChI=InChI=1S/C10H7FN2/c11-9-3-1-2-8(6-9)10-4-5-12-7-13-10/h1-7H
computed SMILES=FC1=CC=CC(=C1)C=2N=CN=CC2
ion type=[M]+*
accession=JP004442
date=2016.01.19 (Created 2008.10.21, modified 2011.05.06)
author=SASAKI S, TOYOHASHI UNIV. OF TECH.
license=CC BY-NC-SA
exact mass=174.05933
ionization energy=70 eV
computed spectral entropy=2.1714554372919386
computed normalized entropy=0.5927170461526049
SPLASH=splash10-00di-1900000000-bb37ec1e84b2ceef2b57
submitter=submitter = University of Tokyo Team (Faculty of Engineering, University of Tokyo)
MoNA Rating=3.75

>  <NUM PEAKS>  (5032) 
39

>  <MASS SPECTRAL PEAKS>  (5032) 
39 0.8
44 2.9
45 1.1
49 0.05
50 1.7
52 3.4
53 7.4
57 0.14
60 2.2
60.5 0.6
61 0.5
62 0.06
67 0.8
68 1.2
73 0.5
74 0.31
75 4
76 0.8
77 0.5
79 0.06
87 1.4
94 5.8
95 3.1
96 0.08
98 0.5
99 2.2
118 0.6
120 3
121 12.6
122 2.5
126 2.9
127 0.05
146 4.3
147 55
148 5.4
155 0.05
173 5.1
174 99.99
175 10.8

$$$$

     RDKit          2D

 13 14  0  0  0  0  0  0  0  0999 V2000
    0.0004   -4.5006    0.0000 C   0  0  0  0  0  0  0  0  0  0  0  0
   -1.2992   -2.2504    0.0000 C   0  0  0  0  0  0  0  0  0  0  0  0
   -1.2997   -5.2504    0.0000 C   0  0  0  0  0  0  0  0  0  0  0  0
   -2.5994   -3.0002    0.0000 C   0  0  0  0  0  0  0  0  0  0  0  0
    1.2992   -0.7497    0.0000 C   0  0  0  0  0  0  0  0  0  0  0  0
    2.5982    0.0003    0.0000 C   0  0  0  0  0  0  0  0  0  0  0  0
    3.8982   -2.2514    0.0000 C   0  0  0  0  0  0  0  0  0  0  0  0
    0.0006   -3.0006    0.0000 C   0  0  0  0  0  0  0  0  0  0  0  0
   -2.5996   -4.5002    0.0000 C   0  0  0  0  0  0  0  0  0  0  0  0
    1.2997   -2.2506    0.0000 C   0  0  0  0  0  0  0  0  0  0  0  0
   -3.8986   -5.2502    0.0000 F   0  0  0  0  0  0  0  0  0  0  0  0
    3.8977   -0.7506    0.0000 N   0  0  0  0  0  0  0  0  0  0  0  0
    2.5992   -3.0014    0.0000 N   0  0  0  0  0  0  0  0  0  0  0  0
  3  1  2  0
  4  2  1  0
  6  5  2  0
  8  1  1  0
  8  2  2  0
  9  3  1  0
  9  4  2  0
 10  5  1  0
 10  8  1  0
 11  9  1  0
 12  6  1  0
 12  7  2  0
 13  7  1  0
 13 10  2  0
M  END
>  <NAME>  (5033) 
4-(4-FLUOROPHENYL)PYRIMIDINE

>  <SYNONYMS>  (5033) 


>  <SPECTRUM TYPE>  (5033) 
MS1

>  <INSTRUMENT TYPE>  (5033) 
EI-B

>  <INSTRUMENT>  (5033) 
MS-902

>  <ION MODE>  (5033) 
P

>  <INCHIKEY>  (5033) 
DPALDESLDSLUGD-UHFFFAOYSA-N

>  <FORMULA>  (5033) 
C10H7FN2

>  <EXACT MASS>  (5033) 
174.059326444

>  <MW>  (5033) 
174

>  <ID>  (5033) 
JP004441

>  <CONTRIBUTOR>  (5033) 
University of Tokyo Team, {Faculty of Engineering, University of Tokyo

>  <COMMENT>  (5033) 
SMILES=Fc(c2)ccc(c2)c(c1)ncnc1
InChI=InChI=1S/C10H7FN2/c11-9-3-1-8(2-4-9)10-5-6-12-7-13-10/h1-7H
computed SMILES=FC=1C=CC(=CC1)C=2N=CN=CC2
accession=JP004441
date=2016.01.19 (Created 2008.10.21, modified 2011.05.06)
author=SASAKI S, TOYOHASHI UNIV. OF TECH.
license=CC BY-NC-SA
exact mass=174.05933
ionization energy=70 eV
ion type=[M]+*
computed spectral entropy=2.1405314501536603
computed normalized entropy=0.5884483160433699
SPLASH=splash10-00di-1900000000-2eedaad8b62eb7005f88
submitter=submitter = University of Tokyo Team (Faculty of Engineering, University of Tokyo)
MoNA Rating=3.75

>  <NUM PEAKS>  (5033) 
38

>  <MASS SPECTRAL PEAKS>  (5033) 
44 1.1
49 0.7
50 1.5
52 0.14
53 7.9
54 0.7
57 1.3
60 0.15
61 0.8
62 1.3
63 1.3
68 0.09
69 1.4
73 0.8
74 3.8
75 0.25
87 1.7
94 4.6
95 2.1
96 0.09
98 0.6
99 2.6
117 0.7
118 0.07
120 38.5
121 11.8
122 2.7
123 0.08
126 0.9
127 0.8
146 1.3
147 6.11
148 5.1
149 0.7
163 0.7
173 5.19
174 99.99
175 12.3

$$$$

     RDKit          2D

 13 14  0  0  0  0  0  0  0  0999 V2000
    5.1925    1.5041    0.0000 C   0  0  0  0  0  0  0  0  0  0  0  0
   -1.3000   -0.7500    0.0000 C   0  0  0  0  0  0  0  0  0  0  0  0
    3.8923    0.7561    0.0000 C   0  0  0  0  0  0  0  0  0  0  0  0
    5.1993    2.9963    0.0000 C   0  0  0  0  0  0  0  0  0  0  0  0
   -1.3000    0.7500    0.0000 C   0  0  0  0  0  0  0  0  0  0  0  0
   -0.0000   -1.5000    0.0000 C   0  0  0  0  0  0  0  0  0  0  0  0
    2.6007    3.0010    0.0000 C   0  0  0  0  0  0  0  0  0  0  0  0
    2.5989    1.5002    0.0000 C   0  0  0  0  0  0  0  0  0  0  0  0
    3.9009    3.7491    0.0000 C   0  0  0  0  0  0  0  0  0  0  0  0
    1.3000    0.7500    0.0000 C   0  0  0  0  0  0  0  0  0  0  0  0
    3.9034    5.2491    0.0000 F   0  0  0  0  0  0  0  0  0  0  0  0
   -0.0000    1.5000    0.0000 N   0  0  0  0  0  0  0  0  0  0  0  0
    1.3000   -0.7500    0.0000 N   0  0  0  0  0  0  0  0  0  0  0  0
  3  1  2  0
  4  1  1  0
  5  2  2  0
  6  2  1  0
  8  3  1  0
  8  7  2  0
  9  4  2  0
  9  7  1  0
 10  8  1  0
 11  9  1  0
 12  5  1  0
 12 10  2  0
 13  6  2  0
 13 10  1  0
M  END
>  <NAME>  (5034) 
2-(3-FLUOROPHENYL)PYRIMIDINE

>  <SYNONYMS>  (5034) 


>  <SPECTRUM TYPE>  (5034) 
MS1

>  <INSTRUMENT TYPE>  (5034) 
EI-B

>  <INSTRUMENT>  (5034) 
MS-902

>  <ION MODE>  (5034) 
P

>  <INCHIKEY>  (5034) 
AWFZHOCQRKLVCJ-UHFFFAOYSA-N

>  <FORMULA>  (5034) 
C10H7FN2

>  <EXACT MASS>  (5034) 
174.059326444

>  <MW>  (5034) 
174

>  <ID>  (5034) 
JP004440

>  <CONTRIBUTOR>  (5034) 
University of Tokyo Team, {Faculty of Engineering, University of Tokyo

>  <COMMENT>  (5034) 
SMILES=Fc(c2)cc(cc2)c(n1)nccc1
InChI=InChI=1S/C10H7FN2/c11-9-4-1-3-8(7-9)10-12-5-2-6-13-10/h1-7H
computed SMILES=FC1=CC=CC(=C1)C2=NC=CC=N2
accession=JP004440
date=2016.01.19 (Created 2008.10.21, modified 2011.05.06)
author=SASAKI S, TOYOHASHI UNIV. OF TECH.
license=CC BY-NC-SA
exact mass=174.05933
ionization energy=70 eV
ion type=[M]+*
computed spectral entropy=1.8542046212950398
computed normalized entropy=0.49930487088691267
SPLASH=splash10-00di-1900000000-10e0bf34199d3aacf20b
submitter=submitter = University of Tokyo Team (Faculty of Engineering, University of Tokyo)
MoNA Rating=3.75

>  <NUM PEAKS>  (5034) 
41

>  <MASS SPECTRAL PEAKS>  (5034) 
44 1.5
50 1.4
51 1.7
52 0.2
53 1.3
55 0.7
56 1.5
57 0.08
63 0.5
68 0.7
69 0.7
70 0.13
74 1
75 2.8
76 0.9
77 0.41
81 0.7
83 0.5
86 0.7
87 0.56
87.5 0.5
93 1
94 7
95 0.43
99 0.5
101 0.5
109 0.5
113 0.09
114 2.8
120 1.1
121 54.3
122 0.74
132 1
146 1.7
147 8.2
148 0.13
164 0.5
173 8.4
174 99.99
175 0.99
176 0.7

$$$$

     RDKit          2D

 13 14  0  0  0  0  0  0  0  0999 V2000
   -1.3000   -0.7500    0.0000 C   0  0  0  0  0  0  0  0  0  0  0  0
    2.5989    3.0002    0.0000 C   0  0  0  0  0  0  0  0  0  0  0  0
    3.8989    0.7502    0.0000 C   0  0  0  0  0  0  0  0  0  0  0  0
    3.8989    3.7502    0.0000 C   0  0  0  0  0  0  0  0  0  0  0  0
    5.1989    1.5002    0.0000 C   0  0  0  0  0  0  0  0  0  0  0  0
   -1.3000    0.7500    0.0000 C   0  0  0  0  0  0  0  0  0  0  0  0
   -0.0000   -1.5000    0.0000 C   0  0  0  0  0  0  0  0  0  0  0  0
    2.5989    1.5002    0.0000 C   0  0  0  0  0  0  0  0  0  0  0  0
    5.1989    3.0002    0.0000 C   0  0  0  0  0  0  0  0  0  0  0  0
    1.3000    0.7500    0.0000 C   0  0  0  0  0  0  0  0  0  0  0  0
    6.4978    3.7504    0.0000 F   0  0  0  0  0  0  0  0  0  0  0  0
    0.0000    1.5000    0.0000 N   0  0  0  0  0  0  0  0  0  0  0  0
    1.3000   -0.7500    0.0000 N   0  0  0  0  0  0  0  0  0  0  0  0
  4  2  2  0
  5  3  1  0
  6  1  2  0
  7  1  1  0
  8  2  1  0
  8  3  2  0
  9  4  1  0
  9  5  2  0
 10  8  1  0
 11  9  1  0
 12  6  1  0
 12 10  2  0
 13  7  2  0
 13 10  1  0
M  END
>  <NAME>  (5035) 
2-(4-FLUOROPHENYL)PYRIMIDINE

>  <SYNONYMS>  (5035) 


>  <SPECTRUM TYPE>  (5035) 
MS1

>  <INSTRUMENT TYPE>  (5035) 
EI-B

>  <INSTRUMENT>  (5035) 
MS-902

>  <ION MODE>  (5035) 
P

>  <INCHIKEY>  (5035) 
OAJZNBBXWMPPNU-UHFFFAOYSA-N

>  <FORMULA>  (5035) 
C10H7FN2

>  <EXACT MASS>  (5035) 
174.059326444

>  <MW>  (5035) 
174

>  <ID>  (5035) 
JP004439

>  <CONTRIBUTOR>  (5035) 
University of Tokyo Team, {Faculty of Engineering, University of Tokyo

>  <COMMENT>  (5035) 
SMILES=Fc(c2)ccc(c2)c(n1)nccc1
InChI=InChI=1S/C10H7FN2/c11-9-4-2-8(3-5-9)10-12-6-1-7-13-10/h1-7H
computed SMILES=FC=1C=CC(=CC1)C2=NC=CC=N2
accession=JP004439
date=2016.01.19 (Created 2008.10.21, modified 2011.05.06)
author=SASAKI S, TOYOHASHI UNIV. OF TECH.
license=CC BY-NC-SA
exact mass=174.05933
ionization energy=70 eV
ion type=[M]+*
computed spectral entropy=1.8378807158937254
computed normalized entropy=0.5211834419833677
SPLASH=splash10-00di-1900000000-88c5204730acf3544677
submitter=submitter = University of Tokyo Team (Faculty of Engineering, University of Tokyo)
MoNA Rating=3.75

>  <NUM PEAKS>  (5035) 
34

>  <MASS SPECTRAL PEAKS>  (5035) 
46 0.5
50 0.6
52 2.6
53 0.11
56 0.6
57 1.6
61 0.5
63 0.05
63.5 0.6
68 1.1
74 1.4
75 0.34
76 0.7
77 3.5
79 0.5
86 0.06
87 7.1
87.5 1
94 8.3
95 0.43
96 0.7
99 0.5
102 0.6
120 0.13
121 63.6
122 8.3
123 0.7
126 0.06
146 2.2
147 7.3
148 1
173 0.96
174 99.99
175 9.1

$$$$

     RDKit          2D

 11 11  0  0  0  0  0  0  0  0999 V2000
    3.3491    0.2013    0.0000 C   0  0  0  0  0  0  0  0  0  0  0  0
   -0.0000   -1.5000    0.0000 C   0  0  0  0  0  0  0  0  0  0  0  0
   -1.3000    0.7500    0.0000 C   0  0  0  0  0  0  0  0  0  0  0  0
   -1.3000   -0.7500    0.0000 C   0  0  0  0  0  0  0  0  0  0  0  0
    1.3000    0.7500    0.0000 C   0  0  0  0  0  0  0  0  0  0  0  0
   -2.5989   -1.5002    0.0000 N   0  0  0  0  0  0  0  0  0  0  0  0
    1.3000   -0.7500    0.0000 N   0  0  0  0  0  0  0  0  0  0  0  0
    0.0000    1.5000    0.0000 N   0  0  0  0  0  0  0  0  0  0  0  0
    3.8978    2.2504    0.0000 O   0  0  0  0  0  0  0  0  0  0  0  0
    1.8487    2.7991    0.0000 O   0  0  0  0  0  0  0  0  0  0  0  0
    2.5989    1.5002    0.0000 S   0  0  0  0  0  0  0  0  0  0  0  0
  4  2  2  0
  4  3  1  0
  6  4  1  0
  7  2  1  0
  7  5  2  0
  8  3  2  0
  8  5  1  0
 11  1  1  0
 11  5  1  0
 11  9  2  0
 11 10  2  0
M  END
>  <NAME>  (5036) 
5-AMINO-2-MESYLPYRIMIDINE

>  <SYNONYMS>  (5036) 


>  <SPECTRUM TYPE>  (5036) 
MS1

>  <INSTRUMENT TYPE>  (5036) 
EI-B

>  <INSTRUMENT>  (5036) 
MS-902

>  <ION MODE>  (5036) 
P

>  <INCHIKEY>  (5036) 
ZELVQVPQIRFOQU-UHFFFAOYSA-N

>  <FORMULA>  (5036) 
C5H7N3O2S

>  <EXACT MASS>  (5036) 
173.025897464

>  <MW>  (5036) 
173

>  <ID>  (5036) 
JP004438

>  <CONTRIBUTOR>  (5036) 
University of Tokyo Team, {Faculty of Engineering, University of Tokyo

>  <COMMENT>  (5036) 
SMILES=Nc(c1)cnc(n1)S(C)(=O)=O
InChI=InChI=1S/C5H7N3O2S/c1-11(9,10)5-7-2-4(6)3-8-5/h2-3H,6H2,1H3
computed SMILES=O=S(=O)(C1=NC=C(N)C=N1)C
accession=JP004438
date=2016.01.19 (Created 2008.10.21, modified 2011.05.06)
author=SASAKI S, TOYOHASHI UNIV. OF TECH.
license=CC BY-NC-SA
exact mass=173.0259
ionization energy=70 eV
ion type=[M]+*
computed spectral entropy=2.9142280072467477
computed normalized entropy=0.6399443982822492
SPLASH=splash10-03xr-9400000000-349419601683188df522
submitter=submitter = University of Tokyo Team (Faculty of Engineering, University of Tokyo)
MoNA Rating=3.75

>  <NUM PEAKS>  (5036) 
95

>  <MASS SPECTRAL PEAKS>  (5036) 
36 1.8
38 2.9
39 10
40 4.69
41 32.7
42 8.1
43 7
44 0.19
45 5.7
46 2.1
47 1.6
48 0.3
49 0.3
50 0.3
51 1.1
52 0.43
53 7.6
54 2.8
55 14.9
56 0.55
57 1.5
58 0.2
59 0.4
60 0.08
62 0.2
63 5.7
64 10.4
65 0.21
66 17.1
67 99.99
68 8
69 0.21
70 0.7
71 0.9
72 0.6
73 0.03
74 0.5
75 0.6
76 0.3
77 0.09
78 0.2
79 5.3
80 0.9
81 0.13
82 21.4
83 49
84 2.8
85 0.05
87 0.4
90 0.2
91 0.2
93 0.08
94 54.1
95 6.3
96 0.8
97 0.05
98 0.3
99 0.5
102 0.4
103 0.04
104 0.6
106 0.6
108 1.1
109 0.4
110 86.7
111 94.9
112 6.1
113 0.05
115 1.4
120 0.2
122 0.5
123 0.02
124 1
125 0.4
126 0.5
136 0.02
137 0.2
138 0.2
139 2
141 0.4
142 1
143 0.03
145 0.3
149 0.18
150 0.2
152 0.2
153 0.3
158 0.33
159 0.2
160 0.2
167 0.4
173 5.92
174 6.7
175 3.7
176 0.4

$$$$

     RDKit          2D

 10 10  0  0  0  0  0  0  0  0999 V2000
   -2.5989   -1.5002    0.0000 C   0  0  0  0  0  0  0  0  0  0  0  0
    1.3000    0.7500    0.0000 C   0  0  0  0  0  0  0  0  0  0  0  0
   -1.3000   -0.7500    0.0000 C   0  0  0  0  0  0  0  0  0  0  0  0
   -1.3000    0.7500    0.0000 C   0  0  0  0  0  0  0  0  0  0  0  0
   -0.0000   -1.5000    0.0000 C   0  0  0  0  0  0  0  0  0  0  0  0
   -2.5989    1.5002    0.0000 Cl  0  0  0  0  0  0  0  0  0  0  0  0
   -0.0000   -3.0000    0.0000 Cl  0  0  0  0  0  0  0  0  0  0  0  0
   -3.8978   -2.2504    0.0000 N   0  0  0  0  0  0  0  0  0  0  0  0
    0.0000    1.5000    0.0000 N   0  0  0  0  0  0  0  0  0  0  0  0
    1.3000   -0.7500    0.0000 N   0  0  0  0  0  0  0  0  0  0  0  0
  3  1  1  0
  4  3  2  0
  5  3  1  0
  6  4  1  0
  7  5  1  0
  8  1  3  0
  9  2  2  0
  9  4  1  0
 10  2  1  0
 10  5  2  0
M  END
>  <NAME>  (5037) 
4,6-DICHLORO-5-CYANOPYRIMIDINE

>  <SYNONYMS>  (5037) 


>  <SPECTRUM TYPE>  (5037) 
MS1

>  <INSTRUMENT TYPE>  (5037) 
EI-B

>  <INSTRUMENT>  (5037) 
MS-902

>  <ION MODE>  (5037) 
P

>  <INCHIKEY>  (5037) 
IPEBKIMUIHKZJP-UHFFFAOYSA-N

>  <FORMULA>  (5037) 
C5HCl2N3

>  <EXACT MASS>  (5037) 
172.954752392

>  <MW>  (5037) 
173

>  <ID>  (5037) 
JP004437

>  <CONTRIBUTOR>  (5037) 
University of Tokyo Team, {Faculty of Engineering, University of Tokyo

>  <COMMENT>  (5037) 
SMILES=N#Cc(c(Cl)1)c(Cl)ncn1
InChI=InChI=1S/C5HCl2N3/c6-4-3(1-8)5(7)10-2-9-4/h2H
computed SMILES=N#CC=1C(Cl)=NC=NC1Cl
accession=JP004437
date=2016.01.19 (Created 2008.10.21, modified 2011.05.06)
author=SASAKI S, TOYOHASHI UNIV. OF TECH.
license=CC BY-NC-SA
exact mass=172.95475
ionization energy=70 eV
ion type=[M]+*
computed spectral entropy=2.604341495217586
computed normalized entropy=0.6335250317249308
SPLASH=splash10-00b9-5900000000-6f8d1e5bf2d5f8385ea6
submitter=submitter = University of Tokyo Team (Faculty of Engineering, University of Tokyo)
MoNA Rating=3.75

>  <NUM PEAKS>  (5037) 
61

>  <MASS SPECTRAL PEAKS>  (5037) 
39 1.7
40 0.3
41 0.3
42 0.07
44 1.5
47 6.1
48 1.1
49 0.18
50 7.4
51 4.5
52 1.5
53 0.06
56 1.5
57 0.5
59 0.7
61 0.15
62 2.9
63 0.5
64 0.9
67 0.07
71 0.5
72 0.6
73 3.8
74 0.19
75 0.5
76 29.9
77 52.6
78 0.24
79 0.3
85 23.7
86 1.3
87 0.86
88 0.5
89 0.4
94 0.9
95 0.05
102 0.7
104 0.3
105 0.2
106 0.03
107 0.3
111 20.7
112 5.7
113 0.66
114 1.7
123 0.6
124 1.2
138 6.71
139 4.9
140 22.9
141 1.3
142 0.03
153 1
154 0.1
155 0.4
173 99.99
174 7.7
175 65.7
176 5
177 1.14
178 0.7

$$$$

     RDKit          2D

 12 12  0  0  0  0  0  0  0  0999 V2000
   -2.5989   -0.3306    0.0000 C   0  0  0  0  0  0  0  0  0  0  0  0
   -0.0006   -1.8302    0.0000 C   0  0  0  0  0  0  0  0  0  0  0  0
   -1.3000    0.4196    0.0000 C   0  0  0  0  0  0  0  0  0  0  0  0
    1.2981    1.9200    0.0000 C   0  0  0  0  0  0  0  0  0  0  0  0
   -0.0008   -0.3302    0.0000 C   0  0  0  0  0  0  0  0  0  0  0  0
    1.2981    0.4200    0.0000 C   0  0  0  0  0  0  0  0  0  0  0  0
    2.5981   -0.3300    0.0000 C   0  0  0  0  0  0  0  0  0  0  0  0
    3.8981    1.9200    0.0000 C   0  0  0  0  0  0  0  0  0  0  0  0
    2.5981    2.6700    0.0000 N   0  0  0  0  0  0  0  0  0  0  0  0
    3.8981    0.4200    0.0000 N   0  0  0  0  0  0  0  0  0  0  0  0
    2.5981   -1.8300    0.0000 O   0  0  0  0  0  0  0  0  0  0  0  0
    5.1970    2.6702    0.0000 O   0  0  0  0  0  0  0  0  0  0  0  0
  3  1  1  0
  5  2  1  0
  5  3  1  0
  6  4  2  0
  6  5  1  0
  7  6  1  0
  9  4  1  0
  9  8  2  0
 10  7  2  0
 10  8  1  0
 11  7  1  0
 12  8  1  0
M  END
>  <NAME>  (5038) 
5-SEC-BUTYL-1,2,3,4-TETRAHYDROPYRIMIDINE-2,4-DIONE

>  <SYNONYMS>  (5038) 
5-SEC-BUTYLURACIL

>  <SPECTRUM TYPE>  (5038) 
MS1

>  <INSTRUMENT TYPE>  (5038) 
EI-B

>  <INSTRUMENT>  (5038) 
MS-902

>  <ION MODE>  (5038) 
P

>  <INCHIKEY>  (5038) 
WJJQDMCCKSOEST-UHFFFAOYSA-N

>  <FORMULA>  (5038) 
C8H12N2O2

>  <EXACT MASS>  (5038) 
168.089877624

>  <MW>  (5038) 
168

>  <ID>  (5038) 
JP004436

>  <CONTRIBUTOR>  (5038) 
University of Tokyo Team, {Faculty of Engineering, University of Tokyo

>  <COMMENT>  (5038) 
SMILES=CCC(C)C(=C1)C(=O)NC(=O)N1
InChI=InChI=1S/C8H12N2O2/c1-3-5(2)6-4-9-8(12)10-7(6)11/h4-5H,3H2,1-2H3,(H2,9,10,11,12)
computed SMILES=OC1=NC=C(C(O)=N1)C(C)CC
accession=JP004436
date=2016.01.19 (Created 2008.10.21, modified 2011.05.06)
author=SASAKI S, TOYOHASHI UNIV. OF TECH.
license=CC BY-NC-SA
exact mass=168.08988
ionization energy=70 eV
ion type=[M]+*
computed spectral entropy=2.6503114656779254
computed normalized entropy=0.6238235692125871
SPLASH=splash10-000j-9800000000-18dcfe704b4313881d40
submitter=submitter = University of Tokyo Team (Faculty of Engineering, University of Tokyo)
MoNA Rating=3.75

>  <NUM PEAKS>  (5038) 
70

>  <MASS SPECTRAL PEAKS>  (5038) 
36 2.1
37 0.6
38 1.6
39 1.56
40 3.5
41 20.2
42 4.1
43 0.11
44 3.6
50 1
51 2
52 0.25
53 7.1
54 8.7
55 3
56 0.08
57 0.3
62 0.2
63 0.4
64 0.03
65 1.6
66 1.9
67 5.8
68 1.47
69 5.4
70 1.8
71 0.5
76 0.04
76.5 0.8
77 0.8
78 1.1
79 0.07
80 3.4
81 3.1
82 7.3
83 0.06
84 0.3
92 0.4
93 0.2
94 0.05
95 0.6
96 58.2
97 3.6
98 0.03
108 0.4
109 0.3
110 6.7
111 0.06
112 0.3
113 0.7
114 0.3
122 0.02
123 0.6
124 0.5
125 3.8
126 0.35
127 0.2
137 0.2
138 0.5
139 99.99
140 10
141 0.8
151 0.5
152 0.02
153 9.8
158 0.8
167 0.7
168 1.88
169 1.9
170 0.2

$$$$

     RDKit          2D

 13 15  0  0  0  0  0  0  0  0999 V2000
    2.3500   -2.0300    0.0000 C   0  0  0  0  0  0  0  0  0  0  0  0
    1.6700   -0.7000    0.0000 C   0  0  0  0  0  0  0  0  0  0  0  0
   -0.9400    2.4100    0.0000 C   0  0  0  0  0  0  0  0  0  0  0  0
   -2.2300    1.6600    0.0000 C   0  0  0  0  0  0  0  0  0  0  0  0
   -0.5200   -2.0400    0.0000 C   0  0  0  0  0  0  0  0  0  0  0  0
    1.0500   -1.2800    0.0000 C   0  0  0  0  0  0  0  0  0  0  0  0
    0.3600    0.0700    0.0000 C   0  0  0  0  0  0  0  0  0  0  0  0
    0.3600    1.6600    0.0000 C   0  0  0  0  0  0  0  0  0  0  0  0
   -0.9400   -0.5900    0.0000 C   0  0  0  0  0  0  0  0  0  0  0  0
   -2.2300    0.1600    0.0000 C   0  0  0  0  0  0  0  0  0  0  0  0
    1.0500    0.7100    0.0000 C   0  0  0  0  0  0  0  0  0  0  0  0
   -3.5302   -0.5880    0.0000 O   0  0  0  0  0  0  0  0  0  0  0  0
    2.4766    1.1734    0.0000 O   0  0  0  0  0  0  0  0  0  0  0  0
  2  1  1  0
  4  3  1  0
  6  1  1  0
  6  5  1  0
  7  2  1  0
  8  3  1  0
  8  7  1  0
  9  5  1  0
  9  7  1  0
 10  4  1  0
 10  9  1  0
 11  6  1  0
 11  8  1  0
 12 10  2  0
 13 11  2  0
M  END
>  <NAME>  (5039) 
TRICYCLO(5,3,1,0(3,8))UNDECANE-4,11-DIONE

>  <SYNONYMS>  (5039) 


>  <SPECTRUM TYPE>  (5039) 
MS1

>  <INSTRUMENT TYPE>  (5039) 
EI-B

>  <INSTRUMENT>  (5039) 
JEOL JMS-DX-300

>  <ION MODE>  (5039) 
P

>  <INCHIKEY>  (5039) 
KXAJCRZRVFLWNW-UHFFFAOYSA-N

>  <FORMULA>  (5039) 
C11H14O2

>  <EXACT MASS>  (5039) 
178.099379688

>  <MW>  (5039) 
178

>  <ID>  (5039) 
JP004381

>  <CONTRIBUTOR>  (5039) 
University of Tokyo Team, {Faculty of Engineering, University of Tokyo

>  <COMMENT>  (5039) 
SMILES=O=C(C3)C(C1)C(C2)C(C3)C(=O)C(C2)1
InChI=InChI=1S/C11H14O2/c12-10-4-3-8-7-2-1-6(11(8)13)5-9(7)10/h6-9H,1-5H2
computed SMILES=O=C1CCC2C(=O)C3CCC2C1C3
accession=JP004381
date=2016.01.19 (Created 2008.10.21, modified 2011.05.06)
author=HAGIWARA H, CHEM. RES. INST. OF NON-AQUEOUS SOLUTIONS, TOHOKU UNIV.
license=CC BY-NC-SA
exact mass=178.09938
ionization energy=70 eV
ion type=[M]+*
computed spectral entropy=3.5847172986882345
computed normalized entropy=0.8866366170538821
SPLASH=splash10-0059-9600000000-a14901b416bedf63cfe4
submitter=submitter = University of Tokyo Team (Faculty of Engineering, University of Tokyo)
MoNA Rating=3.75

>  <NUM PEAKS>  (5039) 
57

>  <MASS SPECTRAL PEAKS>  (5039) 
39 29.86
41 26.72
42 3.03
50 2.19
51 7.6
52 4.92
53 17.91
54 9.43
55 50.83
63 2.17
65 9.41
66 15.11
67 26.34
68 12.09
69 2.02
77 20.12
78 15.77
79 57.07
80 46.15
81 33.64
82 10.9
83 5.04
84 2.32
91 2.01
92 7.7
93 24.23
94 20.66
95 27.87
96 44.08
99 8.48
100 9.06
104 0.73
105 7.21
106 6.6
107 19.32
108 14.43
109 5.95
110 3.28
113 10.31
118 6.66
119 3.2
121 10.98
122 42.12
123 7.23
124 23.51
131 4.83
132 3.3
133 3.02
135 6.03
136 15.68
137 3.52
149 8.49
150 48.49
151 5.56
164 2.69
178 99.99
179 14.17

$$$$

     RDKit          2D

 25 27  0  0  1  0  0  0  0  0999 V2000
    4.3587    4.4502    0.0000 C   0  0  0  0  0  0  0  0  0  0  0  0
    5.6581    2.2004    0.0000 C   0  0  0  0  0  0  0  0  0  0  0  0
   -3.0941   -3.4492    0.0000 C   0  0  0  0  0  0  0  0  0  0  0  0
   -1.1659   -3.4492    0.0000 C   0  0  0  0  0  0  0  0  0  0  0  0
   -3.4381    5.9456    0.0000 C   0  0  0  0  0  0  0  0  0  0  0  0
   -3.4300   -0.0500    0.0000 C   0  0  0  0  0  0  0  0  0  0  0  0
    1.7600   -1.5500    0.0000 C   0  0  0  0  0  0  0  0  0  0  0  0
    0.4600   -2.3000    0.0000 C   0  0  0  0  0  0  0  0  0  0  0  0
   -3.4300   -1.5500    0.0000 C   0  0  0  0  0  0  0  0  0  0  0  0
   -2.1300    0.7000    0.0000 C   0  0  0  0  0  0  0  0  0  0  0  0
    3.0600    0.7000    0.0000 C   0  0  0  0  0  0  0  0  0  0  0  0
    0.4600    2.2000    0.0000 C   0  0  0  0  0  0  0  0  0  0  0  0
   -0.8325    1.4500    0.0000 C   0  0  0  0  0  0  0  0  0  0  0  0
   -2.1353    3.6978    0.0000 C   0  0  0  0  0  0  0  0  0  0  0  0
    4.3589    2.9502    0.0000 C   0  0  0  0  0  0  0  0  0  0  0  0
    1.7600   -0.0500    0.0000 C   0  0  0  0  0  0  0  0  0  0  0  0
    3.0600    2.2000    0.0000 C   0  0  0  0  0  0  0  0  0  0  0  0
    0.4600    0.7000    0.0000 C   0  0  0  0  0  0  0  0  0  0  0  0
    1.7600    2.9500    0.0000 C   0  0  0  0  0  0  0  0  0  0  0  0
   -0.8300   -1.5500    0.0000 C   0  0  0  0  0  0  0  0  0  0  0  0
   -2.1300   -2.3000    0.0000 C   0  0  0  0  0  0  0  0  0  0  0  0
   -0.8300   -0.0500    0.0000 C   0  0  0  0  0  0  0  0  0  0  0  0
    1.7600    4.4500    0.0000 O   0  0  0  0  0  0  0  0  0  0  0  0
   -3.4356    4.4456    0.0000 O   0  0  0  0  0  0  0  0  0  0  0  0
   -2.1328    2.1978    0.0000 O   0  0  0  0  0  0  0  0  0  0  0  0
  8  7  1  0
  9  6  1  0
 10  6  1  0
 15  1  1  0
 15  2  1  0
 16  7  1  0
 16 11  2  0
 17 11  1  0
 17 15  1  0
 18 12  2  0
 18 16  1  0
 19 12  1  0
 19 17  2  0
 20  8  1  1
 21  3  1  0
 21  4  1  0
 21  9  1  0
 21 20  1  0
 22 10  1  0
 22 13  1  1
 22 18  1  0
 22 20  1  0
 23 19  1  0
 24  5  1  0
 24 14  1  0
 25 13  1  0
 25 14  1  0
M  END
>  <NAME>  (5040) 
(4BR,8AS)-(+)-4B,5,6,7,8,8A,9,10-OCTAHYDRO-2-ISOPROPYL-4B-((METHOXYMETHOXY)METHYL)-8,8-DIMETHYLPHENANTHREN-3-OL

>  <SYNONYMS>  (5040) 
PISIFEROL (METHOXYMETHOXY)METHYL ETHRE

>  <SPECTRUM TYPE>  (5040) 
MS1

>  <INSTRUMENT TYPE>  (5040) 
EI-B

>  <INSTRUMENT>  (5040) 
JEOL JMS-DX-300

>  <ION MODE>  (5040) 
P

>  <INCHIKEY>  (5040) 
MODQAVGXDPNSOD-UNMCSNQZSA-N

>  <FORMULA>  (5040) 
C22H34O3

>  <EXACT MASS>  (5040) 
346.25079494799996

>  <MW>  (5040) 
346

>  <ID>  (5040) 
JP004380

>  <CONTRIBUTOR>  (5040) 
University of Tokyo Team, {Faculty of Engineering, University of Tokyo

>  <COMMENT>  (5040) 
SMILES=COCOCC(C1)(c32)C([H])(CCc(cc(C(C)C)c(O)c3)2)C(C)(C)CC1
InChI=InChI=1S/C22H34O3/c1-15(2)17-11-16-7-8-20-21(3,4)9-6-10-22(20,13-25-14-24-5)18(16)12-19(17)23/h11-12,15,20,23H,6-10,13-14H2,1-5H3/t20-,22-/m0/s1
computed SMILES=OC1=CC2=C(C=C1C(C)C)CCC3C2(COCOC)CCCC3(C)C
accession=JP004380
date=2016.01.19 (Created 2008.10.21, modified 2011.05.06)
author=HAGIWARA H, CHEM. RES. INST. OF NON-AQUEOUS SOLUTIONS, TOHOKU UNIV.
license=CC BY-NC-SA
exact mass=346.25079
ionization energy=70 eV
ion type=[M]+*
computed spectral entropy=3.654380794515722
computed normalized entropy=0.849053328743969
SPLASH=splash10-00fv-9740000000-f76634bdf93fd12fe279
submitter=submitter = University of Tokyo Team (Faculty of Engineering, University of Tokyo)
MoNA Rating=3.75

>  <NUM PEAKS>  (5040) 
74

>  <MASS SPECTRAL PEAKS>  (5040) 
28 51.17
29 9.5
32 11.07
39 3.19
41 31.67
43 29.03
45 76.87
53 3.38
55 16.39
57 2.58
67 3.6
69 57.64
70 3.45
77 3.75
79 2.92
81 2.84
83 7
91 5.85
95 3.38
97 3.57
105 3.13
107 3.5
115 7.26
117 2.84
127 3.76
128 6.74
129 5.74
131 4.48
133 8.69
141 6.83
142 3.07
143 2.88
144 4.36
145 10.22
147 6.24
149 5.43
152 3.11
153 4.33
155 3.96
157 8.82
158 3.94
159 9.76
161 3.97
163 4.23
165 3.59
169 2.92
171 7.59
172 3.35
173 11.92
175 34.91
176 5.23
183 2.73
185 7.2
186 3.29
187 13.49
188 2.94
189 32.71
190 5.31
199 9.81
201 2.52
202 7.46
203 5.48
211 2.41
213 4.56
215 8.83
227 4.06
229 10.36
241 3.12
269 5.71
271 99.99
272 21.16
273 2.79
346 11.09
347 2.43

$$$$

     RDKit          2D

 12 12  0  0  0  0  0  0  0  0999 V2000
    6.1679   -1.6943    0.0000 C   0  0  0  0  0  0  0  0  0  0  0  0
   -0.3233   -3.9365    0.0000 C   0  0  0  0  0  0  0  0  0  0  0  0
    0.9713   -3.1943    0.0000 C   0  0  0  0  0  0  0  0  0  0  0  0
   -1.6223   -3.1865    0.0000 C   0  0  0  0  0  0  0  0  0  0  0  0
    3.5698   -1.6939    0.0000 C   0  0  0  0  0  0  0  0  0  0  0  0
    2.2709   -0.9437    0.0000 C   0  0  0  0  0  0  0  0  0  0  0  0
   -0.3273   -0.9434    0.0000 C   0  0  0  0  0  0  0  0  0  0  0  0
    4.8690   -0.9441    0.0000 C   0  0  0  0  0  0  0  0  0  0  0  0
    0.9717   -1.6934    0.0000 C   0  0  0  0  0  0  0  0  0  0  0  0
   -1.6268   -1.6943    0.0000 C   0  0  0  0  0  0  0  0  0  0  0  0
    4.8692    0.5559    0.0000 O   0  0  0  0  0  0  0  0  0  0  0  0
   -2.9271   -0.9465    0.0000 O   0  0  0  0  0  0  0  0  0  0  0  0
  3  2  1  0
  4  2  1  0
  6  5  1  0
  8  1  1  0
  8  5  1  0
  9  3  1  0
  9  6  1  0
  9  7  2  0
 10  4  1  0
 10  7  1  0
 11  8  2  0
 12 10  2  0
M  END
>  <NAME>  (5041) 
3-(3-OXOBUTYL)CYCLOHEX-2-EN-1-ONE

>  <SYNONYMS>  (5041) 
3-(3-OXOBUTYL)-2-CYCLOHEXENONE

>  <SPECTRUM TYPE>  (5041) 
MS1

>  <INSTRUMENT TYPE>  (5041) 
EI-B

>  <INSTRUMENT>  (5041) 
JEOL JMS-DX-300

>  <ION MODE>  (5041) 
P

>  <INCHIKEY>  (5041) 
ZBCMIYJESBJOQT-UHFFFAOYSA-N

>  <FORMULA>  (5041) 
C10H14O2

>  <EXACT MASS>  (5041) 
166.099379688

>  <MW>  (5041) 
166

>  <ID>  (5041) 
JP004379

>  <CONTRIBUTOR>  (5041) 
University of Tokyo Team, {Faculty of Engineering, University of Tokyo

>  <COMMENT>  (5041) 
SMILES=CC(=O)CCC(C1)=CC(=O)CC1
InChI=InChI=1S/C10H14O2/c1-8(11)5-6-9-3-2-4-10(12)7-9/h7H,2-6H2,1H3
computed SMILES=O=C1C=C(CCC(=O)C)CCC1
accession=JP004379
date=2016.01.19 (Created 2008.10.21, modified 2011.05.06)
author=HAGIWARA H, CHEM. RES. INST. OF NON-AQUEOUS SOLUTIONS, TOHOKU UNIV.
license=CC BY-NC-SA
exact mass=166.09938
ionization energy=70 eV
ion type=[M]+*
computed spectral entropy=2.882632456809686
computed normalized entropy=0.874628379378623
SPLASH=splash10-00kf-9200000000-437493a2288e41dac048
submitter=submitter = University of Tokyo Team (Faculty of Engineering, University of Tokyo)
MoNA Rating=3.75

>  <NUM PEAKS>  (5041) 
27

>  <MASS SPECTRAL PEAKS>  (5041) 
14 5.7
15 11.45
17 36.77
18 26.64
27 19.09
32 5.87
39 31.19
41 25.58
42 5.09
43 99.99
51 6.17
53 1.14
55 12.54
65 7.51
66 6.3
67 21.83
77 6.95
79 10.17
81 7.83
95 47.84
96 5.99
106 17.66
108 25.53
109 6.65
110 8.57
123 48.75
124 8.85

$$$$

     RDKit          2D

 20 22  0  0  0  0  0  0  0  0999 V2000
    2.8948   -3.0534    0.0000 C   0  0  0  0  0  0  0  0  0  0  0  0
   -7.3301   -3.4845    0.0000 C   0  0  0  0  0  0  0  0  0  0  0  0
   -0.8285    2.8376    0.0000 C   0  0  0  0  0  0  0  0  0  0  0  0
    2.0560   -1.8098    0.0000 C   0  0  0  0  0  0  0  0  0  0  0  0
   -0.0905   -0.9619    0.0000 C   0  0  0  0  0  0  0  0  0  0  0  0
   -5.3993   -1.7460    0.0000 C   0  0  0  0  0  0  0  0  0  0  0  0
   -0.1054    0.8217    0.0000 C   0  0  0  0  0  0  0  0  0  0  0  0
   -1.7914   -1.4989    0.0000 C   0  0  0  0  0  0  0  0  0  0  0  0
   -3.9321   -1.4342    0.0000 C   0  0  0  0  0  0  0  0  0  0  0  0
   -4.3503    1.2059    0.0000 C   0  0  0  0  0  0  0  0  0  0  0  0
   -5.8628   -3.1726    0.0000 C   0  0  0  0  0  0  0  0  0  0  0  0
   -3.4686    2.4195    0.0000 C   0  0  0  0  0  0  0  0  0  0  0  0
   -0.2346    2.1076    0.0000 C   0  0  0  0  0  0  0  0  0  0  0  0
   -2.0420    1.9559    0.0000 C   0  0  0  0  0  0  0  0  0  0  0  0
   -3.4686   -0.0076    0.0000 C   0  0  0  0  0  0  0  0  0  0  0  0
   -2.0420    0.4559    0.0000 C   0  0  0  0  0  0  0  0  0  0  0  0
   -4.8591   -4.2873    0.0000 O   0  0  0  0  0  0  0  0  0  0  0  0
    1.2578    1.9562    0.0000 O   0  0  0  0  0  0  0  0  0  0  0  0
   -1.3393    3.6281    0.0000 O   0  0  0  0  0  0  0  0  0  0  0  0
   -0.3980   -1.9814    0.0000 S   0  0  0  0  0  0  0  0  0  0  0  0
  4  1  1  0
  7  5  1  0
  8  5  1  0
  9  6  1  0
 11  2  1  0
 11  6  1  0
 12 10  1  0
 14  3  1  0
 14  7  1  0
 14 12  1  0
 15  8  1  0
 15  9  1  0
 15 10  1  0
 16 13  1  0
 16 14  1  0
 16 15  1  0
 17 11  2  0
 18 13  2  0
 19 12  1  0
 19 13  1  0
 20  4  1  0
 20 16  1  0
M  END
>  <NAME>  (5042) 
4-ETHYLTHIO-5-METHYL-9-(3-OXOBUTYL)-2-OXATRICYCLO(4.4.0.0(4,9))DECAN-3-ONE

>  <SYNONYMS>  (5042) 


>  <SPECTRUM TYPE>  (5042) 
MS1

>  <INSTRUMENT TYPE>  (5042) 
EI-B

>  <INSTRUMENT>  (5042) 
JEOL JMS-DX-300

>  <ION MODE>  (5042) 
P

>  <INCHIKEY>  (5042) 
QZBZPQKRMKDJFR-UHFFFAOYSA-N

>  <FORMULA>  (5042) 
C16H24O3S

>  <EXACT MASS>  (5042) 
296.144615628

>  <MW>  (5042) 
296

>  <ID>  (5042) 
JP004378

>  <CONTRIBUTOR>  (5042) 
University of Tokyo Team, {Faculty of Engineering, University of Tokyo

>  <COMMENT>  (5042) 
SMILES=CC(=O)CCC(C3)(C1)C(SCC)(C(=O)2)C(C)(CC3)C(O2)1
InChI=InChI=1S/C16H24O3S/c1-4-20-16-13(18)19-12-10-15(16,9-6-11(2)17)8-5-7-14(12,16)3/h12H,4-10H2,1-3H3
computed SMILES=O=C1OC2CC3(CCC(=O)C)CCCC2(C)C13SCC
accession=JP004378
date=2016.01.19 (Created 2008.10.21, modified 2011.05.06)
author=HAGIWARA H, CHEM. RES. INST. OF NON-AQUEOUS SOLUTIONS, TOHOKU UNIV.
license=CC BY-NC-SA
exact mass=296.14462
ionization energy=70 eV
ion type=[M]+*
computed spectral entropy=3.454000428873299
computed normalized entropy=0.8875025474711982
SPLASH=splash10-0007-3920000000-17407bd3460d3651d841
submitter=submitter = University of Tokyo Team (Faculty of Engineering, University of Tokyo)
MoNA Rating=3.75

>  <NUM PEAKS>  (5042) 
49

>  <MASS SPECTRAL PEAKS>  (5042) 
59 8.04
65 5.24
71 8.04
72 6.72
77 10.34
79 19.48
80 5.19
91 32.62
92 99.99
93 22.32
99 5.58
100 6.22
101 21.14
102 14.24
103 5.31
105 19.44
106 5.33
107 15.32
108 6.09
117 35.59
118 6.22
119 17.28
128 39.37
129 22.16
130 9.12
131 17.34
132 63.55
133 17.42
137 8.47
146 49.21
147 11.38
148 6.54
149 10.21
150 34.49
151 7.9
159 5.16
163 6.41
165 7.92
175 5.01
176 0.54
177 22.43
191 6.72
221 6.63
223 5.09
239 5.49
249 6.65
296 78.34
297 17.03
298 5.86

$$$$

     RDKit          2D

 15 17  0  0  0  0  0  0  0  0999 V2000
    7.1000   -0.0000    0.0000 C   0  0  0  0  0  0  0  0  0  0  0  0
    6.3500    1.3000    0.0000 C   0  0  0  0  0  0  0  0  0  0  0  0
    6.3500   -1.3000    0.0000 C   0  0  0  0  0  0  0  0  0  0  0  0
   -2.3100    0.7500    0.0000 C   0  0  0  0  0  0  0  0  0  0  0  0
   -2.3100   -0.7500    0.0000 C   0  0  0  0  0  0  0  0  0  0  0  0
    4.8500    1.3000    0.0000 C   0  0  0  0  0  0  0  0  0  0  0  0
    4.8500   -1.3000    0.0000 C   0  0  0  0  0  0  0  0  0  0  0  0
   -1.0100    1.5000    0.0000 C   0  0  0  0  0  0  0  0  0  0  0  0
   -1.0100   -1.5000    0.0000 C   0  0  0  0  0  0  0  0  0  0  0  0
    1.7200    1.2100    0.0000 C   0  0  0  0  0  0  0  0  0  0  0  0
    4.1000   -0.0000    0.0000 C   0  0  0  0  0  0  0  0  0  0  0  0
    0.2900    0.7500    0.0000 C   0  0  0  0  0  0  0  0  0  0  0  0
    0.2900   -0.7500    0.0000 C   0  0  0  0  0  0  0  0  0  0  0  0
    2.6000    0.0000    0.0000 C   0  0  0  0  0  0  0  0  0  0  0  0
    1.7200   -1.2100    0.0000 O   0  0  0  0  0  0  0  0  0  0  0  0
  2  1  2  0
  3  1  1  0
  5  4  1  0
  6  2  1  0
  7  3  2  0
  8  4  1  0
  9  5  1  0
 11  6  2  0
 11  7  1  0
 12  8  1  0
 12 10  1  0
 13  9  1  0
 13 12  2  0
 14 10  2  0
 14 11  1  0
 15 13  1  0
 15 14  1  0
M  END
>  <NAME>  (5043) 
4,5,6,7-TETRAHYDRO-2-PHENYLBENZOFURAN

>  <SYNONYMS>  (5043) 


>  <SPECTRUM TYPE>  (5043) 
MS1

>  <INSTRUMENT TYPE>  (5043) 
EI-B

>  <INSTRUMENT>  (5043) 
JEOL JMS-DX-300

>  <ION MODE>  (5043) 
P

>  <INCHIKEY>  (5043) 
ADAPEIYATTZSEK-UHFFFAOYSA-N

>  <FORMULA>  (5043) 
C14H14O

>  <EXACT MASS>  (5043) 
198.104465068

>  <MW>  (5043) 
198

>  <ID>  (5043) 
JP004377

>  <CONTRIBUTOR>  (5043) 
University of Tokyo Team, {Faculty of Engineering, University of Tokyo

>  <COMMENT>  (5043) 
SMILES=c(c3)ccc(c3)c(c1)oc(C2)c(CCC2)1
InChI=InChI=1S/C14H14O/c1-2-6-11(7-3-1)14-10-12-8-4-5-9-13(12)15-14/h1-3,6-7,10H,4-5,8-9H2
computed SMILES=O1C(=CC2=C1CCCC2)C=3C=CC=CC3
accession=JP004377
date=2016.01.19 (Created 2008.10.21, modified 2011.05.06)
author=HAGIWARA H, CHEM. RES. INST. OF NON-AQUEOUS SOLUTIONS, TOHOKU UNIV.
license=CC BY-NC-SA
exact mass=198.10447
ionization energy=70 eV
ion type=[M]+*
computed spectral entropy=2.6609405212526096
computed normalized entropy=0.8266676523197548
SPLASH=splash10-00ba-6900000000-bba05b3d7314ea4dc18f
submitter=submitter = University of Tokyo Team (Faculty of Engineering, University of Tokyo)
MoNA Rating=3.75

>  <NUM PEAKS>  (5043) 
25

>  <MASS SPECTRAL PEAKS>  (5043) 
17 6.69
18 29.6
28 99.99
32 24.96
39 5.96
41 5.38
51 8.6
77 23.19
91 6.17
99 4.5
102 4.16
105 25.43
109 11.17
115 8.06
128 5.26
141 15.56
142 4.41
165 6.4
170 80.17
171 11.93
175 4.13
194 9.61
197 13.62
198 79.95
199 12.71

$$$$

     RDKit          2D

 10 11  0  0  0  0  0  0  0  0999 V2000
    2.1853    2.6360    0.0000 C   0  0  0  0  0  0  0  0  0  0  0  0
   -2.3100    0.7500    0.0000 C   0  0  0  0  0  0  0  0  0  0  0  0
   -2.3100   -0.7500    0.0000 C   0  0  0  0  0  0  0  0  0  0  0  0
   -1.0100    1.5000    0.0000 C   0  0  0  0  0  0  0  0  0  0  0  0
   -1.0100   -1.5000    0.0000 C   0  0  0  0  0  0  0  0  0  0  0  0
    2.6000    0.0000    0.0000 C   0  0  0  0  0  0  0  0  0  0  0  0
    1.7200    1.2100    0.0000 C   0  0  0  0  0  0  0  0  0  0  0  0
    0.2900    0.7500    0.0000 C   0  0  0  0  0  0  0  0  0  0  0  0
    0.2900   -0.7500    0.0000 C   0  0  0  0  0  0  0  0  0  0  0  0
    1.7200   -1.2100    0.0000 O   0  0  0  0  0  0  0  0  0  0  0  0
  3  2  1  0
  4  2  1  0
  5  3  1  0
  7  1  1  0
  7  6  2  0
  8  4  1  0
  8  7  1  0
  9  5  1  0
  9  8  2  0
 10  6  1  0
 10  9  1  0
M  END
>  <NAME>  (5044) 
4,5,6,7-TETRAHYDRO-3-METHYLBENZOFURAN

>  <SYNONYMS>  (5044) 


>  <SPECTRUM TYPE>  (5044) 
MS1

>  <INSTRUMENT TYPE>  (5044) 
EI-B

>  <INSTRUMENT>  (5044) 
JEOL JMS-DX-300

>  <ION MODE>  (5044) 
P

>  <INCHIKEY>  (5044) 
ZQQRACBGKBCNQT-UHFFFAOYSA-N

>  <FORMULA>  (5044) 
C9H12O

>  <EXACT MASS>  (5044) 
136.088815004

>  <MW>  (5044) 
136

>  <ID>  (5044) 
JP004376

>  <CONTRIBUTOR>  (5044) 
University of Tokyo Team, {Faculty of Engineering, University of Tokyo

>  <COMMENT>  (5044) 
SMILES=Cc(c1)c(C2)c(CCC2)o1
InChI=InChI=1S/C9H12O/c1-7-6-10-9-5-3-2-4-8(7)9/h6H,2-5H2,1H3
computed SMILES=O1C=C(C2=C1CCCC2)C
accession=JP004376
date=2016.01.19 (Created 2008.10.21, modified 2011.05.06)
author=HAGIWARA H, CHEM. RES. INST. OF NON-AQUEOUS SOLUTIONS, TOHOKU UNIV.
license=CC BY-NC-SA
exact mass=136.08882
ionization energy=70 eV
ion type=[M]+*
computed spectral entropy=2.89031532202383
computed normalized entropy=0.7732934200191001
SPLASH=splash10-0a4r-6900000000-8243acd8e60982b71b7b
submitter=submitter = University of Tokyo Team (Faculty of Engineering, University of Tokyo)
MoNA Rating=3.75

>  <NUM PEAKS>  (5044) 
42

>  <MASS SPECTRAL PEAKS>  (5044) 
27 7.76
29 2.65
38 1.4
39 12.36
41 7.5
43 1.91
50 2.12
51 6.62
52 3.72
53 5.27
54 1.21
55 1.76
63 2.61
65 5.88
66 4.16
67 5.47
68 2.43
77 11.14
78 3.48
79 24.46
80 6.69
81 1.83
89 1.7
91 10.07
92 2.37
93 8.44
94 2.11
95 5.01
103 1.79
105 4.7
107 7.95
108 99.99
109 9.56
115 1.28
117 2.51
118 1.21
121 5.75
133 1.01
134 1.25
135 11.65
136 57.9
137 5.93

$$$$

     RDKit          2D

 26 27  0  0  0  0  0  0  0  0999 V2000
  -12.5424   -4.0451    0.0000 C   0  0  0  0  0  0  0  0  0  0  0  0
    2.5989    1.5002    0.0000 C   0  0  0  0  0  0  0  0  0  0  0  0
  -11.0652   -4.3054    0.0000 C   0  0  0  0  0  0  0  0  0  0  0  0
  -10.1011   -3.1563    0.0000 C   0  0  0  0  0  0  0  0  0  0  0  0
   -8.6239   -3.4166    0.0000 C   0  0  0  0  0  0  0  0  0  0  0  0
   -7.6598   -2.2674    0.0000 C   0  0  0  0  0  0  0  0  0  0  0  0
   -6.1826   -2.5277    0.0000 C   0  0  0  0  0  0  0  0  0  0  0  0
   -5.2185   -1.3785    0.0000 C   0  0  0  0  0  0  0  0  0  0  0  0
   -3.3505   -6.3899    0.0000 C   0  0  0  0  0  0  0  0  0  0  0  0
   -3.7413   -1.6389    0.0000 C   0  0  0  0  0  0  0  0  0  0  0  0
   -2.3857   -7.5395    0.0000 C   0  0  0  0  0  0  0  0  0  0  0  0
   -2.8381   -4.9792    0.0000 C   0  0  0  0  0  0  0  0  0  0  0  0
   -2.7772   -0.4897    0.0000 C   0  0  0  0  0  0  0  0  0  0  0  0
   -0.9086   -7.2785    0.0000 C   0  0  0  0  0  0  0  0  0  0  0  0
   -1.3000    0.7500    0.0000 C   0  0  0  0  0  0  0  0  0  0  0  0
   -1.8127   -2.1596    0.0000 C   0  0  0  0  0  0  0  0  0  0  0  0
    1.3000    0.7500    0.0000 C   0  0  0  0  0  0  0  0  0  0  0  0
    0.0000    1.5000    0.0000 C   0  0  0  0  0  0  0  0  0  0  0  0
   -1.3610   -4.7182    0.0000 C   0  0  0  0  0  0  0  0  0  0  0  0
    1.3000   -0.7500    0.0000 C   0  0  0  0  0  0  0  0  0  0  0  0
   -1.3000   -0.7500    0.0000 C   0  0  0  0  0  0  0  0  0  0  0  0
    0.0000    3.0000    0.0000 O   0  0  0  0  0  0  0  0  0  0  0  0
    2.5989   -1.5002    0.0000 O   0  0  0  0  0  0  0  0  0  0  0  0
   -0.3963   -5.8678    0.0000 O   0  0  0  0  0  0  0  0  0  0  0  0
   -0.8483   -3.3085    0.0000 O   0  0  0  0  0  0  0  0  0  0  0  0
    0.0000   -1.5000    0.0000 O   0  0  0  0  0  0  0  0  0  0  0  0
  3  1  1  0
  4  3  1  0
  5  4  1  0
  6  5  1  0
  7  6  1  0
  8  7  1  0
 10  8  1  0
 11  9  1  0
 12  9  1  0
 13 10  1  0
 14 11  1  0
 17  2  1  0
 18 15  1  0
 18 17  1  0
 19 12  1  0
 20 17  1  0
 21 13  1  0
 21 15  1  0
 21 16  1  0
 22 18  2  0
 23 20  2  0
 24 14  1  0
 24 19  1  0
 25 16  1  0
 25 19  1  0
 26 20  1  0
 26 21  1  0
M  END
>  <NAME>  (5045) 
2-METHYL-3-OXO-5-(TETRAHYDROPYRAN-2-YLOXYMETHYL)TETRADECAN-5-OLIDE

>  <SYNONYMS>  (5045) 
3-METHYL-6-NONYL-6-(PERHYDROPYRAN-2-YLOXYMETHYL)PERHYDROPYRAN-2,4-DIONE

>  <SPECTRUM TYPE>  (5045) 
MS1

>  <INSTRUMENT TYPE>  (5045) 
EI-B

>  <INSTRUMENT>  (5045) 
JEOL JMS-DX-300

>  <ION MODE>  (5045) 
P

>  <INCHIKEY>  (5045) 
TTYBVVTXBFJSTC-UHFFFAOYSA-N

>  <FORMULA>  (5045) 
C21H36O5

>  <EXACT MASS>  (5045) 
368.25627425199997

>  <MW>  (5045) 
368

>  <ID>  (5045) 
JP004375

>  <CONTRIBUTOR>  (5045) 
University of Tokyo Team, {Faculty of Engineering, University of Tokyo

>  <COMMENT>  (5045) 
SMILES=CCCCCCCCCC(COC(C2)OCCC2)(C1)OC(=O)C(C)C(=O)1
InChI=InChI=1S/C21H36O5/c1-3-4-5-6-7-8-10-13-21(15-18(22)17(2)20(23)26-21)16-25-19-12-9-11-14-24-19/h17,19H,3-16H2,1-2H3
computed SMILES=O=C1OC(COC2OCCCC2)(CC(=O)C1C)CCCCCCCCC
accession=JP004375
date=2016.01.19 (Created 2008.10.21, modified 2011.05.06)
author=HAGIWARA H, CHEM. RES. INST. OF NON-AQUEOUS SOLUTIONS, TOHOKU UNIV.
license=CC BY-NC-SA
exact mass=368.25627
ionization energy=70 eV
ion type=[M]+*
computed spectral entropy=3.0469702089330446
computed normalized entropy=0.791390493076089
SPLASH=splash10-002u-9000000000-be1a01eefdcd23e3462c
submitter=submitter = University of Tokyo Team (Faculty of Engineering, University of Tokyo)
MoNA Rating=3.75

>  <NUM PEAKS>  (5045) 
47

>  <MASS SPECTRAL PEAKS>  (5045) 
28 43.62
29 17.96
31 3.74
32 8.12
39 4.13
41 24.13
42 4.41
43 38.62
44 4.8
45 1.82
53 2.46
54 2.09
55 19.56
56 10.79
57 18.75
58 1.94
67 8.7
68 2.69
69 9.27
70 2.19
71 8.96
73 1.61
81 6.19
82 0.27
83 7.31
84 5.43
85 99.99
86 6.27
87 1.86
95 5.93
96 1.53
97 3.33
98 2.91
101 5.88
109 2.45
111 2.37
114 1.62
151 2.45
152 1.67
155 1.28
156 2.01
195 1.53
211 4.09
235 1.77
253 13.53
254 2.71
367 0.19

$$$$

     RDKit          2D

 25 26  0  0  0  0  0  0  0  0999 V2000
   12.5126   -0.1168    0.0000 C   0  0  0  0  0  0  0  0  0  0  0  0
   -2.6291   -5.6597    0.0000 C   0  0  0  0  0  0  0  0  0  0  0  0
   11.0354    0.1440    0.0000 C   0  0  0  0  0  0  0  0  0  0  0  0
   10.0710   -1.0048    0.0000 C   0  0  0  0  0  0  0  0  0  0  0  0
    8.5938   -0.7441    0.0000 C   0  0  0  0  0  0  0  0  0  0  0  0
    7.6294   -1.8929    0.0000 C   0  0  0  0  0  0  0  0  0  0  0  0
    6.1523   -1.6321    0.0000 C   0  0  0  0  0  0  0  0  0  0  0  0
    5.1878   -2.7810    0.0000 C   0  0  0  0  0  0  0  0  0  0  0  0
   -2.6506   -2.7791    0.0000 C   0  0  0  0  0  0  0  0  0  0  0  0
    3.7107   -2.5202    0.0000 C   0  0  0  0  0  0  0  0  0  0  0  0
   -3.6154   -1.6294    0.0000 C   0  0  0  0  0  0  0  0  0  0  0  0
   -1.1724   -2.5193    0.0000 C   0  0  0  0  0  0  0  0  0  0  0  0
   -1.3295   -3.4091    0.0000 C   0  0  0  0  0  0  0  0  0  0  0  0
    2.7462   -3.6691    0.0000 C   0  0  0  0  0  0  0  0  0  0  0  0
   -0.0299   -2.6583    0.0000 C   0  0  0  0  0  0  0  0  0  0  0  0
   -3.1020   -0.2200    0.0000 C   0  0  0  0  0  0  0  0  0  0  0  0
    1.7823   -1.9988    0.0000 C   0  0  0  0  0  0  0  0  0  0  0  0
   -1.3299   -4.9099    0.0000 C   0  0  0  0  0  0  0  0  0  0  0  0
   -0.6590   -1.1099    0.0000 C   0  0  0  0  0  0  0  0  0  0  0  0
   -0.0309   -5.6599    0.0000 C   0  0  0  0  0  0  0  0  0  0  0  0
    1.2691   -3.4083    0.0000 C   0  0  0  0  0  0  0  0  0  0  0  0
   -0.0307   -7.1599    0.0000 O   0  0  0  0  0  0  0  0  0  0  0  0
   -1.6238    0.0397    0.0000 O   0  0  0  0  0  0  0  0  0  0  0  0
    0.8182   -0.8496    0.0000 O   0  0  0  0  0  0  0  0  0  0  0  0
    1.2686   -4.9091    0.0000 O   0  0  0  0  0  0  0  0  0  0  0  0
  3  1  1  0
  4  3  1  0
  5  4  1  0
  6  5  1  0
  7  6  1  0
  8  7  1  0
 10  8  1  0
 11  9  1  0
 12  9  1  0
 14 10  1  0
 15 13  1  0
 16 11  1  0
 18  2  1  0
 18 13  2  0
 19 12  1  0
 20 18  1  0
 21 14  1  0
 21 15  1  0
 21 17  1  0
 22 20  2  0
 23 16  1  0
 23 19  1  0
 24 17  1  0
 24 19  1  0
 25 20  1  0
 25 21  1  0
M  END
>  <NAME>  (5046) 
2-METHYL-5-(TETRAHYDR0PYRAN-2-YLOXYMETHYL)-2-TETRADECEN-5-OLIDE

>  <SYNONYMS>  (5046) 
3-METHYL-6-NONYL-6-(PERHYDROPYRAN-2-YLOXYMETHYL)-5,6-DIHYDRO-2H-PYRAN-2-ONE

>  <SPECTRUM TYPE>  (5046) 
MS1

>  <INSTRUMENT TYPE>  (5046) 
EI-B

>  <INSTRUMENT>  (5046) 
JEOL JMS-DX-300

>  <ION MODE>  (5046) 
P

>  <INCHIKEY>  (5046) 
YIWAEGRIRLSFLS-UHFFFAOYSA-N

>  <FORMULA>  (5046) 
C21H36O4

>  <EXACT MASS>  (5046) 
352.261359632

>  <MW>  (5046) 
352

>  <ID>  (5046) 
JP004374

>  <CONTRIBUTOR>  (5046) 
University of Tokyo Team, {Faculty of Engineering, University of Tokyo

>  <COMMENT>  (5046) 
SMILES=CCCCCCCCCC(COC(C2)OCCC2)(C1)OC(=O)C(C)=C1
InChI=InChI=1S/C21H36O4/c1-3-4-5-6-7-8-10-14-21(15-13-18(2)20(22)25-21)17-24-19-12-9-11-16-23-19/h13,19H,3-12,14-17H2,1-2H3
computed SMILES=O=C1OC(COC2OCCCC2)(CC=C1C)CCCCCCCCC
accession=JP004374
date=2016.01.19 (Created 2008.10.21, modified 2011.05.06)
author=HAGIWARA H, CHEM. RES. INST. OF NON-AQUEOUS SOLUTIONS, TOHOKU UNIV.
license=CC BY-NC-SA
exact mass=352.26136
ionization energy=70 eV
ion type=[M]+*
computed spectral entropy=3.205829303411264
computed normalized entropy=0.8421627375755849
SPLASH=splash10-000i-9120000000-989105040a516c7c6e1a
submitter=submitter = University of Tokyo Team (Faculty of Engineering, University of Tokyo)
MoNA Rating=3.75

>  <NUM PEAKS>  (5046) 
45

>  <MASS SPECTRAL PEAKS>  (5046) 
29 21.09
31 2.92
39 5.88
41 31.37
42 4.07
43 39.89
53 5.51
54 8.69
55 22.64
56 5.08
57 27.25
67 14.71
68 2.28
69 7.23
71 12.01
79 2.8
81 8.29
82 16.05
83 6.19
84 4.62
85 99.99
86 6.21
93 3.02
95 11.64
96 2.73
97 3.31
98 2.34
107 0.23
109 4.19
111 4
123 6.58
124 0.61
125 6.53
126 4.21
137 6.92
138 3.55
141 3.22
155 21.67
156 2.73
224 3.59
236 42.72
237 25.95
238 5.08
267 9.41
268 2.18

$$$$

     RDKit          2D

 12 13  0  0  0  0  0  0  0  0999 V2000
   -3.5400    1.3990    0.0000 C   0  0  0  0  0  0  0  0  0  0  0  0
    2.7999    0.1164    0.0000 C   0  0  0  0  0  0  0  0  0  0  0  0
   -2.7900    0.1000    0.0000 C   0  0  0  0  0  0  0  0  0  0  0  0
    1.3000   -1.4000    0.0000 C   0  0  0  0  0  0  0  0  0  0  0  0
   -1.2900   -1.4000    0.0000 C   0  0  0  0  0  0  0  0  0  0  0  0
   -1.2900    1.9500    0.0000 C   0  0  0  0  0  0  0  0  0  0  0  0
    0.0100   -2.1500    0.0000 C   0  0  0  0  0  0  0  0  0  0  0  0
    1.3000    0.1000    0.0000 C   0  0  0  0  0  0  0  0  0  0  0  0
   -1.2900    0.1000    0.0000 C   0  0  0  0  0  0  0  0  0  0  0  0
    0.0125   -3.6500    0.0000 O   0  0  0  0  0  0  0  0  0  0  0  0
    1.2600    1.9300    0.0000 O   0  0  0  0  0  0  0  0  0  0  0  0
    0.0100    0.8500    0.0000 O   0  0  0  0  0  0  0  0  0  0  0  0
  3  1  1  0
  7  4  1  0
  7  5  1  0
  8  2  1  0
  8  4  1  0
  9  3  1  0
  9  5  1  0
  9  6  1  0
 10  7  1  0
 11  6  1  0
 11  8  1  0
 12  8  1  0
 12  9  1  0
M  END
>  <NAME>  (5047) 
ENDO 1-ETHYL-5-METHYL-6,8-DIOXABICYCLO(3,2,1)OCTAN-3-OL

>  <SYNONYMS>  (5047) 


>  <SPECTRUM TYPE>  (5047) 
MS1

>  <INSTRUMENT TYPE>  (5047) 
EI-B

>  <INSTRUMENT>  (5047) 
JEOL JMS-DX-300

>  <ION MODE>  (5047) 
P

>  <INCHIKEY>  (5047) 
VONWIFAYZFAVMY-UHFFFAOYSA-N

>  <FORMULA>  (5047) 
C9H16O3

>  <EXACT MASS>  (5047) 
172.10994437199997

>  <MW>  (5047) 
172

>  <ID>  (5047) 
JP004372

>  <CONTRIBUTOR>  (5047) 
University of Tokyo Team, {Faculty of Engineering, University of Tokyo

>  <COMMENT>  (5047) 
SMILES=CCC(C2)(C1)OC(C)(O2)CC(O)1
InChI=InChI=1S/C9H16O3/c1-3-9-5-7(10)4-8(2,12-9)11-6-9/h7,10H,3-6H2,1-2H3
computed SMILES=OC1CC2(OCC(O2)(CC)C1)C
license=CC BY-NC-SA
accession=JP004372
date=2016.01.19 (Created 2008.10.21, modified 2011.05.06)
author=HAGIWARA H, CHEM. RES. INST. OF NON-AQUEOUS SOLUTIONS, TOHOKU UNIV.
exact mass=172.10994
ionization energy=70 eV
ion type=[M]+*
computed spectral entropy=3.2659997372357625
computed normalized entropy=0.8043456659169446
SPLASH=splash10-0006-9100000000-8f88f6eddd4f58c7d548
submitter=submitter = University of Tokyo Team (Faculty of Engineering, University of Tokyo)
MoNA Rating=3.75

>  <NUM PEAKS>  (5047) 
58

>  <MASS SPECTRAL PEAKS>  (5047) 
27 10.15
28 3.33
29 23.72
30 0.11
31 5.8
39 8.72
40 1.95
41 14.1
42 5.37
43 99.99
44 3.61
45 3.76
53 3.29
55 7.09
56 1.84
57 46.16
58 8.96
59 2.46
67 3.68
68 2.1
69 7.73
70 2.17
71 20.56
72 11.76
73 2.23
79 1.4
81 2.59
82 2.28
83 5.61
84 7.19
85 38.42
86 3.26
87 1.71
88 4.59
89 3.87
95 6.67
96 26.6
97 8.93
98 2.14
99 0.41
100 1.2
101 5.83
109 4.61
111 3.17
113 6.3
114 1.18
115 6.88
125 2.81
126 1.1
139 1.47
140 3.36
141 1.53
142 2.41
143 4.15
154 3.63
155 1.29
157 3.4
172 0.64

$$$$

     RDKit          2D

 22 24  0  0  0  0  0  0  0  0999 V2000
    8.7245   -0.9588    0.0000 C   0  0  0  0  0  0  0  0  0  0  0  0
    3.5288   -3.9596    0.0000 C   0  0  0  0  0  0  0  0  0  0  0  0
    8.7247    0.5421    0.0000 C   0  0  0  0  0  0  0  0  0  0  0  0
    7.4251   -1.7098    0.0000 C   0  0  0  0  0  0  0  0  0  0  0  0
    4.8287   -3.2094    0.0000 C   0  0  0  0  0  0  0  0  0  0  0  0
    2.2287   -3.2098    0.0000 C   0  0  0  0  0  0  0  0  0  0  0  0
   -0.3700   -1.7100    0.0000 C   0  0  0  0  0  0  0  0  0  0  0  0
   -1.6700   -0.9600    0.0000 C   0  0  0  0  0  0  0  0  0  0  0  0
    7.4256    1.2919    0.0000 C   0  0  0  0  0  0  0  0  0  0  0  0
    6.1259   -0.9600    0.0000 C   0  0  0  0  0  0  0  0  0  0  0  0
    4.8284   -1.7094    0.0000 C   0  0  0  0  0  0  0  0  0  0  0  0
    2.2284   -1.7098    0.0000 C   0  0  0  0  0  0  0  0  0  0  0  0
    0.9300   -0.9600    0.0000 C   0  0  0  0  0  0  0  0  0  0  0  0
   -1.6700    0.5400    0.0000 C   0  0  0  0  0  0  0  0  0  0  0  0
    6.1262    0.5408    0.0000 C   0  0  0  0  0  0  0  0  0  0  0  0
    3.5283   -0.9596    0.0000 C   0  0  0  0  0  0  0  0  0  0  0  0
    0.9300    0.5400    0.0000 C   0  0  0  0  0  0  0  0  0  0  0  0
    4.8270    1.2906    0.0000 C   0  0  0  0  0  0  0  0  0  0  0  0
    3.5281    0.5404    0.0000 C   0  0  0  0  0  0  0  0  0  0  0  0
    4.8268    2.7906    0.0000 O   0  0  0  0  0  0  0  0  0  0  0  0
   -0.3700    1.2900    0.0000 O   0  0  0  0  0  0  0  0  0  0  0  0
    2.2289    1.2902    0.0000 O   0  0  0  0  0  0  0  0  0  0  0  0
  3  1  2  0
  4  1  1  0
  5  2  2  0
  6  2  1  0
  8  7  1  0
  9  3  1  0
 10  4  2  0
 11  5  1  0
 12  6  2  0
 13  7  1  0
 14  8  1  0
 15  9  2  0
 15 10  1  0
 16 11  2  0
 16 12  1  0
 17 13  1  0
 18 15  1  0
 19 16  1  0
 19 18  1  0
 20 18  2  0
 21 14  1  0
 21 17  1  0
 22 17  1  0
 22 19  1  0
M  END
>  <NAME>  (5048) 
BENZOIN TETRAHYDROPYRAN-2-YL ETHER

>  <SYNONYMS>  (5048) 


>  <SPECTRUM TYPE>  (5048) 
MS1

>  <INSTRUMENT TYPE>  (5048) 
EI-B

>  <INSTRUMENT>  (5048) 
JEOL JMS-DX-300

>  <ION MODE>  (5048) 
P

>  <INCHIKEY>  (5048) 
DNNDHIKCLIZHBH-UHFFFAOYSA-N

>  <FORMULA>  (5048) 
C19H20O3

>  <EXACT MASS>  (5048) 
296.14124449999997

>  <MW>  (5048) 
296

>  <ID>  (5048) 
JP004370

>  <CONTRIBUTOR>  (5048) 
University of Tokyo Team, {Faculty of Engineering, University of Tokyo

>  <COMMENT>  (5048) 
SMILES=C(C3)COC(C3)OC(c(c2)cccc2)C(=O)c(c1)cccc1
InChI=InChI=1S/C19H20O3/c20-18(15-9-3-1-4-10-15)19(16-11-5-2-6-12-16)22-17-13-7-8-14-21-17/h1-6,9-12,17,19H,7-8,13-14H2
computed SMILES=O=C(C=1C=CC=CC1)C(OC2OCCCC2)C=3C=CC=CC3
accession=JP004370
date=2016.01.19 (Created 2008.10.21, modified 2011.05.06)
author=HAGIWARA H, CHEM. RES. INST. OF NON-AQUEOUS SOLUTIONS, TOHOKU UNIV.
license=CC BY-NC-SA
exact mass=296.14124
ionization energy=70 eV
ion type=[M]+*
computed spectral entropy=2.1890281713924034
computed normalized entropy=0.6887951835456293
SPLASH=splash10-0a6r-9700000000-c389ff4c74bd630eb575
submitter=submitter = University of Tokyo Team (Faculty of Engineering, University of Tokyo)
MoNA Rating=3.75

>  <NUM PEAKS>  (5048) 
24

>  <MASS SPECTRAL PEAKS>  (5048) 
27 3.06
28 2.94
29 2.19
39 3.33
50 7.35
51 27.81
52 3.15
53 0.79
63 1.73
74 2
75 1.72
76 2.7
77 71.8
78 9.3
79 29.34
80 2.28
89 1.14
105 99.99
106 11.42
107 33.64
108 3.26
165 1.2
210 1.78
212 1.38

$$$$

     RDKit          2D

 11 11  0  0  0  0  0  0  0  0999 V2000
    3.7520   -0.4670    0.0000 C   0  0  0  0  0  0  0  0  0  0  0  0
   -5.1780   -0.0018    0.0000 C   0  0  0  0  0  0  0  0  0  0  0  0
    2.6360    0.5353    0.0000 C   0  0  0  0  0  0  0  0  0  0  0  0
    0.7500   -1.3600    0.0000 C   0  0  0  0  0  0  0  0  0  0  0  0
   -0.7500   -1.3600    0.0000 C   0  0  0  0  0  0  0  0  0  0  0  0
   -2.6360    0.5353    0.0000 C   0  0  0  0  0  0  0  0  0  0  0  0
   -3.7520   -0.4670    0.0000 C   0  0  0  0  0  0  0  0  0  0  0  0
    1.2100    0.0700    0.0000 C   0  0  0  0  0  0  0  0  0  0  0  0
   -1.2100    0.0700    0.0000 C   0  0  0  0  0  0  0  0  0  0  0  0
   -3.4419   -1.9347    0.0000 O   0  0  0  0  0  0  0  0  0  0  0  0
    0.0000    0.9500    0.0000 O   0  0  0  0  0  0  0  0  0  0  0  0
  3  1  1  0
  5  4  1  0
  7  2  1  0
  7  6  1  0
  8  3  1  0
  8  4  2  0
  9  5  2  0
  9  6  1  0
 10  7  2  0
 11  8  1  0
 11  9  1  0
M  END
>  <NAME>  (5049) 
2-ETHYL-5-(2-OXOPROPYL)FURAN

>  <SYNONYMS>  (5049) 


>  <SPECTRUM TYPE>  (5049) 
MS1

>  <INSTRUMENT TYPE>  (5049) 
EI-B

>  <INSTRUMENT>  (5049) 
JEOL JMS-DX-300

>  <ION MODE>  (5049) 
P

>  <INCHIKEY>  (5049) 
BAHJLUKBOMFQHQ-UHFFFAOYSA-N

>  <FORMULA>  (5049) 
C9H12O2

>  <EXACT MASS>  (5049) 
152.083729624

>  <MW>  (5049) 
152

>  <ID>  (5049) 
JP004369

>  <CONTRIBUTOR>  (5049) 
University of Tokyo Team, {Faculty of Engineering, University of Tokyo

>  <COMMENT>  (5049) 
SMILES=CCc(c1)oc(CC(C)=O)c1
InChI=InChI=1S/C9H12O2/c1-3-8-4-5-9(11-8)6-7(2)10/h4-5H,3,6H2,1-2H3
computed SMILES=O=C(C)CC=1OC(=CC1)CC
accession=JP004369
date=2016.01.19 (Created 2008.10.21, modified 2011.05.06)
author=HAGIWARA H, CHEM. RES. INST. OF NON-AQUEOUS SOLUTIONS, TOHOKU UNIV.
license=CC BY-NC-SA
exact mass=152.08373
ionization energy=70 eV
ion type=[M]+*
computed spectral entropy=2.883199576557989
computed normalized entropy=0.9072217559770929
SPLASH=splash10-016u-9000000000-8280691f2bf7a408e1cf
submitter=submitter = University of Tokyo Team (Faculty of Engineering, University of Tokyo)
MoNA Rating=3.75

>  <NUM PEAKS>  (5049) 
24

>  <MASS SPECTRAL PEAKS>  (5049) 
14 11.84
15 60.72
16 3.34
17 16.02
18 64.62
26 11.42
27 37.19
28 40.67
29 24.51
32 9.19
39 31.62
41 21.03
42 16.57
43 99.99
50 12.95
51 24.37
52 22.01
53 19.64
55 9.89
65 10.03
66 9.75
79 8.91
94 11.98
109 41.09

$$$$

     RDKit          2D

 22 25  0  0  0  0  0  0  0  0999 V2000
    5.7627    0.7898    0.0000 C   0  0  0  0  0  0  0  0  0  0  0  0
   -3.2884    4.8565    0.0000 C   0  0  0  0  0  0  0  0  0  0  0  0
   -4.7001   -1.7852    0.0000 C   0  0  0  0  0  0  0  0  0  0  0  0
   -3.7526    3.4293    0.0000 C   0  0  0  0  0  0  0  0  0  0  0  0
   -1.8204    5.1690    0.0000 C   0  0  0  0  0  0  0  0  0  0  0  0
   -3.4862   -2.6677    0.0000 C   0  0  0  0  0  0  0  0  0  0  0  0
   -4.5437   -0.2925    0.0000 C   0  0  0  0  0  0  0  0  0  0  0  0
   -2.7489    2.3146    0.0000 C   0  0  0  0  0  0  0  0  0  0  0  0
   -0.8167    4.0543    0.0000 C   0  0  0  0  0  0  0  0  0  0  0  0
   -2.1159   -2.0576    0.0000 C   0  0  0  0  0  0  0  0  0  0  0  0
   -3.1734    0.3176    0.0000 C   0  0  0  0  0  0  0  0  0  0  0  0
    3.2918   -0.0130    0.0000 C   0  0  0  0  0  0  0  0  0  0  0  0
    0.7099   -0.7049    0.0000 C   0  0  0  0  0  0  0  0  0  0  0  0
    4.2955    1.1017    0.0000 C   0  0  0  0  0  0  0  0  0  0  0  0
   -1.2810    2.6271    0.0000 C   0  0  0  0  0  0  0  0  0  0  0  0
   -1.9595   -0.5650    0.0000 C   0  0  0  0  0  0  0  0  0  0  0  0
   -0.2773    1.5124    0.0000 C   0  0  0  0  0  0  0  0  0  0  0  0
    1.8246    0.2988    0.0000 C   0  0  0  0  0  0  0  0  0  0  0  0
   -0.5892    0.0451    0.0000 C   0  0  0  0  0  0  0  0  0  0  0  0
    3.8320    2.5283    0.0000 O   0  0  0  0  0  0  0  0  0  0  0  0
    1.2145    1.6691    0.0000 O   0  0  0  0  0  0  0  0  0  0  0  0
    0.8702   -2.2300    0.0000 O   0  0  0  0  0  0  0  0  0  0  0  0
  4  2  2  0
  5  2  1  0
  6  3  2  0
  7  3  1  0
  8  4  1  0
  9  5  2  0
 10  6  1  0
 11  7  2  0
 14  1  1  0
 14 12  1  0
 15  8  2  0
 15  9  1  0
 16 10  2  0
 16 11  1  0
 17 15  1  0
 18 12  1  0
 18 13  1  0
 19 13  1  0
 19 16  1  0
 19 17  1  0
 20 14  2  0
 21 17  1  0
 21 18  1  0
 22 18  1  0
 22 19  1  0
M  END
>  <NAME>  (5050) 
1-(2-OXOPROPYL)-3,4-DIPHENYL-2,5-DIOXABICYCLO(2.1.1)HEXANE

>  <SYNONYMS>  (5050) 


>  <SPECTRUM TYPE>  (5050) 
MS1

>  <INSTRUMENT TYPE>  (5050) 
EI-B

>  <INSTRUMENT>  (5050) 
JEOL JMS-DX-300

>  <ION MODE>  (5050) 
P

>  <INCHIKEY>  (5050) 
OQDWTZZQZLFWHR-UHFFFAOYSA-N

>  <FORMULA>  (5050) 
C19H18O3

>  <EXACT MASS>  (5050) 
294.125594436

>  <MW>  (5050) 
294

>  <ID>  (5050) 
JP004368

>  <CONTRIBUTOR>  (5050) 
University of Tokyo Team, {Faculty of Engineering, University of Tokyo

>  <COMMENT>  (5050) 
SMILES=CC(=O)CC(O2)(C1)OC(c(c4)cccc4)1C(c(c3)cccc3)2
InChI=InChI=1S/C19H18O3/c1-14(20)12-18-13-19(22-18,16-10-6-3-7-11-16)17(21-18)15-8-4-2-5-9-15/h2-11,17H,12-13H2,1H3
computed SMILES=O=C(C)CC12OC(C=3C=CC=CC3)C(O1)(C=4C=CC=CC4)C2
accession=JP004368
date=2016.01.19 (Created 2008.10.21, modified 2011.05.06)
author=HAGIWARA H, CHEM. RES. INST. OF NON-AQUEOUS SOLUTIONS, TOHOKU UNIV.
license=CC BY-NC-SA
exact mass=294.12559
ionization energy=70 eV
ion type=[M]+*
computed spectral entropy=3.2411534418632626
computed normalized entropy=0.8372475189820052
SPLASH=splash10-0f9f-7900000000-2f2ba8b696377f0b3fdc
submitter=submitter = University of Tokyo Team (Faculty of Engineering, University of Tokyo)
MoNA Rating=3.75

>  <NUM PEAKS>  (5050) 
48

>  <MASS SPECTRAL PEAKS>  (5050) 
43 99.99
44 3.92
50 4.15
51 18.28
52 2.55
58 2.91
63 5.32
64 2.15
65 4.93
68 2.84
69 15.11
75 3.17
76 5.61
77 57.54
78 9.04
79 17.85
85 4.67
89 7.28
90 4.86
91 11.55
102 9.53
103 60.35
104 9.14
105 7.79
106 7.6
107 16.15
115 7.21
116 4.24
117 25
118 7.93
128 2.25
131 5.74
145 9.17
146 3.62
147 2.61
152 5.65
159 3.75
160 44.16
161 6.59
165 9.79
166 3.95
167 6.33
178 2.87
187 3.52
188 51.6
189 10.51
191 4.83
192 2.84

$$$$

     RDKit          2D

 22 25  0  0  0  0  0  0  0  0999 V2000
    2.7999    0.1164    0.0000 C   0  0  0  0  0  0  0  0  0  0  0  0
   -4.4595    5.1444    0.0000 C   0  0  0  0  0  0  0  0  0  0  0  0
   -5.7900    0.1000    0.0000 C   0  0  0  0  0  0  0  0  0  0  0  0
   -4.8541    3.6964    0.0000 C   0  0  0  0  0  0  0  0  0  0  0  0
   -3.0084    5.5277    0.0000 C   0  0  0  0  0  0  0  0  0  0  0  0
   -5.0400   -1.2000    0.0000 C   0  0  0  0  0  0  0  0  0  0  0  0
   -5.0400    1.4000    0.0000 C   0  0  0  0  0  0  0  0  0  0  0  0
   -3.7976    2.6316    0.0000 C   0  0  0  0  0  0  0  0  0  0  0  0
   -1.9519    4.4628    0.0000 C   0  0  0  0  0  0  0  0  0  0  0  0
   -3.5400   -1.2000    0.0000 C   0  0  0  0  0  0  0  0  0  0  0  0
   -3.5400    1.4000    0.0000 C   0  0  0  0  0  0  0  0  0  0  0  0
    1.3000   -1.4000    0.0000 C   0  0  0  0  0  0  0  0  0  0  0  0
   -1.2900   -1.4000    0.0000 C   0  0  0  0  0  0  0  0  0  0  0  0
   -2.3465    3.0148    0.0000 C   0  0  0  0  0  0  0  0  0  0  0  0
   -2.7900    0.1000    0.0000 C   0  0  0  0  0  0  0  0  0  0  0  0
    0.0100   -2.1500    0.0000 C   0  0  0  0  0  0  0  0  0  0  0  0
   -1.2900    1.9500    0.0000 C   0  0  0  0  0  0  0  0  0  0  0  0
    1.3000    0.1000    0.0000 C   0  0  0  0  0  0  0  0  0  0  0  0
   -1.2900    0.1000    0.0000 C   0  0  0  0  0  0  0  0  0  0  0  0
    0.0125   -3.6500    0.0000 O   0  0  0  0  0  0  0  0  0  0  0  0
    1.2600    1.9300    0.0000 O   0  0  0  0  0  0  0  0  0  0  0  0
    0.0100    0.8500    0.0000 O   0  0  0  0  0  0  0  0  0  0  0  0
  4  2  2  0
  5  2  1  0
  6  3  2  0
  7  3  1  0
  8  4  1  0
  9  5  2  0
 10  6  1  0
 11  7  2  0
 14  8  2  0
 14  9  1  0
 15 10  2  0
 15 11  1  0
 16 12  1  0
 16 13  1  0
 17 14  1  0
 18  1  1  0
 18 12  1  0
 19 13  1  0
 19 15  1  0
 19 17  1  0
 20 16  2  0
 21 17  1  0
 21 18  1  0
 22 18  1  0
 22 19  1  0
M  END
>  <NAME>  (5051) 
1,7-DIPHENYL-5-METHYL-6,8-DIOXABICYCLO(3.2.1)OCTAN-3-ONE

>  <SYNONYMS>  (5051) 


>  <SPECTRUM TYPE>  (5051) 
MS1

>  <INSTRUMENT TYPE>  (5051) 
EI-B

>  <INSTRUMENT>  (5051) 
JEOL JMS-DX-300

>  <ION MODE>  (5051) 
P

>  <INCHIKEY>  (5051) 
YVQCQBZLHIQWKW-UHFFFAOYSA-N

>  <FORMULA>  (5051) 
C19H18O3

>  <EXACT MASS>  (5051) 
294.12559443600003

>  <MW>  (5051) 
294

>  <ID>  (5051) 
JP004367

>  <CONTRIBUTOR>  (5051) 
University of Tokyo Team, {Faculty of Engineering, University of Tokyo

>  <COMMENT>  (5051) 
SMILES=c(c4)ccc(c4)C(O1)C(C2)(c(c3)cccc3)OC(C)(CC(=O)2)1
InChI=InChI=1S/C19H18O3/c1-18-12-16(20)13-19(22-18,15-10-6-3-7-11-15)17(21-18)14-8-4-2-5-9-14/h2-11,17H,12-13H2,1H3
computed SMILES=O=C1CC2(OC(C=3C=CC=CC3)C(O2)(C=4C=CC=CC4)C1)C
accession=JP004367
date=2016.01.19 (Created 2008.10.21, modified 2011.05.06)
author=HAGIWARA H, CHEM. RES. INST. OF NON-AQUEOUS SOLUTIONS, TOHOKU UNIV.
license=CC BY-NC-SA
exact mass=294.12559
ionization energy=70 eV
ion type=[M]+*
computed spectral entropy=2.9431954436524763
computed normalized entropy=0.7523461491838447
SPLASH=splash10-004r-9800000000-1d1805e63e67f5060f65
submitter=submitter = University of Tokyo Team (Faculty of Engineering, University of Tokyo)
MoNA Rating=3.75

>  <NUM PEAKS>  (5051) 
50

>  <MASS SPECTRAL PEAKS>  (5051) 
28 99.99
40 1.61
41 5.33
43 3.36
44 1.54
50 1.5
51 6.56
52 1.11
55 1.57
57 2.93
58 1.29
63 1.69
65 1.32
67 2.68
69 6.51
76 0.16
77 23.75
78 3.41
79 5.47
84 1.18
85 27.01
86 1.56
89 2.37
90 1.54
91 3.38
102 4.39
103 28.28
104 4.03
105 37.82
106 3.17
107 5.05
115 2.17
116 1.44
117 12.02
118 3.35
131 1.72
145 4.4
146 1.62
147 1.25
152 1.29
159 1.88
160 22.27
161 2.76
165 2.51
167 1.77
187 1.88
188 42.11
189 6.18
190 1.32
191 2.32

$$$$

     RDKit          2D

 15 16  0  0  0  0  0  0  0  0999 V2000
    4.9658   -1.1155    0.0000 C   0  0  0  0  0  0  0  0  0  0  0  0
   -5.3712    1.8973    0.0000 C   0  0  0  0  0  0  0  0  0  0  0  0
   -4.7618    0.5257    0.0000 C   0  0  0  0  0  0  0  0  0  0  0  0
   -4.4889    3.1114    0.0000 C   0  0  0  0  0  0  0  0  0  0  0  0
   -3.2701    0.3683    0.0000 C   0  0  0  0  0  0  0  0  0  0  0  0
   -2.9972    2.9539    0.0000 C   0  0  0  0  0  0  0  0  0  0  0  0
    2.4259   -0.5690    0.0000 C   0  0  0  0  0  0  0  0  0  0  0  0
   -0.1461    0.1259    0.0000 C   0  0  0  0  0  0  0  0  0  0  0  0
    0.1037    2.5333    0.0000 C   0  0  0  0  0  0  0  0  0  0  0  0
    3.8536   -0.1090    0.0000 C   0  0  0  0  0  0  0  0  0  0  0  0
   -2.3878    1.5824    0.0000 C   0  0  0  0  0  0  0  0  0  0  0  0
   -0.8961    1.4249    0.0000 C   0  0  0  0  0  0  0  0  0  0  0  0
    1.3137    0.4375    0.0000 C   0  0  0  0  0  0  0  0  0  0  0  0
    4.1692    1.3574    0.0000 O   0  0  0  0  0  0  0  0  0  0  0  0
    1.4794    1.9304    0.0000 O   0  0  0  0  0  0  0  0  0  0  0  0
  3  2  2  0
  4  2  1  0
  5  3  1  0
  6  4  2  0
 10  1  1  0
 10  7  1  0
 11  5  2  0
 11  6  1  0
 12  8  1  0
 12  9  2  0
 12 11  1  0
 13  7  1  0
 13  8  2  0
 14 10  2  0
 15  9  1  0
 15 13  1  0
M  END
>  <NAME>  (5052) 
4-PHENYL-2-(2-OXOPROPYL)FURAN

>  <SYNONYMS>  (5052) 


>  <SPECTRUM TYPE>  (5052) 
MS1

>  <INSTRUMENT TYPE>  (5052) 
EI-B

>  <INSTRUMENT>  (5052) 
JEOL JMS-DX-300

>  <ION MODE>  (5052) 
P

>  <INCHIKEY>  (5052) 
KDJQNMWIFZVWFL-UHFFFAOYSA-N

>  <FORMULA>  (5052) 
C13H12O2

>  <EXACT MASS>  (5052) 
200.083729624

>  <MW>  (5052) 
200

>  <ID>  (5052) 
JP004366

>  <CONTRIBUTOR>  (5052) 
University of Tokyo Team, {Faculty of Engineering, University of Tokyo

>  <COMMENT>  (5052) 
SMILES=CC(=O)Cc(o2)cc(c2)c(c1)cccc1
InChI=InChI=1S/C13H12O2/c1-10(14)7-13-8-12(9-15-13)11-5-3-2-4-6-11/h2-6,8-9H,7H2,1H3
computed SMILES=O=C(C)CC=1OC=C(C1)C=2C=CC=CC2
ionization energy=70 eV
ion type=[M]+*
computed spectral entropy=2.903335594624051
computed normalized entropy=0.7924898978269596
accession=JP004366
date=2016.01.19 (Created 2008.10.21, modified 2011.05.06)
author=HAGIWARA H, CHEM. RES. INST. OF NON-AQUEOUS SOLUTIONS, TOHOKU UNIV.
license=CC BY-NC-SA
exact mass=200.08373
SPLASH=splash10-004i-7910000000-ef7ee303f24f5938821c
submitter=submitter = University of Tokyo Team (Faculty of Engineering, University of Tokyo)
MoNA Rating=3.75

>  <NUM PEAKS>  (5052) 
39

>  <MASS SPECTRAL PEAKS>  (5052) 
15 10.01
18 14.24
27 3.98
28 57.26
29 2.73
32 10.74
39 7.49
42 2.09
43 84.67
44 2.48
50 6.78
51 17.88
52 3.61
62 3.75
63 9.49
64 2.68
65 2.04
73 2.83
74 4.52
75 6.09
76 5.66
77 19.63
78 5.84
87 2.18
89 3.76
101 3.71
102 12.45
103 5.82
115 4.37
126 5.12
127 36.35
128 82.62
129 75.88
130 8.82
157 99.99
158 2.24
159 2.46
200 51.96
201 8.05

$$$$

     RDKit          2D

 16 18  0  0  0  0  0  0  0  0999 V2000
    2.7999    0.1164    0.0000 C   0  0  0  0  0  0  0  0  0  0  0  0
   -5.7900    0.1000    0.0000 C   0  0  0  0  0  0  0  0  0  0  0  0
   -5.0400   -1.2000    0.0000 C   0  0  0  0  0  0  0  0  0  0  0  0
   -5.0400    1.4000    0.0000 C   0  0  0  0  0  0  0  0  0  0  0  0
   -3.5400   -1.2000    0.0000 C   0  0  0  0  0  0  0  0  0  0  0  0
   -3.5400    1.4000    0.0000 C   0  0  0  0  0  0  0  0  0  0  0  0
    1.3000   -1.4000    0.0000 C   0  0  0  0  0  0  0  0  0  0  0  0
   -1.2900   -1.4000    0.0000 C   0  0  0  0  0  0  0  0  0  0  0  0
   -1.2900    1.9500    0.0000 C   0  0  0  0  0  0  0  0  0  0  0  0
   -2.7900    0.1000    0.0000 C   0  0  0  0  0  0  0  0  0  0  0  0
    0.0100   -2.1500    0.0000 C   0  0  0  0  0  0  0  0  0  0  0  0
    1.3000    0.1000    0.0000 C   0  0  0  0  0  0  0  0  0  0  0  0
   -1.2900    0.1000    0.0000 C   0  0  0  0  0  0  0  0  0  0  0  0
    0.0125   -3.6500    0.0000 O   0  0  0  0  0  0  0  0  0  0  0  0
    1.2600    1.9300    0.0000 O   0  0  0  0  0  0  0  0  0  0  0  0
    0.0100    0.8500    0.0000 O   0  0  0  0  0  0  0  0  0  0  0  0
  3  2  2  0
  4  2  1  0
  5  3  1  0
  6  4  2  0
 10  5  2  0
 10  6  1  0
 11  7  1  0
 11  8  1  0
 12  1  1  0
 12  7  1  0
 13  8  1  0
 13  9  1  0
 13 10  1  0
 14 11  2  0
 15  9  1  0
 15 12  1  0
 16 12  1  0
 16 13  1  0
M  END
>  <NAME>  (5053) 
5-METHYL-1-PHENYL-6,8-DIOXABICYCLO(3.2.1)OCTAN-3-ONE

>  <SYNONYMS>  (5053) 


>  <SPECTRUM TYPE>  (5053) 
MS1

>  <INSTRUMENT TYPE>  (5053) 
EI-B

>  <INSTRUMENT>  (5053) 
JEOL JMS-DX-300

>  <ION MODE>  (5053) 
P

>  <INCHIKEY>  (5053) 
JHIJFTFLTBMQRN-UHFFFAOYSA-N

>  <FORMULA>  (5053) 
C13H14O3

>  <EXACT MASS>  (5053) 
218.09429430799997

>  <MW>  (5053) 
218

>  <ID>  (5053) 
JP004365

>  <CONTRIBUTOR>  (5053) 
University of Tokyo Team, {Faculty of Engineering, University of Tokyo

>  <COMMENT>  (5053) 
SMILES=O=C(C2)CC(C3)(OC(C)2O3)c(c1)cccc1
InChI=InChI=1S/C13H14O3/c1-12-7-11(14)8-13(16-12,9-15-12)10-5-3-2-4-6-10/h2-6H,7-9H2,1H3
computed SMILES=O=C1CC2(OCC(O2)(C=3C=CC=CC3)C1)C
accession=JP004365
license=CC BY-NC-SA
date=2016.01.19 (Created 2008.10.21, modified 2011.05.06)
author=HAGIWARA H, CHEM. RES. INST. OF NON-AQUEOUS SOLUTIONS, TOHOKU UNIV.
exact mass=218.09429
ionization energy=70 eV
ion type=[M]+*
computed spectral entropy=3.017958804911709
computed normalized entropy=0.8488504508465536
SPLASH=splash10-052f-8900000000-8e922e1328311fcbfdcb
submitter=submitter = University of Tokyo Team (Faculty of Engineering, University of Tokyo)
MoNA Rating=3.75

>  <NUM PEAKS>  (5053) 
35

>  <MASS SPECTRAL PEAKS>  (5053) 
15 7.4
27 6.7
28 7.45
39 1.68
41 12.02
42 9.81
43 99.99
50 6.78
51 22.07
63 5.76
65 9.34
69 5.35
76 5.24
77 48.07
78 8.5
91 20.53
99 10.22
102 7.51
103 29.92
104 7.44
105 79.74
106 6.64
115 16.74
116 0.55
117 8
133 11.6
134 44.74
135 4.58
158 52.25
159 7.94
160 9.38
161 8.76
176 4.03
188 9.5
218 7.59

$$$$

     RDKit          2D

 19 20  0  0  0  0  0  0  0  0999 V2000
  -11.7900    5.2962    0.0000 C   0  0  0  0  0  0  0  0  0  0  0  0
    2.7999    0.1164    0.0000 C   0  0  0  0  0  0  0  0  0  0  0  0
  -10.2900    5.2962    0.0000 C   0  0  0  0  0  0  0  0  0  0  0  0
   -9.5400    3.9971    0.0000 C   0  0  0  0  0  0  0  0  0  0  0  0
   -8.0400    3.9971    0.0000 C   0  0  0  0  0  0  0  0  0  0  0  0
   -7.2900    2.6981    0.0000 C   0  0  0  0  0  0  0  0  0  0  0  0
   -5.7900    2.6981    0.0000 C   0  0  0  0  0  0  0  0  0  0  0  0
   -5.0400    1.3990    0.0000 C   0  0  0  0  0  0  0  0  0  0  0  0
   -3.5400    1.3990    0.0000 C   0  0  0  0  0  0  0  0  0  0  0  0
   -2.7900    0.1000    0.0000 C   0  0  0  0  0  0  0  0  0  0  0  0
    1.3000   -1.4000    0.0000 C   0  0  0  0  0  0  0  0  0  0  0  0
   -1.2900   -1.4000    0.0000 C   0  0  0  0  0  0  0  0  0  0  0  0
   -1.2900    1.9500    0.0000 C   0  0  0  0  0  0  0  0  0  0  0  0
    0.0100   -2.1500    0.0000 C   0  0  0  0  0  0  0  0  0  0  0  0
    1.3000    0.1000    0.0000 C   0  0  0  0  0  0  0  0  0  0  0  0
   -1.2900    0.1000    0.0000 C   0  0  0  0  0  0  0  0  0  0  0  0
    0.0125   -3.6500    0.0000 O   0  0  0  0  0  0  0  0  0  0  0  0
    1.2600    1.9300    0.0000 O   0  0  0  0  0  0  0  0  0  0  0  0
    0.0100    0.8500    0.0000 O   0  0  0  0  0  0  0  0  0  0  0  0
  3  1  1  0
  4  3  1  0
  5  4  1  0
  6  5  1  0
  7  6  1  0
  8  7  1  0
  9  8  1  0
 10  9  1  0
 14 11  1  0
 14 12  1  0
 15  2  1  0
 15 11  1  0
 16 10  1  0
 16 12  1  0
 16 13  1  0
 17 14  2  0
 18 13  1  0
 18 15  1  0
 19 15  1  0
 19 16  1  0
M  END
>  <NAME>  (5054) 
5-METHYL-1-NONYL-6,8-DIOXABICYCLO(3.2.1)OCTAN-3-ONE

>  <SYNONYMS>  (5054) 


>  <SPECTRUM TYPE>  (5054) 
MS1

>  <INSTRUMENT TYPE>  (5054) 
EI-B

>  <INSTRUMENT>  (5054) 
JEOL JMS-DX-300

>  <ION MODE>  (5054) 
P

>  <INCHIKEY>  (5054) 
PIMWQQQJSCEAQD-UHFFFAOYSA-N

>  <FORMULA>  (5054) 
C16H28O3

>  <EXACT MASS>  (5054) 
268.20384475599997

>  <MW>  (5054) 
268

>  <ID>  (5054) 
JP004364

>  <CONTRIBUTOR>  (5054) 
University of Tokyo Team, {Faculty of Engineering, University of Tokyo

>  <COMMENT>  (5054) 
SMILES=CCCCCCCCCC(C2)(C1)OC(C)(CC(=O)2)O1
InChI=InChI=1S/C16H28O3/c1-3-4-5-6-7-8-9-10-16-12-14(17)11-15(2,19-16)18-13-16/h3-13H2,1-2H3
computed SMILES=O=C1CC2(OCC(O2)(C1)CCCCCCCCC)C
accession=JP004364
date=2016.01.19 (Created 2008.10.21, modified 2011.05.06)
author=HAGIWARA H, CHEM. RES. INST. OF NON-AQUEOUS SOLUTIONS, TOHOKU UNIV.
license=CC BY-NC-SA
exact mass=268.20384
ionization energy=70 eV
ion type=[M]+*
computed spectral entropy=3.0286171331928915
computed normalized entropy=0.7782006622102268
SPLASH=splash10-0007-9100000000-4475bb06b9833777fde7
submitter=submitter = University of Tokyo Team (Faculty of Engineering, University of Tokyo)
MoNA Rating=3.75

>  <NUM PEAKS>  (5054) 
49

>  <MASS SPECTRAL PEAKS>  (5054) 
40 2.12
41 39.72
42 7.22
43 99.99
44 1.75
53 4.96
54 5.89
55 22.33
56 3.78
57 9.43
58 3.75
59 1.48
65 1.49
66 1.47
67 13.34
68 9.02
69 12.3
70 2.53
71 15.15
72 6.59
77 1.33
79 5.07
80 3.28
81 21.24
82 7.3
83 9.24
84 4.07
85 7.77
91 1.2
93 3.14
94 2.55
95 2.13
96 89.65
97 10.53
98 4.31
99 9.84
100 2.57
107 1.97
108 2.38
109 38.88
110 7.78
111 2.99
113 2.26
114 2.62
121 1.2
123 1.35
138 1.36
141 1.21
208 2.05

$$$$

     RDKit          2D

 18 19  0  0  0  0  0  0  0  0999 V2000
    9.0951    1.5010    0.0000 C   0  0  0  0  0  0  0  0  0  0  0  0
   -1.3000   -3.0000    0.0000 C   0  0  0  0  0  0  0  0  0  0  0  0
    7.7962    0.7508    0.0000 C   0  0  0  0  0  0  0  0  0  0  0  0
   -2.6000    0.7500    0.0000 C   0  0  0  0  0  0  0  0  0  0  0  0
   -2.6000   -0.7500    0.0000 C   0  0  0  0  0  0  0  0  0  0  0  0
   -1.3000    1.5000    0.0000 C   0  0  0  0  0  0  0  0  0  0  0  0
    3.8989    1.5002    0.0000 C   0  0  0  0  0  0  0  0  0  0  0  0
    2.6000   -0.7500    0.0000 C   0  0  0  0  0  0  0  0  0  0  0  0
   -1.3000   -1.5000    0.0000 C   0  0  0  0  0  0  0  0  0  0  0  0
    2.6000    0.7500    0.0000 C   0  0  0  0  0  0  0  0  0  0  0  0
    5.1981    0.7504    0.0000 C   0  0  0  0  0  0  0  0  0  0  0  0
    0.0000   -0.7500    0.0000 C   0  0  0  0  0  0  0  0  0  0  0  0
    1.3000    1.5000    0.0000 C   0  0  0  0  0  0  0  0  0  0  0  0
    1.3000   -1.5000    0.0000 N   0  0  0  0  0  0  0  0  0  0  0  0
    0.0000    0.7500    0.0000 N   0  0  0  0  0  0  0  0  0  0  0  0
    5.1983   -0.7496    0.0000 O   0  0  0  0  0  0  0  0  0  0  0  0
    1.3000    3.0000    0.0000 O   0  0  0  0  0  0  0  0  0  0  0  0
    6.4970    1.5006    0.0000 O   0  0  0  0  0  0  0  0  0  0  0  0
  3  1  1  0
  5  4  1  0
  6  4  2  0
  9  2  1  0
  9  5  2  0
 10  7  1  0
 10  8  2  0
 11  7  1  0
 12  9  1  0
 13 10  1  0
 14  8  1  0
 14 12  2  0
 15  6  1  0
 15 12  1  0
 15 13  1  0
 16 11  2  0
 17 13  2  0
 18  3  1  0
 18 11  1  0
M  END
>  <NAME>  (5055) 
9-METHYL-4-OXO-4H-PYRIDO(1,2-A)PYRIMIDINE-3-ACETIC ACID ETHYL ESTER

>  <SYNONYMS>  (5055) 


>  <SPECTRUM TYPE>  (5055) 
MS1

>  <INSTRUMENT TYPE>  (5055) 
EI-B

>  <INSTRUMENT>  (5055) 
MS-902

>  <ION MODE>  (5055) 
P

>  <INCHIKEY>  (5055) 
INWGIESOXMAPPF-UHFFFAOYSA-N

>  <FORMULA>  (5055) 
C13H14N2O3

>  <EXACT MASS>  (5055) 
246.10044230799997

>  <MW>  (5055) 
246

>  <ID>  (5055) 
JP004303

>  <CONTRIBUTOR>  (5055) 
University of Tokyo Team, {Faculty of Engineering, University of Tokyo

>  <COMMENT>  (5055) 
SMILES=CCOC(=O)CC(=C2)C(=O)N(C=1)C(=N2)C(C)=CC1
InChI=InChI=1S/C13H14N2O3/c1-3-18-11(16)7-10-8-14-12-9(2)5-4-6-15(12)13(10)17/h4-6,8H,3,7H2,1-2H3
computed SMILES=O=C(OCC)CC1=CN=C2C(=CC=CN2C1=O)C
accession=JP004303
date=2016.01.19 (Created 2008.10.21, modified 2011.05.06)
author=SASAKI S, TOYOHASHI UNIV. OF TECH.
license=CC BY-NC-SA
exact mass=246.10044
ionization energy=70 eV
ion type=[M]+*
computed spectral entropy=1.6824909856138963
computed normalized entropy=0.46252952142869685
SPLASH=splash10-00di-2900000000-0a247c93e4f2501d06d2
submitter=submitter = University of Tokyo Team (Faculty of Engineering, University of Tokyo)
MoNA Rating=3.75

>  <NUM PEAKS>  (5055) 
38

>  <MASS SPECTRAL PEAKS>  (5055) 
39 5
44 0.7
51 1
52 0.12
55 5
63 1
64 1.5
65 0.85
66 1.5
72 1
72.5 1
78 0.07
86.5 1.5
90 0.7
91 1.2
92 2.12
93 3.2
117 0.7
118 0.7
119 0.4
120 0.5
143 1
144 2.7
145 0.45
146 1
172 0.7
173 99.99
174 1.25
175 1
178 0.5
200 0.7
201 0.37
217 0.2
232 1.2
233 0.2
246 2.5
247 3.7
248 0.5

$$$$

     RDKit          2D

 18 19  0  0  0  0  0  0  0  0999 V2000
   10.3942    0.7512    0.0000 C   0  0  0  0  0  0  0  0  0  0  0  0
    9.0951    1.5010    0.0000 C   0  0  0  0  0  0  0  0  0  0  0  0
   -2.6000   -0.7500    0.0000 C   0  0  0  0  0  0  0  0  0  0  0  0
   -2.6000    0.7500    0.0000 C   0  0  0  0  0  0  0  0  0  0  0  0
   -1.3000   -1.5000    0.0000 C   0  0  0  0  0  0  0  0  0  0  0  0
    3.8989    1.5002    0.0000 C   0  0  0  0  0  0  0  0  0  0  0  0
    5.1981    0.7504    0.0000 C   0  0  0  0  0  0  0  0  0  0  0  0
   -1.3000    1.5000    0.0000 C   0  0  0  0  0  0  0  0  0  0  0  0
    2.6000   -0.7500    0.0000 C   0  0  0  0  0  0  0  0  0  0  0  0
    2.6000    0.7500    0.0000 C   0  0  0  0  0  0  0  0  0  0  0  0
    0.0000   -0.7500    0.0000 C   0  0  0  0  0  0  0  0  0  0  0  0
    6.4970    1.5006    0.0000 C   0  0  0  0  0  0  0  0  0  0  0  0
    1.3000    1.5000    0.0000 C   0  0  0  0  0  0  0  0  0  0  0  0
    1.3000   -1.5000    0.0000 N   0  0  0  0  0  0  0  0  0  0  0  0
    0.0000    0.7500    0.0000 N   0  0  0  0  0  0  0  0  0  0  0  0
    6.4968    3.0006    0.0000 O   0  0  0  0  0  0  0  0  0  0  0  0
    1.3000    3.0000    0.0000 O   0  0  0  0  0  0  0  0  0  0  0  0
    7.7962    0.7508    0.0000 O   0  0  0  0  0  0  0  0  0  0  0  0
  2  1  1  0
  4  3  1  0
  5  3  2  0
  7  6  1  0
  8  4  2  0
 10  6  1  0
 10  9  2  0
 11  5  1  0
 12  7  1  0
 13 10  1  0
 14  9  1  0
 14 11  2  0
 15  8  1  0
 15 11  1  0
 15 13  1  0
 16 12  2  0
 17 13  2  0
 18  2  1  0
 18 12  1  0
M  END
>  <NAME>  (5056) 
4-OXO-4H-PYRIDO(1,2-A)PYRIMIDINE-3-PROPIONIC ACID ETHYL ESTER

>  <SYNONYMS>  (5056) 


>  <SPECTRUM TYPE>  (5056) 
MS1

>  <INSTRUMENT TYPE>  (5056) 
EI-B

>  <INSTRUMENT>  (5056) 
MS-902

>  <ION MODE>  (5056) 
P

>  <INCHIKEY>  (5056) 
YIXJMFGCUAPJCZ-UHFFFAOYSA-N

>  <FORMULA>  (5056) 
C13H14N2O3

>  <EXACT MASS>  (5056) 
246.10044230799997

>  <MW>  (5056) 
246

>  <ID>  (5056) 
JP004302

>  <CONTRIBUTOR>  (5056) 
University of Tokyo Team, {Faculty of Engineering, University of Tokyo

>  <COMMENT>  (5056) 
SMILES=CCOC(=O)CCC(=C1)C(=O)N(C=2)C(C=CC2)=N1
InChI=InChI=1S/C13H14N2O3/c1-2-18-12(16)7-6-10-9-14-11-5-3-4-8-15(11)13(10)17/h3-5,8-9H,2,6-7H2,1H3
computed SMILES=O=C(OCC)CCC1=CN=C2C=CC=CN2C1=O
accession=JP004302
date=2016.01.19 (Created 2008.10.21, modified 2011.05.06)
author=SASAKI S, TOYOHASHI UNIV. OF TECH.
license=CC BY-NC-SA
exact mass=246.10044
ionization energy=70 eV
ion type=[M]+*
computed spectral entropy=2.5061750226316013
computed normalized entropy=0.7167652231761453
SPLASH=splash10-00di-1930000000-362fad6ec955ebf002f4
submitter=submitter = University of Tokyo Team (Faculty of Engineering, University of Tokyo)
MoNA Rating=3.75

>  <NUM PEAKS>  (5056) 
33

>  <MASS SPECTRAL PEAKS>  (5056) 
39 2.9
41 1.4
51 7.4
52 0.34
53 1.1
55 6.3
69 1.9
78 4.71
79 8
90 2
100.5 1
105 0.97
117 1.1
118 2.4
131 8.6
143 0.39
144 12.3
145 4.3
146 9.4
159 8.29
160 8.6
171 4.9
172 99.99
173 3.71
174 4.7
175 1.4
199 5.4
200 1.2
201 21.4
202 2.4
246 35.7
247 0.54
248 0.3

$$$$

     RDKit          2D

  8  7  0  0  0  0  0  0  0  0999 V2000
    1.9486    3.3750    0.0000 C   0  0  0  0  0  0  0  0  0  0  0  0
    0.6495    4.1250    0.0000 C   0  0  0  0  0  0  0  0  0  0  0  0
   -4.5466    4.1250    0.0000 C   0  0  0  0  0  0  0  0  0  0  0  0
   -3.2476    3.3750    0.0000 C   0  0  0  0  0  0  0  0  0  0  0  0
   -0.6495    3.3750    0.0000 C   0  0  0  0  0  0  0  0  0  0  0  0
   -5.8457    3.3750    0.0000 O   0  0  0  0  0  0  0  0  0  0  0  0
   -0.6495    1.8750    0.0000 O   0  0  0  0  0  0  0  0  0  0  0  0
   -1.9486    4.1250    0.0000 O   0  0  0  0  0  0  0  0  0  0  0  0
  2  1  2  0
  4  3  1  0
  5  2  1  0
  6  3  1  0
  7  5  2  0
  8  4  1  0
  8  5  1  0
M  END
>  <NAME>  (5057) 
2-HYDROXYETHYL ACRYLATE

>  <SYNONYMS>  (5057) 
ACRYLIC ACID 2-HYDROXYETHYL ESTER

>  <SPECTRUM TYPE>  (5057) 
MS1

>  <INSTRUMENT TYPE>  (5057) 
EI-B

>  <INSTRUMENT>  (5057) 
HITACHI RMU-7M

>  <ION MODE>  (5057) 
P

>  <INCHIKEY>  (5057) 
OMIGHNLMNHATMP-UHFFFAOYSA-N

>  <FORMULA>  (5057) 
C5H8O3

>  <EXACT MASS>  (5057) 
116.04734411599999

>  <MW>  (5057) 
116

>  <ID>  (5057) 
JP004301

>  <CONTRIBUTOR>  (5057) 
University of Tokyo Team, {Faculty of Engineering, University of Tokyo

>  <COMMENT>  (5057) 
SMILES=OCCOC(=O)C=C
cas=818-61-1
InChI=InChI=1S/C5H8O3/c1-2-5(7)8-4-3-6/h2,6H,1,3-4H2
computed SMILES=O=C(OCCO)C=C
accession=JP004301
date=2016.01.19 (Created 2008.10.21, modified 2011.05.06)
author=TAJIMA S, GUNMA COLLEGE OF TECHNOLOGY
license=CC BY-NC-SA
exact mass=116.04734
ionization energy=70 eV
ion type=[M]+*
computed spectral entropy=2.1953712376509644
computed normalized entropy=0.7455991627554346
SPLASH=splash10-0a4i-9000000000-7762e34677d6398973cf
submitter=submitter = University of Tokyo Team (Faculty of Engineering, University of Tokyo)
MoNA Rating=3.75

>  <NUM PEAKS>  (5057) 
19

>  <MASS SPECTRAL PEAKS>  (5057) 
15 5.42
26 3.91
27 22.22
28 5.35
29 11.8
31 6.24
42 3.09
43 7.54
44 22.91
45 4.18
55 99.99
56 3.91
57 3.7
58 7.2
72 1.71
73 11.73
85 6.45
86 6.24
99 1.71

$$$$

     RDKit          2D

 12 11  0  0  0  0  0  0  0  0999 V2000
    2.5981    4.5000    0.0000 C   0  0  0  0  0  0  0  0  0  0  0  0
   -1.2990    2.2500    0.0000 C   0  0  0  0  0  0  0  0  0  0  0  0
   -7.7942    4.5000    0.0000 C   0  0  0  0  0  0  0  0  0  0  0  0
    1.2990    5.2500    0.0000 C   0  0  0  0  0  0  0  0  0  0  0  0
   -2.5981    3.0000    0.0000 C   0  0  0  0  0  0  0  0  0  0  0  0
    0.0000    4.5000    0.0000 C   0  0  0  0  0  0  0  0  0  0  0  0
   -1.2990    5.2500    0.0000 C   0  0  0  0  0  0  0  0  0  0  0  0
   -3.8971    5.2500    0.0000 C   0  0  0  0  0  0  0  0  0  0  0  0
   -6.4952    5.2500    0.0000 C   0  0  0  0  0  0  0  0  0  0  0  0
   -2.5981    4.5000    0.0000 C   0  0  0  0  0  0  0  0  0  0  0  0
   -6.4952    6.7500    0.0000 O   0  0  0  0  0  0  0  0  0  0  0  0
   -5.1962    4.5000    0.0000 O   0  0  0  0  0  0  0  0  0  0  0  0
  4  1  1  0
  5  2  1  0
  6  4  1  0
  7  6  1  0
  9  3  1  0
 10  5  1  0
 10  7  1  0
 10  8  1  0
 11  9  2  0
 12  8  1  0
 12  9  1  0
M  END
>  <NAME>  (5058) 
2-ETHYLHEXYL ACETATE

>  <SYNONYMS>  (5058) 
ACETIC ACID 2-ETHYLHEXYL ESTER

>  <SPECTRUM TYPE>  (5058) 
MS1

>  <INSTRUMENT TYPE>  (5058) 
EI-B

>  <INSTRUMENT>  (5058) 
HITACHI RMU-7M

>  <ION MODE>  (5058) 
P

>  <INCHIKEY>  (5058) 
WOYWLLHHWAMFCB-UHFFFAOYSA-N

>  <FORMULA>  (5058) 
C10H20O2

>  <EXACT MASS>  (5058) 
172.14632988

>  <MW>  (5058) 
172

>  <ID>  (5058) 
JP004300

>  <CONTRIBUTOR>  (5058) 
University of Tokyo Team, {Faculty of Engineering, University of Tokyo

>  <COMMENT>  (5058) 
SMILES=CCCCC(CC)COC(C)=O
InChI=InChI=1S/C10H20O2/c1-4-6-7-10(5-2)8-12-9(3)11/h10H,4-8H2,1-3H3
computed SMILES=O=C(OCC(CC)CCCC)C
accession=JP004300
date=2016.01.19 (Created 2008.10.21, modified 2011.05.06)
author=TAJIMA S, GUNMA COLLEGE OF TECHNOLOGY
license=CC BY-NC-SA
exact mass=172.14633
ionization energy=70 eV
ion type=[M]+*
computed spectral entropy=2.802447744397948
computed normalized entropy=0.7882344276649924
SPLASH=splash10-0596-9000000000-27a87134740ded1dc819
submitter=submitter = University of Tokyo Team (Faculty of Engineering, University of Tokyo)
MoNA Rating=3.75

>  <NUM PEAKS>  (5058) 
35

>  <MASS SPECTRAL PEAKS>  (5058) 
15 3.06
27 8.34
28 3.06
29 13.75
31 1.3
39 5.34
41 28.93
42 9.97
43 99.99
44 3.78
53 1.76
54 1.82
55 36.22
56 21.5
57 49.19
58 2.87
61 5.8
67 1.95
68 1.89
69 12.25
70 72.31
71 11.47
72 2.61
73 9.25
74 13.29
75 1.82
82 4.56
83 20.07
84 12.31
86 5.28
97 2.08
98 1.56
111 1.5
112 3.78
113 2.08

$$$$

     RDKit          2D

 10  9  0  0  0  0  0  0  0  0999 V2000
   -3.5724    5.4375    0.0000 C   0  0  0  0  0  0  0  0  0  0  0  0
    2.9228    3.1875    0.0000 C   0  0  0  0  0  0  0  0  0  0  0  0
   -6.1704    3.9375    0.0000 C   0  0  0  0  0  0  0  0  0  0  0  0
   -2.2733    3.1875    0.0000 C   0  0  0  0  0  0  0  0  0  0  0  0
   -0.9743    3.9375    0.0000 C   0  0  0  0  0  0  0  0  0  0  0  0
   -3.5724    3.9375    0.0000 C   0  0  0  0  0  0  0  0  0  0  0  0
    1.6238    3.9375    0.0000 C   0  0  0  0  0  0  0  0  0  0  0  0
    1.6238    5.4375    0.0000 O   0  0  0  0  0  0  0  0  0  0  0  0
   -4.8714    3.1875    0.0000 O   0  0  0  0  0  0  0  0  0  0  0  0
    0.3248    3.1875    0.0000 O   0  0  0  0  0  0  0  0  0  0  0  0
  5  4  1  0
  6  1  1  0
  6  4  1  0
  7  2  1  0
  8  7  2  0
  9  3  1  0
  9  6  1  0
 10  5  1  0
 10  7  1  0
M  END
>  <NAME>  (5059) 
ACETIC ACID 3-METHOXYBUTYL ESTER

>  <SYNONYMS>  (5059) 


>  <SPECTRUM TYPE>  (5059) 
MS1

>  <INSTRUMENT TYPE>  (5059) 
EI-B

>  <INSTRUMENT>  (5059) 
HITACHI RMU-7M

>  <ION MODE>  (5059) 
P

>  <INCHIKEY>  (5059) 
QMYGFTJCQFEDST-UHFFFAOYSA-N

>  <FORMULA>  (5059) 
C7H14O3

>  <EXACT MASS>  (5059) 
146.09429430799997

>  <MW>  (5059) 
146

>  <ID>  (5059) 
JP004299

>  <CONTRIBUTOR>  (5059) 
University of Tokyo Team, {Faculty of Engineering, University of Tokyo

>  <COMMENT>  (5059) 
SMILES=COC(C)CCOC(C)=O
InChI=InChI=1S/C7H14O3/c1-6(9-3)4-5-10-7(2)8/h6H,4-5H2,1-3H3
computed SMILES=O=C(OCCC(OC)C)C
accession=JP004299
date=2016.01.19 (Created 2008.10.21, modified 2011.05.06)
author=TAJIMA S, GUNMA COLLEGE OF TECHNOLOGY
license=CC BY-NC-SA
exact mass=146.09429
ionization energy=70 eV
ion type=[M]+*
computed spectral entropy=2.2989202574051117
computed normalized entropy=0.6899097130398629
SPLASH=splash10-0a4l-9000000000-0521874dfc383eea9dda
submitter=submitter = University of Tokyo Team (Faculty of Engineering, University of Tokyo)
MoNA Rating=3.75

>  <NUM PEAKS>  (5059) 
28

>  <MASS SPECTRAL PEAKS>  (5059) 
15 4.56
27 2.99
28 1.64
29 10.83
31 14.19
33 1.64
39 2.61
41 10.46
42 3.58
43 46.9
44 1.87
45 3.44
54 1.12
55 10.46
56 3.66
57 1.49
58 2.99
59 99.99
60 3.29
61 2.09
71 19.57
72 2.09
73 1.49
75 1
85 1.64
86 6.35
87 1
115 1

$$$$

     RDKit          2D

  8  7  0  0  0  0  0  0  0  0999 V2000
   -0.6495    4.1250    0.0000 C   0  0  0  0  0  0  0  0  0  0  0  0
   -1.9486    4.8750    0.0000 C   0  0  0  0  0  0  0  0  0  0  0  0
    0.6495    4.8750    0.0000 C   0  0  0  0  0  0  0  0  0  0  0  0
   -3.2476    4.1250    0.0000 C   0  0  0  0  0  0  0  0  0  0  0  0
    1.9486    4.1250    0.0000 C   0  0  0  0  0  0  0  0  0  0  0  0
   -4.5466    4.8750    0.0000 C   0  0  0  0  0  0  0  0  0  0  0  0
    3.2476    3.3750    0.0000 N   0  0  0  0  0  0  0  0  0  0  0  0
   -5.8457    5.6250    0.0000 N   0  0  0  0  0  0  0  0  0  0  0  0
  2  1  1  0
  3  1  1  0
  4  2  1  0
  5  3  1  0
  6  4  1  0
  7  5  3  0
  8  6  3  0
M  END
>  <NAME>  (5060) 
1,4-BUTANEDICARBONITRILE

>  <SYNONYMS>  (5060) 
HEXANEDINITRILE

>  <SPECTRUM TYPE>  (5060) 
MS1

>  <INSTRUMENT TYPE>  (5060) 
EI-B

>  <INSTRUMENT>  (5060) 
HITACHI RMU-7M

>  <ION MODE>  (5060) 
P

>  <INCHIKEY>  (5060) 
BTGRAWJCKBQKAO-UHFFFAOYSA-N

>  <FORMULA>  (5060) 
C6H8N2

>  <EXACT MASS>  (5060) 
108.06874825599999

>  <MW>  (5060) 
108

>  <ID>  (5060) 
JP004298

>  <CONTRIBUTOR>  (5060) 
University of Tokyo Team, {Faculty of Engineering, University of Tokyo

>  <COMMENT>  (5060) 
SMILES=N#CCCCCC#N
cas=111-69-3
InChI=InChI=1S/C6H8N2/c7-5-3-1-2-4-6-8/h1-4H2
computed SMILES=N#CCCCCC#N
accession=JP004298
author=TAJIMA S, GUNMA COLLEGE OF TECHNOLOGY
date=2016.01.19 (Created 2008.10.21, modified 2011.05.06)
license=CC BY-NC-SA
exact mass=108.06875
ionization energy=70 eV
ion type=[M]+*
computed spectral entropy=2.490688210838518
computed normalized entropy=0.7186607060354671
SPLASH=splash10-0006-9000000000-811971dea62fd0719211
submitter=submitter = University of Tokyo Team (Faculty of Engineering, University of Tokyo)
MoNA Rating=3.75

>  <NUM PEAKS>  (5060) 
32

>  <MASS SPECTRAL PEAKS>  (5060) 
15 1.53
26 2.86
27 7.8
28 7.31
29 1.04
37 2.02
38 3.2
39 16.85
40 5.57
41 99.99
42 6.82
43 4.81
44 2.79
50 1.95
51 3.83
52 6.69
53 5.22
54 40.53
55 18.66
64 1.53
66 3.48
67 2.44
68 41.16
69 2.86
70 1.53
77 1.53
80 2.44
105 1.53
106 1.04
107 2.09
108 1
109 2.86

$$$$

     RDKit          2D

  4  3  0  0  0  0  0  0  0  0999 V2000
    0.0000    0.0000    0.0000 C   0  0  0  0  0  0  0  0  0  0  0  0
    0.0000    1.5000    0.0000 C   0  0  0  0  0  0  0  0  0  0  0  0
   -1.2990    2.2500    0.0000 C   0  0  0  0  0  0  0  0  0  0  0  0
   -2.5981    3.0000    0.0000 N   0  0  0  0  0  0  0  0  0  0  0  0
  2  1  2  0
  3  2  1  0
  4  3  3  0
M  END
>  <NAME>  (5061) 
ACRYLONITRILE

>  <SYNONYMS>  (5061) 


>  <SPECTRUM TYPE>  (5061) 
MS1

>  <INSTRUMENT TYPE>  (5061) 
EI-B

>  <INSTRUMENT>  (5061) 
HITACHI RMU-7M

>  <ION MODE>  (5061) 
P

>  <INCHIKEY>  (5061) 
NLHHRLWOUZZQLW-UHFFFAOYSA-N

>  <FORMULA>  (5061) 
C3H3N

>  <EXACT MASS>  (5061) 
53.026549096

>  <MW>  (5061) 
53

>  <ID>  (5061) 
JP004297

>  <CONTRIBUTOR>  (5061) 
University of Tokyo Team, {Faculty of Engineering, University of Tokyo

>  <COMMENT>  (5061) 
SMILES=C=CC#N
InChI=InChI=1S/C3H3N/c1-2-3-4/h2H,1H2
computed SMILES=N#CC=C
accession=JP004297
date=2016.01.19 (Created 2008.10.21, modified 2011.05.06)
author=TAJIMA S, GUNMA COLLEGE OF TECHNOLOGY
license=CC BY-NC-SA
exact mass=53.02655
ionization energy=70 eV
ion type=[M]+*
computed spectral entropy=1.880855205594443
computed normalized entropy=0.6945422226031525
SPLASH=splash10-0udi-9000000000-7a856e7548b46b71236f
submitter=submitter = University of Tokyo Team (Faculty of Engineering, University of Tokyo)
MoNA Rating=3.75

>  <NUM PEAKS>  (5061) 
15

>  <MASS SPECTRAL PEAKS>  (5061) 
12 1.21
24 1.68
25 6.44
26 83.96
27 13.25
28 4.01
36 1.87
37 4.2
38 5.69
39 1.96
50 8.3
51 33.12
52 81.16
53 99.99
54 5.41

$$$$

     RDKit          2D

  9  9  0  0  0  0  0  0  0  0999 V2000
   -3.1089    2.3334    0.0000 C   0  0  0  0  0  0  0  0  0  0  0  0
    0.0150    2.5767    0.0000 C   0  0  0  0  0  0  0  0  0  0  0  0
    1.4748    2.2651    0.0000 C   0  0  0  0  0  0  0  0  0  0  0  0
   -2.2267    1.1202    0.0000 C   0  0  0  0  0  0  0  0  0  0  0  0
   -0.7350    1.2777    0.0000 C   0  0  0  0  0  0  0  0  0  0  0  0
    0.2648    0.1693    0.0000 C   0  0  0  0  0  0  0  0  0  0  0  0
   -2.8362   -0.2504    0.0000 O   0  0  0  0  0  0  0  0  0  0  0  0
   -0.0507   -1.2971    0.0000 O   0  0  0  0  0  0  0  0  0  0  0  0
    1.6406    0.7722    0.0000 O   0  0  0  0  0  0  0  0  0  0  0  0
  3  2  1  0
  4  1  1  0
  5  2  1  0
  5  4  1  0
  6  5  1  0
  7  4  2  0
  8  6  2  0
  9  3  1  0
  9  6  1  0
M  END
>  <NAME>  (5062) 
ALPHA-ACETYL-GAMMA-BUTYROLACTONE

>  <SYNONYMS>  (5062) 


>  <SPECTRUM TYPE>  (5062) 
MS1

>  <INSTRUMENT TYPE>  (5062) 
EI-B

>  <INSTRUMENT>  (5062) 
HITACHI RMU-7M

>  <ION MODE>  (5062) 
P

>  <INCHIKEY>  (5062) 
OMQHDIHZSDEIFH-UHFFFAOYSA-N

>  <FORMULA>  (5062) 
C6H8O3

>  <EXACT MASS>  (5062) 
128.047344116

>  <MW>  (5062) 
128

>  <ID>  (5062) 
JP004296

>  <CONTRIBUTOR>  (5062) 
University of Tokyo Team, {Faculty of Engineering, University of Tokyo

>  <COMMENT>  (5062) 
SMILES=CC(=O)C(C1)C(=O)OC1
InChI=InChI=1S/C6H8O3/c1-4(7)5-2-3-9-6(5)8/h5H,2-3H2,1H3
computed SMILES=O=C1OCCC1C(=O)C
accession=JP004296
date=2016.01.19 (Created 2008.10.21, modified 2011.05.06)
author=TAJIMA S, GUNMA COLLEGE OF TECHNOLOGY
license=CC BY-NC-SA
exact mass=128.04734
ionization energy=70 eV
ion type=[M]+*
computed spectral entropy=2.6810549293741306
computed normalized entropy=0.7667808183574074
SPLASH=splash10-0006-9000000000-00ed7c337f8bf48b48eb
submitter=submitter = University of Tokyo Team (Faculty of Engineering, University of Tokyo)
MoNA Rating=3.75

>  <NUM PEAKS>  (5062) 
33

>  <MASS SPECTRAL PEAKS>  (5062) 
15 8.55
26 3.44
27 11.45
28 4.23
29 5.64
31 1.32
38 1.67
39 11.01
40 2.47
41 26.87
42 12.78
43 99.99
44 16.21
45 2.11
53 2.29
55 15.42
56 1.76
57 2.2
58 7.93
68 5.2
69 15.86
70 2.64
71 3.44
84 2.64
85 11.45
86 48.46
87 3
95 1.76
110 1.76
111 1.59
113 2.73
126 1.06
128 2.64

$$$$

     RDKit          2D

  9  8  0  0  0  0  0  0  0  0999 V2000
    1.9486    2.6250    0.0000 C   0  0  0  0  0  0  0  0  0  0  0  0
   -4.5466    3.3750    0.0000 C   0  0  0  0  0  0  0  0  0  0  0  0
   -3.2476    1.1250    0.0000 C   0  0  0  0  0  0  0  0  0  0  0  0
   -0.6495    2.6250    0.0000 C   0  0  0  0  0  0  0  0  0  0  0  0
    0.6495    3.3750    0.0000 C   0  0  0  0  0  0  0  0  0  0  0  0
   -1.9486    3.3750    0.0000 C   0  0  0  0  0  0  0  0  0  0  0  0
   -3.2476    2.6250    0.0000 N   0  0  0  0  0  0  0  0  0  0  0  0
    0.6495    4.8750    0.0000 O   0  0  0  0  0  0  0  0  0  0  0  0
   -1.9486    4.8750    0.0000 O   0  0  0  0  0  0  0  0  0  0  0  0
  5  1  1  0
  5  4  1  0
  6  4  1  0
  7  2  1  0
  7  3  1  0
  7  6  1  0
  8  5  2  0
  9  6  2  0
M  END
>  <NAME>  (5063) 
N,N-DIMETHYL ACETOACETAMIDE

>  <SYNONYMS>  (5063) 


>  <SPECTRUM TYPE>  (5063) 
MS1

>  <INSTRUMENT TYPE>  (5063) 
EI-B

>  <INSTRUMENT>  (5063) 
HITACHI RMU-7M

>  <ION MODE>  (5063) 
P

>  <INCHIKEY>  (5063) 
YPEWWOUWRRQBAX-UHFFFAOYSA-N

>  <FORMULA>  (5063) 
C6H11NO2

>  <EXACT MASS>  (5063) 
129.078978592

>  <MW>  (5063) 
129

>  <ID>  (5063) 
JP004295

>  <CONTRIBUTOR>  (5063) 
University of Tokyo Team, {Faculty of Engineering, University of Tokyo

>  <COMMENT>  (5063) 
SMILES=CC(=O)CC(=O)N(C)C
InChI=InChI=1S/C6H11NO2/c1-5(8)4-6(9)7(2)3/h4H2,1-3H3
computed SMILES=O=C(N(C)C)CC(=O)C
accession=JP004295
date=2016.01.19 (Created 2008.10.21, modified 2011.05.06)
author=TAJIMA S, GUNMA COLLEGE OF TECHNOLOGY
license=CC BY-NC-SA
exact mass=129.07898
ionization energy=70 eV
ion type=[M]+*
computed spectral entropy=2.5436931092076303
computed normalized entropy=0.7807298155604432
SPLASH=splash10-0006-9000000000-824bb71f6f2bf65b4826
submitter=submitter = University of Tokyo Team (Faculty of Engineering, University of Tokyo)
MoNA Rating=3.75

>  <NUM PEAKS>  (5063) 
26

>  <MASS SPECTRAL PEAKS>  (5063) 
14 3.39
15 21.47
18 16.21
26 4.29
27 7.01
28 16.61
29 3.39
30 4.41
39 3.62
40 3.62
41 6.67
42 20.56
43 83.16
44 99.99
45 56.5
46 3.95
58 19.44
69 13.67
72 7.8
84 13.56
85 3.62
86 2.15
87 4.41
101 1.13
112 2.71
129 5.2

$$$$

     RDKit          2D

  3  2  0  0  0  0  0  0  0  0999 V2000
   -1.2990    0.7500    0.0000 C   0  0  0  0  0  0  0  0  0  0  0  0
    0.0000    1.5000    0.0000 C   0  0  0  0  0  0  0  0  0  0  0  0
    1.2990    2.2500    0.0000 N   0  0  0  0  0  0  0  0  0  0  0  0
  2  1  1  0
  3  2  3  0
M  END
>  <NAME>  (5064) 
METHYL CYANIDE

>  <SYNONYMS>  (5064) 
ACETONITRILE

>  <SPECTRUM TYPE>  (5064) 
MS1

>  <INSTRUMENT TYPE>  (5064) 
EI-B

>  <INSTRUMENT>  (5064) 
HITACHI RMU-7M

>  <ION MODE>  (5064) 
P

>  <INCHIKEY>  (5064) 
WEVYAHXRMPXWCK-UHFFFAOYSA-N

>  <FORMULA>  (5064) 
C2H3N

>  <EXACT MASS>  (5064) 
41.026549096

>  <MW>  (5064) 
41

>  <ID>  (5064) 
JP004294

>  <CONTRIBUTOR>  (5064) 
University of Tokyo Team, {Faculty of Engineering, University of Tokyo

>  <COMMENT>  (5064) 
SMILES=CC#N
cas=75-05-8
InChI=InChI=1S/C2H3N/c1-2-3/h1H3
computed SMILES=N#CC
accession=JP004294
date=2016.01.19 (Created 2008.10.21, modified 2011.05.06)
author=TAJIMA S, GUNMA COLLEGE OF TECHNOLOGY
license=CC BY-NC-SA
exact mass=41.02655
ionization energy=70 eV
ion type=[M]+*
computed spectral entropy=1.30653804044714
computed normalized entropy=0.5946310877475741
SPLASH=splash10-0006-9000000000-6af7455c7bc61c954070
submitter=submitter = University of Tokyo Team (Faculty of Engineering, University of Tokyo)
MoNA Rating=3.75

>  <NUM PEAKS>  (5064) 
9

>  <MASS SPECTRAL PEAKS>  (5064) 
14 4.34
26 1.35
27 1
28 1
38 8.54
39 16.44
40 50.39
41 99.99
42 4.2

$$$$

     RDKit          2D

 12 11  0  0  0  0  0  0  0  0999 V2000
    3.2476    5.6250    0.0000 C   0  0  0  0  0  0  0  0  0  0  0  0
   -9.7428    5.6250    0.0000 C   0  0  0  0  0  0  0  0  0  0  0  0
    1.9486    6.3750    0.0000 C   0  0  0  0  0  0  0  0  0  0  0  0
   -0.6495    6.3750    0.0000 C   0  0  0  0  0  0  0  0  0  0  0  0
   -1.9486    5.6250    0.0000 C   0  0  0  0  0  0  0  0  0  0  0  0
   -4.5466    5.6250    0.0000 C   0  0  0  0  0  0  0  0  0  0  0  0
   -5.8457    6.3750    0.0000 C   0  0  0  0  0  0  0  0  0  0  0  0
   -8.4437    6.3750    0.0000 C   0  0  0  0  0  0  0  0  0  0  0  0
   -8.4437    7.8750    0.0000 O   0  0  0  0  0  0  0  0  0  0  0  0
    0.6495    5.6250    0.0000 O   0  0  0  0  0  0  0  0  0  0  0  0
   -3.2476    6.3750    0.0000 O   0  0  0  0  0  0  0  0  0  0  0  0
   -7.1447    5.6250    0.0000 O   0  0  0  0  0  0  0  0  0  0  0  0
  3  1  1  0
  5  4  1  0
  7  6  1  0
  8  2  1  0
  9  8  2  0
 10  3  1  0
 10  4  1  0
 11  5  1  0
 11  6  1  0
 12  7  1  0
 12  8  1  0
M  END
>  <NAME>  (5065) 
3,6-DIOXAOCTYL ACETATE

>  <SYNONYMS>  (5065) 
ACETIC ACID 3,6-DIOXAOCTYL ESTER

>  <SPECTRUM TYPE>  (5065) 
MS1

>  <INSTRUMENT TYPE>  (5065) 
EI-B

>  <INSTRUMENT>  (5065) 
HITACHI RMU-7M

>  <ION MODE>  (5065) 
P

>  <INCHIKEY>  (5065) 
FPZWZCWUIYYYBU-UHFFFAOYSA-N

>  <FORMULA>  (5065) 
C8H16O4

>  <EXACT MASS>  (5065) 
176.104858992

>  <MW>  (5065) 
176

>  <ID>  (5065) 
JP004293

>  <CONTRIBUTOR>  (5065) 
University of Tokyo Team, {Faculty of Engineering, University of Tokyo

>  <COMMENT>  (5065) 
SMILES=CCOCCOCCOC(C)=O
InChI=InChI=1S/C8H16O4/c1-3-10-4-5-11-6-7-12-8(2)9/h3-7H2,1-2H3
computed SMILES=O=C(OCCOCCOCC)C
accession=JP004293
date=2016.01.19 (Created 2008.10.21, modified 2011.05.06)
author=TAJIMA S, GUNMA COLLEGE OF TECHNOLOGY
license=CC BY-NC-SA
exact mass=176.10486
ionization energy=70 eV
ion type=[M]+*
computed spectral entropy=2.5525693788174024
computed normalized entropy=0.774482925762033
SPLASH=splash10-0076-9000000000-504f7aab930fe48988ed
submitter=submitter = University of Tokyo Team (Faculty of Engineering, University of Tokyo)
MoNA Rating=3.75

>  <NUM PEAKS>  (5065) 
27

>  <MASS SPECTRAL PEAKS>  (5065) 
15 4.99
19 1.41
27 5.83
28 11.57
29 15.52
31 41.39
41 6.68
42 4.23
43 99.99
44 17.03
45 55.79
58 2.07
59 47.98
60 3.2
61 5.83
72 42.52
73 20.51
74 3.01
75 1.41
86 2.07
87 60.21
88 3.01
89 3.95
101 2.35
103 3.1
116 1.13
117 1.88

$$$$

     RDKit          2D

  9  9  0  0  0  0  0  0  0  0999 V2000
    4.8270    1.2906    0.0000 C   0  0  0  0  0  0  0  0  0  0  0  0
    3.5281    0.5404    0.0000 C   0  0  0  0  0  0  0  0  0  0  0  0
   -1.6700   -0.9600    0.0000 C   0  0  0  0  0  0  0  0  0  0  0  0
   -1.6700    0.5400    0.0000 C   0  0  0  0  0  0  0  0  0  0  0  0
   -0.3700   -1.7100    0.0000 C   0  0  0  0  0  0  0  0  0  0  0  0
   -0.3700    1.2900    0.0000 C   0  0  0  0  0  0  0  0  0  0  0  0
    0.9300   -0.9600    0.0000 C   0  0  0  0  0  0  0  0  0  0  0  0
    0.9300    0.5400    0.0000 C   0  0  0  0  0  0  0  0  0  0  0  0
    2.2289    1.2902    0.0000 O   0  0  0  0  0  0  0  0  0  0  0  0
  2  1  1  0
  4  3  2  0
  5  3  1  0
  6  4  1  0
  7  5  2  0
  8  6  2  0
  8  7  1  0
  9  2  1  0
  9  8  1  0
M  END
>  <NAME>  (5066) 
ETHYL PHENYL ETHER

>  <SYNONYMS>  (5066) 
PHENETOLE

>  <SPECTRUM TYPE>  (5066) 
MS1

>  <INSTRUMENT TYPE>  (5066) 
EI-B

>  <INSTRUMENT>  (5066) 
HITACHI RMU-7M

>  <ION MODE>  (5066) 
P

>  <INCHIKEY>  (5066) 
DLRJIFUOBPOJNS-UHFFFAOYSA-N

>  <FORMULA>  (5066) 
C8H10O

>  <EXACT MASS>  (5066) 
122.07316494

>  <MW>  (5066) 
122

>  <ID>  (5066) 
JP004292

>  <CONTRIBUTOR>  (5066) 
University of Tokyo Team, {Faculty of Engineering, University of Tokyo

>  <COMMENT>  (5066) 
SMILES=CCOc(c1)cccc1
InChI=InChI=1S/C8H10O/c1-2-9-8-6-4-3-5-7-8/h3-7H,2H2,1H3
computed SMILES=O(C=1C=CC=CC1)CC
accession=JP004292
date=2016.01.19 (Created 2008.10.21, modified 2011.05.06)
author=TAJIMA S, GUNMA COLLEGE OF TECHNOLOGY
license=CC BY-NC-SA
exact mass=122.07316
ionization energy=70 eV
ion type=[M]+*
computed spectral entropy=1.9230027795023588
computed normalized entropy=0.6787356072343145
SPLASH=splash10-0006-9200000000-3ee88e5ad0a2ee96135a
submitter=submitter = University of Tokyo Team (Faculty of Engineering, University of Tokyo)
MoNA Rating=3.75

>  <NUM PEAKS>  (5066) 
17

>  <MASS SPECTRAL PEAKS>  (5066) 
27 4.39
28 1.22
29 5
39 7.76
40 3.47
50 2.24
51 6.33
55 2.96
63 2.04
65 7.35
66 14.39
77 8.16
94 99.99
95 6.53
107 1.22
122 39.39
123 3.47

$$$$

     RDKit          2D

  8  7  0  0  0  0  0  0  0  0999 V2000
    1.9486    3.3750    0.0000 C   0  0  0  0  0  0  0  0  0  0  0  0
   -5.8457    3.3750    0.0000 C   0  0  0  0  0  0  0  0  0  0  0  0
    0.6495    4.1250    0.0000 C   0  0  0  0  0  0  0  0  0  0  0  0
   -0.6495    3.3750    0.0000 C   0  0  0  0  0  0  0  0  0  0  0  0
   -1.9486    4.1250    0.0000 C   0  0  0  0  0  0  0  0  0  0  0  0
   -3.2476    3.3750    0.0000 C   0  0  0  0  0  0  0  0  0  0  0  0
   -3.2476    1.8750    0.0000 O   0  0  0  0  0  0  0  0  0  0  0  0
   -4.5466    4.1250    0.0000 O   0  0  0  0  0  0  0  0  0  0  0  0
  3  1  1  0
  4  3  1  0
  5  4  1  0
  6  5  1  0
  7  6  2  0
  8  2  1  0
  8  6  1  0
M  END
>  <NAME>  (5067) 
VALERIC  ACID METHYL ESTER

>  <SYNONYMS>  (5067) 


>  <SPECTRUM TYPE>  (5067) 
MS1

>  <INSTRUMENT TYPE>  (5067) 
EI-B

>  <INSTRUMENT>  (5067) 
HITACHI RMU-7M

>  <ION MODE>  (5067) 
P

>  <INCHIKEY>  (5067) 
HNBDRPTVWVGKBR-UHFFFAOYSA-N

>  <FORMULA>  (5067) 
C6H12O2

>  <EXACT MASS>  (5067) 
116.083729624

>  <MW>  (5067) 
116

>  <ID>  (5067) 
JP004291

>  <CONTRIBUTOR>  (5067) 
University of Tokyo Team, {Faculty of Engineering, University of Tokyo

>  <COMMENT>  (5067) 
SMILES=CCCCC(=O)OC
cas=624-24-8
InChI=InChI=1S/C6H12O2/c1-3-4-5-6(7)8-2/h3-5H2,1-2H3
computed SMILES=O=C(OC)CCCC
accession=JP004291
date=2016.01.19 (Created 2008.10.21, modified 2011.05.06)
author=TAJIMA S, GUNMA COLLEGE OF TECHNOLOGY
license=CC BY-NC-SA
exact mass=116.08373
ionization energy=70 eV
ion type=[M]+*
computed spectral entropy=2.607881312533278
computed normalized entropy=0.8101838823310494
SPLASH=splash10-05g3-9000000000-6fe0175afcb595d513f3
submitter=submitter = University of Tokyo Team (Faculty of Engineering, University of Tokyo)
MoNA Rating=3.75

>  <NUM PEAKS>  (5067) 
25

>  <MASS SPECTRAL PEAKS>  (5067) 
15 11.17
27 12.57
28 3.91
29 26.63
31 3.54
39 6.7
40 1.77
41 25.42
42 5.77
43 39.76
44 4.66
45 2.7
55 13.04
56 6.7
57 36.59
58 1.96
59 21.04
73 1.68
74 99.99
75 4
85 36.31
86 2.61
87 28.86
88 2.79
101 1.96

$$$$

     RDKit          2D

  9  9  0  0  0  0  0  0  0  0999 V2000
    0.9744   -2.8133    0.0000 C   0  0  0  0  0  0  0  0  0  0  0  0
    0.9737    1.6883    0.0000 C   0  0  0  0  0  0  0  0  0  0  0  0
    2.2732    0.9375    0.0000 C   0  0  0  0  0  0  0  0  0  0  0  0
   -0.3254    0.9383    0.0000 C   0  0  0  0  0  0  0  0  0  0  0  0
    0.9746   -1.3133    0.0000 C   0  0  0  0  0  0  0  0  0  0  0  0
    2.2737   -0.5633    0.0000 C   0  0  0  0  0  0  0  0  0  0  0  0
   -0.3249   -0.5625    0.0000 C   0  0  0  0  0  0  0  0  0  0  0  0
    3.5728   -1.3131    0.0000 N   0  0  0  0  0  0  0  0  0  0  0  0
   -1.6239   -1.3125    0.0000 N   0  0  0  0  0  0  0  0  0  0  0  0
  3  2  2  0
  4  2  1  0
  5  1  1  0
  6  3  1  0
  6  5  2  0
  7  4  2  0
  7  5  1  0
  8  6  1  0
  9  7  1  0
M  END
>  <NAME>  (5068) 
2,6-DIAMINOTOLUENE

>  <SYNONYMS>  (5068) 


>  <SPECTRUM TYPE>  (5068) 
MS1

>  <INSTRUMENT TYPE>  (5068) 
EI-B

>  <INSTRUMENT>  (5068) 
HITACHI RMU-7M

>  <ION MODE>  (5068) 
P

>  <INCHIKEY>  (5068) 
RLYCRLGLCUXUPO-UHFFFAOYSA-N

>  <FORMULA>  (5068) 
C7H10N2

>  <EXACT MASS>  (5068) 
122.08439831999999

>  <MW>  (5068) 
122

>  <ID>  (5068) 
JP004290

>  <CONTRIBUTOR>  (5068) 
University of Tokyo Team, {Faculty of Engineering, University of Tokyo

>  <COMMENT>  (5068) 
SMILES=Nc(c1)c(C)c(N)cc1
cas=823-40-5
InChI=InChI=1S/C7H10N2/c1-5-6(8)3-2-4-7(5)9/h2-4H,8-9H2,1H3
computed SMILES=NC1=CC=CC(N)=C1C
accession=JP004290
date=2016.01.19 (Created 2008.10.21, modified 2011.05.06)
author=TAJIMA S, GUNMA COLLEGE OF TECHNOLOGY
license=CC BY-NC-SA
exact mass=122.0844
ionization energy=70 eV
ion type=[M]+*
computed spectral entropy=2.8278058692574795
computed normalized entropy=0.8234759481817723
SPLASH=splash10-00di-5900000000-b977c8e3581fb459bff3
submitter=submitter = University of Tokyo Team (Faculty of Engineering, University of Tokyo)
MoNA Rating=3.75

>  <NUM PEAKS>  (5068) 
31

>  <MASS SPECTRAL PEAKS>  (5068) 
30 2.5
38 2.38
39 7.73
41 5.35
42 3.57
51 5.71
52 5.95
53 4.52
54 4.16
61 5.71
65 6.42
66 6.54
67 3.57
77 14.98
78 10.7
79 6.06
80 5.95
81 8.09
92 2.97
93 13.32
94 20.21
95 4.16
104 24.02
105 14.86
106 33.17
107 13.08
119 2.49
120 2.62
121 54.7
122 99.99
123 9.51

$$$$

     RDKit          2D

  3  2  0  0  0  0  0  0  0  0999 V2000
   -1.2990    0.0000    0.0000 C   0  0  0  0  0  0  0  0  0  0  0  0
   -0.0000    0.7500    0.0000 C   0  0  0  0  0  0  0  0  0  0  0  0
    0.0000    2.2500    0.0000 Br  0  0  0  0  0  0  0  0  0  0  0  0
  2  1  1  0
  3  2  1  0
M  END
>  <NAME>  (5069) 
ETHYL BROMIDE

>  <SYNONYMS>  (5069) 
BROMOETHANE

>  <SPECTRUM TYPE>  (5069) 
MS1

>  <INSTRUMENT TYPE>  (5069) 
EI-B

>  <INSTRUMENT>  (5069) 
HITACHI RMU-7M

>  <ION MODE>  (5069) 
P

>  <INCHIKEY>  (5069) 
RDHPKYGYEGBMSE-UHFFFAOYSA-N

>  <FORMULA>  (5069) 
C2H5Br

>  <EXACT MASS>  (5069) 
107.95746226

>  <MW>  (5069) 
108

>  <ID>  (5069) 
JP004289

>  <CONTRIBUTOR>  (5069) 
University of Tokyo Team, {Faculty of Engineering, University of Tokyo

>  <COMMENT>  (5069) 
SMILES=CCBr
cas=74-96-4
InChI=InChI=1S/C2H5Br/c1-2-3/h2H2,1H3
computed SMILES=BrCC
accession=JP004289
date=2016.01.19 (Created 2008.10.21, modified 2011.05.06)
author=TAJIMA S, GUNMA COLLEGE OF TECHNOLOGY
license=CC BY-NC-SA
exact mass=107.95746
ionization energy=70 eV
ion type=[M]+*
computed spectral entropy=1.933816369155971
computed normalized entropy=0.6974768214428051
SPLASH=splash10-004i-9600000000-4689a003ccba83a948a1
submitter=submitter = University of Tokyo Team (Faculty of Engineering, University of Tokyo)
MoNA Rating=3.75

>  <NUM PEAKS>  (5069) 
16

>  <MASS SPECTRAL PEAKS>  (5069) 
25 2.12
26 19.09
27 75.25
28 28.08
29 99.99
30 2.02
77 3.03
79 2.22
81 2.12
93 4.14
95 2.93
105 6.06
108 91.31
109 1.92
110 86.67
111 1.01

$$$$

     RDKit          2D

  4  3  0  0  0  0  0  0  0  0999 V2000
    0.9743    0.5625    0.0000 C   0  0  0  0  0  0  0  0  0  0  0  0
   -0.3248    1.3125    0.0000 N   0  0  0  0  0  0  0  0  0  0  0  0
   -1.6238    0.5625    0.0000 O   0  0  0  0  0  0  0  0  0  0  0  0
   -0.3248    2.8125    0.0000 O   0  0  0  0  0  0  0  0  0  0  0  0
  2  1  1  0
  3  2  1  0
  4  2  2  0
M  CHG  2   2   1   3  -1
M  END
>  <NAME>  (5070) 
NITROMETHANE

>  <SYNONYMS>  (5070) 


>  <SPECTRUM TYPE>  (5070) 
MS1

>  <INSTRUMENT TYPE>  (5070) 
EI-B

>  <INSTRUMENT>  (5070) 
HITACHI RMU-7M

>  <ION MODE>  (5070) 
P

>  <INCHIKEY>  (5070) 
LYGJENNIWJXYER-UHFFFAOYSA-N

>  <FORMULA>  (5070) 
CH3NO2

>  <EXACT MASS>  (5070) 
61.016378336

>  <MW>  (5070) 
61

>  <ID>  (5070) 
JP004288

>  <CONTRIBUTOR>  (5070) 
University of Tokyo Team, {Faculty of Engineering, University of Tokyo

>  <COMMENT>  (5070) 
SMILES=C[N+1]([O-1])=O
cas=75-52-5
InChI=InChI=1S/CH3NO2/c1-2(3)4/h1H3
computed SMILES=O=N(=O)C
accession=JP004288
date=2016.01.19 (Created 2008.10.21, modified 2011.05.06)
author=TAJIMA S, GUNMA COLLEGE OF TECHNOLOGY
license=CC BY-NC-SA
exact mass=61.01638
ionization energy=70 eV
ion type=[M]+*
computed spectral entropy=2.574580213001911
computed normalized entropy=0.832916484276919
SPLASH=splash10-015c-9000000000-5d401a6fa80aa916b4e3
submitter=submitter = University of Tokyo Team (Faculty of Engineering, University of Tokyo)
MoNA Rating=3.75

>  <NUM PEAKS>  (5070) 
22

>  <MASS SPECTRAL PEAKS>  (5070) 
14 3.67
15 27.16
16 6.88
17 19.26
18 68.72
26 7.34
27 34.59
28 17.43
29 13.76
30 99.99
31 1.38
38 1.83
39 2.75
40 7.34
41 14.68
42 3.58
43 6.88
44 45.32
45 10.18
46 35.05
60 4.5
61 48.26

$$$$

     RDKit          2D

  4  4  0  0  0  0  0  0  0  0999 V2000
    0.0000    1.0600    0.0000 C   0  0  0  0  0  0  0  0  0  0  0  0
    1.0600   -0.0000    0.0000 C   0  0  0  0  0  0  0  0  0  0  0  0
   -1.0600   -0.0000    0.0000 C   0  0  0  0  0  0  0  0  0  0  0  0
    0.0000   -1.0600    0.0000 O   0  0  0  0  0  0  0  0  0  0  0  0
  2  1  1  0
  3  1  1  0
  4  2  1  0
  4  3  1  0
M  END
>  <NAME>  (5071) 
TRIMETHYLENE OXIDE

>  <SYNONYMS>  (5071) 


>  <SPECTRUM TYPE>  (5071) 
MS1

>  <INSTRUMENT TYPE>  (5071) 
EI-B

>  <INSTRUMENT>  (5071) 
HITACHI RMU-7M

>  <ION MODE>  (5071) 
P

>  <INCHIKEY>  (5071) 
AHHWIHXENZJRFG-UHFFFAOYSA-N

>  <FORMULA>  (5071) 
C3H6O

>  <EXACT MASS>  (5071) 
58.041864812

>  <MW>  (5071) 
58

>  <ID>  (5071) 
JP004287

>  <CONTRIBUTOR>  (5071) 
University of Tokyo Team, {Faculty of Engineering, University of Tokyo

>  <COMMENT>  (5071) 
SMILES=C(C1)CO1
InChI=InChI=1S/C3H6O/c1-2-4-3-1/h1-3H2
computed SMILES=O1CCC1
accession=JP004287
date=2016.01.19 (Created 2008.10.21, modified 2011.05.06)
author=TAJIMA S, GUNMA COLLEGE OF TECHNOLOGY
license=CC BY-NC-SA
exact mass=58.04186
ionization energy=70 eV
ion type=[M]+*
computed spectral entropy=1.872777013247282
computed normalized entropy=0.6915591935795867
SPLASH=splash10-004i-9000000000-ba9cba0da49f4e77b06e
submitter=submitter = University of Tokyo Team (Faculty of Engineering, University of Tokyo)
MoNA Rating=3.75

>  <NUM PEAKS>  (5071) 
15

>  <MASS SPECTRAL PEAKS>  (5071) 
25 1.41
26 14.93
27 20.94
28 99.99
29 20.56
30 4.69
31 7.23
39 2.63
41 1.41
42 1.5
43 1.22
44 2.72
57 11.36
58 27.51
59 2.16

$$$$

     RDKit          2D

  8  8  0  0  0  0  0  0  0  0999 V2000
   -1.3000    0.7500    0.0000 C   0  0  0  0  0  0  0  0  0  0  0  0
    0.0000    1.5000    0.0000 C   0  0  0  0  0  0  0  0  0  0  0  0
   -0.0000   -1.5000    0.0000 C   0  0  0  0  0  0  0  0  0  0  0  0
    1.3000   -0.7500    0.0000 C   0  0  0  0  0  0  0  0  0  0  0  0
   -1.3000   -0.7500    0.0000 C   0  0  0  0  0  0  0  0  0  0  0  0
    1.3000    0.7500    0.0000 C   0  0  0  0  0  0  0  0  0  0  0  0
   -2.5989   -1.5002    0.0000 Cl  0  0  0  0  0  0  0  0  0  0  0  0
    2.5989    1.5002    0.0000 Cl  0  0  0  0  0  0  0  0  0  0  0  0
  2  1  2  0
  4  3  1  0
  5  1  1  0
  5  3  2  0
  6  2  1  0
  6  4  2  0
  7  5  1  0
  8  6  1  0
M  END
>  <NAME>  (5072) 
1,4-DICHLOROBENZENE

>  <SYNONYMS>  (5072) 


>  <SPECTRUM TYPE>  (5072) 
MS1

>  <INSTRUMENT TYPE>  (5072) 
EI-B

>  <INSTRUMENT>  (5072) 
HITACHI RMU-7M

>  <ION MODE>  (5072) 
P

>  <INCHIKEY>  (5072) 
OCJBOOLMMGQPQU-UHFFFAOYSA-N

>  <FORMULA>  (5072) 
C6H4Cl2

>  <EXACT MASS>  (5072) 
145.969005488

>  <MW>  (5072) 
146

>  <ID>  (5072) 
JP004286

>  <CONTRIBUTOR>  (5072) 
University of Tokyo Team, {Faculty of Engineering, University of Tokyo

>  <COMMENT>  (5072) 
SMILES=Clc(c1)ccc(Cl)c1
cas=106-46-7
InChI=InChI=1S/C6H4Cl2/c7-5-1-2-6(8)4-3-5/h1-4H
computed SMILES=ClC1=CC=C(Cl)C=C1
accession=JP004286
date=2016.01.19 (Created 2008.10.21, modified 2011.05.06)
author=TAJIMA S, GUNMA COLLEGE OF TECHNOLOGY
license=CC BY-NC-SA
exact mass=145.96901
ionization energy=70 eV
ion type=[M]+*
computed spectral entropy=2.364297090203241
computed normalized entropy=0.7648866445151893
SPLASH=splash10-0002-4900000000-33e4c1cd3b8d393493c5
submitter=submitter = University of Tokyo Team (Faculty of Engineering, University of Tokyo)
MoNA Rating=3.75

>  <NUM PEAKS>  (5072) 
22

>  <MASS SPECTRAL PEAKS>  (5072) 
36 3.85
37 2.64
49 3.52
50 20.88
51 5.71
55 2.42
61 1.87
73 7.91
74 17.91
75 37.47
76 3.96
84 3.52
85 4.4
110 3.3
111 52.97
112 3.52
113 16.48
146 99.99
147 5.82
148 62.09
149 3.41
150 8.79

$$$$

     RDKit          2D

  9  9  0  0  0  0  0  0  0  0999 V2000
    2.2733   -0.6175    0.0000 C   0  0  0  0  0  0  0  0  0  0  0  0
    2.2738    0.8833    0.0000 C   0  0  0  0  0  0  0  0  0  0  0  0
    0.9738   -1.3683    0.0000 C   0  0  0  0  0  0  0  0  0  0  0  0
    0.9748    1.6333    0.0000 C   0  0  0  0  0  0  0  0  0  0  0  0
   -0.3252   -0.6183    0.0000 C   0  0  0  0  0  0  0  0  0  0  0  0
   -0.3248    0.8825    0.0000 C   0  0  0  0  0  0  0  0  0  0  0  0
   -1.6238    1.6325    0.0000 C   0  0  0  0  0  0  0  0  0  0  0  0
   -1.6238    3.1325    0.0000 O   0  0  0  0  0  0  0  0  0  0  0  0
   -2.9228    0.8825    0.0000 O   0  0  0  0  0  0  0  0  0  0  0  0
  2  1  2  0
  3  1  1  0
  4  2  1  0
  5  3  2  0
  6  4  2  0
  6  5  1  0
  7  6  1  0
  8  7  2  0
  9  7  1  0
M  END
>  <NAME>  (5073) 
BENZOIC ACID

>  <SYNONYMS>  (5073) 


>  <SPECTRUM TYPE>  (5073) 
MS1

>  <INSTRUMENT TYPE>  (5073) 
EI-B

>  <INSTRUMENT>  (5073) 
HITACHI RMU-7M

>  <ION MODE>  (5073) 
P

>  <INCHIKEY>  (5073) 
WPYMKLBDIGXBTP-UHFFFAOYSA-N

>  <FORMULA>  (5073) 
C7H6O2

>  <EXACT MASS>  (5073) 
122.036779432

>  <MW>  (5073) 
122

>  <ID>  (5073) 
JP004285

>  <CONTRIBUTOR>  (5073) 
University of Tokyo Team, {Faculty of Engineering, University of Tokyo

>  <COMMENT>  (5073) 
SMILES=OC(=O)c(c1)cccc1
cas=65-85-0
InChI=InChI=1S/C7H6O2/c8-7(9)6-4-2-1-3-5-6/h1-5H,(H,8,9)
computed SMILES=O=C(O)C=1C=CC=CC1
accession=JP004285
date=2016.01.19 (Created 2008.10.21, modified 2011.05.06)
author=TAJIMA S, GUNMA COLLEGE OF TECHNOLOGY
license=CC BY-NC-SA
exact mass=122.03678
ionization energy=70 eV
ion type=[M]+*
computed spectral entropy=2.441876192278696
computed normalized entropy=0.7251742393802402
SPLASH=splash10-0adi-9800000000-40f904bf20072c72a08b
submitter=submitter = University of Tokyo Team (Faculty of Engineering, University of Tokyo)
MoNA Rating=3.75

>  <NUM PEAKS>  (5073) 
29

>  <MASS SPECTRAL PEAKS>  (5073) 
27 3.15
37 2.71
38 4.12
39 6.51
44 1.95
45 2.17
49 2.17
50 17.68
51 31.02
52 5.42
53 1.63
63 2.17
65 4.34
66 3.25
73 2.17
74 7.81
75 4.34
76 6.51
77 86.88
78 9.76
91 2.71
94 3.8
104 2.17
105 99.99
106 9.22
120 6.51
121 5.42
122 68.33
123 6.4

$$$$

     RDKit          2D

 10 11  0  0  0  0  0  0  0  0999 V2000
   -2.6000   -0.7500    0.0000 C   0  0  0  0  0  0  0  0  0  0  0  0
   -2.6000    0.7500    0.0000 C   0  0  0  0  0  0  0  0  0  0  0  0
    2.6000   -0.7500    0.0000 C   0  0  0  0  0  0  0  0  0  0  0  0
    2.6000    0.7500    0.0000 C   0  0  0  0  0  0  0  0  0  0  0  0
   -1.3000   -1.5000    0.0000 C   0  0  0  0  0  0  0  0  0  0  0  0
   -1.3000    1.5000    0.0000 C   0  0  0  0  0  0  0  0  0  0  0  0
    1.3000   -1.5000    0.0000 C   0  0  0  0  0  0  0  0  0  0  0  0
    1.3000    1.5000    0.0000 C   0  0  0  0  0  0  0  0  0  0  0  0
    0.0000   -0.7500    0.0000 C   0  0  0  0  0  0  0  0  0  0  0  0
    0.0000    0.7500    0.0000 C   0  0  0  0  0  0  0  0  0  0  0  0
  2  1  2  0
  4  3  1  0
  5  1  1  0
  6  2  1  0
  7  3  2  0
  8  4  2  0
  9  5  2  0
  9  7  1  0
 10  6  2  0
 10  8  1  0
 10  9  1  0
M  END
>  <NAME>  (5074) 
NAPHTHALENE

>  <SYNONYMS>  (5074) 


>  <SPECTRUM TYPE>  (5074) 
MS1

>  <INSTRUMENT TYPE>  (5074) 
EI-B

>  <INSTRUMENT>  (5074) 
HITACHI RMU-7M

>  <ION MODE>  (5074) 
P

>  <INCHIKEY>  (5074) 
UFWIBTONFRDIAS-UHFFFAOYSA-N

>  <FORMULA>  (5074) 
C10H8

>  <EXACT MASS>  (5074) 
128.062600256

>  <MW>  (5074) 
128

>  <ID>  (5074) 
JP004284

>  <CONTRIBUTOR>  (5074) 
University of Tokyo Team, {Faculty of Engineering, University of Tokyo

>  <COMMENT>  (5074) 
SMILES=c(c2)cc(c1)c(c2)ccc1
cas=91-20-3
InChI=InChI=1S/C10H8/c1-2-6-10-8-4-3-7-9(10)5-1/h1-8H
computed SMILES=C=1C=CC=2C=CC=CC2C1
accession=JP004284
date=2016.01.19 (Created 2008.10.21, modified 2011.05.06)
author=TAJIMA S, GUNMA COLLEGE OF TECHNOLOGY
license=CC BY-NC-SA
exact mass=128.0626
ionization energy=70 eV
ion type=[M]+*
computed spectral entropy=2.497435833231987
computed normalized entropy=0.7342813582937363
SPLASH=splash10-004i-5900000000-262e4b8e72f3d3fa0593
submitter=submitter = University of Tokyo Team (Faculty of Engineering, University of Tokyo)
MoNA Rating=3.75

>  <NUM PEAKS>  (5074) 
30

>  <MASS SPECTRAL PEAKS>  (5074) 
27 1
37 1.19
38 1.66
39 4.12
50 8.32
51 10.3
52 2.22
61 1.98
62 4.12
63 7.84
64 3.17
73 1.27
74 8.56
75 8.48
76 6.26
77 5.39
78 4.36
86 1.66
87 2.77
89 1.58
98 2.77
99 1.58
100 1.58
101 3.41
102 16.56
103 1.51
126 7.37
127 12.68
128 99.99
129 11.09

$$$$

     RDKit          2D

  6  5  0  0  0  0  0  0  0  0999 V2000
    1.2990    2.2500    0.0000 C   0  0  0  0  0  0  0  0  0  0  0  0
   -3.8971    2.2500    0.0000 C   0  0  0  0  0  0  0  0  0  0  0  0
    0.0000    3.0000    0.0000 C   0  0  0  0  0  0  0  0  0  0  0  0
   -2.5981    3.0000    0.0000 C   0  0  0  0  0  0  0  0  0  0  0  0
   -1.2990    2.2500    0.0000 C   0  0  0  0  0  0  0  0  0  0  0  0
   -1.2990    0.7500    0.0000 O   0  0  0  0  0  0  0  0  0  0  0  0
  3  1  1  0
  4  2  1  0
  5  3  1  0
  5  4  1  0
  6  5  1  0
M  END
>  <NAME>  (5075) 
3-PENTANOL

>  <SYNONYMS>  (5075) 


>  <SPECTRUM TYPE>  (5075) 
MS1

>  <INSTRUMENT TYPE>  (5075) 
EI-B

>  <INSTRUMENT>  (5075) 
HITACHI RMU-7M

>  <ION MODE>  (5075) 
P

>  <INCHIKEY>  (5075) 
AQIXEPGDORPWBJ-UHFFFAOYSA-N

>  <FORMULA>  (5075) 
C5H12O

>  <EXACT MASS>  (5075) 
88.088815004

>  <MW>  (5075) 
88

>  <ID>  (5075) 
JP004283

>  <CONTRIBUTOR>  (5075) 
University of Tokyo Team, {Faculty of Engineering, University of Tokyo

>  <COMMENT>  (5075) 
SMILES=CCC(O)CC
cas=584-02-1
InChI=InChI=1S/C5H12O/c1-3-5(6)4-2/h5-6H,3-4H2,1-2H3
computed SMILES=OC(CC)CC
accession=JP004283
date=2016.01.19 (Created 2008.10.21, modified 2011.05.06)
author=TAJIMA S, GUNMA COLLEGE OF TECHNOLOGY
license=CC BY-NC-SA
exact mass=88.08882
ionization energy=70 eV
ion type=[M]+*
computed spectral entropy=1.9522654400704635
computed normalized entropy=0.7041309172221419
SPLASH=splash10-0a4i-9000000000-4fe4550a20db23d97781
submitter=submitter = University of Tokyo Team (Faculty of Engineering, University of Tokyo)
MoNA Rating=3.75

>  <NUM PEAKS>  (5075) 
16

>  <MASS SPECTRAL PEAKS>  (5075) 
26 1.21
27 9.24
28 2.87
29 12.1
31 45.86
39 5.03
41 35.16
42 3.63
43 6.69
45 2.93
55 3.18
57 7.71
58 6.43
59 99.99
60 4.46
71 1.27

$$$$

     RDKit          2D

  5  4  0  0  0  0  0  0  0  0999 V2000
   -3.8971    2.2500    0.0000 C   0  0  0  0  0  0  0  0  0  0  0  0
    0.0000    1.5000    0.0000 C   0  0  0  0  0  0  0  0  0  0  0  0
   -1.2990    2.2500    0.0000 C   0  0  0  0  0  0  0  0  0  0  0  0
    1.2990    2.2500    0.0000 N   0  0  0  0  0  0  0  0  0  0  0  0
   -2.5981    1.5000    0.0000 O   0  0  0  0  0  0  0  0  0  0  0  0
  3  2  1  0
  4  2  1  0
  5  1  1  0
  5  3  1  0
M  END
>  <NAME>  (5076) 
2-METHOXYETHYLAMINE

>  <SYNONYMS>  (5076) 


>  <SPECTRUM TYPE>  (5076) 
MS1

>  <INSTRUMENT TYPE>  (5076) 
EI-B

>  <INSTRUMENT>  (5076) 
HITACHI RMU-7M

>  <ION MODE>  (5076) 
P

>  <INCHIKEY>  (5076) 
ASUDFOJKTJLAIK-UHFFFAOYSA-N

>  <FORMULA>  (5076) 
C3H9NO

>  <EXACT MASS>  (5076) 
75.068413908

>  <MW>  (5076) 
75

>  <ID>  (5076) 
JP004282

>  <CONTRIBUTOR>  (5076) 
University of Tokyo Team, {Faculty of Engineering, University of Tokyo

>  <COMMENT>  (5076) 
SMILES=NCCOC
cas=109-85-3
InChI=InChI=1S/C3H9NO/c1-5-3-2-4/h2-4H2,1H3
computed SMILES=O(C)CCN
accession=JP004282
date=2016.01.19 (Created 2008.10.21, modified 2011.05.06)
author=TAJIMA S, GUNMA COLLEGE OF TECHNOLOGY
license=CC BY-NC-SA
exact mass=75.06841
ionization energy=70 eV
ion type=[M]+*
computed spectral entropy=1.2472274377545538
computed normalized entropy=0.5201342410167169
SPLASH=splash10-001i-9000000000-3c6505f01c6f9b3622dd
submitter=submitter = University of Tokyo Team (Faculty of Engineering, University of Tokyo)
MoNA Rating=3.75

>  <NUM PEAKS>  (5076) 
11

>  <MASS SPECTRAL PEAKS>  (5076) 
15 2.94
27 1.47
28 7.35
29 4.78
30 99.99
31 5.15
41 1.1
42 5.15
43 1.47
44 3.31
45 10.66

$$$$

     RDKit          2D

  5  4  0  0  0  0  0  0  0  0999 V2000
   -3.8971    2.2500    0.0000 C   0  0  0  0  0  0  0  0  0  0  0  0
    0.0000    1.5000    0.0000 C   0  0  0  0  0  0  0  0  0  0  0  0
   -1.2990    2.2500    0.0000 C   0  0  0  0  0  0  0  0  0  0  0  0
    1.2990    2.2500    0.0000 O   0  0  0  0  0  0  0  0  0  0  0  0
   -2.5981    1.5000    0.0000 O   0  0  0  0  0  0  0  0  0  0  0  0
  3  2  1  0
  4  2  1  0
  5  1  1  0
  5  3  1  0
M  END
>  <NAME>  (5077) 
2-METHOXYETHANOL

>  <SYNONYMS>  (5077) 


>  <SPECTRUM TYPE>  (5077) 
MS1

>  <INSTRUMENT TYPE>  (5077) 
EI-B

>  <INSTRUMENT>  (5077) 
HITACHI RMU-7M

>  <ION MODE>  (5077) 
P

>  <INCHIKEY>  (5077) 
XNWFRZJHXBZDAG-UHFFFAOYSA-N

>  <FORMULA>  (5077) 
C3H8O2

>  <EXACT MASS>  (5077) 
76.052429496

>  <MW>  (5077) 
76

>  <ID>  (5077) 
JP004281

>  <CONTRIBUTOR>  (5077) 
University of Tokyo Team, {Faculty of Engineering, University of Tokyo

>  <COMMENT>  (5077) 
SMILES=COCCO
cas=109-86-4
InChI=InChI=1S/C3H8O2/c1-5-3-2-4/h4H,2-3H2,1H3
computed SMILES=OCCOC
accession=JP004281
date=2016.01.19 (Created 2008.10.21, modified 2011.05.06)
author=TAJIMA S, GUNMA COLLEGE OF TECHNOLOGY
license=CC BY-NC-SA
exact mass=76.05243
ionization energy=70 eV
ion type=[M]+*
computed spectral entropy=1.4192968948963
computed normalized entropy=0.6163928096358826
SPLASH=splash10-0002-9000000000-495c5616b4ef88db7696
submitter=submitter = University of Tokyo Team (Faculty of Engineering, University of Tokyo)
MoNA Rating=3.75

>  <NUM PEAKS>  (5077) 
10

>  <MASS SPECTRAL PEAKS>  (5077) 
15 8.94
27 3.04
29 19.39
31 16.06
43 6.56
45 99.99
46 2.85
47 7.13
58 1.24
76 1.33

$$$$

     RDKit          2D

  6  5  0  0  0  0  0  0  0  0999 V2000
   -0.0000   -0.0000    0.0000 C   0  0  0  0  0  0  0  0  0  0  0  0
    1.2990    2.2500    0.0000 C   0  0  0  0  0  0  0  0  0  0  0  0
   -0.0000    1.5000    0.0000 C   0  0  0  0  0  0  0  0  0  0  0  0
   -1.2990    2.2500    0.0000 C   0  0  0  0  0  0  0  0  0  0  0  0
   -2.5981    1.5000    0.0000 O   0  0  0  0  0  0  0  0  0  0  0  0
   -1.2990    3.7500    0.0000 O   0  0  0  0  0  0  0  0  0  0  0  0
  3  1  1  0
  3  2  1  0
  4  3  1  0
  5  4  2  0
  6  4  1  0
M  END
>  <NAME>  (5078) 
ISOBUTYRIC ACID

>  <SYNONYMS>  (5078) 


>  <SPECTRUM TYPE>  (5078) 
MS1

>  <INSTRUMENT TYPE>  (5078) 
EI-B

>  <INSTRUMENT>  (5078) 
HITACHI RMU-7M

>  <ION MODE>  (5078) 
P

>  <INCHIKEY>  (5078) 
KQNPFQTWMSNSAP-UHFFFAOYSA-N

>  <FORMULA>  (5078) 
C4H8O2

>  <EXACT MASS>  (5078) 
88.052429496

>  <MW>  (5078) 
88

>  <ID>  (5078) 
JP004280

>  <CONTRIBUTOR>  (5078) 
University of Tokyo Team, {Faculty of Engineering, University of Tokyo

>  <COMMENT>  (5078) 
SMILES=CC(C)C(O)=O
InChI=InChI=1S/C4H8O2/c1-3(2)4(5)6/h3H,1-2H3,(H,5,6)
computed SMILES=O=C(O)C(C)C
accession=JP004280
date=2016.01.19 (Created 2008.10.21, modified 2011.05.06)
author=TAJIMA S, GUNMA COLLEGE OF TECHNOLOGY
license=CC BY-NC-SA
exact mass=88.05243
ionization energy=70 eV
ion type=[M]+*
computed spectral entropy=2.03160621350593
computed normalized entropy=0.7698226903627412
SPLASH=splash10-0006-9000000000-4c977a2f823cde05363a
submitter=submitter = University of Tokyo Team (Faculty of Engineering, University of Tokyo)
MoNA Rating=3.75

>  <NUM PEAKS>  (5078) 
14

>  <MASS SPECTRAL PEAKS>  (5078) 
18 5.14
27 20.58
28 26.19
29 3.65
39 14.97
41 55.19
42 10.48
43 99.99
44 9.44
45 9.54
55 4.21
71 1
73 18.05
88 1.78

$$$$

     RDKit          2D

  6  5  0  0  0  0  0  0  0  0999 V2000
    0.3248    2.8125    0.0000 C   0  0  0  0  0  0  0  0  0  0  0  0
   -0.9743    2.0625    0.0000 C   0  0  0  0  0  0  0  0  0  0  0  0
    0.3248    4.3125    0.0000 C   0  0  0  0  0  0  0  0  0  0  0  0
   -2.2733    2.8125    0.0000 C   0  0  0  0  0  0  0  0  0  0  0  0
    1.6238    5.0625    0.0000 O   0  0  0  0  0  0  0  0  0  0  0  0
   -3.5724    2.0625    0.0000 O   0  0  0  0  0  0  0  0  0  0  0  0
  1  2  2  0
  3  1  1  0
  4  2  1  0
  5  3  1  0
  6  4  1  0
M  END
>  <NAME>  (5079) 
(Z)-2-BUTEN-1,4-DIOL

>  <SYNONYMS>  (5079) 


>  <SPECTRUM TYPE>  (5079) 
MS1

>  <INSTRUMENT TYPE>  (5079) 
EI-B

>  <INSTRUMENT>  (5079) 
HITACHI RMU-7M

>  <ION MODE>  (5079) 
P

>  <INCHIKEY>  (5079) 
ORTVZLZNOYNASJ-UPHRSURJSA-N

>  <FORMULA>  (5079) 
C4H8O2

>  <EXACT MASS>  (5079) 
88.052429496

>  <MW>  (5079) 
88

>  <ID>  (5079) 
JP004279

>  <CONTRIBUTOR>  (5079) 
University of Tokyo Team, {Faculty of Engineering, University of Tokyo

>  <COMMENT>  (5079) 
SMILES=OCC([H])=C([H])CO
cas=6117-80-2
InChI=InChI=1S/C4H8O2/c5-3-1-2-4-6/h1-2,5-6H,3-4H2/b2-1-
computed SMILES=OCC=CCO
accession=JP004279
date=2016.01.19 (Created 2008.10.21, modified 2011.05.06)
author=TAJIMA S, GUNMA COLLEGE OF TECHNOLOGY
license=CC BY-NC-SA
exact mass=88.05243
ionization energy=70 eV
ion type=[M]+*
computed spectral entropy=2.9812125361992576
computed normalized entropy=0.8601961083621357
SPLASH=splash10-0006-9000000000-2fe127f45bcb84fc131a
submitter=submitter = University of Tokyo Team (Faculty of Engineering, University of Tokyo)
MoNA Rating=3.75

>  <NUM PEAKS>  (5079) 
32

>  <MASS SPECTRAL PEAKS>  (5079) 
15 3.01
19 2.33
26 9.02
27 35.34
28 15.04
29 46.62
30 4.14
31 28.5
37 7.89
38 12.56
39 99.99
40 20.3
41 72.33
42 81.8
43 29.32
44 18.2
45 8.2
47 7.14
49 2.1
50 7.89
51 7.52
52 3.46
53 14.66
54 19.55
55 10.9
56 3.61
57 34.74
58 9.4
68 5.26
69 13.68
70 18.65
71 6.77

$$$$

     RDKit          2D

 10 10  0  0  0  0  0  0  0  0999 V2000
   -2.8383    0.9819    0.0000 C   0  0  0  0  0  0  0  0  0  0  0  0
   -0.2724    3.9719    0.0000 C   0  0  0  0  0  0  0  0  0  0  0  0
    1.0105    3.2442    0.0000 C   0  0  0  0  0  0  0  0  0  0  0  0
   -1.5495    3.2195    0.0000 C   0  0  0  0  0  0  0  0  0  0  0  0
    1.0467    1.7446    0.0000 C   0  0  0  0  0  0  0  0  0  0  0  0
    1.0326   -1.2416    0.0000 C   0  0  0  0  0  0  0  0  0  0  0  0
   -1.5436    1.7394    0.0000 C   0  0  0  0  0  0  0  0  0  0  0  0
   -0.2607    1.0116    0.0000 C   0  0  0  0  0  0  0  0  0  0  0  0
   -0.2645   -0.4884    0.0000 N   0  0  0  0  0  0  0  0  0  0  0  0
    2.3298   -1.9949    0.0000 O   0  0  0  0  0  0  0  0  0  0  0  0
  3  2  2  0
  4  2  1  0
  5  3  1  0
  7  1  1  0
  7  4  2  0
  8  5  2  0
  8  7  1  0
  9  6  2  0
  9  8  1  0
 10  6  2  0
M  END
>  <NAME>  (5080) 
2-TOLYL ISOCYANATE

>  <SYNONYMS>  (5080) 


>  <SPECTRUM TYPE>  (5080) 
MS1

>  <INSTRUMENT TYPE>  (5080) 
EI-B

>  <INSTRUMENT>  (5080) 
HITACHI RMU-7M

>  <ION MODE>  (5080) 
P

>  <INCHIKEY>  (5080) 
VAYMIYBJLRRIFR-UHFFFAOYSA-N

>  <FORMULA>  (5080) 
C8H7NO

>  <EXACT MASS>  (5080) 
133.052763844

>  <MW>  (5080) 
133

>  <ID>  (5080) 
JP004278

>  <CONTRIBUTOR>  (5080) 
University of Tokyo Team, {Faculty of Engineering, University of Tokyo

>  <COMMENT>  (5080) 
SMILES=O=C=Nc(c1)c(C)ccc1
cas=614-68-6
InChI=InChI=1S/C8H7NO/c1-7-4-2-3-5-8(7)9-6-10/h2-5H,1H3
computed SMILES=O=C=NC=1C=CC=CC1C
accession=JP004278
date=2016.01.19 (Created 2008.10.21, modified 2011.05.06)
author=TAJIMA S, GUNMA COLLEGE OF TECHNOLOGY
license=CC BY-NC-SA
exact mass=133.05276
ionization energy=70 eV
ion type=[M]+*
computed spectral entropy=2.6359764426622516
computed normalized entropy=0.7538883861462863
SPLASH=splash10-0f89-5900000000-7540a1793a8dfee0a7da
submitter=submitter = University of Tokyo Team (Faculty of Engineering, University of Tokyo)
MoNA Rating=3.75

>  <NUM PEAKS>  (5080) 
33

>  <MASS SPECTRAL PEAKS>  (5080) 
27 1.56
28 3.75
29 1.46
37 2.03
38 3.65
39 8.96
50 8.33
51 13.54
52 9.11
53 1.56
61 1.3
62 2.6
63 6.78
64 3.65
65 4.64
74 1.98
75 3.13
76 5.31
77 18.54
78 36.88
79 7.24
89 6.82
90 4.11
91 14.79
102 1.56
103 2.66
104 99.99
105 58.96
106 6.15
107 1.46
132 27.19
133 98.33
134 8.59

$$$$

     RDKit          2D

 16 15  0  0  0  0  0  0  0  0999 V2000
    1.5269   -0.3014    0.0000 C   0  0  0  0  0  0  0  0  0  0  0  0
    2.2769   -1.6005    0.0000 H   0  0  0  0  0  0  0  0  0  0  0  0
    0.7769    0.9976    0.0000 H   0  0  0  0  0  0  0  0  0  0  0  0
    0.2279   -1.0514    0.0000 H   0  0  0  0  0  0  0  0  0  0  0  0
    6.7231    7.1986    0.0000 C   0  0  0  0  0  0  0  0  0  0  0  0
    7.4731    5.8995    0.0000 H   0  0  0  0  0  0  0  0  0  0  0  0
    8.0221    7.9486    0.0000 H   0  0  0  0  0  0  0  0  0  0  0  0
    5.9731    8.4976    0.0000 H   0  0  0  0  0  0  0  0  0  0  0  0
    4.1250    2.6986    0.0000 C   0  0  0  0  0  0  0  0  0  0  0  0
    4.1250    4.1986    0.0000 C   0  0  0  0  0  0  0  0  0  0  0  0
    2.8260    1.9486    0.0000 C   0  0  0  0  0  0  0  0  0  0  0  0
    5.4240    4.9486    0.0000 C   0  0  0  0  0  0  0  0  0  0  0  0
    1.5269    2.6986    0.0000 O   0  0  0  0  0  0  0  0  0  0  0  0
    6.7231    4.1986    0.0000 O   0  0  0  0  0  0  0  0  0  0  0  0
    2.8260    0.4486    0.0000 O   0  0  0  0  0  0  0  0  0  0  0  0
    5.4240    6.4486    0.0000 O   0  0  0  0  0  0  0  0  0  0  0  0
  1  2  1  0
  1  3  1  0
  1  4  1  0
  5  6  1  0
  5  7  1  0
  5  8  1  0
  9 10  2  0
 11  9  1  0
 12 10  1  0
 13 11  2  0
 14 12  2  0
 15  1  1  0
 15 11  1  0
 16  5  1  0
 16 12  1  0
M  ISO  6   2   2   3   2   4   2   6   2   7   2   8   2
M  END
>  <NAME>  (5081) 
FUMARIC ACID DIMETHYL ESTER (1,1,1,8,8,8-D6)

>  <SYNONYMS>  (5081) 


>  <SPECTRUM TYPE>  (5081) 
MS1

>  <INSTRUMENT TYPE>  (5081) 
EI-B

>  <INSTRUMENT>  (5081) 
HITACHI RMU-7M

>  <ION MODE>  (5081) 
P

>  <INCHIKEY>  (5081) 
LDCRTTXIJACKKU-XDMLVRQJSA-N

>  <FORMULA>  (5081) 
C6H8O4

>  <EXACT MASS>  (5081) 
150.079919212

>  <MW>  (5081) 
150

>  <ID>  (5081) 
JP004277

>  <CONTRIBUTOR>  (5081) 
University of Tokyo Team, {Faculty of Engineering, University of Tokyo

>  <COMMENT>  (5081) 
SMILES=[2H]C([2H])([2H])OC(=O)C=CC(=O)OC([2H])([2H])[2H]
InChI=InChI=1S/C6H8O4/c1-9-5(7)3-4-6(8)10-2/h3-4H,1-2H3/b4-3+/i1D3,2D3
computed SMILES=[H]C([H])([H])OC(=O)C=CC(=O)OC([H])([H])[H]
accession=JP004277
date=2016.01.19 (Created 2008.10.21, modified 2011.05.06)
author=TAJIMA S, GUNMA COLLEGE OF TECHNOLOGY
license=CC BY-NC-SA
exact mass=144.04226
ionization energy=70 eV
ion type=[M]+*
computed spectral entropy=2.0746509970894835
computed normalized entropy=0.6925355164092213
SPLASH=splash10-014i-6900000000-b4104322040a20afbf87
submitter=submitter = University of Tokyo Team (Faculty of Engineering, University of Tokyo)
MoNA Rating=3.75

>  <NUM PEAKS>  (5081) 
20

>  <MASS SPECTRAL PEAKS>  (5081) 
26 8.38
30 3.84
41 2.79
42 1.61
44 3.49
53 13.97
54 7.33
62 25.14
81 2.93
82 3
88 32.47
89 1.96
104 1
106 1
115 2.09
116 99.99
117 7.89
118 24.65
119 1.4
150 0.56

$$$$

     RDKit          2D

 10 10  0  0  0  0  0  0  0  0999 V2000
    3.9006   -2.2462    0.0000 C   0  0  0  0  0  0  0  0  0  0  0  0
    1.2968    0.7438    0.0000 C   0  0  0  0  0  0  0  0  0  0  0  0
    2.5958   -0.0062    0.0000 C   0  0  0  0  0  0  0  0  0  0  0  0
    0.0023    0.0016    0.0000 C   0  0  0  0  0  0  0  0  0  0  0  0
    1.3008   -2.2492    0.0000 C   0  0  0  0  0  0  0  0  0  0  0  0
   -2.5963   -1.4988    0.0000 C   0  0  0  0  0  0  0  0  0  0  0  0
    2.6003   -1.4984    0.0000 C   0  0  0  0  0  0  0  0  0  0  0  0
    0.0018   -1.4992    0.0000 C   0  0  0  0  0  0  0  0  0  0  0  0
   -1.2974   -2.2490    0.0000 N   0  0  0  0  0  0  0  0  0  0  0  0
   -3.8952   -0.7486    0.0000 O   0  0  0  0  0  0  0  0  0  0  0  0
  3  2  2  0
  4  2  1  0
  7  1  1  0
  7  3  1  0
  7  5  2  0
  8  4  2  0
  8  5  1  0
  9  6  2  0
  9  8  1  0
 10  6  2  0
M  END
>  <NAME>  (5082) 
3-TOLYL ISOCYANATE

>  <SYNONYMS>  (5082) 


>  <SPECTRUM TYPE>  (5082) 
MS1

>  <INSTRUMENT TYPE>  (5082) 
EI-B

>  <INSTRUMENT>  (5082) 
HITACHI RMU-7M

>  <ION MODE>  (5082) 
P

>  <INCHIKEY>  (5082) 
CPPGZWWUPFWALU-UHFFFAOYSA-N

>  <FORMULA>  (5082) 
C8H7NO

>  <EXACT MASS>  (5082) 
133.052763844

>  <MW>  (5082) 
133

>  <ID>  (5082) 
JP004276

>  <CONTRIBUTOR>  (5082) 
University of Tokyo Team, {Faculty of Engineering, University of Tokyo

>  <COMMENT>  (5082) 
SMILES=O=C=Nc(c1)cc(C)cc1
cas=621-29-4
InChI=InChI=1S/C8H7NO/c1-7-3-2-4-8(5-7)9-6-10/h2-5H,1H3
computed SMILES=O=C=NC1=CC=CC(=C1)C
accession=JP004276
date=2016.01.19 (Created 2008.10.21, modified 2011.05.06)
author=TAJIMA S, GUNMA COLLEGE OF TECHNOLOGY
license=CC BY-NC-SA
exact mass=133.05276
ionization energy=70 eV
ion type=[M]+*
computed spectral entropy=2.9115229987185542
computed normalized entropy=0.8256453015493839
SPLASH=splash10-001i-6900000000-0f4e6950922482613cd9
submitter=submitter = University of Tokyo Team (Faculty of Engineering, University of Tokyo)
MoNA Rating=3.75

>  <NUM PEAKS>  (5082) 
34

>  <MASS SPECTRAL PEAKS>  (5082) 
26 1.73
27 5.67
28 4.33
37 3.15
38 5.67
39 14.72
41 3.15
44 10
50 7.64
51 11.97
52 9.06
53 2.99
62 3.23
63 7.72
64 4.33
65 6.93
75 3.07
76 5.12
77 17.87
78 24.88
79 7.72
80 1.65
89 3.54
90 3.39
91 19.53
92 1.5
103 3.07
104 60.55
105 22.6
106 15.51
107 13.39
132 36.69
133 99.99
134 8.19

$$$$

     RDKit          2D

 10  9  0  0  0  0  0  0  0  0999 V2000
   -6.3212    3.8505    0.0000 C   0  0  0  0  0  0  0  0  0  0  0  0
    0.1740    3.1005    0.0000 C   0  0  0  0  0  0  0  0  0  0  0  0
   -0.5760    1.8014    0.0000 H   0  0  0  0  0  0  0  0  0  0  0  0
    1.4731    2.3505    0.0000 H   0  0  0  0  0  0  0  0  0  0  0  0
    0.9240    4.3995    0.0000 H   0  0  0  0  0  0  0  0  0  0  0  0
   -3.7231    3.8505    0.0000 C   0  0  0  0  0  0  0  0  0  0  0  0
   -2.4240    3.1005    0.0000 C   0  0  0  0  0  0  0  0  0  0  0  0
   -2.4240    1.6005    0.0000 O   0  0  0  0  0  0  0  0  0  0  0  0
   -5.0221    3.1005    0.0000 O   0  0  0  0  0  0  0  0  0  0  0  0
   -1.1250    3.8505    0.0000 O   0  0  0  0  0  0  0  0  0  0  0  0
  2  3  1  0
  2  4  1  0
  2  5  1  0
  7  6  1  0
  8  7  2  0
  9  1  1  0
  9  6  1  0
 10  2  1  0
 10  7  1  0
M  ISO  3   3   2   4   2   5   2
M  END
>  <NAME>  (5083) 
METHYL METHOXYACETATE (1,1,1-D3)

>  <SYNONYMS>  (5083) 
METHOXYACETIC ACID METHYL ESTER (1,1,1-D3)

>  <SPECTRUM TYPE>  (5083) 
MS1

>  <INSTRUMENT TYPE>  (5083) 
EI-B

>  <INSTRUMENT>  (5083) 
HITACHI RMU-7M

>  <ION MODE>  (5083) 
P

>  <INCHIKEY>  (5083) 
QRMHDGWGLNLHMN-BMSJAHLVSA-N

>  <FORMULA>  (5083) 
C4H8O3

>  <EXACT MASS>  (5083) 
107.066174354

>  <MW>  (5083) 
107

>  <ID>  (5083) 
JP004275

>  <CONTRIBUTOR>  (5083) 
University of Tokyo Team, {Faculty of Engineering, University of Tokyo

>  <COMMENT>  (5083) 
SMILES=[2H]C([2H])([2H])OC(=O)COC
InChI=InChI=1S/C4H8O3/c1-6-3-4(5)7-2/h3H2,1-2H3/i2D3
computed SMILES=[H]C([H])([H])OC(=O)COC
accession=JP004275
date=2016.01.19 (Created 2008.10.21, modified 2011.05.06)
author=TAJIMA S, GUNMA COLLEGE OF TECHNOLOGY
license=CC BY-NC-SA
exact mass=104.04734
ionization energy=70 eV
ion type=[M]+*
computed spectral entropy=2.2145719304967377
computed normalized entropy=0.7521201648823691
SPLASH=splash10-002b-9000000000-330a755969c71416939a
submitter=submitter = University of Tokyo Team (Faculty of Engineering, University of Tokyo)
MoNA Rating=3.75

>  <NUM PEAKS>  (5083) 
19

>  <MASS SPECTRAL PEAKS>  (5083) 
14 2.87
15 17.2
16 1.79
18 15.27
28 4.01
29 28.67
30 6.31
31 2.87
32 2.15
33 4.3
42 8.6
43 4.09
44 13.62
45 99.99
46 2.22
48 8.32
62 2.87
77 25.52
78 5.73

$$$$

     RDKit          2D

 10 10  0  0  0  0  0  0  0  0999 V2000
   -2.5989    1.5002    0.0000 C   0  0  0  0  0  0  0  0  0  0  0  0
   -1.3000   -0.7500    0.0000 C   0  0  0  0  0  0  0  0  0  0  0  0
    0.0000    1.5000    0.0000 C   0  0  0  0  0  0  0  0  0  0  0  0
    0.0000   -1.5000    0.0000 C   0  0  0  0  0  0  0  0  0  0  0  0
    1.3000    0.7500    0.0000 C   0  0  0  0  0  0  0  0  0  0  0  0
    3.8981   -0.7504    0.0000 C   0  0  0  0  0  0  0  0  0  0  0  0
   -1.3000    0.7500    0.0000 C   0  0  0  0  0  0  0  0  0  0  0  0
    1.3000   -0.7500    0.0000 C   0  0  0  0  0  0  0  0  0  0  0  0
    2.5989   -1.5002    0.0000 N   0  0  0  0  0  0  0  0  0  0  0  0
    5.1972   -0.0006    0.0000 O   0  0  0  0  0  0  0  0  0  0  0  0
  4  2  2  0
  5  3  1  0
  7  1  1  0
  7  2  1  0
  7  3  2  0
  8  4  1  0
  8  5  2  0
  9  6  2  0
  9  8  1  0
 10  6  2  0
M  END
>  <NAME>  (5084) 
4-TOLYL ISOCYANATE

>  <SYNONYMS>  (5084) 


>  <SPECTRUM TYPE>  (5084) 
MS1

>  <INSTRUMENT TYPE>  (5084) 
EI-B

>  <INSTRUMENT>  (5084) 
HITACHI RMU-7M

>  <ION MODE>  (5084) 
P

>  <INCHIKEY>  (5084) 
MGYGFNQQGAQEON-UHFFFAOYSA-N

>  <FORMULA>  (5084) 
C8H7NO

>  <EXACT MASS>  (5084) 
133.052763844

>  <MW>  (5084) 
133

>  <ID>  (5084) 
JP004274

>  <CONTRIBUTOR>  (5084) 
University of Tokyo Team, {Faculty of Engineering, University of Tokyo

>  <COMMENT>  (5084) 
SMILES=O=C=Nc(c1)ccc(C)c1
cas=622-58-2
InChI=InChI=1S/C8H7NO/c1-7-2-4-8(5-3-7)9-6-10/h2-5H,1H3
computed SMILES=O=C=NC1=CC=C(C=C1)C
accession=JP004274
date=2016.01.19 (Created 2008.10.21, modified 2011.05.06)
author=TAJIMA S, GUNMA COLLEGE OF TECHNOLOGY
license=CC BY-NC-SA
exact mass=133.05276
ionization energy=70 eV
ion type=[M]+*
computed spectral entropy=2.291057440262982
computed normalized entropy=0.7117570123590559
SPLASH=splash10-001i-2900000000-98e5c80214e341bee61e
submitter=submitter = University of Tokyo Team (Faculty of Engineering, University of Tokyo)
MoNA Rating=3.75

>  <NUM PEAKS>  (5084) 
25

>  <MASS SPECTRAL PEAKS>  (5084) 
26 1.25
27 2.08
38 1.66
39 4.3
50 4.3
51 6.51
52 4.78
62 1.39
63 3.53
64 1.73
65 2.77
75 1.73
76 2.77
77 9.7
78 11.92
79 2.08
90 1.39
91 10.46
103 1.87
104 38.46
105 20.65
106 2.01
132 51.77
133 99.99
134 9.01

$$$$

     RDKit          2D

  5  4  0  0  0  0  0  0  0  0999 V2000
    0.0000    0.0000    0.0000 C   0  0  0  0  0  0  0  0  0  0  0  0
   -1.2990    3.7500    0.0000 C   0  0  0  0  0  0  0  0  0  0  0  0
    0.0000    1.5000    0.0000 C   0  0  0  0  0  0  0  0  0  0  0  0
    1.2990    2.2500    0.0000 O   0  0  0  0  0  0  0  0  0  0  0  0
   -1.2990    2.2500    0.0000 O   0  0  0  0  0  0  0  0  0  0  0  0
  3  1  1  0
  4  3  2  0
  5  2  1  0
  5  3  1  0
M  END
>  <NAME>  (5085) 
ACETIC ACID METHYL ESTER

>  <SYNONYMS>  (5085) 
METHYL ACETATE

>  <SPECTRUM TYPE>  (5085) 
MS1

>  <INSTRUMENT TYPE>  (5085) 
EI-B

>  <INSTRUMENT>  (5085) 
HITACHI RMU-7M

>  <ION MODE>  (5085) 
P

>  <INCHIKEY>  (5085) 
KXKVLQRXCPHEJC-UHFFFAOYSA-N

>  <FORMULA>  (5085) 
C3H6O2

>  <EXACT MASS>  (5085) 
74.036779432

>  <MW>  (5085) 
74

>  <ID>  (5085) 
JP004273

>  <CONTRIBUTOR>  (5085) 
University of Tokyo Team, {Faculty of Engineering, University of Tokyo

>  <COMMENT>  (5085) 
SMILES=COC(C)=O
cas=79-20-9
InChI=InChI=1S/C3H6O2/c1-3(4)5-2/h1-2H3
computed SMILES=O=C(OC)C
accession=JP004273
date=2016.01.19 (Created 2008.10.21, modified 2011.05.06)
author=TAJIMA S, GUNMA COLLEGE OF TECHNOLOGY
license=CC BY-NC-SA
exact mass=74.03678
ionization energy=70 eV
ion type=[M]+*
computed spectral entropy=1.7318698105209986
computed normalized entropy=0.6246399967759884
SPLASH=splash10-0006-9000000000-5159f548daf4863c7b5f
submitter=submitter = University of Tokyo Team (Faculty of Engineering, University of Tokyo)
MoNA Rating=3.75

>  <NUM PEAKS>  (5085) 
16

>  <MASS SPECTRAL PEAKS>  (5085) 
13 1.42
14 5.6
15 31.42
28 1.7
29 8.87
30 1.35
31 5.11
32 2.06
41 1.28
42 9.93
43 99.99
44 2.84
45 1.35
59 5.67
74 12.48
75 1

$$$$

     RDKit          2D

  9  8  0  0  0  0  0  0  0  0999 V2000
    2.5981    4.5000    0.0000 C   0  0  0  0  0  0  0  0  0  0  0  0
   -2.5981    4.5000    0.0000 C   0  0  0  0  0  0  0  0  0  0  0  0
   -1.2990    3.7500    0.0000 C   0  0  0  0  0  0  0  0  0  0  0  0
   -2.5981    6.0000    0.0000 C   0  0  0  0  0  0  0  0  0  0  0  0
    0.0000    4.5000    0.0000 C   0  0  0  0  0  0  0  0  0  0  0  0
   -1.2990    6.7500    0.0000 O   0  0  0  0  0  0  0  0  0  0  0  0
   -3.8971    6.7500    0.0000 O   0  0  0  0  0  0  0  0  0  0  0  0
    0.0000    6.0000    0.0000 O   0  0  0  0  0  0  0  0  0  0  0  0
    1.2990    3.7500    0.0000 O   0  0  0  0  0  0  0  0  0  0  0  0
  2  3  2  0
  4  2  1  0
  5  3  1  0
  6  4  2  0
  7  4  1  0
  8  5  2  0
  9  1  1  0
  9  5  1  0
M  END
>  <NAME>  (5086) 
MALEIC ACID MONOMETHYL ESTER

>  <SYNONYMS>  (5086) 
CIS-BUTENEDIOIC ACID MONOMETHYL ESTER

>  <SPECTRUM TYPE>  (5086) 
MS1

>  <INSTRUMENT TYPE>  (5086) 
EI-B

>  <INSTRUMENT>  (5086) 
HITACHI RMU-7M

>  <ION MODE>  (5086) 
P

>  <INCHIKEY>  (5086) 
NKHAVTQWNUWKEO-IHWYPQMZSA-N

>  <FORMULA>  (5086) 
C5H6O4

>  <EXACT MASS>  (5086) 
130.026608672

>  <MW>  (5086) 
130

>  <ID>  (5086) 
JP004272

>  <CONTRIBUTOR>  (5086) 
University of Tokyo Team, {Faculty of Engineering, University of Tokyo

>  <COMMENT>  (5086) 
SMILES=COC(=O)C=CC(O)=O
InChI=InChI=1S/C5H6O4/c1-9-5(8)3-2-4(6)7/h2-3H,1H3,(H,6,7)/b3-2-
computed SMILES=O=C(O)C=CC(=O)OC
accession=JP004272
date=2016.01.19 (Created 2008.10.21, modified 2011.05.06)
author=TAJIMA S, GUNMA COLLEGE OF TECHNOLOGY
license=CC BY-NC-SA
exact mass=130.02661
ionization energy=70 eV
ion type=[M]+*
computed spectral entropy=2.4987232485508706
computed normalized entropy=0.8207274867119455
SPLASH=splash10-0w4i-9200000000-7ecdda048539e621b07d
submitter=submitter = University of Tokyo Team (Faculty of Engineering, University of Tokyo)
MoNA Rating=3.75

>  <NUM PEAKS>  (5086) 
21

>  <MASS SPECTRAL PEAKS>  (5086) 
15 20.72
25 9.28
26 71.96
27 3.92
28 6.19
29 23.71
30 3.09
31 31.96
32 22.89
41 4.12
44 11.13
53 12.37
54 99.99
55 5.57
59 16.7
82 2.58
85 11.24
98 21.65
99 3.71
113 81.13
114 6.6

$$$$

     RDKit          2D

  4  3  0  0  0  0  0  0  0  0999 V2000
    1.2990    1.5000    0.0000 C   0  0  0  0  0  0  0  0  0  0  0  0
    0.0000    2.2500    0.0000 C   0  0  0  0  0  0  0  0  0  0  0  0
   -1.2990    3.0000    0.0000 C   0  0  0  0  0  0  0  0  0  0  0  0
   -2.5981    2.2500    0.0000 Br  0  0  0  0  0  0  0  0  0  0  0  0
  2  1  3  0
  3  2  1  0
  4  3  1  0
M  END
>  <NAME>  (5087) 
3-BROMO-1-PROPYNE

>  <SYNONYMS>  (5087) 
PROPARGYL BROMIDE

>  <SPECTRUM TYPE>  (5087) 
MS1

>  <INSTRUMENT TYPE>  (5087) 
EI-B

>  <INSTRUMENT>  (5087) 
HITACHI RMU-7M

>  <ION MODE>  (5087) 
P

>  <INCHIKEY>  (5087) 
YORCIIVHUBAYBQ-UHFFFAOYSA-N

>  <FORMULA>  (5087) 
C3H3Br

>  <EXACT MASS>  (5087) 
117.941812196

>  <MW>  (5087) 
118

>  <ID>  (5087) 
JP004271

>  <CONTRIBUTOR>  (5087) 
University of Tokyo Team, {Faculty of Engineering, University of Tokyo

>  <COMMENT>  (5087) 
SMILES=C#CCBr
cas=106-96-7
InChI=InChI=1S/C3H3Br/c1-2-3-4/h1H,3H2
computed SMILES=BrCC#C
accession=JP004271
date=2016.01.19 (Created 2008.10.21, modified 2011.05.06)
author=TAJIMA S, GUNMA COLLEGE OF TECHNOLOGY
license=CC BY-NC-SA
exact mass=117.94181
ionization energy=70 eV
ion type=[M]+*
computed spectral entropy=1.577019260840575
computed normalized entropy=0.6346392372426217
SPLASH=splash10-000i-9100000000-094d0df4a7528f166527
submitter=submitter = University of Tokyo Team (Faculty of Engineering, University of Tokyo)
MoNA Rating=3.75

>  <NUM PEAKS>  (5087) 
12

>  <MASS SPECTRAL PEAKS>  (5087) 
25 1.37
36 2.9
37 16.33
38 23.33
39 99.99
40 3.22
79 3.3
81 3.38
118 14.48
119 1.05
120 13.6
121 1

$$$$

     RDKit          2D

  4  3  0  0  0  0  0  0  0  0999 V2000
    1.2990    1.5000    0.0000 C   0  0  0  0  0  0  0  0  0  0  0  0
    0.0000    2.2500    0.0000 C   0  0  0  0  0  0  0  0  0  0  0  0
   -1.2990    3.0000    0.0000 C   0  0  0  0  0  0  0  0  0  0  0  0
   -2.5981    2.2500    0.0000 Cl  0  0  0  0  0  0  0  0  0  0  0  0
  2  1  3  0
  3  2  1  0
  4  3  1  0
M  END
>  <NAME>  (5088) 
3-CHLORO-1-PROPYNE

>  <SYNONYMS>  (5088) 
PROPARGYL CHLORIDE

>  <SPECTRUM TYPE>  (5088) 
MS1

>  <INSTRUMENT TYPE>  (5088) 
EI-B

>  <INSTRUMENT>  (5088) 
HITACHI RMU-7M

>  <ION MODE>  (5088) 
P

>  <INCHIKEY>  (5088) 
LJZPPWWHKPGCHS-UHFFFAOYSA-N

>  <FORMULA>  (5088) 
C3H3Cl

>  <EXACT MASS>  (5088) 
73.992327776

>  <MW>  (5088) 
74

>  <ID>  (5088) 
JP004270

>  <CONTRIBUTOR>  (5088) 
University of Tokyo Team, {Faculty of Engineering, University of Tokyo

>  <COMMENT>  (5088) 
SMILES=C#CCCl
cas=624-65-7
InChI=InChI=1S/C3H3Cl/c1-2-3-4/h1H,3H2
computed SMILES=ClCC#C
exact mass=73.99233
accession=JP004270
date=2016.01.19 (Created 2008.10.21, modified 2011.05.06)
author=TAJIMA S, GUNMA COLLEGE OF TECHNOLOGY
license=CC BY-NC-SA
ionization energy=70 eV
ion type=[M]+*
computed spectral entropy=1.979994225408274
computed normalized entropy=0.6988510870747147
SPLASH=splash10-000i-9000000000-8dabb92d6fb2df4a97c1
submitter=submitter = University of Tokyo Team (Faculty of Engineering, University of Tokyo)
MoNA Rating=3.75

>  <NUM PEAKS>  (5088) 
17

>  <MASS SPECTRAL PEAKS>  (5088) 
25 1.7
26 1.43
27 1.34
35 1.88
36 4.48
37 20.79
38 26.88
39 99.99
40 3.67
44 8.06
47 3.49
49 1.79
73 6.27
74 43.01
75 6.45
76 13.62
77 1.97

$$$$

     RDKit          2D

  9  9  0  0  0  0  0  0  0  0999 V2000
    2.2733   -0.6175    0.0000 C   0  0  0  0  0  0  0  0  0  0  0  0
    0.9738   -1.3683    0.0000 C   0  0  0  0  0  0  0  0  0  0  0  0
    2.2738    0.8833    0.0000 C   0  0  0  0  0  0  0  0  0  0  0  0
   -0.3252   -0.6183    0.0000 C   0  0  0  0  0  0  0  0  0  0  0  0
    0.9748    1.6333    0.0000 C   0  0  0  0  0  0  0  0  0  0  0  0
   -0.3248    0.8825    0.0000 C   0  0  0  0  0  0  0  0  0  0  0  0
   -1.6238    1.6325    0.0000 N   0  0  0  0  0  0  0  0  0  0  0  0
   -2.9228    0.8825    0.0000 O   0  0  0  0  0  0  0  0  0  0  0  0
   -1.6238    3.1325    0.0000 O   0  0  0  0  0  0  0  0  0  0  0  0
  2  1  2  0
  3  1  1  0
  4  2  1  0
  5  3  2  0
  6  4  2  0
  6  5  1  0
  7  6  1  0
  8  7  1  0
  9  7  2  0
M  CHG  2   7   1   8  -1
M  END
>  <NAME>  (5089) 
NITROBENZENE

>  <SYNONYMS>  (5089) 


>  <SPECTRUM TYPE>  (5089) 
MS1

>  <INSTRUMENT TYPE>  (5089) 
EI-B

>  <INSTRUMENT>  (5089) 
HITACHI RMU-7M

>  <ION MODE>  (5089) 
P

>  <INCHIKEY>  (5089) 
LQNUZADURLCDLV-UHFFFAOYSA-N

>  <FORMULA>  (5089) 
C6H5NO2

>  <EXACT MASS>  (5089) 
123.0320284

>  <MW>  (5089) 
123

>  <ID>  (5089) 
JP004269

>  <CONTRIBUTOR>  (5089) 
University of Tokyo Team, {Faculty of Engineering, University of Tokyo

>  <COMMENT>  (5089) 
SMILES=[O-1][N+1](=O)c(c1)cccc1
InChI=InChI=1S/C6H5NO2/c8-7(9)6-4-2-1-3-5-6/h1-5H
computed SMILES=O=N(=O)C=1C=CC=CC1
accession=JP004269
date=2016.01.19 (Created 2008.10.21, modified 2011.05.06)
author=TAJIMA S, GUNMA COLLEGE OF TECHNOLOGY
license=CC BY-NC-SA
exact mass=123.03203
ionization energy=70 eV
ion type=[M]+*
computed spectral entropy=2.151721343744399
computed normalized entropy=0.6770562925011311
SPLASH=splash10-0fi0-9200000000-01d576e409b4cc0d4a11
submitter=submitter = University of Tokyo Team (Faculty of Engineering, University of Tokyo)
MoNA Rating=3.75

>  <NUM PEAKS>  (5089) 
24

>  <MASS SPECTRAL PEAKS>  (5089) 
27 2.11
30 5.87
37 1.59
38 2.11
39 4.23
49 1.06
50 12.32
51 41.65
52 2.11
63 1.48
64 1.06
65 12.16
66 1.11
73 1.06
74 4.6
75 2.91
76 2.59
77 99.99
78 6.77
93 12.84
94 1
107 4.7
123 63.37
124 4.76

$$$$

     RDKit          2D

  5  4  0  0  0  0  0  0  0  0999 V2000
    0.0000    0.0000    0.0000 C   0  0  0  0  0  0  0  0  0  0  0  0
   -1.2990    2.2500    0.0000 C   0  0  0  0  0  0  0  0  0  0  0  0
    0.0000    1.5000    0.0000 C   0  0  0  0  0  0  0  0  0  0  0  0
   -1.2990    3.7500    0.0000 O   0  0  0  0  0  0  0  0  0  0  0  0
    1.2990    2.2500    0.0000 O   0  0  0  0  0  0  0  0  0  0  0  0
  3  1  1  0
  3  2  1  0
  4  2  1  0
  5  3  2  0
M  END
>  <NAME>  (5090) 
ACETOMETHANOL

>  <SYNONYMS>  (5090) 


>  <SPECTRUM TYPE>  (5090) 
MS1

>  <INSTRUMENT TYPE>  (5090) 
EI-B

>  <INSTRUMENT>  (5090) 
HITACHI RMU-7M

>  <ION MODE>  (5090) 
P

>  <INCHIKEY>  (5090) 
XLSMFKSTNGKWQX-UHFFFAOYSA-N

>  <FORMULA>  (5090) 
C3H6O2

>  <EXACT MASS>  (5090) 
74.036779432

>  <MW>  (5090) 
74

>  <ID>  (5090) 
JP004268

>  <CONTRIBUTOR>  (5090) 
University of Tokyo Team, {Faculty of Engineering, University of Tokyo

>  <COMMENT>  (5090) 
SMILES=OCC(C)=O
InChI=InChI=1S/C3H6O2/c1-3(5)2-4/h4H,2H2,1H3
computed SMILES=O=C(C)CO
accession=JP004268
date=2016.01.19 (Created 2008.10.21, modified 2011.05.06)
author=TAJIMA S, GUNMA COLLEGE OF TECHNOLOGY
license=CC BY-NC-SA
exact mass=74.03678
ionization energy=70 eV
ion type=[M]+*
computed spectral entropy=1.3493530727733227
computed normalized entropy=0.5627239388143138
SPLASH=splash10-0006-9000000000-07305dfad59d2227ffa7
submitter=submitter = University of Tokyo Team (Faculty of Engineering, University of Tokyo)
MoNA Rating=3.75

>  <NUM PEAKS>  (5090) 
11

>  <MASS SPECTRAL PEAKS>  (5090) 
15 6.04
27 1.83
29 3.66
31 12.93
42 3.35
43 99.99
44 3.6
45 8.48
57 1
74 11.34
75 1.1

$$$$

     RDKit          2D

  9  8  0  0  0  0  0  0  0  0999 V2000
   -6.4952    4.5000    0.0000 C   0  0  0  0  0  0  0  0  0  0  0  0
    2.5981    3.7500    0.0000 C   0  0  0  0  0  0  0  0  0  0  0  0
   -5.1962    3.7500    0.0000 C   0  0  0  0  0  0  0  0  0  0  0  0
    1.2990    4.5000    0.0000 C   0  0  0  0  0  0  0  0  0  0  0  0
   -3.8971    4.5000    0.0000 C   0  0  0  0  0  0  0  0  0  0  0  0
   -2.5981    3.7500    0.0000 C   0  0  0  0  0  0  0  0  0  0  0  0
    0.0000    3.7500    0.0000 C   0  0  0  0  0  0  0  0  0  0  0  0
   -0.0000    2.2500    0.0000 O   0  0  0  0  0  0  0  0  0  0  0  0
   -1.2990    4.5000    0.0000 O   0  0  0  0  0  0  0  0  0  0  0  0
  3  1  1  0
  4  2  2  0
  5  3  1  0
  6  5  1  0
  7  4  1  0
  8  7  2  0
  9  6  1  0
  9  7  1  0
M  END
>  <NAME>  (5091) 
BUTYL ACRYLATE

>  <SYNONYMS>  (5091) 
ACRYLIC ACID BUTYL ESTER

>  <SPECTRUM TYPE>  (5091) 
MS1

>  <INSTRUMENT TYPE>  (5091) 
EI-B

>  <INSTRUMENT>  (5091) 
HITACHI RMU-7M

>  <ION MODE>  (5091) 
P

>  <INCHIKEY>  (5091) 
CQEYYJKEWSMYFG-UHFFFAOYSA-N

>  <FORMULA>  (5091) 
C7H12O2

>  <EXACT MASS>  (5091) 
128.083729624

>  <MW>  (5091) 
128

>  <ID>  (5091) 
JP004267

>  <CONTRIBUTOR>  (5091) 
University of Tokyo Team, {Faculty of Engineering, University of Tokyo

>  <COMMENT>  (5091) 
SMILES=CCCCOC(=O)C=C
cas=141-32-2
InChI=InChI=1S/C7H12O2/c1-3-5-6-9-7(8)4-2/h4H,2-3,5-6H2,1H3
computed SMILES=O=C(OCCCC)C=C
accession=JP004267
date=2016.01.19 (Created 2008.10.21, modified 2011.05.06)
author=TAJIMA S, GUNMA COLLEGE OF TECHNOLOGY
license=CC BY-NC-SA
exact mass=128.08373
ionization energy=70 eV
ion type=[M]+*
computed spectral entropy=1.9655506622190484
computed normalized entropy=0.6800338596062563
SPLASH=splash10-0a4i-9000000000-f355f1dccc8f1e78f364
submitter=submitter = University of Tokyo Team (Faculty of Engineering, University of Tokyo)
MoNA Rating=3.75

>  <NUM PEAKS>  (5091) 
18

>  <MASS SPECTRAL PEAKS>  (5091) 
26 1.44
27 19.42
28 6.28
29 8.66
31 2.74
39 2.53
41 15.38
43 2.67
55 99.99
56 50.18
57 4.48
68 1.23
69 1.37
70 1.3
73 32.13
74 1.08
85 5.92
99 1.08

$$$$

     RDKit          2D

  9  8  0  0  0  0  0  0  0  0999 V2000
    1.9486    3.3750    0.0000 C   0  0  0  0  0  0  0  0  0  0  0  0
   -5.8457    3.3750    0.0000 C   0  0  0  0  0  0  0  0  0  0  0  0
   -4.5466    5.6250    0.0000 C   0  0  0  0  0  0  0  0  0  0  0  0
    0.6495    4.1250    0.0000 C   0  0  0  0  0  0  0  0  0  0  0  0
   -3.2476    3.3750    0.0000 C   0  0  0  0  0  0  0  0  0  0  0  0
   -4.5466    4.1250    0.0000 C   0  0  0  0  0  0  0  0  0  0  0  0
   -0.6495    3.3750    0.0000 C   0  0  0  0  0  0  0  0  0  0  0  0
   -0.6495    1.8750    0.0000 O   0  0  0  0  0  0  0  0  0  0  0  0
   -1.9486    4.1250    0.0000 O   0  0  0  0  0  0  0  0  0  0  0  0
  4  1  2  0
  6  2  1  0
  6  3  1  0
  6  5  1  0
  7  4  1  0
  8  7  2  0
  9  5  1  0
  9  7  1  0
M  END
>  <NAME>  (5092) 
ISOBUTYL ACRYLATE

>  <SYNONYMS>  (5092) 
PROPENOIC ACID ISOBUTYL ESTER

>  <SPECTRUM TYPE>  (5092) 
MS1

>  <INSTRUMENT TYPE>  (5092) 
EI-B

>  <INSTRUMENT>  (5092) 
HITACHI RMU-7M

>  <ION MODE>  (5092) 
P

>  <INCHIKEY>  (5092) 
CFVWNXQPGQOHRJ-UHFFFAOYSA-N

>  <FORMULA>  (5092) 
C7H12O2

>  <EXACT MASS>  (5092) 
128.083729624

>  <MW>  (5092) 
128

>  <ID>  (5092) 
JP004266

>  <CONTRIBUTOR>  (5092) 
University of Tokyo Team, {Faculty of Engineering, University of Tokyo

>  <COMMENT>  (5092) 
SMILES=C=CC(=O)OCC(C)C
InChI=InChI=1S/C7H12O2/c1-4-7(8)9-5-6(2)3/h4,6H,1,5H2,2-3H3
computed SMILES=O=C(OCC(C)C)C=C
accession=JP004266
date=2016.01.19 (Created 2008.10.21, modified 2011.05.06)
author=TAJIMA S, GUNMA COLLEGE OF TECHNOLOGY
license=CC BY-NC-SA
exact mass=128.08373
ionization energy=70 eV
ion type=[M]+*
computed spectral entropy=2.0038503777802315
computed normalized entropy=0.6805542216899717
SPLASH=splash10-0a4i-9000000000-da0f5d533d28cd12ce94
submitter=submitter = University of Tokyo Team (Faculty of Engineering, University of Tokyo)
MoNA Rating=3.75

>  <NUM PEAKS>  (5092) 
19

>  <MASS SPECTRAL PEAKS>  (5092) 
26 2.73
27 17.46
28 3.79
29 5.91
31 1.15
39 5.56
40 1.23
41 18.43
42 1.76
43 4.32
44 1.5
55 99.99
56 51.23
57 4.94
69 2.2
70 2.03
72 2.2
73 9.35
85 8.64

$$$$

     RDKit          2D

  5  4  0  0  0  0  0  0  0  0999 V2000
   -0.0000   -0.0000    0.0000 C   0  0  0  0  0  0  0  0  0  0  0  0
    0.0000    1.5000    0.0000 C   0  0  0  0  0  0  0  0  0  0  0  0
   -1.2990    2.2500    0.0000 C   0  0  0  0  0  0  0  0  0  0  0  0
   -2.5981    1.5000    0.0000 O   0  0  0  0  0  0  0  0  0  0  0  0
   -1.2990    3.7500    0.0000 O   0  0  0  0  0  0  0  0  0  0  0  0
  2  1  2  0
  3  2  1  0
  4  3  2  0
  5  3  1  0
M  END
>  <NAME>  (5093) 
PROPENOIC ACID

>  <SYNONYMS>  (5093) 
ACRYLIC ACID

>  <SPECTRUM TYPE>  (5093) 
MS1

>  <INSTRUMENT TYPE>  (5093) 
EI-B

>  <INSTRUMENT>  (5093) 
HITACHI RMU-7M

>  <ION MODE>  (5093) 
P

>  <INCHIKEY>  (5093) 
NIXOWILDQLNWCW-UHFFFAOYSA-N

>  <FORMULA>  (5093) 
C3H4O2

>  <EXACT MASS>  (5093) 
72.021129368

>  <MW>  (5093) 
72

>  <ID>  (5093) 
JP004265

>  <CONTRIBUTOR>  (5093) 
University of Tokyo Team, {Faculty of Engineering, University of Tokyo

>  <COMMENT>  (5093) 
SMILES=C=CC(O)=O
cas=79-10-7
InChI=InChI=1S/C3H4O2/c1-2-3(4)5/h2H,1H2,(H,4,5)
computed SMILES=O=C(O)C=C
accession=JP004265
date=2016.01.19 (Created 2008.10.21, modified 2011.05.06)
author=TAJIMA S, GUNMA COLLEGE OF TECHNOLOGY
license=CC BY-NC-SA
exact mass=72.02113
ionization energy=70 eV
ion type=[M]+*
computed spectral entropy=2.1113517104812396
computed normalized entropy=0.7452145158466917
SPLASH=splash10-00b9-9000000000-ebdb7274700971cd6f14
submitter=submitter = University of Tokyo Team (Faculty of Engineering, University of Tokyo)
MoNA Rating=3.75

>  <NUM PEAKS>  (5093) 
17

>  <MASS SPECTRAL PEAKS>  (5093) 
15 1.27
25 6.82
26 46.85
27 99.81
28 17.16
29 4.59
43 5.8
44 23.96
45 32.12
46 2.23
53 4.4
54 1.4
55 74.06
56 2.23
71 5.48
72 99.99
73 4.4

$$$$

     RDKit          2D

  6  5  0  0  0  0  0  0  0  0999 V2000
    1.2990    2.2500    0.0000 C   0  0  0  0  0  0  0  0  0  0  0  0
   -3.8971    2.2500    0.0000 C   0  0  0  0  0  0  0  0  0  0  0  0
    0.0000    3.0000    0.0000 C   0  0  0  0  0  0  0  0  0  0  0  0
   -1.2990    2.2500    0.0000 C   0  0  0  0  0  0  0  0  0  0  0  0
   -1.2990    0.7500    0.0000 O   0  0  0  0  0  0  0  0  0  0  0  0
   -2.5981    3.0000    0.0000 O   0  0  0  0  0  0  0  0  0  0  0  0
  3  1  2  0
  4  3  1  0
  5  4  2  0
  6  2  1  0
  6  4  1  0
M  END
>  <NAME>  (5094) 
PROPENOIC ACID METHYL ESTER

>  <SYNONYMS>  (5094) 
METHYL ACRYLATE

>  <SPECTRUM TYPE>  (5094) 
MS1

>  <INSTRUMENT TYPE>  (5094) 
EI-B

>  <INSTRUMENT>  (5094) 
HITACHI RMU-7M

>  <ION MODE>  (5094) 
P

>  <INCHIKEY>  (5094) 
BAPJBEWLBFYGME-UHFFFAOYSA-N

>  <FORMULA>  (5094) 
C4H6O2

>  <EXACT MASS>  (5094) 
86.036779432

>  <MW>  (5094) 
86

>  <ID>  (5094) 
JP004264

>  <CONTRIBUTOR>  (5094) 
University of Tokyo Team, {Faculty of Engineering, University of Tokyo

>  <COMMENT>  (5094) 
SMILES=C=CC(=O)OC
InChI=InChI=1S/C4H6O2/c1-3-4(5)6-2/h3H,1H2,2H3
computed SMILES=O=C(OC)C=C
accession=JP004264
date=2016.01.19 (Created 2008.10.21, modified 2011.05.06)
author=TAJIMA S, GUNMA COLLEGE OF TECHNOLOGY
license=CC BY-NC-SA
exact mass=86.03678
ionization energy=70 eV
ion type=[M]+*
computed spectral entropy=1.8433670602352317
computed normalized entropy=0.6377612344153876
SPLASH=splash10-0a4i-9000000000-e696fac186759df178cb
submitter=submitter = University of Tokyo Team (Faculty of Engineering, University of Tokyo)
MoNA Rating=3.75

>  <NUM PEAKS>  (5094) 
18

>  <MASS SPECTRAL PEAKS>  (5094) 
15 8.23
26 3.92
27 31.01
28 2.04
29 1.77
31 2.97
41 1.33
42 4.43
43 3.29
44 4.94
55 99.99
56 3.73
57 2.66
58 6.77
59 3.67
68 1.26
85 12.72
86 1

$$$$

     RDKit          2D

  9  8  0  0  0  0  0  0  0  0999 V2000
    1.9486    2.6250    0.0000 C   0  0  0  0  0  0  0  0  0  0  0  0
    0.6495    4.8750    0.0000 C   0  0  0  0  0  0  0  0  0  0  0  0
   -4.5466    3.3750    0.0000 C   0  0  0  0  0  0  0  0  0  0  0  0
   -3.2476    1.1250    0.0000 C   0  0  0  0  0  0  0  0  0  0  0  0
    0.6495    3.3750    0.0000 C   0  0  0  0  0  0  0  0  0  0  0  0
   -3.2476    2.6250    0.0000 C   0  0  0  0  0  0  0  0  0  0  0  0
   -0.6495    2.6250    0.0000 C   0  0  0  0  0  0  0  0  0  0  0  0
   -0.6495    1.1250    0.0000 O   0  0  0  0  0  0  0  0  0  0  0  0
   -1.9486    3.3750    0.0000 O   0  0  0  0  0  0  0  0  0  0  0  0
  5  1  1  0
  5  2  1  0
  6  3  1  0
  6  4  1  0
  7  5  1  0
  8  7  2  0
  9  6  1  0
  9  7  1  0
M  END
>  <NAME>  (5095) 
ISOBUTYRIC ACID ISOPROPYL ESTER

>  <SYNONYMS>  (5095) 
ISOPROPYL ISOBUTYRATE

>  <SPECTRUM TYPE>  (5095) 
MS1

>  <INSTRUMENT TYPE>  (5095) 
EI-B

>  <INSTRUMENT>  (5095) 
HITACHI RMU-7M

>  <ION MODE>  (5095) 
P

>  <INCHIKEY>  (5095) 
WVRPFQGZHKZCEB-UHFFFAOYSA-N

>  <FORMULA>  (5095) 
C7H14O2

>  <EXACT MASS>  (5095) 
130.099379688

>  <MW>  (5095) 
130

>  <ID>  (5095) 
JP004263

>  <CONTRIBUTOR>  (5095) 
University of Tokyo Team, {Faculty of Engineering, University of Tokyo

>  <COMMENT>  (5095) 
SMILES=CC(C)OC(=O)C(C)C
InChI=InChI=1S/C7H14O2/c1-5(2)7(8)9-6(3)4/h5-6H,1-4H3
computed SMILES=O=C(OC(C)C)C(C)C
accession=JP004263
date=2016.01.19 (Created 2008.10.21, modified 2011.05.06)
author=TAJIMA S, GUNMA COLLEGE OF TECHNOLOGY
license=CC BY-NC-SA
exact mass=130.09938
ionization energy=70 eV
ion type=[M]+*
computed spectral entropy=1.8560267287596128
computed normalized entropy=0.6550959999723853
SPLASH=splash10-0006-9000000000-a4676182040cc3a8e9d5
submitter=submitter = University of Tokyo Team (Faculty of Engineering, University of Tokyo)
MoNA Rating=3.75

>  <NUM PEAKS>  (5095) 
17

>  <MASS SPECTRAL PEAKS>  (5095) 
15 1
27 7.44
28 3.98
39 4.56
40 1.04
41 17.42
42 10.27
43 99.99
44 3.52
45 5.02
59 3.4
71 31.78
72 1.04
73 1.96
88 1.61
89 11.07
115 1.38

$$$$

     RDKit          2D

  7  6  0  0  0  0  0  0  0  0999 V2000
    1.6238    1.6875    0.0000 C   0  0  0  0  0  0  0  0  0  0  0  0
    0.3248    3.9375    0.0000 C   0  0  0  0  0  0  0  0  0  0  0  0
   -0.9743    1.6875    0.0000 C   0  0  0  0  0  0  0  0  0  0  0  0
    0.3248    2.4375    0.0000 C   0  0  0  0  0  0  0  0  0  0  0  0
   -2.2733    2.4375    0.0000 C   0  0  0  0  0  0  0  0  0  0  0  0
   -2.2733    3.9375    0.0000 O   0  0  0  0  0  0  0  0  0  0  0  0
   -3.5724    1.6875    0.0000 O   0  0  0  0  0  0  0  0  0  0  0  0
  4  1  1  0
  4  2  1  0
  4  3  1  0
  5  3  1  0
  6  5  2  0
  7  5  1  0
M  END
>  <NAME>  (5096) 
3-METHYLBUTANOIC ACID

>  <SYNONYMS>  (5096) 
ISOVALERIC ACID

>  <SPECTRUM TYPE>  (5096) 
MS1

>  <INSTRUMENT TYPE>  (5096) 
EI-B

>  <INSTRUMENT>  (5096) 
HITACHI RMU-7M

>  <ION MODE>  (5096) 
P

>  <INCHIKEY>  (5096) 
GWYFCOCPABKNJV-UHFFFAOYSA-N

>  <FORMULA>  (5096) 
C5H10O2

>  <EXACT MASS>  (5096) 
102.06807956

>  <MW>  (5096) 
102

>  <ID>  (5096) 
JP004262

>  <CONTRIBUTOR>  (5096) 
University of Tokyo Team, {Faculty of Engineering, University of Tokyo

>  <COMMENT>  (5096) 
SMILES=CC(C)CC(O)=O
cas=503-74-2
InChI=InChI=1S/C5H10O2/c1-4(2)3-5(6)7/h4H,3H2,1-2H3,(H,6,7)
computed SMILES=O=C(O)CC(C)C
accession=JP004262
date=2016.01.19 (Created 2008.10.21, modified 2011.05.06)
author=TAJIMA S, GUNMA COLLEGE OF TECHNOLOGY
license=CC BY-NC-SA
exact mass=102.06808
ionization energy=70 eV
ion type=[M]+*
computed spectral entropy=2.3831015856268687
computed normalized entropy=0.7403521338771888
SPLASH=splash10-03dl-9000000000-9e19eb5f5137b78591df
submitter=submitter = University of Tokyo Team (Faculty of Engineering, University of Tokyo)
MoNA Rating=3.75

>  <NUM PEAKS>  (5096) 
25

>  <MASS SPECTRAL PEAKS>  (5096) 
15 1.34
26 1.21
27 13.96
28 3.8
29 7.18
31 1.34
38 1.21
39 11.14
40 2.01
41 35.91
42 10.13
43 45.57
44 6.31
45 18.99
53 1.01
55 2.68
56 3.02
57 2.42
59 2.89
60 99.99
61 6.38
69 8.72
84 4.7
85 1.34
87 12.08

$$$$

     RDKit          2D

 16 15  0  0  0  0  0  0  0  0999 V2000
    0.6495    7.8750    0.0000 C   0  0  0  0  0  0  0  0  0  0  0  0
   -7.1447    3.3750    0.0000 C   0  0  0  0  0  0  0  0  0  0  0  0
    0.6495   -1.1250    0.0000 C   0  0  0  0  0  0  0  0  0  0  0  0
   -0.6495    4.1250    0.0000 C   0  0  0  0  0  0  0  0  0  0  0  0
   -3.2476    4.1250    0.0000 C   0  0  0  0  0  0  0  0  0  0  0  0
   -1.9486    1.8750    0.0000 C   0  0  0  0  0  0  0  0  0  0  0  0
   -0.6495    5.6250    0.0000 C   0  0  0  0  0  0  0  0  0  0  0  0
   -4.5466    3.3750    0.0000 C   0  0  0  0  0  0  0  0  0  0  0  0
   -0.6495    1.1250    0.0000 C   0  0  0  0  0  0  0  0  0  0  0  0
   -1.9486    3.3750    0.0000 N   0  0  0  0  0  0  0  0  0  0  0  0
   -1.9486    6.3750    0.0000 O   0  0  0  0  0  0  0  0  0  0  0  0
   -4.5466    1.8750    0.0000 O   0  0  0  0  0  0  0  0  0  0  0  0
    0.6495    1.8750    0.0000 O   0  0  0  0  0  0  0  0  0  0  0  0
    0.6495    6.3750    0.0000 O   0  0  0  0  0  0  0  0  0  0  0  0
   -5.8457    4.1250    0.0000 O   0  0  0  0  0  0  0  0  0  0  0  0
   -0.6495   -0.3750    0.0000 O   0  0  0  0  0  0  0  0  0  0  0  0
  7  4  1  0
  8  5  1  0
  9  6  1  0
 10  4  1  0
 10  5  1  0
 10  6  1  0
 11  7  2  0
 12  8  2  0
 13  9  2  0
 14  1  1  0
 14  7  1  0
 15  2  1  0
 15  8  1  0
 16  3  1  0
 16  9  1  0
M  END
>  <NAME>  (5097) 
NITRILOTRIACETIC ACID TRIMETHYL ESTER

>  <SYNONYMS>  (5097) 


>  <SPECTRUM TYPE>  (5097) 
MS1

>  <INSTRUMENT TYPE>  (5097) 
EI-B

>  <INSTRUMENT>  (5097) 
JEOL JMS-01-SG

>  <ION MODE>  (5097) 
P

>  <INCHIKEY>  (5097) 
NHKRXCTYPGGSTL-UHFFFAOYSA-N

>  <FORMULA>  (5097) 
C9H15NO6

>  <EXACT MASS>  (5097) 
233.08993719999998

>  <MW>  (5097) 
233

>  <ID>  (5097) 
JP004261

>  <CONTRIBUTOR>  (5097) 
University of Tokyo Team, {Faculty of Engineering, University of Tokyo

>  <COMMENT>  (5097) 
SMILES=COC(=O)CN(CC(=O)OC)CC(=O)OC
InChI=InChI=1S/C9H15NO6/c1-14-7(11)4-10(5-8(12)15-2)6-9(13)16-3/h4-6H2,1-3H3
computed SMILES=O=C(OC)CN(CC(=O)OC)CC(=O)OC
accession=JP004261
date=2016.01.19 (Created 2008.10.21, modified 2011.05.06)
author=KOGA M, UNIV. OF OCCUPATIONAL AND ENVIRONMENTAL HEALTH
license=CC BY-NC-SA
exact mass=233.08994
ionization energy=70 eV
ion type=[M]+*
computed spectral entropy=1.921322649313972
computed normalized entropy=0.6127654899036773
SPLASH=splash10-006t-5900000000-0060568d4ff576ea38b0
submitter=submitter = University of Tokyo Team (Faculty of Engineering, University of Tokyo)
MoNA Rating=3.75

>  <NUM PEAKS>  (5097) 
23

>  <MASS SPECTRAL PEAKS>  (5097) 
42 31.7
45 63.9
46 1.7
56 0.64
57 2.5
72 2.1
88 2.1
100 0.21
102 2.5
103 1.2
115 5.1
116 0.9
118 1.7
146 41.2
147 2.1
158 0.08
160 1.7
173 1.2
174 99.99
175 0.9
188 2.5
201 3.4
233 11.1

$$$$

     RDKit          2D

 15 16  0  0  0  0  0  0  0  0999 V2000
    7.4362    0.6108    0.0000 C   0  0  0  0  0  0  0  0  0  0  0  0
   -2.9500   -0.8900    0.0000 C   0  0  0  0  0  0  0  0  0  0  0  0
   -2.9500    0.6100    0.0000 C   0  0  0  0  0  0  0  0  0  0  0  0
   -1.6500   -1.6400    0.0000 C   0  0  0  0  0  0  0  0  0  0  0  0
   -1.6500    1.3600    0.0000 C   0  0  0  0  0  0  0  0  0  0  0  0
    2.2400   -0.8900    0.0000 C   0  0  0  0  0  0  0  0  0  0  0  0
    0.9400   -1.6400    0.0000 C   0  0  0  0  0  0  0  0  0  0  0  0
    0.9400    1.3600    0.0000 C   0  0  0  0  0  0  0  0  0  0  0  0
    3.5389    1.3602    0.0000 C   0  0  0  0  0  0  0  0  0  0  0  0
    2.2400    0.6100    0.0000 C   0  0  0  0  0  0  0  0  0  0  0  0
   -0.3500   -0.8900    0.0000 C   0  0  0  0  0  0  0  0  0  0  0  0
   -0.3500    0.6100    0.0000 C   0  0  0  0  0  0  0  0  0  0  0  0
    4.8381    0.6104    0.0000 C   0  0  0  0  0  0  0  0  0  0  0  0
    4.8383   -0.8896    0.0000 O   0  0  0  0  0  0  0  0  0  0  0  0
    6.1370    1.3606    0.0000 O   0  0  0  0  0  0  0  0  0  0  0  0
  3  2  2  0
  4  2  1  0
  5  3  1  0
  7  6  2  0
 10  6  1  0
 10  8  2  0
 10  9  1  0
 11  4  2  0
 11  7  1  0
 12  5  2  0
 12  8  1  0
 12 11  1  0
 13  9  1  0
 14 13  2  0
 15  1  1  0
 15 13  1  0
M  END
>  <NAME>  (5098) 
2-NAPHTHALENEACETIC ACID METHYL ESTER

>  <SYNONYMS>  (5098) 


>  <SPECTRUM TYPE>  (5098) 
MS1

>  <INSTRUMENT TYPE>  (5098) 
EI-B

>  <INSTRUMENT>  (5098) 
JEOL JMS-01-SG

>  <ION MODE>  (5098) 
P

>  <INCHIKEY>  (5098) 
BGYOCQOJCMPTCY-UHFFFAOYSA-N

>  <FORMULA>  (5098) 
C13H12O2

>  <EXACT MASS>  (5098) 
200.083729624

>  <MW>  (5098) 
200

>  <ID>  (5098) 
JP004260

>  <CONTRIBUTOR>  (5098) 
University of Tokyo Team, {Faculty of Engineering, University of Tokyo

>  <COMMENT>  (5098) 
SMILES=COC(=O)Cc(c1)cc(c2)c(ccc2)c1
InChI=InChI=1S/C13H12O2/c1-15-13(14)9-10-6-7-11-4-2-3-5-12(11)8-10/h2-8H,9H2,1H3
computed SMILES=O=C(OC)CC=1C=CC=2C=CC=CC2C1
accession=JP004260
date=2016.01.19 (Created 2008.10.21, modified 2011.05.06)
author=KOGA M, UNIV. OF OCCUPATIONAL AND ENVIRONMENTAL HEALTH
license=CC BY-NC-SA
exact mass=200.08373
ionization energy=70 eV
ion type=[M]+*
computed spectral entropy=2.7185275623432967
computed normalized entropy=0.7183909437245759
SPLASH=splash10-0fr6-2940000000-6d2837ce6897f37f8bff
submitter=submitter = University of Tokyo Team (Faculty of Engineering, University of Tokyo)
MoNA Rating=3.75

>  <NUM PEAKS>  (5098) 
44

>  <MASS SPECTRAL PEAKS>  (5098) 
39 9.8
50 4.6
51 8.9
57 1.59
58 2.8
62 4.6
63 14
64 0.14
65 6.5
69 5.1
70 8.9
71 3.05
75 7
76 2.3
77 1.4
78 0.14
86 2.3
87 5.1
88 3.7
89 1.07
91 6.1
102 2.3
113 7
114 0.51
115 96.2
116 9.8
126 2.3
127 0.32
128 7
129 3.2
138 1.4
139 5.21
140 23
141 71.8
142 82.1
143 0.46
155 3.7
156 1.8
157 1.8
168 0.7
169 2.8
200 99.99
201 45
202 3.7

$$$$

     RDKit          2D

 18 18  0  0  0  0  0  0  0  0999 V2000
  -11.6923   -0.7517    0.0000 C   0  0  0  0  0  0  0  0  0  0  0  0
    5.1970    1.5006    0.0000 C   0  0  0  0  0  0  0  0  0  0  0  0
  -10.3931   -1.5015    0.0000 C   0  0  0  0  0  0  0  0  0  0  0  0
   -9.0942   -0.7512    0.0000 C   0  0  0  0  0  0  0  0  0  0  0  0
   -7.7951   -1.5010    0.0000 C   0  0  0  0  0  0  0  0  0  0  0  0
   -6.4962   -0.7508    0.0000 C   0  0  0  0  0  0  0  0  0  0  0  0
   -5.1970   -1.5006    0.0000 C   0  0  0  0  0  0  0  0  0  0  0  0
   -3.8981   -0.7504    0.0000 C   0  0  0  0  0  0  0  0  0  0  0  0
   -2.5989   -1.5002    0.0000 C   0  0  0  0  0  0  0  0  0  0  0  0
   -1.3000    0.7500    0.0000 C   0  0  0  0  0  0  0  0  0  0  0  0
   -0.0000   -1.5000    0.0000 C   0  0  0  0  0  0  0  0  0  0  0  0
    0.0000    1.5000    0.0000 C   0  0  0  0  0  0  0  0  0  0  0  0
    1.3000   -0.7500    0.0000 C   0  0  0  0  0  0  0  0  0  0  0  0
   -1.3000   -0.7500    0.0000 C   0  0  0  0  0  0  0  0  0  0  0  0
    1.3000    0.7500    0.0000 C   0  0  0  0  0  0  0  0  0  0  0  0
    2.5989    1.5002    0.0000 C   0  0  0  0  0  0  0  0  0  0  0  0
    2.5987    3.0002    0.0000 O   0  0  0  0  0  0  0  0  0  0  0  0
    3.8981    0.7504    0.0000 O   0  0  0  0  0  0  0  0  0  0  0  0
  3  1  1  0
  4  3  1  0
  5  4  1  0
  6  5  1  0
  7  6  1  0
  8  7  1  0
  9  8  1  0
 12 10  2  0
 13 11  1  0
 14  9  1  0
 14 10  1  0
 14 11  2  0
 15 12  1  0
 15 13  2  0
 16 15  1  0
 17 16  2  0
 18  2  1  0
 18 16  1  0
M  END
>  <NAME>  (5099) 
4-OCTYLBENZOIC ACID METHYL ESTER

>  <SYNONYMS>  (5099) 


>  <SPECTRUM TYPE>  (5099) 
MS1

>  <INSTRUMENT TYPE>  (5099) 
EI-B

>  <INSTRUMENT>  (5099) 
JEOL JMS-01-SG

>  <ION MODE>  (5099) 
P

>  <INCHIKEY>  (5099) 
NKSKNAWLKUQLNY-UHFFFAOYSA-N

>  <FORMULA>  (5099) 
C16H24O2

>  <EXACT MASS>  (5099) 
248.177630008

>  <MW>  (5099) 
248

>  <ID>  (5099) 
JP004259

>  <CONTRIBUTOR>  (5099) 
University of Tokyo Team, {Faculty of Engineering, University of Tokyo

>  <COMMENT>  (5099) 
SMILES=CCCCCCCCc(c1)ccc(c1)C(=O)OC
InChI=InChI=1S/C16H24O2/c1-3-4-5-6-7-8-9-14-10-12-15(13-11-14)16(17)18-2/h10-13H,3-9H2,1-2H3
computed SMILES=O=C(OC)C1=CC=C(C=C1)CCCCCCCC
accession=JP004259
date=2016.01.19 (Created 2008.10.21, modified 2011.05.06)
author=KOGA M, UNIV. OF OCCUPATIONAL AND ENVIRONMENTAL HEALTH
license=CC BY-NC-SA
exact mass=248.17763
ionization energy=70 eV
ion type=[M]+*
computed spectral entropy=2.8136727369223826
computed normalized entropy=0.743533757320989
SPLASH=splash10-0udm-4930000000-1965e70cf89847512739
submitter=submitter = University of Tokyo Team (Faculty of Engineering, University of Tokyo)
MoNA Rating=3.75

>  <NUM PEAKS>  (5099) 
44

>  <MASS SPECTRAL PEAKS>  (5099) 
39 4.4
41 11.3
42 2
43 1.2
51 3.4
55 6.2
56 1.3
57 1.55
59 2
63 1.3
65 2.7
69 0.2
77 7.5
78 3.1
79 1.3
89 0.34
90 7.5
91 47.9
92 4.4
103 0.34
104 2.4
105 11
106 2.7
115 0.27
117 2
118 9.3
119 7.9
121 0.86
131 8.2
133 2
135 6.5
137 0.24
149 43.1
150 99.99
151 9.6
152 0.17
163 5.8
177 1.3
189 5.8
191 0.51
217 25.8
218 3.1
248 38.9
249 6.5

$$$$

     RDKit          2D

 11 10  0  0  0  0  0  0  0  0999 V2000
   -1.2990    6.0000    0.0000 C   0  0  0  0  0  0  0  0  0  0  0  0
   -6.4952    4.5000    0.0000 C   0  0  0  0  0  0  0  0  0  0  0  0
    2.5981    3.7500    0.0000 C   0  0  0  0  0  0  0  0  0  0  0  0
   -2.5981    3.7500    0.0000 C   0  0  0  0  0  0  0  0  0  0  0  0
   -1.2990    4.5000    0.0000 C   0  0  0  0  0  0  0  0  0  0  0  0
   -3.8971    4.5000    0.0000 C   0  0  0  0  0  0  0  0  0  0  0  0
   -0.0000    3.7500    0.0000 C   0  0  0  0  0  0  0  0  0  0  0  0
   -3.8971    6.0000    0.0000 O   0  0  0  0  0  0  0  0  0  0  0  0
   -0.0000    2.2500    0.0000 O   0  0  0  0  0  0  0  0  0  0  0  0
   -5.1962    3.7500    0.0000 O   0  0  0  0  0  0  0  0  0  0  0  0
    1.2990    4.5000    0.0000 O   0  0  0  0  0  0  0  0  0  0  0  0
  5  1  1  0
  5  4  1  0
  6  4  1  0
  7  5  1  0
  8  6  2  0
  9  7  2  0
 10  2  1  0
 10  6  1  0
 11  3  1  0
 11  7  1  0
M  END
>  <NAME>  (5100) 
METHYLSUCCINIC ACID DIMETHYL ESTER

>  <SYNONYMS>  (5100) 


>  <SPECTRUM TYPE>  (5100) 
MS1

>  <INSTRUMENT TYPE>  (5100) 
EI-B

>  <INSTRUMENT>  (5100) 
JEOL JMS-01-SG

>  <ION MODE>  (5100) 
P

>  <INCHIKEY>  (5100) 
NFOQJNGQQXICBY-UHFFFAOYSA-N

>  <FORMULA>  (5100) 
C7H12O4

>  <EXACT MASS>  (5100) 
160.073558864

>  <MW>  (5100) 
160

>  <ID>  (5100) 
JP004258

>  <CONTRIBUTOR>  (5100) 
University of Tokyo Team, {Faculty of Engineering, University of Tokyo

>  <COMMENT>  (5100) 
SMILES=COC(=O)CC(C)C(=O)OC
cas=1604-11-1
InChI=InChI=1S/C7H12O4/c1-5(7(9)11-3)4-6(8)10-2/h5H,4H2,1-3H3
computed SMILES=O=C(OC)CC(C(=O)OC)C
accession=JP004258
date=2016.01.19 (Created 2008.10.21, modified 2011.05.06)
author=KOGA M, UNIV. OF OCCUPATIONAL AND ENVIRONMENTAL HEALTH
license=CC BY-NC-SA
exact mass=160.07356
ionization energy=70 eV
ion type=[M]+*
computed spectral entropy=2.669162331343302
computed normalized entropy=0.7285703337797323
SPLASH=splash10-0udi-9800000000-21e8fac0fe6075bb4367
submitter=submitter = University of Tokyo Team (Faculty of Engineering, University of Tokyo)
MoNA Rating=3.75

>  <NUM PEAKS>  (5100) 
39

>  <MASS SPECTRAL PEAKS>  (5100) 
37 0.22
38 0.8
39 9.6
40 0.8
41 34.4
42 31.2
43 1.1
47 1.2
53 1.6
55 24.8
56 0.55
57 2.8
58 5.5
60 10.4
61 0.1
68 2.4
69 66.9
70 5.3
71 0.34
72 6.7
73 2.8
74 2.2
78 0.14
82 1
85 6.3
87 60.7
88 0.34
91 0.8
99 6.3
100 90.5
101 99.99
102 6.1
113 3.4
115 3.6
127 0.08
128 24.6
129 39.2
130 13.1
131 1.4

$$$$

     RDKit          2D

 10 10  0  0  0  0  0  0  0  0999 V2000
   -3.5724    2.0075    0.0000 C   0  0  0  0  0  0  0  0  0  0  0  0
    1.6243    2.0083    0.0000 C   0  0  0  0  0  0  0  0  0  0  0  0
    0.3243   -0.2433    0.0000 C   0  0  0  0  0  0  0  0  0  0  0  0
    2.9233    1.2583    0.0000 C   0  0  0  0  0  0  0  0  0  0  0  0
    1.6233   -0.9933    0.0000 C   0  0  0  0  0  0  0  0  0  0  0  0
    0.3248    1.2575    0.0000 C   0  0  0  0  0  0  0  0  0  0  0  0
   -0.9743    2.0075    0.0000 C   0  0  0  0  0  0  0  0  0  0  0  0
    2.9228   -0.2425    0.0000 N   0  0  0  0  0  0  0  0  0  0  0  0
   -0.9743    3.5075    0.0000 O   0  0  0  0  0  0  0  0  0  0  0  0
   -2.2733    1.2575    0.0000 O   0  0  0  0  0  0  0  0  0  0  0  0
  4  2  2  0
  5  3  1  0
  6  2  1  0
  6  3  2  0
  7  6  1  0
  8  4  1  0
  8  5  2  0
  9  7  2  0
 10  1  1  0
 10  7  1  0
M  END
>  <NAME>  (5101) 
4-PYRIDINECARBOXYLIC ACID METHYL ESTER

>  <SYNONYMS>  (5101) 
ISONICOTINIC ACID METHYL ESTER

>  <SPECTRUM TYPE>  (5101) 
MS1

>  <INSTRUMENT TYPE>  (5101) 
EI-B

>  <INSTRUMENT>  (5101) 
JEOL JMS-01-SG

>  <ION MODE>  (5101) 
P

>  <INCHIKEY>  (5101) 
OLXYLDUSSBULGU-UHFFFAOYSA-N

>  <FORMULA>  (5101) 
C7H7NO2

>  <EXACT MASS>  (5101) 
137.047678464

>  <MW>  (5101) 
137

>  <ID>  (5101) 
JP004257

>  <CONTRIBUTOR>  (5101) 
University of Tokyo Team, {Faculty of Engineering, University of Tokyo

>  <COMMENT>  (5101) 
SMILES=COC(=O)c(c1)ccnc1
cas=2459-09-8
InChI=InChI=1S/C7H7NO2/c1-10-7(9)6-2-4-8-5-3-6/h2-5H,1H3
computed SMILES=O=C(OC)C=1C=CN=CC1
accession=JP004257
date=2016.01.19 (Created 2008.10.21, modified 2011.05.06)
author=KOGA M, UNIV. OF OCCUPATIONAL AND ENVIRONMENTAL HEALTH
license=CC BY-NC-SA
exact mass=137.04768
ionization energy=70 eV
ion type=[M]+*
computed spectral entropy=2.2464142764978092
computed normalized entropy=0.6894867141849551
SPLASH=splash10-0ufr-9200000000-c4099eb149c5af9fd73e
submitter=submitter = University of Tokyo Team (Faculty of Engineering, University of Tokyo)
MoNA Rating=3.75

>  <NUM PEAKS>  (5101) 
26

>  <MASS SPECTRAL PEAKS>  (5101) 
36 2.2
38 3.7
39 6.5
49 0.45
50 39.6
51 99.99
52 10
53 0.32
65 2.5
66 2
75 2.5
76 0.4
77 4.5
78 72.3
79 13.8
92 0.25
93 3.7
105 2.5
106 20.6
107 1.78
108 2.5
119 4.7
136 2.5
137 8.04
138 17.5
139 1.2

$$$$

     RDKit          2D

 10 10  0  0  0  0  0  0  0  0999 V2000
   -1.6700   -0.2104    0.0000 C   0  0  0  0  0  0  0  0  0  0  0  0
    4.8270    0.5402    0.0000 C   0  0  0  0  0  0  0  0  0  0  0  0
    3.5270   -0.2098    0.0000 C   0  0  0  0  0  0  0  0  0  0  0  0
    4.8270    2.0402    0.0000 C   0  0  0  0  0  0  0  0  0  0  0  0
    2.2270    2.0402    0.0000 C   0  0  0  0  0  0  0  0  0  0  0  0
    2.2270    0.5402    0.0000 C   0  0  0  0  0  0  0  0  0  0  0  0
    0.9281   -0.2100    0.0000 C   0  0  0  0  0  0  0  0  0  0  0  0
    3.5270    2.7902    0.0000 N   0  0  0  0  0  0  0  0  0  0  0  0
    0.9283   -1.7100    0.0000 O   0  0  0  0  0  0  0  0  0  0  0  0
   -0.3711    0.5398    0.0000 O   0  0  0  0  0  0  0  0  0  0  0  0
  3  2  2  0
  4  2  1  0
  6  3  1  0
  6  5  2  0
  7  6  1  0
  8  4  2  0
  8  5  1  0
  9  7  2  0
 10  1  1  0
 10  7  1  0
M  END
>  <NAME>  (5102) 
3-PYRIDINECARBOXYLIC ACID METHYL ESTER

>  <SYNONYMS>  (5102) 
NICOTINIC ACID METHYL ESTER

>  <SPECTRUM TYPE>  (5102) 
MS1

>  <INSTRUMENT TYPE>  (5102) 
EI-B

>  <INSTRUMENT>  (5102) 
JEOL JMS-01-SG

>  <ION MODE>  (5102) 
P

>  <INCHIKEY>  (5102) 
YNBADRVTZLEFNH-UHFFFAOYSA-N

>  <FORMULA>  (5102) 
C7H7NO2

>  <EXACT MASS>  (5102) 
137.047678464

>  <MW>  (5102) 
137

>  <ID>  (5102) 
JP004256

>  <CONTRIBUTOR>  (5102) 
University of Tokyo Team, {Faculty of Engineering, University of Tokyo

>  <COMMENT>  (5102) 
SMILES=COC(=O)c(c1)cncc1
cas=93-60-7
InChI=InChI=1S/C7H7NO2/c1-10-7(9)6-3-2-4-8-5-6/h2-5H,1H3
computed SMILES=O=C(OC)C=1C=NC=CC1
accession=JP004256
date=2016.01.19 (Created 2008.10.21, modified 2011.05.06)
author=KOGA M, UNIV. OF OCCUPATIONAL AND ENVIRONMENTAL HEALTH
license=CC BY-NC-SA
exact mass=137.04768
ionization energy=70 eV
ion type=[M]+*
computed spectral entropy=2.026423506014331
computed normalized entropy=0.7152385859912579
SPLASH=splash10-004i-9400000000-7c3a8027277de3a14a41
submitter=submitter = University of Tokyo Team (Faculty of Engineering, University of Tokyo)
MoNA Rating=3.75

>  <NUM PEAKS>  (5102) 
17

>  <MASS SPECTRAL PEAKS>  (5102) 
39 2.5
49 2.2
50 18.2
51 4.56
52 6.7
53 3.5
76 2.5
77 0.7
78 99.99
93 3.7
105 9.5
106 8.07
107 10.2
109 4.2
136 23.8
137 8.99
138 7.2

$$$$

     RDKit          2D

 12 11  0  0  0  0  0  0  0  0999 V2000
    0.9510    3.3481    0.0000 C   0  0  0  0  0  0  0  0  0  0  0  0
    1.7010   -0.9510    0.0000 C   0  0  0  0  0  0  0  0  0  0  0  0
    0.2010    1.6471    0.0000 C   0  0  0  0  0  0  0  0  0  0  0  0
   -0.3481   -0.4019    0.0000 C   0  0  0  0  0  0  0  0  0  0  0  0
    4.8481    7.0981    0.0000 C   0  0  0  0  0  0  0  0  0  0  0  0
    3.5490    3.3481    0.0000 C   0  0  0  0  0  0  0  0  0  0  0  0
    2.2500    1.0981    0.0000 C   0  0  0  0  0  0  0  0  0  0  0  0
    2.2500    2.5981    0.0000 C   0  0  0  0  0  0  0  0  0  0  0  0
    3.5490    4.8481    0.0000 C   0  0  0  0  0  0  0  0  0  0  0  0
    0.9510    0.3481    0.0000 C   0  0  0  0  0  0  0  0  0  0  0  0
    2.2500    5.5981    0.0000 O   0  0  0  0  0  0  0  0  0  0  0  0
    4.8481    5.5981    0.0000 O   0  0  0  0  0  0  0  0  0  0  0  0
  8  1  1  0
  8  6  1  0
  8  7  1  0
  9  6  1  0
 10  2  1  0
 10  3  1  0
 10  4  1  0
 10  7  1  0
 11  9  2  0
 12  5  1  0
 12  9  1  0
M  END
>  <NAME>  (5103) 
3,5,5-TRIMETHYLHEXANOIC ACID METHYL ESER

>  <SYNONYMS>  (5103) 


>  <SPECTRUM TYPE>  (5103) 
MS1

>  <INSTRUMENT TYPE>  (5103) 
EI-B

>  <INSTRUMENT>  (5103) 
JEOL JMS-01-SG

>  <ION MODE>  (5103) 
P

>  <INCHIKEY>  (5103) 
DCPCIGBOUDWJEZ-UHFFFAOYSA-N

>  <FORMULA>  (5103) 
C10H20O2

>  <EXACT MASS>  (5103) 
172.14632988

>  <MW>  (5103) 
172

>  <ID>  (5103) 
JP004255

>  <CONTRIBUTOR>  (5103) 
University of Tokyo Team, {Faculty of Engineering, University of Tokyo

>  <COMMENT>  (5103) 
SMILES=COC(=O)CC(C)CC(C)(C)C
InChI=InChI=1S/C10H20O2/c1-8(6-9(11)12-5)7-10(2,3)4/h8H,6-7H2,1-5H3
computed SMILES=O=C(OC)CC(C)CC(C)(C)C
accession=JP004255
license=CC BY-NC-SA
date=2016.01.19 (Created 2008.10.21, modified 2011.05.06)
author=KOGA M, UNIV. OF OCCUPATIONAL AND ENVIRONMENTAL HEALTH
exact mass=172.14633
ionization energy=70 eV
ion type=[M]+*
computed spectral entropy=2.5764305547874273
computed normalized entropy=0.736858282012935
SPLASH=splash10-0a4i-9200000000-a5b437f35e662d18648d
submitter=submitter = University of Tokyo Team (Faculty of Engineering, University of Tokyo)
MoNA Rating=3.75

>  <NUM PEAKS>  (5103) 
33

>  <MASS SPECTRAL PEAKS>  (5103) 
37 2.6
39 1.47
41 16.9
43 4.3
51 1.3
53 0.17
55 20.8
56 13.4
57 99.99
58 0.47
67 1.3
69 7.3
71 7.8
73 0.3
74 60.8
75 7.8
77 1.7
83 5.69
84 4.7
85 1.7
86 1.7
97 0.91
98 3.4
99 3.4
101 3
113 0.21
115 10.4
116 20.8
117 16
125 1.43
141 15.6
142 0.8
157 10

$$$$

     RDKit          2D

 11 10  0  0  0  0  0  0  0  0999 V2000
   -8.4437    5.6250    0.0000 C   0  0  0  0  0  0  0  0  0  0  0  0
    3.2476    4.8750    0.0000 C   0  0  0  0  0  0  0  0  0  0  0  0
   -7.1447    4.8750    0.0000 C   0  0  0  0  0  0  0  0  0  0  0  0
   -5.8457    5.6250    0.0000 C   0  0  0  0  0  0  0  0  0  0  0  0
   -4.5466    4.8750    0.0000 C   0  0  0  0  0  0  0  0  0  0  0  0
   -3.2476    5.6250    0.0000 C   0  0  0  0  0  0  0  0  0  0  0  0
   -1.9486    4.8750    0.0000 C   0  0  0  0  0  0  0  0  0  0  0  0
   -0.6495    5.6250    0.0000 C   0  0  0  0  0  0  0  0  0  0  0  0
    0.6495    4.8750    0.0000 C   0  0  0  0  0  0  0  0  0  0  0  0
    0.6495    3.3750    0.0000 O   0  0  0  0  0  0  0  0  0  0  0  0
    1.9486    5.6250    0.0000 O   0  0  0  0  0  0  0  0  0  0  0  0
  3  1  1  0
  4  3  1  0
  5  4  1  0
  6  5  1  0
  7  6  1  0
  7  8  2  0
  9  8  1  0
 10  9  2  0
 11  2  1  0
 11  9  1  0
M  END
>  <NAME>  (5104) 
2-OCTENOIC ACID METHYL ESTER

>  <SYNONYMS>  (5104) 


>  <SPECTRUM TYPE>  (5104) 
MS1

>  <INSTRUMENT TYPE>  (5104) 
EI-B

>  <INSTRUMENT>  (5104) 
JEOL JMS-01-SG

>  <ION MODE>  (5104) 
P

>  <INCHIKEY>  (5104) 
CJBQSBZJDJHMLF-BQYQJAHWSA-N

>  <FORMULA>  (5104) 
C9H16O2

>  <EXACT MASS>  (5104) 
156.115029752

>  <MW>  (5104) 
156

>  <ID>  (5104) 
JP004254

>  <CONTRIBUTOR>  (5104) 
University of Tokyo Team, {Faculty of Engineering, University of Tokyo

>  <COMMENT>  (5104) 
SMILES=CCCCCC=CC(=O)OC
InChI=InChI=1S/C9H16O2/c1-3-4-5-6-7-8-9(10)11-2/h7-8H,3-6H2,1-2H3/b8-7+
computed SMILES=O=C(OC)C=CCCCCC
accession=JP004254
date=2016.01.19 (Created 2008.10.21, modified 2011.05.06)
license=CC BY-NC-SA
author=KOGA M, UNIV. OF OCCUPATIONAL AND ENVIRONMENTAL HEALTH
exact mass=156.11503
ionization energy=70 eV
ion type=[M]+*
computed spectral entropy=3.1204749929567184
computed normalized entropy=0.7652842029986935
SPLASH=splash10-052u-9200000000-00c457555a207dbda5c5
submitter=submitter = University of Tokyo Team (Faculty of Engineering, University of Tokyo)
MoNA Rating=3.75

>  <NUM PEAKS>  (5104) 
59

>  <MASS SPECTRAL PEAKS>  (5104) 
39 18.2
40 4.5
41 51.4
42 1.98
43 4.8
50 1.6
51 2.1
52 0.16
53 12.6
54 6.1
55 76
56 1.31
57 11.7
58 1.6
59 8.5
60 0.13
65 1.8
66 1.3
67 10.9
68 2.43
69 20.6
70 12.3
71 5.3
72 0.34
74 18.4
75 3.2
77 1.8
79 0.16
80 0.5
81 17.9
82 33.2
83 1.15
84 1.3
85 5.6
87 99.99
88 0.85
91 0.5
92 0.5
93 0.5
95 0.69
96 22.7
97 4
99 2.4
100 1.93
101 22.7
102 1.6
106 0.5
109 0.13
113 38.3
114 12.3
115 2.9
124 2.84
125 41
126 3.4
127 5.6
128 0.13
141 1.8
156 3.2
157 0.5

$$$$

     RDKit          2D

 14 14  0  0  0  0  0  0  0  0999 V2000
   -6.4962    0.7508    0.0000 C   0  0  0  0  0  0  0  0  0  0  0  0
   -1.3000   -0.7500    0.0000 C   0  0  0  0  0  0  0  0  0  0  0  0
    0.0000    1.5000    0.0000 C   0  0  0  0  0  0  0  0  0  0  0  0
    0.0000   -1.5000    0.0000 C   0  0  0  0  0  0  0  0  0  0  0  0
    1.3000    0.7500    0.0000 C   0  0  0  0  0  0  0  0  0  0  0  0
   -2.5989    1.5002    0.0000 C   0  0  0  0  0  0  0  0  0  0  0  0
   -1.3000    0.7500    0.0000 C   0  0  0  0  0  0  0  0  0  0  0  0
    1.3000   -0.7500    0.0000 C   0  0  0  0  0  0  0  0  0  0  0  0
   -3.8981    0.7504    0.0000 C   0  0  0  0  0  0  0  0  0  0  0  0
    2.5989   -1.5002    0.0000 N   0  0  0  0  0  0  0  0  0  0  0  0
   -3.8983   -0.7496    0.0000 O   0  0  0  0  0  0  0  0  0  0  0  0
    3.8981   -0.7504    0.0000 O   0  0  0  0  0  0  0  0  0  0  0  0
    2.5987   -3.0002    0.0000 O   0  0  0  0  0  0  0  0  0  0  0  0
   -5.1970    1.5006    0.0000 O   0  0  0  0  0  0  0  0  0  0  0  0
  4  2  2  0
  5  3  1  0
  7  2  1  0
  7  3  2  0
  7  6  1  0
  8  4  1  0
  8  5  2  0
  9  6  1  0
 10  8  1  0
 11  9  2  0
 12 10  1  0
 13 10  2  0
 14  1  1  0
 14  9  1  0
M  CHG  2  10   1  12  -1
M  END
>  <NAME>  (5105) 
4-NITROPHENYLACETIC ACID METHYL ESTER

>  <SYNONYMS>  (5105) 


>  <SPECTRUM TYPE>  (5105) 
MS1

>  <INSTRUMENT TYPE>  (5105) 
EI-B

>  <INSTRUMENT>  (5105) 
JEOL JMS-01-SG

>  <ION MODE>  (5105) 
P

>  <INCHIKEY>  (5105) 
PQRGTRBYCFLHKY-UHFFFAOYSA-N

>  <FORMULA>  (5105) 
C9H9NO4

>  <EXACT MASS>  (5105) 
195.053157768

>  <MW>  (5105) 
195

>  <ID>  (5105) 
JP004253

>  <CONTRIBUTOR>  (5105) 
University of Tokyo Team, {Faculty of Engineering, University of Tokyo

>  <COMMENT>  (5105) 
SMILES=COC(=O)Cc(c1)ccc(c1)[N+1]([O-1])=O
InChI=InChI=1S/C9H9NO4/c1-14-9(11)6-7-2-4-8(5-3-7)10(12)13/h2-5H,6H2,1H3
computed SMILES=O=C(OC)CC1=CC=C(C=C1)N(=O)=O
accession=JP004253
date=2016.01.19 (Created 2008.10.21, modified 2011.05.06)
author=KOGA M, UNIV. OF OCCUPATIONAL AND ENVIRONMENTAL HEALTH
license=CC BY-NC-SA
exact mass=195.05316
ionization energy=70 eV
ion type=[M]+*
computed spectral entropy=2.8588195576509174
computed normalized entropy=0.7917154659318866
SPLASH=splash10-05g4-9800000000-add3cb4089ff2253f688
submitter=submitter = University of Tokyo Team (Faculty of Engineering, University of Tokyo)
MoNA Rating=3.75

>  <NUM PEAKS>  (5105) 
37

>  <MASS SPECTRAL PEAKS>  (5105) 
35 2
37 11.4
39 12.7
50 1
51 12
52 7.3
59 78.5
60 0.2
62 10
63 31.5
64 14
65 0.4
76 2
77 12
78 44.9
79 0.8
89 73.1
90 77.8
91 18.7
104 0.2
105 11.4
106 41.6
107 3.3
117 0.26
120 85.2
121 49.6
122 4
134 0.2
136 55.7
137 4
149 5.3
151 0.2
164 6
165 3.3
179 2.6
195 99.99
196 10

$$$$

     RDKit          2D

 14 14  0  0  0  0  0  0  0  0999 V2000
    5.8375    1.8749    0.0000 C   0  0  0  0  0  0  0  0  0  0  0  0
   -0.6622    4.1084    0.0000 C   0  0  0  0  0  0  0  0  0  0  0  0
    0.6368    3.3584    0.0000 C   0  0  0  0  0  0  0  0  0  0  0  0
   -1.9567    3.3662    0.0000 C   0  0  0  0  0  0  0  0  0  0  0  0
   -0.6582    1.1154    0.0000 C   0  0  0  0  0  0  0  0  0  0  0  0
    1.9416    1.1184    0.0000 C   0  0  0  0  0  0  0  0  0  0  0  0
    0.6413    1.8662    0.0000 C   0  0  0  0  0  0  0  0  0  0  0  0
   -1.9572    1.8654    0.0000 C   0  0  0  0  0  0  0  0  0  0  0  0
    3.2394    1.8706    0.0000 C   0  0  0  0  0  0  0  0  0  0  0  0
   -3.2564    1.1156    0.0000 N   0  0  0  0  0  0  0  0  0  0  0  0
    3.2369    3.3706    0.0000 O   0  0  0  0  0  0  0  0  0  0  0  0
   -4.5553    1.8658    0.0000 O   0  0  0  0  0  0  0  0  0  0  0  0
   -3.2566   -0.3844    0.0000 O   0  0  0  0  0  0  0  0  0  0  0  0
    4.5397    1.1228    0.0000 O   0  0  0  0  0  0  0  0  0  0  0  0
  3  2  2  0
  4  2  1  0
  7  3  1  0
  7  5  2  0
  7  6  1  0
  8  4  2  0
  8  5  1  0
  9  6  1  0
 10  8  1  0
 11  9  2  0
 12 10  1  0
 13 10  2  0
 14  1  1  0
 14  9  1  0
M  CHG  2  10   1  12  -1
M  END
>  <NAME>  (5106) 
3-NITROPHENYLACETIC ACID METHYL ESTER

>  <SYNONYMS>  (5106) 


>  <SPECTRUM TYPE>  (5106) 
MS1

>  <INSTRUMENT TYPE>  (5106) 
EI-B

>  <INSTRUMENT>  (5106) 
JEOL JMS-01-SG

>  <ION MODE>  (5106) 
P

>  <INCHIKEY>  (5106) 
BFGYITRIATVARH-UHFFFAOYSA-N

>  <FORMULA>  (5106) 
C9H9NO4

>  <EXACT MASS>  (5106) 
195.053157768

>  <MW>  (5106) 
195

>  <ID>  (5106) 
JP004252

>  <CONTRIBUTOR>  (5106) 
University of Tokyo Team, {Faculty of Engineering, University of Tokyo

>  <COMMENT>  (5106) 
SMILES=COC(=O)Cc(c1)cc(cc1)[N+1]([O-1])=O
InChI=InChI=1S/C9H9NO4/c1-14-9(11)6-7-3-2-4-8(5-7)10(12)13/h2-5H,6H2,1H3
computed SMILES=O=C(OC)CC=1C=CC=C(C1)N(=O)=O
accession=JP004252
date=2016.01.19 (Created 2008.10.21, modified 2011.05.06)
author=KOGA M, UNIV. OF OCCUPATIONAL AND ENVIRONMENTAL HEALTH
license=CC BY-NC-SA
exact mass=195.05316
ionization energy=70 eV
ion type=[M]+*
computed spectral entropy=2.514345767598603
computed normalized entropy=0.6912127045776226
SPLASH=splash10-0077-6900000000-01f089302f3de217abb3
submitter=submitter = University of Tokyo Team (Faculty of Engineering, University of Tokyo)
MoNA Rating=3.75

>  <NUM PEAKS>  (5106) 
38

>  <MASS SPECTRAL PEAKS>  (5106) 
35 1
37 3
38 2
39 0.9
44 5
50 5
51 8
52 0.1
53 1
60 1
62 5
63 2.12
64 6
65 10.1
71 1
75 0.1
77 7
78 11
79 3
89 5.25
90 99.99
91 18.1
104 2
105 0.7
106 11.1
117 1
120 87.8
121 3.43
122 2
134 2
136 69.6
137 0.5
149 11.1
164 3
165 4
186 0.1
195 59.5
196 4

$$$$

     RDKit          2D

 14 14  0  0  0  0  0  0  0  0999 V2000
   -1.6276    0.9782    0.0000 C   0  0  0  0  0  0  0  0  0  0  0  0
    4.8397    3.2407    0.0000 C   0  0  0  0  0  0  0  0  0  0  0  0
    6.1226    2.5130    0.0000 C   0  0  0  0  0  0  0  0  0  0  0  0
    3.5627    2.4883    0.0000 C   0  0  0  0  0  0  0  0  0  0  0  0
    6.1588    1.0134    0.0000 C   0  0  0  0  0  0  0  0  0  0  0  0
    2.2738    0.2507    0.0000 C   0  0  0  0  0  0  0  0  0  0  0  0
    3.5685    1.0082    0.0000 C   0  0  0  0  0  0  0  0  0  0  0  0
    4.8514    0.2805    0.0000 C   0  0  0  0  0  0  0  0  0  0  0  0
    0.9705    0.9932    0.0000 C   0  0  0  0  0  0  0  0  0  0  0  0
    4.8476   -1.2195    0.0000 N   0  0  0  0  0  0  0  0  0  0  0  0
    0.9618    2.4931    0.0000 O   0  0  0  0  0  0  0  0  0  0  0  0
    6.1447   -1.9728    0.0000 O   0  0  0  0  0  0  0  0  0  0  0  0
    3.5467   -1.9663    0.0000 O   0  0  0  0  0  0  0  0  0  0  0  0
   -0.3242    0.2357    0.0000 O   0  0  0  0  0  0  0  0  0  0  0  0
  3  2  2  0
  4  2  1  0
  5  3  1  0
  7  4  2  0
  7  6  1  0
  8  5  2  0
  8  7  1  0
  9  6  1  0
 10  8  1  0
 11  9  2  0
 12 10  1  0
 13 10  2  0
 14  1  1  0
 14  9  1  0
M  CHG  2  10   1  12  -1
M  END
>  <NAME>  (5107) 
2-NITROPHENYLACETIC ACID METHYL ESTER

>  <SYNONYMS>  (5107) 


>  <SPECTRUM TYPE>  (5107) 
MS1

>  <INSTRUMENT TYPE>  (5107) 
EI-B

>  <INSTRUMENT>  (5107) 
JEOL JMS-01-SG

>  <ION MODE>  (5107) 
P

>  <INCHIKEY>  (5107) 
SWMFAAPTSMVULA-UHFFFAOYSA-N

>  <FORMULA>  (5107) 
C9H9NO4

>  <EXACT MASS>  (5107) 
195.05315776799998

>  <MW>  (5107) 
195

>  <ID>  (5107) 
JP004251

>  <CONTRIBUTOR>  (5107) 
University of Tokyo Team, {Faculty of Engineering, University of Tokyo

>  <COMMENT>  (5107) 
SMILES=COC(=O)Cc(c1)c(ccc1)[N+1]([O-1])=O
InChI=InChI=1S/C9H9NO4/c1-14-9(11)6-7-4-2-3-5-8(7)10(12)13/h2-5H,6H2,1H3
computed SMILES=O=C(OC)CC=1C=CC=CC1N(=O)=O
accession=JP004251
date=2016.01.19 (Created 2008.10.21, modified 2011.05.06)
author=KOGA M, UNIV. OF OCCUPATIONAL AND ENVIRONMENTAL HEALTH
license=CC BY-NC-SA
exact mass=195.05316
ionization energy=70 eV
ion type=[M]+*
computed spectral entropy=2.7744066886669025
computed normalized entropy=0.7572976673117845
SPLASH=splash10-002b-9500000000-434fbdf6676cdf7010b1
submitter=submitter = University of Tokyo Team (Faculty of Engineering, University of Tokyo)
MoNA Rating=3.75

>  <NUM PEAKS>  (5107) 
39

>  <MASS SPECTRAL PEAKS>  (5107) 
37 4.1
38 0.12
39 10.8
50 6.6
51 13.8
52 0.66
53 3.3
55 1.2
62 5.4
63 1.88
64 8.7
65 41
66 4.1
76 0.46
77 20.5
78 57.3
79 10.4
80 0.2
89 23.4
90 11.2
91 22.1
92 3.51
93 4.6
104 2
105 11.2
106 0.62
107 1.2
108 3.3
119 2
120 0.46
121 14.2
133 3.3
135 4.6
136 2.63
137 2
149 99.99
150 1
164 1.79
165 1.6

$$$$

     RDKit          2D

 15 15  0  0  0  0  0  0  0  0999 V2000
    7.7951    1.5010    0.0000 C   0  0  0  0  0  0  0  0  0  0  0  0
   -1.3000    0.7500    0.0000 C   0  0  0  0  0  0  0  0  0  0  0  0
   -0.0000   -1.5000    0.0000 C   0  0  0  0  0  0  0  0  0  0  0  0
    0.0000    1.5000    0.0000 C   0  0  0  0  0  0  0  0  0  0  0  0
    1.3000   -0.7500    0.0000 C   0  0  0  0  0  0  0  0  0  0  0  0
    3.8981    0.7504    0.0000 C   0  0  0  0  0  0  0  0  0  0  0  0
   -1.3000   -0.7500    0.0000 C   0  0  0  0  0  0  0  0  0  0  0  0
    1.3000    0.7500    0.0000 C   0  0  0  0  0  0  0  0  0  0  0  0
    5.1970    1.5006    0.0000 C   0  0  0  0  0  0  0  0  0  0  0  0
   -2.5989   -1.5002    0.0000 N   0  0  0  0  0  0  0  0  0  0  0  0
    5.1968    3.0006    0.0000 O   0  0  0  0  0  0  0  0  0  0  0  0
   -3.8981   -0.7504    0.0000 O   0  0  0  0  0  0  0  0  0  0  0  0
   -2.5987   -3.0002    0.0000 O   0  0  0  0  0  0  0  0  0  0  0  0
    6.4962    0.7508    0.0000 O   0  0  0  0  0  0  0  0  0  0  0  0
    2.5989    1.5002    0.0000 O   0  0  0  0  0  0  0  0  0  0  0  0
  4  2  2  0
  5  3  1  0
  7  2  1  0
  7  3  2  0
  8  4  1  0
  8  5  2  0
  9  6  1  0
 10  7  1  0
 11  9  2  0
 12 10  1  0
 13 10  2  0
 14  1  1  0
 14  9  1  0
 15  6  1  0
 15  8  1  0
M  CHG  2  10   1  12  -1
M  END
>  <NAME>  (5108) 
4-NITROPHENOXYACETIC ACID METHYL ESTER

>  <SYNONYMS>  (5108) 


>  <SPECTRUM TYPE>  (5108) 
MS1

>  <INSTRUMENT TYPE>  (5108) 
EI-B

>  <INSTRUMENT>  (5108) 
JEOL JMS-01-SG

>  <ION MODE>  (5108) 
P

>  <INCHIKEY>  (5108) 
ZZVXTAUUUUCLAG-UHFFFAOYSA-N

>  <FORMULA>  (5108) 
C9H9NO5

>  <EXACT MASS>  (5108) 
211.04807238799998

>  <MW>  (5108) 
211

>  <ID>  (5108) 
JP004250

>  <CONTRIBUTOR>  (5108) 
University of Tokyo Team, {Faculty of Engineering, University of Tokyo

>  <COMMENT>  (5108) 
SMILES=COC(=O)COc(c1)ccc(c1)[N+1]([O-1])=O
InChI=InChI=1S/C9H9NO5/c1-14-9(11)6-15-8-4-2-7(3-5-8)10(12)13/h2-5H,6H2,1H3
computed SMILES=O=C(OC)COC1=CC=C(C=C1)N(=O)=O
accession=JP004250
date=2016.01.19 (Created 2008.10.21, modified 2011.05.06)
author=KOGA M, UNIV. OF OCCUPATIONAL AND ENVIRONMENTAL HEALTH
license=CC BY-NC-SA
exact mass=211.04807
ionization energy=70 eV
ion type=[M]+*
computed spectral entropy=2.787044965895835
computed normalized entropy=0.7279462026533968
SPLASH=splash10-0ik9-9860000000-712db30f0a4b09eec5b6
submitter=submitter = University of Tokyo Team (Faculty of Engineering, University of Tokyo)
MoNA Rating=3.75

>  <NUM PEAKS>  (5108) 
46

>  <MASS SPECTRAL PEAKS>  (5108) 
35 0.9
37 1.2
38 1.9
39 0.21
40 0.9
42 3.6
44 1.4
45 11.9
50 14.3
51 0.38
52 1.9
53 0.9
59 2.6
62 0.17
63 8.7
64 11.9
65 3.4
66 0.21
73 14.3
75 17.2
76 20.4
77 0.63
78 9.4
79 3.8
80 1.4
91 0.12
92 18.2
93 2.1
94 3.8
105 0.19
106 13.8
107 5.1
108 6.5
109 0.17
115 1.9
122 25.5
123 2.9
136 0.41
137 1.9
152 83.2
153 6.5
181 0.97
195 4.1
211 99.99
212 10.4
213 1.2

$$$$

     RDKit          2D

 17 17  0  0  0  0  0  0  0  0999 V2000
   -3.2482    0.3752    0.0000 C   0  0  0  0  0  0  0  0  0  0  0  0
    3.2477    4.1256    0.0000 C   0  0  0  0  0  0  0  0  0  0  0  0
    1.9490   -2.6258    0.0000 C   0  0  0  0  0  0  0  0  0  0  0  0
    0.6495   -1.8750    0.0000 C   0  0  0  0  0  0  0  0  0  0  0  0
    3.2481   -1.8758    0.0000 C   0  0  0  0  0  0  0  0  0  0  0  0
    0.6490   -0.3742    0.0000 C   0  0  0  0  0  0  0  0  0  0  0  0
    3.2476   -0.3750    0.0000 C   0  0  0  0  0  0  0  0  0  0  0  0
    1.9481    0.3758    0.0000 C   0  0  0  0  0  0  0  0  0  0  0  0
   -0.6501    0.3756    0.0000 C   0  0  0  0  0  0  0  0  0  0  0  0
    1.9483    1.8758    0.0000 C   0  0  0  0  0  0  0  0  0  0  0  0
    4.5466    0.3750    0.0000 N   0  0  0  0  0  0  0  0  0  0  0  0
   -0.6504    1.8756    0.0000 O   0  0  0  0  0  0  0  0  0  0  0  0
    0.6494    2.6260    0.0000 O   0  0  0  0  0  0  0  0  0  0  0  0
    5.8457   -0.3750    0.0000 O   0  0  0  0  0  0  0  0  0  0  0  0
    4.5466    1.8750    0.0000 O   0  0  0  0  0  0  0  0  0  0  0  0
   -1.9490   -0.3746    0.0000 O   0  0  0  0  0  0  0  0  0  0  0  0
    3.2475    2.6256    0.0000 O   0  0  0  0  0  0  0  0  0  0  0  0
  4  3  2  0
  5  3  1  0
  6  4  1  0
  7  5  2  0
  8  6  2  0
  8  7  1  0
  9  6  1  0
 10  8  1  0
 11  7  1  0
 12  9  2  0
 13 10  2  0
 14 11  1  0
 15 11  2  0
 16  1  1  0
 16  9  1  0
 17  2  1  0
 17 10  1  0
M  CHG  2  11   1  14  -1
M  END
>  <NAME>  (5109) 
3-NITROPHTHALIC ACID DIMETHYL ESTER

>  <SYNONYMS>  (5109) 


>  <SPECTRUM TYPE>  (5109) 
MS1

>  <INSTRUMENT TYPE>  (5109) 
EI-B

>  <INSTRUMENT>  (5109) 
JEOL JMS-01-SG

>  <ION MODE>  (5109) 
P

>  <INCHIKEY>  (5109) 
MLQMIKSBTAZNBK-UHFFFAOYSA-N

>  <FORMULA>  (5109) 
C10H9NO6

>  <EXACT MASS>  (5109) 
239.04298700799998

>  <MW>  (5109) 
239

>  <ID>  (5109) 
JP004249

>  <CONTRIBUTOR>  (5109) 
University of Tokyo Team, {Faculty of Engineering, University of Tokyo

>  <COMMENT>  (5109) 
SMILES=COC(=O)c(c1)c(C(=O)OC)c(cc1)[N+1]([O-1])=O
InChI=InChI=1S/C10H9NO6/c1-16-9(12)6-4-3-5-7(11(14)15)8(6)10(13)17-2/h3-5H,1-2H3
computed SMILES=O=C(OC)C1=CC=CC(=C1C(=O)OC)N(=O)=O
accession=JP004249
date=2016.01.19 (Created 2008.10.21, modified 2011.05.06)
author=KOGA M, UNIV. OF OCCUPATIONAL AND ENVIRONMENTAL HEALTH
license=CC BY-NC-SA
exact mass=239.04299
ionization energy=70 eV
ion type=[M]+*
computed spectral entropy=1.8183475201316133
computed normalized entropy=0.5882635219571437
SPLASH=splash10-0a4i-2290000000-81c23f566fe6f622d399
submitter=submitter = University of Tokyo Team (Faculty of Engineering, University of Tokyo)
MoNA Rating=3.75

>  <NUM PEAKS>  (5109) 
22

>  <MASS SPECTRAL PEAKS>  (5109) 
39 1.3
40 1.6
50 1.3
63 0.3
75 11.3
76 10
77 3.6
78 0.23
91 2.3
92 1.6
103 2.3
104 2.73
105 5.6
119 5.3
120 5
132 0.73
135 1.6
150 1.3
177 2.3
208 99.99
209 15
210 1.6

$$$$

     RDKit          2D

  9  9  0  0  0  0  0  0  0  0999 V2000
    4.1942    0.7260    0.0000 C   0  0  0  0  0  0  0  0  0  0  0  0
   -1.6821   -1.7958    0.0000 C   0  0  0  0  0  0  0  0  0  0  0  0
   -0.9321   -0.4967    0.0000 C   0  0  0  0  0  0  0  0  0  0  0  0
   -0.6737   -2.9092    0.0000 C   0  0  0  0  0  0  0  0  0  0  0  0
    0.5363   -0.8134    0.0000 C   0  0  0  0  0  0  0  0  0  0  0  0
    1.6522    0.1890    0.0000 C   0  0  0  0  0  0  0  0  0  0  0  0
    1.3422    1.6566    0.0000 O   0  0  0  0  0  0  0  0  0  0  0  0
    3.0783   -0.2763    0.0000 O   0  0  0  0  0  0  0  0  0  0  0  0
    0.6934   -2.3013    0.0000 S   0  0  0  0  0  0  0  0  0  0  0  0
  3  2  1  0
  4  2  2  0
  5  3  2  0
  6  5  1  0
  7  6  2  0
  8  1  1  0
  8  6  1  0
  9  4  1  0
  9  5  1  0
M  END
>  <NAME>  (5110) 
2-THIOPHENECARBOXYLIC ACID METHYL ESTER

>  <SYNONYMS>  (5110) 


>  <SPECTRUM TYPE>  (5110) 
MS1

>  <INSTRUMENT TYPE>  (5110) 
EI-B

>  <INSTRUMENT>  (5110) 
JEOL JMS-01-SG

>  <ION MODE>  (5110) 
P

>  <INCHIKEY>  (5110) 
PGBFYLVIMDQYMS-UHFFFAOYSA-N

>  <FORMULA>  (5110) 
C6H6O2S

>  <EXACT MASS>  (5110) 
142.008850432

>  <MW>  (5110) 
142

>  <ID>  (5110) 
JP004248

>  <CONTRIBUTOR>  (5110) 
University of Tokyo Team, {Faculty of Engineering, University of Tokyo

>  <COMMENT>  (5110) 
SMILES=COC(=O)c(c1)scc1
cas=5380-42-7
InChI=InChI=1S/C6H6O2S/c1-8-6(7)5-3-2-4-9-5/h2-4H,1H3
computed SMILES=O=C(OC)C=1SC=CC1
accession=JP004248
date=2016.01.19 (Created 2008.10.21, modified 2011.05.06)
author=KOGA M, UNIV. OF OCCUPATIONAL AND ENVIRONMENTAL HEALTH
license=CC BY-NC-SA
exact mass=142.00885
ionization energy=70 eV
ion type=[M]+*
computed spectral entropy=1.3830963078293261
computed normalized entropy=0.5240872535463125
SPLASH=splash10-03di-2900000000-23886da092ff1745f6b5
submitter=submitter = University of Tokyo Team (Faculty of Engineering, University of Tokyo)
MoNA Rating=3.75

>  <NUM PEAKS>  (5110) 
14

>  <MASS SPECTRAL PEAKS>  (5110) 
38 1.3
39 22.3
57 1.3
81 0.08
82 1.7
83 8.7
97 0.8
111 99.99
112 7
113 4.3
141 2.1
142 3.72
143 2.6
144 1.7

$$$$

     RDKit          2D

 11 10  0  0  0  0  0  0  0  0999 V2000
    2.5981    4.5000    0.0000 C   0  0  0  0  0  0  0  0  0  0  0  0
   -7.7942    4.5000    0.0000 C   0  0  0  0  0  0  0  0  0  0  0  0
   -1.2990    5.2500    0.0000 C   0  0  0  0  0  0  0  0  0  0  0  0
   -3.8971    5.2500    0.0000 C   0  0  0  0  0  0  0  0  0  0  0  0
    0.0000    4.5000    0.0000 C   0  0  0  0  0  0  0  0  0  0  0  0
   -5.1962    4.5000    0.0000 C   0  0  0  0  0  0  0  0  0  0  0  0
    0.0000    3.0000    0.0000 O   0  0  0  0  0  0  0  0  0  0  0  0
   -5.1962    3.0000    0.0000 O   0  0  0  0  0  0  0  0  0  0  0  0
    1.2990    5.2500    0.0000 O   0  0  0  0  0  0  0  0  0  0  0  0
   -6.4952    5.2500    0.0000 O   0  0  0  0  0  0  0  0  0  0  0  0
   -2.5981    4.5000    0.0000 S   0  0  0  0  0  0  0  0  0  0  0  0
  5  3  1  0
  6  4  1  0
  7  5  2  0
  8  6  2  0
  9  1  1  0
  9  5  1  0
 10  2  1  0
 10  6  1  0
 11  3  1  0
 11  4  1  0
M  END
>  <NAME>  (5111) 
2,2'-THIOBIS(ACETIC ACID) DIMETHYL ESTER

>  <SYNONYMS>  (5111) 


>  <SPECTRUM TYPE>  (5111) 
MS1

>  <INSTRUMENT TYPE>  (5111) 
EI-B

>  <INSTRUMENT>  (5111) 
JEOL JMS-01-SG

>  <ION MODE>  (5111) 
P

>  <INCHIKEY>  (5111) 
ZQUQLLPRRJVUES-UHFFFAOYSA-N

>  <FORMULA>  (5111) 
C6H10O4S

>  <EXACT MASS>  (5111) 
178.02997979999998

>  <MW>  (5111) 
178

>  <ID>  (5111) 
JP004247

>  <CONTRIBUTOR>  (5111) 
University of Tokyo Team, {Faculty of Engineering, University of Tokyo

>  <COMMENT>  (5111) 
SMILES=COC(=O)CSCC(=O)OC
cas=16002-29-2
InChI=InChI=1S/C6H10O4S/c1-9-5(7)3-11-4-6(8)10-2/h3-4H2,1-2H3
computed SMILES=O=C(OC)CSCC(=O)OC
accession=JP004247
date=2016.01.19 (Created 2008.10.21, modified 2011.05.06)
author=KOGA M, UNIV. OF OCCUPATIONAL AND ENVIRONMENTAL HEALTH
license=CC BY-NC-SA
exact mass=178.02998
ionization energy=70 eV
ion type=[M]+*
computed spectral entropy=2.5530006876323728
computed normalized entropy=0.7835865689795407
SPLASH=splash10-00kb-6900000000-b1a848d49aa385b28ea7
submitter=submitter = University of Tokyo Team (Faculty of Engineering, University of Tokyo)
MoNA Rating=3.75

>  <NUM PEAKS>  (5111) 
26

>  <MASS SPECTRAL PEAKS>  (5111) 
42 14.2
43 24.4
44 4.1
45 8.8
46 13.6
47 2.3
59 8.3
60 0.41
61 22
74 26.7
77 4.7
87 0.71
91 23.1
101 4.1
104 4.1
105 0.41
118 30.9
119 54.1
120 3.5
121 0.29
146 99.99
147 13.6
148 5.3
178 4.52
179 2.9
180 2.3

$$$$

     RDKit          2D

 12 12  0  0  0  0  0  0  0  0999 V2000
    7.4251    1.2910    0.0000 C   0  0  0  0  0  0  0  0  0  0  0  0
   -1.6700   -0.9600    0.0000 C   0  0  0  0  0  0  0  0  0  0  0  0
   -0.3700   -1.7100    0.0000 C   0  0  0  0  0  0  0  0  0  0  0  0
   -1.6700    0.5400    0.0000 C   0  0  0  0  0  0  0  0  0  0  0  0
    0.9300   -0.9600    0.0000 C   0  0  0  0  0  0  0  0  0  0  0  0
   -0.3700    1.2900    0.0000 C   0  0  0  0  0  0  0  0  0  0  0  0
    3.5281    0.5404    0.0000 C   0  0  0  0  0  0  0  0  0  0  0  0
    0.9300    0.5400    0.0000 C   0  0  0  0  0  0  0  0  0  0  0  0
    4.8270    1.2906    0.0000 C   0  0  0  0  0  0  0  0  0  0  0  0
    4.8268    2.7906    0.0000 O   0  0  0  0  0  0  0  0  0  0  0  0
    6.1262    0.5408    0.0000 O   0  0  0  0  0  0  0  0  0  0  0  0
    2.2289    1.2902    0.0000 S   0  0  0  0  0  0  0  0  0  0  0  0
  3  2  2  0
  4  2  1  0
  5  3  1  0
  6  4  2  0
  8  5  2  0
  8  6  1  0
  9  7  1  0
 10  9  2  0
 11  1  1  0
 11  9  1  0
 12  7  1  0
 12  8  1  0
M  END
>  <NAME>  (5112) 
(PHENYLTHIO)ACETIC ACID METHYL ESTER

>  <SYNONYMS>  (5112) 


>  <SPECTRUM TYPE>  (5112) 
MS1

>  <INSTRUMENT TYPE>  (5112) 
EI-B

>  <INSTRUMENT>  (5112) 
JEOL JMS-01-SG

>  <ION MODE>  (5112) 
P

>  <INCHIKEY>  (5112) 
MUNSXQQODXYRKI-UHFFFAOYSA-N

>  <FORMULA>  (5112) 
C9H10O2S

>  <EXACT MASS>  (5112) 
182.04015056

>  <MW>  (5112) 
182

>  <ID>  (5112) 
JP004246

>  <CONTRIBUTOR>  (5112) 
University of Tokyo Team, {Faculty of Engineering, University of Tokyo

>  <COMMENT>  (5112) 
SMILES=COC(=O)CSc(c1)cccc1
cas=17277-58-6
InChI=InChI=1S/C9H10O2S/c1-11-9(10)7-12-8-5-3-2-4-6-8/h2-6H,7H2,1H3
computed SMILES=O=C(OC)CSC=1C=CC=CC1
accession=JP004246
date=2016.01.19 (Created 2008.10.21, modified 2011.05.06)
author=KOGA M, UNIV. OF OCCUPATIONAL AND ENVIRONMENTAL HEALTH
license=CC BY-NC-SA
exact mass=182.04015
ionization energy=70 eV
ion type=[M]+*
computed spectral entropy=2.6763834496159737
computed normalized entropy=0.7589647827932436
SPLASH=splash10-0002-9400000000-fc3b570edb7a201b7420
submitter=submitter = University of Tokyo Team (Faculty of Engineering, University of Tokyo)
MoNA Rating=3.75

>  <NUM PEAKS>  (5112) 
34

>  <MASS SPECTRAL PEAKS>  (5112) 
38 1.2
39 12.6
42 3.6
43 0.16
44 2.8
45 99.99
46 2.8
47 0.36
50 6.9
51 20.7
52 1.6
58 0.12
61 1.6
63 2.8
65 20.7
66 0.24
69 8.9
77 22.3
78 4.8
79 1.26
82 2
83 1.2
91 3.2
108 0.36
109 24.7
110 4.4
121 6.5
123 7.92
124 20.3
125 11.7
151 1.2
182 4.22
183 14.6
184 7.7

$$$$

     RDKit          2D

 15 15  0  0  0  0  0  0  0  0999 V2000
   -5.8457    2.6250    0.0000 C   0  0  0  0  0  0  0  0  0  0  0  0
    3.2481    1.8758    0.0000 C   0  0  0  0  0  0  0  0  0  0  0  0
    0.6490    0.3742    0.0000 C   0  0  0  0  0  0  0  0  0  0  0  0
   -1.9486    1.8750    0.0000 C   0  0  0  0  0  0  0  0  0  0  0  0
    3.2476    0.3750    0.0000 C   0  0  0  0  0  0  0  0  0  0  0  0
    1.9481   -0.3758    0.0000 C   0  0  0  0  0  0  0  0  0  0  0  0
    1.9490    2.6258    0.0000 C   0  0  0  0  0  0  0  0  0  0  0  0
    0.6495    1.8750    0.0000 C   0  0  0  0  0  0  0  0  0  0  0  0
   -3.2476    2.6250    0.0000 C   0  0  0  0  0  0  0  0  0  0  0  0
    4.5466   -0.3750    0.0000 Cl  0  0  0  0  0  0  0  0  0  0  0  0
    1.9483   -1.8758    0.0000 Cl  0  0  0  0  0  0  0  0  0  0  0  0
    1.9488    4.1258    0.0000 Cl  0  0  0  0  0  0  0  0  0  0  0  0
   -3.2476    4.1250    0.0000 O   0  0  0  0  0  0  0  0  0  0  0  0
   -4.5466    1.8750    0.0000 O   0  0  0  0  0  0  0  0  0  0  0  0
   -0.6495    2.6250    0.0000 O   0  0  0  0  0  0  0  0  0  0  0  0
  5  2  2  0
  6  3  2  0
  6  5  1  0
  7  2  1  0
  8  3  1  0
  8  7  2  0
  9  4  1  0
 10  5  1  0
 11  6  1  0
 12  7  1  0
 13  9  2  0
 14  1  1  0
 14  9  1  0
 15  4  1  0
 15  8  1  0
M  END
>  <NAME>  (5113) 
(2,4,5-TRICHLOROPHENOXY)ACETIC ACID METHYLESTER

>  <SYNONYMS>  (5113) 


>  <SPECTRUM TYPE>  (5113) 
MS1

>  <INSTRUMENT TYPE>  (5113) 
EI-B

>  <INSTRUMENT>  (5113) 
JEOL JMS-01-SG

>  <ION MODE>  (5113) 
P

>  <INCHIKEY>  (5113) 
JUCNGUOYQGHBJC-UHFFFAOYSA-N

>  <FORMULA>  (5113) 
C9H7Cl3O3

>  <EXACT MASS>  (5113) 
267.946077124

>  <MW>  (5113) 
268

>  <ID>  (5113) 
JP004245

>  <CONTRIBUTOR>  (5113) 
University of Tokyo Team, {Faculty of Engineering, University of Tokyo

>  <COMMENT>  (5113) 
SMILES=COC(=O)COc(c1)c(Cl)cc(Cl)c(Cl)1
InChI=InChI=1S/C9H7Cl3O3/c1-14-9(13)4-15-8-3-6(11)5(10)2-7(8)12/h2-3H,4H2,1H3
computed SMILES=O=C(OC)COC1=CC(Cl)=C(Cl)C=C1Cl
accession=JP004245
date=2016.01.19 (Created 2008.10.21, modified 2011.05.06)
author=KOGA M, UNIV. OF OCCUPATIONAL AND ENVIRONMENTAL HEALTH
license=CC BY-NC-SA
exact mass=267.94608
ionization energy=70 eV
ion type=[M]+*
computed spectral entropy=3.360968469547412
computed normalized entropy=0.7784545970167257
SPLASH=splash10-05oa-2490000000-d8c5d05842f927494ddc
submitter=submitter = University of Tokyo Team (Faculty of Engineering, University of Tokyo)
MoNA Rating=3.75

>  <NUM PEAKS>  (5113) 
75

>  <MASS SPECTRAL PEAKS>  (5113) 
42 9.4
43 7.2
45 47.1
50 0.07
57 2.1
59 20.2
60 0.7
61 0.28
62 6.5
63 1.4
72 1.4
73 5.79
74 13
75 2.1
83 1.4
84 0.28
85 2.1
92 0.7
96 0.7
97 1.3
99 2.8
105 0.7
106 0.7
107 0.43
108 5
109 15.2
110 2.1
111 0.5
131 0.7
132 0.7
134 0.7
141 0.14
143 12.3
144 7.2
145 20.2
146 1.52
147 10.8
148 7.9
149 0.7
160 0.07
167 13.7
169 15.2
171 3.6
173 0.07
175 0.7
179 19.5
180 0.7
181 2.6
182 0.7
183 11.5
185 1.4
186 0.21
195 14.4
196 5.7
197 13.7
198 0.57
199 3.6
200 0.7
209 47.8
210 0.57
211 44.9
212 3.6
213 13.7
232 0.07
233 99.99
234 10.8
235 63.7
236 0.43
237 10.8
268 54.3
269 3.9
270 5.65
271 4.3
272 16.6
274 0.7

$$$$

     RDKit          2D

 16 16  0  0  0  0  0  0  0  0999 V2000
   -1.9486    0.3750    0.0000 C   0  0  0  0  0  0  0  0  0  0  0  0
   -5.8457    2.6250    0.0000 C   0  0  0  0  0  0  0  0  0  0  0  0
    3.2481    1.8758    0.0000 C   0  0  0  0  0  0  0  0  0  0  0  0
    0.6490    0.3742    0.0000 C   0  0  0  0  0  0  0  0  0  0  0  0
   -1.9486    1.8750    0.0000 C   0  0  0  0  0  0  0  0  0  0  0  0
    3.2476    0.3750    0.0000 C   0  0  0  0  0  0  0  0  0  0  0  0
    1.9481   -0.3758    0.0000 C   0  0  0  0  0  0  0  0  0  0  0  0
    1.9490    2.6258    0.0000 C   0  0  0  0  0  0  0  0  0  0  0  0
    0.6495    1.8750    0.0000 C   0  0  0  0  0  0  0  0  0  0  0  0
   -3.2476    2.6250    0.0000 C   0  0  0  0  0  0  0  0  0  0  0  0
    4.5466   -0.3750    0.0000 Cl  0  0  0  0  0  0  0  0  0  0  0  0
    1.9483   -1.8758    0.0000 Cl  0  0  0  0  0  0  0  0  0  0  0  0
    1.9488    4.1258    0.0000 Cl  0  0  0  0  0  0  0  0  0  0  0  0
   -3.2476    4.1250    0.0000 O   0  0  0  0  0  0  0  0  0  0  0  0
   -4.5466    1.8750    0.0000 O   0  0  0  0  0  0  0  0  0  0  0  0
   -0.6495    2.6250    0.0000 O   0  0  0  0  0  0  0  0  0  0  0  0
  5  1  1  0
  6  3  2  0
  7  4  2  0
  7  6  1  0
  8  3  1  0
  9  4  1  0
  9  8  2  0
 10  5  1  0
 11  6  1  0
 12  7  1  0
 13  8  1  0
 14 10  2  0
 15  2  1  0
 15 10  1  0
 16  5  1  0
 16  9  1  0
M  END
>  <NAME>  (5114) 
2-(2,4,5-TRICHLOROPHENOXY)PROPIONIC ACID METHYL ESTER

>  <SYNONYMS>  (5114) 


>  <SPECTRUM TYPE>  (5114) 
MS1

>  <INSTRUMENT TYPE>  (5114) 
EI-B

>  <INSTRUMENT>  (5114) 
JEOL JMS-01-SG

>  <ION MODE>  (5114) 
P

>  <INCHIKEY>  (5114) 
YTAXYXOJOYIQQO-UHFFFAOYSA-N

>  <FORMULA>  (5114) 
C10H9Cl3O3

>  <EXACT MASS>  (5114) 
281.96172718799994

>  <MW>  (5114) 
282

>  <ID>  (5114) 
JP004244

>  <CONTRIBUTOR>  (5114) 
University of Tokyo Team, {Faculty of Engineering, University of Tokyo

>  <COMMENT>  (5114) 
SMILES=COC(=O)C(C)Oc(c1)c(Cl)cc(Cl)c(Cl)1
InChI=InChI=1S/C10H9Cl3O3/c1-5(10(14)15-2)16-9-4-7(12)6(11)3-8(9)13/h3-5H,1-2H3
computed SMILES=O=C(OC)C(OC1=CC(Cl)=C(Cl)C=C1Cl)C
accession=JP004244
date=2016.01.19 (Created 2008.10.21, modified 2011.05.06)
author=KOGA M, UNIV. OF OCCUPATIONAL AND ENVIRONMENTAL HEALTH
license=CC BY-NC-SA
exact mass=281.96173
ionization energy=70 eV
ion type=[M]+*
computed spectral entropy=3.0814462302235097
computed normalized entropy=0.7228894308531354
SPLASH=splash10-0002-3940000000-6b385e3b6ca903ad8e0b
submitter=submitter = University of Tokyo Team (Faculty of Engineering, University of Tokyo)
MoNA Rating=3.75

>  <NUM PEAKS>  (5114) 
71

>  <MASS SPECTRAL PEAKS>  (5114) 
41 3.5
43 6.3
45 3.3
55 2.19
56 3.5
57 1.2
59 34.1
61 0.22
62 4.5
63 1
72 1.2
73 0.22
74 1.7
83 2
84 1.5
85 0.12
87 27.8
88 1
96 1
97 1.04
99 4
107 3
108 2.5
109 0.61
110 1
111 1.7
125 1
132 0.45
133 3.3
134 2.8
135 1.7
143 0.61
144 3.5
145 4
146 2
159 0.45
160 3.3
161 4.3
162 2.8
163 0.12
164 1
167 7.3
169 7.1
171 0.2
179 5.1
181 4.8
183 1.2
187 0.2
188 7.3
189 2.2
190 4.5
195 0.61
196 99.99
197 12.5
198 95.9
199 0.84
200 30.3
201 1.7
202 2.8
223 3.67
224 3.5
225 36.4
226 2.8
227 1.14
247 1.7
282 30.8
283 3.5
284 3.01
285 3
286 10.2
288 1

$$$$

     RDKit          2D

 12 12  0  0  0  0  0  0  0  0999 V2000
   -3.2564    0.7477    0.0000 C   0  0  0  0  0  0  0  0  0  0  0  0
    3.2402    3.0053    0.0000 C   0  0  0  0  0  0  0  0  0  0  0  0
    1.9456   -2.2379    0.0000 C   0  0  0  0  0  0  0  0  0  0  0  0
    3.2401   -1.4957    0.0000 C   0  0  0  0  0  0  0  0  0  0  0  0
    0.6465   -1.4879    0.0000 C   0  0  0  0  0  0  0  0  0  0  0  0
    3.2406    0.0051    0.0000 C   0  0  0  0  0  0  0  0  0  0  0  0
    0.6420    0.0043    0.0000 C   0  0  0  0  0  0  0  0  0  0  0  0
    1.9415    0.7551    0.0000 C   0  0  0  0  0  0  0  0  0  0  0  0
   -0.6583    0.7521    0.0000 C   0  0  0  0  0  0  0  0  0  0  0  0
   -0.6608    2.2521    0.0000 O   0  0  0  0  0  0  0  0  0  0  0  0
   -1.9561   -0.0001    0.0000 O   0  0  0  0  0  0  0  0  0  0  0  0
    1.9413    2.2551    0.0000 S   0  0  0  0  0  0  0  0  0  0  0  0
  4  3  2  0
  5  3  1  0
  6  4  1  0
  7  5  2  0
  8  6  2  0
  8  7  1  0
  9  7  1  0
 10  9  2  0
 11  1  1  0
 11  9  1  0
 12  2  1  0
 12  8  1  0
M  END
>  <NAME>  (5115) 
2-METHYLTHIOBENZOIC ACID METHYL ESTER

>  <SYNONYMS>  (5115) 


>  <SPECTRUM TYPE>  (5115) 
MS1

>  <INSTRUMENT TYPE>  (5115) 
EI-B

>  <INSTRUMENT>  (5115) 
JEOL JMS-01-SG

>  <ION MODE>  (5115) 
P

>  <INCHIKEY>  (5115) 
CPQDZXPLQXZJGF-UHFFFAOYSA-N

>  <FORMULA>  (5115) 
C9H10O2S

>  <EXACT MASS>  (5115) 
182.04015056

>  <MW>  (5115) 
182

>  <ID>  (5115) 
JP004243

>  <CONTRIBUTOR>  (5115) 
University of Tokyo Team, {Faculty of Engineering, University of Tokyo

>  <COMMENT>  (5115) 
SMILES=COC(=O)c(c1)c(SC)ccc1
InChI=InChI=1S/C9H10O2S/c1-11-9(10)7-5-3-4-6-8(7)12-2/h3-6H,1-2H3
computed SMILES=O=C(OC)C=1C=CC=CC1SC
accession=JP004243
date=2016.01.19 (Created 2008.10.21, modified 2011.05.06)
author=KOGA M, UNIV. OF OCCUPATIONAL AND ENVIRONMENTAL HEALTH
license=CC BY-NC-SA
exact mass=182.04015
ionization energy=70 eV
ion type=[M]+*
computed spectral entropy=2.85848624196305
computed normalized entropy=0.797675773745059
SPLASH=splash10-0ul0-3900000000-cf860aa1ddf201afa811
submitter=submitter = University of Tokyo Team (Faculty of Engineering, University of Tokyo)
MoNA Rating=3.75

>  <NUM PEAKS>  (5115) 
36

>  <MASS SPECTRAL PEAKS>  (5115) 
39 7.5
45 50.6
50 13.9
51 1.26
58 1.2
59 11.3
63 11.3
69 1.89
74 7.5
75 7.5
76 11.3
77 3.03
78 8.8
79 11.3
82 10.2
91 1.01
92 1.2
96 2.5
105 17.7
108 2.65
109 6.3
121 35.4
122 37.9
123 1.13
136 8.8
137 10.1
149 8.8
150 3.03
151 97.4
152 26.5
153 2.5
165 0.37
167 31.6
182 99.99
183 8.8
184 1.2

$$$$

     RDKit          2D

 12 12  0  0  0  0  0  0  0  0999 V2000
   -3.2519   -0.3839    0.0000 C   0  0  0  0  0  0  0  0  0  0  0  0
    5.8431   -1.1317    0.0000 C   0  0  0  0  0  0  0  0  0  0  0  0
   -0.6480   -3.3739    0.0000 C   0  0  0  0  0  0  0  0  0  0  0  0
   -1.9471   -2.6239    0.0000 C   0  0  0  0  0  0  0  0  0  0  0  0
    0.6465   -2.6317    0.0000 C   0  0  0  0  0  0  0  0  0  0  0  0
   -0.6521   -0.3809    0.0000 C   0  0  0  0  0  0  0  0  0  0  0  0
    1.9461   -0.3811    0.0000 C   0  0  0  0  0  0  0  0  0  0  0  0
   -1.9516   -1.1317    0.0000 C   0  0  0  0  0  0  0  0  0  0  0  0
    0.6470   -1.1309    0.0000 C   0  0  0  0  0  0  0  0  0  0  0  0
    3.2450   -1.1313    0.0000 C   0  0  0  0  0  0  0  0  0  0  0  0
    3.2448   -2.6313    0.0000 O   0  0  0  0  0  0  0  0  0  0  0  0
    4.5442   -0.3815    0.0000 O   0  0  0  0  0  0  0  0  0  0  0  0
  4  3  2  0
  5  3  1  0
  8  1  1  0
  8  4  1  0
  8  6  2  0
  9  5  2  0
  9  6  1  0
  9  7  1  0
 10  7  1  0
 11 10  2  0
 12  2  1  0
 12 10  1  0
M  END
>  <NAME>  (5116) 
3-METHYLPHENYLACETIC ACID METHYL ESTER

>  <SYNONYMS>  (5116) 
3-TOLYLACETIC ACID METHYL ESTER

>  <SPECTRUM TYPE>  (5116) 
MS1

>  <INSTRUMENT TYPE>  (5116) 
EI-B

>  <INSTRUMENT>  (5116) 
JEOL JMS-01-SG

>  <ION MODE>  (5116) 
P

>  <INCHIKEY>  (5116) 
AWTKFTNNPQGGLX-UHFFFAOYSA-N

>  <FORMULA>  (5116) 
C10H12O2

>  <EXACT MASS>  (5116) 
164.083729624

>  <MW>  (5116) 
164

>  <ID>  (5116) 
JP004242

>  <CONTRIBUTOR>  (5116) 
University of Tokyo Team, {Faculty of Engineering, University of Tokyo

>  <COMMENT>  (5116) 
SMILES=COC(=O)Cc(c1)cc(C)cc1
InChI=InChI=1S/C10H12O2/c1-8-4-3-5-9(6-8)7-10(11)12-2/h3-6H,7H2,1-2H3
computed SMILES=O=C(OC)CC=1C=CC=C(C1)C
accession=JP004242
date=2016.01.19 (Created 2008.10.21, modified 2011.05.06)
author=KOGA M, UNIV. OF OCCUPATIONAL AND ENVIRONMENTAL HEALTH
license=CC BY-NC-SA
exact mass=164.08373
ionization energy=70 eV
ion type=[M]+*
computed spectral entropy=1.7637283241676667
computed normalized entropy=0.5793119808591441
SPLASH=splash10-0a4i-3900000000-3c5e644eb1534d9d0c1a
submitter=submitter = University of Tokyo Team (Faculty of Engineering, University of Tokyo)
MoNA Rating=3.75

>  <NUM PEAKS>  (5116) 
21

>  <MASS SPECTRAL PEAKS>  (5116) 
39 5.6
50 1.8
51 5.8
52 0.18
53 1.8
59 4.2
62 0.8
63 0.32
65 2.6
77 13.9
78 5.8
79 1.01
89 0.8
91 2.1
103 8.2
104 0.53
105 99.99
106 10.4
133 0.8
164 3.12
165 3.4

$$$$

     RDKit          2D

 13 13  0  0  0  0  0  0  0  0999 V2000
    3.5283   -0.9596    0.0000 C   0  0  0  0  0  0  0  0  0  0  0  0
    7.4251    1.2910    0.0000 C   0  0  0  0  0  0  0  0  0  0  0  0
   -1.6700   -0.9600    0.0000 C   0  0  0  0  0  0  0  0  0  0  0  0
   -1.6700    0.5400    0.0000 C   0  0  0  0  0  0  0  0  0  0  0  0
   -0.3700   -1.7100    0.0000 C   0  0  0  0  0  0  0  0  0  0  0  0
   -0.3700    1.2900    0.0000 C   0  0  0  0  0  0  0  0  0  0  0  0
    0.9300   -0.9600    0.0000 C   0  0  0  0  0  0  0  0  0  0  0  0
    3.5281    0.5404    0.0000 C   0  0  0  0  0  0  0  0  0  0  0  0
    0.9300    0.5400    0.0000 C   0  0  0  0  0  0  0  0  0  0  0  0
    4.8270    1.2906    0.0000 C   0  0  0  0  0  0  0  0  0  0  0  0
    4.8268    2.7906    0.0000 O   0  0  0  0  0  0  0  0  0  0  0  0
    6.1262    0.5408    0.0000 O   0  0  0  0  0  0  0  0  0  0  0  0
    2.2289    1.2902    0.0000 O   0  0  0  0  0  0  0  0  0  0  0  0
  4  3  2  0
  5  3  1  0
  6  4  1  0
  7  5  2  0
  8  1  1  0
  9  6  2  0
  9  7  1  0
 10  8  1  0
 11 10  2  0
 12  2  1  0
 12 10  1  0
 13  8  1  0
 13  9  1  0
M  END
>  <NAME>  (5117) 
2-PHENOXYPROPIONIC ACID METHYL ESTER

>  <SYNONYMS>  (5117) 


>  <SPECTRUM TYPE>  (5117) 
MS1

>  <INSTRUMENT TYPE>  (5117) 
EI-B

>  <INSTRUMENT>  (5117) 
JEOL JMS-01-SG

>  <ION MODE>  (5117) 
P

>  <INCHIKEY>  (5117) 
KIBRBMKSBVQDMK-UHFFFAOYSA-N

>  <FORMULA>  (5117) 
C10H12O3

>  <EXACT MASS>  (5117) 
180.07864424399997

>  <MW>  (5117) 
180

>  <ID>  (5117) 
JP004241

>  <CONTRIBUTOR>  (5117) 
University of Tokyo Team, {Faculty of Engineering, University of Tokyo

>  <COMMENT>  (5117) 
SMILES=COC(=O)C(C)Oc(c1)cccc1
InChI=InChI=1S/C10H12O3/c1-8(10(11)12-2)13-9-6-4-3-5-7-9/h3-8H,1-2H3
computed SMILES=O=C(OC)C(OC=1C=CC=CC1)C
accession=JP004241
date=2016.01.19 (Created 2008.10.21, modified 2011.05.06)
author=KOGA M, UNIV. OF OCCUPATIONAL AND ENVIRONMENTAL HEALTH
license=CC BY-NC-SA
exact mass=180.07864
ionization energy=70 eV
ion type=[M]+*
computed spectral entropy=2.1753291449412115
computed normalized entropy=0.7261427077929454
SPLASH=splash10-00di-8900000000-122d9e3a285a57e3de10
submitter=submitter = University of Tokyo Team (Faculty of Engineering, University of Tokyo)
MoNA Rating=3.75

>  <NUM PEAKS>  (5117) 
20

>  <MASS SPECTRAL PEAKS>  (5117) 
38 1.4
39 11.3
43 2.8
50 0.28
51 13.2
55 4.7
59 6.1
63 0.18
65 8.9
66 5.1
77 38.6
78 0.33
91 4.2
93 13.6
94 30.1
103 0.18
121 99.99
122 8
180 32
181 2.8

$$$$

     RDKit          2D

 19 19  0  0  0  0  0  0  0  0999 V2000
  -11.0106   -1.9372    0.0000 C   0  0  0  0  0  0  0  0  0  0  0  0
    7.1889   -4.8789    0.0000 C   0  0  0  0  0  0  0  0  0  0  0  0
   -9.7055   -2.6765    0.0000 C   0  0  0  0  0  0  0  0  0  0  0  0
   -8.4126   -1.9158    0.0000 C   0  0  0  0  0  0  0  0  0  0  0  0
   -7.1075   -2.6550    0.0000 C   0  0  0  0  0  0  0  0  0  0  0  0
   -5.8147   -1.8943    0.0000 C   0  0  0  0  0  0  0  0  0  0  0  0
   -4.5095   -2.6336    0.0000 C   0  0  0  0  0  0  0  0  0  0  0  0
   -3.2167   -1.8729    0.0000 C   0  0  0  0  0  0  0  0  0  0  0  0
    1.9965   -4.8597    0.0000 C   0  0  0  0  0  0  0  0  0  0  0  0
    3.3101   -2.6349    0.0000 C   0  0  0  0  0  0  0  0  0  0  0  0
    0.7120   -4.1349    0.0000 C   0  0  0  0  0  0  0  0  0  0  0  0
    1.9855   -1.8407    0.0000 C   0  0  0  0  0  0  0  0  0  0  0  0
   -1.9115   -2.6122    0.0000 C   0  0  0  0  0  0  0  0  0  0  0  0
    3.2955   -4.1097    0.0000 C   0  0  0  0  0  0  0  0  0  0  0  0
    0.6865   -2.5907    0.0000 C   0  0  0  0  0  0  0  0  0  0  0  0
    4.5909   -4.8661    0.0000 C   0  0  0  0  0  0  0  0  0  0  0  0
    4.5835   -6.3661    0.0000 O   0  0  0  0  0  0  0  0  0  0  0  0
    5.8936   -4.1225    0.0000 O   0  0  0  0  0  0  0  0  0  0  0  0
   -0.6187   -1.8515    0.0000 O   0  0  0  0  0  0  0  0  0  0  0  0
  3  1  1  0
  4  3  1  0
  5  4  1  0
  6  5  1  0
  7  6  1  0
  8  7  1  0
 11  9  2  0
 12 10  1  0
 13  8  1  0
 14  9  1  0
 14 10  2  0
 15 11  1  0
 15 12  2  0
 16 14  1  0
 17 16  2  0
 18  2  1  0
 18 16  1  0
 19 13  1  0
 19 15  1  0
M  END
>  <NAME>  (5118) 
4-OCTYLOXYBENZOIC ACID METHYL ESTER

>  <SYNONYMS>  (5118) 


>  <SPECTRUM TYPE>  (5118) 
MS1

>  <INSTRUMENT TYPE>  (5118) 
EI-B

>  <INSTRUMENT>  (5118) 
JEOL JMS-01-SG

>  <ION MODE>  (5118) 
P

>  <INCHIKEY>  (5118) 
JCVLYBQFVTYGKT-UHFFFAOYSA-N

>  <FORMULA>  (5118) 
C16H24O3

>  <EXACT MASS>  (5118) 
264.17254462799997

>  <MW>  (5118) 
264

>  <ID>  (5118) 
JP004240

>  <CONTRIBUTOR>  (5118) 
University of Tokyo Team, {Faculty of Engineering, University of Tokyo

>  <COMMENT>  (5118) 
SMILES=CCCCCCCCOc(c1)ccc(c1)C(=O)OC
InChI=InChI=1S/C16H24O3/c1-3-4-5-6-7-8-13-19-15-11-9-14(10-12-15)16(17)18-2/h9-12H,3-8,13H2,1-2H3
computed SMILES=O=C(OC)C1=CC=C(OCCCCCCCC)C=C1
accession=JP004240
date=2016.01.19 (Created 2008.10.21, modified 2011.05.06)
author=KOGA M, UNIV. OF OCCUPATIONAL AND ENVIRONMENTAL HEALTH
license=CC BY-NC-SA
exact mass=264.17254
ionization energy=70 eV
ion type=[M]+*
computed spectral entropy=2.5242305762546478
computed normalized entropy=0.7099812824506392
SPLASH=splash10-0uk9-6910000000-d3e648f0b8a74d640aa0
submitter=submitter = University of Tokyo Team (Faculty of Engineering, University of Tokyo)
MoNA Rating=3.75

>  <NUM PEAKS>  (5118) 
35

>  <MASS SPECTRAL PEAKS>  (5118) 
41 22
42 4.7
43 29.1
53 0.09
55 15.7
56 6.2
57 25.3
64 0.09
65 5.2
67 1.4
69 8.6
70 0.76
71 31.8
76 0.9
77 4.7
83 0.52
84 1.9
91 1.9
92 2.8
93 0.47
103 0.9
109 1.4
112 1.4
120 0.23
121 87.5
122 6.2
123 0.9
135 0.28
151 3.8
152 99.99
153 33
154 0.19
233 4.3
264 22
265 3.3

$$$$

     RDKit          2D

 19 18  0  0  0  0  0  0  0  0999 V2000
    4.5466    7.8750    0.0000 C   0  0  0  0  0  0  0  0  0  0  0  0
  -13.6399    7.8750    0.0000 C   0  0  0  0  0  0  0  0  0  0  0  0
   -7.1447    4.1250    0.0000 C   0  0  0  0  0  0  0  0  0  0  0  0
    3.2476    8.6250    0.0000 C   0  0  0  0  0  0  0  0  0  0  0  0
  -12.3409    8.6250    0.0000 C   0  0  0  0  0  0  0  0  0  0  0  0
    1.9486    7.8750    0.0000 C   0  0  0  0  0  0  0  0  0  0  0  0
  -11.0418    7.8750    0.0000 C   0  0  0  0  0  0  0  0  0  0  0  0
    0.6495    8.6250    0.0000 C   0  0  0  0  0  0  0  0  0  0  0  0
   -9.7428    8.6250    0.0000 C   0  0  0  0  0  0  0  0  0  0  0  0
   -0.6495    7.8750    0.0000 C   0  0  0  0  0  0  0  0  0  0  0  0
   -1.9486    8.6250    0.0000 C   0  0  0  0  0  0  0  0  0  0  0  0
   -8.4437    7.8750    0.0000 C   0  0  0  0  0  0  0  0  0  0  0  0
   -3.2476    7.8750    0.0000 C   0  0  0  0  0  0  0  0  0  0  0  0
   -7.1447    8.6250    0.0000 C   0  0  0  0  0  0  0  0  0  0  0  0
   -4.5466    8.6250    0.0000 C   0  0  0  0  0  0  0  0  0  0  0  0
   -5.8457    7.8750    0.0000 C   0  0  0  0  0  0  0  0  0  0  0  0
   -5.8457    6.3750    0.0000 C   0  0  0  0  0  0  0  0  0  0  0  0
   -4.5466    5.6250    0.0000 O   0  0  0  0  0  0  0  0  0  0  0  0
   -7.1447    5.6250    0.0000 O   0  0  0  0  0  0  0  0  0  0  0  0
  4  1  1  0
  5  2  1  0
  6  4  1  0
  7  5  1  0
  8  6  1  0
  9  7  1  0
 10  8  1  0
 11 10  1  0
 12  9  1  0
 13 11  1  0
 14 12  1  0
 15 13  1  0
 16 14  1  0
 16 15  1  0
 17 16  1  0
 18 17  2  0
 19  3  1  0
 19 17  1  0
M  END
>  <NAME>  (5119) 
2-HEXYLDECANOIC ACID METHYL ESTER

>  <SYNONYMS>  (5119) 


>  <SPECTRUM TYPE>  (5119) 
MS1

>  <INSTRUMENT TYPE>  (5119) 
EI-B

>  <INSTRUMENT>  (5119) 
JEOL JMS-01-SG

>  <ION MODE>  (5119) 
P

>  <INCHIKEY>  (5119) 
PBRCCXNUTAGYJI-UHFFFAOYSA-N

>  <FORMULA>  (5119) 
C17H34O2

>  <EXACT MASS>  (5119) 
270.255880328

>  <MW>  (5119) 
270

>  <ID>  (5119) 
JP004239

>  <CONTRIBUTOR>  (5119) 
University of Tokyo Team, {Faculty of Engineering, University of Tokyo

>  <COMMENT>  (5119) 
SMILES=CCCCCCCCC(CCCCCC)C(=O)OC
InChI=InChI=1S/C17H34O2/c1-4-6-8-10-11-13-15-16(17(18)19-3)14-12-9-7-5-2/h16H,4-15H2,1-3H3
computed SMILES=O=C(OC)C(CCCCCC)CCCCCCCC
accession=JP004239
date=2016.01.19 (Created 2008.10.21, modified 2011.05.06)
author=KOGA M, UNIV. OF OCCUPATIONAL AND ENVIRONMENTAL HEALTH
license=CC BY-NC-SA
exact mass=270.25588
ionization energy=70 eV
ion type=[M]+*
computed spectral entropy=2.979147247396697
computed normalized entropy=0.7368561638329959
SPLASH=splash10-052u-9600000000-5c26b4505ed985af10ae
submitter=submitter = University of Tokyo Team (Faculty of Engineering, University of Tokyo)
MoNA Rating=3.75

>  <NUM PEAKS>  (5119) 
57

>  <MASS SPECTRAL PEAKS>  (5119) 
41 25.2
42 4.8
43 30.8
53 0.24
54 2.1
55 29.7
56 4.8
57 1.93
67 4
68 2.1
69 19.3
70 0.29
71 9.1
74 3.4
75 1.6
79 0.08
81 2.9
82 1
83 9.6
84 0.34
85 5.3
87 99.99
88 6.9
95 0.21
97 6.4
98 3.7
99 1.8
101 2.62
102 2.1
111 2.6
113 1.3
115 3.05
116 3.2
125 0.8
127 1.3
129 1.71
130 2.4
143 28.4
144 3.4
157 1.23
158 65.9
159 6.1
169 1.3
171 1.5
172 2.1
185 6.1
186 43.4
187 0.48
199 11.7
200 1.8
211 1.6
213 0.45
227 1
239 1.3
241 1.3
270 0.48
271 0.8

$$$$

     RDKit          2D

 11 11  0  0  0  0  0  0  0  0999 V2000
    2.1058    1.5000    0.0000 C   0  0  0  0  0  0  0  0  0  0  0  0
   -1.3000    0.7189    0.0000 C   0  0  0  0  0  0  0  0  0  0  0  0
    5.2185   -1.4096    0.0000 C   0  0  0  0  0  0  0  0  0  0  0  0
    3.9185   -2.1596    0.0000 C   0  0  0  0  0  0  0  0  0  0  0  0
    5.2185    0.0904    0.0000 C   0  0  0  0  0  0  0  0  0  0  0  0
    2.6185   -1.4096    0.0000 C   0  0  0  0  0  0  0  0  0  0  0  0
    3.9185    0.8404    0.0000 C   0  0  0  0  0  0  0  0  0  0  0  0
    1.1413   -0.1700    0.0000 C   0  0  0  0  0  0  0  0  0  0  0  0
    2.6185    0.0904    0.0000 C   0  0  0  0  0  0  0  0  0  0  0  0
    0.6281   -1.5794    0.0000 O   0  0  0  0  0  0  0  0  0  0  0  0
    0.1772    0.9792    0.0000 O   0  0  0  0  0  0  0  0  0  0  0  0
  4  3  1  0
  5  3  1  0
  6  4  1  0
  7  5  1  0
  9  1  1  0
  9  6  1  0
  9  7  1  0
  9  8  1  0
 10  8  2  0
 11  2  1  0
 11  8  1  0
M  END
>  <NAME>  (5120) 
1-METHYL-1-CYCLOHEXANECARBOXYLIC ACID METHYL ESTER

>  <SYNONYMS>  (5120) 


>  <SPECTRUM TYPE>  (5120) 
MS1

>  <INSTRUMENT TYPE>  (5120) 
EI-B

>  <INSTRUMENT>  (5120) 
JEOL JMS-01-SG

>  <ION MODE>  (5120) 
P

>  <INCHIKEY>  (5120) 
NKZISBBWNQEPAH-UHFFFAOYSA-N

>  <FORMULA>  (5120) 
C9H16O2

>  <EXACT MASS>  (5120) 
156.115029752

>  <MW>  (5120) 
156

>  <ID>  (5120) 
JP004238

>  <CONTRIBUTOR>  (5120) 
University of Tokyo Team, {Faculty of Engineering, University of Tokyo

>  <COMMENT>  (5120) 
SMILES=COC(=O)C(C)(C1)CCCC1
InChI=InChI=1S/C9H16O2/c1-9(8(10)11-2)6-4-3-5-7-9/h3-7H2,1-2H3
computed SMILES=O=C(OC)C1(C)CCCCC1
accession=JP004238
date=2016.01.19 (Created 2008.10.21, modified 2011.05.06)
author=KOGA M, UNIV. OF OCCUPATIONAL AND ENVIRONMENTAL HEALTH
license=CC BY-NC-SA
exact mass=156.11503
ionization energy=70 eV
ion type=[M]+*
computed spectral entropy=2.7417465815919098
computed normalized entropy=0.7202494544656458
SPLASH=splash10-0a4j-9100000000-63b40965a0e77a63ff62
submitter=submitter = University of Tokyo Team (Faculty of Engineering, University of Tokyo)
MoNA Rating=3.75

>  <NUM PEAKS>  (5120) 
45

>  <MASS SPECTRAL PEAKS>  (5120) 
38 2.8
41 26.8
42 3
43 0.98
44 2.6
45 34.2
46 1.9
51 0.15
53 5.2
54 2.4
55 97.3
56 0.63
57 2.6
59 41.4
60 1.7
67 0.76
68 3.7
69 10
70 9.3
71 0.13
73 6.1
74 24.4
75 2.4
77 0.26
79 1.9
81 13.1
82 4.5
83 0.17
87 4.1
88 22
95 3.7
96 2.03
97 99.99
98 8.2
101 45.8
102 0.26
109 1.5
114 1.5
115 1.9
124 0.37
125 2.4
127 2.1
141 6.9
156 1.46
157 1.9

$$$$

     RDKit          2D

 12 11  0  0  0  0  0  0  0  0999 V2000
   -2.5981    3.0000    0.0000 C   0  0  0  0  0  0  0  0  0  0  0  0
    2.5981    4.5000    0.0000 C   0  0  0  0  0  0  0  0  0  0  0  0
   -7.7942    4.5000    0.0000 C   0  0  0  0  0  0  0  0  0  0  0  0
   -1.2990    5.2500    0.0000 C   0  0  0  0  0  0  0  0  0  0  0  0
   -3.8971    5.2500    0.0000 C   0  0  0  0  0  0  0  0  0  0  0  0
   -2.5981    4.5000    0.0000 C   0  0  0  0  0  0  0  0  0  0  0  0
    0.0000    4.5000    0.0000 C   0  0  0  0  0  0  0  0  0  0  0  0
   -5.1962    4.5000    0.0000 C   0  0  0  0  0  0  0  0  0  0  0  0
    0.0000    3.0000    0.0000 O   0  0  0  0  0  0  0  0  0  0  0  0
   -5.1962    3.0000    0.0000 O   0  0  0  0  0  0  0  0  0  0  0  0
    1.2990    5.2500    0.0000 O   0  0  0  0  0  0  0  0  0  0  0  0
   -6.4952    5.2500    0.0000 O   0  0  0  0  0  0  0  0  0  0  0  0
  6  1  1  0
  6  4  1  0
  6  5  1  0
  7  4  1  0
  8  5  1  0
  9  7  2  0
 10  8  2  0
 11  2  1  0
 11  7  1  0
 12  3  1  0
 12  8  1  0
M  END
>  <NAME>  (5121) 
3-METHYLGLUTARIC ACID DIMETHYL ESTER

>  <SYNONYMS>  (5121) 
3-METHYLPENTANEDIOIC ACID DIMETHYL ESTER

>  <SPECTRUM TYPE>  (5121) 
MS1

>  <INSTRUMENT TYPE>  (5121) 
EI-B

>  <INSTRUMENT>  (5121) 
JEOL JMS-01-SG

>  <ION MODE>  (5121) 
P

>  <INCHIKEY>  (5121) 
YIJLMTNDXYVGPQ-UHFFFAOYSA-N

>  <FORMULA>  (5121) 
C8H14O4

>  <EXACT MASS>  (5121) 
174.089208928

>  <MW>  (5121) 
174

>  <ID>  (5121) 
JP004237

>  <CONTRIBUTOR>  (5121) 
University of Tokyo Team, {Faculty of Engineering, University of Tokyo

>  <COMMENT>  (5121) 
SMILES=COC(=O)CC(C)CC(=O)OC
cas=19013-37-7
InChI=InChI=1S/C8H14O4/c1-6(4-7(9)11-2)5-8(10)12-3/h6H,4-5H2,1-3H3
computed SMILES=O=C(OC)CC(C)CC(=O)OC
accession=JP004237
date=2016.01.19 (Created 2008.10.21, modified 2011.05.06)
author=KOGA M, UNIV. OF OCCUPATIONAL AND ENVIRONMENTAL HEALTH
license=CC BY-NC-SA
exact mass=174.08921
ionization energy=70 eV
ion type=[M]+*
computed spectral entropy=2.6117513162394412
computed normalized entropy=0.7605594199151997
SPLASH=splash10-0hfx-6900000000-ca39d8fc94a9fe517675
submitter=submitter = University of Tokyo Team (Faculty of Engineering, University of Tokyo)
MoNA Rating=3.75

>  <NUM PEAKS>  (5121) 
31

>  <MASS SPECTRAL PEAKS>  (5121) 
38 5.4
41 16.4
42 19.1
43 3.01
53 3.4
54 4.7
55 41.7
56 0.95
58 1.3
69 84.2
70 3.4
71 1.3
72 5.4
73 49.3
82 32.8
83 2.05
84 1.3
86 10.6
95 3.4
99 1.09
100 2
101 92.4
102 4.1
113 0.27
114 99.99
115 45.2
116 3.4
127 0.47
142 37.6
143 89
144 5.4

$$$$

     RDKit          2D

 15 15  0  0  0  0  0  0  0  0999 V2000
   -7.4692    4.2571    0.0000 C   0  0  0  0  0  0  0  0  0  0  0  0
    4.2221    2.0071    0.0000 C   0  0  0  0  0  0  0  0  0  0  0  0
    4.2226    3.5079    0.0000 C   0  0  0  0  0  0  0  0  0  0  0  0
    2.9226    1.2563    0.0000 C   0  0  0  0  0  0  0  0  0  0  0  0
    2.9236    4.2579    0.0000 C   0  0  0  0  0  0  0  0  0  0  0  0
    1.6236    2.0063    0.0000 C   0  0  0  0  0  0  0  0  0  0  0  0
    0.3250    4.2571    0.0000 C   0  0  0  0  0  0  0  0  0  0  0  0
   -3.5721    3.5071    0.0000 C   0  0  0  0  0  0  0  0  0  0  0  0
    1.6240    3.5071    0.0000 C   0  0  0  0  0  0  0  0  0  0  0  0
   -0.9740    3.5071    0.0000 C   0  0  0  0  0  0  0  0  0  0  0  0
   -4.8712    4.2571    0.0000 C   0  0  0  0  0  0  0  0  0  0  0  0
   -2.2731    4.2571    0.0000 N   0  0  0  0  0  0  0  0  0  0  0  0
   -0.9740    2.0071    0.0000 O   0  0  0  0  0  0  0  0  0  0  0  0
   -4.8712    5.7571    0.0000 O   0  0  0  0  0  0  0  0  0  0  0  0
   -6.1702    3.5071    0.0000 O   0  0  0  0  0  0  0  0  0  0  0  0
  3  2  2  0
  4  2  1  0
  5  3  1  0
  6  4  2  0
  9  5  2  0
  9  6  1  0
  9  7  1  0
 10  7  1  0
 11  8  1  0
 12  8  1  0
 12 10  2  3
 13 10  1  0
 14 11  2  0
 15  1  1  0
 15 11  1  0
M  END
>  <NAME>  (5122) 
N-(PHENYLACETHYL)GLYCINE METHYL ESTER

>  <SYNONYMS>  (5122) 
PHENACETURIC ACID METHYL ESTER

>  <SPECTRUM TYPE>  (5122) 
MS1

>  <INSTRUMENT TYPE>  (5122) 
EI-B

>  <INSTRUMENT>  (5122) 
JEOL JMS-01-SG

>  <ION MODE>  (5122) 
P

>  <INCHIKEY>  (5122) 
VISLHUSQBAQEBB-UHFFFAOYSA-N

>  <FORMULA>  (5122) 
C11H13NO3

>  <EXACT MASS>  (5122) 
207.089543276

>  <MW>  (5122) 
207

>  <ID>  (5122) 
JP004236

>  <CONTRIBUTOR>  (5122) 
University of Tokyo Team, {Faculty of Engineering, University of Tokyo

>  <COMMENT>  (5122) 
SMILES=COC(=O)CNC(=O)Cc(c1)cccc1
cas=5259-87-0
InChI=InChI=1S/C11H13NO3/c1-15-11(14)8-12-10(13)7-9-5-3-2-4-6-9/h2-6H,7-8H2,1H3,(H,12,13)
computed SMILES=O=C(OC)CN=C(O)CC=1C=CC=CC1
accession=JP004236
date=2016.01.19 (Created 2008.10.21, modified 2011.05.06)
author=KOGA M, UNIV. OF OCCUPATIONAL AND ENVIRONMENTAL HEALTH
license=CC BY-NC-SA
exact mass=207.08954
ionization energy=70 eV
ion type=[M]+*
computed spectral entropy=2.344642828082037
computed normalized entropy=0.7284042490760079
SPLASH=splash10-0006-9200000000-af3d3d3f6392cedaf02b
submitter=submitter = University of Tokyo Team (Faculty of Engineering, University of Tokyo)
MoNA Rating=3.75

>  <NUM PEAKS>  (5122) 
25

>  <MASS SPECTRAL PEAKS>  (5122) 
39 9.6
42 1.6
44 9.6
50 0.26
51 5.9
56 23.1
63 5.9
64 0.21
65 21.5
77 2.6
88 61.2
89 0.96
90 8.6
91 99.99
92 81.7
93 0.69
116 24.7
117 2.1
118 38.1
119 0.53
120 1.6
148 5.9
176 4.3
207 3.27
208 3.7

$$$$

     RDKit          2D

 10  9  0  0  0  0  0  0  0  0999 V2000
    2.9228    3.1875    0.0000 C   0  0  0  0  0  0  0  0  0  0  0  0
   -6.1704    3.9375    0.0000 C   0  0  0  0  0  0  0  0  0  0  0  0
   -0.9743    3.9375    0.0000 C   0  0  0  0  0  0  0  0  0  0  0  0
    0.3248    3.1875    0.0000 C   0  0  0  0  0  0  0  0  0  0  0  0
   -2.2733    3.1875    0.0000 C   0  0  0  0  0  0  0  0  0  0  0  0
    1.6238    3.9375    0.0000 C   0  0  0  0  0  0  0  0  0  0  0  0
   -3.5724    3.9375    0.0000 C   0  0  0  0  0  0  0  0  0  0  0  0
    1.6238    5.4375    0.0000 O   0  0  0  0  0  0  0  0  0  0  0  0
   -3.5724    5.4375    0.0000 O   0  0  0  0  0  0  0  0  0  0  0  0
   -4.8714    3.1875    0.0000 O   0  0  0  0  0  0  0  0  0  0  0  0
  4  3  1  0
  5  3  1  0
  6  1  1  0
  6  4  1  0
  7  5  1  0
  8  6  2  0
  9  7  2  0
 10  2  1  0
 10  7  1  0
M  END
>  <NAME>  (5123) 
5-OXOCAPROIC ACID METHYU ESTER

>  <SYNONYMS>  (5123) 
5-OXOHEXANOIC ACID METHYL ESTER

>  <SPECTRUM TYPE>  (5123) 
MS1

>  <INSTRUMENT TYPE>  (5123) 
EI-B

>  <INSTRUMENT>  (5123) 
JEOL JMS-01-SG

>  <ION MODE>  (5123) 
P

>  <INCHIKEY>  (5123) 
AVVPOKSKJSJVIX-UHFFFAOYSA-N

>  <FORMULA>  (5123) 
C7H12O3

>  <EXACT MASS>  (5123) 
144.078644244

>  <MW>  (5123) 
144

>  <ID>  (5123) 
JP004235

>  <CONTRIBUTOR>  (5123) 
University of Tokyo Team, {Faculty of Engineering, University of Tokyo

>  <COMMENT>  (5123) 
SMILES=COC(=O)CCCC(C)=O
cas=13984-50-4
InChI=InChI=1S/C7H12O3/c1-6(8)4-3-5-7(9)10-2/h3-5H2,1-2H3
computed SMILES=O=C(OC)CCCC(=O)C
accession=JP004235
date=2016.01.19 (Created 2008.10.21, modified 2011.05.06)
author=KOGA M, UNIV. OF OCCUPATIONAL AND ENVIRONMENTAL HEALTH
license=CC BY-NC-SA
exact mass=144.07864
ionization energy=70 eV
ion type=[M]+*
computed spectral entropy=2.7050996687841424
computed normalized entropy=0.7805267754530519
SPLASH=splash10-059f-9200000000-0835f5d0f110f0ab1568
submitter=submitter = University of Tokyo Team (Faculty of Engineering, University of Tokyo)
MoNA Rating=3.75

>  <NUM PEAKS>  (5123) 
32

>  <MASS SPECTRAL PEAKS>  (5123) 
38 1.7
39 2.9
41 17.9
42 3.29
43 99.99
44 8.9
55 64.1
56 0.17
57 2.1
58 12.8
59 47.4
60 0.25
69 6.4
70 4.7
71 37.6
72 0.12
74 70
75 3.8
83 1.2
84 2.86
85 40.1
86 1.7
87 19.2
97 0.59
101 20.9
102 5.9
103 1.2
112 9.1
113 54.7
114 3.4
129 14.1
144 7.2

$$$$

     RDKit          2D

  9  8  0  0  0  0  0  0  0  0999 V2000
    2.2733    2.8125    0.0000 C   0  0  0  0  0  0  0  0  0  0  0  0
   -5.5209    2.8125    0.0000 C   0  0  0  0  0  0  0  0  0  0  0  0
   -0.3248    2.8125    0.0000 C   0  0  0  0  0  0  0  0  0  0  0  0
   -1.6238    3.5625    0.0000 C   0  0  0  0  0  0  0  0  0  0  0  0
    0.9743    3.5625    0.0000 C   0  0  0  0  0  0  0  0  0  0  0  0
   -2.9228    2.8125    0.0000 C   0  0  0  0  0  0  0  0  0  0  0  0
    0.9743    5.0625    0.0000 O   0  0  0  0  0  0  0  0  0  0  0  0
   -2.9228    1.3125    0.0000 O   0  0  0  0  0  0  0  0  0  0  0  0
   -4.2219    3.5625    0.0000 O   0  0  0  0  0  0  0  0  0  0  0  0
  4  3  1  0
  5  1  1  0
  5  3  1  0
  6  4  1  0
  7  5  2  0
  8  6  2  0
  9  2  1  0
  9  6  1  0
M  END
>  <NAME>  (5124) 
4-OXOVALERIC ACID METHYL ESTER

>  <SYNONYMS>  (5124) 
LEVULINIC ACID METHYL ESTER

>  <SPECTRUM TYPE>  (5124) 
MS1

>  <INSTRUMENT TYPE>  (5124) 
EI-B

>  <INSTRUMENT>  (5124) 
JEOL JMS-01-SG

>  <ION MODE>  (5124) 
P

>  <INCHIKEY>  (5124) 
UAGJVSRUFNSIHR-UHFFFAOYSA-N

>  <FORMULA>  (5124) 
C6H10O3

>  <EXACT MASS>  (5124) 
130.06299417999998

>  <MW>  (5124) 
130

>  <ID>  (5124) 
JP004234

>  <CONTRIBUTOR>  (5124) 
University of Tokyo Team, {Faculty of Engineering, University of Tokyo

>  <COMMENT>  (5124) 
SMILES=COC(=O)CCC(C)=O
InChI=InChI=1S/C6H10O3/c1-5(7)3-4-6(8)9-2/h3-4H2,1-2H3
computed SMILES=O=C(OC)CCC(=O)C
accession=JP004234
date=2016.01.19 (Created 2008.10.21, modified 2011.05.06)
author=KOGA M, UNIV. OF OCCUPATIONAL AND ENVIRONMENTAL HEALTH
license=CC BY-NC-SA
exact mass=130.06299
ionization energy=70 eV
ion type=[M]+*
computed spectral entropy=2.3936975619367855
computed normalized entropy=0.7436439590007475
SPLASH=splash10-052b-9000000000-586bf3653d76af66925d
submitter=submitter = University of Tokyo Team (Faculty of Engineering, University of Tokyo)
MoNA Rating=3.75

>  <NUM PEAKS>  (5124) 
25

>  <MASS SPECTRAL PEAKS>  (5124) 
42 11.2
43 38.7
44 6.2
51 0.15
53 2.3
55 57.2
56 15.6
57 5.33
58 3.5
59 10.4
70 1.2
71 2.61
72 1.3
75 1.5
81 2.7
87 2.39
88 41
89 2.6
98 43.9
99 99.99
100 6.4
115 22.4
116 4.1
130 1.45
131 1

$$$$

     RDKit          2D

 13 13  0  0  0  0  0  0  0  0999 V2000
   -6.8197    3.1321    0.0000 C   0  0  0  0  0  0  0  0  0  0  0  0
    3.5726    1.6321    0.0000 C   0  0  0  0  0  0  0  0  0  0  0  0
    3.5731    3.1329    0.0000 C   0  0  0  0  0  0  0  0  0  0  0  0
    2.2731    0.8813    0.0000 C   0  0  0  0  0  0  0  0  0  0  0  0
   -1.6236    3.1321    0.0000 C   0  0  0  0  0  0  0  0  0  0  0  0
    2.2740    3.8829    0.0000 C   0  0  0  0  0  0  0  0  0  0  0  0
    0.9740    1.6313    0.0000 C   0  0  0  0  0  0  0  0  0  0  0  0
   -0.3245    3.8821    0.0000 C   0  0  0  0  0  0  0  0  0  0  0  0
   -2.9226    3.8821    0.0000 C   0  0  0  0  0  0  0  0  0  0  0  0
    0.9745    3.1321    0.0000 C   0  0  0  0  0  0  0  0  0  0  0  0
   -4.2216    3.1321    0.0000 C   0  0  0  0  0  0  0  0  0  0  0  0
   -4.2216    1.6321    0.0000 O   0  0  0  0  0  0  0  0  0  0  0  0
   -5.5207    3.8821    0.0000 O   0  0  0  0  0  0  0  0  0  0  0  0
  3  2  2  0
  4  2  1  0
  6  3  1  0
  7  4  2  0
  8  5  1  0
  9  5  1  0
 10  6  2  0
 10  7  1  0
 10  8  1  0
 11  9  1  0
 12 11  2  0
 13  1  1  0
 13 11  1  0
M  END
>  <NAME>  (5125) 
4-PHENYLBUTYRIC ACID METHYL ESTER

>  <SYNONYMS>  (5125) 
4-BENZENEBUTANOIC ACID METHYL ESTER

>  <SPECTRUM TYPE>  (5125) 
MS1

>  <INSTRUMENT TYPE>  (5125) 
EI-B

>  <INSTRUMENT>  (5125) 
JEOL JMS-01-SG

>  <ION MODE>  (5125) 
P

>  <INCHIKEY>  (5125) 
YRYZGVBKMWFWGT-UHFFFAOYSA-N

>  <FORMULA>  (5125) 
C11H14O2

>  <EXACT MASS>  (5125) 
178.099379688

>  <MW>  (5125) 
178

>  <ID>  (5125) 
JP004233

>  <CONTRIBUTOR>  (5125) 
University of Tokyo Team, {Faculty of Engineering, University of Tokyo

>  <COMMENT>  (5125) 
SMILES=COC(=O)CCCc(c1)cccc1
InChI=InChI=1S/C11H14O2/c1-13-11(12)9-5-8-10-6-3-2-4-7-10/h2-4,6-7H,5,8-9H2,1H3
computed SMILES=O=C(OC)CCCC=1C=CC=CC1
accession=JP004233
date=2016.01.19 (Created 2008.10.21, modified 2011.05.06)
author=KOGA M, UNIV. OF OCCUPATIONAL AND ENVIRONMENTAL HEALTH
license=CC BY-NC-SA
exact mass=178.09938
ionization energy=70 eV
ion type=[M]+*
computed spectral entropy=2.4896597454661324
computed normalized entropy=0.7471509440263103
SPLASH=splash10-0f6x-6900000000-5816f54e9f6e8470ec84
submitter=submitter = University of Tokyo Team (Faculty of Engineering, University of Tokyo)
MoNA Rating=3.75

>  <NUM PEAKS>  (5125) 
28

>  <MASS SPECTRAL PEAKS>  (5125) 
43 34.6
50 2.3
51 7.2
52 0.19
57 1.9
63 3.9
65 19.1
74 6.93
75 1.9
77 5.9
78 8.2
79 0.36
89 3.3
91 68.3
92 6.2
103 0.59
104 99.99
105 41.9
106 2.9
115 0.59
117 6.2
118 3.3
129 4.6
146 3.92
147 34.3
148 2.9
178 33.3
179 4.2

$$$$

     RDKit          2D

 17 16  0  0  0  0  0  0  0  0999 V2000
    3.2476    5.6250    0.0000 C   0  0  0  0  0  0  0  0  0  0  0  0
   -9.7428    5.6250    0.0000 C   0  0  0  0  0  0  0  0  0  0  0  0
   -4.5466   10.1250    0.0000 C   0  0  0  0  0  0  0  0  0  0  0  0
   -1.9486    5.6250    0.0000 C   0  0  0  0  0  0  0  0  0  0  0  0
   -4.5466    5.6250    0.0000 C   0  0  0  0  0  0  0  0  0  0  0  0
   -0.6495    6.3750    0.0000 C   0  0  0  0  0  0  0  0  0  0  0  0
   -5.8457    6.3750    0.0000 C   0  0  0  0  0  0  0  0  0  0  0  0
   -3.2476    6.3750    0.0000 C   0  0  0  0  0  0  0  0  0  0  0  0
    0.6495    5.6250    0.0000 C   0  0  0  0  0  0  0  0  0  0  0  0
   -7.1447    5.6250    0.0000 C   0  0  0  0  0  0  0  0  0  0  0  0
   -3.2476    7.8750    0.0000 C   0  0  0  0  0  0  0  0  0  0  0  0
    0.6495    4.1250    0.0000 O   0  0  0  0  0  0  0  0  0  0  0  0
   -7.1447    4.1250    0.0000 O   0  0  0  0  0  0  0  0  0  0  0  0
   -1.9486    8.6250    0.0000 O   0  0  0  0  0  0  0  0  0  0  0  0
    1.9486    6.3750    0.0000 O   0  0  0  0  0  0  0  0  0  0  0  0
   -8.4437    6.3750    0.0000 O   0  0  0  0  0  0  0  0  0  0  0  0
   -4.5466    8.6250    0.0000 O   0  0  0  0  0  0  0  0  0  0  0  0
  6  4  1  0
  7  5  1  0
  8  4  1  0
  8  5  1  0
  9  6  1  0
 10  7  1  0
 11  8  1  0
 12  9  2  0
 13 10  2  0
 14 11  2  0
 15  1  1  0
 15  9  1  0
 16  2  1  0
 16 10  1  0
 17  3  1  0
 17 11  1  0
M  END
>  <NAME>  (5126) 
1,3,5-PENTANETRICARBOXYLIC ACID TRIMETHYLESTER

>  <SYNONYMS>  (5126) 


>  <SPECTRUM TYPE>  (5126) 
MS1

>  <INSTRUMENT TYPE>  (5126) 
EI-B

>  <INSTRUMENT>  (5126) 
JEOL JMS-01-SG

>  <ION MODE>  (5126) 
P

>  <INCHIKEY>  (5126) 
BAWAMGSZOXWVIB-UHFFFAOYSA-N

>  <FORMULA>  (5126) 
C11H18O6

>  <EXACT MASS>  (5126) 
246.11033829599998

>  <MW>  (5126) 
246

>  <ID>  (5126) 
JP004232

>  <CONTRIBUTOR>  (5126) 
University of Tokyo Team, {Faculty of Engineering, University of Tokyo

>  <COMMENT>  (5126) 
SMILES=COC(=O)CCC(CCC(=O)OC)C(=O)OC
cas=5464-63-1
InChI=InChI=1S/C11H18O6/c1-15-9(12)6-4-8(11(14)17-3)5-7-10(13)16-2/h8H,4-7H2,1-3H3
computed SMILES=O=C(OC)CCC(C(=O)OC)CCC(=O)OC
accession=JP004232
date=2016.01.19 (Created 2008.10.21, modified 2011.05.06)
author=KOGA M, UNIV. OF OCCUPATIONAL AND ENVIRONMENTAL HEALTH
license=CC BY-NC-SA
exact mass=246.11034
ionization energy=70 eV
ion type=[M]+*
computed spectral entropy=3.1873612369567748
computed normalized entropy=0.8278542972069682
SPLASH=splash10-06ri-4910000000-a53c720524d986ab411d
submitter=submitter = University of Tokyo Team (Faculty of Engineering, University of Tokyo)
MoNA Rating=3.75

>  <NUM PEAKS>  (5126) 
47

>  <MASS SPECTRAL PEAKS>  (5126) 
42 10.7
43 19
53 9.5
54 0.59
55 64.2
57 3.5
58 8.3
67 3.45
68 5.9
69 7.1
71 28.5
72 0.35
78 8.3
81 20.2
82 3.5
84 2.14
85 84.5
87 13
88 5.9
95 3.45
99 7.1
100 70.2
101 4.7
109 0.47
111 9.5
112 4.7
113 92.8
114 0.47
122 25
123 60.7
126 46.4
127 5.71
128 40.4
141 30.9
143 8.3
154 2.5
155 76.1
160 16.6
171 10.7
173 0.71
182 7.1
183 3.5
186 99.99
187 3.92
214 16.6
215 76.1
216 4.7

$$$$

     RDKit          2D

 14 15  0  0  0  0  0  0  0  0999 V2000
    6.1345   -1.3835    0.0000 C   0  0  0  0  0  0  0  0  0  0  0  0
   -2.9500    0.8900    0.0000 C   0  0  0  0  0  0  0  0  0  0  0  0
   -2.9500   -0.6100    0.0000 C   0  0  0  0  0  0  0  0  0  0  0  0
   -1.6500    1.6400    0.0000 C   0  0  0  0  0  0  0  0  0  0  0  0
   -1.6500   -1.3600    0.0000 C   0  0  0  0  0  0  0  0  0  0  0  0
    0.9500    1.6400    0.0000 C   0  0  0  0  0  0  0  0  0  0  0  0
    2.2500    0.8900    0.0000 C   0  0  0  0  0  0  0  0  0  0  0  0
   -0.3600    0.8800    0.0000 C   0  0  0  0  0  0  0  0  0  0  0  0
   -0.3600   -0.6100    0.0000 C   0  0  0  0  0  0  0  0  0  0  0  0
    2.2400   -0.6200    0.0000 C   0  0  0  0  0  0  0  0  0  0  0  0
    3.5364   -1.3745    0.0000 C   0  0  0  0  0  0  0  0  0  0  0  0
    0.9400   -1.3700    0.0000 N   0  0  0  0  0  0  0  0  0  0  0  0
    3.5312   -2.8745    0.0000 O   0  0  0  0  0  0  0  0  0  0  0  0
    4.8381   -0.6290    0.0000 O   0  0  0  0  0  0  0  0  0  0  0  0
  3  2  2  0
  4  2  1  0
  5  3  1  0
  7  6  2  0
  8  4  2  0
  8  6  1  0
  9  5  2  0
  9  8  1  0
 10  7  1  0
 11 10  1  0
 12  9  1  0
 12 10  2  0
 13 11  2  0
 14  1  1  0
 14 11  1  0
M  END
>  <NAME>  (5127) 
2-QUINOLINECARBOXYLIC ACID METHYL ESTER

>  <SYNONYMS>  (5127) 


>  <SPECTRUM TYPE>  (5127) 
MS1

>  <INSTRUMENT TYPE>  (5127) 
EI-B

>  <INSTRUMENT>  (5127) 
JEOL JMS-01-SG

>  <ION MODE>  (5127) 
P

>  <INCHIKEY>  (5127) 
CILJSZLWPHTUIP-UHFFFAOYSA-N

>  <FORMULA>  (5127) 
C11H9NO2

>  <EXACT MASS>  (5127) 
187.063328528

>  <MW>  (5127) 
187

>  <ID>  (5127) 
JP004231

>  <CONTRIBUTOR>  (5127) 
University of Tokyo Team, {Faculty of Engineering, University of Tokyo

>  <COMMENT>  (5127) 
SMILES=COC(=O)c(c1)nc(c2)c(ccc2)c1
cas=19575-07-6
InChI=InChI=1S/C11H9NO2/c1-14-11(13)10-7-6-8-4-2-3-5-9(8)12-10/h2-7H,1H3
computed SMILES=O=C(OC)C=1N=C2C=CC=CC2=CC1
accession=JP004231
date=2016.01.19 (Created 2008.10.21, modified 2011.05.06)
author=KOGA M, UNIV. OF OCCUPATIONAL AND ENVIRONMENTAL HEALTH
license=CC BY-NC-SA
exact mass=187.06333
ionization energy=70 eV
ion type=[M]+*
computed spectral entropy=2.04345243654146
computed normalized entropy=0.6610884409954694
SPLASH=splash10-004i-1900000000-3bd61eaee728d31e6ac7
submitter=submitter = University of Tokyo Team (Faculty of Engineering, University of Tokyo)
MoNA Rating=3.75

>  <NUM PEAKS>  (5127) 
22

>  <MASS SPECTRAL PEAKS>  (5127) 
50 4.3
51 7.9
52 1.2
63 0.17
64 4.6
75 8.7
76 3.5
77 0.77
78 1.5
100 2
101 15.1
102 0.79
103 1
127 2.8
128 37.2
129 99.99
130 10.2
156 2
157 20
158 0.2
187 8.7
188 1

$$$$

     RDKit          2D

 14 14  0  0  0  0  0  0  0  0999 V2000
    5.8559   -1.8843    0.0000 C   0  0  0  0  0  0  0  0  0  0  0  0
   -5.8425    0.3610    0.0000 C   0  0  0  0  0  0  0  0  0  0  0  0
    4.5631   -2.6450    0.0000 C   0  0  0  0  0  0  0  0  0  0  0  0
   -0.6501    0.3418    0.0000 C   0  0  0  0  0  0  0  0  0  0  0  0
   -1.9636   -1.8831    0.0000 C   0  0  0  0  0  0  0  0  0  0  0  0
    0.6344   -0.3831    0.0000 C   0  0  0  0  0  0  0  0  0  0  0  0
   -0.6391   -2.6772    0.0000 C   0  0  0  0  0  0  0  0  0  0  0  0
    3.2579   -1.9058    0.0000 C   0  0  0  0  0  0  0  0  0  0  0  0
   -1.9491   -0.4082    0.0000 C   0  0  0  0  0  0  0  0  0  0  0  0
    0.6599   -1.9272    0.0000 C   0  0  0  0  0  0  0  0  0  0  0  0
   -3.2445    0.3482    0.0000 C   0  0  0  0  0  0  0  0  0  0  0  0
   -3.2371    1.8481    0.0000 O   0  0  0  0  0  0  0  0  0  0  0  0
   -4.5472   -0.3954    0.0000 O   0  0  0  0  0  0  0  0  0  0  0  0
    1.9651   -2.6665    0.0000 O   0  0  0  0  0  0  0  0  0  0  0  0
  3  1  1  0
  6  4  2  0
  7  5  1  0
  8  3  1  0
  9  4  1  0
  9  5  2  0
 10  6  1  0
 10  7  2  0
 11  9  1  0
 12 11  2  0
 13  2  1  0
 13 11  1  0
 14  8  1  0
 14 10  1  0
M  END
>  <NAME>  (5128) 
4-PROPOXYBENZOIC ACID METHYL ESTER

>  <SYNONYMS>  (5128) 


>  <SPECTRUM TYPE>  (5128) 
MS1

>  <INSTRUMENT TYPE>  (5128) 
EI-B

>  <INSTRUMENT>  (5128) 
JEOL JMS-01-SG

>  <ION MODE>  (5128) 
P

>  <INCHIKEY>  (5128) 
OXOTVVQIIASDNF-UHFFFAOYSA-N

>  <FORMULA>  (5128) 
C11H14O3

>  <EXACT MASS>  (5128) 
194.09429430799997

>  <MW>  (5128) 
194

>  <ID>  (5128) 
JP004230

>  <CONTRIBUTOR>  (5128) 
University of Tokyo Team, {Faculty of Engineering, University of Tokyo

>  <COMMENT>  (5128) 
SMILES=CCCOc(c1)ccc(c1)C(=O)OC
InChI=InChI=1S/C11H14O3/c1-3-8-14-10-6-4-9(5-7-10)11(12)13-2/h4-7H,3,8H2,1-2H3
computed SMILES=O=C(OC)C1=CC=C(OCCC)C=C1
accession=JP004230
date=2016.01.19 (Created 2008.10.21, modified 2011.05.06)
author=KOGA M, UNIV. OF OCCUPATIONAL AND ENVIRONMENTAL HEALTH
license=CC BY-NC-SA
exact mass=194.09429
ionization energy=70 eV
ion type=[M]+*
computed spectral entropy=2.835156383853366
computed normalized entropy=0.7634580217988037
SPLASH=splash10-0006-5900000000-73a77bc6e57c1276b5da
submitter=submitter = University of Tokyo Team (Faculty of Engineering, University of Tokyo)
MoNA Rating=3.75

>  <NUM PEAKS>  (5128) 
41

>  <MASS SPECTRAL PEAKS>  (5128) 
38 6.4
41 20.8
43 32.5
50 0.88
51 1.6
53 3.2
62 2
63 1.04
64 9.6
65 32.9
66 2.8
67 0.52
75 3.6
76 9.2
77 2.8
79 0.24
91 3.2
92 10.8
93 36.1
94 0.36
95 2.8
103 5.2
104 3.2
105 0.2
107 4.4
108 1.8
119 3.6
120 0.76
121 47.3
122 37.7
123 6.4
124 0.28
151 15.6
152 44.5
153 13.6
163 2.65
164 2.4
165 2
194 99.99
195 1.24
196 1.2

$$$$

     RDKit          2D

 10 10  0  0  0  0  0  0  0  0999 V2000
   -1.6700   -0.2104    0.0000 C   0  0  0  0  0  0  0  0  0  0  0  0
    3.5270    2.7902    0.0000 C   0  0  0  0  0  0  0  0  0  0  0  0
    4.8270    2.0402    0.0000 C   0  0  0  0  0  0  0  0  0  0  0  0
    2.2270    2.0402    0.0000 C   0  0  0  0  0  0  0  0  0  0  0  0
    4.8270    0.5402    0.0000 C   0  0  0  0  0  0  0  0  0  0  0  0
    2.2270    0.5402    0.0000 C   0  0  0  0  0  0  0  0  0  0  0  0
    0.9281   -0.2100    0.0000 C   0  0  0  0  0  0  0  0  0  0  0  0
    3.5270   -0.2098    0.0000 N   0  0  0  0  0  0  0  0  0  0  0  0
    0.9283   -1.7100    0.0000 O   0  0  0  0  0  0  0  0  0  0  0  0
   -0.3711    0.5398    0.0000 O   0  0  0  0  0  0  0  0  0  0  0  0
  3  2  2  0
  4  2  1  0
  5  3  1  0
  6  4  2  0
  7  6  1  0
  8  5  2  0
  8  6  1  0
  9  7  2  0
 10  1  1  0
 10  7  1  0
M  END
>  <NAME>  (5129) 
2-PYRIDINECARBOXYLIC ACID METHYL ESTER

>  <SYNONYMS>  (5129) 
PICOLINIC ACID METHYL ESTER

>  <SPECTRUM TYPE>  (5129) 
MS1

>  <INSTRUMENT TYPE>  (5129) 
EI-B

>  <INSTRUMENT>  (5129) 
JEOL JMS-01-SG

>  <ION MODE>  (5129) 
P

>  <INCHIKEY>  (5129) 
NMMIHXMBOZYNET-UHFFFAOYSA-N

>  <FORMULA>  (5129) 
C7H7NO2

>  <EXACT MASS>  (5129) 
137.047678464

>  <MW>  (5129) 
137

>  <ID>  (5129) 
JP004229

>  <CONTRIBUTOR>  (5129) 
University of Tokyo Team, {Faculty of Engineering, University of Tokyo

>  <COMMENT>  (5129) 
SMILES=COC(=O)c(c1)nccc1
InChI=InChI=1S/C7H7NO2/c1-10-7(9)6-4-2-3-5-8-6/h2-5H,1H3
computed SMILES=O=C(OC)C1=NC=CC=C1
accession=JP004229
date=2016.01.19 (Created 2008.10.21, modified 2011.05.06)
author=KOGA M, UNIV. OF OCCUPATIONAL AND ENVIRONMENTAL HEALTH
license=CC BY-NC-SA
exact mass=137.04768
ionization energy=70 eV
ion type=[M]+*
computed spectral entropy=1.7735058526188492
computed normalized entropy=0.6396570246401917
SPLASH=splash10-004i-9200000000-2f12ad4be9d681ee2d43
submitter=submitter = University of Tokyo Team (Faculty of Engineering, University of Tokyo)
MoNA Rating=3.75

>  <NUM PEAKS>  (5129) 
16

>  <MASS SPECTRAL PEAKS>  (5129) 
49 1.4
50 8.8
51 31.3
52 1.43
53 1.9
65 1.4
66 1.4
76 0.19
77 1.4
78 77
79 99.99
80 0.64
106 12.6
107 35.6
108 2.6
137 5.2

$$$$

     RDKit          2D

 18 19  0  0  0  0  0  0  0  0999 V2000
   -5.1970    1.5006    0.0000 C   0  0  0  0  0  0  0  0  0  0  0  0
    7.7948   -3.0010    0.0000 C   0  0  0  0  0  0  0  0  0  0  0  0
    6.4952   -3.7517    0.0000 C   0  0  0  0  0  0  0  0  0  0  0  0
    7.7956   -1.5002    0.0000 C   0  0  0  0  0  0  0  0  0  0  0  0
    5.1963   -3.0015    0.0000 C   0  0  0  0  0  0  0  0  0  0  0  0
    6.4966   -0.7500    0.0000 C   0  0  0  0  0  0  0  0  0  0  0  0
   -1.3000   -0.7500    0.0000 C   0  0  0  0  0  0  0  0  0  0  0  0
    0.0000    1.5000    0.0000 C   0  0  0  0  0  0  0  0  0  0  0  0
    0.0000   -1.5000    0.0000 C   0  0  0  0  0  0  0  0  0  0  0  0
    1.3000    0.7500    0.0000 C   0  0  0  0  0  0  0  0  0  0  0  0
   -1.3000    0.7500    0.0000 C   0  0  0  0  0  0  0  0  0  0  0  0
    5.1970   -1.5006    0.0000 C   0  0  0  0  0  0  0  0  0  0  0  0
    1.3000   -0.7500    0.0000 C   0  0  0  0  0  0  0  0  0  0  0  0
   -2.5989    1.5002    0.0000 C   0  0  0  0  0  0  0  0  0  0  0  0
    3.8981   -0.7504    0.0000 N   0  0  0  0  0  0  0  0  0  0  0  0
    2.5989   -1.5002    0.0000 N   0  0  0  0  0  0  0  0  0  0  0  0
   -2.5987    3.0002    0.0000 O   0  0  0  0  0  0  0  0  0  0  0  0
   -3.8981    0.7504    0.0000 O   0  0  0  0  0  0  0  0  0  0  0  0
  3  2  2  0
  4  2  1  0
  5  3  1  0
  6  4  2  0
  9  7  2  0
 10  8  1  0
 11  7  1  0
 11  8  2  0
 12  5  2  0
 12  6  1  0
 13  9  1  0
 13 10  2  0
 14 11  1  0
 15 12  1  0
 16 13  1  0
 15 16  2  0
 17 14  2  0
 18  1  1  0
 18 14  1  0
M  END
>  <NAME>  (5130) 
4-PHENYLAZOBENZOIC ACID METHYL ESTER

>  <SYNONYMS>  (5130) 
AZOBENZENE-4-CARBOXYLIC ACID METHYL ESTER

>  <SPECTRUM TYPE>  (5130) 
MS1

>  <INSTRUMENT TYPE>  (5130) 
EI-B

>  <INSTRUMENT>  (5130) 
JEOL JMS-01-SG

>  <ION MODE>  (5130) 
P

>  <INCHIKEY>  (5130) 
SUFXZYCPKGRJIZ-FOCLMDBBSA-N

>  <FORMULA>  (5130) 
C14H12N2O2

>  <EXACT MASS>  (5130) 
240.089877624

>  <MW>  (5130) 
240

>  <ID>  (5130) 
JP004228

>  <CONTRIBUTOR>  (5130) 
University of Tokyo Team, {Faculty of Engineering, University of Tokyo

>  <COMMENT>  (5130) 
SMILES=COC(=O)c(c1)ccc(N=Nc(c2)cccc2)c1
InChI=InChI=1S/C14H12N2O2/c1-18-14(17)11-7-9-13(10-8-11)16-15-12-5-3-2-4-6-12/h2-10H,1H3/b16-15+
computed SMILES=O=C(OC)C1=CC=C(N=NC=2C=CC=CC2)C=C1
accession=JP004228
date=2016.01.19 (Created 2008.10.21, modified 2011.05.06)
author=KOGA M, UNIV. OF OCCUPATIONAL AND ENVIRONMENTAL HEALTH
license=CC BY-NC-SA
exact mass=240.08988
ionization energy=70 eV
ion type=[M]+*
computed spectral entropy=2.4026809804810116
computed normalized entropy=0.7290048258346825
SPLASH=splash10-004i-9720000000-e0cb8db324687f4bb968
submitter=submitter = University of Tokyo Team (Faculty of Engineering, University of Tokyo)
MoNA Rating=3.75

>  <NUM PEAKS>  (5130) 
27

>  <MASS SPECTRAL PEAKS>  (5130) 
50 7.1
51 13.8
63 3
64 0.3
65 2.7
75 4.7
76 9.1
77 99.99
78 7.4
79 1.6
92 4.4
103 1.35
104 5.7
105 40
106 2.3
119 0.33
120 6.7
135 47.1
136 4
151 0.16
152 7.1
153 4
163 9.4
209 0.47
240 33.5
241 5
242 2.3

$$$$

     RDKit          2D

 18 18  0  0  0  0  0  0  0  0999 V2000
   -5.1970    1.5006    0.0000 C   0  0  0  0  0  0  0  0  0  0  0  0
    1.2990    5.2500    0.0000 C   0  0  0  0  0  0  0  0  0  0  0  0
   -1.3000    0.7500    0.0000 C   0  0  0  0  0  0  0  0  0  0  0  0
    0.0000    1.5000    0.0000 C   0  0  0  0  0  0  0  0  0  0  0  0
   -1.3000   -0.7500    0.0000 C   0  0  0  0  0  0  0  0  0  0  0  0
    1.3000    0.7500    0.0000 C   0  0  0  0  0  0  0  0  0  0  0  0
   -0.0000   -1.5000    0.0000 C   0  0  0  0  0  0  0  0  0  0  0  0
    1.3000   -0.7500    0.0000 C   0  0  0  0  0  0  0  0  0  0  0  0
   -2.5989    1.5002    0.0000 C   0  0  0  0  0  0  0  0  0  0  0  0
    0.0000    3.0000    0.0000 C   0  0  0  0  0  0  0  0  0  0  0  0
   -2.5989   -1.5002    0.0000 Br  0  0  0  0  0  0  0  0  0  0  0  0
    2.5989    1.5002    0.0000 Br  0  0  0  0  0  0  0  0  0  0  0  0
   -0.0000   -3.0000    0.0000 Br  0  0  0  0  0  0  0  0  0  0  0  0
    2.5989   -1.5002    0.0000 Br  0  0  0  0  0  0  0  0  0  0  0  0
   -2.5987    3.0002    0.0000 O   0  0  0  0  0  0  0  0  0  0  0  0
   -1.2990    3.7500    0.0000 O   0  0  0  0  0  0  0  0  0  0  0  0
   -3.8981    0.7504    0.0000 O   0  0  0  0  0  0  0  0  0  0  0  0
    1.2990    3.7500    0.0000 O   0  0  0  0  0  0  0  0  0  0  0  0
  4  3  2  0
  5  3  1  0
  6  4  1  0
  7  5  2  0
  8  6  2  0
  8  7  1  0
  9  3  1  0
 10  4  1  0
 11  5  1  0
 12  6  1  0
 13  7  1  0
 14  8  1  0
 15  9  2  0
 16 10  2  0
 17  1  1  0
 17  9  1  0
 18  2  1  0
 18 10  1  0
M  END
>  <NAME>  (5131) 
TETRABROMOPHTHALIC ACID DIMETHYL ESTER

>  <SYNONYMS>  (5131) 
3,4,5,6-TETRABROMO-1,2-BENZENEDICARBOXYLICACID DIMETHYL ESTER

>  <SPECTRUM TYPE>  (5131) 
MS1

>  <INSTRUMENT TYPE>  (5131) 
EI-B

>  <INSTRUMENT>  (5131) 
JEOL JMS-01-SG

>  <ION MODE>  (5131) 
P

>  <INCHIKEY>  (5131) 
GNBQLLNMXUOVRU-UHFFFAOYSA-N

>  <FORMULA>  (5131) 
C10H6Br4O4

>  <EXACT MASS>  (5131) 
505.699957072

>  <MW>  (5131) 
505

>  <ID>  (5131) 
JP004226

>  <CONTRIBUTOR>  (5131) 
University of Tokyo Team, {Faculty of Engineering, University of Tokyo

>  <COMMENT>  (5131) 
SMILES=COC(=O)c(c(Br)1)c(C(=O)OC)c(Br)c(Br)c(Br)1
InChI=InChI=1S/C10H6Br4O4/c1-17-9(15)3-4(10(16)18-2)6(12)8(14)7(13)5(3)11/h1-2H3
computed SMILES=O=C(OC)C=1C(Br)=C(Br)C(Br)=C(Br)C1C(=O)OC
accession=JP004226
date=2016.01.19 (Created 2008.10.21, modified 2011.05.06)
author=KOGA M, UNIV. OF OCCUPATIONAL AND ENVIRONMENTAL HEALTH
license=CC BY-NC-SA
exact mass=505.69996
ionization energy=70 eV
ion type=[M]+*
computed spectral entropy=2.37205557858062
computed normalized entropy=0.6619347125880055
SPLASH=splash10-004i-0000920000-b97057b982255fcf35c1
submitter=submitter = University of Tokyo Team (Faculty of Engineering, University of Tokyo)
MoNA Rating=3.75

>  <NUM PEAKS>  (5131) 
36

>  <MASS SPECTRAL PEAKS>  (5131) 
71 1
72 4.3
79 2.1
85 0.1
95 2.1
151 3.2
153 3.2
168 0.32
230 1
232 7.6
233 1
234 0.1
262 2.1
311 1
313 1
339 0.43
341 5.4
355 1
419 1
433 0.1
435 3.2
475 14.2
477 68.1
478 0.54
479 99.99
480 8.7
481 64.8
482 0.65
483 14.2
506 3.2
507 1
508 1.97
510 31.8
511 2.1
512 21.9
514 3.2

$$$$

     RDKit          2D

 18 18  0  0  0  0  0  0  0  0999 V2000
   -5.1970    1.5006    0.0000 C   0  0  0  0  0  0  0  0  0  0  0  0
    1.2990    5.2500    0.0000 C   0  0  0  0  0  0  0  0  0  0  0  0
   -1.3000    0.7500    0.0000 C   0  0  0  0  0  0  0  0  0  0  0  0
    0.0000    1.5000    0.0000 C   0  0  0  0  0  0  0  0  0  0  0  0
   -1.3000   -0.7500    0.0000 C   0  0  0  0  0  0  0  0  0  0  0  0
    1.3000    0.7500    0.0000 C   0  0  0  0  0  0  0  0  0  0  0  0
   -0.0000   -1.5000    0.0000 C   0  0  0  0  0  0  0  0  0  0  0  0
    1.3000   -0.7500    0.0000 C   0  0  0  0  0  0  0  0  0  0  0  0
   -2.5989    1.5002    0.0000 C   0  0  0  0  0  0  0  0  0  0  0  0
    0.0000    3.0000    0.0000 C   0  0  0  0  0  0  0  0  0  0  0  0
   -2.5989   -1.5002    0.0000 Cl  0  0  0  0  0  0  0  0  0  0  0  0
    2.5989    1.5002    0.0000 Cl  0  0  0  0  0  0  0  0  0  0  0  0
   -0.0000   -3.0000    0.0000 Cl  0  0  0  0  0  0  0  0  0  0  0  0
    2.5989   -1.5002    0.0000 Cl  0  0  0  0  0  0  0  0  0  0  0  0
   -2.5987    3.0002    0.0000 O   0  0  0  0  0  0  0  0  0  0  0  0
   -1.2990    3.7500    0.0000 O   0  0  0  0  0  0  0  0  0  0  0  0
   -3.8981    0.7504    0.0000 O   0  0  0  0  0  0  0  0  0  0  0  0
    1.2990    3.7500    0.0000 O   0  0  0  0  0  0  0  0  0  0  0  0
  4  3  2  0
  5  3  1  0
  6  4  1  0
  7  5  2  0
  8  6  2  0
  8  7  1  0
  9  3  1  0
 10  4  1  0
 11  5  1  0
 12  6  1  0
 13  7  1  0
 14  8  1  0
 15  9  2  0
 16 10  2  0
 17  1  1  0
 17  9  1  0
 18  2  1  0
 18 10  1  0
M  END
>  <NAME>  (5132) 
TETRACHLOROPHTHALIC ACID DIMETHY ESTER

>  <SYNONYMS>  (5132) 
3,4,5,6-TETRACHLORO-1,2-BENZENEDICARBOXYLIC ACID DIMETHYL ESTER

>  <SPECTRUM TYPE>  (5132) 
MS1

>  <INSTRUMENT TYPE>  (5132) 
EI-B

>  <INSTRUMENT>  (5132) 
JEOL JMS-01-SG

>  <ION MODE>  (5132) 
P

>  <INCHIKEY>  (5132) 
CXWWOTMXNBKMBO-UHFFFAOYSA-N

>  <FORMULA>  (5132) 
C10H6Cl4O4

>  <EXACT MASS>  (5132) 
329.902019392

>  <MW>  (5132) 
330

>  <ID>  (5132) 
JP004225

>  <CONTRIBUTOR>  (5132) 
University of Tokyo Team, {Faculty of Engineering, University of Tokyo

>  <COMMENT>  (5132) 
SMILES=COC(=O)c(c(Cl)1)c(C(=O)OC)c(Cl)c(Cl)c(Cl)1
cas=20098-41-3
InChI=InChI=1S/C10H6Cl4O4/c1-17-9(15)3-4(10(16)18-2)6(12)8(14)7(13)5(3)11/h1-2H3
computed SMILES=O=C(OC)C=1C(Cl)=C(Cl)C(Cl)=C(Cl)C1C(=O)OC
accession=JP004225
date=2016.01.19 (Created 2008.10.21, modified 2011.05.06)
author=KOGA M, UNIV. OF OCCUPATIONAL AND ENVIRONMENTAL HEALTH
license=CC BY-NC-SA
exact mass=329.90202
ionization energy=70 eV
ion type=[M]+*
computed spectral entropy=2.726621258502843
computed normalized entropy=0.7043347144258426
SPLASH=splash10-0udi-0129000000-a9271b2f4df57a4cec8d
submitter=submitter = University of Tokyo Team (Faculty of Engineering, University of Tokyo)
MoNA Rating=3.75

>  <NUM PEAKS>  (5132) 
48

>  <MASS SPECTRAL PEAKS>  (5132) 
107 4
108 1.2
109 1.5
115 0.12
118 1.2
135 1.2
142 6.4
143 0.12
144 4
167 1.2
177 3.7
178 0.18
179 3.7
180 1.8
181 1.2
205 0.15
207 1.8
212 2.7
213 1.2
214 0.4
215 1.8
216 1.2
221 1.2
228 0.15
230 2.4
240 2.4
242 2.7
243 0.12
244 1.2
256 4.6
258 5.8
260 0.27
269 3
271 4.6
273 3
299 7.46
300 8
301 99.99
302 9.8
303 4.69
304 4
305 10.1
330 13.5
331 0.12
332 16.6
333 1.2
334 8
336 1.5

$$$$

     RDKit          2D

 13 13  0  0  0  0  0  0  0  0999 V2000
    4.2219   -1.7625    0.0000 C   0  0  0  0  0  0  0  0  0  0  0  0
   -2.2738   -1.0133    0.0000 C   0  0  0  0  0  0  0  0  0  0  0  0
   -0.9738    1.2383    0.0000 C   0  0  0  0  0  0  0  0  0  0  0  0
   -2.2733    0.4875    0.0000 C   0  0  0  0  0  0  0  0  0  0  0  0
   -0.9748   -1.7633    0.0000 C   0  0  0  0  0  0  0  0  0  0  0  0
    0.3252    0.4883    0.0000 C   0  0  0  0  0  0  0  0  0  0  0  0
    0.3248   -1.0125    0.0000 C   0  0  0  0  0  0  0  0  0  0  0  0
    1.6238   -1.7625    0.0000 C   0  0  0  0  0  0  0  0  0  0  0  0
   -3.5724    1.2375    0.0000 O   0  0  0  0  0  0  0  0  0  0  0  0
   -0.9745   -3.2633    0.0000 O   0  0  0  0  0  0  0  0  0  0  0  0
    1.6244    1.2381    0.0000 O   0  0  0  0  0  0  0  0  0  0  0  0
    1.6238   -3.2625    0.0000 O   0  0  0  0  0  0  0  0  0  0  0  0
    2.9228   -1.0125    0.0000 O   0  0  0  0  0  0  0  0  0  0  0  0
  4  2  2  0
  4  3  1  0
  5  2  1  0
  6  3  2  0
  7  5  2  0
  7  6  1  0
  8  7  1  0
  9  4  1  0
 10  5  1  0
 11  6  1  0
 12  8  2  0
 13  1  1  0
 13  8  1  0
M  END
>  <NAME>  (5133) 
2,4,6-TRIHYDROXYBENZOIC ACID METHYL ESTER

>  <SYNONYMS>  (5133) 


>  <SPECTRUM TYPE>  (5133) 
MS1

>  <INSTRUMENT TYPE>  (5133) 
EI-B

>  <INSTRUMENT>  (5133) 
JEOL JMS-01-SG

>  <ION MODE>  (5133) 
P

>  <INCHIKEY>  (5133) 
AQDIJIAUYXOCGX-UHFFFAOYSA-N

>  <FORMULA>  (5133) 
C8H8O5

>  <EXACT MASS>  (5133) 
184.03717335599998

>  <MW>  (5133) 
184

>  <ID>  (5133) 
JP004224

>  <CONTRIBUTOR>  (5133) 
University of Tokyo Team, {Faculty of Engineering, University of Tokyo

>  <COMMENT>  (5133) 
SMILES=COC(=O)c(c(O)1)c(O)cc(O)c1
InChI=InChI=1S/C8H8O5/c1-13-8(12)7-5(10)2-4(9)3-6(7)11/h2-3,9-11H,1H3
computed SMILES=O=C(OC)C=1C(O)=CC(O)=CC1O
accession=JP004224
date=2016.01.19 (Created 2008.10.21, modified 2011.05.06)
author=KOGA M, UNIV. OF OCCUPATIONAL AND ENVIRONMENTAL HEALTH
license=CC BY-NC-SA
exact mass=184.03717
ionization energy=70 eV
ion type=[M]+*
computed spectral entropy=2.2042716705349137
computed normalized entropy=0.6765519820580528
SPLASH=splash10-0uk9-2900000000-a967a5daaac430383f14
submitter=submitter = University of Tokyo Team (Faculty of Engineering, University of Tokyo)
MoNA Rating=3.75

>  <NUM PEAKS>  (5133) 
26

>  <MASS SPECTRAL PEAKS>  (5133) 
38 2.4
39 4.3
41 1.8
42 0.62
50 6.2
51 3.1
53 5.5
55 0.31
65 3.1
66 1.8
67 4.9
68 0.18
69 18.6
78 7.4
95 4.3
96 1.42
110 1.8
111 6.8
115 4.9
123 0.62
124 50.3
125 1.8
152 99.99
153 2.29
184 44.7
185 6.2

$$$$

     RDKit          2D

 16 16  0  0  0  0  0  0  0  0999 V2000
    1.9484   -3.0756    0.0000 C   0  0  0  0  0  0  0  0  0  0  0  0
    4.5471    1.4254    0.0000 C   0  0  0  0  0  0  0  0  0  0  0  0
    4.5466   -0.0750    0.0000 C   0  0  0  0  0  0  0  0  0  0  0  0
   -4.5466    2.1750    0.0000 C   0  0  0  0  0  0  0  0  0  0  0  0
   -0.6500   -0.0758    0.0000 C   0  0  0  0  0  0  0  0  0  0  0  0
    0.6500    2.1758    0.0000 C   0  0  0  0  0  0  0  0  0  0  0  0
   -0.6495    1.4250    0.0000 C   0  0  0  0  0  0  0  0  0  0  0  0
    0.6490   -0.8258    0.0000 C   0  0  0  0  0  0  0  0  0  0  0  0
    1.9490    1.4258    0.0000 C   0  0  0  0  0  0  0  0  0  0  0  0
    1.9486   -0.0750    0.0000 C   0  0  0  0  0  0  0  0  0  0  0  0
   -1.9486    2.1750    0.0000 C   0  0  0  0  0  0  0  0  0  0  0  0
   -1.9486    3.6750    0.0000 O   0  0  0  0  0  0  0  0  0  0  0  0
    0.6493   -2.3258    0.0000 O   0  0  0  0  0  0  0  0  0  0  0  0
    3.2482    2.1756    0.0000 O   0  0  0  0  0  0  0  0  0  0  0  0
    3.2476   -0.8250    0.0000 O   0  0  0  0  0  0  0  0  0  0  0  0
   -3.2476    1.4250    0.0000 O   0  0  0  0  0  0  0  0  0  0  0  0
  7  5  2  0
  7  6  1  0
  8  5  1  0
  9  6  2  0
 10  8  2  0
 10  9  1  0
 11  7  1  0
 12 11  2  0
 13  1  1  0
 13  8  1  0
 14  2  1  0
 14  9  1  0
 15  3  1  0
 15 10  1  0
 16  4  1  0
 16 11  1  0
M  END
>  <NAME>  (5134) 
3,4,5-TRIMETHOXYBENZOIC ACID METHYL ESTER

>  <SYNONYMS>  (5134) 


>  <SPECTRUM TYPE>  (5134) 
MS1

>  <INSTRUMENT TYPE>  (5134) 
EI-B

>  <INSTRUMENT>  (5134) 
JEOL JMS-01-SG

>  <ION MODE>  (5134) 
P

>  <INCHIKEY>  (5134) 
KACHFMOHOPLTNX-UHFFFAOYSA-N

>  <FORMULA>  (5134) 
C11H14O5

>  <EXACT MASS>  (5134) 
226.08412354799998

>  <MW>  (5134) 
226

>  <ID>  (5134) 
JP004223

>  <CONTRIBUTOR>  (5134) 
University of Tokyo Team, {Faculty of Engineering, University of Tokyo

>  <COMMENT>  (5134) 
SMILES=COC(=O)c(c1)cc(OC)c(OC)c(OC)1
cas=1916-07-0
InChI=InChI=1S/C11H14O5/c1-13-8-5-7(11(12)16-4)6-9(14-2)10(8)15-3/h5-6H,1-4H3
computed SMILES=O=C(OC)C1=CC(OC)=C(OC)C(OC)=C1
accession=JP004223
date=2016.01.19 (Created 2008.10.21, modified 2011.05.06)
author=KOGA M, UNIV. OF OCCUPATIONAL AND ENVIRONMENTAL HEALTH
license=CC BY-NC-SA
exact mass=226.08412
ionization energy=70 eV
ion type=[M]+*
computed spectral entropy=3.3676450111820055
computed normalized entropy=0.8038001263925544
SPLASH=splash10-03di-4960000000-d020b1a20eb2e37b748a
submitter=submitter = University of Tokyo Team (Faculty of Engineering, University of Tokyo)
MoNA Rating=3.75

>  <NUM PEAKS>  (5134) 
66

>  <MASS SPECTRAL PEAKS>  (5134) 
38 5.6
39 5
50 6.2
51 0.16
53 7.3
59 11.3
63 3.3
64 0.16
65 4.2
66 11
67 1.6
69 0.45
75 2.5
76 2.2
77 7.9
78 0.36
79 7.3
81 7.9
91 1.4
92 0.39
93 3.6
94 1.6
95 5.6
96 0.16
97 1.4
106 1.4
107 10.1
108 0.39
109 7.9
110 1.4
112 1.4
113 0.16
119 2.5
121 1.9
122 5
123 0.84
124 11
125 11.8
134 1.4
135 0.42
136 3.3
137 7.3
139 3.6
140 0.67
149 1.4
150 1.9
151 17.5
152 0.99
153 9
155 32.2
156 2.5
165 0.53
166 5.6
167 6.5
168 8.4
169 0.19
179 3.9
183 17.5
184 1.4
195 4.53
196 7.3
211 99.99
212 11
226 4.7
227 21.2
228 2.8

$$$$

     RDKit          2D

  9  8  0  0  0  0  0  0  0  0999 V2000
    1.9486    3.3750    0.0000 C   0  0  0  0  0  0  0  0  0  0  0  0
   -1.9486    5.6250    0.0000 C   0  0  0  0  0  0  0  0  0  0  0  0
   -5.8457    3.3750    0.0000 C   0  0  0  0  0  0  0  0  0  0  0  0
    0.6495    4.1250    0.0000 C   0  0  0  0  0  0  0  0  0  0  0  0
   -0.6495    3.3750    0.0000 C   0  0  0  0  0  0  0  0  0  0  0  0
   -1.9486    4.1250    0.0000 C   0  0  0  0  0  0  0  0  0  0  0  0
   -3.2476    3.3750    0.0000 C   0  0  0  0  0  0  0  0  0  0  0  0
   -3.2476    1.8750    0.0000 O   0  0  0  0  0  0  0  0  0  0  0  0
   -4.5466    4.1250    0.0000 O   0  0  0  0  0  0  0  0  0  0  0  0
  4  1  1  0
  5  4  1  0
  6  2  1  0
  6  5  1  0
  7  6  1  0
  8  7  2  0
  9  3  1  0
  9  7  1  0
M  END
>  <NAME>  (5135) 
2-METHYLPENTANOIC ACID METHYL ESTER

>  <SYNONYMS>  (5135) 


>  <SPECTRUM TYPE>  (5135) 
MS1

>  <INSTRUMENT TYPE>  (5135) 
EI-B

>  <INSTRUMENT>  (5135) 
JEOL JMS-01-SG

>  <ION MODE>  (5135) 
P

>  <INCHIKEY>  (5135) 
ZTULNMNIVVMLIU-UHFFFAOYSA-N

>  <FORMULA>  (5135) 
C7H14O2

>  <EXACT MASS>  (5135) 
130.099379688

>  <MW>  (5135) 
130

>  <ID>  (5135) 
JP004222

>  <CONTRIBUTOR>  (5135) 
University of Tokyo Team, {Faculty of Engineering, University of Tokyo

>  <COMMENT>  (5135) 
SMILES=CCCC(C)C(=O)OC
cas=2177-77-7
InChI=InChI=1S/C7H14O2/c1-4-5-6(2)7(8)9-3/h6H,4-5H2,1-3H3
computed SMILES=O=C(OC)C(C)CCC
accession=JP004222
date=2016.01.19 (Created 2008.10.21, modified 2011.05.06)
author=KOGA M, UNIV. OF OCCUPATIONAL AND ENVIRONMENTAL HEALTH
license=CC BY-NC-SA
exact mass=130.09938
ionization energy=70 eV
ion type=[M]+*
computed spectral entropy=2.046194087510972
computed normalized entropy=0.6720903292278041
SPLASH=splash10-000i-9000000000-fc93ef340b39354866d1
submitter=submitter = University of Tokyo Team (Faculty of Engineering, University of Tokyo)
MoNA Rating=3.75

>  <NUM PEAKS>  (5135) 
21

>  <MASS SPECTRAL PEAKS>  (5135) 
38 2.2
40 11.9
41 5.1
43 4.71
44 6.5
55 9.2
56 6.7
57 2
58 0.9
69 4.2
70 2.4
71 2.41
72 0.9
83 1.3
87 7.9
88 99.99
89 4
99 12.6
101 13.9
102 0.09
115 2.7

$$$$

     RDKit          2D

  9  8  0  0  0  0  0  0  0  0999 V2000
    1.9486    3.3750    0.0000 C   0  0  0  0  0  0  0  0  0  0  0  0
   -5.8457    3.3750    0.0000 C   0  0  0  0  0  0  0  0  0  0  0  0
    0.6495    4.1250    0.0000 C   0  0  0  0  0  0  0  0  0  0  0  0
   -0.6495    3.3750    0.0000 C   0  0  0  0  0  0  0  0  0  0  0  0
   -1.9486    4.1250    0.0000 C   0  0  0  0  0  0  0  0  0  0  0  0
   -3.2476    3.3750    0.0000 C   0  0  0  0  0  0  0  0  0  0  0  0
   -1.9486    5.6250    0.0000 O   0  0  0  0  0  0  0  0  0  0  0  0
   -3.2476    1.8750    0.0000 O   0  0  0  0  0  0  0  0  0  0  0  0
   -4.5466    4.1250    0.0000 O   0  0  0  0  0  0  0  0  0  0  0  0
  3  1  1  0
  4  3  1  0
  5  4  1  0
  6  5  1  0
  7  5  2  0
  8  6  2  0
  9  2  1  0
  9  6  1  0
M  END
>  <NAME>  (5136) 
2-OXOPENTANOIC ACID METHYL ESTER

>  <SYNONYMS>  (5136) 


>  <SPECTRUM TYPE>  (5136) 
MS1

>  <INSTRUMENT TYPE>  (5136) 
EI-B

>  <INSTRUMENT>  (5136) 
JEOL JMS-01-SG

>  <ION MODE>  (5136) 
P

>  <INCHIKEY>  (5136) 
MBNLVYPIKSWXCT-UHFFFAOYSA-N

>  <FORMULA>  (5136) 
C6H10O3

>  <EXACT MASS>  (5136) 
130.06299417999998

>  <MW>  (5136) 
130

>  <ID>  (5136) 
JP004221

>  <CONTRIBUTOR>  (5136) 
University of Tokyo Team, {Faculty of Engineering, University of Tokyo

>  <COMMENT>  (5136) 
SMILES=CCCC(=O)C(=O)OC
InChI=InChI=1S/C6H10O3/c1-3-4-5(7)6(8)9-2/h3-4H2,1-2H3
computed SMILES=O=C(OC)C(=O)CCC
accession=JP004221
date=2016.01.19 (Created 2008.10.21, modified 2011.05.06)
author=KOGA M, UNIV. OF OCCUPATIONAL AND ENVIRONMENTAL HEALTH
license=CC BY-NC-SA
exact mass=130.06299
ionization energy=70 eV
ion type=[M]+*
computed spectral entropy=1.5036445334966457
computed normalized entropy=0.6270684756561014
SPLASH=splash10-006x-9000000000-96f59d5af3920d43daf5
submitter=submitter = University of Tokyo Team (Faculty of Engineering, University of Tokyo)
MoNA Rating=3.75

>  <NUM PEAKS>  (5136) 
11

>  <MASS SPECTRAL PEAKS>  (5136) 
38 3.2
40 33.3
41 5.6
43 99.99
44 2.3
55 6.5
69 1.9
70 0.39
71 87.5
72 4.1
130 8.4

$$$$

     RDKit          2D

 10  9  0  0  0  0  0  0  0  0999 V2000
   -1.9486    5.6250    0.0000 C   0  0  0  0  0  0  0  0  0  0  0  0
    1.9486    3.3750    0.0000 C   0  0  0  0  0  0  0  0  0  0  0  0
   -5.8457    3.3750    0.0000 C   0  0  0  0  0  0  0  0  0  0  0  0
   -1.9486    4.1250    0.0000 C   0  0  0  0  0  0  0  0  0  0  0  0
   -0.6495    3.3750    0.0000 C   0  0  0  0  0  0  0  0  0  0  0  0
   -3.2476    3.3750    0.0000 C   0  0  0  0  0  0  0  0  0  0  0  0
   -0.6495    1.8750    0.0000 O   0  0  0  0  0  0  0  0  0  0  0  0
   -3.2476    1.8750    0.0000 O   0  0  0  0  0  0  0  0  0  0  0  0
    0.6495    4.1250    0.0000 O   0  0  0  0  0  0  0  0  0  0  0  0
   -4.5466    4.1250    0.0000 O   0  0  0  0  0  0  0  0  0  0  0  0
  4  1  1  0
  5  4  1  0
  6  4  1  0
  7  5  2  0
  8  6  2  0
  9  2  1  0
  9  5  1  0
 10  3  1  0
 10  6  1  0
M  END
>  <NAME>  (5137) 
METHYLMALONIC ACID DIMETHYL ESTER

>  <SYNONYMS>  (5137) 


>  <SPECTRUM TYPE>  (5137) 
MS1

>  <INSTRUMENT TYPE>  (5137) 
EI-B

>  <INSTRUMENT>  (5137) 
JEOL JMS-01-SG

>  <ION MODE>  (5137) 
P

>  <INCHIKEY>  (5137) 
LRBPFPZTIZSOGG-UHFFFAOYSA-N

>  <FORMULA>  (5137) 
C6H10O4

>  <EXACT MASS>  (5137) 
146.0579088

>  <MW>  (5137) 
146

>  <ID>  (5137) 
JP004220

>  <CONTRIBUTOR>  (5137) 
University of Tokyo Team, {Faculty of Engineering, University of Tokyo

>  <COMMENT>  (5137) 
SMILES=COC(=O)C(C)C(=O)OC
cas=609-02-9
InChI=InChI=1S/C6H10O4/c1-4(5(7)9-2)6(8)10-3/h4H,1-3H3
computed SMILES=O=C(OC)C(C(=O)OC)C
accession=JP004220
date=2016.01.19 (Created 2008.10.21, modified 2011.05.06)
author=KOGA M, UNIV. OF OCCUPATIONAL AND ENVIRONMENTAL HEALTH
license=CC BY-NC-SA
exact mass=146.05791
ionization energy=70 eV
ion type=[M]+*
computed spectral entropy=2.2393758836163524
computed normalized entropy=0.704637492993999
SPLASH=splash10-0aor-9400000000-672b97afb0daab281778
submitter=submitter = University of Tokyo Team (Faculty of Engineering, University of Tokyo)
MoNA Rating=3.75

>  <NUM PEAKS>  (5137) 
24

>  <MASS SPECTRAL PEAKS>  (5137) 
40 12.2
41 1.3
43 23
44 0.13
45 3.7
55 24.5
56 21.4
57 3.42
58 1.7
59 99.99
60 2.6
72 2.52
73 1
83 3.5
86 1
87 3.53
88 4.8
91 1.5
101 8.5
102 1.64
114 23.9
115 75.4
116 3.5
146 4.3

$$$$

     RDKit          2D

  8  7  0  0  0  0  0  0  0  0999 V2000
    1.9486    2.6250    0.0000 C   0  0  0  0  0  0  0  0  0  0  0  0
   -0.6495    1.1250    0.0000 C   0  0  0  0  0  0  0  0  0  0  0  0
   -4.5466    3.3750    0.0000 C   0  0  0  0  0  0  0  0  0  0  0  0
    0.6495    3.3750    0.0000 C   0  0  0  0  0  0  0  0  0  0  0  0
   -0.6495    2.6250    0.0000 C   0  0  0  0  0  0  0  0  0  0  0  0
   -1.9486    3.3750    0.0000 C   0  0  0  0  0  0  0  0  0  0  0  0
   -1.9486    4.8750    0.0000 O   0  0  0  0  0  0  0  0  0  0  0  0
   -3.2476    2.6250    0.0000 O   0  0  0  0  0  0  0  0  0  0  0  0
  4  1  1  0
  5  2  1  0
  4  5  2  0
  6  5  1  0
  7  6  2  0
  8  3  1  0
  8  6  1  0
M  END
>  <NAME>  (5138) 
(E)-2-METHYLCROTONIC ACID METHYL ESTER

>  <SYNONYMS>  (5138) 
TIGLIC ACID METHYL ESTER

>  <SPECTRUM TYPE>  (5138) 
MS1

>  <INSTRUMENT TYPE>  (5138) 
EI-B

>  <INSTRUMENT>  (5138) 
JEOL JMS-01-SG

>  <ION MODE>  (5138) 
P

>  <INCHIKEY>  (5138) 
YYJWBYNQJLBIGS-SNAWJCMRSA-N

>  <FORMULA>  (5138) 
C6H10O2

>  <EXACT MASS>  (5138) 
114.06807956

>  <MW>  (5138) 
114

>  <ID>  (5138) 
JP004219

>  <CONTRIBUTOR>  (5138) 
University of Tokyo Team, {Faculty of Engineering, University of Tokyo

>  <COMMENT>  (5138) 
SMILES=COC(=O)C(C)=C([H])C
cas=6622-76-0
InChI=InChI=1S/C6H10O2/c1-4-5(2)6(7)8-3/h4H,1-3H3/b5-4+
computed SMILES=O=C(OC)C(=CC)C
accession=JP004219
date=2016.01.19 (Created 2008.10.21, modified 2011.05.06)
author=KOGA M, UNIV. OF OCCUPATIONAL AND ENVIRONMENTAL HEALTH
license=CC BY-NC-SA
exact mass=114.06808
ionization energy=70 eV
ion type=[M]+*
computed spectral entropy=1.752398442691749
computed normalized entropy=0.6640243934932731
SPLASH=splash10-0bu0-9200000000-480300cd80badc159791
submitter=submitter = University of Tokyo Team (Faculty of Engineering, University of Tokyo)
MoNA Rating=3.75

>  <NUM PEAKS>  (5138) 
14

>  <MASS SPECTRAL PEAKS>  (5138) 
38 4.4
50 1.9
51 4.4
53 1.21
54 12.8
55 99.99
56 4.4
71 0.25
82 16.6
83 64.7
84 3.8
99 1.73
114 60.2
115 3.8

$$$$

     RDKit          2D

  9  8  0  0  0  0  0  0  0  0999 V2000
    2.2733    2.8125    0.0000 C   0  0  0  0  0  0  0  0  0  0  0  0
    0.9743    5.0625    0.0000 C   0  0  0  0  0  0  0  0  0  0  0  0
   -5.5209    2.8125    0.0000 C   0  0  0  0  0  0  0  0  0  0  0  0
   -0.3248    2.8125    0.0000 C   0  0  0  0  0  0  0  0  0  0  0  0
   -1.6238    3.5625    0.0000 C   0  0  0  0  0  0  0  0  0  0  0  0
    0.9743    3.5625    0.0000 C   0  0  0  0  0  0  0  0  0  0  0  0
   -2.9228    2.8125    0.0000 C   0  0  0  0  0  0  0  0  0  0  0  0
   -2.9228    1.3125    0.0000 O   0  0  0  0  0  0  0  0  0  0  0  0
   -4.2219    3.5625    0.0000 O   0  0  0  0  0  0  0  0  0  0  0  0
  4  5  2  0
  6  1  1  0
  6  2  1  0
  6  4  1  0
  7  5  1  0
  8  7  2  0
  9  3  1  0
  9  7  1  0
M  END
>  <NAME>  (5139) 
4-METHYL-2-PENTENOIC ACID METHYL ESTER

>  <SYNONYMS>  (5139) 


>  <SPECTRUM TYPE>  (5139) 
MS1

>  <INSTRUMENT TYPE>  (5139) 
EI-B

>  <INSTRUMENT>  (5139) 
JEOL JMS-01-SG

>  <ION MODE>  (5139) 
P

>  <INCHIKEY>  (5139) 
YVOAQDZUARKSRL-SNAWJCMRSA-N

>  <FORMULA>  (5139) 
C7H12O2

>  <EXACT MASS>  (5139) 
128.083729624

>  <MW>  (5139) 
128

>  <ID>  (5139) 
JP004218

>  <CONTRIBUTOR>  (5139) 
University of Tokyo Team, {Faculty of Engineering, University of Tokyo

>  <COMMENT>  (5139) 
SMILES=COC(=O)C=CC(C)C
cas=50652-78-3
InChI=InChI=1S/C7H12O2/c1-6(2)4-5-7(8)9-3/h4-6H,1-3H3/b5-4+
computed SMILES=O=C(OC)C=CC(C)C
accession=JP004218
date=2016.01.19 (Created 2008.10.21, modified 2011.05.06)
author=KOGA M, UNIV. OF OCCUPATIONAL AND ENVIRONMENTAL HEALTH
license=CC BY-NC-SA
exact mass=128.08373
ionization energy=70 eV
ion type=[M]+*
computed spectral entropy=2.6976748184467914
computed normalized entropy=0.7470883813227762
SPLASH=splash10-00kg-9000000000-7a9a31696e669a6bd3da
submitter=submitter = University of Tokyo Team (Faculty of Engineering, University of Tokyo)
MoNA Rating=3.75

>  <NUM PEAKS>  (5139) 
37

>  <MASS SPECTRAL PEAKS>  (5139) 
38 6.6
39 1.4
40 99.99
41 0.59
43 14
45 1.4
50 2.1
51 0.49
52 1.7
53 20.3
54 4.5
55 1.54
56 2.1
57 2.4
59 13.3
65 0.17
67 15.4
68 19.2
69 71.9
70 0.42
71 4.9
73 42.4
74 2.4
81 2.38
82 3.1
85 8
86 1.7
87 0.87
95 9.8
96 21
97 55.4
98 0.35
113 24.5
114 1.4
127 1.4
128 5.78
129 4.5

$$$$

     RDKit          2D

  8  7  0  0  0  0  0  0  0  0999 V2000
   -4.2219    2.8125    0.0000 C   0  0  0  0  0  0  0  0  0  0  0  0
   -1.6238    2.8125    0.0000 C   0  0  0  0  0  0  0  0  0  0  0  0
   -0.3248    2.0625    0.0000 C   0  0  0  0  0  0  0  0  0  0  0  0
   -1.0748    0.7635    0.0000 Br  0  0  0  0  0  0  0  0  0  0  0  0
    0.9743    1.3125    0.0000 Br  0  0  0  0  0  0  0  0  0  0  0  0
    0.4252    3.3615    0.0000 Br  0  0  0  0  0  0  0  0  0  0  0  0
   -1.6238    4.3125    0.0000 O   0  0  0  0  0  0  0  0  0  0  0  0
   -2.9228    2.0625    0.0000 O   0  0  0  0  0  0  0  0  0  0  0  0
  3  2  1  0
  4  3  1  0
  5  3  1  0
  6  3  1  0
  7  2  2  0
  8  1  1  0
  8  2  1  0
M  END
>  <NAME>  (5140) 
TRIBROMOACETIC ACID METHYL ESTER

>  <SYNONYMS>  (5140) 


>  <SPECTRUM TYPE>  (5140) 
MS1

>  <INSTRUMENT TYPE>  (5140) 
EI-B

>  <INSTRUMENT>  (5140) 
JEOL JMS-01-SG

>  <ION MODE>  (5140) 
P

>  <INCHIKEY>  (5140) 
QQHSHLKOWBDOFC-UHFFFAOYSA-N

>  <FORMULA>  (5140) 
C3H3Br3O2

>  <EXACT MASS>  (5140) 
307.768315636

>  <MW>  (5140) 
307

>  <ID>  (5140) 
JP004217

>  <CONTRIBUTOR>  (5140) 
University of Tokyo Team, {Faculty of Engineering, University of Tokyo

>  <COMMENT>  (5140) 
SMILES=COC(=O)C(Br)(Br)Br
InChI=InChI=1S/C3H3Br3O2/c1-8-2(7)3(4,5)6/h1H3
computed SMILES=O=C(OC)C(Br)(Br)Br
accession=JP004217
license=CC BY-NC-SA
date=2016.01.19 (Created 2008.10.21, modified 2011.05.06)
author=KOGA M, UNIV. OF OCCUPATIONAL AND ENVIRONMENTAL HEALTH
exact mass=307.76832
ionization energy=70 eV
ion type=[M]+*
computed spectral entropy=1.8994500857396495
computed normalized entropy=0.6340520154313504
SPLASH=splash10-0a4l-9200000000-e61e093dd7475eb54ffb
submitter=submitter = University of Tokyo Team (Faculty of Engineering, University of Tokyo)
MoNA Rating=3.75

>  <NUM PEAKS>  (5140) 
20

>  <MASS SPECTRAL PEAKS>  (5140) 
38 1.9
40 19
43 32.5
51 0.19
53 3
59 99.99
60 3.7
80 0.17
82 1.7
107 1.7
121 17.6
123 1.65
149 7
151 7.5
173 1.9
187 0.17
213 2.8
215 5.3
216 2.6
217 2.8

$$$$

     RDKit          2D

  8  7  0  0  0  0  0  0  0  0999 V2000
   -1.9486    4.8750    0.0000 C   0  0  0  0  0  0  0  0  0  0  0  0
    1.9486    2.6250    0.0000 C   0  0  0  0  0  0  0  0  0  0  0  0
   -4.5466    3.3750    0.0000 C   0  0  0  0  0  0  0  0  0  0  0  0
   -1.9486    3.3750    0.0000 C   0  0  0  0  0  0  0  0  0  0  0  0
   -0.6495    2.6250    0.0000 C   0  0  0  0  0  0  0  0  0  0  0  0
   -0.6495    1.1250    0.0000 O   0  0  0  0  0  0  0  0  0  0  0  0
    0.6495    3.3750    0.0000 O   0  0  0  0  0  0  0  0  0  0  0  0
   -3.2476    2.6250    0.0000 S   0  0  0  0  0  0  0  0  0  0  0  0
  4  1  1  0
  5  4  1  0
  6  5  2  0
  7  2  1  0
  7  5  1  0
  8  3  1  0
  8  4  1  0
M  END
>  <NAME>  (5141) 
2-METHYLTHIOPROPIONIC ACID METHYL ESTER

>  <SYNONYMS>  (5141) 


>  <SPECTRUM TYPE>  (5141) 
MS1

>  <INSTRUMENT TYPE>  (5141) 
EI-B

>  <INSTRUMENT>  (5141) 
JEOL JMS-01-SG

>  <ION MODE>  (5141) 
P

>  <INCHIKEY>  (5141) 
QMPSBIWJVUCDKV-UHFFFAOYSA-N

>  <FORMULA>  (5141) 
C5H10O2S

>  <EXACT MASS>  (5141) 
134.04015056

>  <MW>  (5141) 
134

>  <ID>  (5141) 
JP004216

>  <CONTRIBUTOR>  (5141) 
University of Tokyo Team, {Faculty of Engineering, University of Tokyo

>  <COMMENT>  (5141) 
SMILES=COC(=O)C(C)SC
InChI=InChI=1S/C5H10O2S/c1-4(8-3)5(6)7-2/h4H,1-3H3
computed SMILES=O=C(OC)C(SC)C
accession=JP004216
date=2016.01.19 (Created 2008.10.21, modified 2011.05.06)
author=KOGA M, UNIV. OF OCCUPATIONAL AND ENVIRONMENTAL HEALTH
license=CC BY-NC-SA
exact mass=134.04015
ionization energy=70 eV
ion type=[M]+*
computed spectral entropy=1.7282074370809881
computed normalized entropy=0.6233190747760418
SPLASH=splash10-004i-9100000000-f18428591ae4efd7debf
submitter=submitter = University of Tokyo Team (Faculty of Engineering, University of Tokyo)
MoNA Rating=3.75

>  <NUM PEAKS>  (5141) 
16

>  <MASS SPECTRAL PEAKS>  (5141) 
40 22.7
44 1.7
46 1.7
47 2.09
49 3.5
55 5.9
56 4.1
57 0.47
60 1.7
75 99.99
76 4.7
77 0.53
87 1.7
88 25.7
134 32.9
135 1.1

$$$$

     RDKit          2D

  7  6  0  0  0  0  0  0  0  0999 V2000
    1.6238    1.6875    0.0000 C   0  0  0  0  0  0  0  0  0  0  0  0
   -3.5724    1.6875    0.0000 C   0  0  0  0  0  0  0  0  0  0  0  0
    0.3248    2.4375    0.0000 C   0  0  0  0  0  0  0  0  0  0  0  0
   -0.9743    1.6875    0.0000 C   0  0  0  0  0  0  0  0  0  0  0  0
   -0.9743    0.1875    0.0000 O   0  0  0  0  0  0  0  0  0  0  0  0
   -2.2733    2.4375    0.0000 O   0  0  0  0  0  0  0  0  0  0  0  0
    0.3248    3.9375    0.0000 S   0  0  0  0  0  0  0  0  0  0  0  0
  3  1  1  0
  4  3  1  0
  5  4  2  0
  6  2  1  0
  6  4  1  0
  7  3  1  0
M  END
>  <NAME>  (5142) 
2-MERCAPTOPROPIONIC ACID METHYL ESTER

>  <SYNONYMS>  (5142) 


>  <SPECTRUM TYPE>  (5142) 
MS1

>  <INSTRUMENT TYPE>  (5142) 
EI-B

>  <INSTRUMENT>  (5142) 
JEOL JMS-01-SG

>  <ION MODE>  (5142) 
P

>  <INCHIKEY>  (5142) 
SNWKNPMDQONHKK-UHFFFAOYSA-N

>  <FORMULA>  (5142) 
C4H8O2S

>  <EXACT MASS>  (5142) 
120.024500496

>  <MW>  (5142) 
120

>  <ID>  (5142) 
JP004215

>  <CONTRIBUTOR>  (5142) 
University of Tokyo Team, {Faculty of Engineering, University of Tokyo

>  <COMMENT>  (5142) 
SMILES=COC(=O)C(C)S
InChI=InChI=1S/C4H8O2S/c1-3(7)4(5)6-2/h3,7H,1-2H3
computed SMILES=O=C(OC)C(S)C
accession=JP004215
date=2016.01.19 (Created 2008.10.21, modified 2011.05.06)
author=KOGA M, UNIV. OF OCCUPATIONAL AND ENVIRONMENTAL HEALTH
license=CC BY-NC-SA
exact mass=120.0245
ionization energy=70 eV
ion type=[M]+*
computed spectral entropy=1.577690050421627
computed normalized entropy=0.5978233336263424
SPLASH=splash10-03di-9000000000-21f1576f306e2ccac859
submitter=submitter = University of Tokyo Team (Faculty of Engineering, University of Tokyo)
MoNA Rating=3.75

>  <NUM PEAKS>  (5142) 
14

>  <MASS SPECTRAL PEAKS>  (5142) 
40 8.9
55 7.5
56 3.9
58 0.28
60 28.2
61 99.99
62 4.6
63 0.42
77 1.4
88 18.9
89 3.2
120 3.46
121 1.4
122 1

$$$$

     RDKit          2D

  9  8  0  0  0  0  0  0  0  0999 V2000
   -0.9398    4.4469    0.0000 C   0  0  0  0  0  0  0  0  0  0  0  0
    1.9931    2.5478    0.0000 C   0  0  0  0  0  0  0  0  0  0  0  0
   -3.2031    2.5478    0.0000 C   0  0  0  0  0  0  0  0  0  0  0  0
   -0.6050    2.5478    0.0000 C   0  0  0  0  0  0  0  0  0  0  0  0
   -1.9040    3.2978    0.0000 C   0  0  0  0  0  0  0  0  0  0  0  0
   -4.5021    3.2978    0.0000 Br  0  0  0  0  0  0  0  0  0  0  0  0
   -2.8682    4.4469    0.0000 Br  0  0  0  0  0  0  0  0  0  0  0  0
   -0.6050    1.0478    0.0000 O   0  0  0  0  0  0  0  0  0  0  0  0
    0.6941    3.2978    0.0000 O   0  0  0  0  0  0  0  0  0  0  0  0
  5  1  1  0
  5  3  1  0
  5  4  1  0
  6  3  1  0
  7  5  1  0
  8  4  2  0
  9  2  1  0
  9  4  1  0
M  END
>  <NAME>  (5143) 
2,3-DIBROMO-2-METHYLPROPIONIC ACID METHYLESTER

>  <SYNONYMS>  (5143) 


>  <SPECTRUM TYPE>  (5143) 
MS1

>  <INSTRUMENT TYPE>  (5143) 
EI-B

>  <INSTRUMENT>  (5143) 
JEOL JMS-01-SG

>  <ION MODE>  (5143) 
P

>  <INCHIKEY>  (5143) 
GVLXNUSEDDXIGJ-UHFFFAOYSA-N

>  <FORMULA>  (5143) 
C5H8Br2O2

>  <EXACT MASS>  (5143) 
257.889103696

>  <MW>  (5143) 
258

>  <ID>  (5143) 
JP004214

>  <CONTRIBUTOR>  (5143) 
University of Tokyo Team, {Faculty of Engineering, University of Tokyo

>  <COMMENT>  (5143) 
SMILES=COC(=O)C(C)(Br)CBr
cas=3673-79-8
InChI=InChI=1S/C5H8Br2O2/c1-5(7,3-6)4(8)9-2/h3H2,1-2H3
computed SMILES=O=C(OC)C(Br)(C)CBr
accession=JP004214
date=2016.01.19 (Created 2008.10.21, modified 2011.05.06)
author=KOGA M, UNIV. OF OCCUPATIONAL AND ENVIRONMENTAL HEALTH
license=CC BY-NC-SA
exact mass=257.8891
ionization energy=70 eV
ion type=[M]+*
computed spectral entropy=2.4911266753404555
computed normalized entropy=0.7398003624025103
SPLASH=splash10-0lmi-9800000000-48042e4a1131b236031b
submitter=submitter = University of Tokyo Team (Faculty of Engineering, University of Tokyo)
MoNA Rating=3.75

>  <NUM PEAKS>  (5143) 
29

>  <MASS SPECTRAL PEAKS>  (5143) 
43 7.7
44 2.5
53 3.8
55 1.42
57 5.1
59 79.2
60 1.2
69 99.99
70 5.1
71 1.2
82 2.5
85 0.51
89 3.8
99 22
100 45.4
119 1.68
120 19.4
121 18.1
122 19.4
151 2.46
153 22
179 76.6
180 3.8
181 7.53
182 1.2
199 5.1
201 7.7
203 0.25
217 1.2

$$$$

     RDKit          2D

 13 13  0  0  0  0  0  0  0  0999 V2000
    5.8387    1.1249    0.0000 C   0  0  0  0  0  0  0  0  0  0  0  0
    0.6368    4.1106    0.0000 C   0  0  0  0  0  0  0  0  0  0  0  0
    1.9358    3.3606    0.0000 C   0  0  0  0  0  0  0  0  0  0  0  0
   -0.6577    3.3684    0.0000 C   0  0  0  0  0  0  0  0  0  0  0  0
    0.6408    1.1176    0.0000 C   0  0  0  0  0  0  0  0  0  0  0  0
    1.9404    1.8684    0.0000 C   0  0  0  0  0  0  0  0  0  0  0  0
   -0.6582    1.8676    0.0000 C   0  0  0  0  0  0  0  0  0  0  0  0
    3.2407    1.1206    0.0000 C   0  0  0  0  0  0  0  0  0  0  0  0
   -1.9574    1.1178    0.0000 N   0  0  0  0  0  0  0  0  0  0  0  0
    3.2432   -0.3794    0.0000 O   0  0  0  0  0  0  0  0  0  0  0  0
   -3.2563    1.8680    0.0000 O   0  0  0  0  0  0  0  0  0  0  0  0
   -1.9576   -0.3822    0.0000 O   0  0  0  0  0  0  0  0  0  0  0  0
    4.5384    1.8728    0.0000 O   0  0  0  0  0  0  0  0  0  0  0  0
  3  2  2  0
  4  2  1  0
  6  3  1  0
  6  5  2  0
  7  4  2  0
  7  5  1  0
  8  6  1  0
  9  7  1  0
 10  8  2  0
 11  9  1  0
 12  9  2  0
 13  1  1  0
 13  8  1  0
M  CHG  2   9   1  11  -1
M  END
>  <NAME>  (5144) 
3-NITROBENZOIC ACID METHYL ESTER

>  <SYNONYMS>  (5144) 


>  <SPECTRUM TYPE>  (5144) 
MS1

>  <INSTRUMENT TYPE>  (5144) 
EI-B

>  <INSTRUMENT>  (5144) 
JEOL JMS-01-SG

>  <ION MODE>  (5144) 
P

>  <INCHIKEY>  (5144) 
AXLYJLKKPUICKV-UHFFFAOYSA-N

>  <FORMULA>  (5144) 
C8H7NO4

>  <EXACT MASS>  (5144) 
181.037507704

>  <MW>  (5144) 
181

>  <ID>  (5144) 
JP004213

>  <CONTRIBUTOR>  (5144) 
University of Tokyo Team, {Faculty of Engineering, University of Tokyo

>  <COMMENT>  (5144) 
SMILES=COC(=O)c(c1)cc(cc1)[N+1]([O-1])=O
cas=618-95-1
InChI=InChI=1S/C8H7NO4/c1-13-8(10)6-3-2-4-7(5-6)9(11)12/h2-5H,1H3
computed SMILES=O=C(OC)C1=CC=CC(=C1)N(=O)=O
accession=JP004213
date=2016.01.19 (Created 2008.10.21, modified 2011.05.06)
author=KOGA M, UNIV. OF OCCUPATIONAL AND ENVIRONMENTAL HEALTH
license=CC BY-NC-SA
exact mass=181.03751
ionization energy=70 eV
ion type=[M]+*
computed spectral entropy=2.678411061762597
computed normalized entropy=0.7417535171275146
SPLASH=splash10-0udi-4900000000-c97f8bef075f3b9301a7
submitter=submitter = University of Tokyo Team (Faculty of Engineering, University of Tokyo)
MoNA Rating=3.75

>  <NUM PEAKS>  (5144) 
37

>  <MASS SPECTRAL PEAKS>  (5144) 
49 1.7
50 29.5
51 4.5
53 0.17
62 1.7
63 6
64 8.3
65 0.91
66 1.7
75 22.9
76 37.2
77 1.06
79 2.5
90 1.4
91 3.4
92 2.83
93 5.7
103 8.3
104 38.3
105 0.42
107 3.1
119 10.3
120 22.9
121 0.4
122 2.5
134 2.5
135 11.1
136 0.83
140 2
150 99.99
151 30
152 0.2
164 4.5
165 2
180 2.2
181 1.86
182 2

$$$$

     RDKit          2D

 10 10  0  0  0  0  0  0  0  0999 V2000
   -3.9478    1.3177    0.0000 C   0  0  0  0  0  0  0  0  0  0  0  0
   -5.2468    3.5677    0.0000 C   0  0  0  0  0  0  0  0  0  0  0  0
    2.7492    2.8173    0.0000 C   0  0  0  0  0  0  0  0  0  0  0  0
   -0.0507    3.5677    0.0000 C   0  0  0  0  0  0  0  0  0  0  0  0
   -3.9478    2.8177    0.0000 C   0  0  0  0  0  0  0  0  0  0  0  0
    1.2484    2.8177    0.0000 C   0  0  0  0  0  0  0  0  0  0  0  0
   -2.6487    3.5677    0.0000 C   0  0  0  0  0  0  0  0  0  0  0  0
   -2.6487    5.0677    0.0000 O   0  0  0  0  0  0  0  0  0  0  0  0
    1.9992    1.5182    0.0000 O   0  0  0  0  0  0  0  0  0  0  0  0
   -1.3497    2.8177    0.0000 O   0  0  0  0  0  0  0  0  0  0  0  0
  5  1  2  0
  5  2  1  0
  6  3  1  0
  6  4  1  0
  7  5  1  0
  8  7  2  0
  9  3  1  0
  9  6  1  0
 10  4  1  0
 10  7  1  0
M  END
>  <NAME>  (5145) 
2,3-EPOXYPROPYL METHACRYLATE

>  <SYNONYMS>  (5145) 


>  <SPECTRUM TYPE>  (5145) 
MS1

>  <INSTRUMENT TYPE>  (5145) 
EI-B

>  <INSTRUMENT>  (5145) 
JEOL JMS-01-SG

>  <ION MODE>  (5145) 
P

>  <INCHIKEY>  (5145) 
VOZRXNHHFUQHIL-UHFFFAOYSA-N

>  <FORMULA>  (5145) 
C7H10O3

>  <EXACT MASS>  (5145) 
142.06299417999998

>  <MW>  (5145) 
142

>  <ID>  (5145) 
JP004212

>  <CONTRIBUTOR>  (5145) 
University of Tokyo Team, {Faculty of Engineering, University of Tokyo

>  <COMMENT>  (5145) 
SMILES=CC(=C)C(=O)OCC(C1)O1
InChI=InChI=1S/C7H10O3/c1-5(2)7(8)10-4-6-3-9-6/h6H,1,3-4H2,2H3
computed SMILES=O=C(OCC1OC1)C(=C)C
accession=JP004212
date=2016.01.19 (Created 2008.10.21, modified 2011.05.06)
author=KOGA M, UNIV. OF OCCUPATIONAL AND ENVIRONMENTAL HEALTH
license=CC BY-NC-SA
exact mass=142.06299
ionization energy=70 eV
ion type=[M]+*
computed spectral entropy=1.4036864574211907
computed normalized entropy=0.49543973113284157
SPLASH=splash10-014i-9000000000-bb461556c1f9a27c144d
submitter=submitter = University of Tokyo Team (Faculty of Engineering, University of Tokyo)
MoNA Rating=3.75

>  <NUM PEAKS>  (5145) 
17

>  <MASS SPECTRAL PEAKS>  (5145) 
43 3.8
44 3.8
45 1.6
50 0.16
55 1.6
56 8.6
68 3.8
69 99.99
70 5.9
81 1.6
85 3.8
86 0.21
91 1.6
97 3.2
129 3.2
139 0.27
141 2.7

$$$$

     RDKit          2D

  7  6  0  0  0  0  0  0  0  0999 V2000
    1.6238    1.6875    0.0000 C   0  0  0  0  0  0  0  0  0  0  0  0
    0.3248    3.9375    0.0000 C   0  0  0  0  0  0  0  0  0  0  0  0
   -3.5724    1.6875    0.0000 C   0  0  0  0  0  0  0  0  0  0  0  0
    0.3248    2.4375    0.0000 C   0  0  0  0  0  0  0  0  0  0  0  0
   -0.9743    1.6875    0.0000 C   0  0  0  0  0  0  0  0  0  0  0  0
   -0.9743    0.1875    0.0000 O   0  0  0  0  0  0  0  0  0  0  0  0
   -2.2733    2.4375    0.0000 O   0  0  0  0  0  0  0  0  0  0  0  0
  4  1  2  0
  4  2  1  0
  5  4  1  0
  6  5  2  0
  7  3  1  0
  7  5  1  0
M  END
>  <NAME>  (5146) 
METHACRYLIC ACID METHYL ESTER

>  <SYNONYMS>  (5146) 


>  <SPECTRUM TYPE>  (5146) 
MS1

>  <INSTRUMENT TYPE>  (5146) 
EI-B

>  <INSTRUMENT>  (5146) 
JEOL JMS-01-SG

>  <ION MODE>  (5146) 
P

>  <INCHIKEY>  (5146) 
VVQNEPGJFQJSBK-UHFFFAOYSA-N

>  <FORMULA>  (5146) 
C5H8O2

>  <EXACT MASS>  (5146) 
100.052429496

>  <MW>  (5146) 
100

>  <ID>  (5146) 
JP004211

>  <CONTRIBUTOR>  (5146) 
University of Tokyo Team, {Faculty of Engineering, University of Tokyo

>  <COMMENT>  (5146) 
SMILES=COC(=O)C(C)=C
cas=80-62-6
InChI=InChI=1S/C5H8O2/c1-4(2)5(6)7-3/h1H2,2-3H3
computed SMILES=O=C(OC)C(=C)C
computed spectral entropy=2.122246577483729
accession=JP004211
date=2016.01.19 (Created 2008.10.21, modified 2011.05.06)
author=KOGA M, UNIV. OF OCCUPATIONAL AND ENVIRONMENTAL HEALTH
license=CC BY-NC-SA
exact mass=100.05243
ionization energy=70 eV
ion type=[M]+*
computed normalized entropy=0.7207643264132202
SPLASH=splash10-0006-9100000000-88f058bfbf5b9ed8387e
submitter=submitter = University of Tokyo Team (Faculty of Engineering, University of Tokyo)
MoNA Rating=3.75

>  <NUM PEAKS>  (5146) 
19

>  <MASS SPECTRAL PEAKS>  (5146) 
38 8.9
39 16.2
40 19.7
41 99.99
42 2.7
43 13.9
45 6.5
53 0.27
55 4.6
56 3.8
58 7.7
59 0.81
69 65.5
70 3.4
82 2.3
85 0.46
99 8.9
100 36
101 2.3

$$$$

     RDKit          2D

 18 18  0  0  0  0  0  0  0  0999 V2000
    6.4891   -6.9311    0.0000 C   0  0  0  0  0  0  0  0  0  0  0  0
    5.1915   -6.1786    0.0000 C   0  0  0  0  0  0  0  0  0  0  0  0
    3.8910   -6.9260    0.0000 C   0  0  0  0  0  0  0  0  0  0  0  0
    2.5935   -6.1735    0.0000 C   0  0  0  0  0  0  0  0  0  0  0  0
    1.2930   -6.9209    0.0000 C   0  0  0  0  0  0  0  0  0  0  0  0
   -0.0046   -6.1684    0.0000 C   0  0  0  0  0  0  0  0  0  0  0  0
   -1.3051   -6.9159    0.0000 C   0  0  0  0  0  0  0  0  0  0  0  0
   -2.6027   -6.1633    0.0000 C   0  0  0  0  0  0  0  0  0  0  0  0
   -3.9032   -6.9108    0.0000 C   0  0  0  0  0  0  0  0  0  0  0  0
   -5.2008   -6.1583    0.0000 C   0  0  0  0  0  0  0  0  0  0  0  0
   -6.5013   -6.9057    0.0000 C   0  0  0  0  0  0  0  0  0  0  0  0
  -10.7248   -8.7051    0.0000 C   0  0  0  0  0  0  0  0  0  0  0  0
  -11.4748   -7.4061    0.0000 C   0  0  0  0  0  0  0  0  0  0  0  0
   -7.7988   -6.1532    0.0000 C   0  0  0  0  0  0  0  0  0  0  0  0
   -9.2564   -8.3885    0.0000 C   0  0  0  0  0  0  0  0  0  0  0  0
  -10.4714   -6.2841    0.0000 C   0  0  0  0  0  0  0  0  0  0  0  0
   -9.0993   -6.9006    0.0000 N   0  0  0  0  0  0  0  0  0  0  0  0
  -10.7833   -4.8169    0.0000 O   0  0  0  0  0  0  0  0  0  0  0  0
  2  1  1  0
  3  2  1  0
  4  3  1  0
  5  4  1  0
  6  5  1  0
  7  6  1  0
  8  7  1  0
  9  8  1  0
 10  9  1  0
 11 10  1  0
 13 12  1  0
 14 11  1  0
 15 12  1  0
 16 13  1  0
 17 14  1  0
 17 15  1  0
 17 16  1  0
 18 16  2  0
M  END
>  <NAME>  (5147) 
N-DODECYL-2-PYRROLIDONE

>  <SYNONYMS>  (5147) 


>  <SPECTRUM TYPE>  (5147) 
MS1

>  <INSTRUMENT TYPE>  (5147) 
EI-B

>  <INSTRUMENT>  (5147) 
HITACHI RMU-6E

>  <ION MODE>  (5147) 
P

>  <INCHIKEY>  (5147) 
NJPQAIBZIHNJDO-UHFFFAOYSA-N

>  <FORMULA>  (5147) 
C16H31NO

>  <EXACT MASS>  (5147) 
253.24056461200001

>  <MW>  (5147) 
253

>  <ID>  (5147) 
JP004193

>  <CONTRIBUTOR>  (5147) 
University of Tokyo Team, {Faculty of Engineering, University of Tokyo

>  <COMMENT>  (5147) 
SMILES=CCCCCCCCCCCCN(C1)C(=O)CC1
InChI=InChI=1S/C16H31NO/c1-2-3-4-5-6-7-8-9-10-11-14-17-15-12-13-16(17)18/h2-15H2,1H3
computed SMILES=O=C1N(CCC1)CCCCCCCCCCCC
accession=JP004193
date=2016.01.19 (Created 2008.10.21, modified 2011.05.06)
author=MASS SPECTROSCOPY SOC. OF JAPAN (MSSJ)
license=CC BY-NC-SA
exact mass=253.24056
ionization energy=70 eV
ion type=[M]+*
computed spectral entropy=2.901826858355865
computed normalized entropy=0.6071880884723866
SPLASH=splash10-0002-9210000000-ad51af7b9ad82e49d365
submitter=submitter = University of Tokyo Team (Faculty of Engineering, University of Tokyo)
MoNA Rating=3.75

>  <NUM PEAKS>  (5147) 
119

>  <MASS SPECTRAL PEAKS>  (5147) 
26 0.2
27 2.6
28 6
29 0.6
30 1.8
31 0.2
32 0.3
39 0.24
40 0.4
41 19.4
42 6.2
43 1.4
44 3.2
45 0.3
52 0.1
53 0.09
54 1.2
55 8.4
56 3.1
57 0.38
58 0.7
59 0.1
65 0.2
66 0.01
67 1.1
68 2.4
69 9.4
70 1.64
71 2.2
72 0.2
73 0.1
77 0.02
78 0.2
79 0.2
80 0.2
81 0.06
82 0.5
83 1
84 2.6
85 0.08
86 8.4
87 0.4
91 0.2
92 0.01
93 0.2
94 0.2
95 0.2
96 0.05
97 0.8
98 99.99
99 73
100 0.5
101 0.4
102 0.1
105 0.1
106 0.01
107 0.1
108 0.1
109 0.2
110 0.02
111 0.2
112 17.6
113 7.4
114 0.05
115 0.1
116 0.1
124 0.9
125 0.02
126 17
127 5.8
128 0.4
129 0.01
138 0.3
139 0.1
140 8
141 0.29
142 0.2
149 0.7
150 0.2
151 0.01
152 0.2
153 0.1
154 4.6
155 0.2
156 0.2
157 0.1
166 0.1
167 0.01
168 4.6
169 1.6
170 0.2
180 0.01
181 4
182 1.4
183 0.1
184 0.01
185 0.1
195 0.1
196 3.4
197 0.13
198 0.3
209 0.1
210 2.6
211 0.11
212 0.2
223 0.1
224 2.4
225 0.05
226 0.1
236 1.1
237 0.2
238 0.1
239 0.2
250 0.1
251 0.2
252 0.13
253 27.4
254 5.4
255 0.4

$$$$

     RDKit          2D

 18 18  0  0  0  0  0  0  0  0999 V2000
    6.4891   -6.9311    0.0000 C   0  0  0  0  0  0  0  0  0  0  0  0
    5.1915   -6.1786    0.0000 C   0  0  0  0  0  0  0  0  0  0  0  0
    3.8910   -6.9260    0.0000 C   0  0  0  0  0  0  0  0  0  0  0  0
    2.5935   -6.1735    0.0000 C   0  0  0  0  0  0  0  0  0  0  0  0
    1.2930   -6.9209    0.0000 C   0  0  0  0  0  0  0  0  0  0  0  0
   -0.0046   -6.1684    0.0000 C   0  0  0  0  0  0  0  0  0  0  0  0
   -1.3051   -6.9159    0.0000 C   0  0  0  0  0  0  0  0  0  0  0  0
   -2.6027   -6.1633    0.0000 C   0  0  0  0  0  0  0  0  0  0  0  0
   -3.9032   -6.9108    0.0000 C   0  0  0  0  0  0  0  0  0  0  0  0
   -5.2008   -6.1583    0.0000 C   0  0  0  0  0  0  0  0  0  0  0  0
   -6.5013   -6.9057    0.0000 C   0  0  0  0  0  0  0  0  0  0  0  0
  -10.7248   -8.7051    0.0000 C   0  0  0  0  0  0  0  0  0  0  0  0
  -11.4748   -7.4061    0.0000 C   0  0  0  0  0  0  0  0  0  0  0  0
   -7.7988   -6.1532    0.0000 C   0  0  0  0  0  0  0  0  0  0  0  0
   -9.2564   -8.3885    0.0000 C   0  0  0  0  0  0  0  0  0  0  0  0
  -10.4714   -6.2841    0.0000 C   0  0  0  0  0  0  0  0  0  0  0  0
   -9.0993   -6.9006    0.0000 N   0  0  0  0  0  0  0  0  0  0  0  0
  -10.7833   -4.8169    0.0000 O   0  0  0  0  0  0  0  0  0  0  0  0
  2  1  1  0
  3  2  1  0
  4  3  1  0
  5  4  1  0
  6  5  1  0
  7  6  1  0
  8  7  1  0
  9  8  1  0
 10  9  1  0
 11 10  1  0
 13 12  1  0
 14 11  1  0
 15 12  1  0
 16 13  1  0
 17 14  1  0
 17 15  1  0
 17 16  1  0
 18 16  2  0
M  END
>  <NAME>  (5148) 
N-DODECYL-2-PYRROLIDONE

>  <SYNONYMS>  (5148) 


>  <SPECTRUM TYPE>  (5148) 
MS1

>  <INSTRUMENT TYPE>  (5148) 
EI-B

>  <INSTRUMENT>  (5148) 
HITACHI RMU-6E

>  <ION MODE>  (5148) 
P

>  <INCHIKEY>  (5148) 
NJPQAIBZIHNJDO-UHFFFAOYSA-N

>  <FORMULA>  (5148) 
C16H31NO

>  <EXACT MASS>  (5148) 
253.24056461200001

>  <MW>  (5148) 
253

>  <ID>  (5148) 
JP004192

>  <CONTRIBUTOR>  (5148) 
University of Tokyo Team, {Faculty of Engineering, University of Tokyo

>  <COMMENT>  (5148) 
SMILES=CCCCCCCCCCCCN(C1)C(=O)CC1
InChI=InChI=1S/C16H31NO/c1-2-3-4-5-6-7-8-9-10-11-14-17-15-12-13-16(17)18/h2-15H2,1H3
computed SMILES=O=C1N(CCC1)CCCCCCCCCCCC
accession=JP004192
date=2016.01.19 (Created 2008.10.21, modified 2011.05.06)
author=MASS SPECTROSCOPY SOC. OF JAPAN (MSSJ)
license=CC BY-NC-SA
exact mass=253.24056
ionization energy=70 eV
ion type=[M]+*
computed spectral entropy=2.901826858355865
computed normalized entropy=0.6071880884723866
SPLASH=splash10-0002-9210000000-ad51af7b9ad82e49d365
submitter=submitter = University of Tokyo Team (Faculty of Engineering, University of Tokyo)
MoNA Rating=3.75

>  <NUM PEAKS>  (5148) 
119

>  <MASS SPECTRAL PEAKS>  (5148) 
26 0.2
27 2.6
28 6
29 0.6
30 1.8
31 0.2
32 0.3
39 0.24
40 0.4
41 19.4
42 6.2
43 1.4
44 3.2
45 0.3
52 0.1
53 0.09
54 1.2
55 8.4
56 3.1
57 0.38
58 0.7
59 0.1
65 0.2
66 0.01
67 1.1
68 2.4
69 9.4
70 1.64
71 2.2
72 0.2
73 0.1
77 0.02
78 0.2
79 0.2
80 0.2
81 0.06
82 0.5
83 1
84 2.6
85 0.08
86 8.4
87 0.4
91 0.2
92 0.01
93 0.2
94 0.2
95 0.2
96 0.05
97 0.8
98 99.99
99 73
100 0.5
101 0.4
102 0.1
105 0.1
106 0.01
107 0.1
108 0.1
109 0.2
110 0.02
111 0.2
112 17.6
113 7.4
114 0.05
115 0.1
116 0.1
124 0.9
125 0.02
126 17
127 5.8
128 0.4
129 0.01
138 0.3
139 0.1
140 8
141 0.29
142 0.2
149 0.7
150 0.2
151 0.01
152 0.2
153 0.1
154 4.6
155 0.2
156 0.2
157 0.1
166 0.1
167 0.01
168 4.6
169 1.6
170 0.2
180 0.01
181 4
182 1.4
183 0.1
184 0.01
185 0.1
195 0.1
196 3.4
197 0.13
198 0.3
209 0.1
210 2.6
211 0.11
212 0.2
223 0.1
224 2.4
225 0.05
226 0.1
236 1.1
237 0.2
238 0.1
239 0.2
250 0.1
251 0.2
252 0.13
253 27.4
254 5.4
255 0.4

$$$$

     RDKit          2D

 12 12  0  0  0  0  0  0  0  0999 V2000
   -2.1650   -2.9914    0.0000 C   0  0  0  0  0  0  0  0  0  0  0  0
   -2.1646   -1.4906    0.0000 C   0  0  0  0  0  0  0  0  0  0  0  0
   -0.8660   -3.7414    0.0000 C   0  0  0  0  0  0  0  0  0  0  0  0
    2.8756   -0.6017    0.0000 C   0  0  0  0  0  0  0  0  0  0  0  0
   -0.8650   -0.7398    0.0000 C   0  0  0  0  0  0  0  0  0  0  0  0
    0.4335   -2.9906    0.0000 C   0  0  0  0  0  0  0  0  0  0  0  0
    1.9112   -1.7506    0.0000 C   0  0  0  0  0  0  0  0  0  0  0  0
    4.3527   -0.8625    0.0000 C   0  0  0  0  0  0  0  0  0  0  0  0
    0.9472   -0.0803    0.0000 C   0  0  0  0  0  0  0  0  0  0  0  0
    0.4340   -1.4898    0.0000 C   0  0  0  0  0  0  0  0  0  0  0  0
    5.8299   -1.1233    0.0000 N   0  0  0  0  0  0  0  0  0  0  0  0
    1.4604    1.3292    0.0000 N   0  0  0  0  0  0  0  0  0  0  0  0
  2  1  2  0
  3  1  1  0
  5  2  1  0
  6  3  1  0
  7  4  1  0
  8  4  1  0
 10  5  1  0
 10  6  1  0
 10  7  1  0
 10  9  1  0
 11  8  3  0
 12  9  3  0
M  END
>  <NAME>  (5149) 
4-CYANO-4-(2-CYANOETHYL)CYCLOHEXENE

>  <SYNONYMS>  (5149) 


>  <SPECTRUM TYPE>  (5149) 
MS1

>  <INSTRUMENT TYPE>  (5149) 
EI-B

>  <INSTRUMENT>  (5149) 
HITACHI RMU-6E

>  <ION MODE>  (5149) 
P

>  <INCHIKEY>  (5149) 
DFCDGWKPOLITPU-UHFFFAOYSA-N

>  <FORMULA>  (5149) 
C10H12N2

>  <EXACT MASS>  (5149) 
160.100048384

>  <MW>  (5149) 
160

>  <ID>  (5149) 
JP004191

>  <CONTRIBUTOR>  (5149) 
University of Tokyo Team, {Faculty of Engineering, University of Tokyo

>  <COMMENT>  (5149) 
SMILES=N#CCCC(C#N)(C1)CC=CC1
InChI=InChI=1S/C10H12N2/c11-8-4-7-10(9-12)5-2-1-3-6-10/h1-2H,3-7H2
computed SMILES=N#CCCC1(C#N)CC=CCC1
accession=JP004191
date=2016.01.19 (Created 2008.10.21, modified 2011.05.06)
author=MASS SPECTROSCOPY SOC. OF JAPAN (MSSJ)
license=CC BY-NC-SA
exact mass=160.10005
ionization energy=70 eV
ion type=[M]+*
computed spectral entropy=2.801088700495811
computed normalized entropy=0.6467931595877511
SPLASH=splash10-0ug0-9100000000-00399b54d088d6c4e39a
submitter=submitter = University of Tokyo Team (Faculty of Engineering, University of Tokyo)
MoNA Rating=3.75

>  <NUM PEAKS>  (5149) 
76

>  <MASS SPECTRAL PEAKS>  (5149) 
25 0.1
26 2.3
27 46.2
28 2.04
29 1.5
30 0.8
31 0.1
32 0.04
37 0.7
38 1.9
39 60
40 0.29
41 34.8
42 1.8
43 0.2
49 0.01
50 2
51 15.6
52 13.2
53 1.8
54 99.99
55 13.2
56 1.6
57 0.08
61 0.1
62 0.4
63 1.3
64 0.13
65 10.8
66 2.1
67 1.3
68 0.02
69 0.1
74 0.2
75 0.4
76 0.06
77 16.2
78 2.2
79 27
80 0.26
81 0.6
82 0.1
88 0.1
89 0.04
90 0.4
91 3
92 15.6
93 2.46
94 1.1
95 0.1
102 0.3
103 0.04
104 1.5
105 0.9
106 9.6
107 0.16
108 0.2
115 0.1
116 1.2
117 0.06
118 0.6
119 0.6
120 22.8
121 0.07
130 0.1
131 0.2
132 16.2
133 0.26
134 0.4
143 0.1
144 0.1
145 0.03
146 0.1
159 0.5
160 2.6
161 0.6

$$$$

     RDKit          2D

 19 18  0  0  0  0  0  0  0  0999 V2000
  -16.2380   10.1250    0.0000 C   0  0  0  0  0  0  0  0  0  0  0  0
  -14.9389    9.3750    0.0000 C   0  0  0  0  0  0  0  0  0  0  0  0
  -13.6399   10.1250    0.0000 C   0  0  0  0  0  0  0  0  0  0  0  0
  -12.3409    9.3750    0.0000 C   0  0  0  0  0  0  0  0  0  0  0  0
  -11.0418   10.1250    0.0000 C   0  0  0  0  0  0  0  0  0  0  0  0
   -9.7428    9.3750    0.0000 C   0  0  0  0  0  0  0  0  0  0  0  0
   -8.4437   10.1250    0.0000 C   0  0  0  0  0  0  0  0  0  0  0  0
   -7.1447    9.3750    0.0000 C   0  0  0  0  0  0  0  0  0  0  0  0
   -5.8457   10.1250    0.0000 C   0  0  0  0  0  0  0  0  0  0  0  0
   -4.5466    9.3750    0.0000 C   0  0  0  0  0  0  0  0  0  0  0  0
   -3.2476   10.1250    0.0000 C   0  0  0  0  0  0  0  0  0  0  0  0
    3.2476    9.3750    0.0000 C   0  0  0  0  0  0  0  0  0  0  0  0
    1.9486   10.1250    0.0000 C   0  0  0  0  0  0  0  0  0  0  0  0
   -1.9486    9.3750    0.0000 C   0  0  0  0  0  0  0  0  0  0  0  0
    4.5466   10.1250    0.0000 C   0  0  0  0  0  0  0  0  0  0  0  0
    0.6495    9.3750    0.0000 C   0  0  0  0  0  0  0  0  0  0  0  0
   -0.6495   10.1250    0.0000 N   0  0  0  0  0  0  0  0  0  0  0  0
    5.8457    9.3750    0.0000 O   0  0  0  0  0  0  0  0  0  0  0  0
    0.6495    7.8750    0.0000 O   0  0  0  0  0  0  0  0  0  0  0  0
  2  1  1  0
  3  2  1  0
  4  3  1  0
  5  4  1  0
  6  5  1  0
  7  6  1  0
  8  7  1  0
  9  8  1  0
 10  9  1  0
 11 10  1  0
 13 12  1  0
 14 11  1  0
 15 12  1  0
 16 13  1  0
 17 14  1  0
 17 16  2  3
 18 15  1  0
 19 16  1  0
M  END
>  <NAME>  (5150) 
N-DODECYL-4-HYDROXYBUTYRAMIDE

>  <SYNONYMS>  (5150) 


>  <SPECTRUM TYPE>  (5150) 
MS1

>  <INSTRUMENT TYPE>  (5150) 
EI-B

>  <INSTRUMENT>  (5150) 
HITACHI RMU-6E

>  <ION MODE>  (5150) 
P

>  <INCHIKEY>  (5150) 
XDLZKXFUWLXBCL-UHFFFAOYSA-N

>  <FORMULA>  (5150) 
C16H33NO2

>  <EXACT MASS>  (5150) 
271.251129296

>  <MW>  (5150) 
271

>  <ID>  (5150) 
JP004190

>  <CONTRIBUTOR>  (5150) 
University of Tokyo Team, {Faculty of Engineering, University of Tokyo

>  <COMMENT>  (5150) 
SMILES=CCCCCCCCCCCCNC(=O)CCCO
InChI=InChI=1S/C16H33NO2/c1-2-3-4-5-6-7-8-9-10-11-14-17-16(19)13-12-15-18/h18H,2-15H2,1H3,(H,17,19)
computed SMILES=OC(=NCCCCCCCCCCCC)CCCO
accession=JP004190
date=2016.01.19 (Created 2008.10.21, modified 2011.05.06)
author=MASS SPECTROSCOPY SOC. OF JAPAN (MSSJ)
license=CC BY-NC-SA
exact mass=271.25113
ionization energy=70 eV
ion type=[M]+*
computed spectral entropy=4.091152329335183
computed normalized entropy=0.7630907256840063
SPLASH=splash10-0016-9420000000-13b13c0fb4e59a5e806b
submitter=submitter = University of Tokyo Team (Faculty of Engineering, University of Tokyo)
MoNA Rating=3.75

>  <NUM PEAKS>  (5150) 
213

>  <MASS SPECTRAL PEAKS>  (5150) 
26 1.3
27 9
28 28.6
29 2
30 99.99
31 18
32 5.8
33 0.01
34 0.2
35 0.1
36 0.1
37 0.01
38 0.3
39 5.6
40 1.2
41 4.7
42 12
43 47.4
44 31.8
45 1
46 0.5
50 0.2
51 0.4
52 0.05
53 2
54 3
55 29
56 1.16
57 22
58 14
59 7.2
60 0.6
61 0.2
62 0.1
63 0.2
64 0.02
65 0.6
66 0.4
67 3.5
68 0.26
69 22.4
70 7.6
71 9
72 1.32
73 28
74 2.7
75 0.2
76 0.06
77 0.7
78 0.3
79 0.9
80 0.05
81 1.8
82 1.5
83 5.8
84 0.44
85 7
86 31.4
87 48
88 0.27
89 0.5
91 0.6
92 0.2
93 0.03
94 0.4
95 1.1
96 1.2
97 0.36
98 17.6
99 17
100 20
101 1.4
102 1.5
103 0.3
104 1.4
105 0.04
106 0.2
107 1.3
108 0.6
109 0.05
110 0.7
111 1.4
112 7.4
113 0.44
114 20
115 6
116 5
117 4.74
118 3.4
119 0.6
120 0.2
121 0.03
122 0.2
123 0.3
124 0.6
125 0.05
126 11.4
127 2.3
128 12.6
129 0.31
130 18
131 6.2
132 0.5
133 0.04
134 0.2
135 0.2
136 0.2
137 0.03
138 0.4
139 0.1
140 5
141 0.19
142 9.2
143 2.4
144 26
145 0.72
146 0.7
147 0.2
148 0.3
149 0.06
150 0.1
151 0.2
152 0.3
153 0.03
154 5.4
155 1.3
156 7.2
157 0.22
158 16.2
159 5.2
160 0.5
161 0.01
162 0.2
163 0.5
164 0.1
165 0.01
166 0.2
167 0.2
168 3.6
169 0.08
170 6
171 1.6
172 11.6
173 0.5
174 0.6
175 0.1
180 0.2
181 0.02
182 2.8
183 0.7
184 9.2
185 0.24
186 11.8
187 3.2
188 0.4
189 0.02
190 0.1
191 0.1
195 0.1
196 0.23
197 0.7
198 3.6
199 0.9
200 1.24
201 3.3
202 0.3
203 0.1
207 0.02
208 0.1
209 0.1
210 2.2
211 0.05
212 18
213 2.6
214 9
215 0.29
216 0.5
217 0.2
218 0.2
219 0.02
220 0.1
222 0.1
223 0.1
224 0.16
225 0.4
226 0.7
227 16.8
228 0.88
229 2.8
230 0.4
237 0.3
238 0.07
239 0.2
240 24
241 7
242 0.68
243 1.1
244 0.3
252 1.5
253 0.26
254 1.3
255 0.6
256 2.2
257 0.04
258 0.1
267 0.2
268 0.6
269 0.03
270 2.4
271 21
272 6
273 0.08
274 0.1

$$$$

     RDKit          2D

 23 24  0  0  0  0  0  0  0  0999 V2000
   15.4100    7.7942    0.0000 C   0  0  0  0  0  0  0  0  0  0  0  0
   14.6600    6.4952    0.0000 C   0  0  0  0  0  0  0  0  0  0  0  0
   13.1600    6.4952    0.0000 C   0  0  0  0  0  0  0  0  0  0  0  0
   12.4100    5.1962    0.0000 C   0  0  0  0  0  0  0  0  0  0  0  0
   10.9100    5.1962    0.0000 C   0  0  0  0  0  0  0  0  0  0  0  0
   10.1600    3.8971    0.0000 C   0  0  0  0  0  0  0  0  0  0  0  0
    8.6600    3.8971    0.0000 C   0  0  0  0  0  0  0  0  0  0  0  0
    7.9100    2.5981    0.0000 C   0  0  0  0  0  0  0  0  0  0  0  0
    6.4100    2.5981    0.0000 C   0  0  0  0  0  0  0  0  0  0  0  0
    5.6600    1.2990    0.0000 C   0  0  0  0  0  0  0  0  0  0  0  0
   -3.0000    0.7500    0.0000 C   0  0  0  0  0  0  0  0  0  0  0  0
   -3.0000   -0.7500    0.0000 C   0  0  0  0  0  0  0  0  0  0  0  0
    4.1600    1.2990    0.0000 C   0  0  0  0  0  0  0  0  0  0  0  0
   -1.7000    1.5000    0.0000 C   0  0  0  0  0  0  0  0  0  0  0  0
   -1.7000   -1.5000    0.0000 C   0  0  0  0  0  0  0  0  0  0  0  0
    3.4100   -0.0000    0.0000 C   0  0  0  0  0  0  0  0  0  0  0  0
   -0.4000    0.7500    0.0000 C   0  0  0  0  0  0  0  0  0  0  0  0
   -0.4000   -0.7500    0.0000 C   0  0  0  0  0  0  0  0  0  0  0  0
    1.0300    1.2100    0.0000 C   0  0  0  0  0  0  0  0  0  0  0  0
    1.0300   -1.2100    0.0000 C   0  0  0  0  0  0  0  0  0  0  0  0
    1.9100    0.0000    0.0000 N   0  0  0  0  0  0  0  0  0  0  0  0
    1.4953    2.6360    0.0000 O   0  0  0  0  0  0  0  0  0  0  0  0
    1.4953   -2.6360    0.0000 O   0  0  0  0  0  0  0  0  0  0  0  0
  2  1  1  0
  3  2  1  0
  4  3  1  0
  5  4  1  0
  6  5  1  0
  7  6  1  0
  8  7  1  0
  9  8  1  0
 10  9  1  0
 12 11  2  0
 13 10  1  0
 14 11  1  0
 15 12  1  0
 16 13  1  0
 17 14  2  0
 18 15  2  0
 18 17  1  0
 19 17  1  0
 20 18  1  0
 21 16  1  0
 21 19  1  0
 21 20  1  0
 22 19  2  0
 23 20  2  0
M  END
>  <NAME>  (5151) 
N-DODECYLPHTHALIMIDE

>  <SYNONYMS>  (5151) 


>  <SPECTRUM TYPE>  (5151) 
MS1

>  <INSTRUMENT TYPE>  (5151) 
EI-B

>  <INSTRUMENT>  (5151) 
HITACHI RMU-6E

>  <ION MODE>  (5151) 
P

>  <INCHIKEY>  (5151) 
LFUHZZBSKQGQKA-UHFFFAOYSA-N

>  <FORMULA>  (5151) 
C20H29NO2

>  <EXACT MASS>  (5151) 
315.219829168

>  <MW>  (5151) 
315

>  <ID>  (5151) 
JP004189

>  <CONTRIBUTOR>  (5151) 
University of Tokyo Team, {Faculty of Engineering, University of Tokyo

>  <COMMENT>  (5151) 
SMILES=CCCCCCCCCCCCn(c(=O)1)c(=O)c(c2)c(ccc2)1
InChI=InChI=1S/C20H29NO2/c1-2-3-4-5-6-7-8-9-10-13-16-21-19(22)17-14-11-12-15-18(17)20(21)23/h11-12,14-15H,2-10,13,16H2,1H3
computed SMILES=O=C1C=2C=CC=CC2C(=O)N1CCCCCCCCCCCC
accession=JP004189
date=2016.01.19 (Created 2008.10.21, modified 2011.05.06)
author=MASS SPECTROSCOPY SOC. OF JAPAN (MSSJ)
license=CC BY-NC-SA
exact mass=315.21983
ionization energy=70 eV
ion type=[M]+*
computed spectral entropy=3.3266795561645615
computed normalized entropy=0.6385811303769535
SPLASH=splash10-03xr-2902000000-fb601bf533c4911f1504
submitter=submitter = University of Tokyo Team (Faculty of Engineering, University of Tokyo)
MoNA Rating=3.75

>  <NUM PEAKS>  (5151) 
183

>  <MASS SPECTRAL PEAKS>  (5151) 
38 0.6
39 3.9
40 0.6
41 1.8
42 2.8
43 19.8
44 1.1
45 0.04
50 1.8
51 2.1
52 0.6
53 0.11
54 1.9
55 13.6
56 3
57 0.57
58 0.7
59 0.4
60 0.4
61 0.02
62 0.3
63 0.3
64 0.2
65 0.07
66 0.3
67 2.5
68 1
69 0.44
70 3.9
71 1.6
72 0.3
73 0.02
74 0.8
75 1.6
76 6
77 1.24
78 1.4
79 0.9
80 0.2
81 0.11
82 1.4
83 4.2
84 1.4
85 0.06
86 0.7
87 0.2
88 0.3
89 0.02
90 0.5
91 0.8
92 0.3
93 0.02
94 0.1
95 0.3
96 1.4
97 0.16
98 0.8
99 0.6
100 0.5
101 0.03
102 2.9
103 1.4
104 8.8
105 1.1
106 1.7
107 0.6
108 0.2
109 0.03
110 1.2
111 1
112 1.2
113 0.06
114 0.1
115 0.9
116 0.7
117 0.37
118 1
119 0.8
120 0.2
121 0.04
122 1
123 0.4
124 0.4
125 0.05
126 0.8
127 0.8
128 0.4
129 0.07
130 18
131 2.7
132 3
133 1.32
134 2.3
135 0.7
140 0.7
141 0.23
142 0.6
143 1.4
144 0.4
145 0.06
146 1.4
147 2.6
148 20.4
149 0.68
150 2.8
151 0.5
152 0.5
154 0.03
155 0.7
156 0.7
157 0.3
158 0.04
159 0.5
160 99.99
161 62.8
162 1.3
163 2.7
164 0.6
165 0.2
166 0.05
167 0.2
169 0.6
170 0.5
172 0.06
173 0.4
174 14.4
175 12
176 0.13
177 0.4
178 0.2
181 0.6
182 0.3
183 0.6
184 0.8
185 0.5
186 0.07
187 0.4
188 9.2
189 3.6
190 0.06
191 0.3
200 0.4
201 0.2
202 1.1
203 2.4
204 0.7
205 0.3
206 0.01
210 0.9
211 0.3
216 3.4
217 0.1
218 0.2
219 0.3
220 0.2
226 0.05
227 0.3
228 0.2
229 0.1
230 0.23
231 0.7
244 1.3
245 0.7
258 0.11
259 0.9
260 0.2
270 0.3
271 0.03
272 0.7
273 0.4
286 4.3
287 0.17
288 0.2
297 0.5
298 1.1
299 0.03
300 0.3
314 0.4
315 94
316 1.8
317 2.7
318 0.3
319 0.1

$$$$

     RDKit          2D

 13 14  0  0  0  0  0  0  0  0999 V2000
    2.5986    1.0700    0.0000 C   0  0  0  0  0  0  0  0  0  0  0  0
   -5.1957    1.0700    0.0000 C   0  0  0  0  0  0  0  0  0  0  0  0
    1.2990    0.3192    0.0000 C   0  0  0  0  0  0  0  0  0  0  0  0
    2.5990    2.5708    0.0000 C   0  0  0  0  0  0  0  0  0  0  0  0
   -5.1962    2.5708    0.0000 C   0  0  0  0  0  0  0  0  0  0  0  0
   -3.8962    0.3192    0.0000 C   0  0  0  0  0  0  0  0  0  0  0  0
    0.0000    1.0692    0.0000 C   0  0  0  0  0  0  0  0  0  0  0  0
    1.3000    3.3208    0.0000 C   0  0  0  0  0  0  0  0  0  0  0  0
   -3.8971    3.3208    0.0000 C   0  0  0  0  0  0  0  0  0  0  0  0
   -2.5971    1.0692    0.0000 C   0  0  0  0  0  0  0  0  0  0  0  0
    0.0005    2.5700    0.0000 C   0  0  0  0  0  0  0  0  0  0  0  0
   -2.5976    2.5700    0.0000 C   0  0  0  0  0  0  0  0  0  0  0  0
   -1.2986    3.3200    0.0000 N   0  0  0  0  0  0  0  0  0  0  0  0
  3  1  1  0
  4  1  1  0
  5  2  1  0
  6  2  1  0
  7  3  1  0
  8  4  1  0
  9  5  1  0
 10  6  1  0
 11  7  1  0
 11  8  1  0
 12  9  1  0
 12 10  1  0
 13 11  1  0
 13 12  1  0
M  END
>  <NAME>  (5152) 
DICYCLOHEXYLAMINE

>  <SYNONYMS>  (5152) 


>  <SPECTRUM TYPE>  (5152) 
MS1

>  <INSTRUMENT TYPE>  (5152) 
EI-B

>  <INSTRUMENT>  (5152) 
HITACHI RMU-6E

>  <ION MODE>  (5152) 
P

>  <INCHIKEY>  (5152) 
XBPCUCUWBYBCDP-UHFFFAOYSA-N

>  <FORMULA>  (5152) 
C12H23N

>  <EXACT MASS>  (5152) 
181.183049736

>  <MW>  (5152) 
181

>  <ID>  (5152) 
JP004188

>  <CONTRIBUTOR>  (5152) 
University of Tokyo Team, {Faculty of Engineering, University of Tokyo

>  <COMMENT>  (5152) 
SMILES=C(C2)CCC(C2)NC(C1)CCCC1
InChI=InChI=1S/C12H23N/c1-3-7-11(8-4-1)13-12-9-5-2-6-10-12/h11-13H,1-10H2
computed SMILES=N(C1CCCCC1)C2CCCCC2
accession=JP004188
date=2016.01.19 (Created 2008.10.21, modified 2011.05.06)
author=MASS SPECTROSCOPY SOC. OF JAPAN (MSSJ)
license=CC BY-NC-SA
exact mass=181.18305
ionization energy=70 eV
ion type=[M]+*
computed spectral entropy=2.7062055482470444
computed normalized entropy=0.6327839192809536
SPLASH=splash10-000i-9800000000-9b54187022cc8c872671
submitter=submitter = University of Tokyo Team (Faculty of Engineering, University of Tokyo)
MoNA Rating=3.75

>  <NUM PEAKS>  (5152) 
72

>  <MASS SPECTRAL PEAKS>  (5152) 
26 0.3
27 3.7
28 8
29 0.62
30 6.2
31 0.2
32 0.4
38 0.02
39 5.5
40 0.7
41 18.4
42 0.31
43 4
44 11.4
45 0.4
51 0.04
52 0.4
53 2.8
54 3.7
55 1.88
56 42
57 2.3
58 0.7
65 0.05
66 0.4
67 3.4
68 2.9
69 0.19
70 3.5
71 0.4
72 0.3
73 0.01
77 0.8
78 0.3
79 1.5
80 0.15
81 3.7
82 10
83 5.2
84 0.07
91 0.2
92 0.1
93 0.3
94 0.1
95 0.4
96 2.3
97 0.5
98 0.49
99 0.6
100 5.9
101 0.5
108 0.04
109 0.3
110 2.9
111 0.5
112 0.09
122 0.3
123 0.2
124 1.5
125 0.17
126 0.3
136 0.4
137 0.2
138 99.99
139 10
140 0.7
151 0.1
152 0.38
153 0.4
181 11.2
182 2
183 0.3

$$$$

     RDKit          2D

 14 13  0  0  0  0  0  0  0  0999 V2000
    4.5466    7.1250    0.0000 C   0  0  0  0  0  0  0  0  0  0  0  0
    3.2476    7.8750    0.0000 C   0  0  0  0  0  0  0  0  0  0  0  0
    1.9486    7.1250    0.0000 C   0  0  0  0  0  0  0  0  0  0  0  0
    0.6495    7.8750    0.0000 C   0  0  0  0  0  0  0  0  0  0  0  0
   -0.6495    7.1250    0.0000 C   0  0  0  0  0  0  0  0  0  0  0  0
   -1.9486    7.8750    0.0000 C   0  0  0  0  0  0  0  0  0  0  0  0
   -3.2476    7.1250    0.0000 C   0  0  0  0  0  0  0  0  0  0  0  0
   -4.5466    7.8750    0.0000 C   0  0  0  0  0  0  0  0  0  0  0  0
   -5.8457    7.1250    0.0000 C   0  0  0  0  0  0  0  0  0  0  0  0
   -7.1447    7.8750    0.0000 C   0  0  0  0  0  0  0  0  0  0  0  0
   -8.4437    7.1250    0.0000 C   0  0  0  0  0  0  0  0  0  0  0  0
   -9.7428    7.8750    0.0000 C   0  0  0  0  0  0  0  0  0  0  0  0
  -11.0418    7.1250    0.0000 C   0  0  0  0  0  0  0  0  0  0  0  0
  -12.3409    7.8750    0.0000 N   0  0  0  0  0  0  0  0  0  0  0  0
  2  1  1  0
  3  2  1  0
  4  3  1  0
  5  4  1  0
  6  5  1  0
  7  6  1  0
  8  7  1  0
  9  8  1  0
 10  9  1  0
 11 10  1  0
 12 11  1  0
 13 12  1  0
 14 13  1  0
M  END
>  <NAME>  (5153) 
TRIPECANYLAMINE

>  <SYNONYMS>  (5153) 


>  <SPECTRUM TYPE>  (5153) 
MS1

>  <INSTRUMENT TYPE>  (5153) 
EI-B

>  <INSTRUMENT>  (5153) 
HITACHI RMU-6E

>  <ION MODE>  (5153) 
P

>  <INCHIKEY>  (5153) 
ABVVEAHYODGCLZ-UHFFFAOYSA-N

>  <FORMULA>  (5153) 
C13H29N

>  <EXACT MASS>  (5153) 
199.229999928

>  <MW>  (5153) 
199

>  <ID>  (5153) 
JP004187

>  <CONTRIBUTOR>  (5153) 
University of Tokyo Team, {Faculty of Engineering, University of Tokyo

>  <COMMENT>  (5153) 
SMILES=CCCCCCCCCCCCCN
InChI=InChI=1S/C13H29N/c1-2-3-4-5-6-7-8-9-10-11-12-13-14/h2-14H2,1H3
computed SMILES=NCCCCCCCCCCCCC
accession=JP004187
date=2016.01.19 (Created 2008.10.21, modified 2011.05.06)
author=MASS SPECTROSCOPY SOC. OF JAPAN (MSSJ)
license=CC BY-NC-SA
exact mass=199.23
ionization energy=70 eV
ion type=[M]+*
computed spectral entropy=2.6033191851696786
computed normalized entropy=0.5859832417335171
SPLASH=splash10-001i-9100000000-a77427073cb0ce66876b
submitter=submitter = University of Tokyo Team (Faculty of Engineering, University of Tokyo)
MoNA Rating=3.75

>  <NUM PEAKS>  (5153) 
85

>  <MASS SPECTRAL PEAKS>  (5153) 
26 0.3
27 2.8
28 2.3
29 0.64
30 99.99
31 2.2
32 0.3
33 0.01
39 1.4
40 0.5
41 12
42 0.33
43 11
44 22
45 9
46 0.03
51 0.1
52 0.1
53 0.8
54 0.08
55 8.8
56 5.8
57 4.8
58 0.09
59 3.2
60 0.2
65 0.2
66 0.01
67 0.9
68 0.9
69 4.2
70 0.22
71 1.1
72 3
73 1.6
79 0.02
80 0.1
81 0.4
82 0.9
83 0.3
84 1.4
85 0.5
86 6.8
87 0.12
88 0.1
96 0.1
97 0.6
98 0.2
99 1.1
100 3.6
101 0.6
110 0.04
111 1.1
112 0.7
113 0.1
114 0.17
115 0.4
124 0.2
125 0.7
126 0.05
127 0.1
128 1.3
129 0.3
139 0.02
140 0.4
141 0.2
142 1.8
143 0.03
152 0.2
153 0.1
154 0.4
155 0.02
156 1.3
157 0.2
168 0.2
170 0.1
171 0.1
182 0.4
183 0.1
184 0.07
185 0.1
198 1.8
199 7.2
200 0.22
201 0.2

$$$$

     RDKit          2D

 19 19  0  0  0  0  0  0  0  0999 V2000
   -0.6563   -7.2921    0.0000 C   0  0  0  0  0  0  0  0  0  0  0  0
   -1.9568   -8.0396    0.0000 C   0  0  0  0  0  0  0  0  0  0  0  0
    0.6412   -8.0447    0.0000 C   0  0  0  0  0  0  0  0  0  0  0  0
   -3.2544   -7.2871    0.0000 C   0  0  0  0  0  0  0  0  0  0  0  0
    1.9417   -7.2972    0.0000 C   0  0  0  0  0  0  0  0  0  0  0  0
   -4.5549   -8.0345    0.0000 C   0  0  0  0  0  0  0  0  0  0  0  0
    3.2393   -8.0498    0.0000 C   0  0  0  0  0  0  0  0  0  0  0  0
   -5.8525   -7.2820    0.0000 C   0  0  0  0  0  0  0  0  0  0  0  0
    4.5398   -7.3023    0.0000 C   0  0  0  0  0  0  0  0  0  0  0  0
   -7.1530   -8.0294    0.0000 C   0  0  0  0  0  0  0  0  0  0  0  0
  -11.3766   -9.8289    0.0000 C   0  0  0  0  0  0  0  0  0  0  0  0
  -12.1266   -8.5298    0.0000 C   0  0  0  0  0  0  0  0  0  0  0  0
    5.8374   -8.0548    0.0000 C   0  0  0  0  0  0  0  0  0  0  0  0
   -8.4505   -7.2769    0.0000 C   0  0  0  0  0  0  0  0  0  0  0  0
   -9.9081   -9.5122    0.0000 C   0  0  0  0  0  0  0  0  0  0  0  0
  -11.1231   -7.4078    0.0000 C   0  0  0  0  0  0  0  0  0  0  0  0
    7.1379   -7.3074    0.0000 N   0  0  0  0  0  0  0  0  0  0  0  0
   -9.7510   -8.0244    0.0000 N   0  0  0  0  0  0  0  0  0  0  0  0
  -11.4350   -5.9406    0.0000 O   0  0  0  0  0  0  0  0  0  0  0  0
  2  1  1  0
  3  1  1  0
  4  2  1  0
  5  3  1  0
  6  4  1  0
  7  5  1  0
  8  6  1  0
  9  7  1  0
 10  8  1  0
 12 11  1  0
 13  9  1  0
 14 10  1  0
 15 11  1  0
 16 12  1  0
 17 13  1  0
 18 14  1  0
 18 15  1  0
 18 16  1  0
 19 16  2  0
M  END
>  <NAME>  (5154) 
N-(12-AMINODODECYL)-2-PYRROLIDONE

>  <SYNONYMS>  (5154) 


>  <SPECTRUM TYPE>  (5154) 
MS1

>  <INSTRUMENT TYPE>  (5154) 
EI-B

>  <INSTRUMENT>  (5154) 
HITACHI RMU-6E

>  <ION MODE>  (5154) 
P

>  <INCHIKEY>  (5154) 
AWDGGAOYFMTHKT-UHFFFAOYSA-N

>  <FORMULA>  (5154) 
C16H32N2O

>  <EXACT MASS>  (5154) 
268.251463644

>  <MW>  (5154) 
268

>  <ID>  (5154) 
JP004186

>  <CONTRIBUTOR>  (5154) 
University of Tokyo Team, {Faculty of Engineering, University of Tokyo

>  <COMMENT>  (5154) 
SMILES=NCCCCCCCCCCCCN(C1)C(=O)CC1
InChI=InChI=1S/C16H32N2O/c17-13-9-7-5-3-1-2-4-6-8-10-14-18-15-11-12-16(18)19/h1-15,17H2
computed SMILES=O=C1N(CCC1)CCCCCCCCCCCCN
accession=JP004186
date=2016.01.19 (Created 2008.10.21, modified 2011.05.06)
author=MASS SPECTROSCOPY SOC. OF JAPAN (MSSJ)
license=CC BY-NC-SA
exact mass=268.25146
ionization energy=70 eV
ion type=[M]+*
computed spectral entropy=3.6048340156667362
computed normalized entropy=0.7326926811326967
SPLASH=splash10-0002-9310000000-2ad4386aacc1d37c04f3
submitter=submitter = University of Tokyo Team (Faculty of Engineering, University of Tokyo)
MoNA Rating=3.75

>  <NUM PEAKS>  (5154) 
137

>  <MASS SPECTRAL PEAKS>  (5154) 
26 0.4
27 3.6
28 14
29 0.56
30 65.6
31 0.8
32 2
37 0.03
38 0.3
39 5.4
40 2
41 3.2
42 10
43 14
44 13.8
45 0.28
52 0.2
53 2.4
54 2.6
55 2.2
56 12
57 4.3
58 2
59 0.28
60 0.2
65 0.6
66 0.6
67 0.4
68 5.6
69 19
70 40
71 0.36
72 3.4
73 1.6
74 0.2
79 0.1
80 0.8
81 2.2
82 1.8
83 0.56
84 5.4
85 1.6
86 14
87 0.26
88 0.2
91 0.6
92 0.4
93 0.04
94 0.4
95 1.2
96 2.8
97 0.26
98 99.99
99 60
100 8
101 0.16
102 0.3
107 0.4
108 0.4
109 0.08
110 0.8
111 1
112 28
113 1.05
114 4
115 1.6
116 0.3
117 0.03
118 0.3
119 0.3
120 0.3
121 0.04
122 0.1
123 0.1
124 2.6
125 0.1
126 13
127 8.6
128 4.2
129 0.1
131 0.3
132 0.2
137 0.2
138 0.12
139 0.3
140 7.6
141 4.6
142 0.4
143 1.2
149 1.4
150 0.3
152 0.08
153 0.3
154 10.2
155 4.4
156 0.5
157 1.6
158 0.4
168 9
169 0.4
170 16
171 2.8
181 0.2
182 1
183 3.4
184 2
194 0.3
195 0.02
196 12
197 4.6
198 0.8
208 0.03
209 0.8
210 10
211 5.6
212 0.08
213 0.2
222 0.8
223 0.8
224 1.04
225 4.2
226 1.4
227 0.6
228 0.01
238 3.2
239 17.6
240 4
241 0.02
251 0.6
252 4
253 0.6
254 0.02
255 0.2
267 2
268 14
269 0.4
270 0.3

$$$$

     RDKit          2D

 16 18  0  0  0  0  0  0  0  0999 V2000
   -2.6000   -0.7500    0.0000 C   0  0  0  0  0  0  0  0  0  0  0  0
   -2.6000    0.7500    0.0000 C   0  0  0  0  0  0  0  0  0  0  0  0
    5.5206    3.3082    0.0000 C   0  0  0  0  0  0  0  0  0  0  0  0
   -1.3000   -1.5000    0.0000 C   0  0  0  0  0  0  0  0  0  0  0  0
   -1.3000    1.5000    0.0000 C   0  0  0  0  0  0  0  0  0  0  0  0
    6.2734    2.0107    0.0000 C   0  0  0  0  0  0  0  0  0  0  0  0
    1.3000   -1.5000    0.0000 C   0  0  0  0  0  0  0  0  0  0  0  0
    2.6000   -0.7500    0.0000 C   0  0  0  0  0  0  0  0  0  0  0  0
    4.0529    2.9884    0.0000 C   0  0  0  0  0  0  0  0  0  0  0  0
    1.3000    1.5000    0.0000 C   0  0  0  0  0  0  0  0  0  0  0  0
    0.0000   -0.7500    0.0000 C   0  0  0  0  0  0  0  0  0  0  0  0
    0.0000    0.7500    0.0000 C   0  0  0  0  0  0  0  0  0  0  0  0
    2.6000    0.7500    0.0000 C   0  0  0  0  0  0  0  0  0  0  0  0
    5.2723    0.8866    0.0000 C   0  0  0  0  0  0  0  0  0  0  0  0
    3.8989    1.5002    0.0000 N   0  0  0  0  0  0  0  0  0  0  0  0
    5.5873   -0.5800    0.0000 O   0  0  0  0  0  0  0  0  0  0  0  0
  2  1  2  0
  4  1  1  0
  5  2  1  0
  6  3  1  0
  8  7  2  0
  9  3  1  0
 11  4  2  0
 11  7  1  0
 12  5  2  0
 12 10  1  0
 12 11  1  0
 13  8  1  0
 13 10  2  0
 14  6  1  0
 15  9  1  0
 15 13  1  0
 15 14  1  0
 16 14  2  0
M  END
>  <NAME>  (5155) 
N-BETA-NAPHTHYL-2-PYRROLIDONE

>  <SYNONYMS>  (5155) 


>  <SPECTRUM TYPE>  (5155) 
MS1

>  <INSTRUMENT TYPE>  (5155) 
EI-B

>  <INSTRUMENT>  (5155) 
HITACHI RMU-6E

>  <ION MODE>  (5155) 
P

>  <INCHIKEY>  (5155) 
FJWHXLZPCPMMNL-UHFFFAOYSA-N

>  <FORMULA>  (5155) 
C14H13NO

>  <EXACT MASS>  (5155) 
211.099714036

>  <MW>  (5155) 
211

>  <ID>  (5155) 
JP004185

>  <CONTRIBUTOR>  (5155) 
University of Tokyo Team, {Faculty of Engineering, University of Tokyo

>  <COMMENT>  (5155) 
SMILES=O=C(C3)N(CC3)c(c1)cc(c2)c(ccc2)c1
InChI=InChI=1S/C14H13NO/c16-14-6-3-9-15(14)13-8-7-11-4-1-2-5-12(11)10-13/h1-2,4-5,7-8,10H,3,6,9H2
computed SMILES=O=C1N(C=2C=CC=3C=CC=CC3C2)CCC1
accession=JP004185
date=2016.01.19 (Created 2008.10.21, modified 2011.05.06)
author=MASS SPECTROSCOPY SOC. OF JAPAN (MSSJ)
license=CC BY-NC-SA
exact mass=211.09971
ionization energy=70 eV
ion type=[M]+*
computed spectral entropy=3.319824220174369
computed normalized entropy=0.6565788824314639
SPLASH=splash10-00kf-2900000000-5b7bdf0a00ac8c8b0862
submitter=submitter = University of Tokyo Team (Faculty of Engineering, University of Tokyo)
MoNA Rating=3.75

>  <NUM PEAKS>  (5155) 
157

>  <MASS SPECTRAL PEAKS>  (5155) 
26 0.6
27 3.5
28 12.1
29 0.21
30 2.6
31 0.6
32 1.2
33 0.01
34 0.2
37 0.7
38 0.6
39 0.53
40 0.3
41 5.8
42 2.5
43 0.22
44 1
45 0.6
46 0.1
49 0.01
50 1.7
51 3.5
52 1.5
53 0.08
54 0.4
55 3.1
56 1.4
57 0.2
58 1.7
59 0.5
60 0.3
61 0.09
62 1.9
63 6
64 1.5
65 0.31
66 0.6
67 0.7
68 0.5
69 0.11
70 1.3
71 0.9
72 2.3
73 0.04
74 2.2
75 3
76 2
77 0.45
78 1.4
79 0.3
80 0.2
81 0.04
82 0.4
83 0.8
84 1.4
85 0.21
86 4.4
87 2.2
88 1.8
89 0.9
90 1.1
91 1.4
92 0.5
93 0.03
94 0.4
95 0.4
96 0.4
97 0.06
98 3.1
99 2.5
100 0.9
101 0.13
102 0.9
103 0.7
104 0.5
105 0.04
106 0.2
107 0.4
108 0.2
109 0.02
110 0.5
111 0.5
112 1.3
113 0.4
114 4.6
115 51.8
116 26
117 0.5
118 0.4
119 0.4
120 0.2
121 0.03
122 0.2
123 0.1
124 0.9
125 0.06
126 4
127 11.2
128 5.2
129 0.38
130 0.5
131 0.3
132 0.1
133 0.03
134 0.2
135 0.2
136 0.2
137 0.02
138 0.1
139 0.6
140 5.2
141 0.4
142 6
143 99.99
144 28.2
145 0.31
146 0.2
149 1.7
150 0.1
151 0.02
152 0.6
153 0.3
154 1.7
155 0.15
156 31
157 4.3
158 0.6
159 0.01
165 0.1
166 0.3
167 0.7
168 0.09
169 1.1
170 0.4
171 0.2
178 0.02
179 0.2
180 0.5
181 0.3
182 0.17
183 4.4
184 0.6
185 0.7
186 0.02
195 0.1
196 0.1
197 0.2
198 0.02
199 0.2
207 0.1
208 0.1
209 0.01
210 1.1
211 17
212 3.3
213 0.03
214 0.1

$$$$

     RDKit          2D

 25 25  0  0  0  0  0  0  0  0999 V2000
  -18.4031   -9.3820    0.0000 C   0  0  0  0  0  0  0  0  0  0  0  0
    8.8468   -9.0340    0.0000 C   0  0  0  0  0  0  0  0  0  0  0  0
  -17.1041  -10.1320    0.0000 C   0  0  0  0  0  0  0  0  0  0  0  0
  -15.8051   -9.3820    0.0000 C   0  0  0  0  0  0  0  0  0  0  0  0
  -14.5060  -10.1320    0.0000 C   0  0  0  0  0  0  0  0  0  0  0  0
  -13.2070   -9.3820    0.0000 C   0  0  0  0  0  0  0  0  0  0  0  0
  -11.9080  -10.1320    0.0000 C   0  0  0  0  0  0  0  0  0  0  0  0
  -10.6089   -9.3820    0.0000 C   0  0  0  0  0  0  0  0  0  0  0  0
   -9.3099  -10.1320    0.0000 C   0  0  0  0  0  0  0  0  0  0  0  0
   -8.0108   -9.3820    0.0000 C   0  0  0  0  0  0  0  0  0  0  0  0
   -6.7118  -10.1320    0.0000 C   0  0  0  0  0  0  0  0  0  0  0  0
   -5.4128   -9.3820    0.0000 C   0  0  0  0  0  0  0  0  0  0  0  0
   -4.1137  -10.1320    0.0000 C   0  0  0  0  0  0  0  0  0  0  0  0
   -2.8147   -9.3820    0.0000 C   0  0  0  0  0  0  0  0  0  0  0  0
   -1.5156  -10.1320    0.0000 C   0  0  0  0  0  0  0  0  0  0  0  0
   -0.2166   -9.3820    0.0000 C   0  0  0  0  0  0  0  0  0  0  0  0
    1.0824  -10.1320    0.0000 C   0  0  0  0  0  0  0  0  0  0  0  0
    2.3815   -9.3820    0.0000 C   0  0  0  0  0  0  0  0  0  0  0  0
    6.6051   -7.5775    0.0000 C   0  0  0  0  0  0  0  0  0  0  0  0
    3.6805  -10.1320    0.0000 C   0  0  0  0  0  0  0  0  0  0  0  0
    5.1453   -7.8892    0.0000 C   0  0  0  0  0  0  0  0  0  0  0  0
    7.3551   -8.8766    0.0000 C   0  0  0  0  0  0  0  0  0  0  0  0
    6.3553   -9.9849    0.0000 C   0  0  0  0  0  0  0  0  0  0  0  0
    4.9795   -9.3820    0.0000 N   0  0  0  0  0  0  0  0  0  0  0  0
    6.6708  -11.4514    0.0000 O   0  0  0  0  0  0  0  0  0  0  0  0
  3  1  1  0
  4  3  1  0
  5  4  1  0
  6  5  1  0
  7  6  1  0
  8  7  1  0
  9  8  1  0
 10  9  1  0
 11 10  1  0
 12 11  1  0
 13 12  1  0
 14 13  1  0
 15 14  1  0
 16 15  1  0
 17 16  1  0
 18 17  1  0
 20 18  1  0
 21 19  1  0
 22  2  1  0
 22 19  1  0
 23 22  1  0
 24 20  1  0
 24 21  1  0
 24 23  1  0
 25 23  2  0
M  END
>  <NAME>  (5156) 
3-METHYL-N-OCTADECYL-2-PYRROLIDONE

>  <SYNONYMS>  (5156) 


>  <SPECTRUM TYPE>  (5156) 
MS1

>  <INSTRUMENT TYPE>  (5156) 
EI-B

>  <INSTRUMENT>  (5156) 
HITACHI RMU-6E

>  <ION MODE>  (5156) 
P

>  <INCHIKEY>  (5156) 
MBWBDJQUYZJOBQ-UHFFFAOYSA-N

>  <FORMULA>  (5156) 
C23H45NO

>  <EXACT MASS>  (5156) 
351.35011506

>  <MW>  (5156) 
351

>  <ID>  (5156) 
JP004184

>  <CONTRIBUTOR>  (5156) 
University of Tokyo Team, {Faculty of Engineering, University of Tokyo

>  <COMMENT>  (5156) 
SMILES=CCCCCCCCCCCCCCCCCCN(C1)C(=O)C(C)C1
InChI=InChI=1S/C23H45NO/c1-3-4-5-6-7-8-9-10-11-12-13-14-15-16-17-18-20-24-21-19-22(2)23(24)25/h22H,3-21H2,1-2H3
computed SMILES=O=C1N(CCCCCCCCCCCCCCCCCC)CCC1C
accession=JP004184
date=2016.01.19 (Created 2008.10.21, modified 2011.05.06)
author=MASS SPECTROSCOPY SOC. OF JAPAN (MSSJ)
license=CC BY-NC-SA
exact mass=351.35012
ionization energy=70 eV
ion type=[M]+*
computed spectral entropy=3.7779940494752067
computed normalized entropy=0.7408025490359844
SPLASH=splash10-0ikc-8913000000-e7654c95c501d0c74493
submitter=submitter = University of Tokyo Team (Faculty of Engineering, University of Tokyo)
MoNA Rating=3.75

>  <NUM PEAKS>  (5156) 
164

>  <MASS SPECTRAL PEAKS>  (5156) 
25 0.2
26 1.6
27 7
28 1.16
29 17
30 19
31 1
32 0.02
38 0.4
39 3.4
40 1.3
41 2.6
42 7.8
43 33
44 2.3
53 0.16
54 1.8
55 25
56 20
57 2
58 1.6
59 1
60 0.3
65 0.02
66 0.1
67 3.4
68 1.6
69 0.7
70 5
71 5.8
72 2
73 0.1
81 1.2
82 3
83 11.8
84 1.96
85 8.4
86 3
87 1
93 0.03
94 1
95 1
96 1.2
97 0.28
98 15
99 2.6
100 10
101 0.16
110 1.3
111 2
112 99.99
113 9.14
114 7.8
115 1
121 0.4
122 0.02
123 0.2
124 1.2
125 1
126 1.5
127 8.2
128 1.2
129 0.5
131 0.06
135 0.2
136 0.2
137 0.2
138 0.12
139 0.8
140 21
141 7.3
142 0.12
143 0.6
144 0.4
145 0.2
152 0.06
153 0.3
154 12
155 3.6
156 0.14
157 0.4
158 0.4
159 0.2
166 0.04
167 0.2
168 10
169 4.4
170 0.12
171 0.2
180 0.6
181 0.3
182 0.73
183 3
184 1.2
185 0.6
186 0.04
194 0.6
196 8.2
197 3.2
198 0.14
199 0.4
208 0.6
209 0.2
210 0.64
211 2.4
212 1.4
213 0.2
222 0.04
223 0.1
224 5.6
225 2.4
226 0.08
227 0.6
236 0.4
237 0.2
238 0.38
239 1.8
240 1
241 0.3
250 0.04
251 0.1
252 4.2
253 1.8
254 0.08
255 0.1
264 0.2
265 0.1
266 0.48
267 2.4
268 1.2
269 1
270 0.03
278 0.2
279 0.1
280 4.8
281 0.16
282 0.8
294 4.2
295 1.8
296 0.15
297 0.7
307 0.1
308 4
309 0.16
310 0.4
311 0.4
312 0.1
320 0.04
321 0.6
322 4
323 2.4
324 0.1
325 0.2
334 2.2
335 0.6
336 2.2
337 6
338 1
349 0.6
350 0.46
351 50
352 14
353 2.4
354 0.6

$$$$

     RDKit          2D

 23 23  0  0  0  0  0  0  0  0999 V2000
   15.9293   -8.5603    0.0000 C   0  0  0  0  0  0  0  0  0  0  0  0
   -3.9089   -6.0610    0.0000 C   0  0  0  0  0  0  0  0  0  0  0  0
   14.6302   -9.3103    0.0000 C   0  0  0  0  0  0  0  0  0  0  0  0
   13.3312   -8.5603    0.0000 C   0  0  0  0  0  0  0  0  0  0  0  0
   12.0322   -9.3103    0.0000 C   0  0  0  0  0  0  0  0  0  0  0  0
   10.7331   -8.5603    0.0000 C   0  0  0  0  0  0  0  0  0  0  0  0
    9.4341   -9.3103    0.0000 C   0  0  0  0  0  0  0  0  0  0  0  0
    8.1351   -8.5603    0.0000 C   0  0  0  0  0  0  0  0  0  0  0  0
    6.8360   -9.3103    0.0000 C   0  0  0  0  0  0  0  0  0  0  0  0
    5.5370   -8.5603    0.0000 C   0  0  0  0  0  0  0  0  0  0  0  0
    4.2379   -9.3103    0.0000 C   0  0  0  0  0  0  0  0  0  0  0  0
    2.9389   -8.5603    0.0000 C   0  0  0  0  0  0  0  0  0  0  0  0
    1.6399   -9.3103    0.0000 C   0  0  0  0  0  0  0  0  0  0  0  0
    0.3408   -8.5603    0.0000 C   0  0  0  0  0  0  0  0  0  0  0  0
   -0.9582   -9.3103    0.0000 C   0  0  0  0  0  0  0  0  0  0  0  0
   -2.2573   -8.5603    0.0000 C   0  0  0  0  0  0  0  0  0  0  0  0
   -6.4808   -6.7558    0.0000 C   0  0  0  0  0  0  0  0  0  0  0  0
   -7.2308   -8.0548    0.0000 C   0  0  0  0  0  0  0  0  0  0  0  0
   -3.5563   -9.3103    0.0000 C   0  0  0  0  0  0  0  0  0  0  0  0
   -5.0211   -7.0674    0.0000 C   0  0  0  0  0  0  0  0  0  0  0  0
   -6.2311   -9.1632    0.0000 C   0  0  0  0  0  0  0  0  0  0  0  0
   -4.8553   -8.5603    0.0000 N   0  0  0  0  0  0  0  0  0  0  0  0
   -6.5466  -10.6297    0.0000 O   0  0  0  0  0  0  0  0  0  0  0  0
  3  1  1  0
  4  3  1  0
  5  4  1  0
  6  5  1  0
  7  6  1  0
  8  7  1  0
  9  8  1  0
 10  9  1  0
 11 10  1  0
 12 11  1  0
 13 12  1  0
 14 13  1  0
 15 14  1  0
 16 15  1  0
 18 17  1  0
 19 16  1  0
 20  2  1  0
 20 17  1  0
 21 18  1  0
 22 19  1  0
 22 20  1  0
 22 21  1  0
 23 21  2  0
M  END
>  <NAME>  (5157) 
N-HEXADECYL-5-METHYL-2-RYRROLIDONE

>  <SYNONYMS>  (5157) 


>  <SPECTRUM TYPE>  (5157) 
MS1

>  <INSTRUMENT TYPE>  (5157) 
EI-B

>  <INSTRUMENT>  (5157) 
HITACHI RMU-6E

>  <ION MODE>  (5157) 
P

>  <INCHIKEY>  (5157) 
KQSWUMKCKNXRSK-UHFFFAOYSA-N

>  <FORMULA>  (5157) 
C21H41NO

>  <EXACT MASS>  (5157) 
323.318814932

>  <MW>  (5157) 
323

>  <ID>  (5157) 
JP004183

>  <CONTRIBUTOR>  (5157) 
University of Tokyo Team, {Faculty of Engineering, University of Tokyo

>  <COMMENT>  (5157) 
SMILES=CCCCCCCCCCCCCCCCN(C(C)1)C(=O)CC1
InChI=InChI=1S/C21H41NO/c1-3-4-5-6-7-8-9-10-11-12-13-14-15-16-19-22-20(2)17-18-21(22)23/h20H,3-19H2,1-2H3
computed SMILES=O=C1N(CCCCCCCCCCCCCCCC)C(C)CC1
accession=JP004183
date=2016.01.19 (Created 2008.10.21, modified 2011.05.06)
author=MASS SPECTROSCOPY SOC. OF JAPAN (MSSJ)
license=CC BY-NC-SA
exact mass=323.31881
ionization energy=70 eV
ion type=[M]+*
computed spectral entropy=1.8447108938267383
computed normalized entropy=0.4050858066078246
SPLASH=splash10-03di-2900000000-d9cdd36d47eacf026903
submitter=submitter = University of Tokyo Team (Faculty of Engineering, University of Tokyo)
MoNA Rating=3.75

>  <NUM PEAKS>  (5157) 
95

>  <MASS SPECTRAL PEAKS>  (5157) 
26 0.2
27 0.5
28 44
29 0.18
30 1.3
31 0.1
32 1
39 0.02
40 0.1
41 2.1
42 0.6
43 0.26
44 0.7
45 0.1
53 0.1
54 0.02
55 2.7
56 0.8
57 1.5
58 0.02
59 0.1
66 0.1
67 0.3
68 0.01
69 0.7
70 0.5
71 0.3
72 0.01
81 0.1
82 0.5
83 0.9
84 0.16
85 0.3
86 0.2
95 0.1
96 0.02
97 0.3
98 1.8
99 0.4
100 0.08
101 0.1
110 0.1
111 0.2
112 99.99
113 82
114 0.8
115 0.1
126 0.19
127 0.7
128 0.1
138 0.2
139 0.01
140 2.3
141 0.6
142 0.1
154 0.1
155 0.3
156 0.1
166 0.1
167 0.01
168 0.7
169 0.3
170 0.1
182 0.04
183 0.1
196 0.5
197 0.2
208 0.01
210 0.5
211 0.2
212 0.1
224 0.05
225 0.2
238 0.5
239 0.2
252 0.04
253 0.2
254 0.1
266 0.3
267 0.01
268 0.1
280 0.4
281 0.2
294 0.03
295 0.4
296 0.1
306 0.2
307 0.01
308 1.8
309 0.4
310 0.1
322 0.02
323 2.8
324 0.7
325 0.1

$$$$

     RDKit          2D

 18 18  0  0  0  0  0  0  0  0999 V2000
   10.7331   -6.3103    0.0000 C   0  0  0  0  0  0  0  0  0  0  0  0
   -2.6098   -3.0610    0.0000 C   0  0  0  0  0  0  0  0  0  0  0  0
    9.4341   -5.5603    0.0000 C   0  0  0  0  0  0  0  0  0  0  0  0
    8.1351   -6.3103    0.0000 C   0  0  0  0  0  0  0  0  0  0  0  0
    6.8360   -5.5603    0.0000 C   0  0  0  0  0  0  0  0  0  0  0  0
    5.5370   -6.3103    0.0000 C   0  0  0  0  0  0  0  0  0  0  0  0
    4.2379   -5.5603    0.0000 C   0  0  0  0  0  0  0  0  0  0  0  0
    2.9389   -6.3103    0.0000 C   0  0  0  0  0  0  0  0  0  0  0  0
    1.6399   -5.5603    0.0000 C   0  0  0  0  0  0  0  0  0  0  0  0
    0.3408   -6.3103    0.0000 C   0  0  0  0  0  0  0  0  0  0  0  0
   -0.9582   -5.5603    0.0000 C   0  0  0  0  0  0  0  0  0  0  0  0
   -5.1818   -3.7558    0.0000 C   0  0  0  0  0  0  0  0  0  0  0  0
   -5.9318   -5.0548    0.0000 C   0  0  0  0  0  0  0  0  0  0  0  0
   -2.2573   -6.3103    0.0000 C   0  0  0  0  0  0  0  0  0  0  0  0
   -3.7221   -4.0674    0.0000 C   0  0  0  0  0  0  0  0  0  0  0  0
   -4.9321   -6.1632    0.0000 C   0  0  0  0  0  0  0  0  0  0  0  0
   -3.5563   -5.5603    0.0000 N   0  0  0  0  0  0  0  0  0  0  0  0
   -5.2476   -7.6297    0.0000 O   0  0  0  0  0  0  0  0  0  0  0  0
  3  1  1  0
  4  3  1  0
  5  4  1  0
  6  5  1  0
  7  6  1  0
  8  7  1  0
  9  8  1  0
 10  9  1  0
 11 10  1  0
 13 12  1  0
 14 11  1  0
 15  2  1  0
 15 12  1  0
 16 13  1  0
 17 14  1  0
 17 15  1  0
 17 16  1  0
 18 16  2  0
M  END
>  <NAME>  (5158) 
5-METHYL-N-UNDECYL-2-PYRROLIDONE

>  <SYNONYMS>  (5158) 


>  <SPECTRUM TYPE>  (5158) 
MS1

>  <INSTRUMENT TYPE>  (5158) 
EI-B

>  <INSTRUMENT>  (5158) 
HITACHI RMU-6E

>  <ION MODE>  (5158) 
P

>  <INCHIKEY>  (5158) 
CZANSEAJYFFNSZ-UHFFFAOYSA-N

>  <FORMULA>  (5158) 
C16H31NO

>  <EXACT MASS>  (5158) 
253.240564612

>  <MW>  (5158) 
253

>  <ID>  (5158) 
JP004182

>  <CONTRIBUTOR>  (5158) 
University of Tokyo Team, {Faculty of Engineering, University of Tokyo

>  <COMMENT>  (5158) 
SMILES=CCCCCCCCCCCN(C(C)1)C(=O)CC1
InChI=InChI=1S/C16H31NO/c1-3-4-5-6-7-8-9-10-11-14-17-15(2)12-13-16(17)18/h15H,3-14H2,1-2H3
computed SMILES=O=C1N(CCCCCCCCCCC)C(C)CC1
accession=JP004182
date=2016.01.19 (Created 2008.10.21, modified 2011.05.06)
author=MASS SPECTROSCOPY SOC. OF JAPAN (MSSJ)
license=CC BY-NC-SA
exact mass=253.24056
ionization energy=70 eV
ion type=[M]+*
computed spectral entropy=3.021850213749904
computed normalized entropy=0.6493072536914981
SPLASH=splash10-03di-4920000000-3c4c0506a6ae7ca9b190
submitter=submitter = University of Tokyo Team (Faculty of Engineering, University of Tokyo)
MoNA Rating=3.75

>  <NUM PEAKS>  (5158) 
105

>  <MASS SPECTRAL PEAKS>  (5158) 
26 0.3
27 3.3
28 4.1
29 1
30 3.4
31 0.2
32 0.3
39 0.33
40 0.5
41 19
42 5.1
43 1.4
44 3.5
51 0.3
53 1.3
54 0.15
55 21
56 7.8
57 7.4
58 0.14
59 0.2
60 0.2
65 0.2
66 0.03
67 3.4
68 1.9
69 5.5
70 0.28
71 2.3
72 0.7
79 0.3
80 0.02
81 0.6
82 2.8
83 11
84 1.76
85 2.4
86 0.6
93 0.2
94 0.11
95 0.3
96 0.6
97 1.2
98 1.5
99 1.4
100 5
101 0.4
110 0.09
111 0.9
112 99.99
113 66
114 0.52
115 0.3
119 0.8
124 0.6
126 1.38
127 3.3
128 0.5
129 0.1
131 0.11
138 1.1
139 0.2
140 18.4
141 0.41
142 0.3
152 0.5
153 0.1
154 0.7
155 1.6
156 0.2
166 0.7
167 0.02
168 4
169 1.7
170 0.3
180 0.02
181 0.5
182 3.7
183 1.2
184 0.02
193 0.1
194 0.3
195 0.1
196 0.37
197 1.2
198 0.5
199 0.1
209 0.02
210 1
211 0.1
212 0.1
224 0.27
225 0.8
226 0.2
236 1.8
237 0.02
238 19.8
239 3.1
240 0.3
251 0.02
252 2.1
253 28
254 6
255 0.09
256 0.1

$$$$

     RDKit          2D

 17 17  0  0  0  0  0  0  0  0999 V2000
    6.7515   -5.4048    0.0000 C   0  0  0  0  0  0  0  0  0  0  0  0
  -10.1062   -5.7529    0.0000 C   0  0  0  0  0  0  0  0  0  0  0  0
    5.4524   -4.6548    0.0000 C   0  0  0  0  0  0  0  0  0  0  0  0
    4.1534   -5.4048    0.0000 C   0  0  0  0  0  0  0  0  0  0  0  0
    2.8543   -4.6548    0.0000 C   0  0  0  0  0  0  0  0  0  0  0  0
    1.5553   -5.4048    0.0000 C   0  0  0  0  0  0  0  0  0  0  0  0
    0.2563   -4.6548    0.0000 C   0  0  0  0  0  0  0  0  0  0  0  0
   -1.0428   -5.4048    0.0000 C   0  0  0  0  0  0  0  0  0  0  0  0
   -2.3418   -4.6548    0.0000 C   0  0  0  0  0  0  0  0  0  0  0  0
   -3.6408   -5.4048    0.0000 C   0  0  0  0  0  0  0  0  0  0  0  0
   -7.8644   -7.2093    0.0000 C   0  0  0  0  0  0  0  0  0  0  0  0
   -4.9399   -4.6548    0.0000 C   0  0  0  0  0  0  0  0  0  0  0  0
   -6.4047   -6.8977    0.0000 C   0  0  0  0  0  0  0  0  0  0  0  0
   -8.6144   -5.9103    0.0000 C   0  0  0  0  0  0  0  0  0  0  0  0
   -7.6147   -4.8019    0.0000 C   0  0  0  0  0  0  0  0  0  0  0  0
   -6.2389   -5.4048    0.0000 N   0  0  0  0  0  0  0  0  0  0  0  0
   -7.9302   -3.3355    0.0000 O   0  0  0  0  0  0  0  0  0  0  0  0
  3  1  1  0
  4  3  1  0
  5  4  1  0
  6  5  1  0
  7  6  1  0
  8  7  1  0
  9  8  1  0
 10  9  1  0
 12 10  1  0
 13 11  1  0
 14  2  1  0
 14 11  1  0
 15 14  1  0
 16 12  1  0
 16 13  1  0
 16 15  1  0
 17 15  2  0
M  END
>  <NAME>  (5159) 
N-DECYL-3-METHYL-2-PYRROLIDONE

>  <SYNONYMS>  (5159) 


>  <SPECTRUM TYPE>  (5159) 
MS1

>  <INSTRUMENT TYPE>  (5159) 
EI-B

>  <INSTRUMENT>  (5159) 
HITACHI RMU-6E

>  <ION MODE>  (5159) 
P

>  <INCHIKEY>  (5159) 
HNGCEYRBEHSEMW-UHFFFAOYSA-N

>  <FORMULA>  (5159) 
C15H29NO

>  <EXACT MASS>  (5159) 
239.22491454800002

>  <MW>  (5159) 
239

>  <ID>  (5159) 
JP004181

>  <CONTRIBUTOR>  (5159) 
University of Tokyo Team, {Faculty of Engineering, University of Tokyo

>  <COMMENT>  (5159) 
SMILES=CCCCCCCCCCN(C1)C(=O)C(C)C1
InChI=InChI=1S/C15H29NO/c1-3-4-5-6-7-8-9-10-12-16-13-11-14(2)15(16)17/h14H,3-13H2,1-2H3
computed SMILES=O=C1N(CCCCCCCCCC)CCC1C
accession=JP004181
date=2016.01.19 (Created 2008.10.21, modified 2011.05.06)
author=MASS SPECTROSCOPY SOC. OF JAPAN (MSSJ)
license=CC BY-NC-SA
exact mass=239.22491
ionization energy=70 eV
ion type=[M]+*
computed spectral entropy=3.0914094294793655
computed normalized entropy=0.6656221443485489
SPLASH=splash10-03di-4910000000-e9e6a2ee1e7e4c742798
submitter=submitter = University of Tokyo Team (Faculty of Engineering, University of Tokyo)
MoNA Rating=3.75

>  <NUM PEAKS>  (5159) 
104

>  <MASS SPECTRAL PEAKS>  (5159) 
26 0.3
27 6
28 5
29 1.3
30 5.2
31 0.2
32 0.2
33 0.01
38 0.2
39 4.4
40 0.8
41 2.34
42 20
43 15
44 3
45 0.01
50 0.1
51 0.3
52 0.2
53 0.22
54 2.3
55 21.6
56 11.2
57 0.5
58 0.8
65 0.3
66 0.1
67 0.18
68 2
69 4.2
70 3.7
71 0.11
72 0.5
73 0.3
79 0.3
80 0.03
81 0.7
82 3
83 2.3
84 5.7
85 4.4
86 0.5
91 0.3
93 0.02
94 0.3
95 0.4
96 0.9
97 0.06
98 5.4
99 1.8
100 9.2
101 0.06
108 0.1
109 0.1
110 0.8
111 0.09
112 99.99
113 86.8
114 6.6
115 0.06
124 0.2
125 0.4
126 21
127 0.84
128 0.8
129 0.1
138 0.8
139 0.03
140 23
141 9
142 0.8
152 0.02
153 0.2
154 10.2
155 4.6
156 0.05
166 0.2
167 0.1
168 7
169 0.2
170 0.7
171 0.1
182 5
183 0.18
184 0.4
196 6.6
197 3.8
198 0.04
199 0.2
208 0.1
209 0.2
210 0.52
211 0.8
212 0.2
222 0.5
223 0.01
224 1.9
225 0.4
237 0.1
238 0.19
239 41
240 9
241 1.3
242 0.2

$$$$

     RDKit          2D

 12 12  0  0  0  0  0  0  0  0999 V2000
    7.8718    4.1971    0.0000 C   0  0  0  0  0  0  0  0  0  0  0  0
    6.3801    4.3545    0.0000 C   0  0  0  0  0  0  0  0  0  0  0  0
    5.4979    3.1414    0.0000 C   0  0  0  0  0  0  0  0  0  0  0  0
    4.0061    3.2988    0.0000 C   0  0  0  0  0  0  0  0  0  0  0  0
    3.1239    2.0857    0.0000 C   0  0  0  0  0  0  0  0  0  0  0  0
    1.6322    2.2431    0.0000 C   0  0  0  0  0  0  0  0  0  0  0  0
   -0.7500    1.0300    0.0000 C   0  0  0  0  0  0  0  0  0  0  0  0
    1.2100   -0.3900    0.0000 C   0  0  0  0  0  0  0  0  0  0  0  0
    0.7500    1.0300    0.0000 C   0  0  0  0  0  0  0  0  0  0  0  0
   -1.2100   -0.3900    0.0000 C   0  0  0  0  0  0  0  0  0  0  0  0
   -2.6377   -0.8500    0.0000 O   0  0  0  0  0  0  0  0  0  0  0  0
   -0.0000   -1.2800    0.0000 O   0  0  0  0  0  0  0  0  0  0  0  0
  2  1  1  0
  3  2  1  0
  4  3  1  0
  5  4  1  0
  6  5  1  0
  9  6  1  0
  9  7  1  0
  9  8  1  0
 10  7  1  0
 11 10  2  0
 12  8  1  0
 12 10  1  0
M  END
>  <NAME>  (5160) 
3-HEXYL-GAMMA-BUTYROLACTONE

>  <SYNONYMS>  (5160) 


>  <SPECTRUM TYPE>  (5160) 
MS1

>  <INSTRUMENT TYPE>  (5160) 
EI-B

>  <INSTRUMENT>  (5160) 
HITACHI RMU-6E

>  <ION MODE>  (5160) 
P

>  <INCHIKEY>  (5160) 
BAKYERABTYQIGZ-UHFFFAOYSA-N

>  <FORMULA>  (5160) 
C10H18O2

>  <EXACT MASS>  (5160) 
170.130679816

>  <MW>  (5160) 
170

>  <ID>  (5160) 
JP004180

>  <CONTRIBUTOR>  (5160) 
University of Tokyo Team, {Faculty of Engineering, University of Tokyo

>  <COMMENT>  (5160) 
SMILES=CCCCCCC(C1)CC(=O)O1
InChI=InChI=1S/C10H18O2/c1-2-3-4-5-6-9-7-10(11)12-8-9/h9H,2-8H2,1H3
computed SMILES=O=C1OCC(C1)CCCCCC
accession=JP004180
date=2016.01.19 (Created 2008.10.21, modified 2011.05.06)
author=MASS SPECTROSCOPY SOC. OF JAPAN (MSSJ)
license=CC BY-NC-SA
exact mass=170.13068
ionization energy=70 eV
ion type=[M]+*
computed spectral entropy=3.02498289512408
computed normalized entropy=0.6224484904827116
SPLASH=splash10-000j-9000000000-57ed3e639968d4a8eb35
submitter=submitter = University of Tokyo Team (Faculty of Engineering, University of Tokyo)
MoNA Rating=3.75

>  <NUM PEAKS>  (5160) 
129

>  <MASS SPECTRAL PEAKS>  (5160) 
26 0.9
27 13
28 3.6
29 1.4
30 0.6
31 1.4
32 0.4
33 0.03
38 0.5
39 13
40 2.8
41 2.9
42 11
43 33.8
44 2
45 0.34
46 0.1
50 0.3
51 1.2
52 0.07
53 5.6
54 3
55 35.4
56 0.8
57 4
58 7.4
59 2.5
60 0.02
61 0.1
62 0.1
63 0.2
64 0.01
65 1
66 0.5
67 5.5
68 0.21
69 8
70 5.4
71 6.4
72 0.26
73 8.4
74 0.5
75 0.2
77 0.13
78 0.3
79 1.4
80 0.4
81 0.52
82 2.1
83 5
84 1.8
85 1.22
86 99.99
87 7
88 1
89 0.03
91 0.6
92 0.1
93 0.7
94 0.02
95 2.5
96 0.4
97 1.4
98 0.13
99 74
100 10
101 3.5
102 0.03
103 0.2
104 0.1
105 0.3
106 0.01
107 0.6
108 0.1
109 1.3
110 0.06
111 0.7
112 0.7
113 1.6
114 0.03
115 0.4
116 0.1
117 0.4
118 0.01
119 0.2
120 0.1
121 0.5
122 0.02
123 0.4
124 0.2
125 0.6
126 0.09
127 2.3
128 0.8
129 1
130 0.04
131 0.1
135 0.2
136 0.1
137 0.04
138 0.2
139 1.3
140 0.3
141 0.06
142 0.2
143 0.2
144 0.1
145 0.01
150 0.1
151 0.4
152 0.1
153 0.02
154 0.1
155 0.4
156 0.2
157 0.02
158 0.2
159 0.1
165 0.1
166 0.03
167 0.2
168 0.4
169 1.1
170 0.14
171 1.8
172 0.3
173 0.1
174 0.02
175 0.1

$$$$

     RDKit          2D

 16 17  0  0  0  0  0  0  0  0999 V2000
   -4.5506   -7.0342    0.0000 C   0  0  0  0  0  0  0  0  0  0  0  0
   -5.3006   -5.7352    0.0000 C   0  0  0  0  0  0  0  0  0  0  0  0
    3.5734   -4.4928    0.0000 C   0  0  0  0  0  0  0  0  0  0  0  0
    2.2782   -2.2401    0.0000 C   0  0  0  0  0  0  0  0  0  0  0  0
    2.2719   -5.2400    0.0000 C   0  0  0  0  0  0  0  0  0  0  0  0
    0.9766   -2.9873    0.0000 C   0  0  0  0  0  0  0  0  0  0  0  0
   -3.0822   -6.7176    0.0000 C   0  0  0  0  0  0  0  0  0  0  0  0
    3.5766   -2.9928    0.0000 C   0  0  0  0  0  0  0  0  0  0  0  0
    0.9735   -4.4873    0.0000 C   0  0  0  0  0  0  0  0  0  0  0  0
   -4.2972   -4.6131    0.0000 C   0  0  0  0  0  0  0  0  0  0  0  0
   -1.6246   -4.4822    0.0000 C   0  0  0  0  0  0  0  0  0  0  0  0
    4.8771   -2.2453    0.0000 Cl  0  0  0  0  0  0  0  0  0  0  0  0
   -0.3271   -5.2348    0.0000 N   0  0  0  0  0  0  0  0  0  0  0  0
   -2.9251   -5.2297    0.0000 N   0  0  0  0  0  0  0  0  0  0  0  0
   -4.6091   -3.1459    0.0000 O   0  0  0  0  0  0  0  0  0  0  0  0
   -1.6217   -2.9822    0.0000 O   0  0  0  0  0  0  0  0  0  0  0  0
  2  1  1  0
  5  3  2  0
  6  4  1  0
  7  1  1  0
  8  3  1  0
  8  4  2  0
  9  5  1  0
  9  6  2  0
 10  2  1  0
 12  8  1  0
 13  9  1  0
 13 11  1  0
 14  7  1  0
 14 10  1  0
 14 11  1  0
 15 10  2  0
 16 11  2  0
M  END
>  <NAME>  (5161) 
N-(PARA-CHLOROPHENYLCARBAMOYL)-2-PYRROLIDONE

>  <SYNONYMS>  (5161) 


>  <SPECTRUM TYPE>  (5161) 
MS1

>  <INSTRUMENT TYPE>  (5161) 
EI-B

>  <INSTRUMENT>  (5161) 
HITACHI RMU-6E

>  <ION MODE>  (5161) 
P

>  <INCHIKEY>  (5161) 
LIQARWOYAGGJFV-UHFFFAOYSA-N

>  <FORMULA>  (5161) 
C11H11ClN2O2

>  <EXACT MASS>  (5161) 
238.050905272

>  <MW>  (5161) 
238

>  <ID>  (5161) 
JP004179

>  <CONTRIBUTOR>  (5161) 
University of Tokyo Team, {Faculty of Engineering, University of Tokyo

>  <COMMENT>  (5161) 
SMILES=Clc(c2)ccc(c2)NC(=O)N(C1)C(=O)CC1
InChI=InChI=1S/C11H11ClN2O2/c12-8-3-5-9(6-4-8)13-11(16)14-7-1-2-10(14)15/h3-6H,1-2,7H2,(H,13,16)
computed SMILES=O=C(NC1=CC=C(Cl)C=C1)N2C(=O)CCC2
accession=JP004179
date=2016.01.19 (Created 2008.10.21, modified 2011.05.06)
author=MASS SPECTROSCOPY SOC. OF JAPAN (MSSJ)
license=CC BY-NC-SA
exact mass=238.05091
ionization energy=70 eV
ion type=[M]+*
computed spectral entropy=3.468761024378415
computed normalized entropy=0.7060868522334025
SPLASH=splash10-0udi-9700000000-ca6ca49a0dcc1fcf1ab5
submitter=submitter = University of Tokyo Team (Faculty of Engineering, University of Tokyo)
MoNA Rating=3.75

>  <NUM PEAKS>  (5161) 
136

>  <MASS SPECTRAL PEAKS>  (5161) 
25 0.4
26 3.3
27 9.8
28 2.5
29 6
30 12.2
31 0.6
32 0.02
35 0.2
36 0.8
37 3.6
38 0.46
39 12.4
40 4.1
41 30
42 1.28
43 1.5
44 1.9
45 0.5
46 0.01
47 0.5
48 0.2
49 1.4
50 0.45
51 2.6
52 2.5
53 0.6
54 0.16
55 3.8
56 26.4
57 5.4
58 0.07
59 0.2
60 0.5
61 2.3
62 0.54
63 14.6
64 6.8
65 2.6
66 0.06
67 0.3
68 0.5
69 12.2
70 0.26
71 0.3
72 0.9
73 5.2
74 0.23
75 7
76 1.6
77 0.7
78 0.07
79 0.1
80 0.1
81 0.1
82 0.03
83 0.3
84 7.4
85 11
86 0.36
87 0.8
88 1.3
89 3.2
90 1.8
91 3.4
92 1.4
93 0.2
97 0.05
98 1.7
99 8.8
100 1.5
101 0.25
102 0.5
103 0.2
104 0.2
105 0.04
106 0.3
107 0.2
108 0.1
109 0.01
110 0.1
111 2.9
112 5
113 0.11
114 0.1
117 0.1
118 0.3
119 0.05
120 0.2
124 0.9
125 21.2
126 0.68
127 23
128 3.3
129 5.4
130 0.05
131 0.1
132 0.2
133 0.3
134 0.02
135 0.1
138 0.2
139 0.1
140 0.06
141 0.1
142 0.2
147 0.5
148 0.01
152 0.3
153 99.99
154 11
155 3.44
156 3.2
157 0.2
167 0.1
168 0.02
169 0.5
170 0.1
171 0.2
180 0.01
181 0.2
182 0.1
195 0.3
196 0.03
197 0.1
198 0.1
202 0.8
203 0.7
204 0.8
205 0.1
237 0.3
238 3.34
239 6
240 7.4
241 1.6
242 0.2

$$$$

     RDKit          2D

 15 15  0  0  0  0  0  0  0  0999 V2000
  -11.6923    0.7517    0.0000 C   0  0  0  0  0  0  0  0  0  0  0  0
  -10.3931    1.5015    0.0000 C   0  0  0  0  0  0  0  0  0  0  0  0
   -9.0942    0.7512    0.0000 C   0  0  0  0  0  0  0  0  0  0  0  0
   -7.7951    1.5010    0.0000 C   0  0  0  0  0  0  0  0  0  0  0  0
   -6.4962    0.7508    0.0000 C   0  0  0  0  0  0  0  0  0  0  0  0
   -5.1970    1.5006    0.0000 C   0  0  0  0  0  0  0  0  0  0  0  0
   -3.8981    0.7504    0.0000 C   0  0  0  0  0  0  0  0  0  0  0  0
   -2.5989    1.5002    0.0000 C   0  0  0  0  0  0  0  0  0  0  0  0
   -1.3000   -0.7500    0.0000 C   0  0  0  0  0  0  0  0  0  0  0  0
    0.0000    1.5000    0.0000 C   0  0  0  0  0  0  0  0  0  0  0  0
    0.0000   -1.5000    0.0000 C   0  0  0  0  0  0  0  0  0  0  0  0
    1.3000    0.7500    0.0000 C   0  0  0  0  0  0  0  0  0  0  0  0
   -1.3000    0.7500    0.0000 C   0  0  0  0  0  0  0  0  0  0  0  0
    1.3000   -0.7500    0.0000 C   0  0  0  0  0  0  0  0  0  0  0  0
    2.5989   -1.5002    0.0000 N   0  0  0  0  0  0  0  0  0  0  0  0
  2  1  1  0
  3  2  1  0
  4  3  1  0
  5  4  1  0
  6  5  1  0
  7  6  1  0
  8  7  1  0
 11  9  2  0
 12 10  1  0
 13  8  1  0
 13  9  1  0
 13 10  2  0
 14 11  1  0
 14 12  2  0
 15 14  1  0
M  END
>  <NAME>  (5162) 
4-OCTYLANILINE

>  <SYNONYMS>  (5162) 


>  <SPECTRUM TYPE>  (5162) 
MS1

>  <INSTRUMENT TYPE>  (5162) 
EI-B

>  <INSTRUMENT>  (5162) 
HITACHI RMU-6E

>  <ION MODE>  (5162) 
P

>  <INCHIKEY>  (5162) 
ORKQJTBYQZITLA-UHFFFAOYSA-N

>  <FORMULA>  (5162) 
C14H23N

>  <EXACT MASS>  (5162) 
205.183049736

>  <MW>  (5162) 
205

>  <ID>  (5162) 
JP004178

>  <CONTRIBUTOR>  (5162) 
University of Tokyo Team, {Faculty of Engineering, University of Tokyo

>  <COMMENT>  (5162) 
SMILES=CCCCCCCCc(c1)ccc(N)c1
InChI=InChI=1S/C14H23N/c1-2-3-4-5-6-7-8-13-9-11-14(15)12-10-13/h9-12H,2-8,15H2,1H3
computed SMILES=NC1=CC=C(C=C1)CCCCCCCC
accession=JP004178
date=2016.01.19 (Created 2008.10.21, modified 2011.05.06)
author=MASS SPECTROSCOPY SOC. OF JAPAN (MSSJ)
license=CC BY-NC-SA
exact mass=205.18305
ionization energy=70 eV
ion type=[M]+*
computed spectral entropy=1.7839175217199759
computed normalized entropy=0.422778590860642
SPLASH=splash10-0a4i-1920000000-47fafcdbfd99057f1a45
submitter=submitter = University of Tokyo Team (Faculty of Engineering, University of Tokyo)
MoNA Rating=3.75

>  <NUM PEAKS>  (5162) 
68

>  <MASS SPECTRAL PEAKS>  (5162) 
25 0.1
26 0.1
27 1.5
28 0.09
29 1.9
30 0.4
38 0.1
39 0.14
40 0.2
41 2.7
42 0.5
43 0.15
44 0.1
50 0.1
51 0.6
52 0.06
53 0.7
54 0.5
55 0.9
56 0.01
57 0.5
63 0.3
64 0.2
65 0.12
66 0.6
67 0.4
69 0.3
75 0.02
76 0.1
77 3.8
78 1.9
79 0.21
80 0.6
81 0.1
89 0.4
90 0.02
91 1
92 1.2
93 1.3
94 0.06
95 0.1
101 0.1
102 0.1
103 0.05
104 0.8
105 0.7
106 99.99
107 1.14
108 0.7
109 0.1
115 0.3
116 0.02
117 0.6
118 1.1
119 2.2
120 0.2
121 1.3
122 0.2
130 0.4
131 0.02
132 0.9
133 0.3
134 0.3
135 0.01
204 0.3
205 21
206 3.2
207 0.3

$$$$

     RDKit          2D

  8  8  0  0  0  0  0  0  0  0999 V2000
   -1.1300    1.5500    0.0000 C   0  0  0  0  0  0  0  0  0  0  0  0
    0.3700    1.5500    0.0000 C   0  0  0  0  0  0  0  0  0  0  0  0
   -1.5900    0.1200    0.0000 C   0  0  0  0  0  0  0  0  0  0  0  0
   -0.3829   -2.2600    0.0000 C   0  0  0  0  0  0  0  0  0  0  0  0
    0.8400    0.1200    0.0000 C   0  0  0  0  0  0  0  0  0  0  0  0
   -1.6834   -3.0075    0.0000 Cl  0  0  0  0  0  0  0  0  0  0  0  0
   -0.3800   -0.7600    0.0000 N   0  0  0  0  0  0  0  0  0  0  0  0
    2.2666   -0.3436    0.0000 O   0  0  0  0  0  0  0  0  0  0  0  0
  2  1  1  0
  3  1  1  0
  5  2  1  0
  6  4  1  0
  7  3  1  0
  7  4  1  0
  7  5  1  0
  8  5  2  0
M  END
>  <NAME>  (5163) 
N-CHLOROMETHYL-2-PYRROLIDONE

>  <SYNONYMS>  (5163) 


>  <SPECTRUM TYPE>  (5163) 
MS1

>  <INSTRUMENT TYPE>  (5163) 
EI-B

>  <INSTRUMENT>  (5163) 
HITACHI RMU-6E

>  <ION MODE>  (5163) 
P

>  <INCHIKEY>  (5163) 
KEBMRNXDMRFGNV-UHFFFAOYSA-N

>  <FORMULA>  (5163) 
C5H8ClNO

>  <EXACT MASS>  (5163) 
133.029441556

>  <MW>  (5163) 
133

>  <ID>  (5163) 
JP004177

>  <CONTRIBUTOR>  (5163) 
University of Tokyo Team, {Faculty of Engineering, University of Tokyo

>  <COMMENT>  (5163) 
SMILES=O=C(C1)N(CC1)CCl
InChI=InChI=1S/C5H8ClNO/c6-4-7-3-1-2-5(7)8/h1-4H2
computed SMILES=O=C1N(CCl)CCC1
accession=JP004177
date=2016.01.19 (Created 2008.10.21, modified 2011.05.06)
author=MASS SPECTROSCOPY SOC. OF JAPAN (MSSJ)
license=CC BY-NC-SA
exact mass=133.02944
ionization energy=70 eV
ion type=[M]+*
computed spectral entropy=2.822134613243924
computed normalized entropy=0.6556905047044677
SPLASH=splash10-0002-9000000000-d5d64f4429172808d3e8
submitter=submitter = University of Tokyo Team (Faculty of Engineering, University of Tokyo)
MoNA Rating=3.75

>  <NUM PEAKS>  (5163) 
74

>  <MASS SPECTRAL PEAKS>  (5163) 
25 0.2
26 2.3
27 7.4
28 2
29 7
30 9.6
31 3.1
32 0.03
34 0.1
35 0.6
36 2.5
37 0.08
38 1.8
39 9.6
40 4.3
41 3.2
42 26.4
43 10
44 1.9
45 0.01
46 0.1
47 0.1
48 0.2
49 0.25
50 0.2
51 1.1
52 0.6
53 0.15
54 1.9
55 4.2
56 3.9
57 0.08
58 0.2
59 0.1
60 0.2
61 0.01
64 0.2
65 0.1
66 0.2
67 0.04
68 5.6
69 22
70 31.2
71 0.33
72 0.2
75 0.3
76 0.5
77 0.04
78 2.1
79 0.1
80 0.8
82 0.01
83 0.4
84 4.5
85 9
86 0.47
87 0.5
96 0.8
97 16.6
98 99.99
99 15
100 1.1
101 0.1
111 0.05
112 0.6
113 0.3
114 0.7
115 0.04
116 0.1
132 0.4
133 7.4
134 0.07
135 2.3
136 0.3

$$$$

     RDKit          2D

 15 16  0  0  0  0  0  0  0  0999 V2000
    5.8480   -2.8059    0.0000 C   0  0  0  0  0  0  0  0  0  0  0  0
    4.5475   -3.5533    0.0000 C   0  0  0  0  0  0  0  0  0  0  0  0
   -3.5798   -7.5947    0.0000 C   0  0  0  0  0  0  0  0  0  0  0  0
   -4.3298   -6.2957    0.0000 C   0  0  0  0  0  0  0  0  0  0  0  0
   -0.6506   -3.5428    0.0000 C   0  0  0  0  0  0  0  0  0  0  0  0
    0.6447   -5.7955    0.0000 C   0  0  0  0  0  0  0  0  0  0  0  0
    0.6510   -2.7955    0.0000 C   0  0  0  0  0  0  0  0  0  0  0  0
    1.9463   -5.0483    0.0000 C   0  0  0  0  0  0  0  0  0  0  0  0
   -2.1113   -7.2781    0.0000 C   0  0  0  0  0  0  0  0  0  0  0  0
   -0.6537   -5.0428    0.0000 C   0  0  0  0  0  0  0  0  0  0  0  0
    1.9494   -3.5483    0.0000 C   0  0  0  0  0  0  0  0  0  0  0  0
   -3.3263   -5.1737    0.0000 C   0  0  0  0  0  0  0  0  0  0  0  0
   -1.9542   -5.7902    0.0000 N   0  0  0  0  0  0  0  0  0  0  0  0
   -3.6382   -3.7064    0.0000 O   0  0  0  0  0  0  0  0  0  0  0  0
    3.2499   -2.8008    0.0000 O   0  0  0  0  0  0  0  0  0  0  0  0
  2  1  1  0
  4  3  1  0
  7  5  2  0
  8  6  1  0
  9  3  1  0
 10  5  1  0
 10  6  2  0
 11  7  1  0
 11  8  2  0
 12  4  1  0
 13  9  1  0
 13 10  1  0
 13 12  1  0
 14 12  2  0
 15  2  1  0
 15 11  1  0
M  END
>  <NAME>  (5164) 
N-(4-ETHOXYPHENYL)-2-PYRROLIDONE

>  <SYNONYMS>  (5164) 


>  <SPECTRUM TYPE>  (5164) 
MS1

>  <INSTRUMENT TYPE>  (5164) 
EI-B

>  <INSTRUMENT>  (5164) 
HITACHI RMU-6E

>  <ION MODE>  (5164) 
P

>  <INCHIKEY>  (5164) 
TWVVNUHXQJVIEC-UHFFFAOYSA-N

>  <FORMULA>  (5164) 
C12H15NO2

>  <EXACT MASS>  (5164) 
205.11027872

>  <MW>  (5164) 
205

>  <ID>  (5164) 
JP004176

>  <CONTRIBUTOR>  (5164) 
University of Tokyo Team, {Faculty of Engineering, University of Tokyo

>  <COMMENT>  (5164) 
SMILES=CCOc(c2)ccc(c2)N(C1)C(=O)CC1
InChI=InChI=1S/C12H15NO2/c1-2-15-11-7-5-10(6-8-11)13-9-3-4-12(13)14/h5-8H,2-4,9H2,1H3
computed SMILES=O=C1N(C2=CC=C(OCC)C=C2)CCC1
accession=JP004176
date=2016.01.19 (Created 2008.10.21, modified 2011.05.06)
author=MASS SPECTROSCOPY SOC. OF JAPAN (MSSJ)
license=CC BY-NC-SA
exact mass=205.11028
ionization energy=70 eV
ion type=[M]+*
computed spectral entropy=3.1944080159829022
computed normalized entropy=0.6573109721510911
SPLASH=splash10-0adi-5940000000-2753b40cda2a48b522e8
submitter=submitter = University of Tokyo Team (Faculty of Engineering, University of Tokyo)
MoNA Rating=3.75

>  <NUM PEAKS>  (5164) 
129

>  <MASS SPECTRAL PEAKS>  (5164) 
26 1.5
27 7.8
28 7
29 0.68
30 1.1
31 0.3
32 0.4
37 0.03
38 1.9
39 12
40 1.8
41 2
42 4.5
43 1.4
44 0.2
45 0.01
50 2.3
51 4.1
52 5
53 0.3
54 1.3
55 5.4
56 0.7
57 0.05
59 0.2
60 0.4
61 0.2
62 0.11
63 5.6
64 6
65 13
66 0.42
67 2
68 0.9
69 34.4
70 0.15
71 0.4
72 0.1
73 0.2
74 0.06
75 1
76 2
77 5.4
78 0.33
79 2.2
80 2.1
81 1.4
82 0.03
83 0.3
84 0.7
85 0.2
86 0.04
87 0.3
88 0.2
89 0.6
90 0.21
91 3.7
92 5.2
93 6.8
94 0.35
95 0.8
97 0.2
98 0.3
99 0.04
102 0.6
103 0.9
104 2.1
105 0.46
106 2.1
107 2.8
108 4.2
109 0.09
110 0.3
115 0.5
116 0.5
117 0.12
118 1.6
119 2.3
120 12
121 0.7
122 77
123 7.4
124 0.4
125 0.02
126 0.1
130 0.7
131 0.6
132 0.13
133 1.9
134 1.7
135 3.4
136 0.05
137 0.4
141 1.3
142 0.3
145 0.02
146 1.4
147 0.6
148 6.6
149 0.35
150 39
151 3.8
152 0.7
155 0.07
156 0.2
159 0.2
160 0.8
161 0.04
162 0.4
163 0.7
165 0.2
166 0.04
167 0.2
168 0.2
169 0.4
170 0.02
174 0.4
175 0.4
176 67.6
177 2.5
178 2.8
179 0.2
180 0.1
203 0.02
204 1.4
205 99.99
206 14
207 0.11
208 0.2

$$$$

     RDKit          2D

 18 18  0  0  0  0  0  0  0  0999 V2000
   15.9573    3.4116    0.0000 C   0  0  0  0  0  0  0  0  0  0  0  0
   14.6586    4.1622    0.0000 C   0  0  0  0  0  0  0  0  0  0  0  0
   13.3593    3.4128    0.0000 C   0  0  0  0  0  0  0  0  0  0  0  0
   12.0605    4.1633    0.0000 C   0  0  0  0  0  0  0  0  0  0  0  0
   10.7612    3.4139    0.0000 C   0  0  0  0  0  0  0  0  0  0  0  0
    9.4625    4.1645    0.0000 C   0  0  0  0  0  0  0  0  0  0  0  0
    8.1631    3.4150    0.0000 C   0  0  0  0  0  0  0  0  0  0  0  0
    6.8644    4.1656    0.0000 C   0  0  0  0  0  0  0  0  0  0  0  0
    5.5650    3.4162    0.0000 C   0  0  0  0  0  0  0  0  0  0  0  0
    4.2663    4.1668    0.0000 C   0  0  0  0  0  0  0  0  0  0  0  0
    2.9669    3.4173    0.0000 C   0  0  0  0  0  0  0  0  0  0  0  0
    1.6682    4.1679    0.0000 C   0  0  0  0  0  0  0  0  0  0  0  0
   -1.0014    4.0286    0.0000 C   0  0  0  0  0  0  0  0  0  0  0  0
    0.2115    1.9342    0.0000 C   0  0  0  0  0  0  0  0  0  0  0  0
    0.3689    3.4185    0.0000 C   0  0  0  0  0  0  0  0  0  0  0  0
   -1.9992    2.9185    0.0000 C   0  0  0  0  0  0  0  0  0  0  0  0
   -3.4906    3.0790    0.0000 O   0  0  0  0  0  0  0  0  0  0  0  0
   -1.2558    1.6133    0.0000 O   0  0  0  0  0  0  0  0  0  0  0  0
  2  1  1  0
  3  2  1  0
  4  3  1  0
  5  4  1  0
  6  5  1  0
  7  6  1  0
  8  7  1  0
  9  8  1  0
 10  9  1  0
 11 10  1  0
 12 11  1  0
 15 12  1  0
 15 13  1  0
 15 14  1  0
 16 13  1  0
 17 16  2  0
 18 14  1  0
 18 16  1  0
M  END
>  <NAME>  (5165) 
3-DODECYL-GAMMA-BUTYROLACTONE

>  <SYNONYMS>  (5165) 


>  <SPECTRUM TYPE>  (5165) 
MS1

>  <INSTRUMENT TYPE>  (5165) 
EI-B

>  <INSTRUMENT>  (5165) 
HITACHI RMU-6E

>  <ION MODE>  (5165) 
P

>  <INCHIKEY>  (5165) 
KTTRQOLCFVDCNA-UHFFFAOYSA-N

>  <FORMULA>  (5165) 
C16H30O2

>  <EXACT MASS>  (5165) 
254.2245802

>  <MW>  (5165) 
254

>  <ID>  (5165) 
JP004175

>  <CONTRIBUTOR>  (5165) 
University of Tokyo Team, {Faculty of Engineering, University of Tokyo

>  <COMMENT>  (5165) 
SMILES=CCCCCCCCCCCCC(C1)CC(=O)O1
InChI=InChI=1S/C16H30O2/c1-2-3-4-5-6-7-8-9-10-11-12-15-13-16(17)18-14-15/h15H,2-14H2,1H3
computed SMILES=O=C1OCC(C1)CCCCCCCCCCCC
accession=JP004175
date=2016.01.19 (Created 2008.10.21, modified 2011.05.06)
author=MASS SPECTROSCOPY SOC. OF JAPAN (MSSJ)
license=CC BY-NC-SA
exact mass=254.22458
ionization energy=70 eV
ion type=[M]+*
computed spectral entropy=3.3714770797953992
computed normalized entropy=0.6610912516063293
SPLASH=splash10-052n-9000000000-d867cef11dc922258d3c
submitter=submitter = University of Tokyo Team (Faculty of Engineering, University of Tokyo)
MoNA Rating=3.75

>  <NUM PEAKS>  (5165) 
164

>  <MASS SPECTRAL PEAKS>  (5165) 
26 1.2
27 14
28 11.6
29 2.6
30 0.9
31 3.5
32 1.3
38 0.04
39 10.2
40 2.2
41 48
42 1.5
43 40.4
44 3.1
45 4.1
46 0.02
47 0.1
48 0.1
49 0.1
50 0.03
51 0.6
52 0.4
53 5.4
54 0.72
55 43.6
56 13.8
57 27
58 0.56
59 1.4
60 2.2
61 0.6
64 0.01
65 0.8
66 0.8
67 9
68 0.6
69 17
70 8
71 11.8
72 0.22
73 4.4
74 1.2
75 0.9
76 0.01
77 0.7
78 0.3
79 1.7
80 0.1
81 7.8
82 5.6
83 12.8
84 0.4
85 10.4
86 96
87 8
88 0.1
89 1.7
90 0.1
91 0.7
92 0.02
93 0.8
94 0.6
95 4.5
96 0.32
97 7.6
98 2.9
99 99.99
100 0.86
101 8.8
102 0.5
103 0.6
104 0.02
105 0.4
106 0.1
107 0.4
108 0.03
109 2.2
110 1.6
111 3.5
112 0.14
113 2.7
114 0.8
115 0.8
116 0.03
117 0.2
118 0.1
119 0.3
120 0.01
121 0.5
122 0.2
123 1
124 0.08
125 1.6
126 1.1
127 1.5
128 0.12
129 1.1
130 0.2
135 0.3
136 0.02
137 0.7
138 0.8
139 0.7
140 0.05
141 2.5
142 0.9
143 1
144 0.02
145 0.1
151 0.7
152 0.4
153 0.03
154 0.6
155 1.2
156 0.6
157 0.12
158 0.2
164 0.2
165 0.4
166 0.07
167 0.8
168 0.5
169 1.1
170 0.03
171 0.8
172 0.4
179 0.4
180 0.01
181 0.1
182 0.5
183 0.5
184 0.02
185 0.2
186 0.3
187 0.1
191 0.01
192 0.3
193 0.3
194 0.2
195 0.03
196 0.3
197 0.6
198 0.3
199 0.01
207 0.2
208 0.2
209 0.1
210 0.05
211 0.3
212 0.1
224 0.1
225 0.02
226 0.1
227 0.1
235 0.1
236 0.02
239 0.2
240 0.1
252 0.2
253 0.04
254 20.8
255 3.3
256 0.4
257 0.1

$$$$

     RDKit          2D

 17 16  0  0  0  0  0  0  0  0999 V2000
    5.1962    8.2500    0.0000 C   0  0  0  0  0  0  0  0  0  0  0  0
  -14.2894    9.0000    0.0000 C   0  0  0  0  0  0  0  0  0  0  0  0
    3.8971    9.0000    0.0000 C   0  0  0  0  0  0  0  0  0  0  0  0
  -12.9904    8.2500    0.0000 C   0  0  0  0  0  0  0  0  0  0  0  0
    2.5981    8.2500    0.0000 C   0  0  0  0  0  0  0  0  0  0  0  0
    1.2990    9.0000    0.0000 C   0  0  0  0  0  0  0  0  0  0  0  0
    0.0000    8.2500    0.0000 C   0  0  0  0  0  0  0  0  0  0  0  0
   -1.2990    9.0000    0.0000 C   0  0  0  0  0  0  0  0  0  0  0  0
   -2.5981    8.2500    0.0000 C   0  0  0  0  0  0  0  0  0  0  0  0
   -3.8971    9.0000    0.0000 C   0  0  0  0  0  0  0  0  0  0  0  0
   -5.1962    8.2500    0.0000 C   0  0  0  0  0  0  0  0  0  0  0  0
   -6.4952    9.0000    0.0000 C   0  0  0  0  0  0  0  0  0  0  0  0
   -7.7942    8.2500    0.0000 C   0  0  0  0  0  0  0  0  0  0  0  0
  -11.6913    9.0000    0.0000 C   0  0  0  0  0  0  0  0  0  0  0  0
   -9.0933    9.0000    0.0000 C   0  0  0  0  0  0  0  0  0  0  0  0
  -10.3923    8.2500    0.0000 N   0  0  0  0  0  0  0  0  0  0  0  0
   -9.0933   10.5000    0.0000 O   0  0  0  0  0  0  0  0  0  0  0  0
  3  1  1  0
  4  2  1  0
  5  3  1  0
  6  5  1  0
  7  6  1  0
  8  7  1  0
  9  8  1  0
 10  9  1  0
 11 10  1  0
 12 11  1  0
 13 12  1  0
 14  4  1  0
 15 13  1  0
 16 14  1  0
 16 15  2  3
 17 15  1  0
M  END
>  <NAME>  (5166) 
N-PROPYLDODECANAMIDE

>  <SYNONYMS>  (5166) 


>  <SPECTRUM TYPE>  (5166) 
MS1

>  <INSTRUMENT TYPE>  (5166) 
EI-B

>  <INSTRUMENT>  (5166) 
HITACHI RMU-6E

>  <ION MODE>  (5166) 
P

>  <INCHIKEY>  (5166) 
AUYWNLPGKFYZFF-UHFFFAOYSA-N

>  <FORMULA>  (5166) 
C15H31NO

>  <EXACT MASS>  (5166) 
241.240564612

>  <MW>  (5166) 
241

>  <ID>  (5166) 
JP004174

>  <CONTRIBUTOR>  (5166) 
University of Tokyo Team, {Faculty of Engineering, University of Tokyo

>  <COMMENT>  (5166) 
SMILES=CCCCCCCCCCCC(=O)NCCC
InChI=InChI=1S/C15H31NO/c1-3-5-6-7-8-9-10-11-12-13-15(17)16-14-4-2/h3-14H2,1-2H3,(H,16,17)
computed SMILES=OC(=NCCC)CCCCCCCCCCC
accession=JP004174
date=2016.01.19 (Created 2008.10.21, modified 2011.05.06)
author=MASS SPECTROSCOPY SOC. OF JAPAN (MSSJ)
license=CC BY-NC-SA
exact mass=241.24056
ionization energy=70 eV
ion type=[M]+*
computed spectral entropy=3.2013369056440757
computed normalized entropy=0.6441563722156721
SPLASH=splash10-0udi-7900000000-b9624a4975e14beb2f80
submitter=submitter = University of Tokyo Team (Faculty of Engineering, University of Tokyo)
MoNA Rating=3.75

>  <NUM PEAKS>  (5166) 
144

>  <MASS SPECTRAL PEAKS>  (5166) 
26 0.3
27 5
28 3.4
29 0.8
30 14.8
31 0.5
32 0.3
35 0.02
36 0.2
37 0.1
38 0.1
39 0.22
40 0.6
41 18
42 3.9
43 3
44 7.4
45 0.5
46 0.2
47 0.08
48 0.4
49 0.4
50 0.2
51 0.02
52 0.1
53 1.1
54 1
55 1.14
56 3.3
57 11.8
58 5
59 0.22
60 6.8
61 0.3
65 0.2
66 0.02
67 1.4
68 0.7
69 3.4
70 0.12
71 4.1
72 5.4
73 12.4
74 0.07
75 0.1
76 0.1
77 0.3
78 0.01
79 0.4
80 0.2
81 1.3
82 0.06
83 3.5
84 2.4
85 2.8
86 1.8
87 3.1
88 0.4
89 0.1
91 0.02
92 0.1
93 0.3
94 0.1
95 0.16
96 0.4
97 1.4
98 2
99 0.05
100 1.8
101 99.99
102 7.2
103 0.05
104 0.1
105 0.1
106 0.1
107 0.02
108 0.1
109 1
110 0.2
111 0.06
112 0.5
113 0.4
114 23
115 0.44
116 0.3
117 0.1
118 0.1
119 0.01
120 0.1
121 0.2
122 0.1
123 0.03
124 0.1
125 0.2
126 0.2
127 0.02
128 4.8
129 1.1
130 0.1
131 0.01
140 0.2
141 0.2
142 2.6
143 0.08
144 0.1
152 0.1
153 0.2
154 0.03
155 0.9
156 3.9
157 0.7
158 0.01
165 0.2
167 0.2
168 0.1
169 0.03
170 2.9
171 0.4
181 0.1
182 0.01
183 7
184 2.1
185 0.5
186 0.01
196 0.1
197 0.1
198 0.2
199 0.22
200 0.5
201 0.5
202 0.1
210 0.01
211 0.1
212 2.9
213 0.7
214 0.01
225 0.1
226 0.6
227 0.2
239 0.01
240 0.7
241 6.2
242 1.1
243 0.1

$$$$

     RDKit          2D

 16 15  0  0  0  0  0  0  0  0999 V2000
    4.5466    7.8750    0.0000 C   0  0  0  0  0  0  0  0  0  0  0  0
  -13.6399    7.8750    0.0000 C   0  0  0  0  0  0  0  0  0  0  0  0
    3.2476    8.6250    0.0000 C   0  0  0  0  0  0  0  0  0  0  0  0
  -12.3409    8.6250    0.0000 C   0  0  0  0  0  0  0  0  0  0  0  0
    1.9486    7.8750    0.0000 C   0  0  0  0  0  0  0  0  0  0  0  0
    0.6495    8.6250    0.0000 C   0  0  0  0  0  0  0  0  0  0  0  0
   -0.6495    7.8750    0.0000 C   0  0  0  0  0  0  0  0  0  0  0  0
   -1.9486    8.6250    0.0000 C   0  0  0  0  0  0  0  0  0  0  0  0
   -3.2476    7.8750    0.0000 C   0  0  0  0  0  0  0  0  0  0  0  0
   -4.5466    8.6250    0.0000 C   0  0  0  0  0  0  0  0  0  0  0  0
   -5.8457    7.8750    0.0000 C   0  0  0  0  0  0  0  0  0  0  0  0
   -7.1447    8.6250    0.0000 C   0  0  0  0  0  0  0  0  0  0  0  0
   -8.4437    7.8750    0.0000 C   0  0  0  0  0  0  0  0  0  0  0  0
   -9.7428    8.6250    0.0000 C   0  0  0  0  0  0  0  0  0  0  0  0
  -11.0418    7.8750    0.0000 N   0  0  0  0  0  0  0  0  0  0  0  0
   -9.7428   10.1250    0.0000 O   0  0  0  0  0  0  0  0  0  0  0  0
  3  1  1  0
  4  2  1  0
  5  3  1  0
  6  5  1  0
  7  6  1  0
  8  7  1  0
  9  8  1  0
 10  9  1  0
 11 10  1  0
 12 11  1  0
 13 12  1  0
 14 13  1  0
 15  4  1  0
 15 14  2  3
 16 14  1  0
M  END
>  <NAME>  (5167) 
N-ETHYLDODECANAMIDE

>  <SYNONYMS>  (5167) 


>  <SPECTRUM TYPE>  (5167) 
MS1

>  <INSTRUMENT TYPE>  (5167) 
EI-B

>  <INSTRUMENT>  (5167) 
HITACHI RMU-6E

>  <ION MODE>  (5167) 
P

>  <INCHIKEY>  (5167) 
FEQGPEABBFYLNO-UHFFFAOYSA-N

>  <FORMULA>  (5167) 
C14H29NO

>  <EXACT MASS>  (5167) 
227.22491454800002

>  <MW>  (5167) 
227

>  <ID>  (5167) 
JP004173

>  <CONTRIBUTOR>  (5167) 
University of Tokyo Team, {Faculty of Engineering, University of Tokyo

>  <COMMENT>  (5167) 
SMILES=CCCCCCCCCCCC(=O)NCC
InChI=InChI=1S/C14H29NO/c1-3-5-6-7-8-9-10-11-12-13-14(16)15-4-2/h3-13H2,1-2H3,(H,15,16)
computed SMILES=OC(=NCC)CCCCCCCCCCC
accession=JP004173
date=2016.01.19 (Created 2008.10.21, modified 2011.05.06)
author=MASS SPECTROSCOPY SOC. OF JAPAN (MSSJ)
license=CC BY-NC-SA
exact mass=227.22491
ionization energy=70 eV
ion type=[M]+*
computed spectral entropy=2.980698849879368
computed normalized entropy=0.6143199213006287
SPLASH=splash10-000i-9200000000-1eda298560e07f6d9d44
submitter=submitter = University of Tokyo Team (Faculty of Engineering, University of Tokyo)
MoNA Rating=3.75

>  <NUM PEAKS>  (5167) 
128

>  <MASS SPECTRAL PEAKS>  (5167) 
26 0.4
27 4.6
28 3.7
29 1.22
30 8
31 0.4
32 0.9
38 0.02
39 2.5
40 0.8
41 12.8
42 0.4
43 13
44 12
45 2.8
46 0.62
47 0.2
51 0.1
52 0.1
53 0.08
54 0.9
55 9.8
56 2.1
57 0.66
58 2.8
59 1.3
60 1.3
61 0.03
65 0.3
66 0.2
67 1.1
68 0.07
69 3
70 1.2
71 2.5
72 2.6
73 9.8
74 1.1
75 0.2
76 0.01
77 0.3
78 0.2
79 0.3
80 0.02
81 0.9
82 0.5
83 1.6
84 0.22
85 1.7
86 2.9
87 99.99
88 0.5
89 0.4
91 0.2
92 0.1
93 0.02
94 0.1
95 0.8
96 0.3
97 0.11
98 1.8
99 0.4
100 22
101 0.44
102 0.4
107 0.1
108 0.1
109 0.04
110 0.2
111 0.4
112 0.4
113 0.02
114 4.6
115 1.4
116 0.2
123 0.02
124 0.1
126 0.2
127 0.2
128 0.22
129 1.2
130 0.1
140 0.1
141 0.23
142 3.8
143 0.7
144 0.1
149 0.04
150 0.1
151 0.1
152 0.1
153 0.02
154 0.3
155 1
156 2.7
157 0.05
158 0.1
165 0.2
166 0.1
167 0.02
168 0.1
169 0.4
170 1.2
171 0.04
172 0.1
181 0.1
182 0.2
183 0.19
184 2.1
185 0.5
186 0.1
197 0.01
198 1.4
199 0.3
200 0.4
201 0.01
210 0.1
211 0.1
212 0.5
213 0.03
214 0.1
223 0.1
224 0.1
225 0.02
226 0.7
227 3.4
228 0.7
229 0.1

$$$$

     RDKit          2D

 15 14  0  0  0  0  0  0  0  0999 V2000
    4.5466    7.1250    0.0000 C   0  0  0  0  0  0  0  0  0  0  0  0
  -12.3409    7.8750    0.0000 C   0  0  0  0  0  0  0  0  0  0  0  0
    3.2476    7.8750    0.0000 C   0  0  0  0  0  0  0  0  0  0  0  0
    1.9486    7.1250    0.0000 C   0  0  0  0  0  0  0  0  0  0  0  0
    0.6495    7.8750    0.0000 C   0  0  0  0  0  0  0  0  0  0  0  0
   -0.6495    7.1250    0.0000 C   0  0  0  0  0  0  0  0  0  0  0  0
   -1.9486    7.8750    0.0000 C   0  0  0  0  0  0  0  0  0  0  0  0
   -3.2476    7.1250    0.0000 C   0  0  0  0  0  0  0  0  0  0  0  0
   -4.5466    7.8750    0.0000 C   0  0  0  0  0  0  0  0  0  0  0  0
   -5.8457    7.1250    0.0000 C   0  0  0  0  0  0  0  0  0  0  0  0
   -7.1447    7.8750    0.0000 C   0  0  0  0  0  0  0  0  0  0  0  0
   -8.4437    7.1250    0.0000 C   0  0  0  0  0  0  0  0  0  0  0  0
   -9.7428    7.8750    0.0000 C   0  0  0  0  0  0  0  0  0  0  0  0
  -11.0418    7.1250    0.0000 N   0  0  0  0  0  0  0  0  0  0  0  0
   -9.7428    9.3750    0.0000 O   0  0  0  0  0  0  0  0  0  0  0  0
  3  1  1  0
  4  3  1  0
  5  4  1  0
  6  5  1  0
  7  6  1  0
  8  7  1  0
  9  8  1  0
 10  9  1  0
 11 10  1  0
 12 11  1  0
 13 12  1  0
 14  2  1  0
 14 13  2  3
 15 13  1  0
M  END
>  <NAME>  (5168) 
N-METHYLDODECANAMIDE

>  <SYNONYMS>  (5168) 


>  <SPECTRUM TYPE>  (5168) 
MS1

>  <INSTRUMENT TYPE>  (5168) 
EI-B

>  <INSTRUMENT>  (5168) 
HITACHI RMU-6E

>  <ION MODE>  (5168) 
P

>  <INCHIKEY>  (5168) 
APWSJINSLHHRPD-UHFFFAOYSA-N

>  <FORMULA>  (5168) 
C13H27NO

>  <EXACT MASS>  (5168) 
213.209264484

>  <MW>  (5168) 
213

>  <ID>  (5168) 
JP004172

>  <CONTRIBUTOR>  (5168) 
University of Tokyo Team, {Faculty of Engineering, University of Tokyo

>  <COMMENT>  (5168) 
SMILES=CCCCCCCCCCCC(=O)NC
InChI=InChI=1S/C13H27NO/c1-3-4-5-6-7-8-9-10-11-12-13(15)14-2/h3-12H2,1-2H3,(H,14,15)
computed SMILES=OC(=NC)CCCCCCCCCCC
accession=JP004172
date=2016.01.19 (Created 2008.10.21, modified 2011.05.06)
author=MASS SPECTROSCOPY SOC. OF JAPAN (MSSJ)
license=CC BY-NC-SA
exact mass=213.20926
ionization energy=70 eV
ion type=[M]+*
computed spectral entropy=2.7023585419044105
computed normalized entropy=0.5749111434590242
SPLASH=splash10-00di-9000000000-6c5bc4b741528ec91dd4
submitter=submitter = University of Tokyo Team (Faculty of Engineering, University of Tokyo)
MoNA Rating=3.75

>  <NUM PEAKS>  (5168) 
110

>  <MASS SPECTRAL PEAKS>  (5168) 
26 0.3
27 3.6
28 2
29 0.68
30 3.2
31 2.7
32 8
33 0.01
38 0.1
39 2.8
40 0.6
41 1.36
42 2.9
43 14.2
44 1.2
45 0.42
46 0.1
53 0.8
54 0.9
55 1
56 2.3
57 8
58 25.4
59 0.1
60 2.2
61 0.5
65 0.2
66 0.01
67 1.1
68 0.6
69 3.3
70 0.14
71 2.8
72 0.5
73 99.99
74 0.58
75 0.3
76 0.1
77 0.2
78 0.01
79 0.3
80 0.2
81 0.9
82 0.04
83 1.7
84 2.6
85 1.6
86 2.3
87 5.2
88 0.3
91 0.1
92 0.01
93 0.2
94 0.1
95 0.8
96 0.03
97 1.3
98 1.7
99 0.5
100 0.6
101 0.7
102 0.2
109 0.4
110 0.02
111 0.5
112 0.5
113 0.2
114 0.21
115 1.1
116 0.2
121 0.1
123 0.02
125 0.2
126 0.1
127 0.1
128 0.36
129 1.5
130 0.2
137 0.1
138 0.02
139 0.1
140 0.2
141 0.8
142 0.27
143 0.5
153 0.1
154 0.1
155 0.03
156 1
157 0.8
158 0.1
167 0.01
168 0.1
169 0.1
170 2
171 0.05
172 0.1
182 0.4
183 1.4
184 0.14
185 0.2
198 0.3
199 0.1
200 0.08
201 0.1
211 0.1
212 0.5
213 0.41
214 0.8
215 0.1

$$$$

     RDKit          2D

  8  8  0  0  0  0  0  0  0  0999 V2000
   -1.1300    1.5500    0.0000 C   0  0  0  0  0  0  0  0  0  0  0  0
    0.3700    1.5500    0.0000 C   0  0  0  0  0  0  0  0  0  0  0  0
   -1.5900    0.1200    0.0000 C   0  0  0  0  0  0  0  0  0  0  0  0
   -0.3829   -2.2600    0.0000 C   0  0  0  0  0  0  0  0  0  0  0  0
    0.8400    0.1200    0.0000 C   0  0  0  0  0  0  0  0  0  0  0  0
   -0.3800   -0.7600    0.0000 N   0  0  0  0  0  0  0  0  0  0  0  0
   -1.6834   -3.0075    0.0000 O   0  0  0  0  0  0  0  0  0  0  0  0
    2.2666   -0.3436    0.0000 O   0  0  0  0  0  0  0  0  0  0  0  0
  2  1  1  0
  3  1  1  0
  5  2  1  0
  6  3  1  0
  6  4  1  0
  6  5  1  0
  7  4  1  0
  8  5  2  0
M  END
>  <NAME>  (5169) 
N-HYDROXYMETHYL-2-PYRROLIDONE

>  <SYNONYMS>  (5169) 


>  <SPECTRUM TYPE>  (5169) 
MS1

>  <INSTRUMENT TYPE>  (5169) 
EI-B

>  <INSTRUMENT>  (5169) 
HITACHI RMU-6E

>  <ION MODE>  (5169) 
P

>  <INCHIKEY>  (5169) 
PJEXUIKBGBSHBS-UHFFFAOYSA-N

>  <FORMULA>  (5169) 
C5H9NO2

>  <EXACT MASS>  (5169) 
115.063328528

>  <MW>  (5169) 
115

>  <ID>  (5169) 
JP004171

>  <CONTRIBUTOR>  (5169) 
University of Tokyo Team, {Faculty of Engineering, University of Tokyo

>  <COMMENT>  (5169) 
SMILES=OCN(C1)C(=O)CC1
InChI=InChI=1S/C5H9NO2/c7-4-6-3-1-2-5(6)8/h7H,1-4H2
computed SMILES=O=C1N(CO)CCC1
accession=JP004171
date=2016.01.19 (Created 2008.10.21, modified 2011.05.06)
author=MASS SPECTROSCOPY SOC. OF JAPAN (MSSJ)
license=CC BY-NC-SA
exact mass=115.06333
ionization energy=70 eV
ion type=[M]+*
computed spectral entropy=2.9851331593081567
computed normalized entropy=0.7125009918751268
SPLASH=splash10-0036-9100000000-8b966d953f24ee51929e
submitter=submitter = University of Tokyo Team (Faculty of Engineering, University of Tokyo)
MoNA Rating=3.75

>  <NUM PEAKS>  (5169) 
66

>  <MASS SPECTRAL PEAKS>  (5169) 
24 0.3
25 1.2
26 12
27 3.4
28 99.99
29 50
30 74.8
31 3
32 0.6
37 1.9
38 4
39 2.12
40 14
41 85.2
42 78.8
43 1.32
44 9.6
45 0.9
46 3.8
49 0.01
50 0.4
51 1
52 2.7
53 0.18
54 5.1
55 9.2
56 25.2
57 1.44
58 5.1
59 5.6
60 8
61 0.02
65 0.2
66 0.7
67 0.7
68 0.51
69 16
70 13.6
71 4.7
72 0.2
73 0.1
78 0.8
79 0.2
80 0.03
81 0.2
82 0.6
83 28.4
84 5.12
85 31.6
86 44
87 1.7
88 0.03
94 0.1
95 0.1
96 0.2
97 0.37
98 28.8
99 3.8
100 0.6
112 0.02
113 0.2
114 10
115 77.2
116 0.68
117 0.5
118 0.1

$$$$

     RDKit          2D

 15 14  0  0  0  0  0  0  0  0999 V2000
    4.5466    7.8750    0.0000 C   0  0  0  0  0  0  0  0  0  0  0  0
  -13.6399    7.8750    0.0000 C   0  0  0  0  0  0  0  0  0  0  0  0
    3.2476    8.6250    0.0000 C   0  0  0  0  0  0  0  0  0  0  0  0
  -12.3409    8.6250    0.0000 C   0  0  0  0  0  0  0  0  0  0  0  0
    1.9486    7.8750    0.0000 C   0  0  0  0  0  0  0  0  0  0  0  0
    0.6495    8.6250    0.0000 C   0  0  0  0  0  0  0  0  0  0  0  0
   -0.6495    7.8750    0.0000 C   0  0  0  0  0  0  0  0  0  0  0  0
   -1.9486    8.6250    0.0000 C   0  0  0  0  0  0  0  0  0  0  0  0
   -3.2476    7.8750    0.0000 C   0  0  0  0  0  0  0  0  0  0  0  0
   -4.5466    8.6250    0.0000 C   0  0  0  0  0  0  0  0  0  0  0  0
   -5.8457    7.8750    0.0000 C   0  0  0  0  0  0  0  0  0  0  0  0
   -7.1447    8.6250    0.0000 C   0  0  0  0  0  0  0  0  0  0  0  0
   -8.4437    7.8750    0.0000 C   0  0  0  0  0  0  0  0  0  0  0  0
   -9.7428    8.6250    0.0000 C   0  0  0  0  0  0  0  0  0  0  0  0
  -11.0418    7.8750    0.0000 N   0  0  0  0  0  0  0  0  0  0  0  0
  3  1  1  0
  4  2  1  0
  5  3  1  0
  6  5  1  0
  7  6  1  0
  8  7  1  0
  9  8  1  0
 10  9  1  0
 11 10  1  0
 12 11  1  0
 13 12  1  0
 14 13  1  0
 15  4  1  0
 15 14  1  0
M  END
>  <NAME>  (5170) 
N-ETHYLDODECYLAMINE

>  <SYNONYMS>  (5170) 


>  <SPECTRUM TYPE>  (5170) 
MS1

>  <INSTRUMENT TYPE>  (5170) 
EI-B

>  <INSTRUMENT>  (5170) 
HITACHI RMU-6E

>  <ION MODE>  (5170) 
P

>  <INCHIKEY>  (5170) 
LWIPGCTWFZCIKX-UHFFFAOYSA-N

>  <FORMULA>  (5170) 
C14H31N

>  <EXACT MASS>  (5170) 
213.24564999199998

>  <MW>  (5170) 
213

>  <ID>  (5170) 
JP004170

>  <CONTRIBUTOR>  (5170) 
University of Tokyo Team, {Faculty of Engineering, University of Tokyo

>  <COMMENT>  (5170) 
SMILES=CCCCCCCCCCCCNCC
InChI=InChI=1S/C14H31N/c1-3-5-6-7-8-9-10-11-12-13-14-15-4-2/h15H,3-14H2,1-2H3
computed SMILES=N(CC)CCCCCCCCCCCC
accession=JP004170
date=2016.01.19 (Created 2008.10.21, modified 2011.05.06)
author=MASS SPECTROSCOPY SOC. OF JAPAN (MSSJ)
license=CC BY-NC-SA
exact mass=213.24565
ionization energy=70 eV
ion type=[M]+*
computed spectral entropy=1.9936416240467685
computed normalized entropy=0.4646685632140942
SPLASH=splash10-0a4i-9000000000-9f6f85f7e8dd2c35be2d
submitter=submitter = University of Tokyo Team (Faculty of Engineering, University of Tokyo)
MoNA Rating=3.75

>  <NUM PEAKS>  (5170) 
73

>  <MASS SPECTRAL PEAKS>  (5170) 
26 0.1
27 1.6
28 3.6
29 0.5
30 8
31 0.2
32 0.4
39 0.09
40 0.2
41 6.2
42 2.1
43 0.62
44 6
45 1.4
46 1.6
53 0.04
54 0.3
55 3.8
56 2.4
57 0.28
58 99.99
59 4
60 0.1
67 0.04
68 0.2
69 1.5
70 1
71 0.12
72 1.2
73 0.5
81 0.2
82 0.02
83 0.5
84 1
85 0.3
86 0.04
87 0.4
95 0.1
96 0.1
97 0.02
98 0.4
99 0.1
100 0.8
101 0.01
111 0.1
112 0.3
114 1.2
115 0.01
126 0.1
128 0.7
129 0.1
140 0.02
141 0.5
142 0.4
149 0.5
154 0.01
155 0.2
156 0.3
168 0.1
169 0.01
170 0.3
171 0.1
184 1.2
185 0.02
186 0.1
196 0.2
197 0.1
198 0.19
199 0.3
212 1.4
213 5
214 0.1
215 0.1

$$$$

     RDKit          2D

 14 13  0  0  0  0  0  0  0  0999 V2000
    4.5466    7.1250    0.0000 C   0  0  0  0  0  0  0  0  0  0  0  0
  -12.3409    7.8750    0.0000 C   0  0  0  0  0  0  0  0  0  0  0  0
    3.2476    7.8750    0.0000 C   0  0  0  0  0  0  0  0  0  0  0  0
    1.9486    7.1250    0.0000 C   0  0  0  0  0  0  0  0  0  0  0  0
    0.6495    7.8750    0.0000 C   0  0  0  0  0  0  0  0  0  0  0  0
   -0.6495    7.1250    0.0000 C   0  0  0  0  0  0  0  0  0  0  0  0
   -1.9486    7.8750    0.0000 C   0  0  0  0  0  0  0  0  0  0  0  0
   -3.2476    7.1250    0.0000 C   0  0  0  0  0  0  0  0  0  0  0  0
   -4.5466    7.8750    0.0000 C   0  0  0  0  0  0  0  0  0  0  0  0
   -5.8457    7.1250    0.0000 C   0  0  0  0  0  0  0  0  0  0  0  0
   -7.1447    7.8750    0.0000 C   0  0  0  0  0  0  0  0  0  0  0  0
   -8.4437    7.1250    0.0000 C   0  0  0  0  0  0  0  0  0  0  0  0
   -9.7428    7.8750    0.0000 C   0  0  0  0  0  0  0  0  0  0  0  0
  -11.0418    7.1250    0.0000 N   0  0  0  0  0  0  0  0  0  0  0  0
  3  1  1  0
  4  3  1  0
  5  4  1  0
  6  5  1  0
  7  6  1  0
  8  7  1  0
  9  8  1  0
 10  9  1  0
 11 10  1  0
 12 11  1  0
 13 12  1  0
 14  2  1  0
 14 13  1  0
M  END
>  <NAME>  (5171) 
N-METHYLDODECYLAMINE

>  <SYNONYMS>  (5171) 


>  <SPECTRUM TYPE>  (5171) 
MS1

>  <INSTRUMENT TYPE>  (5171) 
EI-B

>  <INSTRUMENT>  (5171) 
HITACHI RMU-6E

>  <ION MODE>  (5171) 
P

>  <INCHIKEY>  (5171) 
OMEMQVZNTDHENJ-UHFFFAOYSA-N

>  <FORMULA>  (5171) 
C13H29N

>  <EXACT MASS>  (5171) 
199.22999992799998

>  <MW>  (5171) 
199

>  <ID>  (5171) 
JP004169

>  <CONTRIBUTOR>  (5171) 
University of Tokyo Team, {Faculty of Engineering, University of Tokyo

>  <COMMENT>  (5171) 
SMILES=CCCCCCCCCCCCNC
InChI=InChI=1S/C13H29N/c1-3-4-5-6-7-8-9-10-11-12-13-14-2/h14H,3-13H2,1-2H3
computed SMILES=N(C)CCCCCCCCCCCC
accession=JP004169
date=2016.01.19 (Created 2008.10.21, modified 2011.05.06)
author=MASS SPECTROSCOPY SOC. OF JAPAN (MSSJ)
license=CC BY-NC-SA
exact mass=199.23
ionization energy=70 eV
ion type=[M]+*
computed spectral entropy=1.7345193125442295
computed normalized entropy=0.4125198842229443
SPLASH=splash10-0006-9000000000-0ea8e4887c1349d1bf9c
submitter=submitter = University of Tokyo Team (Faculty of Engineering, University of Tokyo)
MoNA Rating=3.75

>  <NUM PEAKS>  (5171) 
67

>  <MASS SPECTRAL PEAKS>  (5171) 
26 0.1
27 0.6
28 6
29 0.34
30 1.8
31 1.1
32 2
39 0.11
40 0.2
41 6
42 2.8
43 0.5
44 99.99
45 3.2
46 0.1
53 0.04
54 0.3
55 3.8
56 1.2
57 0.23
58 2.5
59 1
60 0.1
67 0.03
68 0.2
69 1.3
70 1.3
71 0.03
72 0.2
73 0.7
74 0.1
81 0.01
82 0.1
83 0.4
84 0.3
85 0.01
86 0.9
87 0.2
96 0.1
97 0.02
98 0.2
99 0.1
100 1.4
101 0.01
112 0.1
114 0.8
115 0.1
126 0.01
128 0.4
129 0.1
140 0.1
141 0.01
142 0.3
143 0.1
154 0.1
155 0.01
156 0.3
157 0.1
168 0.1
170 0.03
171 0.1
184 0.5
185 0.1
198 0.1
199 5
200 1
201 0.1

$$$$

     RDKit          2D

  9  9  0  0  0  0  0  0  0  0999 V2000
   -1.6228   -4.2229    0.0000 C   0  0  0  0  0  0  0  0  0  0  0  0
   -2.3728   -2.9239    0.0000 C   0  0  0  0  0  0  0  0  0  0  0  0
    2.6008   -2.4235    0.0000 C   0  0  0  0  0  0  0  0  0  0  0  0
   -0.1544   -3.9063    0.0000 C   0  0  0  0  0  0  0  0  0  0  0  0
    1.3032   -1.6710    0.0000 C   0  0  0  0  0  0  0  0  0  0  0  0
   -1.3694   -1.8019    0.0000 C   0  0  0  0  0  0  0  0  0  0  0  0
    3.9013   -1.6760    0.0000 Cl  0  0  0  0  0  0  0  0  0  0  0  0
    0.0027   -2.4184    0.0000 N   0  0  0  0  0  0  0  0  0  0  0  0
   -1.6812   -0.3346    0.0000 O   0  0  0  0  0  0  0  0  0  0  0  0
  2  1  1  0
  4  1  1  0
  5  3  1  0
  6  2  1  0
  7  3  1  0
  8  4  1  0
  8  5  1  0
  8  6  1  0
  9  6  2  0
M  END
>  <NAME>  (5172) 
N-(2-CHLOROETHYL)-2-PYRROLIDONE

>  <SYNONYMS>  (5172) 


>  <SPECTRUM TYPE>  (5172) 
MS1

>  <INSTRUMENT TYPE>  (5172) 
EI-B

>  <INSTRUMENT>  (5172) 
HITACHI RMU-6E

>  <ION MODE>  (5172) 
P

>  <INCHIKEY>  (5172) 
CWLYHDWHNFLUEI-UHFFFAOYSA-N

>  <FORMULA>  (5172) 
C6H10ClNO

>  <EXACT MASS>  (5172) 
147.04509162

>  <MW>  (5172) 
147

>  <ID>  (5172) 
JP004168

>  <CONTRIBUTOR>  (5172) 
University of Tokyo Team, {Faculty of Engineering, University of Tokyo

>  <COMMENT>  (5172) 
SMILES=ClCCN(C1)C(=O)CC1
InChI=InChI=1S/C6H10ClNO/c7-3-5-8-4-1-2-6(8)9/h1-5H2
computed SMILES=O=C1N(CCCl)CCC1
accession=JP004168
date=2016.01.19 (Created 2008.10.21, modified 2011.05.06)
author=MASS SPECTROSCOPY SOC. OF JAPAN (MSSJ)
license=CC BY-NC-SA
exact mass=147.04509
ionization energy=70 eV
ion type=[M]+*
computed spectral entropy=2.686691707952922
computed normalized entropy=0.6262013998281261
SPLASH=splash10-0002-9100000000-2d9cb0140b22c161c54b
submitter=submitter = University of Tokyo Team (Faculty of Engineering, University of Tokyo)
MoNA Rating=3.75

>  <NUM PEAKS>  (5172) 
73

>  <MASS SPECTRAL PEAKS>  (5172) 
26 3.2
27 15.6
28 22
29 0.24
30 3.5
31 0.2
32 0.3
36 0.05
37 0.3
38 0.8
39 7.2
40 0.29
41 26
42 17.4
43 8.2
44 0.2
45 0.1
47 0.1
48 0.2
49 0.16
50 0.3
51 0.8
52 0.9
53 0.08
54 2.4
55 3.1
56 8
57 0.29
58 0.7
61 0.5
62 0.6
63 0.4
64 0.4
65 1.3
66 0.3
67 0.06
68 5.2
69 19
70 41
71 0.21
79 0.1
80 0.7
81 0.1
82 0.1
83 0.7
84 4
85 1.4
86 0.05
88 0.2
89 0.1
90 0.7
91 0.01
92 2.7
93 0.1
94 0.9
95 0.01
96 0.2
97 0.1
98 99.99
99 0.7
100 0.4
110 0.1
111 0.3
112 0.54
113 0.4
118 0.4
120 0.1
146 0.12
147 23
148 2.7
149 8.2
150 0.07
151 0.1

$$$$

     RDKit          2D

 20 20  0  0  0  0  0  0  0  0999 V2000
    7.1379   -7.3074    0.0000 C   0  0  0  0  0  0  0  0  0  0  0  0
    5.8374   -8.0548    0.0000 C   0  0  0  0  0  0  0  0  0  0  0  0
    4.5398   -7.3023    0.0000 C   0  0  0  0  0  0  0  0  0  0  0  0
    3.2393   -8.0498    0.0000 C   0  0  0  0  0  0  0  0  0  0  0  0
    1.9417   -7.2972    0.0000 C   0  0  0  0  0  0  0  0  0  0  0  0
    0.6412   -8.0447    0.0000 C   0  0  0  0  0  0  0  0  0  0  0  0
   -0.6563   -7.2921    0.0000 C   0  0  0  0  0  0  0  0  0  0  0  0
   -1.9568   -8.0396    0.0000 C   0  0  0  0  0  0  0  0  0  0  0  0
   -3.2544   -7.2871    0.0000 C   0  0  0  0  0  0  0  0  0  0  0  0
   -4.5549   -8.0345    0.0000 C   0  0  0  0  0  0  0  0  0  0  0  0
  -11.3766   -9.8289    0.0000 C   0  0  0  0  0  0  0  0  0  0  0  0
  -12.1266   -8.5298    0.0000 C   0  0  0  0  0  0  0  0  0  0  0  0
   -5.8525   -7.2820    0.0000 C   0  0  0  0  0  0  0  0  0  0  0  0
   -9.9081   -9.5122    0.0000 C   0  0  0  0  0  0  0  0  0  0  0  0
  -11.1231   -7.4078    0.0000 C   0  0  0  0  0  0  0  0  0  0  0  0
   -8.4505   -7.2769    0.0000 C   0  0  0  0  0  0  0  0  0  0  0  0
   -7.1530   -8.0294    0.0000 N   0  0  0  0  0  0  0  0  0  0  0  0
   -9.7510   -8.0244    0.0000 N   0  0  0  0  0  0  0  0  0  0  0  0
  -11.4350   -5.9406    0.0000 O   0  0  0  0  0  0  0  0  0  0  0  0
   -8.4476   -5.7769    0.0000 O   0  0  0  0  0  0  0  0  0  0  0  0
  2  1  1  0
  3  2  1  0
  4  3  1  0
  5  4  1  0
  6  5  1  0
  7  6  1  0
  8  7  1  0
  9  8  1  0
 10  9  1  0
 12 11  1  0
 13 10  1  0
 14 11  1  0
 15 12  1  0
 17 13  1  0
 17 16  2  3
 18 14  1  0
 18 15  1  0
 18 16  1  0
 19 15  2  0
 20 16  1  0
M  END
>  <NAME>  (5173) 
N-(UNDECYLCARBAMOYL)-2-PYRROLIDONE

>  <SYNONYMS>  (5173) 


>  <SPECTRUM TYPE>  (5173) 
MS1

>  <INSTRUMENT TYPE>  (5173) 
EI-B

>  <INSTRUMENT>  (5173) 
HITACHI RMU-6E

>  <ION MODE>  (5173) 
P

>  <INCHIKEY>  (5173) 
SEWWFEQDXRPJLW-UHFFFAOYSA-N

>  <FORMULA>  (5173) 
C16H30N2O2

>  <EXACT MASS>  (5173) 
282.2307282

>  <MW>  (5173) 
282

>  <ID>  (5173) 
JP004167

>  <CONTRIBUTOR>  (5173) 
University of Tokyo Team, {Faculty of Engineering, University of Tokyo

>  <COMMENT>  (5173) 
SMILES=CCCCCCCCCCCNC(=O)N(C1)C(=O)CC1
InChI=InChI=1S/C16H30N2O2/c1-2-3-4-5-6-7-8-9-10-13-17-16(20)18-14-11-12-15(18)19/h2-14H2,1H3,(H,17,20)
computed SMILES=O=C1N(C(O)=NCCCCCCCCCCC)CCC1
accession=JP004167
date=2016.01.19 (Created 2008.10.21, modified 2011.05.06)
author=MASS SPECTROSCOPY SOC. OF JAPAN (MSSJ)
license=CC BY-NC-SA
exact mass=282.23073
ionization energy=70 eV
ion type=[M]+*
computed spectral entropy=3.6497506199528447
computed normalized entropy=0.7028270645705791
SPLASH=splash10-0zgl-9500000000-0ac62da74829dde9caeb
submitter=submitter = University of Tokyo Team (Faculty of Engineering, University of Tokyo)
MoNA Rating=3.75

>  <NUM PEAKS>  (5173) 
180

>  <MASS SPECTRAL PEAKS>  (5173) 
26 1.4
27 11.2
28 16.6
29 3.3
30 62.6
31 3.4
32 2.4
39 0.66
40 1.9
41 35.4
42 12.6
43 3.2
44 6.4
45 3.2
46 0.9
47 0.03
50 0.5
52 0.4
53 1.5
54 0.38
55 25
56 15.8
57 16.4
58 0.9
59 1.9
60 0.4
61 0.1
62 0.46
63 0.2
65 1.1
66 0.5
67 0.32
68 2.9
69 13.4
70 6.4
71 0.54
72 1.3
73 0.9
74 11.4
75 0.16
76 1.7
77 0.6
79 0.5
80 0.03
81 1.6
82 2.5
83 5.2
84 0.62
85 11.6
87 0.7
88 2.3
89 0.06
90 24
91 1.4
92 0.2
93 0.09
94 0.2
95 1.1
96 1.3
97 0.36
98 8.8
99 26
100 2.8
101 0.05
102 99.99
103 10.8
104 2.4
105 0.07
106 0.1
107 0.2
108 0.1
109 0.06
110 0.8
111 1.2
112 15
113 0.9
114 1.7
115 0.4
116 2.2
117 0.18
118 0.2
119 0.2
120 0.1
121 0.06
122 0.5
123 0.4
124 0.9
125 0.05
126 5
127 1.6
128 0.8
129 0.64
130 4
131 2
132 0.3
133 0.01
135 0.2
136 0.1
137 0.2
138 0.04
139 0.1
140 1.8
141 11.6
142 0.27
143 0.3
144 4.4
145 1.9
146 0.02
147 0.1
148 0.1
149 21
150 0.22
151 0.3
152 0.6
153 0.2
154 0.15
155 1.3
156 0.6
157 0.2
158 0.38
159 0.7
160 0.3
161 0.1
167 0.04
168 0.8
169 0.4
170 7
171 0.12
172 1.6
173 0.5
174 0.1
180 0.02
181 0.1
182 0.3
183 1.3
184 0.03
185 0.2
186 1.5
187 0.3
196 0.06
197 1.3
198 2.3
199 0.4
200 0.15
201 0.3
205 1.3
206 0.3
207 0.01
211 0.4
212 0.2
213 0.1
214 1.4
215 2.8
216 0.5
217 0.1
223 0.16
224 0.3
225 0.3
226 0.2
227 0.01
228 0.3
229 0.1
230 0.1
239 0.03
240 0.1
242 0.5
243 9.2
244 0.26
245 0.4
246 0.1
253 0.3
254 0.05
255 0.1
278 0.3
279 0.1
280 0.01
281 0.1
282 1.8
283 0.5
284 0.1

$$$$

     RDKit          2D

 15 16  0  0  0  0  0  0  0  0999 V2000
    4.2250   -1.8663    0.0000 C   0  0  0  0  0  0  0  0  0  0  0  0
    4.2225   -3.3671    0.0000 C   0  0  0  0  0  0  0  0  0  0  0  0
    2.9269   -1.1129    0.0000 C   0  0  0  0  0  0  0  0  0  0  0  0
   -3.9001   -5.9081    0.0000 C   0  0  0  0  0  0  0  0  0  0  0  0
    2.9220   -4.1146    0.0000 C   0  0  0  0  0  0  0  0  0  0  0  0
    1.6264   -1.8604    0.0000 C   0  0  0  0  0  0  0  0  0  0  0  0
   -4.6501   -4.6091    0.0000 C   0  0  0  0  0  0  0  0  0  0  0  0
   -2.4317   -5.5915    0.0000 C   0  0  0  0  0  0  0  0  0  0  0  0
    1.6240   -3.3612    0.0000 C   0  0  0  0  0  0  0  0  0  0  0  0
   -3.6467   -3.4870    0.0000 C   0  0  0  0  0  0  0  0  0  0  0  0
   -0.9741   -3.3561    0.0000 C   0  0  0  0  0  0  0  0  0  0  0  0
    0.3235   -4.1087    0.0000 N   0  0  0  0  0  0  0  0  0  0  0  0
   -2.2746   -4.1036    0.0000 N   0  0  0  0  0  0  0  0  0  0  0  0
   -3.9586   -2.0198    0.0000 O   0  0  0  0  0  0  0  0  0  0  0  0
   -0.9712   -1.8561    0.0000 O   0  0  0  0  0  0  0  0  0  0  0  0
  2  1  1  0
  3  1  1  0
  5  2  1  0
  6  3  1  0
  7  4  1  0
  8  4  1  0
  9  5  1  0
  9  6  1  0
 10  7  1  0
 12  9  1  0
 12 11  2  3
 13  8  1  0
 13 10  1  0
 13 11  1  0
 14 10  2  0
 15 11  1  0
M  END
>  <NAME>  (5174) 
N-(CYCLOHEXYLCARBAMOYL)-2-RYRROLIDONE

>  <SYNONYMS>  (5174) 


>  <SPECTRUM TYPE>  (5174) 
MS1

>  <INSTRUMENT TYPE>  (5174) 
EI-B

>  <INSTRUMENT>  (5174) 
HITACHI RMU-6E

>  <ION MODE>  (5174) 
P

>  <INCHIKEY>  (5174) 
XTYPRCKTUGBVCB-UHFFFAOYSA-N

>  <FORMULA>  (5174) 
C11H18N2O2

>  <EXACT MASS>  (5174) 
210.136827816

>  <MW>  (5174) 
210

>  <ID>  (5174) 
JP004166

>  <CONTRIBUTOR>  (5174) 
University of Tokyo Team, {Faculty of Engineering, University of Tokyo

>  <COMMENT>  (5174) 
SMILES=O=C(C2)N(CC2)C(=O)NC(C1)CCCC1
InChI=InChI=1S/C11H18N2O2/c14-10-7-4-8-13(10)11(15)12-9-5-2-1-3-6-9/h9H,1-8H2,(H,12,15)
computed SMILES=O=C1N(C(O)=NC2CCCCC2)CCC1
accession=JP004166
date=2016.01.19 (Created 2008.10.21, modified 2011.05.06)
author=MASS SPECTROSCOPY SOC. OF JAPAN (MSSJ)
license=CC BY-NC-SA
exact mass=210.13683
ionization energy=70 eV
ion type=[M]+*
computed spectral entropy=3.3744011595237096
computed normalized entropy=0.7085841898521533
SPLASH=splash10-002g-9000000000-354125ae3c1389ca2e79
submitter=submitter = University of Tokyo Team (Faculty of Engineering, University of Tokyo)
MoNA Rating=3.75

>  <NUM PEAKS>  (5174) 
117

>  <MASS SPECTRAL PEAKS>  (5174) 
26 8.8
27 36.6
28 65.6
29 2.06
30 34
31 0.6
32 2.1
35 0.13
36 0.5
37 1.6
38 4
39 3.3
40 15.2
41 99.99
42 54.6
43 1.9
44 4.7
45 0.2
46 0.5
47 0.31
48 1.4
49 1.2
50 2
51 0.35
52 4.4
53 9.6
54 35.8
55 3.04
56 69.8
57 6.7
58 1.7
59 0.03
60 0.2
61 0.3
62 0.5
63 0.06
64 0.6
65 1.9
66 2.1
67 6.26
68 12.4
69 43
70 9
71 0.13
72 0.3
73 0.2
74 0.2
75 0.03
76 0.2
77 1.9
78 1
79 0.38
80 4.8
81 9
82 55
83 1.8
84 19
85 60
86 29
87 0.16
88 0.1
89 0.1
90 0.4
91 0.03
92 0.2
93 0.2
94 0.2
95 0.05
96 13.4
97 51.4
98 59
99 0.54
100 0.6
108 0.5
109 0.2
110 0.23
111 0.6
112 15
113 0.9
114 0.02
118 0.4
119 0.2
120 0.3
124 0.9
125 11
126 2
127 0.3
128 0.13
129 34
130 2.2
131 0.2
138 0.05
139 0.2
140 0.2
141 1.9
142 0.08
143 0.4
144 0.1
153 0.4
154 0.16
155 0.4
156 0.1
166 0.1
167 3.58
168 3.9
169 0.4
170 0.1
171 0.03
172 0.1
180 0.1
181 1.6
182 0.03
209 0.3
210 8.4
211 1.6
212 0.03
213 0.1

$$$$

     RDKit          2D

 17 18  0  0  0  0  0  0  0  0999 V2000
    3.8255   -0.4243    0.0000 C   0  0  0  0  0  0  0  0  0  0  0  0
    4.5755   -1.7234    0.0000 C   0  0  0  0  0  0  0  0  0  0  0  0
   -2.9967   -2.2179    0.0000 C   0  0  0  0  0  0  0  0  0  0  0  0
   -4.2972   -2.9653    0.0000 C   0  0  0  0  0  0  0  0  0  0  0  0
    2.3570   -0.7410    0.0000 C   0  0  0  0  0  0  0  0  0  0  0  0
   -1.7011   -4.4721    0.0000 C   0  0  0  0  0  0  0  0  0  0  0  0
   -1.6986   -2.9712    0.0000 C   0  0  0  0  0  0  0  0  0  0  0  0
   -4.2996   -4.4662    0.0000 C   0  0  0  0  0  0  0  0  0  0  0  0
   -3.0016   -5.2195    0.0000 C   0  0  0  0  0  0  0  0  0  0  0  0
    3.5720   -2.8454    0.0000 C   0  0  0  0  0  0  0  0  0  0  0  0
    0.8994   -2.9763    0.0000 C   0  0  0  0  0  0  0  0  0  0  0  0
   -5.6001   -5.2136    0.0000 Cl  0  0  0  0  0  0  0  0  0  0  0  0
   -3.0048   -6.7195    0.0000 Cl  0  0  0  0  0  0  0  0  0  0  0  0
   -0.3981   -2.2238    0.0000 N   0  0  0  0  0  0  0  0  0  0  0  0
    2.1999   -2.2289    0.0000 N   0  0  0  0  0  0  0  0  0  0  0  0
    3.8839   -4.3126    0.0000 O   0  0  0  0  0  0  0  0  0  0  0  0
    0.8965   -4.4763    0.0000 O   0  0  0  0  0  0  0  0  0  0  0  0
  2  1  1  0
  4  3  2  0
  5  1  1  0
  7  3  1  0
  7  6  2  0
  8  4  1  0
  9  6  1  0
  9  8  2  0
 10  2  1  0
 12  8  1  0
 13  9  1  0
 14  7  1  0
 14 11  2  3
 15  5  1  0
 15 10  1  0
 15 11  1  0
 16 10  2  0
 17 11  1  0
M  END
>  <NAME>  (5175) 
N-(3,4-DICHLOROPHENYLCARBAMOYL)-2-PYRROLIDONE

>  <SYNONYMS>  (5175) 


>  <SPECTRUM TYPE>  (5175) 
MS1

>  <INSTRUMENT TYPE>  (5175) 
EI-B

>  <INSTRUMENT>  (5175) 
HITACHI RMU-6E

>  <ION MODE>  (5175) 
P

>  <INCHIKEY>  (5175) 
MMMNMLFHTXRPJR-UHFFFAOYSA-N

>  <FORMULA>  (5175) 
C11H10Cl2N2O2

>  <EXACT MASS>  (5175) 
272.01193292

>  <MW>  (5175) 
272

>  <ID>  (5175) 
JP004165

>  <CONTRIBUTOR>  (5175) 
University of Tokyo Team, {Faculty of Engineering, University of Tokyo

>  <COMMENT>  (5175) 
SMILES=O=C(C2)N(CC2)C(=O)Nc(c1)cc(Cl)c(Cl)c1
InChI=InChI=1S/C11H10Cl2N2O2/c12-8-4-3-7(6-9(8)13)14-11(17)15-5-1-2-10(15)16/h3-4,6H,1-2,5H2,(H,14,17)
computed SMILES=O=C1N(C(O)=NC2=CC=C(Cl)C(Cl)=C2)CCC1
accession=JP004165
date=2016.01.19 (Created 2008.10.21, modified 2011.05.06)
author=MASS SPECTROSCOPY SOC. OF JAPAN (MSSJ)
license=CC BY-NC-SA
exact mass=272.01193
ionization energy=70 eV
ion type=[M]+*
computed spectral entropy=3.5534180019115915
computed normalized entropy=0.7266184701221318
SPLASH=splash10-000i-5910000000-11be340ee083be59c882
submitter=submitter = University of Tokyo Team (Faculty of Engineering, University of Tokyo)
MoNA Rating=3.75

>  <NUM PEAKS>  (5175) 
133

>  <MASS SPECTRAL PEAKS>  (5175) 
26 1.3
27 5
28 20
29 0.44
30 4.6
31 0.5
36 0.9
37 0.13
38 1.5
39 4.5
40 1.9
41 2.14
42 6
43 1.5
44 6.6
45 0.06
47 0.4
48 0.2
49 1.3
50 0.08
51 0.8
52 1.4
53 0.5
54 0.13
55 4.3
56 22
57 5.2
58 0.1
59 0.5
60 0.3
61 1.9
62 0.46
63 4.8
64 2.1
65 0.7
68 0.05
69 16
70 3.3
71 0.4
72 0.13
73 4.8
74 3.1
75 2.9
76 0.08
83 0.6
84 10
85 5.6
86 0.34
87 1
88 2.8
89 2.1
90 0.3
91 0.7
96 0.4
97 3.3
98 0.18
99 2.3
100 0.7
106 0.3
107 0.1
108 0.9
109 4.5
110 1.2
111 0.14
112 10
113 1.4
114 0.2
123 0.07
124 15
125 4.6
126 6
127 0.17
128 0.4
132 0.3
133 5
134 0.1
135 2.7
136 1
137 0.9
138 0.02
141 0.5
144 0.2
145 1.9
146 0.03
147 1.3
148 0.2
149 1.5
150 0.02
152 0.4
153 0.8
154 0.3
158 0.05
159 8.8
160 3.6
161 21.2
162 0.32
163 11
164 0.8
165 1.7
166 0.03
167 0.1
173 0.2
174 0.6
175 0.02
181 0.7
182 0.2
187 99.99
188 1.12
189 62.4
190 7
191 11.6
192 0.11
193 0.1
201 2.9
202 0.7
203 0.06
204 0.3
205 0.5
206 0.3
207 0.02
208 0.2
209 0.3
210 0.1
237 1.8
238 2.3
239 6.6
240 0.8
272 3.64
273 6
274 24
275 3.7
276 0.47
277 0.5

$$$$

     RDKit          2D

 18 17  0  0  0  0  0  0  0  0999 V2000
    4.8714    8.8125    0.0000 C   0  0  0  0  0  0  0  0  0  0  0  0
  -14.6142    9.5625    0.0000 C   0  0  0  0  0  0  0  0  0  0  0  0
    3.5724    9.5625    0.0000 C   0  0  0  0  0  0  0  0  0  0  0  0
  -13.3151    8.8125    0.0000 C   0  0  0  0  0  0  0  0  0  0  0  0
    2.2733    8.8125    0.0000 C   0  0  0  0  0  0  0  0  0  0  0  0
    0.9743    9.5625    0.0000 C   0  0  0  0  0  0  0  0  0  0  0  0
   -0.3248    8.8125    0.0000 C   0  0  0  0  0  0  0  0  0  0  0  0
   -1.6238    9.5625    0.0000 C   0  0  0  0  0  0  0  0  0  0  0  0
   -2.9228    8.8125    0.0000 C   0  0  0  0  0  0  0  0  0  0  0  0
   -4.2219    9.5625    0.0000 C   0  0  0  0  0  0  0  0  0  0  0  0
   -5.5209    8.8125    0.0000 C   0  0  0  0  0  0  0  0  0  0  0  0
   -6.8200    9.5625    0.0000 C   0  0  0  0  0  0  0  0  0  0  0  0
   -8.1190    8.8125    0.0000 C   0  0  0  0  0  0  0  0  0  0  0  0
  -12.0161    9.5625    0.0000 C   0  0  0  0  0  0  0  0  0  0  0  0
   -9.4180    9.5625    0.0000 C   0  0  0  0  0  0  0  0  0  0  0  0
  -10.7171    7.3125    0.0000 C   0  0  0  0  0  0  0  0  0  0  0  0
  -10.7171    8.8125    0.0000 N   0  0  0  0  0  0  0  0  0  0  0  0
  -12.0161    6.5625    0.0000 O   0  0  0  0  0  0  0  0  0  0  0  0
  3  1  1  0
  4  2  1  0
  5  3  1  0
  6  5  1  0
  7  6  1  0
  8  7  1  0
  9  8  1  0
 10  9  1  0
 11 10  1  0
 12 11  1  0
 13 12  1  0
 14  4  1  0
 15 13  1  0
 17 14  1  0
 17 15  1  0
 17 16  1  0
 18 16  2  0
M  END
>  <NAME>  (5176) 
N-DODECYL-N-PROPYLFORMAMIDE

>  <SYNONYMS>  (5176) 


>  <SPECTRUM TYPE>  (5176) 
MS1

>  <INSTRUMENT TYPE>  (5176) 
EI-B

>  <INSTRUMENT>  (5176) 
HITACHI RMU-6E

>  <ION MODE>  (5176) 
P

>  <INCHIKEY>  (5176) 
KAUUMGSCMHSUOE-UHFFFAOYSA-N

>  <FORMULA>  (5176) 
C16H33NO

>  <EXACT MASS>  (5176) 
255.25621467599998

>  <MW>  (5176) 
255

>  <ID>  (5176) 
JP004164

>  <CONTRIBUTOR>  (5176) 
University of Tokyo Team, {Faculty of Engineering, University of Tokyo

>  <COMMENT>  (5176) 
SMILES=CCCCCCCCCCCCN(C=O)CCC
InChI=InChI=1S/C16H33NO/c1-3-5-6-7-8-9-10-11-12-13-15-17(16-18)14-4-2/h16H,3-15H2,1-2H3
computed SMILES=O=CN(CCC)CCCCCCCCCCCC
accession=JP004164
date=2016.01.19 (Created 2008.10.21, modified 2011.05.06)
author=MASS SPECTROSCOPY SOC. OF JAPAN (MSSJ)
license=CC BY-NC-SA
exact mass=255.25621
ionization energy=70 eV
ion type=[M]+*
computed spectral entropy=3.126177039744593
computed normalized entropy=0.6507417454325857
SPLASH=splash10-0fbc-9450000000-64d2cdbe9ce1351fb162
submitter=submitter = University of Tokyo Team (Faculty of Engineering, University of Tokyo)
MoNA Rating=3.75

>  <NUM PEAKS>  (5176) 
122

>  <MASS SPECTRAL PEAKS>  (5176) 
26 0.4
27 5.8
28 4
29 1.16
30 23
31 0.5
32 0.1
38 0.01
39 2.8
40 0.5
41 25.2
42 0.74
43 27.2
44 11
45 0.4
46 0.35
53 1.4
54 1.4
55 13.2
56 0.52
57 8.4
58 9.2
59 3.8
60 0.3
61 0.1
65 0.2
66 0.1
67 0.16
68 1
69 6
70 4.2
71 0.28
72 41
73 6.2
74 0.5
75 0.01
76 0.1
77 0.2
78 0.1
79 0.04
80 0.2
81 1.2
82 0.7
83 0.27
84 4.2
85 1.6
86 5.4
87 0.09
88 6.8
89 0.4
90 0.1
91 0.02
95 0.5
96 0.4
97 1.3
98 0.24
99 0.7
100 68
101 18.4
102 0.16
103 0.1
109 0.4
110 0.2
111 0.04
112 1.2
113 0.3
114 11
115 0.14
116 0.1
123 0.1
124 0.2
125 0.01
126 0.9
127 0.2
128 7.6
129 0.09
130 0.1
140 0.7
141 0.3
142 0.25
143 0.7
154 0.6
155 0.2
156 0.21
157 0.4
168 0.3
169 0.1
170 0.33
171 0.4
182 0.3
183 0.2
184 0.31
185 0.5
195 0.1
196 0.3
197 0.05
198 2.8
199 0.4
210 0.2
211 0.01
212 3.6
213 1.2
214 0.5
224 0.04
225 0.1
226 99.99
227 16.6
228 0.16
229 0.2
236 0.1
237 0.1
238 0.1
239 0.2
240 3.5
241 0.7
242 0.01
253 0.1
254 2.6
255 6.8
256 0.28
257 0.4
258 0.1

$$$$

     RDKit          2D

 15 15  0  0  0  0  0  0  0  0999 V2000
    6.1019   -4.2798    0.0000 C   0  0  0  0  0  0  0  0  0  0  0  0
   -8.1576   -4.6279    0.0000 C   0  0  0  0  0  0  0  0  0  0  0  0
    4.8029   -3.5298    0.0000 C   0  0  0  0  0  0  0  0  0  0  0  0
    3.5039   -4.2798    0.0000 C   0  0  0  0  0  0  0  0  0  0  0  0
    2.2048   -3.5298    0.0000 C   0  0  0  0  0  0  0  0  0  0  0  0
    0.9058   -4.2798    0.0000 C   0  0  0  0  0  0  0  0  0  0  0  0
   -0.3933   -3.5298    0.0000 C   0  0  0  0  0  0  0  0  0  0  0  0
   -1.6923   -4.2798    0.0000 C   0  0  0  0  0  0  0  0  0  0  0  0
   -5.9159   -6.0843    0.0000 C   0  0  0  0  0  0  0  0  0  0  0  0
   -2.9913   -3.5298    0.0000 C   0  0  0  0  0  0  0  0  0  0  0  0
   -4.4561   -5.7727    0.0000 C   0  0  0  0  0  0  0  0  0  0  0  0
   -6.6659   -4.7853    0.0000 C   0  0  0  0  0  0  0  0  0  0  0  0
   -5.6661   -3.6769    0.0000 C   0  0  0  0  0  0  0  0  0  0  0  0
   -4.2904   -4.2798    0.0000 N   0  0  0  0  0  0  0  0  0  0  0  0
   -5.9816   -2.2105    0.0000 O   0  0  0  0  0  0  0  0  0  0  0  0
  3  1  1  0
  4  3  1  0
  5  4  1  0
  6  5  1  0
  7  6  1  0
  8  7  1  0
 10  8  1  0
 11  9  1  0
 12  2  1  0
 12  9  1  0
 13 12  1  0
 14 10  1  0
 14 11  1  0
 14 13  1  0
 15 13  2  0
M  END
>  <NAME>  (5177) 
3-METHYL-N-OCTYL-2-PYRROLIDONE

>  <SYNONYMS>  (5177) 


>  <SPECTRUM TYPE>  (5177) 
MS1

>  <INSTRUMENT TYPE>  (5177) 
EI-B

>  <INSTRUMENT>  (5177) 
HITACHI RMU-6E

>  <ION MODE>  (5177) 
P

>  <INCHIKEY>  (5177) 
RSLRMPBMJSZJKJ-UHFFFAOYSA-N

>  <FORMULA>  (5177) 
C13H25NO

>  <EXACT MASS>  (5177) 
211.19361442

>  <MW>  (5177) 
211

>  <ID>  (5177) 
JP004163

>  <CONTRIBUTOR>  (5177) 
University of Tokyo Team, {Faculty of Engineering, University of Tokyo

>  <COMMENT>  (5177) 
SMILES=CCCCCCCCN(C1)C(=O)C(C)C1
InChI=InChI=1S/C13H25NO/c1-3-4-5-6-7-8-10-14-11-9-12(2)13(14)15/h12H,3-11H2,1-2H3
computed SMILES=O=C1N(CCCCCCCC)CCC1C
accession=JP004163
date=2016.01.19 (Created 2008.10.21, modified 2011.05.06)
author=MASS SPECTROSCOPY SOC. OF JAPAN (MSSJ)
license=CC BY-NC-SA
exact mass=211.19361
ionization energy=70 eV
ion type=[M]+*
computed spectral entropy=2.885622894478257
computed normalized entropy=0.63970577897835
SPLASH=splash10-03di-4900000000-c86ed3390920159408e0
submitter=submitter = University of Tokyo Team (Faculty of Engineering, University of Tokyo)
MoNA Rating=3.75

>  <NUM PEAKS>  (5177) 
91

>  <MASS SPECTRAL PEAKS>  (5177) 
38 0.2
39 6.8
40 1.3
41 2.8
42 25
43 11.2
44 3.5
45 0.02
50 0.1
51 0.3
52 0.3
53 0.23
54 2.4
55 22.8
56 13.2
57 0.48
58 0.8
66 0.3
67 0.2
68 0.22
69 2
70 4.4
71 3.6
72 0.1
73 0.5
74 0.2
80 0.3
81 0.04
82 0.7
83 2.5
84 2.3
85 6.74
86 5.4
87 0.3
88 0.1
89 0.01
94 0.3
95 0.3
96 0.8
97 0.04
98 7
99 1.7
100 9
101 0.06
108 0.1
109 0.4
110 1
111 0.1
112 99.99
113 82.2
114 5.6
115 0.04
123 0.1
124 0.3
125 0.3
126 2.1
127 8.2
128 0.6
129 0.1
138 0.07
139 0.3
140 24
141 7.4
142 0.1
143 0.1
152 0.2
153 0.1
154 0.88
155 3.4
156 0.6
157 0.1
166 0.01
167 0.1
168 6.6
169 4.2
170 0.04
171 0.2
172 0.1
182 5.8
183 0.1
194 0.3
195 0.1
196 2
197 0.05
198 0.1
209 0.1
210 1.5
211 3.3
212 7.2
213 0.7
214 0.1

$$$$

     RDKit          2D

 13 13  0  0  0  0  0  0  0  0999 V2000
    5.4524   -3.1548    0.0000 C   0  0  0  0  0  0  0  0  0  0  0  0
   -6.2090   -3.5029    0.0000 C   0  0  0  0  0  0  0  0  0  0  0  0
    4.1534   -2.4048    0.0000 C   0  0  0  0  0  0  0  0  0  0  0  0
    2.8543   -3.1548    0.0000 C   0  0  0  0  0  0  0  0  0  0  0  0
    1.5553   -2.4048    0.0000 C   0  0  0  0  0  0  0  0  0  0  0  0
    0.2563   -3.1548    0.0000 C   0  0  0  0  0  0  0  0  0  0  0  0
   -3.9673   -4.9593    0.0000 C   0  0  0  0  0  0  0  0  0  0  0  0
   -1.0428   -2.4048    0.0000 C   0  0  0  0  0  0  0  0  0  0  0  0
   -2.5076   -4.6477    0.0000 C   0  0  0  0  0  0  0  0  0  0  0  0
   -4.7173   -3.6603    0.0000 C   0  0  0  0  0  0  0  0  0  0  0  0
   -3.7176   -2.5519    0.0000 C   0  0  0  0  0  0  0  0  0  0  0  0
   -2.3418   -3.1548    0.0000 N   0  0  0  0  0  0  0  0  0  0  0  0
   -4.0331   -1.0855    0.0000 O   0  0  0  0  0  0  0  0  0  0  0  0
  3  1  1  0
  4  3  1  0
  5  4  1  0
  6  5  1  0
  8  6  1  0
  9  7  1  0
 10  2  1  0
 10  7  1  0
 11 10  1  0
 12  8  1  0
 12  9  1  0
 12 11  1  0
 13 11  2  0
M  END
>  <NAME>  (5178) 
N-HEXYL-3-METHYL-2-PYRROLIDONE

>  <SYNONYMS>  (5178) 


>  <SPECTRUM TYPE>  (5178) 
MS1

>  <INSTRUMENT TYPE>  (5178) 
EI-B

>  <INSTRUMENT>  (5178) 
HITACHI RMU-6E

>  <ION MODE>  (5178) 
P

>  <INCHIKEY>  (5178) 
MGAPDRUAYAADPG-UHFFFAOYSA-N

>  <FORMULA>  (5178) 
C11H21NO

>  <EXACT MASS>  (5178) 
183.162314292

>  <MW>  (5178) 
183

>  <ID>  (5178) 
JP004162

>  <CONTRIBUTOR>  (5178) 
University of Tokyo Team, {Faculty of Engineering, University of Tokyo

>  <COMMENT>  (5178) 
SMILES=CCCCCCN(C1)C(=O)C(C)C1
InChI=InChI=1S/C11H21NO/c1-3-4-5-6-8-12-9-7-10(2)11(12)13/h10H,3-9H2,1-2H3
computed SMILES=O=C1N(CCCCCC)CCC1C
accession=JP004162
date=2016.01.19 (Created 2008.10.21, modified 2011.05.06)
author=MASS SPECTROSCOPY SOC. OF JAPAN (MSSJ)
license=CC BY-NC-SA
exact mass=183.16231
ionization energy=70 eV
ion type=[M]+*
computed spectral entropy=2.905729526429494
computed normalized entropy=0.6506469567280047
SPLASH=splash10-03du-9800000000-29da6ddd11524c2f0e23
submitter=submitter = University of Tokyo Team (Faculty of Engineering, University of Tokyo)
MoNA Rating=3.75

>  <NUM PEAKS>  (5178) 
87

>  <MASS SPECTRAL PEAKS>  (5178) 
26 1
27 10.6
28 9.2
29 1.42
30 7
31 0.3
32 0.1
37 0.01
38 0.3
39 7
40 1.6
41 2.4
42 26
43 10.6
44 3.2
45 0.02
50 0.1
51 0.3
52 0.3
53 0.26
54 2.8
55 20.6
56 14
57 0.35
58 0.8
59 0.1
66 0.3
67 0.01
68 2.3
69 2.2
70 2.3
71 0.31
72 0.8
73 0.5
74 0.2
78 0.01
79 0.1
80 0.4
81 0.6
82 0.05
83 2.8
84 2.9
85 78
86 0.54
87 0.4
88 0.1
93 0.1
94 0.03
95 0.1
96 0.7
97 0.5
98 0.68
99 2.2
100 6.8
101 0.4
109 0.03
110 0.7
111 1
112 99.99
113 6.4
114 4.6
115 0.2
124 0.3
125 0.02
126 17.4
127 5.2
128 0.6
138 0.05
139 0.2
140 24
141 8
142 0.1
143 0.1
152 0.2
153 0.1
154 0.66
155 1.3
156 0.1
166 0.3
167 0.01
168 2
169 0.4
181 0.1
182 0.16
183 28.8
184 5.8
185 0.6

$$$$

     RDKit          2D

 15 14  0  0  0  0  0  0  0  0999 V2000
    4.5466    7.1250    0.0000 C   0  0  0  0  0  0  0  0  0  0  0  0
    3.2476    7.8750    0.0000 C   0  0  0  0  0  0  0  0  0  0  0  0
    1.9486    7.1250    0.0000 C   0  0  0  0  0  0  0  0  0  0  0  0
    0.6495    7.8750    0.0000 C   0  0  0  0  0  0  0  0  0  0  0  0
   -8.4437    7.1250    0.0000 C   0  0  0  0  0  0  0  0  0  0  0  0
   -7.1447    7.8750    0.0000 C   0  0  0  0  0  0  0  0  0  0  0  0
   -0.6495    7.1250    0.0000 C   0  0  0  0  0  0  0  0  0  0  0  0
   -9.7428    7.8750    0.0000 C   0  0  0  0  0  0  0  0  0  0  0  0
   -5.8457    7.1250    0.0000 C   0  0  0  0  0  0  0  0  0  0  0  0
   -1.9486    7.8750    0.0000 C   0  0  0  0  0  0  0  0  0  0  0  0
  -11.0418    7.1250    0.0000 C   0  0  0  0  0  0  0  0  0  0  0  0
   -4.5466    7.8750    0.0000 C   0  0  0  0  0  0  0  0  0  0  0  0
   -3.2476    7.1250    0.0000 N   0  0  0  0  0  0  0  0  0  0  0  0
  -12.3409    7.8750    0.0000 O   0  0  0  0  0  0  0  0  0  0  0  0
   -4.5466    9.3750    0.0000 O   0  0  0  0  0  0  0  0  0  0  0  0
  2  1  1  0
  3  2  1  0
  4  3  1  0
  6  5  1  0
  7  4  1  0
  8  5  1  0
  9  6  1  0
 10  7  1  0
 11  8  1  0
 12  9  1  0
 13 10  1  0
 13 12  2  3
 14 11  1  0
 15 12  1  0
M  END
>  <NAME>  (5179) 
N-HEXYL-6-HYDROXYHEXANAMIDE

>  <SYNONYMS>  (5179) 


>  <SPECTRUM TYPE>  (5179) 
MS1

>  <INSTRUMENT TYPE>  (5179) 
EI-B

>  <INSTRUMENT>  (5179) 
HITACHI RMU-6E

>  <ION MODE>  (5179) 
P

>  <INCHIKEY>  (5179) 
DNHFCFYTJSCXOI-UHFFFAOYSA-N

>  <FORMULA>  (5179) 
C12H25NO2

>  <EXACT MASS>  (5179) 
215.18852904

>  <MW>  (5179) 
215

>  <ID>  (5179) 
JP004161

>  <CONTRIBUTOR>  (5179) 
University of Tokyo Team, {Faculty of Engineering, University of Tokyo

>  <COMMENT>  (5179) 
SMILES=CCCCCCNC(=O)CCCCCO
InChI=InChI=1S/C12H25NO2/c1-2-3-4-7-10-13-12(15)9-6-5-8-11-14/h14H,2-11H2,1H3,(H,13,15)
computed SMILES=OC(=NCCCCCC)CCCCCO
accession=JP004161
date=2016.01.19 (Created 2008.10.21, modified 2011.05.06)
author=MASS SPECTROSCOPY SOC. OF JAPAN (MSSJ)
license=CC BY-NC-SA
exact mass=215.18853
ionization energy=70 eV
ion type=[M]+*
computed spectral entropy=3.7951457567016895
computed normalized entropy=0.7564150057675333
SPLASH=splash10-0536-9300000000-8b30fb08c7440ad9593a
submitter=submitter = University of Tokyo Team (Faculty of Engineering, University of Tokyo)
MoNA Rating=3.75

>  <NUM PEAKS>  (5179) 
151

>  <MASS SPECTRAL PEAKS>  (5179) 
25 0.2
26 1.8
27 26.4
28 2.1
29 42
30 99.99
31 44.8
32 0.17
33 0.1
38 0.5
39 17
40 0.34
41 95.6
42 24.8
43 98
44 6
45 10
46 1.1
47 0.4
50 0.04
51 0.8
52 0.6
53 6.6
54 0.64
55 56.6
56 20
57 26.2
58 2.5
59 8
60 13
61 0.4
62 0.03
63 0.2
64 0.2
65 1.1
66 0.08
67 11.2
68 4.8
69 79.6
70 1.36
71 7.6
72 26.4
73 75.4
74 0.39
75 0.5
76 0.3
77 0.4
78 0.03
79 8.8
80 1.3
81 1.9
82 0.23
83 4.6
84 12.8
85 20.2
86 5.32
87 38.4
88 2.4
89 0.2
94 0.04
95 1.2
96 1.9
97 44
98 1.2
99 4.2
100 37
101 35
102 1.26
103 0.8
104 0.2
105 0.2
107 0.02
108 0.3
109 1
110 0.5
111 0.07
112 4.2
113 3.1
114 38
115 5.4
116 4.6
117 0.6
118 0.2
124 0.02
125 0.6
126 9
127 11
128 3.52
129 3.7
130 1
131 0.2
132 0.06
133 0.2
134 0.2
138 0.4
139 0.04
140 5.4
141 3.7
142 1.4
143 9.6
144 11.4
145 34.4
146 2.3
147 0.02
148 0.1
149 1.7
150 0.2
151 0.01
152 0.3
153 0.2
154 15.6
155 0.36
156 48
157 4.7
158 10.4
159 0.19
160 0.4
161 0.1
166 0.1
167 0.03
168 4.2
169 1.1
170 11.4
171 0.2
172 32
173 5
174 0.5
180 0.03
181 0.2
182 1.4
183 0.4
184 0.6
185 6
186 16.6
187 2.1
188 0.01
194 0.1
195 0.2
196 1
197 0.5
198 6
199 1
200 2
201 0.04
212 0.2
213 0.4
214 2.6
215 3.2
216 41.4
217 0.5
218 0.1

$$$$

     RDKit          2D

 14 13  0  0  0  0  0  0  0  0999 V2000
    3.8971    6.7500    0.0000 C   0  0  0  0  0  0  0  0  0  0  0  0
    2.5981    7.5000    0.0000 C   0  0  0  0  0  0  0  0  0  0  0  0
    1.2990    6.7500    0.0000 C   0  0  0  0  0  0  0  0  0  0  0  0
    0.0000    7.5000    0.0000 C   0  0  0  0  0  0  0  0  0  0  0  0
   -7.7942    7.5000    0.0000 C   0  0  0  0  0  0  0  0  0  0  0  0
   -1.2990    6.7500    0.0000 C   0  0  0  0  0  0  0  0  0  0  0  0
   -9.0933    6.7500    0.0000 C   0  0  0  0  0  0  0  0  0  0  0  0
   -6.4952    6.7500    0.0000 C   0  0  0  0  0  0  0  0  0  0  0  0
   -2.5981    7.5000    0.0000 C   0  0  0  0  0  0  0  0  0  0  0  0
  -10.3923    7.5000    0.0000 C   0  0  0  0  0  0  0  0  0  0  0  0
   -5.1962    7.5000    0.0000 C   0  0  0  0  0  0  0  0  0  0  0  0
   -3.8971    6.7500    0.0000 N   0  0  0  0  0  0  0  0  0  0  0  0
  -11.6913    6.7500    0.0000 O   0  0  0  0  0  0  0  0  0  0  0  0
   -5.1962    9.0000    0.0000 O   0  0  0  0  0  0  0  0  0  0  0  0
  2  1  1  0
  3  2  1  0
  4  3  1  0
  6  4  1  0
  7  5  1  0
  8  5  1  0
  9  6  1  0
 10  7  1  0
 11  8  1  0
 12  9  1  0
 12 11  2  3
 13 10  1  0
 14 11  1  0
M  END
>  <NAME>  (5180) 
N-HEXYL-5-HYDROXYPENTANAMIDE

>  <SYNONYMS>  (5180) 


>  <SPECTRUM TYPE>  (5180) 
MS1

>  <INSTRUMENT TYPE>  (5180) 
EI-B

>  <INSTRUMENT>  (5180) 
HITACHI RMU-6E

>  <ION MODE>  (5180) 
P

>  <INCHIKEY>  (5180) 
RBXBYQAGFGAKKR-UHFFFAOYSA-N

>  <FORMULA>  (5180) 
C11H23NO2

>  <EXACT MASS>  (5180) 
201.172878976

>  <MW>  (5180) 
201

>  <ID>  (5180) 
JP004160

>  <CONTRIBUTOR>  (5180) 
University of Tokyo Team, {Faculty of Engineering, University of Tokyo

>  <COMMENT>  (5180) 
SMILES=CCCCCCNC(=O)CCCCO
InChI=InChI=1S/C11H23NO2/c1-2-3-4-6-9-12-11(14)8-5-7-10-13/h13H,2-10H2,1H3,(H,12,14)
computed SMILES=OC(=NCCCCCC)CCCCO
accession=JP004160
date=2016.01.19 (Created 2008.10.21, modified 2011.05.06)
author=MASS SPECTROSCOPY SOC. OF JAPAN (MSSJ)
license=CC BY-NC-SA
exact mass=201.17288
ionization energy=70 eV
ion type=[M]+*
computed spectral entropy=3.7303617207884905
computed normalized entropy=0.7616340821980087
SPLASH=splash10-0536-9300000000-32955c51b4bd51760aa2
submitter=submitter = University of Tokyo Team (Faculty of Engineering, University of Tokyo)
MoNA Rating=3.75

>  <NUM PEAKS>  (5180) 
134

>  <MASS SPECTRAL PEAKS>  (5180) 
25 0.2
26 1.1
27 23.2
28 1.66
29 29.8
30 99.99
31 25
32 0.1
33 0.1
36 0.3
37 0.3
38 0.07
39 14
40 3.3
41 53.2
42 1.98
43 81.4
44 53.4
45 10
46 0.13
49 0.1
50 0.4
51 0.7
52 0.07
53 4.2
54 4.4
55 77.6
56 2.8
57 29.2
58 21.2
59 13
60 0.5
61 0.2
65 0.4
66 0.3
67 0.21
68 1.7
69 5.6
70 5.8
71 0.58
72 21.2
73 21
74 2.1
75 0.01
78 0.1
79 0.6
80 0.4
81 0.11
82 3.1
83 30.4
84 10.8
85 2.06
86 29
87 18.8
88 1.7
89 0.03
94 0.3
95 0.4
96 0.7
97 0.1
98 6.2
99 5.8
100 32
101 7.4
102 10.6
103 1.2
104 0.1
108 0.01
109 0.7
110 0.5
111 0.7
112 0.98
113 18
114 13.6
115 3.9
116 0.09
117 0.1
118 0.8
124 0.5
125 0.05
126 10.2
127 8.4
128 23.8
129 0.28
130 2.7
131 29
132 3.1
133 0.02
137 0.1
138 0.3
139 0.2
140 1.9
141 6.2
142 2.5
143 14.4
144 1.2
145 4
146 0.3
153 0.1
154 0.82
155 1.5
156 29.8
157 4.6
158 3.36
159 6
160 0.8
161 0.1
162 0.01
166 0.3
167 0.2
168 2.6
169 0.04
170 11.4
171 8.2
172 15.2
173 0.23
174 0.3
181 0.2
182 1.1
183 1
184 4.6
185 0.5
186 2.8
187 0.03
188 0.1
189 0.1
197 0.3
198 0.03
199 0.3
200 1.8
201 29.4
202 1.54
203 1.8
204 0.2

$$$$

     RDKit          2D

 10 10  0  0  0  0  0  0  0  0999 V2000
   -1.1300    1.5500    0.0000 C   0  0  0  0  0  0  0  0  0  0  0  0
    0.3700    1.5500    0.0000 C   0  0  0  0  0  0  0  0  0  0  0  0
   -1.5900    0.1200    0.0000 C   0  0  0  0  0  0  0  0  0  0  0  0
   -0.3829   -2.2600    0.0000 C   0  0  0  0  0  0  0  0  0  0  0  0
    0.8400    0.1200    0.0000 C   0  0  0  0  0  0  0  0  0  0  0  0
   -1.6834   -3.0075    0.0000 C   0  0  0  0  0  0  0  0  0  0  0  0
   -0.3800   -0.7600    0.0000 N   0  0  0  0  0  0  0  0  0  0  0  0
    2.2666   -0.3436    0.0000 O   0  0  0  0  0  0  0  0  0  0  0  0
   -2.9810   -2.2549    0.0000 O   0  0  0  0  0  0  0  0  0  0  0  0
   -1.6864   -4.5075    0.0000 O   0  0  0  0  0  0  0  0  0  0  0  0
  2  1  1  0
  3  1  1  0
  5  2  1  0
  6  4  1  0
  7  3  1  0
  7  4  1  0
  7  5  1  0
  8  5  2  0
  9  6  2  0
 10  6  1  0
M  END
>  <NAME>  (5181) 
(2-OXO-1-PYRROLIDINYL)ACETIC ACID

>  <SYNONYMS>  (5181) 


>  <SPECTRUM TYPE>  (5181) 
MS1

>  <INSTRUMENT TYPE>  (5181) 
EI-B

>  <INSTRUMENT>  (5181) 
HITACHI RMU-6E

>  <ION MODE>  (5181) 
P

>  <INCHIKEY>  (5181) 
JGPIWNNFLKDTSR-UHFFFAOYSA-N

>  <FORMULA>  (5181) 
C6H9NO3

>  <EXACT MASS>  (5181) 
143.05824314799997

>  <MW>  (5181) 
143

>  <ID>  (5181) 
JP004159

>  <CONTRIBUTOR>  (5181) 
University of Tokyo Team, {Faculty of Engineering, University of Tokyo

>  <COMMENT>  (5181) 
SMILES=OC(=O)CN(C1)C(=O)CC1
InChI=InChI=1S/C6H9NO3/c8-5-2-1-3-7(5)4-6(9)10/h1-4H2,(H,9,10)
computed SMILES=O=C(O)CN1C(=O)CCC1
accession=JP004159
date=2016.01.19 (Created 2008.10.21, modified 2011.05.06)
author=MASS SPECTROSCOPY SOC. OF JAPAN (MSSJ)
license=CC BY-NC-SA
exact mass=143.05824
ionization energy=70 eV
ion type=[M]+*
computed spectral entropy=2.7966109653082167
computed normalized entropy=0.6477402813316853
SPLASH=splash10-0005-9000000000-5e4b292adb6c2b80be69
submitter=submitter = University of Tokyo Team (Faculty of Engineering, University of Tokyo)
MoNA Rating=3.75

>  <NUM PEAKS>  (5181) 
75

>  <MASS SPECTRAL PEAKS>  (5181) 
25 0.3
26 4
27 14.2
28 2.94
29 4.6
30 7.4
31 4.4
32 0.01
36 0.1
37 0.8
38 1.9
39 1.46
40 5.4
41 51.8
42 44.2
43 1.78
44 4.8
45 7.8
46 0.2
49 0.02
50 0.3
51 0.4
52 0.9
53 0.2
54 3
55 4.8
56 6
57 0.1
58 1.4
59 1.6
60 2.8
61 0.01
64 0.1
65 0.1
66 0.3
67 0.07
68 13
69 25.4
70 69.4
71 0.7
72 0.3
73 0.2
74 0.5
75 0.01
80 0.9
81 0.1
82 0.1
83 0.03
84 16.2
85 1.3
86 0.6
87 0.02
88 2.2
89 0.1
96 3
97 0.21
98 99.99
99 43.8
100 2.8
101 0.07
112 0.3
113 0.2
114 1.1
115 0.13
125 0.1
126 0.9
127 0.1
128 0.01
140 0.1
141 0.1
142 0.3
143 2.6
144 10.2
145 1
146 0.1

$$$$

     RDKit          2D

 17 16  0  0  0  0  0  0  0  0999 V2000
    5.1962    8.2500    0.0000 C   0  0  0  0  0  0  0  0  0  0  0  0
    3.8971    9.0000    0.0000 C   0  0  0  0  0  0  0  0  0  0  0  0
    2.5981    8.2500    0.0000 C   0  0  0  0  0  0  0  0  0  0  0  0
    1.2990    9.0000    0.0000 C   0  0  0  0  0  0  0  0  0  0  0  0
    0.0000    8.2500    0.0000 C   0  0  0  0  0  0  0  0  0  0  0  0
   -1.2990    9.0000    0.0000 C   0  0  0  0  0  0  0  0  0  0  0  0
  -10.3923    8.2500    0.0000 C   0  0  0  0  0  0  0  0  0  0  0  0
   -9.0933    9.0000    0.0000 C   0  0  0  0  0  0  0  0  0  0  0  0
   -2.5981    8.2500    0.0000 C   0  0  0  0  0  0  0  0  0  0  0  0
  -11.6913    9.0000    0.0000 C   0  0  0  0  0  0  0  0  0  0  0  0
   -7.7942    8.2500    0.0000 C   0  0  0  0  0  0  0  0  0  0  0  0
   -3.8971    9.0000    0.0000 C   0  0  0  0  0  0  0  0  0  0  0  0
  -12.9904    8.2500    0.0000 C   0  0  0  0  0  0  0  0  0  0  0  0
   -6.4952    9.0000    0.0000 C   0  0  0  0  0  0  0  0  0  0  0  0
   -5.1962    8.2500    0.0000 N   0  0  0  0  0  0  0  0  0  0  0  0
  -14.2894    9.0000    0.0000 O   0  0  0  0  0  0  0  0  0  0  0  0
   -6.4952   10.5000    0.0000 O   0  0  0  0  0  0  0  0  0  0  0  0
  2  1  1  0
  3  2  1  0
  4  3  1  0
  5  4  1  0
  6  5  1  0
  8  7  1  0
  9  6  1  0
 10  7  1  0
 11  8  1  0
 12  9  1  0
 13 10  1  0
 14 11  1  0
 15 12  1  0
 15 14  2  3
 16 13  1  0
 17 14  1  0
M  END
>  <NAME>  (5182) 
6-HYDROXY-N-OCTYLHEXANAMIDE

>  <SYNONYMS>  (5182) 


>  <SPECTRUM TYPE>  (5182) 
MS1

>  <INSTRUMENT TYPE>  (5182) 
EI-B

>  <INSTRUMENT>  (5182) 
HITACHI RMU-6E

>  <ION MODE>  (5182) 
P

>  <INCHIKEY>  (5182) 
CZALATPPVHTDBF-UHFFFAOYSA-N

>  <FORMULA>  (5182) 
C14H29NO2

>  <EXACT MASS>  (5182) 
243.219829168

>  <MW>  (5182) 
243

>  <ID>  (5182) 
JP004158

>  <CONTRIBUTOR>  (5182) 
University of Tokyo Team, {Faculty of Engineering, University of Tokyo

>  <COMMENT>  (5182) 
SMILES=CCCCCCCCNC(=O)CCCCCO
InChI=InChI=1S/C14H29NO2/c1-2-3-4-5-6-9-12-15-14(17)11-8-7-10-13-16/h16H,2-13H2,1H3,(H,15,17)
computed SMILES=OC(=NCCCCCCCC)CCCCCO
accession=JP004158
date=2016.01.19 (Created 2008.10.21, modified 2011.05.06)
author=MASS SPECTROSCOPY SOC. OF JAPAN (MSSJ)
license=CC BY-NC-SA
exact mass=243.21983
ionization energy=70 eV
ion type=[M]+*
computed spectral entropy=3.8978655910118705
computed normalized entropy=0.7768882178767047
SPLASH=splash10-007o-9510000000-0d831b1845a21dcd6e95
submitter=submitter = University of Tokyo Team (Faculty of Engineering, University of Tokyo)
MoNA Rating=3.75

>  <NUM PEAKS>  (5182) 
151

>  <MASS SPECTRAL PEAKS>  (5182) 
26 1.1
27 20.8
28 14
29 4.2
30 95.2
31 32
32 1
38 0.03
39 16
40 3.1
41 97.2
42 2.28
43 76.8
44 63.2
45 9.6
46 0.1
50 0.1
51 0.6
52 4
53 0.51
54 6.1
55 60.8
56 18
57 4.84
58 26
59 6.7
60 14
61 0.02
65 0.9
66 0.6
67 12
68 0.48
69 99.99
70 17.4
71 26.4
72 3.2
73 85.2
74 5
75 0.4
76 0.04
77 0.4
78 0.3
79 9.2
80 0.14
81 2
82 2.1
83 5.4
84 1.38
85 6.1
86 53.2
87 36.8
88 0.2
89 0.2
93 0.3
94 0.3
95 0.1
96 1.8
97 46.8
98 12
99 0.43
100 50
101 35.6
102 3
103 0.04
108 0.1
109 0.6
110 0.8
111 0.07
112 5
113 2.6
114 52.8
115 5.92
116 5
117 0.8
118 0.1
123 0.02
124 0.3
125 0.5
126 5.5
127 1.28
128 30.4
129 10
130 10.4
131 0.09
132 1
138 0.4
139 0.5
140 0.61
141 3.7
142 16.4
143 4.1
144 0.34
145 42
146 3.5
147 0.3
148 0.01
149 0.6
153 0.2
154 14
155 0.38
156 34
157 4.3
158 18
159 0.35
160 0.3
167 0.1
168 5.3
169 0.25
170 2.4
171 77.6
172 36
173 0.67
174 0.6
175 0.1
181 0.1
182 0.41
183 1.6
184 58.4
185 7
186 2.2
187 4
188 0.2
196 4
197 0.07
198 12
199 3.1
200 13
201 0.44
202 0.7
210 1.9
211 0.3
212 0.84
213 5.6
214 13
215 2.5
216 0.13
217 0.2
224 1
225 4.1
226 0.6
227 1.7
228 4.5
229 0.8
230 0.02
241 0.8
242 0.4
243 38
244 7.48
245 14.8
246 1.3
247 0.1

$$$$

     RDKit          2D

 18 17  0  0  0  0  0  0  0  0999 V2000
    5.1962    8.2500    0.0000 C   0  0  0  0  0  0  0  0  0  0  0  0
  -14.2894    9.0000    0.0000 C   0  0  0  0  0  0  0  0  0  0  0  0
  -10.3923    6.7500    0.0000 C   0  0  0  0  0  0  0  0  0  0  0  0
    3.8971    9.0000    0.0000 C   0  0  0  0  0  0  0  0  0  0  0  0
  -12.9904    8.2500    0.0000 C   0  0  0  0  0  0  0  0  0  0  0  0
    2.5981    8.2500    0.0000 C   0  0  0  0  0  0  0  0  0  0  0  0
    1.2990    9.0000    0.0000 C   0  0  0  0  0  0  0  0  0  0  0  0
    0.0000    8.2500    0.0000 C   0  0  0  0  0  0  0  0  0  0  0  0
   -1.2990    9.0000    0.0000 C   0  0  0  0  0  0  0  0  0  0  0  0
   -2.5981    8.2500    0.0000 C   0  0  0  0  0  0  0  0  0  0  0  0
   -3.8971    9.0000    0.0000 C   0  0  0  0  0  0  0  0  0  0  0  0
   -5.1962    8.2500    0.0000 C   0  0  0  0  0  0  0  0  0  0  0  0
   -6.4952    9.0000    0.0000 C   0  0  0  0  0  0  0  0  0  0  0  0
   -7.7942    8.2500    0.0000 C   0  0  0  0  0  0  0  0  0  0  0  0
   -9.0933    9.0000    0.0000 C   0  0  0  0  0  0  0  0  0  0  0  0
  -11.6913    9.0000    0.0000 C   0  0  0  0  0  0  0  0  0  0  0  0
  -10.3923    8.2500    0.0000 N   0  0  0  0  0  0  0  0  0  0  0  0
  -11.6913   10.5000    0.0000 O   0  0  0  0  0  0  0  0  0  0  0  0
  4  1  1  0
  5  2  1  0
  6  4  1  0
  7  6  1  0
  8  7  1  0
  9  8  1  0
 10  9  1  0
 11 10  1  0
 12 11  1  0
 13 12  1  0
 14 13  1  0
 15 14  1  0
 16  5  1  0
 17  3  1  0
 17 15  1  0
 17 16  1  0
 18 16  2  0
M  END
>  <NAME>  (5183) 
N-DODECYL-N-METHYLPROPIONAMIDE

>  <SYNONYMS>  (5183) 


>  <SPECTRUM TYPE>  (5183) 
MS1

>  <INSTRUMENT TYPE>  (5183) 
EI-B

>  <INSTRUMENT>  (5183) 
HITACHI RMU-6E

>  <ION MODE>  (5183) 
P

>  <INCHIKEY>  (5183) 
GQQHNTXKLBDYQN-UHFFFAOYSA-N

>  <FORMULA>  (5183) 
C16H33NO

>  <EXACT MASS>  (5183) 
255.25621467599998

>  <MW>  (5183) 
255

>  <ID>  (5183) 
JP004155

>  <CONTRIBUTOR>  (5183) 
University of Tokyo Team, {Faculty of Engineering, University of Tokyo

>  <COMMENT>  (5183) 
SMILES=CCCCCCCCCCCCN(C)C(=O)CC
InChI=InChI=1S/C16H33NO/c1-4-6-7-8-9-10-11-12-13-14-15-17(3)16(18)5-2/h4-15H2,1-3H3
computed SMILES=O=C(N(C)CCCCCCCCCCCC)CC
accession=JP004155
date=2016.01.19 (Created 2008.10.21, modified 2011.05.06)
author=MASS SPECTROSCOPY SOC. OF JAPAN (MSSJ)
license=CC BY-NC-SA
exact mass=255.25621
ionization energy=70 eV
ion type=[M]+*
computed spectral entropy=2.8423892818555214
computed normalized entropy=0.621326526465156
SPLASH=splash10-0006-9320000000-0212c2195961e40c74b0
submitter=submitter = University of Tokyo Team (Faculty of Engineering, University of Tokyo)
MoNA Rating=3.75

>  <NUM PEAKS>  (5183) 
97

>  <MASS SPECTRAL PEAKS>  (5183) 
26 0.3
27 4
28 2.4
29 1.88
30 2.5
31 0.2
32 1.3
39 0.19
40 0.5
41 13
42 7
43 1.26
44 99.99
45 4.4
46 0.2
51 0.01
52 0.1
53 0.8
54 0.6
55 0.82
56 2.6
57 19.6
58 9.4
59 0.09
60 0.1
65 0.2
66 0.1
67 0.08
68 0.6
69 2.7
70 2.9
71 0.19
72 1.3
73 0.3
74 0.1
77 0.02
78 0.1
79 0.2
80 0.1
81 0.03
82 0.2
83 0.7
84 1
85 0.07
86 1.5
87 5.2
88 5.6
89 0.03
95 0.1
96 0.1
97 0.3
98 0.08
99 0.2
100 33
101 22.4
102 0.16
103 0.1
111 0.1
112 0.4
113 0.03
114 8.4
115 2.5
116 0.2
126 0.03
127 0.1
128 6.2
129 1.8
130 0.02
140 0.2
141 0.2
142 3.3
143 0.04
154 0.1
155 0.1
156 2.2
157 0.04
169 0.1
170 2.8
171 0.4
184 0.22
185 0.4
196 0.1
197 0.1
198 0.37
199 0.8
200 0.3
212 1
213 0.02
226 40
227 6.4
228 0.5
240 0.06
241 0.1
254 0.6
255 5.8
256 0.11
257 0.2

$$$$

     RDKit          2D

 19 21  0  0  0  0  0  0  0  0999 V2000
   -6.9257   -5.1854    0.0000 C   0  0  0  0  0  0  0  0  0  0  0  0
   -6.9133   -3.6854    0.0000 C   0  0  0  0  0  0  0  0  0  0  0  0
   -5.6319   -5.9461    0.0000 C   0  0  0  0  0  0  0  0  0  0  0  0
   -0.4268   -5.9943    0.0000 C   0  0  0  0  0  0  0  0  0  0  0  0
    3.8106   -1.1888    0.0000 C   0  0  0  0  0  0  0  0  0  0  0  0
    0.8770   -5.2408    0.0000 C   0  0  0  0  0  0  0  0  0  0  0  0
   -5.6072   -2.9462    0.0000 C   0  0  0  0  0  0  0  0  0  0  0  0
   -4.3258   -5.2068    0.0000 C   0  0  0  0  0  0  0  0  0  0  0  0
   -1.7229   -5.2278    0.0000 C   0  0  0  0  0  0  0  0  0  0  0  0
    4.5606   -2.4879    0.0000 C   0  0  0  0  0  0  0  0  0  0  0  0
    2.3421   -1.5055    0.0000 C   0  0  0  0  0  0  0  0  0  0  0  0
   -0.4117   -2.9943    0.0000 C   0  0  0  0  0  0  0  0  0  0  0  0
    0.8845   -3.7408    0.0000 C   0  0  0  0  0  0  0  0  0  0  0  0
   -4.3134   -3.7068    0.0000 C   0  0  0  0  0  0  0  0  0  0  0  0
   -1.7154   -3.7278    0.0000 C   0  0  0  0  0  0  0  0  0  0  0  0
    3.5571   -3.6099    0.0000 C   0  0  0  0  0  0  0  0  0  0  0  0
    2.1850   -2.9934    0.0000 N   0  0  0  0  0  0  0  0  0  0  0  0
    3.8690   -5.0771    0.0000 O   0  0  0  0  0  0  0  0  0  0  0  0
   -3.0084   -2.9673    0.0000 O   0  0  0  0  0  0  0  0  0  0  0  0
  2  1  2  0
  3  1  1  0
  6  4  2  0
  7  2  1  0
  8  3  2  0
  9  4  1  0
 10  5  1  0
 11  5  1  0
 13  6  1  0
 13 12  2  0
 14  7  2  0
 14  8  1  0
 15  9  2  0
 15 12  1  0
 16 10  1  0
 17 11  1  0
 17 13  1  0
 17 16  1  0
 18 16  2  0
 19 14  1  0
 19 15  1  0
M  END
>  <NAME>  (5184) 
N-(META-PHENOXYPHENYL)-2-PYRROLIDONE

>  <SYNONYMS>  (5184) 


>  <SPECTRUM TYPE>  (5184) 
MS1

>  <INSTRUMENT TYPE>  (5184) 
EI-B

>  <INSTRUMENT>  (5184) 
HITACHI RMU-6E

>  <ION MODE>  (5184) 
P

>  <INCHIKEY>  (5184) 
RFCQFBDBPGMUDP-UHFFFAOYSA-N

>  <FORMULA>  (5184) 
C16H15NO2

>  <EXACT MASS>  (5184) 
253.11027872

>  <MW>  (5184) 
253

>  <ID>  (5184) 
JP004154

>  <CONTRIBUTOR>  (5184) 
University of Tokyo Team, {Faculty of Engineering, University of Tokyo

>  <COMMENT>  (5184) 
SMILES=c(c3)ccc(c3)Oc(c2)cc(cc2)N(C1)C(=O)CC1
InChI=InChI=1S/C16H15NO2/c18-16-10-5-11-17(16)13-6-4-9-15(12-13)19-14-7-2-1-3-8-14/h1-4,6-9,12H,5,10-11H2
computed SMILES=O=C1N(C=2C=CC=C(OC=3C=CC=CC3)C2)CCC1
accession=JP004154
date=2016.01.19 (Created 2008.10.21, modified 2011.05.06)
author=MASS SPECTROSCOPY SOC. OF JAPAN (MSSJ)
license=CC BY-NC-SA
exact mass=253.11028
ionization energy=70 eV
ion type=[M]+*
computed spectral entropy=2.910579901396167
computed normalized entropy=0.5763688899679039
SPLASH=splash10-0udj-3960000000-62c4f723a2f0844b3ac8
submitter=submitter = University of Tokyo Team (Faculty of Engineering, University of Tokyo)
MoNA Rating=3.75

>  <NUM PEAKS>  (5184) 
156

>  <MASS SPECTRAL PEAKS>  (5184) 
26 0.3
27 1.5
28 2.8
29 0.06
30 0.3
31 0.1
32 0.4
38 0.07
39 9.2
40 0.8
41 3.8
42 0.11
43 0.8
44 0.2
45 0.2
50 0.13
51 11.8
52 1.1
53 0.7
54 0.02
55 1.8
56 0.6
57 0.5
61 0.01
62 0.4
63 2
64 2.5
65 0.31
66 0.8
67 0.3
68 0.4
69 0.08
70 0.4
71 0.3
72 0.2
73 0.01
74 0.3
75 0.9
76 1.7
77 1.8
78 1.7
79 0.7
80 0.5
81 0.02
82 0.2
86 0.2
87 0.2
88 0.01
89 0.6
90 1.1
91 1.6
92 0.22
93 1
94 0.6
95 0.4
96 0.01
97 0.4
98 0.5
99 0.6
101 0.02
102 0.4
103 0.5
104 1.8
105 0.25
106 0.5
107 0.3
108 0.2
109 0.04
110 0.1
111 0.1
112 0.3
113 0.03
114 0.2
115 3.8
116 0.7
117 0.1
118 0.6
119 0.4
120 0.5
121 0.04
122 0.4
123 0.2
124 0.2
125 0.02
126 0.2
127 0.7
128 0.9
129 0.07
130 1.2
131 0.4
132 1
133 0.02
134 0.1
135 0.1
137 0.1
138 0.01
139 1.5
140 0.8
141 13
142 0.11
143 0.4
144 0.1
145 0.1
146 0.02
147 0.2
148 0.1
149 1.3
150 0.03
151 0.2
152 0.4
153 0.6
154 0.1
155 1
156 1.7
157 0.9
158 0.01
159 0.1
160 0.4
164 0.1
165 0.02
166 0.5
167 0.6
168 11.2
169 0.22
170 1.3
171 0.2
177 0.3
178 0.03
179 0.1
180 0.4
181 0.4
182 0.08
183 0.9
184 1
185 3.5
186 0.06
187 0.1
195 0.2
196 1.6
197 0.13
198 99.99
199 14
200 0.7
210 0.05
211 0.5
212 0.1
223 0.3
224 0.17
225 2
226 0.3
227 0.1
251 0.08
252 26.4
253 79.2
254 16.8
255 1

$$$$

     RDKit          2D

 19 21  0  0  0  0  0  0  0  0999 V2000
    2.2666    0.7992    0.0000 C   0  0  0  0  0  0  0  0  0  0  0  0
    2.2657   -0.7008    0.0000 C   0  0  0  0  0  0  0  0  0  0  0  0
    0.9670    1.5500    0.0000 C   0  0  0  0  0  0  0  0  0  0  0  0
   -5.5273    0.8074    0.0000 C   0  0  0  0  0  0  0  0  0  0  0  0
   -4.2312    1.5469    0.0000 C   0  0  0  0  0  0  0  0  0  0  0  0
   -3.4864   -5.2562    0.0000 C   0  0  0  0  0  0  0  0  0  0  0  0
    0.9652   -1.4500    0.0000 C   0  0  0  0  0  0  0  0  0  0  0  0
   -0.3334    0.8008    0.0000 C   0  0  0  0  0  0  0  0  0  0  0  0
   -5.5310   -0.6934    0.0000 C   0  0  0  0  0  0  0  0  0  0  0  0
   -2.9338    0.7941    0.0000 C   0  0  0  0  0  0  0  0  0  0  0  0
   -4.9864   -5.2562    0.0000 C   0  0  0  0  0  0  0  0  0  0  0  0
   -3.0264   -3.8262    0.0000 C   0  0  0  0  0  0  0  0  0  0  0  0
   -0.3343   -0.6992    0.0000 C   0  0  0  0  0  0  0  0  0  0  0  0
   -4.2335   -1.4462    0.0000 C   0  0  0  0  0  0  0  0  0  0  0  0
   -2.9324   -0.6981    0.0000 C   0  0  0  0  0  0  0  0  0  0  0  0
   -5.4564   -3.8262    0.0000 C   0  0  0  0  0  0  0  0  0  0  0  0
   -4.2364   -2.9462    0.0000 N   0  0  0  0  0  0  0  0  0  0  0  0
   -6.8830   -3.3626    0.0000 O   0  0  0  0  0  0  0  0  0  0  0  0
   -1.6337   -1.4486    0.0000 O   0  0  0  0  0  0  0  0  0  0  0  0
  2  1  2  0
  3  1  1  0
  5  4  2  0
  7  2  1  0
  8  3  2  0
  9  4  1  0
 10  5  1  0
 11  6  1  0
 12  6  1  0
 13  7  2  0
 13  8  1  0
 14  9  2  0
 15 10  2  0
 15 14  1  0
 16 11  1  0
 17 12  1  0
 17 14  1  0
 17 16  1  0
 18 16  2  0
 19 13  1  0
 19 15  1  0
M  END
>  <NAME>  (5185) 
N-(ORTHO-PHENOXYPHENYL)-2-PYRROLIDONE

>  <SYNONYMS>  (5185) 


>  <SPECTRUM TYPE>  (5185) 
MS1

>  <INSTRUMENT TYPE>  (5185) 
EI-B

>  <INSTRUMENT>  (5185) 
HITACHI RMU-6E

>  <ION MODE>  (5185) 
P

>  <INCHIKEY>  (5185) 
BZQZFICCIHXODN-UHFFFAOYSA-N

>  <FORMULA>  (5185) 
C16H15NO2

>  <EXACT MASS>  (5185) 
253.11027872

>  <MW>  (5185) 
253

>  <ID>  (5185) 
JP004153

>  <CONTRIBUTOR>  (5185) 
University of Tokyo Team, {Faculty of Engineering, University of Tokyo

>  <COMMENT>  (5185) 
SMILES=c(c3)ccc(c3)Oc(c2)c(ccc2)N(C1)C(=O)CC1
InChI=InChI=1S/C16H15NO2/c18-16-11-6-12-17(16)14-9-4-5-10-15(14)19-13-7-2-1-3-8-13/h1-5,7-10H,6,11-12H2
computed SMILES=O=C1N(C=2C=CC=CC2OC=3C=CC=CC3)CCC1
accession=JP004153
date=2016.01.19 (Created 2008.10.21, modified 2011.05.06)
author=MASS SPECTROSCOPY SOC. OF JAPAN (MSSJ)
license=CC BY-NC-SA
exact mass=253.11028
ionization energy=70 eV
ion type=[M]+*
computed spectral entropy=3.52201806844288
computed normalized entropy=0.6849958247440334
SPLASH=splash10-03di-4900000000-af2627924e622b5d2378
submitter=submitter = University of Tokyo Team (Faculty of Engineering, University of Tokyo)
MoNA Rating=3.75

>  <NUM PEAKS>  (5185) 
171

>  <MASS SPECTRAL PEAKS>  (5185) 
26 0.6
27 3.6
28 8.8
29 0.08
30 0.4
32 1.4
37 0.3
38 0.1
39 7
40 0.8
41 5
42 0.21
43 0.3
44 0.3
45 0.1
50 0.23
51 12.4
52 2.9
53 1.2
54 0.05
55 3.4
56 0.7
57 0.3
61 0.01
62 0.4
63 2.7
64 2.9
65 0.88
66 1.5
67 0.4
68 0.4
69 0.1
70 0.3
71 0.2
74 0.8
75 0.08
76 1.7
77 17
78 4.2
79 0.19
80 2.3
81 0.3
84 0.2
85 0.02
86 0.3
87 0.1
88 0.2
89 0.07
90 1.1
91 19.4
92 4.4
93 0.41
94 1
95 0.4
96 0.1
101 0.04
102 0.8
103 1.1
104 5.1
105 0.16
106 1.4
107 0.3
108 2.1
109 0.47
110 0.4
113 0.2
114 0.4
115 0.4
116 0.9
117 4.2
118 2.8
119 0.09
120 10.4
121 0.8
122 0.5
126 0.03
127 1.3
128 1.6
129 0.9
130 0.4
131 1.4
132 4
133 1.3
134 0.04
135 0.7
136 4.2
137 0.4
138 0.01
139 2.3
140 0.9
141 2.5
142 0.09
143 0.4
144 1.6
145 0.6
146 0.08
147 0.5
148 0.9
149 0.2
150 0.01
151 0.3
152 0.9
153 1.3
154 0.22
155 1.4
156 1
157 0.3
158 0.06
159 0.5
160 99.99
161 13.4
162 0.09
163 0.1
164 0.1
165 0.4
166 0.07
167 2.3
168 3.6
169 1.3
170 0.2
171 0.3
172 0.1
173 0.1
174 0.02
175 0.1
176 0.6
177 0.2
178 0.02
179 0.2
180 2.2
181 1.5
182 0.08
183 1.2
184 0.7
185 5.4
187 0.1
188 0.1
189 0.08
192 0.1
193 0.01
194 0.3
195 0.3
196 6.4
197 0.15
198 31.8
199 5.6
200 0.4
204 0.02
205 0.1
206 0.1
207 0.1
208 0.03
209 0.3
210 0.1
211 0.6
212 0.01
220 0.3
221 0.3
222 0.3
223 0.01
224 1.2
225 0.4
235 0.1
236 0.04
237 0.1
251 0.1
252 2.7
253 5.6
254 9.2
255 1
256 0.1

$$$$

     RDKit          2D

 19 21  0  0  0  0  0  0  0  0999 V2000
   -6.8999   -3.7113    0.0000 C   0  0  0  0  0  0  0  0  0  0  0  0
   -5.5993   -2.9641    0.0000 C   0  0  0  0  0  0  0  0  0  0  0  0
   -6.9026   -5.2122    0.0000 C   0  0  0  0  0  0  0  0  0  0  0  0
    3.8232   -1.1771    0.0000 C   0  0  0  0  0  0  0  0  0  0  0  0
   -4.3013   -3.7177    0.0000 C   0  0  0  0  0  0  0  0  0  0  0  0
   -5.6047   -5.9658    0.0000 C   0  0  0  0  0  0  0  0  0  0  0  0
    4.5732   -2.4762    0.0000 C   0  0  0  0  0  0  0  0  0  0  0  0
    0.8940   -5.2291    0.0000 C   0  0  0  0  0  0  0  0  0  0  0  0
   -0.4012   -2.9763    0.0000 C   0  0  0  0  0  0  0  0  0  0  0  0
   -0.4075   -5.9763    0.0000 C   0  0  0  0  0  0  0  0  0  0  0  0
   -1.7028   -3.7236    0.0000 C   0  0  0  0  0  0  0  0  0  0  0  0
    2.3548   -1.4937    0.0000 C   0  0  0  0  0  0  0  0  0  0  0  0
    0.8972   -3.7291    0.0000 C   0  0  0  0  0  0  0  0  0  0  0  0
   -4.3040   -5.2185    0.0000 C   0  0  0  0  0  0  0  0  0  0  0  0
   -1.7060   -5.2236    0.0000 C   0  0  0  0  0  0  0  0  0  0  0  0
    3.5698   -3.5982    0.0000 C   0  0  0  0  0  0  0  0  0  0  0  0
    2.1977   -2.9816    0.0000 N   0  0  0  0  0  0  0  0  0  0  0  0
    3.8816   -5.0654    0.0000 O   0  0  0  0  0  0  0  0  0  0  0  0
   -3.0065   -5.9710    0.0000 O   0  0  0  0  0  0  0  0  0  0  0  0
  2  1  2  0
  3  1  1  0
  5  2  1  0
  6  3  2  0
  7  4  1  0
 10  8  2  0
 11  9  1  0
 12  4  1  0
 13  8  1  0
 13  9  2  0
 14  5  2  0
 14  6  1  0
 15 10  1  0
 15 11  2  0
 16  7  1  0
 17 12  1  0
 17 13  1  0
 17 16  1  0
 18 16  2  0
 19 14  1  0
 19 15  1  0
M  END
>  <NAME>  (5186) 
N-(PARA-PHENOXYPHENYL)-2-PYRROLIDONE

>  <SYNONYMS>  (5186) 


>  <SPECTRUM TYPE>  (5186) 
MS1

>  <INSTRUMENT TYPE>  (5186) 
EI-B

>  <INSTRUMENT>  (5186) 
HITACHI RMU-6E

>  <ION MODE>  (5186) 
P

>  <INCHIKEY>  (5186) 
LVHLULNITPAAAG-UHFFFAOYSA-N

>  <FORMULA>  (5186) 
C16H15NO2

>  <EXACT MASS>  (5186) 
253.11027872

>  <MW>  (5186) 
253

>  <ID>  (5186) 
JP004152

>  <CONTRIBUTOR>  (5186) 
University of Tokyo Team, {Faculty of Engineering, University of Tokyo

>  <COMMENT>  (5186) 
SMILES=c(c3)ccc(c3)Oc(c2)ccc(c2)N(C1)C(=O)CC1
InChI=InChI=1S/C16H15NO2/c18-16-7-4-12-17(16)13-8-10-15(11-9-13)19-14-5-2-1-3-6-14/h1-3,5-6,8-11H,4,7,12H2
computed SMILES=O=C1N(C2=CC=C(OC=3C=CC=CC3)C=C2)CCC1
accession=JP004152
date=2016.01.19 (Created 2008.10.21, modified 2011.05.06)
author=MASS SPECTROSCOPY SOC. OF JAPAN (MSSJ)
license=CC BY-NC-SA
exact mass=253.11028
ionization energy=70 eV
ion type=[M]+*
computed spectral entropy=2.9276343749497404
computed normalized entropy=0.5782872925546415
SPLASH=splash10-0f6t-3950000000-53e0c764e4bc6837d2c3
submitter=submitter = University of Tokyo Team (Faculty of Engineering, University of Tokyo)
MoNA Rating=3.75

>  <NUM PEAKS>  (5186) 
158

>  <MASS SPECTRAL PEAKS>  (5186) 
25 0.2
26 0.6
27 2.5
28 0.56
29 1.8
30 0.5
31 0.6
32 0.1
36 0.5
37 0.1
38 1
39 0.46
40 0.6
41 7.2
42 1.1
43 0.23
44 0.4
45 0.3
50 1.5
51 0.68
52 1.9
53 1
54 0.2
55 0.31
56 1.3
57 2
58 0.2
61 0.02
62 0.4
63 2.6
64 2
65 0.5
66 0.8
67 0.9
68 0.3
69 0.34
70 0.9
71 0.9
73 0.3
74 0.05
75 0.8
76 2
77 11
78 0.25
79 0.8
80 0.8
81 0.2
82 0.01
83 0.9
84 0.5
85 0.5
86 0.02
87 0.2
88 0.4
89 0.6
90 0.12
91 2
92 1.9
93 1.7
94 0.05
95 0.5
96 0.4
97 0.8
98 0.06
99 1
100 0.1
101 0.2
102 0.06
103 1.1
104 2.4
105 6
106 0.12
107 0.5
108 0.6
109 0.3
112 0.07
113 0.4
114 0.4
115 4
116 0.09
117 1.1
118 0.5
119 0.4
120 0.46
121 1.3
122 0.4
125 0.4
126 0.04
127 0.7
128 1.4
129 0.5
130 0.21
131 0.9
132 1
133 0.3
134 0.04
135 0.6
136 0.2
137 0.2
138 0.02
139 1.3
140 0.7
150 0.5
151 0.04
152 0.5
153 1.3
154 0.9
155 0.3
156 1
157 0.5
158 0.3
159 0.08
160 0.7
165 0.5
166 0.7
167 0.08
168 1.5
169 1.9
170 2.6
171 0.02
175 0.2
176 1.1
177 0.3
178 0.03
179 0.2
180 0.4
181 0.4
182 0.06
183 0.8
184 0.7
185 1.2
186 0.06
194 0.2
195 0.4
196 2
197 0.3
198 99.99
199 16.4
200 1.5
204 0.01
205 0.5
206 0.2
210 0.3
211 0.1
212 0.3
213 0.3
219 0.4
223 0.09
224 0.7
225 1
226 0.3
250 0.01
251 0.1
252 1.9
253 88
254 1.68
255 2
256 0.2

$$$$

     RDKit          2D

 16 16  0  0  0  0  0  0  0  0999 V2000
   -5.9137    4.8543    0.0000 C   0  0  0  0  0  0  0  0  0  0  0  0
   -4.6147    4.1043    0.0000 C   0  0  0  0  0  0  0  0  0  0  0  0
   -3.3156    4.8543    0.0000 C   0  0  0  0  0  0  0  0  0  0  0  0
   -2.0166    4.1043    0.0000 C   0  0  0  0  0  0  0  0  0  0  0  0
   -0.7176    4.8543    0.0000 C   0  0  0  0  0  0  0  0  0  0  0  0
    0.5815    4.1043    0.0000 C   0  0  0  0  0  0  0  0  0  0  0  0
    6.9528    7.1488    0.0000 C   0  0  0  0  0  0  0  0  0  0  0  0
    7.7028    5.8498    0.0000 C   0  0  0  0  0  0  0  0  0  0  0  0
    1.8805    4.8543    0.0000 C   0  0  0  0  0  0  0  0  0  0  0  0
    5.4696    7.3779    0.0000 C   0  0  0  0  0  0  0  0  0  0  0  0
    7.1596    4.4507    0.0000 C   0  0  0  0  0  0  0  0  0  0  0  0
    3.1796    4.1043    0.0000 C   0  0  0  0  0  0  0  0  0  0  0  0
    4.3665    6.3484    0.0000 C   0  0  0  0  0  0  0  0  0  0  0  0
    5.7165    4.0101    0.0000 C   0  0  0  0  0  0  0  0  0  0  0  0
    4.4786    4.8543    0.0000 N   0  0  0  0  0  0  0  0  0  0  0  0
    5.4907    2.5272    0.0000 O   0  0  0  0  0  0  0  0  0  0  0  0
  2  1  1  0
  3  2  1  0
  4  3  1  0
  5  4  1  0
  6  5  1  0
  8  7  1  0
  9  6  1  0
 10  7  1  0
 11  8  1  0
 12  9  1  0
 13 10  1  0
 14 11  1  0
 15 12  1  0
 15 13  1  0
 15 14  1  0
 16 14  2  0
M  END
>  <NAME>  (5187) 
N-OCTYL-EPSILON-CAPROLACTAM

>  <SYNONYMS>  (5187) 


>  <SPECTRUM TYPE>  (5187) 
MS1

>  <INSTRUMENT TYPE>  (5187) 
EI-B

>  <INSTRUMENT>  (5187) 
HITACHI RMU-6E

>  <ION MODE>  (5187) 
P

>  <INCHIKEY>  (5187) 
VKAMZEDHHWTTNZ-UHFFFAOYSA-N

>  <FORMULA>  (5187) 
C14H27NO

>  <EXACT MASS>  (5187) 
225.209264484

>  <MW>  (5187) 
225

>  <ID>  (5187) 
JP004151

>  <CONTRIBUTOR>  (5187) 
University of Tokyo Team, {Faculty of Engineering, University of Tokyo

>  <COMMENT>  (5187) 
SMILES=CCCCCCCCN(C1)C(=O)CCCC1
InChI=InChI=1S/C14H27NO/c1-2-3-4-5-6-9-12-15-13-10-7-8-11-14(15)16/h2-13H2,1H3
computed SMILES=O=C1N(CCCCC1)CCCCCCCC
accession=JP004151
date=2016.01.19 (Created 2008.10.21, modified 2011.05.06)
author=MASS SPECTROSCOPY SOC. OF JAPAN (MSSJ)
license=CC BY-NC-SA
exact mass=225.20926
ionization energy=70 eV
ion type=[M]+*
computed spectral entropy=3.325622200107987
computed normalized entropy=0.6922580415741377
SPLASH=splash10-004i-9800000000-3d12a7287a36a3650fc0
submitter=submitter = University of Tokyo Team (Faculty of Engineering, University of Tokyo)
MoNA Rating=3.75

>  <NUM PEAKS>  (5187) 
122

>  <MASS SPECTRAL PEAKS>  (5187) 
26 0.4
27 7.4
28 6.6
29 1.18
30 10.6
31 0.3
32 0.4
38 0.01
39 5.4
40 1.2
41 31.2
42 1.46
43 16.2
44 19.2
45 0.6
46 0.01
51 0.3
52 0.1
53 1.7
54 0.19
55 20
56 8
57 7.4
58 0.18
59 0.4
60 0.6
65 0.4
66 0.03
67 4.6
68 2
69 14
70 0.6
71 2.8
72 1.5
73 1.9
74 0.01
79 0.7
80 0.4
81 1.7
82 0.12
83 1.3
84 5.2
85 24.2
86 0.25
87 1.2
93 0.1
94 0.4
95 0.14
96 2.1
97 2.1
98 51.8
99 0.78
100 1.5
101 0.6
105 0.1
106 0.02
107 0.1
108 0.4
109 0.3
110 0.05
111 0.5
112 5.2
113 10.4
114 1.2
115 1.2
116 0.2
117 0.1
124 0.04
125 0.4
126 99.99
127 44
128 0.54
129 0.6
130 0.3
131 0.1
132 0.01
133 0.1
138 0.5
139 0.2
140 2.32
141 6.2
142 2.3
143 0.3
144 0.01
152 0.3
153 0.1
154 11.8
155 0.9
156 2
157 0.2
158 0.1
166 0.02
167 0.1
168 7.6
169 12
170 0.15
171 1.4
172 0.2
180 0.1
181 0.01
182 13.8
183 2.5
184 1
185 0.02
191 0.1
192 0.1
193 0.1
194 0.01
195 0.1
196 5.4
197 1.2
198 0.04
208 0.3
209 0.1
210 2
211 0.03
212 0.1
223 0.3
224 1.4
225 2.84
226 5.2
227 0.7

$$$$

     RDKit          2D

 14 14  0  0  0  0  0  0  0  0999 V2000
   -5.2642    3.7293    0.0000 C   0  0  0  0  0  0  0  0  0  0  0  0
   -3.9651    2.9793    0.0000 C   0  0  0  0  0  0  0  0  0  0  0  0
   -2.6661    3.7293    0.0000 C   0  0  0  0  0  0  0  0  0  0  0  0
   -1.3671    2.9793    0.0000 C   0  0  0  0  0  0  0  0  0  0  0  0
    5.0043    6.0238    0.0000 C   0  0  0  0  0  0  0  0  0  0  0  0
    5.7543    4.7248    0.0000 C   0  0  0  0  0  0  0  0  0  0  0  0
   -0.0680    3.7293    0.0000 C   0  0  0  0  0  0  0  0  0  0  0  0
    3.5210    6.2529    0.0000 C   0  0  0  0  0  0  0  0  0  0  0  0
    5.2110    3.3257    0.0000 C   0  0  0  0  0  0  0  0  0  0  0  0
    1.2310    2.9793    0.0000 C   0  0  0  0  0  0  0  0  0  0  0  0
    2.4180    5.2234    0.0000 C   0  0  0  0  0  0  0  0  0  0  0  0
    3.7680    2.8851    0.0000 C   0  0  0  0  0  0  0  0  0  0  0  0
    2.5300    3.7293    0.0000 N   0  0  0  0  0  0  0  0  0  0  0  0
    3.5422    1.4022    0.0000 O   0  0  0  0  0  0  0  0  0  0  0  0
  2  1  1  0
  3  2  1  0
  4  3  1  0
  6  5  1  0
  7  4  1  0
  8  5  1  0
  9  6  1  0
 10  7  1  0
 11  8  1  0
 12  9  1  0
 13 10  1  0
 13 11  1  0
 13 12  1  0
 14 12  2  0
M  END
>  <NAME>  (5188) 
N-HEXYL-EPSILON-CAPROLACTAM

>  <SYNONYMS>  (5188) 


>  <SPECTRUM TYPE>  (5188) 
MS1

>  <INSTRUMENT TYPE>  (5188) 
EI-B

>  <INSTRUMENT>  (5188) 
HITACHI RMU-6E

>  <ION MODE>  (5188) 
P

>  <INCHIKEY>  (5188) 
JDQRYRLJZGMNIB-UHFFFAOYSA-N

>  <FORMULA>  (5188) 
C12H23NO

>  <EXACT MASS>  (5188) 
197.177964356

>  <MW>  (5188) 
197

>  <ID>  (5188) 
JP004150

>  <CONTRIBUTOR>  (5188) 
University of Tokyo Team, {Faculty of Engineering, University of Tokyo

>  <COMMENT>  (5188) 
SMILES=CCCCCCN(C1)C(=O)CCCC1
InChI=InChI=1S/C12H23NO/c1-2-3-4-7-10-13-11-8-5-6-9-12(13)14/h2-11H2,1H3
computed SMILES=O=C1N(CCCCC1)CCCCCC
accession=JP004150
date=2016.01.19 (Created 2008.10.21, modified 2011.05.06)
author=MASS SPECTROSCOPY SOC. OF JAPAN (MSSJ)
license=CC BY-NC-SA
exact mass=197.17796
ionization energy=70 eV
ion type=[M]+*
computed spectral entropy=3.485644667922563
computed normalized entropy=0.7003880151778467
SPLASH=splash10-004l-8900000000-1c8aca286b9103872ae3
submitter=submitter = University of Tokyo Team (Faculty of Engineering, University of Tokyo)
MoNA Rating=3.75

>  <NUM PEAKS>  (5188) 
145

>  <MASS SPECTRAL PEAKS>  (5188) 
26 1
27 14
28 15
29 1.42
30 17
31 0.6
32 0.6
33 0.01
37 0.2
38 0.4
39 9
40 0.2
41 41
42 22
43 22
44 2.7
45 0.8
46 0.1
50 0.2
51 0.06
52 0.4
53 3.1
54 2.9
55 3.02
56 16
57 9
58 2.3
59 0.04
60 0.4
64 0.2
65 0.6
66 0.04
67 6.2
68 2.9
69 13
70 0.82
71 3.1
72 1.1
73 0.4
74 0.02
75 0.5
76 0.4
77 0.6
78 0.04
79 1.4
80 0.6
81 3.2
82 0.19
83 2.8
84 9
85 33
86 0.2
87 0.3
88 0.1
89 0.1
90 0.01
91 1.3
92 0.4
93 0.4
94 0.06
95 2.4
96 2.7
97 2.6
98 6.2
99 9.4
100 1.3
101 0.4
102 0.01
103 0.4
104 0.4
105 0.4
106 0.06
107 0.2
108 0.5
109 0.8
110 0.09
111 0.9
112 8
113 15
114 1.1
115 0.8
116 0.2
117 0.3
118 0.01
121 0.2
122 0.3
123 0.5
124 0.05
125 0.8
126 99.99
127 38.4
128 0.38
129 0.4
132 0.2
133 0.2
134 0.02
135 0.2
136 0.3
137 0.4
138 0.09
139 0.4
140 26
141 8
142 0.1
143 0.1
144 0.1
145 0.1
149 0.03
150 0.3
151 0.3
152 0.4
153 0.02
154 19.4
155 7.8
156 1
157 0.01
160 0.1
161 0.3
162 0.4
163 0.03
164 0.1
165 0.1
166 0.5
167 0.05
168 6
169 4
170 0.6
171 0.01
178 0.1
179 0.1
180 0.6
181 0.02
182 4
183 0.6
184 0.2
191 0.01
192 0.1
193 0.4
194 0.3
195 0.03
196 1.6
197 31
198 6.8
199 0.07
200 0.1

$$$$

     RDKit          2D

 18 18  0  0  0  0  0  0  0  0999 V2000
   -6.5632    5.9793    0.0000 C   0  0  0  0  0  0  0  0  0  0  0  0
   -5.2642    5.2293    0.0000 C   0  0  0  0  0  0  0  0  0  0  0  0
   -3.9651    5.9793    0.0000 C   0  0  0  0  0  0  0  0  0  0  0  0
   -2.6661    5.2293    0.0000 C   0  0  0  0  0  0  0  0  0  0  0  0
   -1.3671    5.9793    0.0000 C   0  0  0  0  0  0  0  0  0  0  0  0
   -0.0680    5.2293    0.0000 C   0  0  0  0  0  0  0  0  0  0  0  0
    1.2310    5.9793    0.0000 C   0  0  0  0  0  0  0  0  0  0  0  0
    2.5300    5.2293    0.0000 C   0  0  0  0  0  0  0  0  0  0  0  0
    8.9014    8.2738    0.0000 C   0  0  0  0  0  0  0  0  0  0  0  0
    9.6514    6.9748    0.0000 C   0  0  0  0  0  0  0  0  0  0  0  0
    3.8291    5.9793    0.0000 C   0  0  0  0  0  0  0  0  0  0  0  0
    7.4181    8.5029    0.0000 C   0  0  0  0  0  0  0  0  0  0  0  0
    9.1081    5.5757    0.0000 C   0  0  0  0  0  0  0  0  0  0  0  0
    5.1281    5.2293    0.0000 C   0  0  0  0  0  0  0  0  0  0  0  0
    6.3151    7.4734    0.0000 C   0  0  0  0  0  0  0  0  0  0  0  0
    7.6651    5.1351    0.0000 C   0  0  0  0  0  0  0  0  0  0  0  0
    6.4272    5.9793    0.0000 N   0  0  0  0  0  0  0  0  0  0  0  0
    7.4393    3.6522    0.0000 O   0  0  0  0  0  0  0  0  0  0  0  0
  2  1  1  0
  3  2  1  0
  4  3  1  0
  5  4  1  0
  6  5  1  0
  7  6  1  0
  8  7  1  0
 10  9  1  0
 11  8  1  0
 12  9  1  0
 13 10  1  0
 14 11  1  0
 15 12  1  0
 16 13  1  0
 17 14  1  0
 17 15  1  0
 17 16  1  0
 18 16  2  0
M  END
>  <NAME>  (5189) 
N-DECYL-EPSILON-CAPROLACTAM

>  <SYNONYMS>  (5189) 


>  <SPECTRUM TYPE>  (5189) 
MS1

>  <INSTRUMENT TYPE>  (5189) 
EI-B

>  <INSTRUMENT>  (5189) 
HITACHI RMU-6E

>  <ION MODE>  (5189) 
P

>  <INCHIKEY>  (5189) 
PCEPYENXHJPCEF-UHFFFAOYSA-N

>  <FORMULA>  (5189) 
C16H31NO

>  <EXACT MASS>  (5189) 
253.24056461200001

>  <MW>  (5189) 
253

>  <ID>  (5189) 
JP004149

>  <CONTRIBUTOR>  (5189) 
University of Tokyo Team, {Faculty of Engineering, University of Tokyo

>  <COMMENT>  (5189) 
SMILES=CCCCCCCCCCN(C1)C(=O)CCCC1
InChI=InChI=1S/C16H31NO/c1-2-3-4-5-6-7-8-11-14-17-15-12-9-10-13-16(17)18/h2-15H2,1H3
computed SMILES=O=C1N(CCCCC1)CCCCCCCCCC
accession=JP004149
date=2016.01.19 (Created 2008.10.21, modified 2011.05.06)
author=MASS SPECTROSCOPY SOC. OF JAPAN (MSSJ)
license=CC BY-NC-SA
exact mass=253.24056
ionization energy=70 eV
ion type=[M]+*
computed spectral entropy=3.5097772521834134
computed normalized entropy=0.6915580391844587
SPLASH=splash10-004i-8910000000-59191125089f98e83acc
submitter=submitter = University of Tokyo Team (Faculty of Engineering, University of Tokyo)
MoNA Rating=3.75

>  <NUM PEAKS>  (5189) 
160

>  <MASS SPECTRAL PEAKS>  (5189) 
25 0.1
26 0.6
27 7.2
28 0.78
29 14
30 10.2
31 0.3
32 0.07
38 0.3
39 4.4
40 1.6
41 3.6
42 15.4
43 21
44 18
45 0.08
46 0.1
52 0.3
53 2.5
54 0.22
55 22
56 11
57 8.4
58 0.2
59 0.3
60 0.4
65 0.5
66 0.03
67 4.8
68 2.7
69 14
70 0.62
71 3.1
72 1.2
73 1.3
74 0.01
78 0.3
79 1.4
80 0.6
81 0.3
82 1.9
83 2.3
84 5.4
85 2.4
86 2.3
87 0.6
91 0.5
92 0.01
93 0.5
94 0.7
95 1.9
96 0.38
97 3
98 50.2
99 8
100 0.14
101 0.4
104 0.1
105 0.4
106 0.03
107 0.4
108 0.5
109 0.5
110 0.08
111 0.8
112 5.6
113 10
114 1.3
115 1.2
116 0.4
117 0.1
118 0.02
119 0.1
120 0.4
121 0.3
122 0.03
123 0.3
124 0.7
125 0.7
126 99.99
127 53.4
128 4.7
129 0.6
130 0.02
131 0.2
132 0.4
133 0.4
134 0.02
135 0.2
136 0.3
137 0.2
138 0.07
139 0.4
140 24.2
141 6.6
142 0.1
143 0.3
148 0.1
149 0.3
150 0.02
151 0.2
152 0.5
153 0.3
154 1.38
155 11.4
156 2
157 0.3
158 0.01
165 0.2
166 0.5
167 0.2
168 0.88
169 18
170 3.8
171 0.4
172 0.01
179 0.1
180 0.2
181 0.1
182 0.76
183 2.4
184 1.2
185 0.3
186 0.01
194 0.3
195 0.1
196 6.4
197 0.29
198 0.7
199 1
200 0.3
201 0.01
205 0.1
206 0.2
207 0.4
208 0.06
209 0.1
210 15.6
211 1.1
212 0.03
213 0.1
222 0.1
223 0.1
224 0.45
225 1.2
226 0.3
235 0.1
236 0.06
237 0.2
238 1.8
239 0.4
240 0.02
241 0.2
250 0.1
251 0.3
252 0.24
253 27.8
254 6
255 0.9
256 0.1

$$$$

     RDKit          2D

 18 19  0  0  0  0  0  0  0  0999 V2000
   -1.3000    0.7500    0.0000 C   0  0  0  0  0  0  0  0  0  0  0  0
    0.0000   -1.5000    0.0000 C   0  0  0  0  0  0  0  0  0  0  0  0
    7.7962   -1.5008    0.0000 C   0  0  0  0  0  0  0  0  0  0  0  0
    9.0947    0.7500    0.0000 C   0  0  0  0  0  0  0  0  0  0  0  0
    0.0000    1.5000    0.0000 C   0  0  0  0  0  0  0  0  0  0  0  0
    1.3000   -0.7500    0.0000 C   0  0  0  0  0  0  0  0  0  0  0  0
    6.4966   -0.7500    0.0000 C   0  0  0  0  0  0  0  0  0  0  0  0
    7.7952    1.5008    0.0000 C   0  0  0  0  0  0  0  0  0  0  0  0
   -1.3000   -0.7500    0.0000 C   0  0  0  0  0  0  0  0  0  0  0  0
    9.0952   -0.7508    0.0000 C   0  0  0  0  0  0  0  0  0  0  0  0
    1.3000    0.7500    0.0000 C   0  0  0  0  0  0  0  0  0  0  0  0
    6.4962    0.7508    0.0000 C   0  0  0  0  0  0  0  0  0  0  0  0
    3.8981    0.7504    0.0000 C   0  0  0  0  0  0  0  0  0  0  0  0
   -2.5989   -1.5002    0.0000 Cl  0  0  0  0  0  0  0  0  0  0  0  0
   10.3943   -1.5006    0.0000 Cl  0  0  0  0  0  0  0  0  0  0  0  0
    2.5989    1.5002    0.0000 N   0  0  0  0  0  0  0  0  0  0  0  0
    5.1970    1.5006    0.0000 N   0  0  0  0  0  0  0  0  0  0  0  0
    3.8983   -0.7496    0.0000 O   0  0  0  0  0  0  0  0  0  0  0  0
  5  1  2  0
  6  2  1  0
  7  3  2  0
  8  4  1  0
  9  1  1  0
  9  2  2  0
 10  3  1  0
 10  4  2  0
 11  5  1  0
 11  6  2  0
 12  7  1  0
 12  8  2  0
 14  9  1  0
 15 10  1  0
 16 11  1  0
 16 13  1  0
 17 12  1  0
 17 13  1  0
 18 13  2  0
M  END
>  <NAME>  (5190) 
N,N'-DI(PARA-CHLOROPHENYL)UREA

>  <SYNONYMS>  (5190) 


>  <SPECTRUM TYPE>  (5190) 
MS1

>  <INSTRUMENT TYPE>  (5190) 
EI-B

>  <INSTRUMENT>  (5190) 
HITACHI RMU-6E

>  <ION MODE>  (5190) 
P

>  <INCHIKEY>  (5190) 
ZNQCSLYENQIUMJ-UHFFFAOYSA-N

>  <FORMULA>  (5190) 
C13H10Cl2N2O

>  <EXACT MASS>  (5190) 
280.0170183

>  <MW>  (5190) 
280

>  <ID>  (5190) 
JP004148

>  <CONTRIBUTOR>  (5190) 
University of Tokyo Team, {Faculty of Engineering, University of Tokyo

>  <COMMENT>  (5190) 
SMILES=O=C(Nc(c2)ccc(Cl)c2)Nc(c1)ccc(Cl)c1
InChI=InChI=1S/C13H10Cl2N2O/c14-9-1-5-11(6-2-9)16-13(18)17-12-7-3-10(15)4-8-12/h1-8H,(H2,16,17,18)
computed SMILES=O=C(NC1=CC=C(Cl)C=C1)NC2=CC=C(Cl)C=C2
accession=JP004148
date=2016.01.19 (Created 2008.10.21, modified 2011.05.06)
author=MASS SPECTROSCOPY SOC. OF JAPAN (MSSJ)
license=CC BY-NC-SA
exact mass=280.01702
ionization energy=70 eV
ion type=[M]+*
computed spectral entropy=2.8710625485315995
computed normalized entropy=0.62077392980237
SPLASH=splash10-004i-4900000000-4e8e842bcb63f0b75c7b
submitter=submitter = University of Tokyo Team (Faculty of Engineering, University of Tokyo)
MoNA Rating=3.75

>  <NUM PEAKS>  (5190) 
102

>  <MASS SPECTRAL PEAKS>  (5190) 
25 0.1
26 0.5
27 1
28 0.18
29 0.8
30 0.1
31 0.6
35 0.02
36 0.4
37 1.7
38 3
39 0.52
40 1
41 1.5
42 0.6
43 0.03
44 0.3
45 0.5
46 0.2
47 0.04
48 0.2
49 1
50 2.7
51 0.23
52 1.8
53 0.2
54 0.5
55 0.01
60 0.3
61 1.4
62 2.8
63 0.88
64 5
65 9
66 1.2
67 0.08
71 0.1
72 0.6
73 4.6
74 0.14
75 6
76 1.2
77 0.5
78 0.04
79 0.1
84 0.3
85 0.6
86 0.03
87 0.6
88 0.7
89 2
90 0.74
91 4.4
92 8.2
93 0.5
97 0.04
98 0.7
99 9.2
100 4.4
101 0.41
102 1.3
103 0.2
106 0.2
107 0.04
108 0.3
109 0.1
110 0.3
111 0.41
112 0.4
113 1.5
114 0.1
124 0.03
125 7.2
126 8.6
127 99.99
128 1
129 33
130 2.8
131 0.2
140 0.1
141 0.4
142 0.3
152 0.1
153 1.42
154 2.4
155 5
156 0.6
199 0.06
200 0.1
201 0.3
202 0.1
244 0.07
245 0.2
246 0.2
279 0.2
280 1.32
281 2.3
282 9
283 1.5
284 0.18
285 0.3
286 0.1

$$$$

     RDKit          2D

 13 13  0  0  0  0  0  0  0  0999 V2000
    7.7951    1.5010    0.0000 C   0  0  0  0  0  0  0  0  0  0  0  0
    6.4962    0.7508    0.0000 C   0  0  0  0  0  0  0  0  0  0  0  0
   -1.3000    0.7500    0.0000 C   0  0  0  0  0  0  0  0  0  0  0  0
   -0.0000   -1.5000    0.0000 C   0  0  0  0  0  0  0  0  0  0  0  0
    0.0000    1.5000    0.0000 C   0  0  0  0  0  0  0  0  0  0  0  0
    1.3000   -0.7500    0.0000 C   0  0  0  0  0  0  0  0  0  0  0  0
   -1.3000   -0.7500    0.0000 C   0  0  0  0  0  0  0  0  0  0  0  0
    1.3000    0.7500    0.0000 C   0  0  0  0  0  0  0  0  0  0  0  0
    3.8981    0.7504    0.0000 C   0  0  0  0  0  0  0  0  0  0  0  0
   -2.5989   -1.5002    0.0000 Cl  0  0  0  0  0  0  0  0  0  0  0  0
    2.5989    1.5002    0.0000 N   0  0  0  0  0  0  0  0  0  0  0  0
    3.8983   -0.7496    0.0000 O   0  0  0  0  0  0  0  0  0  0  0  0
    5.1970    1.5006    0.0000 O   0  0  0  0  0  0  0  0  0  0  0  0
  2  1  1  0
  5  3  2  0
  6  4  1  0
  7  3  1  0
  7  4  2  0
  8  5  1  0
  8  6  2  0
 10  7  1  0
 11  8  1  0
 11  9  1  0
 12  9  2  0
 13  2  1  0
 13  9  1  0
M  END
>  <NAME>  (5191) 
ETHYL N-(PARA-CHLOROPHENYL)CARBAMATE

>  <SYNONYMS>  (5191) 


>  <SPECTRUM TYPE>  (5191) 
MS1

>  <INSTRUMENT TYPE>  (5191) 
EI-B

>  <INSTRUMENT>  (5191) 
HITACHI RMU-6E

>  <ION MODE>  (5191) 
P

>  <INCHIKEY>  (5191) 
WSKXXIMERYQVGJ-UHFFFAOYSA-N

>  <FORMULA>  (5191) 
C9H10ClNO2

>  <EXACT MASS>  (5191) 
199.04000624

>  <MW>  (5191) 
199

>  <ID>  (5191) 
JP004147

>  <CONTRIBUTOR>  (5191) 
University of Tokyo Team, {Faculty of Engineering, University of Tokyo

>  <COMMENT>  (5191) 
SMILES=CCOC(=O)Nc(c1)ccc(Cl)c1
InChI=InChI=1S/C9H10ClNO2/c1-2-13-9(12)11-8-5-3-7(10)4-6-8/h3-6H,2H2,1H3,(H,11,12)
computed SMILES=O=C(OCC)NC1=CC=C(Cl)C=C1
accession=JP004147
date=2016.01.19 (Created 2008.10.21, modified 2011.05.06)
author=MASS SPECTROSCOPY SOC. OF JAPAN (MSSJ)
license=CC BY-NC-SA
exact mass=199.04001
ionization energy=70 eV
ion type=[M]+*
computed spectral entropy=3.37558780378166
computed normalized entropy=0.6891993086044774
SPLASH=splash10-004i-6900000000-6edfa30f70c0d204f455
submitter=submitter = University of Tokyo Team (Faculty of Engineering, University of Tokyo)
MoNA Rating=3.75

>  <NUM PEAKS>  (5191) 
134

>  <MASS SPECTRAL PEAKS>  (5191) 
25 0.3
26 3.6
27 26.2
28 0.56
29 85.2
30 3
31 2.9
35 0.03
36 0.7
37 2.7
38 5.4
39 0.8
40 1.6
41 2
42 1.1
43 0.21
44 1.6
45 6.4
46 0.6
47 0.05
48 0.2
49 1.5
50 4.8
51 0.32
52 3
53 0.6
54 0.4
55 0.02
56 0.1
57 0.1
60 0.3
61 0.22
62 5.4
63 20
64 9
65 1.06
66 1.5
67 0.5
71 0.1
72 0.1
73 10.2
74 2.8
75 8.8
76 0.23
77 3.4
78 1.2
79 0.7
80 0.04
81 0.3
84 0.4
85 0.8
86 0.05
87 0.6
88 1.2
89 2.3
90 1.14
91 9.6
92 8.2
93 2.5
94 0.03
95 0.2
96 0.1
97 0.5
98 0.15
99 25
100 8
101 8.4
102 0.27
103 0.4
104 1.8
105 1.7
106 0.07
107 0.3
108 0.3
109 0.1
110 0.03
111 4.8
112 1.3
113 2.7
114 0.08
115 0.4
116 0.3
117 0.2
118 0.08
119 1
120 2.2
121 0.3
122 0.01
123 0.1
124 0.5
125 9
126 2.48
127 99.99
128 14.4
129 32
130 0.25
131 0.1
135 0.1
136 0.4
137 0.09
138 0.7
139 0.6
140 56.6
141 0.52
142 18.4
143 1.7
144 0.1
152 0.01
153 11
154 7.6
155 4.2
156 0.27
157 0.3
164 0.4
165 0.1
166 0.02
170 1
171 7.2
172 2
173 0.24
174 0.5
179 0.3
180 0.1
181 0.01
182 0.4
183 0.1
184 0.3
198 0.04
199 66.6
200 12.8
201 22.8
202 0.4
203 0.4
204 0.1

$$$$

     RDKit          2D

 14 14  0  0  0  0  0  0  0  0999 V2000
   -6.1355    2.7946    0.0000 C   0  0  0  0  0  0  0  0  0  0  0  0
   -4.8364    2.0446    0.0000 C   0  0  0  0  0  0  0  0  0  0  0  0
    0.3592    0.5438    0.0000 C   0  0  0  0  0  0  0  0  0  0  0  0
    1.6583   -0.2062    0.0000 C   0  0  0  0  0  0  0  0  0  0  0  0
    1.6592    2.7955    0.0000 C   0  0  0  0  0  0  0  0  0  0  0  0
    0.3597    2.0446    0.0000 C   0  0  0  0  0  0  0  0  0  0  0  0
    2.9578    0.5446    0.0000 C   0  0  0  0  0  0  0  0  0  0  0  0
    2.9583    2.0455    0.0000 C   0  0  0  0  0  0  0  0  0  0  0  0
   -2.2383    2.0446    0.0000 C   0  0  0  0  0  0  0  0  0  0  0  0
    4.2568   -0.2054    0.0000 Cl  0  0  0  0  0  0  0  0  0  0  0  0
    4.2574    2.7953    0.0000 Cl  0  0  0  0  0  0  0  0  0  0  0  0
   -0.9393    2.7946    0.0000 N   0  0  0  0  0  0  0  0  0  0  0  0
   -2.2383    0.5446    0.0000 O   0  0  0  0  0  0  0  0  0  0  0  0
   -3.5374    2.7946    0.0000 O   0  0  0  0  0  0  0  0  0  0  0  0
  2  1  1  0
  4  3  2  0
  6  3  1  0
  6  5  2  0
  7  4  1  0
  8  5  1  0
  8  7  2  0
 10  7  1  0
 11  8  1  0
 12  6  1  0
 12  9  2  3
 13  9  1  0
 14  2  1  0
 14  9  1  0
M  END
>  <NAME>  (5192) 
ETHYL N-(3,4-DICHLOROPHENYL)CARBAMATE

>  <SYNONYMS>  (5192) 


>  <SPECTRUM TYPE>  (5192) 
MS1

>  <INSTRUMENT TYPE>  (5192) 
EI-B

>  <INSTRUMENT>  (5192) 
HITACHI RMU-6E

>  <ION MODE>  (5192) 
P

>  <INCHIKEY>  (5192) 
AOVLXBXJFYNQAZ-UHFFFAOYSA-N

>  <FORMULA>  (5192) 
C9H9Cl2NO2

>  <EXACT MASS>  (5192) 
233.001033888

>  <MW>  (5192) 
233

>  <ID>  (5192) 
JP004146

>  <CONTRIBUTOR>  (5192) 
University of Tokyo Team, {Faculty of Engineering, University of Tokyo

>  <COMMENT>  (5192) 
SMILES=CCOC(=O)Nc(c1)cc(Cl)c(Cl)c1
InChI=InChI=1S/C9H9Cl2NO2/c1-2-14-9(13)12-6-3-4-7(10)8(11)5-6/h3-5H,2H2,1H3,(H,12,13)
computed SMILES=ClC1=CC=C(N=C(O)OCC)C=C1Cl
accession=JP004146
date=2016.01.19 (Created 2008.10.21, modified 2011.05.06)
author=MASS SPECTROSCOPY SOC. OF JAPAN (MSSJ)
license=CC BY-NC-SA
exact mass=233.00103
ionization energy=70 eV
ion type=[M]+*
computed spectral entropy=3.6708093358827365
computed normalized entropy=0.7241820301663789
SPLASH=splash10-01u0-5920000000-db710f33f70283240a48
submitter=submitter = University of Tokyo Team (Faculty of Engineering, University of Tokyo)
MoNA Rating=3.75

>  <NUM PEAKS>  (5192) 
159

>  <MASS SPECTRAL PEAKS>  (5192) 
24 0.2
25 0.3
26 3.6
27 2.6
28 4.6
29 99.99
30 3.6
31 0.62
32 0.1
35 0.6
36 1.1
37 0.35
38 4.5
39 3.5
40 1.1
41 0.15
42 0.9
43 2.3
44 1.1
45 0.78
46 1.3
47 1
48 0.6
49 0.27
50 3
51 2.4
52 2.8
53 0.05
54 0.2
55 0.2
56 0.1
58 0.02
60 0.8
61 5.3
62 11.4
63 1.68
64 4.5
65 2.1
66 0.3
67 0.03
70 0.3
71 0.7
72 3.9
73 1.1
74 5.7
75 6.5
76 1.4
77 0.08
78 1.5
79 0.1
83 1.6
84 0.16
85 2.2
86 1.2
87 1.8
88 0.56
89 4.4
90 11.4
91 4.1
92 0.06
96 0.7
97 6.8
98 3.6
99 0.94
100 1.8
101 2.6
102 0.6
103 0.01
104 0.9
107 2.2
108 0.5
109 0.6
110 1.6
111 2.7
112 1.3
113 0.07
114 0.5
115 0.2
116 0.3
117 0.03
118 0.8
119 0.7
120 0.2
121 0.01
122 0.2
123 0.5
124 17
125 1.44
126 12
127 6.5
128 1.9
129 0.07
132 0.4
133 16
134 4.2
135 1.02
136 2.8
137 1.5
138 1.1
139 0.22
140 0.5
141 0.8
142 0.4
143 0.01
144 0.2
145 2.6
146 1.1
147 0.24
148 0.8
149 1
150 0.3
151 0.02
152 0.5
153 0.9
154 2.3
155 0.06
156 0.6
157 0.1
158 0.4
159 0.63
160 19
161 83.6
162 18
163 5.1
164 6.5
165 8.6
166 0.7
169 0.08
170 1.1
171 0.5
172 0.6
173 0.04
174 47.8
175 4.4
176 31.4
177 0.29
178 5.7
179 0.4
187 15.2
188 0.57
189 11
190 3.4
191 2
192 0.06
198 0.8
199 0.2
200 0.4
204 0.09
205 4
206 1.6
207 2.9
208 0.05
209 0.4
233 59
234 7
235 3.6
236 4.4
237 5.9
238 0.7

$$$$

     RDKit          2D

 20 21  0  0  0  0  0  0  0  0999 V2000
  -10.4764   -6.8943    0.0000 C   0  0  0  0  0  0  0  0  0  0  0  0
   -9.1789   -7.6469    0.0000 C   0  0  0  0  0  0  0  0  0  0  0  0
   -7.8784   -6.8994    0.0000 C   0  0  0  0  0  0  0  0  0  0  0  0
   -6.5808   -7.6519    0.0000 C   0  0  0  0  0  0  0  0  0  0  0  0
   -5.2803   -6.9045    0.0000 C   0  0  0  0  0  0  0  0  0  0  0  0
   -3.9827   -7.6570    0.0000 C   0  0  0  0  0  0  0  0  0  0  0  0
   -2.6822   -6.9095    0.0000 C   0  0  0  0  0  0  0  0  0  0  0  0
    5.4436   -2.8657    0.0000 C   0  0  0  0  0  0  0  0  0  0  0  0
   -1.3846   -7.6621    0.0000 C   0  0  0  0  0  0  0  0  0  0  0  0
    6.1936   -4.1647    0.0000 C   0  0  0  0  0  0  0  0  0  0  0  0
    1.2136   -7.6670    0.0000 C   0  0  0  0  0  0  0  0  0  0  0  0
   -0.0810   -5.4138    0.0000 C   0  0  0  0  0  0  0  0  0  0  0  0
    2.5144   -6.9185    0.0000 C   0  0  0  0  0  0  0  0  0  0  0  0
    1.2199   -4.6653    0.0000 C   0  0  0  0  0  0  0  0  0  0  0  0
    3.9752   -3.1823    0.0000 C   0  0  0  0  0  0  0  0  0  0  0  0
   -0.0841   -6.9146    0.0000 C   0  0  0  0  0  0  0  0  0  0  0  0
    2.5176   -5.4176    0.0000 C   0  0  0  0  0  0  0  0  0  0  0  0
    5.1902   -5.2867    0.0000 C   0  0  0  0  0  0  0  0  0  0  0  0
    3.8181   -4.6702    0.0000 N   0  0  0  0  0  0  0  0  0  0  0  0
    5.5020   -6.7540    0.0000 O   0  0  0  0  0  0  0  0  0  0  0  0
  2  1  1  0
  3  2  1  0
  4  3  1  0
  5  4  1  0
  6  5  1  0
  7  6  1  0
  9  7  1  0
 10  8  1  0
 13 11  2  0
 14 12  1  0
 15  8  1  0
 16  9  1  0
 16 11  1  0
 16 12  2  0
 17 13  1  0
 17 14  2  0
 18 10  1  0
 19 15  1  0
 19 17  1  0
 19 18  1  0
 20 18  2  0
M  END
>  <NAME>  (5193) 
N-PARA-OCTYLPHENYL-2-PYRROLIDONE

>  <SYNONYMS>  (5193) 


>  <SPECTRUM TYPE>  (5193) 
MS1

>  <INSTRUMENT TYPE>  (5193) 
EI-B

>  <INSTRUMENT>  (5193) 
HITACHI RMU-6E

>  <ION MODE>  (5193) 
P

>  <INCHIKEY>  (5193) 
WMYDRTMKLYXZES-UHFFFAOYSA-N

>  <FORMULA>  (5193) 
C18H27NO

>  <EXACT MASS>  (5193) 
273.209264484

>  <MW>  (5193) 
273

>  <ID>  (5193) 
JP004145

>  <CONTRIBUTOR>  (5193) 
University of Tokyo Team, {Faculty of Engineering, University of Tokyo

>  <COMMENT>  (5193) 
SMILES=CCCCCCCCc(c2)ccc(c2)N(C1)C(=O)CC1
InChI=InChI=1S/C18H27NO/c1-2-3-4-5-6-7-9-16-11-13-17(14-12-16)19-15-8-10-18(19)20/h11-14H,2-10,15H2,1H3
computed SMILES=O=C1N(C2=CC=C(C=C2)CCCCCCCC)CCC1
accession=JP004145
date=2016.01.19 (Created 2008.10.21, modified 2011.05.06)
author=MASS SPECTROSCOPY SOC. OF JAPAN (MSSJ)
license=CC BY-NC-SA
exact mass=273.20926
ionization energy=70 eV
ion type=[M]+*
computed spectral entropy=2.8908835976176253
computed normalized entropy=0.6081474172986697
SPLASH=splash10-00di-2920000000-2c871321c19cb9666418
submitter=submitter = University of Tokyo Team (Faculty of Engineering, University of Tokyo)
MoNA Rating=3.75

>  <NUM PEAKS>  (5193) 
116

>  <MASS SPECTRAL PEAKS>  (5193) 
26 0.3
27 3.6
28 1.6
29 0.52
30 0.3
40 2.8
41 11.8
42 0.05
43 5.2
44 1.3
45 0.2
50 0.02
51 1
52 0.4
53 0.6
54 0.02
55 2.1
56 0.3
57 1.6
58 0.01
62 0.1
63 0.6
64 0.4
65 0.15
66 0.3
67 0.3
68 0.2
69 0.76
70 0.4
71 0.2
75 0.2
76 0.04
77 3.2
78 1.6
79 0.8
80 0.02
86 0.1
87 0.1
88 0.1
89 0.19
90 4.4
91 4.6
92 1
93 0.03
94 0.2
101 0.1
102 0.5
103 0.18
104 1.8
105 1.6
106 10.6
107 0.13
108 0.1
114 0.1
115 1.4
116 0.1
117 2.3
118 6.4
119 7.6
120 0.23
121 0.2
127 0.2
128 0.4
129 0.06
130 1.7
131 2.8
132 6.8
133 0.13
134 0.2
141 0.1
142 0.2
143 0.05
144 1.6
145 1.2
146 2.7
147 0.05
156 0.2
157 0.1
158 0.4
159 0.02
160 0.7
161 0.4
162 0.8
163 0.01
170 0.2
171 0.1
172 0.3
173 0.04
174 99.99
175 16
176 1.3
186 0.01
187 3
188 3.2
189 0.8
190 0.01
199 0.1
200 0.5
201 0.4
202 0.05
216 0.6
217 0.2
218 3.4
219 0.08
220 0.1
230 0.5
231 0.2
244 0.03
245 0.1
258 0.2
259 0.1
272 0.09
273 38.4
274 10.8
275 1.2
276 0.1

$$$$

     RDKit          2D

 18 18  0  0  0  0  0  0  0  0999 V2000
    6.4891   -6.9311    0.0000 C   0  0  0  0  0  0  0  0  0  0  0  0
    5.1915   -6.1786    0.0000 C   0  0  0  0  0  0  0  0  0  0  0  0
    3.8910   -6.9260    0.0000 C   0  0  0  0  0  0  0  0  0  0  0  0
    2.5935   -6.1735    0.0000 C   0  0  0  0  0  0  0  0  0  0  0  0
    1.2930   -6.9209    0.0000 C   0  0  0  0  0  0  0  0  0  0  0  0
   -0.0046   -6.1684    0.0000 C   0  0  0  0  0  0  0  0  0  0  0  0
   -1.3051   -6.9159    0.0000 C   0  0  0  0  0  0  0  0  0  0  0  0
   -2.6027   -6.1633    0.0000 C   0  0  0  0  0  0  0  0  0  0  0  0
   -3.9032   -6.9108    0.0000 C   0  0  0  0  0  0  0  0  0  0  0  0
   -5.2008   -6.1583    0.0000 C   0  0  0  0  0  0  0  0  0  0  0  0
   -6.5013   -6.9057    0.0000 C   0  0  0  0  0  0  0  0  0  0  0  0
  -10.7248   -8.7051    0.0000 C   0  0  0  0  0  0  0  0  0  0  0  0
  -11.4748   -7.4061    0.0000 C   0  0  0  0  0  0  0  0  0  0  0  0
   -7.7988   -6.1532    0.0000 C   0  0  0  0  0  0  0  0  0  0  0  0
   -9.2564   -8.3885    0.0000 C   0  0  0  0  0  0  0  0  0  0  0  0
  -10.4714   -6.2841    0.0000 C   0  0  0  0  0  0  0  0  0  0  0  0
   -9.0993   -6.9006    0.0000 N   0  0  0  0  0  0  0  0  0  0  0  0
  -10.7833   -4.8169    0.0000 O   0  0  0  0  0  0  0  0  0  0  0  0
  2  1  1  0
  3  2  1  0
  4  3  1  0
  5  4  1  0
  6  5  1  0
  7  6  1  0
  8  7  1  0
  9  8  1  0
 10  9  1  0
 11 10  1  0
 13 12  1  0
 14 11  1  0
 15 12  1  0
 16 13  1  0
 17 14  1  0
 17 15  1  0
 17 16  1  0
 18 16  2  0
M  END
>  <NAME>  (5194) 
N-DODECYL-2-PYRROLIDONE

>  <SYNONYMS>  (5194) 


>  <SPECTRUM TYPE>  (5194) 
MS1

>  <INSTRUMENT TYPE>  (5194) 
EI-B

>  <INSTRUMENT>  (5194) 
HITACHI RMU-6E

>  <ION MODE>  (5194) 
P

>  <INCHIKEY>  (5194) 
NJPQAIBZIHNJDO-UHFFFAOYSA-N

>  <FORMULA>  (5194) 
C16H31NO

>  <EXACT MASS>  (5194) 
253.24056461200001

>  <MW>  (5194) 
253

>  <ID>  (5194) 
JP004144

>  <CONTRIBUTOR>  (5194) 
University of Tokyo Team, {Faculty of Engineering, University of Tokyo

>  <COMMENT>  (5194) 
SMILES=CCCCCCCCCCCCN(C1)C(=O)CC1
InChI=InChI=1S/C16H31NO/c1-2-3-4-5-6-7-8-9-10-11-14-17-15-12-13-16(17)18/h2-15H2,1H3
computed SMILES=O=C1N(CCC1)CCCCCCCCCCCC
accession=JP004144
date=2016.01.19 (Created 2008.10.21, modified 2011.05.06)
author=MASS SPECTROSCOPY SOC. OF JAPAN (MSSJ)
license=CC BY-NC-SA
exact mass=253.24056
ionization energy=70 eV
ion type=[M]+*
computed spectral entropy=3.2209833453376504
computed normalized entropy=0.6751616589408094
SPLASH=splash10-0005-9200000000-2f06fba81fd1439d2c1e
submitter=submitter = University of Tokyo Team (Faculty of Engineering, University of Tokyo)
MoNA Rating=3.75

>  <NUM PEAKS>  (5194) 
118

>  <MASS SPECTRAL PEAKS>  (5194) 
25 0.3
26 1.9
27 10.6
28 1.6
29 19.8
30 74.4
31 1.8
32 0.26
37 0.4
38 0.6
39 6.8
40 0.26
41 40.4
42 20.1
43 28.8
44 1.3
45 5.4
46 0.2
50 0.1
51 0.02
52 0.1
53 2
54 2.5
55 2.18
56 12
57 7.4
58 1.4
59 0.14
60 0.2
65 0.4
66 0.2
67 0.21
68 3.5
69 11.8
70 19.8
71 0.28
72 3.4
73 0.6
77 0.3
78 0.01
79 0.5
80 0.6
81 0.8
82 0.11
83 2.6
84 3.6
85 2.3
86 1.5
87 1.2
88 0.1
93 0.1
94 0.01
95 0.3
96 1.2
97 2.2
98 99.99
99 77.4
100 6.9
101 0.7
110 0.06
111 1.4
112 22
113 17
114 0.2
115 0.2
122 0.1
123 0.1
124 0.14
125 0.6
126 16.4
127 7
128 0.11
129 0.1
138 0.3
139 0.2
140 1.12
141 3.7
142 1
143 0.1
152 0.02
153 0.1
154 16.4
155 3.7
156 0.08
157 0.1
166 0.2
167 0.1
168 0.68
169 2.1
170 0.4
182 5.3
183 0.17
184 0.7
185 1.4
186 0.6
187 0.01
194 0.2
195 0.1
196 5
197 0.16
198 0.6
208 0.1
209 0.1
210 0.47
211 1.4
212 0.3
223 0.2
224 0.33
225 0.8
226 0.1
236 0.7
237 0.02
238 1.2
239 0.3
251 0.2
252 0.2
253 16.4
254 0.6

$$$$

     RDKit          2D

 24 25  0  0  0  0  0  0  0  0999 V2000
   -4.9420   -8.6261    0.0000 C   0  0  0  0  0  0  0  0  0  0  0  0
   -3.6415   -7.8786    0.0000 C   0  0  0  0  0  0  0  0  0  0  0  0
   -6.2396   -7.8736    0.0000 C   0  0  0  0  0  0  0  0  0  0  0  0
   -2.3439   -8.6312    0.0000 C   0  0  0  0  0  0  0  0  0  0  0  0
   -7.5401   -8.6210    0.0000 C   0  0  0  0  0  0  0  0  0  0  0  0
   -1.0434   -7.8837    0.0000 C   0  0  0  0  0  0  0  0  0  0  0  0
   -8.8377   -7.8685    0.0000 C   0  0  0  0  0  0  0  0  0  0  0  0
    0.2541   -8.6363    0.0000 C   0  0  0  0  0  0  0  0  0  0  0  0
  -10.1382   -8.6159    0.0000 C   0  0  0  0  0  0  0  0  0  0  0  0
    1.5546   -7.8888    0.0000 C   0  0  0  0  0  0  0  0  0  0  0  0
  -14.3618  -10.4154    0.0000 C   0  0  0  0  0  0  0  0  0  0  0  0
    5.7782   -6.0894    0.0000 C   0  0  0  0  0  0  0  0  0  0  0  0
  -15.1118   -9.1163    0.0000 C   0  0  0  0  0  0  0  0  0  0  0  0
    6.5282   -7.3884    0.0000 C   0  0  0  0  0  0  0  0  0  0  0  0
  -11.4357   -7.8634    0.0000 C   0  0  0  0  0  0  0  0  0  0  0  0
    2.8522   -8.6413    0.0000 C   0  0  0  0  0  0  0  0  0  0  0  0
  -12.8933  -10.0987    0.0000 C   0  0  0  0  0  0  0  0  0  0  0  0
    4.3098   -6.4060    0.0000 C   0  0  0  0  0  0  0  0  0  0  0  0
  -14.1083   -7.9943    0.0000 C   0  0  0  0  0  0  0  0  0  0  0  0
    5.5248   -8.5104    0.0000 C   0  0  0  0  0  0  0  0  0  0  0  0
  -12.7362   -8.6109    0.0000 N   0  0  0  0  0  0  0  0  0  0  0  0
    4.1527   -7.8939    0.0000 N   0  0  0  0  0  0  0  0  0  0  0  0
  -14.4202   -6.5271    0.0000 O   0  0  0  0  0  0  0  0  0  0  0  0
    5.8366   -9.9777    0.0000 O   0  0  0  0  0  0  0  0  0  0  0  0
  2  1  1  0
  3  1  1  0
  4  2  1  0
  5  3  1  0
  6  4  1  0
  7  5  1  0
  8  6  1  0
  9  7  1  0
 10  8  1  0
 13 11  1  0
 14 12  1  0
 15  9  1  0
 16 10  1  0
 17 11  1  0
 18 12  1  0
 19 13  1  0
 20 14  1  0
 21 15  1  0
 21 17  1  0
 21 19  1  0
 22 16  1  0
 22 18  1  0
 22 20  1  0
 23 19  2  0
 24 20  2  0
M  END
>  <NAME>  (5195) 
N,N'-DODECAMETHYLENEDI(2-PYRROLIDONE)

>  <SYNONYMS>  (5195) 


>  <SPECTRUM TYPE>  (5195) 
MS1

>  <INSTRUMENT TYPE>  (5195) 
EI-B

>  <INSTRUMENT>  (5195) 
HITACHI RMU-6E

>  <ION MODE>  (5195) 
P

>  <INCHIKEY>  (5195) 
LTHBKYXQRLHDSV-UHFFFAOYSA-N

>  <FORMULA>  (5195) 
C20H36N2O2

>  <EXACT MASS>  (5195) 
336.277678392

>  <MW>  (5195) 
336

>  <ID>  (5195) 
JP004143

>  <CONTRIBUTOR>  (5195) 
University of Tokyo Team, {Faculty of Engineering, University of Tokyo

>  <COMMENT>  (5195) 
SMILES=C(CCCCCCN(C2)C(=O)CC2)CCCCCN(C1)C(=O)CC1
InChI=InChI=1S/C20H36N2O2/c23-19-13-11-17-21(19)15-9-7-5-3-1-2-4-6-8-10-16-22-18-12-14-20(22)24/h1-18H2
computed SMILES=O=C1N(CCC1)CCCCCCCCCCCCN2C(=O)CCC2
accession=JP004143
date=2016.01.19 (Created 2008.10.21, modified 2011.05.06)
author=MASS SPECTROSCOPY SOC. OF JAPAN (MSSJ)
license=CC BY-NC-SA
exact mass=336.27768
ionization energy=70 eV
ion type=[M]+*
computed spectral entropy=3.7438222064112834
computed normalized entropy=0.7001583912244499
SPLASH=splash10-0002-9320000000-62e69f06d0e7c3f1cf39
submitter=submitter = University of Tokyo Team (Faculty of Engineering, University of Tokyo)
MoNA Rating=3.75

>  <NUM PEAKS>  (5195) 
210

>  <MASS SPECTRAL PEAKS>  (5195) 
25 0.1
26 0.6
27 2.6
28 1.5
29 3.4
30 2.8
31 1.4
32 0.11
33 0.2
34 0.4
35 0.2
36 0.08
37 0.1
38 0.4
39 2.6
40 0.08
41 19
42 6
43 10.2
44 0.48
45 1
46 0.5
47 0.4
50 0.03
51 0.4
52 0.3
53 1
54 0.14
55 13.2
56 4.4
57 4
58 0.11
59 0.3
60 0.2
63 0.3
64 0.01
65 0.5
66 0.2
67 2.2
68 0.37
69 15
70 32.8
71 4
72 0.05
73 0.4
74 0.3
76 0.3
77 0.08
78 0.4
79 0.8
80 0.9
81 0.17
82 1.8
83 2.1
84 3.8
85 0.24
86 11.6
87 0.9
91 0.6
92 0.03
93 0.4
94 0.3
95 1.1
96 0.2
97 1.6
98 99.99
99 42
100 0.33
101 0.3
103 0.2
104 0.4
105 0.03
106 0.4
107 0.5
108 0.4
109 0.09
110 0.9
111 0.8
112 16
113 0.84
114 1.8
116 0.6
117 2.4
118 0.02
119 2
120 0.1
121 0.6
122 0.04
123 0.4
124 1.6
125 0.6
126 1.1
127 7.4
128 2.6
129 0.9
130 0.03
131 0.2
132 0.1
133 0.2
134 0.01
135 0.3
136 0.3
137 0.3
138 0.06
139 0.7
140 7.8
141 7.4
142 0.1
143 0.3
144 0.1
145 0.2
146 0.01
147 0.1
148 0.1
149 0.1
150 0.04
151 0.1
152 0.5
153 0.7
154 1.1
155 5.4
156 1.6
157 0.3
158 0.03
159 0.1
160 0.1
162 0.2
163 0.02
164 0.2
165 0.3
166 0.4
167 0.06
168 12.8
169 6.6
170 1.1
171 0.02
178 0.2
179 0.2
180 0.4
181 0.06
182 11
183 4.7
184 1.1
185 0.1
186 0.3
187 0.1
194 0.4
195 0.03
196 10.6
197 4
198 1.4
199 0.02
208 0.6
209 0.5
210 14
211 0.47
212 1.4
213 0.1
214 0.1
217 0.02
218 0.3
219 0.7
220 0.2
222 0.03
223 0.7
224 11.2
225 11.2
226 0.19
227 0.4
236 10
237 2.4
238 4.14
239 8.8
240 1.8
241 0.2
242 0.02
249 0.2
250 0.2
251 0.4
252 0.19
253 0.3
254 0.3
255 0.1
256 0.01
262 0.4
263 0.1
264 0.1
265 0.09
266 0.2
267 0.4
268 0.6
269 0.01
279 2
280 0.6
281 0.4
282 0.02
283 0.2
293 0.3
295 0.3
307 0.07
308 0.3
309 0.1
310 0.1
324 0.04
325 0.1
335 2.6
336 21
337 0.5
338 0.7
339 0.1

$$$$

     RDKit          2D

 18 18  0  0  0  0  0  0  0  0999 V2000
   12.0322   -6.3103    0.0000 C   0  0  0  0  0  0  0  0  0  0  0  0
   10.7331   -7.0603    0.0000 C   0  0  0  0  0  0  0  0  0  0  0  0
    9.4341   -6.3103    0.0000 C   0  0  0  0  0  0  0  0  0  0  0  0
    8.1351   -7.0603    0.0000 C   0  0  0  0  0  0  0  0  0  0  0  0
    6.8360   -6.3103    0.0000 C   0  0  0  0  0  0  0  0  0  0  0  0
    5.5370   -7.0603    0.0000 C   0  0  0  0  0  0  0  0  0  0  0  0
    4.2379   -6.3103    0.0000 C   0  0  0  0  0  0  0  0  0  0  0  0
    2.9389   -7.0603    0.0000 C   0  0  0  0  0  0  0  0  0  0  0  0
    1.6399   -6.3103    0.0000 C   0  0  0  0  0  0  0  0  0  0  0  0
    0.3408   -7.0603    0.0000 C   0  0  0  0  0  0  0  0  0  0  0  0
   -0.9582   -6.3103    0.0000 C   0  0  0  0  0  0  0  0  0  0  0  0
   -5.1818   -4.5058    0.0000 C   0  0  0  0  0  0  0  0  0  0  0  0
   -5.9318   -5.8048    0.0000 C   0  0  0  0  0  0  0  0  0  0  0  0
   -2.2573   -7.0603    0.0000 C   0  0  0  0  0  0  0  0  0  0  0  0
   -3.7221   -4.8174    0.0000 C   0  0  0  0  0  0  0  0  0  0  0  0
   -4.9321   -6.9132    0.0000 C   0  0  0  0  0  0  0  0  0  0  0  0
   -3.5563   -6.3103    0.0000 N   0  0  0  0  0  0  0  0  0  0  0  0
   -5.2476   -8.3797    0.0000 S   0  0  0  0  0  0  0  0  0  0  0  0
  2  1  1  0
  3  2  1  0
  4  3  1  0
  5  4  1  0
  6  5  1  0
  7  6  1  0
  8  7  1  0
  9  8  1  0
 10  9  1  0
 11 10  1  0
 13 12  1  0
 14 11  1  0
 15 12  1  0
 16 13  1  0
 17 14  1  0
 17 15  1  0
 17 16  1  0
 18 16  2  0
M  END
>  <NAME>  (5196) 
N-DODECYL-2-THIOXOPYRROLIDINE

>  <SYNONYMS>  (5196) 


>  <SPECTRUM TYPE>  (5196) 
MS1

>  <INSTRUMENT TYPE>  (5196) 
EI-B

>  <INSTRUMENT>  (5196) 
HITACHI RMU-6E

>  <ION MODE>  (5196) 
P

>  <INCHIKEY>  (5196) 
XZIGJCHACSCDHN-UHFFFAOYSA-N

>  <FORMULA>  (5196) 
C16H31NS

>  <EXACT MASS>  (5196) 
269.21772099199995

>  <MW>  (5196) 
269

>  <ID>  (5196) 
JP004142

>  <CONTRIBUTOR>  (5196) 
University of Tokyo Team, {Faculty of Engineering, University of Tokyo

>  <COMMENT>  (5196) 
SMILES=CCCCCCCCCCCCN(C1)C(=S)CC1
InChI=InChI=1S/C16H31NS/c1-2-3-4-5-6-7-8-9-10-11-14-17-15-12-13-16(17)18/h2-15H2,1H3
computed SMILES=S=C1N(CCC1)CCCCCCCCCCCC
accession=JP004142
date=2016.01.19 (Created 2008.10.21, modified 2011.05.06)
author=MASS SPECTROSCOPY SOC. OF JAPAN (MSSJ)
license=CC BY-NC-SA
exact mass=269.21772
ionization energy=70 eV
ion type=[M]+*
computed spectral entropy=3.2776371996797407
computed normalized entropy=0.6458177234918469
SPLASH=splash10-00kr-6980000000-b9129a539343ddc48371
submitter=submitter = University of Tokyo Team (Faculty of Engineering, University of Tokyo)
MoNA Rating=3.75

>  <NUM PEAKS>  (5196) 
160

>  <MASS SPECTRAL PEAKS>  (5196) 
26 0.4
27 2.8
28 2
29 0.7
30 7
31 1.6
39 2.2
40 0.06
41 18
42 3.8
43 11
44 0.24
45 2.7
46 0.3
47 0.5
53 0.12
54 1.6
55 15
56 2.4
57 0.3
58 0.7
59 0.9
60 1.3
61 0.03
65 0.3
66 0.2
67 2.4
68 0.19
69 6.6
70 3.2
71 1.1
72 0.1
73 2.2
74 0.5
75 0.3
76 0.02
77 0.3
78 0.3
79 0.4
80 0.06
81 1.2
82 4.8
83 2.9
84 0.07
85 14.2
86 1.5
87 2.2
88 0.03
89 0.1
91 0.3
92 0.1
93 0.03
94 0.3
95 0.4
96 1.6
97 0.07
98 0.4
99 0.5
100 3
101 0.13
102 17
103 1
104 0.8
105 0.01
106 0.1
107 0.1
108 0.4
109 0.03
110 1.1
111 0.2
112 0.3
113 0.03
114 11.6
115 71.4
116 5.2
117 0.3
118 0.2
120 0.2
121 0.1
122 0.04
123 0.4
124 0.9
125 0.1
126 0.17
127 0.5
128 18.8
129 4.6
130 0.1
131 0.3
136 0.4
137 0.1
138 0.15
139 0.2
140 0.4
141 0.6
142 0.78
143 1.4
144 0.4
145 0.1
149 0.04
150 0.3
152 1.1
153 0.2
154 0.02
155 0.2
156 4.8
157 0.6
158 0.03
164 0.2
165 0.1
166 1
167 0.01
168 0.1
169 0.1
170 4
171 0.05
172 0.3
180 1
181 0.2
184 0.38
185 0.6
186 0.3
194 1
195 0.02
196 0.1
198 3.4
199 0.4
200 0.02
207 0.2
208 0.4
209 0.1
210 0.01
212 2.7
213 0.4
214 0.2
226 0.26
227 0.3
228 0.2
234 0.3
235 0.02
236 99.99
237 20.8
238 1.6
239 0.01
240 2.3
241 0.4
242 0.1
250 0.03
254 1
255 0.3
256 0.1
264 0.05
265 0.1
266 0.1
267 0.1
268 0.64
269 18.4
270 4
271 1.1
272 0.1

$$$$

     RDKit          2D

 25 25  0  0  0  0  0  0  0  0999 V2000
   17.8778   -9.6853    0.0000 C   0  0  0  0  0  0  0  0  0  0  0  0
   -4.5584   -7.1860    0.0000 C   0  0  0  0  0  0  0  0  0  0  0  0
   16.5788  -10.4353    0.0000 C   0  0  0  0  0  0  0  0  0  0  0  0
   15.2798   -9.6853    0.0000 C   0  0  0  0  0  0  0  0  0  0  0  0
   13.9807  -10.4353    0.0000 C   0  0  0  0  0  0  0  0  0  0  0  0
   12.6817   -9.6853    0.0000 C   0  0  0  0  0  0  0  0  0  0  0  0
   11.3826  -10.4353    0.0000 C   0  0  0  0  0  0  0  0  0  0  0  0
   10.0836   -9.6853    0.0000 C   0  0  0  0  0  0  0  0  0  0  0  0
    8.7846  -10.4353    0.0000 C   0  0  0  0  0  0  0  0  0  0  0  0
    7.4855   -9.6853    0.0000 C   0  0  0  0  0  0  0  0  0  0  0  0
    6.1865  -10.4353    0.0000 C   0  0  0  0  0  0  0  0  0  0  0  0
    4.8875   -9.6853    0.0000 C   0  0  0  0  0  0  0  0  0  0  0  0
    3.5884  -10.4353    0.0000 C   0  0  0  0  0  0  0  0  0  0  0  0
    2.2894   -9.6853    0.0000 C   0  0  0  0  0  0  0  0  0  0  0  0
    0.9903  -10.4353    0.0000 C   0  0  0  0  0  0  0  0  0  0  0  0
   -0.3087   -9.6853    0.0000 C   0  0  0  0  0  0  0  0  0  0  0  0
   -1.6077  -10.4353    0.0000 C   0  0  0  0  0  0  0  0  0  0  0  0
   -2.9068   -9.6853    0.0000 C   0  0  0  0  0  0  0  0  0  0  0  0
   -7.1304   -7.8808    0.0000 C   0  0  0  0  0  0  0  0  0  0  0  0
   -7.8804   -9.1798    0.0000 C   0  0  0  0  0  0  0  0  0  0  0  0
   -4.2058  -10.4353    0.0000 C   0  0  0  0  0  0  0  0  0  0  0  0
   -5.6706   -8.1924    0.0000 C   0  0  0  0  0  0  0  0  0  0  0  0
   -6.8806  -10.2882    0.0000 C   0  0  0  0  0  0  0  0  0  0  0  0
   -5.5048   -9.6853    0.0000 N   0  0  0  0  0  0  0  0  0  0  0  0
   -7.1961  -11.7547    0.0000 O   0  0  0  0  0  0  0  0  0  0  0  0
  3  1  1  0
  4  3  1  0
  5  4  1  0
  6  5  1  0
  7  6  1  0
  8  7  1  0
  9  8  1  0
 10  9  1  0
 11 10  1  0
 12 11  1  0
 13 12  1  0
 14 13  1  0
 15 14  1  0
 16 15  1  0
 17 16  1  0
 18 17  1  0
 20 19  1  0
 21 18  1  0
 22  2  1  0
 22 19  1  0
 23 20  1  0
 24 21  1  0
 24 22  1  0
 24 23  1  0
 25 23  2  0
M  END
>  <NAME>  (5197) 
5-METHYL-N-OCTADECYL-2-PYRROLIDONE

>  <SYNONYMS>  (5197) 


>  <SPECTRUM TYPE>  (5197) 
MS1

>  <INSTRUMENT TYPE>  (5197) 
EI-B

>  <INSTRUMENT>  (5197) 
HITACHI RMU-6E

>  <ION MODE>  (5197) 
P

>  <INCHIKEY>  (5197) 
TYAMTTBZEDCFHI-UHFFFAOYSA-N

>  <FORMULA>  (5197) 
C23H45NO

>  <EXACT MASS>  (5197) 
351.35011506

>  <MW>  (5197) 
351

>  <ID>  (5197) 
JP004141

>  <CONTRIBUTOR>  (5197) 
University of Tokyo Team, {Faculty of Engineering, University of Tokyo

>  <COMMENT>  (5197) 
SMILES=CCCCCCCCCCCCCCCCCCN(C(C)1)C(=O)CC1
InChI=InChI=1S/C23H45NO/c1-3-4-5-6-7-8-9-10-11-12-13-14-15-16-17-18-21-24-22(2)19-20-23(24)25/h22H,3-21H2,1-2H3
computed SMILES=O=C1N(CCCCCCCCCCCCCCCCCC)C(C)CC1
accession=JP004141
date=2016.01.19 (Created 2008.10.21, modified 2011.05.06)
author=MASS SPECTROSCOPY SOC. OF JAPAN (MSSJ)
license=CC BY-NC-SA
exact mass=351.35012
ionization energy=70 eV
ion type=[M]+*
computed spectral entropy=3.7903488637696228
computed normalized entropy=0.7544663628129309
SPLASH=splash10-0nml-9713000000-1a0270e3b0961b76965e
submitter=submitter = University of Tokyo Team (Faculty of Engineering, University of Tokyo)
MoNA Rating=3.75

>  <NUM PEAKS>  (5197) 
152

>  <MASS SPECTRAL PEAKS>  (5197) 
26 1.6
27 7
28 12.6
29 1.74
30 19.2
31 1
32 0.4
38 0.04
39 3.4
40 1.4
41 27.2
42 0.78
43 35.1
44 10.4
45 2.4
50 0.04
51 0.6
52 0.2
53 1.8
54 0.2
55 24.6
56 20
57 20.1
58 0.26
59 1
60 0.4
67 3.4
68 0.15
69 7
70 5
71 5.8
72 0.2
73 1
81 1.2
82 3
83 1.18
84 14.8
85 8.4
86 3
87 0.1
94 1
95 1
96 1.2
97 0.28
98 14
99 2.7
100 9.8
101 0.16
110 1.4
111 2
112 99.99
113 9.16
114 7.8
115 1
124 1.2
125 0.1
126 16
127 8.2
128 1.2
129 0.06
138 1.2
139 0.8
140 21
141 0.74
142 1.2
143 0.6
144 0.4
149 0.12
152 0.6
153 0.4
154 12.2
155 0.36
156 1.6
157 0.4
158 0.4
166 0.05
167 0.4
168 10.1
169 4.4
170 0.12
171 0.2
172 0.4
180 0.6
181 0.04
182 7.4
183 3
184 1.2
185 0.06
186 0.4
194 0.8
195 0.2
196 0.82
197 3.2
198 1.4
199 0.4
208 0.06
209 0.2
210 6.6
211 2.4
212 0.14
213 0.2
222 0.4
223 0.2
224 0.58
225 2.4
226 0.8
227 0.6
236 0.05
237 0.2
238 3.8
239 1.7
240 0.1
241 0.4
250 0.6
252 4.2
253 0.18
254 0.8
266 4.8
267 2.4
268 0.12
269 1
270 0.4
278 0.3
280 0.48
281 1.6
282 0.8
294 4.2
295 0.18
296 1.6
297 0.7
307 0.2
308 0.4
309 1.6
310 0.4
311 0.6
321 0.06
322 4
323 2.4
324 1
325 0.02
334 2.2
335 0.6
336 22.2
337 0.58
338 1
339 0.2
349 0.6
350 0.46
351 50.4
352 14.8
353 2.4
354 0.6

$$$$

     RDKit          2D

 23 23  0  0  0  0  0  0  0  0999 V2000
   15.9293   -8.5603    0.0000 C   0  0  0  0  0  0  0  0  0  0  0  0
   -3.9089   -6.0610    0.0000 C   0  0  0  0  0  0  0  0  0  0  0  0
   14.6302   -9.3103    0.0000 C   0  0  0  0  0  0  0  0  0  0  0  0
   13.3312   -8.5603    0.0000 C   0  0  0  0  0  0  0  0  0  0  0  0
   12.0322   -9.3103    0.0000 C   0  0  0  0  0  0  0  0  0  0  0  0
   10.7331   -8.5603    0.0000 C   0  0  0  0  0  0  0  0  0  0  0  0
    9.4341   -9.3103    0.0000 C   0  0  0  0  0  0  0  0  0  0  0  0
    8.1351   -8.5603    0.0000 C   0  0  0  0  0  0  0  0  0  0  0  0
    6.8360   -9.3103    0.0000 C   0  0  0  0  0  0  0  0  0  0  0  0
    5.5370   -8.5603    0.0000 C   0  0  0  0  0  0  0  0  0  0  0  0
    4.2379   -9.3103    0.0000 C   0  0  0  0  0  0  0  0  0  0  0  0
    2.9389   -8.5603    0.0000 C   0  0  0  0  0  0  0  0  0  0  0  0
    1.6399   -9.3103    0.0000 C   0  0  0  0  0  0  0  0  0  0  0  0
    0.3408   -8.5603    0.0000 C   0  0  0  0  0  0  0  0  0  0  0  0
   -0.9582   -9.3103    0.0000 C   0  0  0  0  0  0  0  0  0  0  0  0
   -2.2573   -8.5603    0.0000 C   0  0  0  0  0  0  0  0  0  0  0  0
   -6.4808   -6.7558    0.0000 C   0  0  0  0  0  0  0  0  0  0  0  0
   -7.2308   -8.0548    0.0000 C   0  0  0  0  0  0  0  0  0  0  0  0
   -3.5563   -9.3103    0.0000 C   0  0  0  0  0  0  0  0  0  0  0  0
   -5.0211   -7.0674    0.0000 C   0  0  0  0  0  0  0  0  0  0  0  0
   -6.2311   -9.1632    0.0000 C   0  0  0  0  0  0  0  0  0  0  0  0
   -4.8553   -8.5603    0.0000 N   0  0  0  0  0  0  0  0  0  0  0  0
   -6.5466  -10.6297    0.0000 O   0  0  0  0  0  0  0  0  0  0  0  0
  3  1  1  0
  4  3  1  0
  5  4  1  0
  6  5  1  0
  7  6  1  0
  8  7  1  0
  9  8  1  0
 10  9  1  0
 11 10  1  0
 12 11  1  0
 13 12  1  0
 14 13  1  0
 15 14  1  0
 16 15  1  0
 18 17  1  0
 19 16  1  0
 20  2  1  0
 20 17  1  0
 21 18  1  0
 22 19  1  0
 22 20  1  0
 22 21  1  0
 23 21  2  0
M  END
>  <NAME>  (5198) 
N-HEXADECYL-5-METHYL-2-PYRROLIDONE

>  <SYNONYMS>  (5198) 


>  <SPECTRUM TYPE>  (5198) 
MS1

>  <INSTRUMENT TYPE>  (5198) 
EI-B

>  <INSTRUMENT>  (5198) 
HITACHI RMU-6E

>  <ION MODE>  (5198) 
P

>  <INCHIKEY>  (5198) 
KQSWUMKCKNXRSK-UHFFFAOYSA-N

>  <FORMULA>  (5198) 
C21H41NO

>  <EXACT MASS>  (5198) 
323.318814932

>  <MW>  (5198) 
323

>  <ID>  (5198) 
JP004140

>  <CONTRIBUTOR>  (5198) 
University of Tokyo Team, {Faculty of Engineering, University of Tokyo

>  <COMMENT>  (5198) 
SMILES=CCCCCCCCCCCCCCCCN(C(C)1)C(=O)CC1
InChI=InChI=1S/C21H41NO/c1-3-4-5-6-7-8-9-10-11-12-13-14-15-16-19-22-20(2)17-18-21(22)23/h20H,3-19H2,1-2H3
computed SMILES=O=C1N(CCCCCCCCCCCCCCCC)C(C)CC1
accession=JP004140
date=2016.01.19 (Created 2008.10.21, modified 2011.05.06)
author=MASS SPECTROSCOPY SOC. OF JAPAN (MSSJ)
license=CC BY-NC-SA
exact mass=323.31881
ionization energy=70 eV
ion type=[M]+*
computed spectral entropy=3.2869970149060346
computed normalized entropy=0.7234831047576722
SPLASH=splash10-03di-4911000000-d2619732209528843faf
submitter=submitter = University of Tokyo Team (Faculty of Engineering, University of Tokyo)
MoNA Rating=3.75

>  <NUM PEAKS>  (5198) 
94

>  <MASS SPECTRAL PEAKS>  (5198) 
26 1.5
27 4.8
29 9.2
30 1.26
31 0.8
32 0.9
39 2.4
40 0.12
41 20.9
42 6.3
43 25.5
44 0.75
46 1
53 1.4
54 2
55 2.65
56 7.9
57 15.3
58 1.9
59 0.1
67 1.7
68 1.2
69 7
70 0.48
71 1.1
81 1.3
82 5.4
83 0.96
84 16.3
85 3.4
86 1.7
94 0.09
95 1
96 1.6
97 2.7
98 1.72
99 3.9
100 7.9
101 0.7
110 0.1
111 2
112 99.99
113 94
114 0.82
115 0.6
126 19
127 6.7
128 0.1
138 2.2
139 0.5
140 22.8
141 0.65
142 0.9
154 10
155 2.8
156 0.09
166 0.8
167 0.5
168 6.7
169 0.32
170 0.7
182 4.3
183 1
196 0.55
197 2.2
198 0.3
208 0.5
210 0.47
211 1.4
212 0.5
224 4.7
225 0.17
238 4.9
239 1.8
252 3.8
253 0.23
254 0.7
266 3
267 1.3
268 0.09
280 4.5
281 2
294 3.3
295 0.36
296 1
306 1.6
307 0.7
308 0.07
309 18.2
310 0.7
322 2.5
323 2.77
324 7.4
325 1.5

$$$$

     RDKit          2D

 19 19  0  0  0  0  0  0  0  0999 V2000
   -0.6563   -7.2921    0.0000 C   0  0  0  0  0  0  0  0  0  0  0  0
   -1.9568   -8.0396    0.0000 C   0  0  0  0  0  0  0  0  0  0  0  0
    0.6412   -8.0447    0.0000 C   0  0  0  0  0  0  0  0  0  0  0  0
   -3.2544   -7.2871    0.0000 C   0  0  0  0  0  0  0  0  0  0  0  0
    1.9417   -7.2972    0.0000 C   0  0  0  0  0  0  0  0  0  0  0  0
   -4.5549   -8.0345    0.0000 C   0  0  0  0  0  0  0  0  0  0  0  0
    3.2393   -8.0498    0.0000 C   0  0  0  0  0  0  0  0  0  0  0  0
   -5.8525   -7.2820    0.0000 C   0  0  0  0  0  0  0  0  0  0  0  0
    4.5398   -7.3023    0.0000 C   0  0  0  0  0  0  0  0  0  0  0  0
   -7.1530   -8.0294    0.0000 C   0  0  0  0  0  0  0  0  0  0  0  0
  -11.3766   -9.8289    0.0000 C   0  0  0  0  0  0  0  0  0  0  0  0
  -12.1266   -8.5298    0.0000 C   0  0  0  0  0  0  0  0  0  0  0  0
    5.8374   -8.0548    0.0000 C   0  0  0  0  0  0  0  0  0  0  0  0
   -8.4505   -7.2769    0.0000 C   0  0  0  0  0  0  0  0  0  0  0  0
   -9.9081   -9.5122    0.0000 C   0  0  0  0  0  0  0  0  0  0  0  0
  -11.1231   -7.4078    0.0000 C   0  0  0  0  0  0  0  0  0  0  0  0
    7.1379   -7.3074    0.0000 N   0  0  0  0  0  0  0  0  0  0  0  0
   -9.7510   -8.0244    0.0000 N   0  0  0  0  0  0  0  0  0  0  0  0
  -11.4350   -5.9406    0.0000 O   0  0  0  0  0  0  0  0  0  0  0  0
  2  1  1  0
  3  1  1  0
  4  2  1  0
  5  3  1  0
  6  4  1  0
  7  5  1  0
  8  6  1  0
  9  7  1  0
 10  8  1  0
 12 11  1  0
 13  9  1  0
 14 10  1  0
 15 11  1  0
 16 12  1  0
 17 13  1  0
 18 14  1  0
 18 15  1  0
 18 16  1  0
 19 16  2  0
M  END
>  <NAME>  (5199) 
N-(12-AMINODODECYL)-2-PYRROLIDONE

>  <SYNONYMS>  (5199) 


>  <SPECTRUM TYPE>  (5199) 
MS1

>  <INSTRUMENT TYPE>  (5199) 
EI-B

>  <INSTRUMENT>  (5199) 
HITACHI RMU-6E

>  <ION MODE>  (5199) 
P

>  <INCHIKEY>  (5199) 
AWDGGAOYFMTHKT-UHFFFAOYSA-N

>  <FORMULA>  (5199) 
C16H32N2O

>  <EXACT MASS>  (5199) 
268.251463644

>  <MW>  (5199) 
268

>  <ID>  (5199) 
JP004139

>  <CONTRIBUTOR>  (5199) 
University of Tokyo Team, {Faculty of Engineering, University of Tokyo

>  <COMMENT>  (5199) 
SMILES=NCCCCCCCCCCCCN(C1)C(=O)CC1
InChI=InChI=1S/C16H32N2O/c17-13-9-7-5-3-1-2-4-6-8-10-14-18-15-11-12-16(18)19/h1-15,17H2
computed SMILES=O=C1N(CCC1)CCCCCCCCCCCCN
accession=JP004139
date=2016.01.19 (Created 2008.10.21, modified 2011.05.06)
author=MASS SPECTROSCOPY SOC. OF JAPAN (MSSJ)
license=CC BY-NC-SA
exact mass=268.25146
ionization energy=70 eV
ion type=[M]+*
computed spectral entropy=3.61934764396683
computed normalized entropy=0.7745517270554191
SPLASH=splash10-0002-9310000000-bb1c5e06cbf009e88c41
submitter=submitter = University of Tokyo Team (Faculty of Engineering, University of Tokyo)
MoNA Rating=3.75

>  <NUM PEAKS>  (5199) 
107

>  <MASS SPECTRAL PEAKS>  (5199) 
27 3.8
28 14
29 5.8
30 6.5
31 1
32 2
39 5.2
40 0.2
41 32
42 10
43 14
44 1.3
45 2.8
53 2.4
54 2.6
55 2.2
56 12
57 4.4
58 2
59 0.28
65 0.6
66 0.6
67 4
68 0.56
69 19
70 39
71 3.8
72 0.34
73 1.6
79 1
80 0.8
81 0.22
82 1.8
83 5.4
84 5.2
85 0.16
86 14
87 2.6
95 1.2
96 0.28
97 2.6
98 99.99
99 60
100 0.8
101 1.4
109 0.8
110 0.6
111 0.08
112 28
113 14
114 4
115 0.14
124 2.6
125 1
126 13
127 0.88
128 2.2
129 1.2
138 1
139 0.04
140 7.6
141 4.8
142 4
143 0.12
149 1.4
152 1
153 0.4
154 1
155 4.4
156 5
157 1.8
158 0.02
168 9
169 4
170 16
171 0.28
181 0.2
182 10
183 3.4
184 0.2
185 0.6
194 0.4
195 0.4
196 1.3
197 2.6
198 0.8
209 0.8
210 1
211 5.6
212 0.8
222 0.8
223 0.08
224 11
225 4.2
226 1.4
227 0.04
238 3.2
239 17
240 4
241 0.02
251 0.8
252 4
253 0.8
267 0.2
268 14
269 4
270 0.4

$$$$

     RDKit          2D

 21 21  0  0  0  0  0  0  0  0999 V2000
    7.9945   -5.5019    0.0000 C   0  0  0  0  0  0  0  0  0  0  0  0
    6.6954   -4.7519    0.0000 C   0  0  0  0  0  0  0  0  0  0  0  0
    5.3964   -5.5019    0.0000 C   0  0  0  0  0  0  0  0  0  0  0  0
    4.0973   -4.7519    0.0000 C   0  0  0  0  0  0  0  0  0  0  0  0
    2.7983   -5.5019    0.0000 C   0  0  0  0  0  0  0  0  0  0  0  0
    1.4993   -4.7519    0.0000 C   0  0  0  0  0  0  0  0  0  0  0  0
    0.2002   -5.5019    0.0000 C   0  0  0  0  0  0  0  0  0  0  0  0
   -1.0988   -4.7519    0.0000 C   0  0  0  0  0  0  0  0  0  0  0  0
   -2.3978   -5.5019    0.0000 C   0  0  0  0  0  0  0  0  0  0  0  0
   -3.6969   -4.7519    0.0000 C   0  0  0  0  0  0  0  0  0  0  0  0
   -4.9959   -5.5019    0.0000 C   0  0  0  0  0  0  0  0  0  0  0  0
   -6.2950   -4.7519    0.0000 C   0  0  0  0  0  0  0  0  0  0  0  0
   -9.9695   -6.0074    0.0000 C   0  0  0  0  0  0  0  0  0  0  0  0
   -7.7598   -6.9948    0.0000 C   0  0  0  0  0  0  0  0  0  0  0  0
   -9.2195   -7.3064    0.0000 C   0  0  0  0  0  0  0  0  0  0  0  0
   -8.9698   -4.8990    0.0000 C   0  0  0  0  0  0  0  0  0  0  0  0
   -9.8290   -8.6770    0.0000 C   0  0  0  0  0  0  0  0  0  0  0  0
   -7.5940   -5.5019    0.0000 N   0  0  0  0  0  0  0  0  0  0  0  0
   -9.2853   -3.4325    0.0000 O   0  0  0  0  0  0  0  0  0  0  0  0
   -8.9468   -9.8901    0.0000 O   0  0  0  0  0  0  0  0  0  0  0  0
  -11.3207   -8.8344    0.0000 O   0  0  0  0  0  0  0  0  0  0  0  0
  2  1  1  0
  3  2  1  0
  4  3  1  0
  5  4  1  0
  6  5  1  0
  7  6  1  0
  8  7  1  0
  9  8  1  0
 10  9  1  0
 11 10  1  0
 12 11  1  0
 15 13  1  0
 15 14  1  0
 16 13  1  0
 17 15  1  0
 18 12  1  0
 18 14  1  0
 18 16  1  0
 19 16  2  0
 20 17  2  0
 21 17  1  0
M  END
>  <NAME>  (5200) 
4-CARBOXYL-N-DODECYL-2-PYRROLIDONE

>  <SYNONYMS>  (5200) 


>  <SPECTRUM TYPE>  (5200) 
MS1

>  <INSTRUMENT TYPE>  (5200) 
EI-B

>  <INSTRUMENT>  (5200) 
HITACHI RMU-6E

>  <ION MODE>  (5200) 
P

>  <INCHIKEY>  (5200) 
ZNQTZHTYSHEJLH-UHFFFAOYSA-N

>  <FORMULA>  (5200) 
C17H31NO3

>  <EXACT MASS>  (5200) 
297.23039385199996

>  <MW>  (5200) 
297

>  <ID>  (5200) 
JP004138

>  <CONTRIBUTOR>  (5200) 
University of Tokyo Team, {Faculty of Engineering, University of Tokyo

>  <COMMENT>  (5200) 
SMILES=CCCCCCCCCCCCN(C1)C(=O)CC(C(O)=O)1
InChI=InChI=1S/C17H31NO3/c1-2-3-4-5-6-7-8-9-10-11-12-18-14-15(17(20)21)13-16(18)19/h15H,2-14H2,1H3,(H,20,21)
computed SMILES=O=C1N(CCCCCCCCCCCC)CC(C(=O)O)C1
ion type=[M]+*
accession=JP004138
date=2016.01.19 (Created 2008.10.21, modified 2011.05.06)
author=MASS SPECTROSCOPY SOC. OF JAPAN (MSSJ)
license=CC BY-NC-SA
exact mass=297.23039
ionization energy=70 eV
computed spectral entropy=3.6831262461228214
computed normalized entropy=0.6984878730249746
SPLASH=splash10-0006-6920000000-f418f0cfa3219c80bb75
submitter=submitter = University of Tokyo Team (Faculty of Engineering, University of Tokyo)
MoNA Rating=3.75

>  <NUM PEAKS>  (5200) 
195

>  <MASS SPECTRAL PEAKS>  (5200) 
26 0.8
27 6
28 8.2
29 1.6
30 22
31 0.7
32 0.7
33 0.02
34 0.1
35 0.5
36 1.3
37 0.02
38 0.5
39 7.8
40 2.2
41 3.78
42 23.4
43 26
44 6.8
45 0.15
51 0.5
52 0.4
53 3.8
54 0.28
55 23.8
56 10
57 9
58 0.2
59 0.4
60 0.4
65 0.7
66 0.03
67 3.5
68 16
69 10.2
70 1
71 2.8
72 1.1
73 1.3
74 0.03
75 0.2
76 0.4
77 1
78 0.06
79 0.8
80 0.7
81 1.1
82 0.23
83 3.2
84 6.4
85 3.2
86 0.08
87 2.9
88 0.3
91 1
92 0.03
93 0.5
94 0.8
95 0.8
96 0.84
97 3.8
98 3.7
99 1.2
100 0.13
101 1.4
102 0.3
103 0.2
104 0.02
105 0.5
106 0.3
107 0.3
109 0.02
110 0.8
111 0.8
112 4
113 0.88
114 2.7
115 5.8
116 0.4
117 0.03
118 0.3
119 0.4
120 0.1
121 0.03
122 0.6
123 1
124 1.7
125 0.1
126 2
127 0.5
128 1
129 0.44
130 7
131 0.7
135 1.7
136 0.03
137 0.7
138 0.8
139 0.4
140 0.14
141 2.2
142 99.99
143 91
144 0.64
145 0.8
146 0.1
147 0.1
148 0.03
149 1.7
150 0.2
151 0.2
152 0.04
153 0.4
154 1
155 0.6
156 2.58
157 5.4
158 1
159 0.2
161 0.01
162 0.2
163 0.6
164 0.3
165 0.03
166 0.6
167 0.6
168 1.6
169 0.06
170 20.4
171 8
172 1
173 0.03
178 0.3
179 0.2
180 0.3
181 0.03
182 0.5
183 0.2
184 9
185 0.31
186 0.4
187 0.2
190 0.2
191 0.04
192 0.4
193 0.4
194 0.3
195 0.02
196 1.5
197 1.6
198 8
199 0.22
200 0.3
209 0.3
210 1.3
211 0.02
212 6
213 1.6
214 0.5
215 0.02
223 0.2
224 1.1
225 0.6
226 0.6
227 1.6
228 0.2
234 0.6
235 0.02
240 4.6
241 1.4
242 0.1
250 0.02
251 0.3
252 28.2
253 4.6
254 0.36
255 1
256 0.3
259 0.4
267 0.02
268 3.3
269 1.2
270 0.1
278 0.02
279 1.1
280 2.8
281 0.6
282 0.1
283 0.3
284 0.2
296 1.4
297 2.3
298 5.4
299 0.6
300 0.2

$$$$

     RDKit          2D

 18 18  0  0  0  0  0  0  0  0999 V2000
   10.7331   -6.3103    0.0000 C   0  0  0  0  0  0  0  0  0  0  0  0
   -2.6098   -3.0610    0.0000 C   0  0  0  0  0  0  0  0  0  0  0  0
    9.4341   -5.5603    0.0000 C   0  0  0  0  0  0  0  0  0  0  0  0
    8.1351   -6.3103    0.0000 C   0  0  0  0  0  0  0  0  0  0  0  0
    6.8360   -5.5603    0.0000 C   0  0  0  0  0  0  0  0  0  0  0  0
    5.5370   -6.3103    0.0000 C   0  0  0  0  0  0  0  0  0  0  0  0
    4.2379   -5.5603    0.0000 C   0  0  0  0  0  0  0  0  0  0  0  0
    2.9389   -6.3103    0.0000 C   0  0  0  0  0  0  0  0  0  0  0  0
    1.6399   -5.5603    0.0000 C   0  0  0  0  0  0  0  0  0  0  0  0
    0.3408   -6.3103    0.0000 C   0  0  0  0  0  0  0  0  0  0  0  0
   -0.9582   -5.5603    0.0000 C   0  0  0  0  0  0  0  0  0  0  0  0
   -5.1818   -3.7558    0.0000 C   0  0  0  0  0  0  0  0  0  0  0  0
   -5.9318   -5.0548    0.0000 C   0  0  0  0  0  0  0  0  0  0  0  0
   -2.2573   -6.3103    0.0000 C   0  0  0  0  0  0  0  0  0  0  0  0
   -3.7221   -4.0674    0.0000 C   0  0  0  0  0  0  0  0  0  0  0  0
   -4.9321   -6.1632    0.0000 C   0  0  0  0  0  0  0  0  0  0  0  0
   -3.5563   -5.5603    0.0000 N   0  0  0  0  0  0  0  0  0  0  0  0
   -5.2476   -7.6297    0.0000 O   0  0  0  0  0  0  0  0  0  0  0  0
  3  1  1  0
  4  3  1  0
  5  4  1  0
  6  5  1  0
  7  6  1  0
  8  7  1  0
  9  8  1  0
 10  9  1  0
 11 10  1  0
 13 12  1  0
 14 11  1  0
 15  2  1  0
 15 12  1  0
 16 13  1  0
 17 14  1  0
 17 15  1  0
 17 16  1  0
 18 16  2  0
M  END
>  <NAME>  (5201) 
5-METHYL-N-UNDECYL-2-PYRROLIDONE

>  <SYNONYMS>  (5201) 


>  <SPECTRUM TYPE>  (5201) 
MS1

>  <INSTRUMENT TYPE>  (5201) 
EI-B

>  <INSTRUMENT>  (5201) 
HITACHI RMU-6E

>  <ION MODE>  (5201) 
P

>  <INCHIKEY>  (5201) 
CZANSEAJYFFNSZ-UHFFFAOYSA-N

>  <FORMULA>  (5201) 
C16H31NO

>  <EXACT MASS>  (5201) 
253.240564612

>  <MW>  (5201) 
253

>  <ID>  (5201) 
JP004137

>  <CONTRIBUTOR>  (5201) 
University of Tokyo Team, {Faculty of Engineering, University of Tokyo

>  <COMMENT>  (5201) 
SMILES=CCCCCCCCCCCN(C(C)1)C(=O)CC1
InChI=InChI=1S/C16H31NO/c1-3-4-5-6-7-8-9-10-11-14-17-15(2)12-13-16(17)18/h15H,3-14H2,1-2H3
computed SMILES=O=C1N(CCCCCCCCCCC)C(C)CC1
accession=JP004137
date=2016.01.19 (Created 2008.10.21, modified 2011.05.06)
author=MASS SPECTROSCOPY SOC. OF JAPAN (MSSJ)
license=CC BY-NC-SA
exact mass=253.24056
ionization energy=70 eV
ion type=[M]+*
computed spectral entropy=3.15529039121102
computed normalized entropy=0.6961326267580583
SPLASH=splash10-03di-6920000000-b56d0df5f4885e01e41b
submitter=submitter = University of Tokyo Team (Faculty of Engineering, University of Tokyo)
MoNA Rating=3.75

>  <NUM PEAKS>  (5201) 
93

>  <MASS SPECTRAL PEAKS>  (5201) 
27 3.3
28 3
29 8.4
30 0.34
39 2.2
40 0.5
41 15
42 0.46
43 10.4
44 2.6
45 0.2
53 0.14
54 1.4
55 16.6
56 6.4
57 0.64
58 1.2
67 2.6
68 2.4
69 0.34
70 2.5
71 1.6
72 0.4
73 0.03
79 0.4
80 0.3
81 0.6
82 0.3
83 10.4
84 16.4
85 1.8
86 0.06
94 0.8
95 0.4
96 0.7
97 0.12
98 13.4
99 1.6
100 5.4
101 0.04
110 1
111 1
112 99.99
113 6.18
114 4.6
115 0.3
124 0.6
125 0.02
126 12.8
127 3.3
128 0.3
138 0.1
139 0.2
140 16.4
141 4
142 0.04
152 0.4
153 0.2
154 6.6
155 0.2
156 0.3
166 0.3
167 0.2
168 0.48
169 1.6
170 0.3
180 0.2
181 0.01
182 3.7
183 1.2
184 0.4
185 0.02
194 0.2
195 0.1
196 4
197 0.1
198 0.5
210 2.8
211 1
212 0.01
213 0.1
224 2.5
225 0.8
226 0.01
236 1.3
237 0.3
238 17.6
239 0.33
240 0.3
252 1.6
253 25
254 0.54
255 0.6

$$$$

     RDKit          2D

 21 21  0  0  0  0  0  0  0  0999 V2000
    8.3591   -5.7124    0.0000 C   0  0  0  0  0  0  0  0  0  0  0  0
  -11.9788   -7.2736    0.0000 C   0  0  0  0  0  0  0  0  0  0  0  0
    7.0601   -4.9624    0.0000 C   0  0  0  0  0  0  0  0  0  0  0  0
    5.7610   -5.7124    0.0000 C   0  0  0  0  0  0  0  0  0  0  0  0
    4.4620   -4.9624    0.0000 C   0  0  0  0  0  0  0  0  0  0  0  0
    3.1630   -5.7124    0.0000 C   0  0  0  0  0  0  0  0  0  0  0  0
    1.8639   -4.9624    0.0000 C   0  0  0  0  0  0  0  0  0  0  0  0
    0.5649   -5.7124    0.0000 C   0  0  0  0  0  0  0  0  0  0  0  0
   -0.7342   -4.9624    0.0000 C   0  0  0  0  0  0  0  0  0  0  0  0
   -2.0332   -5.7124    0.0000 C   0  0  0  0  0  0  0  0  0  0  0  0
   -3.3322   -4.9624    0.0000 C   0  0  0  0  0  0  0  0  0  0  0  0
   -4.6313   -5.7124    0.0000 C   0  0  0  0  0  0  0  0  0  0  0  0
   -8.8549   -7.5169    0.0000 C   0  0  0  0  0  0  0  0  0  0  0  0
   -5.9303   -4.9624    0.0000 C   0  0  0  0  0  0  0  0  0  0  0  0
   -7.3951   -7.2053    0.0000 C   0  0  0  0  0  0  0  0  0  0  0  0
  -11.0966   -6.0604    0.0000 C   0  0  0  0  0  0  0  0  0  0  0  0
   -9.6049   -6.2179    0.0000 C   0  0  0  0  0  0  0  0  0  0  0  0
   -8.6051   -5.1095    0.0000 C   0  0  0  0  0  0  0  0  0  0  0  0
   -7.2294   -5.7124    0.0000 N   0  0  0  0  0  0  0  0  0  0  0  0
  -11.7061   -4.6898    0.0000 O   0  0  0  0  0  0  0  0  0  0  0  0
   -8.9206   -3.6431    0.0000 O   0  0  0  0  0  0  0  0  0  0  0  0
  3  1  1  0
  4  3  1  0
  5  4  1  0
  6  5  1  0
  7  6  1  0
  8  7  1  0
  9  8  1  0
 10  9  1  0
 11 10  1  0
 12 11  1  0
 14 12  1  0
 15 13  1  0
 16  2  1  0
 17 13  1  0
 17 16  1  0
 18 17  1  0
 19 14  1  0
 19 15  1  0
 19 18  1  0
 20 16  2  0
 21 18  2  0
M  END
>  <NAME>  (5202) 
3-ACETYL-N-DODECYL-2-PYRROLIDONE

>  <SYNONYMS>  (5202) 


>  <SPECTRUM TYPE>  (5202) 
MS1

>  <INSTRUMENT TYPE>  (5202) 
EI-B

>  <INSTRUMENT>  (5202) 
HITACHI RMU-6E

>  <ION MODE>  (5202) 
P

>  <INCHIKEY>  (5202) 
YRVCRDDXHVQXDT-UHFFFAOYSA-N

>  <FORMULA>  (5202) 
C18H33NO2

>  <EXACT MASS>  (5202) 
295.251129296

>  <MW>  (5202) 
295

>  <ID>  (5202) 
JP004136

>  <CONTRIBUTOR>  (5202) 
University of Tokyo Team, {Faculty of Engineering, University of Tokyo

>  <COMMENT>  (5202) 
SMILES=CCCCCCCCCCCCN(C1)C(=O)C(C(C)=O)C1
InChI=InChI=1S/C18H33NO2/c1-3-4-5-6-7-8-9-10-11-12-14-19-15-13-17(16(2)20)18(19)21/h17H,3-15H2,1-2H3
computed SMILES=O=C1N(CCCCCCCCCCCC)CCC1C(=O)C
accession=JP004136
date=2016.01.19 (Created 2008.10.21, modified 2011.05.06)
author=MASS SPECTROSCOPY SOC. OF JAPAN (MSSJ)
license=CC BY-NC-SA
exact mass=295.25113
ionization energy=70 eV
ion type=[M]+*
computed spectral entropy=3.9136134011339734
computed normalized entropy=0.7560858173219688
SPLASH=splash10-0005-9100000000-0da85a7633655c1c85a7
submitter=submitter = University of Tokyo Team (Faculty of Engineering, University of Tokyo)
MoNA Rating=3.75

>  <NUM PEAKS>  (5202) 
177

>  <MASS SPECTRAL PEAKS>  (5202) 
27 10
28 8.4
29 18
30 9.5
31 2.5
32 0.4
37 0.4
38 0.06
39 9.8
40 1.4
41 42
42 1.36
43 42
44 18.4
45 7.2
46 0.03
50 0.6
51 1.2
52 0.8
53 0.56
54 5
55 27
56 11.8
57 1.1
58 4
59 2.6
60 7
61 0.03
65 0.8
66 0.8
67 4.4
68 0.36
69 16.8
70 20
71 3.6
72 1.58
73 21
74 1
77 0.8
78 0.07
79 1
80 3.2
81 2.5
82 0.62
83 11
84 13
85 3.2
86 1.8
87 5.6
88 0.3
91 0.4
92 0.04
93 1.4
94 13.8
95 31
96 0.74
97 6
98 99.99
99 44
100 1.26
101 3.6
102 0.3
106 0.8
107 0.14
108 7
109 2.6
110 1.7
111 0.18
112 12.4
113 5
114 9.8
115 0.17
116 0.2
121 0.7
122 3
123 0.2
124 1.6
125 0.6
126 10.4
127 0.38
128 4
129 1.4
130 0.2
133 0.02
134 0.8
135 0.5
136 3.2
137 0.14
138 1.2
139 0.3
140 5.4
141 0.2
142 4.4
143 0.8
144 0.2
146 0.03
148 0.3
149 0.3
150 2.8
151 0.08
152 0.6
153 0.3
154 3.4
155 0.14
156 3.6
157 0.7
162 0.3
163 0.02
164 2.4
165 0.5
166 0.6
168 0.3
169 1.2
170 2.8
171 0.6
178 0.2
179 0.5
180 0.3
181 0.3
182 0.3
183 0.7
184 3.2
185 2.8
186 0.08
192 1.6
193 0.3
194 0.3
196 0.28
197 1
198 2.8
199 0.3
206 0.13
207 0.3
208 0.3
210 2.6
211 0.07
212 3.4
213 0.7
220 1.2
221 0.03
222 0.2
224 1.7
225 0.6
226 0.05
227 8.8
228 2.2
229 0.3
234 0.45
235 1
236 1.4
237 0.3
238 1.2
239 2.5
240 0.3
248 2.2
249 1.1
250 2.6
251 0.8
252 2.6
253 1.58
254 3.4
255 0.7
262 0.5
263 0.03
264 0.2
265 0.2
266 1.3
267 0.03
268 0.2
276 0.3
277 0.7
278 0.03
279 0.2
280 0.3
281 0.3
294 0.03
295 0.2

$$$$

     RDKit          2D

 19 19  0  0  0  0  0  0  0  0999 V2000
    7.4010   -6.5298    0.0000 C   0  0  0  0  0  0  0  0  0  0  0  0
  -12.0547   -6.8779    0.0000 C   0  0  0  0  0  0  0  0  0  0  0  0
    6.1019   -5.7798    0.0000 C   0  0  0  0  0  0  0  0  0  0  0  0
    4.8029   -6.5298    0.0000 C   0  0  0  0  0  0  0  0  0  0  0  0
    3.5039   -5.7798    0.0000 C   0  0  0  0  0  0  0  0  0  0  0  0
    2.2048   -6.5298    0.0000 C   0  0  0  0  0  0  0  0  0  0  0  0
    0.9058   -5.7798    0.0000 C   0  0  0  0  0  0  0  0  0  0  0  0
   -0.3933   -6.5298    0.0000 C   0  0  0  0  0  0  0  0  0  0  0  0
   -1.6923   -5.7798    0.0000 C   0  0  0  0  0  0  0  0  0  0  0  0
   -2.9913   -6.5298    0.0000 C   0  0  0  0  0  0  0  0  0  0  0  0
   -4.2904   -5.7798    0.0000 C   0  0  0  0  0  0  0  0  0  0  0  0
   -5.5894   -6.5298    0.0000 C   0  0  0  0  0  0  0  0  0  0  0  0
   -9.8130   -8.3343    0.0000 C   0  0  0  0  0  0  0  0  0  0  0  0
   -6.8884   -5.7798    0.0000 C   0  0  0  0  0  0  0  0  0  0  0  0
   -8.3532   -8.0227    0.0000 C   0  0  0  0  0  0  0  0  0  0  0  0
  -10.5630   -7.0353    0.0000 C   0  0  0  0  0  0  0  0  0  0  0  0
   -9.5632   -5.9269    0.0000 C   0  0  0  0  0  0  0  0  0  0  0  0
   -8.1875   -6.5298    0.0000 N   0  0  0  0  0  0  0  0  0  0  0  0
   -9.8788   -4.4605    0.0000 O   0  0  0  0  0  0  0  0  0  0  0  0
  3  1  1  0
  4  3  1  0
  5  4  1  0
  6  5  1  0
  7  6  1  0
  8  7  1  0
  9  8  1  0
 10  9  1  0
 11 10  1  0
 12 11  1  0
 14 12  1  0
 15 13  1  0
 16  2  1  0
 16 13  1  0
 17 16  1  0
 18 14  1  0
 18 15  1  0
 18 17  1  0
 19 17  2  0
M  END
>  <NAME>  (5203) 
N-DODECYL-3-METHYL-2-PYRROLIDONE

>  <SYNONYMS>  (5203) 


>  <SPECTRUM TYPE>  (5203) 
MS1

>  <INSTRUMENT TYPE>  (5203) 
EI-B

>  <INSTRUMENT>  (5203) 
HITACHI RMU-6E

>  <ION MODE>  (5203) 
P

>  <INCHIKEY>  (5203) 
FYOOQDICUASUJZ-UHFFFAOYSA-N

>  <FORMULA>  (5203) 
C17H33NO

>  <EXACT MASS>  (5203) 
267.256214676

>  <MW>  (5203) 
267

>  <ID>  (5203) 
JP004135

>  <CONTRIBUTOR>  (5203) 
University of Tokyo Team, {Faculty of Engineering, University of Tokyo

>  <COMMENT>  (5203) 
SMILES=CCCCCCCCCCCCN(C1)C(=O)C(C)C1
InChI=InChI=1S/C17H33NO/c1-3-4-5-6-7-8-9-10-11-12-14-18-15-13-16(2)17(18)19/h16H,3-15H2,1-2H3
computed SMILES=O=C1N(CCCCCCCCCCCC)CCC1C
accession=JP004135
date=2016.01.19 (Created 2008.10.21, modified 2011.05.06)
author=MASS SPECTROSCOPY SOC. OF JAPAN (MSSJ)
license=CC BY-NC-SA
exact mass=267.25621
ionization energy=70 eV
ion type=[M]+*
computed spectral entropy=3.2216201682038355
computed normalized entropy=0.7195393828282464
SPLASH=splash10-03ec-8930000000-05261f01de9c91f57ccc
submitter=submitter = University of Tokyo Team (Faculty of Engineering, University of Tokyo)
MoNA Rating=3.75

>  <NUM PEAKS>  (5203) 
88

>  <MASS SPECTRAL PEAKS>  (5203) 
26 0.4
27 4.2
28 7
29 1.1
30 16
31 0.4
32 0.6
39 0.34
40 0.8
41 26
42 16
43 1.74
44 4.4
45 0.8
53 1.2
54 0.14
55 21.4
56 12.8
57 7.4
58 0.1
67 1.6
68 1.2
69 4.2
70 0.28
71 1.4
72 0.6
74 0.8
81 0.06
82 2.4
83 2
84 52
85 0.34
86 2.2
87 2.2
96 0.7
97 0.05
98 4.3
99 1.5
100 11.8
101 0.1
110 0.6
111 0.6
112 99.99
113 9.04
114 7
115 0.6
124 0.4
125 0.03
126 20.6
127 7.8
128 1.4
138 0.06
139 0.2
140 21.6
141 8.8
142 0.15
154 9.8
155 4
156 0.6
168 0.64
169 1.8
170 0.6
182 4.4
183 0.12
184 0.6
185 0.4
196 5.2
197 0.12
198 0.4
210 3.8
211 1.4
212 0.16
213 0.2
224 3
225 2.4
226 0.04
238 2.8
239 0.6
240 0.2
241 0.1
242 0.2
250 0.3
252 1.4
253 0.04
266 1.8
267 49
268 9
269 1

$$$$

     RDKit          2D

 19 19  0  0  0  0  0  0  0  0999 V2000
   12.0322   -6.3103    0.0000 C   0  0  0  0  0  0  0  0  0  0  0  0
   -2.6098   -3.8110    0.0000 C   0  0  0  0  0  0  0  0  0  0  0  0
   10.7331   -7.0603    0.0000 C   0  0  0  0  0  0  0  0  0  0  0  0
    9.4341   -6.3103    0.0000 C   0  0  0  0  0  0  0  0  0  0  0  0
    8.1351   -7.0603    0.0000 C   0  0  0  0  0  0  0  0  0  0  0  0
    6.8360   -6.3103    0.0000 C   0  0  0  0  0  0  0  0  0  0  0  0
    5.5370   -7.0603    0.0000 C   0  0  0  0  0  0  0  0  0  0  0  0
    4.2379   -6.3103    0.0000 C   0  0  0  0  0  0  0  0  0  0  0  0
    2.9389   -7.0603    0.0000 C   0  0  0  0  0  0  0  0  0  0  0  0
    1.6399   -6.3103    0.0000 C   0  0  0  0  0  0  0  0  0  0  0  0
    0.3408   -7.0603    0.0000 C   0  0  0  0  0  0  0  0  0  0  0  0
   -0.9582   -6.3103    0.0000 C   0  0  0  0  0  0  0  0  0  0  0  0
   -5.1818   -4.5058    0.0000 C   0  0  0  0  0  0  0  0  0  0  0  0
   -5.9318   -5.8048    0.0000 C   0  0  0  0  0  0  0  0  0  0  0  0
   -2.2573   -7.0603    0.0000 C   0  0  0  0  0  0  0  0  0  0  0  0
   -3.7221   -4.8174    0.0000 C   0  0  0  0  0  0  0  0  0  0  0  0
   -4.9321   -6.9132    0.0000 C   0  0  0  0  0  0  0  0  0  0  0  0
   -3.5563   -6.3103    0.0000 N   0  0  0  0  0  0  0  0  0  0  0  0
   -5.2476   -8.3797    0.0000 O   0  0  0  0  0  0  0  0  0  0  0  0
  3  1  1  0
  4  3  1  0
  5  4  1  0
  6  5  1  0
  7  6  1  0
  8  7  1  0
  9  8  1  0
 10  9  1  0
 11 10  1  0
 12 11  1  0
 14 13  1  0
 15 12  1  0
 16  2  1  0
 16 13  1  0
 17 14  1  0
 18 15  1  0
 18 16  1  0
 18 17  1  0
 19 17  2  0
M  END
>  <NAME>  (5204) 
N-DODECYL-5-METHYL-2-PYRROLIDONE

>  <SYNONYMS>  (5204) 


>  <SPECTRUM TYPE>  (5204) 
MS1

>  <INSTRUMENT TYPE>  (5204) 
EI-B

>  <INSTRUMENT>  (5204) 
HITACHI RMU-6E

>  <ION MODE>  (5204) 
P

>  <INCHIKEY>  (5204) 
WFUJIEKVPAOBIK-UHFFFAOYSA-N

>  <FORMULA>  (5204) 
C17H33NO

>  <EXACT MASS>  (5204) 
267.256214676

>  <MW>  (5204) 
267

>  <ID>  (5204) 
JP004134

>  <CONTRIBUTOR>  (5204) 
University of Tokyo Team, {Faculty of Engineering, University of Tokyo

>  <COMMENT>  (5204) 
SMILES=CCCCCCCCCCCCN(C(C)1)C(=O)CC1
InChI=InChI=1S/C17H33NO/c1-3-4-5-6-7-8-9-10-11-12-15-18-16(2)13-14-17(18)19/h16H,3-15H2,1-2H3
computed SMILES=O=C1N(CCCCCCCCCCCC)C(C)CC1
accession=JP004134
date=2016.01.19 (Created 2008.10.21, modified 2011.05.06)
author=MASS SPECTROSCOPY SOC. OF JAPAN (MSSJ)
license=CC BY-NC-SA
exact mass=267.25621
ionization energy=70 eV
ion type=[M]+*
computed spectral entropy=3.3578606744458197
computed normalized entropy=0.7340049874679393
SPLASH=splash10-03di-7910000000-b1f12fb084349a131c46
submitter=submitter = University of Tokyo Team (Faculty of Engineering, University of Tokyo)
MoNA Rating=3.75

>  <NUM PEAKS>  (5204) 
97

>  <MASS SPECTRAL PEAKS>  (5204) 
27 6.8
28 9.2
29 16
30 6.74
31 1.4
39 5.2
40 1.2
41 3.18
42 7.8
43 11.4
45 5
53 0.24
54 2.4
55 30.4
56 20.4
57 1.14
58 1.4
59 1.6
67 4.2
68 0.2
69 9
70 5.6
71 2.8
72 0.24
73 0.8
79 0.4
80 0.4
81 0.1
82 3.4
83 13
84 18
85 0.6
86 4.6
87 0.6
94 1
95 0.04
96 1.4
97 1.8
98 16
99 0.22
100 10.4
101 0.6
110 1
111 0.16
112 99.99
113 71
114 6.2
115 0.04
124 0.6
125 0.4
126 15
127 0.8
128 1.2
137 0.2
138 1.2
139 0.04
140 18
141 5.2
142 1.2
152 0.04
153 0.2
154 8.4
155 2.4
156 0.1
166 0.4
167 0.3
168 10
169 0.26
170 0.4
180 0.4
182 6
183 0.14
184 1
185 1.6
186 0.6
196 0.64
197 1.2
198 0.8
199 0.2
210 0.46
211 1.2
212 0.8
213 0.4
224 0.36
225 1.2
226 0.2
238 3.6
239 0.06
250 1.2
251 0.2
252 17.8
253 0.34
254 0.2
266 2
267 26
268 0.6
269 0.8

$$$$

     RDKit          2D

 16 16  0  0  0  0  0  0  0  0999 V2000
    8.7846   -5.1853    0.0000 C   0  0  0  0  0  0  0  0  0  0  0  0
   -1.9603   -1.9360    0.0000 C   0  0  0  0  0  0  0  0  0  0  0  0
    7.4855   -4.4353    0.0000 C   0  0  0  0  0  0  0  0  0  0  0  0
    6.1865   -5.1853    0.0000 C   0  0  0  0  0  0  0  0  0  0  0  0
    4.8875   -4.4353    0.0000 C   0  0  0  0  0  0  0  0  0  0  0  0
    3.5884   -5.1853    0.0000 C   0  0  0  0  0  0  0  0  0  0  0  0
    2.2894   -4.4353    0.0000 C   0  0  0  0  0  0  0  0  0  0  0  0
    0.9903   -5.1853    0.0000 C   0  0  0  0  0  0  0  0  0  0  0  0
   -0.3087   -4.4353    0.0000 C   0  0  0  0  0  0  0  0  0  0  0  0
   -4.5323   -2.6308    0.0000 C   0  0  0  0  0  0  0  0  0  0  0  0
   -5.2823   -3.9298    0.0000 C   0  0  0  0  0  0  0  0  0  0  0  0
   -1.6077   -5.1853    0.0000 C   0  0  0  0  0  0  0  0  0  0  0  0
   -3.0725   -2.9424    0.0000 C   0  0  0  0  0  0  0  0  0  0  0  0
   -4.2825   -5.0382    0.0000 C   0  0  0  0  0  0  0  0  0  0  0  0
   -2.9068   -4.4353    0.0000 N   0  0  0  0  0  0  0  0  0  0  0  0
   -4.5981   -6.5047    0.0000 O   0  0  0  0  0  0  0  0  0  0  0  0
  3  1  1  0
  4  3  1  0
  5  4  1  0
  6  5  1  0
  7  6  1  0
  8  7  1  0
  9  8  1  0
 11 10  1  0
 12  9  1  0
 13  2  1  0
 13 10  1  0
 14 11  1  0
 15 12  1  0
 15 13  1  0
 15 14  1  0
 16 14  2  0
M  END
>  <NAME>  (5205) 
5-METHYL-N-NONYL-2-PYRROLIDONE

>  <SYNONYMS>  (5205) 


>  <SPECTRUM TYPE>  (5205) 
MS1

>  <INSTRUMENT TYPE>  (5205) 
EI-B

>  <INSTRUMENT>  (5205) 
HITACHI RMU-6E

>  <ION MODE>  (5205) 
P

>  <INCHIKEY>  (5205) 
XUFUPFVDXQDCNH-UHFFFAOYSA-N

>  <FORMULA>  (5205) 
C14H27NO

>  <EXACT MASS>  (5205) 
225.20926448400002

>  <MW>  (5205) 
225

>  <ID>  (5205) 
JP004133

>  <CONTRIBUTOR>  (5205) 
University of Tokyo Team, {Faculty of Engineering, University of Tokyo

>  <COMMENT>  (5205) 
computed SMILES=O=C1N(CCCCCCCCC)C(C)CC1
SMILES=CCCCCCCCCN(C(C)1)C(=O)CC1
InChI=InChI=1S/C14H27NO/c1-3-4-5-6-7-8-9-12-15-13(2)10-11-14(15)16/h13H,3-12H2,1-2H3
accession=JP004133
date=2016.01.19 (Created 2008.10.21, modified 2011.05.06)
author=MASS SPECTROSCOPY SOC. OF JAPAN (MSSJ)
license=CC BY-NC-SA
exact mass=225.20926
ionization energy=70 eV
ion type=[M]+*
computed spectral entropy=2.9490303652997545
computed normalized entropy=0.6789048032545802
SPLASH=splash10-03di-5910000000-57e6dee087eaa7fcd7bf
submitter=submitter = University of Tokyo Team (Faculty of Engineering, University of Tokyo)
MoNA Rating=3.75

>  <NUM PEAKS>  (5205) 
77

>  <MASS SPECTRAL PEAKS>  (5205) 
27 4
28 5
29 9
30 0.68
39 2.8
40 0.6
41 15
42 0.48
43 8.4
44 4
45 0.4
53 0.14
54 1.6
55 17
56 7.6
57 0.6
58 1.4
67 3
68 1.6
69 0.3
70 2.4
71 2.4
72 0.8
73 0.04
80 0.4
81 0.8
82 3
83 1.1
84 19.4
85 2.4
86 1
94 0.08
95 0.4
96 0.8
97 0.8
98 1.44
99 1.6
100 5.6
101 0.4
110 0.08
111 0.8
112 99.99
113 55
114 0.44
115 0.4
124 0.6
125 0.2
126 1.18
127 3.2
128 0.4
138 0.6
139 0.02
140 16.2
141 3.2
142 0.8
154 0.58
155 1.6
156 3.8
157 0.4
168 0.44
169 1.2
170 0.8
182 2.8
183 0.08
184 0.2
196 4
197 1
198 0.02
208 1
209 0.2
210 17
211 0.24
212 0.2
224 1.2
225 23
226 0.4
227 0.4

$$$$

     RDKit          2D

 17 17  0  0  0  0  0  0  0  0999 V2000
   10.0836   -5.1853    0.0000 C   0  0  0  0  0  0  0  0  0  0  0  0
   -1.9603   -2.6860    0.0000 C   0  0  0  0  0  0  0  0  0  0  0  0
    8.7846   -5.9353    0.0000 C   0  0  0  0  0  0  0  0  0  0  0  0
    7.4855   -5.1853    0.0000 C   0  0  0  0  0  0  0  0  0  0  0  0
    6.1865   -5.9353    0.0000 C   0  0  0  0  0  0  0  0  0  0  0  0
    4.8875   -5.1853    0.0000 C   0  0  0  0  0  0  0  0  0  0  0  0
    3.5884   -5.9353    0.0000 C   0  0  0  0  0  0  0  0  0  0  0  0
    2.2894   -5.1853    0.0000 C   0  0  0  0  0  0  0  0  0  0  0  0
    0.9903   -5.9353    0.0000 C   0  0  0  0  0  0  0  0  0  0  0  0
   -0.3087   -5.1853    0.0000 C   0  0  0  0  0  0  0  0  0  0  0  0
   -4.5323   -3.3808    0.0000 C   0  0  0  0  0  0  0  0  0  0  0  0
   -5.2823   -4.6798    0.0000 C   0  0  0  0  0  0  0  0  0  0  0  0
   -1.6077   -5.9353    0.0000 C   0  0  0  0  0  0  0  0  0  0  0  0
   -3.0725   -3.6924    0.0000 C   0  0  0  0  0  0  0  0  0  0  0  0
   -4.2825   -5.7882    0.0000 C   0  0  0  0  0  0  0  0  0  0  0  0
   -2.9068   -5.1853    0.0000 N   0  0  0  0  0  0  0  0  0  0  0  0
   -4.5981   -7.2547    0.0000 O   0  0  0  0  0  0  0  0  0  0  0  0
  3  1  1  0
  4  3  1  0
  5  4  1  0
  6  5  1  0
  7  6  1  0
  8  7  1  0
  9  8  1  0
 10  9  1  0
 12 11  1  0
 13 10  1  0
 14  2  1  0
 14 11  1  0
 15 12  1  0
 16 13  1  0
 16 14  1  0
 16 15  1  0
 17 15  2  0
M  END
>  <NAME>  (5206) 
N-DECYL-5-METHYL-2-PYRROLIDONE

>  <SYNONYMS>  (5206) 


>  <SPECTRUM TYPE>  (5206) 
MS1

>  <INSTRUMENT TYPE>  (5206) 
EI-B

>  <INSTRUMENT>  (5206) 
HITACHI RMU-6E

>  <ION MODE>  (5206) 
P

>  <INCHIKEY>  (5206) 
XNNZELUYRQQXRD-UHFFFAOYSA-N

>  <FORMULA>  (5206) 
C15H29NO

>  <EXACT MASS>  (5206) 
239.224914548

>  <MW>  (5206) 
239

>  <ID>  (5206) 
JP004132

>  <CONTRIBUTOR>  (5206) 
University of Tokyo Team, {Faculty of Engineering, University of Tokyo

>  <COMMENT>  (5206) 
SMILES=CCCCCCCCCCN(C(C)1)C(=O)CC1
InChI=InChI=1S/C15H29NO/c1-3-4-5-6-7-8-9-10-13-16-14(2)11-12-15(16)17/h14H,3-13H2,1-2H3
computed SMILES=O=C1N(CCCCCCCCCC)C(C)CC1
accession=JP004132
date=2016.01.19 (Created 2008.10.21, modified 2011.05.06)
author=MASS SPECTROSCOPY SOC. OF JAPAN (MSSJ)
license=CC BY-NC-SA
exact mass=239.22491
ionization energy=70 eV
ion type=[M]+*
computed spectral entropy=2.905008176500122
computed normalized entropy=0.655637167679442
SPLASH=splash10-03di-4910000000-b3f647a4015513422ff8
submitter=submitter = University of Tokyo Team (Faculty of Engineering, University of Tokyo)
MoNA Rating=3.75

>  <NUM PEAKS>  (5206) 
84

>  <MASS SPECTRAL PEAKS>  (5206) 
26 0.3
27 3
28 4
29 0.8
30 14
31 0.3
32 0.3
39 0.18
40 0.6
41 16
42 3.8
43 0.89
44 3
45 0.8
53 1
54 0.08
55 18
56 7.8
57 4.6
58 0.08
59 0.3
67 1.8
68 1
69 0.28
70 2
71 1.6
72 0.6
73 0.03
81 0.4
82 2.6
83 9.2
84 1.48
85 2.8
86 1
87 0.2
94 0.04
95 0.2
96 0.3
97 1
98 1.42
99 1.6
100 4
101 0.4
110 0.05
111 0.6
112 99.99
113 59.6
114 0.32
115 0.2
124 0.4
126 11.8
127 0.3
128 0.5
138 0.6
140 14.6
141 0.26
142 0.4
152 0.2
154 5
155 0.22
156 0.2
157 0.2
168 6
169 0.12
170 0.6
182 2.5
183 1.7
184 0.17
196 2.5
197 1.7
198 0.1
199 0.02
210 2.4
211 0.6
212 0.2
223 0.06
224 0.1
225 14.8
226 0.1
238 0.12
239 24
240 3.2
241 0.3
242 0.2

$$$$

     RDKit          2D

 21 21  0  0  0  0  0  0  0  0999 V2000
   13.9807   -7.4353    0.0000 C   0  0  0  0  0  0  0  0  0  0  0  0
   -3.2594   -4.9360    0.0000 C   0  0  0  0  0  0  0  0  0  0  0  0
   12.6817   -8.1853    0.0000 C   0  0  0  0  0  0  0  0  0  0  0  0
   11.3826   -7.4353    0.0000 C   0  0  0  0  0  0  0  0  0  0  0  0
   10.0836   -8.1853    0.0000 C   0  0  0  0  0  0  0  0  0  0  0  0
    8.7846   -7.4353    0.0000 C   0  0  0  0  0  0  0  0  0  0  0  0
    7.4855   -8.1853    0.0000 C   0  0  0  0  0  0  0  0  0  0  0  0
    6.1865   -7.4353    0.0000 C   0  0  0  0  0  0  0  0  0  0  0  0
    4.8875   -8.1853    0.0000 C   0  0  0  0  0  0  0  0  0  0  0  0
    3.5884   -7.4353    0.0000 C   0  0  0  0  0  0  0  0  0  0  0  0
    2.2894   -8.1853    0.0000 C   0  0  0  0  0  0  0  0  0  0  0  0
    0.9903   -7.4353    0.0000 C   0  0  0  0  0  0  0  0  0  0  0  0
   -0.3087   -8.1853    0.0000 C   0  0  0  0  0  0  0  0  0  0  0  0
   -1.6077   -7.4353    0.0000 C   0  0  0  0  0  0  0  0  0  0  0  0
   -5.8313   -5.6308    0.0000 C   0  0  0  0  0  0  0  0  0  0  0  0
   -6.5813   -6.9298    0.0000 C   0  0  0  0  0  0  0  0  0  0  0  0
   -2.9068   -8.1853    0.0000 C   0  0  0  0  0  0  0  0  0  0  0  0
   -4.3716   -5.9424    0.0000 C   0  0  0  0  0  0  0  0  0  0  0  0
   -5.5816   -8.0382    0.0000 C   0  0  0  0  0  0  0  0  0  0  0  0
   -4.2058   -7.4353    0.0000 N   0  0  0  0  0  0  0  0  0  0  0  0
   -5.8971   -9.5047    0.0000 O   0  0  0  0  0  0  0  0  0  0  0  0
  3  1  1  0
  4  3  1  0
  5  4  1  0
  6  5  1  0
  7  6  1  0
  8  7  1  0
  9  8  1  0
 10  9  1  0
 11 10  1  0
 12 11  1  0
 13 12  1  0
 14 13  1  0
 16 15  1  0
 17 14  1  0
 18  2  1  0
 18 15  1  0
 19 16  1  0
 20 17  1  0
 20 18  1  0
 20 19  1  0
 21 19  2  0
M  END
>  <NAME>  (5207) 
5-METHYL-N-TETRADECYL-2-PYRROLIDONE

>  <SYNONYMS>  (5207) 


>  <SPECTRUM TYPE>  (5207) 
MS1

>  <INSTRUMENT TYPE>  (5207) 
EI-B

>  <INSTRUMENT>  (5207) 
HITACHI RMU-6E

>  <ION MODE>  (5207) 
P

>  <INCHIKEY>  (5207) 
SJXQIZZEFURXKK-UHFFFAOYSA-N

>  <FORMULA>  (5207) 
C19H37NO

>  <EXACT MASS>  (5207) 
295.287514804

>  <MW>  (5207) 
295

>  <ID>  (5207) 
JP004131

>  <CONTRIBUTOR>  (5207) 
University of Tokyo Team, {Faculty of Engineering, University of Tokyo

>  <COMMENT>  (5207) 
SMILES=CCCCCCCCCCCCCCN(C(C)1)C(=O)CC1
InChI=InChI=1S/C19H37NO/c1-3-4-5-6-7-8-9-10-11-12-13-14-17-20-18(2)15-16-19(20)21/h18H,3-17H2,1-2H3
computed SMILES=O=C1N(CCCCCCCCCCCCCC)C(C)CC1
accession=JP004131
date=2016.01.19 (Created 2008.10.21, modified 2011.05.06)
author=MASS SPECTROSCOPY SOC. OF JAPAN (MSSJ)
license=CC BY-NC-SA
exact mass=295.28751
ionization energy=70 eV
ion type=[M]+*
computed spectral entropy=3.5658052052910656
computed normalized entropy=0.7904935190598461
SPLASH=splash10-01qc-9420000000-0a416e7bd18546be4b99
submitter=submitter = University of Tokyo Team (Faculty of Engineering, University of Tokyo)
MoNA Rating=3.75

>  <NUM PEAKS>  (5207) 
91

>  <MASS SPECTRAL PEAKS>  (5207) 
27 5.6
28 10.4
29 14.4
30 99.99
31 2.8
32 0.8
39 3.8
40 0.18
41 27.4
42 8
43 25.4
44 2
45 10
53 1.8
54 2
55 2.7
56 19
57 14
58 2.4
59 0.3
67 3
68 2.4
69 11.8
70 0.68
71 4.6
72 4.8
73 2.2
74 0.14
81 1
82 3
83 10.4
84 0.98
85 5.2
86 7.8
87 1.2
94 0.04
95 0.6
97 1
98 11
99 0.2
100 10
101 0.8
111 1.4
112 8.04
113 61
114 6
115 1
124 0.1
125 0.8
126 14.4
127 10
128 0.2
138 0.8
140 14.2
141 5.4
142 0.24
154 9
155 2.8
156 1.6
168 1.26
169 2.8
170 1.2
182 6
183 0.2
184 1.2
185 1
196 5.4
197 0.16
198 1.2
210 4.8
211 1.6
212 0.18
213 3.8
214 1.2
224 5
225 0.12
238 3.4
239 1.2
240 1.2
252 0.36
253 1.2
266 3.4
267 5.4
268 0.12
278 0.8
280 11.8
281 2.6
294 0.22
295 23.4
296 6
297 0.8

$$$$

     RDKit          2D

 17 17  0  0  0  0  0  0  0  0999 V2000
    2.5987    3.0002    0.0000 C   0  0  0  0  0  0  0  0  0  0  0  0
   -3.1483    0.5487    0.0000 C   0  0  0  0  0  0  0  0  0  0  0  0
   -5.1972   -0.0006    0.0000 C   0  0  0  0  0  0  0  0  0  0  0  0
    6.4962    0.7508    0.0000 C   0  0  0  0  0  0  0  0  0  0  0  0
   -1.3000    0.7500    0.0000 C   0  0  0  0  0  0  0  0  0  0  0  0
   -0.0000   -1.5000    0.0000 C   0  0  0  0  0  0  0  0  0  0  0  0
    0.0000    1.5000    0.0000 C   0  0  0  0  0  0  0  0  0  0  0  0
    1.3000   -0.7500    0.0000 C   0  0  0  0  0  0  0  0  0  0  0  0
   -2.5989   -1.5002    0.0000 C   0  0  0  0  0  0  0  0  0  0  0  0
    2.5989    1.5002    0.0000 C   0  0  0  0  0  0  0  0  0  0  0  0
   -1.3000   -0.7500    0.0000 C   0  0  0  0  0  0  0  0  0  0  0  0
    1.3000    0.7500    0.0000 C   0  0  0  0  0  0  0  0  0  0  0  0
    3.8981    0.7504    0.0000 C   0  0  0  0  0  0  0  0  0  0  0  0
   -3.8981   -0.7504    0.0000 C   0  0  0  0  0  0  0  0  0  0  0  0
    3.8983   -0.7496    0.0000 O   0  0  0  0  0  0  0  0  0  0  0  0
   -4.6479   -2.0496    0.0000 O   0  0  0  0  0  0  0  0  0  0  0  0
    5.1970    1.5006    0.0000 O   0  0  0  0  0  0  0  0  0  0  0  0
  7  5  2  0
  8  6  1  0
 10  1  1  0
 11  5  1  0
 11  6  2  0
 11  9  1  0
 12  7  1  0
 12  8  2  0
 12 10  1  0
 13 10  1  0
 14  2  1  0
 14  3  1  0
 14  9  1  0
 15 13  2  0
 16 14  1  0
 17  4  1  0
 17 13  1  0
M  END
>  <NAME>  (5208) 
METHYL 2-(4-(2-HYDROXY-2-METHYLPROPYL)PHENYL)PROPIONATE

>  <SYNONYMS>  (5208) 


>  <SPECTRUM TYPE>  (5208) 
MS1

>  <INSTRUMENT TYPE>  (5208) 
EI-B

>  <INSTRUMENT>  (5208) 
HITACHI RMU-6E

>  <ION MODE>  (5208) 
P

>  <INCHIKEY>  (5208) 
GVQBZZMJMBIALH-UHFFFAOYSA-N

>  <FORMULA>  (5208) 
C14H20O3

>  <EXACT MASS>  (5208) 
236.14124449999997

>  <MW>  (5208) 
236

>  <ID>  (5208) 
JP004130

>  <CONTRIBUTOR>  (5208) 
University of Tokyo Team, {Faculty of Engineering, University of Tokyo

>  <COMMENT>  (5208) 
SMILES=COC(=O)C(C)c(c1)ccc(c1)CC(C)(C)O
InChI=InChI=1S/C14H20O3/c1-10(13(15)17-4)12-7-5-11(6-8-12)9-14(2,3)16/h5-8,10,16H,9H2,1-4H3
computed SMILES=O=C(OC)C(C1=CC=C(C=C1)CC(O)(C)C)C
accession=JP004130
date=2016.01.19 (Created 2008.10.21, modified 2011.05.06)
author=YAMAMOTO M, DEP. CHEMISTRY, FAC. SCIENCE, NARA WOMEN'S UNIV.
license=CC BY-NC-SA
exact mass=236.14124
ionization energy=70 eV
ion type=[M]+*
computed spectral entropy=2.5591652139914034
computed normalized entropy=0.6985456943777709
SPLASH=splash10-014l-7900000000-5a002f9e69828c625fd4
submitter=submitter = University of Tokyo Team (Faculty of Engineering, University of Tokyo)
MoNA Rating=3.75

>  <NUM PEAKS>  (5208) 
39

>  <MASS SPECTRAL PEAKS>  (5208) 
15 4.2
27 2.4
29 2.7
31 8.9
39 4.5
41 7.2
43 30.6
51 0.23
58 4.6
59 75.7
60 2.6
63 0.18
65 3.9
77 5.8
78 2.7
79 0.24
91 86.6
92 7.3
103 4.2
104 0.26
105 6.9
115 7.5
116 2.8
117 2.35
118 93.7
119 99.99
120 9.4
121 0.29
128 1.9
131 2.5
159 4.6
161 1.7
162 2.4
177 9.2
178 57
179 0.7
219 2.8
221 2.2
236 0.3

$$$$

     RDKit          2D

 17 17  0  0  0  0  0  0  0  0999 V2000
    2.5987    3.0002    0.0000 C   0  0  0  0  0  0  0  0  0  0  0  0
   -3.1483    0.5487    0.0000 C   0  0  0  0  0  0  0  0  0  0  0  0
   -5.1972   -0.0006    0.0000 C   0  0  0  0  0  0  0  0  0  0  0  0
    6.4962    0.7508    0.0000 C   0  0  0  0  0  0  0  0  0  0  0  0
   -1.3000    0.7500    0.0000 C   0  0  0  0  0  0  0  0  0  0  0  0
   -0.0000   -1.5000    0.0000 C   0  0  0  0  0  0  0  0  0  0  0  0
    0.0000    1.5000    0.0000 C   0  0  0  0  0  0  0  0  0  0  0  0
    1.3000   -0.7500    0.0000 C   0  0  0  0  0  0  0  0  0  0  0  0
   -2.5989   -1.5002    0.0000 C   0  0  0  0  0  0  0  0  0  0  0  0
    2.5989    1.5002    0.0000 C   0  0  0  0  0  0  0  0  0  0  0  0
   -1.3000   -0.7500    0.0000 C   0  0  0  0  0  0  0  0  0  0  0  0
    1.3000    0.7500    0.0000 C   0  0  0  0  0  0  0  0  0  0  0  0
    3.8981    0.7504    0.0000 C   0  0  0  0  0  0  0  0  0  0  0  0
   -3.8981   -0.7504    0.0000 C   0  0  0  0  0  0  0  0  0  0  0  0
    3.8983   -0.7496    0.0000 O   0  0  0  0  0  0  0  0  0  0  0  0
   -4.6479   -2.0496    0.0000 O   0  0  0  0  0  0  0  0  0  0  0  0
    5.1970    1.5006    0.0000 O   0  0  0  0  0  0  0  0  0  0  0  0
  7  5  2  0
  8  6  1  0
 10  1  1  0
 11  5  1  0
 11  6  2  0
 11  9  1  0
 12  7  1  0
 12  8  2  0
 12 10  1  0
 13 10  1  0
 14  2  1  0
 14  3  1  0
 14  9  1  0
 15 13  2  0
 16 14  1  0
 17  4  1  0
 17 13  1  0
M  END
>  <NAME>  (5209) 
METHYL 2-(4-(2-HYDROXY-2-METHYLPROPYL)PHENYL)PROPIONATE

>  <SYNONYMS>  (5209) 


>  <SPECTRUM TYPE>  (5209) 
MS1

>  <INSTRUMENT TYPE>  (5209) 
EI-B

>  <INSTRUMENT>  (5209) 
HITACHI RMU-6E

>  <ION MODE>  (5209) 
P

>  <INCHIKEY>  (5209) 
GVQBZZMJMBIALH-UHFFFAOYSA-N

>  <FORMULA>  (5209) 
C14H20O3

>  <EXACT MASS>  (5209) 
236.14124449999997

>  <MW>  (5209) 
236

>  <ID>  (5209) 
JP004129

>  <CONTRIBUTOR>  (5209) 
University of Tokyo Team, {Faculty of Engineering, University of Tokyo

>  <COMMENT>  (5209) 
SMILES=COC(=O)C(C)c(c1)ccc(c1)CC(C)(C)O
InChI=InChI=1S/C14H20O3/c1-10(13(15)17-4)12-7-5-11(6-8-12)9-14(2,3)16/h5-8,10,16H,9H2,1-4H3
computed SMILES=O=C(OC)C(C1=CC=C(C=C1)CC(O)(C)C)C
accession=JP004129
date=2016.01.19 (Created 2008.10.21, modified 2011.05.06)
author=YAMAMOTO M, DEP. CHEMISTRY, FAC. SCIENCE, NARA WOMEN'S UNIV.
license=CC BY-NC-SA
exact mass=236.14124
ionization energy=70 eV
ion type=[M]+*
computed spectral entropy=2.5591652139914034
computed normalized entropy=0.6985456943777709
SPLASH=splash10-014l-7900000000-5a002f9e69828c625fd4
submitter=submitter = University of Tokyo Team (Faculty of Engineering, University of Tokyo)
MoNA Rating=3.75

>  <NUM PEAKS>  (5209) 
39

>  <MASS SPECTRAL PEAKS>  (5209) 
15 4.2
27 2.4
29 2.7
31 8.9
39 4.5
41 7.2
43 30.6
51 0.23
58 4.6
59 75.7
60 2.6
63 0.18
65 3.9
77 5.8
78 2.7
79 0.24
91 86.6
92 7.3
103 4.2
104 0.26
105 6.9
115 7.5
116 2.8
117 2.35
118 93.7
119 99.99
120 9.4
121 0.29
128 1.9
131 2.5
159 4.6
161 1.7
162 2.4
177 9.2
178 57
179 0.7
219 2.8
221 2.2
236 0.3

$$$$

     RDKit          2D

 12 12  0  0  0  0  0  0  0  0999 V2000
   -2.5476    4.3306    0.0000 C   0  0  0  0  0  0  0  0  0  0  0  0
   -4.5966    3.7816    0.0000 C   0  0  0  0  0  0  0  0  0  0  0  0
   -4.0476    1.7326    0.0000 C   0  0  0  0  0  0  0  0  0  0  0  0
    3.1976    0.7816    0.0000 C   0  0  0  0  0  0  0  0  0  0  0  0
    3.1981    2.2824    0.0000 C   0  0  0  0  0  0  0  0  0  0  0  0
    1.8981    0.0308    0.0000 C   0  0  0  0  0  0  0  0  0  0  0  0
    1.8990    3.0324    0.0000 C   0  0  0  0  0  0  0  0  0  0  0  0
    0.5990    0.7808    0.0000 C   0  0  0  0  0  0  0  0  0  0  0  0
   -0.6995    3.0316    0.0000 C   0  0  0  0  0  0  0  0  0  0  0  0
    0.5995    2.2816    0.0000 C   0  0  0  0  0  0  0  0  0  0  0  0
   -1.9986    2.2816    0.0000 N   0  0  0  0  0  0  0  0  0  0  0  0
   -3.2976    3.0316    0.0000 Si  0  0  0  0  0  4  0  0  0  0  0  0
  5  4  2  0
  6  4  1  0
  7  5  1  0
  8  6  2  0
 10  7  2  0
 10  8  1  0
 10  9  1  0
 11  9  1  0
 12  1  1  0
 12  2  1  0
 12  3  1  0
 12 11  1  0
M  END
>  <NAME>  (5210) 
N-(TRIMETHYLSILYL)BENZYLAMINE

>  <SYNONYMS>  (5210) 


>  <SPECTRUM TYPE>  (5210) 
MS1

>  <INSTRUMENT TYPE>  (5210) 
EI-B

>  <INSTRUMENT>  (5210) 
HITACHI M-68

>  <ION MODE>  (5210) 
P

>  <INCHIKEY>  (5210) 
OVONARZNQIKMGQ-UHFFFAOYSA-N

>  <FORMULA>  (5210) 
C10H17NSi

>  <EXACT MASS>  (5210) 
179.113026074

>  <MW>  (5210) 
179

>  <ID>  (5210) 
JP004128

>  <CONTRIBUTOR>  (5210) 
University of Tokyo Team, {Faculty of Engineering, University of Tokyo

>  <COMMENT>  (5210) 
SMILES=c(c1)ccc(c1)CN[Si](C)(C)C
InChI=InChI=1S/C10H17NSi/c1-12(2,3)11-9-10-7-5-4-6-8-10/h4-8,11H,9H2,1-3H3
computed SMILES=C=1C=CC(=CC1)CN[Si](C)(C)C
accession=JP004128
date=2016.01.19 (Created 2008.10.21, modified 2011.05.06)
author=YAMAMOTO M, DEP. CHEMISTRY, FAC. SCIENCE, NARA WOMEN'S UNIV.
license=CC BY-NC-SA
exact mass=179.11303
ionization energy=70 eV
ion type=[M]+*
computed spectral entropy=2.759987778028286
computed normalized entropy=0.7055141992259892
SPLASH=splash10-03dr-3900000000-a656c2577bc0736312a7
submitter=submitter = University of Tokyo Team (Faculty of Engineering, University of Tokyo)
MoNA Rating=3.75

>  <NUM PEAKS>  (5210) 
50

>  <MASS SPECTRAL PEAKS>  (5210) 
72 2.2
73 43.7
73.5 2.7
74 5.9
74.5 1.8
75 6.2
76 1.2
77 0.93
78 4
79 6
82 2.3
86 0.46
89 2.1
91 25.6
92 1.9
93 0.71
95 2.7
100 2.1
101 3.3
102 1.28
103 2.2
104 6.8
105 5.5
106 1.15
107 6.2
108 0.8
116 1
119 0.18
121 2.1
132 3.5
133 1.3
134 0.1
135 80
136 14.5
137 3.7
145 0.16
146 1
147 3.6
148 6.8
149 0.12
162 6.7
163 1.1
164 99.99
165 1.56
166 4.4
177 1
178 30.9
179 4.3
180 7.9
181 1.9

$$$$

     RDKit          2D

 13 13  0  0  0  0  0  0  0  0999 V2000
   -1.9986    0.7816    0.0000 C   0  0  0  0  0  0  0  0  0  0  0  0
   -2.5476    4.3306    0.0000 C   0  0  0  0  0  0  0  0  0  0  0  0
   -4.5966    3.7816    0.0000 C   0  0  0  0  0  0  0  0  0  0  0  0
   -4.0476    1.7326    0.0000 C   0  0  0  0  0  0  0  0  0  0  0  0
    3.1976    0.7816    0.0000 C   0  0  0  0  0  0  0  0  0  0  0  0
    3.1981    2.2824    0.0000 C   0  0  0  0  0  0  0  0  0  0  0  0
    1.8981    0.0308    0.0000 C   0  0  0  0  0  0  0  0  0  0  0  0
    1.8990    3.0324    0.0000 C   0  0  0  0  0  0  0  0  0  0  0  0
    0.5990    0.7808    0.0000 C   0  0  0  0  0  0  0  0  0  0  0  0
   -0.6995    3.0316    0.0000 C   0  0  0  0  0  0  0  0  0  0  0  0
    0.5995    2.2816    0.0000 C   0  0  0  0  0  0  0  0  0  0  0  0
   -1.9986    2.2816    0.0000 N   0  0  0  0  0  0  0  0  0  0  0  0
   -3.2976    3.0316    0.0000 Si  0  0  0  0  0  4  0  0  0  0  0  0
  6  5  2  0
  7  5  1  0
  8  6  1  0
  9  7  2  0
 11  8  2  0
 11  9  1  0
 11 10  1  0
 12  1  1  0
 12 10  1  0
 13  2  1  0
 13  3  1  0
 13  4  1  0
 13 12  1  0
M  END
>  <NAME>  (5211) 
N-(METHYL)-N-TRIMETHYLSILYLBENZYLAMINE

>  <SYNONYMS>  (5211) 


>  <SPECTRUM TYPE>  (5211) 
MS1

>  <INSTRUMENT TYPE>  (5211) 
EI-B

>  <INSTRUMENT>  (5211) 
HITACHI M-68

>  <ION MODE>  (5211) 
P

>  <INCHIKEY>  (5211) 
RLBKKXDJGJYLBC-UHFFFAOYSA-N

>  <FORMULA>  (5211) 
C11H19NSi

>  <EXACT MASS>  (5211) 
193.128676138

>  <MW>  (5211) 
193

>  <ID>  (5211) 
JP004127

>  <CONTRIBUTOR>  (5211) 
University of Tokyo Team, {Faculty of Engineering, University of Tokyo

>  <COMMENT>  (5211) 
SMILES=c(c1)ccc(c1)CN(C)[Si](C)(C)C
InChI=InChI=1S/C11H19NSi/c1-12(13(2,3)4)10-11-8-6-5-7-9-11/h5-9H,10H2,1-4H3
computed SMILES=C=1C=CC(=CC1)CN(C)[Si](C)(C)C
accession=JP004127
date=2016.01.19 (Created 2008.10.21, modified 2011.05.06)
author=YAMAMOTO M, DEP. CHEMISTRY, FAC. SCIENCE, NARA WOMEN'S UNIV.
license=CC BY-NC-SA
exact mass=193.12868
ionization energy=70 eV
ion type=[M]+*
computed spectral entropy=3.1645573721489777
computed normalized entropy=0.7729093934467244
SPLASH=splash10-00mx-4900000000-2284dbc54442fe8df556
submitter=submitter = University of Tokyo Team (Faculty of Engineering, University of Tokyo)
MoNA Rating=3.75

>  <NUM PEAKS>  (5211) 
60

>  <MASS SPECTRAL PEAKS>  (5211) 
15 3
27 2.3
28 9.3
35 3.4
36 16.9
38 6
41 2.2
42 1.14
43 15.8
44 10
45 18.4
50 0.24
51 6.7
57 2.2
58 4.9
59 2.44
60 2.2
63 3
65 14.4
72 0.27
73 75.9
74 7.2
75 7.5
77 0.77
78 3
81 3.7
82 2.3
86 0.59
89 5.9
91 44.2
92 7.6
93 0.8
95 3
100 4.5
102 5.3
105 0.36
107 2.5
115 4.5
116 97.4
117 1.3
118 8.8
119 3.9
120 13.7
121 0.96
135 81
136 11.6
137 3.5
147 0.33
149 32.4
150 4.9
162 4.3
164 0.9
176 7.3
178 99.99
179 19.8
180 0.49
192 17.6
193 92
194 17.8
195 4

$$$$

     RDKit          2D

 22 21  0  0  0  0  0  0  0  0999 V2000
  -18.0125   10.6005    0.0000 C   0  0  0  0  0  0  0  0  0  0  0  0
    3.3212    8.5514    0.0000 C   0  0  0  0  0  0  0  0  0  0  0  0
    5.3702    9.1005    0.0000 C   0  0  0  0  0  0  0  0  0  0  0  0
    4.8212   11.1495    0.0000 C   0  0  0  0  0  0  0  0  0  0  0  0
  -16.7135    9.8505    0.0000 C   0  0  0  0  0  0  0  0  0  0  0  0
  -15.4144   10.6005    0.0000 C   0  0  0  0  0  0  0  0  0  0  0  0
  -14.1154    9.8505    0.0000 C   0  0  0  0  0  0  0  0  0  0  0  0
  -12.8163   10.6005    0.0000 C   0  0  0  0  0  0  0  0  0  0  0  0
  -11.5173    9.8505    0.0000 C   0  0  0  0  0  0  0  0  0  0  0  0
  -10.2183   10.6005    0.0000 C   0  0  0  0  0  0  0  0  0  0  0  0
   -8.9192    9.8505    0.0000 C   0  0  0  0  0  0  0  0  0  0  0  0
   -7.6202   10.6005    0.0000 C   0  0  0  0  0  0  0  0  0  0  0  0
   -6.3212    9.8505    0.0000 C   0  0  0  0  0  0  0  0  0  0  0  0
   -5.0221   10.6005    0.0000 C   0  0  0  0  0  0  0  0  0  0  0  0
   -3.7231    9.8505    0.0000 C   0  0  0  0  0  0  0  0  0  0  0  0
   -2.4240   10.6005    0.0000 C   0  0  0  0  0  0  0  0  0  0  0  0
   -1.1250    9.8505    0.0000 C   0  0  0  0  0  0  0  0  0  0  0  0
    0.1740   10.6005    0.0000 C   0  0  0  0  0  0  0  0  0  0  0  0
    1.4731    9.8505    0.0000 C   0  0  0  0  0  0  0  0  0  0  0  0
    1.4731    8.3505    0.0000 O   0  0  0  0  0  0  0  0  0  0  0  0
    2.7721   10.6005    0.0000 O   0  0  0  0  0  0  0  0  0  0  0  0
    4.0712    9.8505    0.0000 Si  0  0  0  0  0  4  0  0  0  0  0  0
  5  1  1  0
  6  5  1  0
  7  6  1  0
  8  7  1  0
  9  8  1  0
 10  9  1  0
 11 10  1  0
 12 11  1  0
 13 12  1  0
 14 13  1  0
 15 14  1  0
 16 15  1  0
 17 16  1  0
 18 17  1  0
 19 18  1  0
 20 19  2  0
 21 19  1  0
 22  2  1  0
 22  3  1  0
 22  4  1  0
 22 21  1  0
M  END
>  <NAME>  (5212) 
TRIMETHYLSILYL PALMITATE

>  <SYNONYMS>  (5212) 


>  <SPECTRUM TYPE>  (5212) 
MS1

>  <INSTRUMENT TYPE>  (5212) 
EI-B

>  <INSTRUMENT>  (5212) 
HITACHI RMU-6E

>  <ION MODE>  (5212) 
P

>  <INCHIKEY>  (5212) 
HKNNSWCACQFVIK-UHFFFAOYSA-N

>  <FORMULA>  (5212) 
C19H40O2Si

>  <EXACT MASS>  (5212) 
328.27975705

>  <MW>  (5212) 
328

>  <ID>  (5212) 
JP004126

>  <CONTRIBUTOR>  (5212) 
University of Tokyo Team, {Faculty of Engineering, University of Tokyo

>  <COMMENT>  (5212) 
SMILES=CCCCCCCCCCCCCCCC(=O)O[Si](C)(C)C
InChI=InChI=1S/C19H40O2Si/c1-5-6-7-8-9-10-11-12-13-14-15-16-17-18-19(20)21-22(2,3)4/h5-18H2,1-4H3
computed SMILES=O=C(O[Si](C)(C)C)CCCCCCCCCCCCCCC
accession=JP004126
date=2016.01.19 (Created 2008.10.21, modified 2011.05.06)
author=YAMAMOTO M, DEP. CHEMISTRY, FAC. SCIENCE, NARA WOMEN'S UNIV.
license=CC BY-NC-SA
exact mass=328.27976
ionization energy=70 eV
ion type=[M]+*
computed spectral entropy=2.7636713123779337
computed normalized entropy=0.7178091850687589
SPLASH=splash10-03e9-3907000000-f435780319680ddb78ca
submitter=submitter = University of Tokyo Team (Faculty of Engineering, University of Tokyo)
MoNA Rating=3.75

>  <NUM PEAKS>  (5212) 
47

>  <MASS SPECTRAL PEAKS>  (5212) 
42 1.8
43 6.2
55 5.3
56 1.6
57 3.7
69 2.7
70 1.5
71 0.16
73 33.6
74 3.2
75 15.6
81 0.14
83 2.5
95 1.6
97 2.2
116 0.27
117 50.9
118 5.9
119 2.7
129 1.26
131 5
132 89.8
133 15.8
134 0.44
145 30.2
146 4.9
147 1.9
159 0.27
185 2.2
187 3.5
188 1.5
201 0.92
202 1.7
229 1.6
243 1.7
269 0.49
270 1.2
285 5.1
286 1.8
313 99.99
314 24.4
315 6.4
316 1.3
327 0.14
328 28
329 12.4
330 3.5

$$$$

     RDKit          2D

  9  9  0  0  0  0  0  0  0  0999 V2000
    0.9742   -0.9383    0.0000 C   0  0  0  0  0  0  0  0  0  0  0  0
    2.2732   -0.1883    0.0000 C   0  0  0  0  0  0  0  0  0  0  0  0
   -0.3253   -0.1874    0.0000 C   0  0  0  0  0  0  0  0  0  0  0  0
    2.2727    1.3126    0.0000 C   0  0  0  0  0  0  0  0  0  0  0  0
   -1.6250    2.0632    0.0000 C   0  0  0  0  0  0  0  0  0  0  0  0
   -0.3258    1.3134    0.0000 C   0  0  0  0  0  0  0  0  0  0  0  0
    0.9732    2.0634    0.0000 C   0  0  0  0  0  0  0  0  0  0  0  0
   -2.9239    1.3130    0.0000 O   0  0  0  0  0  0  0  0  0  0  0  0
    0.9735    3.5634    0.0000 O   0  0  0  0  0  0  0  0  0  0  0  0
  2  1  2  0
  3  1  1  0
  4  2  1  0
  6  3  2  0
  6  5  1  0
  7  4  2  0
  7  6  1  0
  8  5  2  0
  9  7  1  0
M  END
>  <NAME>  (5213) 
SALICYLALDEHYDE

>  <SYNONYMS>  (5213) 


>  <SPECTRUM TYPE>  (5213) 
MS1

>  <INSTRUMENT TYPE>  (5213) 
EI-B

>  <INSTRUMENT>  (5213) 
HITACHI M-68

>  <ION MODE>  (5213) 
P

>  <INCHIKEY>  (5213) 
SMQUZDBALVYZAC-UHFFFAOYSA-N

>  <FORMULA>  (5213) 
C7H6O2

>  <EXACT MASS>  (5213) 
122.036779432

>  <MW>  (5213) 
122

>  <ID>  (5213) 
JP004125

>  <CONTRIBUTOR>  (5213) 
University of Tokyo Team, {Faculty of Engineering, University of Tokyo

>  <COMMENT>  (5213) 
SMILES=O=Cc(c1)c(O)ccc1
InChI=InChI=1S/C7H6O2/c8-5-6-3-1-2-4-7(6)9/h1-5,9H
computed SMILES=O=CC=1C=CC=CC1O
accession=JP004125
date=2016.01.19 (Created 2008.10.21, modified 2011.05.06)
author=YAMAMOTO M, DEP. CHEMISTRY, FAC. SCIENCE, NARA WOMEN'S UNIV.
license=CC BY-NC-SA
exact mass=122.03678
ionization energy=70 eV
ion type=[M]+*
computed spectral entropy=2.5059088788401636
computed normalized entropy=0.7048280043193248
SPLASH=splash10-00di-8900000000-583bbd8c5848ff6c26b1
submitter=submitter = University of Tokyo Team (Faculty of Engineering, University of Tokyo)
MoNA Rating=3.75

>  <NUM PEAKS>  (5213) 
35

>  <MASS SPECTRAL PEAKS>  (5213) 
27 1.8
28 1.1
29 4.1
31 1
37 3
38 8
39 25
40 0.72
46 1.5
47 4
50 5.8
51 0.3
52 1
53 5.5
55 1.8
61 0.32
62 3.5
63 5.1
64 3
65 3.1
66 8
67 1.6
74 2.1
75 0.17
76 21
77 2.7
92 1.5
93 1.7
94 6.2
104 13
105 1
121 9.25
122 99.99
123 8.3
124 1

$$$$

     RDKit          2D

 30 33  0  0  1  0  0  0  0  0999 V2000
    9.5655    7.2342    0.0000 C   0  0  0  0  0  0  0  0  0  0  0  0
   10.0746    4.6865    0.0000 C   0  0  0  0  0  0  0  0  0  0  0  0
    8.1228    2.9718    0.0000 C   0  0  0  0  0  0  0  0  0  0  0  0
    3.2009    4.6377    0.0000 C   0  0  0  0  0  0  0  0  0  0  0  0
   -1.6125    0.9400    0.0000 C   0  0  0  0  0  0  0  0  0  0  0  0
    2.4507    3.1203    0.0000 C   0  0  0  0  0  0  0  0  0  0  0  0
    8.0946    6.9403    0.0000 C   0  0  0  0  0  0  0  0  0  0  0  0
    5.6618    3.8047    0.0000 C   0  0  0  0  0  0  0  0  0  0  0  0
    6.1427    5.2256    0.0000 C   0  0  0  0  0  0  0  0  0  0  0  0
   -0.3200   -2.8400    0.0000 C   0  0  0  0  0  0  0  0  0  0  0  0
    1.0100   -2.0900    0.0000 C   0  0  0  0  0  0  0  0  0  0  0  0
    4.5500    0.8800    0.0000 C   0  0  0  0  0  0  0  0  0  0  0  0
    3.7100   -0.3100    0.0000 C   0  0  0  0  0  0  0  0  0  0  0  0
   -4.2000   -0.5600    0.0000 C   0  0  0  0  0  0  0  0  0  0  0  0
   -0.3200    1.6300    0.0000 C   0  0  0  0  0  0  0  0  0  0  0  0
   -2.8900    0.1600    0.0000 C   0  0  0  0  0  0  0  0  0  0  0  0
    1.0100    2.3900    0.0000 C   0  0  0  0  0  0  0  0  0  0  0  0
   -2.8900   -2.8400    0.0000 C   0  0  0  0  0  0  0  0  0  0  0  0
    8.6037    4.3926    0.0000 C   0  0  0  0  0  0  0  0  0  0  0  0
    4.1909    3.5108    0.0000 C   0  0  0  0  0  0  0  0  0  0  0  0
    7.6137    5.5195    0.0000 C   0  0  0  0  0  0  0  0  0  0  0  0
   -1.6200   -2.0900    0.0000 C   0  0  0  0  0  0  0  0  0  0  0  0
   -4.2000   -2.0900    0.0000 C   0  0  0  0  0  0  0  0  0  0  0  0
    1.0100   -0.5600    0.0000 C   0  0  0  0  0  0  0  0  0  0  0  0
    3.7100    2.0900    0.0000 C   0  0  0  0  0  0  0  0  0  0  0  0
    2.2800    0.1600    0.0000 C   0  0  0  0  0  0  0  0  0  0  0  0
   -0.3200    0.1600    0.0000 C   0  0  0  0  0  0  0  0  0  0  0  0
   -1.6200   -0.5600    0.0000 C   0  0  0  0  0  0  0  0  0  0  0  0
    2.2800    1.6300    0.0000 C   0  0  0  0  0  0  0  0  0  0  0  0
   -5.4977   -2.8424    0.0000 O   0  0  0  0  0  0  0  0  0  0  0  0
  7  1  1  0
  8  9  2  0
 11 10  1  0
 13 12  1  0
 16 14  1  0
 17 15  1  0
 19  2  1  0
 19  3  1  0
 20  4  1  6
 20  8  1  0
 21  7  1  1
 21  9  1  0
 21 19  1  0
 22 10  2  0
 22 18  1  0
 23 14  1  0
 23 18  1  0
 24 11  1  6
 25 12  1  1
 25 20  1  0
 26 13  1  1
 26 24  1  0
 27 15  1  1
 27 24  1  0
 28  5  1  1
 28 16  1  0
 28 22  1  0
 28 27  1  0
 29  6  1  1
 29 17  1  0
 29 25  1  0
 29 26  1  0
 23 30  1  1
M  END
>  <NAME>  (5214) 
STIGMASTEROL

>  <SYNONYMS>  (5214) 


>  <SPECTRUM TYPE>  (5214) 
MS1

>  <INSTRUMENT TYPE>  (5214) 
EI-B

>  <INSTRUMENT>  (5214) 
HITACHI RMU-6E

>  <ION MODE>  (5214) 
P

>  <INCHIKEY>  (5214) 
HCXVJBMSMIARIN-PHZDYDNGSA-N

>  <FORMULA>  (5214) 
C29H48O

>  <EXACT MASS>  (5214) 
412.37051615599995

>  <MW>  (5214) 
412

>  <ID>  (5214) 
JP004124

>  <CONTRIBUTOR>  (5214) 
University of Tokyo Team, {Faculty of Engineering, University of Tokyo

>  <COMMENT>  (5214) 
SMILES=CC(C4([H])C(C=CC([H])(CC)C(C)C)([H])C)(C([H])1CC4)CCC(C3(C)2)(C([H])(CC=C2CC([H])(O)CC3)1)[H]
InChI=InChI=1S/C29H48O/c1-7-21(19(2)3)9-8-20(4)25-12-13-26-24-11-10-22-18-23(30)14-16-28(22,5)27(24)15-17-29(25,26)6/h8-10,19-21,23-27,30H,7,11-18H2,1-6H3/b9-8+/t20-,21-,23+,24+,25-,26+,27+,28+,29-/m1/s1
computed SMILES=OC1CC2=CCC3C(CCC4(C)C(CCC34)C(C=CC(CC)C(C)C)C)C2(C)CC1
accession=JP004124
date=2016.01.19 (Created 2008.10.21, modified 2011.05.06)
author=YAMAMOTO M, DEP. CHEMISTRY, FAC. SCIENCE, NARA WOMEN'S UNIV.
license=CC BY-NC-SA
exact mass=412.37052
ionization energy=70 eV
ion type=[M]+*
computed spectral entropy=4.840908848320867
computed normalized entropy=0.8937996877514598
SPLASH=splash10-053r-7941000000-7983b2cb8a74cfda7530
submitter=submitter = University of Tokyo Team (Faculty of Engineering, University of Tokyo)
MoNA Rating=3.75

>  <NUM PEAKS>  (5214) 
225

>  <MASS SPECTRAL PEAKS>  (5214) 
41 28.6
42 1.95
43 32.5
44 1.3
53 5.85
54 1.3
55 99.99
56 5.2
57 24.05
58 1.3
65 2.6
66 1.3
67 30.55
68 5.85
69 61.75
70 7.15
71 16.25
72 1.3
73 1.95
75 1
77 9.1
78 2.6
79 28.6
80 5.85
81 68
82 18.2
83 90
84 10.4
85 9.75
91 27.95
92 5.85
93 34.45
94 10.4
95 44.2
96 13
97 51.35
98 6.5
99 2.6
100 0.8
103 1.95
104 1.95
105 33.15
106 6.76
107 37.7
108 8.05
109 30.55
110 13
111 9.1
112 2.6
115 3.12
116 1.56
117 11.7
118 5.2
119 27.95
120 11.05
121 25.35
122 9.1
123 35.75
124 11.05
125 4.68
126 1.95
127 1.95
128 3.25
129 6.5
130 3.25
131 18.85
132 6.5
133 46.8
134 10.4
135 22.75
136 4.55
137 17.55
138 4.55
139 11.05
140 2.21
141 3.25
142 2.6
143 11.7
144 5.85
145 40.95
146 9.1
147 38.35
148 6.5
149 14.3
150 2.6
151 20.8
152 3.25
155 3.25
156 2.6
157 13
158 11.05
159 50.05
160 11.05
161 22.1
162 5.85
163 18.85
164 4.55
165 4.81
166 7.15
167 1.56
169 3.51
170 1.56
171 9.36
172 3.9
173 17.16
174 5.85
175 14.69
176 6.5
177 9.75
178 3.51
179 1.95
180 2.21
181 1.3
183 3.25
184 1.69
185 11.7
186 4.55
187 11.7
188 3.9
189 8.71
190 2.34
191 5.85
192 1.3
197 5.2
198 2.08
199 14.95
200 3.9
201 7.8
202 2.6
203 7.15
204 1.56
205 3.9
207 2.21
210 9.1
211 4.55
212 26
213 7.15
214 13
215 3.9
216 9.75
217 2.6
218 3.9
226 2.21
227 8.45
228 5.85
229 13
230 7.15
231 11.7
232 4.55
233 3.25
234 3.3
236 4.68
239 7.15
240 3.9
241 9.1
242 3.12
243 5.85
244 2.6
245 5.2
246 4.55
247 1.95
253 11.7
254 5.85
255 6.37
256 15.6
257 7.15
258 11.7
259 4.16
267 9.88
268 3.25
269 3.9
270 11.05
271 46.8
272 24.7
273 16.9
274 3.9
281 7.02
282 8.45
283 11.05
284 3.25
285 9.1
286 4.23
287 1.95
295 3.25
296 2.6
297 1.82
298 1.3
299 11.7
300 33.8
301 13.52
302 2.6
309 3.9
310 1.95
311 1.3
313 3.12
314 10.4
315 3.25
327 4.55
328 2.3
351 27.95
352 9.1
353 2.6
354 1.04
365 1.95
367 1
368 0.9
369 16.9
370 5.2
371 1.04
379 10.4
380 3.25
381 0.98
382 0.65
383 1.95
392 0.98
393 0.65
394 7.8
395 3.25
396 0.65
397 7.15
398 2.6
410 1.3
412 61
413 18.2
414 3.25

$$$$

     RDKit          2D

 20 23  0  0  1  0  0  0  0  0999 V2000
    2.3365    3.1918    0.0000 C   0  0  0  0  0  0  0  0  0  0  0  0
   -0.4100   -2.8000    0.0000 C   0  0  0  0  0  0  0  0  0  0  0  0
   -4.3100   -0.5500    0.0000 C   0  0  0  0  0  0  0  0  0  0  0  0
    0.8900   -2.0500    0.0000 C   0  0  0  0  0  0  0  0  0  0  0  0
   -3.0100    0.2000    0.0000 C   0  0  0  0  0  0  0  0  0  0  0  0
    3.6100   -0.2600    0.0000 C   0  0  0  0  0  0  0  0  0  0  0  0
    4.4900    0.9500    0.0000 C   0  0  0  0  0  0  0  0  0  0  0  0
   -0.4100    1.7000    0.0000 C   0  0  0  0  0  0  0  0  0  0  0  0
    0.8900    2.4500    0.0000 C   0  0  0  0  0  0  0  0  0  0  0  0
   -3.0100   -2.8000    0.0000 C   0  0  0  0  0  0  0  0  0  0  0  0
   -1.7100   -2.0500    0.0000 C   0  0  0  0  0  0  0  0  0  0  0  0
   -4.3100   -2.0500    0.0000 C   0  0  0  0  0  0  0  0  0  0  0  0
   -1.7100   -0.5500    0.0000 C   0  0  0  0  0  0  0  0  0  0  0  0
   -0.4100    0.2000    0.0000 C   0  0  0  0  0  0  0  0  0  0  0  0
    0.8900   -0.5500    0.0000 C   0  0  0  0  0  0  0  0  0  0  0  0
    2.1800    0.2000    0.0000 C   0  0  0  0  0  0  0  0  0  0  0  0
    3.6100    2.1700    0.0000 C   0  0  0  0  0  0  0  0  0  0  0  0
    2.1800    1.7000    0.0000 C   0  0  0  0  0  0  0  0  0  0  0  0
   -5.6089   -2.8002    0.0000 O   0  0  0  0  0  0  0  0  0  0  0  0
    4.0736    3.5966    0.0000 O   0  0  0  0  0  0  0  0  0  0  0  0
  4  2  1  0
  5  3  1  0
  7  6  1  0
  9  8  1  0
 11  2  1  0
 11 10  2  0
 12  3  2  0
 12 10  1  0
 13  5  2  0
 13 11  1  0
 14  8  1  1
 14 13  1  0
 15  4  1  6
 15 14  1  0
 16  6  1  1
 16 15  1  0
 17  7  1  0
 18  1  1  1
 18  9  1  0
 18 16  1  0
 18 17  1  0
 19 12  1  0
 17 20  1  1
M  END
>  <NAME>  (5215) 
ESTRADIOL

>  <SYNONYMS>  (5215) 


>  <SPECTRUM TYPE>  (5215) 
MS1

>  <INSTRUMENT TYPE>  (5215) 
EI-B

>  <INSTRUMENT>  (5215) 
HITACHI RMU-6E

>  <ION MODE>  (5215) 
P

>  <INCHIKEY>  (5215) 
VOXZDWNPVJITMN-ZBRFXRBCSA-N

>  <FORMULA>  (5215) 
C18H24O2

>  <EXACT MASS>  (5215) 
272.177630008

>  <MW>  (5215) 
272

>  <ID>  (5215) 
JP004123

>  <CONTRIBUTOR>  (5215) 
University of Tokyo Team, {Faculty of Engineering, University of Tokyo

>  <COMMENT>  (5215) 
SMILES=Oc(c4)cc(C3)c(c4)C([H])(C2)C([H])(C3)C([H])(C1)C(C)(C2)C(O)C1
InChI=InChI=1S/C18H24O2/c1-18-9-8-14-13-5-3-12(19)10-11(13)2-4-15(14)16(18)6-7-17(18)20/h3,5,10,14-17,19-20H,2,4,6-9H2,1H3/t14-,15-,16+,17+,18+/m1/s1
computed SMILES=OC1=CC=C2C(=C1)CCC3C2CCC4(C)C(O)CCC34
accession=JP004123
date=2016.01.19 (Created 2008.10.21, modified 2011.05.06)
author=YAMAMOTO M, DEP. CHEMISTRY, FAC. SCIENCE, NARA WOMEN'S UNIV.
license=CC BY-NC-SA
exact mass=272.17763
ionization energy=70 eV
ion type=[M]+*
computed spectral entropy=3.827689972626662
computed normalized entropy=0.8191376376548651
SPLASH=splash10-00di-3940000000-f3692a81f624f15d3e0b
submitter=submitter = University of Tokyo Team (Faculty of Engineering, University of Tokyo)
MoNA Rating=3.75

>  <NUM PEAKS>  (5215) 
107

>  <MASS SPECTRAL PEAKS>  (5215) 
17 6.8
18 33
27 2.8
28 4.3
29 3.8
39 3.4
41 10.8
43 0.69
51 1.5
53 4.4
55 10.5
57 0.37
65 2.7
67 4.8
68 1.6
69 0.33
71 1.7
77 7.6
78 1.8
79 0.69
81 5.3
83 2.1
91 9
92 0.21
93 5.7
94 2
95 4.7
97 0.25
99 1.4
103 2.8
104 1.3
105 0.64
106 1.7
107 14.2
108 4.9
109 0.23
110 1.9
111 1.3
114 1.5
115 0.85
116 3.2
117 3.9
119 2.2
120 0.69
121 8.2
122 1.3
123 1.4
127 0.71
128 4.8
129 3.4
131 10.6
132 0.53
133 24.8
134 4.9
135 1.6
141 0.4
143 1.4
144 10.3
145 18.9
146 3.05
147 11.1
148 1.5
151 2
152 0.15
153 1.4
157 12.9
158 13.3
159 2.68
160 39.8
161 5.6
165 1.7
169 0.14
170 2.9
171 7.1
172 30.7
173 0.84
174 1.5
175 4.8
183 2.7
184 0.23
185 10.1
186 15.6
187 3.4
188 0.38
197 3.4
198 1.8
199 6
200 0.4
201 2.4
211 3.5
212 1.9
213 4
214 7.3
215 5.6
225 2.3
226 0.35
227 1.4
228 4.8
239 1.9
244 0.36
253 2.5
254 1.4
270 2.1
271 0.23
272 99.99
273 19.3
274 2.5

$$$$

     RDKit          2D

 27 30  0  0  1  0  0  0  0  0999 V2000
    9.2324    7.1952    0.0000 C   0  0  0  0  0  0  0  0  0  0  0  0
    6.7615    7.9981    0.0000 C   0  0  0  0  0  0  0  0  0  0  0  0
    2.8999    4.5213    0.0000 C   0  0  0  0  0  0  0  0  0  0  0  0
   -1.8900    0.7600    0.0000 C   0  0  0  0  0  0  0  0  0  0  0  0
    2.1640    3.0021    0.0000 C   0  0  0  0  0  0  0  0  0  0  0  0
   -4.4900   -2.2400    0.0000 C   0  0  0  0  0  0  0  0  0  0  0  0
   -4.4900   -0.7400    0.0000 C   0  0  0  0  0  0  0  0  0  0  0  0
    5.8343    5.1450    0.0000 C   0  0  0  0  0  0  0  0  0  0  0  0
    7.3016    5.4568    0.0000 C   0  0  0  0  0  0  0  0  0  0  0  0
    5.3708    3.7184    0.0000 C   0  0  0  0  0  0  0  0  0  0  0  0
   -3.1900   -2.9900    0.0000 C   0  0  0  0  0  0  0  0  0  0  0  0
   -0.5900   -2.9900    0.0000 C   0  0  0  0  0  0  0  0  0  0  0  0
    0.7100   -2.2400    0.0000 C   0  0  0  0  0  0  0  0  0  0  0  0
    4.3200    0.7600    0.0000 C   0  0  0  0  0  0  0  0  0  0  0  0
    3.4400   -0.4500    0.0000 C   0  0  0  0  0  0  0  0  0  0  0  0
   -0.5900    1.5100    0.0000 C   0  0  0  0  0  0  0  0  0  0  0  0
   -3.1900    0.0100    0.0000 C   0  0  0  0  0  0  0  0  0  0  0  0
    0.7100    2.2600    0.0000 C   0  0  0  0  0  0  0  0  0  0  0  0
    7.7651    6.8834    0.0000 C   0  0  0  0  0  0  0  0  0  0  0  0
    3.9036    3.4066    0.0000 C   0  0  0  0  0  0  0  0  0  0  0  0
   -1.8900   -2.2400    0.0000 C   0  0  0  0  0  0  0  0  0  0  0  0
    0.7100   -0.7400    0.0000 C   0  0  0  0  0  0  0  0  0  0  0  0
    3.4400    1.9800    0.0000 C   0  0  0  0  0  0  0  0  0  0  0  0
    2.0100    0.0100    0.0000 C   0  0  0  0  0  0  0  0  0  0  0  0
   -0.5900    0.0100    0.0000 C   0  0  0  0  0  0  0  0  0  0  0  0
   -1.8900   -0.7400    0.0000 C   0  0  0  0  0  0  0  0  0  0  0  0
    2.0100    1.5100    0.0000 C   0  0  0  0  0  0  0  0  0  0  0  0
  7  6  1  0
  9  8  1  0
 10  8  1  0
 11  6  1  0
 13 12  1  0
 15 14  1  0
 17  7  1  0
 18 16  1  0
 19  1  1  0
 19  2  1  0
 19  9  1  0
 20  3  1  6
 20 10  1  0
 21 11  1  1
 21 12  1  0
 22 13  1  6
 23 14  1  1
 23 20  1  0
 24 15  1  1
 24 22  1  0
 25 16  1  1
 25 22  1  0
 26  4  1  1
 26 17  1  0
 26 21  1  0
 26 25  1  0
 27  5  1  1
 27 18  1  0
 27 23  1  0
 27 24  1  0
M  END
>  <NAME>  (5216) 
CHOLESTANE

>  <SYNONYMS>  (5216) 


>  <SPECTRUM TYPE>  (5216) 
MS1

>  <INSTRUMENT TYPE>  (5216) 
EI-B

>  <INSTRUMENT>  (5216) 
HITACHI RMU-6E

>  <ION MODE>  (5216) 
P

>  <INCHIKEY>  (5216) 
XIIAYQZJNBULGD-XWLABEFZSA-N

>  <FORMULA>  (5216) 
C27H48

>  <EXACT MASS>  (5216) 
372.375601536

>  <MW>  (5216) 
372

>  <ID>  (5216) 
JP004122

>  <CONTRIBUTOR>  (5216) 
University of Tokyo Team, {Faculty of Engineering, University of Tokyo

>  <COMMENT>  (5216) 
SMILES=C(C1)CCC([H])(C4)C(C(C3([H])C4)([H])CCC(C3([H])2)(C)C([H])(CC2)C(CCCC(C)C)([H])C)(C)1
InChI=InChI=1S/C27H48/c1-19(2)9-8-10-20(3)23-14-15-24-22-13-12-21-11-6-7-17-26(21,4)25(22)16-18-27(23,24)5/h19-25H,6-18H2,1-5H3/t20-,21-,22+,23-,24+,25+,26+,27-/m1/s1
computed SMILES=CC(C)CCCC(C)C1CCC2C3CCC4CCCCC4(C)C3CCC12C
accession=JP004122
date=2016.01.19 (Created 2008.10.21, modified 2011.05.06)
author=YAMAMOTO M, DEP. CHEMISTRY, FAC. SCIENCE, NARA WOMEN'S UNIV.
license=CC BY-NC-SA
exact mass=372.3756
ionization energy=70 eV
ion type=[M]+*
computed spectral entropy=3.6090621333579063
computed normalized entropy=0.8359170977315892
SPLASH=splash10-066s-9841000000-c2bdc892377d975f6701
submitter=submitter = University of Tokyo Team (Faculty of Engineering, University of Tokyo)
MoNA Rating=3.75

>  <NUM PEAKS>  (5216) 
75

>  <MASS SPECTRAL PEAKS>  (5216) 
29 6
41 20
42 2
43 30
53 3
54 2
55 40
56 0.4
57 20
67 33
68 10
69 2.3
70 2
71 10
77 4
79 1.6
80 5
81 45
82 10
83 2
84 2
85 2
93 22
94 0.2
95 45
97 13
105 6
106 0.3
107 19
108 21
109 45
110 0.6
111 6
119 4
120 3
121 2.2
122 19
123 21
124 3
125 0.2
133 4
134 2
135 15
137 1
148 16
149 50
150 20
151 1
152 2
161 6
162 8
163 0.9
164 2
175 9
176 3
177 0.3
189 4
190 3
191 2
203 1.4
204 4
216 2
217 99.99
218 6.8
219 19
220 2
232 13
233 0.4
259 2
262 12
263 3
357 2.6
372 50
373 16
374 2

$$$$

     RDKit          2D

 21 24  0  0  1  0  0  0  0  0999 V2000
   -1.6300    0.9100    0.0000 C   0  0  0  0  0  0  0  0  0  0  0  0
    2.4272    3.1517    0.0000 C   0  0  0  0  0  0  0  0  0  0  0  0
   -0.3300   -2.8400    0.0000 C   0  0  0  0  0  0  0  0  0  0  0  0
    0.9700   -2.0900    0.0000 C   0  0  0  0  0  0  0  0  0  0  0  0
    3.6900   -0.3000    0.0000 C   0  0  0  0  0  0  0  0  0  0  0  0
    4.5700    0.9100    0.0000 C   0  0  0  0  0  0  0  0  0  0  0  0
   -4.2300   -0.5900    0.0000 C   0  0  0  0  0  0  0  0  0  0  0  0
   -0.3300    1.6600    0.0000 C   0  0  0  0  0  0  0  0  0  0  0  0
   -2.9300    0.1600    0.0000 C   0  0  0  0  0  0  0  0  0  0  0  0
    0.9700    2.4100    0.0000 C   0  0  0  0  0  0  0  0  0  0  0  0
   -2.9300   -2.8400    0.0000 C   0  0  0  0  0  0  0  0  0  0  0  0
   -1.6300   -2.0900    0.0000 C   0  0  0  0  0  0  0  0  0  0  0  0
   -4.2300   -2.0900    0.0000 C   0  0  0  0  0  0  0  0  0  0  0  0
    0.9700   -0.5900    0.0000 C   0  0  0  0  0  0  0  0  0  0  0  0
    2.2700    0.1600    0.0000 C   0  0  0  0  0  0  0  0  0  0  0  0
   -0.3300    0.1600    0.0000 C   0  0  0  0  0  0  0  0  0  0  0  0
    3.6900    2.1200    0.0000 C   0  0  0  0  0  0  0  0  0  0  0  0
   -1.6300   -0.5900    0.0000 C   0  0  0  0  0  0  0  0  0  0  0  0
    2.2700    1.6600    0.0000 C   0  0  0  0  0  0  0  0  0  0  0  0
   -5.5289   -2.8402    0.0000 O   0  0  0  0  0  0  0  0  0  0  0  0
    4.1538    3.5465    0.0000 O   0  0  0  0  0  0  0  0  0  0  0  0
  4  3  1  0
  6  5  1  0
  9  7  1  0
 10  8  1  0
 12  3  1  0
 12 11  2  0
 13  7  1  0
 13 11  1  0
 14  4  1  6
 15  5  1  1
 15 14  1  0
 16  8  1  1
 16 14  1  0
 17  6  1  0
 18  1  1  1
 18  9  1  0
 18 12  1  0
 18 16  1  0
 19  2  1  1
 19 10  1  0
 19 15  1  0
 19 17  1  0
 20 13  2  0
 17 21  1  1
M  END
>  <NAME>  (5217) 
TESTOSTERONE

>  <SYNONYMS>  (5217) 


>  <SPECTRUM TYPE>  (5217) 
MS1

>  <INSTRUMENT TYPE>  (5217) 
EI-B

>  <INSTRUMENT>  (5217) 
HITACHI RMU-6E

>  <ION MODE>  (5217) 
P

>  <INCHIKEY>  (5217) 
MUMGGOZAMZWBJJ-DYKIIFRCSA-N

>  <FORMULA>  (5217) 
C19H28O2

>  <EXACT MASS>  (5217) 
288.208930136

>  <MW>  (5217) 
288

>  <ID>  (5217) 
JP004121

>  <CONTRIBUTOR>  (5217) 
University of Tokyo Team, {Faculty of Engineering, University of Tokyo

>  <COMMENT>  (5217) 
SMILES=O=C(C4)C=C(C3)C(C)(C4)C([H])(C2)C([H])(C3)C([H])(C1)C(C)(C2)C(O)C1
InChI=InChI=1S/C19H28O2/c1-18-9-7-13(20)11-12(18)3-4-14-15-5-6-17(21)19(15,2)10-8-16(14)18/h11,14-17,21H,3-10H2,1-2H3/t14-,15-,16-,17-,18-,19-/m0/s1
computed SMILES=O=C1C=C2CCC3C(CCC4(C)C(O)CCC34)C2(C)CC1
accession=JP004121
date=2016.01.19 (Created 2008.10.21, modified 2011.05.06)
author=YAMAMOTO M, DEP. CHEMISTRY, FAC. SCIENCE, NARA WOMEN'S UNIV.
license=CC BY-NC-SA
exact mass=288.20893
ionization energy=70 eV
ion type=[M]+*
computed spectral entropy=4.251606420476388
computed normalized entropy=0.8680574690333889
SPLASH=splash10-05fs-4920000000-ccd839134de79f179f9e
submitter=submitter = University of Tokyo Team (Faculty of Engineering, University of Tokyo)
MoNA Rating=3.75

>  <NUM PEAKS>  (5217) 
134

>  <MASS SPECTRAL PEAKS>  (5217) 
17 4
18 22
27 4
28 2
29 8
39 6
40 2
41 0.2
42 22
43 2
44 2
51 0.2
53 9
54 2
55 23
56 0.2
57 9
65 5
66 2
67 2
68 4
69 10
70 2
71 0.4
77 14
78 4
79 25
80 0.5
81 20
82 4
83 6
84 0.2
85 2
86 2
87 3
91 2.5
92 5
93 22
94 10
95 1.9
96 6
97 10
103 2
104 0.2
105 23
106 8
107 21
108 1
109 25
110 9
111 6
115 0.3
117 6
118 3
119 19
120 0.7
121 18
122 13
123 22
124 99.99
125 11
129 4
130 2
131 1.1
132 5
133 13
134 11
135 1
136 7
137 11
138 3
141 0.2
143 4
144 3
145 8
146 1.1
147 32
148 13
149 14
150 0.5
151 6
152 2
157 3
158 0.2
159 7
160 4
161 6
162 0.4
163 3
164 8
165 11
166 0.2
171 3
172 2
173 4
174 0.5
175 4
176 3
177 2
185 0.7
186 2
187 6
188 2
189 0.3
190 2
199 3
200 2
201 0.3
202 4
203 20
204 6
211 0.3
213 6
214 2
215 2
216 0.2
217 7
218 4
227 2
228 1.2
229 6
231 5
232 5
244 2
245 3
246 33
247 6
255 0.3
260 2
270 5
273 5
288 3.7
289 10
290 2

$$$$

     RDKit          2D

 10 10  0  0  0  0  0  0  0  0999 V2000
    0.0000   -2.1700    0.0000 C   0  0  0  0  0  0  0  0  0  0  0  0
    1.3000   -1.4200    0.0000 C   0  0  0  0  0  0  0  0  0  0  0  0
   -1.3000   -1.4200    0.0000 C   0  0  0  0  0  0  0  0  0  0  0  0
    0.0000    2.3300    0.0000 C   0  0  0  0  0  0  0  0  0  0  0  0
    0.0000    0.8300    0.0000 C   0  0  0  0  0  0  0  0  0  0  0  0
    1.3000    0.0800    0.0000 C   0  0  0  0  0  0  0  0  0  0  0  0
   -1.3000    0.0800    0.0000 C   0  0  0  0  0  0  0  0  0  0  0  0
    2.5989    0.8302    0.0000 Cl  0  0  0  0  0  0  0  0  0  0  0  0
   -2.5989    0.8302    0.0000 Cl  0  0  0  0  0  0  0  0  0  0  0  0
    0.0000    3.8300    0.0000 N   0  0  0  0  0  0  0  0  0  0  0  0
  2  1  2  0
  3  1  1  0
  5  4  1  0
  6  2  1  0
  6  5  2  0
  7  3  2  0
  7  5  1  0
  8  6  1  0
  9  7  1  0
 10  4  3  0
M  END
>  <NAME>  (5218) 
2,6-DICHLOROBENZONITRILE

>  <SYNONYMS>  (5218) 


>  <SPECTRUM TYPE>  (5218) 
MS1

>  <INSTRUMENT TYPE>  (5218) 
EI-B

>  <INSTRUMENT>  (5218) 
HITACHI M-68

>  <ION MODE>  (5218) 
P

>  <INCHIKEY>  (5218) 
YOYAIZYFCNQIRF-UHFFFAOYSA-N

>  <FORMULA>  (5218) 
C7H3Cl2N

>  <EXACT MASS>  (5218) 
170.964254456

>  <MW>  (5218) 
171

>  <ID>  (5218) 
JP004120

>  <CONTRIBUTOR>  (5218) 
University of Tokyo Team, {Faculty of Engineering, University of Tokyo

>  <COMMENT>  (5218) 
SMILES=N#Cc(c(Cl)1)c(Cl)ccc1
InChI=InChI=1S/C7H3Cl2N/c8-6-2-1-3-7(9)5(6)4-10/h1-3H
computed SMILES=N#CC=1C(Cl)=CC=CC1Cl
accession=JP004120
date=2016.01.19 (Created 2008.10.21, modified 2011.05.06)
author=YAMAMOTO M, DEP. CHEMISTRY, FAC. SCIENCE, NARA WOMEN'S UNIV.
license=CC BY-NC-SA
exact mass=170.96425
ionization energy=70 eV
ion type=[M]+*
computed spectral entropy=2.6586451142151497
computed normalized entropy=0.7068608509081942
SPLASH=splash10-00di-4900000000-85c1d070b0ba51ba1a21
submitter=submitter = University of Tokyo Team (Faculty of Engineering, University of Tokyo)
MoNA Rating=3.75

>  <NUM PEAKS>  (5218) 
43

>  <MASS SPECTRAL PEAKS>  (5218) 
18 5.1
28 9.9
35 1.7
36 2.3
37 5.1
38 2.9
39 1.3
47 0.19
49 3.7
50 8.3
51 3
60 0.23
61 3.6
62 2.8
63 2.4
72 0.26
73 6.3
74 8.2
75 14.1
76 0.32
84 2.8
85 3.2
85.5 2.1
86 0.25
87 1.7
91 2.8
92 2.1
98 0.16
99 7.7
100 20
101 2.6
109 0.33
110 2.8
111 1.6
135 2.3
136 1.93
137 2.4
138 6.2
171 99.99
172 0.8
173 64.2
174 5
175 11

$$$$

     RDKit          2D

 10 10  0  0  0  0  0  0  0  0999 V2000
   -3.5724    2.0075    0.0000 C   0  0  0  0  0  0  0  0  0  0  0  0
   -2.2733    1.2575    0.0000 C   0  0  0  0  0  0  0  0  0  0  0  0
    2.9228   -0.2425    0.0000 C   0  0  0  0  0  0  0  0  0  0  0  0
    2.9233    1.2583    0.0000 C   0  0  0  0  0  0  0  0  0  0  0  0
    1.6233   -0.9933    0.0000 C   0  0  0  0  0  0  0  0  0  0  0  0
    1.6243    2.0083    0.0000 C   0  0  0  0  0  0  0  0  0  0  0  0
    0.3243   -0.2433    0.0000 C   0  0  0  0  0  0  0  0  0  0  0  0
    0.3248    1.2575    0.0000 C   0  0  0  0  0  0  0  0  0  0  0  0
   -0.9743    2.0075    0.0000 C   0  0  0  0  0  0  0  0  0  0  0  0
   -0.9743    3.5075    0.0000 O   0  0  0  0  0  0  0  0  0  0  0  0
  2  1  1  0
  4  3  2  0
  5  3  1  0
  6  4  1  0
  7  5  2  0
  8  6  2  0
  8  7  1  0
  9  2  1  0
  9  8  1  0
 10  9  2  0
M  END
>  <NAME>  (5219) 
PROPIOPHENONE

>  <SYNONYMS>  (5219) 


>  <SPECTRUM TYPE>  (5219) 
MS1

>  <INSTRUMENT TYPE>  (5219) 
EI-B

>  <INSTRUMENT>  (5219) 
HITACHI M-68

>  <ION MODE>  (5219) 
P

>  <INCHIKEY>  (5219) 
KRIOVPPHQSLHCZ-UHFFFAOYSA-N

>  <FORMULA>  (5219) 
C9H10O

>  <EXACT MASS>  (5219) 
134.07316494

>  <MW>  (5219) 
134

>  <ID>  (5219) 
JP004119

>  <CONTRIBUTOR>  (5219) 
University of Tokyo Team, {Faculty of Engineering, University of Tokyo

>  <COMMENT>  (5219) 
SMILES=CCC(=O)c(c1)cccc1
InChI=InChI=1S/C9H10O/c1-2-9(10)8-6-4-3-5-7-8/h3-7H,2H2,1H3
computed SMILES=O=C(C=1C=CC=CC1)CC
accession=JP004119
date=2016.01.19 (Created 2008.10.21, modified 2011.05.06)
author=YAMAMOTO M, DEP. CHEMISTRY, FAC. SCIENCE, NARA WOMEN'S UNIV.
license=CC BY-NC-SA
exact mass=134.07316
ionization energy=70 eV
ion type=[M]+*
computed spectral entropy=1.5518545398865033
computed normalized entropy=0.5477365632002726
SPLASH=splash10-0a4i-4900000000-416230789be4145ce902
submitter=submitter = University of Tokyo Team (Faculty of Engineering, University of Tokyo)
MoNA Rating=3.75

>  <NUM PEAKS>  (5219) 
17

>  <MASS SPECTRAL PEAKS>  (5219) 
27 2.5
29 1.8
39 1
43 1.5
50 4.2
51 10.5
74 1.4
75 0.1
76 1.4
77 30
78 2.6
105 99.99
106 9.8
107 0.7
133 0.6
134 1.4
135 5.4

$$$$

     RDKit          2D

 11 11  0  0  0  0  0  0  0  0999 V2000
   -3.8969    2.5696    0.0000 C   0  0  0  0  0  0  0  0  0  0  0  0
   -2.5978    0.3196    0.0000 C   0  0  0  0  0  0  0  0  0  0  0  0
    2.5983    0.3196    0.0000 C   0  0  0  0  0  0  0  0  0  0  0  0
    2.5988    1.8204    0.0000 C   0  0  0  0  0  0  0  0  0  0  0  0
    1.2988   -0.4312    0.0000 C   0  0  0  0  0  0  0  0  0  0  0  0
    1.2998    2.5704    0.0000 C   0  0  0  0  0  0  0  0  0  0  0  0
   -0.0002    0.3188    0.0000 C   0  0  0  0  0  0  0  0  0  0  0  0
    0.0002    1.8196    0.0000 C   0  0  0  0  0  0  0  0  0  0  0  0
   -1.2988    2.5696    0.0000 C   0  0  0  0  0  0  0  0  0  0  0  0
   -2.5978    1.8196    0.0000 N   0  0  0  0  0  0  0  0  0  0  0  0
   -1.2988    4.0696    0.0000 O   0  0  0  0  0  0  0  0  0  0  0  0
  4  3  2  0
  5  3  1  0
  6  4  1  0
  7  5  2  0
  8  6  2  0
  8  7  1  0
  9  8  1  0
 10  1  1  0
 10  2  1  0
 10  9  1  0
 11  9  2  0
M  END
>  <NAME>  (5220) 
N,N-DIMETHYLBENZAMIDE

>  <SYNONYMS>  (5220) 


>  <SPECTRUM TYPE>  (5220) 
MS1

>  <INSTRUMENT TYPE>  (5220) 
EI-B

>  <INSTRUMENT>  (5220) 
HITACHI M-68

>  <ION MODE>  (5220) 
P

>  <INCHIKEY>  (5220) 
IMNDHOCGZLYMRO-UHFFFAOYSA-N

>  <FORMULA>  (5220) 
C9H11NO

>  <EXACT MASS>  (5220) 
149.084063972

>  <MW>  (5220) 
149

>  <ID>  (5220) 
JP004118

>  <CONTRIBUTOR>  (5220) 
University of Tokyo Team, {Faculty of Engineering, University of Tokyo

>  <COMMENT>  (5220) 
SMILES=CN(C)C(=O)c(c1)cccc1
InChI=InChI=1S/C9H11NO/c1-10(2)9(11)8-6-4-3-5-7-8/h3-7H,1-2H3
computed SMILES=O=C(C=1C=CC=CC1)N(C)C
accession=JP004118
date=2016.01.19 (Created 2008.10.21, modified 2011.05.06)
author=YAMAMOTO M, DEP. CHEMISTRY, FAC. SCIENCE, NARA WOMEN'S UNIV.
license=CC BY-NC-SA
exact mass=149.08406
ion type=[M]+*
ionization energy=70 eV
computed spectral entropy=2.396959054361274
computed normalized entropy=0.7047397682018345
SPLASH=splash10-056r-9600000000-849f35fea6958847e475
submitter=submitter = University of Tokyo Team (Faculty of Engineering, University of Tokyo)
MoNA Rating=3.75

>  <NUM PEAKS>  (5220) 
30

>  <MASS SPECTRAL PEAKS>  (5220) 
14 3.1
15 4.6
18 18.6
28 40.4
29 1.7
36 1.8
38 1.5
39 0.24
40 1.1
41 1.6
42 10.6
44 0.62
50 8.8
51 22.3
52 2
69 0.81
72 3.3
74 2.9
75 2.4
76 0.37
77 67.2
78 5.1
91 1.5
105 99.99
106 9.2
119 2.2
131 3.1
148 4.32
149 27
150 2.8

$$$$

     RDKit          2D

 10 10  0  0  0  0  0  0  0  0999 V2000
   -3.8969    2.5696    0.0000 C   0  0  0  0  0  0  0  0  0  0  0  0
   -2.5978    0.3196    0.0000 C   0  0  0  0  0  0  0  0  0  0  0  0
    2.5983    0.3196    0.0000 C   0  0  0  0  0  0  0  0  0  0  0  0
    2.5988    1.8204    0.0000 C   0  0  0  0  0  0  0  0  0  0  0  0
    1.2988   -0.4312    0.0000 C   0  0  0  0  0  0  0  0  0  0  0  0
    1.2998    2.5704    0.0000 C   0  0  0  0  0  0  0  0  0  0  0  0
   -0.0002    0.3188    0.0000 C   0  0  0  0  0  0  0  0  0  0  0  0
   -1.2988    2.5696    0.0000 C   0  0  0  0  0  0  0  0  0  0  0  0
    0.0002    1.8196    0.0000 C   0  0  0  0  0  0  0  0  0  0  0  0
   -2.5978    1.8196    0.0000 N   0  0  0  0  0  0  0  0  0  0  0  0
  4  3  2  0
  5  3  1  0
  6  4  1  0
  7  5  2  0
  9  6  2  0
  9  7  1  0
  9  8  1  0
 10  1  1  0
 10  2  1  0
 10  8  1  0
M  END
>  <NAME>  (5221) 
N,N-DIMETHYLBENZYLAMINE

>  <SYNONYMS>  (5221) 


>  <SPECTRUM TYPE>  (5221) 
MS1

>  <INSTRUMENT TYPE>  (5221) 
EI-B

>  <INSTRUMENT>  (5221) 
HITACHI M-68

>  <ION MODE>  (5221) 
P

>  <INCHIKEY>  (5221) 
XXBDWLFCJWSEKW-UHFFFAOYSA-N

>  <FORMULA>  (5221) 
C9H13N

>  <EXACT MASS>  (5221) 
135.104799416

>  <MW>  (5221) 
135

>  <ID>  (5221) 
JP004117

>  <CONTRIBUTOR>  (5221) 
University of Tokyo Team, {Faculty of Engineering, University of Tokyo

>  <COMMENT>  (5221) 
SMILES=CN(C)Cc(c1)cccc1
InChI=InChI=1S/C9H13N/c1-10(2)8-9-6-4-3-5-7-9/h3-7H,8H2,1-2H3
computed SMILES=C=1C=CC(=CC1)CN(C)C
accession=JP004117
date=2016.01.19 (Created 2008.10.21, modified 2011.05.06)
author=YAMAMOTO M, DEP. CHEMISTRY, FAC. SCIENCE, NARA WOMEN'S UNIV.
license=CC BY-NC-SA
exact mass=135.1048
ionization energy=70 eV
ion type=[M]+*
computed spectral entropy=2.45808145742006
computed normalized entropy=0.6913757570026254
SPLASH=splash10-052o-9500000000-5ee951185ebe90ca6564
submitter=submitter = University of Tokyo Team (Faculty of Engineering, University of Tokyo)
MoNA Rating=3.75

>  <NUM PEAKS>  (5221) 
35

>  <MASS SPECTRAL PEAKS>  (5221) 
15 4.9
27 2.2
28 3.6
29 1.4
30 3.1
31 1.6
38 1.7
39 0.93
40 1.4
41 3.9
42 21.5
43 0.41
44 10.1
50 3.2
51 8.2
52 0.18
57 3.9
58 99.99
59 3.5
62 0.22
63 5.9
64 2
65 18.6
66 0.13
77 4.9
78 1.8
89 5.4
90 0.23
91 67.7
92 11.8
118 5
132 0.27
134 55.1
135 96
136 9.7

$$$$

     RDKit          2D

 10 10  0  0  0  0  0  0  0  0999 V2000
   -3.5724    2.0075    0.0000 C   0  0  0  0  0  0  0  0  0  0  0  0
    2.9228   -0.2425    0.0000 C   0  0  0  0  0  0  0  0  0  0  0  0
    2.9233    1.2583    0.0000 C   0  0  0  0  0  0  0  0  0  0  0  0
    1.6233   -0.9933    0.0000 C   0  0  0  0  0  0  0  0  0  0  0  0
    1.6243    2.0083    0.0000 C   0  0  0  0  0  0  0  0  0  0  0  0
    0.3243   -0.2433    0.0000 C   0  0  0  0  0  0  0  0  0  0  0  0
    0.3248    1.2575    0.0000 C   0  0  0  0  0  0  0  0  0  0  0  0
   -0.9743    2.0075    0.0000 C   0  0  0  0  0  0  0  0  0  0  0  0
   -2.2733    1.2575    0.0000 N   0  0  0  0  0  0  0  0  0  0  0  0
   -0.9743    3.5075    0.0000 O   0  0  0  0  0  0  0  0  0  0  0  0
  3  2  2  0
  4  2  1  0
  5  3  1  0
  6  4  2  0
  7  5  2  0
  7  6  1  0
  8  7  1  0
  9  1  1  0
  9  8  2  3
 10  8  1  0
M  END
>  <NAME>  (5222) 
N-METHYLBENZAMIDE

>  <SYNONYMS>  (5222) 


>  <SPECTRUM TYPE>  (5222) 
MS1

>  <INSTRUMENT TYPE>  (5222) 
EI-B

>  <INSTRUMENT>  (5222) 
HITACHI M-68

>  <ION MODE>  (5222) 
P

>  <INCHIKEY>  (5222) 
NCCHARWOCKOHIH-UHFFFAOYSA-N

>  <FORMULA>  (5222) 
C8H9NO

>  <EXACT MASS>  (5222) 
135.068413908

>  <MW>  (5222) 
135

>  <ID>  (5222) 
JP004116

>  <CONTRIBUTOR>  (5222) 
University of Tokyo Team, {Faculty of Engineering, University of Tokyo

>  <COMMENT>  (5222) 
SMILES=CNC(=O)c(c1)cccc1
InChI=InChI=1S/C8H9NO/c1-9-8(10)7-5-3-2-4-6-7/h2-6H,1H3,(H,9,10)
computed SMILES=OC(=NC)C=1C=CC=CC1
accession=JP004116
date=2016.01.19 (Created 2008.10.21, modified 2011.05.06)
author=YAMAMOTO M, DEP. CHEMISTRY, FAC. SCIENCE, NARA WOMEN'S UNIV.
license=CC BY-NC-SA
exact mass=135.06841
ionization energy=70 eV
ion type=[M]+*
computed spectral entropy=2.421382847945234
computed normalized entropy=0.7266609358913328
SPLASH=splash10-0a70-9800000000-e05b7564e0c71ca0b143
submitter=submitter = University of Tokyo Team (Faculty of Engineering, University of Tokyo)
MoNA Rating=3.75

>  <NUM PEAKS>  (5222) 
28

>  <MASS SPECTRAL PEAKS>  (5222) 
14 6
15 4.6
29 3.2
30 2.3
31 2.1
35 3.5
36 19.7
37 0.19
38 7.2
39 3.9
43 6.1
44 1.17
50 11.1
51 27.6
52 2.6
58 0.6
73 2.5
74 5.6
75 4.9
76 0.49
77 68.3
78 6
105 99.99
106 0.93
133 1.8
134 30.3
135 49
136 4.5

$$$$

     RDKit          2D

  9  9  0  0  0  0  0  0  0  0999 V2000
   -3.5724    2.0075    0.0000 C   0  0  0  0  0  0  0  0  0  0  0  0
    2.9228   -0.2425    0.0000 C   0  0  0  0  0  0  0  0  0  0  0  0
    2.9233    1.2583    0.0000 C   0  0  0  0  0  0  0  0  0  0  0  0
    1.6233   -0.9933    0.0000 C   0  0  0  0  0  0  0  0  0  0  0  0
    1.6243    2.0083    0.0000 C   0  0  0  0  0  0  0  0  0  0  0  0
    0.3243   -0.2433    0.0000 C   0  0  0  0  0  0  0  0  0  0  0  0
   -0.9743    2.0075    0.0000 C   0  0  0  0  0  0  0  0  0  0  0  0
    0.3248    1.2575    0.0000 C   0  0  0  0  0  0  0  0  0  0  0  0
   -2.2733    1.2575    0.0000 N   0  0  0  0  0  0  0  0  0  0  0  0
  3  2  2  0
  4  2  1  0
  5  3  1  0
  6  4  2  0
  8  5  2  0
  8  6  1  0
  8  7  1  0
  9  1  1  0
  9  7  1  0
M  END
>  <NAME>  (5223) 
N-METHYLBENZYLAMINE

>  <SYNONYMS>  (5223) 


>  <SPECTRUM TYPE>  (5223) 
MS1

>  <INSTRUMENT TYPE>  (5223) 
EI-B

>  <INSTRUMENT>  (5223) 
HITACHI M-68

>  <ION MODE>  (5223) 
P

>  <INCHIKEY>  (5223) 
RIWRFSMVIUAEBX-UHFFFAOYSA-N

>  <FORMULA>  (5223) 
C8H11N

>  <EXACT MASS>  (5223) 
121.08914935199999

>  <MW>  (5223) 
121

>  <ID>  (5223) 
JP004115

>  <CONTRIBUTOR>  (5223) 
University of Tokyo Team, {Faculty of Engineering, University of Tokyo

>  <COMMENT>  (5223) 
SMILES=CNCc(c1)cccc1
InChI=InChI=1S/C8H11N/c1-9-7-8-5-3-2-4-6-8/h2-6,9H,7H2,1H3
computed SMILES=C=1C=CC(=CC1)CNC
accession=JP004115
date=2016.01.19 (Created 2008.10.21, modified 2011.05.06)
author=YAMAMOTO M, DEP. CHEMISTRY, FAC. SCIENCE, NARA WOMEN'S UNIV.
license=CC BY-NC-SA
exact mass=121.08915
ionization energy=70 eV
ion type=[M]+*
computed spectral entropy=2.7497740691025125
computed normalized entropy=0.7404660579383506
SPLASH=splash10-006x-9300000000-3613e529e818cef1cddc
submitter=submitter = University of Tokyo Team (Faculty of Engineering, University of Tokyo)
MoNA Rating=3.75

>  <NUM PEAKS>  (5223) 
41

>  <MASS SPECTRAL PEAKS>  (5223) 
30 12.1
31 16.1
32 1.4
36 6
37 1.2
38 4.7
40 1.4
41 0.37
42 32.7
43 10.8
44 64.3
45 0.72
46 2.9
50 7.4
51 16.2
52 0.44
61 1.3
62 3.7
63 9.9
64 0.29
65 18.7
66 1.3
74 2
75 0.2
76 2
77 11.3
78 6.3
79 0.32
89 6.8
90 2.6
91 50.5
92 1.25
93 1.1
104 5
105 1.5
106 0.28
118 4.7
119 1.8
120 99.99
121 7.3
122 6.5

$$$$

     RDKit          2D

 21 24  0  0  1  0  0  0  0  0999 V2000
   -1.6300    0.9100    0.0000 C   0  0  0  0  0  0  0  0  0  0  0  0
    2.4272    3.1517    0.0000 C   0  0  0  0  0  0  0  0  0  0  0  0
   -0.3300   -2.8400    0.0000 C   0  0  0  0  0  0  0  0  0  0  0  0
    0.9700   -2.0900    0.0000 C   0  0  0  0  0  0  0  0  0  0  0  0
    3.6900   -0.3000    0.0000 C   0  0  0  0  0  0  0  0  0  0  0  0
    4.5700    0.9100    0.0000 C   0  0  0  0  0  0  0  0  0  0  0  0
   -4.2300   -0.5900    0.0000 C   0  0  0  0  0  0  0  0  0  0  0  0
   -0.3300    1.6600    0.0000 C   0  0  0  0  0  0  0  0  0  0  0  0
   -2.9300    0.1600    0.0000 C   0  0  0  0  0  0  0  0  0  0  0  0
    0.9700    2.4100    0.0000 C   0  0  0  0  0  0  0  0  0  0  0  0
   -2.9300   -2.8400    0.0000 C   0  0  0  0  0  0  0  0  0  0  0  0
   -1.6300   -2.0900    0.0000 C   0  0  0  0  0  0  0  0  0  0  0  0
   -4.2300   -2.0900    0.0000 C   0  0  0  0  0  0  0  0  0  0  0  0
    0.9700   -0.5900    0.0000 C   0  0  0  0  0  0  0  0  0  0  0  0
    2.2700    0.1600    0.0000 C   0  0  0  0  0  0  0  0  0  0  0  0
   -0.3300    0.1600    0.0000 C   0  0  0  0  0  0  0  0  0  0  0  0
    3.6900    2.1200    0.0000 C   0  0  0  0  0  0  0  0  0  0  0  0
   -1.6300   -0.5900    0.0000 C   0  0  0  0  0  0  0  0  0  0  0  0
    2.2700    1.6600    0.0000 C   0  0  0  0  0  0  0  0  0  0  0  0
   -5.5289   -2.8402    0.0000 O   0  0  0  0  0  0  0  0  0  0  0  0
    4.1538    3.5465    0.0000 O   0  0  0  0  0  0  0  0  0  0  0  0
  4  3  1  0
  6  5  1  0
  9  7  1  0
 10  8  1  0
 12  3  1  1
 12 11  1  0
 13  7  1  0
 13 11  1  0
 14  4  1  6
 15  5  1  1
 15 14  1  0
 16  8  1  1
 16 14  1  0
 17  6  1  0
 18  1  1  1
 18  9  1  0
 18 12  1  0
 18 16  1  0
 19  2  1  1
 19 10  1  0
 19 15  1  0
 19 17  1  0
 20 13  2  0
 17 21  1  1
M  END
>  <NAME>  (5224) 
STANOLONE

>  <SYNONYMS>  (5224) 


>  <SPECTRUM TYPE>  (5224) 
MS1

>  <INSTRUMENT TYPE>  (5224) 
EI-B

>  <INSTRUMENT>  (5224) 
HITACHI RMU-6E

>  <ION MODE>  (5224) 
P

>  <INCHIKEY>  (5224) 
NVKAWKQGWWIWPM-ABEVXSGRSA-N

>  <FORMULA>  (5224) 
C19H30O2

>  <EXACT MASS>  (5224) 
290.2245802

>  <MW>  (5224) 
290

>  <ID>  (5224) 
JP004114

>  <CONTRIBUTOR>  (5224) 
University of Tokyo Team, {Faculty of Engineering, University of Tokyo

>  <COMMENT>  (5224) 
SMILES=O=C(C4)CC([H])(C3)C(C)(C4)C([H])(C2)C([H])(C3)C([H])(C1)C(C)(C2)C([H])(O)C1
InChI=InChI=1S/C19H30O2/c1-18-9-7-13(20)11-12(18)3-4-14-15-5-6-17(21)19(15,2)10-8-16(14)18/h12,14-17,21H,3-11H2,1-2H3/t12-,14-,15-,16-,17-,18-,19-/m0/s1
computed SMILES=O=C1CCC2(C)C(C1)CCC3C4CCC(O)C4(C)CCC32
accession=JP004114
date=2016.01.19 (Created 2008.10.21, modified 2011.05.06)
author=YAMAMOTO M, DEP. CHEMISTRY, FAC. SCIENCE, NARA WOMEN'S UNIV.
license=CC BY-NC-SA
exact mass=290.22458
ionization energy=70 eV
ion type=[M]+*
computed spectral entropy=4.266089788549308
computed normalized entropy=0.8525450769686589
SPLASH=splash10-015c-8970000000-ef0c6a4fd9c52be30284
submitter=submitter = University of Tokyo Team (Faculty of Engineering, University of Tokyo)
MoNA Rating=3.75

>  <NUM PEAKS>  (5224) 
149

>  <MASS SPECTRAL PEAKS>  (5224) 
17 7.8
18 37.8
27 5.7
28 6.2
29 12.4
31 1.5
39 7
40 0.23
41 4.15
42 3.5
43 21.8
44 0.19
45 1.7
53 15
54 4.1
55 5.09
56 4.3
57 11
58 1.4
65 0.54
66 3.2
67 38.3
68 28
69 1.88
70 2.1
71 8.5
74 1.9
77 1.49
78 3.3
79 31.4
80 9
81 4.4
82 10.6
83 9.9
84 3.2
85 0.28
88 0.16
91 22.5
92 4.8
93 3.18
94 16
95 34.7
96 7.1
97 1.22
98 1.7
99 1.3
103 1.4
104 0.16
105 21.7
106 7.3
107 28.4
108 1.17
109 21.7
110 9.7
111 9.6
112 0.19
115 1.7
117 3.9
118 5
119 1.65
120 7.9
121 27.1
122 16.6
123 3.57
124 26.5
125 4.8
129 1.8
131 0.65
132 3.1
133 12
134 4.8
135 1.36
136 7.8
137 10.2
138 1.7
143 0.23
144 1.6
145 7.4
146 3.7
147 1.18
148 6
149 16.7
150 3.3
151 0.31
157 2.8
158 1.5
159 8.9
160 0.3
161 11.9
162 6.4
163 30.1
164 0.89
165 6
166 3
167 5.4
171 0.22
172 1.4
173 5.8
174 5.2
175 0.87
176 7.2
177 4
178 2.6
179 0.56
185 3
186 1.4
187 3.1
188 0.17
189 8
190 4.6
191 2.1
192 0.13
197 1.2
199 13
200 5.9
201 0.53
202 1.7
203 4.3
204 7.6
205 0.2
213 5.6
214 1.6
215 13.1
216 3.1
217 10.7
218 5.5
219 2.3
220 0.21
228 1.2
229 2.3
230 2.3
231 99.99
232 23.1
233 19
234 3.7
244 0.16
246 18.9
247 10.7
248 2.1
257 0.97
258 1.9
261 1.6
272 10.4
273 0.23
275 7.7
276 1.9
290 89
291 1.88
292 2

$$$$

     RDKit          2D

 22 24  0  0  0  0  0  0  0  0999 V2000
   -0.5568   -3.1525    0.0000 C   0  0  0  0  0  0  0  0  0  0  0  0
    1.2008    5.0616    0.0000 C   0  0  0  0  0  0  0  0  0  0  0  0
    0.1047    6.0890    0.0000 C   0  0  0  0  0  0  0  0  0  0  0  0
    0.8809    3.5961    0.0000 C   0  0  0  0  0  0  0  0  0  0  0  0
   -1.3351    5.6356    0.0000 C   0  0  0  0  0  0  0  0  0  0  0  0
    2.8800   -0.7500    0.0000 C   0  0  0  0  0  0  0  0  0  0  0  0
    1.5800   -1.5000    0.0000 C   0  0  0  0  0  0  0  0  0  0  0  0
    1.5800    1.5000    0.0000 C   0  0  0  0  0  0  0  0  0  0  0  0
    2.8800    0.7500    0.0000 C   0  0  0  0  0  0  0  0  0  0  0  0
   -0.5568    3.1525    0.0000 C   0  0  0  0  0  0  0  0  0  0  0  0
    0.2800    0.7500    0.0000 C   0  0  0  0  0  0  0  0  0  0  0  0
   -1.6550    4.1701    0.0000 C   0  0  0  0  0  0  0  0  0  0  0  0
    0.2800   -0.7500    0.0000 C   0  0  0  0  0  0  0  0  0  0  0  0
   -0.8900    1.6900    0.0000 C   0  0  0  0  0  0  0  0  0  0  0  0
   -3.0000    0.0000    0.0000 C   0  0  0  0  0  0  0  0  0  0  0  0
   -2.3500   -1.3500    0.0000 C   0  0  0  0  0  0  0  0  0  0  0  0
    4.1789    1.5002    0.0000 Cl  0  0  0  0  0  0  0  0  0  0  0  0
   -3.0861    3.7207    0.0000 Cl  0  0  0  0  0  0  0  0  0  0  0  0
   -2.3500    1.3500    0.0000 N   0  0  0  0  0  0  0  0  0  0  0  0
   -0.8900   -1.6900    0.0000 N   0  0  0  0  0  0  0  0  0  0  0  0
   -4.5000    0.0000    0.0000 O   0  0  0  0  0  0  0  0  0  0  0  0
   -3.2879   -2.5207    0.0000 O   0  0  0  0  0  0  0  0  0  0  0  0
  3  2  2  0
  4  2  1  0
  5  3  1  0
  7  6  2  0
  9  6  1  0
  9  8  2  0
 10  4  2  0
 11  8  1  0
 12  5  2  0
 12 10  1  0
 13  7  1  0
 13 11  2  0
 14 10  1  0
 14 11  1  0
 16 15  1  0
 17  9  1  0
 18 12  1  0
 19 14  2  0
 19 15  1  0
 20  1  1  0
 20 13  1  0
 20 16  1  0
 21 15  1  0
 22 16  2  0
M  END
>  <NAME>  (5225) 
ORTHO-CHLORO-3-HYDROXYDIAZEPAM

>  <SYNONYMS>  (5225) 


>  <SPECTRUM TYPE>  (5225) 
MS1

>  <INSTRUMENT TYPE>  (5225) 
EI-B

>  <INSTRUMENT>  (5225) 
HITACHI M-68

>  <ION MODE>  (5225) 
P

>  <INCHIKEY>  (5225) 
FJIKWRGCXUCUIG-UHFFFAOYSA-N

>  <FORMULA>  (5225) 
C16H12Cl2N2O2

>  <EXACT MASS>  (5225) 
334.027582984

>  <MW>  (5225) 
334

>  <ID>  (5225) 
JP004113

>  <CONTRIBUTOR>  (5225) 
University of Tokyo Team, {Faculty of Engineering, University of Tokyo

>  <COMMENT>  (5225) 
SMILES=Clc(c3)cc(c(c3)2)C(=NC(O)C(=O)N(C)2)c(c1)c(Cl)ccc1
InChI=InChI=1S/C16H12Cl2N2O2/c1-20-13-7-6-9(17)8-11(13)14(19-15(21)16(20)22)10-4-2-3-5-12(10)18/h2-8,15,21H,1H3
computed SMILES=O=C1N(C=2C=CC(Cl)=CC2C(=NC1O)C=3C=CC=CC3Cl)C
accession=JP004113
date=2016.01.19 (Created 2008.10.21, modified 2011.05.06)
author=YAMAMOTO M, DEP. CHEMISTRY, FAC. SCIENCE, NARA WOMEN'S UNIV.
license=CC BY-NC-SA
exact mass=334.02758
ionization energy=70 eV
ion type=[M]+*
computed spectral entropy=3.237720255371476
computed normalized entropy=0.7061599172586203
SPLASH=splash10-0a4i-1219000000-503deaa645713d28cd79
submitter=submitter = University of Tokyo Team (Faculty of Engineering, University of Tokyo)
MoNA Rating=3.75

>  <NUM PEAKS>  (5225) 
98

>  <MASS SPECTRAL PEAKS>  (5225) 
15 1.7
18 6.5
39 1.3
50 1.5
51 2.6
63 2.2
69 1.8
74 0.16
75 5.1
76 2.7
77 3.2
88 0.19
89 1.7
99 1.7
100 1.4
101 0.1
102 5.4
103 2
110 1.1
111 0.45
112 1.7
113 2.2
114 1.5
117 0.26
117.5 1.8
121.5 1.2
124 1.5
125 0.23
126 1.3
127 1.3
132 1
135 0.12
136 1.2
137 1.3
138 4.8
139 0.36
140 4.1
141 1.2
150 2.7
151 0.34
152 3.3
153 1.3
154 1
163 0.24
164 2.7
165 4.7
166 1.6
167 0.14
176 1
177 4.8
178 2.2
179 0.14
191 1.6
192 1.7
193 1.8
195 0.24
199 1.7
200 1
201 1
214 0.16
226 1.3
227 2.2
228 3
229 0.13
235 1.1
241 1
242 1.2
243 0.18
255 4.5
256 1.6
257 1.5
261 0.11
262 2.5
263 1.3
264 1.6
269 0.24
270 1
271 1.9
273 1.5
275 0.1
277 1.2
289 5.4
290 3.4
291 0.61
292 2.3
293 2.5
299 1.6
305 99.99
306 17
307 65
308 10.2
309 1.04
310 1.8
334 13
335 2.6
336 0.8
337 1.6
338 1.4

$$$$

     RDKit          2D

 15 15  0  0  0  0  0  0  0  0999 V2000
   -5.1970   -1.5006    0.0000 C   0  0  0  0  0  0  0  0  0  0  0  0
   -3.8983    0.7496    0.0000 C   0  0  0  0  0  0  0  0  0  0  0  0
    2.5987    3.0002    0.0000 C   0  0  0  0  0  0  0  0  0  0  0  0
   -1.3000    0.7500    0.0000 C   0  0  0  0  0  0  0  0  0  0  0  0
   -0.0000   -1.5000    0.0000 C   0  0  0  0  0  0  0  0  0  0  0  0
    0.0000    1.5000    0.0000 C   0  0  0  0  0  0  0  0  0  0  0  0
    1.3000   -0.7500    0.0000 C   0  0  0  0  0  0  0  0  0  0  0  0
   -2.5989   -1.5002    0.0000 C   0  0  0  0  0  0  0  0  0  0  0  0
   -3.8981   -0.7504    0.0000 C   0  0  0  0  0  0  0  0  0  0  0  0
    2.5989    1.5002    0.0000 C   0  0  0  0  0  0  0  0  0  0  0  0
   -1.3000   -0.7500    0.0000 C   0  0  0  0  0  0  0  0  0  0  0  0
    1.3000    0.7500    0.0000 C   0  0  0  0  0  0  0  0  0  0  0  0
    3.8981    0.7504    0.0000 C   0  0  0  0  0  0  0  0  0  0  0  0
    3.8983   -0.7496    0.0000 O   0  0  0  0  0  0  0  0  0  0  0  0
    5.1970    1.5006    0.0000 O   0  0  0  0  0  0  0  0  0  0  0  0
  6  4  2  0
  7  5  1  0
  9  1  1  0
  9  2  1  0
  9  8  1  0
 10  3  1  0
 11  4  1  0
 11  5  2  0
 11  8  1  0
 12  6  1  0
 12  7  2  0
 12 10  1  0
 13 10  1  0
 14 13  2  0
 15 13  1  0
M  END
>  <NAME>  (5226) 
2-(4-ISOBUTYLPHENYL)PROPIONIC ACID

>  <SYNONYMS>  (5226) 


>  <SPECTRUM TYPE>  (5226) 
MS1

>  <INSTRUMENT TYPE>  (5226) 
EI-B

>  <INSTRUMENT>  (5226) 
HITACHI RMU-6E

>  <ION MODE>  (5226) 
P

>  <INCHIKEY>  (5226) 
HEFNNWSXXWATRW-UHFFFAOYSA-N

>  <FORMULA>  (5226) 
C13H18O2

>  <EXACT MASS>  (5226) 
206.130679816

>  <MW>  (5226) 
206

>  <ID>  (5226) 
JP004112

>  <CONTRIBUTOR>  (5226) 
University of Tokyo Team, {Faculty of Engineering, University of Tokyo

>  <COMMENT>  (5226) 
SMILES=CC(C)Cc(c1)ccc(c1)C(C)C(O)=O
InChI=InChI=1S/C13H18O2/c1-9(2)8-11-4-6-12(7-5-11)10(3)13(14)15/h4-7,9-10H,8H2,1-3H3,(H,14,15)
computed SMILES=O=C(O)C(C1=CC=C(C=C1)CC(C)C)C
accession=JP004112
date=2016.01.19 (Created 2008.10.21, modified 2011.05.06)
author=YAMAMOTO M, DEP. CHEMISTRY, FAC. SCIENCE, NARA WOMEN'S UNIV.
license=CC BY-NC-SA
exact mass=206.13068
ionization energy=70 eV
ion type=[M]+*
computed spectral entropy=2.9217080958924155
computed normalized entropy=0.7588561266053092
SPLASH=splash10-03di-3910000000-618880f8fd7b8ec3d473
submitter=submitter = University of Tokyo Team (Faculty of Engineering, University of Tokyo)
MoNA Rating=3.75

>  <NUM PEAKS>  (5226) 
47

>  <MASS SPECTRAL PEAKS>  (5226) 
27 8.4
29 4.1
39 9.6
41 19.4
43 16.7
45 2.1
51 5.1
52 0.14
53 2.8
55 3.1
57 6.6
63 0.34
64 1.5
65 6.6
77 10.8
78 0.42
79 4.8
89 3.2
90 1.4
91 6.73
92 5.9
93 2.6
102 1.9
103 0.71
104 5.3
105 13
106 1.4
107 4.15
108 3.3
115 12.4
116 4.4
117 3.07
118 25.5
119 54.3
120 5.8
128 0.31
129 1.9
131 3.2
133 2.7
145 0.47
161 94
162 13.2
163 99.99
164 2.34
165 2.3
206 45
207 6.7

$$$$

     RDKit          2D

 10 11  0  0  0  0  0  0  0  0999 V2000
   -2.6000   -0.7500    0.0000 C   0  0  0  0  0  0  0  0  0  0  0  0
   -2.6000    0.7500    0.0000 C   0  0  0  0  0  0  0  0  0  0  0  0
    2.6000   -0.7500    0.0000 C   0  0  0  0  0  0  0  0  0  0  0  0
    2.6000    0.7500    0.0000 C   0  0  0  0  0  0  0  0  0  0  0  0
   -1.3000   -1.5000    0.0000 C   0  0  0  0  0  0  0  0  0  0  0  0
   -1.3000    1.5000    0.0000 C   0  0  0  0  0  0  0  0  0  0  0  0
    1.3000   -1.5000    0.0000 C   0  0  0  0  0  0  0  0  0  0  0  0
    1.3000    1.5000    0.0000 C   0  0  0  0  0  0  0  0  0  0  0  0
    0.0000   -0.7500    0.0000 C   0  0  0  0  0  0  0  0  0  0  0  0
    0.0000    0.7500    0.0000 C   0  0  0  0  0  0  0  0  0  0  0  0
  2  1  2  0
  4  3  1  0
  5  1  1  0
  6  2  1  0
  7  3  2  0
  8  4  2  0
  9  5  2  0
  9  7  1  0
 10  6  2  0
 10  8  1  0
 10  9  1  0
M  END
>  <NAME>  (5227) 
NAPHTHALENE

>  <SYNONYMS>  (5227) 


>  <SPECTRUM TYPE>  (5227) 
MS1

>  <INSTRUMENT TYPE>  (5227) 
EI-B

>  <INSTRUMENT>  (5227) 
HITACHI RMU-6E

>  <ION MODE>  (5227) 
P

>  <INCHIKEY>  (5227) 
UFWIBTONFRDIAS-UHFFFAOYSA-N

>  <FORMULA>  (5227) 
C10H8

>  <EXACT MASS>  (5227) 
128.062600256

>  <MW>  (5227) 
128

>  <ID>  (5227) 
JP004111

>  <CONTRIBUTOR>  (5227) 
University of Tokyo Team, {Faculty of Engineering, University of Tokyo

>  <COMMENT>  (5227) 
SMILES=c(c2)cc(c1)c(c2)ccc1
InChI=InChI=1S/C10H8/c1-2-6-10-8-4-3-7-9(10)5-1/h1-8H
computed SMILES=C=1C=CC=2C=CC=CC2C1
accession=JP004111
date=2016.01.19 (Created 2008.10.21, modified 2011.05.06)
author=YAMAMOTO M, DEP. CHEMISTRY, FAC. SCIENCE, NARA WOMEN'S UNIV.
license=CC BY-NC-SA
exact mass=128.0626
ionization energy=70 eV
ion type=[M]+*
computed spectral entropy=1.8495530369947277
computed normalized entropy=0.6075018577881635
SPLASH=splash10-004i-2900000000-837afe39d2806871be73
submitter=submitter = University of Tokyo Team (Faculty of Engineering, University of Tokyo)
MoNA Rating=3.75

>  <NUM PEAKS>  (5227) 
21

>  <MASS SPECTRAL PEAKS>  (5227) 
39 1.2
50 2.6
51 8
62 1.3
63 5.3
63.5 1
64 9
64.5 0.11
74 2.8
75 3.5
76 2.8
77 0.4
78 2.6
87 1
98 1.2
101 0.3
102 6.5
126 7.6
127 13
128 99.99
129 12

$$$$

     RDKit          2D

 11 12  0  0  1  0  0  0  0  0999 V2000
   -0.6759    1.4813    0.0000 C   0  0  0  0  0  0  0  0  0  0  0  0
   -0.6759   -2.3013    0.0000 C   0  0  0  0  0  0  0  0  0  0  0  0
    2.4475    2.5900    0.0000 C   0  0  0  0  0  0  0  0  0  0  0  0
    1.1450   -1.1600    0.0000 C   0  0  0  0  0  0  0  0  0  0  0  0
    1.1450    0.3400    0.0000 C   0  0  0  0  0  0  0  0  0  0  0  0
    3.7350   -1.1600    0.0000 C   0  0  0  0  0  0  0  0  0  0  0  0
    2.4450   -1.9100    0.0000 C   0  0  0  0  0  0  0  0  0  0  0  0
    3.7350    0.3400    0.0000 C   0  0  0  0  0  0  0  0  0  0  0  0
    1.5750   -0.4100    0.0000 C   0  0  0  0  0  0  0  0  0  0  0  0
    2.4450    1.0900    0.0000 C   0  0  0  0  0  0  0  0  0  0  0  0
    5.0352    1.0880    0.0000 O   0  0  0  0  0  0  0  0  0  0  0  0
  5  4  1  0
  7  4  1  6
  7  6  1  0
  8  6  1  0
  9  1  1  0
  9  2  1  0
  9  7  1  0
 10  3  1  1
 10  5  1  0
 10  8  1  0
 10  9  1  0
  8 11  1  6
M  END
>  <NAME>  (5228) 
BORNEOL

>  <SYNONYMS>  (5228) 


>  <SPECTRUM TYPE>  (5228) 
MS1

>  <INSTRUMENT TYPE>  (5228) 
EI-B

>  <INSTRUMENT>  (5228) 
HITACHI RMU-6E

>  <ION MODE>  (5228) 
P

>  <INCHIKEY>  (5228) 
DTGKSKDOIYIVQL-QXFUBDJGSA-N

>  <FORMULA>  (5228) 
C10H18O

>  <EXACT MASS>  (5228) 
154.135765196

>  <MW>  (5228) 
154

>  <ID>  (5228) 
JP004110

>  <CONTRIBUTOR>  (5228) 
University of Tokyo Team, {Faculty of Engineering, University of Tokyo

>  <COMMENT>  (5228) 
SMILES=OC(C1)C(C)(C2)C(C)(C)C(C2)1
InChI=InChI=1S/C10H18O/c1-9(2)7-4-5-10(9,3)8(11)6-7/h7-8,11H,4-6H2,1-3H3/t7-,8+,10+/m0/s1
computed SMILES=OC1CC2CCC1(C)C2(C)C
accession=JP004110
date=2016.01.19 (Created 2008.10.21, modified 2011.05.06)
author=YAMAMOTO M, DEP. CHEMISTRY, FAC. SCIENCE, NARA WOMEN'S UNIV.
license=CC BY-NC-SA
exact mass=154.13577
ionization energy=70 eV
ion type=[M]+*
computed spectral entropy=3.161898280045288
computed normalized entropy=0.746768716519577
SPLASH=splash10-0002-9100000000-17ec59e424e6bec05bff
submitter=submitter = University of Tokyo Team (Faculty of Engineering, University of Tokyo)
MoNA Rating=3.75

>  <NUM PEAKS>  (5228) 
69

>  <MASS SPECTRAL PEAKS>  (5228) 
17 2.4
18 11.7
27 5.2
28 49
29 5.6
31 0.9
32 11.6
39 0.62
40 1.3
41 17.4
42 1.6
43 1.36
44 0.8
45 0.7
51 1.1
52 0.05
53 4.2
54 1.1
55 12.6
56 0.18
57 3.6
58 0.4
59 5.2
63 0.04
65 1.7
66 0.8
67 10.6
68 0.32
69 10.1
70 3.3
71 8.1
72 0.57
77 3.3
78 0.7
79 4.5
80 0.19
81 6.2
82 10.9
83 7.2
84 0.53
85 1.5
91 2.9
92 7.9
93 1.88
94 3
95 99.99
96 9.4
97 0.22
98 0.8
99 1
105 1.5
106 0.05
107 2.9
108 3.5
109 2.8
110 2.5
111 6.8
112 0.7
113 0.7
121 1.21
122 1.4
123 1.1
125 0.6
126 0.05
136 16
137 1.8
139 9.5
140 0.09
154 2

$$$$

     RDKit          2D

 16 17  0  0  0  0  0  0  0  0999 V2000
   -1.6186    4.7483    0.0000 C   0  0  0  0  0  0  0  0  0  0  0  0
   -2.9218    5.4956    0.0000 C   0  0  0  0  0  0  0  0  0  0  0  0
   -1.5924    3.2485    0.0000 C   0  0  0  0  0  0  0  0  0  0  0  0
   -4.2186    4.7229    0.0000 C   0  0  0  0  0  0  0  0  0  0  0  0
   -1.5571   -1.2368    0.0000 C   0  0  0  0  0  0  0  0  0  0  0  0
   -0.2695    1.0105    0.0000 C   0  0  0  0  0  0  0  0  0  0  0  0
   -0.2555   -1.9825    0.0000 C   0  0  0  0  0  0  0  0  0  0  0  0
    1.0320    0.2648    0.0000 C   0  0  0  0  0  0  0  0  0  0  0  0
   -1.5715    0.2467    0.0000 C   0  0  0  0  0  0  0  0  0  0  0  0
    1.0402   -1.2496    0.0000 C   0  0  0  0  0  0  0  0  0  0  0  0
   -2.8893    2.4858    0.0000 C   0  0  0  0  0  0  0  0  0  0  0  0
   -4.1924    3.2231    0.0000 C   0  0  0  0  0  0  0  0  0  0  0  0
   -2.8768    0.9858    0.0000 C   0  0  0  0  0  0  0  0  0  0  0  0
    2.3380   -2.0019    0.0000 Cl  0  0  0  0  0  0  0  0  0  0  0  0
   -5.4815    2.4562    0.0000 Cl  0  0  0  0  0  0  0  0  0  0  0  0
   -4.1695    0.2250    0.0000 O   0  0  0  0  0  0  0  0  0  0  0  0
  2  1  2  0
  3  1  1  0
  4  2  1  0
  7  5  2  0
  8  6  1  0
  9  5  1  0
  9  6  2  0
 10  7  1  0
 10  8  2  0
 11  3  2  0
 12  4  2  0
 12 11  1  0
 13  9  1  0
 13 11  1  0
 14 10  1  0
 15 12  1  0
 16 13  1  0
M  END
>  <NAME>  (5229) 
2,41-DICHLOROBENZHYDROL

>  <SYNONYMS>  (5229) 


>  <SPECTRUM TYPE>  (5229) 
MS1

>  <INSTRUMENT TYPE>  (5229) 
EI-B

>  <INSTRUMENT>  (5229) 
HITACHI RMU-6E

>  <ION MODE>  (5229) 
P

>  <INCHIKEY>  (5229) 
VFGVWLQSEJIIJV-UHFFFAOYSA-N

>  <FORMULA>  (5229) 
C13H10Cl2O

>  <EXACT MASS>  (5229) 
252.0108703

>  <MW>  (5229) 
252

>  <ID>  (5229) 
JP004109

>  <CONTRIBUTOR>  (5229) 
University of Tokyo Team, {Faculty of Engineering, University of Tokyo

>  <COMMENT>  (5229) 
SMILES=Clc(c2)ccc(c2)C(O)c(c1)c(Cl)ccc1
InChI=InChI=1S/C13H10Cl2O/c14-10-7-5-9(6-8-10)13(16)11-3-1-2-4-12(11)15/h1-8,13,16H
computed SMILES=ClC1=CC=C(C=C1)C(O)C=2C=CC=CC2Cl
accession=JP004109
date=2016.01.19 (Created 2008.10.21, modified 2011.05.06)
author=YAMAMOTO M, DEP. CHEMISTRY, FAC. SCIENCE, NARA WOMEN'S UNIV.
license=CC BY-NC-SA
exact mass=252.01087
ionization energy=70 eV
ion type=[M]+*
computed spectral entropy=3.066906218582154
computed normalized entropy=0.7490591404739199
SPLASH=splash10-000l-4920000000-52f07b73418cda754ead
submitter=submitter = University of Tokyo Team (Faculty of Engineering, University of Tokyo)
MoNA Rating=3.75

>  <NUM PEAKS>  (5229) 
60

>  <MASS SPECTRAL PEAKS>  (5229) 
35 1.2
36 1
39 1.3
47 5.4
48 2.7
49 1.9
50 4.9
51 0.92
63 3
74 2
75 10.3
76 1.09
76.5 1.2
77 34
78 3.4
81 0.22
82 3.6
82.5 1.3
83 25.1
85 1.69
87 3.1
89 1.1
90 3.2
90.5 0.25
99 2.4
99.5 1.6
100 1.1
104 0.22
105 6.3
108 1.4
111 13
112 1.73
113 13
114 6.2
115 3
139 99.99
140 12
141 52.6
142 5.4
143 0.73
151 1.7
152 6.1
153 2.4
163 0.26
164 1.9
165 5.6
181 2
199 0.43
201 1.6
217 24.8
218 3.6
219 0.8
220 1.1
235 1.4
251 2.9
252 2.3
253 4.9
254 14.6
255 2.3
256 2.3

$$$$

     RDKit          2D

 16 17  0  0  0  0  0  0  0  0999 V2000
   -1.6186    4.7483    0.0000 C   0  0  0  0  0  0  0  0  0  0  0  0
   -2.9218    5.4956    0.0000 C   0  0  0  0  0  0  0  0  0  0  0  0
   -1.5924    3.2485    0.0000 C   0  0  0  0  0  0  0  0  0  0  0  0
   -4.2186    4.7229    0.0000 C   0  0  0  0  0  0  0  0  0  0  0  0
   -1.5571   -1.2368    0.0000 C   0  0  0  0  0  0  0  0  0  0  0  0
   -0.2695    1.0105    0.0000 C   0  0  0  0  0  0  0  0  0  0  0  0
   -0.2555   -1.9825    0.0000 C   0  0  0  0  0  0  0  0  0  0  0  0
    1.0320    0.2648    0.0000 C   0  0  0  0  0  0  0  0  0  0  0  0
   -1.5715    0.2467    0.0000 C   0  0  0  0  0  0  0  0  0  0  0  0
    1.0402   -1.2496    0.0000 C   0  0  0  0  0  0  0  0  0  0  0  0
   -2.8893    2.4858    0.0000 C   0  0  0  0  0  0  0  0  0  0  0  0
   -4.1924    3.2231    0.0000 C   0  0  0  0  0  0  0  0  0  0  0  0
   -2.8768    0.9858    0.0000 C   0  0  0  0  0  0  0  0  0  0  0  0
    2.3380   -2.0019    0.0000 Cl  0  0  0  0  0  0  0  0  0  0  0  0
   -5.4815    2.4562    0.0000 Cl  0  0  0  0  0  0  0  0  0  0  0  0
   -4.1695    0.2250    0.0000 O   0  0  0  0  0  0  0  0  0  0  0  0
  2  1  2  0
  3  1  1  0
  4  2  1  0
  7  5  2  0
  8  6  1  0
  9  5  1  0
  9  6  2  0
 10  7  1  0
 10  8  2  0
 11  3  2  0
 12  4  2  0
 12 11  1  0
 13  9  1  0
 13 11  1  0
 14 10  1  0
 15 12  1  0
 16 13  2  0
M  END
>  <NAME>  (5230) 
2,41-DICHLOROBENZOPHEWONE

>  <SYNONYMS>  (5230) 


>  <SPECTRUM TYPE>  (5230) 
MS1

>  <INSTRUMENT TYPE>  (5230) 
EI-B

>  <INSTRUMENT>  (5230) 
HITACHI RMU-6E

>  <ION MODE>  (5230) 
P

>  <INCHIKEY>  (5230) 
YXMYPHLWXBXNFF-UHFFFAOYSA-N

>  <FORMULA>  (5230) 
C13H8Cl2O

>  <EXACT MASS>  (5230) 
249.995220236

>  <MW>  (5230) 
250

>  <ID>  (5230) 
JP004108

>  <CONTRIBUTOR>  (5230) 
University of Tokyo Team, {Faculty of Engineering, University of Tokyo

>  <COMMENT>  (5230) 
SMILES=Clc(c2)ccc(c2)C(=O)c(c1)c(Cl)ccc1
InChI=InChI=1S/C13H8Cl2O/c14-10-7-5-9(6-8-10)13(16)11-3-1-2-4-12(11)15/h1-8H
computed SMILES=O=C(C1=CC=C(Cl)C=C1)C=2C=CC=CC2Cl
accession=JP004108
date=2016.01.19 (Created 2008.10.21, modified 2011.05.06)
author=YAMAMOTO M, DEP. CHEMISTRY, FAC. SCIENCE, NARA WOMEN'S UNIV.
license=CC BY-NC-SA
exact mass=249.99522
ionization energy=70 eV
ion type=[M]+*
computed spectral entropy=2.2012962395852704
computed normalized entropy=0.6838711274845168
SPLASH=splash10-000i-2910000000-14666578b4963480f3b7
submitter=submitter = University of Tokyo Team (Faculty of Engineering, University of Tokyo)
MoNA Rating=3.75

>  <NUM PEAKS>  (5230) 
25

>  <MASS SPECTRAL PEAKS>  (5230) 
50 6.5
51 4.3
74 4.1
75 20.9
76 5.8
77 1.1
85 2.3
93 0.17
110 1.1
111 32.1
112 3.4
113 1.01
139 99.99
140 7.7
141 31.6
142 0.26
150 1.8
151 1.6
152 2.9
215 0.18
250 19
251 2.7
252 12.3
253 0.16
254 2.1

$$$$

     RDKit          2D

 13 13  0  0  0  0  0  0  0  0999 V2000
   -0.2903    0.1688    0.0000 C   0  0  0  0  0  0  0  0  0  0  0  0
   -1.5888    2.4196    0.0000 C   0  0  0  0  0  0  0  0  0  0  0  0
    1.0088   -0.5812    0.0000 C   0  0  0  0  0  0  0  0  0  0  0  0
   -2.8879    1.6696    0.0000 C   0  0  0  0  0  0  0  0  0  0  0  0
    1.0097    2.4205    0.0000 C   0  0  0  0  0  0  0  0  0  0  0  0
   -0.2898    1.6696    0.0000 C   0  0  0  0  0  0  0  0  0  0  0  0
    2.3083    0.1696    0.0000 C   0  0  0  0  0  0  0  0  0  0  0  0
    2.3088    1.6705    0.0000 C   0  0  0  0  0  0  0  0  0  0  0  0
   -4.1869    2.4196    0.0000 C   0  0  0  0  0  0  0  0  0  0  0  0
    3.6073   -0.5804    0.0000 O   0  0  0  0  0  0  0  0  0  0  0  0
    3.6079    2.4203    0.0000 O   0  0  0  0  0  0  0  0  0  0  0  0
   -4.1869    3.9196    0.0000 O   0  0  0  0  0  0  0  0  0  0  0  0
   -5.4859    1.6696    0.0000 O   0  0  0  0  0  0  0  0  0  0  0  0
  3  1  2  0
  2  4  2  0
  6  1  1  0
  6  2  1  0
  6  5  2  0
  7  3  1  0
  8  5  1  0
  8  7  2  0
  9  4  1  0
 10  7  1  0
 11  8  1  0
 12  9  2  0
 13  9  1  0
M  END
>  <NAME>  (5231) 
CAFFEIC ACID

>  <SYNONYMS>  (5231) 


>  <SPECTRUM TYPE>  (5231) 
MS1

>  <INSTRUMENT TYPE>  (5231) 
EI-B

>  <INSTRUMENT>  (5231) 
HITACHI RMU-6E

>  <ION MODE>  (5231) 
P

>  <INCHIKEY>  (5231) 
QAIPRVGONGVQAS-DUXPYHPUSA-N

>  <FORMULA>  (5231) 
C9H8O4

>  <EXACT MASS>  (5231) 
180.042258736

>  <MW>  (5231) 
180

>  <ID>  (5231) 
JP004107

>  <CONTRIBUTOR>  (5231) 
University of Tokyo Team, {Faculty of Engineering, University of Tokyo

>  <COMMENT>  (5231) 
SMILES=OC(=O)C=Cc(c1)cc(O)c(O)c1
InChI=InChI=1S/C9H8O4/c10-7-3-1-6(5-8(7)11)2-4-9(12)13/h1-5,10-11H,(H,12,13)/b4-2+
computed SMILES=O=C(O)C=CC1=CC=C(O)C(O)=C1
accession=JP004107
date=2016.01.19 (Created 2008.10.21, modified 2011.05.06)
author=YAMAMOTO M, DEP. CHEMISTRY, FAC. SCIENCE, NARA WOMEN'S UNIV.
license=CC BY-NC-SA
exact mass=180.04226
ionization energy=70 eV
ion type=[M]+*
computed spectral entropy=3.4843898722193525
computed normalized entropy=0.802151462560774
SPLASH=splash10-001i-9800000000-bae43e98e22babcbf5a7
submitter=submitter = University of Tokyo Team (Faculty of Engineering, University of Tokyo)
MoNA Rating=3.75

>  <NUM PEAKS>  (5231) 
77

>  <MASS SPECTRAL PEAKS>  (5231) 
16 2
18 2.4
26 2.6
27 11.1
28 4.9
29 4.7
37 1.7
38 0.53
39 17.9
40 2.7
41 2.8
43 0.36
44 45.5
44.5 3.5
45 4.2
50 0.85
51 17.8
52 7.5
53 13.7
53.5 0.25
54 2.9
55 9
61 1.7
62 0.86
63 15.8
64 5.1
65 3.5
66 0.24
67 7.5
67.5 3.8
68 4.2
69 0.38
74 1.7
75 1.9
76 1.7
77 1.48
78 8.3
79 8.9
80 2
81 0.3
81.5 2.9
87 1.6
88 4.8
89 3.07
90 11.4
91 2.1
92 1.7
93 0.17
95 1.5
105 3.8
106 5.5
107 0.8
108 1.6
109 1.2
110 7.2
111 0.8
117 10.7
118 2.3
119 2.2
123 0.66
133 3.5
134 31.9
135 21.7
136 7.35
137 7.2
138 2
139 1.3
145 0.72
151 1.4
152 2
162 4.5
163 2.94
164 3
179 15.6
180 99.99
181 1.07
182 1.6

$$$$

     RDKit          2D

 13 14  0  0  0  0  0  0  0  0999 V2000
    2.1853   -2.6360    0.0000 C   0  0  0  0  0  0  0  0  0  0  0  0
   -1.0100    1.5000    0.0000 C   0  0  0  0  0  0  0  0  0  0  0  0
   -1.0100   -1.5000    0.0000 C   0  0  0  0  0  0  0  0  0  0  0  0
    2.6000   -0.0000    0.0000 C   0  0  0  0  0  0  0  0  0  0  0  0
    0.2900    0.7500    0.0000 C   0  0  0  0  0  0  0  0  0  0  0  0
    0.2900   -0.7500    0.0000 C   0  0  0  0  0  0  0  0  0  0  0  0
   -2.3100    0.7500    0.0000 C   0  0  0  0  0  0  0  0  0  0  0  0
   -2.3100   -0.7500    0.0000 C   0  0  0  0  0  0  0  0  0  0  0  0
    1.7200    1.2100    0.0000 C   0  0  0  0  0  0  0  0  0  0  0  0
    1.7200   -1.2100    0.0000 N   0  0  0  0  0  0  0  0  0  0  0  0
   -3.6089    1.5002    0.0000 O   0  0  0  0  0  0  0  0  0  0  0  0
   -3.6089   -1.5002    0.0000 O   0  0  0  0  0  0  0  0  0  0  0  0
    2.1853    2.6360    0.0000 O   0  0  0  0  0  0  0  0  0  0  0  0
  5  2  2  0
  6  3  2  0
  6  5  1  0
  7  2  1  0
  8  3  1  0
  8  7  2  0
  9  4  2  0
  9  5  1  0
 10  1  1  0
 10  4  1  0
 10  6  1  0
 11  7  1  0
 12  8  1  0
 13  9  1  0
M  END
>  <NAME>  (5232) 
ADRENOLUTIN

>  <SYNONYMS>  (5232) 


>  <SPECTRUM TYPE>  (5232) 
MS1

>  <INSTRUMENT TYPE>  (5232) 
EI-B

>  <INSTRUMENT>  (5232) 
HITACHI RMU-6E

>  <ION MODE>  (5232) 
P

>  <INCHIKEY>  (5232) 
DINWCUSJIVPQIO-UHFFFAOYSA-N

>  <FORMULA>  (5232) 
C9H9NO3

>  <EXACT MASS>  (5232) 
179.05824314799997

>  <MW>  (5232) 
179

>  <ID>  (5232) 
JP004106

>  <CONTRIBUTOR>  (5232) 
University of Tokyo Team, {Faculty of Engineering, University of Tokyo

>  <COMMENT>  (5232) 
SMILES=Oc(c1)c(O)cc(n(C)2)c1c(O)c2
InChI=InChI=1S/C9H9NO3/c1-10-4-9(13)5-2-7(11)8(12)3-6(5)10/h2-4,11-13H,1H3
computed SMILES=OC1=CC=2C(O)=CN(C2C=C1O)C
accession=JP004106
date=2016.01.19 (Created 2008.10.21, modified 2011.05.06)
author=YAMAMOTO M, DEP. CHEMISTRY, FAC. SCIENCE, NARA WOMEN'S UNIV.
license=CC BY-NC-SA
exact mass=179.05824
ion type=[M]+*
ionization energy=70 eV
computed spectral entropy=3.609345440104963
computed normalized entropy=0.8213419505075608
SPLASH=splash10-0fml-9600000000-e443993fc6dedd110e2a
submitter=submitter = University of Tokyo Team (Faculty of Engineering, University of Tokyo)
MoNA Rating=3.75

>  <NUM PEAKS>  (5232) 
81

>  <MASS SPECTRAL PEAKS>  (5232) 
14 2
15 17.6
18 5.1
26 2.4
27 17.3
28 10.4
29 7.7
37 0.43
38 8
39 24
40 5.5
41 1.75
42 64.6
43 8.8
44 7.9
49 0.34
50 21.5
51 33.4
52 19.4
52.5 1.03
53 19.1
53.5 2.2
54 6.3
55 1.89
56 3.6
57 1.7
60.5 1.8
61 0.46
62 15.6
63 13.5
64 8.1
65 1.13
66 8.6
67 11.4
68 8.7
69 0.37
74 1.9
75 3.4
76 3.6
77 1.97
78 7.7
79 7.1
80 6.6
81 1.53
82 11.4
89.5 8.2
90 4.1
91 0.3
92 2.7
93 3.7
94 6.8
95 0.45
103 1.6
104 11.6
105 8.9
106 0.35
107 3.9
108 8.6
109 17.6
110 0.4
118 1.9
121 2.3
122 5.1
123 99.99
124 8.5
127 2.7
129 1.5
132 3.12
133 5.1
134 2.9
135 2.3
136 2.98
137 3.5
149 2.4
150 3.21
151 7.7
164 2.5
165 1.2
178 0.69
179 87
180 10.4

$$$$

     RDKit          2D

 12 12  0  0  0  0  0  0  0  0999 V2000
   -2.9355    2.4474    0.0000 C   0  0  0  0  0  0  0  0  0  0  0  0
   -0.3375    2.4347    0.0000 C   0  0  0  0  0  0  0  0  0  0  0  0
    0.9653    3.1783    0.0000 C   0  0  0  0  0  0  0  0  0  0  0  0
    3.5596    3.1719    0.0000 C   0  0  0  0  0  0  0  0  0  0  0  0
    2.2461    0.9470    0.0000 C   0  0  0  0  0  0  0  0  0  0  0  0
    4.8441    2.4470    0.0000 C   0  0  0  0  0  0  0  0  0  0  0  0
    3.5706    0.1529    0.0000 C   0  0  0  0  0  0  0  0  0  0  0  0
   -1.6328    3.1910    0.0000 C   0  0  0  0  0  0  0  0  0  0  0  0
    2.2606    2.4219    0.0000 C   0  0  0  0  0  0  0  0  0  0  0  0
    4.8696    0.9029    0.0000 C   0  0  0  0  0  0  0  0  0  0  0  0
   -1.6254    4.6910    0.0000 O   0  0  0  0  0  0  0  0  0  0  0  0
    6.1748    0.1636    0.0000 O   0  0  0  0  0  0  0  0  0  0  0  0
  3  2  1  0
  6  4  2  0
  7  5  1  0
  8  1  1  0
  8  2  1  0
  9  3  1  0
  9  4  1  0
  9  5  2  0
 10  6  1  0
 10  7  2  0
 11  8  2  0
 12 10  1  0
M  END
>  <NAME>  (5233) 
4-(PARA-HYDROXYPHENYL)2-BUTANONE

>  <SYNONYMS>  (5233) 


>  <SPECTRUM TYPE>  (5233) 
MS1

>  <INSTRUMENT TYPE>  (5233) 
EI-B

>  <INSTRUMENT>  (5233) 
HITACHI RMU-6E

>  <ION MODE>  (5233) 
P

>  <INCHIKEY>  (5233) 
NJGBTKGETPDVIK-UHFFFAOYSA-N

>  <FORMULA>  (5233) 
C10H12O2

>  <EXACT MASS>  (5233) 
164.083729624

>  <MW>  (5233) 
164

>  <ID>  (5233) 
JP004105

>  <CONTRIBUTOR>  (5233) 
University of Tokyo Team, {Faculty of Engineering, University of Tokyo

>  <COMMENT>  (5233) 
SMILES=CC(=O)CCc(c1)ccc(O)c1
InChI=InChI=1S/C10H12O2/c1-8(11)2-3-9-4-6-10(12)7-5-9/h4-7,12H,2-3H2,1H3
computed SMILES=O=C(C)CCC1=CC=C(O)C=C1
accession=JP004105
date=2016.01.19 (Created 2008.10.21, modified 2011.05.06)
author=YAMAMOTO M, DEP. CHEMISTRY, FAC. SCIENCE, NARA WOMEN'S UNIV.
license=CC BY-NC-SA
exact mass=164.08373
ionization energy=70 eV
ion type=[M]+*
computed spectral entropy=2.5047338226549765
computed normalized entropy=0.7102886404184702
SPLASH=splash10-0a4i-5900000000-e86a807414e04733339d
submitter=submitter = University of Tokyo Team (Faculty of Engineering, University of Tokyo)
MoNA Rating=3.75

>  <NUM PEAKS>  (5233) 
34

>  <MASS SPECTRAL PEAKS>  (5233) 
15 3.1
27 6.3
28 3.5
38 1.3
39 11.6
40 1.6
41 2.5
43 6.88
44 1.7
50 1.9
51 5.9
52 0.24
53 4
55 6.4
63 2.6
65 0.59
66 1.5
77 15.2
78 2.8
79 0.16
91 6.1
93 2.1
94 15
103 0.57
107 99.99
108 8.1
119 1.5
120 0.26
121 13.5
122 1.3
149 5.7
163 0.09
164 36
165 3.8

$$$$

     RDKit          2D

 10 10  0  0  0  0  0  0  0  0999 V2000
    1.3000   -0.7500    0.0000 C   0  0  0  0  0  0  0  0  0  0  0  0
   -1.3000    0.7500    0.0000 C   0  0  0  0  0  0  0  0  0  0  0  0
    1.3000    0.7500    0.0000 C   0  0  0  0  0  0  0  0  0  0  0  0
   -1.3000   -0.7500    0.0000 C   0  0  0  0  0  0  0  0  0  0  0  0
    2.5989    1.5002    0.0000 C   0  0  0  0  0  0  0  0  0  0  0  0
    0.0000    1.5000    0.0000 N   0  0  0  0  0  0  0  0  0  0  0  0
   -0.0000   -1.5000    0.0000 N   0  0  0  0  0  0  0  0  0  0  0  0
   -2.5989   -1.5002    0.0000 O   0  0  0  0  0  0  0  0  0  0  0  0
    2.5987    3.0002    0.0000 O   0  0  0  0  0  0  0  0  0  0  0  0
    3.8981    0.7504    0.0000 O   0  0  0  0  0  0  0  0  0  0  0  0
  3  1  2  0
  4  2  1  0
  5  3  1  0
  6  2  2  0
  6  3  1  0
  7  1  1  0
  7  4  1  0
  8  4  2  0
  9  5  2  0
 10  5  1  0
M  END
>  <NAME>  (5234) 
5-HYDROXY-2-PYRAZINECARBOXYLIC ACID

>  <SYNONYMS>  (5234) 


>  <SPECTRUM TYPE>  (5234) 
MS1

>  <INSTRUMENT TYPE>  (5234) 
EI-B

>  <INSTRUMENT>  (5234) 
HITACHI RMU-6E

>  <ION MODE>  (5234) 
P

>  <INCHIKEY>  (5234) 
CGQFCIHUUCMACC-UHFFFAOYSA-N

>  <FORMULA>  (5234) 
C5H4N2O3

>  <EXACT MASS>  (5234) 
140.02219198799997

>  <MW>  (5234) 
140

>  <ID>  (5234) 
JP004104

>  <CONTRIBUTOR>  (5234) 
University of Tokyo Team, {Faculty of Engineering, University of Tokyo

>  <COMMENT>  (5234) 
SMILES=OC(=O)c(c1)ncc(O)n1
InChI=InChI=1S/C5H4N2O3/c8-4-2-6-3(1-7-4)5(9)10/h1-2H,(H,7,8)(H,9,10)
computed SMILES=O=C(O)C=1N=CC(=O)NC1
accession=JP004104
date=2016.01.19 (Created 2008.10.21, modified 2011.05.06)
author=YAMAMOTO M, DEP. CHEMISTRY, FAC. SCIENCE, NARA WOMEN'S UNIV.
license=CC BY-NC-SA
exact mass=140.02219
ionization energy=70 eV
ion type=[M]+*
computed spectral entropy=2.8788611728957947
computed normalized entropy=0.7804161693831476
SPLASH=splash10-0006-9300000000-a1a02f9bce8cdfe96e7f
submitter=submitter = University of Tokyo Team (Faculty of Engineering, University of Tokyo)
MoNA Rating=3.75

>  <NUM PEAKS>  (5234) 
40

>  <MASS SPECTRAL PEAKS>  (5234) 
17 3
18 15.8
25 1.6
26 3.1
27 4.2
28 61.3
29 14.7
36 0.17
38 9.8
39 16.9
40 36.1
41 2.93
42 16.6
43 2.8
44 6.6
45 1.03
51 5.6
52 5.6
53 13.4
54 0.26
55 3.1
56 5.7
57 3.7
65 0.17
66 2.9
68 44.9
69 8.8
70 0.44
77 2.5
94 4.2
95 41.2
96 5.73
97 3.5
112 3.1
121 4.8
122 1.45
123 6.8
140 99.99
141 8.3
142 1.5

$$$$

     RDKit          2D

 11 11  0  0  1  0  0  0  0  0999 V2000
   -1.2988    4.0696    0.0000 C   0  0  0  0  0  0  0  0  0  0  0  0
    2.5983    0.3196    0.0000 C   0  0  0  0  0  0  0  0  0  0  0  0
    2.5988    1.8204    0.0000 C   0  0  0  0  0  0  0  0  0  0  0  0
    1.2988   -0.4312    0.0000 C   0  0  0  0  0  0  0  0  0  0  0  0
    1.2998    2.5704    0.0000 C   0  0  0  0  0  0  0  0  0  0  0  0
   -0.0002    0.3188    0.0000 C   0  0  0  0  0  0  0  0  0  0  0  0
   -1.2988    2.5696    0.0000 C   0  0  0  0  0  0  0  0  0  0  0  0
    0.0002    1.8196    0.0000 C   0  0  0  0  0  0  0  0  0  0  0  0
   -2.5978    1.8196    0.0000 C   0  0  0  0  0  0  0  0  0  0  0  0
   -2.5978    0.3196    0.0000 O   0  0  0  0  0  0  0  0  0  0  0  0
   -3.8969    2.5696    0.0000 O   0  0  0  0  0  0  0  0  0  0  0  0
  3  2  2  0
  4  2  1  0
  5  3  1  0
  6  4  2  0
  7  1  1  6
  8  5  2  0
  8  6  1  0
  8  7  1  0
  9  7  1  0
 10  9  2  0
 11  9  1  0
M  END
>  <NAME>  (5235) 
HYDRATROPIC ACID

>  <SYNONYMS>  (5235) 


>  <SPECTRUM TYPE>  (5235) 
MS1

>  <INSTRUMENT TYPE>  (5235) 
EI-B

>  <INSTRUMENT>  (5235) 
HITACHI RMU-6E

>  <ION MODE>  (5235) 
P

>  <INCHIKEY>  (5235) 
YPGCWEMNNLXISK-SSDOTTSWSA-N

>  <FORMULA>  (5235) 
C9H10O2

>  <EXACT MASS>  (5235) 
150.06807956

>  <MW>  (5235) 
150

>  <ID>  (5235) 
JP004103

>  <CONTRIBUTOR>  (5235) 
University of Tokyo Team, {Faculty of Engineering, University of Tokyo

>  <COMMENT>  (5235) 
SMILES=OC(=O)C(C)c(c1)cccc1
InChI=InChI=1S/C9H10O2/c1-7(9(10)11)8-5-3-2-4-6-8/h2-7H,1H3,(H,10,11)/t7-/m1/s1
computed SMILES=O=C(O)C(C=1C=CC=CC1)C
accession=JP004103
date=2016.01.19 (Created 2008.10.21, modified 2011.05.06)
author=YAMAMOTO M, DEP. CHEMISTRY, FAC. SCIENCE, NARA WOMEN'S UNIV.
license=CC BY-NC-SA
exact mass=150.06808
ionization energy=70 eV
ion type=[M]+*
computed spectral entropy=2.460339058406819
computed normalized entropy=0.7233743832898221
SPLASH=splash10-0a6r-8900000000-b3d053ccd1651940b7a0
submitter=submitter = University of Tokyo Team (Faculty of Engineering, University of Tokyo)
MoNA Rating=3.75

>  <NUM PEAKS>  (5235) 
30

>  <MASS SPECTRAL PEAKS>  (5235) 
39 6.8
43 2
45 5.9
46 1.7
50 5.6
51 15.3
52 3.2
53 0.24
61 2.2
62 2.1
63 13.4
65 0.29
69 1.7
74 2.1
75 1.7
76 0.18
77 27.2
78 14.1
79 19.7
80 0.17
89 1.9
91 11.7
102 2
103 1.25
104 6.9
105 99.99
106 11.4
107 0.17
150 21
151 2

$$$$

     RDKit          2D

  9  9  0  0  0  0  0  0  0  0999 V2000
    3.5281    2.0402    0.0000 C   0  0  0  0  0  0  0  0  0  0  0  0
    3.5281    0.5402    0.0000 C   0  0  0  0  0  0  0  0  0  0  0  0
    0.9281    2.0402    0.0000 C   0  0  0  0  0  0  0  0  0  0  0  0
    0.9281    0.5402    0.0000 C   0  0  0  0  0  0  0  0  0  0  0  0
   -0.3708   -0.2100    0.0000 C   0  0  0  0  0  0  0  0  0  0  0  0
    2.2281    2.7902    0.0000 N   0  0  0  0  0  0  0  0  0  0  0  0
    2.2281   -0.2098    0.0000 N   0  0  0  0  0  0  0  0  0  0  0  0
   -0.3706   -1.7100    0.0000 O   0  0  0  0  0  0  0  0  0  0  0  0
   -1.6700    0.5398    0.0000 O   0  0  0  0  0  0  0  0  0  0  0  0
  2  1  2  0
  4  3  1  0
  5  4  1  0
  6  1  1  0
  6  3  2  0
  7  2  1  0
  7  4  2  0
  8  5  2  0
  9  5  1  0
M  END
>  <NAME>  (5236) 
2-PYRAZINECARBOXYLIC ACID

>  <SYNONYMS>  (5236) 


>  <SPECTRUM TYPE>  (5236) 
MS1

>  <INSTRUMENT TYPE>  (5236) 
EI-B

>  <INSTRUMENT>  (5236) 
HITACHI RMU-6E

>  <ION MODE>  (5236) 
P

>  <INCHIKEY>  (5236) 
NIPZZXUFJPQHNH-UHFFFAOYSA-N

>  <FORMULA>  (5236) 
C5H4N2O2

>  <EXACT MASS>  (5236) 
124.027277368

>  <MW>  (5236) 
124

>  <ID>  (5236) 
JP004102

>  <CONTRIBUTOR>  (5236) 
University of Tokyo Team, {Faculty of Engineering, University of Tokyo

>  <COMMENT>  (5236) 
SMILES=OC(=O)c(c1)nccn1
InChI=InChI=1S/C5H4N2O2/c8-5(9)4-3-6-1-2-7-4/h1-3H,(H,8,9)
computed SMILES=O=C(O)C1=NC=CN=C1
accession=JP004102
date=2016.01.19 (Created 2008.10.21, modified 2011.05.06)
author=YAMAMOTO M, DEP. CHEMISTRY, FAC. SCIENCE, NARA WOMEN'S UNIV.
license=CC BY-NC-SA
exact mass=124.02728
ionization energy=70 eV
ion type=[M]+*
computed spectral entropy=2.5434923547350308
computed normalized entropy=0.7553516183771853
SPLASH=splash10-0fc0-9100000000-0d1d9343efa8efa99226
submitter=submitter = University of Tokyo Team (Faculty of Engineering, University of Tokyo)
MoNA Rating=3.75

>  <NUM PEAKS>  (5236) 
29

>  <MASS SPECTRAL PEAKS>  (5236) 
25 3.9
26 34.1
27 3.2
28 24.3
29 1.1
38 3
39 3.9
39.5 0.24
40 2.9
41 2.2
42 3.8
44 0.24
45 8.8
50 2.1
51 20.8
52 7.74
53 77.4
54 3.5
69 1.4
70 2.06
77 2.5
78 11.2
79 38.9
80 99.99
81 5.4
106 17
107 8
124 7.2
125 10.9

$$$$

     RDKit          2D

 17 18  0  0  0  0  0  0  0  0999 V2000
    1.3202   -4.2581    0.0000 C   0  0  0  0  0  0  0  0  0  0  0  0
   -0.1571   -3.9978    0.0000 C   0  0  0  0  0  0  0  0  0  0  0  0
    3.7612   -1.8059    0.0000 C   0  0  0  0  0  0  0  0  0  0  0  0
    2.7966   -0.6561    0.0000 C   0  0  0  0  0  0  0  0  0  0  0  0
    3.2486   -3.2165    0.0000 C   0  0  0  0  0  0  0  0  0  0  0  0
    1.3194   -0.9169    0.0000 C   0  0  0  0  0  0  0  0  0  0  0  0
    1.7715   -3.4773    0.0000 C   0  0  0  0  0  0  0  0  0  0  0  0
    0.8069   -2.3275    0.0000 C   0  0  0  0  0  0  0  0  0  0  0  0
   -1.9693   -3.3383    0.0000 C   0  0  0  0  0  0  0  0  0  0  0  0
   -0.6707   -1.0874    0.0000 C   0  0  0  0  0  0  0  0  0  0  0  0
   -3.2693   -1.0866    0.0000 C   0  0  0  0  0  0  0  0  0  0  0  0
   -0.6703   -2.5883    0.0000 C   0  0  0  0  0  0  0  0  0  0  0  0
   -3.2688   -2.5874    0.0000 N   0  0  0  0  0  0  0  0  0  0  0  0
   -1.9703   -0.3366    0.0000 N   0  0  0  0  0  0  0  0  0  0  0  0
   -1.9695   -4.8383    0.0000 O   0  0  0  0  0  0  0  0  0  0  0  0
    0.6283   -0.3374    0.0000 O   0  0  0  0  0  0  0  0  0  0  0  0
   -4.5685   -0.3368    0.0000 O   0  0  0  0  0  0  0  0  0  0  0  0
  2  1  1  0
  4  3  1  0
  5  3  1  0
  6  4  1  0
  7  5  1  0
  8  6  2  0
  8  7  1  0
 12  2  1  0
 12  8  1  0
 12  9  1  0
 12 10  1  0
 13  9  2  0
 13 11  1  0
 14 10  2  0
 14 11  1  0
 15  9  1  0
 16 10  1  0
 17 11  2  0
M  END
>  <NAME>  (5237) 
CYCLOBARBITAL

>  <SYNONYMS>  (5237) 


>  <SPECTRUM TYPE>  (5237) 
MS1

>  <INSTRUMENT TYPE>  (5237) 
EI-B

>  <INSTRUMENT>  (5237) 
HITACHI RMU-6E

>  <ION MODE>  (5237) 
P

>  <INCHIKEY>  (5237) 
WTYGAUXICFETTC-UHFFFAOYSA-N

>  <FORMULA>  (5237) 
C12H16N2O3

>  <EXACT MASS>  (5237) 
236.11609237199997

>  <MW>  (5237) 
236

>  <ID>  (5237) 
JP004101

>  <CONTRIBUTOR>  (5237) 
University of Tokyo Team, {Faculty of Engineering, University of Tokyo

>  <COMMENT>  (5237) 
SMILES=CCC(C(=O)2)(C(=O)NC(=O)N2)C(C1)=CCCC1
InChI=InChI=1S/C12H16N2O3/c1-2-12(8-6-4-3-5-7-8)9(15)13-11(17)14-10(12)16/h6H,2-5,7H2,1H3,(H2,13,14,15,16,17)
computed SMILES=O=C1N=C(O)C(C(O)=N1)(C2=CCCCC2)CC
accession=JP004101
date=2016.01.19 (Created 2008.10.21, modified 2011.05.06)
author=YAMAMOTO M, DEP. CHEMISTRY, FAC. SCIENCE, NARA WOMEN'S UNIV.
license=CC BY-NC-SA
exact mass=236.11609
ionization energy=70 eV
ion type=[M]+*
computed spectral entropy=2.840692445633787
computed normalized entropy=0.7189362762602886
SPLASH=splash10-0a4i-9370000000-8824ae0212f57694f101
submitter=submitter = University of Tokyo Team (Faculty of Engineering, University of Tokyo)
MoNA Rating=3.75

>  <NUM PEAKS>  (5237) 
52

>  <MASS SPECTRAL PEAKS>  (5237) 
39 9.8
40 1.9
41 13
43 1.7
44 3.2
51 4
52 3.3
53 0.73
54 1.8
55 4.7
65 5.1
66 0.24
67 25.6
68 2.3
70 2.1
77 0.99
78 3
79 19.9
80 15.1
81 2.68
82 2.1
91 7.9
92 1.5
93 0.43
94 1.5
96 2.2
97 2
98 0.57
105 1.8
107 1.7
108 1.3
119 0.23
121 3.5
122 2.3
136 2.1
137 0.15
141 31.3
142 1.9
146 1.5
147 0.64
148 1.3
150 1.1
154 1
157 0.68
164 5.9
165 1.9
179 1.4
207 99.99
208 12.3
209 1.4
235 1.2
236 1

$$$$

     RDKit          2D

 15 16  0  0  0  0  0  0  0  0999 V2000
   -3.7969    1.9928    0.0000 C   0  0  0  0  0  0  0  0  0  0  0  0
   -3.2834    3.4031    0.0000 C   0  0  0  0  0  0  0  0  0  0  0  0
   -2.8324    0.8439    0.0000 C   0  0  0  0  0  0  0  0  0  0  0  0
    1.7575    2.5164    0.0000 C   0  0  0  0  0  0  0  0  0  0  0  0
    0.4575    0.2648    0.0000 C   0  0  0  0  0  0  0  0  0  0  0  0
   -1.8055    3.6645    0.0000 C   0  0  0  0  0  0  0  0  0  0  0  0
   -1.3545    1.1053    0.0000 C   0  0  0  0  0  0  0  0  0  0  0  0
    3.0565    1.7664    0.0000 C   0  0  0  0  0  0  0  0  0  0  0  0
    1.7565   -0.4852    0.0000 C   0  0  0  0  0  0  0  0  0  0  0  0
    0.4580    1.7656    0.0000 C   0  0  0  0  0  0  0  0  0  0  0  0
    0.1230    3.6648    0.0000 C   0  0  0  0  0  0  0  0  0  0  0  0
   -0.8411    2.5156    0.0000 C   0  0  0  0  0  0  0  0  0  0  0  0
    1.6002    3.4045    0.0000 O   0  0  0  0  0  0  0  0  0  0  0  0
   -0.3902    5.0743    0.0000 O   0  0  0  0  0  0  0  0  0  0  0  0
    3.0560    0.2656    0.0000 O   0  0  0  0  0  0  0  0  0  0  0  0
  2  1  2  0
  3  1  1  0
  6  2  1  0
  7  3  1  0
  8  4  1  0
  9  5  1  0
 10  4  1  0
 10  5  1  0
 12  6  1  0
 12  7  1  0
 12 10  1  0
 12 11  1  0
 13 11  2  0
 14 11  1  0
 15  8  1  0
 15  9  1  0
M  END
>  <NAME>  (5238) 
1-(4-TETRAHYDROPYRANYL)-3-CYCLOHEXENE-1-CARBOXYLIC ACID

>  <SYNONYMS>  (5238) 


>  <SPECTRUM TYPE>  (5238) 
MS1

>  <INSTRUMENT TYPE>  (5238) 
EI-B

>  <INSTRUMENT>  (5238) 
HITACHI RMU-6E

>  <ION MODE>  (5238) 
P

>  <INCHIKEY>  (5238) 
YQPBVJDSXMVFOX-UHFFFAOYSA-N

>  <FORMULA>  (5238) 
C12H18O3

>  <EXACT MASS>  (5238) 
210.12559443599997

>  <MW>  (5238) 
210

>  <ID>  (5238) 
JP004100

>  <CONTRIBUTOR>  (5238) 
University of Tokyo Team, {Faculty of Engineering, University of Tokyo

>  <COMMENT>  (5238) 
InChI=InChI=1S/C12H18O3/c13-11(14)12(6-2-1-3-7-12)10-4-8-15-9-5-10/h1-2,10H,3-9H2,(H,13,14)
SMILES=[H]C(C2)=C([H])CC(C2)(C(O)=O)C(C1)CCOC1
computed SMILES=O=C(O)C1(CC=CCC1)C2CCOCC2
accession=JP004100
date=2016.01.19 (Created 2008.10.21, modified 2011.05.06)
author=YAMAMOTO M, DEP. CHEMISTRY, FAC. SCIENCE, NARA WOMEN'S UNIV.
license=CC BY-NC-SA
exact mass=210.12559
ionization energy=70 eV
ion type=[M]+*
computed spectral entropy=3.4708342541649984
computed normalized entropy=0.8142376050471964
SPLASH=splash10-0a7i-9200000000-a493984272e809c6433c
submitter=submitter = University of Tokyo Team (Faculty of Engineering, University of Tokyo)
MoNA Rating=3.75

>  <NUM PEAKS>  (5238) 
71

>  <MASS SPECTRAL PEAKS>  (5238) 
27 14.7
28 5.5
29 25.7
31 5.3
39 19.6
40 2.6
41 32.7
42 0.25
43 18.1
44 2.8
45 3.4
50 0.15
51 6.2
52 3.6
53 15.6
54 0.94
55 85.1
56 7.2
57 12.6
65 0.68
66 4
67 25.9
68 14.3
69 0.44
77 17.3
78 10.3
79 50.2
80 1.26
81 18
82 2.8
83 99.99
84 0.65
85 13
86 10.6
91 18.4
92 0.61
93 7.9
94 2.6
95 2.3
96 0.42
97 4.5
103 1.9
104 2
105 0.91
106 2.7
107 8.6
108 27.9
109 0.43
110 1.6
111 2.5
117 6.4
118 0.54
119 8.5
120 6.2
121 4.7
122 0.15
123 9.3
124 6.9
125 28.4
126 2.33
127 2.3
131 1.6
133 3.7
135 0.19
136 1.4
146 1.5
147 1.2
164 4
165 5.8
192 5.6
210 6

$$$$

     RDKit          2D

 20 23  0  0  1  0  0  0  0  0999 V2000
    3.5881   -2.9399    0.0000 C   0  0  0  0  0  0  0  0  0  0  0  0
   -3.4987    5.1902    0.0000 C   0  0  0  0  0  0  0  0  0  0  0  0
   -0.9000   -3.8100    0.0000 C   0  0  0  0  0  0  0  0  0  0  0  0
   -2.2000   -3.0600    0.0000 C   0  0  0  0  0  0  0  0  0  0  0  0
    0.4000   -3.0600    0.0000 C   0  0  0  0  0  0  0  0  0  0  0  0
    0.4000    2.9400    0.0000 C   0  0  0  0  0  0  0  0  0  0  0  0
   -0.9000    3.6900    0.0000 C   0  0  0  0  0  0  0  0  0  0  0  0
   -2.2000   -1.5600    0.0000 C   0  0  0  0  0  0  0  0  0  0  0  0
    0.4000   -0.0600    0.0000 C   0  0  0  0  0  0  0  0  0  0  0  0
    3.0200   -0.0600    0.0000 C   0  0  0  0  0  0  0  0  0  0  0  0
    1.7000    0.6900    0.0000 C   0  0  0  0  0  0  0  0  0  0  0  0
   -2.2000    1.4400    0.0000 C   0  0  0  0  0  0  0  0  0  0  0  0
    0.4000    1.4400    0.0000 C   0  0  0  0  0  0  0  0  0  0  0  0
   -2.2000    2.9400    0.0000 C   0  0  0  0  0  0  0  0  0  0  0  0
    0.4000   -1.5600    0.0000 C   0  0  0  0  0  0  0  0  0  0  0  0
   -0.9000    0.6900    0.0000 C   0  0  0  0  0  0  0  0  0  0  0  0
    1.7000   -0.8100    0.0000 C   0  0  0  0  0  0  0  0  0  0  0  0
   -0.9000   -0.8100    0.0000 C   0  0  0  0  0  0  0  0  0  0  0  0
    3.0000   -1.5600    0.0000 N   0  0  0  0  0  0  0  0  0  0  0  0
   -3.4989    3.6902    0.0000 O   0  0  0  0  0  0  0  0  0  0  0  0
  4  3  1  0
  5  3  1  0
  7  6  1  0
  8  4  1  0
 10  9  1  0
 13  6  2  0
 13 11  1  0
 14  7  2  0
 14 12  1  0
 15  5  1  6
 16 12  2  0
 16 13  1  0
 17 11  1  1
 17 15  1  0
 18  8  1  1
 18  9  1  0
 18 15  1  0
 18 16  1  0
 19  1  1  0
 19 10  1  0
 17 19  1  0
 20  2  1  0
 20 14  1  0
M  END
>  <NAME>  (5239) 
RACEMETHORPHAN

>  <SYNONYMS>  (5239) 


>  <SPECTRUM TYPE>  (5239) 
MS1

>  <INSTRUMENT TYPE>  (5239) 
EI-B

>  <INSTRUMENT>  (5239) 
HITACHI RMU-6E

>  <ION MODE>  (5239) 
P

>  <INCHIKEY>  (5239) 
MKXZASYAUGDDCJ-CGTJXYLNSA-N

>  <FORMULA>  (5239) 
C18H25NO

>  <EXACT MASS>  (5239) 
271.19361442

>  <MW>  (5239) 
271

>  <ID>  (5239) 
JP004099

>  <CONTRIBUTOR>  (5239) 
University of Tokyo Team, {Faculty of Engineering, University of Tokyo

>  <COMMENT>  (5239) 
SMILES=COc(c4)cc(c(c4)1)C(C3)(C2)C([H])(CCC3)C(N(C)C2)C1
InChI=InChI=1S/C18H25NO/c1-19-10-9-18-8-4-3-5-15(18)17(19)11-13-6-7-14(20-2)12-16(13)18/h6-7,12,15,17H,3-5,8-11H2,1-2H3/t15-,17+,18+/m0/s1
computed SMILES=O(C1=CC=C2C(=C1)C34CCN(C)C(C2)C4CCCC3)C
accession=JP004099
date=2016.01.19 (Created 2008.10.21, modified 2011.05.06)
author=YAMAMOTO M, DEP. CHEMISTRY, FAC. SCIENCE, NARA WOMEN'S UNIV.
license=CC BY-NC-SA
exact mass=271.19361
ionization energy=70 eV
ion type=[M]+*
computed spectral entropy=3.4296419821464403
computed normalized entropy=0.7699538796696582
SPLASH=splash10-0ab9-9640000000-22a67aaa9771bdc70ea1
submitter=submitter = University of Tokyo Team (Faculty of Engineering, University of Tokyo)
MoNA Rating=3.75

>  <NUM PEAKS>  (5239) 
86

>  <MASS SPECTRAL PEAKS>  (5239) 
30 13.4
31 19.7
41 3.2
42 11.7
43 1.6
44 10.3
55 2.3
57 0.16
58 7.7
59 99.99
60 6.6
67 0.18
70 3.4
77 3
79 1.9
81 0.14
82 4.8
83 1.5
91 3.8
94 0.22
107 1.4
108 1.5
115 6.3
116 0.15
117 1.2
121 3.2
122 2.2
123 0.18
127 2.2
128 6.6
129 4.1
130 0.11
131 1.3
135 2.6
135.5 2.7
136 0.17
141 5.1
142 1.9
143 1.5
144 0.23
145 1.9
146 2.5
147 2.4
148 0.34
150 34.4
151 3.9
152 1.7
153 0.22
154 1.4
155 2.7
156 1.2
157 0.2
158 2.3
159 3.4
160 2.4
161 0.25
162 3.6
165 1.4
169 1.1
170 0.18
171 14.2
172 6.8
173 2
174 0.46
175 3.1
183 1.3
184 2.8
185 0.31
186 1.5
197 1.4
198 1.9
199 0.17
200 1.1
202 1.2
203 7.5
204 0.11
212 8.7
213 9.9
214 20.3
215 0.36
228 2.9
242 3.8
256 3.3
270 2.12
271 38
272 7.8

$$$$

     RDKit          2D

 13 14  0  0  0  0  0  0  0  0999 V2000
   -5.1981    0.5004    0.0000 C   0  0  0  0  0  0  0  0  0  0  0  0
   -1.3000   -1.7500    0.0000 C   0  0  0  0  0  0  0  0  0  0  0  0
    1.3000   -1.7500    0.0000 C   0  0  0  0  0  0  0  0  0  0  0  0
   -2.6000   -1.0000    0.0000 C   0  0  0  0  0  0  0  0  0  0  0  0
    2.6000   -1.0000    0.0000 C   0  0  0  0  0  0  0  0  0  0  0  0
   -1.3000    1.2500    0.0000 C   0  0  0  0  0  0  0  0  0  0  0  0
    0.0000   -1.0000    0.0000 C   0  0  0  0  0  0  0  0  0  0  0  0
   -2.6000    0.5000    0.0000 C   0  0  0  0  0  0  0  0  0  0  0  0
    0.0000    0.5000    0.0000 C   0  0  0  0  0  0  0  0  0  0  0  0
    2.6000    0.5000    0.0000 C   0  0  0  0  0  0  0  0  0  0  0  0
    3.8989    1.2502    0.0000 O   0  0  0  0  0  0  0  0  0  0  0  0
   -3.8989    1.2502    0.0000 O   0  0  0  0  0  0  0  0  0  0  0  0
    1.3000    1.2500    0.0000 O   0  0  0  0  0  0  0  0  0  0  0  0
  4  2  2  0
  5  3  2  0
  7  2  1  0
  7  3  1  0
  8  4  1  0
  8  6  2  0
  9  6  1  0
  9  7  2  0
 10  5  1  0
 11 10  2  0
 12  1  1  0
 12  8  1  0
 13  9  1  0
 13 10  1  0
M  END
>  <NAME>  (5240) 
7-METHOXYCOUMARIN

>  <SYNONYMS>  (5240) 


>  <SPECTRUM TYPE>  (5240) 
MS1

>  <INSTRUMENT TYPE>  (5240) 
EI-B

>  <INSTRUMENT>  (5240) 
HITACHI RMU-6E

>  <ION MODE>  (5240) 
P

>  <INCHIKEY>  (5240) 
LIIALPBMIOVAHH-UHFFFAOYSA-N

>  <FORMULA>  (5240) 
C10H8O3

>  <EXACT MASS>  (5240) 
176.04734411599998

>  <MW>  (5240) 
176

>  <ID>  (5240) 
JP004097

>  <CONTRIBUTOR>  (5240) 
University of Tokyo Team, {Faculty of Engineering, University of Tokyo

>  <COMMENT>  (5240) 
SMILES=COc(c1)cc(O2)c(C=CC(=O)2)c1
InChI=InChI=1S/C10H8O3/c1-12-8-4-2-7-3-5-10(11)13-9(7)6-8/h2-6H,1H3
computed SMILES=O=C1OC=2C=C(OC)C=CC2C=C1
accession=JP004097
date=2016.01.19 (Created 2008.10.21, modified 2011.05.06)
author=YAMAMOTO M, DEP. CHEMISTRY, FAC. SCIENCE, NARA WOMEN'S UNIV.
license=CC BY-NC-SA
exact mass=176.04734
ionization energy=70 eV
ion type=[M]+*
computed spectral entropy=2.182740178618089
computed normalized entropy=0.6622719107042181
SPLASH=splash10-004i-2900000000-5b9073b915d724268702
submitter=submitter = University of Tokyo Team (Faculty of Engineering, University of Tokyo)
MoNA Rating=3.75

>  <NUM PEAKS>  (5240) 
27

>  <MASS SPECTRAL PEAKS>  (5240) 
38 2.6
39 3
44.5 1.9
50 4.8
51 13.7
53 1.5
62 4.2
63 0.9
64 1.7
69 4
74 3.7
76 0.28
77 14.8
79 1.6
88 1.5
89 0.52
90 2.6
91 2.9
105 7.7
120 0.22
133 57.4
134 5.1
148 53.2
149 0.57
176 99.99
177 11.3
178 1.3

$$$$

     RDKit          2D

 15 16  0  0  0  0  0  0  0  0999 V2000
   -6.5044    0.7424    0.0000 C   0  0  0  0  0  0  0  0  0  0  0  0
   -5.2054   -0.0078    0.0000 C   0  0  0  0  0  0  0  0  0  0  0  0
    3.8881    2.2511    0.0000 C   0  0  0  0  0  0  0  0  0  0  0  0
    3.8903    0.7511    0.0000 C   0  0  0  0  0  0  0  0  0  0  0  0
    2.5869    2.9991    0.0000 C   0  0  0  0  0  0  0  0  0  0  0  0
   -2.6113    2.9850    0.0000 C   0  0  0  0  0  0  0  0  0  0  0  0
   -3.9058    2.2428    0.0000 C   0  0  0  0  0  0  0  0  0  0  0  0
    2.5915   -0.0009    0.0000 C   0  0  0  0  0  0  0  0  0  0  0  0
    1.2881    2.2472    0.0000 C   0  0  0  0  0  0  0  0  0  0  0  0
   -1.3122    2.2350    0.0000 C   0  0  0  0  0  0  0  0  0  0  0  0
   -2.6072   -0.0080    0.0000 C   0  0  0  0  0  0  0  0  0  0  0  0
   -3.9063    0.7420    0.0000 C   0  0  0  0  0  0  0  0  0  0  0  0
    1.2903    0.7472    0.0000 C   0  0  0  0  0  0  0  0  0  0  0  0
   -1.3077    0.7428    0.0000 C   0  0  0  0  0  0  0  0  0  0  0  0
   -0.0074   -0.0050    0.0000 O   0  0  0  0  0  0  0  0  0  0  0  0
  2  1  2  0
  4  3  2  0
  5  3  1  0
  7  6  2  0
  8  4  1  0
  9  5  2  0
 10  6  1  0
 12  2  1  0
 12  7  1  0
 12 11  2  0
 13  8  2  0
 13  9  1  0
 14 10  2  0
 14 11  1  0
 15 13  1  0
 15 14  1  0
M  END
>  <NAME>  (5241) 
3-PHENOXYSTYRENE

>  <SYNONYMS>  (5241) 


>  <SPECTRUM TYPE>  (5241) 
MS1

>  <INSTRUMENT TYPE>  (5241) 
EI-B

>  <INSTRUMENT>  (5241) 
HITACHI RMU-6E

>  <ION MODE>  (5241) 
P

>  <INCHIKEY>  (5241) 
QDCUAHOXDLTZCU-UHFFFAOYSA-N

>  <FORMULA>  (5241) 
C14H12O

>  <EXACT MASS>  (5241) 
196.088815004

>  <MW>  (5241) 
196

>  <ID>  (5241) 
JP004096

>  <CONTRIBUTOR>  (5241) 
University of Tokyo Team, {Faculty of Engineering, University of Tokyo

>  <COMMENT>  (5241) 
SMILES=C=Cc(c2)cc(cc2)Oc(c1)cccc1
InChI=InChI=1S/C14H12O/c1-2-12-7-6-10-14(11-12)15-13-8-4-3-5-9-13/h2-11H,1H2
computed SMILES=O(C=1C=CC=CC1)C2=CC=CC(C=C)=C2
accession=JP004096
date=2016.01.19 (Created 2008.10.21, modified 2011.05.06)
author=YAMAMOTO M, DEP. CHEMISTRY, FAC. SCIENCE, NARA WOMEN'S UNIV.
license=CC BY-NC-SA
exact mass=196.08882
ionization energy=70 eV
ion type=[M]+*
computed spectral entropy=2.9147491723355907
computed normalized entropy=0.7273538379780372
SPLASH=splash10-0002-5900000000-3ef35ccd79675e5cbcf4
submitter=submitter = University of Tokyo Team (Faculty of Engineering, University of Tokyo)
MoNA Rating=3.75

>  <NUM PEAKS>  (5241) 
55

>  <MASS SPECTRAL PEAKS>  (5241) 
38 1.6
39 9.7
41 1.4
50 6
51 28.3
52 2.9
53 2
62 0.14
63 6
64 2
65 6.2
70 0.14
71 1.3
74 2.1
75 3.2
76 0.44
77 46
78 3.3
82 1.8
82.5 0.14
84 1.7
89 1.9
91 4.5
94 0.25
98 5.2
102 6.8
103 9.2
104 0.11
105 1.5
115 3.9
120 2.3
128 0.18
135 1.5
139 1.4
141 6.6
142 0.26
152 6.4
153 8.3
154 1.4
165 0.57
166 2.4
167 17.7
168 5.4
169 0.48
170 9.2
171 1.3
177 2.8
178 0.13
179 1
181 3.4
194 1
195 0.69
196 99.99
197 15.5
198 1.8

$$$$

     RDKit          2D

 14 14  0  0  0  0  0  0  0  0999 V2000
    2.9341   -0.3988    0.0000 C   0  0  0  0  0  0  0  0  0  0  0  0
    4.8624   -0.3985    0.0000 C   0  0  0  0  0  0  0  0  0  0  0  0
   -1.3000    0.7500    0.0000 C   0  0  0  0  0  0  0  0  0  0  0  0
   -0.0000   -1.5000    0.0000 C   0  0  0  0  0  0  0  0  0  0  0  0
    0.0000    1.5000    0.0000 C   0  0  0  0  0  0  0  0  0  0  0  0
    1.3000   -0.7500    0.0000 C   0  0  0  0  0  0  0  0  0  0  0  0
   -1.3000   -0.7500    0.0000 C   0  0  0  0  0  0  0  0  0  0  0  0
    1.3000    0.7500    0.0000 C   0  0  0  0  0  0  0  0  0  0  0  0
    5.1970    1.5006    0.0000 C   0  0  0  0  0  0  0  0  0  0  0  0
    3.8981    0.7504    0.0000 C   0  0  0  0  0  0  0  0  0  0  0  0
   -2.5989   -1.5002    0.0000 Cl  0  0  0  0  0  0  0  0  0  0  0  0
    5.1968    3.0006    0.0000 O   0  0  0  0  0  0  0  0  0  0  0  0
    6.4962    0.7508    0.0000 O   0  0  0  0  0  0  0  0  0  0  0  0
    2.5989    1.5002    0.0000 O   0  0  0  0  0  0  0  0  0  0  0  0
  5  3  2  0
  6  4  1  0
  7  3  1  0
  7  4  2  0
  8  5  1  0
  8  6  2  0
 10  1  1  0
 10  2  1  0
 10  9  1  0
 11  7  1  0
 12  9  2  0
 13  9  1  0
 14  8  1  0
 14 10  1  0
M  END
>  <NAME>  (5242) 
ALPHA-(4-CHLOROPHENOXY)ISOBUTYLIC ACID

>  <SYNONYMS>  (5242) 


>  <SPECTRUM TYPE>  (5242) 
MS1

>  <INSTRUMENT TYPE>  (5242) 
EI-B

>  <INSTRUMENT>  (5242) 
HITACHI RMU-6E

>  <ION MODE>  (5242) 
P

>  <INCHIKEY>  (5242) 
TXCGAZHTZHNUAI-UHFFFAOYSA-N

>  <FORMULA>  (5242) 
C10H11ClO3

>  <EXACT MASS>  (5242) 
214.039671892

>  <MW>  (5242) 
214

>  <ID>  (5242) 
JP004095

>  <CONTRIBUTOR>  (5242) 
University of Tokyo Team, {Faculty of Engineering, University of Tokyo

>  <COMMENT>  (5242) 
SMILES=OC(=O)C(C)(C)Oc(c1)ccc(Cl)c1
InChI=InChI=1S/C10H11ClO3/c1-10(2,9(12)13)14-8-5-3-7(11)4-6-8/h3-6H,1-2H3,(H,12,13)
computed SMILES=O=C(O)C(OC1=CC=C(Cl)C=C1)(C)C
accession=JP004095
date=2016.01.19 (Created 2008.10.21, modified 2011.05.06)
author=YAMAMOTO M, DEP. CHEMISTRY, FAC. SCIENCE, NARA WOMEN'S UNIV.
license=CC BY-NC-SA
exact mass=214.03967
ionization energy=70 eV
ion type=[M]+*
computed spectral entropy=1.89186838396756
computed normalized entropy=0.5806667672027974
SPLASH=splash10-004i-2900000000-2209f763ac56a9c1d08a
submitter=submitter = University of Tokyo Team (Faculty of Engineering, University of Tokyo)
MoNA Rating=3.75

>  <NUM PEAKS>  (5242) 
26

>  <MASS SPECTRAL PEAKS>  (5242) 
39 4.4
41 8.9
43 2.6
45 1.7
50 1.5
59 1.7
63 2.3
64 0.18
65 5.3
69 2.6
73 2.2
75 0.41
84.5 2.1
93 1.4
99 2.7
100 0.18
111 3.7
128 99.99
129 9.1
130 3.25
131 3
169 4.8
171 1.8
214 0.8
215 1.2
216 2.6

$$$$

     RDKit          2D

  8  8  0  0  0  0  0  0  0  0999 V2000
   -0.0005    1.5008    0.0000 C   0  0  0  0  0  0  0  0  0  0  0  0
    1.2995   -0.7508    0.0000 C   0  0  0  0  0  0  0  0  0  0  0  0
   -1.2995    0.7508    0.0000 C   0  0  0  0  0  0  0  0  0  0  0  0
    0.0005   -1.5008    0.0000 C   0  0  0  0  0  0  0  0  0  0  0  0
    1.2990    0.7500    0.0000 C   0  0  0  0  0  0  0  0  0  0  0  0
   -1.2990   -0.7500    0.0000 N   0  0  0  0  0  0  0  0  0  0  0  0
    2.5981    1.5000    0.0000 O   0  0  0  0  0  0  0  0  0  0  0  0
   -2.5981   -1.5000    0.0000 O   0  0  0  0  0  0  0  0  0  0  0  0
  3  1  2  0
  4  2  2  0
  5  1  1  0
  5  2  1  0
  6  3  1  0
  6  4  1  0
  7  5  2  0
  8  6  1  0
M  END
>  <NAME>  (5243) 
N-HYDROXY-4-PYRIDONE

>  <SYNONYMS>  (5243) 


>  <SPECTRUM TYPE>  (5243) 
MS1

>  <INSTRUMENT TYPE>  (5243) 
EI-B

>  <INSTRUMENT>  (5243) 
HITACHI RMU-6E

>  <ION MODE>  (5243) 
P

>  <INCHIKEY>  (5243) 
NCDOCXYTOYFYHI-UHFFFAOYSA-N

>  <FORMULA>  (5243) 
C5H5NO2

>  <EXACT MASS>  (5243) 
111.0320284

>  <MW>  (5243) 
111

>  <ID>  (5243) 
JP004094

>  <CONTRIBUTOR>  (5243) 
University of Tokyo Team, {Faculty of Engineering, University of Tokyo

>  <COMMENT>  (5243) 
SMILES=O=C(C=1)C=CN(O)C1
InChI=InChI=1S/C5H5NO2/c7-5-1-3-6(8)4-2-5/h1-4,8H
computed SMILES=O=C1C=CN(O)C=C1
accession=JP004094
date=2016.01.19 (Created 2008.10.21, modified 2011.05.06)
author=YAMAMOTO M, DEP. CHEMISTRY, FAC. SCIENCE, NARA WOMEN'S UNIV.
license=CC BY-NC-SA
exact mass=111.03203
ionization energy=70 eV
ion type=[M]+*
computed spectral entropy=3.2505020551304358
computed normalized entropy=0.8075075930910267
SPLASH=splash10-03fv-9200000000-94b387266ffbbdb5daaa
submitter=submitter = University of Tokyo Team (Faculty of Engineering, University of Tokyo)
MoNA Rating=3.75

>  <NUM PEAKS>  (5243) 
56

>  <MASS SPECTRAL PEAKS>  (5243) 
18 12
20 2.3
25 3.1
26 23.3
27 26.5
28 22.1
29 11.4
30 2.04
31 2.1
37 7.1
38 15.1
39 4.75
40 22.7
41 42.9
42 13.1
44 0.67
45 4.9
47.5 1.5
49 3
50 1.01
51 12.7
52 8
53 17.9
54 1.59
55 34
55.5 5.9
56 9
57 6.33
58 5.1
62 1.7
63 2.2
64 0.27
65 2.8
66 8.9
67 19.5
68 2.87
69 10
70 2.6
71 9.2
75 0.17
76 3.2
77 1.6
78 1.5
81 0.13
82 2.5
83 5.2
84 7.1
85 0.14
91 1.5
94 7.9
95 89
96 0.63
110 22.8
111 99.99
112 7
113 1

$$$$

     RDKit          2D

 19 20  0  0  0  0  0  0  0  0999 V2000
   -4.5132   -2.2312    0.0000 C   0  0  0  0  0  0  0  0  0  0  0  0
    5.8803   -3.7337    0.0000 C   0  0  0  0  0  0  0  0  0  0  0  0
    4.5812   -4.4835    0.0000 C   0  0  0  0  0  0  0  0  0  0  0  0
    5.8801   -2.2329    0.0000 C   0  0  0  0  0  0  0  0  0  0  0  0
    3.2818   -3.7324    0.0000 C   0  0  0  0  0  0  0  0  0  0  0  0
    4.5807   -1.4818    0.0000 C   0  0  0  0  0  0  0  0  0  0  0  0
    0.6839   -3.7324    0.0000 C   0  0  0  0  0  0  0  0  0  0  0  0
   -0.6151   -4.4824    0.0000 C   0  0  0  0  0  0  0  0  0  0  0  0
   -0.6161   -1.4808    0.0000 C   0  0  0  0  0  0  0  0  0  0  0  0
   -3.2142   -1.4810    0.0000 C   0  0  0  0  0  0  0  0  0  0  0  0
    3.2815   -2.2316    0.0000 C   0  0  0  0  0  0  0  0  0  0  0  0
    0.6835   -2.2316    0.0000 C   0  0  0  0  0  0  0  0  0  0  0  0
   -1.9151   -2.2308    0.0000 C   0  0  0  0  0  0  0  0  0  0  0  0
   -1.9146   -3.7316    0.0000 C   0  0  0  0  0  0  0  0  0  0  0  0
   -3.2145    0.0190    0.0000 C   0  0  0  0  0  0  0  0  0  0  0  0
   -3.2136   -4.4816    0.0000 O   0  0  0  0  0  0  0  0  0  0  0  0
   -1.9156    0.7692    0.0000 O   0  0  0  0  0  0  0  0  0  0  0  0
   -4.5136    0.7688    0.0000 O   0  0  0  0  0  0  0  0  0  0  0  0
    1.9825   -1.4816    0.0000 O   0  0  0  0  0  0  0  0  0  0  0  0
  3  2  2  0
  4  2  1  0
  5  3  1  0
  6  4  2  0
  8  7  2  0
 10  1  1  0
 11  5  2  0
 11  6  1  0
 12  7  1  0
 12  9  2  0
 13  9  1  0
 13 10  1  0
 14  8  1  0
 14 13  2  0
 15 10  1  0
 16 14  1  0
 17 15  2  0
 18 15  1  0
 19 11  1  0
 19 12  1  0
M  END
>  <NAME>  (5244) 
2-(2-HYDROXY-5-PHENOXYPHENYL)PROPIONIC ACID

>  <SYNONYMS>  (5244) 


>  <SPECTRUM TYPE>  (5244) 
MS1

>  <INSTRUMENT TYPE>  (5244) 
EI-B

>  <INSTRUMENT>  (5244) 
HITACHI RMU-6E

>  <ION MODE>  (5244) 
P

>  <INCHIKEY>  (5244) 
ODOHKZJBBNHRRM-UHFFFAOYSA-N

>  <FORMULA>  (5244) 
C15H14O4

>  <EXACT MASS>  (5244) 
258.089208928

>  <MW>  (5244) 
258

>  <ID>  (5244) 
JP004093

>  <CONTRIBUTOR>  (5244) 
University of Tokyo Team, {Faculty of Engineering, University of Tokyo

>  <COMMENT>  (5244) 
SMILES=OC(=O)C(C)c(c1)c(O)ccc(Oc(c2)cccc2)1
InChI=InChI=1S/C15H14O4/c1-10(15(17)18)13-9-12(7-8-14(13)16)19-11-5-3-2-4-6-11/h2-10,16H,1H3,(H,17,18)
computed SMILES=O=C(O)C(C1=CC(OC=2C=CC=CC2)=CC=C1O)C
accession=JP004093
date=2016.01.19 (Created 2008.10.21, modified 2011.05.06)
author=YAMAMOTO M, DEP. CHEMISTRY, FAC. SCIENCE, NARA WOMEN'S UNIV.
license=CC BY-NC-SA
exact mass=258.08921
ionization energy=70 eV
ion type=[M]+*
computed spectral entropy=2.9337899689714364
computed normalized entropy=0.7108539958384182
SPLASH=splash10-03dl-5290000000-986b949d82ccc5470daa
submitter=submitter = University of Tokyo Team (Faculty of Engineering, University of Tokyo)
MoNA Rating=3.75

>  <NUM PEAKS>  (5244) 
62

>  <MASS SPECTRAL PEAKS>  (5244) 
39 9
41 2.4
43 4.2
50 4.2
51 18.7
52 3
53 4.9
54 0.17
55 2.3
57 3
62 1.3
63 0.49
64 2.4
65 9.1
75 2
76 0.27
77 21.4
78 5.2
79 3.6
89 0.3
90 1.8
91 14
92 1.8
103 0.27
105 1.6
106 4.8
107 3.5
115 0.38
118 2.6
119 2.1
127 1.4
128 0.26
129 2.4
131 1.7
135 10.6
136 0.22
141 5.2
142 1.1
149 1.8
152 0.14
153 1.6
155 2.6
165 2
167 0.12
168 1.4
169 1.8
181 1.2
183 0.4
184 2.2
186 1.2
197 2.4
211 0.17
212 99.99
213 20.1
214 2.4
227 0.23
228 4.2
240 64.6
241 10.9
242 0.14
256 1.1
258 1

$$$$

     RDKit          2D

 11 11  0  0  0  0  0  0  0  0999 V2000
   -3.8976   -3.7504    0.0000 C   0  0  0  0  0  0  0  0  0  0  0  0
    1.3000   -0.7500    0.0000 C   0  0  0  0  0  0  0  0  0  0  0  0
    1.3000    0.7500    0.0000 C   0  0  0  0  0  0  0  0  0  0  0  0
   -1.3000   -0.7500    0.0000 C   0  0  0  0  0  0  0  0  0  0  0  0
   -1.3000    0.7500    0.0000 C   0  0  0  0  0  0  0  0  0  0  0  0
   -2.5989   -1.5002    0.0000 C   0  0  0  0  0  0  0  0  0  0  0  0
   -0.0000   -1.5000    0.0000 N   0  0  0  0  0  0  0  0  0  0  0  0
    0.0000    1.5000    0.0000 N   0  0  0  0  0  0  0  0  0  0  0  0
   -2.5989    1.5002    0.0000 O   0  0  0  0  0  0  0  0  0  0  0  0
   -3.8981   -0.7504    0.0000 O   0  0  0  0  0  0  0  0  0  0  0  0
   -2.5987   -3.0002    0.0000 O   0  0  0  0  0  0  0  0  0  0  0  0
  3  2  2  0
  5  4  1  0
  6  4  1  0
  7  2  1  0
  7  4  2  0
  8  3  1  0
  8  5  1  0
  9  5  2  0
 10  6  2  0
 11  1  1  0
 11  6  1  0
M  END
>  <NAME>  (5245) 
METHYL 3-HYDROXY-2-PYRAZINECARBOXYLATE

>  <SYNONYMS>  (5245) 


>  <SPECTRUM TYPE>  (5245) 
MS1

>  <INSTRUMENT TYPE>  (5245) 
EI-B

>  <INSTRUMENT>  (5245) 
HITACHI RMU-6E

>  <ION MODE>  (5245) 
P

>  <INCHIKEY>  (5245) 
YVUBNSIFWJGXBQ-UHFFFAOYSA-N

>  <FORMULA>  (5245) 
C6H6N2O3

>  <EXACT MASS>  (5245) 
154.037842052

>  <MW>  (5245) 
154

>  <ID>  (5245) 
JP004092

>  <CONTRIBUTOR>  (5245) 
University of Tokyo Team, {Faculty of Engineering, University of Tokyo

>  <COMMENT>  (5245) 
SMILES=COC(=O)c(n1)c(O)ncc1
InChI=InChI=1S/C6H6N2O3/c1-11-6(10)4-5(9)8-3-2-7-4/h2-3H,1H3,(H,8,9)
computed SMILES=O=C(OC)C1=NC=CNC1=O
accession=JP004092
date=2016.01.19 (Created 2008.10.21, modified 2011.05.06)
author=YAMAMOTO M, DEP. CHEMISTRY, FAC. SCIENCE, NARA WOMEN'S UNIV.
license=CC BY-NC-SA
exact mass=154.03784
ionization energy=70 eV
ion type=[M]+*
computed spectral entropy=2.650121342722166
computed normalized entropy=0.771733027793706
SPLASH=splash10-0f6w-9200000000-4899bcd8452f9f98c28e
submitter=submitter = University of Tokyo Team (Faculty of Engineering, University of Tokyo)
MoNA Rating=3.75

>  <NUM PEAKS>  (5245) 
31

>  <MASS SPECTRAL PEAKS>  (5245) 
15 16.7
26 4.1
27 3.4
28 10.5
29 5.2
31 2.7
38 3.5
39 1.06
40 56.6
41 6.6
42 7.8
44 0.3
45 5.7
51 2.7
52 5.2
54 0.33
59 9
66 3.2
67 12
68 5.42
69 6.8
70 3.9
94 29.1
95 3.32
96 99.99
97 5.4
123 10.7
124 4.38
125 2.9
154 52
155 6.1

$$$$

     RDKit          2D

 11 11  0  0  0  0  0  0  0  0999 V2000
    5.1970    1.5006    0.0000 C   0  0  0  0  0  0  0  0  0  0  0  0
    1.3000   -0.7500    0.0000 C   0  0  0  0  0  0  0  0  0  0  0  0
   -1.3000    0.7500    0.0000 C   0  0  0  0  0  0  0  0  0  0  0  0
    1.3000    0.7500    0.0000 C   0  0  0  0  0  0  0  0  0  0  0  0
   -1.3000   -0.7500    0.0000 C   0  0  0  0  0  0  0  0  0  0  0  0
    2.5989    1.5002    0.0000 C   0  0  0  0  0  0  0  0  0  0  0  0
   -2.5989   -1.5002    0.0000 Cl  0  0  0  0  0  0  0  0  0  0  0  0
    0.0000    1.5000    0.0000 N   0  0  0  0  0  0  0  0  0  0  0  0
   -0.0000   -1.5000    0.0000 N   0  0  0  0  0  0  0  0  0  0  0  0
    2.5987    3.0002    0.0000 O   0  0  0  0  0  0  0  0  0  0  0  0
    3.8981    0.7504    0.0000 O   0  0  0  0  0  0  0  0  0  0  0  0
  4  2  2  0
  5  3  1  0
  6  4  1  0
  7  5  1  0
  8  3  2  0
  8  4  1  0
  9  2  1  0
  9  5  2  0
 10  6  2  0
 11  1  1  0
 11  6  1  0
M  END
>  <NAME>  (5246) 
METHYL 5-CHLORO-2-PYRAZINECARBOXYLATE

>  <SYNONYMS>  (5246) 


>  <SPECTRUM TYPE>  (5246) 
MS1

>  <INSTRUMENT TYPE>  (5246) 
EI-B

>  <INSTRUMENT>  (5246) 
HITACHI RMU-6E

>  <ION MODE>  (5246) 
P

>  <INCHIKEY>  (5246) 
CVVMLRFXZPKILB-UHFFFAOYSA-N

>  <FORMULA>  (5246) 
C6H5ClN2O2

>  <EXACT MASS>  (5246) 
172.00395508

>  <MW>  (5246) 
172

>  <ID>  (5246) 
JP004091

>  <CONTRIBUTOR>  (5246) 
University of Tokyo Team, {Faculty of Engineering, University of Tokyo

>  <COMMENT>  (5246) 
SMILES=COC(=O)c(c1)ncc(Cl)n1
InChI=InChI=1S/C6H5ClN2O2/c1-11-6(10)4-2-9-5(7)3-8-4/h2-3H,1H3
computed SMILES=O=C(OC)C=1N=CC(Cl)=NC1
accession=JP004091
date=2016.01.19 (Created 2008.10.21, modified 2011.05.06)
author=YAMAMOTO M, DEP. CHEMISTRY, FAC. SCIENCE, NARA WOMEN'S UNIV.
license=CC BY-NC-SA
exact mass=172.00396
ionization energy=70 eV
ion type=[M]+*
computed spectral entropy=2.6514274106031084
computed normalized entropy=0.751887786882401
SPLASH=splash10-03dl-4900000000-9921f0ec16735d7a7814
submitter=submitter = University of Tokyo Team (Faculty of Engineering, University of Tokyo)
MoNA Rating=3.75

>  <NUM PEAKS>  (5246) 
34

>  <MASS SPECTRAL PEAKS>  (5246) 
15 13
25 1.8
28 9.8
29 2
39 2.5
42 2.3
50 1.8
51 1.98
52 9.3
53 9.6
59 16
60 0.74
62 3.1
66 3.6
74 2
77 0.34
78 3.7
79 2.6
86 28.6
87 0.34
88 9.3
113 44.1
114 99.99
115 1.84
116 31.2
117 1.9
140 2
141 2.1
142 53.4
143 10
144 17.2
172 1.2
173 1.9
174 4.1

$$$$

     RDKit          2D

 10 10  0  0  0  0  0  0  0  0999 V2000
    1.3000   -0.7500    0.0000 C   0  0  0  0  0  0  0  0  0  0  0  0
   -1.3000    0.7500    0.0000 C   0  0  0  0  0  0  0  0  0  0  0  0
    1.3000    0.7500    0.0000 C   0  0  0  0  0  0  0  0  0  0  0  0
   -1.3000   -0.7500    0.0000 C   0  0  0  0  0  0  0  0  0  0  0  0
    2.5989    1.5002    0.0000 C   0  0  0  0  0  0  0  0  0  0  0  0
    3.8981    0.7504    0.0000 N   0  0  0  0  0  0  0  0  0  0  0  0
    0.0000    1.5000    0.0000 N   0  0  0  0  0  0  0  0  0  0  0  0
   -0.0000   -1.5000    0.0000 N   0  0  0  0  0  0  0  0  0  0  0  0
   -2.5989   -1.5002    0.0000 O   0  0  0  0  0  0  0  0  0  0  0  0
    2.5987    3.0002    0.0000 O   0  0  0  0  0  0  0  0  0  0  0  0
  3  1  2  0
  4  2  1  0
  5  3  1  0
  6  5  2  0
  7  2  2  0
  7  3  1  0
  8  1  1  0
  8  4  1  0
  9  4  2  0
 10  5  1  0
M  END
>  <NAME>  (5247) 
5-HYDROXYPYRAZINE-2-CARBOXAMIDE

>  <SYNONYMS>  (5247) 


>  <SPECTRUM TYPE>  (5247) 
MS1

>  <INSTRUMENT TYPE>  (5247) 
EI-B

>  <INSTRUMENT>  (5247) 
HITACHI RMU-6E

>  <ION MODE>  (5247) 
P

>  <INCHIKEY>  (5247) 
XENWQEOTDAQROM-UHFFFAOYSA-N

>  <FORMULA>  (5247) 
C5H5N3O2

>  <EXACT MASS>  (5247) 
139.0381764

>  <MW>  (5247) 
139

>  <ID>  (5247) 
JP004090

>  <CONTRIBUTOR>  (5247) 
University of Tokyo Team, {Faculty of Engineering, University of Tokyo

>  <COMMENT>  (5247) 
SMILES=NC(=O)c(c1)ncc(O)n1
InChI=InChI=1S/C5H5N3O2/c6-5(10)3-1-8-4(9)2-7-3/h1-2H,(H2,6,10)(H,8,9)
computed SMILES=O=C1C=NC(=CN1)C(=N)O
accession=JP004090
date=2016.01.19 (Created 2008.10.21, modified 2011.05.06)
author=YAMAMOTO M, DEP. CHEMISTRY, FAC. SCIENCE, NARA WOMEN'S UNIV.
license=CC BY-NC-SA
exact mass=139.03818
ionization energy=70 eV
ion type=[M]+*
computed spectral entropy=2.9876916597513845
computed normalized entropy=0.8099184852515122
SPLASH=splash10-004v-9100000000-f3668d75358f611d3aea
submitter=submitter = University of Tokyo Team (Faculty of Engineering, University of Tokyo)
MoNA Rating=3.75

>  <NUM PEAKS>  (5247) 
40

>  <MASS SPECTRAL PEAKS>  (5247) 
12 1.2
14 4.8
16 4.7
17 3.1
25 2.6
26 4.8
27 8.1
28 99.99
29 20
38 17.6
39 33.5
40 9.04
41 52
42 23.1
43 4.8
44 5.65
45 2.6
51 8.8
52 12.7
53 1.68
54 4.4
55 8.2
56 28.9
57 0.25
65 2.9
66 6.2
67 26
68 8.34
69 8.5
82 2.8
83 5.6
84 0.72
94 4.4
95 83
96 30.3
111 1.72
122 1.6
123 9.3
139 73
140 8.3

$$$$

     RDKit          2D

 12 13  0  0  0  0  0  0  0  0999 V2000
   -1.3000   -1.7500    0.0000 C   0  0  0  0  0  0  0  0  0  0  0  0
    1.3000   -1.7500    0.0000 C   0  0  0  0  0  0  0  0  0  0  0  0
   -2.6000   -1.0000    0.0000 C   0  0  0  0  0  0  0  0  0  0  0  0
    2.6000   -1.0000    0.0000 C   0  0  0  0  0  0  0  0  0  0  0  0
   -1.3000    1.2500    0.0000 C   0  0  0  0  0  0  0  0  0  0  0  0
    0.0000   -1.0000    0.0000 C   0  0  0  0  0  0  0  0  0  0  0  0
   -2.6000    0.5000    0.0000 C   0  0  0  0  0  0  0  0  0  0  0  0
    0.0000    0.5000    0.0000 C   0  0  0  0  0  0  0  0  0  0  0  0
    2.6000    0.5000    0.0000 C   0  0  0  0  0  0  0  0  0  0  0  0
   -3.8989    1.2502    0.0000 O   0  0  0  0  0  0  0  0  0  0  0  0
    3.8989    1.2502    0.0000 O   0  0  0  0  0  0  0  0  0  0  0  0
    1.3000    1.2500    0.0000 O   0  0  0  0  0  0  0  0  0  0  0  0
  3  1  2  0
  4  2  2  0
  6  1  1  0
  6  2  1  0
  7  3  1  0
  7  5  2  0
  8  5  1  0
  8  6  2  0
  9  4  1  0
 10  7  1  0
 11  9  2  0
 12  8  1  0
 12  9  1  0
M  END
>  <NAME>  (5248) 
7-HYDROXYCOUMARIN

>  <SYNONYMS>  (5248) 


>  <SPECTRUM TYPE>  (5248) 
MS1

>  <INSTRUMENT TYPE>  (5248) 
EI-B

>  <INSTRUMENT>  (5248) 
HITACHI RMU-6E

>  <ION MODE>  (5248) 
P

>  <INCHIKEY>  (5248) 
ORHBXUUXSCNDEV-UHFFFAOYSA-N

>  <FORMULA>  (5248) 
C9H6O3

>  <EXACT MASS>  (5248) 
162.03169405199998

>  <MW>  (5248) 
162

>  <ID>  (5248) 
JP004089

>  <CONTRIBUTOR>  (5248) 
University of Tokyo Team, {Faculty of Engineering, University of Tokyo

>  <COMMENT>  (5248) 
SMILES=O=C(C=2)Oc(c1)c(C2)ccc(O)1
InChI=InChI=1S/C9H6O3/c10-7-3-1-6-2-4-9(11)12-8(6)5-7/h1-5,10H
computed SMILES=O=C1OC=2C=C(O)C=CC2C=C1
accession=JP004089
date=2016.01.19 (Created 2008.10.21, modified 2011.05.06)
author=YAMAMOTO M, DEP. CHEMISTRY, FAC. SCIENCE, NARA WOMEN'S UNIV.
license=CC BY-NC-SA
exact mass=162.03169
ionization energy=70 eV
ion type=[M]+*
computed spectral entropy=2.524940307736575
computed normalized entropy=0.7221320884767606
SPLASH=splash10-03di-6900000000-dedc215fac13e97ee769
submitter=submitter = University of Tokyo Team (Faculty of Engineering, University of Tokyo)
MoNA Rating=3.75

>  <NUM PEAKS>  (5248) 
33

>  <MASS SPECTRAL PEAKS>  (5248) 
27 1.6
37 1.5
38 4.5
38.5 1.3
39 8.1
43 1.8
50 5.7
51 1.43
52 5.2
52.5 1.6
53 5
55 0.17
61 2.3
62 5.1
63 8.6
64 0.29
65 4.4
67 10.2
69 7
74 0.14
76 1.7
77 13.2
78 21.7
79 0.28
105 18.6
106 8
133 2.6
134 8.59
135 7.1
161 1
162 99.99
163 1.23
164 1.3

$$$$

     RDKit          2D

 20 22  0  0  0  0  0  0  0  0999 V2000
   -1.3000    0.7500    0.0000 C   0  0  0  0  0  0  0  0  0  0  0  0
    6.4971    0.7512    0.0000 C   0  0  0  0  0  0  0  0  0  0  0  0
   -0.2941   -4.9491    0.0000 C   0  0  0  0  0  0  0  0  0  0  0  0
    0.0000    1.5000    0.0000 C   0  0  0  0  0  0  0  0  0  0  0  0
   -1.3000   -0.7500    0.0000 C   0  0  0  0  0  0  0  0  0  0  0  0
    6.4966   -0.7496    0.0000 C   0  0  0  0  0  0  0  0  0  0  0  0
    5.1981    1.5012    0.0000 C   0  0  0  0  0  0  0  0  0  0  0  0
   -0.8070   -3.5387    0.0000 C   0  0  0  0  0  0  0  0  0  0  0  0
    1.1831   -5.2096    0.0000 C   0  0  0  0  0  0  0  0  0  0  0  0
    1.3000    0.7500    0.0000 C   0  0  0  0  0  0  0  0  0  0  0  0
    0.0000   -1.5000    0.0000 C   0  0  0  0  0  0  0  0  0  0  0  0
    5.1971   -1.5004    0.0000 C   0  0  0  0  0  0  0  0  0  0  0  0
    3.8986    0.7504    0.0000 C   0  0  0  0  0  0  0  0  0  0  0  0
    0.1573   -2.3886    0.0000 C   0  0  0  0  0  0  0  0  0  0  0  0
    2.1474   -4.0596    0.0000 C   0  0  0  0  0  0  0  0  0  0  0  0
    1.3000   -0.7500    0.0000 C   0  0  0  0  0  0  0  0  0  0  0  0
    3.8981   -0.7504    0.0000 C   0  0  0  0  0  0  0  0  0  0  0  0
    1.6346   -2.6491    0.0000 C   0  0  0  0  0  0  0  0  0  0  0  0
    2.5989   -1.5002    0.0000 P   0  0  0  0  0  0  0  0  0  0  0  0
    3.5629   -2.6494    0.0000 S   0  0  0  0  0  0  0  0  0  0  0  0
  4  1  2  0
  5  1  1  0
  6  2  2  0
  7  2  1  0
  8  3  2  0
  9  3  1  0
 10  4  1  0
 11  5  2  0
 12  6  1  0
 13  7  2  0
 14  8  1  0
 15  9  2  0
 16 10  2  0
 16 11  1  0
 17 12  2  0
 17 13  1  0
 18 14  2  0
 18 15  1  0
 19 16  1  0
 19 17  1  0
 19 18  1  0
 20 19  2  0
M  END
>  <NAME>  (5249) 
TRIPHENYLPHOSPINE SULFIDE

>  <SYNONYMS>  (5249) 


>  <SPECTRUM TYPE>  (5249) 
MS1

>  <INSTRUMENT TYPE>  (5249) 
EI-B

>  <INSTRUMENT>  (5249) 
HITACHI M-68

>  <ION MODE>  (5249) 
P

>  <INCHIKEY>  (5249) 
VYNGFCUGSYEOOZ-UHFFFAOYSA-N

>  <FORMULA>  (5249) 
C18H15PS

>  <EXACT MASS>  (5249) 
294.06320811

>  <MW>  (5249) 
294

>  <ID>  (5249) 
JP004088

>  <CONTRIBUTOR>  (5249) 
University of Tokyo Team, {Faculty of Engineering, University of Tokyo

>  <COMMENT>  (5249) 
SMILES=c(c3)ccc(c3)P(=S)(c(c2)cccc2)c(c1)cccc1
InChI=InChI=1S/C18H15PS/c20-19(16-10-4-1-5-11-16,17-12-6-2-7-13-17)18-14-8-3-9-15-18/h1-15H
computed SMILES=S=P(C=1C=CC=CC1)(C=2C=CC=CC2)C=3C=CC=CC3
accession=JP004088
date=2016.01.19 (Created 2008.10.21, modified 2011.05.06)
author=YAMAMOTO M, DEP. CHEMISTRY, FAC. SCIENCE, NARA WOMEN'S UNIV.
license=CC BY-NC-SA
exact mass=294.06321
ionization energy=70 eV
ion type=[M]+*
computed spectral entropy=2.7823018110379434
computed normalized entropy=0.7648758514209941
SPLASH=splash10-0006-1790000000-3fac42f52c5819fc42bf
submitter=submitter = University of Tokyo Team (Faculty of Engineering, University of Tokyo)
MoNA Rating=3.75

>  <NUM PEAKS>  (5249) 
38

>  <MASS SPECTRAL PEAKS>  (5249) 
50 4.3
57 1.9
65 3.8
75 2.2
76 1.6
77 17.5
78 4.3
81 0.21
103 2
107 14.5
108 11.3
109 0.86
115 4.4
133 3.3
139 19.9
140 0.27
141 2.8
152 13.1
153 3.6
154 0.23
157 4.8
170 3.9
181 2.6
183 9.54
184 17.1
185 59
186 8.6
215 0.88
217 8.3
218 1.7
261 8
262 1.63
263 3.2
292 1.9
293 58
294 99.99
295 23.6
296 6.7

$$$$

     RDKit          2D

 11 11  0  0  0  0  0  0  0  0999 V2000
    3.0904    1.9652    0.0000 C   0  0  0  0  0  0  0  0  0  0  0  0
    3.0859    0.4731    0.0000 C   0  0  0  0  0  0  0  0  0  0  0  0
    1.7909    2.7161    0.0000 C   0  0  0  0  0  0  0  0  0  0  0  0
    1.7868   -0.2769    0.0000 C   0  0  0  0  0  0  0  0  0  0  0  0
    0.4918    1.9661    0.0000 C   0  0  0  0  0  0  0  0  0  0  0  0
    0.4923    0.4652    0.0000 C   0  0  0  0  0  0  0  0  0  0  0  0
   -0.8073    2.7159    0.0000 N   0  0  0  0  0  0  0  0  0  0  0  0
   -1.5577    1.0108    0.0000 O   0  0  0  0  0  0  0  0  0  0  0  0
   -2.1033   -1.0391    0.0000 O   0  0  0  0  0  0  0  0  0  0  0  0
   -0.0533   -1.5847    0.0000 O   0  0  0  0  0  0  0  0  0  0  0  0
   -0.8055   -0.2869    0.0000 S   0  0  0  0  0  0  0  0  0  0  0  0
  2  1  2  0
  3  1  1  0
  4  2  1  0
  5  3  2  0
  6  4  2  0
  6  5  1  0
  7  5  1  0
 11  6  1  0
 11  8  1  0
 11  9  2  0
 11 10  2  0
M  END
>  <NAME>  (5250) 
ANILINE-2-SULFONIC ACID

>  <SYNONYMS>  (5250) 


>  <SPECTRUM TYPE>  (5250) 
MS1

>  <INSTRUMENT TYPE>  (5250) 
EI-B

>  <INSTRUMENT>  (5250) 
HITACHI M-68

>  <ION MODE>  (5250) 
P

>  <INCHIKEY>  (5250) 
ZMCHBSMFKQYNKA-UHFFFAOYSA-N

>  <FORMULA>  (5250) 
C6H7NO3S

>  <EXACT MASS>  (5250) 
173.014664084

>  <MW>  (5250) 
173

>  <ID>  (5250) 
JP004087

>  <CONTRIBUTOR>  (5250) 
University of Tokyo Team, {Faculty of Engineering, University of Tokyo

>  <COMMENT>  (5250) 
SMILES=Nc(c1)c(ccc1)S(O)(=O)=O
InChI=InChI=1S/C6H7NO3S/c7-5-3-1-2-4-6(5)11(8,9)10/h1-4H,7H2,(H,8,9,10)
computed SMILES=O=S(=O)(O)C=1C=CC=CC1N
accession=JP004087
date=2016.01.19 (Created 2008.10.21, modified 2011.05.06)
author=YAMAMOTO M, DEP. CHEMISTRY, FAC. SCIENCE, NARA WOMEN'S UNIV.
license=CC BY-NC-SA
exact mass=173.01466
ionization energy=70 eV
ion type=[M]+*
computed spectral entropy=2.9773555913408236
computed normalized entropy=0.7867881579332964
SPLASH=splash10-0006-9200000000-836fba3340827e7b5279
submitter=submitter = University of Tokyo Team (Faculty of Engineering, University of Tokyo)
MoNA Rating=3.75

>  <NUM PEAKS>  (5250) 
44

>  <MASS SPECTRAL PEAKS>  (5250) 
17 2.6
18 9.2
26 1.9
27 4.4
28 11.1
36 2.7
38 13.2
40 0.56
41 12
42 3.3
45 1.5
47 0.26
48 10.9
49 1.3
50 6.4
51 0.66
52 19.4
53 7.3
54 5.3
61 0.32
62 7.4
63 20.8
64 33
65 6.66
66 31.7
67 4.4
77 1.5
78 0.33
79 3.3
80 17.9
81 3
91 99.99
92 27.3
93 72.1
94 6.7
106 0.5
108 8.5
109 2.2
138 8.7
155 4.75
156 5.5
173 82
174 6.8
175 4

$$$$

     RDKit          2D

 22 23  0  0  0  0  0  0  0  0999 V2000
    3.8981    0.7504    0.0000 C   0  0  0  0  0  0  0  0  0  0  0  0
  -10.3929   -3.0015    0.0000 C   0  0  0  0  0  0  0  0  0  0  0  0
  -10.3936   -1.5006    0.0000 C   0  0  0  0  0  0  0  0  0  0  0  0
   -9.0933   -3.7521    0.0000 C   0  0  0  0  0  0  0  0  0  0  0  0
   -9.0947   -0.7504    0.0000 C   0  0  0  0  0  0  0  0  0  0  0  0
   -7.7943   -3.0019    0.0000 C   0  0  0  0  0  0  0  0  0  0  0  0
    0.0000    1.5000    0.0000 C   0  0  0  0  0  0  0  0  0  0  0  0
    1.3000   -0.7500    0.0000 C   0  0  0  0  0  0  0  0  0  0  0  0
   -1.3000    0.7500    0.0000 C   0  0  0  0  0  0  0  0  0  0  0  0
    0.0000   -1.5000    0.0000 C   0  0  0  0  0  0  0  0  0  0  0  0
    2.5989    1.5002    0.0000 C   0  0  0  0  0  0  0  0  0  0  0  0
    1.3000    0.7500    0.0000 C   0  0  0  0  0  0  0  0  0  0  0  0
   -7.7951   -1.5010    0.0000 C   0  0  0  0  0  0  0  0  0  0  0  0
   -1.3000   -0.7500    0.0000 C   0  0  0  0  0  0  0  0  0  0  0  0
   -5.1970   -1.5006    0.0000 C   0  0  0  0  0  0  0  0  0  0  0  0
   -6.4962   -0.7508    0.0000 N   0  0  0  0  0  0  0  0  0  0  0  0
   -3.8981   -0.7504    0.0000 N   0  0  0  0  0  0  0  0  0  0  0  0
    2.5987    3.0002    0.0000 O   0  0  0  0  0  0  0  0  0  0  0  0
   -5.1968   -3.0006    0.0000 O   0  0  0  0  0  0  0  0  0  0  0  0
   -3.5629   -2.6494    0.0000 O   0  0  0  0  0  0  0  0  0  0  0  0
   -1.6346   -2.6491    0.0000 O   0  0  0  0  0  0  0  0  0  0  0  0
   -2.5989   -1.5002    0.0000 S   0  0  0  0  0  0  0  0  0  0  0  0
  3  2  1  0
  4  2  1  0
  5  3  1  0
  6  4  1  0
  9  7  2  0
 10  8  1  0
 11  1  1  0
 12  7  1  0
 12  8  2  0
 12 11  1  0
 13  5  1  0
 13  6  1  0
 14  9  1  0
 14 10  2  0
 16 13  1  0
 16 15  2  3
 17 15  1  0
 18 11  2  0
 19 15  1  0
 22 14  1  0
 22 17  1  0
 22 20  2  0
 22 21  2  0
M  END
>  <NAME>  (5251) 
1-(PARA-ACETYLPHENYLSULFONYL)-3CYCLOHEXYLUREA

>  <SYNONYMS>  (5251) 


>  <SPECTRUM TYPE>  (5251) 
MS1

>  <INSTRUMENT TYPE>  (5251) 
EI-B

>  <INSTRUMENT>  (5251) 
HITACHI RMU-6E

>  <ION MODE>  (5251) 
P

>  <INCHIKEY>  (5251) 
VGZSUPCWNCWDAN-UHFFFAOYSA-N

>  <FORMULA>  (5251) 
C15H20N2O4S

>  <EXACT MASS>  (5251) 
324.11437811999997

>  <MW>  (5251) 
324

>  <ID>  (5251) 
JP004084

>  <CONTRIBUTOR>  (5251) 
University of Tokyo Team, {Faculty of Engineering, University of Tokyo

>  <COMMENT>  (5251) 
SMILES=CC(=O)c(c2)ccc(c2)S(=O)(=O)NC(=O)NC(C1)CCCC1
InChI=InChI=1S/C15H20N2O4S/c1-11(18)12-7-9-14(10-8-12)22(20,21)17-15(19)16-13-5-3-2-4-6-13/h7-10,13H,2-6H2,1H3,(H2,16,17,19)
computed SMILES=O=C(C1=CC=C(C=C1)S(=O)(=O)NC(O)=NC2CCCCC2)C
accession=JP004084
date=2016.01.19 (Created 2008.10.21, modified 2011.05.06)
author=YAMAMOTO M, DEP. CHEMISTRY, FAC. SCIENCE, NARA WOMEN'S UNIV.
license=CC BY-NC-SA
exact mass=324.11438
ionization energy=70 eV
ion type=[M]+*
computed spectral entropy=3.5228349869861737
computed normalized entropy=0.8039282461477667
SPLASH=splash10-0a5c-9200000000-09e03cfa3bf5df8c2b45
submitter=submitter = University of Tokyo Team (Faculty of Engineering, University of Tokyo)
MoNA Rating=3.75

>  <NUM PEAKS>  (5251) 
80

>  <MASS SPECTRAL PEAKS>  (5251) 
15 3
18 7.2
26 1.5
27 11.6
28 13.9
29 6.3
30 6.8
38 0.25
39 15
40 3.4
41 32.6
42 1.35
43 57
44 3
50 14.3
51 0.67
52 2.4
53 5
54 18
55 1.63
56 99.99
57 5.2
62 1.5
63 0.4
64 3.8
65 7.3
66 1.5
67 3.16
68 5.7
69 17.7
70 8.4
74 0.44
75 16.8
76 17.7
77 9.1
78 0.16
79 2.7
80 2.9
81 5.8
82 3
83 8.7
89 1.8
90 2.4
91 1.15
92 3.2
93 2.9
96 6
97 2.15
98 12.8
99 8.4
104 8.3
105 0.13
107 1.4
108 1.9
109 1.4
119 1.11
120 6.5
121 8.7
124 2.1
125 0.81
135 2.3
139 5.9
140 1.1
141 1.18
152 1.4
156 4.1
182 2.2
183 0.47
184 70
185 6.7
186 3.7
199 0.91
200 1.6
210 31.9
211 3.2
212 0.17
225 2.8
243 5.9
281 2.4
324 2

$$$$

     RDKit          2D

 16 16  0  0  0  0  0  0  0  0999 V2000
   -5.1970   -1.5006    0.0000 C   0  0  0  0  0  0  0  0  0  0  0  0
   -3.8983    0.7496    0.0000 C   0  0  0  0  0  0  0  0  0  0  0  0
    5.1970   -1.5006    0.0000 C   0  0  0  0  0  0  0  0  0  0  0  0
    3.8983    0.7496    0.0000 C   0  0  0  0  0  0  0  0  0  0  0  0
   -1.2990    3.7500    0.0000 C   0  0  0  0  0  0  0  0  0  0  0  0
   -3.8981   -0.7504    0.0000 C   0  0  0  0  0  0  0  0  0  0  0  0
    3.8981   -0.7504    0.0000 C   0  0  0  0  0  0  0  0  0  0  0  0
   -1.3000   -0.7500    0.0000 C   0  0  0  0  0  0  0  0  0  0  0  0
    1.3000   -0.7500    0.0000 C   0  0  0  0  0  0  0  0  0  0  0  0
    0.0000    1.5000    0.0000 C   0  0  0  0  0  0  0  0  0  0  0  0
   -2.5989   -1.5002    0.0000 N   0  0  0  0  0  0  0  0  0  0  0  0
    2.5989   -1.5002    0.0000 N   0  0  0  0  0  0  0  0  0  0  0  0
   -0.0000   -1.5000    0.0000 N   0  0  0  0  0  0  0  0  0  0  0  0
   -1.3000    0.7500    0.0000 N   0  0  0  0  0  0  0  0  0  0  0  0
    1.3000    0.7500    0.0000 N   0  0  0  0  0  0  0  0  0  0  0  0
    0.0000    3.0000    0.0000 S   0  0  0  0  0  0  0  0  0  0  0  0
  6  1  1  0
  6  2  1  0
  7  3  1  0
  7  4  1  0
 11  6  1  0
 11  8  2  3
 12  7  1  0
 12  9  2  3
 13  8  1  0
 13  9  1  0
 14  8  1  0
 14 10  2  0
 15  9  1  0
 15 10  1  0
 16  5  1  0
 16 10  1  0
M  END
>  <NAME>  (5252) 
2,4-BIS(ISOPROPYLAMINO)-6-(METHYLTHIO)-S-TRIAZINE

>  <SYNONYMS>  (5252) 


>  <SPECTRUM TYPE>  (5252) 
MS1

>  <INSTRUMENT TYPE>  (5252) 
EI-B

>  <INSTRUMENT>  (5252) 
HITACHI RMU-6E

>  <ION MODE>  (5252) 
P

>  <INCHIKEY>  (5252) 
AAEVYOVXGOFMJO-UHFFFAOYSA-N

>  <FORMULA>  (5252) 
C10H19N5S

>  <EXACT MASS>  (5252) 
241.136116608

>  <MW>  (5252) 
241

>  <ID>  (5252) 
JP004083

>  <CONTRIBUTOR>  (5252) 
University of Tokyo Team, {Faculty of Engineering, University of Tokyo

>  <COMMENT>  (5252) 
SMILES=CC(C)Nc(n1)nc(SC)nc(NC(C)C)1
InChI=InChI=1S/C10H19N5S/c1-6(2)11-8-13-9(12-7(3)4)15-10(14-8)16-5/h6-7H,1-5H3,(H2,11,12,13,14,15)
computed SMILES=N=1C(=NC(C)C)NC(=NC(C)C)NC1SC
accession=JP004083
date=2016.01.19 (Created 2008.10.21, modified 2011.05.06)
author=YAMAMOTO M, DEP. CHEMISTRY, FAC. SCIENCE, NARA WOMEN'S UNIV.
license=CC BY-NC-SA
exact mass=241.13612
ionization energy=70 eV
ion type=[M]+*
computed spectral entropy=3.3874942226304476
computed normalized entropy=0.7752682574567961
SPLASH=splash10-052f-9530000000-ac46b696f0af66ace6f9
submitter=submitter = University of Tokyo Team (Faculty of Engineering, University of Tokyo)
MoNA Rating=3.75

>  <NUM PEAKS>  (5252) 
79

>  <MASS SPECTRAL PEAKS>  (5252) 
15 5.1
18 2.6
27 19.1
28 12.1
30 2
39 6.1
40 1.8
41 3
42 2.63
43 79.3
44 22.2
45 0.24
46 1.5
47 4.2
53 1.7
55 0.26
56 3.4
57 5.5
58 99.99
59 0.41
67 2.4
68 43.8
69 39.5
70 0.37
74 17.8
75 1.7
83 13
84 0.25
85 11.3
91 4.1
93 4.9
94 0.8
95 3.5
99 6.2
100 3.2
102 0.16
105 44.1
106 5.3
108 2.3
109 0.16
110 8.4
111 9.9
112 1.9
113 0.2
116 6.6
117 2.1
125 2.1
127 0.42
136 3.1
137 3.8
141 3
142 0.64
143 1.5
150 1.5
151 1.5
152 1.05
153 3.4
156 4
157 13
158 0.19
166 3
169 13.5
170 2.2
171 0.21
184 69
185 11.3
186 3.8
195 0.31
198 5.7
199 24.6
200 3
210 0.15
226 51.8
227 6.8
228 2.8
240 0.6
241 75
242 14
243 4.4

$$$$

     RDKit          2D

 14 15  0  0  0  0  0  0  0  0999 V2000
   -4.8981   -0.6361    0.0000 C   0  0  0  0  0  0  0  0  0  0  0  0
    1.5800    1.6200    0.0000 C   0  0  0  0  0  0  0  0  0  0  0  0
    2.9000    0.8900    0.0000 C   0  0  0  0  0  0  0  0  0  0  0  0
   -1.0100    1.6100    0.0000 C   0  0  0  0  0  0  0  0  0  0  0  0
   -1.0100   -1.3900    0.0000 C   0  0  0  0  0  0  0  0  0  0  0  0
    0.3000    0.8600    0.0000 C   0  0  0  0  0  0  0  0  0  0  0  0
   -2.3000    0.8600    0.0000 C   0  0  0  0  0  0  0  0  0  0  0  0
    0.3000   -0.6400    0.0000 C   0  0  0  0  0  0  0  0  0  0  0  0
   -2.3000   -0.6400    0.0000 C   0  0  0  0  0  0  0  0  0  0  0  0
    2.9000   -0.6300    0.0000 C   0  0  0  0  0  0  0  0  0  0  0  0
   -3.6002    1.6080    0.0000 O   0  0  0  0  0  0  0  0  0  0  0  0
    4.2023   -1.3743    0.0000 O   0  0  0  0  0  0  0  0  0  0  0  0
   -3.6002   -1.3880    0.0000 O   0  0  0  0  0  0  0  0  0  0  0  0
    1.6100   -1.3900    0.0000 O   0  0  0  0  0  0  0  0  0  0  0  0
  3  2  2  0
  6  2  1  0
  6  4  2  0
  7  4  1  0
  8  5  2  0
  8  6  1  0
  9  5  1  0
  9  7  2  0
 10  3  1  0
 11  7  1  0
 12 10  2  0
 13  1  1  0
 13  9  1  0
 14  8  1  0
 14 10  1  0
M  END
>  <NAME>  (5253) 
6-HYDROXY-7-METHOXYCOUMARIN

>  <SYNONYMS>  (5253) 


>  <SPECTRUM TYPE>  (5253) 
MS1

>  <INSTRUMENT TYPE>  (5253) 
EI-B

>  <INSTRUMENT>  (5253) 
HITACHI RMU-6E

>  <ION MODE>  (5253) 
P

>  <INCHIKEY>  (5253) 
SYTYLPHCLSSCOJ-UHFFFAOYSA-N

>  <FORMULA>  (5253) 
C10H8O4

>  <EXACT MASS>  (5253) 
192.042258736

>  <MW>  (5253) 
192

>  <ID>  (5253) 
JP004082

>  <CONTRIBUTOR>  (5253) 
University of Tokyo Team, {Faculty of Engineering, University of Tokyo

>  <COMMENT>  (5253) 
SMILES=COc(c1)c(O)cc(C=2)c(OC(=O)C2)1
InChI=InChI=1S/C10H8O4/c1-13-9-5-8-6(4-7(9)11)2-3-10(12)14-8/h2-5,11H,1H3
computed SMILES=O=C1OC=2C=C(OC)C(O)=CC2C=C1
accession=JP004082
date=2016.01.19 (Created 2008.10.21, modified 2011.05.06)
author=YAMAMOTO M, DEP. CHEMISTRY, FAC. SCIENCE, NARA WOMEN'S UNIV.
license=CC BY-NC-SA
exact mass=192.04226
ionization energy=70 eV
ion type=[M]+*
computed spectral entropy=2.7096278834330585
computed normalized entropy=0.707725692439573
SPLASH=splash10-0007-4900000000-368d336ba855c6336983
submitter=submitter = University of Tokyo Team (Faculty of Engineering, University of Tokyo)
MoNA Rating=3.75

>  <NUM PEAKS>  (5253) 
46

>  <MASS SPECTRAL PEAKS>  (5253) 
28 3.2
38 2.3
39 7.1
41 1.3
42 1.8
50 7.7
51 18.1
52 0.31
53 10.7
54 1.2
55 1.8
57 0.12
62 1.6
63 3.2
64 1.9
65 0.84
66 1.5
69 27.2
70 1.3
74 0.15
75 1.7
76 2.4
77 3.3
78 0.12
79 15.3
80 1.8
81 2.7
92 0.26
93 1.9
96 2.7
105 2.6
107 0.24
120 1.6
121 15.4
122 1.1
135 0.17
149 56.7
150 5.6
164 36.5
165 0.35
177 11.8
178 1.7
191 1.7
192 99.99
193 10.9
194 1.4

$$$$

     RDKit          2D

 13 14  0  0  0  0  0  0  0  0999 V2000
    1.5800    1.6200    0.0000 C   0  0  0  0  0  0  0  0  0  0  0  0
    2.9000    0.8900    0.0000 C   0  0  0  0  0  0  0  0  0  0  0  0
   -1.0100    1.6100    0.0000 C   0  0  0  0  0  0  0  0  0  0  0  0
   -1.0100   -1.3900    0.0000 C   0  0  0  0  0  0  0  0  0  0  0  0
    0.3000    0.8600    0.0000 C   0  0  0  0  0  0  0  0  0  0  0  0
   -2.3000    0.8600    0.0000 C   0  0  0  0  0  0  0  0  0  0  0  0
   -2.3000   -0.6400    0.0000 C   0  0  0  0  0  0  0  0  0  0  0  0
    0.3000   -0.6400    0.0000 C   0  0  0  0  0  0  0  0  0  0  0  0
    2.9000   -0.6300    0.0000 C   0  0  0  0  0  0  0  0  0  0  0  0
   -3.6002    1.6080    0.0000 O   0  0  0  0  0  0  0  0  0  0  0  0
   -3.6002   -1.3880    0.0000 O   0  0  0  0  0  0  0  0  0  0  0  0
    4.2023   -1.3743    0.0000 O   0  0  0  0  0  0  0  0  0  0  0  0
    1.6100   -1.3900    0.0000 O   0  0  0  0  0  0  0  0  0  0  0  0
  2  1  2  0
  5  1  1  0
  5  3  2  0
  6  3  1  0
  7  4  1  0
  7  6  2  0
  8  4  2  0
  8  5  1  0
  9  2  1  0
 10  6  1  0
 11  7  1  0
 12  9  2  0
 13  8  1  0
 13  9  1  0
M  END
>  <NAME>  (5254) 
6,7-DIHYDROXYCOUMARIN

>  <SYNONYMS>  (5254) 


>  <SPECTRUM TYPE>  (5254) 
MS1

>  <INSTRUMENT TYPE>  (5254) 
EI-B

>  <INSTRUMENT>  (5254) 
HITACHI RMU-6E

>  <ION MODE>  (5254) 
P

>  <INCHIKEY>  (5254) 
ILEDWLMCKZNDJK-UHFFFAOYSA-N

>  <FORMULA>  (5254) 
C9H6O4

>  <EXACT MASS>  (5254) 
178.026608672

>  <MW>  (5254) 
178

>  <ID>  (5254) 
JP004081

>  <CONTRIBUTOR>  (5254) 
University of Tokyo Team, {Faculty of Engineering, University of Tokyo

>  <COMMENT>  (5254) 
computed SMILES=O=C1OC=2C=C(O)C(O)=CC2C=C1
SMILES=O=C(C=2)Oc(c1)c(C2)cc(O)c(O)1
InChI=InChI=1S/C9H6O4/c10-6-3-5-1-2-9(12)13-8(5)4-7(6)11/h1-4,10-11H
accession=JP004081
date=2016.01.19 (Created 2008.10.21, modified 2011.05.06)
author=YAMAMOTO M, DEP. CHEMISTRY, FAC. SCIENCE, NARA WOMEN'S UNIV.
license=CC BY-NC-SA
exact mass=178.02661
ionization energy=70 eV
ion type=[M]+*
computed spectral entropy=2.7344739968534255
computed normalized entropy=0.7183389660107256
SPLASH=splash10-004i-7900000000-22e400291639a7bbb33a
submitter=submitter = University of Tokyo Team (Faculty of Engineering, University of Tokyo)
MoNA Rating=3.75

>  <NUM PEAKS>  (5254) 
45

>  <MASS SPECTRAL PEAKS>  (5254) 
38 4.3
39 6.7
40 1.9
42 4.3
43 1.8
47 2.8
49 1.7
50 1.08
51 14.1
52 6.1
53 9.6
54 0.16
55 1.8
61 2
62 2.3
63 0.29
64 1.3
65 5.1
66 7.3
69 1.7
70 1.8
74 2.1
75 10.3
76 1.04
77 2.4
79 7.5
80 4.6
81 0.31
89 2.2
93 1.2
94 7.8
104 0.58
105 1.1
108 1.4
109 1.1
121 0.61
122 2.9
132 3.1
149 2.7
150 7.24
151 6.7
177 3.2
178 99.99
179 1.03
180 1.3

$$$$

     RDKit          2D

 18 19  0  0  0  0  0  0  0  0999 V2000
   -0.9736   -2.8671    0.0000 C   0  0  0  0  0  0  0  0  0  0  0  0
   -2.2726   -0.6171    0.0000 C   0  0  0  0  0  0  0  0  0  0  0  0
    4.2226    3.1329    0.0000 C   0  0  0  0  0  0  0  0  0  0  0  0
   -3.5716    3.1329    0.0000 C   0  0  0  0  0  0  0  0  0  0  0  0
    2.9231    3.8837    0.0000 C   0  0  0  0  0  0  0  0  0  0  0  0
    4.2231    1.6321    0.0000 C   0  0  0  0  0  0  0  0  0  0  0  0
   -3.5721    1.6321    0.0000 C   0  0  0  0  0  0  0  0  0  0  0  0
   -2.2721    3.8837    0.0000 C   0  0  0  0  0  0  0  0  0  0  0  0
    1.6240    3.1337    0.0000 C   0  0  0  0  0  0  0  0  0  0  0  0
    2.9240    0.8821    0.0000 C   0  0  0  0  0  0  0  0  0  0  0  0
   -2.2731    0.8821    0.0000 C   0  0  0  0  0  0  0  0  0  0  0  0
   -0.9731    3.1337    0.0000 C   0  0  0  0  0  0  0  0  0  0  0  0
    1.6245    1.6329    0.0000 C   0  0  0  0  0  0  0  0  0  0  0  0
   -0.9736    1.6329    0.0000 C   0  0  0  0  0  0  0  0  0  0  0  0
    0.3255    0.8829    0.0000 C   0  0  0  0  0  0  0  0  0  0  0  0
    0.3255   -0.6171    0.0000 C   0  0  0  0  0  0  0  0  0  0  0  0
   -0.9736   -1.3671    0.0000 N   0  0  0  0  0  0  0  0  0  0  0  0
    1.6245   -1.3671    0.0000 O   0  0  0  0  0  0  0  0  0  0  0  0
  5  3  2  0
  6  3  1  0
  7  4  2  0
  8  4  1  0
  9  5  1  0
 10  6  2  0
 11  7  1  0
 12  8  2  0
 13  9  2  0
 13 10  1  0
 14 11  2  0
 14 12  1  0
 15 13  1  0
 15 14  1  0
 16 15  1  0
 17  1  1  0
 17  2  1  0
 17 16  1  0
 18 16  2  0
M  END
>  <NAME>  (5255) 
DIPHENAMIDE

>  <SYNONYMS>  (5255) 


>  <SPECTRUM TYPE>  (5255) 
MS1

>  <INSTRUMENT TYPE>  (5255) 
EI-B

>  <INSTRUMENT>  (5255) 
HITACHI M-68

>  <ION MODE>  (5255) 
P

>  <INCHIKEY>  (5255) 
QAHFOPIILNICLA-UHFFFAOYSA-N

>  <FORMULA>  (5255) 
C16H17NO

>  <EXACT MASS>  (5255) 
239.131014164

>  <MW>  (5255) 
239

>  <ID>  (5255) 
JP004080

>  <CONTRIBUTOR>  (5255) 
University of Tokyo Team, {Faculty of Engineering, University of Tokyo

>  <COMMENT>  (5255) 
SMILES=CN(C)C(=O)C(c(c2)cccc2)c(c1)cccc1
InChI=InChI=1S/C16H17NO/c1-17(2)16(18)15(13-9-5-3-6-10-13)14-11-7-4-8-12-14/h3-12,15H,1-2H3
computed SMILES=O=C(N(C)C)C(C=1C=CC=CC1)C=2C=CC=CC2
accession=JP004080
date=2016.01.19 (Created 2008.10.21, modified 2011.05.06)
author=YAMAMOTO M, DEP. CHEMISTRY, FAC. SCIENCE, NARA WOMEN'S UNIV.
license=CC BY-NC-SA
exact mass=239.13101
ionization energy=70 eV
ion type=[M]+*
computed spectral entropy=2.003372745265767
computed normalized entropy=0.6481220415103547
SPLASH=splash10-01b9-4920000000-fc2f1e9ef369b2873491
submitter=submitter = University of Tokyo Team (Faculty of Engineering, University of Tokyo)
MoNA Rating=3.75

>  <NUM PEAKS>  (5255) 
22

>  <MASS SPECTRAL PEAKS>  (5255) 
44 1.4
51 1.7
63 2.2
72 92
77 1.1
134 1.8
139 3.1
141 0.11
152 14
153 2
163 2.4
164 0.29
165 37.2
166 14.5
167 99.99
168 1.38
169 1
222 15.3
223 3
239 3.5
240 20
241 3.4

$$$$

     RDKit          2D

 17 18  0  0  0  0  0  0  0  0999 V2000
    5.1887    0.7498    0.0000 C   0  0  0  0  0  0  0  0  0  0  0  0
   -5.2037   -0.7589    0.0000 C   0  0  0  0  0  0  0  0  0  0  0  0
   -5.2060    0.7411    0.0000 C   0  0  0  0  0  0  0  0  0  0  0  0
   -3.9025   -1.5069    0.0000 C   0  0  0  0  0  0  0  0  0  0  0  0
    1.2957   -1.4928    0.0000 C   0  0  0  0  0  0  0  0  0  0  0  0
    2.5902   -0.7506    0.0000 C   0  0  0  0  0  0  0  0  0  0  0  0
   -3.9071    1.4931    0.0000 C   0  0  0  0  0  0  0  0  0  0  0  0
   -2.6037   -0.7550    0.0000 C   0  0  0  0  0  0  0  0  0  0  0  0
   -0.0034   -0.7428    0.0000 C   0  0  0  0  0  0  0  0  0  0  0  0
    1.2916    1.5002    0.0000 C   0  0  0  0  0  0  0  0  0  0  0  0
    3.8901    3.0000    0.0000 C   0  0  0  0  0  0  0  0  0  0  0  0
    3.8898    1.5000    0.0000 C   0  0  0  0  0  0  0  0  0  0  0  0
    2.5907    0.7502    0.0000 C   0  0  0  0  0  0  0  0  0  0  0  0
   -2.6060    0.7450    0.0000 C   0  0  0  0  0  0  0  0  0  0  0  0
   -0.0079    0.7494    0.0000 C   0  0  0  0  0  0  0  0  0  0  0  0
    3.8903    4.5000    0.0000 N   0  0  0  0  0  0  0  0  0  0  0  0
   -1.3082    1.4972    0.0000 O   0  0  0  0  0  0  0  0  0  0  0  0
  3  2  2  0
  4  2  1  0
  6  5  2  0
  7  3  1  0
  8  4  2  0
  9  5  1  0
 12  1  1  0
 12 11  1  0
 13  6  1  0
 13 10  2  0
 13 12  1  0
 14  7  2  0
 14  8  1  0
 15  9  2  0
 15 10  1  0
 16 11  3  0
 17 14  1  0
 17 15  1  0
M  END
>  <NAME>  (5256) 
2-(3-PHENOXYPHENYL)PROPIONITRILE

>  <SYNONYMS>  (5256) 


>  <SPECTRUM TYPE>  (5256) 
MS1

>  <INSTRUMENT TYPE>  (5256) 
EI-B

>  <INSTRUMENT>  (5256) 
HITACHI RMU-6E

>  <ION MODE>  (5256) 
P

>  <INCHIKEY>  (5256) 
JSCONFOVXYGOST-UHFFFAOYSA-N

>  <FORMULA>  (5256) 
C15H13NO

>  <EXACT MASS>  (5256) 
223.099714036

>  <MW>  (5256) 
223

>  <ID>  (5256) 
JP004079

>  <CONTRIBUTOR>  (5256) 
University of Tokyo Team, {Faculty of Engineering, University of Tokyo

>  <COMMENT>  (5256) 
SMILES=N#CC(C)c(c2)cc(cc2)Oc(c1)cccc1
InChI=InChI=1S/C15H13NO/c1-12(11-16)13-6-5-9-15(10-13)17-14-7-3-2-4-8-14/h2-10,12H,1H3
computed SMILES=N#CC(C=1C=CC=C(OC=2C=CC=CC2)C1)C
accession=JP004079
date=2016.01.19 (Created 2008.10.21, modified 2011.05.06)
author=YAMAMOTO M, DEP. CHEMISTRY, FAC. SCIENCE, NARA WOMEN'S UNIV.
license=CC BY-NC-SA
exact mass=223.09971
ionization energy=70 eV
ion type=[M]+*
computed spectral entropy=3.181345555265585
computed normalized entropy=0.7323867545402094
SPLASH=splash10-00di-9880000000-1cd83c26509dba10f482
submitter=submitter = University of Tokyo Team (Faculty of Engineering, University of Tokyo)
MoNA Rating=3.75

>  <NUM PEAKS>  (5256) 
77

>  <MASS SPECTRAL PEAKS>  (5256) 
38 2.3
39 13
40 1
41 1.2
51 27
52 3
53 1.2
55 0.13
62 1.7
63 6.2
64 3.8
65 0.75
66 1.6
74 1.4
75 3.5
76 0.77
76.5 1.5
77 34
78 4.5
88 0.2
89 2.9
90 2.9
91 6.2
92 0.23
93 0.9
94 7.7
95 0.8
101 0.16
102 2.9
103 8.9
103.5 2
104 0.32
114 1.5
115 4.9
116 1.5
117 1.1
118 1.6
127 1.3
128 1.6
129 0.1
130 14
131 1.4
132 0.9
140 0.14
141 11
142 1.9
145 1.2
151 0.11
152 4.5
153 4
154 1.2
165 0.12
167 1.4
168 4
169 7.1
170 0.41
177 1
178 1.1
179 1
180 0.91
181 25.5
182 3.8
183 1.9
190 0.1
194 1.5
195 4.6
196 1.9
197 0.16
206 1.6
207 1.5
208 7
209 0.12
221 0.5
222 1.9
223 99.99
224 1.6
225 1.9

$$$$

     RDKit          2D

 16 17  0  0  0  0  0  0  0  0999 V2000
   -5.5300    1.3050    0.0000 C   0  0  0  0  0  0  0  0  0  0  0  0
    4.8624    2.8137    0.0000 C   0  0  0  0  0  0  0  0  0  0  0  0
    4.8647    1.3137    0.0000 C   0  0  0  0  0  0  0  0  0  0  0  0
    3.5613    3.5617    0.0000 C   0  0  0  0  0  0  0  0  0  0  0  0
   -1.6369    3.5475    0.0000 C   0  0  0  0  0  0  0  0  0  0  0  0
   -2.9314    2.8054    0.0000 C   0  0  0  0  0  0  0  0  0  0  0  0
    3.5658    0.5617    0.0000 C   0  0  0  0  0  0  0  0  0  0  0  0
    2.2624    2.8097    0.0000 C   0  0  0  0  0  0  0  0  0  0  0  0
   -0.3379    2.7975    0.0000 C   0  0  0  0  0  0  0  0  0  0  0  0
   -1.6329    0.5545    0.0000 C   0  0  0  0  0  0  0  0  0  0  0  0
   -4.2311    0.5547    0.0000 C   0  0  0  0  0  0  0  0  0  0  0  0
   -2.9319    1.3045    0.0000 C   0  0  0  0  0  0  0  0  0  0  0  0
    2.2647    1.3097    0.0000 C   0  0  0  0  0  0  0  0  0  0  0  0
   -0.3334    1.3054    0.0000 C   0  0  0  0  0  0  0  0  0  0  0  0
   -4.2313   -0.9453    0.0000 O   0  0  0  0  0  0  0  0  0  0  0  0
    0.9669    0.5575    0.0000 O   0  0  0  0  0  0  0  0  0  0  0  0
  3  2  2  0
  4  2  1  0
  6  5  2  0
  7  3  1  0
  8  4  2  0
  9  5  1  0
 11  1  1  0
 12  6  1  0
 12 10  2  0
 12 11  1  0
 13  7  2  0
 13  8  1  0
 14  9  2  0
 14 10  1  0
 15 11  1  0
 16 13  1  0
 16 14  1  0
M  END
>  <NAME>  (5257) 
ALPHA-METHYL-3-PHENOXYBENZYLALCOHOL

>  <SYNONYMS>  (5257) 


>  <SPECTRUM TYPE>  (5257) 
MS1

>  <INSTRUMENT TYPE>  (5257) 
EI-B

>  <INSTRUMENT>  (5257) 
HITACHI RMU-6E

>  <ION MODE>  (5257) 
P

>  <INCHIKEY>  (5257) 
MYWBBBSIAHHXJK-UHFFFAOYSA-N

>  <FORMULA>  (5257) 
C14H14O2

>  <EXACT MASS>  (5257) 
214.099379688

>  <MW>  (5257) 
214

>  <ID>  (5257) 
JP004078

>  <CONTRIBUTOR>  (5257) 
University of Tokyo Team, {Faculty of Engineering, University of Tokyo

>  <COMMENT>  (5257) 
SMILES=CC(O)c(c2)cc(cc2)Oc(c1)cccc1
InChI=InChI=1S/C14H14O2/c1-11(15)12-6-5-9-14(10-12)16-13-7-3-2-4-8-13/h2-11,15H,1H3
computed SMILES=OC(C=1C=CC=C(OC=2C=CC=CC2)C1)C
accession=JP004078
date=2016.01.19 (Created 2008.10.21, modified 2011.05.06)
author=YAMAMOTO M, DEP. CHEMISTRY, FAC. SCIENCE, NARA WOMEN'S UNIV.
license=CC BY-NC-SA
exact mass=214.09938
ionization energy=70 eV
ion type=[M]+*
computed spectral entropy=3.291613457918294
computed normalized entropy=0.7351721780845969
SPLASH=splash10-01ox-9420000000-3fad2214685973a233c8
submitter=submitter = University of Tokyo Team (Faculty of Engineering, University of Tokyo)
MoNA Rating=3.75

>  <NUM PEAKS>  (5257) 
88

>  <MASS SPECTRAL PEAKS>  (5257) 
37 1
38 5.1
39 31
40 5.5
41 4.2
43 98
44 2.6
45 1.6
50 16
51 55
52 6.8
53 0.32
55 4.1
62 2.7
63 11
64 0.57
65 71
66 12
67 1.1
74 0.35
75 5.5
76 9
77 66
78 1.5
89 2.7
90 1
90.5 2.5
91 1
92 2.5
93 71
94 23
95 0.38
98 2.7
98.5 1.3
99 9
99.5 1.5
102 2.4
103 4.3
104 2.3
105 0.38
106 1.5
107 1.2
115 10.5
116 0.15
119 1.1
120 1.2
121 6.8
122 0.09
127 1.5
128 4.3
129 1.3
139 0.33
140 1
141 11
142 3
143 0.17
149 1.3
151 1.9
152 8.1
153 3.5
154 5.1
157 1.3
159 1
165 0.14
167 1.4
168 2.3
169 5.2
170 0.47
171 88
172 12
173 1
181 0.58
182 1
185 2.5
186 3.6
187 0.19
195 2.7
196 2.1
197 6
198 0.22
199 54
200 8.3
201 0.9
202 0.08
213 2.4
214 99.99
215 16
216 1.6

$$$$

     RDKit          2D

 16 17  0  0  0  0  0  0  0  0999 V2000
   -5.5300    1.3050    0.0000 C   0  0  0  0  0  0  0  0  0  0  0  0
    4.8624    2.8137    0.0000 C   0  0  0  0  0  0  0  0  0  0  0  0
    4.8647    1.3137    0.0000 C   0  0  0  0  0  0  0  0  0  0  0  0
    3.5613    3.5617    0.0000 C   0  0  0  0  0  0  0  0  0  0  0  0
   -1.6369    3.5475    0.0000 C   0  0  0  0  0  0  0  0  0  0  0  0
   -2.9314    2.8054    0.0000 C   0  0  0  0  0  0  0  0  0  0  0  0
    3.5658    0.5617    0.0000 C   0  0  0  0  0  0  0  0  0  0  0  0
    2.2624    2.8097    0.0000 C   0  0  0  0  0  0  0  0  0  0  0  0
   -0.3379    2.7975    0.0000 C   0  0  0  0  0  0  0  0  0  0  0  0
   -1.6329    0.5545    0.0000 C   0  0  0  0  0  0  0  0  0  0  0  0
   -4.2311    0.5547    0.0000 C   0  0  0  0  0  0  0  0  0  0  0  0
   -2.9319    1.3045    0.0000 C   0  0  0  0  0  0  0  0  0  0  0  0
    2.2647    1.3097    0.0000 C   0  0  0  0  0  0  0  0  0  0  0  0
   -0.3334    1.3054    0.0000 C   0  0  0  0  0  0  0  0  0  0  0  0
   -4.2313   -0.9453    0.0000 Br  0  0  0  0  0  0  0  0  0  0  0  0
    0.9669    0.5575    0.0000 O   0  0  0  0  0  0  0  0  0  0  0  0
  3  2  2  0
  4  2  1  0
  6  5  2  0
  7  3  1  0
  8  4  2  0
  9  5  1  0
 11  1  1  0
 12  6  1  0
 12 10  2  0
 12 11  1  0
 13  7  2  0
 13  8  1  0
 14  9  2  0
 14 10  1  0
 15 11  1  0
 16 13  1  0
 16 14  1  0
M  END
>  <NAME>  (5258) 
ALPHA-(3-PHENOXYPHENYL)ETHYLBROMIDE

>  <SYNONYMS>  (5258) 


>  <SPECTRUM TYPE>  (5258) 
MS1

>  <INSTRUMENT TYPE>  (5258) 
EI-B

>  <INSTRUMENT>  (5258) 
HITACHI RMU-6E

>  <ION MODE>  (5258) 
P

>  <INCHIKEY>  (5258) 
NAFPHJPIASZFMX-UHFFFAOYSA-N

>  <FORMULA>  (5258) 
C14H13BrO

>  <EXACT MASS>  (5258) 
276.01497713599997

>  <MW>  (5258) 
276

>  <ID>  (5258) 
JP004077

>  <CONTRIBUTOR>  (5258) 
University of Tokyo Team, {Faculty of Engineering, University of Tokyo

>  <COMMENT>  (5258) 
SMILES=c(c2)ccc(c2)Oc(c1)cc(cc1)C(C)Br
InChI=InChI=1S/C14H13BrO/c1-11(15)12-6-5-9-14(10-12)16-13-7-3-2-4-8-13/h2-11H,1H3
computed SMILES=BrC(C=1C=CC=C(OC=2C=CC=CC2)C1)C
accession=JP004077
date=2016.01.19 (Created 2008.10.21, modified 2011.05.06)
author=YAMAMOTO M, DEP. CHEMISTRY, FAC. SCIENCE, NARA WOMEN'S UNIV.
license=CC BY-NC-SA
exact mass=276.01498
ionization energy=70 eV
ion type=[M]+*
computed spectral entropy=3.1691887917351402
computed normalized entropy=0.7459555939637604
SPLASH=splash10-0002-7900000000-73ad2ea37bfb092039d1
submitter=submitter = University of Tokyo Team (Faculty of Engineering, University of Tokyo)
MoNA Rating=3.75

>  <NUM PEAKS>  (5258) 
70

>  <MASS SPECTRAL PEAKS>  (5258) 
32 1.4
38 2.5
39 16
40 1.7
41 2.5
43 1.1
50 8
51 2.6
52 4.7
53 2.1
55 2.6
62 0.19
63 7.3
64 2.7
65 16
66 0.18
74 1.9
75 2.8
76 5.4
77 3.4
78 13.5
80 1.3
82 1.4
89 0.28
90 1
90.5 1.5
91 33
91.5 0.18
92 3
93 5.6
94 1.9
98 0.19
98.5 7.6
99 1.3
102 4.8
103 2.1
104 25
105 2.7
119 6
120 0.1
141 2.8
142 0.7
152 2.1
153 0.23
154 2
155 0.7
165 1.8
166 0.06
167 2.5
168 1.5
169 2.2
170 0.07
177 0.9
178 3.3
179 2.9
180 0.06
181 6.1
182 3.8
183 2.5
185 0.21
195 1.4
196 5.4
197 99.99
198 1.6
199 1.6
275 0.9
276 6
277 0.19
278 6.1
279 0.9

$$$$

     RDKit          2D

 16 17  0  0  0  0  0  0  0  0999 V2000
   -5.5300    1.3050    0.0000 C   0  0  0  0  0  0  0  0  0  0  0  0
    4.8624    2.8137    0.0000 C   0  0  0  0  0  0  0  0  0  0  0  0
    4.8647    1.3137    0.0000 C   0  0  0  0  0  0  0  0  0  0  0  0
    3.5613    3.5617    0.0000 C   0  0  0  0  0  0  0  0  0  0  0  0
   -1.6369    3.5475    0.0000 C   0  0  0  0  0  0  0  0  0  0  0  0
   -2.9314    2.8054    0.0000 C   0  0  0  0  0  0  0  0  0  0  0  0
    3.5658    0.5617    0.0000 C   0  0  0  0  0  0  0  0  0  0  0  0
    2.2624    2.8097    0.0000 C   0  0  0  0  0  0  0  0  0  0  0  0
   -0.3379    2.7975    0.0000 C   0  0  0  0  0  0  0  0  0  0  0  0
   -1.6329    0.5545    0.0000 C   0  0  0  0  0  0  0  0  0  0  0  0
   -4.2311    0.5547    0.0000 C   0  0  0  0  0  0  0  0  0  0  0  0
   -2.9319    1.3045    0.0000 C   0  0  0  0  0  0  0  0  0  0  0  0
    2.2647    1.3097    0.0000 C   0  0  0  0  0  0  0  0  0  0  0  0
   -0.3334    1.3054    0.0000 C   0  0  0  0  0  0  0  0  0  0  0  0
   -4.2313   -0.9453    0.0000 O   0  0  0  0  0  0  0  0  0  0  0  0
    0.9669    0.5575    0.0000 O   0  0  0  0  0  0  0  0  0  0  0  0
  3  2  2  0
  4  2  1  0
  6  5  2  0
  7  3  1  0
  8  4  2  0
  9  5  1  0
 11  1  1  0
 12  6  1  0
 12 10  2  0
 12 11  1  0
 13  7  2  0
 13  8  1  0
 14  9  2  0
 14 10  1  0
 15 11  2  0
 16 13  1  0
 16 14  1  0
M  END
>  <NAME>  (5259) 
3-ACETYLDIPHENYLETHER

>  <SYNONYMS>  (5259) 


>  <SPECTRUM TYPE>  (5259) 
MS1

>  <INSTRUMENT TYPE>  (5259) 
EI-B

>  <INSTRUMENT>  (5259) 
HITACHI RMU-6E

>  <ION MODE>  (5259) 
P

>  <INCHIKEY>  (5259) 
FZCDBGYCFVKRDV-UHFFFAOYSA-N

>  <FORMULA>  (5259) 
C14H12O2

>  <EXACT MASS>  (5259) 
212.083729624

>  <MW>  (5259) 
212

>  <ID>  (5259) 
JP004076

>  <CONTRIBUTOR>  (5259) 
University of Tokyo Team, {Faculty of Engineering, University of Tokyo

>  <COMMENT>  (5259) 
SMILES=CC(=O)c(c2)cc(cc2)Oc(c1)cccc1
InChI=InChI=1S/C14H12O2/c1-11(15)12-6-5-9-14(10-12)16-13-7-3-2-4-8-13/h2-10H,1H3
computed SMILES=O=C(C=1C=CC=C(OC=2C=CC=CC2)C1)C
accession=JP004076
date=2016.01.19 (Created 2008.10.21, modified 2011.05.06)
author=YAMAMOTO M, DEP. CHEMISTRY, FAC. SCIENCE, NARA WOMEN'S UNIV.
license=CC BY-NC-SA
exact mass=212.08373
ionization energy=70 eV
ion type=[M]+*
computed spectral entropy=3.0562396572372577
computed normalized entropy=0.7464539466064287
SPLASH=splash10-0gvp-9620000000-b840992f12bf863ff3e8
submitter=submitter = University of Tokyo Team (Faculty of Engineering, University of Tokyo)
MoNA Rating=3.75

>  <NUM PEAKS>  (5259) 
60

>  <MASS SPECTRAL PEAKS>  (5259) 
37 1.4
38 6.7
39 24
40 3.3
41 1.3
42 1
43 75
44 0.19
50 21
51 46
52 3.4
53 0.19
55 1.4
57.5 4.3
62 3.6
63 1.5
64 10
65 10
66 2.8
69.5 0.19
70 1.8
70.5 3.3
74 5.2
75 0.78
76 14
77 41
84 1.9
89 0.42
90 1.1
91 4.8
92 5.5
93 0.16
94 8
98 6.6
98.5 12
99 0.19
102 1.1
106 1.5
114 1.2
115 2.8
116 3.1
118 1.5
139 6.8
140 0.21
141 52
142 7
143 5
168 0.45
169 16
170 2.6
183 1.1
186 0.15
196 1.9
197 99.99
198 15
199 0.17
211 0.9
212 71
213 11.5
214 1.2

$$$$

     RDKit          2D

 23 25  0  0  0  0  0  0  0  0999 V2000
   -0.5568   -3.1525    0.0000 C   0  0  0  0  0  0  0  0  0  0  0  0
   -5.2500   -1.2990    0.0000 C   0  0  0  0  0  0  0  0  0  0  0  0
    1.2008    5.0616    0.0000 C   0  0  0  0  0  0  0  0  0  0  0  0
    0.1047    6.0890    0.0000 C   0  0  0  0  0  0  0  0  0  0  0  0
    0.8809    3.5961    0.0000 C   0  0  0  0  0  0  0  0  0  0  0  0
   -1.3351    5.6356    0.0000 C   0  0  0  0  0  0  0  0  0  0  0  0
    2.8800   -0.7500    0.0000 C   0  0  0  0  0  0  0  0  0  0  0  0
    1.5800   -1.5000    0.0000 C   0  0  0  0  0  0  0  0  0  0  0  0
    1.5800    1.5000    0.0000 C   0  0  0  0  0  0  0  0  0  0  0  0
    2.8800    0.7500    0.0000 C   0  0  0  0  0  0  0  0  0  0  0  0
   -0.5568    3.1525    0.0000 C   0  0  0  0  0  0  0  0  0  0  0  0
    0.2800    0.7500    0.0000 C   0  0  0  0  0  0  0  0  0  0  0  0
   -1.6550    4.1701    0.0000 C   0  0  0  0  0  0  0  0  0  0  0  0
    0.2800   -0.7500    0.0000 C   0  0  0  0  0  0  0  0  0  0  0  0
   -0.8900    1.6900    0.0000 C   0  0  0  0  0  0  0  0  0  0  0  0
   -3.0000    0.0000    0.0000 C   0  0  0  0  0  0  0  0  0  0  0  0
   -2.3500   -1.3500    0.0000 C   0  0  0  0  0  0  0  0  0  0  0  0
    4.1789    1.5002    0.0000 Cl  0  0  0  0  0  0  0  0  0  0  0  0
   -3.0861    3.7207    0.0000 Cl  0  0  0  0  0  0  0  0  0  0  0  0
   -2.3500    1.3500    0.0000 N   0  0  0  0  0  0  0  0  0  0  0  0
   -0.8900   -1.6900    0.0000 N   0  0  0  0  0  0  0  0  0  0  0  0
   -3.2879   -2.5207    0.0000 O   0  0  0  0  0  0  0  0  0  0  0  0
   -4.5000    0.0000    0.0000 O   0  0  0  0  0  0  0  0  0  0  0  0
  4  3  2  0
  5  3  1  0
  6  4  1  0
  8  7  2  0
 10  7  1  0
 10  9  2  0
 11  5  2  0
 12  9  1  0
 13  6  2  0
 13 11  1  0
 14  8  1  0
 14 12  2  0
 15 11  1  0
 15 12  1  0
 17 16  1  0
 18 10  1  0
 19 13  1  0
 20 15  2  0
 20 16  1  0
 21  1  1  0
 21 14  1  0
 21 17  1  0
 22 17  2  0
 23  2  1  0
 23 16  1  0
M  END
>  <NAME>  (5260) 
ORTHO-CHLORO-3-METHOXYDIAZEPAM

>  <SYNONYMS>  (5260) 


>  <SPECTRUM TYPE>  (5260) 
MS1

>  <INSTRUMENT TYPE>  (5260) 
EI-B

>  <INSTRUMENT>  (5260) 
HITACHI RMU-6E

>  <ION MODE>  (5260) 
P

>  <INCHIKEY>  (5260) 
NUPVEWMVMAZQIC-UHFFFAOYSA-N

>  <FORMULA>  (5260) 
C17H14Cl2N2O2

>  <EXACT MASS>  (5260) 
348.043233048

>  <MW>  (5260) 
348

>  <ID>  (5260) 
JP004075

>  <CONTRIBUTOR>  (5260) 
University of Tokyo Team, {Faculty of Engineering, University of Tokyo

>  <COMMENT>  (5260) 
SMILES=COC(N=1)C(=O)N(C)c(c3)c(cc(Cl)c3)C1c(c2)c(Cl)ccc2
InChI=InChI=1S/C17H14Cl2N2O2/c1-21-14-8-7-10(18)9-12(14)15(20-16(23-2)17(21)22)11-5-3-4-6-13(11)19/h3-9,16H,1-2H3
computed SMILES=O=C1N(C=2C=CC(Cl)=CC2C(=NC1OC)C=3C=CC=CC3Cl)C
accession=JP004075
date=2016.01.19 (Created 2008.10.21, modified 2011.05.06)
author=YAMAMOTO M, DEP. CHEMISTRY, FAC. SCIENCE, NARA WOMEN'S UNIV.
license=CC BY-NC-SA
exact mass=348.04323
ionization energy=70 eV
ion type=[M]+*
computed spectral entropy=4.350271248166296
computed normalized entropy=0.846082440120865
SPLASH=splash10-0a4i-3879000000-0ff801e73ea82b02d6da
submitter=submitter = University of Tokyo Team (Faculty of Engineering, University of Tokyo)
MoNA Rating=3.75

>  <NUM PEAKS>  (5260) 
171

>  <MASS SPECTRAL PEAKS>  (5260) 
39 3.6
42 3.1
43 1.4
45 1.5
50 3.4
51 6
58 1.9
62 0.26
63 7.1
64 1.6
65 1.4
70 0.41
73 2.6
74 3.1
75 14.9
75.5 0.2
76 6.6
77 5.1
81 5.3
82 0.66
83 3.1
86 1.7
87 2.9
88 0.32
89 8.4
90 3.1
93 2.8
95 1.29
96 6.1
96.5 8.3
97 2
98 0.15
99 4.8
100 4.9
101 3.2
102 0.63
102.5 1.8
103 4.4
104 1.8
105 0.15
106.5 2.2
110 2
111 7.6
112 0.25
113 4.6
113.5 7.8
114 10.6
114.5 0.37
115 4.2
116 2.3
117 11.5
117.5 0.28
118 1.7
123 2
124 4.2
125 1.38
126 3.8
127 5.5
127.5 2.1
128 0.16
131 1.4
135 6.9
136 3.8
137 0.22
138 5.4
139 14.7
140 5.4
141 0.51
142 2
149 3.5
150 7.4
151 0.86
152 14.2
153 3.4
154 2
156 0.18
162 1.9
163 7.8
164 7.1
165 1.52
166 5.2
167 2
168 7.9
170 0.22
174 3.2
175 3.2
176 4.4
177 1.03
178 5.9
179 2.2
180 2
186 0.28
188 1.6
190 2.8
191 4.3
192 0.59
193 10
194 2.2
195 1.9
196 0.27
198 1.9
199 5.9
200 1.8
201 0.3
206 4.2
209 20.2
210 4.2
211 0.99
212 3.7
213 11.2
214 2.9
215 0.38
221 13.2
222 2.6
223 2.9
225 0.14
226 2.6
227 10.4
228 23.7
229 0.7
230 7.7
231 1.4
235 3.2
237 1.8
239 1.5
240 1.5
241 2
247 0.34
248 1.9
249 3.6
250 1.5
254 0.18
255 2
256 13.5
257 3
258 0.43
262 16
263 3.6
264 10.5
265 0.22
266 2
269 7.4
270 2.5
271 0.29
276 3.8
278 2.7
283 2.3
285 0.4
287 1.4
289 3.1
290 1.6
291 0.44
292 1.4
293 1.9
305 99.99
306 1.69
307 65.3
308 10.8
309 11.5
310 0.18
313 4.1
315 1.4
319 3.6
320 0.44
321 2.8
322 2.7
348 35
349 0.76
350 23.3
351 4.5
352 4.1

$$$$

     RDKit          2D

 19 21  0  0  0  0  0  0  0  0999 V2000
    0.0104   -5.2518    0.0000 C   0  0  0  0  0  0  0  0  0  0  0  0
    1.3074   -6.0101    0.0000 C   0  0  0  0  0  0  0  0  0  0  0  0
   -0.0032   -3.7519    0.0000 C   0  0  0  0  0  0  0  0  0  0  0  0
    2.6105   -5.2482    0.0000 C   0  0  0  0  0  0  0  0  0  0  0  0
   -2.6000    0.7500    0.0000 C   0  0  0  0  0  0  0  0  0  0  0  0
   -1.3000    1.5000    0.0000 C   0  0  0  0  0  0  0  0  0  0  0  0
   -1.3000   -1.5000    0.0000 C   0  0  0  0  0  0  0  0  0  0  0  0
   -2.6000   -0.7500    0.0000 C   0  0  0  0  0  0  0  0  0  0  0  0
    1.3000   -3.0000    0.0000 C   0  0  0  0  0  0  0  0  0  0  0  0
    0.0000   -0.7500    0.0000 C   0  0  0  0  0  0  0  0  0  0  0  0
    2.5969   -3.7482    0.0000 C   0  0  0  0  0  0  0  0  0  0  0  0
    0.0000    0.7500    0.0000 C   0  0  0  0  0  0  0  0  0  0  0  0
    1.3000   -1.5000    0.0000 C   0  0  0  0  0  0  0  0  0  0  0  0
    2.6000    0.7500    0.0000 C   0  0  0  0  0  0  0  0  0  0  0  0
   -3.8989   -1.5002    0.0000 Cl  0  0  0  0  0  0  0  0  0  0  0  0
    3.8924   -2.9921    0.0000 Cl  0  0  0  0  0  0  0  0  0  0  0  0
    1.3000    1.5000    0.0000 N   0  0  0  0  0  0  0  0  0  0  0  0
    2.6000   -0.7500    0.0000 N   0  0  0  0  0  0  0  0  0  0  0  0
    3.8989    1.5002    0.0000 O   0  0  0  0  0  0  0  0  0  0  0  0
  2  1  2  0
  3  1  1  0
  4  2  1  0
  6  5  2  0
  8  5  1  0
  8  7  2  0
  9  3  2  0
 10  7  1  0
 11  4  2  0
 11  9  1  0
 12  6  1  0
 12 10  2  0
 13  9  1  0
 13 10  1  0
 15  8  1  0
 16 11  1  0
 17 12  1  0
 17 14  2  0
 18 13  2  0
 18 14  1  0
 19 14  1  0
M  END
>  <NAME>  (5261) 
6-CHLORO-4-(ORTHO-CHLOROPHENYL)-2(1H)-QUINAZOLINONE

>  <SYNONYMS>  (5261) 


>  <SPECTRUM TYPE>  (5261) 
MS1

>  <INSTRUMENT TYPE>  (5261) 
EI-B

>  <INSTRUMENT>  (5261) 
HITACHI RMU-6E

>  <ION MODE>  (5261) 
P

>  <INCHIKEY>  (5261) 
FIKXZQLWVRAQOA-UHFFFAOYSA-N

>  <FORMULA>  (5261) 
C14H8Cl2N2O

>  <EXACT MASS>  (5261) 
290.00136823599996

>  <MW>  (5261) 
290

>  <ID>  (5261) 
JP004074

>  <CONTRIBUTOR>  (5261) 
University of Tokyo Team, {Faculty of Engineering, University of Tokyo

>  <COMMENT>  (5261) 
SMILES=Clc(c3)cc(c(c3)2)C(=NC(=O)N2)c(c1)c(Cl)ccc1
InChI=InChI=1S/C14H8Cl2N2O/c15-8-5-6-12-10(7-8)13(18-14(19)17-12)9-3-1-2-4-11(9)16/h1-7H,(H,17,18,19)
computed SMILES=ClC=1C=CC2=NC(O)=NC(C=3C=CC=CC3Cl)=C2C1
accession=JP004074
date=2016.01.19 (Created 2008.10.21, modified 2011.05.06)
author=YAMAMOTO M, DEP. CHEMISTRY, FAC. SCIENCE, NARA WOMEN'S UNIV.
license=CC BY-NC-SA
exact mass=290.00137
ionization energy=70 eV
ion type=[M]+*
computed spectral entropy=4.143023365719915
computed normalized entropy=0.8359903034480056
SPLASH=splash10-052f-4490000000-e3b222d74488f17f061d
submitter=submitter = University of Tokyo Team (Faculty of Engineering, University of Tokyo)
MoNA Rating=3.75

>  <NUM PEAKS>  (5261) 
142

>  <MASS SPECTRAL PEAKS>  (5261) 
32 2.5
36 5.1
37 2.1
38 5.1
39 9.3
41 5.2
43 4.2
44 0.18
49 2.6
50 15.6
51 15.9
52 0.5
55 3.7
56 1.7
57 4.7
61 0.4
62 10.7
63 18.6
64 6.7
65 0.36
67 1.6
68 1.8
68.5 1.8
69 0.32
69.5 1.4
70 1.7
71 2.5
72 0.15
73 7
74 12.3
74.5 1.6
75 3.9
76 10.7
77 8
78 1.8
81 0.2
81.5 3.2
82 6
82.5 10
83 0.27
84 2
85 4.7
86 3.8
86.5 0.16
87 5.9
87.5 1.5
88 8
88.5 0.2
89 5.4
90 5
91 2.3
93 0.24
95 3.6
95.5 7.2
96 9.6
96.5 0.32
97 2.9
98 5
99 6.5
99.5 0.77
100 11.9
100.5 3.7
101 4.7
102 2.27
103 2.7
105 1.6
106 1.7
109 0.24
110 5.2
111 10.4
112 5.4
112.5 0.13
113 15
114 7.9
115 3.7
116 0.23
117 1.3
118 1.8
119 1.5
123 0.24
124 14.6
125 5.3
126 5.9
127 2.12
128 7.8
129 1.9
137 3.2
138 1.92
139 3.8
140 6.5
141 3.9
144 0.29
149 4.4
150 5.9
151 10.3
152 0.25
153 3.4
163 4.2
164 14.1
165 0.78
175 3
176 3.7
177 11.9
178 0.43
179 8.1
181 3
186 3.2
191 0.9
192 18.1
193 5
200 4.3
213 0.47
220 9.9
221 2.3
225 2.2
226 0.65
227 5.2
228 2.9
237 3.9
248 5.44
249 8.5
250 35.8
251 5.3
252 6.4
253 1.4
254 6.4
255 91.3
256 1.71
257 30.7
258 5.2
262 17.7
263 0.31
264 11.5
265 1.9
266 2.2
289 5.31
290 99.99
291 48.6
292 63.5
293 1.58
294 11.5
295 2

$$$$

     RDKit          2D

 20 22  0  0  0  0  0  0  0  0999 V2000
   -0.5568   -3.1525    0.0000 C   0  0  0  0  0  0  0  0  0  0  0  0
    0.1096    6.0776    0.0000 C   0  0  0  0  0  0  0  0  0  0  0  0
   -1.3245    5.6351    0.0000 C   0  0  0  0  0  0  0  0  0  0  0  0
    1.2106    5.0575    0.0000 C   0  0  0  0  0  0  0  0  0  0  0  0
   -1.6577    4.1726    0.0000 C   0  0  0  0  0  0  0  0  0  0  0  0
    0.8773    3.5950    0.0000 C   0  0  0  0  0  0  0  0  0  0  0  0
    2.8800   -0.7500    0.0000 C   0  0  0  0  0  0  0  0  0  0  0  0
    1.5800   -1.5000    0.0000 C   0  0  0  0  0  0  0  0  0  0  0  0
    1.5800    1.5000    0.0000 C   0  0  0  0  0  0  0  0  0  0  0  0
   -3.0000    0.0000    0.0000 C   0  0  0  0  0  0  0  0  0  0  0  0
   -0.5568    3.1525    0.0000 C   0  0  0  0  0  0  0  0  0  0  0  0
    2.8800    0.7500    0.0000 C   0  0  0  0  0  0  0  0  0  0  0  0
    0.2800    0.7500    0.0000 C   0  0  0  0  0  0  0  0  0  0  0  0
    0.2800   -0.7500    0.0000 C   0  0  0  0  0  0  0  0  0  0  0  0
   -2.3500   -1.3500    0.0000 C   0  0  0  0  0  0  0  0  0  0  0  0
   -0.8900    1.6900    0.0000 C   0  0  0  0  0  0  0  0  0  0  0  0
    4.1789    1.5002    0.0000 Cl  0  0  0  0  0  0  0  0  0  0  0  0
   -2.3500    1.3500    0.0000 N   0  0  0  0  0  0  0  0  0  0  0  0
   -0.8900   -1.6900    0.0000 N   0  0  0  0  0  0  0  0  0  0  0  0
   -3.2879   -2.5207    0.0000 O   0  0  0  0  0  0  0  0  0  0  0  0
  3  2  2  0
  4  2  1  0
  5  3  1  0
  6  4  2  0
  8  7  2  0
 11  5  2  0
 11  6  1  0
 12  7  1  0
 12  9  2  0
 13  9  1  0
 14  8  1  0
 14 13  2  0
 15 10  1  0
 16 11  1  0
 16 13  1  0
 17 12  1  0
 18 10  1  0
 18 16  2  0
 19  1  1  0
 19 14  1  0
 19 15  1  0
 20 15  2  0
M  END
>  <NAME>  (5262) 
DIAZEPAM

>  <SYNONYMS>  (5262) 


>  <SPECTRUM TYPE>  (5262) 
MS1

>  <INSTRUMENT TYPE>  (5262) 
EI-B

>  <INSTRUMENT>  (5262) 
HITACHI RMU-6E

>  <ION MODE>  (5262) 
P

>  <INCHIKEY>  (5262) 
AAOVKJBEBIDNHE-UHFFFAOYSA-N

>  <FORMULA>  (5262) 
C16H13ClN2O

>  <EXACT MASS>  (5262) 
284.071640716

>  <MW>  (5262) 
284

>  <ID>  (5262) 
JP004073

>  <CONTRIBUTOR>  (5262) 
University of Tokyo Team, {Faculty of Engineering, University of Tokyo

>  <COMMENT>  (5262) 
SMILES=Clc(c2)cc(C=1c(c3)cccc3)c(c2)N(C)C(=O)CN1
InChI=InChI=1S/C16H13ClN2O/c1-19-14-8-7-12(17)9-13(14)16(18-10-15(19)20)11-5-3-2-4-6-11/h2-9H,10H2,1H3
computed SMILES=O=C1N(C=2C=CC(Cl)=CC2C(=NC1)C=3C=CC=CC3)C
accession=JP004073
date=2016.01.19 (Created 2008.10.21, modified 2011.05.06)
author=YAMAMOTO M, DEP. CHEMISTRY, FAC. SCIENCE, NARA WOMEN'S UNIV.
license=CC BY-NC-SA
exact mass=284.07164
ionization energy=70 eV
ion type=[M]+*
computed spectral entropy=3.7980166675657077
computed normalized entropy=0.7802752515105934
SPLASH=splash10-0a59-1290000000-da27f63bddb3263e0063
submitter=submitter = University of Tokyo Team (Faculty of Engineering, University of Tokyo)
MoNA Rating=3.75

>  <NUM PEAKS>  (5262) 
130

>  <MASS SPECTRAL PEAKS>  (5262) 
31 1.6
39 4.2
41 1.3
42 3.4
50 3.4
51 8.9
52 2
62 0.23
63 7.5
64 1.5
65 4.3
73 0.18
74 2.7
75 7.5
76 6.5
77 1.48
81 1.9
81.5 3.1
82 3.5
82.5 0.29
83.5 2.7
86 1.3
87 2.4
88 0.25
88.5 1.6
89 10.4
90 3.8
91 0.75
95.5 4.8
96 2.1
96.5 4.7
97 0.18
98 1.4
99 2.7
101 1.9
102 0.43
102.5 1.9
103 3.4
104 1.6
109 0.26
109.5 3.4
110 11.7
110.5 5.3
111 0.55
112 1.8
113 2.9
114 3.4
115 0.24
116 4.8
117 8.2
118 2.5
120 0.15
123 1.6
124 3.6
125 7.7
126 0.42
127 6.7
128 4.1
129 1.4
136 0.18
137 2.2
138 2.9
139 2.5
140 0.2
142 1.5
149 1.5
150 5.3
151 0.78
152 9.2
153 2.2
163 7
164 0.57
165 14.3
166 3.5
167 1.3
176 0.18
177 9.1
178 5.6
179 3.9
180 0.27
190 3
191 3
192 4.7
193 0.75
194 2.5
199 2.2
203 1.5
204 0.17
205 6.6
206 2.8
213 3.3
214 0.17
215 1.7
219 4.6
220 2.5
221 2.79
222 7.6
223 3
227 2.3
228 0.83
229 2.1
230 3.1
233 1.4
238 0.34
239 6.6
240 3.3
241 9.1
242 0.33
243 3.3
244 1.4
248 5.2
249 0.66
250 1.5
253 1.4
255 36
256 99.99
257 42.1
258 38
259 11
260 0.15
268 3.6
269 1.5
270 1.7
271 1.9
282 2.3
283 88.7
284 80
285 4.3
286 27.7
287 5.2

$$$$

     RDKit          2D

 20 22  0  0  0  0  0  0  0  0999 V2000
    0.1096    6.0776    0.0000 C   0  0  0  0  0  0  0  0  0  0  0  0
   -1.3245    5.6351    0.0000 C   0  0  0  0  0  0  0  0  0  0  0  0
    1.2106    5.0575    0.0000 C   0  0  0  0  0  0  0  0  0  0  0  0
   -1.6577    4.1726    0.0000 C   0  0  0  0  0  0  0  0  0  0  0  0
    0.8773    3.5950    0.0000 C   0  0  0  0  0  0  0  0  0  0  0  0
    2.8800   -0.7500    0.0000 C   0  0  0  0  0  0  0  0  0  0  0  0
    1.5800   -1.5000    0.0000 C   0  0  0  0  0  0  0  0  0  0  0  0
    1.5800    1.5000    0.0000 C   0  0  0  0  0  0  0  0  0  0  0  0
   -0.5568    3.1525    0.0000 C   0  0  0  0  0  0  0  0  0  0  0  0
    2.8800    0.7500    0.0000 C   0  0  0  0  0  0  0  0  0  0  0  0
    0.2800    0.7500    0.0000 C   0  0  0  0  0  0  0  0  0  0  0  0
    0.2800   -0.7500    0.0000 C   0  0  0  0  0  0  0  0  0  0  0  0
   -0.8900    1.6900    0.0000 C   0  0  0  0  0  0  0  0  0  0  0  0
   -2.3500   -1.3500    0.0000 C   0  0  0  0  0  0  0  0  0  0  0  0
   -3.0000    0.0000    0.0000 C   0  0  0  0  0  0  0  0  0  0  0  0
    4.1789    1.5002    0.0000 Cl  0  0  0  0  0  0  0  0  0  0  0  0
   -0.8900   -1.6900    0.0000 N   0  0  0  0  0  0  0  0  0  0  0  0
   -2.3500    1.3500    0.0000 N   0  0  0  0  0  0  0  0  0  0  0  0
   -3.2879   -2.5207    0.0000 O   0  0  0  0  0  0  0  0  0  0  0  0
   -4.5000    0.0000    0.0000 O   0  0  0  0  0  0  0  0  0  0  0  0
  2  1  2  0
  3  1  1  0
  4  2  1  0
  5  3  2  0
  7  6  2  0
  9  4  2  0
  9  5  1  0
 10  6  1  0
 10  8  2  0
 11  8  1  0
 12  7  1  0
 12 11  2  0
 13  9  1  0
 13 11  1  0
 15 14  1  0
 16 10  1  0
 17 12  1  0
 17 14  2  0
 18 13  2  0
 18 15  1  0
 19 14  1  0
 20 15  1  0
M  END
>  <NAME>  (5263) 
OXAZEPAM

>  <SYNONYMS>  (5263) 


>  <SPECTRUM TYPE>  (5263) 
MS1

>  <INSTRUMENT TYPE>  (5263) 
EI-B

>  <INSTRUMENT>  (5263) 
HITACHI RMU-6E

>  <ION MODE>  (5263) 
P

>  <INCHIKEY>  (5263) 
ADIMAYPTOBDMTL-UHFFFAOYSA-N

>  <FORMULA>  (5263) 
C15H11ClN2O2

>  <EXACT MASS>  (5263) 
286.050905272

>  <MW>  (5263) 
286

>  <ID>  (5263) 
JP004072

>  <CONTRIBUTOR>  (5263) 
University of Tokyo Team, {Faculty of Engineering, University of Tokyo

>  <COMMENT>  (5263) 
SMILES=Clc(c3)cc(c(c3)2)C(=NC(O)C(=O)N2)c(c1)cccc1
InChI=InChI=1S/C15H11ClN2O2/c16-10-6-7-12-11(8-10)13(9-4-2-1-3-5-9)18-15(20)14(19)17-12/h1-8,15,20H,(H,17,19)
computed SMILES=ClC=1C=CC=2N=C(O)C(O)N=C(C=3C=CC=CC3)C2C1
accession=JP004072
date=2016.01.19 (Created 2008.10.21, modified 2011.05.06)
author=YAMAMOTO M, DEP. CHEMISTRY, FAC. SCIENCE, NARA WOMEN'S UNIV.
license=CC BY-NC-SA
exact mass=286.05091
ionization energy=70 eV
ion type=[M]+*
computed spectral entropy=4.240585912465062
computed normalized entropy=0.814869420324879
SPLASH=splash10-0pxr-6490000000-98a9035e85eeea7c02e5
submitter=submitter = University of Tokyo Team (Faculty of Engineering, University of Tokyo)
MoNA Rating=3.75

>  <NUM PEAKS>  (5263) 
182

>  <MASS SPECTRAL PEAKS>  (5263) 
30 1.4
31 18.5
36 4
38 2.1
39 10.4
40 2
41 8.8
42 0.68
43 15.6
44 2.2
45 12.7
49 0.22
50 14.8
51 46.5
52 7.6
55 0.25
56 1.5
57 3
59 8.4
61 0.3
62 5.6
63 12.7
64 3.4
65 0.4
66 2.2
69 1.4
69.5 1.6
70 0.19
71 2.7
72 2.4
73 2.7
74 1.03
74.5 1.3
75 31.2
75.5 7.1
76 1.99
76.5 1.7
77 99.99
78 12.9
79 0.33
81 1.5
81.5 1.5
82.5 1.6
83 0.17
83.5 6.5
84 2.2
86 2.5
87 0.39
88 5.5
88.5 9.4
89 12.3
89.5 0.4
90 5.5
91 2.9
92 2.4
93 0.27
94 1.5
96 1.5
96.5 2.1
97 0.37
97.5 3.4
98 3.4
99 6.9
100 1.21
101 5.3
101.5 2.1
102 16.2
102.5 1.05
103 5.4
104 29
105 6.2
106 0.19
106.5 1.7
107 2
109 1.3
110 0.88
111 7.6
111.5 1.9
112 3.9
113 0.24
114 1.9
114.5 3.2
115 2.1
116 0.15
117 1.8
118 2.2
119.5 2.3
120 0.4
121 1.8
123 1.9
124 3.5
125 0.35
126 6.3
127 5.3
128 2.2
129 0.25
130 1.3
134 2
135 1.3
136 0.6
137 3.7
138 3.9
139 3.3
140 0.24
141 2.4
149 6.5
150 10.5
151 2.02
152 9.1
153 4.3
154 1.7
155 0.14
162 1.3
163 6.6
164 2.9
165 0.32
166 3.4
167 2.4
168 1
174 0.11
175 3.4
176 11.4
177 21
178 11.8
179 9.4
180 2.4
181 4.9
182 0.11
183 1.1
185 1
186 2
187 0.11
192 2
193 2.5
194 6.5
195 0.21
199 1.5
202 3.1
203 8.3
204 0.96
205 62.2
206 11.6
207 3.8
208 0.11
211 1.5
212 1.8
213 4.4
214 0.76
215 2.7
216 3.4
221 1.5
223 0.16
228 1.8
229 16.4
230 4.8
231 0.57
232 1.7
233 53
234 9.7
235 0.14
238 1.8
239 54
240 26.9
241 3.72
242 15.6
243 8
244 3.2
255 0.23
256 1.6
257 86
258 16.2
259 2.79
260 5.2
267 47.5
268 67.4
269 2.78
270 24.1
271 4.6
285 4.8
286 1.3
287 4.5
288 4.5

$$$$

     RDKit          2D

 17 18  0  0  0  0  0  0  0  0999 V2000
    1.2990   -3.0002    0.0000 C   0  0  0  0  0  0  0  0  0  0  0  0
   -2.5987   -0.7492    0.0000 C   0  0  0  0  0  0  0  0  0  0  0  0
   -1.2993   -1.5002    0.0000 C   0  0  0  0  0  0  0  0  0  0  0  0
   -2.5989    0.7517    0.0000 C   0  0  0  0  0  0  0  0  0  0  0  0
   -0.0001   -0.7504    0.0000 C   0  0  0  0  0  0  0  0  0  0  0  0
   -1.2998    1.5015    0.0000 C   0  0  0  0  0  0  0  0  0  0  0  0
    5.1977   -0.7500    0.0000 C   0  0  0  0  0  0  0  0  0  0  0  0
    3.8977   -1.5000    0.0000 C   0  0  0  0  0  0  0  0  0  0  0  0
    3.8977    1.5000    0.0000 C   0  0  0  0  0  0  0  0  0  0  0  0
   -0.0004    0.7504    0.0000 C   0  0  0  0  0  0  0  0  0  0  0  0
    5.1977    0.7500    0.0000 C   0  0  0  0  0  0  0  0  0  0  0  0
    2.5977    0.7500    0.0000 C   0  0  0  0  0  0  0  0  0  0  0  0
    2.5977   -0.7500    0.0000 C   0  0  0  0  0  0  0  0  0  0  0  0
    1.2988    1.5002    0.0000 C   0  0  0  0  0  0  0  0  0  0  0  0
    6.4966    1.5002    0.0000 Cl  0  0  0  0  0  0  0  0  0  0  0  0
    1.2988   -1.5002    0.0000 N   0  0  0  0  0  0  0  0  0  0  0  0
    1.2990    3.0002    0.0000 O   0  0  0  0  0  0  0  0  0  0  0  0
  3  2  2  0
  4  2  1  0
  5  3  1  0
  6  4  2  0
  8  7  2  0
 10  5  2  0
 10  6  1  0
 11  7  1  0
 11  9  2  0
 12  9  1  0
 13  8  1  0
 13 12  2  0
 14 10  1  0
 14 12  1  0
 15 11  1  0
 16  1  1  0
 16 13  1  0
 17 14  2  0
M  END
>  <NAME>  (5264) 
5-CHLORO-2-METHYLAMINOBENZOPHENONE

>  <SYNONYMS>  (5264) 


>  <SPECTRUM TYPE>  (5264) 
MS1

>  <INSTRUMENT TYPE>  (5264) 
EI-B

>  <INSTRUMENT>  (5264) 
HITACHI RMU-6E

>  <ION MODE>  (5264) 
P

>  <INCHIKEY>  (5264) 
WPNMLCMTDCANOZ-UHFFFAOYSA-N

>  <FORMULA>  (5264) 
C14H12ClNO

>  <EXACT MASS>  (5264) 
245.060741684

>  <MW>  (5264) 
245

>  <ID>  (5264) 
JP004071

>  <CONTRIBUTOR>  (5264) 
University of Tokyo Team, {Faculty of Engineering, University of Tokyo

>  <COMMENT>  (5264) 
SMILES=CNc(c2)c(cc(Cl)c2)C(=O)c(c1)cccc1
InChI=InChI=1S/C14H12ClNO/c1-16-13-8-7-11(15)9-12(13)14(17)10-5-3-2-4-6-10/h2-9,16H,1H3
computed SMILES=O=C(C=1C=CC=CC1)C2=CC(Cl)=CC=C2NC
accession=JP004071
date=2016.01.19 (Created 2008.10.21, modified 2011.05.06)
author=YAMAMOTO M, DEP. CHEMISTRY, FAC. SCIENCE, NARA WOMEN'S UNIV.
license=CC BY-NC-SA
exact mass=245.06074
ionization energy=70 eV
ion type=[M]+*
computed spectral entropy=3.4769171943264796
computed normalized entropy=0.7670912022071565
SPLASH=splash10-002e-5790000000-1b4cf5add6d5cb7d8991
submitter=submitter = University of Tokyo Team (Faculty of Engineering, University of Tokyo)
MoNA Rating=3.75

>  <NUM PEAKS>  (5264) 
93

>  <MASS SPECTRAL PEAKS>  (5264) 
30 3.8
39 2.6
50 4.9
51 17
52 3.1
62 2.5
63 7.8
64 0.17
65 1.7
73 1.5
74 2.9
75 1.25
76 7.8
77 72.9
78 7.6
79 0.16
87 1.4
89 2.9
90 3.9
90.5 0.56
91 11.4
92 1.4
98 2.6
99 0.22
101 1.5
102 2.7
103 1.1
104 0.58
105 34.4
105.5 1.6
106 2.9
111 1.05
112 5.5
113 5.5
114 2.7
115 0.2
122 0.9
122.5 2.4
123 1.2
124 0.12
125 6.9
126 2.5
127 2.5
128 0.1
132 1.8
133 12.3
134 1.8
138 0.53
139 5.9
140 9.3
141 2.6
142 0.24
150 5.3
151 3.8
152 7.5
153 0.31
154 1.7
164 1.7
165 7
166 0.84
167 5.5
168 22.8
169 3
170 0.62
180 3.8
181 4.8
182 1.6
191 0.12
192 2.9
193 35.1
194 8.7
195 0.37
199 1.1
201 2.1
202 1.5
208 0.21
209 7.8
210 4.6
211 2.2
214 0.29
215 1.6
216 3.1
227 3.2
228 4.32
229 11.4
230 18.1
231 4.2
232 0.15
244 77.8
245 99.99
246 39.8
247 3.35
248 5.2

$$$$

     RDKit          2D

 15 16  0  0  0  0  0  0  0  0999 V2000
   -2.5200    0.5000    0.0000 C   0  0  0  0  0  0  0  0  0  0  0  0
   -2.5300   -1.0000    0.0000 C   0  0  0  0  0  0  0  0  0  0  0  0
    3.4366    2.6719    0.0000 C   0  0  0  0  0  0  0  0  0  0  0  0
    1.9684    2.3650    0.0000 C   0  0  0  0  0  0  0  0  0  0  0  0
   -1.2200    1.2400    0.0000 C   0  0  0  0  0  0  0  0  0  0  0  0
   -1.2300   -1.7600    0.0000 C   0  0  0  0  0  0  0  0  0  0  0  0
    3.9050    4.0969    0.0000 C   0  0  0  0  0  0  0  0  0  0  0  0
    2.3800   -0.2700    0.0000 C   0  0  0  0  0  0  0  0  0  0  0  0
    1.5000    0.9400    0.0000 C   0  0  0  0  0  0  0  0  0  0  0  0
    0.0800    0.4900    0.0000 C   0  0  0  0  0  0  0  0  0  0  0  0
    0.0700   -1.0100    0.0000 C   0  0  0  0  0  0  0  0  0  0  0  0
    5.3733    4.4038    0.0000 C   0  0  0  0  0  0  0  0  0  0  0  0
    1.5000   -1.4800    0.0000 N   0  0  0  0  0  0  0  0  0  0  0  0
    6.3732    3.2857    0.0000 O   0  0  0  0  0  0  0  0  0  0  0  0
    5.8416    5.8288    0.0000 O   0  0  0  0  0  0  0  0  0  0  0  0
  2  1  2  0
  4  3  1  0
  5  1  1  0
  6  2  1  0
  7  3  1  0
  9  4  1  0
  9  8  2  0
 10  5  2  0
 10  9  1  0
 11  6  2  0
 11 10  1  0
 12  7  1  0
 13  8  1  0
 13 11  1  0
 14 12  2  0
 15 12  1  0
M  END
>  <NAME>  (5265) 
3-INDOLEBUTYRIC ACID

>  <SYNONYMS>  (5265) 


>  <SPECTRUM TYPE>  (5265) 
MS1

>  <INSTRUMENT TYPE>  (5265) 
EI-B

>  <INSTRUMENT>  (5265) 
HITACHI M-68

>  <ION MODE>  (5265) 
P

>  <INCHIKEY>  (5265) 
JTEDVYBZBROSJT-UHFFFAOYSA-N

>  <FORMULA>  (5265) 
C12H13NO2

>  <EXACT MASS>  (5265) 
203.094628656

>  <MW>  (5265) 
203

>  <ID>  (5265) 
JP004070

>  <CONTRIBUTOR>  (5265) 
University of Tokyo Team, {Faculty of Engineering, University of Tokyo

>  <COMMENT>  (5265) 
SMILES=C1=CC=C2C(=C1)C(=CN2)CCCC(=O)O
InChI=InChI=1S/C12H13NO2/c14-12(15)7-3-4-9-8-13-11-6-2-1-5-10(9)11/h1-2,5-6,8,13H,3-4,7H2,(H,14,15)
computed SMILES=O=C(O)CCCC1=CNC=2C=CC=CC21
accession=JP004070
date=2016.01.19 (Created 2008.10.21, modified 2011.05.06)
author=YAMAMOTO M, DEP. CHEMISTRY, FAC. SCIENCE, NARA WOMEN'S UNIV.
license=CC BY-NC-SA
exact mass=203.09463
ionization energy=70 eV
ion type=[M]+*
computed spectral entropy=1.8926628236965612
computed normalized entropy=0.6036250406973572
SPLASH=splash10-001i-0920000000-a53e6a97ea38d50751b7
submitter=submitter = University of Tokyo Team (Faculty of Engineering, University of Tokyo)
MoNA Rating=3.75

>  <NUM PEAKS>  (5265) 
23

>  <MASS SPECTRAL PEAKS>  (5265) 
39 1
45 2.8
51 1.1
63 1
76 1
77 6.5
89 1.3
102 0.39
103 6.2
104 0.9
115 3.4
116 0.1
117 2.2
128 3.4
129 4.8
130 99.99
131 11.7
142 2
143 10.5
144 0.32
156 2.4
203 30
204 4.2

$$$$

     RDKit          2D

  9  9  0  0  0  0  0  0  0  0999 V2000
   -2.5633    1.1076    0.0000 C   0  0  0  0  0  0  0  0  0  0  0  0
    2.6328   -1.8924    0.0000 C   0  0  0  0  0  0  0  0  0  0  0  0
   -1.2648   -1.1433    0.0000 C   0  0  0  0  0  0  0  0  0  0  0  0
    0.0342   -1.8933    0.0000 C   0  0  0  0  0  0  0  0  0  0  0  0
    0.0352    1.1084    0.0000 C   0  0  0  0  0  0  0  0  0  0  0  0
   -1.2643    0.3576    0.0000 C   0  0  0  0  0  0  0  0  0  0  0  0
    1.3338   -1.1424    0.0000 C   0  0  0  0  0  0  0  0  0  0  0  0
    1.3342    0.3584    0.0000 C   0  0  0  0  0  0  0  0  0  0  0  0
    2.6334    1.1082    0.0000 O   0  0  0  0  0  0  0  0  0  0  0  0
  4  3  2  0
  6  1  1  0
  6  3  1  0
  6  5  2  0
  7  2  1  0
  7  4  1  0
  8  5  1  0
  8  7  2  0
  9  8  1  0
M  END
>  <NAME>  (5266) 
2,5-DIMETHYLPHENOL

>  <SYNONYMS>  (5266) 


>  <SPECTRUM TYPE>  (5266) 
MS1

>  <INSTRUMENT TYPE>  (5266) 
EI-B

>  <INSTRUMENT>  (5266) 
HITACHI RMU-6L

>  <ION MODE>  (5266) 
P

>  <INCHIKEY>  (5266) 
NKTOLZVEWDHZMU-UHFFFAOYSA-N

>  <FORMULA>  (5266) 
C8H10O

>  <EXACT MASS>  (5266) 
122.07316494

>  <MW>  (5266) 
122

>  <ID>  (5266) 
JP004069

>  <CONTRIBUTOR>  (5266) 
University of Tokyo Team, {Faculty of Engineering, University of Tokyo

>  <COMMENT>  (5266) 
SMILES=Cc(c1)cc(O)c(C)c1
InChI=InChI=1S/C8H10O/c1-6-3-4-7(2)8(9)5-6/h3-5,9H,1-2H3
computed SMILES=OC1=CC(=CC=C1C)C
accession=JP004069
date=2016.01.19 (Created 2008.10.21, modified 2011.05.06)
author=MASS SPECTROSCOPY SOC. OF JAPAN (MSSJ)
license=CC BY-NC-SA
exact mass=122.07316
ionization energy=70 eV
ion type=[M]+*
computed spectral entropy=2.8338968385336663
computed normalized entropy=0.7488781252221143
SPLASH=splash10-00di-8900000000-1425cd74879c3086c0ba
submitter=submitter = University of Tokyo Team (Faculty of Engineering, University of Tokyo)
MoNA Rating=3.75

>  <NUM PEAKS>  (5266) 
44

>  <MASS SPECTRAL PEAKS>  (5266) 
39 27.8
40 2.9
41 6.5
42 0.11
43 3.9
45 1.1
49 0.9
50 1.1
51 19.3
52 5.6
53 11.5
54 1.22
55 2
59 1
60 2.2
61 0.24
62 2.1
63 7.5
65 8.4
66 0.25
67 1.8
74 2
76 14
77 3
78 9.4
79 15.8
80 1
81 0.76
89 1
91 18.5
92 2.2
93 0.35
94 2.7
95 1
102 1.1
103 0.54
104 5.9
105 3
106 6.1
107 8.59
108 5.5
121 42.9
122 99.99
123 7.1

$$$$

     RDKit          2D

  9  9  0  0  0  0  0  0  0  0999 V2000
   -2.5633    1.1076    0.0000 C   0  0  0  0  0  0  0  0  0  0  0  0
    2.6328   -1.8924    0.0000 C   0  0  0  0  0  0  0  0  0  0  0  0
   -1.2648   -1.1433    0.0000 C   0  0  0  0  0  0  0  0  0  0  0  0
    0.0342   -1.8933    0.0000 C   0  0  0  0  0  0  0  0  0  0  0  0
    0.0352    1.1084    0.0000 C   0  0  0  0  0  0  0  0  0  0  0  0
   -1.2643    0.3576    0.0000 C   0  0  0  0  0  0  0  0  0  0  0  0
    1.3338   -1.1424    0.0000 C   0  0  0  0  0  0  0  0  0  0  0  0
    1.3342    0.3584    0.0000 C   0  0  0  0  0  0  0  0  0  0  0  0
    2.6334    1.1082    0.0000 O   0  0  0  0  0  0  0  0  0  0  0  0
  4  3  2  0
  6  1  1  0
  6  3  1  0
  6  5  2  0
  7  2  1  0
  7  4  1  0
  8  5  1  0
  8  7  2  0
  9  8  1  0
M  END
>  <NAME>  (5267) 
2,5-DIMETHYLPHENOL

>  <SYNONYMS>  (5267) 


>  <SPECTRUM TYPE>  (5267) 
MS1

>  <INSTRUMENT TYPE>  (5267) 
EI-B

>  <INSTRUMENT>  (5267) 
HITACHI RMU-6L

>  <ION MODE>  (5267) 
P

>  <INCHIKEY>  (5267) 
NKTOLZVEWDHZMU-UHFFFAOYSA-N

>  <FORMULA>  (5267) 
C8H10O

>  <EXACT MASS>  (5267) 
122.07316494

>  <MW>  (5267) 
122

>  <ID>  (5267) 
JP004068

>  <CONTRIBUTOR>  (5267) 
University of Tokyo Team, {Faculty of Engineering, University of Tokyo

>  <COMMENT>  (5267) 
SMILES=Cc(c1)cc(O)c(C)c1
InChI=InChI=1S/C8H10O/c1-6-3-4-7(2)8(9)5-6/h3-5,9H,1-2H3
computed SMILES=OC1=CC(=CC=C1C)C
accession=JP004068
date=2016.01.19 (Created 2008.10.21, modified 2011.05.06)
author=MASS SPECTROSCOPY SOC. OF JAPAN (MSSJ)
license=CC BY-NC-SA
exact mass=122.07316
ionization energy=70 eV
ion type=[M]+*
computed spectral entropy=2.8338968385336663
computed normalized entropy=0.7488781252221143
SPLASH=splash10-00di-8900000000-1425cd74879c3086c0ba
submitter=submitter = University of Tokyo Team (Faculty of Engineering, University of Tokyo)
MoNA Rating=3.75

>  <NUM PEAKS>  (5267) 
44

>  <MASS SPECTRAL PEAKS>  (5267) 
39 27.8
40 2.9
41 6.5
42 0.11
43 3.9
45 1.1
49 0.9
50 1.1
51 19.3
52 5.6
53 11.5
54 1.22
55 2
59 1
60 2.2
61 0.24
62 2.1
63 7.5
65 8.4
66 0.25
67 1.8
74 2
76 14
77 3
78 9.4
79 15.8
80 1
81 0.76
89 1
91 18.5
92 2.2
93 0.35
94 2.7
95 1
102 1.1
103 0.54
104 5.9
105 3
106 6.1
107 8.59
108 5.5
121 42.9
122 99.99
123 7.1

$$$$

     RDKit          2D

 13 12  0  0  0  0  0  0  0  0999 V2000
   -9.7428    5.6250    0.0000 C   0  0  0  0  0  0  0  0  0  0  0  0
    3.2476    5.6250    0.0000 C   0  0  0  0  0  0  0  0  0  0  0  0
   -3.2476    4.8750    0.0000 C   0  0  0  0  0  0  0  0  0  0  0  0
   -4.5466    5.6250    0.0000 C   0  0  0  0  0  0  0  0  0  0  0  0
   -1.9486    5.6250    0.0000 C   0  0  0  0  0  0  0  0  0  0  0  0
   -5.8457    4.8750    0.0000 C   0  0  0  0  0  0  0  0  0  0  0  0
   -0.6495    4.8750    0.0000 C   0  0  0  0  0  0  0  0  0  0  0  0
   -7.1447    5.6250    0.0000 C   0  0  0  0  0  0  0  0  0  0  0  0
    0.6495    5.6250    0.0000 C   0  0  0  0  0  0  0  0  0  0  0  0
   -7.1447    7.1250    0.0000 O   0  0  0  0  0  0  0  0  0  0  0  0
    0.6495    7.1250    0.0000 O   0  0  0  0  0  0  0  0  0  0  0  0
   -8.4437    4.8750    0.0000 O   0  0  0  0  0  0  0  0  0  0  0  0
    1.9486    4.8750    0.0000 O   0  0  0  0  0  0  0  0  0  0  0  0
  4  3  1  0
  5  3  1  0
  6  4  1  0
  7  5  1  0
  8  6  1  0
  9  7  1  0
 10  8  2  0
 11  9  2  0
 12  1  1  0
 12  8  1  0
 13  2  1  0
 13  9  1  0
M  END
>  <NAME>  (5268) 
DIMETHYL PIMELATE

>  <SYNONYMS>  (5268) 


>  <SPECTRUM TYPE>  (5268) 
MS1

>  <INSTRUMENT TYPE>  (5268) 
EI-B

>  <INSTRUMENT>  (5268) 
HITACHI RMU-6L

>  <ION MODE>  (5268) 
P

>  <INCHIKEY>  (5268) 
SHWINQXIGSEZAP-UHFFFAOYSA-N

>  <FORMULA>  (5268) 
C9H16O4

>  <EXACT MASS>  (5268) 
188.104858992

>  <MW>  (5268) 
188

>  <ID>  (5268) 
JP004067

>  <CONTRIBUTOR>  (5268) 
University of Tokyo Team, {Faculty of Engineering, University of Tokyo

>  <COMMENT>  (5268) 
SMILES=COC(=O)CCCCCC(=O)OC
InChI=InChI=1S/C9H16O4/c1-12-8(10)6-4-3-5-7-9(11)13-2/h3-7H2,1-2H3
computed SMILES=O=C(OC)CCCCCC(=O)OC
accession=JP004067
date=2016.01.19 (Created 2008.10.21, modified 2011.05.06)
author=MASS SPECTROSCOPY SOC. OF JAPAN (MSSJ)
license=CC BY-NC-SA
exact mass=188.10486
ionization energy=70 eV
ion type=[M]+*
computed spectral entropy=3.4490014854308986
computed normalized entropy=0.8091157640073167
SPLASH=splash10-0596-9100000000-d1d23d68f041d9b2478d
submitter=submitter = University of Tokyo Team (Faculty of Engineering, University of Tokyo)
MoNA Rating=3.75

>  <NUM PEAKS>  (5268) 
71

>  <MASS SPECTRAL PEAKS>  (5268) 
14 1.9
16 2.5
26 3.2
27 2.6
28 13.2
29 24.1
30 2.2
31 0.74
33 2.3
35 2.2
39 21
40 0.56
41 55.4
42 32
43 64.9
44 0.45
45 13
47 3.2
48 13.2
49 1.45
51 2.5
53 5
54 6.5
55 99.99
56 7.5
57 6
58 4
59 8.11
60 4
63 5.5
65 2.1
67 0.56
68 24
69 70
70 5.9
71 0.39
72 2.9
73 35.5
74 95.2
79 0.31
81 3.2
82 3
83 41.7
84 0.3
85 6
87 29.1
88 4.7
95 0.35
96 9.9
97 28.1
98 3.1
99 0.22
100 14.1
101 6.7
102 4
111 1.32
112 2.6
113 3.9
114 8.5
115 7.93
116 5.3
123 3
124 21
125 3.55
126 2.5
127 3.3
128 30.7
129 0.78
156 4.2
157 25.7
158 3

$$$$

     RDKit          2D

  9  9  0  0  0  0  0  0  0  0999 V2000
    2.6052   -0.7613    0.0000 C   0  0  0  0  0  0  0  0  0  0  0  0
   -2.6041   -0.8953    0.0000 C   0  0  0  0  0  0  0  0  0  0  0  0
   -0.0300    2.1400    0.0000 C   0  0  0  0  0  0  0  0  0  0  0  0
    1.2600    1.4400    0.0000 C   0  0  0  0  0  0  0  0  0  0  0  0
   -1.3200    1.4000    0.0000 C   0  0  0  0  0  0  0  0  0  0  0  0
    1.2900   -0.0400    0.0000 C   0  0  0  0  0  0  0  0  0  0  0  0
   -1.3200   -0.1200    0.0000 C   0  0  0  0  0  0  0  0  0  0  0  0
    0.0100   -0.8200    0.0000 C   0  0  0  0  0  0  0  0  0  0  0  0
    0.0571   -2.3193    0.0000 O   0  0  0  0  0  0  0  0  0  0  0  0
  4  3  2  0
  5  3  1  0
  6  1  1  0
  6  4  1  0
  7  2  1  0
  7  5  2  0
  8  6  2  0
  8  7  1  0
  9  8  1  0
M  END
>  <NAME>  (5269) 
2,6-DIMETHYLPHENOL

>  <SYNONYMS>  (5269) 


>  <SPECTRUM TYPE>  (5269) 
MS1

>  <INSTRUMENT TYPE>  (5269) 
EI-B

>  <INSTRUMENT>  (5269) 
HITACHI RMU-6L

>  <ION MODE>  (5269) 
P

>  <INCHIKEY>  (5269) 
NXXYKOUNUYWIHA-UHFFFAOYSA-N

>  <FORMULA>  (5269) 
C8H10O

>  <EXACT MASS>  (5269) 
122.07316494

>  <MW>  (5269) 
122

>  <ID>  (5269) 
JP004066

>  <CONTRIBUTOR>  (5269) 
University of Tokyo Team, {Faculty of Engineering, University of Tokyo

>  <COMMENT>  (5269) 
SMILES=Cc(c1)c(O)c(C)cc1
InChI=InChI=1S/C8H10O/c1-6-4-3-5-7(2)8(6)9/h3-5,9H,1-2H3
computed SMILES=OC=1C(=CC=CC1C)C
accession=JP004066
date=2016.01.19 (Created 2008.10.21, modified 2011.05.06)
author=MASS SPECTROSCOPY SOC. OF JAPAN (MSSJ)
license=CC BY-NC-SA
exact mass=122.07316
ionization energy=70 eV
ion type=[M]+*
computed spectral entropy=2.9081206710302445
computed normalized entropy=0.7639554803834763
SPLASH=splash10-00di-9800000000-18a8beede2ffebb7acf4
submitter=submitter = University of Tokyo Team (Faculty of Engineering, University of Tokyo)
MoNA Rating=3.75

>  <NUM PEAKS>  (5269) 
45

>  <MASS SPECTRAL PEAKS>  (5269) 
38 7.9
39 29.9
40 4
41 0.64
43 6.1
45 2
49 1.8
50 0.93
51 19.5
52 6
53 12
54 0.14
55 2.8
60 2.9
61 2.9
62 0.5
63 10
64 2.3
65 10.8
66 0.29
74 2.3
75 2.1
76 1.5
77 3.2
78 9
79 18
80 1.5
89 0.2
90 1
91 21.6
92 2.6
93 0.31
94 1.1
95 1
100 3
102 0.11
103 9.9
104 10
105 4.5
107 8.2
108 6.1
120 1
121 38.5
122 99.99
123 7.2

$$$$

     RDKit          2D

 11 11  0  0  0  0  0  0  0  0999 V2000
   -3.5376    0.5451    0.0000 C   0  0  0  0  0  0  0  0  0  0  0  0
   -2.2386    2.7951    0.0000 C   0  0  0  0  0  0  0  0  0  0  0  0
    2.9576   -1.7049    0.0000 C   0  0  0  0  0  0  0  0  0  0  0  0
    0.3590   -1.7058    0.0000 C   0  0  0  0  0  0  0  0  0  0  0  0
   -0.9400   -0.9558    0.0000 C   0  0  0  0  0  0  0  0  0  0  0  0
    0.3600    1.2959    0.0000 C   0  0  0  0  0  0  0  0  0  0  0  0
   -2.2386    1.2951    0.0000 C   0  0  0  0  0  0  0  0  0  0  0  0
    1.6585   -0.9549    0.0000 C   0  0  0  0  0  0  0  0  0  0  0  0
   -0.9395    0.5451    0.0000 C   0  0  0  0  0  0  0  0  0  0  0  0
    1.6590    0.5459    0.0000 C   0  0  0  0  0  0  0  0  0  0  0  0
    2.9582    1.2957    0.0000 O   0  0  0  0  0  0  0  0  0  0  0  0
  5  4  2  0
  7  1  1  0
  7  2  1  0
  8  3  1  0
  8  4  1  0
  9  5  1  0
  9  6  2  0
  9  7  1  0
 10  6  1  0
 10  8  2  0
 11 10  1  0
M  END
>  <NAME>  (5270) 
5-ISOPROPYL-2-METHYLPHENOL

>  <SYNONYMS>  (5270) 


>  <SPECTRUM TYPE>  (5270) 
MS1

>  <INSTRUMENT TYPE>  (5270) 
EI-B

>  <INSTRUMENT>  (5270) 
HITACHI RMU-6L

>  <ION MODE>  (5270) 
P

>  <INCHIKEY>  (5270) 
RECUKUPTGUEGMW-UHFFFAOYSA-N

>  <FORMULA>  (5270) 
C10H14O

>  <EXACT MASS>  (5270) 
150.104465068

>  <MW>  (5270) 
150

>  <ID>  (5270) 
JP004065

>  <CONTRIBUTOR>  (5270) 
University of Tokyo Team, {Faculty of Engineering, University of Tokyo

>  <COMMENT>  (5270) 
SMILES=CC(C)c(c1)cc(O)c(C)c1
InChI=InChI=1S/C10H14O/c1-7(2)9-5-4-8(3)10(11)6-9/h4-7,11H,1-3H3
computed SMILES=OC1=CC(=CC=C1C)C(C)C
accession=JP004065
date=2016.01.19 (Created 2008.10.21, modified 2011.05.06)
author=MASS SPECTROSCOPY SOC. OF JAPAN (MSSJ)
license=CC BY-NC-SA
exact mass=150.10447
ionization energy=70 eV
ion type=[M]+*
computed spectral entropy=1.522460796120147
computed normalized entropy=0.7321488801701331
SPLASH=splash10-000i-0900000000-b0006c01682dd3cd5032
submitter=submitter = University of Tokyo Team (Faculty of Engineering, University of Tokyo)
MoNA Rating=3.75

>  <NUM PEAKS>  (5270) 
8

>  <MASS SPECTRAL PEAKS>  (5270) 
91 16.1
107 17.5
115 9
117 0.75
121 8.8
135 99.99
136 10
150 34.6

$$$$

     RDKit          2D

 11 11  0  0  0  0  0  0  0  0999 V2000
    1.5187   -2.9891    0.0000 C   0  0  0  0  0  0  0  0  0  0  0  0
    3.5678   -2.4404    0.0000 C   0  0  0  0  0  0  0  0  0  0  0  0
    3.0191   -0.3913    0.0000 C   0  0  0  0  0  0  0  0  0  0  0  0
   -1.6200   -0.9400    0.0000 C   0  0  0  0  0  0  0  0  0  0  0  0
   -0.3300   -1.6900    0.0000 C   0  0  0  0  0  0  0  0  0  0  0  0
   -1.6200    0.5600    0.0000 C   0  0  0  0  0  0  0  0  0  0  0  0
    0.9700    0.5600    0.0000 C   0  0  0  0  0  0  0  0  0  0  0  0
    0.9700   -0.9400    0.0000 C   0  0  0  0  0  0  0  0  0  0  0  0
   -0.3300    1.3100    0.0000 C   0  0  0  0  0  0  0  0  0  0  0  0
    2.2689   -1.6902    0.0000 C   0  0  0  0  0  0  0  0  0  0  0  0
   -0.3325    2.8100    0.0000 O   0  0  0  0  0  0  0  0  0  0  0  0
  5  4  2  0
  6  4  1  0
  8  5  1  0
  8  7  2  0
  9  6  2  0
  9  7  1  0
 10  1  1  0
 10  2  1  0
 10  3  1  0
 10  8  1  0
 11  9  1  0
M  END
>  <NAME>  (5271) 
META-TERT-BUTYLPHENOL

>  <SYNONYMS>  (5271) 


>  <SPECTRUM TYPE>  (5271) 
MS1

>  <INSTRUMENT TYPE>  (5271) 
EI-B

>  <INSTRUMENT>  (5271) 
HITACHI RMU-6L

>  <ION MODE>  (5271) 
P

>  <INCHIKEY>  (5271) 
CYEKUDPFXBLGHH-UHFFFAOYSA-N

>  <FORMULA>  (5271) 
C10H14O

>  <EXACT MASS>  (5271) 
150.104465068

>  <MW>  (5271) 
150

>  <ID>  (5271) 
JP004064

>  <CONTRIBUTOR>  (5271) 
University of Tokyo Team, {Faculty of Engineering, University of Tokyo

>  <COMMENT>  (5271) 
SMILES=Oc(c1)cc(cc1)C(C)(C)C
InChI=InChI=1S/C10H14O/c1-10(2,3)8-5-4-6-9(11)7-8/h4-7,11H,1-3H3
computed SMILES=OC1=CC=CC(=C1)C(C)(C)C
accession=JP004064
date=2016.01.19 (Created 2008.10.21, modified 2011.05.06)
author=MASS SPECTROSCOPY SOC. OF JAPAN (MSSJ)
license=CC BY-NC-SA
exact mass=150.10447
ionization energy=70 eV
ion type=[M]+*
computed spectral entropy=1.5308905998045992
computed normalized entropy=0.7362027588272088
SPLASH=splash10-000i-1900000000-6e143c7fe5f9ecb731e4
submitter=submitter = University of Tokyo Team (Faculty of Engineering, University of Tokyo)
MoNA Rating=3.75

>  <NUM PEAKS>  (5271) 
8

>  <MASS SPECTRAL PEAKS>  (5271) 
39 7
41 13.6
76 7.1
95 1.48
107 32.7
135 99.99
136 10.3
150 30.9

$$$$

     RDKit          2D

 11 11  0  0  0  0  0  0  0  0999 V2000
    3.2476    3.7504    0.0000 C   0  0  0  0  0  0  0  0  0  0  0  0
    3.2481    0.7504    0.0000 C   0  0  0  0  0  0  0  0  0  0  0  0
    1.9487    3.0002    0.0000 C   0  0  0  0  0  0  0  0  0  0  0  0
   -1.9500    0.7500    0.0000 C   0  0  0  0  0  0  0  0  0  0  0  0
   -1.9500   -0.7500    0.0000 C   0  0  0  0  0  0  0  0  0  0  0  0
   -0.6500    1.5000    0.0000 C   0  0  0  0  0  0  0  0  0  0  0  0
   -0.6500   -1.5000    0.0000 C   0  0  0  0  0  0  0  0  0  0  0  0
    1.9489    1.5002    0.0000 C   0  0  0  0  0  0  0  0  0  0  0  0
    0.6500    0.7500    0.0000 C   0  0  0  0  0  0  0  0  0  0  0  0
    0.6500   -0.7500    0.0000 C   0  0  0  0  0  0  0  0  0  0  0  0
    1.9489   -1.5002    0.0000 O   0  0  0  0  0  0  0  0  0  0  0  0
  3  1  1  0
  5  4  2  0
  6  4  1  0
  7  5  1  0
  8  2  1  0
  8  3  1  0
  9  6  2  0
  9  8  1  0
 10  7  2  0
 10  9  1  0
 11 10  1  0
M  END
>  <NAME>  (5272) 
ORTHO-SEC-BUTYLPHENOL

>  <SYNONYMS>  (5272) 


>  <SPECTRUM TYPE>  (5272) 
MS1

>  <INSTRUMENT TYPE>  (5272) 
EI-B

>  <INSTRUMENT>  (5272) 
HITACHI RMU-6L

>  <ION MODE>  (5272) 
P

>  <INCHIKEY>  (5272) 
NGFPWHGISWUQOI-UHFFFAOYSA-N

>  <FORMULA>  (5272) 
C10H14O

>  <EXACT MASS>  (5272) 
150.104465068

>  <MW>  (5272) 
150

>  <ID>  (5272) 
JP004063

>  <CONTRIBUTOR>  (5272) 
University of Tokyo Team, {Faculty of Engineering, University of Tokyo

>  <COMMENT>  (5272) 
SMILES=CCC(C)c(c1)c(O)ccc1
InChI=InChI=1S/C10H14O/c1-3-8(2)9-6-4-5-7-10(9)11/h4-8,11H,3H2,1-2H3
computed SMILES=OC=1C=CC=CC1C(C)CC
accession=JP004063
date=2016.01.19 (Created 2008.10.21, modified 2011.05.06)
author=MASS SPECTROSCOPY SOC. OF JAPAN (MSSJ)
license=CC BY-NC-SA
exact mass=150.10447
ionization energy=70 eV
ion type=[M]+*
computed spectral entropy=2.4659269702236246
computed normalized entropy=0.711516122227194
SPLASH=splash10-00di-5900000000-68facb05fa0069d5a100
submitter=submitter = University of Tokyo Team (Faculty of Engineering, University of Tokyo)
MoNA Rating=3.75

>  <NUM PEAKS>  (5272) 
32

>  <MASS SPECTRAL PEAKS>  (5272) 
26 1.1
27 11.2
29 6.2
38 0.23
39 12
40 1.7
41 5
42 0.15
50 2.9
51 6.9
52 2.3
53 0.3
55 2.9
62 2.1
63 3.2
64 0.18
65 5
66 2.1
77 18.5
78 0.29
79 1.8
91 12.7
103 18.2
104 0.15
108 1.5
115 2
117 10.9
121 99.99
122 10
135 2.3
150 16.7
151 1.5

$$$$

     RDKit          2D

 11 11  0  0  0  0  0  0  0  0999 V2000
    2.6991    0.2013    0.0000 C   0  0  0  0  0  0  0  0  0  0  0  0
    3.2478    2.2504    0.0000 C   0  0  0  0  0  0  0  0  0  0  0  0
    1.1987    2.7991    0.0000 C   0  0  0  0  0  0  0  0  0  0  0  0
   -1.9500    0.7500    0.0000 C   0  0  0  0  0  0  0  0  0  0  0  0
   -1.9500   -0.7500    0.0000 C   0  0  0  0  0  0  0  0  0  0  0  0
   -0.6500    1.5000    0.0000 C   0  0  0  0  0  0  0  0  0  0  0  0
   -0.6500   -1.5000    0.0000 C   0  0  0  0  0  0  0  0  0  0  0  0
    0.6500    0.7500    0.0000 C   0  0  0  0  0  0  0  0  0  0  0  0
    0.6500   -0.7500    0.0000 C   0  0  0  0  0  0  0  0  0  0  0  0
    1.9489    1.5002    0.0000 C   0  0  0  0  0  0  0  0  0  0  0  0
    1.9489   -1.5002    0.0000 O   0  0  0  0  0  0  0  0  0  0  0  0
  5  4  2  0
  6  4  1  0
  7  5  1  0
  8  6  2  0
  9  7  2  0
  9  8  1  0
 10  1  1  0
 10  2  1  0
 10  3  1  0
 10  8  1  0
 11  9  1  0
M  END
>  <NAME>  (5273) 
ORTHO-TERT-BUTYLPHENOL

>  <SYNONYMS>  (5273) 


>  <SPECTRUM TYPE>  (5273) 
MS1

>  <INSTRUMENT TYPE>  (5273) 
EI-B

>  <INSTRUMENT>  (5273) 
HITACHI RMU-6L

>  <ION MODE>  (5273) 
P

>  <INCHIKEY>  (5273) 
WJQOZHYUIDYNHM-UHFFFAOYSA-N

>  <FORMULA>  (5273) 
C10H14O

>  <EXACT MASS>  (5273) 
150.104465068

>  <MW>  (5273) 
150

>  <ID>  (5273) 
JP004062

>  <CONTRIBUTOR>  (5273) 
University of Tokyo Team, {Faculty of Engineering, University of Tokyo

>  <COMMENT>  (5273) 
SMILES=Oc(c1)c(ccc1)C(C)(C)C
InChI=InChI=1S/C10H14O/c1-10(2,3)8-6-4-5-7-9(8)11/h4-7,11H,1-3H3
computed SMILES=OC=1C=CC=CC1C(C)(C)C
accession=JP004062
date=2016.01.19 (Created 2008.10.21, modified 2011.05.06)
author=MASS SPECTROSCOPY SOC. OF JAPAN (MSSJ)
license=CC BY-NC-SA
exact mass=150.10447
ionization energy=70 eV
ion type=[M]+*
computed spectral entropy=2.322918905776154
computed normalized entropy=0.6340602752597849
SPLASH=splash10-000i-2900000000-f08add6a3f5820a671b0
submitter=submitter = University of Tokyo Team (Faculty of Engineering, University of Tokyo)
MoNA Rating=3.75

>  <NUM PEAKS>  (5273) 
39

>  <MASS SPECTRAL PEAKS>  (5273) 
18 1.3
27 1.8
29 1.4
41 0.62
51 4.3
52 1
53 1.5
55 0.12
56 2.6
57 1.5
63 2.5
64 0.13
65 4.5
67 1.5
68 2
69 0.13
75 1.7
77 6
78 1.6
79 0.29
89 1.4
91 13.9
92 1
94 0.21
95 4.6
103 1.5
105 1.2
107 6.65
108 4.3
109 1.5
115 12.3
116 0.23
117 1.2
119 1
135 99.99
136 0.96
149 6.3
150 36.9
151 3.8

$$$$

     RDKit          2D

 11 11  0  0  0  0  0  0  0  0999 V2000
   -0.3123    3.2070    0.0000 C   0  0  0  0  0  0  0  0  0  0  0  0
   -2.3640    2.6681    0.0000 C   0  0  0  0  0  0  0  0  0  0  0  0
   -1.8251    0.6164    0.0000 C   0  0  0  0  0  0  0  0  0  0  0  0
    1.5257    1.9053    0.0000 C   0  0  0  0  0  0  0  0  0  0  0  0
    0.2121   -0.3195    0.0000 C   0  0  0  0  0  0  0  0  0  0  0  0
    2.8102    1.1805    0.0000 C   0  0  0  0  0  0  0  0  0  0  0  0
    1.5366   -1.1137    0.0000 C   0  0  0  0  0  0  0  0  0  0  0  0
    0.2266    1.1553    0.0000 C   0  0  0  0  0  0  0  0  0  0  0  0
    2.8357   -0.3637    0.0000 C   0  0  0  0  0  0  0  0  0  0  0  0
   -1.0687    1.9117    0.0000 C   0  0  0  0  0  0  0  0  0  0  0  0
    4.1409   -1.1029    0.0000 O   0  0  0  0  0  0  0  0  0  0  0  0
  6  4  2  0
  7  5  1  0
  8  4  1  0
  8  5  2  0
  9  6  1  0
  9  7  2  0
 10  1  1  0
 10  2  1  0
 10  3  1  0
 10  8  1  0
 11  9  1  0
M  END
>  <NAME>  (5274) 
PARA-TERT-BUTYLPHENOL

>  <SYNONYMS>  (5274) 


>  <SPECTRUM TYPE>  (5274) 
MS1

>  <INSTRUMENT TYPE>  (5274) 
EI-B

>  <INSTRUMENT>  (5274) 
HITACHI RMU-6L

>  <ION MODE>  (5274) 
P

>  <INCHIKEY>  (5274) 
QHPQWRBYOIRBIT-UHFFFAOYSA-N

>  <FORMULA>  (5274) 
C10H14O

>  <EXACT MASS>  (5274) 
150.104465068

>  <MW>  (5274) 
150

>  <ID>  (5274) 
JP004061

>  <CONTRIBUTOR>  (5274) 
University of Tokyo Team, {Faculty of Engineering, University of Tokyo

>  <COMMENT>  (5274) 
SMILES=Oc(c1)ccc(c1)C(C)(C)C
InChI=InChI=1S/C10H14O/c1-10(2,3)8-4-6-9(11)7-5-8/h4-7,11H,1-3H3
computed SMILES=OC1=CC=C(C=C1)C(C)(C)C
accession=JP004061
date=2016.01.19 (Created 2008.10.21, modified 2011.05.06)
author=MASS SPECTROSCOPY SOC. OF JAPAN (MSSJ)
license=CC BY-NC-SA
exact mass=150.10447
ionization energy=70 eV
ion type=[M]+*
computed spectral entropy=2.7975558759662755
computed normalized entropy=0.7080190631649146
SPLASH=splash10-000i-8900000000-fcc9d5515e40bf2ce9bf
submitter=submitter = University of Tokyo Team (Faculty of Engineering, University of Tokyo)
MoNA Rating=3.75

>  <NUM PEAKS>  (5274) 
52

>  <MASS SPECTRAL PEAKS>  (5274) 
26 1.5
27 10.5
28 18.2
29 0.57
32 2.1
38 3
39 20.3
40 0.2
41 23.9
42 1
43 1.1
50 0.26
51 6.9
52 2
53 4.3
55 0.41
57 1.6
59 1.2
62 2.1
63 0.43
64 1.6
65 8.9
66 3.5
66.5 0.11
67 1.1
67.5 1.1
74 1.3
75 0.15
77 11.6
78 2.2
79 3
89 0.16
91 10.3
92 2
94 2.5
95 1.74
96 1.5
103 1.2
105 2
106 0.16
107 26.7
108 2
115 1
119 0.3
120 1.4
121 1.2
133 1
134 0.19
135 99.99
136 8.9
150 20
151 2.2

$$$$

     RDKit          2D

 11 11  0  0  0  0  0  0  0  0999 V2000
   -3.5376   -0.2051    0.0000 C   0  0  0  0  0  0  0  0  0  0  0  0
   -2.2386   -2.4551    0.0000 C   0  0  0  0  0  0  0  0  0  0  0  0
    2.9576    2.0449    0.0000 C   0  0  0  0  0  0  0  0  0  0  0  0
    0.3590    2.0458    0.0000 C   0  0  0  0  0  0  0  0  0  0  0  0
   -0.9400    1.2958    0.0000 C   0  0  0  0  0  0  0  0  0  0  0  0
    1.6590   -0.2059    0.0000 C   0  0  0  0  0  0  0  0  0  0  0  0
   -2.2386   -0.9551    0.0000 C   0  0  0  0  0  0  0  0  0  0  0  0
    1.6585    1.2949    0.0000 C   0  0  0  0  0  0  0  0  0  0  0  0
   -0.9395   -0.2051    0.0000 C   0  0  0  0  0  0  0  0  0  0  0  0
    0.3600   -0.9559    0.0000 C   0  0  0  0  0  0  0  0  0  0  0  0
    0.3597   -2.4559    0.0000 O   0  0  0  0  0  0  0  0  0  0  0  0
  5  4  2  0
  7  1  1  0
  7  2  1  0
  8  3  1  0
  8  4  1  0
  8  6  2  0
  9  5  1  0
  9  7  1  0
 10  6  1  0
 10  9  2  0
 11 10  1  0
M  END
>  <NAME>  (5275) 
2-ISOPROPYL-5-METHYLPHENOL

>  <SYNONYMS>  (5275) 


>  <SPECTRUM TYPE>  (5275) 
MS1

>  <INSTRUMENT TYPE>  (5275) 
EI-B

>  <INSTRUMENT>  (5275) 
HITACHI RMU-6L

>  <ION MODE>  (5275) 
P

>  <INCHIKEY>  (5275) 
MGSRCZKZVOBKFT-UHFFFAOYSA-N

>  <FORMULA>  (5275) 
C10H14O

>  <EXACT MASS>  (5275) 
150.104465068

>  <MW>  (5275) 
150

>  <ID>  (5275) 
JP004060

>  <CONTRIBUTOR>  (5275) 
University of Tokyo Team, {Faculty of Engineering, University of Tokyo

>  <COMMENT>  (5275) 
SMILES=CC(C)c(c1)c(O)cc(C)c1
InChI=InChI=1S/C10H14O/c1-7(2)9-5-4-8(3)6-10(9)11/h4-7,11H,1-3H3
computed SMILES=OC1=CC(=CC=C1C(C)C)C
accession=JP004060
date=2016.01.19 (Created 2008.10.21, modified 2011.05.06)
author=MASS SPECTROSCOPY SOC. OF JAPAN (MSSJ)
license=CC BY-NC-SA
exact mass=150.10447
ionization energy=70 eV
ion type=[M]+*
computed spectral entropy=1.9669677606416511
computed normalized entropy=0.5968037377487929
SPLASH=splash10-000i-1900000000-3679938a5ea114a30e48
submitter=submitter = University of Tokyo Team (Faculty of Engineering, University of Tokyo)
MoNA Rating=3.75

>  <NUM PEAKS>  (5275) 
27

>  <MASS SPECTRAL PEAKS>  (5275) 
27 2
39 3.4
41 2
51 0.22
53 1.8
63 1.6
65 2.4
66 0.18
66.5 1.8
68 1.8
71 2
77 0.37
78 1.8
79 2.9
83 2
91 0.92
92 1.5
104 2.1
106 3.4
115 0.78
116 2.6
117 7.9
134 7
135 99.99
136 10
150 32.1
151 2.9

$$$$

     RDKit          2D

 11 11  0  0  0  0  0  0  0  0999 V2000
   -3.2538    2.6270    0.0000 C   0  0  0  0  0  0  0  0  0  0  0  0
   -0.6484    4.1141    0.0000 C   0  0  0  0  0  0  0  0  0  0  0  0
   -1.9585    1.8706    0.0000 C   0  0  0  0  0  0  0  0  0  0  0  0
    1.9386    2.6078    0.0000 C   0  0  0  0  0  0  0  0  0  0  0  0
    0.6251    0.3829    0.0000 C   0  0  0  0  0  0  0  0  0  0  0  0
    3.2231    1.8829    0.0000 C   0  0  0  0  0  0  0  0  0  0  0  0
    1.9496   -0.4112    0.0000 C   0  0  0  0  0  0  0  0  0  0  0  0
   -0.6558    2.6142    0.0000 C   0  0  0  0  0  0  0  0  0  0  0  0
    0.6396    1.8578    0.0000 C   0  0  0  0  0  0  0  0  0  0  0  0
    3.2486    0.3388    0.0000 C   0  0  0  0  0  0  0  0  0  0  0  0
    4.5538   -0.4005    0.0000 O   0  0  0  0  0  0  0  0  0  0  0  0
  3  1  1  0
  6  4  2  0
  7  5  1  0
  8  2  1  0
  8  3  1  0
  9  4  1  0
  9  5  2  0
  9  8  1  0
 10  6  1  0
 10  7  2  0
 11 10  1  0
M  END
>  <NAME>  (5276) 
PARA-SEC-BUTYLPHENOL

>  <SYNONYMS>  (5276) 


>  <SPECTRUM TYPE>  (5276) 
MS1

>  <INSTRUMENT TYPE>  (5276) 
EI-B

>  <INSTRUMENT>  (5276) 
HITACHI RMU-6L

>  <ION MODE>  (5276) 
P

>  <INCHIKEY>  (5276) 
ZUTYZAFDFLLILI-UHFFFAOYSA-N

>  <FORMULA>  (5276) 
C10H14O

>  <EXACT MASS>  (5276) 
150.104465068

>  <MW>  (5276) 
150

>  <ID>  (5276) 
JP004059

>  <CONTRIBUTOR>  (5276) 
University of Tokyo Team, {Faculty of Engineering, University of Tokyo

>  <COMMENT>  (5276) 
SMILES=CCC(C)c(c1)ccc(O)c1
InChI=InChI=1S/C10H14O/c1-3-8(2)9-4-6-10(11)7-5-9/h4-8,11H,3H2,1-2H3
computed SMILES=OC1=CC=C(C=C1)C(C)CC
accession=JP004059
date=2016.01.19 (Created 2008.10.21, modified 2011.05.06)
author=MASS SPECTROSCOPY SOC. OF JAPAN (MSSJ)
license=CC BY-NC-SA
exact mass=150.10447
ionization energy=70 eV
ion type=[M]+*
computed spectral entropy=1.8839776818235388
computed normalized entropy=0.5852905748237989
SPLASH=splash10-00di-4900000000-a7a8f1e2b6dce2f8a82b
submitter=submitter = University of Tokyo Team (Faculty of Engineering, University of Tokyo)
MoNA Rating=3.75

>  <NUM PEAKS>  (5276) 
25

>  <MASS SPECTRAL PEAKS>  (5276) 
38 1.6
39 11.2
40 1.5
41 0.68
43 1.5
50 1.5
51 4.1
53 0.21
55 4.5
63 1.5
65 5.1
66 0.2
77 12.9
78 2
85 2.8
91 0.8
92 1.1
93 2.2
94 1.5
103 0.82
107 8.8
120 1.3
121 99.99
122 0.82
150 13.1

$$$$

     RDKit          2D

  9  9  0  0  0  0  0  0  0  0999 V2000
   -1.9145    0.7682    0.0000 C   0  0  0  0  0  0  0  0  0  0  0  0
    1.9837   -1.4833    0.0000 C   0  0  0  0  0  0  0  0  0  0  0  0
    0.6847   -2.2333    0.0000 C   0  0  0  0  0  0  0  0  0  0  0  0
    0.6837    0.7684    0.0000 C   0  0  0  0  0  0  0  0  0  0  0  0
   -0.6153    0.0184    0.0000 C   0  0  0  0  0  0  0  0  0  0  0  0
    1.9832    0.0176    0.0000 C   0  0  0  0  0  0  0  0  0  0  0  0
   -0.6148   -1.4824    0.0000 C   0  0  0  0  0  0  0  0  0  0  0  0
    3.2823    0.7676    0.0000 O   0  0  0  0  0  0  0  0  0  0  0  0
   -1.9139   -2.2324    0.0000 O   0  0  0  0  0  0  0  0  0  0  0  0
  3  2  2  0
  5  1  1  0
  5  4  1  0
  6  2  1  0
  6  4  2  0
  7  3  1  0
  7  5  2  0
  8  6  1  0
  9  7  1  0
M  END
>  <NAME>  (5277) 
2-METHYLHYDROQUINONE

>  <SYNONYMS>  (5277) 


>  <SPECTRUM TYPE>  (5277) 
MS1

>  <INSTRUMENT TYPE>  (5277) 
EI-B

>  <INSTRUMENT>  (5277) 
HITACHI RMU-6L

>  <ION MODE>  (5277) 
P

>  <INCHIKEY>  (5277) 
CNHDIAIOKMXOLK-UHFFFAOYSA-N

>  <FORMULA>  (5277) 
C7H8O2

>  <EXACT MASS>  (5277) 
124.052429496

>  <MW>  (5277) 
124

>  <ID>  (5277) 
JP004058

>  <CONTRIBUTOR>  (5277) 
University of Tokyo Team, {Faculty of Engineering, University of Tokyo

>  <COMMENT>  (5277) 
SMILES=Oc(c1)cc(C)c(O)c1
InChI=InChI=1S/C7H8O2/c1-5-4-6(8)2-3-7(5)9/h2-4,8-9H,1H3
computed SMILES=OC1=CC=C(O)C(=C1)C
accession=JP004058
date=2016.01.19 (Created 2008.10.21, modified 2011.05.06)
author=MASS SPECTROSCOPY SOC. OF JAPAN (MSSJ)
license=CC BY-NC-SA
exact mass=124.05243
ionization energy=70 eV
ion type=[M]+*
computed spectral entropy=1.7235188092773073
computed normalized entropy=0.8288373463410742
SPLASH=splash10-00di-4900000000-1294c0e2f9e3a2140785
submitter=submitter = University of Tokyo Team (Faculty of Engineering, University of Tokyo)
MoNA Rating=3.75

>  <NUM PEAKS>  (5277) 
8

>  <MASS SPECTRAL PEAKS>  (5277) 
39 21.8
54 22.1
82 17.9
94 1.82
95 18.1
122 26.1
123 23.5
124 99.99

$$$$

     RDKit          2D

  9  9  0  0  0  0  0  0  0  0999 V2000
   -2.5989    3.0000    0.0000 C   0  0  0  0  0  0  0  0  0  0  0  0
   -1.3000    0.7498    0.0000 C   0  0  0  0  0  0  0  0  0  0  0  0
   -0.0000    2.9998    0.0000 C   0  0  0  0  0  0  0  0  0  0  0  0
    1.3000    0.7498    0.0000 C   0  0  0  0  0  0  0  0  0  0  0  0
   -1.3000    2.2498    0.0000 C   0  0  0  0  0  0  0  0  0  0  0  0
   -0.0000   -0.0002    0.0000 C   0  0  0  0  0  0  0  0  0  0  0  0
    1.3000    2.2498    0.0000 C   0  0  0  0  0  0  0  0  0  0  0  0
   -0.0000   -1.5002    0.0000 O   0  0  0  0  0  0  0  0  0  0  0  0
    2.5989    3.0000    0.0000 O   0  0  0  0  0  0  0  0  0  0  0  0
  5  1  1  0
  5  2  2  0
  5  3  1  0
  6  2  1  0
  6  4  2  0
  7  3  2  0
  7  4  1  0
  8  6  1  0
  9  7  1  0
M  END
>  <NAME>  (5278) 
5-METHYLRESORCINOL

>  <SYNONYMS>  (5278) 


>  <SPECTRUM TYPE>  (5278) 
MS1

>  <INSTRUMENT TYPE>  (5278) 
EI-B

>  <INSTRUMENT>  (5278) 
HITACHI RMU-6L

>  <ION MODE>  (5278) 
P

>  <INCHIKEY>  (5278) 
OIPPWFOQEKKFEE-UHFFFAOYSA-N

>  <FORMULA>  (5278) 
C7H8O2

>  <EXACT MASS>  (5278) 
124.052429496

>  <MW>  (5278) 
124

>  <ID>  (5278) 
JP004057

>  <CONTRIBUTOR>  (5278) 
University of Tokyo Team, {Faculty of Engineering, University of Tokyo

>  <COMMENT>  (5278) 
SMILES=Cc(c1)cc(O)cc(O)1
InChI=InChI=1S/C7H8O2/c1-5-2-6(8)4-7(9)3-5/h2-4,8-9H,1H3
computed SMILES=OC=1C=C(O)C=C(C1)C
accession=JP004057
date=2016.01.19 (Created 2008.10.21, modified 2011.05.06)
author=MASS SPECTROSCOPY SOC. OF JAPAN (MSSJ)
license=CC BY-NC-SA
exact mass=124.05243
ionization energy=70 eV
ion type=[M]+*
computed spectral entropy=2.944889387052953
computed normalized entropy=0.7489877889148574
SPLASH=splash10-00di-9500000000-53de0f6e5775ab869216
submitter=submitter = University of Tokyo Team (Faculty of Engineering, University of Tokyo)
MoNA Rating=3.75

>  <NUM PEAKS>  (5278) 
51

>  <MASS SPECTRAL PEAKS>  (5278) 
14 1
15 1
17 1.1
18 0.46
26 3
27 11
28 7.4
29 0.5
31 1
32 1
37 2.9
38 0.7
39 22.4
40 4
41 12.2
42 0.38
43 11.3
45 1.2
50 7
51 1.32
52 5.7
53 10.1
54 1.5
55 1.22
61 6.9
62 5
63 3.4
65 0.38
66 4.9
67 12.1
68 0.9
69 1.2
74 1.3
77 10
78 9.1
79 0.2
81 5
82 1
83 1
84 0.1
85 1
94 1.5
95 15.4
96 0.46
105 1.8
106 3.9
107 8.2
122 0.26
123 5.1
124 99.99
125 7

$$$$

     RDKit          2D

  9  9  0  0  0  0  0  0  0  0999 V2000
   -2.5989    0.8302    0.0000 C   0  0  0  0  0  0  0  0  0  0  0  0
   -0.0000   -2.1700    0.0000 C   0  0  0  0  0  0  0  0  0  0  0  0
   -1.3000   -1.4200    0.0000 C   0  0  0  0  0  0  0  0  0  0  0  0
    1.3000   -1.4200    0.0000 C   0  0  0  0  0  0  0  0  0  0  0  0
   -1.3000    0.0800    0.0000 C   0  0  0  0  0  0  0  0  0  0  0  0
    1.3000    0.0800    0.0000 C   0  0  0  0  0  0  0  0  0  0  0  0
   -0.0000    0.8300    0.0000 C   0  0  0  0  0  0  0  0  0  0  0  0
    2.5989    0.8302    0.0000 O   0  0  0  0  0  0  0  0  0  0  0  0
    0.0000    2.3300    0.0000 O   0  0  0  0  0  0  0  0  0  0  0  0
  3  2  2  0
  4  2  1  0
  5  1  1  0
  5  3  1  0
  6  4  2  0
  7  5  2  0
  7  6  1  0
  8  6  1  0
  9  7  1  0
M  END
>  <NAME>  (5279) 
3-METHYLPYROCATECHOL

>  <SYNONYMS>  (5279) 


>  <SPECTRUM TYPE>  (5279) 
MS1

>  <INSTRUMENT TYPE>  (5279) 
EI-B

>  <INSTRUMENT>  (5279) 
HITACHI RMU-6L

>  <ION MODE>  (5279) 
P

>  <INCHIKEY>  (5279) 
PGSWEKYNAOWQDF-UHFFFAOYSA-N

>  <FORMULA>  (5279) 
C7H8O2

>  <EXACT MASS>  (5279) 
124.052429496

>  <MW>  (5279) 
124

>  <ID>  (5279) 
JP004056

>  <CONTRIBUTOR>  (5279) 
University of Tokyo Team, {Faculty of Engineering, University of Tokyo

>  <COMMENT>  (5279) 
SMILES=Cc(c1)c(O)c(O)cc1
InChI=InChI=1S/C7H8O2/c1-5-3-2-4-6(8)7(5)9/h2-4,8-9H,1H3
computed SMILES=OC1=CC=CC(=C1O)C
accession=JP004056
date=2016.01.19 (Created 2008.10.21, modified 2011.05.06)
author=MASS SPECTROSCOPY SOC. OF JAPAN (MSSJ)
license=CC BY-NC-SA
exact mass=124.05243
ionization energy=70 eV
ion type=[M]+*
computed spectral entropy=2.6517205181253827
computed normalized entropy=0.7050197906410538
SPLASH=splash10-00di-7900000000-30c68a9fce29834d697d
submitter=submitter = University of Tokyo Team (Faculty of Engineering, University of Tokyo)
MoNA Rating=3.75

>  <NUM PEAKS>  (5279) 
43

>  <MASS SPECTRAL PEAKS>  (5279) 
18 1.2
26 1.5
27 4
28 0.29
29 1.5
31 1.2
37 1.8
38 0.39
39 13.5
40 2
41 5.5
43 0.21
47 2.2
47.5 1.5
48 2
50 0.41
51 12.5
52 6.9
53 4.1
55 0.4
60 1
61 1
62 5.1
63 0.38
64 1
65 4.1
66 4.1
67 0.52
76 1.9
77 18.9
78 46.9
79 0.56
81 2
94 1.5
95 7.3
96 0.2
105 10.9
106 12.8
107 9.2
109 0.11
123 40.3
124 99.99
125 8.1

$$$$

     RDKit          2D

 10 10  0  0  0  0  0  0  0  0999 V2000
   -2.5981   -1.5000    0.0000 C   0  0  0  0  0  0  0  0  0  0  0  0
    2.5981    1.5000    0.0000 C   0  0  0  0  0  0  0  0  0  0  0  0
    0.0005   -1.5008    0.0000 C   0  0  0  0  0  0  0  0  0  0  0  0
   -0.0005    1.5008    0.0000 C   0  0  0  0  0  0  0  0  0  0  0  0
   -1.2990   -0.7500    0.0000 C   0  0  0  0  0  0  0  0  0  0  0  0
    1.2990    0.7500    0.0000 C   0  0  0  0  0  0  0  0  0  0  0  0
   -1.2995    0.7508    0.0000 C   0  0  0  0  0  0  0  0  0  0  0  0
    1.2995   -0.7508    0.0000 C   0  0  0  0  0  0  0  0  0  0  0  0
   -2.5987    1.5006    0.0000 O   0  0  0  0  0  0  0  0  0  0  0  0
    2.5987   -1.5006    0.0000 O   0  0  0  0  0  0  0  0  0  0  0  0
  5  1  1  0
  5  3  2  0
  6  2  1  0
  6  4  1  0
  7  4  2  0
  7  5  1  0
  8  3  1  0
  8  6  2  0
  9  7  1  0
 10  8  1  0
M  END
>  <NAME>  (5280) 
2,5-DIMETHYLHYDROQUINONE

>  <SYNONYMS>  (5280) 


>  <SPECTRUM TYPE>  (5280) 
MS1

>  <INSTRUMENT TYPE>  (5280) 
EI-B

>  <INSTRUMENT>  (5280) 
HITACHI RMU-6L

>  <ION MODE>  (5280) 
P

>  <INCHIKEY>  (5280) 
GPASWZHHWPVSRG-UHFFFAOYSA-N

>  <FORMULA>  (5280) 
C8H10O2

>  <EXACT MASS>  (5280) 
138.06807956

>  <MW>  (5280) 
138

>  <ID>  (5280) 
JP004055

>  <CONTRIBUTOR>  (5280) 
University of Tokyo Team, {Faculty of Engineering, University of Tokyo

>  <COMMENT>  (5280) 
SMILES=Cc(c1)c(O)cc(C)c(O)1
InChI=InChI=1S/C8H10O2/c1-5-3-8(10)6(2)4-7(5)9/h3-4,9-10H,1-2H3
computed SMILES=OC=1C=C(C(O)=CC1C)C
accession=JP004055
date=2016.01.19 (Created 2008.10.21, modified 2011.05.06)
author=MASS SPECTROSCOPY SOC. OF JAPAN (MSSJ)
license=CC BY-NC-SA
exact mass=138.06808
ionization energy=70 eV
ion type=[M]+*
computed spectral entropy=1.8625132865376086
computed normalized entropy=0.8956795606925377
SPLASH=splash10-000i-3900000000-15df6f50a7aac1b77c1a
submitter=submitter = University of Tokyo Team (Faculty of Engineering, University of Tokyo)
MoNA Rating=3.75

>  <NUM PEAKS>  (5280) 
8

>  <MASS SPECTRAL PEAKS>  (5280) 
39 33.9
40 25.2
68 42.9
79 1.68
123 79.8
136 54.9
137 37.7
138 99.99

$$$$

     RDKit          2D

 10 10  0  0  0  0  0  0  0  0999 V2000
   -1.6328    3.1878    0.0000 C   0  0  0  0  0  0  0  0  0  0  0  0
    3.5681    0.1904    0.0000 C   0  0  0  0  0  0  0  0  0  0  0  0
   -1.6200   -1.3100    0.0000 C   0  0  0  0  0  0  0  0  0  0  0  0
   -0.3300   -2.0600    0.0000 C   0  0  0  0  0  0  0  0  0  0  0  0
   -1.6200    0.1900    0.0000 C   0  0  0  0  0  0  0  0  0  0  0  0
    0.9700   -1.3100    0.0000 C   0  0  0  0  0  0  0  0  0  0  0  0
   -0.3300    0.9400    0.0000 C   0  0  0  0  0  0  0  0  0  0  0  0
    0.9700    0.1900    0.0000 C   0  0  0  0  0  0  0  0  0  0  0  0
   -0.3325    2.4400    0.0000 O   0  0  0  0  0  0  0  0  0  0  0  0
    2.2689    0.9402    0.0000 O   0  0  0  0  0  0  0  0  0  0  0  0
  4  3  2  0
  5  3  1  0
  6  4  1  0
  7  5  2  0
  8  6  2  0
  8  7  1  0
  9  1  1  0
  9  7  1  0
 10  2  1  0
 10  8  1  0
M  END
>  <NAME>  (5281) 
1,2-DIMETHOXYBENZENE

>  <SYNONYMS>  (5281) 


>  <SPECTRUM TYPE>  (5281) 
MS1

>  <INSTRUMENT TYPE>  (5281) 
EI-B

>  <INSTRUMENT>  (5281) 
HITACHI RMU-6L

>  <ION MODE>  (5281) 
P

>  <INCHIKEY>  (5281) 
ABDKAPXRBAPSQN-UHFFFAOYSA-N

>  <FORMULA>  (5281) 
C8H10O2

>  <EXACT MASS>  (5281) 
138.06807956

>  <MW>  (5281) 
138

>  <ID>  (5281) 
JP004054

>  <CONTRIBUTOR>  (5281) 
University of Tokyo Team, {Faculty of Engineering, University of Tokyo

>  <COMMENT>  (5281) 
SMILES=COc(c1)c(OC)ccc1
InChI=InChI=1S/C8H10O2/c1-9-7-5-3-4-6-8(7)10-2/h3-6H,1-2H3
computed SMILES=O(C=1C=CC=CC1OC)C
accession=JP004054
date=2016.01.19 (Created 2008.10.21, modified 2011.05.06)
author=MASS SPECTROSCOPY SOC. OF JAPAN (MSSJ)
license=CC BY-NC-SA
exact mass=138.06808
ionization energy=70 eV
ion type=[M]+*
computed spectral entropy=2.9382465003045106
computed normalized entropy=0.7549800029901046
SPLASH=splash10-000j-9500000000-ba3df3a0cec54fd4ddb1
submitter=submitter = University of Tokyo Team (Faculty of Engineering, University of Tokyo)
MoNA Rating=3.75

>  <NUM PEAKS>  (5281) 
49

>  <MASS SPECTRAL PEAKS>  (5281) 
26 10.5
27 3.2
28 2.6
29 0.95
30 2.1
31 3.6
37 3.5
38 0.85
39 14.2
40 2.4
41 22.1
42 0.26
49 2.1
50 14.7
51 4.7
52 3.42
53 7.5
54 3
55 4.1
61 0.19
62 4.8
63 4.8
64 9.4
65 2.26
66 3
67 9.2
73 2.1
74 0.32
75 2
76 2.5
77 36
78 0.41
79 3.8
80 11.8
81 6
92 0.59
93 5.5
94 2.2
95 61.7
96 0.5
107 2
109 2
110 1.8
121 0.26
122 3.5
123 41.3
124 3.2
138 99.99
139 8.3

$$$$

     RDKit          2D

 12 12  0  0  0  0  0  0  0  0999 V2000
   -1.2138    2.8682    0.0000 C   0  0  0  0  0  0  0  0  0  0  0  0
   -3.2629    2.3192    0.0000 C   0  0  0  0  0  0  0  0  0  0  0  0
   -2.7138    0.2701    0.0000 C   0  0  0  0  0  0  0  0  0  0  0  0
   -0.6653   -0.6817    0.0000 C   0  0  0  0  0  0  0  0  0  0  0  0
    0.6338   -1.4317    0.0000 C   0  0  0  0  0  0  0  0  0  0  0  0
    0.6347    1.5700    0.0000 C   0  0  0  0  0  0  0  0  0  0  0  0
   -0.6648    0.8192    0.0000 C   0  0  0  0  0  0  0  0  0  0  0  0
    1.9333   -0.6808    0.0000 C   0  0  0  0  0  0  0  0  0  0  0  0
    1.9338    0.8200    0.0000 C   0  0  0  0  0  0  0  0  0  0  0  0
   -1.9638    1.5692    0.0000 C   0  0  0  0  0  0  0  0  0  0  0  0
    3.2323   -1.4308    0.0000 O   0  0  0  0  0  0  0  0  0  0  0  0
    3.2329    1.5698    0.0000 O   0  0  0  0  0  0  0  0  0  0  0  0
  5  4  2  0
  7  4  1  0
  7  6  2  0
  8  5  1  0
  9  6  1  0
  9  8  2  0
 10  1  1  0
 10  2  1  0
 10  3  1  0
 10  7  1  0
 11  8  1  0
 12  9  1  0
M  END
>  <NAME>  (5282) 
4-TERT-BUTYLPYROCATECHOL

>  <SYNONYMS>  (5282) 


>  <SPECTRUM TYPE>  (5282) 
MS1

>  <INSTRUMENT TYPE>  (5282) 
EI-B

>  <INSTRUMENT>  (5282) 
HITACHI RMU-6L

>  <ION MODE>  (5282) 
P

>  <INCHIKEY>  (5282) 
XESZUVZBAMCAEJ-UHFFFAOYSA-N

>  <FORMULA>  (5282) 
C10H14O2

>  <EXACT MASS>  (5282) 
166.099379688

>  <MW>  (5282) 
166

>  <ID>  (5282) 
JP004053

>  <CONTRIBUTOR>  (5282) 
University of Tokyo Team, {Faculty of Engineering, University of Tokyo

>  <COMMENT>  (5282) 
SMILES=Oc(c1)c(O)cc(c1)C(C)(C)C
InChI=InChI=1S/C10H14O2/c1-10(2,3)7-4-5-8(11)9(12)6-7/h4-6,11-12H,1-3H3
computed SMILES=OC1=CC=C(C=C1O)C(C)(C)C
accession=JP004053
date=2016.01.19 (Created 2008.10.21, modified 2011.05.06)
author=MASS SPECTROSCOPY SOC. OF JAPAN (MSSJ)
license=CC BY-NC-SA
exact mass=166.09938
ionization energy=70 eV
ion type=[M]+*
computed spectral entropy=2.8323107150877056
computed normalized entropy=0.7005379173944251
SPLASH=splash10-0udi-3900000000-f9511f96cf0831db8723
submitter=submitter = University of Tokyo Team (Faculty of Engineering, University of Tokyo)
MoNA Rating=3.75

>  <NUM PEAKS>  (5282) 
57

>  <MASS SPECTRAL PEAKS>  (5282) 
18 1.8
27 3.1
28 2
29 0.21
39 5.7
41 7.5
43 3.4
50 0.1
51 4.5
52 2
53 3.5
55 0.33
57 1.5
58 1.1
62 1.5
63 0.23
64 1.8
65 3.9
66 2
67 0.16
74.5 1.5
75 1.5
75.5 1
77 0.65
78 1.7
79 3.1
80 2.8
81 0.13
89 2
91 1.8
93 3.8
94 0.15
95 1
99 2.7
103 2
104 0.12
105 7.2
106 1.2
107 3.7
108 0.6
109 4
110 3.2
111 6.5
117 0.12
119 1.3
123 17
124 1.8
133 0.25
135 8.2
136 1.5
137 5.5
150 0.29
151 99.99
152 10.8
153 1.3
166 2.91
167 3.9

$$$$

     RDKit          2D

 12 12  0  0  0  0  0  0  0  0999 V2000
   -5.1962    1.5000    0.0000 C   0  0  0  0  0  0  0  0  0  0  0  0
    5.1962   -1.5000    0.0000 C   0  0  0  0  0  0  0  0  0  0  0  0
   -3.8971    0.7500    0.0000 C   0  0  0  0  0  0  0  0  0  0  0  0
    3.8971   -0.7500    0.0000 C   0  0  0  0  0  0  0  0  0  0  0  0
   -1.2995   -0.7508    0.0000 C   0  0  0  0  0  0  0  0  0  0  0  0
    0.0005    1.5008    0.0000 C   0  0  0  0  0  0  0  0  0  0  0  0
   -0.0005   -1.5008    0.0000 C   0  0  0  0  0  0  0  0  0  0  0  0
    1.2995    0.7508    0.0000 C   0  0  0  0  0  0  0  0  0  0  0  0
   -1.2990    0.7500    0.0000 C   0  0  0  0  0  0  0  0  0  0  0  0
    1.2990   -0.7500    0.0000 C   0  0  0  0  0  0  0  0  0  0  0  0
   -2.5981    1.5000    0.0000 O   0  0  0  0  0  0  0  0  0  0  0  0
    2.5981   -1.5000    0.0000 O   0  0  0  0  0  0  0  0  0  0  0  0
  3  1  1  0
  4  2  1  0
  7  5  2  0
  8  6  1  0
  9  5  1  0
  9  6  2  0
 10  7  1  0
 10  8  2  0
 11  3  1  0
 11  9  1  0
 12  4  1  0
 12 10  1  0
M  END
>  <NAME>  (5283) 
1,4-DIETHOXYBENZENE

>  <SYNONYMS>  (5283) 


>  <SPECTRUM TYPE>  (5283) 
MS1

>  <INSTRUMENT TYPE>  (5283) 
EI-B

>  <INSTRUMENT>  (5283) 
HITACHI RMU-6L

>  <ION MODE>  (5283) 
P

>  <INCHIKEY>  (5283) 
VWGNFIQXBYRDCH-UHFFFAOYSA-N

>  <FORMULA>  (5283) 
C10H14O2

>  <EXACT MASS>  (5283) 
166.099379688

>  <MW>  (5283) 
166

>  <ID>  (5283) 
JP004052

>  <CONTRIBUTOR>  (5283) 
University of Tokyo Team, {Faculty of Engineering, University of Tokyo

>  <COMMENT>  (5283) 
SMILES=CCOc(c1)ccc(OCC)c1
InChI=InChI=1S/C10H14O2/c1-3-11-9-5-7-10(8-6-9)12-4-2/h5-8H,3-4H2,1-2H3
computed SMILES=O(C1=CC=C(OCC)C=C1)CC
accession=JP004052
date=2016.01.19 (Created 2008.10.21, modified 2011.05.06)
author=MASS SPECTROSCOPY SOC. OF JAPAN (MSSJ)
license=CC BY-NC-SA
exact mass=166.09938
ionization energy=70 eV
ion type=[M]+*
computed spectral entropy=2.1577092700568543
computed normalized entropy=0.6622606926703126
SPLASH=splash10-0900-2900000000-fc1bee0243556739f1ba
submitter=submitter = University of Tokyo Team (Faculty of Engineering, University of Tokyo)
MoNA Rating=3.75

>  <NUM PEAKS>  (5283) 
26

>  <MASS SPECTRAL PEAKS>  (5283) 
27 7.7
28 1.5
29 10.6
38 0.1
39 3
45 1
50 0.8
51 0.1
52 1.1
53 4.8
54 3
55 0.2
63 3
64 2.5
65 4
77 0.13
81 12.9
82 3.5
109 62.6
110 99.99
111 6.6
137 9.5
138 16.1
139 0.11
166 62.9
167 5.6

$$$$

     RDKit          2D

 13 13  0  0  0  0  0  0  0  0999 V2000
    2.8183   -1.1087    0.0000 C   0  0  0  0  0  0  0  0  0  0  0  0
    4.8672   -0.5594    0.0000 C   0  0  0  0  0  0  0  0  0  0  0  0
    4.3179    1.4896    0.0000 C   0  0  0  0  0  0  0  0  0  0  0  0
   -1.6328    3.1878    0.0000 C   0  0  0  0  0  0  0  0  0  0  0  0
   -1.6200   -1.3100    0.0000 C   0  0  0  0  0  0  0  0  0  0  0  0
   -0.3300   -2.0600    0.0000 C   0  0  0  0  0  0  0  0  0  0  0  0
   -1.6200    0.1900    0.0000 C   0  0  0  0  0  0  0  0  0  0  0  0
    0.9700   -1.3100    0.0000 C   0  0  0  0  0  0  0  0  0  0  0  0
   -0.3300    0.9400    0.0000 C   0  0  0  0  0  0  0  0  0  0  0  0
    0.9700    0.1900    0.0000 C   0  0  0  0  0  0  0  0  0  0  0  0
    3.5681    0.1904    0.0000 C   0  0  0  0  0  0  0  0  0  0  0  0
   -0.3325    2.4400    0.0000 O   0  0  0  0  0  0  0  0  0  0  0  0
    2.2689    0.9402    0.0000 O   0  0  0  0  0  0  0  0  0  0  0  0
  6  5  2  0
  7  5  1  0
  8  6  1  0
  9  7  2  0
 10  8  2  0
 10  9  1  0
 11  1  1  0
 11  2  1  0
 11  3  1  0
 12  4  1  0
 12  9  1  0
 13 10  1  0
 13 11  1  0
M  END
>  <NAME>  (5284) 
TERT-BUTYL 2-METHOXYPHENYL ETHER

>  <SYNONYMS>  (5284) 


>  <SPECTRUM TYPE>  (5284) 
MS1

>  <INSTRUMENT TYPE>  (5284) 
EI-B

>  <INSTRUMENT>  (5284) 
HITACHI RMU-6L

>  <ION MODE>  (5284) 
P

>  <INCHIKEY>  (5284) 
ZNBPFNPUNMLSMD-UHFFFAOYSA-N

>  <FORMULA>  (5284) 
C11H16O2

>  <EXACT MASS>  (5284) 
180.115029752

>  <MW>  (5284) 
180

>  <ID>  (5284) 
JP004051

>  <CONTRIBUTOR>  (5284) 
University of Tokyo Team, {Faculty of Engineering, University of Tokyo

>  <COMMENT>  (5284) 
SMILES=COc(c1)c(ccc1)OC(C)(C)C
InChI=InChI=1S/C11H16O2/c1-11(2,3)13-10-8-6-5-7-9(10)12-4/h5-8H,1-4H3
computed SMILES=O(C=1C=CC=CC1OC(C)(C)C)C
accession=JP004051
date=2016.01.19 (Created 2008.10.21, modified 2011.05.06)
author=MASS SPECTROSCOPY SOC. OF JAPAN (MSSJ)
license=CC BY-NC-SA
exact mass=180.11503
ionization energy=70 eV
ion type=[M]+*
computed spectral entropy=1.4808386689601152
computed normalized entropy=0.7121328680217905
SPLASH=splash10-014i-0900000000-c509c3dac930f7340461
submitter=submitter = University of Tokyo Team (Faculty of Engineering, University of Tokyo)
MoNA Rating=3.75

>  <NUM PEAKS>  (5284) 
8

>  <MASS SPECTRAL PEAKS>  (5284) 
77 6.6
105 11.5
133 9
137 0.89
165 99.99
166 13
179 15.8
180 28.4

$$$$

     RDKit          2D

 10 10  0  0  0  0  0  0  0  0999 V2000
   -3.9008    0.7413    0.0000 C   0  0  0  0  0  0  0  0  0  0  0  0
    0.0072   -1.5063    0.0000 C   0  0  0  0  0  0  0  0  0  0  0  0
    1.3207    0.7186    0.0000 C   0  0  0  0  0  0  0  0  0  0  0  0
   -1.2773   -0.7814    0.0000 C   0  0  0  0  0  0  0  0  0  0  0  0
   -0.0038    1.5127    0.0000 C   0  0  0  0  0  0  0  0  0  0  0  0
    2.6016   -1.5127    0.0000 C   0  0  0  0  0  0  0  0  0  0  0  0
    1.3062   -0.7563    0.0000 C   0  0  0  0  0  0  0  0  0  0  0  0
   -1.3028    0.7627    0.0000 C   0  0  0  0  0  0  0  0  0  0  0  0
    3.9043   -0.7691    0.0000 O   0  0  0  0  0  0  0  0  0  0  0  0
   -2.6080    1.5020    0.0000 O   0  0  0  0  0  0  0  0  0  0  0  0
  4  2  2  0
  5  3  1  0
  7  2  1  0
  7  3  2  0
  7  6  1  0
  8  4  1  0
  8  5  2  0
  9  6  2  0
 10  1  1  0
 10  8  1  0
M  END
>  <NAME>  (5285) 
PARA-METHOXYBENZALDEHYDE

>  <SYNONYMS>  (5285) 


>  <SPECTRUM TYPE>  (5285) 
MS1

>  <INSTRUMENT TYPE>  (5285) 
EI-B

>  <INSTRUMENT>  (5285) 
HITACHI RMU-6L

>  <ION MODE>  (5285) 
P

>  <INCHIKEY>  (5285) 
ZRSNZINYAWTAHE-UHFFFAOYSA-N

>  <FORMULA>  (5285) 
C8H8O2

>  <EXACT MASS>  (5285) 
136.052429496

>  <MW>  (5285) 
136

>  <ID>  (5285) 
JP004050

>  <CONTRIBUTOR>  (5285) 
University of Tokyo Team, {Faculty of Engineering, University of Tokyo

>  <COMMENT>  (5285) 
SMILES=O=Cc(c1)ccc(OC)c1
InChI=InChI=1S/C8H8O2/c1-10-8-4-2-7(6-9)3-5-8/h2-6H,1H3
computed SMILES=O=CC1=CC=C(OC)C=C1
accession=JP004050
date=2016.01.19 (Created 2008.10.21, modified 2011.05.06)
author=MASS SPECTROSCOPY SOC. OF JAPAN (MSSJ)
license=CC BY-NC-SA
exact mass=136.05243
ionization energy=70 eV
ion type=[M]+*
computed spectral entropy=2.5999479012946742
computed normalized entropy=0.720024094757327
SPLASH=splash10-000i-9600000000-005ef37f7e37a0e55681
submitter=submitter = University of Tokyo Team (Faculty of Engineering, University of Tokyo)
MoNA Rating=3.75

>  <NUM PEAKS>  (5285) 
37

>  <MASS SPECTRAL PEAKS>  (5285) 
26 2.1
27 3.5
28 12.8
29 1.66
30 1.2
31 1.1
32 2.2
37 0.45
38 10.5
39 18.1
49 1.2
50 1.3
51 12.2
52 1.9
53 2.8
62 0.6
63 15.1
64 11.9
66 2.3
73 0.12
74 5.2
75 3
76 42.5
77 3.15
78 3.4
79 2
84 1.9
92 1.86
93 3.6
105 1.5
107 11.3
108 0.25
109 2
124 1.8
135 99.99
136 6.92
137 5

$$$$

     RDKit          2D

 10 10  0  0  0  0  0  0  0  0999 V2000
   -3.5794    0.1813    0.0000 C   0  0  0  0  0  0  0  0  0  0  0  0
    0.3223   -2.0565    0.0000 C   0  0  0  0  0  0  0  0  0  0  0  0
    1.6168   -1.3143    0.0000 C   0  0  0  0  0  0  0  0  0  0  0  0
   -0.9768   -1.3065    0.0000 C   0  0  0  0  0  0  0  0  0  0  0  0
    0.3182    0.9365    0.0000 C   0  0  0  0  0  0  0  0  0  0  0  0
    2.9164    0.9363    0.0000 C   0  0  0  0  0  0  0  0  0  0  0  0
    1.6173    0.1865    0.0000 C   0  0  0  0  0  0  0  0  0  0  0  0
   -0.9813    0.1857    0.0000 C   0  0  0  0  0  0  0  0  0  0  0  0
    4.2153    0.1861    0.0000 O   0  0  0  0  0  0  0  0  0  0  0  0
   -2.2816    0.9335    0.0000 O   0  0  0  0  0  0  0  0  0  0  0  0
  3  2  2  0
  4  2  1  0
  7  3  1  0
  7  5  2  0
  7  6  1  0
  8  4  2  0
  8  5  1  0
  9  6  2  0
 10  1  1  0
 10  8  1  0
M  END
>  <NAME>  (5286) 
META-METHOXYBENZALDEHYDE

>  <SYNONYMS>  (5286) 


>  <SPECTRUM TYPE>  (5286) 
MS1

>  <INSTRUMENT TYPE>  (5286) 
EI-B

>  <INSTRUMENT>  (5286) 
HITACHI RMU-6L

>  <ION MODE>  (5286) 
P

>  <INCHIKEY>  (5286) 
WMPDAIZRQDCGFH-UHFFFAOYSA-N

>  <FORMULA>  (5286) 
C8H8O2

>  <EXACT MASS>  (5286) 
136.052429496

>  <MW>  (5286) 
136

>  <ID>  (5286) 
JP004049

>  <CONTRIBUTOR>  (5286) 
University of Tokyo Team, {Faculty of Engineering, University of Tokyo

>  <COMMENT>  (5286) 
SMILES=O=Cc(c1)cc(OC)cc1
InChI=InChI=1S/C8H8O2/c1-10-8-4-2-3-7(5-8)6-9/h2-6H,1H3
computed SMILES=O=CC=1C=CC=C(OC)C1
accession=JP004049
date=2016.01.19 (Created 2008.10.21, modified 2011.05.06)
author=MASS SPECTROSCOPY SOC. OF JAPAN (MSSJ)
license=CC BY-NC-SA
exact mass=136.05243
ionization energy=70 eV
ion type=[M]+*
computed spectral entropy=1.644339786980735
computed normalized entropy=0.790760285404507
SPLASH=splash10-000i-2900000000-9f5cfeb0078b71478646
submitter=submitter = University of Tokyo Team (Faculty of Engineering, University of Tokyo)
MoNA Rating=3.75

>  <NUM PEAKS>  (5286) 
8

>  <MASS SPECTRAL PEAKS>  (5286) 
39 12.1
63 12.3
65 18.5
77 3.44
92 16.9
107 37.1
135 95.1
136 99.99

$$$$

     RDKit          2D

 10 10  0  0  0  0  0  0  0  0999 V2000
    1.9487   -3.0002    0.0000 C   0  0  0  0  0  0  0  0  0  0  0  0
   -1.9500    0.7500    0.0000 C   0  0  0  0  0  0  0  0  0  0  0  0
   -1.9500   -0.7500    0.0000 C   0  0  0  0  0  0  0  0  0  0  0  0
   -0.6500    1.5000    0.0000 C   0  0  0  0  0  0  0  0  0  0  0  0
   -0.6500   -1.5000    0.0000 C   0  0  0  0  0  0  0  0  0  0  0  0
    1.9489    1.5002    0.0000 C   0  0  0  0  0  0  0  0  0  0  0  0
    0.6500    0.7500    0.0000 C   0  0  0  0  0  0  0  0  0  0  0  0
    0.6500   -0.7500    0.0000 C   0  0  0  0  0  0  0  0  0  0  0  0
    1.9487    3.0002    0.0000 O   0  0  0  0  0  0  0  0  0  0  0  0
    1.9489   -1.5002    0.0000 O   0  0  0  0  0  0  0  0  0  0  0  0
  3  2  2  0
  4  2  1  0
  5  3  1  0
  7  4  2  0
  7  6  1  0
  8  5  2  0
  8  7  1  0
  9  6  2  0
 10  1  1  0
 10  8  1  0
M  END
>  <NAME>  (5287) 
ORTHO-METHOXYBENZALDEHYDE

>  <SYNONYMS>  (5287) 


>  <SPECTRUM TYPE>  (5287) 
MS1

>  <INSTRUMENT TYPE>  (5287) 
EI-B

>  <INSTRUMENT>  (5287) 
HITACHI RMU-6L

>  <ION MODE>  (5287) 
P

>  <INCHIKEY>  (5287) 
PKZJLOCLABXVMC-UHFFFAOYSA-N

>  <FORMULA>  (5287) 
C8H8O2

>  <EXACT MASS>  (5287) 
136.052429496

>  <MW>  (5287) 
136

>  <ID>  (5287) 
JP004048

>  <CONTRIBUTOR>  (5287) 
University of Tokyo Team, {Faculty of Engineering, University of Tokyo

>  <COMMENT>  (5287) 
SMILES=O=Cc(c1)c(OC)ccc1
InChI=InChI=1S/C8H8O2/c1-10-8-5-3-2-4-7(8)6-9/h2-6H,1H3
computed SMILES=O=CC=1C=CC=CC1OC
accession=JP004048
date=2016.01.19 (Created 2008.10.21, modified 2011.05.06)
author=MASS SPECTROSCOPY SOC. OF JAPAN (MSSJ)
license=CC BY-NC-SA
exact mass=136.05243
ionization energy=70 eV
ion type=[M]+*
computed spectral entropy=3.1579861443318142
computed normalized entropy=0.7992385105177952
SPLASH=splash10-002r-9800000000-dd6b039b2c5380ea27a9
submitter=submitter = University of Tokyo Team (Faculty of Engineering, University of Tokyo)
MoNA Rating=3.75

>  <NUM PEAKS>  (5287) 
52

>  <MASS SPECTRAL PEAKS>  (5287) 
15 2.3
18 2
26 1.6
27 0.34
28 2.9
29 3
31 2.1
37 0.2
38 7.3
39 20.4
40 1.9
49 0.16
50 9
51 17.9
52 3.4
53 0.52
56 2.2
61 2.5
62 3.5
63 1.41
64 11.6
65 22
74 4.5
75 0.35
76 29.1
77 57
78 21.7
79 1.73
80 2.2
81 5.1
89 2.7
90 1.44
91 14
92 21.2
93 7.3
94 0.85
104 22
105 17.3
106 1.8
107 1.13
108 2
109 10
118 24.5
119 2.72
120 7
121 14.9
122 3.5
124 0.8
135 52.5
136 99.99
137 10
138 3.1

$$$$

     RDKit          2D

  8  7  0  0  0  0  0  0  0  0999 V2000
   -1.2990    2.2500    0.0000 C   0  0  0  0  0  0  0  0  0  0  0  0
   -1.2990    3.7500    0.0000 C   0  0  0  0  0  0  0  0  0  0  0  0
    0.0000    1.5000    0.0000 C   0  0  0  0  0  0  0  0  0  0  0  0
   -2.5981    4.5000    0.0000 C   0  0  0  0  0  0  0  0  0  0  0  0
    0.0000    0.0000    0.0000 O   0  0  0  0  0  0  0  0  0  0  0  0
    1.2990    2.2500    0.0000 O   0  0  0  0  0  0  0  0  0  0  0  0
   -3.8971    3.7500    0.0000 O   0  0  0  0  0  0  0  0  0  0  0  0
   -2.5981    6.0000    0.0000 O   0  0  0  0  0  0  0  0  0  0  0  0
  1  2  2  0
  3  1  1  0
  4  2  1  0
  5  3  2  0
  6  3  1  0
  7  4  2  0
  8  4  1  0
M  END
>  <NAME>  (5288) 
Fumaric acid

>  <SYNONYMS>  (5288) 
trans-Butenedioic acid

>  <SPECTRUM TYPE>  (5288) 
MS1

>  <INSTRUMENT TYPE>  (5288) 
EI-B

>  <INSTRUMENT>  (5288) 
HITACHI RMU-6L

>  <ION MODE>  (5288) 
P

>  <INCHIKEY>  (5288) 
VZCYOOQTPOCHFL-OWOJBTEDSA-N

>  <FORMULA>  (5288) 
C4H4O4

>  <EXACT MASS>  (5288) 
116.010958608

>  <MW>  (5288) 
116

>  <ID>  (5288) 
JP004047

>  <CONTRIBUTOR>  (5288) 
University of Tokyo Team, {Faculty of Engineering, University of Tokyo

>  <COMMENT>  (5288) 
SMILES=C(=C/C(=O)O)\C(=O)O
cas=110-17-8
chebi=18012
chemspider=10197150
kegg=C00122
pubchem cid=444972
InChI=InChI=1S/C4H4O4/c5-3(6)1-2-4(7)8/h1-2H,(H,5,6)(H,7,8)/b2-1+
computed SMILES=O=C(O)C=CC(=O)O
accession=JP004047
date=2016.01.19 (Created 2008.10.21, modified 2011.05.06)
author=MASS SPECTROSCOPY SOC. OF JAPAN (MSSJ)
license=CC BY-NC-SA
exact mass=116.01096
ionization energy=70 eV
ion type=[M]+*
computed spectral entropy=1.8057959882897547
computed normalized entropy=0.868404305720938
SPLASH=splash10-0002-9100000000-2cf649749b42cc0c610c
submitter=submitter = University of Tokyo Team (Faculty of Engineering, University of Tokyo)
MoNA Rating=3.75

>  <NUM PEAKS>  (5288) 
8

>  <MASS SPECTRAL PEAKS>  (5288) 
44 20.5
45 68.1
52 33.5
54 1.95
71 17.3
98 99.99
99 39.5
116 35.9

$$$$

     RDKit          2D

  8  7  0  0  0  0  0  0  0  0999 V2000
   -1.2990    3.7500    0.0000 C   0  0  0  0  0  0  0  0  0  0  0  0
    0.0000    4.5000    0.0000 C   0  0  0  0  0  0  0  0  0  0  0  0
   -1.2990    2.2500    0.0000 C   0  0  0  0  0  0  0  0  0  0  0  0
    1.2990    3.7500    0.0000 C   0  0  0  0  0  0  0  0  0  0  0  0
   -2.5981    1.5000    0.0000 O   0  0  0  0  0  0  0  0  0  0  0  0
   -0.0000    1.5000    0.0000 O   0  0  0  0  0  0  0  0  0  0  0  0
    1.2990    2.2500    0.0000 O   0  0  0  0  0  0  0  0  0  0  0  0
    2.5981    4.5000    0.0000 O   0  0  0  0  0  0  0  0  0  0  0  0
  1  2  2  0
  3  1  1  0
  4  2  1  0
  5  3  2  0
  6  3  1  0
  7  4  2  0
  8  4  1  0
M  END
>  <NAME>  (5289) 
MALEIC ACID

>  <SYNONYMS>  (5289) 


>  <SPECTRUM TYPE>  (5289) 
MS1

>  <INSTRUMENT TYPE>  (5289) 
EI-B

>  <INSTRUMENT>  (5289) 
HITACHI RMU-6L

>  <ION MODE>  (5289) 
P

>  <INCHIKEY>  (5289) 
VZCYOOQTPOCHFL-UPHRSURJSA-N

>  <FORMULA>  (5289) 
C4H4O4

>  <EXACT MASS>  (5289) 
116.010958608

>  <MW>  (5289) 
116

>  <ID>  (5289) 
JP004046

>  <CONTRIBUTOR>  (5289) 
University of Tokyo Team, {Faculty of Engineering, University of Tokyo

>  <COMMENT>  (5289) 
SMILES=OC(=O)C=CC(O)=O
InChI=InChI=1S/C4H4O4/c5-3(6)1-2-4(7)8/h1-2H,(H,5,6)(H,7,8)/b2-1-
computed SMILES=O=C(O)C=CC(=O)O
accession=JP004046
date=2016.01.19 (Created 2008.10.21, modified 2011.05.06)
author=MASS SPECTROSCOPY SOC. OF JAPAN (MSSJ)
license=CC BY-NC-SA
exact mass=116.01096
ionization energy=70 eV
ion type=[M]+*
computed spectral entropy=2.26182838141987
computed normalized entropy=0.6787783806525565
SPLASH=splash10-0uxs-9000000000-d768b92d45a58ec32ec7
submitter=submitter = University of Tokyo Team (Faculty of Engineering, University of Tokyo)
MoNA Rating=3.75

>  <NUM PEAKS>  (5289) 
28

>  <MASS SPECTRAL PEAKS>  (5289) 
12 2.9
13 3
14 3.2
17 1.25
18 60.7
24 2.8
25 12
26 9.11
27 4.9
28 9.1
29 4
32 0.21
36 2.3
37 3.1
41 6.5
42 0.25
44 6.2
45 4.5
52 3.2
53 1.08
54 99.99
55 4.1
73 3.5
77 0.19
96 3.5
98 52.2
99 2.3
105 2.2

$$$$

     RDKit          2D

 12 11  0  0  0  0  0  0  0  0999 V2000
    3.2476    4.8750    0.0000 C   0  0  0  0  0  0  0  0  0  0  0  0
   -8.4437    5.6250    0.0000 C   0  0  0  0  0  0  0  0  0  0  0  0
    1.9486    5.6250    0.0000 C   0  0  0  0  0  0  0  0  0  0  0  0
   -7.1447    4.8750    0.0000 C   0  0  0  0  0  0  0  0  0  0  0  0
   -1.9486    4.8750    0.0000 C   0  0  0  0  0  0  0  0  0  0  0  0
   -3.2476    5.6250    0.0000 C   0  0  0  0  0  0  0  0  0  0  0  0
   -0.6495    5.6250    0.0000 C   0  0  0  0  0  0  0  0  0  0  0  0
   -4.5466    4.8750    0.0000 C   0  0  0  0  0  0  0  0  0  0  0  0
   -0.6495    7.1250    0.0000 O   0  0  0  0  0  0  0  0  0  0  0  0
   -4.5466    3.3750    0.0000 O   0  0  0  0  0  0  0  0  0  0  0  0
    0.6495    4.8750    0.0000 O   0  0  0  0  0  0  0  0  0  0  0  0
   -5.8457    5.6250    0.0000 O   0  0  0  0  0  0  0  0  0  0  0  0
  3  1  1  0
  4  2  1  0
  5  6  2  0
  7  5  1  0
  8  6  1  0
  9  7  2  0
 10  8  2  0
 11  3  1  0
 11  7  1  0
 12  4  1  0
 12  8  1  0
M  END
>  <NAME>  (5290) 
DIETHYL FUMARATE

>  <SYNONYMS>  (5290) 


>  <SPECTRUM TYPE>  (5290) 
MS1

>  <INSTRUMENT TYPE>  (5290) 
EI-B

>  <INSTRUMENT>  (5290) 
HITACHI RMU-6L

>  <ION MODE>  (5290) 
P

>  <INCHIKEY>  (5290) 
IEPRKVQEAMIZSS-AATRIKPKSA-N

>  <FORMULA>  (5290) 
C8H12O4

>  <EXACT MASS>  (5290) 
172.073558864

>  <MW>  (5290) 
172

>  <ID>  (5290) 
JP004045

>  <CONTRIBUTOR>  (5290) 
University of Tokyo Team, {Faculty of Engineering, University of Tokyo

>  <COMMENT>  (5290) 
SMILES=CCOC(=O)C=CC(=O)OCC
InChI=InChI=1S/C8H12O4/c1-3-11-7(9)5-6-8(10)12-4-2/h5-6H,3-4H2,1-2H3/b6-5+
computed SMILES=O=C(OCC)C=CC(=O)OCC
accession=JP004045
date=2016.01.19 (Created 2008.10.21, modified 2011.05.06)
author=MASS SPECTROSCOPY SOC. OF JAPAN (MSSJ)
license=CC BY-NC-SA
exact mass=172.07356
ionization energy=70 eV
ion type=[M]+*
computed spectral entropy=1.9188006749426838
computed normalized entropy=0.6516693633385771
SPLASH=splash10-004j-7900000000-97f05f940fc7d080c359
submitter=submitter = University of Tokyo Team (Faculty of Engineering, University of Tokyo)
MoNA Rating=3.75

>  <NUM PEAKS>  (5290) 
19

>  <MASS SPECTRAL PEAKS>  (5290) 
69 3.1
71 13.5
72 4
73 0.32
81 7.5
82 17.3
83 2.7
98 0.32
99 76
100 11.6
101 2.8
117 0.39
125 2.3
126 25.3
127 99.99
128 1
129 2.3
143 4
145 2

$$$$

     RDKit          2D

 12 11  0  0  0  0  0  0  0  0999 V2000
   -5.1962    1.5000    0.0000 C   0  0  0  0  0  0  0  0  0  0  0  0
    3.8971    6.7500    0.0000 C   0  0  0  0  0  0  0  0  0  0  0  0
   -3.8971    2.2500    0.0000 C   0  0  0  0  0  0  0  0  0  0  0  0
    2.5981    6.0000    0.0000 C   0  0  0  0  0  0  0  0  0  0  0  0
   -2.5981    6.0000    0.0000 C   0  0  0  0  0  0  0  0  0  0  0  0
   -1.2990    6.7500    0.0000 C   0  0  0  0  0  0  0  0  0  0  0  0
   -2.5981    4.5000    0.0000 C   0  0  0  0  0  0  0  0  0  0  0  0
    0.0000    6.0000    0.0000 C   0  0  0  0  0  0  0  0  0  0  0  0
   -1.2990    3.7500    0.0000 O   0  0  0  0  0  0  0  0  0  0  0  0
    0.0000    4.5000    0.0000 O   0  0  0  0  0  0  0  0  0  0  0  0
   -3.8971    3.7500    0.0000 O   0  0  0  0  0  0  0  0  0  0  0  0
    1.2990    6.7500    0.0000 O   0  0  0  0  0  0  0  0  0  0  0  0
  3  1  1  0
  4  2  1  0
  5  6  2  0
  7  5  1  0
  8  6  1  0
  9  7  2  0
 10  8  2  0
 11  3  1  0
 11  7  1  0
 12  4  1  0
 12  8  1  0
M  END
>  <NAME>  (5291) 
DIETHYL MALEATE

>  <SYNONYMS>  (5291) 


>  <SPECTRUM TYPE>  (5291) 
MS1

>  <INSTRUMENT TYPE>  (5291) 
EI-B

>  <INSTRUMENT>  (5291) 
HITACHI RMU-6L

>  <ION MODE>  (5291) 
P

>  <INCHIKEY>  (5291) 
IEPRKVQEAMIZSS-WAYWQWQTSA-N

>  <FORMULA>  (5291) 
C8H12O4

>  <EXACT MASS>  (5291) 
172.073558864

>  <MW>  (5291) 
172

>  <ID>  (5291) 
JP004044

>  <CONTRIBUTOR>  (5291) 
University of Tokyo Team, {Faculty of Engineering, University of Tokyo

>  <COMMENT>  (5291) 
SMILES=CCOC(=O)C=CC(=O)OCC
InChI=InChI=1S/C8H12O4/c1-3-11-7(9)5-6-8(10)12-4-2/h5-6H,3-4H2,1-2H3/b6-5-
computed SMILES=O=C(OCC)C=CC(=O)OCC
accession=JP004044
date=2016.01.19 (Created 2008.10.21, modified 2011.05.06)
author=MASS SPECTROSCOPY SOC. OF JAPAN (MSSJ)
license=CC BY-NC-SA
exact mass=172.07356
ionization energy=70 eV
ion type=[M]+*
computed spectral entropy=2.203201049372143
computed normalized entropy=0.7354465780609869
SPLASH=splash10-002b-9700000000-b8b2e754c193242cc346
submitter=submitter = University of Tokyo Team (Faculty of Engineering, University of Tokyo)
MoNA Rating=3.75

>  <NUM PEAKS>  (5291) 
20

>  <MASS SPECTRAL PEAKS>  (5291) 
69 2.5
71 16.6
72 8
73 0.23
81 4.5
82 27.2
83 3.1
98 0.6
99 99.99
100 33.5
101 3.1
117 0.31
118 2
125 4.3
126 44.5
127 9.63
128 24.6
129 3
143 9
145 3.5

$$$$

     RDKit          2D

 10 10  0  0  0  0  0  0  0  0999 V2000
   -0.0000   -3.0000    0.0000 C   0  0  0  0  0  0  0  0  0  0  0  0
    2.5989    1.5002    0.0000 C   0  0  0  0  0  0  0  0  0  0  0  0
   -2.5989    1.5002    0.0000 C   0  0  0  0  0  0  0  0  0  0  0  0
    1.3000   -0.7500    0.0000 C   0  0  0  0  0  0  0  0  0  0  0  0
   -1.3000   -0.7500    0.0000 C   0  0  0  0  0  0  0  0  0  0  0  0
   -0.0000   -1.5000    0.0000 C   0  0  0  0  0  0  0  0  0  0  0  0
    1.3000    0.7500    0.0000 C   0  0  0  0  0  0  0  0  0  0  0  0
   -1.3000    0.7500    0.0000 C   0  0  0  0  0  0  0  0  0  0  0  0
   -0.0000    1.5000    0.0000 C   0  0  0  0  0  0  0  0  0  0  0  0
    0.0000    3.0000    0.0000 O   0  0  0  0  0  0  0  0  0  0  0  0
  6  1  1  0
  6  4  2  0
  6  5  1  0
  7  2  1  0
  7  4  1  0
  8  3  1  0
  8  5  2  0
  9  7  2  0
  9  8  1  0
 10  9  1  0
M  END
>  <NAME>  (5292) 
2,4,6-TRIMETHYLPHENOL

>  <SYNONYMS>  (5292) 


>  <SPECTRUM TYPE>  (5292) 
MS1

>  <INSTRUMENT TYPE>  (5292) 
EI-B

>  <INSTRUMENT>  (5292) 
HITACHI RMU-6L

>  <ION MODE>  (5292) 
P

>  <INCHIKEY>  (5292) 
BPRYUXCVCCNUFE-UHFFFAOYSA-N

>  <FORMULA>  (5292) 
C9H12O

>  <EXACT MASS>  (5292) 
136.088815004

>  <MW>  (5292) 
136

>  <ID>  (5292) 
JP004043

>  <CONTRIBUTOR>  (5292) 
University of Tokyo Team, {Faculty of Engineering, University of Tokyo

>  <COMMENT>  (5292) 
SMILES=Cc(c1)cc(C)c(O)c(C)1
InChI=InChI=1S/C9H12O/c1-6-4-7(2)9(10)8(3)5-6/h4-5,10H,1-3H3
computed SMILES=OC=1C(=CC(=CC1C)C)C
accession=JP004043
date=2016.01.19 (Created 2008.10.21, modified 2011.05.06)
author=MASS SPECTROSCOPY SOC. OF JAPAN (MSSJ)
license=CC BY-NC-SA
exact mass=136.08882
ionization energy=70 eV
ion type=[M]+*
computed spectral entropy=2.2630382447417094
computed normalized entropy=0.6315128463411152
SPLASH=splash10-0079-2900000000-96d1b2eeedae4adc640d
submitter=submitter = University of Tokyo Team (Faculty of Engineering, University of Tokyo)
MoNA Rating=3.75

>  <NUM PEAKS>  (5292) 
36

>  <MASS SPECTRAL PEAKS>  (5292) 
27 2.6
28 4.1
29 1.8
39 0.69
40 1.2
41 4.5
43 2.2
51 0.4
52 1.3
53 3
55 1.5
57 0.18
63 2.1
65 4.4
66 2
67 0.49
68 2.3
77 9.3
78 2
79 0.43
91 16
92 2
93 5.1
94 0.15
103 4
105 1.8
107 2
108 0.15
117 4.5
118 2.5
119 2
121 99.99
122 8
135 34.8
136 98
137 8.6

$$$$

     RDKit          2D

 10 10  0  0  0  0  0  0  0  0999 V2000
    1.2990   -3.4200    0.0000 C   0  0  0  0  0  0  0  0  0  0  0  0
   -2.5989    1.8302    0.0000 C   0  0  0  0  0  0  0  0  0  0  0  0
   -0.0000   -2.6700    0.0000 C   0  0  0  0  0  0  0  0  0  0  0  0
    0.0000    1.8300    0.0000 C   0  0  0  0  0  0  0  0  0  0  0  0
    1.3000    1.0800    0.0000 C   0  0  0  0  0  0  0  0  0  0  0  0
   -1.3000   -0.4200    0.0000 C   0  0  0  0  0  0  0  0  0  0  0  0
   -1.3000    1.0800    0.0000 C   0  0  0  0  0  0  0  0  0  0  0  0
    0.0000   -1.1700    0.0000 C   0  0  0  0  0  0  0  0  0  0  0  0
    1.3000   -0.4200    0.0000 C   0  0  0  0  0  0  0  0  0  0  0  0
    2.5989   -1.1702    0.0000 O   0  0  0  0  0  0  0  0  0  0  0  0
  3  1  1  0
  5  4  2  0
  7  2  1  0
  7  4  1  0
  7  6  2  0
  8  3  1  0
  8  6  1  0
  9  5  1  0
  9  8  2  0
 10  9  1  0
M  END
>  <NAME>  (5293) 
2-ETHYL-4-METHYLPHENOL

>  <SYNONYMS>  (5293) 


>  <SPECTRUM TYPE>  (5293) 
MS1

>  <INSTRUMENT TYPE>  (5293) 
EI-B

>  <INSTRUMENT>  (5293) 
HITACHI RMU-6L

>  <ION MODE>  (5293) 
P

>  <INCHIKEY>  (5293) 
AVVVXUXMKWPKAJ-UHFFFAOYSA-N

>  <FORMULA>  (5293) 
C9H12O

>  <EXACT MASS>  (5293) 
136.088815004

>  <MW>  (5293) 
136

>  <ID>  (5293) 
JP004042

>  <CONTRIBUTOR>  (5293) 
University of Tokyo Team, {Faculty of Engineering, University of Tokyo

>  <COMMENT>  (5293) 
SMILES=CCc(c1)c(O)ccc(C)1
InChI=InChI=1S/C9H12O/c1-3-8-6-7(2)4-5-9(8)10/h4-6,10H,3H2,1-2H3
computed SMILES=OC1=CC=C(C=C1CC)C
accession=JP004042
date=2016.01.19 (Created 2008.10.21, modified 2011.05.06)
author=MASS SPECTROSCOPY SOC. OF JAPAN (MSSJ)
license=CC BY-NC-SA
exact mass=136.08882
ionization energy=70 eV
ion type=[M]+*
computed spectral entropy=1.7394407283976334
computed normalized entropy=0.8364941709265175
SPLASH=splash10-00di-4900000000-c82a07b4f4067052ca9b
submitter=submitter = University of Tokyo Team (Faculty of Engineering, University of Tokyo)
MoNA Rating=3.75

>  <NUM PEAKS>  (5293) 
8

>  <MASS SPECTRAL PEAKS>  (5293) 
27 20.2
49 18.2
51 15.6
77 2.5
91 22.4
107 26.1
121 99.99
136 38.5

$$$$

     RDKit          2D

 10 10  0  0  0  0  0  0  0  0999 V2000
   -3.5376   -0.2051    0.0000 C   0  0  0  0  0  0  0  0  0  0  0  0
    2.9576    2.0449    0.0000 C   0  0  0  0  0  0  0  0  0  0  0  0
   -2.2386   -0.9551    0.0000 C   0  0  0  0  0  0  0  0  0  0  0  0
    0.3590    2.0458    0.0000 C   0  0  0  0  0  0  0  0  0  0  0  0
   -0.9400    1.2958    0.0000 C   0  0  0  0  0  0  0  0  0  0  0  0
    1.6590   -0.2059    0.0000 C   0  0  0  0  0  0  0  0  0  0  0  0
    1.6585    1.2949    0.0000 C   0  0  0  0  0  0  0  0  0  0  0  0
   -0.9395   -0.2051    0.0000 C   0  0  0  0  0  0  0  0  0  0  0  0
    0.3600   -0.9559    0.0000 C   0  0  0  0  0  0  0  0  0  0  0  0
    0.3597   -2.4559    0.0000 O   0  0  0  0  0  0  0  0  0  0  0  0
  3  1  1  0
  5  4  2  0
  7  2  1  0
  7  4  1  0
  7  6  2  0
  8  3  1  0
  8  5  1  0
  9  6  1  0
  9  8  2  0
 10  9  1  0
M  END
>  <NAME>  (5294) 
2-ETHYL-5-METHYLPHENOL

>  <SYNONYMS>  (5294) 


>  <SPECTRUM TYPE>  (5294) 
MS1

>  <INSTRUMENT TYPE>  (5294) 
EI-B

>  <INSTRUMENT>  (5294) 
HITACHI RMU-6L

>  <ION MODE>  (5294) 
P

>  <INCHIKEY>  (5294) 
LTRVUFFOMIUCPJ-UHFFFAOYSA-N

>  <FORMULA>  (5294) 
C9H12O

>  <EXACT MASS>  (5294) 
136.088815004

>  <MW>  (5294) 
136

>  <ID>  (5294) 
JP004041

>  <CONTRIBUTOR>  (5294) 
University of Tokyo Team, {Faculty of Engineering, University of Tokyo

>  <COMMENT>  (5294) 
SMILES=CCc(c1)c(O)cc(C)c1
InChI=InChI=1S/C9H12O/c1-3-8-5-4-7(2)6-9(8)10/h4-6,10H,3H2,1-2H3
computed SMILES=OC1=CC(=CC=C1CC)C
accession=JP004041
date=2016.01.19 (Created 2008.10.21, modified 2011.05.06)
author=MASS SPECTROSCOPY SOC. OF JAPAN (MSSJ)
license=CC BY-NC-SA
exact mass=136.08882
ionization energy=70 eV
ion type=[M]+*
computed spectral entropy=1.5323105371544343
computed normalized entropy=0.7368856043515354
SPLASH=splash10-00di-3900000000-a1a51d0e8167c1c1489b
submitter=submitter = University of Tokyo Team (Faculty of Engineering, University of Tokyo)
MoNA Rating=3.75

>  <NUM PEAKS>  (5294) 
8

>  <MASS SPECTRAL PEAKS>  (5294) 
27 11.2
39 14
51 8
77 1.65
91 18.5
121 99.99
122 9.2
136 31.9

$$$$

     RDKit          2D

 10 10  0  0  0  0  0  0  0  0999 V2000
   -3.8975   -0.4204    0.0000 C   0  0  0  0  0  0  0  0  0  0  0  0
    2.5982   -1.1699    0.0000 C   0  0  0  0  0  0  0  0  0  0  0  0
   -2.5986   -1.1706    0.0000 C   0  0  0  0  0  0  0  0  0  0  0  0
   -1.2989    1.0801    0.0000 C   0  0  0  0  0  0  0  0  0  0  0  0
    0.0006    1.8309    0.0000 C   0  0  0  0  0  0  0  0  0  0  0  0
   -0.0004   -1.1708    0.0000 C   0  0  0  0  0  0  0  0  0  0  0  0
    1.2991   -0.4199    0.0000 C   0  0  0  0  0  0  0  0  0  0  0  0
   -1.2994   -0.4208    0.0000 C   0  0  0  0  0  0  0  0  0  0  0  0
    1.2996    1.0809    0.0000 C   0  0  0  0  0  0  0  0  0  0  0  0
    2.5988    1.8307    0.0000 O   0  0  0  0  0  0  0  0  0  0  0  0
  3  1  1  0
  5  4  2  0
  7  2  1  0
  7  6  1  0
  8  3  1  0
  8  4  1  0
  8  6  2  0
  9  5  1  0
  9  7  2  0
 10  9  1  0
M  END
>  <NAME>  (5295) 
4-ETHYL-2-METHYLPHENOL

>  <SYNONYMS>  (5295) 


>  <SPECTRUM TYPE>  (5295) 
MS1

>  <INSTRUMENT TYPE>  (5295) 
EI-B

>  <INSTRUMENT>  (5295) 
HITACHI RMU-6L

>  <ION MODE>  (5295) 
P

>  <INCHIKEY>  (5295) 
QDQMEHXIUFCIGR-UHFFFAOYSA-N

>  <FORMULA>  (5295) 
C9H12O

>  <EXACT MASS>  (5295) 
136.088815004

>  <MW>  (5295) 
136

>  <ID>  (5295) 
JP004040

>  <CONTRIBUTOR>  (5295) 
University of Tokyo Team, {Faculty of Engineering, University of Tokyo

>  <COMMENT>  (5295) 
SMILES=CCc(c1)cc(C)c(O)c1
InChI=InChI=1S/C9H12O/c1-3-8-4-5-9(10)7(2)6-8/h4-6,10H,3H2,1-2H3
computed SMILES=OC1=CC=C(C=C1C)CC
accession=JP004040
date=2016.01.19 (Created 2008.10.21, modified 2011.05.06)
author=MASS SPECTROSCOPY SOC. OF JAPAN (MSSJ)
license=CC BY-NC-SA
exact mass=136.08882
ionization energy=70 eV
ion type=[M]+*
computed spectral entropy=1.5546584576396576
computed normalized entropy=0.7476326823709396
SPLASH=splash10-00di-2900000000-24b0d5f4681821d3e156
submitter=submitter = University of Tokyo Team (Faculty of Engineering, University of Tokyo)
MoNA Rating=3.75

>  <NUM PEAKS>  (5295) 
8

>  <MASS SPECTRAL PEAKS>  (5295) 
27 12.2
39 14
77 14.5
91 1.24
107 12
121 99.99
122 12.4
136 26.5

$$$$

     RDKit          2D

 10 10  0  0  0  0  0  0  0  0999 V2000
   -2.2915    1.3193    0.0000 C   0  0  0  0  0  0  0  0  0  0  0  0
   -0.9814    3.5628    0.0000 C   0  0  0  0  0  0  0  0  0  0  0  0
    1.6056    2.0565    0.0000 C   0  0  0  0  0  0  0  0  0  0  0  0
    0.2920   -0.1684    0.0000 C   0  0  0  0  0  0  0  0  0  0  0  0
    2.8901    1.3316    0.0000 C   0  0  0  0  0  0  0  0  0  0  0  0
    1.6165   -0.9625    0.0000 C   0  0  0  0  0  0  0  0  0  0  0  0
   -0.9888    2.0629    0.0000 C   0  0  0  0  0  0  0  0  0  0  0  0
    0.3065    1.3065    0.0000 C   0  0  0  0  0  0  0  0  0  0  0  0
    2.9156   -0.2125    0.0000 C   0  0  0  0  0  0  0  0  0  0  0  0
    4.2207   -0.9518    0.0000 O   0  0  0  0  0  0  0  0  0  0  0  0
  5  3  2  0
  6  4  1  0
  7  1  1  0
  7  2  1  0
  8  3  1  0
  8  4  2  0
  8  7  1  0
  9  5  1  0
  9  6  2  0
 10  9  1  0
M  END
>  <NAME>  (5296) 
PARA-ISOPROPYLPHENOL

>  <SYNONYMS>  (5296) 


>  <SPECTRUM TYPE>  (5296) 
MS1

>  <INSTRUMENT TYPE>  (5296) 
EI-B

>  <INSTRUMENT>  (5296) 
HITACHI RMU-6L

>  <ION MODE>  (5296) 
P

>  <INCHIKEY>  (5296) 
YQUQWHNMBPIWGK-UHFFFAOYSA-N

>  <FORMULA>  (5296) 
C9H12O

>  <EXACT MASS>  (5296) 
136.088815004

>  <MW>  (5296) 
136

>  <ID>  (5296) 
JP004039

>  <CONTRIBUTOR>  (5296) 
University of Tokyo Team, {Faculty of Engineering, University of Tokyo

>  <COMMENT>  (5296) 
SMILES=CC(C)c(c1)ccc(O)c1
InChI=InChI=1S/C9H12O/c1-7(2)8-3-5-9(10)6-4-8/h3-7,10H,1-2H3
computed SMILES=OC1=CC=C(C=C1)C(C)C
accession=JP004039
date=2016.01.19 (Created 2008.10.21, modified 2011.05.06)
author=MASS SPECTROSCOPY SOC. OF JAPAN (MSSJ)
license=CC BY-NC-SA
exact mass=136.08882
ionization energy=70 eV
ion type=[M]+*
computed spectral entropy=2.1613792877446185
computed normalized entropy=0.6236422359818562
SPLASH=splash10-00di-3900000000-8ad6a5d0a64e2c14751b
submitter=submitter = University of Tokyo Team (Faculty of Engineering, University of Tokyo)
MoNA Rating=3.75

>  <NUM PEAKS>  (5296) 
32

>  <MASS SPECTRAL PEAKS>  (5296) 
27 2.2
28 5
39 4.3
41 0.26
50 1.2
51 2
53 1.9
55 0.17
59 1.5
60 1.6
60.5 1.1
63 0.12
65 4.3
66 1.9
77 12
78 0.18
79 1.6
91 10
92 1.2
93 0.3
94 1.6
95 1.3
103 12.5
104 0.14
107 2.7
119 1.3
120 2
121 99.99
122 9
135 1.5
136 28.9
137 3.4

$$$$

     RDKit          2D

 10 10  0  0  0  0  0  0  0  0999 V2000
    1.9487    3.0002    0.0000 C   0  0  0  0  0  0  0  0  0  0  0  0
    3.2481    0.7504    0.0000 C   0  0  0  0  0  0  0  0  0  0  0  0
   -1.9500    0.7500    0.0000 C   0  0  0  0  0  0  0  0  0  0  0  0
   -1.9500   -0.7500    0.0000 C   0  0  0  0  0  0  0  0  0  0  0  0
   -0.6500    1.5000    0.0000 C   0  0  0  0  0  0  0  0  0  0  0  0
   -0.6500   -1.5000    0.0000 C   0  0  0  0  0  0  0  0  0  0  0  0
    1.9489    1.5002    0.0000 C   0  0  0  0  0  0  0  0  0  0  0  0
    0.6500    0.7500    0.0000 C   0  0  0  0  0  0  0  0  0  0  0  0
    0.6500   -0.7500    0.0000 C   0  0  0  0  0  0  0  0  0  0  0  0
    1.9489   -1.5002    0.0000 O   0  0  0  0  0  0  0  0  0  0  0  0
  4  3  2  0
  5  3  1  0
  6  4  1  0
  7  1  1  0
  7  2  1  0
  8  5  2  0
  8  7  1  0
  9  6  2  0
  9  8  1  0
 10  9  1  0
M  END
>  <NAME>  (5297) 
ORTHO-ISOPROPYLPHENOL

>  <SYNONYMS>  (5297) 


>  <SPECTRUM TYPE>  (5297) 
MS1

>  <INSTRUMENT TYPE>  (5297) 
EI-B

>  <INSTRUMENT>  (5297) 
HITACHI RMU-6L

>  <ION MODE>  (5297) 
P

>  <INCHIKEY>  (5297) 
CRBJBYGJVIBWIY-UHFFFAOYSA-N

>  <FORMULA>  (5297) 
C9H12O

>  <EXACT MASS>  (5297) 
136.088815004

>  <MW>  (5297) 
136

>  <ID>  (5297) 
JP004038

>  <CONTRIBUTOR>  (5297) 
University of Tokyo Team, {Faculty of Engineering, University of Tokyo

>  <COMMENT>  (5297) 
SMILES=CC(C)c(c1)c(O)ccc1
InChI=InChI=1S/C9H12O/c1-7(2)8-5-3-4-6-9(8)10/h3-7,10H,1-2H3
computed SMILES=OC=1C=CC=CC1C(C)C
accession=JP004038
date=2016.01.19 (Created 2008.10.21, modified 2011.05.06)
author=MASS SPECTROSCOPY SOC. OF JAPAN (MSSJ)
license=CC BY-NC-SA
exact mass=136.08882
ionization energy=70 eV
ion type=[M]+*
computed spectral entropy=2.7902530288827396
computed normalized entropy=0.7287841142399576
SPLASH=splash10-00dr-9700000000-0a3ec6f0b6db49b1bb8c
submitter=submitter = University of Tokyo Team (Faculty of Engineering, University of Tokyo)
MoNA Rating=3.75

>  <NUM PEAKS>  (5297) 
46

>  <MASS SPECTRAL PEAKS>  (5297) 
37 0.5
38 4.5
39 28
40 0.42
41 14.3
42 2.8
43 6.9
45 0.45
45.5 4
46 2.4
50 5
51 1.57
52 3
53 5.5
55 3.6
56 0.15
57 4
58 1.4
59 3.5
60 0.35
60.5 29.8
61 2
62 2
63 0.62
64 1.6
65 8.4
66 3
67 0.5
69 2
74 1.2
75 1.5
76 0.3
77 27.8
78 3.9
79 2
89 0.2
90 1.3
91 16.9
93 3.8
94 0.22
95 1.8
103 28.1
107 4.6
115 0.21
121 99.99
136 30.2

$$$$

     RDKit          2D

 11 11  0  0  0  0  0  0  0  0999 V2000
    5.5207   -2.0621    0.0000 C   0  0  0  0  0  0  0  0  0  0  0  0
    4.2216   -2.8121    0.0000 C   0  0  0  0  0  0  0  0  0  0  0  0
   -2.2740   -2.0629    0.0000 C   0  0  0  0  0  0  0  0  0  0  0  0
   -0.9740    0.1887    0.0000 C   0  0  0  0  0  0  0  0  0  0  0  0
   -0.9750   -2.8129    0.0000 C   0  0  0  0  0  0  0  0  0  0  0  0
    0.3250   -0.5613    0.0000 C   0  0  0  0  0  0  0  0  0  0  0  0
    2.9226   -2.0621    0.0000 C   0  0  0  0  0  0  0  0  0  0  0  0
   -2.2736   -0.5621    0.0000 C   0  0  0  0  0  0  0  0  0  0  0  0
    0.3245   -2.0621    0.0000 C   0  0  0  0  0  0  0  0  0  0  0  0
   -3.5726    0.1879    0.0000 O   0  0  0  0  0  0  0  0  0  0  0  0
    1.6236   -2.8121    0.0000 O   0  0  0  0  0  0  0  0  0  0  0  0
  2  1  1  0
  5  3  2  0
  6  4  1  0
  7  2  1  0
  8  3  1  0
  8  4  2  0
  9  5  1  0
  9  6  2  0
 10  8  1  0
 11  7  1  0
 11  9  1  0
M  END
>  <NAME>  (5298) 
PARA-PROPOXYPHENOL

>  <SYNONYMS>  (5298) 


>  <SPECTRUM TYPE>  (5298) 
MS1

>  <INSTRUMENT TYPE>  (5298) 
EI-B

>  <INSTRUMENT>  (5298) 
HITACHI RMU-6L

>  <ION MODE>  (5298) 
P

>  <INCHIKEY>  (5298) 
KIIIPQXXLVCCQP-UHFFFAOYSA-N

>  <FORMULA>  (5298) 
C9H12O2

>  <EXACT MASS>  (5298) 
152.083729624

>  <MW>  (5298) 
152

>  <ID>  (5298) 
JP004037

>  <CONTRIBUTOR>  (5298) 
University of Tokyo Team, {Faculty of Engineering, University of Tokyo

>  <COMMENT>  (5298) 
SMILES=CCCOc(c1)ccc(O)c1
InChI=InChI=1S/C9H12O2/c1-2-7-11-9-5-3-8(10)4-6-9/h3-6,10H,2,7H2,1H3
computed SMILES=OC1=CC=C(OCCC)C=C1
accession=JP004037
date=2016.01.19 (Created 2008.10.21, modified 2011.05.06)
author=MASS SPECTROSCOPY SOC. OF JAPAN (MSSJ)
license=CC BY-NC-SA
exact mass=152.08373
ionization energy=70 eV
ion type=[M]+*
computed spectral entropy=1.8192075725312826
computed normalized entropy=0.5801980317135402
SPLASH=splash10-03di-2900000000-89e33c720e8126efb52c
submitter=submitter = University of Tokyo Team (Faculty of Engineering, University of Tokyo)
MoNA Rating=3.75

>  <NUM PEAKS>  (5298) 
23

>  <MASS SPECTRAL PEAKS>  (5298) 
27 5.8
28 1.3
29 1.8
33 0.46
39 4.9
41 4.5
53 3.2
54 0.23
55 3.7
63 1.1
64 1.5
65 0.28
81 5.7
82 3.1
93 1.8
101 0.21
109 5.5
110 99.99
111 6.6
123 0.22
152 21.9
153 2.3
194 3

$$$$

     RDKit          2D

 12 12  0  0  0  0  0  0  0  0999 V2000
    6.1702   -3.1871    0.0000 C   0  0  0  0  0  0  0  0  0  0  0  0
    4.8712   -2.4371    0.0000 C   0  0  0  0  0  0  0  0  0  0  0  0
    3.5721   -3.1871    0.0000 C   0  0  0  0  0  0  0  0  0  0  0  0
   -2.9236   -2.4379    0.0000 C   0  0  0  0  0  0  0  0  0  0  0  0
   -1.6236   -0.1863    0.0000 C   0  0  0  0  0  0  0  0  0  0  0  0
   -1.6245   -3.1879    0.0000 C   0  0  0  0  0  0  0  0  0  0  0  0
   -0.3245   -0.9363    0.0000 C   0  0  0  0  0  0  0  0  0  0  0  0
    2.2731   -2.4371    0.0000 C   0  0  0  0  0  0  0  0  0  0  0  0
   -2.9231   -0.9371    0.0000 C   0  0  0  0  0  0  0  0  0  0  0  0
   -0.3250   -2.4371    0.0000 C   0  0  0  0  0  0  0  0  0  0  0  0
   -4.2221   -0.1871    0.0000 O   0  0  0  0  0  0  0  0  0  0  0  0
    0.9740   -3.1871    0.0000 O   0  0  0  0  0  0  0  0  0  0  0  0
  2  1  1  0
  3  2  1  0
  6  4  2  0
  7  5  1  0
  8  3  1  0
  9  4  1  0
  9  5  2  0
 10  6  1  0
 10  7  2  0
 11  9  1  0
 12  8  1  0
 12 10  1  0
M  END
>  <NAME>  (5299) 
PARA-BUTOXYPHENOL

>  <SYNONYMS>  (5299) 


>  <SPECTRUM TYPE>  (5299) 
MS1

>  <INSTRUMENT TYPE>  (5299) 
EI-B

>  <INSTRUMENT>  (5299) 
HITACHI RMU-6L

>  <ION MODE>  (5299) 
P

>  <INCHIKEY>  (5299) 
MBGGFXOXUIDRJD-UHFFFAOYSA-N

>  <FORMULA>  (5299) 
C10H14O2

>  <EXACT MASS>  (5299) 
166.099379688

>  <MW>  (5299) 
166

>  <ID>  (5299) 
JP004036

>  <CONTRIBUTOR>  (5299) 
University of Tokyo Team, {Faculty of Engineering, University of Tokyo

>  <COMMENT>  (5299) 
SMILES=CCCCOc(c1)ccc(O)c1
InChI=InChI=1S/C10H14O2/c1-2-3-8-12-10-6-4-9(11)5-7-10/h4-7,11H,2-3,8H2,1H3
computed SMILES=OC1=CC=C(OCCCC)C=C1
accession=JP004036
date=2016.01.19 (Created 2008.10.21, modified 2011.05.06)
author=MASS SPECTROSCOPY SOC. OF JAPAN (MSSJ)
license=CC BY-NC-SA
exact mass=166.09938
ionization energy=70 eV
ion type=[M]+*
computed spectral entropy=1.4919206609049318
computed normalized entropy=0.516169124898614
SPLASH=splash10-03di-2900000000-20e1ca3e91044a125bc2
submitter=submitter = University of Tokyo Team (Faculty of Engineering, University of Tokyo)
MoNA Rating=3.75

>  <NUM PEAKS>  (5299) 
18

>  <MASS SPECTRAL PEAKS>  (5299) 
27 3.2
29 8
39 3.6
41 0.43
53 2.3
54 2.1
55 2.3
57 0.21
65 2
81 2.8
82 1.6
93 0.15
109 3.1
110 99.99
111 6.2
123 0.14
166 16.2
167 1.8

$$$$

     RDKit          2D

  9  9  0  0  0  0  0  0  0  0999 V2000
   -2.5989    1.8302    0.0000 C   0  0  0  0  0  0  0  0  0  0  0  0
   -0.0000   -2.6700    0.0000 C   0  0  0  0  0  0  0  0  0  0  0  0
    0.0000    1.8300    0.0000 C   0  0  0  0  0  0  0  0  0  0  0  0
    1.3000    1.0800    0.0000 C   0  0  0  0  0  0  0  0  0  0  0  0
   -1.3000   -0.4200    0.0000 C   0  0  0  0  0  0  0  0  0  0  0  0
   -1.3000    1.0800    0.0000 C   0  0  0  0  0  0  0  0  0  0  0  0
    0.0000   -1.1700    0.0000 C   0  0  0  0  0  0  0  0  0  0  0  0
    1.3000   -0.4200    0.0000 C   0  0  0  0  0  0  0  0  0  0  0  0
    2.5989   -1.1702    0.0000 O   0  0  0  0  0  0  0  0  0  0  0  0
  4  3  2  0
  6  1  1  0
  6  3  1  0
  6  5  2  0
  7  2  1  0
  7  5  1  0
  8  4  1  0
  8  7  2  0
  9  8  1  0
M  END
>  <NAME>  (5300) 
2,4-DIMETHYLPHENOL

>  <SYNONYMS>  (5300) 


>  <SPECTRUM TYPE>  (5300) 
MS1

>  <INSTRUMENT TYPE>  (5300) 
EI-B

>  <INSTRUMENT>  (5300) 
HITACHI RMU-6L

>  <ION MODE>  (5300) 
P

>  <INCHIKEY>  (5300) 
KUFFULVDNCHOFZ-UHFFFAOYSA-N

>  <FORMULA>  (5300) 
C8H10O

>  <EXACT MASS>  (5300) 
122.07316494

>  <MW>  (5300) 
122

>  <ID>  (5300) 
JP004035

>  <CONTRIBUTOR>  (5300) 
University of Tokyo Team, {Faculty of Engineering, University of Tokyo

>  <COMMENT>  (5300) 
SMILES=Cc(c1)cc(C)c(O)c1
InChI=InChI=1S/C8H10O/c1-6-3-4-8(9)7(2)5-6/h3-5,9H,1-2H3
computed SMILES=OC1=CC=C(C=C1C)C
accession=JP004035
date=2016.01.19 (Created 2008.10.21, modified 2011.05.06)
author=MASS SPECTROSCOPY SOC. OF JAPAN (MSSJ)
license=CC BY-NC-SA
exact mass=122.07316
ionization energy=70 eV
ion type=[M]+*
computed spectral entropy=2.7468014492631094
computed normalized entropy=0.7095476162367806
SPLASH=splash10-05fr-5900000000-b92f4c08331c6a417dc9
submitter=submitter = University of Tokyo Team (Faculty of Engineering, University of Tokyo)
MoNA Rating=3.75

>  <NUM PEAKS>  (5300) 
48

>  <MASS SPECTRAL PEAKS>  (5300) 
38 6
39 26
40 3.8
41 0.76
42 1.5
43 3.1
45 2
46 0.2
49 2.4
50 8.7
51 17.5
52 0.67
53 11.4
54 1.5
55 4
59 0.2
60 3.1
61 2.9
62 3.6
63 0.85
64 3
65 10.1
66 3.2
67 0.22
74 4.2
75 1.7
76 2.1
77 2.62
78 8.3
79 12.2
80 1.4
81 0.15
89 1.5
91 18.1
92 3.3
93 0.34
94 2.1
95 2
102 1.5
103 0.45
104 3.7
105 3.2
107 88.9
108 0.62
120 1.7
121 55.5
122 99.99
123 16.5

$$$$

     RDKit          2D

  9  9  0  0  0  0  0  0  0  0999 V2000
    2.9928    0.9831    0.0000 C   0  0  0  0  0  0  0  0  0  0  0  0
    0.3944    2.4833    0.0000 C   0  0  0  0  0  0  0  0  0  0  0  0
    0.3937   -2.0183    0.0000 C   0  0  0  0  0  0  0  0  0  0  0  0
    1.6932   -1.2675    0.0000 C   0  0  0  0  0  0  0  0  0  0  0  0
   -0.9054   -1.2683    0.0000 C   0  0  0  0  0  0  0  0  0  0  0  0
    1.6937    0.2333    0.0000 C   0  0  0  0  0  0  0  0  0  0  0  0
    0.3946    0.9833    0.0000 C   0  0  0  0  0  0  0  0  0  0  0  0
   -0.9049    0.2325    0.0000 C   0  0  0  0  0  0  0  0  0  0  0  0
   -2.2039    0.9825    0.0000 O   0  0  0  0  0  0  0  0  0  0  0  0
  4  3  2  0
  5  3  1  0
  6  1  1  0
  6  4  1  0
  7  2  1  0
  7  6  2  0
  8  5  2  0
  8  7  1  0
  9  8  1  0
M  END
>  <NAME>  (5301) 
2,3-1DIMETHYLPHENOL

>  <SYNONYMS>  (5301) 


>  <SPECTRUM TYPE>  (5301) 
MS1

>  <INSTRUMENT TYPE>  (5301) 
EI-B

>  <INSTRUMENT>  (5301) 
HITACHI RMU-6L

>  <ION MODE>  (5301) 
P

>  <INCHIKEY>  (5301) 
QWBBPBRQALCEIZ-UHFFFAOYSA-N

>  <FORMULA>  (5301) 
C8H10O

>  <EXACT MASS>  (5301) 
122.07316494

>  <MW>  (5301) 
122

>  <ID>  (5301) 
JP004034

>  <CONTRIBUTOR>  (5301) 
University of Tokyo Team, {Faculty of Engineering, University of Tokyo

>  <COMMENT>  (5301) 
SMILES=Cc(c1)c(C)c(O)cc1
InChI=InChI=1S/C8H10O/c1-6-4-3-5-8(9)7(6)2/h3-5,9H,1-2H3
computed SMILES=OC1=CC=CC(=C1C)C
accession=JP004034
date=2016.01.19 (Created 2008.10.21, modified 2011.05.06)
author=MASS SPECTROSCOPY SOC. OF JAPAN (MSSJ)
license=CC BY-NC-SA
exact mass=122.07316
ionization energy=70 eV
ion type=[M]+*
computed spectral entropy=2.879396664700471
computed normalized entropy=0.7287317284832608
SPLASH=splash10-05i0-8900000000-3b3350d848cc8afdd0e2
submitter=submitter = University of Tokyo Team (Faculty of Engineering, University of Tokyo)
MoNA Rating=3.75

>  <NUM PEAKS>  (5301) 
52

>  <MASS SPECTRAL PEAKS>  (5301) 
26 4.6
27 19.3
28 2.7
29 0.43
37 2
38 8
39 28.6
40 0.39
41 6.9
42 2
43 3.7
49 0.17
50 8.4
51 18.2
52 5.9
53 1.13
54 1.5
55 2.7
60 2.3
61 0.26
62 4.1
63 7.1
64 2
65 1
66 2.5
67 1.8
74 1.8
75 0.2
76 1.8
77 31.2
78 11.7
79 1.98
80 1.6
81 2
89 1.9
90 0.18
91 18.8
92 2.8
93 5
94 0.55
95 2.3
102 2.2
103 7.2
104 0.56
105 2.6
106 2
107 99.99
108 0.75
120 2
121 31.5
122 89.1
123 7.2

$$$$

     RDKit          2D

  9  9  0  0  0  0  0  0  0  0999 V2000
   -3.2575    1.8770    0.0000 C   0  0  0  0  0  0  0  0  0  0  0  0
   -1.9548    2.6206    0.0000 C   0  0  0  0  0  0  0  0  0  0  0  0
    0.6396    2.6142    0.0000 C   0  0  0  0  0  0  0  0  0  0  0  0
   -0.6740    0.3893    0.0000 C   0  0  0  0  0  0  0  0  0  0  0  0
    1.9241    1.8893    0.0000 C   0  0  0  0  0  0  0  0  0  0  0  0
    0.6506   -0.4048    0.0000 C   0  0  0  0  0  0  0  0  0  0  0  0
   -0.6594    1.8642    0.0000 C   0  0  0  0  0  0  0  0  0  0  0  0
    1.9496    0.3452    0.0000 C   0  0  0  0  0  0  0  0  0  0  0  0
    3.2548   -0.3941    0.0000 O   0  0  0  0  0  0  0  0  0  0  0  0
  2  1  1  0
  5  3  2  0
  6  4  1  0
  7  2  1  0
  7  3  1  0
  7  4  2  0
  8  5  1  0
  8  6  2  0
  9  8  1  0
M  END
>  <NAME>  (5302) 
PARA-ETHYLPHENOL

>  <SYNONYMS>  (5302) 


>  <SPECTRUM TYPE>  (5302) 
MS1

>  <INSTRUMENT TYPE>  (5302) 
EI-B

>  <INSTRUMENT>  (5302) 
HITACHI RMU-6L

>  <ION MODE>  (5302) 
P

>  <INCHIKEY>  (5302) 
HXDOZKJGKXYMEW-UHFFFAOYSA-N

>  <FORMULA>  (5302) 
C8H10O

>  <EXACT MASS>  (5302) 
122.07316494

>  <MW>  (5302) 
122

>  <ID>  (5302) 
JP004033

>  <CONTRIBUTOR>  (5302) 
University of Tokyo Team, {Faculty of Engineering, University of Tokyo

>  <COMMENT>  (5302) 
SMILES=CCc(c1)ccc(O)c1
InChI=InChI=1S/C8H10O/c1-2-7-3-5-8(9)6-4-7/h3-6,9H,2H2,1H3
computed SMILES=OC1=CC=C(C=C1)CC
accession=JP004033
date=2016.01.19 (Created 2008.10.21, modified 2011.05.06)
author=MASS SPECTROSCOPY SOC. OF JAPAN (MSSJ)
license=CC BY-NC-SA
exact mass=122.07316
ionization energy=70 eV
ion type=[M]+*
computed spectral entropy=2.3263373273848
computed normalized entropy=0.6491767916781424
SPLASH=splash10-0a4i-4900000000-45f09ef08787a27c168f
submitter=submitter = University of Tokyo Team (Faculty of Engineering, University of Tokyo)
MoNA Rating=3.75

>  <NUM PEAKS>  (5302) 
36

>  <MASS SPECTRAL PEAKS>  (5302) 
26 2.9
27 9
28 2.1
29 0.29
37 2.4
38 2.8
39 12.5
40 0.28
41 2
43 1.5
50 4.1
51 0.78
52 3
53 5.9
55 1.9
61 0.17
62 2
63 4.2
64 1.3
65 0.44
66 1.5
74 1.2
75 1.1
77 1.71
78 4.2
79 2
89 1.3
91 0.42
93 1.9
94 1.8
103 2
107 99.99
108 8.9
121 4.8
122 28
123 2.2

$$$$

     RDKit          2D

  9  9  0  0  0  0  0  0  0  0999 V2000
   -3.2458   -0.3738    0.0000 C   0  0  0  0  0  0  0  0  0  0  0  0
   -1.9469   -1.1240    0.0000 C   0  0  0  0  0  0  0  0  0  0  0  0
    0.6473    1.8688    0.0000 C   0  0  0  0  0  0  0  0  0  0  0  0
   -0.6473    1.1266    0.0000 C   0  0  0  0  0  0  0  0  0  0  0  0
    1.9463    1.1188    0.0000 C   0  0  0  0  0  0  0  0  0  0  0  0
    0.6513   -1.1242    0.0000 C   0  0  0  0  0  0  0  0  0  0  0  0
   -0.6477   -0.3742    0.0000 C   0  0  0  0  0  0  0  0  0  0  0  0
    1.9508   -0.3734    0.0000 C   0  0  0  0  0  0  0  0  0  0  0  0
    3.2511   -1.1212    0.0000 O   0  0  0  0  0  0  0  0  0  0  0  0
  2  1  1  0
  4  3  2  0
  5  3  1  0
  7  2  1  0
  7  4  1  0
  7  6  2  0
  8  5  2  0
  8  6  1  0
  9  8  1  0
M  END
>  <NAME>  (5303) 
META-ETHYLPHENOL

>  <SYNONYMS>  (5303) 


>  <SPECTRUM TYPE>  (5303) 
MS1

>  <INSTRUMENT TYPE>  (5303) 
EI-B

>  <INSTRUMENT>  (5303) 
HITACHI RMU-6L

>  <ION MODE>  (5303) 
P

>  <INCHIKEY>  (5303) 
HMNKTRSOROOSPP-UHFFFAOYSA-N

>  <FORMULA>  (5303) 
C8H10O

>  <EXACT MASS>  (5303) 
122.07316494

>  <MW>  (5303) 
122

>  <ID>  (5303) 
JP004032

>  <CONTRIBUTOR>  (5303) 
University of Tokyo Team, {Faculty of Engineering, University of Tokyo

>  <COMMENT>  (5303) 
SMILES=CCc(c1)cc(O)cc1
InChI=InChI=1S/C8H10O/c1-2-7-4-3-5-8(9)6-7/h3-6,9H,2H2,1H3
computed SMILES=OC1=CC=CC(=C1)CC
accession=JP004032
date=2016.01.19 (Created 2008.10.21, modified 2011.05.06)
author=MASS SPECTROSCOPY SOC. OF JAPAN (MSSJ)
license=CC BY-NC-SA
exact mass=122.07316
ionization energy=70 eV
ion type=[M]+*
computed spectral entropy=1.7315701787802258
computed normalized entropy=0.5142316761599117
SPLASH=splash10-0a4i-2900000000-dcde0f5a92fee9ac5368
submitter=submitter = University of Tokyo Team (Faculty of Engineering, University of Tokyo)
MoNA Rating=3.75

>  <NUM PEAKS>  (5303) 
29

>  <MASS SPECTRAL PEAKS>  (5303) 
18 1.5
27 1.2
38 1.5
39 0.42
41 1.2
50 1.6
51 2.5
52 0.15
53 1.5
55 1.1
59 1.3
60 0.1
61 1.1
62 1.6
65 3
66 0.15
77 8
78 2
79 3.1
91 0.35
93 1.6
94 2.9
103 2
105 0.1
107 99.99
108 5.9
121 3.5
122 3.81
123 3.1

$$$$

     RDKit          2D

  9  9  0  0  0  0  0  0  0  0999 V2000
   -2.9239    1.3130    0.0000 C   0  0  0  0  0  0  0  0  0  0  0  0
   -1.6250    2.0632    0.0000 C   0  0  0  0  0  0  0  0  0  0  0  0
    0.9742   -0.9383    0.0000 C   0  0  0  0  0  0  0  0  0  0  0  0
    2.2732   -0.1883    0.0000 C   0  0  0  0  0  0  0  0  0  0  0  0
   -0.3253   -0.1874    0.0000 C   0  0  0  0  0  0  0  0  0  0  0  0
    2.2727    1.3126    0.0000 C   0  0  0  0  0  0  0  0  0  0  0  0
   -0.3258    1.3134    0.0000 C   0  0  0  0  0  0  0  0  0  0  0  0
    0.9732    2.0634    0.0000 C   0  0  0  0  0  0  0  0  0  0  0  0
    0.9735    3.5634    0.0000 O   0  0  0  0  0  0  0  0  0  0  0  0
  2  1  1  0
  4  3  2  0
  5  3  1  0
  6  4  1  0
  7  2  1  0
  7  5  2  0
  8  6  2  0
  8  7  1  0
  9  8  1  0
M  END
>  <NAME>  (5304) 
ORTHO-ETHYLPHENOL

>  <SYNONYMS>  (5304) 


>  <SPECTRUM TYPE>  (5304) 
MS1

>  <INSTRUMENT TYPE>  (5304) 
EI-B

>  <INSTRUMENT>  (5304) 
HITACHI RMU-6L

>  <ION MODE>  (5304) 
P

>  <INCHIKEY>  (5304) 
IXQGCWUGDFDQMF-UHFFFAOYSA-N

>  <FORMULA>  (5304) 
C8H10O

>  <EXACT MASS>  (5304) 
122.07316494

>  <MW>  (5304) 
122

>  <ID>  (5304) 
JP004031

>  <CONTRIBUTOR>  (5304) 
University of Tokyo Team, {Faculty of Engineering, University of Tokyo

>  <COMMENT>  (5304) 
SMILES=CCc(c1)c(O)ccc1
InChI=InChI=1S/C8H10O/c1-2-7-5-3-4-6-8(7)9/h3-6,9H,2H2,1H3
computed SMILES=OC=1C=CC=CC1CC
accession=JP004031
date=2016.01.19 (Created 2008.10.21, modified 2011.05.06)
author=MASS SPECTROSCOPY SOC. OF JAPAN (MSSJ)
license=CC BY-NC-SA
exact mass=122.07316
ionization energy=70 eV
ion type=[M]+*
computed spectral entropy=1.909840538324622
computed normalized entropy=0.5671733743489634
SPLASH=splash10-0a4i-3900000000-7fa4bcd5f96dd273eea0
submitter=submitter = University of Tokyo Team (Faculty of Engineering, University of Tokyo)
MoNA Rating=3.75

>  <NUM PEAKS>  (5304) 
29

>  <MASS SPECTRAL PEAKS>  (5304) 
18 1.8
27 2
38 1.6
39 0.53
41 1.4
43 1.4
45 1.5
50 0.1
51 4.2
52 1.5
53 2.1
60 0.15
61 1.5
62 1.3
63 2
65 0.22
77 18.1
78 2.8
79 8.1
91 0.36
94 1.8
103 4.1
104 1.5
105 0.13
107 99.99
108 7.4
120 3
121 3.86
122 3.1

$$$$

     RDKit          2D

 11 11  0  0  0  0  0  0  0  0999 V2000
   -4.8712    2.0071    0.0000 C   0  0  0  0  0  0  0  0  0  0  0  0
   -0.9740    4.2571    0.0000 C   0  0  0  0  0  0  0  0  0  0  0  0
   -3.5721    2.7571    0.0000 C   0  0  0  0  0  0  0  0  0  0  0  0
    2.9231    0.5071    0.0000 C   0  0  0  0  0  0  0  0  0  0  0  0
    2.9236    2.0079    0.0000 C   0  0  0  0  0  0  0  0  0  0  0  0
    1.6236   -0.2437    0.0000 C   0  0  0  0  0  0  0  0  0  0  0  0
    1.6245    2.7579    0.0000 C   0  0  0  0  0  0  0  0  0  0  0  0
    0.3245    0.5063    0.0000 C   0  0  0  0  0  0  0  0  0  0  0  0
   -0.9740    2.7571    0.0000 C   0  0  0  0  0  0  0  0  0  0  0  0
    0.3250    2.0071    0.0000 C   0  0  0  0  0  0  0  0  0  0  0  0
   -2.2731    2.0071    0.0000 O   0  0  0  0  0  0  0  0  0  0  0  0
  3  1  1  0
  5  4  2  0
  6  4  1  0
  7  5  1  0
  8  6  2  0
  9  2  1  0
 10  7  2  0
 10  8  1  0
 10  9  1  0
 11  3  1  0
 11  9  1  0
M  END
>  <NAME>  (5305) 
ETHYL 1-PHENYLETHYL ETHER

>  <SYNONYMS>  (5305) 


>  <SPECTRUM TYPE>  (5305) 
MS1

>  <INSTRUMENT TYPE>  (5305) 
EI-B

>  <INSTRUMENT>  (5305) 
HITACHI RMU-6L

>  <ION MODE>  (5305) 
P

>  <INCHIKEY>  (5305) 
MVTKJCAAJPVUHJ-UHFFFAOYSA-N

>  <FORMULA>  (5305) 
C10H14O

>  <EXACT MASS>  (5305) 
150.104465068

>  <MW>  (5305) 
150

>  <ID>  (5305) 
JP004030

>  <CONTRIBUTOR>  (5305) 
University of Tokyo Team, {Faculty of Engineering, University of Tokyo

>  <COMMENT>  (5305) 
SMILES=CCOC(C)c(c1)cccc1
InChI=InChI=1S/C10H14O/c1-3-11-9(2)10-7-5-4-6-8-10/h4-9H,3H2,1-2H3
computed SMILES=O(CC)C(C=1C=CC=CC1)C
accession=JP004030
date=2016.01.19 (Created 2008.10.21, modified 2011.05.06)
author=MASS SPECTROSCOPY SOC. OF JAPAN (MSSJ)
license=CC BY-NC-SA
exact mass=150.10447
ionization energy=70 eV
ion type=[M]+*
computed spectral entropy=2.6351594621076493
computed normalized entropy=0.700616659856113
SPLASH=splash10-0a70-6900000000-9a6b1c19be1de34a9db3
submitter=submitter = University of Tokyo Team (Faculty of Engineering, University of Tokyo)
MoNA Rating=3.75

>  <NUM PEAKS>  (5305) 
43

>  <MASS SPECTRAL PEAKS>  (5305) 
15 2.9
18 3.5
27 6.1
28 0.32
29 6.4
31 2.1
38 1.6
39 0.52
43 28.6
44 1
45 10
50 0.6
51 19.1
52 3
53 1.1
60 0.11
62 1
63 3
65 1.5
71 0.1
73 2.3
74 2.2
76 2
77 5.31
78 10.5
79 47.2
80 3
89 0.2
91 6.7
94 2.1
102 1.1
103 0.9
104 6
105 99.5
106 13.7
107 7.12
108 5.1
120 11
121 3.1
122 0.31
135 99.99
136 9.8
150 2.5

$$$$

     RDKit          2D

 11 11  0  0  0  0  0  0  0  0999 V2000
   -2.6300   -1.5107    0.0000 C   0  0  0  0  0  0  0  0  0  0  0  0
   -3.9180    0.7457    0.0000 C   0  0  0  0  0  0  0  0  0  0  0  0
    3.8980    2.2543    0.0000 C   0  0  0  0  0  0  0  0  0  0  0  0
   -1.3199    2.2329    0.0000 C   0  0  0  0  0  0  0  0  0  0  0  0
   -0.0499   -0.0171    0.0000 C   0  0  0  0  0  0  0  0  0  0  0  0
   -0.0499    2.9829    0.0000 C   0  0  0  0  0  0  0  0  0  0  0  0
    1.3001    0.7329    0.0000 C   0  0  0  0  0  0  0  0  0  0  0  0
   -2.6227   -0.0107    0.0000 C   0  0  0  0  0  0  0  0  0  0  0  0
   -1.3199    0.7329    0.0000 C   0  0  0  0  0  0  0  0  0  0  0  0
    1.3001    2.2329    0.0000 C   0  0  0  0  0  0  0  0  0  0  0  0
    2.5929    2.9936    0.0000 O   0  0  0  0  0  0  0  0  0  0  0  0
  6  4  2  0
  7  5  1  0
  8  1  1  0
  8  2  1  0
  9  4  1  0
  9  5  2  0
  9  8  1  0
 10  6  1  0
 10  7  2  0
 11  3  1  0
 11 10  1  0
M  END
>  <NAME>  (5306) 
PARA-ISOPROPYLANISOLE

>  <SYNONYMS>  (5306) 


>  <SPECTRUM TYPE>  (5306) 
MS1

>  <INSTRUMENT TYPE>  (5306) 
EI-B

>  <INSTRUMENT>  (5306) 
HITACHI RMU-6L

>  <ION MODE>  (5306) 
P

>  <INCHIKEY>  (5306) 
JULZQKLZSNOEEJ-UHFFFAOYSA-N

>  <FORMULA>  (5306) 
C10H14O

>  <EXACT MASS>  (5306) 
150.104465068

>  <MW>  (5306) 
150

>  <ID>  (5306) 
JP004029

>  <CONTRIBUTOR>  (5306) 
University of Tokyo Team, {Faculty of Engineering, University of Tokyo

>  <COMMENT>  (5306) 
SMILES=COc(c1)ccc(C(C)C)c1
InChI=InChI=1S/C10H14O/c1-8(2)9-4-6-10(11-3)7-5-9/h4-8H,1-3H3
computed SMILES=O(C1=CC=C(C=C1)C(C)C)C
accession=JP004029
date=2016.01.19 (Created 2008.10.21, modified 2011.05.06)
author=MASS SPECTROSCOPY SOC. OF JAPAN (MSSJ)
license=CC BY-NC-SA
exact mass=150.10447
ionization energy=70 eV
ion type=[M]+*
computed spectral entropy=2.3292183354040974
computed normalized entropy=0.6155131113216322
SPLASH=splash10-000i-2900000000-2487623c1f4e3a3f4f91
submitter=submitter = University of Tokyo Team (Faculty of Engineering, University of Tokyo)
MoNA Rating=3.75

>  <NUM PEAKS>  (5306) 
44

>  <MASS SPECTRAL PEAKS>  (5306) 
27 1
39 3.1
41 1.9
50 0.1
51 2
53 1
63 2
64 0.1
65 4
68 1.2
77 6
78 0.16
79 5
89 1.2
91 10
92 0.25
94 1.1
103 6.7
104 1
105 1.55
106 1
107 4.1
108 2
109 0.1
115 1
117 0.8
119 3
120 0.45
121 2
122 1.6
128 1
131 0.1
133 1
134 4.1
135 99.99
136 1.02
144 1.5
145 4.5
146 2
147 0.11
148 1.6
150 27
151 3
160 1

$$$$

     RDKit          2D

 11 11  0  0  0  0  0  0  0  0999 V2000
   -3.9033    1.5020    0.0000 C   0  0  0  0  0  0  0  0  0  0  0  0
    5.1971   -0.7647    0.0000 C   0  0  0  0  0  0  0  0  0  0  0  0
   -2.6080    0.7456    0.0000 C   0  0  0  0  0  0  0  0  0  0  0  0
   -1.3052    1.4892    0.0000 C   0  0  0  0  0  0  0  0  0  0  0  0
    1.2891    1.4828    0.0000 C   0  0  0  0  0  0  0  0  0  0  0  0
   -0.0244   -0.7420    0.0000 C   0  0  0  0  0  0  0  0  0  0  0  0
    2.5736    0.7580    0.0000 C   0  0  0  0  0  0  0  0  0  0  0  0
    1.3001   -1.5362    0.0000 C   0  0  0  0  0  0  0  0  0  0  0  0
   -0.0099    0.7328    0.0000 C   0  0  0  0  0  0  0  0  0  0  0  0
    2.5991   -0.7862    0.0000 C   0  0  0  0  0  0  0  0  0  0  0  0
    3.9043   -1.5254    0.0000 O   0  0  0  0  0  0  0  0  0  0  0  0
  3  1  1  0
  4  3  1  0
  7  5  2  0
  8  6  1  0
  9  4  1  0
  9  5  1  0
  9  6  2  0
 10  7  1  0
 10  8  2  0
 11  2  1  0
 11 10  1  0
M  END
>  <NAME>  (5307) 
PARA-PROPYLANISOLE

>  <SYNONYMS>  (5307) 


>  <SPECTRUM TYPE>  (5307) 
MS1

>  <INSTRUMENT TYPE>  (5307) 
EI-B

>  <INSTRUMENT>  (5307) 
HITACHI RMU-6L

>  <ION MODE>  (5307) 
P

>  <INCHIKEY>  (5307) 
KBHWKXNXTURZCD-UHFFFAOYSA-N

>  <FORMULA>  (5307) 
C10H14O

>  <EXACT MASS>  (5307) 
150.104465068

>  <MW>  (5307) 
150

>  <ID>  (5307) 
JP004028

>  <CONTRIBUTOR>  (5307) 
University of Tokyo Team, {Faculty of Engineering, University of Tokyo

>  <COMMENT>  (5307) 
SMILES=CCCc(c1)ccc(OC)c1
InChI=InChI=1S/C10H14O/c1-3-4-9-5-7-10(11-2)8-6-9/h5-8H,3-4H2,1-2H3
computed SMILES=O(C1=CC=C(C=C1)CCC)C
accession=JP004028
date=2016.01.19 (Created 2008.10.21, modified 2011.05.06)
author=MASS SPECTROSCOPY SOC. OF JAPAN (MSSJ)
license=CC BY-NC-SA
exact mass=150.10447
ionization energy=70 eV
ion type=[M]+*
computed spectral entropy=1.4804162724717673
computed normalized entropy=0.7119297382487811
SPLASH=splash10-00di-4900000000-020014b6d30ecd0402ce
submitter=submitter = University of Tokyo Team (Faculty of Engineering, University of Tokyo)
MoNA Rating=3.75

>  <NUM PEAKS>  (5307) 
8

>  <MASS SPECTRAL PEAKS>  (5307) 
18 12.1
43 24.3
56 10
77 0.81
91 9
121 99.99
122 9
150 17.1

$$$$

     RDKit          2D

 11 11  0  0  0  0  0  0  0  0999 V2000
    2.7783   -0.7587    0.0000 C   0  0  0  0  0  0  0  0  0  0  0  0
    4.8272   -0.2094    0.0000 C   0  0  0  0  0  0  0  0  0  0  0  0
    4.2779    1.8396    0.0000 C   0  0  0  0  0  0  0  0  0  0  0  0
   -1.6700   -0.9600    0.0000 C   0  0  0  0  0  0  0  0  0  0  0  0
   -1.6700    0.5400    0.0000 C   0  0  0  0  0  0  0  0  0  0  0  0
   -0.3700   -1.7100    0.0000 C   0  0  0  0  0  0  0  0  0  0  0  0
   -0.3700    1.2900    0.0000 C   0  0  0  0  0  0  0  0  0  0  0  0
    0.9300   -0.9600    0.0000 C   0  0  0  0  0  0  0  0  0  0  0  0
    0.9300    0.5400    0.0000 C   0  0  0  0  0  0  0  0  0  0  0  0
    3.5281    0.5404    0.0000 C   0  0  0  0  0  0  0  0  0  0  0  0
    2.2289    1.2902    0.0000 O   0  0  0  0  0  0  0  0  0  0  0  0
  5  4  2  0
  6  4  1  0
  7  5  1  0
  8  6  2  0
  9  7  2  0
  9  8  1  0
 10  1  1  0
 10  2  1  0
 10  3  1  0
 11  9  1  0
 11 10  1  0
M  END
>  <NAME>  (5308) 
TERT-BUTYL PHENYL ETHER

>  <SYNONYMS>  (5308) 


>  <SPECTRUM TYPE>  (5308) 
MS1

>  <INSTRUMENT TYPE>  (5308) 
EI-B

>  <INSTRUMENT>  (5308) 
HITACHI RMU-6L

>  <ION MODE>  (5308) 
P

>  <INCHIKEY>  (5308) 
PNKZBZPLRKCVLI-UHFFFAOYSA-N

>  <FORMULA>  (5308) 
C10H14O

>  <EXACT MASS>  (5308) 
150.104465068

>  <MW>  (5308) 
150

>  <ID>  (5308) 
JP004027

>  <CONTRIBUTOR>  (5308) 
University of Tokyo Team, {Faculty of Engineering, University of Tokyo

>  <COMMENT>  (5308) 
SMILES=CC(C)(C)Oc(c1)cccc1
InChI=InChI=1S/C10H14O/c1-10(2,3)11-9-7-5-4-6-8-9/h4-8H,1-3H3
computed SMILES=O(C=1C=CC=CC1)C(C)(C)C
accession=JP004027
date=2016.01.19 (Created 2008.10.21, modified 2011.05.06)
author=MASS SPECTROSCOPY SOC. OF JAPAN (MSSJ)
license=CC BY-NC-SA
exact mass=150.10447
ionization energy=70 eV
ion type=[M]+*
computed spectral entropy=1.3264347721879775
computed normalized entropy=0.47841021697456926
SPLASH=splash10-0006-9000000000-53507c69ce65f2461c67
submitter=submitter = University of Tokyo Team (Faculty of Engineering, University of Tokyo)
MoNA Rating=3.75

>  <NUM PEAKS>  (5308) 
16

>  <MASS SPECTRAL PEAKS>  (5308) 
38 1.7
39 10
40 2
41 1.11
43 1
50 1
51 4
55 0.21
56 1.1
57 10
65 4.1
66 0.3
67 3.9
68 1.5
94 99.99
135 3

$$$$

     RDKit          2D

 11 11  0  0  0  0  0  0  0  0999 V2000
    7.4251    1.2910    0.0000 C   0  0  0  0  0  0  0  0  0  0  0  0
    6.1262    0.5408    0.0000 C   0  0  0  0  0  0  0  0  0  0  0  0
    4.8270    1.2906    0.0000 C   0  0  0  0  0  0  0  0  0  0  0  0
   -1.6700   -0.9600    0.0000 C   0  0  0  0  0  0  0  0  0  0  0  0
   -1.6700    0.5400    0.0000 C   0  0  0  0  0  0  0  0  0  0  0  0
   -0.3700   -1.7100    0.0000 C   0  0  0  0  0  0  0  0  0  0  0  0
   -0.3700    1.2900    0.0000 C   0  0  0  0  0  0  0  0  0  0  0  0
    0.9300   -0.9600    0.0000 C   0  0  0  0  0  0  0  0  0  0  0  0
    3.5281    0.5404    0.0000 C   0  0  0  0  0  0  0  0  0  0  0  0
    0.9300    0.5400    0.0000 C   0  0  0  0  0  0  0  0  0  0  0  0
    2.2289    1.2902    0.0000 O   0  0  0  0  0  0  0  0  0  0  0  0
  2  1  1  0
  3  2  1  0
  5  4  2  0
  6  4  1  0
  7  5  1  0
  8  6  2  0
  9  3  1  0
 10  7  2  0
 10  8  1  0
 11  9  1  0
 11 10  1  0
M  END
>  <NAME>  (5309) 
BUTYL PHENYL ETHER

>  <SYNONYMS>  (5309) 


>  <SPECTRUM TYPE>  (5309) 
MS1

>  <INSTRUMENT TYPE>  (5309) 
EI-B

>  <INSTRUMENT>  (5309) 
HITACHI RMU-6L

>  <ION MODE>  (5309) 
P

>  <INCHIKEY>  (5309) 
YFNONBGXNFCTMM-UHFFFAOYSA-N

>  <FORMULA>  (5309) 
C10H14O

>  <EXACT MASS>  (5309) 
150.104465068

>  <MW>  (5309) 
150

>  <ID>  (5309) 
JP004026

>  <CONTRIBUTOR>  (5309) 
University of Tokyo Team, {Faculty of Engineering, University of Tokyo

>  <COMMENT>  (5309) 
SMILES=CCCCOc(c1)cccc1
InChI=InChI=1S/C10H14O/c1-2-3-9-11-10-7-5-4-6-8-10/h4-8H,2-3,9H2,1H3
computed SMILES=O(C=1C=CC=CC1)CCCC
accession=JP004026
date=2016.01.19 (Created 2008.10.21, modified 2011.05.06)
author=MASS SPECTROSCOPY SOC. OF JAPAN (MSSJ)
license=CC BY-NC-SA
exact mass=150.10447
ionization energy=70 eV
ion type=[M]+*
computed spectral entropy=2.03122441390425
computed normalized entropy=0.6163000465392519
SPLASH=splash10-0006-9000000000-4db4a2c7a9b2a5b95c66
submitter=submitter = University of Tokyo Team (Faculty of Engineering, University of Tokyo)
MoNA Rating=3.75

>  <NUM PEAKS>  (5309) 
27

>  <MASS SPECTRAL PEAKS>  (5309) 
26 1.1
27 10
28 2.8
29 1.56
37 1
38 2.1
39 14.9
40 0.3
41 10
50 2
51 6
53 0.1
55 3.1
56 1.6
57 3
63 0.2
64 1.1
65 9.3
66 6.8
77 0.8
79 1
93 1.8
94 99.99
95 0.6
107 1
150 15
151 1.1

$$$$

     RDKit          2D

 10 10  0  0  0  0  0  0  0  0999 V2000
   -5.2108   -1.5321    0.0000 C   0  0  0  0  0  0  0  0  0  0  0  0
    2.6027    1.4936    0.0000 C   0  0  0  0  0  0  0  0  0  0  0  0
   -3.9180   -0.7714    0.0000 C   0  0  0  0  0  0  0  0  0  0  0  0
    1.3000   -0.7500    0.0000 C   0  0  0  0  0  0  0  0  0  0  0  0
    0.0300    1.5000    0.0000 C   0  0  0  0  0  0  0  0  0  0  0  0
    0.0300   -1.5000    0.0000 C   0  0  0  0  0  0  0  0  0  0  0  0
   -1.3200    0.7500    0.0000 C   0  0  0  0  0  0  0  0  0  0  0  0
    1.3000    0.7500    0.0000 C   0  0  0  0  0  0  0  0  0  0  0  0
   -1.3200   -0.7500    0.0000 C   0  0  0  0  0  0  0  0  0  0  0  0
   -2.6128   -1.5107    0.0000 O   0  0  0  0  0  0  0  0  0  0  0  0
  3  1  1  0
  6  4  2  0
  7  5  1  0
  8  2  1  0
  8  4  1  0
  8  5  2  0
  9  6  1  0
  9  7  2  0
 10  3  1  0
 10  9  1  0
M  END
>  <NAME>  (5310) 
PARA-METHYLPHENETOLE

>  <SYNONYMS>  (5310) 


>  <SPECTRUM TYPE>  (5310) 
MS1

>  <INSTRUMENT TYPE>  (5310) 
EI-B

>  <INSTRUMENT>  (5310) 
HITACHI RMU-6L

>  <ION MODE>  (5310) 
P

>  <INCHIKEY>  (5310) 
WSWPHHNIHLTAHB-UHFFFAOYSA-N

>  <FORMULA>  (5310) 
C9H12O

>  <EXACT MASS>  (5310) 
136.088815004

>  <MW>  (5310) 
136

>  <ID>  (5310) 
JP004025

>  <CONTRIBUTOR>  (5310) 
University of Tokyo Team, {Faculty of Engineering, University of Tokyo

>  <COMMENT>  (5310) 
SMILES=CCOc(c1)ccc(C)c1
InChI=InChI=1S/C9H12O/c1-3-10-9-6-4-8(2)5-7-9/h4-7H,3H2,1-2H3
computed SMILES=O(C1=CC=C(C=C1)C)CC
accession=JP004025
date=2016.01.19 (Created 2008.10.21, modified 2011.05.06)
author=MASS SPECTROSCOPY SOC. OF JAPAN (MSSJ)
license=CC BY-NC-SA
exact mass=136.08882
ionization energy=70 eV
ion type=[M]+*
computed spectral entropy=2.632780676610697
computed normalized entropy=0.7291167343881126
SPLASH=splash10-0a6r-9700000000-691ea572acc526dd1b87
submitter=submitter = University of Tokyo Team (Faculty of Engineering, University of Tokyo)
MoNA Rating=3.75

>  <NUM PEAKS>  (5310) 
37

>  <MASS SPECTRAL PEAKS>  (5310) 
26 6.5
27 28.1
28 3
29 0.11
39 11.6
40 1.2
42 2.1
44 0.14
50 6
51 12.5
52 7.9
53 0.79
55 1
62 2
63 5.2
64 0.09
65 8.2
66 1
75 0.8
76 0.09
77 23.1
78 8.5
79 14.2
80 0.84
81 1.3
89 1.5
90 8.5
91 0.81
92 1.9
93 1.7
106 5.5
107 9.27
108 99.99
109 7.1
121 1.2
136 4.8
137 4

$$$$

     RDKit          2D

 10 10  0  0  0  0  0  0  0  0999 V2000
   -3.5812    1.6802    0.0000 C   0  0  0  0  0  0  0  0  0  0  0  0
    4.2148    1.6874    0.0000 C   0  0  0  0  0  0  0  0  0  0  0  0
   -2.2809    0.9324    0.0000 C   0  0  0  0  0  0  0  0  0  0  0  0
    1.6207   -1.3054    0.0000 C   0  0  0  0  0  0  0  0  0  0  0  0
    2.9152   -0.5632    0.0000 C   0  0  0  0  0  0  0  0  0  0  0  0
    0.3216   -0.5554    0.0000 C   0  0  0  0  0  0  0  0  0  0  0  0
    1.6166    1.6876    0.0000 C   0  0  0  0  0  0  0  0  0  0  0  0
    2.9157    0.9376    0.0000 C   0  0  0  0  0  0  0  0  0  0  0  0
    0.3171    0.9368    0.0000 C   0  0  0  0  0  0  0  0  0  0  0  0
   -0.9832    1.6846    0.0000 O   0  0  0  0  0  0  0  0  0  0  0  0
  3  1  1  0
  5  4  2  0
  6  4  1  0
  8  2  1  0
  8  5  1  0
  8  7  2  0
  9  6  2  0
  9  7  1  0
 10  3  1  0
 10  9  1  0
M  END
>  <NAME>  (5311) 
META-METHYLPHENETOLE

>  <SYNONYMS>  (5311) 


>  <SPECTRUM TYPE>  (5311) 
MS1

>  <INSTRUMENT TYPE>  (5311) 
EI-B

>  <INSTRUMENT>  (5311) 
HITACHI RMU-6L

>  <ION MODE>  (5311) 
P

>  <INCHIKEY>  (5311) 
UALKQROXOHJHFG-UHFFFAOYSA-N

>  <FORMULA>  (5311) 
C9H12O

>  <EXACT MASS>  (5311) 
136.088815004

>  <MW>  (5311) 
136

>  <ID>  (5311) 
JP004024

>  <CONTRIBUTOR>  (5311) 
University of Tokyo Team, {Faculty of Engineering, University of Tokyo

>  <COMMENT>  (5311) 
SMILES=CCOc(c1)cc(C)cc1
InChI=InChI=1S/C9H12O/c1-3-10-9-6-4-5-8(2)7-9/h4-7H,3H2,1-2H3
computed SMILES=O(C1=CC=CC(=C1)C)CC
accession=JP004024
date=2016.01.19 (Created 2008.10.21, modified 2011.05.06)
author=MASS SPECTROSCOPY SOC. OF JAPAN (MSSJ)
license=CC BY-NC-SA
exact mass=136.08882
ionization energy=70 eV
ion type=[M]+*
computed spectral entropy=2.805811402208801
computed normalized entropy=0.7287542433340968
SPLASH=splash10-0a70-9800000000-dde886ce9219b533ee8f
submitter=submitter = University of Tokyo Team (Faculty of Engineering, University of Tokyo)
MoNA Rating=3.75

>  <NUM PEAKS>  (5311) 
47

>  <MASS SPECTRAL PEAKS>  (5311) 
26 6.3
27 33.1
28 8.2
29 2.86
31 9.5
37 1.2
38 4.3
39 1.99
40 2.1
41 4.3
43 3.2
45 0.42
50 2.3
51 1.5
52 7.2
55 0.11
59 3.2
62 2.6
63 7
64 0.18
65 10.3
66 1.1
74 1
75 0.08
76 1
77 15.2
78 10.2
79 1.91
80 10.2
81 1.1
87 1.1
89 0.38
90 9.3
91 13.2
92 1.1
93 0.11
99 1.4
105 1.4
106 5.1
107 5.69
108 99.99
109 6.9
111 0.9
121 0.13
125 1.6
136 50.5
137 1.6

$$$$

     RDKit          2D

 10 10  0  0  0  0  0  0  0  0999 V2000
    4.2218   -0.1871    0.0000 C   0  0  0  0  0  0  0  0  0  0  0  0
   -0.9747    1.3135    0.0000 C   0  0  0  0  0  0  0  0  0  0  0  0
    2.9226   -0.9369    0.0000 C   0  0  0  0  0  0  0  0  0  0  0  0
   -2.2745   -2.4382    0.0000 C   0  0  0  0  0  0  0  0  0  0  0  0
   -0.9755   -3.1882    0.0000 C   0  0  0  0  0  0  0  0  0  0  0  0
   -2.2740   -0.9373    0.0000 C   0  0  0  0  0  0  0  0  0  0  0  0
    0.3241   -2.4373    0.0000 C   0  0  0  0  0  0  0  0  0  0  0  0
   -0.9745   -0.1865    0.0000 C   0  0  0  0  0  0  0  0  0  0  0  0
    0.3245   -0.9365    0.0000 C   0  0  0  0  0  0  0  0  0  0  0  0
    1.6237   -0.1867    0.0000 O   0  0  0  0  0  0  0  0  0  0  0  0
  3  1  1  0
  5  4  2  0
  6  4  1  0
  7  5  1  0
  8  2  1  0
  8  6  2  0
  9  7  2  0
  9  8  1  0
 10  3  1  0
 10  9  1  0
M  END
>  <NAME>  (5312) 
ORTHO-METHYLPHENETOLE

>  <SYNONYMS>  (5312) 


>  <SPECTRUM TYPE>  (5312) 
MS1

>  <INSTRUMENT TYPE>  (5312) 
EI-B

>  <INSTRUMENT>  (5312) 
HITACHI RMU-6L

>  <ION MODE>  (5312) 
P

>  <INCHIKEY>  (5312) 
JWMKUKRBNODZFA-UHFFFAOYSA-N

>  <FORMULA>  (5312) 
C9H12O

>  <EXACT MASS>  (5312) 
136.088815004

>  <MW>  (5312) 
136

>  <ID>  (5312) 
JP004023

>  <CONTRIBUTOR>  (5312) 
University of Tokyo Team, {Faculty of Engineering, University of Tokyo

>  <COMMENT>  (5312) 
SMILES=CCOc(c1)c(C)ccc1
InChI=InChI=1S/C9H12O/c1-3-10-9-7-5-4-6-8(9)2/h4-7H,3H2,1-2H3
computed SMILES=O(C=1C=CC=CC1C)CC
accession=JP004023
date=2016.01.19 (Created 2008.10.21, modified 2011.05.06)
author=MASS SPECTROSCOPY SOC. OF JAPAN (MSSJ)
license=CC BY-NC-SA
exact mass=136.08882
ionization energy=70 eV
ion type=[M]+*
computed spectral entropy=2.2683178044679377
computed normalized entropy=0.6962095131304491
SPLASH=splash10-0a4i-3900000000-f1189aa25631dcde4f8f
submitter=submitter = University of Tokyo Team (Faculty of Engineering, University of Tokyo)
MoNA Rating=3.75

>  <NUM PEAKS>  (5312) 
26

>  <MASS SPECTRAL PEAKS>  (5312) 
27 7
29 4.2
39 6.2
41 0.15
50 1.9
51 6
52 3.5
53 0.28
63 2
64 1.1
65 5.9
66 0.1
77 14.3
78 5
79 13
80 0.79
89 3.2
90 16.3
91 11.1
92 0.11
107 55.6
108 99.99
109 7.2
121 0.12
136 63.6
137 5.9

$$$$

     RDKit          2D

 10 10  0  0  0  0  0  0  0  0999 V2000
   -1.6700   -0.9602    0.0000 C   0  0  0  0  0  0  0  0  0  0  0  0
   -0.3708   -1.7100    0.0000 C   0  0  0  0  0  0  0  0  0  0  0  0
    6.1262    0.5406    0.0000 C   0  0  0  0  0  0  0  0  0  0  0  0
    6.1262   -0.9594    0.0000 C   0  0  0  0  0  0  0  0  0  0  0  0
    4.8262    1.2906    0.0000 C   0  0  0  0  0  0  0  0  0  0  0  0
    4.8262   -1.7094    0.0000 C   0  0  0  0  0  0  0  0  0  0  0  0
    3.5262    0.5406    0.0000 C   0  0  0  0  0  0  0  0  0  0  0  0
    0.9281   -0.9598    0.0000 C   0  0  0  0  0  0  0  0  0  0  0  0
    3.5262   -0.9594    0.0000 C   0  0  0  0  0  0  0  0  0  0  0  0
    2.2272   -1.7096    0.0000 O   0  0  0  0  0  0  0  0  0  0  0  0
  2  1  1  0
  4  3  2  0
  5  3  1  0
  6  4  1  0
  7  5  2  0
  8  2  1  0
  9  6  2  0
  9  7  1  0
 10  8  1  0
 10  9  1  0
M  END
>  <NAME>  (5313) 
PHENYL PROPYL ETHER

>  <SYNONYMS>  (5313) 


>  <SPECTRUM TYPE>  (5313) 
MS1

>  <INSTRUMENT TYPE>  (5313) 
EI-B

>  <INSTRUMENT>  (5313) 
HITACHI RMU-6L

>  <ION MODE>  (5313) 
P

>  <INCHIKEY>  (5313) 
DSNYFFJTZPIKFZ-UHFFFAOYSA-N

>  <FORMULA>  (5313) 
C9H12O

>  <EXACT MASS>  (5313) 
136.088815004

>  <MW>  (5313) 
136

>  <ID>  (5313) 
JP004022

>  <CONTRIBUTOR>  (5313) 
University of Tokyo Team, {Faculty of Engineering, University of Tokyo

>  <COMMENT>  (5313) 
SMILES=CCCOc(c1)cccc1
InChI=InChI=1S/C9H12O/c1-2-8-10-9-6-4-3-5-7-9/h3-7H,2,8H2,1H3
computed SMILES=O(C=1C=CC=CC1)CCC
accession=JP004022
date=2016.01.19 (Created 2008.10.21, modified 2011.05.06)
author=MASS SPECTROSCOPY SOC. OF JAPAN (MSSJ)
license=CC BY-NC-SA
exact mass=136.08882
ionization energy=70 eV
ion type=[M]+*
computed spectral entropy=1.2258911460263384
computed normalized entropy=0.46451857345784076
SPLASH=splash10-0006-9000000000-2c1c2173f464a25499fa
submitter=submitter = University of Tokyo Team (Faculty of Engineering, University of Tokyo)
MoNA Rating=3.75

>  <NUM PEAKS>  (5313) 
14

>  <MASS SPECTRAL PEAKS>  (5313) 
27 3.6
39 5.8
40 1.3
41 0.45
43 4.1
50 1.3
51 4.8
55 0.13
63 3.9
94 99.99
95 6.5
107 1.3
136 2.61
137 2.2

$$$$

     RDKit          2D

  9  9  0  0  0  0  0  0  0  0999 V2000
    2.6027    1.4936    0.0000 C   0  0  0  0  0  0  0  0  0  0  0  0
   -3.9180   -0.7714    0.0000 C   0  0  0  0  0  0  0  0  0  0  0  0
    1.3000   -0.7500    0.0000 C   0  0  0  0  0  0  0  0  0  0  0  0
    0.0300    1.5000    0.0000 C   0  0  0  0  0  0  0  0  0  0  0  0
    0.0300   -1.5000    0.0000 C   0  0  0  0  0  0  0  0  0  0  0  0
   -1.3200    0.7500    0.0000 C   0  0  0  0  0  0  0  0  0  0  0  0
    1.3000    0.7500    0.0000 C   0  0  0  0  0  0  0  0  0  0  0  0
   -1.3200   -0.7500    0.0000 C   0  0  0  0  0  0  0  0  0  0  0  0
   -2.6128   -1.5107    0.0000 O   0  0  0  0  0  0  0  0  0  0  0  0
  5  3  2  0
  6  4  1  0
  7  1  1  0
  7  3  1  0
  7  4  2  0
  8  5  1  0
  8  6  2  0
  9  2  1  0
  9  8  1  0
M  END
>  <NAME>  (5314) 
PARA-METHYLANISOLE

>  <SYNONYMS>  (5314) 


>  <SPECTRUM TYPE>  (5314) 
MS1

>  <INSTRUMENT TYPE>  (5314) 
EI-B

>  <INSTRUMENT>  (5314) 
HITACHI RMU-6L

>  <ION MODE>  (5314) 
P

>  <INCHIKEY>  (5314) 
CHLICZRVGGXEOD-UHFFFAOYSA-N

>  <FORMULA>  (5314) 
C8H10O

>  <EXACT MASS>  (5314) 
122.07316494

>  <MW>  (5314) 
122

>  <ID>  (5314) 
JP004021

>  <CONTRIBUTOR>  (5314) 
University of Tokyo Team, {Faculty of Engineering, University of Tokyo

>  <COMMENT>  (5314) 
SMILES=COc(c1)ccc(C)c1
InChI=InChI=1S/C8H10O/c1-7-3-5-8(9-2)6-4-7/h3-6H,1-2H3
computed SMILES=O(C1=CC=C(C=C1)C)C
accession=JP004021
date=2016.01.19 (Created 2008.10.21, modified 2011.05.06)
author=MASS SPECTROSCOPY SOC. OF JAPAN (MSSJ)
license=CC BY-NC-SA
exact mass=122.07316
ionization energy=70 eV
ion type=[M]+*
computed spectral entropy=2.908324624303636
computed normalized entropy=0.7685462161398796
SPLASH=splash10-00fr-9500000000-6cd98b3f34e125094a60
submitter=submitter = University of Tokyo Team (Faculty of Engineering, University of Tokyo)
MoNA Rating=3.75

>  <NUM PEAKS>  (5314) 
44

>  <MASS SPECTRAL PEAKS>  (5314) 
14 4.1
15 30.2
18 1
26 0.6
27 15
28 4
29 7
30 0.11
37 2
38 5.9
39 22.5
40 0.13
41 3.5
43 2
44 1.1
49 0.1
50 15
51 26.2
52 14.1
53 1.39
55 1.3
61 3.2
62 5
63 1.18
64 3.1
65 11.5
66 1.7
74 0.19
75 4.1
76 1
77 52.2
78 1.91
79 37.2
80 3
89 4
90 0.31
91 26.2
92 9
93 2.2
106 0.13
107 37
121 59.1
122 99.99
123 10

$$$$

     RDKit          2D

  9  9  0  0  0  0  0  0  0  0999 V2000
   -0.9745    2.0634    0.0000 C   0  0  0  0  0  0  0  0  0  0  0  0
    2.9228   -0.1870    0.0000 C   0  0  0  0  0  0  0  0  0  0  0  0
   -2.2743   -1.6883    0.0000 C   0  0  0  0  0  0  0  0  0  0  0  0
   -0.9753   -2.4383    0.0000 C   0  0  0  0  0  0  0  0  0  0  0  0
   -2.2738   -0.1874    0.0000 C   0  0  0  0  0  0  0  0  0  0  0  0
    0.3242   -1.6874    0.0000 C   0  0  0  0  0  0  0  0  0  0  0  0
   -0.9743    0.5634    0.0000 C   0  0  0  0  0  0  0  0  0  0  0  0
    0.3247   -0.1866    0.0000 C   0  0  0  0  0  0  0  0  0  0  0  0
    1.6239    0.5632    0.0000 O   0  0  0  0  0  0  0  0  0  0  0  0
  4  3  2  0
  5  3  1  0
  6  4  1  0
  7  1  1  0
  7  5  2  0
  8  6  2  0
  8  7  1  0
  9  2  1  0
  9  8  1  0
M  END
>  <NAME>  (5315) 
ORTHO-METHYLANISOLE

>  <SYNONYMS>  (5315) 


>  <SPECTRUM TYPE>  (5315) 
MS1

>  <INSTRUMENT TYPE>  (5315) 
EI-B

>  <INSTRUMENT>  (5315) 
HITACHI RMU-6L

>  <ION MODE>  (5315) 
P

>  <INCHIKEY>  (5315) 
DTFKRVXLBCAIOZ-UHFFFAOYSA-N

>  <FORMULA>  (5315) 
C8H10O

>  <EXACT MASS>  (5315) 
122.07316494

>  <MW>  (5315) 
122

>  <ID>  (5315) 
JP004020

>  <CONTRIBUTOR>  (5315) 
University of Tokyo Team, {Faculty of Engineering, University of Tokyo

>  <COMMENT>  (5315) 
SMILES=COc(c1)c(C)ccc1
InChI=InChI=1S/C8H10O/c1-7-5-3-4-6-8(7)9-2/h3-6H,1-2H3
computed SMILES=O(C=1C=CC=CC1C)C
accession=JP004020
date=2016.01.19 (Created 2008.10.21, modified 2011.05.06)
author=MASS SPECTROSCOPY SOC. OF JAPAN (MSSJ)
license=CC BY-NC-SA
exact mass=122.07316
ionization energy=70 eV
ion type=[M]+*
computed spectral entropy=1.583228957496602
computed normalized entropy=0.7613721885240505
SPLASH=splash10-00di-3900000000-6946b8ce60a292dc8ca3
submitter=submitter = University of Tokyo Team (Faculty of Engineering, University of Tokyo)
MoNA Rating=3.75

>  <NUM PEAKS>  (5315) 
8

>  <MASS SPECTRAL PEAKS>  (5315) 
65 9.4
77 27.2
79 14
91 3.61
92 8.1
107 46.1
122 99.99
123 9.3

$$$$

     RDKit          2D

  9  9  0  0  0  0  0  0  0  0999 V2000
    4.8270    1.2906    0.0000 C   0  0  0  0  0  0  0  0  0  0  0  0
    3.5281    0.5404    0.0000 C   0  0  0  0  0  0  0  0  0  0  0  0
   -1.6700   -0.9600    0.0000 C   0  0  0  0  0  0  0  0  0  0  0  0
   -1.6700    0.5400    0.0000 C   0  0  0  0  0  0  0  0  0  0  0  0
   -0.3700   -1.7100    0.0000 C   0  0  0  0  0  0  0  0  0  0  0  0
   -0.3700    1.2900    0.0000 C   0  0  0  0  0  0  0  0  0  0  0  0
    0.9300   -0.9600    0.0000 C   0  0  0  0  0  0  0  0  0  0  0  0
    0.9300    0.5400    0.0000 C   0  0  0  0  0  0  0  0  0  0  0  0
    2.2289    1.2902    0.0000 O   0  0  0  0  0  0  0  0  0  0  0  0
  2  1  1  0
  4  3  2  0
  5  3  1  0
  6  4  1  0
  7  5  2  0
  8  6  2  0
  8  7  1  0
  9  2  1  0
  9  8  1  0
M  END
>  <NAME>  (5316) 
PHENETOLE

>  <SYNONYMS>  (5316) 


>  <SPECTRUM TYPE>  (5316) 
MS1

>  <INSTRUMENT TYPE>  (5316) 
EI-B

>  <INSTRUMENT>  (5316) 
HITACHI RMU-6L

>  <ION MODE>  (5316) 
P

>  <INCHIKEY>  (5316) 
DLRJIFUOBPOJNS-UHFFFAOYSA-N

>  <FORMULA>  (5316) 
C8H10O

>  <EXACT MASS>  (5316) 
122.07316494

>  <MW>  (5316) 
122

>  <ID>  (5316) 
JP004019

>  <CONTRIBUTOR>  (5316) 
University of Tokyo Team, {Faculty of Engineering, University of Tokyo

>  <COMMENT>  (5316) 
SMILES=CCOc(c1)cccc1
InChI=InChI=1S/C8H10O/c1-2-9-8-6-4-3-5-7-8/h3-7H,2H2,1H3
computed SMILES=O(C=1C=CC=CC1)CC
accession=JP004019
date=2016.01.19 (Created 2008.10.21, modified 2011.05.06)
author=MASS SPECTROSCOPY SOC. OF JAPAN (MSSJ)
license=CC BY-NC-SA
exact mass=122.07316
ionization energy=70 eV
ion type=[M]+*
computed spectral entropy=1.6691346150402566
computed normalized entropy=0.5571708225648871
SPLASH=splash10-0006-9200000000-0a5d8abdd0d153cfecfb
submitter=submitter = University of Tokyo Team (Faculty of Engineering, University of Tokyo)
MoNA Rating=3.75

>  <NUM PEAKS>  (5316) 
20

>  <MASS SPECTRAL PEAKS>  (5316) 
27 3.1
29 3.1
38 1.5
39 0.73
40 1.9
50 1.8
51 5
55 0.22
63 1.9
64 1
65 7.5
66 1.31
77 7.9
78 1.2
79 1.2
93 0.1
94 99.99
95 6
122 37.9
123 2.9

$$$$

     RDKit          2D

 10 10  0  0  0  0  0  0  0  0999 V2000
   -3.5724    2.0075    0.0000 C   0  0  0  0  0  0  0  0  0  0  0  0
   -0.9743    3.5075    0.0000 C   0  0  0  0  0  0  0  0  0  0  0  0
   -2.2733    1.2575    0.0000 C   0  0  0  0  0  0  0  0  0  0  0  0
    2.9228   -0.2425    0.0000 C   0  0  0  0  0  0  0  0  0  0  0  0
    1.6233   -0.9933    0.0000 C   0  0  0  0  0  0  0  0  0  0  0  0
    2.9233    1.2583    0.0000 C   0  0  0  0  0  0  0  0  0  0  0  0
    0.3243   -0.2433    0.0000 C   0  0  0  0  0  0  0  0  0  0  0  0
    1.6243    2.0083    0.0000 C   0  0  0  0  0  0  0  0  0  0  0  0
    0.3248    1.2575    0.0000 C   0  0  0  0  0  0  0  0  0  0  0  0
   -0.9743    2.0075    0.0000 N   0  0  0  0  0  0  0  0  0  0  0  0
  3  1  1  0
  5  4  2  0
  6  4  1  0
  7  5  1  0
  8  6  2  0
  9  7  2  0
  9  8  1  0
 10  2  1  0
 10  3  1  0
 10  9  1  0
M  END
>  <NAME>  (5317) 
N-ETHYL-N-METHYLANILINE

>  <SYNONYMS>  (5317) 


>  <SPECTRUM TYPE>  (5317) 
MS1

>  <INSTRUMENT TYPE>  (5317) 
EI-B

>  <INSTRUMENT>  (5317) 
HITACHI RMU-6L

>  <ION MODE>  (5317) 
P

>  <INCHIKEY>  (5317) 
PPHQUIPUBYPZLD-UHFFFAOYSA-N

>  <FORMULA>  (5317) 
C9H13N

>  <EXACT MASS>  (5317) 
135.104799416

>  <MW>  (5317) 
135

>  <ID>  (5317) 
JP004018

>  <CONTRIBUTOR>  (5317) 
University of Tokyo Team, {Faculty of Engineering, University of Tokyo

>  <COMMENT>  (5317) 
SMILES=CCN(C)c(c1)cccc1
InChI=InChI=1S/C9H13N/c1-3-10(2)9-7-5-4-6-8-9/h4-8H,3H2,1-2H3
computed SMILES=C=1C=CC(=CC1)N(C)CC
accession=JP004018
license=CC BY-NC-SA
date=2016.01.19 (Created 2008.10.21, modified 2011.05.06)
author=MASS SPECTROSCOPY SOC. OF JAPAN (MSSJ)
exact mass=135.1048
ionization energy=70 eV
ion type=[M]+*
computed spectral entropy=1.7632572903937227
computed normalized entropy=0.8479475162207782
SPLASH=splash10-00xr-8900000000-44d555f5e1796de4ad20
submitter=submitter = University of Tokyo Team (Faculty of Engineering, University of Tokyo)
MoNA Rating=3.75

>  <NUM PEAKS>  (5317) 
8

>  <MASS SPECTRAL PEAKS>  (5317) 
17 17.5
18 63.1
32 25.4
51 1.43
77 30.6
106 16.3
120 99.99
135 34.4

$$$$

     RDKit          2D

 10 10  0  0  0  0  0  0  0  0999 V2000
   -3.5147    1.3398    0.0000 C   0  0  0  0  0  0  0  0  0  0  0  0
    1.6435    2.8271    0.0000 C   0  0  0  0  0  0  0  0  0  0  0  0
   -2.2176    0.5865    0.0000 C   0  0  0  0  0  0  0  0  0  0  0  0
    2.9500   -0.8900    0.0000 C   0  0  0  0  0  0  0  0  0  0  0  0
    1.6783   -1.6372    0.0000 C   0  0  0  0  0  0  0  0  0  0  0  0
    2.9369    0.5921    0.0000 C   0  0  0  0  0  0  0  0  0  0  0  0
    0.3615   -0.9187    0.0000 C   0  0  0  0  0  0  0  0  0  0  0  0
    1.6521    1.3271    0.0000 C   0  0  0  0  0  0  0  0  0  0  0  0
    0.3805    0.5800    0.0000 C   0  0  0  0  0  0  0  0  0  0  0  0
   -0.9167    1.3333    0.0000 N   0  0  0  0  0  0  0  0  0  0  0  0
  3  1  1  0
  5  4  2  0
  6  4  1  0
  7  5  1  0
  8  2  1  0
  8  6  2  0
  9  7  2  0
  9  8  1  0
 10  3  1  0
 10  9  1  0
M  END
>  <NAME>  (5318) 
N-ETHYL-ORTHO-TOLUIDINE

>  <SYNONYMS>  (5318) 


>  <SPECTRUM TYPE>  (5318) 
MS1

>  <INSTRUMENT TYPE>  (5318) 
EI-B

>  <INSTRUMENT>  (5318) 
HITACHI RMU-6L

>  <ION MODE>  (5318) 
P

>  <INCHIKEY>  (5318) 
MWOUGPLLVVEUMM-UHFFFAOYSA-N

>  <FORMULA>  (5318) 
C9H13N

>  <EXACT MASS>  (5318) 
135.104799416

>  <MW>  (5318) 
135

>  <ID>  (5318) 
JP004017

>  <CONTRIBUTOR>  (5318) 
University of Tokyo Team, {Faculty of Engineering, University of Tokyo

>  <COMMENT>  (5318) 
SMILES=CCNc(c1)c(C)ccc1
InChI=InChI=1S/C9H13N/c1-3-10-9-7-5-4-6-8(9)2/h4-7,10H,3H2,1-2H3
computed SMILES=C=1C=CC(=C(C1)NCC)C
accession=JP004017
date=2016.01.19 (Created 2008.10.21, modified 2011.05.06)
author=MASS SPECTROSCOPY SOC. OF JAPAN (MSSJ)
license=CC BY-NC-SA
exact mass=135.1048
ionization energy=70 eV
ion type=[M]+*
computed spectral entropy=2.7678372492027155
computed normalized entropy=0.7149815371001854
SPLASH=splash10-00di-7900000000-e74d73cdca402960f89b
submitter=submitter = University of Tokyo Team (Faculty of Engineering, University of Tokyo)
MoNA Rating=3.75

>  <NUM PEAKS>  (5318) 
48

>  <MASS SPECTRAL PEAKS>  (5318) 
15 3.8
17 1.9
18 6.9
26 0.12
27 9.1
28 6.8
29 4.2
30 0.15
38 2.1
39 11.2
40 1.1
41 0.31
42 1.3
44 1
50 3
51 0.82
52 4.8
53 3.2
54 1.5
58 0.35
59 3.2
60 2.5
61 2
62 0.18
63 4.2
64 1.8
65 12.3
66 0.1
75 1.2
76 1.2
77 10.5
78 0.41
79 3.3
80 1.3
89 3.9
90 0.13
91 22.9
92 5
93 2
104 0.2
105 1.6
106 16.1
117 1.5
118 0.74
119 3.5
120 99.99
134 6
135 33

$$$$

     RDKit          2D

  9  9  0  0  0  0  0  0  0  0999 V2000
    2.3002    1.6680    0.0000 C   0  0  0  0  0  0  0  0  0  0  0  0
    2.3002   -1.3280    0.0000 C   0  0  0  0  0  0  0  0  0  0  0  0
   -0.2900    1.6700    0.0000 C   0  0  0  0  0  0  0  0  0  0  0  0
   -1.5800    0.9200    0.0000 C   0  0  0  0  0  0  0  0  0  0  0  0
   -0.2900   -1.3300    0.0000 C   0  0  0  0  0  0  0  0  0  0  0  0
    1.0000    0.9200    0.0000 C   0  0  0  0  0  0  0  0  0  0  0  0
    1.0000   -0.5800    0.0000 C   0  0  0  0  0  0  0  0  0  0  0  0
   -1.5800   -0.5800    0.0000 C   0  0  0  0  0  0  0  0  0  0  0  0
   -2.8802   -1.3280    0.0000 O   0  0  0  0  0  0  0  0  0  0  0  0
  4  3  2  0
  6  1  1  0
  6  3  1  0
  7  2  1  0
  7  5  1  0
  7  6  2  0
  8  4  1  0
  8  5  2  0
  9  8  1  0
M  END
>  <NAME>  (5319) 
3,4-DIMETHYLPHENOL

>  <SYNONYMS>  (5319) 


>  <SPECTRUM TYPE>  (5319) 
MS1

>  <INSTRUMENT TYPE>  (5319) 
EI-B

>  <INSTRUMENT>  (5319) 
HITACHI RMU-6L

>  <ION MODE>  (5319) 
P

>  <INCHIKEY>  (5319) 
YCOXTKKNXUZSKD-UHFFFAOYSA-N

>  <FORMULA>  (5319) 
C8H10O

>  <EXACT MASS>  (5319) 
122.07316494

>  <MW>  (5319) 
122

>  <ID>  (5319) 
JP004016

>  <CONTRIBUTOR>  (5319) 
University of Tokyo Team, {Faculty of Engineering, University of Tokyo

>  <COMMENT>  (5319) 
SMILES=Oc(c1)cc(C)c(C)c1
InChI=InChI=1S/C8H10O/c1-6-3-4-8(9)5-7(6)2/h3-5,9H,1-2H3
computed SMILES=OC1=CC=C(C(=C1)C)C
accession=JP004016
date=2016.01.19 (Created 2008.10.21, modified 2011.05.06)
author=MASS SPECTROSCOPY SOC. OF JAPAN (MSSJ)
license=CC BY-NC-SA
exact mass=122.07316
ionization energy=70 eV
ion type=[M]+*
computed spectral entropy=2.6844579657240657
computed normalized entropy=0.7011515803453785
SPLASH=splash10-0avi-5900000000-effbac24fad4c27cf9b6
submitter=submitter = University of Tokyo Team (Faculty of Engineering, University of Tokyo)
MoNA Rating=3.75

>  <NUM PEAKS>  (5319) 
46

>  <MASS SPECTRAL PEAKS>  (5319) 
38 6.3
39 24.5
40 3
41 0.6
42 1.5
43 3
49 1
50 0.9
51 17
52 6.5
53 10.9
54 0.3
55 4.5
59 2.5
60 2.3
61 0.38
62 3.5
63 7.9
64 1.7
65 0.84
66 3
67 2
74 2.3
75 0.2
76 2
77 24.5
78 6.2
79 0.82
81 1.5
89 2
91 5
92 0.29
93 3.1
94 2
95 1.4
100 0.3
103 2.5
104 1.2
105 2.9
107 99.99
108 7.2
119 56.1
120 2.8
121 4.81
122 82.8
123 7

$$$$

     RDKit          2D

  8  8  0  0  0  0  0  0  0  0999 V2000
   -0.6520   -2.2491    0.0000 C   0  0  0  0  0  0  0  0  0  0  0  0
   -1.9467    1.4939    0.0000 C   0  0  0  0  0  0  0  0  0  0  0  0
   -1.9512    0.0017    0.0000 C   0  0  0  0  0  0  0  0  0  0  0  0
   -0.6477    2.2439    0.0000 C   0  0  0  0  0  0  0  0  0  0  0  0
    0.6473    0.0009    0.0000 C   0  0  0  0  0  0  0  0  0  0  0  0
   -0.6517   -0.7491    0.0000 C   0  0  0  0  0  0  0  0  0  0  0  0
    0.6468    1.5017    0.0000 C   0  0  0  0  0  0  0  0  0  0  0  0
    1.9446    2.2539    0.0000 O   0  0  0  0  0  0  0  0  0  0  0  0
  3  2  2  0
  4  2  1  0
  6  1  1  0
  6  3  1  0
  6  5  2  0
  7  4  2  0
  7  5  1  0
  8  7  1  0
M  END
>  <NAME>  (5320) 
META-METHYLPHENOL

>  <SYNONYMS>  (5320) 


>  <SPECTRUM TYPE>  (5320) 
MS1

>  <INSTRUMENT TYPE>  (5320) 
EI-B

>  <INSTRUMENT>  (5320) 
HITACHI RMU-6L

>  <ION MODE>  (5320) 
P

>  <INCHIKEY>  (5320) 
RLSSMJSEOOYNOY-UHFFFAOYSA-N

>  <FORMULA>  (5320) 
C7H8O

>  <EXACT MASS>  (5320) 
108.057514876

>  <MW>  (5320) 
108

>  <ID>  (5320) 
JP004015

>  <CONTRIBUTOR>  (5320) 
University of Tokyo Team, {Faculty of Engineering, University of Tokyo

>  <COMMENT>  (5320) 
SMILES=Cc(c1)cc(O)cc1
InChI=InChI=1S/C7H8O/c1-6-3-2-4-7(8)5-6/h2-5,8H,1H3
computed SMILES=OC1=CC=CC(=C1)C
accession=JP004015
date=2016.01.19 (Created 2008.10.21, modified 2011.05.06)
author=MASS SPECTROSCOPY SOC. OF JAPAN (MSSJ)
license=CC BY-NC-SA
exact mass=108.05751
ionization energy=70 eV
ion type=[M]+*
computed spectral entropy=2.7257811727532015
computed normalized entropy=0.7340051906336792
SPLASH=splash10-0a4i-9700000000-987a7fd82a03c828f2f6
submitter=submitter = University of Tokyo Team (Faculty of Engineering, University of Tokyo)
MoNA Rating=3.75

>  <NUM PEAKS>  (5320) 
41

>  <MASS SPECTRAL PEAKS>  (5320) 
26 5
27 18.8
28 3.2
29 0.5
37 4.9
38 12.4
39 32.5
40 0.41
41 2.9
42 1.3
43 2.1
49 0.2
50 11
51 18
52 8.1
53 1.62
54 6.5
55 4.5
56 2
61 0.21
62 4
63 9.2
64 2.9
65 0.51
66 2.3
67 1.5
68 1
74 0.29
75 3
76 1.5
77 30.2
78 0.85
79 34
80 8.3
81 2.3
89 0.42
90 11
91 7.2
107 94
108 99.99
109 8.1

$$$$

     RDKit          2D

  8  8  0  0  0  0  0  0  0  0999 V2000
    1.9489    1.5002    0.0000 C   0  0  0  0  0  0  0  0  0  0  0  0
   -1.9500    0.7500    0.0000 C   0  0  0  0  0  0  0  0  0  0  0  0
   -1.9500   -0.7500    0.0000 C   0  0  0  0  0  0  0  0  0  0  0  0
   -0.6500    1.5000    0.0000 C   0  0  0  0  0  0  0  0  0  0  0  0
   -0.6500   -1.5000    0.0000 C   0  0  0  0  0  0  0  0  0  0  0  0
    0.6500    0.7500    0.0000 C   0  0  0  0  0  0  0  0  0  0  0  0
    0.6500   -0.7500    0.0000 C   0  0  0  0  0  0  0  0  0  0  0  0
    1.9489   -1.5002    0.0000 O   0  0  0  0  0  0  0  0  0  0  0  0
  3  2  2  0
  4  2  1  0
  5  3  1  0
  6  1  1  0
  6  4  2  0
  7  5  2  0
  7  6  1  0
  8  7  1  0
M  END
>  <NAME>  (5321) 
ORTHO-METHYLPHENOL

>  <SYNONYMS>  (5321) 


>  <SPECTRUM TYPE>  (5321) 
MS1

>  <INSTRUMENT TYPE>  (5321) 
EI-B

>  <INSTRUMENT>  (5321) 
HITACHI RMU-6L

>  <ION MODE>  (5321) 
P

>  <INCHIKEY>  (5321) 
QWVGKYWNOKOFNN-UHFFFAOYSA-N

>  <FORMULA>  (5321) 
C7H8O

>  <EXACT MASS>  (5321) 
108.057514876

>  <MW>  (5321) 
108

>  <ID>  (5321) 
JP004014

>  <CONTRIBUTOR>  (5321) 
University of Tokyo Team, {Faculty of Engineering, University of Tokyo

>  <COMMENT>  (5321) 
SMILES=Cc(c1)c(O)ccc1
InChI=InChI=1S/C7H8O/c1-6-4-2-3-5-7(6)8/h2-5,8H,1H3
computed SMILES=OC=1C=CC=CC1C
license=CC BY-NC-SA
accession=JP004014
date=2016.01.19 (Created 2008.10.21, modified 2011.05.06)
author=MASS SPECTROSCOPY SOC. OF JAPAN (MSSJ)
exact mass=108.05751
ionization energy=70 eV
ion type=[M]+*
computed spectral entropy=3.025044256314965
computed normalized entropy=0.8093396595347834
SPLASH=splash10-0pbi-9200000000-be9e6e56af8374e66beb
submitter=submitter = University of Tokyo Team (Faculty of Engineering, University of Tokyo)
MoNA Rating=3.75

>  <NUM PEAKS>  (5321) 
42

>  <MASS SPECTRAL PEAKS>  (5321) 
29 13
31 1.5
32 1.1
36 0.3
37 13
38 19.1
39 42.2
40 0.55
41 3.1
42 2
43 3.8
48 0.17
49 5
50 24.2
51 32.2
52 1.4
53 22.6
54 6.5
55 5.3
61 0.39
62 6.2
63 13.9
64 7.9
65 0.65
66 6.2
67 1.3
68 3.9
73 0.2
74 4.1
75 4.5
76 1.9
77 4.61
78 14
79 42
80 18.8
81 0.42
89 14.2
90 28
91 8.8
107 8.87
108 99.99
109 6.7

$$$$

     RDKit          2D

  7  7  0  0  0  0  0  0  0  0999 V2000
   -1.6700   -0.9600    0.0000 C   0  0  0  0  0  0  0  0  0  0  0  0
   -1.6700    0.5400    0.0000 C   0  0  0  0  0  0  0  0  0  0  0  0
   -0.3700   -1.7100    0.0000 C   0  0  0  0  0  0  0  0  0  0  0  0
   -0.3700    1.2900    0.0000 C   0  0  0  0  0  0  0  0  0  0  0  0
    0.9300   -0.9600    0.0000 C   0  0  0  0  0  0  0  0  0  0  0  0
    0.9300    0.5400    0.0000 C   0  0  0  0  0  0  0  0  0  0  0  0
    2.2289    1.2902    0.0000 O   0  0  0  0  0  0  0  0  0  0  0  0
  2  1  2  0
  3  1  1  0
  4  2  1  0
  5  3  2  0
  6  4  2  0
  6  5  1  0
  7  6  1  0
M  END
>  <NAME>  (5322) 
PHENOL

>  <SYNONYMS>  (5322) 


>  <SPECTRUM TYPE>  (5322) 
MS1

>  <INSTRUMENT TYPE>  (5322) 
EI-B

>  <INSTRUMENT>  (5322) 
HITACHI RMU-6L

>  <ION MODE>  (5322) 
P

>  <INCHIKEY>  (5322) 
ISWSIDIOOBJBQZ-UHFFFAOYSA-N

>  <FORMULA>  (5322) 
C6H6O

>  <EXACT MASS>  (5322) 
94.041864812

>  <MW>  (5322) 
94

>  <ID>  (5322) 
JP004013

>  <CONTRIBUTOR>  (5322) 
University of Tokyo Team, {Faculty of Engineering, University of Tokyo

>  <COMMENT>  (5322) 
SMILES=Oc(c1)cccc1
InChI=InChI=1S/C6H6O/c7-6-4-2-1-3-5-6/h1-5,7H
computed SMILES=OC=1C=CC=CC1
accession=JP004013
date=2016.01.19 (Created 2008.10.21, modified 2011.05.06)
author=MASS SPECTROSCOPY SOC. OF JAPAN (MSSJ)
license=CC BY-NC-SA
exact mass=94.04186
ionization energy=70 eV
ion type=[M]+*
computed spectral entropy=2.354079324950926
computed normalized entropy=0.6855236157770922
SPLASH=splash10-0006-9000000000-89b0c430b8924ee2afde
submitter=submitter = University of Tokyo Team (Faculty of Engineering, University of Tokyo)
MoNA Rating=3.75

>  <NUM PEAKS>  (5322) 
31

>  <MASS SPECTRAL PEAKS>  (5322) 
39 53
40 21
41 1.1
42 0.18
43 1.1
46 1.4
47 8
49 0.24
50 10.5
51 10
52 2
53 0.64
54 1.3
55 15.3
61 5.1
62 0.7
63 10.9
64 3.5
65 39
66 4.6
67 3.1
68 2.2
73 1
74 0.3
75 1.6
76 1.5
77 1.3
79 0.18
93 2.3
94 99.99
95 10.1

$$$$

     RDKit          2D

 10 10  0  0  0  0  0  0  0  0999 V2000
    4.2219   -2.0625    0.0000 C   0  0  0  0  0  0  0  0  0  0  0  0
    2.9228   -1.3125    0.0000 C   0  0  0  0  0  0  0  0  0  0  0  0
   -2.2738   -1.3133    0.0000 C   0  0  0  0  0  0  0  0  0  0  0  0
   -0.9738    0.9383    0.0000 C   0  0  0  0  0  0  0  0  0  0  0  0
   -0.9748   -2.0633    0.0000 C   0  0  0  0  0  0  0  0  0  0  0  0
    0.3252    0.1883    0.0000 C   0  0  0  0  0  0  0  0  0  0  0  0
   -2.2733    0.1875    0.0000 C   0  0  0  0  0  0  0  0  0  0  0  0
    0.3248   -1.3125    0.0000 C   0  0  0  0  0  0  0  0  0  0  0  0
   -3.5724    0.9375    0.0000 O   0  0  0  0  0  0  0  0  0  0  0  0
    1.6238   -2.0625    0.0000 O   0  0  0  0  0  0  0  0  0  0  0  0
  2  1  1  0
  5  3  2  0
  6  4  1  0
  7  3  1  0
  7  4  2  0
  8  5  1  0
  8  6  2  0
  9  7  1  0
 10  2  1  0
 10  8  1  0
M  END
>  <NAME>  (5323) 
PARA-ETHOXYPHENOL

>  <SYNONYMS>  (5323) 


>  <SPECTRUM TYPE>  (5323) 
MS1

>  <INSTRUMENT TYPE>  (5323) 
EI-B

>  <INSTRUMENT>  (5323) 
HITACHI RMU-6L

>  <ION MODE>  (5323) 
P

>  <INCHIKEY>  (5323) 
LKVFCSWBKOVHAH-UHFFFAOYSA-N

>  <FORMULA>  (5323) 
C8H10O2

>  <EXACT MASS>  (5323) 
138.06807956

>  <MW>  (5323) 
138

>  <ID>  (5323) 
JP004012

>  <CONTRIBUTOR>  (5323) 
University of Tokyo Team, {Faculty of Engineering, University of Tokyo

>  <COMMENT>  (5323) 
SMILES=CCOc(c1)ccc(O)c1
InChI=InChI=1S/C8H10O2/c1-2-10-8-5-3-7(9)4-6-8/h3-6,9H,2H2,1H3
computed SMILES=OC1=CC=C(OCC)C=C1
accession=JP004012
date=2016.01.19 (Created 2008.10.21, modified 2011.05.06)
author=MASS SPECTROSCOPY SOC. OF JAPAN (MSSJ)
license=CC BY-NC-SA
exact mass=138.06808
ionization energy=70 eV
ion type=[M]+*
computed spectral entropy=1.9689364875537587
computed normalized entropy=0.6369813799919098
SPLASH=splash10-03di-3900000000-84bcb341de72d774abca
submitter=submitter = University of Tokyo Team (Faculty of Engineering, University of Tokyo)
MoNA Rating=3.75

>  <NUM PEAKS>  (5323) 
22

>  <MASS SPECTRAL PEAKS>  (5323) 
28 1.8
29 5
43 4.5
51 0.18
53 8.6
54 4
55 3.4
56 0.3
63 2.1
64 1.4
65 3.3
66 0.63
79 4
81 14.7
82 7.7
93 0.2
94 6.1
110 99.99
111 7.4
121 0.15
138 47
139 4

$$$$

     RDKit          2D

  9  9  0  0  0  0  0  0  0  0999 V2000
    3.5724   -0.9375    0.0000 C   0  0  0  0  0  0  0  0  0  0  0  0
   -1.6243   -0.9383    0.0000 C   0  0  0  0  0  0  0  0  0  0  0  0
   -0.3243    1.3133    0.0000 C   0  0  0  0  0  0  0  0  0  0  0  0
   -0.3252   -1.6883    0.0000 C   0  0  0  0  0  0  0  0  0  0  0  0
    0.9748    0.5633    0.0000 C   0  0  0  0  0  0  0  0  0  0  0  0
   -1.6238    0.5625    0.0000 C   0  0  0  0  0  0  0  0  0  0  0  0
    0.9743   -0.9375    0.0000 C   0  0  0  0  0  0  0  0  0  0  0  0
   -2.9228    1.3125    0.0000 O   0  0  0  0  0  0  0  0  0  0  0  0
    2.2733   -1.6875    0.0000 O   0  0  0  0  0  0  0  0  0  0  0  0
  4  2  2  0
  5  3  1  0
  6  2  1  0
  6  3  2  0
  7  4  1  0
  7  5  2  0
  8  6  1  0
  9  1  1  0
  9  7  1  0
M  END
>  <NAME>  (5324) 
PARA-METHOXYPHENOL

>  <SYNONYMS>  (5324) 


>  <SPECTRUM TYPE>  (5324) 
MS1

>  <INSTRUMENT TYPE>  (5324) 
EI-B

>  <INSTRUMENT>  (5324) 
HITACHI RMU-6L

>  <ION MODE>  (5324) 
P

>  <INCHIKEY>  (5324) 
NWVVVBRKAWDGAB-UHFFFAOYSA-N

>  <FORMULA>  (5324) 
C7H8O2

>  <EXACT MASS>  (5324) 
124.052429496

>  <MW>  (5324) 
124

>  <ID>  (5324) 
JP004011

>  <CONTRIBUTOR>  (5324) 
University of Tokyo Team, {Faculty of Engineering, University of Tokyo

>  <COMMENT>  (5324) 
SMILES=COc(c1)ccc(O)c1
InChI=InChI=1S/C7H8O2/c1-9-7-4-2-6(8)3-5-7/h2-5,8H,1H3
computed SMILES=OC1=CC=C(OC)C=C1
accession=JP004011
date=2016.01.19 (Created 2008.10.21, modified 2011.05.06)
author=MASS SPECTROSCOPY SOC. OF JAPAN (MSSJ)
license=CC BY-NC-SA
exact mass=124.05243
ionization energy=70 eV
ion type=[M]+*
computed spectral entropy=3.307143307180228
computed normalized entropy=0.8044866898014853
SPLASH=splash10-00du-9300000000-7365fadaa1b55aee92c0
submitter=submitter = University of Tokyo Team (Faculty of Engineering, University of Tokyo)
MoNA Rating=3.75

>  <NUM PEAKS>  (5324) 
61

>  <MASS SPECTRAL PEAKS>  (5324) 
25 2
26 7.5
27 22.9
28 0.43
29 13.2
30 2.9
31 2.5
35 0.25
37 6
38 15.5
39 36.2
40 0.6
41 12.4
42 3.1
43 3
49 0.18
50 10.5
51 16.8
52 13.1
53 3.21
54 4.5
55 11.5
56 1.9
61 0.35
62 8.3
63 14
64 7.8
65 1.94
66 23.7
67 6
68 3.7
69 1.09
73 1.8
74 3.1
75 2
76 0.17
77 10.6
78 7.9
79 5.3
80 0.5
81 39.1
82 3.3
90 2.6
91 0.25
92 3.5
93 5.9
94 60
95 3.54
96 3
105 3
106 2.1
107 0.79
108 6.7
109 8.2
110 2.9
121 0.22
122 2
123 9.1
124 99.99
125 0.83
136 7

$$$$

     RDKit          2D

  9  9  0  0  0  0  0  0  0  0999 V2000
   -3.2458   -0.3738    0.0000 C   0  0  0  0  0  0  0  0  0  0  0  0
    0.6473    1.8688    0.0000 C   0  0  0  0  0  0  0  0  0  0  0  0
    1.9463    1.1188    0.0000 C   0  0  0  0  0  0  0  0  0  0  0  0
   -0.6473    1.1266    0.0000 C   0  0  0  0  0  0  0  0  0  0  0  0
    0.6513   -1.1242    0.0000 C   0  0  0  0  0  0  0  0  0  0  0  0
    1.9508   -0.3734    0.0000 C   0  0  0  0  0  0  0  0  0  0  0  0
   -0.6477   -0.3742    0.0000 C   0  0  0  0  0  0  0  0  0  0  0  0
    3.2511   -1.1212    0.0000 O   0  0  0  0  0  0  0  0  0  0  0  0
   -1.9469   -1.1240    0.0000 O   0  0  0  0  0  0  0  0  0  0  0  0
  3  2  2  0
  4  2  1  0
  6  3  1  0
  6  5  2  0
  7  4  2  0
  7  5  1  0
  8  6  1  0
  9  1  1  0
  9  7  1  0
M  END
>  <NAME>  (5325) 
META-METHOXYPHENOL

>  <SYNONYMS>  (5325) 


>  <SPECTRUM TYPE>  (5325) 
MS1

>  <INSTRUMENT TYPE>  (5325) 
EI-B

>  <INSTRUMENT>  (5325) 
HITACHI RMU-6L

>  <ION MODE>  (5325) 
P

>  <INCHIKEY>  (5325) 
ASHGTJPOSUFTGB-UHFFFAOYSA-N

>  <FORMULA>  (5325) 
C7H8O2

>  <EXACT MASS>  (5325) 
124.052429496

>  <MW>  (5325) 
124

>  <ID>  (5325) 
JP004010

>  <CONTRIBUTOR>  (5325) 
University of Tokyo Team, {Faculty of Engineering, University of Tokyo

>  <COMMENT>  (5325) 
SMILES=COc(c1)cc(O)cc1
InChI=InChI=1S/C7H8O2/c1-9-7-4-2-3-6(8)5-7/h2-5,8H,1H3
computed SMILES=OC1=CC=CC(OC)=C1
accession=JP004010
date=2016.01.19 (Created 2008.10.21, modified 2011.05.06)
author=MASS SPECTROSCOPY SOC. OF JAPAN (MSSJ)
license=CC BY-NC-SA
exact mass=124.05243
ionization energy=70 eV
ion type=[M]+*
computed spectral entropy=3.303028703366331
computed normalized entropy=0.8134651058485951
SPLASH=splash10-00dr-9300000000-4b13587c7cc49955ac58
submitter=submitter = University of Tokyo Team (Faculty of Engineering, University of Tokyo)
MoNA Rating=3.75

>  <NUM PEAKS>  (5325) 
58

>  <MASS SPECTRAL PEAKS>  (5325) 
25 2
26 7
27 2.5
28 0.5
29 3.9
30 3
31 3
37 0.7
38 14.9
39 36.2
40 6.6
41 1.19
42 4.1
43 4.1
45 2.5
50 1.05
51 15.2
52 13.5
53 32
55 1.2
61 3
62 8.4
63 14.5
64 0.8
65 14.6
66 21.3
67 6.9
68 0.35
69 10.6
73 2.3
74 3.4
75 0.28
76 4.2
77 9.8
78 7.5
79 0.6
80 4.8
81 39.5
82 3.1
90 0.2
91 2.4
92 1.8
93 5.6
94 5.89
95 34.9
96 3.7
105 3
106 0.16
107 8
108 5.2
109 8.1
110 0.3
121 3
122 2.5
123 8.8
124 99.99
125 7.8
136 6.5

$$$$

     RDKit          2D

  9  9  0  0  0  0  0  0  0  0999 V2000
    3.5681    0.1904    0.0000 C   0  0  0  0  0  0  0  0  0  0  0  0
   -1.6200   -1.3100    0.0000 C   0  0  0  0  0  0  0  0  0  0  0  0
   -0.3300   -2.0600    0.0000 C   0  0  0  0  0  0  0  0  0  0  0  0
   -1.6200    0.1900    0.0000 C   0  0  0  0  0  0  0  0  0  0  0  0
    0.9700   -1.3100    0.0000 C   0  0  0  0  0  0  0  0  0  0  0  0
   -0.3300    0.9400    0.0000 C   0  0  0  0  0  0  0  0  0  0  0  0
    0.9700    0.1900    0.0000 C   0  0  0  0  0  0  0  0  0  0  0  0
   -0.3325    2.4400    0.0000 O   0  0  0  0  0  0  0  0  0  0  0  0
    2.2689    0.9402    0.0000 O   0  0  0  0  0  0  0  0  0  0  0  0
  3  2  2  0
  4  2  1  0
  5  3  1  0
  6  4  2  0
  7  5  2  0
  7  6  1  0
  8  6  1  0
  9  1  1  0
  9  7  1  0
M  END
>  <NAME>  (5326) 
ORTHO-METHOXYPHENOL

>  <SYNONYMS>  (5326) 


>  <SPECTRUM TYPE>  (5326) 
MS1

>  <INSTRUMENT TYPE>  (5326) 
EI-B

>  <INSTRUMENT>  (5326) 
HITACHI RMU-6L

>  <ION MODE>  (5326) 
P

>  <INCHIKEY>  (5326) 
LHGVFZTZFXWLCP-UHFFFAOYSA-N

>  <FORMULA>  (5326) 
C7H8O2

>  <EXACT MASS>  (5326) 
124.052429496

>  <MW>  (5326) 
124

>  <ID>  (5326) 
JP004009

>  <CONTRIBUTOR>  (5326) 
University of Tokyo Team, {Faculty of Engineering, University of Tokyo

>  <COMMENT>  (5326) 
SMILES=COc(c1)c(O)ccc1
InChI=InChI=1S/C7H8O2/c1-9-7-5-3-2-4-6(7)8/h2-5,8H,1H3
computed SMILES=OC=1C=CC=CC1OC
accession=JP004009
date=2016.01.19 (Created 2008.10.21, modified 2011.05.06)
author=MASS SPECTROSCOPY SOC. OF JAPAN (MSSJ)
license=CC BY-NC-SA
exact mass=124.05243
ionization energy=70 eV
ion type=[M]+*
computed spectral entropy=2.142756220846527
computed normalized entropy=0.623984917022365
SPLASH=splash10-0ab9-5900000000-b580cbc25d4176ce3894
submitter=submitter = University of Tokyo Team (Faculty of Engineering, University of Tokyo)
MoNA Rating=3.75

>  <NUM PEAKS>  (5326) 
31

>  <MASS SPECTRAL PEAKS>  (5326) 
15 2
18 2.1
26 2.8
27 0.73
28 2.5
29 2.4
37 2.5
38 0.27
39 7
41 1.8
50 2.3
51 0.56
52 6.1
53 12.6
54 1.7
55 0.29
62 1.9
63 3.3
64 1.5
65 0.42
66 2.1
77 2.7
79 1.9
80 0.17
81 42.2
82 3
95 1.7
109 99.99
110 7.1
124 77.9
125 7.6

$$$$

     RDKit          2D

 11 10  0  0  0  0  0  0  0  0999 V2000
    2.5981    4.5000    0.0000 C   0  0  0  0  0  0  0  0  0  0  0  0
   -7.7942    4.5000    0.0000 C   0  0  0  0  0  0  0  0  0  0  0  0
    1.2990    5.2500    0.0000 C   0  0  0  0  0  0  0  0  0  0  0  0
   -6.4952    5.2500    0.0000 C   0  0  0  0  0  0  0  0  0  0  0  0
   -2.5981    4.5000    0.0000 C   0  0  0  0  0  0  0  0  0  0  0  0
   -1.2990    5.2500    0.0000 C   0  0  0  0  0  0  0  0  0  0  0  0
   -3.8971    5.2500    0.0000 C   0  0  0  0  0  0  0  0  0  0  0  0
   -1.2990    6.7500    0.0000 O   0  0  0  0  0  0  0  0  0  0  0  0
   -3.8971    6.7500    0.0000 O   0  0  0  0  0  0  0  0  0  0  0  0
    0.0000    4.5000    0.0000 O   0  0  0  0  0  0  0  0  0  0  0  0
   -5.1962    4.5000    0.0000 O   0  0  0  0  0  0  0  0  0  0  0  0
  3  1  1  0
  4  2  1  0
  6  5  1  0
  7  5  1  0
  8  6  2  0
  9  7  2  0
 10  3  1  0
 10  6  1  0
 11  4  1  0
 11  7  1  0
M  END
>  <NAME>  (5327) 
DIETHYL MALONATE

>  <SYNONYMS>  (5327) 


>  <SPECTRUM TYPE>  (5327) 
MS1

>  <INSTRUMENT TYPE>  (5327) 
EI-B

>  <INSTRUMENT>  (5327) 
HITACHI RMU-6L

>  <ION MODE>  (5327) 
P

>  <INCHIKEY>  (5327) 
IYXGSMUGOJNHAZ-UHFFFAOYSA-N

>  <FORMULA>  (5327) 
C7H12O4

>  <EXACT MASS>  (5327) 
160.073558864

>  <MW>  (5327) 
160

>  <ID>  (5327) 
JP004008

>  <CONTRIBUTOR>  (5327) 
University of Tokyo Team, {Faculty of Engineering, University of Tokyo

>  <COMMENT>  (5327) 
SMILES=CCOC(=O)CC(=O)OCC
InChI=InChI=1S/C7H12O4/c1-3-10-6(8)5-7(9)11-4-2/h3-5H2,1-2H3
computed SMILES=O=C(OCC)CC(=O)OCC
accession=JP004008
date=2016.01.19 (Created 2008.10.21, modified 2011.05.06)
author=MASS SPECTROSCOPY SOC. OF JAPAN (MSSJ)
license=CC BY-NC-SA
exact mass=160.07356
ionization energy=70 eV
ion type=[M]+*
computed spectral entropy=2.5295081021181285
computed normalized entropy=0.7114656732253837
SPLASH=splash10-016u-9400000000-adc51f2543836992b5a7
submitter=submitter = University of Tokyo Team (Faculty of Engineering, University of Tokyo)
MoNA Rating=3.75

>  <NUM PEAKS>  (5327) 
35

>  <MASS SPECTRAL PEAKS>  (5327) 
14 2.7
15 3.3
26 2.2
27 1.83
28 5.2
29 97.5
30 3.2
31 0.84
41 3.9
42 25.3
43 67.9
44 0.29
45 15.8
47 3.9
55 2.6
59 0.3
60 20.6
61 10
69 3.7
70 0.6
73 4.5
86 2.8
87 12.3
88 3.1
89 4.3
101 4
105 5.9
114 0.29
115 99.99
116 6.4
132 3.3
133 6.42
134 4.5
166 5.3
167 3.1

$$$$

     RDKit          2D

 10  9  0  0  0  0  0  0  0  0999 V2000
   -6.4952    4.5000    0.0000 C   0  0  0  0  0  0  0  0  0  0  0  0
    2.5981    3.7500    0.0000 C   0  0  0  0  0  0  0  0  0  0  0  0
   -5.1962    3.7500    0.0000 C   0  0  0  0  0  0  0  0  0  0  0  0
    1.2990    4.5000    0.0000 C   0  0  0  0  0  0  0  0  0  0  0  0
   -2.5981    3.7500    0.0000 C   0  0  0  0  0  0  0  0  0  0  0  0
   -1.2990    4.5000    0.0000 C   0  0  0  0  0  0  0  0  0  0  0  0
   -2.5981    2.2500    0.0000 O   0  0  0  0  0  0  0  0  0  0  0  0
   -1.2990    6.0000    0.0000 O   0  0  0  0  0  0  0  0  0  0  0  0
   -3.8971    4.5000    0.0000 O   0  0  0  0  0  0  0  0  0  0  0  0
    0.0000    3.7500    0.0000 O   0  0  0  0  0  0  0  0  0  0  0  0
  3  1  1  0
  4  2  1  0
  6  5  1  0
  7  5  2  0
  8  6  2  0
  9  3  1  0
  9  5  1  0
 10  4  1  0
 10  6  1  0
M  END
>  <NAME>  (5328) 
DIETHYL OXALATE

>  <SYNONYMS>  (5328) 


>  <SPECTRUM TYPE>  (5328) 
MS1

>  <INSTRUMENT TYPE>  (5328) 
EI-B

>  <INSTRUMENT>  (5328) 
HITACHI RMU-6L

>  <ION MODE>  (5328) 
P

>  <INCHIKEY>  (5328) 
WYACBZDAHNBPPB-UHFFFAOYSA-N

>  <FORMULA>  (5328) 
C6H10O4

>  <EXACT MASS>  (5328) 
146.0579088

>  <MW>  (5328) 
146

>  <ID>  (5328) 
JP004007

>  <CONTRIBUTOR>  (5328) 
University of Tokyo Team, {Faculty of Engineering, University of Tokyo

>  <COMMENT>  (5328) 
SMILES=CCOC(=O)C(=O)OCC
InChI=InChI=1S/C6H10O4/c1-3-9-5(7)6(8)10-4-2/h3-4H2,1-2H3
computed SMILES=O=C(OCC)C(=O)OCC
accession=JP004007
date=2016.01.19 (Created 2008.10.21, modified 2011.05.06)
author=MASS SPECTROSCOPY SOC. OF JAPAN (MSSJ)
license=CC BY-NC-SA
exact mass=146.05791
ionization energy=70 eV
ion type=[M]+*
computed spectral entropy=1.7090981696368561
computed normalized entropy=0.5913073863138179
SPLASH=splash10-004i-9000000000-ea070f5519916dcaa16b
submitter=submitter = University of Tokyo Team (Faculty of Engineering, University of Tokyo)
MoNA Rating=3.75

>  <NUM PEAKS>  (5328) 
18

>  <MASS SPECTRAL PEAKS>  (5328) 
15 2
26 2.9
27 13.2
28 0.92
29 99.99
30 2.8
31 16.2
41 0.28
43 3.8
45 13
46 3.2
47 0.31
56 2.4
57 2.3
59 2.2
73 0.21
74 10
75 2.5

$$$$

     RDKit          2D

  8  7  0  0  0  0  0  0  0  0999 V2000
    1.9486    4.1250    0.0000 C   0  0  0  0  0  0  0  0  0  0  0  0
    0.6495    4.8750    0.0000 C   0  0  0  0  0  0  0  0  0  0  0  0
   -0.6495    4.1250    0.0000 C   0  0  0  0  0  0  0  0  0  0  0  0
   -1.9486    4.8750    0.0000 C   0  0  0  0  0  0  0  0  0  0  0  0
   -3.2476    4.1250    0.0000 C   0  0  0  0  0  0  0  0  0  0  0  0
   -4.5466    4.8750    0.0000 C   0  0  0  0  0  0  0  0  0  0  0  0
   -5.8457    4.1250    0.0000 C   0  0  0  0  0  0  0  0  0  0  0  0
   -7.1447    3.3750    0.0000 N   0  0  0  0  0  0  0  0  0  0  0  0
  2  1  1  0
  3  2  1  0
  4  3  1  0
  5  4  1  0
  6  5  1  0
  7  6  1  0
  8  7  3  0
M  END
>  <NAME>  (5329) 
HEPTANENITRILE

>  <SYNONYMS>  (5329) 


>  <SPECTRUM TYPE>  (5329) 
MS1

>  <INSTRUMENT TYPE>  (5329) 
EI-B

>  <INSTRUMENT>  (5329) 
HITACHI RMU-6L

>  <ION MODE>  (5329) 
P

>  <INCHIKEY>  (5329) 
SDAXRHHPNYTELL-UHFFFAOYSA-N

>  <FORMULA>  (5329) 
C7H13N

>  <EXACT MASS>  (5329) 
111.10479941599999

>  <MW>  (5329) 
111

>  <ID>  (5329) 
JP004006

>  <CONTRIBUTOR>  (5329) 
University of Tokyo Team, {Faculty of Engineering, University of Tokyo

>  <COMMENT>  (5329) 
SMILES=CCCCCCC#N
InChI=InChI=1S/C7H13N/c1-2-3-4-5-6-7-8/h2-6H2,1H3
computed SMILES=N#CCCCCCC
accession=JP004006
date=2016.01.19 (Created 2008.10.21, modified 2011.05.06)
author=MASS SPECTROSCOPY SOC. OF JAPAN (MSSJ)
license=CC BY-NC-SA
exact mass=111.1048
ionization energy=70 eV
ion type=[M]+*
computed spectral entropy=2.7176386083889184
computed normalized entropy=0.7526171112538058
SPLASH=splash10-0036-9000000000-a580592337655b3baea6
submitter=submitter = University of Tokyo Team (Faculty of Engineering, University of Tokyo)
MoNA Rating=3.75

>  <NUM PEAKS>  (5329) 
37

>  <MASS SPECTRAL PEAKS>  (5329) 
14 1
15 6.9
18 1.5
26 0.96
27 62.2
28 20.3
29 37
30 0.2
37 1.1
38 4.3
39 35.3
40 1.82
41 99.99
42 14
43 50.3
44 0.22
45 1.5
50 2
51 3.1
52 0.3
53 5.3
54 43
55 37.1
56 0.6
57 10
66 1.4
67 2
68 1.46
69 9.1
70 1.5
71 5.2
81 0.63
82 68.4
83 51.1
84 3.2
96 0.92
110 4

$$$$

     RDKit          2D

  7  6  0  0  0  0  0  0  0  0999 V2000
    0.0000    0.0000    0.0000 C   0  0  0  0  0  0  0  0  0  0  0  0
    1.2990    2.2500    0.0000 C   0  0  0  0  0  0  0  0  0  0  0  0
   -1.2990    3.7500    0.0000 C   0  0  0  0  0  0  0  0  0  0  0  0
   -1.2990    2.2500    0.0000 C   0  0  0  0  0  0  0  0  0  0  0  0
   -2.5981    4.5000    0.0000 C   0  0  0  0  0  0  0  0  0  0  0  0
    0.0000    1.5000    0.0000 C   0  0  0  0  0  0  0  0  0  0  0  0
   -3.8971    5.2500    0.0000 N   0  0  0  0  0  0  0  0  0  0  0  0
  4  3  1  0
  5  3  1  0
  6  1  1  0
  6  2  1  0
  6  4  1  0
  7  5  3  0
M  END
>  <NAME>  (5330) 
ISOCAPRONITRILE

>  <SYNONYMS>  (5330) 


>  <SPECTRUM TYPE>  (5330) 
MS1

>  <INSTRUMENT TYPE>  (5330) 
EI-B

>  <INSTRUMENT>  (5330) 
HITACHI RMU-6L

>  <ION MODE>  (5330) 
P

>  <INCHIKEY>  (5330) 
DUJMVKJJUANUMQ-UHFFFAOYSA-N

>  <FORMULA>  (5330) 
C6H11N

>  <EXACT MASS>  (5330) 
97.08914935199999

>  <MW>  (5330) 
97

>  <ID>  (5330) 
JP004005

>  <CONTRIBUTOR>  (5330) 
University of Tokyo Team, {Faculty of Engineering, University of Tokyo

>  <COMMENT>  (5330) 
SMILES=N#CCCC(C)C
InChI=InChI=1S/C6H11N/c1-6(2)4-3-5-7/h6H,3-4H2,1-2H3
computed SMILES=N#CCCC(C)C
accession=JP004005
date=2016.01.19 (Created 2008.10.21, modified 2011.05.06)
author=MASS SPECTROSCOPY SOC. OF JAPAN (MSSJ)
license=CC BY-NC-SA
exact mass=97.08915
ionization energy=70 eV
ion type=[M]+*
computed spectral entropy=2.48300183084851
computed normalized entropy=0.7533752220748563
SPLASH=splash10-0a6r-9000000000-dbb2ccac0cfe693e7579
submitter=submitter = University of Tokyo Team (Faculty of Engineering, University of Tokyo)
MoNA Rating=3.75

>  <NUM PEAKS>  (5330) 
27

>  <MASS SPECTRAL PEAKS>  (5330) 
13 1.5
14 2
15 12.6
26 0.75
27 38.2
28 11.3
29 20.9
37 0.25
38 3.9
39 29.3
40 5.9
41 5.23
42 7
43 45.3
44 1.5
50 0.15
51 3.4
52 3.3
53 5
55 99.99
56 5.4
57 27
58 1.1
69 0.2
81 1.3
82 13.1
96 9.5

$$$$

     RDKit          2D

  7  6  0  0  0  0  0  0  0  0999 V2000
    2.5981    3.0000    0.0000 C   0  0  0  0  0  0  0  0  0  0  0  0
    1.2990    3.7500    0.0000 C   0  0  0  0  0  0  0  0  0  0  0  0
    0.0000    3.0000    0.0000 C   0  0  0  0  0  0  0  0  0  0  0  0
   -1.2990    3.7500    0.0000 C   0  0  0  0  0  0  0  0  0  0  0  0
   -2.5981    3.0000    0.0000 C   0  0  0  0  0  0  0  0  0  0  0  0
   -3.8971    3.7500    0.0000 C   0  0  0  0  0  0  0  0  0  0  0  0
   -5.1962    4.5000    0.0000 N   0  0  0  0  0  0  0  0  0  0  0  0
  2  1  1  0
  3  2  1  0
  4  3  1  0
  5  4  1  0
  6  5  1  0
  7  6  3  0
M  END
>  <NAME>  (5331) 
HEXANENITRILE

>  <SYNONYMS>  (5331) 


>  <SPECTRUM TYPE>  (5331) 
MS1

>  <INSTRUMENT TYPE>  (5331) 
EI-B

>  <INSTRUMENT>  (5331) 
HITACHI RMU-6L

>  <ION MODE>  (5331) 
P

>  <INCHIKEY>  (5331) 
AILKHAQXUAOOFU-UHFFFAOYSA-N

>  <FORMULA>  (5331) 
C6H11N

>  <EXACT MASS>  (5331) 
97.08914935199999

>  <MW>  (5331) 
97

>  <ID>  (5331) 
JP004004

>  <CONTRIBUTOR>  (5331) 
University of Tokyo Team, {Faculty of Engineering, University of Tokyo

>  <COMMENT>  (5331) 
SMILES=CCCCCC#N
InChI=InChI=1S/C6H11N/c1-2-3-4-5-6-7/h2-5H2,1H3
computed SMILES=N#CCCCCC
accession=JP004004
date=2016.01.19 (Created 2008.10.21, modified 2011.05.06)
author=MASS SPECTROSCOPY SOC. OF JAPAN (MSSJ)
license=CC BY-NC-SA
exact mass=97.08915
ionization energy=70 eV
ion type=[M]+*
computed spectral entropy=2.712639661907213
computed normalized entropy=0.7629744303489736
SPLASH=splash10-0f96-9000000000-74b8ebaadeab3b89b6fc
submitter=submitter = University of Tokyo Team (Faculty of Engineering, University of Tokyo)
MoNA Rating=3.75

>  <NUM PEAKS>  (5331) 
35

>  <MASS SPECTRAL PEAKS>  (5331) 
13 1.8
14 3.1
15 11
26 1.1
27 59.1
28 21.3
29 43.8
30 0.15
37 3.5
38 5.3
39 34
40 0.9
41 99.99
42 12.9
43 28.9
44 0.2
50 2
51 3.5
52 3.8
53 0.5
54 68.9
55 54
56 4.2
57 2.9
58 1.5
64 1.2
66 1.5
67 0.2
68 24.1
69 18.5
70 2.9
71 0.16
82 20.1
83 1.5
96 9.6

$$$$

     RDKit          2D

  6  5  0  0  0  0  0  0  0  0999 V2000
    1.2990    3.0000    0.0000 C   0  0  0  0  0  0  0  0  0  0  0  0
    0.0000    3.7500    0.0000 C   0  0  0  0  0  0  0  0  0  0  0  0
   -1.2990    3.0000    0.0000 C   0  0  0  0  0  0  0  0  0  0  0  0
   -2.5981    3.7500    0.0000 C   0  0  0  0  0  0  0  0  0  0  0  0
   -3.8971    3.0000    0.0000 C   0  0  0  0  0  0  0  0  0  0  0  0
   -5.1962    2.2500    0.0000 N   0  0  0  0  0  0  0  0  0  0  0  0
  2  1  1  0
  3  2  1  0
  4  3  1  0
  5  4  1  0
  6  5  3  0
M  END
>  <NAME>  (5332) 
VALERONITRILE

>  <SYNONYMS>  (5332) 


>  <SPECTRUM TYPE>  (5332) 
MS1

>  <INSTRUMENT TYPE>  (5332) 
EI-B

>  <INSTRUMENT>  (5332) 
HITACHI RMU-6L

>  <ION MODE>  (5332) 
P

>  <INCHIKEY>  (5332) 
RFFFKMOABOFIDF-UHFFFAOYSA-N

>  <FORMULA>  (5332) 
C5H9N

>  <EXACT MASS>  (5332) 
83.073499288

>  <MW>  (5332) 
83

>  <ID>  (5332) 
JP004003

>  <CONTRIBUTOR>  (5332) 
University of Tokyo Team, {Faculty of Engineering, University of Tokyo

>  <COMMENT>  (5332) 
SMILES=CCCCC#N
InChI=InChI=1S/C5H9N/c1-2-3-4-5-6/h2-4H2,1H3
computed SMILES=N#CCCCC
accession=JP004003
date=2016.01.19 (Created 2008.10.21, modified 2011.05.06)
author=MASS SPECTROSCOPY SOC. OF JAPAN (MSSJ)
license=CC BY-NC-SA
exact mass=83.0735
ionization energy=70 eV
ion type=[M]+*
computed spectral entropy=2.386266603809027
computed normalized entropy=0.7240244893255262
SPLASH=splash10-004l-9000000000-5b742cee89fdaf664cfd
submitter=submitter = University of Tokyo Team (Faculty of Engineering, University of Tokyo)
MoNA Rating=3.75

>  <NUM PEAKS>  (5332) 
27

>  <MASS SPECTRAL PEAKS>  (5332) 
14 3.2
15 10
25 1.5
26 1.26
27 61
28 21.4
29 21.3
37 0.31
38 5.9
39 25.9
40 8.1
41 99.99
42 6.1
43 9.2
44 3
50 0.15
51 3.3
52 5
53 2.5
54 5.01
55 21
56 2.3
57 2.9
64 0.16
66 1.1
68 2
82 3

$$$$

     RDKit          2D

  5  4  0  0  0  0  0  0  0  0999 V2000
   -0.0000    0.0000    0.0000 C   0  0  0  0  0  0  0  0  0  0  0  0
   -1.2990    2.2500    0.0000 C   0  0  0  0  0  0  0  0  0  0  0  0
    1.2990    2.2500    0.0000 C   0  0  0  0  0  0  0  0  0  0  0  0
   -0.0000    1.5000    0.0000 C   0  0  0  0  0  0  0  0  0  0  0  0
    2.5981    3.0000    0.0000 N   0  0  0  0  0  0  0  0  0  0  0  0
  4  1  1  0
  4  2  1  0
  4  3  1  0
  5  3  3  0
M  END
>  <NAME>  (5333) 
ISOBUTYRONITRILE

>  <SYNONYMS>  (5333) 


>  <SPECTRUM TYPE>  (5333) 
MS1

>  <INSTRUMENT TYPE>  (5333) 
EI-B

>  <INSTRUMENT>  (5333) 
HITACHI RMU-6L

>  <ION MODE>  (5333) 
P

>  <INCHIKEY>  (5333) 
LRDFRRGEGBBSRN-UHFFFAOYSA-N

>  <FORMULA>  (5333) 
C4H7N

>  <EXACT MASS>  (5333) 
69.057849224

>  <MW>  (5333) 
69

>  <ID>  (5333) 
JP004002

>  <CONTRIBUTOR>  (5333) 
University of Tokyo Team, {Faculty of Engineering, University of Tokyo

>  <COMMENT>  (5333) 
SMILES=N#CC(C)C
InChI=InChI=1S/C4H7N/c1-4(2)3-5/h4H,1-2H3
computed SMILES=N#CC(C)C
accession=JP004002
date=2016.01.19 (Created 2008.10.21, modified 2011.05.06)
author=MASS SPECTROSCOPY SOC. OF JAPAN (MSSJ)
license=CC BY-NC-SA
exact mass=69.05785
ionization energy=70 eV
ion type=[M]+*
computed spectral entropy=2.279212304340514
computed normalized entropy=0.7269068757204225
SPLASH=splash10-00mo-9000000000-ceda4d50d028af39e1bf
submitter=submitter = University of Tokyo Team (Faculty of Engineering, University of Tokyo)
MoNA Rating=3.75

>  <NUM PEAKS>  (5333) 
23

>  <MASS SPECTRAL PEAKS>  (5333) 
13 1.5
14 2.3
15 10.4
25 0.1
26 12
27 20
28 31.5
29 0.15
37 4
38 5
39 13.3
40 0.6
41 12.2
42 99.99
43 3.5
51 0.41
52 9
53 9
54 23
55 0.13
64 1.1
66 1.2
68 46.9

$$$$

     RDKit          2D

  5  4  0  0  0  0  0  0  0  0999 V2000
    1.9486    1.8750    0.0000 C   0  0  0  0  0  0  0  0  0  0  0  0
    0.6495    2.6250    0.0000 C   0  0  0  0  0  0  0  0  0  0  0  0
   -0.6495    1.8750    0.0000 C   0  0  0  0  0  0  0  0  0  0  0  0
   -1.9486    2.6250    0.0000 C   0  0  0  0  0  0  0  0  0  0  0  0
   -3.2476    3.3750    0.0000 N   0  0  0  0  0  0  0  0  0  0  0  0
  2  1  1  0
  3  2  1  0
  4  3  1  0
  5  4  3  0
M  END
>  <NAME>  (5334) 
BUTYRONITRILE

>  <SYNONYMS>  (5334) 


>  <SPECTRUM TYPE>  (5334) 
MS1

>  <INSTRUMENT TYPE>  (5334) 
EI-B

>  <INSTRUMENT>  (5334) 
HITACHI RMU-6L

>  <ION MODE>  (5334) 
P

>  <INCHIKEY>  (5334) 
KVNRLNFWIYMESJ-UHFFFAOYSA-N

>  <FORMULA>  (5334) 
C4H7N

>  <EXACT MASS>  (5334) 
69.057849224

>  <MW>  (5334) 
69

>  <ID>  (5334) 
JP004001

>  <CONTRIBUTOR>  (5334) 
University of Tokyo Team, {Faculty of Engineering, University of Tokyo

>  <COMMENT>  (5334) 
SMILES=CCCC#N
InChI=InChI=1S/C4H7N/c1-2-3-4-5/h2-3H2,1H3
computed SMILES=N#CCCC
accession=JP004001
date=2016.01.19 (Created 2008.10.21, modified 2011.05.06)
author=MASS SPECTROSCOPY SOC. OF JAPAN (MSSJ)
license=CC BY-NC-SA
exact mass=69.05785
ionization energy=70 eV
ion type=[M]+*
computed spectral entropy=1.642790755700608
computed normalized entropy=0.5798330574529484
SPLASH=splash10-002f-9000000000-269dcf144f66bdba281e
submitter=submitter = University of Tokyo Team (Faculty of Engineering, University of Tokyo)
MoNA Rating=3.75

>  <NUM PEAKS>  (5334) 
17

>  <MASS SPECTRAL PEAKS>  (5334) 
14 1.5
15 4
26 7.2
27 3.31
28 10
29 62
30 1.3
37 0.3
38 3.9
39 9
40 4.2
41 99.99
42 4.1
51 1.1
52 2
54 0.16
68 1

$$$$

     RDKit          2D

  4  3  0  0  0  0  0  0  0  0999 V2000
    0.0000    0.0000    0.0000 C   0  0  0  0  0  0  0  0  0  0  0  0
    0.0000    1.5000    0.0000 C   0  0  0  0  0  0  0  0  0  0  0  0
   -1.2990    2.2500    0.0000 C   0  0  0  0  0  0  0  0  0  0  0  0
   -2.5981    3.0000    0.0000 N   0  0  0  0  0  0  0  0  0  0  0  0
  2  1  1  0
  3  2  1  0
  4  3  3  0
M  END
>  <NAME>  (5335) 
PROPIONITRILE

>  <SYNONYMS>  (5335) 


>  <SPECTRUM TYPE>  (5335) 
MS1

>  <INSTRUMENT TYPE>  (5335) 
EI-B

>  <INSTRUMENT>  (5335) 
HITACHI RMU-6L

>  <ION MODE>  (5335) 
P

>  <INCHIKEY>  (5335) 
FVSKHRXBFJPNKK-UHFFFAOYSA-N

>  <FORMULA>  (5335) 
C3H5N

>  <EXACT MASS>  (5335) 
55.042199159999996

>  <MW>  (5335) 
55

>  <ID>  (5335) 
JP004000

>  <CONTRIBUTOR>  (5335) 
University of Tokyo Team, {Faculty of Engineering, University of Tokyo

>  <COMMENT>  (5335) 
SMILES=CCC#N
InChI=InChI=1S/C3H5N/c1-2-3-4/h2H2,1H3
computed SMILES=N#CCC
accession=JP004000
date=2016.01.19 (Created 2008.10.21, modified 2011.05.06)
author=MASS SPECTROSCOPY SOC. OF JAPAN (MSSJ)
license=CC BY-NC-SA
exact mass=55.0422
ionization energy=70 eV
ion type=[M]+*
computed spectral entropy=1.9397547761579241
computed normalized entropy=0.6587858637529183
SPLASH=splash10-004i-9000000000-b15ab5d2e59c2660f2e5
submitter=submitter = University of Tokyo Team (Faculty of Engineering, University of Tokyo)
MoNA Rating=3.75

>  <NUM PEAKS>  (5335) 
19

>  <MASS SPECTRAL PEAKS>  (5335) 
12 1.5
13 1.3
14 2.1
15 0.8
25 12.2
26 20.8
27 18.5
28 99.99
29 2.2
37 1.5
38 2.2
39 0.21
40 4.1
50 1.8
51 8.3
52 1.1
53 7.5
54 62.7
55 10.3

$$$$

     RDKit          2D

  3  2  0  0  0  0  0  0  0  0999 V2000
   -1.2990    0.7500    0.0000 C   0  0  0  0  0  0  0  0  0  0  0  0
    0.0000    1.5000    0.0000 C   0  0  0  0  0  0  0  0  0  0  0  0
    1.2990    2.2500    0.0000 N   0  0  0  0  0  0  0  0  0  0  0  0
  2  1  1  0
  3  2  3  0
M  END
>  <NAME>  (5336) 
ACETONITRILE

>  <SYNONYMS>  (5336) 


>  <SPECTRUM TYPE>  (5336) 
MS1

>  <INSTRUMENT TYPE>  (5336) 
EI-B

>  <INSTRUMENT>  (5336) 
HITACHI RMU-6L

>  <ION MODE>  (5336) 
P

>  <INCHIKEY>  (5336) 
WEVYAHXRMPXWCK-UHFFFAOYSA-N

>  <FORMULA>  (5336) 
C2H3N

>  <EXACT MASS>  (5336) 
41.026549096

>  <MW>  (5336) 
41

>  <ID>  (5336) 
JP003999

>  <CONTRIBUTOR>  (5336) 
University of Tokyo Team, {Faculty of Engineering, University of Tokyo

>  <COMMENT>  (5336) 
SMILES=CC#N
InChI=InChI=1S/C2H3N/c1-2-3/h1H3
computed SMILES=N#CC
accession=JP003999
date=2016.01.19 (Created 2008.10.21, modified 2011.05.06)
author=MASS SPECTROSCOPY SOC. OF JAPAN (MSSJ)
license=CC BY-NC-SA
exact mass=41.02655
ionization energy=70 eV
ion type=[M]+*
computed spectral entropy=1.5731008527141075
computed normalized entropy=0.596084380229605
SPLASH=splash10-0006-9000000000-bf970518821dd2c06001
submitter=submitter = University of Tokyo Team (Faculty of Engineering, University of Tokyo)
MoNA Rating=3.75

>  <NUM PEAKS>  (5336) 
14

>  <MASS SPECTRAL PEAKS>  (5336) 
12 5
13 3.7
14 11.6
15 0.25
24 1
25 2.1
26 3.5
27 0.1
28 2.5
38 21
39 19.5
40 5.11
41 99.99
42 2.6

$$$$

     RDKit          2D

  8  7  0  0  0  0  0  0  0  0999 V2000
   -2.5981    3.7500    0.0000 C   0  0  0  0  0  0  0  0  0  0  0  0
   -1.2990    4.5000    0.0000 C   0  0  0  0  0  0  0  0  0  0  0  0
   -3.8971    4.5000    0.0000 C   0  0  0  0  0  0  0  0  0  0  0  0
    0.0000    3.7500    0.0000 C   0  0  0  0  0  0  0  0  0  0  0  0
   -5.1962    3.7500    0.0000 C   0  0  0  0  0  0  0  0  0  0  0  0
    1.2990    4.5000    0.0000 C   0  0  0  0  0  0  0  0  0  0  0  0
   -6.4952    4.5000    0.0000 N   0  0  0  0  0  0  0  0  0  0  0  0
    2.5981    3.7500    0.0000 N   0  0  0  0  0  0  0  0  0  0  0  0
  2  1  1  0
  3  1  1  0
  4  2  1  0
  5  3  1  0
  6  4  1  0
  7  5  1  0
  8  6  1  0
M  END
>  <NAME>  (5337) 
HEXAMETHYLENEDIAMINE

>  <SYNONYMS>  (5337) 


>  <SPECTRUM TYPE>  (5337) 
MS1

>  <INSTRUMENT TYPE>  (5337) 
EI-B

>  <INSTRUMENT>  (5337) 
HITACHI RMU-6L

>  <ION MODE>  (5337) 
P

>  <INCHIKEY>  (5337) 
NAQMVNRVTILPCV-UHFFFAOYSA-N

>  <FORMULA>  (5337) 
C6H16N2

>  <EXACT MASS>  (5337) 
116.13134851199999

>  <MW>  (5337) 
116

>  <ID>  (5337) 
JP003998

>  <CONTRIBUTOR>  (5337) 
University of Tokyo Team, {Faculty of Engineering, University of Tokyo

>  <COMMENT>  (5337) 
SMILES=NCCCCCCN
InChI=InChI=1S/C6H16N2/c7-5-3-1-2-4-6-8/h1-8H2
computed SMILES=NCCCCCCN
accession=JP003998
date=2016.01.19 (Created 2008.10.21, modified 2011.05.06)
author=MASS SPECTROSCOPY SOC. OF JAPAN (MSSJ)
license=CC BY-NC-SA
exact mass=116.13135
ionization energy=70 eV
ion type=[M]+*
computed spectral entropy=1.9582115229619252
computed normalized entropy=0.6161668830976135
SPLASH=splash10-001i-9000000000-1eb8493bdcfab1196a0e
submitter=submitter = University of Tokyo Team (Faculty of Engineering, University of Tokyo)
MoNA Rating=3.75

>  <NUM PEAKS>  (5337) 
24

>  <MASS SPECTRAL PEAKS>  (5337) 
18 11.3
27 1.6
28 12
29 0.22
30 99.99
31 4.8
32 1.9
39 0.16
41 5.6
42 5.6
43 3.2
44 0.59
45 4.3
55 3.6
56 11.1
57 0.19
59 2.5
69 1.6
70 3.7
72 0.11
73 1.1
86 3.4
87 6.3
99 2

$$$$

     RDKit          2D

  9  9  0  0  0  0  0  0  0  0999 V2000
   -0.0000   -1.5002    0.0000 C   0  0  0  0  0  0  0  0  0  0  0  0
   -2.5989    3.0000    0.0000 C   0  0  0  0  0  0  0  0  0  0  0  0
   -1.3000    0.7498    0.0000 C   0  0  0  0  0  0  0  0  0  0  0  0
    1.3000    0.7498    0.0000 C   0  0  0  0  0  0  0  0  0  0  0  0
   -0.0000    2.9998    0.0000 C   0  0  0  0  0  0  0  0  0  0  0  0
   -0.0000   -0.0002    0.0000 C   0  0  0  0  0  0  0  0  0  0  0  0
   -1.3000    2.2498    0.0000 C   0  0  0  0  0  0  0  0  0  0  0  0
    1.3000    2.2498    0.0000 C   0  0  0  0  0  0  0  0  0  0  0  0
    2.5989    3.0000    0.0000 O   0  0  0  0  0  0  0  0  0  0  0  0
  6  1  1  0
  6  3  2  0
  6  4  1  0
  7  2  1  0
  7  3  1  0
  7  5  2  0
  8  4  2  0
  8  5  1  0
  9  8  1  0
M  END
>  <NAME>  (5338) 
3,5-DIMETHYLPHENOL

>  <SYNONYMS>  (5338) 


>  <SPECTRUM TYPE>  (5338) 
MS1

>  <INSTRUMENT TYPE>  (5338) 
EI-B

>  <INSTRUMENT>  (5338) 
HITACHI RMU-6L

>  <ION MODE>  (5338) 
P

>  <INCHIKEY>  (5338) 
TUAMRELNJMMDMT-UHFFFAOYSA-N

>  <FORMULA>  (5338) 
C8H10O

>  <EXACT MASS>  (5338) 
122.07316494

>  <MW>  (5338) 
122

>  <ID>  (5338) 
JP003997

>  <CONTRIBUTOR>  (5338) 
University of Tokyo Team, {Faculty of Engineering, University of Tokyo

>  <COMMENT>  (5338) 
SMILES=Cc(c1)cc(O)cc(C)1
InChI=InChI=1S/C8H10O/c1-6-3-7(2)5-8(9)4-6/h3-5,9H,1-2H3
computed SMILES=OC=1C=C(C=C(C1)C)C
accession=JP003997
date=2016.01.19 (Created 2008.10.21, modified 2011.05.06)
author=MASS SPECTROSCOPY SOC. OF JAPAN (MSSJ)
license=CC BY-NC-SA
exact mass=122.07316
ionization energy=70 eV
ion type=[M]+*
computed spectral entropy=2.5861797607237924
computed normalized entropy=0.6834170617517352
SPLASH=splash10-05fr-6900000000-52ec5a2dd18418c63eb9
submitter=submitter = University of Tokyo Team (Faculty of Engineering, University of Tokyo)
MoNA Rating=3.75

>  <NUM PEAKS>  (5338) 
44

>  <MASS SPECTRAL PEAKS>  (5338) 
38 6.5
39 25.8
40 2.5
41 0.57
42 1.2
43 2.4
49 1
51 1.5
52 6
53 10.6
54 3.8
55 0.33
59 1
60 1.6
61 2.5
62 0.27
63 6.3
64 1
65 6.6
66 0.38
67 2.3
74 2.1
75 1
76 0.1
77 23.4
78 6.3
79 13.6
80 0.11
81 1
89 1.4
91 14
92 0.15
93 4.2
94 2.1
95 1.4
103 0.16
104 1
105 3
107 80
108 0.59
120 1.3
121 35.4
122 99.99
123 7.9

$$$$

     RDKit          2D

  6  5  0  0  0  0  0  0  0  0999 V2000
   -1.9486    3.3750    0.0000 C   0  0  0  0  0  0  0  0  0  0  0  0
   -0.6495    2.6250    0.0000 C   0  0  0  0  0  0  0  0  0  0  0  0
   -3.2476    2.6250    0.0000 C   0  0  0  0  0  0  0  0  0  0  0  0
    0.6495    3.3750    0.0000 C   0  0  0  0  0  0  0  0  0  0  0  0
   -4.5466    3.3750    0.0000 N   0  0  0  0  0  0  0  0  0  0  0  0
    1.9486    2.6250    0.0000 N   0  0  0  0  0  0  0  0  0  0  0  0
  2  1  1  0
  3  1  1  0
  4  2  1  0
  5  3  1  0
  6  4  1  0
M  END
>  <NAME>  (5339) 
TETRAMETHYLENEDIAMINE

>  <SYNONYMS>  (5339) 


>  <SPECTRUM TYPE>  (5339) 
MS1

>  <INSTRUMENT TYPE>  (5339) 
EI-B

>  <INSTRUMENT>  (5339) 
HITACHI RMU-6L

>  <ION MODE>  (5339) 
P

>  <INCHIKEY>  (5339) 
KIDHWZJUCRJVML-UHFFFAOYSA-N

>  <FORMULA>  (5339) 
C4H12N2

>  <EXACT MASS>  (5339) 
88.10004838399999

>  <MW>  (5339) 
88

>  <ID>  (5339) 
JP003996

>  <CONTRIBUTOR>  (5339) 
University of Tokyo Team, {Faculty of Engineering, University of Tokyo

>  <COMMENT>  (5339) 
SMILES=NCCCCN
InChI=InChI=1S/C4H12N2/c5-3-1-2-4-6/h1-6H2
computed SMILES=NCCCCN
accession=JP003996
date=2016.01.19 (Created 2008.10.21, modified 2011.05.06)
author=MASS SPECTROSCOPY SOC. OF JAPAN (MSSJ)
license=CC BY-NC-SA
exact mass=88.10005
ionization energy=70 eV
ion type=[M]+*
computed spectral entropy=1.9658124883318842
computed normalized entropy=0.6185585875103504
SPLASH=splash10-001i-9000000000-224d3a5d3fbe7e1c6bd4
submitter=submitter = University of Tokyo Team (Faculty of Engineering, University of Tokyo)
MoNA Rating=3.75

>  <NUM PEAKS>  (5339) 
24

>  <MASS SPECTRAL PEAKS>  (5339) 
14 1.5
15 1.7
16 1
17 0.2
18 8.3
26 1.2
27 5
28 2.41
30 99.99
31 10.9
32 1.6
39 0.3
40 1.2
41 6.9
42 8
43 3.3
44 5.8
45 9.3
54 1
56 0.2
59 8.6
70 3.5
71 2.2
88 2

$$$$

     RDKit          2D

  5  4  0  0  0  0  0  0  0  0999 V2000
    0.0000    0.0000    0.0000 C   0  0  0  0  0  0  0  0  0  0  0  0
   -1.2990    2.2500    0.0000 C   0  0  0  0  0  0  0  0  0  0  0  0
    0.0000    1.5000    0.0000 C   0  0  0  0  0  0  0  0  0  0  0  0
   -1.2990    3.7500    0.0000 N   0  0  0  0  0  0  0  0  0  0  0  0
    1.2990    2.2500    0.0000 N   0  0  0  0  0  0  0  0  0  0  0  0
  3  1  1  0
  3  2  1  0
  4  2  1  0
  5  3  1  0
M  END
>  <NAME>  (5340) 
1,2-PROPANEDIAMINE

>  <SYNONYMS>  (5340) 


>  <SPECTRUM TYPE>  (5340) 
MS1

>  <INSTRUMENT TYPE>  (5340) 
EI-B

>  <INSTRUMENT>  (5340) 
HITACHI RMU-6L

>  <ION MODE>  (5340) 
P

>  <INCHIKEY>  (5340) 
AOHJOMMDDJHIJH-UHFFFAOYSA-N

>  <FORMULA>  (5340) 
C3H10N2

>  <EXACT MASS>  (5340) 
74.08439831999999

>  <MW>  (5340) 
74

>  <ID>  (5340) 
JP003995

>  <CONTRIBUTOR>  (5340) 
University of Tokyo Team, {Faculty of Engineering, University of Tokyo

>  <COMMENT>  (5340) 
SMILES=NCC(C)N
InChI=InChI=1S/C3H10N2/c1-3(5)2-4/h3H,2,4-5H2,1H3
computed SMILES=NCC(N)C
accession=JP003995
date=2016.01.19 (Created 2008.10.21, modified 2011.05.06)
author=MASS SPECTROSCOPY SOC. OF JAPAN (MSSJ)
license=CC BY-NC-SA
exact mass=74.0844
ionization energy=70 eV
ion type=[M]+*
computed spectral entropy=1.7567309252500478
computed normalized entropy=0.5966267046727427
SPLASH=splash10-0006-9000000000-7068ac8876741712c4d6
submitter=submitter = University of Tokyo Team (Faculty of Engineering, University of Tokyo)
MoNA Rating=3.75

>  <NUM PEAKS>  (5340) 
19

>  <MASS SPECTRAL PEAKS>  (5340) 
14 2
15 5.9
16 1.2
17 0.11
18 24
26 1.7
27 4
28 1.72
29 3.4
30 31.4
39 1.3
40 0.14
41 3
42 8
43 3.1
44 99.99
45 2.8
51 2.3
59 1.5

$$$$

     RDKit          2D

  5  4  0  0  0  0  0  0  0  0999 V2000
   -1.2990    2.2500    0.0000 C   0  0  0  0  0  0  0  0  0  0  0  0
   -2.5981    1.5000    0.0000 C   0  0  0  0  0  0  0  0  0  0  0  0
    0.0000    1.5000    0.0000 C   0  0  0  0  0  0  0  0  0  0  0  0
   -3.8971    2.2500    0.0000 N   0  0  0  0  0  0  0  0  0  0  0  0
    1.2990    2.2500    0.0000 N   0  0  0  0  0  0  0  0  0  0  0  0
  2  1  1  0
  3  1  1  0
  4  2  1  0
  5  3  1  0
M  END
>  <NAME>  (5341) 
TRIMETHYLENEDIAMINE

>  <SYNONYMS>  (5341) 


>  <SPECTRUM TYPE>  (5341) 
MS1

>  <INSTRUMENT TYPE>  (5341) 
EI-B

>  <INSTRUMENT>  (5341) 
HITACHI RMU-6L

>  <ION MODE>  (5341) 
P

>  <INCHIKEY>  (5341) 
XFNJVJPLKCPIBV-UHFFFAOYSA-N

>  <FORMULA>  (5341) 
C3H10N2

>  <EXACT MASS>  (5341) 
74.08439831999999

>  <MW>  (5341) 
74

>  <ID>  (5341) 
JP003994

>  <CONTRIBUTOR>  (5341) 
University of Tokyo Team, {Faculty of Engineering, University of Tokyo

>  <COMMENT>  (5341) 
SMILES=NCCCN
InChI=InChI=1S/C3H10N2/c4-2-1-3-5/h1-5H2
computed SMILES=NCCCN
accession=JP003994
date=2016.01.19 (Created 2008.10.21, modified 2011.05.06)
author=MASS SPECTROSCOPY SOC. OF JAPAN (MSSJ)
license=CC BY-NC-SA
exact mass=74.0844
ionization energy=70 eV
ion type=[M]+*
computed spectral entropy=1.8767233404741681
computed normalized entropy=0.616426181400558
SPLASH=splash10-053r-9000000000-0a9fffbfecda98d5cee8
submitter=submitter = University of Tokyo Team (Faculty of Engineering, University of Tokyo)
MoNA Rating=3.75

>  <NUM PEAKS>  (5341) 
21

>  <MASS SPECTRAL PEAKS>  (5341) 
14 2
15 5
16 1.2
18 2.38
26 1.8
27 7.4
28 3.2
29 0.62
30 99.99
31 3.5
32 1.2
39 0.16
40 1
41 4.5
42 8.3
43 0.4
44 12.9
56 18.5
57 44.4
58 0.65
70 1.2

$$$$

     RDKit          2D

  4  3  0  0  0  0  0  0  0  0999 V2000
   -1.2990    1.5000    0.0000 C   0  0  0  0  0  0  0  0  0  0  0  0
    0.0000    2.2500    0.0000 C   0  0  0  0  0  0  0  0  0  0  0  0
   -2.5981    2.2500    0.0000 N   0  0  0  0  0  0  0  0  0  0  0  0
    1.2990    1.5000    0.0000 N   0  0  0  0  0  0  0  0  0  0  0  0
  2  1  1  0
  3  1  1  0
  4  2  1  0
M  END
>  <NAME>  (5342) 
ETHYLENEDIAMINE

>  <SYNONYMS>  (5342) 


>  <SPECTRUM TYPE>  (5342) 
MS1

>  <INSTRUMENT TYPE>  (5342) 
EI-B

>  <INSTRUMENT>  (5342) 
HITACHI RMU-6L

>  <ION MODE>  (5342) 
P

>  <INCHIKEY>  (5342) 
PIICEJLVQHRZGT-UHFFFAOYSA-N

>  <FORMULA>  (5342) 
C2H8N2

>  <EXACT MASS>  (5342) 
60.068748256

>  <MW>  (5342) 
60

>  <ID>  (5342) 
JP003993

>  <CONTRIBUTOR>  (5342) 
University of Tokyo Team, {Faculty of Engineering, University of Tokyo

>  <COMMENT>  (5342) 
SMILES=NCCN
InChI=InChI=1S/C2H8N2/c3-1-2-4/h1-4H2
computed SMILES=NCCN
accession=JP003993
date=2016.01.19 (Created 2008.10.21, modified 2011.05.06)
author=MASS SPECTROSCOPY SOC. OF JAPAN (MSSJ)
license=CC BY-NC-SA
exact mass=60.06875
ionization energy=70 eV
ion type=[M]+*
computed spectral entropy=1.5046954086636903
computed normalized entropy=0.5022796669605568
SPLASH=splash10-001i-9000000000-7161cac69670b52ad6d8
submitter=submitter = University of Tokyo Team (Faculty of Engineering, University of Tokyo)
MoNA Rating=3.75

>  <NUM PEAKS>  (5342) 
20

>  <MASS SPECTRAL PEAKS>  (5342) 
14 1.5
15 3.4
16 1.2
17 0.31
18 12
26 1.2
27 4.6
28 0.2
29 4.5
30 99.99
31 3.3
40 0.16
41 2
42 6
43 5.3
44 0.41
45 1.5
58 1
59 1
60 2.7

$$$$

     RDKit          2D

 11 11  0  0  0  0  0  0  0  0999 V2000
   -2.5989   -1.5002    0.0000 C   0  0  0  0  0  0  0  0  0  0  0  0
    2.5989   -1.5002    0.0000 C   0  0  0  0  0  0  0  0  0  0  0  0
    2.5987    3.0002    0.0000 C   0  0  0  0  0  0  0  0  0  0  0  0
    3.8981    0.7504    0.0000 C   0  0  0  0  0  0  0  0  0  0  0  0
   -1.3000    0.7500    0.0000 C   0  0  0  0  0  0  0  0  0  0  0  0
    0.0000    1.5000    0.0000 C   0  0  0  0  0  0  0  0  0  0  0  0
   -0.0000   -1.5000    0.0000 C   0  0  0  0  0  0  0  0  0  0  0  0
   -1.3000   -0.7500    0.0000 C   0  0  0  0  0  0  0  0  0  0  0  0
    1.3000   -0.7500    0.0000 C   0  0  0  0  0  0  0  0  0  0  0  0
    1.3000    0.7500    0.0000 C   0  0  0  0  0  0  0  0  0  0  0  0
    2.5989    1.5002    0.0000 N   0  0  0  0  0  0  0  0  0  0  0  0
  6  5  2  0
  8  1  1  0
  8  5  1  0
  8  7  2  0
  9  2  1  0
  9  7  1  0
 10  6  1  0
 10  9  2  0
 11  3  1  0
 11  4  1  0
 11 10  1  0
M  END
>  <NAME>  (5343) 
2,4,N,N-TETRAMETHYLANILINE

>  <SYNONYMS>  (5343) 


>  <SPECTRUM TYPE>  (5343) 
MS1

>  <INSTRUMENT TYPE>  (5343) 
EI-B

>  <INSTRUMENT>  (5343) 
HITACHI RMU-6L

>  <ION MODE>  (5343) 
P

>  <INCHIKEY>  (5343) 
DZXAIYQRCQALGE-UHFFFAOYSA-N

>  <FORMULA>  (5343) 
C10H15N

>  <EXACT MASS>  (5343) 
149.12044948

>  <MW>  (5343) 
149

>  <ID>  (5343) 
JP003992

>  <CONTRIBUTOR>  (5343) 
University of Tokyo Team, {Faculty of Engineering, University of Tokyo

>  <COMMENT>  (5343) 
SMILES=Cc(c1)cc(C)c(c1)N(C)C
InChI=InChI=1S/C10H15N/c1-8-5-6-10(11(3)4)9(2)7-8/h5-7H,1-4H3
computed SMILES=C=1C=C(C(=CC1C)C)N(C)C
accession=JP003992
date=2016.01.19 (Created 2008.10.21, modified 2011.05.06)
author=MASS SPECTROSCOPY SOC. OF JAPAN (MSSJ)
license=CC BY-NC-SA
exact mass=149.12045
ionization energy=70 eV
ion type=[M]+*
computed spectral entropy=1.6543061948502413
computed normalized entropy=0.7955531144741115
SPLASH=splash10-053r-2900000000-11841d2f21da9054ab10
submitter=submitter = University of Tokyo Team (Faculty of Engineering, University of Tokyo)
MoNA Rating=3.75

>  <NUM PEAKS>  (5343) 
8

>  <MASS SPECTRAL PEAKS>  (5343) 
28 10
51 10.7
77 30.1
78 1.1
104 12
106 51.2
134 99.99
149 34.9

$$$$

     RDKit          2D

 11 11  0  0  0  0  0  0  0  0999 V2000
   -2.2733   -1.3675    0.0000 C   0  0  0  0  0  0  0  0  0  0  0  0
   -3.5724    0.8825    0.0000 C   0  0  0  0  0  0  0  0  0  0  0  0
   -0.9743   -0.6175    0.0000 C   0  0  0  0  0  0  0  0  0  0  0  0
   -2.2733    1.6325    0.0000 C   0  0  0  0  0  0  0  0  0  0  0  0
    2.9228    3.1325    0.0000 C   0  0  0  0  0  0  0  0  0  0  0  0
    2.9233    1.6317    0.0000 C   0  0  0  0  0  0  0  0  0  0  0  0
    1.6233    3.8833    0.0000 C   0  0  0  0  0  0  0  0  0  0  0  0
    1.6243    0.8817    0.0000 C   0  0  0  0  0  0  0  0  0  0  0  0
    0.3243    3.1333    0.0000 C   0  0  0  0  0  0  0  0  0  0  0  0
    0.3248    1.6325    0.0000 C   0  0  0  0  0  0  0  0  0  0  0  0
   -0.9743    0.8825    0.0000 N   0  0  0  0  0  0  0  0  0  0  0  0
  3  1  1  0
  4  2  1  0
  6  5  2  0
  7  5  1  0
  8  6  1  0
  9  7  2  0
 10  8  2  0
 10  9  1  0
 11  3  1  0
 11  4  1  0
 11 10  1  0
M  END
>  <NAME>  (5344) 
N,N-DIETHYLANILINE

>  <SYNONYMS>  (5344) 


>  <SPECTRUM TYPE>  (5344) 
MS1

>  <INSTRUMENT TYPE>  (5344) 
EI-B

>  <INSTRUMENT>  (5344) 
HITACHI RMU-6L

>  <ION MODE>  (5344) 
P

>  <INCHIKEY>  (5344) 
GGSUCNLOZRCGPQ-UHFFFAOYSA-N

>  <FORMULA>  (5344) 
C10H15N

>  <EXACT MASS>  (5344) 
149.12044948

>  <MW>  (5344) 
149

>  <ID>  (5344) 
JP003991

>  <CONTRIBUTOR>  (5344) 
University of Tokyo Team, {Faculty of Engineering, University of Tokyo

>  <COMMENT>  (5344) 
SMILES=CCN(CC)c(c1)cccc1
InChI=InChI=1S/C10H15N/c1-3-11(4-2)10-8-6-5-7-9-10/h5-9H,3-4H2,1-2H3
computed SMILES=C=1C=CC(=CC1)N(CC)CC
accession=JP003991
date=2016.01.19 (Created 2008.10.21, modified 2011.05.06)
author=MASS SPECTROSCOPY SOC. OF JAPAN (MSSJ)
license=CC BY-NC-SA
exact mass=149.12045
ionization energy=70 eV
ion type=[M]+*
computed spectral entropy=1.6543061948502413
computed normalized entropy=0.7955531144741115
SPLASH=splash10-053r-2900000000-c6d7a5eadc7902c2b8d5
submitter=submitter = University of Tokyo Team (Faculty of Engineering, University of Tokyo)
MoNA Rating=3.75

>  <NUM PEAKS>  (5344) 
8

>  <MASS SPECTRAL PEAKS>  (5344) 
28 10
51 10.7
77 30.1
79 1.1
104 12
106 51.2
134 99.99
149 34.9

$$$$

     RDKit          2D

 11 11  0  0  0  0  0  0  0  0999 V2000
   -5.5207    3.1321    0.0000 C   0  0  0  0  0  0  0  0  0  0  0  0
   -4.2216    2.3821    0.0000 C   0  0  0  0  0  0  0  0  0  0  0  0
   -2.9226    3.1321    0.0000 C   0  0  0  0  0  0  0  0  0  0  0  0
    3.5726    0.8821    0.0000 C   0  0  0  0  0  0  0  0  0  0  0  0
    2.2731    0.1313    0.0000 C   0  0  0  0  0  0  0  0  0  0  0  0
    3.5731    2.3829    0.0000 C   0  0  0  0  0  0  0  0  0  0  0  0
    0.9740    0.8813    0.0000 C   0  0  0  0  0  0  0  0  0  0  0  0
    2.2740    3.1329    0.0000 C   0  0  0  0  0  0  0  0  0  0  0  0
   -1.6236    2.3821    0.0000 C   0  0  0  0  0  0  0  0  0  0  0  0
    0.9745    2.3821    0.0000 C   0  0  0  0  0  0  0  0  0  0  0  0
   -0.3245    3.1321    0.0000 N   0  0  0  0  0  0  0  0  0  0  0  0
  2  1  1  0
  3  2  1  0
  5  4  2  0
  6  4  1  0
  7  5  1  0
  8  6  2  0
  9  3  1  0
 10  7  2  0
 10  8  1  0
 11  9  1  0
 11 10  1  0
M  END
>  <NAME>  (5345) 
N-BUTYLANILINE

>  <SYNONYMS>  (5345) 


>  <SPECTRUM TYPE>  (5345) 
MS1

>  <INSTRUMENT TYPE>  (5345) 
EI-B

>  <INSTRUMENT>  (5345) 
HITACHI RMU-6L

>  <ION MODE>  (5345) 
P

>  <INCHIKEY>  (5345) 
VSHTWPWTCXQLQN-UHFFFAOYSA-N

>  <FORMULA>  (5345) 
C10H15N

>  <EXACT MASS>  (5345) 
149.12044948

>  <MW>  (5345) 
149

>  <ID>  (5345) 
JP003990

>  <CONTRIBUTOR>  (5345) 
University of Tokyo Team, {Faculty of Engineering, University of Tokyo

>  <COMMENT>  (5345) 
SMILES=CCCCNc(c1)cccc1
InChI=InChI=1S/C10H15N/c1-2-3-9-11-10-7-5-4-6-8-10/h4-8,11H,2-3,9H2,1H3
computed SMILES=C=1C=CC(=CC1)NCCCC
accession=JP003990
date=2016.01.19 (Created 2008.10.21, modified 2011.05.06)
author=MASS SPECTROSCOPY SOC. OF JAPAN (MSSJ)
license=CC BY-NC-SA
exact mass=149.12045
ionization energy=70 eV
ion type=[M]+*
computed spectral entropy=1.743979793854217
computed normalized entropy=0.8386770000013453
SPLASH=splash10-000t-0900000000-76d1788f7cc0cdc368bd
submitter=submitter = University of Tokyo Team (Faculty of Engineering, University of Tokyo)
MoNA Rating=3.75

>  <NUM PEAKS>  (5345) 
8

>  <MASS SPECTRAL PEAKS>  (5345) 
77 19.9
105 15.8
118 26.8
132 2.4
133 21.3
134 74.1
148 85.6
149 99.99

$$$$

     RDKit          2D

 11 11  0  0  0  0  0  0  0  0999 V2000
   -6.4962    0.7508    0.0000 C   0  0  0  0  0  0  0  0  0  0  0  0
   -5.1970    1.5006    0.0000 C   0  0  0  0  0  0  0  0  0  0  0  0
   -3.8981    0.7504    0.0000 C   0  0  0  0  0  0  0  0  0  0  0  0
   -2.5989    1.5002    0.0000 C   0  0  0  0  0  0  0  0  0  0  0  0
   -1.3000   -0.7500    0.0000 C   0  0  0  0  0  0  0  0  0  0  0  0
    0.0000    1.5000    0.0000 C   0  0  0  0  0  0  0  0  0  0  0  0
    0.0000   -1.5000    0.0000 C   0  0  0  0  0  0  0  0  0  0  0  0
    1.3000    0.7500    0.0000 C   0  0  0  0  0  0  0  0  0  0  0  0
   -1.3000    0.7500    0.0000 C   0  0  0  0  0  0  0  0  0  0  0  0
    1.3000   -0.7500    0.0000 C   0  0  0  0  0  0  0  0  0  0  0  0
    2.5989   -1.5002    0.0000 N   0  0  0  0  0  0  0  0  0  0  0  0
  2  1  1  0
  3  2  1  0
  4  3  1  0
  7  5  2  0
  8  6  1  0
  9  4  1  0
  9  5  1  0
  9  6  2  0
 10  7  1  0
 10  8  2  0
 11 10  1  0
M  END
>  <NAME>  (5346) 
4-BUTYLANILINE

>  <SYNONYMS>  (5346) 


>  <SPECTRUM TYPE>  (5346) 
MS1

>  <INSTRUMENT TYPE>  (5346) 
EI-B

>  <INSTRUMENT>  (5346) 
HITACHI RMU-6L

>  <ION MODE>  (5346) 
P

>  <INCHIKEY>  (5346) 
OGIQUQKNJJTLSZ-UHFFFAOYSA-N

>  <FORMULA>  (5346) 
C10H15N

>  <EXACT MASS>  (5346) 
149.12044948

>  <MW>  (5346) 
149

>  <ID>  (5346) 
JP003989

>  <CONTRIBUTOR>  (5346) 
University of Tokyo Team, {Faculty of Engineering, University of Tokyo

>  <COMMENT>  (5346) 
SMILES=CCCCc(c1)ccc(N)c1
InChI=InChI=1S/C10H15N/c1-2-3-4-9-5-7-10(11)8-6-9/h5-8H,2-4,11H2,1H3
computed SMILES=NC1=CC=C(C=C1)CCCC
accession=JP003989
date=2016.01.19 (Created 2008.10.21, modified 2011.05.06)
author=MASS SPECTROSCOPY SOC. OF JAPAN (MSSJ)
license=CC BY-NC-SA
exact mass=149.12045
ionization energy=70 eV
ion type=[M]+*
computed spectral entropy=1.2797598667028414
computed normalized entropy=0.6154344044069701
SPLASH=splash10-0a4i-0900000000-6957abbe8b5c823bc53b
submitter=submitter = University of Tokyo Team (Faculty of Engineering, University of Tokyo)
MoNA Rating=3.75

>  <NUM PEAKS>  (5346) 
8

>  <MASS SPECTRAL PEAKS>  (5346) 
77 6.2
78 3.3
79 2.9
106 99.99
107 24.1
120 2.9
149 20
150 4.2

$$$$

     RDKit          2D

  9  9  0  0  0  0  0  0  0  0999 V2000
    2.2717    0.9387    0.0000 C   0  0  0  0  0  0  0  0  0  0  0  0
   -1.5992    3.1622    0.0000 C   0  0  0  0  0  0  0  0  0  0  0  0
   -0.2942   -2.0513    0.0000 C   0  0  0  0  0  0  0  0  0  0  0  0
   -1.5771   -1.3236    0.0000 C   0  0  0  0  0  0  0  0  0  0  0  0
    0.9829   -1.2989    0.0000 C   0  0  0  0  0  0  0  0  0  0  0  0
   -1.6133    0.1760    0.0000 C   0  0  0  0  0  0  0  0  0  0  0  0
    0.9770    0.1813    0.0000 C   0  0  0  0  0  0  0  0  0  0  0  0
   -0.3059    0.9090    0.0000 C   0  0  0  0  0  0  0  0  0  0  0  0
   -0.3021    2.4090    0.0000 N   0  0  0  0  0  0  0  0  0  0  0  0
  4  3  2  0
  5  3  1  0
  6  4  1  0
  7  1  1  0
  7  5  2  0
  8  6  2  0
  8  7  1  0
  9  2  1  0
  9  8  1  0
M  END
>  <NAME>  (5347) 
N-METHYL-ORTHO-TOLUIDINE

>  <SYNONYMS>  (5347) 


>  <SPECTRUM TYPE>  (5347) 
MS1

>  <INSTRUMENT TYPE>  (5347) 
EI-B

>  <INSTRUMENT>  (5347) 
HITACHI RMU-6L

>  <ION MODE>  (5347) 
P

>  <INCHIKEY>  (5347) 
GUAWMXYQZKVRCW-UHFFFAOYSA-N

>  <FORMULA>  (5347) 
C8H11N

>  <EXACT MASS>  (5347) 
121.08914935199999

>  <MW>  (5347) 
121

>  <ID>  (5347) 
JP003988

>  <CONTRIBUTOR>  (5347) 
University of Tokyo Team, {Faculty of Engineering, University of Tokyo

>  <COMMENT>  (5347) 
SMILES=CNc(c1)c(C)ccc1
InChI=InChI=1S/C8H11N/c1-7-5-3-4-6-8(7)9-2/h3-6,9H,1-2H3
computed SMILES=C=1C=CC(=C(C1)NC)C
accession=JP003988
date=2016.01.19 (Created 2008.10.21, modified 2011.05.06)
author=MASS SPECTROSCOPY SOC. OF JAPAN (MSSJ)
license=CC BY-NC-SA
exact mass=121.08915
ionization energy=70 eV
ion type=[M]+*
computed spectral entropy=1.67265337305918
computed normalized entropy=0.8043762421462255
SPLASH=splash10-05fr-4900000000-935893c8d232aa4afed2
submitter=submitter = University of Tokyo Team (Faculty of Engineering, University of Tokyo)
MoNA Rating=3.75

>  <NUM PEAKS>  (5347) 
8

>  <MASS SPECTRAL PEAKS>  (5347) 
39 20.1
51 15.6
65 19.2
77 1.86
91 33.7
104 12.1
106 83
121 99.99

$$$$

     RDKit          2D

  9  9  0  0  0  0  0  0  0  0999 V2000
    3.5728   -1.3131    0.0000 C   0  0  0  0  0  0  0  0  0  0  0  0
    0.9744   -2.8133    0.0000 C   0  0  0  0  0  0  0  0  0  0  0  0
    0.9737    1.6883    0.0000 C   0  0  0  0  0  0  0  0  0  0  0  0
    2.2732    0.9375    0.0000 C   0  0  0  0  0  0  0  0  0  0  0  0
   -0.3254    0.9383    0.0000 C   0  0  0  0  0  0  0  0  0  0  0  0
    2.2737   -0.5633    0.0000 C   0  0  0  0  0  0  0  0  0  0  0  0
    0.9746   -1.3133    0.0000 C   0  0  0  0  0  0  0  0  0  0  0  0
   -0.3249   -0.5625    0.0000 C   0  0  0  0  0  0  0  0  0  0  0  0
   -1.6239   -1.3125    0.0000 N   0  0  0  0  0  0  0  0  0  0  0  0
  4  3  2  0
  5  3  1  0
  6  1  1  0
  6  4  1  0
  7  2  1  0
  7  6  2  0
  8  5  2  0
  8  7  1  0
  9  8  1  0
M  END
>  <NAME>  (5348) 
2,3-DIMETHYLANILINE

>  <SYNONYMS>  (5348) 


>  <SPECTRUM TYPE>  (5348) 
MS1

>  <INSTRUMENT TYPE>  (5348) 
EI-B

>  <INSTRUMENT>  (5348) 
HITACHI RMU-6L

>  <ION MODE>  (5348) 
P

>  <INCHIKEY>  (5348) 
VVAKEQGKZNKUSU-UHFFFAOYSA-N

>  <FORMULA>  (5348) 
C8H11N

>  <EXACT MASS>  (5348) 
121.08914935199999

>  <MW>  (5348) 
121

>  <ID>  (5348) 
JP003987

>  <CONTRIBUTOR>  (5348) 
University of Tokyo Team, {Faculty of Engineering, University of Tokyo

>  <COMMENT>  (5348) 
SMILES=Cc(c1)c(C)c(N)cc1
InChI=InChI=1S/C8H11N/c1-6-4-3-5-8(9)7(6)2/h3-5H,9H2,1-2H3
computed SMILES=NC1=CC=CC(=C1C)C
accession=JP003987
date=2016.01.19 (Created 2008.10.21, modified 2011.05.06)
author=MASS SPECTROSCOPY SOC. OF JAPAN (MSSJ)
license=CC BY-NC-SA
exact mass=121.08915
ionization energy=70 eV
ion type=[M]+*
computed spectral entropy=1.4990366830018211
computed normalized entropy=0.7208842628924562
SPLASH=splash10-00di-1900000000-d5b841db3634540e4be4
submitter=submitter = University of Tokyo Team (Faculty of Engineering, University of Tokyo)
MoNA Rating=3.75

>  <NUM PEAKS>  (5348) 
8

>  <MASS SPECTRAL PEAKS>  (5348) 
42 8.2
51 11.7
60 9.8
77 2.3
104 10.1
105 13.1
120 99.99
121 59.2

$$$$

     RDKit          2D

  9  9  0  0  0  0  0  0  0  0999 V2000
   -2.9228    0.8825    0.0000 C   0  0  0  0  0  0  0  0  0  0  0  0
   -1.6238    3.1325    0.0000 C   0  0  0  0  0  0  0  0  0  0  0  0
    2.2733   -0.6175    0.0000 C   0  0  0  0  0  0  0  0  0  0  0  0
    0.9738   -1.3683    0.0000 C   0  0  0  0  0  0  0  0  0  0  0  0
    2.2738    0.8833    0.0000 C   0  0  0  0  0  0  0  0  0  0  0  0
   -0.3252   -0.6183    0.0000 C   0  0  0  0  0  0  0  0  0  0  0  0
    0.9748    1.6333    0.0000 C   0  0  0  0  0  0  0  0  0  0  0  0
   -0.3248    0.8825    0.0000 C   0  0  0  0  0  0  0  0  0  0  0  0
   -1.6238    1.6325    0.0000 N   0  0  0  0  0  0  0  0  0  0  0  0
  4  3  2  0
  5  3  1  0
  6  4  1  0
  7  5  2  0
  8  6  2  0
  8  7  1  0
  9  1  1  0
  9  2  1  0
  9  8  1  0
M  END
>  <NAME>  (5349) 
N,N-DIMETHYLANILINE

>  <SYNONYMS>  (5349) 


>  <SPECTRUM TYPE>  (5349) 
MS1

>  <INSTRUMENT TYPE>  (5349) 
EI-B

>  <INSTRUMENT>  (5349) 
HITACHI RMU-6L

>  <ION MODE>  (5349) 
P

>  <INCHIKEY>  (5349) 
JLTDJTHDQAWBAV-UHFFFAOYSA-N

>  <FORMULA>  (5349) 
C8H11N

>  <EXACT MASS>  (5349) 
121.08914935199999

>  <MW>  (5349) 
121

>  <ID>  (5349) 
JP003986

>  <CONTRIBUTOR>  (5349) 
University of Tokyo Team, {Faculty of Engineering, University of Tokyo

>  <COMMENT>  (5349) 
SMILES=CN(C)c(c1)cccc1
InChI=InChI=1S/C8H11N/c1-9(2)8-6-4-3-5-7-8/h3-7H,1-2H3
computed SMILES=C=1C=CC(=CC1)N(C)C
accession=JP003986
date=2016.01.19 (Created 2008.10.21, modified 2011.05.06)
author=MASS SPECTROSCOPY SOC. OF JAPAN (MSSJ)
license=CC BY-NC-SA
exact mass=121.08915
ionization energy=70 eV
ion type=[M]+*
computed spectral entropy=1.4746825540522153
computed normalized entropy=0.7091724025388673
SPLASH=splash10-00di-1900000000-544ffdcec51667ffcedc
submitter=submitter = University of Tokyo Team (Faculty of Engineering, University of Tokyo)
MoNA Rating=3.75

>  <NUM PEAKS>  (5349) 
8

>  <MASS SPECTRAL PEAKS>  (5349) 
42 8.6
51 11.1
60 9.2
77 2.27
104 10
105 13.4
120 99.99
121 74.5

$$$$

     RDKit          2D

  9  9  0  0  0  0  0  0  0  0999 V2000
   -3.5724    2.0075    0.0000 C   0  0  0  0  0  0  0  0  0  0  0  0
   -2.2733    1.2575    0.0000 C   0  0  0  0  0  0  0  0  0  0  0  0
    2.9228   -0.2425    0.0000 C   0  0  0  0  0  0  0  0  0  0  0  0
    1.6233   -0.9933    0.0000 C   0  0  0  0  0  0  0  0  0  0  0  0
    2.9233    1.2583    0.0000 C   0  0  0  0  0  0  0  0  0  0  0  0
    0.3243   -0.2433    0.0000 C   0  0  0  0  0  0  0  0  0  0  0  0
    1.6243    2.0083    0.0000 C   0  0  0  0  0  0  0  0  0  0  0  0
    0.3248    1.2575    0.0000 C   0  0  0  0  0  0  0  0  0  0  0  0
   -0.9743    2.0075    0.0000 N   0  0  0  0  0  0  0  0  0  0  0  0
  2  1  1  0
  4  3  2  0
  5  3  1  0
  6  4  1  0
  7  5  2  0
  8  6  2  0
  8  7  1  0
  9  2  1  0
  9  8  1  0
M  END
>  <NAME>  (5350) 
N-ETHYLANILINE

>  <SYNONYMS>  (5350) 


>  <SPECTRUM TYPE>  (5350) 
MS1

>  <INSTRUMENT TYPE>  (5350) 
EI-B

>  <INSTRUMENT>  (5350) 
HITACHI RMU-6L

>  <ION MODE>  (5350) 
P

>  <INCHIKEY>  (5350) 
OJGMBLNIHDZDGS-UHFFFAOYSA-N

>  <FORMULA>  (5350) 
C8H11N

>  <EXACT MASS>  (5350) 
121.08914935199999

>  <MW>  (5350) 
121

>  <ID>  (5350) 
JP003985

>  <CONTRIBUTOR>  (5350) 
University of Tokyo Team, {Faculty of Engineering, University of Tokyo

>  <COMMENT>  (5350) 
SMILES=CCNc(c1)cccc1
InChI=InChI=1S/C8H11N/c1-2-9-8-6-4-3-5-7-8/h3-7,9H,2H2,1H3
computed SMILES=C=1C=CC(=CC1)NCC
accession=JP003985
date=2016.01.19 (Created 2008.10.21, modified 2011.05.06)
author=MASS SPECTROSCOPY SOC. OF JAPAN (MSSJ)
license=CC BY-NC-SA
exact mass=121.08915
ionization energy=70 eV
ion type=[M]+*
computed spectral entropy=2.587394587133004
computed normalized entropy=0.687917289042168
SPLASH=splash10-0a4i-7900000000-68397ff70e30fdc1a42f
submitter=submitter = University of Tokyo Team (Faculty of Engineering, University of Tokyo)
MoNA Rating=3.75

>  <NUM PEAKS>  (5350) 
43

>  <MASS SPECTRAL PEAKS>  (5350) 
15 4.2
26 3.1
27 11.3
28 1.1
29 5.6
30 3.3
37 1
38 0.31
39 12.1
40 2.6
41 2.3
42 0.24
43 1.5
44 2.3
50 3.4
51 1.42
52 5.6
52.5 2
53 10.2
58 0.11
60 1
61 1
62 1.1
63 0.36
64 2.4
65 7.6
66 3.6
74 0.13
75 1.1
76 1.1
77 23
78 0.52
79 6.5
91 2.2
92 2
93 0.1
104 2.5
105 1
106 99.99
107 0.69
120 6.3
121 36
122 3.3

$$$$

     RDKit          2D

  8  8  0  0  0  0  0  0  0  0999 V2000
   -2.5989    1.5002    0.0000 C   0  0  0  0  0  0  0  0  0  0  0  0
   -1.3000   -0.7500    0.0000 C   0  0  0  0  0  0  0  0  0  0  0  0
    0.0000    1.5000    0.0000 C   0  0  0  0  0  0  0  0  0  0  0  0
    0.0000   -1.5000    0.0000 C   0  0  0  0  0  0  0  0  0  0  0  0
    1.3000    0.7500    0.0000 C   0  0  0  0  0  0  0  0  0  0  0  0
   -1.3000    0.7500    0.0000 C   0  0  0  0  0  0  0  0  0  0  0  0
    1.3000   -0.7500    0.0000 C   0  0  0  0  0  0  0  0  0  0  0  0
    2.5989   -1.5002    0.0000 N   0  0  0  0  0  0  0  0  0  0  0  0
  4  2  2  0
  5  3  1  0
  6  1  1  0
  6  2  1  0
  6  3  2  0
  7  4  1  0
  7  5  2  0
  8  7  1  0
M  END
>  <NAME>  (5351) 
PARA-TOLUIDINE

>  <SYNONYMS>  (5351) 


>  <SPECTRUM TYPE>  (5351) 
MS1

>  <INSTRUMENT TYPE>  (5351) 
EI-B

>  <INSTRUMENT>  (5351) 
HITACHI RMU-6L

>  <ION MODE>  (5351) 
P

>  <INCHIKEY>  (5351) 
RZXMPPFPUUCRFN-UHFFFAOYSA-N

>  <FORMULA>  (5351) 
C7H9N

>  <EXACT MASS>  (5351) 
107.073499288

>  <MW>  (5351) 
107

>  <ID>  (5351) 
JP003984

>  <CONTRIBUTOR>  (5351) 
University of Tokyo Team, {Faculty of Engineering, University of Tokyo

>  <COMMENT>  (5351) 
SMILES=Cc(c1)ccc(N)c1
InChI=InChI=1S/C7H9N/c1-6-2-4-7(8)5-3-6/h2-5H,8H2,1H3
computed SMILES=NC1=CC=C(C=C1)C
accession=JP003984
date=2016.01.19 (Created 2008.10.21, modified 2011.05.06)
author=MASS SPECTROSCOPY SOC. OF JAPAN (MSSJ)
license=CC BY-NC-SA
exact mass=107.0735
ionization energy=70 eV
ion type=[M]+*
computed spectral entropy=1.2917023675215447
computed normalized entropy=0.6211775333092886
SPLASH=splash10-0a4i-1900000000-a549cda849a42a691c16
submitter=submitter = University of Tokyo Team (Faculty of Engineering, University of Tokyo)
MoNA Rating=3.75

>  <NUM PEAKS>  (5351) 
8

>  <MASS SPECTRAL PEAKS>  (5351) 
39 5.5
51 5.1
52 5.9
53 0.75
54 5
79 12
106 99.99
107 64.5

$$$$

     RDKit          2D

  8  8  0  0  0  0  0  0  0  0999 V2000
    2.2649    0.9387    0.0000 C   0  0  0  0  0  0  0  0  0  0  0  0
   -0.3010   -2.0513    0.0000 C   0  0  0  0  0  0  0  0  0  0  0  0
   -1.5839   -1.3236    0.0000 C   0  0  0  0  0  0  0  0  0  0  0  0
    0.9761   -1.2989    0.0000 C   0  0  0  0  0  0  0  0  0  0  0  0
   -1.6201    0.1760    0.0000 C   0  0  0  0  0  0  0  0  0  0  0  0
    0.9702    0.1812    0.0000 C   0  0  0  0  0  0  0  0  0  0  0  0
   -0.3126    0.9089    0.0000 C   0  0  0  0  0  0  0  0  0  0  0  0
   -0.3089    2.4089    0.0000 N   0  0  0  0  0  0  0  0  0  0  0  0
  3  2  2  0
  4  2  1  0
  5  3  1  0
  6  1  1  0
  6  4  2  0
  7  5  2  0
  7  6  1  0
  8  7  1  0
M  END
>  <NAME>  (5352) 
ORTHO-TOLUIDINE

>  <SYNONYMS>  (5352) 


>  <SPECTRUM TYPE>  (5352) 
MS1

>  <INSTRUMENT TYPE>  (5352) 
EI-B

>  <INSTRUMENT>  (5352) 
HITACHI RMU-6L

>  <ION MODE>  (5352) 
P

>  <INCHIKEY>  (5352) 
RNVCVTLRINQCPJ-UHFFFAOYSA-N

>  <FORMULA>  (5352) 
C7H9N

>  <EXACT MASS>  (5352) 
107.073499288

>  <MW>  (5352) 
107

>  <ID>  (5352) 
JP003983

>  <CONTRIBUTOR>  (5352) 
University of Tokyo Team, {Faculty of Engineering, University of Tokyo

>  <COMMENT>  (5352) 
SMILES=Cc(c1)c(N)ccc1
InChI=InChI=1S/C7H9N/c1-6-4-2-3-5-7(6)8/h2-5H,8H2,1H3
computed SMILES=NC=1C=CC=CC1C
accession=JP003983
date=2016.01.19 (Created 2008.10.21, modified 2011.05.06)
author=MASS SPECTROSCOPY SOC. OF JAPAN (MSSJ)
license=CC BY-NC-SA
exact mass=107.0735
ionization energy=70 eV
ion type=[M]+*
computed spectral entropy=2.5711303226810007
computed normalized entropy=0.6969949424109286
SPLASH=splash10-0a4i-6900000000-68480e71423ffd272f9d
submitter=submitter = University of Tokyo Team (Faculty of Engineering, University of Tokyo)
MoNA Rating=3.75

>  <NUM PEAKS>  (5352) 
40

>  <MASS SPECTRAL PEAKS>  (5352) 
26 3
27 8.2
28 8.5
29 0.19
30 4
37 1.6
38 4
39 1.2
40 2
41 3
42 1.9
49 0.15
50 5.9
51 8.7
52 8.6
52.5 0.2
53 9.1
53.5 4.8
54 8.2
62 0.15
63 4.1
64 2.1
65 4
66 0.2
67 1.5
74 1.5
75 2.3
76 0.11
77 17
78 7.5
79 12
80 0.29
89 5.7
90 5
91 2.9
104 0.13
105 5.1
106 99.99
107 83.4
108 6

$$$$

     RDKit          2D

  7  7  0  0  0  0  0  0  0  0999 V2000
    0.0000    2.5700    0.0000 C   0  0  0  0  0  0  0  0  0  0  0  0
    1.3000    1.8200    0.0000 C   0  0  0  0  0  0  0  0  0  0  0  0
   -1.3000    1.8200    0.0000 C   0  0  0  0  0  0  0  0  0  0  0  0
    1.3000    0.3200    0.0000 C   0  0  0  0  0  0  0  0  0  0  0  0
   -1.3000    0.3200    0.0000 C   0  0  0  0  0  0  0  0  0  0  0  0
   -0.0000   -0.4300    0.0000 C   0  0  0  0  0  0  0  0  0  0  0  0
   -0.0000   -1.9300    0.0000 N   0  0  0  0  0  0  0  0  0  0  0  0
  2  1  2  0
  3  1  1  0
  4  2  1  0
  5  3  2  0
  6  4  2  0
  6  5  1  0
  7  6  1  0
M  END
>  <NAME>  (5353) 
ANILINE

>  <SYNONYMS>  (5353) 


>  <SPECTRUM TYPE>  (5353) 
MS1

>  <INSTRUMENT TYPE>  (5353) 
EI-B

>  <INSTRUMENT>  (5353) 
HITACHI RMU-6L

>  <ION MODE>  (5353) 
P

>  <INCHIKEY>  (5353) 
PAYRUJLWNCNPSJ-UHFFFAOYSA-N

>  <FORMULA>  (5353) 
C6H7N

>  <EXACT MASS>  (5353) 
93.057849224

>  <MW>  (5353) 
93

>  <ID>  (5353) 
JP003982

>  <CONTRIBUTOR>  (5353) 
University of Tokyo Team, {Faculty of Engineering, University of Tokyo

>  <COMMENT>  (5353) 
SMILES=Nc(c1)cccc1
InChI=InChI=1S/C6H7N/c7-6-4-2-1-3-5-6/h1-5H,7H2
computed SMILES=NC=1C=CC=CC1
accession=JP003982
date=2016.01.19 (Created 2008.10.21, modified 2011.05.06)
author=MASS SPECTROSCOPY SOC. OF JAPAN (MSSJ)
license=CC BY-NC-SA
exact mass=93.05785
ionization energy=70 eV
ion type=[M]+*
computed spectral entropy=2.2962801684818612
computed normalized entropy=0.662566402312091
SPLASH=splash10-0006-9000000000-e04550d3cafee77e6192
submitter=submitter = University of Tokyo Team (Faculty of Engineering, University of Tokyo)
MoNA Rating=3.75

>  <NUM PEAKS>  (5353) 
32

>  <MASS SPECTRAL PEAKS>  (5353) 
15 1
26 2.1
27 2.5
28 0.76
37 3
38 6.9
39 16.7
40 0.53
41 5.2
42 2.1
45 1.9
47 0.78
50 3
51 4.5
52 4.5
53 0.19
54 4.9
61 1.8
62 2.9
63 0.38
64 2
65 18.2
66 32.6
67 0.41
74 2
76 1.5
77 1.5
78 0.13
91 1.8
92 10
93 99.99
94 5.7

$$$$

     RDKit          2D

  6  6  0  0  0  0  0  0  0  0999 V2000
   -2.5600    0.0000    0.0000 C   0  0  0  0  0  0  0  0  0  0  0  0
   -0.0000   -1.0600    0.0000 C   0  0  0  0  0  0  0  0  0  0  0  0
   -1.0600    0.0000    0.0000 C   0  0  0  0  0  0  0  0  0  0  0  0
    1.0600   -0.0000    0.0000 C   0  0  0  0  0  0  0  0  0  0  0  0
    2.5600   -0.0000    0.0000 O   0  0  0  0  0  0  0  0  0  0  0  0
    0.0000    1.0600    0.0000 O   0  0  0  0  0  0  0  0  0  0  0  0
  3  1  1  0
  3  2  1  0
  4  2  1  0
  5  4  2  0
  6  3  1  0
  6  4  1  0
M  END
>  <NAME>  (5354) 
BETA-BUTYROLACTONE

>  <SYNONYMS>  (5354) 


>  <SPECTRUM TYPE>  (5354) 
MS1

>  <INSTRUMENT TYPE>  (5354) 
EI-B

>  <INSTRUMENT>  (5354) 
HITACHI RMU-6L

>  <ION MODE>  (5354) 
P

>  <INCHIKEY>  (5354) 
GSCLMSFRWBPUSK-UHFFFAOYSA-N

>  <FORMULA>  (5354) 
C4H6O2

>  <EXACT MASS>  (5354) 
86.036779432

>  <MW>  (5354) 
86

>  <ID>  (5354) 
JP003981

>  <CONTRIBUTOR>  (5354) 
University of Tokyo Team, {Faculty of Engineering, University of Tokyo

>  <COMMENT>  (5354) 
SMILES=CC(C1)OC(=O)1
InChI=InChI=1S/C4H6O2/c1-3-2-4(5)6-3/h3H,2H2,1H3
computed SMILES=O=C1OC(C)C1
accession=JP003981
date=2016.01.19 (Created 2008.10.21, modified 2011.05.06)
author=MASS SPECTROSCOPY SOC. OF JAPAN (MSSJ)
license=CC BY-NC-SA
exact mass=86.03678
ionization energy=70 eV
ion type=[M]+*
computed spectral entropy=1.9802946836208206
computed normalized entropy=0.8258470276351121
SPLASH=splash10-0006-9000000000-c576708f6e6f49514f71
submitter=submitter = University of Tokyo Team (Faculty of Engineering, University of Tokyo)
MoNA Rating=3.75

>  <NUM PEAKS>  (5354) 
11

>  <MASS SPECTRAL PEAKS>  (5354) 
27 16.5
28 12.5
29 13.2
38 0.95
39 23.7
40 12.3
41 32.4
42 99.99
43 56.1
44 27.6
71 4.2

$$$$

     RDKit          2D

  8  8  0  0  0  0  0  0  0  0999 V2000
   -0.7500   -1.5600    0.0000 C   0  0  0  0  0  0  0  0  0  0  0  0
   -1.6900   -0.3900    0.0000 C   0  0  0  0  0  0  0  0  0  0  0  0
    0.7500   -1.5600    0.0000 C   0  0  0  0  0  0  0  0  0  0  0  0
   -1.3500    1.0800    0.0000 C   0  0  0  0  0  0  0  0  0  0  0  0
    1.6900   -0.3900    0.0000 C   0  0  0  0  0  0  0  0  0  0  0  0
    0.0000    1.7300    0.0000 C   0  0  0  0  0  0  0  0  0  0  0  0
    0.0000    3.2300    0.0000 O   0  0  0  0  0  0  0  0  0  0  0  0
    1.3500    1.0800    0.0000 O   0  0  0  0  0  0  0  0  0  0  0  0
  2  1  1  0
  3  1  1  0
  4  2  1  0
  5  3  1  0
  6  4  1  0
  7  6  2  0
  8  5  1  0
  8  6  1  0
M  END
>  <NAME>  (5355) 
OXEPAN-2-ONE

>  <SYNONYMS>  (5355) 


>  <SPECTRUM TYPE>  (5355) 
MS1

>  <INSTRUMENT TYPE>  (5355) 
EI-B

>  <INSTRUMENT>  (5355) 
HITACHI RMU-6L

>  <ION MODE>  (5355) 
P

>  <INCHIKEY>  (5355) 
PAPBSGBWRJIAAV-UHFFFAOYSA-N

>  <FORMULA>  (5355) 
C6H10O2

>  <EXACT MASS>  (5355) 
114.06807956

>  <MW>  (5355) 
114

>  <ID>  (5355) 
JP003980

>  <CONTRIBUTOR>  (5355) 
University of Tokyo Team, {Faculty of Engineering, University of Tokyo

>  <COMMENT>  (5355) 
SMILES=O=C(C1)OCCCC1
InChI=InChI=1S/C6H10O2/c7-6-4-2-1-3-5-8-6/h1-5H2
computed SMILES=O=C1OCCCCC1
accession=JP003980
date=2016.01.19 (Created 2008.10.21, modified 2011.05.06)
author=MASS SPECTROSCOPY SOC. OF JAPAN (MSSJ)
license=CC BY-NC-SA
exact mass=114.06808
ionization energy=70 eV
ion type=[M]+*
computed spectral entropy=2.1476488744980076
computed normalized entropy=0.8137939446776278
SPLASH=splash10-052f-9000000000-d988c3d2aef36f68a34c
submitter=submitter = University of Tokyo Team (Faculty of Engineering, University of Tokyo)
MoNA Rating=3.75

>  <NUM PEAKS>  (5355) 
14

>  <MASS SPECTRAL PEAKS>  (5355) 
27 24
28 23.2
29 18.4
39 2.45
40 8.2
41 58.1
42 99.99
43 0.94
55 95.1
56 43.7
57 6.2
70 1.85
84 27.9
114 18

$$$$

     RDKit          2D

 13 13  0  0  0  0  0  0  0  0999 V2000
   -3.4059    1.5253    0.0000 C   0  0  0  0  0  0  0  0  0  0  0  0
    3.5061    2.7383    0.0000 C   0  0  0  0  0  0  0  0  0  0  0  0
   -2.1069    0.7753    0.0000 C   0  0  0  0  0  0  0  0  0  0  0  0
   -0.8078    1.5253    0.0000 C   0  0  0  0  0  0  0  0  0  0  0  0
    0.4912    0.7753    0.0000 C   0  0  0  0  0  0  0  0  0  0  0  0
    1.7903    1.5252    0.0000 C   0  0  0  0  0  0  0  0  0  0  0  0
    6.7958    1.7749    0.0000 C   0  0  0  0  0  0  0  0  0  0  0  0
    3.0893    0.7752    0.0000 C   0  0  0  0  0  0  0  0  0  0  0  0
    5.4967    2.5249    0.0000 C   0  0  0  0  0  0  0  0  0  0  0  0
    6.4841    0.3152    0.0000 C   0  0  0  0  0  0  0  0  0  0  0  0
    4.3883    1.5252    0.0000 C   0  0  0  0  0  0  0  0  0  0  0  0
    7.4876   -0.7998    0.0000 O   0  0  0  0  0  0  0  0  0  0  0  0
    4.9962    0.1581    0.0000 O   0  0  0  0  0  0  0  0  0  0  0  0
  3  1  1  0
  4  3  1  0
  5  4  1  0
  6  5  1  0
  8  6  1  0
  9  7  1  0
 10  7  1  0
 11  2  1  0
 11  8  1  0
 11  9  1  0
 12 10  2  0
 13 10  1  0
 13 11  1  0
M  END
>  <NAME>  (5356) 
5-HEXYL-5-METHYLOXOLAN-2-ONE

>  <SYNONYMS>  (5356) 


>  <SPECTRUM TYPE>  (5356) 
MS1

>  <INSTRUMENT TYPE>  (5356) 
EI-B

>  <INSTRUMENT>  (5356) 
HITACHI RMU-6L

>  <ION MODE>  (5356) 
P

>  <INCHIKEY>  (5356) 
ALWUKGXLBSQSMA-UHFFFAOYSA-N

>  <FORMULA>  (5356) 
C11H20O2

>  <EXACT MASS>  (5356) 
184.14632988

>  <MW>  (5356) 
184

>  <ID>  (5356) 
JP003979

>  <CONTRIBUTOR>  (5356) 
University of Tokyo Team, {Faculty of Engineering, University of Tokyo

>  <COMMENT>  (5356) 
SMILES=CCCCCCC(C)(C1)OC(=O)C1
InChI=InChI=1S/C11H20O2/c1-3-4-5-6-8-11(2)9-7-10(12)13-11/h3-9H2,1-2H3
computed SMILES=O=C1OC(C)(CC1)CCCCCC
accession=JP003979
date=2016.01.19 (Created 2008.10.21, modified 2011.05.06)
author=MASS SPECTROSCOPY SOC. OF JAPAN (MSSJ)
license=CC BY-NC-SA
exact mass=184.14633
ionization energy=70 eV
ion type=[M]+*
computed spectral entropy=2.5829020552016573
computed normalized entropy=0.7207725421745506
SPLASH=splash10-0002-9100000000-6811a818d6994586cd8f
submitter=submitter = University of Tokyo Team (Faculty of Engineering, University of Tokyo)
MoNA Rating=3.75

>  <NUM PEAKS>  (5356) 
36

>  <MASS SPECTRAL PEAKS>  (5356) 
27 7.5
28 15.9
29 6.8
32 0.32
39 5
41 17.5
42 3
43 3.85
53 3.5
54 2.9
55 10.3
56 0.9
57 3.1
58 3
67 3.2
68 0.41
69 6.4
70 6.6
71 9.1
81 0.39
83 3
85 2.5
95 2.2
96 0.22
98 2.6
99 99.99
100 8.2
109 0.28
110 2.8
111 2
114 3.5
129 0.45
151 2.9
169 4.2
170 2.1
184 3

$$$$

     RDKit          2D

 12 12  0  0  0  0  0  0  0  0999 V2000
   -1.6700   -0.9602    0.0000 C   0  0  0  0  0  0  0  0  0  0  0  0
   -0.3708   -1.7100    0.0000 C   0  0  0  0  0  0  0  0  0  0  0  0
    0.9281   -0.9598    0.0000 C   0  0  0  0  0  0  0  0  0  0  0  0
    2.2272   -1.7096    0.0000 C   0  0  0  0  0  0  0  0  0  0  0  0
    3.5262   -0.9594    0.0000 C   0  0  0  0  0  0  0  0  0  0  0  0
    7.4242    1.2910    0.0000 C   0  0  0  0  0  0  0  0  0  0  0  0
    8.7242    0.5410    0.0000 C   0  0  0  0  0  0  0  0  0  0  0  0
    4.8253   -1.7092    0.0000 C   0  0  0  0  0  0  0  0  0  0  0  0
    6.1242    0.5410    0.0000 C   0  0  0  0  0  0  0  0  0  0  0  0
    8.7242   -0.9590    0.0000 C   0  0  0  0  0  0  0  0  0  0  0  0
    6.1242   -0.9590    0.0000 C   0  0  0  0  0  0  0  0  0  0  0  0
    7.4242   -1.7090    0.0000 N   0  0  0  0  0  0  0  0  0  0  0  0
  2  1  1  0
  3  2  1  0
  4  3  1  0
  5  4  1  0
  7  6  2  0
  8  5  1  0
  9  6  1  0
 10  7  1  0
 11  8  1  0
 11  9  2  0
 12 10  2  0
 12 11  1  0
M  END
>  <NAME>  (5357) 
2-HEXYLPYRIDINE

>  <SYNONYMS>  (5357) 


>  <SPECTRUM TYPE>  (5357) 
MS1

>  <INSTRUMENT TYPE>  (5357) 
EI-B

>  <INSTRUMENT>  (5357) 
HITACHI RMU-6L

>  <ION MODE>  (5357) 
P

>  <INCHIKEY>  (5357) 
NZLJDTKLZIMONR-UHFFFAOYSA-N

>  <FORMULA>  (5357) 
C11H17N

>  <EXACT MASS>  (5357) 
163.136099544

>  <MW>  (5357) 
163

>  <ID>  (5357) 
JP003978

>  <CONTRIBUTOR>  (5357) 
University of Tokyo Team, {Faculty of Engineering, University of Tokyo

>  <COMMENT>  (5357) 
SMILES=CCCCCCc(c1)nccc1
InChI=InChI=1S/C11H17N/c1-2-3-4-5-8-11-9-6-7-10-12-11/h6-7,9-10H,2-5,8H2,1H3
computed SMILES=N=1C=CC=CC1CCCCCC
accession=JP003978
date=2016.01.19 (Created 2008.10.21, modified 2011.05.06)
author=MASS SPECTROSCOPY SOC. OF JAPAN (MSSJ)
license=CC BY-NC-SA
exact mass=163.1361
ionization energy=70 eV
ion type=[M]+*
computed spectral entropy=2.7168353612903955
computed normalized entropy=0.7223320423591483
SPLASH=splash10-0006-9200000000-bf54e6006e95c9a5b19e
submitter=submitter = University of Tokyo Team (Faculty of Engineering, University of Tokyo)
MoNA Rating=3.75

>  <NUM PEAKS>  (5357) 
43

>  <MASS SPECTRAL PEAKS>  (5357) 
26 3
27 16
28 8.2
29 1.1
38 3.3
39 13.5
40 2.1
41 0.93
42 2.5
43 2.4
50 2.5
51 0.54
52 4.3
53 2.7
55 2.7
57 0.22
63 2
64 2.5
65 6.3
66 0.43
67 2
77 2.5
78 5.6
79 0.32
80 2.5
91 2.9
92 5.5
93 99.99
94 6.4
106 7.5
107 2.2
117 0.21
118 6.9
119 2.3
120 10.5
121 0.24
132 2.1
134 7.8
135 2.5
148 0.56
149 2.6
163 2.1
164 2.6

$$$$

     RDKit          2D

 11 11  0  0  0  0  0  0  0  0999 V2000
   -5.5207    3.1321    0.0000 C   0  0  0  0  0  0  0  0  0  0  0  0
   -4.2216    2.3821    0.0000 C   0  0  0  0  0  0  0  0  0  0  0  0
   -2.9226    3.1321    0.0000 C   0  0  0  0  0  0  0  0  0  0  0  0
   -1.6236    2.3821    0.0000 C   0  0  0  0  0  0  0  0  0  0  0  0
   -0.3245    3.1321    0.0000 C   0  0  0  0  0  0  0  0  0  0  0  0
    2.2740    3.1329    0.0000 C   0  0  0  0  0  0  0  0  0  0  0  0
    0.9740    0.8813    0.0000 C   0  0  0  0  0  0  0  0  0  0  0  0
    3.5731    2.3829    0.0000 C   0  0  0  0  0  0  0  0  0  0  0  0
    2.2731    0.1313    0.0000 C   0  0  0  0  0  0  0  0  0  0  0  0
    0.9745    2.3821    0.0000 C   0  0  0  0  0  0  0  0  0  0  0  0
    3.5726    0.8821    0.0000 N   0  0  0  0  0  0  0  0  0  0  0  0
  2  1  1  0
  3  2  1  0
  4  3  1  0
  5  4  1  0
  8  6  2  0
  9  7  1  0
 10  5  1  0
 10  6  1  0
 10  7  2  0
 11  8  1  0
 11  9  2  0
M  END
>  <NAME>  (5358) 
4-PENTYLPYRIDINE

>  <SYNONYMS>  (5358) 


>  <SPECTRUM TYPE>  (5358) 
MS1

>  <INSTRUMENT TYPE>  (5358) 
EI-B

>  <INSTRUMENT>  (5358) 
HITACHI RMU-6L

>  <ION MODE>  (5358) 
P

>  <INCHIKEY>  (5358) 
ABJVUPUJUGBUMM-UHFFFAOYSA-N

>  <FORMULA>  (5358) 
C10H15N

>  <EXACT MASS>  (5358) 
149.12044948

>  <MW>  (5358) 
149

>  <ID>  (5358) 
JP003977

>  <CONTRIBUTOR>  (5358) 
University of Tokyo Team, {Faculty of Engineering, University of Tokyo

>  <COMMENT>  (5358) 
SMILES=CCCCCc(c1)ccnc1
InChI=InChI=1S/C10H15N/c1-2-3-4-5-10-6-8-11-9-7-10/h6-9H,2-5H2,1H3
computed SMILES=N=1C=CC(=CC1)CCCCC
accession=JP003977
date=2016.01.19 (Created 2008.10.21, modified 2011.05.06)
author=MASS SPECTROSCOPY SOC. OF JAPAN (MSSJ)
license=CC BY-NC-SA
exact mass=149.12045
ionization energy=70 eV
ion type=[M]+*
computed spectral entropy=2.7734159521629493
computed normalized entropy=0.742017416038157
SPLASH=splash10-0006-9100000000-e8e7b3253821b5837e48
submitter=submitter = University of Tokyo Team (Faculty of Engineering, University of Tokyo)
MoNA Rating=3.75

>  <NUM PEAKS>  (5358) 
42

>  <MASS SPECTRAL PEAKS>  (5358) 
26 4.5
27 23.6
28 6.5
29 2.71
38 2.1
39 23.8
40 3
41 1.85
42 3.1
43 3.9
50 4.2
51 1.25
52 5.5
53 4.2
54 3.2
55 0.24
57 5
63 3.7
64 3
65 1.34
66 2
77 4.4
78 4.2
79 0.31
80 3
91 3.5
92 9.8
93 99.99
94 7.6
104 3.2
105 3
106 1.17
107 3
110 3.2
117 2.8
119 0.36
120 2.5
134 2.8
135 2.3
148 0.35
149 26.3
150 2.5

$$$$

     RDKit          2D

 11 11  0  0  0  0  0  0  0  0999 V2000
    7.4251    1.2910    0.0000 C   0  0  0  0  0  0  0  0  0  0  0  0
    6.1262    0.5408    0.0000 C   0  0  0  0  0  0  0  0  0  0  0  0
    4.8270    1.2906    0.0000 C   0  0  0  0  0  0  0  0  0  0  0  0
    3.5281    0.5404    0.0000 C   0  0  0  0  0  0  0  0  0  0  0  0
   -0.3700   -1.7100    0.0000 C   0  0  0  0  0  0  0  0  0  0  0  0
   -1.6700   -0.9600    0.0000 C   0  0  0  0  0  0  0  0  0  0  0  0
    2.2289    1.2902    0.0000 C   0  0  0  0  0  0  0  0  0  0  0  0
    0.9300   -0.9600    0.0000 C   0  0  0  0  0  0  0  0  0  0  0  0
   -1.6700    0.5400    0.0000 C   0  0  0  0  0  0  0  0  0  0  0  0
    0.9300    0.5400    0.0000 C   0  0  0  0  0  0  0  0  0  0  0  0
   -0.3700    1.2900    0.0000 N   0  0  0  0  0  0  0  0  0  0  0  0
  2  1  1  0
  3  2  1  0
  4  3  1  0
  6  5  2  0
  7  4  1  0
  8  5  1  0
  9  6  1  0
 10  7  1  0
 10  8  2  0
 11  9  2  0
 11 10  1  0
M  END
>  <NAME>  (5359) 
2-PENTYLPYRIDINE

>  <SYNONYMS>  (5359) 


>  <SPECTRUM TYPE>  (5359) 
MS1

>  <INSTRUMENT TYPE>  (5359) 
EI-B

>  <INSTRUMENT>  (5359) 
HITACHI RMU-6L

>  <ION MODE>  (5359) 
P

>  <INCHIKEY>  (5359) 
HSDXVAOHEOSTFZ-UHFFFAOYSA-N

>  <FORMULA>  (5359) 
C10H15N

>  <EXACT MASS>  (5359) 
149.12044948

>  <MW>  (5359) 
149

>  <ID>  (5359) 
JP003976

>  <CONTRIBUTOR>  (5359) 
University of Tokyo Team, {Faculty of Engineering, University of Tokyo

>  <COMMENT>  (5359) 
SMILES=CCCCCc(c1)nccc1
InChI=InChI=1S/C10H15N/c1-2-3-4-7-10-8-5-6-9-11-10/h5-6,8-9H,2-4,7H2,1H3
computed SMILES=N=1C=CC=CC1CCCCC
accession=JP003976
date=2016.01.19 (Created 2008.10.21, modified 2011.05.06)
author=MASS SPECTROSCOPY SOC. OF JAPAN (MSSJ)
license=CC BY-NC-SA
exact mass=149.12045
ionization energy=70 eV
ion type=[M]+*
computed spectral entropy=2.544924086486105
computed normalized entropy=0.7101745882170603
SPLASH=splash10-0006-9200000000-2b5ea572618b9c05ad49
submitter=submitter = University of Tokyo Team (Faculty of Engineering, University of Tokyo)
MoNA Rating=3.75

>  <NUM PEAKS>  (5359) 
36

>  <MASS SPECTRAL PEAKS>  (5359) 
26 3.2
27 17
28 4.2
29 1.07
38 3
39 13
40 2.5
41 0.2
50 2.5
51 7.3
52 5.4
53 0.31
63 2.3
64 2.3
65 8.5
66 0.3
67 2.5
76 2.1
77 7.2
78 0.37
79 2
91 3
92 5.7
93 99.99
94 8.8
104 3
106 22.9
107 0.62
117 3
118 3
119 2.2
120 2.15
121 2.9
134 1.9
148 2.8
149 2

$$$$

     RDKit          2D

 10 10  0  0  0  0  0  0  0  0999 V2000
   -2.9229    1.3124    0.0000 C   0  0  0  0  0  0  0  0  0  0  0  0
    0.9739   -2.4384    0.0000 C   0  0  0  0  0  0  0  0  0  0  0  0
    3.5729    2.0631    0.0000 C   0  0  0  0  0  0  0  0  0  0  0  0
   -1.6239    2.0624    0.0000 C   0  0  0  0  0  0  0  0  0  0  0  0
   -0.3253   -0.1884    0.0000 C   0  0  0  0  0  0  0  0  0  0  0  0
    0.9747    2.0633    0.0000 C   0  0  0  0  0  0  0  0  0  0  0  0
    0.9737   -0.9384    0.0000 C   0  0  0  0  0  0  0  0  0  0  0  0
    2.2737    1.3133    0.0000 C   0  0  0  0  0  0  0  0  0  0  0  0
   -0.3248    1.3124    0.0000 C   0  0  0  0  0  0  0  0  0  0  0  0
    2.2732   -0.1876    0.0000 N   0  0  0  0  0  0  0  0  0  0  0  0
  4  1  1  0
  7  2  1  0
  7  5  2  0
  8  3  1  0
  8  6  1  0
  9  4  1  0
  9  5  1  0
  9  6  2  0
 10  7  1  0
 10  8  2  0
M  END
>  <NAME>  (5360) 
2,6-DIMETHYL-4-ETHYLPYRIDINE

>  <SYNONYMS>  (5360) 


>  <SPECTRUM TYPE>  (5360) 
MS1

>  <INSTRUMENT TYPE>  (5360) 
EI-B

>  <INSTRUMENT>  (5360) 
HITACHI RMU-6L

>  <ION MODE>  (5360) 
P

>  <INCHIKEY>  (5360) 
YFCLFEIWFHJNFU-UHFFFAOYSA-N

>  <FORMULA>  (5360) 
C9H13N

>  <EXACT MASS>  (5360) 
135.104799416

>  <MW>  (5360) 
135

>  <ID>  (5360) 
JP003975

>  <CONTRIBUTOR>  (5360) 
University of Tokyo Team, {Faculty of Engineering, University of Tokyo

>  <COMMENT>  (5360) 
SMILES=CCc(c1)cc(C)nc(C)1
InChI=InChI=1S/C9H13N/c1-4-9-5-7(2)10-8(3)6-9/h5-6H,4H2,1-3H3
computed SMILES=N=1C(=CC(=CC1C)CC)C
accession=JP003975
date=2016.01.19 (Created 2008.10.21, modified 2011.05.06)
author=MASS SPECTROSCOPY SOC. OF JAPAN (MSSJ)
license=CC BY-NC-SA
exact mass=135.1048
ionization energy=70 eV
ion type=[M]+*
computed spectral entropy=2.9682982487461844
computed normalized entropy=0.7843946884006237
SPLASH=splash10-000i-8900000000-ae1468f747a8dda326a0
submitter=submitter = University of Tokyo Team (Faculty of Engineering, University of Tokyo)
MoNA Rating=3.75

>  <NUM PEAKS>  (5360) 
44

>  <MASS SPECTRAL PEAKS>  (5360) 
26 3
27 17.2
28 7
29 0.45
31 2.1
37 2.5
38 4
39 2
40 3.3
41 9.5
42 15.9
50 0.41
51 10.2
52 6.5
53 8.5
54 0.27
55 3
62 3
63 7.3
64 0.35
65 10.5
66 3
67 4.8
77 1.85
78 6.2
79 15.8
91 8.2
92 0.3
93 7
94 3.2
104 2.4
105 0.28
106 3.9
107 6.4
108 3.1
117 0.29
118 4.2
119 2.8
120 36.8
121 1.05
133 3.5
134 12.7
135 99.99
136 9.2

$$$$

     RDKit          2D

 14 15  0  0  0  0  0  0  0  0999 V2000
    7.8395    1.4601    0.0000 C   0  0  0  0  0  0  0  0  0  0  0  0
    0.0000    1.5000    0.0000 C   0  0  0  0  0  0  0  0  0  0  0  0
   -1.3000    0.7500    0.0000 C   0  0  0  0  0  0  0  0  0  0  0  0
    1.3000    0.7500    0.0000 C   0  0  0  0  0  0  0  0  0  0  0  0
    6.5180   -0.7725    0.0000 C   0  0  0  0  0  0  0  0  0  0  0  0
    5.2670    1.4882    0.0000 C   0  0  0  0  0  0  0  0  0  0  0  0
    5.2417   -1.5117    0.0000 C   0  0  0  0  0  0  0  0  0  0  0  0
    3.9107    0.7495    0.0000 C   0  0  0  0  0  0  0  0  0  0  0  0
   -1.3000   -0.7500    0.0000 C   0  0  0  0  0  0  0  0  0  0  0  0
    6.5306    0.7275    0.0000 C   0  0  0  0  0  0  0  0  0  0  0  0
    3.8981   -0.7504    0.0000 C   0  0  0  0  0  0  0  0  0  0  0  0
    1.3000   -0.7500    0.0000 C   0  0  0  0  0  0  0  0  0  0  0  0
   -0.0000   -1.5000    0.0000 N   0  0  0  0  0  0  0  0  0  0  0  0
    2.5989   -1.5002    0.0000 O   0  0  0  0  0  0  0  0  0  0  0  0
  3  2  2  0
  4  2  1  0
  7  5  2  0
  8  6  1  0
  9  3  1  0
 10  1  1  0
 10  5  1  0
 10  6  2  0
 11  7  1  0
 11  8  2  0
 12  4  2  0
 13  9  2  0
 13 12  1  0
 14 11  1  0
 14 12  1  0
M  END
>  <NAME>  (5361) 
2-PYRIDYL P-TOLYL ETHER

>  <SYNONYMS>  (5361) 


>  <SPECTRUM TYPE>  (5361) 
MS1

>  <INSTRUMENT TYPE>  (5361) 
EI-B

>  <INSTRUMENT>  (5361) 
HITACHI RMU-7

>  <ION MODE>  (5361) 
P

>  <INCHIKEY>  (5361) 
VTFYAGUKTYQNPT-UHFFFAOYSA-N

>  <FORMULA>  (5361) 
C12H11NO

>  <EXACT MASS>  (5361) 
185.084063972

>  <MW>  (5361) 
185

>  <ID>  (5361) 
JP003953

>  <CONTRIBUTOR>  (5361) 
University of Tokyo Team, {Faculty of Engineering, University of Tokyo

>  <COMMENT>  (5361) 
SMILES=Cc(c2)ccc(c2)Oc(c1)nccc1
InChI=InChI=1S/C12H11NO/c1-10-5-7-11(8-6-10)14-12-4-2-3-9-13-12/h2-9H,1H3
computed SMILES=N=1C=CC=CC1OC2=CC=C(C=C2)C
accession=JP003953
date=2016.01.19 (Created 2008.10.21, modified 2011.05.06)
author=NAKATA H, DEPT. OF CHEMISTRY, AICHI KYOIKU UNIV.
license=CC BY-NC-SA
exact mass=185.08406
ionization energy=70 eV
ion type=[M]+*
computed spectral entropy=2.782049161583918
computed normalized entropy=0.8538878848793567
SPLASH=splash10-0a5i-3900000000-5b26233efe7d2c5b45fe
submitter=submitter = University of Tokyo Team (Faculty of Engineering, University of Tokyo)
MoNA Rating=3.75

>  <NUM PEAKS>  (5361) 
26

>  <MASS SPECTRAL PEAKS>  (5361) 
50 7
51 33
52 15
53 6
63 9
65 16
77 20
78 38
79 8
89 8
91 19
92 5
107 6
115 15
128 8
129 14
130 13
142 8
154 6
156 51
157 75
158 11
183 7
184 99.99
185 99.99
186 18

$$$$

     RDKit          2D

 29 28  0  0  0  0  0  0  0  0999 V2000
   11.1515    3.8003    0.0000 C   0  0  0  0  0  0  0  0  0  0  0  0
    8.5534    5.3003    0.0000 C   0  0  0  0  0  0  0  0  0  0  0  0
   10.6025    5.8494    0.0000 C   0  0  0  0  0  0  0  0  0  0  0  0
    0.3725    6.8817    0.0000 C   0  0  0  0  0  0  0  0  0  0  0  0
   -1.1275    5.3817    0.0000 C   0  0  0  0  0  0  0  0  0  0  0  0
    0.3725    3.8817    0.0000 C   0  0  0  0  0  0  0  0  0  0  0  0
    1.7599    0.8585    0.0000 C   0  0  0  0  0  0  0  0  0  0  0  0
    0.8634   -1.0640    0.0000 C   0  0  0  0  0  0  0  0  0  0  0  0
    2.7860   -1.9605    0.0000 C   0  0  0  0  0  0  0  0  0  0  0  0
    6.5095   -1.4475    0.0000 C   0  0  0  0  0  0  0  0  0  0  0  0
    8.4320   -0.5510    0.0000 C   0  0  0  0  0  0  0  0  0  0  0  0
    7.5355    1.3716    0.0000 C   0  0  0  0  0  0  0  0  0  0  0  0
    6.8525    1.9523    0.0000 C   0  0  0  0  0  0  0  0  0  0  0  0
    4.1225    4.0827    0.0000 C   0  0  0  0  0  0  0  0  0  0  0  0
    7.6025    3.2513    0.0000 C   0  0  0  0  0  0  0  0  0  0  0  0
    2.6225    4.0827    0.0000 C   0  0  0  0  0  0  0  0  0  0  0  0
    3.9429    1.4392    0.0000 C   0  0  0  0  0  0  0  0  0  0  0  0
    5.3525    1.9523    0.0000 C   0  0  0  0  0  0  0  0  0  0  0  0
    6.8525    4.5503    0.0000 O   0  0  0  0  0  0  0  0  0  0  0  0
    1.8725    2.7836    0.0000 O   0  0  0  0  0  0  0  0  0  0  0  0
    2.7939    2.4034    0.0000 O   0  0  0  0  0  0  0  0  0  0  0  0
    9.1025    3.2513    0.0000 O   0  0  0  0  0  0  0  0  0  0  0  0
    1.8725    5.3817    0.0000 O   0  0  0  0  0  0  0  0  0  0  0  0
    3.6825   -0.0380    0.0000 O   0  0  0  0  0  0  0  0  0  0  0  0
    5.6130    0.4751    0.0000 O   0  0  0  0  0  0  0  0  0  0  0  0
    9.8525    4.5503    0.0000 Si  0  0  0  0  0  4  0  0  0  0  0  0
    0.3725    5.3817    0.0000 Si  0  0  0  0  0  4  0  0  0  0  0  0
    2.2729   -0.5510    0.0000 Si  0  0  0  0  0  4  0  0  0  0  0  0
    7.0225   -0.0380    0.0000 Si  0  0  0  0  0  4  0  0  0  0  0  0
 15 13  1  0
 16 14  1  0
 18 13  1  0
 18 14  1  0
 18 17  1  0
 19 15  2  0
 20 16  2  0
 21 17  2  0
 22 15  1  0
 23 16  1  0
 24 17  1  0
 25 18  1  0
 26  1  1  0
 26  2  1  0
 26  3  1  0
 26 22  1  0
 27  4  1  0
 27  5  1  0
 27  6  1  0
 27 23  1  0
 28  7  1  0
 28  8  1  0
 28  9  1  0
 28 24  1  0
 29 10  1  0
 29 11  1  0
 29 12  1  0
 29 25  1  0
M  END
>  <NAME>  (5362) 
CITRIC ACID-TETRA-TMS

>  <SYNONYMS>  (5362) 


>  <SPECTRUM TYPE>  (5362) 
MS1

>  <INSTRUMENT TYPE>  (5362) 
EI-B

>  <INSTRUMENT>  (5362) 
SHIMADZU LKB-9000B

>  <ION MODE>  (5362) 
P

>  <INCHIKEY>  (5362) 
VFGAVMGYDWDESE-UHFFFAOYSA-N

>  <FORMULA>  (5362) 
C18H40O7Si4

>  <EXACT MASS>  (5362) 
480.18510974

>  <MW>  (5362) 
480

>  <ID>  (5362) 
JP003951

>  <CONTRIBUTOR>  (5362) 
University of Tokyo Team, {Faculty of Engineering, University of Tokyo

>  <COMMENT>  (5362) 
SMILES=C[Si](C)(C)OC(=O)CC(CC(=O)O[Si](C)(C)C)(O[Si](C)(C)C)C(=O)O[Si](C)(C)C
InChI=InChI=1S/C18H40O7Si4/c1-26(2,3)22-15(19)13-18(25-29(10,11)12,17(21)24-28(7,8)9)14-16(20)23-27(4,5)6/h13-14H2,1-12H3
computed SMILES=O=C(O[Si](C)(C)C)CC(O[Si](C)(C)C)(C(=O)O[Si](C)(C)C)CC(=O)O[Si](C)(C)C
accession=JP003951
date=2016.01.19 (Created 2008.10.21, modified 2011.05.06)
author=HAYASHI A, DEPT. OF CHEMISTRY, FAC. OF SCI. AND TECHNOLOGY, KINKI UNIV.
license=CC BY-NC-SA
exact mass=480.18511
ionization energy=70 eV
ion type=[M]+*
computed spectral entropy=3.4320162913106502
computed normalized entropy=0.6935103677152513
SPLASH=splash10-00fr-9221000000-1c32b301c33d4001e328
submitter=submitter = University of Tokyo Team (Faculty of Engineering, University of Tokyo)
MoNA Rating=3.75

>  <NUM PEAKS>  (5362) 
141

>  <MASS SPECTRAL PEAKS>  (5362) 
57 1.8
58 3.7
59 12
60 0.2
61 3.1
63 0.9
65 0.7
66 0.17
67 3.2
68 0.8
69 2.9
70 0.1
71 1.5
72 4.4
73 72.2
74 0.8
75 99.99
76 8.3
77 5.3
78 0.1
79 0.7
81 0.7
82 0.6
83 0.16
84 1.9
85 2.6
87 1
89 0.13
90 0.6
91 1.1
92 0.7
93 0.13
94 0.6
95 0.9
96 0.8
97 0.23
98 0.9
99 3.2
100 0.9
101 0.1
102 0.6
103 1.8
104 0.7
105 0.15
108 1.1
109 1
110 0.6
111 0.1
112 0.6
113 0.6
114 0.8
115 0.27
116 1.5
117 3
118 0.8
119 0.08
123 0.6
125 0.9
127 1
128 0.08
129 3.2
130 0.9
131 1.8
132 0.07
133 4.7
134 0.7
135 1.7
139 0.06
141 1.1
143 1.7
145 1
147 3.56
148 4.8
149 6.9
150 0.9
151 0.08
156 0.8
157 0.9
159 0.7
169 0.1
171 1
173 0.6
183 2.4
185 0.15
187 0.8
189 0.7
190 1
191 0.06
201 1.6
203 0.6
204 1
207 0.17
211 3.9
213 2.3
215 1.3
217 0.23
218 1
219 1.5
220 1
221 0.24
222 0.6
229 1.2
231 3.3
232 0.12
233 0.7
250 0.6
257 2.3
259 0.06
263 0.06
273 30.3
274 6.5
275 3.7
277 0.13
279 1.9
285 1.1
292 1.3
294 0.26
303 1.1
305 2.7
306 1.3
307 0.37
308 0.8
309 8.7
310 0.7
319 0.09
333 0.6
346 2.6
347 7.3
348 0.16
349 1.2
362 1.6
363 5.4
364 0.19
365 1
374 0.8
375 7
376 0.22
377 1.1
465 3.4
466 1.5
467 0.9

$$$$

     RDKit          2D

 26 27  0  0  0  0  0  0  0  0999 V2000
    6.4974   -0.7490    0.0000 C   0  0  0  0  0  0  0  0  0  0  0  0
   -2.1312   -1.2301    0.0000 C   0  0  0  0  0  0  0  0  0  0  0  0
    5.1974   -1.4990    0.0000 C   0  0  0  0  0  0  0  0  0  0  0  0
    6.4974    0.7510    0.0000 C   0  0  0  0  0  0  0  0  0  0  0  0
   -2.1307    0.2708    0.0000 C   0  0  0  0  0  0  0  0  0  0  0  0
   -0.8322   -1.9801    0.0000 C   0  0  0  0  0  0  0  0  0  0  0  0
    3.8974   -0.7490    0.0000 C   0  0  0  0  0  0  0  0  0  0  0  0
    5.1974    1.5010    0.0000 C   0  0  0  0  0  0  0  0  0  0  0  0
   -0.8312    1.0216    0.0000 C   0  0  0  0  0  0  0  0  0  0  0  0
    0.4673   -1.2292    0.0000 C   0  0  0  0  0  0  0  0  0  0  0  0
    3.8974    0.7510    0.0000 C   0  0  0  0  0  0  0  0  0  0  0  0
    0.4678    0.2716    0.0000 C   0  0  0  0  0  0  0  0  0  0  0  0
    3.8976    2.2510    0.0000 Cl  0  0  0  0  0  0  0  0  0  0  0  0
    2.5987    3.0012    0.0000 Cl  0  0  0  0  0  0  0  0  0  0  0  0
    1.2995    2.2515    0.0000 Cl  0  0  0  0  0  0  0  0  0  0  0  0
    7.7963   -1.4992    0.0000 F   0  0  0  0  0  0  0  0  0  0  0  0
   -3.4304   -1.9799    0.0000 F   0  0  0  0  0  0  0  0  0  0  0  0
    5.1974   -2.9990    0.0000 F   0  0  0  0  0  0  0  0  0  0  0  0
    7.7963    1.5012    0.0000 F   0  0  0  0  0  0  0  0  0  0  0  0
   -3.4298    1.0208    0.0000 F   0  0  0  0  0  0  0  0  0  0  0  0
   -0.8319   -3.4801    0.0000 F   0  0  0  0  0  0  0  0  0  0  0  0
    2.5984   -1.4992    0.0000 F   0  0  0  0  0  0  0  0  0  0  0  0
    5.1974    3.0010    0.0000 F   0  0  0  0  0  0  0  0  0  0  0  0
   -0.8315    2.5216    0.0000 F   0  0  0  0  0  0  0  0  0  0  0  0
    1.7664   -1.9792    0.0000 F   0  0  0  0  0  0  0  0  0  0  0  0
    2.5984    1.5012    0.0000 P   0  0  0  0  0  0  0  0  0  0  0  0
  3  1  2  0
  4  1  1  0
  5  2  2  0
  6  2  1  0
  7  3  1  0
  8  4  2  0
  9  5  1  0
 10  6  2  0
 11  7  2  0
 11  8  1  0
 12  9  2  0
 12 10  1  0
 16  1  1  0
 17  2  1  0
 18  3  1  0
 19  4  1  0
 20  5  1  0
 21  6  1  0
 22  7  1  0
 23  8  1  0
 24  9  1  0
 25 10  1  0
 26 11  1  0
 26 12  1  0
 26 13  1  0
 26 14  1  0
 26 15  1  0
M  END
>  <NAME>  (5363) 
BIS(PENTAFLUOROPHENYL)-TRICHLOROPHOSPHORANE

>  <SYNONYMS>  (5363) 


>  <SPECTRUM TYPE>  (5363) 
MS1

>  <INSTRUMENT TYPE>  (5363) 
EI-B

>  <INSTRUMENT>  (5363) 
Unknown

>  <ION MODE>  (5363) 
P

>  <INCHIKEY>  (5363) 
MHJWEVPELOAYIK-UHFFFAOYSA-N

>  <FORMULA>  (5363) 
C12Cl3F10P

>  <EXACT MASS>  (5363) 
469.86435187

>  <MW>  (5363) 
470

>  <ID>  (5363) 
JP003878

>  <CONTRIBUTOR>  (5363) 
University of Tokyo Team, {Faculty of Engineering, University of Tokyo

>  <COMMENT>  (5363) 
SMILES=Fc(c(F)2)c(F)c(F)c(c(F)2)P(Cl)(Cl)(Cl)c(c(F)1)c(F)c(F)c(F)c(F)1
InChI=InChI=1S/C12Cl3F10P/c13-26(14,15,11-7(22)3(18)1(16)4(19)8(11)23)12-9(24)5(20)2(17)6(21)10(12)25
computed SMILES=FC=1C(F)=C(F)C(=C(F)C1F)P(Cl)(Cl)(Cl)C=2C(F)=C(F)C(F)=C(F)C2F
accession=JP003878
date=2016.01.19 (Created 2008.10.21, modified 2011.05.06)
author=SASAKI S, TOYOHASHI UNIV. OF TECH.
license=CC BY-NC-SA
exact mass=469.86435
ionization energy=70 eV
ion type=[M]+*
computed spectral entropy=2.9568986987192374
computed normalized entropy=0.8316762937355077
SPLASH=splash10-014i-8942100000-0f5feb61abcf3ff870ef
submitter=submitter = University of Tokyo Team (Faculty of Engineering, University of Tokyo)
MoNA Rating=3.75

>  <NUM PEAKS>  (5363) 
35

>  <MASS SPECTRAL PEAKS>  (5363) 
64 26.9
69 99.99
79 9.3
85 1.04
93 12.7
98 9.2
99 20.4
105 0.82
110 39.2
111 6.4
117 21.1
129 2.82
137 8.3
145 13
147 6.4
148 0.88
149 6
167 4.6
168 58.5
198 6.61
199 6
217 45.9
233 24.5
235 0.68
278 5.2
298 15.6
365 35.9
366 0.38
367 7.5
381 4.6
384 4.6
400 5.18
401 7.5
402 13
403 2.1

$$$$

     RDKit          2D

 15 16  0  0  0  0  0  0  0  0999 V2000
    3.1239    2.0857    0.0000 C   0  0  0  0  0  0  0  0  0  0  0  0
    1.6322    2.2431    0.0000 C   0  0  0  0  0  0  0  0  0  0  0  0
   -5.4932   -1.7699    0.0000 C   0  0  0  0  0  0  0  0  0  0  0  0
   -4.3807   -2.7773    0.0000 C   0  0  0  0  0  0  0  0  0  0  0  0
   -5.1780   -0.3026    0.0000 C   0  0  0  0  0  0  0  0  0  0  0  0
   -2.9530   -2.3173    0.0000 C   0  0  0  0  0  0  0  0  0  0  0  0
   -3.7502    0.1574    0.0000 C   0  0  0  0  0  0  0  0  0  0  0  0
   -2.6377   -0.8500    0.0000 C   0  0  0  0  0  0  0  0  0  0  0  0
   -1.2100   -0.3900    0.0000 C   0  0  0  0  0  0  0  0  0  0  0  0
   -0.7500    1.0300    0.0000 C   0  0  0  0  0  0  0  0  0  0  0  0
    1.2100   -0.3900    0.0000 C   0  0  0  0  0  0  0  0  0  0  0  0
   -0.0000   -1.2800    0.0000 N   0  0  0  0  0  0  0  0  0  0  0  0
    0.7500    1.0300    0.0000 N   0  0  0  0  0  0  0  0  0  0  0  0
   -1.6322    2.2431    0.0000 O   0  0  0  0  0  0  0  0  0  0  0  0
    2.6377   -0.8500    0.0000 O   0  0  0  0  0  0  0  0  0  0  0  0
  2  1  1  0
  4  3  2  0
  5  3  1  0
  6  4  1  0
  7  5  2  0
  8  6  2  0
  8  7  1  0
  9  8  1  0
 10  9  1  0
 12  9  1  0
 12 11  2  0
 13  2  1  0
 13 10  1  0
 13 11  1  0
 14 10  2  0
 15 11  1  0
M  END
>  <NAME>  (5364) 
3-ETHYL-5-PHENYL-IMIDAZOLIDINE-2,4-DIONE

>  <SYNONYMS>  (5364) 
ETHOTOIN

>  <SPECTRUM TYPE>  (5364) 
MS1

>  <INSTRUMENT TYPE>  (5364) 
EI-B

>  <INSTRUMENT>  (5364) 
Unknown

>  <ION MODE>  (5364) 
P

>  <INCHIKEY>  (5364) 
SZQIFWWUIBRPBZ-UHFFFAOYSA-N

>  <FORMULA>  (5364) 
C11H12N2O2

>  <EXACT MASS>  (5364) 
204.089877624

>  <MW>  (5364) 
204

>  <ID>  (5364) 
JP003876

>  <CONTRIBUTOR>  (5364) 
University of Tokyo Team, {Faculty of Engineering, University of Tokyo

>  <COMMENT>  (5364) 
SMILES=CCN(C(=O)2)C(=O)C(N2)c(c1)cccc1
InChI=InChI=1S/C11H12N2O2/c1-2-13-10(14)9(12-11(13)15)8-6-4-3-5-7-8/h3-7,9H,2H2,1H3,(H,12,15)
computed SMILES=O=C1N(C(O)=NC1C=2C=CC=CC2)CC
accession=JP003876
date=2016.01.19 (Created 2008.10.21, modified 2011.05.06)
author=SASAKI S, TOYOHASHI UNIV. OF TECH.
license=CC BY-NC-SA
exact mass=204.08988
ionization energy=70 eV
ion type=[M]+*
computed spectral entropy=2.5247222464518613
computed normalized entropy=0.5962821775292136
SPLASH=splash10-0udi-6980000000-86b5edde33787fa5b3d5
submitter=submitter = University of Tokyo Team (Faculty of Engineering, University of Tokyo)
MoNA Rating=3.75

>  <NUM PEAKS>  (5364) 
69

>  <MASS SPECTRAL PEAKS>  (5364) 
38 0.7
39 2.7
40 0.6
41 0.09
42 1.5
43 1.7
44 3.5
45 0.06
49 0.1
50 2.7
51 8
52 0.29
53 0.8
54 0.1
55 0.8
56 0.25
57 1.3
61 0.1
62 0.8
63 0.26
64 1.2
65 0.6
66 0.3
67 0.01
69 0.4
70 5.5
71 1.1
72 1.35
73 0.9
74 0.7
75 1
76 0.23
77 19.4
78 12
79 1.9
88 0.03
89 3.9
90 3.5
91 3
92 0.06
102 0.4
103 2.9
104 71.9
105 0.95
106 8.5
107 0.9
117 0.3
118 0.39
119 0.9
131 0.1
132 8.9
133 2.34
134 2.5
135 0.1
146 0.6
147 0.11
148 0.3
149 0.6
161 4.9
162 0.08
175 1.9
176 3.9
177 0.6
189 0.01
190 0.4
203 0.3
204 99.99
205 1.31
206 1.7

$$$$

     RDKit          2D

 16 16  0  0  0  0  0  0  0  0999 V2000
   -5.0872   -0.7609    0.0000 C   0  0  0  0  0  0  0  0  0  0  0  0
   -0.9210   -4.4682    0.0000 C   0  0  0  0  0  0  0  0  0  0  0  0
    1.0689   -2.7977    0.0000 C   0  0  0  0  0  0  0  0  0  0  0  0
   -3.6099   -1.0212    0.0000 C   0  0  0  0  0  0  0  0  0  0  0  0
   -2.6459    0.1279    0.0000 C   0  0  0  0  0  0  0  0  0  0  0  0
   -1.6813   -1.5420    0.0000 C   0  0  0  0  0  0  0  0  0  0  0  0
   -0.4083   -3.0585    0.0000 C   0  0  0  0  0  0  0  0  0  0  0  0
   -1.1686    1.3676    0.0000 C   0  0  0  0  0  0  0  0  0  0  0  0
    0.1314   -0.8824    0.0000 C   0  0  0  0  0  0  0  0  0  0  0  0
    1.4314    1.3676    0.0000 C   0  0  0  0  0  0  0  0  0  0  0  0
   -1.1686   -0.1324    0.0000 C   0  0  0  0  0  0  0  0  0  0  0  0
    0.1314    2.1176    0.0000 N   0  0  0  0  0  0  0  0  0  0  0  0
    1.4314   -0.1324    0.0000 N   0  0  0  0  0  0  0  0  0  0  0  0
   -2.4675    2.1178    0.0000 O   0  0  0  0  0  0  0  0  0  0  0  0
    0.1314   -2.3824    0.0000 O   0  0  0  0  0  0  0  0  0  0  0  0
    2.7303    2.1178    0.0000 O   0  0  0  0  0  0  0  0  0  0  0  0
  4  1  2  0
  5  4  1  0
  7  2  1  0
  7  3  1  0
  7  6  1  0
 11  5  1  0
 11  6  1  0
 11  8  1  0
 11  9  1  0
 12  8  2  0
 12 10  1  0
 13  9  2  0
 13 10  1  0
 14  8  1  0
 15  9  1  0
 16 10  2  0
M  END
>  <NAME>  (5365) 
5-ALLYL-5-ISOBUTYL-BARBITURIC ACID

>  <SYNONYMS>  (5365) 
BUTALBITAL

>  <SPECTRUM TYPE>  (5365) 
MS1

>  <INSTRUMENT TYPE>  (5365) 
EI-B

>  <INSTRUMENT>  (5365) 
Unknown

>  <ION MODE>  (5365) 
P

>  <INCHIKEY>  (5365) 
UZVHFVZFNXBMQJ-UHFFFAOYSA-N

>  <FORMULA>  (5365) 
C11H16N2O3

>  <EXACT MASS>  (5365) 
224.11609237199997

>  <MW>  (5365) 
224

>  <ID>  (5365) 
JP003875

>  <CONTRIBUTOR>  (5365) 
University of Tokyo Team, {Faculty of Engineering, University of Tokyo

>  <COMMENT>  (5365) 
SMILES=C=CCC(CC(C)C)(C(=O)1)C(=O)NC(=O)N1
InChI=InChI=1S/C11H16N2O3/c1-4-5-11(6-7(2)3)8(14)12-10(16)13-9(11)15/h4,7H,1,5-6H2,2-3H3,(H2,12,13,14,15,16)
computed SMILES=O=C1N=C(O)C(C(O)=N1)(CC=C)CC(C)C
accession=JP003875
date=2016.01.19 (Created 2008.10.21, modified 2011.05.06)
author=SASAKI S, TOYOHASHI UNIV. OF TECH.
license=CC BY-NC-SA
exact mass=224.11609
ionization energy=70 eV
ion type=[M]+*
computed spectral entropy=3.1307558629828236
computed normalized entropy=0.6699915562696492
SPLASH=splash10-014i-3900000000-b4be8a2b661834f34c86
submitter=submitter = University of Tokyo Team (Faculty of Engineering, University of Tokyo)
MoNA Rating=3.75

>  <NUM PEAKS>  (5365) 
107

>  <MASS SPECTRAL PEAKS>  (5365) 
38 0.3
39 10.4
40 1.9
41 3.89
42 3.9
43 8.9
44 3.3
45 0.04
50 0.3
51 1.5
52 3
53 0.55
54 2.9
55 5.6
56 3
57 0.51
58 0.5
59 0.1
63 0.2
64 0.01
65 2.4
66 1.9
67 6
68 0.19
69 2.8
70 2.7
71 0.3
73 0.03
77 1.5
78 1.3
79 1.8
80 0.33
81 2.3
82 1.6
83 1.3
84 0.11
85 0.1
90 0.1
91 1
92 0.09
93 1.1
94 2.2
95 3.9
96 0.45
97 11.4
98 8.5
99 1.1
100 0.07
106 2
107 0.9
108 3.4
109 0.18
110 1.7
111 1.6
112 1.7
113 0.01
120 0.5
121 0.9
122 1.6
123 0.23
124 15.9
125 1.9
126 1.1
127 0.01
136 0.8
137 0.4
138 2.7
139 0.08
140 0.9
141 10.9
142 1.8
143 0.03
149 0.6
150 0.9
151 1.9
152 0.09
153 6.9
154 0.9
155 0.9
156 0.01
163 0.1
164 0.2
165 1.1
166 0.01
167 66.9
168 99.99
169 11.4
170 0.17
171 0.5
172 0.1
179 0.1
180 0.04
181 17.1
182 4.9
183 3.5
184 0.14
185 0.3
186 0.1
195 0.3
196 0.04
208 0.1
209 3.4
210 0.8
211 0.01
223 0.2
224 0.2
225 0.1

$$$$

     RDKit          2D

 21 23  0  0  0  0  0  0  0  0999 V2000
    2.5981   -7.1400    0.0000 C   0  0  0  0  0  0  0  0  0  0  0  0
    3.8971   -4.8900    0.0000 C   0  0  0  0  0  0  0  0  0  0  0  0
    4.2200    0.4000    0.0000 C   0  0  0  0  0  0  0  0  0  0  0  0
   -4.2200    0.4000    0.0000 C   0  0  0  0  0  0  0  0  0  0  0  0
    3.8800   -1.0600    0.0000 C   0  0  0  0  0  0  0  0  0  0  0  0
   -3.8800   -1.0600    0.0000 C   0  0  0  0  0  0  0  0  0  0  0  0
    1.2990   -3.3900    0.0000 C   0  0  0  0  0  0  0  0  0  0  0  0
    3.1200    1.4200    0.0000 C   0  0  0  0  0  0  0  0  0  0  0  0
   -3.1200    1.4200    0.0000 C   0  0  0  0  0  0  0  0  0  0  0  0
    2.4500   -1.5100    0.0000 C   0  0  0  0  0  0  0  0  0  0  0  0
   -2.4500   -1.5100    0.0000 C   0  0  0  0  0  0  0  0  0  0  0  0
    0.7500    2.1500    0.0000 C   0  0  0  0  0  0  0  0  0  0  0  0
   -0.7500    2.1500    0.0000 C   0  0  0  0  0  0  0  0  0  0  0  0
    1.2990   -4.8900    0.0000 C   0  0  0  0  0  0  0  0  0  0  0  0
   -0.0000   -2.6400    0.0000 C   0  0  0  0  0  0  0  0  0  0  0  0
    1.6900    0.9800    0.0000 C   0  0  0  0  0  0  0  0  0  0  0  0
   -1.6900    0.9800    0.0000 C   0  0  0  0  0  0  0  0  0  0  0  0
    1.3500   -0.4900    0.0000 C   0  0  0  0  0  0  0  0  0  0  0  0
   -1.3500   -0.4900    0.0000 C   0  0  0  0  0  0  0  0  0  0  0  0
    2.5981   -5.6400    0.0000 N   0  0  0  0  0  0  0  0  0  0  0  0
    0.0000   -1.1400    0.0000 N   0  0  0  0  0  0  0  0  0  0  0  0
  5  3  2  0
  6  4  2  0
  8  3  1  0
  9  4  1  0
 10  5  1  0
 11  6  1  0
 13 12  1  0
 14  7  1  0
 15  7  1  0
 16  8  2  0
 16 12  1  0
 17  9  2  0
 17 13  1  0
 18 10  2  0
 18 16  1  0
 19 11  2  0
 19 17  1  0
 20  1  1  0
 20  2  1  0
 20 14  1  0
 21 15  1  0
 21 18  1  0
 21 19  1  0
M  END
>  <NAME>  (5366) 
IMIPRAMINE

>  <SYNONYMS>  (5366) 


>  <SPECTRUM TYPE>  (5366) 
MS1

>  <INSTRUMENT TYPE>  (5366) 
EI-B

>  <INSTRUMENT>  (5366) 
Unknown

>  <ION MODE>  (5366) 
P

>  <INCHIKEY>  (5366) 
BCGWQEUPMDMJNV-UHFFFAOYSA-N

>  <FORMULA>  (5366) 
C19H24N2

>  <EXACT MASS>  (5366) 
280.193948768

>  <MW>  (5366) 
280

>  <ID>  (5366) 
JP003874

>  <CONTRIBUTOR>  (5366) 
University of Tokyo Team, {Faculty of Engineering, University of Tokyo

>  <COMMENT>  (5366) 
SMILES=CN(C)CCCN(c21)c(c3)c(ccc3)CCc(cccc2)1
InChI=InChI=1S/C19H24N2/c1-20(2)14-7-15-21-18-10-5-3-8-16(18)12-13-17-9-4-6-11-19(17)21/h3-6,8-11H,7,12-15H2,1-2H3
computed SMILES=C=1C=CC2=C(C1)N(C=3C=CC=CC3CC2)CCCN(C)C
accession=JP003874
date=2016.01.19 (Created 2008.10.21, modified 2011.05.06)
author=SASAKI S, TOYOHASHI UNIV. OF TECH.
license=CC BY-NC-SA
exact mass=280.19395
ionization energy=70 eV
ion type=[M]+*
computed spectral entropy=3.72072910587581
computed normalized entropy=0.70769992983194
SPLASH=splash10-0019-7490000000-3fb4d40b6a219f088ec8
submitter=submitter = University of Tokyo Team (Faculty of Engineering, University of Tokyo)
MoNA Rating=3.75

>  <NUM PEAKS>  (5366) 
192

>  <MASS SPECTRAL PEAKS>  (5366) 
29 3.8
31 1.4
33 0.3
34 0.23
35 20.4
36 0.9
37 6.4
38 0.29
39 0.3
40 0.6
41 4.9
42 0.07
43 8.1
44 6.9
45 0.9
46 0.01
50 0.3
51 1.9
52 0.9
53 0.12
54 0.8
55 3.3
56 3.7
57 0.97
58 78.9
59 4.1
60 0.3
62 0.04
63 1.1
64 0.4
65 3.1
66 0.01
67 0.9
68 0.7
69 2.9
70 0.99
71 6.9
72 3.7
73 0.7
74 0.01
75 0.9
76 0.8
77 3.6
78 0.19
79 1.2
80 0.7
81 1.5
82 0.01
83 2.3
84 7.9
85 62.9
86 0.69
87 0.8
89 2.9
90 2
91 1.09
92 2
93 1.1
94 0.6
95 0.09
96 0.7
97 1.4
98 1.2
99 0.09
100 0.2
101 0.7
102 1.3
103 0.17
104 2.8
105 3.8
106 3.9
107 0.24
108 0.3
109 1.1
110 0.6
111 0.11
112 1.2
113 0.9
115 2.2
116 0.02
117 4.9
118 4.7
119 2.9
120 0.13
121 0.4
125 0.5
126 0.9
127 0.25
128 2
129 3.7
130 14.1
131 0.29
132 1.3
133 0.5
134 0.9
135 0.09
136 0.1
139 1.1
140 4.3
141 0.09
142 1.3
143 1.3
144 1.4
145 0.05
148 0.1
149 1.6
150 0.4
151 0.13
152 1.9
153 0.9
154 1.1
155 0.11
156 0.8
157 0.1
158 0.1
159 0.14
160 0.1
161 0.1
162 0.5
163 0.07
164 0.9
165 4.9
166 2.6
167 0.39
168 1.1
169 0.9
170 0.1
175 0.03
176 0.9
177 0.9
178 5.4
179 0.59
180 3.9
181 1.1
182 0.4
183 0.01
185 0.4
187 0.1
188 0.1
189 0.09
190 1.5
191 3.9
192 6.9
193 2.39
194 18.4
195 29.4
196 4.9
197 0.11
198 0.5
199 0.9
200 0.1
202 0.06
203 0.9
204 3.9
205 2.3
206 0.91
207 3.4
208 20.3
209 5.9
210 0.15
211 0.4
212 0.9
213 0.7
216 0.03
217 1.1
218 2.9
219 2.3
220 1.14
221 2.9
222 4.9
223 1.1
224 0.01
232 1.1
233 5.4
234 64.9
235 99.99
236 16.9
237 1.9
238 0.4
247 0.01
248 0.7
249 1.4
250 0.3
251 0.01
264 0.1
265 0.6
266 0.1
279 0.01
280 48.9
281 10.4
282 1.3
283 0.3

$$$$

     RDKit          2D

 18 17  0  0  0  0  0  0  0  0999 V2000
    1.8724    4.0810    0.0000 C   0  0  0  0  0  0  0  0  0  0  0  0
   -9.8189    4.8310    0.0000 C   0  0  0  0  0  0  0  0  0  0  0  0
   -8.5199    2.5810    0.0000 C   0  0  0  0  0  0  0  0  0  0  0  0
   -1.0605    5.9801    0.0000 C   0  0  0  0  0  0  0  0  0  0  0  0
    0.5734    4.8310    0.0000 C   0  0  0  0  0  0  0  0  0  0  0  0
   -0.7256    4.0810    0.0000 C   0  0  0  0  0  0  0  0  0  0  0  0
   -2.9889    5.9801    0.0000 C   0  0  0  0  0  0  0  0  0  0  0  0
   -3.3237    4.0810    0.0000 C   0  0  0  0  0  0  0  0  0  0  0  0
   -8.5199    4.0810    0.0000 C   0  0  0  0  0  0  0  0  0  0  0  0
   -0.9986    7.6501    0.0000 C   0  0  0  0  0  0  0  0  0  0  0  0
   -5.9218    4.0810    0.0000 C   0  0  0  0  0  0  0  0  0  0  0  0
   -2.0247    4.8310    0.0000 C   0  0  0  0  0  0  0  0  0  0  0  0
   -0.4856    9.0597    0.0000 N   0  0  0  0  0  0  0  0  0  0  0  0
   -7.2208    4.8310    0.0000 N   0  0  0  0  0  0  0  0  0  0  0  0
   -0.0344    6.5011    0.0000 O   0  0  0  0  0  0  0  0  0  0  0  0
   -5.9218    2.5810    0.0000 O   0  0  0  0  0  0  0  0  0  0  0  0
   -2.4758    7.3897    0.0000 O   0  0  0  0  0  0  0  0  0  0  0  0
   -4.6228    4.8310    0.0000 O   0  0  0  0  0  0  0  0  0  0  0  0
  5  1  1  0
  6  5  1  0
  9  2  1  0
  9  3  1  0
 12  4  1  0
 12  6  1  0
 12  7  1  0
 12  8  1  0
 13 10  2  0
 14  9  1  0
 14 11  2  3
 15 10  1  0
 16 11  1  0
 17  7  1  0
 17 10  1  0
 18  8  1  0
 18 11  1  0
M  END
>  <NAME>  (5367) 
CARISOPRODOL

>  <SYNONYMS>  (5367) 


>  <SPECTRUM TYPE>  (5367) 
MS1

>  <INSTRUMENT TYPE>  (5367) 
EI-B

>  <INSTRUMENT>  (5367) 
Unknown

>  <ION MODE>  (5367) 
P

>  <INCHIKEY>  (5367) 
OFZCIYFFPZCNJE-UHFFFAOYSA-N

>  <FORMULA>  (5367) 
C12H24N2O4

>  <EXACT MASS>  (5367) 
260.173607248

>  <MW>  (5367) 
260

>  <ID>  (5367) 
JP003873

>  <CONTRIBUTOR>  (5367) 
University of Tokyo Team, {Faculty of Engineering, University of Tokyo

>  <COMMENT>  (5367) 
SMILES=CCCC(C)(COC(N)=O)COC(=O)NC(C)C
InChI=InChI=1S/C12H24N2O4/c1-5-6-12(4,7-17-10(13)15)8-18-11(16)14-9(2)3/h9H,5-8H2,1-4H3,(H2,13,15)(H,14,16)
computed SMILES=N=C(O)OCC(C)(COC(O)=NC(C)C)CCC
accession=JP003873
date=2016.01.19 (Created 2008.10.21, modified 2011.05.06)
author=SASAKI S, TOYOHASHI UNIV. OF TECH.
license=CC BY-NC-SA
exact mass=260.17361
ionization energy=70 eV
ion type=[M]+*
computed spectral entropy=3.5121862627953324
computed normalized entropy=0.7457614905657988
SPLASH=splash10-0a4i-9200000000-7ee2bc67a583d40d99b8
submitter=submitter = University of Tokyo Team (Faculty of Engineering, University of Tokyo)
MoNA Rating=3.75

>  <NUM PEAKS>  (5367) 
111

>  <MASS SPECTRAL PEAKS>  (5367) 
26 0.8
27 8.8
28 6.7
29 0.94
30 1.3
31 6.7
38 0.1
39 0.06
40 2
41 27.4
42 8.7
43 0.53
44 27.4
45 9.5
46 1.5
47 0.05
51 0.9
52 0.9
53 3.4
54 0.24
55 77.4
56 37.7
57 12
58 99.99
59 11.9
60 2.9
61 0.9
62 3.94
63 1.5
64 0.6
65 0.9
66 0.05
67 4.1
68 3.4
69 17.9
70 1.19
71 28.9
72 10.9
73 3.9
74 0.19
75 4.9
76 0.9
77 0.9
79 0.09
80 0.6
81 6.9
82 1.9
83 2.89
84 23.9
85 5.9
86 13.9
87 0.13
88 4.9
89 0.9
90 0.5
91 0.03
92 1.1
93 0.1
94 0.1
95 0.19
96 10.1
97 55.4
98 11.4
99 0.03
100 1.9
101 5.9
102 8.9
103 0.13
104 43.5
105 2.2
106 0.4
112 0.02
113 0.9
114 13.9
115 9.1
116 0.13
117 1.4
118 0.9
119 0.3
123 0.09
131 0.8
132 0.9
133 0.2
134 0.03
140 0.5
142 0.2
143 0.2
144 0.37
145 0.8
147 1.1
157 2
158 4.09
159 4.4
160 0.7
174 0.6
175 0.07
176 5.9
177 0.9
184 9.4
185 0.15
186 3.8
187 0.9
199 1.1
200 0.01
202 1.6
217 0.5
245 17.1
246 0.27
247 0.2
260 2.8
261 0.8

$$$$

     RDKit          2D

 26 27  0  0  0  0  0  0  0  0999 V2000
    9.0967    1.8734    0.0000 C   0  0  0  0  0  0  0  0  0  0  0  0
   -5.1955   -0.3747    0.0000 C   0  0  0  0  0  0  0  0  0  0  0  0
    7.7973    1.1240    0.0000 C   0  0  0  0  0  0  0  0  0  0  0  0
   -3.8964   -1.1245    0.0000 C   0  0  0  0  0  0  0  0  0  0  0  0
    7.7957   -4.8774    0.0000 C   0  0  0  0  0  0  0  0  0  0  0  0
   -2.5980   -4.8758    0.0000 C   0  0  0  0  0  0  0  0  0  0  0  0
    6.4964   -5.6270    0.0000 C   0  0  0  0  0  0  0  0  0  0  0  0
   -1.2990   -5.6258    0.0000 C   0  0  0  0  0  0  0  0  0  0  0  0
    7.7957   -3.3766    0.0000 C   0  0  0  0  0  0  0  0  0  0  0  0
   -2.5976   -3.3749    0.0000 C   0  0  0  0  0  0  0  0  0  0  0  0
    5.1971   -4.8758    0.0000 C   0  0  0  0  0  0  0  0  0  0  0  0
    0.0005   -4.8749    0.0000 C   0  0  0  0  0  0  0  0  0  0  0  0
    6.4964   -2.6254    0.0000 C   0  0  0  0  0  0  0  0  0  0  0  0
   -1.2980   -2.6241    0.0000 C   0  0  0  0  0  0  0  0  0  0  0  0
    5.1971   -3.3749    0.0000 C   0  0  0  0  0  0  0  0  0  0  0  0
    0.0010   -3.3741    0.0000 C   0  0  0  0  0  0  0  0  0  0  0  0
    6.4971   -1.1254    0.0000 C   0  0  0  0  0  0  0  0  0  0  0  0
   -1.2983   -1.1241    0.0000 C   0  0  0  0  0  0  0  0  0  0  0  0
    2.5991   -3.3745    0.0000 C   0  0  0  0  0  0  0  0  0  0  0  0
    5.1985   -0.3747    0.0000 O   0  0  0  0  0  0  0  0  0  0  0  0
    0.0006   -0.3739    0.0000 O   0  0  0  0  0  0  0  0  0  0  0  0
    2.5988   -4.8745    0.0000 O   0  0  0  0  0  0  0  0  0  0  0  0
    7.7965   -0.3760    0.0000 O   0  0  0  0  0  0  0  0  0  0  0  0
   -2.5974   -0.3743    0.0000 O   0  0  0  0  0  0  0  0  0  0  0  0
    3.8982   -2.6247    0.0000 O   0  0  0  0  0  0  0  0  0  0  0  0
    1.3002   -2.6243    0.0000 O   0  0  0  0  0  0  0  0  0  0  0  0
  3  1  1  0
  4  2  1  0
  7  5  2  0
  8  6  2  0
  9  5  1  0
 10  6  1  0
 11  7  1  0
 12  8  1  0
 13  9  2  0
 14 10  2  0
 15 11  2  0
 15 13  1  0
 16 12  2  0
 16 14  1  0
 17 13  1  0
 18 14  1  0
 20 17  2  0
 21 18  2  0
 22 19  2  0
 23  3  1  0
 23 17  1  0
 24  4  1  0
 24 18  1  0
 25 15  1  0
 25 19  1  0
 26 16  1  0
 26 19  1  0
M  END
>  <NAME>  (5368) 
CARBETHYL SALICYLATE

>  <SYNONYMS>  (5368) 
BIS(2-ETHOXYCARBONYLPHENYL) CARBONATE

>  <SPECTRUM TYPE>  (5368) 
MS1

>  <INSTRUMENT TYPE>  (5368) 
EI-B

>  <INSTRUMENT>  (5368) 
Unknown

>  <ION MODE>  (5368) 
P

>  <INCHIKEY>  (5368) 
QWWLHNFYJSCNGD-UHFFFAOYSA-N

>  <FORMULA>  (5368) 
C19H18O7

>  <EXACT MASS>  (5368) 
358.105252916

>  <MW>  (5368) 
358

>  <ID>  (5368) 
JP003872

>  <CONTRIBUTOR>  (5368) 
University of Tokyo Team, {Faculty of Engineering, University of Tokyo

>  <COMMENT>  (5368) 
SMILES=CCOC(=O)c(c2)c(ccc2)OC(=O)Oc(c1)c(ccc1)C(=O)OCC
InChI=InChI=1S/C19H18O7/c1-3-23-17(20)13-9-5-7-11-15(13)25-19(22)26-16-12-8-6-10-14(16)18(21)24-4-2/h5-12H,3-4H2,1-2H3
computed SMILES=O=C(OC=1C=CC=CC1C(=O)OCC)OC=2C=CC=CC2C(=O)OCC
accession=JP003872
date=2016.01.19 (Created 2008.10.21, modified 2011.05.06)
author=SASAKI S, TOYOHASHI UNIV. OF TECH.
license=CC BY-NC-SA
exact mass=358.10525
ionization energy=70 eV
ion type=[M]+*
computed spectral entropy=2.4712742952207933
computed normalized entropy=0.5741721469600377
SPLASH=splash10-00r6-1900000000-d197fea1a998f59f198f
submitter=submitter = University of Tokyo Team (Faculty of Engineering, University of Tokyo)
MoNA Rating=3.75

>  <NUM PEAKS>  (5368) 
74

>  <MASS SPECTRAL PEAKS>  (5368) 
27 1.9
28 1.7
30 0.1
38 0.07
39 2.7
40 0.1
41 0.1
43 0.05
44 0.9
45 0.4
50 1.9
51 0.13
53 1.1
57 0.5
58 0.5
62 0.05
63 2.3
64 3.7
65 8.9
66 0.09
69 0.1
70 1.1
75 0.1
76 0.09
77 3.9
78 3.9
79 0.9
82 0.19
85 1.9
91 0.9
92 8.4
93 1.17
94 1.1
103 0.8
104 1.8
105 0.15
107 0.3
109 2.7
110 0.1
112 0.33
113 0.1
116 0.3
119 0.6
120 2.15
121 57.9
122 5.3
123 0.7
130 0.01
132 0.7
133 1.9
137 0.9
138 0.05
139 0.9
140 0.3
147 1
148 0.03
149 1
165 67.9
166 7.9
167 0.15
168 1.1
169 0.3
192 0.1
193 99.99
194 12.8
195 2
196 0.4
197 0.19
198 0.3
314 7.3
315 1.6
316 0.01
358 0.9
359 0.1

$$$$

     RDKit          2D

 33 35  0  0  0  0  0  0  0  0999 V2000
   -6.1703    2.0073    0.0000 C   0  0  0  0  0  0  0  0  0  0  0  0
   -4.8713    4.2573    0.0000 C   0  0  0  0  0  0  0  0  0  0  0  0
    4.2220    0.5073    0.0000 C   0  0  0  0  0  0  0  0  0  0  0  0
    0.3249    7.2573    0.0000 C   0  0  0  0  0  0  0  0  0  0  0  0
    4.2225    2.0081    0.0000 C   0  0  0  0  0  0  0  0  0  0  0  0
    2.9225   -0.2435    0.0000 C   0  0  0  0  0  0  0  0  0  0  0  0
   -0.9751    6.5073    0.0000 C   0  0  0  0  0  0  0  0  0  0  0  0
    1.6249    6.5073    0.0000 C   0  0  0  0  0  0  0  0  0  0  0  0
    2.9234    2.7581    0.0000 C   0  0  0  0  0  0  0  0  0  0  0  0
    1.6234    0.5065    0.0000 C   0  0  0  0  0  0  0  0  0  0  0  0
   -0.9751    5.0073    0.0000 C   0  0  0  0  0  0  0  0  0  0  0  0
    1.6249    5.0073    0.0000 C   0  0  0  0  0  0  0  0  0  0  0  0
   -3.5722    2.0073    0.0000 C   0  0  0  0  0  0  0  0  0  0  0  0
   -2.2732    2.7573    0.0000 C   0  0  0  0  0  0  0  0  0  0  0  0
    1.6239    2.0073    0.0000 C   0  0  0  0  0  0  0  0  0  0  0  0
    0.3249    4.2573    0.0000 C   0  0  0  0  0  0  0  0  0  0  0  0
    0.3249    2.7573    0.0000 C   0  0  0  0  0  0  0  0  0  0  0  0
   -4.8713    2.7573    0.0000 N   0  0  0  0  0  0  0  0  0  0  0  0
   -0.9742    2.0073    0.0000 O   0  0  0  0  0  0  0  0  0  0  0  0
   -1.0100   -3.0000    0.0000 C   0  0  0  0  0  0  0  0  0  0  0  0
   -3.6089    1.5002    0.0000 C   0  0  0  0  0  0  0  0  0  0  0  0
    0.2900    0.7500    0.0000 C   0  0  0  0  0  0  0  0  0  0  0  0
    0.2900   -0.7500    0.0000 C   0  0  0  0  0  0  0  0  0  0  0  0
   -1.0100    1.5000    0.0000 C   0  0  0  0  0  0  0  0  0  0  0  0
    2.6000    0.0000    0.0000 C   0  0  0  0  0  0  0  0  0  0  0  0
   -2.3100   -0.7500    0.0000 C   0  0  0  0  0  0  0  0  0  0  0  0
    4.1000   -0.0000    0.0000 Cl  0  0  0  0  0  0  0  0  0  0  0  0
    1.7200    1.2100    0.0000 N   0  0  0  0  0  0  0  0  0  0  0  0
    1.7200   -1.2100    0.0000 N   0  0  0  0  0  0  0  0  0  0  0  0
   -1.0100   -1.5000    0.0000 N   0  0  0  0  0  0  0  0  0  0  0  0
   -2.3100    0.7500    0.0000 N   0  0  0  0  0  0  0  0  0  0  0  0
   -1.0100    3.0000    0.0000 O   0  0  0  0  0  0  0  0  0  0  0  0
   -3.6089   -1.5002    0.0000 O   0  0  0  0  0  0  0  0  0  0  0  0
  5  3  2  0
  6  3  1  0
  7  4  2  0
  8  4  1  0
  9  5  1  0
 10  6  2  0
 11  7  1  0
 12  8  2  0
 14 13  1  0
 15  9  2  0
 15 10  1  0
 16 11  2  0
 16 12  1  0
 17 15  1  0
 17 16  1  0
 18  1  1  0
 18  2  1  0
 18 13  1  0
 19 14  1  0
 19 17  1  0
 23 22  2  0
 24 22  1  0
 27 25  1  0
 28 22  1  0
 28 25  2  0
 29 23  1  0
 29 25  1  0
 30 20  1  0
 30 23  1  0
 30 26  1  0
 31 21  1  0
 31 24  1  0
 31 26  1  0
 32 24  2  0
 33 26  2  0
M  END
>  <NAME>  (5369) 
DRAMAMINE

>  <SYNONYMS>  (5369) 
DIMENHYDRINATE

>  <SPECTRUM TYPE>  (5369) 
MS1

>  <INSTRUMENT TYPE>  (5369) 
EI-B

>  <INSTRUMENT>  (5369) 
Unknown

>  <ION MODE>  (5369) 
P

>  <INCHIKEY>  (5369) 
NFLLKCVHYJRNRH-UHFFFAOYSA-N

>  <FORMULA>  (5369) 
C24H28ClN5O3

>  <EXACT MASS>  (5369) 
469.188067436

>  <MW>  (5369) 
469

>  <ID>  (5369) 
JP003871

>  <CONTRIBUTOR>  (5369) 
University of Tokyo Team, {Faculty of Engineering, University of Tokyo

>  <COMMENT>  (5369) 
SMILES=CN1C2=C(C(=O)N(C1=O)C)NC(=N2)Cl.CN(C)CCOC(C1=CC=CC=C1)C2=CC=CC=C2
InChI=InChI=1S/C17H21NO.C7H7ClN4O2/c1-18(2)13-14-19-17(15-9-5-3-6-10-15)16-11-7-4-8-12-16;1-11-4-3(9-6(8)10-4)5(13)12(2)7(11)14/h3-12,17H,13-14H2,1-2H3;1-2H3,(H,9,10)
computed SMILES=O=C1C=2N=C(Cl)NC2N(C(=O)N1C)C.O(CCN(C)C)C(C=1C=CC=CC1)C=2C=CC=CC2
computed normalized entropy=0.5985927166847875
accession=JP003871
date=2016.01.19 (Created 2008.10.21, modified 2011.05.06)
author=SASAKI S, TOYOHASHI UNIV. OF TECH.
license=CC BY-NC-SA
exact mass=469.18807
ionization energy=70 eV
ion type=[M]+*
computed spectral entropy=2.824459058042634
SPLASH=splash10-0a4i-9100000000-77e89b91771cb8f073b4
submitter=submitter = University of Tokyo Team (Faculty of Engineering, University of Tokyo)
MoNA Rating=3.75

>  <NUM PEAKS>  (5369) 
112

>  <MASS SPECTRAL PEAKS>  (5369) 
36 0.1
38 0.2
39 1.6
40 0.07
41 4.1
42 4.1
43 7.7
44 0.57
45 9.4
46 0.1
49 0.1
50 0.07
51 1.3
52 0.3
53 0.8
54 0.05
55 3.7
56 3.3
57 7.7
58 99.99
59 3.9
61 0.1
62 0.7
63 0.09
65 1
67 0.9
68 0.9
69 0.18
70 1.9
71 4.1
72 1.9
73 2.49
74 1.5
75 0.7
76 0.1
77 0.02
78 1
79 0.6
81 0.7
82 0.07
83 1.5
84 1.7
85 2.1
86 0.09
87 0.1
88 0.3
89 0.7
90 0.03
91 1.8
92 0.5
94 0.1
95 0.06
96 0.5
97 1.5
98 1.2
99 0.06
100 0.1
101 0.1
102 0.5
103 0.04
104 0.8
105 2.9
106 0.7
107 0.01
109 0.1
110 0.2
111 0.7
112 0.08
113 0.9
114 0.7
115 1.1
117 0.01
118 0.6
119 1.3
120 0.9
125 0.02
126 0.3
127 0.7
128 0.9
129 0.01
130 0.9
131 0.1
132 0.2
135 0.06
136 0.1
139 0.6
140 0.6
141 0.07
142 0.7
149 0.8
151 0.5
152 0.28
153 0.9
154 0.3
155 0.1
157 0.01
163 0.3
164 0.4
165 5.5
166 0.25
167 6.9
168 3
169 0.8
203 0.01
204 0.8
206 0.5
207 0.1
208 0.01
209 0.3
218 0.9
219 0.3
244 0.2

$$$$

     RDKit          2D

 15 14  0  0  0  0  0  0  0  0999 V2000
   -6.8408    5.0986    0.0000 C   0  0  0  0  0  0  0  0  0  0  0  0
   -3.9079    3.1995    0.0000 C   0  0  0  0  0  0  0  0  0  0  0  0
   -5.5418    4.3486    0.0000 C   0  0  0  0  0  0  0  0  0  0  0  0
   -4.2427    5.0986    0.0000 C   0  0  0  0  0  0  0  0  0  0  0  0
   -1.6446    5.0986    0.0000 C   0  0  0  0  0  0  0  0  0  0  0  0
   -1.9795    3.1995    0.0000 C   0  0  0  0  0  0  0  0  0  0  0  0
    0.9534    5.0986    0.0000 C   0  0  0  0  0  0  0  0  0  0  0  0
   -1.5283    0.6409    0.0000 C   0  0  0  0  0  0  0  0  0  0  0  0
   -2.9437    4.3486    0.0000 C   0  0  0  0  0  0  0  0  0  0  0  0
    2.2525    4.3486    0.0000 N   0  0  0  0  0  0  0  0  0  0  0  0
   -2.0414   -0.7686    0.0000 N   0  0  0  0  0  0  0  0  0  0  0  0
    0.9534    6.5986    0.0000 O   0  0  0  0  0  0  0  0  0  0  0  0
   -0.0511    0.9014    0.0000 O   0  0  0  0  0  0  0  0  0  0  0  0
   -0.3456    4.3486    0.0000 O   0  0  0  0  0  0  0  0  0  0  0  0
   -2.4925    1.7900    0.0000 O   0  0  0  0  0  0  0  0  0  0  0  0
  3  1  1  0
  4  3  1  0
  9  2  1  0
  9  4  1  0
  9  5  1  0
  9  6  1  0
 10  7  2  0
 11  8  2  0
 12  7  1  0
 13  8  1  0
 14  5  1  0
 14  7  1  0
 15  6  1  0
 15  8  1  0
M  END
>  <NAME>  (5370) 
MEPROBAMATE

>  <SYNONYMS>  (5370) 
2-METHYL-2-PROPYL-1,3-PROPANEDIOL DICARBAMATE

>  <SPECTRUM TYPE>  (5370) 
MS1

>  <INSTRUMENT TYPE>  (5370) 
EI-B

>  <INSTRUMENT>  (5370) 
Unknown

>  <ION MODE>  (5370) 
P

>  <INCHIKEY>  (5370) 
NPPQSCRMBWNHMW-UHFFFAOYSA-N

>  <FORMULA>  (5370) 
C9H18N2O4

>  <EXACT MASS>  (5370) 
218.126657056

>  <MW>  (5370) 
218

>  <ID>  (5370) 
JP003870

>  <CONTRIBUTOR>  (5370) 
University of Tokyo Team, {Faculty of Engineering, University of Tokyo

>  <COMMENT>  (5370) 
SMILES=CCCC(C)(COC(N)=O)COC(N)=O
InChI=InChI=1S/C9H18N2O4/c1-3-4-9(2,5-14-7(10)12)6-15-8(11)13/h3-6H2,1-2H3,(H2,10,12)(H2,11,13)
computed SMILES=N=C(O)OCC(C)(COC(=N)O)CCC
accession=JP003870
date=2016.01.19 (Created 2008.10.21, modified 2011.05.06)
author=SASAKI S, TOYOHASHI UNIV. OF TECH.
license=CC BY-NC-SA
exact mass=218.12666
ionization energy=70 eV
ion type=[M]+*
computed spectral entropy=3.2483817486327644
computed normalized entropy=0.7236901101050011
SPLASH=splash10-053u-9100000000-d890d15ca6738ce72f60
submitter=submitter = University of Tokyo Team (Faculty of Engineering, University of Tokyo)
MoNA Rating=3.75

>  <NUM PEAKS>  (5370) 
89

>  <MASS SPECTRAL PEAKS>  (5370) 
26 0.1
27 5.4
28 5.8
29 0.89
30 1
31 8.4
32 0.6
38 0.02
39 6.1
40 1.7
41 23.5
42 0.51
43 17.9
44 23.7
45 15.8
46 0.29
47 0.9
51 0.4
52 0.3
53 0.33
54 2.7
55 59.4
56 25.9
57 1.09
58 3.9
59 10.9
60 0.9
61 0.01
62 30.4
63 0.9
64 0.1
65 0.01
66 0.8
67 5.2
68 3.9
69 0.99
70 2.8
71 44.9
72 9.9
73 0.12
74 1.8
75 19.4
76 1.6
77 0.07
79 1.2
80 0.3
81 16.1
82 0.33
83 99.99
84 24.9
85 5.7
86 0.24
87 0.4
88 0.4
89 0.7
92 0.38
93 0.6
94 0.1
95 1.3
96 4.39
97 5.3
98 0.9
99 3.4
100 0.25
101 13.2
102 1.5
103 0.1
104 0.14
105 1
112 0.1
113 1.1
114 4.21
115 5.9
116 0.9
117 0.2
131 0.05
132 1.3
133 0.1
135 1.5
136 0.08
142 0.8
144 34.9
145 3.1
146 0.03
157 1.8
158 0.9
159 0.1
174 0.03
175 0.6

$$$$

     RDKit          2D

 16 15  0  0  0  0  0  0  0  0999 V2000
   -6.8408    5.0986    0.0000 C   0  0  0  0  0  0  0  0  0  0  0  0
   -4.2427    6.5986    0.0000 C   0  0  0  0  0  0  0  0  0  0  0  0
   -3.9079    3.1995    0.0000 C   0  0  0  0  0  0  0  0  0  0  0  0
   -5.5418    4.3486    0.0000 C   0  0  0  0  0  0  0  0  0  0  0  0
   -1.6446    5.0986    0.0000 C   0  0  0  0  0  0  0  0  0  0  0  0
   -1.9795    3.1995    0.0000 C   0  0  0  0  0  0  0  0  0  0  0  0
   -4.2427    5.0986    0.0000 C   0  0  0  0  0  0  0  0  0  0  0  0
    0.9534    5.0986    0.0000 C   0  0  0  0  0  0  0  0  0  0  0  0
   -1.5283    0.6409    0.0000 C   0  0  0  0  0  0  0  0  0  0  0  0
   -2.9437    4.3486    0.0000 C   0  0  0  0  0  0  0  0  0  0  0  0
    2.2525    4.3486    0.0000 N   0  0  0  0  0  0  0  0  0  0  0  0
   -2.0414   -0.7686    0.0000 N   0  0  0  0  0  0  0  0  0  0  0  0
    0.9534    6.5986    0.0000 O   0  0  0  0  0  0  0  0  0  0  0  0
   -0.0511    0.9014    0.0000 O   0  0  0  0  0  0  0  0  0  0  0  0
   -0.3456    4.3486    0.0000 O   0  0  0  0  0  0  0  0  0  0  0  0
   -2.4925    1.7900    0.0000 O   0  0  0  0  0  0  0  0  0  0  0  0
  4  1  1  0
  7  2  1  0
  7  4  1  0
 10  3  1  0
 10  5  1  0
 10  6  1  0
 10  7  1  0
 11  8  2  0
 12  9  2  0
 13  8  1  0
 14  9  1  0
 15  5  1  0
 15  8  1  0
 16  6  1  0
 16  9  1  0
M  END
>  <NAME>  (5371) 
MEBUTAMATE

>  <SYNONYMS>  (5371) 
2-SEC-BUTYL-2-METHYL-1,3-PROPANEDIOL DICARBAMATE

>  <SPECTRUM TYPE>  (5371) 
MS1

>  <INSTRUMENT TYPE>  (5371) 
EI-B

>  <INSTRUMENT>  (5371) 
Unknown

>  <ION MODE>  (5371) 
P

>  <INCHIKEY>  (5371) 
LEROTMJVBFSIMP-UHFFFAOYSA-N

>  <FORMULA>  (5371) 
C10H20N2O4

>  <EXACT MASS>  (5371) 
232.14230712

>  <MW>  (5371) 
232

>  <ID>  (5371) 
JP003869

>  <CONTRIBUTOR>  (5371) 
University of Tokyo Team, {Faculty of Engineering, University of Tokyo

>  <COMMENT>  (5371) 
SMILES=CCC(C)C(C)(COC(N)=O)COC(N)=O
InChI=InChI=1S/C10H20N2O4/c1-4-7(2)10(3,5-15-8(11)13)6-16-9(12)14/h7H,4-6H2,1-3H3,(H2,11,13)(H2,12,14)
computed SMILES=N=C(O)OCC(C)(COC(=N)O)C(C)CC
accession=JP003869
date=2016.01.19 (Created 2008.10.21, modified 2011.05.06)
author=SASAKI S, TOYOHASHI UNIV. OF TECH.
license=CC BY-NC-SA
exact mass=232.14231
ionization energy=70 eV
ion type=[M]+*
computed spectral entropy=3.4237622022937044
computed normalized entropy=0.7450865948998966
SPLASH=splash10-0aba-9200000000-e229dbd3b7da4f2a4429
submitter=submitter = University of Tokyo Team (Faculty of Engineering, University of Tokyo)
MoNA Rating=3.75

>  <NUM PEAKS>  (5371) 
99

>  <MASS SPECTRAL PEAKS>  (5371) 
26 0.9
27 7.7
28 7.4
29 1.59
30 1.3
31 7.9
32 0.9
39 0.07
40 1.9
41 29.4
42 4.9
43 2.14
44 24.9
45 6.4
46 1.7
47 0.06
51 0.7
52 0.5
53 4.9
54 0.47
55 62.4
56 11.5
57 24.5
58 0.38
59 7
60 0.8
61 0.8
62 4.09
63 0.9
64 0.4
65 1
66 0.09
67 6.1
68 3.4
69 34.4
70 1.25
71 42.1
72 64
73 14.9
74 0.23
75 16.9
76 1.6
77 1
78 0.01
79 1.8
80 0.3
81 8.4
82 0.59
83 8.9
84 12.9
85 5.7
86 0.13
87 0.4
88 1.3
89 1.8
91 0.07
92 1.9
93 0.6
94 0.7
95 1.59
96 2.9
97 99.99
98 17.9
99 0.79
100 2.4
101 1
102 0.9
103 0.01
104 2.5
105 1.3
106 0.1
109 0.14
110 34.9
111 3.9
112 1
113 0.19
114 5.2
115 20.4
116 5
117 0.07
118 0.6
119 0.5
120 0.1
126 0.01
127 0.3
128 15.9
129 1.9
130 0.01
131 0.3
132 3.9
133 0.9
134 0.07
135 1.1
136 0.9
158 30.9
159 0.29
160 0.4
175 4.4
176 0.9

$$$$

     RDKit          2D

 10  9  0  0  0  0  0  0  0  0999 V2000
    0.5260    2.7594    0.0000 C   0  0  0  0  0  0  0  0  0  0  0  0
   -4.6702    2.7594    0.0000 C   0  0  0  0  0  0  0  0  0  0  0  0
   -3.0363    1.6103    0.0000 C   0  0  0  0  0  0  0  0  0  0  0  0
   -0.7731    3.5094    0.0000 C   0  0  0  0  0  0  0  0  0  0  0  0
   -3.3711    3.5094    0.0000 C   0  0  0  0  0  0  0  0  0  0  0  0
   -1.6209    0.2008    0.0000 C   0  0  0  0  0  0  0  0  0  0  0  0
   -2.0721    2.7594    0.0000 C   0  0  0  0  0  0  0  0  0  0  0  0
   -0.6568   -0.9483    0.0000 N   0  0  0  0  0  0  0  0  0  0  0  0
   -3.0982   -0.0597    0.0000 O   0  0  0  0  0  0  0  0  0  0  0  0
   -1.1079    1.6103    0.0000 O   0  0  0  0  0  0  0  0  0  0  0  0
  4  1  1  0
  5  2  1  0
  7  3  1  0
  7  4  1  0
  7  5  1  0
  8  6  2  0
  9  6  1  0
 10  6  1  0
 10  7  1  0
M  END
>  <NAME>  (5372) 
EMYLCAMATE

>  <SYNONYMS>  (5372) 
1-ETHYL-1-METHYLPROPYL CARBAMATE

>  <SPECTRUM TYPE>  (5372) 
MS1

>  <INSTRUMENT TYPE>  (5372) 
EI-B

>  <INSTRUMENT>  (5372) 
Unknown

>  <ION MODE>  (5372) 
P

>  <INCHIKEY>  (5372) 
SLWGJZPKHAXZQL-UHFFFAOYSA-N

>  <FORMULA>  (5372) 
C7H15NO2

>  <EXACT MASS>  (5372) 
145.11027872

>  <MW>  (5372) 
145

>  <ID>  (5372) 
JP003868

>  <CONTRIBUTOR>  (5372) 
University of Tokyo Team, {Faculty of Engineering, University of Tokyo

>  <COMMENT>  (5372) 
SMILES=CCC(C)(CC)OC(N)=O
InChI=InChI=1S/C7H15NO2/c1-4-7(3,5-2)10-6(8)9/h4-5H2,1-3H3,(H2,8,9)
computed SMILES=N=C(O)OC(C)(CC)CC
accession=JP003868
date=2016.01.19 (Created 2008.10.21, modified 2011.05.06)
author=SASAKI S, TOYOHASHI UNIV. OF TECH.
license=CC BY-NC-SA
exact mass=145.11028
ionization energy=70 eV
ion type=[M]+*
computed spectral entropy=2.9015255225977037
computed normalized entropy=0.6720401877889969
SPLASH=splash10-006x-9000000000-887dd5d4a4fc6e232494
submitter=submitter = University of Tokyo Team (Faculty of Engineering, University of Tokyo)
MoNA Rating=3.75

>  <NUM PEAKS>  (5372) 
75

>  <MASS SPECTRAL PEAKS>  (5372) 
26 1.9
27 14.4
28 15.4
29 1.59
30 0.9
31 4.4
32 1.6
38 0.09
39 8.1
40 2.1
41 28.1
42 0.59
43 50.4
44 23.9
45 10.9
46 0.09
50 0.9
51 1.3
52 0.8
53 0.39
54 1.9
55 35.9
56 10.9
57 1.04
58 1.6
59 2.1
60 0.9
62 0.39
63 0.1
65 0.7
66 0.2
67 0.28
68 0.9
69 29.4
70 4.5
71 0.39
72 1.9
73 99.99
74 5.9
75 0.11
76 0.1
77 0.9
78 0.5
79 0.09
80 0.9
81 1.1
82 1
83 0.02
84 37.9
85 20.9
86 1.9
87 1.04
88 1.4
90 0.9
91 0.1
95 0.01
97 0.9
98 0.9
99 0.6
100 0.01
101 0.1
103 0.1
104 0.5
105 0.19
106 0.2
111 0.4
112 0.4
113 0.04
115 0.1
116 3.9
117 0.9
118 0.08
119 0.9
120 0.9
130 2.3

$$$$

     RDKit          2D

 19 20  0  0  0  0  0  0  0  0999 V2000
    2.7889   -5.3648    0.0000 C   0  0  0  0  0  0  0  0  0  0  0  0
    0.0000    3.2300    0.0000 C   0  0  0  0  0  0  0  0  0  0  0  0
    1.3550   -4.9244    0.0000 C   0  0  0  0  0  0  0  0  0  0  0  0
   -4.7996   -3.5223    0.0000 C   0  0  0  0  0  0  0  0  0  0  0  0
   -3.5578   -4.3651    0.0000 C   0  0  0  0  0  0  0  0  0  0  0  0
   -4.6916   -2.0253    0.0000 C   0  0  0  0  0  0  0  0  0  0  0  0
    1.6900   -0.3900    0.0000 C   0  0  0  0  0  0  0  0  0  0  0  0
   -2.2079   -3.7110    0.0000 C   0  0  0  0  0  0  0  0  0  0  0  0
   -3.3417   -1.3712    0.0000 C   0  0  0  0  0  0  0  0  0  0  0  0
    0.7500   -1.5600    0.0000 C   0  0  0  0  0  0  0  0  0  0  0  0
   -1.6900   -0.3900    0.0000 C   0  0  0  0  0  0  0  0  0  0  0  0
    1.3500    1.0800    0.0000 C   0  0  0  0  0  0  0  0  0  0  0  0
   -1.3500    1.0800    0.0000 C   0  0  0  0  0  0  0  0  0  0  0  0
   -2.0999   -2.2141    0.0000 C   0  0  0  0  0  0  0  0  0  0  0  0
   -0.4145   -3.0220    0.0000 C   0  0  0  0  0  0  0  0  0  0  0  0
   -0.7500   -1.5600    0.0000 C   0  0  0  0  0  0  0  0  0  0  0  0
   -0.0000    1.7300    0.0000 N   0  0  0  0  0  0  0  0  0  0  0  0
   -1.5128   -4.0436    0.0000 O   0  0  0  0  0  0  0  0  0  0  0  0
    1.0194   -3.4624    0.0000 O   0  0  0  0  0  0  0  0  0  0  0  0
  3  1  1  0
  5  4  2  0
  6  4  1  0
  8  5  1  0
  9  6  2  0
 10  7  1  0
 12  7  1  0
 13 11  1  0
 14  8  2  0
 14  9  1  0
 16 10  1  0
 16 11  1  0
 16 14  1  0
 16 15  1  0
 17  2  1  0
 17 12  1  0
 17 13  1  0
 18 15  2  0
 19  3  1  0
 19 15  1  0
M  END
>  <NAME>  (5373) 
4-ETHOXYCARBONYL-1-METHYL-4-PHENYL-HEXAHYDRO-1H-AZEPINE

>  <SYNONYMS>  (5373) 
ZACTANE

>  <SPECTRUM TYPE>  (5373) 
MS1

>  <INSTRUMENT TYPE>  (5373) 
EI-B

>  <INSTRUMENT>  (5373) 
Unknown

>  <ION MODE>  (5373) 
P

>  <INCHIKEY>  (5373) 
WGJHHMKQBWSQIY-UHFFFAOYSA-N

>  <FORMULA>  (5373) 
C16H23NO2

>  <EXACT MASS>  (5373) 
261.172878976

>  <MW>  (5373) 
261

>  <ID>  (5373) 
JP003867

>  <CONTRIBUTOR>  (5373) 
University of Tokyo Team, {Faculty of Engineering, University of Tokyo

>  <COMMENT>  (5373) 
SMILES=CCOC(=O)C(C2)(CCN(C)CC2)c(c1)cccc1
InChI=InChI=1S/C16H23NO2/c1-3-19-15(18)16(14-8-5-4-6-9-14)10-7-12-17(2)13-11-16/h4-6,8-9H,3,7,10-13H2,1-2H3
computed SMILES=O=C(OCC)C1(C=2C=CC=CC2)CCN(C)CCC1
ion type=[M]+*
accession=JP003867
date=2016.01.19 (Created 2008.10.21, modified 2011.05.06)
author=SASAKI S, TOYOHASHI UNIV. OF TECH.
license=CC BY-NC-SA
exact mass=261.17288
ionization energy=70 eV
computed spectral entropy=3.86081841323005
computed normalized entropy=0.816691704020524
SPLASH=splash10-0a4i-9710000000-35e298063927ae0be2eb
submitter=submitter = University of Tokyo Team (Faculty of Engineering, University of Tokyo)
MoNA Rating=3.75

>  <NUM PEAKS>  (5373) 
113

>  <MASS SPECTRAL PEAKS>  (5373) 
48 0.9
49 0.9
50 10.9
51 2.09
52 17.9
53 9.9
54 7.9
55 2.19
56 22.9
57 70.9
58 31.9
59 0.59
61 3.9
62 2.9
63 6.4
64 0.49
65 5.9
66 3.9
67 9.9
68 0.79
69 12.9
70 25.9
71 20.9
72 3.74
73 5.9
74 3.4
75 3.9
76 1.09
77 37.9
78 60.9
79 42.4
80 1.19
81 7.9
82 9.9
83 11.9
84 1.49
85 7.9
86 1.9
87 0.9
90 0.29
91 17.9
92 5.9
93 6.9
94 1.39
95 7.4
96 5.9
97 4.9
98 0.79
99 5.9
100 0.9
101 0.9
102 0.39
103 5.9
104 7.9
105 36.9
106 2.29
107 99.99
108 56.9
109 7.9
110 1.39
111 2.9
118 3.9
119 24.9
120 0.49
121 4.9
122 3.9
123 1.9
124 0.09
148 0.9
149 78.9
150 7.9
151 0.19
152 0.9
183 5.9
184 2.9
185 0.99
186 7.9
187 1.9
188 14.9
189 0.29
190 2.9
191 1.9
192 2.4
193 0.69
194 15.9
195 18.4
196 22.9
197 0.39
198 3.9
199 5.9
200 2.9
208 0.24
209 2.9
210 13.9
211 2.9
212 0.29
213 1.9
219 11.9
220 3.9
221 0.09
222 1.9
223 8.9
224 0.9
245 0.09
246 4.9
247 1.9
248 0.9
259 0.19
260 4.9
261 15.9
262 3.9
263 0.09
264 0.4

$$$$

     RDKit          2D

 19 20  0  0  0  0  0  0  0  0999 V2000
    7.2219    5.6393    0.0000 C   0  0  0  0  0  0  0  0  0  0  0  0
    8.5265    3.3925    0.0000 C   0  0  0  0  0  0  0  0  0  0  0  0
    2.0281    4.1261    0.0000 C   0  0  0  0  0  0  0  0  0  0  0  0
    0.7301    3.3727    0.0000 C   0  0  0  0  0  0  0  0  0  0  0  0
    3.3301    3.3796    0.0000 C   0  0  0  0  0  0  0  0  0  0  0  0
    1.9785   -0.5121    0.0000 C   0  0  0  0  0  0  0  0  0  0  0  0
    0.9748   -1.6268    0.0000 C   0  0  0  0  0  0  0  0  0  0  0  0
    0.7341    1.8727    0.0000 C   0  0  0  0  0  0  0  0  0  0  0  0
    5.9284    3.3860    0.0000 C   0  0  0  0  0  0  0  0  0  0  0  0
    5.9322    1.8860    0.0000 C   0  0  0  0  0  0  0  0  0  0  0  0
    4.6387   -0.3672    0.0000 C   0  0  0  0  0  0  0  0  0  0  0  0
    3.3416   -1.1204    0.0000 C   0  0  0  0  0  0  0  0  0  0  0  0
    1.7223   -2.9188    0.0000 C   0  0  0  0  0  0  0  0  0  0  0  0
    3.3341    1.8796    0.0000 C   0  0  0  0  0  0  0  0  0  0  0  0
    1.1087   -4.2876    0.0000 Cl  0  0  0  0  0  0  0  0  0  0  0  0
    2.0361    1.1261    0.0000 N   0  0  0  0  0  0  0  0  0  0  0  0
    7.2256    4.1393    0.0000 N   0  0  0  0  0  0  0  0  0  0  0  0
    4.6350    1.1328    0.0000 N   0  0  0  0  0  0  0  0  0  0  0  0
    3.1933   -2.6152    0.0000 S   0  0  0  0  0  0  0  0  0  0  0  0
  4  3  2  0
  5  3  1  0
  7  6  1  0
  8  4  1  0
 10  9  1  0
 12  6  2  0
 12 11  1  0
 13  7  2  0
 14  5  2  0
 15 13  1  0
 16  8  2  0
 16 14  1  0
 17  1  1  0
 17  2  1  0
 17  9  1  0
 18 10  1  0
 18 11  1  0
 18 14  1  0
 19 12  1  0
 19 13  1  0
M  END
>  <NAME>  (5374) 
CHLOROTHEN

>  <SYNONYMS>  (5374) 
N-((5-CHLORO-2-THIENYL)METHYL)-N',N'-DIMETHYL-N-(2-PYRIDYL)-1,2-ETHANEDIAMINE

>  <SPECTRUM TYPE>  (5374) 
MS1

>  <INSTRUMENT TYPE>  (5374) 
EI-B

>  <INSTRUMENT>  (5374) 
Unknown

>  <ION MODE>  (5374) 
P

>  <INCHIKEY>  (5374) 
XAEXSWVTEJHRMH-UHFFFAOYSA-N

>  <FORMULA>  (5374) 
C14H18ClN3S

>  <EXACT MASS>  (5374) 
295.090996256

>  <MW>  (5374) 
295

>  <ID>  (5374) 
JP003866

>  <CONTRIBUTOR>  (5374) 
University of Tokyo Team, {Faculty of Engineering, University of Tokyo

>  <COMMENT>  (5374) 
SMILES=CN(C)CCN(Cc(c2)sc(Cl)c2)c(c1)nccc1
InChI=InChI=1S/C14H18ClN3S/c1-17(2)9-10-18(14-5-3-4-8-16-14)11-12-6-7-13(15)19-12/h3-8H,9-11H2,1-2H3
computed SMILES=ClC=1SC(=CC1)CN(C2=NC=CC=C2)CCN(C)C
accession=JP003866
date=2016.01.19 (Created 2008.10.21, modified 2011.05.06)
author=SASAKI S, TOYOHASHI UNIV. OF TECH.
license=CC BY-NC-SA
exact mass=295.091
ionization energy=70 eV
ion type=[M]+*
computed spectral entropy=3.3624832923147197
computed normalized entropy=0.6775314447308467
SPLASH=splash10-0a4i-9100000000-55c5514ebe1efa8ff06c
submitter=submitter = University of Tokyo Team (Faculty of Engineering, University of Tokyo)
MoNA Rating=3.75

>  <NUM PEAKS>  (5374) 
143

>  <MASS SPECTRAL PEAKS>  (5374) 
25 0.6
26 2.4
27 6.4
28 1.07
29 2.6
30 8
31 0.2
32 0.11
33 1.1
34 1.6
35 1
36 0.21
37 1
38 1.9
39 3.8
40 0.02
41 2.9
42 10.6
43 4
44 0.35
45 3.9
46 0.6
47 1
48 0.04
49 0.9
50 2.4
51 6.9
52 0.64
53 2.3
54 1
55 1.4
56 0.29
57 2.4
58 99.99
59 5
60 0.02
61 0.8
62 0.7
63 1.4
64 0.12
65 1.3
66 1.2
67 1.7
68 0.06
69 1.9
70 1.4
71 15.1
72 0.16
73 1.8
74 0.1
75 1.1
76 0.01
77 1.2
78 7.7
79 11.8
80 0.16
81 1.2
82 0.9
83 0.6
84 0.04
85 0.4
86 0.2
87 2
88 0.04
89 1.4
90 0.1
91 1
92 0.09
93 1.2
94 1
95 2.4
96 0.14
97 2.6
98 1
99 0.4
104 0.06
105 1.7
106 1.7
107 2.1
108 0.09
109 0.4
110 0.5
111 0.3
112 0.02
115 0.3
116 0.4
117 0.5
118 0.01
119 3.1
120 1
121 1.3
122 0.04
130 0.2
131 18.2
132 2.6
133 0.74
134 1.2
135 1.1
136 0.4
143 0.02
144 0.3
145 1
146 0.8
147 0.03
154 0.2
155 0.8
156 0.4
157 0.03
158 0.1
162 0.9
163 0.4
164 0.02
165 0.1
168 0.7
169 0.4
170 0.01
187 1.4
188 1.1
189 1.5
190 0.04
191 0.2
200 0.1
201 0.7
202 0.02
203 0.1
223 1
224 1.5
225 0.03
226 1
227 1.4
228 0.4
237 0.06
238 0.2
239 0.3
240 0.1
251 0.03
252 0.1
253 0.1
295 1.3
296 0.03
297 0.8
298 0.2
299 0.1

$$$$

     RDKit          2D

 18 19  0  0  0  0  0  0  0  0999 V2000
    7.5355   -2.3178    0.0000 C   0  0  0  0  0  0  0  0  0  0  0  0
    6.2393   -0.0662    0.0000 C   0  0  0  0  0  0  0  0  0  0  0  0
    1.0366   -6.0608    0.0000 C   0  0  0  0  0  0  0  0  0  0  0  0
    2.3353   -6.8131    0.0000 C   0  0  0  0  0  0  0  0  0  0  0  0
   -2.6329   -2.8079    0.0000 C   0  0  0  0  0  0  0  0  0  0  0  0
   -1.6292   -1.6932    0.0000 C   0  0  0  0  0  0  0  0  0  0  0  0
    1.0377   -4.5600    0.0000 C   0  0  0  0  0  0  0  0  0  0  0  0
    3.6352   -6.0644    0.0000 C   0  0  0  0  0  0  0  0  0  0  0  0
    4.9375   -2.3146    0.0000 C   0  0  0  0  0  0  0  0  0  0  0  0
    3.6394   -1.5630    0.0000 C   0  0  0  0  0  0  0  0  0  0  0  0
   -1.8780   -4.1066    0.0000 C   0  0  0  0  0  0  0  0  0  0  0  0
    1.0413   -1.5598    0.0000 C   0  0  0  0  0  0  0  0  0  0  0  0
   -0.2587   -2.3082    0.0000 C   0  0  0  0  0  0  0  0  0  0  0  0
    2.3376   -3.8114    0.0000 C   0  0  0  0  0  0  0  0  0  0  0  0
    3.6363   -4.5636    0.0000 N   0  0  0  0  0  0  0  0  0  0  0  0
    6.2374   -1.5662    0.0000 N   0  0  0  0  0  0  0  0  0  0  0  0
    2.3394   -2.3114    0.0000 N   0  0  0  0  0  0  0  0  0  0  0  0
   -0.4144   -3.7962    0.0000 S   0  0  0  0  0  0  0  0  0  0  0  0
  4  3  2  0
  6  5  1  0
  7  3  1  0
  8  4  1  0
 10  9  1  0
 11  5  2  0
 13  6  2  0
 13 12  1  0
 14  7  2  0
 15  8  2  0
 15 14  1  0
 16  1  1  0
 16  2  1  0
 16  9  1  0
 17 10  1  0
 17 12  1  0
 17 14  1  0
 18 11  1  0
 18 13  1  0
M  END
>  <NAME>  (5375) 
METHAPYRILENE

>  <SYNONYMS>  (5375) 
N,N-DIMETHYL-N'-(2-PYRIDYL)-N'-(2-THIENYL)METHYL-1,2-ETHANEDIAMINE

>  <SPECTRUM TYPE>  (5375) 
MS1

>  <INSTRUMENT TYPE>  (5375) 
EI-B

>  <INSTRUMENT>  (5375) 
Unknown

>  <ION MODE>  (5375) 
P

>  <INCHIKEY>  (5375) 
HNJJXZKZRAWDPF-UHFFFAOYSA-N

>  <FORMULA>  (5375) 
C14H19N3S

>  <EXACT MASS>  (5375) 
261.129968608

>  <MW>  (5375) 
261

>  <ID>  (5375) 
JP003865

>  <CONTRIBUTOR>  (5375) 
University of Tokyo Team, {Faculty of Engineering, University of Tokyo

>  <COMMENT>  (5375) 
SMILES=CN(C)CCN(Cc(c2)scc2)c(c1)nccc1
InChI=InChI=1S/C14H19N3S/c1-16(2)9-10-17(12-13-6-5-11-18-13)14-7-3-4-8-15-14/h3-8,11H,9-10,12H2,1-2H3
computed SMILES=N=1C=CC=CC1N(CC=2SC=CC2)CCN(C)C
accession=JP003865
date=2016.01.19 (Created 2008.10.21, modified 2011.05.06)
author=SASAKI S, TOYOHASHI UNIV. OF TECH.
license=CC BY-NC-SA
exact mass=261.12997
ionization energy=70 eV
ion type=[M]+*
computed spectral entropy=2.966611063607269
computed normalized entropy=0.6428025124764706
SPLASH=splash10-0a4j-9100000000-9f9c0628cb8aefa5e587
submitter=submitter = University of Tokyo Team (Faculty of Engineering, University of Tokyo)
MoNA Rating=3.75

>  <NUM PEAKS>  (5375) 
101

>  <MASS SPECTRAL PEAKS>  (5375) 
38 0.9
39 2.4
40 1.4
41 0.19
42 5.9
43 2.4
44 2.9
45 0.39
46 0.9
50 0.9
51 1.9
52 0.29
53 2.9
54 1.4
55 2.4
56 0.34
57 2.4
58 99.99
59 4.9
60 0.09
64 0.4
65 1.4
66 0.9
67 0.09
68 0.4
69 1.4
70 1.9
71 1.84
72 28.4
73 1.9
74 0.4
75 0.09
76 0.9
77 0.4
78 6.4
79 0.89
80 1.4
81 0.4
82 1.4
83 0.19
84 23.9
85 3.4
89 0.9
90 0.09
91 4.4
92 0.9
93 1.2
95 0.09
96 0.9
97 71.4
98 7.4
99 0.39
100 0.4
103 0.9
104 0.4
105 0.19
106 2.4
107 2.9
108 0.4
109 0.04
117 0.9
118 1.4
119 3.9
120 0.09
121 1.4
147 0.4
148 0.4
149 0.19
150 2.9
151 0.9
152 0.4
155 0.09
156 0.4
157 1.9
158 0.4
187 0.04
188 0.9
189 3.9
190 11.9
191 1.49
192 1.9
193 0.9
194 0.4
201 0.09
202 0.9
203 6.9
204 1.4
205 0.09
206 0.4
215 0.4
216 0.9
217 0.14
218 0.4
219 0.4
260 0.9
261 1.09
262 1.9
263 0.9
264 0.4
266 0.04
267 1.4

$$$$

     RDKit          2D

 14 14  0  0  0  0  0  0  0  0999 V2000
   -3.3013   -1.3889    0.0000 C   0  0  0  0  0  0  0  0  0  0  0  0
   -2.8499   -2.1704    0.0000 C   0  0  0  0  0  0  0  0  0  0  0  0
   -0.4083   -3.0585    0.0000 C   0  0  0  0  0  0  0  0  0  0  0  0
   -2.3372   -0.2397    0.0000 C   0  0  0  0  0  0  0  0  0  0  0  0
   -1.3727   -1.9096    0.0000 C   0  0  0  0  0  0  0  0  0  0  0  0
   -0.8600    1.0000    0.0000 C   0  0  0  0  0  0  0  0  0  0  0  0
    0.4400   -1.2500    0.0000 C   0  0  0  0  0  0  0  0  0  0  0  0
    1.7400    1.0000    0.0000 C   0  0  0  0  0  0  0  0  0  0  0  0
   -0.8600   -0.5000    0.0000 C   0  0  0  0  0  0  0  0  0  0  0  0
    0.4400    1.7500    0.0000 N   0  0  0  0  0  0  0  0  0  0  0  0
    1.7400   -0.5000    0.0000 N   0  0  0  0  0  0  0  0  0  0  0  0
   -2.1589    1.7502    0.0000 O   0  0  0  0  0  0  0  0  0  0  0  0
    0.4400   -2.7500    0.0000 O   0  0  0  0  0  0  0  0  0  0  0  0
    3.0389    1.7502    0.0000 O   0  0  0  0  0  0  0  0  0  0  0  0
  4  1  1  0
  5  2  1  0
  5  3  1  0
  9  4  1  0
  9  5  1  0
  9  6  1  0
  9  7  1  0
 10  6  2  0
 10  8  1  0
 11  7  2  0
 11  8  1  0
 12  6  1  0
 13  7  1  0
 14  8  2  0
M  END
>  <NAME>  (5376) 
5-ETHYL-5-ISOPROPYL-BARBITURIC ACID

>  <SYNONYMS>  (5376) 
PROBARBITAL

>  <SPECTRUM TYPE>  (5376) 
MS1

>  <INSTRUMENT TYPE>  (5376) 
EI-B

>  <INSTRUMENT>  (5376) 
Unknown

>  <ION MODE>  (5376) 
P

>  <INCHIKEY>  (5376) 
HHLXJTDUHFBYAU-UHFFFAOYSA-N

>  <FORMULA>  (5376) 
C9H14N2O3

>  <EXACT MASS>  (5376) 
198.10044230799997

>  <MW>  (5376) 
198

>  <ID>  (5376) 
JP003863

>  <CONTRIBUTOR>  (5376) 
University of Tokyo Team, {Faculty of Engineering, University of Tokyo

>  <COMMENT>  (5376) 
SMILES=CCC(C(C)C)(C(=O)1)C(=O)NC(=O)N1
InChI=InChI=1S/C9H14N2O3/c1-4-9(5(2)3)6(12)10-8(14)11-7(9)13/h5H,4H2,1-3H3,(H2,10,11,12,13,14)
computed SMILES=O=C1N=C(O)C(C(O)=N1)(CC)C(C)C
accession=JP003863
date=2016.01.19 (Created 2008.10.21, modified 2011.05.06)
author=SASAKI S, TOYOHASHI UNIV. OF TECH.
license=CC BY-NC-SA
exact mass=198.10044
ionization energy=70 eV
ion type=[M]+*
computed spectral entropy=2.5660116519249003
computed normalized entropy=0.5943297548127274
SPLASH=splash10-0a4i-4900000000-47dade6445c02f584897
submitter=submitter = University of Tokyo Team (Faculty of Engineering, University of Tokyo)
MoNA Rating=3.75

>  <NUM PEAKS>  (5376) 
75

>  <MASS SPECTRAL PEAKS>  (5376) 
26 0.3
27 3.4
28 2.9
29 0.24
30 0.1
37 0.1
38 0.4
39 0.39
40 1.4
41 11.9
42 1.9
43 0.99
44 2.9
51 0.4
52 0.9
53 0.19
54 1.7
55 3.9
56 1.3
57 0.01
58 0.9
59 0.1
65 0.5
66 0.09
67 2.3
68 1.5
69 3.9
70 0.31
71 0.9
72 0.1
79 0.4
80 0.19
81 0.3
82 0.9
83 1.9
84 0.11
85 2.9
86 0.9
94 1.6
95 0.09
96 0.9
97 2.7
98 7.9
99 0.09
100 0.1
108 0.1
109 2.4
110 0.08
111 0.9
112 4.9
113 1.7
114 0.01
124 0.2
126 1.9
140 0.3
141 5.79
142 4.4
143 1.4
144 0.4
153 0.01
154 0.9
155 9.9
156 99.99
157 0.84
158 1.4
159 0.4
168 0.1
169 0.59
170 2.9
171 0.9
182 0.1
183 0.09
184 0.1
198 0.1
199 0.6

$$$$

     RDKit          2D

 17 18  0  0  0  0  0  0  0  0999 V2000
    6.1262    0.5408    0.0000 C   0  0  0  0  0  0  0  0  0  0  0  0
    2.2282    5.7902    0.0000 C   0  0  0  0  0  0  0  0  0  0  0  0
    0.9283    5.0400    0.0000 C   0  0  0  0  0  0  0  0  0  0  0  0
    3.5283    5.0404    0.0000 C   0  0  0  0  0  0  0  0  0  0  0  0
   -0.3700   -1.7100    0.0000 C   0  0  0  0  0  0  0  0  0  0  0  0
   -1.6700   -0.9600    0.0000 C   0  0  0  0  0  0  0  0  0  0  0  0
    0.9286    3.5400    0.0000 C   0  0  0  0  0  0  0  0  0  0  0  0
    3.5286    3.5404    0.0000 C   0  0  0  0  0  0  0  0  0  0  0  0
    0.9300   -0.9600    0.0000 C   0  0  0  0  0  0  0  0  0  0  0  0
   -1.6700    0.5400    0.0000 C   0  0  0  0  0  0  0  0  0  0  0  0
    2.2287    2.7902    0.0000 C   0  0  0  0  0  0  0  0  0  0  0  0
    0.9300    0.5400    0.0000 C   0  0  0  0  0  0  0  0  0  0  0  0
    2.2289    1.2902    0.0000 C   0  0  0  0  0  0  0  0  0  0  0  0
    3.5281    0.5404    0.0000 C   0  0  0  0  0  0  0  0  0  0  0  0
   -0.3700    1.2900    0.0000 N   0  0  0  0  0  0  0  0  0  0  0  0
    3.5283   -0.9596    0.0000 O   0  0  0  0  0  0  0  0  0  0  0  0
    4.8270    1.2906    0.0000 O   0  0  0  0  0  0  0  0  0  0  0  0
  3  2  2  0
  4  2  1  0
  6  5  1  0
  7  3  1  0
  8  4  2  0
  9  5  1  0
 10  6  1  0
 11  7  2  0
 11  8  1  0
 12  9  1  0
 13 11  1  0
 13 12  1  0
 14 13  1  0
 15 10  1  0
 15 12  1  0
 16 14  2  0
 17  1  1  0
 17 14  1  0
M  END
>  <NAME>  (5377) 
METHYLPHENIDATE

>  <SYNONYMS>  (5377) 
METHYL ALPHA-PHENYL-ALPHA-(2-PIPERIDYL)ACETATE

>  <SPECTRUM TYPE>  (5377) 
MS1

>  <INSTRUMENT TYPE>  (5377) 
EI-B

>  <INSTRUMENT>  (5377) 
Unknown

>  <ION MODE>  (5377) 
P

>  <INCHIKEY>  (5377) 
DUGOZIWVEXMGBE-UHFFFAOYSA-N

>  <FORMULA>  (5377) 
C14H19NO2

>  <EXACT MASS>  (5377) 
233.141578848

>  <MW>  (5377) 
233

>  <ID>  (5377) 
JP003862

>  <CONTRIBUTOR>  (5377) 
University of Tokyo Team, {Faculty of Engineering, University of Tokyo

>  <COMMENT>  (5377) 
SMILES=COC(=O)C(C(C2)NCCC2)c(c1)cccc1
InChI=InChI=1S/C14H19NO2/c1-17-14(16)13(11-7-3-2-4-8-11)12-9-5-6-10-15-12/h2-4,7-8,12-13,15H,5-6,9-10H2,1H3
computed SMILES=O=C(OC)C(C=1C=CC=CC1)C2NCCCC2
accession=JP003862
date=2016.01.19 (Created 2008.10.21, modified 2011.05.06)
author=SASAKI S, TOYOHASHI UNIV. OF TECH.
license=CC BY-NC-SA
exact mass=233.14158
ionization energy=70 eV
ion type=[M]+*
computed spectral entropy=2.3661132785267163
computed normalized entropy=0.5588223338165124
SPLASH=splash10-001i-9100000000-c75de12fbdae54dce658
submitter=submitter = University of Tokyo Team (Faculty of Engineering, University of Tokyo)
MoNA Rating=3.75

>  <NUM PEAKS>  (5377) 
69

>  <MASS SPECTRAL PEAKS>  (5377) 
39 1.9
40 0.9
41 4.9
42 0.24
43 1.4
44 1.9
45 0.9
46 0.04
53 0.4
54 1.9
55 8.4
56 0.49
57 1.4
58 0.4
59 0.9
65 0.34
66 0.9
67 0.9
68 0.9
69 0.09
77 2.4
78 0.9
79 0.9
80 0.09
81 0.4
82 3.4
83 4.9
84 99.99
85 4.9
86 0.4
87 0.9
88 0.04
89 0.9
90 2.4
91 18.4
92 0.24
93 0.4
102 0.9
103 1.4
104 0.09
105 1.4
106 0.4
114 0.4
115 0.16
116 0.9
117 1.9
118 2.4
119 0.09
120 1.1
127 0.4
128 0.9
129 0.09
130 1.4
131 0.9
132 0.4
144 0.09
145 0.4
148 0.4
149 0.9
150 0.79
151 0.9
152 0.4
172 1.4
173 0.09
174 0.9
232 0.4
233 0.9
234 0.04
235 0.4

$$$$

     RDKit          2D

 23 26  0  0  1  0  0  0  0  0999 V2000
   -2.8300    0.0000    0.0000 C   0  0  0  0  0  0  0  0  0  0  0  0
    9.3100    1.2990    0.0000 C   0  0  0  0  0  0  0  0  0  0  0  0
    2.5600    5.1962    0.0000 C   0  0  0  0  0  0  0  0  0  0  0  0
    8.5600    2.5990    0.0000 C   0  0  0  0  0  0  0  0  0  0  0  0
    8.5600   -0.0010    0.0000 C   0  0  0  0  0  0  0  0  0  0  0  0
    1.8092    3.8966    0.0000 C   0  0  0  0  0  0  0  0  0  0  0  0
    4.0608    5.1966    0.0000 C   0  0  0  0  0  0  0  0  0  0  0  0
    7.0600    2.5990    0.0000 C   0  0  0  0  0  0  0  0  0  0  0  0
    7.0600   -0.0010    0.0000 C   0  0  0  0  0  0  0  0  0  0  0  0
    2.5592    2.5976    0.0000 C   0  0  0  0  0  0  0  0  0  0  0  0
    4.8108    3.8976    0.0000 C   0  0  0  0  0  0  0  0  0  0  0  0
   -1.0500   -0.8900    0.0000 C   0  0  0  0  0  0  0  0  0  0  0  0
   -1.0500    0.8900    0.0000 C   0  0  0  0  0  0  0  0  0  0  0  0
    1.8200   -1.2700    0.0000 C   0  0  0  0  0  0  0  0  0  0  0  0
    1.8200    1.2700    0.0000 C   0  0  0  0  0  0  0  0  0  0  0  0
    6.3100    1.2990    0.0000 C   0  0  0  0  0  0  0  0  0  0  0  0
    4.0600    2.5981    0.0000 C   0  0  0  0  0  0  0  0  0  0  0  0
    0.3600   -1.6000    0.0000 C   0  0  0  0  0  0  0  0  0  0  0  0
    0.3600    1.6000    0.0000 C   0  0  0  0  0  0  0  0  0  0  0  0
    2.5600   -0.0000    0.0000 C   0  0  0  0  0  0  0  0  0  0  0  0
    4.8100    1.2990    0.0000 C   0  0  0  0  0  0  0  0  0  0  0  0
   -0.3700   -0.0000    0.0000 N   0  0  0  0  0  0  0  0  0  0  0  0
    4.0600   -0.0000    0.0000 O   0  0  0  0  0  0  0  0  0  0  0  0
  4  2  2  0
  5  2  1  0
  6  3  2  0
  7  3  1  0
  8  4  1  0
  9  5  2  0
 10  6  1  0
 11  7  2  0
 13 12  1  0
 16  8  2  0
 16  9  1  0
 17 10  2  0
 17 11  1  0
 18 12  1  6
 18 14  1  0
 19 13  1  6
 19 15  1  0
 20 14  1  0
 20 15  1  0
 21 16  1  0
 21 17  1  0
 22  1  1  0
 18 22  1  0
 19 22  1  0
 20 23  1  1
 23 21  1  0
M  END
>  <NAME>  (5378) 
BENZTROPINE

>  <SYNONYMS>  (5378) 
3-(DIPHENYLMETHOXY)-8-METHYL-8-AZABICYCLO(3.2.1)OCTANE

>  <SPECTRUM TYPE>  (5378) 
MS1

>  <INSTRUMENT TYPE>  (5378) 
EI-B

>  <INSTRUMENT>  (5378) 
Unknown

>  <ION MODE>  (5378) 
P

>  <INCHIKEY>  (5378) 
GIJXKZJWITVLHI-ACDBMABISA-N

>  <FORMULA>  (5378) 
C21H25NO

>  <EXACT MASS>  (5378) 
307.19361442

>  <MW>  (5378) 
307

>  <ID>  (5378) 
JP003861

>  <CONTRIBUTOR>  (5378) 
University of Tokyo Team, {Faculty of Engineering, University of Tokyo

>  <COMMENT>  (5378) 
SMILES=c(c4)ccc(c4)C(c(c3)cccc3)OC([H])(C1)CC([H])(C2)N(C)C([H])(C2)1
InChI=InChI=1S/C21H25NO/c1-22-18-12-13-19(22)15-20(14-18)23-21(16-8-4-2-5-9-16)17-10-6-3-7-11-17/h2-11,18-21H,12-15H2,1H3/t18-,19+,20-
computed SMILES=O(C(C=1C=CC=CC1)C=2C=CC=CC2)C3CC4N(C)C(CC4)C3
accession=JP003861
date=2016.01.19 (Created 2008.10.21, modified 2011.05.06)
author=SASAKI S, TOYOHASHI UNIV. OF TECH.
license=CC BY-NC-SA
exact mass=307.19361
ionization energy=70 eV
ion type=[M]+*
computed spectral entropy=2.8507117999206333
computed normalized entropy=0.7250351531854177
SPLASH=splash10-001l-9700000000-4fe83c936510cdcfcedd
submitter=submitter = University of Tokyo Team (Faculty of Engineering, University of Tokyo)
MoNA Rating=3.75

>  <NUM PEAKS>  (5378) 
51

>  <MASS SPECTRAL PEAKS>  (5378) 
55 6.4
56 3.9
57 4.9
58 0.94
67 11.9
68 4.9
69 2.1
77 0.51
78 2.9
79 1.4
80 2.1
81 0.49
82 59.1
83 88.5
84 15
85 0.14
92 2.9
93 0.4
94 5.9
95 0.24
96 24.9
97 24.9
98 7.5
122 0.24
123 1.4
124 41.9
125 21.4
126 0.27
127 0.4
128 2
139 1.9
140 99.99
141 10.9
142 0.9
151 0.9
152 0.94
153 2.4
164 1.9
165 16.4
166 0.69
167 22.9
168 8.4
169 1.9
201 2.04
202 3.4
216 1.9
247 1.4
249 0.14
306 1.4
307 6.4
308 1.6

$$$$

     RDKit          2D

 19 20  0  0  0  0  0  0  0  0999 V2000
    2.5992    1.0701    0.0000 C   0  0  0  0  0  0  0  0  0  0  0  0
    1.2994   -1.1795    0.0000 C   0  0  0  0  0  0  0  0  0  0  0  0
   -1.2980    4.8223    0.0000 C   0  0  0  0  0  0  0  0  0  0  0  0
   -2.5976    5.5732    0.0000 C   0  0  0  0  0  0  0  0  0  0  0  0
   -1.2976    3.3215    0.0000 C   0  0  0  0  0  0  0  0  0  0  0  0
   -6.4955   -1.1791    0.0000 C   0  0  0  0  0  0  0  0  0  0  0  0
   -5.1966   -1.9293    0.0000 C   0  0  0  0  0  0  0  0  0  0  0  0
   -3.8966    4.8232    0.0000 C   0  0  0  0  0  0  0  0  0  0  0  0
   -2.5966    2.5715    0.0000 C   0  0  0  0  0  0  0  0  0  0  0  0
   -6.4948    0.3217    0.0000 C   0  0  0  0  0  0  0  0  0  0  0  0
   -3.8970   -1.1787    0.0000 C   0  0  0  0  0  0  0  0  0  0  0  0
    0.0011    1.0709    0.0000 C   0  0  0  0  0  0  0  0  0  0  0  0
   -1.2982    0.3213    0.0000 C   0  0  0  0  0  0  0  0  0  0  0  0
   -5.1952    2.5723    0.0000 C   0  0  0  0  0  0  0  0  0  0  0  0
   -3.8961    3.3223    0.0000 C   0  0  0  0  0  0  0  0  0  0  0  0
   -5.1952    1.0723    0.0000 C   0  0  0  0  0  0  0  0  0  0  0  0
   -3.8962    0.3221    0.0000 C   0  0  0  0  0  0  0  0  0  0  0  0
    1.2999    0.3205    0.0000 N   0  0  0  0  0  0  0  0  0  0  0  0
   -2.5970    1.0717    0.0000 O   0  0  0  0  0  0  0  0  0  0  0  0
  4  3  2  0
  5  3  1  0
  7  6  2  0
  8  4  1  0
  9  5  2  0
 10  6  1  0
 11  7  1  0
 13 12  1  0
 15  8  2  0
 15  9  1  0
 15 14  1  0
 16 10  2  0
 16 14  1  0
 17 11  2  0
 17 16  1  0
 18  1  1  0
 18  2  1  0
 18 12  1  0
 19 13  1  0
 19 17  1  0
M  END
>  <NAME>  (5379) 
PHENYLTOLOXAMINE

>  <SYNONYMS>  (5379) 
N,N-DIMETHYL-2-(2-(BENZYL)PHENOXY)ETHYLAMINE

>  <SPECTRUM TYPE>  (5379) 
MS1

>  <INSTRUMENT TYPE>  (5379) 
EI-B

>  <INSTRUMENT>  (5379) 
Unknown

>  <ION MODE>  (5379) 
P

>  <INCHIKEY>  (5379) 
IZRPKIZLIFYYKR-UHFFFAOYSA-N

>  <FORMULA>  (5379) 
C17H21NO

>  <EXACT MASS>  (5379) 
255.162314292

>  <MW>  (5379) 
255

>  <ID>  (5379) 
JP003860

>  <CONTRIBUTOR>  (5379) 
University of Tokyo Team, {Faculty of Engineering, University of Tokyo

>  <COMMENT>  (5379) 
SMILES=CN(C)CCOc(c2)c(ccc2)Cc(c1)cccc1
InChI=InChI=1S/C17H21NO/c1-18(2)12-13-19-17-11-7-6-10-16(17)14-15-8-4-3-5-9-15/h3-11H,12-14H2,1-2H3
computed SMILES=O(C=1C=CC=CC1CC=2C=CC=CC2)CCN(C)C
accession=JP003860
date=2016.01.19 (Created 2008.10.21, modified 2011.05.06)
author=SASAKI S, TOYOHASHI UNIV. OF TECH.
license=CC BY-NC-SA
exact mass=255.16231
ionization energy=70 eV
ion type=[M]+*
computed spectral entropy=1.800190299226005
computed normalized entropy=0.4913771005130508
SPLASH=splash10-0a4i-9000000000-4846204db840aa67d3e1
submitter=submitter = University of Tokyo Team (Faculty of Engineering, University of Tokyo)
MoNA Rating=3.75

>  <NUM PEAKS>  (5379) 
39

>  <MASS SPECTRAL PEAKS>  (5379) 
39 0.9
40 6.9
41 0.9
42 0.39
43 1.9
44 2.9
45 0.9
46 0.29
50 0.4
51 0.9
54 0.4
55 0.09
56 2.9
57 1.9
58 99.99
59 0.39
70 1.4
71 3.9
72 4.9
73 0.04
76 0.4
77 1.9
78 1.9
79 0.04
90 0.4
91 3.4
92 0.4
164 0.04
165 1.9
166 0.9
167 0.4
181 0.09
182 0.4
183 0.9
184 1.9
210 0.34
211 0.4
255 9.9
256 1.9

$$$$

     RDKit          2D

 16 17  0  0  0  0  0  0  0  0999 V2000
    9.0945    0.7488    0.0000 C   0  0  0  0  0  0  0  0  0  0  0  0
    7.7951    1.4998    0.0000 C   0  0  0  0  0  0  0  0  0  0  0  0
    9.0947   -0.7521    0.0000 C   0  0  0  0  0  0  0  0  0  0  0  0
   -0.0000    1.5000    0.0000 C   0  0  0  0  0  0  0  0  0  0  0  0
   -1.3000    0.7500    0.0000 C   0  0  0  0  0  0  0  0  0  0  0  0
    6.4959    0.7500    0.0000 C   0  0  0  0  0  0  0  0  0  0  0  0
    7.7956   -1.5019    0.0000 C   0  0  0  0  0  0  0  0  0  0  0  0
    1.3000    0.7500    0.0000 C   0  0  0  0  0  0  0  0  0  0  0  0
   -1.3000   -0.7500    0.0000 C   0  0  0  0  0  0  0  0  0  0  0  0
    3.8981   -0.7504    0.0000 C   0  0  0  0  0  0  0  0  0  0  0  0
    6.4962   -0.7508    0.0000 C   0  0  0  0  0  0  0  0  0  0  0  0
    5.1970   -1.5006    0.0000 C   0  0  0  0  0  0  0  0  0  0  0  0
    1.3000   -0.7500    0.0000 C   0  0  0  0  0  0  0  0  0  0  0  0
   -0.0000   -1.5000    0.0000 N   0  0  0  0  0  0  0  0  0  0  0  0
    2.5989   -1.5002    0.0000 N   0  0  0  0  0  0  0  0  0  0  0  0
    5.1968   -3.0006    0.0000 O   0  0  0  0  0  0  0  0  0  0  0  0
  2  1  2  0
  3  1  1  0
  5  4  2  0
  6  2  1  0
  7  3  2  0
  8  4  1  0
  9  5  1  0
 11  6  2  0
 11  7  1  0
 12 10  1  0
 12 11  1  0
 13  8  2  0
 14  9  2  0
 14 13  1  0
 15 10  1  0
 15 13  1  0
 16 12  1  0
M  END
>  <NAME>  (5380) 
PHENYRAMIDOL

>  <SYNONYMS>  (5380) 
ALPHA-((2-PYRIDINYLAMINO)METHYL)BENZENEMETHANOLE

>  <SPECTRUM TYPE>  (5380) 
MS1

>  <INSTRUMENT TYPE>  (5380) 
EI-B

>  <INSTRUMENT>  (5380) 
Unknown

>  <ION MODE>  (5380) 
P

>  <INCHIKEY>  (5380) 
ZEAJXCPGHPJVNP-UHFFFAOYSA-N

>  <FORMULA>  (5380) 
C13H14N2O

>  <EXACT MASS>  (5380) 
214.110613068

>  <MW>  (5380) 
214

>  <ID>  (5380) 
JP003859

>  <CONTRIBUTOR>  (5380) 
University of Tokyo Team, {Faculty of Engineering, University of Tokyo

>  <COMMENT>  (5380) 
SMILES=OC(CNc(c2)nccc2)c(c1)cccc1
InChI=InChI=1S/C13H14N2O/c16-12(11-6-2-1-3-7-11)10-15-13-8-4-5-9-14-13/h1-9,12,16H,10H2,(H,14,15)
computed SMILES=OC(C=1C=CC=CC1)CNC2=NC=CC=C2
accession=JP003859
date=2016.01.19 (Created 2008.10.21, modified 2011.05.06)
author=SASAKI S, TOYOHASHI UNIV. OF TECH.
license=CC BY-NC-SA
exact mass=214.11061
ionization energy=70 eV
ion type=[M]+*
computed spectral entropy=2.8777952524383816
computed normalized entropy=0.691963489897776
SPLASH=splash10-0a4i-6900000000-d9b37fd7b9c02cab5313
submitter=submitter = University of Tokyo Team (Faculty of Engineering, University of Tokyo)
MoNA Rating=3.75

>  <NUM PEAKS>  (5380) 
64

>  <MASS SPECTRAL PEAKS>  (5380) 
50 3.9
51 12.9
52 7.4
53 0.29
54 0.9
55 1.9
56 1.9
57 0.39
58 0.9
64 0.4
65 2.4
66 0.19
67 4.9
69 0.4
70 0.9
71 0.19
72 3.9
73 1.4
74 0.9
75 0.09
76 1.9
77 11.4
78 42.9
79 1.89
80 11.9
90 0.9
91 3.9
92 0.09
93 2.4
94 5.9
95 1.9
96 0.04
97 0.9
102 0.9
103 1.9
104 0.29
105 9.9
106 10.4
107 99.99
108 5.29
109 5.9
110 0.9
118 0.4
119 0.89
120 1.9
121 0.9
149 9.4
150 0.14
151 0.4
166 0.9
167 2.4
168 0.29
169 0.9
170 0.4
193 0.9
194 0.39
195 9.4
196 10.4
197 1.9
198 0.09
213 0.9
214 3.9
215 0.9
216 0.4

$$$$

     RDKit          2D

 20 22  0  0  0  0  0  0  0  0999 V2000
    2.5981   -7.1400    0.0000 C   0  0  0  0  0  0  0  0  0  0  0  0
    4.2200    0.4000    0.0000 C   0  0  0  0  0  0  0  0  0  0  0  0
   -4.2200    0.4000    0.0000 C   0  0  0  0  0  0  0  0  0  0  0  0
    3.8800   -1.0600    0.0000 C   0  0  0  0  0  0  0  0  0  0  0  0
   -3.8800   -1.0600    0.0000 C   0  0  0  0  0  0  0  0  0  0  0  0
    1.2990   -3.3900    0.0000 C   0  0  0  0  0  0  0  0  0  0  0  0
    3.1200    1.4200    0.0000 C   0  0  0  0  0  0  0  0  0  0  0  0
   -3.1200    1.4200    0.0000 C   0  0  0  0  0  0  0  0  0  0  0  0
    2.4500   -1.5100    0.0000 C   0  0  0  0  0  0  0  0  0  0  0  0
   -2.4500   -1.5100    0.0000 C   0  0  0  0  0  0  0  0  0  0  0  0
   -0.0000   -2.6400    0.0000 C   0  0  0  0  0  0  0  0  0  0  0  0
    0.7500    2.1500    0.0000 C   0  0  0  0  0  0  0  0  0  0  0  0
   -0.7500    2.1500    0.0000 C   0  0  0  0  0  0  0  0  0  0  0  0
    1.2990   -4.8900    0.0000 C   0  0  0  0  0  0  0  0  0  0  0  0
    1.6900    0.9800    0.0000 C   0  0  0  0  0  0  0  0  0  0  0  0
   -1.6900    0.9800    0.0000 C   0  0  0  0  0  0  0  0  0  0  0  0
    1.3500   -0.4900    0.0000 C   0  0  0  0  0  0  0  0  0  0  0  0
   -1.3500   -0.4900    0.0000 C   0  0  0  0  0  0  0  0  0  0  0  0
    0.0000   -1.1400    0.0000 C   0  0  0  0  0  0  0  0  0  0  0  0
    2.5981   -5.6400    0.0000 N   0  0  0  0  0  0  0  0  0  0  0  0
  4  2  2  0
  5  3  2  0
  7  2  1  0
  8  3  1  0
  9  4  1  0
 10  5  1  0
 11  6  1  0
 13 12  1  0
 14  6  1  0
 15  7  2  0
 15 12  1  0
 16  8  2  0
 16 13  1  0
 17  9  2  0
 17 15  1  0
 18 10  2  0
 18 16  1  0
 19 11  2  3
 19 17  1  0
 19 18  1  0
 20  1  1  0
 20 14  1  0
M  END
>  <NAME>  (5381) 
NORTRIPTYLINE

>  <SYNONYMS>  (5381) 


>  <SPECTRUM TYPE>  (5381) 
MS1

>  <INSTRUMENT TYPE>  (5381) 
EI-B

>  <INSTRUMENT>  (5381) 
Unknown

>  <ION MODE>  (5381) 
P

>  <INCHIKEY>  (5381) 
PHVGLTMQBUFIQQ-UHFFFAOYSA-N

>  <FORMULA>  (5381) 
C19H21N

>  <EXACT MASS>  (5381) 
263.167399672

>  <MW>  (5381) 
263

>  <ID>  (5381) 
JP003858

>  <CONTRIBUTOR>  (5381) 
University of Tokyo Team, {Faculty of Engineering, University of Tokyo

>  <COMMENT>  (5381) 
SMILES=CNCCC=C(c21)c(c3)c(ccc3)CCc(cccc2)1
InChI=InChI=1S/C19H21N/c1-20-14-6-11-19-17-9-4-2-7-15(17)12-13-16-8-3-5-10-18(16)19/h2-5,7-11,20H,6,12-14H2,1H3
computed SMILES=C=1C=CC2=C(C1)C(=CCCNC)C=3C=CC=CC3CC2
accession=JP003858
date=2016.01.19 (Created 2008.10.21, modified 2011.05.06)
author=SASAKI S, TOYOHASHI UNIV. OF TECH.
license=CC BY-NC-SA
exact mass=263.1674
ionization energy=70 eV
ion type=[M]+*
computed spectral entropy=2.7746517427982105
computed normalized entropy=0.648788487476451
SPLASH=splash10-0006-9000000000-bb9eae4818c0402317ee
submitter=submitter = University of Tokyo Team (Faculty of Engineering, University of Tokyo)
MoNA Rating=3.75

>  <NUM PEAKS>  (5381) 
72

>  <MASS SPECTRAL PEAKS>  (5381) 
38 1.4
39 2.4
40 1.4
41 0.64
42 3.9
43 12.4
44 99.99
45 0.49
51 1.9
52 0.9
53 1.9
54 0.14
55 5.4
56 4.4
57 13.4
58 0.29
60 1.4
67 1.9
68 1.4
69 0.34
70 3.9
71 6.9
72 1.4
73 0.19
80 0.9
81 1.9
82 1.9
83 0.29
84 2.4
85 3.9
90 0.9
91 0.39
92 0.9
95 0.9
96 1.9
97 0.29
98 2.4
99 1.9
104 0.9
105 0.34
106 0.9
152 1.9
153 0.9
164 0.04
165 1.9
166 0.4
177 0.9
178 0.21
179 0.9
187 0.4
188 1.9
189 0.14
190 1.9
191 0.9
192 0.9
198 0.19
199 0.9
200 0.4
201 2.9
202 0.34
203 1.9
204 1.9
205 0.9
215 0.24
216 1.4
217 1.9
218 1.6
219 0.21
220 2.9
221 0.9
263 2.4
264 0.4

$$$$

     RDKit          2D

 30 33  0  0  0  0  0  0  0  0999 V2000
   -9.4428   12.4568    0.0000 C   0  0  0  0  0  0  0  0  0  0  0  0
   -4.2200    0.4700    0.0000 C   0  0  0  0  0  0  0  0  0  0  0  0
   -4.2200   -1.0300    0.0000 C   0  0  0  0  0  0  0  0  0  0  0  0
   -1.6328    3.4678    0.0000 C   0  0  0  0  0  0  0  0  0  0  0  0
   -2.9200    1.2200    0.0000 C   0  0  0  0  0  0  0  0  0  0  0  0
   -2.9200   -1.7800    0.0000 C   0  0  0  0  0  0  0  0  0  0  0  0
    3.5700   -1.0300    0.0000 C   0  0  0  0  0  0  0  0  0  0  0  0
    2.2700   -1.7800    0.0000 C   0  0  0  0  0  0  0  0  0  0  0  0
   -1.6353    4.9678    0.0000 C   0  0  0  0  0  0  0  0  0  0  0  0
   -0.3325    2.7200    0.0000 C   0  0  0  0  0  0  0  0  0  0  0  0
   -4.2335    4.9637    0.0000 C   0  0  0  0  0  0  0  0  0  0  0  0
   -2.9384    7.2165    0.0000 C   0  0  0  0  0  0  0  0  0  0  0  0
   -5.5342    5.7125    0.0000 C   0  0  0  0  0  0  0  0  0  0  0  0
   -4.2390    7.9653    0.0000 C   0  0  0  0  0  0  0  0  0  0  0  0
   -6.8372    7.9612    0.0000 C   0  0  0  0  0  0  0  0  0  0  0  0
   -6.8397    9.4612    0.0000 C   0  0  0  0  0  0  0  0  0  0  0  0
    2.2700    1.2200    0.0000 C   0  0  0  0  0  0  0  0  0  0  0  0
   -8.1425   11.7090    0.0000 C   0  0  0  0  0  0  0  0  0  0  0  0
    3.5700    0.4700    0.0000 C   0  0  0  0  0  0  0  0  0  0  0  0
   -1.6200    0.4700    0.0000 C   0  0  0  0  0  0  0  0  0  0  0  0
    0.9700    0.4700    0.0000 C   0  0  0  0  0  0  0  0  0  0  0  0
   -1.6200   -1.0300    0.0000 C   0  0  0  0  0  0  0  0  0  0  0  0
    0.9700   -1.0300    0.0000 C   0  0  0  0  0  0  0  0  0  0  0  0
    4.8689    1.2202    0.0000 Cl  0  0  0  0  0  0  0  0  0  0  0  0
   -2.9356    5.7156    0.0000 N   0  0  0  0  0  0  0  0  0  0  0  0
   -5.5369    7.2134    0.0000 N   0  0  0  0  0  0  0  0  0  0  0  0
   -0.3300    1.2200    0.0000 N   0  0  0  0  0  0  0  0  0  0  0  0
   -6.8447   12.4612    0.0000 O   0  0  0  0  0  0  0  0  0  0  0  0
   -8.1400   10.2090    0.0000 O   0  0  0  0  0  0  0  0  0  0  0  0
   -0.3300   -1.7800    0.0000 S   0  0  0  0  0  0  0  0  0  0  0  0
  3  2  2  0
  5  2  1  0
  6  3  1  0
  8  7  1  0
  9  4  1  0
 10  4  1  0
 13 11  1  0
 14 12  1  0
 16 15  1  0
 18  1  1  0
 19  7  2  0
 19 17  1  0
 20  5  2  0
 21 17  2  0
 22  6  2  0
 22 20  1  0
 23  8  2  0
 23 21  1  0
 24 19  1  0
 25  9  1  0
 25 11  1  0
 25 12  1  0
 26 13  1  0
 26 14  1  0
 26 15  1  0
 27 10  1  0
 27 20  1  0
 27 21  1  0
 28 18  2  0
 29 16  1  0
 29 18  1  0
 30 22  1  0
 30 23  1  0
M  END
>  <NAME>  (5382) 
THIOPROPAZATE

>  <SYNONYMS>  (5382) 


>  <SPECTRUM TYPE>  (5382) 
MS1

>  <INSTRUMENT TYPE>  (5382) 
EI-B

>  <INSTRUMENT>  (5382) 
Unknown

>  <ION MODE>  (5382) 
P

>  <INCHIKEY>  (5382) 
AIUHRQHVWSUTGJ-UHFFFAOYSA-N

>  <FORMULA>  (5382) 
C23H28ClN3O2S

>  <EXACT MASS>  (5382) 
445.15907581600004

>  <MW>  (5382) 
445

>  <ID>  (5382) 
JP003857

>  <CONTRIBUTOR>  (5382) 
University of Tokyo Team, {Faculty of Engineering, University of Tokyo

>  <COMMENT>  (5382) 
SMILES=CC(=O)OCCN(C4)CCN(C4)CCCN(c21)c(c3)c(ccc(Cl)3)Sc(cccc2)1
InChI=InChI=1S/C23H28ClN3O2S/c1-18(28)29-16-15-26-13-11-25(12-14-26)9-4-10-27-20-5-2-3-6-22(20)30-23-8-7-19(24)17-21(23)27/h2-3,5-8,17H,4,9-16H2,1H3
computed SMILES=O=C(OCCN1CCN(CC1)CCCN2C=3C=CC=CC3SC4=CC=C(Cl)C=C42)C
accession=JP003857
date=2016.01.19 (Created 2008.10.21, modified 2011.05.06)
author=SASAKI S, TOYOHASHI UNIV. OF TECH.
license=CC BY-NC-SA
exact mass=445.15908
ionization energy=70 eV
ion type=[M]+*
computed spectral entropy=4.211274782531065
computed normalized entropy=0.7933425785200697
SPLASH=splash10-000b-6972100000-07269f16c4216a033299
submitter=submitter = University of Tokyo Team (Faculty of Engineering, University of Tokyo)
MoNA Rating=3.75

>  <NUM PEAKS>  (5382) 
202

>  <MASS SPECTRAL PEAKS>  (5382) 
53 0.9
54 4.9
55 33.9
57 1.39
58 28.9
59 1.9
60 0.9
65 0.09
66 0.9
67 1.9
68 4.9
69 0.99
70 73.9
71 14.9
72 9.9
73 0.39
74 3.9
75 1.9
76 0.9
77 0.29
78 0.9
79 0.4
80 0.9
81 0.19
82 11.9
83 11.9
84 20.9
85 0.59
86 4.9
87 50.9
88 3.9
89 0.14
90 0.4
95 4.9
96 16.9
97 2.59
98 50.9
99 16.4
100 5.9
101 0.19
102 0.9
106 0.4
107 0.9
108 0.19
109 2.9
110 3.9
111 17.9
112 0.89
113 23.9
114 2.9
115 0.9
116 0.64
117 0.9
118 0.4
122 0.9
123 1.19
124 5.9
125 65.9
126 22.9
127 0.59
128 2.9
129 0.9
130 3.9
131 0.09
137 0.9
138 2.4
139 1.9
140 2.79
141 4.4
142 3.9
143 7.9
144 0.84
145 1.9
151 0.9
152 3.9
153 0.69
154 59.9
155 7.9
156 1.9
157 0.09
158 4.9
159 0.9
164 0.9
165 0.19
166 2.9
167 3.9
168 1.9
169 0.29
170 8.9
171 5.9
172 0.9
176 0.04
177 2.4
178 2.9
179 2.9
180 0.29
181 0.9
182 1.9
183 6.9
184 0.39
185 94
186 37.9
187 13.9
188 0.39
189 0.9
192 0.9
193 3.9
194 0.19
195 0.9
196 3.9
197 4.4
198 0.49
199 34.9
200 4.9
201 1.9
202 0.09
203 0.4
213 55.9
214 31.9
215 0.69
216 7.9
217 1.4
218 0.9
222 0.09
223 2.9
224 2.9
225 2.4
226 0.19
227 0.9
232 29.9
233 20.9
234 1.39
235 7.9
236 2.9
237 2.4
238 0.29
239 3.4
240 2.4
241 1.9
242 0.09
243 0.9
244 1.9
245 2.9
246 99.99
247 25.9
248 38.9
249 7.9
250 0.29
251 0.9
258 0.9
259 2.9
260 0.99
261 8.9
262 4.9
263 3.9
264 0.09
270 0.9
271 2.9
272 17.9
273 2.09
274 9.9
275 7.9
276 1.9
277 0.09
301 0.9
302 4.1
303 3.9
304 0.19
305 0.9
313 0.9
314 2.9
315 0.19
316 6.9
317 2.4
318 2.9
319 0.09
329 4.9
330 1.9
331 2.9
332 0.09
349 5.9
350 3.9
351 0.9
357 0.04
358 2.9
359 1.9
371 2.9
372 1.19
373 3.9
374 1.9
384 1.9
385 3.39
386 21.9
387 17.9
388 8.9
389 0.19
444 1.9
445 82
446 17.9
447 3.39
448 3.9
449 1.9

$$$$

     RDKit          2D

 20 22  0  0  0  0  0  0  0  0999 V2000
    4.4312   -1.1792    0.0000 C   0  0  0  0  0  0  0  0  0  0  0  0
   -3.8976    1.8522    0.0000 C   0  0  0  0  0  0  0  0  0  0  0  0
    4.4316    0.3217    0.0000 C   0  0  0  0  0  0  0  0  0  0  0  0
    3.1316   -1.9300    0.0000 C   0  0  0  0  0  0  0  0  0  0  0  0
   -3.3847    0.4418    0.0000 C   0  0  0  0  0  0  0  0  0  0  0  0
   -2.9332    3.0023    0.0000 C   0  0  0  0  0  0  0  0  0  0  0  0
    3.1326    1.0717    0.0000 C   0  0  0  0  0  0  0  0  0  0  0  0
    1.8326   -1.1800    0.0000 C   0  0  0  0  0  0  0  0  0  0  0  0
   -1.9075    0.1813    0.0000 C   0  0  0  0  0  0  0  0  0  0  0  0
   -1.4560    2.7418    0.0000 C   0  0  0  0  0  0  0  0  0  0  0  0
   -0.7660    3.3208    0.0000 C   0  0  0  0  0  0  0  0  0  0  0  0
    1.8340    3.3208    0.0000 C   0  0  0  0  0  0  0  0  0  0  0  0
   -0.7660    4.8208    0.0000 C   0  0  0  0  0  0  0  0  0  0  0  0
    1.8340    4.8208    0.0000 C   0  0  0  0  0  0  0  0  0  0  0  0
    1.8331    0.3208    0.0000 C   0  0  0  0  0  0  0  0  0  0  0  0
   -0.9432    1.3313    0.0000 C   0  0  0  0  0  0  0  0  0  0  0  0
    0.5340    2.5708    0.0000 C   0  0  0  0  0  0  0  0  0  0  0  0
    0.5340    1.0708    0.0000 C   0  0  0  0  0  0  0  0  0  0  0  0
    0.5340    5.5708    0.0000 N   0  0  0  0  0  0  0  0  0  0  0  0
    0.0210   -0.3387    0.0000 O   0  0  0  0  0  0  0  0  0  0  0  0
  3  1  2  0
  4  1  1  0
  5  2  2  0
  6  2  1  0
  7  3  1  0
  8  4  2  0
  9  5  1  0
 10  6  2  0
 13 11  1  0
 14 12  1  0
 15  7  2  0
 15  8  1  0
 16  9  2  0
 16 10  1  0
 17 11  1  0
 17 12  1  0
 18 15  1  0
 18 16  1  0
 18 17  1  0
 19 13  1  0
 19 14  1  0
 20 18  1  0
M  END
>  <NAME>  (5383) 
AZACYCLONOL

>  <SYNONYMS>  (5383) 
ALPHA,ALPHA-DIPHENYL-4-PIPERIDINEMETHANOL

>  <SPECTRUM TYPE>  (5383) 
MS1

>  <INSTRUMENT TYPE>  (5383) 
EI-B

>  <INSTRUMENT>  (5383) 
Unknown

>  <ION MODE>  (5383) 
P

>  <INCHIKEY>  (5383) 
ZMISODWVFHHWNR-UHFFFAOYSA-N

>  <FORMULA>  (5383) 
C18H21NO

>  <EXACT MASS>  (5383) 
267.162314292

>  <MW>  (5383) 
267

>  <ID>  (5383) 
JP003856

>  <CONTRIBUTOR>  (5383) 
University of Tokyo Team, {Faculty of Engineering, University of Tokyo

>  <COMMENT>  (5383) 
SMILES=N(C3)CCC(C3)C(O)(c(c2)cccc2)c(c1)cccc1
InChI=InChI=1S/C18H21NO/c20-18(15-7-3-1-4-8-15,16-9-5-2-6-10-16)17-11-13-19-14-12-17/h1-10,17,19-20H,11-14H2
computed SMILES=OC(C=1C=CC=CC1)(C=2C=CC=CC2)C3CCNCC3
accession=JP003856
date=2016.01.19 (Created 2008.10.21, modified 2011.05.06)
author=SASAKI S, TOYOHASHI UNIV. OF TECH.
license=CC BY-NC-SA
exact mass=267.16231
ionization energy=70 eV
ion type=[M]+*
computed spectral entropy=2.7148543121950626
computed normalized entropy=0.6744390355862916
SPLASH=splash10-053i-9600000000-759ea6880c668530ef20
submitter=submitter = University of Tokyo Team (Faculty of Engineering, University of Tokyo)
MoNA Rating=3.75

>  <NUM PEAKS>  (5383) 
56

>  <MASS SPECTRAL PEAKS>  (5383) 
50 0.9
51 5.9
52 1.9
53 0.39
54 3.9
55 18.9
56 18.9
57 0.79
58 2.9
59 0.9
75 0.9
76 0.29
77 22.9
78 3.9
79 1.9
80 0.29
81 1.9
82 5.9
83 5.9
84 7.49
85 99.99
86 6.9
87 0.4
90 0.04
91 5.9
92 1.9
105 0.9
106 0.19
107 43.9
108 4.9
109 0.9
115 0.29
116 0.9
117 0.9
126 0.9
127 0.19
128 3.9
129 3.9
179 0.4
180 0.09
181 1.9
182 2.4
183 70.9
184 1.19
185 2.4
189 2.4
190 4.9
191 0.24
192 0.9
247 0.9
248 3.9
249 0.19
250 0.4
266 0.9
267 5.9
268 0.9

$$$$

     RDKit          2D

 20 22  0  0  0  0  0  0  0  0999 V2000
    2.5981   -7.1400    0.0000 C   0  0  0  0  0  0  0  0  0  0  0  0
    4.2200    0.4000    0.0000 C   0  0  0  0  0  0  0  0  0  0  0  0
   -4.2200    0.4000    0.0000 C   0  0  0  0  0  0  0  0  0  0  0  0
    3.8800   -1.0600    0.0000 C   0  0  0  0  0  0  0  0  0  0  0  0
   -3.8800   -1.0600    0.0000 C   0  0  0  0  0  0  0  0  0  0  0  0
    1.2990   -3.3900    0.0000 C   0  0  0  0  0  0  0  0  0  0  0  0
    3.1200    1.4200    0.0000 C   0  0  0  0  0  0  0  0  0  0  0  0
   -3.1200    1.4200    0.0000 C   0  0  0  0  0  0  0  0  0  0  0  0
    2.4500   -1.5100    0.0000 C   0  0  0  0  0  0  0  0  0  0  0  0
   -2.4500   -1.5100    0.0000 C   0  0  0  0  0  0  0  0  0  0  0  0
    0.7500    2.1500    0.0000 C   0  0  0  0  0  0  0  0  0  0  0  0
   -0.7500    2.1500    0.0000 C   0  0  0  0  0  0  0  0  0  0  0  0
    1.2990   -4.8900    0.0000 C   0  0  0  0  0  0  0  0  0  0  0  0
   -0.0000   -2.6400    0.0000 C   0  0  0  0  0  0  0  0  0  0  0  0
    1.6900    0.9800    0.0000 C   0  0  0  0  0  0  0  0  0  0  0  0
   -1.6900    0.9800    0.0000 C   0  0  0  0  0  0  0  0  0  0  0  0
    1.3500   -0.4900    0.0000 C   0  0  0  0  0  0  0  0  0  0  0  0
   -1.3500   -0.4900    0.0000 C   0  0  0  0  0  0  0  0  0  0  0  0
    2.5981   -5.6400    0.0000 N   0  0  0  0  0  0  0  0  0  0  0  0
    0.0000   -1.1400    0.0000 N   0  0  0  0  0  0  0  0  0  0  0  0
  4  2  2  0
  5  3  2  0
  7  2  1  0
  8  3  1  0
  9  4  1  0
 10  5  1  0
 12 11  1  0
 13  6  1  0
 14  6  1  0
 15  7  2  0
 15 11  1  0
 16  8  2  0
 16 12  1  0
 17  9  2  0
 17 15  1  0
 18 10  2  0
 18 16  1  0
 19  1  1  0
 19 13  1  0
 20 14  1  0
 20 17  1  0
 20 18  1  0
M  END
>  <NAME>  (5384) 
DESIPRAMINE

>  <SYNONYMS>  (5384) 


>  <SPECTRUM TYPE>  (5384) 
MS1

>  <INSTRUMENT TYPE>  (5384) 
EI-B

>  <INSTRUMENT>  (5384) 
Unknown

>  <ION MODE>  (5384) 
P

>  <INCHIKEY>  (5384) 
HCYAFALTSJYZDH-UHFFFAOYSA-N

>  <FORMULA>  (5384) 
C18H22N2

>  <EXACT MASS>  (5384) 
266.178298704

>  <MW>  (5384) 
266

>  <ID>  (5384) 
JP003855

>  <CONTRIBUTOR>  (5384) 
University of Tokyo Team, {Faculty of Engineering, University of Tokyo

>  <COMMENT>  (5384) 
SMILES=CNCCCN(c21)c(c3)c(ccc3)CCc(cccc2)1
InChI=InChI=1S/C18H22N2/c1-19-13-6-14-20-17-9-4-2-7-15(17)11-12-16-8-3-5-10-18(16)20/h2-5,7-10,19H,6,11-14H2,1H3
computed SMILES=C=1C=CC2=C(C1)N(C=3C=CC=CC3CC2)CCCNC
accession=JP003855
date=2016.01.19 (Created 2008.10.21, modified 2011.05.06)
author=SASAKI S, TOYOHASHI UNIV. OF TECH.
license=CC BY-NC-SA
exact mass=266.1783
ionization energy=70 eV
ion type=[M]+*
computed spectral entropy=3.822351625165838
computed normalized entropy=0.8012165812771487
SPLASH=splash10-0544-7980000000-e155fe1ae5cd0aa22da3
submitter=submitter = University of Tokyo Team (Faculty of Engineering, University of Tokyo)
MoNA Rating=3.75

>  <NUM PEAKS>  (5384) 
118

>  <MASS SPECTRAL PEAKS>  (5384) 
40 2.4
41 7.9
42 14.4
43 0.59
44 50.9
45 2.9
55 4.9
56 0.64
57 6.9
58 36.9
59 1.9
65 0.49
67 2.9
68 2.9
69 2.1
70 1.39
71 41.9
72 9.9
73 1.9
77 0.89
78 3.9
79 1.9
82 7.9
83 1.09
84 56.9
85 4.9
86 1.4
89 0.79
90 4.4
91 13.9
92 1.9
96 0.59
97 5.9
98 6.9
99 15.9
100 0.44
104 3.9
105 3.4
106 7.4
107 0.49
114 6.4
115 5.9
116 3.9
117 0.79
118 6.9
124 6.9
125 2.9
126 0.09
127 2.4
128 4.4
129 5.4
130 2.09
131 4.9
132 1.9
133 5.4
139 0.39
140 9.9
141 3.4
142 1.9
143 0.29
144 2.9
150 0.4
151 3.4
152 0.79
153 3.4
154 2.9
163 2.9
164 0.24
165 16.4
166 7.9
167 17.4
168 0.49
176 2.9
177 3.9
178 9.4
179 1.24
180 15.9
181 3.9
182 0.9
183 0.09
190 3.4
191 7.9
192 17.9
193 6.99
194 58.4
195 99.99
196 18.4
197 0.27
198 3.4
199 2.9
200 2.4
201 0.34
202 1.9
203 2.4
204 8.4
205 0.54
206 17.4
207 7.9
208 69.9
217 0.29
218 6.9
219 3.9
220 21.4
221 0.89
222 12.9
223 3.9
232 0.4
233 0.49
234 77.9
235 94
236 17.9
237 0.24
256 3.9
264 1.4
265 1.9
266 6.39
267 11.9
268 1.9

$$$$

     RDKit          2D

 21 23  0  0  0  0  0  0  0  0999 V2000
    2.5981   -7.1400    0.0000 C   0  0  0  0  0  0  0  0  0  0  0  0
    3.8971   -4.8900    0.0000 C   0  0  0  0  0  0  0  0  0  0  0  0
    4.2200    0.4000    0.0000 C   0  0  0  0  0  0  0  0  0  0  0  0
   -4.2200    0.4000    0.0000 C   0  0  0  0  0  0  0  0  0  0  0  0
    3.8800   -1.0600    0.0000 C   0  0  0  0  0  0  0  0  0  0  0  0
   -3.8800   -1.0600    0.0000 C   0  0  0  0  0  0  0  0  0  0  0  0
    1.2990   -3.3900    0.0000 C   0  0  0  0  0  0  0  0  0  0  0  0
    3.1200    1.4200    0.0000 C   0  0  0  0  0  0  0  0  0  0  0  0
   -3.1200    1.4200    0.0000 C   0  0  0  0  0  0  0  0  0  0  0  0
    2.4500   -1.5100    0.0000 C   0  0  0  0  0  0  0  0  0  0  0  0
   -2.4500   -1.5100    0.0000 C   0  0  0  0  0  0  0  0  0  0  0  0
   -0.0000   -2.6400    0.0000 C   0  0  0  0  0  0  0  0  0  0  0  0
    0.7500    2.1500    0.0000 C   0  0  0  0  0  0  0  0  0  0  0  0
   -0.7500    2.1500    0.0000 C   0  0  0  0  0  0  0  0  0  0  0  0
    1.2990   -4.8900    0.0000 C   0  0  0  0  0  0  0  0  0  0  0  0
    1.6900    0.9800    0.0000 C   0  0  0  0  0  0  0  0  0  0  0  0
   -1.6900    0.9800    0.0000 C   0  0  0  0  0  0  0  0  0  0  0  0
    1.3500   -0.4900    0.0000 C   0  0  0  0  0  0  0  0  0  0  0  0
   -1.3500   -0.4900    0.0000 C   0  0  0  0  0  0  0  0  0  0  0  0
    0.0000   -1.1400    0.0000 C   0  0  0  0  0  0  0  0  0  0  0  0
    2.5981   -5.6400    0.0000 N   0  0  0  0  0  0  0  0  0  0  0  0
  5  3  2  0
  6  4  2  0
  8  3  1  0
  9  4  1  0
 10  5  1  0
 11  6  1  0
 12  7  1  0
 14 13  1  0
 15  7  1  0
 16  8  2  0
 16 13  1  0
 17  9  2  0
 17 14  1  0
 18 10  2  0
 18 16  1  0
 19 11  2  0
 19 17  1  0
 20 12  2  3
 20 18  1  0
 20 19  1  0
 21  1  1  0
 21  2  1  0
 21 15  1  0
M  END
>  <NAME>  (5385) 
AMITRIPTYLINE

>  <SYNONYMS>  (5385) 


>  <SPECTRUM TYPE>  (5385) 
MS1

>  <INSTRUMENT TYPE>  (5385) 
EI-B

>  <INSTRUMENT>  (5385) 
Unknown

>  <ION MODE>  (5385) 
P

>  <INCHIKEY>  (5385) 
KRMDCWKBEZIMAB-UHFFFAOYSA-N

>  <FORMULA>  (5385) 
C20H23N

>  <EXACT MASS>  (5385) 
277.183049736

>  <MW>  (5385) 
277

>  <ID>  (5385) 
JP003854

>  <CONTRIBUTOR>  (5385) 
University of Tokyo Team, {Faculty of Engineering, University of Tokyo

>  <COMMENT>  (5385) 
SMILES=CN(C)CCC=C(c21)c(c3)c(ccc3)CCc(cccc2)1
InChI=InChI=1S/C20H23N/c1-21(2)15-7-12-20-18-10-5-3-8-16(18)13-14-17-9-4-6-11-19(17)20/h3-6,8-12H,7,13-15H2,1-2H3
computed SMILES=C=1C=CC2=C(C1)C(=CCCN(C)C)C=3C=CC=CC3CC2
accession=JP003854
date=2016.01.19 (Created 2008.10.21, modified 2011.05.06)
author=SASAKI S, TOYOHASHI UNIV. OF TECH.
license=CC BY-NC-SA
exact mass=277.18305
ionization energy=70 eV
ion type=[M]+*
computed spectral entropy=1.28223543928745
computed normalized entropy=0.38079084940172914
SPLASH=splash10-0a4i-9010000000-2afae55587735e5a8ce1
submitter=submitter = University of Tokyo Team (Faculty of Engineering, University of Tokyo)
MoNA Rating=3.75

>  <NUM PEAKS>  (5385) 
29

>  <MASS SPECTRAL PEAKS>  (5385) 
56 1.4
57 1.4
58 99.99
59 0.54
91 2.4
115 1.4
128 1.4
141 0.09
152 0.9
165 1.1
178 1.7
179 0.09
189 1.4
191 1.1
192 0.9
193 0.09
194 0.4
202 3.1
203 2.4
204 0.16
205 1.1
206 0.9
207 0.9
215 0.24
216 1.1
217 1.9
218 2.1
219 0.16
220 0.9

$$$$

     RDKit          2D

 22 26  0  0  1  0  0  0  0  0999 V2000
    1.9589    3.8202    0.0000 C   0  0  0  0  0  0  0  0  0  0  0  0
    3.8584   -2.8155    0.0000 C   0  0  0  0  0  0  0  0  0  0  0  0
    0.6500   -2.9200    0.0000 C   0  0  0  0  0  0  0  0  0  0  0  0
   -0.6600   -3.6600    0.0000 C   0  0  0  0  0  0  0  0  0  0  0  0
    0.6700    0.0800    0.0000 C   0  0  0  0  0  0  0  0  0  0  0  0
    3.2500    0.0800    0.0000 C   0  0  0  0  0  0  0  0  0  0  0  0
   -0.6400    3.8200    0.0000 C   0  0  0  0  0  0  0  0  0  0  0  0
    1.9700    0.8100    0.0000 C   0  0  0  0  0  0  0  0  0  0  0  0
    0.6600    3.0700    0.0000 C   0  0  0  0  0  0  0  0  0  0  0  0
    0.6600    1.5700    0.0000 C   0  0  0  0  0  0  0  0  0  0  0  0
    0.6600   -1.4300    0.0000 C   0  0  0  0  0  0  0  0  0  0  0  0
    1.9600   -0.6800    0.0000 C   0  0  0  0  0  0  0  0  0  0  0  0
   -1.9500   -2.8900    0.0000 C   0  0  0  0  0  0  0  0  0  0  0  0
   -1.9400    3.0700    0.0000 C   0  0  0  0  0  0  0  0  0  0  0  0
   -0.6400    0.8200    0.0000 C   0  0  0  0  0  0  0  0  0  0  0  0
   -1.9400    1.5700    0.0000 C   0  0  0  0  0  0  0  0  0  0  0  0
   -1.9300   -1.4100    0.0000 C   0  0  0  0  0  0  0  0  0  0  0  0
   -0.6300   -0.6700    0.0000 C   0  0  0  0  0  0  0  0  0  0  0  0
    3.2600   -1.4400    0.0000 N   0  0  0  0  0  0  0  0  0  0  0  0
   -3.2594   -3.6217    0.0000 O   0  0  0  0  0  0  0  0  0  0  0  0
   -3.2389    3.8202    0.0000 O   0  0  0  0  0  0  0  0  0  0  0  0
   -3.4300    0.1900    0.0000 O   0  0  0  0  0  0  0  0  0  0  0  0
  4  3  2  0
  6  5  1  0
  9  1  1  0
  9  7  2  0
 10  8  1  0
 10  9  1  0
 11  3  1  6
 12  8  1  0
 12 11  1  0
 13  4  1  0
 14  7  1  0
 15 10  2  0
 16 14  2  0
 16 15  1  0
 17 13  1  0
 18  5  1  1
 18 11  1  0
 18 15  1  0
 18 17  1  0
 19  2  1  0
 19  6  1  0
 19 12  1  0
 13 20  1  6
 21 14  1  0
 22 16  1  0
 17 22  1  6
M  END
>  <NAME>  (5386) 
CODEINE

>  <SYNONYMS>  (5386) 
METHYLMORPHINE

>  <SPECTRUM TYPE>  (5386) 
MS1

>  <INSTRUMENT TYPE>  (5386) 
EI-B

>  <INSTRUMENT>  (5386) 
Unknown

>  <ION MODE>  (5386) 
P

>  <INCHIKEY>  (5386) 
VULIEHRIVFMVDQ-OJHGLTBHSA-N

>  <FORMULA>  (5386) 
C18H21NO3

>  <EXACT MASS>  (5386) 
299.152143532

>  <MW>  (5386) 
299

>  <ID>  (5386) 
JP003853

>  <CONTRIBUTOR>  (5386) 
University of Tokyo Team, {Faculty of Engineering, University of Tokyo

>  <COMMENT>  (5386) 
SMILES=CN(C5)C(C3)C([H])(C=4)C(C5)(C(C(O)C4)1)c(c23)c(c(O)cc(C)2)O1
InChI=InChI=1S/C18H21NO3/c1-9-7-14(21)16-15-10(9)8-12-11-3-4-13(20)17(22-16)18(11,15)5-6-19(12)2/h3-4,7,11-13,17,20-21H,5-6,8H2,1-2H3/t11-,12?,13-,17-,18-/m0/s1
computed SMILES=OC=1C=C(C2=C3C1OC4C(O)C=CC5C(N(C)CCC345)C2)C
accession=JP003853
date=2016.01.19 (Created 2008.10.21, modified 2011.05.06)
author=SASAKI S, TOYOHASHI UNIV. OF TECH.
license=CC BY-NC-SA
exact mass=299.15214
ionization energy=70 eV
ion type=[M]+*
computed spectral entropy=4.7582620308213075
computed normalized entropy=0.8586962146889312
SPLASH=splash10-01ot-5890000000-4e0cbccaf312004d7af9
submitter=submitter = University of Tokyo Team (Faculty of Engineering, University of Tokyo)
MoNA Rating=3.75

>  <NUM PEAKS>  (5386) 
255

>  <MASS SPECTRAL PEAKS>  (5386) 
26 1.2
27 4.9
28 8.2
29 0.36
30 7.2
31 10.1
32 1.1
35 0.11
36 1
37 0.9
38 1.1
39 0.66
40 1.4
41 5.3
42 34.1
43 0.42
44 18
45 1.6
47 1.4
48 0.04
49 1.2
50 1.7
51 4.2
52 0.18
53 4.8
54 1.8
55 5.5
56 0.26
57 4
58 4.4
59 15
60 0.16
61 0.1
62 1.1
63 3.2
64 0.18
65 5.1
66 2
67 3
68 0.26
69 1.6
70 9.3
71 2.3
72 0.16
73 0.4
74 1.4
75 2.1
76 0.26
77 8.4
78 3.2
79 2.8
80 0.21
81 10.6
82 5.2
83 3
84 0.14
85 1.9
86 1.4
87 1.1
88 0.12
89 3.9
90 1.6
91 7.1
92 0.02
93 1.8
94 7.7
95 2.6
96 0.68
97 2.1
98 1
99 1
100 0.04
101 2.1
102 2.9
103 5.4
104 0.02
105 2.6
106 2
107 2.2
108 0.21
109 4
110 2
111 1
112 0.14
113 1.8
114 2.6
115 17
116 0.52
117 4.7
118 2.8
119 2.6
120 0.02
121 1.8
122 2
123 2
124 0.21
125 2.8
126 2
127 7.1
128 0.91
129 5.4
130 2.6
131 5.2
132 0.32
133 2.8
134 3.2
135 1.4
136 0.26
137 1.4
138 1.8
139 5.2
140 0.29
141 7.3
142 2.9
143 3.6
144 0.59
145 5
146 10
147 3.4
148 0.24
149 2
150 1.8
151 3
152 0.9
153 7.1
154 3
155 5.4
156 0.03
157 4.6
158 4
159 4.4
160 0.39
161 6.6
162 51.4
163 7.6
164 0.26
165 7.3
166 3.2
167 4
168 0.58
169 6.4
170 4.4
171 4.8
172 0.29
173 6.1
174 4
175 9
176 0.49
177 3.4
178 6.8
179 4.4
180 0.26
181 9.1
182 4.6
183 5
184 0.44
185 8
186 5.4
187 6
188 2.04
189 5.4
190 3.8
191 2.1
192 0.18
193 2.4
194 2.7
195 4.6
196 0.41
197 8.2
198 7.2
199 7.9
200 0.48
201 4.1
202 4.1
203 1.8
204 0.22
205 1.7
206 1.8
207 2.6
208 0.22
209 6.4
210 4.5
211 6.7
212 0.64
213 7.1
214 24.9
215 6.8
216 0.44
217 3.4
218 2.9
219 3.6
220 0.18
221 1.4
222 2
223 1
224 0.39
225 11
226 5.9
227 5.4
228 0.07
229 39.8
230 12.4
231 2.6
232 0.01
233 1
234 1.3
235 1.4
236 0.17
237 1.8
238 4
239 3.6
240 0.69
241 7.4
242 14.9
243 4.9
244 0.19
245 1.5
246 0.7
247 0.4
248 0.01
249 1
250 1.9
251 2
252 0.34
253 2.1
254 4
255 3.1
256 0.86
257 2.2
258 1.1
262 1.2
263 0.01
264 1.5
265 1.5
266 4.7
267 0.03
268 3
269 1.4
270 6.8
271 0.03
272 2
280 9.9
281 5
282 1.34
283 4
284 9.2
285 2.4
286 0.01
296 1
297 3
298 15.1
299 99.99
300 21.3
301 3
302 1

$$$$

     RDKit          2D

 17 18  0  0  0  0  0  0  0  0999 V2000
   -3.6418    1.7850    0.0000 C   0  0  0  0  0  0  0  0  0  0  0  0
    9.3120    4.3705    0.0000 C   0  0  0  0  0  0  0  0  0  0  0  0
    8.0128    5.1219    0.0000 C   0  0  0  0  0  0  0  0  0  0  0  0
    9.3118    2.8697    0.0000 C   0  0  0  0  0  0  0  0  0  0  0  0
    6.7134    4.3725    0.0000 C   0  0  0  0  0  0  0  0  0  0  0  0
    8.0124    2.1203    0.0000 C   0  0  0  0  0  0  0  0  0  0  0  0
   -1.1526    2.7346    0.0000 C   0  0  0  0  0  0  0  0  0  0  0  0
    5.4139    2.1222    0.0000 C   0  0  0  0  0  0  0  0  0  0  0  0
   -2.1504    1.6245    0.0000 C   0  0  0  0  0  0  0  0  0  0  0  0
    6.7132    2.8717    0.0000 C   0  0  0  0  0  0  0  0  0  0  0  0
    0.2177    2.1245    0.0000 C   0  0  0  0  0  0  0  0  0  0  0  0
    1.5171    2.8740    0.0000 C   0  0  0  0  0  0  0  0  0  0  0  0
    4.1151    2.8728    0.0000 N   0  0  0  0  0  0  0  0  0  0  0  0
    2.8158    2.1234    0.0000 N   0  0  0  0  0  0  0  0  0  0  0  0
    0.0604    0.6402    0.0000 N   0  0  0  0  0  0  0  0  0  0  0  0
    1.5177    4.3740    0.0000 O   0  0  0  0  0  0  0  0  0  0  0  0
   -1.4070    0.3193    0.0000 O   0  0  0  0  0  0  0  0  0  0  0  0
  3  2  2  0
  4  2  1  0
  5  3  1  0
  6  4  2  0
  9  1  1  0
  9  7  2  0
 10  5  2  0
 10  6  1  0
 10  8  1  0
 11  7  1  0
 12 11  1  0
 13  8  1  0
 14 12  1  0
 14 13  1  0
 15 11  2  0
 16 12  2  0
 17  9  1  0
 17 15  1  0
M  END
>  <NAME>  (5387) 
3-(2-BENZYLHYDRAZOCARBOXY)-5-METHYL-ISOXAZOLE

>  <SYNONYMS>  (5387) 
ISOCARBOXAZID

>  <SPECTRUM TYPE>  (5387) 
MS1

>  <INSTRUMENT TYPE>  (5387) 
EI-B

>  <INSTRUMENT>  (5387) 
Unknown

>  <ION MODE>  (5387) 
P

>  <INCHIKEY>  (5387) 
XKFPYPQQHFEXRZ-UHFFFAOYSA-N

>  <FORMULA>  (5387) 
C12H13N3O2

>  <EXACT MASS>  (5387) 
231.100776656

>  <MW>  (5387) 
231

>  <ID>  (5387) 
JP003852

>  <CONTRIBUTOR>  (5387) 
University of Tokyo Team, {Faculty of Engineering, University of Tokyo

>  <COMMENT>  (5387) 
SMILES=Cc(o2)cc(n2)C(=O)NNCc(c1)cccc1
InChI=InChI=1S/C12H13N3O2/c1-9-7-11(15-17-9)12(16)14-13-8-10-5-3-2-4-6-10/h2-7,13H,8H2,1H3,(H,14,16)
computed SMILES=O=C(NNCC=1C=CC=CC1)C2=NOC(=C2)C
accession=JP003852
date=2016.01.19 (Created 2008.10.21, modified 2011.05.06)
author=SASAKI S, TOYOHASHI UNIV. OF TECH.
license=CC BY-NC-SA
exact mass=231.10078
ionization energy=70 eV
ion type=[M]+*
computed spectral entropy=3.2826091759988905
computed normalized entropy=0.7985185837510528
SPLASH=splash10-0006-9600000000-952a7c1093fe532d1df3
submitter=submitter = University of Tokyo Team (Faculty of Engineering, University of Tokyo)
MoNA Rating=3.75

>  <NUM PEAKS>  (5387) 
61

>  <MASS SPECTRAL PEAKS>  (5387) 
54 2.4
55 8.9
56 6.4
57 1.59
58 5.9
65 12.9
66 2.9
67 0.29
68 7.9
69 7.9
70 7.9
71 1.19
77 9.9
78 6.4
79 6.9
80 0.29
81 2.9
82 2.9
83 6.4
84 0.91
85 6.9
89 2.9
90 3.4
91 99.99
92 13.9
93 2.9
94 0.4
95 0.39
96 2.9
97 3.9
98 2.9
103 0.79
104 12.9
105 11.9
106 31.9
107 0.79
109 2.9
110 17.9
111 4.4
112 1.24
113 8.4
119 3.9
120 6.9
121 0.39
122 3.9
123 1.9
125 2.4
126 0.29
127 31.9
128 4.9
129 1.9
147 0.29
148 3.4
149 4.4
150 2.4
185 0.49
186 0.9
188 3.9
189 3.9
231 0.69
232 2.4

$$$$

     RDKit          2D

 22 24  0  0  0  0  0  0  0  0999 V2000
   -0.6729    8.6754    0.0000 C   0  0  0  0  0  0  0  0  0  0  0  0
   -1.9729    7.9254    0.0000 C   0  0  0  0  0  0  0  0  0  0  0  0
    0.6271    7.9254    0.0000 C   0  0  0  0  0  0  0  0  0  0  0  0
    4.8497    1.6209    0.0000 C   0  0  0  0  0  0  0  0  0  0  0  0
    5.5997    2.9199    0.0000 C   0  0  0  0  0  0  0  0  0  0  0  0
   -1.9729    6.4254    0.0000 C   0  0  0  0  0  0  0  0  0  0  0  0
    0.6271    6.4254    0.0000 C   0  0  0  0  0  0  0  0  0  0  0  0
   -3.2730    5.6589    0.0000 C   0  0  0  0  0  0  0  0  0  0  0  0
   -4.5793    3.4224    0.0000 C   0  0  0  0  0  0  0  0  0  0  0  0
   -4.5683    6.4154    0.0000 C   0  0  0  0  0  0  0  0  0  0  0  0
   -5.8745    4.1790    0.0000 C   0  0  0  0  0  0  0  0  0  0  0  0
    0.6261    3.4254    0.0000 C   0  0  0  0  0  0  0  0  0  0  0  0
    3.3813    1.9375    0.0000 C   0  0  0  0  0  0  0  0  0  0  0  0
    4.5913    4.0333    0.0000 C   0  0  0  0  0  0  0  0  0  0  0  0
    1.9252    4.1754    0.0000 C   0  0  0  0  0  0  0  0  0  0  0  0
   -1.9719    3.4254    0.0000 C   0  0  0  0  0  0  0  0  0  0  0  0
   -3.2710    4.1754    0.0000 C   0  0  0  0  0  0  0  0  0  0  0  0
   -0.6729    5.6754    0.0000 C   0  0  0  0  0  0  0  0  0  0  0  0
   -0.6729    4.1754    0.0000 C   0  0  0  0  0  0  0  0  0  0  0  0
   -5.8701    5.6934    0.0000 C   0  0  0  0  0  0  0  0  0  0  0  0
   -7.1615    6.4565    0.0000 Cl  0  0  0  0  0  0  0  0  0  0  0  0
    3.2242    3.4254    0.0000 N   0  0  0  0  0  0  0  0  0  0  0  0
  2  1  2  0
  3  1  1  0
  5  4  1  0
  6  2  1  0
  7  3  2  0
 10  8  2  0
 11  9  1  0
 13  4  1  0
 14  5  1  0
 15 12  1  0
 17  8  1  0
 17  9  2  0
 17 16  1  0
 18  6  2  0
 18  7  1  0
 12 19  2  0
 19 16  1  0
 19 18  1  0
 20 10  1  0
 20 11  2  0
 21 20  1  0
 22 13  1  0
 22 14  1  0
 22 15  1  0
M  END
>  <NAME>  (5388) 
PYRROBUTAMINE

>  <SYNONYMS>  (5388) 


>  <SPECTRUM TYPE>  (5388) 
MS1

>  <INSTRUMENT TYPE>  (5388) 
EI-B

>  <INSTRUMENT>  (5388) 
Unknown

>  <ION MODE>  (5388) 
P

>  <INCHIKEY>  (5388) 
WDYYVNNRTDZKAZ-UNOMPAQXSA-N

>  <FORMULA>  (5388) 
C20H22ClN

>  <EXACT MASS>  (5388) 
311.144077384

>  <MW>  (5388) 
311

>  <ID>  (5388) 
JP003851

>  <CONTRIBUTOR>  (5388) 
University of Tokyo Team, {Faculty of Engineering, University of Tokyo

>  <COMMENT>  (5388) 
SMILES=Clc(c3)ccc(c3)CC(=CCN(C2)CCC2)c(c1)cccc1
InChI=InChI=1S/C20H22ClN/c21-20-10-8-17(9-11-20)16-19(18-6-2-1-3-7-18)12-15-22-13-4-5-14-22/h1-3,6-12H,4-5,13-16H2/b19-12-
computed SMILES=ClC1=CC=C(C=C1)CC(=CCN2CCCC2)C=3C=CC=CC3
accession=JP003851
date=2016.01.19 (Created 2008.10.21, modified 2011.05.06)
author=SASAKI S, TOYOHASHI UNIV. OF TECH.
license=CC BY-NC-SA
exact mass=311.14408
ionization energy=70 eV
ion type=[M]+*
computed spectral entropy=3.557987733679651
computed normalized entropy=0.7987674729970489
SPLASH=splash10-052f-5690000000-f2bffe8c2191b2312db3
submitter=submitter = University of Tokyo Team (Faculty of Engineering, University of Tokyo)
MoNA Rating=3.75

>  <NUM PEAKS>  (5388) 
86

>  <MASS SPECTRAL PEAKS>  (5388) 
55 7.9
56 4.4
57 4.4
58 0.66
67 1.9
68 3.4
69 5.9
70 1.49
71 12.4
72 1.9
75 1.9
76 0.24
77 10.4
78 2.4
82 2.9
83 0.34
84 17.4
85 2.4
89 6.9
90 0.19
91 25.9
92 2.9
96 8.4
97 0.24
98 2.9
101 4.9
102 4.9
103 0.59
104 2.4
105 15.9
106 1.9
115 1.64
116 5.4
117 9.4
118 1.9
125 2.79
126 3.9
127 13.4
128 10.9
129 1.69
130 5.9
131 2.9
132 0.9
162 0.29
163 3.9
164 2.6
165 5.4
166 0.19
176 2.4
177 2.4
178 5.9
179 0.24
184 5.9
185 2.4
186 19.9
187 0.34
188 0.4
189 2.9
190 2.9
191 0.39
192 2.4
200 1.9
201 2.4
202 0.64
203 7.9
204 9.9
205 99.99
206 1.69
207 3.9
208 0.9
238 1.6
239 0.29
240 54.4
241 11.9
242 24.9
243 0.49
244 2.1
306 0.4
307 1.4
308 0.14
309 2.9
310 4.4
311 8.9
312 0.29
313 3.4
314 1.4

$$$$

     RDKit          2D

 13 14  0  0  0  0  0  0  0  0999 V2000
   -2.5989   -1.5002    0.0000 C   0  0  0  0  0  0  0  0  0  0  0  0
   -5.1968    3.0006    0.0000 C   0  0  0  0  0  0  0  0  0  0  0  0
   -5.1975    1.4998    0.0000 C   0  0  0  0  0  0  0  0  0  0  0  0
   -3.8971    3.7512    0.0000 C   0  0  0  0  0  0  0  0  0  0  0  0
   -3.8986    0.7496    0.0000 C   0  0  0  0  0  0  0  0  0  0  0  0
   -2.5982    3.0010    0.0000 C   0  0  0  0  0  0  0  0  0  0  0  0
    1.3000   -0.7500    0.0000 C   0  0  0  0  0  0  0  0  0  0  0  0
    1.3000    0.7500    0.0000 C   0  0  0  0  0  0  0  0  0  0  0  0
   -1.3000   -0.7500    0.0000 C   0  0  0  0  0  0  0  0  0  0  0  0
   -2.5989    1.5002    0.0000 C   0  0  0  0  0  0  0  0  0  0  0  0
   -1.3000    0.7500    0.0000 C   0  0  0  0  0  0  0  0  0  0  0  0
    0.0000   -1.5000    0.0000 N   0  0  0  0  0  0  0  0  0  0  0  0
    0.0000    1.5000    0.0000 O   0  0  0  0  0  0  0  0  0  0  0  0
  3  2  2  0
  4  2  1  0
  5  3  1  0
  6  4  2  0
  8  7  1  0
  9  1  1  0
 10  5  2  0
 10  6  1  0
 11  9  1  0
 11 10  1  0
 12  7  1  0
 12  9  1  0
 13  8  1  0
 13 11  1  0
M  END
>  <NAME>  (5389) 
3-METHYL-2-PHENYL-MORPHOLINE

>  <SYNONYMS>  (5389) 
PHENMETRAZINE

>  <SPECTRUM TYPE>  (5389) 
MS1

>  <INSTRUMENT TYPE>  (5389) 
EI-B

>  <INSTRUMENT>  (5389) 
Unknown

>  <ION MODE>  (5389) 
P

>  <INCHIKEY>  (5389) 
OOBHFESNSZDWIU-UHFFFAOYSA-N

>  <FORMULA>  (5389) 
C11H15NO

>  <EXACT MASS>  (5389) 
177.1153641

>  <MW>  (5389) 
177

>  <ID>  (5389) 
JP003850

>  <CONTRIBUTOR>  (5389) 
University of Tokyo Team, {Faculty of Engineering, University of Tokyo

>  <COMMENT>  (5389) 
SMILES=CC(N2)C(OCC2)c(c1)cccc1
InChI=InChI=1S/C11H15NO/c1-9-11(13-8-7-12-9)10-5-3-2-4-6-10/h2-6,9,11-12H,7-8H2,1H3
computed SMILES=O1CCNC(C)C1C=2C=CC=CC2
accession=JP003850
date=2016.01.19 (Created 2008.10.21, modified 2011.05.06)
license=CC BY-NC-SA
author=SASAKI S, TOYOHASHI UNIV. OF TECH.
exact mass=177.11536
ionization energy=70 eV
ion type=[M]+*
computed spectral entropy=2.2668354644903035
computed normalized entropy=0.6231702466838096
SPLASH=splash10-00di-9100000000-da503eda1d0e6fdabb4c
submitter=submitter = University of Tokyo Team (Faculty of Engineering, University of Tokyo)
MoNA Rating=3.75

>  <NUM PEAKS>  (5389) 
38

>  <MASS SPECTRAL PEAKS>  (5389) 
39 1.9
40 1.4
41 2.9
42 3.44
43 29.9
44 4.9
51 3.9
52 0.24
53 0.9
54 1.4
55 0.9
56 2.99
57 2.9
58 0.4
68 1.4
69 0.19
70 6.4
71 99.99
72 5.1
77 0.69
78 1.9
79 1.9
89 2.4
90 0.19
91 4.9
92 1.9
103 1.4
104 0.09
105 4.9
106 0.9
115 2.4
116 0.09
117 3.9
118 1.9
119 0.4
176 0.04
177 16.4
178 2.4

$$$$

     RDKit          2D

 14 14  0  0  0  0  0  0  0  0999 V2000
    2.5344    0.4468    0.0000 C   0  0  0  0  0  0  0  0  0  0  0  0
    4.5806    1.0062    0.0000 C   0  0  0  0  0  0  0  0  0  0  0  0
    2.9335    3.6470    0.0000 C   0  0  0  0  0  0  0  0  0  0  0  0
   -0.6097    2.4701    0.0000 C   0  0  0  0  0  0  0  0  0  0  0  0
    0.6853    0.2271    0.0000 C   0  0  0  0  0  0  0  0  0  0  0  0
   -1.9087    1.7201    0.0000 C   0  0  0  0  0  0  0  0  0  0  0  0
   -0.6137   -0.5229    0.0000 C   0  0  0  0  0  0  0  0  0  0  0  0
    0.6798    1.7366    0.0000 C   0  0  0  0  0  0  0  0  0  0  0  0
   -1.9269    0.2316    0.0000 C   0  0  0  0  0  0  0  0  0  0  0  0
    3.2779    1.7496    0.0000 C   0  0  0  0  0  0  0  0  0  0  0  0
    1.9751    2.4931    0.0000 C   0  0  0  0  0  0  0  0  0  0  0  0
   -3.2297   -0.5119    0.0000 Cl  0  0  0  0  0  0  0  0  0  0  0  0
    4.0213    3.0524    0.0000 O   0  0  0  0  0  0  0  0  0  0  0  0
    1.0051    3.6373    0.0000 O   0  0  0  0  0  0  0  0  0  0  0  0
  6  4  2  0
  7  5  1  0
  8  4  1  0
  8  5  2  0
  9  6  1  0
  9  7  2  0
 10  1  1  0
 10  2  1  0
 11  3  1  0
 11  8  1  0
 11 10  1  0
 12  9  1  0
 13 10  1  0
 14 11  1  0
M  END
>  <NAME>  (5390) 
PHENAGLYCODOL

>  <SYNONYMS>  (5390) 
2-(4-CHLOROPHENYL)-3-METHYL-2,3-BUTANEDIOL

>  <SPECTRUM TYPE>  (5390) 
MS1

>  <INSTRUMENT TYPE>  (5390) 
EI-B

>  <INSTRUMENT>  (5390) 
Unknown

>  <ION MODE>  (5390) 
P

>  <INCHIKEY>  (5390) 
HTYIXCKSEQQCJO-UHFFFAOYSA-N

>  <FORMULA>  (5390) 
C11H15ClO2

>  <EXACT MASS>  (5390) 
214.0760574

>  <MW>  (5390) 
214

>  <ID>  (5390) 
JP003849

>  <CONTRIBUTOR>  (5390) 
University of Tokyo Team, {Faculty of Engineering, University of Tokyo

>  <COMMENT>  (5390) 
SMILES=Clc(c1)ccc(c1)C(C)(O)C(C)(C)O
InChI=InChI=1S/C11H15ClO2/c1-10(2,13)11(3,14)8-4-6-9(12)7-5-8/h4-7,13-14H,1-3H3
computed SMILES=ClC1=CC=C(C=C1)C(O)(C)C(O)(C)C
accession=JP003849
date=2016.01.19 (Created 2008.10.21, modified 2011.05.06)
author=SASAKI S, TOYOHASHI UNIV. OF TECH.
license=CC BY-NC-SA
exact mass=214.07606
ionization energy=70 eV
ion type=[M]+*
computed spectral entropy=2.6845035201242995
computed normalized entropy=0.7137358921486896
SPLASH=splash10-0a4i-9800000000-d901fb0418e5412b92c0
submitter=submitter = University of Tokyo Team (Faculty of Engineering, University of Tokyo)
MoNA Rating=3.75

>  <NUM PEAKS>  (5390) 
43

>  <MASS SPECTRAL PEAKS>  (5390) 
41 7.9
42 1.9
43 71.9
44 0.24
50 2.9
51 4.9
57 3.9
58 0.49
59 99.99
60 4.9
73 1.4
74 0.19
75 6.9
76 1.9
77 7.9
78 0.24
111 7.4
112 3.9
113 4.9
114 0.19
115 1.9
120 1.9
121 40.9
122 0.39
125 4.9
138 3.4
139 10.9
140 0.24
141 9.9
142 1.4
143 2.9
153 0.69
154 3.4
155 37.9
156 44.9
157 1.49
158 13.9
159 1.9
179 0.9
180 0.19
181 6.9
182 2.4
183 2.9

$$$$

     RDKit          2D

 23 26  0  0  0  0  0  0  0  0999 V2000
   -2.3100   -0.7500    0.0000 C   0  0  0  0  0  0  0  0  0  0  0  0
   -2.3100    0.7500    0.0000 C   0  0  0  0  0  0  0  0  0  0  0  0
    5.3555   -3.6746    0.0000 C   0  0  0  0  0  0  0  0  0  0  0  0
    6.6545   -2.9246    0.0000 C   0  0  0  0  0  0  0  0  0  0  0  0
   -1.0100   -1.5000    0.0000 C   0  0  0  0  0  0  0  0  0  0  0  0
   -1.0100    1.5000    0.0000 C   0  0  0  0  0  0  0  0  0  0  0  0
    4.6457    1.8438    0.0000 C   0  0  0  0  0  0  0  0  0  0  0  0
    4.1231    4.3805    0.0000 C   0  0  0  0  0  0  0  0  0  0  0  0
    6.1149    2.1464    0.0000 C   0  0  0  0  0  0  0  0  0  0  0  0
    5.5922    4.6832    0.0000 C   0  0  0  0  0  0  0  0  0  0  0  0
    4.2421   -2.6661    0.0000 C   0  0  0  0  0  0  0  0  0  0  0  0
    6.3379   -1.4561    0.0000 C   0  0  0  0  0  0  0  0  0  0  0  0
    2.1853    2.6360    0.0000 C   0  0  0  0  0  0  0  0  0  0  0  0
    4.1000   -0.0000    0.0000 C   0  0  0  0  0  0  0  0  0  0  0  0
    3.6529    2.9461    0.0000 C   0  0  0  0  0  0  0  0  0  0  0  0
    6.6010    3.5535    0.0000 C   0  0  0  0  0  0  0  0  0  0  0  0
    0.2900   -0.7500    0.0000 C   0  0  0  0  0  0  0  0  0  0  0  0
    0.2900    0.7500    0.0000 C   0  0  0  0  0  0  0  0  0  0  0  0
    2.6000    0.0000    0.0000 C   0  0  0  0  0  0  0  0  0  0  0  0
    8.0716    3.8487    0.0000 Cl  0  0  0  0  0  0  0  0  0  0  0  0
    1.7200   -1.2100    0.0000 N   0  0  0  0  0  0  0  0  0  0  0  0
    4.8500   -1.2990    0.0000 N   0  0  0  0  0  0  0  0  0  0  0  0
    1.7200    1.2100    0.0000 N   0  0  0  0  0  0  0  0  0  0  0  0
  2  1  2  0
  4  3  1  0
  5  1  1  0
  6  2  1  0
  9  7  2  0
 10  8  1  0
 11  3  1  0
 12  4  1  0
 15  7  1  0
 15  8  2  0
 15 13  1  0
 16  9  1  0
 16 10  2  0
 17  5  2  0
 18  6  2  0
 18 17  1  0
 19 14  1  0
 20 16  1  0
 21 17  1  0
 21 19  2  0
 22 11  1  0
 22 12  1  0
 22 14  1  0
 23 13  1  0
 23 18  1  0
 23 19  1  0
M  END
>  <NAME>  (5391) 
1-(4-CHLOROBENZYL)-2-PYRROLIDINOMETHYL-BENZIMIDAZOLE

>  <SYNONYMS>  (5391) 
CLEMIZOLE

>  <SPECTRUM TYPE>  (5391) 
MS1

>  <INSTRUMENT TYPE>  (5391) 
EI-B

>  <INSTRUMENT>  (5391) 
Unknown

>  <ION MODE>  (5391) 
P

>  <INCHIKEY>  (5391) 
CJXAEXPPLWQRFR-UHFFFAOYSA-N

>  <FORMULA>  (5391) 
C19H20ClN3

>  <EXACT MASS>  (5391) 
325.13457532

>  <MW>  (5391) 
325

>  <ID>  (5391) 
JP003848

>  <CONTRIBUTOR>  (5391) 
University of Tokyo Team, {Faculty of Engineering, University of Tokyo

>  <COMMENT>  (5391) 
SMILES=Clc(c4)ccc(c4)Cn(c(CN(C3)CCC3)1)c(c2)c(ccc2)n1
InChI=InChI=1S/C19H20ClN3/c20-16-9-7-15(8-10-16)13-23-18-6-2-1-5-17(18)21-19(23)14-22-11-3-4-12-22/h1-2,5-10H,3-4,11-14H2
computed SMILES=ClC1=CC=C(C=C1)CN2C=3C=CC=CC3N=C2CN4CCCC4
accession=JP003848
date=2016.01.19 (Created 2008.10.21, modified 2011.05.06)
author=SASAKI S, TOYOHASHI UNIV. OF TECH.
license=CC BY-NC-SA
exact mass=325.13458
ionization energy=70 eV
ion type=[M]+*
computed spectral entropy=2.929633983719208
computed normalized entropy=0.7310682312404866
SPLASH=splash10-0a59-4590000000-80e4b4bc418c0315bfdf
submitter=submitter = University of Tokyo Team (Faculty of Engineering, University of Tokyo)
MoNA Rating=3.75

>  <NUM PEAKS>  (5391) 
55

>  <MASS SPECTRAL PEAKS>  (5391) 
54 1.9
55 11.9
56 6.4
57 1.59
58 13.9
59 6.1
69 5.9
70 0.89
71 10.9
75 2.4
76 2.4
77 0.81
78 2.4
81 2.4
82 3.9
83 0.49
84 7.9
85 5.9
89 7.9
90 0.54
91 6.9
124 0.9
125 38.9
126 0.49
127 11.9
128 1.9
129 1.9
130 0.19
131 70.9
132 10.9
133 1.9
134 0.14
216 0.9
217 2.4
218 6.4
219 0.44
220 3.9
221 2.4
222 0.9
238 0.09
239 1.4
240 7.4
241 1.9
242 0.34
243 0.9
251 0.9
252 4.4
253 0.64
254 53.9
255 99.99
256 31.9
257 3.54
258 6.1
259 1.4
325 1.4

$$$$

     RDKit          2D

 10 10  0  0  0  0  0  0  0  0999 V2000
    2.9231    0.5071    0.0000 C   0  0  0  0  0  0  0  0  0  0  0  0
    2.9236    2.0079    0.0000 C   0  0  0  0  0  0  0  0  0  0  0  0
    1.6236   -0.2437    0.0000 C   0  0  0  0  0  0  0  0  0  0  0  0
    1.6245    2.7579    0.0000 C   0  0  0  0  0  0  0  0  0  0  0  0
    0.3245    0.5063    0.0000 C   0  0  0  0  0  0  0  0  0  0  0  0
   -0.9740    2.7571    0.0000 C   0  0  0  0  0  0  0  0  0  0  0  0
   -2.2731    2.0071    0.0000 C   0  0  0  0  0  0  0  0  0  0  0  0
    0.3250    2.0071    0.0000 C   0  0  0  0  0  0  0  0  0  0  0  0
   -4.8712    2.0071    0.0000 N   0  0  0  0  0  0  0  0  0  0  0  0
   -3.5721    2.7571    0.0000 N   0  0  0  0  0  0  0  0  0  0  0  0
  2  1  2  0
  3  1  1  0
  4  2  1  0
  5  3  2  0
  7  6  1  0
  8  4  2  0
  8  5  1  0
  8  6  1  0
 10  7  1  0
 10  9  1  0
M  END
>  <NAME>  (5392) 
PHENELZINE

>  <SYNONYMS>  (5392) 
(2-PHENETHYL)HYDRAZINE

>  <SPECTRUM TYPE>  (5392) 
MS1

>  <INSTRUMENT TYPE>  (5392) 
EI-B

>  <INSTRUMENT>  (5392) 
Unknown

>  <ION MODE>  (5392) 
P

>  <INCHIKEY>  (5392) 
RMUCZJUITONUFY-UHFFFAOYSA-N

>  <FORMULA>  (5392) 
C8H12N2

>  <EXACT MASS>  (5392) 
136.100048384

>  <MW>  (5392) 
136

>  <ID>  (5392) 
JP003847

>  <CONTRIBUTOR>  (5392) 
University of Tokyo Team, {Faculty of Engineering, University of Tokyo

>  <COMMENT>  (5392) 
SMILES=NNCCc(c1)cccc1
InChI=InChI=1S/C8H12N2/c9-10-7-6-8-4-2-1-3-5-8/h1-5,10H,6-7,9H2
computed SMILES=NNCCC=1C=CC=CC1
accession=JP003847
date=2016.01.19 (Created 2008.10.21, modified 2011.05.06)
author=SASAKI S, TOYOHASHI UNIV. OF TECH.
license=CC BY-NC-SA
exact mass=136.10005
ionization energy=70 eV
ion type=[M]+*
computed spectral entropy=2.8443947347223304
computed normalized entropy=0.7234285038096858
SPLASH=splash10-0a4l-9800000000-fec970db2245559d8531
submitter=submitter = University of Tokyo Team (Faculty of Engineering, University of Tokyo)
MoNA Rating=3.75

>  <NUM PEAKS>  (5392) 
51

>  <MASS SPECTRAL PEAKS>  (5392) 
51 11.9
52 2.9
53 1.9
55 0.29
56 0.9
57 0.9
58 5.9
62 0.19
63 5.4
64 1.9
65 11.9
66 0.14
71 1.4
72 0.9
73 4.4
74 0.19
75 1.4
76 2.9
77 32.4
78 0.79
79 9.4
80 0.9
89 5.9
90 0.59
91 76.4
92 16.4
93 2.4
100 0.14
101 0.9
102 6.9
103 10.9
104 4.84
105 99.99
106 10.4
107 4.9
108 0.04
115 3.4
116 2.9
117 9.4
118 0.64
119 4.4
120 5.9
121 1.9
122 0.39
130 2.4
131 10.9
132 4.4
133 2.49
134 6.9
135 1.9
136 0.9

$$$$

     RDKit          2D

 22 24  0  0  0  0  0  0  0  0999 V2000
   -2.5981    7.3000    0.0000 C   0  0  0  0  0  0  0  0  0  0  0  0
    0.0000    7.3000    0.0000 C   0  0  0  0  0  0  0  0  0  0  0  0
   -2.5981    2.8000    0.0000 C   0  0  0  0  0  0  0  0  0  0  0  0
   -2.5981    5.8000    0.0000 C   0  0  0  0  0  0  0  0  0  0  0  0
    0.0000    5.8000    0.0000 C   0  0  0  0  0  0  0  0  0  0  0  0
    3.9000    0.5500    0.0000 C   0  0  0  0  0  0  0  0  0  0  0  0
   -3.9000    0.5500    0.0000 C   0  0  0  0  0  0  0  0  0  0  0  0
    3.9000   -0.9500    0.0000 C   0  0  0  0  0  0  0  0  0  0  0  0
   -3.9000   -0.9500    0.0000 C   0  0  0  0  0  0  0  0  0  0  0  0
    2.6000    1.3000    0.0000 C   0  0  0  0  0  0  0  0  0  0  0  0
   -2.6000    1.3000    0.0000 C   0  0  0  0  0  0  0  0  0  0  0  0
    2.6000   -1.7000    0.0000 C   0  0  0  0  0  0  0  0  0  0  0  0
   -2.6000   -1.7000    0.0000 C   0  0  0  0  0  0  0  0  0  0  0  0
    0.0000    2.8000    0.0000 C   0  0  0  0  0  0  0  0  0  0  0  0
   -1.2990    3.5500    0.0000 C   0  0  0  0  0  0  0  0  0  0  0  0
    1.3000    0.5500    0.0000 C   0  0  0  0  0  0  0  0  0  0  0  0
   -1.3000    0.5500    0.0000 C   0  0  0  0  0  0  0  0  0  0  0  0
    1.3000   -0.9500    0.0000 C   0  0  0  0  0  0  0  0  0  0  0  0
   -1.3000   -0.9500    0.0000 C   0  0  0  0  0  0  0  0  0  0  0  0
   -1.2990    5.0500    0.0000 N   0  0  0  0  0  0  0  0  0  0  0  0
   -0.0000    1.3000    0.0000 N   0  0  0  0  0  0  0  0  0  0  0  0
   -0.0000   -1.7000    0.0000 S   0  0  0  0  0  0  0  0  0  0  0  0
  4  1  1  0
  5  2  1  0
  8  6  2  0
  9  7  2  0
 10  6  1  0
 11  7  1  0
 12  8  1  0
 13  9  1  0
 15  3  1  0
 15 14  1  0
 16 10  2  0
 17 11  2  0
 18 12  2  0
 18 16  1  0
 19 13  2  0
 19 17  1  0
 20  4  1  0
 20  5  1  0
 20 15  1  0
 21 14  1  0
 21 16  1  0
 21 17  1  0
 22 18  1  0
 22 19  1  0
M  END
>  <NAME>  (5393) 
10-(2-DIETHYLAMINOPROPYL)-PHENOTHIAZINE

>  <SYNONYMS>  (5393) 
ETHOPROPAZINE

>  <SPECTRUM TYPE>  (5393) 
MS1

>  <INSTRUMENT TYPE>  (5393) 
EI-B

>  <INSTRUMENT>  (5393) 
Unknown

>  <ION MODE>  (5393) 
P

>  <INCHIKEY>  (5393) 
CDOZDBSBBXSXLB-UHFFFAOYSA-N

>  <FORMULA>  (5393) 
C19H24N2S

>  <EXACT MASS>  (5393) 
312.166019768

>  <MW>  (5393) 
312

>  <ID>  (5393) 
JP003845

>  <CONTRIBUTOR>  (5393) 
University of Tokyo Team, {Faculty of Engineering, University of Tokyo

>  <COMMENT>  (5393) 
SMILES=CCN(CC)C(C)CN(c21)c(c3)c(ccc3)Sc(cccc2)1
InChI=InChI=1S/C19H24N2S/c1-4-20(5-2)15(3)14-21-16-10-6-8-12-18(16)22-19-13-9-7-11-17(19)21/h6-13,15H,4-5,14H2,1-3H3
computed SMILES=S1C=2C=CC=CC2N(C=3C=CC=CC13)CC(N(CC)CC)C
accession=JP003845
date=2016.01.19 (Created 2008.10.21, modified 2011.05.06)
author=SASAKI S, TOYOHASHI UNIV. OF TECH.
license=CC BY-NC-SA
exact mass=312.16602
ionization energy=70 eV
ion type=[M]+*
computed spectral entropy=1.2180086912902048
computed normalized entropy=0.40006559853143503
SPLASH=splash10-0udi-1900000000-add857d98ef29f21b7b8
submitter=submitter = University of Tokyo Team (Faculty of Engineering, University of Tokyo)
MoNA Rating=3.75

>  <NUM PEAKS>  (5393) 
21

>  <MASS SPECTRAL PEAKS>  (5393) 
70 1.9
71 1.4
72 3.9
83 0.21
84 2.7
85 1.9
98 1.9
99 0.14
100 99.99
101 7.4
178 1.3
179 0.24
180 0.9
197 3.8
198 1.9
199 0.09
211 1.4
212 2.4
213 0.4
312 0.03
313 0.4

$$$$

     RDKit          2D

 26 28  0  0  0  0  0  0  0  0999 V2000
   -7.2977    1.3264    0.0000 C   0  0  0  0  0  0  0  0  0  0  0  0
   -6.3336    0.1772    0.0000 C   0  0  0  0  0  0  0  0  0  0  0  0
   -3.9546    3.7771    0.0000 C   0  0  0  0  0  0  0  0  0  0  0  0
   -4.9196    2.6276    0.0000 C   0  0  0  0  0  0  0  0  0  0  0  0
   -2.4765    3.5171    0.0000 C   0  0  0  0  0  0  0  0  0  0  0  0
   -4.4064    1.2181    0.0000 C   0  0  0  0  0  0  0  0  0  0  0  0
   -1.9633    2.1076    0.0000 C   0  0  0  0  0  0  0  0  0  0  0  0
    4.0804   -4.2014    0.0000 C   0  0  0  0  0  0  0  0  0  0  0  0
    5.3800   -1.9512    0.0000 C   0  0  0  0  0  0  0  0  0  0  0  0
    5.3805   -4.9511    0.0000 C   0  0  0  0  0  0  0  0  0  0  0  0
    6.6801   -2.7009    0.0000 C   0  0  0  0  0  0  0  0  0  0  0  0
    2.7811   -1.9514    0.0000 C   0  0  0  0  0  0  0  0  0  0  0  0
   -2.4155   -1.9522    0.0000 C   0  0  0  0  0  0  0  0  0  0  0  0
   -1.1155    0.2995    0.0000 C   0  0  0  0  0  0  0  0  0  0  0  0
    1.4821   -2.7014    0.0000 C   0  0  0  0  0  0  0  0  0  0  0  0
   -1.1165   -2.7022    0.0000 C   0  0  0  0  0  0  0  0  0  0  0  0
    0.1835   -0.4505    0.0000 C   0  0  0  0  0  0  0  0  0  0  0  0
    4.0801   -2.7014    0.0000 C   0  0  0  0  0  0  0  0  0  0  0  0
   -2.9282    0.9581    0.0000 C   0  0  0  0  0  0  0  0  0  0  0  0
    6.6804   -4.2009    0.0000 C   0  0  0  0  0  0  0  0  0  0  0  0
   -3.8923   -0.7117    0.0000 C   0  0  0  0  0  0  0  0  0  0  0  0
   -2.4151   -0.4514    0.0000 C   0  0  0  0  0  0  0  0  0  0  0  0
    7.9794   -4.9509    0.0000 N   0  0  0  0  0  0  0  0  0  0  0  0
    0.1830   -1.9514    0.0000 N   0  0  0  0  0  0  0  0  0  0  0  0
   -4.4055   -2.1212    0.0000 O   0  0  0  0  0  0  0  0  0  0  0  0
   -4.8564    0.4375    0.0000 O   0  0  0  0  0  0  0  0  0  0  0  0
  2  1  1  0
  4  3  2  0
  5  3  1  0
  6  4  1  0
  7  5  2  0
 10  8  2  0
 11  9  1  0
 15 12  1  0
 16 13  1  0
 17 14  1  0
 18  8  1  0
 18  9  2  0
 18 12  1  0
 19  6  2  0
 19  7  1  0
 20 10  1  0
 20 11  2  0
 22 13  1  0
 22 14  1  0
 22 19  1  0
 22 21  1  0
 23 20  1  0
 24 15  1  0
 24 16  1  0
 24 17  1  0
 25 21  2  0
 26  2  1  0
 26 21  1  0
M  END
>  <NAME>  (5394) 
ANILERIDINE

>  <SYNONYMS>  (5394) 


>  <SPECTRUM TYPE>  (5394) 
MS1

>  <INSTRUMENT TYPE>  (5394) 
EI-B

>  <INSTRUMENT>  (5394) 
Unknown

>  <ION MODE>  (5394) 
P

>  <INCHIKEY>  (5394) 
LKYQLAWMNBFNJT-UHFFFAOYSA-N

>  <FORMULA>  (5394) 
C22H28N2O2

>  <EXACT MASS>  (5394) 
352.215078136

>  <MW>  (5394) 
352

>  <ID>  (5394) 
JP003844

>  <CONTRIBUTOR>  (5394) 
University of Tokyo Team, {Faculty of Engineering, University of Tokyo

>  <COMMENT>  (5394) 
SMILES=CCOC(=O)C(C2)(CCN(CCc(c3)ccc(N)c3)C2)c(c1)cccc1
InChI=InChI=1S/C22H28N2O2/c1-2-26-21(25)22(19-6-4-3-5-7-19)13-16-24(17-14-22)15-12-18-8-10-20(23)11-9-18/h3-11H,2,12-17,23H2,1H3
computed SMILES=O=C(OCC)C1(C=2C=CC=CC2)CCN(CCC3=CC=C(N)C=C3)CC1
accession=JP003844
date=2016.01.19 (Created 2008.10.21, modified 2011.05.06)
author=SASAKI S, TOYOHASHI UNIV. OF TECH.
license=CC BY-NC-SA
exact mass=352.21508
ionization energy=70 eV
ion type=[M]+*
computed spectral entropy=3.15131306503854
computed normalized entropy=0.6297655634902186
SPLASH=splash10-0002-4490000000-1f331ba53cfcca295590
submitter=submitter = University of Tokyo Team (Faculty of Engineering, University of Tokyo)
MoNA Rating=3.75

>  <NUM PEAKS>  (5394) 
149

>  <MASS SPECTRAL PEAKS>  (5394) 
26 0.2
27 0.9
28 1.2
29 0.16
30 1.2
31 1.1
39 1
40 0.01
41 1.8
42 12.4
43 1.5
44 0.16
45 0.4
50 0.2
51 0.7
52 0.06
53 1.1
54 0.8
55 0.7
56 0.19
57 1
58 0.4
59 2.8
60 0.07
61 0.1
62 0.1
63 0.3
64 0.02
65 1.6
66 0.6
67 1
68 0.13
69 1.7
70 1.6
71 0.4
72 0.04
76 0.1
77 4.1
78 1.4
79 0.16
80 0.9
81 1.2
83 0.6
84 0.02
85 0.2
86 1
87 0.1
88 0.03
89 0.6
90 0.4
91 6
92 0.01
93 1.4
94 1.1
95 0.3
96 0.01
97 0.1
98 0.1
99 0.4
100 0.01
101 0.3
102 0.8
103 5.2
104 0.17
105 1.7
106 6.5
107 1.1
111 0.01
112 1.4
113 0.1
114 0.1
115 0.33
116 1.6
117 2.5
118 2.4
119 0.24
120 8.8
121 1.2
126 0.1
127 0.09
128 2
129 2.6
130 1.3
131 0.22
132 0.9
133 0.4
134 0.1
140 0.01
141 0.6
142 0.3
143 1.9
144 0.14
145 1.2
146 0.4
147 0.2
153 0.01
154 0.2
155 0.5
156 0.4
157 0.03
158 2.1
159 0.9
160 0.7
161 0.04
162 0.3
170 0.7
171 1.1
172 0.07
173 2.1
174 2.4
175 0.7
176 0.02
188 0.4
189 0.2
190 3.6
191 0.01
192 0.2
200 0.6
201 0.2
202 0.04
216 0.7
217 0.3
218 7.2
219 0.14
220 0.3
232 0.8
233 0.4
234 0.01
244 1
245 0.6
246 99.99
247 0.18
248 2.4
249 0.4
276 0.2
277 0.14
278 0.8
279 2
280 0.7
281 0.02
307 1
308 0.4
309 0.1
350 0.01
351 0.6
352 0.5
353 0.5
354 0.04
355 0.2

$$$$

     RDKit          2D

 21 22  0  0  0  0  0  0  0  0999 V2000
    7.7951    1.5010    0.0000 C   0  0  0  0  0  0  0  0  0  0  0  0
    6.4964   -0.7492    0.0000 C   0  0  0  0  0  0  0  0  0  0  0  0
   -2.6461    7.4882    0.0000 C   0  0  0  0  0  0  0  0  0  0  0  0
   -1.3000   -0.7500    0.0000 C   0  0  0  0  0  0  0  0  0  0  0  0
    0.0043    2.9934    0.0000 C   0  0  0  0  0  0  0  0  0  0  0  0
    1.3065    5.2249    0.0000 C   0  0  0  0  0  0  0  0  0  0  0  0
   -1.2839    3.7117    0.0000 C   0  0  0  0  0  0  0  0  0  0  0  0
   -0.0220    6.0123    0.0000 C   0  0  0  0  0  0  0  0  0  0  0  0
   -1.3000    0.7500    0.0000 C   0  0  0  0  0  0  0  0  0  0  0  0
    0.0000   -1.5000    0.0000 C   0  0  0  0  0  0  0  0  0  0  0  0
    5.1970    1.5006    0.0000 C   0  0  0  0  0  0  0  0  0  0  0  0
    3.8981    0.7504    0.0000 C   0  0  0  0  0  0  0  0  0  0  0  0
    2.5987    3.0002    0.0000 C   0  0  0  0  0  0  0  0  0  0  0  0
    1.2995    3.7500    0.0000 C   0  0  0  0  0  0  0  0  0  0  0  0
   -1.3172    5.2557    0.0000 C   0  0  0  0  0  0  0  0  0  0  0  0
    1.3000    0.7500    0.0000 C   0  0  0  0  0  0  0  0  0  0  0  0
    0.0000    1.5000    0.0000 N   0  0  0  0  0  0  0  0  0  0  0  0
    1.3000   -0.7500    0.0000 N   0  0  0  0  0  0  0  0  0  0  0  0
    6.4962    0.7508    0.0000 N   0  0  0  0  0  0  0  0  0  0  0  0
    2.5989    1.5002    0.0000 N   0  0  0  0  0  0  0  0  0  0  0  0
   -2.6261    5.9883    0.0000 O   0  0  0  0  0  0  0  0  0  0  0  0
  7  5  2  0
  8  6  1  0
  9  4  2  0
 10  4  1  0
 12 11  1  0
 14  5  1  0
 14  6  2  0
 14 13  1  0
 15  7  1  0
 15  8  2  0
 17  9  1  0
 17 16  2  0
 18 10  2  0
 18 16  1  0
 19  1  1  0
 19  2  1  0
 19 11  1  0
 20 12  1  0
 20 13  1  0
 20 16  1  0
 21  3  1  0
 21 15  1  0
M  END
>  <NAME>  (5395) 
THONZYLAMINE

>  <SYNONYMS>  (5395) 


>  <SPECTRUM TYPE>  (5395) 
MS1

>  <INSTRUMENT TYPE>  (5395) 
EI-B

>  <INSTRUMENT>  (5395) 
Unknown

>  <ION MODE>  (5395) 
P

>  <INCHIKEY>  (5395) 
GULNIHOSWFYMRN-UHFFFAOYSA-N

>  <FORMULA>  (5395) 
C16H22N4O

>  <EXACT MASS>  (5395) 
286.179361324

>  <MW>  (5395) 
286

>  <ID>  (5395) 
JP003843

>  <CONTRIBUTOR>  (5395) 
University of Tokyo Team, {Faculty of Engineering, University of Tokyo

>  <COMMENT>  (5395) 
SMILES=CN(C)CCN(Cc(c2)ccc(OC)c2)c(n1)nccc1
InChI=InChI=1S/C16H22N4O/c1-19(2)11-12-20(16-17-9-4-10-18-16)13-14-5-7-15(21-3)8-6-14/h4-10H,11-13H2,1-3H3
computed SMILES=N=1C=CC=NC1N(CC2=CC=C(OC)C=C2)CCN(C)C
accession=JP003843
date=2016.01.19 (Created 2008.10.21, modified 2011.05.06)
author=SASAKI S, TOYOHASHI UNIV. OF TECH.
license=CC BY-NC-SA
exact mass=286.17936
ionization energy=70 eV
ion type=[M]+*
computed spectral entropy=2.3524906719654224
computed normalized entropy=0.6916654366044958
SPLASH=splash10-05fr-9720000000-8a7d4d036feab1e4ee54
submitter=submitter = University of Tokyo Team (Faculty of Engineering, University of Tokyo)
MoNA Rating=3.75

>  <NUM PEAKS>  (5395) 
30

>  <MASS SPECTRAL PEAKS>  (5395) 
56 4.9
57 3.4
58 67.9
59 0.34
71 13.4
72 13.9
77 8.9
78 1.29
79 6.9
80 6.9
89 2.4
90 0.34
91 7.9
92 1.9
93 1.9
100 0.39
108 4.9
120 4.9
121 99.99
122 0.94
124 3.9
184 1.9
198 2.4
200 0.19
215 11.4
216 8.4
217 3.9
228 0.39
286 8.9
287 2.1

$$$$

     RDKit          2D

 14 15  0  0  0  0  0  0  0  0999 V2000
   -2.6377    0.8500    0.0000 C   0  0  0  0  0  0  0  0  0  0  0  0
    0.0000    2.7800    0.0000 C   0  0  0  0  0  0  0  0  0  0  0  0
    5.4932    1.7699    0.0000 C   0  0  0  0  0  0  0  0  0  0  0  0
    5.1780    0.3026    0.0000 C   0  0  0  0  0  0  0  0  0  0  0  0
    4.3807    2.7773    0.0000 C   0  0  0  0  0  0  0  0  0  0  0  0
    3.7502   -0.1574    0.0000 C   0  0  0  0  0  0  0  0  0  0  0  0
    2.9530    2.3173    0.0000 C   0  0  0  0  0  0  0  0  0  0  0  0
   -0.7500   -1.0300    0.0000 C   0  0  0  0  0  0  0  0  0  0  0  0
   -1.2100    0.3900    0.0000 C   0  0  0  0  0  0  0  0  0  0  0  0
    2.6377    0.8500    0.0000 C   0  0  0  0  0  0  0  0  0  0  0  0
    0.7500   -1.0300    0.0000 C   0  0  0  0  0  0  0  0  0  0  0  0
    0.0000    1.2800    0.0000 N   0  0  0  0  0  0  0  0  0  0  0  0
    1.2100    0.3900    0.0000 N   0  0  0  0  0  0  0  0  0  0  0  0
    1.6322   -2.2431    0.0000 O   0  0  0  0  0  0  0  0  0  0  0  0
  4  3  2  0
  5  3  1  0
  6  4  1  0
  7  5  2  0
  9  1  1  0
  9  8  2  0
 10  6  2  0
 10  7  1  0
 11  8  1  0
 12  2  1  0
 12  9  1  0
 13 10  1  0
 13 11  1  0
 13 12  1  0
 14 11  2  0
M  END
>  <NAME>  (5396) 
1,5-DIMETHYL-2-PHENYL-1,2-DIHYDRO-3H-PYRAZOL-3-ONE

>  <SYNONYMS>  (5396) 
ANTIPYRINE

>  <SPECTRUM TYPE>  (5396) 
MS1

>  <INSTRUMENT TYPE>  (5396) 
EI-B

>  <INSTRUMENT>  (5396) 
Unknown

>  <ION MODE>  (5396) 
P

>  <INCHIKEY>  (5396) 
VEQOALNAAJBPNY-UHFFFAOYSA-N

>  <FORMULA>  (5396) 
C11H12N2O

>  <EXACT MASS>  (5396) 
188.094963004

>  <MW>  (5396) 
188

>  <ID>  (5396) 
JP003842

>  <CONTRIBUTOR>  (5396) 
University of Tokyo Team, {Faculty of Engineering, University of Tokyo

>  <COMMENT>  (5396) 
SMILES=[H]C(=C(C)1)C(=O)N(c(c2)cccc2)N(C)1
InChI=InChI=1S/C11H12N2O/c1-9-8-11(14)13(12(9)2)10-6-4-3-5-7-10/h3-8H,1-2H3
computed SMILES=O=C1C=C(N(N1C=2C=CC=CC2)C)C
accession=JP003842
date=2016.01.19 (Created 2008.10.21, modified 2011.05.06)
author=SASAKI S, TOYOHASHI UNIV. OF TECH.
license=CC BY-NC-SA
exact mass=188.09496
ionization energy=70 eV
ion type=[M]+*
computed spectral entropy=3.7001059807086585
computed normalized entropy=0.7520569767424172
SPLASH=splash10-0550-9600000000-0c90aa2dd40a0fac3c48
submitter=submitter = University of Tokyo Team (Faculty of Engineering, University of Tokyo)
MoNA Rating=3.75

>  <NUM PEAKS>  (5396) 
137

>  <MASS SPECTRAL PEAKS>  (5396) 
25 1
26 4.1
27 18
28 4.2
29 4.3
30 2.9
31 0.2
32 0.14
36 0.6
37 2.4
38 6.7
39 2.63
40 10
41 14.7
42 11.9
43 0.07
44 2.9
45 0.8
46 0.6
47 0.04
48 0.3
49 1
50 6
51 0.24
52 5.8
53 2.8
54 6.5
55 0.26
56 48.2
57 3.4
58 0.9
59 0.02
60 0.4
61 1
62 1.9
63 0.65
64 10.3
65 8.1
66 3.1
67 0.74
68 6.9
69 4
70 1
71 0.01
72 0.6
73 0.9
74 1.8
75 0.17
76 3.6
77 63.4
78 7.2
79 0.19
80 1.3
81 1.4
82 10.6
83 0.27
84 13.6
85 1.7
86 0.2
87 0.04
88 0.9
89 1.4
90 1.9
91 1.27
92 7.4
93 16
94 3.9
95 0.14
96 63.5
97 5.1
98 2
99 0.04
100 0.3
101 0.5
102 2
103 0.04
104 7.6
105 24.2
106 14.7
107 0.22
108 0.4
109 0.2
110 0.1
111 0.19
112 0.4
113 0.2
114 0.1
115 0.97
116 5.2
117 5.1
118 5.4
119 0.37
120 1.4
121 2.9
122 0.4
127 0.07
128 3
129 5
130 5.8
131 0.34
132 3.2
133 1.6
134 0.9
135 0.09
141 0.4
142 2.7
143 2
144 0.44
145 5.2
146 3.1
147 1.4
148 0.08
149 0.7
154 0.4
155 0.8
156 0.13
157 2.4
158 2.8
159 8.9
160 0.34
161 1
162 0.9
169 1
170 0.14
171 1.6
172 1.3
173 8
174 0.58
175 1.4
176 0.4
185 1.1
186 0.01
187 18.6
188 99.99
189 15.5
190 0.02
191 0.4

$$$$

     RDKit          2D

 16 17  0  0  0  0  0  0  0  0999 V2000
   -3.2899    2.4204    0.0000 C   0  0  0  0  0  0  0  0  0  0  0  0
   -1.8127    2.1596    0.0000 C   0  0  0  0  0  0  0  0  0  0  0  0
   -5.7317   -0.0309    0.0000 C   0  0  0  0  0  0  0  0  0  0  0  0
   -4.7675   -1.1811    0.0000 C   0  0  0  0  0  0  0  0  0  0  0  0
   -5.2187    1.3795    0.0000 C   0  0  0  0  0  0  0  0  0  0  0  0
   -3.2903   -0.9207    0.0000 C   0  0  0  0  0  0  0  0  0  0  0  0
   -3.7415    1.6398    0.0000 C   0  0  0  0  0  0  0  0  0  0  0  0
    1.3000    0.7500    0.0000 C   0  0  0  0  0  0  0  0  0  0  0  0
   -0.0000    1.5000    0.0000 C   0  0  0  0  0  0  0  0  0  0  0  0
   -2.7772    0.4897    0.0000 C   0  0  0  0  0  0  0  0  0  0  0  0
    1.3000   -0.7500    0.0000 C   0  0  0  0  0  0  0  0  0  0  0  0
   -1.3000   -0.7500    0.0000 C   0  0  0  0  0  0  0  0  0  0  0  0
   -1.3000    0.7500    0.0000 C   0  0  0  0  0  0  0  0  0  0  0  0
   -0.0000   -1.5000    0.0000 N   0  0  0  0  0  0  0  0  0  0  0  0
    2.5989   -1.5002    0.0000 O   0  0  0  0  0  0  0  0  0  0  0  0
   -2.5989   -1.5002    0.0000 O   0  0  0  0  0  0  0  0  0  0  0  0
  2  1  1  0
  4  3  2  0
  5  3  1  0
  6  4  1  0
  7  5  2  0
  9  8  1  0
 10  6  2  0
 10  7  1  0
 11  8  1  0
 13  2  1  0
 13  9  1  0
 13 10  1  0
 13 12  1  0
 14 11  2  0
 14 12  1  0
 15 11  1  0
 16 12  2  0
M  END
>  <NAME>  (5397) 
3-ETHYL-3-PHENYL-2,6-PIPERIDINEDIONE

>  <SYNONYMS>  (5397) 
GLUTETHIMIDE

>  <SPECTRUM TYPE>  (5397) 
MS1

>  <INSTRUMENT TYPE>  (5397) 
EI-B

>  <INSTRUMENT>  (5397) 
Unknown

>  <ION MODE>  (5397) 
P

>  <INCHIKEY>  (5397) 
JMBQKKAJIKAWKF-UHFFFAOYSA-N

>  <FORMULA>  (5397) 
C13H15NO2

>  <EXACT MASS>  (5397) 
217.11027872

>  <MW>  (5397) 
217

>  <ID>  (5397) 
JP003840

>  <CONTRIBUTOR>  (5397) 
University of Tokyo Team, {Faculty of Engineering, University of Tokyo

>  <COMMENT>  (5397) 
SMILES=CCC(C2)(C(=O)NC(=O)C2)c(c1)cccc1
InChI=InChI=1S/C13H15NO2/c1-2-13(10-6-4-3-5-7-10)9-8-11(15)14-12(13)16/h3-7H,2,8-9H2,1H3,(H,14,15,16)
computed SMILES=O=C1N=C(O)CCC1(C=2C=CC=CC2)CC
accession=JP003840
date=2016.01.19 (Created 2008.10.21, modified 2011.05.06)
author=SASAKI S, TOYOHASHI UNIV. OF TECH.
license=CC BY-NC-SA
exact mass=217.11028
ionization energy=70 eV
ion type=[M]+*
computed spectral entropy=3.546584728792307
computed normalized entropy=0.777018881999835
SPLASH=splash10-014r-4900000000-8d3add816c0b57475d49
submitter=submitter = University of Tokyo Team (Faculty of Engineering, University of Tokyo)
MoNA Rating=3.75

>  <NUM PEAKS>  (5397) 
96

>  <MASS SPECTRAL PEAKS>  (5397) 
38 2.4
39 28.1
40 3.6
41 1.27
42 7.9
43 2.4
44 6.4
45 0.09
50 8.4
51 25.8
52 7.4
53 0.84
54 7.4
55 8.9
56 1.9
57 0.19
58 2.9
59 5.1
62 4
63 1.44
64 4.9
65 14.9
66 2.4
67 0.29
68 1.4
69 1.4
70 2.4
71 0.11
72 0.9
73 1.4
74 3.4
75 0.47
76 6
77 30.4
78 15.1
79 0.44
80 1.4
82 4.4
86 1.1
87 0.29
88 1.9
89 13.9
90 3.7
91 4.79
92 4.9
101 1.9
102 9.9
103 2.69
104 9.7
105 6.9
106 1.9
112 0.09
113 1.9
114 2.7
115 51.4
116 1.69
117 99.99
118 14.9
119 2.4
120 0.09
126 1.2
127 3.7
128 8
129 0.99
130 5.9
131 11.9
132 55.5
133 0.69
134 0.9
140 0.9
141 1.4
142 0.11
143 1.9
144 2.9
145 4.4
146 0.69
147 3.9
148 0.9
157 4.9
158 0.11
159 2.9
160 44.9
161 10.9
162 0.19
172 2.9
173 1.1
174 2.4
175 0.11
188 3.9
189 89
190 11.9
191 0.19
202 4.4
203 0.9
217 9.2
218 1.9

$$$$

     RDKit          2D

 16 16  0  0  0  0  0  0  0  0999 V2000
    3.4903   -3.0591    0.0000 C   0  0  0  0  0  0  0  0  0  0  0  0
    0.5975   -2.9528    0.0000 C   0  0  0  0  0  0  0  0  0  0  0  0
    0.5970    0.3874    0.0000 C   0  0  0  0  0  0  0  0  0  0  0  0
    2.5258   -1.9103    0.0000 C   0  0  0  0  0  0  0  0  0  0  0  0
   -0.8797   -2.6925    0.0000 C   0  0  0  0  0  0  0  0  0  0  0  0
    1.0487   -2.1711    0.0000 C   0  0  0  0  0  0  0  0  0  0  0  0
    0.0842   -1.0222    0.0000 C   0  0  0  0  0  0  0  0  0  0  0  0
   -2.6919   -2.0330    0.0000 C   0  0  0  0  0  0  0  0  0  0  0  0
   -1.3934    0.2178    0.0000 C   0  0  0  0  0  0  0  0  0  0  0  0
   -3.9919    0.2187    0.0000 C   0  0  0  0  0  0  0  0  0  0  0  0
   -1.3929   -1.2830    0.0000 C   0  0  0  0  0  0  0  0  0  0  0  0
   -3.9915   -1.2822    0.0000 N   0  0  0  0  0  0  0  0  0  0  0  0
   -2.6929    0.9687    0.0000 N   0  0  0  0  0  0  0  0  0  0  0  0
   -2.6922   -3.5330    0.0000 O   0  0  0  0  0  0  0  0  0  0  0  0
   -0.0944    0.9678    0.0000 O   0  0  0  0  0  0  0  0  0  0  0  0
   -5.2911    0.9685    0.0000 O   0  0  0  0  0  0  0  0  0  0  0  0
  4  1  1  0
  5  2  1  0
  6  4  1  0
  7  3  1  0
  7  6  1  0
 11  5  1  0
 11  7  1  0
 11  8  1  0
 11  9  1  0
 12  8  2  0
 12 10  1  0
 13  9  2  0
 13 10  1  0
 14  8  1  0
 15  9  1  0
 16 10  2  0
M  END
>  <NAME>  (5398) 
5-ETHYL-5-(1-METHYLBUTYL)-BARBITURIC ACID

>  <SYNONYMS>  (5398) 
PENTOBARBITAL

>  <SPECTRUM TYPE>  (5398) 
MS1

>  <INSTRUMENT TYPE>  (5398) 
EI-B

>  <INSTRUMENT>  (5398) 
Unknown

>  <ION MODE>  (5398) 
P

>  <INCHIKEY>  (5398) 
WEXRUCMBJFQVBZ-UHFFFAOYSA-N

>  <FORMULA>  (5398) 
C11H18N2O3

>  <EXACT MASS>  (5398) 
226.13174243599997

>  <MW>  (5398) 
226

>  <ID>  (5398) 
JP003839

>  <CONTRIBUTOR>  (5398) 
University of Tokyo Team, {Faculty of Engineering, University of Tokyo

>  <COMMENT>  (5398) 
SMILES=CCCC(C)C(CC)(C(=O)1)C(=O)NC(=O)N1
InChI=InChI=1S/C11H18N2O3/c1-4-6-7(3)11(5-2)8(14)12-10(16)13-9(11)15/h7H,4-6H2,1-3H3,(H2,12,13,14,15,16)
computed SMILES=O=C1N=C(O)C(C(O)=N1)(CC)C(C)CCC
accession=JP003839
date=2016.01.19 (Created 2008.10.21, modified 2011.05.06)
author=SASAKI S, TOYOHASHI UNIV. OF TECH.
license=CC BY-NC-SA
exact mass=226.13174
ionization energy=70 eV
ion type=[M]+*
computed spectral entropy=2.620916900996136
computed normalized entropy=0.6665903185488231
SPLASH=splash10-0a4l-5900000000-08245bcc95f52792c863
submitter=submitter = University of Tokyo Team (Faculty of Engineering, University of Tokyo)
MoNA Rating=3.75

>  <NUM PEAKS>  (5398) 
51

>  <MASS SPECTRAL PEAKS>  (5398) 
39 7.4
40 2.3
41 22.7
42 0.51
43 30.3
44 3.9
52 1.1
53 0.39
54 1.9
55 10.9
56 2.2
57 0.13
65 1.2
66 1.2
67 3.1
68 0.19
69 6.9
70 3.1
71 7.9
72 0.12
79 1.1
80 1.7
81 1.4
82 0.09
83 1.9
84 1.4
85 2.4
94 0.14
95 1.4
96 1.4
97 3.6
98 0.69
109 0.9
110 0.9
112 3.5
113 0.19
114 1.2
127 1.3
128 1.4
140 0.09
141 55.8
142 4.2
143 1.1
154 0.09
155 6.9
156 99.99
157 22.2
158 0.27
197 4.9
198 1.1
226 1.1

$$$$

     RDKit          2D

 18 19  0  0  0  0  0  0  0  0999 V2000
    0.8563   -4.5154    0.0000 C   0  0  0  0  0  0  0  0  0  0  0  0
   -0.6209   -4.2551    0.0000 C   0  0  0  0  0  0  0  0  0  0  0  0
    3.4486   -1.2749    0.0000 C   0  0  0  0  0  0  0  0  0  0  0  0
    3.7094   -2.7521    0.0000 C   0  0  0  0  0  0  0  0  0  0  0  0
    2.1311   -0.5578    0.0000 C   0  0  0  0  0  0  0  0  0  0  0  0
    2.7171   -3.8770    0.0000 C   0  0  0  0  0  0  0  0  0  0  0  0
    0.7490   -1.1408    0.0000 C   0  0  0  0  0  0  0  0  0  0  0  0
    1.2189   -3.8025    0.0000 C   0  0  0  0  0  0  0  0  0  0  0  0
    0.3431   -2.5848    0.0000 C   0  0  0  0  0  0  0  0  0  0  0  0
   -2.4331   -3.5956    0.0000 C   0  0  0  0  0  0  0  0  0  0  0  0
   -1.1346   -1.3448    0.0000 C   0  0  0  0  0  0  0  0  0  0  0  0
   -3.7331   -1.3439    0.0000 C   0  0  0  0  0  0  0  0  0  0  0  0
   -1.1341   -2.8456    0.0000 C   0  0  0  0  0  0  0  0  0  0  0  0
   -3.7327   -2.8448    0.0000 N   0  0  0  0  0  0  0  0  0  0  0  0
   -2.4341   -0.5939    0.0000 N   0  0  0  0  0  0  0  0  0  0  0  0
   -2.4334   -5.0956    0.0000 O   0  0  0  0  0  0  0  0  0  0  0  0
    0.1645   -0.5948    0.0000 O   0  0  0  0  0  0  0  0  0  0  0  0
   -5.0323   -0.5941    0.0000 O   0  0  0  0  0  0  0  0  0  0  0  0
  2  1  1  0
  4  3  1  0
  5  3  1  0
  6  4  1  0
  7  5  1  0
  8  6  1  0
  9  7  2  0
  9  8  1  0
 13  2  1  0
 13  9  1  0
 13 10  1  0
 13 11  1  0
 14 10  2  0
 14 12  1  0
 15 11  2  0
 15 12  1  0
 16 10  1  0
 17 11  1  0
 18 12  2  0
M  END
>  <NAME>  (5399) 
5-(1-CYCLOHEPTENYL)-5-ETHYL-BARBITURIC ACID

>  <SYNONYMS>  (5399) 
HEPTABARBITAL

>  <SPECTRUM TYPE>  (5399) 
MS1

>  <INSTRUMENT TYPE>  (5399) 
EI-B

>  <INSTRUMENT>  (5399) 
Unknown

>  <ION MODE>  (5399) 
P

>  <INCHIKEY>  (5399) 
PAZQYDJGLKSCSI-UHFFFAOYSA-N

>  <FORMULA>  (5399) 
C13H18N2O3

>  <EXACT MASS>  (5399) 
250.13174243599997

>  <MW>  (5399) 
250

>  <ID>  (5399) 
JP003838

>  <CONTRIBUTOR>  (5399) 
University of Tokyo Team, {Faculty of Engineering, University of Tokyo

>  <COMMENT>  (5399) 
SMILES=CCC(C(=O)2)(C(=O)NC(=O)N2)C(C1)=CCCCC1
InChI=InChI=1S/C13H18N2O3/c1-2-13(9-7-5-3-4-6-8-9)10(16)14-12(18)15-11(13)17/h7H,2-6,8H2,1H3,(H2,14,15,16,17,18)
computed SMILES=O=C1N=C(O)C(C(O)=N1)(C2=CCCCCC2)CC
accession=JP003838
date=2016.01.19 (Created 2008.10.21, modified 2011.05.06)
author=SASAKI S, TOYOHASHI UNIV. OF TECH.
license=CC BY-NC-SA
exact mass=250.13174
ionization energy=70 eV
ion type=[M]+*
computed spectral entropy=3.0301807146508333
computed normalized entropy=0.6975866597076367
SPLASH=splash10-00di-7490000000-252904343000182d024d
submitter=submitter = University of Tokyo Team (Faculty of Engineering, University of Tokyo)
MoNA Rating=3.75

>  <NUM PEAKS>  (5399) 
77

>  <MASS SPECTRAL PEAKS>  (5399) 
39 4.9
40 1.8
41 7.9
42 0.19
43 1.9
44 2
50 0.9
51 0.21
52 1.9
53 4.7
54 2
55 0.49
56 0.9
63 0.9
64 0.9
65 0.35
66 2.9
67 6.7
68 1.9
69 0.19
70 1.9
77 5.9
78 2.4
79 1.09
80 2.9
81 12.9
82 1.9
83 0.09
91 4.9
92 1.9
93 7.1
94 0.39
95 6.8
96 1.4
97 1.9
98 0.39
103 1.9
104 0.9
105 2.7
112 0.19
117 1.1
118 0.9
119 1.1
121 0.14
122 1.9
123 0.9
124 0.9
129 0.09
132 0.9
133 1.6
134 0.9
135 0.19
136 1.9
141 18.9
142 1.9
150 0.19
153 0.9
155 4.7
156 1.9
157 0.29
160 1.6
161 2.9
162 0.9
164 0.09
165 0.9
167 1.6
178 2.6
179 0.24
193 1.4
204 0.9
205 0.9
207 0.09
221 99.99
222 14.9
223 2.4
249 0.14
250 1.4

$$$$

     RDKit          2D

 16 16  0  0  0  0  0  0  0  0999 V2000
    0.2130   -3.6188    0.0000 C   0  0  0  0  0  0  0  0  0  0  0  0
    3.1057   -3.7252    0.0000 C   0  0  0  0  0  0  0  0  0  0  0  0
    2.6540   -1.1667    0.0000 C   0  0  0  0  0  0  0  0  0  0  0  0
   -1.2643   -3.3585    0.0000 C   0  0  0  0  0  0  0  0  0  0  0  0
    0.6641   -2.8371    0.0000 C   0  0  0  0  0  0  0  0  0  0  0  0
   -0.3003   -1.6883    0.0000 C   0  0  0  0  0  0  0  0  0  0  0  0
    2.1413   -2.5763    0.0000 C   0  0  0  0  0  0  0  0  0  0  0  0
   -3.0765   -2.6990    0.0000 C   0  0  0  0  0  0  0  0  0  0  0  0
   -1.7779   -0.4482    0.0000 C   0  0  0  0  0  0  0  0  0  0  0  0
   -4.3765   -0.4474    0.0000 C   0  0  0  0  0  0  0  0  0  0  0  0
   -1.7775   -1.9490    0.0000 C   0  0  0  0  0  0  0  0  0  0  0  0
   -4.3760   -1.9482    0.0000 N   0  0  0  0  0  0  0  0  0  0  0  0
   -3.0775    0.3026    0.0000 N   0  0  0  0  0  0  0  0  0  0  0  0
   -3.0767   -4.1990    0.0000 O   0  0  0  0  0  0  0  0  0  0  0  0
   -0.4789    0.3018    0.0000 O   0  0  0  0  0  0  0  0  0  0  0  0
   -5.6757    0.3024    0.0000 O   0  0  0  0  0  0  0  0  0  0  0  0
  4  1  1  0
  6  5  1  0
  7  2  1  0
  7  3  1  0
  7  5  1  0
 11  4  1  0
 11  6  1  0
 11  8  1  0
 11  9  1  0
 12  8  2  0
 12 10  1  0
 13  9  2  0
 13 10  1  0
 14  8  1  0
 15  9  1  0
 16 10  2  0
M  END
>  <NAME>  (5400) 
5-ETHYL-5-ISOPENTYL-BARBITURIC ACID

>  <SYNONYMS>  (5400) 
AMOBARBITAL

>  <SPECTRUM TYPE>  (5400) 
MS1

>  <INSTRUMENT TYPE>  (5400) 
EI-B

>  <INSTRUMENT>  (5400) 
Unknown

>  <ION MODE>  (5400) 
P

>  <INCHIKEY>  (5400) 
VIROVYVQCGLCII-UHFFFAOYSA-N

>  <FORMULA>  (5400) 
C11H18N2O3

>  <EXACT MASS>  (5400) 
226.13174243599997

>  <MW>  (5400) 
226

>  <ID>  (5400) 
JP003837

>  <CONTRIBUTOR>  (5400) 
University of Tokyo Team, {Faculty of Engineering, University of Tokyo

>  <COMMENT>  (5400) 
SMILES=CC(C)CCC(CC)(C(=O)1)C(=O)NC(=O)N1
InChI=InChI=1S/C11H18N2O3/c1-4-11(6-5-7(2)3)8(14)12-10(16)13-9(11)15/h7H,4-6H2,1-3H3,(H2,12,13,14,15,16)
computed SMILES=O=C1N=C(O)C(C(O)=N1)(CC)CCC(C)C
accession=JP003837
date=2016.01.19 (Created 2008.10.21, modified 2011.05.06)
author=SASAKI S, TOYOHASHI UNIV. OF TECH.
license=CC BY-NC-SA
exact mass=226.13174
ionization energy=70 eV
ion type=[M]+*
computed spectral entropy=2.8249702907845604
computed normalized entropy=0.6649343190559561
SPLASH=splash10-0a4l-3900000000-4b439f0aa2820ea498c7
submitter=submitter = University of Tokyo Team (Faculty of Engineering, University of Tokyo)
MoNA Rating=3.75

>  <NUM PEAKS>  (5400) 
70

>  <MASS SPECTRAL PEAKS>  (5400) 
38 0.9
39 5.4
40 1.9
41 1.59
42 3.5
43 11.4
44 3.2
45 0.09
51 0.9
52 0.9
53 2.9
54 0.24
55 9.4
56 3.7
57 3.9
65 0.09
66 0.9
67 2.1
68 1.4
69 0.69
70 3.9
71 3.9
72 0.9
77 0.09
79 1.1
80 1.9
81 1.4
82 0.09
83 2.8
84 0.9
85 1.9
86 0.09
93 0.9
94 1.2
95 1
96 0.01
97 3.1
98 6.7
99 0.9
111 0.08
112 5.7
113 1.1
114 1.7
126 0.11
127 1.2
128 1.4
129 1.4
140 0.09
141 53.9
142 10.7
143 1.6
154 0.09
155 5.4
156 99.99
157 19.5
158 0.34
159 0.9
169 0.9
181 1.2
183 0.67
184 1.1
185 0.9
197 9.9
198 0.69
199 1.1
211 2.4
212 0.9
225 0.03
226 0.3
227 0.4

$$$$

     RDKit          2D

 20 22  0  0  0  0  0  0  0  0999 V2000
   -0.5568   -3.1525    0.0000 C   0  0  0  0  0  0  0  0  0  0  0  0
    0.1096    6.0776    0.0000 C   0  0  0  0  0  0  0  0  0  0  0  0
   -1.3245    5.6351    0.0000 C   0  0  0  0  0  0  0  0  0  0  0  0
    1.2106    5.0575    0.0000 C   0  0  0  0  0  0  0  0  0  0  0  0
   -1.6577    4.1726    0.0000 C   0  0  0  0  0  0  0  0  0  0  0  0
    0.8773    3.5950    0.0000 C   0  0  0  0  0  0  0  0  0  0  0  0
    2.8800   -0.7500    0.0000 C   0  0  0  0  0  0  0  0  0  0  0  0
    1.5800   -1.5000    0.0000 C   0  0  0  0  0  0  0  0  0  0  0  0
    1.5800    1.5000    0.0000 C   0  0  0  0  0  0  0  0  0  0  0  0
   -3.0000    0.0000    0.0000 C   0  0  0  0  0  0  0  0  0  0  0  0
   -0.5568    3.1525    0.0000 C   0  0  0  0  0  0  0  0  0  0  0  0
    2.8800    0.7500    0.0000 C   0  0  0  0  0  0  0  0  0  0  0  0
    0.2800    0.7500    0.0000 C   0  0  0  0  0  0  0  0  0  0  0  0
    0.2800   -0.7500    0.0000 C   0  0  0  0  0  0  0  0  0  0  0  0
   -2.3500   -1.3500    0.0000 C   0  0  0  0  0  0  0  0  0  0  0  0
   -0.8900    1.6900    0.0000 C   0  0  0  0  0  0  0  0  0  0  0  0
    4.1789    1.5002    0.0000 Cl  0  0  0  0  0  0  0  0  0  0  0  0
   -2.3500    1.3500    0.0000 N   0  0  0  0  0  0  0  0  0  0  0  0
   -0.8900   -1.6900    0.0000 N   0  0  0  0  0  0  0  0  0  0  0  0
   -3.2879   -2.5207    0.0000 O   0  0  0  0  0  0  0  0  0  0  0  0
  3  2  2  0
  4  2  1  0
  5  3  1  0
  6  4  2  0
  8  7  2  0
 11  5  2  0
 11  6  1  0
 12  7  1  0
 12  9  2  0
 13  9  1  0
 14  8  1  0
 14 13  2  0
 15 10  1  0
 16 11  1  0
 16 13  1  0
 17 12  1  0
 18 10  1  0
 18 16  2  0
 19  1  1  0
 19 14  1  0
 19 15  1  0
 20 15  2  0
M  END
>  <NAME>  (5401) 
DIAZEPAM

>  <SYNONYMS>  (5401) 
VALIUM

>  <SPECTRUM TYPE>  (5401) 
MS1

>  <INSTRUMENT TYPE>  (5401) 
EI-B

>  <INSTRUMENT>  (5401) 
Unknown

>  <ION MODE>  (5401) 
P

>  <INCHIKEY>  (5401) 
AAOVKJBEBIDNHE-UHFFFAOYSA-N

>  <FORMULA>  (5401) 
C16H13ClN2O

>  <EXACT MASS>  (5401) 
284.071640716

>  <MW>  (5401) 
284

>  <ID>  (5401) 
JP003836

>  <CONTRIBUTOR>  (5401) 
University of Tokyo Team, {Faculty of Engineering, University of Tokyo

>  <COMMENT>  (5401) 
SMILES=Clc(c2)cc(C=1c(c3)cccc3)c(c2)N(C)C(=O)CN1
InChI=InChI=1S/C16H13ClN2O/c1-19-14-8-7-12(17)9-13(14)16(18-10-15(19)20)11-5-3-2-4-6-11/h2-9H,10H2,1H3
computed SMILES=O=C1N(C=2C=CC(Cl)=CC2C(=NC1)C=3C=CC=CC3)C
accession=JP003836
date=2016.01.19 (Created 2008.10.21, modified 2011.05.06)
author=SASAKI S, TOYOHASHI UNIV. OF TECH.
license=CC BY-NC-SA
exact mass=284.07164
ionization energy=70 eV
ion type=[M]+*
computed spectral entropy=4.266301236323117
computed normalized entropy=0.8326173356160037
SPLASH=splash10-0a4i-3690000000-3c601fed832ff090653a
submitter=submitter = University of Tokyo Team (Faculty of Engineering, University of Tokyo)
MoNA Rating=3.75

>  <NUM PEAKS>  (5401) 
168

>  <MASS SPECTRAL PEAKS>  (5401) 
40 2.9
41 3.4
42 5.7
43 0.2
44 3.3
49 0.9
50 8.2
51 1.84
52 4.1
53 0.9
55 1.9
57 0.12
61 1.9
62 6.8
63 15.4
64 0.41
65 8.6
66 2.6
67 1.1
68 0.09
69 1.9
73 4.4
74 9.4
75 1.88
76 12.1
77 25.1
78 3.9
79 0.11
81 2.1
82 5.1
83 1.1
84 0.11
85 2.1
86 5.1
87 7.4
88 0.58
89 19.8
90 7.7
91 13.9
92 0.19
93 0.9
94 0.9
95 1.1
96 0.21
97 3.7
98 4.9
99 7.1
100 0.51
101 3.9
102 9.7
103 5.9
104 0.29
105 1.1
107 0.9
108 0.9
109 0.38
110 14.9
111 11.7
112 4.9
113 0.07
114 6.4
115 5.9
116 8.7
117 1.44
118 2.9
120 1.9
121 1.1
122 0.14
123 3.9
124 6.4
125 15.9
126 0.96
127 10.9
128 5.1
129 1.9
134 0.09
135 0.9
136 3.9
137 5.9
138 0.77
139 7.1
140 4.1
141 1.1
142 0.14
143 0.9
144 1.1
146 1.1
149 0.29
150 11.4
151 17.4
152 17.9
153 0.49
154 1.9
161 1.4
162 2.7
163 1.71
164 11.1
165 31.9
166 8.7
167 0.19
173 0.9
175 2.1
176 3.9
177 1.81
178 11.4
179 8.1
180 2.2
181 0.19
186 1.9
188 1.9
189 1.1
190 0.59
191 5.7
192 6.4
193 11.4
194 0.24
199 5.1
200 1.4
201 2.2
202 0.12
203 1.7
204 2.7
205 12.4
206 0.44
207 1.1
212 1.5
213 5.7
214 0.21
215 3.1
218 1.4
219 5.4
220 0.31
221 17.9
222 4.1
226 1.7
227 0.29
228 11.1
229 2.9
230 3.4
231 0.09
233 0.9
238 3.1
239 10.9
240 0.49
241 15.4
242 3.9
243 5.1
244 0.09
248 3.4
249 5.7
250 0.9
253 0.19
254 1.7
255 60.4
256 99.99
257 4.89
258 38.1
259 11.7
260 1.9
268 0.19
269 0.9
270 0.9
282 2.4
283 7.54
284 59.9
285 34.9
286 19.9
287 3.9

$$$$

     RDKit          2D

 21 23  0  0  0  0  0  0  0  0999 V2000
   -2.7430   -3.9182    0.0000 C   0  0  0  0  0  0  0  0  0  0  0  0
    0.1096    6.0776    0.0000 C   0  0  0  0  0  0  0  0  0  0  0  0
   -1.3245    5.6351    0.0000 C   0  0  0  0  0  0  0  0  0  0  0  0
    1.2106    5.0575    0.0000 C   0  0  0  0  0  0  0  0  0  0  0  0
   -1.6577    4.1726    0.0000 C   0  0  0  0  0  0  0  0  0  0  0  0
    0.8773    3.5950    0.0000 C   0  0  0  0  0  0  0  0  0  0  0  0
    2.8800   -0.7500    0.0000 C   0  0  0  0  0  0  0  0  0  0  0  0
    1.5800   -1.5000    0.0000 C   0  0  0  0  0  0  0  0  0  0  0  0
    1.5800    1.5000    0.0000 C   0  0  0  0  0  0  0  0  0  0  0  0
   -3.0000    0.0000    0.0000 C   0  0  0  0  0  0  0  0  0  0  0  0
   -0.5568    3.1525    0.0000 C   0  0  0  0  0  0  0  0  0  0  0  0
    2.8800    0.7500    0.0000 C   0  0  0  0  0  0  0  0  0  0  0  0
    0.2800    0.7500    0.0000 C   0  0  0  0  0  0  0  0  0  0  0  0
    0.2800   -0.7500    0.0000 C   0  0  0  0  0  0  0  0  0  0  0  0
   -2.3500   -1.3500    0.0000 C   0  0  0  0  0  0  0  0  0  0  0  0
   -0.8900    1.6900    0.0000 C   0  0  0  0  0  0  0  0  0  0  0  0
    4.1789    1.5002    0.0000 Cl  0  0  0  0  0  0  0  0  0  0  0  0
   -3.2879   -2.5207    0.0000 N   0  0  0  0  0  0  0  0  0  0  0  0
   -0.8900   -1.6900    0.0000 N   0  0  0  0  0  0  0  0  0  0  0  0
   -2.3500    1.3500    0.0000 N   0  0  0  0  0  0  0  0  0  0  0  0
   -3.2879    2.5207    0.0000 O   0  0  0  0  0  0  0  0  0  0  0  0
  3  2  2  0
  4  2  1  0
  5  3  1  0
  6  4  2  0
  8  7  2  0
 11  5  2  0
 11  6  1  0
 12  7  1  0
 12  9  2  0
 13  9  1  0
 14  8  1  0
 14 13  2  0
 15 10  1  0
 16 11  1  0
 16 13  1  0
 17 12  1  0
 18  1  1  0
 18 15  2  3
 19 14  1  0
 19 15  1  0
 20 10  1  0
 20 16  2  0
 21 20  1  0
M  CHG  2  20   1  21  -1
M  END
>  <NAME>  (5402) 
LIBRIUM

>  <SYNONYMS>  (5402) 
CHLORDIAZEPOXIDE

>  <SPECTRUM TYPE>  (5402) 
MS1

>  <INSTRUMENT TYPE>  (5402) 
EI-B

>  <INSTRUMENT>  (5402) 
Unknown

>  <ION MODE>  (5402) 
P

>  <INCHIKEY>  (5402) 
ANTSCNMPPGJYLG-UHFFFAOYSA-N

>  <FORMULA>  (5402) 
C16H14ClN3O

>  <EXACT MASS>  (5402) 
299.08253974800004

>  <MW>  (5402) 
299

>  <ID>  (5402) 
JP003835

>  <CONTRIBUTOR>  (5402) 
University of Tokyo Team, {Faculty of Engineering, University of Tokyo

>  <COMMENT>  (5402) 
SMILES=CNC(C2)=Nc(c3)c(cc(Cl)c3)C(=[N+1]([O-1])2)c(c1)cccc1
InChI=InChI=1S/C16H14ClN3O/c1-18-15-10-20(21)16(11-5-3-2-4-6-11)13-9-12(17)7-8-14(13)19-15/h2-9H,10H2,1H3,(H,18,19)
computed SMILES=O=N1=C(C=2C=CC=CC2)C=3C=C(Cl)C=CC3NC(=NC)C1
accession=JP003835
date=2016.01.19 (Created 2008.10.21, modified 2011.05.06)
author=SASAKI S, TOYOHASHI UNIV. OF TECH.
license=CC BY-NC-SA
exact mass=299.08254
ionization energy=70 eV
ion type=[M]+*
computed spectral entropy=4.678757337300538
computed normalized entropy=0.8530411233151828
SPLASH=splash10-001i-5590000000-a20477457b7e9f8a22ea
submitter=submitter = University of Tokyo Team (Faculty of Engineering, University of Tokyo)
MoNA Rating=3.75

>  <NUM PEAKS>  (5402) 
241

>  <MASS SPECTRAL PEAKS>  (5402) 
36 4.9
37 0.9
38 2.9
39 0.89
40 8.9
41 18.9
42 10.9
43 0.79
44 14.9
45 1.9
49 0.9
50 0.39
51 10.9
52 2.9
53 1.9
54 0.59
55 12.4
56 19.9
57 7.9
58 0.54
59 1.9
60 2.9
61 0.9
62 0.29
63 6.9
64 2.9
65 5.9
66 0.19
67 2.9
68 2.9
69 4.9
70 0.29
71 2.9
72 0.9
73 2.9
74 0.29
75 9.9
76 7.9
77 22.9
78 0.39
79 2.9
80 1.9
81 3.9
82 0.49
83 3.9
84 1.9
85 1.9
86 0.19
87 2.9
88 4.9
89 10.9
90 0.49
91 18.9
92 2.9
93 2.9
94 0.19
95 2.9
96 3.9
97 3.9
98 0.29
99 2.9
100 3.9
101 3.4
102 0.69
103 6.9
104 4.9
105 6.9
106 0.29
107 1.9
108 1.9
109 4.9
110 0.49
111 4.9
112 2.9
113 2.9
114 0.39
115 3.9
116 4.9
117 4.9
118 0.59
119 1.9
120 3.9
121 2.9
122 0.19
123 3.9
124 10.9
125 3.9
126 0.49
127 3.9
128 2.9
129 2.9
130 0.19
131 1.9
132 2.9
133 0.9
134 0.19
135 1.9
136 2.9
137 2.9
138 0.49
139 3.9
140 2.9
141 2.9
142 0.29
143 2.9
144 1.9
145 1.9
146 0.09
147 1.9
148 0.9
149 10.9
150 0.59
151 9.9
152 6.9
153 3.9
154 0.19
155 0.9
156 0.9
157 0.9
158 0.09
159 0.9
160 0.9
161 0.9
162 0.29
163 9.9
164 7.9
165 10.9
166 0.39
167 2.9
168 1.9
169 1.4
170 0.09
171 1.9
172 0.9
173 0.9
174 0.09
175 1.9
176 3.9
177 7.9
178 0.59
179 7.9
180 4.9
181 2.9
182 0.09
186 1.9
187 1.9
188 2.9
189 0.29
190 6.9
191 4.9
192 3.9
193 0.49
194 2.9
195 1.9
196 0.9
197 0.09
198 0.9
199 3.9
200 1.9
201 0.29
202 1.9
203 3.9
204 3.9
205 0.99
206 4.9
207 2.9
208 1.9
209 0.09
210 0.9
211 0.9
212 0.9
213 0.29
214 5.9
215 3.9
216 4.9
217 0.39
218 9.9
219 10.9
220 11.9
221 0.39
222 1.9
223 1.9
224 1.9
226 0.29
227 6.9
228 2.9
229 4.9
230 0.29
231 1.9
232 2.9
233 2.9
234 0.19
235 1.4
236 0.9
237 0.9
238 0.19
239 6.9
240 4.9
241 16.9
242 0.69
243 6.9
244 3.9
245 1.9
246 0.49
247 11.9
248 4.9
249 0.9
251 0.19
252 5.9
253 12.9
254 7.4
255 0.89
256 3.9
257 3.9
258 1.9
259 0.19
264 1.9
265 1.9
266 3.9
267 0.49
268 5.9
269 4.9
270 3.9
271 0.19
272 0.9
273 0.9
279 0.9
280 0.49
281 3.9
282 99.99
283 71.9
284 4.39
285 23.9
286 4.9
287 0.9
298 0.89
299 34.9
300 9.9
301 12.9
302 0.29
303 0.9

$$$$

     RDKit          2D

 25 26  0  0  1  0  0  0  0  0999 V2000
   -0.2342   -1.0245    0.0000 C   0  0  0  0  0  0  0  0  0  0  0  0
   -3.0526    7.0781    0.0000 C   0  0  0  0  0  0  0  0  0  0  0  0
   -6.9498    4.8281    0.0000 C   0  0  0  0  0  0  0  0  0  0  0  0
   -5.6507    7.0781    0.0000 C   0  0  0  0  0  0  0  0  0  0  0  0
    0.2788    0.3851    0.0000 C   0  0  0  0  0  0  0  0  0  0  0  0
    3.4425    3.3281    0.0000 C   0  0  0  0  0  0  0  0  0  0  0  0
   -4.6462    1.3809    0.0000 C   0  0  0  0  0  0  0  0  0  0  0  0
    3.4430    4.8290    0.0000 C   0  0  0  0  0  0  0  0  0  0  0  0
    2.1430    2.5773    0.0000 C   0  0  0  0  0  0  0  0  0  0  0  0
   -3.1682    1.1199    0.0000 C   0  0  0  0  0  0  0  0  0  0  0  0
   -5.1599    2.7911    0.0000 C   0  0  0  0  0  0  0  0  0  0  0  0
    2.1440    5.5790    0.0000 C   0  0  0  0  0  0  0  0  0  0  0  0
    0.8440    3.3273    0.0000 C   0  0  0  0  0  0  0  0  0  0  0  0
   -2.2040    2.2689    0.0000 C   0  0  0  0  0  0  0  0  0  0  0  0
   -4.1957    3.9402    0.0000 C   0  0  0  0  0  0  0  0  0  0  0  0
   -0.4546    5.5781    0.0000 C   0  0  0  0  0  0  0  0  0  0  0  0
   -4.3517    4.8281    0.0000 C   0  0  0  0  0  0  0  0  0  0  0  0
   -3.0526    5.5781    0.0000 C   0  0  0  0  0  0  0  0  0  0  0  0
    0.8445    4.8281    0.0000 C   0  0  0  0  0  0  0  0  0  0  0  0
   -2.7178    3.6791    0.0000 C   0  0  0  0  0  0  0  0  0  0  0  0
   -0.6854    1.5341    0.0000 C   0  0  0  0  0  0  0  0  0  0  0  0
   -1.7536    4.8281    0.0000 C   0  0  0  0  0  0  0  0  0  0  0  0
   -5.6507    5.5781    0.0000 N   0  0  0  0  0  0  0  0  0  0  0  0
   -2.1626    1.2737    0.0000 O   0  0  0  0  0  0  0  0  0  0  0  0
   -0.1723    2.9437    0.0000 O   0  0  0  0  0  0  0  0  0  0  0  0
  5  1  1  0
  8  6  2  0
  9  6  1  0
 10  7  2  0
 11  7  1  0
 12  8  1  0
 13  9  2  0
 14 10  1  0
 15 11  2  0
 18  2  1  1
 18 17  1  0
 19 12  2  0
 19 13  1  0
 19 16  1  0
 20 14  2  0
 20 15  1  0
 21  5  1  0
 22 16  1  1
 22 18  1  0
 22 20  1  0
 23  3  1  0
 23  4  1  0
 23 17  1  0
 24 21  2  0
 25 21  1  0
 22 25  1  0
M  END
>  <NAME>  (5403) 
DARVON

>  <SYNONYMS>  (5403) 
PROPOXYPHENE

>  <SPECTRUM TYPE>  (5403) 
MS1

>  <INSTRUMENT TYPE>  (5403) 
EI-B

>  <INSTRUMENT>  (5403) 
Unknown

>  <ION MODE>  (5403) 
P

>  <INCHIKEY>  (5403) 
XLMALTXPSGQGBX-GCJKJVERSA-N

>  <FORMULA>  (5403) 
C22H29NO2

>  <EXACT MASS>  (5403) 
339.21982916800005

>  <MW>  (5403) 
339

>  <ID>  (5403) 
JP003834

>  <CONTRIBUTOR>  (5403) 
University of Tokyo Team, {Faculty of Engineering, University of Tokyo

>  <COMMENT>  (5403) 
SMILES=CCC(=O)OC(Cc(c2)cccc2)(c(c1)cccc1)C([H])(C)CN(C)C
InChI=InChI=1S/C22H29NO2/c1-5-21(24)25-22(18(2)17-23(3)4,20-14-10-7-11-15-20)16-19-12-8-6-9-13-19/h6-15,18H,5,16-17H2,1-4H3/t18-,22+/m1/s1
computed SMILES=O=C(OC(C=1C=CC=CC1)(CC=2C=CC=CC2)C(C)CN(C)C)CC
accession=JP003834
date=2016.01.19 (Created 2008.10.21, modified 2011.05.06)
author=SASAKI S, TOYOHASHI UNIV. OF TECH.
license=CC BY-NC-SA
exact mass=339.21983
ionization energy=70 eV
ion type=[M]+*
computed spectral entropy=1.390477247332387
computed normalized entropy=0.3382437149070759
SPLASH=splash10-0a4i-9000000000-9c987f1baf068ed1fd6e
submitter=submitter = University of Tokyo Team (Faculty of Engineering, University of Tokyo)
MoNA Rating=3.75

>  <NUM PEAKS>  (5403) 
61

>  <MASS SPECTRAL PEAKS>  (5403) 
26 0.1
27 0.6
28 1.5
29 0.44
30 1.3
35 0.2
36 0.1
39 0.03
41 0.4
42 1.9
43 0.7
44 0.09
45 0.3
47 0.6
48 0.3
49 0.43
50 0.1
51 1.5
55 0.2
56 0.04
57 4.9
58 99.99
59 4.6
65 0.05
70 0.2
71 0.5
73 0.1
74 0.02
77 1.4
78 0.1
85 0.4
88 0.02
89 0.1
91 3.1
92 0.2
102 0.01
103 0.1
105 1.6
106 0.1
115 0.11
116 0.2
117 0.9
128 0.2
129 0.04
130 0.7
131 0.1
132 0.1
133 0.01
134 0.2
143 0.1
165 0.1
174 0.01
178 0.3
179 0.3
193 0.5
197 0.02
208 1
209 0.1
250 0.3
265 0.09
266 0.4

$$$$

     RDKit          2D

 13 13  0  0  0  0  0  0  0  0999 V2000
   -6.8197    3.1321    0.0000 C   0  0  0  0  0  0  0  0  0  0  0  0
    3.5726    1.6321    0.0000 C   0  0  0  0  0  0  0  0  0  0  0  0
    3.5731    3.1329    0.0000 C   0  0  0  0  0  0  0  0  0  0  0  0
    2.2731    0.8813    0.0000 C   0  0  0  0  0  0  0  0  0  0  0  0
   -1.6236    3.1321    0.0000 C   0  0  0  0  0  0  0  0  0  0  0  0
    2.2740    3.8829    0.0000 C   0  0  0  0  0  0  0  0  0  0  0  0
    0.9740    1.6313    0.0000 C   0  0  0  0  0  0  0  0  0  0  0  0
   -0.3245    3.8821    0.0000 C   0  0  0  0  0  0  0  0  0  0  0  0
   -2.9226    3.8821    0.0000 C   0  0  0  0  0  0  0  0  0  0  0  0
   -5.5207    3.8821    0.0000 C   0  0  0  0  0  0  0  0  0  0  0  0
    0.9745    3.1321    0.0000 C   0  0  0  0  0  0  0  0  0  0  0  0
   -5.5207    5.3821    0.0000 O   0  0  0  0  0  0  0  0  0  0  0  0
   -4.2216    3.1321    0.0000 O   0  0  0  0  0  0  0  0  0  0  0  0
  3  2  2  0
  4  2  1  0
  6  3  1  0
  7  4  2  0
  8  5  1  0
  9  5  1  0
 10  1  1  0
 11  6  2  0
 11  7  1  0
 11  8  1  0
 12 10  2  0
 13  9  1  0
 13 10  1  0
M  END
>  <NAME>  (5404) 
3-PHENYLPROPYL ACETATE

>  <SYNONYMS>  (5404) 


>  <SPECTRUM TYPE>  (5404) 
MS1

>  <INSTRUMENT TYPE>  (5404) 
EI-B

>  <INSTRUMENT>  (5404) 
Unknown

>  <ION MODE>  (5404) 
P

>  <INCHIKEY>  (5404) 
JRJGKUTZNBZHNK-UHFFFAOYSA-N

>  <FORMULA>  (5404) 
C11H14O2

>  <EXACT MASS>  (5404) 
178.099379688

>  <MW>  (5404) 
178

>  <ID>  (5404) 
JP003833

>  <CONTRIBUTOR>  (5404) 
University of Tokyo Team, {Faculty of Engineering, University of Tokyo

>  <COMMENT>  (5404) 
SMILES=CC(=O)OCCCc(c1)cccc1
InChI=InChI=1S/C11H14O2/c1-10(12)13-9-5-8-11-6-3-2-4-7-11/h2-4,6-7H,5,8-9H2,1H3
computed SMILES=O=C(OCCCC=1C=CC=CC1)C
accession=JP003833
date=2016.01.19 (Created 2008.10.21, modified 2011.05.06)
author=SASAKI S, TOYOHASHI UNIV. OF TECH.
license=CC BY-NC-SA
exact mass=178.09938
ionization energy=70 eV
ion type=[M]+*
computed spectral entropy=2.035071162252492
computed normalized entropy=0.6793234429584667
SPLASH=splash10-014i-4900000000-c81ecf44d44f2a4f762f
submitter=submitter = University of Tokyo Team (Faculty of Engineering, University of Tokyo)
MoNA Rating=3.75

>  <NUM PEAKS>  (5404) 
20

>  <MASS SPECTRAL PEAKS>  (5404) 
39 4.9
41 3.9
43 40.9
51 0.44
63 1.9
65 7.4
77 5.9
78 0.39
79 2.9
91 33.9
92 4.9
96 0.19
103 4.9
104 2.4
105 7.9
115 0.44
116 4.4
117 72.9
118 99.99
119 9.4

$$$$

     RDKit          2D

 20 22  0  0  0  0  0  0  0  0999 V2000
    7.4792   -3.8026    0.0000 C   0  0  0  0  0  0  0  0  0  0  0  0
    2.2905   -6.8156    0.0000 C   0  0  0  0  0  0  0  0  0  0  0  0
    7.4759   -2.3018    0.0000 C   0  0  0  0  0  0  0  0  0  0  0  0
    6.1815   -4.5567    0.0000 C   0  0  0  0  0  0  0  0  0  0  0  0
    0.9886   -6.0688    0.0000 C   0  0  0  0  0  0  0  0  0  0  0  0
    3.5886   -6.0623    0.0000 C   0  0  0  0  0  0  0  0  0  0  0  0
    6.1750   -1.5551    0.0000 C   0  0  0  0  0  0  0  0  0  0  0  0
    4.8806   -3.8099    0.0000 C   0  0  0  0  0  0  0  0  0  0  0  0
    0.9849   -4.5688    0.0000 C   0  0  0  0  0  0  0  0  0  0  0  0
    3.5849   -4.5623    0.0000 C   0  0  0  0  0  0  0  0  0  0  0  0
   -1.9381   -4.1205    0.0000 C   0  0  0  0  0  0  0  0  0  0  0  0
   -2.6855   -2.8285    0.0000 C   0  0  0  0  0  0  0  0  0  0  0  0
    3.5765   -1.5624    0.0000 C   0  0  0  0  0  0  0  0  0  0  0  0
    0.9784   -1.5688    0.0000 C   0  0  0  0  0  0  0  0  0  0  0  0
    4.8774   -2.3091    0.0000 C   0  0  0  0  0  0  0  0  0  0  0  0
    2.2830   -3.8156    0.0000 C   0  0  0  0  0  0  0  0  0  0  0  0
   -0.3188   -2.3221    0.0000 C   0  0  0  0  0  0  0  0  0  0  0  0
   -0.4670   -3.8168    0.0000 N   0  0  0  0  0  0  0  0  0  0  0  0
   -1.6818   -1.7137    0.0000 N   0  0  0  0  0  0  0  0  0  0  0  0
    2.2793   -2.3156    0.0000 N   0  0  0  0  0  0  0  0  0  0  0  0
  3  1  2  0
  4  1  1  0
  5  2  2  0
  6  2  1  0
  7  3  1  0
  8  4  2  0
  9  5  1  0
 10  6  2  0
 12 11  1  0
 15  7  2  0
 15  8  1  0
 15 13  1  0
 16  9  2  0
 16 10  1  0
 17 14  1  0
 18 11  1  0
 18 17  2  0
 19 12  1  0
 19 17  1  0
 20 13  1  0
 20 14  1  0
 20 16  1  0
M  END
>  <NAME>  (5405) 
2-(N-BENZYL-N-PHENYLAMINOMETHYL)-4,5-DIHYDRO-1H-IMIDAZOLE

>  <SYNONYMS>  (5405) 
ANTAZOLINE

>  <SPECTRUM TYPE>  (5405) 
MS1

>  <INSTRUMENT TYPE>  (5405) 
EI-B

>  <INSTRUMENT>  (5405) 
Unknown

>  <ION MODE>  (5405) 
P

>  <INCHIKEY>  (5405) 
REYFJDPCWQRWAA-UHFFFAOYSA-N

>  <FORMULA>  (5405) 
C17H19N3

>  <EXACT MASS>  (5405) 
265.157897608

>  <MW>  (5405) 
265

>  <ID>  (5405) 
JP003832

>  <CONTRIBUTOR>  (5405) 
University of Tokyo Team, {Faculty of Engineering, University of Tokyo

>  <COMMENT>  (5405) 
SMILES=c(c3)ccc(c3)CN(CC(N2)=NCC2)c(c1)cccc1
InChI=InChI=1S/C17H19N3/c1-3-7-15(8-4-1)13-20(14-17-18-11-12-19-17)16-9-5-2-6-10-16/h1-10H,11-14H2,(H,18,19)
computed SMILES=N1=C(NCC1)CN(C=2C=CC=CC2)CC=3C=CC=CC3
accession=JP003832
date=2016.01.19 (Created 2008.10.21, modified 2011.05.06)
author=SASAKI S, TOYOHASHI UNIV. OF TECH.
license=CC BY-NC-SA
exact mass=265.1579
ionization energy=70 eV
ion type=[M]+*
computed spectral entropy=1.6827115231986967
computed normalized entropy=0.4900168297077227
SPLASH=splash10-001i-9000000000-1eb3fa441bd25a0e41a3
submitter=submitter = University of Tokyo Team (Faculty of Engineering, University of Tokyo)
MoNA Rating=3.75

>  <NUM PEAKS>  (5405) 
31

>  <MASS SPECTRAL PEAKS>  (5405) 
54 1.9
55 5.9
56 1.4
57 0.04
64 0.9
65 2.9
66 0.4
76 0.04
77 5.9
78 1.1
79 0.9
82 0.19
83 3.9
84 99.99
85 5.9
86 0.19
87 0.9
88 0.4
90 1.9
91 1.49
92 2.9
93 0.9
103 0.9
104 0.19
105 0.9
106 1.4
180 1.9
181 0.14
182 5.9
183 1.4
265 1.4

$$$$

     RDKit          2D

 24 26  0  0  0  0  0  0  0  0999 V2000
    7.4670    1.2206    0.0000 C   0  0  0  0  0  0  0  0  0  0  0  0
   -2.9306    2.7156    0.0000 C   0  0  0  0  0  0  0  0  0  0  0  0
   -2.9356    5.7156    0.0000 C   0  0  0  0  0  0  0  0  0  0  0  0
   -0.3375    5.7200    0.0000 C   0  0  0  0  0  0  0  0  0  0  0  0
    6.1681    0.4704    0.0000 C   0  0  0  0  0  0  0  0  0  0  0  0
   -4.2200    0.4700    0.0000 C   0  0  0  0  0  0  0  0  0  0  0  0
   -4.2200   -1.0300    0.0000 C   0  0  0  0  0  0  0  0  0  0  0  0
   -2.9200    1.2200    0.0000 C   0  0  0  0  0  0  0  0  0  0  0  0
   -2.9200   -1.7800    0.0000 C   0  0  0  0  0  0  0  0  0  0  0  0
    3.5700   -1.0300    0.0000 C   0  0  0  0  0  0  0  0  0  0  0  0
    2.2700   -1.7800    0.0000 C   0  0  0  0  0  0  0  0  0  0  0  0
    2.2700    1.2200    0.0000 C   0  0  0  0  0  0  0  0  0  0  0  0
   -0.3325    2.7200    0.0000 C   0  0  0  0  0  0  0  0  0  0  0  0
   -1.6328    3.4678    0.0000 C   0  0  0  0  0  0  0  0  0  0  0  0
    3.5700    0.4700    0.0000 C   0  0  0  0  0  0  0  0  0  0  0  0
   -1.6200    0.4700    0.0000 C   0  0  0  0  0  0  0  0  0  0  0  0
    0.9700    0.4700    0.0000 C   0  0  0  0  0  0  0  0  0  0  0  0
    4.8689    1.2202    0.0000 C   0  0  0  0  0  0  0  0  0  0  0  0
   -1.6200   -1.0300    0.0000 C   0  0  0  0  0  0  0  0  0  0  0  0
    0.9700   -1.0300    0.0000 C   0  0  0  0  0  0  0  0  0  0  0  0
   -1.6353    4.9678    0.0000 N   0  0  0  0  0  0  0  0  0  0  0  0
   -0.3300    1.2200    0.0000 N   0  0  0  0  0  0  0  0  0  0  0  0
    4.8687    2.7202    0.0000 O   0  0  0  0  0  0  0  0  0  0  0  0
   -0.3300   -1.7800    0.0000 S   0  0  0  0  0  0  0  0  0  0  0  0
  5  1  1  0
  7  6  2  0
  8  6  1  0
  9  7  1  0
 11 10  1  0
 14  2  1  0
 14 13  1  0
 15 10  2  0
 15 12  1  0
 16  8  2  0
 17 12  2  0
 18  5  1  0
 18 15  1  0
 19  9  2  0
 19 16  1  0
 20 11  2  0
 20 17  1  0
 21  3  1  0
 21  4  1  0
 21 14  1  0
 22 13  1  0
 22 16  1  0
 22 17  1  0
 23 18  2  0
 24 19  1  0
 24 20  1  0
M  END
>  <NAME>  (5406) 
2-PROPIONYL-10-(2-DIMETHYLAMINOPROPYL)-PHENOTHIAZINE

>  <SYNONYMS>  (5406) 
PROPIOMAZINE

>  <SPECTRUM TYPE>  (5406) 
MS1

>  <INSTRUMENT TYPE>  (5406) 
EI-B

>  <INSTRUMENT>  (5406) 
Unknown

>  <ION MODE>  (5406) 
P

>  <INCHIKEY>  (5406) 
UVOIBTBFPOZKGP-UHFFFAOYSA-N

>  <FORMULA>  (5406) 
C20H24N2OS

>  <EXACT MASS>  (5406) 
340.16093438800004

>  <MW>  (5406) 
340

>  <ID>  (5406) 
JP003831

>  <CONTRIBUTOR>  (5406) 
University of Tokyo Team, {Faculty of Engineering, University of Tokyo

>  <COMMENT>  (5406) 
SMILES=CCC(=O)c(c3)cc(c(c3)1)N(CC(C)N(C)C)c(c2)c(ccc2)S1
InChI=InChI=1S/C20H24N2OS/c1-5-18(23)15-10-11-20-17(12-15)22(13-14(2)21(3)4)16-8-6-7-9-19(16)24-20/h6-12,14H,5,13H2,1-4H3
computed SMILES=O=C(C1=CC=C2SC=3C=CC=CC3N(C2=C1)CC(N(C)C)C)CC
license=CC BY-NC-SA
accession=JP003831
date=2016.01.19 (Created 2008.10.21, modified 2011.05.06)
author=SASAKI S, TOYOHASHI UNIV. OF TECH.
exact mass=340.16093
ionization energy=70 eV
ion type=[M]+*
computed spectral entropy=1.0109720726051155
computed normalized entropy=0.46011321875470557
SPLASH=splash10-00di-9100000000-976e369803cbbc61ad7a
submitter=submitter = University of Tokyo Team (Faculty of Engineering, University of Tokyo)
MoNA Rating=3.75

>  <NUM PEAKS>  (5406) 
9

>  <MASS SPECTRAL PEAKS>  (5406) 
72 99.99
73 3.9
149 16.9
150 0.14
197 4.4
254 2.9
255 4.9
269 0.54
340 2.9

$$$$

     RDKit          2D

 20 22  0  0  0  0  0  0  0  0999 V2000
   -2.5981    2.8000    0.0000 C   0  0  0  0  0  0  0  0  0  0  0  0
   -2.5981    5.8000    0.0000 C   0  0  0  0  0  0  0  0  0  0  0  0
    0.0000    5.8000    0.0000 C   0  0  0  0  0  0  0  0  0  0  0  0
    3.9000    0.5500    0.0000 C   0  0  0  0  0  0  0  0  0  0  0  0
   -3.9000    0.5500    0.0000 C   0  0  0  0  0  0  0  0  0  0  0  0
    3.9000   -0.9500    0.0000 C   0  0  0  0  0  0  0  0  0  0  0  0
   -3.9000   -0.9500    0.0000 C   0  0  0  0  0  0  0  0  0  0  0  0
    2.6000    1.3000    0.0000 C   0  0  0  0  0  0  0  0  0  0  0  0
   -2.6000    1.3000    0.0000 C   0  0  0  0  0  0  0  0  0  0  0  0
    2.6000   -1.7000    0.0000 C   0  0  0  0  0  0  0  0  0  0  0  0
   -2.6000   -1.7000    0.0000 C   0  0  0  0  0  0  0  0  0  0  0  0
    0.0000    2.8000    0.0000 C   0  0  0  0  0  0  0  0  0  0  0  0
   -1.2990    3.5500    0.0000 C   0  0  0  0  0  0  0  0  0  0  0  0
    1.3000    0.5500    0.0000 C   0  0  0  0  0  0  0  0  0  0  0  0
   -1.3000    0.5500    0.0000 C   0  0  0  0  0  0  0  0  0  0  0  0
    1.3000   -0.9500    0.0000 C   0  0  0  0  0  0  0  0  0  0  0  0
   -1.3000   -0.9500    0.0000 C   0  0  0  0  0  0  0  0  0  0  0  0
   -1.2990    5.0500    0.0000 N   0  0  0  0  0  0  0  0  0  0  0  0
   -0.0000    1.3000    0.0000 N   0  0  0  0  0  0  0  0  0  0  0  0
   -0.0000   -1.7000    0.0000 S   0  0  0  0  0  0  0  0  0  0  0  0
  6  4  2  0
  7  5  2  0
  8  4  1  0
  9  5  1  0
 10  6  1  0
 11  7  1  0
 13  1  1  0
 13 12  1  0
 14  8  2  0
 15  9  2  0
 16 10  2  0
 16 14  1  0
 17 11  2  0
 17 15  1  0
 18  2  1  0
 18  3  1  0
 18 13  1  0
 19 12  1  0
 19 14  1  0
 19 15  1  0
 20 16  1  0
 20 17  1  0
M  END
>  <NAME>  (5407) 
10-(2-DIMETHYLAMINOPROPYL)-PHENOTHIAZINE

>  <SYNONYMS>  (5407) 
PHENERGAN

>  <SPECTRUM TYPE>  (5407) 
MS1

>  <INSTRUMENT TYPE>  (5407) 
EI-B

>  <INSTRUMENT>  (5407) 
Unknown

>  <ION MODE>  (5407) 
P

>  <INCHIKEY>  (5407) 
PWWVAXIEGOYWEE-UHFFFAOYSA-N

>  <FORMULA>  (5407) 
C17H20N2S

>  <EXACT MASS>  (5407) 
284.13471963999996

>  <MW>  (5407) 
284

>  <ID>  (5407) 
JP003830

>  <CONTRIBUTOR>  (5407) 
University of Tokyo Team, {Faculty of Engineering, University of Tokyo

>  <COMMENT>  (5407) 
SMILES=CN(C)C(C)CN(c21)c(c3)c(ccc3)Sc(cccc2)1
InChI=InChI=1S/C17H20N2S/c1-13(18(2)3)12-19-14-8-4-6-10-16(14)20-17-11-7-5-9-15(17)19/h4-11,13H,12H2,1-3H3
computed SMILES=S1C=2C=CC=CC2N(C=3C=CC=CC13)CC(N(C)C)C
accession=JP003830
date=2016.01.19 (Created 2008.10.21, modified 2011.05.06)
author=SASAKI S, TOYOHASHI UNIV. OF TECH.
license=CC BY-NC-SA
exact mass=284.13472
ionization energy=70 eV
ion type=[M]+*
computed spectral entropy=0.6347361056716558
computed normalized entropy=0.3052435439752237
SPLASH=splash10-00di-9000000000-abbdf5514dccef4821b2
submitter=submitter = University of Tokyo Team (Faculty of Engineering, University of Tokyo)
MoNA Rating=3.75

>  <NUM PEAKS>  (5407) 
8

>  <MASS SPECTRAL PEAKS>  (5407) 
72 99.99
73 3.9
180 1.9
198 0.29
199 1.9
213 2.9
284 3.9
285 0.9

$$$$

     RDKit          2D

 20 22  0  0  0  0  0  0  0  0999 V2000
   -2.5981    7.3000    0.0000 C   0  0  0  0  0  0  0  0  0  0  0  0
   -3.8971    5.0500    0.0000 C   0  0  0  0  0  0  0  0  0  0  0  0
    3.9000    0.5500    0.0000 C   0  0  0  0  0  0  0  0  0  0  0  0
   -3.9000    0.5500    0.0000 C   0  0  0  0  0  0  0  0  0  0  0  0
    3.9000   -0.9500    0.0000 C   0  0  0  0  0  0  0  0  0  0  0  0
   -3.9000   -0.9500    0.0000 C   0  0  0  0  0  0  0  0  0  0  0  0
   -1.2990    3.5500    0.0000 C   0  0  0  0  0  0  0  0  0  0  0  0
    2.6000    1.3000    0.0000 C   0  0  0  0  0  0  0  0  0  0  0  0
   -2.6000    1.3000    0.0000 C   0  0  0  0  0  0  0  0  0  0  0  0
    2.6000   -1.7000    0.0000 C   0  0  0  0  0  0  0  0  0  0  0  0
   -2.6000   -1.7000    0.0000 C   0  0  0  0  0  0  0  0  0  0  0  0
   -1.2990    5.0500    0.0000 C   0  0  0  0  0  0  0  0  0  0  0  0
    0.0000    2.8000    0.0000 C   0  0  0  0  0  0  0  0  0  0  0  0
    1.3000    0.5500    0.0000 C   0  0  0  0  0  0  0  0  0  0  0  0
   -1.3000    0.5500    0.0000 C   0  0  0  0  0  0  0  0  0  0  0  0
    1.3000   -0.9500    0.0000 C   0  0  0  0  0  0  0  0  0  0  0  0
   -1.3000   -0.9500    0.0000 C   0  0  0  0  0  0  0  0  0  0  0  0
   -2.5981    5.8000    0.0000 N   0  0  0  0  0  0  0  0  0  0  0  0
   -0.0000    1.3000    0.0000 N   0  0  0  0  0  0  0  0  0  0  0  0
   -0.0000   -1.7000    0.0000 S   0  0  0  0  0  0  0  0  0  0  0  0
  5  3  2  0
  6  4  2  0
  8  3  1  0
  9  4  1  0
 10  5  1  0
 11  6  1  0
 12  7  1  0
 13  7  1  0
 14  8  2  0
 15  9  2  0
 16 10  2  0
 16 14  1  0
 17 11  2  0
 17 15  1  0
 18  1  1  0
 18  2  1  0
 18 12  1  0
 19 13  1  0
 19 14  1  0
 19 15  1  0
 20 16  1  0
 20 17  1  0
M  END
>  <NAME>  (5408) 
10-(3-DIMETHYLAMINOPROPYL)-PHENOTHIAZINE

>  <SYNONYMS>  (5408) 
PROMAZINE

>  <SPECTRUM TYPE>  (5408) 
MS1

>  <INSTRUMENT TYPE>  (5408) 
EI-B

>  <INSTRUMENT>  (5408) 
Unknown

>  <ION MODE>  (5408) 
P

>  <INCHIKEY>  (5408) 
ZGUGWUXLJSTTMA-UHFFFAOYSA-N

>  <FORMULA>  (5408) 
C17H20N2S

>  <EXACT MASS>  (5408) 
284.13471964

>  <MW>  (5408) 
284

>  <ID>  (5408) 
JP003829

>  <CONTRIBUTOR>  (5408) 
University of Tokyo Team, {Faculty of Engineering, University of Tokyo

>  <COMMENT>  (5408) 
SMILES=CN(C)CCCN(c21)c(c3)c(ccc3)Sc(cccc2)1
InChI=InChI=1S/C17H20N2S/c1-18(2)12-7-13-19-14-8-3-5-10-16(14)20-17-11-6-4-9-15(17)19/h3-6,8-11H,7,12-13H2,1-2H3
computed SMILES=S1C=2C=CC=CC2N(C=3C=CC=CC13)CCCN(C)C
accession=JP003829
date=2016.01.19 (Created 2008.10.21, modified 2011.05.06)
author=SASAKI S, TOYOHASHI UNIV. OF TECH.
license=CC BY-NC-SA
exact mass=284.13472
ionization energy=70 eV
ion type=[M]+*
computed spectral entropy=2.383131376965088
computed normalized entropy=0.7006742360246258
SPLASH=splash10-0a4r-9230000000-62cbfd979fa705bc6b5e
submitter=submitter = University of Tokyo Team (Faculty of Engineering, University of Tokyo)
MoNA Rating=3.75

>  <NUM PEAKS>  (5408) 
30

>  <MASS SPECTRAL PEAKS>  (5408) 
56 1.9
57 1.9
58 99.99
59 0.49
70 3.4
71 1.9
72 5.9
84 0.34
85 12.9
86 29.9
149 1.9
151 0.04
152 1.9
154 2.4
180 5.9
197 0.19
198 11.4
199 20.9
200 0.2
201 0.14
212 6.9
213 5.9
214 1.4
226 0.29
238 23.9
239 7.9
240 2.4
284 4.39
285 10.4
286 3.9

$$$$

     RDKit          2D

 22 24  0  0  0  0  0  0  0  0999 V2000
   -2.5981    7.5000    0.0000 C   0  0  0  0  0  0  0  0  0  0  0  0
   -3.8971    5.2500    0.0000 C   0  0  0  0  0  0  0  0  0  0  0  0
   -1.2990    3.7500    0.0000 C   0  0  0  0  0  0  0  0  0  0  0  0
   -3.9000   -0.7500    0.0000 C   0  0  0  0  0  0  0  0  0  0  0  0
    3.9000   -0.7500    0.0000 C   0  0  0  0  0  0  0  0  0  0  0  0
   -2.6000   -1.5000    0.0000 C   0  0  0  0  0  0  0  0  0  0  0  0
    2.6000   -1.5000    0.0000 C   0  0  0  0  0  0  0  0  0  0  0  0
   -1.2990    5.2500    0.0000 C   0  0  0  0  0  0  0  0  0  0  0  0
    0.0000    3.0000    0.0000 C   0  0  0  0  0  0  0  0  0  0  0  0
   -2.6000    1.5000    0.0000 C   0  0  0  0  0  0  0  0  0  0  0  0
    2.6000    1.5000    0.0000 C   0  0  0  0  0  0  0  0  0  0  0  0
   -3.9000    0.7500    0.0000 C   0  0  0  0  0  0  0  0  0  0  0  0
    3.9000    0.7500    0.0000 C   0  0  0  0  0  0  0  0  0  0  0  0
   -1.3000    0.7500    0.0000 C   0  0  0  0  0  0  0  0  0  0  0  0
    1.3000    0.7500    0.0000 C   0  0  0  0  0  0  0  0  0  0  0  0
   -1.3000   -0.7500    0.0000 C   0  0  0  0  0  0  0  0  0  0  0  0
    1.3000   -0.7500    0.0000 C   0  0  0  0  0  0  0  0  0  0  0  0
   -5.1989    1.5002    0.0000 Cl  0  0  0  0  0  0  0  0  0  0  0  0
   -2.5981    6.0000    0.0000 N   0  0  0  0  0  0  0  0  0  0  0  0
   -0.0000    1.5000    0.0000 N   0  0  0  0  0  0  0  0  0  0  0  0
    5.1989    1.5002    0.0000 O   0  0  0  0  0  0  0  0  0  0  0  0
   -0.0000   -1.5000    0.0000 S   0  0  0  0  0  0  0  0  0  0  0  0
  6  4  2  0
  7  5  1  0
  8  3  1  0
  9  3  1  0
 12  4  1  0
 12 10  2  0
 13  5  2  0
 13 11  1  0
 14 10  1  0
 15 11  2  0
 16  6  1  0
 16 14  2  0
 17  7  2  0
 17 15  1  0
 18 12  1  0
 19  1  1  0
 19  2  1  0
 19  8  1  0
 20  9  1  0
 20 14  1  0
 20 15  1  0
 21 13  1  0
 22 16  1  0
 22 17  1  0
M  END
>  <NAME>  (5409) 
8-HYDROXY-2-CHLOROPROMAZINE

>  <SYNONYMS>  (5409) 


>  <SPECTRUM TYPE>  (5409) 
MS1

>  <INSTRUMENT TYPE>  (5409) 
EI-B

>  <INSTRUMENT>  (5409) 
Unknown

>  <ION MODE>  (5409) 
P

>  <INCHIKEY>  (5409) 
UBUDVAYGFVRZCO-UHFFFAOYSA-N

>  <FORMULA>  (5409) 
C17H19ClN2OS

>  <EXACT MASS>  (5409) 
334.090661908

>  <MW>  (5409) 
334

>  <ID>  (5409) 
JP003828

>  <CONTRIBUTOR>  (5409) 
University of Tokyo Team, {Faculty of Engineering, University of Tokyo

>  <COMMENT>  (5409) 
SMILES=CN(C)CCCN(c21)c(c3)c(ccc(Cl)3)Sc(ccc(O)c2)1
InChI=InChI=1S/C17H19ClN2OS/c1-19(2)8-3-9-20-14-10-12(18)4-6-16(14)22-17-7-5-13(21)11-15(17)20/h4-7,10-11,21H,3,8-9H2,1-2H3
computed SMILES=ClC1=CC=C2SC3=CC=C(O)C=C3N(C2=C1)CCCN(C)C
accession=JP003828
date=2016.01.19 (Created 2008.10.21, modified 2011.05.06)
author=SASAKI S, TOYOHASHI UNIV. OF TECH.
license=CC BY-NC-SA
exact mass=334.09066
ionization energy=70 eV
ion type=[M]+*
computed spectral entropy=2.436879664525673
computed normalized entropy=0.674864320784623
SPLASH=splash10-0a4i-9022000000-e5edf85cbfa7f9098694
submitter=submitter = University of Tokyo Team (Faculty of Engineering, University of Tokyo)
MoNA Rating=3.75

>  <NUM PEAKS>  (5409) 
37

>  <MASS SPECTRAL PEAKS>  (5409) 
41 3.9
42 17.9
43 6.4
44 0.99
45 0.9
55 0.9
56 2.9
57 0.49
58 99.99
84 5.9
85 10.9
86 4.49
87 2.9
183 1.9
184 2.4
185 0.29
186 0.9
187 0.9
219 1.9
220 0.19
221 0.9
222 0.9
243 9.4
244 0.64
245 3.9
246 2.9
262 3.9
263 0.29
264 1.9
288 6.9
289 6.4
290 0.49
291 1.9
334 27.9
335 5.9
336 1.09
337 1.9

$$$$

     RDKit          2D

 22 24  0  0  0  0  0  0  0  0999 V2000
   -2.5981    7.5000    0.0000 C   0  0  0  0  0  0  0  0  0  0  0  0
   -3.8971    5.2500    0.0000 C   0  0  0  0  0  0  0  0  0  0  0  0
   -3.9000    0.7500    0.0000 C   0  0  0  0  0  0  0  0  0  0  0  0
   -3.9000   -0.7500    0.0000 C   0  0  0  0  0  0  0  0  0  0  0  0
   -1.2990    3.7500    0.0000 C   0  0  0  0  0  0  0  0  0  0  0  0
   -2.6000    1.5000    0.0000 C   0  0  0  0  0  0  0  0  0  0  0  0
   -2.6000   -1.5000    0.0000 C   0  0  0  0  0  0  0  0  0  0  0  0
   -1.2990    5.2500    0.0000 C   0  0  0  0  0  0  0  0  0  0  0  0
    0.0000    3.0000    0.0000 C   0  0  0  0  0  0  0  0  0  0  0  0
    2.6000    1.5000    0.0000 C   0  0  0  0  0  0  0  0  0  0  0  0
    2.6000   -1.5000    0.0000 C   0  0  0  0  0  0  0  0  0  0  0  0
    3.9000    0.7500    0.0000 C   0  0  0  0  0  0  0  0  0  0  0  0
   -1.3000    0.7500    0.0000 C   0  0  0  0  0  0  0  0  0  0  0  0
    1.3000    0.7500    0.0000 C   0  0  0  0  0  0  0  0  0  0  0  0
    3.9000   -0.7500    0.0000 C   0  0  0  0  0  0  0  0  0  0  0  0
   -1.3000   -0.7500    0.0000 C   0  0  0  0  0  0  0  0  0  0  0  0
    1.3000   -0.7500    0.0000 C   0  0  0  0  0  0  0  0  0  0  0  0
    5.1989    1.5002    0.0000 Cl  0  0  0  0  0  0  0  0  0  0  0  0
   -2.5981    6.0000    0.0000 N   0  0  0  0  0  0  0  0  0  0  0  0
   -0.0000    1.5000    0.0000 N   0  0  0  0  0  0  0  0  0  0  0  0
    5.1989   -1.5002    0.0000 O   0  0  0  0  0  0  0  0  0  0  0  0
   -0.0000   -1.5000    0.0000 S   0  0  0  0  0  0  0  0  0  0  0  0
  4  3  2  0
  6  3  1  0
  7  4  1  0
  8  5  1  0
  9  5  1  0
 12 10  1  0
 13  6  2  0
 14 10  2  0
 15 11  1  0
 15 12  2  0
 16  7  2  0
 16 13  1  0
 17 11  2  0
 17 14  1  0
 18 12  1  0
 19  1  1  0
 19  2  1  0
 19  8  1  0
 20  9  1  0
 20 13  1  0
 20 14  1  0
 21 15  1  0
 22 16  1  0
 22 17  1  0
M  END
>  <NAME>  (5410) 
3-HYDROXY-2-CHLOROPROMAZINE

>  <SYNONYMS>  (5410) 


>  <SPECTRUM TYPE>  (5410) 
MS1

>  <INSTRUMENT TYPE>  (5410) 
EI-B

>  <INSTRUMENT>  (5410) 
Unknown

>  <ION MODE>  (5410) 
P

>  <INCHIKEY>  (5410) 
SOUCXKDIHOVGPW-UHFFFAOYSA-N

>  <FORMULA>  (5410) 
C17H19ClN2OS

>  <EXACT MASS>  (5410) 
334.09066190799996

>  <MW>  (5410) 
334

>  <ID>  (5410) 
JP003827

>  <CONTRIBUTOR>  (5410) 
University of Tokyo Team, {Faculty of Engineering, University of Tokyo

>  <COMMENT>  (5410) 
SMILES=CN(C)CCCN(c21)c(c3)c(cc(O)c(Cl)3)Sc(cccc2)1
InChI=InChI=1S/C17H19ClN2OS/c1-19(2)8-5-9-20-13-6-3-4-7-16(13)22-17-11-15(21)12(18)10-14(17)20/h3-4,6-7,10-11,21H,5,8-9H2,1-2H3
computed SMILES=ClC=1C=C2C(SC=3C=CC=CC3N2CCCN(C)C)=CC1O
accession=JP003827
date=2016.01.19 (Created 2008.10.21, modified 2011.05.06)
author=SASAKI S, TOYOHASHI UNIV. OF TECH.
license=CC BY-NC-SA
exact mass=334.09066
ionization energy=70 eV
ion type=[M]+*
computed spectral entropy=1.8085078983147087
computed normalized entropy=0.5550811270352801
SPLASH=splash10-0a4i-9000000000-a500f7a95d653d68eadc
submitter=submitter = University of Tokyo Team (Faculty of Engineering, University of Tokyo)
MoNA Rating=3.75

>  <NUM PEAKS>  (5410) 
26

>  <MASS SPECTRAL PEAKS>  (5410) 
41 2.9
42 11.9
43 2.9
44 0.44
55 0.9
56 1.9
57 1.4
58 99.99
59 4.9
84 1.9
85 0.9
86 7.79
87 4.9
183 1.9
184 3.9
185 0.09
186 1.9
220 5.4
221 0.9
222 0.09
248 2.9
249 2.4
250 1.4
334 0.64
335 0.9
336 1.9

$$$$

     RDKit          2D

 25 27  0  0  0  0  0  0  0  0999 V2000
    7.7970    1.5006    0.0000 C   0  0  0  0  0  0  0  0  0  0  0  0
   -2.5981    7.5000    0.0000 C   0  0  0  0  0  0  0  0  0  0  0  0
   -3.8971    5.2500    0.0000 C   0  0  0  0  0  0  0  0  0  0  0  0
   -1.2990    3.7500    0.0000 C   0  0  0  0  0  0  0  0  0  0  0  0
   -3.9000   -0.7500    0.0000 C   0  0  0  0  0  0  0  0  0  0  0  0
    3.9000   -0.7500    0.0000 C   0  0  0  0  0  0  0  0  0  0  0  0
   -2.6000   -1.5000    0.0000 C   0  0  0  0  0  0  0  0  0  0  0  0
    2.6000   -1.5000    0.0000 C   0  0  0  0  0  0  0  0  0  0  0  0
   -1.2990    5.2500    0.0000 C   0  0  0  0  0  0  0  0  0  0  0  0
    0.0000    3.0000    0.0000 C   0  0  0  0  0  0  0  0  0  0  0  0
   -2.6000    1.5000    0.0000 C   0  0  0  0  0  0  0  0  0  0  0  0
    2.6000    1.5000    0.0000 C   0  0  0  0  0  0  0  0  0  0  0  0
    6.4981    0.7504    0.0000 C   0  0  0  0  0  0  0  0  0  0  0  0
   -3.9000    0.7500    0.0000 C   0  0  0  0  0  0  0  0  0  0  0  0
    3.9000    0.7500    0.0000 C   0  0  0  0  0  0  0  0  0  0  0  0
   -1.3000    0.7500    0.0000 C   0  0  0  0  0  0  0  0  0  0  0  0
    1.3000    0.7500    0.0000 C   0  0  0  0  0  0  0  0  0  0  0  0
   -1.3000   -0.7500    0.0000 C   0  0  0  0  0  0  0  0  0  0  0  0
    1.3000   -0.7500    0.0000 C   0  0  0  0  0  0  0  0  0  0  0  0
   -5.1989    1.5002    0.0000 Cl  0  0  0  0  0  0  0  0  0  0  0  0
   -2.5981    6.0000    0.0000 N   0  0  0  0  0  0  0  0  0  0  0  0
   -0.0000    1.5000    0.0000 N   0  0  0  0  0  0  0  0  0  0  0  0
    6.4983   -0.7496    0.0000 O   0  0  0  0  0  0  0  0  0  0  0  0
    5.1989    1.5002    0.0000 O   0  0  0  0  0  0  0  0  0  0  0  0
   -0.0000   -1.5000    0.0000 S   0  0  0  0  0  0  0  0  0  0  0  0
  7  5  2  0
  8  6  1  0
  9  4  1  0
 10  4  1  0
 13  1  1  0
 14  5  1  0
 14 11  2  0
 15  6  2  0
 15 12  1  0
 16 11  1  0
 17 12  2  0
 18  7  1  0
 18 16  2  0
 19  8  2  0
 19 17  1  0
 20 14  1  0
 21  2  1  0
 21  3  1  0
 21  9  1  0
 22 10  1  0
 22 16  1  0
 22 17  1  0
 23 13  2  0
 24 13  1  0
 24 15  1  0
 25 18  1  0
 25 19  1  0
M  END
>  <NAME>  (5411) 
8-ACETOXY-2-CHLOROPROMAZINE

>  <SYNONYMS>  (5411) 


>  <SPECTRUM TYPE>  (5411) 
MS1

>  <INSTRUMENT TYPE>  (5411) 
EI-B

>  <INSTRUMENT>  (5411) 
Unknown

>  <ION MODE>  (5411) 
P

>  <INCHIKEY>  (5411) 
TZMZNKUSKYOABO-UHFFFAOYSA-N

>  <FORMULA>  (5411) 
C19H21ClN2O2S

>  <EXACT MASS>  (5411) 
376.101226592

>  <MW>  (5411) 
376

>  <ID>  (5411) 
JP003826

>  <CONTRIBUTOR>  (5411) 
University of Tokyo Team, {Faculty of Engineering, University of Tokyo

>  <COMMENT>  (5411) 
SMILES=CN(C)CCCN(c21)c(c3)c(ccc(OC(C)=O)3)Sc(ccc(Cl)c2)1
InChI=InChI=1S/C19H21ClN2O2S/c1-13(23)24-15-6-8-19-17(12-15)22(10-4-9-21(2)3)16-11-14(20)5-7-18(16)25-19/h5-8,11-12H,4,9-10H2,1-3H3
computed SMILES=O=C(OC1=CC=C2SC3=CC=C(Cl)C=C3N(C2=C1)CCCN(C)C)C
accession=JP003826
date=2016.01.19 (Created 2008.10.21, modified 2011.05.06)
author=SASAKI S, TOYOHASHI UNIV. OF TECH.
license=CC BY-NC-SA
exact mass=376.10123
ionization energy=70 eV
ion type=[M]+*
computed spectral entropy=1.9436588057950341
computed normalized entropy=0.5772165274242749
SPLASH=splash10-0a4i-9020000000-051c58eb52da51ed900f
submitter=submitter = University of Tokyo Team (Faculty of Engineering, University of Tokyo)
MoNA Rating=3.75

>  <NUM PEAKS>  (5411) 
29

>  <MASS SPECTRAL PEAKS>  (5411) 
41 0.9
42 2.9
43 6.9
44 0.29
45 0.9
56 0.9
57 1.9
58 99.99
84 2.4
85 5.9
86 26.9
87 0.09
219 1.9
220 0.9
248 5.4
249 0.29
250 1.9
251 0.9
262 2.4
263 0.24
288 4.9
289 10.9
290 3.9
291 0.69
292 0.4
293 0.9
376 4.9
377 0.09
378 1.9

$$$$

     RDKit          2D

 25 27  0  0  0  0  0  0  0  0999 V2000
    7.7970   -1.5006    0.0000 C   0  0  0  0  0  0  0  0  0  0  0  0
   -2.5981    7.5000    0.0000 C   0  0  0  0  0  0  0  0  0  0  0  0
   -3.8971    5.2500    0.0000 C   0  0  0  0  0  0  0  0  0  0  0  0
   -3.9000    0.7500    0.0000 C   0  0  0  0  0  0  0  0  0  0  0  0
   -3.9000   -0.7500    0.0000 C   0  0  0  0  0  0  0  0  0  0  0  0
   -1.2990    3.7500    0.0000 C   0  0  0  0  0  0  0  0  0  0  0  0
   -2.6000    1.5000    0.0000 C   0  0  0  0  0  0  0  0  0  0  0  0
   -2.6000   -1.5000    0.0000 C   0  0  0  0  0  0  0  0  0  0  0  0
   -1.2990    5.2500    0.0000 C   0  0  0  0  0  0  0  0  0  0  0  0
    0.0000    3.0000    0.0000 C   0  0  0  0  0  0  0  0  0  0  0  0
    2.6000    1.5000    0.0000 C   0  0  0  0  0  0  0  0  0  0  0  0
    2.6000   -1.5000    0.0000 C   0  0  0  0  0  0  0  0  0  0  0  0
    6.4981   -0.7504    0.0000 C   0  0  0  0  0  0  0  0  0  0  0  0
    3.9000    0.7500    0.0000 C   0  0  0  0  0  0  0  0  0  0  0  0
   -1.3000    0.7500    0.0000 C   0  0  0  0  0  0  0  0  0  0  0  0
    1.3000    0.7500    0.0000 C   0  0  0  0  0  0  0  0  0  0  0  0
    3.9000   -0.7500    0.0000 C   0  0  0  0  0  0  0  0  0  0  0  0
   -1.3000   -0.7500    0.0000 C   0  0  0  0  0  0  0  0  0  0  0  0
    1.3000   -0.7500    0.0000 C   0  0  0  0  0  0  0  0  0  0  0  0
    5.1989    1.5002    0.0000 Cl  0  0  0  0  0  0  0  0  0  0  0  0
   -2.5981    6.0000    0.0000 N   0  0  0  0  0  0  0  0  0  0  0  0
   -0.0000    1.5000    0.0000 N   0  0  0  0  0  0  0  0  0  0  0  0
    6.4983    0.7496    0.0000 O   0  0  0  0  0  0  0  0  0  0  0  0
    5.1989   -1.5002    0.0000 O   0  0  0  0  0  0  0  0  0  0  0  0
   -0.0000   -1.5000    0.0000 S   0  0  0  0  0  0  0  0  0  0  0  0
  5  4  2  0
  7  4  1  0
  8  5  1  0
  9  6  1  0
 10  6  1  0
 13  1  1  0
 14 11  1  0
 15  7  2  0
 16 11  2  0
 17 12  1  0
 17 14  2  0
 18  8  2  0
 18 15  1  0
 19 12  2  0
 19 16  1  0
 20 14  1  0
 21  2  1  0
 21  3  1  0
 21  9  1  0
 22 10  1  0
 22 15  1  0
 22 16  1  0
 23 13  2  0
 24 13  1  0
 24 17  1  0
 25 18  1  0
 25 19  1  0
M  END
>  <NAME>  (5412) 
3-ACETOXY-2-CHLOROPROMAZINE

>  <SYNONYMS>  (5412) 


>  <SPECTRUM TYPE>  (5412) 
MS1

>  <INSTRUMENT TYPE>  (5412) 
EI-B

>  <INSTRUMENT>  (5412) 
Unknown

>  <ION MODE>  (5412) 
P

>  <INCHIKEY>  (5412) 
AUESYCHQJPBGKQ-UHFFFAOYSA-N

>  <FORMULA>  (5412) 
C19H21ClN2O2S

>  <EXACT MASS>  (5412) 
376.101226592

>  <MW>  (5412) 
376

>  <ID>  (5412) 
JP003825

>  <CONTRIBUTOR>  (5412) 
University of Tokyo Team, {Faculty of Engineering, University of Tokyo

>  <COMMENT>  (5412) 
SMILES=CN(C)CCCN(c21)c(c3)c(cc(OC(C)=O)c(Cl)3)Sc(cccc2)1
InChI=InChI=1S/C19H21ClN2O2S/c1-13(23)24-17-12-19-16(11-14(17)20)22(10-6-9-21(2)3)15-7-4-5-8-18(15)25-19/h4-5,7-8,11-12H,6,9-10H2,1-3H3
computed SMILES=O=C(OC=1C=C2SC=3C=CC=CC3N(C2=CC1Cl)CCCN(C)C)C
accession=JP003825
date=2016.01.19 (Created 2008.10.21, modified 2011.05.06)
author=SASAKI S, TOYOHASHI UNIV. OF TECH.
license=CC BY-NC-SA
exact mass=376.10123
ionization energy=70 eV
ion type=[M]+*
computed spectral entropy=2.219266791126283
computed normalized entropy=0.6524957366754568
SPLASH=splash10-0a4i-9003000000-e96e80fe67591fd3af47
submitter=submitter = University of Tokyo Team (Faculty of Engineering, University of Tokyo)
MoNA Rating=3.75

>  <NUM PEAKS>  (5412) 
30

>  <MASS SPECTRAL PEAKS>  (5412) 
41 1.9
42 11.9
43 15.9
44 0.29
45 0.9
56 1.4
57 3.9
58 99.99
59 6.9
84 5.9
85 2.9
86 0.86
87 10.9
185 1.9
220 1.9
221 0.19
222 0.9
223 0.9
247 0.9
248 0.59
249 2.9
250 1.4
334 2.4
336 0.09
341 6.9
342 2.9
376 31.9
377 0.69
378 12.9
379 1.9

$$$$

     RDKit          2D

 14 15  0  0  0  0  0  0  0  0999 V2000
    2.9518   -0.2853    0.0000 C   0  0  0  0  0  0  0  0  0  0  0  0
   -5.1979    0.4979    0.0000 C   0  0  0  0  0  0  0  0  0  0  0  0
   -4.3156   -0.7162    0.0000 C   0  0  0  0  0  0  0  0  0  0  0  0
   -4.5885    1.8694    0.0000 C   0  0  0  0  0  0  0  0  0  0  0  0
   -2.8239   -0.5588    0.0000 C   0  0  0  0  0  0  0  0  0  0  0  0
   -3.0968    2.0269    0.0000 C   0  0  0  0  0  0  0  0  0  0  0  0
    0.0273    2.2692    0.0000 C   0  0  0  0  0  0  0  0  0  0  0  0
   -2.2145    0.8128    0.0000 C   0  0  0  0  0  0  0  0  0  0  0  0
   -0.7227    0.9702    0.0000 C   0  0  0  0  0  0  0  0  0  0  0  0
    1.4870    1.9576    0.0000 C   0  0  0  0  0  0  0  0  0  0  0  0
    0.2770   -0.1382    0.0000 C   0  0  0  0  0  0  0  0  0  0  0  0
    1.6528    0.4647    0.0000 N   0  0  0  0  0  0  0  0  0  0  0  0
    2.5992    2.9641    0.0000 O   0  0  0  0  0  0  0  0  0  0  0  0
   -0.0385   -1.6046    0.0000 O   0  0  0  0  0  0  0  0  0  0  0  0
  3  2  2  0
  4  2  1  0
  5  3  1  0
  6  4  2  0
  8  5  2  0
  8  6  1  0
  9  7  1  0
  9  8  1  0
 10  7  1  0
 11  9  1  0
 12  1  1  0
 12 10  1  0
 12 11  1  0
 13 10  2  0
 14 11  2  0
M  END
>  <NAME>  (5413) 
PHENSUXIMIDE

>  <SYNONYMS>  (5413) 


>  <SPECTRUM TYPE>  (5413) 
MS1

>  <INSTRUMENT TYPE>  (5413) 
EI-B

>  <INSTRUMENT>  (5413) 
Unknown

>  <ION MODE>  (5413) 
P

>  <INCHIKEY>  (5413) 
WLWFNJKHKGIJNW-UHFFFAOYSA-N

>  <FORMULA>  (5413) 
C11H11NO2

>  <EXACT MASS>  (5413) 
189.078978592

>  <MW>  (5413) 
189

>  <ID>  (5413) 
JP003824

>  <CONTRIBUTOR>  (5413) 
University of Tokyo Team, {Faculty of Engineering, University of Tokyo

>  <COMMENT>  (5413) 
SMILES=O=C(C1)N(C)C(=O)C1c(c2)cccc2
InChI=InChI=1S/C11H11NO2/c1-12-10(13)7-9(11(12)14)8-5-3-2-4-6-8/h2-6,9H,7H2,1H3
computed SMILES=O=C1N(C(=O)C(C=2C=CC=CC2)C1)C
ion type=[M]+*
accession=JP003824
date=2016.01.19 (Created 2008.10.21, modified 2011.05.06)
author=SASAKI S, TOYOHASHI UNIV. OF TECH.
license=CC BY-NC-SA
exact mass=189.07898
ionization energy=70 eV
computed spectral entropy=2.309347313038871
computed normalized entropy=0.6724973552675508
SPLASH=splash10-0udi-3900000000-3ea0132a234fd8153646
submitter=submitter = University of Tokyo Team (Faculty of Engineering, University of Tokyo)
MoNA Rating=3.75

>  <NUM PEAKS>  (5413) 
31

>  <MASS SPECTRAL PEAKS>  (5413) 
26 1.9
27 4.9
28 4.9
29 0.19
39 5.9
42 1.4
50 5.9
51 1.39
52 4.9
56 2.4
57 0.9
58 0.14
62 2.4
63 4.4
64 1.4
65 0.01
74 2.9
75 2.4
76 3.4
77 1.34
78 13.4
79 1.4
89 2.4
90 0.14
91 1.4
102 4.4
103 17.4
104 99.99
105 12.4
189 25.9
190 2.9

$$$$

     RDKit          2D

 17 17  0  0  0  0  0  0  0  0999 V2000
    0.2130   -3.6188    0.0000 C   0  0  0  0  0  0  0  0  0  0  0  0
    0.2124   -0.2786    0.0000 C   0  0  0  0  0  0  0  0  0  0  0  0
    3.1057   -3.7252    0.0000 C   0  0  0  0  0  0  0  0  0  0  0  0
   -1.2643   -3.3585    0.0000 C   0  0  0  0  0  0  0  0  0  0  0  0
    0.6641   -2.8371    0.0000 C   0  0  0  0  0  0  0  0  0  0  0  0
   -0.3003   -1.6883    0.0000 C   0  0  0  0  0  0  0  0  0  0  0  0
    2.1413   -2.5763    0.0000 C   0  0  0  0  0  0  0  0  0  0  0  0
   -3.0765   -2.6990    0.0000 C   0  0  0  0  0  0  0  0  0  0  0  0
   -1.7779   -0.4482    0.0000 C   0  0  0  0  0  0  0  0  0  0  0  0
   -4.3765   -0.4474    0.0000 C   0  0  0  0  0  0  0  0  0  0  0  0
   -1.7775   -1.9490    0.0000 C   0  0  0  0  0  0  0  0  0  0  0  0
   -4.3760   -1.9482    0.0000 N   0  0  0  0  0  0  0  0  0  0  0  0
   -3.0775    0.3026    0.0000 N   0  0  0  0  0  0  0  0  0  0  0  0
    2.6540   -1.1667    0.0000 O   0  0  0  0  0  0  0  0  0  0  0  0
   -3.0767   -4.1990    0.0000 O   0  0  0  0  0  0  0  0  0  0  0  0
   -0.4789    0.3018    0.0000 O   0  0  0  0  0  0  0  0  0  0  0  0
   -5.6757    0.3024    0.0000 O   0  0  0  0  0  0  0  0  0  0  0  0
  4  1  1  0
  6  2  1  0
  6  5  1  0
  7  3  1  0
  7  5  1  0
 11  4  1  0
 11  6  1  0
 11  8  1  0
 11  9  1  0
 12  8  2  0
 12 10  1  0
 13  9  2  0
 13 10  1  0
 14  7  1  0
 15  8  1  0
 16  9  1  0
 17 10  2  0
M  END
>  <NAME>  (5414) 
5-ETHYL-5-(3-HYDROXY-1-METHYLBUTYL)-BARBITURIC ACID

>  <SYNONYMS>  (5414) 


>  <SPECTRUM TYPE>  (5414) 
MS1

>  <INSTRUMENT TYPE>  (5414) 
EI-B

>  <INSTRUMENT>  (5414) 
Unknown

>  <ION MODE>  (5414) 
P

>  <INCHIKEY>  (5414) 
XYOPMDJVSWQZTM-UHFFFAOYSA-N

>  <FORMULA>  (5414) 
C11H18N2O4

>  <EXACT MASS>  (5414) 
242.126657056

>  <MW>  (5414) 
242

>  <ID>  (5414) 
JP003823

>  <CONTRIBUTOR>  (5414) 
University of Tokyo Team, {Faculty of Engineering, University of Tokyo

>  <COMMENT>  (5414) 
SMILES=CC(O)CC(C)C(CC)(C(=O)1)C(=O)NC(=O)N1
InChI=InChI=1S/C11H18N2O4/c1-4-11(6(2)5-7(3)14)8(15)12-10(17)13-9(11)16/h6-7,14H,4-5H2,1-3H3,(H2,12,13,15,16,17)
computed SMILES=O=C1N=C(O)C(C(O)=N1)(CC)C(C)CC(O)C
license=CC BY-NC-SA
accession=JP003823
date=2016.01.19 (Created 2008.10.21, modified 2011.05.06)
author=SASAKI S, TOYOHASHI UNIV. OF TECH.
exact mass=242.12666
ionization energy=70 eV
ion type=[M]+*
computed spectral entropy=2.641196304361508
computed normalized entropy=0.7209367712296552
SPLASH=splash10-0a4m-7900000000-e9d41d622def26cb64c5
submitter=submitter = University of Tokyo Team (Faculty of Engineering, University of Tokyo)
MoNA Rating=3.75

>  <NUM PEAKS>  (5414) 
39

>  <MASS SPECTRAL PEAKS>  (5414) 
39 4.9
40 0.9
41 23.9
42 0.59
43 15.9
44 6.9
45 33.9
53 0.39
54 1.9
55 7.9
56 1.9
57 0.39
67 5.9
68 2.4
69 37.9
70 0.69
71 8.9
94 0.9
95 1.4
96 0.09
97 5.4
98 10.9
111 1.4
112 0.59
113 0.9
114 1.4
141 58.9
142 0.39
154 0.9
155 6.9
156 99.99
157 4.39
195 15.9
196 1.9
197 21.9
198 0.14
224 1.9
227 1.9
242 1.9

$$$$

     RDKit          2D

 13 13  0  0  0  0  0  0  0  0999 V2000
    3.7413    1.6389    0.0000 C   0  0  0  0  0  0  0  0  0  0  0  0
    3.2899    2.4204    0.0000 C   0  0  0  0  0  0  0  0  0  0  0  0
   -2.5989    1.5002    0.0000 C   0  0  0  0  0  0  0  0  0  0  0  0
    2.7772    0.4897    0.0000 C   0  0  0  0  0  0  0  0  0  0  0  0
    1.8127    2.1596    0.0000 C   0  0  0  0  0  0  0  0  0  0  0  0
   -1.3000   -0.7500    0.0000 C   0  0  0  0  0  0  0  0  0  0  0  0
   -1.3000    0.7500    0.0000 C   0  0  0  0  0  0  0  0  0  0  0  0
    0.0000    1.5000    0.0000 C   0  0  0  0  0  0  0  0  0  0  0  0
    1.3000   -0.7500    0.0000 C   0  0  0  0  0  0  0  0  0  0  0  0
    1.3000    0.7500    0.0000 C   0  0  0  0  0  0  0  0  0  0  0  0
   -0.0000   -1.5000    0.0000 N   0  0  0  0  0  0  0  0  0  0  0  0
    0.0000    3.0000    0.0000 O   0  0  0  0  0  0  0  0  0  0  0  0
    2.5989   -1.5002    0.0000 O   0  0  0  0  0  0  0  0  0  0  0  0
  4  1  1  0
  5  2  1  0
  7  3  1  0
  7  6  1  0
  8  7  1  0
 10  4  1  0
 10  5  1  0
 10  8  1  0
 10  9  1  0
 11  6  1  0
 11  9  2  0
 12  8  2  0
 13  9  1  0
M  END
>  <NAME>  (5415) 
METHYPRYLON

>  <SYNONYMS>  (5415) 


>  <SPECTRUM TYPE>  (5415) 
MS1

>  <INSTRUMENT TYPE>  (5415) 
EI-B

>  <INSTRUMENT>  (5415) 
Unknown

>  <ION MODE>  (5415) 
P

>  <INCHIKEY>  (5415) 
SIDLZWOQUZRBRU-UHFFFAOYSA-N

>  <FORMULA>  (5415) 
C10H17NO2

>  <EXACT MASS>  (5415) 
183.125928784

>  <MW>  (5415) 
183

>  <ID>  (5415) 
JP003822

>  <CONTRIBUTOR>  (5415) 
University of Tokyo Team, {Faculty of Engineering, University of Tokyo

>  <COMMENT>  (5415) 
SMILES=CCC(CC)(C(=O)1)C(=O)C(C)CN1
InChI=InChI=1S/C10H17NO2/c1-4-10(5-2)8(12)7(3)6-11-9(10)13/h7H,4-6H2,1-3H3,(H,11,13)
computed SMILES=O=C1C(C)CN=C(O)C1(CC)CC
accession=JP003822
date=2016.01.19 (Created 2008.10.21, modified 2011.05.06)
author=SASAKI S, TOYOHASHI UNIV. OF TECH.
license=CC BY-NC-SA
exact mass=183.12593
ionization energy=70 eV
ion type=[M]+*
computed spectral entropy=2.177693448571909
computed normalized entropy=0.6683943901473034
SPLASH=splash10-0a4l-6900000000-385d8cb9bf60082827ac
submitter=submitter = University of Tokyo Team (Faculty of Engineering, University of Tokyo)
MoNA Rating=3.75

>  <NUM PEAKS>  (5415) 
26

>  <MASS SPECTRAL PEAKS>  (5415) 
51 0.9
52 0.9
53 6.9
54 0.29
55 33.9
56 8.9
57 7.9
58 0.39
83 53.9
84 5.9
85 5.9
86 0.49
95 0.9
96 0.9
97 7.9
98 4.69
99 4.9
140 76.9
141 7.9
142 0.09
154 7.9
155 99.99
156 2.4
168 0.74
169 0.9
183 2.9

$$$$

     RDKit          2D

 17 18  0  0  0  0  0  0  0  0999 V2000
   -2.1861   -2.2041    0.0000 C   0  0  0  0  0  0  0  0  0  0  0  0
   -4.7005   -0.5901    0.0000 C   0  0  0  0  0  0  0  0  0  0  0  0
   -4.4278    1.9936    0.0000 C   0  0  0  0  0  0  0  0  0  0  0  0
    0.9954   -1.5283    0.0000 C   0  0  0  0  0  0  0  0  0  0  0  0
    3.9461    3.2210    0.0000 C   0  0  0  0  0  0  0  0  0  0  0  0
    3.9465    1.7202    0.0000 C   0  0  0  0  0  0  0  0  0  0  0  0
    2.6465    3.9719    0.0000 C   0  0  0  0  0  0  0  0  0  0  0  0
    2.6475    0.9702    0.0000 C   0  0  0  0  0  0  0  0  0  0  0  0
    1.3475    3.2219    0.0000 C   0  0  0  0  0  0  0  0  0  0  0  0
   -1.5766   -0.8335    0.0000 C   0  0  0  0  0  0  0  0  0  0  0  0
    1.3480    1.7210    0.0000 C   0  0  0  0  0  0  0  0  0  0  0  0
   -2.3266    0.4656    0.0000 C   0  0  0  0  0  0  0  0  0  0  0  0
   -1.3268    1.5739    0.0000 C   0  0  0  0  0  0  0  0  0  0  0  0
   -3.8183    0.6230    0.0000 N   0  0  0  0  0  0  0  0  0  0  0  0
   -0.1168   -0.5218    0.0000 N   0  0  0  0  0  0  0  0  0  0  0  0
    0.0489    0.9710    0.0000 N   0  0  0  0  0  0  0  0  0  0  0  0
   -1.6423    3.0404    0.0000 O   0  0  0  0  0  0  0  0  0  0  0  0
  6  5  2  0
  7  5  1  0
  8  6  1  0
  9  7  2  0
 10  1  1  0
 11  8  2  0
 11  9  1  0
 12 10  2  0
 13 12  1  0
 14  2  1  0
 14  3  1  0
 14 12  1  0
 15  4  1  0
 15 10  1  0
 16 11  1  0
 16 13  1  0
 16 15  1  0
 17 13  2  0
M  END
>  <NAME>  (5416) 
AMINOPYRINE

>  <SYNONYMS>  (5416) 


>  <SPECTRUM TYPE>  (5416) 
MS1

>  <INSTRUMENT TYPE>  (5416) 
EI-B

>  <INSTRUMENT>  (5416) 
Unknown

>  <ION MODE>  (5416) 
P

>  <INCHIKEY>  (5416) 
RMMXTBMQSGEXHJ-UHFFFAOYSA-N

>  <FORMULA>  (5416) 
C13H17N3O

>  <EXACT MASS>  (5416) 
231.13716216400002

>  <MW>  (5416) 
231

>  <ID>  (5416) 
JP003821

>  <CONTRIBUTOR>  (5416) 
University of Tokyo Team, {Faculty of Engineering, University of Tokyo

>  <COMMENT>  (5416) 
SMILES=CN(C)C(=C(C)1)C(=O)N(c(c2)cccc2)N(C)1
InChI=InChI=1S/C13H17N3O/c1-10-12(14(2)3)13(17)16(15(10)4)11-8-6-5-7-9-11/h5-9H,1-4H3
computed SMILES=O=C1C(=C(N(N1C=2C=CC=CC2)C)C)N(C)C
accession=JP003821
date=2016.01.19 (Created 2008.10.21, modified 2011.05.06)
author=SASAKI S, TOYOHASHI UNIV. OF TECH.
license=CC BY-NC-SA
exact mass=231.13716
ionization energy=70 eV
ion type=[M]+*
computed spectral entropy=2.264525105336884
computed normalized entropy=0.6421706145838204
SPLASH=splash10-0a4i-9100000000-40e7051a3536ae680d1a
submitter=submitter = University of Tokyo Team (Faculty of Engineering, University of Tokyo)
MoNA Rating=3.75

>  <NUM PEAKS>  (5416) 
34

>  <MASS SPECTRAL PEAKS>  (5416) 
41 4.9
42 12.9
43 2.9
44 0.24
53 0.9
54 3.9
55 5.9
56 99.99
57 5.9
58 0.9
69 0.9
70 0.59
71 7.9
72 1.9
73 0.4
76 0.19
77 8.4
78 0.4
97 35.9
98 0.39
99 0.9
111 11.9
112 7.9
113 0.04
119 3.9
120 0.4
121 0.4
122 0.09
123 5.9
124 0.9
230 1.9
231 3.59
232 3.9
233 0.9

$$$$

     RDKit          2D

 15 16  0  0  0  0  0  0  0  0999 V2000
   -2.6580   -1.6509    0.0000 C   0  0  0  0  0  0  0  0  0  0  0  0
    0.5235   -0.9751    0.0000 C   0  0  0  0  0  0  0  0  0  0  0  0
    3.4741    3.7742    0.0000 C   0  0  0  0  0  0  0  0  0  0  0  0
    3.4746    2.2734    0.0000 C   0  0  0  0  0  0  0  0  0  0  0  0
    2.1746    4.5250    0.0000 C   0  0  0  0  0  0  0  0  0  0  0  0
    2.1756    1.5234    0.0000 C   0  0  0  0  0  0  0  0  0  0  0  0
    0.8756    3.7750    0.0000 C   0  0  0  0  0  0  0  0  0  0  0  0
   -2.0485   -0.2803    0.0000 C   0  0  0  0  0  0  0  0  0  0  0  0
    0.8760    2.2742    0.0000 C   0  0  0  0  0  0  0  0  0  0  0  0
   -2.7985    1.0187    0.0000 C   0  0  0  0  0  0  0  0  0  0  0  0
   -1.7988    2.1271    0.0000 C   0  0  0  0  0  0  0  0  0  0  0  0
   -4.2902    1.1762    0.0000 N   0  0  0  0  0  0  0  0  0  0  0  0
   -0.5888    0.0313    0.0000 N   0  0  0  0  0  0  0  0  0  0  0  0
   -0.4230    1.5242    0.0000 N   0  0  0  0  0  0  0  0  0  0  0  0
   -2.1143    3.5935    0.0000 O   0  0  0  0  0  0  0  0  0  0  0  0
  4  3  2  0
  5  3  1  0
  6  4  1  0
  7  5  2  0
  8  1  1  0
  9  6  2  0
  9  7  1  0
 10  8  2  0
 11 10  1  0
 12 10  1  0
 13  2  1  0
 13  8  1  0
 14  9  1  0
 14 11  1  0
 14 13  1  0
 15 11  2  0
M  END
>  <NAME>  (5417) 
4-AMINOANTIPYRIN

>  <SYNONYMS>  (5417) 


>  <SPECTRUM TYPE>  (5417) 
MS1

>  <INSTRUMENT TYPE>  (5417) 
EI-B

>  <INSTRUMENT>  (5417) 
Unknown

>  <ION MODE>  (5417) 
P

>  <INCHIKEY>  (5417) 
RLFWWDJHLFCNIJ-UHFFFAOYSA-N

>  <FORMULA>  (5417) 
C11H13N3O

>  <EXACT MASS>  (5417) 
203.105862036

>  <MW>  (5417) 
203

>  <ID>  (5417) 
JP003820

>  <CONTRIBUTOR>  (5417) 
University of Tokyo Team, {Faculty of Engineering, University of Tokyo

>  <COMMENT>  (5417) 
SMILES=CC(=C(N)1)N(C)N(c(c2)cccc2)C(=O)1
InChI=InChI=1S/C11H13N3O/c1-8-10(12)11(15)14(13(8)2)9-6-4-3-5-7-9/h3-7H,12H2,1-2H3
computed SMILES=O=C1C(N)=C(N(N1C=2C=CC=CC2)C)C
accession=JP003820
date=2016.01.19 (Created 2008.10.21, modified 2011.05.06)
author=SASAKI S, TOYOHASHI UNIV. OF TECH.
license=CC BY-NC-SA
exact mass=203.10586
ionization energy=70 eV
ion type=[M]+*
computed spectral entropy=2.446083059190674
computed normalized entropy=0.7191829184565819
SPLASH=splash10-0a59-9010000000-4a361f81858aeca9a9f5
submitter=submitter = University of Tokyo Team (Faculty of Engineering, University of Tokyo)
MoNA Rating=3.75

>  <NUM PEAKS>  (5417) 
30

>  <MASS SPECTRAL PEAKS>  (5417) 
39 4.9
40 2.9
41 3.9
42 3.09
43 3.4
44 3.9
51 7.9
52 0.29
53 1.9
54 6.9
55 3.9
56 99.99
57 63.9
58 1.9
77 13.9
82 0.49
83 26.9
84 64.9
85 3.9
91 0.89
92 2.9
93 11.9
103 2.4
104 0.24
109 2.9
119 10.4
201 3.9
202 0.69
203 43.9
204 3.9

$$$$

     RDKit          2D

 18 19  0  0  0  0  0  0  0  0999 V2000
    1.5392    3.2500    0.0000 C   0  0  0  0  0  0  0  0  0  0  0  0
    5.5454    1.4786    0.0000 C   0  0  0  0  0  0  0  0  0  0  0  0
   -1.6422    2.5742    0.0000 C   0  0  0  0  0  0  0  0  0  0  0  0
   -4.5929   -2.1751    0.0000 C   0  0  0  0  0  0  0  0  0  0  0  0
   -4.5934   -0.6743    0.0000 C   0  0  0  0  0  0  0  0  0  0  0  0
   -3.2934   -2.9260    0.0000 C   0  0  0  0  0  0  0  0  0  0  0  0
   -3.2943    0.0757    0.0000 C   0  0  0  0  0  0  0  0  0  0  0  0
   -1.9943   -2.1760    0.0000 C   0  0  0  0  0  0  0  0  0  0  0  0
    0.9297    1.8794    0.0000 C   0  0  0  0  0  0  0  0  0  0  0  0
    4.0537    1.6360    0.0000 C   0  0  0  0  0  0  0  0  0  0  0  0
   -1.9948   -0.6751    0.0000 C   0  0  0  0  0  0  0  0  0  0  0  0
    1.6797    0.5803    0.0000 C   0  0  0  0  0  0  0  0  0  0  0  0
    0.6800   -0.5280    0.0000 C   0  0  0  0  0  0  0  0  0  0  0  0
    3.1714    0.4229    0.0000 N   0  0  0  0  0  0  0  0  0  0  0  0
   -0.5300    1.5677    0.0000 N   0  0  0  0  0  0  0  0  0  0  0  0
   -0.6958    0.0749    0.0000 N   0  0  0  0  0  0  0  0  0  0  0  0
    3.4442    3.0066    0.0000 O   0  0  0  0  0  0  0  0  0  0  0  0
    0.9955   -1.9945    0.0000 O   0  0  0  0  0  0  0  0  0  0  0  0
  5  4  2  0
  6  4  1  0
  7  5  1  0
  8  6  2  0
  9  1  1  0
 10  2  1  0
 11  7  2  0
 11  8  1  0
 12  9  2  0
 13 12  1  0
 14 10  2  3
 14 12  1  0
 15  3  1  0
 15  9  1  0
 16 11  1  0
 16 13  1  0
 16 15  1  0
 17 10  1  0
 18 13  2  0
M  END
>  <NAME>  (5418) 
4-(ACETYLAMINO)ANTIPYRINE

>  <SYNONYMS>  (5418) 


>  <SPECTRUM TYPE>  (5418) 
MS1

>  <INSTRUMENT TYPE>  (5418) 
EI-B

>  <INSTRUMENT>  (5418) 
Unknown

>  <ION MODE>  (5418) 
P

>  <INCHIKEY>  (5418) 
OIAGWXKSCXPNNZ-UHFFFAOYSA-N

>  <FORMULA>  (5418) 
C13H15N3O2

>  <EXACT MASS>  (5418) 
245.11642672

>  <MW>  (5418) 
245

>  <ID>  (5418) 
JP003819

>  <CONTRIBUTOR>  (5418) 
University of Tokyo Team, {Faculty of Engineering, University of Tokyo

>  <COMMENT>  (5418) 
SMILES=CC(=O)NC(=C(C)1)C(=O)N(c(c2)cccc2)N(C)1
InChI=InChI=1S/C13H15N3O2/c1-9-12(14-10(2)17)13(18)16(15(9)3)11-7-5-4-6-8-11/h4-8H,1-3H3,(H,14,17)
computed SMILES=O=C1C(N=C(O)C)=C(N(N1C=2C=CC=CC2)C)C
accession=JP003819
date=2016.01.19 (Created 2008.10.21, modified 2011.05.06)
author=SASAKI S, TOYOHASHI UNIV. OF TECH.
license=CC BY-NC-SA
exact mass=245.11643
ionization energy=70 eV
ion type=[M]+*
computed spectral entropy=2.2696072007529184
computed normalized entropy=0.7050931207779192
SPLASH=splash10-0a59-9030000000-6294a9c16bbcebf441a7
submitter=submitter = University of Tokyo Team (Faculty of Engineering, University of Tokyo)
MoNA Rating=3.75

>  <NUM PEAKS>  (5418) 
25

>  <MASS SPECTRAL PEAKS>  (5418) 
39 2.9
41 2.9
42 10.9
43 1.99
44 2.9
52 1.9
53 1.9
54 0.39
55 4.9
56 99.99
57 26.9
58 0.39
77 7.9
83 25.9
84 50.9
91 0.49
92 2.9
93 3.9
119 2.4
202 0.79
203 26.9
204 5.9
245 48.9
246 0.89
247 0.9

$$$$

     RDKit          2D

 16 17  0  0  0  0  0  0  0  0999 V2000
   -1.8074    3.4031    0.0000 C   0  0  0  0  0  0  0  0  0  0  0  0
   -0.0000   -2.7800    0.0000 C   0  0  0  0  0  0  0  0  0  0  0  0
   -0.5936    2.5218    0.0000 C   0  0  0  0  0  0  0  0  0  0  0  0
   -5.1522    1.9630    0.0000 C   0  0  0  0  0  0  0  0  0  0  0  0
   -4.6880    0.5358    0.0000 C   0  0  0  0  0  0  0  0  0  0  0  0
   -4.1490    3.0793    0.0000 C   0  0  0  0  0  0  0  0  0  0  0  0
   -3.2206    0.2248    0.0000 C   0  0  0  0  0  0  0  0  0  0  0  0
   -2.6816    2.7683    0.0000 C   0  0  0  0  0  0  0  0  0  0  0  0
   -2.2174    1.3410    0.0000 C   0  0  0  0  0  0  0  0  0  0  0  0
   -1.2100   -0.3900    0.0000 C   0  0  0  0  0  0  0  0  0  0  0  0
    1.2100   -0.3900    0.0000 C   0  0  0  0  0  0  0  0  0  0  0  0
   -0.7500    1.0300    0.0000 C   0  0  0  0  0  0  0  0  0  0  0  0
    0.7500    1.0300    0.0000 N   0  0  0  0  0  0  0  0  0  0  0  0
    0.0000   -1.2800    0.0000 N   0  0  0  0  0  0  0  0  0  0  0  0
   -2.6377   -0.8500    0.0000 O   0  0  0  0  0  0  0  0  0  0  0  0
    2.6377   -0.8500    0.0000 O   0  0  0  0  0  0  0  0  0  0  0  0
  3  1  1  0
  5  4  2  0
  6  4  1  0
  7  5  1  0
  8  6  2  0
  9  7  2  0
  9  8  1  0
 12  3  1  0
 12  9  1  0
 12 10  1  0
 13 11  2  0
 13 12  1  0
 14  2  1  0
 14 10  1  0
 14 11  1  0
 15 10  2  0
 16 11  1  0
M  END
>  <NAME>  (5419) 
MEPHENYTOIN

>  <SYNONYMS>  (5419) 


>  <SPECTRUM TYPE>  (5419) 
MS1

>  <INSTRUMENT TYPE>  (5419) 
EI-B

>  <INSTRUMENT>  (5419) 
Unknown

>  <ION MODE>  (5419) 
P

>  <INCHIKEY>  (5419) 
GMHKMTDVRCWUDX-UHFFFAOYSA-N

>  <FORMULA>  (5419) 
C12H14N2O2

>  <EXACT MASS>  (5419) 
218.105527688

>  <MW>  (5419) 
218

>  <ID>  (5419) 
JP003818

>  <CONTRIBUTOR>  (5419) 
University of Tokyo Team, {Faculty of Engineering, University of Tokyo

>  <COMMENT>  (5419) 
SMILES=CCC(N1)(c(c2)cccc2)C(=O)N(C)C(=O)1
InChI=InChI=1S/C12H14N2O2/c1-3-12(9-7-5-4-6-8-9)10(15)14(2)11(16)13-12/h4-8H,3H2,1-2H3,(H,13,16)
computed SMILES=O=C1N(C(O)=NC1(C=2C=CC=CC2)CC)C
accession=JP003818
date=2016.01.19 (Created 2008.10.21, modified 2011.05.06)
author=SASAKI S, TOYOHASHI UNIV. OF TECH.
license=CC BY-NC-SA
exact mass=218.10553
ionization energy=70 eV
ion type=[M]+*
computed spectral entropy=2.0084046665061686
computed normalized entropy=0.5795030904933404
SPLASH=splash10-0f79-2900000000-af8712fc36e2b911e9a8
submitter=submitter = University of Tokyo Team (Faculty of Engineering, University of Tokyo)
MoNA Rating=3.75

>  <NUM PEAKS>  (5419) 
32

>  <MASS SPECTRAL PEAKS>  (5419) 
50 2.9
51 9.9
52 1.9
53 0.02
54 1.4
55 0.4
56 3.9
75 0.14
76 3.9
77 22.9
78 2.9
89 0.14
90 0.4
91 4.4
102 0.9
103 0.59
104 86
105 8.9
116 3.9
117 0.09
118 3.4
119 1.9
132 5.4
133 0.09
160 1.4
161 0.9
189 99.99
190 1.24
191 0.9
203 1.9
218 5.4
219 0.9

$$$$

     RDKit          2D

 25 28  0  0  0  0  0  0  0  0999 V2000
   -3.8988    5.2526    0.0000 C   0  0  0  0  0  0  0  0  0  0  0  0
    6.4981    0.7504    0.0000 C   0  0  0  0  0  0  0  0  0  0  0  0
   -3.9000    0.7500    0.0000 C   0  0  0  0  0  0  0  0  0  0  0  0
   -3.9000   -0.7500    0.0000 C   0  0  0  0  0  0  0  0  0  0  0  0
   -0.0008    7.5010    0.0000 C   0  0  0  0  0  0  0  0  0  0  0  0
   -1.2955    8.2430    0.0000 C   0  0  0  0  0  0  0  0  0  0  0  0
   -0.0001    6.0002    0.0000 C   0  0  0  0  0  0  0  0  0  0  0  0
   -2.6000    1.5000    0.0000 C   0  0  0  0  0  0  0  0  0  0  0  0
   -2.6000   -1.5000    0.0000 C   0  0  0  0  0  0  0  0  0  0  0  0
    3.9000   -0.7500    0.0000 C   0  0  0  0  0  0  0  0  0  0  0  0
    2.6000   -1.5000    0.0000 C   0  0  0  0  0  0  0  0  0  0  0  0
   -1.2990    3.7500    0.0000 C   0  0  0  0  0  0  0  0  0  0  0  0
   -2.5944    7.4928    0.0000 C   0  0  0  0  0  0  0  0  0  0  0  0
    0.0000    3.0000    0.0000 C   0  0  0  0  0  0  0  0  0  0  0  0
    2.6000    1.5000    0.0000 C   0  0  0  0  0  0  0  0  0  0  0  0
   -1.2990    5.2500    0.0000 C   0  0  0  0  0  0  0  0  0  0  0  0
    3.9000    0.7500    0.0000 C   0  0  0  0  0  0  0  0  0  0  0  0
   -1.3000    0.7500    0.0000 C   0  0  0  0  0  0  0  0  0  0  0  0
    1.3000    0.7500    0.0000 C   0  0  0  0  0  0  0  0  0  0  0  0
   -1.3000   -0.7500    0.0000 C   0  0  0  0  0  0  0  0  0  0  0  0
    1.3000   -0.7500    0.0000 C   0  0  0  0  0  0  0  0  0  0  0  0
   -2.5987    6.0006    0.0000 N   0  0  0  0  0  0  0  0  0  0  0  0
   -0.0000    1.5000    0.0000 N   0  0  0  0  0  0  0  0  0  0  0  0
    5.1989    1.5002    0.0000 S   0  0  0  0  0  0  0  0  0  0  0  0
   -0.0000   -1.5000    0.0000 S   0  0  0  0  0  0  0  0  0  0  0  0
  4  3  2  0
  6  5  1  0
  7  5  1  0
  8  3  1  0
  9  4  1  0
 11 10  1  0
 13  6  1  0
 14 12  1  0
 16  7  1  0
 16 12  1  0
 17 10  2  0
 17 15  1  0
 18  8  2  0
 19 15  2  0
 20  9  2  0
 20 18  1  0
 21 11  2  0
 21 19  1  0
 22  1  1  0
 22 13  1  0
 22 16  1  0
 23 14  1  0
 23 18  1  0
 23 19  1  0
 24  2  1  0
 24 17  1  0
 25 20  1  0
 25 21  1  0
M  END
>  <NAME>  (5420) 
MELLARIL

>  <SYNONYMS>  (5420) 
THIORIDAZINE

>  <SPECTRUM TYPE>  (5420) 
MS1

>  <INSTRUMENT TYPE>  (5420) 
EI-B

>  <INSTRUMENT>  (5420) 
Unknown

>  <ION MODE>  (5420) 
P

>  <INCHIKEY>  (5420) 
KLBQZWRITKRQQV-UHFFFAOYSA-N

>  <FORMULA>  (5420) 
C21H26N2S2

>  <EXACT MASS>  (5420) 
370.153740832

>  <MW>  (5420) 
370

>  <ID>  (5420) 
JP003817

>  <CONTRIBUTOR>  (5420) 
University of Tokyo Team, {Faculty of Engineering, University of Tokyo

>  <COMMENT>  (5420) 
SMILES=CSc(c4)cc(c(c4)1)N(CCC(C3)N(C)CCC3)c(c2)c(ccc2)S1
InChI=InChI=1S/C21H26N2S2/c1-22-13-6-5-7-16(22)12-14-23-18-8-3-4-9-20(18)25-21-11-10-17(24-2)15-19(21)23/h3-4,8-11,15-16H,5-7,12-14H2,1-2H3
computed SMILES=S1C=2C=CC=CC2N(C3=CC(SC)=CC=C13)CCC4N(C)CCCC4
accession=JP003817
date=2016.01.19 (Created 2008.10.21, modified 2011.05.06)
author=SASAKI S, TOYOHASHI UNIV. OF TECH.
license=CC BY-NC-SA
exact mass=370.15374
ionization energy=70 eV
ion type=[M]+*
computed spectral entropy=1.7933318742624775
computed normalized entropy=0.5441203394379781
SPLASH=splash10-0002-9110000000-042dbd4f525abce007c0
submitter=submitter = University of Tokyo Team (Faculty of Engineering, University of Tokyo)
MoNA Rating=3.75

>  <NUM PEAKS>  (5420) 
27

>  <MASS SPECTRAL PEAKS>  (5420) 
55 2.9
68 2.9
69 0.9
70 1.39
96 2.9
97 1.9
98 99.99
99 0.79
102 1.4
125 3.4
126 8.4
127 0.14
167 1.4
185 4.9
198 1.9
210 0.14
211 2.4
212 1.4
226 2.9
229 0.19
244 3.9
245 1.9
258 2.9
259 0.19
370 9.4
371 1.9
372 0.9

$$$$

     RDKit          2D

 21 24  0  0  0  0  0  0  0  0999 V2000
   -5.1667    3.8959    0.0000 C   0  0  0  0  0  0  0  0  0  0  0  0
    3.9000    0.5500    0.0000 C   0  0  0  0  0  0  0  0  0  0  0  0
   -3.9000    0.5500    0.0000 C   0  0  0  0  0  0  0  0  0  0  0  0
    3.9000   -0.9500    0.0000 C   0  0  0  0  0  0  0  0  0  0  0  0
   -3.9000   -0.9500    0.0000 C   0  0  0  0  0  0  0  0  0  0  0  0
    2.6000    1.3000    0.0000 C   0  0  0  0  0  0  0  0  0  0  0  0
   -2.6000    1.3000    0.0000 C   0  0  0  0  0  0  0  0  0  0  0  0
    2.6000   -1.7000    0.0000 C   0  0  0  0  0  0  0  0  0  0  0  0
   -2.6000   -1.7000    0.0000 C   0  0  0  0  0  0  0  0  0  0  0  0
   -1.4565    5.0417    0.0000 C   0  0  0  0  0  0  0  0  0  0  0  0
   -2.9169    5.3501    0.0000 C   0  0  0  0  0  0  0  0  0  0  0  0
   -2.6629    2.9435    0.0000 C   0  0  0  0  0  0  0  0  0  0  0  0
    0.0000    2.8000    0.0000 C   0  0  0  0  0  0  0  0  0  0  0  0
   -1.2990    3.5500    0.0000 C   0  0  0  0  0  0  0  0  0  0  0  0
    1.3000    0.5500    0.0000 C   0  0  0  0  0  0  0  0  0  0  0  0
   -1.3000    0.5500    0.0000 C   0  0  0  0  0  0  0  0  0  0  0  0
    1.3000   -0.9500    0.0000 C   0  0  0  0  0  0  0  0  0  0  0  0
   -1.3000   -0.9500    0.0000 C   0  0  0  0  0  0  0  0  0  0  0  0
   -3.6750    4.0534    0.0000 N   0  0  0  0  0  0  0  0  0  0  0  0
   -0.0000    1.3000    0.0000 N   0  0  0  0  0  0  0  0  0  0  0  0
   -0.0000   -1.7000    0.0000 S   0  0  0  0  0  0  0  0  0  0  0  0
  4  2  2  0
  5  3  2  0
  6  2  1  0
  7  3  1  0
  8  4  1  0
  9  5  1  0
 11 10  1  0
 14 10  1  0
 14 12  1  0
 14 13  1  0
 15  6  2  0
 16  7  2  0
 17  8  2  0
 17 15  1  0
 18  9  2  0
 18 16  1  0
 19  1  1  0
 19 11  1  0
 19 12  1  0
 20 13  1  0
 20 15  1  0
 20 16  1  0
 21 17  1  0
 21 18  1  0
M  END
>  <NAME>  (5421) 
METHDILAZINE

>  <SYNONYMS>  (5421) 


>  <SPECTRUM TYPE>  (5421) 
MS1

>  <INSTRUMENT TYPE>  (5421) 
EI-B

>  <INSTRUMENT>  (5421) 
Unknown

>  <ION MODE>  (5421) 
P

>  <INCHIKEY>  (5421) 
HTMIBDQKFHUPSX-UHFFFAOYSA-N

>  <FORMULA>  (5421) 
C18H20N2S

>  <EXACT MASS>  (5421) 
296.13471964

>  <MW>  (5421) 
296

>  <ID>  (5421) 
JP003816

>  <CONTRIBUTOR>  (5421) 
University of Tokyo Team, {Faculty of Engineering, University of Tokyo

>  <COMMENT>  (5421) 
SMILES=CN(C4)CC(C4)CN(c21)c(c3)c(ccc3)Sc(cccc2)1
InChI=InChI=1S/C18H20N2S/c1-19-11-10-14(12-19)13-20-15-6-2-4-8-17(15)21-18-9-5-3-7-16(18)20/h2-9,14H,10-13H2,1H3
computed SMILES=S1C=2C=CC=CC2N(C=3C=CC=CC13)CC4CN(C)CC4
accession=JP003816
date=2016.01.19 (Created 2008.10.21, modified 2011.05.06)
author=SASAKI S, TOYOHASHI UNIV. OF TECH.
license=CC BY-NC-SA
exact mass=296.13472
ionization energy=70 eV
ion type=[M]+*
computed spectral entropy=2.9392310694701997
computed normalized entropy=0.7634073738276238
SPLASH=splash10-0002-9310000000-08a0f77b83bac7e129ee
submitter=submitter = University of Tokyo Team (Faculty of Engineering, University of Tokyo)
MoNA Rating=3.75

>  <NUM PEAKS>  (5421) 
47

>  <MASS SPECTRAL PEAKS>  (5421) 
55 94
56 8.9
57 14.9
58 0.49
70 19.9
77 6.9
82 44.9
83 2.09
84 14.9
89 1.9
96 2.9
97 99.99
98 95
99 6.9
108 3.9
109 0.49
127 5.9
128 3.9
139 4.9
140 0.39
151 2.9
152 6.9
153 4.9
154 0.89
155 1.9
166 5.9
167 4.9
168 0.39
179 6.9
180 31.9
181 5.9
182 0.09
184 3.9
196 2.9
197 4.9
198 3.39
199 36.9
200 6.9
212 27.9
213 1.24
214 3.9
238 4.9
239 1.9
252 0.24
296 31.9
297 7.9
298 2.9

$$$$

     RDKit          2D

 13 13  0  0  0  0  0  0  0  0999 V2000
   -1.6243    0.1884    0.0000 C   0  0  0  0  0  0  0  0  0  0  0  0
   -2.9241   -3.5633    0.0000 C   0  0  0  0  0  0  0  0  0  0  0  0
   -1.6250   -4.3133    0.0000 C   0  0  0  0  0  0  0  0  0  0  0  0
   -2.9236   -2.0624    0.0000 C   0  0  0  0  0  0  0  0  0  0  0  0
   -0.3255   -3.5624    0.0000 C   0  0  0  0  0  0  0  0  0  0  0  0
    4.8711   -2.0624    0.0000 C   0  0  0  0  0  0  0  0  0  0  0  0
    2.2730   -2.0620    0.0000 C   0  0  0  0  0  0  0  0  0  0  0  0
   -1.6241   -1.3116    0.0000 C   0  0  0  0  0  0  0  0  0  0  0  0
    3.5722   -1.3122    0.0000 C   0  0  0  0  0  0  0  0  0  0  0  0
   -0.3250   -2.0616    0.0000 C   0  0  0  0  0  0  0  0  0  0  0  0
    6.1703   -1.3127    0.0000 O   0  0  0  0  0  0  0  0  0  0  0  0
    3.5724    0.1878    0.0000 O   0  0  0  0  0  0  0  0  0  0  0  0
    0.9741   -1.3118    0.0000 O   0  0  0  0  0  0  0  0  0  0  0  0
  3  2  2  0
  4  2  1  0
  5  3  1  0
  8  1  1  0
  8  4  2  0
  9  6  1  0
  9  7  1  0
 10  5  2  0
 10  8  1  0
 11  6  1  0
 12  9  1  0
 13  7  1  0
 13 10  1  0
M  END
>  <NAME>  (5422) 
GLYCEROL-1-(O-TOLYL) ETHER

>  <SYNONYMS>  (5422) 
MEPHENESIN

>  <SPECTRUM TYPE>  (5422) 
MS1

>  <INSTRUMENT TYPE>  (5422) 
EI-B

>  <INSTRUMENT>  (5422) 
Unknown

>  <ION MODE>  (5422) 
P

>  <INCHIKEY>  (5422) 
JWDYCNIAQWPBHD-UHFFFAOYSA-N

>  <FORMULA>  (5422) 
C10H14O3

>  <EXACT MASS>  (5422) 
182.09429430799997

>  <MW>  (5422) 
182

>  <ID>  (5422) 
JP003815

>  <CONTRIBUTOR>  (5422) 
University of Tokyo Team, {Faculty of Engineering, University of Tokyo

>  <COMMENT>  (5422) 
SMILES=OCC(O)COc(c1)c(C)ccc1
InChI=InChI=1S/C10H14O3/c1-8-4-2-3-5-10(8)13-7-9(12)6-11/h2-5,9,11-12H,6-7H2,1H3
computed SMILES=OCC(O)COC=1C=CC=CC1C
accession=JP003815
date=2016.01.19 (Created 2008.10.21, modified 2011.05.06)
author=SASAKI S, TOYOHASHI UNIV. OF TECH.
license=CC BY-NC-SA
exact mass=182.09429
ionization energy=70 eV
ion type=[M]+*
computed spectral entropy=2.4917627158619813
computed normalized entropy=0.7256179384149943
SPLASH=splash10-0a4i-5900000000-3ce39ed63d61e07d52b5
submitter=submitter = University of Tokyo Team (Faculty of Engineering, University of Tokyo)
MoNA Rating=3.75

>  <NUM PEAKS>  (5422) 
31

>  <MASS SPECTRAL PEAKS>  (5422) 
51 7.4
52 3.9
53 3.4
54 0.04
55 2.4
56 1.4
57 7.9
61 0.24
62 1.4
63 3.9
65 10.9
77 1.24
78 5.9
79 9.4
80 4.9
89 0.34
90 7.4
91 22.9
92 3.9
93 0.19
105 3.9
106 1.4
107 23.9
108 99.99
109 12.9
121 5.9
122 2.9
133 0.49
151 1.4
182 18.9
183 2.4

$$$$

     RDKit          2D

 18 19  0  0  0  0  0  0  0  0999 V2000
    0.7721   -5.0548    0.0000 C   0  0  0  0  0  0  0  0  0  0  0  0
    0.2589   -3.6454    0.0000 C   0  0  0  0  0  0  0  0  0  0  0  0
    2.6999   -1.1932    0.0000 C   0  0  0  0  0  0  0  0  0  0  0  0
    1.7353   -0.0434    0.0000 C   0  0  0  0  0  0  0  0  0  0  0  0
    2.1874   -2.6038    0.0000 C   0  0  0  0  0  0  0  0  0  0  0  0
    0.2582   -0.3042    0.0000 C   0  0  0  0  0  0  0  0  0  0  0  0
    0.7102   -2.8646    0.0000 C   0  0  0  0  0  0  0  0  0  0  0  0
   -1.2184   -3.3850    0.0000 C   0  0  0  0  0  0  0  0  0  0  0  0
   -0.2544   -1.7148    0.0000 C   0  0  0  0  0  0  0  0  0  0  0  0
   -3.0306   -2.7256    0.0000 C   0  0  0  0  0  0  0  0  0  0  0  0
   -1.7320   -0.4747    0.0000 C   0  0  0  0  0  0  0  0  0  0  0  0
   -4.3306   -0.4739    0.0000 C   0  0  0  0  0  0  0  0  0  0  0  0
   -1.7315   -1.9756    0.0000 C   0  0  0  0  0  0  0  0  0  0  0  0
   -4.3301   -1.9747    0.0000 N   0  0  0  0  0  0  0  0  0  0  0  0
   -3.0315    0.2761    0.0000 N   0  0  0  0  0  0  0  0  0  0  0  0
   -3.0308   -4.2256    0.0000 O   0  0  0  0  0  0  0  0  0  0  0  0
   -0.4330    0.2753    0.0000 O   0  0  0  0  0  0  0  0  0  0  0  0
   -5.6297    0.2759    0.0000 O   0  0  0  0  0  0  0  0  0  0  0  0
  2  1  2  0
  4  3  2  0
  5  3  1  0
  6  4  1  0
  7  5  2  0
  8  2  1  0
  9  6  2  0
  9  7  1  0
 13  8  1  0
 13  9  1  0
 13 10  1  0
 13 11  1  0
 14 10  2  0
 14 12  1  0
 15 11  2  0
 15 12  1  0
 16 10  1  0
 17 11  1  0
 18 12  2  0
M  END
>  <NAME>  (5423) 
5-ALLYL-5-PHENYL-BARBITURIC ACID

>  <SYNONYMS>  (5423) 
ALPHENAL

>  <SPECTRUM TYPE>  (5423) 
MS1

>  <INSTRUMENT TYPE>  (5423) 
EI-B

>  <INSTRUMENT>  (5423) 
Unknown

>  <ION MODE>  (5423) 
P

>  <INCHIKEY>  (5423) 
WOIGZSBYKGQJGL-UHFFFAOYSA-N

>  <FORMULA>  (5423) 
C13H12N2O3

>  <EXACT MASS>  (5423) 
244.08479224399997

>  <MW>  (5423) 
244

>  <ID>  (5423) 
JP003814

>  <CONTRIBUTOR>  (5423) 
University of Tokyo Team, {Faculty of Engineering, University of Tokyo

>  <COMMENT>  (5423) 
SMILES=C=CCC(C(=O)2)(C(=O)NC(=O)N2)c(c1)cccc1
InChI=InChI=1S/C13H12N2O3/c1-2-8-13(9-6-4-3-5-7-9)10(16)14-12(18)15-11(13)17/h2-7H,1,8H2,(H2,14,15,16,17,18)
computed SMILES=O=C1N=C(O)C(C(O)=N1)(C=2C=CC=CC2)CC=C
accession=JP003814
date=2016.01.19 (Created 2008.10.21, modified 2011.05.06)
author=SASAKI S, TOYOHASHI UNIV. OF TECH.
license=CC BY-NC-SA
exact mass=244.08479
ionization energy=70 eV
ion type=[M]+*
computed spectral entropy=3.9021445186681842
computed normalized entropy=0.7589264594594377
SPLASH=splash10-0gb9-6960000000-529949b760d860546f3a
submitter=submitter = University of Tokyo Team (Faculty of Engineering, University of Tokyo)
MoNA Rating=3.75

>  <NUM PEAKS>  (5423) 
171

>  <MASS SPECTRAL PEAKS>  (5423) 
26 1.8
27 6.4
28 12
29 0.14
30 0.4
32 1.4
36 1.4
37 0.08
38 1.9
39 19.6
40 1.9
41 0.49
42 2.6
43 3.4
44 4.4
45 0.03
49 0.4
50 6.1
51 17.6
52 0.49
53 2.4
54 0.8
55 0.9
56 0.09
57 0.4
58 0.9
60 0.4
61 0.09
62 3.6
63 11.4
64 6.2
65 0.44
66 1
67 0.8
68 0.9
69 0.01
70 3.4
71 0.2
72 0.2
73 0.04
74 2
75 3
76 5.9
77 2.49
78 10.4
79 1.6
80 0.5
81 0.02
82 0.9
83 0.4
84 0.9
85 0.14
86 1.3
87 1.8
88 1.4
89 1.26
90 3.8
91 9
92 1.4
93 0.06
94 0.7
95 0.5
96 0.4
97 0.06
98 0.7
99 0.6
100 1
101 0.16
102 8.2
103 8
104 44
105 0.76
106 1.1
107 0.3
111 0.1
112 0.02
113 0.4
114 0.9
115 13.4
116 0.38
117 6.1
118 3
119 0.7
121 0.02
122 0.3
123 0.4
124 1.5
125 0.04
126 1.8
127 8.7
128 19.5
129 1.74
130 10.9
131 2.4
132 20.8
133 1.21
134 1.3
135 0.4
139 0.3
140 0.04
141 0.8
142 1.8
143 2.6
144 0.45
145 1.9
146 1.6
147 0.7
148 0.02
149 0.4
152 0.4
153 2.9
154 0.26
155 2.6
156 5.3
157 2.2
158 0.07
159 2
160 11.9
161 3.1
162 0.06
165 0.3
166 0.4
167 1.4
168 0.07
169 0.5
170 0.6
171 0.6
172 1.01
173 3.7
174 1.8
175 1.3
176 0.06
177 0.2
182 0.4
183 1.6
184 0.03
185 4
186 6.3
187 1.6
188 0.04
189 1
198 0.1
199 0.4
200 0.13
201 2.9
202 1.2
203 13.1
204 0.43
205 0.9
209 0.3
210 0.4
211 0.01
212 0.2
213 0.3
214 0.4
215 99.99
216 16.2
217 2
218 0.4
225 0.04
226 0.9
227 7.2
228 1.1
229 1.16
230 1.9
231 0.4
232 0.4
243 0.49
244 19.4
245 3.4
246 0.6

$$$$

     RDKit          2D

 15 15  0  0  0  0  0  0  0  0999 V2000
   -0.5498    2.7991    0.0000 C   0  0  0  0  0  0  0  0  0  0  0  0
   -2.5989    2.2504    0.0000 C   0  0  0  0  0  0  0  0  0  0  0  0
   -2.0502    0.2013    0.0000 C   0  0  0  0  0  0  0  0  0  0  0  0
    2.5989   -0.7500    0.0000 C   0  0  0  0  0  0  0  0  0  0  0  0
    1.2989   -1.5000    0.0000 C   0  0  0  0  0  0  0  0  0  0  0  0
    2.5989    0.7500    0.0000 C   0  0  0  0  0  0  0  0  0  0  0  0
   -0.0011   -0.7500    0.0000 C   0  0  0  0  0  0  0  0  0  0  0  0
    1.2989    1.5000    0.0000 C   0  0  0  0  0  0  0  0  0  0  0  0
   -0.0011    0.7500    0.0000 C   0  0  0  0  0  0  0  0  0  0  0  0
    3.8978   -1.5002    0.0000 Cl  0  0  0  0  0  0  0  0  0  0  0  0
    1.2989   -3.0000    0.0000 Cl  0  0  0  0  0  0  0  0  0  0  0  0
    3.8978    1.5002    0.0000 Cl  0  0  0  0  0  0  0  0  0  0  0  0
   -1.3000   -1.5002    0.0000 Cl  0  0  0  0  0  0  0  0  0  0  0  0
    1.2989    3.0000    0.0000 Cl  0  0  0  0  0  0  0  0  0  0  0  0
   -1.3000    1.5002    0.0000 Si  0  0  0  0  0  4  0  0  0  0  0  0
  5  4  2  0
  6  4  1  0
  7  5  1  0
  8  6  2  0
  9  7  2  0
  9  8  1  0
 10  4  1  0
 11  5  1  0
 12  6  1  0
 13  7  1  0
 14  8  1  0
 15  1  1  0
 15  2  1  0
 15  3  1  0
 15  9  1  0
M  END
>  <NAME>  (5424) 
PENTACHLOROPHENYL-TRIMETHYLSILANE

>  <SYNONYMS>  (5424) 


>  <SPECTRUM TYPE>  (5424) 
MS1

>  <INSTRUMENT TYPE>  (5424) 
EI-B

>  <INSTRUMENT>  (5424) 
Unknown

>  <ION MODE>  (5424) 
P

>  <INCHIKEY>  (5424) 
FMGLKJDUWUUBBK-UHFFFAOYSA-N

>  <FORMULA>  (5424) 
C9H9Cl5Si

>  <EXACT MASS>  (5424) 
319.89161521799997

>  <MW>  (5424) 
320

>  <ID>  (5424) 
JP003811

>  <CONTRIBUTOR>  (5424) 
University of Tokyo Team, {Faculty of Engineering, University of Tokyo

>  <COMMENT>  (5424) 
SMILES=C[Si](C)(C)c(c(Cl)1)c(Cl)c(Cl)c(Cl)c(Cl)1
InChI=InChI=1S/C9H9Cl5Si/c1-15(2,3)9-7(13)5(11)4(10)6(12)8(9)14/h1-3H3
computed SMILES=ClC=1C(Cl)=C(Cl)C(=C(Cl)C1Cl)[Si](C)(C)C
accession=JP003811
date=2016.01.19 (Created 2008.10.21, modified 2011.05.06)
author=SASAKI S, TOYOHASHI UNIV. OF TECH.
license=CC BY-NC-SA
exact mass=319.89162
ionization energy=70 eV
ion type=[M]+*
computed spectral entropy=3.264625977044492
computed normalized entropy=0.7941440396641802
SPLASH=splash10-0bt9-3539000000-4dad76265e1842c67c73
submitter=submitter = University of Tokyo Team (Faculty of Engineering, University of Tokyo)
MoNA Rating=3.75

>  <NUM PEAKS>  (5424) 
61

>  <MASS SPECTRAL PEAKS>  (5424) 
36 5.7
38 1.9
45 4
63 1.97
65 11.3
73 14.5
75 3
79 0.03
86 2.7
87 4
93 24
95 0.97
97 3.2
101 7.1
102 5.2
107 0.44
109 2.3
113 57
114 4
115 0.4
116 2.4
117 7.5
121 3.3
133 0.85
135 8.5
136 4.5
137 4.5
142 0.68
144 4.1
157 5.8
159 3.5
207 0.84
209 7.5
211 2.2
212 2.5
214 0.31
233 4.5
235 4.8
237 2.1
247 0.24
249 4
250 2.7
251 2.5
282 0.92
284 17.5
286 13
288 6.2
305 0.62
306 9.2
307 99.99
308 14.6
309 0.67
310 9.6
311 23.6
312 3.3
313 0.43
320 9.2
322 15.1
323 2.1
324 0.98
326 3.4

$$$$

     RDKit          2D

 15 15  0  0  0  0  0  0  0  0999 V2000
   -0.5498    2.7991    0.0000 C   0  0  0  0  0  0  0  0  0  0  0  0
   -2.5989    2.2504    0.0000 C   0  0  0  0  0  0  0  0  0  0  0  0
   -2.0502    0.2013    0.0000 C   0  0  0  0  0  0  0  0  0  0  0  0
    2.5989   -0.7500    0.0000 C   0  0  0  0  0  0  0  0  0  0  0  0
    1.2989   -1.5000    0.0000 C   0  0  0  0  0  0  0  0  0  0  0  0
    2.5989    0.7500    0.0000 C   0  0  0  0  0  0  0  0  0  0  0  0
   -0.0011   -0.7500    0.0000 C   0  0  0  0  0  0  0  0  0  0  0  0
    1.2989    1.5000    0.0000 C   0  0  0  0  0  0  0  0  0  0  0  0
   -0.0011    0.7500    0.0000 C   0  0  0  0  0  0  0  0  0  0  0  0
    3.8978   -1.5002    0.0000 F   0  0  0  0  0  0  0  0  0  0  0  0
    1.2989   -3.0000    0.0000 F   0  0  0  0  0  0  0  0  0  0  0  0
    3.8978    1.5002    0.0000 F   0  0  0  0  0  0  0  0  0  0  0  0
   -1.3000   -1.5002    0.0000 F   0  0  0  0  0  0  0  0  0  0  0  0
    1.2989    3.0000    0.0000 F   0  0  0  0  0  0  0  0  0  0  0  0
   -1.3000    1.5002    0.0000 Si  0  0  0  0  0  4  0  0  0  0  0  0
  5  4  2  0
  6  4  1  0
  7  5  1  0
  8  6  2  0
  9  7  2  0
  9  8  1  0
 10  4  1  0
 11  5  1  0
 12  6  1  0
 13  7  1  0
 14  8  1  0
 15  1  1  0
 15  2  1  0
 15  3  1  0
 15  9  1  0
M  END
>  <NAME>  (5425) 
PENTAFLUOROPHENYL-TRIMETHYLSILANE

>  <SYNONYMS>  (5425) 


>  <SPECTRUM TYPE>  (5425) 
MS1

>  <INSTRUMENT TYPE>  (5425) 
EI-B

>  <INSTRUMENT>  (5425) 
Unknown

>  <ION MODE>  (5425) 
P

>  <INCHIKEY>  (5425) 
GABHTFORECKGBB-UHFFFAOYSA-N

>  <FORMULA>  (5425) 
C9H9F5Si

>  <EXACT MASS>  (5425) 
240.03936791799998

>  <MW>  (5425) 
240

>  <ID>  (5425) 
JP003810

>  <CONTRIBUTOR>  (5425) 
University of Tokyo Team, {Faculty of Engineering, University of Tokyo

>  <COMMENT>  (5425) 
SMILES=Fc(c(F)1)c(F)c(F)c(c(F)1)[Si](C)(C)C
InChI=InChI=1S/C9H9F5Si/c1-15(2,3)9-7(13)5(11)4(10)6(12)8(9)14/h1-3H3
computed SMILES=FC=1C(F)=C(F)C(=C(F)C1F)[Si](C)(C)C
accession=JP003810
date=2016.01.19 (Created 2008.10.21, modified 2011.05.06)
author=SASAKI S, TOYOHASHI UNIV. OF TECH.
license=CC BY-NC-SA
exact mass=240.03937
ionization energy=70 eV
ion type=[M]+*
computed spectral entropy=2.4736695439315577
computed normalized entropy=0.7074686670759176
SPLASH=splash10-004i-9330000000-6dec030a4b049c52720d
submitter=submitter = University of Tokyo Team (Faculty of Engineering, University of Tokyo)
MoNA Rating=3.75

>  <NUM PEAKS>  (5425) 
33

>  <MASS SPECTRAL PEAKS>  (5425) 
47 12.5
49 12
51 3
58 0.08
69 1.2
73 6
75 16.5
76 0.25
77 99.99
78 8
79 6.5
81 1.75
91 2.3
93 2.5
95 2.5
99 0.06
110 2.2
119 4.5
125 42
126 0.32
129 6.1
143 2.4
159 10.4
167 0.12
168 2.6
185 1.3
202 3.5
225 0.87
226 13
227 4
240 42
241 0.63
242 1.9

$$$$

     RDKit          2D

 36 38  0  0  0  0  0  0  0  0999 V2000
    2.6179    4.2813    0.0000 C   0  0  0  0  0  0  0  0  0  0  0  0
    9.6318    2.1205    0.0000 C   0  0  0  0  0  0  0  0  0  0  0  0
   -0.6590   -3.8221    0.0000 C   0  0  0  0  0  0  0  0  0  0  0  0
    4.0958    4.0202    0.0000 C   0  0  0  0  0  0  0  0  0  0  0  0
    1.6537    3.1322    0.0000 C   0  0  0  0  0  0  0  0  0  0  0  0
    9.6313    0.6196    0.0000 C   0  0  0  0  0  0  0  0  0  0  0  0
    8.3328    2.8705    0.0000 C   0  0  0  0  0  0  0  0  0  0  0  0
   -0.6585   -2.3212    0.0000 C   0  0  0  0  0  0  0  0  0  0  0  0
    0.6401   -4.5721    0.0000 C   0  0  0  0  0  0  0  0  0  0  0  0
    4.6096    2.6101    0.0000 C   0  0  0  0  0  0  0  0  0  0  0  0
    2.1675    1.7221    0.0000 C   0  0  0  0  0  0  0  0  0  0  0  0
    8.3318   -0.1312    0.0000 C   0  0  0  0  0  0  0  0  0  0  0  0
    7.0332    2.1196    0.0000 C   0  0  0  0  0  0  0  0  0  0  0  0
    0.6410   -1.5704    0.0000 C   0  0  0  0  0  0  0  0  0  0  0  0
    1.9396   -3.8212    0.0000 C   0  0  0  0  0  0  0  0  0  0  0  0
    3.6454    1.4610    0.0000 C   0  0  0  0  0  0  0  0  0  0  0  0
    7.0328    0.6188    0.0000 C   0  0  0  0  0  0  0  0  0  0  0  0
    1.9401   -2.3204    0.0000 C   0  0  0  0  0  0  0  0  0  0  0  0
    4.4862   -2.3508    0.0000 Cl  0  0  0  0  0  0  0  0  0  0  0  0
    5.7853   -1.6010    0.0000 Cl  0  0  0  0  0  0  0  0  0  0  0  0
    2.1051    5.6909    0.0000 F   0  0  0  0  0  0  0  0  0  0  0  0
   10.9310    2.8703    0.0000 F   0  0  0  0  0  0  0  0  0  0  0  0
   -1.9581   -4.5718    0.0000 F   0  0  0  0  0  0  0  0  0  0  0  0
    5.0600    5.1693    0.0000 F   0  0  0  0  0  0  0  0  0  0  0  0
   -1.2417    3.6423    0.0000 F   0  0  0  0  0  0  0  0  0  0  0  0
   10.9303   -0.1304    0.0000 F   0  0  0  0  0  0  0  0  0  0  0  0
    8.3325    4.3705    0.0000 F   0  0  0  0  0  0  0  0  0  0  0  0
   -1.9575   -1.5712    0.0000 F   0  0  0  0  0  0  0  0  0  0  0  0
    0.6403   -6.0721    0.0000 F   0  0  0  0  0  0  0  0  0  0  0  0
    6.3245    1.6203    0.0000 F   0  0  0  0  0  0  0  0  0  0  0  0
   -0.3787    0.2521    0.0000 F   0  0  0  0  0  0  0  0  0  0  0  0
    8.3320   -1.6312    0.0000 F   0  0  0  0  0  0  0  0  0  0  0  0
    5.7342    2.8696    0.0000 F   0  0  0  0  0  0  0  0  0  0  0  0
    0.6407    0.4096    0.0000 F   0  0  0  0  0  0  0  0  0  0  0  0
    3.2386   -4.5712    0.0000 F   0  0  0  0  0  0  0  0  0  0  0  0
    4.4864   -0.8508    0.0000 P   0  0  0  0  0  0  0  0  0  0  0  0
  4  1  2  0
  5  1  1  0
  6  2  2  0
  7  2  1  0
  8  3  2  0
  9  3  1  0
 10  4  1  0
 11  5  2  0
 12  6  1  0
 13  7  2  0
 14  8  1  0
 15  9  2  0
 16 10  2  0
 16 11  1  0
 17 12  2  0
 17 13  1  0
 18 14  2  0
 18 15  1  0
 21  1  1  0
 22  2  1  0
 23  3  1  0
 24  4  1  0
 25  5  1  0
 26  6  1  0
 27  7  1  0
 28  8  1  0
 29  9  1  0
 30 10  1  0
 31 11  1  0
 32 12  1  0
 33 13  1  0
 34 14  1  0
 35 15  1  0
 36 16  1  0
 36 17  1  0
 36 18  1  0
 36 19  1  0
 36 20  1  0
M  END
>  <NAME>  (5426) 
TRIS(PENTAFLUOROPHENYL)-DICHLOROPHOSPHORANE

>  <SYNONYMS>  (5426) 


>  <SPECTRUM TYPE>  (5426) 
MS1

>  <INSTRUMENT TYPE>  (5426) 
EI-B

>  <INSTRUMENT>  (5426) 
Unknown

>  <ION MODE>  (5426) 
P

>  <INCHIKEY>  (5426) 
XJPPVPFQBRXUCW-UHFFFAOYSA-N

>  <FORMULA>  (5426) 
C18Cl2F15P

>  <EXACT MASS>  (5426) 
601.88751529

>  <MW>  (5426) 
602

>  <ID>  (5426) 
JP003805

>  <CONTRIBUTOR>  (5426) 
University of Tokyo Team, {Faculty of Engineering, University of Tokyo

>  <COMMENT>  (5426) 
SMILES=Fc(c(F)3)c(F)c(F)c(c(F)3)P(Cl)(Cl)(c(c(F)2)c(F)c(F)c(F)c(F)2)c(c(F)1)c(F)c(F)c(F)c(F)1
InChI=InChI=1S/C18Cl2F15P/c19-36(20,16-10(30)4(24)1(21)5(25)11(16)31,17-12(32)6(26)2(22)7(27)13(17)33)18-14(34)8(28)3(23)9(29)15(18)35
computed SMILES=FC=1C(F)=C(F)C(=C(F)C1F)P(Cl)(Cl)(C=2C(F)=C(F)C(F)=C(F)C2F)C=3C(F)=C(F)C(F)=C(F)C3F
accession=JP003805
date=2016.01.19 (Created 2008.10.21, modified 2011.05.06)
author=SASAKI S, TOYOHASHI UNIV. OF TECH.
license=CC BY-NC-SA
exact mass=601.88751
ionization energy=70 eV
ion type=[M]+*
computed spectral entropy=2.6181034817672555
computed normalized entropy=0.7554249819359496
SPLASH=splash10-014i-5489060000-418947b42c7bf54d1bdd
submitter=submitter = University of Tokyo Team (Faculty of Engineering, University of Tokyo)
MoNA Rating=3.75

>  <NUM PEAKS>  (5426) 
32

>  <MASS SPECTRAL PEAKS>  (5426) 
69 54
79 4.5
93 6.7
98 0.59
99 2.6
105 3
110 7.1
117 0.17
129 30
148 5.7
167 3.5
168 0.34
198 7.5
217 24.1
227 13
246 0.49
258 7
265 13.1
277 11
278 0.03
296 41
297 5.9
312 4
315 0.59
346 3
365 99.99
366 11.5
513 0.55
514 2.2
532 72
533 13.6
534 2

$$$$

     RDKit          2D

 35 37  0  0  0  0  0  0  0  0999 V2000
    2.4630   -6.8696    0.0000 C   0  0  0  0  0  0  0  0  0  0  0  0
   -1.8184    1.0069    0.0000 C   0  0  0  0  0  0  0  0  0  0  0  0
    9.1789   -2.9947    0.0000 C   0  0  0  0  0  0  0  0  0  0  0  0
    1.3136   -5.9045    0.0000 C   0  0  0  0  0  0  0  0  0  0  0  0
    3.8726   -6.3565    0.0000 C   0  0  0  0  0  0  0  0  0  0  0  0
   -0.5184    1.7569    0.0000 C   0  0  0  0  0  0  0  0  0  0  0  0
   -1.8184   -0.4931    0.0000 C   0  0  0  0  0  0  0  0  0  0  0  0
    8.2139   -4.1441    0.0000 C   0  0  0  0  0  0  0  0  0  0  0  0
    8.6659   -1.5852    0.0000 C   0  0  0  0  0  0  0  0  0  0  0  0
    1.5738   -4.4264    0.0000 C   0  0  0  0  0  0  0  0  0  0  0  0
    4.1327   -4.8784    0.0000 C   0  0  0  0  0  0  0  0  0  0  0  0
    0.7816    1.0069    0.0000 C   0  0  0  0  0  0  0  0  0  0  0  0
   -0.5184   -1.2431    0.0000 C   0  0  0  0  0  0  0  0  0  0  0  0
    6.7357   -3.8840    0.0000 C   0  0  0  0  0  0  0  0  0  0  0  0
    7.1878   -1.3251    0.0000 C   0  0  0  0  0  0  0  0  0  0  0  0
    2.9833   -3.9133    0.0000 C   0  0  0  0  0  0  0  0  0  0  0  0
    0.7816   -0.4931    0.0000 C   0  0  0  0  0  0  0  0  0  0  0  0
    6.2227   -2.4745    0.0000 C   0  0  0  0  0  0  0  0  0  0  0  0
    2.2023   -8.3467    0.0000 F   0  0  0  0  0  0  0  0  0  0  0  0
   -3.1173    1.7571    0.0000 F   0  0  0  0  0  0  0  0  0  0  0  0
   10.6561   -3.2555    0.0000 F   0  0  0  0  0  0  0  0  0  0  0  0
   -0.0959   -6.4175    0.0000 F   0  0  0  0  0  0  0  0  0  0  0  0
    5.0218   -7.3205    0.0000 F   0  0  0  0  0  0  0  0  0  0  0  0
   -0.5184    3.2569    0.0000 F   0  0  0  0  0  0  0  0  0  0  0  0
   -3.1173   -1.2433    0.0000 F   0  0  0  0  0  0  0  0  0  0  0  0
    8.7269   -5.5537    0.0000 F   0  0  0  0  0  0  0  0  0  0  0  0
    9.6299   -0.4360    0.0000 F   0  0  0  0  0  0  0  0  0  0  0  0
    0.3008   -2.9098    0.0000 F   0  0  0  0  0  0  0  0  0  0  0  0
    6.6788   -6.3484    0.0000 F   0  0  0  0  0  0  0  0  0  0  0  0
    2.0805    1.7571    0.0000 F   0  0  0  0  0  0  0  0  0  0  0  0
   -0.5184   -2.7431    0.0000 F   0  0  0  0  0  0  0  0  0  0  0  0
    5.4633   -5.4010    0.0000 F   0  0  0  0  0  0  0  0  0  0  0  0
    6.6748    0.0845    0.0000 F   0  0  0  0  0  0  0  0  0  0  0  0
    3.8407   -0.5540    0.0000 O   0  0  0  0  0  0  0  0  0  0  0  0
    3.3275   -1.9635    0.0000 P   0  0  0  0  0  0  0  0  0  0  0  0
  4  1  2  0
  5  1  1  0
  6  2  2  0
  7  2  1  0
  8  3  2  0
  9  3  1  0
 10  4  1  0
 11  5  2  0
 12  6  1  0
 13  7  2  0
 14  8  1  0
 15  9  2  0
 16 10  2  0
 16 11  1  0
 17 12  2  0
 17 13  1  0
 18 14  2  0
 18 15  1  0
 19  1  1  0
 20  2  1  0
 21  3  1  0
 22  4  1  0
 23  5  1  0
 24  6  1  0
 25  7  1  0
 26  8  1  0
 27  9  1  0
 28 10  1  0
 29 11  1  0
 30 12  1  0
 31 13  1  0
 32 14  1  0
 33 15  1  0
 35 16  1  0
 35 17  1  0
 35 18  1  0
 35 34  2  0
M  END
>  <NAME>  (5427) 
TRIS(PENTAFLUOROPHENYL)-PHOSPHINE OXIDE

>  <SYNONYMS>  (5427) 


>  <SPECTRUM TYPE>  (5427) 
MS1

>  <INSTRUMENT TYPE>  (5427) 
EI-B

>  <INSTRUMENT>  (5427) 
Unknown

>  <ION MODE>  (5427) 
P

>  <INCHIKEY>  (5427) 
VDVWCGGZSOUZCE-UHFFFAOYSA-N

>  <FORMULA>  (5427) 
C18F15OP

>  <EXACT MASS>  (5427) 
547.94472455

>  <MW>  (5427) 
548

>  <ID>  (5427) 
JP003804

>  <CONTRIBUTOR>  (5427) 
University of Tokyo Team, {Faculty of Engineering, University of Tokyo

>  <COMMENT>  (5427) 
SMILES=Fc(c(F)3)c(F)c(F)c(c(F)3)P(=O)(c(c(F)2)c(F)c(F)c(F)c(F)2)c(c(F)1)c(F)c(F)c(F)c(F)1
InChI=InChI=1S/C18F15OP/c19-1-4(22)10(28)16(11(29)5(1)23)35(34,17-12(30)6(24)2(20)7(25)13(17)31)18-14(32)8(26)3(21)9(27)15(18)33
computed SMILES=O=P(C=1C(F)=C(F)C(F)=C(F)C1F)(C=2C(F)=C(F)C(F)=C(F)C2F)C=3C(F)=C(F)C(F)=C(F)C3F
accession=JP003804
date=2016.01.19 (Created 2008.10.21, modified 2011.05.06)
author=SASAKI S, TOYOHASHI UNIV. OF TECH.
license=CC BY-NC-SA
exact mass=547.94472
ionization energy=70 eV
ion type=[M]+*
computed spectral entropy=3.0114497270238463
computed normalized entropy=0.7697934605305988
SPLASH=splash10-014i-4944010000-119c8086bfea3b780bb5
submitter=submitter = University of Tokyo Team (Faculty of Engineering, University of Tokyo)
MoNA Rating=3.75

>  <NUM PEAKS>  (5427) 
50

>  <MASS SPECTRAL PEAKS>  (5427) 
47 14.2
69 45.1
74 2.1
79 0.5
86 3.8
93 24.1
98 11.2
105 0.34
110 5.8
117 99.99
118 6
129 2.05
136 5.2
145 2.8
148 22.1
155 2.97
164 14.5
165 3.9
167 35.2
183 3.47
184 2.7
196 3.8
198 1.4
205 0.22
214 2.5
215 5.2
217 21.5
227 1.22
234 6
245 7.3
258 5.1
265 3.79
266 4.8
277 7.1
296 46.8
297 0.63
312 7.4
315 2.2
331 4.8
334 0.43
346 1
362 1.5
365 92
366 0.13
381 7.8
400 1.5
529 2.1
532 0.05
548 36.5
549 7

$$$$

     RDKit          2D

 35 37  0  0  0  0  0  0  0  0999 V2000
    2.4630   -6.8696    0.0000 C   0  0  0  0  0  0  0  0  0  0  0  0
   -1.8184    1.0069    0.0000 C   0  0  0  0  0  0  0  0  0  0  0  0
    9.1789   -2.9947    0.0000 C   0  0  0  0  0  0  0  0  0  0  0  0
    1.3136   -5.9045    0.0000 C   0  0  0  0  0  0  0  0  0  0  0  0
    3.8726   -6.3565    0.0000 C   0  0  0  0  0  0  0  0  0  0  0  0
   -0.5184    1.7569    0.0000 C   0  0  0  0  0  0  0  0  0  0  0  0
   -1.8184   -0.4931    0.0000 C   0  0  0  0  0  0  0  0  0  0  0  0
    8.2139   -4.1441    0.0000 C   0  0  0  0  0  0  0  0  0  0  0  0
    8.6659   -1.5852    0.0000 C   0  0  0  0  0  0  0  0  0  0  0  0
    1.5738   -4.4264    0.0000 C   0  0  0  0  0  0  0  0  0  0  0  0
    4.1327   -4.8784    0.0000 C   0  0  0  0  0  0  0  0  0  0  0  0
    0.7816    1.0069    0.0000 C   0  0  0  0  0  0  0  0  0  0  0  0
   -0.5184   -1.2431    0.0000 C   0  0  0  0  0  0  0  0  0  0  0  0
    6.7357   -3.8840    0.0000 C   0  0  0  0  0  0  0  0  0  0  0  0
    7.1878   -1.3251    0.0000 C   0  0  0  0  0  0  0  0  0  0  0  0
    2.9833   -3.9133    0.0000 C   0  0  0  0  0  0  0  0  0  0  0  0
    0.7816   -0.4931    0.0000 C   0  0  0  0  0  0  0  0  0  0  0  0
    6.2227   -2.4745    0.0000 C   0  0  0  0  0  0  0  0  0  0  0  0
    2.2023   -8.3467    0.0000 F   0  0  0  0  0  0  0  0  0  0  0  0
   -3.1173    1.7571    0.0000 F   0  0  0  0  0  0  0  0  0  0  0  0
   10.6561   -3.2555    0.0000 F   0  0  0  0  0  0  0  0  0  0  0  0
   -0.0959   -6.4175    0.0000 F   0  0  0  0  0  0  0  0  0  0  0  0
    5.0218   -7.3205    0.0000 F   0  0  0  0  0  0  0  0  0  0  0  0
   -0.5184    3.2569    0.0000 F   0  0  0  0  0  0  0  0  0  0  0  0
   -3.1173   -1.2433    0.0000 F   0  0  0  0  0  0  0  0  0  0  0  0
    8.7269   -5.5537    0.0000 F   0  0  0  0  0  0  0  0  0  0  0  0
    9.6299   -0.4360    0.0000 F   0  0  0  0  0  0  0  0  0  0  0  0
    0.3008   -2.9098    0.0000 F   0  0  0  0  0  0  0  0  0  0  0  0
    6.6788   -6.3484    0.0000 F   0  0  0  0  0  0  0  0  0  0  0  0
    2.0805    1.7571    0.0000 F   0  0  0  0  0  0  0  0  0  0  0  0
   -0.5184   -2.7431    0.0000 F   0  0  0  0  0  0  0  0  0  0  0  0
    5.4633   -5.4010    0.0000 F   0  0  0  0  0  0  0  0  0  0  0  0
    6.6748    0.0845    0.0000 F   0  0  0  0  0  0  0  0  0  0  0  0
    3.3275   -1.9635    0.0000 P   0  0  0  0  0  0  0  0  0  0  0  0
    3.8407   -0.5540    0.0000 S   0  0  0  0  0  0  0  0  0  0  0  0
  4  1  2  0
  5  1  1  0
  6  2  2  0
  7  2  1  0
  8  3  2  0
  9  3  1  0
 10  4  1  0
 11  5  2  0
 12  6  1  0
 13  7  2  0
 14  8  1  0
 15  9  2  0
 16 10  2  0
 16 11  1  0
 17 12  2  0
 17 13  1  0
 18 14  2  0
 18 15  1  0
 19  1  1  0
 20  2  1  0
 21  3  1  0
 22  4  1  0
 23  5  1  0
 24  6  1  0
 25  7  1  0
 26  8  1  0
 27  9  1  0
 28 10  1  0
 29 11  1  0
 30 12  1  0
 31 13  1  0
 32 14  1  0
 33 15  1  0
 34 16  1  0
 34 17  1  0
 34 18  1  0
 35 34  2  0
M  END
>  <NAME>  (5428) 
TRIS(PENTAFLUOROPHENYL)-PHOSPHINE SULFIDE

>  <SYNONYMS>  (5428) 


>  <SPECTRUM TYPE>  (5428) 
MS1

>  <INSTRUMENT TYPE>  (5428) 
EI-B

>  <INSTRUMENT>  (5428) 
Unknown

>  <ION MODE>  (5428) 
P

>  <INCHIKEY>  (5428) 
ZKXAGCHSURXSAS-UHFFFAOYSA-N

>  <FORMULA>  (5428) 
C18F15PS

>  <EXACT MASS>  (5428) 
563.92188093

>  <MW>  (5428) 
564

>  <ID>  (5428) 
JP003803

>  <CONTRIBUTOR>  (5428) 
University of Tokyo Team, {Faculty of Engineering, University of Tokyo

>  <COMMENT>  (5428) 
SMILES=Fc(c(F)3)c(F)c(F)c(c(F)3)P(=S)(c(c(F)2)c(F)c(F)c(F)c(F)2)c(c(F)1)c(F)c(F)c(F)c(F)1
InChI=InChI=1S/C18F15PS/c19-1-4(22)10(28)16(11(29)5(1)23)34(35,17-12(30)6(24)2(20)7(25)13(17)31)18-14(32)8(26)3(21)9(27)15(18)33
computed SMILES=FC=1C(F)=C(F)C(=C(F)C1F)P(=S)(C=2C(F)=C(F)C(F)=C(F)C2F)C=3C(F)=C(F)C(F)=C(F)C3F
accession=JP003803
date=2016.01.19 (Created 2008.10.21, modified 2011.05.06)
author=SASAKI S, TOYOHASHI UNIV. OF TECH.
license=CC BY-NC-SA
exact mass=563.92188
ionization energy=70 eV
ion type=[M]+*
computed spectral entropy=3.169710867860978
computed normalized entropy=0.7773591074187246
SPLASH=splash10-014i-6985010000-8c315731a78daee28f13
submitter=submitter = University of Tokyo Team (Faculty of Engineering, University of Tokyo)
MoNA Rating=3.75

>  <NUM PEAKS>  (5428) 
59

>  <MASS SPECTRAL PEAKS>  (5428) 
69 99
74 2.1
79 10.3
86 0.33
91 2.4
93 25
98 16.2
110 0.2
117 65
118 4.4
129 60
130 0.44
141 5.1
148 14.5
155 6.1
158 0.25
165 5
167 16
168 2.7
177 0.29
179 9.2
180 4.1
189 5.2
196 0.46
198 16
199 6
203 3.2
208 0.36
215 3.7
217 41
218 3.6
227 0.35
228 4.6
234 3.9
241 4
246 1.25
258 19
259 4.1
265 18
266 0.24
277 22
278 5.1
296 66
297 0.09
315 9.9
327 4.1
334 2.6
346 0.66
365 99.99
366 14.2
375 4.4
403 0.28
413 3.9
513 5.5
514 3
532 0.75
533 16
564 7.5
565 2.2

$$$$

     RDKit          2D

 20 23  0  0  1  0  0  0  0  0999 V2000
    2.3365    3.1918    0.0000 C   0  0  0  0  0  0  0  0  0  0  0  0
   -0.4100   -2.8000    0.0000 C   0  0  0  0  0  0  0  0  0  0  0  0
   -4.3100   -0.5500    0.0000 C   0  0  0  0  0  0  0  0  0  0  0  0
    0.8900   -2.0500    0.0000 C   0  0  0  0  0  0  0  0  0  0  0  0
   -3.0100    0.2000    0.0000 C   0  0  0  0  0  0  0  0  0  0  0  0
    3.6100   -0.2600    0.0000 C   0  0  0  0  0  0  0  0  0  0  0  0
    4.4900    0.9500    0.0000 C   0  0  0  0  0  0  0  0  0  0  0  0
   -0.4100    1.7000    0.0000 C   0  0  0  0  0  0  0  0  0  0  0  0
    0.8900    2.4500    0.0000 C   0  0  0  0  0  0  0  0  0  0  0  0
   -3.0100   -2.8000    0.0000 C   0  0  0  0  0  0  0  0  0  0  0  0
   -1.7100   -2.0500    0.0000 C   0  0  0  0  0  0  0  0  0  0  0  0
   -4.3100   -2.0500    0.0000 C   0  0  0  0  0  0  0  0  0  0  0  0
   -1.7100   -0.5500    0.0000 C   0  0  0  0  0  0  0  0  0  0  0  0
   -0.4100    0.2000    0.0000 C   0  0  0  0  0  0  0  0  0  0  0  0
    0.8900   -0.5500    0.0000 C   0  0  0  0  0  0  0  0  0  0  0  0
    2.1800    0.2000    0.0000 C   0  0  0  0  0  0  0  0  0  0  0  0
    3.6100    2.1700    0.0000 C   0  0  0  0  0  0  0  0  0  0  0  0
    2.1800    1.7000    0.0000 C   0  0  0  0  0  0  0  0  0  0  0  0
   -5.6089   -2.8002    0.0000 O   0  0  0  0  0  0  0  0  0  0  0  0
    4.0736    3.5966    0.0000 O   0  0  0  0  0  0  0  0  0  0  0  0
  4  2  1  0
  5  3  1  0
  7  6  1  0
  9  8  1  0
 11  2  1  0
 11 10  2  0
 12  3  1  0
 12 10  1  0
 13  5  1  6
 13 11  1  0
 14  8  1  1
 14 13  1  0
 15  4  1  6
 15 14  1  0
 16  6  1  1
 16 15  1  0
 17  7  1  0
 18  1  1  1
 18  9  1  0
 18 16  1  0
 18 17  1  0
 19 12  2  0
 17 20  1  1
M  END
>  <NAME>  (5429) 
19-NORTESTOSTERONE

>  <SYNONYMS>  (5429) 


>  <SPECTRUM TYPE>  (5429) 
MS1

>  <INSTRUMENT TYPE>  (5429) 
EI-B

>  <INSTRUMENT>  (5429) 
HITACHI RMU-6E

>  <ION MODE>  (5429) 
P

>  <INCHIKEY>  (5429) 
NPAGDVCDWIYMMC-IZPLOLCNSA-N

>  <FORMULA>  (5429) 
C18H26O2

>  <EXACT MASS>  (5429) 
274.193280072

>  <MW>  (5429) 
274

>  <ID>  (5429) 
JP003548

>  <CONTRIBUTOR>  (5429) 
University of Tokyo Team, {Faculty of Engineering, University of Tokyo

>  <COMMENT>  (5429) 
SMILES=O=C(C4)C([H])=C(C3)C([H])(C4)C([H])(C2)C([H])(C3)C([H])(C1)C(C)(C2)C([H])(O)C1
InChI=InChI=1S/C18H26O2/c1-18-9-8-14-13-5-3-12(19)10-11(13)2-4-15(14)16(18)6-7-17(18)20/h10,13-17,20H,2-9H2,1H3/t13-,14+,15+,16-,17-,18-/m0/s1
computed SMILES=O=C1C=C2CCC3C(CCC4(C)C(O)CCC34)C2CC1
accession=JP003548
date=2016.01.19 (Created 2008.10.21, modified 2011.05.06)
author=YAMAMOTO M, DEP. CHEMISTRY, FAC. SCIENCE, NARA WOMEN'S UNIV.
license=CC BY-NC-SA
exact mass=274.19328
ionization energy=70 eV
ion type=[M]+*
computed spectral entropy=4.333262615917971
computed normalized entropy=0.8695033426279073
SPLASH=splash10-05i3-8950000000-2aca1e24a2ef4acf545f
submitter=submitter = University of Tokyo Team (Faculty of Engineering, University of Tokyo)
MoNA Rating=3.75

>  <NUM PEAKS>  (5429) 
146

>  <MASS SPECTRAL PEAKS>  (5429) 
27 7.3
28 5.9
29 10.5
31 1.8
39 10.9
40 2.5
41 35.6
42 0.23
43 16.3
44 1.5
51 2.8
52 0.24
53 14.3
54 2.3
55 28.3
56 0.18
57 7.9
58 1.8
65 9.1
66 0.4
67 24.8
68 5.8
69 6.4
71 0.43
77 22.9
78 7.4
79 32.6
80 0.88
81 20.4
82 3.6
83 6
84 0.14
85 1.8
86 1.7
91 37.2
92 0.85
93 24.8
94 10.2
95 16
96 0.54
97 11.4
98 1.5
99 1.1
101 0.11
103 3.4
104 4.1
105 26.7
106 0.94
107 24.2
108 13.7
109 19.9
110 8.95
111 10.7
115 5.1
116 2.5
117 1.04
118 5.8
119 17
120 17.5
121 1.79
122 12.4
123 18.4
124 5.7
128 0.32
129 5.3
130 2.7
131 13.1
132 0.69
133 14.3
134 11.5
135 15.5
136 0.46
137 2
141 2
142 1.9
143 0.41
144 4
145 10.6
146 11.9
147 2.21
148 12.9
149 6.8
150 2.1
151 0.33
152 1.5
153 1.1
155 1.6
156 0.15
157 4
158 3.3
159 9.3
160 1.38
161 8.7
162 5
163 3.5
164 0.61
165 8.6
166 2.3
169 1.7
170 0.17
171 3.8
172 2.9
173 12.5
174 0.95
175 8.2
176 1.8
183 1.9
184 0.15
185 4.4
186 3.2
187 7.5
188 0.61
189 3.2
190 2.6
197 7.5
198 0.26
199 6.6
200 2.7
201 3.7
202 0.76
203 4.1
204 1.8
212 3
213 3.3
214 7.4
215 20
216 5.6
217 0.94
218 4.2
228 2.1
229 1.4
230 0.73
231 17.3
232 16.3
233 2.5
238 0.18
239 1.2
241 3.9
246 7.4
247 0.14
256 16
257 3.4
259 1.2
274 99.99
275 20.8
276 2.4

$$$$

     RDKit          2D

  8  8  0  0  0  0  0  0  0  0999 V2000
    2.2733   -0.6175    0.0000 C   0  0  0  0  0  0  0  0  0  0  0  0
    2.2738    0.8833    0.0000 C   0  0  0  0  0  0  0  0  0  0  0  0
    0.9738   -1.3683    0.0000 C   0  0  0  0  0  0  0  0  0  0  0  0
    0.9748    1.6333    0.0000 C   0  0  0  0  0  0  0  0  0  0  0  0
   -0.3252   -0.6183    0.0000 C   0  0  0  0  0  0  0  0  0  0  0  0
   -1.6238    1.6325    0.0000 C   0  0  0  0  0  0  0  0  0  0  0  0
   -0.3248    0.8825    0.0000 C   0  0  0  0  0  0  0  0  0  0  0  0
   -2.9228    0.8825    0.0000 O   0  0  0  0  0  0  0  0  0  0  0  0
  2  1  2  0
  3  1  1  0
  4  2  1  0
  5  3  2  0
  7  4  2  0
  7  5  1  0
  7  6  1  0
  8  6  2  0
M  END
>  <NAME>  (5430) 
BENZALDEHYDE

>  <SYNONYMS>  (5430) 


>  <SPECTRUM TYPE>  (5430) 
MS1

>  <INSTRUMENT TYPE>  (5430) 
EI-B

>  <INSTRUMENT>  (5430) 
HITACHI M-68

>  <ION MODE>  (5430) 
P

>  <INCHIKEY>  (5430) 
HUMNYLRZRPPJDN-UHFFFAOYSA-N

>  <FORMULA>  (5430) 
C7H6O

>  <EXACT MASS>  (5430) 
106.041864812

>  <MW>  (5430) 
106

>  <ID>  (5430) 
JP003547

>  <CONTRIBUTOR>  (5430) 
University of Tokyo Team, {Faculty of Engineering, University of Tokyo

>  <COMMENT>  (5430) 
SMILES=O=Cc(c1)cccc1
InChI=InChI=1S/C7H6O/c8-6-7-4-2-1-3-5-7/h1-6H
computed SMILES=O=CC=1C=CC=CC1
accession=JP003547
date=2016.01.19 (Created 2008.10.21, modified 2011.05.06)
author=YAMAMOTO M, DEP. CHEMISTRY, FAC. SCIENCE, NARA WOMEN'S UNIV.
license=CC BY-NC-SA
exact mass=106.04186
ionization energy=70 eV
ion type=[M]+*
computed spectral entropy=1.582903498138013
computed normalized entropy=0.6874462546266933
SPLASH=splash10-0a6r-7900000000-7d98ce9e964eb9bae123
submitter=submitter = University of Tokyo Team (Faculty of Engineering, University of Tokyo)
MoNA Rating=3.75

>  <NUM PEAKS>  (5430) 
10

>  <MASS SPECTRAL PEAKS>  (5430) 
39 3.1
50 2.2
51 22.5
63 1.3
76 2.9
77 55.1
78 14.1
105 9.3
106 99.99
107 10.3

$$$$

     RDKit          2D

  8  8  0  0  0  0  0  0  0  0999 V2000
    2.2733   -0.6175    0.0000 C   0  0  0  0  0  0  0  0  0  0  0  0
    2.2738    0.8833    0.0000 C   0  0  0  0  0  0  0  0  0  0  0  0
    0.9738   -1.3683    0.0000 C   0  0  0  0  0  0  0  0  0  0  0  0
    0.9748    1.6333    0.0000 C   0  0  0  0  0  0  0  0  0  0  0  0
   -0.3252   -0.6183    0.0000 C   0  0  0  0  0  0  0  0  0  0  0  0
   -1.6238    1.6325    0.0000 C   0  0  0  0  0  0  0  0  0  0  0  0
   -0.3248    0.8825    0.0000 C   0  0  0  0  0  0  0  0  0  0  0  0
   -2.9228    0.8825    0.0000 N   0  0  0  0  0  0  0  0  0  0  0  0
  2  1  2  0
  3  1  1  0
  4  2  1  0
  5  3  2  0
  7  4  2  0
  7  5  1  0
  7  6  1  0
  8  6  1  0
M  END
>  <NAME>  (5431) 
BENZYLAMINE

>  <SYNONYMS>  (5431) 


>  <SPECTRUM TYPE>  (5431) 
MS1

>  <INSTRUMENT TYPE>  (5431) 
EI-B

>  <INSTRUMENT>  (5431) 
HITACHI M-68

>  <ION MODE>  (5431) 
P

>  <INCHIKEY>  (5431) 
WGQKYBSKWIADBV-UHFFFAOYSA-N

>  <FORMULA>  (5431) 
C7H9N

>  <EXACT MASS>  (5431) 
107.073499288

>  <MW>  (5431) 
107

>  <ID>  (5431) 
JP003546

>  <CONTRIBUTOR>  (5431) 
University of Tokyo Team, {Faculty of Engineering, University of Tokyo

>  <COMMENT>  (5431) 
SMILES=NCc(c1)cccc1
InChI=InChI=1S/C7H9N/c8-6-7-4-2-1-3-5-7/h1-5H,6,8H2
computed SMILES=NCC=1C=CC=CC1
accession=JP003546
date=2016.01.19 (Created 2008.10.21, modified 2011.05.06)
author=YAMAMOTO M, DEP. CHEMISTRY, FAC. SCIENCE, NARA WOMEN'S UNIV.
license=CC BY-NC-SA
exact mass=107.0735
ionization energy=70 eV
ion type=[M]+*
computed spectral entropy=2.7427702492823407
computed normalized entropy=0.7653846111565439
SPLASH=splash10-0a6r-9500000000-3b232f493a2c14360f5f
submitter=submitter = University of Tokyo Team (Faculty of Engineering, University of Tokyo)
MoNA Rating=3.75

>  <NUM PEAKS>  (5431) 
36

>  <MASS SPECTRAL PEAKS>  (5431) 
17 4.6
28 43.2
29 11.5
30 30.4
31 26.8
32 4.8
36 2.8
38 0.36
39 9.4
43 3.9
44 3.5
45 1.14
46 5
50 11
51 19
52 0.62
53 3.4
62 2.1
63 5.4
65 0.54
74 3.4
75 2.4
76 3.3
77 2.29
78 12.3
79 34.1
80 3.8
89 0.4
90 2
91 12.7
103 2.1
104 0.47
105 3
106 99.99
107 63
108 5.5

$$$$

     RDKit          2D

  8  8  0  0  0  0  0  0  0  0999 V2000
   -2.5981   -0.4300    0.0000 C   0  0  0  0  0  0  0  0  0  0  0  0
   -1.2986   -1.1808    0.0000 C   0  0  0  0  0  0  0  0  0  0  0  0
   -2.5986    1.0708    0.0000 C   0  0  0  0  0  0  0  0  0  0  0  0
    0.0005   -0.4308    0.0000 C   0  0  0  0  0  0  0  0  0  0  0  0
   -1.2995    1.8208    0.0000 C   0  0  0  0  0  0  0  0  0  0  0  0
    1.2990    1.8200    0.0000 C   0  0  0  0  0  0  0  0  0  0  0  0
    0.0000    1.0700    0.0000 C   0  0  0  0  0  0  0  0  0  0  0  0
    2.5981    2.5700    0.0000 N   0  0  0  0  0  0  0  0  0  0  0  0
  2  1  2  0
  3  1  1  0
  4  2  1  0
  5  3  2  0
  7  4  2  0
  7  5  1  0
  7  6  1  0
  8  6  3  0
M  END
>  <NAME>  (5432) 
BENZONITRILE

>  <SYNONYMS>  (5432) 


>  <SPECTRUM TYPE>  (5432) 
MS1

>  <INSTRUMENT TYPE>  (5432) 
EI-B

>  <INSTRUMENT>  (5432) 
HITACHI M-68

>  <ION MODE>  (5432) 
P

>  <INCHIKEY>  (5432) 
JFDZBHWFFUWGJE-UHFFFAOYSA-N

>  <FORMULA>  (5432) 
C7H5N

>  <EXACT MASS>  (5432) 
103.04219916

>  <MW>  (5432) 
103

>  <ID>  (5432) 
JP003545

>  <CONTRIBUTOR>  (5432) 
University of Tokyo Team, {Faculty of Engineering, University of Tokyo

>  <COMMENT>  (5432) 
SMILES=N#Cc(c1)cccc1
InChI=InChI=1S/C7H5N/c8-6-7-4-2-1-3-5-7/h1-5H
computed SMILES=N#CC=1C=CC=CC1
accession=JP003545
date=2016.01.19 (Created 2008.10.21, modified 2011.05.06)
author=YAMAMOTO M, DEP. CHEMISTRY, FAC. SCIENCE, NARA WOMEN'S UNIV.
license=CC BY-NC-SA
exact mass=103.0422
ionization energy=70 eV
ion type=[M]+*
computed spectral entropy=1.9907327969851882
computed normalized entropy=0.7543348053281632
SPLASH=splash10-003s-9000000000-06fca1d207820656ef9a
submitter=submitter = University of Tokyo Team (Faculty of Engineering, University of Tokyo)
MoNA Rating=3.75

>  <NUM PEAKS>  (5432) 
14

>  <MASS SPECTRAL PEAKS>  (5432) 
26 9
27 31.6
28 9.5
29 27.4
31 99.99
32 2
42 4.4
43 1.21
45 57.5
46 27.1
47 1.5
50 0.3
76 6.4
103 20

$$$$

     RDKit          2D

 11 11  0  0  0  0  0  0  0  0999 V2000
   -4.8712    2.0071    0.0000 C   0  0  0  0  0  0  0  0  0  0  0  0
   -3.5721    2.7571    0.0000 C   0  0  0  0  0  0  0  0  0  0  0  0
    2.9231    0.5071    0.0000 C   0  0  0  0  0  0  0  0  0  0  0  0
    2.9236    2.0079    0.0000 C   0  0  0  0  0  0  0  0  0  0  0  0
    1.6236   -0.2437    0.0000 C   0  0  0  0  0  0  0  0  0  0  0  0
    1.6245    2.7579    0.0000 C   0  0  0  0  0  0  0  0  0  0  0  0
    0.3245    0.5063    0.0000 C   0  0  0  0  0  0  0  0  0  0  0  0
    0.3250    2.0071    0.0000 C   0  0  0  0  0  0  0  0  0  0  0  0
   -0.9740    2.7571    0.0000 C   0  0  0  0  0  0  0  0  0  0  0  0
   -0.9740    4.2571    0.0000 O   0  0  0  0  0  0  0  0  0  0  0  0
   -2.2731    2.0071    0.0000 O   0  0  0  0  0  0  0  0  0  0  0  0
  2  1  1  0
  4  3  2  0
  5  3  1  0
  6  4  1  0
  7  5  2  0
  8  6  2  0
  8  7  1  0
  9  8  1  0
 10  9  2  0
 11  2  1  0
 11  9  1  0
M  END
>  <NAME>  (5433) 
ETHYL BENZOATE

>  <SYNONYMS>  (5433) 


>  <SPECTRUM TYPE>  (5433) 
MS1

>  <INSTRUMENT TYPE>  (5433) 
EI-B

>  <INSTRUMENT>  (5433) 
HITACHI M-68

>  <ION MODE>  (5433) 
P

>  <INCHIKEY>  (5433) 
MTZQAGJQAFMTAQ-UHFFFAOYSA-N

>  <FORMULA>  (5433) 
C9H10O2

>  <EXACT MASS>  (5433) 
150.06807956

>  <MW>  (5433) 
150

>  <ID>  (5433) 
JP003544

>  <CONTRIBUTOR>  (5433) 
University of Tokyo Team, {Faculty of Engineering, University of Tokyo

>  <COMMENT>  (5433) 
SMILES=CCOC(=O)c(c1)cccc1
InChI=InChI=1S/C9H10O2/c1-2-11-9(10)8-6-4-3-5-7-8/h3-7H,2H2,1H3
computed SMILES=O=C(OCC)C=1C=CC=CC1
accession=JP003544
date=2016.01.19 (Created 2008.10.21, modified 2011.05.06)
author=YAMAMOTO M, DEP. CHEMISTRY, FAC. SCIENCE, NARA WOMEN'S UNIV.
license=CC BY-NC-SA
exact mass=150.06808
ionization energy=70 eV
ion type=[M]+*
computed spectral entropy=2.306738913349358
computed normalized entropy=0.6922561044214156
SPLASH=splash10-0a4i-6900000000-5b05b2c2170f6252ca9a
submitter=submitter = University of Tokyo Team (Faculty of Engineering, University of Tokyo)
MoNA Rating=3.75

>  <NUM PEAKS>  (5433) 
28

>  <MASS SPECTRAL PEAKS>  (5433) 
18 3.2
26 1.7
27 4.8
28 6.1
29 5.5
35 3
36 13.7
37 0.11
38 4.9
39 1.6
44 1.3
45 0.2
50 7.4
51 17.8
69 1.3
74 0.29
75 1.9
76 2.8
77 42.9
78 0.4
105 99.99
106 9.1
122 28.5
123 0.24
135 1.3
149 1.6
150 24
151 2.2

$$$$

     RDKit          2D

 14 15  0  0  0  0  0  0  0  0999 V2000
    7.4270    2.7906    0.0000 C   0  0  0  0  0  0  0  0  0  0  0  0
   -1.6700   -0.9600    0.0000 C   0  0  0  0  0  0  0  0  0  0  0  0
    6.1270    3.5406    0.0000 C   0  0  0  0  0  0  0  0  0  0  0  0
    7.4270    1.2906    0.0000 C   0  0  0  0  0  0  0  0  0  0  0  0
   -0.3700   -1.7100    0.0000 C   0  0  0  0  0  0  0  0  0  0  0  0
   -1.6700    0.5400    0.0000 C   0  0  0  0  0  0  0  0  0  0  0  0
    4.8270    2.7906    0.0000 C   0  0  0  0  0  0  0  0  0  0  0  0
    6.1270    0.5406    0.0000 C   0  0  0  0  0  0  0  0  0  0  0  0
    0.9300   -0.9600    0.0000 C   0  0  0  0  0  0  0  0  0  0  0  0
   -0.3700    1.2900    0.0000 C   0  0  0  0  0  0  0  0  0  0  0  0
    4.8270    1.2906    0.0000 C   0  0  0  0  0  0  0  0  0  0  0  0
    0.9300    0.5400    0.0000 C   0  0  0  0  0  0  0  0  0  0  0  0
    3.5281    0.5404    0.0000 S   0  0  0  0  0  0  0  0  0  0  0  0
    2.2289    1.2902    0.0000 S   0  0  0  0  0  0  0  0  0  0  0  0
  3  1  2  0
  4  1  1  0
  5  2  2  0
  6  2  1  0
  7  3  1  0
  8  4  2  0
  9  5  1  0
 10  6  2  0
 11  7  2  0
 11  8  1  0
 12  9  2  0
 12 10  1  0
 13 11  1  0
 14 12  1  0
 14 13  1  0
M  END
>  <NAME>  (5434) 
DIPHENYLDISULFIDE

>  <SYNONYMS>  (5434) 


>  <SPECTRUM TYPE>  (5434) 
MS1

>  <INSTRUMENT TYPE>  (5434) 
EI-B

>  <INSTRUMENT>  (5434) 
HITACHI RMU-6E

>  <ION MODE>  (5434) 
P

>  <INCHIKEY>  (5434) 
GUUVPOWQJOLRAS-UHFFFAOYSA-N

>  <FORMULA>  (5434) 
C12H10S2

>  <EXACT MASS>  (5434) 
218.02239232

>  <MW>  (5434) 
218

>  <ID>  (5434) 
JP003543

>  <CONTRIBUTOR>  (5434) 
University of Tokyo Team, {Faculty of Engineering, University of Tokyo

>  <COMMENT>  (5434) 
SMILES=c(c2)ccc(c2)SSc(c1)cccc1
InChI=InChI=1S/C12H10S2/c1-3-7-11(8-4-1)13-14-12-9-5-2-6-10-12/h1-10H
computed SMILES=S(SC=1C=CC=CC1)C=2C=CC=CC2
accession=JP003543
date=2016.01.19 (Created 2008.10.21, modified 2011.05.06)
author=YAMAMOTO M, DEP. CHEMISTRY, FAC. SCIENCE, NARA WOMEN'S UNIV.
license=CC BY-NC-SA
exact mass=218.02239
ionization energy=70 eV
ion type=[M]+*
computed spectral entropy=2.6474701704328267
computed normalized entropy=0.7331848118624557
SPLASH=splash10-066r-9830000000-b8d959ffbb40a50bbd74
submitter=submitter = University of Tokyo Team (Faculty of Engineering, University of Tokyo)
MoNA Rating=3.75

>  <NUM PEAKS>  (5434) 
37

>  <MASS SPECTRAL PEAKS>  (5434) 
36 2
38 3.2
39 27.8
45 8.9
50 6.1
51 18.4
57 2.1
58 0.27
59 2.7
63 5
65 46.9
66 0.4
69 16.8
70 1.4
71 1.5
74 0.14
75 1.4
77 13.1
78 2.4
81 0.15
82 4.2
83 3.3
108 7.9
109 99.99
110 10.5
111 4.9
140 4.9
141 0.4
154 12.9
155 1.8
184 4.1
185 0.98
186 4.5
187 1.3
218 65
219 0.97
220 6.4

$$$$

     RDKit          2D

 14 15  0  0  0  0  0  0  0  0999 V2000
   -1.9500    0.7500    0.0000 C   0  0  0  0  0  0  0  0  0  0  0  0
    4.5489    1.5002    0.0000 C   0  0  0  0  0  0  0  0  0  0  0  0
   -1.9500   -0.7500    0.0000 C   0  0  0  0  0  0  0  0  0  0  0  0
    4.5489    3.0002    0.0000 C   0  0  0  0  0  0  0  0  0  0  0  0
   -0.6500    1.5000    0.0000 C   0  0  0  0  0  0  0  0  0  0  0  0
    3.2489    0.7502    0.0000 C   0  0  0  0  0  0  0  0  0  0  0  0
   -0.6500   -1.5000    0.0000 C   0  0  0  0  0  0  0  0  0  0  0  0
    3.2489    3.7502    0.0000 C   0  0  0  0  0  0  0  0  0  0  0  0
    0.6500    0.7500    0.0000 C   0  0  0  0  0  0  0  0  0  0  0  0
    1.9489    1.5002    0.0000 C   0  0  0  0  0  0  0  0  0  0  0  0
    0.6500   -0.7500    0.0000 C   0  0  0  0  0  0  0  0  0  0  0  0
    1.9489    3.0002    0.0000 C   0  0  0  0  0  0  0  0  0  0  0  0
    1.9489   -1.5002    0.0000 O   0  0  0  0  0  0  0  0  0  0  0  0
    0.6500    3.7504    0.0000 O   0  0  0  0  0  0  0  0  0  0  0  0
  3  1  2  0
  4  2  2  0
  5  1  1  0
  6  2  1  0
  7  3  1  0
  8  4  1  0
  9  5  2  0
 10  6  2  0
 10  9  1  0
 11  7  2  0
 11  9  1  0
 12  8  2  0
 12 10  1  0
 13 11  1  0
 14 12  1  0
M  END
>  <NAME>  (5435) 
2,2'-DIHYDROXYDIPHENYL

>  <SYNONYMS>  (5435) 


>  <SPECTRUM TYPE>  (5435) 
MS1

>  <INSTRUMENT TYPE>  (5435) 
EI-B

>  <INSTRUMENT>  (5435) 
HITACHI RMU-6E

>  <ION MODE>  (5435) 
P

>  <INCHIKEY>  (5435) 
IMHDGJOMLMDPJN-UHFFFAOYSA-N

>  <FORMULA>  (5435) 
C12H10O2

>  <EXACT MASS>  (5435) 
186.06807956

>  <MW>  (5435) 
186

>  <ID>  (5435) 
JP003542

>  <CONTRIBUTOR>  (5435) 
University of Tokyo Team, {Faculty of Engineering, University of Tokyo

>  <COMMENT>  (5435) 
SMILES=Oc(c2)c(ccc2)c(c1)c(O)ccc1
InChI=InChI=1S/C12H10O2/c13-11-7-3-1-5-9(11)10-6-2-4-8-12(10)14/h1-8,13-14H
computed SMILES=OC=1C=CC=CC1C=2C=CC=CC2O
accession=JP003542
date=2016.01.19 (Created 2008.10.21, modified 2011.05.06)
author=YAMAMOTO M, DEP. CHEMISTRY, FAC. SCIENCE, NARA WOMEN'S UNIV.
license=CC BY-NC-SA
exact mass=186.06808
ionization energy=70 eV
ion type=[M]+*
computed spectral entropy=2.783033327650992
computed normalized entropy=0.731095371635879
SPLASH=splash10-000i-2900000000-b1169b6b9b4bf06f58b0
submitter=submitter = University of Tokyo Team (Faculty of Engineering, University of Tokyo)
MoNA Rating=3.75

>  <NUM PEAKS>  (5435) 
45

>  <MASS SPECTRAL PEAKS>  (5435) 
39 4.6
50 2.1
51 6.3
62 1.9
63 5.5
64 5.6
65 2.3
69 0.2
69.5 2.8
70 2.9
74 1.7
75 0.26
76 1.9
77 6
78 2.1
79 0.21
87 1.3
89 3.2
90 1.9
93 0.38
102 3.7
103 2.3
113 1.4
115 0.74
118 2.2
127 6.7
128 12.4
129 1.03
130 2.7
131 22.3
132 2.8
139 1.28
140 2.5
141 2.2
145 1.6
157 2.74
158 23.6
159 2.7
167 1.7
168 0.61
169 7.3
171 4.2
185 10.1
186 99.99
187 13.2

$$$$

     RDKit          2D

 13 14  0  0  0  0  0  0  0  0999 V2000
    3.8992    0.3353    0.0000 C   0  0  0  0  0  0  0  0  0  0  0  0
    3.8996    1.8362    0.0000 C   0  0  0  0  0  0  0  0  0  0  0  0
    2.5996   -0.4155    0.0000 C   0  0  0  0  0  0  0  0  0  0  0  0
    2.6006    2.5862    0.0000 C   0  0  0  0  0  0  0  0  0  0  0  0
    1.3006    0.3345    0.0000 C   0  0  0  0  0  0  0  0  0  0  0  0
   -1.2933    1.8289    0.0000 C   0  0  0  0  0  0  0  0  0  0  0  0
    0.0093    4.0602    0.0000 C   0  0  0  0  0  0  0  0  0  0  0  0
   -2.5814    2.5475    0.0000 C   0  0  0  0  0  0  0  0  0  0  0  0
   -1.3191    4.8478    0.0000 C   0  0  0  0  0  0  0  0  0  0  0  0
    1.3011    1.8353    0.0000 C   0  0  0  0  0  0  0  0  0  0  0  0
    0.0020    2.5853    0.0000 C   0  0  0  0  0  0  0  0  0  0  0  0
   -2.6144    4.0915    0.0000 C   0  0  0  0  0  0  0  0  0  0  0  0
   -3.9232    4.8243    0.0000 O   0  0  0  0  0  0  0  0  0  0  0  0
  2  1  2  0
  3  1  1  0
  4  2  1  0
  5  3  2  0
  8  6  2  0
  9  7  1  0
 10  4  2  0
 10  5  1  0
 11  6  1  0
 11  7  2  0
 11 10  1  0
 12  8  1  0
 12  9  2  0
 13 12  1  0
M  END
>  <NAME>  (5436) 
4-HYDROXYDIPHENYL

>  <SYNONYMS>  (5436) 


>  <SPECTRUM TYPE>  (5436) 
MS1

>  <INSTRUMENT TYPE>  (5436) 
EI-B

>  <INSTRUMENT>  (5436) 
HITACHI RMU-6E

>  <ION MODE>  (5436) 
P

>  <INCHIKEY>  (5436) 
YXVFYQXJAXKLAK-UHFFFAOYSA-N

>  <FORMULA>  (5436) 
C12H10O

>  <EXACT MASS>  (5436) 
170.07316494

>  <MW>  (5436) 
170

>  <ID>  (5436) 
JP003541

>  <CONTRIBUTOR>  (5436) 
University of Tokyo Team, {Faculty of Engineering, University of Tokyo

>  <COMMENT>  (5436) 
SMILES=Oc(c2)ccc(c2)c(c1)cccc1
InChI=InChI=1S/C12H10O/c13-12-8-6-11(7-9-12)10-4-2-1-3-5-10/h1-9,13H
computed SMILES=OC=1C=CC(=CC1)C=2C=CC=CC2
accession=JP003541
date=2016.01.19 (Created 2008.10.21, modified 2011.05.06)
author=YAMAMOTO M, DEP. CHEMISTRY, FAC. SCIENCE, NARA WOMEN'S UNIV.
license=CC BY-NC-SA
exact mass=170.07316
ionization energy=70 eV
ion type=[M]+*
computed spectral entropy=1.736651822231224
computed normalized entropy=0.5618337012306023
SPLASH=splash10-00di-1900000000-b5cf785912ef1d91ec27
submitter=submitter = University of Tokyo Team (Faculty of Engineering, University of Tokyo)
MoNA Rating=3.75

>  <NUM PEAKS>  (5436) 
22

>  <MASS SPECTRAL PEAKS>  (5436) 
63 3.2
70 1.4
72 2.1
75 1.4
76 2.4
77 1.8
84 3.1
85 0.67
89 2.2
102 1.4
115 11.1
116 0.18
139 4.7
140 1.4
141 15.1
142 0.23
152 2
153 1.4
168 2.6
169 0.76
170 99.99
171 13.4

$$$$

     RDKit          2D

 14 15  0  0  0  0  0  0  0  0999 V2000
    3.8981    1.4936    0.0000 C   0  0  0  0  0  0  0  0  0  0  0  0
    2.5845   -0.7312    0.0000 C   0  0  0  0  0  0  0  0  0  0  0  0
    0.0047    0.7500    0.0000 C   0  0  0  0  0  0  0  0  0  0  0  0
    1.3182    2.9748    0.0000 C   0  0  0  0  0  0  0  0  0  0  0  0
    5.1826    0.7688    0.0000 C   0  0  0  0  0  0  0  0  0  0  0  0
    3.9090   -1.5254    0.0000 C   0  0  0  0  0  0  0  0  0  0  0  0
   -1.2799    1.4748    0.0000 C   0  0  0  0  0  0  0  0  0  0  0  0
   -0.0063    3.7690    0.0000 C   0  0  0  0  0  0  0  0  0  0  0  0
    2.5990    0.7436    0.0000 C   0  0  0  0  0  0  0  0  0  0  0  0
    1.3037    1.5000    0.0000 C   0  0  0  0  0  0  0  0  0  0  0  0
    5.2081   -0.7754    0.0000 C   0  0  0  0  0  0  0  0  0  0  0  0
   -1.3053    3.0190    0.0000 C   0  0  0  0  0  0  0  0  0  0  0  0
    6.5132   -1.5146    0.0000 O   0  0  0  0  0  0  0  0  0  0  0  0
   -2.6105    3.7582    0.0000 O   0  0  0  0  0  0  0  0  0  0  0  0
  5  1  2  0
  6  2  1  0
  7  3  2  0
  8  4  1  0
  9  1  1  0
  9  2  2  0
 10  3  1  0
 10  4  2  0
 10  9  1  0
 11  5  1  0
 11  6  2  0
 12  7  1  0
 12  8  2  0
 13 11  1  0
 14 12  1  0
M  END
>  <NAME>  (5437) 
4,4'-DIHYDROXYDIPHENYL

>  <SYNONYMS>  (5437) 


>  <SPECTRUM TYPE>  (5437) 
MS1

>  <INSTRUMENT TYPE>  (5437) 
EI-B

>  <INSTRUMENT>  (5437) 
HITACHI RMU-6E

>  <ION MODE>  (5437) 
P

>  <INCHIKEY>  (5437) 
VCCBEIPGXKNHFW-UHFFFAOYSA-N

>  <FORMULA>  (5437) 
C12H10O2

>  <EXACT MASS>  (5437) 
186.06807956

>  <MW>  (5437) 
186

>  <ID>  (5437) 
JP003540

>  <CONTRIBUTOR>  (5437) 
University of Tokyo Team, {Faculty of Engineering, University of Tokyo

>  <COMMENT>  (5437) 
SMILES=Oc(c2)ccc(c2)c(c1)ccc(O)c1
InChI=InChI=1S/C12H10O2/c13-11-5-1-9(2-6-11)10-3-7-12(14)8-4-10/h1-8,13-14H
computed SMILES=OC=1C=CC(=CC1)C2=CC=C(O)C=C2
accession=JP003540
date=2016.01.19 (Created 2008.10.21, modified 2011.05.06)
author=YAMAMOTO M, DEP. CHEMISTRY, FAC. SCIENCE, NARA WOMEN'S UNIV.
license=CC BY-NC-SA
exact mass=186.06808
ionization energy=70 eV
ion type=[M]+*
computed spectral entropy=1.7881217118973272
computed normalized entropy=0.5555112434231735
SPLASH=splash10-000i-1900000000-b3c2aa7febd8f5a30292
submitter=submitter = University of Tokyo Team (Faculty of Engineering, University of Tokyo)
MoNA Rating=3.75

>  <NUM PEAKS>  (5437) 
25

>  <MASS SPECTRAL PEAKS>  (5437) 
39 1.7
51 2.8
55 2.1
63 1.9
64 1.9
65 1.6
70 1.7
77 0.34
84 1.3
93 8.5
115 2.9
127 0.26
128 4.5
129 2.9
131 4.8
139 0.2
141 1.8
157 10.7
158 2
169 0.15
170 3
185 5.9
186 99.99
187 1.32
188 1.3

$$$$

     RDKit          2D

 11 11  0  0  0  0  0  0  0  0999 V2000
    2.5983    0.3196    0.0000 C   0  0  0  0  0  0  0  0  0  0  0  0
    2.5988    1.8204    0.0000 C   0  0  0  0  0  0  0  0  0  0  0  0
    1.2988   -0.4312    0.0000 C   0  0  0  0  0  0  0  0  0  0  0  0
    1.2998    2.5704    0.0000 C   0  0  0  0  0  0  0  0  0  0  0  0
   -0.0002    0.3188    0.0000 C   0  0  0  0  0  0  0  0  0  0  0  0
    0.0002    1.8196    0.0000 C   0  0  0  0  0  0  0  0  0  0  0  0
   -1.2988    2.5696    0.0000 C   0  0  0  0  0  0  0  0  0  0  0  0
   -2.5978    1.8196    0.0000 C   0  0  0  0  0  0  0  0  0  0  0  0
   -1.2988    4.0696    0.0000 O   0  0  0  0  0  0  0  0  0  0  0  0
   -2.5978    0.3196    0.0000 O   0  0  0  0  0  0  0  0  0  0  0  0
   -3.8969    2.5696    0.0000 O   0  0  0  0  0  0  0  0  0  0  0  0
  2  1  2  0
  3  1  1  0
  4  2  1  0
  5  3  2  0
  6  4  2  0
  6  5  1  0
  7  6  1  0
  8  7  1  0
  9  7  1  0
 10  8  2  0
 11  8  1  0
M  END
>  <NAME>  (5438) 
MANDELIC ACID

>  <SYNONYMS>  (5438) 


>  <SPECTRUM TYPE>  (5438) 
MS1

>  <INSTRUMENT TYPE>  (5438) 
EI-B

>  <INSTRUMENT>  (5438) 
HITACHI RMU-6E

>  <ION MODE>  (5438) 
P

>  <INCHIKEY>  (5438) 
IWYDHOAUDWTVEP-UHFFFAOYSA-N

>  <FORMULA>  (5438) 
C8H8O3

>  <EXACT MASS>  (5438) 
152.04734411599998

>  <MW>  (5438) 
152

>  <ID>  (5438) 
JP003539

>  <CONTRIBUTOR>  (5438) 
University of Tokyo Team, {Faculty of Engineering, University of Tokyo

>  <COMMENT>  (5438) 
SMILES=OC(=O)C(O)c(c1)cccc1
InChI=InChI=1S/C8H8O3/c9-7(8(10)11)6-4-2-1-3-5-6/h1-5,7,9H,(H,10,11)
computed SMILES=O=C(O)C(O)C=1C=CC=CC1
accession=JP003539
date=2016.01.19 (Created 2008.10.21, modified 2011.05.06)
author=YAMAMOTO M, DEP. CHEMISTRY, FAC. SCIENCE, NARA WOMEN'S UNIV.
license=CC BY-NC-SA
exact mass=152.04734
ionization energy=70 eV
ion type=[M]+*
computed spectral entropy=2.2005289485013018
computed normalized entropy=0.6535003336817428
SPLASH=splash10-056r-9500000000-47593ebc3aa43ac4c7d5
submitter=submitter = University of Tokyo Team (Faculty of Engineering, University of Tokyo)
MoNA Rating=3.75

>  <NUM PEAKS>  (5438) 
29

>  <MASS SPECTRAL PEAKS>  (5438) 
27 5.5
28 2.7
29 6
38 2.1
39 6.8
45 2.4
50 7.5
51 1.91
52 4.5
53 3.7
53.5 1
62 0.16
63 3.4
74 1.7
75 2
76 0.13
77 46.8
78 7.4
79 65.9
80 0.43
89 2.5
90 4.2
91 1.9
105 0.64
106 1.7
107 99.99
108 8.5
109 0.1
152 8

$$$$

     RDKit          2D

  9  9  0  0  0  0  0  0  0  0999 V2000
   -2.9228    0.8825    0.0000 C   0  0  0  0  0  0  0  0  0  0  0  0
    2.2733   -0.6175    0.0000 C   0  0  0  0  0  0  0  0  0  0  0  0
    2.2738    0.8833    0.0000 C   0  0  0  0  0  0  0  0  0  0  0  0
    0.9738   -1.3683    0.0000 C   0  0  0  0  0  0  0  0  0  0  0  0
    0.9748    1.6333    0.0000 C   0  0  0  0  0  0  0  0  0  0  0  0
   -0.3252   -0.6183    0.0000 C   0  0  0  0  0  0  0  0  0  0  0  0
   -1.6238    1.6325    0.0000 C   0  0  0  0  0  0  0  0  0  0  0  0
   -0.3248    0.8825    0.0000 C   0  0  0  0  0  0  0  0  0  0  0  0
   -1.6238    3.1325    0.0000 O   0  0  0  0  0  0  0  0  0  0  0  0
  3  2  2  0
  4  2  1  0
  5  3  1  0
  6  4  2  0
  7  1  1  0
  8  5  2  0
  8  6  1  0
  8  7  1  0
  9  7  2  0
M  END
>  <NAME>  (5439) 
ACETOPHENONE

>  <SYNONYMS>  (5439) 


>  <SPECTRUM TYPE>  (5439) 
MS1

>  <INSTRUMENT TYPE>  (5439) 
EI-B

>  <INSTRUMENT>  (5439) 
HITACHI RMU-6E

>  <ION MODE>  (5439) 
P

>  <INCHIKEY>  (5439) 
KWOLFJPFCHCOCG-UHFFFAOYSA-N

>  <FORMULA>  (5439) 
C8H8O

>  <EXACT MASS>  (5439) 
120.057514876

>  <MW>  (5439) 
120

>  <ID>  (5439) 
JP003538

>  <CONTRIBUTOR>  (5439) 
University of Tokyo Team, {Faculty of Engineering, University of Tokyo

>  <COMMENT>  (5439) 
SMILES=CC(=O)c(c1)cccc1
InChI=InChI=1S/C8H8O/c1-7(9)8-5-3-2-4-6-8/h2-6H,1H3
computed SMILES=O=C(C=1C=CC=CC1)C
accession=JP003538
date=2016.01.19 (Created 2008.10.21, modified 2011.05.06)
author=YAMAMOTO M, DEP. CHEMISTRY, FAC. SCIENCE, NARA WOMEN'S UNIV.
license=CC BY-NC-SA
exact mass=120.05751
ionization energy=70 eV
ion type=[M]+*
computed spectral entropy=1.9870128801652411
computed normalized entropy=0.6526517445051425
SPLASH=splash10-0pdi-9500000000-3f26e145dcae1ef98802
submitter=submitter = University of Tokyo Team (Faculty of Engineering, University of Tokyo)
MoNA Rating=3.75

>  <NUM PEAKS>  (5439) 
21

>  <MASS SPECTRAL PEAKS>  (5439) 
38 3
39 6.2
40 1.7
43 15.3
50 15.6
51 34.7
52 3
52.5 0.14
62 2.4
63 3.7
65 2.6
74 0.54
75 3.1
76 3.6
77 81.9
78 0.9
91 2.4
105 99.99
106 7.7
120 3.1
121 2.9

$$$$

     RDKit          2D

  8  8  0  0  0  0  0  0  0  0999 V2000
    2.2733   -0.6175    0.0000 C   0  0  0  0  0  0  0  0  0  0  0  0
    0.9738   -1.3683    0.0000 C   0  0  0  0  0  0  0  0  0  0  0  0
    2.2738    0.8833    0.0000 C   0  0  0  0  0  0  0  0  0  0  0  0
   -0.3252   -0.6183    0.0000 C   0  0  0  0  0  0  0  0  0  0  0  0
    0.9748    1.6333    0.0000 C   0  0  0  0  0  0  0  0  0  0  0  0
   -0.3248    0.8825    0.0000 C   0  0  0  0  0  0  0  0  0  0  0  0
   -1.6238    1.6325    0.0000 N   0  0  0  0  0  0  0  0  0  0  0  0
   -2.9228    0.8825    0.0000 O   0  0  0  0  0  0  0  0  0  0  0  0
  2  1  1  0
  3  1  1  0
  4  2  1  0
  5  3  1  0
  6  4  1  0
  6  5  1  0
  7  6  2  3
  8  7  1  0
M  END
>  <NAME>  (5440) 
CYCLOHEXANONE OXIME

>  <SYNONYMS>  (5440) 


>  <SPECTRUM TYPE>  (5440) 
MS1

>  <INSTRUMENT TYPE>  (5440) 
EI-B

>  <INSTRUMENT>  (5440) 
HITACHI RMU-6E

>  <ION MODE>  (5440) 
P

>  <INCHIKEY>  (5440) 
VEZUQRBDRNJBJY-UHFFFAOYSA-N

>  <FORMULA>  (5440) 
C6H11NO

>  <EXACT MASS>  (5440) 
113.084063972

>  <MW>  (5440) 
113

>  <ID>  (5440) 
JP003537

>  <CONTRIBUTOR>  (5440) 
University of Tokyo Team, {Faculty of Engineering, University of Tokyo

>  <COMMENT>  (5440) 
SMILES=ON=C(C1)CCCC1
InChI=InChI=1S/C6H11NO/c8-7-6-4-2-1-3-5-6/h8H,1-5H2
computed SMILES=ON=C1CCCCC1
accession=JP003537
date=2016.01.19 (Created 2008.10.21, modified 2011.05.06)
author=YAMAMOTO M, DEP. CHEMISTRY, FAC. SCIENCE, NARA WOMEN'S UNIV.
license=CC BY-NC-SA
exact mass=113.08406
ionization energy=70 eV
ion type=[M]+*
computed spectral entropy=3.3726364735029977
computed normalized entropy=0.8341809811650929
SPLASH=splash10-0bt9-9100000000-49d69f5f4d99a71e6919
submitter=submitter = University of Tokyo Team (Faculty of Engineering, University of Tokyo)
MoNA Rating=3.75

>  <NUM PEAKS>  (5440) 
57

>  <MASS SPECTRAL PEAKS>  (5440) 
15 2.8
18 2.5
26 6.5
27 40
28 28.5
29 25
30 10.2
37 0.2
38 5.2
39 47.5
40 14.5
41 9.9
42 46.5
43 11
44 11
45 0.26
46 22
50 3.8
51 7.3
52 0.7
53 21
54 54.5
55 77
56 1
57 9.3
58 2.4
59 78.5
60 0.29
63 1.2
64 1.5
66 6.5
67 4.1
68 42
69 27
70 9.5
71 0.28
72 63.5
73 4
77 3.5
78 0.12
79 13
80 8.9
81 36.5
82 0.65
83 3.1
84 19.5
85 26
86 0.2
94 4.5
95 1.2
96 24
97 0.5
98 32
99 2
112 5.5
113 99.99
114 13.5

$$$$

     RDKit          2D

 10 10  0  0  0  0  0  0  0  0999 V2000
   -1.9500    0.7500    0.0000 C   0  0  0  0  0  0  0  0  0  0  0  0
   -1.9500   -0.7500    0.0000 C   0  0  0  0  0  0  0  0  0  0  0  0
   -0.6500    1.5000    0.0000 C   0  0  0  0  0  0  0  0  0  0  0  0
   -0.6500   -1.5000    0.0000 C   0  0  0  0  0  0  0  0  0  0  0  0
    0.6500    0.7500    0.0000 C   0  0  0  0  0  0  0  0  0  0  0  0
    0.6500   -0.7500    0.0000 C   0  0  0  0  0  0  0  0  0  0  0  0
    1.9489    1.5002    0.0000 C   0  0  0  0  0  0  0  0  0  0  0  0
    1.9487    3.0002    0.0000 N   0  0  0  0  0  0  0  0  0  0  0  0
    1.9489   -1.5002    0.0000 O   0  0  0  0  0  0  0  0  0  0  0  0
    3.2481    0.7504    0.0000 O   0  0  0  0  0  0  0  0  0  0  0  0
  2  1  2  0
  3  1  1  0
  4  2  1  0
  5  3  2  0
  6  4  2  0
  6  5  1  0
  7  5  1  0
  8  7  2  0
  9  6  1  0
 10  7  1  0
M  END
>  <NAME>  (5441) 
SALICYLAMIDE

>  <SYNONYMS>  (5441) 


>  <SPECTRUM TYPE>  (5441) 
MS1

>  <INSTRUMENT TYPE>  (5441) 
EI-B

>  <INSTRUMENT>  (5441) 
HITACHI RMU-6E

>  <ION MODE>  (5441) 
P

>  <INCHIKEY>  (5441) 
SKZKKFZAGNVIMN-UHFFFAOYSA-N

>  <FORMULA>  (5441) 
C7H7NO2

>  <EXACT MASS>  (5441) 
137.047678464

>  <MW>  (5441) 
137

>  <ID>  (5441) 
JP003536

>  <CONTRIBUTOR>  (5441) 
University of Tokyo Team, {Faculty of Engineering, University of Tokyo

>  <COMMENT>  (5441) 
SMILES=NC(=O)c(c1)c(O)ccc1
InChI=InChI=1S/C7H7NO2/c8-7(10)5-3-1-2-4-6(5)9/h1-4,9H,(H2,8,10)
computed SMILES=N=C(O)C=1C=CC=CC1O
accession=JP003536
date=2016.01.19 (Created 2008.10.21, modified 2011.05.06)
author=YAMAMOTO M, DEP. CHEMISTRY, FAC. SCIENCE, NARA WOMEN'S UNIV.
license=CC BY-NC-SA
exact mass=137.04768
ionization energy=70 eV
ion type=[M]+*
computed spectral entropy=2.454206179805001
computed normalized entropy=0.7215712304840237
SPLASH=splash10-00du-8900000000-701c75263149bd35390b
submitter=submitter = University of Tokyo Team (Faculty of Engineering, University of Tokyo)
MoNA Rating=3.75

>  <NUM PEAKS>  (5441) 
30

>  <MASS SPECTRAL PEAKS>  (5441) 
37 3.4
38 7.5
39 25.2
40 2.4
44 9.7
46 1.4
50 4
51 0.28
52 2.4
53 6.9
54.5 7.6
55 0.16
61 2.1
62 4.4
63 13.4
64 1.71
65 23.1
66 2.4
76 1.9
80 0.25
91 4.6
92 58.3
93 12.5
94 0.15
119 2.3
120 99.99
121 18.3
122 0.16
137 75
138 7.1

$$$$

     RDKit          2D

  4  4  0  0  0  0  0  0  0  0999 V2000
    1.4000    0.3800    0.0000 C   0  0  0  0  0  0  0  0  0  0  0  0
   -1.4000   -0.3700    0.0000 C   0  0  0  0  0  0  0  0  0  0  0  0
   -0.1000    0.3800    0.0000 C   0  0  0  0  0  0  0  0  0  0  0  0
   -1.4000    1.1300    0.0000 O   0  0  0  0  0  0  0  0  0  0  0  0
  3  1  1  0
  3  2  1  0
  4  2  1  0
  4  3  1  0
M  END
>  <NAME>  (5442) 
PROPYLENE OXIDE

>  <SYNONYMS>  (5442) 


>  <SPECTRUM TYPE>  (5442) 
MS1

>  <INSTRUMENT TYPE>  (5442) 
EI-B

>  <INSTRUMENT>  (5442) 
HITACHI M-68

>  <ION MODE>  (5442) 
P

>  <INCHIKEY>  (5442) 
GOOHAUXETOMSMM-UHFFFAOYSA-N

>  <FORMULA>  (5442) 
C3H6O

>  <EXACT MASS>  (5442) 
58.041864812

>  <MW>  (5442) 
58

>  <ID>  (5442) 
JP003535

>  <CONTRIBUTOR>  (5442) 
University of Tokyo Team, {Faculty of Engineering, University of Tokyo

>  <COMMENT>  (5442) 
SMILES=CC(C1)O1
InChI=InChI=1S/C3H6O/c1-3-2-4-3/h3H,2H2,1H3
computed SMILES=O1CC1C
accession=JP003535
date=2016.01.19 (Created 2008.10.21, modified 2011.05.06)
author=YAMAMOTO M, DEP. CHEMISTRY, FAC. SCIENCE, NARA WOMEN'S UNIV.
license=CC BY-NC-SA
exact mass=58.04186
ionization energy=70 eV
ion type=[M]+*
computed spectral entropy=2.051992792240111
computed normalized entropy=0.6969045060057664
SPLASH=splash10-002f-9000000000-3f05d968e40f8eacf7e2
submitter=submitter = University of Tokyo Team (Faculty of Engineering, University of Tokyo)
MoNA Rating=3.75

>  <NUM PEAKS>  (5442) 
19

>  <MASS SPECTRAL PEAKS>  (5442) 
14 10.6
15 21.7
16 2.6
18 1.6
26 5.2
27 10.1
28 49.5
29 0.44
32 13.4
37 2.7
38 3.1
39 0.47
40 1.5
41 2.8
42 8.3
43 99.99
44 3.1
58 22
59 1.2

$$$$

     RDKit          2D

  9  9  0  0  0  0  0  0  0  0999 V2000
    2.2733   -0.6175    0.0000 C   0  0  0  0  0  0  0  0  0  0  0  0
    2.2738    0.8833    0.0000 C   0  0  0  0  0  0  0  0  0  0  0  0
    0.9738   -1.3683    0.0000 C   0  0  0  0  0  0  0  0  0  0  0  0
    0.9748    1.6333    0.0000 C   0  0  0  0  0  0  0  0  0  0  0  0
   -0.3252   -0.6183    0.0000 C   0  0  0  0  0  0  0  0  0  0  0  0
   -0.3248    0.8825    0.0000 C   0  0  0  0  0  0  0  0  0  0  0  0
   -1.6238    1.6325    0.0000 C   0  0  0  0  0  0  0  0  0  0  0  0
   -1.6238    3.1325    0.0000 O   0  0  0  0  0  0  0  0  0  0  0  0
   -2.9228    0.8825    0.0000 O   0  0  0  0  0  0  0  0  0  0  0  0
  2  1  2  0
  3  1  1  0
  4  2  1  0
  5  3  2  0
  6  4  2  0
  6  5  1  0
  7  6  1  0
  8  7  2  0
  9  7  1  0
M  END
>  <NAME>  (5443) 
BENZOIC ACID

>  <SYNONYMS>  (5443) 


>  <SPECTRUM TYPE>  (5443) 
MS1

>  <INSTRUMENT TYPE>  (5443) 
EI-B

>  <INSTRUMENT>  (5443) 
HITACHI RMU-6E

>  <ION MODE>  (5443) 
P

>  <INCHIKEY>  (5443) 
WPYMKLBDIGXBTP-UHFFFAOYSA-N

>  <FORMULA>  (5443) 
C7H6O2

>  <EXACT MASS>  (5443) 
122.036779432

>  <MW>  (5443) 
122

>  <ID>  (5443) 
JP003534

>  <CONTRIBUTOR>  (5443) 
University of Tokyo Team, {Faculty of Engineering, University of Tokyo

>  <COMMENT>  (5443) 
SMILES=OC(=O)c(c1)cccc1
InChI=InChI=1S/C7H6O2/c8-7(9)6-4-2-1-3-5-6/h1-5H,(H,8,9)
computed SMILES=O=C(O)C=1C=CC=CC1
accession=JP003534
date=2016.01.19 (Created 2008.10.21, modified 2011.05.06)
author=YAMAMOTO M, DEP. CHEMISTRY, FAC. SCIENCE, NARA WOMEN'S UNIV.
license=CC BY-NC-SA
exact mass=122.03678
ionization energy=70 eV
ion type=[M]+*
computed spectral entropy=2.1945354181931447
computed normalized entropy=0.681770760225894
SPLASH=splash10-0a6r-9600000000-d08dbc757a6de6c3f54e
submitter=submitter = University of Tokyo Team (Faculty of Engineering, University of Tokyo)
MoNA Rating=3.75

>  <NUM PEAKS>  (5443) 
25

>  <MASS SPECTRAL PEAKS>  (5443) 
17 5.6
18 27.7
28 2.6
37 2.1
38 4.3
38.5 1.9
39 4.6
45 0.15
47 1.5
50 13.7
51 25.4
52 0.41
52.5 2.1
65 1.9
66 1.3
73 0.13
74 5.2
76 4.5
77 62.4
78 0.57
94 2.2
105 99.99
106 7.6
122 8.8
123 7.1

$$$$

     RDKit          2D

 14 15  0  0  0  0  0  0  0  0999 V2000
    2.5986    1.0700    0.0000 C   0  0  0  0  0  0  0  0  0  0  0  0
   -5.1957    1.0700    0.0000 C   0  0  0  0  0  0  0  0  0  0  0  0
    2.5990    2.5708    0.0000 C   0  0  0  0  0  0  0  0  0  0  0  0
    1.2990    0.3192    0.0000 C   0  0  0  0  0  0  0  0  0  0  0  0
   -3.8962    0.3192    0.0000 C   0  0  0  0  0  0  0  0  0  0  0  0
   -5.1962    2.5708    0.0000 C   0  0  0  0  0  0  0  0  0  0  0  0
    1.3000    3.3208    0.0000 C   0  0  0  0  0  0  0  0  0  0  0  0
    0.0000    1.0692    0.0000 C   0  0  0  0  0  0  0  0  0  0  0  0
   -2.5971    1.0692    0.0000 C   0  0  0  0  0  0  0  0  0  0  0  0
   -3.8971    3.3208    0.0000 C   0  0  0  0  0  0  0  0  0  0  0  0
    0.0005    2.5700    0.0000 C   0  0  0  0  0  0  0  0  0  0  0  0
   -2.5976    2.5700    0.0000 C   0  0  0  0  0  0  0  0  0  0  0  0
   -1.2986    3.3200    0.0000 C   0  0  0  0  0  0  0  0  0  0  0  0
   -1.2986    4.8200    0.0000 O   0  0  0  0  0  0  0  0  0  0  0  0
  3  1  2  0
  4  1  1  0
  5  2  2  0
  6  2  1  0
  7  3  1  0
  8  4  2  0
  9  5  1  0
 10  6  2  0
 11  7  2  0
 11  8  1  0
 12  9  2  0
 12 10  1  0
 13 11  1  0
 13 12  1  0
 14 13  2  0
M  END
>  <NAME>  (5444) 
BENZOPHENONE

>  <SYNONYMS>  (5444) 


>  <SPECTRUM TYPE>  (5444) 
MS1

>  <INSTRUMENT TYPE>  (5444) 
EI-B

>  <INSTRUMENT>  (5444) 
HITACHI RMU-6E

>  <ION MODE>  (5444) 
P

>  <INCHIKEY>  (5444) 
RWCCWEUUXYIKHB-UHFFFAOYSA-N

>  <FORMULA>  (5444) 
C13H10O

>  <EXACT MASS>  (5444) 
182.07316494

>  <MW>  (5444) 
182

>  <ID>  (5444) 
JP003533

>  <CONTRIBUTOR>  (5444) 
University of Tokyo Team, {Faculty of Engineering, University of Tokyo

>  <COMMENT>  (5444) 
SMILES=c(c2)ccc(c2)C(=O)c(c1)cccc1
InChI=InChI=1S/C13H10O/c14-13(11-7-3-1-4-8-11)12-9-5-2-6-10-12/h1-10H
computed SMILES=O=C(C=1C=CC=CC1)C=2C=CC=CC2
accession=JP003533
date=2016.01.19 (Created 2008.10.21, modified 2011.05.06)
author=YAMAMOTO M, DEP. CHEMISTRY, FAC. SCIENCE, NARA WOMEN'S UNIV.
license=CC BY-NC-SA
exact mass=182.07316
ionization energy=70 eV
ion type=[M]+*
computed spectral entropy=1.6854695266313318
computed normalized entropy=0.5948967910119687
SPLASH=splash10-0a4i-3900000000-23d78741cacbe9443a57
submitter=submitter = University of Tokyo Team (Faculty of Engineering, University of Tokyo)
MoNA Rating=3.75

>  <NUM PEAKS>  (5444) 
17

>  <MASS SPECTRAL PEAKS>  (5444) 
17 1
18 4
50 4.5
51 17.5
74 1.6
75 1.5
76 4.1
77 5.4
78 3.2
105 99.99
106 7.7
152 0.23
153 1.5
154 1.5
181 5.6
182 4.6
183 6.4

$$$$

     RDKit          2D

 15 16  0  0  0  0  0  0  0  0999 V2000
   -4.8981    0.8561    0.0000 C   0  0  0  0  0  0  0  0  0  0  0  0
   -4.8981   -0.6361    0.0000 C   0  0  0  0  0  0  0  0  0  0  0  0
    1.5800    1.6200    0.0000 C   0  0  0  0  0  0  0  0  0  0  0  0
    2.9000    0.8900    0.0000 C   0  0  0  0  0  0  0  0  0  0  0  0
   -1.0100    1.6100    0.0000 C   0  0  0  0  0  0  0  0  0  0  0  0
   -1.0100   -1.3900    0.0000 C   0  0  0  0  0  0  0  0  0  0  0  0
    0.3000    0.8600    0.0000 C   0  0  0  0  0  0  0  0  0  0  0  0
    0.3000   -0.6400    0.0000 C   0  0  0  0  0  0  0  0  0  0  0  0
   -2.3000    0.8600    0.0000 C   0  0  0  0  0  0  0  0  0  0  0  0
   -2.3000   -0.6400    0.0000 C   0  0  0  0  0  0  0  0  0  0  0  0
    2.9000   -0.6300    0.0000 C   0  0  0  0  0  0  0  0  0  0  0  0
    4.2023   -1.3743    0.0000 O   0  0  0  0  0  0  0  0  0  0  0  0
   -3.6002    1.6080    0.0000 O   0  0  0  0  0  0  0  0  0  0  0  0
   -3.6002   -1.3880    0.0000 O   0  0  0  0  0  0  0  0  0  0  0  0
    1.6100   -1.3900    0.0000 O   0  0  0  0  0  0  0  0  0  0  0  0
  4  3  2  0
  7  3  1  0
  7  5  2  0
  8  6  2  0
  8  7  1  0
  9  5  1  0
 10  6  1  0
 10  9  2  0
 11  4  1  0
 12 11  2  0
 13  1  1  0
 13  9  1  0
 14  2  1  0
 14 10  1  0
 15  8  1  0
 15 11  1  0
M  END
>  <NAME>  (5445) 
6,7-DIMETHOXYCOUMARIN

>  <SYNONYMS>  (5445) 


>  <SPECTRUM TYPE>  (5445) 
MS1

>  <INSTRUMENT TYPE>  (5445) 
EI-B

>  <INSTRUMENT>  (5445) 
HITACHI RMU-6E

>  <ION MODE>  (5445) 
P

>  <INCHIKEY>  (5445) 
GUAFOGOEJLSQBT-UHFFFAOYSA-N

>  <FORMULA>  (5445) 
C11H10O4

>  <EXACT MASS>  (5445) 
206.0579088

>  <MW>  (5445) 
206

>  <ID>  (5445) 
JP003532

>  <CONTRIBUTOR>  (5445) 
University of Tokyo Team, {Faculty of Engineering, University of Tokyo

>  <COMMENT>  (5445) 
SMILES=COc(c1)c(OC)cc(O2)c(C=CC(=O)2)1
InChI=InChI=1S/C11H10O4/c1-13-9-5-7-3-4-11(12)15-8(7)6-10(9)14-2/h3-6H,1-2H3
computed SMILES=O=C1OC=2C=C(OC)C(OC)=CC2C=C1
accession=JP003532
date=2016.01.19 (Created 2008.10.21, modified 2011.05.06)
author=YAMAMOTO M, DEP. CHEMISTRY, FAC. SCIENCE, NARA WOMEN'S UNIV.
license=CC BY-NC-SA
exact mass=206.05791
ionization energy=70 eV
ion type=[M]+*
computed spectral entropy=2.8520291592955
computed normalized entropy=0.7253702034897603
SPLASH=splash10-0a4i-7980000000-bac19c33733285c01d2e
submitter=submitter = University of Tokyo Team (Faculty of Engineering, University of Tokyo)
MoNA Rating=3.75

>  <NUM PEAKS>  (5445) 
51

>  <MASS SPECTRAL PEAKS>  (5445) 
15 3.5
38 3
39 2.1
43 1.4
50 6
51 12
52 1.4
53 0.42
55 3
57 1.6
59 3.2
62 0.22
63 5.2
64 3.1
65 2.3
66 0.17
69 13.4
74 2.1
75 2
76 0.43
77 5.5
79 14.9
89 4
91 0.19
92 7.7
95 1.5
103 2.7
105 0.27
107 14.2
108 1.3
117 2.5
119 0.26
120 7.6
121 2
133 2.2
135 1.58
136 1.4
145 3.7
148 3.9
149 0.39
162 1.1
163 27.2
164 2.6
178 1.53
179 1.5
190 1.6
191 45.7
192 0.59
206 99.99
207 13.3
208 1.6

$$$$

     RDKit          2D

 20 21  0  0  0  0  0  0  0  0999 V2000
   -2.6106    2.2468    0.0000 C   0  0  0  0  0  0  0  0  0  0  0  0
   -6.5039   -0.0097    0.0000 C   0  0  0  0  0  0  0  0  0  0  0  0
    6.4867   -1.5010    0.0000 C   0  0  0  0  0  0  0  0  0  0  0  0
    6.4874   -0.0002    0.0000 C   0  0  0  0  0  0  0  0  0  0  0  0
    5.1871   -2.2516    0.0000 C   0  0  0  0  0  0  0  0  0  0  0  0
   -0.0042   -2.2432    0.0000 C   0  0  0  0  0  0  0  0  0  0  0  0
    5.1885    0.7500    0.0000 C   0  0  0  0  0  0  0  0  0  0  0  0
    3.8881   -1.5014    0.0000 C   0  0  0  0  0  0  0  0  0  0  0  0
   -1.3033   -1.4932    0.0000 C   0  0  0  0  0  0  0  0  0  0  0  0
    1.2903   -1.5010    0.0000 C   0  0  0  0  0  0  0  0  0  0  0  0
   -0.0083    0.7498    0.0000 C   0  0  0  0  0  0  0  0  0  0  0  0
   -2.6081    0.7468    0.0000 C   0  0  0  0  0  0  0  0  0  0  0  0
    3.8889   -0.0006    0.0000 C   0  0  0  0  0  0  0  0  0  0  0  0
   -1.3078   -0.0010    0.0000 C   0  0  0  0  0  0  0  0  0  0  0  0
    1.2908   -0.0002    0.0000 C   0  0  0  0  0  0  0  0  0  0  0  0
    2.5899    0.7496    0.0000 C   0  0  0  0  0  0  0  0  0  0  0  0
   -3.9058   -0.0054    0.0000 C   0  0  0  0  0  0  0  0  0  0  0  0
    2.5902    2.2496    0.0000 O   0  0  0  0  0  0  0  0  0  0  0  0
   -3.9033   -1.5054    0.0000 O   0  0  0  0  0  0  0  0  0  0  0  0
   -5.2061    0.7425    0.0000 O   0  0  0  0  0  0  0  0  0  0  0  0
  4  3  2  0
  5  3  1  0
  7  4  1  0
  8  5  2  0
  9  6  2  0
 10  6  1  0
 12  1  1  0
 13  7  2  0
 13  8  1  0
 14  9  1  0
 14 11  2  0
 14 12  1  0
 15 10  2  0
 15 11  1  0
 16 13  1  0
 16 15  1  0
 17 12  1  0
 18 16  2  0
 19 17  2  0
 20  2  1  0
 20 17  1  0
M  END
>  <NAME>  (5446) 
METHYL 2-(3-BENZOYLPHENYL)PROPIONATE

>  <SYNONYMS>  (5446) 


>  <SPECTRUM TYPE>  (5446) 
MS1

>  <INSTRUMENT TYPE>  (5446) 
EI-B

>  <INSTRUMENT>  (5446) 
HITACHI RMU-6E

>  <ION MODE>  (5446) 
P

>  <INCHIKEY>  (5446) 
BIOCOYIPJQMGTN-UHFFFAOYSA-N

>  <FORMULA>  (5446) 
C17H16O3

>  <EXACT MASS>  (5446) 
268.109944372

>  <MW>  (5446) 
268

>  <ID>  (5446) 
JP003531

>  <CONTRIBUTOR>  (5446) 
University of Tokyo Team, {Faculty of Engineering, University of Tokyo

>  <COMMENT>  (5446) 
SMILES=COC(=O)C(C)c(c2)cc(cc2)C(=O)c(c1)cccc1
InChI=InChI=1S/C17H16O3/c1-12(17(19)20-2)14-9-6-10-15(11-14)16(18)13-7-4-3-5-8-13/h3-12H,1-2H3
computed SMILES=O=C(OC)C(C=1C=CC=C(C1)C(=O)C=2C=CC=CC2)C
accession=JP003531
date=2016.01.19 (Created 2008.10.21, modified 2011.05.06)
author=YAMAMOTO M, DEP. CHEMISTRY, FAC. SCIENCE, NARA WOMEN'S UNIV.
license=CC BY-NC-SA
exact mass=268.10994
ionization energy=70 eV
ion type=[M]+*
computed spectral entropy=2.8463969847049357
computed normalized entropy=0.7313793460830615
SPLASH=splash10-0pdi-9670000000-cc76fd5064087c5712db
submitter=submitter = University of Tokyo Team (Faculty of Engineering, University of Tokyo)
MoNA Rating=3.75

>  <NUM PEAKS>  (5446) 
49

>  <MASS SPECTRAL PEAKS>  (5446) 
39 4.6
41 2.8
43 13.9
44 2
50 3.9
51 16.1
52 3.5
53 0.25
55 3
56 1.6
57 3.1
58 0.31
59 4.9
63 3.7
65 1.9
69 0.23
75 2.3
76 5.1
77 85
78 1.27
79 2
80 2.5
89 2.1
91 0.26
102 2.9
103 23.3
104 11.4
105 9.85
106 7.7
131 7.4
152 2.1
163 0.18
165 3.8
166 1.8
167 1.3
176 0.17
178 1.9
181 5.7
191 26.1
192 0.37
194 5.2
207 1.5
208 4.9
209 99.99
210 17.7
211 2
236 2.3
268 3.5
269 6.7

$$$$

     RDKit          2D

 14 15  0  0  0  0  0  0  0  0999 V2000
   -2.7200   -1.0200    0.0000 C   0  0  0  0  0  0  0  0  0  0  0  0
   -2.7200    0.4800    0.0000 C   0  0  0  0  0  0  0  0  0  0  0  0
    2.4800   -1.0200    0.0000 C   0  0  0  0  0  0  0  0  0  0  0  0
   -1.4200   -1.7700    0.0000 C   0  0  0  0  0  0  0  0  0  0  0  0
    1.1800   -1.7700    0.0000 C   0  0  0  0  0  0  0  0  0  0  0  0
    2.4800    0.4800    0.0000 C   0  0  0  0  0  0  0  0  0  0  0  0
   -1.4200    1.2300    0.0000 C   0  0  0  0  0  0  0  0  0  0  0  0
    1.1800    2.7300    0.0000 C   0  0  0  0  0  0  0  0  0  0  0  0
   -0.1200   -1.0200    0.0000 C   0  0  0  0  0  0  0  0  0  0  0  0
    1.1800    1.2300    0.0000 C   0  0  0  0  0  0  0  0  0  0  0  0
   -0.1200    0.4800    0.0000 C   0  0  0  0  0  0  0  0  0  0  0  0
    2.4790    3.4800    0.0000 C   0  0  0  0  0  0  0  0  0  0  0  0
    3.7781    2.7300    0.0000 O   0  0  0  0  0  0  0  0  0  0  0  0
    2.4790    4.9800    0.0000 O   0  0  0  0  0  0  0  0  0  0  0  0
  2  1  2  0
  4  1  1  0
  5  3  2  0
  6  3  1  0
  7  2  1  0
  9  4  2  0
  9  5  1  0
 10  6  2  0
 10  8  1  0
 11  7  2  0
 11  9  1  0
 11 10  1  0
 12  8  1  0
 13 12  2  0
 14 12  1  0
M  END
>  <NAME>  (5447) 
ALPHA-NAPHTHYLACETIC ACID

>  <SYNONYMS>  (5447) 


>  <SPECTRUM TYPE>  (5447) 
MS1

>  <INSTRUMENT TYPE>  (5447) 
EI-B

>  <INSTRUMENT>  (5447) 
HITACHI RMU-6E

>  <ION MODE>  (5447) 
P

>  <INCHIKEY>  (5447) 
PRPINYUDVPFIRX-UHFFFAOYSA-N

>  <FORMULA>  (5447) 
C12H10O2

>  <EXACT MASS>  (5447) 
186.06807956

>  <MW>  (5447) 
186

>  <ID>  (5447) 
JP003530

>  <CONTRIBUTOR>  (5447) 
University of Tokyo Team, {Faculty of Engineering, University of Tokyo

>  <COMMENT>  (5447) 
SMILES=OC(=O)Cc(c1)c(c2)c(ccc2)cc1
InChI=InChI=1S/C12H10O2/c13-12(14)8-10-6-3-5-9-4-1-2-7-11(9)10/h1-7H,8H2,(H,13,14)
computed SMILES=O=C(O)CC1=CC=CC=2C=CC=CC21
accession=JP003530
date=2016.01.19 (Created 2008.10.21, modified 2011.05.06)
author=YAMAMOTO M, DEP. CHEMISTRY, FAC. SCIENCE, NARA WOMEN'S UNIV.
license=CC BY-NC-SA
exact mass=186.06808
ionization energy=70 eV
ion type=[M]+*
computed spectral entropy=1.7126396717464534
computed normalized entropy=0.5925326619552375
SPLASH=splash10-0006-0900000000-217de62c6bdb645dae35
submitter=submitter = University of Tokyo Team (Faculty of Engineering, University of Tokyo)
MoNA Rating=3.75

>  <NUM PEAKS>  (5447) 
18

>  <MASS SPECTRAL PEAKS>  (5447) 
39 2.2
51 2
57.5 5.4
63 3.1
69.5 2.4
70 1.4
70.5 3.4
89 0.2
115 15.2
116 1.6
128 1.2
139 0.64
140 2.1
141 99.99
142 14.6
143 0.12
186 41
187 5.6

$$$$

     RDKit          2D

 15 16  0  0  0  0  0  0  0  0999 V2000
   -6.5044    0.7424    0.0000 C   0  0  0  0  0  0  0  0  0  0  0  0
   -5.2054   -0.0078    0.0000 C   0  0  0  0  0  0  0  0  0  0  0  0
    3.8881    2.2511    0.0000 C   0  0  0  0  0  0  0  0  0  0  0  0
    3.8903    0.7511    0.0000 C   0  0  0  0  0  0  0  0  0  0  0  0
    2.5869    2.9991    0.0000 C   0  0  0  0  0  0  0  0  0  0  0  0
   -2.6113    2.9850    0.0000 C   0  0  0  0  0  0  0  0  0  0  0  0
   -3.9058    2.2428    0.0000 C   0  0  0  0  0  0  0  0  0  0  0  0
    2.5915   -0.0009    0.0000 C   0  0  0  0  0  0  0  0  0  0  0  0
    1.2881    2.2472    0.0000 C   0  0  0  0  0  0  0  0  0  0  0  0
   -1.3122    2.2350    0.0000 C   0  0  0  0  0  0  0  0  0  0  0  0
   -2.6072   -0.0080    0.0000 C   0  0  0  0  0  0  0  0  0  0  0  0
   -3.9063    0.7420    0.0000 C   0  0  0  0  0  0  0  0  0  0  0  0
    1.2903    0.7472    0.0000 C   0  0  0  0  0  0  0  0  0  0  0  0
   -1.3077    0.7428    0.0000 C   0  0  0  0  0  0  0  0  0  0  0  0
   -0.0074   -0.0050    0.0000 O   0  0  0  0  0  0  0  0  0  0  0  0
  2  1  1  0
  4  3  2  0
  5  3  1  0
  7  6  2  0
  8  4  1  0
  9  5  2  0
 10  6  1  0
 12  2  1  0
 12  7  1  0
 12 11  2  0
 13  8  2  0
 13  9  1  0
 14 10  2  0
 14 11  1  0
 15 13  1  0
 15 14  1  0
M  END
>  <NAME>  (5448) 
1-ETHYL-3-PHENOXYBENZENE

>  <SYNONYMS>  (5448) 


>  <SPECTRUM TYPE>  (5448) 
MS1

>  <INSTRUMENT TYPE>  (5448) 
EI-B

>  <INSTRUMENT>  (5448) 
HITACHI RMU-6E

>  <ION MODE>  (5448) 
P

>  <INCHIKEY>  (5448) 
OOOMPLNDUPMWLO-UHFFFAOYSA-N

>  <FORMULA>  (5448) 
C14H14O

>  <EXACT MASS>  (5448) 
198.104465068

>  <MW>  (5448) 
198

>  <ID>  (5448) 
JP003529

>  <CONTRIBUTOR>  (5448) 
University of Tokyo Team, {Faculty of Engineering, University of Tokyo

>  <COMMENT>  (5448) 
SMILES=CCc(c2)cc(cc2)Oc(c1)cccc1
InChI=InChI=1S/C14H14O/c1-2-12-7-6-10-14(11-12)15-13-8-4-3-5-9-13/h3-11H,2H2,1H3
computed SMILES=O(C=1C=CC=CC1)C2=CC=CC(=C2)CC
accession=JP003529
date=2016.01.19 (Created 2008.10.21, modified 2011.05.06)
author=YAMAMOTO M, DEP. CHEMISTRY, FAC. SCIENCE, NARA WOMEN'S UNIV.
license=CC BY-NC-SA
exact mass=198.10447
ionization energy=70 eV
ion type=[M]+*
computed spectral entropy=2.980421855629945
computed normalized entropy=0.7437419645097582
SPLASH=splash10-0002-4900000000-5e6dafb9b3fc0da22d55
submitter=submitter = University of Tokyo Team (Faculty of Engineering, University of Tokyo)
MoNA Rating=3.75

>  <NUM PEAKS>  (5448) 
55

>  <MASS SPECTRAL PEAKS>  (5448) 
32 4.9
39 10
41 2
50 4
51 18.6
52 2.4
53 3.1
55 0.21
63 5
64 2.9
65 6.4
75 0.17
76 4.7
76.5 1.4
77 28
78 0.52
79 5.9
89 4
90 2.2
90.5 1.14
91 11.6
91.5 2.3
92 5.4
94 0.17
102 1.5
103 5.9
104 4.1
105 1.43
106 1.3
107 2
115 4.4
120 0.18
127 1.5
128 2.7
129 2.3
139 0.13
141 3.9
142 1.4
152 1.8
153 0.31
154 2.1
155 7.7
156 1.3
165 0.44
168 5.3
169 6.3
170 3.8
181 0.33
182 2.2
183 45.4
184 6.2
197 0.2
198 99.99
199 15.4
200 1.5

$$$$

     RDKit          2D

 13 13  0  0  0  0  0  0  0  0999 V2000
    3.2478    1.4446    0.0000 C   0  0  0  0  0  0  0  0  0  0  0  0
    3.2483    2.9454    0.0000 C   0  0  0  0  0  0  0  0  0  0  0  0
    1.9483    0.6938    0.0000 C   0  0  0  0  0  0  0  0  0  0  0  0
    1.9493    3.6954    0.0000 C   0  0  0  0  0  0  0  0  0  0  0  0
    0.6493    1.4438    0.0000 C   0  0  0  0  0  0  0  0  0  0  0  0
   -3.2474    3.6946    0.0000 C   0  0  0  0  0  0  0  0  0  0  0  0
    0.6498    2.9446    0.0000 C   0  0  0  0  0  0  0  0  0  0  0  0
   -4.5464    2.9446    0.0000 C   0  0  0  0  0  0  0  0  0  0  0  0
   -0.6493    3.6946    0.0000 C   0  0  0  0  0  0  0  0  0  0  0  0
   -1.9483    2.9446    0.0000 N   0  0  0  0  0  0  0  0  0  0  0  0
   -4.5464    1.4446    0.0000 O   0  0  0  0  0  0  0  0  0  0  0  0
   -5.8454    3.6946    0.0000 O   0  0  0  0  0  0  0  0  0  0  0  0
   -0.6493    5.1946    0.0000 O   0  0  0  0  0  0  0  0  0  0  0  0
  2  1  2  0
  3  1  1  0
  4  2  1  0
  5  3  2  0
  7  4  2  0
  7  5  1  0
  8  6  1  0
  9  7  1  0
 10  6  1  0
 10  9  2  3
 11  8  2  0
 12  8  1  0
 13  9  1  0
M  END
>  <NAME>  (5449) 
HIPPURIC ACID

>  <SYNONYMS>  (5449) 


>  <SPECTRUM TYPE>  (5449) 
MS1

>  <INSTRUMENT TYPE>  (5449) 
EI-B

>  <INSTRUMENT>  (5449) 
HITACHI RMU-6E

>  <ION MODE>  (5449) 
P

>  <INCHIKEY>  (5449) 
QIAFMBKCNZACKA-UHFFFAOYSA-N

>  <FORMULA>  (5449) 
C9H9NO3

>  <EXACT MASS>  (5449) 
179.05824314799997

>  <MW>  (5449) 
179

>  <ID>  (5449) 
JP003528

>  <CONTRIBUTOR>  (5449) 
University of Tokyo Team, {Faculty of Engineering, University of Tokyo

>  <COMMENT>  (5449) 
SMILES=OC(=O)CNC(=O)c(c1)cccc1
InChI=InChI=1S/C9H9NO3/c11-8(12)6-10-9(13)7-4-2-1-3-5-7/h1-5H,6H2,(H,10,13)(H,11,12)
computed SMILES=O=C(O)CN=C(O)C=1C=CC=CC1
accession=JP003528
date=2016.01.19 (Created 2008.10.21, modified 2011.05.06)
author=YAMAMOTO M, DEP. CHEMISTRY, FAC. SCIENCE, NARA WOMEN'S UNIV.
license=CC BY-NC-SA
exact mass=179.05824
ionization energy=70 eV
ion type=[M]+*
computed spectral entropy=1.886276736395617
computed normalized entropy=0.6526069635307379
SPLASH=splash10-0a6r-6900000000-9bebc859a11a987fc2d4
submitter=submitter = University of Tokyo Team (Faculty of Engineering, University of Tokyo)
MoNA Rating=3.75

>  <NUM PEAKS>  (5449) 
18

>  <MASS SPECTRAL PEAKS>  (5449) 
30 2.7
39 3.7
45 1.6
50 12.6
52 3.3
56 1.9
74 3.6
75 0.33
76 5.3
77 76.4
78 6.8
105 99.99
106 7.9
134 15
135 28.7
136 0.26
161 1.2
179 2

$$$$

     RDKit          2D

 12 12  0  0  0  0  0  0  0  0999 V2000
   -3.9015    3.0051    0.0000 C   0  0  0  0  0  0  0  0  0  0  0  0
    2.5937    3.7296    0.0000 C   0  0  0  0  0  0  0  0  0  0  0  0
    1.2801    1.5047    0.0000 C   0  0  0  0  0  0  0  0  0  0  0  0
    3.8782    3.0047    0.0000 C   0  0  0  0  0  0  0  0  0  0  0  0
    2.6046    0.7106    0.0000 C   0  0  0  0  0  0  0  0  0  0  0  0
   -0.0007    3.7360    0.0000 C   0  0  0  0  0  0  0  0  0  0  0  0
    1.2946    2.9796    0.0000 C   0  0  0  0  0  0  0  0  0  0  0  0
    3.9037    1.4606    0.0000 C   0  0  0  0  0  0  0  0  0  0  0  0
   -1.3034    2.9924    0.0000 C   0  0  0  0  0  0  0  0  0  0  0  0
    5.2088    0.7213    0.0000 O   0  0  0  0  0  0  0  0  0  0  0  0
   -1.3108    1.4924    0.0000 O   0  0  0  0  0  0  0  0  0  0  0  0
   -2.5987    3.7487    0.0000 O   0  0  0  0  0  0  0  0  0  0  0  0
  4  2  2  0
  5  3  1  0
  7  2  1  0
  7  3  2  0
  7  6  1  0
  8  4  1  0
  8  5  2  0
  9  6  1  0
 10  8  1  0
 11  9  2  0
 12  1  1  0
 12  9  1  0
M  END
>  <NAME>  (5450) 
METHYL 4-HYDROXYPHENYLACETATE

>  <SYNONYMS>  (5450) 


>  <SPECTRUM TYPE>  (5450) 
MS1

>  <INSTRUMENT TYPE>  (5450) 
EI-B

>  <INSTRUMENT>  (5450) 
HITACHI M-68

>  <ION MODE>  (5450) 
P

>  <INCHIKEY>  (5450) 
XGDZEDRBLVIUMX-UHFFFAOYSA-N

>  <FORMULA>  (5450) 
C9H10O3

>  <EXACT MASS>  (5450) 
166.06299417999998

>  <MW>  (5450) 
166

>  <ID>  (5450) 
JP003527

>  <CONTRIBUTOR>  (5450) 
University of Tokyo Team, {Faculty of Engineering, University of Tokyo

>  <COMMENT>  (5450) 
SMILES=COC(=O)Cc(c1)ccc(O)c1
InChI=InChI=1S/C9H10O3/c1-12-9(11)6-7-2-4-8(10)5-3-7/h2-5,10H,6H2,1H3
computed SMILES=O=C(OC)CC1=CC=C(O)C=C1
accession=JP003527
date=2016.01.19 (Created 2008.10.21, modified 2011.05.06)
author=YAMAMOTO M, DEP. CHEMISTRY, FAC. SCIENCE, NARA WOMEN'S UNIV.
license=CC BY-NC-SA
exact mass=166.06299
ionization energy=70 eV
ion type=[M]+*
computed spectral entropy=0.8328834672409289
computed normalized entropy=0.5174995946139251
SPLASH=splash10-0a4i-0900000000-bc7b4d3d5b7a5f417761
submitter=submitter = University of Tokyo Team (Faculty of Engineering, University of Tokyo)
MoNA Rating=3.75

>  <NUM PEAKS>  (5450) 
5

>  <MASS SPECTRAL PEAKS>  (5450) 
53 1.3
78 4
107 99.99
108 7.4
166 23

$$$$

     RDKit          2D

  9  9  0  0  0  0  0  0  0  0999 V2000
    3.5681    0.1904    0.0000 C   0  0  0  0  0  0  0  0  0  0  0  0
   -1.6200   -1.3100    0.0000 C   0  0  0  0  0  0  0  0  0  0  0  0
   -0.3300   -2.0600    0.0000 C   0  0  0  0  0  0  0  0  0  0  0  0
   -1.6200    0.1900    0.0000 C   0  0  0  0  0  0  0  0  0  0  0  0
    0.9700   -1.3100    0.0000 C   0  0  0  0  0  0  0  0  0  0  0  0
   -0.3300    0.9400    0.0000 C   0  0  0  0  0  0  0  0  0  0  0  0
    0.9700    0.1900    0.0000 C   0  0  0  0  0  0  0  0  0  0  0  0
   -0.3325    2.4400    0.0000 O   0  0  0  0  0  0  0  0  0  0  0  0
    2.2689    0.9402    0.0000 O   0  0  0  0  0  0  0  0  0  0  0  0
  3  2  2  0
  4  2  1  0
  5  3  1  0
  6  4  2  0
  7  5  2  0
  7  6  1  0
  8  6  1  0
  9  1  1  0
  9  7  1  0
M  END
>  <NAME>  (5451) 
O-METHOXYPHENOL

>  <SYNONYMS>  (5451) 


>  <SPECTRUM TYPE>  (5451) 
MS1

>  <INSTRUMENT TYPE>  (5451) 
EI-B

>  <INSTRUMENT>  (5451) 
HITACHI RMU-6E

>  <ION MODE>  (5451) 
P

>  <INCHIKEY>  (5451) 
LHGVFZTZFXWLCP-UHFFFAOYSA-N

>  <FORMULA>  (5451) 
C7H8O2

>  <EXACT MASS>  (5451) 
124.052429496

>  <MW>  (5451) 
124

>  <ID>  (5451) 
JP003526

>  <CONTRIBUTOR>  (5451) 
University of Tokyo Team, {Faculty of Engineering, University of Tokyo

>  <COMMENT>  (5451) 
SMILES=COc(c1)c(O)ccc1
InChI=InChI=1S/C7H8O2/c1-9-7-5-3-2-4-6(7)8/h2-5,8H,1H3
computed SMILES=OC=1C=CC=CC1OC
accession=JP003526
date=2016.01.19 (Created 2008.10.21, modified 2011.05.06)
author=YAMAMOTO M, DEP. CHEMISTRY, FAC. SCIENCE, NARA WOMEN'S UNIV.
license=CC BY-NC-SA
exact mass=124.05243
ionization energy=70 eV
ion type=[M]+*
computed spectral entropy=1.9629363561517712
computed normalized entropy=0.6447435997941207
SPLASH=splash10-0a4i-6900000000-49cb804087a42b1d1a22
submitter=submitter = University of Tokyo Team (Faculty of Engineering, University of Tokyo)
MoNA Rating=3.75

>  <NUM PEAKS>  (5451) 
21

>  <MASS SPECTRAL PEAKS>  (5451) 
38 2
39 5.9
50 3.7
51 5.3
52 6.3
53 10.8
55 2.3
62 0.18
63 3.9
64 1.7
65 4.9
77 0.28
80 1.7
81 43.3
82 2.5
95 0.21
109 99.99
110 6.8
121 1.4
124 9
125 7.3

$$$$

     RDKit          2D

 15 17  0  0  0  0  0  0  0  0999 V2000
    7.1000   -0.0000    0.0000 C   0  0  0  0  0  0  0  0  0  0  0  0
    6.3500    1.3000    0.0000 C   0  0  0  0  0  0  0  0  0  0  0  0
    6.3500   -1.3000    0.0000 C   0  0  0  0  0  0  0  0  0  0  0  0
   -2.3100    0.7500    0.0000 C   0  0  0  0  0  0  0  0  0  0  0  0
   -2.3100   -0.7500    0.0000 C   0  0  0  0  0  0  0  0  0  0  0  0
    4.8500    1.3000    0.0000 C   0  0  0  0  0  0  0  0  0  0  0  0
    4.8500   -1.3000    0.0000 C   0  0  0  0  0  0  0  0  0  0  0  0
   -1.0100    1.5000    0.0000 C   0  0  0  0  0  0  0  0  0  0  0  0
   -1.0100   -1.5000    0.0000 C   0  0  0  0  0  0  0  0  0  0  0  0
    1.7200    1.2100    0.0000 C   0  0  0  0  0  0  0  0  0  0  0  0
    4.1000   -0.0000    0.0000 C   0  0  0  0  0  0  0  0  0  0  0  0
    0.2900    0.7500    0.0000 C   0  0  0  0  0  0  0  0  0  0  0  0
    0.2900   -0.7500    0.0000 C   0  0  0  0  0  0  0  0  0  0  0  0
    2.6000    0.0000    0.0000 C   0  0  0  0  0  0  0  0  0  0  0  0
    1.7200   -1.2100    0.0000 N   0  0  0  0  0  0  0  0  0  0  0  0
  2  1  2  0
  3  1  1  0
  5  4  2  0
  6  2  1  0
  7  3  2  0
  8  4  1  0
  9  5  1  0
 11  6  2  0
 11  7  1  0
 12  8  2  0
 12 10  1  0
 13  9  2  0
 13 12  1  0
 14 10  2  0
 14 11  1  0
 15 13  1  0
 15 14  1  0
M  END
>  <NAME>  (5452) 
2-PHENYLINDOLE

>  <SYNONYMS>  (5452) 


>  <SPECTRUM TYPE>  (5452) 
MS1

>  <INSTRUMENT TYPE>  (5452) 
EI-B

>  <INSTRUMENT>  (5452) 
HITACHI M-68

>  <ION MODE>  (5452) 
P

>  <INCHIKEY>  (5452) 
KLLLJCACIRKBDT-UHFFFAOYSA-N

>  <FORMULA>  (5452) 
C14H11N

>  <EXACT MASS>  (5452) 
193.089149352

>  <MW>  (5452) 
193

>  <ID>  (5452) 
JP003525

>  <CONTRIBUTOR>  (5452) 
University of Tokyo Team, {Faculty of Engineering, University of Tokyo

>  <COMMENT>  (5452) 
SMILES=C1=CC=C(C=C1)C2=CC3=CC=CC=C3N2
InChI=InChI=1S/C14H11N/c1-2-6-11(7-3-1)14-10-12-8-4-5-9-13(12)15-14/h1-10,15H
computed SMILES=C=1C=CC(=CC1)C2=CC=3C=CC=CC3N2
accession=JP003525
date=2016.01.19 (Created 2008.10.21, modified 2011.05.06)
author=YAMAMOTO M, DEP. CHEMISTRY, FAC. SCIENCE, NARA WOMEN'S UNIV.
license=CC BY-NC-SA
exact mass=193.08915
ionization energy=70 eV
ion type=[M]+*
computed spectral entropy=2.0221054508095926
computed normalized entropy=0.5834563012075082
SPLASH=splash10-0006-2900000000-1e83751389665f47d7d7
submitter=submitter = University of Tokyo Team (Faculty of Engineering, University of Tokyo)
MoNA Rating=3.75

>  <NUM PEAKS>  (5452) 
32

>  <MASS SPECTRAL PEAKS>  (5452) 
50 1.6
51 2.5
52 1.2
62 1.9
64 1.2
74 1.4
75 1.4
76 0.12
77 2.1
83 1.5
84 2.5
88 0.11
89 7.1
90 6.2
91 1.1
95.5 0.28
96.5 6.1
114 1
115 1.8
139 0.24
140 1.3
163 2.2
164 2.8
165 1.68
166 3.2
167 1
190 3.5
191 0.51
192 8.8
193 99.99
194 14.3
195 1

$$$$

     RDKit          2D

  9 10  0  0  0  0  0  0  0  0999 V2000
   -2.3100    0.7500    0.0000 C   0  0  0  0  0  0  0  0  0  0  0  0
   -2.3100   -0.7500    0.0000 C   0  0  0  0  0  0  0  0  0  0  0  0
   -1.0100    1.5000    0.0000 C   0  0  0  0  0  0  0  0  0  0  0  0
   -1.0100   -1.5000    0.0000 C   0  0  0  0  0  0  0  0  0  0  0  0
    1.7200    1.2100    0.0000 C   0  0  0  0  0  0  0  0  0  0  0  0
    2.6000   -0.0000    0.0000 C   0  0  0  0  0  0  0  0  0  0  0  0
    0.2900    0.7500    0.0000 C   0  0  0  0  0  0  0  0  0  0  0  0
    0.2900   -0.7500    0.0000 C   0  0  0  0  0  0  0  0  0  0  0  0
    1.7200   -1.2100    0.0000 N   0  0  0  0  0  0  0  0  0  0  0  0
  2  1  2  0
  3  1  1  0
  4  2  1  0
  6  5  2  0
  7  3  2  0
  7  5  1  0
  8  4  2  0
  8  7  1  0
  9  6  1  0
  9  8  1  0
M  END
>  <NAME>  (5453) 
INDOLE

>  <SYNONYMS>  (5453) 


>  <SPECTRUM TYPE>  (5453) 
MS1

>  <INSTRUMENT TYPE>  (5453) 
EI-B

>  <INSTRUMENT>  (5453) 
HITACHI M-68

>  <ION MODE>  (5453) 
P

>  <INCHIKEY>  (5453) 
SIKJAQJRHWYJAI-UHFFFAOYSA-N

>  <FORMULA>  (5453) 
C8H7N

>  <EXACT MASS>  (5453) 
117.057849224

>  <MW>  (5453) 
117

>  <ID>  (5453) 
JP003524

>  <CONTRIBUTOR>  (5453) 
University of Tokyo Team, {Faculty of Engineering, University of Tokyo

>  <COMMENT>  (5453) 
SMILES=C1=CC=C2C(=C1)C=CN2
InChI=InChI=1S/C8H7N/c1-2-4-8-7(3-1)5-6-9-8/h1-6,9H
computed SMILES=C=1C=CC=2NC=CC2C1
accession=JP003524
date=2016.01.19 (Created 2008.10.21, modified 2011.05.06)
author=YAMAMOTO M, DEP. CHEMISTRY, FAC. SCIENCE, NARA WOMEN'S UNIV.
license=CC BY-NC-SA
exact mass=117.05785
ionization energy=70 eV
ion type=[M]+*
computed spectral entropy=2.132519198440748
computed normalized entropy=0.6470342086518632
SPLASH=splash10-014i-9800000000-33bf321019a6a8e3401a
submitter=submitter = University of Tokyo Team (Faculty of Engineering, University of Tokyo)
MoNA Rating=3.75

>  <NUM PEAKS>  (5453) 
27

>  <MASS SPECTRAL PEAKS>  (5453) 
17 1.3
18 5.3
27 1.5
28 10.2
32 1.8
37 1.4
38 2.6
39 0.35
41 1
50 2.9
51 2.6
52 0.17
58.5 6.7
62 5.2
63 10.5
64 0.39
65 1.3
74 1
86 1.4
87 0.16
88 1.8
89 23.2
90 36
91 0.32
116 9
117 99.99
118 9.3

$$$$

     RDKit          2D

 10 10  0  0  0  0  0  0  0  0999 V2000
   -1.3000    0.7500    0.0000 C   0  0  0  0  0  0  0  0  0  0  0  0
   -0.0000   -1.5000    0.0000 C   0  0  0  0  0  0  0  0  0  0  0  0
    0.0000    1.5000    0.0000 C   0  0  0  0  0  0  0  0  0  0  0  0
    1.3000   -0.7500    0.0000 C   0  0  0  0  0  0  0  0  0  0  0  0
   -1.3000   -0.7500    0.0000 C   0  0  0  0  0  0  0  0  0  0  0  0
    1.3000    0.7500    0.0000 C   0  0  0  0  0  0  0  0  0  0  0  0
   -2.5989   -1.5002    0.0000 Cl  0  0  0  0  0  0  0  0  0  0  0  0
    2.5989    1.5002    0.0000 N   0  0  0  0  0  0  0  0  0  0  0  0
    3.8981    0.7504    0.0000 O   0  0  0  0  0  0  0  0  0  0  0  0
    2.5987    3.0002    0.0000 O   0  0  0  0  0  0  0  0  0  0  0  0
  3  1  2  0
  4  2  1  0
  5  1  1  0
  5  2  2  0
  6  3  1  0
  6  4  2  0
  7  5  1  0
  8  6  1  0
  9  8  1  0
 10  8  2  0
M  CHG  2   8   1   9  -1
M  END
>  <NAME>  (5454) 
P-NITROCHLOROBENZENE

>  <SYNONYMS>  (5454) 


>  <SPECTRUM TYPE>  (5454) 
MS1

>  <INSTRUMENT TYPE>  (5454) 
EI-B

>  <INSTRUMENT>  (5454) 
HITACHI M-68

>  <ION MODE>  (5454) 
P

>  <INCHIKEY>  (5454) 
CZGCEKJOLUNIFY-UHFFFAOYSA-N

>  <FORMULA>  (5454) 
C6H4ClNO2

>  <EXACT MASS>  (5454) 
156.993056048

>  <MW>  (5454) 
157

>  <ID>  (5454) 
JP003523

>  <CONTRIBUTOR>  (5454) 
University of Tokyo Team, {Faculty of Engineering, University of Tokyo

>  <COMMENT>  (5454) 
SMILES=[O-1][N+1](=O)c(c1)ccc(Cl)c1
InChI=InChI=1S/C6H4ClNO2/c7-5-1-3-6(4-2-5)8(9)10/h1-4H
computed SMILES=O=N(=O)C1=CC=C(Cl)C=C1
accession=JP003523
date=2016.01.19 (Created 2008.10.21, modified 2011.05.06)
author=YAMAMOTO M, DEP. CHEMISTRY, FAC. SCIENCE, NARA WOMEN'S UNIV.
license=CC BY-NC-SA
exact mass=156.99306
ionization energy=70 eV
ion type=[M]+*
computed spectral entropy=2.9020263574763874
computed normalized entropy=0.766881852712953
SPLASH=splash10-06vi-8900000000-68ff08d5c681f43053e7
submitter=submitter = University of Tokyo Team (Faculty of Engineering, University of Tokyo)
MoNA Rating=3.75

>  <NUM PEAKS>  (5454) 
44

>  <MASS SPECTRAL PEAKS>  (5454) 
30 34
36 1.4
37 6.9
38 7.5
39 4.1
46 4.7
47 1
49 0.49
50 41
51 15
60 1.6
61 0.65
62 4.3
63 9.1
64 2.9
72 0.15
73 14.6
74 28.4
75 88.8
76 1.58
77 1.2
84 3.1
85 11.5
86 0.17
87 4
90 1
99 47.9
100 0.23
101 14.3
110 1.8
111 99.99
112 0.75
113 32.9
114 2.2
127 55.4
128 0.41
129 18.4
130 1.3
141 8.9
143 0.28
157 87
158 7.7
159 28.5
160 2.5

$$$$

     RDKit          2D

 10 10  0  0  0  0  0  0  0  0999 V2000
    2.5987    3.0002    0.0000 C   0  0  0  0  0  0  0  0  0  0  0  0
   -1.3000    0.7500    0.0000 C   0  0  0  0  0  0  0  0  0  0  0  0
    0.0000    1.5000    0.0000 C   0  0  0  0  0  0  0  0  0  0  0  0
   -1.3000   -0.7500    0.0000 C   0  0  0  0  0  0  0  0  0  0  0  0
    1.3000   -0.7500    0.0000 C   0  0  0  0  0  0  0  0  0  0  0  0
    2.5989    1.5002    0.0000 C   0  0  0  0  0  0  0  0  0  0  0  0
    1.3000    0.7500    0.0000 C   0  0  0  0  0  0  0  0  0  0  0  0
    0.0000   -1.5000    0.0000 C   0  0  0  0  0  0  0  0  0  0  0  0
   -0.0000   -3.0000    0.0000 Br  0  0  0  0  0  0  0  0  0  0  0  0
    3.8981    0.7504    0.0000 O   0  0  0  0  0  0  0  0  0  0  0  0
  3  2  2  0
  4  2  1  0
  6  1  1  0
  7  3  1  0
  7  5  2  0
  7  6  1  0
  8  4  2  0
  8  5  1  0
  9  8  1  0
 10  6  2  0
M  END
>  <NAME>  (5455) 
M-BROMOACETOPHENONE

>  <SYNONYMS>  (5455) 


>  <SPECTRUM TYPE>  (5455) 
MS1

>  <INSTRUMENT TYPE>  (5455) 
EI-B

>  <INSTRUMENT>  (5455) 
HITACHI M-68

>  <ION MODE>  (5455) 
P

>  <INCHIKEY>  (5455) 
JYAQYXOVOHJRCS-UHFFFAOYSA-N

>  <FORMULA>  (5455) 
C8H7BrO

>  <EXACT MASS>  (5455) 
197.968026944

>  <MW>  (5455) 
198

>  <ID>  (5455) 
JP003522

>  <CONTRIBUTOR>  (5455) 
University of Tokyo Team, {Faculty of Engineering, University of Tokyo

>  <COMMENT>  (5455) 
SMILES=CC(=O)c(c1)cc(Br)cc1
InChI=InChI=1S/C8H7BrO/c1-6(10)7-3-2-4-8(9)5-7/h2-5H,1H3
computed SMILES=O=C(C=1C=CC=C(Br)C1)C
accession=JP003522
date=2016.01.19 (Created 2008.10.21, modified 2011.05.06)
author=YAMAMOTO M, DEP. CHEMISTRY, FAC. SCIENCE, NARA WOMEN'S UNIV.
license=CC BY-NC-SA
exact mass=197.96803
ionization energy=70 eV
ion type=[M]+*
computed spectral entropy=2.668265868649452
computed normalized entropy=0.7504935726410022
SPLASH=splash10-0f8i-5910000000-df061c2bafabcb2abd3c
submitter=submitter = University of Tokyo Team (Faculty of Engineering, University of Tokyo)
MoNA Rating=3.75

>  <NUM PEAKS>  (5455) 
35

>  <MASS SPECTRAL PEAKS>  (5455) 
15 6.6
26 1.2
27 1.3
37 3
38 6.2
39 3.3
43 42.4
49 0.24
50 28.7
51 8.1
61 2.5
62 0.36
63 5.4
73 3.6
74 17.3
75 2.57
76 29.5
77 6.7
79 1.6
81 0.15
90 2.5
91 2.1
104 4.1
155 4.27
156 3.7
157 44.6
158 3.3
183 99.99
184 7.1
185 89.6
186 6.7
198 4.2
199 4.2
200 38.8
201 4

$$$$

     RDKit          2D

 10 10  0  0  0  0  0  0  0  0999 V2000
    1.6056    2.0565    0.0000 C   0  0  0  0  0  0  0  0  0  0  0  0
    0.2920   -0.1684    0.0000 C   0  0  0  0  0  0  0  0  0  0  0  0
    2.8901    1.3316    0.0000 C   0  0  0  0  0  0  0  0  0  0  0  0
    1.6165   -0.9625    0.0000 C   0  0  0  0  0  0  0  0  0  0  0  0
    0.3065    1.3065    0.0000 C   0  0  0  0  0  0  0  0  0  0  0  0
    2.9156   -0.2125    0.0000 C   0  0  0  0  0  0  0  0  0  0  0  0
   -0.9888    2.0629    0.0000 C   0  0  0  0  0  0  0  0  0  0  0  0
    4.2207   -0.9518    0.0000 O   0  0  0  0  0  0  0  0  0  0  0  0
   -2.2915    1.3193    0.0000 O   0  0  0  0  0  0  0  0  0  0  0  0
   -0.9814    3.5628    0.0000 O   0  0  0  0  0  0  0  0  0  0  0  0
  3  1  2  0
  4  2  1  0
  5  1  1  0
  5  2  2  0
  6  3  1  0
  6  4  2  0
  7  5  1  0
  8  6  1  0
  9  7  1  0
 10  7  2  0
M  END
>  <NAME>  (5456) 
P-HYDROXYBENZOIC ACID

>  <SYNONYMS>  (5456) 


>  <SPECTRUM TYPE>  (5456) 
MS1

>  <INSTRUMENT TYPE>  (5456) 
EI-B

>  <INSTRUMENT>  (5456) 
HITACHI M-68

>  <ION MODE>  (5456) 
P

>  <INCHIKEY>  (5456) 
FJKROLUGYXJWQN-UHFFFAOYSA-N

>  <FORMULA>  (5456) 
C7H6O3

>  <EXACT MASS>  (5456) 
138.03169405199998

>  <MW>  (5456) 
138

>  <ID>  (5456) 
JP003521

>  <CONTRIBUTOR>  (5456) 
University of Tokyo Team, {Faculty of Engineering, University of Tokyo

>  <COMMENT>  (5456) 
SMILES=Oc(c1)ccc(c1)C(O)=O
InChI=InChI=1S/C7H6O3/c8-6-3-1-5(2-4-6)7(9)10/h1-4,8H,(H,9,10)
computed SMILES=O=C(O)C1=CC=C(O)C=C1
accession=JP003521
date=2016.01.19 (Created 2008.10.21, modified 2011.05.06)
author=YAMAMOTO M, DEP. CHEMISTRY, FAC. SCIENCE, NARA WOMEN'S UNIV.
license=CC BY-NC-SA
exact mass=138.03169
ionization energy=70 eV
ion type=[M]+*
computed spectral entropy=2.135091095592428
computed normalized entropy=0.6718234522033473
SPLASH=splash10-00dr-5900000000-9b1d88421f1e1ded16f9
submitter=submitter = University of Tokyo Team (Faculty of Engineering, University of Tokyo)
MoNA Rating=3.75

>  <NUM PEAKS>  (5456) 
24

>  <MASS SPECTRAL PEAKS>  (5456) 
38 4.6
39 18.8
45 3.3
50 2.9
51 2.1
53 5.1
55 3.5
61 0.19
62 4.2
63 10.2
65 24
66 0.34
74 1.7
75 1.1
81 3.7
92 0.32
93 20.7
94 1.7
109 1.1
110 0.18
121 99.99
122 7.5
138 70
139 7

$$$$

     RDKit          2D

 11 11  0  0  0  0  0  0  0  0999 V2000
    1.9442    2.6174    0.0000 C   0  0  0  0  0  0  0  0  0  0  0  0
    0.6306    0.3925    0.0000 C   0  0  0  0  0  0  0  0  0  0  0  0
    3.2287    1.8925    0.0000 C   0  0  0  0  0  0  0  0  0  0  0  0
    1.9551   -0.4016    0.0000 C   0  0  0  0  0  0  0  0  0  0  0  0
   -0.6502    2.6238    0.0000 C   0  0  0  0  0  0  0  0  0  0  0  0
    0.6451    1.8674    0.0000 C   0  0  0  0  0  0  0  0  0  0  0  0
    3.2542    0.3484    0.0000 C   0  0  0  0  0  0  0  0  0  0  0  0
   -1.9529    1.8802    0.0000 C   0  0  0  0  0  0  0  0  0  0  0  0
    4.5593   -0.3909    0.0000 O   0  0  0  0  0  0  0  0  0  0  0  0
   -1.9603    0.3802    0.0000 O   0  0  0  0  0  0  0  0  0  0  0  0
   -3.2483    2.6365    0.0000 O   0  0  0  0  0  0  0  0  0  0  0  0
  3  1  2  0
  4  2  1  0
  6  1  1  0
  6  2  2  0
  6  5  1  0
  7  3  1  0
  7  4  2  0
  8  5  1  0
  9  7  1  0
 10  8  2  0
 11  8  1  0
M  END
>  <NAME>  (5457) 
P-HYDROXYPHENYLACETIC ACID

>  <SYNONYMS>  (5457) 


>  <SPECTRUM TYPE>  (5457) 
MS1

>  <INSTRUMENT TYPE>  (5457) 
EI-B

>  <INSTRUMENT>  (5457) 
HITACHI M-68

>  <ION MODE>  (5457) 
P

>  <INCHIKEY>  (5457) 
XQXPVVBIMDBYFF-UHFFFAOYSA-N

>  <FORMULA>  (5457) 
C8H8O3

>  <EXACT MASS>  (5457) 
152.04734411599998

>  <MW>  (5457) 
152

>  <ID>  (5457) 
JP003520

>  <CONTRIBUTOR>  (5457) 
University of Tokyo Team, {Faculty of Engineering, University of Tokyo

>  <COMMENT>  (5457) 
SMILES=OC(=O)Cc(c1)ccc(O)c1
InChI=InChI=1S/C8H8O3/c9-7-3-1-6(2-4-7)5-8(10)11/h1-4,9H,5H2,(H,10,11)
computed SMILES=O=C(O)CC1=CC=C(O)C=C1
accession=JP003520
date=2016.01.19 (Created 2008.10.21, modified 2011.05.06)
author=YAMAMOTO M, DEP. CHEMISTRY, FAC. SCIENCE, NARA WOMEN'S UNIV.
license=CC BY-NC-SA
exact mass=152.04734
ionization energy=70 eV
ion type=[M]+*
computed spectral entropy=1.3302777086878865
computed normalized entropy=0.5186370268161659
SPLASH=splash10-0a4i-2900000000-3939c62b0d7f649ff402
submitter=submitter = University of Tokyo Team (Faculty of Engineering, University of Tokyo)
MoNA Rating=3.75

>  <NUM PEAKS>  (5457) 
13

>  <MASS SPECTRAL PEAKS>  (5457) 
38 1
50 2.3
51 5.6
52 2.6
53 3.5
77 11.8
78 4.4
79 0.2
107 99.99
108 7.7
109 1.5
152 3.4
153 3

$$$$

     RDKit          2D

 13 14  0  0  0  0  0  0  0  0999 V2000
    6.1271    0.5392    0.0000 C   0  0  0  0  0  0  0  0  0  0  0  0
   -1.6700    0.5404    0.0000 C   0  0  0  0  0  0  0  0  0  0  0  0
    6.1271   -0.9608    0.0000 C   0  0  0  0  0  0  0  0  0  0  0  0
    4.8271    1.2892    0.0000 C   0  0  0  0  0  0  0  0  0  0  0  0
   -0.3710    1.2904    0.0000 C   0  0  0  0  0  0  0  0  0  0  0  0
   -1.6695   -0.9604    0.0000 C   0  0  0  0  0  0  0  0  0  0  0  0
    4.8271   -1.7108    0.0000 C   0  0  0  0  0  0  0  0  0  0  0  0
    3.5271    0.5392    0.0000 C   0  0  0  0  0  0  0  0  0  0  0  0
    0.9286    0.5396    0.0000 C   0  0  0  0  0  0  0  0  0  0  0  0
   -0.3700   -1.7112    0.0000 C   0  0  0  0  0  0  0  0  0  0  0  0
    3.5271   -0.9608    0.0000 C   0  0  0  0  0  0  0  0  0  0  0  0
    0.9290   -0.9612    0.0000 C   0  0  0  0  0  0  0  0  0  0  0  0
    2.2282   -1.7110    0.0000 O   0  0  0  0  0  0  0  0  0  0  0  0
  3  1  2  0
  4  1  1  0
  5  2  2  0
  6  2  1  0
  7  3  1  0
  8  4  2  0
  9  5  1  0
 10  6  2  0
 11  7  2  0
 11  8  1  0
 12  9  2  0
 12 10  1  0
 13 11  1  0
 13 12  1  0
M  END
>  <NAME>  (5458) 
DIPHENYLETHER

>  <SYNONYMS>  (5458) 


>  <SPECTRUM TYPE>  (5458) 
MS1

>  <INSTRUMENT TYPE>  (5458) 
EI-B

>  <INSTRUMENT>  (5458) 
HITACHI RMU-6E

>  <ION MODE>  (5458) 
P

>  <INCHIKEY>  (5458) 
USIUVYZYUHIAEV-UHFFFAOYSA-N

>  <FORMULA>  (5458) 
C12H10O

>  <EXACT MASS>  (5458) 
170.07316494

>  <MW>  (5458) 
170

>  <ID>  (5458) 
JP003519

>  <CONTRIBUTOR>  (5458) 
University of Tokyo Team, {Faculty of Engineering, University of Tokyo

>  <COMMENT>  (5458) 
SMILES=c(c2)ccc(c2)Oc(c1)cccc1
InChI=InChI=1S/C12H10O/c1-3-7-11(8-4-1)13-12-9-5-2-6-10-12/h1-10H
computed SMILES=O(C=1C=CC=CC1)C=2C=CC=CC2
accession=JP003519
date=2016.01.19 (Created 2008.10.21, modified 2011.05.06)
author=YAMAMOTO M, DEP. CHEMISTRY, FAC. SCIENCE, NARA WOMEN'S UNIV.
license=CC BY-NC-SA
exact mass=170.07316
ionization energy=70 eV
ion type=[M]+*
computed spectral entropy=2.6346241273197673
computed normalized entropy=0.6921086737791484
SPLASH=splash10-00di-5900000000-fa40da8e096ee71b2081
submitter=submitter = University of Tokyo Team (Faculty of Engineering, University of Tokyo)
MoNA Rating=3.75

>  <NUM PEAKS>  (5458) 
45

>  <MASS SPECTRAL PEAKS>  (5458) 
39 16
40 2
50 10
51 39
52 2.5
55 2.5
58 1
62 0.2
63 5.5
64 2
65 8
66 0.3
68 2
69 1
69.5 1
70 0.35
70.5 1.5
71 4
71.5 1
72 0.15
74 2.5
75 2.5
76 3
77 4.8
78 4
84 1.5
85 2.5
89 0.1
94 5
102 1
114 1
115 1.8
116 2.5
139 3.5
140 1.5
141 4.8
142 40
143 5
153 1
155 0.1
168 2
169 23
170 99.99
171 1.5
172 2

$$$$

     RDKit          2D

  4  3  0  0  0  0  0  0  0  0999 V2000
   -1.2990    1.5000    0.0000 C   0  0  0  0  0  0  0  0  0  0  0  0
    0.0000    2.2500    0.0000 C   0  0  0  0  0  0  0  0  0  0  0  0
   -2.5981    2.2500    0.0000 N   0  0  0  0  0  0  0  0  0  0  0  0
    1.2990    1.5000    0.0000 O   0  0  0  0  0  0  0  0  0  0  0  0
  2  1  1  0
  3  1  1  0
  4  2  1  0
M  END
>  <NAME>  (5459) 
2-AMINOETHANOL

>  <SYNONYMS>  (5459) 


>  <SPECTRUM TYPE>  (5459) 
MS1

>  <INSTRUMENT TYPE>  (5459) 
EI-B

>  <INSTRUMENT>  (5459) 
HITACHI M-68

>  <ION MODE>  (5459) 
P

>  <INCHIKEY>  (5459) 
HZAXFHJVJLSVMW-UHFFFAOYSA-N

>  <FORMULA>  (5459) 
C2H7NO

>  <EXACT MASS>  (5459) 
61.052763844

>  <MW>  (5459) 
61

>  <ID>  (5459) 
JP003518

>  <CONTRIBUTOR>  (5459) 
University of Tokyo Team, {Faculty of Engineering, University of Tokyo

>  <COMMENT>  (5459) 
SMILES=NCCO
InChI=InChI=1S/C2H7NO/c3-1-2-4/h4H,1-3H2
computed SMILES=OCCN
accession=JP003518
date=2016.01.19 (Created 2008.10.21, modified 2011.05.06)
author=YAMAMOTO M, DEP. CHEMISTRY, FAC. SCIENCE, NARA WOMEN'S UNIV.
license=CC BY-NC-SA
exact mass=61.05276
ionization energy=70 eV
ion type=[M]+*
computed spectral entropy=1.7473171869243438
computed normalized entropy=0.6045302588329247
SPLASH=splash10-001i-9000000000-2af16a98e43fadfa86a3
submitter=submitter = University of Tokyo Team (Faculty of Engineering, University of Tokyo)
MoNA Rating=3.75

>  <NUM PEAKS>  (5459) 
18

>  <MASS SPECTRAL PEAKS>  (5459) 
14 1.2
16 1
17 1.6
18 6.6
26 1.2
27 4.8
28 2
29 11
30 99.99
31 9.2
40 0.14
41 3.2
42 10
43 4.2
44 0.37
60 1.5
61 9
62 8.7

$$$$

     RDKit          2D

 20 22  0  0  0  0  0  0  0  0999 V2000
    1.2008    5.0616    0.0000 C   0  0  0  0  0  0  0  0  0  0  0  0
    0.1047    6.0890    0.0000 C   0  0  0  0  0  0  0  0  0  0  0  0
    0.8809    3.5961    0.0000 C   0  0  0  0  0  0  0  0  0  0  0  0
   -1.3351    5.6356    0.0000 C   0  0  0  0  0  0  0  0  0  0  0  0
    2.8800   -0.7500    0.0000 C   0  0  0  0  0  0  0  0  0  0  0  0
    1.5800   -1.5000    0.0000 C   0  0  0  0  0  0  0  0  0  0  0  0
    1.5800    1.5000    0.0000 C   0  0  0  0  0  0  0  0  0  0  0  0
   -3.0000    0.0000    0.0000 C   0  0  0  0  0  0  0  0  0  0  0  0
    2.8800    0.7500    0.0000 C   0  0  0  0  0  0  0  0  0  0  0  0
   -0.5568    3.1525    0.0000 C   0  0  0  0  0  0  0  0  0  0  0  0
    0.2800    0.7500    0.0000 C   0  0  0  0  0  0  0  0  0  0  0  0
   -1.6550    4.1701    0.0000 C   0  0  0  0  0  0  0  0  0  0  0  0
    0.2800   -0.7500    0.0000 C   0  0  0  0  0  0  0  0  0  0  0  0
   -2.3500   -1.3500    0.0000 C   0  0  0  0  0  0  0  0  0  0  0  0
   -0.8900    1.6900    0.0000 C   0  0  0  0  0  0  0  0  0  0  0  0
    4.1789    1.5002    0.0000 Cl  0  0  0  0  0  0  0  0  0  0  0  0
   -3.0861    3.7207    0.0000 Cl  0  0  0  0  0  0  0  0  0  0  0  0
   -2.3500    1.3500    0.0000 N   0  0  0  0  0  0  0  0  0  0  0  0
   -0.8900   -1.6900    0.0000 N   0  0  0  0  0  0  0  0  0  0  0  0
   -3.2879   -2.5207    0.0000 O   0  0  0  0  0  0  0  0  0  0  0  0
  2  1  2  0
  3  1  1  0
  4  2  1  0
  6  5  2  0
  9  5  1  0
  9  7  2  0
 10  3  2  0
 11  7  1  0
 12  4  2  0
 12 10  1  0
 13  6  1  0
 13 11  2  0
 14  8  1  0
 15 10  1  0
 15 11  1  0
 16  9  1  0
 17 12  1  0
 18  8  1  0
 18 15  2  0
 19 13  1  0
 19 14  2  0
 20 14  1  0
M  END
>  <NAME>  (5460) 
O-CHLORODESMETHYLDIAZEPAM

>  <SYNONYMS>  (5460) 


>  <SPECTRUM TYPE>  (5460) 
MS1

>  <INSTRUMENT TYPE>  (5460) 
EI-B

>  <INSTRUMENT>  (5460) 
HITACHI RMU-6E

>  <ION MODE>  (5460) 
P

>  <INCHIKEY>  (5460) 
CHIFCDOIPRCHCF-UHFFFAOYSA-N

>  <FORMULA>  (5460) 
C15H10Cl2N2O

>  <EXACT MASS>  (5460) 
304.0170183

>  <MW>  (5460) 
304

>  <ID>  (5460) 
JP003516

>  <CONTRIBUTOR>  (5460) 
University of Tokyo Team, {Faculty of Engineering, University of Tokyo

>  <COMMENT>  (5460) 
SMILES=O=C(C2)Nc(c3)c(cc(Cl)c3)C(=N2)c(c1)c(Cl)ccc1
InChI=InChI=1S/C15H10Cl2N2O/c16-9-5-6-13-11(7-9)15(18-8-14(20)19-13)10-3-1-2-4-12(10)17/h1-7H,8H2,(H,19,20)
computed SMILES=ClC=1C=CC=2N=C(O)CN=C(C=3C=CC=CC3Cl)C2C1
accession=JP003516
date=2016.01.19 (Created 2008.10.21, modified 2011.05.06)
author=YAMAMOTO M, DEP. CHEMISTRY, FAC. SCIENCE, NARA WOMEN'S UNIV.
license=CC BY-NC-SA
exact mass=304.01702
ionization energy=70 eV
ion type=[M]+*
computed spectral entropy=4.4283479960211025
computed normalized entropy=0.8334606287595376
SPLASH=splash10-0fb9-6794000000-90a56d756980bc170dc2
submitter=submitter = University of Tokyo Team (Faculty of Engineering, University of Tokyo)
MoNA Rating=3.75

>  <NUM PEAKS>  (5460) 
203

>  <MASS SPECTRAL PEAKS>  (5460) 
31 2.4
36 3.8
38 2.7
39 9.8
41 9.2
42 2.7
43 7.9
44 0.22
45 5.9
48 1.7
49 1.3
50 0.85
51 16.3
52 4.9
53 1.9
54 0.2
55 9.4
56 2.5
57 16.2
60 0.27
61 2.6
61.5 1.6
62 10.9
63 1.85
64 3.9
65 2.8
67 1.9
68 0.33
69 6.7
70 2.5
71 4.2
73 0.58
74 9.7
74.5 3.7
75 47.8
75.5 1.39
76 25.7
76.5 3.4
77 19.3
78 0.35
79 1.3
80 3.5
81 7.4
81.5 0.72
82 4.8
82.5 1.5
83 3.7
85 0.28
86 4.6
87 5.9
87.5 1.9
88 0.84
88.5 24.6
89 41
89.5 11.1
90 0.65
91 4.6
92 2.9
92.5 3.5
93 1.36
93.5 2.6
94 5.9
94.5 2.2
95 0.34
95.5 2.8
96 1.6
97 2.6
98 0.5
99 9.3
99.5 1.4
100 5.9
101 0.49
101.5 1.9
102 46.1
102.5 27.8
103 2.41
103.5 3.7
104 3.2
105 2.1
105.5 0.25
106 7.7
106.5 6.7
107 12.7
107.5 0.35
108 4.6
109 1.7
110 3.8
111 1.35
112 11.2
112.5 1.3
113 7
113.5 0.17
114 4.9
115 2.5
116 11.1
117 0.34
119 2.7
119.5 2.3
120 34.4
120.5 1.37
121 12.3
121.5 3.8
122 2
123 0.53
124 5.9
125 12.8
125.5 1.8
126 0.96
127 5.6
128 2.3
129 2.3
132 0.17
135 1.3
136 4.6
137 5
138 2.9
139 9.4
140 8.7
141 5
149 1.16
150 18.4
151 19.5
152 12.4
153 3.1
155 1.5
157 1.5
159 2.2
160 0.18
161 1.5
162 2.5
163 20.9
164 0.66
165 9.7
166 4.7
167 2.5
168 0.25
173 1.4
175 3.8
176 9.1
177 3.26
178 17.3
179 9.2
180 1.9
185 0.2
186 4.8
187 1.4
188 2
190 0.26
191 3.1
192 3.8
193 1.3
198 0.13
199 2.2
203 2.4
204 3.4
205 1.36
206 9.8
207 1.9
211 2.5
212 0.48
213 9.3
214 11.3
215 4.7
216 0.47
226 1.9
227 4.5
228 1.7
229 0.15
233 3.2
234 9.7
235 2.5
239 1.49
240 11.6
241 42.6
242 12.4
243 1.26
244 2.9
248 7.2
249 1.9
250 0.47
251 1.6
252 1.4
262 2.4
264 0.14
268 21.9
269 99.99
270 23.4
271 3.38
272 5.3
275 85.5
276 63.8
277 7.5
278 43.4
279 22.5
280 7.9
281 0.19
303 62.2
304 99
305 58.2
306 6.35
307 17.4
308 11.2
309 2

$$$$

     RDKit          2D

 21 23  0  0  0  0  0  0  0  0999 V2000
   -0.5568   -3.1525    0.0000 C   0  0  0  0  0  0  0  0  0  0  0  0
    1.2008    5.0616    0.0000 C   0  0  0  0  0  0  0  0  0  0  0  0
    0.1047    6.0890    0.0000 C   0  0  0  0  0  0  0  0  0  0  0  0
    0.8809    3.5961    0.0000 C   0  0  0  0  0  0  0  0  0  0  0  0
   -1.3351    5.6356    0.0000 C   0  0  0  0  0  0  0  0  0  0  0  0
    2.8800   -0.7500    0.0000 C   0  0  0  0  0  0  0  0  0  0  0  0
    1.5800   -1.5000    0.0000 C   0  0  0  0  0  0  0  0  0  0  0  0
    1.5800    1.5000    0.0000 C   0  0  0  0  0  0  0  0  0  0  0  0
   -3.0000    0.0000    0.0000 C   0  0  0  0  0  0  0  0  0  0  0  0
    2.8800    0.7500    0.0000 C   0  0  0  0  0  0  0  0  0  0  0  0
   -0.5568    3.1525    0.0000 C   0  0  0  0  0  0  0  0  0  0  0  0
    0.2800    0.7500    0.0000 C   0  0  0  0  0  0  0  0  0  0  0  0
   -1.6550    4.1701    0.0000 C   0  0  0  0  0  0  0  0  0  0  0  0
    0.2800   -0.7500    0.0000 C   0  0  0  0  0  0  0  0  0  0  0  0
   -2.3500   -1.3500    0.0000 C   0  0  0  0  0  0  0  0  0  0  0  0
   -0.8900    1.6900    0.0000 C   0  0  0  0  0  0  0  0  0  0  0  0
    4.1789    1.5002    0.0000 Cl  0  0  0  0  0  0  0  0  0  0  0  0
   -3.0861    3.7207    0.0000 Cl  0  0  0  0  0  0  0  0  0  0  0  0
   -2.3500    1.3500    0.0000 N   0  0  0  0  0  0  0  0  0  0  0  0
   -0.8900   -1.6900    0.0000 N   0  0  0  0  0  0  0  0  0  0  0  0
   -3.2879   -2.5207    0.0000 O   0  0  0  0  0  0  0  0  0  0  0  0
  3  2  2  0
  4  2  1  0
  5  3  1  0
  7  6  2  0
 10  6  1  0
 10  8  2  0
 11  4  2  0
 12  8  1  0
 13  5  2  0
 13 11  1  0
 14  7  1  0
 14 12  2  0
 15  9  1  0
 16 11  1  0
 16 12  1  0
 17 10  1  0
 18 13  1  0
 19  9  1  0
 19 16  2  0
 20  1  1  0
 20 14  1  0
 20 15  1  0
 21 15  2  0
M  END
>  <NAME>  (5461) 
O-CHLORODIAZEPAM

>  <SYNONYMS>  (5461) 


>  <SPECTRUM TYPE>  (5461) 
MS1

>  <INSTRUMENT TYPE>  (5461) 
EI-B

>  <INSTRUMENT>  (5461) 
HITACHI RMU-6E

>  <ION MODE>  (5461) 
P

>  <INCHIKEY>  (5461) 
VPAYQWRBBOGGPY-UHFFFAOYSA-N

>  <FORMULA>  (5461) 
C16H12Cl2N2O

>  <EXACT MASS>  (5461) 
318.03266836399996

>  <MW>  (5461) 
318

>  <ID>  (5461) 
JP003515

>  <CONTRIBUTOR>  (5461) 
University of Tokyo Team, {Faculty of Engineering, University of Tokyo

>  <COMMENT>  (5461) 
SMILES=Clc(c3)cc(c(c3)2)C(=NCC(=O)N(C)2)c(c1)c(Cl)ccc1
InChI=InChI=1S/C16H12Cl2N2O/c1-20-14-7-6-10(17)8-12(14)16(19-9-15(20)21)11-4-2-3-5-13(11)18/h2-8H,9H2,1H3
computed SMILES=O=C1N(C=2C=CC(Cl)=CC2C(=NC1)C=3C=CC=CC3Cl)C
accession=JP003515
date=2016.01.19 (Created 2008.10.21, modified 2011.05.06)
author=YAMAMOTO M, DEP. CHEMISTRY, FAC. SCIENCE, NARA WOMEN'S UNIV.
license=CC BY-NC-SA
exact mass=318.03267
ionization energy=70 eV
ion type=[M]+*
computed spectral entropy=4.394386632623135
computed normalized entropy=0.8270687509494301
SPLASH=splash10-015c-4695000000-bec70b233f58559505f4
submitter=submitter = University of Tokyo Team (Faculty of Engineering, University of Tokyo)
MoNA Rating=3.75

>  <NUM PEAKS>  (5461) 
203

>  <MASS SPECTRAL PEAKS>  (5461) 
15 1.7
18 1.8
27 2.1
28 2.9
31 2.5
36 2
38 1.5
39 0.64
41 2.5
42 6.4
43 1.8
45 0.18
50 5
51 7.5
52 1.9
55 0.21
57 1.8
58 2.1
62 4.6
63 1.04
64 2.1
65 2.5
68 2
69 0.19
69.5 1.6
71 1.5
73 3.6
74 0.51
75 21.8
75.5 2.8
76 7.2
77 0.71
80 1.8
81 7.1
81.5 12.1
82 1.05
82.5 7.4
83 1.4
83.5 3.1
86 0.24
87 4.2
88 4.8
88.5 4.7
89 1.83
89.5 1.8
90 5.2
91 2.3
92.5 0.14
93 3.6
94 2.4
94.5 3.1
95 0.33
95.5 21.2
96 9.1
96.5 6.3
97 0.18
98 2.6
99 8
99.5 3.7
100 0.47
100.5 3.5
101 3.2
101.5 2.2
102 1.15
102.5 3.8
103 2.9
106 2.5
106.5 0.22
108 1.4
108.5 2.1
109 20.3
109.5 2.19
110 18.3
110.5 2.7
111 13.1
112 0.41
112.5 2.9
113 6.2
113.5 5.8
114 0.54
114.5 2
115 2.2
116 5
117 0.87
118 1.7
119.5 2.7
120 3.9
120.5 0.17
121 1.7
123 4.4
124 5.7
125 1.86
126 6
126.5 3.3
127 28.9
127.5 1.29
128 10.4
128.5 4.2
130.5 1.7
134 0.44
135 1.7
136 3.1
137 4.4
138 0.54
139 2.7
140 2
141 2.8
141.5 0.36
142 1.5
145 3.2
146 2.4
149 0.37
150 8.7
151 8
152 7.2
153 0.19
154 1.6
159 3.8
160 3.1
161 0.19
162 2.5
163 11
164 7.4
165 11.9
166 3
175 2.3
176 4.8
177 1.57
178 6.1
179 3.9
181 1.5
186 0.3
188 2
190 4.6
191 4.7
192 0.37
193 2.3
198 1.8
199 5.3
200 0.19
201 2.3
203 2.5
204 2.5
205 0.47
206 1.9
211 2.1
212 2.5
213 0.3
214 1.7
218 1.9
219 6
220 0.23
221 1.5
226 2.9
227 3.8
228 0.19
233 1.8
238 4
239 7.6
240 0.43
241 3.6
242 1.5
247 2
248 0.71
249 1.9
253 6
254 2.6
255 3.89
256 10.3
257 13.1
258 3.1
262 0.17
264 1.4
267 1.7
268 5.5
269 0.22
270 2.1
273 2.7
274 1.3
275 0.97
276 2.8
277 5.8
278 1.7
279 0.14
282 13
283 87.8
284 22.1
285 3.06
286 5.4
289 33.3
290 64.5
291 3.88
292 42.6
293 14.9
294 7.4
295 0.23
317 58.2
318 99.99
319 52.8
320 6.54
321 17.7
322 11.2
323 1.9

$$$$

     RDKit          2D

 20 21  0  0  0  0  0  0  0  0999 V2000
   -5.1982   -0.7588    0.0000 C   0  0  0  0  0  0  0  0  0  0  0  0
    2.6032    3.7341    0.0000 C   0  0  0  0  0  0  0  0  0  0  0  0
    3.9082    2.9898    0.0000 C   0  0  0  0  0  0  0  0  0  0  0  0
    1.2973    2.9961    0.0000 C   0  0  0  0  0  0  0  0  0  0  0  0
    3.8997    1.4803    0.0000 C   0  0  0  0  0  0  0  0  0  0  0  0
   -0.0009   -3.7599    0.0000 C   0  0  0  0  0  0  0  0  0  0  0  0
   -1.3004   -3.0090    0.0000 C   0  0  0  0  0  0  0  0  0  0  0  0
    1.2976   -1.5090    0.0000 C   0  0  0  0  0  0  0  0  0  0  0  0
   -3.8990   -1.5086    0.0000 C   0  0  0  0  0  0  0  0  0  0  0  0
    1.2981   -3.0099    0.0000 C   0  0  0  0  0  0  0  0  0  0  0  0
    1.2975    1.4916    0.0000 C   0  0  0  0  0  0  0  0  0  0  0  0
   -0.0019   -0.7582    0.0000 C   0  0  0  0  0  0  0  0  0  0  0  0
    2.5938    0.7424    0.0000 C   0  0  0  0  0  0  0  0  0  0  0  0
   -1.3009   -1.5082    0.0000 C   0  0  0  0  0  0  0  0  0  0  0  0
   -0.0016    0.7418    0.0000 C   0  0  0  0  0  0  0  0  0  0  0  0
    2.5973   -3.7597    0.0000 Cl  0  0  0  0  0  0  0  0  0  0  0  0
    2.5865   -0.7576    0.0000 Cl  0  0  0  0  0  0  0  0  0  0  0  0
   -2.6001   -0.7584    0.0000 N   0  0  0  0  0  0  0  0  0  0  0  0
   -3.8988   -3.0086    0.0000 O   0  0  0  0  0  0  0  0  0  0  0  0
   -1.3006    1.4920    0.0000 O   0  0  0  0  0  0  0  0  0  0  0  0
  3  2  2  0
  4  2  1  0
  5  3  1  0
  7  6  2  0
  9  1  1  0
 10  6  1  0
 10  8  2  0
 11  4  2  0
 12  8  1  0
 13  5  2  0
 13 11  1  0
 14  7  1  0
 14 12  2  0
 15 11  1  0
 15 12  1  0
 16 10  1  0
 17 13  1  0
 18  9  2  3
 18 14  1  0
 19  9  1  0
 20 15  2  0
M  END
>  <NAME>  (5462) 
2',5-DICHLORO-2-ACETAMIDOBENZOPHENONE

>  <SYNONYMS>  (5462) 


>  <SPECTRUM TYPE>  (5462) 
MS1

>  <INSTRUMENT TYPE>  (5462) 
EI-B

>  <INSTRUMENT>  (5462) 
HITACHI RMU-6E

>  <ION MODE>  (5462) 
P

>  <INCHIKEY>  (5462) 
UFFQVZHDIPJFDP-UHFFFAOYSA-N

>  <FORMULA>  (5462) 
C15H11Cl2NO2

>  <EXACT MASS>  (5462) 
307.016683952

>  <MW>  (5462) 
307

>  <ID>  (5462) 
JP003514

>  <CONTRIBUTOR>  (5462) 
University of Tokyo Team, {Faculty of Engineering, University of Tokyo

>  <COMMENT>  (5462) 
SMILES=CC(=O)Nc(c2)c(cc(Cl)c2)C(=O)c(c1)c(Cl)ccc1
InChI=InChI=1S/C15H11Cl2NO2/c1-9(19)18-14-7-6-10(16)8-12(14)15(20)11-4-2-3-5-13(11)17/h2-8H,1H3,(H,18,19)
computed SMILES=O=C(C=1C=CC=CC1Cl)C2=CC(Cl)=CC=C2N=C(O)C
accession=JP003514
date=2016.01.19 (Created 2008.10.21, modified 2011.05.06)
author=YAMAMOTO M, DEP. CHEMISTRY, FAC. SCIENCE, NARA WOMEN'S UNIV.
license=CC BY-NC-SA
exact mass=307.01668
ionization energy=70 eV
ion type=[M]+*
computed spectral entropy=3.4790131981007626
computed normalized entropy=0.7851855213262205
SPLASH=splash10-00lu-4591000000-c9cbe5d37bab555168fd
submitter=submitter = University of Tokyo Team (Faculty of Engineering, University of Tokyo)
MoNA Rating=3.75

>  <NUM PEAKS>  (5462) 
84

>  <MASS SPECTRAL PEAKS>  (5462) 
15 5.3
18 2.1
28 2.2
39 3.3
41 1.4
43 70.2
44 2
45 0.24
50 3.2
51 4.8
52 2.2
62 0.28
63 9.6
64 2.7
73 2.2
74 0.21
75 15.9
76 3
77 4.4
82.5 0.14
88 1.7
89 1.8
90 7.3
91 0.3
98 2.2
99 6.6
100 1.7
101 0.22
105 1.7
111 25.7
112 2.2
113 0.86
124 2.2
125 2.7
126 15.2
127 0.22
128 4.6
138 2
139 23.3
140 0.32
141 7.4
149 1.8
150 1.4
153 0.22
154 22
155 2.6
156 7.2
164 0.27
165 2
166 6.3
167 6
168 0.99
169 1.2
170 3
173 1.3
194 0.14
195 11.6
196 2
200 2.5
201 0.41
202 2.4
203 1.5
229 10.5
230 99.99
231 18.2
232 32.9
233 4.8
236 0.38
237 1.4
238 2.5
248 3.1
250 0.22
264 18.5
265 49.4
266 18.8
267 3.31
268 6.6
269 5.4
272 1.4
307 3
308 5.2
309 19.4
310 3.3
311 3.2

$$$$

     RDKit          2D

 21 23  0  0  0  0  0  0  0  0999 V2000
    1.2008    5.0616    0.0000 C   0  0  0  0  0  0  0  0  0  0  0  0
    0.1047    6.0890    0.0000 C   0  0  0  0  0  0  0  0  0  0  0  0
    0.8809    3.5961    0.0000 C   0  0  0  0  0  0  0  0  0  0  0  0
   -1.3351    5.6356    0.0000 C   0  0  0  0  0  0  0  0  0  0  0  0
    2.8800   -0.7500    0.0000 C   0  0  0  0  0  0  0  0  0  0  0  0
    1.5800   -1.5000    0.0000 C   0  0  0  0  0  0  0  0  0  0  0  0
    1.5800    1.5000    0.0000 C   0  0  0  0  0  0  0  0  0  0  0  0
    2.8800    0.7500    0.0000 C   0  0  0  0  0  0  0  0  0  0  0  0
   -0.5568    3.1525    0.0000 C   0  0  0  0  0  0  0  0  0  0  0  0
    0.2800    0.7500    0.0000 C   0  0  0  0  0  0  0  0  0  0  0  0
   -1.6550    4.1701    0.0000 C   0  0  0  0  0  0  0  0  0  0  0  0
    0.2800   -0.7500    0.0000 C   0  0  0  0  0  0  0  0  0  0  0  0
   -0.8900    1.6900    0.0000 C   0  0  0  0  0  0  0  0  0  0  0  0
   -2.3500   -1.3500    0.0000 C   0  0  0  0  0  0  0  0  0  0  0  0
   -3.0000    0.0000    0.0000 C   0  0  0  0  0  0  0  0  0  0  0  0
    4.1789    1.5002    0.0000 Cl  0  0  0  0  0  0  0  0  0  0  0  0
   -3.0861    3.7207    0.0000 Cl  0  0  0  0  0  0  0  0  0  0  0  0
   -0.8900   -1.6900    0.0000 N   0  0  0  0  0  0  0  0  0  0  0  0
   -2.3500    1.3500    0.0000 N   0  0  0  0  0  0  0  0  0  0  0  0
   -3.2879   -2.5207    0.0000 O   0  0  0  0  0  0  0  0  0  0  0  0
   -4.5000    0.0000    0.0000 O   0  0  0  0  0  0  0  0  0  0  0  0
  2  1  2  0
  3  1  1  0
  4  2  1  0
  6  5  2  0
  8  5  1  0
  8  7  2  0
  9  3  2  0
 10  7  1  0
 11  4  2  0
 11  9  1  0
 12  6  1  0
 12 10  2  0
 13  9  1  0
 13 10  1  0
 15 14  1  0
 16  8  1  0
 17 11  1  0
 18 12  1  0
 18 14  2  0
 19 13  2  0
 19 15  1  0
 20 14  1  0
 21 15  1  0
M  END
>  <NAME>  (5463) 
LORAZEPAM

>  <SYNONYMS>  (5463) 


>  <SPECTRUM TYPE>  (5463) 
MS1

>  <INSTRUMENT TYPE>  (5463) 
EI-B

>  <INSTRUMENT>  (5463) 
HITACHI RMU-6E

>  <ION MODE>  (5463) 
P

>  <INCHIKEY>  (5463) 
DIWRORZWFLOCLC-UHFFFAOYSA-N

>  <FORMULA>  (5463) 
C15H10Cl2N2O2

>  <EXACT MASS>  (5463) 
320.01193292

>  <MW>  (5463) 
320

>  <ID>  (5463) 
JP003513

>  <CONTRIBUTOR>  (5463) 
University of Tokyo Team, {Faculty of Engineering, University of Tokyo

>  <COMMENT>  (5463) 
SMILES=Clc(c3)cc(c(c3)2)C(=NC(O)C(=O)N2)c(c1)c(Cl)ccc1
InChI=InChI=1S/C15H10Cl2N2O2/c16-8-5-6-12-10(7-8)13(19-15(21)14(20)18-12)9-3-1-2-4-11(9)17/h1-7,15,21H,(H,18,20)
computed SMILES=ClC=1C=CC=2N=C(O)C(O)N=C(C=3C=CC=CC3Cl)C2C1
accession=JP003513
date=2016.01.19 (Created 2008.10.21, modified 2011.05.06)
author=YAMAMOTO M, DEP. CHEMISTRY, FAC. SCIENCE, NARA WOMEN'S UNIV.
license=CC BY-NC-SA
exact mass=320.01193
ionization energy=70 eV
ion type=[M]+*
computed spectral entropy=4.143706145960681
computed normalized entropy=0.8216055656422326
SPLASH=splash10-009i-6791000000-942b7493f1e9fc3d12be
submitter=submitter = University of Tokyo Team (Faculty of Engineering, University of Tokyo)
MoNA Rating=3.75

>  <NUM PEAKS>  (5463) 
155

>  <MASS SPECTRAL PEAKS>  (5463) 
17 10.4
18 43.4
27 3.5
28 4.9
29 5.2
36 4
38 1.6
39 0.47
41 4.9
43 6.9
45 2.4
50 1.45
51 14.7
52 3
55 4.5
56 0.16
57 4.7
58 1.7
59 3.6
60 0.19
61 2.5
62 5.9
63 5.8
64 0.15
65 1.4
67 1.5
69 3
70 0.23
71 2.6
73 3.8
74 13.9
74.5 0.26
75 69.3
75.5 2.8
76 12.9
77 0.9
81 1.8
83 1.7
84 2.8
85 0.52
86 3.4
87 4.3
87.5 2.6
88 0.68
88.5 4.6
89 2.4
92 2.7
92.5 0.19
93 3.7
95 1.4
96 1.8
97 0.15
98 3.3
99 7.7
100 15.4
101 0.82
101.5 5.8
102 24.4
103 2.3
105.5 0.36
106 3.5
106.5 2.2
107 1.6
109 0.23
110 16.1
110.5 1.6
111 37.8
112 1.32
113 13.2
114 3.4
115 1.4
118.5 0.14
119 8.2
119.5 11.6
120 4.6
120.5 0.39
121 1.4
122 1.3
123 3.3
124 0.3
125 3.9
126 3.2
127 2.5
133 0.16
136 9.4
137 16
138 37
139 0.77
140 11.1
141 1.7
148 1
149 1.02
150 9.5
151 6.9
152 2.9
153 0.16
154 1.3
160 1.5
161 1.5
162 0.16
163 9.6
164 1.9
165 3.8
174 0.22
175 8.1
176 17.3
177 23.4
178 0.45
179 1.7
185 1.7
186 2.3
202 0.93
203 12
204 10.7
205 2.5
210 0.25
211 6.1
212 4.1
213 3.3
214 0.17
237 2.9
238 5
239 99.99
240 18.1
241 33.2
242 5.7
248 2.3
250 0.15
257 1.4
267 17.9
268 3.4
269 0.61
270 1.3
273 22.2
274 75.4
275 2.74
276 50.8
277 11.1
278 8.7
279 0.21
285 1.3
291 12.5
292 2.2
293 0.8
294 1.8
295 1.5
301 5.2
302 6.23
303 15.9
304 41.9
305 8.2
306 0.73
307 1.4
320 2
322 1.4

$$$$

     RDKit          2D

 20 21  0  0  0  0  0  0  0  0999 V2000
    2.5987    3.0002    0.0000 C   0  0  0  0  0  0  0  0  0  0  0  0
    3.8879   -5.2522    0.0000 C   0  0  0  0  0  0  0  0  0  0  0  0
    2.5908   -6.0103    0.0000 C   0  0  0  0  0  0  0  0  0  0  0  0
    3.9018   -3.7523    0.0000 C   0  0  0  0  0  0  0  0  0  0  0  0
    1.2878   -5.2482    0.0000 C   0  0  0  0  0  0  0  0  0  0  0  0
   -1.3000    0.7500    0.0000 C   0  0  0  0  0  0  0  0  0  0  0  0
    0.0000    1.5000    0.0000 C   0  0  0  0  0  0  0  0  0  0  0  0
    0.0000   -1.5000    0.0000 C   0  0  0  0  0  0  0  0  0  0  0  0
    3.8981    0.7504    0.0000 C   0  0  0  0  0  0  0  0  0  0  0  0
   -1.3000   -0.7500    0.0000 C   0  0  0  0  0  0  0  0  0  0  0  0
    2.5987   -3.0002    0.0000 C   0  0  0  0  0  0  0  0  0  0  0  0
    1.3000   -0.7500    0.0000 C   0  0  0  0  0  0  0  0  0  0  0  0
    1.3017   -3.7482    0.0000 C   0  0  0  0  0  0  0  0  0  0  0  0
    1.3000    0.7500    0.0000 C   0  0  0  0  0  0  0  0  0  0  0  0
    2.5989   -1.5002    0.0000 C   0  0  0  0  0  0  0  0  0  0  0  0
   -2.5989   -1.5002    0.0000 Cl  0  0  0  0  0  0  0  0  0  0  0  0
    0.0063   -2.9919    0.0000 Cl  0  0  0  0  0  0  0  0  0  0  0  0
    2.5989    1.5002    0.0000 N   0  0  0  0  0  0  0  0  0  0  0  0
    5.1970    1.5006    0.0000 O   0  0  0  0  0  0  0  0  0  0  0  0
    3.8981   -0.7504    0.0000 O   0  0  0  0  0  0  0  0  0  0  0  0
  3  2  2  0
  4  2  1  0
  5  3  1  0
  7  6  2  0
 10  6  1  0
 10  8  2  0
 11  4  2  0
 12  8  1  0
 13  5  2  0
 13 11  1  0
 14  7  1  0
 14 12  2  0
 15 11  1  0
 15 12  1  0
 16 10  1  0
 17 13  1  0
 18  1  1  0
 18  9  1  0
 18 14  1  0
 19  9  2  0
 20 15  2  0
M  END
>  <NAME>  (5464) 
2',5-DICHLORO-2-(N-METHYLFORMAMIDO)BENZOPHENONE

>  <SYNONYMS>  (5464) 


>  <SPECTRUM TYPE>  (5464) 
MS1

>  <INSTRUMENT TYPE>  (5464) 
EI-B

>  <INSTRUMENT>  (5464) 
HITACHI RMU-6E

>  <ION MODE>  (5464) 
P

>  <INCHIKEY>  (5464) 
OCVBHBHJZKOSNY-UHFFFAOYSA-N

>  <FORMULA>  (5464) 
C15H11Cl2NO2

>  <EXACT MASS>  (5464) 
307.01668395200005

>  <MW>  (5464) 
307

>  <ID>  (5464) 
JP003512

>  <CONTRIBUTOR>  (5464) 
University of Tokyo Team, {Faculty of Engineering, University of Tokyo

>  <COMMENT>  (5464) 
SMILES=O=CN(C)c(c2)c(cc(Cl)c2)C(=O)c(c1)c(Cl)ccc1
InChI=InChI=1S/C15H11Cl2NO2/c1-18(9-19)14-7-6-10(16)8-12(14)15(20)11-4-2-3-5-13(11)17/h2-9H,1H3
computed SMILES=O=CN(C1=CC=C(Cl)C=C1C(=O)C=2C=CC=CC2Cl)C
accession=JP003512
date=2016.01.19 (Created 2008.10.21, modified 2011.05.06)
author=YAMAMOTO M, DEP. CHEMISTRY, FAC. SCIENCE, NARA WOMEN'S UNIV.
license=CC BY-NC-SA
exact mass=307.01668
ionization energy=70 eV
ion type=[M]+*
computed spectral entropy=3.8235936123767083
computed normalized entropy=0.8199085557275263
SPLASH=splash10-0a4i-8920000000-b372519dfd202c421417
submitter=submitter = University of Tokyo Team (Faculty of Engineering, University of Tokyo)
MoNA Rating=3.75

>  <NUM PEAKS>  (5464) 
106

>  <MASS SPECTRAL PEAKS>  (5464) 
30 3.8
39 3.6
41 13.2
42 3
43 18.3
44 2.9
45 3.2
50 0.48
51 14.3
55 15.8
56 6.8
57 2.4
58 1.8
60 1.7
63 2.4
67 0.37
68 3.2
69 14.2
70 7.7
71 1.36
73 1.8
74 3.4
75 9.6
76 0.46
77 40.8
78 4.1
79 2.3
81 0.49
82 4.8
83 11.6
84 5.7
85 0.91
91 2.7
93 2
95 3.8
96 0.28
97 10
98 3.5
99 4.9
102 0.16
104 3.8
105 99.99
106 8.7
107 0.23
109 2.5
110 2.1
111 11.6
112 0.35
113 4.3
115 1.6
117 1.7
119 0.18
122 2.1
123 2.4
124.5 1.4
125 0.7
126 2.2
127 2.7
129 1.8
130 0.14
133 3.6
134 30
135 3.6
137 0.17
138 2
139 6.7
140 2.9
141 0.43
145 1.6
149 15.9
150 3.5
151 0.2
152 2.3
153.5 1.6
154.5 1.4
155.5 0.17
161 7.3
162 4.1
165 1.5
166 0.63
167 2.3
168 10.9
180 1.7
207 10.5
208 3.7
209 0.28
214 1.6
226 1.9
227 3.9
228 0.19
229 9.3
230 1.6
231 2.7
244 1.61
245 2.8
246 5.7
262 2.8
264 0.15
272 1.5
278 2.5
279 8.8
280 0.3
281 5.9
282 1.3
307 4
309 2.6

$$$$

     RDKit          2D

 14 15  0  0  0  0  0  0  0  0999 V2000
    2.6838    2.4465    0.0000 C   0  0  0  0  0  0  0  0  0  0  0  0
   -0.5000   -3.1900    0.0000 C   0  0  0  0  0  0  0  0  0  0  0  0
   -3.0989    1.3102    0.0000 C   0  0  0  0  0  0  0  0  0  0  0  0
    3.1000   -0.1900    0.0000 C   0  0  0  0  0  0  0  0  0  0  0  0
    0.8000    0.5600    0.0000 C   0  0  0  0  0  0  0  0  0  0  0  0
    0.8000   -0.9400    0.0000 C   0  0  0  0  0  0  0  0  0  0  0  0
   -0.5000    1.3100    0.0000 C   0  0  0  0  0  0  0  0  0  0  0  0
   -1.8000   -0.9400    0.0000 C   0  0  0  0  0  0  0  0  0  0  0  0
    2.2200   -1.4000    0.0000 N   0  0  0  0  0  0  0  0  0  0  0  0
    2.2200    1.0200    0.0000 N   0  0  0  0  0  0  0  0  0  0  0  0
   -0.5000   -1.6900    0.0000 N   0  0  0  0  0  0  0  0  0  0  0  0
   -1.8000    0.5600    0.0000 N   0  0  0  0  0  0  0  0  0  0  0  0
   -0.5000    2.8100    0.0000 O   0  0  0  0  0  0  0  0  0  0  0  0
   -3.0989   -1.6902    0.0000 O   0  0  0  0  0  0  0  0  0  0  0  0
  6  5  2  0
  7  5  1  0
  9  4  2  0
  9  6  1  0
 10  1  1  0
 10  4  1  0
 10  5  1  0
 11  2  1  0
 11  6  1  0
 11  8  1  0
 12  3  1  0
 12  7  1  0
 12  8  1  0
 13  7  2  0
 14  8  2  0
M  END
>  <NAME>  (5465) 
CAFFEINE

>  <SYNONYMS>  (5465) 


>  <SPECTRUM TYPE>  (5465) 
MS1

>  <INSTRUMENT TYPE>  (5465) 
EI-B

>  <INSTRUMENT>  (5465) 
HITACHI M-68

>  <ION MODE>  (5465) 
P

>  <INCHIKEY>  (5465) 
RYYVLZVUVIJVGH-UHFFFAOYSA-N

>  <FORMULA>  (5465) 
C8H10N4O2

>  <EXACT MASS>  (5465) 
194.08037556

>  <MW>  (5465) 
194

>  <ID>  (5465) 
JP003511

>  <CONTRIBUTOR>  (5465) 
University of Tokyo Team, {Faculty of Engineering, University of Tokyo

>  <COMMENT>  (5465) 
SMILES=Cn(c2)c(C(=O)1)c(n2)N(C)C(=O)N(C)1
InChI=InChI=1S/C8H10N4O2/c1-10-4-9-6-5(10)7(13)12(3)8(14)11(6)2/h4H,1-3H3
computed SMILES=O=C1C2=C(N=CN2C)N(C(=O)N1C)C
accession=JP003511
date=2016.01.19 (Created 2008.10.21, modified 2011.05.06)
author=YAMAMOTO M, DEP. CHEMISTRY, FAC. SCIENCE, NARA WOMEN'S UNIV.
license=CC BY-NC-SA
exact mass=194.08038
ionization energy=70 eV
ion type=[M]+*
computed spectral entropy=1.6401046716144596
computed normalized entropy=0.5915427190692507
SPLASH=splash10-0006-1900000000-2ba1fae6e27c7b836984
submitter=submitter = University of Tokyo Team (Faculty of Engineering, University of Tokyo)
MoNA Rating=3.75

>  <NUM PEAKS>  (5465) 
16

>  <MASS SPECTRAL PEAKS>  (5465) 
28 1.4
55 7.9
67 9.7
68 1
82 9.3
83 1.4
108 1
109 2.32
110 8.6
123 2.9
138 1.4
165 0.34
193 5.6
194 99.99
195 19.7
196 1.7

$$$$

     RDKit          2D

  9 10  0  0  0  0  0  0  0  0999 V2000
   -2.3100    0.7500    0.0000 C   0  0  0  0  0  0  0  0  0  0  0  0
   -2.3100   -0.7500    0.0000 C   0  0  0  0  0  0  0  0  0  0  0  0
   -1.0100    1.5000    0.0000 C   0  0  0  0  0  0  0  0  0  0  0  0
   -1.0100   -1.5000    0.0000 C   0  0  0  0  0  0  0  0  0  0  0  0
    2.6000   -0.0000    0.0000 C   0  0  0  0  0  0  0  0  0  0  0  0
    0.2900    0.7500    0.0000 C   0  0  0  0  0  0  0  0  0  0  0  0
    0.2900   -0.7500    0.0000 C   0  0  0  0  0  0  0  0  0  0  0  0
    1.7200    1.2100    0.0000 O   0  0  0  0  0  0  0  0  0  0  0  0
    1.7200   -1.2100    0.0000 O   0  0  0  0  0  0  0  0  0  0  0  0
  2  1  2  0
  3  1  1  0
  4  2  1  0
  6  3  2  0
  7  4  2  0
  7  6  1  0
  8  5  1  0
  8  6  1  0
  9  5  1  0
  9  7  1  0
M  END
>  <NAME>  (5466) 
1,3-BENZODIOXOLE

>  <SYNONYMS>  (5466) 


>  <SPECTRUM TYPE>  (5466) 
MS1

>  <INSTRUMENT TYPE>  (5466) 
EI-B

>  <INSTRUMENT>  (5466) 
HITACHI M-68

>  <ION MODE>  (5466) 
P

>  <INCHIKEY>  (5466) 
FTNJQNQLEGKTGD-UHFFFAOYSA-N

>  <FORMULA>  (5466) 
C7H6O2

>  <EXACT MASS>  (5466) 
122.036779432

>  <MW>  (5466) 
122

>  <ID>  (5466) 
JP003510

>  <CONTRIBUTOR>  (5466) 
University of Tokyo Team, {Faculty of Engineering, University of Tokyo

>  <COMMENT>  (5466) 
SMILES=c(c2)cc(O1)c(c2)OC1
InChI=InChI=1S/C7H6O2/c1-2-4-7-6(3-1)8-5-9-7/h1-4H,5H2
computed SMILES=O1C=2C=CC=CC2OC1
accession=JP003510
date=2016.01.19 (Created 2008.10.21, modified 2011.05.06)
author=YAMAMOTO M, DEP. CHEMISTRY, FAC. SCIENCE, NARA WOMEN'S UNIV.
license=CC BY-NC-SA
exact mass=122.03678
ionization energy=70 eV
ion type=[M]+*
computed spectral entropy=2.3384282354117034
computed normalized entropy=0.6944528646956144
SPLASH=splash10-00di-7900000000-0f0a5bb2c39c754f0997
submitter=submitter = University of Tokyo Team (Faculty of Engineering, University of Tokyo)
MoNA Rating=3.75

>  <NUM PEAKS>  (5466) 
29

>  <MASS SPECTRAL PEAKS>  (5466) 
14 3.1
18 12.6
26 4
27 1.7
28 13.6
30 1.4
39 9.1
40 3.2
41 1.9
43 0.16
49 1.6
50 5.7
51 5.2
52 0.41
54 2
57 1.3
61 6.8
62 0.91
63 36
64 21.3
65 11.7
66 1.07
77 1.9
79 2.5
92 2.3
93 0.13
121 99.99
122 68
123 6.1

$$$$

     RDKit          2D

  8  8  0  0  0  0  0  0  0  0999 V2000
   -1.3000    0.7500    0.0000 C   0  0  0  0  0  0  0  0  0  0  0  0
   -0.0000   -1.5000    0.0000 C   0  0  0  0  0  0  0  0  0  0  0  0
    0.0000    1.5000    0.0000 C   0  0  0  0  0  0  0  0  0  0  0  0
    1.3000   -0.7500    0.0000 C   0  0  0  0  0  0  0  0  0  0  0  0
   -1.3000   -0.7500    0.0000 C   0  0  0  0  0  0  0  0  0  0  0  0
    1.3000    0.7500    0.0000 C   0  0  0  0  0  0  0  0  0  0  0  0
   -2.5989   -1.5002    0.0000 Cl  0  0  0  0  0  0  0  0  0  0  0  0
    2.5989    1.5002    0.0000 N   0  0  0  0  0  0  0  0  0  0  0  0
  3  1  2  0
  4  2  1  0
  5  1  1  0
  5  2  2  0
  6  3  1  0
  6  4  2  0
  7  5  1  0
  8  6  1  0
M  END
>  <NAME>  (5467) 
P-CHLOROANILINE

>  <SYNONYMS>  (5467) 


>  <SPECTRUM TYPE>  (5467) 
MS1

>  <INSTRUMENT TYPE>  (5467) 
EI-B

>  <INSTRUMENT>  (5467) 
HITACHI M-68

>  <ION MODE>  (5467) 
P

>  <INCHIKEY>  (5467) 
QSNSCYSYFYORTR-UHFFFAOYSA-N

>  <FORMULA>  (5467) 
C6H6ClN

>  <EXACT MASS>  (5467) 
127.01887687199999

>  <MW>  (5467) 
127

>  <ID>  (5467) 
JP003509

>  <CONTRIBUTOR>  (5467) 
University of Tokyo Team, {Faculty of Engineering, University of Tokyo

>  <COMMENT>  (5467) 
SMILES=Nc(c1)ccc(Cl)c1
InChI=InChI=1S/C6H6ClN/c7-5-1-3-6(8)4-2-5/h1-4H,8H2
computed SMILES=ClC1=CC=C(N)C=C1
accession=JP003509
date=2016.01.19 (Created 2008.10.21, modified 2011.05.06)
author=YAMAMOTO M, DEP. CHEMISTRY, FAC. SCIENCE, NARA WOMEN'S UNIV.
license=CC BY-NC-SA
exact mass=127.01888
ionization energy=70 eV
ion type=[M]+*
computed spectral entropy=2.442347253318411
computed normalized entropy=0.7112278258138092
SPLASH=splash10-004i-7900000000-cafe0f1a1d9efab0a379
submitter=submitter = University of Tokyo Team (Faculty of Engineering, University of Tokyo)
MoNA Rating=3.75

>  <NUM PEAKS>  (5467) 
31

>  <MASS SPECTRAL PEAKS>  (5467) 
37 2.5
38 4.5
39 9.6
41 5.6
42 1.4
45.5 1.9
50 3.4
51 0.28
52 5.6
61 3
62 5.1
63 1.14
64 6.5
65 28.2
66 3.9
73 0.48
74 2.2
75 3.5
90 2.7
91 0.6
92 18.3
93 1.4
99 6
100 0.84
101 2.8
102 2.6
126 1.9
127 99.99
128 8.8
129 27.2
130 2.8

$$$$

     RDKit          2D

  8  8  0  0  0  0  0  0  0  0999 V2000
    2.2733   -2.4375    0.0000 C   0  0  0  0  0  0  0  0  0  0  0  0
    2.2738   -0.9367    0.0000 C   0  0  0  0  0  0  0  0  0  0  0  0
    0.9738   -3.1883    0.0000 C   0  0  0  0  0  0  0  0  0  0  0  0
    0.9748   -0.1867    0.0000 C   0  0  0  0  0  0  0  0  0  0  0  0
   -0.3252   -2.4383    0.0000 C   0  0  0  0  0  0  0  0  0  0  0  0
   -1.6238   -0.1875    0.0000 N   0  0  0  0  0  0  0  0  0  0  0  0
   -0.3248   -0.9375    0.0000 N   0  0  0  0  0  0  0  0  0  0  0  0
   -2.9228   -0.9375    0.0000 O   0  0  0  0  0  0  0  0  0  0  0  0
  2  1  1  0
  3  1  1  0
  4  2  1  0
  5  3  1  0
  7  4  1  0
  7  5  1  0
  7  6  1  0
  8  6  2  0
M  END
>  <NAME>  (5468) 
NITROSOPIPERIDINE

>  <SYNONYMS>  (5468) 


>  <SPECTRUM TYPE>  (5468) 
MS1

>  <INSTRUMENT TYPE>  (5468) 
EI-B

>  <INSTRUMENT>  (5468) 
VARIAN MAT-44

>  <ION MODE>  (5468) 
P

>  <INCHIKEY>  (5468) 
UWSDONTXWQOZFN-UHFFFAOYSA-N

>  <FORMULA>  (5468) 
C5H10N2O

>  <EXACT MASS>  (5468) 
114.07931294

>  <MW>  (5468) 
114

>  <ID>  (5468) 
JP003292

>  <CONTRIBUTOR>  (5468) 
University of Tokyo Team, {Faculty of Engineering, University of Tokyo

>  <COMMENT>  (5468) 
SMILES=O=NN(C1)CCCC1
InChI=InChI=1S/C5H10N2O/c8-6-7-4-2-1-3-5-7/h1-5H2
computed SMILES=O=NN1CCCCC1
accession=JP003292
date=2016.01.19 (Created 2008.10.21, modified 2011.05.06)
author=KOGA M, UNIV. OF OCCUPATIONAL AND ENVIRONMENTAL HEALTH
license=CC BY-NC-SA
exact mass=114.07931
ionization energy=70 eV
ion type=[M]+*
computed spectral entropy=1.8632265089935163
computed normalized entropy=0.6880324848613072
SPLASH=splash10-0a4i-9100000000-d4d06a856b940bcb0461
submitter=submitter = University of Tokyo Team (Faculty of Engineering, University of Tokyo)
MoNA Rating=3.75

>  <NUM PEAKS>  (5468) 
15

>  <MASS SPECTRAL PEAKS>  (5468) 
51 3.29
52 2.64
53 8.36
54 16.62
55 99.99
56 44.19
57 5.88
67 4.2
68 2.21
69 2.1
82 3.93
83 4.1
84 4.85
114 26.71
115 1.8

$$$$

     RDKit          2D

 11 10  0  0  0  0  0  0  0  0999 V2000
    2.5981    4.5000    0.0000 C   0  0  0  0  0  0  0  0  0  0  0  0
   -7.7942    4.5000    0.0000 C   0  0  0  0  0  0  0  0  0  0  0  0
    1.2990    5.2500    0.0000 C   0  0  0  0  0  0  0  0  0  0  0  0
   -6.4952    5.2500    0.0000 C   0  0  0  0  0  0  0  0  0  0  0  0
    0.0000    4.5000    0.0000 C   0  0  0  0  0  0  0  0  0  0  0  0
   -5.1962    4.5000    0.0000 C   0  0  0  0  0  0  0  0  0  0  0  0
   -1.2990    5.2500    0.0000 C   0  0  0  0  0  0  0  0  0  0  0  0
   -3.8971    5.2500    0.0000 C   0  0  0  0  0  0  0  0  0  0  0  0
   -2.5981    3.0000    0.0000 N   0  0  0  0  0  0  0  0  0  0  0  0
   -2.5981    4.5000    0.0000 N   0  0  0  0  0  0  0  0  0  0  0  0
   -1.2990    2.2500    0.0000 O   0  0  0  0  0  0  0  0  0  0  0  0
  3  1  1  0
  4  2  1  0
  5  3  1  0
  6  4  1  0
  7  5  1  0
  8  6  1  0
 10  7  1  0
 10  8  1  0
 10  9  1  0
 11  9  2  0
M  END
>  <NAME>  (5469) 
N,N-DIBUTYLNITROSOAMINE

>  <SYNONYMS>  (5469) 


>  <SPECTRUM TYPE>  (5469) 
MS1

>  <INSTRUMENT TYPE>  (5469) 
EI-B

>  <INSTRUMENT>  (5469) 
VARIAN MAT-44

>  <ION MODE>  (5469) 
P

>  <INCHIKEY>  (5469) 
YGJHZCLPZAZIHH-UHFFFAOYSA-N

>  <FORMULA>  (5469) 
C8H18N2O

>  <EXACT MASS>  (5469) 
158.141913196

>  <MW>  (5469) 
158

>  <ID>  (5469) 
JP003291

>  <CONTRIBUTOR>  (5469) 
University of Tokyo Team, {Faculty of Engineering, University of Tokyo

>  <COMMENT>  (5469) 
SMILES=CCCCN(N=O)CCCC
InChI=InChI=1S/C8H18N2O/c1-3-5-7-10(9-11)8-6-4-2/h3-8H2,1-2H3
computed SMILES=O=NN(CCCC)CCCC
accession=JP003291
date=2016.01.19 (Created 2008.10.21, modified 2011.05.06)
author=KOGA M, UNIV. OF OCCUPATIONAL AND ENVIRONMENTAL HEALTH
license=CC BY-NC-SA
exact mass=158.14191
ionization energy=70 eV
ion type=[M]+*
computed spectral entropy=1.834256489052067
computed normalized entropy=0.6950423048670483
SPLASH=splash10-0a59-9000000000-8b188506108871f09d92
submitter=submitter = University of Tokyo Team (Faculty of Engineering, University of Tokyo)
MoNA Rating=3.75

>  <NUM PEAKS>  (5469) 
14

>  <MASS SPECTRAL PEAKS>  (5469) 
53 2.23
56 23.42
57 99.99
58 5.81
70 6.96
72 4.15
74 6.6
83 2.59
84 62.05
85 5.63
86 5.3
99 7.83
115 4.22
116 6.13

$$$$

     RDKit          2D

 11 10  0  0  0  0  0  0  0  0999 V2000
    2.2733    2.8125    0.0000 C   0  0  0  0  0  0  0  0  0  0  0  0
    0.9743    5.0625    0.0000 C   0  0  0  0  0  0  0  0  0  0  0  0
   -5.5209    2.8125    0.0000 C   0  0  0  0  0  0  0  0  0  0  0  0
   -4.2219    5.0625    0.0000 C   0  0  0  0  0  0  0  0  0  0  0  0
   -0.3248    2.8125    0.0000 C   0  0  0  0  0  0  0  0  0  0  0  0
   -2.9228    2.8125    0.0000 C   0  0  0  0  0  0  0  0  0  0  0  0
    0.9743    3.5625    0.0000 C   0  0  0  0  0  0  0  0  0  0  0  0
   -4.2219    3.5625    0.0000 C   0  0  0  0  0  0  0  0  0  0  0  0
   -1.6238    5.0625    0.0000 N   0  0  0  0  0  0  0  0  0  0  0  0
   -1.6238    3.5625    0.0000 N   0  0  0  0  0  0  0  0  0  0  0  0
   -2.9228    5.8125    0.0000 O   0  0  0  0  0  0  0  0  0  0  0  0
  7  1  1  0
  7  2  1  0
  7  5  1  0
  8  3  1  0
  8  4  1  0
  8  6  1  0
 10  5  1  0
 10  6  1  0
 10  9  1  0
 11  9  2  0
M  END
>  <NAME>  (5470) 
N,N-DIISOBUTYLNITROSOAMINE

>  <SYNONYMS>  (5470) 


>  <SPECTRUM TYPE>  (5470) 
MS1

>  <INSTRUMENT TYPE>  (5470) 
EI-B

>  <INSTRUMENT>  (5470) 
VARIAN MAT-44

>  <ION MODE>  (5470) 
P

>  <INCHIKEY>  (5470) 
XLZCLFRMPCBSDI-UHFFFAOYSA-N

>  <FORMULA>  (5470) 
C8H18N2O

>  <EXACT MASS>  (5470) 
158.141913196

>  <MW>  (5470) 
158

>  <ID>  (5470) 
JP003290

>  <CONTRIBUTOR>  (5470) 
University of Tokyo Team, {Faculty of Engineering, University of Tokyo

>  <COMMENT>  (5470) 
SMILES=O=NN(CC(C)C)CC(C)C
InChI=InChI=1S/C8H18N2O/c1-7(2)5-10(9-11)6-8(3)4/h7-8H,5-6H2,1-4H3
computed SMILES=O=NN(CC(C)C)CC(C)C
accession=JP003290
date=2016.01.19 (Created 2008.10.21, modified 2011.05.06)
author=KOGA M, UNIV. OF OCCUPATIONAL AND ENVIRONMENTAL HEALTH
license=CC BY-NC-SA
exact mass=158.14191
ionization energy=70 eV
ion type=[M]+*
computed spectral entropy=1.8132134701497529
computed normalized entropy=0.7069197935136788
SPLASH=splash10-0a4i-9000000000-798c08102f15dfb9267f
submitter=submitter = University of Tokyo Team (Faculty of Engineering, University of Tokyo)
MoNA Rating=3.75

>  <NUM PEAKS>  (5470) 
13

>  <MASS SPECTRAL PEAKS>  (5470) 
54 2.28
55 21.74
56 31.04
57 99.99
58 3.93
70 4.57
72 3.02
73 8.42
84 35.62
85 5.9
86 5.44
103 2.28
115 3.29

$$$$

     RDKit          2D

  9  8  0  0  0  0  0  0  0  0999 V2000
    1.9486    3.3750    0.0000 C   0  0  0  0  0  0  0  0  0  0  0  0
   -5.8457    3.3750    0.0000 C   0  0  0  0  0  0  0  0  0  0  0  0
    0.6495    4.1250    0.0000 C   0  0  0  0  0  0  0  0  0  0  0  0
   -4.5466    4.1250    0.0000 C   0  0  0  0  0  0  0  0  0  0  0  0
   -0.6495    3.3750    0.0000 C   0  0  0  0  0  0  0  0  0  0  0  0
   -3.2476    3.3750    0.0000 C   0  0  0  0  0  0  0  0  0  0  0  0
   -1.9486    5.6250    0.0000 N   0  0  0  0  0  0  0  0  0  0  0  0
   -1.9486    4.1250    0.0000 N   0  0  0  0  0  0  0  0  0  0  0  0
   -3.2476    6.3750    0.0000 O   0  0  0  0  0  0  0  0  0  0  0  0
  3  1  1  0
  4  2  1  0
  5  3  1  0
  6  4  1  0
  8  5  1  0
  8  6  1  0
  8  7  1  0
  9  7  2  0
M  END
>  <NAME>  (5471) 
N,N-DIPROPYLNITROSOAMINE

>  <SYNONYMS>  (5471) 


>  <SPECTRUM TYPE>  (5471) 
MS1

>  <INSTRUMENT TYPE>  (5471) 
EI-B

>  <INSTRUMENT>  (5471) 
VARIAN MAT-44

>  <ION MODE>  (5471) 
P

>  <INCHIKEY>  (5471) 
YLKFDHTUAUWZPQ-UHFFFAOYSA-N

>  <FORMULA>  (5471) 
C6H14N2O

>  <EXACT MASS>  (5471) 
130.110613068

>  <MW>  (5471) 
130

>  <ID>  (5471) 
JP003289

>  <CONTRIBUTOR>  (5471) 
University of Tokyo Team, {Faculty of Engineering, University of Tokyo

>  <COMMENT>  (5471) 
SMILES=CCCN(N=O)CCC
InChI=InChI=1S/C6H14N2O/c1-3-5-8(7-9)6-4-2/h3-6H2,1-2H3
computed SMILES=O=NN(CCC)CCC
accession=JP003289
date=2016.01.19 (Created 2008.10.21, modified 2011.05.06)
author=KOGA M, UNIV. OF OCCUPATIONAL AND ENVIRONMENTAL HEALTH
license=CC BY-NC-SA
exact mass=130.11061
ionization energy=70 eV
ion type=[M]+*
computed spectral entropy=1.5446045964162356
computed normalized entropy=0.6441501486483455
SPLASH=splash10-00di-9000000000-b3c25d2c178230284d42
submitter=submitter = University of Tokyo Team (Faculty of Engineering, University of Tokyo)
MoNA Rating=3.75

>  <NUM PEAKS>  (5471) 
11

>  <MASS SPECTRAL PEAKS>  (5471) 
54 2.58
56 7.74
57 3.26
58 29.07
59 4.61
69 2.17
70 99.99
71 18.88
101 4.61
113 3.66
130 5.29

$$$$

     RDKit          2D

  7  6  0  0  0  0  0  0  0  0999 V2000
    1.2990    2.2500    0.0000 C   0  0  0  0  0  0  0  0  0  0  0  0
   -3.8971    2.2500    0.0000 C   0  0  0  0  0  0  0  0  0  0  0  0
    0.0000    3.0000    0.0000 C   0  0  0  0  0  0  0  0  0  0  0  0
   -2.5981    3.0000    0.0000 C   0  0  0  0  0  0  0  0  0  0  0  0
   -1.2990    0.7500    0.0000 N   0  0  0  0  0  0  0  0  0  0  0  0
   -1.2990    2.2500    0.0000 N   0  0  0  0  0  0  0  0  0  0  0  0
   -0.0000    0.0000    0.0000 O   0  0  0  0  0  0  0  0  0  0  0  0
  3  1  1  0
  4  2  1  0
  6  3  1  0
  6  4  1  0
  6  5  1  0
  7  5  2  0
M  END
>  <NAME>  (5472) 
N,N-DIETHYLNITROSOAMINE

>  <SYNONYMS>  (5472) 


>  <SPECTRUM TYPE>  (5472) 
MS1

>  <INSTRUMENT TYPE>  (5472) 
EI-B

>  <INSTRUMENT>  (5472) 
VARIAN MAT-44

>  <ION MODE>  (5472) 
P

>  <INCHIKEY>  (5472) 
WBNQDOYYEUMPFS-UHFFFAOYSA-N

>  <FORMULA>  (5472) 
C4H10N2O

>  <EXACT MASS>  (5472) 
102.07931294

>  <MW>  (5472) 
102

>  <ID>  (5472) 
JP003288

>  <CONTRIBUTOR>  (5472) 
University of Tokyo Team, {Faculty of Engineering, University of Tokyo

>  <COMMENT>  (5472) 
SMILES=CCN(CC)N=O
InChI=InChI=1S/C4H10N2O/c1-3-6(4-2)5-7/h3-4H2,1-2H3
computed SMILES=O=NN(CC)CC
accession=JP003288
date=2016.01.19 (Created 2008.10.21, modified 2011.05.06)
author=KOGA M, UNIV. OF OCCUPATIONAL AND ENVIRONMENTAL HEALTH
license=CC BY-NC-SA
exact mass=102.07931
ionization energy=70 eV
ion type=[M]+*
computed spectral entropy=1.4834959129513565
computed normalized entropy=0.6442740889208008
SPLASH=splash10-0a4i-9200000000-23e0ba5d7996264681ae
submitter=submitter = University of Tokyo Team (Faculty of Engineering, University of Tokyo)
MoNA Rating=3.75

>  <NUM PEAKS>  (5472) 
10

>  <MASS SPECTRAL PEAKS>  (5472) 
54 3.43
55 5.48
56 99.99
57 99.72
70 3.81
71 5.66
85 5.01
87 3.25
102 51.48
103 2.78

$$$$

     RDKit          2D

 14 14  0  0  0  0  0  0  0  0999 V2000
    2.9576    3.9550    0.0000 C   0  0  0  0  0  0  0  0  0  0  0  0
   -0.9400    1.7058    0.0000 C   0  0  0  0  0  0  0  0  0  0  0  0
    0.3590    2.4558    0.0000 C   0  0  0  0  0  0  0  0  0  0  0  0
    0.3600   -0.5458    0.0000 C   0  0  0  0  0  0  0  0  0  0  0  0
   -0.9395    0.2050    0.0000 C   0  0  0  0  0  0  0  0  0  0  0  0
    1.6586    1.7050    0.0000 C   0  0  0  0  0  0  0  0  0  0  0  0
    1.6590    0.2042    0.0000 C   0  0  0  0  0  0  0  0  0  0  0  0
    2.9576    2.4550    0.0000 N   0  0  0  0  0  0  0  0  0  0  0  0
   -2.2386   -0.5450    0.0000 N   0  0  0  0  0  0  0  0  0  0  0  0
    2.9582   -0.5456    0.0000 N   0  0  0  0  0  0  0  0  0  0  0  0
   -3.5376    0.2050    0.0000 O   0  0  0  0  0  0  0  0  0  0  0  0
   -2.2386   -2.0450    0.0000 O   0  0  0  0  0  0  0  0  0  0  0  0
    4.2571    0.2046    0.0000 O   0  0  0  0  0  0  0  0  0  0  0  0
    2.9584   -2.0456    0.0000 O   0  0  0  0  0  0  0  0  0  0  0  0
  3  2  2  0
  5  2  1  0
  5  4  2  0
  6  3  1  0
  7  4  1  0
  7  6  2  0
  8  1  1  0
  8  6  1  0
  9  5  1  0
 10  7  1  0
 11  9  1  0
 12  9  2  0
 13 10  1  0
 14 10  2  0
M  CHG  4   9   1  10   1  11  -1  13  -1
M  END
>  <NAME>  (5473) 
N-METHYL-2,4-DINITROBENZENAMINE

>  <SYNONYMS>  (5473) 


>  <SPECTRUM TYPE>  (5473) 
MS1

>  <INSTRUMENT TYPE>  (5473) 
EI-B

>  <INSTRUMENT>  (5473) 
VARIAN MAT-44

>  <ION MODE>  (5473) 
P

>  <INCHIKEY>  (5473) 
IQEJEZOCXWJNKR-UHFFFAOYSA-N

>  <FORMULA>  (5473) 
C7H7N3O4

>  <EXACT MASS>  (5473) 
197.043655704

>  <MW>  (5473) 
197

>  <ID>  (5473) 
JP003270

>  <CONTRIBUTOR>  (5473) 
University of Tokyo Team, {Faculty of Engineering, University of Tokyo

>  <COMMENT>  (5473) 
SMILES=CNc(c1)c([N+1]([O-1])=O)cc(c1)[N+1]([O-1])=O
cas=2044-88-4
InChI=InChI=1S/C7H7N3O4/c1-8-6-3-2-5(9(11)12)4-7(6)10(13)14/h2-4,8H,1H3
computed SMILES=O=N(=O)C1=CC=C(NC)C(=C1)N(=O)=O
accession=JP003270
date=2016.01.19 (Created 2008.10.21, modified 2011.05.06)
author=KOGA M, UNIV. OF OCCUPATIONAL AND ENVIRONMENTAL HEALTH
license=CC BY-NC-SA
exact mass=197.04366
ionization energy=70 eV
ion type=[M]+*
computed spectral entropy=3.23728946486985
computed normalized entropy=0.8775807139101655
SPLASH=splash10-0kdi-9200000000-e781ad70b4a4729292e9
submitter=submitter = University of Tokyo Team (Faculty of Engineering, University of Tokyo)
MoNA Rating=3.75

>  <NUM PEAKS>  (5473) 
40

>  <MASS SPECTRAL PEAKS>  (5473) 
51 90.34
52 63.63
53 24.43
54 16.47
55 11.93
58 38.63
61 10.79
62 27.27
63 61.93
64 27.27
65 24.43
66 52.84
67 18.18
68 3.97
72 2.84
74 17.61
75 26.13
76 65.34
77 44.88
78 99.99
79 28.97
80 13.06
81 2.27
88 2.27
90 7.38
91 5.68
92 14.77
93 20.45
94 7.38
103 8.52
104 48.86
105 81.25
106 13.63
118 3.97
120 2.84
121 7.38
133 4.54
134 3.4
150 2.27
197 9.09

$$$$

     RDKit          2D

 13 13  0  0  0  0  0  0  0  0999 V2000
    2.6334   -2.6082    0.0000 C   0  0  0  0  0  0  0  0  0  0  0  0
    1.3344   -3.3582    0.0000 C   0  0  0  0  0  0  0  0  0  0  0  0
    1.3334   -0.3565    0.0000 C   0  0  0  0  0  0  0  0  0  0  0  0
    2.6329   -1.1073    0.0000 C   0  0  0  0  0  0  0  0  0  0  0  0
    0.0348   -2.6073    0.0000 C   0  0  0  0  0  0  0  0  0  0  0  0
    0.0344   -1.1065    0.0000 C   0  0  0  0  0  0  0  0  0  0  0  0
   -1.2642   -3.3573    0.0000 N   0  0  0  0  0  0  0  0  0  0  0  0
    3.9320   -0.3573    0.0000 N   0  0  0  0  0  0  0  0  0  0  0  0
   -1.2648   -0.3567    0.0000 N   0  0  0  0  0  0  0  0  0  0  0  0
    5.2310   -1.1073    0.0000 O   0  0  0  0  0  0  0  0  0  0  0  0
    3.9320    1.1427    0.0000 O   0  0  0  0  0  0  0  0  0  0  0  0
   -2.5637   -1.1069    0.0000 O   0  0  0  0  0  0  0  0  0  0  0  0
   -1.2650    1.1433    0.0000 O   0  0  0  0  0  0  0  0  0  0  0  0
  2  1  2  0
  4  1  1  0
  4  3  2  0
  5  2  1  0
  6  3  1  0
  6  5  2  0
  7  5  1  0
  8  4  1  0
  9  6  1  0
 10  8  1  0
 11  8  2  0
 12  9  1  0
 13  9  2  0
M  CHG  4   8   1   9   1  10  -1  12  -1
M  END
>  <NAME>  (5474) 
2,4-DINITROANILINE

>  <SYNONYMS>  (5474) 


>  <SPECTRUM TYPE>  (5474) 
MS1

>  <INSTRUMENT TYPE>  (5474) 
EI-B

>  <INSTRUMENT>  (5474) 
VARIAN MAT-44

>  <ION MODE>  (5474) 
P

>  <INCHIKEY>  (5474) 
LXQOQPGNCGEELI-UHFFFAOYSA-N

>  <FORMULA>  (5474) 
C6H5N3O4

>  <EXACT MASS>  (5474) 
183.02800564

>  <MW>  (5474) 
183

>  <ID>  (5474) 
JP003269

>  <CONTRIBUTOR>  (5474) 
University of Tokyo Team, {Faculty of Engineering, University of Tokyo

>  <COMMENT>  (5474) 
SMILES=[O-1][N+1](=O)c(c1)cc([N+1]([O-1])=O)c(N)c1
InChI=InChI=1S/C6H5N3O4/c7-5-2-1-4(8(10)11)3-6(5)9(12)13/h1-3H,7H2
computed SMILES=O=N(=O)C1=CC=C(N)C(=C1)N(=O)=O
accession=JP003269
date=2016.01.19 (Created 2008.10.21, modified 2011.05.06)
author=KOGA M, UNIV. OF OCCUPATIONAL AND ENVIRONMENTAL HEALTH
license=CC BY-NC-SA
exact mass=183.02801
ionization energy=70 eV
ion type=[M]+*
computed spectral entropy=2.724126288867948
computed normalized entropy=0.8265355354709991
SPLASH=splash10-0w29-9000000000-9bb47c9c8678fcb1566d
submitter=submitter = University of Tokyo Team (Faculty of Engineering, University of Tokyo)
MoNA Rating=3.75

>  <NUM PEAKS>  (5474) 
27

>  <MASS SPECTRAL PEAKS>  (5474) 
51 22.61
52 99.99
53 17.48
54 5.12
58 7.45
61 7.69
62 19.11
63 39.16
64 45.45
65 15.15
66 9.79
67 3.96
75 2.09
76 4.19
77 2.79
78 6.29
79 12.12
80 3.49
89 3.03
90 6.29
91 30.06
92 6.06
93 2.56
95 2.09
107 8.39
153 7.22
183 10.95

$$$$

     RDKit          2D

  8  8  0  0  0  0  0  0  0  0999 V2000
   -3.5067   -1.3755    0.0000 C   0  0  0  0  0  0  0  0  0  0  0  0
    2.3854    1.2910    0.0000 C   0  0  0  0  0  0  0  0  0  0  0  0
   -2.6985   -0.1119    0.0000 C   0  0  0  0  0  0  0  0  0  0  0  0
    1.0500   -1.0400    0.0000 C   0  0  0  0  0  0  0  0  0  0  0  0
    1.1300    0.4700    0.0000 C   0  0  0  0  0  0  0  0  0  0  0  0
   -1.2000   -0.1800    0.0000 C   0  0  0  0  0  0  0  0  0  0  0  0
   -0.3900   -1.4400    0.0000 N   0  0  0  0  0  0  0  0  0  0  0  0
   -0.2800    1.0000    0.0000 N   0  0  0  0  0  0  0  0  0  0  0  0
  3  1  1  0
  5  2  1  0
  5  4  1  0
  6  3  1  0
  7  4  1  0
  7  6  2  0
  8  5  1  0
  8  6  1  0
M  END
>  <NAME>  (5475) 
2-ETHYL-4-METHYL-IMIDAZOLINE

>  <SYNONYMS>  (5475) 


>  <SPECTRUM TYPE>  (5475) 
MS1

>  <INSTRUMENT TYPE>  (5475) 
EI-B

>  <INSTRUMENT>  (5475) 
HITACHI RMU-7

>  <ION MODE>  (5475) 
P

>  <INCHIKEY>  (5475) 
SHYARJUKNREDGB-UHFFFAOYSA-N

>  <FORMULA>  (5475) 
C6H12N2

>  <EXACT MASS>  (5475) 
112.10004838399999

>  <MW>  (5475) 
112

>  <ID>  (5475) 
JP003268

>  <CONTRIBUTOR>  (5475) 
University of Tokyo Team, {Faculty of Engineering, University of Tokyo

>  <COMMENT>  (5475) 
SMILES=CCC(N1)=NC(C)C1
InChI=InChI=1S/C6H12N2/c1-3-6-7-4-5(2)8-6/h5H,3-4H2,1-2H3,(H,7,8)
computed SMILES=N1=C(NC(C)C1)CC
accession=JP003268
date=2016.01.19 (Created 2008.10.21, modified 2011.05.06)
author=MASS SPECTROSCOPY SOC. OF JAPAN (MSSJ)
license=CC BY-NC-SA
exact mass=112.10005
ionization energy=70 eV
ion type=[M]+*
computed spectral entropy=2.761382485583579
computed normalized entropy=0.8688910361475066
SPLASH=splash10-02u1-9100000000-456a596c8281d18eea2f
submitter=submitter = University of Tokyo Team (Faculty of Engineering, University of Tokyo)
MoNA Rating=3.75

>  <NUM PEAKS>  (5475) 
24

>  <MASS SPECTRAL PEAKS>  (5475) 
39 15
40 7
41 38
42 32
43 7
44 7
54 52
55 14
56 54
57 6
68 46
69 99.99
70 12
81 5
82 63
83 78
84 8
95 9
96 7
97 98
98 9
111 32
112 89
113 9

$$$$

     RDKit          2D

  7  7  0  0  0  0  0  0  0  0999 V2000
    2.3854    1.2910    0.0000 C   0  0  0  0  0  0  0  0  0  0  0  0
   -2.6985   -0.1119    0.0000 C   0  0  0  0  0  0  0  0  0  0  0  0
    1.0500   -1.0400    0.0000 C   0  0  0  0  0  0  0  0  0  0  0  0
    1.1300    0.4700    0.0000 C   0  0  0  0  0  0  0  0  0  0  0  0
   -1.2000   -0.1800    0.0000 C   0  0  0  0  0  0  0  0  0  0  0  0
   -0.3900   -1.4400    0.0000 N   0  0  0  0  0  0  0  0  0  0  0  0
   -0.2800    1.0000    0.0000 N   0  0  0  0  0  0  0  0  0  0  0  0
  4  1  1  0
  4  3  1  0
  5  2  1  0
  6  3  1  0
  6  5  2  0
  7  4  1  0
  7  5  1  0
M  END
>  <NAME>  (5476) 
2,4-DIMETHYL IMIDAZOLINE

>  <SYNONYMS>  (5476) 


>  <SPECTRUM TYPE>  (5476) 
MS1

>  <INSTRUMENT TYPE>  (5476) 
EI-B

>  <INSTRUMENT>  (5476) 
HITACHI RMU-7

>  <ION MODE>  (5476) 
P

>  <INCHIKEY>  (5476) 
DIHAURBCYGTGCV-UHFFFAOYSA-N

>  <FORMULA>  (5476) 
C5H10N2

>  <EXACT MASS>  (5476) 
98.08439831999999

>  <MW>  (5476) 
98

>  <ID>  (5476) 
JP003267

>  <CONTRIBUTOR>  (5476) 
University of Tokyo Team, {Faculty of Engineering, University of Tokyo

>  <COMMENT>  (5476) 
SMILES=CC(C1)N=C(C)N1
InChI=InChI=1S/C5H10N2/c1-4-3-6-5(2)7-4/h4H,3H2,1-2H3,(H,6,7)
computed SMILES=N1=C(NC(C)C1)C
accession=JP003267
date=2016.01.19 (Created 2008.10.21, modified 2011.05.06)
author=MASS SPECTROSCOPY SOC. OF JAPAN (MSSJ)
license=CC BY-NC-SA
exact mass=98.0844
ionization energy=70 eV
ion type=[M]+*
computed spectral entropy=2.5017755169678444
computed normalized entropy=0.8496611866196961
SPLASH=splash10-067m-9000000000-85f00966cfcc80571526
submitter=submitter = University of Tokyo Team (Faculty of Engineering, University of Tokyo)
MoNA Rating=3.75

>  <NUM PEAKS>  (5476) 
19

>  <MASS SPECTRAL PEAKS>  (5476) 
39 8
40 8
41 20
42 76
43 10
44 13
52 6
53 3
54 38
55 88
56 8
68 50
69 70
82 6
83 99.99
84 14
97 25
98 78
99 8

$$$$

     RDKit          2D

 16 16  0  0  0  0  0  0  0  0999 V2000
   13.5530   -3.9091    0.0000 C   0  0  0  0  0  0  0  0  0  0  0  0
   12.2559   -4.6623    0.0000 C   0  0  0  0  0  0  0  0  0  0  0  0
   10.9550   -3.9156    0.0000 C   0  0  0  0  0  0  0  0  0  0  0  0
    9.6578   -4.6688    0.0000 C   0  0  0  0  0  0  0  0  0  0  0  0
    8.3569   -3.9220    0.0000 C   0  0  0  0  0  0  0  0  0  0  0  0
    7.0597   -4.6753    0.0000 C   0  0  0  0  0  0  0  0  0  0  0  0
    5.7588   -3.9285    0.0000 C   0  0  0  0  0  0  0  0  0  0  0  0
    4.4617   -4.6817    0.0000 C   0  0  0  0  0  0  0  0  0  0  0  0
    3.1608   -3.9350    0.0000 C   0  0  0  0  0  0  0  0  0  0  0  0
    1.8636   -4.6882    0.0000 C   0  0  0  0  0  0  0  0  0  0  0  0
    0.5627   -3.9415    0.0000 C   0  0  0  0  0  0  0  0  0  0  0  0
   -2.3538   -6.4931    0.0000 C   0  0  0  0  0  0  0  0  0  0  0  0
   -3.1012   -5.2011    0.0000 C   0  0  0  0  0  0  0  0  0  0  0  0
   -0.7345   -4.6947    0.0000 C   0  0  0  0  0  0  0  0  0  0  0  0
   -0.8827   -6.1894    0.0000 N   0  0  0  0  0  0  0  0  0  0  0  0
   -2.0975   -4.0864    0.0000 N   0  0  0  0  0  0  0  0  0  0  0  0
  2  1  1  0
  3  2  1  0
  4  3  1  0
  5  4  1  0
  6  5  1  0
  7  6  1  0
  8  7  1  0
  9  8  1  0
 10  9  1  0
 11 10  1  0
 13 12  1  0
 14 11  1  0
 15 12  1  0
 15 14  2  0
 16 13  1  0
 16 14  1  0
M  END
>  <NAME>  (5477) 
2-UNDECYL IMIDAZOLINE

>  <SYNONYMS>  (5477) 


>  <SPECTRUM TYPE>  (5477) 
MS1

>  <INSTRUMENT TYPE>  (5477) 
EI-B

>  <INSTRUMENT>  (5477) 
HITACHI RMU-7

>  <ION MODE>  (5477) 
P

>  <INCHIKEY>  (5477) 
FQHUDZKKDCTQET-UHFFFAOYSA-N

>  <FORMULA>  (5477) 
C14H28N2

>  <EXACT MASS>  (5477) 
224.22524889599998

>  <MW>  (5477) 
224

>  <ID>  (5477) 
JP003265

>  <CONTRIBUTOR>  (5477) 
University of Tokyo Team, {Faculty of Engineering, University of Tokyo

>  <COMMENT>  (5477) 
SMILES=CCCCCCCCCCCC(N1)=NCC1
InChI=InChI=1S/C14H28N2/c1-2-3-4-5-6-7-8-9-10-11-14-15-12-13-16-14/h2-13H2,1H3,(H,15,16)
computed SMILES=N1=C(NCC1)CCCCCCCCCCC
accession=JP003265
date=2016.01.19 (Created 2008.10.21, modified 2011.05.06)
author=MASS SPECTROSCOPY SOC. OF JAPAN (MSSJ)
license=CC BY-NC-SA
exact mass=224.22525
ionization energy=70 eV
ion type=[M]+*
computed spectral entropy=2.5675223679220536
computed normalized entropy=0.9062227429178412
SPLASH=splash10-0012-9410000000-24ab52daacd596075c81
submitter=submitter = University of Tokyo Team (Faculty of Engineering, University of Tokyo)
MoNA Rating=3.75

>  <NUM PEAKS>  (5477) 
17

>  <MASS SPECTRAL PEAKS>  (5477) 
41 18
43 13
55 21
82 14
84 99.99
85 17
97 72
98 41
111 21
125 17
139 44
153 18
167 14
181 12
191 14
223 17
224 18

$$$$

     RDKit          2D

 11 12  0  0  0  0  0  0  0  0999 V2000
    5.0503    1.0174    0.0000 C   0  0  0  0  0  0  0  0  0  0  0  0
    3.7489    1.7650    0.0000 C   0  0  0  0  0  0  0  0  0  0  0  0
    5.0545   -0.4835    0.0000 C   0  0  0  0  0  0  0  0  0  0  0  0
    2.4518    1.0117    0.0000 C   0  0  0  0  0  0  0  0  0  0  0  0
    3.7574   -1.2367    0.0000 C   0  0  0  0  0  0  0  0  0  0  0  0
   -0.4605   -3.0408    0.0000 C   0  0  0  0  0  0  0  0  0  0  0  0
   -1.2079   -1.7487    0.0000 C   0  0  0  0  0  0  0  0  0  0  0  0
    2.4560   -0.4891    0.0000 C   0  0  0  0  0  0  0  0  0  0  0  0
    1.1588   -1.2423    0.0000 C   0  0  0  0  0  0  0  0  0  0  0  0
    1.0106   -2.7371    0.0000 N   0  0  0  0  0  0  0  0  0  0  0  0
   -0.2042   -0.6340    0.0000 N   0  0  0  0  0  0  0  0  0  0  0  0
  2  1  2  0
  3  1  1  0
  4  2  1  0
  5  3  2  0
  7  6  1  0
  8  4  2  0
  8  5  1  0
  9  8  1  0
 10  6  1  0
 10  9  2  0
 11  7  1  0
 11  9  1  0
M  END
>  <NAME>  (5478) 
2-PHENYL IMIDAZOLINE

>  <SYNONYMS>  (5478) 


>  <SPECTRUM TYPE>  (5478) 
MS1

>  <INSTRUMENT TYPE>  (5478) 
EI-B

>  <INSTRUMENT>  (5478) 
HITACHI RMU-7

>  <ION MODE>  (5478) 
P

>  <INCHIKEY>  (5478) 
BKCCAYLNRIRKDJ-UHFFFAOYSA-N

>  <FORMULA>  (5478) 
C9H10N2

>  <EXACT MASS>  (5478) 
146.08439832

>  <MW>  (5478) 
146

>  <ID>  (5478) 
JP003264

>  <CONTRIBUTOR>  (5478) 
University of Tokyo Team, {Faculty of Engineering, University of Tokyo

>  <COMMENT>  (5478) 
SMILES=c(c2)ccc(c2)C(N1)=NCC1
InChI=InChI=1S/C9H10N2/c1-2-4-8(5-3-1)9-10-6-7-11-9/h1-5H,6-7H2,(H,10,11)
computed SMILES=N1=C(NCC1)C=2C=CC=CC2
accession=JP003264
date=2016.01.19 (Created 2008.10.21, modified 2011.05.06)
author=MASS SPECTROSCOPY SOC. OF JAPAN (MSSJ)
license=CC BY-NC-SA
exact mass=146.0844
ionization energy=70 eV
ion type=[M]+*
computed spectral entropy=2.411583383131681
computed normalized entropy=0.8905238839923043
SPLASH=splash10-00kb-3900000000-d3b10d5f5c4d125afa20
submitter=submitter = University of Tokyo Team (Faculty of Engineering, University of Tokyo)
MoNA Rating=3.75

>  <NUM PEAKS>  (5478) 
15

>  <MASS SPECTRAL PEAKS>  (5478) 
42 10
51 22
62 8
64 4
77 47
87 20
89 23
104 26
116 13
117 99.99
118 27
144 31
145 50
146 78
147 14

$$$$

     RDKit          2D

 22 22  0  0  0  0  0  0  0  0999 V2000
   -4.6913   -8.4422    0.0000 C   0  0  0  0  0  0  0  0  0  0  0  0
   -3.3941   -7.6890    0.0000 C   0  0  0  0  0  0  0  0  0  0  0  0
   -2.0932   -8.4358    0.0000 C   0  0  0  0  0  0  0  0  0  0  0  0
   -0.7960   -7.6825    0.0000 C   0  0  0  0  0  0  0  0  0  0  0  0
    0.5049   -8.4293    0.0000 C   0  0  0  0  0  0  0  0  0  0  0  0
    1.8020   -7.6761    0.0000 C   0  0  0  0  0  0  0  0  0  0  0  0
    3.1029   -8.4228    0.0000 C   0  0  0  0  0  0  0  0  0  0  0  0
    4.4001   -7.6696    0.0000 C   0  0  0  0  0  0  0  0  0  0  0  0
    5.7010   -8.4164    0.0000 C   0  0  0  0  0  0  0  0  0  0  0  0
    6.9982   -7.6631    0.0000 C   0  0  0  0  0  0  0  0  0  0  0  0
    8.2991   -8.4099    0.0000 C   0  0  0  0  0  0  0  0  0  0  0  0
    9.5963   -7.6567    0.0000 C   0  0  0  0  0  0  0  0  0  0  0  0
   10.8972   -8.4034    0.0000 C   0  0  0  0  0  0  0  0  0  0  0  0
   12.1943   -7.6502    0.0000 C   0  0  0  0  0  0  0  0  0  0  0  0
   13.4952   -8.3970    0.0000 C   0  0  0  0  0  0  0  0  0  0  0  0
   14.7924   -7.6437    0.0000 C   0  0  0  0  0  0  0  0  0  0  0  0
   16.0933   -8.3905    0.0000 C   0  0  0  0  0  0  0  0  0  0  0  0
   19.0098   -5.8389    0.0000 C   0  0  0  0  0  0  0  0  0  0  0  0
   19.7572   -7.1309    0.0000 C   0  0  0  0  0  0  0  0  0  0  0  0
   17.3905   -7.6373    0.0000 C   0  0  0  0  0  0  0  0  0  0  0  0
   17.5387   -6.1425    0.0000 N   0  0  0  0  0  0  0  0  0  0  0  0
   18.7535   -8.2456    0.0000 N   0  0  0  0  0  0  0  0  0  0  0  0
  2  1  1  0
  3  2  1  0
  4  3  1  0
  5  4  1  0
  6  5  1  0
  7  6  1  0
  8  7  1  0
  9  8  1  0
 10  9  1  0
 11 10  1  0
 12 11  1  0
 13 12  1  0
 14 13  1  0
 15 14  1  0
 16 15  1  0
 17 16  1  0
 19 18  1  0
 20 17  1  0
 21 18  1  0
 21 20  2  0
 22 19  1  0
 22 20  1  0
M  END
>  <NAME>  (5479) 
2-HEPTADECYL IMIDAZOLINE

>  <SYNONYMS>  (5479) 


>  <SPECTRUM TYPE>  (5479) 
MS1

>  <INSTRUMENT TYPE>  (5479) 
EI-B

>  <INSTRUMENT>  (5479) 
HITACHI RMU-7

>  <ION MODE>  (5479) 
P

>  <INCHIKEY>  (5479) 
NCVGSSQICKMAIA-UHFFFAOYSA-N

>  <FORMULA>  (5479) 
C20H40N2

>  <EXACT MASS>  (5479) 
308.31914928

>  <MW>  (5479) 
308

>  <ID>  (5479) 
JP003263

>  <CONTRIBUTOR>  (5479) 
University of Tokyo Team, {Faculty of Engineering, University of Tokyo

>  <COMMENT>  (5479) 
SMILES=CCCCCCCCCCCCCCCCCC(N1)=NCC1
InChI=InChI=1S/C20H40N2/c1-2-3-4-5-6-7-8-9-10-11-12-13-14-15-16-17-20-21-18-19-22-20/h2-19H2,1H3,(H,21,22)
computed SMILES=N1=C(NCC1)CCCCCCCCCCCCCCCCC
accession=JP003263
date=2016.01.19 (Created 2008.10.21, modified 2011.05.06)
author=MASS SPECTROSCOPY SOC. OF JAPAN (MSSJ)
license=CC BY-NC-SA
exact mass=308.31915
ionization energy=70 eV
ion type=[M]+*
computed spectral entropy=3.0938139167642937
computed normalized entropy=0.8926859990298214
SPLASH=splash10-0012-9300000000-fe7b5335453085909b7f
submitter=submitter = University of Tokyo Team (Faculty of Engineering, University of Tokyo)
MoNA Rating=3.75

>  <NUM PEAKS>  (5479) 
32

>  <MASS SPECTRAL PEAKS>  (5479) 
41 22
42 10
43 27
44 9
54 7
55 20
56 8
57 12
69 7
82 16
83 7
84 99.99
85 18
95 10
96 7
97 74
98 38
110 7
111 21
124 6
125 14
126 8
139 38
153 15
167 11
181 9
195 10
209 8
223 7
279 8
307 20
308 15

$$$$

     RDKit          2D

 12 13  0  0  0  0  0  0  0  0999 V2000
    5.3085   -2.8427    0.0000 C   0  0  0  0  0  0  0  0  0  0  0  0
    5.3053   -1.3418    0.0000 C   0  0  0  0  0  0  0  0  0  0  0  0
    4.0109   -3.5967    0.0000 C   0  0  0  0  0  0  0  0  0  0  0  0
    4.0044   -0.5951    0.0000 C   0  0  0  0  0  0  0  0  0  0  0  0
    2.7100   -2.8500    0.0000 C   0  0  0  0  0  0  0  0  0  0  0  0
   -1.5107   -3.1540    0.0000 C   0  0  0  0  0  0  0  0  0  0  0  0
   -2.2581   -1.8620    0.0000 C   0  0  0  0  0  0  0  0  0  0  0  0
    1.4058   -0.6024    0.0000 C   0  0  0  0  0  0  0  0  0  0  0  0
    2.7067   -1.3491    0.0000 C   0  0  0  0  0  0  0  0  0  0  0  0
    0.1086   -1.3556    0.0000 C   0  0  0  0  0  0  0  0  0  0  0  0
   -0.0396   -2.8503    0.0000 N   0  0  0  0  0  0  0  0  0  0  0  0
   -1.2544   -0.7473    0.0000 N   0  0  0  0  0  0  0  0  0  0  0  0
  2  1  2  0
  3  1  1  0
  4  2  1  0
  5  3  2  0
  7  6  1  0
  9  4  2  0
  9  5  1  0
  9  8  1  0
 10  8  1  0
 11  6  1  0
 11 10  2  0
 12  7  1  0
 12 10  1  0
M  END
>  <NAME>  (5480) 
2-BENZYL IMIDAZOLINE

>  <SYNONYMS>  (5480) 


>  <SPECTRUM TYPE>  (5480) 
MS1

>  <INSTRUMENT TYPE>  (5480) 
EI-B

>  <INSTRUMENT>  (5480) 
HITACHI RMU-7

>  <ION MODE>  (5480) 
P

>  <INCHIKEY>  (5480) 
JIVZKJJQOZQXQB-UHFFFAOYSA-N

>  <FORMULA>  (5480) 
C10H12N2

>  <EXACT MASS>  (5480) 
160.100048384

>  <MW>  (5480) 
160

>  <ID>  (5480) 
JP003262

>  <CONTRIBUTOR>  (5480) 
University of Tokyo Team, {Faculty of Engineering, University of Tokyo

>  <COMMENT>  (5480) 
SMILES=c(c2)ccc(c2)CC(N1)=NCC1
InChI=InChI=1S/C10H12N2/c1-2-4-9(5-3-1)8-10-11-6-7-12-10/h1-5H,6-8H2,(H,11,12)
computed SMILES=N1=C(NCC1)CC=2C=CC=CC2
accession=JP003262
date=2016.01.19 (Created 2008.10.21, modified 2011.05.06)
author=MASS SPECTROSCOPY SOC. OF JAPAN (MSSJ)
license=CC BY-NC-SA
exact mass=160.10005
ionization energy=70 eV
ion type=[M]+*
computed spectral entropy=2.3199175290836305
computed normalized entropy=0.8188290987512725
SPLASH=splash10-0006-9400000000-7b6f1c4b249d1fba8927
submitter=submitter = University of Tokyo Team (Faculty of Engineering, University of Tokyo)
MoNA Rating=3.75

>  <NUM PEAKS>  (5480) 
17

>  <MASS SPECTRAL PEAKS>  (5480) 
41 7
42 9
51 12
63 8
65 21
77 9
81 7
89 9
90 6
91 99.99
92 11
103 7
118 3
131 19
132 6
159 48
160 20

$$$$

     RDKit          2D

 13 14  0  0  0  0  0  0  0  0999 V2000
    7.2810   -3.6753    0.0000 C   0  0  0  0  0  0  0  0  0  0  0  0
    3.7450    0.1620    0.0000 C   0  0  0  0  0  0  0  0  0  0  0  0
    2.9409   -2.2934    0.0000 C   0  0  0  0  0  0  0  0  0  0  0  0
    5.1554   -0.2695    0.0000 C   0  0  0  0  0  0  0  0  0  0  0  0
    4.4052   -2.7840    0.0000 C   0  0  0  0  0  0  0  0  0  0  0  0
   -1.2100   -0.3900    0.0000 C   0  0  0  0  0  0  0  0  0  0  0  0
   -0.7500    1.0300    0.0000 C   0  0  0  0  0  0  0  0  0  0  0  0
    2.6377   -0.8500    0.0000 C   0  0  0  0  0  0  0  0  0  0  0  0
    5.5125   -1.7720    0.0000 C   0  0  0  0  0  0  0  0  0  0  0  0
    1.2100   -0.3900    0.0000 C   0  0  0  0  0  0  0  0  0  0  0  0
    0.0000   -1.2800    0.0000 N   0  0  0  0  0  0  0  0  0  0  0  0
    0.7500    1.0300    0.0000 N   0  0  0  0  0  0  0  0  0  0  0  0
    6.9462   -2.2132    0.0000 O   0  0  0  0  0  0  0  0  0  0  0  0
  4  2  2  0
  5  3  1  0
  7  6  1  0
  8  2  1  0
  8  3  2  0
  9  4  1  0
  9  5  2  0
 10  8  1  0
 11  6  1  0
 11 10  1  0
 12  7  1  0
 12 10  2  0
 13  1  1  0
 13  9  1  0
M  END
>  <NAME>  (5481) 
2-(P-METHOXY-PHENYL)-IMIDAZOLINE

>  <SYNONYMS>  (5481) 


>  <SPECTRUM TYPE>  (5481) 
MS1

>  <INSTRUMENT TYPE>  (5481) 
EI-B

>  <INSTRUMENT>  (5481) 
HITACHI RMU-7

>  <ION MODE>  (5481) 
P

>  <INCHIKEY>  (5481) 
LPRQSQCAHSRGRZ-UHFFFAOYSA-N

>  <FORMULA>  (5481) 
C10H12N2O

>  <EXACT MASS>  (5481) 
176.094963004

>  <MW>  (5481) 
176

>  <ID>  (5481) 
JP003261

>  <CONTRIBUTOR>  (5481) 
University of Tokyo Team, {Faculty of Engineering, University of Tokyo

>  <COMMENT>  (5481) 
SMILES=COc(c2)ccc(c2)C(N1)=NCC1
InChI=InChI=1S/C10H12N2O/c1-13-9-4-2-8(3-5-9)10-11-6-7-12-10/h2-5H,6-7H2,1H3,(H,11,12)
computed SMILES=N1=C(NCC1)C=2C=CC(OC)=CC2
accession=JP003261
date=2016.01.19 (Created 2008.10.21, modified 2011.05.06)
author=MASS SPECTROSCOPY SOC. OF JAPAN (MSSJ)
license=CC BY-NC-SA
exact mass=176.09496
ionization energy=70 eV
ion type=[M]+*
computed spectral entropy=2.823385891033671
computed normalized entropy=0.8566521966412043
SPLASH=splash10-004j-1900000000-2f4461571de020b9e902
submitter=submitter = University of Tokyo Team (Faculty of Engineering, University of Tokyo)
MoNA Rating=3.75

>  <NUM PEAKS>  (5481) 
27

>  <MASS SPECTRAL PEAKS>  (5481) 
41 7
42 10
63 10
64 7
77 34
78 9
89 7
90 8
91 8
102 6
103 6
104 8
105 5
117 8
119 8
131 9
132 60
133 13
134 15
147 99.99
148 32
158 10
159 14
174 19
175 53
176 81
177 17

$$$$

     RDKit          2D

  7  7  0  0  0  0  0  0  0  0999 V2000
    3.3615    0.3229    0.0000 C   0  0  0  0  0  0  0  0  0  0  0  0
    1.9337    0.7829    0.0000 C   0  0  0  0  0  0  0  0  0  0  0  0
   -0.3885   -2.3193    0.0000 C   0  0  0  0  0  0  0  0  0  0  0  0
   -1.3882   -1.2110    0.0000 C   0  0  0  0  0  0  0  0  0  0  0  0
    0.8215   -0.2236    0.0000 C   0  0  0  0  0  0  0  0  0  0  0  0
    0.9873   -1.7165    0.0000 N   0  0  0  0  0  0  0  0  0  0  0  0
   -0.6382    0.0881    0.0000 N   0  0  0  0  0  0  0  0  0  0  0  0
  2  1  1  0
  4  3  1  0
  5  2  1  0
  6  3  1  0
  6  5  2  0
  7  4  1  0
  7  5  1  0
M  END
>  <NAME>  (5482) 
2-ETHYL IMIDAZOLINE

>  <SYNONYMS>  (5482) 


>  <SPECTRUM TYPE>  (5482) 
MS1

>  <INSTRUMENT TYPE>  (5482) 
EI-B

>  <INSTRUMENT>  (5482) 
HITACHI RMU-7

>  <ION MODE>  (5482) 
P

>  <INCHIKEY>  (5482) 
QUPKCFBHJFNUEW-UHFFFAOYSA-N

>  <FORMULA>  (5482) 
C5H10N2

>  <EXACT MASS>  (5482) 
98.08439831999999

>  <MW>  (5482) 
98

>  <ID>  (5482) 
JP003260

>  <CONTRIBUTOR>  (5482) 
University of Tokyo Team, {Faculty of Engineering, University of Tokyo

>  <COMMENT>  (5482) 
SMILES=CCC(N1)=NCC1
InChI=InChI=1S/C5H10N2/c1-2-5-6-3-4-7-5/h2-4H2,1H3,(H,6,7)
computed SMILES=N1=C(NCC1)CC
accession=JP003260
date=2016.01.19 (Created 2008.10.21, modified 2011.05.06)
author=MASS SPECTROSCOPY SOC. OF JAPAN (MSSJ)
license=CC BY-NC-SA
exact mass=98.0844
ionization energy=70 eV
ion type=[M]+*
computed spectral entropy=3.013282547734146
computed normalized entropy=0.9248598108035183
SPLASH=splash10-0fr7-9000000000-6461de58cd5e007a39a7
submitter=submitter = University of Tokyo Team (Faculty of Engineering, University of Tokyo)
MoNA Rating=3.75

>  <NUM PEAKS>  (5482) 
26

>  <MASS SPECTRAL PEAKS>  (5482) 
38 10
39 25
40 28
41 52
42 41
43 21
44 16
52 13
53 9
54 73
55 22
56 20
57 12
58 8
67 10
68 20
69 99.99
70 14
81 31
82 20
83 10
95 29
96 22
97 31
98 50
99 11

$$$$

     RDKit          2D

  6  6  0  0  0  0  0  0  0  0999 V2000
    2.6377   -0.8500    0.0000 C   0  0  0  0  0  0  0  0  0  0  0  0
   -1.2100   -0.3900    0.0000 C   0  0  0  0  0  0  0  0  0  0  0  0
   -0.7500    1.0300    0.0000 C   0  0  0  0  0  0  0  0  0  0  0  0
    1.2100   -0.3900    0.0000 C   0  0  0  0  0  0  0  0  0  0  0  0
    0.0000   -1.2800    0.0000 N   0  0  0  0  0  0  0  0  0  0  0  0
    0.7500    1.0300    0.0000 N   0  0  0  0  0  0  0  0  0  0  0  0
  3  2  1  0
  4  1  1  0
  5  2  1  0
  5  4  2  0
  6  3  1  0
  6  4  1  0
M  END
>  <NAME>  (5483) 
2-METHYL IMIDAZOLINE

>  <SYNONYMS>  (5483) 


>  <SPECTRUM TYPE>  (5483) 
MS1

>  <INSTRUMENT TYPE>  (5483) 
EI-B

>  <INSTRUMENT>  (5483) 
HITACHI RMU-7

>  <ION MODE>  (5483) 
P

>  <INCHIKEY>  (5483) 
VWSLLSXLURJCDF-UHFFFAOYSA-N

>  <FORMULA>  (5483) 
C4H8N2

>  <EXACT MASS>  (5483) 
84.06874825599999

>  <MW>  (5483) 
84

>  <ID>  (5483) 
JP003259

>  <CONTRIBUTOR>  (5483) 
University of Tokyo Team, {Faculty of Engineering, University of Tokyo

>  <COMMENT>  (5483) 
SMILES=CC(N1)=NCC1
InChI=InChI=1S/C4H8N2/c1-4-5-2-3-6-4/h2-3H2,1H3,(H,5,6)
computed SMILES=N1=C(NCC1)C
accession=JP003259
date=2016.01.19 (Created 2008.10.21, modified 2011.05.06)
author=MASS SPECTROSCOPY SOC. OF JAPAN (MSSJ)
license=CC BY-NC-SA
exact mass=84.06875
ionization energy=70 eV
ion type=[M]+*
computed spectral entropy=1.8343660839966942
computed normalized entropy=0.8348559828238256
SPLASH=splash10-0a5c-9000000000-257bc4feb070fac5d5dd
submitter=submitter = University of Tokyo Team (Faculty of Engineering, University of Tokyo)
MoNA Rating=3.75

>  <NUM PEAKS>  (5483) 
9

>  <MASS SPECTRAL PEAKS>  (5483) 
41 11
42 40
43 25
54 33
55 99.99
73 5
83 17
84 36
85 4

$$$$

     RDKit          2D

 15 16  0  0  0  0  0  0  0  0999 V2000
    8.6000    2.5981    0.0000 C   0  0  0  0  0  0  0  0  0  0  0  0
    7.1000    2.5981    0.0000 C   0  0  0  0  0  0  0  0  0  0  0  0
    6.3500    1.2990    0.0000 C   0  0  0  0  0  0  0  0  0  0  0  0
    4.8500    1.2990    0.0000 C   0  0  0  0  0  0  0  0  0  0  0  0
   -1.0100    1.5000    0.0000 C   0  0  0  0  0  0  0  0  0  0  0  0
    0.2900    0.7500    0.0000 C   0  0  0  0  0  0  0  0  0  0  0  0
    0.2900   -0.7500    0.0000 C   0  0  0  0  0  0  0  0  0  0  0  0
   -2.3100   -0.7500    0.0000 C   0  0  0  0  0  0  0  0  0  0  0  0
    2.6000    0.0000    0.0000 C   0  0  0  0  0  0  0  0  0  0  0  0
   -3.6089   -1.5002    0.0000 N   0  0  0  0  0  0  0  0  0  0  0  0
   -2.3100    0.7500    0.0000 N   0  0  0  0  0  0  0  0  0  0  0  0
    1.7200    1.2100    0.0000 N   0  0  0  0  0  0  0  0  0  0  0  0
   -1.0100   -1.5000    0.0000 N   0  0  0  0  0  0  0  0  0  0  0  0
    4.1000   -0.0000    0.0000 S   0  0  0  0  0  0  0  0  0  0  0  0
    1.7200   -1.2100    0.0000 S   0  0  0  0  0  0  0  0  0  0  0  0
  2  1  1  0
  3  2  1  0
  4  3  1  0
  6  5  2  0
  7  6  1  0
 10  8  2  0
 11  5  1  0
 11  8  1  0
 12  6  1  0
 12  9  2  0
 13  7  2  0
 13  8  1  0
 14  4  1  0
 14  9  1  0
 15  7  1  0
 15  9  1  0
M  END
>  <NAME>  (5484) 
2-NORMAL-BUTYLTHIO-5-AMINOTHIAZOLO(5,4-D)PYRIMIDINE

>  <SYNONYMS>  (5484) 


>  <SPECTRUM TYPE>  (5484) 
MS1

>  <INSTRUMENT TYPE>  (5484) 
EI-B

>  <INSTRUMENT>  (5484) 
HITACHI RMU-6E

>  <ION MODE>  (5484) 
P

>  <INCHIKEY>  (5484) 
PRKGQDKIJIYSBY-UHFFFAOYSA-N

>  <FORMULA>  (5484) 
C9H12N4S2

>  <EXACT MASS>  (5484) 
240.05033838399999

>  <MW>  (5484) 
240

>  <ID>  (5484) 
JP003258

>  <CONTRIBUTOR>  (5484) 
University of Tokyo Team, {Faculty of Engineering, University of Tokyo

>  <COMMENT>  (5484) 
SMILES=CCCCSc(n1)sc(n2)c(cnc(N)2)1
InChI=InChI=1S/C9H12N4S2/c1-2-3-4-14-9-12-6-5-11-8(10)13-7(6)15-9/h5H,2-4H2,1H3,(H2,10,11,13)
computed SMILES=N=C1N=C2SC(=NC2=CN1)SCCCC
accession=JP003258
author=MASS SPECTROSCOPY SOC. OF JAPAN (MSSJ)
date=2016.01.19 (Created 2008.10.21, modified 2011.05.06)
license=CC BY-NC-SA
exact mass=240.05034
ionization energy=70 eV
ion type=[M]+*
computed spectral entropy=2.026693794427425
computed normalized entropy=0.8451969597747488
SPLASH=splash10-001l-2910000000-6302e8b416b5c83a576e
submitter=submitter = University of Tokyo Team (Faculty of Engineering, University of Tokyo)
MoNA Rating=3.75

>  <NUM PEAKS>  (5484) 
11

>  <MASS SPECTRAL PEAKS>  (5484) 
83 12
85 15
97 25
125 11
142 32
180 9
184 99.99
193 30
198 12
207 3
240 30

$$$$

     RDKit          2D

 14 15  0  0  0  0  0  0  0  0999 V2000
    7.1000    2.5981    0.0000 C   0  0  0  0  0  0  0  0  0  0  0  0
    6.3500    1.2990    0.0000 C   0  0  0  0  0  0  0  0  0  0  0  0
    4.8500    1.2990    0.0000 C   0  0  0  0  0  0  0  0  0  0  0  0
   -1.0100    1.5000    0.0000 C   0  0  0  0  0  0  0  0  0  0  0  0
    0.2900    0.7500    0.0000 C   0  0  0  0  0  0  0  0  0  0  0  0
    0.2900   -0.7500    0.0000 C   0  0  0  0  0  0  0  0  0  0  0  0
   -2.3100   -0.7500    0.0000 C   0  0  0  0  0  0  0  0  0  0  0  0
    2.6000    0.0000    0.0000 C   0  0  0  0  0  0  0  0  0  0  0  0
   -3.6089   -1.5002    0.0000 N   0  0  0  0  0  0  0  0  0  0  0  0
   -2.3100    0.7500    0.0000 N   0  0  0  0  0  0  0  0  0  0  0  0
    1.7200    1.2100    0.0000 N   0  0  0  0  0  0  0  0  0  0  0  0
   -1.0100   -1.5000    0.0000 N   0  0  0  0  0  0  0  0  0  0  0  0
    4.1000   -0.0000    0.0000 S   0  0  0  0  0  0  0  0  0  0  0  0
    1.7200   -1.2100    0.0000 S   0  0  0  0  0  0  0  0  0  0  0  0
  2  1  1  0
  3  2  1  0
  5  4  2  0
  6  5  1  0
  9  7  2  0
 10  4  1  0
 10  7  1  0
 11  5  1  0
 11  8  2  0
 12  6  2  0
 12  7  1  0
 13  3  1  0
 13  8  1  0
 14  6  1  0
 14  8  1  0
M  END
>  <NAME>  (5485) 
2-NORMAL-PROPYLTHIO-5-AMINOTHIAZOLO(5,4-D)PYRIMIDINE

>  <SYNONYMS>  (5485) 


>  <SPECTRUM TYPE>  (5485) 
MS1

>  <INSTRUMENT TYPE>  (5485) 
EI-B

>  <INSTRUMENT>  (5485) 
HITACHI RMU-6E

>  <ION MODE>  (5485) 
P

>  <INCHIKEY>  (5485) 
YZKZVPLTCSHXIP-UHFFFAOYSA-N

>  <FORMULA>  (5485) 
C8H10N4S2

>  <EXACT MASS>  (5485) 
226.03468832

>  <MW>  (5485) 
226

>  <ID>  (5485) 
JP003257

>  <CONTRIBUTOR>  (5485) 
University of Tokyo Team, {Faculty of Engineering, University of Tokyo

>  <COMMENT>  (5485) 
SMILES=CCCSc(n1)sc(n2)c(cnc(N)2)1
InChI=InChI=1S/C8H10N4S2/c1-2-3-13-8-11-5-4-10-7(9)12-6(5)14-8/h4H,2-3H2,1H3,(H2,9,10,12)
computed SMILES=N=C1N=C2SC(=NC2=CN1)SCCC
accession=JP003257
date=2016.01.19 (Created 2008.10.21, modified 2011.05.06)
author=MASS SPECTROSCOPY SOC. OF JAPAN (MSSJ)
license=CC BY-NC-SA
exact mass=226.03469
ionization energy=70 eV
ion type=[M]+*
computed spectral entropy=1.7657132923601142
computed normalized entropy=0.7668395394952208
SPLASH=splash10-003r-1920000000-80566978fb4fab90c5b4
submitter=submitter = University of Tokyo Team (Faculty of Engineering, University of Tokyo)
MoNA Rating=3.75

>  <NUM PEAKS>  (5485) 
10

>  <MASS SPECTRAL PEAKS>  (5485) 
83 6
85 9
97 15
124 4
125 5
142 33
179 7
184 99.99
193 15
226 50

$$$$

     RDKit          2D

 13 14  0  0  0  0  0  0  0  0999 V2000
    6.3500    1.2990    0.0000 C   0  0  0  0  0  0  0  0  0  0  0  0
    4.8500    1.2990    0.0000 C   0  0  0  0  0  0  0  0  0  0  0  0
   -1.0100    1.5000    0.0000 C   0  0  0  0  0  0  0  0  0  0  0  0
    0.2900    0.7500    0.0000 C   0  0  0  0  0  0  0  0  0  0  0  0
    0.2900   -0.7500    0.0000 C   0  0  0  0  0  0  0  0  0  0  0  0
   -2.3100   -0.7500    0.0000 C   0  0  0  0  0  0  0  0  0  0  0  0
    2.6000    0.0000    0.0000 C   0  0  0  0  0  0  0  0  0  0  0  0
   -3.6089   -1.5002    0.0000 N   0  0  0  0  0  0  0  0  0  0  0  0
   -2.3100    0.7500    0.0000 N   0  0  0  0  0  0  0  0  0  0  0  0
    1.7200    1.2100    0.0000 N   0  0  0  0  0  0  0  0  0  0  0  0
   -1.0100   -1.5000    0.0000 N   0  0  0  0  0  0  0  0  0  0  0  0
    4.1000   -0.0000    0.0000 S   0  0  0  0  0  0  0  0  0  0  0  0
    1.7200   -1.2100    0.0000 S   0  0  0  0  0  0  0  0  0  0  0  0
  2  1  1  0
  4  3  2  0
  5  4  1  0
  8  6  2  0
  9  3  1  0
  9  6  1  0
 10  4  1  0
 10  7  2  0
 11  5  2  0
 11  6  1  0
 12  2  1  0
 12  7  1  0
 13  5  1  0
 13  7  1  0
M  END
>  <NAME>  (5486) 
2-ETHYLTHIO-5-AMINOTHIAZOLO(5,4-D)PYRIMIDINE

>  <SYNONYMS>  (5486) 


>  <SPECTRUM TYPE>  (5486) 
MS1

>  <INSTRUMENT TYPE>  (5486) 
EI-B

>  <INSTRUMENT>  (5486) 
HITACHI RMU-6E

>  <ION MODE>  (5486) 
P

>  <INCHIKEY>  (5486) 
RBRDDQHNUZADPQ-UHFFFAOYSA-N

>  <FORMULA>  (5486) 
C7H8N4S2

>  <EXACT MASS>  (5486) 
212.019038256

>  <MW>  (5486) 
212

>  <ID>  (5486) 
JP003256

>  <CONTRIBUTOR>  (5486) 
University of Tokyo Team, {Faculty of Engineering, University of Tokyo

>  <COMMENT>  (5486) 
SMILES=CCSc(n1)sc(n2)c(cnc(N)2)1
InChI=InChI=1S/C7H8N4S2/c1-2-12-7-10-4-3-9-6(8)11-5(4)13-7/h3H,2H2,1H3,(H2,8,9,11)
computed SMILES=N=C1N=C2SC(=NC2=CN1)SCC
accession=JP003256
date=2016.01.19 (Created 2008.10.21, modified 2011.05.06)
author=MASS SPECTROSCOPY SOC. OF JAPAN (MSSJ)
license=CC BY-NC-SA
exact mass=212.01904
ionization energy=70 eV
ion type=[M]+*
computed spectral entropy=1.9221668720145486
computed normalized entropy=0.8347864658131525
SPLASH=splash10-03gi-2940000000-936ce831f252230378b0
submitter=submitter = University of Tokyo Team (Faculty of Engineering, University of Tokyo)
MoNA Rating=3.75

>  <NUM PEAKS>  (5486) 
10

>  <MASS SPECTRAL PEAKS>  (5486) 
83 11
85 14
97 21
124 8
125 10
139 14
142 28
179 89
184 47
212 99.99

$$$$

     RDKit          2D

 12 13  0  0  0  0  0  0  0  0999 V2000
    4.8500    1.2990    0.0000 C   0  0  0  0  0  0  0  0  0  0  0  0
   -1.0100    1.5000    0.0000 C   0  0  0  0  0  0  0  0  0  0  0  0
    0.2900    0.7500    0.0000 C   0  0  0  0  0  0  0  0  0  0  0  0
    0.2900   -0.7500    0.0000 C   0  0  0  0  0  0  0  0  0  0  0  0
   -2.3100   -0.7500    0.0000 C   0  0  0  0  0  0  0  0  0  0  0  0
    2.6000    0.0000    0.0000 C   0  0  0  0  0  0  0  0  0  0  0  0
   -3.6089   -1.5002    0.0000 N   0  0  0  0  0  0  0  0  0  0  0  0
   -2.3100    0.7500    0.0000 N   0  0  0  0  0  0  0  0  0  0  0  0
    1.7200    1.2100    0.0000 N   0  0  0  0  0  0  0  0  0  0  0  0
   -1.0100   -1.5000    0.0000 N   0  0  0  0  0  0  0  0  0  0  0  0
    4.1000   -0.0000    0.0000 S   0  0  0  0  0  0  0  0  0  0  0  0
    1.7200   -1.2100    0.0000 S   0  0  0  0  0  0  0  0  0  0  0  0
  3  2  2  0
  4  3  1  0
  7  5  2  0
  8  2  1  0
  8  5  1  0
  9  3  1  0
  9  6  2  0
 10  4  2  0
 10  5  1  0
 11  1  1  0
 11  6  1  0
 12  4  1  0
 12  6  1  0
M  END
>  <NAME>  (5487) 
2-METHYLTHIO-5-AMINOTHIAZOLO(5,4-D)PYRIMIDINE

>  <SYNONYMS>  (5487) 


>  <SPECTRUM TYPE>  (5487) 
MS1

>  <INSTRUMENT TYPE>  (5487) 
EI-B

>  <INSTRUMENT>  (5487) 
HITACHI RMU-6E

>  <ION MODE>  (5487) 
P

>  <INCHIKEY>  (5487) 
AUXBHVTXXUIPHQ-UHFFFAOYSA-N

>  <FORMULA>  (5487) 
C6H6N4S2

>  <EXACT MASS>  (5487) 
198.003388192

>  <MW>  (5487) 
198

>  <ID>  (5487) 
JP003255

>  <CONTRIBUTOR>  (5487) 
University of Tokyo Team, {Faculty of Engineering, University of Tokyo

>  <COMMENT>  (5487) 
SMILES=Nc(n2)nc(s1)c(c2)nc(SC)1
InChI=InChI=1S/C6H6N4S2/c1-11-6-9-3-2-8-5(7)10-4(3)12-6/h2H,1H3,(H2,7,8,10)
computed SMILES=N=C1N=C2SC(=NC2=CN1)SC
accession=JP003255
date=2016.01.19 (Created 2008.10.21, modified 2011.05.06)
author=MASS SPECTROSCOPY SOC. OF JAPAN (MSSJ)
license=CC BY-NC-SA
exact mass=198.00339
ionization energy=70 eV
ion type=[M]+*
computed spectral entropy=1.4253703251121788
computed normalized entropy=0.6854582331565433
SPLASH=splash10-00kb-1900000000-fe3aff9b26a5d4da1425
submitter=submitter = University of Tokyo Team (Faculty of Engineering, University of Tokyo)
MoNA Rating=3.75

>  <NUM PEAKS>  (5487) 
8

>  <MASS SPECTRAL PEAKS>  (5487) 
83 6
85 7
97 14
124 8
125 7
139 8
165 89
198 99.99

$$$$

     RDKit          2D

 17 19  0  0  0  0  0  0  0  0999 V2000
   -5.4932    1.7699    0.0000 C   0  0  0  0  0  0  0  0  0  0  0  0
    5.4932    1.7699    0.0000 C   0  0  0  0  0  0  0  0  0  0  0  0
   -5.1780    0.3026    0.0000 C   0  0  0  0  0  0  0  0  0  0  0  0
   -4.3807    2.7773    0.0000 C   0  0  0  0  0  0  0  0  0  0  0  0
    4.3807    2.7773    0.0000 C   0  0  0  0  0  0  0  0  0  0  0  0
    5.1780    0.3026    0.0000 C   0  0  0  0  0  0  0  0  0  0  0  0
   -3.7502   -0.1574    0.0000 C   0  0  0  0  0  0  0  0  0  0  0  0
   -2.9530    2.3173    0.0000 C   0  0  0  0  0  0  0  0  0  0  0  0
    2.9530    2.3173    0.0000 C   0  0  0  0  0  0  0  0  0  0  0  0
    3.7502   -0.1574    0.0000 C   0  0  0  0  0  0  0  0  0  0  0  0
   -0.7500   -1.0300    0.0000 C   0  0  0  0  0  0  0  0  0  0  0  0
   -2.6377    0.8500    0.0000 C   0  0  0  0  0  0  0  0  0  0  0  0
    2.6377    0.8500    0.0000 C   0  0  0  0  0  0  0  0  0  0  0  0
   -1.2100    0.3900    0.0000 C   0  0  0  0  0  0  0  0  0  0  0  0
    1.2100    0.3900    0.0000 C   0  0  0  0  0  0  0  0  0  0  0  0
    0.7500   -1.0300    0.0000 N   0  0  0  0  0  0  0  0  0  0  0  0
    0.0000    1.2800    0.0000 O   0  0  0  0  0  0  0  0  0  0  0  0
  3  1  2  0
  4  1  1  0
  5  2  2  0
  6  2  1  0
  7  3  1  0
  8  4  2  0
  9  5  1  0
 10  6  2  0
 12  7  2  0
 12  8  1  0
 13  9  2  0
 13 10  1  0
 14 11  2  0
 14 12  1  0
 15 13  1  0
 16 11  1  0
 16 15  2  0
 17 14  1  0
 17 15  1  0
M  END
>  <NAME>  (5488) 
2,5-DIPHENYL-OXAZOLE

>  <SYNONYMS>  (5488) 


>  <SPECTRUM TYPE>  (5488) 
MS1

>  <INSTRUMENT TYPE>  (5488) 
EI-B

>  <INSTRUMENT>  (5488) 
HITACHI RMU-6E

>  <ION MODE>  (5488) 
P

>  <INCHIKEY>  (5488) 
CNRNYORZJGVOSY-UHFFFAOYSA-N

>  <FORMULA>  (5488) 
C15H11NO

>  <EXACT MASS>  (5488) 
221.084063972

>  <MW>  (5488) 
221

>  <ID>  (5488) 
JP003254

>  <CONTRIBUTOR>  (5488) 
University of Tokyo Team, {Faculty of Engineering, University of Tokyo

>  <COMMENT>  (5488) 
SMILES=c(c3)ccc(c3)c(c2)oc(n2)c(c1)cccc1
InChI=InChI=1S/C15H11NO/c1-3-7-12(8-4-1)14-11-16-15(17-14)13-9-5-2-6-10-13/h1-11H
computed SMILES=N=1C=C(OC1C=2C=CC=CC2)C=3C=CC=CC3
accession=JP003254
date=2016.01.19 (Created 2008.10.21, modified 2011.05.06)
author=MASS SPECTROSCOPY SOC. OF JAPAN (MSSJ)
license=CC BY-NC-SA
exact mass=221.08406
ionization energy=70 eV
ion type=[M]+*
computed spectral entropy=2.560277764060942
computed normalized entropy=0.9234250083772513
SPLASH=splash10-01dr-9320000000-583527d5acd3463bd18d
submitter=submitter = University of Tokyo Team (Faculty of Engineering, University of Tokyo)
MoNA Rating=3.75

>  <NUM PEAKS>  (5488) 
16

>  <MASS SPECTRAL PEAKS>  (5488) 
39 29
50 20
51 53
62 16
63 45
64 12
77 77
89 77
90 31
105 15
116 30
165 62
166 37
193 10
221 99.99
222 17

$$$$

     RDKit          2D

 17 19  0  0  0  0  0  0  0  0999 V2000
   -6.1019   -2.5247    0.0000 C   0  0  0  0  0  0  0  0  0  0  0  0
    4.4913    1.2251    0.0000 C   0  0  0  0  0  0  0  0  0  0  0  0
   -4.8022   -3.2753    0.0000 C   0  0  0  0  0  0  0  0  0  0  0  0
   -6.1026   -1.0239    0.0000 C   0  0  0  0  0  0  0  0  0  0  0  0
    3.1919    1.9761    0.0000 C   0  0  0  0  0  0  0  0  0  0  0  0
    4.4915   -0.2757    0.0000 C   0  0  0  0  0  0  0  0  0  0  0  0
   -3.5033   -2.5251    0.0000 C   0  0  0  0  0  0  0  0  0  0  0  0
   -4.8037   -0.2736    0.0000 C   0  0  0  0  0  0  0  0  0  0  0  0
    1.8927    1.2264    0.0000 C   0  0  0  0  0  0  0  0  0  0  0  0
    3.1924   -1.0255    0.0000 C   0  0  0  0  0  0  0  0  0  0  0  0
   -3.5040   -1.0243    0.0000 C   0  0  0  0  0  0  0  0  0  0  0  0
    1.8930   -0.2745    0.0000 C   0  0  0  0  0  0  0  0  0  0  0  0
   -2.2051   -0.2741    0.0000 C   0  0  0  0  0  0  0  0  0  0  0  0
   -0.7051   -0.2741    0.0000 C   0  0  0  0  0  0  0  0  0  0  0  0
    0.5938   -1.0243    0.0000 C   0  0  0  0  0  0  0  0  0  0  0  0
   -1.4551    1.0259    0.0000 N   0  0  0  0  0  0  0  0  0  0  0  0
    0.5936   -2.5243    0.0000 O   0  0  0  0  0  0  0  0  0  0  0  0
  3  1  2  0
  4  1  1  0
  5  2  2  0
  6  2  1  0
  7  3  1  0
  8  4  2  0
  9  5  1  0
 10  6  2  0
 11  7  2  0
 11  8  1  0
 12  9  2  0
 12 10  1  0
 13 11  1  0
 14 13  1  0
 15 12  1  0
 15 14  1  0
 16 13  2  0
 16 14  1  0
 17 15  2  0
M  END
>  <NAME>  (5489) 
2-PHENYL-3-BENZOYL-1-AZIRINE

>  <SYNONYMS>  (5489) 


>  <SPECTRUM TYPE>  (5489) 
MS1

>  <INSTRUMENT TYPE>  (5489) 
EI-B

>  <INSTRUMENT>  (5489) 
HITACHI RMU-6E

>  <ION MODE>  (5489) 
P

>  <INCHIKEY>  (5489) 
CQDPFIXVXYMXCT-UHFFFAOYSA-N

>  <FORMULA>  (5489) 
C15H11NO

>  <EXACT MASS>  (5489) 
221.084063972

>  <MW>  (5489) 
221

>  <ID>  (5489) 
JP003253

>  <CONTRIBUTOR>  (5489) 
University of Tokyo Team, {Faculty of Engineering, University of Tokyo

>  <COMMENT>  (5489) 
SMILES=c(c3)ccc(c3)C(=O)C(N=1)C(c(c2)cccc2)1
InChI=InChI=1S/C15H11NO/c17-15(12-9-5-2-6-10-12)14-13(16-14)11-7-3-1-4-8-11/h1-10,14H
computed SMILES=O=C(C=1C=CC=CC1)C2N=C2C=3C=CC=CC3
accession=JP003253
date=2016.01.19 (Created 2008.10.21, modified 2011.05.06)
author=MASS SPECTROSCOPY SOC. OF JAPAN (MSSJ)
license=CC BY-NC-SA
exact mass=221.08406
ionization energy=70 eV
ion type=[M]+*
computed spectral entropy=2.4933764706389714
computed normalized entropy=0.8992954673150175
SPLASH=splash10-0ay0-9840000000-8ff1d40040c99df8c333
submitter=submitter = University of Tokyo Team (Faculty of Engineering, University of Tokyo)
MoNA Rating=3.75

>  <NUM PEAKS>  (5489) 
16

>  <MASS SPECTRAL PEAKS>  (5489) 
39 15
50 15
51 42
63 21
77 84
89 36
90 15
105 99.99
116 24
144 15
165 37
166 23
193 12
220 11
221 79
222 14

$$$$

     RDKit          2D

 17 19  0  0  0  0  0  0  0  0999 V2000
   -5.9691    2.7880    0.0000 C   0  0  0  0  0  0  0  0  0  0  0  0
    4.0524   -1.6911    0.0000 C   0  0  0  0  0  0  0  0  0  0  0  0
   -5.3597    1.4165    0.0000 C   0  0  0  0  0  0  0  0  0  0  0  0
   -5.0868    4.0021    0.0000 C   0  0  0  0  0  0  0  0  0  0  0  0
    4.3686   -0.2240    0.0000 C   0  0  0  0  0  0  0  0  0  0  0  0
    2.6240   -2.1518    0.0000 C   0  0  0  0  0  0  0  0  0  0  0  0
   -3.8680    1.2591    0.0000 C   0  0  0  0  0  0  0  0  0  0  0  0
   -3.5951    3.8447    0.0000 C   0  0  0  0  0  0  0  0  0  0  0  0
    3.2564    0.7825    0.0000 C   0  0  0  0  0  0  0  0  0  0  0  0
    1.5118   -1.1453    0.0000 C   0  0  0  0  0  0  0  0  0  0  0  0
   -0.7440    1.0167    0.0000 C   0  0  0  0  0  0  0  0  0  0  0  0
   -2.9857    2.4731    0.0000 C   0  0  0  0  0  0  0  0  0  0  0  0
    1.8280    0.3218    0.0000 C   0  0  0  0  0  0  0  0  0  0  0  0
   -1.4940    2.3157    0.0000 C   0  0  0  0  0  0  0  0  0  0  0  0
    0.7158    1.3283    0.0000 C   0  0  0  0  0  0  0  0  0  0  0  0
   -0.4942    3.4241    0.0000 N   0  0  0  0  0  0  0  0  0  0  0  0
    0.8815    2.8212    0.0000 O   0  0  0  0  0  0  0  0  0  0  0  0
  3  1  2  0
  4  1  1  0
  5  2  2  0
  6  2  1  0
  7  3  1  0
  8  4  2  0
  9  5  1  0
 10  6  2  0
 12  7  2  0
 12  8  1  0
 13  9  2  0
 13 10  1  0
 14 11  1  0
 14 12  1  0
 15 11  2  0
 15 13  1  0
 16 14  2  0
 17 15  1  0
 17 16  1  0
M  END
>  <NAME>  (5490) 
3,5-DIPHENYL-ISOXAZOLE

>  <SYNONYMS>  (5490) 


>  <SPECTRUM TYPE>  (5490) 
MS1

>  <INSTRUMENT TYPE>  (5490) 
EI-B

>  <INSTRUMENT>  (5490) 
HITACHI RMU-6E

>  <ION MODE>  (5490) 
P

>  <INCHIKEY>  (5490) 
HECRDSFKLUVCAY-UHFFFAOYSA-N

>  <FORMULA>  (5490) 
C15H11NO

>  <EXACT MASS>  (5490) 
221.084063972

>  <MW>  (5490) 
221

>  <ID>  (5490) 
JP003252

>  <CONTRIBUTOR>  (5490) 
University of Tokyo Team, {Faculty of Engineering, University of Tokyo

>  <COMMENT>  (5490) 
SMILES=c(c3)ccc(c3)c(n2)cc(o2)c(c1)cccc1
InChI=InChI=1S/C15H11NO/c1-3-7-12(8-4-1)14-11-15(17-16-14)13-9-5-2-6-10-13/h1-11H
computed SMILES=N=1OC(=CC1C=2C=CC=CC2)C=3C=CC=CC3
accession=JP003252
date=2016.01.19 (Created 2008.10.21, modified 2011.05.06)
author=MASS SPECTROSCOPY SOC. OF JAPAN (MSSJ)
license=CC BY-NC-SA
exact mass=221.08406
ionization energy=70 eV
ion type=[M]+*
computed spectral entropy=1.9349497629956247
computed normalized entropy=0.806936726947844
SPLASH=splash10-0adi-8940000000-a7fd9a6fc8cc5849bab1
submitter=submitter = University of Tokyo Team (Faculty of Engineering, University of Tokyo)
MoNA Rating=3.75

>  <NUM PEAKS>  (5490) 
11

>  <MASS SPECTRAL PEAKS>  (5490) 
39 7
51 27
63 9
77 67
89 14
105 99.99
144 14
165 7
193 6
221 52
222 9

$$$$

     RDKit          2D

 13 12  0  0  0  0  0  0  0  0999 V2000
    2.4253    4.7993    0.0000 C   0  0  0  0  0  0  0  0  0  0  0  0
   -7.9670    4.7993    0.0000 C   0  0  0  0  0  0  0  0  0  0  0  0
   -4.9178    2.2407    0.0000 C   0  0  0  0  0  0  0  0  0  0  0  0
    1.1262    5.5493    0.0000 C   0  0  0  0  0  0  0  0  0  0  0  0
   -2.7709    4.7993    0.0000 C   0  0  0  0  0  0  0  0  0  0  0  0
   -1.4718    5.5493    0.0000 C   0  0  0  0  0  0  0  0  0  0  0  0
   -6.3331    3.6502    0.0000 O   0  0  0  0  0  0  0  0  0  0  0  0
   -0.1728    3.2993    0.0000 O   0  0  0  0  0  0  0  0  0  0  0  0
   -6.6680    5.5493    0.0000 O   0  0  0  0  0  0  0  0  0  0  0  0
   -4.4048    3.6502    0.0000 O   0  0  0  0  0  0  0  0  0  0  0  0
   -5.3690    4.7993    0.0000 P   0  0  0  0  0  0  0  0  0  0  0  0
   -4.0699    5.5493    0.0000 S   0  0  0  0  0  0  0  0  0  0  0  0
   -0.1728    4.7993    0.0000 S   0  0  0  0  0  0  0  0  0  0  0  0
  4  1  1  0
  6  5  1  0
  9  2  1  0
 10  3  1  0
 11  7  2  0
 11  9  1  0
 11 10  1  0
 12  5  1  0
 12 11  1  0
 13  4  1  0
 13  6  1  0
 13  8  2  0
M  END
>  <NAME>  (5491) 
METASYSTOX

>  <SYNONYMS>  (5491) 


>  <SPECTRUM TYPE>  (5491) 
MS1

>  <INSTRUMENT TYPE>  (5491) 
EI-B

>  <INSTRUMENT>  (5491) 
HITACHI RMU-6E

>  <ION MODE>  (5491) 
P

>  <INCHIKEY>  (5491) 
PMCVMORKVPSKHZ-UHFFFAOYSA-N

>  <FORMULA>  (5491) 
C6H15O4PS2

>  <EXACT MASS>  (5491) 
246.01493759000002

>  <MW>  (5491) 
246

>  <ID>  (5491) 
JP003251

>  <CONTRIBUTOR>  (5491) 
University of Tokyo Team, {Faculty of Engineering, University of Tokyo

>  <COMMENT>  (5491) 
SMILES=CCS(=O)CCSP(=O)(OC)OC
InChI=InChI=1S/C6H15O4PS2/c1-4-13(8)6-5-12-11(7,9-2)10-3/h4-6H2,1-3H3
computed SMILES=O=S(CC)CCSP(=O)(OC)OC
accession=JP003251
date=2016.01.19 (Created 2008.10.21, modified 2011.05.06)
author=MASS SPECTROSCOPY SOC. OF JAPAN (MSSJ)
license=CC BY-NC-SA
exact mass=246.01494
ionization energy=70 eV
ion type=[M]+*
computed spectral entropy=2.5864712271597354
computed normalized entropy=0.9129108588260324
SPLASH=splash10-0a73-9700000000-a94e69d7f2da3420e649
submitter=submitter = University of Tokyo Team (Faculty of Engineering, University of Tokyo)
MoNA Rating=3.75

>  <NUM PEAKS>  (5491) 
17

>  <MASS SPECTRAL PEAKS>  (5491) 
75 35
77 25
79 40
88 99.99
89 33
91 88
92 18
105 41
106 74
109 50
112 20
122 12
125 17
142 35
143 16
169 6
230 9

$$$$

     RDKit          2D

 16 16  0  0  0  0  0  0  0  0999 V2000
    6.4962    0.7508    0.0000 C   0  0  0  0  0  0  0  0  0  0  0  0
    3.4473   -1.8083    0.0000 C   0  0  0  0  0  0  0  0  0  0  0  0
   -1.3000    0.7500    0.0000 C   0  0  0  0  0  0  0  0  0  0  0  0
    0.0000   -1.5000    0.0000 C   0  0  0  0  0  0  0  0  0  0  0  0
    0.0000    1.5000    0.0000 C   0  0  0  0  0  0  0  0  0  0  0  0
    1.3000   -0.7500    0.0000 C   0  0  0  0  0  0  0  0  0  0  0  0
   -1.3000   -0.7500    0.0000 C   0  0  0  0  0  0  0  0  0  0  0  0
    1.3000    0.7500    0.0000 C   0  0  0  0  0  0  0  0  0  0  0  0
   -2.5989   -1.5002    0.0000 N   0  0  0  0  0  0  0  0  0  0  0  0
   -3.8981   -0.7504    0.0000 O   0  0  0  0  0  0  0  0  0  0  0  0
   -2.5987   -3.0002    0.0000 O   0  0  0  0  0  0  0  0  0  0  0  0
    5.1970    1.5006    0.0000 O   0  0  0  0  0  0  0  0  0  0  0  0
    2.9341   -0.3988    0.0000 O   0  0  0  0  0  0  0  0  0  0  0  0
    2.5989    1.5002    0.0000 O   0  0  0  0  0  0  0  0  0  0  0  0
    3.8981    0.7504    0.0000 P   0  0  0  0  0  0  0  0  0  0  0  0
    4.8624   -0.3985    0.0000 S   0  0  0  0  0  0  0  0  0  0  0  0
  5  3  2  0
  6  4  1  0
  7  3  1  0
  7  4  2  0
  8  5  1  0
  8  6  2  0
  9  7  1  0
 10  9  1  0
 11  9  2  0
 12  1  1  0
 13  2  1  0
 14  8  1  0
 15 12  1  0
 15 13  1  0
 15 14  1  0
 16 15  2  0
M  CHG  2   9   1  10  -1
M  END
>  <NAME>  (5492) 
METHYL PARATHION

>  <SYNONYMS>  (5492) 


>  <SPECTRUM TYPE>  (5492) 
MS1

>  <INSTRUMENT TYPE>  (5492) 
EI-B

>  <INSTRUMENT>  (5492) 
HITACHI RMU-6E

>  <ION MODE>  (5492) 
P

>  <INCHIKEY>  (5492) 
RLBIQVVOMOPOHC-UHFFFAOYSA-N

>  <FORMULA>  (5492) 
C8H10NO5PS

>  <EXACT MASS>  (5492) 
263.00173005

>  <MW>  (5492) 
263

>  <ID>  (5492) 
JP003250

>  <CONTRIBUTOR>  (5492) 
University of Tokyo Team, {Faculty of Engineering, University of Tokyo

>  <COMMENT>  (5492) 
SMILES=[O-1][N+1](=O)c(c1)ccc(c1)OP(=S)(OC)OC
InChI=InChI=1S/C8H10NO5PS/c1-12-15(16,13-2)14-8-5-3-7(4-6-8)9(10)11/h3-6H,1-2H3
computed SMILES=O=N(=O)C1=CC=C(OP(=S)(OC)OC)C=C1
accession=JP003250
date=2016.01.19 (Created 2008.10.21, modified 2011.05.06)
author=MASS SPECTROSCOPY SOC. OF JAPAN (MSSJ)
license=CC BY-NC-SA
exact mass=263.00173
ionization energy=70 eV
ion type=[M]+*
computed spectral entropy=1.9894204676878102
computed normalized entropy=0.8639943313022024
SPLASH=splash10-06vi-3970000000-203d78f4cbba79fcaa11
submitter=submitter = University of Tokyo Team (Faculty of Engineering, University of Tokyo)
MoNA Rating=3.75

>  <NUM PEAKS>  (5492) 
10

>  <MASS SPECTRAL PEAKS>  (5492) 
79 47
93 35
109 86
125 87
137 17
200 15
231 9
232 12
246 15
263 99.99

$$$$

     RDKit          2D

 12 11  0  0  0  0  0  0  0  0999 V2000
   -6.4952    4.5000    0.0000 C   0  0  0  0  0  0  0  0  0  0  0  0
    2.5981    3.7500    0.0000 C   0  0  0  0  0  0  0  0  0  0  0  0
   -0.4512    1.1914    0.0000 C   0  0  0  0  0  0  0  0  0  0  0  0
   -2.5981    3.7500    0.0000 C   0  0  0  0  0  0  0  0  0  0  0  0
   -3.8971    4.5000    0.0000 C   0  0  0  0  0  0  0  0  0  0  0  0
   -5.1962    3.7500    0.0000 N   0  0  0  0  0  0  0  0  0  0  0  0
   -3.8971    6.0000    0.0000 O   0  0  0  0  0  0  0  0  0  0  0  0
    1.2990    4.5000    0.0000 O   0  0  0  0  0  0  0  0  0  0  0  0
   -0.9642    2.6009    0.0000 O   0  0  0  0  0  0  0  0  0  0  0  0
    0.0000    3.7500    0.0000 P   0  0  0  0  0  0  0  0  0  0  0  0
    0.9642    2.6009    0.0000 S   0  0  0  0  0  0  0  0  0  0  0  0
   -1.2990    4.5000    0.0000 S   0  0  0  0  0  0  0  0  0  0  0  0
  5  4  1  0
  6  1  1  0
  6  5  2  3
  7  5  1  0
  8  2  1  0
  9  3  1  0
 10  8  1  0
 10  9  1  0
 11 10  2  0
 12  4  1  0
 12 10  1  0
M  END
>  <NAME>  (5493) 
DIMETHOATE

>  <SYNONYMS>  (5493) 


>  <SPECTRUM TYPE>  (5493) 
MS1

>  <INSTRUMENT TYPE>  (5493) 
EI-B

>  <INSTRUMENT>  (5493) 
HITACHI RMU-6E

>  <ION MODE>  (5493) 
P

>  <INCHIKEY>  (5493) 
MCWXGJITAZMZEV-UHFFFAOYSA-N

>  <FORMULA>  (5493) 
C5H12NO3PS2

>  <EXACT MASS>  (5493) 
228.999621874

>  <MW>  (5493) 
229

>  <ID>  (5493) 
JP003249

>  <CONTRIBUTOR>  (5493) 
University of Tokyo Team, {Faculty of Engineering, University of Tokyo

>  <COMMENT>  (5493) 
SMILES=CNC(=O)CSP(=S)(OC)OC
InChI=InChI=1S/C5H12NO3PS2/c1-6-5(7)4-12-10(11,8-2)9-3/h4H2,1-3H3,(H,6,7)
computed SMILES=S=P(OC)(OC)SCC(O)=NC
accession=JP003249
date=2016.01.19 (Created 2008.10.21, modified 2011.05.06)
author=MASS SPECTROSCOPY SOC. OF JAPAN (MSSJ)
license=CC BY-NC-SA
exact mass=228.99962
ionization energy=70 eV
ion type=[M]+*
computed spectral entropy=2.4674845847838576
computed normalized entropy=0.9349871096372074
SPLASH=splash10-004u-9300000000-683772124d452cc04e64
submitter=submitter = University of Tokyo Team (Faculty of Engineering, University of Tokyo)
MoNA Rating=3.75

>  <NUM PEAKS>  (5493) 
14

>  <MASS SPECTRAL PEAKS>  (5493) 
47 43
56 21
58 47
63 34
79 34
87 99.99
88 22
93 81
104 17
105 15
125 80
126 22
143 29
229 38

$$$$

     RDKit          2D

 12 12  0  0  1  0  0  0  0  0999 V2000
   -1.3000   -0.7500    0.0000 C   0  0  0  0  0  0  0  0  0  0  0  0
   -0.0000   -1.5000    0.0000 C   0  0  0  0  0  0  0  0  0  0  0  0
   -1.3000    0.7500    0.0000 C   0  0  0  0  0  0  0  0  0  0  0  0
    1.3000   -0.7500    0.0000 C   0  0  0  0  0  0  0  0  0  0  0  0
    0.0000    1.5000    0.0000 C   0  0  0  0  0  0  0  0  0  0  0  0
    1.3000    0.7500    0.0000 C   0  0  0  0  0  0  0  0  0  0  0  0
   -2.5989   -1.5002    0.0000 Cl  0  0  0  0  0  0  0  0  0  0  0  0
   -0.0000   -3.0000    0.0000 Cl  0  0  0  0  0  0  0  0  0  0  0  0
   -2.5989    1.5002    0.0000 Cl  0  0  0  0  0  0  0  0  0  0  0  0
    2.5989   -1.5002    0.0000 Cl  0  0  0  0  0  0  0  0  0  0  0  0
    0.0000    3.0000    0.0000 Cl  0  0  0  0  0  0  0  0  0  0  0  0
    2.5989    1.5002    0.0000 Cl  0  0  0  0  0  0  0  0  0  0  0  0
  2  1  1  0
  3  1  1  0
  4  2  1  0
  5  3  1  0
  6  4  1  0
  6  5  1  0
  1  7  1  6
  2  8  1  1
  3  9  1  6
  4 10  1  6
  5 11  1  1
  6 12  1  6
M  END
>  <NAME>  (5494) 
GAMMA-HEXACHLORO-CYCLOHEXANE

>  <SYNONYMS>  (5494) 


>  <SPECTRUM TYPE>  (5494) 
MS1

>  <INSTRUMENT TYPE>  (5494) 
EI-B

>  <INSTRUMENT>  (5494) 
HITACHI RMU-6E

>  <ION MODE>  (5494) 
P

>  <INCHIKEY>  (5494) 
JLYXXMFPNIAWKQ-GNIYUCBRSA-N

>  <FORMULA>  (5494) 
C6H6Cl6

>  <EXACT MASS>  (5494) 
287.860066272

>  <MW>  (5494) 
288

>  <ID>  (5494) 
JP003248

>  <CONTRIBUTOR>  (5494) 
University of Tokyo Team, {Faculty of Engineering, University of Tokyo

>  <COMMENT>  (5494) 
SMILES=[C@@H]1([C@@H]([C@@H]([C@H]([C@@H]([C@@H]1Cl)Cl)Cl)Cl)Cl)Cl
InChI=InChI=1S/C6H6Cl6/c7-1-2(8)4(10)6(12)5(11)3(1)9/h1-6H/t1-,2-,3-,4+,5+,6+
computed SMILES=ClC1C(Cl)C(Cl)C(Cl)C(Cl)C1Cl
accession=JP003248
date=2016.01.19 (Created 2008.10.21, modified 2011.05.06)
author=MASS SPECTROSCOPY SOC. OF JAPAN (MSSJ)
license=CC BY-NC-SA
exact mass=287.86007
ionization energy=70 eV
ion type=[M]+*
computed spectral entropy=2.590460038128578
computed normalized entropy=0.8647168043008671
SPLASH=splash10-00lr-0970000000-33cb78a0afe7fa116f26
submitter=submitter = University of Tokyo Team (Faculty of Engineering, University of Tokyo)
MoNA Rating=3.75

>  <NUM PEAKS>  (5494) 
20

>  <MASS SPECTRAL PEAKS>  (5494) 
109 75
111 66
113 16
149 30
181 97
183 91
185 32
217 80
219 99.99
221 49
223 12
252 14
254 22
256 16
258 4
288 7
290 12
292 8
294 5
296 4

$$$$

     RDKit          2D

 19 20  0  0  0  0  0  0  0  0999 V2000
   -0.6600    1.1538    0.0000 C   0  0  0  0  0  0  0  0  0  0  0  0
    0.6350    3.3968    0.0000 C   0  0  0  0  0  0  0  0  0  0  0  0
   -4.5570    3.3577    0.0000 C   0  0  0  0  0  0  0  0  0  0  0  0
   -3.2620    1.1147    0.0000 C   0  0  0  0  0  0  0  0  0  0  0  0
    0.6391    0.4038    0.0000 C   0  0  0  0  0  0  0  0  0  0  0  0
    1.9341    2.6468    0.0000 C   0  0  0  0  0  0  0  0  0  0  0  0
   -5.8561    2.6077    0.0000 C   0  0  0  0  0  0  0  0  0  0  0  0
   -4.5611    0.3647    0.0000 C   0  0  0  0  0  0  0  0  0  0  0  0
   -0.6695    2.6373    0.0000 C   0  0  0  0  0  0  0  0  0  0  0  0
   -3.2675    2.6242    0.0000 C   0  0  0  0  0  0  0  0  0  0  0  0
    1.9373    1.1323    0.0000 C   0  0  0  0  0  0  0  0  0  0  0  0
   -5.8743    1.1192    0.0000 C   0  0  0  0  0  0  0  0  0  0  0  0
   -1.9723    3.3807    0.0000 C   0  0  0  0  0  0  0  0  0  0  0  0
   -1.9798    4.8807    0.0000 C   0  0  0  0  0  0  0  0  0  0  0  0
    3.2325    0.3757    0.0000 Cl  0  0  0  0  0  0  0  0  0  0  0  0
   -7.1771    0.3758    0.0000 Cl  0  0  0  0  0  0  0  0  0  0  0  0
   -0.4798    4.8883    0.0000 Cl  0  0  0  0  0  0  0  0  0  0  0  0
   -1.9873    6.3807    0.0000 Cl  0  0  0  0  0  0  0  0  0  0  0  0
   -3.4798    4.8732    0.0000 Cl  0  0  0  0  0  0  0  0  0  0  0  0
  5  1  2  0
  6  2  1  0
  7  3  2  0
  8  4  1  0
  9  1  1  0
  9  2  2  0
 10  3  1  0
 10  4  2  0
 11  5  1  0
 11  6  2  0
 12  7  1  0
 12  8  2  0
 13  9  1  0
 13 10  1  0
 14 13  1  0
 15 11  1  0
 16 12  1  0
 17 14  1  0
 18 14  1  0
 19 14  1  0
M  END
>  <NAME>  (5495) 
1,1'-(2,2,2-TRICHLOROETHYLIDENE)-BIS(4-CHLOROBENZENE)

>  <SYNONYMS>  (5495) 


>  <SPECTRUM TYPE>  (5495) 
MS1

>  <INSTRUMENT TYPE>  (5495) 
EI-B

>  <INSTRUMENT>  (5495) 
HITACHI RMU-6E

>  <ION MODE>  (5495) 
P

>  <INCHIKEY>  (5495) 
YVGGHNCTFXOJCH-UHFFFAOYSA-N

>  <FORMULA>  (5495) 
C14H9Cl5

>  <EXACT MASS>  (5495) 
351.914688688

>  <MW>  (5495) 
352

>  <ID>  (5495) 
JP003247

>  <CONTRIBUTOR>  (5495) 
University of Tokyo Team, {Faculty of Engineering, University of Tokyo

>  <COMMENT>  (5495) 
SMILES=Clc(c2)ccc(c2)C(c(c1)ccc(Cl)c1)C(Cl)(Cl)Cl
InChI=InChI=1S/C14H9Cl5/c15-11-5-1-9(2-6-11)13(14(17,18)19)10-3-7-12(16)8-4-10/h1-8,13H
computed SMILES=ClC1=CC=C(C=C1)C(C2=CC=C(Cl)C=C2)C(Cl)(Cl)Cl
accession=JP003247
date=2016.01.19 (Created 2008.10.21, modified 2011.05.06)
author=MASS SPECTROSCOPY SOC. OF JAPAN (MSSJ)
license=CC BY-NC-SA
exact mass=351.91469
ionization energy=70 eV
ion type=[M]+*
computed spectral entropy=1.8993165579100304
computed normalized entropy=0.7196950731596752
SPLASH=splash10-000i-0390000000-a23b93b08974f28c17ea
submitter=submitter = University of Tokyo Team (Faculty of Engineering, University of Tokyo)
MoNA Rating=3.75

>  <NUM PEAKS>  (5495) 
14

>  <MASS SPECTRAL PEAKS>  (5495) 
165 59
176 15
199 17
212 13
235 99.99
237 82
282 5.7
283 2.8
284 5.8
316 5.9
318 6.9
352 2
354 2.6
356 2

$$$$

     RDKit          2D

 11 10  0  0  0  0  0  0  0  0999 V2000
    2.2841    2.8734    0.0000 C   0  0  0  0  0  0  0  0  0  0  0  0
   -5.5102    2.8734    0.0000 C   0  0  0  0  0  0  0  0  0  0  0  0
   -3.0284    7.3311    0.0000 C   0  0  0  0  0  0  0  0  0  0  0  0
    0.9850    3.6234    0.0000 C   0  0  0  0  0  0  0  0  0  0  0  0
   -4.2111    3.6234    0.0000 C   0  0  0  0  0  0  0  0  0  0  0  0
   -2.0642    6.1820    0.0000 C   0  0  0  0  0  0  0  0  0  0  0  0
   -0.6489    4.7725    0.0000 O   0  0  0  0  0  0  0  0  0  0  0  0
   -0.3140    2.8734    0.0000 O   0  0  0  0  0  0  0  0  0  0  0  0
   -2.9121    2.8734    0.0000 O   0  0  0  0  0  0  0  0  0  0  0  0
   -2.5772    4.7725    0.0000 O   0  0  0  0  0  0  0  0  0  0  0  0
   -1.6131    3.6234    0.0000 P   0  0  0  0  0  0  0  0  0  0  0  0
  4  1  1  0
  5  2  1  0
  6  3  1  0
  8  4  1  0
  9  5  1  0
 10  6  1  0
 11  7  2  0
 11  8  1  0
 11  9  1  0
 11 10  1  0
M  END
>  <NAME>  (5496) 
TRIETHYL PHOSPHATE

>  <SYNONYMS>  (5496) 


>  <SPECTRUM TYPE>  (5496) 
MS1

>  <INSTRUMENT TYPE>  (5496) 
EI-B

>  <INSTRUMENT>  (5496) 
HITACHI RMU-6E

>  <ION MODE>  (5496) 
P

>  <INCHIKEY>  (5496) 
DQWPFSLDHJDLRL-UHFFFAOYSA-N

>  <FORMULA>  (5496) 
C6H15O4P

>  <EXACT MASS>  (5496) 
182.07079559

>  <MW>  (5496) 
182

>  <ID>  (5496) 
JP003246

>  <CONTRIBUTOR>  (5496) 
University of Tokyo Team, {Faculty of Engineering, University of Tokyo

>  <COMMENT>  (5496) 
SMILES=CCOP(=O)(OCC)OCC
InChI=InChI=1S/C6H15O4P/c1-4-8-11(7,9-5-2)10-6-3/h4-6H2,1-3H3
computed SMILES=O=P(OCC)(OCC)OCC
accession=JP003246
date=2016.01.19 (Created 2008.10.21, modified 2011.05.06)
author=MASS SPECTROSCOPY SOC. OF JAPAN (MSSJ)
license=CC BY-NC-SA
exact mass=182.0708
ionization energy=70 eV
ion type=[M]+*
computed spectral entropy=2.338481819387212
computed normalized entropy=0.941074313430132
SPLASH=splash10-0a7j-4900000000-894df777670b58419247
submitter=submitter = University of Tokyo Team (Faculty of Engineering, University of Tokyo)
MoNA Rating=3.75

>  <NUM PEAKS>  (5496) 
12

>  <MASS SPECTRAL PEAKS>  (5496) 
81 71
82 55
99 95
109 67
111 27
125 34
127 82
137 23
138 27
139 20
155 99.99
182 28

$$$$

     RDKit          2D

 17 16  0  0  0  0  0  0  0  0999 V2000
    0.0000    0.0000    0.0000 C   0  0  0  0  0  0  0  0  0  0  0  0
    1.2042    6.8296    0.0000 C   0  0  0  0  0  0  0  0  0  0  0  0
   -7.7942    4.5000    0.0000 C   0  0  0  0  0  0  0  0  0  0  0  0
   -7.3027    1.7123    0.0000 C   0  0  0  0  0  0  0  0  0  0  0  0
    0.0000    1.5000    0.0000 C   0  0  0  0  0  0  0  0  0  0  0  0
    0.6912    5.4200    0.0000 C   0  0  0  0  0  0  0  0  0  0  0  0
   -6.4952    3.7500    0.0000 C   0  0  0  0  0  0  0  0  0  0  0  0
   -6.3385    2.8614    0.0000 C   0  0  0  0  0  0  0  0  0  0  0  0
    0.1782    3.4895    0.0000 O   0  0  0  0  0  0  0  0  0  0  0  0
   -2.9329    2.6009    0.0000 O   0  0  0  0  0  0  0  0  0  0  0  0
   -1.2990    2.2500    0.0000 O   0  0  0  0  0  0  0  0  0  0  0  0
   -0.7860    5.1595    0.0000 O   0  0  0  0  0  0  0  0  0  0  0  0
   -5.1962    4.5000    0.0000 O   0  0  0  0  0  0  0  0  0  0  0  0
   -4.8613    2.6009    0.0000 O   0  0  0  0  0  0  0  0  0  0  0  0
   -2.5981    4.5000    0.0000 O   0  0  0  0  0  0  0  0  0  0  0  0
   -1.2990    3.7500    0.0000 P   0  0  0  0  0  0  0  0  0  0  0  0
   -3.8971    3.7500    0.0000 P   0  0  0  0  0  0  0  0  0  0  0  0
  5  1  1  0
  6  2  1  0
  7  3  1  0
  8  4  1  0
 11  5  1  0
 12  6  1  0
 13  7  1  0
 14  8  1  0
 16  9  2  0
 16 11  1  0
 16 12  1  0
 16 15  1  0
 17 10  2  0
 17 13  1  0
 17 14  1  0
 17 15  1  0
M  END
>  <NAME>  (5497) 
TETRAETHYL PYROPHOSPHATE

>  <SYNONYMS>  (5497) 


>  <SPECTRUM TYPE>  (5497) 
MS1

>  <INSTRUMENT TYPE>  (5497) 
EI-B

>  <INSTRUMENT>  (5497) 
HITACHI RMU-6E

>  <ION MODE>  (5497) 
P

>  <INCHIKEY>  (5497) 
IDCBOTIENDVCBQ-UHFFFAOYSA-N

>  <FORMULA>  (5497) 
C8H20O7P2

>  <EXACT MASS>  (5497) 
290.06842624

>  <MW>  (5497) 
290

>  <ID>  (5497) 
JP003245

>  <CONTRIBUTOR>  (5497) 
University of Tokyo Team, {Faculty of Engineering, University of Tokyo

>  <COMMENT>  (5497) 
SMILES=CCOP(=O)(OCC)OP(=O)(OCC)OCC
InChI=InChI=1S/C8H20O7P2/c1-5-11-16(9,12-6-2)15-17(10,13-7-3)14-8-4/h5-8H2,1-4H3
computed SMILES=O=P(OCC)(OCC)OP(=O)(OCC)OCC
accession=JP003245
date=2016.01.19 (Created 2008.10.21, modified 2011.05.06)
author=MASS SPECTROSCOPY SOC. OF JAPAN (MSSJ)
license=CC BY-NC-SA
exact mass=290.06843
ionization energy=70 eV
ion type=[M]+*
computed spectral entropy=2.538613473978911
computed normalized entropy=0.9619394946410691
SPLASH=splash10-08i0-4950000000-5d2c127a235111c296a9
submitter=submitter = University of Tokyo Team (Faculty of Engineering, University of Tokyo)
MoNA Rating=3.75

>  <NUM PEAKS>  (5497) 
14

>  <MASS SPECTRAL PEAKS>  (5497) 
81 73
82 44
99 93
109 42
127 73
155 81
161 94
162 63
179 73
182 15
207 60
235 93
263 99.99
290 15

$$$$

     RDKit          2D

 15 16  0  0  0  0  0  0  0  0999 V2000
   -2.6580   -1.6509    0.0000 C   0  0  0  0  0  0  0  0  0  0  0  0
    0.5235   -0.9751    0.0000 C   0  0  0  0  0  0  0  0  0  0  0  0
    3.4741    3.7742    0.0000 C   0  0  0  0  0  0  0  0  0  0  0  0
    3.4746    2.2734    0.0000 C   0  0  0  0  0  0  0  0  0  0  0  0
    2.1746    4.5250    0.0000 C   0  0  0  0  0  0  0  0  0  0  0  0
    2.1756    1.5234    0.0000 C   0  0  0  0  0  0  0  0  0  0  0  0
    0.8756    3.7750    0.0000 C   0  0  0  0  0  0  0  0  0  0  0  0
   -2.0485   -0.2803    0.0000 C   0  0  0  0  0  0  0  0  0  0  0  0
    0.8760    2.2742    0.0000 C   0  0  0  0  0  0  0  0  0  0  0  0
   -2.7985    1.0187    0.0000 C   0  0  0  0  0  0  0  0  0  0  0  0
   -1.7988    2.1271    0.0000 C   0  0  0  0  0  0  0  0  0  0  0  0
   -4.2902    1.1762    0.0000 N   0  0  0  0  0  0  0  0  0  0  0  0
   -0.5888    0.0313    0.0000 N   0  0  0  0  0  0  0  0  0  0  0  0
   -0.4230    1.5242    0.0000 N   0  0  0  0  0  0  0  0  0  0  0  0
   -2.1143    3.5935    0.0000 O   0  0  0  0  0  0  0  0  0  0  0  0
  4  3  2  0
  5  3  1  0
  6  4  1  0
  7  5  2  0
  8  1  1  0
  9  6  2  0
  9  7  1  0
 10  8  2  0
 11 10  1  0
 12 10  1  0
 13  2  1  0
 13  8  1  0
 14  9  1  0
 14 11  1  0
 14 13  1  0
 15 11  2  0
M  END
>  <NAME>  (5498) 
4-AMINO-ANTIPYRINE

>  <SYNONYMS>  (5498) 


>  <SPECTRUM TYPE>  (5498) 
MS1

>  <INSTRUMENT TYPE>  (5498) 
EI-B

>  <INSTRUMENT>  (5498) 
HITACHI RMU-6E

>  <ION MODE>  (5498) 
P

>  <INCHIKEY>  (5498) 
RLFWWDJHLFCNIJ-UHFFFAOYSA-N

>  <FORMULA>  (5498) 
C11H13N3O

>  <EXACT MASS>  (5498) 
203.105862036

>  <MW>  (5498) 
203

>  <ID>  (5498) 
JP003244

>  <CONTRIBUTOR>  (5498) 
University of Tokyo Team, {Faculty of Engineering, University of Tokyo

>  <COMMENT>  (5498) 
SMILES=CC(=C(N)1)N(C)N(c(c2)cccc2)C(=O)1
InChI=InChI=1S/C11H13N3O/c1-8-10(12)11(15)14(13(8)2)9-6-4-3-5-7-9/h3-7H,12H2,1-2H3
computed SMILES=O=C1C(N)=C(N(N1C=2C=CC=CC2)C)C
accession=JP003244
date=2016.01.19 (Created 2008.10.21, modified 2011.05.06)
author=MASS SPECTROSCOPY SOC. OF JAPAN (MSSJ)
license=CC BY-NC-SA
exact mass=203.10586
ionization energy=70 eV
ion type=[M]+*
computed spectral entropy=2.3018998119062384
computed normalized entropy=0.8974445461115725
SPLASH=splash10-0pc0-9020000000-6b9b368cc814cac9f672
submitter=submitter = University of Tokyo Team (Faculty of Engineering, University of Tokyo)
MoNA Rating=3.75

>  <NUM PEAKS>  (5498) 
13

>  <MASS SPECTRAL PEAKS>  (5498) 
42 62
51 20
56 99.99
57 83
77 37
83 57
84 83
91 10
93 15
119 7
202 18
203 93
204 22

$$$$

     RDKit          2D

 16 17  0  0  0  0  0  0  0  0999 V2000
    2.0645    4.1598    0.0000 C   0  0  0  0  0  0  0  0  0  0  0  0
    4.5790    2.5459    0.0000 C   0  0  0  0  0  0  0  0  0  0  0  0
   -1.1169    3.4841    0.0000 C   0  0  0  0  0  0  0  0  0  0  0  0
   -4.0676   -1.2653    0.0000 C   0  0  0  0  0  0  0  0  0  0  0  0
   -4.0681    0.2355    0.0000 C   0  0  0  0  0  0  0  0  0  0  0  0
   -2.7681   -2.0161    0.0000 C   0  0  0  0  0  0  0  0  0  0  0  0
   -2.7690    0.9855    0.0000 C   0  0  0  0  0  0  0  0  0  0  0  0
   -1.4690   -1.2661    0.0000 C   0  0  0  0  0  0  0  0  0  0  0  0
    1.4550    2.7892    0.0000 C   0  0  0  0  0  0  0  0  0  0  0  0
   -1.4695    0.2347    0.0000 C   0  0  0  0  0  0  0  0  0  0  0  0
    2.2050    1.4902    0.0000 C   0  0  0  0  0  0  0  0  0  0  0  0
    1.2053    0.3818    0.0000 C   0  0  0  0  0  0  0  0  0  0  0  0
    3.6967    1.3327    0.0000 N   0  0  0  0  0  0  0  0  0  0  0  0
   -0.0047    2.4776    0.0000 N   0  0  0  0  0  0  0  0  0  0  0  0
   -0.1705    0.9847    0.0000 N   0  0  0  0  0  0  0  0  0  0  0  0
    1.5208   -1.0846    0.0000 O   0  0  0  0  0  0  0  0  0  0  0  0
  5  4  2  0
  6  4  1  0
  7  5  1  0
  8  6  2  0
  9  1  1  0
 10  7  2  0
 10  8  1  0
 11  9  2  0
 12 11  1  0
 13  2  1  0
 13 11  1  0
 14  3  1  0
 14  9  1  0
 15 10  1  0
 15 12  1  0
 15 14  1  0
 16 12  2  0
M  END
>  <NAME>  (5499) 
4-METHYLAMINO-ANTIPYRINE

>  <SYNONYMS>  (5499) 


>  <SPECTRUM TYPE>  (5499) 
MS1

>  <INSTRUMENT TYPE>  (5499) 
EI-B

>  <INSTRUMENT>  (5499) 
HITACHI RMU-6E

>  <ION MODE>  (5499) 
P

>  <INCHIKEY>  (5499) 
JILCEWWZTBBOFS-UHFFFAOYSA-N

>  <FORMULA>  (5499) 
C12H15N3O

>  <EXACT MASS>  (5499) 
217.1215121

>  <MW>  (5499) 
217

>  <ID>  (5499) 
JP003243

>  <CONTRIBUTOR>  (5499) 
University of Tokyo Team, {Faculty of Engineering, University of Tokyo

>  <COMMENT>  (5499) 
SMILES=CNC(=C(C)1)C(=O)N(c(c2)cccc2)N(C)1
InChI=InChI=1S/C12H15N3O/c1-9-11(13-2)12(16)15(14(9)3)10-7-5-4-6-8-10/h4-8,13H,1-3H3
computed SMILES=O=C1C(NC)=C(N(N1C=2C=CC=CC2)C)C
accession=JP003243
date=2016.01.19 (Created 2008.10.21, modified 2011.05.06)
author=MASS SPECTROSCOPY SOC. OF JAPAN (MSSJ)
license=CC BY-NC-SA
exact mass=217.12151
ionization energy=70 eV
ion type=[M]+*
computed spectral entropy=2.486978974825034
computed normalized entropy=0.8969880584437988
SPLASH=splash10-0aor-9140000000-9160708910f96853b852
submitter=submitter = University of Tokyo Team (Faculty of Engineering, University of Tokyo)
MoNA Rating=3.75

>  <NUM PEAKS>  (5499) 
16

>  <MASS SPECTRAL PEAKS>  (5499) 
42 36
51 9
56 99.99
57 26
67 4
77 20
83 62
91 15
97 12
98 23
119 13
123 41
215 23
216 22
217 77
218 20

$$$$

     RDKit          2D

 17 18  0  0  0  0  0  0  0  0999 V2000
   -2.1861   -2.2041    0.0000 C   0  0  0  0  0  0  0  0  0  0  0  0
   -4.7005   -0.5901    0.0000 C   0  0  0  0  0  0  0  0  0  0  0  0
   -4.4278    1.9936    0.0000 C   0  0  0  0  0  0  0  0  0  0  0  0
    0.9954   -1.5283    0.0000 C   0  0  0  0  0  0  0  0  0  0  0  0
    3.9461    3.2210    0.0000 C   0  0  0  0  0  0  0  0  0  0  0  0
    3.9465    1.7202    0.0000 C   0  0  0  0  0  0  0  0  0  0  0  0
    2.6465    3.9719    0.0000 C   0  0  0  0  0  0  0  0  0  0  0  0
    2.6475    0.9702    0.0000 C   0  0  0  0  0  0  0  0  0  0  0  0
    1.3475    3.2219    0.0000 C   0  0  0  0  0  0  0  0  0  0  0  0
   -1.5766   -0.8335    0.0000 C   0  0  0  0  0  0  0  0  0  0  0  0
    1.3480    1.7210    0.0000 C   0  0  0  0  0  0  0  0  0  0  0  0
   -2.3266    0.4656    0.0000 C   0  0  0  0  0  0  0  0  0  0  0  0
   -1.3268    1.5739    0.0000 C   0  0  0  0  0  0  0  0  0  0  0  0
   -3.8183    0.6230    0.0000 N   0  0  0  0  0  0  0  0  0  0  0  0
   -0.1168   -0.5218    0.0000 N   0  0  0  0  0  0  0  0  0  0  0  0
    0.0489    0.9710    0.0000 N   0  0  0  0  0  0  0  0  0  0  0  0
   -1.6423    3.0404    0.0000 O   0  0  0  0  0  0  0  0  0  0  0  0
  6  5  2  0
  7  5  1  0
  8  6  1  0
  9  7  2  0
 10  1  1  0
 11  8  2  0
 11  9  1  0
 12 10  2  0
 13 12  1  0
 14  2  1  0
 14  3  1  0
 14 12  1  0
 15  4  1  0
 15 10  1  0
 16 11  1  0
 16 13  1  0
 16 15  1  0
 17 13  2  0
M  END
>  <NAME>  (5500) 
AMINOPYRIN

>  <SYNONYMS>  (5500) 


>  <SPECTRUM TYPE>  (5500) 
MS1

>  <INSTRUMENT TYPE>  (5500) 
EI-B

>  <INSTRUMENT>  (5500) 
HITACHI RMU-6E

>  <ION MODE>  (5500) 
P

>  <INCHIKEY>  (5500) 
RMMXTBMQSGEXHJ-UHFFFAOYSA-N

>  <FORMULA>  (5500) 
C13H17N3O

>  <EXACT MASS>  (5500) 
231.137162164

>  <MW>  (5500) 
231

>  <ID>  (5500) 
JP003242

>  <CONTRIBUTOR>  (5500) 
University of Tokyo Team, {Faculty of Engineering, University of Tokyo

>  <COMMENT>  (5500) 
SMILES=CN(C)C(=C(C)1)C(=O)N(c(c2)cccc2)N(C)1
InChI=InChI=1S/C13H17N3O/c1-10-12(14(2)3)13(17)16(15(10)4)11-8-6-5-7-9-11/h5-9H,1-4H3
computed SMILES=O=C1C(=C(N(N1C=2C=CC=CC2)C)C)N(C)C
accession=JP003242
date=2016.01.19 (Created 2008.10.21, modified 2011.05.06)
author=MASS SPECTROSCOPY SOC. OF JAPAN (MSSJ)
license=CC BY-NC-SA
exact mass=231.13716
ionization energy=70 eV
ion type=[M]+*
computed spectral entropy=2.385203159068075
computed normalized entropy=0.8602801922750503
SPLASH=splash10-053s-9250000000-c3308b81b44067a47f7e
submitter=submitter = University of Tokyo Team (Faculty of Engineering, University of Tokyo)
MoNA Rating=3.75

>  <NUM PEAKS>  (5500) 
16

>  <MASS SPECTRAL PEAKS>  (5500) 
42 18
51 7
56 92
67 11
70 17
77 13
82 10
83 10
91 7
97 71
111 37
112 20
123 18
216 17
231 99.99
232 28

$$$$

     RDKit          2D

 22 22  0  0  0  0  0  0  0  0999 V2000
    0.6493    2.5506    0.0000 C   0  0  0  0  0  0  0  0  0  0  0  0
    2.8910   -1.6470    0.0000 C   0  0  0  0  0  0  0  0  0  0  0  0
   -2.5322    1.8749    0.0000 C   0  0  0  0  0  0  0  0  0  0  0  0
   -5.4829   -2.8745    0.0000 C   0  0  0  0  0  0  0  0  0  0  0  0
   -5.4833   -1.3736    0.0000 C   0  0  0  0  0  0  0  0  0  0  0  0
   -4.1833   -3.6253    0.0000 C   0  0  0  0  0  0  0  0  0  0  0  0
   -4.1843   -0.6236    0.0000 C   0  0  0  0  0  0  0  0  0  0  0  0
   -2.8843   -2.8753    0.0000 C   0  0  0  0  0  0  0  0  0  0  0  0
    3.1637    0.9367    0.0000 C   0  0  0  0  0  0  0  0  0  0  0  0
    0.0398    1.1801    0.0000 C   0  0  0  0  0  0  0  0  0  0  0  0
   -2.8848   -1.3745    0.0000 C   0  0  0  0  0  0  0  0  0  0  0  0
    0.7898   -0.1190    0.0000 C   0  0  0  0  0  0  0  0  0  0  0  0
   -0.2100   -1.2274    0.0000 C   0  0  0  0  0  0  0  0  0  0  0  0
    2.2815   -0.2764    0.0000 N   0  0  0  0  0  0  0  0  0  0  0  0
   -1.4200    0.8684    0.0000 N   0  0  0  0  0  0  0  0  0  0  0  0
   -1.5857   -0.6245    0.0000 N   0  0  0  0  0  0  0  0  0  0  0  0
    0.1055   -2.6938    0.0000 O   0  0  0  0  0  0  0  0  0  0  0  0
    4.4980   -0.7125    0.0000 O   0  0  0  0  0  0  0  0  0  0  0  0
    6.1471    0.6218    0.0000 O   0  0  0  0  0  0  0  0  0  0  0  0
    4.8129    2.2710    0.0000 O   0  0  0  0  0  0  0  0  0  0  0  0
    4.6554    0.7792    0.0000 S   0  0  0  0  0  0  0  0  0  0  0  0
    0.0000    0.0000    0.0000 Na  0  0  0  0  0 15  0  0  0  0  0  0
  5  4  2  0
  6  4  1  0
  7  5  1  0
  8  6  2  0
 10  1  1  0
 11  7  2  0
 11  8  1  0
 12 10  2  0
 13 12  1  0
 14  2  1  0
 14  9  1  0
 14 12  1  0
 15  3  1  0
 15 10  1  0
 16 11  1  0
 16 13  1  0
 16 15  1  0
 17 13  2  0
 21  9  1  0
 21 18  1  0
 21 19  2  0
 21 20  2  0
M  CHG  2  18  -1  22   1
M  END
>  <NAME>  (5501) 
SULPYRINE

>  <SYNONYMS>  (5501) 


>  <SPECTRUM TYPE>  (5501) 
MS1

>  <INSTRUMENT TYPE>  (5501) 
EI-B

>  <INSTRUMENT>  (5501) 
HITACHI RMU-6E

>  <ION MODE>  (5501) 
P

>  <INCHIKEY>  (5501) 
DJGAAPFSPWAYTJ-UHFFFAOYSA-M

>  <FORMULA>  (5501) 
C13H16N3NaO4S

>  <EXACT MASS>  (5501) 
333.0759212720001

>  <MW>  (5501) 
333

>  <ID>  (5501) 
JP003241

>  <CONTRIBUTOR>  (5501) 
University of Tokyo Team, {Faculty of Engineering, University of Tokyo

>  <COMMENT>  (5501) 
SMILES=[Na]OS(=O)(=O)CN(C)C(=C(C)1)C(=O)N(c(c2)cccc2)N(C)1
InChI=InChI=1S/C13H17N3O4S.Na/c1-10-12(14(2)9-21(18,19)20)13(17)16(15(10)3)11-7-5-4-6-8-11;/h4-8H,9H2,1-3H3,(H,18,19,20);/q;+1/p-1
computed SMILES=[Na+].O=C1C(=C(N(N1C=2C=CC=CC2)C)C)N(C)CS(=O)(=O)[O-]
accession=JP003241
date=2016.01.19 (Created 2008.10.21, modified 2011.05.06)
author=MASS SPECTROSCOPY SOC. OF JAPAN (MSSJ)
license=CC BY-NC-SA
exact mass=333.07592
ionization energy=70 eV
ion type=[M]+*
computed spectral entropy=2.9371164689722074
computed normalized entropy=0.9502025654099725
SPLASH=splash10-066r-9120000000-b465330a1885c099bc73
submitter=submitter = University of Tokyo Team (Faculty of Engineering, University of Tokyo)
MoNA Rating=3.75

>  <NUM PEAKS>  (5501) 
22

>  <MASS SPECTRAL PEAKS>  (5501) 
41 20
42 51
44 10
48 17
51 27
54 22
56 99.99
57 40
64 51
65 20
68 12
77 42
83 65
91 37
96 22
97 37
98 36
119 45
123 72
215 52
217 78
218 22

$$$$

     RDKit          2D

 26 27  0  0  0  0  0  0  0  0999 V2000
  -14.2912    1.5019    0.0000 C   0  0  0  0  0  0  0  0  0  0  0  0
    6.4970    1.5006    0.0000 C   0  0  0  0  0  0  0  0  0  0  0  0
   -3.8989   -1.5002    0.0000 C   0  0  0  0  0  0  0  0  0  0  0  0
   -0.0010   -3.7500    0.0000 C   0  0  0  0  0  0  0  0  0  0  0  0
  -12.9923    0.7517    0.0000 C   0  0  0  0  0  0  0  0  0  0  0  0
    5.1981    0.7504    0.0000 C   0  0  0  0  0  0  0  0  0  0  0  0
  -11.6931    1.5015    0.0000 C   0  0  0  0  0  0  0  0  0  0  0  0
  -10.3942    0.7512    0.0000 C   0  0  0  0  0  0  0  0  0  0  0  0
   -9.0951    1.5010    0.0000 C   0  0  0  0  0  0  0  0  0  0  0  0
   -7.7962    0.7508    0.0000 C   0  0  0  0  0  0  0  0  0  0  0  0
    3.8989    1.5002    0.0000 C   0  0  0  0  0  0  0  0  0  0  0  0
   -6.4970    1.5006    0.0000 C   0  0  0  0  0  0  0  0  0  0  0  0
   -1.3000    1.5000    0.0000 C   0  0  0  0  0  0  0  0  0  0  0  0
    1.3000    1.5000    0.0000 C   0  0  0  0  0  0  0  0  0  0  0  0
   -3.8989    1.5002    0.0000 C   0  0  0  0  0  0  0  0  0  0  0  0
    1.3000   -1.5000    0.0000 C   0  0  0  0  0  0  0  0  0  0  0  0
   -2.6000   -0.7500    0.0000 C   0  0  0  0  0  0  0  0  0  0  0  0
   -2.6000    0.7500    0.0000 C   0  0  0  0  0  0  0  0  0  0  0  0
    0.0000    0.7500    0.0000 C   0  0  0  0  0  0  0  0  0  0  0  0
    2.6000    0.7500    0.0000 C   0  0  0  0  0  0  0  0  0  0  0  0
   -5.1981    0.7504    0.0000 C   0  0  0  0  0  0  0  0  0  0  0  0
    0.0000   -0.7500    0.0000 C   0  0  0  0  0  0  0  0  0  0  0  0
   -1.3000   -1.5000    0.0000 C   0  0  0  0  0  0  0  0  0  0  0  0
    2.6000   -0.7500    0.0000 N   0  0  0  0  0  0  0  0  0  0  0  0
   -5.1983   -0.7496    0.0000 O   0  0  0  0  0  0  0  0  0  0  0  0
   -1.3000   -3.0000    0.0000 O   0  0  0  0  0  0  0  0  0  0  0  0
  5  1  1  0
  6  2  1  0
  7  5  1  0
  8  7  1  0
  9  8  1  0
 10  9  1  0
  6 11  2  0
 12 10  1  0
 17  3  1  0
 18 13  2  0
 18 15  1  0
 18 17  1  0
 19 13  1  0
 19 14  2  0
 20 11  1  0
 20 14  1  0
 21 12  1  0
 21 15  1  0
 22 16  2  0
 22 19  1  0
 23 17  2  0
 23 22  1  0
 24 16  1  0
 24 20  2  0
 25 21  2  0
 26  4  1  0
 26 23  1  0
M  END
>  <NAME>  (5502) 
MONASCAMINONE METHYL ETHER

>  <SYNONYMS>  (5502) 


>  <SPECTRUM TYPE>  (5502) 
MS1

>  <INSTRUMENT TYPE>  (5502) 
EI-B

>  <INSTRUMENT>  (5502) 
HITACHI RMU-7

>  <ION MODE>  (5502) 
P

>  <INCHIKEY>  (5502) 
UGZSQZOGEOKORF-IZZDOVSWSA-N

>  <FORMULA>  (5502) 
C23H31NO2

>  <EXACT MASS>  (5502) 
353.235479232

>  <MW>  (5502) 
353

>  <ID>  (5502) 
JP003240

>  <CONTRIBUTOR>  (5502) 
University of Tokyo Team, {Faculty of Engineering, University of Tokyo

>  <COMMENT>  (5502) 
SMILES=CCCCCCCC(=O)Cc(c1)c(C)c(OC)c(c2)c(cc(C=CC)n2)1
InChI=InChI=1S/C23H31NO2/c1-5-7-8-9-10-12-21(25)15-18-13-19-14-20(11-6-2)24-16-22(19)23(26-4)17(18)3/h6,11,13-14,16H,5,7-10,12,15H2,1-4H3/b11-6+
computed SMILES=O=C(CC=1C=C2C=C(N=CC2=C(OC)C1C)C=CC)CCCCCCC
accession=JP003240
date=2016.01.19 (Created 2008.10.21, modified 2011.05.06)
author=MASS SPECTROSCOPY SOC. OF JAPAN (MSSJ)
license=CC BY-NC-SA
exact mass=353.23548
ionization energy=70 eV
ion type=[M]+*
computed spectral entropy=2.361084583004916
computed normalized entropy=0.8333592625342611
SPLASH=splash10-0h00-0293000000-00817fe370f2700af96b
submitter=submitter = University of Tokyo Team (Faculty of Engineering, University of Tokyo)
MoNA Rating=3.75

>  <NUM PEAKS>  (5502) 
17

>  <MASS SPECTRAL PEAKS>  (5502) 
127 7
167 5
168 5
180 6
181 12
182 7
196 9
197 15
198 16
210 19
212 73
213 15
226 35
227 99.99
228 18
353 88
354 24

$$$$

     RDKit          2D

 28 30  0  0  1  0  0  0  0  0999 V2000
    9.1496    8.9173    0.0000 C   0  0  0  0  0  0  0  0  0  0  0  0
   -9.0933    2.2500    0.0000 C   0  0  0  0  0  0  0  0  0  0  0  0
    0.1568   -1.4918    0.0000 C   0  0  0  0  0  0  0  0  0  0  0  0
    7.6824    8.6055    0.0000 C   0  0  0  0  0  0  0  0  0  0  0  0
   -7.7942    1.5000    0.0000 C   0  0  0  0  0  0  0  0  0  0  0  0
    7.2188    7.1789    0.0000 C   0  0  0  0  0  0  0  0  0  0  0  0
    5.7516    6.8670    0.0000 C   0  0  0  0  0  0  0  0  0  0  0  0
    5.2881    5.4404    0.0000 C   0  0  0  0  0  0  0  0  0  0  0  0
    3.8209    5.1286    0.0000 C   0  0  0  0  0  0  0  0  0  0  0  0
   -6.4952    2.2500    0.0000 C   0  0  0  0  0  0  0  0  0  0  0  0
    3.3573    3.7020    0.0000 C   0  0  0  0  0  0  0  0  0  0  0  0
   -3.8971    2.2500    0.0000 C   0  0  0  0  0  0  0  0  0  0  0  0
   -1.2990    2.2500    0.0000 C   0  0  0  0  0  0  0  0  0  0  0  0
   -3.8971   -0.7500    0.0000 C   0  0  0  0  0  0  0  0  0  0  0  0
   -2.5981    1.5000    0.0000 C   0  0  0  0  0  0  0  0  0  0  0  0
   -5.1962    1.5000    0.0000 C   0  0  0  0  0  0  0  0  0  0  0  0
   -2.5981    0.0000    0.0000 C   0  0  0  0  0  0  0  0  0  0  0  0
   -0.0000    1.5000    0.0000 C   0  0  0  0  0  0  0  0  0  0  0  0
    1.8901    3.3901    0.0000 C   0  0  0  0  0  0  0  0  0  0  0  0
    1.4266    1.9635    0.0000 C   0  0  0  0  0  0  0  0  0  0  0  0
   -1.2990   -0.7500    0.0000 C   0  0  0  0  0  0  0  0  0  0  0  0
    2.3083    0.7500    0.0000 C   0  0  0  0  0  0  0  0  0  0  0  0
   -0.0000    0.0000    0.0000 C   0  0  0  0  0  0  0  0  0  0  0  0
    0.8864    4.5048    0.0000 O   0  0  0  0  0  0  0  0  0  0  0  0
   -1.2990   -2.2500    0.0000 O   0  0  0  0  0  0  0  0  0  0  0  0
    3.8083    0.7500    0.0000 O   0  0  0  0  0  0  0  0  0  0  0  0
   -5.1962    0.0000    0.0000 O   0  0  0  0  0  0  0  0  0  0  0  0
    1.4266   -0.4635    0.0000 O   0  0  0  0  0  0  0  0  0  0  0  0
  4  1  1  0
  5  2  1  0
  6  4  1  0
  7  6  1  0
  8  7  1  0
  9  8  1  0
  5 10  2  0
 11  9  1  0
 15 12  1  0
 15 13  2  0
 16 10  1  0
 16 12  2  0
 17 14  2  0
 17 15  1  0
 18 13  1  0
 19 11  1  0
 20 18  2  0
 20 19  1  0
 21 17  1  0
 22 20  1  0
 23  3  1  6
 23 18  1  0
 23 21  1  0
 24 19  2  0
 25 21  2  0
 26 22  2  0
 27 14  1  0
 27 16  1  0
 28 22  1  0
 28 23  1  0
M  END
>  <NAME>  (5503) 
MONASCORUBRIN

>  <SYNONYMS>  (5503) 


>  <SPECTRUM TYPE>  (5503) 
MS1

>  <INSTRUMENT TYPE>  (5503) 
EI-B

>  <INSTRUMENT>  (5503) 
HITACHI RMU-7

>  <ION MODE>  (5503) 
P

>  <INCHIKEY>  (5503) 
IIPVSGPTPPURBD-HAOIVFDCSA-N

>  <FORMULA>  (5503) 
C23H26O5

>  <EXACT MASS>  (5503) 
382.178023932

>  <MW>  (5503) 
382

>  <ID>  (5503) 
JP003238

>  <CONTRIBUTOR>  (5503) 
University of Tokyo Team, {Faculty of Engineering, University of Tokyo

>  <COMMENT>  (5503) 
SMILES=CCCCCCCC(=O)C(C(=O)3)=C(C=1)C(C)(O3)C(=O)C(=C2)C(C=C(C=CC)O2)1
InChI=InChI=1S/C23H26O5/c1-4-6-7-8-9-11-19(24)20-18-13-15-12-16(10-5-2)27-14-17(15)21(25)23(18,3)28-22(20)26/h5,10,12-14H,4,6-9,11H2,1-3H3/b10-5+/t23-/m1/s1
computed SMILES=O=C1OC2(C(=O)C3=COC(C=CC)=CC3=CC2=C1C(=O)CCCCCCC)C
accession=JP003238
date=2016.01.19 (Created 2008.10.21, modified 2011.05.06)
author=MASS SPECTROSCOPY SOC. OF JAPAN (MSSJ)
license=CC BY-NC-SA
exact mass=382.17802
ionization energy=70 eV
ion type=[M]+*
computed spectral entropy=2.1201766700328406
computed normalized entropy=0.8841823469456906
SPLASH=splash10-052b-0090000000-4abc5d80beb675283766
submitter=submitter = University of Tokyo Team (Faculty of Engineering, University of Tokyo)
MoNA Rating=3.75

>  <NUM PEAKS>  (5503) 
11

>  <MASS SPECTRAL PEAKS>  (5503) 
200 19
213 38
215 38
255 34
256 56
257 11
283 20
298 99.99
299 18
339 8
382 9

$$$$

     RDKit          2D

 10 10  0  0  0  0  0  0  0  0999 V2000
    0.0004    1.5008    0.0000 C   0  0  0  0  0  0  0  0  0  0  0  0
    2.5986    1.5006    0.0000 C   0  0  0  0  0  0  0  0  0  0  0  0
   -0.0006   -1.5009    0.0000 C   0  0  0  0  0  0  0  0  0  0  0  0
    1.2994    0.7508    0.0000 C   0  0  0  0  0  0  0  0  0  0  0  0
   -1.2991    0.7499    0.0000 C   0  0  0  0  0  0  0  0  0  0  0  0
   -1.2996   -0.7509    0.0000 C   0  0  0  0  0  0  0  0  0  0  0  0
    3.8975    0.7504    0.0000 O   0  0  0  0  0  0  0  0  0  0  0  0
   -2.5982    1.4999    0.0000 O   0  0  0  0  0  0  0  0  0  0  0  0
   -2.5988   -1.5007    0.0000 O   0  0  0  0  0  0  0  0  0  0  0  0
    1.2989   -0.7501    0.0000 O   0  0  0  0  0  0  0  0  0  0  0  0
  4  1  2  0
  4  2  1  0
  5  1  1  0
  6  3  2  0
  6  5  1  0
  7  2  1  0
  8  5  2  0
  9  6  1  0
 10  3  1  0
 10  4  1  0
M  END
>  <NAME>  (5504) 
KOJIC ACID

>  <SYNONYMS>  (5504) 


>  <SPECTRUM TYPE>  (5504) 
MS1

>  <INSTRUMENT TYPE>  (5504) 
EI-B

>  <INSTRUMENT>  (5504) 
HITACHI RMU-6E

>  <ION MODE>  (5504) 
P

>  <INCHIKEY>  (5504) 
BEJNERDRQOWKJM-UHFFFAOYSA-N

>  <FORMULA>  (5504) 
C6H6O4

>  <EXACT MASS>  (5504) 
142.026608672

>  <MW>  (5504) 
142

>  <ID>  (5504) 
JP003237

>  <CONTRIBUTOR>  (5504) 
University of Tokyo Team, {Faculty of Engineering, University of Tokyo

>  <COMMENT>  (5504) 
SMILES=OCC(O1)=CC(=O)C(O)=C1
InChI=InChI=1S/C6H6O4/c7-2-4-1-5(8)6(9)3-10-4/h1,3,7,9H,2H2
computed SMILES=O=C1C=C(OC=C1O)CO
accession=JP003237
date=2016.01.19 (Created 2008.10.21, modified 2011.05.06)
author=MASS SPECTROSCOPY SOC. OF JAPAN (MSSJ)
license=CC BY-NC-SA
exact mass=142.02661
ionization energy=70 eV
ion type=[M]+*
computed spectral entropy=2.0906257965251682
computed normalized entropy=0.907947247155471
SPLASH=splash10-00ko-9500000000-8c8ed21581e5ce62d657
submitter=submitter = University of Tokyo Team (Faculty of Engineering, University of Tokyo)
MoNA Rating=3.75

>  <NUM PEAKS>  (5504) 
10

>  <MASS SPECTRAL PEAKS>  (5504) 
29 52
39 40
55 19
57 30
69 72
85 22
97 15
113 34
140 10
142 99.99

$$$$

     RDKit          2D

 17 17  0  0  0  0  0  0  0  0999 V2000
    2.5882    1.0275    0.0000 C   0  0  0  0  0  0  0  0  0  0  0  0
   -7.3046   -0.8133    0.0000 C   0  0  0  0  0  0  0  0  0  0  0  0
   -1.3099    3.2758    0.0000 C   0  0  0  0  0  0  0  0  0  0  0  0
   -4.6619    3.7491    0.0000 C   0  0  0  0  0  0  0  0  0  0  0  0
    1.2895    0.2769    0.0000 C   0  0  0  0  0  0  0  0  0  0  0  0
   -3.9066    0.2746    0.0000 C   0  0  0  0  0  0  0  0  0  0  0  0
   -6.9921    0.6538    0.0000 C   0  0  0  0  0  0  0  0  0  0  0  0
   -2.6086    2.5252    0.0000 C   0  0  0  0  0  0  0  0  0  0  0  0
   -5.7791    2.7482    0.0000 C   0  0  0  0  0  0  0  0  0  0  0  0
   -5.6218    1.2639    0.0000 C   0  0  0  0  0  0  0  0  0  0  0  0
   -2.6079    1.0252    0.0000 C   0  0  0  0  0  0  0  0  0  0  0  0
   -1.3086    0.2758    0.0000 C   0  0  0  0  0  0  0  0  0  0  0  0
   -7.9899    1.7639    0.0000 N   0  0  0  0  0  0  0  0  0  0  0  0
   -3.9080    3.2746    0.0000 O   0  0  0  0  0  0  0  0  0  0  0  0
   -1.3079   -1.2242    0.0000 O   0  0  0  0  0  0  0  0  0  0  0  0
   -0.0098    1.0263    0.0000 O   0  0  0  0  0  0  0  0  0  0  0  0
   -7.2465    3.0691    0.0000 O   0  0  0  0  0  0  0  0  0  0  0  0
  5  1  1  0
  7  2  1  0
  8  3  1  0
  9  4  1  0
 10  6  1  0
 10  7  1  0
 10  9  2  0
 11  6  1  0
 11  8  1  0
 12 11  1  0
 13  7  2  0
 14  8  2  0
 15 12  2  0
 16  5  1  0
 16 12  1  0
 17  9  1  0
 17 13  1  0
M  END
>  <NAME>  (5505) 
4-(2-ACETYL-2-ETHOXYCARBONYL)ETHYL-3,5-DIMETHYLISOXAZOLE

>  <SYNONYMS>  (5505) 


>  <SPECTRUM TYPE>  (5505) 
MS1

>  <INSTRUMENT TYPE>  (5505) 
EI-B

>  <INSTRUMENT>  (5505) 
HITACHI RMU-6E

>  <ION MODE>  (5505) 
P

>  <INCHIKEY>  (5505) 
FIBMBTXPEDJQQP-UHFFFAOYSA-N

>  <FORMULA>  (5505) 
C12H17NO4

>  <EXACT MASS>  (5505) 
239.11575802399997

>  <MW>  (5505) 
239

>  <ID>  (5505) 
JP003236

>  <CONTRIBUTOR>  (5505) 
University of Tokyo Team, {Faculty of Engineering, University of Tokyo

>  <COMMENT>  (5505) 
SMILES=CCOC(=O)C(C(C)=O)Cc(c(C)1)c(C)on1
InChI=InChI=1S/C12H17NO4/c1-5-16-12(15)11(8(3)14)6-10-7(2)13-17-9(10)4/h11H,5-6H2,1-4H3
computed SMILES=O=C(OCC)C(C(=O)C)CC=1C(=NOC1C)C
accession=JP003236
date=2016.01.19 (Created 2008.10.21, modified 2011.05.06)
author=MASS SPECTROSCOPY SOC. OF JAPAN (MSSJ)
license=CC BY-NC-SA
exact mass=239.11576
ionization energy=70 eV
ion type=[M]+*
computed spectral entropy=1.8267682864183088
computed normalized entropy=0.8784898492229746
SPLASH=splash10-0296-9700000000-da0c6e7aa5ef2a9435fb
submitter=submitter = University of Tokyo Team (Faculty of Engineering, University of Tokyo)
MoNA Rating=3.75

>  <NUM PEAKS>  (5505) 
8

>  <MASS SPECTRAL PEAKS>  (5505) 
42 23
43 99.99
68 58
110 72
124 21
166 17
196 36
239 7

$$$$

     RDKit          2D

 19 21  0  0  0  0  0  0  0  0999 V2000
    6.4236    2.4733    0.0000 C   0  0  0  0  0  0  0  0  0  0  0  0
    3.7969   -2.0983    0.0000 C   0  0  0  0  0  0  0  0  0  0  0  0
   -3.0200   -1.1200    0.0000 C   0  0  0  0  0  0  0  0  0  0  0  0
   -3.0200    0.3600    0.0000 C   0  0  0  0  0  0  0  0  0  0  0  0
   -1.7200   -1.8800    0.0000 C   0  0  0  0  0  0  0  0  0  0  0  0
   -1.7500    1.1100    0.0000 C   0  0  0  0  0  0  0  0  0  0  0  0
    0.8800   -1.8800    0.0000 C   0  0  0  0  0  0  0  0  0  0  0  0
    2.1700   -1.1200    0.0000 C   0  0  0  0  0  0  0  0  0  0  0  0
    3.4461    1.1351    0.0000 C   0  0  0  0  0  0  0  0  0  0  0  0
    6.1162    1.0052    0.0000 C   0  0  0  0  0  0  0  0  0  0  0  0
    4.9106   -1.0935    0.0000 C   0  0  0  0  0  0  0  0  0  0  0  0
   -0.4200   -1.1200    0.0000 C   0  0  0  0  0  0  0  0  0  0  0  0
    2.1500    0.3800    0.0000 C   0  0  0  0  0  0  0  0  0  0  0  0
   -0.4200    0.3600    0.0000 C   0  0  0  0  0  0  0  0  0  0  0  0
    4.7481    0.3903    0.0000 C   0  0  0  0  0  0  0  0  0  0  0  0
    0.8500    1.1400    0.0000 C   0  0  0  0  0  0  0  0  0  0  0  0
    7.1179   -0.1015    0.0000 N   0  0  0  0  0  0  0  0  0  0  0  0
    0.8337    2.6399    0.0000 O   0  0  0  0  0  0  0  0  0  0  0  0
    6.3791   -1.4093    0.0000 O   0  0  0  0  0  0  0  0  0  0  0  0
  4  3  2  0
  5  3  1  0
  6  4  1  0
  8  7  1  0
 10  1  1  0
 11  2  1  0
 12  5  2  0
 12  7  1  0
 13  8  1  0
 13  9  1  0
 14  6  2  0
 14 12  1  0
 15  9  1  0
 15 10  1  0
 15 11  2  0
 16 13  1  0
 16 14  1  0
 17 10  2  0
 18 16  2  0
 19 11  1  0
 19 17  1  0
M  END
>  <NAME>  (5506) 
3,5-DIMETHYL-4-(2'-TETRALOYL)METHYL-ISOXAZOLE

>  <SYNONYMS>  (5506) 


>  <SPECTRUM TYPE>  (5506) 
MS1

>  <INSTRUMENT TYPE>  (5506) 
EI-B

>  <INSTRUMENT>  (5506) 
HITACHI RMU-6E

>  <ION MODE>  (5506) 
P

>  <INCHIKEY>  (5506) 
ZOWAUHGAZHGGNP-UHFFFAOYSA-N

>  <FORMULA>  (5506) 
C16H17NO2

>  <EXACT MASS>  (5506) 
255.125928784

>  <MW>  (5506) 
255

>  <ID>  (5506) 
JP003235

>  <CONTRIBUTOR>  (5506) 
University of Tokyo Team, {Faculty of Engineering, University of Tokyo

>  <COMMENT>  (5506) 
SMILES=Cc(n3)c(c(C)o3)CC(C1)C(=O)c(c2)c(ccc2)C1
InChI=InChI=1S/C16H17NO2/c1-10-15(11(2)19-17-10)9-13-8-7-12-5-3-4-6-14(12)16(13)18/h3-6,13H,7-9H2,1-2H3
computed SMILES=O=C1C=2C=CC=CC2CCC1CC=3C(=NOC3C)C
accession=JP003235
date=2016.01.19 (Created 2008.10.21, modified 2011.05.06)
author=MASS SPECTROSCOPY SOC. OF JAPAN (MSSJ)
license=CC BY-NC-SA
exact mass=255.12593
ionization energy=70 eV
ion type=[M]+*
computed spectral entropy=1.8430883372718077
computed normalized entropy=0.8863381347007742
SPLASH=splash10-03dl-8940000000-2d21847a39cab190e672
submitter=submitter = University of Tokyo Team (Faculty of Engineering, University of Tokyo)
MoNA Rating=3.75

>  <NUM PEAKS>  (5506) 
8

>  <MASS SPECTRAL PEAKS>  (5506) 
41 3
42 12
43 58
68 64
110 99.99
146 46
212 29
255 45

$$$$

     RDKit          2D

 15 15  0  0  0  0  0  0  0  0999 V2000
    2.0245    2.3516    0.0000 C   0  0  0  0  0  0  0  0  0  0  0  0
   -7.4526    0.2709    0.0000 C   0  0  0  0  0  0  0  0  0  0  0  0
   -4.8099    4.8334    0.0000 C   0  0  0  0  0  0  0  0  0  0  0  0
   -3.1717    2.3493    0.0000 C   0  0  0  0  0  0  0  0  0  0  0  0
   -4.4704    1.5987    0.0000 C   0  0  0  0  0  0  0  0  0  0  0  0
   -0.5736    2.3504    0.0000 C   0  0  0  0  0  0  0  0  0  0  0  0
    0.7258    1.6010    0.0000 C   0  0  0  0  0  0  0  0  0  0  0  0
   -7.1401    1.7380    0.0000 C   0  0  0  0  0  0  0  0  0  0  0  0
   -5.9271    3.8324    0.0000 C   0  0  0  0  0  0  0  0  0  0  0  0
   -1.8723    1.5998    0.0000 C   0  0  0  0  0  0  0  0  0  0  0  0
   -5.7697    2.3481    0.0000 C   0  0  0  0  0  0  0  0  0  0  0  0
   -8.1379    2.8481    0.0000 N   0  0  0  0  0  0  0  0  0  0  0  0
    0.7264    0.1010    0.0000 O   0  0  0  0  0  0  0  0  0  0  0  0
   -1.8716    0.0998    0.0000 O   0  0  0  0  0  0  0  0  0  0  0  0
   -7.3945    4.1534    0.0000 O   0  0  0  0  0  0  0  0  0  0  0  0
  5  4  1  0
  7  1  1  0
  7  6  1  0
  8  2  1  0
  9  3  1  0
 10  4  1  0
 10  6  1  0
 11  5  1  0
 11  8  1  0
 11  9  2  0
 12  8  2  0
 13  7  2  0
 14 10  2  0
 15  9  1  0
 15 12  1  0
M  END
>  <NAME>  (5507) 
3,5-DIMETHYL-4-(3'-ACETYLACETONYL)METHYL-ISOXAZOLE

>  <SYNONYMS>  (5507) 


>  <SPECTRUM TYPE>  (5507) 
MS1

>  <INSTRUMENT TYPE>  (5507) 
EI-B

>  <INSTRUMENT>  (5507) 
HITACHI RMU-6E

>  <ION MODE>  (5507) 
P

>  <INCHIKEY>  (5507) 
WNVHQAUBCONYFK-UHFFFAOYSA-N

>  <FORMULA>  (5507) 
C11H15NO3

>  <EXACT MASS>  (5507) 
209.10519334

>  <MW>  (5507) 
209

>  <ID>  (5507) 
JP003234

>  <CONTRIBUTOR>  (5507) 
University of Tokyo Team, {Faculty of Engineering, University of Tokyo

>  <COMMENT>  (5507) 
SMILES=CC(=O)CC(=O)CCc(c(C)1)c(C)on1
InChI=InChI=1S/C11H15NO3/c1-7(13)6-10(14)4-5-11-8(2)12-15-9(11)3/h4-6H2,1-3H3
computed SMILES=O=C(C)CC(=O)CCC=1C(=NOC1C)C
accession=JP003234
date=2016.01.19 (Created 2008.10.21, modified 2011.05.06)
author=MASS SPECTROSCOPY SOC. OF JAPAN (MSSJ)
license=CC BY-NC-SA
exact mass=209.10519
ionization energy=70 eV
ion type=[M]+*
computed spectral entropy=1.7157449473772373
computed normalized entropy=0.825098909003812
SPLASH=splash10-014l-9700000000-9a7f65e4eb22c9426217
submitter=submitter = University of Tokyo Team (Faculty of Engineering, University of Tokyo)
MoNA Rating=3.75

>  <NUM PEAKS>  (5507) 
8

>  <MASS SPECTRAL PEAKS>  (5507) 
41 9
42 9
43 99.99
68 45
110 41
124 24
166 73
209 3

$$$$

     RDKit          2D

 15 16  0  0  0  0  0  0  0  0999 V2000
    1.1640    4.4706    0.0000 C   0  0  0  0  0  0  0  0  0  0  0  0
   -4.1085    4.4585    0.0000 C   0  0  0  0  0  0  0  0  0  0  0  0
   -5.3739    1.7982    0.0000 C   0  0  0  0  0  0  0  0  0  0  0  0
   -5.3735    0.2982    0.0000 C   0  0  0  0  0  0  0  0  0  0  0  0
   -4.0742    2.5486    0.0000 C   0  0  0  0  0  0  0  0  0  0  0  0
   -4.0733   -0.4514    0.0000 C   0  0  0  0  0  0  0  0  0  0  0  0
   -1.4752    2.5495    0.0000 C   0  0  0  0  0  0  0  0  0  0  0  0
   -0.2632    4.9323    0.0000 C   0  0  0  0  0  0  0  0  0  0  0  0
   -2.6835    4.9269    0.0000 C   0  0  0  0  0  0  0  0  0  0  0  0
   -2.7739    1.7989    0.0000 C   0  0  0  0  0  0  0  0  0  0  0  0
   -1.4759    4.0495    0.0000 C   0  0  0  0  0  0  0  0  0  0  0  0
   -2.7735    0.2989    0.0000 C   0  0  0  0  0  0  0  0  0  0  0  0
   -0.7269    6.3510    0.0000 N   0  0  0  0  0  0  0  0  0  0  0  0
   -1.4744   -0.4509    0.0000 O   0  0  0  0  0  0  0  0  0  0  0  0
   -2.2290    6.3585    0.0000 O   0  0  0  0  0  0  0  0  0  0  0  0
  4  3  1  0
  5  3  1  0
  6  4  1  0
  8  1  1  0
  9  2  1  0
 10  5  1  0
 10  7  1  0
 11  7  1  0
 11  8  1  0
 11  9  2  0
 12  6  1  0
 12 10  1  0
 13  8  2  0
 14 12  2  0
 15  9  1  0
 15 13  1  0
M  END
>  <NAME>  (5508) 
3,5-DIMETHYL-4-(2'-CYCLOHEXANOYL)METHYL-ISOXAZOLE

>  <SYNONYMS>  (5508) 


>  <SPECTRUM TYPE>  (5508) 
MS1

>  <INSTRUMENT TYPE>  (5508) 
EI-B

>  <INSTRUMENT>  (5508) 
HITACHI RMU-6E

>  <ION MODE>  (5508) 
P

>  <INCHIKEY>  (5508) 
OJARMPVCHPMKQI-UHFFFAOYSA-N

>  <FORMULA>  (5508) 
C12H17NO2

>  <EXACT MASS>  (5508) 
207.125928784

>  <MW>  (5508) 
207

>  <ID>  (5508) 
JP003233

>  <CONTRIBUTOR>  (5508) 
University of Tokyo Team, {Faculty of Engineering, University of Tokyo

>  <COMMENT>  (5508) 
SMILES=O=C(C2)C(CCC2)Cc(c(C)1)c(C)on1
InChI=InChI=1S/C12H17NO2/c1-8-11(9(2)15-13-8)7-10-5-3-4-6-12(10)14/h10H,3-7H2,1-2H3
computed SMILES=O=C1CCCCC1CC=2C(=NOC2C)C
accession=JP003233
date=2016.01.19 (Created 2008.10.21, modified 2011.05.06)
author=MASS SPECTROSCOPY SOC. OF JAPAN (MSSJ)
license=CC BY-NC-SA
exact mass=207.12593
ionization energy=70 eV
ion type=[M]+*
computed spectral entropy=1.622902243639514
computed normalized entropy=0.7804510062487664
SPLASH=splash10-03di-9810000000-29b48474d9e30ac4b815
submitter=submitter = University of Tokyo Team (Faculty of Engineering, University of Tokyo)
MoNA Rating=3.75

>  <NUM PEAKS>  (5508) 
8

>  <MASS SPECTRAL PEAKS>  (5508) 
41 2
42 10
43 35
68 46
95 17
110 99.99
164 4
207 23

$$$$

     RDKit          2D

  9  9  0  0  0  0  0  0  0  0999 V2000
   -3.4605    1.6603    0.0000 C   0  0  0  0  0  0  0  0  0  0  0  0
    1.3532   -0.4911    0.0000 C   0  0  0  0  0  0  0  0  0  0  0  0
   -1.8282   -1.1668    0.0000 C   0  0  0  0  0  0  0  0  0  0  0  0
   -1.9687    1.5028    0.0000 C   0  0  0  0  0  0  0  0  0  0  0  0
    0.2410    0.5154    0.0000 C   0  0  0  0  0  0  0  0  0  0  0  0
   -1.2187    0.2038    0.0000 C   0  0  0  0  0  0  0  0  0  0  0  0
   -0.9690    2.6112    0.0000 N   0  0  0  0  0  0  0  0  0  0  0  0
   -0.9460   -2.3800    0.0000 O   0  0  0  0  0  0  0  0  0  0  0  0
    0.4068    2.0083    0.0000 O   0  0  0  0  0  0  0  0  0  0  0  0
  4  1  1  0
  5  2  1  0
  6  3  1  0
  6  4  1  0
  6  5  2  0
  7  4  2  0
  8  3  1  0
  9  5  1  0
  9  7  1  0
M  END
>  <NAME>  (5509) 
3,5-DIMETHYL-4-HYDROXYMETHYL-ISOXAZOLE

>  <SYNONYMS>  (5509) 


>  <SPECTRUM TYPE>  (5509) 
MS1

>  <INSTRUMENT TYPE>  (5509) 
EI-B

>  <INSTRUMENT>  (5509) 
HITACHI RMU-6E

>  <ION MODE>  (5509) 
P

>  <INCHIKEY>  (5509) 
JISPGFYJPXGNBY-UHFFFAOYSA-N

>  <FORMULA>  (5509) 
C6H9NO2

>  <EXACT MASS>  (5509) 
127.063328528

>  <MW>  (5509) 
127

>  <ID>  (5509) 
JP003232

>  <CONTRIBUTOR>  (5509) 
University of Tokyo Team, {Faculty of Engineering, University of Tokyo

>  <COMMENT>  (5509) 
SMILES=OCc(c(C)1)c(C)on1
InChI=InChI=1S/C6H9NO2/c1-4-6(3-8)5(2)9-7-4/h8H,3H2,1-2H3
computed SMILES=OCC=1C(=NOC1C)C
accession=JP003232
date=2016.01.19 (Created 2008.10.21, modified 2011.05.06)
author=MASS SPECTROSCOPY SOC. OF JAPAN (MSSJ)
license=CC BY-NC-SA
exact mass=127.06333
ionization energy=70 eV
ion type=[M]+*
computed spectral entropy=2.0694394566255374
computed normalized entropy=0.9418424852749459
SPLASH=splash10-0036-9400000000-7a5a00ebd5cb584b57c4
submitter=submitter = University of Tokyo Team (Faculty of Engineering, University of Tokyo)
MoNA Rating=3.75

>  <NUM PEAKS>  (5509) 
9

>  <MASS SPECTRAL PEAKS>  (5509) 
42 82
43 88
68 75
82 64
84 64
109 36
110 25
112 12
127 99.99

$$$$

     RDKit          2D

  8  8  0  0  0  0  0  0  0  0999 V2000
   -1.4636   -1.3774    0.0000 C   0  0  0  0  0  0  0  0  0  0  0  0
   -3.0958    1.4497    0.0000 C   0  0  0  0  0  0  0  0  0  0  0  0
    1.7179   -0.7016    0.0000 C   0  0  0  0  0  0  0  0  0  0  0  0
   -0.8541   -0.0068    0.0000 C   0  0  0  0  0  0  0  0  0  0  0  0
   -1.6041    1.2923    0.0000 C   0  0  0  0  0  0  0  0  0  0  0  0
    0.6057    0.3049    0.0000 C   0  0  0  0  0  0  0  0  0  0  0  0
   -0.6043    2.4006    0.0000 N   0  0  0  0  0  0  0  0  0  0  0  0
    0.7714    1.7978    0.0000 O   0  0  0  0  0  0  0  0  0  0  0  0
  4  1  1  0
  5  2  1  0
  5  4  1  0
  6  3  1  0
  6  4  2  0
  7  5  2  0
  8  6  1  0
  8  7  1  0
M  END
>  <NAME>  (5510) 
3,4,5-TRIMETHYL-ISOXAZOLE

>  <SYNONYMS>  (5510) 


>  <SPECTRUM TYPE>  (5510) 
MS1

>  <INSTRUMENT TYPE>  (5510) 
EI-B

>  <INSTRUMENT>  (5510) 
HITACHI RMU-6E

>  <ION MODE>  (5510) 
P

>  <INCHIKEY>  (5510) 
MGHKWBQZEBMFOH-UHFFFAOYSA-N

>  <FORMULA>  (5510) 
C6H9NO

>  <EXACT MASS>  (5510) 
111.068413908

>  <MW>  (5510) 
111

>  <ID>  (5510) 
JP003231

>  <CONTRIBUTOR>  (5510) 
University of Tokyo Team, {Faculty of Engineering, University of Tokyo

>  <COMMENT>  (5510) 
SMILES=Cc(n1)c(C)c(C)o1
InChI=InChI=1S/C6H9NO/c1-4-5(2)7-8-6(4)3/h1-3H3
computed SMILES=N=1OC(=C(C1C)C)C
accession=JP003231
date=2016.01.19 (Created 2008.10.21, modified 2011.05.06)
author=MASS SPECTROSCOPY SOC. OF JAPAN (MSSJ)
license=CC BY-NC-SA
exact mass=111.06841
ionization energy=70 eV
ion type=[M]+*
computed spectral entropy=1.914193303980944
computed normalized entropy=0.920532395652056
SPLASH=splash10-0297-9200000000-a9433990cfbab223a733
submitter=submitter = University of Tokyo Team (Faculty of Engineering, University of Tokyo)
MoNA Rating=3.75

>  <NUM PEAKS>  (5510) 
8

>  <MASS SPECTRAL PEAKS>  (5510) 
41 8
42 71
43 85
55 58
68 85
96 86
110 16
111 99.99

$$$$

     RDKit          2D

 10 10  0  0  0  0  0  0  0  0999 V2000
    0.0000    3.0000    0.0000 C   0  0  0  0  0  0  0  0  0  0  0  0
   -2.5989   -1.5002    0.0000 C   0  0  0  0  0  0  0  0  0  0  0  0
   -1.3000    0.7500    0.0000 C   0  0  0  0  0  0  0  0  0  0  0  0
    0.0000    1.5000    0.0000 C   0  0  0  0  0  0  0  0  0  0  0  0
   -1.3000   -0.7500    0.0000 C   0  0  0  0  0  0  0  0  0  0  0  0
    1.3000    0.7500    0.0000 C   0  0  0  0  0  0  0  0  0  0  0  0
    1.3000   -0.7500    0.0000 C   0  0  0  0  0  0  0  0  0  0  0  0
    2.5989    1.5002    0.0000 Br  0  0  0  0  0  0  0  0  0  0  0  0
    2.5989   -1.5002    0.0000 O   0  0  0  0  0  0  0  0  0  0  0  0
   -0.0000   -1.5000    0.0000 O   0  0  0  0  0  0  0  0  0  0  0  0
  4  1  1  0
  4  3  1  0
  5  2  1  0
  5  3  2  0
  6  4  2  0
  7  6  1  0
  8  6  1  0
  9  7  2  0
 10  5  1  0
 10  7  1  0
M  END
>  <NAME>  (5511) 
3-BROMO-4,6-DIMETHYL-2-PYRONE

>  <SYNONYMS>  (5511) 


>  <SPECTRUM TYPE>  (5511) 
MS1

>  <INSTRUMENT TYPE>  (5511) 
EI-B

>  <INSTRUMENT>  (5511) 
HITACHI RMU-6E

>  <ION MODE>  (5511) 
P

>  <INCHIKEY>  (5511) 
PCJLUGUBXDBHFL-UHFFFAOYSA-N

>  <FORMULA>  (5511) 
C7H7BrO2

>  <EXACT MASS>  (5511) 
201.962941564

>  <MW>  (5511) 
202

>  <ID>  (5511) 
JP003230

>  <CONTRIBUTOR>  (5511) 
University of Tokyo Team, {Faculty of Engineering, University of Tokyo

>  <COMMENT>  (5511) 
SMILES=CC(=C1)OC(=O)C(Br)=C(C)1
InChI=InChI=1S/C7H7BrO2/c1-4-3-5(2)10-7(9)6(4)8/h3H,1-2H3
computed SMILES=O=C1OC(=CC(=C1Br)C)C
accession=JP003230
date=2016.01.19 (Created 2008.10.21, modified 2011.05.06)
author=MASS SPECTROSCOPY SOC. OF JAPAN (MSSJ)
license=CC BY-NC-SA
exact mass=201.96294
ionization energy=70 eV
ion type=[M]+*
computed spectral entropy=2.6130866201514524
computed normalized entropy=0.9424717770764508
SPLASH=splash10-0v6u-9730000000-fe7515d9d72d23fdc712
submitter=submitter = University of Tokyo Team (Faculty of Engineering, University of Tokyo)
MoNA Rating=3.75

>  <NUM PEAKS>  (5511) 
16

>  <MASS SPECTRAL PEAKS>  (5511) 
39 21
41 18
43 89
50 23
51 51
52 20
65 17
67 95
95 43
123 38
131 44
133 38
174 99.99
176 95
202 65
204 61

$$$$

     RDKit          2D

 13 13  0  0  0  0  0  0  0  0999 V2000
   -3.3013   -1.3889    0.0000 C   0  0  0  0  0  0  0  0  0  0  0  0
   -2.8499   -2.1704    0.0000 C   0  0  0  0  0  0  0  0  0  0  0  0
   -2.3372   -0.2397    0.0000 C   0  0  0  0  0  0  0  0  0  0  0  0
   -1.3727   -1.9096    0.0000 C   0  0  0  0  0  0  0  0  0  0  0  0
   -0.8600    1.0000    0.0000 C   0  0  0  0  0  0  0  0  0  0  0  0
    0.4400   -1.2500    0.0000 C   0  0  0  0  0  0  0  0  0  0  0  0
    1.7400    1.0000    0.0000 C   0  0  0  0  0  0  0  0  0  0  0  0
   -0.8600   -0.5000    0.0000 C   0  0  0  0  0  0  0  0  0  0  0  0
    0.4400    1.7500    0.0000 N   0  0  0  0  0  0  0  0  0  0  0  0
    1.7400   -0.5000    0.0000 N   0  0  0  0  0  0  0  0  0  0  0  0
   -2.1589    1.7502    0.0000 O   0  0  0  0  0  0  0  0  0  0  0  0
    0.4400   -2.7500    0.0000 O   0  0  0  0  0  0  0  0  0  0  0  0
    3.0389    1.7502    0.0000 O   0  0  0  0  0  0  0  0  0  0  0  0
  3  1  1  0
  4  2  1  0
  8  3  1  0
  8  4  1  0
  8  5  1  0
  8  6  1  0
  9  5  2  0
  9  7  1  0
 10  6  2  0
 10  7  1  0
 11  5  1  0
 12  6  1  0
 13  7  2  0
M  END
>  <NAME>  (5512) 
DIETHYLBARBITURIC ACID

>  <SYNONYMS>  (5512) 


>  <SPECTRUM TYPE>  (5512) 
MS1

>  <INSTRUMENT TYPE>  (5512) 
EI-B

>  <INSTRUMENT>  (5512) 
HITACHI RMU-6D

>  <ION MODE>  (5512) 
P

>  <INCHIKEY>  (5512) 
FTOAOBMCPZCFFF-UHFFFAOYSA-N

>  <FORMULA>  (5512) 
C8H12N2O3

>  <EXACT MASS>  (5512) 
184.08479224399997

>  <MW>  (5512) 
184

>  <ID>  (5512) 
JP003229

>  <CONTRIBUTOR>  (5512) 
University of Tokyo Team, {Faculty of Engineering, University of Tokyo

>  <COMMENT>  (5512) 
SMILES=CCC(CC)(C(=O)1)C(=O)NC(=O)N1
InChI=InChI=1S/C8H12N2O3/c1-3-8(4-2)5(11)9-7(13)10-6(8)12/h3-4H2,1-2H3,(H2,9,10,11,12,13)
computed SMILES=O=C1N=C(O)C(C(O)=N1)(CC)CC
accession=JP003229
date=2016.01.19 (Created 2008.10.21, modified 2011.05.06)
author=MASS SPECTROSCOPY SOC. OF JAPAN (MSSJ)
license=CC BY-NC-SA
exact mass=184.08479
ionization energy=70 eV
ion type=[M]+*
computed spectral entropy=2.47168439689904
computed normalized entropy=0.9365785158063924
SPLASH=splash10-052f-9500000000-856a7fe5dbfd28d00c38
submitter=submitter = University of Tokyo Team (Faculty of Engineering, University of Tokyo)
MoNA Rating=3.75

>  <NUM PEAKS>  (5512) 
14

>  <MASS SPECTRAL PEAKS>  (5512) 
39 85
41 88
44 38
53 27
55 66
69 33
70 27
83 32
98 30
112 27
141 86
155 46
156 99.99
184 7

$$$$

     RDKit          2D

 12 13  0  0  0  0  0  0  0  0999 V2000
   -2.9500    0.8900    0.0000 C   0  0  0  0  0  0  0  0  0  0  0  0
   -2.9500   -0.6100    0.0000 C   0  0  0  0  0  0  0  0  0  0  0  0
   -1.6500    1.6400    0.0000 C   0  0  0  0  0  0  0  0  0  0  0  0
   -1.6500   -1.3600    0.0000 C   0  0  0  0  0  0  0  0  0  0  0  0
    0.9500    1.6400    0.0000 C   0  0  0  0  0  0  0  0  0  0  0  0
    2.2500    0.8900    0.0000 C   0  0  0  0  0  0  0  0  0  0  0  0
    3.5364   -1.3745    0.0000 C   0  0  0  0  0  0  0  0  0  0  0  0
   -0.3600    0.8800    0.0000 C   0  0  0  0  0  0  0  0  0  0  0  0
    2.2400   -0.6200    0.0000 C   0  0  0  0  0  0  0  0  0  0  0  0
   -0.3600   -0.6100    0.0000 C   0  0  0  0  0  0  0  0  0  0  0  0
    4.8329   -2.1290    0.0000 N   0  0  0  0  0  0  0  0  0  0  0  0
    0.9400   -1.3700    0.0000 N   0  0  0  0  0  0  0  0  0  0  0  0
  2  1  2  0
  3  1  1  0
  4  2  1  0
  6  5  2  0
  8  3  2  0
  8  5  1  0
  9  6  1  0
  9  7  1  0
 10  4  2  0
 10  8  1  0
 11  7  3  0
 12  9  2  0
 12 10  1  0
M  END
>  <NAME>  (5513) 
QUINOLINE-2-CARBONITRILE

>  <SYNONYMS>  (5513) 


>  <SPECTRUM TYPE>  (5513) 
MS1

>  <INSTRUMENT TYPE>  (5513) 
EI-B

>  <INSTRUMENT>  (5513) 
HITACHI RMU-6E

>  <ION MODE>  (5513) 
P

>  <INCHIKEY>  (5513) 
WDXARTMCIRVMAE-UHFFFAOYSA-N

>  <FORMULA>  (5513) 
C10H6N2

>  <EXACT MASS>  (5513) 
154.053098192

>  <MW>  (5513) 
154

>  <ID>  (5513) 
JP003228

>  <CONTRIBUTOR>  (5513) 
University of Tokyo Team, {Faculty of Engineering, University of Tokyo

>  <COMMENT>  (5513) 
SMILES=N#Cc(c1)nc(c2)c(ccc2)c1
InChI=InChI=1S/C10H6N2/c11-7-9-6-5-8-3-1-2-4-10(8)12-9/h1-6H
computed SMILES=N#CC=1N=C2C=CC=CC2=CC1
accession=JP003228
date=2016.01.19 (Created 2008.10.21, modified 2011.05.06)
author=MASS SPECTROSCOPY SOC. OF JAPAN (MSSJ)
license=CC BY-NC-SA
exact mass=154.0531
ionization energy=70 eV
ion type=[M]+*
computed spectral entropy=1.957153683451837
computed normalized entropy=0.8499810449597565
SPLASH=splash10-0ufr-4900000000-0f1c6efb1afa410f622c
submitter=submitter = University of Tokyo Team (Faculty of Engineering, University of Tokyo)
MoNA Rating=3.75

>  <NUM PEAKS>  (5513) 
10

>  <MASS SPECTRAL PEAKS>  (5513) 
63 14
75 22
76 27
77 14
87 7
101 13
102 17
127 21
128 15
154 99.99

$$$$

     RDKit          2D

 13 14  0  0  0  0  0  0  0  0999 V2000
   -2.8800    0.7500    0.0000 C   0  0  0  0  0  0  0  0  0  0  0  0
   -2.8800   -0.7500    0.0000 C   0  0  0  0  0  0  0  0  0  0  0  0
   -1.5800    1.5000    0.0000 C   0  0  0  0  0  0  0  0  0  0  0  0
   -1.5800   -1.5000    0.0000 C   0  0  0  0  0  0  0  0  0  0  0  0
    0.8900    1.6900    0.0000 C   0  0  0  0  0  0  0  0  0  0  0  0
    2.3500    1.3500    0.0000 C   0  0  0  0  0  0  0  0  0  0  0  0
    3.2879   -2.5207    0.0000 C   0  0  0  0  0  0  0  0  0  0  0  0
   -0.2800    0.7500    0.0000 C   0  0  0  0  0  0  0  0  0  0  0  0
   -0.2800   -0.7500    0.0000 C   0  0  0  0  0  0  0  0  0  0  0  0
    2.3500   -1.3500    0.0000 C   0  0  0  0  0  0  0  0  0  0  0  0
    4.2257   -3.6913    0.0000 N   0  0  0  0  0  0  0  0  0  0  0  0
    0.8900   -1.6900    0.0000 N   0  0  0  0  0  0  0  0  0  0  0  0
    3.0000    0.0000    0.0000 O   0  0  0  0  0  0  0  0  0  0  0  0
  2  1  2  0
  3  1  1  0
  4  2  1  0
  6  5  2  0
  8  3  2  0
  8  5  1  0
  9  4  2  0
  9  8  1  0
 10  7  1  0
 11  7  3  0
 12  9  1  0
 12 10  2  0
 13  6  1  0
 13 10  1  0
M  END
>  <NAME>  (5514) 
3,1-BENZOXAZEPINE-2-CARBONITRILE

>  <SYNONYMS>  (5514) 


>  <SPECTRUM TYPE>  (5514) 
MS1

>  <INSTRUMENT TYPE>  (5514) 
EI-B

>  <INSTRUMENT>  (5514) 
HITACHI RMU-6E

>  <ION MODE>  (5514) 
P

>  <INCHIKEY>  (5514) 
UCCKBAPZOKCNRY-UHFFFAOYSA-N

>  <FORMULA>  (5514) 
C10H6N2O

>  <EXACT MASS>  (5514) 
170.048012812

>  <MW>  (5514) 
170

>  <ID>  (5514) 
JP003227

>  <CONTRIBUTOR>  (5514) 
University of Tokyo Team, {Faculty of Engineering, University of Tokyo

>  <COMMENT>  (5514) 
SMILES=N#CC(O1)=Nc(c2)c(ccc2)C=C1
InChI=InChI=1S/C10H6N2O/c11-7-10-12-9-4-2-1-3-8(9)5-6-13-10/h1-6H
computed SMILES=N#CC1=NC=2C=CC=CC2C=CO1
accession=JP003227
date=2016.01.19 (Created 2008.10.21, modified 2011.05.06)
author=MASS SPECTROSCOPY SOC. OF JAPAN (MSSJ)
license=CC BY-NC-SA
exact mass=170.04801
ionization energy=70 eV
ion type=[M]+*
computed spectral entropy=2.237635082507228
computed normalized entropy=0.9004906010043202
SPLASH=splash10-029f-9800000000-3e0f5d6ef49a33139317
submitter=submitter = University of Tokyo Team (Faculty of Engineering, University of Tokyo)
MoNA Rating=3.75

>  <NUM PEAKS>  (5514) 
12

>  <MASS SPECTRAL PEAKS>  (5514) 
62 30
63 63
64 27
88 15
89 68
90 35
114 12
115 69
116 8
142 99.99
143 10
170 37

$$$$

     RDKit          2D

 13 14  0  0  0  0  0  0  0  0999 V2000
   -2.6000    0.7500    0.0000 C   0  0  0  0  0  0  0  0  0  0  0  0
   -2.6000   -0.7500    0.0000 C   0  0  0  0  0  0  0  0  0  0  0  0
   -1.3000    1.5000    0.0000 C   0  0  0  0  0  0  0  0  0  0  0  0
   -1.3000   -1.5000    0.0000 C   0  0  0  0  0  0  0  0  0  0  0  0
    1.3000    1.5000    0.0000 C   0  0  0  0  0  0  0  0  0  0  0  0
    2.6000    0.7500    0.0000 C   0  0  0  0  0  0  0  0  0  0  0  0
    3.8989   -1.5002    0.0000 C   0  0  0  0  0  0  0  0  0  0  0  0
   -0.0000    0.7500    0.0000 C   0  0  0  0  0  0  0  0  0  0  0  0
    2.6000   -0.7500    0.0000 C   0  0  0  0  0  0  0  0  0  0  0  0
   -0.0000   -0.7500    0.0000 C   0  0  0  0  0  0  0  0  0  0  0  0
    5.1978   -2.2504    0.0000 N   0  0  0  0  0  0  0  0  0  0  0  0
    1.3000   -1.5000    0.0000 N   0  0  0  0  0  0  0  0  0  0  0  0
    1.3000   -3.0000    0.0000 O   0  0  0  0  0  0  0  0  0  0  0  0
  2  1  2  0
  3  1  1  0
  4  2  1  0
  6  5  2  0
  8  3  2  0
  8  5  1  0
  9  6  1  0
  9  7  1  0
 10  4  2  0
 10  8  1  0
 11  7  3  0
 12  9  2  0
 12 10  1  0
 13 12  1  0
M  CHG  2  12   1  13  -1
M  END
>  <NAME>  (5515) 
2-CYANOQUINOLINE-1-OXIDE

>  <SYNONYMS>  (5515) 


>  <SPECTRUM TYPE>  (5515) 
MS1

>  <INSTRUMENT TYPE>  (5515) 
EI-B

>  <INSTRUMENT>  (5515) 
HITACHI RMU-6E

>  <ION MODE>  (5515) 
P

>  <INCHIKEY>  (5515) 
YJBFQJVBKTVFOW-UHFFFAOYSA-N

>  <FORMULA>  (5515) 
C10H6N2O

>  <EXACT MASS>  (5515) 
170.048012812

>  <MW>  (5515) 
170

>  <ID>  (5515) 
JP003226

>  <CONTRIBUTOR>  (5515) 
University of Tokyo Team, {Faculty of Engineering, University of Tokyo

>  <COMMENT>  (5515) 
SMILES=N#Cc(c1)[n+1]([O-1])c(c2)c(ccc2)c1
InChI=InChI=1S/C10H6N2O/c11-7-9-6-5-8-3-1-2-4-10(8)12(9)13/h1-6H
computed SMILES=N#CC=1C=CC=2C=CC=CC2N1=O
accession=JP003226
date=2016.01.19 (Created 2008.10.21, modified 2011.05.06)
author=MASS SPECTROSCOPY SOC. OF JAPAN (MSSJ)
license=CC BY-NC-SA
exact mass=170.04801
ionization energy=70 eV
ion type=[M]+*
computed spectral entropy=2.5270081710374814
computed normalized entropy=0.911425539160416
SPLASH=splash10-0ufr-6900000000-1169196536a4f9f49b8f
submitter=submitter = University of Tokyo Team (Faculty of Engineering, University of Tokyo)
MoNA Rating=3.75

>  <NUM PEAKS>  (5515) 
16

>  <MASS SPECTRAL PEAKS>  (5515) 
62 15
63 28
64 14
75 30
76 34
77 20
87 12
89 12
100 15
101 19
102 22
115 10
127 36
142 20
154 99.99
170 10

$$$$

     RDKit          2D

 10 10  0  0  0  0  0  0  0  0999 V2000
    0.0000    3.0000    0.0000 C   0  0  0  0  0  0  0  0  0  0  0  0
   -2.5989   -1.5002    0.0000 C   0  0  0  0  0  0  0  0  0  0  0  0
   -1.3000    0.7500    0.0000 C   0  0  0  0  0  0  0  0  0  0  0  0
    0.0000    1.5000    0.0000 C   0  0  0  0  0  0  0  0  0  0  0  0
   -1.3000   -0.7500    0.0000 C   0  0  0  0  0  0  0  0  0  0  0  0
    1.3000    0.7500    0.0000 C   0  0  0  0  0  0  0  0  0  0  0  0
    1.3000   -0.7500    0.0000 C   0  0  0  0  0  0  0  0  0  0  0  0
    2.5989    1.5002    0.0000 Br  0  0  0  0  0  0  0  0  0  0  0  0
    2.5989   -1.5002    0.0000 O   0  0  0  0  0  0  0  0  0  0  0  0
   -0.0000   -1.5000    0.0000 O   0  0  0  0  0  0  0  0  0  0  0  0
  4  1  1  0
  4  3  1  0
  5  2  1  0
  5  3  2  0
  6  4  2  0
  7  6  1  0
  8  6  1  0
  9  7  2  0
 10  5  1  0
 10  7  1  0
M  END
>  <NAME>  (5516) 
3-BROMO-4,6-DIMETHYL-2-PYRONE

>  <SYNONYMS>  (5516) 


>  <SPECTRUM TYPE>  (5516) 
MS1

>  <INSTRUMENT TYPE>  (5516) 
EI-B

>  <INSTRUMENT>  (5516) 
HITACHI RMU-6D

>  <ION MODE>  (5516) 
P

>  <INCHIKEY>  (5516) 
PCJLUGUBXDBHFL-UHFFFAOYSA-N

>  <FORMULA>  (5516) 
C7H7BrO2

>  <EXACT MASS>  (5516) 
201.962941564

>  <MW>  (5516) 
202

>  <ID>  (5516) 
JP003225

>  <CONTRIBUTOR>  (5516) 
University of Tokyo Team, {Faculty of Engineering, University of Tokyo

>  <COMMENT>  (5516) 
SMILES=CC(=C1)OC(=O)C(Br)=C(C)1
InChI=InChI=1S/C7H7BrO2/c1-4-3-5(2)10-7(9)6(4)8/h3H,1-2H3
computed SMILES=O=C1OC(=CC(=C1Br)C)C
accession=JP003225
date=2016.01.19 (Created 2008.10.21, modified 2011.05.06)
author=NAKATA H, DEPT. OF CHEMISTRY, AICHI KYOIKU UNIV.
license=CC BY-NC-SA
exact mass=201.96294
ionization energy=70 eV
ion type=[M]+*
computed spectral entropy=3.2976069902328358
computed normalized entropy=0.8518304735251829
SPLASH=splash10-0v6r-9820000000-f4eb31c315c5dde50d98
submitter=submitter = University of Tokyo Team (Faculty of Engineering, University of Tokyo)
MoNA Rating=3.75

>  <NUM PEAKS>  (5516) 
48

>  <MASS SPECTRAL PEAKS>  (5516) 
36 5
37 11
38 10
39 19
40 5
41 17
42 7
43 89
47 5
49 7
50 21
51 50
52 19
53 9
64 6
65 15
66 9
67 95
68 6
76 6
86 5
95 43
104 5
116 11
117 5
118 11
119 5
123 36
124 5
131 43
132 6
133 38
159 9
160 6
161 8
162 6
173 6
174 99.99
175 15
176 97
177 9
187 5
189 4
201 5
202 67
203 7
204 63
205 6

$$$$

     RDKit          2D

 13 13  0  0  0  0  0  0  0  0999 V2000
    5.1970    1.5006    0.0000 C   0  0  0  0  0  0  0  0  0  0  0  0
   -2.7772   -0.4897    0.0000 C   0  0  0  0  0  0  0  0  0  0  0  0
   -1.8127   -2.1596    0.0000 C   0  0  0  0  0  0  0  0  0  0  0  0
    3.8981    0.7504    0.0000 C   0  0  0  0  0  0  0  0  0  0  0  0
    2.5989    1.5002    0.0000 C   0  0  0  0  0  0  0  0  0  0  0  0
   -1.3000    0.7500    0.0000 C   0  0  0  0  0  0  0  0  0  0  0  0
   -0.0000   -1.5000    0.0000 C   0  0  0  0  0  0  0  0  0  0  0  0
    1.3000    0.7500    0.0000 C   0  0  0  0  0  0  0  0  0  0  0  0
    0.0000    1.5000    0.0000 C   0  0  0  0  0  0  0  0  0  0  0  0
    1.3000   -0.7500    0.0000 C   0  0  0  0  0  0  0  0  0  0  0  0
   -1.3000   -0.7500    0.0000 C   0  0  0  0  0  0  0  0  0  0  0  0
    0.0000    3.0000    0.0000 O   0  0  0  0  0  0  0  0  0  0  0  0
    2.5989   -1.5002    0.0000 O   0  0  0  0  0  0  0  0  0  0  0  0
  4  1  1  0
  5  4  1  0
  8  5  1  0
  9  6  1  0
  9  8  1  0
 10  7  1  0
 10  8  1  0
 11  2  1  0
 11  3  1  0
 11  6  1  0
 11  7  1  0
 12  9  2  0
 13 10  2  0
M  END
>  <NAME>  (5517) 
2-PROPYL-5,5-DIMETHYL-1,3-CYCLOHEXANEDIONE

>  <SYNONYMS>  (5517) 


>  <SPECTRUM TYPE>  (5517) 
MS1

>  <INSTRUMENT TYPE>  (5517) 
EI-B

>  <INSTRUMENT>  (5517) 
HITACHI RMU-7

>  <ION MODE>  (5517) 
P

>  <INCHIKEY>  (5517) 
KLQDATMPJJSEHG-UHFFFAOYSA-N

>  <FORMULA>  (5517) 
C11H18O2

>  <EXACT MASS>  (5517) 
182.130679816

>  <MW>  (5517) 
182

>  <ID>  (5517) 
JP003224

>  <CONTRIBUTOR>  (5517) 
University of Tokyo Team, {Faculty of Engineering, University of Tokyo

>  <COMMENT>  (5517) 
SMILES=CCCC(C(=O)1)C(=O)CC(C)(C)C1
InChI=InChI=1S/C11H18O2/c1-4-5-8-9(12)6-11(2,3)7-10(8)13/h8H,4-7H2,1-3H3
computed SMILES=O=C1CC(C)(C)CC(=O)C1CCC
accession=JP003224
date=2016.01.19 (Created 2008.10.21, modified 2011.05.06)
author=NAKATA H, DEPT. OF CHEMISTRY, AICHI KYOIKU UNIV.
license=CC BY-NC-SA
exact mass=182.13068
ionization energy=70 eV
ion type=[M]+*
computed spectral entropy=2.6927237466022906
computed normalized entropy=0.9145116491307254
SPLASH=splash10-001i-9300000000-86136bc8b8b846045371
submitter=submitter = University of Tokyo Team (Faculty of Engineering, University of Tokyo)
MoNA Rating=3.75

>  <NUM PEAKS>  (5517) 
19

>  <MASS SPECTRAL PEAKS>  (5517) 
41 18
42 30
43 17
55 69
56 19
69 19
83 99.99
84 57
97 19
98 19
111 26
112 11
125 17
126 9
140 17
153 17
154 13
167 17
182 23

$$$$

     RDKit          2D

 16 16  0  0  0  0  0  0  0  0999 V2000
    5.2185    1.3785    0.0000 C   0  0  0  0  0  0  0  0  0  0  0  0
    3.8026    3.8301    0.0000 C   0  0  0  0  0  0  0  0  0  0  0  0
   -2.7772   -0.4897    0.0000 C   0  0  0  0  0  0  0  0  0  0  0  0
   -1.8127   -2.1596    0.0000 C   0  0  0  0  0  0  0  0  0  0  0  0
    3.7413    1.6389    0.0000 C   0  0  0  0  0  0  0  0  0  0  0  0
    3.2899    2.4204    0.0000 C   0  0  0  0  0  0  0  0  0  0  0  0
    2.7772    0.4897    0.0000 C   0  0  0  0  0  0  0  0  0  0  0  0
    1.8127    2.1596    0.0000 C   0  0  0  0  0  0  0  0  0  0  0  0
   -1.3000    0.7500    0.0000 C   0  0  0  0  0  0  0  0  0  0  0  0
   -0.0000   -1.5000    0.0000 C   0  0  0  0  0  0  0  0  0  0  0  0
    0.0000    1.5000    0.0000 C   0  0  0  0  0  0  0  0  0  0  0  0
    1.3000   -0.7500    0.0000 C   0  0  0  0  0  0  0  0  0  0  0  0
   -1.3000   -0.7500    0.0000 C   0  0  0  0  0  0  0  0  0  0  0  0
    1.3000    0.7500    0.0000 C   0  0  0  0  0  0  0  0  0  0  0  0
    0.0000    3.0000    0.0000 O   0  0  0  0  0  0  0  0  0  0  0  0
    2.5989   -1.5002    0.0000 O   0  0  0  0  0  0  0  0  0  0  0  0
  5  1  1  0
  6  2  1  0
  7  5  1  0
  8  6  1  0
 11  9  1  0
 12 10  1  0
 13  3  1  0
 13  4  1  0
 13  9  1  0
 13 10  1  0
 14  7  1  0
 14  8  1  0
 14 11  1  0
 14 12  1  0
 15 11  2  0
 16 12  2  0
M  END
>  <NAME>  (5518) 
2,2-DIPROPYL-5,5-DIMETHYL-1,3-CYCLOHEXANEDIONE

>  <SYNONYMS>  (5518) 


>  <SPECTRUM TYPE>  (5518) 
MS1

>  <INSTRUMENT TYPE>  (5518) 
EI-B

>  <INSTRUMENT>  (5518) 
HITACHI RMU-7

>  <ION MODE>  (5518) 
P

>  <INCHIKEY>  (5518) 
DFHLDDAIXQRSNN-UHFFFAOYSA-N

>  <FORMULA>  (5518) 
C14H24O2

>  <EXACT MASS>  (5518) 
224.177630008

>  <MW>  (5518) 
224

>  <ID>  (5518) 
JP003223

>  <CONTRIBUTOR>  (5518) 
University of Tokyo Team, {Faculty of Engineering, University of Tokyo

>  <COMMENT>  (5518) 
SMILES=CCCC(CCC)(C(=O)1)C(=O)CC(C)(C)C1
InChI=InChI=1S/C14H24O2/c1-5-7-14(8-6-2)11(15)9-13(3,4)10-12(14)16/h5-10H2,1-4H3
computed SMILES=O=C1CC(C)(C)CC(=O)C1(CCC)CCC
accession=JP003223
date=2016.01.19 (Created 2008.10.21, modified 2011.05.06)
author=NAKATA H, DEPT. OF CHEMISTRY, AICHI KYOIKU UNIV.
license=CC BY-NC-SA
exact mass=224.17763
ionization energy=70 eV
ion type=[M]+*
computed spectral entropy=2.7691029643030816
computed normalized entropy=0.9095360671323252
SPLASH=splash10-001j-9600000000-b03a9dfeb6701b1bad21
submitter=submitter = University of Tokyo Team (Faculty of Engineering, University of Tokyo)
MoNA Rating=3.75

>  <NUM PEAKS>  (5518) 
21

>  <MASS SPECTRAL PEAKS>  (5518) 
41 45
43 18
55 31
69 23
82 6
83 99.99
84 16
97 35
98 15
111 15
126 18
149 10
153 10
154 17
165 7
167 33
168 10
182 32
195 32
196 9
224 9

$$$$

     RDKit          2D

  9  8  0  0  0  0  0  0  0  0999 V2000
   -6.4952    4.5000    0.0000 C   0  0  0  0  0  0  0  0  0  0  0  0
    2.5981    3.7500    0.0000 C   0  0  0  0  0  0  0  0  0  0  0  0
   -5.1962    3.7500    0.0000 C   0  0  0  0  0  0  0  0  0  0  0  0
   -3.8971    4.5000    0.0000 C   0  0  0  0  0  0  0  0  0  0  0  0
   -2.5981    3.7500    0.0000 C   0  0  0  0  0  0  0  0  0  0  0  0
   -1.2990    4.5000    0.0000 C   0  0  0  0  0  0  0  0  0  0  0  0
    0.0000    3.7500    0.0000 C   0  0  0  0  0  0  0  0  0  0  0  0
   -0.0000    2.2500    0.0000 O   0  0  0  0  0  0  0  0  0  0  0  0
    1.2990    4.5000    0.0000 O   0  0  0  0  0  0  0  0  0  0  0  0
  3  1  1  0
  4  3  1  0
  5  4  1  0
  6  5  1  0
  7  6  1  0
  8  7  2  0
  9  2  1  0
  9  7  1  0
M  END
>  <NAME>  (5519) 
METHYL HEXANOATE

>  <SYNONYMS>  (5519) 


>  <SPECTRUM TYPE>  (5519) 
MS1

>  <INSTRUMENT TYPE>  (5519) 
EI-B

>  <INSTRUMENT>  (5519) 
HITACHI RMU-7

>  <ION MODE>  (5519) 
P

>  <INCHIKEY>  (5519) 
NUKZAGXMHTUAFE-UHFFFAOYSA-N

>  <FORMULA>  (5519) 
C7H14O2

>  <EXACT MASS>  (5519) 
130.099379688

>  <MW>  (5519) 
130

>  <ID>  (5519) 
JP003222

>  <CONTRIBUTOR>  (5519) 
University of Tokyo Team, {Faculty of Engineering, University of Tokyo

>  <COMMENT>  (5519) 
SMILES=CCCCCC(=O)OC
InChI=InChI=1S/C7H14O2/c1-3-4-5-6-7(8)9-2/h3-6H2,1-2H3
computed SMILES=O=C(OC)CCCCC
accession=JP003222
date=2016.01.19 (Created 2008.10.21, modified 2011.05.06)
author=NAKATA H, DEPT. OF CHEMISTRY, AICHI KYOIKU UNIV.
license=CC BY-NC-SA
exact mass=130.09938
ionization energy=70 eV
ion type=[M]+*
computed spectral entropy=2.6576264612307847
computed normalized entropy=0.8597832289049803
SPLASH=splash10-059f-9000000000-5fd7dd35ac31db3ce698
submitter=submitter = University of Tokyo Team (Faculty of Engineering, University of Tokyo)
MoNA Rating=3.75

>  <NUM PEAKS>  (5519) 
22

>  <MASS SPECTRAL PEAKS>  (5519) 
39 19
40 5
41 31
42 26
43 75
44 6
55 49
56 5
57 12
58 5
59 50
68 8
69 7
71 20
72 5
74 99.99
75 9
87 68
88 8
99 39
101 22
130 6

$$$$

     RDKit          2D

 13 12  0  0  0  0  0  0  0  0999 V2000
    2.5981    4.5000    0.0000 C   0  0  0  0  0  0  0  0  0  0  0  0
   -7.7942    4.5000    0.0000 C   0  0  0  0  0  0  0  0  0  0  0  0
   -1.2990    0.7500    0.0000 C   0  0  0  0  0  0  0  0  0  0  0  0
    1.2990    5.2500    0.0000 C   0  0  0  0  0  0  0  0  0  0  0  0
   -6.4952    5.2500    0.0000 C   0  0  0  0  0  0  0  0  0  0  0  0
    0.0000    4.5000    0.0000 C   0  0  0  0  0  0  0  0  0  0  0  0
   -5.1962    4.5000    0.0000 C   0  0  0  0  0  0  0  0  0  0  0  0
   -1.2990    5.2500    0.0000 C   0  0  0  0  0  0  0  0  0  0  0  0
   -3.8971    5.2500    0.0000 C   0  0  0  0  0  0  0  0  0  0  0  0
   -2.5981    4.5000    0.0000 C   0  0  0  0  0  0  0  0  0  0  0  0
   -2.5981    3.0000    0.0000 C   0  0  0  0  0  0  0  0  0  0  0  0
   -3.8971    2.2500    0.0000 O   0  0  0  0  0  0  0  0  0  0  0  0
   -1.2990    2.2500    0.0000 O   0  0  0  0  0  0  0  0  0  0  0  0
  4  1  1  0
  5  2  1  0
  6  4  1  0
  7  5  1  0
  8  6  1  0
  9  7  1  0
 10  8  1  0
 10  9  1  0
 11 10  1  0
 12 11  2  0
 13  3  1  0
 13 11  1  0
M  END
>  <NAME>  (5520) 
METHYL 2-BUTYLHEXANOATE

>  <SYNONYMS>  (5520) 


>  <SPECTRUM TYPE>  (5520) 
MS1

>  <INSTRUMENT TYPE>  (5520) 
EI-B

>  <INSTRUMENT>  (5520) 
HITACHI RMU-7

>  <ION MODE>  (5520) 
P

>  <INCHIKEY>  (5520) 
AZTDAGYTELUSHF-UHFFFAOYSA-N

>  <FORMULA>  (5520) 
C11H22O2

>  <EXACT MASS>  (5520) 
186.161979944

>  <MW>  (5520) 
186

>  <ID>  (5520) 
JP003221

>  <CONTRIBUTOR>  (5520) 
University of Tokyo Team, {Faculty of Engineering, University of Tokyo

>  <COMMENT>  (5520) 
SMILES=CCCCC(CCCC)C(=O)OC
InChI=InChI=1S/C11H22O2/c1-4-6-8-10(9-7-5-2)11(12)13-3/h10H,4-9H2,1-3H3
computed SMILES=O=C(OC)C(CCCC)CCCC
accession=JP003221
date=2016.01.19 (Created 2008.10.21, modified 2011.05.06)
author=NAKATA H, DEPT. OF CHEMISTRY, AICHI KYOIKU UNIV.
license=CC BY-NC-SA
exact mass=186.16198
ionization energy=70 eV
ion type=[M]+*
computed spectral entropy=3.095971667399839
computed normalized entropy=0.8779509768748986
SPLASH=splash10-053f-9500000000-f01dac540c9be36ea6c3
submitter=submitter = University of Tokyo Team (Faculty of Engineering, University of Tokyo)
MoNA Rating=3.75

>  <NUM PEAKS>  (5520) 
34

>  <MASS SPECTRAL PEAKS>  (5520) 
37 18
39 9
41 43
43 43
45 7
53 7
55 56
56 6
57 28
59 20
69 23
70 5
71 21
74 8
83 6
85 11
87 99.99
88 18
96 5
97 11
98 9
100 6
101 52
102 5
129 12
130 88
131 21
132 9
133 5
143 30
155 17
156 5
157 12
186 5

$$$$

     RDKit          2D

 15 14  0  0  0  0  0  0  0  0999 V2000
    1.9486    5.6250    0.0000 C   0  0  0  0  0  0  0  0  0  0  0  0
   -8.4437    5.6250    0.0000 C   0  0  0  0  0  0  0  0  0  0  0  0
   -5.8457    1.1250    0.0000 C   0  0  0  0  0  0  0  0  0  0  0  0
    0.6495    6.3750    0.0000 C   0  0  0  0  0  0  0  0  0  0  0  0
   -7.1447    6.3750    0.0000 C   0  0  0  0  0  0  0  0  0  0  0  0
   -4.5466    1.8750    0.0000 C   0  0  0  0  0  0  0  0  0  0  0  0
   -0.6495    5.6250    0.0000 C   0  0  0  0  0  0  0  0  0  0  0  0
   -1.9486    6.3750    0.0000 C   0  0  0  0  0  0  0  0  0  0  0  0
   -3.2476    5.6250    0.0000 C   0  0  0  0  0  0  0  0  0  0  0  0
   -4.5466    6.3750    0.0000 C   0  0  0  0  0  0  0  0  0  0  0  0
   -3.2476    4.1250    0.0000 C   0  0  0  0  0  0  0  0  0  0  0  0
   -4.5466    7.8750    0.0000 O   0  0  0  0  0  0  0  0  0  0  0  0
   -1.9486    3.3750    0.0000 O   0  0  0  0  0  0  0  0  0  0  0  0
   -5.8457    5.6250    0.0000 O   0  0  0  0  0  0  0  0  0  0  0  0
   -4.5466    3.3750    0.0000 O   0  0  0  0  0  0  0  0  0  0  0  0
  4  1  1  0
  5  2  1  0
  6  3  1  0
  7  4  1  0
  8  7  1  0
  9  8  1  0
 10  9  1  0
 11  9  1  0
 12 10  2  0
 13 11  2  0
 14  5  1  0
 14 10  1  0
 15  6  1  0
 15 11  1  0
M  END
>  <NAME>  (5521) 
DIETHYL BUTYLMALONATE

>  <SYNONYMS>  (5521) 


>  <SPECTRUM TYPE>  (5521) 
MS1

>  <INSTRUMENT TYPE>  (5521) 
EI-B

>  <INSTRUMENT>  (5521) 
HITACHI RMU-7

>  <ION MODE>  (5521) 
P

>  <INCHIKEY>  (5521) 
RPNFNBGRHCUORR-UHFFFAOYSA-N

>  <FORMULA>  (5521) 
C11H20O4

>  <EXACT MASS>  (5521) 
216.13615912

>  <MW>  (5521) 
216

>  <ID>  (5521) 
JP003220

>  <CONTRIBUTOR>  (5521) 
University of Tokyo Team, {Faculty of Engineering, University of Tokyo

>  <COMMENT>  (5521) 
SMILES=CCCCC(C(=O)OCC)C(=O)OCC
InChI=InChI=1S/C11H20O4/c1-4-7-8-9(10(12)14-5-2)11(13)15-6-3/h9H,4-8H2,1-3H3
computed SMILES=O=C(OCC)C(C(=O)OCC)CCCC
accession=JP003220
date=2016.01.19 (Created 2008.10.21, modified 2011.05.06)
author=NAKATA H, DEPT. OF CHEMISTRY, AICHI KYOIKU UNIV.
license=CC BY-NC-SA
exact mass=216.13616
ionization energy=70 eV
ion type=[M]+*
computed spectral entropy=2.431827036184566
computed normalized entropy=0.825905054711987
SPLASH=splash10-03di-0900000000-3fec4684d8e753b30ef7
submitter=submitter = University of Tokyo Team (Faculty of Engineering, University of Tokyo)
MoNA Rating=3.75

>  <NUM PEAKS>  (5521) 
19

>  <MASS SPECTRAL PEAKS>  (5521) 
97 19
101 24
114 15
115 20
124 5
127 5
131 5
132 15
133 28
134 5
142 5
143 7
159 5
160 99.99
161 8
170 5
171 29
173 7
216 5

$$$$

     RDKit          2D

 19 18  0  0  0  0  0  0  0  0999 V2000
    1.7596    5.3350    0.0000 C   0  0  0  0  0  0  0  0  0  0  0  0
   -8.6327    5.3350    0.0000 C   0  0  0  0  0  0  0  0  0  0  0  0
   -4.3388    0.2178    0.0000 C   0  0  0  0  0  0  0  0  0  0  0  0
    1.4463    3.5578    0.0000 C   0  0  0  0  0  0  0  0  0  0  0  0
    0.4606    6.0850    0.0000 C   0  0  0  0  0  0  0  0  0  0  0  0
   -7.3336    6.0850    0.0000 C   0  0  0  0  0  0  0  0  0  0  0  0
   -4.8518    1.6273    0.0000 C   0  0  0  0  0  0  0  0  0  0  0  0
   -0.0309    3.2973    0.0000 C   0  0  0  0  0  0  0  0  0  0  0  0
   -0.8384    5.3350    0.0000 C   0  0  0  0  0  0  0  0  0  0  0  0
   -6.0346    5.3350    0.0000 C   0  0  0  0  0  0  0  0  0  0  0  0
   -2.1375    6.0850    0.0000 C   0  0  0  0  0  0  0  0  0  0  0  0
   -4.7356    6.0850    0.0000 C   0  0  0  0  0  0  0  0  0  0  0  0
   -4.4007    4.1859    0.0000 C   0  0  0  0  0  0  0  0  0  0  0  0
   -2.4723    4.1859    0.0000 C   0  0  0  0  0  0  0  0  0  0  0  0
   -3.4365    5.3350    0.0000 C   0  0  0  0  0  0  0  0  0  0  0  0
   -5.8779    4.4464    0.0000 O   0  0  0  0  0  0  0  0  0  0  0  0
   -2.9854    2.7764    0.0000 O   0  0  0  0  0  0  0  0  0  0  0  0
   -3.8877    2.7764    0.0000 O   0  0  0  0  0  0  0  0  0  0  0  0
   -0.9951    4.4464    0.0000 O   0  0  0  0  0  0  0  0  0  0  0  0
  5  1  1  0
  6  2  1  0
  7  3  1  0
  8  4  1  0
  9  5  1  0
 10  6  1  0
 11  9  1  0
 12 10  1  0
 15 11  1  0
 15 12  1  0
 15 13  1  0
 15 14  1  0
 16 13  2  0
 17 14  2  0
 18  7  1  0
 18 13  1  0
 19  8  1  0
 19 14  1  0
M  END
>  <NAME>  (5522) 
DIETHYL DIBUTYLMALONATE

>  <SYNONYMS>  (5522) 


>  <SPECTRUM TYPE>  (5522) 
MS1

>  <INSTRUMENT TYPE>  (5522) 
EI-B

>  <INSTRUMENT>  (5522) 
HITACHI RMU-7

>  <ION MODE>  (5522) 
P

>  <INCHIKEY>  (5522) 
WHKKUUPZLWUOIW-UHFFFAOYSA-N

>  <FORMULA>  (5522) 
C15H28O4

>  <EXACT MASS>  (5522) 
272.198759376

>  <MW>  (5522) 
272

>  <ID>  (5522) 
JP003219

>  <CONTRIBUTOR>  (5522) 
University of Tokyo Team, {Faculty of Engineering, University of Tokyo

>  <COMMENT>  (5522) 
SMILES=CCCCC(CCCC)(C(=O)OCC)C(=O)OCC
InChI=InChI=1S/C15H28O4/c1-5-9-11-15(12-10-6-2,13(16)18-7-3)14(17)19-8-4/h5-12H2,1-4H3
computed SMILES=O=C(OCC)C(C(=O)OCC)(CCCC)CCCC
accession=JP003219
date=2016.01.19 (Created 2008.10.21, modified 2011.05.06)
author=NAKATA H, DEPT. OF CHEMISTRY, AICHI KYOIKU UNIV.
license=CC BY-NC-SA
exact mass=272.19876
ionization energy=70 eV
ion type=[M]+*
computed spectral entropy=2.678146621731675
computed normalized entropy=0.8125847032527723
SPLASH=splash10-00xr-0940000000-1582a295e7f49a92d190
submitter=submitter = University of Tokyo Team (Faculty of Engineering, University of Tokyo)
MoNA Rating=3.75

>  <NUM PEAKS>  (5522) 
27

>  <MASS SPECTRAL PEAKS>  (5522) 
94 6
101 5
115 11
125 7
127 16
128 5
142 10
143 5
157 20
158 5
159 5
160 8
169 8
170 6
171 8
172 5
173 99.99
174 8
199 33
200 6
215 5
216 73
217 7
226 5
227 33
228 5
272 3

$$$$

     RDKit          2D

 19 21  0  0  0  0  0  0  0  0999 V2000
    4.3135   -4.4746    0.0000 C   0  0  0  0  0  0  0  0  0  0  0  0
    1.7120   -4.4499    0.0000 C   0  0  0  0  0  0  0  0  0  0  0  0
   -3.4100    1.5500    0.0000 C   0  0  0  0  0  0  0  0  0  0  0  0
   -3.4100    0.0600    0.0000 C   0  0  0  0  0  0  0  0  0  0  0  0
   -2.1200    2.2900    0.0000 C   0  0  0  0  0  0  0  0  0  0  0  0
   -2.1200   -0.6900    0.0000 C   0  0  0  0  0  0  0  0  0  0  0  0
    0.4600    2.3100    0.0000 C   0  0  0  0  0  0  0  0  0  0  0  0
    1.7700    1.5500    0.0000 C   0  0  0  0  0  0  0  0  0  0  0  0
    4.3305   -2.9747    0.0000 C   0  0  0  0  0  0  0  0  0  0  0  0
    1.7300   -2.9500    0.0000 C   0  0  0  0  0  0  0  0  0  0  0  0
   -0.8300    1.5600    0.0000 C   0  0  0  0  0  0  0  0  0  0  0  0
   -0.8300    0.0500    0.0000 C   0  0  0  0  0  0  0  0  0  0  0  0
    1.7600    0.0500    0.0000 C   0  0  0  0  0  0  0  0  0  0  0  0
    3.0400   -2.2100    0.0000 C   0  0  0  0  0  0  0  0  0  0  0  0
    3.0600   -0.7000    0.0000 C   0  0  0  0  0  0  0  0  0  0  0  0
    0.4500   -0.6900    0.0000 C   0  0  0  0  0  0  0  0  0  0  0  0
    5.6379   -2.2394    0.0000 O   0  0  0  0  0  0  0  0  0  0  0  0
    4.3639    0.0416    0.0000 O   0  0  0  0  0  0  0  0  0  0  0  0
    0.4400   -2.1800    0.0000 O   0  0  0  0  0  0  0  0  0  0  0  0
  4  3  2  0
  5  3  1  0
  6  4  1  0
  8  7  2  0
  9  1  1  0
 10  2  1  0
 11  5  2  0
 11  7  1  0
 12  6  2  0
 12 11  1  0
 13  8  1  0
 14  9  1  0
 14 10  2  0
 15 13  1  0
 15 14  1  0
 16 12  1  0
 16 13  2  0
 17  9  2  0
 18 15  2  0
 19 10  1  0
 19 16  1  0
M  END
>  <NAME>  (5523) 
2-METHYL-3-ACETYL-(7,8)-BENZOCHROMONE

>  <SYNONYMS>  (5523) 


>  <SPECTRUM TYPE>  (5523) 
MS1

>  <INSTRUMENT TYPE>  (5523) 
EI-B

>  <INSTRUMENT>  (5523) 
HITACHI RMU-7

>  <ION MODE>  (5523) 
P

>  <INCHIKEY>  (5523) 
XMJJVPKEAYWZAP-UHFFFAOYSA-N

>  <FORMULA>  (5523) 
C16H12O3

>  <EXACT MASS>  (5523) 
252.078644244

>  <MW>  (5523) 
252

>  <ID>  (5523) 
JP003218

>  <CONTRIBUTOR>  (5523) 
University of Tokyo Team, {Faculty of Engineering, University of Tokyo

>  <COMMENT>  (5523) 
SMILES=CC(=O)C(=C(C)3)C(=O)c(c1)c(O3)c(c2)c(ccc2)c1
InChI=InChI=1S/C16H12O3/c1-9(17)14-10(2)19-16-12-6-4-3-5-11(12)7-8-13(16)15(14)18/h3-8H,1-2H3
computed SMILES=O=C1C=2C=CC=3C=CC=CC3C2OC(=C1C(=O)C)C
accession=JP003218
date=2016.01.19 (Created 2008.10.21, modified 2011.05.06)
author=NAKATA H, DEPT. OF CHEMISTRY, AICHI KYOIKU UNIV.
license=CC BY-NC-SA
exact mass=252.07864
ionization energy=70 eV
ion type=[M]+*
computed spectral entropy=2.9880767139896784
computed normalized entropy=0.8621766914137398
SPLASH=splash10-0fy9-6790000000-43d11280c2673c05b6bb
submitter=submitter = University of Tokyo Team (Faculty of Engineering, University of Tokyo)
MoNA Rating=3.75

>  <NUM PEAKS>  (5523) 
32

>  <MASS SPECTRAL PEAKS>  (5523) 
39 56
40 6
43 24
44 14
51 5
62 5
63 10
67 68
74 6
75 7
76 6
87 6
88 7
113 9
114 41
115 61
126 12
143 6
151 5
152 12
153 6
170 44
171 50
172 7
210 9
234 45
235 9
237 88
238 14
251 12
252 99.99
253 17

$$$$

     RDKit          2D

 16 18  0  0  0  0  0  0  0  0999 V2000
    1.7120   -4.4499    0.0000 C   0  0  0  0  0  0  0  0  0  0  0  0
   -3.4100    1.5500    0.0000 C   0  0  0  0  0  0  0  0  0  0  0  0
   -3.4100    0.0600    0.0000 C   0  0  0  0  0  0  0  0  0  0  0  0
   -2.1200    2.2900    0.0000 C   0  0  0  0  0  0  0  0  0  0  0  0
   -2.1200   -0.6900    0.0000 C   0  0  0  0  0  0  0  0  0  0  0  0
    0.4600    2.3100    0.0000 C   0  0  0  0  0  0  0  0  0  0  0  0
    1.7700    1.5500    0.0000 C   0  0  0  0  0  0  0  0  0  0  0  0
    3.0400   -2.2100    0.0000 C   0  0  0  0  0  0  0  0  0  0  0  0
    1.7300   -2.9500    0.0000 C   0  0  0  0  0  0  0  0  0  0  0  0
   -0.8300    1.5600    0.0000 C   0  0  0  0  0  0  0  0  0  0  0  0
   -0.8300    0.0500    0.0000 C   0  0  0  0  0  0  0  0  0  0  0  0
    1.7600    0.0500    0.0000 C   0  0  0  0  0  0  0  0  0  0  0  0
    3.0600   -0.7000    0.0000 C   0  0  0  0  0  0  0  0  0  0  0  0
    0.4500   -0.6900    0.0000 C   0  0  0  0  0  0  0  0  0  0  0  0
    4.3639    0.0416    0.0000 O   0  0  0  0  0  0  0  0  0  0  0  0
    0.4400   -2.1800    0.0000 O   0  0  0  0  0  0  0  0  0  0  0  0
  3  2  2  0
  4  2  1  0
  5  3  1  0
  7  6  2  0
  9  1  1  0
  9  8  2  0
 10  4  2  0
 10  6  1  0
 11  5  2  0
 11 10  1  0
 12  7  1  0
 13  8  1  0
 13 12  1  0
 14 11  1  0
 14 12  2  0
 15 13  2  0
 16  9  1  0
 16 14  1  0
M  END
>  <NAME>  (5524) 
2-METHYL-(7,8)-BENZOCHROMONE

>  <SYNONYMS>  (5524) 


>  <SPECTRUM TYPE>  (5524) 
MS1

>  <INSTRUMENT TYPE>  (5524) 
EI-B

>  <INSTRUMENT>  (5524) 
HITACHI RMU-7

>  <ION MODE>  (5524) 
P

>  <INCHIKEY>  (5524) 
HSULZQNMIJZSHG-UHFFFAOYSA-N

>  <FORMULA>  (5524) 
C14H10O2

>  <EXACT MASS>  (5524) 
210.06807956

>  <MW>  (5524) 
210

>  <ID>  (5524) 
JP003217

>  <CONTRIBUTOR>  (5524) 
University of Tokyo Team, {Faculty of Engineering, University of Tokyo

>  <COMMENT>  (5524) 
SMILES=CC(=C3)Oc(c1C(=O)3)c(c2)c(ccc2)cc1
InChI=InChI=1S/C14H10O2/c1-9-8-13(15)12-7-6-10-4-2-3-5-11(10)14(12)16-9/h2-8H,1H3
computed SMILES=O=C1C=C(OC2=C1C=CC=3C=CC=CC32)C
accession=JP003217
date=2016.01.19 (Created 2008.10.21, modified 2011.05.06)
author=NAKATA H, DEPT. OF CHEMISTRY, AICHI KYOIKU UNIV.
license=CC BY-NC-SA
exact mass=210.06808
ionization energy=70 eV
ion type=[M]+*
computed spectral entropy=2.307595961509352
computed normalized entropy=0.7702944558432562
SPLASH=splash10-03di-2960000000-c57ddc27d9f86af91442
submitter=submitter = University of Tokyo Team (Faculty of Engineering, University of Tokyo)
MoNA Rating=3.75

>  <NUM PEAKS>  (5524) 
20

>  <MASS SPECTRAL PEAKS>  (5524) 
39 5
40 5
44 8
62 4
63 8
76 6
88 5
91 4
105 5
113 10
114 43
115 7
142 4
152 4
170 65
171 10
181 6
182 10
210 99.99
211 16

$$$$

     RDKit          2D

 16 18  0  0  0  0  0  0  0  0999 V2000
    5.1989    1.5002    0.0000 C   0  0  0  0  0  0  0  0  0  0  0  0
   -3.9000   -0.7500    0.0000 C   0  0  0  0  0  0  0  0  0  0  0  0
   -3.9000    0.7500    0.0000 C   0  0  0  0  0  0  0  0  0  0  0  0
   -2.6000   -1.5000    0.0000 C   0  0  0  0  0  0  0  0  0  0  0  0
   -2.6000    1.5000    0.0000 C   0  0  0  0  0  0  0  0  0  0  0  0
    3.9000   -0.7500    0.0000 C   0  0  0  0  0  0  0  0  0  0  0  0
    0.0000   -1.5000    0.0000 C   0  0  0  0  0  0  0  0  0  0  0  0
    0.0000    1.5000    0.0000 C   0  0  0  0  0  0  0  0  0  0  0  0
    3.9000    0.7500    0.0000 C   0  0  0  0  0  0  0  0  0  0  0  0
   -1.3000   -0.7500    0.0000 C   0  0  0  0  0  0  0  0  0  0  0  0
   -1.3000    0.7500    0.0000 C   0  0  0  0  0  0  0  0  0  0  0  0
    1.3000   -0.7500    0.0000 C   0  0  0  0  0  0  0  0  0  0  0  0
    2.6000   -1.5000    0.0000 C   0  0  0  0  0  0  0  0  0  0  0  0
    1.3000    0.7500    0.0000 C   0  0  0  0  0  0  0  0  0  0  0  0
    2.6000   -3.0000    0.0000 O   0  0  0  0  0  0  0  0  0  0  0  0
    2.6000    1.5000    0.0000 O   0  0  0  0  0  0  0  0  0  0  0  0
  3  2  2  0
  4  2  1  0
  5  3  1  0
  9  1  1  0
  9  6  2  0
 10  4  2  0
 10  7  1  0
 11  5  2  0
 11  8  1  0
 11 10  1  0
 12  7  2  0
 13  6  1  0
 13 12  1  0
 14  8  2  0
 14 12  1  0
 15 13  2  0
 16  9  1  0
 16 14  1  0
M  END
>  <NAME>  (5525) 
2-METHYL-(6,7)-BENZOCHROMONE

>  <SYNONYMS>  (5525) 


>  <SPECTRUM TYPE>  (5525) 
MS1

>  <INSTRUMENT TYPE>  (5525) 
EI-B

>  <INSTRUMENT>  (5525) 
HITACHI RMU-7

>  <ION MODE>  (5525) 
P

>  <INCHIKEY>  (5525) 
SWQVFJKTDLQTHJ-UHFFFAOYSA-N

>  <FORMULA>  (5525) 
C14H10O2

>  <EXACT MASS>  (5525) 
210.06807956

>  <MW>  (5525) 
210

>  <ID>  (5525) 
JP003216

>  <CONTRIBUTOR>  (5525) 
University of Tokyo Team, {Faculty of Engineering, University of Tokyo

>  <COMMENT>  (5525) 
SMILES=CC(=C1)Oc(c2)c(cc(c3)c(ccc3)2)C(=O)1
InChI=InChI=1S/C14H10O2/c1-9-6-13(15)12-7-10-4-2-3-5-11(10)8-14(12)16-9/h2-8H,1H3
computed SMILES=O=C1C=C(OC2=CC=3C=CC=CC3C=C12)C
ion type=[M]+*
accession=JP003216
date=2016.01.19 (Created 2008.10.21, modified 2011.05.06)
author=NAKATA H, DEPT. OF CHEMISTRY, AICHI KYOIKU UNIV.
license=CC BY-NC-SA
exact mass=210.06808
ionization energy=70 eV
computed spectral entropy=2.143201749644506
computed normalized entropy=0.7914187664512999
SPLASH=splash10-03di-3890000000-a89c74065df0b9c05fd6
submitter=submitter = University of Tokyo Team (Faculty of Engineering, University of Tokyo)
MoNA Rating=3.75

>  <NUM PEAKS>  (5525) 
15

>  <MASS SPECTRAL PEAKS>  (5525) 
39 5
40 6
44 11
63 6
76 6
91 7
113 6
114 19
115 5
142 28
170 33
171 7
182 6
210 99.99
212 16

$$$$

     RDKit          2D

 20 22  0  0  0  0  0  0  0  0999 V2000
    1.7120   -4.4499    0.0000 C   0  0  0  0  0  0  0  0  0  0  0  0
   -0.8401    4.5594    0.0000 C   0  0  0  0  0  0  0  0  0  0  0  0
    3.0789    3.7943    0.0000 C   0  0  0  0  0  0  0  0  0  0  0  0
   -3.4100    0.0600    0.0000 C   0  0  0  0  0  0  0  0  0  0  0  0
   -3.4100    1.5500    0.0000 C   0  0  0  0  0  0  0  0  0  0  0  0
   -2.1200   -0.6900    0.0000 C   0  0  0  0  0  0  0  0  0  0  0  0
   -2.1200    2.2900    0.0000 C   0  0  0  0  0  0  0  0  0  0  0  0
    3.0400   -2.2100    0.0000 C   0  0  0  0  0  0  0  0  0  0  0  0
    1.7300   -2.9500    0.0000 C   0  0  0  0  0  0  0  0  0  0  0  0
   -0.8300    0.0500    0.0000 C   0  0  0  0  0  0  0  0  0  0  0  0
   -0.8300    1.5600    0.0000 C   0  0  0  0  0  0  0  0  0  0  0  0
    3.0600   -0.7000    0.0000 C   0  0  0  0  0  0  0  0  0  0  0  0
    1.7600    0.0500    0.0000 C   0  0  0  0  0  0  0  0  0  0  0  0
    0.4500   -0.6900    0.0000 C   0  0  0  0  0  0  0  0  0  0  0  0
    0.4600    2.3100    0.0000 C   0  0  0  0  0  0  0  0  0  0  0  0
    1.7700    1.5500    0.0000 C   0  0  0  0  0  0  0  0  0  0  0  0
    4.3639    0.0416    0.0000 O   0  0  0  0  0  0  0  0  0  0  0  0
    0.4593    3.8100    0.0000 O   0  0  0  0  0  0  0  0  0  0  0  0
    3.0723    2.2943    0.0000 O   0  0  0  0  0  0  0  0  0  0  0  0
    0.4400   -2.1800    0.0000 O   0  0  0  0  0  0  0  0  0  0  0  0
  5  4  2  0
  6  4  1  0
  7  5  1  0
  9  1  1  0
  9  8  2  0
 10  6  2  0
 11  7  2  0
 11 10  1  0
 12  8  1  0
 13 12  1  0
 14 10  1  0
 14 13  2  0
 15 11  1  0
 16 13  1  0
 16 15  2  0
 17 12  2  0
 18  2  1  0
 18 15  1  0
 19  3  1  0
 19 16  1  0
 20  9  1  0
 20 14  1  0
M  END
>  <NAME>  (5526) 
2-METHYL-5,6-DIMETHOXY-(7,8)-BENZOCHROMONE

>  <SYNONYMS>  (5526) 


>  <SPECTRUM TYPE>  (5526) 
MS1

>  <INSTRUMENT TYPE>  (5526) 
EI-B

>  <INSTRUMENT>  (5526) 
HITACHI RMU-7

>  <ION MODE>  (5526) 
P

>  <INCHIKEY>  (5526) 
CXGBFFFTAHFALN-UHFFFAOYSA-N

>  <FORMULA>  (5526) 
C16H14O4

>  <EXACT MASS>  (5526) 
270.089208928

>  <MW>  (5526) 
270

>  <ID>  (5526) 
JP003215

>  <CONTRIBUTOR>  (5526) 
University of Tokyo Team, {Faculty of Engineering, University of Tokyo

>  <COMMENT>  (5526) 
SMILES=COc(c21)c(OC)c(C(=O)3)c(OC(C)=C3)c(cccc2)1
InChI=InChI=1S/C16H14O4/c1-9-8-12(17)13-14(20-9)10-6-4-5-7-11(10)15(18-2)16(13)19-3/h4-8H,1-3H3
computed SMILES=O=C1C=C(OC=2C=3C=CC=CC3C(OC)=C(OC)C12)C
accession=JP003215
date=2016.01.19 (Created 2008.10.21, modified 2011.05.06)
author=NAKATA H, DEPT. OF CHEMISTRY, AICHI KYOIKU UNIV.
license=CC BY-NC-SA
exact mass=270.08921
ionization energy=70 eV
ion type=[M]+*
computed spectral entropy=3.2618412086759414
computed normalized entropy=0.8619655789550206
SPLASH=splash10-0a6r-3490000000-5d7cba37e73522da81fe
submitter=submitter = University of Tokyo Team (Faculty of Engineering, University of Tokyo)
MoNA Rating=3.75

>  <NUM PEAKS>  (5526) 
44

>  <MASS SPECTRAL PEAKS>  (5526) 
39 8
43 8
44 13
50 5
63 6
64 6
74 9
75 8
76 20
77 9
78 5
88 7
91 9
92 5
100 5
101 8
103 6
104 25
105 6
113 6
115 6
119 6
127 8
128 11
129 5
157 8
185 5
187 28
198 5
201 6
210 5
215 5
224 6
225 4
226 5
227 70
228 11
238 7
240 10
253 5
255 99.99
256 19
270 48
271 7

$$$$

     RDKit          2D

 18 20  0  0  0  0  0  0  0  0999 V2000
    1.7120   -4.4499    0.0000 C   0  0  0  0  0  0  0  0  0  0  0  0
    3.0789    3.7943    0.0000 C   0  0  0  0  0  0  0  0  0  0  0  0
   -3.4100    1.5500    0.0000 C   0  0  0  0  0  0  0  0  0  0  0  0
   -3.4100    0.0600    0.0000 C   0  0  0  0  0  0  0  0  0  0  0  0
   -2.1200    2.2900    0.0000 C   0  0  0  0  0  0  0  0  0  0  0  0
   -2.1200   -0.6900    0.0000 C   0  0  0  0  0  0  0  0  0  0  0  0
    3.0400   -2.2100    0.0000 C   0  0  0  0  0  0  0  0  0  0  0  0
    0.4600    2.3100    0.0000 C   0  0  0  0  0  0  0  0  0  0  0  0
    1.7300   -2.9500    0.0000 C   0  0  0  0  0  0  0  0  0  0  0  0
   -0.8300    1.5600    0.0000 C   0  0  0  0  0  0  0  0  0  0  0  0
   -0.8300    0.0500    0.0000 C   0  0  0  0  0  0  0  0  0  0  0  0
    3.0600   -0.7000    0.0000 C   0  0  0  0  0  0  0  0  0  0  0  0
    1.7700    1.5500    0.0000 C   0  0  0  0  0  0  0  0  0  0  0  0
    1.7600    0.0500    0.0000 C   0  0  0  0  0  0  0  0  0  0  0  0
    0.4500   -0.6900    0.0000 C   0  0  0  0  0  0  0  0  0  0  0  0
    4.3639    0.0416    0.0000 O   0  0  0  0  0  0  0  0  0  0  0  0
    3.0723    2.2943    0.0000 O   0  0  0  0  0  0  0  0  0  0  0  0
    0.4400   -2.1800    0.0000 O   0  0  0  0  0  0  0  0  0  0  0  0
  4  3  2  0
  5  3  1  0
  6  4  1  0
  9  1  1  0
  9  7  2  0
 10  5  2  0
 10  8  1  0
 11  6  2  0
 11 10  1  0
 12  7  1  0
 13  8  2  0
 14 12  1  0
 14 13  1  0
 15 11  1  0
 15 14  2  0
 16 12  2  0
 17  2  1  0
 17 13  1  0
 18  9  1  0
 18 15  1  0
M  END
>  <NAME>  (5527) 
2-METHYL-5-METHOXY-(7,8)-BENZOCHROMONE

>  <SYNONYMS>  (5527) 


>  <SPECTRUM TYPE>  (5527) 
MS1

>  <INSTRUMENT TYPE>  (5527) 
EI-B

>  <INSTRUMENT>  (5527) 
HITACHI RMU-7

>  <ION MODE>  (5527) 
P

>  <INCHIKEY>  (5527) 
LKTYFWWDJDOZRH-UHFFFAOYSA-N

>  <FORMULA>  (5527) 
C15H12O3

>  <EXACT MASS>  (5527) 
240.07864424399997

>  <MW>  (5527) 
240

>  <ID>  (5527) 
JP003214

>  <CONTRIBUTOR>  (5527) 
University of Tokyo Team, {Faculty of Engineering, University of Tokyo

>  <COMMENT>  (5527) 
SMILES=COc(c1)c(C(=O)3)c(OC(C)=C3)c(c2)c(ccc2)1
InChI=InChI=1S/C15H12O3/c1-9-7-12(16)14-13(17-2)8-10-5-3-4-6-11(10)15(14)18-9/h3-8H,1-2H3
computed SMILES=O=C1C=C(OC=2C=3C=CC=CC3C=C(OC)C12)C
accession=JP003214
date=2016.01.19 (Created 2008.10.21, modified 2011.05.06)
author=NAKATA H, DEPT. OF CHEMISTRY, AICHI KYOIKU UNIV.
license=CC BY-NC-SA
exact mass=240.07864
ionization energy=70 eV
ion type=[M]+*
computed spectral entropy=3.3698172734961114
computed normalized entropy=0.8752436587104852
SPLASH=splash10-01ox-3980000000-f7a89e0d200f1d618725
submitter=submitter = University of Tokyo Team (Faculty of Engineering, University of Tokyo)
MoNA Rating=3.75

>  <NUM PEAKS>  (5527) 
47

>  <MASS SPECTRAL PEAKS>  (5527) 
39 13
43 7
44 9
50 5
51 12
62 6
63 15
67 6
74 8
75 16
76 12
77 6
78 10
86 5
87 7
89 5
101 35
102 7
106 6
113 10
114 28
115 10
120 11
126 6
127 8
129 6
139 6
142 6
152 7
157 23
165 6
170 46
171 11
181 6
182 8
194 75
195 12
210 17
211 83
212 13
222 8
223 11
226 5
237 6
239 46
240 99.99
241 17

$$$$

     RDKit          2D

 18 20  0  0  0  0  0  0  0  0999 V2000
    1.7600    4.4500    0.0000 C   0  0  0  0  0  0  0  0  0  0  0  0
   -4.7287   -3.8002    0.0000 C   0  0  0  0  0  0  0  0  0  0  0  0
    0.4600   -2.3000    0.0000 C   0  0  0  0  0  0  0  0  0  0  0  0
   -3.4300   -0.0500    0.0000 C   0  0  0  0  0  0  0  0  0  0  0  0
   -2.1300    0.7000    0.0000 C   0  0  0  0  0  0  0  0  0  0  0  0
    1.7600   -1.5500    0.0000 C   0  0  0  0  0  0  0  0  0  0  0  0
   -2.1300   -2.3000    0.0000 C   0  0  0  0  0  0  0  0  0  0  0  0
    3.0600    2.2000    0.0000 C   0  0  0  0  0  0  0  0  0  0  0  0
    1.7600    2.9500    0.0000 C   0  0  0  0  0  0  0  0  0  0  0  0
   -0.8300   -1.5500    0.0000 C   0  0  0  0  0  0  0  0  0  0  0  0
   -3.4300   -1.5500    0.0000 C   0  0  0  0  0  0  0  0  0  0  0  0
   -0.8300   -0.0500    0.0000 C   0  0  0  0  0  0  0  0  0  0  0  0
    1.7600   -0.0500    0.0000 C   0  0  0  0  0  0  0  0  0  0  0  0
    0.4600    0.7000    0.0000 C   0  0  0  0  0  0  0  0  0  0  0  0
    0.4600    2.2000    0.0000 C   0  0  0  0  0  0  0  0  0  0  0  0
   -0.8389    2.9502    0.0000 O   0  0  0  0  0  0  0  0  0  0  0  0
   -4.7289   -2.3002    0.0000 O   0  0  0  0  0  0  0  0  0  0  0  0
    3.0600    0.7000    0.0000 O   0  0  0  0  0  0  0  0  0  0  0  0
  5  4  1  0
  6  3  2  0
  9  1  1  0
  9  8  2  0
 10  3  1  0
 10  7  2  0
 11  4  2  0
 11  7  1  0
 12  5  2  0
 12 10  1  0
 13  6  1  0
 14 12  1  0
 14 13  2  0
 15  9  1  0
 15 14  1  0
 16 15  2  0
 17  2  1  0
 17 11  1  0
 18  8  1  0
 18 13  1  0
M  END
>  <NAME>  (5528) 
2-METHYL-8-METHOXY-(5,6)-BENZOCHROMONE

>  <SYNONYMS>  (5528) 


>  <SPECTRUM TYPE>  (5528) 
MS1

>  <INSTRUMENT TYPE>  (5528) 
EI-B

>  <INSTRUMENT>  (5528) 
HITACHI RMU-7

>  <ION MODE>  (5528) 
P

>  <INCHIKEY>  (5528) 
GMQHWDJLIRKNAG-UHFFFAOYSA-N

>  <FORMULA>  (5528) 
C15H12O3

>  <EXACT MASS>  (5528) 
240.07864424399997

>  <MW>  (5528) 
240

>  <ID>  (5528) 
JP003213

>  <CONTRIBUTOR>  (5528) 
University of Tokyo Team, {Faculty of Engineering, University of Tokyo

>  <COMMENT>  (5528) 
SMILES=COc(c3)cc(c1)c(c3)c(C(=O)2)c(OC=C(C)2)c1
InChI=InChI=1S/C15H12O3/c1-9-8-18-13-6-3-10-7-11(17-2)4-5-12(10)14(13)15(9)16/h3-8H,1-2H3
computed SMILES=O=C1C(=COC=2C=CC3=CC(OC)=CC=C3C21)C
accession=JP003213
date=2016.01.19 (Created 2008.10.21, modified 2011.05.06)
author=NAKATA H, DEPT. OF CHEMISTRY, AICHI KYOIKU UNIV.
license=CC BY-NC-SA
exact mass=240.07864
ionization energy=70 eV
ion type=[M]+*
computed spectral entropy=2.1377055122612703
computed normalized entropy=0.771014285355084
SPLASH=splash10-0006-1490000000-0efa0953d3203c835c66
submitter=submitter = University of Tokyo Team (Faculty of Engineering, University of Tokyo)
MoNA Rating=3.75

>  <NUM PEAKS>  (5528) 
16

>  <MASS SPECTRAL PEAKS>  (5528) 
18 6
28 7
39 5
63 5
75 7
101 12
115 6
129 6
157 4
169 33
170 8
171 5
212 6
225 16
240 99.99
241 16

$$$$

     RDKit          2D

 18 20  0  0  0  0  0  0  0  0999 V2000
    5.1989    1.5002    0.0000 C   0  0  0  0  0  0  0  0  0  0  0  0
   -6.4981    0.7504    0.0000 C   0  0  0  0  0  0  0  0  0  0  0  0
   -2.6000   -1.5000    0.0000 C   0  0  0  0  0  0  0  0  0  0  0  0
   -3.9000   -0.7500    0.0000 C   0  0  0  0  0  0  0  0  0  0  0  0
    3.9000   -0.7500    0.0000 C   0  0  0  0  0  0  0  0  0  0  0  0
   -2.6000    1.5000    0.0000 C   0  0  0  0  0  0  0  0  0  0  0  0
    0.0000   -1.5000    0.0000 C   0  0  0  0  0  0  0  0  0  0  0  0
    0.0000    1.5000    0.0000 C   0  0  0  0  0  0  0  0  0  0  0  0
    3.9000    0.7500    0.0000 C   0  0  0  0  0  0  0  0  0  0  0  0
   -1.3000   -0.7500    0.0000 C   0  0  0  0  0  0  0  0  0  0  0  0
   -1.3000    0.7500    0.0000 C   0  0  0  0  0  0  0  0  0  0  0  0
   -3.9000    0.7500    0.0000 C   0  0  0  0  0  0  0  0  0  0  0  0
    1.3000   -0.7500    0.0000 C   0  0  0  0  0  0  0  0  0  0  0  0
    2.6000   -1.5000    0.0000 C   0  0  0  0  0  0  0  0  0  0  0  0
    1.3000    0.7500    0.0000 C   0  0  0  0  0  0  0  0  0  0  0  0
    2.6000   -3.0000    0.0000 O   0  0  0  0  0  0  0  0  0  0  0  0
   -5.1989    1.5002    0.0000 O   0  0  0  0  0  0  0  0  0  0  0  0
    2.6000    1.5000    0.0000 O   0  0  0  0  0  0  0  0  0  0  0  0
  4  3  2  0
  9  1  1  0
  9  5  2  0
 10  3  1  0
 10  7  2  0
 11  6  1  0
 11  8  2  0
 11 10  1  0
 12  4  1  0
 12  6  2  0
 13  7  1  0
 14  5  1  0
 14 13  1  0
 15  8  1  0
 15 13  2  0
 16 14  2  0
 17  2  1  0
 17 12  1  0
 18  9  1  0
 18 15  1  0
M  END
>  <NAME>  (5529) 
2-METHYL-8-METHOXY-(6,7)-BENZOCHROMONE

>  <SYNONYMS>  (5529) 


>  <SPECTRUM TYPE>  (5529) 
MS1

>  <INSTRUMENT TYPE>  (5529) 
EI-B

>  <INSTRUMENT>  (5529) 
HITACHI RMU-7

>  <ION MODE>  (5529) 
P

>  <INCHIKEY>  (5529) 
SZNVNGQSAXUMDC-UHFFFAOYSA-N

>  <FORMULA>  (5529) 
C15H12O3

>  <EXACT MASS>  (5529) 
240.07864424399997

>  <MW>  (5529) 
240

>  <ID>  (5529) 
JP003212

>  <CONTRIBUTOR>  (5529) 
University of Tokyo Team, {Faculty of Engineering, University of Tokyo

>  <COMMENT>  (5529) 
SMILES=COc(c3)cc(c1)c(c3)cc(C(=O)2)c(OC(C)=C2)1
InChI=InChI=1S/C15H12O3/c1-9-5-14(16)13-7-10-3-4-12(17-2)6-11(10)8-15(13)18-9/h3-8H,1-2H3
computed SMILES=O=C1C=C(OC=2C=C3C=C(OC)C=CC3=CC12)C
accession=JP003212
date=2016.01.19 (Created 2008.10.21, modified 2011.05.06)
author=NAKATA H, DEPT. OF CHEMISTRY, AICHI KYOIKU UNIV.
license=CC BY-NC-SA
exact mass=240.07864
ionization energy=70 eV
ion type=[M]+*
computed spectral entropy=2.423697002764902
computed normalized entropy=0.8231439061613841
SPLASH=splash10-054o-1890000000-d7490250e07f3f8d51a7
submitter=submitter = University of Tokyo Team (Faculty of Engineering, University of Tokyo)
MoNA Rating=3.75

>  <NUM PEAKS>  (5529) 
19

>  <MASS SPECTRAL PEAKS>  (5529) 
39 6
44 8
51 6
63 6
75 12
100 8
101 31
102 5
113 6
120 6
157 57
158 27
185 57
186 8
225 73
226 12
232 5
240 99.99
241 16

$$$$

     RDKit          2D

 16 18  0  0  0  0  0  0  0  0999 V2000
    1.7600    4.4500    0.0000 C   0  0  0  0  0  0  0  0  0  0  0  0
   -3.4300   -1.5500    0.0000 C   0  0  0  0  0  0  0  0  0  0  0  0
   -3.4300   -0.0500    0.0000 C   0  0  0  0  0  0  0  0  0  0  0  0
   -2.1300   -2.3000    0.0000 C   0  0  0  0  0  0  0  0  0  0  0  0
   -2.1300    0.7000    0.0000 C   0  0  0  0  0  0  0  0  0  0  0  0
    0.4600   -2.3000    0.0000 C   0  0  0  0  0  0  0  0  0  0  0  0
    1.7600   -1.5500    0.0000 C   0  0  0  0  0  0  0  0  0  0  0  0
    3.0600    2.2000    0.0000 C   0  0  0  0  0  0  0  0  0  0  0  0
    1.7600    2.9500    0.0000 C   0  0  0  0  0  0  0  0  0  0  0  0
   -0.8300   -1.5500    0.0000 C   0  0  0  0  0  0  0  0  0  0  0  0
   -0.8300   -0.0500    0.0000 C   0  0  0  0  0  0  0  0  0  0  0  0
    1.7600   -0.0500    0.0000 C   0  0  0  0  0  0  0  0  0  0  0  0
    0.4600    0.7000    0.0000 C   0  0  0  0  0  0  0  0  0  0  0  0
    0.4600    2.2000    0.0000 C   0  0  0  0  0  0  0  0  0  0  0  0
   -0.8389    2.9502    0.0000 O   0  0  0  0  0  0  0  0  0  0  0  0
    3.0600    0.7000    0.0000 O   0  0  0  0  0  0  0  0  0  0  0  0
  3  2  2  0
  4  2  1  0
  5  3  1  0
  7  6  2  0
  9  1  1  0
  9  8  2  0
 10  4  2  0
 10  6  1  0
 11  5  2  0
 11 10  1  0
 12  7  1  0
 13 11  1  0
 13 12  2  0
 14  9  1  0
 14 13  1  0
 15 14  2  0
 16  8  1  0
 16 12  1  0
M  END
>  <NAME>  (5530) 
2-METHYL-(5,6)-BENZOCHROMONE

>  <SYNONYMS>  (5530) 


>  <SPECTRUM TYPE>  (5530) 
MS1

>  <INSTRUMENT TYPE>  (5530) 
EI-B

>  <INSTRUMENT>  (5530) 
HITACHI RMU-7

>  <ION MODE>  (5530) 
P

>  <INCHIKEY>  (5530) 
QKXPXHGARVWXOW-UHFFFAOYSA-N

>  <FORMULA>  (5530) 
C14H10O2

>  <EXACT MASS>  (5530) 
210.06807956

>  <MW>  (5530) 
210

>  <ID>  (5530) 
JP003211

>  <CONTRIBUTOR>  (5530) 
University of Tokyo Team, {Faculty of Engineering, University of Tokyo

>  <COMMENT>  (5530) 
SMILES=CC(=C3)C(=O)c(c(O3)1)c(c2)c(ccc2)cc1
InChI=InChI=1S/C14H10O2/c1-9-8-16-12-7-6-10-4-2-3-5-11(10)13(12)14(9)15/h2-8H,1H3
computed SMILES=O=C1C(=COC=2C=CC=3C=CC=CC3C21)C
accession=JP003211
date=2016.01.19 (Created 2008.10.21, modified 2011.05.06)
author=NAKATA H, DEPT. OF CHEMISTRY, AICHI KYOIKU UNIV.
license=CC BY-NC-SA
exact mass=210.06808
ionization energy=70 eV
ion type=[M]+*
computed spectral entropy=2.415313447660678
computed normalized entropy=0.8202966557467747
SPLASH=splash10-03fr-9880000000-405a9f5348f41a322e2f
submitter=submitter = University of Tokyo Team (Faculty of Engineering, University of Tokyo)
MoNA Rating=3.75

>  <NUM PEAKS>  (5530) 
19

>  <MASS SPECTRAL PEAKS>  (5530) 
18 9
28 79
32 21
39 5
63 7
76 8
91 7
105 5
113 8
114 25
115 5
142 9
152 5
170 20
181 15
182 29
209 5
210 99.99
211 20

$$$$

     RDKit          2D

 14 15  0  0  0  0  0  0  0  0999 V2000
    5.1974   -3.0004    0.0000 C   0  0  0  0  0  0  0  0  0  0  0  0
    6.4971    0.7512    0.0000 C   0  0  0  0  0  0  0  0  0  0  0  0
    5.1981    1.5012    0.0000 C   0  0  0  0  0  0  0  0  0  0  0  0
    0.0000    1.5000    0.0000 C   0  0  0  0  0  0  0  0  0  0  0  0
   -1.3000    0.7500    0.0000 C   0  0  0  0  0  0  0  0  0  0  0  0
    6.4966   -0.7496    0.0000 C   0  0  0  0  0  0  0  0  0  0  0  0
    3.8986    0.7504    0.0000 C   0  0  0  0  0  0  0  0  0  0  0  0
    1.3000    0.7500    0.0000 C   0  0  0  0  0  0  0  0  0  0  0  0
   -1.3000   -0.7500    0.0000 C   0  0  0  0  0  0  0  0  0  0  0  0
    5.1971   -1.5004    0.0000 C   0  0  0  0  0  0  0  0  0  0  0  0
    3.8981   -0.7504    0.0000 C   0  0  0  0  0  0  0  0  0  0  0  0
    1.3000   -0.7500    0.0000 C   0  0  0  0  0  0  0  0  0  0  0  0
    0.0000   -1.5000    0.0000 N   0  0  0  0  0  0  0  0  0  0  0  0
    2.5989   -1.5002    0.0000 O   0  0  0  0  0  0  0  0  0  0  0  0
  3  2  2  0
  5  4  2  0
  6  2  1  0
  7  3  1  0
  8  4  1  0
  9  5  1  0
 10  1  1  0
 10  6  2  0
 11  7  2  0
 11 10  1  0
 12  8  2  0
 13  9  2  0
 13 12  1  0
 14 11  1  0
 14 12  1  0
M  END
>  <NAME>  (5531) 
2-PYRIDYL O-TOLYL ETHER

>  <SYNONYMS>  (5531) 


>  <SPECTRUM TYPE>  (5531) 
MS1

>  <INSTRUMENT TYPE>  (5531) 
EI-B

>  <INSTRUMENT>  (5531) 
HITACHI RMU-7

>  <ION MODE>  (5531) 
P

>  <INCHIKEY>  (5531) 
JSESVCSCPLOCRY-UHFFFAOYSA-N

>  <FORMULA>  (5531) 
C12H11NO

>  <EXACT MASS>  (5531) 
185.084063972

>  <MW>  (5531) 
185

>  <ID>  (5531) 
JP003210

>  <CONTRIBUTOR>  (5531) 
University of Tokyo Team, {Faculty of Engineering, University of Tokyo

>  <COMMENT>  (5531) 
SMILES=Cc(c2)c(ccc2)Oc(c1)nccc1
InChI=InChI=1S/C12H11NO/c1-10-6-2-3-7-11(10)14-12-8-4-5-9-13-12/h2-9H,1H3
computed SMILES=N=1C=CC=CC1OC=2C=CC=CC2C
accession=JP003210
date=2016.01.19 (Created 2008.10.21, modified 2011.05.06)
author=NAKATA H, DEPT. OF CHEMISTRY, AICHI KYOIKU UNIV.
license=CC BY-NC-SA
exact mass=185.08406
ionization energy=70 eV
ion type=[M]+*
computed spectral entropy=2.9338576501648124
computed normalized entropy=0.8712800414024203
SPLASH=splash10-015i-4900000000-8b1609aec4dd8bb44e6f
submitter=submitter = University of Tokyo Team (Faculty of Engineering, University of Tokyo)
MoNA Rating=3.75

>  <NUM PEAKS>  (5531) 
29

>  <MASS SPECTRAL PEAKS>  (5531) 
50 6
51 27
52 14
53 6
63 8
64 4
65 17
74 14
77 16
78 30
79 16
89 11
90 6
91 14
104 15
128 5
129 6
130 11
154 7
156 20
167 9
168 99.99
169 17
170 54
171 8
183 5
184 68
185 75
186 20

$$$$

     RDKit          2D

 14 15  0  0  0  0  0  0  0  0999 V2000
    5.2038    2.9980    0.0000 C   0  0  0  0  0  0  0  0  0  0  0  0
   -0.0000    1.5000    0.0000 C   0  0  0  0  0  0  0  0  0  0  0  0
   -1.3000    0.7500    0.0000 C   0  0  0  0  0  0  0  0  0  0  0  0
    6.4916   -0.7473    0.0000 C   0  0  0  0  0  0  0  0  0  0  0  0
    6.4989    0.7448    0.0000 C   0  0  0  0  0  0  0  0  0  0  0  0
    5.1912   -1.4950    0.0000 C   0  0  0  0  0  0  0  0  0  0  0  0
    1.3000    0.7500    0.0000 C   0  0  0  0  0  0  0  0  0  0  0  0
   -1.3000   -0.7500    0.0000 C   0  0  0  0  0  0  0  0  0  0  0  0
    3.9003    0.7504    0.0000 C   0  0  0  0  0  0  0  0  0  0  0  0
    5.2008    1.4980    0.0000 C   0  0  0  0  0  0  0  0  0  0  0  0
    3.8981   -0.7504    0.0000 C   0  0  0  0  0  0  0  0  0  0  0  0
    1.3000   -0.7500    0.0000 C   0  0  0  0  0  0  0  0  0  0  0  0
   -0.0000   -1.5000    0.0000 N   0  0  0  0  0  0  0  0  0  0  0  0
    2.5989   -1.5002    0.0000 O   0  0  0  0  0  0  0  0  0  0  0  0
  3  2  2  0
  5  4  2  0
  6  4  1  0
  7  2  1  0
  8  3  1  0
 10  1  1  0
 10  5  1  0
 10  9  2  0
 11  6  2  0
 11  9  1  0
 12  7  2  0
 13  8  2  0
 13 12  1  0
 14 11  1  0
 14 12  1  0
M  END
>  <NAME>  (5532) 
2-PYRIDYL M-TOLYL ETHER

>  <SYNONYMS>  (5532) 


>  <SPECTRUM TYPE>  (5532) 
MS1

>  <INSTRUMENT TYPE>  (5532) 
EI-B

>  <INSTRUMENT>  (5532) 
HITACHI RMU-7

>  <ION MODE>  (5532) 
P

>  <INCHIKEY>  (5532) 
OAWUVCPIXULPNA-UHFFFAOYSA-N

>  <FORMULA>  (5532) 
C12H11NO

>  <EXACT MASS>  (5532) 
185.084063972

>  <MW>  (5532) 
185

>  <ID>  (5532) 
JP003209

>  <CONTRIBUTOR>  (5532) 
University of Tokyo Team, {Faculty of Engineering, University of Tokyo

>  <COMMENT>  (5532) 
SMILES=Cc(c2)cc(cc2)Oc(c1)nccc1
InChI=InChI=1S/C12H11NO/c1-10-5-4-6-11(9-10)14-12-7-2-3-8-13-12/h2-9H,1H3
computed SMILES=N=1C=CC=CC1OC2=CC=CC(=C2)C
accession=JP003209
date=2016.01.19 (Created 2008.10.21, modified 2011.05.06)
author=NAKATA H, DEPT. OF CHEMISTRY, AICHI KYOIKU UNIV.
license=CC BY-NC-SA
exact mass=185.08406
ionization energy=70 eV
ion type=[M]+*
computed spectral entropy=2.7807822266085926
computed normalized entropy=0.853499027471192
SPLASH=splash10-0540-3900000000-b5c7ec18f645daf79d11
submitter=submitter = University of Tokyo Team (Faculty of Engineering, University of Tokyo)
MoNA Rating=3.75

>  <NUM PEAKS>  (5532) 
26

>  <MASS SPECTRAL PEAKS>  (5532) 
50 6
51 28
52 12
53 5
63 10
65 17
77 13
78 32
79 6
89 8
91 15
115 14
117 5
129 13
130 8
131 6
142 8
156 24
157 57
158 8
169 8
170 7
183 7
184 99.99
185 83
186 14

$$$$

     RDKit          2D

 13 14  0  0  0  0  0  0  0  0999 V2000
    6.4986    0.7488    0.0000 C   0  0  0  0  0  0  0  0  0  0  0  0
    6.4981   -0.7512    0.0000 C   0  0  0  0  0  0  0  0  0  0  0  0
    5.1988    1.4992    0.0000 C   0  0  0  0  0  0  0  0  0  0  0  0
    0.0000    1.5000    0.0000 C   0  0  0  0  0  0  0  0  0  0  0  0
   -1.3000    0.7500    0.0000 C   0  0  0  0  0  0  0  0  0  0  0  0
    5.1978   -1.5008    0.0000 C   0  0  0  0  0  0  0  0  0  0  0  0
    3.8986    0.7496    0.0000 C   0  0  0  0  0  0  0  0  0  0  0  0
    1.3000    0.7500    0.0000 C   0  0  0  0  0  0  0  0  0  0  0  0
   -1.3000   -0.7500    0.0000 C   0  0  0  0  0  0  0  0  0  0  0  0
    3.8981   -0.7504    0.0000 C   0  0  0  0  0  0  0  0  0  0  0  0
    1.3000   -0.7500    0.0000 C   0  0  0  0  0  0  0  0  0  0  0  0
    0.0000   -1.5000    0.0000 N   0  0  0  0  0  0  0  0  0  0  0  0
    2.5989   -1.5002    0.0000 O   0  0  0  0  0  0  0  0  0  0  0  0
  2  1  2  0
  3  1  1  0
  5  4  2  0
  6  2  1  0
  7  3  2  0
  8  4  1  0
  9  5  1  0
 10  6  2  0
 10  7  1  0
 11  8  2  0
 12  9  2  0
 12 11  1  0
 13 10  1  0
 13 11  1  0
M  END
>  <NAME>  (5533) 
2-PYRIDYL PHENYL ETHER

>  <SYNONYMS>  (5533) 


>  <SPECTRUM TYPE>  (5533) 
MS1

>  <INSTRUMENT TYPE>  (5533) 
EI-B

>  <INSTRUMENT>  (5533) 
HITACHI RMU-7

>  <ION MODE>  (5533) 
P

>  <INCHIKEY>  (5533) 
MEAAWTRWNWSLPF-UHFFFAOYSA-N

>  <FORMULA>  (5533) 
C11H9NO

>  <EXACT MASS>  (5533) 
171.068413908

>  <MW>  (5533) 
171

>  <ID>  (5533) 
JP003208

>  <CONTRIBUTOR>  (5533) 
University of Tokyo Team, {Faculty of Engineering, University of Tokyo

>  <COMMENT>  (5533) 
SMILES=c(c2)ccc(c2)Oc(c1)nccc1
InChI=InChI=1S/C11H9NO/c1-2-6-10(7-3-1)13-11-8-4-5-9-12-11/h1-9H
computed SMILES=N=1C=CC=CC1OC=2C=CC=CC2
accession=JP003208
date=2016.01.19 (Created 2008.10.21, modified 2011.05.06)
author=NAKATA H, DEPT. OF CHEMISTRY, AICHI KYOIKU UNIV.
license=CC BY-NC-SA
exact mass=171.06841
ionization energy=70 eV
ion type=[M]+*
computed spectral entropy=2.3885880067169056
computed normalized entropy=0.8430667643606551
SPLASH=splash10-00di-3900000000-07dbafc321dce244818c
submitter=submitter = University of Tokyo Team (Faculty of Engineering, University of Tokyo)
MoNA Rating=3.75

>  <NUM PEAKS>  (5533) 
17

>  <MASS SPECTRAL PEAKS>  (5533) 
50 9
51 39
52 9
65 8
77 18
78 32
85 6
104 6
115 23
116 13
117 14
142 8
143 56
144 7
170 99.99
171 91
172 15

$$$$

     RDKit          2D

 10 10  0  0  0  0  0  0  0  0999 V2000
    0.0004    1.5008    0.0000 C   0  0  0  0  0  0  0  0  0  0  0  0
    2.5986    1.5006    0.0000 C   0  0  0  0  0  0  0  0  0  0  0  0
   -0.0006   -1.5009    0.0000 C   0  0  0  0  0  0  0  0  0  0  0  0
    1.2994    0.7508    0.0000 C   0  0  0  0  0  0  0  0  0  0  0  0
   -1.2991    0.7499    0.0000 C   0  0  0  0  0  0  0  0  0  0  0  0
   -1.2996   -0.7509    0.0000 C   0  0  0  0  0  0  0  0  0  0  0  0
    3.8975    0.7504    0.0000 O   0  0  0  0  0  0  0  0  0  0  0  0
   -2.5982    1.4999    0.0000 O   0  0  0  0  0  0  0  0  0  0  0  0
   -2.5988   -1.5007    0.0000 O   0  0  0  0  0  0  0  0  0  0  0  0
    1.2989   -0.7501    0.0000 O   0  0  0  0  0  0  0  0  0  0  0  0
  4  1  2  0
  4  2  1  0
  5  1  1  0
  6  3  2  0
  6  5  1  0
  7  2  1  0
  8  5  2  0
  9  6  1  0
 10  3  1  0
 10  4  1  0
M  END
>  <NAME>  (5534) 
KOJIC ACID

>  <SYNONYMS>  (5534) 


>  <SPECTRUM TYPE>  (5534) 
MS1

>  <INSTRUMENT TYPE>  (5534) 
EI-B

>  <INSTRUMENT>  (5534) 
HITACHI RMU-6E

>  <ION MODE>  (5534) 
P

>  <INCHIKEY>  (5534) 
BEJNERDRQOWKJM-UHFFFAOYSA-N

>  <FORMULA>  (5534) 
C6H6O4

>  <EXACT MASS>  (5534) 
142.026608672

>  <MW>  (5534) 
142

>  <ID>  (5534) 
JP003207

>  <CONTRIBUTOR>  (5534) 
University of Tokyo Team, {Faculty of Engineering, University of Tokyo

>  <COMMENT>  (5534) 
SMILES=OCC(O1)=CC(=O)C(O)=C1
InChI=InChI=1S/C6H6O4/c7-2-4-1-5(8)6(9)3-10-4/h1,3,7,9H,2H2
computed SMILES=O=C1C=C(OC=C1O)CO
accession=JP003207
date=2016.01.19 (Created 2008.10.21, modified 2011.05.06)
author=NAKATA H, DEPT. OF CHEMISTRY, AICHI KYOIKU UNIV.
license=CC BY-NC-SA
exact mass=142.02661
ionization energy=70 eV
ion type=[M]+*
computed spectral entropy=3.122703017782328
computed normalized entropy=0.8714068688939829
SPLASH=splash10-05p6-9300000000-704def65872ec878b268
submitter=submitter = University of Tokyo Team (Faculty of Engineering, University of Tokyo)
MoNA Rating=3.75

>  <NUM PEAKS>  (5534) 
36

>  <MASS SPECTRAL PEAKS>  (5534) 
25 10
27 7
28 11
29 53
30 5
31 15
32 11
38 9
39 40
40 6
41 12
42 12
43 6
44 10
53 10
54 6
55 20
56 9
57 30
67 7
68 10
69 74
70 5
71 8
83 5
84 8
85 22
86 5
96 5
97 14
113 36
114 8
140 9
141 5
142 99.99
143 8

$$$$

     RDKit          2D

 13 13  0  0  0  0  0  0  0  0999 V2000
   -3.3013   -1.3889    0.0000 C   0  0  0  0  0  0  0  0  0  0  0  0
   -2.8499   -2.1704    0.0000 C   0  0  0  0  0  0  0  0  0  0  0  0
   -2.3372   -0.2397    0.0000 C   0  0  0  0  0  0  0  0  0  0  0  0
   -1.3727   -1.9096    0.0000 C   0  0  0  0  0  0  0  0  0  0  0  0
   -0.8600    1.0000    0.0000 C   0  0  0  0  0  0  0  0  0  0  0  0
    0.4400   -1.2500    0.0000 C   0  0  0  0  0  0  0  0  0  0  0  0
    1.7400    1.0000    0.0000 C   0  0  0  0  0  0  0  0  0  0  0  0
   -0.8600   -0.5000    0.0000 C   0  0  0  0  0  0  0  0  0  0  0  0
    0.4400    1.7500    0.0000 N   0  0  0  0  0  0  0  0  0  0  0  0
    1.7400   -0.5000    0.0000 N   0  0  0  0  0  0  0  0  0  0  0  0
   -2.1589    1.7502    0.0000 O   0  0  0  0  0  0  0  0  0  0  0  0
    0.4400   -2.7500    0.0000 O   0  0  0  0  0  0  0  0  0  0  0  0
    3.0389    1.7502    0.0000 O   0  0  0  0  0  0  0  0  0  0  0  0
  3  1  1  0
  4  2  1  0
  8  3  1  0
  8  4  1  0
  8  5  1  0
  8  6  1  0
  9  5  2  0
  9  7  1  0
 10  6  2  0
 10  7  1  0
 11  5  1  0
 12  6  1  0
 13  7  2  0
M  END
>  <NAME>  (5535) 
BARBITAL

>  <SYNONYMS>  (5535) 


>  <SPECTRUM TYPE>  (5535) 
MS1

>  <INSTRUMENT TYPE>  (5535) 
EI-B

>  <INSTRUMENT>  (5535) 
HITACHI RMU-6D

>  <ION MODE>  (5535) 
P

>  <INCHIKEY>  (5535) 
FTOAOBMCPZCFFF-UHFFFAOYSA-N

>  <FORMULA>  (5535) 
C8H12N2O3

>  <EXACT MASS>  (5535) 
184.084792244

>  <MW>  (5535) 
184

>  <ID>  (5535) 
JP003206

>  <CONTRIBUTOR>  (5535) 
University of Tokyo Team, {Faculty of Engineering, University of Tokyo

>  <COMMENT>  (5535) 
SMILES=CCC(CC)(C(=O)1)C(=O)NC(=O)N1
InChI=InChI=1S/C8H12N2O3/c1-3-8(4-2)5(11)9-7(13)10-6(8)12/h3-4H2,1-2H3,(H2,9,10,11,12,13)
computed SMILES=O=C1N=C(O)C(C(O)=N1)(CC)CC
accession=JP003206
date=2016.01.19 (Created 2008.10.21, modified 2011.05.06)
author=NAKATA H, DEPT. OF CHEMISTRY, AICHI KYOIKU UNIV.
license=CC BY-NC-SA
exact mass=184.08479
ionization energy=70 eV
ion type=[M]+*
computed spectral entropy=2.8998679737719892
computed normalized entropy=0.8900497391439999
SPLASH=splash10-052f-9400000000-fa1289872f9f35015abc
submitter=submitter = University of Tokyo Team (Faculty of Engineering, University of Tokyo)
MoNA Rating=3.75

>  <NUM PEAKS>  (5535) 
26

>  <MASS SPECTRAL PEAKS>  (5535) 
37 6
38 10
39 85
40 16
41 88
42 12
43 15
44 39
52 6
53 26
54 22
55 65
56 12
68 6
69 33
70 27
83 32
85 13
98 30
112 27
141 85
142 6
155 46
156 99.99
157 8
184 7

$$$$

     RDKit          2D

 15 16  0  0  0  0  0  0  0  0999 V2000
   -5.1975   -0.0008    0.0000 C   0  0  0  0  0  0  0  0  0  0  0  0
    3.8974    2.2494    0.0000 C   0  0  0  0  0  0  0  0  0  0  0  0
    2.5977    3.0000    0.0000 C   0  0  0  0  0  0  0  0  0  0  0  0
    3.8981    0.7485    0.0000 C   0  0  0  0  0  0  0  0  0  0  0  0
    1.2988    2.2498    0.0000 C   0  0  0  0  0  0  0  0  0  0  0  0
    2.5992   -0.0017    0.0000 C   0  0  0  0  0  0  0  0  0  0  0  0
    0.0006   -1.5012    0.0000 C   0  0  0  0  0  0  0  0  0  0  0  0
   -2.5994   -1.5012    0.0000 C   0  0  0  0  0  0  0  0  0  0  0  0
    1.2995    0.7490    0.0000 C   0  0  0  0  0  0  0  0  0  0  0  0
   -1.2994   -2.2512    0.0000 C   0  0  0  0  0  0  0  0  0  0  0  0
    0.0006   -0.0012    0.0000 C   0  0  0  0  0  0  0  0  0  0  0  0
   -2.5994   -0.0012    0.0000 C   0  0  0  0  0  0  0  0  0  0  0  0
   -1.2994   -3.7512    0.0000 O   0  0  0  0  0  0  0  0  0  0  0  0
   -3.8983    0.7490    0.0000 O   0  0  0  0  0  0  0  0  0  0  0  0
   -1.2994    0.7488    0.0000 O   0  0  0  0  0  0  0  0  0  0  0  0
  3  2  2  0
  4  2  1  0
  5  3  1  0
  6  4  2  0
  9  5  2  0
  9  6  1  0
 10  7  1  0
 10  8  1  0
 11  7  2  0
 11  9  1  0
 12  8  2  0
 13 10  2  0
 14  1  1  0
 14 12  1  0
 15 11  1  0
 15 12  1  0
M  END
>  <NAME>  (5536) 
2-METHOXY-6-PHENYL-4-PYRONE

>  <SYNONYMS>  (5536) 


>  <SPECTRUM TYPE>  (5536) 
MS1

>  <INSTRUMENT TYPE>  (5536) 
EI-B

>  <INSTRUMENT>  (5536) 
HITACHI RMU-6D

>  <ION MODE>  (5536) 
P

>  <INCHIKEY>  (5536) 
FONPQIXOLUNZEO-UHFFFAOYSA-N

>  <FORMULA>  (5536) 
C12H10O3

>  <EXACT MASS>  (5536) 
202.06299417999998

>  <MW>  (5536) 
202

>  <ID>  (5536) 
JP003205

>  <CONTRIBUTOR>  (5536) 
University of Tokyo Team, {Faculty of Engineering, University of Tokyo

>  <COMMENT>  (5536) 
SMILES=COC(=C2)OC(=CC(=O)2)c(c1)cccc1
InChI=InChI=1S/C12H10O3/c1-14-12-8-10(13)7-11(15-12)9-5-3-2-4-6-9/h2-8H,1H3
computed SMILES=O=C1C=C(OC(=C1)C=2C=CC=CC2)OC
accession=JP003205
date=2016.01.19 (Created 2008.10.21, modified 2011.05.06)
author=NAKATA H, DEPT. OF CHEMISTRY, AICHI KYOIKU UNIV.
license=CC BY-NC-SA
exact mass=202.06299
ionization energy=70 eV
ion type=[M]+*
computed spectral entropy=2.441107725977245
computed normalized entropy=0.8445653121638829
SPLASH=splash10-0udi-6910000000-d4cdda6257f44ce57cd2
submitter=submitter = University of Tokyo Team (Faculty of Engineering, University of Tokyo)
MoNA Rating=3.75

>  <NUM PEAKS>  (5536) 
18

>  <MASS SPECTRAL PEAKS>  (5536) 
41 5
42 8
43 7
49 10
50 16
61 6
69 20
75 6
76 10
77 26
102 99.99
103 11
104 6
131 13
159 15
174 18
202 26
203 4

$$$$

     RDKit          2D

 10 10  0  0  0  0  0  0  0  0999 V2000
   -3.8981    3.0000    0.0000 C   0  0  0  0  0  0  0  0  0  0  0  0
    2.5989    2.2502    0.0000 C   0  0  0  0  0  0  0  0  0  0  0  0
   -2.5992    0.7498    0.0000 C   0  0  0  0  0  0  0  0  0  0  0  0
    0.0008    0.7498    0.0000 C   0  0  0  0  0  0  0  0  0  0  0  0
   -2.5992    2.2498    0.0000 C   0  0  0  0  0  0  0  0  0  0  0  0
   -1.2992   -0.0002    0.0000 C   0  0  0  0  0  0  0  0  0  0  0  0
    0.0008    2.2498    0.0000 C   0  0  0  0  0  0  0  0  0  0  0  0
   -1.2992   -1.5002    0.0000 O   0  0  0  0  0  0  0  0  0  0  0  0
    1.2998    3.0000    0.0000 O   0  0  0  0  0  0  0  0  0  0  0  0
   -1.2992    2.9998    0.0000 O   0  0  0  0  0  0  0  0  0  0  0  0
  5  1  1  0
  5  3  2  0
  6  3  1  0
  6  4  1  0
  7  4  2  0
  8  6  2  0
  9  2  1  0
  9  7  1  0
 10  5  1  0
 10  7  1  0
M  END
>  <NAME>  (5537) 
2-METHOXY-6-METHYL-4-PYRONE

>  <SYNONYMS>  (5537) 


>  <SPECTRUM TYPE>  (5537) 
MS1

>  <INSTRUMENT TYPE>  (5537) 
EI-B

>  <INSTRUMENT>  (5537) 
HITACHI RMU-6D

>  <ION MODE>  (5537) 
P

>  <INCHIKEY>  (5537) 
SGHBBBQKUYEJPS-UHFFFAOYSA-N

>  <FORMULA>  (5537) 
C7H8O3

>  <EXACT MASS>  (5537) 
140.04734411599998

>  <MW>  (5537) 
140

>  <ID>  (5537) 
JP003204

>  <CONTRIBUTOR>  (5537) 
University of Tokyo Team, {Faculty of Engineering, University of Tokyo

>  <COMMENT>  (5537) 
SMILES=COC(=C1)OC(C)=CC(=O)1
InChI=InChI=1S/C7H8O3/c1-5-3-6(8)4-7(9-2)10-5/h3-4H,1-2H3
computed SMILES=O=C1C=C(OC(=C1)C)OC
accession=JP003204
date=2016.01.19 (Created 2008.10.21, modified 2011.05.06)
author=NAKATA H, DEPT. OF CHEMISTRY, AICHI KYOIKU UNIV.
license=CC BY-NC-SA
exact mass=140.04734
ionization energy=70 eV
ion type=[M]+*
computed spectral entropy=2.358378106595398
computed normalized entropy=0.8159428281682379
SPLASH=splash10-00kf-9300000000-62e064ed59778dc803b3
submitter=submitter = University of Tokyo Team (Faculty of Engineering, University of Tokyo)
MoNA Rating=3.75

>  <NUM PEAKS>  (5537) 
18

>  <MASS SPECTRAL PEAKS>  (5537) 
40 9
41 7
42 10
43 34
44 5
53 12
59 14
68 5
69 99.99
70 6
80 5
97 38
98 5
100 14
112 21
125 6
140 63
141 5

$$$$

     RDKit          2D

  9  9  0  0  0  0  0  0  0  0999 V2000
    2.5989    1.5002    0.0000 C   0  0  0  0  0  0  0  0  0  0  0  0
   -2.5989    1.5002    0.0000 C   0  0  0  0  0  0  0  0  0  0  0  0
    1.3000   -0.7500    0.0000 C   0  0  0  0  0  0  0  0  0  0  0  0
   -1.3000   -0.7500    0.0000 C   0  0  0  0  0  0  0  0  0  0  0  0
    1.3000    0.7500    0.0000 C   0  0  0  0  0  0  0  0  0  0  0  0
   -1.3000    0.7500    0.0000 C   0  0  0  0  0  0  0  0  0  0  0  0
   -0.0000    1.5000    0.0000 C   0  0  0  0  0  0  0  0  0  0  0  0
    0.0000    3.0000    0.0000 O   0  0  0  0  0  0  0  0  0  0  0  0
   -0.0000   -1.5000    0.0000 O   0  0  0  0  0  0  0  0  0  0  0  0
  5  1  1  0
  5  3  2  0
  6  2  1  0
  6  4  2  0
  7  5  1  0
  7  6  1  0
  8  7  2  0
  9  3  1  0
  9  4  1  0
M  END
>  <NAME>  (5538) 
3,5-DIMETHYL-4-PYRONE

>  <SYNONYMS>  (5538) 


>  <SPECTRUM TYPE>  (5538) 
MS1

>  <INSTRUMENT TYPE>  (5538) 
EI-B

>  <INSTRUMENT>  (5538) 
HITACHI RMU-6D

>  <ION MODE>  (5538) 
P

>  <INCHIKEY>  (5538) 
TYNBCLRVUQVAEV-UHFFFAOYSA-N

>  <FORMULA>  (5538) 
C7H8O2

>  <EXACT MASS>  (5538) 
124.052429496

>  <MW>  (5538) 
124

>  <ID>  (5538) 
JP003203

>  <CONTRIBUTOR>  (5538) 
University of Tokyo Team, {Faculty of Engineering, University of Tokyo

>  <COMMENT>  (5538) 
SMILES=CC(=C1)C(=O)C(C)=CO1
InChI=InChI=1S/C7H8O2/c1-5-3-9-4-6(2)7(5)8/h3-4H,1-2H3
computed SMILES=O=C1C(=COC=C1C)C
exact mass=124.05243
accession=JP003203
date=2016.01.19 (Created 2008.10.21, modified 2011.05.06)
author=NAKATA H, DEPT. OF CHEMISTRY, AICHI KYOIKU UNIV.
license=CC BY-NC-SA
ionization energy=70 eV
ion type=[M]+*
computed spectral entropy=2.220306265766937
computed normalized entropy=0.7836706933577402
SPLASH=splash10-05fs-9400000000-d485734aac4c142e77e1
submitter=submitter = University of Tokyo Team (Faculty of Engineering, University of Tokyo)
MoNA Rating=3.75

>  <NUM PEAKS>  (5538) 
17

>  <MASS SPECTRAL PEAKS>  (5538) 
41 5
53 7
55 7
56 56
63 5
67 9
68 5
69 7
81 6
83 10
84 13
85 7
94 5
95 40
96 13
124 99.99
125 7

$$$$

     RDKit          2D

  9  9  0  0  0  0  0  0  0  0999 V2000
   -2.5989    3.0000    0.0000 C   0  0  0  0  0  0  0  0  0  0  0  0
    2.5989    3.0000    0.0000 C   0  0  0  0  0  0  0  0  0  0  0  0
   -1.3000    0.7498    0.0000 C   0  0  0  0  0  0  0  0  0  0  0  0
    1.3000    0.7498    0.0000 C   0  0  0  0  0  0  0  0  0  0  0  0
   -1.3000    2.2498    0.0000 C   0  0  0  0  0  0  0  0  0  0  0  0
    1.3000    2.2498    0.0000 C   0  0  0  0  0  0  0  0  0  0  0  0
   -0.0000   -0.0002    0.0000 C   0  0  0  0  0  0  0  0  0  0  0  0
   -0.0000   -1.5002    0.0000 O   0  0  0  0  0  0  0  0  0  0  0  0
   -0.0000    2.9998    0.0000 O   0  0  0  0  0  0  0  0  0  0  0  0
  5  1  1  0
  5  3  2  0
  6  2  1  0
  6  4  2  0
  7  3  1  0
  7  4  1  0
  8  7  2  0
  9  5  1  0
  9  6  1  0
M  END
>  <NAME>  (5539) 
2,6-DIMETHYL-4-PYRONE

>  <SYNONYMS>  (5539) 


>  <SPECTRUM TYPE>  (5539) 
MS1

>  <INSTRUMENT TYPE>  (5539) 
EI-B

>  <INSTRUMENT>  (5539) 
HITACHI RMU-6D

>  <ION MODE>  (5539) 
P

>  <INCHIKEY>  (5539) 
VSYFZULSKMFUJJ-UHFFFAOYSA-N

>  <FORMULA>  (5539) 
C7H8O2

>  <EXACT MASS>  (5539) 
124.052429496

>  <MW>  (5539) 
124

>  <ID>  (5539) 
JP003202

>  <CONTRIBUTOR>  (5539) 
University of Tokyo Team, {Faculty of Engineering, University of Tokyo

>  <COMMENT>  (5539) 
SMILES=CC(=C1)OC(C)=CC(=O)1
InChI=InChI=1S/C7H8O2/c1-5-3-7(8)4-6(2)9-5/h3-4H,1-2H3
computed SMILES=O=C1C=C(OC(=C1)C)C
accession=JP003202
date=2016.01.19 (Created 2008.10.21, modified 2011.05.06)
author=NAKATA H, DEPT. OF CHEMISTRY, AICHI KYOIKU UNIV.
license=CC BY-NC-SA
exact mass=124.05243
ionization energy=70 eV
ion type=[M]+*
computed spectral entropy=2.479550884148903
computed normalized entropy=0.8276944191702701
SPLASH=splash10-00r7-9200000000-6e3ca29a40f0567e60d9
submitter=submitter = University of Tokyo Team (Faculty of Engineering, University of Tokyo)
MoNA Rating=3.75

>  <NUM PEAKS>  (5539) 
20

>  <MASS SPECTRAL PEAKS>  (5539) 
40 6
41 11
42 14
43 99.99
44 7
49 6
51 6
52 5
53 19
54 6
56 9
67 4
69 66
81 35
84 17
85 9
95 45
96 35
124 88
125 6

$$$$

     RDKit          2D

  7  7  0  0  0  0  0  0  0  0999 V2000
   -1.3000    0.7500    0.0000 C   0  0  0  0  0  0  0  0  0  0  0  0
    1.3000    0.7500    0.0000 C   0  0  0  0  0  0  0  0  0  0  0  0
   -1.3000    2.2500    0.0000 C   0  0  0  0  0  0  0  0  0  0  0  0
    1.3000    2.2500    0.0000 C   0  0  0  0  0  0  0  0  0  0  0  0
   -0.0000    0.0000    0.0000 C   0  0  0  0  0  0  0  0  0  0  0  0
   -0.0000   -1.5000    0.0000 O   0  0  0  0  0  0  0  0  0  0  0  0
    0.0000    3.0000    0.0000 O   0  0  0  0  0  0  0  0  0  0  0  0
  3  1  2  0
  4  2  2  0
  5  1  1  0
  5  2  1  0
  6  5  2  0
  7  3  1  0
  7  4  1  0
M  END
>  <NAME>  (5540) 
4-PYRONE

>  <SYNONYMS>  (5540) 


>  <SPECTRUM TYPE>  (5540) 
MS1

>  <INSTRUMENT TYPE>  (5540) 
EI-B

>  <INSTRUMENT>  (5540) 
HITACHI RMU-6D

>  <ION MODE>  (5540) 
P

>  <INCHIKEY>  (5540) 
CVQUWLDCFXOXEN-UHFFFAOYSA-N

>  <FORMULA>  (5540) 
C5H4O2

>  <EXACT MASS>  (5540) 
96.021129368

>  <MW>  (5540) 
96

>  <ID>  (5540) 
JP003201

>  <CONTRIBUTOR>  (5540) 
University of Tokyo Team, {Faculty of Engineering, University of Tokyo

>  <COMMENT>  (5540) 
SMILES=O=C(C=1)C=COC1
InChI=InChI=1S/C5H4O2/c6-5-1-3-7-4-2-5/h1-4H
computed SMILES=O=C1C=COC=C1
accession=JP003201
date=2016.01.19 (Created 2008.10.21, modified 2011.05.06)
author=NAKATA H, DEPT. OF CHEMISTRY, AICHI KYOIKU UNIV.
license=CC BY-NC-SA
exact mass=96.02113
computed normalized entropy=0.7902574656101363
ionization energy=70 eV
ion type=[M]+*
computed spectral entropy=1.9637160313392397
SPLASH=splash10-00kb-9000000000-6e2f49ee28d4adf85bb5
submitter=submitter = University of Tokyo Team (Faculty of Engineering, University of Tokyo)
MoNA Rating=3.75

>  <NUM PEAKS>  (5540) 
12

>  <MASS SPECTRAL PEAKS>  (5540) 
40 8
41 6
42 37
44 6
50 5
53 7
68 25
69 50
70 40
71 5
96 99.99
97 5

$$$$

     RDKit          2D

 12 12  0  0  0  0  0  0  0  0999 V2000
    3.8976    3.7504    0.0000 C   0  0  0  0  0  0  0  0  0  0  0  0
   -1.3000    0.7500    0.0000 C   0  0  0  0  0  0  0  0  0  0  0  0
   -0.0000    1.5000    0.0000 C   0  0  0  0  0  0  0  0  0  0  0  0
   -0.0000   -1.5000    0.0000 C   0  0  0  0  0  0  0  0  0  0  0  0
   -1.3000   -0.7500    0.0000 C   0  0  0  0  0  0  0  0  0  0  0  0
    1.3000    0.7500    0.0000 C   0  0  0  0  0  0  0  0  0  0  0  0
    1.3000   -0.7500    0.0000 C   0  0  0  0  0  0  0  0  0  0  0  0
    2.5989    1.5002    0.0000 C   0  0  0  0  0  0  0  0  0  0  0  0
   -2.5989   -1.5002    0.0000 N   0  0  0  0  0  0  0  0  0  0  0  0
    2.5989   -1.5002    0.0000 O   0  0  0  0  0  0  0  0  0  0  0  0
    3.8981    0.7504    0.0000 O   0  0  0  0  0  0  0  0  0  0  0  0
    2.5987    3.0002    0.0000 O   0  0  0  0  0  0  0  0  0  0  0  0
  3  2  2  0
  5  2  1  0
  5  4  2  0
  6  3  1  0
  7  4  1  0
  7  6  2  0
  8  6  1  0
  9  5  1  0
 10  7  1  0
 11  8  2  0
 12  1  1  0
 12  8  1  0
M  END
>  <NAME>  (5541) 
METHYL P-AMINOSALICYLATE

>  <SYNONYMS>  (5541) 


>  <SPECTRUM TYPE>  (5541) 
MS1

>  <INSTRUMENT TYPE>  (5541) 
EI-B

>  <INSTRUMENT>  (5541) 
HITACHI RMU-6D

>  <ION MODE>  (5541) 
P

>  <INCHIKEY>  (5541) 
QQOXBFUTRLDXDP-UHFFFAOYSA-N

>  <FORMULA>  (5541) 
C8H9NO3

>  <EXACT MASS>  (5541) 
167.058243148

>  <MW>  (5541) 
167

>  <ID>  (5541) 
JP003200

>  <CONTRIBUTOR>  (5541) 
University of Tokyo Team, {Faculty of Engineering, University of Tokyo

>  <COMMENT>  (5541) 
SMILES=COC(=O)c(c1)c(O)cc(N)c1
InChI=InChI=1S/C8H9NO3/c1-12-8(11)6-3-2-5(9)4-7(6)10/h2-4,10H,9H2,1H3
computed SMILES=O=C(OC)C1=CC=C(N)C=C1O
accession=JP003200
date=2016.01.19 (Created 2008.10.21, modified 2011.05.06)
author=NAKATA H, DEPT. OF CHEMISTRY, AICHI KYOIKU UNIV.
license=CC BY-NC-SA
exact mass=167.05824
ionization energy=70 eV
ion type=[M]+*
computed spectral entropy=2.2215116663624155
computed normalized entropy=0.8203362203027967
SPLASH=splash10-000i-3900000000-130c2a52982dda9e74a7
submitter=submitter = University of Tokyo Team (Faculty of Engineering, University of Tokyo)
MoNA Rating=3.75

>  <NUM PEAKS>  (5541) 
15

>  <MASS SPECTRAL PEAKS>  (5541) 
39 5
51 7
52 12
53 10
68 8
78 7.5
79 38
80 16
107 42
108 6
135 99.99
136 46
137 5
167 67
168 7

$$$$

     RDKit          2D

 11 11  0  0  0  0  0  0  0  0999 V2000
   -5.1970    1.5006    0.0000 C   0  0  0  0  0  0  0  0  0  0  0  0
   -1.3000   -0.7500    0.0000 C   0  0  0  0  0  0  0  0  0  0  0  0
    0.0000    1.5000    0.0000 C   0  0  0  0  0  0  0  0  0  0  0  0
    0.0000   -1.5000    0.0000 C   0  0  0  0  0  0  0  0  0  0  0  0
    1.3000    0.7500    0.0000 C   0  0  0  0  0  0  0  0  0  0  0  0
   -1.3000    0.7500    0.0000 C   0  0  0  0  0  0  0  0  0  0  0  0
    1.3000   -0.7500    0.0000 C   0  0  0  0  0  0  0  0  0  0  0  0
   -2.5989    1.5002    0.0000 C   0  0  0  0  0  0  0  0  0  0  0  0
    2.5989   -1.5002    0.0000 N   0  0  0  0  0  0  0  0  0  0  0  0
   -2.5987    3.0002    0.0000 O   0  0  0  0  0  0  0  0  0  0  0  0
   -3.8981    0.7504    0.0000 O   0  0  0  0  0  0  0  0  0  0  0  0
  4  2  2  0
  5  3  1  0
  6  2  1  0
  6  3  2  0
  7  4  1  0
  7  5  2  0
  8  6  1  0
  9  7  1  0
 10  8  2  0
 11  1  1  0
 11  8  1  0
M  END
>  <NAME>  (5542) 
METHYL P-AMINOBENZOATE

>  <SYNONYMS>  (5542) 


>  <SPECTRUM TYPE>  (5542) 
MS1

>  <INSTRUMENT TYPE>  (5542) 
EI-B

>  <INSTRUMENT>  (5542) 
HITACHI RMU-6D

>  <ION MODE>  (5542) 
P

>  <INCHIKEY>  (5542) 
LZXXNPOYQCLXRS-UHFFFAOYSA-N

>  <FORMULA>  (5542) 
C8H9NO2

>  <EXACT MASS>  (5542) 
151.063328528

>  <MW>  (5542) 
151

>  <ID>  (5542) 
JP003199

>  <CONTRIBUTOR>  (5542) 
University of Tokyo Team, {Faculty of Engineering, University of Tokyo

>  <COMMENT>  (5542) 
SMILES=COC(=O)c(c1)ccc(N)c1
InChI=InChI=1S/C8H9NO2/c1-11-8(10)6-2-4-7(9)5-3-6/h2-5H,9H2,1H3
computed SMILES=O=C(OC)C1=CC=C(N)C=C1
accession=JP003199
date=2016.01.19 (Created 2008.10.21, modified 2011.05.06)
author=NAKATA H, DEPT. OF CHEMISTRY, AICHI KYOIKU UNIV.
license=CC BY-NC-SA
exact mass=151.06333
ionization energy=70 eV
ion type=[M]+*
computed spectral entropy=2.1549017907723074
computed normalized entropy=0.8165422427888163
SPLASH=splash10-00di-7900000000-fa73e120c2e34b25ef59
submitter=submitter = University of Tokyo Team (Faculty of Engineering, University of Tokyo)
MoNA Rating=3.75

>  <NUM PEAKS>  (5542) 
14

>  <MASS SPECTRAL PEAKS>  (5542) 
28 11
38 7
39 21
41 8
52 8
63 7
64 6
65 38
91 6
92 32
120 99.99
121 10
151 52
152 7

$$$$

     RDKit          2D

 12 12  0  0  0  0  0  0  0  0999 V2000
   -6.4962    0.7508    0.0000 C   0  0  0  0  0  0  0  0  0  0  0  0
   -5.1970    1.5006    0.0000 C   0  0  0  0  0  0  0  0  0  0  0  0
   -1.3000   -0.7500    0.0000 C   0  0  0  0  0  0  0  0  0  0  0  0
    0.0000    1.5000    0.0000 C   0  0  0  0  0  0  0  0  0  0  0  0
    0.0000   -1.5000    0.0000 C   0  0  0  0  0  0  0  0  0  0  0  0
    1.3000    0.7500    0.0000 C   0  0  0  0  0  0  0  0  0  0  0  0
   -1.3000    0.7500    0.0000 C   0  0  0  0  0  0  0  0  0  0  0  0
    1.3000   -0.7500    0.0000 C   0  0  0  0  0  0  0  0  0  0  0  0
   -2.5989    1.5002    0.0000 C   0  0  0  0  0  0  0  0  0  0  0  0
    2.5989   -1.5002    0.0000 N   0  0  0  0  0  0  0  0  0  0  0  0
   -2.5987    3.0002    0.0000 O   0  0  0  0  0  0  0  0  0  0  0  0
   -3.8981    0.7504    0.0000 O   0  0  0  0  0  0  0  0  0  0  0  0
  2  1  1  0
  5  3  2  0
  6  4  1  0
  7  3  1  0
  7  4  2  0
  8  5  1  0
  8  6  2  0
  9  7  1  0
 10  8  1  0
 11  9  2  0
 12  2  1  0
 12  9  1  0
M  END
>  <NAME>  (5543) 
ETHYL P-AMINOBENZOATE

>  <SYNONYMS>  (5543) 


>  <SPECTRUM TYPE>  (5543) 
MS1

>  <INSTRUMENT TYPE>  (5543) 
EI-B

>  <INSTRUMENT>  (5543) 
HITACHI RMU-6D

>  <ION MODE>  (5543) 
P

>  <INCHIKEY>  (5543) 
BLFLLBZGZJTVJG-UHFFFAOYSA-N

>  <FORMULA>  (5543) 
C9H11NO2

>  <EXACT MASS>  (5543) 
165.078978592

>  <MW>  (5543) 
165

>  <ID>  (5543) 
JP003198

>  <CONTRIBUTOR>  (5543) 
University of Tokyo Team, {Faculty of Engineering, University of Tokyo

>  <COMMENT>  (5543) 
SMILES=CCOC(=O)c(c1)ccc(N)c1
InChI=InChI=1S/C9H11NO2/c1-2-12-9(11)7-3-5-8(10)6-4-7/h3-6H,2,10H2,1H3
computed SMILES=O=C(OCC)C1=CC=C(N)C=C1
accession=JP003198
date=2016.01.19 (Created 2008.10.21, modified 2011.05.06)
author=NAKATA H, DEPT. OF CHEMISTRY, AICHI KYOIKU UNIV.
license=CC BY-NC-SA
exact mass=165.07898
ionization energy=70 eV
ion type=[M]+*
computed spectral entropy=2.917645371646314
computed normalized entropy=0.8852517555529041
SPLASH=splash10-0109-9400000000-c755b4e5336a2867357e
submitter=submitter = University of Tokyo Team (Faculty of Engineering, University of Tokyo)
MoNA Rating=3.75

>  <NUM PEAKS>  (5543) 
27

>  <MASS SPECTRAL PEAKS>  (5543) 
26 13
27 35
28 20
29 31
30 7
37 7
38 11
39 33
40 11
41 15
52 12
62 8
63 20
64 14
65 64
66 13
91 7
92 44
93 10
119 5
120 99.99
121 13
122 4
137 20
138 4
165 22
166 4

$$$$

     RDKit          2D

  9  9  0  0  0  0  0  0  0  0999 V2000
    2.2733   -0.6175    0.0000 C   0  0  0  0  0  0  0  0  0  0  0  0
    2.2738    0.8833    0.0000 C   0  0  0  0  0  0  0  0  0  0  0  0
    0.9738   -1.3683    0.0000 C   0  0  0  0  0  0  0  0  0  0  0  0
    0.9748    1.6333    0.0000 C   0  0  0  0  0  0  0  0  0  0  0  0
   -0.3252   -0.6183    0.0000 C   0  0  0  0  0  0  0  0  0  0  0  0
   -0.3248    0.8825    0.0000 C   0  0  0  0  0  0  0  0  0  0  0  0
   -1.6238    1.6325    0.0000 C   0  0  0  0  0  0  0  0  0  0  0  0
   -1.6238    3.1325    0.0000 O   0  0  0  0  0  0  0  0  0  0  0  0
   -2.9228    0.8825    0.0000 O   0  0  0  0  0  0  0  0  0  0  0  0
  2  1  2  0
  3  1  1  0
  4  2  1  0
  5  3  2  0
  6  4  2  0
  6  5  1  0
  7  6  1  0
  8  7  2  0
  9  7  1  0
M  END
>  <NAME>  (5544) 
BENZOIC ACID

>  <SYNONYMS>  (5544) 


>  <SPECTRUM TYPE>  (5544) 
MS1

>  <INSTRUMENT TYPE>  (5544) 
EI-B

>  <INSTRUMENT>  (5544) 
HITACHI RMU-7

>  <ION MODE>  (5544) 
P

>  <INCHIKEY>  (5544) 
WPYMKLBDIGXBTP-UHFFFAOYSA-N

>  <FORMULA>  (5544) 
C7H6O2

>  <EXACT MASS>  (5544) 
122.036779432

>  <MW>  (5544) 
122

>  <ID>  (5544) 
JP003197

>  <CONTRIBUTOR>  (5544) 
University of Tokyo Team, {Faculty of Engineering, University of Tokyo

>  <COMMENT>  (5544) 
SMILES=OC(=O)c(c1)cccc1
InChI=InChI=1S/C7H6O2/c8-7(9)6-4-2-1-3-5-6/h1-5H,(H,8,9)
computed SMILES=O=C(O)C=1C=CC=CC1
accession=JP003197
date=2016.01.19 (Created 2008.10.21, modified 2011.05.06)
author=MASS SPECTROSCOPY SOC. OF JAPAN (MSSJ)
license=CC BY-NC-SA
exact mass=122.03678
ionization energy=70 eV
ion type=[M]+*
computed spectral entropy=1.9504447314673434
computed normalized entropy=0.8133986307046481
SPLASH=splash10-05i0-6900000000-fa50606b2e84fc4cefe9
submitter=submitter = University of Tokyo Team (Faculty of Engineering, University of Tokyo)
MoNA Rating=3.75

>  <NUM PEAKS>  (5544) 
11

>  <MASS SPECTRAL PEAKS>  (5544) 
50 20
51 33
52 6
76 9
77 72
78 8
105 99.99
106 9
121 12
122 85
123 13

$$$$

     RDKit          2D

 12 12  0  0  0  0  0  0  0  0999 V2000
   -3.9015    3.0051    0.0000 C   0  0  0  0  0  0  0  0  0  0  0  0
   -2.5987    3.7487    0.0000 C   0  0  0  0  0  0  0  0  0  0  0  0
    2.5937    3.7296    0.0000 C   0  0  0  0  0  0  0  0  0  0  0  0
    1.2801    1.5047    0.0000 C   0  0  0  0  0  0  0  0  0  0  0  0
    3.8782    3.0047    0.0000 C   0  0  0  0  0  0  0  0  0  0  0  0
    2.6046    0.7106    0.0000 C   0  0  0  0  0  0  0  0  0  0  0  0
    1.2946    2.9796    0.0000 C   0  0  0  0  0  0  0  0  0  0  0  0
    3.9037    1.4606    0.0000 C   0  0  0  0  0  0  0  0  0  0  0  0
   -0.0007    3.7360    0.0000 C   0  0  0  0  0  0  0  0  0  0  0  0
    5.2088    0.7213    0.0000 O   0  0  0  0  0  0  0  0  0  0  0  0
    0.0067    5.2359    0.0000 O   0  0  0  0  0  0  0  0  0  0  0  0
   -1.3034    2.9924    0.0000 O   0  0  0  0  0  0  0  0  0  0  0  0
  2  1  1  0
  5  3  2  0
  6  4  1  0
  7  3  1  0
  7  4  2  0
  8  5  1  0
  8  6  2  0
  9  7  1  0
 10  8  1  0
 11  9  2  0
 12  2  1  0
 12  9  1  0
M  END
>  <NAME>  (5545) 
ETHYL P-HYDROXYBENZOATE

>  <SYNONYMS>  (5545) 


>  <SPECTRUM TYPE>  (5545) 
MS1

>  <INSTRUMENT TYPE>  (5545) 
EI-B

>  <INSTRUMENT>  (5545) 
HITACHI RMU-7

>  <ION MODE>  (5545) 
P

>  <INCHIKEY>  (5545) 
NUVBSKCKDOMJSU-UHFFFAOYSA-N

>  <FORMULA>  (5545) 
C9H10O3

>  <EXACT MASS>  (5545) 
166.06299417999998

>  <MW>  (5545) 
166

>  <ID>  (5545) 
JP003196

>  <CONTRIBUTOR>  (5545) 
University of Tokyo Team, {Faculty of Engineering, University of Tokyo

>  <COMMENT>  (5545) 
SMILES=CCOC(=O)c(c1)ccc(O)c1
InChI=InChI=1S/C9H10O3/c1-2-12-9(11)7-3-5-8(10)6-4-7/h3-6,10H,2H2,1H3
computed SMILES=O=C(OCC)C1=CC=C(O)C=C1
accession=JP003196
date=2016.01.19 (Created 2008.10.21, modified 2011.05.06)
author=MASS SPECTROSCOPY SOC. OF JAPAN (MSSJ)
license=CC BY-NC-SA
exact mass=166.06299
ionization energy=70 eV
ion type=[M]+*
computed spectral entropy=1.9288455900473183
computed normalized entropy=0.8376869962009721
SPLASH=splash10-00y0-3900000000-c1ca8c4a3e26621c8959
submitter=submitter = University of Tokyo Team (Faculty of Engineering, University of Tokyo)
MoNA Rating=3.75

>  <NUM PEAKS>  (5545) 
10

>  <MASS SPECTRAL PEAKS>  (5545) 
39 20
63 7
65 26
93 28
120 6
121 99.99
122 9
138 35
166 43
167 7

$$$$

     RDKit          2D

  7  7  0  0  0  0  0  0  0  0999 V2000
   -0.0000    1.5000    0.0000 C   0  0  0  0  0  0  0  0  0  0  0  0
   -1.3000    0.7500    0.0000 C   0  0  0  0  0  0  0  0  0  0  0  0
    1.3000    0.7500    0.0000 C   0  0  0  0  0  0  0  0  0  0  0  0
   -1.3000   -0.7500    0.0000 C   0  0  0  0  0  0  0  0  0  0  0  0
    1.3000   -0.7500    0.0000 C   0  0  0  0  0  0  0  0  0  0  0  0
    2.5989   -1.5002    0.0000 N   0  0  0  0  0  0  0  0  0  0  0  0
   -0.0000   -1.5000    0.0000 N   0  0  0  0  0  0  0  0  0  0  0  0
  2  1  2  0
  3  1  1  0
  4  2  1  0
  5  3  2  0
  6  5  1  0
  7  4  2  0
  7  5  1  0
M  END
>  <NAME>  (5546) 
2-AMINOPYRIDINE

>  <SYNONYMS>  (5546) 


>  <SPECTRUM TYPE>  (5546) 
MS1

>  <INSTRUMENT TYPE>  (5546) 
EI-B

>  <INSTRUMENT>  (5546) 
HITACHI RMU-7

>  <ION MODE>  (5546) 
P

>  <INCHIKEY>  (5546) 
ICSNLGPSRYBMBD-UHFFFAOYSA-N

>  <FORMULA>  (5546) 
C5H6N2

>  <EXACT MASS>  (5546) 
94.053098192

>  <MW>  (5546) 
94

>  <ID>  (5546) 
JP003195

>  <CONTRIBUTOR>  (5546) 
University of Tokyo Team, {Faculty of Engineering, University of Tokyo

>  <COMMENT>  (5546) 
SMILES=Nc(c1)nccc1
InChI=InChI=1S/C5H6N2/c6-5-3-1-2-4-7-5/h1-4H,(H2,6,7)
computed SMILES=N=1C=CC=CC1N
accession=JP003195
date=2016.01.19 (Created 2008.10.21, modified 2011.05.06)
author=MASS SPECTROSCOPY SOC. OF JAPAN (MSSJ)
license=CC BY-NC-SA
exact mass=94.0531
ionization energy=70 eV
ion type=[M]+*
computed spectral entropy=1.8129212789296691
computed normalized entropy=0.756046896415943
SPLASH=splash10-00kf-9000000000-ce51f73efc453a9c7adf
submitter=submitter = University of Tokyo Team (Faculty of Engineering, University of Tokyo)
MoNA Rating=3.75

>  <NUM PEAKS>  (5546) 
11

>  <MASS SPECTRAL PEAKS>  (5546) 
38 6
39 12
40 9
41 17
51 8
66 13
67 61
68 5
93 6
94 99.99
95 9

$$$$

     RDKit          2D

 12 12  0  0  0  0  0  0  0  0999 V2000
   -6.4962    0.7508    0.0000 C   0  0  0  0  0  0  0  0  0  0  0  0
   -5.1970    1.5006    0.0000 C   0  0  0  0  0  0  0  0  0  0  0  0
   -1.3000   -0.7500    0.0000 C   0  0  0  0  0  0  0  0  0  0  0  0
    0.0000    1.5000    0.0000 C   0  0  0  0  0  0  0  0  0  0  0  0
    0.0000   -1.5000    0.0000 C   0  0  0  0  0  0  0  0  0  0  0  0
    1.3000    0.7500    0.0000 C   0  0  0  0  0  0  0  0  0  0  0  0
   -1.3000    0.7500    0.0000 C   0  0  0  0  0  0  0  0  0  0  0  0
    1.3000   -0.7500    0.0000 C   0  0  0  0  0  0  0  0  0  0  0  0
   -2.5989    1.5002    0.0000 C   0  0  0  0  0  0  0  0  0  0  0  0
    2.5989   -1.5002    0.0000 N   0  0  0  0  0  0  0  0  0  0  0  0
   -2.5987    3.0002    0.0000 O   0  0  0  0  0  0  0  0  0  0  0  0
   -3.8981    0.7504    0.0000 O   0  0  0  0  0  0  0  0  0  0  0  0
  2  1  1  0
  5  3  2  0
  6  4  1  0
  7  3  1  0
  7  4  2  0
  8  5  1  0
  8  6  2  0
  9  7  1  0
 10  8  1  0
 11  9  2  0
 12  2  1  0
 12  9  1  0
M  END
>  <NAME>  (5547) 
ETHYL P-AMINOBENZOATE

>  <SYNONYMS>  (5547) 


>  <SPECTRUM TYPE>  (5547) 
MS1

>  <INSTRUMENT TYPE>  (5547) 
EI-B

>  <INSTRUMENT>  (5547) 
HITACHI RMU-7

>  <ION MODE>  (5547) 
P

>  <INCHIKEY>  (5547) 
BLFLLBZGZJTVJG-UHFFFAOYSA-N

>  <FORMULA>  (5547) 
C9H11NO2

>  <EXACT MASS>  (5547) 
165.078978592

>  <MW>  (5547) 
165

>  <ID>  (5547) 
JP003194

>  <CONTRIBUTOR>  (5547) 
University of Tokyo Team, {Faculty of Engineering, University of Tokyo

>  <COMMENT>  (5547) 
SMILES=CCOC(=O)c(c1)ccc(N)c1
InChI=InChI=1S/C9H11NO2/c1-2-12-9(11)7-3-5-8(10)6-4-7/h3-6H,2,10H2,1H3
computed SMILES=O=C(OCC)C1=CC=C(N)C=C1
accession=JP003194
date=2016.01.19 (Created 2008.10.21, modified 2011.05.06)
author=MASS SPECTROSCOPY SOC. OF JAPAN (MSSJ)
license=CC BY-NC-SA
exact mass=165.07898
ionization energy=70 eV
ion type=[M]+*
computed spectral entropy=2.8611832423242043
computed normalized entropy=0.8888765513162837
SPLASH=splash10-0109-9400000000-8e31c925b871e0f0299e
submitter=submitter = University of Tokyo Team (Faculty of Engineering, University of Tokyo)
MoNA Rating=3.75

>  <NUM PEAKS>  (5547) 
25

>  <MASS SPECTRAL PEAKS>  (5547) 
26 12
27 34
28 20
29 30
30 7
37 8
38 10
39 31
40 10
41 14
52 11
62 8
63 19
64 13
65 63
66 12
91 7
92 44
93 9
119 6
120 99.99
121 12
137 20
165 24
166 3

$$$$

     RDKit          2D

 29 32  0  0  0  0  0  0  0  0999 V2000
    9.9749    3.4635    0.0000 C   0  0  0  0  0  0  0  0  0  0  0  0
  -12.8281    0.4635    0.0000 C   0  0  0  0  0  0  0  0  0  0  0  0
    8.6759    2.7135    0.0000 C   0  0  0  0  0  0  0  0  0  0  0  0
  -11.5291    1.2135    0.0000 C   0  0  0  0  0  0  0  0  0  0  0  0
    7.3769    3.4635    0.0000 C   0  0  0  0  0  0  0  0  0  0  0  0
  -10.2300    0.4635    0.0000 C   0  0  0  0  0  0  0  0  0  0  0  0
    6.0778    2.7135    0.0000 C   0  0  0  0  0  0  0  0  0  0  0  0
   -8.9310    1.2135    0.0000 C   0  0  0  0  0  0  0  0  0  0  0  0
    3.4798    1.2135    0.0000 C   0  0  0  0  0  0  0  0  0  0  0  0
   -6.3329    2.7135    0.0000 C   0  0  0  0  0  0  0  0  0  0  0  0
    2.1807    0.4635    0.0000 C   0  0  0  0  0  0  0  0  0  0  0  0
   -5.0339    3.4635    0.0000 C   0  0  0  0  0  0  0  0  0  0  0  0
    2.1807    3.4635    0.0000 C   0  0  0  0  0  0  0  0  0  0  0  0
   -5.0339    0.4635    0.0000 C   0  0  0  0  0  0  0  0  0  0  0  0
   -0.5449    0.7500    0.0000 C   0  0  0  0  0  0  0  0  0  0  0  0
   -2.3083    3.1771    0.0000 C   0  0  0  0  0  0  0  0  0  0  0  0
   -0.5449    3.1771    0.0000 C   0  0  0  0  0  0  0  0  0  0  0  0
   -2.3083    0.7500    0.0000 C   0  0  0  0  0  0  0  0  0  0  0  0
    3.4798    2.7135    0.0000 C   0  0  0  0  0  0  0  0  0  0  0  0
   -6.3329    1.2135    0.0000 C   0  0  0  0  0  0  0  0  0  0  0  0
    0.8817    1.2135    0.0000 C   0  0  0  0  0  0  0  0  0  0  0  0
   -3.7348    2.7135    0.0000 C   0  0  0  0  0  0  0  0  0  0  0  0
    0.8817    2.7135    0.0000 C   0  0  0  0  0  0  0  0  0  0  0  0
   -3.7348    1.2135    0.0000 C   0  0  0  0  0  0  0  0  0  0  0  0
    4.7788    3.4635    0.0000 C   0  0  0  0  0  0  0  0  0  0  0  0
   -7.6320    0.4635    0.0000 C   0  0  0  0  0  0  0  0  0  0  0  0
   -1.4266    1.9635    0.0000 C   0  0  0  0  0  0  0  0  0  0  0  0
    4.7788    4.9635    0.0000 O   0  0  0  0  0  0  0  0  0  0  0  0
   -7.6320   -1.0365    0.0000 O   0  0  0  0  0  0  0  0  0  0  0  0
  3  1  1  0
  4  2  1  0
  5  3  1  0
  6  4  1  0
  7  5  1  0
  8  6  1  0
 11  9  2  0
 12 10  2  0
 19  9  1  0
 19 13  2  0
 20 10  1  0
 20 14  2  0
 21 11  1  0
 21 15  1  0
 22 12  1  0
 22 16  1  0
 23 13  1  0
 23 17  1  0
 23 21  2  0
 24 14  1  0
 24 18  1  0
 24 22  2  0
 25  7  1  0
 25 19  1  0
 26  8  1  0
 26 20  1  0
 27 15  1  0
 27 16  1  0
 27 17  1  0
 27 18  1  0
 28 25  2  0
 29 26  2  0
M  END
>  <NAME>  (5548) 
5,5'-DIVALERYL-2,2'-SPIROBIINDAN

>  <SYNONYMS>  (5548) 


>  <SPECTRUM TYPE>  (5548) 
MS1

>  <INSTRUMENT TYPE>  (5548) 
EI-B

>  <INSTRUMENT>  (5548) 
HITACHI RMU-7

>  <ION MODE>  (5548) 
P

>  <INCHIKEY>  (5548) 
MWGQFSREBUQPGD-UHFFFAOYSA-N

>  <FORMULA>  (5548) 
C27H32O2

>  <EXACT MASS>  (5548) 
388.240230264

>  <MW>  (5548) 
388

>  <ID>  (5548) 
JP003193

>  <CONTRIBUTOR>  (5548) 
University of Tokyo Team, {Faculty of Engineering, University of Tokyo

>  <COMMENT>  (5548) 
SMILES=c(c41)cc(cc(CC(C4)(C2)Cc(c3)c(ccc3C(=O)CCCC)2)1)C(=O)CCCC
InChI=InChI=1S/C27H32O2/c1-3-5-7-25(28)19-9-11-21-15-27(17-23(21)13-19)16-22-12-10-20(14-24(22)18-27)26(29)8-6-4-2/h9-14H,3-8,15-18H2,1-2H3
computed SMILES=O=C(C1=CC=C2C(=C1)CC3(C2)CC4=CC=C(C=C4C3)C(=O)CCCC)CCCC
accession=JP003193
date=2016.01.19 (Created 2008.10.21, modified 2011.05.06)
author=MASS SPECTROSCOPY SOC. OF JAPAN (MSSJ)
license=CC BY-NC-SA
exact mass=388.24023
ionization energy=70 eV
ion type=[M]+*
computed spectral entropy=3.0624355865998862
computed normalized entropy=0.8684408656523364
SPLASH=splash10-001i-3219000000-da23e35199d6eece4a40
submitter=submitter = University of Tokyo Team (Faculty of Engineering, University of Tokyo)
MoNA Rating=3.75

>  <NUM PEAKS>  (5548) 
34

>  <MASS SPECTRAL PEAKS>  (5548) 
41 8.3
43 11
55 11.3
57 16.9
69 7.7
71 7.8
77 4.6
81 4.8
83 7.2
85 5.1
95 5.2
97 6.2
103 13.1
109 4.5
123 5.5
131 5.4
137 18.9
141 4.9
144.5 7.6
149 4.8
152 7.1
246 18.6
247 4.3
289 21.4
290 4.5
304 39.4
305 8.8
331 99.99
332 26.1
333 3.7
346 25.1
347 6.3
388 16.6
389 4.8

$$$$

     RDKit          2D

 12 12  0  0  0  0  0  0  0  0999 V2000
   -4.8712    2.0071    0.0000 C   0  0  0  0  0  0  0  0  0  0  0  0
   -3.5721    4.2571    0.0000 C   0  0  0  0  0  0  0  0  0  0  0  0
    2.9231    0.5071    0.0000 C   0  0  0  0  0  0  0  0  0  0  0  0
    2.9236    2.0079    0.0000 C   0  0  0  0  0  0  0  0  0  0  0  0
    1.6236   -0.2437    0.0000 C   0  0  0  0  0  0  0  0  0  0  0  0
    1.6245    2.7579    0.0000 C   0  0  0  0  0  0  0  0  0  0  0  0
    0.3245    0.5063    0.0000 C   0  0  0  0  0  0  0  0  0  0  0  0
   -3.5721    2.7571    0.0000 C   0  0  0  0  0  0  0  0  0  0  0  0
    0.3250    2.0071    0.0000 C   0  0  0  0  0  0  0  0  0  0  0  0
   -0.9740    2.7571    0.0000 C   0  0  0  0  0  0  0  0  0  0  0  0
   -0.9740    4.2571    0.0000 O   0  0  0  0  0  0  0  0  0  0  0  0
   -2.2731    2.0071    0.0000 O   0  0  0  0  0  0  0  0  0  0  0  0
  4  3  2  0
  5  3  1  0
  6  4  1  0
  7  5  2  0
  8  1  1  0
  8  2  1  0
  9  6  2  0
  9  7  1  0
 10  9  1  0
 11 10  2  0
 12  8  1  0
 12 10  1  0
M  END
>  <NAME>  (5549) 
ISOPROPYL BENZOATE

>  <SYNONYMS>  (5549) 


>  <SPECTRUM TYPE>  (5549) 
MS1

>  <INSTRUMENT TYPE>  (5549) 
EI-B

>  <INSTRUMENT>  (5549) 
HITACHI RMU-7L

>  <ION MODE>  (5549) 
P

>  <INCHIKEY>  (5549) 
FEXQDZTYJVXMOS-UHFFFAOYSA-N

>  <FORMULA>  (5549) 
C10H12O2

>  <EXACT MASS>  (5549) 
164.083729624

>  <MW>  (5549) 
164

>  <ID>  (5549) 
JP003145

>  <CONTRIBUTOR>  (5549) 
University of Tokyo Team, {Faculty of Engineering, University of Tokyo

>  <COMMENT>  (5549) 
SMILES=CC(C)OC(=O)c(c1)cccc1
InChI=InChI=1S/C10H12O2/c1-8(2)12-10(11)9-6-4-3-5-7-9/h3-8H,1-2H3
computed SMILES=O=C(OC(C)C)C=1C=CC=CC1
accession=JP003145
date=2016.01.19 (Created 2008.10.21, modified 2011.05.06)
author=NAKAYAMA M, MASS SPECTROSCOPY SOC. OF JAPAN (MSSJ)
license=CC BY-NC-SA
exact mass=164.08373
ionization energy=70 eV
ion type=[M]+*
computed spectral entropy=1.6057426096252554
computed normalized entropy=0.8251884653588965
SPLASH=splash10-0a4i-5900000000-850387a8ba4df804ae7d
submitter=submitter = University of Tokyo Team (Faculty of Engineering, University of Tokyo)
MoNA Rating=3.75

>  <NUM PEAKS>  (5549) 
7

>  <MASS SPECTRAL PEAKS>  (5549) 
51 23
57 30
77 37
105 99.99
106 7
123 24
164 7

$$$$

     RDKit          2D

 12 12  0  0  0  0  0  0  0  0999 V2000
   -5.5207    3.1321    0.0000 C   0  0  0  0  0  0  0  0  0  0  0  0
   -4.2216    2.3821    0.0000 C   0  0  0  0  0  0  0  0  0  0  0  0
    3.5726    0.8821    0.0000 C   0  0  0  0  0  0  0  0  0  0  0  0
    3.5731    2.3829    0.0000 C   0  0  0  0  0  0  0  0  0  0  0  0
    2.2731    0.1313    0.0000 C   0  0  0  0  0  0  0  0  0  0  0  0
    2.2740    3.1329    0.0000 C   0  0  0  0  0  0  0  0  0  0  0  0
    0.9740    0.8813    0.0000 C   0  0  0  0  0  0  0  0  0  0  0  0
   -2.9226    3.1321    0.0000 C   0  0  0  0  0  0  0  0  0  0  0  0
    0.9745    2.3821    0.0000 C   0  0  0  0  0  0  0  0  0  0  0  0
   -0.3245    3.1321    0.0000 C   0  0  0  0  0  0  0  0  0  0  0  0
   -0.3245    4.6321    0.0000 O   0  0  0  0  0  0  0  0  0  0  0  0
   -1.6236    2.3821    0.0000 O   0  0  0  0  0  0  0  0  0  0  0  0
  2  1  1  0
  4  3  2  0
  5  3  1  0
  6  4  1  0
  7  5  2  0
  8  2  1  0
  9  6  2  0
  9  7  1  0
 10  9  1  0
 11 10  2  0
 12  8  1  0
 12 10  1  0
M  END
>  <NAME>  (5550) 
N-PROPYL BENZOATE

>  <SYNONYMS>  (5550) 


>  <SPECTRUM TYPE>  (5550) 
MS1

>  <INSTRUMENT TYPE>  (5550) 
EI-B

>  <INSTRUMENT>  (5550) 
HITACHI RMU-7L

>  <ION MODE>  (5550) 
P

>  <INCHIKEY>  (5550) 
UDEWPOVQBGFNGE-UHFFFAOYSA-N

>  <FORMULA>  (5550) 
C10H12O2

>  <EXACT MASS>  (5550) 
164.083729624

>  <MW>  (5550) 
164

>  <ID>  (5550) 
JP003144

>  <CONTRIBUTOR>  (5550) 
University of Tokyo Team, {Faculty of Engineering, University of Tokyo

>  <COMMENT>  (5550) 
SMILES=CCCOC(=O)c(c1)cccc1
InChI=InChI=1S/C10H12O2/c1-2-8-12-10(11)9-6-4-3-5-7-9/h3-7H,2,8H2,1H3
computed SMILES=O=C(OCCC)C=1C=CC=CC1
accession=JP003144
date=2016.01.19 (Created 2008.10.21, modified 2011.05.06)
author=NAKAYAMA M, MASS SPECTROSCOPY SOC. OF JAPAN (MSSJ)
license=CC BY-NC-SA
exact mass=164.08373
ionization energy=70 eV
ion type=[M]+*
computed spectral entropy=1.7084256066241548
computed normalized entropy=0.7775380014615281
SPLASH=splash10-0ab9-4900000000-3596c3602c8702e29f43
submitter=submitter = University of Tokyo Team (Faculty of Engineering, University of Tokyo)
MoNA Rating=3.75

>  <NUM PEAKS>  (5550) 
9

>  <MASS SPECTRAL PEAKS>  (5550) 
27 8
41 6
51 19
77 43
105 99.99
106 8
122 22
123 34
164 1

$$$$

     RDKit          2D

 11 11  0  0  0  0  0  0  0  0999 V2000
   -4.8712    2.0071    0.0000 C   0  0  0  0  0  0  0  0  0  0  0  0
   -3.5721    2.7571    0.0000 C   0  0  0  0  0  0  0  0  0  0  0  0
    2.9231    0.5071    0.0000 C   0  0  0  0  0  0  0  0  0  0  0  0
    2.9236    2.0079    0.0000 C   0  0  0  0  0  0  0  0  0  0  0  0
    1.6236   -0.2437    0.0000 C   0  0  0  0  0  0  0  0  0  0  0  0
    1.6245    2.7579    0.0000 C   0  0  0  0  0  0  0  0  0  0  0  0
    0.3245    0.5063    0.0000 C   0  0  0  0  0  0  0  0  0  0  0  0
    0.3250    2.0071    0.0000 C   0  0  0  0  0  0  0  0  0  0  0  0
   -0.9740    2.7571    0.0000 C   0  0  0  0  0  0  0  0  0  0  0  0
   -0.9740    4.2571    0.0000 O   0  0  0  0  0  0  0  0  0  0  0  0
   -2.2731    2.0071    0.0000 O   0  0  0  0  0  0  0  0  0  0  0  0
  2  1  1  0
  4  3  2  0
  5  3  1  0
  6  4  1  0
  7  5  2  0
  8  6  2  0
  8  7  1  0
  9  8  1  0
 10  9  2  0
 11  2  1  0
 11  9  1  0
M  END
>  <NAME>  (5551) 
ETHYL BENZOATE

>  <SYNONYMS>  (5551) 


>  <SPECTRUM TYPE>  (5551) 
MS1

>  <INSTRUMENT TYPE>  (5551) 
EI-B

>  <INSTRUMENT>  (5551) 
HITACHI RMU-7L

>  <ION MODE>  (5551) 
P

>  <INCHIKEY>  (5551) 
MTZQAGJQAFMTAQ-UHFFFAOYSA-N

>  <FORMULA>  (5551) 
C9H10O2

>  <EXACT MASS>  (5551) 
150.06807956

>  <MW>  (5551) 
150

>  <ID>  (5551) 
JP003143

>  <CONTRIBUTOR>  (5551) 
University of Tokyo Team, {Faculty of Engineering, University of Tokyo

>  <COMMENT>  (5551) 
SMILES=CCOC(=O)c(c1)cccc1
InChI=InChI=1S/C9H10O2/c1-2-11-9(10)8-6-4-3-5-7-8/h3-7H,2H2,1H3
computed SMILES=O=C(OCC)C=1C=CC=CC1
accession=JP003143
date=2016.01.19 (Created 2008.10.21, modified 2011.05.06)
author=NAKAYAMA M, MASS SPECTROSCOPY SOC. OF JAPAN (MSSJ)
license=CC BY-NC-SA
exact mass=150.06808
ionization energy=70 eV
ion type=[M]+*
computed spectral entropy=1.6492268359458369
computed normalized entropy=0.7931104591733517
SPLASH=splash10-0a4i-5900000000-240d67885345369282f3
submitter=submitter = University of Tokyo Team (Faculty of Engineering, University of Tokyo)
MoNA Rating=3.75

>  <NUM PEAKS>  (5551) 
8

>  <MASS SPECTRAL PEAKS>  (5551) 
29 5
50 9
51 24
77 54
105 99.99
106 10
122 25
150 11

$$$$

     RDKit          2D

 16 17  0  0  0  0  0  0  0  0999 V2000
    3.2481    2.1950    0.0000 C   0  0  0  0  0  0  0  0  0  0  0  0
   -7.1442    2.1950    0.0000 C   0  0  0  0  0  0  0  0  0  0  0  0
    3.2486    3.6958    0.0000 C   0  0  0  0  0  0  0  0  0  0  0  0
    1.9486    1.4442    0.0000 C   0  0  0  0  0  0  0  0  0  0  0  0
   -5.8447    1.4442    0.0000 C   0  0  0  0  0  0  0  0  0  0  0  0
   -7.1447    3.6958    0.0000 C   0  0  0  0  0  0  0  0  0  0  0  0
    1.9495    4.4458    0.0000 C   0  0  0  0  0  0  0  0  0  0  0  0
    0.6495    2.1942    0.0000 C   0  0  0  0  0  0  0  0  0  0  0  0
   -4.5457    2.1942    0.0000 C   0  0  0  0  0  0  0  0  0  0  0  0
   -5.8457    4.4458    0.0000 C   0  0  0  0  0  0  0  0  0  0  0  0
   -0.6490    4.4450    0.0000 C   0  0  0  0  0  0  0  0  0  0  0  0
    0.6500    3.6950    0.0000 C   0  0  0  0  0  0  0  0  0  0  0  0
   -4.5462    3.6950    0.0000 C   0  0  0  0  0  0  0  0  0  0  0  0
   -3.2471    4.4450    0.0000 C   0  0  0  0  0  0  0  0  0  0  0  0
   -3.2471    5.9450    0.0000 O   0  0  0  0  0  0  0  0  0  0  0  0
   -1.9481    3.6950    0.0000 O   0  0  0  0  0  0  0  0  0  0  0  0
  3  1  2  0
  4  1  1  0
  5  2  2  0
  6  2  1  0
  7  3  1  0
  8  4  2  0
  9  5  1  0
 10  6  2  0
 12  7  2  0
 12  8  1  0
 12 11  1  0
 13  9  2  0
 13 10  1  0
 14 13  1  0
 15 14  2  0
 16 11  1  0
 16 14  1  0
M  END
>  <NAME>  (5552) 
BENZYL BENZOATE

>  <SYNONYMS>  (5552) 


>  <SPECTRUM TYPE>  (5552) 
MS1

>  <INSTRUMENT TYPE>  (5552) 
EI-B

>  <INSTRUMENT>  (5552) 
HITACHI RMU-7L

>  <ION MODE>  (5552) 
P

>  <INCHIKEY>  (5552) 
SESFRYSPDFLNCH-UHFFFAOYSA-N

>  <FORMULA>  (5552) 
C14H12O2

>  <EXACT MASS>  (5552) 
212.083729624

>  <MW>  (5552) 
212

>  <ID>  (5552) 
JP003142

>  <CONTRIBUTOR>  (5552) 
University of Tokyo Team, {Faculty of Engineering, University of Tokyo

>  <COMMENT>  (5552) 
SMILES=O=C(OCc(c2)cccc2)c(c1)cccc1
InChI=InChI=1S/C14H12O2/c15-14(13-9-5-2-6-10-13)16-11-12-7-3-1-4-8-12/h1-10H,11H2
computed SMILES=O=C(OCC=1C=CC=CC1)C=2C=CC=CC2
accession=JP003142
date=2016.01.19 (Created 2008.10.21, modified 2011.05.06)
author=NAKAYAMA M, MASS SPECTROSCOPY SOC. OF JAPAN (MSSJ)
license=CC BY-NC-SA
exact mass=212.08373
ionization energy=70 eV
ion type=[M]+*
computed spectral entropy=1.8487174866374616
computed normalized entropy=0.7709750745202427
SPLASH=splash10-0a4i-7920000000-b0cd2b3fa8283d974d76
submitter=submitter = University of Tokyo Team (Faculty of Engineering, University of Tokyo)
MoNA Rating=3.75

>  <NUM PEAKS>  (5552) 
11

>  <MASS SPECTRAL PEAKS>  (5552) 
51 11
65 11
77 24
90 7
91 45
105 99.99
106 7
107 7
167 3
194 4
212 27

$$$$

     RDKit          2D

 15 15  0  0  0  0  0  0  0  0999 V2000
    4.8721    3.8829    0.0000 C   0  0  0  0  0  0  0  0  0  0  0  0
    3.5731    3.1329    0.0000 C   0  0  0  0  0  0  0  0  0  0  0  0
    2.2740    3.8829    0.0000 C   0  0  0  0  0  0  0  0  0  0  0  0
    0.9750    3.1329    0.0000 C   0  0  0  0  0  0  0  0  0  0  0  0
   -8.1183    5.3829    0.0000 C   0  0  0  0  0  0  0  0  0  0  0  0
   -8.1187    3.8821    0.0000 C   0  0  0  0  0  0  0  0  0  0  0  0
   -6.8187    6.1337    0.0000 C   0  0  0  0  0  0  0  0  0  0  0  0
   -0.3240    3.8829    0.0000 C   0  0  0  0  0  0  0  0  0  0  0  0
   -6.8197    3.1321    0.0000 C   0  0  0  0  0  0  0  0  0  0  0  0
   -5.5197    5.3837    0.0000 C   0  0  0  0  0  0  0  0  0  0  0  0
   -1.6231    3.1329    0.0000 C   0  0  0  0  0  0  0  0  0  0  0  0
   -5.5202    3.8829    0.0000 C   0  0  0  0  0  0  0  0  0  0  0  0
   -4.2212    3.1329    0.0000 C   0  0  0  0  0  0  0  0  0  0  0  0
   -4.2212    1.6329    0.0000 O   0  0  0  0  0  0  0  0  0  0  0  0
   -2.9221    3.8829    0.0000 O   0  0  0  0  0  0  0  0  0  0  0  0
  2  1  1  0
  3  2  1  0
  4  3  1  0
  6  5  2  0
  7  5  1  0
  8  4  1  0
  9  6  1  0
 10  7  2  0
 11  8  1  0
 12  9  2  0
 12 10  1  0
 13 12  1  0
 14 13  2  0
 15 11  1  0
 15 13  1  0
M  END
>  <NAME>  (5553) 
N-HEXYL BENZOATE

>  <SYNONYMS>  (5553) 


>  <SPECTRUM TYPE>  (5553) 
MS1

>  <INSTRUMENT TYPE>  (5553) 
EI-B

>  <INSTRUMENT>  (5553) 
HITACHI RMU-7L

>  <ION MODE>  (5553) 
P

>  <INCHIKEY>  (5553) 
UUGLJVMIFJNVFH-UHFFFAOYSA-N

>  <FORMULA>  (5553) 
C13H18O2

>  <EXACT MASS>  (5553) 
206.130679816

>  <MW>  (5553) 
206

>  <ID>  (5553) 
JP003141

>  <CONTRIBUTOR>  (5553) 
University of Tokyo Team, {Faculty of Engineering, University of Tokyo

>  <COMMENT>  (5553) 
SMILES=CCCCCCOC(=O)c(c1)cccc1
InChI=InChI=1S/C13H18O2/c1-2-3-4-8-11-15-13(14)12-9-6-5-7-10-12/h5-7,9-10H,2-4,8,11H2,1H3
computed SMILES=O=C(OCCCCCC)C=1C=CC=CC1
accession=JP003141
date=2016.01.19 (Created 2008.10.21, modified 2011.05.06)
author=NAKAYAMA M, MASS SPECTROSCOPY SOC. OF JAPAN (MSSJ)
license=CC BY-NC-SA
exact mass=206.13068
ionization energy=70 eV
ion type=[M]+*
computed spectral entropy=2.3150730881685484
computed normalized entropy=0.8349861158990657
SPLASH=splash10-0ab9-9800000000-75cd7a93b063fca7a7df
submitter=submitter = University of Tokyo Team (Faculty of Engineering, University of Tokyo)
MoNA Rating=3.75

>  <NUM PEAKS>  (5553) 
16

>  <MASS SPECTRAL PEAKS>  (5553) 
51 8
55 31
56 50
57 11
69 17
77 45
83 6
84 31
85 32
105 99.99
106 8
122 16
123 95
124 7
186 3
206 2

$$$$

     RDKit          2D

 13 13  0  0  0  0  0  0  0  0999 V2000
   -6.8197    3.1321    0.0000 C   0  0  0  0  0  0  0  0  0  0  0  0
   -5.5207    3.8821    0.0000 C   0  0  0  0  0  0  0  0  0  0  0  0
   -4.2216    3.1321    0.0000 C   0  0  0  0  0  0  0  0  0  0  0  0
    3.5726    1.6321    0.0000 C   0  0  0  0  0  0  0  0  0  0  0  0
    3.5731    3.1329    0.0000 C   0  0  0  0  0  0  0  0  0  0  0  0
    2.2731    0.8813    0.0000 C   0  0  0  0  0  0  0  0  0  0  0  0
    2.2740    3.8829    0.0000 C   0  0  0  0  0  0  0  0  0  0  0  0
    0.9740    1.6313    0.0000 C   0  0  0  0  0  0  0  0  0  0  0  0
   -2.9226    3.8821    0.0000 C   0  0  0  0  0  0  0  0  0  0  0  0
    0.9745    3.1321    0.0000 C   0  0  0  0  0  0  0  0  0  0  0  0
   -0.3245    3.8821    0.0000 C   0  0  0  0  0  0  0  0  0  0  0  0
   -0.3245    5.3821    0.0000 O   0  0  0  0  0  0  0  0  0  0  0  0
   -1.6236    3.1321    0.0000 O   0  0  0  0  0  0  0  0  0  0  0  0
  2  1  1  0
  3  2  1  0
  5  4  2  0
  6  4  1  0
  7  5  1  0
  8  6  2  0
  9  3  1  0
 10  7  2  0
 10  8  1  0
 11 10  1  0
 12 11  2  0
 13  9  1  0
 13 11  1  0
M  END
>  <NAME>  (5554) 
N-BUTYL BENZOATE

>  <SYNONYMS>  (5554) 


>  <SPECTRUM TYPE>  (5554) 
MS1

>  <INSTRUMENT TYPE>  (5554) 
EI-B

>  <INSTRUMENT>  (5554) 
HITACHI RMU-7L

>  <ION MODE>  (5554) 
P

>  <INCHIKEY>  (5554) 
XSIFPSYPOVKYCO-UHFFFAOYSA-N

>  <FORMULA>  (5554) 
C11H14O2

>  <EXACT MASS>  (5554) 
178.099379688

>  <MW>  (5554) 
178

>  <ID>  (5554) 
JP003140

>  <CONTRIBUTOR>  (5554) 
University of Tokyo Team, {Faculty of Engineering, University of Tokyo

>  <COMMENT>  (5554) 
SMILES=CCCCOC(=O)c(c1)cccc1
InChI=InChI=1S/C11H14O2/c1-2-3-9-13-11(12)10-7-5-4-6-8-10/h4-8H,2-3,9H2,1H3
computed SMILES=O=C(OCCCC)C=1C=CC=CC1
accession=JP003140
date=2016.01.19 (Created 2008.10.21, modified 2011.05.06)
author=NAKAYAMA M, MASS SPECTROSCOPY SOC. OF JAPAN (MSSJ)
license=CC BY-NC-SA
exact mass=178.09938
ionization energy=70 eV
ion type=[M]+*
computed spectral entropy=1.850293657608004
computed normalized entropy=0.7716323888693815
SPLASH=splash10-0ab9-3900000000-ffdf8a82782a558951ee
submitter=submitter = University of Tokyo Team (Faculty of Engineering, University of Tokyo)
MoNA Rating=3.75

>  <NUM PEAKS>  (5554) 
11

>  <MASS SPECTRAL PEAKS>  (5554) 
50 6
51 14
56 26
77 42
79 5
105 99.99
106 8
122 20
123 87
124 4
178 4

$$$$

     RDKit          2D

 10 10  0  0  0  0  0  0  0  0999 V2000
   -3.5724    2.0075    0.0000 C   0  0  0  0  0  0  0  0  0  0  0  0
    2.9228   -0.2425    0.0000 C   0  0  0  0  0  0  0  0  0  0  0  0
    2.9233    1.2583    0.0000 C   0  0  0  0  0  0  0  0  0  0  0  0
    1.6233   -0.9933    0.0000 C   0  0  0  0  0  0  0  0  0  0  0  0
    1.6243    2.0083    0.0000 C   0  0  0  0  0  0  0  0  0  0  0  0
    0.3243   -0.2433    0.0000 C   0  0  0  0  0  0  0  0  0  0  0  0
    0.3248    1.2575    0.0000 C   0  0  0  0  0  0  0  0  0  0  0  0
   -0.9743    2.0075    0.0000 C   0  0  0  0  0  0  0  0  0  0  0  0
   -0.9743    3.5075    0.0000 O   0  0  0  0  0  0  0  0  0  0  0  0
   -2.2733    1.2575    0.0000 O   0  0  0  0  0  0  0  0  0  0  0  0
  3  2  2  0
  4  2  1  0
  5  3  1  0
  6  4  2  0
  7  5  2  0
  7  6  1  0
  8  7  1  0
  9  8  2  0
 10  1  1  0
 10  8  1  0
M  END
>  <NAME>  (5555) 
METHYL BENZOATE

>  <SYNONYMS>  (5555) 


>  <SPECTRUM TYPE>  (5555) 
MS1

>  <INSTRUMENT TYPE>  (5555) 
EI-B

>  <INSTRUMENT>  (5555) 
HITACHI RMU-7L

>  <ION MODE>  (5555) 
P

>  <INCHIKEY>  (5555) 
QPJVMBTYPHYUOC-UHFFFAOYSA-N

>  <FORMULA>  (5555) 
C8H8O2

>  <EXACT MASS>  (5555) 
136.052429496

>  <MW>  (5555) 
136

>  <ID>  (5555) 
JP003139

>  <CONTRIBUTOR>  (5555) 
University of Tokyo Team, {Faculty of Engineering, University of Tokyo

>  <COMMENT>  (5555) 
SMILES=COC(=O)c(c1)cccc1
InChI=InChI=1S/C8H8O2/c1-10-8(9)7-5-3-2-4-6-7/h2-6H,1H3
computed SMILES=O=C(OC)C=1C=CC=CC1
accession=JP003139
date=2016.01.19 (Created 2008.10.21, modified 2011.05.06)
author=NAKAYAMA M, MASS SPECTROSCOPY SOC. OF JAPAN (MSSJ)
license=CC BY-NC-SA
exact mass=136.05243
ionization energy=70 eV
ion type=[M]+*
computed spectral entropy=1.543503942002071
computed normalized entropy=0.7422684942396515
SPLASH=splash10-0a4i-5900000000-4dfb5ac01f5d5f7d5ce7
submitter=submitter = University of Tokyo Team (Faculty of Engineering, University of Tokyo)
MoNA Rating=3.75

>  <NUM PEAKS>  (5555) 
8

>  <MASS SPECTRAL PEAKS>  (5555) 
50 9
51 18
76 3
77 47
78 4
105 99.99
106 6
136 37

$$$$

     RDKit          2D

 23 26  0  0  1  0  0  0  0  0999 V2000
   -6.9081    1.9661    0.0000 C   0  0  0  0  0  0  0  0  0  0  0  0
    6.1346   -4.0141    0.0000 C   0  0  0  0  0  0  0  0  0  0  0  0
    2.5400   -5.7040    0.0000 C   0  0  0  0  0  0  0  0  0  0  0  0
   -4.3100    0.4700    0.0000 C   0  0  0  0  0  0  0  0  0  0  0  0
   -3.0200   -0.2800    0.0000 C   0  0  0  0  0  0  0  0  0  0  0  0
    3.4900   -0.3800    0.0000 C   0  0  0  0  0  0  0  0  0  0  0  0
    4.3700   -1.5900    0.0000 C   0  0  0  0  0  0  0  0  0  0  0  0
   -3.0200    2.7200    0.0000 C   0  0  0  0  0  0  0  0  0  0  0  0
    0.8800    1.9700    0.0000 C   0  0  0  0  0  0  0  0  0  0  0  0
   -4.3100    1.9700    0.0000 C   0  0  0  0  0  0  0  0  0  0  0  0
    2.0000   -0.5300    0.0000 C   0  0  0  0  0  0  0  0  0  0  0  0
   -1.7200    0.4700    0.0000 C   0  0  0  0  0  0  0  0  0  0  0  0
    0.8800    0.4700    0.0000 C   0  0  0  0  0  0  0  0  0  0  0  0
    3.7600   -2.9600    0.0000 C   0  0  0  0  0  0  0  0  0  0  0  0
   -1.7200    1.9700    0.0000 C   0  0  0  0  0  0  0  0  0  0  0  0
   -0.4200   -0.2800    0.0000 C   0  0  0  0  0  0  0  0  0  0  0  0
    1.3900   -1.9000    0.0000 C   0  0  0  0  0  0  0  0  0  0  0  0
    2.2700   -3.1200    0.0000 C   0  0  0  0  0  0  0  0  0  0  0  0
   -5.6102    2.7180    0.0000 O   0  0  0  0  0  0  0  0  0  0  0  0
    4.6430   -4.1725    0.0000 O   0  0  0  0  0  0  0  0  0  0  0  0
    1.6591   -4.4900    0.0000 O   0  0  0  0  0  0  0  0  0  0  0  0
   -0.4200    2.7200    0.0000 O   0  0  0  0  0  0  0  0  0  0  0  0
   -0.1000   -1.7500    0.0000 O   0  0  0  0  0  0  0  0  0  0  0  0
  5  4  2  0
  7  6  1  0
 10  4  1  0
 10  8  2  0
 11  6  2  0
 12  5  1  0
 13  9  1  1
 13 11  1  0
 14  7  2  0
 15  8  1  0
 15 12  2  0
 16 12  1  0
 16 13  1  0
 17 11  1  0
 18 14  1  0
 18 17  2  0
 19  1  1  0
 19 10  1  0
 20  2  1  0
 20 14  1  0
 21  3  1  0
 21 18  1  0
 22  9  1  0
 22 15  1  0
 16 23  1  1
 23 17  1  0
M  END
>  <NAME>  (5556) 
3,9,10-TRIMETHOXYPTEROCARPAN

>  <SYNONYMS>  (5556) 


>  <SPECTRUM TYPE>  (5556) 
MS1

>  <INSTRUMENT TYPE>  (5556) 
EI-B

>  <INSTRUMENT>  (5556) 
HITACHI RMU-7L

>  <ION MODE>  (5556) 
P

>  <INCHIKEY>  (5556) 
RFFNFQZKHNKOPO-BBRMVZONSA-N

>  <FORMULA>  (5556) 
C18H18O5

>  <EXACT MASS>  (5556) 
314.115423676

>  <MW>  (5556) 
314

>  <ID>  (5556) 
JP003138

>  <CONTRIBUTOR>  (5556) 
University of Tokyo Team, {Faculty of Engineering, University of Tokyo

>  <COMMENT>  (5556) 
SMILES=COc(c4)cc(O3)c(c4)C([H])(O1)C([H])(C3)c(c2)c(c(OC)c(OC)c2)1
InChI=InChI=1S/C18H18O5/c1-19-10-4-5-12-15(8-10)22-9-13-11-6-7-14(20-2)18(21-3)17(11)23-16(12)13/h4-8,13,16H,9H2,1-3H3/t13-,16-/m0/s1
computed SMILES=O(C1=CC=C2C(OCC3C4=CC=C(OC)C(OC)=C4OC23)=C1)C
accession=JP003138
date=2016.01.19 (Created 2008.10.21, modified 2011.05.06)
author=NAKAYAMA M, MASS SPECTROSCOPY SOC. OF JAPAN (MSSJ)
license=CC BY-NC-SA
exact mass=314.11542
ionization energy=70 eV
ion type=[M]+*
computed spectral entropy=2.937623746997797
computed normalized entropy=0.9243467555350295
SPLASH=splash10-03di-0903000000-a36c79f59828ef0083bb
submitter=submitter = University of Tokyo Team (Faculty of Engineering, University of Tokyo)
MoNA Rating=3.75

>  <NUM PEAKS>  (5556) 
24

>  <MASS SPECTRAL PEAKS>  (5556) 
115 12
123 11
127 19
128 34
133 25
137 25
139 18
147 14
148 45
151 18
152 9
157 34
161 41
162 10
165 13
166 16
168 9
178 18
185 9
191 10
299 21
313 19
314 99.99
315 16

$$$$

     RDKit          2D

 25 28  0  0  1  0  0  0  0  0999 V2000
   -6.9081    1.9661    0.0000 C   0  0  0  0  0  0  0  0  0  0  0  0
    6.7437   -2.6462    0.0000 C   0  0  0  0  0  0  0  0  0  0  0  0
    6.1346   -4.0141    0.0000 C   0  0  0  0  0  0  0  0  0  0  0  0
   -4.3228    4.9678    0.0000 C   0  0  0  0  0  0  0  0  0  0  0  0
   -3.0200   -0.2800    0.0000 C   0  0  0  0  0  0  0  0  0  0  0  0
   -4.3100    0.4700    0.0000 C   0  0  0  0  0  0  0  0  0  0  0  0
    3.4900   -0.3800    0.0000 C   0  0  0  0  0  0  0  0  0  0  0  0
    2.2700   -3.1200    0.0000 C   0  0  0  0  0  0  0  0  0  0  0  0
    0.8800    1.9700    0.0000 C   0  0  0  0  0  0  0  0  0  0  0  0
   -1.7200    0.4700    0.0000 C   0  0  0  0  0  0  0  0  0  0  0  0
    2.0000   -0.5300    0.0000 C   0  0  0  0  0  0  0  0  0  0  0  0
    0.8800    0.4700    0.0000 C   0  0  0  0  0  0  0  0  0  0  0  0
   -4.3100    1.9700    0.0000 C   0  0  0  0  0  0  0  0  0  0  0  0
    1.3900   -1.9000    0.0000 C   0  0  0  0  0  0  0  0  0  0  0  0
    4.3700   -1.5900    0.0000 C   0  0  0  0  0  0  0  0  0  0  0  0
    3.7600   -2.9600    0.0000 C   0  0  0  0  0  0  0  0  0  0  0  0
   -0.4200   -0.2800    0.0000 C   0  0  0  0  0  0  0  0  0  0  0  0
   -1.7200    1.9700    0.0000 C   0  0  0  0  0  0  0  0  0  0  0  0
   -3.0200    2.7200    0.0000 C   0  0  0  0  0  0  0  0  0  0  0  0
   -5.6102    2.7180    0.0000 O   0  0  0  0  0  0  0  0  0  0  0  0
    5.8617   -1.4329    0.0000 O   0  0  0  0  0  0  0  0  0  0  0  0
    4.6430   -4.1725    0.0000 O   0  0  0  0  0  0  0  0  0  0  0  0
   -3.0225    4.2200    0.0000 O   0  0  0  0  0  0  0  0  0  0  0  0
   -0.4200    2.7200    0.0000 O   0  0  0  0  0  0  0  0  0  0  0  0
   -0.1000   -1.7500    0.0000 O   0  0  0  0  0  0  0  0  0  0  0  0
  6  5  2  0
 10  5  1  0
 11  7  2  0
 12  9  1  1
 12 11  1  0
 13  6  1  0
 14  8  2  0
 14 11  1  0
 15  7  1  0
 16  8  1  0
 16 15  2  0
 17 10  1  0
 17 12  1  0
 18 10  2  0
 19 13  2  0
 19 18  1  0
 20  1  1  0
 20 13  1  0
 21  2  1  0
 21 15  1  0
 22  3  1  0
 22 16  1  0
 23  4  1  0
 23 19  1  0
 24  9  1  0
 24 18  1  0
 25 14  1  0
 17 25  1  1
M  END
>  <NAME>  (5557) 
3,4,8,9-TETRAMETHOXYPTEROCARPAN

>  <SYNONYMS>  (5557) 


>  <SPECTRUM TYPE>  (5557) 
MS1

>  <INSTRUMENT TYPE>  (5557) 
EI-B

>  <INSTRUMENT>  (5557) 
HITACHI RMU-7L

>  <ION MODE>  (5557) 
P

>  <INCHIKEY>  (5557) 
CXAHVSULOPDCJX-SJCJKPOMSA-N

>  <FORMULA>  (5557) 
C19H20O6

>  <EXACT MASS>  (5557) 
344.12598835999995

>  <MW>  (5557) 
344

>  <ID>  (5557) 
JP003137

>  <CONTRIBUTOR>  (5557) 
University of Tokyo Team, {Faculty of Engineering, University of Tokyo

>  <COMMENT>  (5557) 
SMILES=COc(c4)c(OC)c(O3)c(c4)C([H])(O1)C([H])(C3)c(c2)c(cc(OC)c(OC)2)1
InChI=InChI=1S/C19H20O6/c1-20-13-6-5-10-17-12(9-24-18(10)19(13)23-4)11-7-15(21-2)16(22-3)8-14(11)25-17/h5-8,12,17H,9H2,1-4H3/t12-,17-/m0/s1
computed SMILES=O(C1=CC=C2C(OCC3C4=CC(OC)=C(OC)C=C4OC23)=C1OC)C
accession=JP003137
date=2016.01.19 (Created 2008.10.21, modified 2011.05.06)
author=NAKAYAMA M, MASS SPECTROSCOPY SOC. OF JAPAN (MSSJ)
license=CC BY-NC-SA
exact mass=344.12599
ionization energy=70 eV
ion type=[M]+*
computed spectral entropy=1.8301391105468938
computed normalized entropy=0.6934821347036464
SPLASH=splash10-0006-0209000000-5bc5ea7376e033e85202
submitter=submitter = University of Tokyo Team (Faculty of Engineering, University of Tokyo)
MoNA Rating=3.75

>  <NUM PEAKS>  (5557) 
14

>  <MASS SPECTRAL PEAKS>  (5557) 
106 3
115 4
135 3
163 6
178 16
191 4
297 6
298 3
299 3
329 29
330 6
343 4
344 99.99
345 19

$$$$

     RDKit          2D

 23 26  0  0  1  0  0  0  0  0999 V2000
   -6.9081    1.9661    0.0000 C   0  0  0  0  0  0  0  0  0  0  0  0
    6.7437   -2.6462    0.0000 C   0  0  0  0  0  0  0  0  0  0  0  0
    6.1346   -4.0141    0.0000 C   0  0  0  0  0  0  0  0  0  0  0  0
   -4.3100    0.4700    0.0000 C   0  0  0  0  0  0  0  0  0  0  0  0
   -3.0200   -0.2800    0.0000 C   0  0  0  0  0  0  0  0  0  0  0  0
   -3.0200    2.7200    0.0000 C   0  0  0  0  0  0  0  0  0  0  0  0
    3.4900   -0.3800    0.0000 C   0  0  0  0  0  0  0  0  0  0  0  0
    2.2700   -3.1200    0.0000 C   0  0  0  0  0  0  0  0  0  0  0  0
    0.8800    1.9700    0.0000 C   0  0  0  0  0  0  0  0  0  0  0  0
   -4.3100    1.9700    0.0000 C   0  0  0  0  0  0  0  0  0  0  0  0
   -1.7200    0.4700    0.0000 C   0  0  0  0  0  0  0  0  0  0  0  0
    2.0000   -0.5300    0.0000 C   0  0  0  0  0  0  0  0  0  0  0  0
    0.8800    0.4700    0.0000 C   0  0  0  0  0  0  0  0  0  0  0  0
   -1.7200    1.9700    0.0000 C   0  0  0  0  0  0  0  0  0  0  0  0
    1.3900   -1.9000    0.0000 C   0  0  0  0  0  0  0  0  0  0  0  0
    4.3700   -1.5900    0.0000 C   0  0  0  0  0  0  0  0  0  0  0  0
    3.7600   -2.9600    0.0000 C   0  0  0  0  0  0  0  0  0  0  0  0
   -0.4200   -0.2800    0.0000 C   0  0  0  0  0  0  0  0  0  0  0  0
   -5.6102    2.7180    0.0000 O   0  0  0  0  0  0  0  0  0  0  0  0
    5.8617   -1.4329    0.0000 O   0  0  0  0  0  0  0  0  0  0  0  0
    4.6430   -4.1725    0.0000 O   0  0  0  0  0  0  0  0  0  0  0  0
   -0.4200    2.7200    0.0000 O   0  0  0  0  0  0  0  0  0  0  0  0
   -0.1000   -1.7500    0.0000 O   0  0  0  0  0  0  0  0  0  0  0  0
  5  4  2  0
 10  4  1  0
 10  6  2  0
 11  5  1  0
 12  7  2  0
 13  9  1  1
 13 12  1  0
 14  6  1  0
 14 11  2  0
 15  8  2  0
 15 12  1  0
 16  7  1  0
 17  8  1  0
 17 16  2  0
 18 11  1  0
 18 13  1  0
 19  1  1  0
 19 10  1  0
 20  2  1  0
 20 16  1  0
 21  3  1  0
 21 17  1  0
 22  9  1  0
 22 14  1  0
 23 15  1  0
 18 23  1  1
M  END
>  <NAME>  (5558) 
3,8,9-TRIMETHOXYPTEROCARPAN

>  <SYNONYMS>  (5558) 


>  <SPECTRUM TYPE>  (5558) 
MS1

>  <INSTRUMENT TYPE>  (5558) 
EI-B

>  <INSTRUMENT>  (5558) 
HITACHI RMU-7L

>  <ION MODE>  (5558) 
P

>  <INCHIKEY>  (5558) 
RTGGRWVCSFXHGP-UGSOOPFHSA-N

>  <FORMULA>  (5558) 
C18H18O5

>  <EXACT MASS>  (5558) 
314.115423676

>  <MW>  (5558) 
314

>  <ID>  (5558) 
JP003136

>  <CONTRIBUTOR>  (5558) 
University of Tokyo Team, {Faculty of Engineering, University of Tokyo

>  <COMMENT>  (5558) 
SMILES=COc(c4)cc(O3)c(c4)C([H])(O1)C([H])(C3)c(c2)c(cc(OC)c(OC)2)1
InChI=InChI=1S/C18H18O5/c1-19-10-4-5-11-14(6-10)22-9-13-12-7-16(20-2)17(21-3)8-15(12)23-18(11)13/h4-8,13,18H,9H2,1-3H3/t13-,18-/m0/s1
computed SMILES=O(C1=CC=C2C(OCC3C4=CC(OC)=C(OC)C=C4OC23)=C1)C
accession=JP003136
date=2016.01.19 (Created 2008.10.21, modified 2011.05.06)
author=NAKAYAMA M, MASS SPECTROSCOPY SOC. OF JAPAN (MSSJ)
license=CC BY-NC-SA
exact mass=314.11542
ionization energy=70 eV
ion type=[M]+*
computed spectral entropy=2.0454195829354975
computed normalized entropy=0.7553108070533502
SPLASH=splash10-03di-0429000000-372b77cb77ccc9b6dd69
submitter=submitter = University of Tokyo Team (Faculty of Engineering, University of Tokyo)
MoNA Rating=3.75

>  <NUM PEAKS>  (5558) 
15

>  <MASS SPECTRAL PEAKS>  (5558) 
115 5
127 4
133 5
135 4
137 4
148 26
161 9
178 10
191 4
211 5
271 4
299 23
313 13
314 99.99
315 17

$$$$

     RDKit          2D

 24 28  0  0  1  0  0  0  0  0999 V2000
   -6.4952   -5.2500    0.0000 C   0  0  0  0  0  0  0  0  0  0  0  0
   -2.5981   -3.0000    0.0000 C   0  0  0  0  0  0  0  0  0  0  0  0
   -1.2990   -2.2500    0.0000 C   0  0  0  0  0  0  0  0  0  0  0  0
    2.0367    3.3338    0.0000 C   0  0  0  0  0  0  0  0  0  0  0  0
    3.5285    3.4906    0.0000 C   0  0  0  0  0  0  0  0  0  0  0  0
   -3.8971   -0.7500    0.0000 C   0  0  0  0  0  0  0  0  0  0  0  0
   -1.2990    2.2500    0.0000 C   0  0  0  0  0  0  0  0  0  0  0  0
    6.2138    0.6531    0.0000 C   0  0  0  0  0  0  0  0  0  0  0  0
   -5.1962   -4.5000    0.0000 C   0  0  0  0  0  0  0  0  0  0  0  0
   -3.8971   -2.2500    0.0000 C   0  0  0  0  0  0  0  0  0  0  0  0
    1.4266    1.9635    0.0000 C   0  0  0  0  0  0  0  0  0  0  0  0
   -1.2990   -0.7500    0.0000 C   0  0  0  0  0  0  0  0  0  0  0  0
    0.0000    1.5000    0.0000 C   0  0  0  0  0  0  0  0  0  0  0  0
    4.4102    2.2771    0.0000 C   0  0  0  0  0  0  0  0  0  0  0  0
   -2.5981    0.0000    0.0000 C   0  0  0  0  0  0  0  0  0  0  0  0
    0.0000   -0.0000    0.0000 C   0  0  0  0  0  0  0  0  0  0  0  0
    2.3083    0.7500    0.0000 C   0  0  0  0  0  0  0  0  0  0  0  0
    3.8000    0.9068    0.0000 C   0  0  0  0  0  0  0  0  0  0  0  0
   -3.8971   -5.2500    0.0000 O   0  0  0  0  0  0  0  0  0  0  0  0
   -2.5981    1.5000    0.0000 O   0  0  0  0  0  0  0  0  0  0  0  0
    5.9019    2.1203    0.0000 O   0  0  0  0  0  0  0  0  0  0  0  0
    4.9148   -0.0969    0.0000 O   0  0  0  0  0  0  0  0  0  0  0  0
   -5.1962   -3.0000    0.0000 O   0  0  0  0  0  0  0  0  0  0  0  0
    1.4266   -0.4635    0.0000 O   0  0  0  0  0  0  0  0  0  0  0  0
  3  2  2  0
  5  4  1  0
  9  1  1  0
 10  2  1  0
 10  6  2  0
 11  4  2  0
 12  3  1  0
 13  7  1  1
 13 11  1  0
 14  5  2  0
 15  6  1  0
 15 12  2  0
 16 12  1  0
 16 13  1  0
 17 11  1  0
 18 14  1  0
 18 17  2  0
 19  9  2  0
 20  7  1  0
 20 15  1  0
 21  8  1  0
 21 14  1  0
 22  8  1  0
 22 18  1  0
 23  9  1  0
 23 10  1  0
 16 24  1  1
 24 17  1  0
M  END
>  <NAME>  (5559) 
MAACKIAIN ACETATE

>  <SYNONYMS>  (5559) 


>  <SPECTRUM TYPE>  (5559) 
MS1

>  <INSTRUMENT TYPE>  (5559) 
EI-B

>  <INSTRUMENT>  (5559) 
HITACHI RMU-7L

>  <ION MODE>  (5559) 
P

>  <INCHIKEY>  (5559) 
GLQXTNUEWAAYKI-BBRMVZONSA-N

>  <FORMULA>  (5559) 
C18H14O6

>  <EXACT MASS>  (5559) 
326.07903816799995

>  <MW>  (5559) 
326

>  <ID>  (5559) 
JP003135

>  <CONTRIBUTOR>  (5559) 
University of Tokyo Team, {Faculty of Engineering, University of Tokyo

>  <COMMENT>  (5559) 
SMILES=CC(=O)Oc(c5)cc(O4)c(c5)C([H])(O1)C([H])(C4)c(c2)c(c(O3)c(OC3)c2)1
InChI=InChI=1S/C18H14O6/c1-9(19)23-10-2-3-12-15(6-10)20-7-13-11-4-5-14-18(22-8-21-14)17(11)24-16(12)13/h2-6,13,16H,7-8H2,1H3/t13-,16-/m0/s1
computed SMILES=O=C(OC1=CC=C2C(OCC3C4=CC=C5OCOC5=C4OC23)=C1)C
accession=JP003135
date=2016.01.19 (Created 2008.10.21, modified 2011.05.06)
author=NAKAYAMA M, MASS SPECTROSCOPY SOC. OF JAPAN (MSSJ)
license=CC BY-NC-SA
exact mass=326.07904
ionization energy=70 eV
ion type=[M]+*
computed spectral entropy=2.2413318916134575
computed normalized entropy=0.7910918167583589
SPLASH=splash10-001i-0792000000-fabcdf258a559e5b0d58
submitter=submitter = University of Tokyo Team (Faculty of Engineering, University of Tokyo)
MoNA Rating=3.75

>  <NUM PEAKS>  (5559) 
17

>  <MASS SPECTRAL PEAKS>  (5559) 
134 32
139 4
141 4
147 12
151 12
152 4
162 20
171 4
175 16
247 4
253 4
267 4
283 12
284 99.99
285 12
326 28
329 4

$$$$

     RDKit          2D

 24 28  0  0  1  0  0  0  0  0999 V2000
   -7.7481    2.4204    0.0000 C   0  0  0  0  0  0  0  0  0  0  0  0
   -5.1490    5.4200    0.0000 C   0  0  0  0  0  0  0  0  0  0  0  0
   -3.8500    0.1700    0.0000 C   0  0  0  0  0  0  0  0  0  0  0  0
   -5.1500    0.9200    0.0000 C   0  0  0  0  0  0  0  0  0  0  0  0
    2.6400    0.0600    0.0000 C   0  0  0  0  0  0  0  0  0  0  0  0
    1.4100   -2.6700    0.0000 C   0  0  0  0  0  0  0  0  0  0  0  0
    0.0400    2.4200    0.0000 C   0  0  0  0  0  0  0  0  0  0  0  0
    5.3200   -2.7700    0.0000 C   0  0  0  0  0  0  0  0  0  0  0  0
   -2.5600    0.9300    0.0000 C   0  0  0  0  0  0  0  0  0  0  0  0
    1.1600   -0.0900    0.0000 C   0  0  0  0  0  0  0  0  0  0  0  0
    0.0400    0.9200    0.0000 C   0  0  0  0  0  0  0  0  0  0  0  0
   -5.1500    2.4200    0.0000 C   0  0  0  0  0  0  0  0  0  0  0  0
    0.5400   -1.4600    0.0000 C   0  0  0  0  0  0  0  0  0  0  0  0
    3.5200   -1.1600    0.0000 C   0  0  0  0  0  0  0  0  0  0  0  0
    2.9000   -2.5200    0.0000 C   0  0  0  0  0  0  0  0  0  0  0  0
   -1.2600    0.1700    0.0000 C   0  0  0  0  0  0  0  0  0  0  0  0
   -2.5500    2.4200    0.0000 C   0  0  0  0  0  0  0  0  0  0  0  0
   -3.8500    3.1700    0.0000 C   0  0  0  0  0  0  0  0  0  0  0  0
   -6.4489    3.1702    0.0000 O   0  0  0  0  0  0  0  0  0  0  0  0
   -3.8500    4.6700    0.0000 O   0  0  0  0  0  0  0  0  0  0  0  0
   -1.2600    3.1800    0.0000 O   0  0  0  0  0  0  0  0  0  0  0  0
    5.0100   -1.3100    0.0000 O   0  0  0  0  0  0  0  0  0  0  0  0
    4.0200   -3.5200    0.0000 O   0  0  0  0  0  0  0  0  0  0  0  0
   -0.9500   -1.3000    0.0000 O   0  0  0  0  0  0  0  0  0  0  0  0
  4  3  2  0
  9  3  1  0
 10  5  2  0
 11  7  1  1
 11 10  1  0
 12  4  1  0
 13  6  2  0
 13 10  1  0
 14  5  1  0
 15  6  1  0
 15 14  2  0
 16  9  1  0
 16 11  1  0
 17  9  2  0
 18 12  2  0
 18 17  1  0
 19  1  1  0
 19 12  1  0
 20  2  1  0
 20 18  1  0
 21  7  1  0
 21 17  1  0
 22  8  1  0
 22 14  1  0
 23  8  1  0
 23 15  1  0
 24 13  1  0
 16 24  1  1
M  END
>  <NAME>  (5560) 
4-METHOXYPTEROCARPIN

>  <SYNONYMS>  (5560) 


>  <SPECTRUM TYPE>  (5560) 
MS1

>  <INSTRUMENT TYPE>  (5560) 
EI-B

>  <INSTRUMENT>  (5560) 
HITACHI RMU-7L

>  <ION MODE>  (5560) 
P

>  <INCHIKEY>  (5560) 
FNOOADLKGGWRGC-ZBEGNZNMSA-N

>  <FORMULA>  (5560) 
C18H16O6

>  <EXACT MASS>  (5560) 
328.09468823199995

>  <MW>  (5560) 
328

>  <ID>  (5560) 
JP003134

>  <CONTRIBUTOR>  (5560) 
University of Tokyo Team, {Faculty of Engineering, University of Tokyo

>  <COMMENT>  (5560) 
SMILES=COc(c5)c(OC)c(O4)c(c5)C([H])(O1)C([H])(C4)c(c2)c(cc(O3)c(OC3)2)1
InChI=InChI=1S/C18H16O6/c1-19-12-4-3-9-16-11(7-21-17(9)18(12)20-2)10-5-14-15(23-8-22-14)6-13(10)24-16/h3-6,11,16H,7-8H2,1-2H3/t11-,16-/m0/s1
computed SMILES=O(C1=CC=C2C(OCC3C4=CC=5OCOC5C=C4OC23)=C1OC)C
accession=JP003134
date=2016.01.19 (Created 2008.10.21, modified 2011.05.06)
author=NAKAYAMA M, MASS SPECTROSCOPY SOC. OF JAPAN (MSSJ)
license=CC BY-NC-SA
exact mass=328.09469
ionization energy=70 eV
ion type=[M]+*
computed spectral entropy=2.007256277529282
computed normalized entropy=0.7412182671917618
SPLASH=splash10-004i-0329000000-adfe94d0793d80fb7a88
submitter=submitter = University of Tokyo Team (Faculty of Engineering, University of Tokyo)
MoNA Rating=3.75

>  <NUM PEAKS>  (5560) 
15

>  <MASS SPECTRAL PEAKS>  (5560) 
149 16
151 4
162 15
163 5
175 6
178 2
253 4
281 12
282 6
283 4
298 6
313 20
327 3
328 99.99
329 17

$$$$

     RDKit          2D

 21 25  0  0  1  0  0  0  0  0999 V2000
   -2.5981   -3.0000    0.0000 C   0  0  0  0  0  0  0  0  0  0  0  0
   -1.2990   -2.2500    0.0000 C   0  0  0  0  0  0  0  0  0  0  0  0
    2.0367    3.3338    0.0000 C   0  0  0  0  0  0  0  0  0  0  0  0
    3.5285    3.4906    0.0000 C   0  0  0  0  0  0  0  0  0  0  0  0
   -3.8971   -0.7500    0.0000 C   0  0  0  0  0  0  0  0  0  0  0  0
   -1.2990    2.2500    0.0000 C   0  0  0  0  0  0  0  0  0  0  0  0
    6.2138    0.6531    0.0000 C   0  0  0  0  0  0  0  0  0  0  0  0
   -3.8971   -2.2500    0.0000 C   0  0  0  0  0  0  0  0  0  0  0  0
    1.4266    1.9635    0.0000 C   0  0  0  0  0  0  0  0  0  0  0  0
   -1.2990   -0.7500    0.0000 C   0  0  0  0  0  0  0  0  0  0  0  0
    0.0000    1.5000    0.0000 C   0  0  0  0  0  0  0  0  0  0  0  0
    4.4102    2.2771    0.0000 C   0  0  0  0  0  0  0  0  0  0  0  0
   -2.5981   -0.0000    0.0000 C   0  0  0  0  0  0  0  0  0  0  0  0
    0.0000    0.0000    0.0000 C   0  0  0  0  0  0  0  0  0  0  0  0
    2.3083    0.7500    0.0000 C   0  0  0  0  0  0  0  0  0  0  0  0
    3.8000    0.9068    0.0000 C   0  0  0  0  0  0  0  0  0  0  0  0
   -5.1962   -3.0000    0.0000 O   0  0  0  0  0  0  0  0  0  0  0  0
   -2.5981    1.5000    0.0000 O   0  0  0  0  0  0  0  0  0  0  0  0
    5.9019    2.1203    0.0000 O   0  0  0  0  0  0  0  0  0  0  0  0
    4.9148   -0.0969    0.0000 O   0  0  0  0  0  0  0  0  0  0  0  0
    1.4266   -0.4635    0.0000 O   0  0  0  0  0  0  0  0  0  0  0  0
  2  1  2  0
  4  3  1  0
  8  1  1  0
  8  5  2  0
  9  3  2  0
 10  2  1  0
 11  6  1  1
 11  9  1  0
 12  4  2  0
 13  5  1  0
 13 10  2  0
 14 10  1  0
 14 11  1  0
 15  9  1  0
 16 12  1  0
 16 15  2  0
 17  8  1  0
 18  6  1  0
 18 13  1  0
 19  7  1  0
 19 12  1  0
 20  7  1  0
 20 16  1  0
 14 21  1  1
 21 15  1  0
M  END
>  <NAME>  (5561) 
MAACKIAIN

>  <SYNONYMS>  (5561) 


>  <SPECTRUM TYPE>  (5561) 
MS1

>  <INSTRUMENT TYPE>  (5561) 
EI-B

>  <INSTRUMENT>  (5561) 
HITACHI RMU-7L

>  <ION MODE>  (5561) 
P

>  <INCHIKEY>  (5561) 
SMEBAXWPNGCZEO-FZMZJTMJSA-N

>  <FORMULA>  (5561) 
C16H12O5

>  <EXACT MASS>  (5561) 
284.068473484

>  <MW>  (5561) 
284

>  <ID>  (5561) 
JP003133

>  <CONTRIBUTOR>  (5561) 
University of Tokyo Team, {Faculty of Engineering, University of Tokyo

>  <COMMENT>  (5561) 
SMILES=Oc(c5)cc(O4)c(c5)C([H])(O1)C([H])(C4)c(c2)c(c(O3)c(OC3)c2)1
InChI=InChI=1S/C16H12O5/c17-8-1-2-10-13(5-8)18-6-11-9-3-4-12-16(20-7-19-12)15(9)21-14(10)11/h1-5,11,14,17H,6-7H2/t11-,14-/m0/s1
computed SMILES=OC1=CC=C2C(OCC3C4=CC=C5OCOC5=C4OC23)=C1
accession=JP003133
date=2016.01.19 (Created 2008.10.21, modified 2011.05.06)
author=NAKAYAMA M, MASS SPECTROSCOPY SOC. OF JAPAN (MSSJ)
license=CC BY-NC-SA
exact mass=284.06847
ionization energy=70 eV
ion type=[M]+*
computed spectral entropy=1.815233719277438
computed normalized entropy=0.7305037875094038
SPLASH=splash10-001i-0390000000-d54197211f3a6129aad0
submitter=submitter = University of Tokyo Team (Faculty of Engineering, University of Tokyo)
MoNA Rating=3.75

>  <NUM PEAKS>  (5561) 
12

>  <MASS SPECTRAL PEAKS>  (5561) 
134 12
137 2
141 5
147 9
151 7
162 13
175 7
197 3
267 8
283 19
284 99.99
285 15

$$$$

     RDKit          2D

 22 26  0  0  1  0  0  0  0  0999 V2000
   -7.7481    2.4204    0.0000 C   0  0  0  0  0  0  0  0  0  0  0  0
   -5.1500    0.9200    0.0000 C   0  0  0  0  0  0  0  0  0  0  0  0
   -3.8500    0.1700    0.0000 C   0  0  0  0  0  0  0  0  0  0  0  0
   -3.8500    3.1700    0.0000 C   0  0  0  0  0  0  0  0  0  0  0  0
    2.6400    0.0600    0.0000 C   0  0  0  0  0  0  0  0  0  0  0  0
    1.4100   -2.6700    0.0000 C   0  0  0  0  0  0  0  0  0  0  0  0
    0.0400    2.4200    0.0000 C   0  0  0  0  0  0  0  0  0  0  0  0
    5.3200   -2.7700    0.0000 C   0  0  0  0  0  0  0  0  0  0  0  0
   -5.1500    2.4200    0.0000 C   0  0  0  0  0  0  0  0  0  0  0  0
   -2.5600    0.9300    0.0000 C   0  0  0  0  0  0  0  0  0  0  0  0
    1.1600   -0.0900    0.0000 C   0  0  0  0  0  0  0  0  0  0  0  0
    0.0400    0.9200    0.0000 C   0  0  0  0  0  0  0  0  0  0  0  0
   -2.5500    2.4200    0.0000 C   0  0  0  0  0  0  0  0  0  0  0  0
    0.5400   -1.4600    0.0000 C   0  0  0  0  0  0  0  0  0  0  0  0
    3.5200   -1.1600    0.0000 C   0  0  0  0  0  0  0  0  0  0  0  0
    2.9000   -2.5200    0.0000 C   0  0  0  0  0  0  0  0  0  0  0  0
   -1.2600    0.1700    0.0000 C   0  0  0  0  0  0  0  0  0  0  0  0
   -6.4489    3.1702    0.0000 O   0  0  0  0  0  0  0  0  0  0  0  0
   -1.2600    3.1800    0.0000 O   0  0  0  0  0  0  0  0  0  0  0  0
    5.0100   -1.3100    0.0000 O   0  0  0  0  0  0  0  0  0  0  0  0
    4.0200   -3.5200    0.0000 O   0  0  0  0  0  0  0  0  0  0  0  0
   -0.9500   -1.3000    0.0000 O   0  0  0  0  0  0  0  0  0  0  0  0
  3  2  2  0
  9  2  1  0
  9  4  2  0
 10  3  1  0
 11  5  2  0
 12  7  1  1
 12 11  1  0
 13  4  1  0
 13 10  2  0
 14  6  2  0
 14 11  1  0
 15  5  1  0
 16  6  1  0
 16 15  2  0
 17 10  1  0
 17 12  1  0
 18  1  1  0
 18  9  1  0
 19  7  1  0
 19 13  1  0
 20  8  1  0
 20 15  1  0
 21  8  1  0
 21 16  1  0
 22 14  1  0
 17 22  1  1
M  END
>  <NAME>  (5562) 
PTEROCARPIN

>  <SYNONYMS>  (5562) 


>  <SPECTRUM TYPE>  (5562) 
MS1

>  <INSTRUMENT TYPE>  (5562) 
EI-B

>  <INSTRUMENT>  (5562) 
HITACHI RMU-7L

>  <ION MODE>  (5562) 
P

>  <INCHIKEY>  (5562) 
YLZYAUCOYZKLMA-SJCJKPOMSA-N

>  <FORMULA>  (5562) 
C17H14O5

>  <EXACT MASS>  (5562) 
298.084123548

>  <MW>  (5562) 
298

>  <ID>  (5562) 
JP003132

>  <CONTRIBUTOR>  (5562) 
University of Tokyo Team, {Faculty of Engineering, University of Tokyo

>  <COMMENT>  (5562) 
SMILES=COc(c5)cc(O4)c(c5)C([H])(O1)C([H])(C4)c(c2)c(cc(O3)c(OC3)2)1
InChI=InChI=1S/C17H14O5/c1-18-9-2-3-10-13(4-9)19-7-12-11-5-15-16(21-8-20-15)6-14(11)22-17(10)12/h2-6,12,17H,7-8H2,1H3/t12-,17-/m0/s1
computed SMILES=O(C1=CC=C2C(OCC3C4=CC=5OCOC5C=C4OC23)=C1)C
accession=JP003132
date=2016.01.19 (Created 2008.10.21, modified 2011.05.06)
author=NAKAYAMA M, MASS SPECTROSCOPY SOC. OF JAPAN (MSSJ)
license=CC BY-NC-SA
exact mass=298.08412
ionization energy=70 eV
ion type=[M]+*
computed spectral entropy=1.9957836803899245
computed normalized entropy=0.6904937660484926
SPLASH=splash10-0002-0490000000-c56e2efc262f968345cb
submitter=submitter = University of Tokyo Team (Faculty of Engineering, University of Tokyo)
MoNA Rating=3.75

>  <NUM PEAKS>  (5562) 
18

>  <MASS SPECTRAL PEAKS>  (5562) 
107 2
115 2
133 3
139 2
141 2
148 20
149 5
152 2
161 8
162 14
169 2
175 5
197 2
267 2
283 10
297 15
298 99.99
299 16

$$$$

     RDKit          2D

 21 24  0  0  1  0  0  0  0  0999 V2000
   -6.8581    2.0404    0.0000 C   0  0  0  0  0  0  0  0  0  0  0  0
    6.1846   -3.9341    0.0000 C   0  0  0  0  0  0  0  0  0  0  0  0
    4.4200   -1.5100    0.0000 C   0  0  0  0  0  0  0  0  0  0  0  0
   -4.2600    0.5500    0.0000 C   0  0  0  0  0  0  0  0  0  0  0  0
    3.5400   -0.3000    0.0000 C   0  0  0  0  0  0  0  0  0  0  0  0
   -2.9600   -0.2000    0.0000 C   0  0  0  0  0  0  0  0  0  0  0  0
   -2.9600    2.7900    0.0000 C   0  0  0  0  0  0  0  0  0  0  0  0
    2.3200   -3.0400    0.0000 C   0  0  0  0  0  0  0  0  0  0  0  0
    0.9300    2.0400    0.0000 C   0  0  0  0  0  0  0  0  0  0  0  0
   -4.2600    2.0400    0.0000 C   0  0  0  0  0  0  0  0  0  0  0  0
    3.8100   -2.8800    0.0000 C   0  0  0  0  0  0  0  0  0  0  0  0
    2.0500   -0.4600    0.0000 C   0  0  0  0  0  0  0  0  0  0  0  0
   -1.6700    0.5500    0.0000 C   0  0  0  0  0  0  0  0  0  0  0  0
    0.9300    0.5500    0.0000 C   0  0  0  0  0  0  0  0  0  0  0  0
   -1.6700    2.0400    0.0000 C   0  0  0  0  0  0  0  0  0  0  0  0
    1.4400   -1.8300    0.0000 C   0  0  0  0  0  0  0  0  0  0  0  0
   -0.3700   -0.2000    0.0000 C   0  0  0  0  0  0  0  0  0  0  0  0
   -5.5589    2.7902    0.0000 O   0  0  0  0  0  0  0  0  0  0  0  0
    4.6930   -4.0925    0.0000 O   0  0  0  0  0  0  0  0  0  0  0  0
   -0.3700    2.7900    0.0000 O   0  0  0  0  0  0  0  0  0  0  0  0
   -0.0600   -1.6700    0.0000 O   0  0  0  0  0  0  0  0  0  0  0  0
  5  3  2  0
  6  4  1  0
 10  4  2  0
 10  7  1  0
 11  3  1  0
 11  8  2  0
 12  5  1  0
 13  6  2  0
 14  9  1  1
 14 12  1  0
 15  7  2  0
 15 13  1  0
 16  8  1  0
 16 12  2  0
 17 13  1  0
 17 14  1  0
 18  1  1  0
 18 10  1  0
 19  2  1  0
 19 11  1  0
 20  9  1  0
 20 15  1  0
 21 16  1  0
 17 21  1  1
M  END
>  <NAME>  (5563) 
HOMOPTEROCARPIN

>  <SYNONYMS>  (5563) 


>  <SPECTRUM TYPE>  (5563) 
MS1

>  <INSTRUMENT TYPE>  (5563) 
EI-B

>  <INSTRUMENT>  (5563) 
HITACHI RMU-7L

>  <ION MODE>  (5563) 
P

>  <INCHIKEY>  (5563) 
VPGIGLKLCFOWDN-YOEHRIQHSA-N

>  <FORMULA>  (5563) 
C17H16O4

>  <EXACT MASS>  (5563) 
284.104858992

>  <MW>  (5563) 
284

>  <ID>  (5563) 
JP003131

>  <CONTRIBUTOR>  (5563) 
University of Tokyo Team, {Faculty of Engineering, University of Tokyo

>  <COMMENT>  (5563) 
SMILES=COc(c4)cc(O3)c(c4)C([H])(O1)C([H])(C3)c(c2)c(cc(OC)c2)1
InChI=InChI=1S/C17H16O4/c1-18-10-4-6-13-15(7-10)20-9-14-12-5-3-11(19-2)8-16(12)21-17(13)14/h3-8,14,17H,9H2,1-2H3/t14-,17-/m0/s1
computed SMILES=O(C1=CC=C2C(OCC3C4=CC=C(OC)C=C4OC23)=C1)C
accession=JP003131
date=2016.01.19 (Created 2008.10.21, modified 2011.05.06)
author=NAKAYAMA M, MASS SPECTROSCOPY SOC. OF JAPAN (MSSJ)
license=CC BY-NC-SA
exact mass=284.10486
ionization energy=70 eV
ion type=[M]+*
computed spectral entropy=1.95883123935042
computed normalized entropy=0.723336383702618
SPLASH=splash10-001i-0290000000-eb2189160c94104537b6
submitter=submitter = University of Tokyo Team (Faculty of Engineering, University of Tokyo)
MoNA Rating=3.75

>  <NUM PEAKS>  (5563) 
15

>  <MASS SPECTRAL PEAKS>  (5563) 
133 5
148 22
149 2
151 3
152 2
161 18
253 4
267 3
269 24
270 4
282 2
283 34
284 99.99
285 20
286 2

$$$$

     RDKit          2D

 17 18  0  0  0  0  0  0  0  0999 V2000
   -5.1981    0.7504    0.0000 C   0  0  0  0  0  0  0  0  0  0  0  0
    2.5990   -3.7500    0.0000 C   0  0  0  0  0  0  0  0  0  0  0  0
    5.1981   -0.7504    0.0000 C   0  0  0  0  0  0  0  0  0  0  0  0
   -2.6000   -0.7500    0.0000 C   0  0  0  0  0  0  0  0  0  0  0  0
   -1.3000   -1.5000    0.0000 C   0  0  0  0  0  0  0  0  0  0  0  0
   -1.3000    1.5000    0.0000 C   0  0  0  0  0  0  0  0  0  0  0  0
   -2.6000    0.7500    0.0000 C   0  0  0  0  0  0  0  0  0  0  0  0
    0.0000   -0.7500    0.0000 C   0  0  0  0  0  0  0  0  0  0  0  0
    0.0000    0.7500    0.0000 C   0  0  0  0  0  0  0  0  0  0  0  0
    1.3000   -1.5000    0.0000 C   0  0  0  0  0  0  0  0  0  0  0  0
    2.6000   -0.7500    0.0000 C   0  0  0  0  0  0  0  0  0  0  0  0
    2.6000    0.7500    0.0000 C   0  0  0  0  0  0  0  0  0  0  0  0
    3.8989    1.5002    0.0000 O   0  0  0  0  0  0  0  0  0  0  0  0
   -3.8989    1.5002    0.0000 O   0  0  0  0  0  0  0  0  0  0  0  0
    1.3000   -3.0000    0.0000 O   0  0  0  0  0  0  0  0  0  0  0  0
    3.8989   -1.5002    0.0000 O   0  0  0  0  0  0  0  0  0  0  0  0
    1.3000    1.5000    0.0000 O   0  0  0  0  0  0  0  0  0  0  0  0
  5  4  2  0
  7  4  1  0
  7  6  2  0
  8  5  1  0
  9  6  1  0
  9  8  2  0
 10  8  1  0
 11 10  2  0
 12 11  1  0
 13 12  2  0
 14  1  1  0
 14  7  1  0
 15  2  1  0
 15 10  1  0
 16  3  1  0
 16 11  1  0
 17  9  1  0
 17 12  1  0
M  END
>  <NAME>  (5564) 
3,4,7-TRIMETHOXYCOUMARIN

>  <SYNONYMS>  (5564) 


>  <SPECTRUM TYPE>  (5564) 
MS1

>  <INSTRUMENT TYPE>  (5564) 
EI-B

>  <INSTRUMENT>  (5564) 
HITACHI RMU-7L

>  <ION MODE>  (5564) 
P

>  <INCHIKEY>  (5564) 
AYMSWLVOSROJFX-UHFFFAOYSA-N

>  <FORMULA>  (5564) 
C12H12O5

>  <EXACT MASS>  (5564) 
236.06847348399998

>  <MW>  (5564) 
236

>  <ID>  (5564) 
JP003130

>  <CONTRIBUTOR>  (5564) 
University of Tokyo Team, {Faculty of Engineering, University of Tokyo

>  <COMMENT>  (5564) 
SMILES=COc(c2)cc(O1)c(c2)C(OC)=C(OC)C(=O)1
InChI=InChI=1S/C12H12O5/c1-14-7-4-5-8-9(6-7)17-12(13)11(16-3)10(8)15-2/h4-6H,1-3H3
computed SMILES=O=C1OC=2C=C(OC)C=CC2C(OC)=C1OC
accession=JP003130
date=2016.01.19 (Created 2008.10.21, modified 2011.05.06)
author=NAKAYAMA M, MASS SPECTROSCOPY SOC. OF JAPAN (MSSJ)
license=CC BY-NC-SA
exact mass=236.06847
ionization energy=70 eV
ion type=[M]+*
computed spectral entropy=2.45547596537235
computed normalized entropy=0.7292130211743865
SPLASH=splash10-000f-2960000000-50bec6607a443a8d1bcb
submitter=submitter = University of Tokyo Team (Faculty of Engineering, University of Tokyo)
MoNA Rating=3.75

>  <NUM PEAKS>  (5564) 
29

>  <MASS SPECTRAL PEAKS>  (5564) 
41 3
43 2
50 2
51 6
63 10
74 2
75 2
77 6
79 7
92 4
94 2
106 3
107 12
122 13
134 3
135 5
149 4
150 15
151 2
165 10
176 2
177 2
193 99.99
194 10
207 2
221 22
222 3
236 87
237 8

$$$$

     RDKit          2D

 15 16  0  0  0  0  0  0  0  0999 V2000
   -5.1981    0.7504    0.0000 C   0  0  0  0  0  0  0  0  0  0  0  0
    5.1981   -0.7504    0.0000 C   0  0  0  0  0  0  0  0  0  0  0  0
   -1.3000   -1.5000    0.0000 C   0  0  0  0  0  0  0  0  0  0  0  0
   -2.6000   -0.7500    0.0000 C   0  0  0  0  0  0  0  0  0  0  0  0
    1.3000   -1.5000    0.0000 C   0  0  0  0  0  0  0  0  0  0  0  0
   -1.3000    1.5000    0.0000 C   0  0  0  0  0  0  0  0  0  0  0  0
    0.0000   -0.7500    0.0000 C   0  0  0  0  0  0  0  0  0  0  0  0
   -2.6000    0.7500    0.0000 C   0  0  0  0  0  0  0  0  0  0  0  0
    0.0000    0.7500    0.0000 C   0  0  0  0  0  0  0  0  0  0  0  0
    2.6000   -0.7500    0.0000 C   0  0  0  0  0  0  0  0  0  0  0  0
    2.6000    0.7500    0.0000 C   0  0  0  0  0  0  0  0  0  0  0  0
    3.8989    1.5002    0.0000 O   0  0  0  0  0  0  0  0  0  0  0  0
   -3.8989    1.5002    0.0000 O   0  0  0  0  0  0  0  0  0  0  0  0
    3.8989   -1.5002    0.0000 O   0  0  0  0  0  0  0  0  0  0  0  0
    1.3000    1.5000    0.0000 O   0  0  0  0  0  0  0  0  0  0  0  0
  4  3  2  0
  7  3  1  0
  7  5  1  0
  8  4  1  0
  8  6  2  0
  9  6  1  0
  9  7  2  0
 10  5  2  0
 11 10  1  0
 12 11  2  0
 13  1  1  0
 13  8  1  0
 14  2  1  0
 14 10  1  0
 15  9  1  0
 15 11  1  0
M  END
>  <NAME>  (5565) 
3,7-DIMETHOXYCOUMARIN

>  <SYNONYMS>  (5565) 


>  <SPECTRUM TYPE>  (5565) 
MS1

>  <INSTRUMENT TYPE>  (5565) 
EI-B

>  <INSTRUMENT>  (5565) 
HITACHI RMU-7L

>  <ION MODE>  (5565) 
P

>  <INCHIKEY>  (5565) 
IAFJNCMUCQDWCR-UHFFFAOYSA-N

>  <FORMULA>  (5565) 
C11H10O4

>  <EXACT MASS>  (5565) 
206.0579088

>  <MW>  (5565) 
206

>  <ID>  (5565) 
JP003129

>  <CONTRIBUTOR>  (5565) 
University of Tokyo Team, {Faculty of Engineering, University of Tokyo

>  <COMMENT>  (5565) 
SMILES=COc(c2)cc(O1)c(c2)C=C(OC)C(=O)1
InChI=InChI=1S/C11H10O4/c1-13-8-4-3-7-5-10(14-2)11(12)15-9(7)6-8/h3-6H,1-2H3
computed SMILES=O=C1OC=2C=C(OC)C=CC2C=C1OC
accession=JP003129
date=2016.01.19 (Created 2008.10.21, modified 2011.05.06)
author=NAKAYAMA M, MASS SPECTROSCOPY SOC. OF JAPAN (MSSJ)
license=CC BY-NC-SA
exact mass=206.05791
ionization energy=70 eV
ion type=[M]+*
computed spectral entropy=1.8068638323062802
computed normalized entropy=0.6846625922179942
SPLASH=splash10-0bt9-0960000000-b870b696fff31418363b
submitter=submitter = University of Tokyo Team (Faculty of Engineering, University of Tokyo)
MoNA Rating=3.75

>  <NUM PEAKS>  (5565) 
14

>  <MASS SPECTRAL PEAKS>  (5565) 
92 9
119 2
120 2
135 26
149 6
161 3
163 85
164 8
177 20
191 2
192 3
205 3
206 99.99
207 10

$$$$

     RDKit          2D

 15 16  0  0  0  0  0  0  0  0999 V2000
   -5.1981    0.7504    0.0000 C   0  0  0  0  0  0  0  0  0  0  0  0
    2.5990   -3.7500    0.0000 C   0  0  0  0  0  0  0  0  0  0  0  0
   -2.6000   -0.7500    0.0000 C   0  0  0  0  0  0  0  0  0  0  0  0
   -1.3000   -1.5000    0.0000 C   0  0  0  0  0  0  0  0  0  0  0  0
   -1.3000    1.5000    0.0000 C   0  0  0  0  0  0  0  0  0  0  0  0
    2.6000   -0.7500    0.0000 C   0  0  0  0  0  0  0  0  0  0  0  0
   -2.6000    0.7500    0.0000 C   0  0  0  0  0  0  0  0  0  0  0  0
    0.0000   -0.7500    0.0000 C   0  0  0  0  0  0  0  0  0  0  0  0
    1.3000   -1.5000    0.0000 C   0  0  0  0  0  0  0  0  0  0  0  0
    0.0000    0.7500    0.0000 C   0  0  0  0  0  0  0  0  0  0  0  0
    2.6000    0.7500    0.0000 C   0  0  0  0  0  0  0  0  0  0  0  0
    3.8989    1.5002    0.0000 O   0  0  0  0  0  0  0  0  0  0  0  0
   -3.8989    1.5002    0.0000 O   0  0  0  0  0  0  0  0  0  0  0  0
    1.3000   -3.0000    0.0000 O   0  0  0  0  0  0  0  0  0  0  0  0
    1.3000    1.5000    0.0000 O   0  0  0  0  0  0  0  0  0  0  0  0
  4  3  2  0
  7  3  1  0
  7  5  2  0
  8  4  1  0
  9  6  2  0
  9  8  1  0
 10  5  1  0
 10  8  2  0
 11  6  1  0
 12 11  2  0
 13  1  1  0
 13  7  1  0
 14  2  1  0
 14  9  1  0
 15 10  1  0
 15 11  1  0
M  END
>  <NAME>  (5566) 
4,7-DIMETHOXYCOUMARIN

>  <SYNONYMS>  (5566) 


>  <SPECTRUM TYPE>  (5566) 
MS1

>  <INSTRUMENT TYPE>  (5566) 
EI-B

>  <INSTRUMENT>  (5566) 
HITACHI RMU-7L

>  <ION MODE>  (5566) 
P

>  <INCHIKEY>  (5566) 
UOOULHJCQCLGGT-UHFFFAOYSA-N

>  <FORMULA>  (5566) 
C11H10O4

>  <EXACT MASS>  (5566) 
206.0579088

>  <MW>  (5566) 
206

>  <ID>  (5566) 
JP003128

>  <CONTRIBUTOR>  (5566) 
University of Tokyo Team, {Faculty of Engineering, University of Tokyo

>  <COMMENT>  (5566) 
SMILES=COc(c2)cc(O1)c(c2)C(OC)=CC(=O)1
InChI=InChI=1S/C11H10O4/c1-13-7-3-4-8-9(14-2)6-11(12)15-10(8)5-7/h3-6H,1-2H3
computed SMILES=O=C1OC=2C=C(OC)C=CC2C(OC)=C1
accession=JP003128
date=2016.01.19 (Created 2008.10.21, modified 2011.05.06)
author=NAKAYAMA M, MASS SPECTROSCOPY SOC. OF JAPAN (MSSJ)
license=CC BY-NC-SA
exact mass=206.05791
ionization energy=70 eV
ion type=[M]+*
computed spectral entropy=1.8587939589153426
computed normalized entropy=0.7246903154278813
SPLASH=splash10-0a4i-0980000000-b066de2c5487fbc8dc1a
submitter=submitter = University of Tokyo Team (Faculty of Engineering, University of Tokyo)
MoNA Rating=3.75

>  <NUM PEAKS>  (5566) 
13

>  <MASS SPECTRAL PEAKS>  (5566) 
92 5
119 2
120 5
135 20
148 10
149 3
163 21
164 3
178 54
179 7
205 4
206 99.99
207 11

$$$$

     RDKit          2D

 17 19  0  0  0  0  0  0  0  0999 V2000
    6.1881    0.7529    0.0000 C   0  0  0  0  0  0  0  0  0  0  0  0
   -3.0400    1.2000    0.0000 C   0  0  0  0  0  0  0  0  0  0  0  0
   -3.9100   -0.0200    0.0000 C   0  0  0  0  0  0  0  0  0  0  0  0
   -0.3000    1.5000    0.0000 C   0  0  0  0  0  0  0  0  0  0  0  0
   -0.3000   -1.5000    0.0000 C   0  0  0  0  0  0  0  0  0  0  0  0
   -1.6100    0.7500    0.0000 C   0  0  0  0  0  0  0  0  0  0  0  0
    1.0000    0.7500    0.0000 C   0  0  0  0  0  0  0  0  0  0  0  0
   -1.6000   -0.7500    0.0000 C   0  0  0  0  0  0  0  0  0  0  0  0
    0.9900   -0.7500    0.0000 C   0  0  0  0  0  0  0  0  0  0  0  0
    2.2900    1.5200    0.0000 C   0  0  0  0  0  0  0  0  0  0  0  0
    3.5900    0.7600    0.0000 C   0  0  0  0  0  0  0  0  0  0  0  0
    3.5900   -0.7500    0.0000 C   0  0  0  0  0  0  0  0  0  0  0  0
    2.2832    3.0200    0.0000 O   0  0  0  0  0  0  0  0  0  0  0  0
    4.8867   -1.5040    0.0000 O   0  0  0  0  0  0  0  0  0  0  0  0
    4.8911    1.5065    0.0000 O   0  0  0  0  0  0  0  0  0  0  0  0
   -3.0200   -1.2200    0.0000 O   0  0  0  0  0  0  0  0  0  0  0  0
    2.2900   -1.4900    0.0000 O   0  0  0  0  0  0  0  0  0  0  0  0
  3  2  1  0
  6  2  1  0
  6  4  2  0
  7  4  1  0
  8  5  2  0
  8  6  1  0
  9  5  1  0
  9  7  2  0
 10  7  1  0
 11 10  2  0
 12 11  1  0
 13 10  1  0
 14 12  2  0
 15  1  1  0
 15 11  1  0
 16  3  1  0
 16  8  1  0
 17  9  1  0
 17 12  1  0
M  END
>  <NAME>  (5567) 
NORDIHYDROHALKENDIN

>  <SYNONYMS>  (5567) 


>  <SPECTRUM TYPE>  (5567) 
MS1

>  <INSTRUMENT TYPE>  (5567) 
EI-B

>  <INSTRUMENT>  (5567) 
HITACHI RMU-7L

>  <ION MODE>  (5567) 
P

>  <INCHIKEY>  (5567) 
BOAPVINLXIYMQC-UHFFFAOYSA-N

>  <FORMULA>  (5567) 
C12H10O5

>  <EXACT MASS>  (5567) 
234.05282341999998

>  <MW>  (5567) 
234

>  <ID>  (5567) 
JP003127

>  <CONTRIBUTOR>  (5567) 
University of Tokyo Team, {Faculty of Engineering, University of Tokyo

>  <COMMENT>  (5567) 
SMILES=COC(C(=O)3)=C(O)c(c1)c(O3)cc(O2)c(CC2)1
InChI=InChI=1S/C12H10O5/c1-15-11-10(13)7-4-6-2-3-16-8(6)5-9(7)17-12(11)14/h4-5,13H,2-3H2,1H3
computed SMILES=O=C1OC=2C=C3OCCC3=CC2C(O)=C1OC
accession=JP003127
date=2016.01.19 (Created 2008.10.21, modified 2011.05.06)
author=NAKAYAMA M, MASS SPECTROSCOPY SOC. OF JAPAN (MSSJ)
license=CC BY-NC-SA
exact mass=234.05282
ionization energy=70 eV
ion type=[M]+*
computed spectral entropy=1.7892503038728074
computed normalized entropy=0.6975772440371226
SPLASH=splash10-000x-0980000000-14e81c6deabd98287c75
submitter=submitter = University of Tokyo Team (Faculty of Engineering, University of Tokyo)
MoNA Rating=3.75

>  <NUM PEAKS>  (5567) 
13

>  <MASS SPECTRAL PEAKS>  (5567) 
77 10
107 2
121 3
134 2
135 1
149 3
162 5
163 19
191 99.99
192 12
219 47
234 84
235 9

$$$$

     RDKit          2D

 19 21  0  0  0  0  0  0  0  0999 V2000
    3.5720    5.2759    0.0000 C   0  0  0  0  0  0  0  0  0  0  0  0
    6.1881    0.7529    0.0000 C   0  0  0  0  0  0  0  0  0  0  0  0
    3.5788    3.7759    0.0000 C   0  0  0  0  0  0  0  0  0  0  0  0
   -3.0400    1.2000    0.0000 C   0  0  0  0  0  0  0  0  0  0  0  0
   -3.9100   -0.0200    0.0000 C   0  0  0  0  0  0  0  0  0  0  0  0
   -0.3000    1.5000    0.0000 C   0  0  0  0  0  0  0  0  0  0  0  0
   -0.3000   -1.5000    0.0000 C   0  0  0  0  0  0  0  0  0  0  0  0
   -1.6100    0.7500    0.0000 C   0  0  0  0  0  0  0  0  0  0  0  0
    1.0000    0.7500    0.0000 C   0  0  0  0  0  0  0  0  0  0  0  0
   -1.6000   -0.7500    0.0000 C   0  0  0  0  0  0  0  0  0  0  0  0
    0.9900   -0.7500    0.0000 C   0  0  0  0  0  0  0  0  0  0  0  0
    2.2900    1.5200    0.0000 C   0  0  0  0  0  0  0  0  0  0  0  0
    3.5900    0.7600    0.0000 C   0  0  0  0  0  0  0  0  0  0  0  0
    3.5900   -0.7500    0.0000 C   0  0  0  0  0  0  0  0  0  0  0  0
    4.8867   -1.5040    0.0000 O   0  0  0  0  0  0  0  0  0  0  0  0
    4.8911    1.5065    0.0000 O   0  0  0  0  0  0  0  0  0  0  0  0
    2.2832    3.0200    0.0000 O   0  0  0  0  0  0  0  0  0  0  0  0
   -3.0200   -1.2200    0.0000 O   0  0  0  0  0  0  0  0  0  0  0  0
    2.2900   -1.4900    0.0000 O   0  0  0  0  0  0  0  0  0  0  0  0
  3  1  1  0
  5  4  2  0
  8  4  1  0
  8  6  2  0
  9  6  1  0
 10  7  2  0
 10  8  1  0
 11  7  1  0
 11  9  2  0
 12  9  1  0
 13 12  2  0
 14 13  1  0
 15 14  2  0
 16  2  1  0
 16 13  1  0
 17  3  1  0
 17 12  1  0
 18  5  1  0
 18 10  1  0
 19 11  1  0
 19 14  1  0
M  END
>  <NAME>  (5568) 
4-ETHOXY-3-METHOXYFURO(3',2':6,7)COUMARIN

>  <SYNONYMS>  (5568) 


>  <SPECTRUM TYPE>  (5568) 
MS1

>  <INSTRUMENT TYPE>  (5568) 
EI-B

>  <INSTRUMENT>  (5568) 
HITACHI RMU-7L

>  <ION MODE>  (5568) 
P

>  <INCHIKEY>  (5568) 
MZSNYYYDROMEOG-UHFFFAOYSA-N

>  <FORMULA>  (5568) 
C14H12O5

>  <EXACT MASS>  (5568) 
260.068473484

>  <MW>  (5568) 
260

>  <ID>  (5568) 
JP003126

>  <CONTRIBUTOR>  (5568) 
University of Tokyo Team, {Faculty of Engineering, University of Tokyo

>  <COMMENT>  (5568) 
SMILES=CCOC(=C(OC)3)c(c1)c(OC(=O)3)cc(o2)c(cc2)1
InChI=InChI=1S/C14H12O5/c1-3-17-12-9-6-8-4-5-18-10(8)7-11(9)19-14(15)13(12)16-2/h4-7H,3H2,1-2H3
computed SMILES=O=C1OC=2C=C3OC=CC3=CC2C(OCC)=C1OC
accession=JP003126
date=2016.01.19 (Created 2008.10.21, modified 2011.05.06)
author=NAKAYAMA M, MASS SPECTROSCOPY SOC. OF JAPAN (MSSJ)
license=CC BY-NC-SA
exact mass=260.06847
ionization energy=70 eV
ion type=[M]+*
computed spectral entropy=2.6079983111971736
computed normalized entropy=0.8566198359659108
SPLASH=splash10-03di-1970000000-951fa0a76c371b982168
submitter=submitter = University of Tokyo Team (Faculty of Engineering, University of Tokyo)
MoNA Rating=3.75

>  <NUM PEAKS>  (5568) 
21

>  <MASS SPECTRAL PEAKS>  (5568) 
76 27
77 14
87 5
104 12
105 9
116 11
132 17
133 9
144 7
160 53
161 48
189 98
190 11
203 19
214 9
217 50
218 7
232 19
245 5
260 99.99
261 16

$$$$

     RDKit          2D

 18 20  0  0  0  0  0  0  0  0999 V2000
    3.5788    3.7759    0.0000 C   0  0  0  0  0  0  0  0  0  0  0  0
    6.1881    0.7529    0.0000 C   0  0  0  0  0  0  0  0  0  0  0  0
   -3.0400    1.2000    0.0000 C   0  0  0  0  0  0  0  0  0  0  0  0
   -3.9100   -0.0200    0.0000 C   0  0  0  0  0  0  0  0  0  0  0  0
   -0.3000    1.5000    0.0000 C   0  0  0  0  0  0  0  0  0  0  0  0
   -0.3000   -1.5000    0.0000 C   0  0  0  0  0  0  0  0  0  0  0  0
   -1.6100    0.7500    0.0000 C   0  0  0  0  0  0  0  0  0  0  0  0
    1.0000    0.7500    0.0000 C   0  0  0  0  0  0  0  0  0  0  0  0
   -1.6000   -0.7500    0.0000 C   0  0  0  0  0  0  0  0  0  0  0  0
    0.9900   -0.7500    0.0000 C   0  0  0  0  0  0  0  0  0  0  0  0
    2.2900    1.5200    0.0000 C   0  0  0  0  0  0  0  0  0  0  0  0
    3.5900    0.7600    0.0000 C   0  0  0  0  0  0  0  0  0  0  0  0
    3.5900   -0.7500    0.0000 C   0  0  0  0  0  0  0  0  0  0  0  0
    4.8867   -1.5040    0.0000 O   0  0  0  0  0  0  0  0  0  0  0  0
    2.2832    3.0200    0.0000 O   0  0  0  0  0  0  0  0  0  0  0  0
    4.8911    1.5065    0.0000 O   0  0  0  0  0  0  0  0  0  0  0  0
   -3.0200   -1.2200    0.0000 O   0  0  0  0  0  0  0  0  0  0  0  0
    2.2900   -1.4900    0.0000 O   0  0  0  0  0  0  0  0  0  0  0  0
  4  3  1  0
  7  3  1  0
  7  5  2  0
  8  5  1  0
  9  6  2  0
  9  7  1  0
 10  6  1  0
 10  8  2  0
 11  8  1  0
 12 11  2  0
 13 12  1  0
 14 13  2  0
 15  1  1  0
 15 11  1  0
 16  2  1  0
 16 12  1  0
 17  4  1  0
 17  9  1  0
 18 10  1  0
 18 13  1  0
M  END
>  <NAME>  (5569) 
DIHYDROHALKENDIN

>  <SYNONYMS>  (5569) 


>  <SPECTRUM TYPE>  (5569) 
MS1

>  <INSTRUMENT TYPE>  (5569) 
EI-B

>  <INSTRUMENT>  (5569) 
HITACHI RMU-7L

>  <ION MODE>  (5569) 
P

>  <INCHIKEY>  (5569) 
ALFYPNXHSPCORY-UHFFFAOYSA-N

>  <FORMULA>  (5569) 
C13H12O5

>  <EXACT MASS>  (5569) 
248.06847348399998

>  <MW>  (5569) 
248

>  <ID>  (5569) 
JP003124

>  <CONTRIBUTOR>  (5569) 
University of Tokyo Team, {Faculty of Engineering, University of Tokyo

>  <COMMENT>  (5569) 
SMILES=COC(C(=O)3)=C(OC)c(c1)c(O3)cc(O2)c(CC2)1
InChI=InChI=1S/C13H12O5/c1-15-11-8-5-7-3-4-17-9(7)6-10(8)18-13(14)12(11)16-2/h5-6H,3-4H2,1-2H3
computed SMILES=O=C1OC=2C=C3OCCC3=CC2C(OC)=C1OC
accession=JP003124
date=2016.01.19 (Created 2008.10.21, modified 2011.05.06)
author=NAKAYAMA M, MASS SPECTROSCOPY SOC. OF JAPAN (MSSJ)
license=CC BY-NC-SA
exact mass=248.06847
ionization energy=70 eV
ion type=[M]+*
computed spectral entropy=1.7803152438075047
computed normalized entropy=0.7164515592404215
SPLASH=splash10-0a4j-0190000000-f6298bc30025bd1fa0b2
submitter=submitter = University of Tokyo Team (Faculty of Engineering, University of Tokyo)
MoNA Rating=3.75

>  <NUM PEAKS>  (5569) 
12

>  <MASS SPECTRAL PEAKS>  (5569) 
78 7
91 3
106 4
118 2
134 9
162 14
177 7
205 99.99
206 12
233 16
248 84
249 12

$$$$

     RDKit          2D

 18 20  0  0  0  0  0  0  0  0999 V2000
    3.5788    3.7759    0.0000 C   0  0  0  0  0  0  0  0  0  0  0  0
    6.1881    0.7529    0.0000 C   0  0  0  0  0  0  0  0  0  0  0  0
   -3.0400    1.2000    0.0000 C   0  0  0  0  0  0  0  0  0  0  0  0
   -3.9100   -0.0200    0.0000 C   0  0  0  0  0  0  0  0  0  0  0  0
   -0.3000    1.5000    0.0000 C   0  0  0  0  0  0  0  0  0  0  0  0
   -0.3000   -1.5000    0.0000 C   0  0  0  0  0  0  0  0  0  0  0  0
   -1.6100    0.7500    0.0000 C   0  0  0  0  0  0  0  0  0  0  0  0
    1.0000    0.7500    0.0000 C   0  0  0  0  0  0  0  0  0  0  0  0
   -1.6000   -0.7500    0.0000 C   0  0  0  0  0  0  0  0  0  0  0  0
    0.9900   -0.7500    0.0000 C   0  0  0  0  0  0  0  0  0  0  0  0
    2.2900    1.5200    0.0000 C   0  0  0  0  0  0  0  0  0  0  0  0
    3.5900    0.7600    0.0000 C   0  0  0  0  0  0  0  0  0  0  0  0
    3.5900   -0.7500    0.0000 C   0  0  0  0  0  0  0  0  0  0  0  0
    4.8867   -1.5040    0.0000 O   0  0  0  0  0  0  0  0  0  0  0  0
    2.2832    3.0200    0.0000 O   0  0  0  0  0  0  0  0  0  0  0  0
    4.8911    1.5065    0.0000 O   0  0  0  0  0  0  0  0  0  0  0  0
   -3.0200   -1.2200    0.0000 O   0  0  0  0  0  0  0  0  0  0  0  0
    2.2900   -1.4900    0.0000 O   0  0  0  0  0  0  0  0  0  0  0  0
  4  3  2  0
  7  3  1  0
  7  5  2  0
  8  5  1  0
  9  6  2  0
  9  7  1  0
 10  6  1  0
 10  8  2  0
 11  8  1  0
 12 11  2  0
 13 12  1  0
 14 13  2  0
 15  1  1  0
 15 11  1  0
 16  2  1  0
 16 12  1  0
 17  4  1  0
 17  9  1  0
 18 10  1  0
 18 13  1  0
M  END
>  <NAME>  (5570) 
HALKENDIN

>  <SYNONYMS>  (5570) 


>  <SPECTRUM TYPE>  (5570) 
MS1

>  <INSTRUMENT TYPE>  (5570) 
EI-B

>  <INSTRUMENT>  (5570) 
HITACHI RMU-7L

>  <ION MODE>  (5570) 
P

>  <INCHIKEY>  (5570) 
NYELECLICIMRBA-UHFFFAOYSA-N

>  <FORMULA>  (5570) 
C13H10O5

>  <EXACT MASS>  (5570) 
246.05282341999998

>  <MW>  (5570) 
246

>  <ID>  (5570) 
JP003123

>  <CONTRIBUTOR>  (5570) 
University of Tokyo Team, {Faculty of Engineering, University of Tokyo

>  <COMMENT>  (5570) 
SMILES=COC(C(=O)3)=C(OC)c(c1)c(O3)cc(o2)c(cc2)1
InChI=InChI=1S/C13H10O5/c1-15-11-8-5-7-3-4-17-9(7)6-10(8)18-13(14)12(11)16-2/h3-6H,1-2H3
computed SMILES=O=C1OC=2C=C3OC=CC3=CC2C(OC)=C1OC
accession=JP003123
date=2016.01.19 (Created 2008.10.21, modified 2011.05.06)
author=NAKAYAMA M, MASS SPECTROSCOPY SOC. OF JAPAN (MSSJ)
license=CC BY-NC-SA
exact mass=246.05282
ionization energy=70 eV
ion type=[M]+*
computed spectral entropy=2.3554156555658263
computed normalized entropy=0.8313583798788894
SPLASH=splash10-0w59-3980000000-ebc95cff4b4665760105
submitter=submitter = University of Tokyo Team (Faculty of Engineering, University of Tokyo)
MoNA Rating=3.75

>  <NUM PEAKS>  (5570) 
17

>  <MASS SPECTRAL PEAKS>  (5570) 
75 14
76 62
104 25
116 19
117 13
132 55
160 76
161 9
175 4
186 4
203 99.99
204 12
215 4
217 3
231 14
246 57
247 7

$$$$

     RDKit          2D

 16 18  0  0  0  0  0  0  0  0999 V2000
    3.5788    3.7759    0.0000 C   0  0  0  0  0  0  0  0  0  0  0  0
   -3.0400    1.2000    0.0000 C   0  0  0  0  0  0  0  0  0  0  0  0
   -3.9100   -0.0200    0.0000 C   0  0  0  0  0  0  0  0  0  0  0  0
   -0.3000    1.5000    0.0000 C   0  0  0  0  0  0  0  0  0  0  0  0
   -0.3000   -1.5000    0.0000 C   0  0  0  0  0  0  0  0  0  0  0  0
    3.5900    0.7600    0.0000 C   0  0  0  0  0  0  0  0  0  0  0  0
   -1.6100    0.7500    0.0000 C   0  0  0  0  0  0  0  0  0  0  0  0
    1.0000    0.7500    0.0000 C   0  0  0  0  0  0  0  0  0  0  0  0
   -1.6000   -0.7500    0.0000 C   0  0  0  0  0  0  0  0  0  0  0  0
    2.2900    1.5200    0.0000 C   0  0  0  0  0  0  0  0  0  0  0  0
    0.9900   -0.7500    0.0000 C   0  0  0  0  0  0  0  0  0  0  0  0
    3.5900   -0.7500    0.0000 C   0  0  0  0  0  0  0  0  0  0  0  0
    4.8867   -1.5040    0.0000 O   0  0  0  0  0  0  0  0  0  0  0  0
    2.2832    3.0200    0.0000 O   0  0  0  0  0  0  0  0  0  0  0  0
   -3.0200   -1.2200    0.0000 O   0  0  0  0  0  0  0  0  0  0  0  0
    2.2900   -1.4900    0.0000 O   0  0  0  0  0  0  0  0  0  0  0  0
  3  2  1  0
  7  2  1  0
  7  4  2  0
  8  4  1  0
  9  5  2  0
  9  7  1  0
 10  6  2  0
 10  8  1  0
 11  5  1  0
 11  8  2  0
 12  6  1  0
 13 12  2  0
 14  1  1  0
 14 10  1  0
 15  3  1  0
 15  9  1  0
 16 11  1  0
 16 12  1  0
M  END
>  <NAME>  (5571) 
4-METHOXYDIHYDROFURO(3',2':6,7)COUMARIN

>  <SYNONYMS>  (5571) 


>  <SPECTRUM TYPE>  (5571) 
MS1

>  <INSTRUMENT TYPE>  (5571) 
EI-B

>  <INSTRUMENT>  (5571) 
HITACHI RMU-7L

>  <ION MODE>  (5571) 
P

>  <INCHIKEY>  (5571) 
ZPMOZEGREMLNLM-UHFFFAOYSA-N

>  <FORMULA>  (5571) 
C12H10O4

>  <EXACT MASS>  (5571) 
218.0579088

>  <MW>  (5571) 
218

>  <ID>  (5571) 
JP003122

>  <CONTRIBUTOR>  (5571) 
University of Tokyo Team, {Faculty of Engineering, University of Tokyo

>  <COMMENT>  (5571) 
SMILES=COC(=C3)c(c1)c(OC(=O)3)cc(O2)c(CC2)1
InChI=InChI=1S/C12H10O4/c1-14-10-6-12(13)16-11-5-9-7(2-3-15-9)4-8(10)11/h4-6H,2-3H2,1H3
computed SMILES=O=C1OC=2C=C3OCCC3=CC2C(OC)=C1
accession=JP003122
date=2016.01.19 (Created 2008.10.21, modified 2011.05.06)
author=NAKAYAMA M, MASS SPECTROSCOPY SOC. OF JAPAN (MSSJ)
license=CC BY-NC-SA
exact mass=218.05791
ionization energy=70 eV
ion type=[M]+*
computed spectral entropy=1.7520785419688254
computed normalized entropy=0.7609180426381558
SPLASH=splash10-014l-1970000000-d1db3e55c25576d57a63
submitter=submitter = University of Tokyo Team (Faculty of Engineering, University of Tokyo)
MoNA Rating=3.75

>  <NUM PEAKS>  (5571) 
10

>  <MASS SPECTRAL PEAKS>  (5571) 
77 8
91 8
109 5
147 31
160 7
175 11
190 73
191 10
218 99.99
219 12

$$$$

     RDKit          2D

 16 18  0  0  0  0  0  0  0  0999 V2000
    3.5788    3.7759    0.0000 C   0  0  0  0  0  0  0  0  0  0  0  0
   -3.0400    1.2000    0.0000 C   0  0  0  0  0  0  0  0  0  0  0  0
   -3.9100   -0.0200    0.0000 C   0  0  0  0  0  0  0  0  0  0  0  0
   -0.3000    1.5000    0.0000 C   0  0  0  0  0  0  0  0  0  0  0  0
   -0.3000   -1.5000    0.0000 C   0  0  0  0  0  0  0  0  0  0  0  0
    3.5900    0.7600    0.0000 C   0  0  0  0  0  0  0  0  0  0  0  0
   -1.6100    0.7500    0.0000 C   0  0  0  0  0  0  0  0  0  0  0  0
    1.0000    0.7500    0.0000 C   0  0  0  0  0  0  0  0  0  0  0  0
   -1.6000   -0.7500    0.0000 C   0  0  0  0  0  0  0  0  0  0  0  0
    2.2900    1.5200    0.0000 C   0  0  0  0  0  0  0  0  0  0  0  0
    0.9900   -0.7500    0.0000 C   0  0  0  0  0  0  0  0  0  0  0  0
    3.5900   -0.7500    0.0000 C   0  0  0  0  0  0  0  0  0  0  0  0
    4.8867   -1.5040    0.0000 O   0  0  0  0  0  0  0  0  0  0  0  0
    2.2832    3.0200    0.0000 O   0  0  0  0  0  0  0  0  0  0  0  0
   -3.0200   -1.2200    0.0000 O   0  0  0  0  0  0  0  0  0  0  0  0
    2.2900   -1.4900    0.0000 O   0  0  0  0  0  0  0  0  0  0  0  0
  3  2  2  0
  7  2  1  0
  7  4  2  0
  8  4  1  0
  9  5  2  0
  9  7  1  0
 10  6  2  0
 10  8  1  0
 11  5  1  0
 11  8  2  0
 12  6  1  0
 13 12  2  0
 14  1  1  0
 14 10  1  0
 15  3  1  0
 15  9  1  0
 16 11  1  0
 16 12  1  0
M  END
>  <NAME>  (5572) 
4-METHOXYFURO(3',2':6,7)COUMARIN

>  <SYNONYMS>  (5572) 


>  <SPECTRUM TYPE>  (5572) 
MS1

>  <INSTRUMENT TYPE>  (5572) 
EI-B

>  <INSTRUMENT>  (5572) 
HITACHI RMU-7L

>  <ION MODE>  (5572) 
P

>  <INCHIKEY>  (5572) 
IFBJMRYEEKIECT-UHFFFAOYSA-N

>  <FORMULA>  (5572) 
C12H8O4

>  <EXACT MASS>  (5572) 
216.042258736

>  <MW>  (5572) 
216

>  <ID>  (5572) 
JP003121

>  <CONTRIBUTOR>  (5572) 
University of Tokyo Team, {Faculty of Engineering, University of Tokyo

>  <COMMENT>  (5572) 
SMILES=COC(=C3)c(c1)c(OC(=O)3)cc(o2)c(cc2)1
InChI=InChI=1S/C12H8O4/c1-14-10-6-12(13)16-11-5-9-7(2-3-15-9)4-8(10)11/h2-6H,1H3
computed SMILES=O=C1OC2=CC=3OC=CC3C=C2C(OC)=C1
accession=JP003121
date=2016.01.19 (Created 2008.10.21, modified 2011.05.06)
author=NAKAYAMA M, MASS SPECTROSCOPY SOC. OF JAPAN (MSSJ)
license=CC BY-NC-SA
exact mass=216.04226
ionization energy=70 eV
ion type=[M]+*
computed spectral entropy=1.6230241227443405
computed normalized entropy=0.7805096177088068
SPLASH=splash10-014i-0890000000-f8903e1e0b7bd470403f
submitter=submitter = University of Tokyo Team (Faculty of Engineering, University of Tokyo)
MoNA Rating=3.75

>  <NUM PEAKS>  (5572) 
8

>  <MASS SPECTRAL PEAKS>  (5572) 
89 9
117 5
145 17
158 16
173 19
188 40
216 99.99
217 8

$$$$

     RDKit          2D

 17 19  0  0  0  0  0  0  0  0999 V2000
    6.1881    0.7529    0.0000 C   0  0  0  0  0  0  0  0  0  0  0  0
   -3.0400    1.2000    0.0000 C   0  0  0  0  0  0  0  0  0  0  0  0
   -3.9100   -0.0200    0.0000 C   0  0  0  0  0  0  0  0  0  0  0  0
   -0.3000    1.5000    0.0000 C   0  0  0  0  0  0  0  0  0  0  0  0
   -0.3000   -1.5000    0.0000 C   0  0  0  0  0  0  0  0  0  0  0  0
   -1.6100    0.7500    0.0000 C   0  0  0  0  0  0  0  0  0  0  0  0
    1.0000    0.7500    0.0000 C   0  0  0  0  0  0  0  0  0  0  0  0
   -1.6000   -0.7500    0.0000 C   0  0  0  0  0  0  0  0  0  0  0  0
    0.9900   -0.7500    0.0000 C   0  0  0  0  0  0  0  0  0  0  0  0
    2.2900    1.5200    0.0000 C   0  0  0  0  0  0  0  0  0  0  0  0
    3.5900    0.7600    0.0000 C   0  0  0  0  0  0  0  0  0  0  0  0
    3.5900   -0.7500    0.0000 C   0  0  0  0  0  0  0  0  0  0  0  0
    2.2832    3.0200    0.0000 O   0  0  0  0  0  0  0  0  0  0  0  0
    4.8867   -1.5040    0.0000 O   0  0  0  0  0  0  0  0  0  0  0  0
    4.8911    1.5065    0.0000 O   0  0  0  0  0  0  0  0  0  0  0  0
   -3.0200   -1.2200    0.0000 O   0  0  0  0  0  0  0  0  0  0  0  0
    2.2900   -1.4900    0.0000 O   0  0  0  0  0  0  0  0  0  0  0  0
  3  2  2  0
  6  2  1  0
  6  4  2  0
  7  4  1  0
  8  5  2  0
  8  6  1  0
  9  5  1  0
  9  7  2  0
 10  7  1  0
 11 10  2  0
 12 11  1  0
 13 10  1  0
 14 12  2  0
 15  1  1  0
 15 11  1  0
 16  3  1  0
 16  8  1  0
 17  9  1  0
 17 12  1  0
M  END
>  <NAME>  (5573) 
NORHALKENDIN

>  <SYNONYMS>  (5573) 


>  <SPECTRUM TYPE>  (5573) 
MS1

>  <INSTRUMENT TYPE>  (5573) 
EI-B

>  <INSTRUMENT>  (5573) 
AEI-GEC MS-902

>  <ION MODE>  (5573) 
P

>  <INCHIKEY>  (5573) 
DSWVVCVDHBZKEH-UHFFFAOYSA-N

>  <FORMULA>  (5573) 
C12H8O5

>  <EXACT MASS>  (5573) 
232.03717335599998

>  <MW>  (5573) 
232

>  <ID>  (5573) 
JP003120

>  <CONTRIBUTOR>  (5573) 
University of Tokyo Team, {Faculty of Engineering, University of Tokyo

>  <COMMENT>  (5573) 
SMILES=COC(C(=O)3)=C(O)c(c1)c(O3)cc(o2)c(cc2)1
InChI=InChI=1S/C12H8O5/c1-15-11-10(13)7-4-6-2-3-16-8(6)5-9(7)17-12(11)14/h2-5,13H,1H3
computed SMILES=O=C1OC=2C=C3OC=CC3=CC2C(O)=C1OC
ion type=[M]+*
accession=JP003120
date=2016.01.19 (Created 2008.10.21, modified 2011.05.06)
author=NAKAYAMA M, MASS SPECTROSCOPY SOC. OF JAPAN (MSSJ)
license=CC BY-NC-SA
exact mass=232.03717
ionization energy=70 eV
computed spectral entropy=1.6633283944408819
computed normalized entropy=0.7998918753432207
SPLASH=splash10-001i-0690000000-c384c29f9501062a733e
submitter=submitter = University of Tokyo Team (Faculty of Engineering, University of Tokyo)
MoNA Rating=3.75

>  <NUM PEAKS>  (5573) 
8

>  <MASS SPECTRAL PEAKS>  (5573) 
133 9
161 50
189 41
203 5
214 6
217 23
232 99.99
233 15

$$$$

     RDKit          2D

 19 21  0  0  0  0  0  0  0  0999 V2000
   -1.5953    3.7521    0.0000 C   0  0  0  0  0  0  0  0  0  0  0  0
    3.5788    3.7759    0.0000 C   0  0  0  0  0  0  0  0  0  0  0  0
   -3.0400    1.2000    0.0000 C   0  0  0  0  0  0  0  0  0  0  0  0
   -3.9100   -0.0200    0.0000 C   0  0  0  0  0  0  0  0  0  0  0  0
   -0.3000   -1.5000    0.0000 C   0  0  0  0  0  0  0  0  0  0  0  0
   -1.6100    0.7500    0.0000 C   0  0  0  0  0  0  0  0  0  0  0  0
   -1.6000   -0.7500    0.0000 C   0  0  0  0  0  0  0  0  0  0  0  0
    0.9900   -0.7500    0.0000 C   0  0  0  0  0  0  0  0  0  0  0  0
    1.0000    0.7500    0.0000 C   0  0  0  0  0  0  0  0  0  0  0  0
    3.5900    0.7600    0.0000 C   0  0  0  0  0  0  0  0  0  0  0  0
   -0.3000    1.5000    0.0000 C   0  0  0  0  0  0  0  0  0  0  0  0
    2.2900    1.5200    0.0000 C   0  0  0  0  0  0  0  0  0  0  0  0
    3.5900   -0.7500    0.0000 C   0  0  0  0  0  0  0  0  0  0  0  0
    4.8911    1.5065    0.0000 O   0  0  0  0  0  0  0  0  0  0  0  0
    4.8867   -1.5040    0.0000 O   0  0  0  0  0  0  0  0  0  0  0  0
   -0.2975    3.0000    0.0000 O   0  0  0  0  0  0  0  0  0  0  0  0
    2.2832    3.0200    0.0000 O   0  0  0  0  0  0  0  0  0  0  0  0
   -3.0200   -1.2200    0.0000 O   0  0  0  0  0  0  0  0  0  0  0  0
    2.2900   -1.4900    0.0000 O   0  0  0  0  0  0  0  0  0  0  0  0
  4  3  2  0
  6  3  1  0
  7  5  1  0
  7  6  2  0
  8  5  2  0
  9  8  1  0
 11  6  1  0
 11  9  2  0
 12  9  1  0
 12 10  2  0
 13 10  1  0
 14 10  1  0
 15 13  2  0
 16  1  1  0
 16 11  1  0
 17  2  1  0
 17 12  1  0
 18  4  1  0
 18  7  1  0
 19  8  1  0
 19 13  1  0
M  END
>  <NAME>  (5574) 
NORHALFORDIN

>  <SYNONYMS>  (5574) 


>  <SPECTRUM TYPE>  (5574) 
MS1

>  <INSTRUMENT TYPE>  (5574) 
EI-B

>  <INSTRUMENT>  (5574) 
AEI-GEC MS-902

>  <ION MODE>  (5574) 
P

>  <INCHIKEY>  (5574) 
APULTQVAACQYFJ-UHFFFAOYSA-N

>  <FORMULA>  (5574) 
C13H10O6

>  <EXACT MASS>  (5574) 
262.04773804

>  <MW>  (5574) 
262

>  <ID>  (5574) 
JP003118

>  <CONTRIBUTOR>  (5574) 
University of Tokyo Team, {Faculty of Engineering, University of Tokyo

>  <COMMENT>  (5574) 
SMILES=COC(=C(O)3)c(c(OC(=O)3)1)c(OC)c(c2)c(oc2)c1
InChI=InChI=1S/C13H10O6/c1-16-11-6-3-4-18-7(6)5-8-9(11)12(17-2)10(14)13(15)19-8/h3-5,14H,1-2H3
computed SMILES=O=C1OC2=CC=3OC=CC3C(OC)=C2C(OC)=C1O
accession=JP003118
date=2016.01.19 (Created 2008.10.21, modified 2011.05.06)
author=NAKAYAMA M, MASS SPECTROSCOPY SOC. OF JAPAN (MSSJ)
license=CC BY-NC-SA
exact mass=262.04774
ionization energy=70 eV
ion type=[M]+*
computed spectral entropy=1.6306824378437628
computed normalized entropy=0.7841924887806407
SPLASH=splash10-03di-0490000000-ded03dbfe2f448e90152
submitter=submitter = University of Tokyo Team (Faculty of Engineering, University of Tokyo)
MoNA Rating=3.75

>  <NUM PEAKS>  (5574) 
8

>  <MASS SPECTRAL PEAKS>  (5574) 
120 3
148 4
176 38
191 38
219 46
233 4
247 20
262 99.99

$$$$

     RDKit          2D

 23 25  0  0  0  0  0  0  0  0999 V2000
   -1.5953    3.7521    0.0000 C   0  0  0  0  0  0  0  0  0  0  0  0
    3.5788    3.7759    0.0000 C   0  0  0  0  0  0  0  0  0  0  0  0
    6.1881    0.7529    0.0000 C   0  0  0  0  0  0  0  0  0  0  0  0
    5.4345   -0.5441    0.0000 H   0  0  0  0  0  0  0  0  0  0  0  0
    7.4851   -0.0006    0.0000 H   0  0  0  0  0  0  0  0  0  0  0  0
    6.9416    2.0499    0.0000 H   0  0  0  0  0  0  0  0  0  0  0  0
   -3.0400    1.2000    0.0000 C   0  0  0  0  0  0  0  0  0  0  0  0
   -3.9100   -0.0200    0.0000 C   0  0  0  0  0  0  0  0  0  0  0  0
   -0.3000   -1.5000    0.0000 C   0  0  0  0  0  0  0  0  0  0  0  0
   -1.6100    0.7500    0.0000 C   0  0  0  0  0  0  0  0  0  0  0  0
   -1.6000   -0.7500    0.0000 C   0  0  0  0  0  0  0  0  0  0  0  0
    0.9900   -0.7500    0.0000 C   0  0  0  0  0  0  0  0  0  0  0  0
    1.0000    0.7500    0.0000 C   0  0  0  0  0  0  0  0  0  0  0  0
   -0.3000    1.5000    0.0000 C   0  0  0  0  0  0  0  0  0  0  0  0
    2.2900    1.5200    0.0000 C   0  0  0  0  0  0  0  0  0  0  0  0
    3.5900    0.7600    0.0000 C   0  0  0  0  0  0  0  0  0  0  0  0
    3.5900   -0.7500    0.0000 C   0  0  0  0  0  0  0  0  0  0  0  0
    4.8867   -1.5040    0.0000 O   0  0  0  0  0  0  0  0  0  0  0  0
   -0.2975    3.0000    0.0000 O   0  0  0  0  0  0  0  0  0  0  0  0
    2.2832    3.0200    0.0000 O   0  0  0  0  0  0  0  0  0  0  0  0
    4.8911    1.5065    0.0000 O   0  0  0  0  0  0  0  0  0  0  0  0
   -3.0200   -1.2200    0.0000 O   0  0  0  0  0  0  0  0  0  0  0  0
    2.2900   -1.4900    0.0000 O   0  0  0  0  0  0  0  0  0  0  0  0
  3  4  1  0
  3  5  1  0
  3  6  1  0
  8  7  2  0
 10  7  1  0
 11  9  1  0
 11 10  2  0
 12  9  2  0
 13 12  1  0
 14 10  1  0
 14 13  2  0
 15 13  1  0
 16 15  2  0
 17 16  1  0
 18 17  2  0
 19  1  1  0
 19 14  1  0
 20  2  1  0
 20 15  1  0
 21  3  1  0
 21 16  1  0
 22  8  1  0
 22 11  1  0
 23 12  1  0
 23 17  1  0
M  ISO  3   4   2   5   2   6   2
M  END
>  <NAME>  (5575) 
HALFORDIN (14-CD3)

>  <SYNONYMS>  (5575) 


>  <SPECTRUM TYPE>  (5575) 
MS1

>  <INSTRUMENT TYPE>  (5575) 
EI-B

>  <INSTRUMENT>  (5575) 
AEI-GEC MS-902

>  <ION MODE>  (5575) 
P

>  <INCHIKEY>  (5575) 
SHOQQSABOUVQLJ-HPRDVNIFSA-N

>  <FORMULA>  (5575) 
C14H12O6

>  <EXACT MASS>  (5575) 
279.082218342

>  <MW>  (5575) 
279

>  <ID>  (5575) 
JP003117

>  <CONTRIBUTOR>  (5575) 
University of Tokyo Team, {Faculty of Engineering, University of Tokyo

>  <COMMENT>  (5575) 
SMILES=[2H]C([2H])([2H])OC(C(=O)3)=C(OC)c(c(O3)1)c(OC)c(c2)c(oc2)c1
InChI=InChI=1S/C14H12O6/c1-16-11-7-4-5-19-8(7)6-9-10(11)12(17-2)13(18-3)14(15)20-9/h4-6H,1-3H3/i3D3
computed SMILES=[H]C([H])([H])OC=1C(=O)OC2=CC=3OC=CC3C(OC)=C2C1OC
accession=JP003117
date=2016.01.19 (Created 2008.10.21, modified 2011.05.06)
author=NAKAYAMA M, MASS SPECTROSCOPY SOC. OF JAPAN (MSSJ)
license=CC BY-NC-SA
exact mass=276.06339
ionization energy=70 eV
ion type=[M]+*
computed spectral entropy=1.645869784262948
computed normalized entropy=0.7147921652366938
SPLASH=splash10-004r-0290000000-138f0117ccc0ad58fb49
submitter=submitter = University of Tokyo Team (Faculty of Engineering, University of Tokyo)
MoNA Rating=3.75

>  <NUM PEAKS>  (5575) 
10

>  <MASS SPECTRAL PEAKS>  (5575) 
119 3
147 9
175 7
190 18
193 4
221 6
236 51
261 3
264 20
279 99.99

$$$$

     RDKit          2D

 24 26  0  0  0  0  0  0  0  0999 V2000
    4.8676    6.0318    0.0000 C   0  0  0  0  0  0  0  0  0  0  0  0
    4.0982    2.3687    0.0000 C   0  0  0  0  0  0  0  0  0  0  0  0
    5.0548    4.0431    0.0000 C   0  0  0  0  0  0  0  0  0  0  0  0
   -1.5953    3.7521    0.0000 C   0  0  0  0  0  0  0  0  0  0  0  0
    6.1881    0.7529    0.0000 C   0  0  0  0  0  0  0  0  0  0  0  0
    3.5720    5.2759    0.0000 C   0  0  0  0  0  0  0  0  0  0  0  0
   -3.0400    1.2000    0.0000 C   0  0  0  0  0  0  0  0  0  0  0  0
   -3.9100   -0.0200    0.0000 C   0  0  0  0  0  0  0  0  0  0  0  0
   -0.3000   -1.5000    0.0000 C   0  0  0  0  0  0  0  0  0  0  0  0
   -1.6100    0.7500    0.0000 C   0  0  0  0  0  0  0  0  0  0  0  0
   -1.6000   -0.7500    0.0000 C   0  0  0  0  0  0  0  0  0  0  0  0
    0.9900   -0.7500    0.0000 C   0  0  0  0  0  0  0  0  0  0  0  0
    1.0000    0.7500    0.0000 C   0  0  0  0  0  0  0  0  0  0  0  0
   -0.3000    1.5000    0.0000 C   0  0  0  0  0  0  0  0  0  0  0  0
    2.2900    1.5200    0.0000 C   0  0  0  0  0  0  0  0  0  0  0  0
    3.5900    0.7600    0.0000 C   0  0  0  0  0  0  0  0  0  0  0  0
    3.5900   -0.7500    0.0000 C   0  0  0  0  0  0  0  0  0  0  0  0
    3.5788    3.7759    0.0000 C   0  0  0  0  0  0  0  0  0  0  0  0
    4.8867   -1.5040    0.0000 O   0  0  0  0  0  0  0  0  0  0  0  0
   -0.2975    3.0000    0.0000 O   0  0  0  0  0  0  0  0  0  0  0  0
    4.8911    1.5065    0.0000 O   0  0  0  0  0  0  0  0  0  0  0  0
   -3.0200   -1.2200    0.0000 O   0  0  0  0  0  0  0  0  0  0  0  0
    2.2900   -1.4900    0.0000 O   0  0  0  0  0  0  0  0  0  0  0  0
    2.2832    3.0200    0.0000 O   0  0  0  0  0  0  0  0  0  0  0  0
  6  1  2  0
  8  7  2  0
 10  7  1  0
 11  9  1  0
 11 10  2  0
 12  9  2  0
 13 12  1  0
 14 10  1  0
 14 13  2  0
 15 13  1  0
 16 15  2  0
 17 16  1  0
 18  2  1  0
 18  3  1  0
 18  6  1  0
 19 17  2  0
 20  4  1  0
 20 14  1  0
 21  5  1  0
 21 16  1  0
 22  8  1  0
 22 11  1  0
 23 12  1  0
 23 17  1  0
 24 15  1  0
 24 18  1  0
M  END
>  <NAME>  (5576) 
HALFORDININ

>  <SYNONYMS>  (5576) 


>  <SPECTRUM TYPE>  (5576) 
MS1

>  <INSTRUMENT TYPE>  (5576) 
EI-B

>  <INSTRUMENT>  (5576) 
AEI-GEC MS-902

>  <ION MODE>  (5576) 
P

>  <INCHIKEY>  (5576) 
CJRBHIKORKDQEC-UHFFFAOYSA-N

>  <FORMULA>  (5576) 
C18H18O6

>  <EXACT MASS>  (5576) 
330.110338296

>  <MW>  (5576) 
330

>  <ID>  (5576) 
JP003116

>  <CONTRIBUTOR>  (5576) 
University of Tokyo Team, {Faculty of Engineering, University of Tokyo

>  <COMMENT>  (5576) 
SMILES=C=CC(C)(C)OC(=C(OC)3)c(c(OC(=O)3)1)c(OC)c(c2)c(oc2)c1
InChI=InChI=1S/C18H18O6/c1-6-18(2,3)24-15-13-12(23-17(19)16(15)21-5)9-11-10(7-8-22-11)14(13)20-4/h6-9H,1H2,2-5H3
computed SMILES=O=C1OC2=CC=3OC=CC3C(OC)=C2C(OC(C=C)(C)C)=C1OC
accession=JP003116
date=2016.01.19 (Created 2008.10.21, modified 2011.05.06)
author=NAKAYAMA M, MASS SPECTROSCOPY SOC. OF JAPAN (MSSJ)
license=CC BY-NC-SA
exact mass=330.11034
ionization energy=70 eV
ion type=[M]+*
computed spectral entropy=2.074588572967319
computed normalized entropy=0.8348758586743338
SPLASH=splash10-03yl-3691000000-066a27fdea0496bbf508
submitter=submitter = University of Tokyo Team (Faculty of Engineering, University of Tokyo)
MoNA Rating=3.75

>  <NUM PEAKS>  (5576) 
12

>  <MASS SPECTRAL PEAKS>  (5576) 
69 57
147 9
175 7
176 9
190 63
191 17
219 11
233 33
247 12
262 99.99
330 23
331 5

$$$$

     RDKit          2D

 18 20  0  0  0  0  0  0  0  0999 V2000
    3.5788    3.7759    0.0000 C   0  0  0  0  0  0  0  0  0  0  0  0
    6.1881    0.7529    0.0000 C   0  0  0  0  0  0  0  0  0  0  0  0
   -3.0400    1.2000    0.0000 C   0  0  0  0  0  0  0  0  0  0  0  0
   -3.9100   -0.0200    0.0000 C   0  0  0  0  0  0  0  0  0  0  0  0
   -0.3000    1.5000    0.0000 C   0  0  0  0  0  0  0  0  0  0  0  0
   -0.3000   -1.5000    0.0000 C   0  0  0  0  0  0  0  0  0  0  0  0
   -1.6100    0.7500    0.0000 C   0  0  0  0  0  0  0  0  0  0  0  0
    1.0000    0.7500    0.0000 C   0  0  0  0  0  0  0  0  0  0  0  0
   -1.6000   -0.7500    0.0000 C   0  0  0  0  0  0  0  0  0  0  0  0
    0.9900   -0.7500    0.0000 C   0  0  0  0  0  0  0  0  0  0  0  0
    2.2900    1.5200    0.0000 C   0  0  0  0  0  0  0  0  0  0  0  0
    3.5900    0.7600    0.0000 C   0  0  0  0  0  0  0  0  0  0  0  0
    3.5900   -0.7500    0.0000 C   0  0  0  0  0  0  0  0  0  0  0  0
    4.8867   -1.5040    0.0000 O   0  0  0  0  0  0  0  0  0  0  0  0
    2.2832    3.0200    0.0000 O   0  0  0  0  0  0  0  0  0  0  0  0
    4.8911    1.5065    0.0000 O   0  0  0  0  0  0  0  0  0  0  0  0
   -3.0200   -1.2200    0.0000 O   0  0  0  0  0  0  0  0  0  0  0  0
    2.2900   -1.4900    0.0000 O   0  0  0  0  0  0  0  0  0  0  0  0
  4  3  2  0
  7  3  1  0
  7  5  2  0
  8  5  1  0
  9  6  2  0
  9  7  1  0
 10  6  1  0
 10  8  2  0
 11  8  1  0
 12 11  2  0
 13 12  1  0
 14 13  2  0
 15  1  1  0
 15 11  1  0
 16  2  1  0
 16 12  1  0
 17  4  1  0
 17  9  1  0
 18 10  1  0
 18 13  1  0
M  END
>  <NAME>  (5577) 
HALKENDIN

>  <SYNONYMS>  (5577) 


>  <SPECTRUM TYPE>  (5577) 
MS1

>  <INSTRUMENT TYPE>  (5577) 
EI-B

>  <INSTRUMENT>  (5577) 
AEI-GEC MS-902

>  <ION MODE>  (5577) 
P

>  <INCHIKEY>  (5577) 
NYELECLICIMRBA-UHFFFAOYSA-N

>  <FORMULA>  (5577) 
C13H10O5

>  <EXACT MASS>  (5577) 
246.05282341999998

>  <MW>  (5577) 
246

>  <ID>  (5577) 
JP003115

>  <CONTRIBUTOR>  (5577) 
University of Tokyo Team, {Faculty of Engineering, University of Tokyo

>  <COMMENT>  (5577) 
SMILES=COC(C(=O)3)=C(OC)c(c1)c(O3)cc(o2)c(cc2)1
InChI=InChI=1S/C13H10O5/c1-15-11-8-5-7-3-4-17-9(7)6-10(8)18-13(14)12(11)16-2/h3-6H,1-2H3
computed SMILES=O=C1OC=2C=C3OC=CC3=CC2C(OC)=C1OC
license=CC BY-NC-SA
accession=JP003115
date=2016.01.19 (Created 2008.10.21, modified 2011.05.06)
author=NAKAYAMA M, MASS SPECTROSCOPY SOC. OF JAPAN (MSSJ)
exact mass=246.05282
ionization energy=70 eV
ion type=[M]+*
computed spectral entropy=1.656366208670836
computed normalized entropy=0.7965437717151564
SPLASH=splash10-0w2a-0390000000-4d70fe41c61a5d6b3a20
submitter=submitter = University of Tokyo Team (Faculty of Engineering, University of Tokyo)
MoNA Rating=3.75

>  <NUM PEAKS>  (5577) 
8

>  <MASS SPECTRAL PEAKS>  (5577) 
104 9
132 12
160 62
175 5
203 99.99
231 19
246 81
247 13

$$$$

     RDKit          2D

 20 22  0  0  0  0  0  0  0  0999 V2000
    3.5788    3.7759    0.0000 C   0  0  0  0  0  0  0  0  0  0  0  0
   -1.5953   -3.7522    0.0000 C   0  0  0  0  0  0  0  0  0  0  0  0
    6.1881    0.7529    0.0000 C   0  0  0  0  0  0  0  0  0  0  0  0
   -3.0400    1.2000    0.0000 C   0  0  0  0  0  0  0  0  0  0  0  0
   -3.9100   -0.0200    0.0000 C   0  0  0  0  0  0  0  0  0  0  0  0
   -0.3000    1.5000    0.0000 C   0  0  0  0  0  0  0  0  0  0  0  0
   -1.6100    0.7500    0.0000 C   0  0  0  0  0  0  0  0  0  0  0  0
    1.0000    0.7500    0.0000 C   0  0  0  0  0  0  0  0  0  0  0  0
   -1.6000   -0.7500    0.0000 C   0  0  0  0  0  0  0  0  0  0  0  0
    2.2900    1.5200    0.0000 C   0  0  0  0  0  0  0  0  0  0  0  0
    0.9900   -0.7500    0.0000 C   0  0  0  0  0  0  0  0  0  0  0  0
   -0.3000   -1.5000    0.0000 C   0  0  0  0  0  0  0  0  0  0  0  0
    3.5900    0.7600    0.0000 C   0  0  0  0  0  0  0  0  0  0  0  0
    3.5900   -0.7500    0.0000 C   0  0  0  0  0  0  0  0  0  0  0  0
    4.8867   -1.5040    0.0000 O   0  0  0  0  0  0  0  0  0  0  0  0
    2.2832    3.0200    0.0000 O   0  0  0  0  0  0  0  0  0  0  0  0
   -0.2975   -3.0000    0.0000 O   0  0  0  0  0  0  0  0  0  0  0  0
    4.8911    1.5065    0.0000 O   0  0  0  0  0  0  0  0  0  0  0  0
   -3.0200   -1.2200    0.0000 O   0  0  0  0  0  0  0  0  0  0  0  0
    2.2900   -1.4900    0.0000 O   0  0  0  0  0  0  0  0  0  0  0  0
  5  4  2  0
  7  4  1  0
  7  6  2  0
  8  6  1  0
  9  7  1  0
 10  8  1  0
 11  8  2  0
 12  9  2  0
 12 11  1  0
 13 10  2  0
 14 13  1  0
 15 14  2  0
 16  1  1  0
 16 10  1  0
 17  2  1  0
 17 12  1  0
 18  3  1  0
 18 13  1  0
 19  5  1  0
 19  9  1  0
 20 11  1  0
 20 14  1  0
M  END
>  <NAME>  (5578) 
ISOHALFORDIN

>  <SYNONYMS>  (5578) 


>  <SPECTRUM TYPE>  (5578) 
MS1

>  <INSTRUMENT TYPE>  (5578) 
EI-B

>  <INSTRUMENT>  (5578) 
AEI-GEC MS-902

>  <ION MODE>  (5578) 
P

>  <INCHIKEY>  (5578) 
NGCYDEYEPDYBIX-UHFFFAOYSA-N

>  <FORMULA>  (5578) 
C14H12O6

>  <EXACT MASS>  (5578) 
276.06338810399996

>  <MW>  (5578) 
276

>  <ID>  (5578) 
JP003114

>  <CONTRIBUTOR>  (5578) 
University of Tokyo Team, {Faculty of Engineering, University of Tokyo

>  <COMMENT>  (5578) 
SMILES=COC(C(=O)3)=C(OC)c(c1)c(O3)c(OC)c(o2)c(cc2)1
InChI=InChI=1S/C14H12O6/c1-16-10-8-6-7-4-5-19-9(7)12(17-2)11(8)20-14(15)13(10)18-3/h4-6H,1-3H3
computed SMILES=O=C1OC=2C(OC)=C3OC=CC3=CC2C(OC)=C1OC
author=NAKAYAMA M, MASS SPECTROSCOPY SOC. OF JAPAN (MSSJ)
accession=JP003114
date=2016.01.19 (Created 2008.10.21, modified 2011.05.06)
license=CC BY-NC-SA
exact mass=276.06339
ionization energy=70 eV
ion type=[M]+*
computed spectral entropy=1.7331793319259068
computed normalized entropy=0.7227919215601385
SPLASH=splash10-004i-0190000000-19456518a9aa4e2181fb
submitter=submitter = University of Tokyo Team (Faculty of Engineering, University of Tokyo)
MoNA Rating=3.75

>  <NUM PEAKS>  (5578) 
11

>  <MASS SPECTRAL PEAKS>  (5578) 
91 4
119 4
147 11
162 6
175 4
190 12
233 45
247 4
261 10
276 99.99
277 18

$$$$

     RDKit          2D

 20 22  0  0  0  0  0  0  0  0999 V2000
   -1.5953    3.7521    0.0000 C   0  0  0  0  0  0  0  0  0  0  0  0
    3.5788    3.7759    0.0000 C   0  0  0  0  0  0  0  0  0  0  0  0
    6.1881    0.7529    0.0000 C   0  0  0  0  0  0  0  0  0  0  0  0
   -3.0400    1.2000    0.0000 C   0  0  0  0  0  0  0  0  0  0  0  0
   -3.9100   -0.0200    0.0000 C   0  0  0  0  0  0  0  0  0  0  0  0
   -0.3000   -1.5000    0.0000 C   0  0  0  0  0  0  0  0  0  0  0  0
   -1.6100    0.7500    0.0000 C   0  0  0  0  0  0  0  0  0  0  0  0
   -1.6000   -0.7500    0.0000 C   0  0  0  0  0  0  0  0  0  0  0  0
    0.9900   -0.7500    0.0000 C   0  0  0  0  0  0  0  0  0  0  0  0
    1.0000    0.7500    0.0000 C   0  0  0  0  0  0  0  0  0  0  0  0
   -0.3000    1.5000    0.0000 C   0  0  0  0  0  0  0  0  0  0  0  0
    2.2900    1.5200    0.0000 C   0  0  0  0  0  0  0  0  0  0  0  0
    3.5900    0.7600    0.0000 C   0  0  0  0  0  0  0  0  0  0  0  0
    3.5900   -0.7500    0.0000 C   0  0  0  0  0  0  0  0  0  0  0  0
    4.8867   -1.5040    0.0000 O   0  0  0  0  0  0  0  0  0  0  0  0
   -0.2975    3.0000    0.0000 O   0  0  0  0  0  0  0  0  0  0  0  0
    2.2832    3.0200    0.0000 O   0  0  0  0  0  0  0  0  0  0  0  0
    4.8911    1.5065    0.0000 O   0  0  0  0  0  0  0  0  0  0  0  0
   -3.0200   -1.2200    0.0000 O   0  0  0  0  0  0  0  0  0  0  0  0
    2.2900   -1.4900    0.0000 O   0  0  0  0  0  0  0  0  0  0  0  0
  5  4  2  0
  7  4  1  0
  8  6  1  0
  8  7  2  0
  9  6  2  0
 10  9  1  0
 11  7  1  0
 11 10  2  0
 12 10  1  0
 13 12  2  0
 14 13  1  0
 15 14  2  0
 16  1  1  0
 16 11  1  0
 17  2  1  0
 17 12  1  0
 18  3  1  0
 18 13  1  0
 19  5  1  0
 19  8  1  0
 20  9  1  0
 20 14  1  0
M  END
>  <NAME>  (5579) 
HALFORDIN

>  <SYNONYMS>  (5579) 


>  <SPECTRUM TYPE>  (5579) 
MS1

>  <INSTRUMENT TYPE>  (5579) 
EI-B

>  <INSTRUMENT>  (5579) 
AEI-GEC MS-902

>  <ION MODE>  (5579) 
P

>  <INCHIKEY>  (5579) 
SHOQQSABOUVQLJ-UHFFFAOYSA-N

>  <FORMULA>  (5579) 
C14H12O6

>  <EXACT MASS>  (5579) 
276.06338810399996

>  <MW>  (5579) 
276

>  <ID>  (5579) 
JP003113

>  <CONTRIBUTOR>  (5579) 
University of Tokyo Team, {Faculty of Engineering, University of Tokyo

>  <COMMENT>  (5579) 
SMILES=COC(C(=O)3)=C(OC)c(c(O3)1)c(OC)c(c2)c(oc2)c1
InChI=InChI=1S/C14H12O6/c1-16-11-7-4-5-19-8(7)6-9-10(11)12(17-2)13(18-3)14(15)20-9/h4-6H,1-3H3
computed SMILES=O=C1OC2=CC=3OC=CC3C(OC)=C2C(OC)=C1OC
accession=JP003113
date=2016.01.19 (Created 2008.10.21, modified 2011.05.06)
author=NAKAYAMA M, MASS SPECTROSCOPY SOC. OF JAPAN (MSSJ)
license=CC BY-NC-SA
exact mass=276.06339
ionization energy=70 eV
ion type=[M]+*
computed spectral entropy=1.731604861300103
computed normalized entropy=0.7520264360994804
SPLASH=splash10-004i-0190000000-8ed5389f5991bd7dbd0c
submitter=submitter = University of Tokyo Team (Faculty of Engineering, University of Tokyo)
MoNA Rating=3.75

>  <NUM PEAKS>  (5579) 
10

>  <MASS SPECTRAL PEAKS>  (5579) 
119 3
147 9
175 8
190 19
218 4
233 45
234 5
261 15
276 99.99
277 18

$$$$

     RDKit          2D

 43 42  0  0  0  0  0  0  0  0999 V2000
  -33.7750   20.2500    0.0000 C   0  0  0  0  0  0  0  0  0  0  0  0
   11.6913   19.5000    0.0000 C   0  0  0  0  0  0  0  0  0  0  0  0
   -7.7942   24.7500    0.0000 C   0  0  0  0  0  0  0  0  0  0  0  0
  -32.4760   19.5000    0.0000 C   0  0  0  0  0  0  0  0  0  0  0  0
   10.3923   20.2500    0.0000 C   0  0  0  0  0  0  0  0  0  0  0  0
  -31.1769   20.2500    0.0000 C   0  0  0  0  0  0  0  0  0  0  0  0
    9.0933   19.5000    0.0000 C   0  0  0  0  0  0  0  0  0  0  0  0
  -29.8779   19.5000    0.0000 C   0  0  0  0  0  0  0  0  0  0  0  0
    7.7942   20.2500    0.0000 C   0  0  0  0  0  0  0  0  0  0  0  0
  -28.5788   20.2500    0.0000 C   0  0  0  0  0  0  0  0  0  0  0  0
    6.4952   19.5000    0.0000 C   0  0  0  0  0  0  0  0  0  0  0  0
  -27.2798   19.5000    0.0000 C   0  0  0  0  0  0  0  0  0  0  0  0
    5.1962   20.2500    0.0000 C   0  0  0  0  0  0  0  0  0  0  0  0
  -25.9808   20.2500    0.0000 C   0  0  0  0  0  0  0  0  0  0  0  0
    3.8971   19.5000    0.0000 C   0  0  0  0  0  0  0  0  0  0  0  0
  -24.6817   19.5000    0.0000 C   0  0  0  0  0  0  0  0  0  0  0  0
    2.5981   20.2500    0.0000 C   0  0  0  0  0  0  0  0  0  0  0  0
  -23.3827   20.2500    0.0000 C   0  0  0  0  0  0  0  0  0  0  0  0
    1.2990   19.5000    0.0000 C   0  0  0  0  0  0  0  0  0  0  0  0
  -22.0836   19.5000    0.0000 C   0  0  0  0  0  0  0  0  0  0  0  0
    0.0000   20.2500    0.0000 C   0  0  0  0  0  0  0  0  0  0  0  0
  -20.7846   20.2500    0.0000 C   0  0  0  0  0  0  0  0  0  0  0  0
   -1.2990   19.5000    0.0000 C   0  0  0  0  0  0  0  0  0  0  0  0
  -19.4856   19.5000    0.0000 C   0  0  0  0  0  0  0  0  0  0  0  0
   -2.5981   20.2500    0.0000 C   0  0  0  0  0  0  0  0  0  0  0  0
  -18.1865   20.2500    0.0000 C   0  0  0  0  0  0  0  0  0  0  0  0
   -3.8971   19.5000    0.0000 C   0  0  0  0  0  0  0  0  0  0  0  0
  -16.8875   19.5000    0.0000 C   0  0  0  0  0  0  0  0  0  0  0  0
   -5.1962   20.2500    0.0000 C   0  0  0  0  0  0  0  0  0  0  0  0
  -15.5885   20.2500    0.0000 C   0  0  0  0  0  0  0  0  0  0  0  0
   -6.4952   19.5000    0.0000 C   0  0  0  0  0  0  0  0  0  0  0  0
  -10.3923   21.7500    0.0000 C   0  0  0  0  0  0  0  0  0  0  0  0
  -11.6913   19.5000    0.0000 C   0  0  0  0  0  0  0  0  0  0  0  0
   -9.0933   24.0000    0.0000 C   0  0  0  0  0  0  0  0  0  0  0  0
  -10.3923   20.2500    0.0000 C   0  0  0  0  0  0  0  0  0  0  0  0
  -14.2894   19.5000    0.0000 C   0  0  0  0  0  0  0  0  0  0  0  0
   -7.7942   20.2500    0.0000 C   0  0  0  0  0  0  0  0  0  0  0  0
  -10.3923   24.7500    0.0000 O   0  0  0  0  0  0  0  0  0  0  0  0
  -14.2894   18.0000    0.0000 O   0  0  0  0  0  0  0  0  0  0  0  0
   -7.7942   21.7500    0.0000 O   0  0  0  0  0  0  0  0  0  0  0  0
   -9.0933   22.5000    0.0000 O   0  0  0  0  0  0  0  0  0  0  0  0
  -12.9904   20.2500    0.0000 O   0  0  0  0  0  0  0  0  0  0  0  0
   -9.0933   19.5000    0.0000 O   0  0  0  0  0  0  0  0  0  0  0  0
  4  1  1  0
  5  2  1  0
  6  4  1  0
  7  5  1  0
  8  6  1  0
  9  7  1  0
 10  8  1  0
 11  9  1  0
 12 10  1  0
 13 11  1  0
 14 12  1  0
 15 13  1  0
 16 14  1  0
 17 15  1  0
 18 16  1  0
 19 17  1  0
 20 18  1  0
 21 19  1  0
 22 20  1  0
 23 21  1  0
 24 22  1  0
 25 23  1  0
 26 24  1  0
 27 25  1  0
 28 26  1  0
 29 27  1  0
 30 28  1  0
 31 29  1  0
 34  3  1  0
 35 32  1  0
 35 33  1  0
 36 30  1  0
 37 31  1  0
 38 34  2  0
 39 36  2  0
 40 37  2  0
 41 32  1  0
 41 34  1  0
 42 33  1  0
 42 36  1  0
 43 35  1  0
 43 37  1  0
M  END
>  <NAME>  (5580) 
1,2-DIPALMITOYL 3-ACETYL GLYCEROL

>  <SYNONYMS>  (5580) 


>  <SPECTRUM TYPE>  (5580) 
MS1

>  <INSTRUMENT TYPE>  (5580) 
EI-B

>  <INSTRUMENT>  (5580) 
SHIMADZU LKB-9000B

>  <ION MODE>  (5580) 
P

>  <INCHIKEY>  (5580) 
YHNCVLUVISTFCT-UHFFFAOYSA-N

>  <FORMULA>  (5580) 
C37H70O6

>  <EXACT MASS>  (5580) 
610.51723996

>  <MW>  (5580) 
610

>  <ID>  (5580) 
JP002759

>  <CONTRIBUTOR>  (5580) 
University of Tokyo Team, {Faculty of Engineering, University of Tokyo

>  <COMMENT>  (5580) 
SMILES=O=C(OC(COC(=O)CCCCCCCCCCCCCCC)COC(C)=O)CCCCCCCCCCCCCCC
InChI=InChI=1S/C37H70O6/c1-4-6-8-10-12-14-16-18-20-22-24-26-28-30-36(39)42-33-35(32-41-34(3)38)43-37(40)31-29-27-25-23-21-19-17-15-13-11-9-7-5-2/h35H,4-33H2,1-3H3
computed SMILES=O=C(OCC(OC(=O)CCCCCCCCCCCCCCC)COC(=O)CCCCCCCCCCCCCCC)C
accession=JP002759
date=2016.01.19 (Created 2008.10.21, modified 2011.05.06)
author=HAYASHI A, DEPT. OF CHEMISTRY, FAC. OF SCI. AND TECHNOLOGY, KINKI UNIV.
license=CC BY-NC-SA
exact mass=610.51724
ionization energy=70 eV
ion type=[M]+*
computed spectral entropy=3.84527555657505
computed normalized entropy=0.799070707314467
SPLASH=splash10-0a4i-3469000000-eb5b0d24a3cc4faa66b3
submitter=submitter = University of Tokyo Team (Faculty of Engineering, University of Tokyo)
MoNA Rating=3.75

>  <NUM PEAKS>  (5580) 
123

>  <MASS SPECTRAL PEAKS>  (5580) 
55 1.8
57 4.8
67 1.4
69 0.45
70 1.5
71 8.8
73 4
81 0.4
82 1.6
83 7.9
84 11
85 0.96
86 1.4
95 7.7
96 2.9
97 0.91
98 23.4
99 5.7
100 1.3
107 0.11
109 5.7
110 1.7
111 5.4
112 1.15
113 3.7
115 1.9
116 2.2
117 4.55
118 2.7
121 1.6
123 3.7
124 0.11
125 2.9
126 3.6
127 1.6
129 0.27
133 1.9
135 2.7
137 2.4
139 0.14
140 1.7
141 1.5
147 2.7
149 0.12
151 1.1
154 1.9
155 1.3
158 2.88
159 11.7
168 1
169 1
171 2.83
172 3.3
177 2
182 1.2
185 0.37
191 4.2
192 1
193 1.1
199 0.15
207 32.2
208 6.7
209 4.2
210 0.1
213 5.1
221 3
227 12
228 0.24
236 1.2
237 1.9
238 8.3
239 8.05
240 13.8
241 3.4
242 1
255 0.32
256 1.3
265 1.5
267 2.1
269 0.42
270 1.3
280 2.8
281 16.1
282 0.45
283 4.9
284 1.6
295 1.2
297 0.28
298 1
299 1.7
311 7.9
312 0.37
313 22.9
314 4.6
325 2.6
326 0.12
339 1.3
341 5.2
342 1.4
353 0.24
354 20.7
355 99.99
356 23.4
357 0.33
367 9.8
368 2
373 1.4
396 0.28
399 2.3
409 1.6
423 4.1
424 0.16
429 2.7
430 1.1
452 1
465 0.12
508 2.4
509 1
551 4.3
552 0.16
553 0.3
577 0.1
592 0.1

$$$$

     RDKit          2D

 26 25  0  0  0  0  0  0  0  0999 V2000
    6.8236    4.7745    0.0000 C   0  0  0  0  0  0  0  0  0  0  0  0
    7.3726    6.8236    0.0000 C   0  0  0  0  0  0  0  0  0  0  0  0
    5.3236    7.3726    0.0000 C   0  0  0  0  0  0  0  0  0  0  0  0
    1.4264    2.1226    0.0000 C   0  0  0  0  0  0  0  0  0  0  0  0
    0.8774    0.0736    0.0000 C   0  0  0  0  0  0  0  0  0  0  0  0
    2.9264   -0.4755    0.0000 C   0  0  0  0  0  0  0  0  0  0  0  0
    9.4216    4.3726    0.0000 C   0  0  0  0  0  0  0  0  0  0  0  0
    7.9216    1.7745    0.0000 C   0  0  0  0  0  0  0  0  0  0  0  0
    9.9707    2.3236    0.0000 C   0  0  0  0  0  0  0  0  0  0  0  0
    0.3284    5.1226    0.0000 C   0  0  0  0  0  0  0  0  0  0  0  0
   -1.7207    4.5736    0.0000 C   0  0  0  0  0  0  0  0  0  0  0  0
   -1.1716    2.5245    0.0000 C   0  0  0  0  0  0  0  0  0  0  0  0
    4.7745    3.8236    0.0000 C   0  0  0  0  0  0  0  0  0  0  0  0
    3.4755    3.0736    0.0000 C   0  0  0  0  0  0  0  0  0  0  0  0
    6.0736    3.0736    0.0000 C   0  0  0  0  0  0  0  0  0  0  0  0
    2.1764    3.8236    0.0000 C   0  0  0  0  0  0  0  0  0  0  0  0
    6.0736    1.5736    0.0000 O   0  0  0  0  0  0  0  0  0  0  0  0
    2.1764    5.3236    0.0000 O   0  0  0  0  0  0  0  0  0  0  0  0
    4.7745    5.3236    0.0000 O   0  0  0  0  0  0  0  0  0  0  0  0
    3.4755    1.5736    0.0000 O   0  0  0  0  0  0  0  0  0  0  0  0
    7.3726    3.8236    0.0000 O   0  0  0  0  0  0  0  0  0  0  0  0
    0.8774    3.0736    0.0000 O   0  0  0  0  0  0  0  0  0  0  0  0
    6.0736    6.0736    0.0000 Si  0  0  0  0  0  4  0  0  0  0  0  0
    2.1764    0.8236    0.0000 Si  0  0  0  0  0  4  0  0  0  0  0  0
    8.6716    3.0736    0.0000 Si  0  0  0  0  0  4  0  0  0  0  0  0
   -0.4216    3.8236    0.0000 Si  0  0  0  0  0  4  0  0  0  0  0  0
 14 13  1  0
 15 13  1  0
 16 14  1  0
 17 15  2  0
 18 16  2  0
 19 13  1  0
 20 14  1  0
 21 15  1  0
 22 16  1  0
 23  1  1  0
 23  2  1  0
 23  3  1  0
 23 19  1  0
 24  4  1  0
 24  5  1  0
 24  6  1  0
 24 20  1  0
 25  7  1  0
 25  8  1  0
 25  9  1  0
 25 21  1  0
 26 10  1  0
 26 11  1  0
 26 12  1  0
 26 22  1  0
M  END
>  <NAME>  (5581) 
TARTARIC ACID-TETRA-TMS

>  <SYNONYMS>  (5581) 


>  <SPECTRUM TYPE>  (5581) 
MS1

>  <INSTRUMENT TYPE>  (5581) 
EI-B

>  <INSTRUMENT>  (5581) 
SHIMADZU LKB-9000B

>  <ION MODE>  (5581) 
P

>  <INCHIKEY>  (5581) 
LPQBQHQEJJCWBZ-UHFFFAOYSA-N

>  <FORMULA>  (5581) 
C16H38O6Si4

>  <EXACT MASS>  (5581) 
438.17454505599994

>  <MW>  (5581) 
438

>  <ID>  (5581) 
JP002758

>  <CONTRIBUTOR>  (5581) 
University of Tokyo Team, {Faculty of Engineering, University of Tokyo

>  <COMMENT>  (5581) 
SMILES=C[Si](C)(C)OC(=O)C(O[Si](C)(C)C)C(O[Si](C)(C)C)C(=O)O[Si](C)(C)C
InChI=InChI=1S/C16H38O6Si4/c1-23(2,3)19-13(15(17)21-25(7,8)9)14(20-24(4,5)6)16(18)22-26(10,11)12/h13-14H,1-12H3
computed SMILES=O=C(O[Si](C)(C)C)C(O[Si](C)(C)C)C(O[Si](C)(C)C)C(=O)O[Si](C)(C)C
accession=JP002758
date=2016.01.19 (Created 2008.10.21, modified 2011.05.06)
author=HAYASHI A, DEPT. OF CHEMISTRY, FAC. OF SCI. AND TECHNOLOGY, KINKI UNIV.
license=CC BY-NC-SA
exact mass=438.17455
ionization energy=70 eV
ion type=[M]+*
computed spectral entropy=2.6718617345896507
computed normalized entropy=0.56005834485211
SPLASH=splash10-0006-9000000000-7ac67a17d1194253b98a
submitter=submitter = University of Tokyo Team (Faculty of Engineering, University of Tokyo)
MoNA Rating=3.75

>  <NUM PEAKS>  (5581) 
118

>  <MASS SPECTRAL PEAKS>  (5581) 
40 99.99
41 4.3
42 3.6
43 0.78
44 31.1
45 6.2
46 0.6
47 0.32
48 0.3
50 0.3
51 0.4
52 0.05
53 0.3
54 0.3
55 1.6
56 0.08
57 0.8
58 0.7
59 8.7
60 0.08
61 0.9
65 0.3
66 0.7
67 0.06
69 0.4
70 0.6
71 0.4
72 0.06
73 25.1
74 2.1
75 25.4
76 0.23
77 2.4
78 0.8
79 0.5
81 0.05
82 0.3
83 0.6
84 0.4
85 0.04
87 0.3
89 0.5
91 0.6
93 0.13
94 0.3
95 0.5
97 0.3
101 0.06
102 0.5
103 0.7
104 0.3
105 0.05
107 0.8
108 0.9
109 0.5
115 0.05
116 0.4
117 0.8
118 0.3
119 0.04
121 0.3
122 0.3
128 0.3
129 0.04
130 0.4
131 0.6
132 0.3
133 0.12
134 0.3
135 0.7
141 0.3
143 0.1
145 0.4
147 9.3
148 0.6
149 0.09
151 0.3
156 0.3
165 0.4
171 0.04
175 0.3
177 0.3
178 0.3
189 0.19
190 0.4
191 0.6
204 0.7
205 0.03
207 0.4
217 0.6
218 0.5
219 0.27
220 0.7
221 1
222 0.3
231 0.03
233 0.5
235 0.3
257 0.3
263 0.04
277 0.5
279 0.5
292 3.7
293 0.09
294 0.9
305 0.9
306 0.4
307 0.13
309 1.9
327 0.6
333 0.5
404 0.05
405 0.9
406 0.4
407 0.3
422 0.04
423 0.9
424 0.3

$$$$

     RDKit          2D

 21 22  0  0  0  0  0  0  0  0999 V2000
    0.7593   -3.1013    0.0000 C   0  0  0  0  0  0  0  0  0  0  0  0
    2.6506   -4.0620    0.0000 C   0  0  0  0  0  0  0  0  0  0  0  0
    3.6113   -2.1707    0.0000 C   0  0  0  0  0  0  0  0  0  0  0  0
    5.8958    3.2146    0.0000 C   0  0  0  0  0  0  0  0  0  0  0  0
    7.0534    4.9922    0.0000 C   0  0  0  0  0  0  0  0  0  0  0  0
    5.2757    6.1498    0.0000 C   0  0  0  0  0  0  0  0  0  0  0  0
   -2.3100    0.7500    0.0000 C   0  0  0  0  0  0  0  0  0  0  0  0
   -2.3100   -0.7500    0.0000 C   0  0  0  0  0  0  0  0  0  0  0  0
   -1.0100    1.5000    0.0000 C   0  0  0  0  0  0  0  0  0  0  0  0
   -1.0100   -1.5000    0.0000 C   0  0  0  0  0  0  0  0  0  0  0  0
    2.1853    2.6360    0.0000 C   0  0  0  0  0  0  0  0  0  0  0  0
    2.6000   -0.0000    0.0000 C   0  0  0  0  0  0  0  0  0  0  0  0
    1.7200    1.2100    0.0000 C   0  0  0  0  0  0  0  0  0  0  0  0
    0.2900    0.7500    0.0000 C   0  0  0  0  0  0  0  0  0  0  0  0
    0.2900   -0.7500    0.0000 C   0  0  0  0  0  0  0  0  0  0  0  0
    3.6529    2.9461    0.0000 C   0  0  0  0  0  0  0  0  0  0  0  0
    1.7200   -1.2100    0.0000 N   0  0  0  0  0  0  0  0  0  0  0  0
    4.6552    1.8301    0.0000 O   0  0  0  0  0  0  0  0  0  0  0  0
    4.1182    4.3721    0.0000 O   0  0  0  0  0  0  0  0  0  0  0  0
    2.1853   -2.6360    0.0000 Si  0  0  0  0  0  4  0  0  0  0  0  0
    5.5858    4.6822    0.0000 Si  0  0  0  0  0  4  0  0  0  0  0  0
  8  7  2  0
  9  7  1  0
 10  8  1  0
 13 11  1  0
 13 12  2  0
 14  9  2  0
 14 13  1  0
 15 10  2  0
 15 14  1  0
 16 11  1  0
 17 12  1  0
 17 15  1  0
 18 16  2  0
 19 16  1  0
 20  1  1  0
 20  2  1  0
 20  3  1  0
 20 17  1  0
 21  4  1  0
 21  5  1  0
 21  6  1  0
 21 19  1  0
M  END
>  <NAME>  (5582) 
3-INDOLEACETIC ACID-DI-TMS

>  <SYNONYMS>  (5582) 


>  <SPECTRUM TYPE>  (5582) 
MS1

>  <INSTRUMENT TYPE>  (5582) 
EI-B

>  <INSTRUMENT>  (5582) 
SHIMADZU LKB-9000B

>  <ION MODE>  (5582) 
P

>  <INCHIKEY>  (5582) 
WKJCHYMUOINQGJ-UHFFFAOYSA-N

>  <FORMULA>  (5582) 
C16H25NO2Si2

>  <EXACT MASS>  (5582) 
319.1423821

>  <MW>  (5582) 
319

>  <ID>  (5582) 
JP002757

>  <CONTRIBUTOR>  (5582) 
University of Tokyo Team, {Faculty of Engineering, University of Tokyo

>  <COMMENT>  (5582) 
SMILES=O=C(O[Si](C)(C)C)Cc(c1)c(c2)c(ccc2)n1[Si](C)(C)C
InChI=InChI=1S/C16H25NO2Si2/c1-20(2,3)17-12-13(11-16(18)19-21(4,5)6)14-9-7-8-10-15(14)17/h7-10,12H,11H2,1-6H3
computed SMILES=O=C(O[Si](C)(C)C)CC1=CN(C=2C=CC=CC21)[Si](C)(C)C
accession=JP002757
date=2016.01.19 (Created 2008.10.21, modified 2011.05.06)
author=HAYASHI A, DEPT. OF CHEMISTRY, FAC. OF SCI. AND TECHNOLOGY, KINKI UNIV.
license=CC BY-NC-SA
exact mass=319.14238
ionization energy=70 eV
ion type=[M]+*
computed spectral entropy=3.294030101596402
computed normalized entropy=0.651477445600469
SPLASH=splash10-053r-9720000000-3529898bdf5778666793
submitter=submitter = University of Tokyo Team (Faculty of Engineering, University of Tokyo)
MoNA Rating=3.75

>  <NUM PEAKS>  (5582) 
157

>  <MASS SPECTRAL PEAKS>  (5582) 
41 5.1
42 2.6
43 0.71
44 22.6
45 8
46 0.6
47 0.41
49 0.4
50 1.9
51 3.6
52 0.15
53 0.8
54 0.6
55 2.9
56 91.5
57 0.3
58 1.2
59 5.6
60 0.9
61 0.15
62 0.8
63 1.8
64 0.5
65 0.14
66 0.4
67 0.9
68 0.4
69 0.13
70 1
71 1
72 1.2
73 5.54
74 5.6
75 27.8
76 5.2
77 1.08
78 1.7
79 1.3
80 0.3
81 0.05
82 0.5
83 0.9
84 1.4
85 0.08
87 0.4
89 0.9
90 0.9
91 0.12
93 1.6
94 0.5
95 0.9
96 0.03
97 0.9
98 0.5
99 0.5
100 0.03
101 2
102 6.3
103 7.2
104 0.16
105 1.3
106 0.5
107 1
108 0.06
109 0.6
111 0.5
115 1
116 0.34
117 3.2
118 0.5
119 0.5
120 0.03
121 0.5
122 0.3
123 0.3
126 0.03
127 0.3
128 4.3
129 10.3
130 99.99
131 11.1
132 1.7
133 0.7
134 0.03
135 1.1
137 0.4
141 0.4
142 0.04
143 0.6
144 1.4
145 1.7
146 0.03
147 1.3
148 0.4
149 13.1
150 0.1
151 0.3
152 0.3
156 0.8
157 0.14
158 0.4
159 0.3
160 0.4
165 0.03
167 0.6
169 0.4
170 0.3
172 0.07
173 0.3
175 0.7
176 0.7
178 0.03
179 1.5
180 0.4
181 0.2
184 0.04
186 1.9
187 0.6
188 4.4
189 0.11
190 0.3
191 0.3
193 0.4
200 0.03
201 0.4
202 4.8
203 7
204 0.46
205 1.4
206 0.5
207 0.6
211 0.03
217 0.5
218 0.7
219 1
220 0.06
223 0.7
230 0.8
231 0.4
232 0.93
233 1.8
234 0.6
245 0.7
246 0.05
247 27.8
248 5.1
249 1.5
250 0.03
262 0.3
267 0.6
281 0.4
307 0.04
309 0.8
313 0.4
315 0.9
316 0.03
319 0.4

$$$$

     RDKit          2D

 26 25  0  0  0  0  0  0  0  0999 V2000
   -1.3522    2.7200    0.0000 C   0  0  0  0  0  0  0  0  0  0  0  0
    0.1478    5.3181    0.0000 C   0  0  0  0  0  0  0  0  0  0  0  0
   -1.9012    4.7691    0.0000 C   0  0  0  0  0  0  0  0  0  0  0  0
    1.2459    2.3181    0.0000 C   0  0  0  0  0  0  0  0  0  0  0  0
    0.6968    0.2691    0.0000 C   0  0  0  0  0  0  0  0  0  0  0  0
    2.7459   -0.2800    0.0000 C   0  0  0  0  0  0  0  0  0  0  0  0
   10.5401    2.7200    0.0000 C   0  0  0  0  0  0  0  0  0  0  0  0
   11.0891    4.7691    0.0000 C   0  0  0  0  0  0  0  0  0  0  0  0
    9.0401    5.3181    0.0000 C   0  0  0  0  0  0  0  0  0  0  0  0
    8.1504    6.0646    0.0000 C   0  0  0  0  0  0  0  0  0  0  0  0
    7.2539    7.9872    0.0000 C   0  0  0  0  0  0  0  0  0  0  0  0
    5.3313    7.0907    0.0000 C   0  0  0  0  0  0  0  0  0  0  0  0
    4.5940    4.0191    0.0000 C   0  0  0  0  0  0  0  0  0  0  0  0
    1.9959    4.0191    0.0000 C   0  0  0  0  0  0  0  0  0  0  0  0
    3.2949    3.2691    0.0000 C   0  0  0  0  0  0  0  0  0  0  0  0
    8.1562    5.1681    0.0000 O   0  0  0  0  0  0  0  0  0  0  0  0
    5.8930    3.2691    0.0000 O   0  0  0  0  0  0  0  0  0  0  0  0
    0.6968    3.2691    0.0000 O   0  0  0  0  0  0  0  0  0  0  0  0
    3.2949    1.7691    0.0000 O   0  0  0  0  0  0  0  0  0  0  0  0
    8.4911    3.2691    0.0000 O   0  0  0  0  0  0  0  0  0  0  0  0
    6.2278    5.1681    0.0000 O   0  0  0  0  0  0  0  0  0  0  0  0
    7.1920    4.0191    0.0000 P   0  0  0  0  0  0  0  0  0  0  0  0
   -0.6022    4.0191    0.0000 Si  0  0  0  0  0  4  0  0  0  0  0  0
    1.9959    1.0191    0.0000 Si  0  0  0  0  0  4  0  0  0  0  0  0
    9.7901    4.0191    0.0000 Si  0  0  0  0  0  4  0  0  0  0  0  0
    6.7409    6.5777    0.0000 Si  0  0  0  0  0  4  0  0  0  0  0  0
 15 13  1  0
 15 14  1  0
 17 13  1  0
 18 14  1  0
 19 15  1  0
 22 16  2  0
 22 17  1  0
 22 20  1  0
 22 21  1  0
 23  1  1  0
 23  2  1  0
 23  3  1  0
 23 18  1  0
 24  4  1  0
 24  5  1  0
 24  6  1  0
 24 19  1  0
 25  7  1  0
 25  8  1  0
 25  9  1  0
 25 20  1  0
 26 10  1  0
 26 11  1  0
 26 12  1  0
 26 21  1  0
M  END
>  <NAME>  (5583) 
GLYCEROPHOSPHORIC ACID-TETRA-TMS

>  <SYNONYMS>  (5583) 


>  <SPECTRUM TYPE>  (5583) 
MS1

>  <INSTRUMENT TYPE>  (5583) 
EI-B

>  <INSTRUMENT>  (5583) 
SHIMADZU LKB-9000B

>  <ION MODE>  (5583) 
P

>  <INCHIKEY>  (5583) 
OSNKBCBCOYHYNF-UHFFFAOYSA-N

>  <FORMULA>  (5583) 
C15H41O6PSi4

>  <EXACT MASS>  (5583) 
460.171781782

>  <MW>  (5583) 
460

>  <ID>  (5583) 
JP002756

>  <CONTRIBUTOR>  (5583) 
University of Tokyo Team, {Faculty of Engineering, University of Tokyo

>  <COMMENT>  (5583) 
SMILES=C[Si](C)(C)OCC(O[Si](C)(C)C)COP(=O)(O[Si](C)(C)C)O[Si](C)(C)C
InChI=InChI=1S/C15H41O6PSi4/c1-23(2,3)18-14-15(19-24(4,5)6)13-17-22(16,20-25(7,8)9)21-26(10,11)12/h15H,13-14H2,1-12H3
computed SMILES=O=P(OCC(O[Si](C)(C)C)CO[Si](C)(C)C)(O[Si](C)(C)C)O[Si](C)(C)C
accession=JP002756
date=2016.01.19 (Created 2008.10.21, modified 2011.05.06)
author=HAYASHI A, DEPT. OF CHEMISTRY, FAC. OF SCI. AND TECHNOLOGY, KINKI UNIV.
license=CC BY-NC-SA
exact mass=460.17178
ionization energy=70 eV
ion type=[M]+*
computed spectral entropy=2.948048671609285
computed normalized entropy=0.5830509008266468
SPLASH=splash10-0002-3911000000-d356ac85e3fd86196a64
submitter=submitter = University of Tokyo Team (Faculty of Engineering, University of Tokyo)
MoNA Rating=3.75

>  <NUM PEAKS>  (5583) 
157

>  <MASS SPECTRAL PEAKS>  (5583) 
41 7.7
42 0.5
43 1.4
44 1
45 1.6
46 0.1
47 0.4
50 0.11
51 0.6
52 0.1
53 0.3
54 0.02
55 1.7
56 4.1
57 4.8
58 0.03
59 2.3
60 0.2
61 0.3
63 0.01
65 2.7
66 0.3
69 0.2
70 0.01
71 0.3
72 0.3
73 13.8
74 0.12
75 4.2
76 3.8
77 1.4
78 0.01
79 0.1
81 0.1
83 0.1
84 0.03
85 0.2
88 0.1
89 0.2
91 0.02
92 0.1
93 2.5
94 0.2
96 0.03
98 0.3
99 0.1
101 2.3
102 0.03
103 2.1
104 4.1
105 2.2
106 0.03
107 0.1
111 0.1
113 0.4
115 0.03
116 0.6
117 0.6
118 0.1
119 0.02
120 0.1
121 2.1
122 1.4
123 0.08
128 0.1
129 1.6
130 0.3
131 0.13
132 0.7
133 1.4
134 0.2
135 0.07
136 0.1
145 0.3
147 3.5
148 0.09
149 99.99
150 9.3
151 1
152 0.01
160 0.4
161 0.1
163 0.1
167 0.04
177 0.1
178 0.1
189 0.1
191 0.02
193 0.2
195 0.2
196 0.1
197 0.01
203 0.3
204 0.1
205 4.3
206 0.07
207 0.6
208 0.1
211 1.5
212 0.02
213 0.1
217 0.1
218 0.7
219 0.04
220 0.1
221 0.2
223 5
224 0.06
225 0.4
226 0.1
227 0.7
228 0.01
243 0.4
256 0.8
257 0.2
267 0.01
269 0.1
278 0.5
279 0.1
281 0.01
283 0.2
284 0.1
285 0.5
286 0.1
298 0.2
299 7.4
300 1.7
301 0.09
302 0.1
307 0.1
308 0.1
313 0.01
314 0.5
315 1.6
316 0.4
317 0.02
327 0.1
328 0.5
329 0.1
342 0.01
355 0.1
356 0.3
357 6.4
358 0.17
359 0.8
360 0.1
370 1.3
371 0.03
372 0.2
373 0.3
387 0.6
388 0.02
389 0.2
415 0.1
444 1.4
445 0.03
446 0.5

$$$$

     RDKit          2D

 28 31  0  0  1  0  0  0  0  0999 V2000
    4.9505    4.6491    0.0000 C   0  0  0  0  0  0  0  0  0  0  0  0
   -1.6800    1.1900    0.0000 C   0  0  0  0  0  0  0  0  0  0  0  0
    2.3787    3.4316    0.0000 C   0  0  0  0  0  0  0  0  0  0  0  0
    8.8462    2.3966    0.0000 C   0  0  0  0  0  0  0  0  0  0  0  0
   -6.8776   -4.8104    0.0000 C   0  0  0  0  0  0  0  0  0  0  0  0
   -0.3800   -2.5600    0.0000 C   0  0  0  0  0  0  0  0  0  0  0  0
    0.9200   -1.8100    0.0000 C   0  0  0  0  0  0  0  0  0  0  0  0
   -4.2800   -0.3100    0.0000 C   0  0  0  0  0  0  0  0  0  0  0  0
   -0.3800    1.9400    0.0000 C   0  0  0  0  0  0  0  0  0  0  0  0
    3.6500   -0.0200    0.0000 C   0  0  0  0  0  0  0  0  0  0  0  0
   -2.9800    0.4400    0.0000 C   0  0  0  0  0  0  0  0  0  0  0  0
    0.9200    2.6900    0.0000 C   0  0  0  0  0  0  0  0  0  0  0  0
    4.5300    1.1900    0.0000 C   0  0  0  0  0  0  0  0  0  0  0  0
   -2.9800   -2.5600    0.0000 C   0  0  0  0  0  0  0  0  0  0  0  0
    4.9495    3.1491    0.0000 C   0  0  0  0  0  0  0  0  0  0  0  0
   -1.6800   -1.8100    0.0000 C   0  0  0  0  0  0  0  0  0  0  0  0
   -4.2800   -1.8100    0.0000 C   0  0  0  0  0  0  0  0  0  0  0  0
    0.9200   -0.3100    0.0000 C   0  0  0  0  0  0  0  0  0  0  0  0
   -0.3800    0.4400    0.0000 C   0  0  0  0  0  0  0  0  0  0  0  0
    2.2200    0.4400    0.0000 C   0  0  0  0  0  0  0  0  0  0  0  0
   -1.6800   -0.3100    0.0000 C   0  0  0  0  0  0  0  0  0  0  0  0
    2.2200    1.9400    0.0000 C   0  0  0  0  0  0  0  0  0  0  0  0
    3.6500    2.4000    0.0000 C   0  0  0  0  0  0  0  0  0  0  0  0
    6.2481    2.3983    0.0000 N   0  0  0  0  0  0  0  0  0  0  0  0
   -5.5789   -2.5602    0.0000 N   0  0  0  0  0  0  0  0  0  0  0  0
    3.6962    0.9007    0.0000 O   0  0  0  0  0  0  0  0  0  0  0  0
    7.5476    3.1474    0.0000 O   0  0  0  0  0  0  0  0  0  0  0  0
   -5.5787   -4.0602    0.0000 O   0  0  0  0  0  0  0  0  0  0  0  0
  7  6  1  0
 11  8  1  0
 12  9  1  0
 13 10  1  0
 15  1  1  0
 16  6  1  0
 16 14  2  0
 17  8  1  0
 17 14  1  0
 18  7  1  6
 19  9  1  1
 19 18  1  0
 20 10  1  1
 20 18  1  0
 21  2  1  1
 21 11  1  0
 21 16  1  0
 21 19  1  0
 22  3  1  1
 22 12  1  0
 22 20  1  0
 23 13  1  0
 23 15  1  0
 23 22  1  0
 15 24  2  0
 17 25  2  0
 23 26  1  6
 27  4  1  0
 27 24  1  0
 28  5  1  0
 28 25  1  0
M  END
>  <NAME>  (5584) 
17ALPHA-HYDROXYPROGESTERONE 3,20-BIS(O-METHYLOXIME)

>  <SYNONYMS>  (5584) 


>  <SPECTRUM TYPE>  (5584) 
MS1

>  <INSTRUMENT TYPE>  (5584) 
EI-B

>  <INSTRUMENT>  (5584) 
SHIMADZU LKB-9000B

>  <ION MODE>  (5584) 
P

>  <INCHIKEY>  (5584) 
FTLBXAHUQAJCNR-QGMZBMPISA-N

>  <FORMULA>  (5584) 
C23H36N2O3

>  <EXACT MASS>  (5584) 
388.27259301199996

>  <MW>  (5584) 
388

>  <ID>  (5584) 
JP002755

>  <CONTRIBUTOR>  (5584) 
University of Tokyo Team, {Faculty of Engineering, University of Tokyo

>  <COMMENT>  (5584) 
SMILES=CON=C(C4)C([H])=C(C3)C(C)(C4)C([H])(C2)C([H])(C3)C([H])(C1)C(C)(C2)C(O)(C(C)=NOC)C1
InChI=InChI=1S/C23H36N2O3/c1-15(24-27-4)23(26)13-10-20-18-7-6-16-14-17(25-28-5)8-11-21(16,2)19(18)9-12-22(20,23)3/h14,18-20,26H,6-13H2,1-5H3/b24-15+,25-17-/t18-,19+,20+,21+,22+,23+/m1/s1
computed SMILES=OC1(C(=NOC)C)CCC2C3CCC4=CC(=NOC)CCC4(C)C3CCC21C
accession=JP002755
date=2016.01.19 (Created 2008.10.21, modified 2011.05.06)
author=HAYASHI A, DEPT. OF CHEMISTRY, FAC. OF SCI. AND TECHNOLOGY, KINKI UNIV.
license=CC BY-NC-SA
exact mass=388.27259
ionization energy=70 eV
ion type=[M]+*
computed spectral entropy=5.038604512214637
computed normalized entropy=0.8959083976305815
SPLASH=splash10-0adi-3931000000-6dc28acca33c6f110277
submitter=submitter = University of Tokyo Team (Faculty of Engineering, University of Tokyo)
MoNA Rating=3.75

>  <NUM PEAKS>  (5584) 
277

>  <MASS SPECTRAL PEAKS>  (5584) 
50 8
51 16.9
52 12.2
53 4.01
54 18.3
55 57.1
56 10.5
57 0.73
58 5.3
59 4.2
62 2.7
63 0.85
64 2.9
65 20.5
66 14.8
67 4.74
68 5.6
69 12.6
70 10.1
71 0.88
72 7.4
73 11.2
74 2.6
75 0.52
76 3.6
77 64.5
78 41.8
79 7.33
80 20.2
81 37.8
82 12.7
83 0.62
84 5.2
85 6.6
86 6.3
87 0.09
88 2.8
89 9.6
90 3.1
91 9.3
92 25.8
93 56.8
94 23.5
95 2.59
96 8.5
97 16.3
98 4.9
99 0.33
100 4.7
101 3.3
102 6.9
103 1.49
104 18.1
105 59.5
106 31
107 4.4
108 39.1
109 15.5
110 11.4
111 0.79
112 7.7
113 4.4
114 3.3
115 2.17
116 20.3
117 32.4
118 22.9
119 4.18
120 46.9
121 64.8
122 30.2
123 4.08
124 7.5
125 99.99
126 12.4
127 0.72
128 19.9
129 23.2
130 21.6
131 3.12
132 19.8
133 25.3
134 17.9
135 2.74
136 19.4
137 67.7
138 22.1
139 0.77
140 5.8
141 14.7
142 12.9
143 2.03
144 24.7
145 23
146 24.5
147 1.61
148 11.2
149 19.4
150 8.3
151 4.96
152 23.7
153 45.8
154 13.4
155 1.39
156 13.9
157 20.5
158 19.7
159 1.89
160 16.3
161 7.9
162 6.6
163 0.6
164 10.1
165 13.7
166 9.2
167 0.94
168 7.1
169 12.2
170 16.2
171 1.48
172 15.1
173 7.9
174 12.7
175 0.55
176 6.1
177 5.5
178 8.6
179 0.57
180 5.7
181 6.7
182 5.9
183 1.2
184 12.7
185 9.7
186 11.1
187 0.8
188 6.6
189 5.5
190 6.3
191 0.24
192 4.2
193 7.1
194 6.5
195 0.72
196 9.1
197 4.7
198 9.3
199 0.79
200 4.9
201 4.4
202 5.6
203 0.34
204 6.1
205 4.4
206 5
207 0.59
208 5.3
209 9.7
210 9.8
211 1.12
212 10.1
213 6.1
214 5.4
215 0.37
216 5.5
217 5
218 7.2
219 0.19
220 5
221 5.6
222 6.8
223 0.63
224 12
225 9.6
226 14.5
227 1.03
228 5.3
229 4.9
230 4.6
231 0.29
232 2.9
233 3.7
234 2.9
235 0.39
236 4.9
237 3.7
238 7.9
239 0.42
240 10.9
241 5.7
242 8.1
243 0.47
244 3.8
245 3.3
246 3.1
248 0.32
249 5.5
250 6.5
251 5.8
252 0.67
253 5.7
254 5.8
255 8.3
256 0.77
257 4.5
258 6.8
259 5.3
260 0.36
261 3
263 3.3
264 3.3
265 0.6
266 11.4
267 8.4
268 16.2
269 0.54
270 11.4
271 4.7
272 7.1
273 0.48
274 4.4
275 3.3
277 3.1
278 0.29
279 4.6
280 4.1
281 13.7
282 0.97
283 31.9
284 35.5
285 33.7
286 0.39
287 4.7
290 3.3
291 3.3
292 0.45
293 3.4
294 4.1
295 3.1
297 0.39
298 4.6
299 3.4
300 14.2
301 0.31
307 3.9
308 4.2
309 3.3
310 0.28
311 3.6
313 6.5
314 4.6
315 8.75
316 22.3
317 3.4
323 2.8
324 0.31
325 5.6
326 2.9
327 3.4
328 0.29
329 4.5
337 2.8
339 6.7
340 0.25
341 4.5
354 3.3
355 8.8
356 0.7
357 48.5
358 14.2
359 3.6
370 1.53
371 6.4
386 3.9
387 4.5
388 0.89
389 2.7

$$$$

     RDKit          2D

 34 37  0  0  1  0  0  0  0  0999 V2000
    9.5655    7.2342    0.0000 C   0  0  0  0  0  0  0  0  0  0  0  0
   10.0746    4.6865    0.0000 C   0  0  0  0  0  0  0  0  0  0  0  0
    8.1228    2.9718    0.0000 C   0  0  0  0  0  0  0  0  0  0  0  0
    3.2009    4.6377    0.0000 C   0  0  0  0  0  0  0  0  0  0  0  0
   -1.6125    0.9400    0.0000 C   0  0  0  0  0  0  0  0  0  0  0  0
    2.4507    3.1203    0.0000 C   0  0  0  0  0  0  0  0  0  0  0  0
   -6.0504   -0.7943    0.0000 C   0  0  0  0  0  0  0  0  0  0  0  0
   -8.0985   -1.3471    0.0000 C   0  0  0  0  0  0  0  0  0  0  0  0
   -7.5457   -3.3951    0.0000 C   0  0  0  0  0  0  0  0  0  0  0  0
    8.0946    6.9403    0.0000 C   0  0  0  0  0  0  0  0  0  0  0  0
    5.6618    3.8047    0.0000 C   0  0  0  0  0  0  0  0  0  0  0  0
    6.1427    5.2256    0.0000 C   0  0  0  0  0  0  0  0  0  0  0  0
   -0.3200   -2.8400    0.0000 C   0  0  0  0  0  0  0  0  0  0  0  0
    1.0100   -2.0900    0.0000 C   0  0  0  0  0  0  0  0  0  0  0  0
    4.5500    0.8800    0.0000 C   0  0  0  0  0  0  0  0  0  0  0  0
    3.7100   -0.3100    0.0000 C   0  0  0  0  0  0  0  0  0  0  0  0
   -4.2000   -0.5600    0.0000 C   0  0  0  0  0  0  0  0  0  0  0  0
   -0.3200    1.6300    0.0000 C   0  0  0  0  0  0  0  0  0  0  0  0
   -2.8900    0.1600    0.0000 C   0  0  0  0  0  0  0  0  0  0  0  0
    1.0100    2.3900    0.0000 C   0  0  0  0  0  0  0  0  0  0  0  0
   -2.8900   -2.8400    0.0000 C   0  0  0  0  0  0  0  0  0  0  0  0
    8.6037    4.3926    0.0000 C   0  0  0  0  0  0  0  0  0  0  0  0
    4.1909    3.5108    0.0000 C   0  0  0  0  0  0  0  0  0  0  0  0
    7.6137    5.5195    0.0000 C   0  0  0  0  0  0  0  0  0  0  0  0
   -1.6200   -2.0900    0.0000 C   0  0  0  0  0  0  0  0  0  0  0  0
   -4.2000   -2.0900    0.0000 C   0  0  0  0  0  0  0  0  0  0  0  0
    1.0100   -0.5600    0.0000 C   0  0  0  0  0  0  0  0  0  0  0  0
    3.7100    2.0900    0.0000 C   0  0  0  0  0  0  0  0  0  0  0  0
    2.2800    0.1600    0.0000 C   0  0  0  0  0  0  0  0  0  0  0  0
   -0.3200    0.1600    0.0000 C   0  0  0  0  0  0  0  0  0  0  0  0
   -1.6200   -0.5600    0.0000 C   0  0  0  0  0  0  0  0  0  0  0  0
    2.2800    1.6300    0.0000 C   0  0  0  0  0  0  0  0  0  0  0  0
   -5.4977   -2.8424    0.0000 O   0  0  0  0  0  0  0  0  0  0  0  0
   -6.7981   -2.0947    0.0000 Si  0  0  0  0  0  4  0  0  0  0  0  0
 10  1  1  0
 12 11  1  0
 14 13  1  0
 16 15  1  0
 19 17  1  0
 20 18  1  0
 22  2  1  0
 22  3  1  0
 23  4  1  6
 23 11  1  0
 24 10  1  1
 24 12  1  0
 24 22  1  0
 25 13  2  0
 25 21  1  0
 26 17  1  0
 26 21  1  0
 27 14  1  6
 28 15  1  1
 28 23  1  0
 29 16  1  1
 29 27  1  0
 30 18  1  1
 30 27  1  0
 31  5  1  1
 31 19  1  0
 31 25  1  0
 31 30  1  0
 32  6  1  1
 32 20  1  0
 32 28  1  0
 32 29  1  0
 33 26  1  0
 34  7  1  0
 34  8  1  0
 34  9  1  0
 34 33  1  0
M  END
>  <NAME>  (5585) 
TRIMETHYLSILYL BETA-SITOSTEROL

>  <SYNONYMS>  (5585) 


>  <SPECTRUM TYPE>  (5585) 
MS1

>  <INSTRUMENT TYPE>  (5585) 
EI-B

>  <INSTRUMENT>  (5585) 
SHIMADZU LKB-9000B

>  <ION MODE>  (5585) 
P

>  <INCHIKEY>  (5585) 
XEWVATFZTBNDCF-JVZNPHIBSA-N

>  <FORMULA>  (5585) 
C32H58OSi

>  <EXACT MASS>  (5585) 
486.42569300599996

>  <MW>  (5585) 
486

>  <ID>  (5585) 
JP002754

>  <CONTRIBUTOR>  (5585) 
University of Tokyo Team, {Faculty of Engineering, University of Tokyo

>  <COMMENT>  (5585) 
SMILES=C(C([H])41)(CCC([H])(C([H])42)C(C)(C3)C(CC(C3)O[Si](C)(C)C)=CC2)(C)C(CC1)C(CCC([H])(C(C)C)CC)C
InChI=InChI=1S/C32H58OSi/c1-10-24(22(2)3)12-11-23(4)28-15-16-29-27-14-13-25-21-26(33-34(7,8)9)17-19-31(25,5)30(27)18-20-32(28,29)6/h13,22-24,26-30H,10-12,14-21H2,1-9H3/t23-,24-,26?,27+,28-,29+,30+,31+,32-/m1/s1
computed SMILES=O(C1CC2=CCC3C(CCC4(C)C(CCC34)C(C)CCC(CC)C(C)C)C2(C)CC1)[Si](C)(C)C
accession=JP002754
date=2016.01.19 (Created 2008.10.21, modified 2011.05.06)
author=HAYASHI A, DEPT. OF CHEMISTRY, FAC. OF SCI. AND TECHNOLOGY, KINKI UNIV.
license=CC BY-NC-SA
exact mass=486.42569
ionization energy=70 eV
ion type=[M]+*
computed spectral entropy=4.7371690011979375
computed normalized entropy=0.8478536200596255
SPLASH=splash10-0a4j-1935000000-55f0a56c7e8574952233
submitter=submitter = University of Tokyo Team (Faculty of Engineering, University of Tokyo)
MoNA Rating=3.75

>  <NUM PEAKS>  (5585) 
267

>  <MASS SPECTRAL PEAKS>  (5585) 
55 2.8
57 3.5
67 3.5
69 0.65
71 4.7
73 11.4
74 1.3
75 2.04
76 2.1
77 2.6
79 5.3
80 0.1
81 15.2
82 1.5
83 6.2
84 0.1
85 9.7
89 1.1
91 9.6
92 0.33
93 12
94 3.6
95 21.5
96 0.22
97 7.9
98 1
99 3.1
101 0.19
103 2
104 1.8
105 17.9
106 0.78
107 27.2
108 7
109 17.7
110 0.29
111 9.1
112 1.1
113 1.2
115 0.31
116 2
117 7.2
118 4.3
119 2.1
120 14.6
121 29.3
122 5.8
123 1.13
124 1.7
125 4.6
127 1.7
128 0.26
129 77.4
130 13.2
131 18.7
132 0.59
133 21.8
134 7.1
135 18.9
136 0.5
137 7.4
138 1.3
139 2.8
141 0.44
142 6.8
143 17.3
144 6.6
145 3.4
146 11.1
147 26.7
148 9.6
149 1.3
150 2.6
151 4.4
152 1.2
153 0.17
154 1.1
155 9.7
156 4.2
157 0.87
158 7.3
159 26
160 17
161 2.37
162 6.1
163 16.5
164 2.9
165 0.41
166 1.6
167 1.9
168 1.9
169 0.38
170 1.8
171 7
172 3.5
173 1.3
174 5.4
175 10.7
176 2.9
177 0.9
178 2.5
179 3.4
180 1.4
181 0.36
182 2.1
183 3.7
184 1.4
185 0.69
186 2.8
187 6.2
188 2.6
189 0.87
190 2.9
191 5.4
192 1.5
193 0.27
194 1.3
195 3.1
196 4
197 0.46
198 1.9
199 8.5
200 3.5
201 1.01
202 3.2
203 8.9
204 2.2
205 0.33
206 1.1
207 1.7
208 1.4
209 0.28
210 1.3
211 3.2
212 1.8
213 1.91
214 6.8
215 23.1
216 11.4
217 1.59
218 3.6
219 2.9
220 1.3
221 0.38
222 1.4
223 1
224 1.1
225 0.12
227 4.6
228 5.6
229 6.4
230 0.51
231 4.3
232 1.2
233 3.3
234 0.28
235 4.1
236 1.1
237 2.4
238 0.12
239 2.1
241 3.6
242 1.3
243 0.2
244 1
245 3.4
246 1.3
247 0.54
248 1.5
249 1.7
250 1.2
251 0.17
252 1
253 4.5
254 2.2
255 2.86
256 6.4
257 4.7
258 1.3
259 0.42
260 1.3
261 4.5
262 1.2
263 0.1
269 1.5
271 1.5
273 3.7
274 0.4
275 22.8
276 5.1
277 1.2
281 0.12
283 4.1
284 1.4
285 1.8
287 0.43
288 5
289 3
290 2.4
291 0.16
301 2.3
302 3.3
303 8.4
304 0.26
305 5.9
306 3.4
307 1.3
313 0.12
315 1.8
316 1
317 1.4
320 0.15
327 1.4
328 1.2
329 5.6
330 0.15
331 1.1
339 2
340 1.1
341 0.21
342 3.1
343 2.3
344 2.1
345 0.22
353 2.8
354 4.5
355 6.4
356 1.63
357 99.99
358 27.6
359 4.9
366 0.12
367 3.2
368 3.8
369 1.9
370 0.11
378 1
379 2.2
380 1.5
381 3.99
382 13.3
383 9.6
384 2.8
388 0.12
390 1.6
392 2.2
394 3.9
395 0.42
396 71.8
397 24
398 8.7
399 0.21
431 2.8
432 1
457 1
458 0.15
471 10.8
472 4.7
473 10.3
474 0.41
476 1.4
484 1.6
485 1.7
486 1.84
487 7.7
488 5.6
489 1.6

$$$$

     RDKit          2D

 34 37  0  0  1  0  0  0  0  0999 V2000
    9.5655    7.2342    0.0000 C   0  0  0  0  0  0  0  0  0  0  0  0
   10.0746    4.6865    0.0000 C   0  0  0  0  0  0  0  0  0  0  0  0
    8.1228    2.9718    0.0000 C   0  0  0  0  0  0  0  0  0  0  0  0
    3.2009    4.6377    0.0000 C   0  0  0  0  0  0  0  0  0  0  0  0
   -1.6125    0.9400    0.0000 C   0  0  0  0  0  0  0  0  0  0  0  0
    2.4507    3.1203    0.0000 C   0  0  0  0  0  0  0  0  0  0  0  0
   -6.0504   -0.7943    0.0000 C   0  0  0  0  0  0  0  0  0  0  0  0
   -8.0985   -1.3471    0.0000 C   0  0  0  0  0  0  0  0  0  0  0  0
   -7.5457   -3.3951    0.0000 C   0  0  0  0  0  0  0  0  0  0  0  0
    8.0946    6.9403    0.0000 C   0  0  0  0  0  0  0  0  0  0  0  0
    5.6618    3.8047    0.0000 C   0  0  0  0  0  0  0  0  0  0  0  0
    6.1427    5.2256    0.0000 C   0  0  0  0  0  0  0  0  0  0  0  0
   -0.3200   -2.8400    0.0000 C   0  0  0  0  0  0  0  0  0  0  0  0
    1.0100   -2.0900    0.0000 C   0  0  0  0  0  0  0  0  0  0  0  0
    4.5500    0.8800    0.0000 C   0  0  0  0  0  0  0  0  0  0  0  0
    3.7100   -0.3100    0.0000 C   0  0  0  0  0  0  0  0  0  0  0  0
   -4.2000   -0.5600    0.0000 C   0  0  0  0  0  0  0  0  0  0  0  0
   -0.3200    1.6300    0.0000 C   0  0  0  0  0  0  0  0  0  0  0  0
   -2.8900    0.1600    0.0000 C   0  0  0  0  0  0  0  0  0  0  0  0
    1.0100    2.3900    0.0000 C   0  0  0  0  0  0  0  0  0  0  0  0
   -2.8900   -2.8400    0.0000 C   0  0  0  0  0  0  0  0  0  0  0  0
    8.6037    4.3926    0.0000 C   0  0  0  0  0  0  0  0  0  0  0  0
    4.1909    3.5108    0.0000 C   0  0  0  0  0  0  0  0  0  0  0  0
    7.6137    5.5195    0.0000 C   0  0  0  0  0  0  0  0  0  0  0  0
   -1.6200   -2.0900    0.0000 C   0  0  0  0  0  0  0  0  0  0  0  0
   -4.2000   -2.0900    0.0000 C   0  0  0  0  0  0  0  0  0  0  0  0
    1.0100   -0.5600    0.0000 C   0  0  0  0  0  0  0  0  0  0  0  0
    3.7100    2.0900    0.0000 C   0  0  0  0  0  0  0  0  0  0  0  0
    2.2800    0.1600    0.0000 C   0  0  0  0  0  0  0  0  0  0  0  0
   -0.3200    0.1600    0.0000 C   0  0  0  0  0  0  0  0  0  0  0  0
   -1.6200   -0.5600    0.0000 C   0  0  0  0  0  0  0  0  0  0  0  0
    2.2800    1.6300    0.0000 C   0  0  0  0  0  0  0  0  0  0  0  0
   -5.4977   -2.8424    0.0000 O   0  0  0  0  0  0  0  0  0  0  0  0
   -6.7981   -2.0947    0.0000 Si  0  0  0  0  0  4  0  0  0  0  0  0
 10  1  1  0
 11 12  2  0
 14 13  1  0
 16 15  1  0
 19 17  1  0
 20 18  1  0
 22  2  1  0
 22  3  1  0
 23  4  1  6
 23 11  1  0
 24 10  1  1
 24 12  1  0
 24 22  1  0
 25 13  2  0
 25 21  1  0
 26 17  1  0
 26 21  1  0
 27 14  1  6
 28 15  1  1
 28 23  1  0
 29 16  1  1
 29 27  1  0
 30 18  1  1
 30 27  1  0
 31  5  1  1
 31 19  1  0
 31 25  1  0
 31 30  1  0
 32  6  1  1
 32 20  1  0
 32 28  1  0
 32 29  1  0
 26 33  1  1
 34  7  1  0
 34  8  1  0
 34  9  1  0
 34 33  1  0
M  END
>  <NAME>  (5586) 
TRIMETHYLSILYL STIGMASTEROL

>  <SYNONYMS>  (5586) 


>  <SPECTRUM TYPE>  (5586) 
MS1

>  <INSTRUMENT TYPE>  (5586) 
EI-B

>  <INSTRUMENT>  (5586) 
SHIMADZU LKB-9000B

>  <ION MODE>  (5586) 
P

>  <INCHIKEY>  (5586) 
SZLWSWKRZSAHBC-MZXORBNVSA-N

>  <FORMULA>  (5586) 
C32H56OSi

>  <EXACT MASS>  (5586) 
484.410042942

>  <MW>  (5586) 
484

>  <ID>  (5586) 
JP002753

>  <CONTRIBUTOR>  (5586) 
University of Tokyo Team, {Faculty of Engineering, University of Tokyo

>  <COMMENT>  (5586) 
SMILES=C(C32[H])(C(C4)([H])C(C([H])(C4)C([H])(C)C=CC(CC)([H])C(C)C)(C)CC3)(CC=C(C21C)CC(CC1)(O[Si](C)(C)C)[H])[H]
InChI=InChI=1S/C32H56OSi/c1-10-24(22(2)3)12-11-23(4)28-15-16-29-27-14-13-25-21-26(33-34(7,8)9)17-19-31(25,5)30(27)18-20-32(28,29)6/h11-13,22-24,26-30H,10,14-21H2,1-9H3/b12-11+/t23-,24-,26+,27+,28-,29+,30+,31+,32-/m1/s1
computed SMILES=O(C1CC2=CCC3C(CCC4(C)C(CCC34)C(C=CC(CC)C(C)C)C)C2(C)CC1)[Si](C)(C)C
accession=JP002753
date=2016.01.19 (Created 2008.10.21, modified 2011.05.06)
author=HAYASHI A, DEPT. OF CHEMISTRY, FAC. OF SCI. AND TECHNOLOGY, KINKI UNIV.
license=CC BY-NC-SA
exact mass=484.41004
ionization energy=70 eV
ion type=[M]+*
computed spectral entropy=4.660861685510442
computed normalized entropy=0.8584573545390607
SPLASH=splash10-057j-2932000000-4508e0e52a7847dc3ee2
submitter=submitter = University of Tokyo Team (Faculty of Engineering, University of Tokyo)
MoNA Rating=3.75

>  <NUM PEAKS>  (5586) 
228

>  <MASS SPECTRAL PEAKS>  (5586) 
55 8.1
57 3
67 4.9
69 1.75
70 1.3
71 5
73 17.9
74 0.18
75 17.9
76 1.4
77 3.2
79 0.81
80 1.3
81 24
82 2.9
83 7.24
84 6
85 2.7
89 1.1
91 1.17
92 2.4
93 17.1
94 3.8
95 2.16
96 4.3
97 22.5
98 2.1
101 0.13
103 2.3
104 1.2
105 20.4
106 0.45
107 25.9
108 4.5
109 18.8
110 0.41
111 4.3
115 3.4
116 1.7
117 0.8
118 2.9
119 26.6
120 11.8
121 2.09
122 4.2
123 14
124 2.5
125 0.15
127 1
128 2.3
129 99.99
130 1.51
131 21.1
132 5.7
133 41.9
134 0.75
135 16.2
136 2.6
137 7.7
138 0.21
139 40.8
140 4.6
141 2.9
142 0.25
143 16.7
144 5.6
145 38
146 0.93
147 31.4
148 5.6
149 9.7
150 0.14
151 3.3
155 7.6
156 2.7
157 1.4
158 9.1
159 43.3
160 9.8
161 2.18
162 4
163 6.8
164 1.7
165 0.32
166 1.8
167 1.2
168 1.4
169 0.65
170 2
171 8.8
172 3.5
173 1.64
174 4.2
175 7.6
176 1.5
177 0.31
178 1.9
179 1.7
181 3
182 0.21
183 3.5
184 1.5
185 9.2
186 0.34
187 8.3
188 3
189 10.4
190 0.18
191 2.7
193 1.2
194 1
195 0.26
196 3.5
197 6.2
198 2.2
199 1.3
200 3.9
201 7.9
202 2.3
203 0.37
205 2
209 1.3
211 7.7
212 0.37
213 26.8
214 7.4
215 20.1
216 0.45
217 6.4
218 1.3
219 1.6
221 0.1
223 1.3
225 3.5
226 2.4
227 0.84
228 10.3
229 7.2
230 1.6
231 0.24
233 1.4
235 1.1
237 1
239 0.72
240 4.7
241 7.8
242 2.9
243 0.85
244 1.9
245 1.9
247 1.2
249 0.1
251 1.2
253 18.7
254 8.8
255 9.57
256 21
257 10.8
258 2.1
259 0.13
267 6.3
268 2
269 2.4
271 1.26
272 3.3
273 4.1
274 1.2
281 0.77
282 10.5
283 10.6
284 2.4
285 0.18
295 4.7
296 3.5
297 1.3
300 0.16
301 2.9
302 1
303 1.5
309 0.54
310 1.9
311 1.2
318 2.6
319 0.1
327 2
329 1.9
330 2.4
331 0.18
339 1
340 1
342 1.8
343 0.88
344 5.7
345 3.7
346 1.1
351 3.84
352 13.6
353 6.4
354 13.5
355 2.77
356 7.6
357 2.4
365 3.2
366 0.34
367 1
371 1.5
372 6.9
373 0.31
374 1.1
379 22.5
380 7.2
381 0.13
386 1.7
392 1.7
393 2.5
394 5.56
395 17.6
396 3
441 1.8
443 0.12
469 9.8
470 3.8
471 1.1
472 0.13
483 1.2
484 29.7
486 11.4
487 3.5

$$$$

     RDKit          2D

 34 37  0  0  1  0  0  0  0  0999 V2000
   10.0746    4.6865    0.0000 C   0  0  0  0  0  0  0  0  0  0  0  0
    9.5655    7.2342    0.0000 C   0  0  0  0  0  0  0  0  0  0  0  0
    7.1046    8.0672    0.0000 C   0  0  0  0  0  0  0  0  0  0  0  0
    3.2009    4.6377    0.0000 C   0  0  0  0  0  0  0  0  0  0  0  0
   -1.6125    0.9400    0.0000 C   0  0  0  0  0  0  0  0  0  0  0  0
    2.4507    3.1203    0.0000 C   0  0  0  0  0  0  0  0  0  0  0  0
   -6.9949   -4.3451    0.0000 C   0  0  0  0  0  0  0  0  0  0  0  0
   -5.4922   -5.8424    0.0000 C   0  0  0  0  0  0  0  0  0  0  0  0
   -3.9950   -4.3396    0.0000 C   0  0  0  0  0  0  0  0  0  0  0  0
    8.6037    4.3926    0.0000 C   0  0  0  0  0  0  0  0  0  0  0  0
    5.6618    3.8047    0.0000 C   0  0  0  0  0  0  0  0  0  0  0  0
    6.1427    5.2256    0.0000 C   0  0  0  0  0  0  0  0  0  0  0  0
   -0.3200   -2.8400    0.0000 C   0  0  0  0  0  0  0  0  0  0  0  0
    1.0100   -2.0900    0.0000 C   0  0  0  0  0  0  0  0  0  0  0  0
    4.5500    0.8800    0.0000 C   0  0  0  0  0  0  0  0  0  0  0  0
    3.7100   -0.3100    0.0000 C   0  0  0  0  0  0  0  0  0  0  0  0
   -4.2000   -0.5600    0.0000 C   0  0  0  0  0  0  0  0  0  0  0  0
   -0.3200    1.6300    0.0000 C   0  0  0  0  0  0  0  0  0  0  0  0
   -2.8900    0.1600    0.0000 C   0  0  0  0  0  0  0  0  0  0  0  0
    1.0100    2.3900    0.0000 C   0  0  0  0  0  0  0  0  0  0  0  0
   -2.8900   -2.8400    0.0000 C   0  0  0  0  0  0  0  0  0  0  0  0
    8.0946    6.9403    0.0000 C   0  0  0  0  0  0  0  0  0  0  0  0
    4.1909    3.5108    0.0000 C   0  0  0  0  0  0  0  0  0  0  0  0
    7.6137    5.5195    0.0000 C   0  0  0  0  0  0  0  0  0  0  0  0
   -1.6200   -2.0900    0.0000 C   0  0  0  0  0  0  0  0  0  0  0  0
   -4.2000   -2.0900    0.0000 C   0  0  0  0  0  0  0  0  0  0  0  0
    1.0100   -0.5600    0.0000 C   0  0  0  0  0  0  0  0  0  0  0  0
    3.7100    2.0900    0.0000 C   0  0  0  0  0  0  0  0  0  0  0  0
    2.2800    0.1600    0.0000 C   0  0  0  0  0  0  0  0  0  0  0  0
   -0.3200    0.1600    0.0000 C   0  0  0  0  0  0  0  0  0  0  0  0
   -1.6200   -0.5600    0.0000 C   0  0  0  0  0  0  0  0  0  0  0  0
    2.2800    1.6300    0.0000 C   0  0  0  0  0  0  0  0  0  0  0  0
   -5.4977   -2.8424    0.0000 O   0  0  0  0  0  0  0  0  0  0  0  0
   -5.4950   -4.3424    0.0000 Si  0  0  0  0  0  4  0  0  0  0  0  0
 10  1  1  0
 12 11  1  0
 14 13  1  0
 16 15  1  0
 19 17  1  0
 20 18  1  0
 22  2  1  0
 22  3  1  0
 23  4  1  6
 23 11  1  0
 10 24  2  0
 24 12  1  0
 24 22  1  0
 25 13  2  0
 25 21  1  0
 26 17  1  0
 26 21  1  0
 27 14  1  6
 28 15  1  1
 28 23  1  0
 29 16  1  1
 29 27  1  0
 30 18  1  1
 30 27  1  0
 31  5  1  1
 31 19  1  0
 31 25  1  0
 31 30  1  0
 32  6  1  1
 32 20  1  0
 32 28  1  0
 32 29  1  0
 26 33  1  1
 34  7  1  0
 34  8  1  0
 34  9  1  0
 34 33  1  0
M  END
>  <NAME>  (5587) 
TRIMETHYLSILYL FUCOSTEROL

>  <SYNONYMS>  (5587) 


>  <SPECTRUM TYPE>  (5587) 
MS1

>  <INSTRUMENT TYPE>  (5587) 
EI-B

>  <INSTRUMENT>  (5587) 
SHIMADZU LKB-9000B

>  <ION MODE>  (5587) 
P

>  <INCHIKEY>  (5587) 
LPZCEKQSHGYQRN-AAFSFRDQSA-N

>  <FORMULA>  (5587) 
C32H56OSi

>  <EXACT MASS>  (5587) 
484.41004294199996

>  <MW>  (5587) 
484

>  <ID>  (5587) 
JP002752

>  <CONTRIBUTOR>  (5587) 
University of Tokyo Team, {Faculty of Engineering, University of Tokyo

>  <COMMENT>  (5587) 
SMILES=C(C3([H])1)CC(C([H])(C(CCC(C(C)C)=CC)([H])C)4)(C([H])(CC4)C1(CC=C(C32C)CC(CC2)(O[Si](C)(C)C)[H])[H])C
InChI=InChI=1S/C32H56OSi/c1-10-24(22(2)3)12-11-23(4)28-15-16-29-27-14-13-25-21-26(33-34(7,8)9)17-19-31(25,5)30(27)18-20-32(28,29)6/h10,13,22-23,26-30H,11-12,14-21H2,1-9H3/b24-10-/t23-,26+,27+,28-,29+,30+,31+,32-/m1/s1
computed SMILES=O(C1CC2=CCC3C(CCC4(C)C(CCC34)C(C)CCC(=CC)C(C)C)C2(C)CC1)[Si](C)(C)C
accession=JP002752
date=2016.01.19 (Created 2008.10.21, modified 2011.05.06)
author=HAYASHI A, DEPT. OF CHEMISTRY, FAC. OF SCI. AND TECHNOLOGY, KINKI UNIV.
license=CC BY-NC-SA
exact mass=484.41004
ionization energy=70 eV
ion type=[M]+*
computed spectral entropy=4.706830622474667
computed normalized entropy=0.8549586145273876
SPLASH=splash10-054k-2953000000-92e0f8512b893ecce774
submitter=submitter = University of Tokyo Team (Faculty of Engineering, University of Tokyo)
MoNA Rating=3.75

>  <NUM PEAKS>  (5587) 
246

>  <MASS SPECTRAL PEAKS>  (5587) 
55 6.8
57 1
67 4.3
68 0.1
69 12
70 1
71 2
73 1.74
74 1.9
75 20.5
76 1.7
77 0.34
79 6.5
80 1.1
81 16.5
82 0.22
83 11
84 1.3
85 2.1
89 0.11
91 11.9
92 2.9
93 15
94 0.36
95 24.4
96 2.6
97 23
98 0.24
99 1.1
101 1.9
103 2
104 0.15
105 20
106 6.2
107 26.6
108 0.57
109 21
110 3.6
111 11.4
112 0.13
113 1
115 3.6
116 2.2
117 8.1
118 0.47
119 30.8
120 16
121 30.7
122 0.55
123 13.7
124 1.7
125 3.8
127 0.12
128 2.8
129 99.99
130 16.1
131 2.09
132 7.4
133 23
134 7.1
135 1.79
136 3.7
137 10.8
138 2.9
139 0.49
140 1
141 3.5
142 3.4
143 1.95
144 7.4
145 33.8
146 10.4
147 2.53
148 7
149 13.1
150 2.3
151 0.37
152 1
153 1.4
154 1
155 0.75
156 4.5
157 12.2
158 12.5
159 3.16
160 15
161 29
162 5.6
163 1.22
164 2.2
165 4
166 1
167 0.14
168 1.7
169 6.9
170 2.4
171 0.86
172 6.9
173 16.3
174 6.8
175 1.56
176 4.1
177 6.2
178 1.4
179 0.2
181 3.2
182 2.2
183 4.3
184 0.19
185 9.7
186 4.5
187 10.4
188 0.44
189 12.8
190 2.7
191 3.4
192 0.11
193 1.7
194 1.2
195 3.4
196 0.4
197 7.6
198 3.3
199 11.1
200 0.48
201 10.6
202 3.8
203 10.1
204 0.21
205 2
207 1.4
208 1.1
209 0.2
210 1.1
211 16.4
212 6.1
213 2.57
214 10.9
215 12.4
216 3.4
217 0.87
218 1.8
219 2.4
220 1
221 0.18
223 1.3
225 4.1
226 2.8
227 1.15
228 12.2
229 8.7
230 2.2
231 0.45
232 1.2
233 2.7
234 1.2
235 0.15
239 5.4
240 3.4
241 6.4
242 0.34
243 11.9
244 3.2
245 4.4
246 0.15
247 1.9
248 1.5
249 1.2
251 0.13
252 1.3
253 20.9
254 8.2
255 2.16
256 11.4
257 41.6
258 8.6
259 0.33
266 1.1
267 4.7
268 3
269 0.21
270 2.5
271 4.1
272 2.1
273 1.39
274 3.6
281 41
282 11.8
283 0.76
284 2.1
285 2.6
286 1.3
287 0.13
294 1
295 3.3
296 89
297 2.48
301 5.9
302 2.3
303 2.6
304 0.25
305 1
317 1.1
318 2.8
327 0.26
330 1.5
337 1.2
339 1.3
340 0.12
342 1.6
343 8.9
344 4.3
345 0.18
351 2
352 3.1
353 4.9
354 0.82
355 43
356 11.6
357 2.7
365 0.16
366 2.4
371 13.4
372 6.1
373 0.21
379 25.7
380 8.7
381 1.5
386 8.12
387 27
388 8.2
389 1.9
392 0.28
393 2.7
394 31.2
395 9.8
396 0.19
469 13.2
470 5.6
471 1.7
482 0.11
483 1.2
484 8.7
485 3.7
486 0.11
487 0.4

$$$$

     RDKit          2D

 33 36  0  0  1  0  0  0  0  0999 V2000
    9.5655    7.2342    0.0000 C   0  0  0  0  0  0  0  0  0  0  0  0
    7.1046    8.0672    0.0000 C   0  0  0  0  0  0  0  0  0  0  0  0
    8.6037    4.3926    0.0000 C   0  0  0  0  0  0  0  0  0  0  0  0
    3.2009    4.6377    0.0000 C   0  0  0  0  0  0  0  0  0  0  0  0
   -1.6125    0.9400    0.0000 C   0  0  0  0  0  0  0  0  0  0  0  0
    2.4507    3.1203    0.0000 C   0  0  0  0  0  0  0  0  0  0  0  0
   -6.9949   -4.3451    0.0000 C   0  0  0  0  0  0  0  0  0  0  0  0
   -5.4922   -5.8424    0.0000 C   0  0  0  0  0  0  0  0  0  0  0  0
   -3.9950   -4.3396    0.0000 C   0  0  0  0  0  0  0  0  0  0  0  0
    6.1427    5.2256    0.0000 C   0  0  0  0  0  0  0  0  0  0  0  0
    5.6618    3.8047    0.0000 C   0  0  0  0  0  0  0  0  0  0  0  0
   -0.3200   -2.8400    0.0000 C   0  0  0  0  0  0  0  0  0  0  0  0
    1.0100   -2.0900    0.0000 C   0  0  0  0  0  0  0  0  0  0  0  0
    4.5500    0.8800    0.0000 C   0  0  0  0  0  0  0  0  0  0  0  0
    3.7100   -0.3100    0.0000 C   0  0  0  0  0  0  0  0  0  0  0  0
   -4.2000   -0.5600    0.0000 C   0  0  0  0  0  0  0  0  0  0  0  0
   -0.3200    1.6300    0.0000 C   0  0  0  0  0  0  0  0  0  0  0  0
   -2.8900    0.1600    0.0000 C   0  0  0  0  0  0  0  0  0  0  0  0
    1.0100    2.3900    0.0000 C   0  0  0  0  0  0  0  0  0  0  0  0
   -2.8900   -2.8400    0.0000 C   0  0  0  0  0  0  0  0  0  0  0  0
    8.0946    6.9403    0.0000 C   0  0  0  0  0  0  0  0  0  0  0  0
    7.6137    5.5195    0.0000 C   0  0  0  0  0  0  0  0  0  0  0  0
    4.1909    3.5108    0.0000 C   0  0  0  0  0  0  0  0  0  0  0  0
   -1.6200   -2.0900    0.0000 C   0  0  0  0  0  0  0  0  0  0  0  0
   -4.2000   -2.0900    0.0000 C   0  0  0  0  0  0  0  0  0  0  0  0
    1.0100   -0.5600    0.0000 C   0  0  0  0  0  0  0  0  0  0  0  0
    3.7100    2.0900    0.0000 C   0  0  0  0  0  0  0  0  0  0  0  0
    2.2800    0.1600    0.0000 C   0  0  0  0  0  0  0  0  0  0  0  0
   -0.3200    0.1600    0.0000 C   0  0  0  0  0  0  0  0  0  0  0  0
   -1.6200   -0.5600    0.0000 C   0  0  0  0  0  0  0  0  0  0  0  0
    2.2800    1.6300    0.0000 C   0  0  0  0  0  0  0  0  0  0  0  0
   -5.4977   -2.8424    0.0000 O   0  0  0  0  0  0  0  0  0  0  0  0
   -5.4950   -4.3424    0.0000 Si  0  0  0  0  0  4  0  0  0  0  0  0
 11 10  1  0
 13 12  1  0
 15 14  1  0
 18 16  1  0
 19 17  1  0
 21  1  1  0
 21  2  1  0
 22  3  2  0
 22 10  1  0
 22 21  1  0
 23  4  1  6
 23 11  1  0
 24 12  2  0
 24 20  1  0
 25 16  1  0
 25 20  1  0
 26 13  1  6
 27 14  1  1
 27 23  1  0
 28 15  1  1
 28 26  1  0
 29 17  1  1
 29 26  1  0
 30  5  1  1
 30 18  1  0
 30 24  1  0
 30 29  1  0
 31  6  1  1
 31 19  1  0
 31 27  1  0
 31 28  1  0
 25 32  1  1
 33  7  1  0
 33  8  1  0
 33  9  1  0
 33 32  1  0
M  END
>  <NAME>  (5588) 
TRIMETHYLSILYL 24-METHYLENECHOLESTEROL

>  <SYNONYMS>  (5588) 


>  <SPECTRUM TYPE>  (5588) 
MS1

>  <INSTRUMENT TYPE>  (5588) 
EI-B

>  <INSTRUMENT>  (5588) 
SHIMADZU LKB-9000B

>  <ION MODE>  (5588) 
P

>  <INCHIKEY>  (5588) 
HHNSXGBDYOSLLW-BWVDWJPHSA-N

>  <FORMULA>  (5588) 
C31H54OSi

>  <EXACT MASS>  (5588) 
470.39439287799996

>  <MW>  (5588) 
470

>  <ID>  (5588) 
JP002751

>  <CONTRIBUTOR>  (5588) 
University of Tokyo Team, {Faculty of Engineering, University of Tokyo

>  <COMMENT>  (5588) 
SMILES=C(C2([H])4)(C(C3)([H])C(CC4)(C(C3)C(C)CCC(C(C)C)=C)C)(CC=C(C12C)CC(CC1)O[Si](C)(C)C)[H]
InChI=InChI=1S/C31H54OSi/c1-21(2)22(3)10-11-23(4)27-14-15-28-26-13-12-24-20-25(32-33(7,8)9)16-18-30(24,5)29(26)17-19-31(27,28)6/h12,21,23,25-29H,3,10-11,13-20H2,1-2,4-9H3/t23-,25+,26+,27-,28+,29+,30+,31-/m1/s1
computed SMILES=O(C1CC2=CCC3C(CCC4(C)C(CCC34)C(C)CCC(=C)C(C)C)C2(C)CC1)[Si](C)(C)C
accession=JP002751
date=2016.01.19 (Created 2008.10.21, modified 2011.05.06)
author=HAYASHI A, DEPT. OF CHEMISTRY, FAC. OF SCI. AND TECHNOLOGY, KINKI UNIV.
license=CC BY-NC-SA
exact mass=470.39439
ionization energy=70 eV
ion type=[M]+*
computed spectral entropy=4.709033152882646
computed normalized entropy=0.8645603471499894
SPLASH=splash10-004j-2942000000-dd14ec25a140614b4e07
submitter=submitter = University of Tokyo Team (Faculty of Engineering, University of Tokyo)
MoNA Rating=3.75

>  <NUM PEAKS>  (5588) 
232

>  <MASS SPECTRAL PEAKS>  (5588) 
55 4.8
57 1.1
67 4.7
68 0.11
69 11.8
71 1.4
73 18.2
74 0.19
75 18.8
76 1.5
77 2.9
79 0.73
80 1.2
81 17.4
82 1.8
83 1.13
84 2.1
89 1.1
91 11.7
92 0.25
93 15.4
94 4
95 25.6
96 0.31
97 14.7
98 1.5
101 1.8
103 0.22
104 1.6
105 19.6
106 5.4
107 2.81
108 5.8
109 20.9
110 2.6
111 0.59
115 3.7
116 2.4
117 7.5
118 0.41
119 33.9
120 13.6
121 28.9
122 0.48
123 14.7
124 4.1
125 7.6
126 0.12
127 1.7
128 2.3
129 99.99
130 1.64
131 19.4
132 6.6
133 23.8
134 0.63
135 18.5
136 3
137 7.9
138 0.1
139 1
141 3
142 3.4
143 1.85
144 6.6
145 30.5
146 9.9
147 2.36
148 6.1
149 12.9
150 3.1
151 0.64
152 1.1
153 1.4
154 1.1
155 0.69
156 3.7
157 11.1
158 9.7
159 2.84
160 14.3
161 25.6
162 5
163 1.45
164 2.7
165 3.3
166 1
167 0.13
168 1.6
169 5
170 1.9
171 0.9
172 4.6
173 13.5
174 4.6
175 1.41
176 2.9
177 6.7
178 1.7
179 0.22
180 1.1
181 2.9
182 1.9
183 0.38
184 1.6
185 7.5
186 3.1
187 0.86
188 3.2
189 11.5
190 2.2
191 0.35
193 2.9
194 1.3
195 2.7
196 0.33
197 5.8
198 2.5
199 9.5
200 0.37
201 8.2
202 2.9
203 8.2
204 0.17
205 2.8
207 1.3
209 1.7
210 0.11
211 9.2
212 4
213 20.3
214 0.7
215 10.8
216 2.6
217 9.6
218 0.21
219 3.5
220 1.2
221 1.5
225 0.36
226 2.2
227 8.2
228 7.6
229 0.71
230 1.3
231 3.8
232 1.1
233 0.24
235 1.4
239 4.4
240 2.5
241 0.49
242 1.9
243 10.4
244 2.3
245 0.4
246 1.2
247 1.5
248 1
251 0.11
252 1.5
253 21.3
254 8
255 1.56
256 6
257 28.1
258 6.8
259 1.28
260 3.2
267 3.6
268 1.9
269 0.2
270 1.4
271 3.8
272 1.6
273 0.13
281 19.7
282 6.7
283 11.4
284 0.27
285 2.1
286 2.2
287 3.4
288 0.1
295 2.2
296 29.3
297 8.8
298 0.17
299 1
301 1.3
303 1.7
304 0.13
313 2.7
314 1.1
315 1.6
318 0.12
323 1
325 1.4
326 1.3
337 0.23
338 3.1
339 4.8
340 10.2
341 4.28
342 14
343 14.8
344 6.4
345 0.25
351 1.6
352 2.4
365 23.8
366 0.81
367 1.5
371 6.3
372 0.39
373 1.7
378 1.9
379 2
380 3.54
381 11.7
382 2.1
386 24.4
387 0.89
388 2.4
455 11.5
456 4.2
458 0.15
468 1.1
469 1.1
470 10.5
471 0.39
472 1.3

$$$$

     RDKit          2D

 32 35  0  0  1  0  0  0  0  0999 V2000
    9.5655    7.2342    0.0000 C   0  0  0  0  0  0  0  0  0  0  0  0
    7.1046    8.0672    0.0000 C   0  0  0  0  0  0  0  0  0  0  0  0
    3.2009    4.6377    0.0000 C   0  0  0  0  0  0  0  0  0  0  0  0
   -1.6125    0.9400    0.0000 C   0  0  0  0  0  0  0  0  0  0  0  0
    2.4507    3.1203    0.0000 C   0  0  0  0  0  0  0  0  0  0  0  0
   -6.9949   -4.3451    0.0000 C   0  0  0  0  0  0  0  0  0  0  0  0
   -5.4922   -5.8424    0.0000 C   0  0  0  0  0  0  0  0  0  0  0  0
   -3.9950   -4.3396    0.0000 C   0  0  0  0  0  0  0  0  0  0  0  0
    6.1427    5.2256    0.0000 C   0  0  0  0  0  0  0  0  0  0  0  0
    7.6137    5.5195    0.0000 C   0  0  0  0  0  0  0  0  0  0  0  0
    5.6618    3.8047    0.0000 C   0  0  0  0  0  0  0  0  0  0  0  0
   -0.3200   -2.8400    0.0000 C   0  0  0  0  0  0  0  0  0  0  0  0
    1.0100   -2.0900    0.0000 C   0  0  0  0  0  0  0  0  0  0  0  0
    4.5500    0.8800    0.0000 C   0  0  0  0  0  0  0  0  0  0  0  0
    3.7100   -0.3100    0.0000 C   0  0  0  0  0  0  0  0  0  0  0  0
   -4.2000   -0.5600    0.0000 C   0  0  0  0  0  0  0  0  0  0  0  0
   -0.3200    1.6300    0.0000 C   0  0  0  0  0  0  0  0  0  0  0  0
   -2.8900    0.1600    0.0000 C   0  0  0  0  0  0  0  0  0  0  0  0
    1.0100    2.3900    0.0000 C   0  0  0  0  0  0  0  0  0  0  0  0
   -2.8900   -2.8400    0.0000 C   0  0  0  0  0  0  0  0  0  0  0  0
    8.0946    6.9403    0.0000 C   0  0  0  0  0  0  0  0  0  0  0  0
    4.1909    3.5108    0.0000 C   0  0  0  0  0  0  0  0  0  0  0  0
   -1.6200   -2.0900    0.0000 C   0  0  0  0  0  0  0  0  0  0  0  0
   -4.2000   -2.0900    0.0000 C   0  0  0  0  0  0  0  0  0  0  0  0
    1.0100   -0.5600    0.0000 C   0  0  0  0  0  0  0  0  0  0  0  0
    3.7100    2.0900    0.0000 C   0  0  0  0  0  0  0  0  0  0  0  0
    2.2800    0.1600    0.0000 C   0  0  0  0  0  0  0  0  0  0  0  0
   -0.3200    0.1600    0.0000 C   0  0  0  0  0  0  0  0  0  0  0  0
   -1.6200   -0.5600    0.0000 C   0  0  0  0  0  0  0  0  0  0  0  0
    2.2800    1.6300    0.0000 C   0  0  0  0  0  0  0  0  0  0  0  0
   -5.4977   -2.8424    0.0000 O   0  0  0  0  0  0  0  0  0  0  0  0
   -5.4950   -4.3424    0.0000 Si  0  0  0  0  0  4  0  0  0  0  0  0
 10  9  1  0
 11  9  1  0
 13 12  1  0
 15 14  1  0
 18 16  1  0
 19 17  1  0
 21  1  1  0
 21  2  1  0
 21 10  1  0
 22  3  1  6
 22 11  1  0
 23 12  2  0
 23 20  1  0
 24 16  1  0
 24 20  1  0
 25 13  1  6
 26 14  1  1
 26 22  1  0
 27 15  1  1
 27 25  1  0
 28 17  1  1
 28 25  1  0
 29  4  1  1
 29 18  1  0
 29 23  1  0
 29 28  1  0
 30  5  1  1
 30 19  1  0
 30 26  1  0
 30 27  1  0
 31 24  1  0
 32  6  1  0
 32  7  1  0
 32  8  1  0
 32 31  1  0
M  END
>  <NAME>  (5589) 
TRIMETHYLSILYL CHOLESTEROL

>  <SYNONYMS>  (5589) 


>  <SPECTRUM TYPE>  (5589) 
MS1

>  <INSTRUMENT TYPE>  (5589) 
EI-B

>  <INSTRUMENT>  (5589) 
SHIMADZU LKB-9000B

>  <ION MODE>  (5589) 
P

>  <INCHIKEY>  (5589) 
CBVJJGRSRFXUPK-HBOBSPHKSA-N

>  <FORMULA>  (5589) 
C30H54OSi

>  <EXACT MASS>  (5589) 
458.39439287799996

>  <MW>  (5589) 
458

>  <ID>  (5589) 
JP002750

>  <CONTRIBUTOR>  (5589) 
University of Tokyo Team, {Faculty of Engineering, University of Tokyo

>  <COMMENT>  (5589) 
SMILES=C(C(C4)C(C3)(C)C(C4)([H])C(C2([H])C3)(CC=C(C12C)CC(CC1)O[Si](C)(C)C)[H])(CCCC(C)C)C
InChI=InChI=1S/C30H54OSi/c1-21(2)10-9-11-22(3)26-14-15-27-25-13-12-23-20-24(31-32(6,7)8)16-18-29(23,4)28(25)17-19-30(26,27)5/h12,21-22,24-28H,9-11,13-20H2,1-8H3/t22-,24?,25+,26-,27+,28+,29+,30-/m1/s1
computed SMILES=O(C1CC2=CCC3C(CCC4(C)C(CCC34)C(C)CCCC(C)C)C2(C)CC1)[Si](C)(C)C
accession=JP002750
date=2016.01.19 (Created 2008.10.21, modified 2011.05.06)
author=HAYASHI A, DEPT. OF CHEMISTRY, FAC. OF SCI. AND TECHNOLOGY, KINKI UNIV.
license=CC BY-NC-SA
exact mass=458.39439
ionization energy=70 eV
ion type=[M]+*
computed spectral entropy=4.408073791941555
computed normalized entropy=0.8304166336787494
SPLASH=splash10-004i-1934000000-d0bdba04e45008899726
submitter=submitter = University of Tokyo Team (Faculty of Engineering, University of Tokyo)
MoNA Rating=3.75

>  <NUM PEAKS>  (5589) 
202

>  <MASS SPECTRAL PEAKS>  (5589) 
55 2.2
57 2.9
67 2.6
69 0.46
71 3.8
73 10.5
74 1.2
75 1.51
76 1.1
77 2
79 4.5
81 1.04
82 1.3
83 5.3
85 1.4
91 0.82
92 2
93 10.1
94 2.7
95 1.86
96 1.9
97 5.5
101 1.6
103 0.16
104 1.4
105 14.4
106 5
107 1.97
108 4.2
109 13.7
110 2
111 0.48
113 1.3
115 3
116 2.3
117 0.62
118 3.6
119 17.2
120 11.7
121 2.16
122 3.9
123 8.4
124 1
125 0.27
127 1.9
128 2.1
129 73.2
130 1.26
131 14.4
132 4.5
133 15
134 0.47
135 14.1
136 2.7
137 4.9
139 0.14
141 2.7
142 2.8
143 13.3
144 0.53
145 25.7
146 8.3
147 18.6
148 0.61
149 9.4
150 1.6
151 4.1
153 0.13
155 6.1
156 2.5
157 7.5
158 0.56
159 20.4
160 13.5
161 17.6
162 0.4
163 10.9
164 1.7
165 3.9
167 0.13
168 1.2
169 3.4
170 1.6
171 0.54
172 2.7
173 10
174 3.8
175 0.73
176 1.5
177 5.7
178 1
179 0.28
180 1.1
181 2.7
182 1.6
183 1.9
184 0.1
185 5
186 2
187 4.6
188 0.16
189 5.9
190 1.1
191 3.7
192 0.12
193 4.8
194 1.3
195 2.4
196 0.25
197 3.3
198 1.5
199 6.4
200 0.29
201 5.6
202 1.5
203 7.5
204 0.14
205 4
206 3
207 4.3
208 0.14
209 1.6
211 2
212 1.2
213 1.59
214 5.1
215 6.9
216 2.1
217 0.73
218 1.8
219 5.7
220 1.8
221 0.16
227 3.2
228 4.3
229 4.1
230 0.11
231 1.7
233 5.5
234 1.3
235 0.17
239 1.1
241 2.5
242 1
243 0.1
245 3.8
246 3.5
247 25.7
248 0.6
249 1.4
251 1.2
253 2.4
254 0.1
255 21.4
256 4.9
257 1.4
259 0.42
260 3.9
261 2.4
273 2.5
274 0.31
275 10.3
276 2.4
283 2.2
287 0.1
299 1.3
300 1
301 4
302 0.12
303 1
311 1.5
313 1.7
314 0.23
325 1.2
326 3.6
327 5.3
328 1.43
329 99.99
330 26.3
331 3.5
339 0.2
340 3
351 1.3
352 1.2
353 4.08
354 12.5
355 2.6
364 1.1
366 0.3
367 3.9
368 63.9
369 19.9
370 0.34
443 11.4
444 4.4
445 1.5
456 0.12
457 1.2
458 16.3
459 0.61
460 2
461 0.5

$$$$

     RDKit          2D

 30 33  0  0  1  0  0  0  0  0999 V2000
    9.5655    7.2342    0.0000 C   0  0  0  0  0  0  0  0  0  0  0  0
   10.0746    4.6865    0.0000 C   0  0  0  0  0  0  0  0  0  0  0  0
    8.1228    2.9718    0.0000 C   0  0  0  0  0  0  0  0  0  0  0  0
    3.2009    4.6377    0.0000 C   0  0  0  0  0  0  0  0  0  0  0  0
   -1.6125    0.9400    0.0000 C   0  0  0  0  0  0  0  0  0  0  0  0
    2.4507    3.1203    0.0000 C   0  0  0  0  0  0  0  0  0  0  0  0
    8.0946    6.9403    0.0000 C   0  0  0  0  0  0  0  0  0  0  0  0
    5.6618    3.8047    0.0000 C   0  0  0  0  0  0  0  0  0  0  0  0
    6.1427    5.2256    0.0000 C   0  0  0  0  0  0  0  0  0  0  0  0
   -0.3200   -2.8400    0.0000 C   0  0  0  0  0  0  0  0  0  0  0  0
    1.0100   -2.0900    0.0000 C   0  0  0  0  0  0  0  0  0  0  0  0
    4.5500    0.8800    0.0000 C   0  0  0  0  0  0  0  0  0  0  0  0
    3.7100   -0.3100    0.0000 C   0  0  0  0  0  0  0  0  0  0  0  0
   -4.2000   -0.5600    0.0000 C   0  0  0  0  0  0  0  0  0  0  0  0
   -0.3200    1.6300    0.0000 C   0  0  0  0  0  0  0  0  0  0  0  0
   -2.8900    0.1600    0.0000 C   0  0  0  0  0  0  0  0  0  0  0  0
    1.0100    2.3900    0.0000 C   0  0  0  0  0  0  0  0  0  0  0  0
   -2.8900   -2.8400    0.0000 C   0  0  0  0  0  0  0  0  0  0  0  0
    8.6037    4.3926    0.0000 C   0  0  0  0  0  0  0  0  0  0  0  0
    4.1909    3.5108    0.0000 C   0  0  0  0  0  0  0  0  0  0  0  0
    7.6137    5.5195    0.0000 C   0  0  0  0  0  0  0  0  0  0  0  0
   -1.6200   -2.0900    0.0000 C   0  0  0  0  0  0  0  0  0  0  0  0
   -4.2000   -2.0900    0.0000 C   0  0  0  0  0  0  0  0  0  0  0  0
    1.0100   -0.5600    0.0000 C   0  0  0  0  0  0  0  0  0  0  0  0
    3.7100    2.0900    0.0000 C   0  0  0  0  0  0  0  0  0  0  0  0
    2.2800    0.1600    0.0000 C   0  0  0  0  0  0  0  0  0  0  0  0
   -0.3200    0.1600    0.0000 C   0  0  0  0  0  0  0  0  0  0  0  0
   -1.6200   -0.5600    0.0000 C   0  0  0  0  0  0  0  0  0  0  0  0
    2.2800    1.6300    0.0000 C   0  0  0  0  0  0  0  0  0  0  0  0
   -5.4977   -2.8424    0.0000 O   0  0  0  0  0  0  0  0  0  0  0  0
  7  1  1  0
  8  9  2  0
 11 10  1  0
 13 12  1  0
 16 14  1  0
 17 15  1  0
 19  2  1  0
 19  3  1  0
 20  4  1  6
 20  8  1  0
 21  7  1  1
 21  9  1  0
 21 19  1  0
 22 10  2  0
 22 18  1  0
 23 14  1  0
 23 18  1  0
 24 11  1  6
 25 12  1  1
 25 20  1  0
 26 13  1  1
 26 24  1  0
 27 15  1  1
 27 24  1  0
 28  5  1  1
 28 16  1  0
 28 22  1  0
 28 27  1  0
 29  6  1  1
 29 17  1  0
 29 25  1  0
 29 26  1  0
 23 30  1  1
M  END
>  <NAME>  (5590) 
STIGMASTEROL

>  <SYNONYMS>  (5590) 


>  <SPECTRUM TYPE>  (5590) 
MS1

>  <INSTRUMENT TYPE>  (5590) 
EI-B

>  <INSTRUMENT>  (5590) 
SHIMADZU LKB-9000B

>  <ION MODE>  (5590) 
P

>  <INCHIKEY>  (5590) 
HCXVJBMSMIARIN-PHZDYDNGSA-N

>  <FORMULA>  (5590) 
C29H48O

>  <EXACT MASS>  (5590) 
412.37051615599995

>  <MW>  (5590) 
412

>  <ID>  (5590) 
JP002749

>  <CONTRIBUTOR>  (5590) 
University of Tokyo Team, {Faculty of Engineering, University of Tokyo

>  <COMMENT>  (5590) 
SMILES=CC(C4([H])C(C=CC([H])(CC)C(C)C)([H])C)(C([H])1CC4)CCC(C3(C)2)(C([H])(CC=C2CC([H])(O)CC3)1)[H]
InChI=InChI=1S/C29H48O/c1-7-21(19(2)3)9-8-20(4)25-12-13-26-24-11-10-22-18-23(30)14-16-28(22,5)27(24)15-17-29(25,26)6/h8-10,19-21,23-27,30H,7,11-18H2,1-6H3/b9-8+/t20-,21-,23+,24+,25-,26+,27+,28+,29-/m1/s1
computed SMILES=OC1CC2=CCC3C(CCC4(C)C(CCC34)C(C=CC(CC)C(C)C)C)C2(C)CC1
accession=JP002749
date=2016.01.19 (Created 2008.10.21, modified 2011.05.06)
author=HAYASHI A, DEPT. OF CHEMISTRY, FAC. OF SCI. AND TECHNOLOGY, KINKI UNIV.
license=CC BY-NC-SA
exact mass=412.37052
ionization energy=70 eV
ion type=[M]+*
computed spectral entropy=4.661455590387135
computed normalized entropy=0.8606663917252835
SPLASH=splash10-0a4i-3941000000-4b20188a87c1dadeae49
submitter=submitter = University of Tokyo Team (Faculty of Engineering, University of Tokyo)
MoNA Rating=3.75

>  <NUM PEAKS>  (5590) 
225

>  <MASS SPECTRAL PEAKS>  (5590) 
43 1.6
53 1.3
55 20.9
56 1.2
57 4.6
65 1.5
67 15.2
68 0.26
69 33.2
70 2.8
71 7.5
77 0.8
78 2.3
79 21.2
80 3.7
81 5.5
82 9.2
83 73.2
84 8
85 0.56
91 27.2
92 5.9
93 33.5
94 0.78
95 44.4
96 10.1
97 48.7
98 0.52
103 2.5
104 2.1
105 39.8
106 0.91
107 42.8
108 8
109 36.5
110 1.09
111 8.7
112 1.1
115 4.5
116 0.25
117 14.1
118 6.4
119 29.8
120 1.42
121 32.9
122 9.1
123 36
124 0.87
125 3.9
127 1.6
128 4.6
129 0.88
130 4.6
131 25
132 8.2
133 6.19
134 11.7
135 29
136 5.3
137 1.95
138 5.2
139 16.1
140 2.5
141 0.54
142 4.5
143 19.5
144 8.2
145 5.94
146 16.6
147 48.2
148 9.1
149 1.95
150 2.6
151 20.7
152 3.5
153 0.12
155 6.4
156 3.4
157 21.7
158 1.43
159 69.5
160 15.1
161 33
162 0.74
163 20.6
164 4.4
165 5.6
166 0.6
167 1.5
168 1.1
169 4.2
170 0.21
171 12.3
172 5
173 22.6
174 0.74
175 18.3
176 6.4
177 10
178 0.37
179 1.8
180 1.7
181 1.6
182 0.1
183 4.5
184 2.1
185 13
186 0.52
187 14.8
188 3.7
189 12.8
190 0.29
191 5.7
192 1.3
195 1.3
196 0.12
197 6.9
198 2.8
199 18.5
200 0.56
201 10.4
202 3
203 6.2
204 1.5
205 3.7
206 1
209 1
211 0.97
212 5.1
213 35.4
214 8.8
215 1.59
216 3.9
217 8.8
218 2
219 0.29
223 1
225 5
226 2.8
227 1.06
228 11.1
229 14.9
230 5.2
231 1.12
232 3.4
233 2.4
237 1.7
238 0.18
239 8.5
240 4.6
241 10
242 0.32
243 6.1
244 2.5
245 5.7
246 0.38
247 1.3
251 1.8
252 1.6
253 1.84
254 9.3
255 99.99
256 22.7
257 0.82
258 8.3
259 3.8
267 9.9
268 0.29
269 6.2
270 8.9
271 37.4
272 2.07
273 16.1
274 3.6
281 8.9
282 0.94
283 12.9
284 3
285 8
286 0.35
287 1.7
295 4.4
296 3
297 0.22
298 1.9
299 8.5
300 21
301 0.97
302 2.3
309 4.7
310 1.8
311 0.13
313 2.3
314 6.6
327 2.8
328 0.13
334 1.2
340 1.2
349 1
351 3.44
352 10.4
353 2.8
365 2.6
366 0.15
367 2.1
368 1
369 16.5
370 0.51
371 1
377 1.1
379 11.3
380 0.4
381 1.2
383 1.4
392 3.3
394 3.22
395 10.9
396 2.3
397 5.3
398 0.17
410 1.8
411 1.2
412 35.6
413 1.18
414 2.2

$$$$

     RDKit          2D

 32 31  0  0  0  0  0  0  0  0999 V2000
    8.0320   14.3873    0.0000 C   0  0  0  0  0  0  0  0  0  0  0  0
  -23.1449   12.8873    0.0000 C   0  0  0  0  0  0  0  0  0  0  0  0
  -23.8949   15.6863    0.0000 C   0  0  0  0  0  0  0  0  0  0  0  0
  -24.4440   13.6373    0.0000 C   0  0  0  0  0  0  0  0  0  0  0  0
  -22.3949   13.0882    0.0000 C   0  0  0  0  0  0  0  0  0  0  0  0
    6.7329   15.1373    0.0000 C   0  0  0  0  0  0  0  0  0  0  0  0
    5.4339   14.3873    0.0000 C   0  0  0  0  0  0  0  0  0  0  0  0
    4.1349   15.1373    0.0000 C   0  0  0  0  0  0  0  0  0  0  0  0
    2.8358   14.3873    0.0000 C   0  0  0  0  0  0  0  0  0  0  0  0
    1.5368   15.1373    0.0000 C   0  0  0  0  0  0  0  0  0  0  0  0
    0.2377   14.3873    0.0000 C   0  0  0  0  0  0  0  0  0  0  0  0
   -1.0613   15.1373    0.0000 C   0  0  0  0  0  0  0  0  0  0  0  0
   -2.3603   14.3873    0.0000 C   0  0  0  0  0  0  0  0  0  0  0  0
   -3.6594   15.1373    0.0000 C   0  0  0  0  0  0  0  0  0  0  0  0
   -4.9584   14.3873    0.0000 C   0  0  0  0  0  0  0  0  0  0  0  0
   -6.2575   15.1373    0.0000 C   0  0  0  0  0  0  0  0  0  0  0  0
   -7.5565   14.3873    0.0000 C   0  0  0  0  0  0  0  0  0  0  0  0
   -8.8555   15.1373    0.0000 C   0  0  0  0  0  0  0  0  0  0  0  0
  -10.1546   14.3873    0.0000 C   0  0  0  0  0  0  0  0  0  0  0  0
  -11.4536   15.1373    0.0000 C   0  0  0  0  0  0  0  0  0  0  0  0
  -12.7526   14.3873    0.0000 C   0  0  0  0  0  0  0  0  0  0  0  0
  -14.0517   15.1373    0.0000 C   0  0  0  0  0  0  0  0  0  0  0  0
  -15.3507   14.3873    0.0000 C   0  0  0  0  0  0  0  0  0  0  0  0
  -16.6498   15.1373    0.0000 C   0  0  0  0  0  0  0  0  0  0  0  0
  -17.9488   14.3873    0.0000 C   0  0  0  0  0  0  0  0  0  0  0  0
  -19.2478   15.1373    0.0000 C   0  0  0  0  0  0  0  0  0  0  0  0
  -20.5469   14.3873    0.0000 C   0  0  0  0  0  0  0  0  0  0  0  0
  -20.5469   12.8873    0.0000 C   0  0  0  0  0  0  0  0  0  0  0  0
  -19.2478   12.1373    0.0000 O   0  0  0  0  0  0  0  0  0  0  0  0
  -21.8459   12.1373    0.0000 O   0  0  0  0  0  0  0  0  0  0  0  0
  -21.8459   15.1373    0.0000 O   0  0  0  0  0  0  0  0  0  0  0  0
  -23.1449   14.3873    0.0000 Si  0  0  0  0  0  4  0  0  0  0  0  0
  6  1  1  0
  7  6  1  0
  8  7  1  0
  9  8  1  0
 10  9  1  0
 11 10  1  0
 12 11  1  0
 13 12  1  0
 14 13  1  0
 15 14  1  0
 16 15  1  0
 17 16  1  0
 18 17  1  0
 19 18  1  0
 20 19  1  0
 21 20  1  0
 22 21  1  0
 23 22  1  0
 24 23  1  0
 25 24  1  0
 26 25  1  0
 27 26  1  0
 28 27  1  0
 29 28  2  0
 30  2  1  0
 30 28  1  0
 31 27  1  0
 32  3  1  0
 32  4  1  0
 32  5  1  0
 32 31  1  0
M  END
>  <NAME>  (5591) 
METHYL 2-TRIMETHYLSILOXY-TETRACOSANOATE

>  <SYNONYMS>  (5591) 


>  <SPECTRUM TYPE>  (5591) 
MS1

>  <INSTRUMENT TYPE>  (5591) 
EI-B

>  <INSTRUMENT>  (5591) 
SHIMADZU LKB-9000B

>  <ION MODE>  (5591) 
P

>  <INCHIKEY>  (5591) 
IBDXNSNFZWQOOS-UHFFFAOYSA-N

>  <FORMULA>  (5591) 
C28H58O3Si

>  <EXACT MASS>  (5591) 
470.41552224599997

>  <MW>  (5591) 
470

>  <ID>  (5591) 
JP002746

>  <CONTRIBUTOR>  (5591) 
University of Tokyo Team, {Faculty of Engineering, University of Tokyo

>  <COMMENT>  (5591) 
SMILES=C(CC(C(OC)=O)O[Si](C)(C)C)CCCCCCCCCCCCCCCCCCCC
InChI=InChI=1S/C28H58O3Si/c1-6-7-8-9-10-11-12-13-14-15-16-17-18-19-20-21-22-23-24-25-26-27(28(29)30-2)31-32(3,4)5/h27H,6-26H2,1-5H3
computed SMILES=O=C(OC)C(O[Si](C)(C)C)CCCCCCCCCCCCCCCCCCCCCC
accession=JP002746
date=2016.01.19 (Created 2008.10.21, modified 2011.05.06)
author=HAYASHI A, DEPT. OF CHEMISTRY, FAC. OF SCI. AND TECHNOLOGY, KINKI UNIV.
license=CC BY-NC-SA
exact mass=470.41552
ionization energy=70 eV
ion type=[M]+*
computed spectral entropy=3.5346903801830787
computed normalized entropy=0.6981973389385756
SPLASH=splash10-03di-9300800000-1215f76a9c3030611703
submitter=submitter = University of Tokyo Team (Faculty of Engineering, University of Tokyo)
MoNA Rating=3.75

>  <NUM PEAKS>  (5591) 
158

>  <MASS SPECTRAL PEAKS>  (5591) 
39 1.7
41 9.8
42 2.6
43 22.1
44 0.7
45 1.6
47 0.8
53 0.08
54 1.6
55 12.7
56 2.5
57 1.94
58 1.3
59 4.4
60 0.6
61 0.1
65 0.4
66 0.5
67 4.4
68 0.25
69 11.3
70 1.7
71 10.1
72 0.14
73 51.2
74 4.9
75 13.3
76 0.13
77 0.6
79 0.3
80 0.7
81 0.52
82 4
83 12.7
84 1.5
85 0.52
86 0.6
87 1.7
88 0.7
89 2.02
90 2.1
91 4.6
92 0.5
93 0.08
94 0.7
95 5.5
96 1.6
97 1.03
98 1.9
99 1.6
101 2.2
102 0.06
103 12.5
104 1.5
105 1.9
107 0.12
108 0.2
109 2.6
110 1.2
111 0.53
112 0.8
113 1.2
115 2.2
116 0.17
117 1
118 0.4
119 1.3
120 0.04
121 0.6
123 1.5
124 0.7
125 0.2
126 0.4
127 1
129 13.7
130 0.2
131 2
132 0.5
133 0.2
134 0.04
135 0.2
137 0.9
138 0.5
139 0.08
141 0.5
143 1.9
145 1.8
146 0.18
147 0.6
148 0.2
149 0.4
151 0.06
152 0.4
153 0.6
155 0.5
157 0.06
159 7.1
160 1.1
161 1.3
162 0.18
163 0.1
171 0.7
173 0.5
185 0.15
186 0.5
199 0.5
201 0.5
207 0.11
215 0.4
219 0.4
221 0.4
227 0.04
243 0.4
255 0.4
257 0.5
267 0.01
271 0.5
281 1
282 0.1
283 0.01
285 0.5
297 0.4
299 0.5
311 0.4
313 0.4
320 0.5
327 0.1
337 0.05
341 0.5
355 0.5
357 0.1
395 0.08
398 0.5
409 1.4
410 5.3
411 99.99
412 33.1
413 9.2
414 1.2
415 0.01
423 0.3
426 0.4
427 3.6
428 0.09
429 0.4
431 0.1
438 0.4
452 0.04
453 1.2
454 4
455 35.9
456 1.3
457 3.4
458 0.7
469 0.7
470 0.36
471 1.3
472 0.4

$$$$

     RDKit          2D

 30 29  0  0  0  0  0  0  0  0999 V2000
    7.3825   13.2623    0.0000 C   0  0  0  0  0  0  0  0  0  0  0  0
  -21.1964   11.7623    0.0000 C   0  0  0  0  0  0  0  0  0  0  0  0
  -21.9464   14.5613    0.0000 C   0  0  0  0  0  0  0  0  0  0  0  0
  -22.4954   12.5123    0.0000 C   0  0  0  0  0  0  0  0  0  0  0  0
  -20.4464   11.9632    0.0000 C   0  0  0  0  0  0  0  0  0  0  0  0
    6.0834   14.0123    0.0000 C   0  0  0  0  0  0  0  0  0  0  0  0
    4.7844   13.2623    0.0000 C   0  0  0  0  0  0  0  0  0  0  0  0
    3.4853   14.0123    0.0000 C   0  0  0  0  0  0  0  0  0  0  0  0
    2.1863   13.2623    0.0000 C   0  0  0  0  0  0  0  0  0  0  0  0
    0.8873   14.0123    0.0000 C   0  0  0  0  0  0  0  0  0  0  0  0
   -0.4118   13.2623    0.0000 C   0  0  0  0  0  0  0  0  0  0  0  0
   -1.7108   14.0123    0.0000 C   0  0  0  0  0  0  0  0  0  0  0  0
   -3.0099   13.2623    0.0000 C   0  0  0  0  0  0  0  0  0  0  0  0
   -4.3089   14.0123    0.0000 C   0  0  0  0  0  0  0  0  0  0  0  0
   -5.6079   13.2623    0.0000 C   0  0  0  0  0  0  0  0  0  0  0  0
   -6.9070   14.0123    0.0000 C   0  0  0  0  0  0  0  0  0  0  0  0
   -8.2060   13.2623    0.0000 C   0  0  0  0  0  0  0  0  0  0  0  0
   -9.5050   14.0123    0.0000 C   0  0  0  0  0  0  0  0  0  0  0  0
  -10.8041   13.2623    0.0000 C   0  0  0  0  0  0  0  0  0  0  0  0
  -12.1031   14.0123    0.0000 C   0  0  0  0  0  0  0  0  0  0  0  0
  -13.4022   13.2623    0.0000 C   0  0  0  0  0  0  0  0  0  0  0  0
  -14.7012   14.0123    0.0000 C   0  0  0  0  0  0  0  0  0  0  0  0
  -16.0002   13.2623    0.0000 C   0  0  0  0  0  0  0  0  0  0  0  0
  -17.2993   14.0123    0.0000 C   0  0  0  0  0  0  0  0  0  0  0  0
  -18.5983   13.2623    0.0000 C   0  0  0  0  0  0  0  0  0  0  0  0
  -18.5983   11.7623    0.0000 C   0  0  0  0  0  0  0  0  0  0  0  0
  -17.2993   11.0123    0.0000 O   0  0  0  0  0  0  0  0  0  0  0  0
  -19.8974   11.0123    0.0000 O   0  0  0  0  0  0  0  0  0  0  0  0
  -19.8974   14.0123    0.0000 O   0  0  0  0  0  0  0  0  0  0  0  0
  -21.1964   13.2623    0.0000 Si  0  0  0  0  0  4  0  0  0  0  0  0
  6  1  1  0
  7  6  1  0
  8  7  1  0
  9  8  1  0
 10  9  1  0
 11 10  1  0
 12 11  1  0
 13 12  1  0
 14 13  1  0
 15 14  1  0
 16 15  1  0
 17 16  1  0
 18 17  1  0
 19 18  1  0
 20 19  1  0
 21 20  1  0
 22 21  1  0
 23 22  1  0
 24 23  1  0
 25 24  1  0
 26 25  1  0
 27 26  2  0
 28  2  1  0
 28 26  1  0
 29 25  1  0
 30  3  1  0
 30  4  1  0
 30  5  1  0
 30 29  1  0
M  END
>  <NAME>  (5592) 
METHYL 2-TRIMETHYLSILOXY-DOCOSANOATE

>  <SYNONYMS>  (5592) 


>  <SPECTRUM TYPE>  (5592) 
MS1

>  <INSTRUMENT TYPE>  (5592) 
EI-B

>  <INSTRUMENT>  (5592) 
SHIMADZU LKB-9000B

>  <ION MODE>  (5592) 
P

>  <INCHIKEY>  (5592) 
QSSVMTKWPPSPAQ-UHFFFAOYSA-N

>  <FORMULA>  (5592) 
C26H54O3Si

>  <EXACT MASS>  (5592) 
442.384222118

>  <MW>  (5592) 
442

>  <ID>  (5592) 
JP002745

>  <CONTRIBUTOR>  (5592) 
University of Tokyo Team, {Faculty of Engineering, University of Tokyo

>  <COMMENT>  (5592) 
SMILES=CCCCCCCCCCCCCCCCCCCCC(C(=O)OC)O[Si](C)(C)C
InChI=InChI=1S/C26H54O3Si/c1-6-7-8-9-10-11-12-13-14-15-16-17-18-19-20-21-22-23-24-25(26(27)28-2)29-30(3,4)5/h25H,6-24H2,1-5H3
computed SMILES=O=C(OC)C(O[Si](C)(C)C)CCCCCCCCCCCCCCCCCCCC
accession=JP002745
date=2016.01.19 (Created 2008.10.21, modified 2011.05.06)
author=HAYASHI A, DEPT. OF CHEMISTRY, FAC. OF SCI. AND TECHNOLOGY, KINKI UNIV.
license=CC BY-NC-SA
exact mass=442.38422
ionization energy=70 eV
ion type=[M]+*
computed spectral entropy=3.5569031028364626
computed normalized entropy=0.8618336043830085
SPLASH=splash10-008c-9202000000-c4431e9ed7cd60887720
submitter=submitter = University of Tokyo Team (Faculty of Engineering, University of Tokyo)
MoNA Rating=3.75

>  <NUM PEAKS>  (5592) 
62

>  <MASS SPECTRAL PEAKS>  (5592) 
39 2.1
40 24.1
41 23.7
42 9.3
43 33
44 9.6
45 9
47 0.61
54 6.7
55 20.4
56 12.8
57 2.52
59 11.8
67 9.6
68 9.4
69 1.28
70 8
71 18.4
73 61.9
74 1.3
75 21
77 8.3
79 7.6
81 0.93
82 12.1
83 13.1
84 7.8
85 0.35
89 29.2
91 10.9
95 14.9
96 0.23
97 20.1
98 8.6
103 18.5
105 0.79
107 7.8
109 10.6
111 11.3
115 0.67
119 6.7
123 7.2
129 14.2
131 0.62
147 1.7
149 6.6
159 9.6
191 0.09
207 1
267 2.1
282 0.2
327 0.67
381 5.8
382 7.2
383 99.99
384 3.26
385 11.3
399 6
426 5.9
427 3.89
428 13.5
429 3.9

$$$$

     RDKit          2D

 28 27  0  0  0  0  0  0  0  0999 V2000
    6.7329   12.1373    0.0000 C   0  0  0  0  0  0  0  0  0  0  0  0
  -19.2478   10.6373    0.0000 C   0  0  0  0  0  0  0  0  0  0  0  0
  -19.9978   13.4363    0.0000 C   0  0  0  0  0  0  0  0  0  0  0  0
  -20.5469   11.3873    0.0000 C   0  0  0  0  0  0  0  0  0  0  0  0
  -18.4978   10.8382    0.0000 C   0  0  0  0  0  0  0  0  0  0  0  0
    5.4339   12.8873    0.0000 C   0  0  0  0  0  0  0  0  0  0  0  0
    4.1349   12.1373    0.0000 C   0  0  0  0  0  0  0  0  0  0  0  0
    2.8358   12.8873    0.0000 C   0  0  0  0  0  0  0  0  0  0  0  0
    1.5368   12.1373    0.0000 C   0  0  0  0  0  0  0  0  0  0  0  0
    0.2377   12.8873    0.0000 C   0  0  0  0  0  0  0  0  0  0  0  0
   -1.0613   12.1373    0.0000 C   0  0  0  0  0  0  0  0  0  0  0  0
   -2.3603   12.8873    0.0000 C   0  0  0  0  0  0  0  0  0  0  0  0
   -3.6594   12.1373    0.0000 C   0  0  0  0  0  0  0  0  0  0  0  0
   -4.9584   12.8873    0.0000 C   0  0  0  0  0  0  0  0  0  0  0  0
   -6.2575   12.1373    0.0000 C   0  0  0  0  0  0  0  0  0  0  0  0
   -7.5565   12.8873    0.0000 C   0  0  0  0  0  0  0  0  0  0  0  0
   -8.8555   12.1373    0.0000 C   0  0  0  0  0  0  0  0  0  0  0  0
  -10.1546   12.8873    0.0000 C   0  0  0  0  0  0  0  0  0  0  0  0
  -11.4536   12.1373    0.0000 C   0  0  0  0  0  0  0  0  0  0  0  0
  -12.7526   12.8873    0.0000 C   0  0  0  0  0  0  0  0  0  0  0  0
  -14.0517   12.1373    0.0000 C   0  0  0  0  0  0  0  0  0  0  0  0
  -15.3507   12.8873    0.0000 C   0  0  0  0  0  0  0  0  0  0  0  0
  -16.6498   12.1373    0.0000 C   0  0  0  0  0  0  0  0  0  0  0  0
  -16.6498   10.6373    0.0000 C   0  0  0  0  0  0  0  0  0  0  0  0
  -15.3507    9.8873    0.0000 O   0  0  0  0  0  0  0  0  0  0  0  0
  -17.9488    9.8873    0.0000 O   0  0  0  0  0  0  0  0  0  0  0  0
  -17.9488   12.8873    0.0000 O   0  0  0  0  0  0  0  0  0  0  0  0
  -19.2478   12.1373    0.0000 Si  0  0  0  0  0  4  0  0  0  0  0  0
  6  1  1  0
  7  6  1  0
  8  7  1  0
  9  8  1  0
 10  9  1  0
 11 10  1  0
 12 11  1  0
 13 12  1  0
 14 13  1  0
 15 14  1  0
 16 15  1  0
 17 16  1  0
 18 17  1  0
 19 18  1  0
 20 19  1  0
 21 20  1  0
 22 21  1  0
 23 22  1  0
 24 23  1  0
 25 24  2  0
 26  2  1  0
 26 24  1  0
 27 23  1  0
 28  3  1  0
 28  4  1  0
 28  5  1  0
 28 27  1  0
M  END
>  <NAME>  (5593) 
METHYL 2-TRIMETHYLSILOXY-EICOSANOATE

>  <SYNONYMS>  (5593) 


>  <SPECTRUM TYPE>  (5593) 
MS1

>  <INSTRUMENT TYPE>  (5593) 
EI-B

>  <INSTRUMENT>  (5593) 
SHIMADZU LKB-9000B

>  <ION MODE>  (5593) 
P

>  <INCHIKEY>  (5593) 
AIDIPDFVXORXLT-UHFFFAOYSA-N

>  <FORMULA>  (5593) 
C24H50O3Si

>  <EXACT MASS>  (5593) 
414.35292198999997

>  <MW>  (5593) 
414

>  <ID>  (5593) 
JP002744

>  <CONTRIBUTOR>  (5593) 
University of Tokyo Team, {Faculty of Engineering, University of Tokyo

>  <COMMENT>  (5593) 
SMILES=CCCCCCCCCCCCCCCCCCC(C(=O)OC)O[Si](C)(C)C
InChI=InChI=1S/C24H50O3Si/c1-6-7-8-9-10-11-12-13-14-15-16-17-18-19-20-21-22-23(24(25)26-2)27-28(3,4)5/h23H,6-22H2,1-5H3
computed SMILES=O=C(OC)C(O[Si](C)(C)C)CCCCCCCCCCCCCCCCCC
accession=JP002744
date=2016.01.19 (Created 2008.10.21, modified 2011.05.06)
author=HAYASHI A, DEPT. OF CHEMISTRY, FAC. OF SCI. AND TECHNOLOGY, KINKI UNIV.
license=CC BY-NC-SA
exact mass=414.35292
ionization energy=70 eV
ion type=[M]+*
computed spectral entropy=3.612200497920497
computed normalized entropy=0.754507932753409
SPLASH=splash10-0ab9-9205000000-9542b284308783c70af6
submitter=submitter = University of Tokyo Team (Faculty of Engineering, University of Tokyo)
MoNA Rating=3.75

>  <NUM PEAKS>  (5593) 
120

>  <MASS SPECTRAL PEAKS>  (5593) 
36 1.6
39 3.2
40 0.4
41 12.7
42 3.8
43 25.5
44 1.1
45 0.39
47 3.2
48 1.5
49 1.1
50 0.12
51 1
53 1.9
54 2.2
55 1.36
56 3.8
57 21.2
58 1.8
59 0.8
61 1.9
66 1.1
67 6.2
68 0.33
69 13.3
70 2.7
71 10.1
72 0.19
73 60.7
74 7
75 15.8
76 0.16
77 2.1
79 1.8
80 1.1
81 0.75
82 4.5
83 13.5
84 2.1
85 0.45
87 2.7
88 1.2
89 25.9
90 0.28
91 5.2
92 1
93 1.5
94 0.11
95 6.5
96 1.8
97 12.9
98 0.24
99 1.8
101 3.5
102 1.1
103 1.59
104 2.1
105 2.4
107 2.3
108 0.14
109 3.9
110 1.5
111 5.9
112 0.14
113 1.4
115 3.4
116 2.2
117 0.18
119 3
121 1.1
123 2
124 0.12
125 2.4
127 1.1
129 13.8
130 0.22
131 2.4
133 0.4
135 1.1
137 0.12
139 1.2
143 2.4
145 2.5
146 0.28
147 1
148 1
149 2
159 0.79
160 1.3
161 1.6
162 2
167 0.1
171 1.2
177 1
185 1.8
193 0.02
219 1.1
221 1
267 0.2
281 0.15
282 0.3
283 0.4
339 1.2
341 0.08
353 1.9
354 4.5
355 99.99
356 3.05
357 7.7
358 1.6
371 4
372 0.16
397 1.5
398 2.9
399 38
400 1.13
401 3.6
402 1
414 2.1
415 0.2

$$$$

     RDKit          2D

 26 25  0  0  0  0  0  0  0  0999 V2000
    6.0834   11.0123    0.0000 C   0  0  0  0  0  0  0  0  0  0  0  0
  -17.2993    9.5123    0.0000 C   0  0  0  0  0  0  0  0  0  0  0  0
  -18.0493   12.3113    0.0000 C   0  0  0  0  0  0  0  0  0  0  0  0
  -18.5983   10.2623    0.0000 C   0  0  0  0  0  0  0  0  0  0  0  0
  -16.5493    9.7132    0.0000 C   0  0  0  0  0  0  0  0  0  0  0  0
    4.7844   11.7623    0.0000 C   0  0  0  0  0  0  0  0  0  0  0  0
    3.4853   11.0123    0.0000 C   0  0  0  0  0  0  0  0  0  0  0  0
    2.1863   11.7623    0.0000 C   0  0  0  0  0  0  0  0  0  0  0  0
    0.8873   11.0123    0.0000 C   0  0  0  0  0  0  0  0  0  0  0  0
   -0.4118   11.7623    0.0000 C   0  0  0  0  0  0  0  0  0  0  0  0
   -1.7108   11.0123    0.0000 C   0  0  0  0  0  0  0  0  0  0  0  0
   -3.0099   11.7623    0.0000 C   0  0  0  0  0  0  0  0  0  0  0  0
   -4.3089   11.0123    0.0000 C   0  0  0  0  0  0  0  0  0  0  0  0
   -5.6079   11.7623    0.0000 C   0  0  0  0  0  0  0  0  0  0  0  0
   -6.9070   11.0123    0.0000 C   0  0  0  0  0  0  0  0  0  0  0  0
   -8.2060   11.7623    0.0000 C   0  0  0  0  0  0  0  0  0  0  0  0
   -9.5050   11.0123    0.0000 C   0  0  0  0  0  0  0  0  0  0  0  0
  -10.8041   11.7623    0.0000 C   0  0  0  0  0  0  0  0  0  0  0  0
  -12.1031   11.0123    0.0000 C   0  0  0  0  0  0  0  0  0  0  0  0
  -13.4022   11.7623    0.0000 C   0  0  0  0  0  0  0  0  0  0  0  0
  -14.7012   11.0123    0.0000 C   0  0  0  0  0  0  0  0  0  0  0  0
  -14.7012    9.5123    0.0000 C   0  0  0  0  0  0  0  0  0  0  0  0
  -13.4022    8.7623    0.0000 O   0  0  0  0  0  0  0  0  0  0  0  0
  -16.0002    8.7623    0.0000 O   0  0  0  0  0  0  0  0  0  0  0  0
  -16.0002   11.7623    0.0000 O   0  0  0  0  0  0  0  0  0  0  0  0
  -17.2993   11.0123    0.0000 Si  0  0  0  0  0  4  0  0  0  0  0  0
  6  1  1  0
  7  6  1  0
  8  7  1  0
  9  8  1  0
 10  9  1  0
 11 10  1  0
 12 11  1  0
 13 12  1  0
 14 13  1  0
 15 14  1  0
 16 15  1  0
 17 16  1  0
 18 17  1  0
 19 18  1  0
 20 19  1  0
 21 20  1  0
 22 21  1  0
 23 22  2  0
 24  2  1  0
 24 22  1  0
 25 21  1  0
 26  3  1  0
 26  4  1  0
 26  5  1  0
 26 25  1  0
M  END
>  <NAME>  (5594) 
METHYL 2-TRIMETHYLSILOXY-OCTADECANOATE

>  <SYNONYMS>  (5594) 


>  <SPECTRUM TYPE>  (5594) 
MS1

>  <INSTRUMENT TYPE>  (5594) 
EI-B

>  <INSTRUMENT>  (5594) 
SHIMADZU LKB-9000B

>  <ION MODE>  (5594) 
P

>  <INCHIKEY>  (5594) 
MPVPFICBAYSSLQ-UHFFFAOYSA-N

>  <FORMULA>  (5594) 
C22H46O3Si

>  <EXACT MASS>  (5594) 
386.321621862

>  <MW>  (5594) 
386

>  <ID>  (5594) 
JP002743

>  <CONTRIBUTOR>  (5594) 
University of Tokyo Team, {Faculty of Engineering, University of Tokyo

>  <COMMENT>  (5594) 
SMILES=CCCCCCCCCCCCCCCCC(C(=O)OC)O[Si](C)(C)C
InChI=InChI=1S/C22H46O3Si/c1-6-7-8-9-10-11-12-13-14-15-16-17-18-19-20-21(22(23)24-2)25-26(3,4)5/h21H,6-20H2,1-5H3
computed SMILES=O=C(OC)C(O[Si](C)(C)C)CCCCCCCCCCCCCCCC
accession=JP002743
date=2016.01.19 (Created 2008.10.21, modified 2011.05.06)
author=HAYASHI A, DEPT. OF CHEMISTRY, FAC. OF SCI. AND TECHNOLOGY, KINKI UNIV.
license=CC BY-NC-SA
exact mass=386.32162
ionization energy=70 eV
ion type=[M]+*
computed spectral entropy=3.547887617043061
computed normalized entropy=0.7577505723226354
SPLASH=splash10-004i-9306000000-e3488054faf0a2fab62c
submitter=submitter = University of Tokyo Team (Faculty of Engineering, University of Tokyo)
MoNA Rating=3.75

>  <NUM PEAKS>  (5594) 
108

>  <MASS SPECTRAL PEAKS>  (5594) 
39 0.5
40 4.6
41 9.8
42 1.3
43 18.7
44 1.9
45 3.8
47 0.28
48 1.5
53 1.6
54 2
55 1.09
56 1.2
57 12.5
58 1.3
59 0.78
61 1.8
66 1
67 5.6
68 0.27
69 11.4
70 2.3
71 8.1
72 0.17
73 53.6
74 6.4
75 15.1
76 0.17
77 1.8
79 1.8
80 1.1
81 0.61
82 3.1
83 14.7
84 2.1
85 0.6
87 2.3
88 1.2
89 26.3
90 0.29
91 4.7
92 0.9
93 1.1
95 0.59
96 1.4
97 12.7
98 2.2
99 0.17
101 3.3
102 1.2
103 15.3
104 0.2
105 2.4
107 2.2
108 1.3
109 0.32
110 1.3
111 5.3
112 1.2
113 0.14
115 3.2
116 2.6
117 1.7
119 0.29
121 1
123 1.6
124 1.2
125 0.2
127 1.1
129 10.9
130 2.2
131 0.22
135 1
137 1
139 1.1
143 0.17
145 2.5
146 2.8
147 0.5
149 0.1
157 0.9
159 7.8
160 1.5
161 0.16
162 1.9
171 0.9
185 1.5
199 0.1
201 0.9
253 1.3
257 0.9
271 0.09
311 1.2
325 1.4
326 2.6
327 99.99
328 28
329 7.2
330 1.4
343 0.46
344 1.7
369 1.5
370 2.5
371 3.74
372 11.2
373 3
374 0.9
386 1.6

$$$$

     RDKit          2D

 24 23  0  0  0  0  0  0  0  0999 V2000
    5.4339    9.8873    0.0000 C   0  0  0  0  0  0  0  0  0  0  0  0
  -15.3507    8.3873    0.0000 C   0  0  0  0  0  0  0  0  0  0  0  0
  -16.1007   11.1863    0.0000 C   0  0  0  0  0  0  0  0  0  0  0  0
  -16.6498    9.1373    0.0000 C   0  0  0  0  0  0  0  0  0  0  0  0
  -14.6007    8.5882    0.0000 C   0  0  0  0  0  0  0  0  0  0  0  0
    4.1349   10.6373    0.0000 C   0  0  0  0  0  0  0  0  0  0  0  0
    2.8358    9.8873    0.0000 C   0  0  0  0  0  0  0  0  0  0  0  0
    1.5368   10.6373    0.0000 C   0  0  0  0  0  0  0  0  0  0  0  0
    0.2377    9.8873    0.0000 C   0  0  0  0  0  0  0  0  0  0  0  0
   -1.0613   10.6373    0.0000 C   0  0  0  0  0  0  0  0  0  0  0  0
   -2.3603    9.8873    0.0000 C   0  0  0  0  0  0  0  0  0  0  0  0
   -3.6594   10.6373    0.0000 C   0  0  0  0  0  0  0  0  0  0  0  0
   -4.9584    9.8873    0.0000 C   0  0  0  0  0  0  0  0  0  0  0  0
   -6.2575   10.6373    0.0000 C   0  0  0  0  0  0  0  0  0  0  0  0
   -7.5565    9.8873    0.0000 C   0  0  0  0  0  0  0  0  0  0  0  0
   -8.8555   10.6373    0.0000 C   0  0  0  0  0  0  0  0  0  0  0  0
  -10.1546    9.8873    0.0000 C   0  0  0  0  0  0  0  0  0  0  0  0
  -11.4536   10.6373    0.0000 C   0  0  0  0  0  0  0  0  0  0  0  0
  -12.7526    9.8873    0.0000 C   0  0  0  0  0  0  0  0  0  0  0  0
  -12.7526    8.3873    0.0000 C   0  0  0  0  0  0  0  0  0  0  0  0
  -11.4536    7.6373    0.0000 O   0  0  0  0  0  0  0  0  0  0  0  0
  -14.0517    7.6373    0.0000 O   0  0  0  0  0  0  0  0  0  0  0  0
  -14.0517   10.6373    0.0000 O   0  0  0  0  0  0  0  0  0  0  0  0
  -15.3507    9.8873    0.0000 Si  0  0  0  0  0  4  0  0  0  0  0  0
  6  1  1  0
  7  6  1  0
  8  7  1  0
  9  8  1  0
 10  9  1  0
 11 10  1  0
 12 11  1  0
 13 12  1  0
 14 13  1  0
 15 14  1  0
 16 15  1  0
 17 16  1  0
 18 17  1  0
 19 18  1  0
 20 19  1  0
 21 20  2  0
 22  2  1  0
 22 20  1  0
 23 19  1  0
 24  3  1  0
 24  4  1  0
 24  5  1  0
 24 23  1  0
M  END
>  <NAME>  (5595) 
METHYL 2-TRIMETHYLSILOXY-HEXADECANOATE

>  <SYNONYMS>  (5595) 


>  <SPECTRUM TYPE>  (5595) 
MS1

>  <INSTRUMENT TYPE>  (5595) 
EI-B

>  <INSTRUMENT>  (5595) 
SHIMADZU LKB-9000B

>  <ION MODE>  (5595) 
P

>  <INCHIKEY>  (5595) 
ISYKTPYDGSSZAA-UHFFFAOYSA-N

>  <FORMULA>  (5595) 
C20H42O3Si

>  <EXACT MASS>  (5595) 
358.290321734

>  <MW>  (5595) 
358

>  <ID>  (5595) 
JP002742

>  <CONTRIBUTOR>  (5595) 
University of Tokyo Team, {Faculty of Engineering, University of Tokyo

>  <COMMENT>  (5595) 
SMILES=CCCCCCCCCCCCCCC(C(=O)OC)O[Si](C)(C)C
InChI=InChI=1S/C20H42O3Si/c1-6-7-8-9-10-11-12-13-14-15-16-17-18-19(20(21)22-2)23-24(3,4)5/h19H,6-18H2,1-5H3
computed SMILES=O=C(OC)C(O[Si](C)(C)C)CCCCCCCCCCCCCC
accession=JP002742
date=2016.01.19 (Created 2008.10.21, modified 2011.05.06)
author=HAYASHI A, DEPT. OF CHEMISTRY, FAC. OF SCI. AND TECHNOLOGY, KINKI UNIV.
license=CC BY-NC-SA
exact mass=358.29032
ionization energy=70 eV
ion type=[M]+*
computed spectral entropy=3.461845184870182
computed normalized entropy=0.7485114669056547
SPLASH=splash10-0005-9344000000-1385801019eaee3802c9
submitter=submitter = University of Tokyo Team (Faculty of Engineering, University of Tokyo)
MoNA Rating=3.75

>  <NUM PEAKS>  (5595) 
102

>  <MASS SPECTRAL PEAKS>  (5595) 
39 1.5
40 1.7
41 12
42 0.23
43 18.3
44 0.9
45 4.4
47 0.12
53 1.3
54 1.6
55 11.4
56 0.28
57 13.3
58 1.4
59 9.8
60 0.12
61 2
67 4.5
68 2.2
69 1.39
70 2
71 7.2
72 2
73 5.17
74 6.2
75 16.3
76 1.6
77 0.12
79 1.3
81 4.6
82 2.7
83 1.67
84 1.8
85 4.4
86 0.9
87 0.18
88 0.9
89 30
90 2.7
91 0.55
93 0.9
95 4.5
96 1
97 1.32
98 1.9
99 1.3
101 3.5
102 0.11
103 17.4
104 2
105 1.7
107 0.21
108 1
109 2.5
110 0.9
111 0.52
112 1.2
113 1
115 2.9
116 0.22
117 1.6
119 3.1
123 1.3
125 0.17
129 10.3
130 1.7
131 2.3
143 0.14
145 1.9
146 2.6
147 0.5
149 0.08
159 8.5
160 1.3
161 1.5
162 0.16
171 0.9
185 1.5
191 0.1
207 0.13
225 0.9
227 0.7
257 0.8
281 0.06
282 0.2
283 0.5
297 1.3
298 0.14
299 99.99
300 26.3
301 7.2
302 0.14
315 4.3
316 1.3
341 0.7
342 0.11
343 36.3
344 10
345 3.1
346 0.08
355 0.3
358 0.9

$$$$

     RDKit          2D

 22 21  0  0  0  0  0  0  0  0999 V2000
    4.7844    8.7623    0.0000 C   0  0  0  0  0  0  0  0  0  0  0  0
  -13.4022    7.2623    0.0000 C   0  0  0  0  0  0  0  0  0  0  0  0
  -14.1522   10.0613    0.0000 C   0  0  0  0  0  0  0  0  0  0  0  0
  -14.7012    8.0123    0.0000 C   0  0  0  0  0  0  0  0  0  0  0  0
  -12.6522    7.4632    0.0000 C   0  0  0  0  0  0  0  0  0  0  0  0
    3.4853    9.5123    0.0000 C   0  0  0  0  0  0  0  0  0  0  0  0
    2.1863    8.7623    0.0000 C   0  0  0  0  0  0  0  0  0  0  0  0
    0.8873    9.5123    0.0000 C   0  0  0  0  0  0  0  0  0  0  0  0
   -0.4118    8.7623    0.0000 C   0  0  0  0  0  0  0  0  0  0  0  0
   -1.7108    9.5123    0.0000 C   0  0  0  0  0  0  0  0  0  0  0  0
   -3.0099    8.7623    0.0000 C   0  0  0  0  0  0  0  0  0  0  0  0
   -4.3089    9.5123    0.0000 C   0  0  0  0  0  0  0  0  0  0  0  0
   -5.6079    8.7623    0.0000 C   0  0  0  0  0  0  0  0  0  0  0  0
   -6.9070    9.5123    0.0000 C   0  0  0  0  0  0  0  0  0  0  0  0
   -8.2060    8.7623    0.0000 C   0  0  0  0  0  0  0  0  0  0  0  0
   -9.5050    9.5123    0.0000 C   0  0  0  0  0  0  0  0  0  0  0  0
  -10.8041    8.7623    0.0000 C   0  0  0  0  0  0  0  0  0  0  0  0
  -10.8041    7.2623    0.0000 C   0  0  0  0  0  0  0  0  0  0  0  0
   -9.5050    6.5123    0.0000 O   0  0  0  0  0  0  0  0  0  0  0  0
  -12.1031    6.5123    0.0000 O   0  0  0  0  0  0  0  0  0  0  0  0
  -12.1031    9.5123    0.0000 O   0  0  0  0  0  0  0  0  0  0  0  0
  -13.4022    8.7623    0.0000 Si  0  0  0  0  0  4  0  0  0  0  0  0
  6  1  1  0
  7  6  1  0
  8  7  1  0
  9  8  1  0
 10  9  1  0
 11 10  1  0
 12 11  1  0
 13 12  1  0
 14 13  1  0
 15 14  1  0
 16 15  1  0
 17 16  1  0
 18 17  1  0
 19 18  2  0
 20  2  1  0
 20 18  1  0
 21 17  1  0
 22  3  1  0
 22  4  1  0
 22  5  1  0
 22 21  1  0
M  END
>  <NAME>  (5596) 
METHYL 2-TRIMETHYLSILOXY-TETRADECANOATE

>  <SYNONYMS>  (5596) 


>  <SPECTRUM TYPE>  (5596) 
MS1

>  <INSTRUMENT TYPE>  (5596) 
EI-B

>  <INSTRUMENT>  (5596) 
SHIMADZU LKB-9000B

>  <ION MODE>  (5596) 
P

>  <INCHIKEY>  (5596) 
MTVNRDDQMNKJFO-UHFFFAOYSA-N

>  <FORMULA>  (5596) 
C18H38O3Si

>  <EXACT MASS>  (5596) 
330.259021606

>  <MW>  (5596) 
330

>  <ID>  (5596) 
JP002741

>  <CONTRIBUTOR>  (5596) 
University of Tokyo Team, {Faculty of Engineering, University of Tokyo

>  <COMMENT>  (5596) 
SMILES=CCCCCCCCCCCCC(C(=O)OC)O[Si](C)(C)C
InChI=InChI=1S/C18H38O3Si/c1-6-7-8-9-10-11-12-13-14-15-16-17(18(19)20-2)21-22(3,4)5/h17H,6-16H2,1-5H3
computed SMILES=O=C(OC)C(O[Si](C)(C)C)CCCCCCCCCCCC
accession=JP002741
date=2016.01.19 (Created 2008.10.21, modified 2011.05.06)
author=HAYASHI A, DEPT. OF CHEMISTRY, FAC. OF SCI. AND TECHNOLOGY, KINKI UNIV.
license=CC BY-NC-SA
exact mass=330.25902
ionization energy=70 eV
ion type=[M]+*
computed spectral entropy=3.667547320922053
computed normalized entropy=0.7411043174781694
SPLASH=splash10-00di-9220000000-6dc1a89ef7a41652a3a0
submitter=submitter = University of Tokyo Team (Faculty of Engineering, University of Tokyo)
MoNA Rating=3.75

>  <NUM PEAKS>  (5596) 
141

>  <MASS SPECTRAL PEAKS>  (5596) 
35 4.5
36 2.5
37 1.8
38 0.9
39 3.6
40 8.8
41 22.7
42 0.33
43 23.8
44 4.9
45 8.2
46 0.08
47 13.5
48 5.7
49 4.3
50 0.26
51 1
53 1.9
54 1.9
55 1.87
56 5
57 19.4
58 2.5
59 1.75
60 2
61 2.4
65 2.2
66 0.06
67 6.2
68 2.4
69 21.3
70 0.25
71 5.9
72 2.6
73 99.99
74 0.98
75 25.7
76 4.9
77 2.6
78 0.07
79 1.5
80 0.7
81 6.6
82 0.23
83 48.4
84 2.3
85 30.1
86 0.07
87 5.7
88 1
89 48.1
90 0.42
91 7.9
92 0.9
93 2.3
94 0.07
95 5.7
96 1.2
97 18.7
98 0.23
99 1.5
101 5.3
102 0.9
103 2.4
104 5.2
105 3.5
106 0.5
107 0.22
108 0.8
109 2.7
110 0.8
111 0.72
112 1
113 1.2
115 3.5
116 0.24
117 2.3
118 1
119 4.3
120 0.08
121 1.7
122 1.1
123 1.5
124 0.06
125 2.3
127 0.8
129 12.5
130 0.18
131 3.5
132 1
133 0.3
135 0.08
137 0.5
143 1.5
145 2.4
146 0.33
147 0.8
148 0.8
149 41
150 0.4
151 0.6
157 0.9
159 10.9
160 0.18
161 1.7
162 1.8
163 0.5
171 0.08
173 0.6
179 0.6
185 1.2
187 0.05
191 0.1
197 0.9
199 0.7
201 0.06
205 1.8
206 0.5
207 0.2
221 0.04
223 2.1
243 0.6
255 0.7
257 0.5
269 1.3
270 0.9
271 95.1
272 0.12
273 21.9
274 0.9
281 0.1
283 0.02
287 4.5
288 1.2
289 0.4
313 0.08
314 1.1
315 33.2
316 8.4
317 0.22
330 0.4

$$$$

     RDKit          2D

 20 19  0  0  0  0  0  0  0  0999 V2000
    4.1349    7.6373    0.0000 C   0  0  0  0  0  0  0  0  0  0  0  0
  -11.4536    6.1373    0.0000 C   0  0  0  0  0  0  0  0  0  0  0  0
  -12.2036    8.9363    0.0000 C   0  0  0  0  0  0  0  0  0  0  0  0
  -12.7526    6.8873    0.0000 C   0  0  0  0  0  0  0  0  0  0  0  0
  -10.7036    6.3382    0.0000 C   0  0  0  0  0  0  0  0  0  0  0  0
    2.8358    8.3873    0.0000 C   0  0  0  0  0  0  0  0  0  0  0  0
    1.5368    7.6373    0.0000 C   0  0  0  0  0  0  0  0  0  0  0  0
    0.2377    8.3873    0.0000 C   0  0  0  0  0  0  0  0  0  0  0  0
   -1.0613    7.6373    0.0000 C   0  0  0  0  0  0  0  0  0  0  0  0
   -2.3603    8.3873    0.0000 C   0  0  0  0  0  0  0  0  0  0  0  0
   -3.6594    7.6373    0.0000 C   0  0  0  0  0  0  0  0  0  0  0  0
   -4.9584    8.3873    0.0000 C   0  0  0  0  0  0  0  0  0  0  0  0
   -6.2575    7.6373    0.0000 C   0  0  0  0  0  0  0  0  0  0  0  0
   -7.5565    8.3873    0.0000 C   0  0  0  0  0  0  0  0  0  0  0  0
   -8.8555    7.6373    0.0000 C   0  0  0  0  0  0  0  0  0  0  0  0
   -8.8555    6.1373    0.0000 C   0  0  0  0  0  0  0  0  0  0  0  0
   -7.5565    5.3873    0.0000 O   0  0  0  0  0  0  0  0  0  0  0  0
  -10.1546    5.3873    0.0000 O   0  0  0  0  0  0  0  0  0  0  0  0
  -10.1546    8.3873    0.0000 O   0  0  0  0  0  0  0  0  0  0  0  0
  -11.4536    7.6373    0.0000 Si  0  0  0  0  0  4  0  0  0  0  0  0
  6  1  1  0
  7  6  1  0
  8  7  1  0
  9  8  1  0
 10  9  1  0
 11 10  1  0
 12 11  1  0
 13 12  1  0
 14 13  1  0
 15 14  1  0
 16 15  1  0
 17 16  2  0
 18  2  1  0
 18 16  1  0
 19 15  1  0
 20  3  1  0
 20  4  1  0
 20  5  1  0
 20 19  1  0
M  END
>  <NAME>  (5597) 
METHYL 2-TRIMETHYLSILOXY-DODECANOATE

>  <SYNONYMS>  (5597) 


>  <SPECTRUM TYPE>  (5597) 
MS1

>  <INSTRUMENT TYPE>  (5597) 
EI-B

>  <INSTRUMENT>  (5597) 
SHIMADZU LKB-9000B

>  <ION MODE>  (5597) 
P

>  <INCHIKEY>  (5597) 
PHPBKGTVQKCOSS-UHFFFAOYSA-N

>  <FORMULA>  (5597) 
C16H34O3Si

>  <EXACT MASS>  (5597) 
302.227721478

>  <MW>  (5597) 
302

>  <ID>  (5597) 
JP002740

>  <CONTRIBUTOR>  (5597) 
University of Tokyo Team, {Faculty of Engineering, University of Tokyo

>  <COMMENT>  (5597) 
SMILES=CCCCCCCCCCC(C(=O)OC)O[Si](C)(C)C
InChI=InChI=1S/C16H34O3Si/c1-6-7-8-9-10-11-12-13-14-15(16(17)18-2)19-20(3,4)5/h15H,6-14H2,1-5H3
computed SMILES=O=C(OC)C(O[Si](C)(C)C)CCCCCCCCCC
accession=JP002740
date=2016.01.19 (Created 2008.10.21, modified 2011.05.06)
author=HAYASHI A, DEPT. OF CHEMISTRY, FAC. OF SCI. AND TECHNOLOGY, KINKI UNIV.
license=CC BY-NC-SA
exact mass=302.22772
ionization energy=70 eV
ion type=[M]+*
computed spectral entropy=3.376587809161402
computed normalized entropy=0.7211647101218291
SPLASH=splash10-00ec-9120000000-7d8e020cbc9d2eac65bb
submitter=submitter = University of Tokyo Team (Faculty of Engineering, University of Tokyo)
MoNA Rating=3.75

>  <NUM PEAKS>  (5597) 
108

>  <MASS SPECTRAL PEAKS>  (5597) 
31 0.9
33 0.2
35 6
36 5
37 2.6
38 0.7
39 1.9
41 1.55
42 1
43 10.3
45 1.1
46 0.04
47 20.7
48 9.7
49 6.7
50 0.28
51 0.9
52 1
53 0.6
54 0.11
55 10.9
56 3.8
57 5.7
58 0.18
59 19.8
60 0.5
61 2.4
67 0.37
68 1.3
69 19.7
70 0.9
71 0.51
72 2.5
73 99.99
74 9.5
75 2.28
76 1.3
77 0.9
79 2.1
81 0.37
82 1.5
83 69.5
84 1
85 4.55
86 0.1
87 2.3
88 0.9
89 4.9
90 4.6
91 5.7
93 1.3
95 0.31
96 1.5
97 21.8
98 1.5
100 0.12
101 7.1
102 0.5
103 22.4
104 0.31
105 2.6
107 1.3
109 1.8
111 0.54
112 1.1
113 1.4
114 1.1
115 0.33
116 2.3
117 1.7
118 1.3
119 0.5
120 1.4
123 1
126 0.4
128 0.01
129 7.8
130 1.5
131 3.7
133 0.02
142 1.1
143 0.6
144 0.1
145 0.61
146 2.6
147 0.9
149 1
157 0.13
158 0.6
159 7.6
160 1.6
161 0.12
162 1.4
172 0.1
173 1.1
185 0.1
187 0.3
201 0.9
203 0.3
207 0.14
215 0.3
243 64.8
244 13.6
245 0.34
259 3.4
287 21.9
288 4.7
289 1.2

$$$$

     RDKit          2D

 27 26  0  0  0  0  0  0  0  0999 V2000
    8.4437   13.8750    0.0000 C   0  0  0  0  0  0  0  0  0  0  0  0
  -24.0322   14.6250    0.0000 C   0  0  0  0  0  0  0  0  0  0  0  0
    7.1447   14.6250    0.0000 C   0  0  0  0  0  0  0  0  0  0  0  0
    5.8457   13.8750    0.0000 C   0  0  0  0  0  0  0  0  0  0  0  0
    4.5466   14.6250    0.0000 C   0  0  0  0  0  0  0  0  0  0  0  0
    3.2476   13.8750    0.0000 C   0  0  0  0  0  0  0  0  0  0  0  0
    1.9486   14.6250    0.0000 C   0  0  0  0  0  0  0  0  0  0  0  0
    0.6495   13.8750    0.0000 C   0  0  0  0  0  0  0  0  0  0  0  0
   -0.6495   14.6250    0.0000 C   0  0  0  0  0  0  0  0  0  0  0  0
   -1.9486   13.8750    0.0000 C   0  0  0  0  0  0  0  0  0  0  0  0
   -3.2476   14.6250    0.0000 C   0  0  0  0  0  0  0  0  0  0  0  0
   -4.5466   13.8750    0.0000 C   0  0  0  0  0  0  0  0  0  0  0  0
   -5.8457   14.6250    0.0000 C   0  0  0  0  0  0  0  0  0  0  0  0
   -7.1447   13.8750    0.0000 C   0  0  0  0  0  0  0  0  0  0  0  0
   -8.4437   14.6250    0.0000 C   0  0  0  0  0  0  0  0  0  0  0  0
   -9.7428   13.8750    0.0000 C   0  0  0  0  0  0  0  0  0  0  0  0
  -11.0418   14.6250    0.0000 C   0  0  0  0  0  0  0  0  0  0  0  0
  -12.3409   13.8750    0.0000 C   0  0  0  0  0  0  0  0  0  0  0  0
  -13.6399   14.6250    0.0000 C   0  0  0  0  0  0  0  0  0  0  0  0
  -14.9389   13.8750    0.0000 C   0  0  0  0  0  0  0  0  0  0  0  0
  -16.2380   14.6250    0.0000 C   0  0  0  0  0  0  0  0  0  0  0  0
  -17.5370   13.8750    0.0000 C   0  0  0  0  0  0  0  0  0  0  0  0
  -18.8361   14.6250    0.0000 C   0  0  0  0  0  0  0  0  0  0  0  0
  -20.1351   13.8750    0.0000 C   0  0  0  0  0  0  0  0  0  0  0  0
  -21.4341   14.6250    0.0000 C   0  0  0  0  0  0  0  0  0  0  0  0
  -21.4341   16.1250    0.0000 O   0  0  0  0  0  0  0  0  0  0  0  0
  -22.7332   13.8750    0.0000 O   0  0  0  0  0  0  0  0  0  0  0  0
  3  1  1  0
  4  3  1  0
  5  4  1  0
  6  5  1  0
  7  6  1  0
  8  7  1  0
  9  8  1  0
 10  9  1  0
 10 11  2  0
 12 11  1  0
 13 12  1  0
 14 13  1  0
 15 14  1  0
 16 15  1  0
 17 16  1  0
 18 17  1  0
 19 18  1  0
 20 19  1  0
 21 20  1  0
 22 21  1  0
 23 22  1  0
 24 23  1  0
 25 24  1  0
 26 25  2  0
 27  2  1  0
 27 25  1  0
M  END
>  <NAME>  (5598) 
METHYL 15-TETRACOSENOATE

>  <SYNONYMS>  (5598) 


>  <SPECTRUM TYPE>  (5598) 
MS1

>  <INSTRUMENT TYPE>  (5598) 
EI-B

>  <INSTRUMENT>  (5598) 
SHIMADZU LKB-9000B

>  <ION MODE>  (5598) 
P

>  <INCHIKEY>  (5598) 
AINIZSBLAFHZCP-ZHACJKMWSA-N

>  <FORMULA>  (5598) 
C25H48O2

>  <EXACT MASS>  (5598) 
380.365430776

>  <MW>  (5598) 
380

>  <ID>  (5598) 
JP002732

>  <CONTRIBUTOR>  (5598) 
University of Tokyo Team, {Faculty of Engineering, University of Tokyo

>  <COMMENT>  (5598) 
SMILES=CCCCCCCCC=CCCCCCCCCCCCCCC(=O)OC
InChI=InChI=1S/C25H48O2/c1-3-4-5-6-7-8-9-10-11-12-13-14-15-16-17-18-19-20-21-22-23-24-25(26)27-2/h10-11H,3-9,12-24H2,1-2H3/b11-10+
computed SMILES=O=C(OC)CCCCCCCCCCCCCC=CCCCCCCCC
accession=JP002732
date=2016.01.19 (Created 2008.10.21, modified 2011.05.06)
author=HAYASHI A, DEPT. OF CHEMISTRY, FAC. OF SCI. AND TECHNOLOGY, KINKI UNIV.
license=CC BY-NC-SA
exact mass=380.36543
ionization energy=70 eV
ion type=[M]+*
computed spectral entropy=3.3860616895039923
computed normalized entropy=0.7149323928037304
SPLASH=splash10-0k9t-9400000000-cf1a06fe1d40502f1a37
submitter=submitter = University of Tokyo Team (Faculty of Engineering, University of Tokyo)
MoNA Rating=3.75

>  <NUM PEAKS>  (5598) 
114

>  <MASS SPECTRAL PEAKS>  (5598) 
30 3.2
31 20.4
32 99.99
33 0.4
38 1.8
39 2.1
41 9.1
42 1.08
43 25.4
44 9.8
45 81.3
46 0.28
47 1.9
51 0.1
52 1.7
53 0.24
54 1.8
55 52
56 81.4
57 0.93
58 8.2
59 4.2
60 1.7
61 0.11
63 1.7
64 1.6
67 2.9
68 0.25
69 3.8
70 13.6
71 5
72 0.15
73 23.3
74 3
75 13.5
76 0.78
77 1.2
79 2
80 2
81 0.18
82 2.5
83 2
84 6.3
85 0.2
86 5.6
87 7.6
88 1.9
89 0.44
91 3.1
93 2
94 1.8
95 0.26
96 1.8
97 2.5
98 3
99 9.48
100 69.9
101 48.1
102 5.8
103 0.17
104 0.3
105 0.2
107 0.4
108 0.02
109 1.6
110 1.7
111 0.7
112 0.02
113 0.3
114 8.1
115 2.7
117 0.22
119 0.2
126 11.2
127 4.6
128 0.4
129 0.8
130 1.1
131 0.6
133 0.08
135 1.6
142 1.6
143 1.6
144 0.02
145 85.1
146 6.4
147 2.4
158 0.67
159 4.7
160 2.5
170 1.7
171 0.46
172 2.6
173 0.4
187 1.1
188 0.03
189 12.4
190 1.3
201 0.6
203 0.09
207 0.3
215 6.7
219 0.2
231 0.4
233 7
234 0.07
259 0.7
270 0.9
289 2.8
290 0.23
333 12.6
334 2.1
335 0.1
348 1.7

$$$$

     RDKit          2D

 19 18  0  0  0  0  0  0  0  0999 V2000
  -16.2380   10.1250    0.0000 C   0  0  0  0  0  0  0  0  0  0  0  0
    5.8457    9.3750    0.0000 C   0  0  0  0  0  0  0  0  0  0  0  0
  -14.9389    9.3750    0.0000 C   0  0  0  0  0  0  0  0  0  0  0  0
  -13.6399   10.1250    0.0000 C   0  0  0  0  0  0  0  0  0  0  0  0
  -12.3409    9.3750    0.0000 C   0  0  0  0  0  0  0  0  0  0  0  0
  -11.0418   10.1250    0.0000 C   0  0  0  0  0  0  0  0  0  0  0  0
   -9.7428    9.3750    0.0000 C   0  0  0  0  0  0  0  0  0  0  0  0
   -8.4437   10.1250    0.0000 C   0  0  0  0  0  0  0  0  0  0  0  0
   -7.1447    9.3750    0.0000 C   0  0  0  0  0  0  0  0  0  0  0  0
   -5.8457   10.1250    0.0000 C   0  0  0  0  0  0  0  0  0  0  0  0
   -4.5466    9.3750    0.0000 C   0  0  0  0  0  0  0  0  0  0  0  0
   -3.2476   10.1250    0.0000 C   0  0  0  0  0  0  0  0  0  0  0  0
   -1.9486    9.3750    0.0000 C   0  0  0  0  0  0  0  0  0  0  0  0
   -0.6495   10.1250    0.0000 C   0  0  0  0  0  0  0  0  0  0  0  0
    0.6495    9.3750    0.0000 C   0  0  0  0  0  0  0  0  0  0  0  0
    1.9486   10.1250    0.0000 C   0  0  0  0  0  0  0  0  0  0  0  0
    3.2476    9.3750    0.0000 C   0  0  0  0  0  0  0  0  0  0  0  0
    3.2476    7.8750    0.0000 O   0  0  0  0  0  0  0  0  0  0  0  0
    4.5466   10.1250    0.0000 O   0  0  0  0  0  0  0  0  0  0  0  0
  3  1  1  0
  4  3  1  0
  5  4  1  0
  6  5  1  0
  7  6  1  0
  8  7  1  0
  8  9  2  0
 10  9  1  0
 11 10  1  0
 12 11  1  0
 13 12  1  0
 14 13  1  0
 15 14  1  0
 16 15  1  0
 17 16  1  0
 18 17  2  0
 19  2  1  0
 19 17  1  0
M  END
>  <NAME>  (5599) 
METHYL 9-HEXADECENOATE

>  <SYNONYMS>  (5599) 


>  <SPECTRUM TYPE>  (5599) 
MS1

>  <INSTRUMENT TYPE>  (5599) 
EI-B

>  <INSTRUMENT>  (5599) 
SHIMADZU LKB-9000B

>  <ION MODE>  (5599) 
P

>  <INCHIKEY>  (5599) 
IZFGRAGOVZCUFB-CMDGGOBGSA-N

>  <FORMULA>  (5599) 
C17H32O2

>  <EXACT MASS>  (5599) 
268.240230264

>  <MW>  (5599) 
268

>  <ID>  (5599) 
JP002731

>  <CONTRIBUTOR>  (5599) 
University of Tokyo Team, {Faculty of Engineering, University of Tokyo

>  <COMMENT>  (5599) 
SMILES=CCCCCCC=CCCCCCCCC(=O)OC
InChI=InChI=1S/C17H32O2/c1-3-4-5-6-7-8-9-10-11-12-13-14-15-16-17(18)19-2/h8-9H,3-7,10-16H2,1-2H3/b9-8+
computed SMILES=O=C(OC)CCCCCCCC=CCCCCCC
accession=JP002731
date=2016.01.19 (Created 2008.10.21, modified 2011.05.06)
author=HAYASHI A, DEPT. OF CHEMISTRY, FAC. OF SCI. AND TECHNOLOGY, KINKI UNIV.
license=CC BY-NC-SA
exact mass=268.24023
ionization energy=70 eV
ion type=[M]+*
computed spectral entropy=4.024568522250392
computed normalized entropy=0.8042789183146478
SPLASH=splash10-067m-9200000000-8744795f5ff5c5b33df4
submitter=submitter = University of Tokyo Team (Faculty of Engineering, University of Tokyo)
MoNA Rating=3.75

>  <NUM PEAKS>  (5599) 
149

>  <MASS SPECTRAL PEAKS>  (5599) 
30 0.9
31 5.6
33 1.4
37 0.07
38 0.8
39 13.4
40 31.9
41 8.27
42 21.7
43 59.4
44 19.3
45 6.37
46 1.8
47 0.8
50 0.6
51 0.11
52 1.2
53 11.1
55 99.99
56 2.6
57 19.7
58 1.8
59 21.6
60 0.16
61 1.1
63 0.7
65 3
66 0.28
67 37.7
68 22.8
69 69.1
70 1.45
71 8.6
72 1.5
73 6.1
74 7.06
75 11.5
76 1.2
77 4
78 0.16
79 9.7
80 5.4
81 31.8
82 1.92
83 43.8
84 35.9
85 7.7
86 0.08
87 44.2
88 4.5
89 0.9
91 0.3
92 0.9
93 4.7
94 4.8
95 2.2
96 34.8
97 36.5
98 29.7
99 0.93
100 8.8
101 15.2
102 1.8
103 0.06
105 1.7
106 0.7
107 3.7
108 0.33
109 11.3
110 19.4
111 18.3
112 0.69
113 3.9
114 5.6
115 7.6
116 0.16
117 0.8
119 3.3
120 1.4
121 0.41
122 2.1
123 13.5
124 10.1
125 0.88
126 1.1
127 3
128 4.7
129 0.41
130 1.6
131 0.7
133 3.3
134 0.24
135 4
136 2
137 8
138 0.88
139 5.7
140 1.4
141 7.4
142 0.16
143 3.3
144 0.6
145 9.8
146 0.06
147 2.1
148 1.7
149 2.4
150 0.09
151 5.6
152 15
153 4.9
154 0.07
155 2.1
157 1.5
158 0.7
161 0.15
163 0.8
165 3.4
166 3.2
167 0.15
169 0.8
171 1.1
172 0.7
173 0.7
175 1
179 2.4
180 1.2
181 0.09
185 1.3
186 0.7
189 0.8
192 0.46
193 3.5
194 15.4
195 3
199 0.07
200 0.6
207 2.2
208 1.9
218 0.18
219 1.3
221 0.7
225 0.8
236 2.3
237 15.2
238 2.4
268 6.1
269 0.13
270 0.7

$$$$

     RDKit          2D

 17 16  0  0  0  0  0  0  0  0999 V2000
    5.1962    8.2500    0.0000 C   0  0  0  0  0  0  0  0  0  0  0  0
  -14.2894    9.0000    0.0000 C   0  0  0  0  0  0  0  0  0  0  0  0
    3.8971    9.0000    0.0000 C   0  0  0  0  0  0  0  0  0  0  0  0
    2.5981    8.2500    0.0000 C   0  0  0  0  0  0  0  0  0  0  0  0
    1.2990    9.0000    0.0000 C   0  0  0  0  0  0  0  0  0  0  0  0
    0.0000    8.2500    0.0000 C   0  0  0  0  0  0  0  0  0  0  0  0
   -1.2990    9.0000    0.0000 C   0  0  0  0  0  0  0  0  0  0  0  0
   -2.5981    8.2500    0.0000 C   0  0  0  0  0  0  0  0  0  0  0  0
   -3.8971    9.0000    0.0000 C   0  0  0  0  0  0  0  0  0  0  0  0
   -5.1962    8.2500    0.0000 C   0  0  0  0  0  0  0  0  0  0  0  0
   -6.4952    9.0000    0.0000 C   0  0  0  0  0  0  0  0  0  0  0  0
   -7.7942    8.2500    0.0000 C   0  0  0  0  0  0  0  0  0  0  0  0
   -9.0933    9.0000    0.0000 C   0  0  0  0  0  0  0  0  0  0  0  0
  -10.3923    8.2500    0.0000 C   0  0  0  0  0  0  0  0  0  0  0  0
  -11.6913    9.0000    0.0000 C   0  0  0  0  0  0  0  0  0  0  0  0
  -11.6913   10.5000    0.0000 O   0  0  0  0  0  0  0  0  0  0  0  0
  -12.9904    8.2500    0.0000 O   0  0  0  0  0  0  0  0  0  0  0  0
  3  1  1  0
  4  3  1  0
  5  4  1  0
  6  5  1  0
  7  6  1  0
  8  7  1  0
  9  8  1  0
 10  9  1  0
 11 10  1  0
 12 11  1  0
 13 12  1  0
 14 13  1  0
 15 14  1  0
 16 15  2  0
 17  2  1  0
 17 15  1  0
M  END
>  <NAME>  (5600) 
METHYL TETRADECANOATE

>  <SYNONYMS>  (5600) 


>  <SPECTRUM TYPE>  (5600) 
MS1

>  <INSTRUMENT TYPE>  (5600) 
EI-B

>  <INSTRUMENT>  (5600) 
SHIMADZU LKB-9000B

>  <ION MODE>  (5600) 
P

>  <INCHIKEY>  (5600) 
ZAZKJZBWRNNLDS-UHFFFAOYSA-N

>  <FORMULA>  (5600) 
C15H30O2

>  <EXACT MASS>  (5600) 
242.2245802

>  <MW>  (5600) 
242

>  <ID>  (5600) 
JP002730

>  <CONTRIBUTOR>  (5600) 
University of Tokyo Team, {Faculty of Engineering, University of Tokyo

>  <COMMENT>  (5600) 
SMILES=CCCCCCCCCCCCCC(=O)OC
InChI=InChI=1S/C15H30O2/c1-3-4-5-6-7-8-9-10-11-12-13-14-15(16)17-2/h3-14H2,1-2H3
computed SMILES=O=C(OC)CCCCCCCCCCCCC
accession=JP002730
date=2016.01.19 (Created 2008.10.21, modified 2011.05.06)
author=HAYASHI A, DEPT. OF CHEMISTRY, FAC. OF SCI. AND TECHNOLOGY, KINKI UNIV.
license=CC BY-NC-SA
exact mass=242.22458
ionization energy=70 eV
ion type=[M]+*
computed spectral entropy=2.95864289685308
computed normalized entropy=0.7350023362338169
SPLASH=splash10-00du-9100000000-573216c9953d23ac1952
submitter=submitter = University of Tokyo Team (Faculty of Engineering, University of Tokyo)
MoNA Rating=3.75

>  <NUM PEAKS>  (5600) 
56

>  <MASS SPECTRAL PEAKS>  (5600) 
33 0.3
37 3.5
38 0.7
39 7.8
41 37.1
42 2.5
43 27.9
44 1.73
50 3.3
51 3.7
52 3.9
53 0.16
54 3
55 10.5
57 10.1
58 0.08
59 11.8
60 0.8
67 2.4
68 0.21
69 15.4
71 4.6
73 5.7
74 99.99
75 4.2
77 1
79 4
81 0.15
82 2.8
83 8.2
84 1.9
85 0.33
87 60.9
88 6.7
91 0.1
95 0.21
96 3.6
97 6.4
98 1.5
107 0.03
109 2.9
111 3.7
115 7.3
117 0.01
129 3.8
142 5.6
143 10.2
144 0.06
147 0.3
157 3.3
159 0.2
187 0.02
199 5.8
203 0.9
211 4.5
242 5.5

$$$$

     RDKit          2D

 22 21  0  0  0  0  0  0  0  0999 V2000
    4.1848    5.3008    0.0000 C   0  0  0  0  0  0  0  0  0  0  0  0
    0.7059   10.5399    0.0000 C   0  0  0  0  0  0  0  0  0  0  0  0
   -6.2075    3.8008    0.0000 C   0  0  0  0  0  0  0  0  0  0  0  0
    2.8857    6.0508    0.0000 C   0  0  0  0  0  0  0  0  0  0  0  0
   -0.7713   10.2794    0.0000 C   0  0  0  0  0  0  0  0  0  0  0  0
    1.5867    5.3008    0.0000 C   0  0  0  0  0  0  0  0  0  0  0  0
   -1.2844    8.8699    0.0000 C   0  0  0  0  0  0  0  0  0  0  0  0
   -4.9085    6.0508    0.0000 C   0  0  0  0  0  0  0  0  0  0  0  0
    0.2877    6.0508    0.0000 C   0  0  0  0  0  0  0  0  0  0  0  0
   -2.7616    8.6094    0.0000 C   0  0  0  0  0  0  0  0  0  0  0  0
   -3.6095    5.3008    0.0000 C   0  0  0  0  0  0  0  0  0  0  0  0
   -7.5066    6.0508    0.0000 C   0  0  0  0  0  0  0  0  0  0  0  0
   -8.8056    5.3008    0.0000 C   0  0  0  0  0  0  0  0  0  0  0  0
   -9.5556    6.5998    0.0000 F   0  0  0  0  0  0  0  0  0  0  0  0
  -10.1046    4.5508    0.0000 F   0  0  0  0  0  0  0  0  0  0  0  0
   -8.0556    4.0018    0.0000 F   0  0  0  0  0  0  0  0  0  0  0  0
   -6.2075    5.3008    0.0000 N   0  0  0  0  0  0  0  0  0  0  0  0
   -7.5066    7.5508    0.0000 O   0  0  0  0  0  0  0  0  0  0  0  0
   -1.3462    7.1999    0.0000 O   0  0  0  0  0  0  0  0  0  0  0  0
   -1.0114    5.3008    0.0000 O   0  0  0  0  0  0  0  0  0  0  0  0
   -3.2746    7.1999    0.0000 O   0  0  0  0  0  0  0  0  0  0  0  0
   -2.3104    6.0508    0.0000 P   0  0  0  0  0  0  0  0  0  0  0  0
  4  1  1  0
  5  2  1  0
  6  4  1  0
  7  5  1  0
  9  6  1  0
 10  7  1  0
 11  8  1  0
 13 12  1  0
 14 13  1  0
 15 13  1  0
 16 13  1  0
 17  3  1  0
 17  8  1  0
 17 12  1  0
 18 12  2  0
 20  9  1  0
 21 10  1  0
 22 11  1  0
 22 19  2  0
 22 20  1  0
 22 21  1  0
M  END
>  <NAME>  (5601) 
BUTYL N-TRIFLUOROACETYL 2-N-METHYLAMINOETHYL PHOSPHONATE

>  <SYNONYMS>  (5601) 


>  <SPECTRUM TYPE>  (5601) 
MS1

>  <INSTRUMENT TYPE>  (5601) 
EI-B

>  <INSTRUMENT>  (5601) 
SHIMADZU LKB-9000B

>  <ION MODE>  (5601) 
P

>  <INCHIKEY>  (5601) 
ZXYLUWVQGVTPHW-UHFFFAOYSA-N

>  <FORMULA>  (5601) 
C13H25F3NO4P

>  <EXACT MASS>  (5601) 
347.14732957

>  <MW>  (5601) 
347

>  <ID>  (5601) 
JP002729

>  <CONTRIBUTOR>  (5601) 
University of Tokyo Team, {Faculty of Engineering, University of Tokyo

>  <COMMENT>  (5601) 
SMILES=CCCCOP(=O)(OCCCC)CCN(C)C(=O)C(F)(F)F
computed SMILES=O=C(N(C)CCP(=O)(OCCCC)OCCCC)C(F)(F)F
InChI=InChI=1S/C13H25F3NO4P/c1-4-6-9-20-22(19,21-10-7-5-2)11-8-17(3)12(18)13(14,15)16/h4-11H2,1-3H3
accession=JP002729
date=2016.01.19 (Created 2008.10.21, modified 2011.05.06)
author=HAYASHI A, DEPT. OF CHEMISTRY, FAC. OF SCI. AND TECHNOLOGY, KINKI UNIV.
license=CC BY-NC-SA
exact mass=347.14733
ionization energy=70 eV
ion type=[M]+*
computed spectral entropy=2.9348130103252164
computed normalized entropy=0.7139146340398361
SPLASH=splash10-0f79-0960000000-dbbe65b007d3132bd743
submitter=submitter = University of Tokyo Team (Faculty of Engineering, University of Tokyo)
MoNA Rating=3.75

>  <NUM PEAKS>  (5601) 
61

>  <MASS SPECTRAL PEAKS>  (5601) 
56 1.2
57 1.7
69 1.2
82 2.3
83 12.2
91 1.5
92 1.1
94 0.35
96 1.3
97 1.8
104 2.7
109 1.09
110 11.5
111 8.7
112 1.1
120 1.82
121 1.3
122 30.5
123 6.7
124 0.11
136 1.1
137 4.1
138 99.99
139 2.13
140 16.7
141 1
148 2.1
150 0.26
152 2.5
153 7.2
154 22.4
155 0.17
165 1
166 4.3
167 3.8
168 0.16
176 2
178 2.2
193 5.3
194 4.68
195 4.1
196 1.3
199 1.4
216 0.16
218 52.8
219 3.1
234 1
235 1.37
236 29.9
237 2.1
250 76.5
251 0.95
252 1.2
262 2.3
274 7.8
291 0.43
292 11.3
293 1.2
347 4
348 0.2
349 0.3

$$$$

     RDKit          2D

 21 20  0  0  0  0  0  0  0  0999 V2000
    4.1060    4.1381    0.0000 C   0  0  0  0  0  0  0  0  0  0  0  0
   -8.8843    4.1381    0.0000 C   0  0  0  0  0  0  0  0  0  0  0  0
    0.0522    5.7767    0.0000 C   0  0  0  0  0  0  0  0  0  0  0  0
    2.8070    4.8881    0.0000 C   0  0  0  0  0  0  0  0  0  0  0  0
   -7.5853    4.8881    0.0000 C   0  0  0  0  0  0  0  0  0  0  0  0
    1.5080    4.1381    0.0000 C   0  0  0  0  0  0  0  0  0  0  0  0
   -6.2863    4.1381    0.0000 C   0  0  0  0  0  0  0  0  0  0  0  0
    0.2089    4.8881    0.0000 C   0  0  0  0  0  0  0  0  0  0  0  0
   -4.9872    4.8881    0.0000 C   0  0  0  0  0  0  0  0  0  0  0  0
   -1.4250    6.0372    0.0000 C   0  0  0  0  0  0  0  0  0  0  0  0
   -0.9738    8.5958    0.0000 C   0  0  0  0  0  0  0  0  0  0  0  0
   -1.4868   10.0053    0.0000 C   0  0  0  0  0  0  0  0  0  0  0  0
   -0.0773   10.5184    0.0000 F   0  0  0  0  0  0  0  0  0  0  0  0
   -1.9999   11.4149    0.0000 F   0  0  0  0  0  0  0  0  0  0  0  0
   -2.8964    9.4923    0.0000 F   0  0  0  0  0  0  0  0  0  0  0  0
   -1.9380    7.4467    0.0000 N   0  0  0  0  0  0  0  0  0  0  0  0
    0.5034    8.3353    0.0000 O   0  0  0  0  0  0  0  0  0  0  0  0
   -3.3533    6.0372    0.0000 O   0  0  0  0  0  0  0  0  0  0  0  0
   -1.0901    4.1381    0.0000 O   0  0  0  0  0  0  0  0  0  0  0  0
   -3.6882    4.1381    0.0000 O   0  0  0  0  0  0  0  0  0  0  0  0
   -2.3892    4.8881    0.0000 P   0  0  0  0  0  0  0  0  0  0  0  0
  4  1  1  0
  5  2  1  0
  6  4  1  0
  7  5  1  0
  8  6  1  0
  9  7  1  0
 10  3  1  0
 12 11  1  0
 13 12  1  0
 14 12  1  0
 15 12  1  0
 16 10  1  0
 16 11  2  3
 17 11  1  0
 19  8  1  0
 20  9  1  0
 21 10  1  0
 21 18  2  0
 21 19  1  0
 21 20  1  0
M  END
>  <NAME>  (5602) 
BUTYL N-TRIFLUOROACETYL 1-AMINOETHYL PHOSPHONATE

>  <SYNONYMS>  (5602) 


>  <SPECTRUM TYPE>  (5602) 
MS1

>  <INSTRUMENT TYPE>  (5602) 
EI-B

>  <INSTRUMENT>  (5602) 
SHIMADZU LKB-9000B

>  <ION MODE>  (5602) 
P

>  <INCHIKEY>  (5602) 
KXEFGAZWYZRDOU-UHFFFAOYSA-N

>  <FORMULA>  (5602) 
C12H23F3NO4P

>  <EXACT MASS>  (5602) 
333.131679506

>  <MW>  (5602) 
333

>  <ID>  (5602) 
JP002728

>  <CONTRIBUTOR>  (5602) 
University of Tokyo Team, {Faculty of Engineering, University of Tokyo

>  <COMMENT>  (5602) 
SMILES=CCCCOP(=O)(OCCCC)C(C)NC(=O)C(F)(F)F
InChI=InChI=1S/C12H23F3NO4P/c1-4-6-8-19-21(18,20-9-7-5-2)10(3)16-11(17)12(13,14)15/h10H,4-9H2,1-3H3,(H,16,17)
computed SMILES=O=P(OCCCC)(OCCCC)C(N=C(O)C(F)(F)F)C
date=2016.01.19 (Created 2008.10.21, modified 2011.05.06)
ion type=[M]+*
computed spectral entropy=2.8758180297030815
computed normalized entropy=0.7082522823823795
author=HAYASHI A, DEPT. OF CHEMISTRY, FAC. OF SCI. AND TECHNOLOGY, KINKI UNIV.
license=CC BY-NC-SA
exact mass=333.13168
ionization energy=70 eV
accession=JP002728
SPLASH=splash10-0019-4930000000-97d483dd9210741df1fc
submitter=submitter = University of Tokyo Team (Faculty of Engineering, University of Tokyo)
MoNA Rating=3.75

>  <NUM PEAKS>  (5602) 
58

>  <MASS SPECTRAL PEAKS>  (5602) 
55 2
56 4.8
57 6.8
65 1.8
69 7
70 5.3
72 1.4
81 0.12
82 8.4
83 81.9
91 1.2
92 0.47
93 1.7
96 2.4
97 2.1
99 1.66
106 1.6
108 1.6
109 6.5
110 0.31
111 1.9
121 1.2
122 1.9
123 5.14
124 8.3
125 1.6
126 1.4
136 0.41
137 8
138 50.2
139 99.99
140 9.07
141 14.8
152 12.3
153 1.2
155 1.06
165 1.6
179 4.8
192 1.4
194 1.79
195 1.8
203 1.8
204 27.8
205 0.14
206 3.1
208 1.3
211 5.8
221 0.82
222 40
223 2
248 1.7
260 0.39
264 1.3
277 1.4
278 6.4
333 0.09
334 1.5
335 0.2

$$$$

     RDKit          2D

 23 22  0  0  0  0  0  0  0  0999 V2000
    4.1060    4.1381    0.0000 C   0  0  0  0  0  0  0  0  0  0  0  0
   -8.8843    4.1381    0.0000 C   0  0  0  0  0  0  0  0  0  0  0  0
    2.4936    6.6653    0.0000 C   0  0  0  0  0  0  0  0  0  0  0  0
    2.8070    4.8881    0.0000 C   0  0  0  0  0  0  0  0  0  0  0  0
   -7.5853    4.8881    0.0000 C   0  0  0  0  0  0  0  0  0  0  0  0
    1.0164    6.9258    0.0000 C   0  0  0  0  0  0  0  0  0  0  0  0
    1.5080    4.1381    0.0000 C   0  0  0  0  0  0  0  0  0  0  0  0
   -6.2863    4.1381    0.0000 C   0  0  0  0  0  0  0  0  0  0  0  0
    0.0522    5.7767    0.0000 C   0  0  0  0  0  0  0  0  0  0  0  0
    0.2089    4.8881    0.0000 C   0  0  0  0  0  0  0  0  0  0  0  0
   -4.9872    4.8881    0.0000 C   0  0  0  0  0  0  0  0  0  0  0  0
   -1.4250    6.0372    0.0000 C   0  0  0  0  0  0  0  0  0  0  0  0
   -0.9738    8.5958    0.0000 C   0  0  0  0  0  0  0  0  0  0  0  0
   -1.4868   10.0053    0.0000 C   0  0  0  0  0  0  0  0  0  0  0  0
   -2.8964    9.4923    0.0000 F   0  0  0  0  0  0  0  0  0  0  0  0
   -1.9999   11.4149    0.0000 F   0  0  0  0  0  0  0  0  0  0  0  0
   -0.0773   10.5184    0.0000 F   0  0  0  0  0  0  0  0  0  0  0  0
   -1.9380    7.4467    0.0000 N   0  0  0  0  0  0  0  0  0  0  0  0
    0.5034    8.3353    0.0000 O   0  0  0  0  0  0  0  0  0  0  0  0
   -3.3533    6.0372    0.0000 O   0  0  0  0  0  0  0  0  0  0  0  0
   -1.0901    4.1381    0.0000 O   0  0  0  0  0  0  0  0  0  0  0  0
   -3.6882    4.1381    0.0000 O   0  0  0  0  0  0  0  0  0  0  0  0
   -2.3892    4.8881    0.0000 P   0  0  0  0  0  0  0  0  0  0  0  0
  4  1  1  0
  5  2  1  0
  6  3  1  0
  7  4  1  0
  8  5  1  0
  9  6  1  0
 10  7  1  0
 11  8  1  0
 12  9  1  0
 14 13  1  0
 15 14  1  0
 16 14  1  0
 17 14  1  0
 18 12  1  0
 18 13  2  3
 19 13  1  0
 21 10  1  0
 22 11  1  0
 23 12  1  0
 23 20  2  0
 23 21  1  0
 23 22  1  0
M  END
>  <NAME>  (5603) 
BUTYL N-TRIFLUOROACETYL 1-AMINOBUTYLPHOSPHONATE

>  <SYNONYMS>  (5603) 


>  <SPECTRUM TYPE>  (5603) 
MS1

>  <INSTRUMENT TYPE>  (5603) 
EI-B

>  <INSTRUMENT>  (5603) 
SHIMADZU LKB-9000B

>  <ION MODE>  (5603) 
P

>  <INCHIKEY>  (5603) 
HFNKBZCZJNNGKI-UHFFFAOYSA-N

>  <FORMULA>  (5603) 
C14H27F3NO4P

>  <EXACT MASS>  (5603) 
361.16297963400007

>  <MW>  (5603) 
361

>  <ID>  (5603) 
JP002727

>  <CONTRIBUTOR>  (5603) 
University of Tokyo Team, {Faculty of Engineering, University of Tokyo

>  <COMMENT>  (5603) 
SMILES=CCCCOP(=O)(OCCCC)C(CCC)NC(=O)C(F)(F)F
InChI=InChI=1S/C14H27F3NO4P/c1-4-7-10-21-23(20,22-11-8-5-2)12(9-6-3)18-13(19)14(15,16)17/h12H,4-11H2,1-3H3,(H,18,19)
computed SMILES=O=P(OCCCC)(OCCCC)C(N=C(O)C(F)(F)F)CCC
accession=JP002727
date=2016.01.19 (Created 2008.10.21, modified 2011.05.06)
author=HAYASHI A, DEPT. OF CHEMISTRY, FAC. OF SCI. AND TECHNOLOGY, KINKI UNIV.
license=CC BY-NC-SA
exact mass=361.16298
ionization energy=70 eV
ion type=[M]+*
computed spectral entropy=3.042241037466075
computed normalized entropy=0.7342848442960768
SPLASH=splash10-0019-4910000000-9728f40f1630ac7c2678
submitter=submitter = University of Tokyo Team (Faculty of Engineering, University of Tokyo)
MoNA Rating=3.75

>  <NUM PEAKS>  (5603) 
63

>  <MASS SPECTRAL PEAKS>  (5603) 
55 8.3
56 5.9
57 4.9
65 1.4
69 5.4
70 2
72 1.3
78 0.15
82 6.2
83 69.4
96 2.6
97 0.17
98 2.7
99 6
106 1.2
109 0.45
110 3.9
111 1.3
114 5.1
122 0.21
123 17
124 1.5
126 22.5
127 0.1
134 1.2
136 3.1
137 6.9
138 4.41
139 99.99
140 8.3
141 1.1
149 0.17
150 4.4
151 2.8
152 5.7
154 0.1
155 3.8
164 1.7
165 1.5
166 0.39
167 2.2
168 24.7
169 3.7
179 0.32
180 3.4
189 3.2
194 9.7
195 0.18
202 1
206 3.8
207 9.1
208 0.69
211 2.9
220 3.7
232 9.5
249 0.13
250 11.3
264 3.5
288 1.7
306 0.22
319 1.4
361 0.4
362 0.2

$$$$

     RDKit          2D

 25 25  0  0  0  0  0  0  0  0999 V2000
    5.7937   -2.3182    0.0000 C   0  0  0  0  0  0  0  0  0  0  0  0
    4.2937   -3.8182    0.0000 C   0  0  0  0  0  0  0  0  0  0  0  0
    2.7937   -2.3182    0.0000 C   0  0  0  0  0  0  0  0  0  0  0  0
    2.7945    3.6827    0.0000 C   0  0  0  0  0  0  0  0  0  0  0  0
    4.2948    5.1824    0.0000 C   0  0  0  0  0  0  0  0  0  0  0  0
    5.7945    3.6822    0.0000 C   0  0  0  0  0  0  0  0  0  0  0  0
   -5.3486    3.4808    0.0000 C   0  0  0  0  0  0  0  0  0  0  0  0
   -7.3977    2.9318    0.0000 C   0  0  0  0  0  0  0  0  0  0  0  0
   -6.8486    0.8828    0.0000 C   0  0  0  0  0  0  0  0  0  0  0  0
    0.3961   -0.0690    0.0000 C   0  0  0  0  0  0  0  0  0  0  0  0
   -0.9025    2.1818    0.0000 C   0  0  0  0  0  0  0  0  0  0  0  0
    1.6951   -0.8190    0.0000 C   0  0  0  0  0  0  0  0  0  0  0  0
   -2.2015    1.4318    0.0000 C   0  0  0  0  0  0  0  0  0  0  0  0
    1.6961    2.1826    0.0000 C   0  0  0  0  0  0  0  0  0  0  0  0
    0.3966    1.4318    0.0000 C   0  0  0  0  0  0  0  0  0  0  0  0
    2.9946   -0.0682    0.0000 C   0  0  0  0  0  0  0  0  0  0  0  0
    2.9951    1.4326    0.0000 C   0  0  0  0  0  0  0  0  0  0  0  0
   -3.5005    2.1818    0.0000 C   0  0  0  0  0  0  0  0  0  0  0  0
   -3.5005    3.6818    0.0000 O   0  0  0  0  0  0  0  0  0  0  0  0
    4.2937   -0.8182    0.0000 O   0  0  0  0  0  0  0  0  0  0  0  0
    4.2943    2.1824    0.0000 O   0  0  0  0  0  0  0  0  0  0  0  0
   -4.7996    1.4318    0.0000 O   0  0  0  0  0  0  0  0  0  0  0  0
    4.2937   -2.3182    0.0000 Si  0  0  0  0  0  4  0  0  0  0  0  0
    4.2945    3.6824    0.0000 Si  0  0  0  0  0  4  0  0  0  0  0  0
   -6.0986    2.1818    0.0000 Si  0  0  0  0  0  4  0  0  0  0  0  0
 12 10  2  0
 13 11  1  0
 15 10  1  0
 15 11  1  0
 15 14  2  0
 16 12  1  0
 17 14  1  0
 17 16  2  0
 18 13  1  0
 19 18  2  0
 20 16  1  0
 21 17  1  0
 22 18  1  0
 23  1  1  0
 23  2  1  0
 23  3  1  0
 23 20  1  0
 24  4  1  0
 24  5  1  0
 24  6  1  0
 24 21  1  0
 25  7  1  0
 25  8  1  0
 25  9  1  0
 25 22  1  0
M  END
>  <NAME>  (5604) 
3,4-DIHYDROXYHYDROCINNAM1C AC1D-TRI-TMS

>  <SYNONYMS>  (5604) 


>  <SPECTRUM TYPE>  (5604) 
MS1

>  <INSTRUMENT TYPE>  (5604) 
EI-B

>  <INSTRUMENT>  (5604) 
SHIMADZU LKB-9000B

>  <ION MODE>  (5604) 
P

>  <INCHIKEY>  (5604) 
DJVNRWGQENHJMA-UHFFFAOYSA-N

>  <FORMULA>  (5604) 
C18H34O4Si3

>  <EXACT MASS>  (5604) 
398.176489158

>  <MW>  (5604) 
398

>  <ID>  (5604) 
JP002726

>  <CONTRIBUTOR>  (5604) 
University of Tokyo Team, {Faculty of Engineering, University of Tokyo

>  <COMMENT>  (5604) 
SMILES=O=C(CCc(c1)cc(O[Si](C)(C)C)c(c1)O[Si](C)(C)C)O[Si](C)(C)C
InChI=InChI=1S/C18H34O4Si3/c1-23(2,3)20-16-12-10-15(14-17(16)21-24(4,5)6)11-13-18(19)22-25(7,8)9/h10,12,14H,11,13H2,1-9H3
computed SMILES=O=C(O[Si](C)(C)C)CCC1=CC=C(O[Si](C)(C)C)C(O[Si](C)(C)C)=C1
accession=JP002726
date=2016.01.19 (Created 2008.10.21, modified 2011.05.06)
author=HAYASHI A, DEPT. OF CHEMISTRY, FAC. OF SCI. AND TECHNOLOGY, KINKI UNIV.
license=CC BY-NC-SA
exact mass=398.17649
ionization energy=70 eV
ion type=[M]+*
computed spectral entropy=3.336958959691309
computed normalized entropy=0.6146153123675653
SPLASH=splash10-00b9-8922000000-74671a9e1b8c8a0a4760
submitter=submitter = University of Tokyo Team (Faculty of Engineering, University of Tokyo)
MoNA Rating=3.75

>  <NUM PEAKS>  (5604) 
228

>  <MASS SPECTRAL PEAKS>  (5604) 
55 3.2
56 0.5
57 2
58 0.8
59 5
60 0.5
61 1.2
63 0.02
65 0.6
66 0.2
67 0.9
68 0.04
69 1.7
70 0.3
71 0.9
72 0.16
73 99.99
74 8.6
75 21.7
76 0.17
77 1.6
78 0.4
79 0.4
80 0.01
81 1.1
82 0.3
83 1
84 0.07
85 0.7
87 0.3
88 0.3
89 0.06
90 0.1
91 1.4
92 0.2
93 0.06
94 0.2
95 1.3
97 1.3
98 0.04
99 0.6
101 0.4
102 0.2
103 0.08
104 1
105 1.4
106 0.3
107 0.04
108 0.2
109 0.8
110 0.2
111 0.05
112 0.2
113 0.2
115 1
116 0.11
117 3.6
118 0.7
119 0.5
120 0.03
121 0.4
122 0.2
123 0.5
124 0.02
125 0.2
126 0.5
127 0.2
128 0.02
129 1.5
130 0.2
131 1.5
132 0.15
133 2.6
134 0.6
135 0.6
136 0.03
137 0.4
138 0.2
139 0.2
141 0.02
142 0.1
143 0.3
145 1.3
146 0.03
147 4.3
148 0.8
149 9.2
150 0.12
151 0.9
152 0.2
153 0.3
155 0.02
156 0.1
157 0.1
158 0.1
159 0.04
160 0.3
161 0.8
162 0.8
163 0.14
164 0.4
165 0.7
166 0.4
167 0.05
168 0.1
169 0.2
171 0.3
173 0.02
175 0.5
176 0.3
177 2.2
178 0.16
179 92.9
180 14.1
181 4.4
182 0.05
183 0.2
185 0.2
186 0.1
187 0.02
189 0.4
190 0.2
191 1.2
192 4
193 5.7
194 1.1
195 0.7
196 0.01
197 0.2
199 0.1
201 0.2
202 0.01
203 0.5
204 0.2
205 0.8
206 0.03
207 0.7
208 0.2
209 0.5
210 0.02
211 0.3
212 0.1
213 0.1
215 0.01
217 0.3
218 0.3
219 0.8
220 0.03
221 0.8
222 0.2
223 1.2
224 0.02
225 0.1
229 0.1
231 0.1
233 0.02
234 0.1
235 0.4
236 0.3
237 0.07
238 0.2
239 0.3
249 0.3
250 0.02
251 1.1
252 0.3
253 0.3
254 0.03
255 0.2
257 0.1
262 0.1
263 0.02
264 0.2
265 4.4
266 1.4
267 4.66
268 11.7
269 4.3
270 0.7
271 0.02
277 0.1
278 0.1
279 0.4
280 1.68
281 5.8
282 2
283 0.4
284 0.01
285 0.2
293 0.6
294 0.3
295 0.04
296 0.1
299 0.3
307 0.4
308 0.06
309 0.5
310 0.4
311 0.3
313 0.09
314 0.2
315 0.2
325 0.2
326 0.14
327 0.5
328 0.2
354 0.6
355 0.03
356 0.1
368 0.2
369 0.2
370 0.02
381 0.1
382 0.3
383 11.2
384 0.35
385 1.7
386 0.3
392 0.1
393 0.02
395 0.1
396 0.7
397 2.5
398 7.35
399 24.8
400 12.6
401 2.3
402 0.5

$$$$

     RDKit          2D

 26 26  0  0  0  0  0  0  0  0999 V2000
    4.3074    1.9584    0.0000 C   0  0  0  0  0  0  0  0  0  0  0  0
    1.5078   -1.7920    0.0000 C   0  0  0  0  0  0  0  0  0  0  0  0
    3.0078   -3.2920    0.0000 C   0  0  0  0  0  0  0  0  0  0  0  0
    4.5078   -1.7920    0.0000 C   0  0  0  0  0  0  0  0  0  0  0  0
   -2.7374    6.2570    0.0000 C   0  0  0  0  0  0  0  0  0  0  0  0
   -4.7864    5.7080    0.0000 C   0  0  0  0  0  0  0  0  0  0  0  0
   -4.2374    3.6589    0.0000 C   0  0  0  0  0  0  0  0  0  0  0  0
   -6.8354    3.2570    0.0000 C   0  0  0  0  0  0  0  0  0  0  0  0
   -7.3845    1.2080    0.0000 C   0  0  0  0  0  0  0  0  0  0  0  0
   -5.3354    0.6589    0.0000 C   0  0  0  0  0  0  0  0  0  0  0  0
   -0.8898    0.4571    0.0000 C   0  0  0  0  0  0  0  0  0  0  0  0
    0.4093   -0.2929    0.0000 C   0  0  0  0  0  0  0  0  0  0  0  0
    0.4102    2.7088    0.0000 C   0  0  0  0  0  0  0  0  0  0  0  0
   -0.8893    1.9580    0.0000 C   0  0  0  0  0  0  0  0  0  0  0  0
    1.7088    0.4580    0.0000 C   0  0  0  0  0  0  0  0  0  0  0  0
    1.7093    1.9588    0.0000 C   0  0  0  0  0  0  0  0  0  0  0  0
   -2.1883    2.7080    0.0000 C   0  0  0  0  0  0  0  0  0  0  0  0
   -3.4874    1.9580    0.0000 C   0  0  0  0  0  0  0  0  0  0  0  0
   -3.4874    0.4580    0.0000 O   0  0  0  0  0  0  0  0  0  0  0  0
    3.0084    2.7086    0.0000 O   0  0  0  0  0  0  0  0  0  0  0  0
    3.0078   -0.2920    0.0000 O   0  0  0  0  0  0  0  0  0  0  0  0
   -2.1883    4.2080    0.0000 O   0  0  0  0  0  0  0  0  0  0  0  0
   -4.7864    2.7080    0.0000 O   0  0  0  0  0  0  0  0  0  0  0  0
    3.0078   -1.7920    0.0000 Si  0  0  0  0  0  4  0  0  0  0  0  0
   -3.4874    4.9580    0.0000 Si  0  0  0  0  0  4  0  0  0  0  0  0
   -6.0854    1.9580    0.0000 Si  0  0  0  0  0  4  0  0  0  0  0  0
 12 11  2  0
 14 11  1  0
 14 13  2  0
 15 12  1  0
 16 13  1  0
 16 15  2  0
 17 14  1  0
 18 17  1  0
 19 18  2  0
 20  1  1  0
 20 16  1  0
 21 15  1  0
 22 17  1  0
 23 18  1  0
 24  2  1  0
 24  3  1  0
 24  4  1  0
 24 21  1  0
 25  5  1  0
 25  6  1  0
 25  7  1  0
 25 22  1  0
 26  8  1  0
 26  9  1  0
 26 10  1  0
 26 23  1  0
M  END
>  <NAME>  (5605) 
4-HYDROXY-3-METHOXYMANDELIC ACID-TRI-TMS

>  <SYNONYMS>  (5605) 


>  <SPECTRUM TYPE>  (5605) 
MS1

>  <INSTRUMENT TYPE>  (5605) 
EI-B

>  <INSTRUMENT>  (5605) 
SHIMADZU LKB-9000B

>  <ION MODE>  (5605) 
P

>  <INCHIKEY>  (5605) 
QGOJNGYLGCWPKN-UHFFFAOYSA-N

>  <FORMULA>  (5605) 
C18H34O5Si3

>  <EXACT MASS>  (5605) 
414.17140377799996

>  <MW>  (5605) 
414

>  <ID>  (5605) 
JP002725

>  <CONTRIBUTOR>  (5605) 
University of Tokyo Team, {Faculty of Engineering, University of Tokyo

>  <COMMENT>  (5605) 
SMILES=COc(c1)c(ccc1C(O[Si](C)(C)C)C(=O)O[Si](C)(C)C)O[Si](C)(C)C
InChI=InChI=1S/C18H34O5Si3/c1-20-16-13-14(11-12-15(16)21-24(2,3)4)17(22-25(5,6)7)18(19)23-26(8,9)10/h11-13,17H,1-10H3
computed SMILES=O=C(O[Si](C)(C)C)C(O[Si](C)(C)C)C1=CC=C(O[Si](C)(C)C)C(OC)=C1
accession=JP002725
date=2016.01.19 (Created 2008.10.21, modified 2011.05.06)
author=HAYASHI A, DEPT. OF CHEMISTRY, FAC. OF SCI. AND TECHNOLOGY, KINKI UNIV.
license=CC BY-NC-SA
exact mass=414.1714
ionization energy=70 eV
ion type=[M]+*
computed spectral entropy=2.684001997370692
computed normalized entropy=0.5196734213037962
SPLASH=splash10-0002-6190000000-0a3a3f98798a1271d46a
submitter=submitter = University of Tokyo Team (Faculty of Engineering, University of Tokyo)
MoNA Rating=3.75

>  <NUM PEAKS>  (5605) 
175

>  <MASS SPECTRAL PEAKS>  (5605) 
41 1.6
42 1.2
43 3.1
44 0.3
45 7.5
46 0.5
47 0.9
50 0.01
51 0.1
53 0.1
55 1.1
56 0.03
57 2.2
58 0.4
59 4.6
60 0.02
61 0.3
62 0.1
64 0.1
67 0.02
68 0.2
69 1.1
70 0.2
71 0.09
72 0.7
73 66.8
74 7.8
75 0.94
76 0.5
77 0.1
79 0.2
81 0.06
83 0.5
84 0.2
85 0.4
87 0.12
88 0.1
89 0.9
90 0.2
91 0.03
92 0.4
93 0.5
94 0.1
97 0.04
98 0.1
103 0.2
104 0.1
108 0.04
111 0.1
113 0.4
116 0.1
117 0.14
124 0.2
125 0.3
129 0.7
130 0.01
131 0.6
132 0.6
133 1.5
135 0.08
137 0.6
138 0.1
139 0.2
141 0.01
142 0.1
143 0.2
145 0.3
147 0.75
148 1.4
149 1.1
150 0.2
153 0.01
159 0.1
161 0.2
162 0.2
163 0.08
164 0.2
165 0.3
166 0.1
167 0.02
175 0.6
176 0.1
177 0.4
179 0.08
180 0.1
181 0.3
185 0.1
192 0.07
193 2.2
194 2.6
195 0.6
196 0.01
198 0.1
200 0.1
203 0.1
206 0.06
207 0.5
208 0.2
209 1.1
210 0.03
217 0.1
221 0.4
222 0.2
223 0.31
225 0.4
227 0.2
228 0.2
235 0.01
236 0.5
237 0.8
238 0.1
239 0.02
240 0.1
242 0.1
244 0.1
246 0.01
249 0.2
250 0.2
251 0.7
252 0.02
253 0.4
254 0.2
262 0.1
263 0.01
264 0.2
265 1
266 0.4
267 0.46
268 1
269 0.4
270 0.2
271 0.01
273 0.1
275 0.1
278 0.1
279 0.01
281 0.5
282 0.4
283 0.3
289 0.02
292 0.1
294 0.2
295 0.7
296 0.23
297 99.99
298 24.9
299 10.8
300 0.17
301 0.2
307 0.2
308 0.2
309 0.04
311 0.6
312 0.3
313 0.2
323 0.01
325 0.4
326 1.2
328 0.2
341 0.04
342 0.1
343 0.2
355 0.1
356 0.02
370 0.2
371 4.4
372 1.5
373 0.07
399 4.1
400 1.4
401 0.6
402 0.01
413 0.5
414 0.1
415 0.3

$$$$

     RDKit          2D

 21 21  0  0  0  0  0  0  0  0999 V2000
    4.2573    2.0451    0.0000 C   0  0  0  0  0  0  0  0  0  0  0  0
    5.0068   -0.7544    0.0000 C   0  0  0  0  0  0  0  0  0  0  0  0
    5.5559    1.2946    0.0000 C   0  0  0  0  0  0  0  0  0  0  0  0
    3.5068    1.8437    0.0000 C   0  0  0  0  0  0  0  0  0  0  0  0
   -6.8855    3.3437    0.0000 C   0  0  0  0  0  0  0  0  0  0  0  0
   -7.4345    1.2946    0.0000 C   0  0  0  0  0  0  0  0  0  0  0  0
   -5.3855    0.7456    0.0000 C   0  0  0  0  0  0  0  0  0  0  0  0
   -0.9398    0.5438    0.0000 C   0  0  0  0  0  0  0  0  0  0  0  0
    0.3592   -0.2062    0.0000 C   0  0  0  0  0  0  0  0  0  0  0  0
    0.3602    2.7955    0.0000 C   0  0  0  0  0  0  0  0  0  0  0  0
   -2.2383    2.7946    0.0000 C   0  0  0  0  0  0  0  0  0  0  0  0
   -0.9393    2.0446    0.0000 C   0  0  0  0  0  0  0  0  0  0  0  0
    1.6588    0.5446    0.0000 C   0  0  0  0  0  0  0  0  0  0  0  0
    1.6592    2.0455    0.0000 C   0  0  0  0  0  0  0  0  0  0  0  0
   -3.5374    2.0446    0.0000 C   0  0  0  0  0  0  0  0  0  0  0  0
   -3.5374    0.5446    0.0000 O   0  0  0  0  0  0  0  0  0  0  0  0
    2.9584    2.7953    0.0000 O   0  0  0  0  0  0  0  0  0  0  0  0
    2.9578   -0.2054    0.0000 O   0  0  0  0  0  0  0  0  0  0  0  0
   -4.8364    2.7946    0.0000 O   0  0  0  0  0  0  0  0  0  0  0  0
    4.2568    0.5446    0.0000 Si  0  0  0  0  0  4  0  0  0  0  0  0
   -6.1355    2.0446    0.0000 Si  0  0  0  0  0  4  0  0  0  0  0  0
  9  8  2  0
 12  8  1  0
 12 10  2  0
 12 11  1  0
 13  9  1  0
 14 10  1  0
 14 13  2  0
 15 11  1  0
 16 15  2  0
 17  1  1  0
 17 14  1  0
 18 13  1  0
 19 15  1  0
 20  2  1  0
 20  3  1  0
 20  4  1  0
 20 18  1  0
 21  5  1  0
 21  6  1  0
 21  7  1  0
 21 19  1  0
M  END
>  <NAME>  (5606) 
HOMOVANILLIC ACID-DI-TRIMETHYLSILYL ETHER

>  <SYNONYMS>  (5606) 


>  <SPECTRUM TYPE>  (5606) 
MS1

>  <INSTRUMENT TYPE>  (5606) 
EI-B

>  <INSTRUMENT>  (5606) 
SHIMADZU LKB-9000B

>  <ION MODE>  (5606) 
P

>  <INCHIKEY>  (5606) 
PPAQHWGGSXMRBE-UHFFFAOYSA-N

>  <FORMULA>  (5606) 
C15H26O4Si2

>  <EXACT MASS>  (5606) 
326.13696237199997

>  <MW>  (5606) 
326

>  <ID>  (5606) 
JP002724

>  <CONTRIBUTOR>  (5606) 
University of Tokyo Team, {Faculty of Engineering, University of Tokyo

>  <COMMENT>  (5606) 
SMILES=COc(c1)c(ccc(CC(=O)O[Si](C)(C)C)1)O[Si](C)(C)C
InChI=InChI=1S/C15H26O4Si2/c1-17-14-10-12(11-15(16)19-21(5,6)7)8-9-13(14)18-20(2,3)4/h8-10H,11H2,1-7H3
computed SMILES=O=C(O[Si](C)(C)C)CC1=CC=C(O[Si](C)(C)C)C(OC)=C1
accession=JP002724
date=2016.01.19 (Created 2008.10.21, modified 2011.05.06)
author=HAYASHI A, DEPT. OF CHEMISTRY, FAC. OF SCI. AND TECHNOLOGY, KINKI UNIV.
license=CC BY-NC-SA
exact mass=326.13696
ionization energy=70 eV
ion type=[M]+*
computed spectral entropy=3.291730521356247
computed normalized entropy=0.6292605951155974
SPLASH=splash10-00di-9141000000-6734fd123458d63f1b68
submitter=submitter = University of Tokyo Team (Faculty of Engineering, University of Tokyo)
MoNA Rating=3.75

>  <NUM PEAKS>  (5606) 
187

>  <MASS SPECTRAL PEAKS>  (5606) 
40 12.6
41 0.2
42 1
43 1.9
44 3
45 10.7
46 0.6
47 0.16
48 0.2
49 0.1
51 0.7
52 0.01
53 0.1
55 0.8
57 0.9
58 0.09
59 5.8
60 0.5
61 1.3
62 0.02
63 0.3
64 0.1
65 0.4
68 0.01
69 0.8
70 0.2
71 0.5
72 0.11
73 99.99
74 8.8
75 18.4
76 0.13
77 1.7
78 0.5
79 0.2
82 0.04
83 0.7
84 0.2
85 0.3
86 0.02
87 0.1
88 0.2
89 1.9
90 0.06
91 0.9
92 0.1
93 0.2
96 0.02
97 0.3
98 0.1
99 0.1
101 0.04
102 0.1
103 0.3
104 2.1
105 0.11
106 0.3
107 0.4
109 0.4
110 0.02
114 0.1
116 0.2
117 1.8
118 0.04
119 0.2
120 0.1
121 0.3
122 0.02
124 0.1
125 0.2
127 0.1
129 0.03
131 0.2
132 0.1
133 0.7
135 0.15
136 0.4
137 0.3
139 0.2
141 0.16
142 0.1
145 0.5
146 0.1
147 0.18
148 3
149 3.9
150 0.7
151 0.01
152 0.2
153 0.2
154 0.1
161 0.07
162 2.3
163 3.8
164 1.7
165 0.02
167 0.2
170 0.1
171 0.1
172 0.01
176 0.2
177 1.2
178 2
179 1.63
180 2.8
181 0.8
182 0.1
188 0.01
191 0.1
192 0.8
193 2.3
194 0.08
195 0.4
198 0.2
201 0.1
204 0.01
205 0.1
206 3.7
207 2.3
208 0.03
209 31.1
210 5.1
211 1.7
214 0.2
217 0.1
218 0.1
219 0.1
220 0.01
221 0.6
222 0.2
223 0.4
224 0.02
225 0.2
229 0.1
230 0.1
236 0.05
237 2.1
238 0.5
239 0.3
240 0.01
243 0.2
244 0.1
245 0.2
246 0.02
249 0.1
250 0.1
251 0.5
252 0.27
253 1.1
254 0.6
255 0.5
256 0.01
259 0.1
264 0.1
265 0.1
266 0.02
267 12
268 2.9
269 1.1
270 0.02
271 0.1
279 0.2
280 0.2
281 0.05
282 1.7
283 0.9
284 0.3
285 0.01
289 0.2
292 0.1
294 0.2
295 0.03
296 5
297 1.4
298 0.8
309 0.03
310 0.6
311 16
312 4
313 0.14
314 0.3
317 0.1
325 0.2
326 2.85
327 8
328 3
329 0.5

$$$$

     RDKit          2D

 19 18  0  0  0  0  0  0  0  0999 V2000
    7.1986    3.7231    0.0000 C   0  0  0  0  0  0  0  0  0  0  0  0
    2.7524   -2.0760    0.0000 C   0  0  0  0  0  0  0  0  0  0  0  0
    1.2524    0.5221    0.0000 C   0  0  0  0  0  0  0  0  0  0  0  0
    0.7034   -1.5269    0.0000 C   0  0  0  0  0  0  0  0  0  0  0  0
    9.2476    7.6740    0.0000 C   0  0  0  0  0  0  0  0  0  0  0  0
    9.7966    9.7231    0.0000 C   0  0  0  0  0  0  0  0  0  0  0  0
    7.7476   10.2721    0.0000 C   0  0  0  0  0  0  0  0  0  0  0  0
    4.6005    3.7231    0.0000 C   0  0  0  0  0  0  0  0  0  0  0  0
    4.6005    2.2231    0.0000 C   0  0  0  0  0  0  0  0  0  0  0  0
    5.8995    5.9731    0.0000 C   0  0  0  0  0  0  0  0  0  0  0  0
    5.8995    4.4731    0.0000 C   0  0  0  0  0  0  0  0  0  0  0  0
    3.3014    1.4731    0.0000 C   0  0  0  0  0  0  0  0  0  0  0  0
    7.1986    6.7231    0.0000 C   0  0  0  0  0  0  0  0  0  0  0  0
    2.0024    2.2231    0.0000 O   0  0  0  0  0  0  0  0  0  0  0  0
    8.4976    5.9731    0.0000 O   0  0  0  0  0  0  0  0  0  0  0  0
    3.3014   -0.0269    0.0000 O   0  0  0  0  0  0  0  0  0  0  0  0
    7.1986    8.2231    0.0000 O   0  0  0  0  0  0  0  0  0  0  0  0
    2.0024   -0.7769    0.0000 Si  0  0  0  0  0  4  0  0  0  0  0  0
    8.4976    8.9731    0.0000 Si  0  0  0  0  0  4  0  0  0  0  0  0
  9  8  1  0
 11  1  1  0
 11  8  1  0
 11 10  1  0
 12  9  1  0
 13 10  1  0
 14 12  2  0
 15 13  2  0
 16 12  1  0
 17 13  1  0
 18  2  1  0
 18  3  1  0
 18  4  1  0
 18 16  1  0
 19  5  1  0
 19  6  1  0
 19  7  1  0
 19 17  1  0
M  END
>  <NAME>  (5607) 
3-METHYLADIPIC ACID DI-TMS

>  <SYNONYMS>  (5607) 


>  <SPECTRUM TYPE>  (5607) 
MS1

>  <INSTRUMENT TYPE>  (5607) 
EI-B

>  <INSTRUMENT>  (5607) 
SHIMADZU LKB-9000B

>  <ION MODE>  (5607) 
P

>  <INCHIKEY>  (5607) 
IDHDZCKJOKHATB-UHFFFAOYSA-N

>  <FORMULA>  (5607) 
C13H28O4Si2

>  <EXACT MASS>  (5607) 
304.15261243599997

>  <MW>  (5607) 
304

>  <ID>  (5607) 
JP002723

>  <CONTRIBUTOR>  (5607) 
University of Tokyo Team, {Faculty of Engineering, University of Tokyo

>  <COMMENT>  (5607) 
SMILES=CC(CCC(=O)O[Si](C)(C)C)CC(=O)O[Si](C)(C)C
InChI=InChI=1S/C13H28O4Si2/c1-11(10-13(15)17-19(5,6)7)8-9-12(14)16-18(2,3)4/h11H,8-10H2,1-7H3
computed SMILES=O=C(O[Si](C)(C)C)CCC(C)CC(=O)O[Si](C)(C)C
accession=JP002723
date=2016.01.19 (Created 2008.10.21, modified 2011.05.06)
author=HAYASHI A, DEPT. OF CHEMISTRY, FAC. OF SCI. AND TECHNOLOGY, KINKI UNIV.
license=CC BY-NC-SA
exact mass=304.15261
ionization energy=70 eV
ion type=[M]+*
computed spectral entropy=3.1082376350264176
computed normalized entropy=0.6764214506691002
SPLASH=splash10-0006-9200000000-1c89305b9a5bc0da7e16
submitter=submitter = University of Tokyo Team (Faculty of Engineering, University of Tokyo)
MoNA Rating=3.75

>  <NUM PEAKS>  (5607) 
99

>  <MASS SPECTRAL PEAKS>  (5607) 
40 99.99
41 7.9
42 14.6
43 27.1
44 25.7
45 7.3
46 1.2
47 0.67
50 0.8
51 0.8
52 1.3
54 0.11
55 3.1
56 1.2
57 2.3
58 0.06
59 24.4
60 0.9
61 2.1
63 0.08
68 1.3
69 6.5
72 0.6
73 3.4
74 5.2
75 37.6
76 1.5
77 0.21
80 0.4
81 0.2
83 0.8
86 0.05
87 2.4
88 2.1
89 0.8
93 0.04
94 0.1
95 4
97 0.4
98 0.22
100 2.1
103 1.2
106 0.1
110 0.03
112 1.1
115 1.6
117 7.8
118 0.09
122 0.1
123 0.5
124 0.3
125 0.95
126 0.3
129 3.3
131 5.1
132 0.18
133 1
136 0.4
137 0.4
139 0.02
141 1.3
142 1.2
143 1.2
144 0.04
145 0.4
147 9.5
148 1.9
149 0.15
151 0.2
152 0.3
154 1.3
155 0.02
156 2.2
157 0.5
159 0.5
160 0.16
171 2.7
172 0.6
173 6.7
174 0.18
175 1.4
179 0.9
180 1.6
181 0.12
186 2.3
187 0.3
189 1.8
199 0.15
201 1.3
204 1.1
217 0.3
218 0.02
219 0.2
221 1.7
231 1.3
275 0.02
289 3
290 2.3
291 1.5

$$$$

     RDKit          2D

 18 17  0  0  0  0  0  0  0  0999 V2000
    4.5368    5.5344    0.0000 C   0  0  0  0  0  0  0  0  0  0  0  0
   -1.4094    2.7353    0.0000 C   0  0  0  0  0  0  0  0  0  0  0  0
    0.0906    5.3334    0.0000 C   0  0  0  0  0  0  0  0  0  0  0  0
   -1.9584    4.7844    0.0000 C   0  0  0  0  0  0  0  0  0  0  0  0
   10.4829    2.7353    0.0000 C   0  0  0  0  0  0  0  0  0  0  0  0
   11.0320    4.7844    0.0000 C   0  0  0  0  0  0  0  0  0  0  0  0
    8.9829    5.3334    0.0000 C   0  0  0  0  0  0  0  0  0  0  0  0
    3.2377    3.2844    0.0000 C   0  0  0  0  0  0  0  0  0  0  0  0
    5.8358    3.2844    0.0000 C   0  0  0  0  0  0  0  0  0  0  0  0
    4.5368    4.0344    0.0000 C   0  0  0  0  0  0  0  0  0  0  0  0
    1.9387    4.0344    0.0000 C   0  0  0  0  0  0  0  0  0  0  0  0
    7.1349    4.0344    0.0000 C   0  0  0  0  0  0  0  0  0  0  0  0
    1.9387    5.5344    0.0000 O   0  0  0  0  0  0  0  0  0  0  0  0
    7.1349    5.5344    0.0000 O   0  0  0  0  0  0  0  0  0  0  0  0
    0.6397    3.2844    0.0000 O   0  0  0  0  0  0  0  0  0  0  0  0
    8.4339    3.2844    0.0000 O   0  0  0  0  0  0  0  0  0  0  0  0
   -0.6594    4.0344    0.0000 Si  0  0  0  0  0  4  0  0  0  0  0  0
    9.7329    4.0344    0.0000 Si  0  0  0  0  0  4  0  0  0  0  0  0
 10  1  1  0
 10  8  1  0
 10  9  1  0
 11  8  1  0
 12  9  1  0
 13 11  2  0
 14 12  2  0
 15 11  1  0
 16 12  1  0
 17  2  1  0
 17  3  1  0
 17  4  1  0
 17 15  1  0
 18  5  1  0
 18  6  1  0
 18  7  1  0
 18 16  1  0
M  END
>  <NAME>  (5608) 
3-METHYLGLUTARIC ACID DI-TMS

>  <SYNONYMS>  (5608) 


>  <SPECTRUM TYPE>  (5608) 
MS1

>  <INSTRUMENT TYPE>  (5608) 
EI-B

>  <INSTRUMENT>  (5608) 
SHIMADZU LKB-9000B

>  <ION MODE>  (5608) 
P

>  <INCHIKEY>  (5608) 
JOPZTTHKNFWHFT-UHFFFAOYSA-N

>  <FORMULA>  (5608) 
C12H26O4Si2

>  <EXACT MASS>  (5608) 
290.13696237199997

>  <MW>  (5608) 
290

>  <ID>  (5608) 
JP002722

>  <CONTRIBUTOR>  (5608) 
University of Tokyo Team, {Faculty of Engineering, University of Tokyo

>  <COMMENT>  (5608) 
SMILES=CC(CC(=O)O[Si](C)(C)C)CC(=O)O[Si](C)(C)C
InChI=InChI=1S/C12H26O4Si2/c1-10(8-11(13)15-17(2,3)4)9-12(14)16-18(5,6)7/h10H,8-9H2,1-7H3
computed SMILES=O=C(O[Si](C)(C)C)CC(C)CC(=O)O[Si](C)(C)C
accession=JP002722
date=2016.01.19 (Created 2008.10.21, modified 2011.05.06)
author=HAYASHI A, DEPT. OF CHEMISTRY, FAC. OF SCI. AND TECHNOLOGY, KINKI UNIV.
license=CC BY-NC-SA
exact mass=290.13696
ionization energy=70 eV
ion type=[M]+*
computed spectral entropy=3.35528584873386
computed normalized entropy=0.6714315232013377
SPLASH=splash10-00fs-9510000000-b21fca6f125bf35d1565
submitter=submitter = University of Tokyo Team (Faculty of Engineering, University of Tokyo)
MoNA Rating=3.75

>  <NUM PEAKS>  (5608) 
148

>  <MASS SPECTRAL PEAKS>  (5608) 
41 5.4
42 3.3
43 10.3
44 7
45 14.4
46 1.3
47 6.8
48 0.05
49 0.2
51 0.5
53 0.2
55 0.49
56 2.5
58 2.2
59 9.4
60 0.08
61 4.5
62 0.5
63 0.2
65 0.02
66 1
67 1.3
68 0.2
69 7.95
70 3.7
71 0.8
72 6.1
73 99.99
74 9.8
75 59.7
76 4.1
77 0.3
79 0.3
81 0.3
82 0.9
83 0.19
84 0.4
85 0.2
87 0.4
88 0.18
89 0.7
90 0.4
91 0.3
93 0.03
94 0.2
95 0.5
97 0.3
99 0.34
100 0.7
101 2.4
102 0.6
103 0.07
104 0.1
105 1.5
107 0.5
109 0.03
110 0.1
111 1.5
112 0.2
113 0.05
114 0.2
115 0.6
116 6
117 1.94
118 2.1
119 1.3
120 0.2
124 0.02
125 0.1
127 0.2
128 1.5
129 0.24
130 4.7
131 2.5
132 1.7
133 0.43
134 0.7
135 0.6
141 3
142 0.06
143 8.8
144 1.5
145 1.6
146 0.05
147 67.7
148 11.8
149 8.8
150 0.1
151 0.4
155 0.2
156 0.2
157 0.26
158 0.4
159 11.8
160 1.5
161 0.08
162 0.6
163 0.4
165 0.2
171 0.02
172 16
173 3.6
174 0.8
175 0.03
177 0.2
179 1
180 0.1
181 0.02
185 2
186 0.4
187 0.3
189 0.11
190 0.4
191 1.1
192 0.2
193 0.02
194 0.2
200 4
201 3.5
202 0.05
203 0.5
204 6.5
205 1.1
206 0.8
207 0.2
217 0.7
218 0.7
219 0.13
220 0.4
221 0.3
222 0.4
223 0.02
229 1.6
230 0.3
231 0.8
232 0.02
233 0.6
235 0.2
247 3.4
248 0.09
249 0.3
261 0.2
263 0.2
275 2.7
276 6
277 2.8
278 0.2
279 0.6

$$$$

     RDKit          2D

 16 16  0  0  0  0  0  0  0  0999 V2000
    3.1520   -0.9134    0.0000 C   0  0  0  0  0  0  0  0  0  0  0  0
    5.1994   -0.3581    0.0000 C   0  0  0  0  0  0  0  0  0  0  0  0
    4.6441    1.6893    0.0000 C   0  0  0  0  0  0  0  0  0  0  0  0
   -4.6441    1.6893    0.0000 C   0  0  0  0  0  0  0  0  0  0  0  0
   -5.1994   -0.3581    0.0000 C   0  0  0  0  0  0  0  0  0  0  0  0
   -3.1520   -0.9134    0.0000 C   0  0  0  0  0  0  0  0  0  0  0  0
   -0.0000   -1.8800    0.0000 C   0  0  0  0  0  0  0  0  0  0  0  0
    1.3000   -1.1200    0.0000 C   0  0  0  0  0  0  0  0  0  0  0  0
   -1.3000   -1.1200    0.0000 C   0  0  0  0  0  0  0  0  0  0  0  0
   -0.0000    1.1200    0.0000 C   0  0  0  0  0  0  0  0  0  0  0  0
    1.3000    0.3800    0.0000 C   0  0  0  0  0  0  0  0  0  0  0  0
   -1.3000    0.3800    0.0000 C   0  0  0  0  0  0  0  0  0  0  0  0
    2.5967    1.1340    0.0000 N   0  0  0  0  0  0  0  0  0  0  0  0
   -2.5967    1.1340    0.0000 O   0  0  0  0  0  0  0  0  0  0  0  0
    3.8981    0.3879    0.0000 Si  0  0  0  0  0  4  0  0  0  0  0  0
   -3.8981    0.3879    0.0000 Si  0  0  0  0  0  4  0  0  0  0  0  0
  8  7  2  0
  9  7  1  0
 11  8  1  0
 11 10  2  0
 12  9  2  0
 12 10  1  0
 13 11  1  0
 14 12  1  0
 15  1  1  0
 15  2  1  0
 15  3  1  0
 15 13  1  0
 16  4  1  0
 16  5  1  0
 16  6  1  0
 16 14  1  0
M  END
>  <NAME>  (5609) 
META-AMINOPHENOL-DI-TMS

>  <SYNONYMS>  (5609) 


>  <SPECTRUM TYPE>  (5609) 
MS1

>  <INSTRUMENT TYPE>  (5609) 
EI-B

>  <INSTRUMENT>  (5609) 
SHIMADZU LKB-9000B

>  <ION MODE>  (5609) 
P

>  <INCHIKEY>  (5609) 
NHNXAJMLVIRGCE-UHFFFAOYSA-N

>  <FORMULA>  (5609) 
C12H23NOSi2

>  <EXACT MASS>  (5609) 
253.131817416

>  <MW>  (5609) 
253

>  <ID>  (5609) 
JP002721

>  <CONTRIBUTOR>  (5609) 
University of Tokyo Team, {Faculty of Engineering, University of Tokyo

>  <COMMENT>  (5609) 
SMILES=C[Si](C)(C)Nc(c1)cc(cc1)O[Si](C)(C)C
InChI=InChI=1S/C12H23NOSi2/c1-15(2,3)13-11-8-7-9-12(10-11)14-16(4,5)6/h7-10,13H,1-6H3
computed SMILES=O(C1=CC=CC(=C1)N[Si](C)(C)C)[Si](C)(C)C
accession=JP002721
date=2016.01.19 (Created 2008.10.21, modified 2011.05.06)
author=HAYASHI A, DEPT. OF CHEMISTRY, FAC. OF SCI. AND TECHNOLOGY, KINKI UNIV.
license=CC BY-NC-SA
exact mass=253.13182
ionization energy=70 eV
ion type=[M]+*
computed spectral entropy=3.4356051238630942
computed normalized entropy=0.7240578012331224
SPLASH=splash10-0f79-6590000000-1f8378659449de85270d
submitter=submitter = University of Tokyo Team (Faculty of Engineering, University of Tokyo)
MoNA Rating=3.75

>  <NUM PEAKS>  (5609) 
115

>  <MASS SPECTRAL PEAKS>  (5609) 
41 5.1
43 7.9
44 7.9
45 15
46 1.4
47 3.9
51 0.2
52 1.9
54 0.5
55 0.7
56 6
57 0.18
58 1
59 7.4
60 2.8
61 0.26
63 1.3
64 1.3
65 3.8
66 0.12
67 1.2
68 1.4
70 1.1
72 0.12
73 36.3
74 8.1
75 22.7
76 0.18
78 0.7
80 1.7
82 1.4
84 0.05
91 0.7
92 2.9
93 0.9
95 0.32
98 4.3
99 0.6
103 1.1
104 0.13
105 0.9
106 2.5
108 0.2
109 0.09
110 0.9
111 1.2
112 11.2
113 0.05
115 0.9
116 2.1
117 0.7
118 0.12
119 1.4
120 1.3
121 1.1
122 0.11
123 1
124 0.4
125 0.1
126 0.09
127 0.1
128 1.1
129 1.3
131 0.24
132 1.2
133 1.9
134 1.3
135 0.09
136 1.9
137 1.3
139 0.9
141 0.13
143 1.1
147 7.7
148 6.5
149 0.62
150 3.7
151 1.7
152 2
153 0.11
162 1.5
163 1.9
164 2.5
165 0.32
166 43.4
167 5.5
168 2.7
169 0.1
178 1.8
179 2
180 2.3
181 2.75
182 4.6
183 0.7
192 1.1
205 0.1
207 2.2
208 1
217 1
218 0.1
219 0.6
220 1.3
222 3.3
223 0.14
224 3.1
236 1.8
237 3.4
238 99.99
239 20.9
240 8.5
249 1
252 0.26
253 59.7
254 14.9
255 6.3

$$$$

     RDKit          2D

 17 17  0  0  1  0  0  0  0  0999 V2000
   -1.5000   -2.7800    0.0000 C   0  0  0  0  0  0  0  0  0  0  0  0
   -0.0000   -4.2800    0.0000 C   0  0  0  0  0  0  0  0  0  0  0  0
    1.5000   -2.7800    0.0000 C   0  0  0  0  0  0  0  0  0  0  0  0
    4.7177   -1.7312    0.0000 C   0  0  0  0  0  0  0  0  0  0  0  0
    6.6054   -0.7635    0.0000 C   0  0  0  0  0  0  0  0  0  0  0  0
    5.6377    1.1243    0.0000 C   0  0  0  0  0  0  0  0  0  0  0  0
    0.7500    1.0300    0.0000 C   0  0  0  0  0  0  0  0  0  0  0  0
   -0.7500    1.0300    0.0000 C   0  0  0  0  0  0  0  0  0  0  0  0
    1.2100   -0.3900    0.0000 C   0  0  0  0  0  0  0  0  0  0  0  0
   -1.2100   -0.3900    0.0000 C   0  0  0  0  0  0  0  0  0  0  0  0
    2.6377   -0.8500    0.0000 C   0  0  0  0  0  0  0  0  0  0  0  0
    0.0000   -1.2800    0.0000 N   0  0  0  0  0  0  0  0  0  0  0  0
   -2.6377   -0.8500    0.0000 O   0  0  0  0  0  0  0  0  0  0  0  0
    2.9533   -2.3164    0.0000 O   0  0  0  0  0  0  0  0  0  0  0  0
    3.7499    0.1565    0.0000 O   0  0  0  0  0  0  0  0  0  0  0  0
   -0.0000   -2.7800    0.0000 Si  0  0  0  0  0  4  0  0  0  0  0  0
    5.1777   -0.3035    0.0000 Si  0  0  0  0  0  4  0  0  0  0  0  0
  8  7  1  0
  9  7  1  0
 10  8  1  0
  9 11  1  6
 12  9  1  0
 12 10  1  0
 13 10  2  0
 14 11  2  0
 15 11  1  0
 16  1  1  0
 16  2  1  0
 16  3  1  0
 16 12  1  0
 17  4  1  0
 17  5  1  0
 17  6  1  0
 17 15  1  0
M  END
>  <NAME>  (5610) 
L-PYROGLUTAMIC ACID-DI-TMS

>  <SYNONYMS>  (5610) 


>  <SPECTRUM TYPE>  (5610) 
MS1

>  <INSTRUMENT TYPE>  (5610) 
EI-B

>  <INSTRUMENT>  (5610) 
SHIMADZU LKB-9000B

>  <ION MODE>  (5610) 
P

>  <INCHIKEY>  (5610) 
QACGFKAUSXGLCU-SECBINFHSA-N

>  <FORMULA>  (5610) 
C11H23NO3Si2

>  <EXACT MASS>  (5610) 
273.121646656

>  <MW>  (5610) 
273

>  <ID>  (5610) 
JP002720

>  <CONTRIBUTOR>  (5610) 
University of Tokyo Team, {Faculty of Engineering, University of Tokyo

>  <COMMENT>  (5610) 
SMILES=O=C(C1)N([Si](C)(C)C)C([H])(C1)C(=O)O[Si](C)(C)C
InChI=InChI=1S/C11H23NO3Si2/c1-16(2,3)12-9(7-8-10(12)13)11(14)15-17(4,5)6/h9H,7-8H2,1-6H3/t9-/m1/s1
computed SMILES=O=C(O[Si](C)(C)C)C1N(C(=O)CC1)[Si](C)(C)C
accession=JP002720
date=2016.01.19 (Created 2008.10.21, modified 2011.05.06)
author=HAYASHI A, DEPT. OF CHEMISTRY, FAC. OF SCI. AND TECHNOLOGY, KINKI UNIV.
license=CC BY-NC-SA
exact mass=273.12165
ionization energy=70 eV
ion type=[M]+*
computed spectral entropy=2.6334655172143435
computed normalized entropy=0.5306363010353655
SPLASH=splash10-0ab9-8900000000-a02cb48129ebe2596610
submitter=submitter = University of Tokyo Team (Faculty of Engineering, University of Tokyo)
MoNA Rating=3.75

>  <NUM PEAKS>  (5610) 
143

>  <MASS SPECTRAL PEAKS>  (5610) 
41 3.1
42 1.5
43 4.3
44 4.7
45 10.4
46 0.7
47 0.21
49 0.1
52 0.3
54 0.4
55 0.19
56 0.8
57 1
58 2.5
59 5.9
60 0.05
61 1.2
62 0.1
63 0.1
66 0.11
67 0.8
68 0.4
69 0.5
70 0.03
71 0.7
72 2.1
73 66.6
74 0.64
75 16.6
76 1
77 0.8
80 0.02
81 0.4
82 0.5
83 0.7
84 0.88
85 1.2
86 1
87 0.2
88 0.01
89 0.1
91 0.2
93 1
94 0.01
95 0.1
96 0.2
98 1
99 0.05
100 0.9
101 0.1
102 0.1
103 0.06
104 0.1
105 0.2
111 0.2
112 0.07
113 0.2
114 0.3
115 0.4
116 0.17
117 2
118 0.3
119 0.2
121 0.01
122 1.8
123 0.1
124 0.1
125 0.02
126 0.2
127 0.2
128 0.2
129 0.11
130 0.3
131 1.3
132 0.7
133 0.21
134 0.2
135 0.1
139 0.1
141 0.06
142 0.5
143 0.4
144 0.2
145 0.08
146 0.2
147 15.9
148 2.5
149 0.18
150 0.2
151 0.3
152 0.2
153 0.02
154 0.5
155 0.7
156 99.99
157 1.43
158 5.4
159 0.7
161 0.1
168 0.01
170 0.1
172 0.1
173 0.1
174 0.02
175 0.1
179 0.1
180 0.1
182 0.01
184 0.1
185 0.1
186 0.7
187 0.01
188 0.1
189 0.1
190 0.2
201 0.01
202 0.1
205 0.1
207 0.1
213 0.01
214 0.3
216 0.1
221 0.2
223 0.1
224 0.1
228 0.4
229 0.1
230 0.65
231 1.1
232 0.6
233 0.1
238 0.01
243 0.1
247 0.1
253 0.1
257 0.04
258 7.6
259 1.5
260 0.5
261 0.01
269 0.1
273 0.4
274 0.1

$$$$

     RDKit          2D

 16 15  0  0  0  0  0  0  0  0999 V2000
    5.2599    2.3603    0.0000 C   0  0  0  0  0  0  0  0  0  0  0  0
    2.1127   -1.1887    0.0000 C   0  0  0  0  0  0  0  0  0  0  0  0
    0.6127    1.4094    0.0000 C   0  0  0  0  0  0  0  0  0  0  0  0
    0.0637   -0.6397    0.0000 C   0  0  0  0  0  0  0  0  0  0  0  0
    6.7599    6.8603    0.0000 C   0  0  0  0  0  0  0  0  0  0  0  0
    5.2599    8.3603    0.0000 C   0  0  0  0  0  0  0  0  0  0  0  0
    3.7599    6.8603    0.0000 C   0  0  0  0  0  0  0  0  0  0  0  0
    3.9608    3.1103    0.0000 C   0  0  0  0  0  0  0  0  0  0  0  0
    2.6618    2.3603    0.0000 C   0  0  0  0  0  0  0  0  0  0  0  0
    3.9608    4.6103    0.0000 C   0  0  0  0  0  0  0  0  0  0  0  0
    1.3627    3.1103    0.0000 O   0  0  0  0  0  0  0  0  0  0  0  0
    2.6618    5.3603    0.0000 O   0  0  0  0  0  0  0  0  0  0  0  0
    2.6618    0.8603    0.0000 O   0  0  0  0  0  0  0  0  0  0  0  0
    5.2599    5.3603    0.0000 O   0  0  0  0  0  0  0  0  0  0  0  0
    1.3627    0.1103    0.0000 Si  0  0  0  0  0  4  0  0  0  0  0  0
    5.2599    6.8603    0.0000 Si  0  0  0  0  0  4  0  0  0  0  0  0
  8  1  1  0
  9  8  1  0
 10  8  1  0
 11  9  2  0
 12 10  2  0
 13  9  1  0
 14 10  1  0
 15  2  1  0
 15  3  1  0
 15  4  1  0
 15 13  1  0
 16  5  1  0
 16  6  1  0
 16  7  1  0
 16 14  1  0
M  END
>  <NAME>  (5611) 
METHYLMALONIC ACID-DI-TMS

>  <SYNONYMS>  (5611) 


>  <SPECTRUM TYPE>  (5611) 
MS1

>  <INSTRUMENT TYPE>  (5611) 
EI-B

>  <INSTRUMENT>  (5611) 
SHIMADZU LKB-9000B

>  <ION MODE>  (5611) 
P

>  <INCHIKEY>  (5611) 
LJDAAXOEMCESSS-UHFFFAOYSA-N

>  <FORMULA>  (5611) 
C10H22O4Si2

>  <EXACT MASS>  (5611) 
262.105662244

>  <MW>  (5611) 
262

>  <ID>  (5611) 
JP002719

>  <CONTRIBUTOR>  (5611) 
University of Tokyo Team, {Faculty of Engineering, University of Tokyo

>  <COMMENT>  (5611) 
SMILES=O=C(O[Si](C)(C)C)C(C)C(=O)O[Si](C)(C)C
InChI=InChI=1S/C10H22O4Si2/c1-8(9(11)13-15(2,3)4)10(12)14-16(5,6)7/h8H,1-7H3
computed SMILES=O=C(O[Si](C)(C)C)C(C(=O)O[Si](C)(C)C)C
accession=JP002719
date=2016.01.19 (Created 2008.10.21, modified 2011.05.06)
author=HAYASHI A, DEPT. OF CHEMISTRY, FAC. OF SCI. AND TECHNOLOGY, KINKI UNIV.
license=CC BY-NC-SA
exact mass=262.10566
ionization energy=70 eV
ion type=[M]+*
computed spectral entropy=2.668507732678958
computed normalized entropy=0.566618668659427
SPLASH=splash10-006t-9800000000-1870910b529d0aacca3c
submitter=submitter = University of Tokyo Team (Faculty of Engineering, University of Tokyo)
MoNA Rating=3.75

>  <NUM PEAKS>  (5611) 
111

>  <MASS SPECTRAL PEAKS>  (5611) 
41 4
42 0.7
43 4.9
44 6.1
45 12
46 0.9
47 4.3
48 0.02
49 0.1
50 0.1
51 0.4
52 0.01
53 0.3
54 0.2
55 4.4
56 1.35
57 3
58 1.9
59 4.8
60 0.08
61 1.9
62 0.1
63 0.1
66 0.87
67 0.8
68 0.1
69 0.3
70 0.03
71 0.5
72 3.7
73 68.2
74 0.65
75 20
76 1.3
77 0.9
78 0.01
81 0.2
83 2.4
84 0.1
85 0.02
86 1.2
87 0.3
88 0.3
89 0.03
93 0.2
94 1.4
95 0.1
99 0.02
101 0.4
103 0.7
104 0.1
105 0.04
113 2.5
114 0.1
115 1
116 0.29
117 3.5
118 0.4
119 0.3
120 0.01
126 0.1
127 0.1
128 0.1
129 0.16
130 1.1
131 2.7
132 0.4
133 0.36
134 0.4
135 0.3
141 0.1
143 0.02
144 0.1
145 0.2
146 0.3
147 99.99
148 16
149 8.5
150 0.8
151 0.01
155 0.1
157 2
158 0.2
159 0.01
161 0.1
163 0.2
165 0.1
172 0.05
173 0.1
175 0.1
187 0.1
189 0.01
190 0.4
191 0.3
192 0.1
203 0.05
204 0.1
217 0.2
218 5.9
219 0.11
220 0.6
221 0.1
231 0.3
237 0.02
239 0.1
243 0.1
247 6.3
248 0.13
249 0.5
250 0.1
262 0.5

$$$$

     RDKit          2D

 13 13  0  0  0  0  0  0  0  0999 V2000
   -2.5476    4.3306    0.0000 C   0  0  0  0  0  0  0  0  0  0  0  0
   -4.5966    3.7816    0.0000 C   0  0  0  0  0  0  0  0  0  0  0  0
   -4.0476    1.7326    0.0000 C   0  0  0  0  0  0  0  0  0  0  0  0
    3.1976    0.7816    0.0000 C   0  0  0  0  0  0  0  0  0  0  0  0
    3.1981    2.2824    0.0000 C   0  0  0  0  0  0  0  0  0  0  0  0
    1.8981    0.0308    0.0000 C   0  0  0  0  0  0  0  0  0  0  0  0
    1.8990    3.0324    0.0000 C   0  0  0  0  0  0  0  0  0  0  0  0
    0.5990    0.7808    0.0000 C   0  0  0  0  0  0  0  0  0  0  0  0
    0.5995    2.2816    0.0000 C   0  0  0  0  0  0  0  0  0  0  0  0
   -0.6995    3.0316    0.0000 C   0  0  0  0  0  0  0  0  0  0  0  0
   -0.6995    4.5316    0.0000 O   0  0  0  0  0  0  0  0  0  0  0  0
   -1.9986    2.2816    0.0000 O   0  0  0  0  0  0  0  0  0  0  0  0
   -3.2976    3.0316    0.0000 Si  0  0  0  0  0  4  0  0  0  0  0  0
  5  4  2  0
  6  4  1  0
  7  5  1  0
  8  6  2  0
  9  7  2  0
  9  8  1  0
 10  9  1  0
 11 10  2  0
 12 10  1  0
 13  1  1  0
 13  2  1  0
 13  3  1  0
 13 12  1  0
M  END
>  <NAME>  (5612) 
BENZOIC ACID MONO-TMS

>  <SYNONYMS>  (5612) 


>  <SPECTRUM TYPE>  (5612) 
MS1

>  <INSTRUMENT TYPE>  (5612) 
EI-B

>  <INSTRUMENT>  (5612) 
SHIMADZU LKB-9000B

>  <ION MODE>  (5612) 
P

>  <INCHIKEY>  (5612) 
VFFKJOXNCSJSAQ-UHFFFAOYSA-N

>  <FORMULA>  (5612) 
C10H14O2Si

>  <EXACT MASS>  (5612) 
194.076306218

>  <MW>  (5612) 
194

>  <ID>  (5612) 
JP002718

>  <CONTRIBUTOR>  (5612) 
University of Tokyo Team, {Faculty of Engineering, University of Tokyo

>  <COMMENT>  (5612) 
SMILES=O=C(O[Si](C)(C)C)c(c1)cccc1
InChI=InChI=1S/C10H14O2Si/c1-13(2,3)12-10(11)9-7-5-4-6-8-9/h4-8H,1-3H3
computed SMILES=O=C(O[Si](C)(C)C)C=1C=CC=CC1
accession=JP002718
date=2016.01.19 (Created 2008.10.21, modified 2011.05.06)
author=HAYASHI A, DEPT. OF CHEMISTRY, FAC. OF SCI. AND TECHNOLOGY, KINKI UNIV.
license=CC BY-NC-SA
exact mass=194.07631
ionization energy=70 eV
ion type=[M]+*
computed spectral entropy=2.4579264221005013
computed normalized entropy=0.5489706323081147
SPLASH=splash10-056r-4900000000-6f70fa0b6583ede670ba
submitter=submitter = University of Tokyo Team (Faculty of Engineering, University of Tokyo)
MoNA Rating=3.75

>  <NUM PEAKS>  (5612) 
88

>  <MASS SPECTRAL PEAKS>  (5612) 
40 4.5
42 0.9
43 5.6
44 4.1
45 7.1
46 0.4
47 2.9
48 0.01
50 3.7
51 12.8
52 0.8
53 0.06
54 0.1
55 0.5
57 0.1
58 0.06
59 3.6
60 0.6
62 0.2
63 0.02
64 0.1
65 0.4
66 0.1
67 0.01
70 0.1
72 0.8
73 6.2
74 0.18
75 8.3
76 3.7
77 55.1
78 0.41
79 0.2
85 0.1
89 0.1
90 0.37
91 0.8
92 0.2
93 0.4
95 0.01
96 0.1
100 0.1
101 0.2
102 0.02
103 0.3
104 0.7
105 85.6
106 0.68
107 0.7
108 0.1
111 0.1
115 0.01
116 0.2
117 0.5
119 0.6
120 0.02
121 0.9
122 0.7
123 0.1
129 0.01
132 0.2
133 0.2
134 0.4
135 4.26
136 5.9
137 1.7
138 0.1
145 0.01
147 0.1
148 0.1
149 0.3
150 0.02
151 0.1
163 0.2
164 0.2
165 0.03
166 0.1
177 0.1
178 0.6
179 99.99
180 15
181 4.8
182 0.3
192 0.01
193 1.4
194 7.1
195 1.1
196 0.2

$$$$

     RDKit          2D

 14 13  0  0  1  0  0  0  0  0999 V2000
    3.6495    0.9240    0.0000 C   0  0  0  0  0  0  0  0  0  0  0  0
    6.9976    3.7231    0.0000 C   0  0  0  0  0  0  0  0  0  0  0  0
    5.4976    1.1250    0.0000 C   0  0  0  0  0  0  0  0  0  0  0  0
    7.5466    1.6740    0.0000 C   0  0  0  0  0  0  0  0  0  0  0  0
    0.5024    4.4731    0.0000 C   0  0  0  0  0  0  0  0  0  0  0  0
   -1.5466    3.9240    0.0000 C   0  0  0  0  0  0  0  0  0  0  0  0
   -0.9976    1.8750    0.0000 C   0  0  0  0  0  0  0  0  0  0  0  0
    3.6495    2.4240    0.0000 C   0  0  0  0  0  0  0  0  0  0  0  0
    2.3505    3.1740    0.0000 C   0  0  0  0  0  0  0  0  0  0  0  0
    2.3505    4.6740    0.0000 O   0  0  0  0  0  0  0  0  0  0  0  0
    4.9486    3.1740    0.0000 O   0  0  0  0  0  0  0  0  0  0  0  0
    1.0514    2.4240    0.0000 O   0  0  0  0  0  0  0  0  0  0  0  0
    6.2476    2.4240    0.0000 Si  0  0  0  0  0  4  0  0  0  0  0  0
   -0.2476    3.1740    0.0000 Si  0  0  0  0  0  4  0  0  0  0  0  0
  8  1  1  1
  9  8  1  0
 10  9  2  0
 11  8  1  0
 12  9  1  0
 13  2  1  0
 13  3  1  0
 13  4  1  0
 13 11  1  0
 14  5  1  0
 14  6  1  0
 14  7  1  0
 14 12  1  0
M  END
>  <NAME>  (5613) 
LACTIC ACID-DI-TMS

>  <SYNONYMS>  (5613) 


>  <SPECTRUM TYPE>  (5613) 
MS1

>  <INSTRUMENT TYPE>  (5613) 
EI-B

>  <INSTRUMENT>  (5613) 
SHIMADZU LKB-9000B

>  <ION MODE>  (5613) 
P

>  <INCHIKEY>  (5613) 
HXRGKEOWDNVHPA-QMMMGPOBSA-N

>  <FORMULA>  (5613) 
C9H22O3Si2

>  <EXACT MASS>  (5613) 
234.11074762399997

>  <MW>  (5613) 
234

>  <ID>  (5613) 
JP002717

>  <CONTRIBUTOR>  (5613) 
University of Tokyo Team, {Faculty of Engineering, University of Tokyo

>  <COMMENT>  (5613) 
SMILES=O=C(O[Si](C)(C)C)C([H])(C)O[Si](C)(C)C
InChI=InChI=1S/C9H22O3Si2/c1-8(11-13(2,3)4)9(10)12-14(5,6)7/h8H,1-7H3/t8-/m0/s1
computed SMILES=O=C(O[Si](C)(C)C)C(O[Si](C)(C)C)C
accession=JP002717
date=2016.01.19 (Created 2008.10.21, modified 2011.05.06)
author=HAYASHI A, DEPT. OF CHEMISTRY, FAC. OF SCI. AND TECHNOLOGY, KINKI UNIV.
license=CC BY-NC-SA
exact mass=234.11075
ionization energy=70 eV
ion type=[M]+*
computed spectral entropy=2.993097548127436
computed normalized entropy=0.6528067128177963
SPLASH=splash10-00xr-9600000000-012175bf870e7dd12a15
submitter=submitter = University of Tokyo Team (Faculty of Engineering, University of Tokyo)
MoNA Rating=3.75

>  <NUM PEAKS>  (5613) 
98

>  <MASS SPECTRAL PEAKS>  (5613) 
41 19.5
42 2.1
43 7
44 3.2
45 14.1
46 1
47 4.1
48 0.02
49 0.1
50 0.1
51 0.4
52 0.12
53 0.3
55 2.6
56 0.6
57 0.09
58 3.1
59 6.4
60 0.9
61 0.25
62 0.1
66 9.9
67 1.3
68 0.01
70 0.6
71 0.9
72 3.5
73 99.99
74 9.3
75 36.3
76 2.8
77 0.17
78 0.8
79 0.3
80 0.3
81 0.05
82 0.1
85 0.2
86 0.2
87 0.12
88 5.3
89 0.8
90 0.1
91 0.01
93 1.8
94 0.2
95 1.8
100 0.03
101 2
102 1.8
103 1.2
105 0.03
107 1.1
109 0.9
113 0.1
115 0.08
116 13
117 73.4
118 8.2
119 0.39
120 0.6
121 12
122 0.9
123 1.15
124 0.3
129 0.8
130 0.1
131 0.3
132 0.5
133 4.9
134 0.6
135 0.03
144 0.1
145 0.2
146 0.2
147 6.37
148 9.8
149 5.4
150 0.5
151 0.01
163 0.1
167 0.1
168 0.1
174 0.01
175 0.5
176 0.1
190 9.8
191 1.06
192 2.5
193 0.8
194 0.1
200 0.3
202 5.5
203 0.4
204 2.9
219 0.48
220 0.8
221 0.4

$$$$

     RDKit          2D

 27 30  0  0  1  0  0  0  0  0999 V2000
    3.1130    4.9420    0.0000 C   0  0  0  0  0  0  0  0  0  0  0  0
   -1.6800    1.1900    0.0000 C   0  0  0  0  0  0  0  0  0  0  0  0
    2.3787    3.4316    0.0000 C   0  0  0  0  0  0  0  0  0  0  0  0
    7.5158    5.8722    0.0000 C   0  0  0  0  0  0  0  0  0  0  0  0
   -6.8776   -4.8104    0.0000 C   0  0  0  0  0  0  0  0  0  0  0  0
   -0.3800   -2.5600    0.0000 C   0  0  0  0  0  0  0  0  0  0  0  0
    0.9200   -1.8100    0.0000 C   0  0  0  0  0  0  0  0  0  0  0  0
    4.5300    1.1900    0.0000 C   0  0  0  0  0  0  0  0  0  0  0  0
    3.6500   -0.0200    0.0000 C   0  0  0  0  0  0  0  0  0  0  0  0
   -4.2800   -0.3100    0.0000 C   0  0  0  0  0  0  0  0  0  0  0  0
   -0.3800    1.9400    0.0000 C   0  0  0  0  0  0  0  0  0  0  0  0
   -2.9800    0.4400    0.0000 C   0  0  0  0  0  0  0  0  0  0  0  0
    0.9200    2.6900    0.0000 C   0  0  0  0  0  0  0  0  0  0  0  0
   -2.9800   -2.5600    0.0000 C   0  0  0  0  0  0  0  0  0  0  0  0
    4.1153    3.8260    0.0000 C   0  0  0  0  0  0  0  0  0  0  0  0
   -1.6800   -1.8100    0.0000 C   0  0  0  0  0  0  0  0  0  0  0  0
   -4.2800   -1.8100    0.0000 C   0  0  0  0  0  0  0  0  0  0  0  0
    0.9200   -0.3100    0.0000 C   0  0  0  0  0  0  0  0  0  0  0  0
    3.6500    2.4000    0.0000 C   0  0  0  0  0  0  0  0  0  0  0  0
    2.2200    0.4400    0.0000 C   0  0  0  0  0  0  0  0  0  0  0  0
   -0.3800    0.4400    0.0000 C   0  0  0  0  0  0  0  0  0  0  0  0
   -1.6800   -0.3100    0.0000 C   0  0  0  0  0  0  0  0  0  0  0  0
    2.2200    1.9400    0.0000 C   0  0  0  0  0  0  0  0  0  0  0  0
    5.5829    4.1361    0.0000 N   0  0  0  0  0  0  0  0  0  0  0  0
   -5.5789   -2.5602    0.0000 N   0  0  0  0  0  0  0  0  0  0  0  0
    6.0482    5.5621    0.0000 O   0  0  0  0  0  0  0  0  0  0  0  0
   -5.5787   -4.0602    0.0000 O   0  0  0  0  0  0  0  0  0  0  0  0
  7  6  1  0
  9  8  1  0
 12 10  1  0
 13 11  1  0
 15  1  1  0
 16  6  1  0
 16 14  2  0
 17 10  1  0
 17 14  1  0
 18  7  1  6
 19  8  1  0
 19 15  1  1
 20  9  1  1
 20 18  1  0
 21 11  1  1
 21 18  1  0
 22  2  1  1
 22 12  1  0
 22 16  1  0
 22 21  1  0
 23  3  1  1
 23 13  1  0
 23 19  1  0
 23 20  1  0
 15 24  2  0
 17 25  2  0
 26  4  1  0
 26 24  1  0
 27  5  1  0
 27 25  1  0
M  END
>  <NAME>  (5614) 
PROGESTERONE 3,20-BIS(O-METHYLOXIME)

>  <SYNONYMS>  (5614) 


>  <SPECTRUM TYPE>  (5614) 
MS1

>  <INSTRUMENT TYPE>  (5614) 
EI-B

>  <INSTRUMENT>  (5614) 
SHIMADZU LKB-9000B

>  <ION MODE>  (5614) 
P

>  <INCHIKEY>  (5614) 
WCBFSBXYZBTGBQ-PTUKXLOHSA-N

>  <FORMULA>  (5614) 
C23H36N2O2

>  <EXACT MASS>  (5614) 
372.277678392

>  <MW>  (5614) 
372

>  <ID>  (5614) 
JP002715

>  <CONTRIBUTOR>  (5614) 
University of Tokyo Team, {Faculty of Engineering, University of Tokyo

>  <COMMENT>  (5614) 
SMILES=CON=C(C4)C=C(C3)C(C)(C4)C([H])(C2)C([H])(C3)C([H])(C1)C(C)(C2)C(C(C)=NOC)C1
InChI=InChI=1S/C23H36N2O2/c1-15(24-26-4)19-8-9-20-18-7-6-16-14-17(25-27-5)10-12-22(16,2)21(18)11-13-23(19,20)3/h14,18-21H,6-13H2,1-5H3/b24-15+,25-17-/t18-,19+,20-,21-,22-,23+/m0/s1
computed SMILES=N(OC)=C1C=C2CCC3C(CCC4(C)C(C(=NOC)C)CCC34)C2(C)CC1
ion type=[M]+*
computed spectral entropy=4.694258291487072
accession=JP002715
date=2016.01.19 (Created 2008.10.21, modified 2011.05.06)
author=HAYASHI A, DEPT. OF CHEMISTRY, FAC. OF SCI. AND TECHNOLOGY, KINKI UNIV.
license=CC BY-NC-SA
exact mass=372.27768
ionization energy=70 eV
computed normalized entropy=0.9172067148847154
SPLASH=splash10-00b9-4910000000-0e3024d316d461934501
submitter=submitter = University of Tokyo Team (Faculty of Engineering, University of Tokyo)
MoNA Rating=3.75

>  <NUM PEAKS>  (5614) 
167

>  <MASS SPECTRAL PEAKS>  (5614) 
51 6.7
53 33.5
54 18.3
55 38.5
56 15
57 23.8
59 10
61 0.4
65 22.3
66 10.7
67 16.1
68 1.79
69 27
70 25.1
71 5.3
72 0.89
74 6.1
75 99.99
76 22.8
77 6.75
78 18.4
79 60.1
80 19.7
81 2.6
82 13.5
83 9.6
84 9
85 0.24
87 22.5
89 3.9
90 7.8
91 8.67
92 24.9
93 46.8
94 25.9
95 4.14
98 13.4
99 7.5
100 38
103 1.62
104 5.1
105 59.3
106 22.8
107 1.92
108 24.8
109 12.4
110 13.1
111 0.9
112 13.1
113 14
115 23
116 1.58
117 35.3
118 25
119 19.6
120 5.43
121 64
122 26.7
123 25.8
124 1.14
125 23
126 10.7
127 10
128 1.26
129 36.9
130 20.1
131 32.9
132 2.24
133 15.1
134 26.8
135 31.9
136 2.14
137 31.7
138 17.2
139 13.8
141 1.44
142 16.6
143 26.1
144 26.8
145 2.86
146 20.3
147 28.9
148 18.3
149 3.97
150 3.3
151 38.2
152 16.5
153 4.26
154 13.6
155 18.7
156 16.4
157 3.23
158 18.3
159 32.5
160 19.8
161 0.49
163 0.8
165 12.6
166 12
167 1.31
168 10.5
169 14
170 23
171 1.6
172 13.7
173 16.8
174 13.1
175 0.98
176 2
178 9.4
179 8.4
180 1.14
181 7.3
182 8.9
183 10.6
184 1.28
185 9.4
186 9.6
187 7.6
190 0.99
195 8.6
196 10.6
203 8.5
205 9.9
206 3.8
211 14.5
217 11.7
218 1.15
219 5.9
220 11.2
221 20.5
222 0.6
223 4.5
234 8.7
235 8.3
236 1.02
237 13.1
250 5.8
251 5.5
252 1.01
253 10.6
254 11.4
263 8.5
266 0.51
268 2.5
269 15.7
273 18
279 0.98
280 0.8
284 5.4
286 9.3
292 0.98
295 6
298 8.6
299 26.5
300 0.82
309 13
311 10.2
324 10
326 0.06
327 5.5
328 1.3
339 8
340 1.72
343 3.4
372 67.5
373 16.7

$$$$

     RDKit          2D

 28 31  0  0  1  0  0  0  0  0999 V2000
    2.3365    3.1918    0.0000 C   0  0  0  0  0  0  0  0  0  0  0  0
   -6.1583   -0.7513    0.0000 C   0  0  0  0  0  0  0  0  0  0  0  0
   -8.2072   -1.3006    0.0000 C   0  0  0  0  0  0  0  0  0  0  0  0
   -7.6579   -3.3496    0.0000 C   0  0  0  0  0  0  0  0  0  0  0  0
    5.8526    2.4412    0.0000 C   0  0  0  0  0  0  0  0  0  0  0  0
    7.0080    4.2202    0.0000 C   0  0  0  0  0  0  0  0  0  0  0  0
    5.2289    5.3756    0.0000 C   0  0  0  0  0  0  0  0  0  0  0  0
   -0.4100   -2.8000    0.0000 C   0  0  0  0  0  0  0  0  0  0  0  0
   -4.3100   -0.5500    0.0000 C   0  0  0  0  0  0  0  0  0  0  0  0
    0.8900   -2.0500    0.0000 C   0  0  0  0  0  0  0  0  0  0  0  0
   -3.0100    0.2000    0.0000 C   0  0  0  0  0  0  0  0  0  0  0  0
    3.6100   -0.2600    0.0000 C   0  0  0  0  0  0  0  0  0  0  0  0
    4.4900    0.9500    0.0000 C   0  0  0  0  0  0  0  0  0  0  0  0
   -0.4100    1.7000    0.0000 C   0  0  0  0  0  0  0  0  0  0  0  0
    0.8900    2.4500    0.0000 C   0  0  0  0  0  0  0  0  0  0  0  0
   -3.0100   -2.8000    0.0000 C   0  0  0  0  0  0  0  0  0  0  0  0
   -1.7100   -2.0500    0.0000 C   0  0  0  0  0  0  0  0  0  0  0  0
   -4.3100   -2.0500    0.0000 C   0  0  0  0  0  0  0  0  0  0  0  0
   -1.7100   -0.5500    0.0000 C   0  0  0  0  0  0  0  0  0  0  0  0
   -0.4100    0.2000    0.0000 C   0  0  0  0  0  0  0  0  0  0  0  0
    0.8900   -0.5500    0.0000 C   0  0  0  0  0  0  0  0  0  0  0  0
    2.1800    0.2000    0.0000 C   0  0  0  0  0  0  0  0  0  0  0  0
    3.6100    2.1700    0.0000 C   0  0  0  0  0  0  0  0  0  0  0  0
    2.1800    1.7000    0.0000 C   0  0  0  0  0  0  0  0  0  0  0  0
   -5.6089   -2.8002    0.0000 O   0  0  0  0  0  0  0  0  0  0  0  0
    4.0736    3.5966    0.0000 O   0  0  0  0  0  0  0  0  0  0  0  0
   -6.9081   -2.0504    0.0000 Si  0  0  0  0  0  4  0  0  0  0  0  0
    5.5408    3.9084    0.0000 Si  0  0  0  0  0  4  0  0  0  0  0  0
 10  8  1  0
 11  9  1  0
 13 12  1  0
 15 14  1  0
 17  8  1  0
 17 16  2  0
 18  9  2  0
 18 16  1  0
 19 11  2  0
 19 17  1  0
 20 14  1  1
 20 19  1  0
 21 10  1  6
 21 20  1  0
 22 12  1  1
 22 21  1  0
 23 13  1  0
 24  1  1  1
 24 15  1  0
 24 22  1  0
 24 23  1  0
 25 18  1  0
 23 26  1  1
 27  2  1  0
 27  3  1  0
 27  4  1  0
 27 25  1  0
 28  5  1  0
 28  6  1  0
 28  7  1  0
 28 26  1  0
M  END
>  <NAME>  (5615) 
3,17BETA-DI-O-TRIMETHYLSILYLESTRADIOL

>  <SYNONYMS>  (5615) 


>  <SPECTRUM TYPE>  (5615) 
MS1

>  <INSTRUMENT TYPE>  (5615) 
EI-B

>  <INSTRUMENT>  (5615) 
SHIMADZU LKB-9000B

>  <ION MODE>  (5615) 
P

>  <INCHIKEY>  (5615) 
WJUROLKZHWTVGC-DJCPXJLLSA-N

>  <FORMULA>  (5615) 
C24H40O2Si2

>  <EXACT MASS>  (5615) 
416.25668357999996

>  <MW>  (5615) 
416

>  <ID>  (5615) 
JP002714

>  <CONTRIBUTOR>  (5615) 
University of Tokyo Team, {Faculty of Engineering, University of Tokyo

>  <COMMENT>  (5615) 
SMILES=C(C1(C)4)([H])(O[Si](C)(C)C)CCC1(C(C([H])(CC4)2)([H])CCc(c3)c2ccc(O[Si](C)(C)C)3)[H]
InChI=InChI=1S/C24H40O2Si2/c1-24-15-14-20-19-11-9-18(25-27(2,3)4)16-17(19)8-10-21(20)22(24)12-13-23(24)26-28(5,6)7/h9,11,16,20-23H,8,10,12-15H2,1-7H3/t20-,21-,22+,23+,24+/m1/s1
computed SMILES=O(C1=CC=C2C(=C1)CCC3C2CCC4(C)C(O[Si](C)(C)C)CCC34)[Si](C)(C)C
accession=JP002714
date=2016.01.19 (Created 2008.10.21, modified 2011.05.06)
author=HAYASHI A, DEPT. OF CHEMISTRY, FAC. OF SCI. AND TECHNOLOGY, KINKI UNIV.
license=CC BY-NC-SA
exact mass=416.25668
ionization energy=70 eV
ion type=[M]+*
computed spectral entropy=4.069292341543929
computed normalized entropy=0.7795047843281593
SPLASH=splash10-01dr-8591400000-19337bf70bccf7500010
submitter=submitter = University of Tokyo Team (Faculty of Engineering, University of Tokyo)
MoNA Rating=3.75

>  <NUM PEAKS>  (5615) 
185

>  <MASS SPECTRAL PEAKS>  (5615) 
51 0.4
53 3.7
54 2
55 0.95
56 2.8
57 9.9
58 2.8
59 1.07
60 1.5
61 1.8
65 2.5
67 0.42
68 3.3
70 2.5
71 2.4
72 0.33
73 87.8
74 8.8
75 71.5
76 0.83
77 12.2
78 3
79 3.9
81 0.72
82 1.1
83 3.9
85 3.3
91 0.7
93 3.2
94 2.8
95 5.6
97 0.3
98 2.2
99 3.5
101 4
103 0.04
104 0.6
105 5.8
106 1.9
107 0.56
109 3.8
110 1.6
111 1.5
112 0.25
113 1.9
115 9
116 3.7
117 0.64
118 1.6
119 2.1
120 2.4
121 0.2
122 2.2
123 0.6
126 1.7
127 0.22
128 2.7
129 36.7
130 8.2
131 0.29
132 2.2
134 1.3
135 1.2
141 0.49
142 1.5
143 0.7
144 1.7
145 0.2
146 1.5
147 0.1
148 1.5
149 0.55
151 3.6
152 3
153 2.4
155 0.28
157 1.5
159 2.5
160 2.6
161 0.14
162 1.7
163 0.5
164 1.5
165 0.26
167 2.6
169 3
170 2
173 0.17
175 1.7
176 0.1
177 3.4
178 0.2
179 5.6
180 3.1
181 2.3
182 0.17
183 2
185 2.3
186 1.5
187 0.27
189 3.8
190 3
192 0.8
195 0.26
196 1.5
199 1.4
201 3.9
202 0.22
203 5.2
204 2.7
205 9.8
206 0.15
211 2.1
213 1.8
215 4.7
216 0.35
217 6.3
218 21.1
219 5.8
220 0.22
221 1.2
222 1.1
223 0.9
227 0.22
229 9.2
230 3.9
231 19.1
232 2.17
233 5
234 2.7
235 2
242 0.19
243 4
244 14.3
245 6.3
246 0.2
247 1.4
250 1.1
251 1
252 0.19
253 2
254 1.8
255 2.4
256 0.19
257 4.6
258 3.3
259 1.6
269 0.29
270 2.9
271 2.8
272 3.9
283 0.02
284 10.7
285 63.5
286 17.7
287 1.21
288 1.9
295 2.8
296 2.1
297 0.48
298 8.8
299 3.8
300 4
307 0.15
309 4.9
310 2.1
311 4.4
323 0.15
324 6.2
325 6.3
326 15.5
327 0.1
328 0.5
335 3
339 2.7
340 0.23
400 0.5
401 5.6
402 2
414 0.12
415 7.3
416 99.99
417 33.7
418 0.76
419 2.3

$$$$

     RDKit          2D

 28 31  0  0  1  0  0  0  0  0999 V2000
    2.3365    3.1918    0.0000 C   0  0  0  0  0  0  0  0  0  0  0  0
   -6.1583   -0.7513    0.0000 C   0  0  0  0  0  0  0  0  0  0  0  0
   -8.2072   -1.3006    0.0000 C   0  0  0  0  0  0  0  0  0  0  0  0
   -7.6579   -3.3496    0.0000 C   0  0  0  0  0  0  0  0  0  0  0  0
    5.8526    2.4412    0.0000 C   0  0  0  0  0  0  0  0  0  0  0  0
    7.0080    4.2202    0.0000 C   0  0  0  0  0  0  0  0  0  0  0  0
    5.2289    5.3756    0.0000 C   0  0  0  0  0  0  0  0  0  0  0  0
   -0.4100   -2.8000    0.0000 C   0  0  0  0  0  0  0  0  0  0  0  0
   -4.3100   -0.5500    0.0000 C   0  0  0  0  0  0  0  0  0  0  0  0
    0.8900   -2.0500    0.0000 C   0  0  0  0  0  0  0  0  0  0  0  0
   -3.0100    0.2000    0.0000 C   0  0  0  0  0  0  0  0  0  0  0  0
    3.6100   -0.2600    0.0000 C   0  0  0  0  0  0  0  0  0  0  0  0
    4.4900    0.9500    0.0000 C   0  0  0  0  0  0  0  0  0  0  0  0
   -0.4100    1.7000    0.0000 C   0  0  0  0  0  0  0  0  0  0  0  0
    0.8900    2.4500    0.0000 C   0  0  0  0  0  0  0  0  0  0  0  0
   -3.0100   -2.8000    0.0000 C   0  0  0  0  0  0  0  0  0  0  0  0
   -1.7100   -2.0500    0.0000 C   0  0  0  0  0  0  0  0  0  0  0  0
   -4.3100   -2.0500    0.0000 C   0  0  0  0  0  0  0  0  0  0  0  0
   -1.7100   -0.5500    0.0000 C   0  0  0  0  0  0  0  0  0  0  0  0
   -0.4100    0.2000    0.0000 C   0  0  0  0  0  0  0  0  0  0  0  0
    0.8900   -0.5500    0.0000 C   0  0  0  0  0  0  0  0  0  0  0  0
    2.1800    0.2000    0.0000 C   0  0  0  0  0  0  0  0  0  0  0  0
    3.6100    2.1700    0.0000 C   0  0  0  0  0  0  0  0  0  0  0  0
    2.1800    1.7000    0.0000 C   0  0  0  0  0  0  0  0  0  0  0  0
   -5.6089   -2.8002    0.0000 O   0  0  0  0  0  0  0  0  0  0  0  0
    4.0736    3.5966    0.0000 O   0  0  0  0  0  0  0  0  0  0  0  0
   -6.9081   -2.0504    0.0000 Si  0  0  0  0  0  4  0  0  0  0  0  0
    5.5408    3.9084    0.0000 Si  0  0  0  0  0  4  0  0  0  0  0  0
 10  8  1  0
 11  9  1  0
 13 12  1  0
 15 14  1  0
 17  8  1  0
 17 16  2  0
 18  9  2  0
 18 16  1  0
 19 11  2  0
 19 17  1  0
 20 14  1  1
 20 19  1  0
 21 10  1  6
 21 20  1  0
 22 12  1  1
 22 21  1  0
 23 13  1  0
 24  1  1  1
 24 15  1  0
 24 22  1  0
 24 23  1  0
 25 18  1  0
 23 26  1  6
 27  2  1  0
 27  3  1  0
 27  4  1  0
 27 25  1  0
 28  5  1  0
 28  6  1  0
 28  7  1  0
 28 26  1  0
M  END
>  <NAME>  (5616) 
3,17ALPHA-DI-O-TRIMETHYLSILYLESTRADIOL

>  <SYNONYMS>  (5616) 


>  <SPECTRUM TYPE>  (5616) 
MS1

>  <INSTRUMENT TYPE>  (5616) 
EI-B

>  <INSTRUMENT>  (5616) 
SHIMADZU LKB-9000B

>  <ION MODE>  (5616) 
P

>  <INCHIKEY>  (5616) 
WJUROLKZHWTVGC-SJSRKZJXSA-N

>  <FORMULA>  (5616) 
C24H40O2Si2

>  <EXACT MASS>  (5616) 
416.25668357999996

>  <MW>  (5616) 
416

>  <ID>  (5616) 
JP002713

>  <CONTRIBUTOR>  (5616) 
University of Tokyo Team, {Faculty of Engineering, University of Tokyo

>  <COMMENT>  (5616) 
SMILES=C(C1(C)4)([H])(O[Si](C)(C)C)CCC1(C(C([H])(CC4)2)([H])CCc(c3)c2ccc(O[Si](C)(C)C)3)[H]
InChI=InChI=1S/C24H40O2Si2/c1-24-15-14-20-19-11-9-18(25-27(2,3)4)16-17(19)8-10-21(20)22(24)12-13-23(24)26-28(5,6)7/h9,11,16,20-23H,8,10,12-15H2,1-7H3/t20-,21-,22+,23-,24+/m1/s1
computed SMILES=O(C1=CC=C2C(=C1)CCC3C2CCC4(C)C(O[Si](C)(C)C)CCC34)[Si](C)(C)C
accession=JP002713
date=2016.01.19 (Created 2008.10.21, modified 2011.05.06)
author=HAYASHI A, DEPT. OF CHEMISTRY, FAC. OF SCI. AND TECHNOLOGY, KINKI UNIV.
license=CC BY-NC-SA
exact mass=416.25668
ionization energy=70 eV
ion type=[M]+*
computed spectral entropy=3.9013269326940745
computed normalized entropy=0.7668310682741845
SPLASH=splash10-01dr-5491400000-d7ce9ddc975539d8727e
submitter=submitter = University of Tokyo Team (Faculty of Engineering, University of Tokyo)
MoNA Rating=3.75

>  <NUM PEAKS>  (5616) 
162

>  <MASS SPECTRAL PEAKS>  (5616) 
53 0.8
55 4.7
56 0.3
57 0.13
58 1.7
59 7.4
60 1.2
61 0.17
65 1.3
67 3.5
68 1.3
72 0.16
73 86.8
74 7.3
75 26.4
76 0.21
77 3.5
78 1.7
79 4.1
81 0.46
82 0.9
85 1.3
87 1.1
89 0.12
91 4
93 5.2
94 0.8
95 0.24
98 1.2
99 0.5
100 1.1
101 0.34
103 2.6
105 2.2
107 2.4
108 0.1
109 0.8
113 1.1
115 8.2
116 0.3
117 2.3
119 0.7
121 0.8
125 0.01
127 1.8
128 3.4
129 35
130 0.62
131 1.9
133 0.9
134 1.4
135 0.07
141 3.3
143 1.8
145 1.1
147 0.21
149 0.5
151 0.5
152 1.1
153 0.13
155 1.9
157 1.2
159 4.4
161 0.26
163 4.5
164 1.4
165 1.5
167 0.21
169 1.5
175 2.2
177 6
178 0.25
179 5.8
180 3.1
181 1.4
182 0.12
185 2.1
187 1.7
189 4.4
190 0.14
191 0.6
192 1.5
193 2.6
194 0.15
195 1.2
199 1.4
200 1.5
201 0.37
202 1.4
203 5.5
204 2.6
205 1.22
206 3.4
213 1.2
214 1.1
215 0.38
216 2.4
217 6.5
218 15.7
219 0.41
220 1.7
223 1.1
227 1.4
229 0.76
230 7.9
231 17.1
232 18.9
233 0.54
234 1.4
235 11.3
237 1.2
242 0.17
243 3.7
244 11.6
245 2
246 0.19
247 1.2
250 2
253 1.8
254 0.15
255 2.1
256 2.1
257 4.1
258 0.37
259 1.4
268 1.3
269 5.3
270 0.3
271 4.9
272 3.7
273 1.3
283 0.55
284 10.3
285 59.6
286 16.8
287 1.09
288 2.5
297 4.8
298 7.5
299 0.3
300 4.4
301 1
309 2.3
310 0.1
311 3.5
312 1.3
324 3.2
325 1.14
326 18.2
327 4
328 1.6
340 0.46
344 1.1
401 7.9
402 3.2
403 0.1
414 1.4
415 4.4
416 99.99
417 3.56
418 13.2
419 3

$$$$

     RDKit          2D

 26 29  0  0  1  0  0  0  0  0999 V2000
    2.3787    3.4316    0.0000 C   0  0  0  0  0  0  0  0  0  0  0  0
    3.5782    6.3680    0.0000 C   0  0  0  0  0  0  0  0  0  0  0  0
   -6.1283   -0.5113    0.0000 C   0  0  0  0  0  0  0  0  0  0  0  0
   -8.1772   -1.0606    0.0000 C   0  0  0  0  0  0  0  0  0  0  0  0
   -7.6279   -3.1096    0.0000 C   0  0  0  0  0  0  0  0  0  0  0  0
   -0.3800   -2.5600    0.0000 C   0  0  0  0  0  0  0  0  0  0  0  0
   -4.2800   -0.3100    0.0000 C   0  0  0  0  0  0  0  0  0  0  0  0
    0.9200   -1.8100    0.0000 C   0  0  0  0  0  0  0  0  0  0  0  0
   -2.9800    0.4400    0.0000 C   0  0  0  0  0  0  0  0  0  0  0  0
    3.6500   -0.0200    0.0000 C   0  0  0  0  0  0  0  0  0  0  0  0
    4.5300    1.1900    0.0000 C   0  0  0  0  0  0  0  0  0  0  0  0
   -0.3800    1.9400    0.0000 C   0  0  0  0  0  0  0  0  0  0  0  0
    0.9200    2.6900    0.0000 C   0  0  0  0  0  0  0  0  0  0  0  0
   -2.9800   -2.5600    0.0000 C   0  0  0  0  0  0  0  0  0  0  0  0
   -1.6800   -1.8100    0.0000 C   0  0  0  0  0  0  0  0  0  0  0  0
   -4.2800   -1.8100    0.0000 C   0  0  0  0  0  0  0  0  0  0  0  0
   -1.6800   -0.3100    0.0000 C   0  0  0  0  0  0  0  0  0  0  0  0
   -0.3800    0.4400    0.0000 C   0  0  0  0  0  0  0  0  0  0  0  0
    0.9200   -0.3100    0.0000 C   0  0  0  0  0  0  0  0  0  0  0  0
    2.2200    0.4400    0.0000 C   0  0  0  0  0  0  0  0  0  0  0  0
    3.6500    2.4000    0.0000 C   0  0  0  0  0  0  0  0  0  0  0  0
    2.2200    1.9400    0.0000 C   0  0  0  0  0  0  0  0  0  0  0  0
    4.1153    3.8260    0.0000 N   0  0  0  0  0  0  0  0  0  0  0  0
    3.1130    4.9420    0.0000 O   0  0  0  0  0  0  0  0  0  0  0  0
   -5.5789   -2.5602    0.0000 O   0  0  0  0  0  0  0  0  0  0  0  0
   -6.8781   -1.8104    0.0000 Si  0  0  0  0  0  4  0  0  0  0  0  0
  8  6  1  0
  9  7  1  0
 11 10  1  0
 13 12  1  0
 15  6  1  0
 15 14  2  0
 16  7  2  0
 16 14  1  0
 17  9  2  0
 17 15  1  0
 18 12  1  1
 18 17  1  0
 19  8  1  6
 19 18  1  0
 20 10  1  1
 20 19  1  0
 21 11  1  0
 22  1  1  1
 22 13  1  0
 22 20  1  0
 22 21  1  0
 21 23  2  0
 24  2  1  0
 24 23  1  0
 25 16  1  0
 26  3  1  0
 26  4  1  0
 26  5  1  0
 26 25  1  0
M  END
>  <NAME>  (5617) 
3-O-TRIMETHYLSILYLESTRONE 17-(O-METHYL)OXIME

>  <SYNONYMS>  (5617) 


>  <SPECTRUM TYPE>  (5617) 
MS1

>  <INSTRUMENT TYPE>  (5617) 
EI-B

>  <INSTRUMENT>  (5617) 
SHIMADZU LKB-9000B

>  <ION MODE>  (5617) 
P

>  <INCHIKEY>  (5617) 
GIUGKXYPAYLRPS-AFLCNQENSA-N

>  <FORMULA>  (5617) 
C22H33NO2Si

>  <EXACT MASS>  (5617) 
371.228055826

>  <MW>  (5617) 
371

>  <ID>  (5617) 
JP002712

>  <CONTRIBUTOR>  (5617) 
University of Tokyo Team, {Faculty of Engineering, University of Tokyo

>  <COMMENT>  (5617) 
SMILES=CON=C(C4)C(C)(C3)C([H])(C4)C([H])(C1)C([H])(C3)c(c2)c(cc(O[Si](C)(C)C)c2)C1
InChI=InChI=1S/C22H33NO2Si/c1-22-13-12-18-17-9-7-16(25-26(3,4)5)14-15(17)6-8-19(18)20(22)10-11-21(22)23-24-2/h7,9,14,18-20H,6,8,10-13H2,1-5H3/b23-21-/t18-,19-,20+,22+/m1/s1
computed SMILES=N(OC)=C1CCC2C3CCC4=CC(O[Si](C)(C)C)=CC=C4C3CCC12C
computed spectral entropy=4.682309614273159
accession=JP002712
date=2016.01.19 (Created 2008.10.21, modified 2011.05.06)
author=HAYASHI A, DEPT. OF CHEMISTRY, FAC. OF SCI. AND TECHNOLOGY, KINKI UNIV.
license=CC BY-NC-SA
exact mass=371.22806
ionization energy=70 eV
ion type=[M]+*
computed normalized entropy=0.8320228955858872
SPLASH=splash10-00di-4579000000-0e96df11205ca148758c
submitter=submitter = University of Tokyo Team (Faculty of Engineering, University of Tokyo)
MoNA Rating=3.75

>  <NUM PEAKS>  (5617) 
278

>  <MASS SPECTRAL PEAKS>  (5617) 
51 1.9
53 3.7
54 3.2
55 4.8
56 3.5
57 3.8
58 2.6
59 0.71
60 1.2
61 1.7
63 1.4
65 0.3
66 1.7
67 4.2
68 2.2
70 0.23
71 1.3
72 1.6
73 91.8
74 0.8
75 26.5
76 2.2
77 8
78 0.31
79 5.7
80 2.4
81 4.5
82 0.41
83 1.1
84 7
85 2.1
86 0.11
87 2
89 3.6
90 1.1
91 0.73
92 2
93 4.3
94 3
95 0.44
96 18.4
97 2
98 2.2
99 0.07
100 2.9
101 3.7
102 1.5
103 0.38
104 1.7
105 7.9
106 2.2
107 0.76
108 7.1
109 4.6
110 3.4
111 0.08
112 1.9
113 2.2
114 2.5
115 1.06
116 3.5
117 4.3
118 1.9
119 0.35
120 4
121 3.3
122 5
123 0.17
124 2.2
125 1.4
126 4.3
127 0.69
128 9.8
129 6.8
130 2.3
131 0.29
132 2.8
133 3.4
134 4.5
135 0.35
136 1.9
137 0.8
138 4
139 0.21
140 3
141 8
142 3.4
143 0.31
144 2.4
145 4.1
146 3
147 0.34
148 1.2
149 2.6
150 1.7
151 0.25
152 3.3
153 3.4
154 2.5
155 0.48
156 1.5
157 3.6
158 2.1
159 0.33
160 3.1
161 5.4
162 2
163 1.1
164 2.9
165 5.5
166 2.5
167 0.35
168 1.5
169 1.8
170 2
171 0.23
172 1.5
173 2.3
174 1.3
175 0.32
176 2.2
177 9.2
178 4.7
179 10.6
180 6
181 3
182 1.4
183 0.23
184 1.2
185 4.5
186 1.6
187 0.37
188 2.3
189 8.2
190 2.7
191 0.3
192 2.6
193 3.8
194 2.5
195 0.39
196 1.4
197 1.8
198 1.1
199 0.3
200 2
201 9
202 3.2
203 1.45
204 3.8
205 18.4
206 5.4
209 0.15
210 2
211 2
213 2.4
214 0.2
215 7.4
216 5.1
217 21.9
218 8.97
219 21.3
220 6.3
221 2.1
222 0.17
223 2
224 1
225 1.7
226 0.12
227 2.1
228 1.5
229 16
230 1.2
231 30.4
232 25.1
233 7.2
234 0.32
235 2.4
236 1.3
237 1.6
238 0.11
239 1.7
240 1.4
241 2.3
242 0.27
243 4.7
244 11.4
245 1.5
246 0.23
247 1.4
248 1.8
249 1.7
250 0.28
251 1.4
252 1.3
253 2.5
254 0.17
255 3.2
256 3.1
257 7.4
258 0.31
259 2.9
260 1.3
261 1.1
265 0.11
266 1.9
267 3.2
268 3.8
269 0.5
270 4.8
271 13.1
272 4.6
273 0.2
279 1.4
280 2.1
281 2.6
282 0.51
283 15.9
284 15.7
285 26.9
286 0.88
287 2.8
292 1
293 1.6
294 0.17
295 2.5
296 4
297 6.4
298 0.53
299 6.8
300 2.1
301 1
305 0.2
306 4.5
307 3.4
308 2.2
309 0.33
310 10.5
311 7.7
312 12.9
313 0.57
314 2.4
315 1.3
318 1
319 1.3
320 1.2
321 1.9
322 3.4
323 0.9
324 15.2
325 5.2
326 8.3
327 0.19
328 1.5
335 1.9
336 1.5
337 0.38
338 7.5
339 53.2
340 84.3
341 4.92
342 14.4
343 4.4
344 1.5
353 0.08
354 6.7
355 2
356 11.5
357 0.44
358 1.4
369 2.6
370 6.6
371 99.99
372 32.6
373 8
374 0.13
385 6.3
386 2.2
399 1.6

$$$$

     RDKit          2D

 27 30  0  0  1  0  0  0  0  0999 V2000
    9.2324    7.1952    0.0000 C   0  0  0  0  0  0  0  0  0  0  0  0
    6.7615    7.9981    0.0000 C   0  0  0  0  0  0  0  0  0  0  0  0
    2.8999    4.5213    0.0000 C   0  0  0  0  0  0  0  0  0  0  0  0
   -1.8900    0.7600    0.0000 C   0  0  0  0  0  0  0  0  0  0  0  0
    2.1640    3.0021    0.0000 C   0  0  0  0  0  0  0  0  0  0  0  0
   -4.4900   -2.2400    0.0000 C   0  0  0  0  0  0  0  0  0  0  0  0
   -4.4900   -0.7400    0.0000 C   0  0  0  0  0  0  0  0  0  0  0  0
    5.8343    5.1450    0.0000 C   0  0  0  0  0  0  0  0  0  0  0  0
    7.3016    5.4568    0.0000 C   0  0  0  0  0  0  0  0  0  0  0  0
    5.3708    3.7184    0.0000 C   0  0  0  0  0  0  0  0  0  0  0  0
   -3.1900   -2.9900    0.0000 C   0  0  0  0  0  0  0  0  0  0  0  0
   -0.5900   -2.9900    0.0000 C   0  0  0  0  0  0  0  0  0  0  0  0
    0.7100   -2.2400    0.0000 C   0  0  0  0  0  0  0  0  0  0  0  0
    4.3200    0.7600    0.0000 C   0  0  0  0  0  0  0  0  0  0  0  0
    3.4400   -0.4500    0.0000 C   0  0  0  0  0  0  0  0  0  0  0  0
   -0.5900    1.5100    0.0000 C   0  0  0  0  0  0  0  0  0  0  0  0
   -3.1900    0.0100    0.0000 C   0  0  0  0  0  0  0  0  0  0  0  0
    0.7100    2.2600    0.0000 C   0  0  0  0  0  0  0  0  0  0  0  0
    7.7651    6.8834    0.0000 C   0  0  0  0  0  0  0  0  0  0  0  0
    3.9036    3.4066    0.0000 C   0  0  0  0  0  0  0  0  0  0  0  0
   -1.8900   -2.2400    0.0000 C   0  0  0  0  0  0  0  0  0  0  0  0
    0.7100   -0.7400    0.0000 C   0  0  0  0  0  0  0  0  0  0  0  0
    3.4400    1.9800    0.0000 C   0  0  0  0  0  0  0  0  0  0  0  0
    2.0100    0.0100    0.0000 C   0  0  0  0  0  0  0  0  0  0  0  0
   -0.5900    0.0100    0.0000 C   0  0  0  0  0  0  0  0  0  0  0  0
   -1.8900   -0.7400    0.0000 C   0  0  0  0  0  0  0  0  0  0  0  0
    2.0100    1.5100    0.0000 C   0  0  0  0  0  0  0  0  0  0  0  0
  7  6  1  0
  9  8  1  0
 10  8  1  0
 11  6  1  0
 13 12  1  0
 15 14  1  0
 17  7  1  0
 18 16  1  0
 19  1  1  0
 19  2  1  0
 19  9  1  0
 20  3  1  6
 20 10  1  0
 21 11  1  1
 21 12  1  0
 22 13  1  6
 23 14  1  0
 23 20  1  0
 24 15  1  1
 24 22  1  0
 25 16  1  1
 25 22  1  0
 26  4  1  1
 26 17  1  0
 26 21  1  0
 26 25  1  0
 27  5  1  1
 27 18  1  0
 27 23  1  0
 27 24  1  0
M  END
>  <NAME>  (5618) 
5-ALPHA-CHOLESTANE

>  <SYNONYMS>  (5618) 


>  <SPECTRUM TYPE>  (5618) 
MS1

>  <INSTRUMENT TYPE>  (5618) 
EI-B

>  <INSTRUMENT>  (5618) 
SHIMADZU LKB-9000B

>  <ION MODE>  (5618) 
P

>  <INCHIKEY>  (5618) 
XIIAYQZJNBULGD-GZHIZRLSSA-N

>  <FORMULA>  (5618) 
C27H48

>  <EXACT MASS>  (5618) 
372.375601536

>  <MW>  (5618) 
372

>  <ID>  (5618) 
JP002711

>  <CONTRIBUTOR>  (5618) 
University of Tokyo Team, {Faculty of Engineering, University of Tokyo

>  <COMMENT>  (5618) 
SMILES=C(C([H])41)([H])(C(C([H])3CC4)(C)CCCC3)CCC(C)(C(C(C)CCCC(C)C)2)C1([H])CC2
InChI=InChI=1S/C27H48/c1-19(2)9-8-10-20(3)23-14-15-24-22-13-12-21-11-6-7-17-26(21,4)25(22)16-18-27(23,24)5/h19-25H,6-18H2,1-5H3/t20-,21-,22+,23?,24+,25+,26+,27-/m1/s1
computed SMILES=CC(C)CCCC(C)C1CCC2C3CCC4CCCCC4(C)C3CCC12C
accession=JP002711
date=2016.01.19 (Created 2008.10.21, modified 2011.05.06)
author=HAYASHI A, DEPT. OF CHEMISTRY, FAC. OF SCI. AND TECHNOLOGY, KINKI UNIV.
license=CC BY-NC-SA
exact mass=372.3756
ionization energy=70 eV
ion type=[M]+*
computed spectral entropy=3.8453547178789713
computed normalized entropy=0.8032086371065797
SPLASH=splash10-066r-9852000000-3f16668bd0029614e716
submitter=submitter = University of Tokyo Team (Faculty of Engineering, University of Tokyo)
MoNA Rating=3.75

>  <NUM PEAKS>  (5618) 
120

>  <MASS SPECTRAL PEAKS>  (5618) 
53 5.3
54 1.5
55 32.3
56 4.8
57 19.7
58 2.2
59 0.6
65 0.31
66 1.9
67 25.2
68 10.7
69 2.37
70 3.2
71 7.1
72 1.9
75 1.59
76 2.8
77 6.9
78 1.7
79 1.56
80 5.3
81 39.1
82 9.4
83 1.67
84 1.9
85 2
87 0.5
88 0.16
91 9.9
92 2.7
93 20.9
94 0.88
95 40
96 1
97 11
98 0.16
99 1.2
101 1.1
105 8.4
106 0.45
107 15.6
108 18.9
109 39.8
110 0.19
111 4.9
112 1.9
113 1.4
115 0.07
116 1.5
117 2
118 1.4
119 0.37
120 3.5
121 20.4
122 16.7
123 1.99
124 3.1
125 1.2
128 1.4
129 0.22
131 1.3
134 2.5
135 15.6
136 0.56
137 8.8
138 1
143 0.2
145 0.09
146 1.2
147 5.9
148 12.6
149 4.73
150 19
151 11.1
152 1.7
153 0.12
155 1.4
159 1.8
161 4.5
162 0.83
163 7.5
164 2.2
165 0.4
175 0.97
176 0.8
178 0.1
179 0.6
189 0.36
190 1.8
202 1
203 9.4
204 0.22
215 1.2
216 1.3
217 99.99
218 5.7
219 15.2
220 3
221 0.6
223 0.01
231 1.9
232 12.7
233 4.1
247 0.16
251 0.3
257 3.7
258 1.2
259 0.15
262 9.6
263 1.5
266 0.1
295 0.03
315 1.1
354 1.6
357 27.2
358 0.86
370 1.2
372 33.8
373 8.6
374 1.2

$$$$

     RDKit          2D

 33 36  0  0  1  0  0  0  0  0999 V2000
   10.0746    4.6865    0.0000 C   0  0  0  0  0  0  0  0  0  0  0  0
    9.5655    7.2342    0.0000 C   0  0  0  0  0  0  0  0  0  0  0  0
    7.1046    8.0672    0.0000 C   0  0  0  0  0  0  0  0  0  0  0  0
    3.2009    4.6377    0.0000 C   0  0  0  0  0  0  0  0  0  0  0  0
   -6.7926   -5.0947    0.0000 C   0  0  0  0  0  0  0  0  0  0  0  0
   -1.6125    0.9400    0.0000 C   0  0  0  0  0  0  0  0  0  0  0  0
    2.4507    3.1203    0.0000 C   0  0  0  0  0  0  0  0  0  0  0  0
    8.6037    4.3926    0.0000 C   0  0  0  0  0  0  0  0  0  0  0  0
    5.6618    3.8047    0.0000 C   0  0  0  0  0  0  0  0  0  0  0  0
    6.1427    5.2256    0.0000 C   0  0  0  0  0  0  0  0  0  0  0  0
   -0.3200   -2.8400    0.0000 C   0  0  0  0  0  0  0  0  0  0  0  0
    1.0100   -2.0900    0.0000 C   0  0  0  0  0  0  0  0  0  0  0  0
    4.5500    0.8800    0.0000 C   0  0  0  0  0  0  0  0  0  0  0  0
    3.7100   -0.3100    0.0000 C   0  0  0  0  0  0  0  0  0  0  0  0
   -4.2000   -0.5600    0.0000 C   0  0  0  0  0  0  0  0  0  0  0  0
   -0.3200    1.6300    0.0000 C   0  0  0  0  0  0  0  0  0  0  0  0
   -2.8900    0.1600    0.0000 C   0  0  0  0  0  0  0  0  0  0  0  0
    1.0100    2.3900    0.0000 C   0  0  0  0  0  0  0  0  0  0  0  0
   -2.8900   -2.8400    0.0000 C   0  0  0  0  0  0  0  0  0  0  0  0
    8.0946    6.9403    0.0000 C   0  0  0  0  0  0  0  0  0  0  0  0
    4.1909    3.5108    0.0000 C   0  0  0  0  0  0  0  0  0  0  0  0
   -5.4950   -4.3424    0.0000 C   0  0  0  0  0  0  0  0  0  0  0  0
    7.6137    5.5195    0.0000 C   0  0  0  0  0  0  0  0  0  0  0  0
   -1.6200   -2.0900    0.0000 C   0  0  0  0  0  0  0  0  0  0  0  0
   -4.2000   -2.0900    0.0000 C   0  0  0  0  0  0  0  0  0  0  0  0
    1.0100   -0.5600    0.0000 C   0  0  0  0  0  0  0  0  0  0  0  0
    3.7100    2.0900    0.0000 C   0  0  0  0  0  0  0  0  0  0  0  0
    2.2800    0.1600    0.0000 C   0  0  0  0  0  0  0  0  0  0  0  0
   -0.3200    0.1600    0.0000 C   0  0  0  0  0  0  0  0  0  0  0  0
   -1.6200   -0.5600    0.0000 C   0  0  0  0  0  0  0  0  0  0  0  0
    2.2800    1.6300    0.0000 C   0  0  0  0  0  0  0  0  0  0  0  0
   -4.1946   -5.0900    0.0000 O   0  0  0  0  0  0  0  0  0  0  0  0
   -5.4977   -2.8424    0.0000 O   0  0  0  0  0  0  0  0  0  0  0  0
  8  1  1  0
 10  9  1  0
 12 11  1  0
 14 13  1  0
 17 15  1  0
 18 16  1  0
 20  2  1  0
 20  3  1  0
 21  4  1  6
 21  9  1  0
 22  5  1  0
  8 23  2  0
 23 10  1  0
 23 20  1  0
 24 11  2  0
 24 19  1  0
 25 15  1  0
 25 19  1  0
 26 12  1  6
 27 13  1  1
 27 21  1  0
 28 14  1  1
 28 26  1  0
 29 16  1  1
 29 26  1  0
 30  6  1  1
 30 17  1  0
 30 24  1  0
 30 29  1  0
 31  7  1  1
 31 18  1  0
 31 27  1  0
 31 28  1  0
 32 22  2  0
 33 22  1  0
 25 33  1  1
M  END
>  <NAME>  (5619) 
STIGMASTA-5,24(28)-DIEN-3-OL ACETATE

>  <SYNONYMS>  (5619) 
FUCOSTEROL ACETATE

>  <SPECTRUM TYPE>  (5619) 
MS1

>  <INSTRUMENT TYPE>  (5619) 
EI-B

>  <INSTRUMENT>  (5619) 
SHIMADZU LKB-9000B

>  <ION MODE>  (5619) 
P

>  <INCHIKEY>  (5619) 
UKVGAWCNOIELAQ-VXFIQSPPSA-N

>  <FORMULA>  (5619) 
C31H50O2

>  <EXACT MASS>  (5619) 
454.38108084

>  <MW>  (5619) 
454

>  <ID>  (5619) 
JP002710

>  <CONTRIBUTOR>  (5619) 
University of Tokyo Team, {Faculty of Engineering, University of Tokyo

>  <COMMENT>  (5619) 
SMILES=C(C)(=O)OC(C4)CC(C3(C)C4)=CCC(C([H])23)(C(C1)([H])C(CC2)(C(C1)C(C)CCC(=CC)C(C)C)C)[H]
cas=51297-12-2
InChI=InChI=1S/C31H50O2/c1-8-23(20(2)3)10-9-21(4)27-13-14-28-26-12-11-24-19-25(33-22(5)32)15-17-30(24,6)29(26)16-18-31(27,28)7/h8,11,20-21,25-29H,9-10,12-19H2,1-7H3/b23-8-/t21-,25+,26+,27-,28+,29+,30+,31-/m1/s1
computed SMILES=O=C(OC1CC2=CCC3C(CCC4(C)C(CCC34)C(C)CCC(=CC)C(C)C)C2(C)CC1)C
accession=JP002710
date=2016.01.19 (Created 2008.10.21, modified 2011.05.06)
author=HAYASHI A, DEPT. OF CHEMISTRY, FAC. OF SCI. AND TECHNOLOGY, KINKI UNIV.
license=CC BY-NC-SA
exact mass=454.38108
ionization energy=70 eV
ion type=[M]+*
computed spectral entropy=4.475190939947076
computed normalized entropy=0.8627064011526229
SPLASH=splash10-0002-5950000000-75ecb8e883695d41567a
submitter=submitter = University of Tokyo Team (Faculty of Engineering, University of Tokyo)
MoNA Rating=3.75

>  <NUM PEAKS>  (5619) 
179

>  <MASS SPECTRAL PEAKS>  (5619) 
39 2.2
40 1.6
41 13.4
42 2.5
43 20
44 1.7
45 3.4
53 0.41
54 1.2
55 40.6
56 3.4
57 0.48
60 2.2
65 2.3
66 1.1
67 1.54
68 3.7
69 25.7
70 2.9
71 0.3
77 6.5
78 1.7
79 16.8
80 0.26
81 33.1
82 5.9
83 15.4
84 0.22
85 2.1
91 22.8
92 6
93 2.26
94 4.7
95 23.4
96 3.2
97 1.45
98 2.3
103 2.5
104 2.6
105 2.91
106 8.9
107 24.1
108 7.9
109 1.69
110 3.7
111 5.3
115 4.3
116 0.23
117 11.2
118 5.8
119 15.5
120 1.53
121 19.5
122 5.4
123 8.4
124 0.16
125 1.6
127 1.1
128 4.5
129 0.82
130 5
131 17.1
132 5.9
133 1.79
134 6.2
135 11.5
136 2.3
137 0.62
138 3.5
139 1.6
141 4.7
142 0.38
143 17.6
144 7.7
145 33.7
146 1.25
147 23.3
148 7
149 6.7
151 0.19
152 1
153 1.3
154 1.2
155 0.4
156 2.6
157 11.6
158 12.6
159 1.94
160 9.6
161 18.1
162 4.7
163 0.45
164 1.5
165 2.9
167 1.8
169 0.32
170 2.7
171 7.3
172 4.2
173 1.07
174 4
175 10.8
176 3.3
177 0.3
178 1.5
179 1.4
181 1.4
183 0.38
184 1.9
185 7.3
186 3.4
187 0.6
188 4.6
189 7.6
190 2.3
191 0.2
193 1.7
195 1.8
197 7.9
198 0.37
199 9.2
200 3.7
201 4.7
202 2.3
203 3.4
209 1.7
211 10.8
212 4.1
213 2.42
214 8.6
215 4.3
216 1.5
217 0.16
225 3.3
226 2.8
227 8.4
228 1.28
229 5
230 1.1
231 1.1
239 0.38
240 2.3
241 3.4
242 1.6
243 0.36
244 1.1
252 1.5
253 17.8
254 0.81
255 12.8
256 3.4
257 1.6
266 0.11
267 3.1
268 1.9
269 2
271 0.25
272 1.6
273 9.5
274 2.9
281 2.73
282 9
283 5.1
284 1.7
285 0.15
286 3.9
287 2.2
295 2.2
296 99.99
297 27.4
298 3.3
352 2.1
379 1.22
380 4
392 2.4
393 1
394 3.32
395 11.2
396 2.2

$$$$

     RDKit          2D

 31 34  0  0  1  0  0  0  0  0999 V2000
    9.5655    7.2342    0.0000 C   0  0  0  0  0  0  0  0  0  0  0  0
    7.1046    8.0672    0.0000 C   0  0  0  0  0  0  0  0  0  0  0  0
    3.2009    4.6377    0.0000 C   0  0  0  0  0  0  0  0  0  0  0  0
   -6.7926   -5.0947    0.0000 C   0  0  0  0  0  0  0  0  0  0  0  0
   -1.6125    0.9400    0.0000 C   0  0  0  0  0  0  0  0  0  0  0  0
    2.4507    3.1203    0.0000 C   0  0  0  0  0  0  0  0  0  0  0  0
    6.1427    5.2256    0.0000 C   0  0  0  0  0  0  0  0  0  0  0  0
    7.6137    5.5195    0.0000 C   0  0  0  0  0  0  0  0  0  0  0  0
    5.6618    3.8047    0.0000 C   0  0  0  0  0  0  0  0  0  0  0  0
   -0.3200   -2.8400    0.0000 C   0  0  0  0  0  0  0  0  0  0  0  0
    1.0100   -2.0900    0.0000 C   0  0  0  0  0  0  0  0  0  0  0  0
    4.5500    0.8800    0.0000 C   0  0  0  0  0  0  0  0  0  0  0  0
    3.7100   -0.3100    0.0000 C   0  0  0  0  0  0  0  0  0  0  0  0
   -4.2000   -0.5600    0.0000 C   0  0  0  0  0  0  0  0  0  0  0  0
   -0.3200    1.6300    0.0000 C   0  0  0  0  0  0  0  0  0  0  0  0
   -2.8900    0.1600    0.0000 C   0  0  0  0  0  0  0  0  0  0  0  0
    1.0100    2.3900    0.0000 C   0  0  0  0  0  0  0  0  0  0  0  0
   -2.8900   -2.8400    0.0000 C   0  0  0  0  0  0  0  0  0  0  0  0
    8.0946    6.9403    0.0000 C   0  0  0  0  0  0  0  0  0  0  0  0
    4.1909    3.5108    0.0000 C   0  0  0  0  0  0  0  0  0  0  0  0
   -5.4950   -4.3424    0.0000 C   0  0  0  0  0  0  0  0  0  0  0  0
   -1.6200   -2.0900    0.0000 C   0  0  0  0  0  0  0  0  0  0  0  0
   -4.2000   -2.0900    0.0000 C   0  0  0  0  0  0  0  0  0  0  0  0
    1.0100   -0.5600    0.0000 C   0  0  0  0  0  0  0  0  0  0  0  0
    3.7100    2.0900    0.0000 C   0  0  0  0  0  0  0  0  0  0  0  0
    2.2800    0.1600    0.0000 C   0  0  0  0  0  0  0  0  0  0  0  0
   -0.3200    0.1600    0.0000 C   0  0  0  0  0  0  0  0  0  0  0  0
   -1.6200   -0.5600    0.0000 C   0  0  0  0  0  0  0  0  0  0  0  0
    2.2800    1.6300    0.0000 C   0  0  0  0  0  0  0  0  0  0  0  0
   -4.1946   -5.0900    0.0000 O   0  0  0  0  0  0  0  0  0  0  0  0
   -5.4977   -2.8424    0.0000 O   0  0  0  0  0  0  0  0  0  0  0  0
  8  7  1  0
  9  7  1  0
 11 10  1  0
 13 12  1  0
 16 14  1  0
 17 15  1  0
 19  1  1  0
 19  2  1  0
 19  8  1  0
 20  3  1  6
 20  9  1  0
 21  4  1  0
 22 10  1  0
 22 18  1  0
 23 14  1  0
 23 18  1  0
 24 11  1  6
 25 12  1  1
 25 20  1  0
 26 13  1  1
 26 24  1  0
 27 15  1  1
 27 24  1  0
 28  5  1  1
 28 16  1  0
 28 22  1  0
 28 27  1  0
 29  6  1  1
 29 17  1  0
 29 25  1  0
 29 26  1  0
 30 21  2  0
 31 21  1  0
 23 31  1  1
M  END
>  <NAME>  (5620) 
DIHYDROCHOLESTEROL ACETATE

>  <SYNONYMS>  (5620) 


>  <SPECTRUM TYPE>  (5620) 
MS1

>  <INSTRUMENT TYPE>  (5620) 
EI-B

>  <INSTRUMENT>  (5620) 
SHIMADZU LKB-9000B

>  <ION MODE>  (5620) 
P

>  <INCHIKEY>  (5620) 
PHLIUSDPFOUISN-AQHAWAMTSA-N

>  <FORMULA>  (5620) 
C29H50O2

>  <EXACT MASS>  (5620) 
430.38108084

>  <MW>  (5620) 
430

>  <ID>  (5620) 
JP002709

>  <CONTRIBUTOR>  (5620) 
University of Tokyo Team, {Faculty of Engineering, University of Tokyo

>  <COMMENT>  (5620) 
SMILES=CC(C4([H])C([H])(C)CCCC(C)C)(C([H])1CC4)CCC(C(C)32)(C([H])(CCC2CC(OC(C)=O)(CC3)[H])1)[H]
InChI=InChI=1S/C29H50O2/c1-19(2)8-7-9-20(3)25-12-13-26-24-11-10-22-18-23(31-21(4)30)14-16-28(22,5)27(24)15-17-29(25,26)6/h19-20,22-27H,7-18H2,1-6H3/t20-,22?,23+,24+,25-,26+,27+,28+,29-/m1/s1
computed SMILES=O=C(OC1CCC2(C)C(CCC3C4CCC(C(C)CCCC(C)C)C4(C)CCC32)C1)C
accession=JP002709
license=CC BY-NC-SA
exact mass=430.38108
date=2016.01.19 (Created 2008.10.21, modified 2011.05.06)
author=HAYASHI A, DEPT. OF CHEMISTRY, FAC. OF SCI. AND TECHNOLOGY, KINKI UNIV.
ionization energy=70 eV
ion type=[M]+*
computed spectral entropy=4.336345660261609
computed normalized entropy=0.8414710444275204
SPLASH=splash10-014i-3982000000-c902c00ef807c3a99307
submitter=submitter = University of Tokyo Team (Faculty of Engineering, University of Tokyo)
MoNA Rating=3.75

>  <NUM PEAKS>  (5620) 
173

>  <MASS SPECTRAL PEAKS>  (5620) 
44 1.4
55 4.1
56 1.3
58 4.5
66 1.2
67 9.8
68 2.3
69 0.48
70 1.4
71 4.3
77 4.1
79 1.33
80 3.3
81 18.3
82 3.4
83 0.48
91 12.8
92 5.1
93 20.1
94 0.72
95 20.1
96 3.2
97 5.3
103 0.22
104 3.9
105 15.4
106 12.8
107 2.83
108 16.8
109 16.5
110 2.7
111 0.74
115 2.6
117 4.4
118 3.1
119 1.47
120 9.1
121 18.4
122 7.4
123 1.44
124 3
125 1.8
127 2.4
128 0.27
129 1.8
130 1.5
131 6.9
132 0.32
133 14.8
134 9.1
135 15.9
136 0.56
137 3.7
138 1.3
139 1.8
141 0.22
142 1.6
143 2.7
144 1.4
145 1.3
146 6.1
147 35.3
148 11.3
149 1.2
150 1.7
151 3.1
152 1.5
153 0.19
155 1.4
157 1.2
158 1.5
159 0.95
160 8.7
161 19.5
162 11.6
163 0.66
164 1.5
165 1.5
167 1.8
169 0.17
171 1.8
173 8.9
174 4.9
175 0.93
176 10.9
177 4.5
178 1.9
179 0.11
181 1.3
183 1.3
185 1.4
187 0.61
188 6.6
189 5.1
190 2.1
191 0.17
194 1.5
195 3
197 3.7
199 0.15
201 23.1
202 7.8
203 12.5
204 0.28
205 2.7
206 2.2
212 1.6
213 0.24
214 1.6
215 99.99
216 46.7
217 2.42
218 3
219 1.4
220 1.8
221 0.19
229 5.1
230 24.2
231 9.3
232 0.23
234 1.5
241 2.9
243 2.1
244 1.9
245 2.8
246 1.3
247 4.5
248 0.28
249 1.4
255 2.6
256 3
257 1.75
258 4.2
260 2.7
261 5.3
262 0.9
263 3.5
274 3.2
275 22.5
276 1.84
277 3.6
283 1.6
285 2.8
287 0.24
288 2
290 3
291 1.2
299 0.15
301 4.4
315 4.3
316 8.6
317 2
328 0.2
330 1.3
342 1.2
343 1.8
353 0.15
355 32.9
356 10.6
357 1.9
368 0.25
369 1.8
370 30.7
371 10.4
373 0.13
394 1.4
396 1.5
401 1.5
415 0.39
416 1.3
430 9.9
431 2
432 0.38

$$$$

     RDKit          2D

 31 34  0  0  1  0  0  0  0  0999 V2000
    9.5655    7.2342    0.0000 C   0  0  0  0  0  0  0  0  0  0  0  0
    7.1046    8.0672    0.0000 C   0  0  0  0  0  0  0  0  0  0  0  0
    3.2009    4.6377    0.0000 C   0  0  0  0  0  0  0  0  0  0  0  0
   -6.7926   -5.0947    0.0000 C   0  0  0  0  0  0  0  0  0  0  0  0
   -1.6125    0.9400    0.0000 C   0  0  0  0  0  0  0  0  0  0  0  0
    2.4507    3.1203    0.0000 C   0  0  0  0  0  0  0  0  0  0  0  0
    6.1427    5.2256    0.0000 C   0  0  0  0  0  0  0  0  0  0  0  0
    7.6137    5.5195    0.0000 C   0  0  0  0  0  0  0  0  0  0  0  0
    5.6618    3.8047    0.0000 C   0  0  0  0  0  0  0  0  0  0  0  0
   -0.3200   -2.8400    0.0000 C   0  0  0  0  0  0  0  0  0  0  0  0
    1.0100   -2.0900    0.0000 C   0  0  0  0  0  0  0  0  0  0  0  0
    4.5500    0.8800    0.0000 C   0  0  0  0  0  0  0  0  0  0  0  0
    3.7100   -0.3100    0.0000 C   0  0  0  0  0  0  0  0  0  0  0  0
   -4.2000   -0.5600    0.0000 C   0  0  0  0  0  0  0  0  0  0  0  0
   -0.3200    1.6300    0.0000 C   0  0  0  0  0  0  0  0  0  0  0  0
   -2.8900    0.1600    0.0000 C   0  0  0  0  0  0  0  0  0  0  0  0
    1.0100    2.3900    0.0000 C   0  0  0  0  0  0  0  0  0  0  0  0
   -2.8900   -2.8400    0.0000 C   0  0  0  0  0  0  0  0  0  0  0  0
    8.0946    6.9403    0.0000 C   0  0  0  0  0  0  0  0  0  0  0  0
    4.1909    3.5108    0.0000 C   0  0  0  0  0  0  0  0  0  0  0  0
   -5.4950   -4.3424    0.0000 C   0  0  0  0  0  0  0  0  0  0  0  0
   -1.6200   -2.0900    0.0000 C   0  0  0  0  0  0  0  0  0  0  0  0
   -4.2000   -2.0900    0.0000 C   0  0  0  0  0  0  0  0  0  0  0  0
    1.0100   -0.5600    0.0000 C   0  0  0  0  0  0  0  0  0  0  0  0
    3.7100    2.0900    0.0000 C   0  0  0  0  0  0  0  0  0  0  0  0
    2.2800    0.1600    0.0000 C   0  0  0  0  0  0  0  0  0  0  0  0
   -0.3200    0.1600    0.0000 C   0  0  0  0  0  0  0  0  0  0  0  0
   -1.6200   -0.5600    0.0000 C   0  0  0  0  0  0  0  0  0  0  0  0
    2.2800    1.6300    0.0000 C   0  0  0  0  0  0  0  0  0  0  0  0
   -4.1946   -5.0900    0.0000 O   0  0  0  0  0  0  0  0  0  0  0  0
   -5.4977   -2.8424    0.0000 O   0  0  0  0  0  0  0  0  0  0  0  0
  8  7  1  0
  9  7  1  0
 11 10  1  0
 13 12  1  0
 16 14  1  0
 17 15  1  0
 19  1  1  0
 19  2  1  0
 19  8  1  0
 20  3  1  6
 20  9  1  0
 21  4  1  0
 22 10  2  0
 22 18  1  0
 23 14  1  0
 23 18  1  0
 24 11  1  6
 25 12  1  1
 25 20  1  0
 26 13  1  1
 26 24  1  0
 27 15  1  1
 27 24  1  0
 28  5  1  1
 28 16  1  0
 28 22  1  0
 28 27  1  0
 29  6  1  1
 29 17  1  0
 29 25  1  0
 29 26  1  0
 30 21  2  0
 31 21  1  0
 23 31  1  1
M  END
>  <NAME>  (5621) 
CHOLESTEROL ACETATE

>  <SYNONYMS>  (5621) 


>  <SPECTRUM TYPE>  (5621) 
MS1

>  <INSTRUMENT TYPE>  (5621) 
EI-B

>  <INSTRUMENT>  (5621) 
SHIMADZU LKB-9000B

>  <ION MODE>  (5621) 
P

>  <INCHIKEY>  (5621) 
XUGISPSHIFXEHZ-VEVYEIKRSA-N

>  <FORMULA>  (5621) 
C29H48O2

>  <EXACT MASS>  (5621) 
428.365430776

>  <MW>  (5621) 
428

>  <ID>  (5621) 
JP002708

>  <CONTRIBUTOR>  (5621) 
University of Tokyo Team, {Faculty of Engineering, University of Tokyo

>  <COMMENT>  (5621) 
SMILES=CC(C4([H])C([H])(C)CCCC(C)C)(C([H])1CC4)CCC(C(C)32)(C([H])(CC=C2CC(OC(C)=O)(CC3)[H])1)[H]
cas=604-35-3
InChI=InChI=1S/C29H48O2/c1-19(2)8-7-9-20(3)25-12-13-26-24-11-10-22-18-23(31-21(4)30)14-16-28(22,5)27(24)15-17-29(25,26)6/h10,19-20,23-27H,7-9,11-18H2,1-6H3/t20-,23+,24+,25-,26+,27+,28+,29-/m1/s1
computed SMILES=O=C(OC1CC2=CCC3C(CCC4(C)C(CCC34)C(C)CCCC(C)C)C2(C)CC1)C
accession=JP002708
date=2016.01.19 (Created 2008.10.21, modified 2011.05.06)
author=HAYASHI A, DEPT. OF CHEMISTRY, FAC. OF SCI. AND TECHNOLOGY, KINKI UNIV.
license=CC BY-NC-SA
exact mass=428.36543
ionization energy=70 eV
ion type=[M]+*
computed spectral entropy=4.423821981660934
computed normalized entropy=0.8456758032909922
SPLASH=splash10-014i-2933000000-06a568c5715ce75a703d
submitter=submitter = University of Tokyo Team (Faculty of Engineering, University of Tokyo)
MoNA Rating=3.75

>  <NUM PEAKS>  (5621) 
187

>  <MASS SPECTRAL PEAKS>  (5621) 
44 1.5
56 4.2
57 4.1
60 1
65 1
67 7.1
69 6.1
71 0.49
77 4.4
78 1.8
79 10.3
80 0.18
81 21
82 2.6
83 5.2
85 0.1
91 19.9
92 5.8
93 18.2
94 0.47
95 19.2
96 2.1
97 4.8
103 0.22
104 2.7
105 28.5
106 9.9
107 2.58
108 8.7
109 14
110 2.3
111 0.41
113 1
115 4.7
116 2.8
117 1.28
118 7.7
119 18.6
120 18.6
121 2.23
122 5.7
123 8.4
124 1.3
125 0.21
127 2.5
128 6.8
129 10.8
130 0.56
131 20.8
132 6.1
133 23.7
134 0.71
135 19.9
136 3.6
137 4.1
138 0.1
139 1.3
141 5.1
142 5.6
143 2.07
144 9.7
145 51.1
146 17.7
147 5.36
148 11.9
149 13.6
150 1.4
151 0.39
152 1.8
153 2.1
154 1.2
155 0.54
156 3.2
157 12.5
158 11.6
159 3.06
160 19.5
161 19.9
162 5.6
163 1.17
164 1.9
165 3.6
166 1.5
167 0.14
168 1.7
169 3.3
170 1.7
171 0.86
172 4.2
173 11.6
174 4.8
175 0.69
176 1.8
177 4.3
178 1.6
179 0.27
181 1.1
182 1
183 2.7
184 0.14
185 9.2
186 4
187 5.1
188 0.15
189 2.4
191 5
192 1.6
193 0.48
194 1.5
195 1.4
197 4.7
198 0.18
199 11.4
200 6.4
201 9
202 0.23
203 1.4
204 1.1
205 7.4
206 0.66
207 2.4
209 1
211 2.6
212 2.1
213 32.4
214 10
215 5.5
216 0.19
217 1.5
219 3.2
220 1.4
225 0.11
226 1.2
227 5
228 8.2
229 0.57
230 1.3
231 1.6
232 1.1
233 0.17
239 1.5
240 1.1
241 3.4
242 0.12
243 1.2
245 6.3
246 5.9
247 4.71
248 11.5
249 1.8
251 1.5
253 0.16
254 1.1
255 35.9
256 8.8
257 0.13
258 1.4
259 4.5
260 25.5
261 0.91
262 1.7
273 1.5
274 3.3
275 0.28
283 4
284 1.7
287 1
297 0.11
314 4
315 1.7
325 1
326 0.46
327 1.4
338 1.1
339 2.3
340 0.18
351 1.5
352 1.2
353 43
354 1.25
355 2.2
364 1.3
366 4.3
367 0.29
368 99.99
369 31.8
370 4.9

$$$$

     RDKit          2D

 33 36  0  0  1  0  0  0  0  0999 V2000
    9.5655    7.2342    0.0000 C   0  0  0  0  0  0  0  0  0  0  0  0
   10.0746    4.6865    0.0000 C   0  0  0  0  0  0  0  0  0  0  0  0
    8.1228    2.9718    0.0000 C   0  0  0  0  0  0  0  0  0  0  0  0
    3.2009    4.6377    0.0000 C   0  0  0  0  0  0  0  0  0  0  0  0
   -8.0957   -2.8471    0.0000 C   0  0  0  0  0  0  0  0  0  0  0  0
   -1.6125    0.9400    0.0000 C   0  0  0  0  0  0  0  0  0  0  0  0
    2.4507    3.1203    0.0000 C   0  0  0  0  0  0  0  0  0  0  0  0
    8.0946    6.9403    0.0000 C   0  0  0  0  0  0  0  0  0  0  0  0
    5.6618    3.8047    0.0000 C   0  0  0  0  0  0  0  0  0  0  0  0
    6.1427    5.2256    0.0000 C   0  0  0  0  0  0  0  0  0  0  0  0
   -0.3200   -2.8400    0.0000 C   0  0  0  0  0  0  0  0  0  0  0  0
    1.0100   -2.0900    0.0000 C   0  0  0  0  0  0  0  0  0  0  0  0
    4.5500    0.8800    0.0000 C   0  0  0  0  0  0  0  0  0  0  0  0
    3.7100   -0.3100    0.0000 C   0  0  0  0  0  0  0  0  0  0  0  0
   -4.2000   -0.5600    0.0000 C   0  0  0  0  0  0  0  0  0  0  0  0
   -0.3200    1.6300    0.0000 C   0  0  0  0  0  0  0  0  0  0  0  0
   -2.8900    0.1600    0.0000 C   0  0  0  0  0  0  0  0  0  0  0  0
    1.0100    2.3900    0.0000 C   0  0  0  0  0  0  0  0  0  0  0  0
   -2.8900   -2.8400    0.0000 C   0  0  0  0  0  0  0  0  0  0  0  0
    8.6037    4.3926    0.0000 C   0  0  0  0  0  0  0  0  0  0  0  0
    4.1909    3.5108    0.0000 C   0  0  0  0  0  0  0  0  0  0  0  0
   -6.7981   -2.0947    0.0000 C   0  0  0  0  0  0  0  0  0  0  0  0
    7.6137    5.5195    0.0000 C   0  0  0  0  0  0  0  0  0  0  0  0
   -1.6200   -2.0900    0.0000 C   0  0  0  0  0  0  0  0  0  0  0  0
   -4.2000   -2.0900    0.0000 C   0  0  0  0  0  0  0  0  0  0  0  0
    1.0100   -0.5600    0.0000 C   0  0  0  0  0  0  0  0  0  0  0  0
    3.7100    2.0900    0.0000 C   0  0  0  0  0  0  0  0  0  0  0  0
    2.2800    0.1600    0.0000 C   0  0  0  0  0  0  0  0  0  0  0  0
   -0.3200    0.1600    0.0000 C   0  0  0  0  0  0  0  0  0  0  0  0
   -1.6200   -0.5600    0.0000 C   0  0  0  0  0  0  0  0  0  0  0  0
    2.2800    1.6300    0.0000 C   0  0  0  0  0  0  0  0  0  0  0  0
   -6.8008   -0.5947    0.0000 O   0  0  0  0  0  0  0  0  0  0  0  0
   -5.4977   -2.8424    0.0000 O   0  0  0  0  0  0  0  0  0  0  0  0
  8  1  1  0
  9 10  2  0
 12 11  1  0
 14 13  1  0
 17 15  1  0
 18 16  1  0
 20  2  1  0
 20  3  1  0
 21  4  1  6
 21  9  1  0
 22  5  1  0
 23  8  1  1
 23 10  1  0
 23 20  1  0
 24 11  2  0
 24 19  1  0
 25 15  1  0
 25 19  1  0
 26 12  1  6
 27 13  1  1
 27 21  1  0
 28 14  1  1
 28 26  1  0
 29 16  1  1
 29 26  1  0
 30  6  1  1
 30 17  1  0
 30 24  1  0
 30 29  1  0
 31  7  1  1
 31 18  1  0
 31 27  1  0
 31 28  1  0
 32 22  2  0
 33 22  1  0
 25 33  1  1
M  END
>  <NAME>  (5622) 
STIGMASTEROL ACETATE

>  <SYNONYMS>  (5622) 


>  <SPECTRUM TYPE>  (5622) 
MS1

>  <INSTRUMENT TYPE>  (5622) 
EI-B

>  <INSTRUMENT>  (5622) 
SHIMADZU LKB-9000B

>  <ION MODE>  (5622) 
P

>  <INCHIKEY>  (5622) 
IZEUIYYDWBKERE-ZRODXFKISA-N

>  <FORMULA>  (5622) 
C31H50O2

>  <EXACT MASS>  (5622) 
454.38108084

>  <MW>  (5622) 
454

>  <ID>  (5622) 
JP002707

>  <CONTRIBUTOR>  (5622) 
University of Tokyo Team, {Faculty of Engineering, University of Tokyo

>  <COMMENT>  (5622) 
SMILES=C(C31[H])CC(C4(C(C=CC([H])(C(C)C)CC)([H])C)[H])(C(CC4)(C1([H])CC=C(C3(C)2)CC([H])(CC2)OC(C)=O)[H])C
cas=4651-48-3
InChI=InChI=1S/C31H50O2/c1-8-23(20(2)3)10-9-21(4)27-13-14-28-26-12-11-24-19-25(33-22(5)32)15-17-30(24,6)29(26)16-18-31(27,28)7/h9-11,20-21,23,25-29H,8,12-19H2,1-7H3/b10-9+/t21-,23-,25+,26+,27-,28+,29+,30+,31-/m1/s1
computed SMILES=O=C(OC1CC2=CCC3C(CCC4(C)C(CCC34)C(C=CC(CC)C(C)C)C)C2(C)CC1)C
accession=JP002707
license=CC BY-NC-SA
date=2016.01.19 (Created 2008.10.21, modified 2011.05.06)
author=HAYASHI A, DEPT. OF CHEMISTRY, FAC. OF SCI. AND TECHNOLOGY, KINKI UNIV.
exact mass=454.38108
ionization energy=70 eV
ion type=[M]+*
computed spectral entropy=4.6063946217883975
computed normalized entropy=0.8787899546762052
SPLASH=splash10-0a5d-2941000000-fa32bee1c748134fcc58
submitter=submitter = University of Tokyo Team (Faculty of Engineering, University of Tokyo)
MoNA Rating=3.75

>  <NUM PEAKS>  (5622) 
189

>  <MASS SPECTRAL PEAKS>  (5622) 
56 17.3
58 3.6
67 13.7
69 27.6
71 5.4
77 8.6
78 4.5
79 2.13
80 3.1
81 41.8
82 6.8
83 4.43
84 6.9
91 30.9
92 7.4
93 3.01
94 3.6
95 29.2
96 7.2
97 2.62
98 4.1
103 4.6
104 3.9
105 3.9
106 9.8
107 32.6
108 5.5
109 2.32
110 5.6
111 5.3
115 9.3
116 0.55
117 15.2
118 8.1
119 23.2
120 1.49
121 30
122 7.8
123 17.9
124 0.35
127 4.4
128 12.5
129 17.7
130 0.75
131 26.3
132 8.3
133 43.2
134 0.98
135 25.6
136 3.4
137 9
138 0.47
139 14.2
140 3.6
141 9.2
142 1.04
143 31.3
144 10.7
145 58.3
146 2.54
147 38.1
148 9.9
149 7.7
151 0.31
152 1
153 5
154 2
155 1.05
156 3.5
157 26.5
158 17.7
159 5.18
160 14.4
161 32.5
162 6.8
163 0.86
165 5.4
166 5.7
167 1.5
168 0.38
169 9.3
170 4.4
171 13.5
172 0.64
173 22.3
174 7.6
175 15
176 0.51
177 5.9
178 5
179 1.9
180 0.31
181 2
182 3.3
183 7.4
184 0.39
185 13.3
186 5
187 11.2
188 0.48
189 9.4
190 3.6
191 3.1
192 0.36
193 2.1
194 4.1
195 2.6
196 0.18
197 15.8
198 4
199 16.9
200 0.67
201 12
202 4.5
203 4
205 0.55
209 1.6
210 3.6
211 11.6
212 0.89
213 31.7
214 11.3
215 8.8
217 3.9
218 2.6
219 1.2
223 2.5
225 0.68
226 5.5
227 10.4
228 20.7
229 0.83
231 3.8
233 3.4
235 3.2
237 0.33
239 7.6
240 5.9
241 7
243 0.55
245 5.7
251 5.6
252 4.9
253 2.15
254 16.7
255 99.99
256 25.8
257 0.46
259 2.1
267 8
268 3.6
269 0.33
270 4.1
271 6
273 7.4
281 0.8
282 18.3
283 12.2
284 3.6
285 0.12
286 5.2
295 5.1
296 6.4
297 0.31
309 3.6
313 1.8
314 4.3
315 0.33
316 2.9
318 1.7
328 3.3
341 0.45
343 3.3
351 26.7
352 9.7
365 0.34
373 1.4
375 1.7
378 3.5
379 1.37
380 5
390 4.7
391 5.1
392 1.07
393 3.9
394 73.8
395 25.1
396 0.66
454 1.8

$$$$

     RDKit          2D

 31 34  0  0  1  0  0  0  0  0999 V2000
    9.5655    7.2342    0.0000 C   0  0  0  0  0  0  0  0  0  0  0  0
   10.0746    4.6865    0.0000 C   0  0  0  0  0  0  0  0  0  0  0  0
    8.1228    2.9718    0.0000 C   0  0  0  0  0  0  0  0  0  0  0  0
    3.2009    4.6377    0.0000 C   0  0  0  0  0  0  0  0  0  0  0  0
   -1.6125    0.9400    0.0000 C   0  0  0  0  0  0  0  0  0  0  0  0
    2.4507    3.1203    0.0000 C   0  0  0  0  0  0  0  0  0  0  0  0
   -6.7981   -2.0947    0.0000 C   0  0  0  0  0  0  0  0  0  0  0  0
    8.0946    6.9403    0.0000 C   0  0  0  0  0  0  0  0  0  0  0  0
    5.6618    3.8047    0.0000 C   0  0  0  0  0  0  0  0  0  0  0  0
    6.1427    5.2256    0.0000 C   0  0  0  0  0  0  0  0  0  0  0  0
   -0.3200   -2.8400    0.0000 C   0  0  0  0  0  0  0  0  0  0  0  0
    1.0100   -2.0900    0.0000 C   0  0  0  0  0  0  0  0  0  0  0  0
    4.5500    0.8800    0.0000 C   0  0  0  0  0  0  0  0  0  0  0  0
    3.7100   -0.3100    0.0000 C   0  0  0  0  0  0  0  0  0  0  0  0
   -4.2000   -0.5600    0.0000 C   0  0  0  0  0  0  0  0  0  0  0  0
   -0.3200    1.6300    0.0000 C   0  0  0  0  0  0  0  0  0  0  0  0
   -2.8900    0.1600    0.0000 C   0  0  0  0  0  0  0  0  0  0  0  0
    1.0100    2.3900    0.0000 C   0  0  0  0  0  0  0  0  0  0  0  0
   -2.8900   -2.8400    0.0000 C   0  0  0  0  0  0  0  0  0  0  0  0
    8.6037    4.3926    0.0000 C   0  0  0  0  0  0  0  0  0  0  0  0
    4.1909    3.5108    0.0000 C   0  0  0  0  0  0  0  0  0  0  0  0
    7.6137    5.5195    0.0000 C   0  0  0  0  0  0  0  0  0  0  0  0
   -1.6200   -2.0900    0.0000 C   0  0  0  0  0  0  0  0  0  0  0  0
   -4.2000   -2.0900    0.0000 C   0  0  0  0  0  0  0  0  0  0  0  0
    1.0100   -0.5600    0.0000 C   0  0  0  0  0  0  0  0  0  0  0  0
    3.7100    2.0900    0.0000 C   0  0  0  0  0  0  0  0  0  0  0  0
    2.2800    0.1600    0.0000 C   0  0  0  0  0  0  0  0  0  0  0  0
   -0.3200    0.1600    0.0000 C   0  0  0  0  0  0  0  0  0  0  0  0
   -1.6200   -0.5600    0.0000 C   0  0  0  0  0  0  0  0  0  0  0  0
    2.2800    1.6300    0.0000 C   0  0  0  0  0  0  0  0  0  0  0  0
   -5.4977   -2.8424    0.0000 O   0  0  0  0  0  0  0  0  0  0  0  0
  8  1  1  0
 10  9  1  0
 12 11  1  0
 14 13  1  0
 17 15  1  0
 18 16  1  0
 20  2  1  0
 20  3  1  0
 21  4  1  6
 21  9  1  0
 22  8  1  1
 22 10  1  0
 22 20  1  0
 23 11  2  0
 23 19  1  0
 24 15  1  0
 24 19  1  0
 25 12  1  6
 26 13  1  1
 26 21  1  0
 27 14  1  1
 27 25  1  0
 28 16  1  1
 28 25  1  0
 29  5  1  1
 29 17  1  0
 29 23  1  0
 29 28  1  0
 30  6  1  1
 30 18  1  0
 30 26  1  0
 30 27  1  0
 31  7  1  0
 24 31  1  1
M  END
>  <NAME>  (5623) 
BETA-SITOSTEROL-METHYL ETHER

>  <SYNONYMS>  (5623) 


>  <SPECTRUM TYPE>  (5623) 
MS1

>  <INSTRUMENT TYPE>  (5623) 
EI-B

>  <INSTRUMENT>  (5623) 
SHIMADZU LKB-9000B

>  <ION MODE>  (5623) 
P

>  <INCHIKEY>  (5623) 
LOUBEXGURAKLSL-VHZNKUSHSA-N

>  <FORMULA>  (5623) 
C30H52O

>  <EXACT MASS>  (5623) 
428.40181628399995

>  <MW>  (5623) 
428

>  <ID>  (5623) 
JP002706

>  <CONTRIBUTOR>  (5623) 
University of Tokyo Team, {Faculty of Engineering, University of Tokyo

>  <COMMENT>  (5623) 
SMILES=CC(C4(C(CCC([H])(C(C)C)CC)([H])C)[H])(C1)C(CC4)(C(C3)(C(C(C2)(C(=C3[H])CC(C2)(OC)[H])C)(C1)[H])[H])[H]
InChI=InChI=1S/C30H52O/c1-8-22(20(2)3)10-9-21(4)26-13-14-27-25-12-11-23-19-24(31-7)15-17-29(23,5)28(25)16-18-30(26,27)6/h11,20-22,24-28H,8-10,12-19H2,1-7H3/t21-,22-,24+,25+,26-,27+,28+,29+,30-/m1/s1
computed SMILES=O(C)C1CC2=CCC3C(CCC4(C)C(CCC34)C(C)CCC(CC)C(C)C)C2(C)CC1
accession=JP002706
date=2016.01.19 (Created 2008.10.21, modified 2011.05.06)
author=HAYASHI A, DEPT. OF CHEMISTRY, FAC. OF SCI. AND TECHNOLOGY, KINKI UNIV.
license=CC BY-NC-SA
exact mass=428.40182
ionization energy=70 eV
ion type=[M]+*
computed spectral entropy=4.870885357063692
computed normalized entropy=0.8747456903526154
SPLASH=splash10-05ai-5932000000-5f2a2346b2903ef24f15
submitter=submitter = University of Tokyo Team (Faculty of Engineering, University of Tokyo)
MoNA Rating=3.75

>  <NUM PEAKS>  (5623) 
262

>  <MASS SPECTRAL PEAKS>  (5623) 
39 2.4
41 26.5
42 4.3
43 52.7
44 2.3
45 4.4
52 2.2
53 0.51
55 44
56 3.3
57 36.9
58 0.36
59 1.7
63 1.7
65 3.2
66 0.24
67 28.2
68 4.1
69 31.8
70 0.42
71 49.1
72 3.7
73 6.2
75 0.18
77 10.8
78 3.9
79 32.2
80 0.62
81 53.4
82 7.7
83 16.2
84 0.48
85 27.8
86 3.1
91 39.4
92 1.06
93 44.6
94 11
95 54.5
96 0.66
97 24.3
98 4.4
99 6.8
103 0.4
104 4.5
105 51.9
106 18.4
107 6.89
108 20.7
109 35
110 6.4
111 2.08
112 2.8
113 2.8
115 6.1
116 0.41
117 17.8
118 10
119 46.4
120 3.41
121 47.6
122 12.1
123 20.5
124 0.53
125 7.7
127 2.7
128 5.5
129 1.2
130 6.6
131 31.2
132 13.4
133 4.32
134 14.1
135 33.1
136 10.9
137 1.18
138 10.4
139 10.2
140 1.6
141 0.63
142 4.8
143 21.7
144 10.4
145 6.12
146 20.5
147 42.1
148 14.5
149 2.14
150 4.9
151 7.4
152 3.4
153 0.27
154 2.1
155 5.4
156 3.9
157 1.58
158 16.4
159 48.5
160 33.5
161 4.36
162 12
163 26.7
164 5.1
165 0.56
166 2.2
167 2
169 3.2
170 0.18
171 13.7
172 7.5
173 29.4
174 1.05
175 13.3
176 4
177 14.3
178 0.37
179 10.1
180 3.6
181 2.3
183 0.38
184 1.8
185 14.3
186 7.5
187 15.1
188 5
189 11.1
190 5.9
191 1.12
192 7.9
193 5.1
194 1.9
195 0.21
197 5.4
198 2.6
199 20.7
200 0.79
201 14.6
202 4.8
203 6.5
204 0.22
205 8
206 2.4
209 1.6
210 0.17
211 3.1
212 2.8
213 48.7
214 1.45
215 34.4
216 11.8
217 12.4
218 0.27
219 4.3
220 1.8
221 4.4
225 0.19
226 1.4
227 10.9
228 14.4
229 1.33
230 5.6
231 4.7
232 1.7
233 0.54
234 4.5
235 3.9
239 2.8
240 0.17
241 7.6
242 3
243 2
244 0.18
245 9.5
246 3.6
247 15.4
248 0.93
249 2.6
253 4.5
254 2.9
255 4.76
256 12.2
257 5.2
258 2
259 0.32
260 3.4
261 5.5
262 3.4
269 0.27
271 2.6
273 4.9
274 5.5
275 2.69
276 6.6
277 1.6
281 1.8
283 0.63
284 2.5
285 3.8
286 2.6
287 1.19
288 7.6
289 3.3
290 4.1
297 0.22
299 1.7
301 2.8
302 10
303 3.29
304 9.5
305 1.3
313 1.9
314 0.17
316 1.2
317 1.4
327 2.6
328 0.39
329 27.2
330 7.4
331 1.8
339 0.36
340 1
341 4.3
342 3.9
343 0.25
351 1.4
352 1.5
353 4.3
354 2.42
355 13
356 6.8
357 29.7
358 0.96
359 1.9
366 2.4
367 5.9
368 0.62
369 2.4
371 1.7
373 4.6
374 0.15
379 1.8
381 68.5
382 22.3
383 8.9
384 2.4
385 1.7
386 2.7
394 0.33
395 3.3
398 7.7
399 3.4
400 3
413 2.18
414 7.5
415 5.1
417 1.4
426 0.3
427 2.2
428 27
429 8.8
430 0.66
431 2.5

$$$$

     RDKit          2D

 31 34  0  0  1  0  0  0  0  0999 V2000
   10.0746    4.6865    0.0000 C   0  0  0  0  0  0  0  0  0  0  0  0
    5.6618    3.8047    0.0000 C   0  0  0  0  0  0  0  0  0  0  0  0
    5.1527    6.3525    0.0000 C   0  0  0  0  0  0  0  0  0  0  0  0
    9.0564    9.7820    0.0000 C   0  0  0  0  0  0  0  0  0  0  0  0
   13.3432   14.0791    0.0000 C   0  0  0  0  0  0  0  0  0  0  0  0
   10.6578   10.3305    0.0000 C   0  0  0  0  0  0  0  0  0  0  0  0
   19.0815   17.2489    0.0000 C   0  0  0  0  0  0  0  0  0  0  0  0
    8.6037    4.3926    0.0000 C   0  0  0  0  0  0  0  0  0  0  0  0
    9.5655    7.2342    0.0000 C   0  0  0  0  0  0  0  0  0  0  0  0
    8.0946    6.9403    0.0000 C   0  0  0  0  0  0  0  0  0  0  0  0
   16.9253   12.3105    0.0000 C   0  0  0  0  0  0  0  0  0  0  0  0
   16.0102   11.0882    0.0000 C   0  0  0  0  0  0  0  0  0  0  0  0
   12.6091    7.9602    0.0000 C   0  0  0  0  0  0  0  0  0  0  0  0
   13.8973    8.6399    0.0000 C   0  0  0  0  0  0  0  0  0  0  0  0
   15.1639   16.4519    0.0000 C   0  0  0  0  0  0  0  0  0  0  0  0
   12.4925   12.8862    0.0000 C   0  0  0  0  0  0  0  0  0  0  0  0
   14.2812   15.2455    0.0000 C   0  0  0  0  0  0  0  0  0  0  0  0
   11.5675   11.6651    0.0000 C   0  0  0  0  0  0  0  0  0  0  0  0
   17.2562   14.8591    0.0000 C   0  0  0  0  0  0  0  0  0  0  0  0
    6.1427    5.2256    0.0000 C   0  0  0  0  0  0  0  0  0  0  0  0
   10.0464    8.6551    0.0000 C   0  0  0  0  0  0  0  0  0  0  0  0
    7.6137    5.5195    0.0000 C   0  0  0  0  0  0  0  0  0  0  0  0
   16.3489   13.6963    0.0000 C   0  0  0  0  0  0  0  0  0  0  0  0
   16.6812   16.2548    0.0000 C   0  0  0  0  0  0  0  0  0  0  0  0
   14.4930   11.2852    0.0000 C   0  0  0  0  0  0  0  0  0  0  0  0
   11.5173    8.9490    0.0000 C   0  0  0  0  0  0  0  0  0  0  0  0
   13.6154   10.1185    0.0000 C   0  0  0  0  0  0  0  0  0  0  0  0
   13.9502   12.6969    0.0000 C   0  0  0  0  0  0  0  0  0  0  0  0
   14.8317   13.8933    0.0000 C   0  0  0  0  0  0  0  0  0  0  0  0
   12.1576   10.3078    0.0000 C   0  0  0  0  0  0  0  0  0  0  0  0
   17.5944   17.4448    0.0000 O   0  0  0  0  0  0  0  0  0  0  0  0
  8  1  1  0
 10  9  1  0
 12 11  1  0
 14 13  1  0
 17 15  1  0
 18 16  1  0
 20  2  1  0
 20  3  1  0
 21  4  1  1
 21  9  1  0
  8 22  2  0
 22 10  1  0
 22 20  1  0
 23 11  2  0
 23 19  1  0
 24 15  1  0
 24 19  1  0
 25 12  1  1
 26 13  1  6
 26 21  1  0
 27 14  1  6
 27 25  1  0
 28 16  1  6
 28 25  1  0
 29  5  1  6
 29 17  1  0
 29 23  1  0
 29 28  1  0
 30  6  1  6
 30 18  1  0
 30 26  1  0
 30 27  1  0
 31  7  1  0
 24 31  1  6
M  END
>  <NAME>  (5624) 
FUCOSTEROL METHYL ETHER

>  <SYNONYMS>  (5624) 


>  <SPECTRUM TYPE>  (5624) 
MS1

>  <INSTRUMENT TYPE>  (5624) 
EI-B

>  <INSTRUMENT>  (5624) 
SHIMADZU LKB-9000B

>  <ION MODE>  (5624) 
P

>  <INCHIKEY>  (5624) 
GSKFDRGPRSWWDC-FTKWHHHFSA-N

>  <FORMULA>  (5624) 
C30H50O

>  <EXACT MASS>  (5624) 
426.38616621999995

>  <MW>  (5624) 
426

>  <ID>  (5624) 
JP002705

>  <CONTRIBUTOR>  (5624) 
University of Tokyo Team, {Faculty of Engineering, University of Tokyo

>  <COMMENT>  (5624) 
SMILES=C(C4)=C(C1)C(C(C34[H])([H])CCC(C32[H])(C(CC2)(C(CCC(=CC)C(C)C)([H])C)[H])C)(CCC1OC)C
InChI=InChI=1S/C30H50O/c1-8-22(20(2)3)10-9-21(4)26-13-14-27-25-12-11-23-19-24(31-7)15-17-29(23,5)28(25)16-18-30(26,27)6/h8,11,20-21,24-28H,9-10,12-19H2,1-7H3/b22-8+/t21-,24+,25+,26-,27+,28+,29+,30-/m1/s1
computed SMILES=O(C)C1CC2=CCC3C(CCC4(C)C(CCC34)C(C)CCC(=CC)C(C)C)C2(C)CC1
accession=JP002705
date=2016.01.19 (Created 2008.10.21, modified 2011.05.06)
author=HAYASHI A, DEPT. OF CHEMISTRY, FAC. OF SCI. AND TECHNOLOGY, KINKI UNIV.
license=CC BY-NC-SA
exact mass=426.38617
ionization energy=70 eV
ion type=[M]+*
computed spectral entropy=4.631108189453216
computed normalized entropy=0.864563352848598
SPLASH=splash10-0a6s-4963000000-73cb250cce52f08ca758
submitter=submitter = University of Tokyo Team (Faculty of Engineering, University of Tokyo)
MoNA Rating=3.75

>  <NUM PEAKS>  (5624) 
212

>  <MASS SPECTRAL PEAKS>  (5624) 
39 1.5
41 16.3
43 9.5
45 0.29
53 4.1
54 1.3
55 51.2
56 0.36
57 5.9
58 1.5
65 2.3
66 0.15
67 19.6
68 4.6
69 33.4
70 0.34
71 19.2
72 1.8
73 3.3
77 0.76
78 2
79 22.3
80 3.1
81 3.2
82 5.4
83 17.5
84 2.4
85 0.34
86 1
91 24.9
92 5.6
93 2.54
94 5.6
95 29.1
96 3.9
97 2.5
98 3.9
99 1.5
103 1.8
104 0.23
105 30.3
106 8
107 32.3
108 0.83
109 20.2
110 4.2
111 9.1
112 0.11
115 3.6
116 2.3
117 11.8
118 0.55
119 27
120 17.8
121 22.2
122 0.56
123 12.5
124 2.6
126 2.8
127 0.12
128 3.3
129 7.5
130 4.6
131 1.89
132 6.5
133 23
134 7.7
135 1.55
136 3.7
137 8
138 4.6
139 0.39
141 3.3
142 2.9
143 14
144 0.66
145 30.9
146 9.3
147 19.8
148 0.5
149 8.2
150 1.9
151 3.4
152 0.16
153 1
155 3.7
156 3.7
157 1.15
158 12.8
159 26.6
160 12.3
161 2.01
162 4.5
163 7.7
164 2
165 0.28
169 4
170 1.8
171 10.8
172 0.56
173 14.4
174 6.1
175 9.2
176 0.37
177 4.7
178 1.8
179 1.1
183 0.38
184 1.7
185 10.3
186 4.8
187 0.86
188 3.9
189 8.9
190 3.8
191 0.31
192 1.3
193 1.2
197 5.9
198 0.33
199 11.6
200 4.9
201 7.5
202 0.47
203 9
204 2.7
205 1.5
209 0.1
211 17
212 5.6
213 27.5
214 1.16
215 8
216 2.3
217 3.3
218 0.1
225 4.6
226 2.7
227 11
228 1.27
229 12
230 2.9
231 3.3
232 0.13
233 1.5
239 5
240 3.7
241 0.51
242 3.1
243 15.2
244 5.1
245 0.82
246 4.8
247 1.4
253 11.6
254 0.72
255 16.5
256 5.6
257 6.4
258 0.23
259 3.2
260 4
261 1
266 0.11
267 5
268 3
269 2
270 0.21
271 2.5
272 2.8
273 4.8
274 0.14
281 41.1
282 10.7
283 5
284 0.32
285 14.2
286 6.6
287 2.6
295 0.17
296 48
297 13.3
298 2.2
299 0.23
300 2.2
301 4.5
302 1
313 2.35
314 6.8
315 1
327 4.1
328 99.99
329 26.1
330 3.1
339 1
351 0.1
352 3.9
353 2.9
354 1
355 0.35
365 1.1
366 1.1
379 12.6
380 0.42
392 1.2
394 9.9
395 3.8
411 0.56
412 1.7
424 1.3
426 4.1
427 1.2

$$$$

     RDKit          2D

 29 32  0  0  1  0  0  0  0  0999 V2000
    9.5655    7.2342    0.0000 C   0  0  0  0  0  0  0  0  0  0  0  0
    7.1046    8.0672    0.0000 C   0  0  0  0  0  0  0  0  0  0  0  0
    3.2009    4.6377    0.0000 C   0  0  0  0  0  0  0  0  0  0  0  0
   -1.6125    0.9400    0.0000 C   0  0  0  0  0  0  0  0  0  0  0  0
    2.4507    3.1203    0.0000 C   0  0  0  0  0  0  0  0  0  0  0  0
   -5.4950   -4.3424    0.0000 C   0  0  0  0  0  0  0  0  0  0  0  0
    6.1427    5.2256    0.0000 C   0  0  0  0  0  0  0  0  0  0  0  0
    7.6137    5.5195    0.0000 C   0  0  0  0  0  0  0  0  0  0  0  0
    5.6618    3.8047    0.0000 C   0  0  0  0  0  0  0  0  0  0  0  0
   -0.3200   -2.8400    0.0000 C   0  0  0  0  0  0  0  0  0  0  0  0
    1.0100   -2.0900    0.0000 C   0  0  0  0  0  0  0  0  0  0  0  0
    4.5500    0.8800    0.0000 C   0  0  0  0  0  0  0  0  0  0  0  0
    3.7100   -0.3100    0.0000 C   0  0  0  0  0  0  0  0  0  0  0  0
   -4.2000   -0.5600    0.0000 C   0  0  0  0  0  0  0  0  0  0  0  0
   -0.3200    1.6300    0.0000 C   0  0  0  0  0  0  0  0  0  0  0  0
   -2.8900    0.1600    0.0000 C   0  0  0  0  0  0  0  0  0  0  0  0
    1.0100    2.3900    0.0000 C   0  0  0  0  0  0  0  0  0  0  0  0
   -2.8900   -2.8400    0.0000 C   0  0  0  0  0  0  0  0  0  0  0  0
    8.0946    6.9403    0.0000 C   0  0  0  0  0  0  0  0  0  0  0  0
    4.1909    3.5108    0.0000 C   0  0  0  0  0  0  0  0  0  0  0  0
   -1.6200   -2.0900    0.0000 C   0  0  0  0  0  0  0  0  0  0  0  0
   -4.2000   -2.0900    0.0000 C   0  0  0  0  0  0  0  0  0  0  0  0
    1.0100   -0.5600    0.0000 C   0  0  0  0  0  0  0  0  0  0  0  0
    3.7100    2.0900    0.0000 C   0  0  0  0  0  0  0  0  0  0  0  0
    2.2800    0.1600    0.0000 C   0  0  0  0  0  0  0  0  0  0  0  0
   -0.3200    0.1600    0.0000 C   0  0  0  0  0  0  0  0  0  0  0  0
   -1.6200   -0.5600    0.0000 C   0  0  0  0  0  0  0  0  0  0  0  0
    2.2800    1.6300    0.0000 C   0  0  0  0  0  0  0  0  0  0  0  0
   -5.4977   -2.8424    0.0000 O   0  0  0  0  0  0  0  0  0  0  0  0
  8  7  1  0
  9  7  1  0
 11 10  1  0
 13 12  1  0
 16 14  1  0
 17 15  1  0
 19  1  1  0
 19  2  1  0
 19  8  1  0
 20  3  1  6
 20  9  1  0
 21 10  1  0
 21 18  1  0
 22 14  1  0
 22 18  1  0
 23 11  1  6
 24 12  1  1
 24 20  1  0
 25 13  1  1
 25 23  1  0
 26 15  1  1
 26 23  1  0
 27  4  1  1
 27 16  1  0
 27 21  1  0
 27 26  1  0
 28  5  1  1
 28 17  1  0
 28 24  1  0
 28 25  1  0
 29  6  1  0
 22 29  1  1
M  END
>  <NAME>  (5625) 
DIHYDROCHOLESTEROL METHYL ETHER

>  <SYNONYMS>  (5625) 


>  <SPECTRUM TYPE>  (5625) 
MS1

>  <INSTRUMENT TYPE>  (5625) 
EI-B

>  <INSTRUMENT>  (5625) 
SHIMADZU LKB-9000B

>  <ION MODE>  (5625) 
P

>  <INCHIKEY>  (5625) 
FMSSVYNONQQPON-IOESSVONSA-N

>  <FORMULA>  (5625) 
C28H50O

>  <EXACT MASS>  (5625) 
402.38616622

>  <MW>  (5625) 
402

>  <ID>  (5625) 
JP002704

>  <CONTRIBUTOR>  (5625) 
University of Tokyo Team, {Faculty of Engineering, University of Tokyo

>  <COMMENT>  (5625) 
SMILES=CC(C4([H])C([H])(C)CCCC(C)C)(C([H])1CC4)CCC(C3(C)2)(C([H])(CCC2CC(CC3)([H])OC)1)[H]
InChI=InChI=1S/C28H50O/c1-19(2)8-7-9-20(3)24-12-13-25-23-11-10-21-18-22(29-6)14-16-27(21,4)26(23)15-17-28(24,25)5/h19-26H,7-18H2,1-6H3/t20-,21?,22+,23+,24-,25+,26+,27+,28-/m1/s1
computed SMILES=O(C)C1CCC2(C)C(CCC3C4CCC(C(C)CCCC(C)C)C4(C)CCC32)C1
accession=JP002704
date=2016.01.19 (Created 2008.10.21, modified 2011.05.06)
author=HAYASHI A, DEPT. OF CHEMISTRY, FAC. OF SCI. AND TECHNOLOGY, KINKI UNIV.
license=CC BY-NC-SA
exact mass=402.38617
ionization energy=70 eV
ion type=[M]+*
computed spectral entropy=4.269966309942197
computed normalized entropy=0.845561993017675
SPLASH=splash10-014j-2981000000-25903405d185ae526e63
submitter=submitter = University of Tokyo Team (Faculty of Engineering, University of Tokyo)
MoNA Rating=3.75

>  <NUM PEAKS>  (5625) 
156

>  <MASS SPECTRAL PEAKS>  (5625) 
55 4.6
57 3.8
67 7
68 2.4
69 7.5
71 9.3
72 1
73 0.22
77 2.8
79 9.9
80 2.4
81 1.78
82 3.7
83 3.4
84 3.2
91 1.02
92 3
93 17.4
94 7
95 2.27
96 2.9
97 8.2
98 1.2
101 0.14
104 1.3
105 11.8
106 9.3
107 3.12
108 21.5
109 18
110 3
111 0.56
115 1.5
117 2.8
118 2.1
119 1.09
120 10.1
121 21.7
122 12.4
123 1.42
124 3.4
125 4
129 1.7
131 0.54
132 2.2
133 12.7
134 7.8
135 1.63
136 10.7
137 6.2
138 11.2
139 0.42
143 1.6
145 10.1
146 3.9
147 2.51
148 11.9
149 17.7
150 2.7
151 0.53
152 4.7
153 1.2
159 8.1
160 0.77
161 16.8
162 9
163 6.4
164 0.13
165 2.1
167 1.1
171 1
173 0.89
174 4.2
175 8.2
176 4.4
177 0.43
178 1.8
179 35.9
180 12.5
181 0.36
187 5.7
188 4.4
189 6.3
190 1.34
191 5.2
192 3.1
193 2.1
199 0.14
201 14.3
202 4.8
203 5.2
204 0.36
205 4.8
206 2.5
208 1.4
213 0.11
214 1
215 99.99
216 41.5
217 3.66
218 6.1
219 2.3
220 2.8
229 0.38
230 16.5
231 6.2
232 1.4
233 0.51
234 2.3
243 1.7
245 1.1
246 0.18
247 45.4
248 38.2
249 8.1
250 0.12
255 1
257 7.3
258 2.1
260 0.12
261 1.7
262 23.1
263 6.5
264 1.8
273 1.2
275 2
276 2.1
285 0.2
287 2.1
288 1.9
289 1.9
301 0.14
314 1.2
316 1.7
328 1.2
344 0.25
345 19.1
346 5.5
347 1.1
355 2.67
356 7.7
357 1.4
369 1.3
370 0.85
371 3.4
372 1.4
373 1
374 0.1
387 20.8
388 6.3
389 1.1
401 0.1
402 28.3
403 9.5
404 1.6
405 0.5

$$$$

     RDKit          2D

 29 32  0  0  1  0  0  0  0  0999 V2000
    9.5655    7.2342    0.0000 C   0  0  0  0  0  0  0  0  0  0  0  0
    7.1046    8.0672    0.0000 C   0  0  0  0  0  0  0  0  0  0  0  0
    3.2009    4.6377    0.0000 C   0  0  0  0  0  0  0  0  0  0  0  0
   -1.6125    0.9400    0.0000 C   0  0  0  0  0  0  0  0  0  0  0  0
    2.4507    3.1203    0.0000 C   0  0  0  0  0  0  0  0  0  0  0  0
   -5.4950   -4.3424    0.0000 C   0  0  0  0  0  0  0  0  0  0  0  0
    6.1427    5.2256    0.0000 C   0  0  0  0  0  0  0  0  0  0  0  0
    7.6137    5.5195    0.0000 C   0  0  0  0  0  0  0  0  0  0  0  0
    5.6618    3.8047    0.0000 C   0  0  0  0  0  0  0  0  0  0  0  0
   -0.3200   -2.8400    0.0000 C   0  0  0  0  0  0  0  0  0  0  0  0
    1.0100   -2.0900    0.0000 C   0  0  0  0  0  0  0  0  0  0  0  0
    4.5500    0.8800    0.0000 C   0  0  0  0  0  0  0  0  0  0  0  0
    3.7100   -0.3100    0.0000 C   0  0  0  0  0  0  0  0  0  0  0  0
   -4.2000   -0.5600    0.0000 C   0  0  0  0  0  0  0  0  0  0  0  0
   -0.3200    1.6300    0.0000 C   0  0  0  0  0  0  0  0  0  0  0  0
   -2.8900    0.1600    0.0000 C   0  0  0  0  0  0  0  0  0  0  0  0
    1.0100    2.3900    0.0000 C   0  0  0  0  0  0  0  0  0  0  0  0
   -2.8900   -2.8400    0.0000 C   0  0  0  0  0  0  0  0  0  0  0  0
    8.0946    6.9403    0.0000 C   0  0  0  0  0  0  0  0  0  0  0  0
    4.1909    3.5108    0.0000 C   0  0  0  0  0  0  0  0  0  0  0  0
   -1.6200   -2.0900    0.0000 C   0  0  0  0  0  0  0  0  0  0  0  0
   -4.2000   -2.0900    0.0000 C   0  0  0  0  0  0  0  0  0  0  0  0
    1.0100   -0.5600    0.0000 C   0  0  0  0  0  0  0  0  0  0  0  0
    3.7100    2.0900    0.0000 C   0  0  0  0  0  0  0  0  0  0  0  0
    2.2800    0.1600    0.0000 C   0  0  0  0  0  0  0  0  0  0  0  0
   -0.3200    0.1600    0.0000 C   0  0  0  0  0  0  0  0  0  0  0  0
   -1.6200   -0.5600    0.0000 C   0  0  0  0  0  0  0  0  0  0  0  0
    2.2800    1.6300    0.0000 C   0  0  0  0  0  0  0  0  0  0  0  0
   -5.4977   -2.8424    0.0000 O   0  0  0  0  0  0  0  0  0  0  0  0
  8  7  1  0
  9  7  1  0
 11 10  1  0
 13 12  1  0
 16 14  1  0
 17 15  1  0
 19  1  1  0
 19  2  1  0
 19  8  1  0
 20  3  1  6
 20  9  1  0
 21 10  2  0
 21 18  1  0
 22 14  1  0
 22 18  1  0
 23 11  1  6
 24 12  1  1
 24 20  1  0
 25 13  1  1
 25 23  1  0
 26 15  1  1
 26 23  1  0
 27  4  1  1
 27 16  1  0
 27 21  1  0
 27 26  1  0
 28  5  1  1
 28 17  1  0
 28 24  1  0
 28 25  1  0
 29  6  1  0
 22 29  1  1
M  END
>  <NAME>  (5626) 
CHOLESTEROL METHYL ETHER

>  <SYNONYMS>  (5626) 


>  <SPECTRUM TYPE>  (5626) 
MS1

>  <INSTRUMENT TYPE>  (5626) 
EI-B

>  <INSTRUMENT>  (5626) 
SHIMADZU LKB-9000B

>  <ION MODE>  (5626) 
P

>  <INCHIKEY>  (5626) 
RCXPTZJNVLDKKV-PXBBAZSNSA-N

>  <FORMULA>  (5626) 
C28H48O

>  <EXACT MASS>  (5626) 
400.370516156

>  <MW>  (5626) 
400

>  <ID>  (5626) 
JP002703

>  <CONTRIBUTOR>  (5626) 
University of Tokyo Team, {Faculty of Engineering, University of Tokyo

>  <COMMENT>  (5626) 
SMILES=CC(C4([H])C([H])(C)CCCC(C)C)(C([H])1CC4)CCC(C3(C)2)(C([H])(CC=C2CC(CC3)([H])OC)1)[H]
cas=1174-92-1
InChI=InChI=1S/C28H48O/c1-19(2)8-7-9-20(3)24-12-13-25-23-11-10-21-18-22(29-6)14-16-27(21,4)26(23)15-17-28(24,25)5/h10,19-20,22-26H,7-9,11-18H2,1-6H3/t20-,22+,23+,24-,25+,26+,27+,28-/m1/s1
computed SMILES=O(C)C1CC2=CCC3C(CCC4(C)C(CCC34)C(C)CCCC(C)C)C2(C)CC1
accession=JP002703
date=2016.01.19 (Created 2008.10.21, modified 2011.05.06)
author=HAYASHI A, DEPT. OF CHEMISTRY, FAC. OF SCI. AND TECHNOLOGY, KINKI UNIV.
license=CC BY-NC-SA
exact mass=400.37052
ionization energy=70 eV
ion type=[M]+*
computed spectral entropy=4.700922833716238
computed normalized entropy=0.8583865827169167
SPLASH=splash10-0pvj-4933000000-f89d23ef7b978a5d84dc
submitter=submitter = University of Tokyo Team (Faculty of Engineering, University of Tokyo)
MoNA Rating=3.75

>  <NUM PEAKS>  (5626) 
239

>  <MASS SPECTRAL PEAKS>  (5626) 
39 2.1
41 25.3
42 3.6
43 33.4
44 2.1
45 4.3
53 5.5
54 0.12
55 31.9
56 3.7
57 30.3
58 0.31
59 1.2
65 3
66 1.6
67 2.56
68 4.2
69 23.3
70 3.9
71 3.48
72 3.1
73 5.3
77 12.7
78 0.33
79 32.8
80 5.8
81 45.1
82 0.61
83 17.1
84 2.9
85 8.2
86 0.14
91 36.7
92 9.7
93 38.2
94 1.1
95 47.4
96 5.6
97 18
98 0.27
99 3.6
103 3.2
104 4.5
105 5.05
106 16.3
107 60.5
108 15.3
109 2.82
110 4.7
111 12.7
112 1.8
113 0.22
114 1.4
115 6.3
116 3.9
117 1.76
118 10.2
119 43
120 33.7
121 3.93
122 8.6
123 17.1
124 3.4
125 0.49
127 2.8
128 6
129 11.4
130 0.61
131 32.4
132 11.7
133 36.5
134 1.41
135 27
136 6.6
137 10.4
138 0.59
139 8.9
140 1.3
141 4.5
142 0.42
143 20.4
144 11
145 60.9
146 1.92
147 36.6
148 11.5
149 17.9
150 0.41
151 6.3
152 3
153 2.5
154 0.19
155 4.2
156 2.9
157 14.8
158 1.44
159 45.7
160 29.8
161 40.6
162 0.88
163 22.2
164 3.8
165 6.4
166 0.21
167 1.2
169 3.3
170 1.9
171 1.28
172 6
173 22.1
174 8.6
175 1.06
176 2.5
177 8.6
178 2.2
179 0.39
180 1.2
181 1.9
183 3.2
185 1.36
186 6.5
187 14.1
188 4.3
189 8.8
190 2.5
191 7.7
192 5.9
193 0.79
194 1.4
195 1.7
197 4.8
198 0.27
199 16.9
200 7
201 11.9
202 0.31
203 5.9
204 1.5
205 7.3
206 0.5
207 3.3
208 1.3
209 1.4
211 0.25
212 2.3
213 43.8
214 14
215 1.15
216 2.9
217 5
218 1.8
219 0.71
220 2.6
221 1.2
225 1.1
226 0.13
227 8.4
228 13.5
229 11.9
230 0.26
231 2.3
232 1.1
233 5.2
234 0.14
239 2.4
240 1.4
241 6.7
242 0.22
243 2.2
245 11.3
246 7.1
247 3.53
248 8.5
249 1.4
253 1.4
254 0.2
255 44.7
256 10.6
257 2.4
259 0.44
260 7
261 4.6
262 1.7
269 0.17
271 1.5
273 2.7
274 10.9
275 4.45
276 10.2
277 1.4
283 3.6
284 0.14
285 2.5
286 1.5
287 10.1
288 0.36
297 1.4
299 2.6
300 3.8
301 2.7
302 7.1
311 4.2
312 1.9
313 0.47
314 3.4
323 1.3
324 1.5
325 0.31
326 21.6
327 13.8
328 5.9
329 3.34
330 8.8
331 1.5
339 5
340 0.46
341 1.7
342 1
343 1.6
351 0.18
353 76
354 21.8
355 4.1
358 0.16
366 2.3
367 3.3
368 99.99
369 3.14
370 4.9
371 2
372 1.9
385 2.27
386 7.2
387 1.5
398 2.4
399 0.21
400 27.3
401 7.7
402 1.3

$$$$

     RDKit          2D

 33 36  0  0  1  0  0  0  0  0999 V2000
    9.5655    7.2342    0.0000 C   0  0  0  0  0  0  0  0  0  0  0  0
    7.1046    8.0672    0.0000 C   0  0  0  0  0  0  0  0  0  0  0  0
    8.6037    4.3926    0.0000 C   0  0  0  0  0  0  0  0  0  0  0  0
    3.2009    4.6377    0.0000 C   0  0  0  0  0  0  0  0  0  0  0  0
   -1.6125    0.9400    0.0000 C   0  0  0  0  0  0  0  0  0  0  0  0
    2.4507    3.1203    0.0000 C   0  0  0  0  0  0  0  0  0  0  0  0
   -6.9949   -4.3451    0.0000 C   0  0  0  0  0  0  0  0  0  0  0  0
   -5.4922   -5.8424    0.0000 C   0  0  0  0  0  0  0  0  0  0  0  0
   -3.9950   -4.3396    0.0000 C   0  0  0  0  0  0  0  0  0  0  0  0
    6.1427    5.2256    0.0000 C   0  0  0  0  0  0  0  0  0  0  0  0
    5.6618    3.8047    0.0000 C   0  0  0  0  0  0  0  0  0  0  0  0
   -0.3200   -2.8400    0.0000 C   0  0  0  0  0  0  0  0  0  0  0  0
    1.0100   -2.0900    0.0000 C   0  0  0  0  0  0  0  0  0  0  0  0
    4.5500    0.8800    0.0000 C   0  0  0  0  0  0  0  0  0  0  0  0
    3.7100   -0.3100    0.0000 C   0  0  0  0  0  0  0  0  0  0  0  0
   -4.2000   -0.5600    0.0000 C   0  0  0  0  0  0  0  0  0  0  0  0
   -0.3200    1.6300    0.0000 C   0  0  0  0  0  0  0  0  0  0  0  0
   -2.8900    0.1600    0.0000 C   0  0  0  0  0  0  0  0  0  0  0  0
    1.0100    2.3900    0.0000 C   0  0  0  0  0  0  0  0  0  0  0  0
   -2.8900   -2.8400    0.0000 C   0  0  0  0  0  0  0  0  0  0  0  0
    8.0946    6.9403    0.0000 C   0  0  0  0  0  0  0  0  0  0  0  0
    7.6137    5.5195    0.0000 C   0  0  0  0  0  0  0  0  0  0  0  0
    4.1909    3.5108    0.0000 C   0  0  0  0  0  0  0  0  0  0  0  0
   -1.6200   -2.0900    0.0000 C   0  0  0  0  0  0  0  0  0  0  0  0
   -4.2000   -2.0900    0.0000 C   0  0  0  0  0  0  0  0  0  0  0  0
    1.0100   -0.5600    0.0000 C   0  0  0  0  0  0  0  0  0  0  0  0
    3.7100    2.0900    0.0000 C   0  0  0  0  0  0  0  0  0  0  0  0
    2.2800    0.1600    0.0000 C   0  0  0  0  0  0  0  0  0  0  0  0
   -0.3200    0.1600    0.0000 C   0  0  0  0  0  0  0  0  0  0  0  0
   -1.6200   -0.5600    0.0000 C   0  0  0  0  0  0  0  0  0  0  0  0
    2.2800    1.6300    0.0000 C   0  0  0  0  0  0  0  0  0  0  0  0
   -5.4977   -2.8424    0.0000 O   0  0  0  0  0  0  0  0  0  0  0  0
   -5.4950   -4.3424    0.0000 Si  0  0  0  0  0  4  0  0  0  0  0  0
 10 11  2  0
 13 12  1  0
 15 14  1  0
 18 16  1  0
 19 17  1  0
 21  1  1  0
 21  2  1  0
 22  3  1  1
 22 10  1  0
 22 21  1  0
 23  4  1  6
 23 11  1  0
 24 12  2  0
 24 20  1  0
 25 16  1  0
 25 20  1  0
 26 13  2  0
 27 14  1  1
 27 23  1  0
 28 15  1  1
 28 26  1  0
 29 17  1  1
 29 26  1  0
 30  5  1  1
 30 18  1  0
 30 24  1  0
 30 29  1  0
 31  6  1  1
 31 19  1  0
 31 27  1  0
 31 28  1  0
 25 32  1  1
 33  7  1  0
 33  8  1  0
 33  9  1  0
 33 32  1  0
M  END
>  <NAME>  (5627) 
ERGOSTEROL-TRIMETHYLSILYL-ETHER

>  <SYNONYMS>  (5627) 


>  <SPECTRUM TYPE>  (5627) 
MS1

>  <INSTRUMENT TYPE>  (5627) 
EI-B

>  <INSTRUMENT>  (5627) 
SHIMADZU LKB-9000B

>  <ION MODE>  (5627) 
P

>  <INCHIKEY>  (5627) 
OPWXUPLJCANTIU-SCFYJWQTSA-N

>  <FORMULA>  (5627) 
C31H52OSi

>  <EXACT MASS>  (5627) 
468.37874281399996

>  <MW>  (5627) 
468

>  <ID>  (5627) 
JP002702

>  <CONTRIBUTOR>  (5627) 
University of Tokyo Team, {Faculty of Engineering, University of Tokyo

>  <COMMENT>  (5627) 
SMILES=CC(C4)(C=3CC(O[Si](C)(C)C)C4)C(C1=CC3)(CCC(C([H])(C([H])(C)C=CC([H])(C)C(C)C)2)(C1([H])CC2)C)[H]
cas=2625-45-8
InChI=InChI=1S/C31H52OSi/c1-21(2)22(3)10-11-23(4)27-14-15-28-26-13-12-24-20-25(32-33(7,8)9)16-18-30(24,5)29(26)17-19-31(27,28)6/h10-13,21-23,25,27-29H,14-20H2,1-9H3/b11-10+/t22-,23+,25-,27+,28-,29-,30-,31+/m0/s1
computed SMILES=O(C1CC2=CC=C3C(CCC4(C)C3CCC4C(C=CC(C)C(C)C)C)C2(C)CC1)[Si](C)(C)C
accession=JP002702
date=2016.01.19 (Created 2008.10.21, modified 2011.05.06)
author=HAYASHI A, DEPT. OF CHEMISTRY, FAC. OF SCI. AND TECHNOLOGY, KINKI UNIV.
license=CC BY-NC-SA
exact mass=468.37874
ionization energy=70 eV
ion type=[M]+*
computed spectral entropy=4.336125459809671
computed normalized entropy=0.8247511700875271
SPLASH=splash10-03dr-2947000000-1504c76410b50d6eba8d
submitter=submitter = University of Tokyo Team (Faculty of Engineering, University of Tokyo)
MoNA Rating=3.75

>  <NUM PEAKS>  (5627) 
192

>  <MASS SPECTRAL PEAKS>  (5627) 
55 4.2
57 2.1
67 2.9
69 16.6
70 1.6
71 1.8
73 12.9
74 0.15
76 8.9
77 1.6
79 3
81 1.06
82 1.4
83 6.2
91 5.1
93 0.55
94 1.1
95 6.6
97 3
103 0.1
105 7.4
106 1.7
107 7.9
108 0.11
109 9
110 1.2
111 1.7
115 0.31
116 1.3
117 3.9
118 2.4
119 2.19
120 2.1
121 3.7
123 3.9
124 0.11
125 9.5
126 1.5
128 3.8
129 1.36
130 4.1
131 27
132 4.6
133 0.77
134 1.7
135 4.3
137 2.8
141 0.6
142 3.6
143 22.8
144 19.8
145 2.12
146 4.1
147 5.8
149 2.4
151 0.13
153 1.6
154 1
155 9.2
156 0.39
157 22.5
158 8.9
159 19.7
160 0.34
161 3.2
163 1.5
165 1.6
167 0.26
168 3.2
169 12.6
170 4.5
171 1.14
172 3.6
173 4.8
174 2.2
175 0.16
178 1
179 1.4
180 1.4
181 0.46
182 3.8
183 11
184 4.1
185 1.26
186 3.1
187 4.1
191 1
192 0.1
193 1.9
194 2.4
195 6.2
196 0.46
197 15.7
198 5.7
199 15.5
200 0.36
201 3.6
205 1.6
206 1
207 0.13
208 1.2
209 6.5
210 3.5
211 2.57
212 6
213 11
214 2.6
215 0.13
219 1.1
221 2.7
222 1.2
223 0.37
224 3.1
225 7
226 7.5
227 0.87
228 2.4
229 1.8
230 1.1
232 0.11
235 2.3
236 1.9
237 7.8
238 0.45
239 7.1
240 1.8
241 1.8
242 0.1
247 1.7
248 1.2
249 2.9
250 0.24
251 16
252 6.2
253 39
254 0.84
255 3.1
265 1.9
267 1.8
268 0.14
272 1.1
279 2.2
280 1.8
281 0.18
285 1
287 1.2
289 1.3
293 0.23
294 1
295 1
301 1.2
307 0.12
310 2
323 1.8
324 1
325 0.12
326 3.1
327 1.2
328 2
335 0.26
336 1.7
337 66
338 20.3
339 0.47
340 1.2
341 2.6
342 1.3
343 0.4
344 1.7
345 1.2
348 1
349 0.16
350 1.9
352 1
361 3.3
362 0.45
363 99.99
364 29.3
365 4
374 0.12
376 8.2
377 7
378 23.9
379 0.78
380 1.3
453 2.6
454 1
455 0.11
466 1.7
467 1
468 21
469 1.7

$$$$

     RDKit          2D

 35 38  0  0  1  0  0  0  0  0999 V2000
    9.6794    7.6838    0.0000 C   0  0  0  0  0  0  0  0  0  0  0  0
    7.2143    8.5043    0.0000 C   0  0  0  0  0  0  0  0  0  0  0  0
    3.3280    5.0551    0.0000 C   0  0  0  0  0  0  0  0  0  0  0  0
   -3.7067   -3.5753    0.0000 C   0  0  0  0  0  0  0  0  0  0  0  0
   -1.7818   -3.5657    0.0000 C   0  0  0  0  0  0  0  0  0  0  0  0
   -1.4651    1.3500    0.0000 C   0  0  0  0  0  0  0  0  0  0  0  0
    2.5987    3.5305    0.0000 C   0  0  0  0  0  0  0  0  0  0  0  0
    2.5768   -0.9228    0.0000 C   0  0  0  0  0  0  0  0  0  0  0  0
   -5.9142   -0.3897    0.0000 C   0  0  0  0  0  0  0  0  0  0  0  0
   -7.9606   -0.9483    0.0000 C   0  0  0  0  0  0  0  0  0  0  0  0
   -7.4019   -2.9948    0.0000 C   0  0  0  0  0  0  0  0  0  0  0  0
    6.2669    5.6578    0.0000 C   0  0  0  0  0  0  0  0  0  0  0  0
    7.7363    5.9592    0.0000 C   0  0  0  0  0  0  0  0  0  0  0  0
    5.7931    4.2346    0.0000 C   0  0  0  0  0  0  0  0  0  0  0  0
    1.1600   -1.6800    0.0000 C   0  0  0  0  0  0  0  0  0  0  0  0
   -0.1700   -2.4200    0.0000 C   0  0  0  0  0  0  0  0  0  0  0  0
    4.7000    1.2900    0.0000 C   0  0  0  0  0  0  0  0  0  0  0  0
   -0.1700    2.0400    0.0000 C   0  0  0  0  0  0  0  0  0  0  0  0
   -4.0600   -0.1500    0.0000 C   0  0  0  0  0  0  0  0  0  0  0  0
   -2.7500    0.5700    0.0000 C   0  0  0  0  0  0  0  0  0  0  0  0
    3.8500    0.1000    0.0000 C   0  0  0  0  0  0  0  0  0  0  0  0
    1.1600    2.8100    0.0000 C   0  0  0  0  0  0  0  0  0  0  0  0
    8.2100    7.3824    0.0000 C   0  0  0  0  0  0  0  0  0  0  0  0
    4.3237    3.9332    0.0000 C   0  0  0  0  0  0  0  0  0  0  0  0
    3.8500    2.5100    0.0000 C   0  0  0  0  0  0  0  0  0  0  0  0
   -0.1700    0.5700    0.0000 C   0  0  0  0  0  0  0  0  0  0  0  0
    1.1600   -0.1500    0.0000 C   0  0  0  0  0  0  0  0  0  0  0  0
   -1.4700   -1.6800    0.0000 C   0  0  0  0  0  0  0  0  0  0  0  0
   -4.0600   -1.6800    0.0000 C   0  0  0  0  0  0  0  0  0  0  0  0
   -2.7500   -2.4200    0.0000 C   0  0  0  0  0  0  0  0  0  0  0  0
   -1.4700   -0.1500    0.0000 C   0  0  0  0  0  0  0  0  0  0  0  0
    2.4300    2.0400    0.0000 C   0  0  0  0  0  0  0  0  0  0  0  0
    2.4300    0.5700    0.0000 C   0  0  0  0  0  0  0  0  0  0  0  0
   -5.3555   -2.4361    0.0000 O   0  0  0  0  0  0  0  0  0  0  0  0
   -6.6580   -1.6922    0.0000 Si  0  0  0  0  0  4  0  0  0  0  0  0
 13 12  1  0
 14 12  1  0
 16 15  1  0
 20 19  1  0
 21 17  1  0
 22 18  1  0
 23  1  1  0
 23  2  1  0
 23 13  2  0
 24  3  1  1
 24 14  1  0
 25 17  1  1
 25 24  1  0
 26 18  1  0
 27 15  1  0
 27 26  2  0
 28 16  1  1
 29 19  1  0
 30  4  1  0
 30  5  1  0
 30 28  1  0
 30 29  1  0
 31  6  1  1
 31 20  1  0
 31 26  1  0
 31 28  1  0
 32  7  1  1
 32 22  1  0
 32 25  1  0
 33  8  1  6
 33 21  1  0
 33 27  1  0
 33 32  1  0
 29 34  1  1
 35  9  1  0
 35 10  1  0
 35 11  1  0
 35 34  1  0
M  END
>  <NAME>  (5628) 
LANOSTEROL-TRIMETHYLSILYL-ETHER

>  <SYNONYMS>  (5628) 


>  <SPECTRUM TYPE>  (5628) 
MS1

>  <INSTRUMENT TYPE>  (5628) 
EI-B

>  <INSTRUMENT>  (5628) 
SHIMADZU LKB-9000B

>  <ION MODE>  (5628) 
P

>  <INCHIKEY>  (5628) 
VUPPLGLOGXZZKA-ZXEXGRMMSA-N

>  <FORMULA>  (5628) 
C33H58OSi

>  <EXACT MASS>  (5628) 
498.425693006

>  <MW>  (5628) 
498

>  <ID>  (5628) 
JP002701

>  <CONTRIBUTOR>  (5628) 
University of Tokyo Team, {Faculty of Engineering, University of Tokyo

>  <COMMENT>  (5628) 
SMILES=[H]C(C41C)(CCC(=C43)C(C2(C)CC3)(CCC2([H])C([H])(C)CCC=C(C)C)C)C(C(O[Si](C)(C)C)CC1)(C)C
cas=55493-84-0
InChI=InChI=1S/C33H58OSi/c1-23(2)13-12-14-24(3)25-17-21-33(8)27-15-16-28-30(4,5)29(34-35(9,10)11)19-20-31(28,6)26(27)18-22-32(25,33)7/h13,24-25,28-29H,12,14-22H2,1-11H3/t24-,25+,28-,29-,31+,32+,33-/m0/s1
computed SMILES=O(C1CCC2(C3=C(CCC2C1(C)C)C4(C)CCC(C(C)CCC=C(C)C)C4(C)CC3)C)[Si](C)(C)C
accession=JP002701
date=2016.01.19 (Created 2008.10.21, modified 2011.05.06)
author=HAYASHI A, DEPT. OF CHEMISTRY, FAC. OF SCI. AND TECHNOLOGY, KINKI UNIV.
license=CC BY-NC-SA
exact mass=498.42569
ionization energy=70 eV
ion type=[M]+*
computed spectral entropy=4.425067440740702
computed normalized entropy=0.8433480349783606
SPLASH=splash10-0006-3946200000-1293091e58db84429012
submitter=submitter = University of Tokyo Team (Faculty of Engineering, University of Tokyo)
MoNA Rating=3.75

>  <NUM PEAKS>  (5628) 
190

>  <MASS SPECTRAL PEAKS>  (5628) 
55 2.8
67 2.4
69 17.2
70 0.13
73 11.2
74 1
75 8.5
76 0.1
77 1
79 1.8
81 7.7
82 0.12
83 4.6
91 3.4
93 6.2
94 0.13
95 13.3
96 1.6
97 2.6
105 0.59
106 1
107 8.6
108 2.1
109 2.5
110 2.6
111 3.8
117 4.6
118 0.13
119 11
120 2.2
121 11.7
122 0.28
123 11.5
124 1.4
128 1.1
129 1.07
130 2.2
131 6.7
132 1.9
133 0.79
134 2.7
135 14.9
136 3.3
137 0.67
141 1.4
142 1.1
143 4.7
144 0.27
145 8.7
146 2.5
147 9.8
148 0.24
149 8.9
151 2.5
155 1.7
156 0.1
157 7.4
158 3.2
159 8.4
160 0.39
161 10.8
162 2.5
163 7.4
164 0.15
165 1.5
169 2.5
170 1.3
171 0.62
172 2.7
173 9.2
174 3.2
175 0.94
176 1.9
177 3.4
178 1
183 0.35
184 1.3
185 5.4
186 2.2
187 1.3
188 3.4
189 12.9
190 3.7
191 0.45
192 1.2
197 2.9
198 2.1
199 0.42
200 1.9
201 8.1
202 2.3
203 0.71
204 2.2
205 3.1
206 1
209 0.1
210 1.1
211 3.4
212 1.7
213 0.6
214 5.2
215 12.1
216 2.4
217 0.28
223 1.1
225 4.2
226 1.5
227 1.33
228 3.7
229 9.7
230 2.3
231 0.28
237 1
239 2.6
240 2.7
241 1.42
242 3.2
243 5.5
244 1.9
245 0.18
253 3.7
254 1
255 8.6
256 0.28
257 4
258 1.1
259 1.4
267 0.14
269 2.7
270 2.1
271 3.2
272 0.19
273 1.8
281 2.3
282 1.5
283 0.41
284 1.4
285 1.9
295 2.3
296 0.11
297 2.7
298 1
299 1.5
309 0.28
310 1.2
311 5.4
312 1.9
313 0.11
315 3.1
319 1.1
323 2.6
324 0.15
325 1.6
331 1.2
337 2.6
338 0.1
339 1.8
345 1.4
350 1.6
351 0.19
365 1.2
367 1.4
369 1.2
377 0.13
378 1.6
383 1.5
391 4.6
393 99.99
394 31.3
395 5.6
396 1.3
405 0.1
406 1.7
407 1.9
408 1.7
413 0.21
451 1
467 1.1
468 1.5
469 0.18
470 1.7
471 1
482 0.14
483 21.3
484 9.5
485 2.8
486 0.28
497 2.1
498 14.2
499 6.1

$$$$

     RDKit          2D

 32 35  0  0  1  0  0  0  0  0999 V2000
    9.5655    7.2342    0.0000 C   0  0  0  0  0  0  0  0  0  0  0  0
    7.1046    8.0672    0.0000 C   0  0  0  0  0  0  0  0  0  0  0  0
    3.2009    4.6377    0.0000 C   0  0  0  0  0  0  0  0  0  0  0  0
   -1.6125    0.9400    0.0000 C   0  0  0  0  0  0  0  0  0  0  0  0
    2.4507    3.1203    0.0000 C   0  0  0  0  0  0  0  0  0  0  0  0
   -6.9949   -4.3451    0.0000 C   0  0  0  0  0  0  0  0  0  0  0  0
   -5.4922   -5.8424    0.0000 C   0  0  0  0  0  0  0  0  0  0  0  0
   -3.9950   -4.3396    0.0000 C   0  0  0  0  0  0  0  0  0  0  0  0
    6.1427    5.2256    0.0000 C   0  0  0  0  0  0  0  0  0  0  0  0
    7.6137    5.5195    0.0000 C   0  0  0  0  0  0  0  0  0  0  0  0
    5.6618    3.8047    0.0000 C   0  0  0  0  0  0  0  0  0  0  0  0
   -0.3200   -2.8400    0.0000 C   0  0  0  0  0  0  0  0  0  0  0  0
    1.0100   -2.0900    0.0000 C   0  0  0  0  0  0  0  0  0  0  0  0
    4.5500    0.8800    0.0000 C   0  0  0  0  0  0  0  0  0  0  0  0
    3.7100   -0.3100    0.0000 C   0  0  0  0  0  0  0  0  0  0  0  0
   -4.2000   -0.5600    0.0000 C   0  0  0  0  0  0  0  0  0  0  0  0
   -0.3200    1.6300    0.0000 C   0  0  0  0  0  0  0  0  0  0  0  0
   -2.8900    0.1600    0.0000 C   0  0  0  0  0  0  0  0  0  0  0  0
    1.0100    2.3900    0.0000 C   0  0  0  0  0  0  0  0  0  0  0  0
   -2.8900   -2.8400    0.0000 C   0  0  0  0  0  0  0  0  0  0  0  0
    8.0946    6.9403    0.0000 C   0  0  0  0  0  0  0  0  0  0  0  0
    4.1909    3.5108    0.0000 C   0  0  0  0  0  0  0  0  0  0  0  0
   -1.6200   -2.0900    0.0000 C   0  0  0  0  0  0  0  0  0  0  0  0
   -4.2000   -2.0900    0.0000 C   0  0  0  0  0  0  0  0  0  0  0  0
    1.0100   -0.5600    0.0000 C   0  0  0  0  0  0  0  0  0  0  0  0
    3.7100    2.0900    0.0000 C   0  0  0  0  0  0  0  0  0  0  0  0
    2.2800    0.1600    0.0000 C   0  0  0  0  0  0  0  0  0  0  0  0
   -0.3200    0.1600    0.0000 C   0  0  0  0  0  0  0  0  0  0  0  0
   -1.6200   -0.5600    0.0000 C   0  0  0  0  0  0  0  0  0  0  0  0
    2.2800    1.6300    0.0000 C   0  0  0  0  0  0  0  0  0  0  0  0
   -5.4977   -2.8424    0.0000 O   0  0  0  0  0  0  0  0  0  0  0  0
   -5.4950   -4.3424    0.0000 Si  0  0  0  0  0  4  0  0  0  0  0  0
 10  9  1  0
 11  9  1  0
 13 12  1  0
 15 14  1  0
 18 16  1  0
 19 17  1  0
 21  1  1  0
 21  2  1  0
 21 10  1  0
 22  3  1  6
 22 11  1  0
 23 12  1  0
 23 20  1  0
 24 16  1  0
 24 20  1  0
 25 13  1  6
 26 14  1  1
 26 22  1  0
 27 15  1  1
 27 25  1  0
 28 17  1  1
 28 25  1  0
 29  4  1  1
 29 18  1  0
 29 23  1  0
 29 28  1  0
 30  5  1  1
 30 19  1  0
 30 26  1  0
 30 27  1  0
 24 31  1  1
 32  6  1  0
 32  7  1  0
 32  8  1  0
 32 31  1  0
M  END
>  <NAME>  (5629) 
DIHYDROCHOLESTEROL-TRIMETHYLSILYL-ETHER

>  <SYNONYMS>  (5629) 


>  <SPECTRUM TYPE>  (5629) 
MS1

>  <INSTRUMENT TYPE>  (5629) 
EI-B

>  <INSTRUMENT>  (5629) 
SHIMADZU LKB-9000B

>  <ION MODE>  (5629) 
P

>  <INCHIKEY>  (5629) 
HRLPEXVPNOBUDF-SGCSJPMTSA-N

>  <FORMULA>  (5629) 
C30H56OSi

>  <EXACT MASS>  (5629) 
460.410042942

>  <MW>  (5629) 
460

>  <ID>  (5629) 
JP002700

>  <CONTRIBUTOR>  (5629) 
University of Tokyo Team, {Faculty of Engineering, University of Tokyo

>  <COMMENT>  (5629) 
SMILES=C(C1)C([H])(C(CCCC(C)C)([H])C)C(C4)(C1([H])C([H])(C(C4)([H])2)CCC(C3)C(C)2CCC(O[Si](C)(C)C)3[H])C
cas=18880-51-8
InChI=InChI=1S/C30H56OSi/c1-21(2)10-9-11-22(3)26-14-15-27-25-13-12-23-20-24(31-32(6,7)8)16-18-29(23,4)28(25)17-19-30(26,27)5/h21-28H,9-20H2,1-8H3/t22-,23?,24+,25+,26-,27+,28+,29+,30-/m1/s1
computed SMILES=O(C1CCC2(C)C(CCC3C4CCC(C(C)CCCC(C)C)C4(C)CCC32)C1)[Si](C)(C)C
accession=JP002700
date=2016.01.19 (Created 2008.10.21, modified 2011.05.06)
author=HAYASHI A, DEPT. OF CHEMISTRY, FAC. OF SCI. AND TECHNOLOGY, KINKI UNIV.
license=CC BY-NC-SA
exact mass=460.41004
ionization energy=70 eV
ion type=[M]+*
computed spectral entropy=4.36543971896387
computed normalized entropy=0.8415490735330671
SPLASH=splash10-014i-3962100000-f2f819dffabb9607ccd3
submitter=submitter = University of Tokyo Team (Faculty of Engineering, University of Tokyo)
MoNA Rating=3.75

>  <NUM PEAKS>  (5629) 
179

>  <MASS SPECTRAL PEAKS>  (5629) 
55 4
57 3.9
67 5.2
68 0.13
69 6.6
70 1
71 4.4
73 1.18
74 1.5
75 42.3
76 3.4
77 0.32
79 6.4
80 1.5
81 16.6
82 0.3
83 8.1
85 1.3
89 2
91 0.78
92 2.8
93 13.9
94 5.5
95 2.46
96 2.7
97 9
101 1.6
103 0.14
104 2.3
105 9.6
106 25.1
107 3.3
108 14
109 19.2
110 5.6
111 0.98
115 1.6
116 1
117 2.7
118 0.22
119 10.3
120 8.4
121 20
122 0.85
123 13.1
124 2.7
125 3.6
127 0.15
129 9.1
130 4.7
131 11
132 0.25
133 12.4
134 8
135 16.9
136 0.72
137 6.3
138 4.7
139 1.7
142 1.72
143 4.6
144 1.6
145 12.5
146 0.48
147 24.4
148 14.5
149 16.3
150 0.26
151 3.4
152 2.9
153 1.2
155 1.17
156 3
157 1.5
159 9.5
160 0.73
161 15
162 6.7
163 6
164 0.11
165 2.9
167 1.1
169 1.5
173 0.75
174 4.1
175 7.3
176 3.1
177 0.33
179 2.2
181 2.6
182 1.8
183 0.32
187 5.6
188 3.7
189 5
190 0.72
191 5.1
192 1
193 2
196 0.77
197 2.8
199 1
201 14.2
202 0.42
203 4.2
204 1.9
205 2.2
206 0.12
207 1.7
208 1.6
209 2.3
215 99.99
216 54.8
217 38.2
218 6.6
219 0.2
229 5.6
230 25.5
231 7.6
232 0.13
233 1.3
238 3.6
239 1.1
243 1.5
247 0.24
255 1.4
257 8.5
258 0.19
261 1.5
262 10.8
263 5
264 0.18
275 1.4
276 1.6
277 1
285 0.22
287 1.3
288 1.8
289 1.7
291 0.23
292 1.1
295 1
301 1.2
304 1.2
305 2.88
306 18.3
307 4.8
308 1.2
313 0.18
315 4.4
316 1.6
317 1.1
319 0.13
320 4.6
321 1.4
328 1.3
329 0.16
330 2.6
331 5.3
332 1.7
341 0.1
344 2.7
345 1.4
355 35.5
356 0.98
357 1.5
369 5.8
370 18.4
371 0.55
403 12.4
405 1.2
431 1
445 5.07
446 19.2
447 5
448 1
460 1.92
461 7.5
462 2

$$$$

     RDKit          2D

 30 33  0  0  1  0  0  0  0  0999 V2000
    9.5655    7.2342    0.0000 C   0  0  0  0  0  0  0  0  0  0  0  0
   10.0746    4.6865    0.0000 C   0  0  0  0  0  0  0  0  0  0  0  0
    8.1228    2.9718    0.0000 C   0  0  0  0  0  0  0  0  0  0  0  0
    3.2009    4.6377    0.0000 C   0  0  0  0  0  0  0  0  0  0  0  0
   -1.6125    0.9400    0.0000 C   0  0  0  0  0  0  0  0  0  0  0  0
    2.4507    3.1203    0.0000 C   0  0  0  0  0  0  0  0  0  0  0  0
    8.0946    6.9403    0.0000 C   0  0  0  0  0  0  0  0  0  0  0  0
    5.6618    3.8047    0.0000 C   0  0  0  0  0  0  0  0  0  0  0  0
    6.1427    5.2256    0.0000 C   0  0  0  0  0  0  0  0  0  0  0  0
   -0.3200   -2.8400    0.0000 C   0  0  0  0  0  0  0  0  0  0  0  0
    1.0100   -2.0900    0.0000 C   0  0  0  0  0  0  0  0  0  0  0  0
    4.5500    0.8800    0.0000 C   0  0  0  0  0  0  0  0  0  0  0  0
    3.7100   -0.3100    0.0000 C   0  0  0  0  0  0  0  0  0  0  0  0
   -4.2000   -0.5600    0.0000 C   0  0  0  0  0  0  0  0  0  0  0  0
   -0.3200    1.6300    0.0000 C   0  0  0  0  0  0  0  0  0  0  0  0
   -2.8900    0.1600    0.0000 C   0  0  0  0  0  0  0  0  0  0  0  0
    1.0100    2.3900    0.0000 C   0  0  0  0  0  0  0  0  0  0  0  0
   -2.8900   -2.8400    0.0000 C   0  0  0  0  0  0  0  0  0  0  0  0
    8.6037    4.3926    0.0000 C   0  0  0  0  0  0  0  0  0  0  0  0
    4.1909    3.5108    0.0000 C   0  0  0  0  0  0  0  0  0  0  0  0
    7.6137    5.5195    0.0000 C   0  0  0  0  0  0  0  0  0  0  0  0
   -1.6200   -2.0900    0.0000 C   0  0  0  0  0  0  0  0  0  0  0  0
   -4.2000   -2.0900    0.0000 C   0  0  0  0  0  0  0  0  0  0  0  0
    1.0100   -0.5600    0.0000 C   0  0  0  0  0  0  0  0  0  0  0  0
    3.7100    2.0900    0.0000 C   0  0  0  0  0  0  0  0  0  0  0  0
    2.2800    0.1600    0.0000 C   0  0  0  0  0  0  0  0  0  0  0  0
   -0.3200    0.1600    0.0000 C   0  0  0  0  0  0  0  0  0  0  0  0
   -1.6200   -0.5600    0.0000 C   0  0  0  0  0  0  0  0  0  0  0  0
    2.2800    1.6300    0.0000 C   0  0  0  0  0  0  0  0  0  0  0  0
   -5.4977   -2.8424    0.0000 O   0  0  0  0  0  0  0  0  0  0  0  0
  7  1  1  0
  9  8  1  0
 11 10  1  0
 13 12  1  0
 16 14  1  0
 17 15  1  0
 19  2  1  0
 19  3  1  0
 20  4  1  6
 20  8  1  0
 21  7  1  1
 21  9  1  0
 21 19  1  0
 22 10  2  0
 22 18  1  0
 23 14  1  0
 23 18  1  0
 24 11  1  6
 25 12  1  1
 25 20  1  0
 26 13  1  1
 26 24  1  0
 27 15  1  1
 27 24  1  0
 28  5  1  1
 28 16  1  0
 28 22  1  0
 28 27  1  0
 29  6  1  1
 29 17  1  0
 29 25  1  0
 29 26  1  0
 23 30  1  1
M  END
>  <NAME>  (5630) 
STIGMAST-5-EN-3BETA-OL

>  <SYNONYMS>  (5630) 
BETA-SITOSTEROL

>  <SPECTRUM TYPE>  (5630) 
MS1

>  <INSTRUMENT TYPE>  (5630) 
EI-B

>  <INSTRUMENT>  (5630) 
SHIMADZU LKB-9000B

>  <ION MODE>  (5630) 
P

>  <INCHIKEY>  (5630) 
KZJWDPNRJALLNS-VJSFXXLFSA-N

>  <FORMULA>  (5630) 
C29H50O

>  <EXACT MASS>  (5630) 
414.38616622

>  <MW>  (5630) 
414

>  <ID>  (5630) 
JP002699

>  <CONTRIBUTOR>  (5630) 
University of Tokyo Team, {Faculty of Engineering, University of Tokyo

>  <COMMENT>  (5630) 
SMILES=C(C1)C([H])(O)CC(=C([H])4)C1(C([H])(C3([H])C4)CCC(C)(C23[H])C(CC2)([H])C(CCC([H])(CC)C(C)C)([H])C)C
InChI=InChI=1S/C29H50O/c1-7-21(19(2)3)9-8-20(4)25-12-13-26-24-11-10-22-18-23(30)14-16-28(22,5)27(24)15-17-29(25,26)6/h10,19-21,23-27,30H,7-9,11-18H2,1-6H3/t20-,21-,23+,24+,25-,26+,27+,28+,29-/m1/s1
computed SMILES=OC1CC2=CCC3C(CCC4(C)C(CCC34)C(C)CCC(CC)C(C)C)C2(C)CC1
accession=JP002699
date=2016.01.19 (Created 2008.10.21, modified 2011.05.06)
author=HAYASHI A, DEPT. OF CHEMISTRY, FAC. OF SCI. AND TECHNOLOGY, KINKI UNIV.
license=CC BY-NC-SA
exact mass=414.38617
ionization energy=70 eV
ion type=[M]+*
computed spectral entropy=4.6679124087780135
computed normalized entropy=0.8543294477850666
SPLASH=splash10-0002-2931000000-0d63e91b728deb1446a4
submitter=submitter = University of Tokyo Team (Faculty of Engineering, University of Tokyo)
MoNA Rating=3.75

>  <NUM PEAKS>  (5630) 
236

>  <MASS SPECTRAL PEAKS>  (5630) 
41 1.2
43 5.2
58 1.3
65 1.9
66 1.4
67 2.2
68 4.6
69 31.2
70 2.8
71 3.02
72 0.19
80 6.8
81 70.5
82 9.6
83 2.69
84 4.8
85 36.5
86 0.29
93 53.7
94 18.9
95 82.1
96 1.02
97 32.2
98 16.1
99 0.86
105 64.6
106 25.8
107 99.99
108 3.94
109 58.4
110 10.8
111 31.1
112 0.34
113 2.9
117 20.2
118 15.2
119 53.2
120 4.88
121 68.5
122 23.9
123 41
124 2.1
125 20.9
126 2.3
127 3.1
128 0.59
129 11.8
130 7.8
131 40.2
132 1.5
133 60.5
134 26.7
135 63.7
136 2.15
137 21.1
138 9.3
139 7.4
140 0.13
141 5.9
142 5.9
143 30.9
144 1.51
145 97.3
146 27.1
147 77.7
148 2.6
149 42.4
150 8.2
151 13.5
152 0.33
153 2.8
154 1.8
155 5
156 0.29
157 22.2
158 28.5
159 68.1
160 4.71
161 71.6
162 19.9
163 56.7
164 1.05
165 26.5
166 8.3
167 2.6
168 0.11
169 3.6
170 2.1
171 21.5
172 1
173 38.5
174 15.7
175 23
176 1.11
177 22.6
178 21.9
179 9.4
180 2
181 1.3
185 21.2
186 10.6
187 24
188 0.81
189 13.8
190 7.8
191 20.8
192 0.57
193 4.3
194 1.3
195 1
196 0.14
197 5.4
198 3.6
199 27.6
200 1.05
201 22.9
202 7.2
203 9.2
204 0.35
205 12.4
206 4.3
207 0.27
209 1.1
213 78.1
214 23.5
215 53.7
216 1.92
217 22.5
218 5
219 10.7
220 0.35
221 7
222 0.2
225 1.8
226 1.5
227 13.7
228 2.02
229 23
230 9.8
231 47.1
232 1.38
233 40.4
234 24.5
235 8.1
236 0.21
237 1
238 1.6
239 3
240 0.16
241 10.4
242 3.6
243 2.9
244 0.19
245 5.4
246 9.3
247 9
248 0.88
249 2.2
253 2.7
254 2.7
255 65.3
256 1.48
257 10
258 2.5
259 4
260 0.27
261 3.6
262 1.3
272 3.4
273 35
274 11.7
275 2.86
276 8.1
277 0.15
281 1.1
285 3
286 1.4
287 4.5
288 1.01
289 7.5
290 7.2
291 0.2
300 1.3
301 4.6
302 15.5
303 6.96
304 16.2
305 2.4
314 2.1
318 1.2
330 14
331 0.26
341 5.5
342 6.7
343 3.4
344 0.34
345 0.13
353 2.7
354 11
355 9.3
356 0.36
357 6.6
358 2
360 2.9
361 0.1
366 1.7
367 1.7
368 4.8
369 0.38
371 3.1
372 0.14
380 2.1
381 61.9
382 19.6
383 1.01
384 3.6
386 1.7
387 1
388 0.1
394 4.4
395 3.5
396 86.1
397 2.87
398 9.6
399 44.3
400 13.4
401 1.13
402 3.3
410 2
412 0.37
413 2.4
414 66.5
415 21.2
416 1.33
417 3.7
418 0.6

$$$$

     RDKit          2D

 31 34  0  0  1  0  0  0  0  0999 V2000
    9.6794    7.6838    0.0000 C   0  0  0  0  0  0  0  0  0  0  0  0
    7.2143    8.5043    0.0000 C   0  0  0  0  0  0  0  0  0  0  0  0
    3.3280    5.0551    0.0000 C   0  0  0  0  0  0  0  0  0  0  0  0
   -3.7067   -3.5753    0.0000 C   0  0  0  0  0  0  0  0  0  0  0  0
   -1.7818   -3.5657    0.0000 C   0  0  0  0  0  0  0  0  0  0  0  0
   -1.4651    1.3500    0.0000 C   0  0  0  0  0  0  0  0  0  0  0  0
    2.5987    3.5305    0.0000 C   0  0  0  0  0  0  0  0  0  0  0  0
    2.5768   -0.9228    0.0000 C   0  0  0  0  0  0  0  0  0  0  0  0
    6.2669    5.6578    0.0000 C   0  0  0  0  0  0  0  0  0  0  0  0
    7.7363    5.9592    0.0000 C   0  0  0  0  0  0  0  0  0  0  0  0
    5.7931    4.2346    0.0000 C   0  0  0  0  0  0  0  0  0  0  0  0
    1.1600   -1.6800    0.0000 C   0  0  0  0  0  0  0  0  0  0  0  0
   -0.1700   -2.4200    0.0000 C   0  0  0  0  0  0  0  0  0  0  0  0
    4.7000    1.2900    0.0000 C   0  0  0  0  0  0  0  0  0  0  0  0
   -0.1700    2.0400    0.0000 C   0  0  0  0  0  0  0  0  0  0  0  0
   -4.0600   -0.1500    0.0000 C   0  0  0  0  0  0  0  0  0  0  0  0
   -2.7500    0.5700    0.0000 C   0  0  0  0  0  0  0  0  0  0  0  0
    3.8500    0.1000    0.0000 C   0  0  0  0  0  0  0  0  0  0  0  0
    1.1600    2.8100    0.0000 C   0  0  0  0  0  0  0  0  0  0  0  0
    8.2100    7.3824    0.0000 C   0  0  0  0  0  0  0  0  0  0  0  0
    4.3237    3.9332    0.0000 C   0  0  0  0  0  0  0  0  0  0  0  0
    3.8500    2.5100    0.0000 C   0  0  0  0  0  0  0  0  0  0  0  0
   -0.1700    0.5700    0.0000 C   0  0  0  0  0  0  0  0  0  0  0  0
    1.1600   -0.1500    0.0000 C   0  0  0  0  0  0  0  0  0  0  0  0
   -1.4700   -1.6800    0.0000 C   0  0  0  0  0  0  0  0  0  0  0  0
   -4.0600   -1.6800    0.0000 C   0  0  0  0  0  0  0  0  0  0  0  0
   -2.7500   -2.4200    0.0000 C   0  0  0  0  0  0  0  0  0  0  0  0
   -1.4700   -0.1500    0.0000 C   0  0  0  0  0  0  0  0  0  0  0  0
    2.4300    2.0400    0.0000 C   0  0  0  0  0  0  0  0  0  0  0  0
    2.4300    0.5700    0.0000 C   0  0  0  0  0  0  0  0  0  0  0  0
   -5.3555   -2.4361    0.0000 O   0  0  0  0  0  0  0  0  0  0  0  0
 10  9  1  0
 11  9  1  0
 13 12  1  0
 17 16  1  0
 18 14  1  0
 19 15  1  0
 20  1  1  0
 20  2  1  0
 20 10  1  0
 21  3  1  6
 21 11  1  0
 22 14  1  1
 22 21  1  0
 23 15  1  0
 24 12  1  0
 24 23  2  0
 25 13  1  1
 26 16  1  0
 27  4  1  0
 27  5  1  0
 27 25  1  0
 27 26  1  0
 28  6  1  1
 28 17  1  0
 28 23  1  0
 28 25  1  0
 29  7  1  1
 29 19  1  0
 29 22  1  0
 30  8  1  6
 30 18  1  0
 30 24  1  0
 30 29  1  0
 26 31  1  1
M  END
>  <NAME>  (5631) 
LANOST-8-EN-3-OL

>  <SYNONYMS>  (5631) 
DIHYDROLANOSTEROL

>  <SPECTRUM TYPE>  (5631) 
MS1

>  <INSTRUMENT TYPE>  (5631) 
EI-B

>  <INSTRUMENT>  (5631) 
SHIMADZU LKB-9000B

>  <ION MODE>  (5631) 
P

>  <INCHIKEY>  (5631) 
MBZYKEVPFYHDOH-BQNIITSRSA-N

>  <FORMULA>  (5631) 
C30H52O

>  <EXACT MASS>  (5631) 
428.40181628399995

>  <MW>  (5631) 
428

>  <ID>  (5631) 
JP002697

>  <CONTRIBUTOR>  (5631) 
University of Tokyo Team, {Faculty of Engineering, University of Tokyo

>  <COMMENT>  (5631) 
SMILES=C(C4(C)1)CC(O)C(C)(C)C(CCC(=C34)C(C(CC3)(C)2)(C)CCC2([H])C([H])(C)CCCC(C)C)1[H]
cas=79-62-9
InChI=InChI=1S/C30H52O/c1-20(2)10-9-11-21(3)22-14-18-30(8)24-12-13-25-27(4,5)26(31)16-17-28(25,6)23(24)15-19-29(22,30)7/h20-22,25-26,31H,9-19H2,1-8H3/t21-,22-,25+,26+,28-,29-,30+/m1/s1
computed SMILES=OC1CCC2(C3=C(CCC2C1(C)C)C4(C)CCC(C(C)CCCC(C)C)C4(C)CC3)C
accession=JP002697
date=2016.01.19 (Created 2008.10.21, modified 2011.05.06)
author=HAYASHI A, DEPT. OF CHEMISTRY, FAC. OF SCI. AND TECHNOLOGY, KINKI UNIV.
license=CC BY-NC-SA
exact mass=428.40182
ionization energy=70 eV
ion type=[M]+*
computed spectral entropy=4.997563520446813
computed normalized entropy=0.8987321792659664
SPLASH=splash10-0002-2964200000-c6d292b0916d62ea8526
submitter=submitter = University of Tokyo Team (Faculty of Engineering, University of Tokyo)
MoNA Rating=3.75

>  <NUM PEAKS>  (5631) 
260

>  <MASS SPECTRAL PEAKS>  (5631) 
43 2.8
55 8
57 8.4
67 4.8
69 17.9
70 1.7
71 9.5
77 0.21
78 1.1
79 8.9
81 14.4
82 0.25
83 17.8
84 2.1
85 3.5
91 1.01
92 2
93 15
94 3.7
95 3.45
96 3.9
97 17.5
103 1.6
105 1.98
106 4.8
107 22
108 4.5
109 2.41
110 3.5
111 14.3
112 2
113 0.18
115 4.1
116 1.6
117 5.5
118 0.26
119 27.3
120 6
121 28.2
122 0.76
123 17.6
124 2.5
125 5.9
127 0.24
128 4.9
129 5.8
130 3.2
131 1.27
132 4.7
133 20.4
134 7.9
135 2.61
136 6.4
137 7.9
139 3.5
141 0.44
142 4.3
143 10
144 4.2
145 1.96
146 4.7
147 20.5
148 5.4
149 1.64
150 2.8
151 4.6
152 3
153 0.49
154 2.9
155 4.4
156 3.8
157 1.28
158 4.7
159 20.3
160 6.5
161 2.64
162 4.4
163 10
164 2.8
165 0.57
166 2.5
167 3.3
168 2.1
169 0.69
170 3.1
171 14.1
172 4.9
173 1.92
174 4.7
175 13.8
176 3.3
177 0.51
178 2.3
179 5.4
180 2.7
181 0.31
182 1.7
183 6
184 3.2
185 1.21
186 6.1
187 22
188 6.2
189 1.78
190 4.2
191 6.3
192 2
193 0.76
194 2.2
195 3.7
196 2.4
197 0.61
198 3.7
199 9.9
200 3.7
201 1.24
202 5.1
203 12.4
204 7.5
205 1.38
206 6.9
207 5.7
208 1.7
209 3.7
210 2.7
211 4.5
212 3.7
213 1.08
214 6
215 14.5
216 4.3
217 0.45
218 1.3
219 7
220 2.4
221 0.3
222 1.8
223 3.9
224 2.1
225 0.65
226 2.9
227 15.6
228 5.5
229 1.54
230 3.6
231 6.3
233 5.1
234 0.24
235 1.9
236 1.9
237 3.3
238 0.24
239 6.4
240 5.6
241 16.2
242 0.34
243 8.9
244 2.9
245 7.7
246 0.33
247 7.8
248 2.9
249 2.3
251 0.23
252 2.5
253 6.6
254 5.2
255 1.27
256 3.7
257 8.3
258 4.4
259 1.17
260 3.4
261 8
262 2.6
265 0.16
267 3.3
269 6.7
270 3.6
271 1.12
272 4.7
273 16.4
274 6.7
275 0.69
276 2.8
279 2.2
281 2.8
282 0.32
283 6.7
284 2.7
285 3.5
286 0.36
287 4
288 3.4
289 1.6
293 0.24
295 5.1
296 2.7
297 16.9
298 0.42
299 7.6
300 2.4
301 4.6
311 0.5
312 1.8
313 6.3
314 3
315 0.67
316 2.3
327 4.2
328 3
329 2.7
331 0.14
337 1.5
339 4.9
340 2.7
341 0.7
342 2.9
343 2
351 1.4
353 0.31
354 2
355 2.7
365 6
366 0.27
367 5.7
368 2.2
373 2.1
377 0.54
378 9.7
379 6.2
380 3.5
381 0.21
382 1.6
389 2
391 3.4
392 0.32
393 13.1
394 6
395 99.99
396 36.4
397 7.7
398 2.2
399 2.3
405 0.2
406 3.6
407 1.6
408 7.7
409 0.47
410 12.6
411 19.4
412 8.1
413 8.59
414 26.8
415 5.2
424 2.4
426 0.75
427 3.6
428 13.5
429 5.1

$$$$

     RDKit          2D

 31 34  0  0  1  0  0  0  0  0999 V2000
    9.6794    7.6838    0.0000 C   0  0  0  0  0  0  0  0  0  0  0  0
    7.2143    8.5043    0.0000 C   0  0  0  0  0  0  0  0  0  0  0  0
    3.3280    5.0551    0.0000 C   0  0  0  0  0  0  0  0  0  0  0  0
   -3.7067   -3.5753    0.0000 C   0  0  0  0  0  0  0  0  0  0  0  0
   -1.7818   -3.5657    0.0000 C   0  0  0  0  0  0  0  0  0  0  0  0
   -1.4651    1.3500    0.0000 C   0  0  0  0  0  0  0  0  0  0  0  0
    2.5987    3.5305    0.0000 C   0  0  0  0  0  0  0  0  0  0  0  0
    2.5768   -0.9228    0.0000 C   0  0  0  0  0  0  0  0  0  0  0  0
    6.2669    5.6578    0.0000 C   0  0  0  0  0  0  0  0  0  0  0  0
    7.7363    5.9592    0.0000 C   0  0  0  0  0  0  0  0  0  0  0  0
    5.7931    4.2346    0.0000 C   0  0  0  0  0  0  0  0  0  0  0  0
    1.1600   -1.6800    0.0000 C   0  0  0  0  0  0  0  0  0  0  0  0
   -0.1700   -2.4200    0.0000 C   0  0  0  0  0  0  0  0  0  0  0  0
    4.7000    1.2900    0.0000 C   0  0  0  0  0  0  0  0  0  0  0  0
   -0.1700    2.0400    0.0000 C   0  0  0  0  0  0  0  0  0  0  0  0
   -4.0600   -0.1500    0.0000 C   0  0  0  0  0  0  0  0  0  0  0  0
   -2.7500    0.5700    0.0000 C   0  0  0  0  0  0  0  0  0  0  0  0
    3.8500    0.1000    0.0000 C   0  0  0  0  0  0  0  0  0  0  0  0
    1.1600    2.8100    0.0000 C   0  0  0  0  0  0  0  0  0  0  0  0
    8.2100    7.3824    0.0000 C   0  0  0  0  0  0  0  0  0  0  0  0
    4.3237    3.9332    0.0000 C   0  0  0  0  0  0  0  0  0  0  0  0
    3.8500    2.5100    0.0000 C   0  0  0  0  0  0  0  0  0  0  0  0
   -0.1700    0.5700    0.0000 C   0  0  0  0  0  0  0  0  0  0  0  0
    1.1600   -0.1500    0.0000 C   0  0  0  0  0  0  0  0  0  0  0  0
   -1.4700   -1.6800    0.0000 C   0  0  0  0  0  0  0  0  0  0  0  0
   -4.0600   -1.6800    0.0000 C   0  0  0  0  0  0  0  0  0  0  0  0
   -2.7500   -2.4200    0.0000 C   0  0  0  0  0  0  0  0  0  0  0  0
   -1.4700   -0.1500    0.0000 C   0  0  0  0  0  0  0  0  0  0  0  0
    2.4300    2.0400    0.0000 C   0  0  0  0  0  0  0  0  0  0  0  0
    2.4300    0.5700    0.0000 C   0  0  0  0  0  0  0  0  0  0  0  0
   -5.3555   -2.4361    0.0000 O   0  0  0  0  0  0  0  0  0  0  0  0
 10  9  1  0
 11  9  1  0
 13 12  1  0
 17 16  1  0
 18 14  1  0
 19 15  1  0
 20  1  1  0
 20  2  1  0
 20 10  2  0
 21  3  1  6
 21 11  1  0
 22 14  1  1
 22 21  1  0
 23 15  1  0
 24 12  1  0
 24 23  2  0
 25 13  1  1
 26 16  1  0
 27  4  1  0
 27  5  1  0
 27 25  1  0
 27 26  1  0
 28  6  1  1
 28 17  1  0
 28 23  1  0
 28 25  1  0
 29  7  1  1
 29 19  1  0
 29 22  1  0
 30  8  1  6
 30 18  1  0
 30 24  1  0
 30 29  1  0
 26 31  1  1
M  END
>  <NAME>  (5632) 
LANOSTA-8,24-DIEN-3-OL

>  <SYNONYMS>  (5632) 
LANOSTEROL

>  <SPECTRUM TYPE>  (5632) 
MS1

>  <INSTRUMENT TYPE>  (5632) 
EI-B

>  <INSTRUMENT>  (5632) 
SHIMADZU LKB-9000B

>  <ION MODE>  (5632) 
P

>  <INCHIKEY>  (5632) 
CAHGCLMLTWQZNJ-BQNIITSRSA-N

>  <FORMULA>  (5632) 
C30H50O

>  <EXACT MASS>  (5632) 
426.38616622

>  <MW>  (5632) 
426

>  <ID>  (5632) 
JP002696

>  <CONTRIBUTOR>  (5632) 
University of Tokyo Team, {Faculty of Engineering, University of Tokyo

>  <COMMENT>  (5632) 
SMILES=C(C4(C)1)CC(O)C(C)(C)C(CCC(=C34)C(C(CC3)(C)2)(C)CCC2([H])C([H])(C)CCC=C(C)C)1[H]
InChI=InChI=1S/C30H50O/c1-20(2)10-9-11-21(3)22-14-18-30(8)24-12-13-25-27(4,5)26(31)16-17-28(25,6)23(24)15-19-29(22,30)7/h10,21-22,25-26,31H,9,11-19H2,1-8H3/t21-,22-,25+,26+,28-,29-,30+/m1/s1
computed SMILES=OC1CCC2(C3=C(CCC2C1(C)C)C4(C)CCC(C(C)CCC=C(C)C)C4(C)CC3)C
accession=JP002696
date=2016.01.19 (Created 2008.10.21, modified 2011.05.06)
author=HAYASHI A, DEPT. OF CHEMISTRY, FAC. OF SCI. AND TECHNOLOGY, KINKI UNIV.
license=CC BY-NC-SA
exact mass=426.38617
ionization energy=70 eV
ion type=[M]+*
computed spectral entropy=4.895729964080611
computed normalized entropy=0.8739068414317985
SPLASH=splash10-03dl-2953300000-ae1832f19369485ff53c
submitter=submitter = University of Tokyo Team (Faculty of Engineering, University of Tokyo)
MoNA Rating=3.75

>  <NUM PEAKS>  (5632) 
271

>  <MASS SPECTRAL PEAKS>  (5632) 
41 1.7
53 1.5
55 11.1
56 1.4
57 2.9
65 2
67 7.6
68 0.21
69 49.3
70 3.4
71 4
77 0.34
78 1.1
79 10.8
81 24.3
82 0.43
83 13.7
84 1.7
85 2.2
91 1.31
92 2.5
93 18.5
94 3
95 3.97
96 5
97 9.7
98 1.4
103 0.19
104 2.1
105 24.9
106 4.2
107 3.02
108 6.2
109 60.8
110 6.4
111 0.9
112 1.6
115 4.9
116 2.3
117 0.73
118 2.7
119 30.5
120 8
121 3.38
122 9.3
123 26.2
124 3.8
125 0.35
127 3
128 4.8
129 6.9
130 0.4
131 15.1
132 5.5
133 25.4
134 0.82
135 33.7
136 7.6
137 16.7
138 0.27
139 2.8
141 4.4
142 4.3
143 0.93
144 4.1
145 23.3
146 6.4
147 2.68
148 7.4
149 22
150 2.7
151 0.52
152 3.2
153 4
154 3
155 0.6
156 4.6
157 12.3
158 5.5
159 2.5
160 8.2
161 29
162 6.4
163 1.29
164 2.9
165 8.1
166 2.6
167 0.3
168 2.6
169 7.5
170 3.5
171 1.41
172 5.1
173 22.5
174 6.2
175 1.99
176 3.8
177 8.3
178 2.4
179 0.52
180 2.8
181 2.8
182 2.4
183 0.7
184 3.5
185 11.9
186 6.1
187 2.8
188 6.8
189 32.8
190 7.1
191 1.06
192 3.2
193 3.7
194 1.5
195 0.36
196 2.6
197 7.3
198 4.2
199 1.08
200 4.8
201 17.6
202 7.3
203 22.1
204 8.1
205 13.9
206 4.6
207 0.27
208 1.9
209 4.1
210 2.9
211 0.51
212 4.3
213 14.1
214 6.8
215 2.12
216 5.2
217 7.5
218 2
219 0.49
220 2.3
221 2.3
223 3
224 0.29
225 6.6
226 3.5
227 15.8
228 0.63
229 19.6
230 4.1
231 6
232 0.19
233 3.7
237 2.6
238 2.1
239 0.71
240 5.3
241 21.2
242 6.3
243 1.17
244 3.7
245 8.2
246 3.3
247 0.78
248 1.7
249 1.7
251 2.7
252 0.15
253 6.9
254 3.9
255 15.3
256 0.46
257 13.5
258 5.7
259 16.9
260 0.45
261 3.1
265 1.9
266 1.6
267 0.45
268 2.4
269 7.4
270 3.7
271 1.45
272 6.6
273 10.8
274 3.5
275 0.19
279 2.7
280 2.1
281 4
282 0.35
283 7.5
284 2.9
285 4.5
286 0.24
287 2.2
288 2
293 3.1
294 0.14
295 6.2
296 3
297 10.8
298 0.34
299 5.5
300 2.7
307 2.1
308 0.17
309 6
310 2.5
311 9.3
312 0.37
313 3.4
314 3.1
315 6.3
316 0.25
317 1.2
323 6.4
324 3.4
325 0.7
326 3.7
327 4.8
328 2
329 0.2
337 4.9
338 2.6
339 11.2
340 0.44
341 7.4
342 2.8
344 1.9
350 0.15
351 2
352 1.8
353 2.1
355 0.23
363 4.9
365 6.5
366 2.5
373 0.27
375 2.5
376 6.9
377 5.3
378 3.5
379 2.2
389 2.3
390 1.7
391 0.96
392 6.4
393 86.5
394 27.7
395 0.53
396 3.8
397 3.7
398 2.5
399 0.15
404 2.3
405 2.1
406 5.2
407 0.39
408 13.7
409 15.5
410 6.3
411 99.99
412 32.9
413 5.6
424 9.1
425 0.43
426 25.7
427 9.4
428 2.5

$$$$

     RDKit          2D

 29 32  0  0  1  0  0  0  0  0999 V2000
    9.5655    7.2342    0.0000 C   0  0  0  0  0  0  0  0  0  0  0  0
    7.1046    8.0672    0.0000 C   0  0  0  0  0  0  0  0  0  0  0  0
    8.6037    4.3926    0.0000 C   0  0  0  0  0  0  0  0  0  0  0  0
    3.2009    4.6377    0.0000 C   0  0  0  0  0  0  0  0  0  0  0  0
   -1.6125    0.9400    0.0000 C   0  0  0  0  0  0  0  0  0  0  0  0
    2.4507    3.1203    0.0000 C   0  0  0  0  0  0  0  0  0  0  0  0
    6.1427    5.2256    0.0000 C   0  0  0  0  0  0  0  0  0  0  0  0
    5.6618    3.8047    0.0000 C   0  0  0  0  0  0  0  0  0  0  0  0
   -0.3200   -2.8400    0.0000 C   0  0  0  0  0  0  0  0  0  0  0  0
    1.0100   -2.0900    0.0000 C   0  0  0  0  0  0  0  0  0  0  0  0
    4.5500    0.8800    0.0000 C   0  0  0  0  0  0  0  0  0  0  0  0
    3.7100   -0.3100    0.0000 C   0  0  0  0  0  0  0  0  0  0  0  0
   -4.2000   -0.5600    0.0000 C   0  0  0  0  0  0  0  0  0  0  0  0
   -0.3200    1.6300    0.0000 C   0  0  0  0  0  0  0  0  0  0  0  0
   -2.8900    0.1600    0.0000 C   0  0  0  0  0  0  0  0  0  0  0  0
    1.0100    2.3900    0.0000 C   0  0  0  0  0  0  0  0  0  0  0  0
   -2.8900   -2.8400    0.0000 C   0  0  0  0  0  0  0  0  0  0  0  0
    8.0946    6.9403    0.0000 C   0  0  0  0  0  0  0  0  0  0  0  0
    7.6137    5.5195    0.0000 C   0  0  0  0  0  0  0  0  0  0  0  0
    4.1909    3.5108    0.0000 C   0  0  0  0  0  0  0  0  0  0  0  0
   -1.6200   -2.0900    0.0000 C   0  0  0  0  0  0  0  0  0  0  0  0
   -4.2000   -2.0900    0.0000 C   0  0  0  0  0  0  0  0  0  0  0  0
    1.0100   -0.5600    0.0000 C   0  0  0  0  0  0  0  0  0  0  0  0
    3.7100    2.0900    0.0000 C   0  0  0  0  0  0  0  0  0  0  0  0
    2.2800    0.1600    0.0000 C   0  0  0  0  0  0  0  0  0  0  0  0
   -0.3200    0.1600    0.0000 C   0  0  0  0  0  0  0  0  0  0  0  0
   -1.6200   -0.5600    0.0000 C   0  0  0  0  0  0  0  0  0  0  0  0
    2.2800    1.6300    0.0000 C   0  0  0  0  0  0  0  0  0  0  0  0
   -5.4977   -2.8424    0.0000 O   0  0  0  0  0  0  0  0  0  0  0  0
  8  7  1  0
 10  9  1  0
 12 11  1  0
 15 13  1  0
 16 14  1  0
 18  1  1  0
 18  2  1  0
 19  3  2  0
 19  7  1  0
 19 18  1  0
 20  4  1  0
 20  8  1  0
 21  9  2  0
 21 17  1  0
 22 13  1  0
 22 17  1  0
 23 10  1  6
 24 11  1  0
 24 20  1  1
 25 12  1  1
 25 23  1  0
 26 14  1  1
 26 23  1  0
 27  5  1  1
 27 15  1  0
 27 21  1  0
 27 26  1  0
 28  6  1  1
 28 16  1  0
 28 24  1  0
 28 25  1  0
 22 29  1  1
M  END
>  <NAME>  (5633) 
ERGOSTA-5,24(28)-DIEN-3-OL

>  <SYNONYMS>  (5633) 
24-METHYLENE-CHOLESTEROL

>  <SPECTRUM TYPE>  (5633) 
MS1

>  <INSTRUMENT TYPE>  (5633) 
EI-B

>  <INSTRUMENT>  (5633) 
SHIMADZU LKB-9000B

>  <ION MODE>  (5633) 
P

>  <INCHIKEY>  (5633) 
INDVLXYUCBVVKW-FXSBVPLVSA-N

>  <FORMULA>  (5633) 
C28H46O

>  <EXACT MASS>  (5633) 
398.35486609199995

>  <MW>  (5633) 
398

>  <ID>  (5633) 
JP002695

>  <CONTRIBUTOR>  (5633) 
University of Tokyo Team, {Faculty of Engineering, University of Tokyo

>  <COMMENT>  (5633) 
SMILES=C(C4)C([H])(C(CCC(C(C)C)=C)C)C(C([H])14)(CCC(C3(C)2)(C([H])(CC=C2CC([H])(O)CC3)1)[H])C
cas=474-63-5
InChI=InChI=1S/C28H46O/c1-18(2)19(3)7-8-20(4)24-11-12-25-23-10-9-21-17-22(29)13-15-27(21,5)26(23)14-16-28(24,25)6/h9,18,20,22-26,29H,3,7-8,10-17H2,1-2,4-6H3/t20?,22-,23-,24+,25-,26-,27-,28+/m0/s1
computed SMILES=OC1CC2=CCC3C(CCC4(C)C(CCC34)C(C)CCC(=C)C(C)C)C2(C)CC1
accession=JP002695
date=2016.01.19 (Created 2008.10.21, modified 2011.05.06)
author=HAYASHI A, DEPT. OF CHEMISTRY, FAC. OF SCI. AND TECHNOLOGY, KINKI UNIV.
license=CC BY-NC-SA
exact mass=398.35487
ionization energy=70 eV
ion type=[M]+*
computed spectral entropy=4.881441395826677
computed normalized entropy=0.8821792512114003
SPLASH=splash10-03di-1962000000-57350ffaada83a120f9a
submitter=submitter = University of Tokyo Team (Faculty of Engineering, University of Tokyo)
MoNA Rating=3.75

>  <NUM PEAKS>  (5633) 
253

>  <MASS SPECTRAL PEAKS>  (5633) 
41 1.3
53 1.9
55 12.3
56 1.6
57 3.2
65 2.2
67 11
68 0.28
69 20.7
70 3.2
71 3.4
73 1.6
77 0.53
78 2.8
79 19.3
80 3.5
81 2.97
82 5.2
83 12.6
84 4.1
85 0.14
94 8.1
95 39.1
96 7.3
97 1.83
98 3.5
103 3.5
104 3.7
105 3.9
106 11.6
107 49.2
108 11.8
109 2.98
110 5.5
111 8.4
112 1.4
113 0.19
115 5.8
116 3.7
117 14.8
118 0.96
119 32.4
120 23.6
121 34.5
122 1
123 19.7
124 11.5
125 8.8
126 0.28
127 2.4
128 6.3
129 12.2
130 0.76
131 26.8
132 12.7
133 36.4
134 1.54
135 30
136 7.4
137 11.7
138 0.44
139 1.3
141 6.8
142 6.3
143 2.97
144 12.3
145 52.6
146 17.7
147 3.41
148 10
149 21.6
150 6.7
151 0.96
152 3.3
153 1.6
156 7.6
157 24.3
158 26.8
159 4.39
160 21.7
161 41.5
162 12.6
163 1.88
164 5.1
165 3.4
166 3.2
167 0.17
168 2.7
169 6.6
170 3
171 1.87
172 9.4
173 26.2
174 12.5
175 2.23
176 9.8
177 11.6
178 5.6
179 0.26
184 4.8
185 17.3
186 10.2
187 1.84
188 8.5
189 15.3
190 6.4
191 0.55
192 2
193 2
196 1.6
197 14.5
198 4.6
199 22.2
200 6.8
201 11.6
202 9.5
203 1.6
204 4.8
205 4
206 2.3
207 0.15
208 3
209 3.2
210 1.7
211 2.17
212 10.8
213 45.6
214 15.2
215 1.53
216 6.4
217 9.5
218 1.6
219 0.3
220 3.4
221 3.4
222 0.17
224 2.2
225 8.5
226 5.7
227 1.47
228 19.1
229 39.1
230 12.4
231 2.53
232 7.4
233 0.43
236 3.3
237 3.7
238 2.5
239 0.85
240 5.2
241 9.9
242 4.9
243 0.58
244 4.4
245 9.1
246 9.4
247 0.5
248 1.9
249 2.4
250 2
251 0.36
252 4.3
253 24.5
254 11.2
255 2.01
256 9
257 9.2
258 7.6
259 1.33
260 2.8
261 2.1
262 1.4
263 0.15
264 1.8
265 2.8
266 2.4
267 0.59
268 4.7
269 5.4
270 6.8
271 5.27
272 25.7
273 10.8
274 3
275 0.23
277 2
278 1.9
279 3.2
280 0.34
281 43.3
282 14.4
283 16.7
284 0.58
285 6.1
286 4.3
287 9.9
288 0.31
289 1.7
293 1.6
294 1.7
295 0.42
296 28.1
297 12.9
298 5.7
299 3.81
300 15.5
301 6.5
302 2.4
307 0.12
308 1.4
309 2.2
310 2.9
311 0.35
312 8.2
313 9.6
314 99.99
315 0.72
326 2.7
327 1
328 0.15
330 3
338 4.1
339 2.3
340 3.2
341 0.16
342 1.3
343 1.8
344 1.3
347 0.16
349 1.5
351 2.5
352 2
355 0.2
358 1.7
362 1.4
363 2
364 0.21
365 20.4
366 7.5
367 2.2
369 0.13
378 6
379 3
380 27.4
381 0.93
382 3.3
383 18.2
384 5.4
385 0.19
390 1.6
394 2.4
399 2.7

$$$$

     RDKit          2D

 28 31  0  0  1  0  0  0  0  0999 V2000
    9.5655    7.2342    0.0000 C   0  0  0  0  0  0  0  0  0  0  0  0
    7.1046    8.0672    0.0000 C   0  0  0  0  0  0  0  0  0  0  0  0
    3.2009    4.6377    0.0000 C   0  0  0  0  0  0  0  0  0  0  0  0
   -1.6125    0.9400    0.0000 C   0  0  0  0  0  0  0  0  0  0  0  0
    2.4507    3.1203    0.0000 C   0  0  0  0  0  0  0  0  0  0  0  0
    6.1427    5.2256    0.0000 C   0  0  0  0  0  0  0  0  0  0  0  0
    7.6137    5.5195    0.0000 C   0  0  0  0  0  0  0  0  0  0  0  0
    5.6618    3.8047    0.0000 C   0  0  0  0  0  0  0  0  0  0  0  0
   -0.3200   -2.8400    0.0000 C   0  0  0  0  0  0  0  0  0  0  0  0
    1.0100   -2.0900    0.0000 C   0  0  0  0  0  0  0  0  0  0  0  0
    4.5500    0.8800    0.0000 C   0  0  0  0  0  0  0  0  0  0  0  0
    3.7100   -0.3100    0.0000 C   0  0  0  0  0  0  0  0  0  0  0  0
   -4.2000   -0.5600    0.0000 C   0  0  0  0  0  0  0  0  0  0  0  0
   -0.3200    1.6300    0.0000 C   0  0  0  0  0  0  0  0  0  0  0  0
   -2.8900    0.1600    0.0000 C   0  0  0  0  0  0  0  0  0  0  0  0
    1.0100    2.3900    0.0000 C   0  0  0  0  0  0  0  0  0  0  0  0
   -2.8900   -2.8400    0.0000 C   0  0  0  0  0  0  0  0  0  0  0  0
    8.0946    6.9403    0.0000 C   0  0  0  0  0  0  0  0  0  0  0  0
    4.1909    3.5108    0.0000 C   0  0  0  0  0  0  0  0  0  0  0  0
   -1.6200   -2.0900    0.0000 C   0  0  0  0  0  0  0  0  0  0  0  0
   -4.2000   -2.0900    0.0000 C   0  0  0  0  0  0  0  0  0  0  0  0
    1.0100   -0.5600    0.0000 C   0  0  0  0  0  0  0  0  0  0  0  0
    3.7100    2.0900    0.0000 C   0  0  0  0  0  0  0  0  0  0  0  0
    2.2800    0.1600    0.0000 C   0  0  0  0  0  0  0  0  0  0  0  0
   -0.3200    0.1600    0.0000 C   0  0  0  0  0  0  0  0  0  0  0  0
   -1.6200   -0.5600    0.0000 C   0  0  0  0  0  0  0  0  0  0  0  0
    2.2800    1.6300    0.0000 C   0  0  0  0  0  0  0  0  0  0  0  0
   -5.4977   -2.8424    0.0000 O   0  0  0  0  0  0  0  0  0  0  0  0
  7  6  1  0
  8  6  1  0
 10  9  1  0
 12 11  1  0
 15 13  1  0
 16 14  1  0
 18  1  1  0
 18  2  1  0
 18  7  1  0
 19  3  1  6
 19  8  1  0
 20  9  1  1
 20 17  1  0
 21 13  1  0
 21 17  1  0
 22 10  1  6
 23 11  1  1
 23 19  1  0
 24 12  1  1
 24 22  1  0
 25 14  1  1
 25 22  1  0
 26  4  1  1
 26 15  1  0
 26 20  1  0
 26 25  1  0
 27  5  1  1
 27 16  1  0
 27 23  1  0
 27 24  1  0
 21 28  1  1
M  END
>  <NAME>  (5634) 
DIHYDROCHOLESTEROL

>  <SYNONYMS>  (5634) 
CHOLESTANOL

>  <SPECTRUM TYPE>  (5634) 
MS1

>  <INSTRUMENT TYPE>  (5634) 
EI-B

>  <INSTRUMENT>  (5634) 
SHIMADZU LKB-9000B

>  <ION MODE>  (5634) 
P

>  <INCHIKEY>  (5634) 
QYIXCDOBOSTCEI-QCYZZNICSA-N

>  <FORMULA>  (5634) 
C27H48O

>  <EXACT MASS>  (5634) 
388.37051615599995

>  <MW>  (5634) 
388

>  <ID>  (5634) 
JP002694

>  <CONTRIBUTOR>  (5634) 
University of Tokyo Team, {Faculty of Engineering, University of Tokyo

>  <COMMENT>  (5634) 
SMILES=[H]C(C)(CCCC(C)C)C(C1(C)4)([H])CCC1(C(C([H])2CC4)([H])CCC([H])(C3)C2(C)CCC3([H])O)[H]
cas=80-97-7
InChI=InChI=1S/C27H48O/c1-18(2)7-6-8-19(3)23-11-12-24-22-10-9-20-17-21(28)13-15-26(20,4)25(22)14-16-27(23,24)5/h18-25,28H,6-17H2,1-5H3/t19-,20+,21+,22+,23-,24+,25+,26+,27-/m1/s1
computed SMILES=OC1CCC2(C)C(CCC3C4CCC(C(C)CCCC(C)C)C4(C)CCC32)C1
accession=JP002694
date=2016.01.19 (Created 2008.10.21, modified 2011.05.06)
author=HAYASHI A, DEPT. OF CHEMISTRY, FAC. OF SCI. AND TECHNOLOGY, KINKI UNIV.
license=CC BY-NC-SA
exact mass=388.37052
ionization energy=70 eV
ion type=[M]+*
computed spectral entropy=4.111925677618134
computed normalized entropy=0.8447656035045163
SPLASH=splash10-0159-2971000000-c73c47a340a1d4a167e1
submitter=submitter = University of Tokyo Team (Faculty of Engineering, University of Tokyo)
MoNA Rating=3.75

>  <NUM PEAKS>  (5634) 
130

>  <MASS SPECTRAL PEAKS>  (5634) 
55 7.8
56 1.1
57 0.67
69 11.3
70 1.9
71 0.57
77 4.1
78 1.4
79 14.5
80 0.4
81 29
82 7.4
83 12
84 0.14
85 0.19
93 25.2
94 11.5
95 39
96 0.57
97 12.3
98 0.12
105 17.7
106 14.7
107 45.9
108 4.28
109 31.1
110 5.7
111 11.5
112 0.13
117 3.3
118 2.3
119 16.1
120 1.32
121 34
122 23.5
123 26.7
124 1.57
125 6.3
126 1.2
133 16.7
134 13.3
135 25
136 1.31
137 10.6
138 5
139 0.17
145 12
146 4.6
147 30
148 1.5
149 23.4
150 4.6
151 5.2
152 0.31
153 0.11
157 1.2
161 21.2
162 12.4
163 11.1
164 0.47
165 52.3
166 19.2
167 0.43
173 8.6
174 4.9
175 10.2
176 0.73
177 5.8
178 5
179 3.1
189 6.8
190 11
191 7.4
192 0.36
193 0.28
201 14.3
202 4.9
203 8.8
204 0.37
205 3.9
206 5.8
207 2.2
208 0.27
213 2
214 1.5
215 99.99
216 4.11
217 40.7
218 7.2
219 11.5
220 0.35
229 4.1
230 12
231 17.8
232 0.93
233 87.7
234 46.7
235 8.4
236 0.1
243 1.9
247 4.2
248 12.7
249 0.28
256 1
257 22.1
258 5
259 0.17
260 1.3
261 2.1
262 12.7
263 0.47
264 0.14
275 3.9
276 0.19
288 3.4
289 0.2
331 5.5
332 1.6
356 6.7
357 1.2
371 6
372 1.8
373 28.3
374 0.84
375 0.13
387 1.4
388 28.6
389 9
390 0.14
391 0.2

$$$$

     RDKit          2D

 28 31  0  0  1  0  0  0  0  0999 V2000
    9.5655    7.2342    0.0000 C   0  0  0  0  0  0  0  0  0  0  0  0
    7.1046    8.0672    0.0000 C   0  0  0  0  0  0  0  0  0  0  0  0
    3.2009    4.6377    0.0000 C   0  0  0  0  0  0  0  0  0  0  0  0
   -1.6125    0.9400    0.0000 C   0  0  0  0  0  0  0  0  0  0  0  0
    2.4507    3.1203    0.0000 C   0  0  0  0  0  0  0  0  0  0  0  0
    6.1427    5.2256    0.0000 C   0  0  0  0  0  0  0  0  0  0  0  0
    7.6137    5.5195    0.0000 C   0  0  0  0  0  0  0  0  0  0  0  0
    5.6618    3.8047    0.0000 C   0  0  0  0  0  0  0  0  0  0  0  0
   -0.3200   -2.8400    0.0000 C   0  0  0  0  0  0  0  0  0  0  0  0
    1.0100   -2.0900    0.0000 C   0  0  0  0  0  0  0  0  0  0  0  0
    4.5500    0.8800    0.0000 C   0  0  0  0  0  0  0  0  0  0  0  0
    3.7100   -0.3100    0.0000 C   0  0  0  0  0  0  0  0  0  0  0  0
   -4.2000   -0.5600    0.0000 C   0  0  0  0  0  0  0  0  0  0  0  0
   -0.3200    1.6300    0.0000 C   0  0  0  0  0  0  0  0  0  0  0  0
   -2.8900    0.1600    0.0000 C   0  0  0  0  0  0  0  0  0  0  0  0
    1.0100    2.3900    0.0000 C   0  0  0  0  0  0  0  0  0  0  0  0
   -2.8900   -2.8400    0.0000 C   0  0  0  0  0  0  0  0  0  0  0  0
    8.0946    6.9403    0.0000 C   0  0  0  0  0  0  0  0  0  0  0  0
    4.1909    3.5108    0.0000 C   0  0  0  0  0  0  0  0  0  0  0  0
   -1.6200   -2.0900    0.0000 C   0  0  0  0  0  0  0  0  0  0  0  0
   -4.2000   -2.0900    0.0000 C   0  0  0  0  0  0  0  0  0  0  0  0
    1.0100   -0.5600    0.0000 C   0  0  0  0  0  0  0  0  0  0  0  0
    3.7100    2.0900    0.0000 C   0  0  0  0  0  0  0  0  0  0  0  0
    2.2800    0.1600    0.0000 C   0  0  0  0  0  0  0  0  0  0  0  0
   -0.3200    0.1600    0.0000 C   0  0  0  0  0  0  0  0  0  0  0  0
   -1.6200   -0.5600    0.0000 C   0  0  0  0  0  0  0  0  0  0  0  0
    2.2800    1.6300    0.0000 C   0  0  0  0  0  0  0  0  0  0  0  0
   -5.4977   -2.8424    0.0000 O   0  0  0  0  0  0  0  0  0  0  0  0
  7  6  1  0
  8  6  1  0
 10  9  1  0
 12 11  1  0
 15 13  1  0
 16 14  1  0
 18  1  1  0
 18  2  1  0
 18  7  1  0
 19  3  1  6
 19  8  1  0
 20  9  2  0
 20 17  1  0
 21 13  1  0
 21 17  1  0
 22 10  1  6
 23 11  1  1
 23 19  1  0
 24 12  1  1
 24 22  1  0
 25 14  1  1
 25 22  1  0
 26  4  1  1
 26 15  1  0
 26 20  1  0
 26 25  1  0
 27  5  1  1
 27 16  1  0
 27 23  1  0
 27 24  1  0
 21 28  1  1
M  END
>  <NAME>  (5635) 
CHOLESTEROL

>  <SYNONYMS>  (5635) 


>  <SPECTRUM TYPE>  (5635) 
MS1

>  <INSTRUMENT TYPE>  (5635) 
EI-B

>  <INSTRUMENT>  (5635) 
SHIMADZU LKB-9000B

>  <ION MODE>  (5635) 
P

>  <INCHIKEY>  (5635) 
HVYWMOMLDIMFJA-DPAQBDIFSA-N

>  <FORMULA>  (5635) 
C27H46O

>  <EXACT MASS>  (5635) 
386.35486609199995

>  <MW>  (5635) 
386

>  <ID>  (5635) 
JP002693

>  <CONTRIBUTOR>  (5635) 
University of Tokyo Team, {Faculty of Engineering, University of Tokyo

>  <COMMENT>  (5635) 
SMILES=C(C2([H])3)([H])(C(C)(C4)C(CC(C4)([H])O)=CC3)CCC(C2([H])1)(C)C([H])(CC1)C(CCCC(C)C)([H])C
cas=57-88-5
InChI=InChI=1S/C27H46O/c1-18(2)7-6-8-19(3)23-11-12-24-22-10-9-20-17-21(28)13-15-26(20,4)25(22)14-16-27(23,24)5/h9,18-19,21-25,28H,6-8,10-17H2,1-5H3/t19-,21+,22+,23-,24+,25+,26+,27-/m1/s1
computed SMILES=OC1CC2=CCC3C(CCC4(C)C(CCC34)C(C)CCCC(C)C)C2(C)CC1
accession=JP002693
date=2016.01.19 (Created 2008.10.21, modified 2011.05.06)
author=HAYASHI A, DEPT. OF CHEMISTRY, FAC. OF SCI. AND TECHNOLOGY, KINKI UNIV.
license=CC BY-NC-SA
exact mass=386.35487
ionization energy=70 eV
ion type=[M]+*
computed spectral entropy=4.849229727957133
computed normalized entropy=0.8744949600818867
SPLASH=splash10-052b-2932000000-1667c83d002043a59fff
submitter=submitter = University of Tokyo Team (Faculty of Engineering, University of Tokyo)
MoNA Rating=3.75

>  <NUM PEAKS>  (5635) 
256

>  <MASS SPECTRAL PEAKS>  (5635) 
41 2.5
43 6.3
53 2.2
55 18.5
56 2.8
57 19.4
65 3.9
67 2.2
68 4.1
69 23.5
70 3.3
71 1.65
73 2.3
75 2.5
77 10.9
78 0.38
79 30.9
80 5.2
81 59.6
82 0.9
83 15.1
84 3.3
85 1.1
87 0.23
91 46.2
92 12.2
93 47.9
94 1.44
95 68
96 7.9
97 20.1
98 0.27
99 2.5
103 4.8
104 6.9
105 5.86
106 23.4
107 78.8
108 25
109 4.75
110 8.5
111 15.1
112 2.4
113 0.3
115 9.9
116 5.3
117 27.2
118 1.65
119 50.6
120 45.2
121 57.4
122 1.69
123 25.6
124 14.6
125 11.8
127 0.5
128 10.9
129 18.2
130 11.5
131 4.55
132 15.2
133 57.3
134 20.5
135 5.82
136 18
137 13.9
138 5.8
139 0.41
141 13.7
142 12.9
143 41.1
144 1.95
145 99.99
146 31.4
147 71.3
148 2.36
149 36
150 4.5
151 12.3
152 0.59
153 6
154 4
155 12.6
156 0.89
157 27.5
158 31.9
159 66.8
160 4.59
161 59.1
162 17.5
163 40.4
164 0.78
165 10.5
166 3.9
167 4.4
168 0.29
169 6.8
170 5.5
171 20
172 1.1
173 32.5
174 17
175 18.9
176 0.87
177 15
178 13.3
179 10
180 0.29
181 5.1
182 2
183 7.1
184 0.35
185 19.8
186 9.1
187 20.7
188 0.67
189 11
190 4.4
191 13
192 0.54
193 12.7
194 4.3
195 6.5
196 4.5
197 10.8
198 5.5
199 22.5
200 1.27
201 18.8
202 6.7
203 6.5
204 0.28
205 12.6
206 11.2
207 6.7
208 0.3
209 5.6
210 3
211 12.1
212 0.54
213 65.9
214 21
215 17.4
216 0.55
217 7.9
218 4.9
219 11.2
220 0.54
221 4
223 3
224 2.1
225 0.45
226 4.2
227 15.6
228 17.6
229 2.1
230 6.1
231 28
232 9.6
233 0.62
234 3.6
235 3
237 2.1
239 0.52
240 3.4
241 7.6
242 4
243 0.42
244 3.5
245 10.7
246 14.4
247 6
248 15.4
249 4.2
251 6
252 0.3
253 9.1
254 5.8
255 66.2
256 1.65
257 6.6
258 3.3
259 8.4
260 1.96
261 11.4
262 3.7
267 3.2
269 0.56
270 3.2
271 8.8
272 3.7
273 2.04
274 17.4
275 58.2
276 15.7
277 0.29
281 2
283 7.3
284 3.2
285 0.33
286 2.5
287 4
288 3.2
297 0.28
298 2
299 3.4
300 5.2
301 3.65
302 9.6
303 2
311 3.5
312 0.29
313 6.4
314 9.4
315 7.2
316 0.15
317 1.7
325 2.9
326 10.3
327 0.78
328 4.1
329 5.7
330 2.1
336 0.19
338 2.7
339 4.5
340 3.7
341 0.26
342 3.5
343 2.3
349 2.3
350 0.26
351 7.5
352 4.8
353 64
354 1.94
355 5.5
356 2.6
362 2.8
364 0.61
365 3.4
366 15.1
367 8.5
368 99
369 33
370 7.5
371 28.5
372 0.9
373 3
377 1.9
382 5
384 0.7
385 4.3
386 43.1
387 14.4
388 3.3

$$$$

     RDKit          2D

 32 31  0  0  0  0  0  0  0  0999 V2000
    7.7942   14.2500    0.0000 C   0  0  0  0  0  0  0  0  0  0  0  0
  -21.3336   16.2990    0.0000 C   0  0  0  0  0  0  0  0  0  0  0  0
  -23.3827   15.7500    0.0000 C   0  0  0  0  0  0  0  0  0  0  0  0
  -22.8336   13.7010    0.0000 C   0  0  0  0  0  0  0  0  0  0  0  0
  -20.2356   13.2990    0.0000 C   0  0  0  0  0  0  0  0  0  0  0  0
  -20.7846   11.2500    0.0000 C   0  0  0  0  0  0  0  0  0  0  0  0
  -18.7356   10.7010    0.0000 C   0  0  0  0  0  0  0  0  0  0  0  0
    6.4952   15.0000    0.0000 C   0  0  0  0  0  0  0  0  0  0  0  0
    5.1962   14.2500    0.0000 C   0  0  0  0  0  0  0  0  0  0  0  0
    3.8971   15.0000    0.0000 C   0  0  0  0  0  0  0  0  0  0  0  0
    2.5981   14.2500    0.0000 C   0  0  0  0  0  0  0  0  0  0  0  0
    1.2990   15.0000    0.0000 C   0  0  0  0  0  0  0  0  0  0  0  0
    0.0000   14.2500    0.0000 C   0  0  0  0  0  0  0  0  0  0  0  0
   -1.2990   15.0000    0.0000 C   0  0  0  0  0  0  0  0  0  0  0  0
   -2.5981   14.2500    0.0000 C   0  0  0  0  0  0  0  0  0  0  0  0
   -3.8971   15.0000    0.0000 C   0  0  0  0  0  0  0  0  0  0  0  0
   -5.1962   14.2500    0.0000 C   0  0  0  0  0  0  0  0  0  0  0  0
   -6.4952   15.0000    0.0000 C   0  0  0  0  0  0  0  0  0  0  0  0
   -7.7942   14.2500    0.0000 C   0  0  0  0  0  0  0  0  0  0  0  0
   -9.0933   15.0000    0.0000 C   0  0  0  0  0  0  0  0  0  0  0  0
  -10.3923   14.2500    0.0000 C   0  0  0  0  0  0  0  0  0  0  0  0
  -11.6913   15.0000    0.0000 C   0  0  0  0  0  0  0  0  0  0  0  0
  -12.9904   14.2500    0.0000 C   0  0  0  0  0  0  0  0  0  0  0  0
  -14.2894   15.0000    0.0000 C   0  0  0  0  0  0  0  0  0  0  0  0
  -16.8875   15.0000    0.0000 C   0  0  0  0  0  0  0  0  0  0  0  0
  -19.4856   15.0000    0.0000 C   0  0  0  0  0  0  0  0  0  0  0  0
  -18.1865   14.2500    0.0000 C   0  0  0  0  0  0  0  0  0  0  0  0
  -15.5885   14.2500    0.0000 O   0  0  0  0  0  0  0  0  0  0  0  0
  -20.7846   14.2500    0.0000 O   0  0  0  0  0  0  0  0  0  0  0  0
  -18.1865   12.7500    0.0000 O   0  0  0  0  0  0  0  0  0  0  0  0
  -22.0836   15.0000    0.0000 Si  0  0  0  0  0  4  0  0  0  0  0  0
  -19.4856   12.0000    0.0000 Si  0  0  0  0  0  4  0  0  0  0  0  0
  8  1  1  0
  9  8  1  0
 10  9  1  0
 11 10  1  0
 12 11  1  0
 13 12  1  0
 14 13  1  0
 15 14  1  0
 16 15  1  0
 17 16  1  0
 18 17  1  0
 19 18  1  0
 20 19  1  0
 21 20  1  0
 22 21  1  0
 23 22  1  0
 24 23  1  0
 27 25  1  0
 27 26  1  0
 28 24  1  0
 28 25  1  0
 29 26  1  0
 30 27  1  0
 31  2  1  0
 31  3  1  0
 31  4  1  0
 31 29  1  0
 32  5  1  0
 32  6  1  0
 32  7  1  0
 32 30  1  0
M  END
>  <NAME>  (5636) 
1-OCTADECYL-2,3-DI-TRIMETHYLSILYL GLYCEROL

>  <SYNONYMS>  (5636) 


>  <SPECTRUM TYPE>  (5636) 
MS1

>  <INSTRUMENT TYPE>  (5636) 
EI-B

>  <INSTRUMENT>  (5636) 
SHIMADZU LKB-9000B

>  <ION MODE>  (5636) 
P

>  <INCHIKEY>  (5636) 
YGPFXYRLWXBLIE-UHFFFAOYSA-N

>  <FORMULA>  (5636) 
C27H60O3Si2

>  <EXACT MASS>  (5636) 
488.40809884

>  <MW>  (5636) 
488

>  <ID>  (5636) 
JP002691

>  <CONTRIBUTOR>  (5636) 
University of Tokyo Team, {Faculty of Engineering, University of Tokyo

>  <COMMENT>  (5636) 
SMILES=CCCCCCCCCCCCCCCCCCOCC(CO[Si](C)(C)C)O[Si](C)(C)C
InChI=InChI=1S/C27H60O3Si2/c1-8-9-10-11-12-13-14-15-16-17-18-19-20-21-22-23-24-28-25-27(30-32(5,6)7)26-29-31(2,3)4/h27H,8-26H2,1-7H3
computed SMILES=O(CCCCCCCCCCCCCCCCCC)CC(O[Si](C)(C)C)CO[Si](C)(C)C
accession=JP002691
date=2016.01.19 (Created 2008.10.21, modified 2011.05.06)
author=HAYASHI A, DEPT. OF CHEMISTRY, FAC. OF SCI. AND TECHNOLOGY, KINKI UNIV.
license=CC BY-NC-SA
exact mass=488.4081
ionization energy=70 eV
ion type=[M]+*
computed spectral entropy=3.189840851436748
computed normalized entropy=0.870693920165542
SPLASH=splash10-001i-4910000000-cb6f24042cda1cc94bdb
submitter=submitter = University of Tokyo Team (Faculty of Engineering, University of Tokyo)
MoNA Rating=3.75

>  <NUM PEAKS>  (5636) 
39

>  <MASS SPECTRAL PEAKS>  (5636) 
67 1.1
71 6.1
73 12.3
74 1.3
75 0.45
83 4.8
84 1.4
85 6.4
89 0.12
98 1.2
99 3
101 3.6
103 0.95
104 1
105 0.19
109 1.2
113 2.2
115 2.9
116 6.5
117 2.49
118 2.9
119 0.26
125 1.5
130 16.7
131 14.8
132 3.7
133 2.7
134 3.2
135 1.8
145 2.1
149 0.51
177 2.8
207 9
221 1.5
308 1.1
342 1.4
398 1.7
473 3.1
474 1.1

$$$$

     RDKit          2D

 28 27  0  0  0  0  0  0  0  0999 V2000
  -22.4084   11.8125    0.0000 C   0  0  0  0  0  0  0  0  0  0  0  0
    6.1704   11.8125    0.0000 C   0  0  0  0  0  0  0  0  0  0  0  0
    3.5724   13.3125    0.0000 C   0  0  0  0  0  0  0  0  0  0  0  0
  -21.1094   11.0625    0.0000 C   0  0  0  0  0  0  0  0  0  0  0  0
  -19.8103   11.8125    0.0000 C   0  0  0  0  0  0  0  0  0  0  0  0
  -18.5113   11.0625    0.0000 C   0  0  0  0  0  0  0  0  0  0  0  0
  -17.2123   11.8125    0.0000 C   0  0  0  0  0  0  0  0  0  0  0  0
  -15.9132   11.0625    0.0000 C   0  0  0  0  0  0  0  0  0  0  0  0
  -14.6142   11.8125    0.0000 C   0  0  0  0  0  0  0  0  0  0  0  0
  -13.3151   11.0625    0.0000 C   0  0  0  0  0  0  0  0  0  0  0  0
  -12.0161   11.8125    0.0000 C   0  0  0  0  0  0  0  0  0  0  0  0
  -10.7171   11.0625    0.0000 C   0  0  0  0  0  0  0  0  0  0  0  0
   -9.4180   11.8125    0.0000 C   0  0  0  0  0  0  0  0  0  0  0  0
   -8.1190   11.0625    0.0000 C   0  0  0  0  0  0  0  0  0  0  0  0
   -6.8200   11.8125    0.0000 C   0  0  0  0  0  0  0  0  0  0  0  0
   -5.5209   11.0625    0.0000 C   0  0  0  0  0  0  0  0  0  0  0  0
   -4.2219   11.8125    0.0000 C   0  0  0  0  0  0  0  0  0  0  0  0
   -2.9228   11.0625    0.0000 C   0  0  0  0  0  0  0  0  0  0  0  0
   -0.3248   11.0625    0.0000 C   0  0  0  0  0  0  0  0  0  0  0  0
    2.2733   11.0625    0.0000 C   0  0  0  0  0  0  0  0  0  0  0  0
    4.8714   11.0625    0.0000 C   0  0  0  0  0  0  0  0  0  0  0  0
    2.2733   14.0625    0.0000 C   0  0  0  0  0  0  0  0  0  0  0  0
    0.9743   11.8125    0.0000 C   0  0  0  0  0  0  0  0  0  0  0  0
    4.8714    9.5625    0.0000 O   0  0  0  0  0  0  0  0  0  0  0  0
    2.2733   15.5625    0.0000 O   0  0  0  0  0  0  0  0  0  0  0  0
   -1.6238   11.8125    0.0000 O   0  0  0  0  0  0  0  0  0  0  0  0
    3.5724   11.8125    0.0000 O   0  0  0  0  0  0  0  0  0  0  0  0
    0.9743   13.3125    0.0000 O   0  0  0  0  0  0  0  0  0  0  0  0
  4  1  1  0
  5  4  1  0
  6  5  1  0
  7  6  1  0
  8  7  1  0
  9  8  1  0
 10  9  1  0
 11 10  1  0
 12 11  1  0
 13 12  1  0
 14 13  1  0
 15 14  1  0
 16 15  1  0
 17 16  1  0
 18 17  1  0
 21  2  1  0
 22  3  1  0
 23 19  1  0
 23 20  1  0
 24 21  2  0
 25 22  2  0
 26 18  1  0
 26 19  1  0
 27 20  1  0
 27 21  1  0
 28 22  1  0
 28 23  1  0
M  END
>  <NAME>  (5637) 
1-HEXADECYL-2,3-DI-O-ACETHYL GLYCEROL

>  <SYNONYMS>  (5637) 


>  <SPECTRUM TYPE>  (5637) 
MS1

>  <INSTRUMENT TYPE>  (5637) 
EI-B

>  <INSTRUMENT>  (5637) 
SHIMADZU LKB-9000B

>  <ION MODE>  (5637) 
P

>  <INCHIKEY>  (5637) 
RNBQLCHIPDBXCF-UHFFFAOYSA-N

>  <FORMULA>  (5637) 
C23H44O5

>  <EXACT MASS>  (5637) 
400.318874508

>  <MW>  (5637) 
400

>  <ID>  (5637) 
JP002684

>  <CONTRIBUTOR>  (5637) 
University of Tokyo Team, {Faculty of Engineering, University of Tokyo

>  <COMMENT>  (5637) 
SMILES=CCCCCCCCCCCCCCCCOCC(COC(C)=O)OC(C)=O
InChI=InChI=1S/C23H44O5/c1-4-5-6-7-8-9-10-11-12-13-14-15-16-17-18-26-19-23(28-22(3)25)20-27-21(2)24/h23H,4-20H2,1-3H3
computed SMILES=O=C(OCC(OC(=O)C)COCCCCCCCCCCCCCCCC)C
accession=JP002684
date=2016.01.19 (Created 2008.10.21, modified 2011.05.06)
author=HAYASHI A, DEPT. OF CHEMISTRY, FAC. OF SCI. AND TECHNOLOGY, KINKI UNIV.
license=CC BY-NC-SA
exact mass=400.31887
ionization energy=70 eV
ion type=[M]+*
computed spectral entropy=4.252465384049349
computed normalized entropy=0.829917111272237
SPLASH=splash10-06ds-8930000000-30ec6d48ef519d717a4d
submitter=submitter = University of Tokyo Team (Faculty of Engineering, University of Tokyo)
MoNA Rating=3.75

>  <NUM PEAKS>  (5637) 
168

>  <MASS SPECTRAL PEAKS>  (5637) 
41 1.4
43 17.3
44 1.6
54 2.9
55 26.1
56 11.6
57 60.7
58 0.73
59 1.6
60 3.4
61 7.2
66 0.13
67 11.6
68 10.4
69 45.4
70 1.41
71 75.9
72 5.8
73 40
74 0.56
75 4.2
77 3.9
79 3.3
80 0.31
81 21
82 30.6
83 57.9
84 1.53
85 82.5
86 20.1
87 3.9
91 0.17
93 2.7
94 5
95 27
96 3.41
97 64.9
98 18.8
99 45.4
100 7.22
101 25.9
102 3.3
103 52.4
104 0.32
105 2.9
107 3.2
108 4.5
109 1.83
110 19.6
111 41.3
112 25.7
113 2.83
114 3.7
115 11.3
116 32.3
117 99.99
118 5.6
119 6.9
120 1.5
121 0.58
122 4.4
123 16.4
124 17
125 3.32
126 10.5
127 23.1
128 2.9
129 0.45
130 1.5
133 4.1
135 9.8
136 0.38
137 12.4
138 13.2
139 13.6
140 0.54
141 20.3
142 2.8
143 1.2
144 0.11
145 20.3
146 1.9
147 4.6
149 1.28
150 2.4
151 7.4
152 8.5
153 0.95
154 3.8
155 15.3
156 2.1
157 0.14
158 2
159 71.9
160 5.9
161 0.15
163 3.3
165 6.7
166 6.4
167 0.91
168 3.3
169 10.3
170 2
171 0.18
177 5.6
178 1.4
179 6
180 0.38
181 4.2
182 2.3
183 5.8
184 0.19
185 3
186 1.3
189 2.8
191 0.53
192 1.3
193 5.7
194 5.2
195 0.42
196 3.6
199 1.5
205 1.9
206 0.19
207 37.6
208 9.5
209 8.3
210 0.24
213 1.7
219 2.2
220 1.9
221 0.23
222 9.4
223 8.2
224 5
225 2.27
226 3.9
227 2.3
233 2.1
237 0.47
238 2.3
239 1.6
241 1.3
251 1
252 5.4
253 16.9
254 3.4
255 6.06
256 12
257 1.1
267 3.1
269 0.16
280 14.4
281 10.7
282 2.7
283 0.25
285 6.9
286 1.7
297 75.8
298 1.92
299 2.7
327 2.5
338 1.6
339 0.21
341 3.4
342 1.1
355 1.4
357 0.7

$$$$

     RDKit          2D

 26 25  0  0  0  0  0  0  0  0999 V2000
  -20.4599   10.6875    0.0000 C   0  0  0  0  0  0  0  0  0  0  0  0
    5.5209   10.6875    0.0000 C   0  0  0  0  0  0  0  0  0  0  0  0
    2.9228   12.1875    0.0000 C   0  0  0  0  0  0  0  0  0  0  0  0
  -19.1608    9.9375    0.0000 C   0  0  0  0  0  0  0  0  0  0  0  0
  -17.8618   10.6875    0.0000 C   0  0  0  0  0  0  0  0  0  0  0  0
  -16.5627    9.9375    0.0000 C   0  0  0  0  0  0  0  0  0  0  0  0
  -15.2637   10.6875    0.0000 C   0  0  0  0  0  0  0  0  0  0  0  0
  -13.9647    9.9375    0.0000 C   0  0  0  0  0  0  0  0  0  0  0  0
  -12.6656   10.6875    0.0000 C   0  0  0  0  0  0  0  0  0  0  0  0
  -11.3666    9.9375    0.0000 C   0  0  0  0  0  0  0  0  0  0  0  0
  -10.0675   10.6875    0.0000 C   0  0  0  0  0  0  0  0  0  0  0  0
   -8.7685    9.9375    0.0000 C   0  0  0  0  0  0  0  0  0  0  0  0
   -7.4695   10.6875    0.0000 C   0  0  0  0  0  0  0  0  0  0  0  0
   -6.1704    9.9375    0.0000 C   0  0  0  0  0  0  0  0  0  0  0  0
   -4.8714   10.6875    0.0000 C   0  0  0  0  0  0  0  0  0  0  0  0
   -3.5724    9.9375    0.0000 C   0  0  0  0  0  0  0  0  0  0  0  0
   -0.9743    9.9375    0.0000 C   0  0  0  0  0  0  0  0  0  0  0  0
    1.6238    9.9375    0.0000 C   0  0  0  0  0  0  0  0  0  0  0  0
    4.2219    9.9375    0.0000 C   0  0  0  0  0  0  0  0  0  0  0  0
    1.6238   12.9375    0.0000 C   0  0  0  0  0  0  0  0  0  0  0  0
    0.3248   10.6875    0.0000 C   0  0  0  0  0  0  0  0  0  0  0  0
    4.2219    8.4375    0.0000 O   0  0  0  0  0  0  0  0  0  0  0  0
    1.6238   14.4375    0.0000 O   0  0  0  0  0  0  0  0  0  0  0  0
   -2.2733   10.6875    0.0000 O   0  0  0  0  0  0  0  0  0  0  0  0
    2.9228   10.6875    0.0000 O   0  0  0  0  0  0  0  0  0  0  0  0
    0.3248   12.1875    0.0000 O   0  0  0  0  0  0  0  0  0  0  0  0
  4  1  1  0
  5  4  1  0
  6  5  1  0
  7  6  1  0
  8  7  1  0
  9  8  1  0
 10  9  1  0
 11 10  1  0
 12 11  1  0
 13 12  1  0
 14 13  1  0
 15 14  1  0
 16 15  1  0
 19  2  1  0
 20  3  1  0
 21 17  1  0
 21 18  1  0
 22 19  2  0
 23 20  2  0
 24 16  1  0
 24 17  1  0
 25 18  1  0
 25 19  1  0
 26 20  1  0
 26 21  1  0
M  END
>  <NAME>  (5638) 
1-TETRADECYL-2,3-DI-O-ACETHYL GLYCEROL

>  <SYNONYMS>  (5638) 


>  <SPECTRUM TYPE>  (5638) 
MS1

>  <INSTRUMENT TYPE>  (5638) 
EI-B

>  <INSTRUMENT>  (5638) 
SHIMADZU LKB-9000B

>  <ION MODE>  (5638) 
P

>  <INCHIKEY>  (5638) 
UYEQSZIEGZNHSU-UHFFFAOYSA-N

>  <FORMULA>  (5638) 
C21H40O5

>  <EXACT MASS>  (5638) 
372.28757437999997

>  <MW>  (5638) 
372

>  <ID>  (5638) 
JP002682

>  <CONTRIBUTOR>  (5638) 
University of Tokyo Team, {Faculty of Engineering, University of Tokyo

>  <COMMENT>  (5638) 
SMILES=CCCCCCCCCCCCCCOCC(COC(C)=O)OC(C)=O
InChI=InChI=1S/C21H40O5/c1-4-5-6-7-8-9-10-11-12-13-14-15-16-24-17-21(26-20(3)23)18-25-19(2)22/h21H,4-18H2,1-3H3
computed SMILES=O=C(OCC(OC(=O)C)COCCCCCCCCCCCCCC)C
accession=JP002682
date=2016.01.19 (Created 2008.10.21, modified 2011.05.06)
author=HAYASHI A, DEPT. OF CHEMISTRY, FAC. OF SCI. AND TECHNOLOGY, KINKI UNIV.
license=CC BY-NC-SA
exact mass=372.28757
ionization energy=70 eV
ion type=[M]+*
computed spectral entropy=4.124217984684242
computed normalized entropy=0.8177414929486456
SPLASH=splash10-014i-6930000000-624d22582a5e1199334e
submitter=submitter = University of Tokyo Team (Faculty of Engineering, University of Tokyo)
MoNA Rating=3.75

>  <NUM PEAKS>  (5638) 
155

>  <MASS SPECTRAL PEAKS>  (5638) 
41 2.5
43 21
44 1.5
45 1.5
54 2.1
55 25.2
56 11.8
57 6.86
58 7.3
59 1.2
60 3.3
61 0.83
66 1
67 10
68 10.2
69 4.54
70 17.7
71 87.3
72 5.9
73 4.7
74 6.1
75 4.4
77 2.9
79 0.32
80 2.5
81 17.4
82 28.2
83 5.2
84 16.1
85 90.7
86 21.4
87 0.41
91 1.5
93 2.4
94 4.4
95 2.3
96 26.9
97 58.7
98 17.4
99 4.79
100 72.4
101 22.3
102 3.1
103 6.54
104 3.8
105 2.3
107 2.8
108 0.39
109 16.6
110 19.1
111 41.2
112 2.59
113 31.7
114 3.1
115 11.8
116 3.36
117 99.99
118 6.3
119 6.1
120 0.1
121 5.2
122 3.5
123 13.1
124 1.23
125 31.2
126 10.3
127 25
128 0.32
129 4.1
130 1.5
133 3.2
135 1.02
136 3.3
137 10
138 8.2
139 1.29
140 5.4
141 18.3
142 2.7
143 0.15
144 1.1
145 19.2
146 1.5
147 0.47
149 8.4
150 2.3
151 7.6
152 0.57
153 6.3
154 2.8
155 8.8
156 0.43
157 1.5
159 58.2
160 5
161 0.14
163 2.8
165 5.4
166 5.9
167 0.51
168 3.9
169 1.3
171 1.4
177 0.39
178 1
179 2.5
180 1.3
181 0.4
185 2.3
189 2.1
191 3.8
192 0.16
193 2.4
194 8.3
195 7.8
196 0.44
197 22.1
198 3.4
199 1.2
205 0.27
206 1.4
207 25.2
208 6.1
209 6.5
210 1.5
211 1.9
213 1.5
219 0.1
221 1
223 11.4
224 3.8
225 1.63
226 2.8
227 64.7
228 10.7
229 0.12
239 2.2
241 1
252 10.5
253 0.56
255 1.5
257 8.1
258 1.4
267 0.11
269 85.5
270 18.4
271 2.4
281 0.47
282 1.4
283 1.7
299 3.3
311 0.15
312 1.2
313 1.6
341 1.2

$$$$

     RDKit          2D

 25 24  0  0  1  0  0  0  0  0999 V2000
    5.4707    9.2745    0.0000 C   0  0  0  0  0  0  0  0  0  0  0  0
  -13.2649   11.3236    0.0000 C   0  0  0  0  0  0  0  0  0  0  0  0
  -15.3139   10.7745    0.0000 C   0  0  0  0  0  0  0  0  0  0  0  0
  -14.7649    8.7255    0.0000 C   0  0  0  0  0  0  0  0  0  0  0  0
   -9.3678   13.5736    0.0000 C   0  0  0  0  0  0  0  0  0  0  0  0
  -11.4168   13.0245    0.0000 C   0  0  0  0  0  0  0  0  0  0  0  0
  -10.8678   10.9755    0.0000 C   0  0  0  0  0  0  0  0  0  0  0  0
    4.1716   10.0245    0.0000 C   0  0  0  0  0  0  0  0  0  0  0  0
    2.8726    9.2745    0.0000 C   0  0  0  0  0  0  0  0  0  0  0  0
    1.5736   10.0245    0.0000 C   0  0  0  0  0  0  0  0  0  0  0  0
    0.2745    9.2745    0.0000 C   0  0  0  0  0  0  0  0  0  0  0  0
   -1.0245   10.0245    0.0000 C   0  0  0  0  0  0  0  0  0  0  0  0
   -2.3236    9.2745    0.0000 C   0  0  0  0  0  0  0  0  0  0  0  0
   -3.6226   10.0245    0.0000 C   0  0  0  0  0  0  0  0  0  0  0  0
   -4.9216    9.2745    0.0000 C   0  0  0  0  0  0  0  0  0  0  0  0
   -6.2207   10.0245    0.0000 C   0  0  0  0  0  0  0  0  0  0  0  0
   -7.5197    9.2745    0.0000 C   0  0  0  0  0  0  0  0  0  0  0  0
  -11.4168   10.0245    0.0000 C   0  0  0  0  0  0  0  0  0  0  0  0
  -10.1178    9.2745    0.0000 C   0  0  0  0  0  0  0  0  0  0  0  0
   -8.8187   10.0245    0.0000 C   0  0  0  0  0  0  0  0  0  0  0  0
  -10.1178    7.7745    0.0000 N   0  0  0  0  0  0  0  0  0  0  0  0
  -12.7159    9.2745    0.0000 O   0  0  0  0  0  0  0  0  0  0  0  0
   -8.8187   11.5245    0.0000 O   0  0  0  0  0  0  0  0  0  0  0  0
  -14.0149   10.0245    0.0000 Si  0  0  0  0  0  4  0  0  0  0  0  0
  -10.1178   12.2745    0.0000 Si  0  0  0  0  0  4  0  0  0  0  0  0
  8  1  1  0
  9  8  1  0
 10  9  1  0
 11 10  1  0
 12 11  1  0
 13 12  1  0
 14 13  1  0
 15 14  1  0
 16 15  1  0
 17 16  1  0
 19 18  1  0
 20 17  1  6
 20 19  1  0
 19 21  1  1
 22 18  1  0
 20 23  1  0
 24  2  1  0
 24  3  1  0
 24  4  1  0
 24 22  1  0
 25  5  1  0
 25  6  1  0
 25  7  1  0
 25 23  1  0
M  END
>  <NAME>  (5639) 
1,3-DI-O-TRIMETHYLSILYL TETRADECASPHINGANINE

>  <SYNONYMS>  (5639) 


>  <SPECTRUM TYPE>  (5639) 
MS1

>  <INSTRUMENT TYPE>  (5639) 
EI-B

>  <INSTRUMENT>  (5639) 
SHIMADZU LKB-9000B

>  <ION MODE>  (5639) 
P

>  <INCHIKEY>  (5639) 
JDPBVDIIFKBKPO-VQTJNVASSA-N

>  <FORMULA>  (5639) 
C20H47NO2Si2

>  <EXACT MASS>  (5639) 
389.314532804

>  <MW>  (5639) 
389

>  <ID>  (5639) 
JP002680

>  <CONTRIBUTOR>  (5639) 
University of Tokyo Team, {Faculty of Engineering, University of Tokyo

>  <COMMENT>  (5639) 
SMILES=CCCCCCCCCCCC([H])(O[Si](C)(C)C)C([H])(N)CO[Si](C)(C)C
InChI=InChI=1S/C20H47NO2Si2/c1-8-9-10-11-12-13-14-15-16-17-20(23-25(5,6)7)19(21)18-22-24(2,3)4/h19-20H,8-18,21H2,1-7H3/t19-,20+/m0/s1
computed SMILES=O(CC(N)C(O[Si](C)(C)C)CCCCCCCCCCC)[Si](C)(C)C
accession=JP002680
date=2016.01.19 (Created 2008.10.21, modified 2011.05.06)
author=HAYASHI A, DEPT. OF CHEMISTRY, FAC. OF SCI. AND TECHNOLOGY, KINKI UNIV.
license=CC BY-NC-SA
exact mass=389.31453
ionization energy=70 eV
ion type=[M]+*
computed spectral entropy=3.050289773604144
computed normalized entropy=0.645237896821207
SPLASH=splash10-001i-7910000000-3d696785c5e70de7e771
submitter=submitter = University of Tokyo Team (Faculty of Engineering, University of Tokyo)
MoNA Rating=3.75

>  <NUM PEAKS>  (5639) 
113

>  <MASS SPECTRAL PEAKS>  (5639) 
41 5.3
42 1.8
43 6.9
44 0.8
45 4
46 0.3
47 1.6
48 0.04
49 0.4
53 0.5
54 1
55 0.42
56 3.5
57 3.4
58 0.9
59 0.3
60 0.7
61 1.2
67 2.3
68 0.17
69 4
70 2
71 1.2
72 0.11
73 45.5
74 6.7
75 16.9
76 0.16
77 1.1
79 0.6
80 0.4
81 0.2
82 1.9
83 0.8
84 0.8
85 0.07
86 0.6
87 0.5
88 1
89 0.1
90 0.3
91 0.8
93 0.5
94 0.04
95 1.5
96 1.1
97 2.3
98 0.07
99 0.5
100 1.3
101 1.8
102 0.19
103 4.5
104 0.8
105 0.4
107 0.03
108 0.4
109 0.7
110 0.7
111 0.09
112 0.5
113 0.3
114 0.6
115 0.27
116 18.6
117 2.2
118 0.9
119 0.04
123 0.3
124 0.3
128 1.2
129 0.5
130 1.5
131 7.2
132 99.99
133 1.24
134 4.2
135 0.6
141 0.4
142 1
143 0.08
144 1.2
145 0.6
147 3.3
148 0.08
149 0.7
158 0.6
172 0.5
184 0.06
185 0.3
196 1.8
207 0.2
208 0.05
210 0.7
217 1
218 0.5
219 0.04
234 0.7
241 0.4
256 0.3
257 0.43
258 1
269 0.4
270 1.7
271 0.04
281 0.1
284 2.2
285 0.9
286 2.32
287 5.4
288 1.4
345 0.8
374 0.09

$$$$

     RDKit          2D

 23 22  0  0  1  0  0  0  0  0999 V2000
  -14.1154    8.3505    0.0000 C   0  0  0  0  0  0  0  0  0  0  0  0
    2.0221    6.3014    0.0000 C   0  0  0  0  0  0  0  0  0  0  0  0
    4.0712    6.8505    0.0000 C   0  0  0  0  0  0  0  0  0  0  0  0
    3.5221    8.8995    0.0000 C   0  0  0  0  0  0  0  0  0  0  0  0
   -1.8750    4.0514    0.0000 C   0  0  0  0  0  0  0  0  0  0  0  0
    0.1740    4.6005    0.0000 C   0  0  0  0  0  0  0  0  0  0  0  0
   -0.3750    6.6495    0.0000 C   0  0  0  0  0  0  0  0  0  0  0  0
  -12.8163    7.6005    0.0000 C   0  0  0  0  0  0  0  0  0  0  0  0
  -11.5173    8.3505    0.0000 C   0  0  0  0  0  0  0  0  0  0  0  0
  -10.2183    7.6005    0.0000 C   0  0  0  0  0  0  0  0  0  0  0  0
   -8.9192    8.3505    0.0000 C   0  0  0  0  0  0  0  0  0  0  0  0
   -7.6202    7.6005    0.0000 C   0  0  0  0  0  0  0  0  0  0  0  0
   -6.3212    8.3505    0.0000 C   0  0  0  0  0  0  0  0  0  0  0  0
   -5.0221    7.6005    0.0000 C   0  0  0  0  0  0  0  0  0  0  0  0
   -3.7231    8.3505    0.0000 C   0  0  0  0  0  0  0  0  0  0  0  0
    0.1740    7.6005    0.0000 C   0  0  0  0  0  0  0  0  0  0  0  0
   -1.1250    8.3505    0.0000 C   0  0  0  0  0  0  0  0  0  0  0  0
   -2.4240    7.6005    0.0000 C   0  0  0  0  0  0  0  0  0  0  0  0
   -1.1250    9.8505    0.0000 N   0  0  0  0  0  0  0  0  0  0  0  0
    1.4731    8.3505    0.0000 O   0  0  0  0  0  0  0  0  0  0  0  0
   -2.4240    6.1005    0.0000 O   0  0  0  0  0  0  0  0  0  0  0  0
    2.7721    7.6005    0.0000 Si  0  0  0  0  0  4  0  0  0  0  0  0
   -1.1250    5.3505    0.0000 Si  0  0  0  0  0  4  0  0  0  0  0  0
  8  1  1  0
  9  8  1  0
 10  9  1  0
 11 10  1  0
 12 11  1  0
 13 12  1  0
 14 13  1  0
 15 14  1  0
 17 16  1  0
 18 15  1  6
 18 17  1  0
 17 19  1  1
 20 16  1  0
 18 21  1  0
 22  2  1  0
 22  3  1  0
 22  4  1  0
 22 20  1  0
 23  5  1  0
 23  6  1  0
 23  7  1  0
 23 21  1  0
M  END
>  <NAME>  (5640) 
1,3-DI-O-TRIMETHYLSILYL DODECASPHINGANINE

>  <SYNONYMS>  (5640) 


>  <SPECTRUM TYPE>  (5640) 
MS1

>  <INSTRUMENT TYPE>  (5640) 
EI-B

>  <INSTRUMENT>  (5640) 
SHIMADZU LKB-9000B

>  <ION MODE>  (5640) 
P

>  <INCHIKEY>  (5640) 
WSLBFLLKCVEBDX-ZWKOTPCHSA-N

>  <FORMULA>  (5640) 
C18H43NO2Si2

>  <EXACT MASS>  (5640) 
361.28323267600007

>  <MW>  (5640) 
361

>  <ID>  (5640) 
JP002679

>  <CONTRIBUTOR>  (5640) 
University of Tokyo Team, {Faculty of Engineering, University of Tokyo

>  <COMMENT>  (5640) 
SMILES=CCCCCCCCCC([H])(O[Si](C)(C)C)C([H])(N)CO[Si](C)(C)C
InChI=InChI=1S/C18H43NO2Si2/c1-8-9-10-11-12-13-14-15-18(21-23(5,6)7)17(19)16-20-22(2,3)4/h17-18H,8-16,19H2,1-7H3/t17-,18+/m0/s1
computed SMILES=O(CC(N)C(O[Si](C)(C)C)CCCCCCCCC)[Si](C)(C)C
accession=JP002679
date=2016.01.19 (Created 2008.10.21, modified 2011.05.06)
author=HAYASHI A, DEPT. OF CHEMISTRY, FAC. OF SCI. AND TECHNOLOGY, KINKI UNIV.
license=CC BY-NC-SA
exact mass=361.28323
ionization energy=70 eV
ion type=[M]+*
computed spectral entropy=3.199008114661197
computed normalized entropy=0.6593133061121802
SPLASH=splash10-001i-6920000000-e5219d599da41686d795
submitter=submitter = University of Tokyo Team (Faculty of Engineering, University of Tokyo)
MoNA Rating=3.75

>  <NUM PEAKS>  (5640) 
128

>  <MASS SPECTRAL PEAKS>  (5640) 
41 4.8
42 1.7
43 5.4
44 1.6
45 4.4
46 0.4
47 1.7
48 0.01
53 0.5
54 1.1
55 4.3
56 0.38
57 2.7
58 0.9
59 3.2
60 0.08
61 1.3
66 0.2
67 1.9
68 0.15
69 4.1
70 2.3
71 1.3
72 0.11
73 49.1
74 7.8
75 18.6
76 0.19
77 1
79 0.5
80 0.3
81 0.18
82 1.6
83 2.5
84 1
85 0.05
86 0.8
87 0.1
88 1.3
89 0.1
90 0.4
91 0.8
93 0.6
94 0.03
95 1.6
96 0.9
97 2.2
98 0.05
99 0.6
100 1.6
101 1.8
102 0.2
103 5.8
104 0.8
105 0.5
107 0.04
108 0.3
109 0.7
110 0.7
111 0.03
112 0.6
113 0.4
114 0.7
115 0.27
116 21.4
117 2.5
118 1.1
119 0.03
126 0.3
128 1.5
129 4.8
130 0.15
131 7.3
132 99.99
133 12.6
134 0.43
135 0.6
138 0.3
141 0.4
142 0.1
143 0.9
144 1.3
145 0.5
147 0.43
148 1
149 0.9
155 0.3
156 0.07
157 0.3
158 1.3
159 0.4
168 0.22
169 0.3
171 0.3
177 0.3
182 0.08
185 0.4
191 0.3
204 0.3
206 0.03
207 0.3
213 0.5
217 1.1
218 0.06
219 0.5
226 0.4
227 0.3
228 0.04
229 7.3
230 1.6
231 0.5
233 0.2
234 0.07
242 2.3
243 0.4
256 3
257 0.09
258 28.4
259 6.3
260 1.6
270 0.03
281 0.1
284 1.1
285 0.3
317 1.2
318 0.3
346 1
347 0.3

$$$$

     RDKit          2D

 21 20  0  0  1  0  0  0  0  0999 V2000
    4.1716    7.0245    0.0000 C   0  0  0  0  0  0  0  0  0  0  0  0
   -9.3678    9.0736    0.0000 C   0  0  0  0  0  0  0  0  0  0  0  0
  -11.4168    8.5245    0.0000 C   0  0  0  0  0  0  0  0  0  0  0  0
  -10.8678    6.4755    0.0000 C   0  0  0  0  0  0  0  0  0  0  0  0
   -5.4707   11.3236    0.0000 C   0  0  0  0  0  0  0  0  0  0  0  0
   -7.5197   10.7745    0.0000 C   0  0  0  0  0  0  0  0  0  0  0  0
   -6.9707    8.7255    0.0000 C   0  0  0  0  0  0  0  0  0  0  0  0
    2.8726    7.7745    0.0000 C   0  0  0  0  0  0  0  0  0  0  0  0
    1.5736    7.0245    0.0000 C   0  0  0  0  0  0  0  0  0  0  0  0
    0.2745    7.7745    0.0000 C   0  0  0  0  0  0  0  0  0  0  0  0
   -1.0245    7.0245    0.0000 C   0  0  0  0  0  0  0  0  0  0  0  0
   -2.3236    7.7745    0.0000 C   0  0  0  0  0  0  0  0  0  0  0  0
   -3.6226    7.0245    0.0000 C   0  0  0  0  0  0  0  0  0  0  0  0
   -7.5197    7.7745    0.0000 C   0  0  0  0  0  0  0  0  0  0  0  0
   -6.2207    7.0245    0.0000 C   0  0  0  0  0  0  0  0  0  0  0  0
   -4.9216    7.7745    0.0000 C   0  0  0  0  0  0  0  0  0  0  0  0
   -6.2207    5.5245    0.0000 N   0  0  0  0  0  0  0  0  0  0  0  0
   -8.8187    7.0245    0.0000 O   0  0  0  0  0  0  0  0  0  0  0  0
   -4.9216    9.2745    0.0000 O   0  0  0  0  0  0  0  0  0  0  0  0
  -10.1178    7.7745    0.0000 Si  0  0  0  0  0  4  0  0  0  0  0  0
   -6.2207   10.0245    0.0000 Si  0  0  0  0  0  4  0  0  0  0  0  0
  8  1  1  0
  9  8  1  0
 10  9  1  0
 11 10  1  0
 12 11  1  0
 13 12  1  0
 15 14  1  0
 16 13  1  6
 16 15  1  0
 15 17  1  1
 18 14  1  0
 16 19  1  0
 20  2  1  0
 20  3  1  0
 20  4  1  0
 20 18  1  0
 21  5  1  0
 21  6  1  0
 21  7  1  0
 21 19  1  0
M  END
>  <NAME>  (5641) 
1,3-DI-O-TRIMETHYLSILYL DECASPHINGANINE

>  <SYNONYMS>  (5641) 


>  <SPECTRUM TYPE>  (5641) 
MS1

>  <INSTRUMENT TYPE>  (5641) 
EI-B

>  <INSTRUMENT>  (5641) 
SHIMADZU LKB-9000B

>  <ION MODE>  (5641) 
P

>  <INCHIKEY>  (5641) 
VAWUXPDWLWBZIW-JKSUJKDBSA-N

>  <FORMULA>  (5641) 
C16H39NO2Si2

>  <EXACT MASS>  (5641) 
333.25193254799996

>  <MW>  (5641) 
333

>  <ID>  (5641) 
JP002678

>  <CONTRIBUTOR>  (5641) 
University of Tokyo Team, {Faculty of Engineering, University of Tokyo

>  <COMMENT>  (5641) 
SMILES=CCCCCCCC([H])(O[Si](C)(C)C)C([H])(N)CO[Si](C)(C)C
InChI=InChI=1S/C16H39NO2Si2/c1-8-9-10-11-12-13-16(19-21(5,6)7)15(17)14-18-20(2,3)4/h15-16H,8-14,17H2,1-7H3/t15-,16+/m0/s1
computed SMILES=O(CC(N)C(O[Si](C)(C)C)CCCCCCC)[Si](C)(C)C
accession=JP002678
date=2016.01.19 (Created 2008.10.21, modified 2011.05.06)
author=HAYASHI A, DEPT. OF CHEMISTRY, FAC. OF SCI. AND TECHNOLOGY, KINKI UNIV.
license=CC BY-NC-SA
exact mass=333.25193
ionization energy=70 eV
ion type=[M]+*
computed spectral entropy=3.134726663608977
computed normalized entropy=0.6264508993400746
SPLASH=splash10-001i-7920000000-e9663bb8dd180954a52f
submitter=submitter = University of Tokyo Team (Faculty of Engineering, University of Tokyo)
MoNA Rating=3.75

>  <NUM PEAKS>  (5641) 
149

>  <MASS SPECTRAL PEAKS>  (5641) 
41 4
42 1.5
43 4.6
44 3.7
45 5.6
46 0.5
47 2.5
48 0.05
49 0.4
50 0.2
51 0.1
53 0.04
55 4.6
56 4.4
57 1.7
58 0.11
59 4
60 0.9
61 1.6
62 0.01
63 0.1
65 0.1
66 0.2
67 0.17
68 1
69 7.3
70 1.9
71 0.06
72 1.5
73 56.1
74 9.2
75 1.77
76 1.9
77 1
79 0.3
80 0.02
81 1.8
82 1
83 2.4
84 0.09
85 1.5
86 0.6
87 0.3
88 0.16
89 0.9
90 0.3
91 0.7
92 0.01
93 0.5
94 0.2
95 0.6
96 0.04
97 0.3
98 0.4
99 0.6
100 0.18
101 1.7
102 2.3
103 6.4
104 0.09
105 0.4
107 0.2
108 0.2
109 0.03
110 0.4
111 0.5
112 0.5
113 0.03
114 0.7
115 2.1
116 25.1
117 0.3
118 1.2
119 0.2
123 0.2
124 0.01
126 0.2
127 0.2
128 1.9
129 0.36
130 1.7
131 7.2
132 99.99
133 1.2
134 4.3
135 0.4
138 0.1
140 0.29
141 0.5
142 0.7
143 0.7
144 0.11
145 0.4
146 0.1
147 4.4
148 0.11
149 0.9
150 0.1
154 1.2
155 0.03
156 0.2
157 0.4
158 0.7
159 0.02
171 0.2
172 0.1
177 0.3
184 0.02
185 0.5
186 0.2
187 0.2
189 0.01
191 0.2
198 0.4
199 0.3
200 0.05
201 7.3
202 1.4
203 0.4
204 0.03
205 0.2
206 0.2
207 0.2
209 0.1
212 0.1
213 0.6
214 2.6
215 0.05
216 0.2
217 1.1
218 0.4
219 0.02
228 3.3
229 0.8
230 26.5
231 0.49
232 1.4
233 0.3
234 0.7
235 0.01
242 0.2
256 0.6
257 0.1
289 0.11
290 0.3
307 0.1
309 0.2
318 0.07
319 0.2

$$$$

     RDKit          2D

 27 26  0  0  0  0  0  0  0  0999 V2000
    8.4437   13.8750    0.0000 C   0  0  0  0  0  0  0  0  0  0  0  0
  -24.0322   14.6250    0.0000 C   0  0  0  0  0  0  0  0  0  0  0  0
    7.1447   14.6250    0.0000 C   0  0  0  0  0  0  0  0  0  0  0  0
    5.8457   13.8750    0.0000 C   0  0  0  0  0  0  0  0  0  0  0  0
    4.5466   14.6250    0.0000 C   0  0  0  0  0  0  0  0  0  0  0  0
    3.2476   13.8750    0.0000 C   0  0  0  0  0  0  0  0  0  0  0  0
    1.9486   14.6250    0.0000 C   0  0  0  0  0  0  0  0  0  0  0  0
    0.6495   13.8750    0.0000 C   0  0  0  0  0  0  0  0  0  0  0  0
   -0.6495   14.6250    0.0000 C   0  0  0  0  0  0  0  0  0  0  0  0
   -1.9486   13.8750    0.0000 C   0  0  0  0  0  0  0  0  0  0  0  0
   -3.2476   14.6250    0.0000 C   0  0  0  0  0  0  0  0  0  0  0  0
   -4.5466   13.8750    0.0000 C   0  0  0  0  0  0  0  0  0  0  0  0
   -5.8457   14.6250    0.0000 C   0  0  0  0  0  0  0  0  0  0  0  0
   -7.1447   13.8750    0.0000 C   0  0  0  0  0  0  0  0  0  0  0  0
   -8.4437   14.6250    0.0000 C   0  0  0  0  0  0  0  0  0  0  0  0
   -9.7428   13.8750    0.0000 C   0  0  0  0  0  0  0  0  0  0  0  0
  -11.0418   14.6250    0.0000 C   0  0  0  0  0  0  0  0  0  0  0  0
  -12.3409   13.8750    0.0000 C   0  0  0  0  0  0  0  0  0  0  0  0
  -13.6399   14.6250    0.0000 C   0  0  0  0  0  0  0  0  0  0  0  0
  -14.9389   13.8750    0.0000 C   0  0  0  0  0  0  0  0  0  0  0  0
  -16.2380   14.6250    0.0000 C   0  0  0  0  0  0  0  0  0  0  0  0
  -17.5370   13.8750    0.0000 C   0  0  0  0  0  0  0  0  0  0  0  0
  -18.8361   14.6250    0.0000 C   0  0  0  0  0  0  0  0  0  0  0  0
  -20.1351   13.8750    0.0000 C   0  0  0  0  0  0  0  0  0  0  0  0
  -21.4341   14.6250    0.0000 C   0  0  0  0  0  0  0  0  0  0  0  0
  -21.4341   16.1250    0.0000 O   0  0  0  0  0  0  0  0  0  0  0  0
  -22.7332   13.8750    0.0000 O   0  0  0  0  0  0  0  0  0  0  0  0
  3  1  1  0
  4  3  1  0
  5  4  1  0
  6  5  1  0
  7  6  1  0
  8  7  1  0
  9  8  1  0
 10  9  1  0
 11 10  1  0
 12 11  1  0
 13 12  1  0
 14 13  1  0
 15 14  1  0
 16 15  1  0
 17 16  1  0
 18 17  1  0
 19 18  1  0
 20 19  1  0
 21 20  1  0
 22 21  1  0
 23 22  1  0
 24 23  1  0
 25 24  1  0
 26 25  2  0
 27  2  1  0
 27 25  1  0
M  END
>  <NAME>  (5642) 
METHYL TETRACOSANOATE

>  <SYNONYMS>  (5642) 


>  <SPECTRUM TYPE>  (5642) 
MS1

>  <INSTRUMENT TYPE>  (5642) 
EI-B

>  <INSTRUMENT>  (5642) 
SHIMADZU LKB-9000B

>  <ION MODE>  (5642) 
P

>  <INCHIKEY>  (5642) 
XUDJZDNUVZHSKZ-UHFFFAOYSA-N

>  <FORMULA>  (5642) 
C25H50O2

>  <EXACT MASS>  (5642) 
382.38108084

>  <MW>  (5642) 
382

>  <ID>  (5642) 
JP002667

>  <CONTRIBUTOR>  (5642) 
University of Tokyo Team, {Faculty of Engineering, University of Tokyo

>  <COMMENT>  (5642) 
SMILES=CCCCCCCCCCCCCCCCCCCCCCCC(=O)OC
InChI=InChI=1S/C25H50O2/c1-3-4-5-6-7-8-9-10-11-12-13-14-15-16-17-18-19-20-21-22-23-24-25(26)27-2/h3-24H2,1-2H3
computed SMILES=O=C(OC)CCCCCCCCCCCCCCCCCCCCCCC
accession=JP002667
date=2016.01.19 (Created 2008.10.21, modified 2011.05.06)
author=HAYASHI A, DEPT. OF CHEMISTRY, FAC. OF SCI. AND TECHNOLOGY, KINKI UNIV.
license=CC BY-NC-SA
exact mass=382.38108
ionization energy=70 eV
ion type=[M]+*
computed spectral entropy=3.1387123230842886
computed normalized entropy=0.7729975066592323
SPLASH=splash10-00di-9311000000-49a941ff39c1dfe81ed9
submitter=submitter = University of Tokyo Team (Faculty of Engineering, University of Tokyo)
MoNA Rating=3.75

>  <NUM PEAKS>  (5642) 
58

>  <MASS SPECTRAL PEAKS>  (5642) 
43 1.3
55 6
56 1.1
57 0.73
59 1.7
67 2.7
68 1.3
69 1.11
70 2.4
71 9.3
74 83.2
75 26.8
76 0.11
79 1
81 4.2
82 2.4
83 1.45
84 5.7
85 7.8
88 8.2
98 7.8
99 2.9
101 11.5
102 0.12
110 2.1
111 9.5
112 3
113 0.22
115 6.4
116 0.3
121 3.3
125 7
126 1.3
127 1.5
129 1.98
130 6.1
145 1
151 1.4
165 1
191 1.9
199 19.8
200 3.5
205 1
207 0.7
208 1.7
209 0.15
213 4.5
214 0.12
228 1.8
242 1.9
270 1.3
283 15.6
284 3.9
298 0.21
341 2.2
354 1.8
383 17.2
384 2.8

$$$$

     RDKit          2D

 25 24  0  0  0  0  0  0  0  0999 V2000
  -22.0836   13.5000    0.0000 C   0  0  0  0  0  0  0  0  0  0  0  0
    7.7942   12.7500    0.0000 C   0  0  0  0  0  0  0  0  0  0  0  0
  -20.7846   12.7500    0.0000 C   0  0  0  0  0  0  0  0  0  0  0  0
  -19.4856   13.5000    0.0000 C   0  0  0  0  0  0  0  0  0  0  0  0
  -18.1865   12.7500    0.0000 C   0  0  0  0  0  0  0  0  0  0  0  0
  -16.8875   13.5000    0.0000 C   0  0  0  0  0  0  0  0  0  0  0  0
  -15.5885   12.7500    0.0000 C   0  0  0  0  0  0  0  0  0  0  0  0
  -14.2894   13.5000    0.0000 C   0  0  0  0  0  0  0  0  0  0  0  0
  -12.9904   12.7500    0.0000 C   0  0  0  0  0  0  0  0  0  0  0  0
  -11.6913   13.5000    0.0000 C   0  0  0  0  0  0  0  0  0  0  0  0
  -10.3923   12.7500    0.0000 C   0  0  0  0  0  0  0  0  0  0  0  0
   -9.0933   13.5000    0.0000 C   0  0  0  0  0  0  0  0  0  0  0  0
   -7.7942   12.7500    0.0000 C   0  0  0  0  0  0  0  0  0  0  0  0
   -6.4952   13.5000    0.0000 C   0  0  0  0  0  0  0  0  0  0  0  0
   -5.1962   12.7500    0.0000 C   0  0  0  0  0  0  0  0  0  0  0  0
   -3.8971   13.5000    0.0000 C   0  0  0  0  0  0  0  0  0  0  0  0
   -2.5981   12.7500    0.0000 C   0  0  0  0  0  0  0  0  0  0  0  0
   -1.2990   13.5000    0.0000 C   0  0  0  0  0  0  0  0  0  0  0  0
    0.0000   12.7500    0.0000 C   0  0  0  0  0  0  0  0  0  0  0  0
    1.2990   13.5000    0.0000 C   0  0  0  0  0  0  0  0  0  0  0  0
    2.5981   12.7500    0.0000 C   0  0  0  0  0  0  0  0  0  0  0  0
    3.8971   13.5000    0.0000 C   0  0  0  0  0  0  0  0  0  0  0  0
    5.1962   12.7500    0.0000 C   0  0  0  0  0  0  0  0  0  0  0  0
    5.1962   11.2500    0.0000 O   0  0  0  0  0  0  0  0  0  0  0  0
    6.4952   13.5000    0.0000 O   0  0  0  0  0  0  0  0  0  0  0  0
  3  1  1  0
  4  3  1  0
  5  4  1  0
  6  5  1  0
  7  6  1  0
  8  7  1  0
  9  8  1  0
 10  9  1  0
 11 10  1  0
 12 11  1  0
 13 12  1  0
 14 13  1  0
 15 14  1  0
 16 15  1  0
 17 16  1  0
 18 17  1  0
 19 18  1  0
 20 19  1  0
 21 20  1  0
 22 21  1  0
 23 22  1  0
 24 23  2  0
 25  2  1  0
 25 23  1  0
M  END
>  <NAME>  (5643) 
METHYL DOCOSANOATE

>  <SYNONYMS>  (5643) 


>  <SPECTRUM TYPE>  (5643) 
MS1

>  <INSTRUMENT TYPE>  (5643) 
EI-B

>  <INSTRUMENT>  (5643) 
SHIMADZU LKB-9000B

>  <ION MODE>  (5643) 
P

>  <INCHIKEY>  (5643) 
QSQLTHHMFHEFIY-UHFFFAOYSA-N

>  <FORMULA>  (5643) 
C23H46O2

>  <EXACT MASS>  (5643) 
354.349780712

>  <MW>  (5643) 
354

>  <ID>  (5643) 
JP002666

>  <CONTRIBUTOR>  (5643) 
University of Tokyo Team, {Faculty of Engineering, University of Tokyo

>  <COMMENT>  (5643) 
SMILES=CCCCCCCCCCCCCCCCCCCCCC(=O)OC
InChI=InChI=1S/C23H46O2/c1-3-4-5-6-7-8-9-10-11-12-13-14-15-16-17-18-19-20-21-22-23(24)25-2/h3-22H2,1-2H3
computed SMILES=O=C(OC)CCCCCCCCCCCCCCCCCCCCC
accession=JP002666
date=2016.01.19 (Created 2008.10.21, modified 2011.05.06)
author=HAYASHI A, DEPT. OF CHEMISTRY, FAC. OF SCI. AND TECHNOLOGY, KINKI UNIV.
license=CC BY-NC-SA
exact mass=354.34978
ionization energy=70 eV
ion type=[M]+*
computed spectral entropy=3.416001854537579
computed normalized entropy=0.7912012180942974
SPLASH=splash10-000i-9623000000-d9723fa66129f73c20c4
submitter=submitter = University of Tokyo Team (Faculty of Engineering, University of Tokyo)
MoNA Rating=3.75

>  <NUM PEAKS>  (5643) 
75

>  <MASS SPECTRAL PEAKS>  (5643) 
59 1.8
67 2.1
68 1.3
69 1.05
70 2.4
71 7.2
73 2.4
74 8.68
75 24.8
82 2.1
83 13.9
84 5.6
85 0.62
87 99.99
88 8.2
95 4.4
96 2.1
97 16.4
98 0.76
99 2.5
101 12.4
102 0.14
111 9.3
112 2.8
113 1.6
115 0.63
116 2.9
123 3.4
124 1.4
125 7
126 0.11
127 1.5
129 21.4
130 0.58
139 4.8
144 7.2
163 2
165 1.1
167 0.29
171 5.4
172 1.9
177 1.6
181 0.22
185 15.8
186 3.9
191 1.7
193 0.1
195 1.7
199 26.9
200 4.5
205 0.14
207 2.2
214 0.19
223 1.3
227 5.9
228 0.14
255 25.8
256 0.52
269 12.9
270 0.27
283 3.7
284 1.1
297 8.5
298 0.27
313 1.9
320 1.2
321 0.13
323 17.1
324 4.1
325 12.5
326 0.33
354 8.42
355 21.3
356 3.2
357 0.3

$$$$

     RDKit          2D

 23 22  0  0  0  0  0  0  0  0999 V2000
  -20.1351   12.3750    0.0000 C   0  0  0  0  0  0  0  0  0  0  0  0
    7.1447   11.6250    0.0000 C   0  0  0  0  0  0  0  0  0  0  0  0
  -18.8361   11.6250    0.0000 C   0  0  0  0  0  0  0  0  0  0  0  0
  -17.5370   12.3750    0.0000 C   0  0  0  0  0  0  0  0  0  0  0  0
  -16.2380   11.6250    0.0000 C   0  0  0  0  0  0  0  0  0  0  0  0
  -14.9389   12.3750    0.0000 C   0  0  0  0  0  0  0  0  0  0  0  0
  -13.6399   11.6250    0.0000 C   0  0  0  0  0  0  0  0  0  0  0  0
  -12.3409   12.3750    0.0000 C   0  0  0  0  0  0  0  0  0  0  0  0
  -11.0418   11.6250    0.0000 C   0  0  0  0  0  0  0  0  0  0  0  0
   -9.7428   12.3750    0.0000 C   0  0  0  0  0  0  0  0  0  0  0  0
   -8.4437   11.6250    0.0000 C   0  0  0  0  0  0  0  0  0  0  0  0
   -7.1447   12.3750    0.0000 C   0  0  0  0  0  0  0  0  0  0  0  0
   -5.8457   11.6250    0.0000 C   0  0  0  0  0  0  0  0  0  0  0  0
   -4.5466   12.3750    0.0000 C   0  0  0  0  0  0  0  0  0  0  0  0
   -3.2476   11.6250    0.0000 C   0  0  0  0  0  0  0  0  0  0  0  0
   -1.9486   12.3750    0.0000 C   0  0  0  0  0  0  0  0  0  0  0  0
   -0.6495   11.6250    0.0000 C   0  0  0  0  0  0  0  0  0  0  0  0
    0.6495   12.3750    0.0000 C   0  0  0  0  0  0  0  0  0  0  0  0
    1.9486   11.6250    0.0000 C   0  0  0  0  0  0  0  0  0  0  0  0
    3.2476   12.3750    0.0000 C   0  0  0  0  0  0  0  0  0  0  0  0
    4.5466   11.6250    0.0000 C   0  0  0  0  0  0  0  0  0  0  0  0
    4.5466   10.1250    0.0000 O   0  0  0  0  0  0  0  0  0  0  0  0
    5.8457   12.3750    0.0000 O   0  0  0  0  0  0  0  0  0  0  0  0
  3  1  1  0
  4  3  1  0
  5  4  1  0
  6  5  1  0
  7  6  1  0
  8  7  1  0
  9  8  1  0
 10  9  1  0
 11 10  1  0
 12 11  1  0
 13 12  1  0
 14 13  1  0
 15 14  1  0
 16 15  1  0
 17 16  1  0
 18 17  1  0
 19 18  1  0
 20 19  1  0
 21 20  1  0
 22 21  2  0
 23  2  1  0
 23 21  1  0
M  END
>  <NAME>  (5644) 
METHYL EICOSANOATE

>  <SYNONYMS>  (5644) 


>  <SPECTRUM TYPE>  (5644) 
MS1

>  <INSTRUMENT TYPE>  (5644) 
EI-B

>  <INSTRUMENT>  (5644) 
SHIMADZU LKB-9000B

>  <ION MODE>  (5644) 
P

>  <INCHIKEY>  (5644) 
QGBRLVONZXHAKJ-UHFFFAOYSA-N

>  <FORMULA>  (5644) 
C21H42O2

>  <EXACT MASS>  (5644) 
326.318480584

>  <MW>  (5644) 
326

>  <ID>  (5644) 
JP002665

>  <CONTRIBUTOR>  (5644) 
University of Tokyo Team, {Faculty of Engineering, University of Tokyo

>  <COMMENT>  (5644) 
SMILES=CCCCCCCCCCCCCCCCCCCC(=O)OC
InChI=InChI=1S/C21H42O2/c1-3-4-5-6-7-8-9-10-11-12-13-14-15-16-17-18-19-20-21(22)23-2/h3-20H2,1-2H3
computed SMILES=O=C(OC)CCCCCCCCCCCCCCCCCCC
accession=JP002665
date=2016.01.19 (Created 2008.10.21, modified 2011.05.06)
author=HAYASHI A, DEPT. OF CHEMISTRY, FAC. OF SCI. AND TECHNOLOGY, KINKI UNIV.
license=CC BY-NC-SA
exact mass=326.31848
ionization energy=70 eV
ion type=[M]+*
computed spectral entropy=3.495153080318885
computed normalized entropy=0.7407341138898195
SPLASH=splash10-002u-9742000000-94bbdb48bccde8416ebd
submitter=submitter = University of Tokyo Team (Faculty of Engineering, University of Tokyo)
MoNA Rating=3.75

>  <NUM PEAKS>  (5644) 
112

>  <MASS SPECTRAL PEAKS>  (5644) 
43 1.4
55 6.1
56 0.5
57 0.61
59 2.6
67 2.5
68 1
69 1.09
70 2.9
71 6.2
73 1.9
74 9.95
75 24.8
76 1.2
79 1.2
81 0.32
82 2.2
83 12
84 5
85 0.54
87 99.99
88 8.4
89 0.6
93 0.13
94 0.7
95 2.9
96 1.6
97 1.43
98 6.6
99 1.8
101 11.3
102 0.12
107 1.1
108 0.8
109 2.9
111 7.6
112 2.7
113 1.4
115 0.63
116 2.8
118 0.18
121 2.3
122 0.6
123 0.27
124 1.1
125 5.5
126 1
127 0.11
129 20
130 4.5
131 0.7
133 0.08
135 1.8
137 1.7
138 0.7
139 0.35
140 0.6
141 1
143 59
144 0.58
145 0.9
149 1
151 0.8
153 0.22
157 6
158 1.5
163 1.5
165 0.07
167 1.7
171 7.1
172 1.8
177 0.12
179 0.6
181 1.3
185 14.2
186 0.36
191 1.2
192 0.6
195 1.2
199 1.71
200 2.6
205 0.8
207 0.3
208 0.06
209 0.4
213 4.5
214 1.2
219 0.01
221 0.4
223 0.6
227 16
228 0.32
241 11
242 2.1
250 0.9
255 0.55
256 0.8
269 4.8
270 1.4
282 0.09
283 34.5
284 7
285 0.6
292 0.08
293 0.7
295 11.9
296 3
297 0.79
298 1.6
326 42.2
327 9.4
328 1

$$$$

     RDKit          2D

 21 20  0  0  0  0  0  0  0  0999 V2000
    6.4952   10.5000    0.0000 C   0  0  0  0  0  0  0  0  0  0  0  0
  -18.1865   11.2500    0.0000 C   0  0  0  0  0  0  0  0  0  0  0  0
    5.1962   11.2500    0.0000 C   0  0  0  0  0  0  0  0  0  0  0  0
    3.8971   10.5000    0.0000 C   0  0  0  0  0  0  0  0  0  0  0  0
    2.5981   11.2500    0.0000 C   0  0  0  0  0  0  0  0  0  0  0  0
    1.2990   10.5000    0.0000 C   0  0  0  0  0  0  0  0  0  0  0  0
    0.0000   11.2500    0.0000 C   0  0  0  0  0  0  0  0  0  0  0  0
   -1.2990   10.5000    0.0000 C   0  0  0  0  0  0  0  0  0  0  0  0
   -2.5981   11.2500    0.0000 C   0  0  0  0  0  0  0  0  0  0  0  0
   -3.8971   10.5000    0.0000 C   0  0  0  0  0  0  0  0  0  0  0  0
   -5.1962   11.2500    0.0000 C   0  0  0  0  0  0  0  0  0  0  0  0
   -6.4952   10.5000    0.0000 C   0  0  0  0  0  0  0  0  0  0  0  0
   -7.7942   11.2500    0.0000 C   0  0  0  0  0  0  0  0  0  0  0  0
   -9.0933   10.5000    0.0000 C   0  0  0  0  0  0  0  0  0  0  0  0
  -10.3923   11.2500    0.0000 C   0  0  0  0  0  0  0  0  0  0  0  0
  -11.6913   10.5000    0.0000 C   0  0  0  0  0  0  0  0  0  0  0  0
  -12.9904   11.2500    0.0000 C   0  0  0  0  0  0  0  0  0  0  0  0
  -14.2894   10.5000    0.0000 C   0  0  0  0  0  0  0  0  0  0  0  0
  -15.5885   11.2500    0.0000 C   0  0  0  0  0  0  0  0  0  0  0  0
  -15.5885   12.7500    0.0000 O   0  0  0  0  0  0  0  0  0  0  0  0
  -16.8875   10.5000    0.0000 O   0  0  0  0  0  0  0  0  0  0  0  0
  3  1  1  0
  4  3  1  0
  4  5  2  0
  6  5  1  0
  7  6  1  0
  7  8  2  0
  9  8  1  0
 10  9  1  0
 10 11  2  0
 12 11  1  0
 13 12  1  0
 14 13  1  0
 15 14  1  0
 16 15  1  0
 17 16  1  0
 18 17  1  0
 19 18  1  0
 20 19  2  0
 21  2  1  0
 21 19  1  0
M  END
>  <NAME>  (5645) 
METHYL-9,12,15-OCTADECATRIENOATE

>  <SYNONYMS>  (5645) 


>  <SPECTRUM TYPE>  (5645) 
MS1

>  <INSTRUMENT TYPE>  (5645) 
EI-B

>  <INSTRUMENT>  (5645) 
SHIMADZU LKB-9000B

>  <ION MODE>  (5645) 
P

>  <INCHIKEY>  (5645) 
DVWSXZIHSUZZKJ-JSIPCRQOSA-N

>  <FORMULA>  (5645) 
C19H32O2

>  <EXACT MASS>  (5645) 
292.240230264

>  <MW>  (5645) 
292

>  <ID>  (5645) 
JP002664

>  <CONTRIBUTOR>  (5645) 
University of Tokyo Team, {Faculty of Engineering, University of Tokyo

>  <COMMENT>  (5645) 
SMILES=CCC=CCC=CCC=CCCCCCCCC(=O)OC
InChI=InChI=1S/C19H32O2/c1-3-4-5-6-7-8-9-10-11-12-13-14-15-16-17-18-19(20)21-2/h4-5,7-8,10-11H,3,6,9,12-18H2,1-2H3/b5-4+,8-7+,11-10+
computed SMILES=O=C(OC)CCCCCCCC=CCC=CCC=CCC
accession=JP002664
date=2016.01.19 (Created 2008.10.21, modified 2011.05.06)
author=HAYASHI A, DEPT. OF CHEMISTRY, FAC. OF SCI. AND TECHNOLOGY, KINKI UNIV.
license=CC BY-NC-SA
exact mass=292.24023
ionization energy=70 eV
ion type=[M]+*
computed spectral entropy=3.872693114736684
computed normalized entropy=0.7968811946858174
SPLASH=splash10-0a7m-9710000000-a711aabccb84e2c5bca5
submitter=submitter = University of Tokyo Team (Faculty of Engineering, University of Tokyo)
MoNA Rating=3.75

>  <NUM PEAKS>  (5645) 
129

>  <MASS SPECTRAL PEAKS>  (5645) 
53 1.7
54 2.6
55 5.1
59 2.2
65 3.2
66 4.8
67 39.5
68 0.98
69 11.1
74 7.7
77 15
78 1.35
79 99.99
80 48.3
81 48.9
82 1.31
83 9.1
85 4.1
87 15.8
90 0.16
91 31
92 8.3
93 75.6
94 3.93
95 94.4
96 17.6
97 10.6
98 0.21
104 1.3
105 17.3
106 7.7
107 4.59
108 88.1
109 31.4
110 6.8
111 0.57
113 1
115 2.2
116 1.7
117 0.48
118 1.4
119 11.5
120 6.4
121 4.5
122 29.8
123 13.2
124 2.9
125 0.4
129 4.8
131 7.7
133 9.4
134 0.46
135 37
136 27.7
137 8.1
138 0.21
139 1.8
141 3.4
143 3.5
144 0.1
146 20.1
147 7.5
148 3.1
149 3.22
150 15.8
151 4.1
154 1.3
155 0.16
157 2.5
158 17.7
159 2.4
161 0.56
162 3.5
163 14.6
164 9.3
165 0.23
167 1.7
168 1.6
170 1.2
171 0.24
173 11.1
174 2.8
175 6
176 0.19
177 4.7
178 5.1
179 2
181 0.25
182 1.5
185 2.2
186 1.2
191 1.15
192 3.5
193 1.4
202 1.5
203 0.15
204 2.6
205 1.9
206 1.6
207 0.17
208 1.3
210 1.5
213 1.2
217 0.31
218 1.6
221 1.8
222 1.8
223 0.61
224 2.5
231 1.7
232 1.2
235 2
236 1.86
237 3.9
238 1.8
243 1.3
249 0.35
250 2.2
259 2.1
261 15.3
262 0.34
263 6.4
264 1.6
270 1.9
280 1.5
288 12.8
290 2.3
292 26.2
293 0.58

$$$$

     RDKit          2D

 21 20  0  0  0  0  0  0  0  0999 V2000
    6.4952   10.5000    0.0000 C   0  0  0  0  0  0  0  0  0  0  0  0
  -18.1865   11.2500    0.0000 C   0  0  0  0  0  0  0  0  0  0  0  0
    5.1962   11.2500    0.0000 C   0  0  0  0  0  0  0  0  0  0  0  0
    3.8971   10.5000    0.0000 C   0  0  0  0  0  0  0  0  0  0  0  0
    2.5981   11.2500    0.0000 C   0  0  0  0  0  0  0  0  0  0  0  0
    1.2990   10.5000    0.0000 C   0  0  0  0  0  0  0  0  0  0  0  0
    0.0000   11.2500    0.0000 C   0  0  0  0  0  0  0  0  0  0  0  0
   -1.2990   10.5000    0.0000 C   0  0  0  0  0  0  0  0  0  0  0  0
   -2.5981   11.2500    0.0000 C   0  0  0  0  0  0  0  0  0  0  0  0
   -3.8971   10.5000    0.0000 C   0  0  0  0  0  0  0  0  0  0  0  0
   -5.1962   11.2500    0.0000 C   0  0  0  0  0  0  0  0  0  0  0  0
   -6.4952   10.5000    0.0000 C   0  0  0  0  0  0  0  0  0  0  0  0
   -7.7942   11.2500    0.0000 C   0  0  0  0  0  0  0  0  0  0  0  0
   -9.0933   10.5000    0.0000 C   0  0  0  0  0  0  0  0  0  0  0  0
  -10.3923   11.2500    0.0000 C   0  0  0  0  0  0  0  0  0  0  0  0
  -11.6913   10.5000    0.0000 C   0  0  0  0  0  0  0  0  0  0  0  0
  -12.9904   11.2500    0.0000 C   0  0  0  0  0  0  0  0  0  0  0  0
  -14.2894   10.5000    0.0000 C   0  0  0  0  0  0  0  0  0  0  0  0
  -15.5885   11.2500    0.0000 C   0  0  0  0  0  0  0  0  0  0  0  0
  -15.5885   12.7500    0.0000 O   0  0  0  0  0  0  0  0  0  0  0  0
  -16.8875   10.5000    0.0000 O   0  0  0  0  0  0  0  0  0  0  0  0
  3  1  1  0
  4  3  1  0
  5  4  1  0
  6  5  1  0
  7  6  1  0
  7  8  2  0
  9  8  1  0
 10  9  1  0
 10 11  2  0
 12 11  1  0
 13 12  1  0
 14 13  1  0
 15 14  1  0
 16 15  1  0
 17 16  1  0
 18 17  1  0
 19 18  1  0
 20 19  2  0
 21  2  1  0
 21 19  1  0
M  END
>  <NAME>  (5646) 
METHYL-9,12-OCTADECADIENOATE

>  <SYNONYMS>  (5646) 


>  <SPECTRUM TYPE>  (5646) 
MS1

>  <INSTRUMENT TYPE>  (5646) 
EI-B

>  <INSTRUMENT>  (5646) 
SHIMADZU LKB-9000B

>  <ION MODE>  (5646) 
P

>  <INCHIKEY>  (5646) 
WTTJVINHCBCLGX-ZDVGBALWSA-N

>  <FORMULA>  (5646) 
C19H34O2

>  <EXACT MASS>  (5646) 
294.255880328

>  <MW>  (5646) 
294

>  <ID>  (5646) 
JP002663

>  <CONTRIBUTOR>  (5646) 
University of Tokyo Team, {Faculty of Engineering, University of Tokyo

>  <COMMENT>  (5646) 
SMILES=CCCCCC=CCC=CCCCCCCCC(=O)OC
cas=13038-47-6
InChI=InChI=1S/C19H34O2/c1-3-4-5-6-7-8-9-10-11-12-13-14-15-16-17-18-19(20)21-2/h7-8,10-11H,3-6,9,12-18H2,1-2H3/b8-7+,11-10+
computed SMILES=O=C(OC)CCCCCCCC=CCC=CCCCCC
accession=JP002663
date=2016.01.19 (Created 2008.10.21, modified 2011.05.06)
author=HAYASHI A, DEPT. OF CHEMISTRY, FAC. OF SCI. AND TECHNOLOGY, KINKI UNIV.
license=CC BY-NC-SA
exact mass=294.25588
ionization energy=70 eV
ion type=[M]+*
computed spectral entropy=4.142059189313162
computed normalized entropy=0.8346139155874078
SPLASH=splash10-01qa-8920000000-1f86d7f4e3cf3a8132da
submitter=submitter = University of Tokyo Team (Faculty of Engineering, University of Tokyo)
MoNA Rating=3.75

>  <NUM PEAKS>  (5646) 
143

>  <MASS SPECTRAL PEAKS>  (5646) 
53 1
54 12.6
55 10.4
57 0.1
59 1.7
65 2.7
66 4.5
67 7.33
68 36.9
69 25.7
70 2.1
71 0.28
74 9
77 11.2
78 3.5
79 3.37
80 27.7
81 99.99
82 62.4
83 2.57
84 5.4
85 6
86 1.8
87 1.05
88 2.8
89 1.4
91 15.1
92 0.43
93 22.4
94 25.5
95 98.4
96 7.38
97 24.7
98 4.1
99 1.4
105 0.51
106 4.6
107 21.3
108 18.9
109 5.96
110 47.5
111 15.2
112 2.4
113 0.19
115 8.6
116 1
117 3.7
119 0.61
120 7.4
121 25.8
122 23.5
123 3.78
124 32.3
125 8
127 2.2
129 0.73
131 6.1
132 2.1
133 8.6
134 0.4
135 24.6
136 31.9
137 24.7
138 1.74
139 8.2
140 3.8
141 6.4
143 0.32
144 1.1
147 1.8
148 1.7
149 2.15
150 35.5
151 18.7
152 14.2
153 0.66
154 5.4
155 2.8
157 2.5
158 0.27
159 9.7
160 2
161 3.9
162 0.21
163 16
164 26.9
165 13.9
166 0.75
167 4.4
168 5.3
169 3.2
170 0.3
173 4.5
174 1.3
175 2.1
177 0.86
178 19.6
179 8.3
180 3.7
181 0.49
182 4.6
183 2.3
187 4.7
191 0.76
192 6.1
193 4.8
194 1.8
195 0.4
196 4.3
201 2
204 3.6
205 0.41
206 3.7
208 1.1
209 3.9
210 0.36
214 3.9
215 1.8
218 1.7
219 0.24
220 11.6
221 3.4
222 1.7
223 0.28
224 3.4
230 3.9
234 4.5
235 0.17
237 2.1
238 2.1
244 2.2
245 0.24
247 1.6
258 2.6
261 1.9
262 2.76
263 34.7
264 7
265 1.9
280 0.34
286 2.2
294 50.7
295 11.9

$$$$

     RDKit          2D

 21 20  0  0  0  0  0  0  0  0999 V2000
    6.4952   10.5000    0.0000 C   0  0  0  0  0  0  0  0  0  0  0  0
  -18.1865   11.2500    0.0000 C   0  0  0  0  0  0  0  0  0  0  0  0
    5.1962   11.2500    0.0000 C   0  0  0  0  0  0  0  0  0  0  0  0
    3.8971   10.5000    0.0000 C   0  0  0  0  0  0  0  0  0  0  0  0
    2.5981   11.2500    0.0000 C   0  0  0  0  0  0  0  0  0  0  0  0
    1.2990   10.5000    0.0000 C   0  0  0  0  0  0  0  0  0  0  0  0
    0.0000   11.2500    0.0000 C   0  0  0  0  0  0  0  0  0  0  0  0
   -1.2990   10.5000    0.0000 C   0  0  0  0  0  0  0  0  0  0  0  0
   -2.5981   11.2500    0.0000 C   0  0  0  0  0  0  0  0  0  0  0  0
   -3.8971   10.5000    0.0000 C   0  0  0  0  0  0  0  0  0  0  0  0
   -5.1962   11.2500    0.0000 C   0  0  0  0  0  0  0  0  0  0  0  0
   -6.4952   10.5000    0.0000 C   0  0  0  0  0  0  0  0  0  0  0  0
   -7.7942   11.2500    0.0000 C   0  0  0  0  0  0  0  0  0  0  0  0
   -9.0933   10.5000    0.0000 C   0  0  0  0  0  0  0  0  0  0  0  0
  -10.3923   11.2500    0.0000 C   0  0  0  0  0  0  0  0  0  0  0  0
  -11.6913   10.5000    0.0000 C   0  0  0  0  0  0  0  0  0  0  0  0
  -12.9904   11.2500    0.0000 C   0  0  0  0  0  0  0  0  0  0  0  0
  -14.2894   10.5000    0.0000 C   0  0  0  0  0  0  0  0  0  0  0  0
  -15.5885   11.2500    0.0000 C   0  0  0  0  0  0  0  0  0  0  0  0
  -15.5885   12.7500    0.0000 O   0  0  0  0  0  0  0  0  0  0  0  0
  -16.8875   10.5000    0.0000 O   0  0  0  0  0  0  0  0  0  0  0  0
  3  1  1  0
  4  3  1  0
  5  4  1  0
  6  5  1  0
  7  6  1  0
  8  7  1  0
  9  8  1  0
 10  9  1  0
 10 11  2  0
 12 11  1  0
 13 12  1  0
 14 13  1  0
 15 14  1  0
 16 15  1  0
 17 16  1  0
 18 17  1  0
 19 18  1  0
 20 19  2  0
 21  2  1  0
 21 19  1  0
M  END
>  <NAME>  (5647) 
METHYL-9-OCTADECENOATE

>  <SYNONYMS>  (5647) 


>  <SPECTRUM TYPE>  (5647) 
MS1

>  <INSTRUMENT TYPE>  (5647) 
EI-B

>  <INSTRUMENT>  (5647) 
SHIMADZU LKB-9000B

>  <ION MODE>  (5647) 
P

>  <INCHIKEY>  (5647) 
QYDYPVFESGNLHU-ZHACJKMWSA-N

>  <FORMULA>  (5647) 
C19H36O2

>  <EXACT MASS>  (5647) 
296.271530392

>  <MW>  (5647) 
296

>  <ID>  (5647) 
JP002662

>  <CONTRIBUTOR>  (5647) 
University of Tokyo Team, {Faculty of Engineering, University of Tokyo

>  <COMMENT>  (5647) 
SMILES=CCCCCCCCC=CCCCCCCCC(=O)OC
InChI=InChI=1S/C19H36O2/c1-3-4-5-6-7-8-9-10-11-12-13-14-15-16-17-18-19(20)21-2/h10-11H,3-9,12-18H2,1-2H3/b11-10+
computed SMILES=O=C(OC)CCCCCCCC=CCCCCCCCC
accession=JP002662
date=2016.01.19 (Created 2008.10.21, modified 2011.05.06)
author=HAYASHI A, DEPT. OF CHEMISTRY, FAC. OF SCI. AND TECHNOLOGY, KINKI UNIV.
license=CC BY-NC-SA
exact mass=296.27153
ionization energy=70 eV
ion type=[M]+*
computed spectral entropy=4.147547886788386
computed normalized entropy=0.8534378576148269
SPLASH=splash10-03ea-7930000000-17eb05bbccb341c02e68
submitter=submitter = University of Tokyo Team (Faculty of Engineering, University of Tokyo)
MoNA Rating=3.75

>  <NUM PEAKS>  (5647) 
129

>  <MASS SPECTRAL PEAKS>  (5647) 
53 1
54 7.3
55 16.6
57 0.54
59 5.9
67 27
68 21.2
69 6.03
70 10.7
71 7.7
74 67.1
75 0.14
79 12.2
80 9
81 47.5
82 3.28
83 80
84 62.5
85 15
87 6.62
88 1.8
91 5
93 11.2
94 1.14
95 43.6
96 85.9
97 92.7
98 7.88
105 5.4
106 2.8
107 8.9
108 0.91
109 37.3
110 58.7
111 62
112 2.24
113 10.5
115 9.9
116 3.3
119 1.03
120 5.7
121 16
122 8
123 4.84
124 37.7
125 37.5
127 5.2
128 1.19
129 10.5
130 3.5
131 1.4
133 1.03
134 11
135 13.8
136 6.5
137 3.57
138 28.8
139 24
140 3.6
141 2.32
142 4.9
143 13.8
144 3.2
146 4.38
147 5.2
148 9.7
149 11.8
150 0.6
151 25.2
152 28.7
153 18.2
154 0.27
155 7.1
156 2.8
157 6.7
158 2.73
161 5.5
162 5.3
163 5.4
164 0.52
165 16.2
166 23.3
167 12.1
168 0.29
169 10
170 3.7
171 1.8
172 0.1
173 1.1
175 5.7
177 4.1
178 0.29
179 9.8
180 44.4
181 11.1
183 0.63
185 4.5
187 5.8
188 62
189 1.05
191 4.6
193 7.4
194 9.4
195 0.37
199 6
200 2.9
204 3.2
207 0.63
208 6.9
209 3.1
213 4.4
214 2.62
215 3.2
220 18.4
221 16.4
222 5.18
223 14
235 10.7
236 7.1
246 0.81
247 4.8
253 2.6
264 99.99
265 59.5
266 11.6
267 3.6
280 3.1
296 1.8
297 4.2

$$$$

     RDKit          2D

 21 20  0  0  0  0  0  0  0  0999 V2000
    6.4952   10.5000    0.0000 C   0  0  0  0  0  0  0  0  0  0  0  0
  -18.1865   11.2500    0.0000 C   0  0  0  0  0  0  0  0  0  0  0  0
    5.1962   11.2500    0.0000 C   0  0  0  0  0  0  0  0  0  0  0  0
    3.8971   10.5000    0.0000 C   0  0  0  0  0  0  0  0  0  0  0  0
    2.5981   11.2500    0.0000 C   0  0  0  0  0  0  0  0  0  0  0  0
    1.2990   10.5000    0.0000 C   0  0  0  0  0  0  0  0  0  0  0  0
    0.0000   11.2500    0.0000 C   0  0  0  0  0  0  0  0  0  0  0  0
   -1.2990   10.5000    0.0000 C   0  0  0  0  0  0  0  0  0  0  0  0
   -2.5981   11.2500    0.0000 C   0  0  0  0  0  0  0  0  0  0  0  0
   -3.8971   10.5000    0.0000 C   0  0  0  0  0  0  0  0  0  0  0  0
   -5.1962   11.2500    0.0000 C   0  0  0  0  0  0  0  0  0  0  0  0
   -6.4952   10.5000    0.0000 C   0  0  0  0  0  0  0  0  0  0  0  0
   -7.7942   11.2500    0.0000 C   0  0  0  0  0  0  0  0  0  0  0  0
   -9.0933   10.5000    0.0000 C   0  0  0  0  0  0  0  0  0  0  0  0
  -10.3923   11.2500    0.0000 C   0  0  0  0  0  0  0  0  0  0  0  0
  -11.6913   10.5000    0.0000 C   0  0  0  0  0  0  0  0  0  0  0  0
  -12.9904   11.2500    0.0000 C   0  0  0  0  0  0  0  0  0  0  0  0
  -14.2894   10.5000    0.0000 C   0  0  0  0  0  0  0  0  0  0  0  0
  -15.5885   11.2500    0.0000 C   0  0  0  0  0  0  0  0  0  0  0  0
  -15.5885   12.7500    0.0000 O   0  0  0  0  0  0  0  0  0  0  0  0
  -16.8875   10.5000    0.0000 O   0  0  0  0  0  0  0  0  0  0  0  0
  3  1  1  0
  4  3  1  0
  5  4  1  0
  6  5  1  0
  7  6  1  0
  8  7  1  0
  9  8  1  0
 10  9  1  0
 11 10  1  0
 12 11  1  0
 13 12  1  0
 14 13  1  0
 15 14  1  0
 16 15  1  0
 17 16  1  0
 18 17  1  0
 19 18  1  0
 20 19  2  0
 21  2  1  0
 21 19  1  0
M  END
>  <NAME>  (5648) 
METHYL OCTADECANOATE

>  <SYNONYMS>  (5648) 


>  <SPECTRUM TYPE>  (5648) 
MS1

>  <INSTRUMENT TYPE>  (5648) 
EI-B

>  <INSTRUMENT>  (5648) 
SHIMADZU LKB-9000B

>  <ION MODE>  (5648) 
P

>  <INCHIKEY>  (5648) 
HPEUJPJOZXNMSJ-UHFFFAOYSA-N

>  <FORMULA>  (5648) 
C19H38O2

>  <EXACT MASS>  (5648) 
298.287180456

>  <MW>  (5648) 
298

>  <ID>  (5648) 
JP002661

>  <CONTRIBUTOR>  (5648) 
University of Tokyo Team, {Faculty of Engineering, University of Tokyo

>  <COMMENT>  (5648) 
SMILES=CCCCCCCCCCCCCCCCCC(=O)OC
InChI=InChI=1S/C19H38O2/c1-3-4-5-6-7-8-9-10-11-12-13-14-15-16-17-18-19(20)21-2/h3-18H2,1-2H3
computed SMILES=O=C(OC)CCCCCCCCCCCCCCCCC
accession=JP002661
date=2016.01.19 (Created 2008.10.21, modified 2011.05.06)
author=HAYASHI A, DEPT. OF CHEMISTRY, FAC. OF SCI. AND TECHNOLOGY, KINKI UNIV.
license=CC BY-NC-SA
exact mass=298.28718
ionization energy=70 eV
ion type=[M]+*
computed spectral entropy=2.8264908568393805
computed normalized entropy=0.7225138637777615
SPLASH=splash10-000i-9140000000-9c8fe8a8792848c128b9
submitter=submitter = University of Tokyo Team (Faculty of Engineering, University of Tokyo)
MoNA Rating=3.75

>  <NUM PEAKS>  (5648) 
50

>  <MASS SPECTRAL PEAKS>  (5648) 
43 1.3
55 6.3
56 1.3
57 0.55
59 2.3
67 1.8
68 1
69 1.06
70 1.8
71 5.7
73 1.5
74 9.51
75 18.7
82 1.5
83 10.4
84 4.5
85 0.44
87 99.99
88 0.83
95 3.5
96 1.7
97 11.2
98 0.57
99 1.6
101 10.7
109 2.6
110 1.1
111 6.5
112 0.18
113 1
115 5.2
116 2.3
121 0.16
123 1.8
137 1
144 5.2
158 1
186 2.3
200 3.5
213 9
214 0.12
241 6.2
242 1.3
255 32.8
256 0.61
269 7.1
270 1.4
298 30.9
299 0.67
300 0.6

$$$$

     RDKit          2D

 30 29  0  0  0  0  0  0  0  0999 V2000
    9.7428   16.1250    0.0000 C   0  0  0  0  0  0  0  0  0  0  0  0
  -27.9293   16.8750    0.0000 C   0  0  0  0  0  0  0  0  0  0  0  0
    8.4437   16.8750    0.0000 C   0  0  0  0  0  0  0  0  0  0  0  0
  -26.6303   16.1250    0.0000 C   0  0  0  0  0  0  0  0  0  0  0  0
    7.1447   16.1250    0.0000 C   0  0  0  0  0  0  0  0  0  0  0  0
  -25.3312   16.8750    0.0000 C   0  0  0  0  0  0  0  0  0  0  0  0
    5.8457   16.8750    0.0000 C   0  0  0  0  0  0  0  0  0  0  0  0
  -24.0322   16.1250    0.0000 C   0  0  0  0  0  0  0  0  0  0  0  0
    4.5466   16.1250    0.0000 C   0  0  0  0  0  0  0  0  0  0  0  0
  -22.7332   16.8750    0.0000 C   0  0  0  0  0  0  0  0  0  0  0  0
    3.2476   16.8750    0.0000 C   0  0  0  0  0  0  0  0  0  0  0  0
  -21.4341   16.1250    0.0000 C   0  0  0  0  0  0  0  0  0  0  0  0
    1.9486   16.1250    0.0000 C   0  0  0  0  0  0  0  0  0  0  0  0
  -20.1351   16.8750    0.0000 C   0  0  0  0  0  0  0  0  0  0  0  0
    0.6495   16.8750    0.0000 C   0  0  0  0  0  0  0  0  0  0  0  0
  -18.8361   16.1250    0.0000 C   0  0  0  0  0  0  0  0  0  0  0  0
   -0.6495   16.1250    0.0000 C   0  0  0  0  0  0  0  0  0  0  0  0
  -17.5370   16.8750    0.0000 C   0  0  0  0  0  0  0  0  0  0  0  0
   -1.9486   16.8750    0.0000 C   0  0  0  0  0  0  0  0  0  0  0  0
  -16.2380   16.1250    0.0000 C   0  0  0  0  0  0  0  0  0  0  0  0
   -3.2476   16.1250    0.0000 C   0  0  0  0  0  0  0  0  0  0  0  0
  -14.9389   16.8750    0.0000 C   0  0  0  0  0  0  0  0  0  0  0  0
   -4.5466   16.8750    0.0000 C   0  0  0  0  0  0  0  0  0  0  0  0
  -13.6399   16.1250    0.0000 C   0  0  0  0  0  0  0  0  0  0  0  0
   -5.8457   16.1250    0.0000 C   0  0  0  0  0  0  0  0  0  0  0  0
  -12.3409   16.8750    0.0000 C   0  0  0  0  0  0  0  0  0  0  0  0
   -7.1447   16.8750    0.0000 C   0  0  0  0  0  0  0  0  0  0  0  0
  -11.0418   16.1250    0.0000 C   0  0  0  0  0  0  0  0  0  0  0  0
   -8.4437   16.1250    0.0000 C   0  0  0  0  0  0  0  0  0  0  0  0
   -9.7428   16.8750    0.0000 C   0  0  0  0  0  0  0  0  0  0  0  0
  3  1  1  0
  4  2  1  0
  5  3  1  0
  6  4  1  0
  7  5  1  0
  8  6  1  0
  9  7  1  0
 10  8  1  0
 11  9  1  0
 12 10  1  0
 13 11  1  0
 14 12  1  0
 15 13  1  0
 16 14  1  0
 17 15  1  0
 18 16  1  0
 19 17  1  0
 20 18  1  0
 21 19  1  0
 22 20  1  0
 23 21  1  0
 24 22  1  0
 25 23  1  0
 26 24  1  0
 27 25  1  0
 28 26  1  0
 29 27  1  0
 30 28  1  0
 30 29  1  0
M  END
>  <NAME>  (5649) 
TRIACONTANE

>  <SYNONYMS>  (5649) 


>  <SPECTRUM TYPE>  (5649) 
MS1

>  <INSTRUMENT TYPE>  (5649) 
EI-B

>  <INSTRUMENT>  (5649) 
SHIMADZU LKB-9000B

>  <ION MODE>  (5649) 
P

>  <INCHIKEY>  (5649) 
JXTPJDDICSTXJX-UHFFFAOYSA-N

>  <FORMULA>  (5649) 
C30H62

>  <EXACT MASS>  (5649) 
422.485151984

>  <MW>  (5649) 
422

>  <ID>  (5649) 
JP002660

>  <CONTRIBUTOR>  (5649) 
University of Tokyo Team, {Faculty of Engineering, University of Tokyo

>  <COMMENT>  (5649) 
SMILES=C(CCCCCCCCCCCCCCCCCCCCCCCCC)CCCC
InChI=InChI=1S/C30H62/c1-3-5-7-9-11-13-15-17-19-21-23-25-27-29-30-28-26-24-22-20-18-16-14-12-10-8-6-4-2/h3-30H2,1-2H3
computed SMILES=CCCCCCCCCCCCCCCCCCCCCCCCCCCCCC
accession=JP002660
date=2016.01.19 (Created 2008.10.21, modified 2011.05.06)
author=HAYASHI A, DEPT. OF CHEMISTRY, FAC. OF SCI. AND TECHNOLOGY, KINKI UNIV.
license=CC BY-NC-SA
exact mass=422.48515
ionization energy=70 eV
ion type=[M]+*
computed spectral entropy=3.1912900915969207
computed normalized entropy=0.6158671161432505
SPLASH=splash10-0a4l-9100000000-9b9337f2e1015ae42f14
submitter=submitter = University of Tokyo Team (Faculty of Engineering, University of Tokyo)
MoNA Rating=3.75

>  <NUM PEAKS>  (5649) 
178

>  <MASS SPECTRAL PEAKS>  (5649) 
41 13.2
42 3.8
43 31.8
44 29.7
45 2
47 0.8
50 0.18
51 2.1
52 1.7
53 1.2
54 0.21
55 99.99
57 44.3
58 2.3
59 0.1
60 0.05
65 0.1
67 2.1
68 1.7
69 0.78
70 4.7
71 28.8
72 1.9
73 0.1
75 0.2
76 0.1
77 0.6
78 0.08
79 0.4
80 0.2
81 1
82 0.25
83 6.8
84 3.3
85 20.5
86 0.11
87 0.4
89 0.3
90 0.3
91 0.1
92 0.1
93 0.7
95 1.2
96 0.02
97 5.7
98 1.4
99 5.4
100 0.08
101 0.3
102 0.4
105 0.1
107 0.11
108 1.2
109 1.1
110 0.2
111 0.33
112 1.7
113 4.9
114 0.3
115 0.04
117 0.2
119 0.6
121 0.6
122 0.02
123 0.4
125 1.5
126 1.7
127 0.32
128 0.1
129 0.6
130 0.5
131 0.01
132 0.5
133 0.7
134 0.1
135 0.18
136 0.1
137 0.7
139 0.5
141 3.3
142 0.4
143 0.6
145 0.1
147 1.8
148 0.5
149 4.4
150 0.13
151 0.6
152 0.4
153 1
154 0.12
155 2.6
156 0.6
157 0.5
158 0.13
159 0.03
161 0.4
165 0.6
167 0.2
168 0.08
169 1.7
170 0.5
175 0.3
176 0.04
179 0.1
180 0.2
181 0.1
182 0.06
183 1.6
184 0.5
185 0.4
190 0.03
191 0.2
192 0.1
195 0.2
196 0.05
197 3.1
198 0.4
199 0.3
203 0.04
206 0.1
207 0.3
208 0.5
209 0.2
210 0.3
213 0.4
215 0.4
216 0.03
217 0.2
219 0.1
221 0.3
222 0.03
224 0.5
225 1.2
236 0.3
238 0.04
239 0.6
247 0.4
249 0.5
250 0.03
251 0.3
252 0.1
253 0.6
254 0.01
255 0.4
256 0.3
259 0.6
260 0.03
265 0.2
266 0.3
267 0.3
268 0.03
270 0.4
280 0.4
281 0.3
283 0.01
295 0.6
309 0.7
313 0.2
314 0.05
316 0.6
318 0.3
323 0.4
327 0.05
329 0.2
337 0.3
343 0.04
352 0.6
355 1.3
365 0.3
368 0.4
373 0.01
375 0.3
379 0.4
391 0.5
393 0.06
408 0.3
422 0.5

$$$$

     RDKit          2D

 28 27  0  0  0  0  0  0  0  0999 V2000
  -25.9808   15.7500    0.0000 C   0  0  0  0  0  0  0  0  0  0  0  0
    9.0933   15.0000    0.0000 C   0  0  0  0  0  0  0  0  0  0  0  0
  -24.6817   15.0000    0.0000 C   0  0  0  0  0  0  0  0  0  0  0  0
    7.7942   15.7500    0.0000 C   0  0  0  0  0  0  0  0  0  0  0  0
  -23.3827   15.7500    0.0000 C   0  0  0  0  0  0  0  0  0  0  0  0
    6.4952   15.0000    0.0000 C   0  0  0  0  0  0  0  0  0  0  0  0
  -22.0836   15.0000    0.0000 C   0  0  0  0  0  0  0  0  0  0  0  0
    5.1962   15.7500    0.0000 C   0  0  0  0  0  0  0  0  0  0  0  0
  -20.7846   15.7500    0.0000 C   0  0  0  0  0  0  0  0  0  0  0  0
    3.8971   15.0000    0.0000 C   0  0  0  0  0  0  0  0  0  0  0  0
  -19.4856   15.0000    0.0000 C   0  0  0  0  0  0  0  0  0  0  0  0
    2.5981   15.7500    0.0000 C   0  0  0  0  0  0  0  0  0  0  0  0
  -18.1865   15.7500    0.0000 C   0  0  0  0  0  0  0  0  0  0  0  0
    1.2990   15.0000    0.0000 C   0  0  0  0  0  0  0  0  0  0  0  0
  -16.8875   15.0000    0.0000 C   0  0  0  0  0  0  0  0  0  0  0  0
    0.0000   15.7500    0.0000 C   0  0  0  0  0  0  0  0  0  0  0  0
  -15.5885   15.7500    0.0000 C   0  0  0  0  0  0  0  0  0  0  0  0
   -1.2990   15.0000    0.0000 C   0  0  0  0  0  0  0  0  0  0  0  0
  -14.2894   15.0000    0.0000 C   0  0  0  0  0  0  0  0  0  0  0  0
   -2.5981   15.7500    0.0000 C   0  0  0  0  0  0  0  0  0  0  0  0
  -12.9904   15.7500    0.0000 C   0  0  0  0  0  0  0  0  0  0  0  0
   -3.8971   15.0000    0.0000 C   0  0  0  0  0  0  0  0  0  0  0  0
  -11.6913   15.0000    0.0000 C   0  0  0  0  0  0  0  0  0  0  0  0
   -5.1962   15.7500    0.0000 C   0  0  0  0  0  0  0  0  0  0  0  0
  -10.3923   15.7500    0.0000 C   0  0  0  0  0  0  0  0  0  0  0  0
   -6.4952   15.0000    0.0000 C   0  0  0  0  0  0  0  0  0  0  0  0
   -9.0933   15.0000    0.0000 C   0  0  0  0  0  0  0  0  0  0  0  0
   -7.7942   15.7500    0.0000 C   0  0  0  0  0  0  0  0  0  0  0  0
  3  1  1  0
  4  2  1  0
  5  3  1  0
  6  4  1  0
  7  5  1  0
  8  6  1  0
  9  7  1  0
 10  8  1  0
 11  9  1  0
 12 10  1  0
 13 11  1  0
 14 12  1  0
 15 13  1  0
 16 14  1  0
 17 15  1  0
 18 16  1  0
 19 17  1  0
 20 18  1  0
 21 19  1  0
 22 20  1  0
 23 21  1  0
 24 22  1  0
 25 23  1  0
 26 24  1  0
 27 25  1  0
 28 26  1  0
 28 27  1  0
M  END
>  <NAME>  (5650) 
OCTACOSANE

>  <SYNONYMS>  (5650) 


>  <SPECTRUM TYPE>  (5650) 
MS1

>  <INSTRUMENT TYPE>  (5650) 
EI-B

>  <INSTRUMENT>  (5650) 
SHIMADZU LKB-9000B

>  <ION MODE>  (5650) 
P

>  <INCHIKEY>  (5650) 
ZYURHZPYMFLWSH-UHFFFAOYSA-N

>  <FORMULA>  (5650) 
C28H58

>  <EXACT MASS>  (5650) 
394.453851856

>  <MW>  (5650) 
394

>  <ID>  (5650) 
JP002659

>  <CONTRIBUTOR>  (5650) 
University of Tokyo Team, {Faculty of Engineering, University of Tokyo

>  <COMMENT>  (5650) 
SMILES=CCCCCCCCCCCCCCCCCCCCCCCCCCCC
InChI=InChI=1S/C28H58/c1-3-5-7-9-11-13-15-17-19-21-23-25-27-28-26-24-22-20-18-16-14-12-10-8-6-4-2/h3-28H2,1-2H3
computed SMILES=CCCCCCCCCCCCCCCCCCCCCCCCCCCC
license=CC BY-NC-SA
accession=JP002659
date=2016.01.19 (Created 2008.10.21, modified 2011.05.06)
author=HAYASHI A, DEPT. OF CHEMISTRY, FAC. OF SCI. AND TECHNOLOGY, KINKI UNIV.
exact mass=394.45385
ionization energy=70 eV
ion type=[M]+*
computed spectral entropy=3.779178224004692
computed normalized entropy=0.735010796111925
SPLASH=splash10-0abc-9200000000-7294b41f42fa63d08323
submitter=submitter = University of Tokyo Team (Faculty of Engineering, University of Tokyo)
MoNA Rating=3.75

>  <NUM PEAKS>  (5650) 
171

>  <MASS SPECTRAL PEAKS>  (5650) 
41 21
42 7.8
43 68.4
47 0.6
51 1.8
52 0.6
53 0.2
54 0.29
55 24.2
56 16.8
57 99.99
58 0.45
59 3.2
60 2.5
63 0.1
65 0.08
67 5.6
68 5
69 16.9
70 1.08
71 71.9
72 3.8
73 1.9
75 0.06
77 1.5
78 2
79 2.5
80 0.04
81 3.8
82 7.7
83 14.9
84 0.59
85 47.1
86 4
87 1.2
89 0.07
90 1
92 0.8
93 2.6
94 0.03
95 5.4
96 3.5
97 15.1
98 0.42
99 15
100 2.3
102 1.3
103 0.13
104 1.4
105 0.3
108 2.5
109 0.31
110 1.4
111 6.3
112 4.5
113 1.12
114 1.2
115 0.1
116 1.5
119 0.21
120 0.7
121 0.5
123 2
124 0.12
125 1.8
126 3.5
127 8
128 0.04
129 0.7
130 1.3
132 1.5
134 0.02
135 4.2
137 1.7
141 7.4
142 0.14
145 2.1
147 5.9
148 1.8
149 1.85
150 4.1
151 2.2
152 2.6
153 0.19
154 3.2
155 2.2
156 4.1
157 0.03
159 0.1
163 0.3
165 4.4
166 0.02
168 1.9
169 1.5
170 1.5
175 0.1
177 1
178 0.4
179 1.3
180 0.22
181 0.9
182 1.4
183 3.2
184 0.1
187 4.3
188 1.8
189 0.1
191 0.07
192 0.4
193 1
194 1.5
196 0.11
197 6
198 0.9
206 0.2
209 0.25
210 0.4
211 2.2
212 1.2
217 0.04
218 3.7
219 1.1
221 2.5
222 1.4
224 1.5
225 2.6
238 1.4
239 0.12
240 1.1
249 1.8
251 1.2
252 0.02
253 0.8
254 0.8
255 1.1
259 0.17
269 0.3
270 1.6
271 0.3
280 0.11
282 0.2
283 0.6
295 1.6
309 0.15
310 1.2
313 1.3
314 0.5
315 0.09
316 1.8
317 0.1
323 1.2
327 0.17
329 0.5
337 1.3
343 0.11
352 3.1
354 1.3
355 4.8
372 2.4
373 0.49
374 1.2
375 1.9
376 1.3
377 0.21
378 1.3
388 3.1
389 5.8
390 0.32
391 1.1
392 5.8
394 2.7

$$$$

     RDKit          2D

 24 23  0  0  0  0  0  0  0  0999 V2000
  -22.0836   13.5000    0.0000 C   0  0  0  0  0  0  0  0  0  0  0  0
    7.7942   12.7500    0.0000 C   0  0  0  0  0  0  0  0  0  0  0  0
  -20.7846   12.7500    0.0000 C   0  0  0  0  0  0  0  0  0  0  0  0
    6.4952   13.5000    0.0000 C   0  0  0  0  0  0  0  0  0  0  0  0
  -19.4856   13.5000    0.0000 C   0  0  0  0  0  0  0  0  0  0  0  0
    5.1962   12.7500    0.0000 C   0  0  0  0  0  0  0  0  0  0  0  0
  -18.1865   12.7500    0.0000 C   0  0  0  0  0  0  0  0  0  0  0  0
    3.8971   13.5000    0.0000 C   0  0  0  0  0  0  0  0  0  0  0  0
  -16.8875   13.5000    0.0000 C   0  0  0  0  0  0  0  0  0  0  0  0
    2.5981   12.7500    0.0000 C   0  0  0  0  0  0  0  0  0  0  0  0
  -15.5885   12.7500    0.0000 C   0  0  0  0  0  0  0  0  0  0  0  0
    1.2990   13.5000    0.0000 C   0  0  0  0  0  0  0  0  0  0  0  0
  -14.2894   13.5000    0.0000 C   0  0  0  0  0  0  0  0  0  0  0  0
    0.0000   12.7500    0.0000 C   0  0  0  0  0  0  0  0  0  0  0  0
  -12.9904   12.7500    0.0000 C   0  0  0  0  0  0  0  0  0  0  0  0
   -1.2990   13.5000    0.0000 C   0  0  0  0  0  0  0  0  0  0  0  0
  -11.6913   13.5000    0.0000 C   0  0  0  0  0  0  0  0  0  0  0  0
   -2.5981   12.7500    0.0000 C   0  0  0  0  0  0  0  0  0  0  0  0
  -10.3923   12.7500    0.0000 C   0  0  0  0  0  0  0  0  0  0  0  0
   -3.8971   13.5000    0.0000 C   0  0  0  0  0  0  0  0  0  0  0  0
   -9.0933   13.5000    0.0000 C   0  0  0  0  0  0  0  0  0  0  0  0
   -5.1962   12.7500    0.0000 C   0  0  0  0  0  0  0  0  0  0  0  0
   -7.7942   12.7500    0.0000 C   0  0  0  0  0  0  0  0  0  0  0  0
   -6.4952   13.5000    0.0000 C   0  0  0  0  0  0  0  0  0  0  0  0
  3  1  1  0
  4  2  1  0
  5  3  1  0
  6  4  1  0
  7  5  1  0
  8  6  1  0
  9  7  1  0
 10  8  1  0
 11  9  1  0
 12 10  1  0
 13 11  1  0
 14 12  1  0
 15 13  1  0
 16 14  1  0
 17 15  1  0
 18 16  1  0
 19 17  1  0
 20 18  1  0
 21 19  1  0
 22 20  1  0
 23 21  1  0
 24 22  1  0
 24 23  1  0
M  END
>  <NAME>  (5651) 
TETRACOSANE

>  <SYNONYMS>  (5651) 


>  <SPECTRUM TYPE>  (5651) 
MS1

>  <INSTRUMENT TYPE>  (5651) 
EI-B

>  <INSTRUMENT>  (5651) 
SHIMADZU LKB-9000B

>  <ION MODE>  (5651) 
P

>  <INCHIKEY>  (5651) 
POOSGDOYLQNASK-UHFFFAOYSA-N

>  <FORMULA>  (5651) 
C24H50

>  <EXACT MASS>  (5651) 
338.3912516

>  <MW>  (5651) 
338

>  <ID>  (5651) 
JP002658

>  <CONTRIBUTOR>  (5651) 
University of Tokyo Team, {Faculty of Engineering, University of Tokyo

>  <COMMENT>  (5651) 
SMILES=CCCCCCCCCCCCCCCCCCCCCCCC
InChI=InChI=1S/C24H50/c1-3-5-7-9-11-13-15-17-19-21-23-24-22-20-18-16-14-12-10-8-6-4-2/h3-24H2,1-2H3
computed SMILES=CCCCCCCCCCCCCCCCCCCCCCCC
accession=JP002658
date=2016.01.19 (Created 2008.10.21, modified 2011.05.06)
author=HAYASHI A, DEPT. OF CHEMISTRY, FAC. OF SCI. AND TECHNOLOGY, KINKI UNIV.
license=CC BY-NC-SA
exact mass=338.39125
ionization energy=70 eV
ion type=[M]+*
computed spectral entropy=3.16397689865876
computed normalized entropy=0.6314522436679223
SPLASH=splash10-0a4l-9100000000-800fccba1318c9c04367
submitter=submitter = University of Tokyo Team (Faculty of Engineering, University of Tokyo)
MoNA Rating=3.75

>  <NUM PEAKS>  (5651) 
150

>  <MASS SPECTRAL PEAKS>  (5651) 
41 28.5
42 7.1
43 70.8
44 1.9
45 1
47 0.5
49 0.6
50 0.06
51 0.4
52 0.2
53 0.6
54 0.21
55 24.4
56 14.5
57 99.99
58 0.49
59 1.6
60 1
64 0.5
66 0.03
67 4.3
68 3.6
69 15.5
70 1.01
71 69.2
72 2.5
73 0.7
75 0.28
76 0.6
77 0.8
78 0.6
79 0.08
80 0.6
81 0.6
82 4.4
83 1.05
84 6.6
85 45.2
86 3.3
87 0.05
90 0.7
91 0.8
92 0.3
93 0.07
94 1
95 2
96 3.3
97 0.94
98 0.4
99 13.3
100 0.8
102 0.04
103 0.2
104 0.3
105 0.7
108 0.13
109 0.4
110 0.4
111 4.5
112 0.22
113 9.3
114 0.9
115 1
116 0.07
117 0.6
121 0.2
123 1.1
124 0.07
125 2.7
126 1.9
127 5.5
128 0.03
129 0.3
130 0.5
132 0.6
134 0.01
135 2
137 0.1
138 0.1
141 0.51
142 0.7
143 0.5
145 0.9
146 0.06
147 2.4
148 0.6
149 7.2
150 0.15
151 0.9
152 0.8
153 1
154 0.21
155 4
156 1
158 0.5
161 0.06
162 0.4
165 1.3
167 0.1
168 0.06
169 2
177 0.2
178 0.2
180 0.03
181 0.3
182 0.9
183 1.8
184 0.05
187 0.2
188 0.4
191 0.4
193 0.06
194 0.7
196 0.6
197 2.8
198 0.05
205 0.1
206 0.1
207 2
208 0.09
209 1.3
210 0.6
211 1.3
212 0.7
215 0.4
219 0.1
221 0.3
222 0.06
224 0.7
225 1.4
226 0.5
238 0.06
239 0.4
251 0.5
252 0.2
254 0.02
255 0.2
259 0.4
266 0.4
267 0.03
270 0.5
271 0.7
272 0.4
281 0.08
282 0.6
295 0.6
316 0.4
327 0.07
333 0.5
338 0.4

$$$$

     RDKit          2D

 18 17  0  0  0  0  0  0  0  0999 V2000
  -16.2380   10.1250    0.0000 C   0  0  0  0  0  0  0  0  0  0  0  0
    5.8457    9.3750    0.0000 C   0  0  0  0  0  0  0  0  0  0  0  0
  -14.9389    9.3750    0.0000 C   0  0  0  0  0  0  0  0  0  0  0  0
    4.5466   10.1250    0.0000 C   0  0  0  0  0  0  0  0  0  0  0  0
  -13.6399   10.1250    0.0000 C   0  0  0  0  0  0  0  0  0  0  0  0
    3.2476    9.3750    0.0000 C   0  0  0  0  0  0  0  0  0  0  0  0
  -12.3409    9.3750    0.0000 C   0  0  0  0  0  0  0  0  0  0  0  0
    1.9486   10.1250    0.0000 C   0  0  0  0  0  0  0  0  0  0  0  0
  -11.0418   10.1250    0.0000 C   0  0  0  0  0  0  0  0  0  0  0  0
    0.6495    9.3750    0.0000 C   0  0  0  0  0  0  0  0  0  0  0  0
   -9.7428    9.3750    0.0000 C   0  0  0  0  0  0  0  0  0  0  0  0
   -0.6495   10.1250    0.0000 C   0  0  0  0  0  0  0  0  0  0  0  0
   -8.4437   10.1250    0.0000 C   0  0  0  0  0  0  0  0  0  0  0  0
   -1.9486    9.3750    0.0000 C   0  0  0  0  0  0  0  0  0  0  0  0
   -7.1447    9.3750    0.0000 C   0  0  0  0  0  0  0  0  0  0  0  0
   -3.2476   10.1250    0.0000 C   0  0  0  0  0  0  0  0  0  0  0  0
   -5.8457   10.1250    0.0000 C   0  0  0  0  0  0  0  0  0  0  0  0
   -4.5466    9.3750    0.0000 C   0  0  0  0  0  0  0  0  0  0  0  0
  3  1  1  0
  4  2  1  0
  5  3  1  0
  6  4  1  0
  7  5  1  0
  8  6  1  0
  9  7  1  0
 10  8  1  0
 11  9  1  0
 12 10  1  0
 13 11  1  0
 14 12  1  0
 15 13  1  0
 16 14  1  0
 17 15  1  0
 18 16  1  0
 18 17  1  0
M  END
>  <NAME>  (5652) 
OCTADECANE

>  <SYNONYMS>  (5652) 


>  <SPECTRUM TYPE>  (5652) 
MS1

>  <INSTRUMENT TYPE>  (5652) 
EI-B

>  <INSTRUMENT>  (5652) 
SHIMADZU LKB-9000B

>  <ION MODE>  (5652) 
P

>  <INCHIKEY>  (5652) 
RZJRJXONCZWCBN-UHFFFAOYSA-N

>  <FORMULA>  (5652) 
C18H38

>  <EXACT MASS>  (5652) 
254.29735121599998

>  <MW>  (5652) 
254

>  <ID>  (5652) 
JP002657

>  <CONTRIBUTOR>  (5652) 
University of Tokyo Team, {Faculty of Engineering, University of Tokyo

>  <COMMENT>  (5652) 
SMILES=CCCCCCCCCCCCCCCCCC
InChI=InChI=1S/C18H38/c1-3-5-7-9-11-13-15-17-18-16-14-12-10-8-6-4-2/h3-18H2,1-2H3
computed SMILES=CCCCCCCCCCCCCCCCCC
accession=JP002657
date=2016.01.19 (Created 2008.10.21, modified 2011.05.06)
author=HAYASHI A, DEPT. OF CHEMISTRY, FAC. OF SCI. AND TECHNOLOGY, KINKI UNIV.
license=CC BY-NC-SA
exact mass=254.29735
ionization energy=70 eV
ion type=[M]+*
computed spectral entropy=2.7089188826890234
computed normalized entropy=0.6065773882300836
SPLASH=splash10-0a4l-9000000000-354d03fbe6dc8057cf34
submitter=submitter = University of Tokyo Team (Faculty of Engineering, University of Tokyo)
MoNA Rating=3.75

>  <NUM PEAKS>  (5652) 
87

>  <MASS SPECTRAL PEAKS>  (5652) 
41 29.2
42 8
43 70.4
44 9.2
45 0.2
47 0.1
51 0.2
52 0.01
53 1.3
54 2.3
55 63.3
57 99.99
58 4.8
59 0.8
65 0.2
66 0.02
67 2.5
68 2.2
69 11.1
70 1.1
71 64.1
72 3.7
73 0.1
75 0.06
76 0.1
77 0.2
78 0.1
79 0.06
80 0.2
81 1.2
82 2.5
83 0.79
84 6.9
85 41.8
86 2.8
91 0.02
93 0.1
94 0.1
95 0.7
96 0.14
97 6.1
98 4.6
99 12.4
100 0.09
105 0.1
107 0.1
108 0.1
109 0.03
110 0.6
111 2.8
112 3.4
113 0.76
114 0.6
117 0.1
123 0.1
124 0.03
125 1.3
126 2.6
127 5.3
128 0.05
138 0.1
139 0.3
140 1.9
141 0.38
142 0.3
147 0.1
153 0.1
154 0.13
155 2.7
156 0.3
168 1.1
169 0.21
170 0.3
182 0.7
183 1.9
184 0.02
196 0.5
197 1.4
198 0.1
210 0.01
211 0.9
212 0.1
224 0.1
225 0.05
252 0.2
254 2
255 0.3

$$$$

     RDKit          2D

 18 17  0  0  0  0  0  0  0  0999 V2000
    4.5466    7.8750    0.0000 C   0  0  0  0  0  0  0  0  0  0  0  0
  -13.6399    7.8750    0.0000 C   0  0  0  0  0  0  0  0  0  0  0  0
    3.2476    8.6250    0.0000 C   0  0  0  0  0  0  0  0  0  0  0  0
  -12.3409    8.6250    0.0000 C   0  0  0  0  0  0  0  0  0  0  0  0
    1.9486    7.8750    0.0000 C   0  0  0  0  0  0  0  0  0  0  0  0
  -11.0418    7.8750    0.0000 C   0  0  0  0  0  0  0  0  0  0  0  0
    0.6495    8.6250    0.0000 C   0  0  0  0  0  0  0  0  0  0  0  0
   -9.7428    8.6250    0.0000 C   0  0  0  0  0  0  0  0  0  0  0  0
   -0.6495    7.8750    0.0000 C   0  0  0  0  0  0  0  0  0  0  0  0
   -1.9486    8.6250    0.0000 C   0  0  0  0  0  0  0  0  0  0  0  0
   -8.4437    7.8750    0.0000 C   0  0  0  0  0  0  0  0  0  0  0  0
   -3.2476    7.8750    0.0000 C   0  0  0  0  0  0  0  0  0  0  0  0
   -7.1447    8.6250    0.0000 C   0  0  0  0  0  0  0  0  0  0  0  0
   -4.5466    8.6250    0.0000 C   0  0  0  0  0  0  0  0  0  0  0  0
   -5.8457    7.8750    0.0000 C   0  0  0  0  0  0  0  0  0  0  0  0
   -5.8457    6.3750    0.0000 C   0  0  0  0  0  0  0  0  0  0  0  0
   -4.5466    5.6250    0.0000 O   0  0  0  0  0  0  0  0  0  0  0  0
   -7.1447    5.6250    0.0000 O   0  0  0  0  0  0  0  0  0  0  0  0
  3  1  1  0
  4  2  1  0
  5  3  1  0
  6  4  1  0
  7  5  1  0
  8  6  1  0
  9  7  1  0
 10  9  1  0
 11  8  1  0
 12 10  1  0
 13 11  1  0
 14 12  1  0
 15 13  1  0
 15 14  1  0
 16 15  1  0
 17 16  2  0
 18 16  1  0
M  END
>  <NAME>  (5653) 
2-HEXYLDECANOIC ACID

>  <SYNONYMS>  (5653) 


>  <SPECTRUM TYPE>  (5653) 
MS1

>  <INSTRUMENT TYPE>  (5653) 
EI-B

>  <INSTRUMENT>  (5653) 
JEOL JMS-01-SG

>  <ION MODE>  (5653) 
P

>  <INCHIKEY>  (5653) 
JMOLZNNXZPAGBH-UHFFFAOYSA-N

>  <FORMULA>  (5653) 
C16H32O2

>  <EXACT MASS>  (5653) 
256.240230264

>  <MW>  (5653) 
256

>  <ID>  (5653) 
JP002656

>  <CONTRIBUTOR>  (5653) 
University of Tokyo Team, {Faculty of Engineering, University of Tokyo

>  <COMMENT>  (5653) 
SMILES=CCCCCCCCC(CCCCCC)C(O)=O
InChI=InChI=1S/C16H32O2/c1-3-5-7-9-10-12-14-15(16(17)18)13-11-8-6-4-2/h15H,3-14H2,1-2H3,(H,17,18)
computed SMILES=O=C(O)C(CCCCCC)CCCCCCCC
accession=JP002656
date=2016.01.19 (Created 2008.10.21, modified 2011.05.06)
author=KOGA M, UNIV. OF OCCUPATIONAL AND ENVIRONMENTAL HEALTH
license=CC BY-NC-SA
exact mass=256.24023
ionization energy=70 eV
ion type=[M]+*
computed spectral entropy=3.231379331445774
computed normalized entropy=0.8488746612365794
SPLASH=splash10-0avi-9600000000-820b256082ea8eaa7bd3
submitter=submitter = University of Tokyo Team (Faculty of Engineering, University of Tokyo)
MoNA Rating=3.75

>  <NUM PEAKS>  (5653) 
45

>  <MASS SPECTRAL PEAKS>  (5653) 
41 29.9
42 6.3
44 10.4
53 0.82
55 99.99
56 15.3
57 62.5
60 3.48
67 14.9
68 7.1
69 58.8
70 1.31
71 34
73 17.9
74 17.9
77 0.78
81 8.9
82 8.9
83 31.4
84 1.87
85 16.8
87 96.6
88 10.1
97 1.94
98 15.7
101 94
102 9.7
110 0.59
111 7.4
115 47.5
116 6.7
129 6.59
130 8.9
143 33.3
144 11.9
145 1.42
157 43.4
171 15.7
172 75.2
173 0.71
185 30.7
186 6.7
199 11.9
213 0.56
256 13.8

$$$$

     RDKit          2D

 18 17  0  0  0  0  0  0  0  0999 V2000
    4.5466    7.8750    0.0000 C   0  0  0  0  0  0  0  0  0  0  0  0
  -13.6399    7.8750    0.0000 C   0  0  0  0  0  0  0  0  0  0  0  0
    3.2476    8.6250    0.0000 C   0  0  0  0  0  0  0  0  0  0  0  0
  -12.3409    8.6250    0.0000 C   0  0  0  0  0  0  0  0  0  0  0  0
    1.9486    7.8750    0.0000 C   0  0  0  0  0  0  0  0  0  0  0  0
  -11.0418    7.8750    0.0000 C   0  0  0  0  0  0  0  0  0  0  0  0
    0.6495    8.6250    0.0000 C   0  0  0  0  0  0  0  0  0  0  0  0
   -9.7428    8.6250    0.0000 C   0  0  0  0  0  0  0  0  0  0  0  0
   -0.6495    7.8750    0.0000 C   0  0  0  0  0  0  0  0  0  0  0  0
   -1.9486    8.6250    0.0000 C   0  0  0  0  0  0  0  0  0  0  0  0
   -8.4437    7.8750    0.0000 C   0  0  0  0  0  0  0  0  0  0  0  0
   -3.2476    7.8750    0.0000 C   0  0  0  0  0  0  0  0  0  0  0  0
   -7.1447    8.6250    0.0000 C   0  0  0  0  0  0  0  0  0  0  0  0
   -4.5466    8.6250    0.0000 C   0  0  0  0  0  0  0  0  0  0  0  0
   -5.8457    7.8750    0.0000 C   0  0  0  0  0  0  0  0  0  0  0  0
   -5.8457    6.3750    0.0000 C   0  0  0  0  0  0  0  0  0  0  0  0
   -4.5466    5.6250    0.0000 O   0  0  0  0  0  0  0  0  0  0  0  0
   -7.1447    5.6250    0.0000 O   0  0  0  0  0  0  0  0  0  0  0  0
  3  1  1  0
  4  2  1  0
  5  3  1  0
  6  4  1  0
  7  5  1  0
  8  6  1  0
  9  7  1  0
 10  9  1  0
 11  8  1  0
 12 10  1  0
 13 11  1  0
 14 12  1  0
 15 13  1  0
 15 14  1  0
 16 15  1  0
 17 16  2  0
 18 16  1  0
M  END
>  <NAME>  (5654) 
2-HEXYLDECANOIC ACID

>  <SYNONYMS>  (5654) 


>  <SPECTRUM TYPE>  (5654) 
MS1

>  <INSTRUMENT TYPE>  (5654) 
EI-B

>  <INSTRUMENT>  (5654) 
JEOL JMS-01-SG

>  <ION MODE>  (5654) 
P

>  <INCHIKEY>  (5654) 
JMOLZNNXZPAGBH-UHFFFAOYSA-N

>  <FORMULA>  (5654) 
C16H32O2

>  <EXACT MASS>  (5654) 
256.240230264

>  <MW>  (5654) 
256

>  <ID>  (5654) 
JP002655

>  <CONTRIBUTOR>  (5654) 
University of Tokyo Team, {Faculty of Engineering, University of Tokyo

>  <COMMENT>  (5654) 
SMILES=CCCCCCCCC(CCCCCC)C(O)=O
InChI=InChI=1S/C16H32O2/c1-3-5-7-9-10-12-14-15(16(17)18)13-11-8-6-4-2/h15H,3-14H2,1-2H3,(H,17,18)
computed SMILES=O=C(O)C(CCCCCC)CCCCCCCC
accession=JP002655
date=2016.01.19 (Created 2008.10.21, modified 2011.05.06)
author=KOGA M, UNIV. OF OCCUPATIONAL AND ENVIRONMENTAL HEALTH
license=CC BY-NC-SA
exact mass=256.24023
ionization energy=70 eV
ion type=[M]+*
computed spectral entropy=3.231379331445774
computed normalized entropy=0.8488746612365794
SPLASH=splash10-0avi-9600000000-820b256082ea8eaa7bd3
submitter=submitter = University of Tokyo Team (Faculty of Engineering, University of Tokyo)
MoNA Rating=3.75

>  <NUM PEAKS>  (5654) 
45

>  <MASS SPECTRAL PEAKS>  (5654) 
41 29.9
42 6.3
44 10.4
53 0.82
55 99.99
56 15.3
57 62.5
60 3.48
67 14.9
68 7.1
69 58.8
70 1.31
71 34
73 17.9
74 17.9
77 0.78
81 8.9
82 8.9
83 31.4
84 1.87
85 16.8
87 96.6
88 10.1
97 1.94
98 15.7
101 94
102 9.7
110 0.59
111 7.4
115 47.5
116 6.7
129 6.59
130 8.9
143 33.3
144 11.9
145 1.42
157 43.4
171 15.7
172 75.2
173 0.71
185 30.7
186 6.7
199 11.9
213 0.56
256 13.8

$$$$

     RDKit          2D

 19 18  0  0  0  0  0  0  0  0999 V2000
  -16.2380   10.1250    0.0000 C   0  0  0  0  0  0  0  0  0  0  0  0
    5.8457    9.3750    0.0000 C   0  0  0  0  0  0  0  0  0  0  0  0
  -14.9389    9.3750    0.0000 C   0  0  0  0  0  0  0  0  0  0  0  0
  -13.6399   10.1250    0.0000 C   0  0  0  0  0  0  0  0  0  0  0  0
  -12.3409    9.3750    0.0000 C   0  0  0  0  0  0  0  0  0  0  0  0
  -11.0418   10.1250    0.0000 C   0  0  0  0  0  0  0  0  0  0  0  0
   -9.7428    9.3750    0.0000 C   0  0  0  0  0  0  0  0  0  0  0  0
   -8.4437   10.1250    0.0000 C   0  0  0  0  0  0  0  0  0  0  0  0
   -7.1447    9.3750    0.0000 C   0  0  0  0  0  0  0  0  0  0  0  0
   -5.8457   10.1250    0.0000 C   0  0  0  0  0  0  0  0  0  0  0  0
   -4.5466    9.3750    0.0000 C   0  0  0  0  0  0  0  0  0  0  0  0
   -3.2476   10.1250    0.0000 C   0  0  0  0  0  0  0  0  0  0  0  0
   -1.9486    9.3750    0.0000 C   0  0  0  0  0  0  0  0  0  0  0  0
   -0.6495   10.1250    0.0000 C   0  0  0  0  0  0  0  0  0  0  0  0
    0.6495    9.3750    0.0000 C   0  0  0  0  0  0  0  0  0  0  0  0
    1.9486   10.1250    0.0000 C   0  0  0  0  0  0  0  0  0  0  0  0
    3.2476    9.3750    0.0000 C   0  0  0  0  0  0  0  0  0  0  0  0
    3.2476    7.8750    0.0000 O   0  0  0  0  0  0  0  0  0  0  0  0
    4.5466   10.1250    0.0000 O   0  0  0  0  0  0  0  0  0  0  0  0
  3  1  1  0
  4  3  1  0
  5  4  1  0
  6  5  1  0
  7  6  1  0
  8  7  1  0
  9  8  1  0
 10  9  1  0
 11 10  1  0
 12 11  1  0
 13 12  1  0
 14 13  1  0
 15 14  1  0
 15 16  2  0
 17 16  1  0
 18 17  2  0
 19  2  1  0
 19 17  1  0
M  END
>  <NAME>  (5655) 
2-HEXADECENOIC ACID METHYL ESTER

>  <SYNONYMS>  (5655) 


>  <SPECTRUM TYPE>  (5655) 
MS1

>  <INSTRUMENT TYPE>  (5655) 
EI-B

>  <INSTRUMENT>  (5655) 
JEOL JMS-01-SG

>  <ION MODE>  (5655) 
P

>  <INCHIKEY>  (5655) 
ODPLFJYILBATKC-FOCLMDBBSA-N

>  <FORMULA>  (5655) 
C17H32O2

>  <EXACT MASS>  (5655) 
268.240230264

>  <MW>  (5655) 
268

>  <ID>  (5655) 
JP002654

>  <CONTRIBUTOR>  (5655) 
University of Tokyo Team, {Faculty of Engineering, University of Tokyo

>  <COMMENT>  (5655) 
SMILES=CCCCCCCCCCCCCC=CC(=O)OC
InChI=InChI=1S/C17H32O2/c1-3-4-5-6-7-8-9-10-11-12-13-14-15-16-17(18)19-2/h15-16H,3-14H2,1-2H3/b16-15+
computed SMILES=O=C(OC)C=CCCCCCCCCCCCCC
accession=JP002654
date=2016.01.19 (Created 2008.10.21, modified 2011.05.06)
author=KOGA M, UNIV. OF OCCUPATIONAL AND ENVIRONMENTAL HEALTH
license=CC BY-NC-SA
exact mass=268.24023
ionization energy=70 eV
ion type=[M]+*
computed spectral entropy=3.1748680763282198
computed normalized entropy=0.892983758951071
SPLASH=splash10-001a-9200000000-215b78e5e80397091531
submitter=submitter = University of Tokyo Team (Faculty of Engineering, University of Tokyo)
MoNA Rating=3.75

>  <NUM PEAKS>  (5655) 
35

>  <MASS SPECTRAL PEAKS>  (5655) 
41 14.2
53 10.1
54 10.3
55 5.76
56 18
57 39.3
59 16.3
67 2.07
68 20.2
69 33.6
70 12.5
71 1.72
74 37.1
81 32.2
82 16.6
83 2.92
84 28.9
85 20.3
87 99.99
95 1.99
96 26.5
97 26.7
98 22.9
100 1.5
101 16.6
109 11.4
110 12.8
111 1.33
113 36.3
127 9
141 11.7
152 0.9
194 9.8
236 9.8
237 10.3

$$$$

     RDKit          2D

 16 17  0  0  0  0  0  0  0  0999 V2000
    7.3099    6.1357    0.0000 C   0  0  0  0  0  0  0  0  0  0  0  0
   -2.5200    0.5000    0.0000 C   0  0  0  0  0  0  0  0  0  0  0  0
   -2.5300   -1.0000    0.0000 C   0  0  0  0  0  0  0  0  0  0  0  0
    3.4366    2.6719    0.0000 C   0  0  0  0  0  0  0  0  0  0  0  0
    1.9684    2.3650    0.0000 C   0  0  0  0  0  0  0  0  0  0  0  0
   -1.2200    1.2400    0.0000 C   0  0  0  0  0  0  0  0  0  0  0  0
   -1.2300   -1.7600    0.0000 C   0  0  0  0  0  0  0  0  0  0  0  0
    3.9050    4.0969    0.0000 C   0  0  0  0  0  0  0  0  0  0  0  0
    2.3800   -0.2700    0.0000 C   0  0  0  0  0  0  0  0  0  0  0  0
    1.5000    0.9400    0.0000 C   0  0  0  0  0  0  0  0  0  0  0  0
    0.0800    0.4900    0.0000 C   0  0  0  0  0  0  0  0  0  0  0  0
    0.0700   -1.0100    0.0000 C   0  0  0  0  0  0  0  0  0  0  0  0
    5.3733    4.4038    0.0000 C   0  0  0  0  0  0  0  0  0  0  0  0
    1.5000   -1.4800    0.0000 N   0  0  0  0  0  0  0  0  0  0  0  0
    6.3732    3.2857    0.0000 O   0  0  0  0  0  0  0  0  0  0  0  0
    5.8416    5.8288    0.0000 O   0  0  0  0  0  0  0  0  0  0  0  0
  3  2  2  0
  5  4  1  0
  6  2  1  0
  7  3  1  0
  8  4  1  0
 10  5  1  0
 10  9  2  0
 11  6  2  0
 11 10  1  0
 12  7  2  0
 12 11  1  0
 13  8  1  0
 14  9  1  0
 14 12  1  0
 15 13  2  0
 16  1  1  0
 16 13  1  0
M  END
>  <NAME>  (5656) 
3-INDOLEBUTYRIC ACID METHYL ESTER

>  <SYNONYMS>  (5656) 


>  <SPECTRUM TYPE>  (5656) 
MS1

>  <INSTRUMENT TYPE>  (5656) 
EI-B

>  <INSTRUMENT>  (5656) 
JEOL JMS-01-SG

>  <ION MODE>  (5656) 
P

>  <INCHIKEY>  (5656) 
ZEJUFCOACOWDPP-UHFFFAOYSA-N

>  <FORMULA>  (5656) 
C13H15NO2

>  <EXACT MASS>  (5656) 
217.11027872

>  <MW>  (5656) 
217

>  <ID>  (5656) 
JP002653

>  <CONTRIBUTOR>  (5656) 
University of Tokyo Team, {Faculty of Engineering, University of Tokyo

>  <COMMENT>  (5656) 
SMILES=COC(=O)CCCC1=CNC2=CC=CC=C21
InChI=InChI=1S/C13H15NO2/c1-16-13(15)8-4-5-10-9-14-12-7-3-2-6-11(10)12/h2-3,6-7,9,14H,4-5,8H2,1H3
computed SMILES=O=C(OC)CCCC1=CNC=2C=CC=CC21
accession=JP002653
date=2016.01.19 (Created 2008.10.21, modified 2011.05.06)
author=KOGA M, UNIV. OF OCCUPATIONAL AND ENVIRONMENTAL HEALTH
license=CC BY-NC-SA
exact mass=217.11028
ionization energy=70 eV
ion type=[M]+*
computed spectral entropy=2.6649176310312757
computed normalized entropy=0.7835233689757041
SPLASH=splash10-014l-2920000000-52fdd1c03c70a3ca305a
submitter=submitter = University of Tokyo Team (Faculty of Engineering, University of Tokyo)
MoNA Rating=3.75

>  <NUM PEAKS>  (5656) 
30

>  <MASS SPECTRAL PEAKS>  (5656) 
42 9.8
51 14.3
55 4.5
63 0.65
65 15.6
75 4.5
76 5.2
77 4.18
78 5.2
79 5.2
89 5.2
102 1.17
103 26.1
115 15.6
116 4.5
117 0.91
127 4.5
128 11.1
129 21.5
130 8.56
131 49.6
142 7.1
143 90.8
144 2.48
156 16.3
157 5.2
186 39.2
187 0.52
217 99.99
218 1.1

$$$$

     RDKit          2D

 15 16  0  0  0  0  0  0  0  0999 V2000
    5.8416    5.8288    0.0000 C   0  0  0  0  0  0  0  0  0  0  0  0
   -2.5200    0.5000    0.0000 C   0  0  0  0  0  0  0  0  0  0  0  0
   -2.5300   -1.0000    0.0000 C   0  0  0  0  0  0  0  0  0  0  0  0
   -1.2200    1.2400    0.0000 C   0  0  0  0  0  0  0  0  0  0  0  0
   -1.2300   -1.7600    0.0000 C   0  0  0  0  0  0  0  0  0  0  0  0
    1.9684    2.3650    0.0000 C   0  0  0  0  0  0  0  0  0  0  0  0
    3.4366    2.6719    0.0000 C   0  0  0  0  0  0  0  0  0  0  0  0
    2.3800   -0.2700    0.0000 C   0  0  0  0  0  0  0  0  0  0  0  0
    1.5000    0.9400    0.0000 C   0  0  0  0  0  0  0  0  0  0  0  0
    0.0800    0.4900    0.0000 C   0  0  0  0  0  0  0  0  0  0  0  0
    0.0700   -1.0100    0.0000 C   0  0  0  0  0  0  0  0  0  0  0  0
    3.9050    4.0969    0.0000 C   0  0  0  0  0  0  0  0  0  0  0  0
    1.5000   -1.4800    0.0000 N   0  0  0  0  0  0  0  0  0  0  0  0
    2.9051    5.2150    0.0000 O   0  0  0  0  0  0  0  0  0  0  0  0
    5.3733    4.4038    0.0000 O   0  0  0  0  0  0  0  0  0  0  0  0
  3  2  2  0
  4  2  1  0
  5  3  1  0
  6  7  2  0
  9  6  1  0
  9  8  2  0
 10  4  2  0
 10  9  1  0
 11  5  2  0
 11 10  1  0
 12  7  1  0
 13  8  1  0
 13 11  1  0
 14 12  2  0
 15  1  1  0
 15 12  1  0
M  END
>  <NAME>  (5657) 
3-INDOLEACRYLIC ACID METHYL ESTER

>  <SYNONYMS>  (5657) 


>  <SPECTRUM TYPE>  (5657) 
MS1

>  <INSTRUMENT TYPE>  (5657) 
EI-B

>  <INSTRUMENT>  (5657) 
JEOL JMS-01-SG

>  <ION MODE>  (5657) 
P

>  <INCHIKEY>  (5657) 
JKVXFZPEUCTHQO-VOTSOKGWSA-N

>  <FORMULA>  (5657) 
C12H11NO2

>  <EXACT MASS>  (5657) 
201.078978592

>  <MW>  (5657) 
201

>  <ID>  (5657) 
JP002652

>  <CONTRIBUTOR>  (5657) 
University of Tokyo Team, {Faculty of Engineering, University of Tokyo

>  <COMMENT>  (5657) 
SMILES=COC(=O)/C=C/C1=CNC2=CC=CC=C21
InChI=InChI=1S/C12H11NO2/c1-15-12(14)7-6-9-8-13-11-5-3-2-4-10(9)11/h2-8,13H,1H3/b7-6+
computed SMILES=O=C(OC)C=CC1=CNC=2C=CC=CC12
accession=JP002652
date=2016.01.19 (Created 2008.10.21, modified 2011.05.06)
author=KOGA M, UNIV. OF OCCUPATIONAL AND ENVIRONMENTAL HEALTH
license=CC BY-NC-SA
exact mass=201.07898
ionization energy=70 eV
ion type=[M]+*
computed spectral entropy=2.3582556559898387
computed normalized entropy=0.7745896784236715
SPLASH=splash10-00di-1900000000-e32b1efad45ef203fff8
submitter=submitter = University of Tokyo Team (Faculty of Engineering, University of Tokyo)
MoNA Rating=3.75

>  <NUM PEAKS>  (5657) 
21

>  <MASS SPECTRAL PEAKS>  (5657) 
42 4
63 5.6
67 8.1
70 0.65
71 13
89 5.6
100 9.7
107 0.73
114 12.1
115 46.3
116 5.6
130 1.3
140 5.6
141 15.4
142 17
143 2.03
156 9.7
170 99.99
171 13
201 8.37
202 6.5

$$$$

     RDKit          2D

 19 18  0  0  0  0  0  0  0  0999 V2000
    4.5466    7.8750    0.0000 C   0  0  0  0  0  0  0  0  0  0  0  0
  -13.6399    7.8750    0.0000 C   0  0  0  0  0  0  0  0  0  0  0  0
   -7.1447    4.1250    0.0000 C   0  0  0  0  0  0  0  0  0  0  0  0
    3.2476    8.6250    0.0000 C   0  0  0  0  0  0  0  0  0  0  0  0
  -12.3409    8.6250    0.0000 C   0  0  0  0  0  0  0  0  0  0  0  0
    1.9486    7.8750    0.0000 C   0  0  0  0  0  0  0  0  0  0  0  0
  -11.0418    7.8750    0.0000 C   0  0  0  0  0  0  0  0  0  0  0  0
    0.6495    8.6250    0.0000 C   0  0  0  0  0  0  0  0  0  0  0  0
   -9.7428    8.6250    0.0000 C   0  0  0  0  0  0  0  0  0  0  0  0
   -0.6495    7.8750    0.0000 C   0  0  0  0  0  0  0  0  0  0  0  0
   -1.9486    8.6250    0.0000 C   0  0  0  0  0  0  0  0  0  0  0  0
   -8.4437    7.8750    0.0000 C   0  0  0  0  0  0  0  0  0  0  0  0
   -3.2476    7.8750    0.0000 C   0  0  0  0  0  0  0  0  0  0  0  0
   -7.1447    8.6250    0.0000 C   0  0  0  0  0  0  0  0  0  0  0  0
   -4.5466    8.6250    0.0000 C   0  0  0  0  0  0  0  0  0  0  0  0
   -5.8457    7.8750    0.0000 C   0  0  0  0  0  0  0  0  0  0  0  0
   -5.8457    6.3750    0.0000 C   0  0  0  0  0  0  0  0  0  0  0  0
   -4.5466    5.6250    0.0000 O   0  0  0  0  0  0  0  0  0  0  0  0
   -7.1447    5.6250    0.0000 O   0  0  0  0  0  0  0  0  0  0  0  0
  4  1  1  0
  5  2  1  0
  6  4  1  0
  7  5  1  0
  8  6  1  0
  9  7  1  0
 10  8  1  0
 11 10  1  0
 12  9  1  0
 13 11  1  0
 14 12  1  0
 15 13  1  0
 16 14  1  0
 16 15  1  0
 17 16  1  0
 18 17  2  0
 19  3  1  0
 19 17  1  0
M  END
>  <NAME>  (5658) 
2-HEXYLDECANOIC ACID METHYL ESTER

>  <SYNONYMS>  (5658) 


>  <SPECTRUM TYPE>  (5658) 
MS1

>  <INSTRUMENT TYPE>  (5658) 
EI-B

>  <INSTRUMENT>  (5658) 
JEOL JMS-01-SG

>  <ION MODE>  (5658) 
P

>  <INCHIKEY>  (5658) 
PBRCCXNUTAGYJI-UHFFFAOYSA-N

>  <FORMULA>  (5658) 
C17H34O2

>  <EXACT MASS>  (5658) 
270.255880328

>  <MW>  (5658) 
270

>  <ID>  (5658) 
JP002651

>  <CONTRIBUTOR>  (5658) 
University of Tokyo Team, {Faculty of Engineering, University of Tokyo

>  <COMMENT>  (5658) 
SMILES=CCCCCCCCC(CCCCCC)C(=O)OC
InChI=InChI=1S/C17H34O2/c1-4-6-8-10-11-13-15-16(17(18)19-3)14-12-9-7-5-2/h16H,4-15H2,1-3H3
computed SMILES=O=C(OC)C(CCCCCC)CCCCCCCC
accession=JP002651
date=2016.01.19 (Created 2008.10.21, modified 2011.05.06)
author=KOGA M, UNIV. OF OCCUPATIONAL AND ENVIRONMENTAL HEALTH
license=CC BY-NC-SA
exact mass=270.25588
ionization energy=70 eV
ion type=[M]+*
computed spectral entropy=2.7598052490090352
computed normalized entropy=0.8373609984995568
SPLASH=splash10-052r-9500000000-5c33e3d5921c1708fbb9
submitter=submitter = University of Tokyo Team (Faculty of Engineering, University of Tokyo)
MoNA Rating=3.75

>  <NUM PEAKS>  (5658) 
27

>  <MASS SPECTRAL PEAKS>  (5658) 
41 9.9
55 47.1
57 24.7
59 0.79
67 5.2
69 27.5
71 15.1
74 1.7
83 13.7
85 6.6
87 99.99
88 0.82
97 7.7
98 4.9
101 27.2
115 3.38
129 20.1
143 31.9
157 14.3
158 2.03
159 6.8
171 18.4
185 6.8
186 4.46
187 5.7
199 14.8
270 4.6

$$$$

     RDKit          2D

 15 14  0  0  0  0  0  0  0  0999 V2000
    3.0227    2.4827    0.0000 C   0  0  0  0  0  0  0  0  0  0  0  0
   -4.7716    2.4827    0.0000 C   0  0  0  0  0  0  0  0  0  0  0  0
    0.5409    6.9404    0.0000 C   0  0  0  0  0  0  0  0  0  0  0  0
   -4.2800    5.2704    0.0000 C   0  0  0  0  0  0  0  0  0  0  0  0
    1.7236    3.2327    0.0000 C   0  0  0  0  0  0  0  0  0  0  0  0
   -3.4725    3.2327    0.0000 C   0  0  0  0  0  0  0  0  0  0  0  0
    0.4246    2.4827    0.0000 C   0  0  0  0  0  0  0  0  0  0  0  0
   -2.1735    2.4827    0.0000 C   0  0  0  0  0  0  0  0  0  0  0  0
    0.0897    4.3818    0.0000 C   0  0  0  0  0  0  0  0  0  0  0  0
   -1.8386    4.3818    0.0000 C   0  0  0  0  0  0  0  0  0  0  0  0
   -0.8744    3.2327    0.0000 C   0  0  0  0  0  0  0  0  0  0  0  0
    1.5669    4.1213    0.0000 O   0  0  0  0  0  0  0  0  0  0  0  0
   -1.3256    5.7913    0.0000 O   0  0  0  0  0  0  0  0  0  0  0  0
   -0.4233    5.7913    0.0000 O   0  0  0  0  0  0  0  0  0  0  0  0
   -3.3158    4.1213    0.0000 O   0  0  0  0  0  0  0  0  0  0  0  0
  5  1  1  0
  6  2  1  0
  7  5  1  0
  8  6  1  0
 11  7  1  0
 11  8  1  0
 11  9  1  0
 11 10  1  0
 12  9  2  0
 13 10  2  0
 14  3  1  0
 14  9  1  0
 15  4  1  0
 15 10  1  0
M  END
>  <NAME>  (5659) 
HEPTANE-4,4-DICARBOXYLIC ACID DIMETHYL ESTER

>  <SYNONYMS>  (5659) 


>  <SPECTRUM TYPE>  (5659) 
MS1

>  <INSTRUMENT TYPE>  (5659) 
EI-B

>  <INSTRUMENT>  (5659) 
JEOL JMS-01-SG

>  <ION MODE>  (5659) 
P

>  <INCHIKEY>  (5659) 
ZFMAHACGDXIMSE-UHFFFAOYSA-N

>  <FORMULA>  (5659) 
C11H20O4

>  <EXACT MASS>  (5659) 
216.13615912

>  <MW>  (5659) 
216

>  <ID>  (5659) 
JP002650

>  <CONTRIBUTOR>  (5659) 
University of Tokyo Team, {Faculty of Engineering, University of Tokyo

>  <COMMENT>  (5659) 
SMILES=CCCC(CCC)(C(=O)OC)C(=O)OC
InChI=InChI=1S/C11H20O4/c1-5-7-11(8-6-2,9(12)14-3)10(13)15-4/h5-8H2,1-4H3
computed SMILES=O=C(OC)C(C(=O)OC)(CCC)CCC
accession=JP002650
date=2016.01.19 (Created 2008.10.21, modified 2011.05.06)
author=KOGA M, UNIV. OF OCCUPATIONAL AND ENVIRONMENTAL HEALTH
license=CC BY-NC-SA
exact mass=216.13616
ionization energy=70 eV
ion type=[M]+*
computed spectral entropy=2.9391583461218556
computed normalized entropy=0.8641540070472173
SPLASH=splash10-06r2-6900000000-a4ab0e98365e99e7ce02
submitter=submitter = University of Tokyo Team (Faculty of Engineering, University of Tokyo)
MoNA Rating=3.75

>  <NUM PEAKS>  (5659) 
30

>  <MASS SPECTRAL PEAKS>  (5659) 
44 9.8
53 11.9
55 81.7
56 0.96
59 46.4
67 13.9
69 23.7
73 4.36
82 7.2
83 13.4
85 7
87 0.87
95 17.3
97 61.2
109 8.3
110 3.85
113 84.3
114 33.8
125 7.9
127 2.93
141 21.6
142 24.8
143 32.1
145 99.99
146 22
155 11.7
156 16.2
157 4.17
174 50.9
185 17.5

$$$$

     RDKit          2D

 14 14  0  0  0  0  0  0  0  0999 V2000
   -4.1876   -2.8302    0.0000 C   0  0  0  0  0  0  0  0  0  0  0  0
    1.0100    0.1702    0.0000 C   0  0  0  0  0  0  0  0  0  0  0  0
   -0.2900   -0.5798    0.0000 C   0  0  0  0  0  0  0  0  0  0  0  0
   -0.2900    2.4202    0.0000 C   0  0  0  0  0  0  0  0  0  0  0  0
    1.0100    1.6702    0.0000 C   0  0  0  0  0  0  0  0  0  0  0  0
   -1.5900    0.1702    0.0000 C   0  0  0  0  0  0  0  0  0  0  0  0
   -1.5900    1.6702    0.0000 C   0  0  0  0  0  0  0  0  0  0  0  0
   -2.8889   -0.5800    0.0000 C   0  0  0  0  0  0  0  0  0  0  0  0
   -2.8889    2.4204    0.0000 Cl  0  0  0  0  0  0  0  0  0  0  0  0
    2.3089    2.4204    0.0000 N   0  0  0  0  0  0  0  0  0  0  0  0
   -4.1881    0.1698    0.0000 O   0  0  0  0  0  0  0  0  0  0  0  0
    3.6081    1.6706    0.0000 O   0  0  0  0  0  0  0  0  0  0  0  0
    2.3087    3.9204    0.0000 O   0  0  0  0  0  0  0  0  0  0  0  0
   -2.8887   -2.0800    0.0000 O   0  0  0  0  0  0  0  0  0  0  0  0
  3  2  2  0
  5  2  1  0
  5  4  2  0
  6  3  1  0
  7  4  1  0
  7  6  2  0
  8  6  1  0
  9  7  1  0
 10  5  1  0
 11  8  2  0
 12 10  1  0
 13 10  2  0
 14  1  1  0
 14  8  1  0
M  CHG  2  10   1  12  -1
M  END
>  <NAME>  (5660) 
2-CHLORO-4-NITROBENZOIC ACID METHYL ESTER

>  <SYNONYMS>  (5660) 


>  <SPECTRUM TYPE>  (5660) 
MS1

>  <INSTRUMENT TYPE>  (5660) 
EI-B

>  <INSTRUMENT>  (5660) 
JEOL JMS-01-SG

>  <ION MODE>  (5660) 
P

>  <INCHIKEY>  (5660) 
PICNSXCJRMYANX-UHFFFAOYSA-N

>  <FORMULA>  (5660) 
C8H6ClNO4

>  <EXACT MASS>  (5660) 
214.99853535199998

>  <MW>  (5660) 
215

>  <ID>  (5660) 
JP002649

>  <CONTRIBUTOR>  (5660) 
University of Tokyo Team, {Faculty of Engineering, University of Tokyo

>  <COMMENT>  (5660) 
SMILES=COC(=O)c(c1)c(Cl)cc(c1)[N+1]([O-1])=O
InChI=InChI=1S/C8H6ClNO4/c1-14-8(11)6-3-2-5(10(12)13)4-7(6)9/h2-4H,1H3
computed SMILES=O=C(OC)C1=CC=C(C=C1Cl)N(=O)=O
accession=JP002649
date=2016.01.19 (Created 2008.10.21, modified 2011.05.06)
author=KOGA M, UNIV. OF OCCUPATIONAL AND ENVIRONMENTAL HEALTH
license=CC BY-NC-SA
exact mass=214.99854
ionization energy=70 eV
ion type=[M]+*
computed spectral entropy=2.6128780717256377
computed normalized entropy=0.7682230045845595
SPLASH=splash10-001r-3910000000-ccd41bd60ca98dd8a401
submitter=submitter = University of Tokyo Team (Faculty of Engineering, University of Tokyo)
MoNA Rating=3.75

>  <NUM PEAKS>  (5660) 
30

>  <MASS SPECTRAL PEAKS>  (5660) 
50 4.7
51 2.9
59 7.7
63 1.01
73 3.5
74 23.3
75 37.1
76 0.29
77 4.1
84 2.9
109 3.5
110 1.61
111 2.9
112 2.9
119 7.1
126 1.49
128 4.7
137 4.7
138 29.9
139 0.35
140 9.5
154 21.5
156 3.5
184 99.99
185 9.5
186 32.9
187 2.9
198 0.35
215 26.9
217 7.1

$$$$

     RDKit          2D

 14 14  0  0  0  0  0  0  0  0999 V2000
   -5.1970   -1.5006    0.0000 C   0  0  0  0  0  0  0  0  0  0  0  0
   -1.3000    0.7500    0.0000 C   0  0  0  0  0  0  0  0  0  0  0  0
    0.0000    1.5000    0.0000 C   0  0  0  0  0  0  0  0  0  0  0  0
    0.0000   -1.5000    0.0000 C   0  0  0  0  0  0  0  0  0  0  0  0
   -1.3000   -0.7500    0.0000 C   0  0  0  0  0  0  0  0  0  0  0  0
    1.3000    0.7500    0.0000 C   0  0  0  0  0  0  0  0  0  0  0  0
    1.3000   -0.7500    0.0000 C   0  0  0  0  0  0  0  0  0  0  0  0
   -2.5989   -1.5002    0.0000 C   0  0  0  0  0  0  0  0  0  0  0  0
    2.5989    1.5002    0.0000 Cl  0  0  0  0  0  0  0  0  0  0  0  0
    2.5989   -1.5002    0.0000 N   0  0  0  0  0  0  0  0  0  0  0  0
   -2.5987   -3.0002    0.0000 O   0  0  0  0  0  0  0  0  0  0  0  0
    3.8981   -0.7504    0.0000 O   0  0  0  0  0  0  0  0  0  0  0  0
    2.5987   -3.0002    0.0000 O   0  0  0  0  0  0  0  0  0  0  0  0
   -3.8981   -0.7504    0.0000 O   0  0  0  0  0  0  0  0  0  0  0  0
  3  2  2  0
  5  2  1  0
  5  4  2  0
  6  3  1  0
  7  4  1  0
  7  6  2  0
  8  5  1  0
  9  6  1  0
 10  7  1  0
 11  8  2  0
 12 10  1  0
 13 10  2  0
 14  1  1  0
 14  8  1  0
M  CHG  2  10   1  12  -1
M  END
>  <NAME>  (5661) 
4-CHLORO-3-NITROBENZOIC ACID METHYL ESTER

>  <SYNONYMS>  (5661) 


>  <SPECTRUM TYPE>  (5661) 
MS1

>  <INSTRUMENT TYPE>  (5661) 
EI-B

>  <INSTRUMENT>  (5661) 
JEOL JMS-01-SG

>  <ION MODE>  (5661) 
P

>  <INCHIKEY>  (5661) 
XRTKWPWDSUNLHS-UHFFFAOYSA-N

>  <FORMULA>  (5661) 
C8H6ClNO4

>  <EXACT MASS>  (5661) 
214.99853535199998

>  <MW>  (5661) 
215

>  <ID>  (5661) 
JP002648

>  <CONTRIBUTOR>  (5661) 
University of Tokyo Team, {Faculty of Engineering, University of Tokyo

>  <COMMENT>  (5661) 
SMILES=COC(=O)c(c1)cc([N+1]([O-1])=O)c(Cl)c1
InChI=InChI=1S/C8H6ClNO4/c1-14-8(11)5-2-3-6(9)7(4-5)10(12)13/h2-4H,1H3
computed SMILES=O=C(OC)C1=CC=C(Cl)C(=C1)N(=O)=O
accession=JP002648
date=2016.01.19 (Created 2008.10.21, modified 2011.05.06)
author=KOGA M, UNIV. OF OCCUPATIONAL AND ENVIRONMENTAL HEALTH
license=CC BY-NC-SA
exact mass=214.99854
ionization energy=70 eV
ion type=[M]+*
computed spectral entropy=2.563574676830731
computed normalized entropy=0.7537271111204723
SPLASH=splash10-001r-1910000000-178cf9d622bc5046e1a5
submitter=submitter = University of Tokyo Team (Faculty of Engineering, University of Tokyo)
MoNA Rating=3.75

>  <NUM PEAKS>  (5661) 
30

>  <MASS SPECTRAL PEAKS>  (5661) 
44 4.6
50 4.6
51 5.2
62 0.23
63 12.1
73 2.8
74 9.2
75 3.69
77 5.7
84 2.3
109 2.8
110 2.25
111 2.8
112 4
126 7.5
137 0.23
138 39.3
139 2.3
140 11.5
153 0.63
154 19.6
155 2.8
156 2.8
169 0.23
184 99.99
185 21.9
186 35.2
187 0.28
215 35.8
217 9.2

$$$$

     RDKit          2D

 14 14  0  0  0  0  0  0  0  0999 V2000
    5.1970   -1.5006    0.0000 C   0  0  0  0  0  0  0  0  0  0  0  0
   -1.3000    0.7500    0.0000 C   0  0  0  0  0  0  0  0  0  0  0  0
    0.0000    1.5000    0.0000 C   0  0  0  0  0  0  0  0  0  0  0  0
   -0.0000   -1.5000    0.0000 C   0  0  0  0  0  0  0  0  0  0  0  0
   -1.3000   -0.7500    0.0000 C   0  0  0  0  0  0  0  0  0  0  0  0
    1.3000   -0.7500    0.0000 C   0  0  0  0  0  0  0  0  0  0  0  0
    1.3000    0.7500    0.0000 C   0  0  0  0  0  0  0  0  0  0  0  0
    2.5989   -1.5002    0.0000 C   0  0  0  0  0  0  0  0  0  0  0  0
   -2.5989   -1.5002    0.0000 Cl  0  0  0  0  0  0  0  0  0  0  0  0
    2.5989    1.5002    0.0000 N   0  0  0  0  0  0  0  0  0  0  0  0
    2.5987   -3.0002    0.0000 O   0  0  0  0  0  0  0  0  0  0  0  0
    2.5987    3.0002    0.0000 O   0  0  0  0  0  0  0  0  0  0  0  0
    3.8981    0.7504    0.0000 O   0  0  0  0  0  0  0  0  0  0  0  0
    3.8981   -0.7504    0.0000 O   0  0  0  0  0  0  0  0  0  0  0  0
  3  2  2  0
  5  2  1  0
  5  4  2  0
  6  4  1  0
  7  3  1  0
  7  6  2  0
  8  6  1  0
  9  5  1  0
 10  7  1  0
 11  8  2  0
 12 10  1  0
 13 10  2  0
 14  1  1  0
 14  8  1  0
M  CHG  2  10   1  12  -1
M  END
>  <NAME>  (5662) 
5-CHLORO-2-NITROBENZOIC ACID METHYL ESTER

>  <SYNONYMS>  (5662) 


>  <SPECTRUM TYPE>  (5662) 
MS1

>  <INSTRUMENT TYPE>  (5662) 
EI-B

>  <INSTRUMENT>  (5662) 
JEOL JMS-01-SG

>  <ION MODE>  (5662) 
P

>  <INCHIKEY>  (5662) 
JGBJHRKCUKTQOE-UHFFFAOYSA-N

>  <FORMULA>  (5662) 
C8H6ClNO4

>  <EXACT MASS>  (5662) 
214.998535352

>  <MW>  (5662) 
215

>  <ID>  (5662) 
JP002647

>  <CONTRIBUTOR>  (5662) 
University of Tokyo Team, {Faculty of Engineering, University of Tokyo

>  <COMMENT>  (5662) 
SMILES=COC(=O)c(c1)c(ccc(Cl)1)[N+1]([O-1])=O
InChI=InChI=1S/C8H6ClNO4/c1-14-8(11)6-4-5(9)2-3-7(6)10(12)13/h2-4H,1H3
computed SMILES=O=C(OC)C1=CC(Cl)=CC=C1N(=O)=O
accession=JP002647
date=2016.01.19 (Created 2008.10.21, modified 2011.05.06)
author=KOGA M, UNIV. OF OCCUPATIONAL AND ENVIRONMENTAL HEALTH
license=CC BY-NC-SA
exact mass=214.99854
ionization energy=70 eV
ion type=[M]+*
computed spectral entropy=2.7637118021175993
computed normalized entropy=0.7773393080844578
SPLASH=splash10-01si-6910000000-2ddc3b18a42c5dd3e0ea
submitter=submitter = University of Tokyo Team (Faculty of Engineering, University of Tokyo)
MoNA Rating=3.75

>  <NUM PEAKS>  (5662) 
35

>  <MASS SPECTRAL PEAKS>  (5662) 
44 2.5
50 12.4
51 6.2
57 0.84
62 5.8
63 17.2
65 2.9
73 0.32
74 20.5
75 38.4
76 38.4
77 0.87
84 3.2
85 2.9
98 2.9
99 0.25
110 21.2
111 14.6
112 12.8
113 0.51
126 16.4
127 2.9
128 3.2
129 0.25
138 2.5
153 2.9
154 3.2
155 0.4
157 2.9
184 99.99
185 13.9
186 3.58
187 2.9
215 21.9
217 8

$$$$

     RDKit          2D

 14 14  0  0  0  0  0  0  0  0999 V2000
    5.1970   -1.5006    0.0000 C   0  0  0  0  0  0  0  0  0  0  0  0
   -1.3000    0.7500    0.0000 C   0  0  0  0  0  0  0  0  0  0  0  0
    0.0000    1.5000    0.0000 C   0  0  0  0  0  0  0  0  0  0  0  0
    0.0000   -1.5000    0.0000 C   0  0  0  0  0  0  0  0  0  0  0  0
   -1.3000   -0.7500    0.0000 C   0  0  0  0  0  0  0  0  0  0  0  0
    1.3000   -0.7500    0.0000 C   0  0  0  0  0  0  0  0  0  0  0  0
    1.3000    0.7500    0.0000 C   0  0  0  0  0  0  0  0  0  0  0  0
    2.5989   -1.5002    0.0000 C   0  0  0  0  0  0  0  0  0  0  0  0
    2.5989    1.5002    0.0000 Cl  0  0  0  0  0  0  0  0  0  0  0  0
   -2.5989   -1.5002    0.0000 N   0  0  0  0  0  0  0  0  0  0  0  0
    2.5987   -3.0002    0.0000 O   0  0  0  0  0  0  0  0  0  0  0  0
   -3.8981   -0.7504    0.0000 O   0  0  0  0  0  0  0  0  0  0  0  0
   -2.5987   -3.0002    0.0000 O   0  0  0  0  0  0  0  0  0  0  0  0
    3.8981   -0.7504    0.0000 O   0  0  0  0  0  0  0  0  0  0  0  0
  3  2  2  0
  5  2  1  0
  5  4  2  0
  6  4  1  0
  7  3  1  0
  7  6  2  0
  8  6  1  0
  9  7  1  0
 10  5  1  0
 11  8  2  0
 12 10  1  0
 13 10  2  0
 14  1  1  0
 14  8  1  0
M  CHG  2  10   1  12  -1
M  END
>  <NAME>  (5663) 
2-CHLORO-5-NITROBENZOIC ACID METHYL ESTER

>  <SYNONYMS>  (5663) 


>  <SPECTRUM TYPE>  (5663) 
MS1

>  <INSTRUMENT TYPE>  (5663) 
EI-B

>  <INSTRUMENT>  (5663) 
JEOL JMS-01-SG

>  <ION MODE>  (5663) 
P

>  <INCHIKEY>  (5663) 
VCYWZLGOWNCJNJ-UHFFFAOYSA-N

>  <FORMULA>  (5663) 
C8H6ClNO4

>  <EXACT MASS>  (5663) 
214.99853535199998

>  <MW>  (5663) 
215

>  <ID>  (5663) 
JP002646

>  <CONTRIBUTOR>  (5663) 
University of Tokyo Team, {Faculty of Engineering, University of Tokyo

>  <COMMENT>  (5663) 
SMILES=COC(=O)c(c1)c(Cl)ccc([N+1]([O-1])=O)1
InChI=InChI=1S/C8H6ClNO4/c1-14-8(11)6-4-5(10(12)13)2-3-7(6)9/h2-4H,1H3
computed SMILES=O=C(OC)C1=CC(=CC=C1Cl)N(=O)=O
accession=JP002646
date=2016.01.19 (Created 2008.10.21, modified 2011.05.06)
author=KOGA M, UNIV. OF OCCUPATIONAL AND ENVIRONMENTAL HEALTH
license=CC BY-NC-SA
exact mass=214.99854
ionization energy=70 eV
ion type=[M]+*
computed spectral entropy=2.395775707220954
computed normalized entropy=0.7189761912587371
SPLASH=splash10-001i-2910000000-49e92828797ffcb471e4
submitter=submitter = University of Tokyo Team (Faculty of Engineering, University of Tokyo)
MoNA Rating=3.75

>  <NUM PEAKS>  (5663) 
28

>  <MASS SPECTRAL PEAKS>  (5663) 
44 3.6
50 3
51 2.4
63 0.9
73 2.4
74 19.3
75 34.5
77 0.42
84 2.4
109 4.8
110 18.7
111 0.18
112 4.8
126 9
137 2.4
138 2.96
139 2.4
140 9
153 4.8
154 1.15
156 1.8
169 1.8
184 99.99
185 1.63
186 37.5
187 4.8
215 26.6
217 1.2

$$$$

     RDKit          2D

 12 12  0  0  0  0  0  0  0  0999 V2000
   -2.5989   -0.3306    0.0000 C   0  0  0  0  0  0  0  0  0  0  0  0
    2.5981    2.6700    0.0000 C   0  0  0  0  0  0  0  0  0  0  0  0
    1.2981    1.9200    0.0000 C   0  0  0  0  0  0  0  0  0  0  0  0
    3.8981    0.4200    0.0000 C   0  0  0  0  0  0  0  0  0  0  0  0
    3.8981    1.9200    0.0000 C   0  0  0  0  0  0  0  0  0  0  0  0
    1.2981    0.4200    0.0000 C   0  0  0  0  0  0  0  0  0  0  0  0
    2.5981   -0.3300    0.0000 C   0  0  0  0  0  0  0  0  0  0  0  0
   -0.0008   -0.3302    0.0000 C   0  0  0  0  0  0  0  0  0  0  0  0
    5.1970    2.6702    0.0000 Cl  0  0  0  0  0  0  0  0  0  0  0  0
    2.5981   -1.8300    0.0000 Cl  0  0  0  0  0  0  0  0  0  0  0  0
   -0.0006   -1.8302    0.0000 O   0  0  0  0  0  0  0  0  0  0  0  0
   -1.3000    0.4196    0.0000 O   0  0  0  0  0  0  0  0  0  0  0  0
  3  2  2  0
  5  2  1  0
  5  4  2  0
  6  3  1  0
  7  4  1  0
  7  6  2  0
  8  6  1  0
  9  5  1  0
 10  7  1  0
 11  8  2  0
 12  1  1  0
 12  8  1  0
M  END
>  <NAME>  (5664) 
2,4-DICHLOROBENZOIC ACID METHYL ESTER

>  <SYNONYMS>  (5664) 


>  <SPECTRUM TYPE>  (5664) 
MS1

>  <INSTRUMENT TYPE>  (5664) 
EI-B

>  <INSTRUMENT>  (5664) 
JEOL JMS-01-SG

>  <ION MODE>  (5664) 
P

>  <INCHIKEY>  (5664) 
VCRWILYAWSRHBN-UHFFFAOYSA-N

>  <FORMULA>  (5664) 
C8H6Cl2O2

>  <EXACT MASS>  (5664) 
203.974484792

>  <MW>  (5664) 
204

>  <ID>  (5664) 
JP002645

>  <CONTRIBUTOR>  (5664) 
University of Tokyo Team, {Faculty of Engineering, University of Tokyo

>  <COMMENT>  (5664) 
SMILES=COC(=O)c(c1)c(Cl)cc(Cl)c1
InChI=InChI=1S/C8H6Cl2O2/c1-12-8(11)6-3-2-5(9)4-7(6)10/h2-4H,1H3
computed SMILES=O=C(OC)C1=CC=C(Cl)C=C1Cl
accession=JP002645
date=2016.01.19 (Created 2008.10.21, modified 2011.05.06)
author=KOGA M, UNIV. OF OCCUPATIONAL AND ENVIRONMENTAL HEALTH
license=CC BY-NC-SA
exact mass=203.97448
ionization energy=70 eV
ion type=[M]+*
computed spectral entropy=2.872440684839351
computed normalized entropy=0.8364739044710602
SPLASH=splash10-0zos-6960000000-d6781db43d29f6daf7cb
submitter=submitter = University of Tokyo Team (Faculty of Engineering, University of Tokyo)
MoNA Rating=3.75

>  <NUM PEAKS>  (5664) 
31

>  <MASS SPECTRAL PEAKS>  (5664) 
49 4.5
50 19
51 4.5
63 0.45
73 9.9
74 58
75 47.3
77 0.45
84 13.7
85 6.1
86 4.5
109 5.87
110 25.1
111 23.6
112 6.1
145 9.23
146 6.8
147 61
149 6.8
173 6.48
174 30.5
175 40.4
176 17.5
177 4.12
186 8.3
203 6.1
204 99.99
205 1.14
206 60.3
207 5.3
208 9.1

$$$$

     RDKit          2D

 12 12  0  0  0  0  0  0  0  0999 V2000
   -3.5724    1.7675    0.0000 C   0  0  0  0  0  0  0  0  0  0  0  0
    2.9228   -0.4825    0.0000 C   0  0  0  0  0  0  0  0  0  0  0  0
    2.9233    1.0183    0.0000 C   0  0  0  0  0  0  0  0  0  0  0  0
    1.6233   -1.2333    0.0000 C   0  0  0  0  0  0  0  0  0  0  0  0
    1.6243    1.7683    0.0000 C   0  0  0  0  0  0  0  0  0  0  0  0
    0.3243   -0.4833    0.0000 C   0  0  0  0  0  0  0  0  0  0  0  0
    0.3248    1.0175    0.0000 C   0  0  0  0  0  0  0  0  0  0  0  0
   -0.9743    1.7675    0.0000 C   0  0  0  0  0  0  0  0  0  0  0  0
    1.6240    3.2683    0.0000 Cl  0  0  0  0  0  0  0  0  0  0  0  0
   -0.9749   -1.2331    0.0000 Cl  0  0  0  0  0  0  0  0  0  0  0  0
   -0.9743    3.2675    0.0000 O   0  0  0  0  0  0  0  0  0  0  0  0
   -2.2733    1.0175    0.0000 O   0  0  0  0  0  0  0  0  0  0  0  0
  3  2  2  0
  4  2  1  0
  5  3  1  0
  6  4  2  0
  7  5  2  0
  7  6  1  0
  8  7  1  0
  9  5  1  0
 10  6  1  0
 11  8  2  0
 12  1  1  0
 12  8  1  0
M  END
>  <NAME>  (5665) 
2,6-DICHLOROBENZOIC ACID METHYL ESTER

>  <SYNONYMS>  (5665) 


>  <SPECTRUM TYPE>  (5665) 
MS1

>  <INSTRUMENT TYPE>  (5665) 
EI-B

>  <INSTRUMENT>  (5665) 
JEOL JMS-01-SG

>  <ION MODE>  (5665) 
P

>  <INCHIKEY>  (5665) 
HEYGSGDIWJDORA-UHFFFAOYSA-N

>  <FORMULA>  (5665) 
C8H6Cl2O2

>  <EXACT MASS>  (5665) 
203.974484792

>  <MW>  (5665) 
204

>  <ID>  (5665) 
JP002644

>  <CONTRIBUTOR>  (5665) 
University of Tokyo Team, {Faculty of Engineering, University of Tokyo

>  <COMMENT>  (5665) 
SMILES=COC(=O)c(c(Cl)1)c(Cl)ccc1
InChI=InChI=1S/C8H6Cl2O2/c1-12-8(11)7-5(9)3-2-4-6(7)10/h2-4H,1H3
computed SMILES=O=C(OC)C=1C(Cl)=CC=CC1Cl
accession=JP002644
date=2016.01.19 (Created 2008.10.21, modified 2011.05.06)
author=KOGA M, UNIV. OF OCCUPATIONAL AND ENVIRONMENTAL HEALTH
license=CC BY-NC-SA
exact mass=203.97448
ionization energy=70 eV
ion type=[M]+*
computed spectral entropy=2.5244512155251533
computed normalized entropy=0.7422242617073465
SPLASH=splash10-00fr-2920000000-43bd32b64f2edfeaeb24
submitter=submitter = University of Tokyo Team (Faculty of Engineering, University of Tokyo)
MoNA Rating=3.75

>  <NUM PEAKS>  (5665) 
30

>  <MASS SPECTRAL PEAKS>  (5665) 
45 2.6
50 4.9
51 2.6
63 0.26
73 4.4
74 22.4
75 22.4
84 0.78
85 4.2
86 2
109 28.5
110 0.96
111 10.5
112 2.2
126 2
145 3.91
146 2.4
147 23.8
149 3.1
173 99.99
174 16.1
175 84.9
176 11.6
177 2.42
186 3.5
204 52.8
205 3.8
206 3.43
207 2.6
208 4.7

$$$$

     RDKit          2D

 12 12  0  0  0  0  0  0  0  0999 V2000
   -5.1970   -1.5006    0.0000 C   0  0  0  0  0  0  0  0  0  0  0  0
   -1.3000    0.7500    0.0000 C   0  0  0  0  0  0  0  0  0  0  0  0
    0.0000    1.5000    0.0000 C   0  0  0  0  0  0  0  0  0  0  0  0
    0.0000   -1.5000    0.0000 C   0  0  0  0  0  0  0  0  0  0  0  0
   -1.3000   -0.7500    0.0000 C   0  0  0  0  0  0  0  0  0  0  0  0
    1.3000    0.7500    0.0000 C   0  0  0  0  0  0  0  0  0  0  0  0
    1.3000   -0.7500    0.0000 C   0  0  0  0  0  0  0  0  0  0  0  0
   -2.5989   -1.5002    0.0000 C   0  0  0  0  0  0  0  0  0  0  0  0
    2.5989    1.5002    0.0000 Cl  0  0  0  0  0  0  0  0  0  0  0  0
    2.5989   -1.5002    0.0000 Cl  0  0  0  0  0  0  0  0  0  0  0  0
   -2.5987   -3.0002    0.0000 O   0  0  0  0  0  0  0  0  0  0  0  0
   -3.8981   -0.7504    0.0000 O   0  0  0  0  0  0  0  0  0  0  0  0
  3  2  2  0
  5  2  1  0
  5  4  2  0
  6  3  1  0
  7  4  1  0
  7  6  2  0
  8  5  1  0
  9  6  1  0
 10  7  1  0
 11  8  2  0
 12  1  1  0
 12  8  1  0
M  END
>  <NAME>  (5666) 
3,4-DICHLOROBENZOIC ACID METHYL ESTER

>  <SYNONYMS>  (5666) 


>  <SPECTRUM TYPE>  (5666) 
MS1

>  <INSTRUMENT TYPE>  (5666) 
EI-B

>  <INSTRUMENT>  (5666) 
JEOL JMS-01-SG

>  <ION MODE>  (5666) 
P

>  <INCHIKEY>  (5666) 
WICGATIORFSOJL-UHFFFAOYSA-N

>  <FORMULA>  (5666) 
C8H6Cl2O2

>  <EXACT MASS>  (5666) 
203.974484792

>  <MW>  (5666) 
204

>  <ID>  (5666) 
JP002643

>  <CONTRIBUTOR>  (5666) 
University of Tokyo Team, {Faculty of Engineering, University of Tokyo

>  <COMMENT>  (5666) 
SMILES=COC(=O)c(c1)cc(Cl)c(Cl)c1
InChI=InChI=1S/C8H6Cl2O2/c1-12-8(11)5-2-3-6(9)7(10)4-5/h2-4H,1H3
computed SMILES=O=C(OC)C1=CC=C(Cl)C(Cl)=C1
accession=JP002643
date=2016.01.19 (Created 2008.10.21, modified 2011.05.06)
author=KOGA M, UNIV. OF OCCUPATIONAL AND ENVIRONMENTAL HEALTH
license=CC BY-NC-SA
exact mass=203.97448
ionization energy=70 eV
ion type=[M]+*
computed spectral entropy=2.525305486092988
computed normalized entropy=0.7662107042192636
SPLASH=splash10-004j-1930000000-ca6bd6dd0b6297438dd3
submitter=submitter = University of Tokyo Team (Faculty of Engineering, University of Tokyo)
MoNA Rating=3.75

>  <NUM PEAKS>  (5666) 
27

>  <MASS SPECTRAL PEAKS>  (5666) 
50 6.9
59 2.5
73 4.3
74 2.52
75 22.3
84 7.6
85 2.9
109 2.49
110 8.4
111 8
145 50.1
146 0.26
147 31.5
149 5.1
169 3.6
173 1.83
174 12.4
175 99.99
176 7.6
177 1.64
186 6.9
203 3.2
204 47.2
205 0.58
206 29.6
207 3.2
208 4.3

$$$$

     RDKit          2D

 12 12  0  0  0  0  0  0  0  0999 V2000
    5.1970   -1.5006    0.0000 C   0  0  0  0  0  0  0  0  0  0  0  0
   -1.3000    0.7500    0.0000 C   0  0  0  0  0  0  0  0  0  0  0  0
    0.0000    1.5000    0.0000 C   0  0  0  0  0  0  0  0  0  0  0  0
   -0.0000   -1.5000    0.0000 C   0  0  0  0  0  0  0  0  0  0  0  0
   -1.3000   -0.7500    0.0000 C   0  0  0  0  0  0  0  0  0  0  0  0
    1.3000   -0.7500    0.0000 C   0  0  0  0  0  0  0  0  0  0  0  0
    1.3000    0.7500    0.0000 C   0  0  0  0  0  0  0  0  0  0  0  0
    2.5989   -1.5002    0.0000 C   0  0  0  0  0  0  0  0  0  0  0  0
   -2.5989   -1.5002    0.0000 Cl  0  0  0  0  0  0  0  0  0  0  0  0
    2.5989    1.5002    0.0000 Cl  0  0  0  0  0  0  0  0  0  0  0  0
    2.5987   -3.0002    0.0000 O   0  0  0  0  0  0  0  0  0  0  0  0
    3.8981   -0.7504    0.0000 O   0  0  0  0  0  0  0  0  0  0  0  0
  3  2  2  0
  5  2  1  0
  5  4  2  0
  6  4  1  0
  7  3  1  0
  7  6  2  0
  8  6  1  0
  9  5  1  0
 10  7  1  0
 11  8  2  0
 12  1  1  0
 12  8  1  0
M  END
>  <NAME>  (5667) 
2,5-DICHLOROBENZOIC ACID METHYL ESTER

>  <SYNONYMS>  (5667) 


>  <SPECTRUM TYPE>  (5667) 
MS1

>  <INSTRUMENT TYPE>  (5667) 
EI-B

>  <INSTRUMENT>  (5667) 
JEOL JMS-01-SG

>  <ION MODE>  (5667) 
P

>  <INCHIKEY>  (5667) 
SPJQBGGHUDNAIC-UHFFFAOYSA-N

>  <FORMULA>  (5667) 
C8H6Cl2O2

>  <EXACT MASS>  (5667) 
203.974484792

>  <MW>  (5667) 
204

>  <ID>  (5667) 
JP002642

>  <CONTRIBUTOR>  (5667) 
University of Tokyo Team, {Faculty of Engineering, University of Tokyo

>  <COMMENT>  (5667) 
SMILES=COC(=O)c(c1)c(Cl)ccc(Cl)1
InChI=InChI=1S/C8H6Cl2O2/c1-12-8(11)6-4-5(9)2-3-7(6)10/h2-4H,1H3
computed SMILES=O=C(OC)C1=CC(Cl)=CC=C1Cl
accession=JP002642
date=2016.01.19 (Created 2008.10.21, modified 2011.05.06)
author=KOGA M, UNIV. OF OCCUPATIONAL AND ENVIRONMENTAL HEALTH
license=CC BY-NC-SA
exact mass=203.97448
ionization energy=70 eV
ion type=[M]+*
computed spectral entropy=2.4528773386120477
computed normalized entropy=0.7935437237191864
SPLASH=splash10-00b9-2920000000-bb334199ec4a0421b68e
submitter=submitter = University of Tokyo Team (Faculty of Engineering, University of Tokyo)
MoNA Rating=3.75

>  <NUM PEAKS>  (5667) 
22

>  <MASS SPECTRAL PEAKS>  (5667) 
50 11
73 7.1
74 30.9
75 2.81
84 6.7
85 2.4
109 30.2
110 0.99
111 9.2
145 46.6
146 2.4
147 3.06
149 2.8
173 36.6
174 11.7
175 99.99
176 14.2
177 2.4
204 45.5
205 1.85
206 14.9
207 3.2

$$$$

     RDKit          2D

 12 12  0  0  0  0  0  0  0  0999 V2000
    3.5724    1.3123    0.0000 C   0  0  0  0  0  0  0  0  0  0  0  0
   -0.3242    3.5632    0.0000 C   0  0  0  0  0  0  0  0  0  0  0  0
   -1.6242    1.3115    0.0000 C   0  0  0  0  0  0  0  0  0  0  0  0
   -2.9227    3.5623    0.0000 C   0  0  0  0  0  0  0  0  0  0  0  0
   -0.3247    2.0623    0.0000 C   0  0  0  0  0  0  0  0  0  0  0  0
   -1.6232    4.3132    0.0000 C   0  0  0  0  0  0  0  0  0  0  0  0
   -2.9232    2.0615    0.0000 C   0  0  0  0  0  0  0  0  0  0  0  0
    0.9744    1.3123    0.0000 C   0  0  0  0  0  0  0  0  0  0  0  0
   -1.6235    5.8132    0.0000 Cl  0  0  0  0  0  0  0  0  0  0  0  0
   -4.2224    1.3117    0.0000 Cl  0  0  0  0  0  0  0  0  0  0  0  0
    0.9744   -0.1877    0.0000 O   0  0  0  0  0  0  0  0  0  0  0  0
    2.2734    2.0623    0.0000 O   0  0  0  0  0  0  0  0  0  0  0  0
  5  2  2  0
  5  3  1  0
  6  2  1  0
  6  4  2  0
  7  3  2  0
  7  4  1  0
  8  5  1  0
  9  6  1  0
 10  7  1  0
 11  8  2  0
 12  1  1  0
 12  8  1  0
M  END
>  <NAME>  (5668) 
3,5-DICHLOROBENZOIC ACID METHYL ESTER

>  <SYNONYMS>  (5668) 


>  <SPECTRUM TYPE>  (5668) 
MS1

>  <INSTRUMENT TYPE>  (5668) 
EI-B

>  <INSTRUMENT>  (5668) 
JEOL JMS-01-SG

>  <ION MODE>  (5668) 
P

>  <INCHIKEY>  (5668) 
BTEVDFJXGLQUDS-UHFFFAOYSA-N

>  <FORMULA>  (5668) 
C8H6Cl2O2

>  <EXACT MASS>  (5668) 
203.974484792

>  <MW>  (5668) 
204

>  <ID>  (5668) 
JP002641

>  <CONTRIBUTOR>  (5668) 
University of Tokyo Team, {Faculty of Engineering, University of Tokyo

>  <COMMENT>  (5668) 
SMILES=COC(=O)c(c1)cc(Cl)cc(Cl)1
InChI=InChI=1S/C8H6Cl2O2/c1-12-8(11)5-2-6(9)4-7(10)3-5/h2-4H,1H3
computed SMILES=O=C(OC)C=1C=C(Cl)C=C(Cl)C1
accession=JP002641
date=2016.01.19 (Created 2008.10.21, modified 2011.05.06)
author=KOGA M, UNIV. OF OCCUPATIONAL AND ENVIRONMENTAL HEALTH
license=CC BY-NC-SA
exact mass=203.97448
ionization energy=70 eV
ion type=[M]+*
computed spectral entropy=2.3843057801135514
computed normalized entropy=0.7155340474550247
SPLASH=splash10-00fr-1910000000-fd62a52d32761f57d5b7
submitter=submitter = University of Tokyo Team (Faculty of Engineering, University of Tokyo)
MoNA Rating=3.75

>  <NUM PEAKS>  (5668) 
28

>  <MASS SPECTRAL PEAKS>  (5668) 
42 2.7
44 6.1
50 5.2
73 0.34
74 13.2
75 15.2
84 3.1
85 0.25
109 15.7
110 5.9
111 5.9
145 3.16
146 2.9
147 20
148 1.1
149 0.29
173 99.99
174 7.2
175 59.9
176 0.47
177 8.8
186 1.3
203 1.1
204 3.07
205 3.4
206 20
207 1.1
208 3.1

$$$$

     RDKit          2D

 15 16  0  0  0  0  0  0  0  0999 V2000
    5.8416    5.8288    0.0000 C   0  0  0  0  0  0  0  0  0  0  0  0
   -2.5200    0.5000    0.0000 C   0  0  0  0  0  0  0  0  0  0  0  0
   -2.5300   -1.0000    0.0000 C   0  0  0  0  0  0  0  0  0  0  0  0
   -1.2200    1.2400    0.0000 C   0  0  0  0  0  0  0  0  0  0  0  0
   -1.2300   -1.7600    0.0000 C   0  0  0  0  0  0  0  0  0  0  0  0
    1.9684    2.3650    0.0000 C   0  0  0  0  0  0  0  0  0  0  0  0
    3.4366    2.6719    0.0000 C   0  0  0  0  0  0  0  0  0  0  0  0
    2.3800   -0.2700    0.0000 C   0  0  0  0  0  0  0  0  0  0  0  0
    1.5000    0.9400    0.0000 C   0  0  0  0  0  0  0  0  0  0  0  0
    0.0800    0.4900    0.0000 C   0  0  0  0  0  0  0  0  0  0  0  0
    0.0700   -1.0100    0.0000 C   0  0  0  0  0  0  0  0  0  0  0  0
    3.9050    4.0969    0.0000 C   0  0  0  0  0  0  0  0  0  0  0  0
    1.5000   -1.4800    0.0000 N   0  0  0  0  0  0  0  0  0  0  0  0
    2.9051    5.2150    0.0000 O   0  0  0  0  0  0  0  0  0  0  0  0
    5.3733    4.4038    0.0000 O   0  0  0  0  0  0  0  0  0  0  0  0
  3  2  2  0
  4  2  1  0
  5  3  1  0
  7  6  1  0
  9  6  1  0
  9  8  2  0
 10  4  2  0
 10  9  1  0
 11  5  2  0
 11 10  1  0
 12  7  1  0
 13  8  1  0
 13 11  1  0
 14 12  2  0
 15  1  1  0
 15 12  1  0
M  END
>  <NAME>  (5669) 
3-INDOLEPROPIONIC ACID METHYL ESTER

>  <SYNONYMS>  (5669) 


>  <SPECTRUM TYPE>  (5669) 
MS1

>  <INSTRUMENT TYPE>  (5669) 
EI-B

>  <INSTRUMENT>  (5669) 
JEOL JMS-01-SG

>  <ION MODE>  (5669) 
P

>  <INCHIKEY>  (5669) 
BAYIDMGOQRXHBC-UHFFFAOYSA-N

>  <FORMULA>  (5669) 
C12H13NO2

>  <EXACT MASS>  (5669) 
203.094628656

>  <MW>  (5669) 
203

>  <ID>  (5669) 
JP002640

>  <CONTRIBUTOR>  (5669) 
University of Tokyo Team, {Faculty of Engineering, University of Tokyo

>  <COMMENT>  (5669) 
SMILES=COC(=O)CCC1=CNC2=CC=CC=C21
InChI=InChI=1S/C12H13NO2/c1-15-12(14)7-6-9-8-13-11-5-3-2-4-10(9)11/h2-5,8,13H,6-7H2,1H3
computed SMILES=O=C(OC)CCC1=CNC=2C=CC=CC21
accession=JP002640
date=2016.01.19 (Created 2008.10.21, modified 2011.05.06)
author=KOGA M, UNIV. OF OCCUPATIONAL AND ENVIRONMENTAL HEALTH
license=CC BY-NC-SA
exact mass=203.09463
ionization energy=70 eV
ion type=[M]+*
computed spectral entropy=1.635260688674081
computed normalized entropy=0.5657613710785597
SPLASH=splash10-001i-1910000000-bf9da59907b5908134d8
submitter=submitter = University of Tokyo Team (Faculty of Engineering, University of Tokyo)
MoNA Rating=3.75

>  <NUM PEAKS>  (5669) 
18

>  <MASS SPECTRAL PEAKS>  (5669) 
39 2.5
41 3.5
42 3
51 0.65
56 2.5
65 2.5
89 2.5
103 0.25
115 7.5
129 3
130 99.99
131 0.9
142 3
143 7.5
144 6
186 0.1
203 21.1
204 2.5

$$$$

     RDKit          2D

 14 14  0  0  0  0  0  0  0  0999 V2000
    2.5980   -3.0002    0.0000 C   0  0  0  0  0  0  0  0  0  0  0  0
    5.1970    1.5002    0.0000 C   0  0  0  0  0  0  0  0  0  0  0  0
   -3.8981    2.2504    0.0000 C   0  0  0  0  0  0  0  0  0  0  0  0
   -0.0011   -0.0002    0.0000 C   0  0  0  0  0  0  0  0  0  0  0  0
    1.2989    2.2498    0.0000 C   0  0  0  0  0  0  0  0  0  0  0  0
    2.5989   -0.0002    0.0000 C   0  0  0  0  0  0  0  0  0  0  0  0
   -0.0011    1.4998    0.0000 C   0  0  0  0  0  0  0  0  0  0  0  0
    1.2989   -0.7502    0.0000 C   0  0  0  0  0  0  0  0  0  0  0  0
    2.5989    1.4998    0.0000 C   0  0  0  0  0  0  0  0  0  0  0  0
   -1.3000    2.2500    0.0000 C   0  0  0  0  0  0  0  0  0  0  0  0
   -1.2998    3.7500    0.0000 O   0  0  0  0  0  0  0  0  0  0  0  0
    1.2989   -2.2502    0.0000 O   0  0  0  0  0  0  0  0  0  0  0  0
    3.8978    2.2500    0.0000 O   0  0  0  0  0  0  0  0  0  0  0  0
   -2.5992    1.5002    0.0000 O   0  0  0  0  0  0  0  0  0  0  0  0
  7  4  2  0
  7  5  1  0
  8  4  1  0
  8  6  2  0
  9  5  2  0
  9  6  1  0
 10  7  1  0
 11 10  2  0
 12  1  1  0
 12  8  1  0
 13  2  1  0
 13  9  1  0
 14  3  1  0
 14 10  1  0
M  END
>  <NAME>  (5670) 
3,5-DIMETHOXYBENZOIC ACID METHYL ESTER

>  <SYNONYMS>  (5670) 


>  <SPECTRUM TYPE>  (5670) 
MS1

>  <INSTRUMENT TYPE>  (5670) 
EI-B

>  <INSTRUMENT>  (5670) 
JEOL JMS-01-SG

>  <ION MODE>  (5670) 
P

>  <INCHIKEY>  (5670) 
YXUIOVUOFQKWDM-UHFFFAOYSA-N

>  <FORMULA>  (5670) 
C10H12O4

>  <EXACT MASS>  (5670) 
196.073558864

>  <MW>  (5670) 
196

>  <ID>  (5670) 
JP002639

>  <CONTRIBUTOR>  (5670) 
University of Tokyo Team, {Faculty of Engineering, University of Tokyo

>  <COMMENT>  (5670) 
SMILES=COC(=O)c(c1)cc(OC)cc(OC)1
InChI=InChI=1S/C10H12O4/c1-12-8-4-7(10(11)14-3)5-9(6-8)13-2/h4-6H,1-3H3
computed SMILES=O=C(OC)C=1C=C(OC)C=C(OC)C1
accession=JP002639
date=2016.01.19 (Created 2008.10.21, modified 2011.05.06)
author=KOGA M, UNIV. OF OCCUPATIONAL AND ENVIRONMENTAL HEALTH
license=CC BY-NC-SA
exact mass=196.07356
ionization energy=70 eV
ion type=[M]+*
computed spectral entropy=3.395516424514306
computed normalized entropy=0.8972902399181536
SPLASH=splash10-0a4i-9800000000-0abf4ca17a48e7f4506e
submitter=submitter = University of Tokyo Team (Faculty of Engineering, University of Tokyo)
MoNA Rating=3.75

>  <NUM PEAKS>  (5670) 
44

>  <MASS SPECTRAL PEAKS>  (5670) 
50 22.4
51 67.2
52 21
53 2.45
59 48.3
62 31.1
63 92
64 3.3
65 16.6
66 24
69 65.8
74 1.14
75 13.1
77 92
78 34.1
79 7.02
82 12.5
91 16.6
92 35.5
93 1.63
94 28.1
95 19.3
98 14.7
106 2.4
107 99.99
108 50.8
109 77.8
110 1.03
122 60.3
123 39.3
125 16.9
135 7.86
136 11.2
137 72.1
138 20.4
139 2.92
150 22.1
151 13.6
165 36.8
166 6.8
167 11.2
196 46.7
197 18.8
198 10.3

$$$$

     RDKit          2D

 14 14  0  0  0  0  0  0  0  0999 V2000
    3.8981    0.0804    0.0000 C   0  0  0  0  0  0  0  0  0  0  0  0
    1.2990    3.0800    0.0000 C   0  0  0  0  0  0  0  0  0  0  0  0
   -5.1970    0.8306    0.0000 C   0  0  0  0  0  0  0  0  0  0  0  0
   -0.0000   -2.1700    0.0000 C   0  0  0  0  0  0  0  0  0  0  0  0
   -1.3000   -1.4200    0.0000 C   0  0  0  0  0  0  0  0  0  0  0  0
    1.3000   -1.4200    0.0000 C   0  0  0  0  0  0  0  0  0  0  0  0
   -1.3000    0.0800    0.0000 C   0  0  0  0  0  0  0  0  0  0  0  0
    1.3000    0.0800    0.0000 C   0  0  0  0  0  0  0  0  0  0  0  0
   -0.0000    0.8300    0.0000 C   0  0  0  0  0  0  0  0  0  0  0  0
   -2.5989    0.8302    0.0000 C   0  0  0  0  0  0  0  0  0  0  0  0
   -2.5987    2.3302    0.0000 O   0  0  0  0  0  0  0  0  0  0  0  0
    2.5989    0.8302    0.0000 O   0  0  0  0  0  0  0  0  0  0  0  0
    0.0000    2.3300    0.0000 O   0  0  0  0  0  0  0  0  0  0  0  0
   -3.8981    0.0804    0.0000 O   0  0  0  0  0  0  0  0  0  0  0  0
  5  4  2  0
  6  4  1  0
  7  5  1  0
  8  6  2  0
  9  7  2  0
  9  8  1  0
 10  7  1  0
 11 10  2  0
 12  1  1  0
 12  8  1  0
 13  2  1  0
 13  9  1  0
 14  3  1  0
 14 10  1  0
M  END
>  <NAME>  (5671) 
2,3-DIMETHOXYBENZOIC ACID METHYL ESTER

>  <SYNONYMS>  (5671) 


>  <SPECTRUM TYPE>  (5671) 
MS1

>  <INSTRUMENT TYPE>  (5671) 
EI-B

>  <INSTRUMENT>  (5671) 
JEOL JMS-01-SG

>  <ION MODE>  (5671) 
P

>  <INCHIKEY>  (5671) 
MGLIMPUPAKQITQ-UHFFFAOYSA-N

>  <FORMULA>  (5671) 
C10H12O4

>  <EXACT MASS>  (5671) 
196.073558864

>  <MW>  (5671) 
196

>  <ID>  (5671) 
JP002638

>  <CONTRIBUTOR>  (5671) 
University of Tokyo Team, {Faculty of Engineering, University of Tokyo

>  <COMMENT>  (5671) 
SMILES=COC(=O)c(c1)c(OC)c(OC)cc1
InChI=InChI=1S/C10H12O4/c1-12-8-6-4-5-7(9(8)13-2)10(11)14-3/h4-6H,1-3H3
computed SMILES=O=C(OC)C=1C=CC=C(OC)C1OC
accession=JP002638
date=2016.01.19 (Created 2008.10.21, modified 2011.05.06)
author=KOGA M, UNIV. OF OCCUPATIONAL AND ENVIRONMENTAL HEALTH
license=CC BY-NC-SA
exact mass=196.07356
ionization energy=70 eV
ion type=[M]+*
computed spectral entropy=2.974132547381349
computed normalized entropy=0.8176115744857186
SPLASH=splash10-014j-3900000000-6c600db974875cd0ab36
submitter=submitter = University of Tokyo Team (Faculty of Engineering, University of Tokyo)
MoNA Rating=3.75

>  <NUM PEAKS>  (5671) 
38

>  <MASS SPECTRAL PEAKS>  (5671) 
44 27.4
50 10
51 27.7
53 1.03
55 6.6
59 8.8
63 8.5
65 1.96
76 7
77 33.7
78 12.2
79 1.48
91 5.9
92 12.2
93 7
95 0.68
107 38.5
108 7.4
109 7
119 0.96
120 6.2
121 11.8
122 34.4
123 1.25
125 8.1
135 24.8
136 8.1
137 0.81
149 30
153 11.4
164 1.29
165 97
166 10.3
167 16.2
168 99.99
181 0.62
196 88.8
197 9.2

$$$$

     RDKit          2D

 14 14  0  0  0  0  0  0  0  0999 V2000
    3.2823   -3.0174    0.0000 C   0  0  0  0  0  0  0  0  0  0  0  0
    4.5818    0.7330    0.0000 C   0  0  0  0  0  0  0  0  0  0  0  0
   -4.5119    1.4826    0.0000 C   0  0  0  0  0  0  0  0  0  0  0  0
   -0.6153   -0.7683    0.0000 C   0  0  0  0  0  0  0  0  0  0  0  0
    0.6838   -1.5183    0.0000 C   0  0  0  0  0  0  0  0  0  0  0  0
    0.6847    1.4834    0.0000 C   0  0  0  0  0  0  0  0  0  0  0  0
   -0.6148    0.7326    0.0000 C   0  0  0  0  0  0  0  0  0  0  0  0
    1.9833   -0.7674    0.0000 C   0  0  0  0  0  0  0  0  0  0  0  0
    1.9838    0.7334    0.0000 C   0  0  0  0  0  0  0  0  0  0  0  0
   -1.9138    1.4826    0.0000 C   0  0  0  0  0  0  0  0  0  0  0  0
   -1.9138    2.9826    0.0000 O   0  0  0  0  0  0  0  0  0  0  0  0
    3.2823   -1.5174    0.0000 O   0  0  0  0  0  0  0  0  0  0  0  0
    3.2829    1.4832    0.0000 O   0  0  0  0  0  0  0  0  0  0  0  0
   -3.2129    0.7326    0.0000 O   0  0  0  0  0  0  0  0  0  0  0  0
  5  4  2  0
  7  4  1  0
  7  6  2  0
  8  5  1  0
  9  6  1  0
  9  8  2  0
 10  7  1  0
 11 10  2  0
 12  1  1  0
 12  8  1  0
 13  2  1  0
 13  9  1  0
 14  3  1  0
 14 10  1  0
M  END
>  <NAME>  (5672) 
3,4-DIMETHOXYBENZOIC ACID METHYL ESTER

>  <SYNONYMS>  (5672) 


>  <SPECTRUM TYPE>  (5672) 
MS1

>  <INSTRUMENT TYPE>  (5672) 
EI-B

>  <INSTRUMENT>  (5672) 
JEOL JMS-01-SG

>  <ION MODE>  (5672) 
P

>  <INCHIKEY>  (5672) 
BIGQPYZPEWAPBG-UHFFFAOYSA-N

>  <FORMULA>  (5672) 
C10H12O4

>  <EXACT MASS>  (5672) 
196.073558864

>  <MW>  (5672) 
196

>  <ID>  (5672) 
JP002637

>  <CONTRIBUTOR>  (5672) 
University of Tokyo Team, {Faculty of Engineering, University of Tokyo

>  <COMMENT>  (5672) 
SMILES=COC(=O)c(c1)cc(OC)c(OC)c1
InChI=InChI=1S/C10H12O4/c1-12-8-5-4-7(10(11)14-3)6-9(8)13-2/h4-6H,1-3H3
computed SMILES=O=C(OC)C1=CC=C(OC)C(OC)=C1
accession=JP002637
date=2016.01.19 (Created 2008.10.21, modified 2011.05.06)
author=KOGA M, UNIV. OF OCCUPATIONAL AND ENVIRONMENTAL HEALTH
license=CC BY-NC-SA
exact mass=196.07356
ionization energy=70 eV
ion type=[M]+*
computed spectral entropy=3.456399164341861
computed normalized entropy=0.9133789526195081
SPLASH=splash10-1090-9600000000-51f92cb03d3c8d95f148
submitter=submitter = University of Tokyo Team (Faculty of Engineering, University of Tokyo)
MoNA Rating=3.75

>  <NUM PEAKS>  (5672) 
44

>  <MASS SPECTRAL PEAKS>  (5672) 
50 40.7
51 96.9
52 18
53 3.03
59 85.8
62 19.6
63 38.6
64 1.75
65 27.5
66 20.3
69 16.4
75 1.82
76 28.9
77 31
78 16.6
79 99.99
80 15.9
81 18.9
91 32.4
92 4
93 37.9
94 64.5
95 23.3
107 4.81
109 24.3
110 14.3
119 42.1
120 2.08
121 68.9
122 65.7
123 24.3
125 6.8
135 23.1
136 23.8
137 24.7
138 1.99
149 40.2
151 15
153 29.3
165 4.09
166 75.9
181 19.9
196 42.8
197 17.1

$$$$

     RDKit          2D

 13 13  0  0  0  0  0  0  0  0999 V2000
    5.8522    0.3571    0.0000 C   0  0  0  0  0  0  0  0  0  0  0  0
   -4.5510    1.8802    0.0000 C   0  0  0  0  0  0  0  0  0  0  0  0
    1.9442    2.6046    0.0000 C   0  0  0  0  0  0  0  0  0  0  0  0
    0.6306    0.3798    0.0000 C   0  0  0  0  0  0  0  0  0  0  0  0
    3.2287    1.8798    0.0000 C   0  0  0  0  0  0  0  0  0  0  0  0
    1.9551   -0.4144    0.0000 C   0  0  0  0  0  0  0  0  0  0  0  0
   -0.6502    2.6110    0.0000 C   0  0  0  0  0  0  0  0  0  0  0  0
    0.6451    1.8546    0.0000 C   0  0  0  0  0  0  0  0  0  0  0  0
    3.2542    0.3356    0.0000 C   0  0  0  0  0  0  0  0  0  0  0  0
   -1.9529    1.8674    0.0000 C   0  0  0  0  0  0  0  0  0  0  0  0
   -1.9603    0.3674    0.0000 O   0  0  0  0  0  0  0  0  0  0  0  0
    4.5594   -0.4036    0.0000 O   0  0  0  0  0  0  0  0  0  0  0  0
   -3.2482    2.6238    0.0000 O   0  0  0  0  0  0  0  0  0  0  0  0
  5  3  2  0
  6  4  1  0
  8  3  1  0
  8  4  2  0
  8  7  1  0
  9  5  1  0
  9  6  2  0
 10  7  1  0
 11 10  2  0
 12  1  1  0
 12  9  1  0
 13  2  1  0
 13 10  1  0
M  END
>  <NAME>  (5673) 
4-METHOXYPHENYLACETIC ACID METHYL ESTER

>  <SYNONYMS>  (5673) 


>  <SPECTRUM TYPE>  (5673) 
MS1

>  <INSTRUMENT TYPE>  (5673) 
EI-B

>  <INSTRUMENT>  (5673) 
JEOL JMS-01-SG

>  <ION MODE>  (5673) 
P

>  <INCHIKEY>  (5673) 
ZQYLDVNTWDEAJI-UHFFFAOYSA-N

>  <FORMULA>  (5673) 
C10H12O3

>  <EXACT MASS>  (5673) 
180.07864424399997

>  <MW>  (5673) 
180

>  <ID>  (5673) 
JP002636

>  <CONTRIBUTOR>  (5673) 
University of Tokyo Team, {Faculty of Engineering, University of Tokyo

>  <COMMENT>  (5673) 
SMILES=COC(=O)Cc(c1)ccc(OC)c1
InChI=InChI=1S/C10H12O3/c1-12-9-5-3-8(4-6-9)7-10(11)13-2/h3-6H,7H2,1-2H3
computed SMILES=O=C(OC)CC1=CC=C(OC)C=C1
accession=JP002636
date=2016.01.19 (Created 2008.10.21, modified 2011.05.06)
author=KOGA M, UNIV. OF OCCUPATIONAL AND ENVIRONMENTAL HEALTH
license=CC BY-NC-SA
exact mass=180.07864
ionization energy=70 eV
ion type=[M]+*
computed spectral entropy=2.2361696253086194
computed normalized entropy=0.7736615953292721
SPLASH=splash10-00ai-9800000000-4e4d33afb476f217dd2e
submitter=submitter = University of Tokyo Team (Faculty of Engineering, University of Tokyo)
MoNA Rating=3.75

>  <NUM PEAKS>  (5673) 
18

>  <MASS SPECTRAL PEAKS>  (5673) 
42 12.4
50 5.8
51 26.2
52 1.45
53 3.6
63 5.1
65 9.4
74 0.8
77 43
78 40.8
79 3.6
89 1.02
91 25.5
106 4.3
121 56.2
122 4.37
180 99.99
181 10.2

$$$$

     RDKit          2D

 13 14  0  0  0  0  0  0  0  0999 V2000
    6.3500    1.2990    0.0000 C   0  0  0  0  0  0  0  0  0  0  0  0
   -2.3100    0.7500    0.0000 C   0  0  0  0  0  0  0  0  0  0  0  0
   -2.3100   -0.7500    0.0000 C   0  0  0  0  0  0  0  0  0  0  0  0
   -1.0100    1.5000    0.0000 C   0  0  0  0  0  0  0  0  0  0  0  0
   -1.0100   -1.5000    0.0000 C   0  0  0  0  0  0  0  0  0  0  0  0
    1.7200    1.2100    0.0000 C   0  0  0  0  0  0  0  0  0  0  0  0
    0.2900    0.7500    0.0000 C   0  0  0  0  0  0  0  0  0  0  0  0
    0.2900   -0.7500    0.0000 C   0  0  0  0  0  0  0  0  0  0  0  0
    2.6000   -0.0000    0.0000 C   0  0  0  0  0  0  0  0  0  0  0  0
    4.1000   -0.0000    0.0000 C   0  0  0  0  0  0  0  0  0  0  0  0
    1.7200   -1.2100    0.0000 N   0  0  0  0  0  0  0  0  0  0  0  0
    4.8500   -1.2990    0.0000 O   0  0  0  0  0  0  0  0  0  0  0  0
    4.8500    1.2990    0.0000 O   0  0  0  0  0  0  0  0  0  0  0  0
  3  2  2  0
  4  2  1  0
  5  3  1  0
  7  4  2  0
  7  6  1  0
  8  5  2  0
  8  7  1  0
  9  6  2  0
 10  9  1  0
 11  8  1  0
 11  9  1  0
 12 10  2  0
 13  1  1  0
 13 10  1  0
M  END
>  <NAME>  (5674) 
INDOLE-2-CARBOXYLIC ACID METHYL ESTER

>  <SYNONYMS>  (5674) 


>  <SPECTRUM TYPE>  (5674) 
MS1

>  <INSTRUMENT TYPE>  (5674) 
EI-B

>  <INSTRUMENT>  (5674) 
JEOL JMS-01-SG

>  <ION MODE>  (5674) 
P

>  <INCHIKEY>  (5674) 
NQPIEWBAWBFGOB-UHFFFAOYSA-N

>  <FORMULA>  (5674) 
C10H9NO2

>  <EXACT MASS>  (5674) 
175.063328528

>  <MW>  (5674) 
175

>  <ID>  (5674) 
JP002635

>  <CONTRIBUTOR>  (5674) 
University of Tokyo Team, {Faculty of Engineering, University of Tokyo

>  <COMMENT>  (5674) 
SMILES=COC(=O)C1=CC2=CC=CC=C2N1
InChI=InChI=1S/C10H9NO2/c1-13-10(12)9-6-7-4-2-3-5-8(7)11-9/h2-6,11H,1H3
computed SMILES=O=C(OC)C1=CC=2C=CC=CC2N1
accession=JP002635
date=2016.01.19 (Created 2008.10.21, modified 2011.05.06)
author=KOGA M, UNIV. OF OCCUPATIONAL AND ENVIRONMENTAL HEALTH
license=CC BY-NC-SA
exact mass=175.06333
ionization energy=70 eV
ion type=[M]+*
computed spectral entropy=1.6544587277967584
computed normalized entropy=0.6658031712933395
SPLASH=splash10-0006-0900000000-392d66eda5360eb8f39d
submitter=submitter = University of Tokyo Team (Faculty of Engineering, University of Tokyo)
MoNA Rating=3.75

>  <NUM PEAKS>  (5674) 
12

>  <MASS SPECTRAL PEAKS>  (5674) 
42 2.3
62 5.8
63 8.6
89 1.84
115 2.7
116 21.9
117 3.1
144 99.99
145 11.3
146 3.1
175 49.4
176 4.3

$$$$

     RDKit          2D

 11 11  0  0  0  0  0  0  0  0999 V2000
   -3.5642    1.2903    0.0000 C   0  0  0  0  0  0  0  0  0  0  0  0
    1.6631   -1.6589    0.0000 C   0  0  0  0  0  0  0  0  0  0  0  0
    2.9619   -0.9039    0.0000 C   0  0  0  0  0  0  0  0  0  0  0  0
    0.3512   -0.9317    0.0000 C   0  0  0  0  0  0  0  0  0  0  0  0
    2.9411    0.6054    0.0000 C   0  0  0  0  0  0  0  0  0  0  0  0
    0.3390    0.5729    0.0000 C   0  0  0  0  0  0  0  0  0  0  0  0
    1.6291    1.3327    0.0000 C   0  0  0  0  0  0  0  0  0  0  0  0
   -0.9662    1.3120    0.0000 C   0  0  0  0  0  0  0  0  0  0  0  0
    1.6096    2.8325    0.0000 Cl  0  0  0  0  0  0  0  0  0  0  0  0
   -0.9788    2.8119    0.0000 O   0  0  0  0  0  0  0  0  0  0  0  0
   -2.2590    0.5512    0.0000 O   0  0  0  0  0  0  0  0  0  0  0  0
  3  2  2  0
  4  2  1  0
  5  3  1  0
  6  4  2  0
  7  5  2  0
  7  6  1  0
  8  6  1  0
  9  7  1  0
 10  8  2  0
 11  1  1  0
 11  8  1  0
M  END
>  <NAME>  (5675) 
2-CHLOROBENZOIC ACID METHYL ESTER

>  <SYNONYMS>  (5675) 


>  <SPECTRUM TYPE>  (5675) 
MS1

>  <INSTRUMENT TYPE>  (5675) 
EI-B

>  <INSTRUMENT>  (5675) 
JEOL JMS-01-SG

>  <ION MODE>  (5675) 
P

>  <INCHIKEY>  (5675) 
JAVRNIFMYIJXIE-UHFFFAOYSA-N

>  <FORMULA>  (5675) 
C8H7ClO2

>  <EXACT MASS>  (5675) 
170.013457144

>  <MW>  (5675) 
170

>  <ID>  (5675) 
JP002634

>  <CONTRIBUTOR>  (5675) 
University of Tokyo Team, {Faculty of Engineering, University of Tokyo

>  <COMMENT>  (5675) 
SMILES=COC(=O)c(c1)c(Cl)ccc1
InChI=InChI=1S/C8H7ClO2/c1-11-8(10)6-4-2-3-5-7(6)9/h2-5H,1H3
computed SMILES=O=C(OC)C=1C=CC=CC1Cl
accession=JP002634
license=CC BY-NC-SA
date=2016.01.19 (Created 2008.10.21, modified 2011.05.06)
author=KOGA M, UNIV. OF OCCUPATIONAL AND ENVIRONMENTAL HEALTH
exact mass=170.01346
ionization energy=70 eV
ion type=[M]+*
computed spectral entropy=1.821780243469618
computed normalized entropy=0.6903147661954016
SPLASH=splash10-000i-3900000000-2fec1ba51e91e5bf09c7
submitter=submitter = University of Tokyo Team (Faculty of Engineering, University of Tokyo)
MoNA Rating=3.75

>  <NUM PEAKS>  (5675) 
14

>  <MASS SPECTRAL PEAKS>  (5675) 
50 12.7
51 7.7
71 2.2
74 0.5
75 25.9
76 4
77 3.6
111 3.4
113 7.7
139 99.99
140 5.4
141 3.4
170 28.1
172 5.4

$$$$

     RDKit          2D

 11 11  0  0  0  0  0  0  0  0999 V2000
    5.1948    1.1419    0.0000 C   0  0  0  0  0  0  0  0  0  0  0  0
   -0.0000   -1.8800    0.0000 C   0  0  0  0  0  0  0  0  0  0  0  0
    1.3000   -1.1200    0.0000 C   0  0  0  0  0  0  0  0  0  0  0  0
   -1.3000   -1.1200    0.0000 C   0  0  0  0  0  0  0  0  0  0  0  0
   -0.0000    1.1200    0.0000 C   0  0  0  0  0  0  0  0  0  0  0  0
    1.3000    0.3800    0.0000 C   0  0  0  0  0  0  0  0  0  0  0  0
   -1.3000    0.3800    0.0000 C   0  0  0  0  0  0  0  0  0  0  0  0
    2.5967    1.1340    0.0000 C   0  0  0  0  0  0  0  0  0  0  0  0
   -2.5967    1.1340    0.0000 Cl  0  0  0  0  0  0  0  0  0  0  0  0
    2.5922    2.6340    0.0000 O   0  0  0  0  0  0  0  0  0  0  0  0
    3.8981    0.3879    0.0000 O   0  0  0  0  0  0  0  0  0  0  0  0
  3  2  2  0
  4  2  1  0
  6  3  1  0
  6  5  2  0
  7  4  2  0
  7  5  1  0
  8  6  1  0
  9  7  1  0
 10  8  2  0
 11  1  1  0
 11  8  1  0
M  END
>  <NAME>  (5676) 
3-CHLOROBENZOIC ACID METHYL ESTER

>  <SYNONYMS>  (5676) 


>  <SPECTRUM TYPE>  (5676) 
MS1

>  <INSTRUMENT TYPE>  (5676) 
EI-B

>  <INSTRUMENT>  (5676) 
JEOL JMS-01-SG

>  <ION MODE>  (5676) 
P

>  <INCHIKEY>  (5676) 
XRDRKVPNHIWTBX-UHFFFAOYSA-N

>  <FORMULA>  (5676) 
C8H7ClO2

>  <EXACT MASS>  (5676) 
170.013457144

>  <MW>  (5676) 
170

>  <ID>  (5676) 
JP002633

>  <CONTRIBUTOR>  (5676) 
University of Tokyo Team, {Faculty of Engineering, University of Tokyo

>  <COMMENT>  (5676) 
SMILES=COC(=O)c(c1)cc(Cl)cc1
InChI=InChI=1S/C8H7ClO2/c1-11-8(10)6-3-2-4-7(9)5-6/h2-5H,1H3
computed SMILES=O=C(OC)C=1C=CC=C(Cl)C1
accession=JP002633
date=2016.01.19 (Created 2008.10.21, modified 2011.05.06)
author=KOGA M, UNIV. OF OCCUPATIONAL AND ENVIRONMENTAL HEALTH
license=CC BY-NC-SA
exact mass=170.01346
ionization energy=70 eV
ion type=[M]+*
computed spectral entropy=2.44741436093506
computed normalized entropy=0.7425775183776481
SPLASH=splash10-03kc-3900000000-52d03b3bdb733f3e8171
submitter=submitter = University of Tokyo Team (Faculty of Engineering, University of Tokyo)
MoNA Rating=3.75

>  <NUM PEAKS>  (5676) 
27

>  <MASS SPECTRAL PEAKS>  (5676) 
49 2.1
50 24.5
51 12.4
57 0.18
59 3.4
61 2.1
63 2.4
67 0.37
73 3.4
74 14.9
75 55.2
76 1.54
77 6.8
85 4.3
111 99.99
112 0.62
113 32.9
114 2.1
135 3.7
139 2.32
140 18
141 71.4
142 4
169 0.34
170 72
171 5.5
172 22.9

$$$$

     RDKit          2D

 11 11  0  0  0  0  0  0  0  0999 V2000
    4.2095    2.0811    0.0000 C   0  0  0  0  0  0  0  0  0  0  0  0
   -0.9733    2.0450    0.0000 C   0  0  0  0  0  0  0  0  0  0  0  0
    0.3217   -0.1980    0.0000 C   0  0  0  0  0  0  0  0  0  0  0  0
   -2.2724    1.2950    0.0000 C   0  0  0  0  0  0  0  0  0  0  0  0
   -0.9774   -0.9480    0.0000 C   0  0  0  0  0  0  0  0  0  0  0  0
    0.3162    1.3115    0.0000 C   0  0  0  0  0  0  0  0  0  0  0  0
   -2.2905   -0.1935    0.0000 C   0  0  0  0  0  0  0  0  0  0  0  0
    1.6114    2.0680    0.0000 C   0  0  0  0  0  0  0  0  0  0  0  0
   -3.5934   -0.9369    0.0000 Cl  0  0  0  0  0  0  0  0  0  0  0  0
    1.6039    3.5680    0.0000 O   0  0  0  0  0  0  0  0  0  0  0  0
    2.9142    1.3245    0.0000 O   0  0  0  0  0  0  0  0  0  0  0  0
  4  2  2  0
  5  3  1  0
  6  2  1  0
  6  3  2  0
  7  4  1  0
  7  5  2  0
  8  6  1  0
  9  7  1  0
 10  8  2  0
 11  1  1  0
 11  8  1  0
M  END
>  <NAME>  (5677) 
4-CHLOROBENZOIC ACID METHYL ESTER

>  <SYNONYMS>  (5677) 


>  <SPECTRUM TYPE>  (5677) 
MS1

>  <INSTRUMENT TYPE>  (5677) 
EI-B

>  <INSTRUMENT>  (5677) 
JEOL JMS-01-SG

>  <ION MODE>  (5677) 
P

>  <INCHIKEY>  (5677) 
LXNFVVDCCWUUKC-UHFFFAOYSA-N

>  <FORMULA>  (5677) 
C8H7ClO2

>  <EXACT MASS>  (5677) 
170.013457144

>  <MW>  (5677) 
170

>  <ID>  (5677) 
JP002632

>  <CONTRIBUTOR>  (5677) 
University of Tokyo Team, {Faculty of Engineering, University of Tokyo

>  <COMMENT>  (5677) 
SMILES=COC(=O)c(c1)ccc(Cl)c1
InChI=InChI=1S/C8H7ClO2/c1-11-8(10)6-2-4-7(9)5-3-6/h2-5H,1H3
computed SMILES=O=C(OC)C1=CC=C(Cl)C=C1
accession=JP002632
date=2016.01.19 (Created 2008.10.21, modified 2011.05.06)
author=KOGA M, UNIV. OF OCCUPATIONAL AND ENVIRONMENTAL HEALTH
license=CC BY-NC-SA
exact mass=170.01346
ionization energy=70 eV
ion type=[M]+*
computed spectral entropy=2.4815550855004425
computed normalized entropy=0.7709384333277447
SPLASH=splash10-024i-5900000000-27527e684c27d4f8f350
submitter=submitter = University of Tokyo Team (Faculty of Engineering, University of Tokyo)
MoNA Rating=3.75

>  <NUM PEAKS>  (5677) 
25

>  <MASS SPECTRAL PEAKS>  (5677) 
49 3
50 33.1
51 15.2
55 0.34
57 3
59 6.5
63 3.4
73 0.34
74 18.7
75 61.1
76 14.8
77 0.26
85 5.2
111 99.99
112 5.6
113 3.4
135 3
139 33.6
140 20.9
141 8.73
142 4.8
169 3.4
170 75.9
171 0.52
172 26.6

$$$$

     RDKit          2D

 12 11  0  0  0  0  0  0  0  0999 V2000
   -8.4437    5.6250    0.0000 C   0  0  0  0  0  0  0  0  0  0  0  0
    3.2476    4.8750    0.0000 C   0  0  0  0  0  0  0  0  0  0  0  0
   -3.2476    5.6250    0.0000 C   0  0  0  0  0  0  0  0  0  0  0  0
   -1.9486    4.8750    0.0000 C   0  0  0  0  0  0  0  0  0  0  0  0
   -4.5466    4.8750    0.0000 C   0  0  0  0  0  0  0  0  0  0  0  0
   -0.6495    5.6250    0.0000 C   0  0  0  0  0  0  0  0  0  0  0  0
   -5.8457    5.6250    0.0000 C   0  0  0  0  0  0  0  0  0  0  0  0
    0.6495    4.8750    0.0000 C   0  0  0  0  0  0  0  0  0  0  0  0
   -5.8457    7.1250    0.0000 O   0  0  0  0  0  0  0  0  0  0  0  0
    0.6495    3.3750    0.0000 O   0  0  0  0  0  0  0  0  0  0  0  0
   -7.1447    4.8750    0.0000 O   0  0  0  0  0  0  0  0  0  0  0  0
    1.9486    5.6250    0.0000 O   0  0  0  0  0  0  0  0  0  0  0  0
  4  3  1  0
  3  5  2  0
  4  6  2  0
  7  5  1  0
  8  6  1  0
  9  7  2  0
 10  8  2  0
 11  1  1  0
 11  7  1  0
 12  2  1  0
 12  8  1  0
M  END
>  <NAME>  (5678) 
2,4-HEXADIENEDIOIC ACID DIMETHYL ESTER

>  <SYNONYMS>  (5678) 


>  <SPECTRUM TYPE>  (5678) 
MS1

>  <INSTRUMENT TYPE>  (5678) 
EI-B

>  <INSTRUMENT>  (5678) 
JEOL JMS-01-SG

>  <ION MODE>  (5678) 
P

>  <INCHIKEY>  (5678) 
PXYBXMZVYNWQAM-GGWOSOGESA-N

>  <FORMULA>  (5678) 
C8H10O4

>  <EXACT MASS>  (5678) 
170.0579088

>  <MW>  (5678) 
170

>  <ID>  (5678) 
JP002631

>  <CONTRIBUTOR>  (5678) 
University of Tokyo Team, {Faculty of Engineering, University of Tokyo

>  <COMMENT>  (5678) 
SMILES=COC(=O)C=CC=CC(=O)OC
InChI=InChI=1S/C8H10O4/c1-11-7(9)5-3-4-6-8(10)12-2/h3-6H,1-2H3/b5-3+,6-4+
computed SMILES=O=C(OC)C=CC=CC(=O)OC
accession=JP002631
date=2016.01.19 (Created 2008.10.21, modified 2011.05.06)
author=KOGA M, UNIV. OF OCCUPATIONAL AND ENVIRONMENTAL HEALTH
license=CC BY-NC-SA
exact mass=170.05791
ionization energy=70 eV
ion type=[M]+*
computed spectral entropy=2.2939244688013805
computed normalized entropy=0.7657307994615888
SPLASH=splash10-03di-6900000000-b3c5616a8a5a7e8a7743
submitter=submitter = University of Tokyo Team (Faculty of Engineering, University of Tokyo)
MoNA Rating=3.75

>  <NUM PEAKS>  (5678) 
20

>  <MASS SPECTRAL PEAKS>  (5678) 
50 9.8
51 22.3
52 17.6
53 0.96
54 7.7
55 9.6
59 17.1
68 0.79
69 2.5
79 17.3
80 7.7
83 0.37
95 3
107 3.5
111 99.99
112 0.72
123 11
139 25.5
155 3.5
170 13.3

$$$$

     RDKit          2D

  8  7  0  0  0  0  0  0  0  0999 V2000
    1.9486    2.6250    0.0000 C   0  0  0  0  0  0  0  0  0  0  0  0
   -4.5466    3.3750    0.0000 C   0  0  0  0  0  0  0  0  0  0  0  0
    0.6495    3.3750    0.0000 C   0  0  0  0  0  0  0  0  0  0  0  0
   -0.6495    2.6250    0.0000 C   0  0  0  0  0  0  0  0  0  0  0  0
   -1.9486    3.3750    0.0000 C   0  0  0  0  0  0  0  0  0  0  0  0
   -0.6495    1.1250    0.0000 Cl  0  0  0  0  0  0  0  0  0  0  0  0
   -1.9486    4.8750    0.0000 O   0  0  0  0  0  0  0  0  0  0  0  0
   -3.2476    2.6250    0.0000 O   0  0  0  0  0  0  0  0  0  0  0  0
  3  1  1  0
  4  3  1  0
  5  4  1  0
  6  4  1  0
  7  5  2  0
  8  2  1  0
  8  5  1  0
M  END
>  <NAME>  (5679) 
ALPHA-CHLORO-N-BUTYRIC ACID METHYL ESTER

>  <SYNONYMS>  (5679) 


>  <SPECTRUM TYPE>  (5679) 
MS1

>  <INSTRUMENT TYPE>  (5679) 
EI-B

>  <INSTRUMENT>  (5679) 
JEOL JMS-01-SG

>  <ION MODE>  (5679) 
P

>  <INCHIKEY>  (5679) 
BHQQXAOBIZQEGI-UHFFFAOYSA-N

>  <FORMULA>  (5679) 
C5H9ClO2

>  <EXACT MASS>  (5679) 
136.029107208

>  <MW>  (5679) 
136

>  <ID>  (5679) 
JP002630

>  <CONTRIBUTOR>  (5679) 
University of Tokyo Team, {Faculty of Engineering, University of Tokyo

>  <COMMENT>  (5679) 
SMILES=CCC(Cl)C(=O)OC
InChI=InChI=1S/C5H9ClO2/c1-3-4(6)5(7)8-2/h4H,3H2,1-2H3
computed SMILES=O=C(OC)C(Cl)CC
accession=JP002630
date=2016.01.19 (Created 2008.10.21, modified 2011.05.06)
author=KOGA M, UNIV. OF OCCUPATIONAL AND ENVIRONMENTAL HEALTH
license=CC BY-NC-SA
exact mass=136.02911
ionization energy=70 eV
ion type=[M]+*
computed spectral entropy=2.4232661248954335
computed normalized entropy=0.7437674410860123
SPLASH=splash10-0a4i-9300000000-f3df95bdab2e213008d8
submitter=submitter = University of Tokyo Team (Faculty of Engineering, University of Tokyo)
MoNA Rating=3.75

>  <NUM PEAKS>  (5679) 
26

>  <MASS SPECTRAL PEAKS>  (5679) 
41 7.5
43 3.8
44 5.4
45 1.62
49 8.6
51 3.6
55 13
56 0.29
57 8.4
59 99.99
60 6.4
61 0.25
62 2.7
63 4.5
65 2.7
69 1.62
70 2.9
74 8.2
76 11.2
77 4.43
78 4.8
79 13.2
101 10.9
108 53.3
109 0.38
110 17.8

$$$$

     RDKit          2D

  8  7  0  0  0  0  0  0  0  0999 V2000
   -3.5724    3.9375    0.0000 C   0  0  0  0  0  0  0  0  0  0  0  0
    2.9228    3.1875    0.0000 C   0  0  0  0  0  0  0  0  0  0  0  0
   -0.9743    3.9375    0.0000 C   0  0  0  0  0  0  0  0  0  0  0  0
   -2.2733    3.1875    0.0000 C   0  0  0  0  0  0  0  0  0  0  0  0
    0.3248    3.1875    0.0000 C   0  0  0  0  0  0  0  0  0  0  0  0
   -2.2733    1.6875    0.0000 Cl  0  0  0  0  0  0  0  0  0  0  0  0
    0.3248    1.6875    0.0000 O   0  0  0  0  0  0  0  0  0  0  0  0
    1.6238    3.9375    0.0000 O   0  0  0  0  0  0  0  0  0  0  0  0
  4  1  1  0
  4  3  1  0
  5  3  1  0
  6  4  1  0
  7  5  2  0
  8  2  1  0
  8  5  1  0
M  END
>  <NAME>  (5680) 
BETA-CHLORO-N-BUTYRIC ACID METHYL ESTER

>  <SYNONYMS>  (5680) 


>  <SPECTRUM TYPE>  (5680) 
MS1

>  <INSTRUMENT TYPE>  (5680) 
EI-B

>  <INSTRUMENT>  (5680) 
JEOL JMS-01-SG

>  <ION MODE>  (5680) 
P

>  <INCHIKEY>  (5680) 
HDQHWBXUKZBPDN-UHFFFAOYSA-N

>  <FORMULA>  (5680) 
C5H9ClO2

>  <EXACT MASS>  (5680) 
136.029107208

>  <MW>  (5680) 
136

>  <ID>  (5680) 
JP002629

>  <CONTRIBUTOR>  (5680) 
University of Tokyo Team, {Faculty of Engineering, University of Tokyo

>  <COMMENT>  (5680) 
SMILES=COC(=O)CC(C)Cl
InChI=InChI=1S/C5H9ClO2/c1-4(6)3-5(7)8-2/h4H,3H2,1-2H3
computed SMILES=O=C(OC)CC(Cl)C
accession=JP002629
date=2016.01.19 (Created 2008.10.21, modified 2011.05.06)
author=KOGA M, UNIV. OF OCCUPATIONAL AND ENVIRONMENTAL HEALTH
license=CC BY-NC-SA
exact mass=136.02911
ionization energy=70 eV
ion type=[M]+*
computed spectral entropy=2.0538351333950966
computed normalized entropy=0.7584184120955957
SPLASH=splash10-0pb9-9500000000-14f944016ede404f2132
submitter=submitter = University of Tokyo Team (Faculty of Engineering, University of Tokyo)
MoNA Rating=3.75

>  <NUM PEAKS>  (5680) 
15

>  <MASS SPECTRAL PEAKS>  (5680) 
42 21.6
51 5.6
58 8.8
59 99.99
63 10.4
69 17.6
71 5.6
72 0.8
77 44.8
79 15.2
85 1.6
100 0.88
101 99.2
105 24.8
107 8.8

$$$$

     RDKit          2D

 13 13  0  0  0  0  0  0  0  0999 V2000
    3.8981   -0.7504    0.0000 C   0  0  0  0  0  0  0  0  0  0  0  0
    2.5987   -3.0002    0.0000 C   0  0  0  0  0  0  0  0  0  0  0  0
   -5.1970    1.5006    0.0000 C   0  0  0  0  0  0  0  0  0  0  0  0
   -1.3000   -0.7500    0.0000 C   0  0  0  0  0  0  0  0  0  0  0  0
    0.0000    1.5000    0.0000 C   0  0  0  0  0  0  0  0  0  0  0  0
    0.0000   -1.5000    0.0000 C   0  0  0  0  0  0  0  0  0  0  0  0
    1.3000    0.7500    0.0000 C   0  0  0  0  0  0  0  0  0  0  0  0
   -1.3000    0.7500    0.0000 C   0  0  0  0  0  0  0  0  0  0  0  0
    1.3000   -0.7500    0.0000 C   0  0  0  0  0  0  0  0  0  0  0  0
   -2.5989    1.5002    0.0000 C   0  0  0  0  0  0  0  0  0  0  0  0
    2.5989   -1.5002    0.0000 N   0  0  0  0  0  0  0  0  0  0  0  0
   -2.5987    3.0002    0.0000 O   0  0  0  0  0  0  0  0  0  0  0  0
   -3.8981    0.7504    0.0000 O   0  0  0  0  0  0  0  0  0  0  0  0
  6  4  2  0
  7  5  1  0
  8  4  1  0
  8  5  2  0
  9  6  1  0
  9  7  2  0
 10  8  1  0
 11  1  1  0
 11  2  1  0
 11  9  1  0
 12 10  2  0
 13  3  1  0
 13 10  1  0
M  END
>  <NAME>  (5681) 
4-DIMETHYLAMINOBENZOIC ACID METHYL ESTER

>  <SYNONYMS>  (5681) 


>  <SPECTRUM TYPE>  (5681) 
MS1

>  <INSTRUMENT TYPE>  (5681) 
EI-B

>  <INSTRUMENT>  (5681) 
JEOL JMS-01-SG

>  <ION MODE>  (5681) 
P

>  <INCHIKEY>  (5681) 
DBQGARDMYOMOOS-UHFFFAOYSA-N

>  <FORMULA>  (5681) 
C10H13NO2

>  <EXACT MASS>  (5681) 
179.094628656

>  <MW>  (5681) 
179

>  <ID>  (5681) 
JP002628

>  <CONTRIBUTOR>  (5681) 
University of Tokyo Team, {Faculty of Engineering, University of Tokyo

>  <COMMENT>  (5681) 
SMILES=COC(=O)c(c1)ccc(N(C)C)c1
InChI=InChI=1S/C10H13NO2/c1-11(2)9-6-4-8(5-7-9)10(12)13-3/h4-7H,1-3H3
computed SMILES=O=C(OC)C1=CC=C(C=C1)N(C)C
accession=JP002628
date=2016.01.19 (Created 2008.10.21, modified 2011.05.06)
author=KOGA M, UNIV. OF OCCUPATIONAL AND ENVIRONMENTAL HEALTH
license=CC BY-NC-SA
exact mass=179.09463
ionization energy=70 eV
ion type=[M]+*
computed spectral entropy=2.2384826239511115
computed normalized entropy=0.7139169999354554
SPLASH=splash10-004j-2900000000-b9646fb901e41ccd02db
submitter=submitter = University of Tokyo Team (Faculty of Engineering, University of Tokyo)
MoNA Rating=3.75

>  <NUM PEAKS>  (5681) 
23

>  <MASS SPECTRAL PEAKS>  (5681) 
39 9.6
42 7.2
50 4.8
51 1.68
63 4
74 13.6
77 28
78 1.04
79 4.8
91 4.8
92 4
104 0.96
105 11.2
118 5.6
119 4.8
120 0.56
132 6.4
134 4
148 99.99
149 0.56
178 47.2
179 87.2
180 5.6

$$$$

     RDKit          2D

 11 11  0  0  0  0  0  0  0  0999 V2000
    2.1296   -1.8529    0.0000 C   0  0  0  0  0  0  0  0  0  0  0  0
   -1.7652    0.4011    0.0000 C   0  0  0  0  0  0  0  0  0  0  0  0
    5.0626    2.1944    0.0000 C   0  0  0  0  0  0  0  0  0  0  0  0
    3.5954    1.8825    0.0000 C   0  0  0  0  0  0  0  0  0  0  0  0
    5.8078    0.9010    0.0000 C   0  0  0  0  0  0  0  0  0  0  0  0
    2.1311   -0.3529    0.0000 C   0  0  0  0  0  0  0  0  0  0  0  0
    3.4309    0.3958    0.0000 C   0  0  0  0  0  0  0  0  0  0  0  0
    0.8328    0.3985    0.0000 C   0  0  0  0  0  0  0  0  0  0  0  0
    0.8344    1.8985    0.0000 O   0  0  0  0  0  0  0  0  0  0  0  0
   -0.4670   -0.3502    0.0000 O   0  0  0  0  0  0  0  0  0  0  0  0
    4.8072   -0.2113    0.0000 O   0  0  0  0  0  0  0  0  0  0  0  0
  4  3  1  0
  5  3  2  0
  6  1  2  0
  7  4  2  0
  7  6  1  0
  8  6  1  0
  9  8  2  0
 10  2  1  0
 10  8  1  0
 11  5  1  0
 11  7  1  0
M  END
>  <NAME>  (5682) 
2-(2-FURYL)ACRYLIC ACID METHYL ESTER

>  <SYNONYMS>  (5682) 


>  <SPECTRUM TYPE>  (5682) 
MS1

>  <INSTRUMENT TYPE>  (5682) 
EI-B

>  <INSTRUMENT>  (5682) 
JEOL JMS-01-SG

>  <ION MODE>  (5682) 
P

>  <INCHIKEY>  (5682) 
IVLQYNGAWMWRCK-UHFFFAOYSA-N

>  <FORMULA>  (5682) 
C8H8O3

>  <EXACT MASS>  (5682) 
152.04734411599998

>  <MW>  (5682) 
152

>  <ID>  (5682) 
JP002626

>  <CONTRIBUTOR>  (5682) 
University of Tokyo Team, {Faculty of Engineering, University of Tokyo

>  <COMMENT>  (5682) 
SMILES=COC(=O)C(=C)c(c1)occ1
InChI=InChI=1S/C8H8O3/c1-6(8(9)10-2)7-4-3-5-11-7/h3-5H,1H2,2H3
computed SMILES=O=C(OC)C(=C)C=1OC=CC1
accession=JP002626
date=2016.01.19 (Created 2008.10.21, modified 2011.05.06)
author=KOGA M, UNIV. OF OCCUPATIONAL AND ENVIRONMENTAL HEALTH
license=CC BY-NC-SA
exact mass=152.04734
ionization energy=70 eV
ion type=[M]+*
computed spectral entropy=2.308551927675429
computed normalized entropy=0.7264042873127419
SPLASH=splash10-0g4i-6900000000-4a0ffea23242f38f8b19
submitter=submitter = University of Tokyo Team (Faculty of Engineering, University of Tokyo)
MoNA Rating=3.75

>  <NUM PEAKS>  (5682) 
24

>  <MASS SPECTRAL PEAKS>  (5682) 
42 5.6
53 4.9
59 2.5
62 0.49
63 13.1
64 5.6
65 53
66 0.58
77 3.5
78 11.7
79 5.3
81 0.51
92 8.6
93 14.3
94 6.5
107 0.42
108 9.6
109 10.3
121 99.99
122 0.93
123 3
124 7.2
152 65.2
153 4.9

$$$$

     RDKit          2D

  8  7  0  0  0  0  0  0  0  0999 V2000
    1.9486    3.3750    0.0000 C   0  0  0  0  0  0  0  0  0  0  0  0
   -3.2476    3.3750    0.0000 C   0  0  0  0  0  0  0  0  0  0  0  0
   -1.9486    4.1250    0.0000 C   0  0  0  0  0  0  0  0  0  0  0  0
   -4.5466    4.1250    0.0000 C   0  0  0  0  0  0  0  0  0  0  0  0
   -0.6495    3.3750    0.0000 C   0  0  0  0  0  0  0  0  0  0  0  0
   -5.8457    3.3750    0.0000 Cl  0  0  0  0  0  0  0  0  0  0  0  0
   -0.6495    1.8750    0.0000 O   0  0  0  0  0  0  0  0  0  0  0  0
    0.6495    4.1250    0.0000 O   0  0  0  0  0  0  0  0  0  0  0  0
  3  2  1  0
  4  2  1  0
  5  3  1  0
  6  4  1  0
  7  5  2  0
  8  1  1  0
  8  5  1  0
M  END
>  <NAME>  (5683) 
GAMMA-CHLORO-N-BUTYRIC ACID METHYL ESTER

>  <SYNONYMS>  (5683) 


>  <SPECTRUM TYPE>  (5683) 
MS1

>  <INSTRUMENT TYPE>  (5683) 
EI-B

>  <INSTRUMENT>  (5683) 
JEOL JMS-01-SG

>  <ION MODE>  (5683) 
P

>  <INCHIKEY>  (5683) 
ZZUYIRISBMWFMV-UHFFFAOYSA-N

>  <FORMULA>  (5683) 
C5H9ClO2

>  <EXACT MASS>  (5683) 
136.029107208

>  <MW>  (5683) 
136

>  <ID>  (5683) 
JP002625

>  <CONTRIBUTOR>  (5683) 
University of Tokyo Team, {Faculty of Engineering, University of Tokyo

>  <COMMENT>  (5683) 
SMILES=COC(=O)CCCCl
InChI=InChI=1S/C5H9ClO2/c1-8-5(7)3-2-4-6/h2-4H2,1H3
computed SMILES=O=C(OC)CCCCl
accession=JP002625
date=2016.01.19 (Created 2008.10.21, modified 2011.05.06)
author=KOGA M, UNIV. OF OCCUPATIONAL AND ENVIRONMENTAL HEALTH
license=CC BY-NC-SA
exact mass=136.02911
ionization energy=70 eV
ion type=[M]+*
computed spectral entropy=2.1814878787583423
computed normalized entropy=0.7699695059445045
SPLASH=splash10-0a4i-9400000000-0ba1698874baf8327ca1
submitter=submitter = University of Tokyo Team (Faculty of Engineering, University of Tokyo)
MoNA Rating=3.75

>  <NUM PEAKS>  (5683) 
17

>  <MASS SPECTRAL PEAKS>  (5683) 
39 15.6
41 9.4
42 10.6
49 1.73
51 3.9
55 12.2
59 66.4
60 0.67
69 4.4
74 84.3
75 17.8
76 0.33
77 48
79 13.9
105 99.99
106 0.39
107 32.4

$$$$

     RDKit          2D

  9  8  0  0  0  0  0  0  0  0999 V2000
   -6.4952    4.5000    0.0000 C   0  0  0  0  0  0  0  0  0  0  0  0
    2.5981    3.7500    0.0000 C   0  0  0  0  0  0  0  0  0  0  0  0
   -5.1962    3.7500    0.0000 C   0  0  0  0  0  0  0  0  0  0  0  0
   -1.2990    4.5000    0.0000 C   0  0  0  0  0  0  0  0  0  0  0  0
   -2.5981    3.7500    0.0000 C   0  0  0  0  0  0  0  0  0  0  0  0
    0.0000    3.7500    0.0000 C   0  0  0  0  0  0  0  0  0  0  0  0
   -0.0000    2.2500    0.0000 O   0  0  0  0  0  0  0  0  0  0  0  0
    1.2990    4.5000    0.0000 O   0  0  0  0  0  0  0  0  0  0  0  0
   -3.8971    4.5000    0.0000 O   0  0  0  0  0  0  0  0  0  0  0  0
  3  1  1  0
  5  4  1  0
  6  4  1  0
  7  6  2  0
  8  2  1  0
  8  6  1  0
  9  3  1  0
  9  5  1  0
M  END
>  <NAME>  (5684) 
BETA-ETHOXYPROPIONIC ACID METHYL ESTER

>  <SYNONYMS>  (5684) 


>  <SPECTRUM TYPE>  (5684) 
MS1

>  <INSTRUMENT TYPE>  (5684) 
EI-B

>  <INSTRUMENT>  (5684) 
JEOL JMS-01-SG

>  <ION MODE>  (5684) 
P

>  <INCHIKEY>  (5684) 
HSDFKDZBJMDHFF-UHFFFAOYSA-N

>  <FORMULA>  (5684) 
C6H12O3

>  <EXACT MASS>  (5684) 
132.078644244

>  <MW>  (5684) 
132

>  <ID>  (5684) 
JP002624

>  <CONTRIBUTOR>  (5684) 
University of Tokyo Team, {Faculty of Engineering, University of Tokyo

>  <COMMENT>  (5684) 
SMILES=CCOCCC(=O)OC
InChI=InChI=1S/C6H12O3/c1-3-9-5-4-6(7)8-2/h3-5H2,1-2H3
computed SMILES=O=C(OC)CCOCC
accession=JP002624
date=2016.01.19 (Created 2008.10.21, modified 2011.05.06)
author=KOGA M, UNIV. OF OCCUPATIONAL AND ENVIRONMENTAL HEALTH
license=CC BY-NC-SA
exact mass=132.07864
ionization energy=70 eV
ion type=[M]+*
computed spectral entropy=2.3674486662782432
computed normalized entropy=0.8190810264495024
SPLASH=splash10-0a4r-9100000000-fd8680b050ecc7bd79ee
submitter=submitter = University of Tokyo Team (Faculty of Engineering, University of Tokyo)
MoNA Rating=3.75

>  <NUM PEAKS>  (5684) 
18

>  <MASS SPECTRAL PEAKS>  (5684) 
41 9.9
42 12.7
44 30.5
55 2.26
56 5.4
57 26.8
58 4.4
59 99.99
60 10.9
61 21.6
71 57.7
72 2.09
87 30.5
88 67.3
89 4.1
101 3.57
103 54.9
104 3.7

$$$$

     RDKit          2D

 13 12  0  0  0  0  0  0  0  0999 V2000
   -3.5623    3.3509    0.0000 C   0  0  0  0  0  0  0  0  0  0  0  0
   -1.6339    3.3509    0.0000 C   0  0  0  0  0  0  0  0  0  0  0  0
    2.5981    4.5000    0.0000 C   0  0  0  0  0  0  0  0  0  0  0  0
   -7.7942    4.5000    0.0000 C   0  0  0  0  0  0  0  0  0  0  0  0
   -1.2990    5.2500    0.0000 C   0  0  0  0  0  0  0  0  0  0  0  0
   -3.8971    5.2500    0.0000 C   0  0  0  0  0  0  0  0  0  0  0  0
    0.0000    4.5000    0.0000 C   0  0  0  0  0  0  0  0  0  0  0  0
   -5.1962    4.5000    0.0000 C   0  0  0  0  0  0  0  0  0  0  0  0
   -2.5981    4.5000    0.0000 C   0  0  0  0  0  0  0  0  0  0  0  0
    0.0000    3.0000    0.0000 O   0  0  0  0  0  0  0  0  0  0  0  0
   -5.1962    3.0000    0.0000 O   0  0  0  0  0  0  0  0  0  0  0  0
    1.2990    5.2500    0.0000 O   0  0  0  0  0  0  0  0  0  0  0  0
   -6.4952    5.2500    0.0000 O   0  0  0  0  0  0  0  0  0  0  0  0
  7  5  1  0
  8  6  1  0
  9  1  1  0
  9  2  1  0
  9  5  1  0
  9  6  1  0
 10  7  2  0
 11  8  2  0
 12  3  1  0
 12  7  1  0
 13  4  1  0
 13  8  1  0
M  END
>  <NAME>  (5685) 
3,3-DIMETHYLGLUTARIC ACID DIMETHYL ESTER

>  <SYNONYMS>  (5685) 


>  <SPECTRUM TYPE>  (5685) 
MS1

>  <INSTRUMENT TYPE>  (5685) 
EI-B

>  <INSTRUMENT>  (5685) 
JEOL JMS-01-SG

>  <ION MODE>  (5685) 
P

>  <INCHIKEY>  (5685) 
NPEAPWIQJBAJIO-UHFFFAOYSA-N

>  <FORMULA>  (5685) 
C9H16O4

>  <EXACT MASS>  (5685) 
188.104858992

>  <MW>  (5685) 
188

>  <ID>  (5685) 
JP002623

>  <CONTRIBUTOR>  (5685) 
University of Tokyo Team, {Faculty of Engineering, University of Tokyo

>  <COMMENT>  (5685) 
SMILES=COC(=O)CC(C)(C)CC(=O)OC
InChI=InChI=1S/C9H16O4/c1-9(2,5-7(10)12-3)6-8(11)13-4/h5-6H2,1-4H3
computed SMILES=O=C(OC)CC(C)(C)CC(=O)OC
accession=JP002623
date=2016.01.19 (Created 2008.10.21, modified 2011.05.06)
author=KOGA M, UNIV. OF OCCUPATIONAL AND ENVIRONMENTAL HEALTH
license=CC BY-NC-SA
exact mass=188.10486
ionization energy=70 eV
ion type=[M]+*
computed spectral entropy=2.651124543928575
computed normalized entropy=0.7873156021279022
SPLASH=splash10-060r-9400000000-96c136a2cf1c2810d74f
submitter=submitter = University of Tokyo Team (Faculty of Engineering, University of Tokyo)
MoNA Rating=3.75

>  <NUM PEAKS>  (5685) 
29

>  <MASS SPECTRAL PEAKS>  (5685) 
41 3.1
42 11.6
44 3.2
53 0.56
55 43.4
56 10.6
59 29.8
68 0.32
69 14.5
71 3.4
73 99.99
74 2.79
81 5.8
82 5.8
83 60
87 0.65
96 6.7
97 9.1
109 9.4
113 1.33
114 7.7
115 68.6
116 4.4
128 4.08
129 12.9
141 21.3
156 15.8
157 4.63
158 3.2

$$$$

     RDKit          2D

  9  8  0  0  0  0  0  0  0  0999 V2000
   -6.4952    4.5000    0.0000 C   0  0  0  0  0  0  0  0  0  0  0  0
    2.5981    3.7500    0.0000 C   0  0  0  0  0  0  0  0  0  0  0  0
   -5.1962    3.7500    0.0000 C   0  0  0  0  0  0  0  0  0  0  0  0
   -3.8971    4.5000    0.0000 C   0  0  0  0  0  0  0  0  0  0  0  0
   -2.5981    3.7500    0.0000 C   0  0  0  0  0  0  0  0  0  0  0  0
   -1.2990    4.5000    0.0000 C   0  0  0  0  0  0  0  0  0  0  0  0
    0.0000    3.7500    0.0000 C   0  0  0  0  0  0  0  0  0  0  0  0
   -0.0000    2.2500    0.0000 O   0  0  0  0  0  0  0  0  0  0  0  0
    1.2990    4.5000    0.0000 O   0  0  0  0  0  0  0  0  0  0  0  0
  3  1  1  0
  3  4  2  0
  5  4  1  0
  5  6  2  0
  7  6  1  0
  8  7  2  0
  9  2  1  0
  9  7  1  0
M  END
>  <NAME>  (5686) 
2,4-HEXADIENOIC ACID METHYL ESTER

>  <SYNONYMS>  (5686) 


>  <SPECTRUM TYPE>  (5686) 
MS1

>  <INSTRUMENT TYPE>  (5686) 
EI-B

>  <INSTRUMENT>  (5686) 
JEOL JMS-01-SG

>  <ION MODE>  (5686) 
P

>  <INCHIKEY>  (5686) 
KWKVAGQCDSHWFK-VNKDHWASSA-N

>  <FORMULA>  (5686) 
C7H10O2

>  <EXACT MASS>  (5686) 
126.06807956

>  <MW>  (5686) 
126

>  <ID>  (5686) 
JP002622

>  <CONTRIBUTOR>  (5686) 
University of Tokyo Team, {Faculty of Engineering, University of Tokyo

>  <COMMENT>  (5686) 
SMILES=CC=CC=CC(=O)OC
InChI=InChI=1S/C7H10O2/c1-3-4-5-6-7(8)9-2/h3-6H,1-2H3/b4-3+,6-5+
computed SMILES=O=C(OC)C=CC=CC
accession=JP002622
date=2016.01.19 (Created 2008.10.21, modified 2011.05.06)
author=KOGA M, UNIV. OF OCCUPATIONAL AND ENVIRONMENTAL HEALTH
license=CC BY-NC-SA
exact mass=126.06808
ionization energy=70 eV
ion type=[M]+*
computed spectral entropy=2.220716933518853
computed normalized entropy=0.6737945547077742
SPLASH=splash10-02t9-9600000000-644e86a7cf81a828f04e
submitter=submitter = University of Tokyo Team (Faculty of Engineering, University of Tokyo)
MoNA Rating=3.75

>  <NUM PEAKS>  (5686) 
27

>  <MASS SPECTRAL PEAKS>  (5686) 
50 3.2
51 5.7
52 2.4
53 0.54
55 3.5
59 8.1
62 2.4
63 0.4
65 24.4
66 35
67 99.99
68 0.84
69 2.1
72 3.2
79 2.1
81 0.21
83 6.5
93 2.1
94 3.2
95 8.15
96 5.7
97 2.4
111 97.2
112 0.62
125 5.1
126 52.9
127 4

$$$$

     RDKit          2D

 13 13  0  0  0  0  0  0  0  0999 V2000
   -3.2563    1.8680    0.0000 C   0  0  0  0  0  0  0  0  0  0  0  0
   -1.9576   -0.3822    0.0000 C   0  0  0  0  0  0  0  0  0  0  0  0
    5.8387    1.1249    0.0000 C   0  0  0  0  0  0  0  0  0  0  0  0
    0.6368    4.1106    0.0000 C   0  0  0  0  0  0  0  0  0  0  0  0
    1.9358    3.3606    0.0000 C   0  0  0  0  0  0  0  0  0  0  0  0
   -0.6577    3.3684    0.0000 C   0  0  0  0  0  0  0  0  0  0  0  0
    0.6408    1.1176    0.0000 C   0  0  0  0  0  0  0  0  0  0  0  0
    1.9404    1.8684    0.0000 C   0  0  0  0  0  0  0  0  0  0  0  0
   -0.6582    1.8676    0.0000 C   0  0  0  0  0  0  0  0  0  0  0  0
    3.2407    1.1206    0.0000 C   0  0  0  0  0  0  0  0  0  0  0  0
   -1.9574    1.1178    0.0000 N   0  0  0  0  0  0  0  0  0  0  0  0
    3.2432   -0.3794    0.0000 O   0  0  0  0  0  0  0  0  0  0  0  0
    4.5384    1.8728    0.0000 O   0  0  0  0  0  0  0  0  0  0  0  0
  5  4  2  0
  6  4  1  0
  8  5  1  0
  8  7  2  0
  9  6  2  0
  9  7  1  0
 10  8  1  0
 11  1  1  0
 11  2  1  0
 11  9  1  0
 12 10  2  0
 13  3  1  0
 13 10  1  0
M  END
>  <NAME>  (5687) 
3-DIMETHYLAMINOBENZOIC ACID METHYL ESTER

>  <SYNONYMS>  (5687) 


>  <SPECTRUM TYPE>  (5687) 
MS1

>  <INSTRUMENT TYPE>  (5687) 
EI-B

>  <INSTRUMENT>  (5687) 
JEOL JMS-01-SG

>  <ION MODE>  (5687) 
P

>  <INCHIKEY>  (5687) 
CABFTHPIDKWPNQ-UHFFFAOYSA-N

>  <FORMULA>  (5687) 
C10H13NO2

>  <EXACT MASS>  (5687) 
179.094628656

>  <MW>  (5687) 
179

>  <ID>  (5687) 
JP002621

>  <CONTRIBUTOR>  (5687) 
University of Tokyo Team, {Faculty of Engineering, University of Tokyo

>  <COMMENT>  (5687) 
SMILES=COC(=O)c(c1)cc(cc1)N(C)C
InChI=InChI=1S/C10H13NO2/c1-11(2)9-6-4-5-8(7-9)10(12)13-3/h4-7H,1-3H3
computed SMILES=O=C(OC)C1=CC=CC(=C1)N(C)C
accession=JP002621
date=2016.01.19 (Created 2008.10.21, modified 2011.05.06)
author=KOGA M, UNIV. OF OCCUPATIONAL AND ENVIRONMENTAL HEALTH
license=CC BY-NC-SA
exact mass=179.09463
ionization energy=70 eV
ion type=[M]+*
computed spectral entropy=2.4548665565145495
computed normalized entropy=0.7290320424637031
SPLASH=splash10-004i-3900000000-32ec3a722f093ab92c1b
submitter=submitter = University of Tokyo Team (Faculty of Engineering, University of Tokyo)
MoNA Rating=3.75

>  <NUM PEAKS>  (5687) 
29

>  <MASS SPECTRAL PEAKS>  (5687) 
42 6.3
50 4.1
51 4.8
59 0.33
63 4.8
65 2.6
74 11.2
75 0.26
76 2.9
77 13.8
78 4.8
79 0.44
91 4.4
92 2.9
104 7.1
105 0.52
106 5.6
118 8.9
119 4.1
120 1.61
121 3.7
132 4.1
148 11.2
163 0.26
164 2.9
165 7.4
178 99.99
179 8.65
180 8.9

$$$$

     RDKit          2D

 15 16  0  0  0  0  0  0  0  0999 V2000
    2.5990    5.2500    0.0000 C   0  0  0  0  0  0  0  0  0  0  0  0
   -2.6000   -0.7500    0.0000 C   0  0  0  0  0  0  0  0  0  0  0  0
   -2.6000    0.7500    0.0000 C   0  0  0  0  0  0  0  0  0  0  0  0
   -1.3000   -1.5000    0.0000 C   0  0  0  0  0  0  0  0  0  0  0  0
   -1.3000    1.5000    0.0000 C   0  0  0  0  0  0  0  0  0  0  0  0
    1.3000   -1.5000    0.0000 C   0  0  0  0  0  0  0  0  0  0  0  0
    2.6000   -0.7500    0.0000 C   0  0  0  0  0  0  0  0  0  0  0  0
    0.0000   -0.7500    0.0000 C   0  0  0  0  0  0  0  0  0  0  0  0
    0.0000    0.7500    0.0000 C   0  0  0  0  0  0  0  0  0  0  0  0
    2.6000    0.7500    0.0000 C   0  0  0  0  0  0  0  0  0  0  0  0
    1.3000    1.5000    0.0000 C   0  0  0  0  0  0  0  0  0  0  0  0
    1.3000    3.0000    0.0000 C   0  0  0  0  0  0  0  0  0  0  0  0
    3.8989    1.5002    0.0000 O   0  0  0  0  0  0  0  0  0  0  0  0
    0.0010    3.7500    0.0000 O   0  0  0  0  0  0  0  0  0  0  0  0
    2.5990    3.7500    0.0000 O   0  0  0  0  0  0  0  0  0  0  0  0
  3  2  2  0
  4  2  1  0
  5  3  1  0
  7  6  2  0
  8  4  2  0
  8  6  1  0
  9  5  2  0
  9  8  1  0
 10  7  1  0
 11  9  1  0
 11 10  2  0
 12 11  1  0
 13 10  1  0
 14 12  2  0
 15  1  1  0
 15 12  1  0
M  END
>  <NAME>  (5688) 
2-HYDROXY-1-NAPHTHOIC ACID METHYL ESTER

>  <SYNONYMS>  (5688) 


>  <SPECTRUM TYPE>  (5688) 
MS1

>  <INSTRUMENT TYPE>  (5688) 
EI-B

>  <INSTRUMENT>  (5688) 
JEOL JMS-01-SG

>  <ION MODE>  (5688) 
P

>  <INCHIKEY>  (5688) 
LEENMPKUUNPLHM-UHFFFAOYSA-N

>  <FORMULA>  (5688) 
C12H10O3

>  <EXACT MASS>  (5688) 
202.06299417999998

>  <MW>  (5688) 
202

>  <ID>  (5688) 
JP002620

>  <CONTRIBUTOR>  (5688) 
University of Tokyo Team, {Faculty of Engineering, University of Tokyo

>  <COMMENT>  (5688) 
SMILES=COC(=O)c(c(O)1)c(c2)c(ccc2)cc1
InChI=InChI=1S/C12H10O3/c1-15-12(14)11-9-5-3-2-4-8(9)6-7-10(11)13/h2-7,13H,1H3
computed SMILES=O=C(OC)C1=C(O)C=CC=2C=CC=CC21
accession=JP002620
date=2016.01.19 (Created 2008.10.21, modified 2011.05.06)
author=KOGA M, UNIV. OF OCCUPATIONAL AND ENVIRONMENTAL HEALTH
license=CC BY-NC-SA
exact mass=202.06299
ionization energy=70 eV
ion type=[M]+*
computed spectral entropy=2.3621682740672827
computed normalized entropy=0.7533639392689152
SPLASH=splash10-00dl-2910000000-277da7e8c2e07e24935d
submitter=submitter = University of Tokyo Team (Faculty of Engineering, University of Tokyo)
MoNA Rating=3.75

>  <NUM PEAKS>  (5688) 
23

>  <MASS SPECTRAL PEAKS>  (5688) 
44 21.5
51 7.5
62 2.6
63 1.32
65 4.1
71 2.2
72 4.1
77 0.64
87 2.2
88 3.7
89 8.3
113 0.67
114 39.2
115 39.6
116 6.7
142 2.71
143 4.9
144 44.5
145 3
170 99.99
171 20.3
202 30.1
203 1.8

$$$$

     RDKit          2D

 16 17  0  0  0  0  0  0  0  0999 V2000
   -0.4734    3.3757    0.0000 C   0  0  0  0  0  0  0  0  0  0  0  0
    6.0441    1.1454    0.0000 C   0  0  0  0  0  0  0  0  0  0  0  0
   -3.0200   -1.1200    0.0000 C   0  0  0  0  0  0  0  0  0  0  0  0
   -3.0200    0.3600    0.0000 C   0  0  0  0  0  0  0  0  0  0  0  0
   -1.7200   -1.8800    0.0000 C   0  0  0  0  0  0  0  0  0  0  0  0
   -1.7500    1.1100    0.0000 C   0  0  0  0  0  0  0  0  0  0  0  0
    0.8800   -1.8800    0.0000 C   0  0  0  0  0  0  0  0  0  0  0  0
    2.1700   -1.1200    0.0000 C   0  0  0  0  0  0  0  0  0  0  0  0
   -0.4200   -1.1200    0.0000 C   0  0  0  0  0  0  0  0  0  0  0  0
   -0.4200    0.3600    0.0000 C   0  0  0  0  0  0  0  0  0  0  0  0
    2.1500    0.3800    0.0000 C   0  0  0  0  0  0  0  0  0  0  0  0
    0.8500    1.1400    0.0000 C   0  0  0  0  0  0  0  0  0  0  0  0
    3.4461    1.1351    0.0000 C   0  0  0  0  0  0  0  0  0  0  0  0
    3.4401    2.6351    0.0000 O   0  0  0  0  0  0  0  0  0  0  0  0
    0.8337    2.6399    0.0000 O   0  0  0  0  0  0  0  0  0  0  0  0
    4.7481    0.3903    0.0000 O   0  0  0  0  0  0  0  0  0  0  0  0
  4  3  2  0
  5  3  1  0
  6  4  1  0
  8  7  2  0
  9  5  2  0
  9  7  1  0
 10  6  2  0
 10  9  1  0
 11  8  1  0
 12 10  1  0
 12 11  2  0
 13 11  1  0
 14 13  2  0
 15  1  1  0
 15 12  1  0
 16  2  1  0
 16 13  1  0
M  END
>  <NAME>  (5689) 
1-METHOXY-2-NAPHTHOIC ACID METHYL ESTER

>  <SYNONYMS>  (5689) 


>  <SPECTRUM TYPE>  (5689) 
MS1

>  <INSTRUMENT TYPE>  (5689) 
EI-B

>  <INSTRUMENT>  (5689) 
JEOL JMS-01-SG

>  <ION MODE>  (5689) 
P

>  <INCHIKEY>  (5689) 
IKYRLYKWULPUNA-UHFFFAOYSA-N

>  <FORMULA>  (5689) 
C13H12O3

>  <EXACT MASS>  (5689) 
216.07864424399997

>  <MW>  (5689) 
216

>  <ID>  (5689) 
JP002619

>  <CONTRIBUTOR>  (5689) 
University of Tokyo Team, {Faculty of Engineering, University of Tokyo

>  <COMMENT>  (5689) 
SMILES=COC(=O)c(c1)c(OC)c(c2)c(ccc2)c1
InChI=InChI=1S/C13H12O3/c1-15-12-10-6-4-3-5-9(10)7-8-11(12)13(14)16-2/h3-8H,1-2H3
computed SMILES=O=C(OC)C=1C=CC=2C=CC=CC2C1OC
accession=JP002619
date=2016.01.19 (Created 2008.10.21, modified 2011.05.06)
author=KOGA M, UNIV. OF OCCUPATIONAL AND ENVIRONMENTAL HEALTH
license=CC BY-NC-SA
exact mass=216.07864
ionization energy=70 eV
ion type=[M]+*
computed spectral entropy=2.736346684820689
computed normalized entropy=0.8398605298793167
SPLASH=splash10-014r-0920000000-2088ad36378be7d246b1
submitter=submitter = University of Tokyo Team (Faculty of Engineering, University of Tokyo)
MoNA Rating=3.75

>  <NUM PEAKS>  (5689) 
26

>  <MASS SPECTRAL PEAKS>  (5689) 
51 7.8
57 11.7
63 13.2
113 1.64
114 53.9
115 26.5
126 7
127 4.29
128 19.5
129 21.8
130 6.2
142 1.48
143 17.1
145 21
155 23.4
156 1.25
157 17.9
170 34.3
171 13.2
183 2.89
184 8.5
185 99.99
186 11.7
187 2.03
216 83.5
217 9.3

$$$$

     RDKit          2D

 12 12  0  0  0  0  0  0  0  0999 V2000
    2.9223    3.1883    0.0000 C   0  0  0  0  0  0  0  0  0  0  0  0
   -3.5733    0.9379    0.0000 C   0  0  0  0  0  0  0  0  0  0  0  0
    1.6239   -2.0632    0.0000 C   0  0  0  0  0  0  0  0  0  0  0  0
    2.9229   -1.3132    0.0000 C   0  0  0  0  0  0  0  0  0  0  0  0
    0.3244   -1.3123    0.0000 C   0  0  0  0  0  0  0  0  0  0  0  0
    2.9224    0.1877    0.0000 C   0  0  0  0  0  0  0  0  0  0  0  0
    0.3239    0.1885    0.0000 C   0  0  0  0  0  0  0  0  0  0  0  0
    1.6229    0.9385    0.0000 C   0  0  0  0  0  0  0  0  0  0  0  0
   -0.9753    0.9383    0.0000 C   0  0  0  0  0  0  0  0  0  0  0  0
   -0.9755    2.4383    0.0000 O   0  0  0  0  0  0  0  0  0  0  0  0
    1.6232    2.4385    0.0000 O   0  0  0  0  0  0  0  0  0  0  0  0
   -2.2742    0.1881    0.0000 O   0  0  0  0  0  0  0  0  0  0  0  0
  4  3  2  0
  5  3  1  0
  6  4  1  0
  7  5  2  0
  8  6  2  0
  8  7  1  0
  9  7  1  0
 10  9  2  0
 11  1  1  0
 11  8  1  0
 12  2  1  0
 12  9  1  0
M  END
>  <NAME>  (5690) 
2-METHOXYBENZOIC ACID METHYL ESTER

>  <SYNONYMS>  (5690) 


>  <SPECTRUM TYPE>  (5690) 
MS1

>  <INSTRUMENT TYPE>  (5690) 
EI-B

>  <INSTRUMENT>  (5690) 
JEOL JMS-01-SG

>  <ION MODE>  (5690) 
P

>  <INCHIKEY>  (5690) 
PFYHAAAQPNMZHO-UHFFFAOYSA-N

>  <FORMULA>  (5690) 
C9H10O3

>  <EXACT MASS>  (5690) 
166.06299417999998

>  <MW>  (5690) 
166

>  <ID>  (5690) 
JP002618

>  <CONTRIBUTOR>  (5690) 
University of Tokyo Team, {Faculty of Engineering, University of Tokyo

>  <COMMENT>  (5690) 
SMILES=COC(=O)c(c1)c(OC)ccc1
InChI=InChI=1S/C9H10O3/c1-11-8-6-4-3-5-7(8)9(10)12-2/h3-6H,1-2H3
computed SMILES=O=C(OC)C=1C=CC=CC1OC
accession=JP002618
date=2016.01.19 (Created 2008.10.21, modified 2011.05.06)
author=KOGA M, UNIV. OF OCCUPATIONAL AND ENVIRONMENTAL HEALTH
license=CC BY-NC-SA
exact mass=166.06299
ionization energy=70 eV
ion type=[M]+*
computed spectral entropy=2.3267386764386355
computed normalized entropy=0.7420644135199422
SPLASH=splash10-000i-5900000000-79de0a7440ed21a87cea
submitter=submitter = University of Tokyo Team (Faculty of Engineering, University of Tokyo)
MoNA Rating=3.75

>  <NUM PEAKS>  (5690) 
23

>  <MASS SPECTRAL PEAKS>  (5690) 
50 6.8
51 7.7
63 12.1
64 1.13
65 3
76 5.6
77 44.5
78 0.58
79 7.4
91 3.4
92 20.3
93 0.3
105 15.5
107 3
120 3.6
133 3.47
134 8.3
135 99.99
136 8.5
137 1.06
151 3
166 34.9
167 3.6

$$$$

     RDKit          2D

 18 20  0  0  0  0  0  0  0  0999 V2000
   -1.2990    5.2500    0.0000 C   0  0  0  0  0  0  0  0  0  0  0  0
    3.9000    0.7500    0.0000 C   0  0  0  0  0  0  0  0  0  0  0  0
   -3.9000    0.7500    0.0000 C   0  0  0  0  0  0  0  0  0  0  0  0
    3.9000   -0.7500    0.0000 C   0  0  0  0  0  0  0  0  0  0  0  0
   -3.9000   -0.7500    0.0000 C   0  0  0  0  0  0  0  0  0  0  0  0
    2.6000    1.5000    0.0000 C   0  0  0  0  0  0  0  0  0  0  0  0
   -2.6000    1.5000    0.0000 C   0  0  0  0  0  0  0  0  0  0  0  0
    2.6000   -1.5000    0.0000 C   0  0  0  0  0  0  0  0  0  0  0  0
   -2.6000   -1.5000    0.0000 C   0  0  0  0  0  0  0  0  0  0  0  0
    1.3000    0.7500    0.0000 C   0  0  0  0  0  0  0  0  0  0  0  0
   -1.3000    0.7500    0.0000 C   0  0  0  0  0  0  0  0  0  0  0  0
    1.3000   -0.7500    0.0000 C   0  0  0  0  0  0  0  0  0  0  0  0
   -1.3000   -0.7500    0.0000 C   0  0  0  0  0  0  0  0  0  0  0  0
    0.0000    1.5000    0.0000 C   0  0  0  0  0  0  0  0  0  0  0  0
    0.0000    3.0000    0.0000 C   0  0  0  0  0  0  0  0  0  0  0  0
    1.2990    3.7500    0.0000 O   0  0  0  0  0  0  0  0  0  0  0  0
   -1.2990    3.7500    0.0000 O   0  0  0  0  0  0  0  0  0  0  0  0
    0.0000   -1.5000    0.0000 O   0  0  0  0  0  0  0  0  0  0  0  0
  4  2  2  0
  5  3  2  0
  6  2  1  0
  7  3  1  0
  8  4  1  0
  9  5  1  0
 10  6  2  0
 11  7  2  0
 12  8  2  0
 12 10  1  0
 13  9  2  0
 13 11  1  0
 14 10  1  0
 14 11  1  0
 15 14  1  0
 16 15  2  0
 17  1  1  0
 17 15  1  0
 18 12  1  0
 18 13  1  0
M  END
>  <NAME>  (5691) 
XANTHENE-9-CARBOXYLIC ACID METHYL ESTER

>  <SYNONYMS>  (5691) 


>  <SPECTRUM TYPE>  (5691) 
MS1

>  <INSTRUMENT TYPE>  (5691) 
EI-B

>  <INSTRUMENT>  (5691) 
JEOL JMS-01-SG

>  <ION MODE>  (5691) 
P

>  <INCHIKEY>  (5691) 
RFHABUQANXJNQS-UHFFFAOYSA-N

>  <FORMULA>  (5691) 
C15H12O3

>  <EXACT MASS>  (5691) 
240.07864424399997

>  <MW>  (5691) 
240

>  <ID>  (5691) 
JP002617

>  <CONTRIBUTOR>  (5691) 
University of Tokyo Team, {Faculty of Engineering, University of Tokyo

>  <COMMENT>  (5691) 
SMILES=COC(=O)C(c21)c(c3)c(ccc3)Oc(cccc2)1
InChI=InChI=1S/C15H12O3/c1-17-15(16)14-10-6-2-4-8-12(10)18-13-9-5-3-7-11(13)14/h2-9,14H,1H3
computed SMILES=O=C(OC)C1C=2C=CC=CC2OC=3C=CC=CC31
accession=JP002617
date=2016.01.19 (Created 2008.10.21, modified 2011.05.06)
author=KOGA M, UNIV. OF OCCUPATIONAL AND ENVIRONMENTAL HEALTH
license=CC BY-NC-SA
exact mass=240.07864
ionization energy=70 eV
ion type=[M]+*
computed spectral entropy=2.6436430071184063
computed normalized entropy=0.7377226275403386
SPLASH=splash10-00kb-4900000000-e7420c3935556dc0680d
submitter=submitter = University of Tokyo Team (Faculty of Engineering, University of Tokyo)
MoNA Rating=3.75

>  <NUM PEAKS>  (5691) 
36

>  <MASS SPECTRAL PEAKS>  (5691) 
50 10.2
51 2.4
53 4.1
61 0.34
62 6.3
63 17.7
64 14.3
65 0.24
67 2.6
69 6.5
70 12.1
75 0.75
76 4.3
84 20.1
85 2.9
87 0.38
88 3.8
89 6.3
92 11.6
93 0.29
98 4.1
105 2.4
113 6.5
114 0.72
119 3.1
129 3.8
138 2.4
139 7.08
140 16.5
167 4.8
168 98.7
169 1.45
195 8
196 99.99
197 27
198 2.6

$$$$

     RDKit          2D

 17 19  0  0  0  0  0  0  0  0999 V2000
   -1.2990    5.5900    0.0000 C   0  0  0  0  0  0  0  0  0  0  0  0
    3.2200   -1.2700    0.0000 C   0  0  0  0  0  0  0  0  0  0  0  0
   -3.2200   -1.2700    0.0000 C   0  0  0  0  0  0  0  0  0  0  0  0
    3.6900    0.1600    0.0000 C   0  0  0  0  0  0  0  0  0  0  0  0
   -3.6800    0.1600    0.0000 C   0  0  0  0  0  0  0  0  0  0  0  0
    1.7500   -1.5800    0.0000 C   0  0  0  0  0  0  0  0  0  0  0  0
   -1.7500   -1.5800    0.0000 C   0  0  0  0  0  0  0  0  0  0  0  0
    2.6800    1.2700    0.0000 C   0  0  0  0  0  0  0  0  0  0  0  0
   -2.6800    1.2700    0.0000 C   0  0  0  0  0  0  0  0  0  0  0  0
    0.7500   -0.4700    0.0000 C   0  0  0  0  0  0  0  0  0  0  0  0
   -0.7500   -0.4700    0.0000 C   0  0  0  0  0  0  0  0  0  0  0  0
    1.2100    0.9600    0.0000 C   0  0  0  0  0  0  0  0  0  0  0  0
   -1.2100    0.9600    0.0000 C   0  0  0  0  0  0  0  0  0  0  0  0
   -0.0000    1.8400    0.0000 C   0  0  0  0  0  0  0  0  0  0  0  0
    0.0000    3.3400    0.0000 C   0  0  0  0  0  0  0  0  0  0  0  0
    1.2990    4.0900    0.0000 O   0  0  0  0  0  0  0  0  0  0  0  0
   -1.2990    4.0900    0.0000 O   0  0  0  0  0  0  0  0  0  0  0  0
  4  2  2  0
  5  3  2  0
  6  2  1  0
  7  3  1  0
  8  4  1  0
  9  5  1  0
 10  6  2  0
 11  7  2  0
 11 10  1  0
 12  8  2  0
 12 10  1  0
 13  9  2  0
 13 11  1  0
 14 12  1  0
 14 13  1  0
 15 14  1  0
 16 15  2  0
 17  1  1  0
 17 15  1  0
M  END
>  <NAME>  (5692) 
9-FLUORENECARBOXYLIC ACID METHYL ESTER

>  <SYNONYMS>  (5692) 


>  <SPECTRUM TYPE>  (5692) 
MS1

>  <INSTRUMENT TYPE>  (5692) 
EI-B

>  <INSTRUMENT>  (5692) 
JEOL JMS-01-SG

>  <ION MODE>  (5692) 
P

>  <INCHIKEY>  (5692) 
LQSPZSGFDFRDBS-UHFFFAOYSA-N

>  <FORMULA>  (5692) 
C15H12O2

>  <EXACT MASS>  (5692) 
224.083729624

>  <MW>  (5692) 
224

>  <ID>  (5692) 
JP002616

>  <CONTRIBUTOR>  (5692) 
University of Tokyo Team, {Faculty of Engineering, University of Tokyo

>  <COMMENT>  (5692) 
SMILES=COC(=O)C(c21)c(c3)c(ccc3)c(cccc2)1
InChI=InChI=1S/C15H12O2/c1-17-15(16)14-12-8-4-2-6-10(12)11-7-3-5-9-13(11)14/h2-9,14H,1H3
computed SMILES=O=C(OC)C1C=2C=CC=CC2C=3C=CC=CC31
accession=JP002616
date=2016.01.19 (Created 2008.10.21, modified 2011.05.06)
author=KOGA M, UNIV. OF OCCUPATIONAL AND ENVIRONMENTAL HEALTH
license=CC BY-NC-SA
exact mass=224.08373
ionization energy=70 eV
ion type=[M]+*
computed spectral entropy=2.757850998334299
computed normalized entropy=0.7581541377267998
SPLASH=splash10-02t9-4900000000-ef3ee41bdb7ea9c736ed
submitter=submitter = University of Tokyo Team (Faculty of Engineering, University of Tokyo)
MoNA Rating=3.75

>  <NUM PEAKS>  (5692) 
38

>  <MASS SPECTRAL PEAKS>  (5692) 
50 7.2
51 6
61 2.2
62 0.6
63 15.2
64 4.1
67 3.6
70 1.74
75 4.9
76 2.4
79 2.4
81 0.49
82 27.4
83 28.8
85 2.2
86 0.41
87 6.9
88 2.2
89 8.5
92 0.44
98 2.4
105 4.1
110 2.2
111 0.22
113 4.7
115 11.3
128 3
137 0.38
138 2.2
139 20.2
140 2.2
162 0.55
163 39
164 33.7
165 99.99
166 3.68
167 34.9
168 4.7

$$$$

     RDKit          2D

  8  7  0  0  0  0  0  0  0  0999 V2000
    1.1209    2.2500    0.0000 C   0  0  0  0  0  0  0  0  0  0  0  0
   -4.0753    2.2500    0.0000 C   0  0  0  0  0  0  0  0  0  0  0  0
    0.9642    1.3614    0.0000 C   0  0  0  0  0  0  0  0  0  0  0  0
   -2.4414    1.1009    0.0000 O   0  0  0  0  0  0  0  0  0  0  0  0
   -0.1782    3.0000    0.0000 O   0  0  0  0  0  0  0  0  0  0  0  0
   -2.7762    3.0000    0.0000 O   0  0  0  0  0  0  0  0  0  0  0  0
   -0.5130    1.1009    0.0000 O   0  0  0  0  0  0  0  0  0  0  0  0
   -1.4772    2.2500    0.0000 P   0  0  0  0  0  0  0  0  0  0  0  0
  5  1  1  0
  6  2  1  0
  7  3  1  0
  8  4  2  0
  8  5  1  0
  8  6  1  0
  8  7  1  0
M  END
>  <NAME>  (5693) 
PHOSPHORIC ACID TRIMETHYL ESTER

>  <SYNONYMS>  (5693) 


>  <SPECTRUM TYPE>  (5693) 
MS1

>  <INSTRUMENT TYPE>  (5693) 
EI-B

>  <INSTRUMENT>  (5693) 
JEOL JMS-01-SG

>  <ION MODE>  (5693) 
P

>  <INCHIKEY>  (5693) 
WVLBCYQITXONBZ-UHFFFAOYSA-N

>  <FORMULA>  (5693) 
C3H9O4P

>  <EXACT MASS>  (5693) 
140.023845398

>  <MW>  (5693) 
140

>  <ID>  (5693) 
JP002615

>  <CONTRIBUTOR>  (5693) 
University of Tokyo Team, {Faculty of Engineering, University of Tokyo

>  <COMMENT>  (5693) 
SMILES=COP(=O)(OC)OC
InChI=InChI=1S/C3H9O4P/c1-5-8(4,6-2)7-3/h1-3H3
computed SMILES=O=P(OC)(OC)OC
accession=JP002615
date=2016.01.19 (Created 2008.10.21, modified 2011.05.06)
author=KOGA M, UNIV. OF OCCUPATIONAL AND ENVIRONMENTAL HEALTH
license=CC BY-NC-SA
exact mass=140.02385
ionization energy=70 eV
ion type=[M]+*
computed spectral entropy=1.6470914869675395
computed normalized entropy=0.6082204407795516
SPLASH=splash10-03di-5900000000-78a40709f0f96c60a9ef
submitter=submitter = University of Tokyo Team (Faculty of Engineering, University of Tokyo)
MoNA Rating=3.75

>  <NUM PEAKS>  (5693) 
15

>  <MASS SPECTRAL PEAKS>  (5693) 
45 1.4
47 7.9
48 1
55 0.18
59 1.4
65 3.9
79 33.6
80 3.33
87 1.8
93 2.8
95 19.9
109 2.93
110 99.99
111 2.5
140 10.5

$$$$

     RDKit          2D

  7  8  0  0  0  0  0  0  0  0999 V2000
    1.2300   -0.7500    0.0000 C   0  0  0  0  0  0  0  0  0  0  0  0
    1.2300    0.7500    0.0000 C   0  0  0  0  0  0  0  0  0  0  0  0
   -1.3600   -0.7500    0.0000 C   0  0  0  0  0  0  0  0  0  0  0  0
   -1.3600    0.7500    0.0000 C   0  0  0  0  0  0  0  0  0  0  0  0
    0.3900   -0.0000    0.0000 C   0  0  0  0  0  0  0  0  0  0  0  0
   -0.0700   -1.5000    0.0000 C   0  0  0  0  0  0  0  0  0  0  0  0
   -0.0700    1.5000    0.0000 C   0  0  0  0  0  0  0  0  0  0  0  0
  2  1  1  0
  4  3  1  0
  6  1  1  0
  6  3  1  0
  6  5  1  0
  7  2  1  0
  7  4  1  0
  7  5  1  0
M  END
>  <NAME>  (5694) 
NORBORNANE

>  <SYNONYMS>  (5694) 
BICYCLO(2.2.1)HEPTANE

>  <SPECTRUM TYPE>  (5694) 
MS1

>  <INSTRUMENT TYPE>  (5694) 
EI-B

>  <INSTRUMENT>  (5694) 
HITACHI RMU-6M

>  <ION MODE>  (5694) 
P

>  <INCHIKEY>  (5694) 
UMRZSTCPUPJPOJ-UHFFFAOYSA-N

>  <FORMULA>  (5694) 
C7H12

>  <EXACT MASS>  (5694) 
96.093900384

>  <MW>  (5694) 
96

>  <ID>  (5694) 
JP002604

>  <CONTRIBUTOR>  (5694) 
University of Tokyo Team, {Faculty of Engineering, University of Tokyo

>  <COMMENT>  (5694) 
SMILES=C(C1)C(C2)CC1C2
InChI=InChI=1S/C7H12/c1-2-7-4-3-6(1)5-7/h6-7H,1-5H2
computed SMILES=C1CC2CCC1C2
accession=JP002604
date=2016.01.19 (Created 2008.10.21, modified 2011.05.06)
author=YAMAMOTO M, DEP. CHEMISTRY, FAC. SCIENCE, NARA WOMEN'S UNIV.
license=CC BY-NC-SA
exact mass=96.0939
ionization energy=70 eV
ion type=[M]+*
computed spectral entropy=2.9050462319639405
computed normalized entropy=0.798619222859165
SPLASH=splash10-0159-9000000000-e56983907183db17daf9
submitter=submitter = University of Tokyo Team (Faculty of Engineering, University of Tokyo)
MoNA Rating=3.75

>  <NUM PEAKS>  (5694) 
38

>  <MASS SPECTRAL PEAKS>  (5694) 
15 5.82
26 2.72
27 19.94
28 4.05
29 12.8
30 1.94
31 26.07
32 12.02
38 2.87
39 31.81
40 7.14
41 24.44
42 4.03
43 1.94
45 6.44
46 2.79
50 2.17
51 3.88
52 2.09
53 14.74
54 47.71
55 29.17
56 1.94
63 1.55
65 4.65
66 13.19
67 99.99
68 79.37
69 4.65
77 3.18
79 3.88
80 1.32
81 72.09
82 5.28
91 1.55
95 5.28
96 33.44
97 3.1

$$$$

     RDKit          2D

  8  9  0  0  0  0  0  0  0  0999 V2000
    1.2300   -0.7500    0.0000 C   0  0  0  0  0  0  0  0  0  0  0  0
    1.2300    0.7500    0.0000 C   0  0  0  0  0  0  0  0  0  0  0  0
    0.3900   -0.0000    0.0000 C   0  0  0  0  0  0  0  0  0  0  0  0
   -1.3600   -0.7500    0.0000 C   0  0  0  0  0  0  0  0  0  0  0  0
   -0.0700   -1.5000    0.0000 C   0  0  0  0  0  0  0  0  0  0  0  0
   -0.0700    1.5000    0.0000 C   0  0  0  0  0  0  0  0  0  0  0  0
   -1.3600    0.7500    0.0000 C   0  0  0  0  0  0  0  0  0  0  0  0
   -2.6602    1.4980    0.0000 O   0  0  0  0  0  0  0  0  0  0  0  0
  2  1  1  0
  5  1  1  0
  5  3  1  0
  5  4  1  0
  6  2  1  0
  6  3  1  0
  7  4  1  0
  7  6  1  0
  8  7  1  0
M  END
>  <NAME>  (5695) 
NORBORNEOL

>  <SYNONYMS>  (5695) 
ENDO-BICYCLO(2.2.1)HEPTAN-2-OL

>  <SPECTRUM TYPE>  (5695) 
MS1

>  <INSTRUMENT TYPE>  (5695) 
EI-B

>  <INSTRUMENT>  (5695) 
HITACHI RMU-6M

>  <ION MODE>  (5695) 
P

>  <INCHIKEY>  (5695) 
ZQTYQMYDIHMKQB-UHFFFAOYSA-N

>  <FORMULA>  (5695) 
C7H12O

>  <EXACT MASS>  (5695) 
112.088815004

>  <MW>  (5695) 
112

>  <ID>  (5695) 
JP002601

>  <CONTRIBUTOR>  (5695) 
University of Tokyo Team, {Faculty of Engineering, University of Tokyo

>  <COMMENT>  (5695) 
SMILES=OC(C1)C(C2)CC(C2)1
InChI=InChI=1S/C7H12O/c8-7-4-5-1-2-6(7)3-5/h5-8H,1-4H2
computed SMILES=OC1CC2CCC1C2
accession=JP002601
date=2016.01.19 (Created 2008.10.21, modified 2011.05.06)
author=YAMAMOTO M, DEP. CHEMISTRY, FAC. SCIENCE, NARA WOMEN'S UNIV.
license=CC BY-NC-SA
exact mass=112.08882
ionization energy=70 eV
ion type=[M]+*
computed spectral entropy=3.1678595590196705
computed normalized entropy=0.8274108831202189
SPLASH=splash10-016u-9000000000-2dd03bd9111cb7344cec
submitter=submitter = University of Tokyo Team (Faculty of Engineering, University of Tokyo)
MoNA Rating=3.75

>  <NUM PEAKS>  (5695) 
46

>  <MASS SPECTRAL PEAKS>  (5695) 
15 3.17
26 2.09
27 25.25
28 4.4
29 13.65
31 6.73
38 2.64
39 31.48
40 8.22
41 37.57
42 7.57
43 8.5
44 5.96
45 6.53
50 2.4
51 4.61
52 2.11
53 16.02
54 6.25
55 17.87
56 9.18
57 20.61
58 4.2
63 1.37
65 5.31
66 60.46
67 66.54
68 60.3
69 5.96
70 12.49
71 5.65
77 6.63
78 2.04
79 69.43
80 5.91
81 12.25
82 1.68
83 12.9
84 4.8
91 2.52
93 5.43
94 99.99
95 8.53
97 5.09
111 1.2
112 3.84

$$$$

     RDKit          2D

  8  9  0  0  1  0  0  0  0  0999 V2000
    1.2300   -0.7500    0.0000 C   0  0  0  0  0  0  0  0  0  0  0  0
    1.2300    0.7500    0.0000 C   0  0  0  0  0  0  0  0  0  0  0  0
    0.3900   -0.0000    0.0000 C   0  0  0  0  0  0  0  0  0  0  0  0
   -1.3600   -0.7500    0.0000 C   0  0  0  0  0  0  0  0  0  0  0  0
   -0.0700   -1.5000    0.0000 C   0  0  0  0  0  0  0  0  0  0  0  0
   -0.0700    1.5000    0.0000 C   0  0  0  0  0  0  0  0  0  0  0  0
   -1.3600    0.7500    0.0000 C   0  0  0  0  0  0  0  0  0  0  0  0
   -2.6602    1.4980    0.0000 O   0  0  0  0  0  0  0  0  0  0  0  0
  2  1  1  0
  5  1  1  0
  5  3  1  0
  5  4  1  0
  6  2  1  0
  6  3  1  0
  7  4  1  0
  7  6  1  0
  7  8  1  1
M  END
>  <NAME>  (5696) 
ISONORBORNEOL

>  <SYNONYMS>  (5696) 
EXO-BICYCLO(2.2.1)HEPTAN-2-OL

>  <SPECTRUM TYPE>  (5696) 
MS1

>  <INSTRUMENT TYPE>  (5696) 
EI-B

>  <INSTRUMENT>  (5696) 
HITACHI RMU-6M

>  <ION MODE>  (5696) 
P

>  <INCHIKEY>  (5696) 
ZQTYQMYDIHMKQB-KPGICGJXSA-N

>  <FORMULA>  (5696) 
C7H12O

>  <EXACT MASS>  (5696) 
112.088815004

>  <MW>  (5696) 
112

>  <ID>  (5696) 
JP002600

>  <CONTRIBUTOR>  (5696) 
University of Tokyo Team, {Faculty of Engineering, University of Tokyo

>  <COMMENT>  (5696) 
SMILES=OC(C1)C(C2)CC(C2)1
InChI=InChI=1S/C7H12O/c8-7-4-5-1-2-6(7)3-5/h5-8H,1-4H2/t5?,6?,7-/m1/s1
computed SMILES=OC1CC2CCC1C2
accession=JP002600
date=2016.01.19 (Created 2008.10.21, modified 2011.05.06)
author=YAMAMOTO M, DEP. CHEMISTRY, FAC. SCIENCE, NARA WOMEN'S UNIV.
license=CC BY-NC-SA
exact mass=112.08882
ionization energy=70 eV
ion type=[M]+*
computed spectral entropy=3.156104675914696
computed normalized entropy=0.8243406339410313
SPLASH=splash10-014l-9000000000-bf3fb2ddca02ce2b24e1
submitter=submitter = University of Tokyo Team (Faculty of Engineering, University of Tokyo)
MoNA Rating=3.75

>  <NUM PEAKS>  (5696) 
46

>  <MASS SPECTRAL PEAKS>  (5696) 
15 3.16
26 2.13
27 26.12
28 4.7
29 14.23
31 7.34
37 1
38 2.99
39 34.7
40 8.97
41 38.9
42 8.06
43 10.53
44 6.4
45 7.26
50 2.22
51 4.5
52 2.13
53 17.02
54 6.55
55 19.27
56 10.11
58 7.57
63 1.51
65 6.26
66 62.56
67 70.78
68 68.49
69 6.12
70 14.09
71 7.54
77 6.03
78 1.85
79 70.78
80 5.69
81 13.15
82 2.05
83 15.09
84 6.55
91 2.36
93 5.27
94 99.99
95 9.96
97 5.84
111 1.42
112 2.85

$$$$

     RDKit          2D

  8  9  0  0  0  0  0  0  0  0999 V2000
    1.2300   -0.7500    0.0000 C   0  0  0  0  0  0  0  0  0  0  0  0
    1.2300    0.7500    0.0000 C   0  0  0  0  0  0  0  0  0  0  0  0
    0.3900   -0.0000    0.0000 C   0  0  0  0  0  0  0  0  0  0  0  0
   -1.3600   -0.7500    0.0000 C   0  0  0  0  0  0  0  0  0  0  0  0
   -0.0700   -1.5000    0.0000 C   0  0  0  0  0  0  0  0  0  0  0  0
   -0.0700    1.5000    0.0000 C   0  0  0  0  0  0  0  0  0  0  0  0
   -1.3600    0.7500    0.0000 C   0  0  0  0  0  0  0  0  0  0  0  0
   -2.6602    1.4980    0.0000 O   0  0  0  0  0  0  0  0  0  0  0  0
  2  1  1  0
  5  1  1  0
  5  3  1  0
  5  4  1  0
  6  2  1  0
  6  3  1  0
  7  4  1  0
  7  6  1  0
  8  7  2  0
M  END
>  <NAME>  (5697) 
NORCAMPHOR

>  <SYNONYMS>  (5697) 
BICYCLO(2.2.1)HEPTAN-2-ONE

>  <SPECTRUM TYPE>  (5697) 
MS1

>  <INSTRUMENT TYPE>  (5697) 
EI-B

>  <INSTRUMENT>  (5697) 
HITACHI RMU-6M

>  <ION MODE>  (5697) 
P

>  <INCHIKEY>  (5697) 
KPMKEVXVVHNIEY-UHFFFAOYSA-N

>  <FORMULA>  (5697) 
C7H10O

>  <EXACT MASS>  (5697) 
110.07316494

>  <MW>  (5697) 
110

>  <ID>  (5697) 
JP002599

>  <CONTRIBUTOR>  (5697) 
University of Tokyo Team, {Faculty of Engineering, University of Tokyo

>  <COMMENT>  (5697) 
SMILES=O=C(C1)C(C2)CC(C2)1
InChI=InChI=1S/C7H10O/c8-7-4-5-1-2-6(7)3-5/h5-6H,1-4H2
computed SMILES=O=C1CC2CCC1C2
accession=JP002599
date=2016.01.19 (Created 2008.10.21, modified 2011.05.06)
author=YAMAMOTO M, DEP. CHEMISTRY, FAC. SCIENCE, NARA WOMEN'S UNIV.
license=CC BY-NC-SA
exact mass=110.07316
ionization energy=70 eV
ion type=[M]+*
computed spectral entropy=2.7742263212611333
computed normalized entropy=0.7626558380873669
SPLASH=splash10-014i-9000000000-e9230a8bea9a1a8d723c
submitter=submitter = University of Tokyo Team (Faculty of Engineering, University of Tokyo)
MoNA Rating=3.75

>  <NUM PEAKS>  (5697) 
38

>  <MASS SPECTRAL PEAKS>  (5697) 
15 1.95
26 3.55
27 21.57
28 4.38
29 3.17
37 1.27
38 3.51
39 34.09
40 8.38
41 42.81
42 4.14
43 3.02
50 3.41
51 4.53
52 2.92
53 11.98
54 37.5
55 6.91
56 1.7
63 1.36
65 3.9
66 99.99
67 93.75
68 21.18
69 2.19
77 2.09
79 5.55
80 1.61
81 15.1
82 5.21
84 1.17
91 1.31
92 4.24
93 1.27
95 5.36
109 4.87
110 41.41
111 3.6

$$$$

     RDKit          2D

  7  8  0  0  0  0  0  0  0  0999 V2000
    1.2300   -0.7500    0.0000 C   0  0  0  0  0  0  0  0  0  0  0  0
    1.2300    0.7500    0.0000 C   0  0  0  0  0  0  0  0  0  0  0  0
   -1.3600   -0.7500    0.0000 C   0  0  0  0  0  0  0  0  0  0  0  0
   -1.3600    0.7500    0.0000 C   0  0  0  0  0  0  0  0  0  0  0  0
    0.3900   -0.0000    0.0000 C   0  0  0  0  0  0  0  0  0  0  0  0
   -0.0700   -1.5000    0.0000 C   0  0  0  0  0  0  0  0  0  0  0  0
   -0.0700    1.5000    0.0000 C   0  0  0  0  0  0  0  0  0  0  0  0
  2  1  2  0
  4  3  1  0
  6  1  1  0
  6  3  1  0
  6  5  1  0
  7  2  1  0
  7  4  1  0
  7  5  1  0
M  END
>  <NAME>  (5698) 
NORBORNYLENE

>  <SYNONYMS>  (5698) 
BICYCLO(2.2.1)HEPT-2-ENE

>  <SPECTRUM TYPE>  (5698) 
MS1

>  <INSTRUMENT TYPE>  (5698) 
EI-B

>  <INSTRUMENT>  (5698) 
HITACHI RMU-6M

>  <ION MODE>  (5698) 
P

>  <INCHIKEY>  (5698) 
JFNLZVQOOSMTJK-UHFFFAOYSA-N

>  <FORMULA>  (5698) 
C7H10

>  <EXACT MASS>  (5698) 
94.07825032

>  <MW>  (5698) 
94

>  <ID>  (5698) 
JP002598

>  <CONTRIBUTOR>  (5698) 
University of Tokyo Team, {Faculty of Engineering, University of Tokyo

>  <COMMENT>  (5698) 
SMILES=C(C1)C(C=2)CC1C2
InChI=InChI=1S/C7H10/c1-2-7-4-3-6(1)5-7/h1-2,6-7H,3-5H2
computed SMILES=C1=CC2CCC1C2
accession=JP002598
date=2016.01.19 (Created 2008.10.21, modified 2011.05.06)
author=YAMAMOTO M, DEP. CHEMISTRY, FAC. SCIENCE, NARA WOMEN'S UNIV.
license=CC BY-NC-SA
exact mass=94.07825
ionization energy=70 eV
ion type=[M]+*
computed spectral entropy=2.1693121726689664
computed normalized entropy=0.6825913872048737
SPLASH=splash10-014i-9000000000-2eaab03328d3587960e6
submitter=submitter = University of Tokyo Team (Faculty of Engineering, University of Tokyo)
MoNA Rating=3.75

>  <NUM PEAKS>  (5698) 
24

>  <MASS SPECTRAL PEAKS>  (5698) 
26 1.31
27 6.81
37 1.05
38 2.41
39 14.98
40 5.92
41 4.35
50 2.1
51 3.98
52 1.89
53 3.3
62 1.15
63 2.2
65 6.71
66 99.99
67 7.23
77 7.6
78 1.83
79 12.16
80 1.05
91 3.98
93 2.1
94 15.35
95 1.47

$$$$

     RDKit          2D

 11 12  0  0  0  0  0  0  0  0999 V2000
    1.2027   -2.3196    0.0000 C   0  0  0  0  0  0  0  0  0  0  0  0
    2.1672   -0.6497    0.0000 C   0  0  0  0  0  0  0  0  0  0  0  0
   -0.6100    2.8400    0.0000 C   0  0  0  0  0  0  0  0  0  0  0  0
   -1.9100   -0.9100    0.0000 C   0  0  0  0  0  0  0  0  0  0  0  0
   -1.9100    0.5900    0.0000 C   0  0  0  0  0  0  0  0  0  0  0  0
   -1.3600   -0.1500    0.0000 C   0  0  0  0  0  0  0  0  0  0  0  0
   -0.6100   -1.6600    0.0000 C   0  0  0  0  0  0  0  0  0  0  0  0
    0.6900    0.5900    0.0000 C   0  0  0  0  0  0  0  0  0  0  0  0
    0.6900   -0.9100    0.0000 C   0  0  0  0  0  0  0  0  0  0  0  0
   -0.6100    1.3400    0.0000 C   0  0  0  0  0  0  0  0  0  0  0  0
    1.9889    1.3402    0.0000 O   0  0  0  0  0  0  0  0  0  0  0  0
  5  4  1  0
  7  4  1  0
  7  6  1  0
  9  1  1  0
  9  2  1  0
  9  7  1  0
  9  8  1  0
 10  3  1  0
 10  5  1  0
 10  6  1  0
 10  8  1  0
 11  8  2  0
M  END
>  <NAME>  (5699) 
FENCHONE

>  <SYNONYMS>  (5699) 
1,3,3-TRIMETHYLBICYCLO(2.2.1)HEPTAN-2-ONE

>  <SPECTRUM TYPE>  (5699) 
MS1

>  <INSTRUMENT TYPE>  (5699) 
EI-B

>  <INSTRUMENT>  (5699) 
HITACHI RMU-6M

>  <ION MODE>  (5699) 
P

>  <INCHIKEY>  (5699) 
LHXDLQBQYFFVNW-UHFFFAOYSA-N

>  <FORMULA>  (5699) 
C10H16O

>  <EXACT MASS>  (5699) 
152.120115132

>  <MW>  (5699) 
152

>  <ID>  (5699) 
JP002596

>  <CONTRIBUTOR>  (5699) 
University of Tokyo Team, {Faculty of Engineering, University of Tokyo

>  <COMMENT>  (5699) 
SMILES=O=C(C(C)(C)1)C(C)(C2)CC(C2)1
InChI=InChI=1S/C10H16O/c1-9(2)7-4-5-10(3,6-7)8(9)11/h7H,4-6H2,1-3H3
computed SMILES=O=C1C(C)(C)C2CCC1(C)C2
accession=JP002596
date=2016.01.19 (Created 2008.10.21, modified 2011.05.06)
author=YAMAMOTO M, DEP. CHEMISTRY, FAC. SCIENCE, NARA WOMEN'S UNIV.
license=CC BY-NC-SA
exact mass=152.12012
ionization energy=70 eV
ion type=[M]+*
computed spectral entropy=2.4512965744788646
computed normalized entropy=0.7207157654816619
SPLASH=splash10-001i-9000000000-39548fbec25228381f9b
submitter=submitter = University of Tokyo Team (Faculty of Engineering, University of Tokyo)
MoNA Rating=3.75

>  <NUM PEAKS>  (5699) 
30

>  <MASS SPECTRAL PEAKS>  (5699) 
27 7.42
28 3.15
29 4.49
39 9.66
41 25.52
42 2.83
43 2.83
51 1.76
52 1.07
53 5.61
54 1.23
55 4.11
65 1.82
66 1.07
67 5.66
68 4.38
69 46.28
70 3.04
72 2.19
77 2.24
79 3.47
80 13.51
81 99.99
82 8.54
91 1.33
95 1.17
109 5.13
137 1.71
152 13.35
153 1.82

$$$$

     RDKit          2D

 12 13  0  0  0  0  0  0  0  0999 V2000
    1.2027   -2.3196    0.0000 C   0  0  0  0  0  0  0  0  0  0  0  0
    2.1672   -0.6497    0.0000 C   0  0  0  0  0  0  0  0  0  0  0  0
   -0.6100    2.8400    0.0000 C   0  0  0  0  0  0  0  0  0  0  0  0
   -1.9100   -0.9100    0.0000 C   0  0  0  0  0  0  0  0  0  0  0  0
   -1.9100    0.5900    0.0000 C   0  0  0  0  0  0  0  0  0  0  0  0
   -1.3600   -0.1500    0.0000 C   0  0  0  0  0  0  0  0  0  0  0  0
   -0.6100   -1.6600    0.0000 C   0  0  0  0  0  0  0  0  0  0  0  0
    0.6900    0.5900    0.0000 C   0  0  0  0  0  0  0  0  0  0  0  0
    0.6900   -0.9100    0.0000 C   0  0  0  0  0  0  0  0  0  0  0  0
   -0.6100    1.3400    0.0000 C   0  0  0  0  0  0  0  0  0  0  0  0
    1.9889    1.3402    0.0000 O   0  0  0  0  0  0  0  0  0  0  0  0
    1.9887    2.8402    0.0000 H   0  0  0  0  0  0  0  0  0  0  0  0
 11 12  1  0
  5  4  1  0
  7  4  1  0
  7  6  1  0
  9  1  1  0
  9  2  1  0
  9  7  1  0
  9  8  1  0
 10  3  1  0
 10  5  1  0
 10  6  1  0
 10  8  1  0
 11  8  1  0
M  ISO  1  12   2
M  END
>  <NAME>  (5700) 
FENCHYL ALCOHOL (OD)

>  <SYNONYMS>  (5700) 
1,3,3-TRIMETHYLBICYCLO(2.2.1)HEPTAN-2-(2H)OL

>  <SPECTRUM TYPE>  (5700) 
MS1

>  <INSTRUMENT TYPE>  (5700) 
EI-B

>  <INSTRUMENT>  (5700) 
HITACHI RMU-6M

>  <ION MODE>  (5700) 
P

>  <INCHIKEY>  (5700) 
IAIHUHQCLTYTSF-WORMITQPSA-N

>  <FORMULA>  (5700) 
C10H18O

>  <EXACT MASS>  (5700) 
155.142041942

>  <MW>  (5700) 
155

>  <ID>  (5700) 
JP002595

>  <CONTRIBUTOR>  (5700) 
University of Tokyo Team, {Faculty of Engineering, University of Tokyo

>  <COMMENT>  (5700) 
SMILES=[2H]OC(C(C)(C)1)C(C)(C2)CC(C2)1
InChI=InChI=1S/C10H18O/c1-9(2)7-4-5-10(3,6-7)8(9)11/h7-8,11H,4-6H2,1-3H3/i11D
computed SMILES=[H]OC1C(C)(C)C2CCC1(C)C2
accession=JP002595
date=2016.01.19 (Created 2008.10.21, modified 2011.05.06)
author=YAMAMOTO M, DEP. CHEMISTRY, FAC. SCIENCE, NARA WOMEN'S UNIV.
license=CC BY-NC-SA
exact mass=154.13577
ionization energy=70 eV
ion type=[M]+*
computed spectral entropy=3.5315508585383393
computed normalized entropy=0.8369580304844935
SPLASH=splash10-001i-9100000000-2391ca66f3cd432bb0a2
submitter=submitter = University of Tokyo Team (Faculty of Engineering, University of Tokyo)
MoNA Rating=3.75

>  <NUM PEAKS>  (5700) 
68

>  <MASS SPECTRAL PEAKS>  (5700) 
27 10.38
28 3.89
29 7.88
30 3.25
31 1.22
39 12.03
40 3.99
41 27.58
42 8.3
43 25.5
44 7.24
45 1.54
46 2.72
51 2.13
52 1.6
53 7.77
54 3.67
55 14.05
56 7.45
57 3.09
58 9.69
59 2.29
65 2.29
66 1.97
67 15.12
68 4.53
69 21.99
70 4.79
71 2.45
72 25.55
73 20.66
74 2.66
77 3.3
78 2.13
79 6.02
80 74.38
81 99.99
82 21.61
83 11.55
84 15.49
85 7.35
86 3.78
91 2.18
92 2.08
93 5.38
94 11.39
95 5.64
96 4.53
97 3.41
98 3.25
99 2.61
100 1.6
106 1.01
107 9.37
108 3.35
109 2.4
110 1.86
111 1.92
112 12.72
113 1.54
121 1.01
122 10.54
123 6.12
124 1.01
125 2.13
137 4.26
140 3.73
155 4.42

$$$$

     RDKit          2D

 11 12  0  0  0  0  0  0  0  0999 V2000
    1.2027   -2.3196    0.0000 C   0  0  0  0  0  0  0  0  0  0  0  0
    2.1672   -0.6497    0.0000 C   0  0  0  0  0  0  0  0  0  0  0  0
   -0.6100    2.8400    0.0000 C   0  0  0  0  0  0  0  0  0  0  0  0
   -1.9100   -0.9100    0.0000 C   0  0  0  0  0  0  0  0  0  0  0  0
   -1.9100    0.5900    0.0000 C   0  0  0  0  0  0  0  0  0  0  0  0
   -1.3600   -0.1500    0.0000 C   0  0  0  0  0  0  0  0  0  0  0  0
   -0.6100   -1.6600    0.0000 C   0  0  0  0  0  0  0  0  0  0  0  0
    0.6900    0.5900    0.0000 C   0  0  0  0  0  0  0  0  0  0  0  0
    0.6900   -0.9100    0.0000 C   0  0  0  0  0  0  0  0  0  0  0  0
   -0.6100    1.3400    0.0000 C   0  0  0  0  0  0  0  0  0  0  0  0
    1.9889    1.3402    0.0000 O   0  0  0  0  0  0  0  0  0  0  0  0
  5  4  1  0
  7  4  1  0
  7  6  1  0
  9  1  1  0
  9  2  1  0
  9  7  1  0
  9  8  1  0
 10  3  1  0
 10  5  1  0
 10  6  1  0
 10  8  1  0
 11  8  1  0
M  END
>  <NAME>  (5701) 
FENCHYL ALCOHOL

>  <SYNONYMS>  (5701) 
1,3,3-TRIMETHYLBICYCLO(2.2.1)HEPTAN-2-OL

>  <SPECTRUM TYPE>  (5701) 
MS1

>  <INSTRUMENT TYPE>  (5701) 
EI-B

>  <INSTRUMENT>  (5701) 
HITACHI RMU-6M

>  <ION MODE>  (5701) 
P

>  <INCHIKEY>  (5701) 
IAIHUHQCLTYTSF-UHFFFAOYSA-N

>  <FORMULA>  (5701) 
C10H18O

>  <EXACT MASS>  (5701) 
154.135765196

>  <MW>  (5701) 
154

>  <ID>  (5701) 
JP002594

>  <CONTRIBUTOR>  (5701) 
University of Tokyo Team, {Faculty of Engineering, University of Tokyo

>  <COMMENT>  (5701) 
SMILES=OC(C(C)(C)1)C(C)(C2)CC(C2)1
InChI=InChI=1S/C10H18O/c1-9(2)7-4-5-10(3,6-7)8(9)11/h7-8,11H,4-6H2,1-3H3
computed SMILES=OC1C(C)(C)C2CCC1(C)C2
accession=JP002594
date=2016.01.19 (Created 2008.10.21, modified 2011.05.06)
author=YAMAMOTO M, DEP. CHEMISTRY, FAC. SCIENCE, NARA WOMEN'S UNIV.
license=CC BY-NC-SA
exact mass=154.13577
ionization energy=70 eV
ion type=[M]+*
computed spectral entropy=3.3967014421514907
computed normalized entropy=0.8296081071173986
SPLASH=splash10-001i-9000000000-03610ff0a989a69cf478
submitter=submitter = University of Tokyo Team (Faculty of Engineering, University of Tokyo)
MoNA Rating=3.75

>  <NUM PEAKS>  (5701) 
60

>  <MASS SPECTRAL PEAKS>  (5701) 
27 13.31
28 9.28
29 9.42
31 2.33
39 14.28
40 2.87
41 33.07
42 2.87
43 26.71
44 1.55
45 3.16
51 2.38
52 1.6
53 8.94
54 2.57
55 16.03
56 4.37
57 10.44
58 1.02
59 1.75
65 2.96
66 1.55
67 17.14
68 3.4
69 23.26
70 3.64
71 23.8
72 23.89
73 3.35
77 4.47
78 1.12
79 7.38
80 72.81
81 99.99
82 20.15
83 12.29
84 15.44
85 4.13
86 1.26
91 3.21
92 3.45
93 13.16
94 2.57
95 5.58
96 4.37
97 4.32
98 4.18
99 1.94
105 1.36
107 10.34
108 1.85
109 2.19
110 1.85
111 14.33
112 1.46
123 5.34
125 2.57
136 3.84
139 3.89
154 4.32

$$$$

     RDKit          2D

 12 13  0  0  0  0  0  0  0  0999 V2000
   -2.8369   -0.4880    0.0000 C   0  0  0  0  0  0  0  0  0  0  0  0
   -1.8759   -2.1585    0.0000 C   0  0  0  0  0  0  0  0  0  0  0  0
   -0.0725    3.0000    0.0000 C   0  0  0  0  0  0  0  0  0  0  0  0
    1.2300   -0.7500    0.0000 C   0  0  0  0  0  0  0  0  0  0  0  0
    1.2300    0.7500    0.0000 C   0  0  0  0  0  0  0  0  0  0  0  0
    0.3900   -0.0000    0.0000 C   0  0  0  0  0  0  0  0  0  0  0  0
   -1.3600    0.7500    0.0000 C   0  0  0  0  0  0  0  0  0  0  0  0
   -1.8759    2.1585    0.0000 H   0  0  0  0  0  0  0  0  0  0  0  0
   -2.8369    0.4880    0.0000 H   0  0  0  0  0  0  0  0  0  0  0  0
   -0.0700   -1.5000    0.0000 C   0  0  0  0  0  0  0  0  0  0  0  0
   -1.3600   -0.7500    0.0000 C   0  0  0  0  0  0  0  0  0  0  0  0
   -0.0700    1.5000    0.0000 C   0  0  0  0  0  0  0  0  0  0  0  0
  7  8  1  0
  7  9  1  0
  5  4  1  0
 10  4  1  0
 10  6  1  0
 11  1  1  0
 11  2  1  0
 11  7  1  0
 11 10  1  0
 12  3  1  0
 12  5  1  0
 12  6  1  0
 12  7  1  0
M  ISO  2   8   2   9   2
M  END
>  <NAME>  (5702) 
FENCHANE (2,2-D2)

>  <SYNONYMS>  (5702) 
1,3,3-TRIMETHYLBICYCLO(2.2.1)(2,2-2H2)HEPTANE

>  <SPECTRUM TYPE>  (5702) 
MS1

>  <INSTRUMENT TYPE>  (5702) 
EI-B

>  <INSTRUMENT>  (5702) 
HITACHI M-80

>  <ION MODE>  (5702) 
P

>  <INCHIKEY>  (5702) 
HINAOCRDJFBYGD-RJSZUWSASA-N

>  <FORMULA>  (5702) 
C10H18

>  <EXACT MASS>  (5702) 
140.153404068

>  <MW>  (5702) 
140

>  <ID>  (5702) 
JP002593

>  <CONTRIBUTOR>  (5702) 
University of Tokyo Team, {Faculty of Engineering, University of Tokyo

>  <COMMENT>  (5702) 
SMILES=CC(C)(C21)C([2H])([2H])C(C)(CC2)C1
InChI=InChI=1S/C10H18/c1-9(2)7-10(3)5-4-8(9)6-10/h8H,4-7H2,1-3H3/i7D2
computed SMILES=[H]C1([H])C(C)(C)C2CCC1(C)C2
accession=JP002593
date=2016.01.19 (Created 2008.10.21, modified 2011.05.06)
author=YAMAMOTO M, DEP. CHEMISTRY, FAC. SCIENCE, NARA WOMEN'S UNIV.
license=CC BY-NC-SA
exact mass=138.14085
ionization energy=70 eV
ion type=[M]+*
computed spectral entropy=3.532488900486753
computed normalized entropy=0.8627727458701193
SPLASH=splash10-0002-9100000000-17a28c0b9d4d2255a3b4
submitter=submitter = University of Tokyo Team (Faculty of Engineering, University of Tokyo)
MoNA Rating=3.75

>  <NUM PEAKS>  (5702) 
60

>  <MASS SPECTRAL PEAKS>  (5702) 
15 1.75
27 13.11
28 8.75
29 8.59
30 6.62
31 1.87
39 17.43
40 10.76
41 31.58
42 20.88
43 10.04
44 4.03
51 3.17
52 3.55
53 9.48
54 9.49
55 22.9
56 22.53
57 19.66
58 1.94
63 1.15
65 2.78
66 3.78
67 18.85
68 27.56
69 29.96
70 16.92
71 10.58
72 1.21
77 5.92
78 7.21
79 8.76
80 11.3
81 14.84
82 65.37
83 38.46
84 10.69
85 10.53
86 2.41
91 3.05
92 4.72
93 8.06
95 32.69
96 77.78
97 99.99
98 14.85
99 7.55
107 1.65
108 1.79
109 4.36
110 46.78
111 7.38
112 1.56
124 1.96
125 17.54
126 1.9
138 1.05
139 2.6
140 16.3
141 1.97

$$$$

     RDKit          2D

 10 11  0  0  0  0  0  0  0  0999 V2000
   -2.8369   -0.4880    0.0000 C   0  0  0  0  0  0  0  0  0  0  0  0
   -1.8759   -2.1585    0.0000 C   0  0  0  0  0  0  0  0  0  0  0  0
   -0.0725    3.0000    0.0000 C   0  0  0  0  0  0  0  0  0  0  0  0
    1.2300   -0.7500    0.0000 C   0  0  0  0  0  0  0  0  0  0  0  0
    1.2300    0.7500    0.0000 C   0  0  0  0  0  0  0  0  0  0  0  0
    0.3900   -0.0000    0.0000 C   0  0  0  0  0  0  0  0  0  0  0  0
   -1.3600    0.7500    0.0000 C   0  0  0  0  0  0  0  0  0  0  0  0
   -0.0700   -1.5000    0.0000 C   0  0  0  0  0  0  0  0  0  0  0  0
   -1.3600   -0.7500    0.0000 C   0  0  0  0  0  0  0  0  0  0  0  0
   -0.0700    1.5000    0.0000 C   0  0  0  0  0  0  0  0  0  0  0  0
  5  4  1  0
  8  4  1  0
  8  6  1  0
  9  1  1  0
  9  2  1  0
  9  7  1  0
  9  8  1  0
 10  3  1  0
 10  5  1  0
 10  6  1  0
 10  7  1  0
M  END
>  <NAME>  (5703) 
FENCHANE

>  <SYNONYMS>  (5703) 
1,3,3-TRIMETHYLBICYCLO(2.2.1)HEPTANE

>  <SPECTRUM TYPE>  (5703) 
MS1

>  <INSTRUMENT TYPE>  (5703) 
EI-B

>  <INSTRUMENT>  (5703) 
HITACHI M-80

>  <ION MODE>  (5703) 
P

>  <INCHIKEY>  (5703) 
HINAOCRDJFBYGD-UHFFFAOYSA-N

>  <FORMULA>  (5703) 
C10H18

>  <EXACT MASS>  (5703) 
138.140850576

>  <MW>  (5703) 
138

>  <ID>  (5703) 
JP002592

>  <CONTRIBUTOR>  (5703) 
University of Tokyo Team, {Faculty of Engineering, University of Tokyo

>  <COMMENT>  (5703) 
SMILES=CC(C)(C1)C(C2)CC(C)(C2)1
InChI=InChI=1S/C10H18/c1-9(2)7-10(3)5-4-8(9)6-10/h8H,4-7H2,1-3H3
computed SMILES=CC1(C)CC2(C)CCC1C2
accession=JP002592
date=2016.01.19 (Created 2008.10.21, modified 2011.05.06)
author=YAMAMOTO M, DEP. CHEMISTRY, FAC. SCIENCE, NARA WOMEN'S UNIV.
license=CC BY-NC-SA
exact mass=138.14085
ionization energy=70 eV
ion type=[M]+*
computed spectral entropy=3.1270598734589496
computed normalized entropy=0.8420625255925431
SPLASH=splash10-0532-9100000000-4f94c002ed3977136fa7
submitter=submitter = University of Tokyo Team (Faculty of Engineering, University of Tokyo)
MoNA Rating=3.75

>  <NUM PEAKS>  (5703) 
41

>  <MASS SPECTRAL PEAKS>  (5703) 
27 13.94
28 1.82
29 9.11
39 18.06
40 3.27
41 37.75
42 1.34
43 4.66
51 3.43
52 1.53
53 12.38
54 3.28
55 41.23
56 2.75
57 1.41
65 4.34
66 2.05
67 32.31
68 15.93
69 23.38
70 4.9
77 7.31
78 1.72
79 10.6
80 3.96
81 44.68
82 39.11
83 12.28
84 2.69
91 5.44
93 3.19
94 14.55
95 99.99
96 24.63
97 7.5
109 39.39
110 4.35
123 17.33
124 1.74
138 12.25
139 1.59

$$$$

     RDKit          2D

 14 14  0  0  1  0  0  0  0  0999 V2000
    2.0789   -2.0602    0.0000 C   0  0  0  0  0  0  0  0  0  0  0  0
    5.9762    0.1908    0.0000 C   0  0  0  0  0  0  0  0  0  0  0  0
    0.4441    2.0892    0.0000 C   0  0  0  0  0  0  0  0  0  0  0  0
   -1.4841    2.0892    0.0000 C   0  0  0  0  0  0  0  0  0  0  0  0
   -1.8200   -1.3100    0.0000 C   0  0  0  0  0  0  0  0  0  0  0  0
   -0.5200   -2.0600    0.0000 C   0  0  0  0  0  0  0  0  0  0  0  0
    3.3781    0.1904    0.0000 C   0  0  0  0  0  0  0  0  0  0  0  0
    2.0789    0.9402    0.0000 C   0  0  0  0  0  0  0  0  0  0  0  0
   -1.8200    0.1900    0.0000 C   0  0  0  0  0  0  0  0  0  0  0  0
    0.7800   -1.3100    0.0000 C   0  0  0  0  0  0  0  0  0  0  0  0
    4.6770    0.9406    0.0000 C   0  0  0  0  0  0  0  0  0  0  0  0
    0.7800    0.1900    0.0000 C   0  0  0  0  0  0  0  0  0  0  0  0
   -0.5200    0.9400    0.0000 C   0  0  0  0  0  0  0  0  0  0  0  0
    4.6768    2.4406    0.0000 O   0  0  0  0  0  0  0  0  0  0  0  0
  6  5  1  0
  7  8  2  0
  9  5  1  0
 10  1  1  0
 10  6  2  0
 11  2  1  0
 11  7  1  0
 12  8  1  1
 12 10  1  0
 13  3  1  0
 13  4  1  0
 13  9  1  0
 13 12  1  0
 14 11  2  0
M  END
>  <NAME>  (5704) 
ALPHA-IONONE

>  <SYNONYMS>  (5704) 
4-(2,6,6-TRIMETHYL-2-CYCLOHEXEN-1-YL)-3-BUTEN-2-ONE

>  <SPECTRUM TYPE>  (5704) 
MS1

>  <INSTRUMENT TYPE>  (5704) 
EI-B

>  <INSTRUMENT>  (5704) 
HITACHI RMU-6M

>  <ION MODE>  (5704) 
P

>  <INCHIKEY>  (5704) 
UZFLPKAIBPNNCA-GUOLPTJISA-N

>  <FORMULA>  (5704) 
C13H20O

>  <EXACT MASS>  (5704) 
192.15141526

>  <MW>  (5704) 
192

>  <ID>  (5704) 
JP002591

>  <CONTRIBUTOR>  (5704) 
University of Tokyo Team, {Faculty of Engineering, University of Tokyo

>  <COMMENT>  (5704) 
SMILES=CC(=O)C([H])=C([H])C([H])(C(C)=1)C(C)(C)CCC([H])1
InChI=InChI=1S/C13H20O/c1-10-6-5-9-13(3,4)12(10)8-7-11(2)14/h6-8,12H,5,9H2,1-4H3/b8-7+/t12-/m0/s1
computed SMILES=O=C(C=CC1C(=CCCC1(C)C)C)C
accession=JP002591
date=2016.01.19 (Created 2008.10.21, modified 2011.05.06)
author=YAMAMOTO M, DEP. CHEMISTRY, FAC. SCIENCE, NARA WOMEN'S UNIV.
license=CC BY-NC-SA
exact mass=192.15142
ionization energy=70 eV
ion type=[M]+*
computed spectral entropy=3.320408631278892
computed normalized entropy=0.7869184898526711
SPLASH=splash10-0006-9600000000-f52514927b7c7e5bd79a
submitter=submitter = University of Tokyo Team (Faculty of Engineering, University of Tokyo)
MoNA Rating=3.75

>  <NUM PEAKS>  (5704) 
68

>  <MASS SPECTRAL PEAKS>  (5704) 
15 3.29
27 10.41
28 5.13
29 7.13
39 15.21
40 2.66
41 27.15
42 1.18
43 71.48
44 1.44
45 1.88
51 5.02
52 2.1
53 9.86
54 1.18
55 7.79
56 1.33
57 1.29
63 1.66
65 7.31
66 1.81
67 6.17
68 1.11
69 5.39
71 2.25
77 23.16
78 23.16
79 9.86
80 2.22
81 7.39
82 1.62
83 1.18
91 24.16
92 14.84
93 86.8
94 9.79
95 4.62
96 1.44
103 1.92
105 4.99
106 2.51
107 9.45
108 3.91
110 2.25
111 1.22
112 2.51
115 1.66
117 1.96
119 6.31
120 1.11
121 99.99
122 10.71
123 2.07
124 1.07
131 1.51
133 2.1
134 4.06
135 6.54
136 74.47
137 13.18
138 1.22
149 6.35
150 1.18
159 2.55
177 11.74
178 1.55
192 26.28
193 3.8

$$$$

     RDKit          2D

 14 14  0  0  0  0  0  0  0  0999 V2000
    2.0789   -2.0602    0.0000 C   0  0  0  0  0  0  0  0  0  0  0  0
    5.9762    0.1908    0.0000 C   0  0  0  0  0  0  0  0  0  0  0  0
    0.4441    2.0892    0.0000 C   0  0  0  0  0  0  0  0  0  0  0  0
   -1.4841    2.0892    0.0000 C   0  0  0  0  0  0  0  0  0  0  0  0
   -1.8200   -1.3100    0.0000 C   0  0  0  0  0  0  0  0  0  0  0  0
   -0.5200   -2.0600    0.0000 C   0  0  0  0  0  0  0  0  0  0  0  0
    3.3781    0.1904    0.0000 C   0  0  0  0  0  0  0  0  0  0  0  0
    2.0789    0.9402    0.0000 C   0  0  0  0  0  0  0  0  0  0  0  0
   -1.8200    0.1900    0.0000 C   0  0  0  0  0  0  0  0  0  0  0  0
    0.7800   -1.3100    0.0000 C   0  0  0  0  0  0  0  0  0  0  0  0
    4.6770    0.9406    0.0000 C   0  0  0  0  0  0  0  0  0  0  0  0
    0.7800    0.1900    0.0000 C   0  0  0  0  0  0  0  0  0  0  0  0
   -0.5200    0.9400    0.0000 C   0  0  0  0  0  0  0  0  0  0  0  0
    4.6768    2.4406    0.0000 O   0  0  0  0  0  0  0  0  0  0  0  0
  6  5  1  0
  7  8  2  0
  9  5  1  0
 10  1  1  0
 10  6  1  0
 11  2  1  0
 11  7  1  0
 12  8  1  0
 12 10  2  0
 13  3  1  0
 13  4  1  0
 13  9  1  0
 13 12  1  0
 14 11  2  0
M  END
>  <NAME>  (5705) 
BETA-IONONE

>  <SYNONYMS>  (5705) 
4-(2,6,6-TRIMETHYL-1-CYCLOHEXEN-1-YL)-3-BUTEN-2-ONE

>  <SPECTRUM TYPE>  (5705) 
MS1

>  <INSTRUMENT TYPE>  (5705) 
EI-B

>  <INSTRUMENT>  (5705) 
HITACHI RMU-6M

>  <ION MODE>  (5705) 
P

>  <INCHIKEY>  (5705) 
PSQYTAPXSHCGMF-BQYQJAHWSA-N

>  <FORMULA>  (5705) 
C13H20O

>  <EXACT MASS>  (5705) 
192.15141526

>  <MW>  (5705) 
192

>  <ID>  (5705) 
JP002590

>  <CONTRIBUTOR>  (5705) 
University of Tokyo Team, {Faculty of Engineering, University of Tokyo

>  <COMMENT>  (5705) 
SMILES=CC(=O)C=CC(=C(C)1)C(C)(C)CCC1
InChI=InChI=1S/C13H20O/c1-10-6-5-9-13(3,4)12(10)8-7-11(2)14/h7-8H,5-6,9H2,1-4H3/b8-7+
computed SMILES=O=C(C=CC1=C(C)CCCC1(C)C)C
accession=JP002590
date=2016.01.19 (Created 2008.10.21, modified 2011.05.06)
author=YAMAMOTO M, DEP. CHEMISTRY, FAC. SCIENCE, NARA WOMEN'S UNIV.
license=CC BY-NC-SA
exact mass=192.15142
ionization energy=70 eV
ion type=[M]+*
computed spectral entropy=3.3776939612570027
computed normalized entropy=0.8091472455408882
SPLASH=splash10-002f-8900000000-c13b694647d1f5e201bf
submitter=submitter = University of Tokyo Team (Faculty of Engineering, University of Tokyo)
MoNA Rating=3.75

>  <NUM PEAKS>  (5705) 
65

>  <MASS SPECTRAL PEAKS>  (5705) 
15 2.58
27 7.04
28 9.2
29 5.31
39 10.24
40 1.74
41 18.59
42 1.03
43 62.87
44 1.6
51 3.71
52 1.78
53 6.67
55 7.42
63 1.78
64 1.22
65 4.98
66 1.41
67 3.85
69 5.21
71 2.77
77 9.2
78 2.58
79 8.31
80 1.36
81 5.16
91 11.69
92 2.3
93 10.71
94 1.88
95 7
96 1.55
97 1.36
103 1.6
105 6.81
106 1.5
107 7.42
108 1.69
109 6.1
110 2.07
115 1.93
116 1.13
117 2.44
119 5.82
120 1.08
121 7.32
122 7.14
123 5.07
131 2.16
133 7.61
134 1.74
135 13.01
136 5.16
147 1.31
149 8.26
150 1.41
159 4.55
161 1.17
162 2.07
163 1.46
177 99.99
178 14.27
179 1.41
192 12.91
193 2.16

$$$$

     RDKit          2D

 29 28  0  0  1  0  0  0  0  0999 V2000
   -7.4695   12.1875    0.0000 C   0  0  0  0  0  0  0  0  0  0  0  0
   -8.7685    9.9375    0.0000 C   0  0  0  0  0  0  0  0  0  0  0  0
   -0.9743    5.4375    0.0000 C   0  0  0  0  0  0  0  0  0  0  0  0
   -3.5724    5.4375    0.0000 C   0  0  0  0  0  0  0  0  0  0  0  0
  -10.0675    6.1875    0.0000 C   0  0  0  0  0  0  0  0  0  0  0  0
    5.5209    7.6875    0.0000 C   0  0  0  0  0  0  0  0  0  0  0  0
  -13.9647    8.4375    0.0000 C   0  0  0  0  0  0  0  0  0  0  0  0
   -6.1704    9.9375    0.0000 C   0  0  0  0  0  0  0  0  0  0  0  0
    1.6238    8.4375    0.0000 C   0  0  0  0  0  0  0  0  0  0  0  0
   -7.4695   10.6875    0.0000 C   0  0  0  0  0  0  0  0  0  0  0  0
   -2.2733    6.1875    0.0000 C   0  0  0  0  0  0  0  0  0  0  0  0
  -10.0675    7.6875    0.0000 C   0  0  0  0  0  0  0  0  0  0  0  0
    4.2219    8.4375    0.0000 C   0  0  0  0  0  0  0  0  0  0  0  0
   -6.1704    8.4375    0.0000 C   0  0  0  0  0  0  0  0  0  0  0  0
    0.3248    7.6875    0.0000 C   0  0  0  0  0  0  0  0  0  0  0  0
   -2.2733    7.6875    0.0000 C   0  0  0  0  0  0  0  0  0  0  0  0
   -7.4695    7.6875    0.0000 C   0  0  0  0  0  0  0  0  0  0  0  0
   -3.5724    8.4375    0.0000 C   0  0  0  0  0  0  0  0  0  0  0  0
  -11.3666    8.4375    0.0000 C   0  0  0  0  0  0  0  0  0  0  0  0
    2.9228    7.6875    0.0000 N   0  0  0  0  0  0  0  0  0  0  0  0
   -8.7685    8.4375    0.0000 N   0  0  0  0  0  0  0  0  0  0  0  0
   -4.8714    7.6875    0.0000 N   0  0  0  0  0  0  0  0  0  0  0  0
   -0.9743    8.4375    0.0000 N   0  0  0  0  0  0  0  0  0  0  0  0
    4.2219    9.9375    0.0000 O   0  0  0  0  0  0  0  0  0  0  0  0
    0.3248    6.1875    0.0000 O   0  0  0  0  0  0  0  0  0  0  0  0
   -7.4695    6.1875    0.0000 O   0  0  0  0  0  0  0  0  0  0  0  0
   -3.5724    9.9375    0.0000 O   0  0  0  0  0  0  0  0  0  0  0  0
  -11.3666    9.9375    0.0000 O   0  0  0  0  0  0  0  0  0  0  0  0
  -12.6656    7.6875    0.0000 O   0  0  0  0  0  0  0  0  0  0  0  0
 10  1  1  0
 10  2  1  0
 10  8  1  0
 11  3  1  0
 11  4  1  0
 12  5  1  1
 13  6  1  0
 14  8  1  6
 15  9  1  0
 16 11  1  0
 17 14  1  0
 18 16  1  0
 19 12  1  0
 20  9  1  0
 20 13  2  3
 21 12  1  0
 21 17  2  3
 14 22  1  0
 22 18  2  3
 23 15  2  3
 16 23  1  6
 24 13  1  0
 25 15  1  0
 26 17  1  0
 27 18  1  0
 28 19  2  0
 29  7  1  0
 29 19  1  0
M  END
>  <NAME>  (5706) 
N-ACETYL-GLYCYL-VALYL-LEUCYL-ALANINE METHYL ESTER

>  <SYNONYMS>  (5706) 


>  <SPECTRUM TYPE>  (5706) 
MS1

>  <INSTRUMENT TYPE>  (5706) 
EI-B

>  <INSTRUMENT>  (5706) 
HITACHI RMU-6M

>  <ION MODE>  (5706) 
P

>  <INCHIKEY>  (5706) 
LJJHAWVPDHHHQY-DUVNUKRYSA-N

>  <FORMULA>  (5706) 
C19H34N4O6

>  <EXACT MASS>  (5706) 
414.247834808

>  <MW>  (5706) 
414

>  <ID>  (5706) 
JP002589

>  <CONTRIBUTOR>  (5706) 
University of Tokyo Team, {Faculty of Engineering, University of Tokyo

>  <COMMENT>  (5706) 
SMILES=CC(=O)NCC(=O)NC([H])(C(C)C)C(=O)NC([H])(CC(C)C)C(=O)NC([H])(C)C(=O)OC
InChI=InChI=1S/C19H34N4O6/c1-10(2)8-14(17(26)21-12(5)19(28)29-7)22-18(27)16(11(3)4)23-15(25)9-20-13(6)24/h10-12,14,16H,8-9H2,1-7H3,(H,20,24)(H,21,26)(H,22,27)(H,23,25)/t12-,14-,16+/m0/s1
computed SMILES=O=C(OC)C(N=C(O)C(N=C(O)C(N=C(O)CN=C(O)C)C(C)C)CC(C)C)C
accession=JP002589
date=2016.01.19 (Created 2008.10.21, modified 2011.05.06)
author=YAMAMOTO M, DEP. CHEMISTRY, FAC. SCIENCE, NARA WOMEN'S UNIV.
license=CC BY-NC-SA
exact mass=414.24783
ionization energy=70 eV
ion type=[M]+*
computed spectral entropy=2.807290115480613
computed normalized entropy=0.7070739826203358
SPLASH=splash10-00dr-9100000000-fee0b99ef02cc2a3b469
submitter=submitter = University of Tokyo Team (Faculty of Engineering, University of Tokyo)
MoNA Rating=3.75

>  <NUM PEAKS>  (5706) 
53

>  <MASS SPECTRAL PEAKS>  (5706) 
15 3.41
26 1.31
27 4.61
28 9.75
29 2.28
30 14.92
31 1.22
39 3.18
40 1.76
41 7.8
42 4.31
43 7.52
44 10.39
53 1.35
54 1.72
55 5.85
56 3.01
57 1.87
59 1.18
67 1.04
68 1.51
69 2.78
70 3.93
71 2.55
72 99.99
73 3.43
83 2.46
84 1.8
85 1.88
86 92.02
87 3.52
96 1
97 2.31
98 2.83
100 3.91
102 1.3
104 2.75
113 1.5
141 1.1
158 1.18
169 1.32
171 5.06
172 3.37
183 1.22
199 14.37
200 1.79
201 1.21
211 1.29
284 16.2
285 5.1
312 2.43
357 2.98
414 0.24

$$$$

     RDKit          2D

 30 29  0  0  1  0  0  0  0  0999 V2000
   -7.4695   12.1875    0.0000 C   0  0  0  0  0  0  0  0  0  0  0  0
   -8.7685    9.9375    0.0000 C   0  0  0  0  0  0  0  0  0  0  0  0
   -0.9743    5.4375    0.0000 C   0  0  0  0  0  0  0  0  0  0  0  0
   -3.5724    5.4375    0.0000 C   0  0  0  0  0  0  0  0  0  0  0  0
    1.6238    9.9375    0.0000 C   0  0  0  0  0  0  0  0  0  0  0  0
  -10.0675    6.1875    0.0000 C   0  0  0  0  0  0  0  0  0  0  0  0
    5.5209    7.6875    0.0000 C   0  0  0  0  0  0  0  0  0  0  0  0
  -13.9647    8.4375    0.0000 C   0  0  0  0  0  0  0  0  0  0  0  0
   -6.1704    9.9375    0.0000 C   0  0  0  0  0  0  0  0  0  0  0  0
   -7.4695   10.6875    0.0000 C   0  0  0  0  0  0  0  0  0  0  0  0
   -2.2733    6.1875    0.0000 C   0  0  0  0  0  0  0  0  0  0  0  0
    1.6238    8.4375    0.0000 C   0  0  0  0  0  0  0  0  0  0  0  0
  -10.0675    7.6875    0.0000 C   0  0  0  0  0  0  0  0  0  0  0  0
    4.2219    8.4375    0.0000 C   0  0  0  0  0  0  0  0  0  0  0  0
   -6.1704    8.4375    0.0000 C   0  0  0  0  0  0  0  0  0  0  0  0
   -2.2733    7.6875    0.0000 C   0  0  0  0  0  0  0  0  0  0  0  0
    0.3248    7.6875    0.0000 C   0  0  0  0  0  0  0  0  0  0  0  0
   -7.4695    7.6875    0.0000 C   0  0  0  0  0  0  0  0  0  0  0  0
   -3.5724    8.4375    0.0000 C   0  0  0  0  0  0  0  0  0  0  0  0
  -11.3666    8.4375    0.0000 C   0  0  0  0  0  0  0  0  0  0  0  0
    2.9228    7.6875    0.0000 N   0  0  0  0  0  0  0  0  0  0  0  0
   -8.7685    8.4375    0.0000 N   0  0  0  0  0  0  0  0  0  0  0  0
   -4.8714    7.6875    0.0000 N   0  0  0  0  0  0  0  0  0  0  0  0
   -0.9743    8.4375    0.0000 N   0  0  0  0  0  0  0  0  0  0  0  0
    4.2219    9.9375    0.0000 O   0  0  0  0  0  0  0  0  0  0  0  0
    0.3248    6.1875    0.0000 O   0  0  0  0  0  0  0  0  0  0  0  0
   -7.4695    6.1875    0.0000 O   0  0  0  0  0  0  0  0  0  0  0  0
   -3.5724    9.9375    0.0000 O   0  0  0  0  0  0  0  0  0  0  0  0
  -11.3666    9.9375    0.0000 O   0  0  0  0  0  0  0  0  0  0  0  0
  -12.6656    7.6875    0.0000 O   0  0  0  0  0  0  0  0  0  0  0  0
 10  1  1  0
 10  2  1  0
 10  9  1  0
 11  3  1  0
 11  4  1  0
 12  5  1  6
 13  6  1  1
 14  7  1  0
 15  9  1  6
 16 11  1  0
 17 12  1  0
 18 15  1  0
 19 16  1  0
 20 13  1  0
 21 12  1  0
 21 14  2  3
 22 13  1  0
 22 18  2  3
 15 23  1  0
 23 19  2  3
 16 24  1  6
 24 17  2  3
 25 14  1  0
 26 17  1  0
 27 18  1  0
 28 19  1  0
 29 20  2  0
 30  8  1  0
 30 20  1  0
M  END
>  <NAME>  (5707) 
N-ACETYL-ALANYL-VALYL-LEUCYL-ALANINE METHYL ESTER

>  <SYNONYMS>  (5707) 


>  <SPECTRUM TYPE>  (5707) 
MS1

>  <INSTRUMENT TYPE>  (5707) 
EI-B

>  <INSTRUMENT>  (5707) 
HITACHI RMU-6M

>  <ION MODE>  (5707) 
P

>  <INCHIKEY>  (5707) 
IJDVBFIHILPVAM-DARAHFNDSA-N

>  <FORMULA>  (5707) 
C20H36N4O6

>  <EXACT MASS>  (5707) 
428.26348487199994

>  <MW>  (5707) 
428

>  <ID>  (5707) 
JP002588

>  <CONTRIBUTOR>  (5707) 
University of Tokyo Team, {Faculty of Engineering, University of Tokyo

>  <COMMENT>  (5707) 
SMILES=COC(=O)C([H])(C)NC(=O)C([H])(CC(C)C)NC(=O)C([H])(C(C)C)NC(=O)C([H])(C)NC(C)=O
InChI=InChI=1S/C20H36N4O6/c1-10(2)9-15(18(27)22-13(6)20(29)30-8)23-19(28)16(11(3)4)24-17(26)12(5)21-14(7)25/h10-13,15-16H,9H2,1-8H3,(H,21,25)(H,22,27)(H,23,28)(H,24,26)/t12-,13-,15-,16+/m0/s1
computed SMILES=O=C(OC)C(N=C(O)C(N=C(O)C(N=C(O)C(N=C(O)C)C)C(C)C)CC(C)C)C
accession=JP002588
date=2016.01.19 (Created 2008.10.21, modified 2011.05.06)
author=YAMAMOTO M, DEP. CHEMISTRY, FAC. SCIENCE, NARA WOMEN'S UNIV.
license=CC BY-NC-SA
exact mass=428.26348
ionization energy=70 eV
ion type=[M]+*
computed spectral entropy=4.125352902051403
computed normalized entropy=0.8336134695223931
SPLASH=splash10-0076-9210000000-591c64cd7070bbbc0865
submitter=submitter = University of Tokyo Team (Faculty of Engineering, University of Tokyo)
MoNA Rating=3.75

>  <NUM PEAKS>  (5707) 
141

>  <MASS SPECTRAL PEAKS>  (5707) 
14 2.89
15 9.89
25 1.04
26 3.39
27 12.02
28 6.55
29 9.85
30 9.62
31 3.16
37 1.58
38 3.12
39 12.87
40 4.7
41 26.7
42 13.64
43 26.74
44 63.72
45 2.98
50 1.9
51 3.16
52 1.99
53 3.03
54 4.34
55 18.29
56 8.9
57 15.31
58 2.48
59 2.89
60 1.13
65 2.48
66 1.17
67 2.3
68 2.98
69 9.94
70 10.16
71 11.61
72 99.99
73 5.87
74 1.4
76 1.13
77 3.25
78 4.34
79 3.34
80 2.08
81 3.43
82 3.52
83 6.32
84 4.74
85 6.78
86 60.52
87 6.69
91 7.74
92 1.13
93 1.45
94 1.17
95 3.21
96 2.89
97 5.47
98 4.65
99 3.61
100 2.39
101 1.4
102 3.34
103 3.34
104 4.97
105 17.44
106 2.44
107 1.58
109 2.08
110 1.54
111 2.67
112 4.52
113 2.67
114 6.78
115 3.84
116 1.63
117 4.97
118 6.46
119 1.99
123 1.9
125 1.81
126 1.45
127 3.93
128 2.48
131 3.03
135 1.08
137 1.13
139 1.13
140 1.22
141 3.61
142 1.67
143 2.21
144 1.31
145 1.54
150 1.58
152 2.08
154 1.17
155 1.54
156 1.45
157 1.31
158 3.43
159 1.76
165 1.4
167 4.43
171 1.04
173 1.08
179 1.08
181 1.45
182 1.45
183 2.71
184 1.26
185 6.96
186 4.88
187 1.58
189 1.08
195 1.08
197 2.35
201 1.49
211 3.75
212 1.22
213 28.41
214 4.02
215 1.81
219 2.03
221 1.13
223 1.72
237 1.67
239 1.13
257 1.04
267 1.31
279 2.26
282 1.31
297 1.22
298 19.38
299 6.19
300 1.94
326 2.48
342 1.04
372 4.07
397 1.31
428 0.44

$$$$

     RDKit          2D

 11 10  0  0  0  0  0  0  0  0999 V2000
    2.2733    2.8125    0.0000 C   0  0  0  0  0  0  0  0  0  0  0  0
    0.9743    5.0625    0.0000 C   0  0  0  0  0  0  0  0  0  0  0  0
   -5.5209    2.8125    0.0000 C   0  0  0  0  0  0  0  0  0  0  0  0
   -4.2219    5.0625    0.0000 C   0  0  0  0  0  0  0  0  0  0  0  0
    0.9743    3.5625    0.0000 C   0  0  0  0  0  0  0  0  0  0  0  0
   -4.2219    3.5625    0.0000 C   0  0  0  0  0  0  0  0  0  0  0  0
   -0.3248    2.8125    0.0000 C   0  0  0  0  0  0  0  0  0  0  0  0
   -2.9228    2.8125    0.0000 C   0  0  0  0  0  0  0  0  0  0  0  0
   -0.3248    1.3125    0.0000 O   0  0  0  0  0  0  0  0  0  0  0  0
   -2.9228    1.3125    0.0000 O   0  0  0  0  0  0  0  0  0  0  0  0
   -1.6238    3.5625    0.0000 O   0  0  0  0  0  0  0  0  0  0  0  0
  5  1  1  0
  5  2  1  0
  6  3  1  0
  6  4  1  0
  7  5  1  0
  8  6  1  0
  9  7  2  0
 10  8  2  0
 11  7  1  0
 11  8  1  0
M  END
>  <NAME>  (5708) 
ISOBUTYRIC ANHYDRIDE

>  <SYNONYMS>  (5708) 


>  <SPECTRUM TYPE>  (5708) 
MS1

>  <INSTRUMENT TYPE>  (5708) 
EI-B

>  <INSTRUMENT>  (5708) 
HITACHI RMU-6M

>  <ION MODE>  (5708) 
P

>  <INCHIKEY>  (5708) 
LSACYLWPPQLVSM-UHFFFAOYSA-N

>  <FORMULA>  (5708) 
C8H14O3

>  <EXACT MASS>  (5708) 
158.09429430799997

>  <MW>  (5708) 
158

>  <ID>  (5708) 
JP002587

>  <CONTRIBUTOR>  (5708) 
University of Tokyo Team, {Faculty of Engineering, University of Tokyo

>  <COMMENT>  (5708) 
SMILES=CC(C)C(=O)OC(=O)C(C)C
InChI=InChI=1S/C8H14O3/c1-5(2)7(9)11-8(10)6(3)4/h5-6H,1-4H3
computed SMILES=O=C(OC(=O)C(C)C)C(C)C
accession=JP002587
date=2016.01.19 (Created 2008.10.21, modified 2011.05.06)
author=YAMAMOTO M, DEP. CHEMISTRY, FAC. SCIENCE, NARA WOMEN'S UNIV.
license=CC BY-NC-SA
exact mass=158.09429
ionization energy=70 eV
ion type=[M]+*
computed spectral entropy=1.5501918808093036
computed normalized entropy=0.6238431053100357
SPLASH=splash10-001l-9000000000-2c92346ab0274fdd8fcc
submitter=submitter = University of Tokyo Team (Faculty of Engineering, University of Tokyo)
MoNA Rating=3.75

>  <NUM PEAKS>  (5708) 
12

>  <MASS SPECTRAL PEAKS>  (5708) 
15 1.43
26 1.4
27 14.23
28 3.26
39 6.87
40 1.4
41 17.67
42 5.03
43 81.66
44 2.8
81 99.99
82 4.64

$$$$

     RDKit          2D

 11 10  0  0  0  0  0  0  0  0999 V2000
    2.5981    4.5000    0.0000 C   0  0  0  0  0  0  0  0  0  0  0  0
   -7.7942    4.5000    0.0000 C   0  0  0  0  0  0  0  0  0  0  0  0
    1.2990    5.2500    0.0000 C   0  0  0  0  0  0  0  0  0  0  0  0
   -6.4952    5.2500    0.0000 C   0  0  0  0  0  0  0  0  0  0  0  0
    0.0000    4.5000    0.0000 C   0  0  0  0  0  0  0  0  0  0  0  0
   -5.1962    4.5000    0.0000 C   0  0  0  0  0  0  0  0  0  0  0  0
   -1.2990    5.2500    0.0000 C   0  0  0  0  0  0  0  0  0  0  0  0
   -3.8971    5.2500    0.0000 C   0  0  0  0  0  0  0  0  0  0  0  0
   -1.2990    6.7500    0.0000 O   0  0  0  0  0  0  0  0  0  0  0  0
   -3.8971    6.7500    0.0000 O   0  0  0  0  0  0  0  0  0  0  0  0
   -2.5981    4.5000    0.0000 O   0  0  0  0  0  0  0  0  0  0  0  0
  3  1  1  0
  4  2  1  0
  5  3  1  0
  6  4  1  0
  7  5  1  0
  8  6  1  0
  9  7  2  0
 10  8  2  0
 11  7  1  0
 11  8  1  0
M  END
>  <NAME>  (5709) 
BUTYRIC ANHYDRIDE

>  <SYNONYMS>  (5709) 


>  <SPECTRUM TYPE>  (5709) 
MS1

>  <INSTRUMENT TYPE>  (5709) 
EI-B

>  <INSTRUMENT>  (5709) 
HITACHI RMU-6M

>  <ION MODE>  (5709) 
P

>  <INCHIKEY>  (5709) 
YHASWHZGWUONAO-UHFFFAOYSA-N

>  <FORMULA>  (5709) 
C8H14O3

>  <EXACT MASS>  (5709) 
158.09429430799997

>  <MW>  (5709) 
158

>  <ID>  (5709) 
JP002586

>  <CONTRIBUTOR>  (5709) 
University of Tokyo Team, {Faculty of Engineering, University of Tokyo

>  <COMMENT>  (5709) 
SMILES=CCCC(=O)OC(=O)CCC
InChI=InChI=1S/C8H14O3/c1-3-5-7(9)11-8(10)6-4-2/h3-6H2,1-2H3
computed SMILES=O=C(OC(=O)CCC)CCC
accession=JP002586
date=2016.01.19 (Created 2008.10.21, modified 2011.05.06)
author=YAMAMOTO M, DEP. CHEMISTRY, FAC. SCIENCE, NARA WOMEN'S UNIV.
license=CC BY-NC-SA
exact mass=158.09429
ionization energy=70 eV
ion type=[M]+*
computed spectral entropy=1.6389183952675461
computed normalized entropy=0.6052023683314608
SPLASH=splash10-001l-9000000000-21ca608b8d89fb906295
submitter=submitter = University of Tokyo Team (Faculty of Engineering, University of Tokyo)
MoNA Rating=3.75

>  <NUM PEAKS>  (5709) 
15

>  <MASS SPECTRAL PEAKS>  (5709) 
15 1.4
26 1.09
27 14.62
28 2.24
29 1.83
39 5.75
40 1.03
41 14.37
42 4.42
43 51.38
44 1.89
65 1.76
70 1.97
81 99.99
82 4.67

$$$$

     RDKit          2D

  9  9  0  0  0  0  0  0  0  0999 V2000
  -10.4600    6.3600    0.0000 C   0  0  0  0  0  0  0  0  0  0  0  0
  -11.3400    5.1500    0.0000 C   0  0  0  0  0  0  0  0  0  0  0  0
   -9.0300    5.9000    0.0000 C   0  0  0  0  0  0  0  0  0  0  0  0
  -10.4600    3.9300    0.0000 C   0  0  0  0  0  0  0  0  0  0  0  0
   -7.6000    6.3600    0.0000 C   0  0  0  0  0  0  0  0  0  0  0  0
   -9.0300    4.4000    0.0000 C   0  0  0  0  0  0  0  0  0  0  0  0
   -6.7200    5.1500    0.0000 C   0  0  0  0  0  0  0  0  0  0  0  0
   -7.6000    3.9300    0.0000 C   0  0  0  0  0  0  0  0  0  0  0  0
   -7.1364    2.5034    0.0000 O   0  0  0  0  0  0  0  0  0  0  0  0
  2  1  1  0
  3  1  1  0
  4  2  1  0
  5  3  1  0
  6  4  1  0
  7  5  1  0
  8  6  1  0
  8  7  1  0
  9  8  2  0
M  END
>  <NAME>  (5710) 
CYCLOOCTANONE

>  <SYNONYMS>  (5710) 


>  <SPECTRUM TYPE>  (5710) 
MS1

>  <INSTRUMENT TYPE>  (5710) 
EI-B

>  <INSTRUMENT>  (5710) 
HITACHI RMU-6M

>  <ION MODE>  (5710) 
P

>  <INCHIKEY>  (5710) 
IIRFCWANHMSDCG-UHFFFAOYSA-N

>  <FORMULA>  (5710) 
C8H14O

>  <EXACT MASS>  (5710) 
126.104465068

>  <MW>  (5710) 
126

>  <ID>  (5710) 
JP002585

>  <CONTRIBUTOR>  (5710) 
University of Tokyo Team, {Faculty of Engineering, University of Tokyo

>  <COMMENT>  (5710) 
SMILES=O=C(C1)CCCCCC1
InChI=InChI=1S/C8H14O/c9-8-6-4-2-1-3-5-7-8/h1-7H2
computed SMILES=O=C1CCCCCCC1
accession=JP002585
date=2016.01.19 (Created 2008.10.21, modified 2011.05.06)
author=YAMAMOTO M, DEP. CHEMISTRY, FAC. SCIENCE, NARA WOMEN'S UNIV.
license=CC BY-NC-SA
exact mass=126.10447
ionization energy=70 eV
ion type=[M]+*
computed spectral entropy=3.2192364725320766
computed normalized entropy=0.8315859764091886
SPLASH=splash10-0537-9000000000-0250ac590e2457da19e3
submitter=submitter = University of Tokyo Team (Faculty of Engineering, University of Tokyo)
MoNA Rating=3.75

>  <NUM PEAKS>  (5710) 
48

>  <MASS SPECTRAL PEAKS>  (5710) 
15 3.74
26 4.22
27 42.32
28 20.26
29 29.68
38 2.2
39 39.62
40 8.68
41 85.33
42 75.91
43 15.72
44 1.28
50 1.57
51 3.21
52 1.56
53 8.52
54 10.83
55 70.31
56 40.52
57 6.69
58 6.51
59 1.22
65 1.43
66 1.18
67 20.9
68 17.2
69 25.68
70 21.88
71 7.35
72 1.7
77 1.02
79 4.26
80 3.65
81 2.49
82 48.26
83 38.62
84 49.16
85 3.82
93 5.9
95 1.33
97 24.07
98 99.99
99 6.75
108 1.41
111 9.3
112 1.04
126 31.02
127 3.22

$$$$

     RDKit          2D

  8  8  0  0  0  0  0  0  0  0999 V2000
    0.0000    1.5000    0.0000 C   0  0  0  0  0  0  0  0  0  0  0  0
    0.0000    0.0000    0.0000 C   0  0  0  0  0  0  0  0  0  0  0  0
   -1.1727    2.4352    0.0000 C   0  0  0  0  0  0  0  0  0  0  0  0
   -1.1727   -0.9352    0.0000 C   0  0  0  0  0  0  0  0  0  0  0  0
   -2.6351    2.1015    0.0000 C   0  0  0  0  0  0  0  0  0  0  0  0
   -2.6351   -0.6015    0.0000 C   0  0  0  0  0  0  0  0  0  0  0  0
   -3.2860    0.7500    0.0000 C   0  0  0  0  0  0  0  0  0  0  0  0
   -4.7860    0.7500    0.0000 O   0  0  0  0  0  0  0  0  0  0  0  0
  2  1  1  0
  3  1  1  0
  4  2  1  0
  5  3  1  0
  6  4  1  0
  7  5  1  0
  7  6  1  0
  8  7  2  0
M  END
>  <NAME>  (5711) 
CYCLOHEPTANONE

>  <SYNONYMS>  (5711) 


>  <SPECTRUM TYPE>  (5711) 
MS1

>  <INSTRUMENT TYPE>  (5711) 
EI-B

>  <INSTRUMENT>  (5711) 
HITACHI RMU-6M

>  <ION MODE>  (5711) 
P

>  <INCHIKEY>  (5711) 
CGZZMOTZOONQIA-UHFFFAOYSA-N

>  <FORMULA>  (5711) 
C7H12O

>  <EXACT MASS>  (5711) 
112.088815004

>  <MW>  (5711) 
112

>  <ID>  (5711) 
JP002584

>  <CONTRIBUTOR>  (5711) 
University of Tokyo Team, {Faculty of Engineering, University of Tokyo

>  <COMMENT>  (5711) 
SMILES=O=C(C1)CCCCC1
InChI=InChI=1S/C7H12O/c8-7-5-3-1-2-4-6-7/h1-6H2
computed SMILES=O=C1CCCCCC1
accession=JP002584
date=2016.01.19 (Created 2008.10.21, modified 2011.05.06)
author=YAMAMOTO M, DEP. CHEMISTRY, FAC. SCIENCE, NARA WOMEN'S UNIV.
license=CC BY-NC-SA
exact mass=112.08882
ionization energy=70 eV
ion type=[M]+*
computed spectral entropy=2.881452748836541
computed normalized entropy=0.8171180254322358
SPLASH=splash10-066u-9000000000-ed71a0e9af8214edb182
submitter=submitter = University of Tokyo Team (Faculty of Engineering, University of Tokyo)
MoNA Rating=3.75

>  <NUM PEAKS>  (5711) 
34

>  <MASS SPECTRAL PEAKS>  (5711) 
15 2.85
26 4.5
27 33.75
28 22.98
29 14.46
38 2.41
39 31.71
40 7.45
41 74.67
42 34.76
43 19.93
50 1.83
51 2.68
52 1.11
53 5.64
54 4.44
55 78.14
56 51.66
57 3.6
58 3.48
67 4.85
68 99.99
69 29.97
70 11.96
71 1.69
79 2.95
81 1.02
83 13.99
84 38.4
85 2.39
94 3.16
97 7.2
112 44.2
113 3.55

$$$$

     RDKit          2D

  8  8  0  0  0  0  0  0  0  0999 V2000
   -2.6070    1.5036    0.0000 C   0  0  0  0  0  0  0  0  0  0  0  0
   -0.0127    1.4972    0.0000 C   0  0  0  0  0  0  0  0  0  0  0  0
   -1.3262   -0.7277    0.0000 C   0  0  0  0  0  0  0  0  0  0  0  0
    1.2718    0.7723    0.0000 C   0  0  0  0  0  0  0  0  0  0  0  0
   -0.0017   -1.5218    0.0000 C   0  0  0  0  0  0  0  0  0  0  0  0
   -1.3117    0.7472    0.0000 C   0  0  0  0  0  0  0  0  0  0  0  0
    1.2973   -0.7718    0.0000 C   0  0  0  0  0  0  0  0  0  0  0  0
    2.6025   -1.5111    0.0000 O   0  0  0  0  0  0  0  0  0  0  0  0
  4  2  1  0
  5  3  1  0
  6  1  1  0
  6  2  1  0
  6  3  1  0
  7  4  1  0
  7  5  1  0
  8  7  2  0
M  END
>  <NAME>  (5712) 
4-METHYLCYCLOHEXANONE

>  <SYNONYMS>  (5712) 


>  <SPECTRUM TYPE>  (5712) 
MS1

>  <INSTRUMENT TYPE>  (5712) 
EI-B

>  <INSTRUMENT>  (5712) 
HITACHI RMU-6M

>  <ION MODE>  (5712) 
P

>  <INCHIKEY>  (5712) 
VGVHNLRUAMRIEW-UHFFFAOYSA-N

>  <FORMULA>  (5712) 
C7H12O

>  <EXACT MASS>  (5712) 
112.088815004

>  <MW>  (5712) 
112

>  <ID>  (5712) 
JP002583

>  <CONTRIBUTOR>  (5712) 
University of Tokyo Team, {Faculty of Engineering, University of Tokyo

>  <COMMENT>  (5712) 
SMILES=CC(C1)CCC(=O)C1
InChI=InChI=1S/C7H12O/c1-6-2-4-7(8)5-3-6/h6H,2-5H2,1H3
computed SMILES=O=C1CCC(C)CC1
accession=JP002583
date=2016.01.19 (Created 2008.10.21, modified 2011.05.06)
author=YAMAMOTO M, DEP. CHEMISTRY, FAC. SCIENCE, NARA WOMEN'S UNIV.
license=CC BY-NC-SA
exact mass=112.08882
ionization energy=70 eV
ion type=[M]+*
computed spectral entropy=2.9080381347197934
computed normalized entropy=0.8179334581103017
SPLASH=splash10-0a4i-9000000000-bd3f17996e8684297021
submitter=submitter = University of Tokyo Team (Faculty of Engineering, University of Tokyo)
MoNA Rating=3.75

>  <NUM PEAKS>  (5712) 
35

>  <MASS SPECTRAL PEAKS>  (5712) 
15 2.08
26 3.69
27 26.36
28 16.12
29 18.74
38 1.67
39 21.46
40 4.59
41 49.16
42 15.01
43 7.75
50 1.88
51 2.92
52 1.47
53 5.74
54 3.12
55 99.99
56 34.08
57 20.82
58 1.78
67 3.32
68 7.99
69 12.69
70 19.27
71 1.37
79 5.49
81 1.34
83 25.08
85 1.54
94 11.58
95 1.44
96 1.17
97 7.25
112 36.51
113 3.09

$$$$

     RDKit          2D

  8  8  0  0  0  0  0  0  0  0999 V2000
   -0.6520   -2.2491    0.0000 C   0  0  0  0  0  0  0  0  0  0  0  0
   -1.9467    1.4939    0.0000 C   0  0  0  0  0  0  0  0  0  0  0  0
   -1.9512    0.0017    0.0000 C   0  0  0  0  0  0  0  0  0  0  0  0
   -0.6477    2.2439    0.0000 C   0  0  0  0  0  0  0  0  0  0  0  0
    0.6473    0.0009    0.0000 C   0  0  0  0  0  0  0  0  0  0  0  0
   -0.6517   -0.7491    0.0000 C   0  0  0  0  0  0  0  0  0  0  0  0
    0.6468    1.5017    0.0000 C   0  0  0  0  0  0  0  0  0  0  0  0
    1.9446    2.2539    0.0000 O   0  0  0  0  0  0  0  0  0  0  0  0
  3  2  1  0
  4  2  1  0
  6  1  1  0
  6  3  1  0
  6  5  1  0
  7  4  1  0
  7  5  1  0
  8  7  2  0
M  END
>  <NAME>  (5713) 
3-METHYLCYCLOHEXANONE

>  <SYNONYMS>  (5713) 


>  <SPECTRUM TYPE>  (5713) 
MS1

>  <INSTRUMENT TYPE>  (5713) 
EI-B

>  <INSTRUMENT>  (5713) 
HITACHI RMU-6M

>  <ION MODE>  (5713) 
P

>  <INCHIKEY>  (5713) 
UJBOOUHRTQVGRU-UHFFFAOYSA-N

>  <FORMULA>  (5713) 
C7H12O

>  <EXACT MASS>  (5713) 
112.088815004

>  <MW>  (5713) 
112

>  <ID>  (5713) 
JP002582

>  <CONTRIBUTOR>  (5713) 
University of Tokyo Team, {Faculty of Engineering, University of Tokyo

>  <COMMENT>  (5713) 
SMILES=CC(C1)CC(=O)CC1
InChI=InChI=1S/C7H12O/c1-6-3-2-4-7(8)5-6/h6H,2-5H2,1H3
computed SMILES=O=C1CCCC(C)C1
accession=JP002582
date=2016.01.19 (Created 2008.10.21, modified 2011.05.06)
author=YAMAMOTO M, DEP. CHEMISTRY, FAC. SCIENCE, NARA WOMEN'S UNIV.
license=CC BY-NC-SA
exact mass=112.08882
ionization energy=70 eV
ion type=[M]+*
computed spectral entropy=2.716821905029318
computed normalized entropy=0.7911566768451742
SPLASH=splash10-066u-9000000000-65c140dd9265ef2fc5ac
submitter=submitter = University of Tokyo Team (Faculty of Engineering, University of Tokyo)
MoNA Rating=3.75

>  <NUM PEAKS>  (5713) 
31

>  <MASS SPECTRAL PEAKS>  (5713) 
15 2.09
26 2.09
27 17.01
28 5.65
29 8.13
38 2.06
39 22.47
40 5.6
41 44.25
42 25.14
43 5.6
50 1.14
51 1.95
53 3.92
54 1.73
55 24.08
56 44.91
57 3.5
67 2.98
68 10.02
69 99.99
70 7.88
71 1.61
79 3.81
81 1.19
83 3.06
84 4.57
94 7.57
97 12.05
112 30.82
113 2.48

$$$$

     RDKit          2D

  8  8  0  0  0  0  0  0  0  0999 V2000
    1.9489    1.5002    0.0000 C   0  0  0  0  0  0  0  0  0  0  0  0
   -1.9500    0.7500    0.0000 C   0  0  0  0  0  0  0  0  0  0  0  0
   -1.9500   -0.7500    0.0000 C   0  0  0  0  0  0  0  0  0  0  0  0
   -0.6500    1.5000    0.0000 C   0  0  0  0  0  0  0  0  0  0  0  0
   -0.6500   -1.5000    0.0000 C   0  0  0  0  0  0  0  0  0  0  0  0
    0.6500    0.7500    0.0000 C   0  0  0  0  0  0  0  0  0  0  0  0
    0.6500   -0.7500    0.0000 C   0  0  0  0  0  0  0  0  0  0  0  0
    1.9489   -1.5002    0.0000 O   0  0  0  0  0  0  0  0  0  0  0  0
  3  2  1  0
  4  2  1  0
  5  3  1  0
  6  1  1  0
  6  4  1  0
  7  5  1  0
  7  6  1  0
  8  7  2  0
M  END
>  <NAME>  (5714) 
2-METHYLCYCLOHEXANONE

>  <SYNONYMS>  (5714) 


>  <SPECTRUM TYPE>  (5714) 
MS1

>  <INSTRUMENT TYPE>  (5714) 
EI-B

>  <INSTRUMENT>  (5714) 
HITACHI RMU-6M

>  <ION MODE>  (5714) 
P

>  <INCHIKEY>  (5714) 
LFSAPCRASZRSKS-UHFFFAOYSA-N

>  <FORMULA>  (5714) 
C7H12O

>  <EXACT MASS>  (5714) 
112.088815004

>  <MW>  (5714) 
112

>  <ID>  (5714) 
JP002581

>  <CONTRIBUTOR>  (5714) 
University of Tokyo Team, {Faculty of Engineering, University of Tokyo

>  <COMMENT>  (5714) 
SMILES=CC(C1)C(=O)CCC1
InChI=InChI=1S/C7H12O/c1-6-4-2-3-5-7(6)8/h6H,2-5H2,1H3
computed SMILES=O=C1CCCCC1C
accession=JP002581
date=2016.01.19 (Created 2008.10.21, modified 2011.05.06)
author=YAMAMOTO M, DEP. CHEMISTRY, FAC. SCIENCE, NARA WOMEN'S UNIV.
license=CC BY-NC-SA
exact mass=112.08882
ionization energy=70 eV
ion type=[M]+*
computed spectral entropy=2.8941903106985714
computed normalized entropy=0.8140385303052808
SPLASH=splash10-014l-9000000000-583da36651420dac2bf9
submitter=submitter = University of Tokyo Team (Faculty of Engineering, University of Tokyo)
MoNA Rating=3.75

>  <NUM PEAKS>  (5714) 
35

>  <MASS SPECTRAL PEAKS>  (5714) 
15 2.28
26 3.71
27 28.82
28 15.72
29 12.98
38 2.1
39 27.73
40 6.55
41 65.39
42 35.01
43 10.45
50 1.67
51 2.59
52 1.28
53 5.45
54 33.82
55 51.74
57 4.39
58 3.96
67 6.21
68 99.99
69 39.09
70 9.78
71 2.68
79 2.74
81 1.61
83 10.48
84 27.88
85 1.98
94 4.26
96 1.06
97 7.55
98 1.52
112 42.69
113 3.41

$$$$

     RDKit          2D

 10  9  0  0  0  0  0  0  0  0999 V2000
    2.5981    4.5000    0.0000 C   0  0  0  0  0  0  0  0  0  0  0  0
   -7.7942    4.5000    0.0000 C   0  0  0  0  0  0  0  0  0  0  0  0
    1.2990    5.2500    0.0000 C   0  0  0  0  0  0  0  0  0  0  0  0
   -6.4952    5.2500    0.0000 C   0  0  0  0  0  0  0  0  0  0  0  0
    0.0000    4.5000    0.0000 C   0  0  0  0  0  0  0  0  0  0  0  0
   -5.1962    4.5000    0.0000 C   0  0  0  0  0  0  0  0  0  0  0  0
   -1.2990    5.2500    0.0000 C   0  0  0  0  0  0  0  0  0  0  0  0
   -3.8971    5.2500    0.0000 C   0  0  0  0  0  0  0  0  0  0  0  0
   -2.5981    4.5000    0.0000 C   0  0  0  0  0  0  0  0  0  0  0  0
   -2.5981    3.0000    0.0000 O   0  0  0  0  0  0  0  0  0  0  0  0
  3  1  1  0
  4  2  1  0
  5  3  1  0
  6  4  1  0
  7  5  1  0
  8  6  1  0
  9  7  1  0
  9  8  1  0
 10  9  2  0
M  END
>  <NAME>  (5715) 
5-NONANONE

>  <SYNONYMS>  (5715) 
DIBUTYL KETONE

>  <SPECTRUM TYPE>  (5715) 
MS1

>  <INSTRUMENT TYPE>  (5715) 
EI-B

>  <INSTRUMENT>  (5715) 
HITACHI RMU-6M

>  <ION MODE>  (5715) 
P

>  <INCHIKEY>  (5715) 
WSGCRAOTEDLMFQ-UHFFFAOYSA-N

>  <FORMULA>  (5715) 
C9H18O

>  <EXACT MASS>  (5715) 
142.135765196

>  <MW>  (5715) 
142

>  <ID>  (5715) 
JP002580

>  <CONTRIBUTOR>  (5715) 
University of Tokyo Team, {Faculty of Engineering, University of Tokyo

>  <COMMENT>  (5715) 
computed SMILES=O=C(CCCC)CCCC
SMILES=CCCCC(=O)CCCC
InChI=InChI=1S/C9H18O/c1-3-5-7-9(10)8-6-4-2/h3-8H2,1-2H3
accession=JP002580
date=2016.01.19 (Created 2008.10.21, modified 2011.05.06)
author=YAMAMOTO M, DEP. CHEMISTRY, FAC. SCIENCE, NARA WOMEN'S UNIV.
license=CC BY-NC-SA
exact mass=142.13577
ionization energy=70 eV
ion type=[M]+*
computed spectral entropy=2.384953515252592
computed normalized entropy=0.7320082408303602
SPLASH=splash10-0a4i-9000000000-fa8c242876cff36ca65d
submitter=submitter = University of Tokyo Team (Faculty of Engineering, University of Tokyo)
MoNA Rating=3.75

>  <NUM PEAKS>  (5715) 
26

>  <MASS SPECTRAL PEAKS>  (5715) 
15 1.4
26 1.2
27 17.92
28 7.24
29 41.01
30 1.09
39 9.05
40 1.35
41 36.22
42 3.06
43 5.2
53 2.07
55 4.9
56 1.99
57 99.99
58 78.04
59 5.66
71 6.86
72 3.98
84 1.1
85 88.14
86 5.36
100 8.91
113 5.51
142 15.75
143 1.73

$$$$

     RDKit          2D

 10  9  0  0  0  0  0  0  0  0999 V2000
    2.5981    4.5000    0.0000 C   0  0  0  0  0  0  0  0  0  0  0  0
   -7.7942    4.5000    0.0000 C   0  0  0  0  0  0  0  0  0  0  0  0
    1.2990    5.2500    0.0000 C   0  0  0  0  0  0  0  0  0  0  0  0
   -6.4952    5.2500    0.0000 C   0  0  0  0  0  0  0  0  0  0  0  0
    0.0000    4.5000    0.0000 C   0  0  0  0  0  0  0  0  0  0  0  0
   -1.2990    5.2500    0.0000 C   0  0  0  0  0  0  0  0  0  0  0  0
   -5.1962    4.5000    0.0000 C   0  0  0  0  0  0  0  0  0  0  0  0
   -2.5981    4.5000    0.0000 C   0  0  0  0  0  0  0  0  0  0  0  0
   -3.8971    5.2500    0.0000 C   0  0  0  0  0  0  0  0  0  0  0  0
   -3.8971    6.7500    0.0000 O   0  0  0  0  0  0  0  0  0  0  0  0
  3  1  1  0
  4  2  1  0
  5  3  1  0
  6  5  1  0
  7  4  1  0
  8  6  1  0
  9  7  1  0
  9  8  1  0
 10  9  2  0
M  END
>  <NAME>  (5716) 
4-NONANONE

>  <SYNONYMS>  (5716) 
PENTYL PROPYL KETONE

>  <SPECTRUM TYPE>  (5716) 
MS1

>  <INSTRUMENT TYPE>  (5716) 
EI-B

>  <INSTRUMENT>  (5716) 
HITACHI RMU-6M

>  <ION MODE>  (5716) 
P

>  <INCHIKEY>  (5716) 
TYBCSQFBSWACAA-UHFFFAOYSA-N

>  <FORMULA>  (5716) 
C9H18O

>  <EXACT MASS>  (5716) 
142.135765196

>  <MW>  (5716) 
142

>  <ID>  (5716) 
JP002579

>  <CONTRIBUTOR>  (5716) 
University of Tokyo Team, {Faculty of Engineering, University of Tokyo

>  <COMMENT>  (5716) 
SMILES=CCCCCC(=O)CCC
InChI=InChI=1S/C9H18O/c1-3-5-6-8-9(10)7-4-2/h3-8H2,1-2H3
computed SMILES=O=C(CCC)CCCCC
accession=JP002579
date=2016.01.19 (Created 2008.10.21, modified 2011.05.06)
author=YAMAMOTO M, DEP. CHEMISTRY, FAC. SCIENCE, NARA WOMEN'S UNIV.
license=CC BY-NC-SA
exact mass=142.13577
ionization energy=70 eV
ion type=[M]+*
computed spectral entropy=2.438058324362974
computed normalized entropy=0.7574254047102927
SPLASH=splash10-0006-9000000000-ed1056ec4790ac686ee3
submitter=submitter = University of Tokyo Team (Faculty of Engineering, University of Tokyo)
MoNA Rating=3.75

>  <NUM PEAKS>  (5716) 
25

>  <MASS SPECTRAL PEAKS>  (5716) 
15 1.46
27 19.7
28 3.15
29 13.14
39 8.79
40 1.63
41 21.99
42 4.87
43 99.99
44 3.38
53 1.54
55 5.84
56 1.08
57 2.43
58 42.67
59 1.86
70 1.8
71 57.81
72 3.26
86 23.91
87 3.37
99 43.67
100 3.78
142 11.83
143 1.43

$$$$

     RDKit          2D

  9  8  0  0  0  0  0  0  0  0999 V2000
   -6.4952    4.5000    0.0000 C   0  0  0  0  0  0  0  0  0  0  0  0
    2.5981    3.7500    0.0000 C   0  0  0  0  0  0  0  0  0  0  0  0
   -5.1962    3.7500    0.0000 C   0  0  0  0  0  0  0  0  0  0  0  0
    1.2990    4.5000    0.0000 C   0  0  0  0  0  0  0  0  0  0  0  0
   -3.8971    4.5000    0.0000 C   0  0  0  0  0  0  0  0  0  0  0  0
   -2.5981    3.7500    0.0000 C   0  0  0  0  0  0  0  0  0  0  0  0
   -1.2990    4.5000    0.0000 C   0  0  0  0  0  0  0  0  0  0  0  0
    0.0000    3.7500    0.0000 C   0  0  0  0  0  0  0  0  0  0  0  0
   -0.0000    2.2500    0.0000 O   0  0  0  0  0  0  0  0  0  0  0  0
  3  1  1  0
  4  2  1  0
  5  3  1  0
  6  5  1  0
  7  6  1  0
  8  4  1  0
  8  7  1  0
  9  8  2  0
M  END
>  <NAME>  (5717) 
3-OCTANONE

>  <SYNONYMS>  (5717) 
ETHYL PENTYL KETONE

>  <SPECTRUM TYPE>  (5717) 
MS1

>  <INSTRUMENT TYPE>  (5717) 
EI-B

>  <INSTRUMENT>  (5717) 
HITACHI RMU-6M

>  <ION MODE>  (5717) 
P

>  <INCHIKEY>  (5717) 
RHLVCLIPMVJYKS-UHFFFAOYSA-N

>  <FORMULA>  (5717) 
C8H16O

>  <EXACT MASS>  (5717) 
128.120115132

>  <MW>  (5717) 
128

>  <ID>  (5717) 
JP002578

>  <CONTRIBUTOR>  (5717) 
University of Tokyo Team, {Faculty of Engineering, University of Tokyo

>  <COMMENT>  (5717) 
SMILES=CCCCCC(=O)CC
InChI=InChI=1S/C8H16O/c1-3-5-6-7-8(9)4-2/h3-7H2,1-2H3
computed SMILES=O=C(CC)CCCCC
accession=JP002578
date=2016.01.19 (Created 2008.10.21, modified 2011.05.06)
author=YAMAMOTO M, DEP. CHEMISTRY, FAC. SCIENCE, NARA WOMEN'S UNIV.
license=CC BY-NC-SA
exact mass=128.12012
ionization energy=70 eV
ion type=[M]+*
computed spectral entropy=2.5723547685842783
computed normalized entropy=0.7719678551329452
SPLASH=splash10-05bf-9000000000-781901ca764a5f841104
submitter=submitter = University of Tokyo Team (Faculty of Engineering, University of Tokyo)
MoNA Rating=3.75

>  <NUM PEAKS>  (5717) 
28

>  <MASS SPECTRAL PEAKS>  (5717) 
15 1.76
26 2.3
27 29.18
28 8.17
29 70.91
30 1.82
39 11.4
40 1.89
41 22.16
42 5.67
43 99.99
44 3.61
51 1.04
53 2.24
55 9.95
56 3.06
57 88.8
58 4.95
71 48.19
72 69.8
73 7.72
81 1.3
85 9.64
86 2.52
99 54.81
100 4
128 17.83
129 1.72

$$$$

     RDKit          2D

 10 10  0  0  0  0  0  0  0  0999 V2000
   -3.5724    2.0075    0.0000 C   0  0  0  0  0  0  0  0  0  0  0  0
   -2.2733    1.2575    0.0000 C   0  0  0  0  0  0  0  0  0  0  0  0
    2.9228   -0.2425    0.0000 C   0  0  0  0  0  0  0  0  0  0  0  0
    2.9233    1.2583    0.0000 C   0  0  0  0  0  0  0  0  0  0  0  0
    1.6233   -0.9933    0.0000 C   0  0  0  0  0  0  0  0  0  0  0  0
    1.6243    2.0083    0.0000 C   0  0  0  0  0  0  0  0  0  0  0  0
    0.3243   -0.2433    0.0000 C   0  0  0  0  0  0  0  0  0  0  0  0
    0.3248    1.2575    0.0000 C   0  0  0  0  0  0  0  0  0  0  0  0
   -0.9743    2.0075    0.0000 C   0  0  0  0  0  0  0  0  0  0  0  0
   -0.9743    3.5075    0.0000 O   0  0  0  0  0  0  0  0  0  0  0  0
  2  1  1  0
  4  3  2  0
  5  3  1  0
  6  4  1  0
  7  5  2  0
  8  6  2  0
  8  7  1  0
  9  2  1  0
  9  8  1  0
 10  9  2  0
M  END
>  <NAME>  (5718) 
PROPIOPHENONE

>  <SYNONYMS>  (5718) 
ETHYL PHENYL KETONE

>  <SPECTRUM TYPE>  (5718) 
MS1

>  <INSTRUMENT TYPE>  (5718) 
EI-B

>  <INSTRUMENT>  (5718) 
HITACHI RMU-6M

>  <ION MODE>  (5718) 
P

>  <INCHIKEY>  (5718) 
KRIOVPPHQSLHCZ-UHFFFAOYSA-N

>  <FORMULA>  (5718) 
C9H10O

>  <EXACT MASS>  (5718) 
134.07316494

>  <MW>  (5718) 
134

>  <ID>  (5718) 
JP002577

>  <CONTRIBUTOR>  (5718) 
University of Tokyo Team, {Faculty of Engineering, University of Tokyo

>  <COMMENT>  (5718) 
SMILES=CCC(=O)c(c1)cccc1
InChI=InChI=1S/C9H10O/c1-2-9(10)8-6-4-3-5-7-8/h3-7H,2H2,1H3
computed SMILES=O=C(C=1C=CC=CC1)CC
accession=JP002577
date=2016.01.19 (Created 2008.10.21, modified 2011.05.06)
author=YAMAMOTO M, DEP. CHEMISTRY, FAC. SCIENCE, NARA WOMEN'S UNIV.
license=CC BY-NC-SA
exact mass=134.07316
ionization energy=70 eV
ion type=[M]+*
computed spectral entropy=1.8482950853124314
computed normalized entropy=0.6277240243014569
SPLASH=splash10-0a4i-6900000000-d7f1dd2a42332aa8bb1a
submitter=submitter = University of Tokyo Team (Faculty of Engineering, University of Tokyo)
MoNA Rating=3.75

>  <NUM PEAKS>  (5718) 
19

>  <MASS SPECTRAL PEAKS>  (5718) 
27 4.53
28 1.18
29 3.47
38 1.01
39 2.09
50 5.93
51 18.73
52 1.36
55 1.02
57 1.02
74 1.74
75 1.32
77 49.88
78 4.08
105 99.99
106 8.04
133 1.1
134 20.82
135 2.11

$$$$

     RDKit          2D

  7  6  0  0  0  0  0  0  0  0999 V2000
    1.6238    1.6875    0.0000 C   0  0  0  0  0  0  0  0  0  0  0  0
   -3.5724    1.6875    0.0000 C   0  0  0  0  0  0  0  0  0  0  0  0
   -0.9743    1.6875    0.0000 C   0  0  0  0  0  0  0  0  0  0  0  0
    0.3248    2.4375    0.0000 C   0  0  0  0  0  0  0  0  0  0  0  0
   -2.2733    2.4375    0.0000 C   0  0  0  0  0  0  0  0  0  0  0  0
    0.3248    3.9375    0.0000 O   0  0  0  0  0  0  0  0  0  0  0  0
   -2.2733    3.9375    0.0000 O   0  0  0  0  0  0  0  0  0  0  0  0
  4  1  1  0
  4  3  1  0
  5  2  1  0
  5  3  1  0
  6  4  2  0
  7  5  2  0
M  END
>  <NAME>  (5719) 
ACETYLACETONE

>  <SYNONYMS>  (5719) 


>  <SPECTRUM TYPE>  (5719) 
MS1

>  <INSTRUMENT TYPE>  (5719) 
EI-B

>  <INSTRUMENT>  (5719) 
HITACHI RMU-6M

>  <ION MODE>  (5719) 
P

>  <INCHIKEY>  (5719) 
YRKCREAYFQTBPV-UHFFFAOYSA-N

>  <FORMULA>  (5719) 
C5H8O2

>  <EXACT MASS>  (5719) 
100.052429496

>  <MW>  (5719) 
100

>  <ID>  (5719) 
JP002576

>  <CONTRIBUTOR>  (5719) 
University of Tokyo Team, {Faculty of Engineering, University of Tokyo

>  <COMMENT>  (5719) 
SMILES=CC(=O)CC(C)=O
InChI=InChI=1S/C5H8O2/c1-4(6)3-5(2)7/h3H2,1-2H3
computed SMILES=O=C(C)CC(=O)C
accession=JP002576
date=2016.01.19 (Created 2008.10.21, modified 2011.05.06)
author=YAMAMOTO M, DEP. CHEMISTRY, FAC. SCIENCE, NARA WOMEN'S UNIV.
license=CC BY-NC-SA
exact mass=100.05243
ionization energy=70 eV
ion type=[M]+*
computed spectral entropy=2.1001681280068607
computed normalized entropy=0.6698044975932166
SPLASH=splash10-000f-9100000000-339a18cfa2c9fef9fc0e
submitter=submitter = University of Tokyo Team (Faculty of Engineering, University of Tokyo)
MoNA Rating=3.75

>  <NUM PEAKS>  (5719) 
23

>  <MASS SPECTRAL PEAKS>  (5719) 
14 1.96
15 9.86
26 2.4
27 7.79
28 1.19
29 5.1
31 4.42
37 1.06
38 1.84
39 5.98
40 1.08
41 6.7
42 6.7
43 99.99
44 2.39
55 2.17
58 3.18
69 1.29
72 3.42
85 50.68
86 2.35
100 34.5
101 2.15

$$$$

     RDKit          2D

  9  8  0  0  0  0  0  0  0  0999 V2000
    1.9486    3.3750    0.0000 C   0  0  0  0  0  0  0  0  0  0  0  0
   -5.8457    3.3750    0.0000 C   0  0  0  0  0  0  0  0  0  0  0  0
    0.6495    4.1250    0.0000 C   0  0  0  0  0  0  0  0  0  0  0  0
   -3.2476    3.3750    0.0000 C   0  0  0  0  0  0  0  0  0  0  0  0
   -4.5466    4.1250    0.0000 C   0  0  0  0  0  0  0  0  0  0  0  0
   -1.9486    4.1250    0.0000 C   0  0  0  0  0  0  0  0  0  0  0  0
   -4.5466    5.6250    0.0000 O   0  0  0  0  0  0  0  0  0  0  0  0
   -1.9486    5.6250    0.0000 O   0  0  0  0  0  0  0  0  0  0  0  0
   -0.6495    3.3750    0.0000 O   0  0  0  0  0  0  0  0  0  0  0  0
  3  1  1  0
  5  2  1  0
  5  4  1  0
  6  4  1  0
  7  5  2  0
  8  6  2  0
  9  3  1  0
  9  6  1  0
M  END
>  <NAME>  (5720) 
ETHYL ACETOACETATE

>  <SYNONYMS>  (5720) 


>  <SPECTRUM TYPE>  (5720) 
MS1

>  <INSTRUMENT TYPE>  (5720) 
EI-B

>  <INSTRUMENT>  (5720) 
HITACHI RMU-6M

>  <ION MODE>  (5720) 
P

>  <INCHIKEY>  (5720) 
XYIBRDXRRQCHLP-UHFFFAOYSA-N

>  <FORMULA>  (5720) 
C6H10O3

>  <EXACT MASS>  (5720) 
130.06299417999998

>  <MW>  (5720) 
130

>  <ID>  (5720) 
JP002575

>  <CONTRIBUTOR>  (5720) 
University of Tokyo Team, {Faculty of Engineering, University of Tokyo

>  <COMMENT>  (5720) 
SMILES=CCOC(=O)CC(C)=O
InChI=InChI=1S/C6H10O3/c1-3-9-6(8)4-5(2)7/h3-4H2,1-2H3
computed SMILES=O=C(OCC)CC(=O)C
accession=JP002575
date=2016.01.19 (Created 2008.10.21, modified 2011.05.06)
author=YAMAMOTO M, DEP. CHEMISTRY, FAC. SCIENCE, NARA WOMEN'S UNIV.
license=CC BY-NC-SA
exact mass=130.06299
ionization energy=70 eV
ion type=[M]+*
computed spectral entropy=2.47196492777231
computed normalized entropy=0.7500264813680444
SPLASH=splash10-0006-9000000000-c1d7540b51e68aae277f
submitter=submitter = University of Tokyo Team (Faculty of Engineering, University of Tokyo)
MoNA Rating=3.75

>  <NUM PEAKS>  (5720) 
27

>  <MASS SPECTRAL PEAKS>  (5720) 
14 1.85
15 8.34
26 2.46
27 11.37
28 2.01
29 23.21
31 8.63
39 1.36
41 1.12
42 11.45
43 99.99
44 4.23
45 6.26
46 1.62
58 4.23
60 9.65
61 4.47
69 5.26
70 1.57
71 1.67
84 4.55
85 14.89
87 3.02
88 17.12
102 2.85
115 1.69
130 6.8

$$$$

     RDKit          2D

  8  7  0  0  0  0  0  0  0  0999 V2000
   -3.5724    3.9375    0.0000 C   0  0  0  0  0  0  0  0  0  0  0  0
    2.9228    3.1875    0.0000 C   0  0  0  0  0  0  0  0  0  0  0  0
   -0.9743    3.9375    0.0000 C   0  0  0  0  0  0  0  0  0  0  0  0
   -2.2733    3.1875    0.0000 C   0  0  0  0  0  0  0  0  0  0  0  0
    0.3248    3.1875    0.0000 C   0  0  0  0  0  0  0  0  0  0  0  0
   -2.2733    1.6875    0.0000 O   0  0  0  0  0  0  0  0  0  0  0  0
    0.3248    1.6875    0.0000 O   0  0  0  0  0  0  0  0  0  0  0  0
    1.6238    3.9375    0.0000 O   0  0  0  0  0  0  0  0  0  0  0  0
  4  1  1  0
  4  3  1  0
  5  3  1  0
  6  4  2  0
  7  5  2  0
  8  2  1  0
  8  5  1  0
M  END
>  <NAME>  (5721) 
METHYL ACETOACETATE

>  <SYNONYMS>  (5721) 
3-OXOBUTANOIC ACID METHYL ESTER

>  <SPECTRUM TYPE>  (5721) 
MS1

>  <INSTRUMENT TYPE>  (5721) 
EI-B

>  <INSTRUMENT>  (5721) 
HITACHI RMU-6M

>  <ION MODE>  (5721) 
P

>  <INCHIKEY>  (5721) 
WRQNANDWMGAFTP-UHFFFAOYSA-N

>  <FORMULA>  (5721) 
C5H8O3

>  <EXACT MASS>  (5721) 
116.04734411599999

>  <MW>  (5721) 
116

>  <ID>  (5721) 
JP002574

>  <CONTRIBUTOR>  (5721) 
University of Tokyo Team, {Faculty of Engineering, University of Tokyo

>  <COMMENT>  (5721) 
SMILES=COC(=O)CC(C)=O
InChI=InChI=1S/C5H8O3/c1-4(6)3-5(7)8-2/h3H2,1-2H3
computed SMILES=O=C(OC)CC(=O)C
accession=JP002574
date=2016.01.19 (Created 2008.10.21, modified 2011.05.06)
author=YAMAMOTO M, DEP. CHEMISTRY, FAC. SCIENCE, NARA WOMEN'S UNIV.
license=CC BY-NC-SA
exact mass=116.04734
ionization energy=70 eV
ion type=[M]+*
computed spectral entropy=2.162489179342867
computed normalized entropy=0.689680487483231
SPLASH=splash10-0006-9000000000-e4481e7d9e6ac8fc177b
submitter=submitter = University of Tokyo Team (Faculty of Engineering, University of Tokyo)
MoNA Rating=3.75

>  <NUM PEAKS>  (5721) 
23

>  <MASS SPECTRAL PEAKS>  (5721) 
14 2.28
15 16.1
26 1.47
27 4.37
28 3.09
29 3.79
31 3.19
39 1.74
41 1.28
42 11.31
43 99.99
44 2.92
57 2.28
58 1.06
59 11.15
69 6.86
74 7.89
84 1.82
85 10.88
86 1.18
88 2.61
101 4.89
116 9.22

$$$$

     RDKit          2D

  8  8  0  0  0  0  0  0  0  0999 V2000
   -2.5981   -0.4300    0.0000 C   0  0  0  0  0  0  0  0  0  0  0  0
   -1.2986   -1.1808    0.0000 C   0  0  0  0  0  0  0  0  0  0  0  0
   -2.5986    1.0708    0.0000 C   0  0  0  0  0  0  0  0  0  0  0  0
    0.0005   -0.4308    0.0000 C   0  0  0  0  0  0  0  0  0  0  0  0
   -1.2995    1.8208    0.0000 C   0  0  0  0  0  0  0  0  0  0  0  0
    1.2990    1.8200    0.0000 C   0  0  0  0  0  0  0  0  0  0  0  0
    0.0000    1.0700    0.0000 C   0  0  0  0  0  0  0  0  0  0  0  0
    2.5981    2.5700    0.0000 N   0  0  0  0  0  0  0  0  0  0  0  0
  2  1  2  0
  3  1  1  0
  4  2  1  0
  5  3  2  0
  7  4  2  0
  7  5  1  0
  7  6  1  0
  8  6  3  0
M  END
>  <NAME>  (5722) 
BENZONITRILE

>  <SYNONYMS>  (5722) 


>  <SPECTRUM TYPE>  (5722) 
MS1

>  <INSTRUMENT TYPE>  (5722) 
EI-B

>  <INSTRUMENT>  (5722) 
HITACHI RMU-6M

>  <ION MODE>  (5722) 
P

>  <INCHIKEY>  (5722) 
JFDZBHWFFUWGJE-UHFFFAOYSA-N

>  <FORMULA>  (5722) 
C7H5N

>  <EXACT MASS>  (5722) 
103.04219916

>  <MW>  (5722) 
103

>  <ID>  (5722) 
JP002573

>  <CONTRIBUTOR>  (5722) 
University of Tokyo Team, {Faculty of Engineering, University of Tokyo

>  <COMMENT>  (5722) 
SMILES=N#Cc(c1)cccc1
InChI=InChI=1S/C7H5N/c8-6-7-4-2-1-3-5-7/h1-5H
computed SMILES=N#CC=1C=CC=CC1
accession=JP002573
date=2016.01.19 (Created 2008.10.21, modified 2011.05.06)
author=YAMAMOTO M, DEP. CHEMISTRY, FAC. SCIENCE, NARA WOMEN'S UNIV.
license=CC BY-NC-SA
exact mass=103.0422
ionization energy=70 eV
ion type=[M]+*
computed spectral entropy=2.070816431205822
computed normalized entropy=0.6604433906098504
SPLASH=splash10-0udi-8900000000-f750495507e669f6e253
submitter=submitter = University of Tokyo Team (Faculty of Engineering, University of Tokyo)
MoNA Rating=3.75

>  <NUM PEAKS>  (5722) 
23

>  <MASS SPECTRAL PEAKS>  (5722) 
26 2.01
27 1.6
37 3.03
38 2.99
39 5.15
49 2.22
50 15.28
51 7.79
51.5 3.26
52 4.55
61 1.1
62 1
63 2.66
64 1.62
73 1.24
74 3.53
75 7.14
76 33.88
77 5.71
99 1.16
102 1.81
103 99.99
104 8.35

$$$$

     RDKit          2D

  5  4  0  0  0  0  0  0  0  0999 V2000
   -0.0000    0.0000    0.0000 C   0  0  0  0  0  0  0  0  0  0  0  0
   -1.2990    2.2500    0.0000 C   0  0  0  0  0  0  0  0  0  0  0  0
    1.2990    2.2500    0.0000 C   0  0  0  0  0  0  0  0  0  0  0  0
   -0.0000    1.5000    0.0000 C   0  0  0  0  0  0  0  0  0  0  0  0
    2.5981    3.0000    0.0000 N   0  0  0  0  0  0  0  0  0  0  0  0
  4  1  1  0
  4  2  1  0
  4  3  1  0
  5  3  3  0
M  END
>  <NAME>  (5723) 
ISOBUTYRONITRILE

>  <SYNONYMS>  (5723) 


>  <SPECTRUM TYPE>  (5723) 
MS1

>  <INSTRUMENT TYPE>  (5723) 
EI-B

>  <INSTRUMENT>  (5723) 
HITACHI RMU-6M

>  <ION MODE>  (5723) 
P

>  <INCHIKEY>  (5723) 
LRDFRRGEGBBSRN-UHFFFAOYSA-N

>  <FORMULA>  (5723) 
C4H7N

>  <EXACT MASS>  (5723) 
69.057849224

>  <MW>  (5723) 
69

>  <ID>  (5723) 
JP002572

>  <CONTRIBUTOR>  (5723) 
University of Tokyo Team, {Faculty of Engineering, University of Tokyo

>  <COMMENT>  (5723) 
SMILES=N#CC(C)C
InChI=InChI=1S/C4H7N/c1-4(2)3-5/h4H,1-2H3
computed SMILES=N#CC(C)C
accession=JP002572
date=2016.01.19 (Created 2008.10.21, modified 2011.05.06)
author=YAMAMOTO M, DEP. CHEMISTRY, FAC. SCIENCE, NARA WOMEN'S UNIV.
license=CC BY-NC-SA
exact mass=69.05785
ionization energy=70 eV
ion type=[M]+*
computed spectral entropy=2.372179235640424
computed normalized entropy=0.7674366403680833
SPLASH=splash10-0006-9000000000-6be686822068ec03a28b
submitter=submitter = University of Tokyo Team (Faculty of Engineering, University of Tokyo)
MoNA Rating=3.75

>  <NUM PEAKS>  (5723) 
22

>  <MASS SPECTRAL PEAKS>  (5723) 
14 1.28
15 5.5
26 10.2
27 18.22
28 22.34
29 1.4
37 4.19
38 4.64
39 13.85
40 5.32
41 24.97
42 99.99
43 3.73
51 5.41
52 11
53 10.36
54 28.06
64 1.65
66 1.31
67 1.19
68 61.12
69 2.99

$$$$

     RDKit          2D

  5  4  0  0  0  0  0  0  0  0999 V2000
    1.9486    1.8750    0.0000 C   0  0  0  0  0  0  0  0  0  0  0  0
    0.6495    2.6250    0.0000 C   0  0  0  0  0  0  0  0  0  0  0  0
   -0.6495    1.8750    0.0000 C   0  0  0  0  0  0  0  0  0  0  0  0
   -1.9486    2.6250    0.0000 C   0  0  0  0  0  0  0  0  0  0  0  0
   -3.2476    3.3750    0.0000 N   0  0  0  0  0  0  0  0  0  0  0  0
  2  1  1  0
  3  2  1  0
  4  3  1  0
  5  4  3  0
M  END
>  <NAME>  (5724) 
N-BUTYRONITRILE

>  <SYNONYMS>  (5724) 


>  <SPECTRUM TYPE>  (5724) 
MS1

>  <INSTRUMENT TYPE>  (5724) 
EI-B

>  <INSTRUMENT>  (5724) 
HITACHI RMU-6M

>  <ION MODE>  (5724) 
P

>  <INCHIKEY>  (5724) 
KVNRLNFWIYMESJ-UHFFFAOYSA-N

>  <FORMULA>  (5724) 
C4H7N

>  <EXACT MASS>  (5724) 
69.057849224

>  <MW>  (5724) 
69

>  <ID>  (5724) 
JP002571

>  <CONTRIBUTOR>  (5724) 
University of Tokyo Team, {Faculty of Engineering, University of Tokyo

>  <COMMENT>  (5724) 
SMILES=CCCC#N
InChI=InChI=1S/C4H7N/c1-2-3-4-5/h2-3H2,1H3
computed SMILES=N#CCCC
accession=JP002571
date=2016.01.19 (Created 2008.10.21, modified 2011.05.06)
author=YAMAMOTO M, DEP. CHEMISTRY, FAC. SCIENCE, NARA WOMEN'S UNIV.
license=CC BY-NC-SA
exact mass=69.05785
ionization energy=70 eV
ion type=[M]+*
computed spectral entropy=1.7713128543782106
computed normalized entropy=0.601579067153792
SPLASH=splash10-002f-9000000000-56013d5c787b2c9f4521
submitter=submitter = University of Tokyo Team (Faculty of Engineering, University of Tokyo)
MoNA Rating=3.75

>  <NUM PEAKS>  (5724) 
19

>  <MASS SPECTRAL PEAKS>  (5724) 
15 1.93
26 5.59
27 26.07
28 3.8
29 52.84
30 1.41
37 2.82
38 3.24
39 8.6
40 3.43
41 99.99
42 3.66
51 1.64
52 2.91
54 1.08
64 1.41
66 0.94
68 1.13
69 0.33

$$$$

     RDKit          2D

  4  3  0  0  0  0  0  0  0  0999 V2000
    0.0000    0.0000    0.0000 C   0  0  0  0  0  0  0  0  0  0  0  0
    0.0000    1.5000    0.0000 C   0  0  0  0  0  0  0  0  0  0  0  0
   -1.2990    2.2500    0.0000 C   0  0  0  0  0  0  0  0  0  0  0  0
   -2.5981    3.0000    0.0000 N   0  0  0  0  0  0  0  0  0  0  0  0
  2  1  1  0
  3  2  1  0
  4  3  3  0
M  END
>  <NAME>  (5725) 
PROPIONITRILE

>  <SYNONYMS>  (5725) 


>  <SPECTRUM TYPE>  (5725) 
MS1

>  <INSTRUMENT TYPE>  (5725) 
EI-B

>  <INSTRUMENT>  (5725) 
HITACHI RMU-6M

>  <ION MODE>  (5725) 
P

>  <INCHIKEY>  (5725) 
FVSKHRXBFJPNKK-UHFFFAOYSA-N

>  <FORMULA>  (5725) 
C3H5N

>  <EXACT MASS>  (5725) 
55.042199159999996

>  <MW>  (5725) 
55

>  <ID>  (5725) 
JP002570

>  <CONTRIBUTOR>  (5725) 
University of Tokyo Team, {Faculty of Engineering, University of Tokyo

>  <COMMENT>  (5725) 
SMILES=CCC#N
InChI=InChI=1S/C3H5N/c1-2-3-4/h2H2,1H3
computed SMILES=N#CCC
accession=JP002570
date=2016.01.19 (Created 2008.10.21, modified 2011.05.06)
author=YAMAMOTO M, DEP. CHEMISTRY, FAC. SCIENCE, NARA WOMEN'S UNIV.
license=CC BY-NC-SA
exact mass=55.0422
ionization energy=70 eV
ion type=[M]+*
computed spectral entropy=2.0394868300481614
computed normalized entropy=0.719849366207028
SPLASH=splash10-0fb9-9000000000-dba1aab77fa8fd55fa84
submitter=submitter = University of Tokyo Team (Faculty of Engineering, University of Tokyo)
MoNA Rating=3.75

>  <NUM PEAKS>  (5725) 
17

>  <MASS SPECTRAL PEAKS>  (5725) 
14 1.42
15 7.35
25 2.91
26 21.69
27 19.03
28 99.99
29 2.92
37 1.73
38 2.94
39 2.68
40 5.16
50 1.91
51 12.13
52 15.1
53 9.81
54 86.78
55 18.97

$$$$

     RDKit          2D

  3  2  0  0  0  0  0  0  0  0999 V2000
   -1.2990    0.7500    0.0000 C   0  0  0  0  0  0  0  0  0  0  0  0
    0.0000    1.5000    0.0000 C   0  0  0  0  0  0  0  0  0  0  0  0
    1.2990    2.2500    0.0000 N   0  0  0  0  0  0  0  0  0  0  0  0
  2  1  1  0
  3  2  3  0
M  END
>  <NAME>  (5726) 
ACETONITRILE

>  <SYNONYMS>  (5726) 


>  <SPECTRUM TYPE>  (5726) 
MS1

>  <INSTRUMENT TYPE>  (5726) 
EI-B

>  <INSTRUMENT>  (5726) 
HITACHI RMU-6M

>  <ION MODE>  (5726) 
P

>  <INCHIKEY>  (5726) 
WEVYAHXRMPXWCK-UHFFFAOYSA-N

>  <FORMULA>  (5726) 
C2H3N

>  <EXACT MASS>  (5726) 
41.026549096

>  <MW>  (5726) 
41

>  <ID>  (5726) 
JP002569

>  <CONTRIBUTOR>  (5726) 
University of Tokyo Team, {Faculty of Engineering, University of Tokyo

>  <COMMENT>  (5726) 
SMILES=CC#N
InChI=InChI=1S/C2H3N/c1-2-3/h1H3
computed SMILES=N#CC
accession=JP002569
date=2016.01.19 (Created 2008.10.21, modified 2011.05.06)
author=YAMAMOTO M, DEP. CHEMISTRY, FAC. SCIENCE, NARA WOMEN'S UNIV.
license=CC BY-NC-SA
exact mass=41.02655
ionization energy=70 eV
ion type=[M]+*
computed spectral entropy=1.4171018346824003
computed normalized entropy=0.5909773670092884
SPLASH=splash10-0006-9000000000-44611647c11b54cc181f
submitter=submitter = University of Tokyo Team (Faculty of Engineering, University of Tokyo)
MoNA Rating=3.75

>  <NUM PEAKS>  (5726) 
11

>  <MASS SPECTRAL PEAKS>  (5726) 
12 1.96
13 1.3
14 6.3
15 1.22
26 1.33
27 1.26
38 10.51
39 18.35
40 52.89
41 99.99
42 2.61

$$$$

     RDKit          2D

 10 11  0  0  0  0  0  0  0  0999 V2000
   -2.6000    0.7500    0.0000 C   0  0  0  0  0  0  0  0  0  0  0  0
   -2.6000   -0.7500    0.0000 C   0  0  0  0  0  0  0  0  0  0  0  0
    2.6000    0.7500    0.0000 C   0  0  0  0  0  0  0  0  0  0  0  0
   -1.3000    1.5000    0.0000 C   0  0  0  0  0  0  0  0  0  0  0  0
    1.3000    1.5000    0.0000 C   0  0  0  0  0  0  0  0  0  0  0  0
   -1.3000   -1.5000    0.0000 C   0  0  0  0  0  0  0  0  0  0  0  0
    2.6000   -0.7500    0.0000 C   0  0  0  0  0  0  0  0  0  0  0  0
   -0.0000    0.7500    0.0000 C   0  0  0  0  0  0  0  0  0  0  0  0
   -0.0000   -0.7500    0.0000 C   0  0  0  0  0  0  0  0  0  0  0  0
    1.3000   -1.5000    0.0000 N   0  0  0  0  0  0  0  0  0  0  0  0
  2  1  2  0
  4  1  1  0
  5  3  1  0
  6  2  1  0
  7  3  1  0
  8  4  2  0
  8  5  1  0
  9  6  2  0
  9  8  1  0
 10  7  1  0
 10  9  1  0
M  END
>  <NAME>  (5727) 
1,2,3,4-TETRAHYDROQUINOLINE

>  <SYNONYMS>  (5727) 


>  <SPECTRUM TYPE>  (5727) 
MS1

>  <INSTRUMENT TYPE>  (5727) 
EI-B

>  <INSTRUMENT>  (5727) 
HITACHI RMU-6M

>  <ION MODE>  (5727) 
P

>  <INCHIKEY>  (5727) 
LBUJPTNKIBCYBY-UHFFFAOYSA-N

>  <FORMULA>  (5727) 
C9H11N

>  <EXACT MASS>  (5727) 
133.089149352

>  <MW>  (5727) 
133

>  <ID>  (5727) 
JP002568

>  <CONTRIBUTOR>  (5727) 
University of Tokyo Team, {Faculty of Engineering, University of Tokyo

>  <COMMENT>  (5727) 
SMILES=C(C2)Cc(c1)c(N2)ccc1
InChI=InChI=1S/C9H11N/c1-2-6-9-8(4-1)5-3-7-10-9/h1-2,4,6,10H,3,5,7H2
computed SMILES=C=1C=CC2=C(C1)NCCC2
accession=JP002568
date=2016.01.19 (Created 2008.10.21, modified 2011.05.06)
author=YAMAMOTO M, DEP. CHEMISTRY, FAC. SCIENCE, NARA WOMEN'S UNIV.
license=CC BY-NC-SA
exact mass=133.08915
ionization energy=70 eV
ion type=[M]+*
computed spectral entropy=2.7079026647151605
computed normalized entropy=0.699499369080835
SPLASH=splash10-001i-3900000000-262a0bef1ef5519e03ae
submitter=submitter = University of Tokyo Team (Faculty of Engineering, University of Tokyo)
MoNA Rating=3.75

>  <NUM PEAKS>  (5727) 
48

>  <MASS SPECTRAL PEAKS>  (5727) 
27 4.9
28 4.5
29 4.1
39 0.21
40 7.6
41 1.1
42 1.9
50 0.56
51 13.1
52 5.6
53 2.3
54 0.13
59 1.9
62 1.8
63 4.6
64.5 0.48
65 8.6
65.5 9
66 3.2
66.5 0.48
67 1
74 2.1
75 2.4
77 1.67
78 9.7
79 4.3
89 2.7
90 0.32
91 8.6
92 1.2
101 1
102 0.31
103 5.6
104 10.3
105 6.5
106 0.31
115 4.5
116 1.6
117 19.2
118 2.51
119 2.4
128 1.4
129 1.7
130 1.4
131 6.4
132 99.99
133 94.1
134 9.3

$$$$

     RDKit          2D

  7  7  0  0  0  0  0  0  0  0999 V2000
    0.0000    2.5700    0.0000 C   0  0  0  0  0  0  0  0  0  0  0  0
    1.3000    1.8200    0.0000 C   0  0  0  0  0  0  0  0  0  0  0  0
   -1.3000    1.8200    0.0000 C   0  0  0  0  0  0  0  0  0  0  0  0
    1.3000    0.3200    0.0000 C   0  0  0  0  0  0  0  0  0  0  0  0
   -1.3000    0.3200    0.0000 C   0  0  0  0  0  0  0  0  0  0  0  0
   -0.0000   -0.4300    0.0000 C   0  0  0  0  0  0  0  0  0  0  0  0
   -0.0000   -1.9300    0.0000 N   0  0  0  0  0  0  0  0  0  0  0  0
  2  1  1  0
  3  1  1  0
  4  2  1  0
  5  3  1  0
  6  4  1  0
  6  5  1  0
  7  6  1  0
M  END
>  <NAME>  (5728) 
CYCLOHEXYLAMINE

>  <SYNONYMS>  (5728) 


>  <SPECTRUM TYPE>  (5728) 
MS1

>  <INSTRUMENT TYPE>  (5728) 
EI-B

>  <INSTRUMENT>  (5728) 
HITACHI RMU-6M

>  <ION MODE>  (5728) 
P

>  <INCHIKEY>  (5728) 
PAFZNILMFXTMIY-UHFFFAOYSA-N

>  <FORMULA>  (5728) 
C6H13N

>  <EXACT MASS>  (5728) 
99.10479941599999

>  <MW>  (5728) 
99

>  <ID>  (5728) 
JP002567

>  <CONTRIBUTOR>  (5728) 
University of Tokyo Team, {Faculty of Engineering, University of Tokyo

>  <COMMENT>  (5728) 
SMILES=NC(C1)CCCC1
InChI=InChI=1S/C6H13N/c7-6-4-2-1-3-5-6/h6H,1-5,7H2
computed SMILES=NC1CCCCC1
accession=JP002567
date=2016.01.19 (Created 2008.10.21, modified 2011.05.06)
author=YAMAMOTO M, DEP. CHEMISTRY, FAC. SCIENCE, NARA WOMEN'S UNIV.
license=CC BY-NC-SA
exact mass=99.1048
ionization energy=70 eV
ion type=[M]+*
computed spectral entropy=1.8830923094380405
computed normalized entropy=0.6395419714118636
SPLASH=splash10-0a4i-9000000000-9f0030286662e0b15eb9
submitter=submitter = University of Tokyo Team (Faculty of Engineering, University of Tokyo)
MoNA Rating=3.75

>  <NUM PEAKS>  (5728) 
19

>  <MASS SPECTRAL PEAKS>  (5728) 
15 1.16
27 4.41
28 6.96
29 2.57
30 9.14
39 3.83
41 3.85
42 4.37
43 20.31
53 1.25
54 1.52
55 2.03
56 99.99
57 4.85
67 1.39
70 6.38
98 1.48
99 13.59
100 1.03

$$$$

     RDKit          2D

  9  8  0  0  0  0  0  0  0  0999 V2000
    2.2733    2.8125    0.0000 C   0  0  0  0  0  0  0  0  0  0  0  0
    0.9743    5.0625    0.0000 C   0  0  0  0  0  0  0  0  0  0  0  0
   -5.5209    2.8125    0.0000 C   0  0  0  0  0  0  0  0  0  0  0  0
   -4.2219    5.0625    0.0000 C   0  0  0  0  0  0  0  0  0  0  0  0
   -0.3248    2.8125    0.0000 C   0  0  0  0  0  0  0  0  0  0  0  0
   -2.9228    2.8125    0.0000 C   0  0  0  0  0  0  0  0  0  0  0  0
    0.9743    3.5625    0.0000 C   0  0  0  0  0  0  0  0  0  0  0  0
   -4.2219    3.5625    0.0000 C   0  0  0  0  0  0  0  0  0  0  0  0
   -1.6238    3.5625    0.0000 N   0  0  0  0  0  0  0  0  0  0  0  0
  7  1  1  0
  7  2  1  0
  7  5  1  0
  8  3  1  0
  8  4  1  0
  8  6  1  0
  9  5  1  0
  9  6  1  0
M  END
>  <NAME>  (5729) 
DI-ISOBUTYLAMINE

>  <SYNONYMS>  (5729) 


>  <SPECTRUM TYPE>  (5729) 
MS1

>  <INSTRUMENT TYPE>  (5729) 
EI-B

>  <INSTRUMENT>  (5729) 
HITACHI RMU-6M

>  <ION MODE>  (5729) 
P

>  <INCHIKEY>  (5729) 
NJBCRXCAPCODGX-UHFFFAOYSA-N

>  <FORMULA>  (5729) 
C8H19N

>  <EXACT MASS>  (5729) 
129.151749608

>  <MW>  (5729) 
129

>  <ID>  (5729) 
JP002566

>  <CONTRIBUTOR>  (5729) 
University of Tokyo Team, {Faculty of Engineering, University of Tokyo

>  <COMMENT>  (5729) 
SMILES=CC(C)CNCC(C)C
InChI=InChI=1S/C8H19N/c1-7(2)5-9-6-8(3)4/h7-9H,5-6H2,1-4H3
computed SMILES=N(CC(C)C)CC(C)C
accession=JP002566
date=2016.01.19 (Created 2008.10.21, modified 2011.05.06)
author=YAMAMOTO M, DEP. CHEMISTRY, FAC. SCIENCE, NARA WOMEN'S UNIV.
license=CC BY-NC-SA
exact mass=129.15175
ionization energy=70 eV
ion type=[M]+*
computed spectral entropy=2.149191084626497
computed normalized entropy=0.6854393395809921
SPLASH=splash10-0019-9000000000-255f3e82a264d316b340
submitter=submitter = University of Tokyo Team (Faculty of Engineering, University of Tokyo)
MoNA Rating=3.75

>  <NUM PEAKS>  (5729) 
23

>  <MASS SPECTRAL PEAKS>  (5729) 
15 1.02
27 5.43
28 4.18
29 12.75
30 68.6
31 1.01
39 4.77
41 14.7
42 4.61
43 4.78
44 2.97
55 4
56 1.76
57 27.12
58 5.03
70 2.08
72 3.01
84 1.11
86 99.99
87 6.09
114 1.72
128 1.12
129 6.96

$$$$

     RDKit          2D

  9  8  0  0  0  0  0  0  0  0999 V2000
    2.5981    4.5000    0.0000 C   0  0  0  0  0  0  0  0  0  0  0  0
   -7.7942    4.5000    0.0000 C   0  0  0  0  0  0  0  0  0  0  0  0
    1.2990    5.2500    0.0000 C   0  0  0  0  0  0  0  0  0  0  0  0
   -6.4952    5.2500    0.0000 C   0  0  0  0  0  0  0  0  0  0  0  0
    0.0000    4.5000    0.0000 C   0  0  0  0  0  0  0  0  0  0  0  0
   -5.1962    4.5000    0.0000 C   0  0  0  0  0  0  0  0  0  0  0  0
   -1.2990    5.2500    0.0000 C   0  0  0  0  0  0  0  0  0  0  0  0
   -3.8971    5.2500    0.0000 C   0  0  0  0  0  0  0  0  0  0  0  0
   -2.5981    4.5000    0.0000 N   0  0  0  0  0  0  0  0  0  0  0  0
  3  1  1  0
  4  2  1  0
  5  3  1  0
  6  4  1  0
  7  5  1  0
  8  6  1  0
  9  7  1  0
  9  8  1  0
M  END
>  <NAME>  (5730) 
DI-N-BUTYLAMINE

>  <SYNONYMS>  (5730) 


>  <SPECTRUM TYPE>  (5730) 
MS1

>  <INSTRUMENT TYPE>  (5730) 
EI-B

>  <INSTRUMENT>  (5730) 
HITACHI RMU-6M

>  <ION MODE>  (5730) 
P

>  <INCHIKEY>  (5730) 
JQVDAXLFBXTEQA-UHFFFAOYSA-N

>  <FORMULA>  (5730) 
C8H19N

>  <EXACT MASS>  (5730) 
129.151749608

>  <MW>  (5730) 
129

>  <ID>  (5730) 
JP002565

>  <CONTRIBUTOR>  (5730) 
University of Tokyo Team, {Faculty of Engineering, University of Tokyo

>  <COMMENT>  (5730) 
SMILES=CCCCNCCCC
InChI=InChI=1S/C8H19N/c1-3-5-7-9-8-6-4-2/h9H,3-8H2,1-2H3
computed SMILES=N(CCCC)CCCC
computed spectral entropy=2.2332021125264236
computed normalized entropy=0.7224753934065586
accession=JP002565
date=2016.01.19 (Created 2008.10.21, modified 2011.05.06)
author=YAMAMOTO M, DEP. CHEMISTRY, FAC. SCIENCE, NARA WOMEN'S UNIV.
license=CC BY-NC-SA
exact mass=129.15175
ionization energy=70 eV
ion type=[M]+*
SPLASH=splash10-000l-9000000000-882599fd850dbdbd56cb
submitter=submitter = University of Tokyo Team (Faculty of Engineering, University of Tokyo)
MoNA Rating=3.75

>  <NUM PEAKS>  (5730) 
22

>  <MASS SPECTRAL PEAKS>  (5730) 
15 1.25
27 8.06
28 6.41
29 19.17
30 49.01
39 3.99
41 13.45
42 4.25
43 4.76
44 43.91
45 1.2
55 2.6
56 3.78
57 12.89
70 1.21
72 2.18
84 1.35
86 99.99
87 6.23
128 1.58
129 11.47
130 1.02

$$$$

     RDKit          2D

  7  6  0  0  0  0  0  0  0  0999 V2000
    1.6238    1.6875    0.0000 C   0  0  0  0  0  0  0  0  0  0  0  0
    0.3248    3.9375    0.0000 C   0  0  0  0  0  0  0  0  0  0  0  0
   -3.5724    1.6875    0.0000 C   0  0  0  0  0  0  0  0  0  0  0  0
   -2.2733    3.9375    0.0000 C   0  0  0  0  0  0  0  0  0  0  0  0
    0.3248    2.4375    0.0000 C   0  0  0  0  0  0  0  0  0  0  0  0
   -2.2733    2.4375    0.0000 C   0  0  0  0  0  0  0  0  0  0  0  0
   -0.9743    1.6875    0.0000 N   0  0  0  0  0  0  0  0  0  0  0  0
  5  1  1  0
  5  2  1  0
  6  3  1  0
  6  4  1  0
  7  5  1  0
  7  6  1  0
M  END
>  <NAME>  (5731) 
DI-ISOPROPYLAMINE

>  <SYNONYMS>  (5731) 


>  <SPECTRUM TYPE>  (5731) 
MS1

>  <INSTRUMENT TYPE>  (5731) 
EI-B

>  <INSTRUMENT>  (5731) 
HITACHI RMU-6M

>  <ION MODE>  (5731) 
P

>  <INCHIKEY>  (5731) 
UAOMVDZJSHZZME-UHFFFAOYSA-N

>  <FORMULA>  (5731) 
C6H15N

>  <EXACT MASS>  (5731) 
101.12044947999999

>  <MW>  (5731) 
101

>  <ID>  (5731) 
JP002564

>  <CONTRIBUTOR>  (5731) 
University of Tokyo Team, {Faculty of Engineering, University of Tokyo

>  <COMMENT>  (5731) 
SMILES=CC(C)NC(C)C
InChI=InChI=1S/C6H15N/c1-5(2)7-6(3)4/h5-7H,1-4H3
computed SMILES=N(C(C)C)C(C)C
accession=JP002564
date=2016.01.19 (Created 2008.10.21, modified 2011.05.06)
author=YAMAMOTO M, DEP. CHEMISTRY, FAC. SCIENCE, NARA WOMEN'S UNIV.
license=CC BY-NC-SA
exact mass=101.12045
ionization energy=70 eV
ion type=[M]+*
computed spectral entropy=1.923676531192879
computed normalized entropy=0.6789734120194478
SPLASH=splash10-0006-9000000000-cb8bd4699c1b5626d941
submitter=submitter = University of Tokyo Team (Faculty of Engineering, University of Tokyo)
MoNA Rating=3.75

>  <NUM PEAKS>  (5731) 
17

>  <MASS SPECTRAL PEAKS>  (5731) 
15 3.05
27 6.91
28 4.81
29 2.13
39 4.11
41 8.93
42 10.33
43 8.44
44 99.99
45 2.64
56 1.19
57 10.26
70 1.77
86 43.72
87 2.82
100 2.04
101 7.46

$$$$

     RDKit          2D

  7  6  0  0  0  0  0  0  0  0999 V2000
    1.9486    3.3750    0.0000 C   0  0  0  0  0  0  0  0  0  0  0  0
   -5.8457    3.3750    0.0000 C   0  0  0  0  0  0  0  0  0  0  0  0
    0.6495    4.1250    0.0000 C   0  0  0  0  0  0  0  0  0  0  0  0
   -4.5466    4.1250    0.0000 C   0  0  0  0  0  0  0  0  0  0  0  0
   -0.6495    3.3750    0.0000 C   0  0  0  0  0  0  0  0  0  0  0  0
   -3.2476    3.3750    0.0000 C   0  0  0  0  0  0  0  0  0  0  0  0
   -1.9486    4.1250    0.0000 N   0  0  0  0  0  0  0  0  0  0  0  0
  3  1  1  0
  4  2  1  0
  5  3  1  0
  6  4  1  0
  7  5  1  0
  7  6  1  0
M  END
>  <NAME>  (5732) 
DI-N-PROPYLAMINE

>  <SYNONYMS>  (5732) 


>  <SPECTRUM TYPE>  (5732) 
MS1

>  <INSTRUMENT TYPE>  (5732) 
EI-B

>  <INSTRUMENT>  (5732) 
HITACHI RMU-6M

>  <ION MODE>  (5732) 
P

>  <INCHIKEY>  (5732) 
WEHWNAOGRSTTBQ-UHFFFAOYSA-N

>  <FORMULA>  (5732) 
C6H15N

>  <EXACT MASS>  (5732) 
101.12044947999999

>  <MW>  (5732) 
101

>  <ID>  (5732) 
JP002563

>  <CONTRIBUTOR>  (5732) 
University of Tokyo Team, {Faculty of Engineering, University of Tokyo

>  <COMMENT>  (5732) 
SMILES=CCCNCCC
InChI=InChI=1S/C6H15N/c1-3-5-7-6-4-2/h7H,3-6H2,1-2H3
computed SMILES=N(CCC)CCC
accession=JP002563
date=2016.01.19 (Created 2008.10.21, modified 2011.05.06)
author=YAMAMOTO M, DEP. CHEMISTRY, FAC. SCIENCE, NARA WOMEN'S UNIV.
license=CC BY-NC-SA
exact mass=101.12045
ionization energy=70 eV
ion type=[M]+*
computed spectral entropy=2.0336468232912686
computed normalized entropy=0.6906737880052745
SPLASH=splash10-00e9-9000000000-219a01cc119233c56cd3
submitter=submitter = University of Tokyo Team (Faculty of Engineering, University of Tokyo)
MoNA Rating=3.75

>  <NUM PEAKS>  (5732) 
19

>  <MASS SPECTRAL PEAKS>  (5732) 
15 1.73
27 10.66
28 7.81
29 1.75
30 74.75
31 1.05
39 4.88
41 13.42
42 4.19
43 21.65
44 6.57
56 2.89
58 6.51
70 2.21
72 99.99
73 4.9
100 2.44
101 12.3
102 1.01

$$$$

     RDKit          2D

  7  6  0  0  0  0  0  0  0  0999 V2000
    1.9486    3.3750    0.0000 C   0  0  0  0  0  0  0  0  0  0  0  0
   -5.8457    3.3750    0.0000 C   0  0  0  0  0  0  0  0  0  0  0  0
    0.6495    4.1250    0.0000 C   0  0  0  0  0  0  0  0  0  0  0  0
   -4.5466    4.1250    0.0000 C   0  0  0  0  0  0  0  0  0  0  0  0
   -0.6495    3.3750    0.0000 C   0  0  0  0  0  0  0  0  0  0  0  0
   -1.9486    4.1250    0.0000 C   0  0  0  0  0  0  0  0  0  0  0  0
   -3.2476    3.3750    0.0000 N   0  0  0  0  0  0  0  0  0  0  0  0
  3  1  1  0
  4  2  1  0
  5  3  1  0
  6  5  1  0
  7  4  1  0
  7  6  1  0
M  END
>  <NAME>  (5733) 
ETHYL-N-BUTYLAMINE

>  <SYNONYMS>  (5733) 


>  <SPECTRUM TYPE>  (5733) 
MS1

>  <INSTRUMENT TYPE>  (5733) 
EI-B

>  <INSTRUMENT>  (5733) 
HITACHI RMU-6M

>  <ION MODE>  (5733) 
P

>  <INCHIKEY>  (5733) 
QHCCDDQKNUYGNC-UHFFFAOYSA-N

>  <FORMULA>  (5733) 
C6H15N

>  <EXACT MASS>  (5733) 
101.12044947999999

>  <MW>  (5733) 
101

>  <ID>  (5733) 
JP002562

>  <CONTRIBUTOR>  (5733) 
University of Tokyo Team, {Faculty of Engineering, University of Tokyo

>  <COMMENT>  (5733) 
SMILES=CCCCNCC
InChI=InChI=1S/C6H15N/c1-3-5-6-7-4-2/h7H,3-6H2,1-2H3
computed SMILES=N(CC)CCCC
accession=JP002562
date=2016.01.19 (Created 2008.10.21, modified 2011.05.06)
author=YAMAMOTO M, DEP. CHEMISTRY, FAC. SCIENCE, NARA WOMEN'S UNIV.
license=CC BY-NC-SA
exact mass=101.12045
ionization energy=70 eV
ion type=[M]+*
computed spectral entropy=1.886132708460554
computed normalized entropy=0.6657220898727807
SPLASH=splash10-0a4i-9000000000-63737036519dc1d9af6a
submitter=submitter = University of Tokyo Team (Faculty of Engineering, University of Tokyo)
MoNA Rating=3.75

>  <NUM PEAKS>  (5733) 
17

>  <MASS SPECTRAL PEAKS>  (5733) 
15 1.48
27 6.98
28 6.77
29 9.08
30 35.88
39 2.14
41 4.33
42 3.5
43 1.66
44 10.12
56 2.83
57 2.56
58 99.99
59 4.12
86 2.73
100 2.21
101 10.61

$$$$

     RDKit          2D

  6  5  0  0  0  0  0  0  0  0999 V2000
   -4.5466    3.3750    0.0000 C   0  0  0  0  0  0  0  0  0  0  0  0
    1.9486    2.6250    0.0000 C   0  0  0  0  0  0  0  0  0  0  0  0
   -3.2476    2.6250    0.0000 C   0  0  0  0  0  0  0  0  0  0  0  0
    0.6495    3.3750    0.0000 C   0  0  0  0  0  0  0  0  0  0  0  0
   -1.9486    3.3750    0.0000 C   0  0  0  0  0  0  0  0  0  0  0  0
   -0.6495    2.6250    0.0000 N   0  0  0  0  0  0  0  0  0  0  0  0
  3  1  1  0
  4  2  1  0
  5  3  1  0
  6  4  1  0
  6  5  1  0
M  END
>  <NAME>  (5734) 
ETHYL-N-PROPYLAMINE

>  <SYNONYMS>  (5734) 


>  <SPECTRUM TYPE>  (5734) 
MS1

>  <INSTRUMENT TYPE>  (5734) 
EI-B

>  <INSTRUMENT>  (5734) 
HITACHI RMU-6M

>  <ION MODE>  (5734) 
P

>  <INCHIKEY>  (5734) 
XCVNDBIXFPGMIW-UHFFFAOYSA-N

>  <FORMULA>  (5734) 
C5H13N

>  <EXACT MASS>  (5734) 
87.10479941599999

>  <MW>  (5734) 
87

>  <ID>  (5734) 
JP002561

>  <CONTRIBUTOR>  (5734) 
University of Tokyo Team, {Faculty of Engineering, University of Tokyo

>  <COMMENT>  (5734) 
SMILES=CCCNCC
InChI=InChI=1S/C5H13N/c1-3-5-6-4-2/h6H,3-5H2,1-2H3
computed SMILES=N(CC)CCC
accession=JP002561
date=2016.01.19 (Created 2008.10.21, modified 2011.05.06)
author=YAMAMOTO M, DEP. CHEMISTRY, FAC. SCIENCE, NARA WOMEN'S UNIV.
license=CC BY-NC-SA
exact mass=87.1048
ionization energy=70 eV
ion type=[M]+*
computed spectral entropy=2.0815433771901937
computed normalized entropy=0.6948362494091477
SPLASH=splash10-0a59-9000000000-b415a090d5bc0380d21d
submitter=submitter = University of Tokyo Team (Faculty of Engineering, University of Tokyo)
MoNA Rating=3.75

>  <NUM PEAKS>  (5734) 
20

>  <MASS SPECTRAL PEAKS>  (5734) 
15 2.46
26 1.15
27 9.74
28 10.1
29 6.97
30 59.18
39 3.23
41 7.17
42 4.52
43 6.22
44 9.33
56 3.18
57 1.06
58 99.99
59 3.63
70 1.37
72 7.58
86 4.06
87 14.84
88 1.02

$$$$

     RDKit          2D

  5  4  0  0  0  0  0  0  0  0999 V2000
   -3.8971    2.2500    0.0000 C   0  0  0  0  0  0  0  0  0  0  0  0
    1.2990    2.2500    0.0000 C   0  0  0  0  0  0  0  0  0  0  0  0
   -2.5981    1.5000    0.0000 C   0  0  0  0  0  0  0  0  0  0  0  0
    0.0000    1.5000    0.0000 C   0  0  0  0  0  0  0  0  0  0  0  0
   -1.2990    2.2500    0.0000 N   0  0  0  0  0  0  0  0  0  0  0  0
  3  1  1  0
  4  2  1  0
  5  3  1  0
  5  4  1  0
M  END
>  <NAME>  (5735) 
DIETHYLAMINE

>  <SYNONYMS>  (5735) 


>  <SPECTRUM TYPE>  (5735) 
MS1

>  <INSTRUMENT TYPE>  (5735) 
EI-B

>  <INSTRUMENT>  (5735) 
HITACHI RMU-6M

>  <ION MODE>  (5735) 
P

>  <INCHIKEY>  (5735) 
HPNMFZURTQLUMO-UHFFFAOYSA-N

>  <FORMULA>  (5735) 
C4H11N

>  <EXACT MASS>  (5735) 
73.08914935199999

>  <MW>  (5735) 
73

>  <ID>  (5735) 
JP002560

>  <CONTRIBUTOR>  (5735) 
University of Tokyo Team, {Faculty of Engineering, University of Tokyo

>  <COMMENT>  (5735) 
SMILES=CCNCC
InChI=InChI=1S/C4H11N/c1-3-5-4-2/h5H,3-4H2,1-2H3
computed SMILES=N(CC)CC
license=CC BY-NC-SA
accession=JP002560
date=2016.01.19 (Created 2008.10.21, modified 2011.05.06)
author=YAMAMOTO M, DEP. CHEMISTRY, FAC. SCIENCE, NARA WOMEN'S UNIV.
exact mass=73.08915
ionization energy=70 eV
ion type=[M]+*
computed spectral entropy=2.1663984701258268
computed normalized entropy=0.735759336652691
SPLASH=splash10-0a59-9000000000-52bf754cf3d4f70f7ad9
submitter=submitter = University of Tokyo Team (Faculty of Engineering, University of Tokyo)
MoNA Rating=3.75

>  <NUM PEAKS>  (5735) 
19

>  <MASS SPECTRAL PEAKS>  (5735) 
15 5.47
26 2.62
27 14.96
28 16.57
29 14.91
30 82.54
31 1.09
40 1.45
41 3.4
42 9.74
43 2.82
44 28.74
56 3.54
57 1.41
58 99.99
59 3.54
72 16.66
73 28.76
74 1.45

$$$$

     RDKit          2D

 10  9  0  0  0  0  0  0  0  0999 V2000
    2.2733    2.8125    0.0000 C   0  0  0  0  0  0  0  0  0  0  0  0
    0.9743    5.0625    0.0000 C   0  0  0  0  0  0  0  0  0  0  0  0
   -5.5209    2.8125    0.0000 C   0  0  0  0  0  0  0  0  0  0  0  0
   -4.2219    5.0625    0.0000 C   0  0  0  0  0  0  0  0  0  0  0  0
   -0.3248    2.8125    0.0000 C   0  0  0  0  0  0  0  0  0  0  0  0
    0.9743    3.5625    0.0000 C   0  0  0  0  0  0  0  0  0  0  0  0
   -4.2219    3.5625    0.0000 C   0  0  0  0  0  0  0  0  0  0  0  0
   -2.9228    2.8125    0.0000 C   0  0  0  0  0  0  0  0  0  0  0  0
   -2.9228    1.3125    0.0000 O   0  0  0  0  0  0  0  0  0  0  0  0
   -1.6238    3.5625    0.0000 O   0  0  0  0  0  0  0  0  0  0  0  0
  6  1  1  0
  6  2  1  0
  6  5  1  0
  7  3  1  0
  7  4  1  0
  8  7  1  0
  9  8  2  0
 10  5  1  0
 10  8  1  0
M  END
>  <NAME>  (5736) 
ISOBUTYL ISOBUTYRATE

>  <SYNONYMS>  (5736) 


>  <SPECTRUM TYPE>  (5736) 
MS1

>  <INSTRUMENT TYPE>  (5736) 
EI-B

>  <INSTRUMENT>  (5736) 
HITACHI RMU-6M

>  <ION MODE>  (5736) 
P

>  <INCHIKEY>  (5736) 
RXGUIWHIADMCFC-UHFFFAOYSA-N

>  <FORMULA>  (5736) 
C8H16O2

>  <EXACT MASS>  (5736) 
144.115029752

>  <MW>  (5736) 
144

>  <ID>  (5736) 
JP002559

>  <CONTRIBUTOR>  (5736) 
University of Tokyo Team, {Faculty of Engineering, University of Tokyo

>  <COMMENT>  (5736) 
SMILES=CC(C)COC(=O)C(C)C
InChI=InChI=1S/C8H16O2/c1-6(2)5-10-8(9)7(3)4/h6-7H,5H2,1-4H3
computed SMILES=O=C(OCC(C)C)C(C)C
accession=JP002559
date=2016.01.19 (Created 2008.10.21, modified 2011.05.06)
author=YAMAMOTO M, DEP. CHEMISTRY, FAC. SCIENCE, NARA WOMEN'S UNIV.
license=CC BY-NC-SA
exact mass=144.11503
ionization energy=70 eV
ion type=[M]+*
computed spectral entropy=2.3728114590464817
computed normalized entropy=0.7466240616782432
SPLASH=splash10-0596-9000000000-fb563351fb63b4833e24
submitter=submitter = University of Tokyo Team (Faculty of Engineering, University of Tokyo)
MoNA Rating=3.75

>  <NUM PEAKS>  (5736) 
24

>  <MASS SPECTRAL PEAKS>  (5736) 
15 1.51
26 1.11
27 15.98
28 3.71
29 17.79
31 1.74
39 9.58
40 1.99
41 34.33
42 6.48
43 85.76
44 2.73
55 3.06
56 53.21
57 38.29
58 1.69
70 2.87
71 99.99
72 4.8
73 3.37
88 2.37
89 28.88
90 1.42
101 7.78

$$$$

     RDKit          2D

 10  9  0  0  0  0  0  0  0  0999 V2000
   -7.4695    3.9375    0.0000 C   0  0  0  0  0  0  0  0  0  0  0  0
    1.6238    3.1875    0.0000 C   0  0  0  0  0  0  0  0  0  0  0  0
    0.3248    5.4375    0.0000 C   0  0  0  0  0  0  0  0  0  0  0  0
   -6.1704    3.1875    0.0000 C   0  0  0  0  0  0  0  0  0  0  0  0
   -4.8714    3.9375    0.0000 C   0  0  0  0  0  0  0  0  0  0  0  0
   -3.5724    3.1875    0.0000 C   0  0  0  0  0  0  0  0  0  0  0  0
    0.3248    3.9375    0.0000 C   0  0  0  0  0  0  0  0  0  0  0  0
   -0.9743    3.1875    0.0000 C   0  0  0  0  0  0  0  0  0  0  0  0
   -0.9743    1.6875    0.0000 O   0  0  0  0  0  0  0  0  0  0  0  0
   -2.2733    3.9375    0.0000 O   0  0  0  0  0  0  0  0  0  0  0  0
  4  1  1  0
  5  4  1  0
  6  5  1  0
  7  2  1  0
  7  3  1  0
  8  7  1  0
  9  8  2  0
 10  6  1  0
 10  8  1  0
M  END
>  <NAME>  (5737) 
N-BUTYL ISOBUTYRATE

>  <SYNONYMS>  (5737) 


>  <SPECTRUM TYPE>  (5737) 
MS1

>  <INSTRUMENT TYPE>  (5737) 
EI-B

>  <INSTRUMENT>  (5737) 
HITACHI RMU-6M

>  <ION MODE>  (5737) 
P

>  <INCHIKEY>  (5737) 
JSLCOZYBKYHZNL-UHFFFAOYSA-N

>  <FORMULA>  (5737) 
C8H16O2

>  <EXACT MASS>  (5737) 
144.115029752

>  <MW>  (5737) 
144

>  <ID>  (5737) 
JP002558

>  <CONTRIBUTOR>  (5737) 
University of Tokyo Team, {Faculty of Engineering, University of Tokyo

>  <COMMENT>  (5737) 
SMILES=CCCCOC(=O)C(C)C
InChI=InChI=1S/C8H16O2/c1-4-5-6-10-8(9)7(2)3/h7H,4-6H2,1-3H3
computed SMILES=O=C(OCCCC)C(C)C
accession=JP002558
date=2016.01.19 (Created 2008.10.21, modified 2011.05.06)
author=YAMAMOTO M, DEP. CHEMISTRY, FAC. SCIENCE, NARA WOMEN'S UNIV.
license=CC BY-NC-SA
exact mass=144.11503
ionization energy=70 eV
ion type=[M]+*
computed spectral entropy=2.490622362915307
computed normalized entropy=0.7644409347145271
SPLASH=splash10-059f-9000000000-9688cae9c61bb66ddb0c
submitter=submitter = University of Tokyo Team (Faculty of Engineering, University of Tokyo)
MoNA Rating=3.75

>  <NUM PEAKS>  (5737) 
26

>  <MASS SPECTRAL PEAKS>  (5737) 
15 1.92
26 1.95
27 24.83
28 8.32
29 32.3
31 2.56
39 11.45
40 2.43
41 49.77
42 9.37
43 99.99
44 3.52
45 1.25
55 8.54
56 56.04
57 45.49
58 2.03
59 1.12
70 1.5
71 90.19
72 4.67
73 4.43
88 4.17
89 83.3
90 4
101 6.54

$$$$

     RDKit          2D

  9  8  0  0  0  0  0  0  0  0999 V2000
    1.9486    2.6250    0.0000 C   0  0  0  0  0  0  0  0  0  0  0  0
    0.6495    4.8750    0.0000 C   0  0  0  0  0  0  0  0  0  0  0  0
   -4.5466    3.3750    0.0000 C   0  0  0  0  0  0  0  0  0  0  0  0
   -3.2476    1.1250    0.0000 C   0  0  0  0  0  0  0  0  0  0  0  0
    0.6495    3.3750    0.0000 C   0  0  0  0  0  0  0  0  0  0  0  0
   -3.2476    2.6250    0.0000 C   0  0  0  0  0  0  0  0  0  0  0  0
   -0.6495    2.6250    0.0000 C   0  0  0  0  0  0  0  0  0  0  0  0
   -0.6495    1.1250    0.0000 O   0  0  0  0  0  0  0  0  0  0  0  0
   -1.9486    3.3750    0.0000 O   0  0  0  0  0  0  0  0  0  0  0  0
  5  1  1  0
  5  2  1  0
  6  3  1  0
  6  4  1  0
  7  5  1  0
  8  7  2  0
  9  6  1  0
  9  7  1  0
M  END
>  <NAME>  (5738) 
ISOPROPYL ISOBUTYRATE

>  <SYNONYMS>  (5738) 


>  <SPECTRUM TYPE>  (5738) 
MS1

>  <INSTRUMENT TYPE>  (5738) 
EI-B

>  <INSTRUMENT>  (5738) 
HITACHI RMU-6M

>  <ION MODE>  (5738) 
P

>  <INCHIKEY>  (5738) 
WVRPFQGZHKZCEB-UHFFFAOYSA-N

>  <FORMULA>  (5738) 
C7H14O2

>  <EXACT MASS>  (5738) 
130.099379688

>  <MW>  (5738) 
130

>  <ID>  (5738) 
JP002557

>  <CONTRIBUTOR>  (5738) 
University of Tokyo Team, {Faculty of Engineering, University of Tokyo

>  <COMMENT>  (5738) 
SMILES=CC(C)OC(=O)C(C)C
InChI=InChI=1S/C7H14O2/c1-5(2)7(8)9-6(3)4/h5-6H,1-4H3
computed SMILES=O=C(OC(C)C)C(C)C
accession=JP002557
date=2016.01.19 (Created 2008.10.21, modified 2011.05.06)
author=YAMAMOTO M, DEP. CHEMISTRY, FAC. SCIENCE, NARA WOMEN'S UNIV.
license=CC BY-NC-SA
exact mass=130.09938
ionization energy=70 eV
ion type=[M]+*
computed spectral entropy=1.915367562532229
computed normalized entropy=0.6626716986490282
SPLASH=splash10-0006-9000000000-96a144d3d14f8c35a508
submitter=submitter = University of Tokyo Team (Faculty of Engineering, University of Tokyo)
MoNA Rating=3.75

>  <NUM PEAKS>  (5738) 
18

>  <MASS SPECTRAL PEAKS>  (5738) 
15 2
27 10.74
28 1.78
31 1
39 4.83
41 15.81
42 8.48
43 99.99
44 3.5
45 3.54
59 5.39
71 31.27
72 1.5
73 1.67
88 2
89 13.38
115 3.52
130 0.58

$$$$

     RDKit          2D

  9  8  0  0  0  0  0  0  0  0999 V2000
    1.9486    3.3750    0.0000 C   0  0  0  0  0  0  0  0  0  0  0  0
   -5.8457    3.3750    0.0000 C   0  0  0  0  0  0  0  0  0  0  0  0
   -4.5466    5.6250    0.0000 C   0  0  0  0  0  0  0  0  0  0  0  0
    0.6495    4.1250    0.0000 C   0  0  0  0  0  0  0  0  0  0  0  0
   -0.6495    3.3750    0.0000 C   0  0  0  0  0  0  0  0  0  0  0  0
   -4.5466    4.1250    0.0000 C   0  0  0  0  0  0  0  0  0  0  0  0
   -3.2476    3.3750    0.0000 C   0  0  0  0  0  0  0  0  0  0  0  0
   -3.2476    1.8750    0.0000 O   0  0  0  0  0  0  0  0  0  0  0  0
   -1.9486    4.1250    0.0000 O   0  0  0  0  0  0  0  0  0  0  0  0
  4  1  1  0
  5  4  1  0
  6  2  1  0
  6  3  1  0
  7  6  1  0
  8  7  2  0
  9  5  1  0
  9  7  1  0
M  END
>  <NAME>  (5739) 
N-PROPYL ISOBUTYRATE

>  <SYNONYMS>  (5739) 


>  <SPECTRUM TYPE>  (5739) 
MS1

>  <INSTRUMENT TYPE>  (5739) 
EI-B

>  <INSTRUMENT>  (5739) 
HITACHI RMU-6M

>  <ION MODE>  (5739) 
P

>  <INCHIKEY>  (5739) 
AZFUASHXSOTBNU-UHFFFAOYSA-N

>  <FORMULA>  (5739) 
C7H14O2

>  <EXACT MASS>  (5739) 
130.099379688

>  <MW>  (5739) 
130

>  <ID>  (5739) 
JP002556

>  <CONTRIBUTOR>  (5739) 
University of Tokyo Team, {Faculty of Engineering, University of Tokyo

>  <COMMENT>  (5739) 
SMILES=CCCOC(=O)C(C)C
InChI=InChI=1S/C7H14O2/c1-4-5-9-7(8)6(2)3/h6H,4-5H2,1-3H3
computed SMILES=O=C(OCCC)C(C)C
accession=JP002556
date=2016.01.19 (Created 2008.10.21, modified 2011.05.06)
author=YAMAMOTO M, DEP. CHEMISTRY, FAC. SCIENCE, NARA WOMEN'S UNIV.
license=CC BY-NC-SA
exact mass=130.09938
ionization energy=70 eV
ion type=[M]+*
computed spectral entropy=2.164059469867246
computed normalized entropy=0.6901812986524564
SPLASH=splash10-0006-9000000000-769fd7405d012dac89a1
submitter=submitter = University of Tokyo Team (Faculty of Engineering, University of Tokyo)
MoNA Rating=3.75

>  <NUM PEAKS>  (5739) 
23

>  <MASS SPECTRAL PEAKS>  (5739) 
15 1.67
26 1.4
27 18.25
28 3.18
29 2.8
31 2.85
39 7.21
40 1.55
41 23.04
42 13.66
43 99.99
44 3.33
45 1.3
55 1
57 1.32
59 4.13
71 55.76
72 2.72
73 3.1
88 2.12
89 46.9
90 2.34
101 3.77

$$$$

     RDKit          2D

  8  7  0  0  0  0  0  0  0  0999 V2000
    1.6238    3.1875    0.0000 C   0  0  0  0  0  0  0  0  0  0  0  0
   -4.8714    3.9375    0.0000 C   0  0  0  0  0  0  0  0  0  0  0  0
   -3.5724    1.6875    0.0000 C   0  0  0  0  0  0  0  0  0  0  0  0
    0.3248    3.9375    0.0000 C   0  0  0  0  0  0  0  0  0  0  0  0
   -3.5724    3.1875    0.0000 C   0  0  0  0  0  0  0  0  0  0  0  0
   -2.2733    3.9375    0.0000 C   0  0  0  0  0  0  0  0  0  0  0  0
   -2.2733    5.4375    0.0000 O   0  0  0  0  0  0  0  0  0  0  0  0
   -0.9743    3.1875    0.0000 O   0  0  0  0  0  0  0  0  0  0  0  0
  4  1  1  0
  5  2  1  0
  5  3  1  0
  6  5  1  0
  7  6  2  0
  8  4  1  0
  8  6  1  0
M  END
>  <NAME>  (5740) 
ETHYL ISOBUTYRATE

>  <SYNONYMS>  (5740) 


>  <SPECTRUM TYPE>  (5740) 
MS1

>  <INSTRUMENT TYPE>  (5740) 
EI-B

>  <INSTRUMENT>  (5740) 
HITACHI RMU-6M

>  <ION MODE>  (5740) 
P

>  <INCHIKEY>  (5740) 
WDAXFOBOLVPGLV-UHFFFAOYSA-N

>  <FORMULA>  (5740) 
C6H12O2

>  <EXACT MASS>  (5740) 
116.083729624

>  <MW>  (5740) 
116

>  <ID>  (5740) 
JP002555

>  <CONTRIBUTOR>  (5740) 
University of Tokyo Team, {Faculty of Engineering, University of Tokyo

>  <COMMENT>  (5740) 
SMILES=CCOC(=O)C(C)C
InChI=InChI=1S/C6H12O2/c1-4-8-6(7)5(2)3/h5H,4H2,1-3H3
computed SMILES=O=C(OCC)C(C)C
accession=JP002555
date=2016.01.19 (Created 2008.10.21, modified 2011.05.06)
author=YAMAMOTO M, DEP. CHEMISTRY, FAC. SCIENCE, NARA WOMEN'S UNIV.
license=CC BY-NC-SA
exact mass=116.08373
ionization energy=70 eV
ion type=[M]+*
computed spectral entropy=2.3636542154168976
computed normalized entropy=0.7343104686288043
SPLASH=splash10-0006-9000000000-f3988eecc5f86a2f81e5
submitter=submitter = University of Tokyo Team (Faculty of Engineering, University of Tokyo)
MoNA Rating=3.75

>  <NUM PEAKS>  (5740) 
25

>  <MASS SPECTRAL PEAKS>  (5740) 
15 2.53
26 2.33
27 20.91
28 4.31
29 45.77
30 1.07
31 1.22
39 6.71
40 1.36
41 21.23
42 14.08
43 99.99
44 3.36
45 10.01
55 1.38
57 1.28
70 1.47
71 43.41
72 2.08
73 3.49
88 9.03
89 6.12
101 2.18
116 15.89
117 1.2

$$$$

     RDKit          2D

  7  6  0  0  0  0  0  0  0  0999 V2000
    1.6238    1.6875    0.0000 C   0  0  0  0  0  0  0  0  0  0  0  0
    0.3248    3.9375    0.0000 C   0  0  0  0  0  0  0  0  0  0  0  0
   -3.5724    1.6875    0.0000 C   0  0  0  0  0  0  0  0  0  0  0  0
    0.3248    2.4375    0.0000 C   0  0  0  0  0  0  0  0  0  0  0  0
   -0.9743    1.6875    0.0000 C   0  0  0  0  0  0  0  0  0  0  0  0
   -0.9743    0.1875    0.0000 O   0  0  0  0  0  0  0  0  0  0  0  0
   -2.2733    2.4375    0.0000 O   0  0  0  0  0  0  0  0  0  0  0  0
  4  1  1  0
  4  2  1  0
  5  4  1  0
  6  5  2  0
  7  3  1  0
  7  5  1  0
M  END
>  <NAME>  (5741) 
METHYL ISOBUTYRATE

>  <SYNONYMS>  (5741) 


>  <SPECTRUM TYPE>  (5741) 
MS1

>  <INSTRUMENT TYPE>  (5741) 
EI-B

>  <INSTRUMENT>  (5741) 
HITACHI RMU-6M

>  <ION MODE>  (5741) 
P

>  <INCHIKEY>  (5741) 
BHIWKHZACMWKOJ-UHFFFAOYSA-N

>  <FORMULA>  (5741) 
C5H10O2

>  <EXACT MASS>  (5741) 
102.06807956

>  <MW>  (5741) 
102

>  <ID>  (5741) 
JP002554

>  <CONTRIBUTOR>  (5741) 
University of Tokyo Team, {Faculty of Engineering, University of Tokyo

>  <COMMENT>  (5741) 
SMILES=COC(=O)C(C)C
InChI=InChI=1S/C5H10O2/c1-4(2)5(6)7-3/h4H,1-3H3
computed SMILES=O=C(OC)C(C)C
accession=JP002554
date=2016.01.19 (Created 2008.10.21, modified 2011.05.06)
author=YAMAMOTO M, DEP. CHEMISTRY, FAC. SCIENCE, NARA WOMEN'S UNIV.
license=CC BY-NC-SA
exact mass=102.06808
ionization energy=70 eV
ion type=[M]+*
computed spectral entropy=2.461774325467998
computed normalized entropy=0.7647931947075955
SPLASH=splash10-0006-9000000000-cd801699f9c2a557b43f
submitter=submitter = University of Tokyo Team (Faculty of Engineering, University of Tokyo)
MoNA Rating=3.75

>  <NUM PEAKS>  (5741) 
25

>  <MASS SPECTRAL PEAKS>  (5741) 
15 16.29
26 2.57
27 20.97
28 3.5
29 2.53
31 1.99
33 1.42
38 1.42
39 10.83
40 2.2
41 29.54
42 14.2
43 99.99
44 3.47
45 1.38
55 5.21
59 20.65
61 4.61
70 1.23
71 39.88
72 1.86
74 3.91
87 18.6
102 17.95
103 1.05

$$$$

     RDKit          2D

 13 13  0  0  0  0  0  0  0  0999 V2000
   -6.8197    3.1321    0.0000 C   0  0  0  0  0  0  0  0  0  0  0  0
   -5.5207    3.8821    0.0000 C   0  0  0  0  0  0  0  0  0  0  0  0
    3.5726    1.6321    0.0000 C   0  0  0  0  0  0  0  0  0  0  0  0
    3.5731    3.1329    0.0000 C   0  0  0  0  0  0  0  0  0  0  0  0
    2.2731    0.8813    0.0000 C   0  0  0  0  0  0  0  0  0  0  0  0
   -4.2216    3.1321    0.0000 C   0  0  0  0  0  0  0  0  0  0  0  0
    2.2740    3.8829    0.0000 C   0  0  0  0  0  0  0  0  0  0  0  0
    0.9740    1.6313    0.0000 C   0  0  0  0  0  0  0  0  0  0  0  0
   -0.3245    3.8821    0.0000 C   0  0  0  0  0  0  0  0  0  0  0  0
    0.9745    3.1321    0.0000 C   0  0  0  0  0  0  0  0  0  0  0  0
   -2.9226    3.8821    0.0000 C   0  0  0  0  0  0  0  0  0  0  0  0
   -2.9226    5.3821    0.0000 O   0  0  0  0  0  0  0  0  0  0  0  0
   -1.6236    3.1321    0.0000 O   0  0  0  0  0  0  0  0  0  0  0  0
  2  1  1  0
  4  3  2  0
  5  3  1  0
  6  2  1  0
  7  4  1  0
  8  5  2  0
 10  7  2  0
 10  8  1  0
 10  9  1  0
 11  6  1  0
 12 11  2  0
 13  9  1  0
 13 11  1  0
M  END
>  <NAME>  (5742) 
BENZYL BUTYRATE

>  <SYNONYMS>  (5742) 


>  <SPECTRUM TYPE>  (5742) 
MS1

>  <INSTRUMENT TYPE>  (5742) 
EI-B

>  <INSTRUMENT>  (5742) 
HITACHI RMU-6M

>  <ION MODE>  (5742) 
P

>  <INCHIKEY>  (5742) 
VONGZNXBKCOUHB-UHFFFAOYSA-N

>  <FORMULA>  (5742) 
C11H14O2

>  <EXACT MASS>  (5742) 
178.099379688

>  <MW>  (5742) 
178

>  <ID>  (5742) 
JP002553

>  <CONTRIBUTOR>  (5742) 
University of Tokyo Team, {Faculty of Engineering, University of Tokyo

>  <COMMENT>  (5742) 
SMILES=CCCC(=O)OCc(c1)cccc1
InChI=InChI=1S/C11H14O2/c1-2-6-11(12)13-9-10-7-4-3-5-8-10/h3-5,7-8H,2,6,9H2,1H3
computed SMILES=O=C(OCC=1C=CC=CC1)CCC
accession=JP002553
date=2016.01.19 (Created 2008.10.21, modified 2011.05.06)
author=YAMAMOTO M, DEP. CHEMISTRY, FAC. SCIENCE, NARA WOMEN'S UNIV.
license=CC BY-NC-SA
exact mass=178.09938
ionization energy=70 eV
ion type=[M]+*
computed spectral entropy=2.660145885805568
computed normalized entropy=0.7543601589333014
SPLASH=splash10-052f-9400000000-4eefa0ad170d4001c1c0
submitter=submitter = University of Tokyo Team (Faculty of Engineering, University of Tokyo)
MoNA Rating=3.75

>  <NUM PEAKS>  (5742) 
34

>  <MASS SPECTRAL PEAKS>  (5742) 
15 1.04
27 10.9
28 1.2
29 1.3
38 1.3
39 11.88
40 1.17
41 11.47
42 1.33
43 38.45
44 1.25
50 2.65
51 8.12
52 2.43
55 1.78
63 4.06
64 1.36
65 15.03
71 36.3
72 1.76
77 9.61
78 2.6
79 11.86
89 5.85
90 19.85
91 99.99
92 8.68
105 3.01
107 9.43
108 98.15
109 8.43
118 1.1
178 30.37
179 3.83

$$$$

     RDKit          2D

 12 12  0  0  0  0  0  0  0  0999 V2000
    7.4251    1.2910    0.0000 C   0  0  0  0  0  0  0  0  0  0  0  0
    6.1262    0.5408    0.0000 C   0  0  0  0  0  0  0  0  0  0  0  0
   -1.6700   -0.9600    0.0000 C   0  0  0  0  0  0  0  0  0  0  0  0
   -1.6700    0.5400    0.0000 C   0  0  0  0  0  0  0  0  0  0  0  0
   -0.3700   -1.7100    0.0000 C   0  0  0  0  0  0  0  0  0  0  0  0
    4.8270    1.2906    0.0000 C   0  0  0  0  0  0  0  0  0  0  0  0
   -0.3700    1.2900    0.0000 C   0  0  0  0  0  0  0  0  0  0  0  0
    0.9300   -0.9600    0.0000 C   0  0  0  0  0  0  0  0  0  0  0  0
    0.9300    0.5400    0.0000 C   0  0  0  0  0  0  0  0  0  0  0  0
    3.5281    0.5404    0.0000 C   0  0  0  0  0  0  0  0  0  0  0  0
    3.5283   -0.9596    0.0000 O   0  0  0  0  0  0  0  0  0  0  0  0
    2.2289    1.2902    0.0000 O   0  0  0  0  0  0  0  0  0  0  0  0
  2  1  1  0
  4  3  1  0
  5  3  1  0
  6  2  1  0
  7  4  1  0
  8  5  1  0
  9  7  1  0
  9  8  1  0
 10  6  1  0
 11 10  2  0
 12  9  1  0
 12 10  1  0
M  END
>  <NAME>  (5743) 
CYCLOHEXYL BUTYRATE

>  <SYNONYMS>  (5743) 


>  <SPECTRUM TYPE>  (5743) 
MS1

>  <INSTRUMENT TYPE>  (5743) 
EI-B

>  <INSTRUMENT>  (5743) 
HITACHI RMU-6M

>  <ION MODE>  (5743) 
P

>  <INCHIKEY>  (5743) 
VZHUBBUZNIULNM-UHFFFAOYSA-N

>  <FORMULA>  (5743) 
C10H18O2

>  <EXACT MASS>  (5743) 
170.130679816

>  <MW>  (5743) 
170

>  <ID>  (5743) 
JP002552

>  <CONTRIBUTOR>  (5743) 
University of Tokyo Team, {Faculty of Engineering, University of Tokyo

>  <COMMENT>  (5743) 
SMILES=CCCC(=O)OC(C1)CCCC1
InChI=InChI=1S/C10H18O2/c1-2-6-10(11)12-9-7-4-3-5-8-9/h9H,2-8H2,1H3
computed SMILES=O=C(OC1CCCCC1)CCC
accession=JP002552
date=2016.01.19 (Created 2008.10.21, modified 2011.05.06)
author=YAMAMOTO M, DEP. CHEMISTRY, FAC. SCIENCE, NARA WOMEN'S UNIV.
license=CC BY-NC-SA
exact mass=170.13068
ionization energy=70 eV
ion type=[M]+*
computed spectral entropy=2.7823005835450445
computed normalized entropy=0.7825677079783512
SPLASH=splash10-008l-9000000000-d3da9d578d4b3ffd657f
submitter=submitter = University of Tokyo Team (Faculty of Engineering, University of Tokyo)
MoNA Rating=3.75

>  <NUM PEAKS>  (5743) 
35

>  <MASS SPECTRAL PEAKS>  (5743) 
15 1.54
27 21.66
28 4.31
29 10.42
39 13.83
40 2.3
41 39.83
42 6.11
43 75.8
44 2.36
53 3.93
54 18.2
55 33.63
56 2.21
57 3.55
58 2.56
60 4.4
67 53.98
68 3.05
70 2.59
71 96.36
72 4.4
73 2.65
79 1.34
81 9.67
82 99.99
83 35.64
84 2.26
86 5.41
87 1.45
88 13.42
89 71.73
90 3.32
99 6.14
127 5.03

$$$$

     RDKit          2D

  8  7  0  0  0  0  0  0  0  0999 V2000
    1.9486    3.3750    0.0000 C   0  0  0  0  0  0  0  0  0  0  0  0
   -5.8457    3.3750    0.0000 C   0  0  0  0  0  0  0  0  0  0  0  0
    0.6495    4.1250    0.0000 C   0  0  0  0  0  0  0  0  0  0  0  0
   -4.5466    4.1250    0.0000 C   0  0  0  0  0  0  0  0  0  0  0  0
   -0.6495    3.3750    0.0000 C   0  0  0  0  0  0  0  0  0  0  0  0
   -1.9486    4.1250    0.0000 C   0  0  0  0  0  0  0  0  0  0  0  0
   -1.9486    5.6250    0.0000 O   0  0  0  0  0  0  0  0  0  0  0  0
   -3.2476    3.3750    0.0000 O   0  0  0  0  0  0  0  0  0  0  0  0
  3  1  1  0
  4  2  2  0
  5  3  1  0
  6  5  1  0
  7  6  2  0
  8  4  1  0
  8  6  1  0
M  END
>  <NAME>  (5744) 
VINYL BUTYRATE

>  <SYNONYMS>  (5744) 


>  <SPECTRUM TYPE>  (5744) 
MS1

>  <INSTRUMENT TYPE>  (5744) 
EI-B

>  <INSTRUMENT>  (5744) 
HITACHI RMU-6M

>  <ION MODE>  (5744) 
P

>  <INCHIKEY>  (5744) 
MEGHWIAOTJPCHQ-UHFFFAOYSA-N

>  <FORMULA>  (5744) 
C6H10O2

>  <EXACT MASS>  (5744) 
114.06807956

>  <MW>  (5744) 
114

>  <ID>  (5744) 
JP002551

>  <CONTRIBUTOR>  (5744) 
University of Tokyo Team, {Faculty of Engineering, University of Tokyo

>  <COMMENT>  (5744) 
SMILES=CCCC(=O)OC=C
InChI=InChI=1S/C6H10O2/c1-3-5-6(7)8-4-2/h4H,2-3,5H2,1H3
computed SMILES=O=C(OC=C)CCC
accession=JP002551
exact mass=114.06808
date=2016.01.19 (Created 2008.10.21, modified 2011.05.06)
author=YAMAMOTO M, DEP. CHEMISTRY, FAC. SCIENCE, NARA WOMEN'S UNIV.
license=CC BY-NC-SA
ionization energy=70 eV
ion type=[M]+*
computed spectral entropy=2.0443241625869097
computed normalized entropy=0.6824121703511319
SPLASH=splash10-0006-9000000000-a3de6eaf8ffafcf555a1
submitter=submitter = University of Tokyo Team (Faculty of Engineering, University of Tokyo)
MoNA Rating=3.75

>  <NUM PEAKS>  (5744) 
20

>  <MASS SPECTRAL PEAKS>  (5744) 
14 1.56
15 6.04
26 2.94
27 27
28 2.57
29 3.45
39 7.98
40 1.28
41 27.59
42 6.21
43 99.99
44 6.78
45 1.09
55 3.72
57 6.92
60 1.01
71 62.71
72 2.69
99 1.01
114 4.12

$$$$

     RDKit          2D

 11 10  0  0  0  0  0  0  0  0999 V2000
    2.5981    4.5000    0.0000 C   0  0  0  0  0  0  0  0  0  0  0  0
   -7.7942    4.5000    0.0000 C   0  0  0  0  0  0  0  0  0  0  0  0
   -6.4952    6.7500    0.0000 C   0  0  0  0  0  0  0  0  0  0  0  0
    1.2990    5.2500    0.0000 C   0  0  0  0  0  0  0  0  0  0  0  0
    0.0000    4.5000    0.0000 C   0  0  0  0  0  0  0  0  0  0  0  0
   -5.1962    4.5000    0.0000 C   0  0  0  0  0  0  0  0  0  0  0  0
   -3.8971    5.2500    0.0000 C   0  0  0  0  0  0  0  0  0  0  0  0
   -6.4952    5.2500    0.0000 C   0  0  0  0  0  0  0  0  0  0  0  0
   -1.2990    5.2500    0.0000 C   0  0  0  0  0  0  0  0  0  0  0  0
   -1.2990    6.7500    0.0000 O   0  0  0  0  0  0  0  0  0  0  0  0
   -2.5981    4.5000    0.0000 O   0  0  0  0  0  0  0  0  0  0  0  0
  4  1  1  0
  5  4  1  0
  7  6  1  0
  8  2  1  0
  8  3  1  0
  8  6  1  0
  9  5  1  0
 10  9  2  0
 11  7  1  0
 11  9  1  0
M  END
>  <NAME>  (5745) 
ISOAMYL BUTYRATE

>  <SYNONYMS>  (5745) 
ISOPENTYL BUTYRATE

>  <SPECTRUM TYPE>  (5745) 
MS1

>  <INSTRUMENT TYPE>  (5745) 
EI-B

>  <INSTRUMENT>  (5745) 
HITACHI RMU-6M

>  <ION MODE>  (5745) 
P

>  <INCHIKEY>  (5745) 
PQLMXFQTAMDXIZ-UHFFFAOYSA-N

>  <FORMULA>  (5745) 
C9H18O2

>  <EXACT MASS>  (5745) 
158.130679816

>  <MW>  (5745) 
158

>  <ID>  (5745) 
JP002550

>  <CONTRIBUTOR>  (5745) 
University of Tokyo Team, {Faculty of Engineering, University of Tokyo

>  <COMMENT>  (5745) 
SMILES=CCCC(=O)OCCC(C)C
InChI=InChI=1S/C9H18O2/c1-4-5-9(10)11-7-6-8(2)3/h8H,4-7H2,1-3H3
computed SMILES=O=C(OCCC(C)C)CCC
accession=JP002550
date=2016.01.19 (Created 2008.10.21, modified 2011.05.06)
author=YAMAMOTO M, DEP. CHEMISTRY, FAC. SCIENCE, NARA WOMEN'S UNIV.
license=CC BY-NC-SA
exact mass=158.13068
ionization energy=70 eV
ion type=[M]+*
computed spectral entropy=2.400953768320955
computed normalized entropy=0.7205301358273222
SPLASH=splash10-00dl-9000000000-be743bf025ce1c0dc836
submitter=submitter = University of Tokyo Team (Faculty of Engineering, University of Tokyo)
MoNA Rating=3.75

>  <NUM PEAKS>  (5745) 
28

>  <MASS SPECTRAL PEAKS>  (5745) 
15 1.83
26 1.01
27 17.59
28 3.82
29 9.69
31 1.18
39 8.51
40 1.58
41 24
42 14.22
43 77.46
44 2.73
45 2.19
53 1.32
55 33.09
56 2.09
57 1.92
60 3.21
69 5.27
70 99.99
71 81.11
72 3.91
73 2.06
85 1.72
88 2.66
89 16.24
101 3.44
115 5

$$$$

     RDKit          2D

 11 10  0  0  0  0  0  0  0  0999 V2000
   -8.4437    5.6250    0.0000 C   0  0  0  0  0  0  0  0  0  0  0  0
    3.2476    4.8750    0.0000 C   0  0  0  0  0  0  0  0  0  0  0  0
   -7.1447    4.8750    0.0000 C   0  0  0  0  0  0  0  0  0  0  0  0
    1.9486    5.6250    0.0000 C   0  0  0  0  0  0  0  0  0  0  0  0
   -5.8457    5.6250    0.0000 C   0  0  0  0  0  0  0  0  0  0  0  0
   -4.5466    4.8750    0.0000 C   0  0  0  0  0  0  0  0  0  0  0  0
    0.6495    4.8750    0.0000 C   0  0  0  0  0  0  0  0  0  0  0  0
   -3.2476    5.6250    0.0000 C   0  0  0  0  0  0  0  0  0  0  0  0
   -0.6495    5.6250    0.0000 C   0  0  0  0  0  0  0  0  0  0  0  0
   -0.6495    7.1250    0.0000 O   0  0  0  0  0  0  0  0  0  0  0  0
   -1.9486    4.8750    0.0000 O   0  0  0  0  0  0  0  0  0  0  0  0
  3  1  1  0
  4  2  1  0
  5  3  1  0
  6  5  1  0
  7  4  1  0
  8  6  1  0
  9  7  1  0
 10  9  2  0
 11  8  1  0
 11  9  1  0
M  END
>  <NAME>  (5746) 
N-AMYL BUTYRATE

>  <SYNONYMS>  (5746) 
PENTYL BUTYRATE

>  <SPECTRUM TYPE>  (5746) 
MS1

>  <INSTRUMENT TYPE>  (5746) 
EI-B

>  <INSTRUMENT>  (5746) 
HITACHI RMU-6M

>  <ION MODE>  (5746) 
P

>  <INCHIKEY>  (5746) 
CFNJLPHOBMVMNS-UHFFFAOYSA-N

>  <FORMULA>  (5746) 
C9H18O2

>  <EXACT MASS>  (5746) 
158.130679816

>  <MW>  (5746) 
158

>  <ID>  (5746) 
JP002549

>  <CONTRIBUTOR>  (5746) 
University of Tokyo Team, {Faculty of Engineering, University of Tokyo

>  <COMMENT>  (5746) 
SMILES=CCCCCOC(=O)CCC
InChI=InChI=1S/C9H18O2/c1-3-5-6-8-11-9(10)7-4-2/h3-8H2,1-2H3
computed SMILES=O=C(OCCCCC)CCC
accession=JP002549
date=2016.01.19 (Created 2008.10.21, modified 2011.05.06)
author=YAMAMOTO M, DEP. CHEMISTRY, FAC. SCIENCE, NARA WOMEN'S UNIV.
license=CC BY-NC-SA
exact mass=158.13068
ionization energy=70 eV
ion type=[M]+*
computed spectral entropy=2.6049144557423975
computed normalized entropy=0.738697713282149
SPLASH=splash10-00dl-9000000000-6fa919338a6659829346
submitter=submitter = University of Tokyo Team (Faculty of Engineering, University of Tokyo)
MoNA Rating=3.75

>  <NUM PEAKS>  (5746) 
34

>  <MASS SPECTRAL PEAKS>  (5746) 
15 1.78
26 1.37
27 24.8
28 4.97
29 17.33
31 2.19
39 10.33
40 2.19
41 34.04
42 35.56
43 98.77
44 3.32
45 1.59
53 1.13
55 24.45
56 1.75
57 1.67
60 9.91
61 3.24
69 7.6
70 79.52
71 99.99
72 4.63
73 6.15
85 1.67
86 2.11
87 1.41
88 7.86
89 71.85
90 3.45
101 5.17
115 2.42
130 1.8
158 0.28

$$$$

     RDKit          2D

 10  9  0  0  0  0  0  0  0  0999 V2000
    2.2733    4.3125    0.0000 C   0  0  0  0  0  0  0  0  0  0  0  0
   -6.8200    5.0625    0.0000 C   0  0  0  0  0  0  0  0  0  0  0  0
   -5.5209    2.8125    0.0000 C   0  0  0  0  0  0  0  0  0  0  0  0
    0.9743    5.0625    0.0000 C   0  0  0  0  0  0  0  0  0  0  0  0
   -0.3248    4.3125    0.0000 C   0  0  0  0  0  0  0  0  0  0  0  0
   -4.2219    5.0625    0.0000 C   0  0  0  0  0  0  0  0  0  0  0  0
   -5.5209    4.3125    0.0000 C   0  0  0  0  0  0  0  0  0  0  0  0
   -1.6238    5.0625    0.0000 C   0  0  0  0  0  0  0  0  0  0  0  0
   -1.6238    6.5625    0.0000 O   0  0  0  0  0  0  0  0  0  0  0  0
   -2.9228    4.3125    0.0000 O   0  0  0  0  0  0  0  0  0  0  0  0
  4  1  1  0
  5  4  1  0
  7  2  1  0
  7  3  1  0
  7  6  1  0
  8  5  1  0
  9  8  2  0
 10  6  1  0
 10  8  1  0
M  END
>  <NAME>  (5747) 
ISOBUTYL BUTYRATE

>  <SYNONYMS>  (5747) 


>  <SPECTRUM TYPE>  (5747) 
MS1

>  <INSTRUMENT TYPE>  (5747) 
EI-B

>  <INSTRUMENT>  (5747) 
HITACHI RMU-6M

>  <ION MODE>  (5747) 
P

>  <INCHIKEY>  (5747) 
RGFNRWTWDWVHDD-UHFFFAOYSA-N

>  <FORMULA>  (5747) 
C8H16O2

>  <EXACT MASS>  (5747) 
144.115029752

>  <MW>  (5747) 
144

>  <ID>  (5747) 
JP002548

>  <CONTRIBUTOR>  (5747) 
University of Tokyo Team, {Faculty of Engineering, University of Tokyo

>  <COMMENT>  (5747) 
SMILES=CCCC(=O)OCC(C)C
InChI=InChI=1S/C8H16O2/c1-4-5-8(9)10-6-7(2)3/h7H,4-6H2,1-3H3
computed SMILES=O=C(OCC(C)C)CCC
accession=JP002548
date=2016.01.19 (Created 2008.10.21, modified 2011.05.06)
author=YAMAMOTO M, DEP. CHEMISTRY, FAC. SCIENCE, NARA WOMEN'S UNIV.
license=CC BY-NC-SA
exact mass=144.11503
ionization energy=70 eV
ion type=[M]+*
computed spectral entropy=2.3808250923486023
computed normalized entropy=0.7491456153491083
SPLASH=splash10-05fu-9000000000-8ca43e86a485b4a1debf
submitter=submitter = University of Tokyo Team (Faculty of Engineering, University of Tokyo)
MoNA Rating=3.75

>  <NUM PEAKS>  (5747) 
24

>  <MASS SPECTRAL PEAKS>  (5747) 
15 1.52
27 13.9
28 2.56
29 12.06
31 1.42
39 7.39
40 1.32
41 23.65
42 3.71
43 46.33
44 1.63
55 2.61
56 45.82
57 21.22
60 5.97
70 1.69
71 99.99
72 4.84
73 3.62
88 3.93
89 17.25
101 6.56
114 2.05
116 1.51

$$$$

     RDKit          2D

 10  9  0  0  0  0  0  0  0  0999 V2000
    2.5981    4.5000    0.0000 C   0  0  0  0  0  0  0  0  0  0  0  0
   -7.7942    4.5000    0.0000 C   0  0  0  0  0  0  0  0  0  0  0  0
    1.2990    5.2500    0.0000 C   0  0  0  0  0  0  0  0  0  0  0  0
   -6.4952    5.2500    0.0000 C   0  0  0  0  0  0  0  0  0  0  0  0
    0.0000    4.5000    0.0000 C   0  0  0  0  0  0  0  0  0  0  0  0
   -5.1962    4.5000    0.0000 C   0  0  0  0  0  0  0  0  0  0  0  0
   -1.2990    5.2500    0.0000 C   0  0  0  0  0  0  0  0  0  0  0  0
   -3.8971    5.2500    0.0000 C   0  0  0  0  0  0  0  0  0  0  0  0
   -3.8971    6.7500    0.0000 O   0  0  0  0  0  0  0  0  0  0  0  0
   -2.5981    4.5000    0.0000 O   0  0  0  0  0  0  0  0  0  0  0  0
  3  1  1  0
  4  2  1  0
  5  3  1  0
  6  4  1  0
  7  5  1  0
  8  6  1  0
  9  8  2  0
 10  7  1  0
 10  8  1  0
M  END
>  <NAME>  (5748) 
N-BUTYL BUTYRATE

>  <SYNONYMS>  (5748) 


>  <SPECTRUM TYPE>  (5748) 
MS1

>  <INSTRUMENT TYPE>  (5748) 
EI-B

>  <INSTRUMENT>  (5748) 
HITACHI RMU-6M

>  <ION MODE>  (5748) 
P

>  <INCHIKEY>  (5748) 
XUPYJHCZDLZNFP-UHFFFAOYSA-N

>  <FORMULA>  (5748) 
C8H16O2

>  <EXACT MASS>  (5748) 
144.115029752

>  <MW>  (5748) 
144

>  <ID>  (5748) 
JP002547

>  <CONTRIBUTOR>  (5748) 
University of Tokyo Team, {Faculty of Engineering, University of Tokyo

>  <COMMENT>  (5748) 
SMILES=CCCCOC(=O)CCC
InChI=InChI=1S/C8H16O2/c1-3-5-7-10-8(9)6-4-2/h3-7H2,1-2H3
computed SMILES=O=C(OCCCC)CCC
accession=JP002547
date=2016.01.19 (Created 2008.10.21, modified 2011.05.06)
author=YAMAMOTO M, DEP. CHEMISTRY, FAC. SCIENCE, NARA WOMEN'S UNIV.
license=CC BY-NC-SA
exact mass=144.11503
ionization energy=70 eV
ion type=[M]+*
computed spectral entropy=2.5567017445432176
computed normalized entropy=0.7672703571272668
SPLASH=splash10-05g3-9000000000-6475886c051aaeebd2f5
submitter=submitter = University of Tokyo Team (Faculty of Engineering, University of Tokyo)
MoNA Rating=3.75

>  <NUM PEAKS>  (5748) 
28

>  <MASS SPECTRAL PEAKS>  (5748) 
15 1.88
26 1.68
27 21.96
28 6.32
29 24.17
31 2.18
39 9.34
40 1.61
41 35.77
42 5.06
43 60.09
44 1.98
45 1.47
55 7.59
56 63.43
57 19.82
60 11.4
61 2.07
70 1.35
71 99.99
72 4.85
73 7.22
88 6.87
89 60.61
90 2.94
101 6.87
116 2.37
144 0.39

$$$$

     RDKit          2D

  9  8  0  0  0  0  0  0  0  0999 V2000
    1.9486    3.3750    0.0000 C   0  0  0  0  0  0  0  0  0  0  0  0
   -5.8457    3.3750    0.0000 C   0  0  0  0  0  0  0  0  0  0  0  0
   -4.5466    5.6250    0.0000 C   0  0  0  0  0  0  0  0  0  0  0  0
    0.6495    4.1250    0.0000 C   0  0  0  0  0  0  0  0  0  0  0  0
   -0.6495    3.3750    0.0000 C   0  0  0  0  0  0  0  0  0  0  0  0
   -4.5466    4.1250    0.0000 C   0  0  0  0  0  0  0  0  0  0  0  0
   -1.9486    4.1250    0.0000 C   0  0  0  0  0  0  0  0  0  0  0  0
   -1.9486    5.6250    0.0000 O   0  0  0  0  0  0  0  0  0  0  0  0
   -3.2476    3.3750    0.0000 O   0  0  0  0  0  0  0  0  0  0  0  0
  4  1  1  0
  5  4  1  0
  6  2  1  0
  6  3  1  0
  7  5  1  0
  8  7  2  0
  9  6  1  0
  9  7  1  0
M  END
>  <NAME>  (5749) 
ISOPROPYL BUTYRATE

>  <SYNONYMS>  (5749) 


>  <SPECTRUM TYPE>  (5749) 
MS1

>  <INSTRUMENT TYPE>  (5749) 
EI-B

>  <INSTRUMENT>  (5749) 
HITACHI RMU-6M

>  <ION MODE>  (5749) 
P

>  <INCHIKEY>  (5749) 
FFOPEPMHKILNIT-UHFFFAOYSA-N

>  <FORMULA>  (5749) 
C7H14O2

>  <EXACT MASS>  (5749) 
130.099379688

>  <MW>  (5749) 
130

>  <ID>  (5749) 
JP002546

>  <CONTRIBUTOR>  (5749) 
University of Tokyo Team, {Faculty of Engineering, University of Tokyo

>  <COMMENT>  (5749) 
SMILES=CCCC(=O)OC(C)C
InChI=InChI=1S/C7H14O2/c1-4-5-7(8)9-6(2)3/h6H,4-5H2,1-3H3
computed SMILES=O=C(OC(C)C)CCC
ion type=[M]+*
accession=JP002546
date=2016.01.19 (Created 2008.10.21, modified 2011.05.06)
author=YAMAMOTO M, DEP. CHEMISTRY, FAC. SCIENCE, NARA WOMEN'S UNIV.
license=CC BY-NC-SA
exact mass=130.09938
ionization energy=70 eV
computed spectral entropy=2.36755657720377
computed normalized entropy=0.7355228054815416
SPLASH=splash10-006x-9000000000-b1225eb54077c992b141
submitter=submitter = University of Tokyo Team (Faculty of Engineering, University of Tokyo)
MoNA Rating=3.75

>  <NUM PEAKS>  (5749) 
25

>  <MASS SPECTRAL PEAKS>  (5749) 
15 3.25
26 1.18
27 17.36
28 3.22
29 1.9
31 1.3
39 8.13
40 1.39
41 21.77
42 9.05
43 99.99
44 3.31
45 3.34
55 1.3
59 13.66
60 14.27
71 71.39
72 3.2
73 6.41
88 11.87
89 27.93
90 1.3
102 3.11
115 6.79
130 1.01

$$$$

     RDKit          2D

  9  8  0  0  0  0  0  0  0  0999 V2000
    2.5981    3.7500    0.0000 C   0  0  0  0  0  0  0  0  0  0  0  0
   -6.4952    4.5000    0.0000 C   0  0  0  0  0  0  0  0  0  0  0  0
    1.2990    4.5000    0.0000 C   0  0  0  0  0  0  0  0  0  0  0  0
   -5.1962    3.7500    0.0000 C   0  0  0  0  0  0  0  0  0  0  0  0
    0.0000    3.7500    0.0000 C   0  0  0  0  0  0  0  0  0  0  0  0
   -3.8971    4.5000    0.0000 C   0  0  0  0  0  0  0  0  0  0  0  0
   -1.2990    4.5000    0.0000 C   0  0  0  0  0  0  0  0  0  0  0  0
   -1.2990    6.0000    0.0000 O   0  0  0  0  0  0  0  0  0  0  0  0
   -2.5981    3.7500    0.0000 O   0  0  0  0  0  0  0  0  0  0  0  0
  3  1  1  0
  4  2  1  0
  5  3  1  0
  6  4  1  0
  7  5  1  0
  8  7  2  0
  9  6  1  0
  9  7  1  0
M  END
>  <NAME>  (5750) 
N-PROPYL BUTYRATE

>  <SYNONYMS>  (5750) 


>  <SPECTRUM TYPE>  (5750) 
MS1

>  <INSTRUMENT TYPE>  (5750) 
EI-B

>  <INSTRUMENT>  (5750) 
HITACHI RMU-6M

>  <ION MODE>  (5750) 
P

>  <INCHIKEY>  (5750) 
HUAZGNHGCJGYNP-UHFFFAOYSA-N

>  <FORMULA>  (5750) 
C7H14O2

>  <EXACT MASS>  (5750) 
130.099379688

>  <MW>  (5750) 
130

>  <ID>  (5750) 
JP002545

>  <CONTRIBUTOR>  (5750) 
University of Tokyo Team, {Faculty of Engineering, University of Tokyo

>  <COMMENT>  (5750) 
SMILES=CCCOC(=O)CCC
InChI=InChI=1S/C7H14O2/c1-3-5-7(8)9-6-4-2/h3-6H2,1-2H3
computed SMILES=O=C(OCCC)CCC
accession=JP002545
date=2016.01.19 (Created 2008.10.21, modified 2011.05.06)
author=YAMAMOTO M, DEP. CHEMISTRY, FAC. SCIENCE, NARA WOMEN'S UNIV.
license=CC BY-NC-SA
exact mass=130.09938
ionization energy=70 eV
ion type=[M]+*
computed spectral entropy=2.4841355485781316
computed normalized entropy=0.7377241780945959
SPLASH=splash10-0076-9000000000-e720d1b1a41e521965bf
submitter=submitter = University of Tokyo Team (Faculty of Engineering, University of Tokyo)
MoNA Rating=3.75

>  <NUM PEAKS>  (5750) 
29

>  <MASS SPECTRAL PEAKS>  (5750) 
15 2.79
26 1.85
27 27.21
28 3.74
29 5.47
31 6.43
39 10.26
40 1.85
41 27.88
42 18.5
43 88.46
44 2.99
45 1.46
55 2.22
57 1.48
59 6.28
60 14.59
61 10.18
71 99.99
72 4.88
73 9.24
87 1.18
88 4.94
89 65.77
90 3.13
100 1.16
101 5.96
102 4.96
130 0.32

$$$$

     RDKit          2D

  8  7  0  0  0  0  0  0  0  0999 V2000
    1.9486    3.3750    0.0000 C   0  0  0  0  0  0  0  0  0  0  0  0
   -5.8457    3.3750    0.0000 C   0  0  0  0  0  0  0  0  0  0  0  0
    0.6495    4.1250    0.0000 C   0  0  0  0  0  0  0  0  0  0  0  0
   -4.5466    4.1250    0.0000 C   0  0  0  0  0  0  0  0  0  0  0  0
   -0.6495    3.3750    0.0000 C   0  0  0  0  0  0  0  0  0  0  0  0
   -1.9486    4.1250    0.0000 C   0  0  0  0  0  0  0  0  0  0  0  0
   -1.9486    5.6250    0.0000 O   0  0  0  0  0  0  0  0  0  0  0  0
   -3.2476    3.3750    0.0000 O   0  0  0  0  0  0  0  0  0  0  0  0
  3  1  1  0
  4  2  1  0
  5  3  1  0
  6  5  1  0
  7  6  2  0
  8  4  1  0
  8  6  1  0
M  END
>  <NAME>  (5751) 
ETHYL BUTYRATE

>  <SYNONYMS>  (5751) 


>  <SPECTRUM TYPE>  (5751) 
MS1

>  <INSTRUMENT TYPE>  (5751) 
EI-B

>  <INSTRUMENT>  (5751) 
HITACHI RMU-6M

>  <ION MODE>  (5751) 
P

>  <INCHIKEY>  (5751) 
OBNCKNCVKJNDBV-UHFFFAOYSA-N

>  <FORMULA>  (5751) 
C6H12O2

>  <EXACT MASS>  (5751) 
116.083729624

>  <MW>  (5751) 
116

>  <ID>  (5751) 
JP002544

>  <CONTRIBUTOR>  (5751) 
University of Tokyo Team, {Faculty of Engineering, University of Tokyo

>  <COMMENT>  (5751) 
SMILES=CCCC(=O)OCC
InChI=InChI=1S/C6H12O2/c1-3-5-6(7)8-4-2/h3-5H2,1-2H3
computed SMILES=O=C(OCC)CCC
accession=JP002544
date=2016.01.19 (Created 2008.10.21, modified 2011.05.06)
author=YAMAMOTO M, DEP. CHEMISTRY, FAC. SCIENCE, NARA WOMEN'S UNIV.
license=CC BY-NC-SA
exact mass=116.08373
ionization energy=70 eV
ion type=[M]+*
computed spectral entropy=2.642353915634783
computed normalized entropy=0.8017247282139335
SPLASH=splash10-00g3-9000000000-78bbe008aa184177c5ca
submitter=submitter = University of Tokyo Team (Faculty of Engineering, University of Tokyo)
MoNA Rating=3.75

>  <NUM PEAKS>  (5751) 
27

>  <MASS SPECTRAL PEAKS>  (5751) 
14 1.08
15 5.16
26 3.92
27 36.35
28 7.98
29 62.86
30 1.56
31 2.14
38 1.14
39 10.83
40 1.87
41 25.58
42 10.51
43 90.45
44 3.19
45 19.23
55 3.59
60 22.4
61 9.96
70 9.02
71 99.99
72 4.91
73 17.82
88 56.98
89 15.31
101 7.18
116 8

$$$$

     RDKit          2D

  7  6  0  0  0  0  0  0  0  0999 V2000
    1.9486    2.6250    0.0000 C   0  0  0  0  0  0  0  0  0  0  0  0
   -4.5466    3.3750    0.0000 C   0  0  0  0  0  0  0  0  0  0  0  0
    0.6495    3.3750    0.0000 C   0  0  0  0  0  0  0  0  0  0  0  0
   -0.6495    2.6250    0.0000 C   0  0  0  0  0  0  0  0  0  0  0  0
   -1.9486    3.3750    0.0000 C   0  0  0  0  0  0  0  0  0  0  0  0
   -1.9486    4.8750    0.0000 O   0  0  0  0  0  0  0  0  0  0  0  0
   -3.2476    2.6250    0.0000 O   0  0  0  0  0  0  0  0  0  0  0  0
  3  1  1  0
  4  3  1  0
  5  4  1  0
  6  5  2  0
  7  2  1  0
  7  5  1  0
M  END
>  <NAME>  (5752) 
METHYL BUTYRATE

>  <SYNONYMS>  (5752) 


>  <SPECTRUM TYPE>  (5752) 
MS1

>  <INSTRUMENT TYPE>  (5752) 
EI-B

>  <INSTRUMENT>  (5752) 
HITACHI RMU-6M

>  <ION MODE>  (5752) 
P

>  <INCHIKEY>  (5752) 
UUIQMZJEGPQKFD-UHFFFAOYSA-N

>  <FORMULA>  (5752) 
C5H10O2

>  <EXACT MASS>  (5752) 
102.06807956

>  <MW>  (5752) 
102

>  <ID>  (5752) 
JP002543

>  <CONTRIBUTOR>  (5752) 
University of Tokyo Team, {Faculty of Engineering, University of Tokyo

>  <COMMENT>  (5752) 
SMILES=CCCC(=O)OC
InChI=InChI=1S/C5H10O2/c1-3-4-5(6)7-2/h3-4H2,1-2H3
computed SMILES=O=C(OC)CCC
accession=JP002543
date=2016.01.19 (Created 2008.10.21, modified 2011.05.06)
author=YAMAMOTO M, DEP. CHEMISTRY, FAC. SCIENCE, NARA WOMEN'S UNIV.
license=CC BY-NC-SA
exact mass=102.06808
ionization energy=70 eV
ion type=[M]+*
computed spectral entropy=2.5457950179967086
computed normalized entropy=0.7560354499672619
SPLASH=splash10-00dl-9000000000-b0683e7f6a55b4e40d11
submitter=submitter = University of Tokyo Team (Faculty of Engineering, University of Tokyo)
MoNA Rating=3.75

>  <NUM PEAKS>  (5752) 
29

>  <MASS SPECTRAL PEAKS>  (5752) 
14 1.67
15 29.15
26 3.76
27 33.01
28 6
29 6.9
31 4.98
33 1.61
37 1.02
38 2.35
39 16.75
40 2.54
41 35.72
42 10.49
43 88.58
44 2.95
45 2.71
55 10.04
59 24.94
69 1.95
70 1.33
71 75.3
72 3.42
74 99.99
75 3.59
87 25.04
88 1.23
101 1.24
102 4.42

$$$$

     RDKit          2D

 11 11  0  0  0  0  0  0  0  0999 V2000
   -1.6700   -0.9602    0.0000 C   0  0  0  0  0  0  0  0  0  0  0  0
   -0.3708   -1.7100    0.0000 C   0  0  0  0  0  0  0  0  0  0  0  0
    6.1262    0.5406    0.0000 C   0  0  0  0  0  0  0  0  0  0  0  0
    6.1262   -0.9594    0.0000 C   0  0  0  0  0  0  0  0  0  0  0  0
    4.8262    1.2906    0.0000 C   0  0  0  0  0  0  0  0  0  0  0  0
    4.8262   -1.7094    0.0000 C   0  0  0  0  0  0  0  0  0  0  0  0
    3.5262    0.5406    0.0000 C   0  0  0  0  0  0  0  0  0  0  0  0
    3.5262   -0.9594    0.0000 C   0  0  0  0  0  0  0  0  0  0  0  0
    0.9281   -0.9598    0.0000 C   0  0  0  0  0  0  0  0  0  0  0  0
    0.9278    0.5402    0.0000 O   0  0  0  0  0  0  0  0  0  0  0  0
    2.2272   -1.7096    0.0000 O   0  0  0  0  0  0  0  0  0  0  0  0
  2  1  1  0
  4  3  2  0
  5  3  1  0
  6  4  1  0
  7  5  2  0
  8  6  2  0
  8  7  1  0
  9  2  1  0
 10  9  2  0
 11  8  1  0
 11  9  1  0
M  END
>  <NAME>  (5753) 
PHENYL PROPIONATE

>  <SYNONYMS>  (5753) 


>  <SPECTRUM TYPE>  (5753) 
MS1

>  <INSTRUMENT TYPE>  (5753) 
EI-B

>  <INSTRUMENT>  (5753) 
HITACHI RMU-6M

>  <ION MODE>  (5753) 
P

>  <INCHIKEY>  (5753) 
DYUMLJSJISTVPV-UHFFFAOYSA-N

>  <FORMULA>  (5753) 
C9H10O2

>  <EXACT MASS>  (5753) 
150.06807956

>  <MW>  (5753) 
150

>  <ID>  (5753) 
JP002542

>  <CONTRIBUTOR>  (5753) 
University of Tokyo Team, {Faculty of Engineering, University of Tokyo

>  <COMMENT>  (5753) 
SMILES=CCC(=O)Oc(c1)cccc1
InChI=InChI=1S/C9H10O2/c1-2-9(10)11-8-6-4-3-5-7-8/h3-7H,2H2,1H3
computed SMILES=O=C(OC=1C=CC=CC1)CC
accession=JP002542
date=2016.01.19 (Created 2008.10.21, modified 2011.05.06)
author=YAMAMOTO M, DEP. CHEMISTRY, FAC. SCIENCE, NARA WOMEN'S UNIV.
license=CC BY-NC-SA
exact mass=150.06808
ionization energy=70 eV
ion type=[M]+*
computed spectral entropy=2.2183603641422067
computed normalized entropy=0.7074994279601418
SPLASH=splash10-0006-9000000000-8ac4d8493feadaac5cc2
submitter=submitter = University of Tokyo Team (Faculty of Engineering, University of Tokyo)
MoNA Rating=3.75

>  <NUM PEAKS>  (5753) 
23

>  <MASS SPECTRAL PEAKS>  (5753) 
26 1.56
27 8.68
28 3.57
29 39.54
38 2.65
39 12.51
40 2.09
50 1.74
51 4.11
55 2.45
56 2.71
57 48.52
58 1.54
63 2.44
64 1.21
65 9.27
66 6.28
77 5.37
93 1
94 99.99
95 7.4
150 19.91
151 2.03

$$$$

     RDKit          2D

 11 11  0  0  0  0  0  0  0  0999 V2000
   -1.6700   -0.9602    0.0000 C   0  0  0  0  0  0  0  0  0  0  0  0
   -0.3708   -1.7100    0.0000 C   0  0  0  0  0  0  0  0  0  0  0  0
    6.1262    0.5406    0.0000 C   0  0  0  0  0  0  0  0  0  0  0  0
    6.1262   -0.9594    0.0000 C   0  0  0  0  0  0  0  0  0  0  0  0
    4.8262    1.2906    0.0000 C   0  0  0  0  0  0  0  0  0  0  0  0
    4.8262   -1.7094    0.0000 C   0  0  0  0  0  0  0  0  0  0  0  0
    3.5262    0.5406    0.0000 C   0  0  0  0  0  0  0  0  0  0  0  0
    3.5262   -0.9594    0.0000 C   0  0  0  0  0  0  0  0  0  0  0  0
    0.9281   -0.9598    0.0000 C   0  0  0  0  0  0  0  0  0  0  0  0
    0.9278    0.5402    0.0000 O   0  0  0  0  0  0  0  0  0  0  0  0
    2.2272   -1.7096    0.0000 O   0  0  0  0  0  0  0  0  0  0  0  0
  2  1  1  0
  4  3  1  0
  5  3  1  0
  6  4  1  0
  7  5  1  0
  8  6  1  0
  8  7  1  0
  9  2  1  0
 10  9  2  0
 11  8  1  0
 11  9  1  0
M  END
>  <NAME>  (5754) 
CYCLOHEXYL PROPIONATE

>  <SYNONYMS>  (5754) 


>  <SPECTRUM TYPE>  (5754) 
MS1

>  <INSTRUMENT TYPE>  (5754) 
EI-B

>  <INSTRUMENT>  (5754) 
HITACHI RMU-6M

>  <ION MODE>  (5754) 
P

>  <INCHIKEY>  (5754) 
MAMMVUWCKMOLSG-UHFFFAOYSA-N

>  <FORMULA>  (5754) 
C9H16O2

>  <EXACT MASS>  (5754) 
156.115029752

>  <MW>  (5754) 
156

>  <ID>  (5754) 
JP002541

>  <CONTRIBUTOR>  (5754) 
University of Tokyo Team, {Faculty of Engineering, University of Tokyo

>  <COMMENT>  (5754) 
SMILES=CCC(=O)OC(C1)CCCC1
InChI=InChI=1S/C9H16O2/c1-2-9(10)11-8-6-4-3-5-7-8/h8H,2-7H2,1H3
computed SMILES=O=C(OC1CCCCC1)CC
accession=JP002541
date=2016.01.19 (Created 2008.10.21, modified 2011.05.06)
author=YAMAMOTO M, DEP. CHEMISTRY, FAC. SCIENCE, NARA WOMEN'S UNIV.
license=CC BY-NC-SA
exact mass=156.11503
ionization energy=70 eV
ion type=[M]+*
computed spectral entropy=2.6396828901182734
computed normalized entropy=0.7485572934734456
SPLASH=splash10-0a7i-9000000000-a0cb1d00fd02b6052353
submitter=submitter = University of Tokyo Team (Faculty of Engineering, University of Tokyo)
MoNA Rating=3.75

>  <NUM PEAKS>  (5754) 
34

>  <MASS SPECTRAL PEAKS>  (5754) 
15 1.03
26 1.4
27 13.87
28 4.52
29 43.75
30 1.16
39 8.24
40 1.28
41 18.25
42 2.94
43 2.87
44 2.25
53 3.1
54 14.47
55 23.42
56 2.95
57 99.99
58 3.67
67 43.31
68 2.6
72 4.67
73 1.06
74 2.53
75 30.69
76 1.25
79 1.09
81 9.6
82 78.47
83 24.9
84 1.56
99 3.75
100 1.16
113 2.22
127 2.03

$$$$

     RDKit          2D

  7  6  0  0  0  0  0  0  0  0999 V2000
    1.9486    2.6250    0.0000 C   0  0  0  0  0  0  0  0  0  0  0  0
   -4.5466    3.3750    0.0000 C   0  0  0  0  0  0  0  0  0  0  0  0
    0.6495    3.3750    0.0000 C   0  0  0  0  0  0  0  0  0  0  0  0
   -3.2476    2.6250    0.0000 C   0  0  0  0  0  0  0  0  0  0  0  0
   -0.6495    2.6250    0.0000 C   0  0  0  0  0  0  0  0  0  0  0  0
   -0.6495    1.1250    0.0000 O   0  0  0  0  0  0  0  0  0  0  0  0
   -1.9486    3.3750    0.0000 O   0  0  0  0  0  0  0  0  0  0  0  0
  3  1  1  0
  4  2  2  0
  5  3  1  0
  6  5  2  0
  7  4  1  0
  7  5  1  0
M  END
>  <NAME>  (5755) 
VINYL PROPIONATE

>  <SYNONYMS>  (5755) 


>  <SPECTRUM TYPE>  (5755) 
MS1

>  <INSTRUMENT TYPE>  (5755) 
EI-B

>  <INSTRUMENT>  (5755) 
HITACHI RMU-6M

>  <ION MODE>  (5755) 
P

>  <INCHIKEY>  (5755) 
UIWXSTHGICQLQT-UHFFFAOYSA-N

>  <FORMULA>  (5755) 
C5H8O2

>  <EXACT MASS>  (5755) 
100.052429496

>  <MW>  (5755) 
100

>  <ID>  (5755) 
JP002540

>  <CONTRIBUTOR>  (5755) 
University of Tokyo Team, {Faculty of Engineering, University of Tokyo

>  <COMMENT>  (5755) 
SMILES=C=COC(=O)CC
InChI=InChI=1S/C5H8O2/c1-3-5(6)7-4-2/h4H,2-3H2,1H3
computed SMILES=O=C(OC=C)CC
accession=JP002540
date=2016.01.19 (Created 2008.10.21, modified 2011.05.06)
author=YAMAMOTO M, DEP. CHEMISTRY, FAC. SCIENCE, NARA WOMEN'S UNIV.
license=CC BY-NC-SA
exact mass=100.05243
ionization energy=70 eV
ion type=[M]+*
computed spectral entropy=1.8501965835237195
computed normalized entropy=0.6832209324519415
SPLASH=splash10-056r-9000000000-1b7ab4bbe884f68d4876
submitter=submitter = University of Tokyo Team (Faculty of Engineering, University of Tokyo)
MoNA Rating=3.75

>  <NUM PEAKS>  (5755) 
15

>  <MASS SPECTRAL PEAKS>  (5755) 
14 2.06
15 6
26 6.06
27 27.83
28 8.2
29 99.99
30 2.14
42 4.45
43 12.97
44 12.46
55 1.66
56 2.51
57 93.08
58 3.38
100 8.43

$$$$

     RDKit          2D

  9  8  0  0  0  0  0  0  0  0999 V2000
   -6.4952    4.5000    0.0000 C   0  0  0  0  0  0  0  0  0  0  0  0
    2.5981    3.7500    0.0000 C   0  0  0  0  0  0  0  0  0  0  0  0
   -5.1962    3.7500    0.0000 C   0  0  0  0  0  0  0  0  0  0  0  0
    1.2990    4.5000    0.0000 C   0  0  0  0  0  0  0  0  0  0  0  0
   -3.8971    4.5000    0.0000 C   0  0  0  0  0  0  0  0  0  0  0  0
   -2.5981    3.7500    0.0000 C   0  0  0  0  0  0  0  0  0  0  0  0
    0.0000    3.7500    0.0000 C   0  0  0  0  0  0  0  0  0  0  0  0
   -0.0000    2.2500    0.0000 O   0  0  0  0  0  0  0  0  0  0  0  0
   -1.2990    4.5000    0.0000 O   0  0  0  0  0  0  0  0  0  0  0  0
  3  1  1  0
  4  2  1  0
  5  3  1  0
  6  5  1  0
  7  4  1  0
  8  7  2  0
  9  6  1  0
  9  7  1  0
M  END
>  <NAME>  (5756) 
N-BUTYL PROPIONATE

>  <SYNONYMS>  (5756) 


>  <SPECTRUM TYPE>  (5756) 
MS1

>  <INSTRUMENT TYPE>  (5756) 
EI-B

>  <INSTRUMENT>  (5756) 
HITACHI RMU-6M

>  <ION MODE>  (5756) 
P

>  <INCHIKEY>  (5756) 
BTMVHUNTONAYDX-UHFFFAOYSA-N

>  <FORMULA>  (5756) 
C7H14O2

>  <EXACT MASS>  (5756) 
130.099379688

>  <MW>  (5756) 
130

>  <ID>  (5756) 
JP002539

>  <CONTRIBUTOR>  (5756) 
University of Tokyo Team, {Faculty of Engineering, University of Tokyo

>  <COMMENT>  (5756) 
SMILES=CCCCOC(=O)CC
InChI=InChI=1S/C7H14O2/c1-3-5-6-9-7(8)4-2/h3-6H2,1-2H3
computed SMILES=O=C(OCCCC)CC
accession=JP002539
date=2016.01.19 (Created 2008.10.21, modified 2011.05.06)
author=YAMAMOTO M, DEP. CHEMISTRY, FAC. SCIENCE, NARA WOMEN'S UNIV.
license=CC BY-NC-SA
exact mass=130.09938
ionization energy=70 eV
ion type=[M]+*
computed spectral entropy=2.249527355438499
computed normalized entropy=0.7174394849814419
SPLASH=splash10-0a6r-9000000000-e56127e16d22512455a7
submitter=submitter = University of Tokyo Team (Faculty of Engineering, University of Tokyo)
MoNA Rating=3.75

>  <NUM PEAKS>  (5756) 
23

>  <MASS SPECTRAL PEAKS>  (5756) 
15 1.03
26 2.34
27 16.07
28 8.37
29 52.1
30 1.46
31 3.33
39 4.31
40 1
41 19.31
42 1.29
43 3.08
55 7.11
56 48.87
57 99.99
58 3.58
71 3.36
73 1.88
74 3.6
75 36.78
76 1.43
87 8.88
101 1.44

$$$$

     RDKit          2D

  9  8  0  0  0  0  0  0  0  0999 V2000
    1.9486    3.3750    0.0000 C   0  0  0  0  0  0  0  0  0  0  0  0
   -5.8457    3.3750    0.0000 C   0  0  0  0  0  0  0  0  0  0  0  0
   -4.5466    5.6250    0.0000 C   0  0  0  0  0  0  0  0  0  0  0  0
    0.6495    4.1250    0.0000 C   0  0  0  0  0  0  0  0  0  0  0  0
   -3.2476    3.3750    0.0000 C   0  0  0  0  0  0  0  0  0  0  0  0
   -4.5466    4.1250    0.0000 C   0  0  0  0  0  0  0  0  0  0  0  0
   -0.6495    3.3750    0.0000 C   0  0  0  0  0  0  0  0  0  0  0  0
   -0.6495    1.8750    0.0000 O   0  0  0  0  0  0  0  0  0  0  0  0
   -1.9486    4.1250    0.0000 O   0  0  0  0  0  0  0  0  0  0  0  0
  4  1  2  0
  6  2  1  0
  6  3  1  0
  6  5  1  0
  7  4  1  0
  8  7  2  0
  9  5  1  0
  9  7  1  0
M  END
>  <NAME>  (5757) 
ISOBUTYL ACRYLATE

>  <SYNONYMS>  (5757) 


>  <SPECTRUM TYPE>  (5757) 
MS1

>  <INSTRUMENT TYPE>  (5757) 
EI-B

>  <INSTRUMENT>  (5757) 
HITACHI RMU-6M

>  <ION MODE>  (5757) 
P

>  <INCHIKEY>  (5757) 
CFVWNXQPGQOHRJ-UHFFFAOYSA-N

>  <FORMULA>  (5757) 
C7H12O2

>  <EXACT MASS>  (5757) 
128.083729624

>  <MW>  (5757) 
128

>  <ID>  (5757) 
JP002538

>  <CONTRIBUTOR>  (5757) 
University of Tokyo Team, {Faculty of Engineering, University of Tokyo

>  <COMMENT>  (5757) 
SMILES=C=CC(=O)OCC(C)C
InChI=InChI=1S/C7H12O2/c1-4-7(8)9-5-6(2)3/h4,6H,1,5H2,2-3H3
computed SMILES=O=C(OCC(C)C)C=C
accession=JP002538
date=2016.01.19 (Created 2008.10.21, modified 2011.05.06)
author=YAMAMOTO M, DEP. CHEMISTRY, FAC. SCIENCE, NARA WOMEN'S UNIV.
license=CC BY-NC-SA
exact mass=128.08373
ionization energy=70 eV
ion type=[M]+*
computed spectral entropy=1.9964638946507924
computed normalized entropy=0.6907291040319231
SPLASH=splash10-0a4i-9000000000-5263f0854392861d6801
submitter=submitter = University of Tokyo Team (Faculty of Engineering, University of Tokyo)
MoNA Rating=3.75

>  <NUM PEAKS>  (5757) 
18

>  <MASS SPECTRAL PEAKS>  (5757) 
15 1.03
26 2.95
27 24.63
28 2.95
29 7.41
31 1.77
39 5.23
40 1.09
41 13.82
42 2.15
43 5.22
55 99.99
56 55.02
57 5.67
69 1.97
70 2.45
73 11.13
85 9.3

$$$$

     RDKit          2D

  9  8  0  0  0  0  0  0  0  0999 V2000
   -6.4952    4.5000    0.0000 C   0  0  0  0  0  0  0  0  0  0  0  0
    2.5981    3.7500    0.0000 C   0  0  0  0  0  0  0  0  0  0  0  0
   -5.1962    3.7500    0.0000 C   0  0  0  0  0  0  0  0  0  0  0  0
    1.2990    4.5000    0.0000 C   0  0  0  0  0  0  0  0  0  0  0  0
   -3.8971    4.5000    0.0000 C   0  0  0  0  0  0  0  0  0  0  0  0
   -2.5981    3.7500    0.0000 C   0  0  0  0  0  0  0  0  0  0  0  0
    0.0000    3.7500    0.0000 C   0  0  0  0  0  0  0  0  0  0  0  0
   -0.0000    2.2500    0.0000 O   0  0  0  0  0  0  0  0  0  0  0  0
   -1.2990    4.5000    0.0000 O   0  0  0  0  0  0  0  0  0  0  0  0
  3  1  1  0
  4  2  2  0
  5  3  1  0
  6  5  1  0
  7  4  1  0
  8  7  2  0
  9  6  1  0
  9  7  1  0
M  END
>  <NAME>  (5758) 
N-BUTYL ACRYLATE

>  <SYNONYMS>  (5758) 


>  <SPECTRUM TYPE>  (5758) 
MS1

>  <INSTRUMENT TYPE>  (5758) 
EI-B

>  <INSTRUMENT>  (5758) 
HITACHI RMU-6M

>  <ION MODE>  (5758) 
P

>  <INCHIKEY>  (5758) 
CQEYYJKEWSMYFG-UHFFFAOYSA-N

>  <FORMULA>  (5758) 
C7H12O2

>  <EXACT MASS>  (5758) 
128.083729624

>  <MW>  (5758) 
128

>  <ID>  (5758) 
JP002537

>  <CONTRIBUTOR>  (5758) 
University of Tokyo Team, {Faculty of Engineering, University of Tokyo

>  <COMMENT>  (5758) 
SMILES=CCCCOC(=O)C=C
InChI=InChI=1S/C7H12O2/c1-3-5-6-9-7(8)4-2/h4H,2-3,5-6H2,1H3
computed SMILES=O=C(OCCCC)C=C
accession=JP002537
date=2016.01.19 (Created 2008.10.21, modified 2011.05.06)
author=YAMAMOTO M, DEP. CHEMISTRY, FAC. SCIENCE, NARA WOMEN'S UNIV.
license=CC BY-NC-SA
exact mass=128.08373
ionization energy=70 eV
ion type=[M]+*
computed spectral entropy=2.106781320337562
computed normalized entropy=0.7155119651805397
SPLASH=splash10-0a4i-9000000000-76e54864f697f542cb82
submitter=submitter = University of Tokyo Team (Faculty of Engineering, University of Tokyo)
MoNA Rating=3.75

>  <NUM PEAKS>  (5758) 
19

>  <MASS SPECTRAL PEAKS>  (5758) 
26 3.94
27 32.81
28 5.97
29 13.57
31 2.91
39 4.96
41 19.26
42 1.6
43 3.48
55 99.99
56 58.93
57 5.69
68 1.63
69 1.33
70 1.4
73 41.08
74 1.55
85 6.97
99 1.55

$$$$

     RDKit          2D

  7  6  0  0  0  0  0  0  0  0999 V2000
    1.9486    2.6250    0.0000 C   0  0  0  0  0  0  0  0  0  0  0  0
   -4.5466    3.3750    0.0000 C   0  0  0  0  0  0  0  0  0  0  0  0
    0.6495    3.3750    0.0000 C   0  0  0  0  0  0  0  0  0  0  0  0
   -3.2476    2.6250    0.0000 C   0  0  0  0  0  0  0  0  0  0  0  0
   -0.6495    2.6250    0.0000 C   0  0  0  0  0  0  0  0  0  0  0  0
   -0.6495    1.1250    0.0000 O   0  0  0  0  0  0  0  0  0  0  0  0
   -1.9486    3.3750    0.0000 O   0  0  0  0  0  0  0  0  0  0  0  0
  3  1  2  0
  4  2  1  0
  5  3  1  0
  6  5  2  0
  7  4  1  0
  7  5  1  0
M  END
>  <NAME>  (5759) 
ETHYL ACRYLATE

>  <SYNONYMS>  (5759) 


>  <SPECTRUM TYPE>  (5759) 
MS1

>  <INSTRUMENT TYPE>  (5759) 
EI-B

>  <INSTRUMENT>  (5759) 
HITACHI RMU-6M

>  <ION MODE>  (5759) 
P

>  <INCHIKEY>  (5759) 
JIGUQPWFLRLWPJ-UHFFFAOYSA-N

>  <FORMULA>  (5759) 
C5H8O2

>  <EXACT MASS>  (5759) 
100.052429496

>  <MW>  (5759) 
100

>  <ID>  (5759) 
JP002536

>  <CONTRIBUTOR>  (5759) 
University of Tokyo Team, {Faculty of Engineering, University of Tokyo

>  <COMMENT>  (5759) 
SMILES=CCOC(=O)C=C
InChI=InChI=1S/C5H8O2/c1-3-5(6)7-4-2/h3H,1,4H2,2H3
computed SMILES=O=C(OCC)C=C
accession=JP002536
date=2016.01.19 (Created 2008.10.21, modified 2011.05.06)
author=YAMAMOTO M, DEP. CHEMISTRY, FAC. SCIENCE, NARA WOMEN'S UNIV.
license=CC BY-NC-SA
exact mass=100.05243
ionization energy=70 eV
ion type=[M]+*
computed spectral entropy=2.16892019944434
computed normalized entropy=0.7016792011665448
SPLASH=splash10-0a6r-9000000000-25b2b71f04040f0959dd
submitter=submitter = University of Tokyo Team (Faculty of Engineering, University of Tokyo)
MoNA Rating=3.75

>  <NUM PEAKS>  (5759) 
22

>  <MASS SPECTRAL PEAKS>  (5759) 
15 2.35
26 7.47
27 38.1
28 5.64
29 19.23
31 2.1
41 1.6
43 5.31
44 1.58
45 11.2
53 1.23
54 3.68
55 99.99
56 8.87
57 1.3
58 4.36
72 1.08
73 7.14
82 3.38
84 3.73
99 5.64
100 4.51

$$$$

     RDKit          2D

  6  5  0  0  0  0  0  0  0  0999 V2000
    1.2990    2.2500    0.0000 C   0  0  0  0  0  0  0  0  0  0  0  0
   -3.8971    2.2500    0.0000 C   0  0  0  0  0  0  0  0  0  0  0  0
    0.0000    3.0000    0.0000 C   0  0  0  0  0  0  0  0  0  0  0  0
   -1.2990    2.2500    0.0000 C   0  0  0  0  0  0  0  0  0  0  0  0
   -1.2990    0.7500    0.0000 O   0  0  0  0  0  0  0  0  0  0  0  0
   -2.5981    3.0000    0.0000 O   0  0  0  0  0  0  0  0  0  0  0  0
  3  1  2  0
  4  3  1  0
  5  4  2  0
  6  2  1  0
  6  4  1  0
M  END
>  <NAME>  (5760) 
METHYL ACRYLATE

>  <SYNONYMS>  (5760) 


>  <SPECTRUM TYPE>  (5760) 
MS1

>  <INSTRUMENT TYPE>  (5760) 
EI-B

>  <INSTRUMENT>  (5760) 
HITACHI RMU-6M

>  <ION MODE>  (5760) 
P

>  <INCHIKEY>  (5760) 
BAPJBEWLBFYGME-UHFFFAOYSA-N

>  <FORMULA>  (5760) 
C4H6O2

>  <EXACT MASS>  (5760) 
86.036779432

>  <MW>  (5760) 
86

>  <ID>  (5760) 
JP002535

>  <CONTRIBUTOR>  (5760) 
University of Tokyo Team, {Faculty of Engineering, University of Tokyo

>  <COMMENT>  (5760) 
SMILES=C=CC(=O)OC
InChI=InChI=1S/C4H6O2/c1-3-4(5)6-2/h3H,1H2,2H3
computed SMILES=O=C(OC)C=C
accession=JP002535
date=2016.01.19 (Created 2008.10.21, modified 2011.05.06)
author=YAMAMOTO M, DEP. CHEMISTRY, FAC. SCIENCE, NARA WOMEN'S UNIV.
license=CC BY-NC-SA
exact mass=86.03678
ionization energy=70 eV
ion type=[M]+*
computed spectral entropy=2.1493906987676588
computed normalized entropy=0.6855030023172037
SPLASH=splash10-0a6r-9000000000-9c4b84fc68b2e0bb2cf1
submitter=submitter = University of Tokyo Team (Faculty of Engineering, University of Tokyo)
MoNA Rating=3.75

>  <NUM PEAKS>  (5760) 
23

>  <MASS SPECTRAL PEAKS>  (5760) 
14 1.15
15 14.75
25 1.99
26 11.03
27 46.39
28 2.07
29 4.56
30 5.16
39 1.15
42 9.96
43 3.77
44 1.41
45 1.2
53 2.15
54 1.26
55 99.99
56 4.11
57 1.1
58 10.66
59 4.84
68 1.99
85 14.44
86 3.41

$$$$

     RDKit          2D

 13 13  0  0  0  0  0  0  0  0999 V2000
   -6.8197    3.1321    0.0000 C   0  0  0  0  0  0  0  0  0  0  0  0
    3.5726    1.6321    0.0000 C   0  0  0  0  0  0  0  0  0  0  0  0
    3.5731    3.1329    0.0000 C   0  0  0  0  0  0  0  0  0  0  0  0
    2.2731    0.8813    0.0000 C   0  0  0  0  0  0  0  0  0  0  0  0
   -1.6236    3.1321    0.0000 C   0  0  0  0  0  0  0  0  0  0  0  0
    2.2740    3.8829    0.0000 C   0  0  0  0  0  0  0  0  0  0  0  0
    0.9740    1.6313    0.0000 C   0  0  0  0  0  0  0  0  0  0  0  0
   -0.3245    3.8821    0.0000 C   0  0  0  0  0  0  0  0  0  0  0  0
   -2.9226    3.8821    0.0000 C   0  0  0  0  0  0  0  0  0  0  0  0
   -5.5207    3.8821    0.0000 C   0  0  0  0  0  0  0  0  0  0  0  0
    0.9745    3.1321    0.0000 C   0  0  0  0  0  0  0  0  0  0  0  0
   -5.5207    5.3821    0.0000 O   0  0  0  0  0  0  0  0  0  0  0  0
   -4.2216    3.1321    0.0000 O   0  0  0  0  0  0  0  0  0  0  0  0
  3  2  2  0
  4  2  1  0
  6  3  1  0
  7  4  2  0
  5  8  2  0
  9  5  1  0
 10  1  1  0
 11  6  2  0
 11  7  1  0
 11  8  1  0
 12 10  2  0
 13  9  1  0
 13 10  1  0
M  END
>  <NAME>  (5761) 
CINNAMYL ACETATE

>  <SYNONYMS>  (5761) 
3-PHENYLALLYL ACETATE

>  <SPECTRUM TYPE>  (5761) 
MS1

>  <INSTRUMENT TYPE>  (5761) 
EI-B

>  <INSTRUMENT>  (5761) 
HITACHI RMU-6M

>  <ION MODE>  (5761) 
P

>  <INCHIKEY>  (5761) 
WJSDHUCWMSHDCR-VMPITWQZSA-N

>  <FORMULA>  (5761) 
C11H12O2

>  <EXACT MASS>  (5761) 
176.083729624

>  <MW>  (5761) 
176

>  <ID>  (5761) 
JP002534

>  <CONTRIBUTOR>  (5761) 
University of Tokyo Team, {Faculty of Engineering, University of Tokyo

>  <COMMENT>  (5761) 
SMILES=CC(=O)OCC=Cc(c1)cccc1
InChI=InChI=1S/C11H12O2/c1-10(12)13-9-5-8-11-6-3-2-4-7-11/h2-8H,9H2,1H3/b8-5+
computed SMILES=O=C(OCC=CC=1C=CC=CC1)C
accession=JP002534
date=2016.01.19 (Created 2008.10.21, modified 2011.05.06)
author=YAMAMOTO M, DEP. CHEMISTRY, FAC. SCIENCE, NARA WOMEN'S UNIV.
license=CC BY-NC-SA
exact mass=176.08373
ionization energy=70 eV
ion type=[M]+*
computed spectral entropy=3.010610110853471
computed normalized entropy=0.8054778560755137
SPLASH=splash10-00kf-9800000000-d9811f6026ea45b0908f
submitter=submitter = University of Tokyo Team (Faculty of Engineering, University of Tokyo)
MoNA Rating=3.75

>  <NUM PEAKS>  (5761) 
42

>  <MASS SPECTRAL PEAKS>  (5761) 
15 6.59
27 3.93
28 3.62
29 1.31
38 1.18
39 8.84
43 99.99
44 2.3
50 3.99
51 10.54
52 2.49
55 3.07
62 1.7
63 5.48
64 1.02
65 4.54
74 1.55
75 1.81
76 1.94
77 13.96
78 8.29
79 5.46
89 3.33
91 12.78
92 21.04
93 1.65
102 3.28
103 6.93
104 2.57
105 26.24
106 3.07
114 1.52
115 45.68
116 27.42
117 24.65
118 2.6
131 2.1
133 21.59
134 31.17
135 2.81
176 24.04
177 3.1

$$$$

     RDKit          2D

 12 12  0  0  0  0  0  0  0  0999 V2000
   -5.8454    3.6946    0.0000 C   0  0  0  0  0  0  0  0  0  0  0  0
    3.2478    1.4446    0.0000 C   0  0  0  0  0  0  0  0  0  0  0  0
    3.2483    2.9454    0.0000 C   0  0  0  0  0  0  0  0  0  0  0  0
    1.9483    0.6938    0.0000 C   0  0  0  0  0  0  0  0  0  0  0  0
    1.9493    3.6954    0.0000 C   0  0  0  0  0  0  0  0  0  0  0  0
    0.6493    1.4438    0.0000 C   0  0  0  0  0  0  0  0  0  0  0  0
   -0.6493    3.6946    0.0000 C   0  0  0  0  0  0  0  0  0  0  0  0
   -1.9483    2.9446    0.0000 C   0  0  0  0  0  0  0  0  0  0  0  0
   -4.5464    2.9446    0.0000 C   0  0  0  0  0  0  0  0  0  0  0  0
    0.6498    2.9446    0.0000 C   0  0  0  0  0  0  0  0  0  0  0  0
   -4.5464    1.4446    0.0000 O   0  0  0  0  0  0  0  0  0  0  0  0
   -3.2474    3.6946    0.0000 O   0  0  0  0  0  0  0  0  0  0  0  0
  3  2  2  0
  4  2  1  0
  5  3  1  0
  6  4  2  0
  8  7  1  0
  9  1  1  0
 10  5  2  0
 10  6  1  0
 10  7  1  0
 11  9  2  0
 12  8  1  0
 12  9  1  0
M  END
>  <NAME>  (5762) 
PHENETHYL ACETATE

>  <SYNONYMS>  (5762) 


>  <SPECTRUM TYPE>  (5762) 
MS1

>  <INSTRUMENT TYPE>  (5762) 
EI-B

>  <INSTRUMENT>  (5762) 
HITACHI RMU-6M

>  <ION MODE>  (5762) 
P

>  <INCHIKEY>  (5762) 
MDHYEMXUFSJLGV-UHFFFAOYSA-N

>  <FORMULA>  (5762) 
C10H12O2

>  <EXACT MASS>  (5762) 
164.083729624

>  <MW>  (5762) 
164

>  <ID>  (5762) 
JP002533

>  <CONTRIBUTOR>  (5762) 
University of Tokyo Team, {Faculty of Engineering, University of Tokyo

>  <COMMENT>  (5762) 
SMILES=CC(=O)OCCc(c1)cccc1
InChI=InChI=1S/C10H12O2/c1-9(11)12-8-7-10-5-3-2-4-6-10/h2-6H,7-8H2,1H3
computed SMILES=O=C(OCCC=1C=CC=CC1)C
accession=JP002533
date=2016.01.19 (Created 2008.10.21, modified 2011.05.06)
author=YAMAMOTO M, DEP. CHEMISTRY, FAC. SCIENCE, NARA WOMEN'S UNIV.
license=CC BY-NC-SA
exact mass=164.08373
ionization energy=70 eV
ion type=[M]+*
computed spectral entropy=1.9703640874743955
computed normalized entropy=0.6374432306271497
SPLASH=splash10-0udl-9700000000-b8614ae98ed2ee102473
submitter=submitter = University of Tokyo Team (Faculty of Engineering, University of Tokyo)
MoNA Rating=3.75

>  <NUM PEAKS>  (5762) 
22

>  <MASS SPECTRAL PEAKS>  (5762) 
15 3.69
27 1.94
28 2.9
39 4.69
41 1.24
43 71.07
44 1.68
50 1.66
51 5.11
52 1.44
63 2.3
65 6.57
73 1.14
77 5.01
78 4.35
79 2.02
89 1.2
91 17.04
92 3.39
103 4.61
104 99.99
105 11.87

$$$$

     RDKit          2D

 11 11  0  0  0  0  0  0  0  0999 V2000
   -4.5648    2.6125    0.0000 C   0  0  0  0  0  0  0  0  0  0  0  0
    1.9623   -2.6414    0.0000 C   0  0  0  0  0  0  0  0  0  0  0  0
   -1.9705    2.6061    0.0000 C   0  0  0  0  0  0  0  0  0  0  0  0
   -3.2840    0.3812    0.0000 C   0  0  0  0  0  0  0  0  0  0  0  0
   -0.6859    1.8812    0.0000 C   0  0  0  0  0  0  0  0  0  0  0  0
   -1.9595   -0.4129    0.0000 C   0  0  0  0  0  0  0  0  0  0  0  0
   -3.2695    1.8561    0.0000 C   0  0  0  0  0  0  0  0  0  0  0  0
    0.6571   -1.9021    0.0000 C   0  0  0  0  0  0  0  0  0  0  0  0
   -0.6605    0.3371    0.0000 C   0  0  0  0  0  0  0  0  0  0  0  0
   -0.6357   -2.6628    0.0000 O   0  0  0  0  0  0  0  0  0  0  0  0
    0.6447   -0.4022    0.0000 O   0  0  0  0  0  0  0  0  0  0  0  0
  5  3  2  0
  6  4  1  0
  7  1  1  0
  7  3  1  0
  7  4  2  0
  8  2  1  0
  9  5  1  0
  9  6  2  0
 10  8  2  0
 11  8  1  0
 11  9  1  0
M  END
>  <NAME>  (5763) 
PARA-CRESOL ACETATE

>  <SYNONYMS>  (5763) 
PARA-TOLYL ACETATE

>  <SPECTRUM TYPE>  (5763) 
MS1

>  <INSTRUMENT TYPE>  (5763) 
EI-B

>  <INSTRUMENT>  (5763) 
HITACHI RMU-6M

>  <ION MODE>  (5763) 
P

>  <INCHIKEY>  (5763) 
CDJJKTLOZJAGIZ-UHFFFAOYSA-N

>  <FORMULA>  (5763) 
C9H10O2

>  <EXACT MASS>  (5763) 
150.06807956

>  <MW>  (5763) 
150

>  <ID>  (5763) 
JP002532

>  <CONTRIBUTOR>  (5763) 
University of Tokyo Team, {Faculty of Engineering, University of Tokyo

>  <COMMENT>  (5763) 
SMILES=CC(=O)Oc(c1)ccc(C)c1
InChI=InChI=1S/C9H10O2/c1-7-3-5-9(6-4-7)11-8(2)10/h3-6H,1-2H3
computed SMILES=O=C(OC1=CC=C(C=C1)C)C
accession=JP002532
date=2016.01.19 (Created 2008.10.21, modified 2011.05.06)
author=YAMAMOTO M, DEP. CHEMISTRY, FAC. SCIENCE, NARA WOMEN'S UNIV.
license=CC BY-NC-SA
exact mass=150.06808
ionization energy=70 eV
ion type=[M]+*
computed spectral entropy=2.2514265362524974
computed normalized entropy=0.7084293270155221
SPLASH=splash10-0a4i-4900000000-84f9b68467e23b1b2be6
submitter=submitter = University of Tokyo Team (Faculty of Engineering, University of Tokyo)
MoNA Rating=3.75

>  <NUM PEAKS>  (5763) 
24

>  <MASS SPECTRAL PEAKS>  (5763) 
15 4.49
27 4.43
28 2.6
38 1.07
39 4.66
43 19.25
50 2.72
51 5.49
52 3.62
53 3.3
63 2.11
65 1.83
77 9.77
78 3.32
79 6.27
80 3.86
90 4.46
91 2.64
106 1.13
107 38.37
108 99.99
109 8.1
150 11.39
151 1.27

$$$$

     RDKit          2D

 11 11  0  0  0  0  0  0  0  0999 V2000
    3.8910    2.2482    0.0000 C   0  0  0  0  0  0  0  0  0  0  0  0
   -3.9051    2.2411    0.0000 C   0  0  0  0  0  0  0  0  0  0  0  0
    1.2969   -0.7445    0.0000 C   0  0  0  0  0  0  0  0  0  0  0  0
    2.5914   -0.0024    0.0000 C   0  0  0  0  0  0  0  0  0  0  0  0
   -0.0022    0.0055    0.0000 C   0  0  0  0  0  0  0  0  0  0  0  0
    1.2928    2.2485    0.0000 C   0  0  0  0  0  0  0  0  0  0  0  0
    2.5919    1.4985    0.0000 C   0  0  0  0  0  0  0  0  0  0  0  0
   -2.6048    1.4933    0.0000 C   0  0  0  0  0  0  0  0  0  0  0  0
   -0.0067    1.4976    0.0000 C   0  0  0  0  0  0  0  0  0  0  0  0
   -2.6023   -0.0067    0.0000 O   0  0  0  0  0  0  0  0  0  0  0  0
   -1.3070    2.2454    0.0000 O   0  0  0  0  0  0  0  0  0  0  0  0
  4  3  2  0
  5  3  1  0
  7  1  1  0
  7  4  1  0
  7  6  2  0
  8  2  1  0
  9  5  2  0
  9  6  1  0
 10  8  2  0
 11  8  1  0
 11  9  1  0
M  END
>  <NAME>  (5764) 
META-CRESOL ACETATE

>  <SYNONYMS>  (5764) 
META-TOLYL ACETATE

>  <SPECTRUM TYPE>  (5764) 
MS1

>  <INSTRUMENT TYPE>  (5764) 
EI-B

>  <INSTRUMENT>  (5764) 
HITACHI RMU-6M

>  <ION MODE>  (5764) 
P

>  <INCHIKEY>  (5764) 
OTGAHJPFNKQGAE-UHFFFAOYSA-N

>  <FORMULA>  (5764) 
C9H10O2

>  <EXACT MASS>  (5764) 
150.06807956

>  <MW>  (5764) 
150

>  <ID>  (5764) 
JP002531

>  <CONTRIBUTOR>  (5764) 
University of Tokyo Team, {Faculty of Engineering, University of Tokyo

>  <COMMENT>  (5764) 
SMILES=CC(=O)Oc(c1)cc(C)cc1
InChI=InChI=1S/C9H10O2/c1-7-4-3-5-9(6-7)11-8(2)10/h3-6H,1-2H3
computed SMILES=O=C(OC1=CC=CC(=C1)C)C
accession=JP002531
date=2016.01.19 (Created 2008.10.21, modified 2011.05.06)
author=YAMAMOTO M, DEP. CHEMISTRY, FAC. SCIENCE, NARA WOMEN'S UNIV.
license=CC BY-NC-SA
exact mass=150.06808
ionization energy=70 eV
ion type=[M]+*
computed spectral entropy=2.297676379553923
computed normalized entropy=0.7229822093046059
SPLASH=splash10-0a4i-5900000000-d82c9754fc9037b9fbd2
submitter=submitter = University of Tokyo Team (Faculty of Engineering, University of Tokyo)
MoNA Rating=3.75

>  <NUM PEAKS>  (5764) 
24

>  <MASS SPECTRAL PEAKS>  (5764) 
15 5.17
27 3.67
28 2.6
38 1.67
39 6.81
43 22.75
50 2.42
51 5.05
52 2.92
53 3.26
63 2.34
65 2.06
77 9.07
78 3.1
79 8.08
80 4.01
90 4.47
91 3.1
106 1.04
107 29.02
108 99.99
109 7.8
150 15.23
151 1.57

$$$$

     RDKit          2D

 11 11  0  0  0  0  0  0  0  0999 V2000
    1.9489    1.5002    0.0000 C   0  0  0  0  0  0  0  0  0  0  0  0
    3.2476   -3.7504    0.0000 C   0  0  0  0  0  0  0  0  0  0  0  0
   -1.9500    0.7500    0.0000 C   0  0  0  0  0  0  0  0  0  0  0  0
   -1.9500   -0.7500    0.0000 C   0  0  0  0  0  0  0  0  0  0  0  0
   -0.6500    1.5000    0.0000 C   0  0  0  0  0  0  0  0  0  0  0  0
   -0.6500   -1.5000    0.0000 C   0  0  0  0  0  0  0  0  0  0  0  0
    0.6500    0.7500    0.0000 C   0  0  0  0  0  0  0  0  0  0  0  0
    1.9487   -3.0002    0.0000 C   0  0  0  0  0  0  0  0  0  0  0  0
    0.6500   -0.7500    0.0000 C   0  0  0  0  0  0  0  0  0  0  0  0
    0.6495   -3.7500    0.0000 O   0  0  0  0  0  0  0  0  0  0  0  0
    1.9489   -1.5002    0.0000 O   0  0  0  0  0  0  0  0  0  0  0  0
  4  3  2  0
  5  3  1  0
  6  4  1  0
  7  1  1  0
  7  5  2  0
  8  2  1  0
  9  6  2  0
  9  7  1  0
 10  8  2  0
 11  8  1  0
 11  9  1  0
M  END
>  <NAME>  (5765) 
ORTHO-CRESOL ACETATE

>  <SYNONYMS>  (5765) 
ORTHO-TOLYL ACETATE

>  <SPECTRUM TYPE>  (5765) 
MS1

>  <INSTRUMENT TYPE>  (5765) 
EI-B

>  <INSTRUMENT>  (5765) 
HITACHI RMU-6M

>  <ION MODE>  (5765) 
P

>  <INCHIKEY>  (5765) 
AMZORBZSQRUXNC-UHFFFAOYSA-N

>  <FORMULA>  (5765) 
C9H10O2

>  <EXACT MASS>  (5765) 
150.06807956

>  <MW>  (5765) 
150

>  <ID>  (5765) 
JP002530

>  <CONTRIBUTOR>  (5765) 
University of Tokyo Team, {Faculty of Engineering, University of Tokyo

>  <COMMENT>  (5765) 
SMILES=CC(=O)Oc(c1)c(C)ccc1
InChI=InChI=1S/C9H10O2/c1-7-5-3-4-6-9(7)11-8(2)10/h3-6H,1-2H3
computed SMILES=O=C(OC=1C=CC=CC1C)C
accession=JP002530
date=2016.01.19 (Created 2008.10.21, modified 2011.05.06)
author=YAMAMOTO M, DEP. CHEMISTRY, FAC. SCIENCE, NARA WOMEN'S UNIV.
license=CC BY-NC-SA
exact mass=150.06808
ionization energy=70 eV
ion type=[M]+*
computed spectral entropy=2.3570063405637365
computed normalized entropy=0.7416508550157824
SPLASH=splash10-0a4i-6900000000-53c10d980e9c8b682bc0
submitter=submitter = University of Tokyo Team (Faculty of Engineering, University of Tokyo)
MoNA Rating=3.75

>  <NUM PEAKS>  (5765) 
24

>  <MASS SPECTRAL PEAKS>  (5765) 
15 5.03
27 4.18
28 2.92
38 1.16
39 6.35
43 27.81
50 2.67
51 6.08
52 3.88
53 3.08
63 2.08
65 1.82
77 11.07
78 4.02
79 7.88
80 5.09
89 1.62
90 8.71
91 3.52
107 27.63
108 99.99
109 7.81
150 14.62
151 1.6

$$$$

     RDKit          2D

 10 10  0  0  0  0  0  0  0  0999 V2000
   -1.6300    1.2517    0.0000 C   0  0  0  0  0  0  0  0  0  0  0  0
    5.4215    1.5862    0.0000 C   0  0  0  0  0  0  0  0  0  0  0  0
    3.9215    1.5862    0.0000 C   0  0  0  0  0  0  0  0  0  0  0  0
    5.8815    0.1662    0.0000 C   0  0  0  0  0  0  0  0  0  0  0  0
    2.0244   -0.2959    0.0000 C   0  0  0  0  0  0  0  0  0  0  0  0
   -0.5163    0.2469    0.0000 C   0  0  0  0  0  0  0  0  0  0  0  0
    3.4515    0.1662    0.0000 C   0  0  0  0  0  0  0  0  0  0  0  0
   -0.8297   -1.2200    0.0000 O   0  0  0  0  0  0  0  0  0  0  0  0
    4.6715   -0.7138    0.0000 O   0  0  0  0  0  0  0  0  0  0  0  0
    0.9107    0.7090    0.0000 O   0  0  0  0  0  0  0  0  0  0  0  0
  3  2  1  0
  4  2  2  0
  6  1  1  0
  7  3  2  0
  7  5  1  0
  8  6  2  0
  9  4  1  0
  9  7  1  0
 10  5  1  0
 10  6  1  0
M  END
>  <NAME>  (5766) 
FURFURYL ACETATE

>  <SYNONYMS>  (5766) 
2-FURYLMETHYL ACETATE

>  <SPECTRUM TYPE>  (5766) 
MS1

>  <INSTRUMENT TYPE>  (5766) 
EI-B

>  <INSTRUMENT>  (5766) 
HITACHI RMU-6M

>  <ION MODE>  (5766) 
P

>  <INCHIKEY>  (5766) 
CKOYRRWBOKMNRG-UHFFFAOYSA-N

>  <FORMULA>  (5766) 
C7H8O3

>  <EXACT MASS>  (5766) 
140.04734411599998

>  <MW>  (5766) 
140

>  <ID>  (5766) 
JP002529

>  <CONTRIBUTOR>  (5766) 
University of Tokyo Team, {Faculty of Engineering, University of Tokyo

>  <COMMENT>  (5766) 
SMILES=CC(=O)OCc(c1)occ1
InChI=InChI=1S/C7H8O3/c1-6(8)10-5-7-3-2-4-9-7/h2-4H,5H2,1H3
computed SMILES=O=C(OCC=1OC=CC1)C
accession=JP002529
date=2016.01.19 (Created 2008.10.21, modified 2011.05.06)
author=YAMAMOTO M, DEP. CHEMISTRY, FAC. SCIENCE, NARA WOMEN'S UNIV.
license=CC BY-NC-SA
exact mass=140.04734
ionization energy=70 eV
ion type=[M]+*
computed spectral entropy=2.7935410016932503
computed normalized entropy=0.7921881447437433
SPLASH=splash10-0f8d-9000000000-c56641f4bee3a25718dd
submitter=submitter = University of Tokyo Team (Faculty of Engineering, University of Tokyo)
MoNA Rating=3.75

>  <NUM PEAKS>  (5766) 
34

>  <MASS SPECTRAL PEAKS>  (5766) 
14 2.75
15 12.14
26 3.68
27 22.22
28 4.1
29 8.1
37 2.31
38 5.55
39 17.55
40 1.51
41 9.82
42 6.34
43 66.78
44 1.99
50 5.6
51 10.64
52 47.48
53 38.79
54 1.76
55 1.79
61 1.99
68 1.03
69 5.32
70 3.72
79 1.37
80 19.61
81 99.99
82 6.02
95 3.97
97 13.08
98 69.39
99 3.99
140 39
141 3.24

$$$$

     RDKit          2D

 22 21  0  0  0  0  0  0  0  0999 V2000
  -10.3923    4.5000    0.0000 C   0  0  0  0  0  0  0  0  0  0  0  0
   10.3923   13.5000    0.0000 C   0  0  0  0  0  0  0  0  0  0  0  0
   -9.0933    5.2500    0.0000 C   0  0  0  0  0  0  0  0  0  0  0  0
    9.0933   14.2500    0.0000 C   0  0  0  0  0  0  0  0  0  0  0  0
   -9.0933    6.7500    0.0000 C   0  0  0  0  0  0  0  0  0  0  0  0
   -7.7942    7.5000    0.0000 C   0  0  0  0  0  0  0  0  0  0  0  0
   -7.7942    9.0000    0.0000 C   0  0  0  0  0  0  0  0  0  0  0  0
   -6.4952    9.7500    0.0000 C   0  0  0  0  0  0  0  0  0  0  0  0
   -6.4952   11.2500    0.0000 C   0  0  0  0  0  0  0  0  0  0  0  0
   -5.1962   12.0000    0.0000 C   0  0  0  0  0  0  0  0  0  0  0  0
   -5.1962   13.5000    0.0000 C   0  0  0  0  0  0  0  0  0  0  0  0
   -3.8971   14.2500    0.0000 C   0  0  0  0  0  0  0  0  0  0  0  0
   -2.5981   13.5000    0.0000 C   0  0  0  0  0  0  0  0  0  0  0  0
   -1.2990   14.2500    0.0000 C   0  0  0  0  0  0  0  0  0  0  0  0
    0.0000   13.5000    0.0000 C   0  0  0  0  0  0  0  0  0  0  0  0
    1.2990   14.2500    0.0000 C   0  0  0  0  0  0  0  0  0  0  0  0
    2.5981   13.5000    0.0000 C   0  0  0  0  0  0  0  0  0  0  0  0
    3.8971   14.2500    0.0000 C   0  0  0  0  0  0  0  0  0  0  0  0
    5.1962   13.5000    0.0000 C   0  0  0  0  0  0  0  0  0  0  0  0
    6.4952   14.2500    0.0000 C   0  0  0  0  0  0  0  0  0  0  0  0
    6.4952   15.7500    0.0000 O   0  0  0  0  0  0  0  0  0  0  0  0
    7.7942   13.5000    0.0000 O   0  0  0  0  0  0  0  0  0  0  0  0
  3  1  1  0
  4  2  1  0
  5  3  1  0
  6  5  1  0
  7  6  1  0
  8  7  1  0
  9  8  1  0
 10  9  1  0
 11 10  1  0
 11 12  2  0
 13 12  1  0
 14 13  1  0
 15 14  1  0
 16 15  1  0
 17 16  1  0
 18 17  1  0
 19 18  1  0
 20 19  1  0
 21 20  2  0
 22  4  1  0
 22 20  1  0
M  END
>  <NAME>  (5767) 
OLEYL ACETATE

>  <SYNONYMS>  (5767) 
CIS-9-OCTADECENYL ACETATE

>  <SPECTRUM TYPE>  (5767) 
MS1

>  <INSTRUMENT TYPE>  (5767) 
EI-B

>  <INSTRUMENT>  (5767) 
HITACHI RMU-6M

>  <ION MODE>  (5767) 
P

>  <INCHIKEY>  (5767) 
LVGKNOAMLMIIKO-QXMHVHEDSA-N

>  <FORMULA>  (5767) 
C20H38O2

>  <EXACT MASS>  (5767) 
310.287180456

>  <MW>  (5767) 
310

>  <ID>  (5767) 
JP002528

>  <CONTRIBUTOR>  (5767) 
University of Tokyo Team, {Faculty of Engineering, University of Tokyo

>  <COMMENT>  (5767) 
SMILES=CCCCCCCCC=CCCCCCCCC(=O)OCC
InChI=InChI=1S/C20H38O2/c1-3-5-6-7-8-9-10-11-12-13-14-15-16-17-18-19-20(21)22-4-2/h11-12H,3-10,13-19H2,1-2H3/b12-11-
computed SMILES=O=C(OCC)CCCCCCCC=CCCCCCCCC
accession=JP002528
date=2016.01.19 (Created 2008.10.21, modified 2011.05.06)
author=YAMAMOTO M, DEP. CHEMISTRY, FAC. SCIENCE, NARA WOMEN'S UNIV.
license=CC BY-NC-SA
exact mass=310.28718
ionization energy=70 eV
ion type=[M]+*
computed spectral entropy=3.6026485115682605
computed normalized entropy=0.819817998744555
SPLASH=splash10-05o4-9100000000-a451572fc0202f2eb2cd
submitter=submitter = University of Tokyo Team (Faculty of Engineering, University of Tokyo)
MoNA Rating=3.75

>  <NUM PEAKS>  (5767) 
81

>  <MASS SPECTRAL PEAKS>  (5767) 
15 3.83
27 11.18
28 2.78
29 29
31 1.34
39 8.96
40 2.19
41 74.93
42 14.29
43 92.8
44 2.98
53 7.29
54 45.15
55 99.99
56 25.41
57 34.69
58 1.57
61 21.17
65 1.67
66 6.4
67 64.93
68 47.22
69 62.18
70 17.19
71 11.62
73 2.96
77 2.02
79 7.23
80 7.14
81 57.54
82 91.28
83 50.56
84 10.52
85 5.54
91 1.96
93 2.75
94 3.64
95 47.23
96 71.72
97 32.48
98 6.12
99 1.35
105 1.07
107 1.21
108 2
109 30.4
110 33.04
111 13.39
112 3.44
116 1.02
121 1.27
122 1.63
123 15.29
124 20.18
125 6.25
126 2.42
137 9.15
138 12.14
139 2.87
140 1.73
151 3.9
152 6.5
153 1.67
154 1.19
165 2.25
166 4.39
167 1.5
168 1.52
179 1.6
180 2.83
193 1.59
194 3.1
196 1.54
208 1.86
222 5.75
223 1.19
224 2.21
236 1.34
250 19.07
251 4.02
310 0.5

$$$$

     RDKit          2D

 16 15  0  0  0  0  0  0  0  0999 V2000
    4.5466    7.8750    0.0000 C   0  0  0  0  0  0  0  0  0  0  0  0
  -13.6399    7.8750    0.0000 C   0  0  0  0  0  0  0  0  0  0  0  0
    3.2476    8.6250    0.0000 C   0  0  0  0  0  0  0  0  0  0  0  0
    1.9486    7.8750    0.0000 C   0  0  0  0  0  0  0  0  0  0  0  0
    0.6495    8.6250    0.0000 C   0  0  0  0  0  0  0  0  0  0  0  0
   -0.6495    7.8750    0.0000 C   0  0  0  0  0  0  0  0  0  0  0  0
   -1.9486    8.6250    0.0000 C   0  0  0  0  0  0  0  0  0  0  0  0
   -3.2476    7.8750    0.0000 C   0  0  0  0  0  0  0  0  0  0  0  0
   -4.5466    8.6250    0.0000 C   0  0  0  0  0  0  0  0  0  0  0  0
   -5.8457    7.8750    0.0000 C   0  0  0  0  0  0  0  0  0  0  0  0
   -7.1447    8.6250    0.0000 C   0  0  0  0  0  0  0  0  0  0  0  0
   -8.4437    7.8750    0.0000 C   0  0  0  0  0  0  0  0  0  0  0  0
   -9.7428    8.6250    0.0000 C   0  0  0  0  0  0  0  0  0  0  0  0
  -12.3409    8.6250    0.0000 C   0  0  0  0  0  0  0  0  0  0  0  0
  -12.3409   10.1250    0.0000 O   0  0  0  0  0  0  0  0  0  0  0  0
  -11.0418    7.8750    0.0000 O   0  0  0  0  0  0  0  0  0  0  0  0
  3  1  1  0
  4  3  1  0
  5  4  1  0
  6  5  1  0
  7  6  1  0
  8  7  1  0
  9  8  1  0
 10  9  1  0
 11 10  1  0
 12 11  1  0
 13 12  1  0
 14  2  1  0
 15 14  2  0
 16 13  1  0
 16 14  1  0
M  END
>  <NAME>  (5768) 
LAURYL ACETATE

>  <SYNONYMS>  (5768) 
DODECYL ACETATE

>  <SPECTRUM TYPE>  (5768) 
MS1

>  <INSTRUMENT TYPE>  (5768) 
EI-B

>  <INSTRUMENT>  (5768) 
HITACHI RMU-6M

>  <ION MODE>  (5768) 
P

>  <INCHIKEY>  (5768) 
VZWGRQBCURJOMT-UHFFFAOYSA-N

>  <FORMULA>  (5768) 
C14H28O2

>  <EXACT MASS>  (5768) 
228.208930136

>  <MW>  (5768) 
228

>  <ID>  (5768) 
JP002527

>  <CONTRIBUTOR>  (5768) 
University of Tokyo Team, {Faculty of Engineering, University of Tokyo

>  <COMMENT>  (5768) 
SMILES=CCCCCCCCCCCCOC(C)=O
InChI=InChI=1S/C14H28O2/c1-3-4-5-6-7-8-9-10-11-12-13-16-14(2)15/h3-13H2,1-2H3
computed SMILES=O=C(OCCCCCCCCCCCC)C
accession=JP002527
date=2016.01.19 (Created 2008.10.21, modified 2011.05.06)
author=YAMAMOTO M, DEP. CHEMISTRY, FAC. SCIENCE, NARA WOMEN'S UNIV.
license=CC BY-NC-SA
exact mass=228.20893
ionization energy=70 eV
ion type=[M]+*
computed spectral entropy=3.2909774499297266
computed normalized entropy=0.8456139281475579
SPLASH=splash10-052f-9000000000-04d139932be6849fab99
submitter=submitter = University of Tokyo Team (Faculty of Engineering, University of Tokyo)
MoNA Rating=3.75

>  <NUM PEAKS>  (5768) 
49

>  <MASS SPECTRAL PEAKS>  (5768) 
15 4.66
27 10.82
28 3.11
29 25.64
31 1.28
39 6.9
40 1.58
41 48.06
42 17.79
43 99.99
44 3.06
53 2.84
54 7.85
55 56.05
56 46.68
57 38.1
58 2.92
61 48.17
62 1.05
67 7.06
68 16.35
69 47.12
70 39.69
71 14.67
73 5.03
81 3.16
82 20.54
83 42.61
84 26.89
85 7.85
87 1.14
95 1.18
96 7.22
97 28.67
98 16.78
99 1.04
110 2.79
111 15.09
112 8.98
113 1.07
116 5.07
124 1.04
125 6.11
126 4.52
139 2.65
140 11.95
141 1.47
168 13.37
169 2.05

$$$$

     RDKit          2D

 11 10  0  0  0  0  0  0  0  0999 V2000
    2.9228    5.4375    0.0000 C   0  0  0  0  0  0  0  0  0  0  0  0
   -8.7685    6.1875    0.0000 C   0  0  0  0  0  0  0  0  0  0  0  0
    1.6238    6.1875    0.0000 C   0  0  0  0  0  0  0  0  0  0  0  0
    0.3248    5.4375    0.0000 C   0  0  0  0  0  0  0  0  0  0  0  0
   -0.9743    6.1875    0.0000 C   0  0  0  0  0  0  0  0  0  0  0  0
   -2.2733    5.4375    0.0000 C   0  0  0  0  0  0  0  0  0  0  0  0
   -3.5724    6.1875    0.0000 C   0  0  0  0  0  0  0  0  0  0  0  0
   -4.8714    5.4375    0.0000 C   0  0  0  0  0  0  0  0  0  0  0  0
   -7.4695    5.4375    0.0000 C   0  0  0  0  0  0  0  0  0  0  0  0
   -7.4695    3.9375    0.0000 O   0  0  0  0  0  0  0  0  0  0  0  0
   -6.1704    6.1875    0.0000 O   0  0  0  0  0  0  0  0  0  0  0  0
  3  1  1  0
  4  3  1  0
  5  4  1  0
  6  5  1  0
  7  6  1  0
  8  7  1  0
  9  2  1  0
 10  9  2  0
 11  8  1  0
 11  9  1  0
M  END
>  <NAME>  (5769) 
N-HEPTYL ACETATE

>  <SYNONYMS>  (5769) 


>  <SPECTRUM TYPE>  (5769) 
MS1

>  <INSTRUMENT TYPE>  (5769) 
EI-B

>  <INSTRUMENT>  (5769) 
HITACHI RMU-6M

>  <ION MODE>  (5769) 
P

>  <INCHIKEY>  (5769) 
ZCZSIDMEHXZRLG-UHFFFAOYSA-N

>  <FORMULA>  (5769) 
C9H18O2

>  <EXACT MASS>  (5769) 
158.130679816

>  <MW>  (5769) 
158

>  <ID>  (5769) 
JP002526

>  <CONTRIBUTOR>  (5769) 
University of Tokyo Team, {Faculty of Engineering, University of Tokyo

>  <COMMENT>  (5769) 
SMILES=CCCCCCCOC(C)=O
InChI=InChI=1S/C9H18O2/c1-3-4-5-6-7-8-11-9(2)10/h3-8H2,1-2H3
computed SMILES=O=C(OCCCCCCC)C
accession=JP002526
date=2016.01.19 (Created 2008.10.21, modified 2011.05.06)
author=YAMAMOTO M, DEP. CHEMISTRY, FAC. SCIENCE, NARA WOMEN'S UNIV.
license=CC BY-NC-SA
exact mass=158.13068
ionization energy=70 eV
ion type=[M]+*
computed spectral entropy=2.751309238452639
computed normalized entropy=0.8011996185830691
SPLASH=splash10-052f-9000000000-f1ad3b37065aca66bd65
submitter=submitter = University of Tokyo Team (Faculty of Engineering, University of Tokyo)
MoNA Rating=3.75

>  <NUM PEAKS>  (5769) 
31

>  <MASS SPECTRAL PEAKS>  (5769) 
15 6.33
27 10.8
28 3.07
29 14.26
31 1.38
39 6.71
40 1.42
41 26.42
42 19.11
43 99.99
44 3
53 1.5
54 3.69
55 31.27
56 50.05
57 15.33
58 3.57
61 29.72
67 1.23
68 6.27
69 23.33
70 44.06
71 2.94
73 7.94
83 4.51
87 1.46
97 2.27
98 22.56
99 1.9
101 1.5
116 2.11

$$$$

     RDKit          2D

  7  6  0  0  0  0  0  0  0  0999 V2000
    1.6238    3.1875    0.0000 C   0  0  0  0  0  0  0  0  0  0  0  0
   -4.8714    3.9375    0.0000 C   0  0  0  0  0  0  0  0  0  0  0  0
    0.3248    3.9375    0.0000 C   0  0  0  0  0  0  0  0  0  0  0  0
   -0.9743    3.1875    0.0000 C   0  0  0  0  0  0  0  0  0  0  0  0
   -3.5724    3.1875    0.0000 C   0  0  0  0  0  0  0  0  0  0  0  0
   -3.5724    1.6875    0.0000 O   0  0  0  0  0  0  0  0  0  0  0  0
   -2.2733    3.9375    0.0000 O   0  0  0  0  0  0  0  0  0  0  0  0
  3  1  2  0
  4  3  1  0
  5  2  1  0
  6  5  2  0
  7  4  1  0
  7  5  1  0
M  END
>  <NAME>  (5770) 
ALLYL ACETATE

>  <SYNONYMS>  (5770) 


>  <SPECTRUM TYPE>  (5770) 
MS1

>  <INSTRUMENT TYPE>  (5770) 
EI-B

>  <INSTRUMENT>  (5770) 
HITACHI RMU-6M

>  <ION MODE>  (5770) 
P

>  <INCHIKEY>  (5770) 
FWZUNOYOVVKUNF-UHFFFAOYSA-N

>  <FORMULA>  (5770) 
C5H8O2

>  <EXACT MASS>  (5770) 
100.052429496

>  <MW>  (5770) 
100

>  <ID>  (5770) 
JP002525

>  <CONTRIBUTOR>  (5770) 
University of Tokyo Team, {Faculty of Engineering, University of Tokyo

>  <COMMENT>  (5770) 
SMILES=C=CCOC(C)=O
InChI=InChI=1S/C5H8O2/c1-3-4-7-5(2)6/h3H,1,4H2,2H3
computed SMILES=O=C(OCC=C)C
accession=JP002525
date=2016.01.19 (Created 2008.10.21, modified 2011.05.06)
author=YAMAMOTO M, DEP. CHEMISTRY, FAC. SCIENCE, NARA WOMEN'S UNIV.
license=CC BY-NC-SA
exact mass=100.05243
ionization energy=70 eV
ion type=[M]+*
computed spectral entropy=1.7531400432197075
computed normalized entropy=0.5954071575686092
SPLASH=splash10-0006-9000000000-55298c78ada2161534b0
submitter=submitter = University of Tokyo Team (Faculty of Engineering, University of Tokyo)
MoNA Rating=3.75

>  <NUM PEAKS>  (5770) 
19

>  <MASS SPECTRAL PEAKS>  (5770) 
14 1.33
15 6.62
26 1.56
27 3.75
28 1.45
29 2.77
31 1.13
38 1.6
39 10.55
40 2.57
41 12.05
42 2.7
43 99.99
44 2.48
57 7.65
58 11.02
61 2.63
72 1.11
100 0.39

$$$$

     RDKit          2D

  7  6  0  0  0  0  0  0  0  0999 V2000
    1.6238    1.6875    0.0000 C   0  0  0  0  0  0  0  0  0  0  0  0
    0.3248    3.9375    0.0000 C   0  0  0  0  0  0  0  0  0  0  0  0
   -3.5724    1.6875    0.0000 C   0  0  0  0  0  0  0  0  0  0  0  0
    0.3248    2.4375    0.0000 C   0  0  0  0  0  0  0  0  0  0  0  0
   -2.2733    2.4375    0.0000 C   0  0  0  0  0  0  0  0  0  0  0  0
   -2.2733    3.9375    0.0000 O   0  0  0  0  0  0  0  0  0  0  0  0
   -0.9743    1.6875    0.0000 O   0  0  0  0  0  0  0  0  0  0  0  0
  4  1  2  0
  4  2  1  0
  5  3  1  0
  6  5  2  0
  7  4  1  0
  7  5  1  0
M  END
>  <NAME>  (5771) 
ISOPROPENYL ACETATE

>  <SYNONYMS>  (5771) 


>  <SPECTRUM TYPE>  (5771) 
MS1

>  <INSTRUMENT TYPE>  (5771) 
EI-B

>  <INSTRUMENT>  (5771) 
HITACHI RMU-6M

>  <ION MODE>  (5771) 
P

>  <INCHIKEY>  (5771) 
HETCEOQFVDFGSY-UHFFFAOYSA-N

>  <FORMULA>  (5771) 
C5H8O2

>  <EXACT MASS>  (5771) 
100.052429496

>  <MW>  (5771) 
100

>  <ID>  (5771) 
JP002524

>  <CONTRIBUTOR>  (5771) 
University of Tokyo Team, {Faculty of Engineering, University of Tokyo

>  <COMMENT>  (5771) 
SMILES=CC(=C)OC(C)=O
InChI=InChI=1S/C5H8O2/c1-4(2)7-5(3)6/h1H2,2-3H3
computed SMILES=O=C(OC(=C)C)C
accession=JP002524
date=2016.01.19 (Created 2008.10.21, modified 2011.05.06)
author=YAMAMOTO M, DEP. CHEMISTRY, FAC. SCIENCE, NARA WOMEN'S UNIV.
license=CC BY-NC-SA
exact mass=100.05243
ionization energy=70 eV
ion type=[M]+*
computed spectral entropy=1.6886834098903896
computed normalized entropy=0.6090637952700825
SPLASH=splash10-0006-9000000000-7f1e98b1755aee7accaa
submitter=submitter = University of Tokyo Team (Faculty of Engineering, University of Tokyo)
MoNA Rating=3.75

>  <NUM PEAKS>  (5771) 
16

>  <MASS SPECTRAL PEAKS>  (5771) 
14 1.99
15 8.29
26 1.36
27 3.2
29 1.68
38 1.4
39 6.67
40 1.3
41 8.01
42 4.5
43 99.99
44 2.1
57 2.42
58 16.82
72 6.84
100 5.36

$$$$

     RDKit          2D

 13 13  0  0  0  0  0  0  0  0999 V2000
   -3.9180    0.7457    0.0000 C   0  0  0  0  0  0  0  0  0  0  0  0
    6.4961    2.2415    0.0000 C   0  0  0  0  0  0  0  0  0  0  0  0
    1.2781    2.2201    0.0000 C   0  0  0  0  0  0  0  0  0  0  0  0
    2.5481   -0.0299    0.0000 C   0  0  0  0  0  0  0  0  0  0  0  0
    2.5481    2.9701    0.0000 C   0  0  0  0  0  0  0  0  0  0  0  0
    3.8981    0.7201    0.0000 C   0  0  0  0  0  0  0  0  0  0  0  0
   -0.0246   -0.0235    0.0000 C   0  0  0  0  0  0  0  0  0  0  0  0
   -2.6227   -0.0107    0.0000 C   0  0  0  0  0  0  0  0  0  0  0  0
    1.2781    0.7201    0.0000 C   0  0  0  0  0  0  0  0  0  0  0  0
    3.8981    2.2201    0.0000 C   0  0  0  0  0  0  0  0  0  0  0  0
   -2.6300   -1.5107    0.0000 O   0  0  0  0  0  0  0  0  0  0  0  0
    5.1909    2.9808    0.0000 O   0  0  0  0  0  0  0  0  0  0  0  0
   -1.3199    0.7329    0.0000 O   0  0  0  0  0  0  0  0  0  0  0  0
  5  3  2  0
  6  4  1  0
  8  1  1  0
  9  3  1  0
  9  4  2  0
  9  7  1  0
 10  5  1  0
 10  6  2  0
 11  8  2  0
 12  2  1  0
 12 10  1  0
 13  7  1  0
 13  8  1  0
M  END
>  <NAME>  (5772) 
PARA-METHOXYBENZYL ACETATE

>  <SYNONYMS>  (5772) 
ANISYL ACETATE

>  <SPECTRUM TYPE>  (5772) 
MS1

>  <INSTRUMENT TYPE>  (5772) 
EI-B

>  <INSTRUMENT>  (5772) 
HITACHI RMU-6M

>  <ION MODE>  (5772) 
P

>  <INCHIKEY>  (5772) 
HFNGYHHRRMSKEU-UHFFFAOYSA-N

>  <FORMULA>  (5772) 
C10H12O3

>  <EXACT MASS>  (5772) 
180.078644244

>  <MW>  (5772) 
180

>  <ID>  (5772) 
JP002523

>  <CONTRIBUTOR>  (5772) 
University of Tokyo Team, {Faculty of Engineering, University of Tokyo

>  <COMMENT>  (5772) 
SMILES=COc(c1)ccc(COC(C)=O)c1
InChI=InChI=1S/C10H12O3/c1-8(11)13-7-9-3-5-10(12-2)6-4-9/h3-6H,7H2,1-2H3
computed SMILES=O=C(OCC1=CC=C(OC)C=C1)C
accession=JP002523
date=2016.01.19 (Created 2008.10.21, modified 2011.05.06)
author=YAMAMOTO M, DEP. CHEMISTRY, FAC. SCIENCE, NARA WOMEN'S UNIV.
license=CC BY-NC-SA
exact mass=180.07864
ionization energy=70 eV
ion type=[M]+*
computed spectral entropy=2.979812757288303
computed normalized entropy=0.7874374821440746
SPLASH=splash10-00di-5900000000-085e2f064c20eae3deb2
submitter=submitter = University of Tokyo Team (Faculty of Engineering, University of Tokyo)
MoNA Rating=3.75

>  <NUM PEAKS>  (5772) 
44

>  <MASS SPECTRAL PEAKS>  (5772) 
14 1
15 6.45
27 1.55
28 1
29 1.24
38 1.74
39 6.54
40 1.19
41 1.93
43 25.96
50 3.8
51 8.95
52 5.16
53 1.55
55 1
62 1.21
63 4.92
64 3.7
65 4.51
66 2.39
76 1.41
77 18.71
78 12.11
79 2.27
89 5.82
90 6.61
91 16.93
92 5.78
94 3.8
105 5.63
106 2.65
107 3.44
109 8.19
119 3.65
120 42.12
121 99.99
122 9.46
135 3.58
136 1.05
137 6.97
138 18.52
139 1.74
180 43.13
181 4.94

$$$$

     RDKit          2D

 13 13  0  0  0  0  0  0  0  0999 V2000
    8.7242    0.5412    0.0000 C   0  0  0  0  0  0  0  0  0  0  0  0
   -1.6700   -0.9600    0.0000 C   0  0  0  0  0  0  0  0  0  0  0  0
   -1.6700    0.5400    0.0000 C   0  0  0  0  0  0  0  0  0  0  0  0
   -0.3700   -1.7100    0.0000 C   0  0  0  0  0  0  0  0  0  0  0  0
   -0.3700    1.2900    0.0000 C   0  0  0  0  0  0  0  0  0  0  0  0
    0.9300   -0.9600    0.0000 C   0  0  0  0  0  0  0  0  0  0  0  0
    4.8270    1.2906    0.0000 C   0  0  0  0  0  0  0  0  0  0  0  0
    3.5281    0.5404    0.0000 C   0  0  0  0  0  0  0  0  0  0  0  0
    7.4251    1.2910    0.0000 C   0  0  0  0  0  0  0  0  0  0  0  0
    0.9300    0.5400    0.0000 C   0  0  0  0  0  0  0  0  0  0  0  0
    7.4248    2.7910    0.0000 O   0  0  0  0  0  0  0  0  0  0  0  0
    6.1262    0.5408    0.0000 O   0  0  0  0  0  0  0  0  0  0  0  0
    2.2289    1.2902    0.0000 O   0  0  0  0  0  0  0  0  0  0  0  0
  3  2  2  0
  4  2  1  0
  5  3  1  0
  6  4  2  0
  8  7  1  0
  9  1  1  0
 10  5  2  0
 10  6  1  0
 11  9  2  0
 12  7  1  0
 12  9  1  0
 13  8  1  0
 13 10  1  0
M  END
>  <NAME>  (5773) 
BETA-PHENOXYETHYL ACETATE

>  <SYNONYMS>  (5773) 


>  <SPECTRUM TYPE>  (5773) 
MS1

>  <INSTRUMENT TYPE>  (5773) 
EI-B

>  <INSTRUMENT>  (5773) 
HITACHI RMU-6M

>  <ION MODE>  (5773) 
P

>  <INCHIKEY>  (5773) 
WHFKYDMBUMLWDA-UHFFFAOYSA-N

>  <FORMULA>  (5773) 
C10H12O3

>  <EXACT MASS>  (5773) 
180.078644244

>  <MW>  (5773) 
180

>  <ID>  (5773) 
JP002522

>  <CONTRIBUTOR>  (5773) 
University of Tokyo Team, {Faculty of Engineering, University of Tokyo

>  <COMMENT>  (5773) 
SMILES=CC(=O)OCCOc(c1)cccc1
InChI=InChI=1S/C10H12O3/c1-9(11)12-7-8-13-10-5-3-2-4-6-10/h2-6H,7-8H2,1H3
computed SMILES=O=C(OCCOC=1C=CC=CC1)C
accession=JP002522
date=2016.01.19 (Created 2008.10.21, modified 2011.05.06)
author=YAMAMOTO M, DEP. CHEMISTRY, FAC. SCIENCE, NARA WOMEN'S UNIV.
license=CC BY-NC-SA
exact mass=180.07864
ionization energy=70 eV
ion type=[M]+*
computed spectral entropy=2.0511699878286573
computed normalized entropy=0.6295608383274778
SPLASH=splash10-000f-9000000000-f91e9ecf92bdc4f2c505
submitter=submitter = University of Tokyo Team (Faculty of Engineering, University of Tokyo)
MoNA Rating=3.75

>  <NUM PEAKS>  (5773) 
26

>  <MASS SPECTRAL PEAKS>  (5773) 
15 4.93
27 1.98
38 1.52
39 7.2
40 1.05
42 1.59
43 91.44
44 2.2
45 1.43
50 2.17
51 7.93
63 1.8
65 5.8
66 2.11
77 16.77
78 1.65
79 1.99
87 99.99
88 4.37
91 2.34
94 17.57
95 1.63
107 3.23
120 2.36
121 1
180 5.03

$$$$

     RDKit          2D

 11 10  0  0  0  0  0  0  0  0999 V2000
    2.9228    3.1875    0.0000 C   0  0  0  0  0  0  0  0  0  0  0  0
   -2.6082    5.0866    0.0000 C   0  0  0  0  0  0  0  0  0  0  0  0
   -4.5365    5.0866    0.0000 C   0  0  0  0  0  0  0  0  0  0  0  0
   -6.1704    3.9375    0.0000 C   0  0  0  0  0  0  0  0  0  0  0  0
   -2.2733    3.1875    0.0000 C   0  0  0  0  0  0  0  0  0  0  0  0
   -0.9743    3.9375    0.0000 C   0  0  0  0  0  0  0  0  0  0  0  0
    1.6238    3.9375    0.0000 C   0  0  0  0  0  0  0  0  0  0  0  0
   -3.5724    3.9375    0.0000 C   0  0  0  0  0  0  0  0  0  0  0  0
    1.6238    5.4375    0.0000 O   0  0  0  0  0  0  0  0  0  0  0  0
   -4.8714    3.1875    0.0000 O   0  0  0  0  0  0  0  0  0  0  0  0
    0.3248    3.1875    0.0000 O   0  0  0  0  0  0  0  0  0  0  0  0
  6  5  1  0
  7  1  1  0
  8  2  1  0
  8  3  1  0
  8  5  1  0
  9  7  2  0
 10  4  1  0
 10  8  1  0
 11  6  1  0
 11  7  1  0
M  END
>  <NAME>  (5774) 
3-METHOXY-3-METHYLBUTYL ACETATE

>  <SYNONYMS>  (5774) 


>  <SPECTRUM TYPE>  (5774) 
MS1

>  <INSTRUMENT TYPE>  (5774) 
EI-B

>  <INSTRUMENT>  (5774) 
HITACHI RMU-6M

>  <ION MODE>  (5774) 
P

>  <INCHIKEY>  (5774) 
RYNQKSJRFHJZTK-UHFFFAOYSA-N

>  <FORMULA>  (5774) 
C8H16O3

>  <EXACT MASS>  (5774) 
160.10994437199997

>  <MW>  (5774) 
160

>  <ID>  (5774) 
JP002521

>  <CONTRIBUTOR>  (5774) 
University of Tokyo Team, {Faculty of Engineering, University of Tokyo

>  <COMMENT>  (5774) 
SMILES=COC(C)(C)CCOC(C)=O
InChI=InChI=1S/C8H16O3/c1-7(9)11-6-5-8(2,3)10-4/h5-6H2,1-4H3
computed SMILES=O=C(OCCC(OC)(C)C)C
accession=JP002521
date=2016.01.19 (Created 2008.10.21, modified 2011.05.06)
author=YAMAMOTO M, DEP. CHEMISTRY, FAC. SCIENCE, NARA WOMEN'S UNIV.
license=CC BY-NC-SA
exact mass=160.10994
ionization energy=70 eV
ion type=[M]+*
computed spectral entropy=2.0346322573861064
computed normalized entropy=0.6682927450873137
SPLASH=splash10-00di-9000000000-6ecf75e948e996d29c4b
submitter=submitter = University of Tokyo Team (Faculty of Engineering, University of Tokyo)
MoNA Rating=3.75

>  <NUM PEAKS>  (5774) 
21

>  <MASS SPECTRAL PEAKS>  (5774) 
15 4.48
27 3
28 3.44
31 1.01
39 2.89
41 10.34
42 2.54
43 30.76
45 3.13
53 1.31
55 7.76
56 1.67
68 1.9
69 15.1
70 2.07
71 1.29
72 1.1
73 99.99
74 4.37
85 29.3
86 2.37

$$$$

     RDKit          2D

 10  9  0  0  0  0  0  0  0  0999 V2000
   -3.5724    5.4375    0.0000 C   0  0  0  0  0  0  0  0  0  0  0  0
    2.9228    3.1875    0.0000 C   0  0  0  0  0  0  0  0  0  0  0  0
   -6.1704    3.9375    0.0000 C   0  0  0  0  0  0  0  0  0  0  0  0
   -2.2733    3.1875    0.0000 C   0  0  0  0  0  0  0  0  0  0  0  0
   -0.9743    3.9375    0.0000 C   0  0  0  0  0  0  0  0  0  0  0  0
   -3.5724    3.9375    0.0000 C   0  0  0  0  0  0  0  0  0  0  0  0
    1.6238    3.9375    0.0000 C   0  0  0  0  0  0  0  0  0  0  0  0
    1.6238    5.4375    0.0000 O   0  0  0  0  0  0  0  0  0  0  0  0
   -4.8714    3.1875    0.0000 O   0  0  0  0  0  0  0  0  0  0  0  0
    0.3248    3.1875    0.0000 O   0  0  0  0  0  0  0  0  0  0  0  0
  5  4  1  0
  6  1  1  0
  6  4  1  0
  7  2  1  0
  8  7  2  0
  9  3  1  0
  9  6  1  0
 10  5  1  0
 10  7  1  0
M  END
>  <NAME>  (5775) 
3-METHOXYBUTYL ACETATE

>  <SYNONYMS>  (5775) 


>  <SPECTRUM TYPE>  (5775) 
MS1

>  <INSTRUMENT TYPE>  (5775) 
EI-B

>  <INSTRUMENT>  (5775) 
HITACHI RMU-6M

>  <ION MODE>  (5775) 
P

>  <INCHIKEY>  (5775) 
QMYGFTJCQFEDST-UHFFFAOYSA-N

>  <FORMULA>  (5775) 
C7H14O3

>  <EXACT MASS>  (5775) 
146.094294308

>  <MW>  (5775) 
146

>  <ID>  (5775) 
JP002520

>  <CONTRIBUTOR>  (5775) 
University of Tokyo Team, {Faculty of Engineering, University of Tokyo

>  <COMMENT>  (5775) 
SMILES=COC(C)CCOC(C)=O
InChI=InChI=1S/C7H14O3/c1-6(9-3)4-5-10-7(2)8/h6H,4-5H2,1-3H3
computed SMILES=O=C(OCCC(OC)C)C
accession=JP002520
date=2016.01.19 (Created 2008.10.21, modified 2011.05.06)
author=YAMAMOTO M, DEP. CHEMISTRY, FAC. SCIENCE, NARA WOMEN'S UNIV.
license=CC BY-NC-SA
exact mass=146.09429
ionization energy=70 eV
ion type=[M]+*
computed spectral entropy=2.244118997997723
computed normalized entropy=0.6887822296881635
SPLASH=splash10-0a4i-9000000000-f94b0dff7d9a80e8c7de
submitter=submitter = University of Tokyo Team (Faculty of Engineering, University of Tokyo)
MoNA Rating=3.75

>  <NUM PEAKS>  (5775) 
26

>  <MASS SPECTRAL PEAKS>  (5775) 
15 7.2
27 3.81
28 2.13
29 7.72
31 7.48
33 1.5
39 2.47
41 6.82
42 2.15
43 41.33
44 1.24
45 2.94
55 8.7
56 3.1
57 1.14
58 3.59
59 99.99
60 3.39
61 2.27
71 22.33
72 2.5
73 1.2
85 2.09
86 9.76
87 1.27
116 1.15

$$$$

     RDKit          2D

 11 10  0  0  0  0  0  0  0  0999 V2000
    2.9228    5.4375    0.0000 C   0  0  0  0  0  0  0  0  0  0  0  0
   -8.7685    6.1875    0.0000 C   0  0  0  0  0  0  0  0  0  0  0  0
    1.6238    6.1875    0.0000 C   0  0  0  0  0  0  0  0  0  0  0  0
    0.3248    5.4375    0.0000 C   0  0  0  0  0  0  0  0  0  0  0  0
   -0.9743    6.1875    0.0000 C   0  0  0  0  0  0  0  0  0  0  0  0
   -3.5724    6.1875    0.0000 C   0  0  0  0  0  0  0  0  0  0  0  0
   -4.8714    5.4375    0.0000 C   0  0  0  0  0  0  0  0  0  0  0  0
   -7.4695    5.4375    0.0000 C   0  0  0  0  0  0  0  0  0  0  0  0
   -7.4695    3.9375    0.0000 O   0  0  0  0  0  0  0  0  0  0  0  0
   -2.2733    5.4375    0.0000 O   0  0  0  0  0  0  0  0  0  0  0  0
   -6.1704    6.1875    0.0000 O   0  0  0  0  0  0  0  0  0  0  0  0
  3  1  1  0
  4  3  1  0
  5  4  1  0
  7  6  1  0
  8  2  1  0
  9  8  2  0
 10  5  1  0
 10  6  1  0
 11  7  1  0
 11  8  1  0
M  END
>  <NAME>  (5776) 
2-BUTOXYETHYL ACETATE

>  <SYNONYMS>  (5776) 
N-BUTYLCELLOSOLVE ACETATE

>  <SPECTRUM TYPE>  (5776) 
MS1

>  <INSTRUMENT TYPE>  (5776) 
EI-B

>  <INSTRUMENT>  (5776) 
HITACHI RMU-6M

>  <ION MODE>  (5776) 
P

>  <INCHIKEY>  (5776) 
NQBXSWAWVZHKBZ-UHFFFAOYSA-N

>  <FORMULA>  (5776) 
C8H16O3

>  <EXACT MASS>  (5776) 
160.109944372

>  <MW>  (5776) 
160

>  <ID>  (5776) 
JP002519

>  <CONTRIBUTOR>  (5776) 
University of Tokyo Team, {Faculty of Engineering, University of Tokyo

>  <COMMENT>  (5776) 
SMILES=CCCCOCCOC(C)=O
InChI=InChI=1S/C8H16O3/c1-3-4-5-10-6-7-11-8(2)9/h3-7H2,1-2H3
computed SMILES=O=C(OCCOCCCC)C
accession=JP002519
date=2016.01.19 (Created 2008.10.21, modified 2011.05.06)
author=YAMAMOTO M, DEP. CHEMISTRY, FAC. SCIENCE, NARA WOMEN'S UNIV.
license=CC BY-NC-SA
exact mass=160.10994
ionization energy=70 eV
ion type=[M]+*
computed spectral entropy=2.5858949277359864
computed normalized entropy=0.7679440887575278
SPLASH=splash10-0a4l-9000000000-2f68f9dceebb9d52ca9d
submitter=submitter = University of Tokyo Team (Faculty of Engineering, University of Tokyo)
MoNA Rating=3.75

>  <NUM PEAKS>  (5776) 
29

>  <MASS SPECTRAL PEAKS>  (5776) 
15 8.44
26 1.21
27 10.31
28 5.68
29 27.97
31 3.25
39 4.47
41 28.44
42 2.78
43 98.39
44 12.71
45 10.56
55 4.83
56 50.89
57 99.99
58 4.55
61 7.01
70 1.79
71 2.48
72 2.2
73 2.59
74 6.87
75 1.1
85 16.71
86 1.24
87 31.03
88 11.28
100 10.48
117 1.1

$$$$

     RDKit          2D

  9  8  0  0  0  0  0  0  0  0999 V2000
   -7.4695    3.9375    0.0000 C   0  0  0  0  0  0  0  0  0  0  0  0
    1.6238    3.1875    0.0000 C   0  0  0  0  0  0  0  0  0  0  0  0
   -6.1704    3.1875    0.0000 C   0  0  0  0  0  0  0  0  0  0  0  0
   -3.5724    3.1875    0.0000 C   0  0  0  0  0  0  0  0  0  0  0  0
   -2.2733    3.9375    0.0000 C   0  0  0  0  0  0  0  0  0  0  0  0
    0.3248    3.9375    0.0000 C   0  0  0  0  0  0  0  0  0  0  0  0
    0.3248    5.4375    0.0000 O   0  0  0  0  0  0  0  0  0  0  0  0
   -4.8714    3.9375    0.0000 O   0  0  0  0  0  0  0  0  0  0  0  0
   -0.9743    3.1875    0.0000 O   0  0  0  0  0  0  0  0  0  0  0  0
  3  1  1  0
  5  4  1  0
  6  2  1  0
  7  6  2  0
  8  3  1  0
  8  4  1  0
  9  5  1  0
  9  6  1  0
M  END
>  <NAME>  (5777) 
2-ETHOXYETHYL ACETATE

>  <SYNONYMS>  (5777) 
CELLOSOLVE ACETATE

>  <SPECTRUM TYPE>  (5777) 
MS1

>  <INSTRUMENT TYPE>  (5777) 
EI-B

>  <INSTRUMENT>  (5777) 
HITACHI RMU-6M

>  <ION MODE>  (5777) 
P

>  <INCHIKEY>  (5777) 
SVONRAPFKPVNKG-UHFFFAOYSA-N

>  <FORMULA>  (5777) 
C6H12O3

>  <EXACT MASS>  (5777) 
132.078644244

>  <MW>  (5777) 
132

>  <ID>  (5777) 
JP002518

>  <CONTRIBUTOR>  (5777) 
University of Tokyo Team, {Faculty of Engineering, University of Tokyo

>  <COMMENT>  (5777) 
SMILES=CCOCCOC(C)=O
InChI=InChI=1S/C6H12O3/c1-3-8-4-5-9-6(2)7/h3-5H2,1-2H3
computed SMILES=O=C(OCCOCC)C
accession=JP002518
date=2016.01.19 (Created 2008.10.21, modified 2011.05.06)
author=YAMAMOTO M, DEP. CHEMISTRY, FAC. SCIENCE, NARA WOMEN'S UNIV.
license=CC BY-NC-SA
exact mass=132.07864
ionization energy=70 eV
ion type=[M]+*
computed spectral entropy=2.3397993049002315
computed normalized entropy=0.7462298265496472
SPLASH=splash10-0006-9000000000-d80310ca535b89afc9c5
submitter=submitter = University of Tokyo Team (Faculty of Engineering, University of Tokyo)
MoNA Rating=3.75

>  <NUM PEAKS>  (5777) 
23

>  <MASS SPECTRAL PEAKS>  (5777) 
14 1.33
15 10.1
26 1.4
27 8.54
28 3.68
29 16.21
31 45.95
41 2.39
42 3.17
43 99.99
44 22.21
45 10.27
58 2.53
59 43.25
60 1.45
61 3.43
70 1.08
72 34.3
73 3.92
74 1.98
87 7.3
88 6.74
89 1.4

$$$$

     RDKit          2D

  8  7  0  0  0  0  0  0  0  0999 V2000
    2.2733    2.8125    0.0000 C   0  0  0  0  0  0  0  0  0  0  0  0
   -5.5209    2.8125    0.0000 C   0  0  0  0  0  0  0  0  0  0  0  0
   -2.9228    2.8125    0.0000 C   0  0  0  0  0  0  0  0  0  0  0  0
   -1.6238    3.5625    0.0000 C   0  0  0  0  0  0  0  0  0  0  0  0
    0.9743    3.5625    0.0000 C   0  0  0  0  0  0  0  0  0  0  0  0
    0.9743    5.0625    0.0000 O   0  0  0  0  0  0  0  0  0  0  0  0
   -4.2219    3.5625    0.0000 O   0  0  0  0  0  0  0  0  0  0  0  0
   -0.3248    2.8125    0.0000 O   0  0  0  0  0  0  0  0  0  0  0  0
  4  3  1  0
  5  1  1  0
  6  5  2  0
  7  2  1  0
  7  3  1  0
  8  4  1  0
  8  5  1  0
M  END
>  <NAME>  (5778) 
METHYLCELLOSOLVE ACETATE

>  <SYNONYMS>  (5778) 
2-METHOXYETHYL ACETATE

>  <SPECTRUM TYPE>  (5778) 
MS1

>  <INSTRUMENT TYPE>  (5778) 
EI-B

>  <INSTRUMENT>  (5778) 
HITACHI RMU-6M

>  <ION MODE>  (5778) 
P

>  <INCHIKEY>  (5778) 
XLLIQLLCWZCATF-UHFFFAOYSA-N

>  <FORMULA>  (5778) 
C5H10O3

>  <EXACT MASS>  (5778) 
118.06299417999999

>  <MW>  (5778) 
118

>  <ID>  (5778) 
JP002517

>  <CONTRIBUTOR>  (5778) 
University of Tokyo Team, {Faculty of Engineering, University of Tokyo

>  <COMMENT>  (5778) 
SMILES=COCCOC(C)=O
InChI=InChI=1S/C5H10O3/c1-5(6)8-4-3-7-2/h3-4H2,1-2H3
computed SMILES=O=C(OCCOC)C
accession=JP002517
date=2016.01.19 (Created 2008.10.21, modified 2011.05.06)
author=YAMAMOTO M, DEP. CHEMISTRY, FAC. SCIENCE, NARA WOMEN'S UNIV.
license=CC BY-NC-SA
exact mass=118.06299
ionization energy=70 eV
ion type=[M]+*
computed spectral entropy=1.8173475767170577
computed normalized entropy=0.6554695841253185
SPLASH=splash10-052g-9000000000-1af4a8da957f1aa4846d
submitter=submitter = University of Tokyo Team (Faculty of Engineering, University of Tokyo)
MoNA Rating=3.75

>  <NUM PEAKS>  (5778) 
16

>  <MASS SPECTRAL PEAKS>  (5778) 
14 1.64
15 16.06
27 2.44
28 3.94
29 7.63
31 4.07
42 3.41
43 99.99
44 3.08
45 55.44
46 1.37
58 50.32
59 3.54
61 1.1
73 4.11
88 2.12

$$$$

     RDKit          2D

 24 25  0  0  0  0  0  0  0  0999 V2000
    2.5990   -3.7500    0.0000 C   0  0  0  0  0  0  0  0  0  0  0  0
    0.0010   -3.7500    0.0000 C   0  0  0  0  0  0  0  0  0  0  0  0
   -4.4483    0.5487    0.0000 C   0  0  0  0  0  0  0  0  0  0  0  0
   -6.4972   -0.0006    0.0000 C   0  0  0  0  0  0  0  0  0  0  0  0
   -5.9479   -2.0496    0.0000 C   0  0  0  0  0  0  0  0  0  0  0  0
    3.4810    0.9116    0.0000 C   0  0  0  0  0  0  0  0  0  0  0  0
    5.2185    2.1285    0.0000 C   0  0  0  0  0  0  0  0  0  0  0  0
    4.0016    3.8661    0.0000 C   0  0  0  0  0  0  0  0  0  0  0  0
   -2.6000    0.7500    0.0000 C   0  0  0  0  0  0  0  0  0  0  0  0
   -1.3000    1.5000    0.0000 C   0  0  0  0  0  0  0  0  0  0  0  0
    2.6000   -0.7500    0.0000 C   0  0  0  0  0  0  0  0  0  0  0  0
    2.6000    0.7500    0.0000 C   0  0  0  0  0  0  0  0  0  0  0  0
   -1.3000   -1.5000    0.0000 C   0  0  0  0  0  0  0  0  0  0  0  0
   -3.8989   -1.5002    0.0000 C   0  0  0  0  0  0  0  0  0  0  0  0
    2.2641    2.6492    0.0000 C   0  0  0  0  0  0  0  0  0  0  0  0
    1.3000   -3.0000    0.0000 C   0  0  0  0  0  0  0  0  0  0  0  0
   -2.6000   -0.7500    0.0000 C   0  0  0  0  0  0  0  0  0  0  0  0
    1.3000   -1.5000    0.0000 C   0  0  0  0  0  0  0  0  0  0  0  0
    0.0000   -0.7500    0.0000 C   0  0  0  0  0  0  0  0  0  0  0  0
    0.0000    0.7500    0.0000 C   0  0  0  0  0  0  0  0  0  0  0  0
    1.3000    1.5000    0.0000 C   0  0  0  0  0  0  0  0  0  0  0  0
    0.3359    2.6492    0.0000 O   0  0  0  0  0  0  0  0  0  0  0  0
   -5.1981   -0.7504    0.0000 Si  0  0  0  0  0  4  0  0  0  0  0  0
    3.7413    2.3889    0.0000 Si  0  0  0  0  0  4  0  0  0  0  0  0
 10  9  1  0
 12 11  1  0
 16  1  1  0
 16  2  1  0
 17  9  2  0
 17 13  1  0
 17 14  1  0
 18 11  1  0
 18 16  1  0
 19 13  1  0
 19 18  1  0
 20 10  1  0
 20 19  1  0
 21 12  1  0
 21 15  1  0
 21 20  1  0
 22 21  1  0
 23  3  1  0
 23  4  1  0
 23  5  1  0
 23 14  1  0
 24  6  1  0
 24  7  1  0
 24  8  1  0
 24 15  1  0
M  END
>  <NAME>  (5779) 
2,5-BIS(TRIMETHYLSILYLMETHYL)-5-HYDROXY-8-ISOPROPYL-1,4,4A,5,6,7,8,8A-OCTAHYDRONAPHTHALENE

>  <SYNONYMS>  (5779) 


>  <SPECTRUM TYPE>  (5779) 
MS1

>  <INSTRUMENT TYPE>  (5779) 
EI-B

>  <INSTRUMENT>  (5779) 
JEOL JMS-D-3000

>  <ION MODE>  (5779) 
P

>  <INCHIKEY>  (5779) 
QETFXHFDVNOOAZ-UHFFFAOYSA-N

>  <FORMULA>  (5779) 
C21H42OSi2

>  <EXACT MASS>  (5779) 
366.277419024

>  <MW>  (5779) 
366

>  <ID>  (5779) 
JP002516

>  <CONTRIBUTOR>  (5779) 
University of Tokyo Team, {Faculty of Engineering, University of Tokyo

>  <COMMENT>  (5779) 
SMILES=CC(C)C(C1)C(C2)C(CC=C(C[Si](C)(C)C)2)C(O)(C1)C[Si](C)(C)C
InChI=InChI=1S/C21H42OSi2/c1-16(2)18-11-12-21(22,15-24(6,7)8)20-10-9-17(13-19(18)20)14-23(3,4)5/h9,16,18-20,22H,10-15H2,1-8H3
computed SMILES=OC1(CCC(C(C)C)C2CC(=CCC21)C[Si](C)(C)C)C[Si](C)(C)C
accession=JP002516
date=2016.01.19 (Created 2008.10.21, modified 2011.05.06)
author=MASS SPECTROSCOPY SOC. OF JAPAN (MSSJ)
license=CC BY-NC-SA
exact mass=366.27742
ionization energy=70 eV
ion type=[M]+*
computed spectral entropy=2.2541002997569057
computed normalized entropy=0.669409643098082
SPLASH=splash10-00di-9121000000-7f41fc2d0ac8dfd702ce
submitter=submitter = University of Tokyo Team (Faculty of Engineering, University of Tokyo)
MoNA Rating=3.75

>  <NUM PEAKS>  (5779) 
29

>  <MASS SPECTRAL PEAKS>  (5779) 
45 5.04
59 6.01
73 99.99
74 8.82
75 4.89
91 1.58
149 4.56
157 2.32
164 1.21
165 6.03
166 1.91
175 2.78
177 2.51
191 2.21
204 1.46
208 6.95
209 1.66
217 4.74
218 1.19
231 2.24
259 1.3
261 2.79
274 5.12
275 1.6
305 1.49
333 3.12
348 11.42
349 3.79
350 1.34

$$$$

     RDKit          2D

 17 12  0  0  0  0  0  0  0  0999 V2000
   -2.5981    2.2500    0.0000 C   0  0  0  0  0  3  0  0  0  0  0  0
    1.2990    1.5000    0.0000 C   0  0  0  0  0  0  0  0  0  0  0  0
   -1.2990    1.5000    0.0000 C   0  0  0  0  0  0  0  0  0  0  0  0
    0.0000    2.2500    0.0000 C   0  0  0  0  0  0  0  0  0  0  0  0
   -2.5981    2.2500    0.0000 C   0  0  0  0  0  3  0  0  0  0  0  0
    1.2990    1.5000    0.0000 C   0  0  0  0  0  0  0  0  0  0  0  0
   -1.2990    1.5000    0.0000 C   0  0  0  0  0  0  0  0  0  0  0  0
    0.0000    2.2500    0.0000 C   0  0  0  0  0  0  0  0  0  0  0  0
   -2.5981    2.2500    0.0000 C   0  0  0  0  0  3  0  0  0  0  0  0
    1.2990    1.5000    0.0000 C   0  0  0  0  0  0  0  0  0  0  0  0
   -1.2990    1.5000    0.0000 C   0  0  0  0  0  0  0  0  0  0  0  0
    0.0000    2.2500    0.0000 C   0  0  0  0  0  0  0  0  0  0  0  0
   -2.5981    2.2500    0.0000 C   0  0  0  0  0  3  0  0  0  0  0  0
    1.2990    1.5000    0.0000 C   0  0  0  0  0  0  0  0  0  0  0  0
   -1.2990    1.5000    0.0000 C   0  0  0  0  0  0  0  0  0  0  0  0
    0.0000    2.2500    0.0000 C   0  0  0  0  0  0  0  0  0  0  0  0
    0.0000    0.0000    0.0000 Sn  0  0  0  0  0 15  0  0  0  0  0  0
  3  1  1  0
  4  2  1  0
  4  3  1  0
  7  5  1  0
  8  6  1  0
  8  7  1  0
 11  9  1  0
 12 10  1  0
 12 11  1  0
 15 13  1  0
 16 14  1  0
 16 15  1  0
M  RAD  4   1   2   5   2   9   2  13   2
M  END
>  <NAME>  (5780) 
TETRA-N-BUTYLSTANNANE

>  <SYNONYMS>  (5780) 


>  <SPECTRUM TYPE>  (5780) 
MS1

>  <INSTRUMENT TYPE>  (5780) 
EI-B

>  <INSTRUMENT>  (5780) 
JEOL JMS-D-3000

>  <ION MODE>  (5780) 
P

>  <INCHIKEY>  (5780) 
AFCAKJKUYFLYFK-UHFFFAOYSA-N

>  <FORMULA>  (5780) 
C16H36Sn

>  <EXACT MASS>  (5780) 
348.183895852

>  <MW>  (5780) 
348

>  <ID>  (5780) 
JP002515

>  <CONTRIBUTOR>  (5780) 
University of Tokyo Team, {Faculty of Engineering, University of Tokyo

>  <COMMENT>  (5780) 
SMILES=CCCC[Sn](CCCC)(CCCC)CCCC
InChI=InChI=1S/4C4H9.Sn/c4*1-3-4-2;/h4*1,3-4H2,2H3;
computed SMILES=[Sn].[CH2]CCC.[CH2]CCC.[CH2]CCC.[CH2]CCC
accession=JP002515
date=2016.01.19 (Created 2008.10.21, modified 2011.05.06)
author=MASS SPECTROSCOPY SOC. OF JAPAN (MSSJ)
license=CC BY-NC-SA
exact mass=348.1839
ionization energy=70 eV
ion type=[M]+*
computed spectral entropy=3.3656539398891465
computed normalized entropy=0.8517960874095312
SPLASH=splash10-004i-0980000000-e4737eb9ff0e17e28947
submitter=submitter = University of Tokyo Team (Faculty of Engineering, University of Tokyo)
MoNA Rating=3.75

>  <NUM PEAKS>  (5780) 
52

>  <MASS SPECTRAL PEAKS>  (5780) 
43 1.63
44 3.28
55 2.51
56 3.95
57 5.11
78 2.31
116 3.06
117 12.33
118 9.98
119 24.04
120 14.85
121 31.94
122 3.57
123 13.78
125 5.81
127 1.92
133 1.71
135 2.57
145 1.9
147 2.93
149 3.1
171 3.8
173 9.72
174 6.16
175 57.58
176 31.28
177 89.13
178 31.6
179 99.99
180 4.94
181 17.22
183 17.17
227 2.45
229 1.91
230 1.66
231 36.37
232 22.57
233 61.41
234 26.86
235 79.51
236 7.46
237 11.73
239 13.89
283 1.89
287 28.64
288 18.97
289 47.68
290 22.31
291 62.42
292 8.41
293 9.56
295 10.94

$$$$

     RDKit          2D

 20 20  0  0  0  0  0  0  0  0999 V2000
   -4.7795    3.5092    0.0000 C   0  0  0  0  0  0  0  0  0  0  0  0
    5.6089   -1.0139    0.0000 C   0  0  0  0  0  0  0  0  0  0  0  0
    3.0108   -1.0011    0.0000 C   0  0  0  0  0  0  0  0  0  0  0  0
    6.1626   -0.0656    0.0000 C   0  0  0  0  0  0  0  0  0  0  0  0
    8.2143    0.4733    0.0000 C   0  0  0  0  0  0  0  0  0  0  0  0
    7.6753    2.5250    0.0000 C   0  0  0  0  0  0  0  0  0  0  0  0
   -0.8715    1.2617    0.0000 C   0  0  0  0  0  0  0  0  0  0  0  0
    0.4421    3.4865    0.0000 C   0  0  0  0  0  0  0  0  0  0  0  0
   -2.1560    1.9865    0.0000 C   0  0  0  0  0  0  0  0  0  0  0  0
   -0.8825    4.2807    0.0000 C   0  0  0  0  0  0  0  0  0  0  0  0
    3.0256    1.9989    0.0000 C   0  0  0  0  0  0  0  0  0  0  0  0
    5.6236    1.9861    0.0000 C   0  0  0  0  0  0  0  0  0  0  0  0
    0.4275    2.0117    0.0000 C   0  0  0  0  0  0  0  0  0  0  0  0
   -2.1815    3.5307    0.0000 C   0  0  0  0  0  0  0  0  0  0  0  0
    4.3209    1.2425    0.0000 C   0  0  0  0  0  0  0  0  0  0  0  0
    1.7229    1.2553    0.0000 C   0  0  0  0  0  0  0  0  0  0  0  0
   -3.4867    4.2699    0.0000 O   0  0  0  0  0  0  0  0  0  0  0  0
    4.3135   -0.2575    0.0000 S   0  0  0  0  0  0  0  0  0  0  0  0
    1.7155   -0.2447    0.0000 S   0  0  0  0  0  0  0  0  0  0  0  0
    6.9190    1.2297    0.0000 Si  0  0  0  0  0  4  0  0  0  0  0  0
  9  7  2  0
 10  8  1  0
 13  7  1  0
 13  8  2  0
 14  9  1  0
 14 10  2  0
 15 11  1  0
 15 12  1  0
 16 11  1  0
 16 13  1  0
 17  1  1  0
 17 14  1  0
 18  2  1  0
 18 15  1  0
 19  3  1  0
 19 16  1  0
 20  4  1  0
 20  5  1  0
 20  6  1  0
 20 12  1  0
M  END
>  <NAME>  (5781) 
1-(4-METHOXYPHENYL)-1,3-BIS(METHYLTHIO)-4-TRIMETHYLSILYLBUTANE

>  <SYNONYMS>  (5781) 


>  <SPECTRUM TYPE>  (5781) 
MS1

>  <INSTRUMENT TYPE>  (5781) 
EI-B

>  <INSTRUMENT>  (5781) 
JEOL JMS-D-3000

>  <ION MODE>  (5781) 
P

>  <INCHIKEY>  (5781) 
UBRRIEQBDLWYEF-UHFFFAOYSA-N

>  <FORMULA>  (5781) 
C16H28OS2Si

>  <EXACT MASS>  (5781) 
328.135084046

>  <MW>  (5781) 
328

>  <ID>  (5781) 
JP002514

>  <CONTRIBUTOR>  (5781) 
University of Tokyo Team, {Faculty of Engineering, University of Tokyo

>  <COMMENT>  (5781) 
SMILES=COc(c1)ccc(c1)C(SC)CC(SC)C[Si](C)(C)C
InChI=InChI=1S/C16H28OS2Si/c1-17-14-9-7-13(8-10-14)16(19-3)11-15(18-2)12-20(4,5)6/h7-10,15-16H,11-12H2,1-6H3
computed SMILES=O(C1=CC=C(C=C1)C(SC)CC(SC)C[Si](C)(C)C)C
accession=JP002514
date=2016.01.19 (Created 2008.10.21, modified 2011.05.06)
author=MASS SPECTROSCOPY SOC. OF JAPAN (MSSJ)
license=CC BY-NC-SA
exact mass=328.13508
ionization energy=70 eV
ion type=[M]+*
computed spectral entropy=2.9840059358664845
computed normalized entropy=0.8955050408084313
SPLASH=splash10-0300-4900000000-970133a125c3910c0873
submitter=submitter = University of Tokyo Team (Faculty of Engineering, University of Tokyo)
MoNA Rating=3.75

>  <NUM PEAKS>  (5781) 
28

>  <MASS SPECTRAL PEAKS>  (5781) 
45 14.68
47 13.85
59 9.75
73 99.99
74 10.81
75 10.22
77 15.47
91 20.02
94 14.11
105 22.17
115 14.1
121 11.16
128 10.43
129 17.95
134 14.27
144 14.94
145 10.94
146 9.5
147 54.78
159 31.43
160 31.28
161 82.47
162 9.91
167 92.56
168 10.21
233 15.75
265 28.96
328 16.86

$$$$

     RDKit          2D

 15 15  0  0  0  0  0  0  0  0999 V2000
    9.0942    0.7512    0.0000 C   0  0  0  0  0  0  0  0  0  0  0  0
    7.7948    3.0010    0.0000 C   0  0  0  0  0  0  0  0  0  0  0  0
   -2.5989   -1.5002    0.0000 C   0  0  0  0  0  0  0  0  0  0  0  0
    2.5987    3.0002    0.0000 C   0  0  0  0  0  0  0  0  0  0  0  0
    5.1970    1.5006    0.0000 C   0  0  0  0  0  0  0  0  0  0  0  0
    6.4962    0.7508    0.0000 C   0  0  0  0  0  0  0  0  0  0  0  0
    3.8981    0.7504    0.0000 C   0  0  0  0  0  0  0  0  0  0  0  0
   -1.3000    0.7500    0.0000 C   0  0  0  0  0  0  0  0  0  0  0  0
   -0.0000   -1.5000    0.0000 C   0  0  0  0  0  0  0  0  0  0  0  0
    0.0000    1.5000    0.0000 C   0  0  0  0  0  0  0  0  0  0  0  0
    1.3000   -0.7500    0.0000 C   0  0  0  0  0  0  0  0  0  0  0  0
    7.7951    1.5010    0.0000 C   0  0  0  0  0  0  0  0  0  0  0  0
   -1.3000   -0.7500    0.0000 C   0  0  0  0  0  0  0  0  0  0  0  0
    2.5989    1.5002    0.0000 C   0  0  0  0  0  0  0  0  0  0  0  0
    1.3000    0.7500    0.0000 C   0  0  0  0  0  0  0  0  0  0  0  0
  6  5  1  0
  7  5  1  0
 10  8  1  0
 11  9  1  0
 12  1  1  0
 12  2  1  0
 12  6  2  0
 13  3  2  0
 13  8  1  0
 13  9  1  0
 14  4  2  0
 14  7  1  0
 15 10  1  0
 15 11  1  0
 15 14  1  0
M  END
>  <NAME>  (5782) 
ISOBISABOLENE

>  <SYNONYMS>  (5782) 
6-METHYL-2-(4-METHYLENECYCLOHEXYL)-1,5-HEPTADIENE

>  <SPECTRUM TYPE>  (5782) 
MS1

>  <INSTRUMENT TYPE>  (5782) 
EI-B

>  <INSTRUMENT>  (5782) 
JEOL JMS-D-3000

>  <ION MODE>  (5782) 
P

>  <INCHIKEY>  (5782) 
XMGWPQCLCZIWPP-UHFFFAOYSA-N

>  <FORMULA>  (5782) 
C15H24

>  <EXACT MASS>  (5782) 
204.187800768

>  <MW>  (5782) 
204

>  <ID>  (5782) 
JP002513

>  <CONTRIBUTOR>  (5782) 
University of Tokyo Team, {Faculty of Engineering, University of Tokyo

>  <COMMENT>  (5782) 
SMILES=CC(C)=CCCC(=C)C(C1)CCC(=C)C1
InChI=InChI=1S/C15H24/c1-12(2)6-5-7-14(4)15-10-8-13(3)9-11-15/h6,15H,3-5,7-11H2,1-2H3
computed SMILES=C=C1CCC(C(=C)CCC=C(C)C)CC1
accession=JP002513
date=2016.01.19 (Created 2008.10.21, modified 2011.05.06)
author=MASS SPECTROSCOPY SOC. OF JAPAN (MSSJ)
license=CC BY-NC-SA
exact mass=204.1878
ionization energy=70 eV
ion type=[M]+*
computed spectral entropy=2.8119687336691515
computed normalized entropy=0.826758467129876
SPLASH=splash10-014l-9200000000-3bc1c00936795e4c77e5
submitter=submitter = University of Tokyo Team (Faculty of Engineering, University of Tokyo)
MoNA Rating=3.75

>  <NUM PEAKS>  (5782) 
30

>  <MASS SPECTRAL PEAKS>  (5782) 
41 58.85
43 3.81
53 6.44
55 9.75
67 21.43
68 4.51
69 99.99
70 5.86
77 6.13
79 14.79
80 3.94
81 10.26
82 5.67
91 9.23
92 4.79
93 25.66
94 7.89
95 6.39
105 5.96
107 7.46
108 3.1
109 26.64
119 4.4
120 3.72
121 3.81
133 4.23
134 3.25
135 5.03
161 19.65
204 12.26

$$$$

     RDKit          2D

 16 17  0  0  0  0  0  0  0  0999 V2000
    5.9479   -2.0496    0.0000 C   0  0  0  0  0  0  0  0  0  0  0  0
    6.4972   -0.0006    0.0000 C   0  0  0  0  0  0  0  0  0  0  0  0
    4.4483    0.5487    0.0000 C   0  0  0  0  0  0  0  0  0  0  0  0
   -2.6000    0.7500    0.0000 C   0  0  0  0  0  0  0  0  0  0  0  0
   -1.3000    1.5000    0.0000 C   0  0  0  0  0  0  0  0  0  0  0  0
   -2.6000   -0.7500    0.0000 C   0  0  0  0  0  0  0  0  0  0  0  0
    2.6000    0.7500    0.0000 C   0  0  0  0  0  0  0  0  0  0  0  0
    1.3000    1.5000    0.0000 C   0  0  0  0  0  0  0  0  0  0  0  0
    1.3000   -1.5000    0.0000 C   0  0  0  0  0  0  0  0  0  0  0  0
    3.8989   -1.5002    0.0000 C   0  0  0  0  0  0  0  0  0  0  0  0
    2.6000   -0.7500    0.0000 C   0  0  0  0  0  0  0  0  0  0  0  0
    0.0000    0.7500    0.0000 C   0  0  0  0  0  0  0  0  0  0  0  0
    0.0000   -0.7500    0.0000 C   0  0  0  0  0  0  0  0  0  0  0  0
   -1.3000   -1.5000    0.0000 C   0  0  0  0  0  0  0  0  0  0  0  0
   -1.3000   -3.0000    0.0000 O   0  0  0  0  0  0  0  0  0  0  0  0
    5.1981   -0.7504    0.0000 Si  0  0  0  0  0  4  0  0  0  0  0  0
  5  4  1  0
  6  4  1  0
  8  7  1  0
 11  7  2  0
 11  9  1  0
 11 10  1  0
 12  5  1  0
 12  8  1  0
 13  9  1  0
 13 12  1  0
 14  6  1  0
 14 13  1  0
 15 14  2  0
 16  1  1  0
 16  2  1  0
 16  3  1  0
 16 10  1  0
M  END
>  <NAME>  (5783) 
7-TRIMETHYLSILYLMETHYL-3,4,4A,5,8,8A-HEXAHYDRO-1(2H)-NAPHTHALENONE

>  <SYNONYMS>  (5783) 


>  <SPECTRUM TYPE>  (5783) 
MS1

>  <INSTRUMENT TYPE>  (5783) 
EI-B

>  <INSTRUMENT>  (5783) 
JEOL JMS-D-3000

>  <ION MODE>  (5783) 
P

>  <INCHIKEY>  (5783) 
VTSZSPVMHBJJIS-UHFFFAOYSA-N

>  <FORMULA>  (5783) 
C14H24OSi

>  <EXACT MASS>  (5783) 
236.15964191799998

>  <MW>  (5783) 
236

>  <ID>  (5783) 
JP002512

>  <CONTRIBUTOR>  (5783) 
University of Tokyo Team, {Faculty of Engineering, University of Tokyo

>  <COMMENT>  (5783) 
SMILES=O=C(C2)C(C1)C(CC2)CC=C(C[Si](C)(C)C)1
InChI=InChI=1S/C14H24OSi/c1-16(2,3)10-11-7-8-12-5-4-6-14(15)13(12)9-11/h7,12-13H,4-6,8-10H2,1-3H3
computed SMILES=O=C1CCCC2CC=C(CC12)C[Si](C)(C)C
accession=JP002512
date=2016.01.19 (Created 2008.10.21, modified 2011.05.06)
author=MASS SPECTROSCOPY SOC. OF JAPAN (MSSJ)
license=CC BY-NC-SA
exact mass=236.15964
ionization energy=70 eV
ion type=[M]+*
computed spectral entropy=2.66126655755815
computed normalized entropy=0.807463071066532
SPLASH=splash10-00di-9710000000-3a8194939c5b4f5593b3
submitter=submitter = University of Tokyo Team (Faculty of Engineering, University of Tokyo)
MoNA Rating=3.75

>  <NUM PEAKS>  (5783) 
27

>  <MASS SPECTRAL PEAKS>  (5783) 
42 3.42
45 9.68
55 3.38
59 7.03
73 99.99
74 9.44
75 21.57
77 3.69
79 3.81
91 8.16
104 3.69
105 5.87
117 4.19
118 4.97
129 21.18
131 9.4
145 3.34
146 7.73
155 4.08
156 7.23
169 42.65
170 6.57
179 3.18
180 6.33
195 4.27
221 7.03
236 13.84

$$$$

     RDKit          2D

 14 14  0  0  0  0  0  0  0  0999 V2000
   -6.8197    3.1321    0.0000 C   0  0  0  0  0  0  0  0  0  0  0  0
   -4.2216    6.1321    0.0000 C   0  0  0  0  0  0  0  0  0  0  0  0
   -5.5207    3.8821    0.0000 C   0  0  0  0  0  0  0  0  0  0  0  0
    3.5726    1.6321    0.0000 C   0  0  0  0  0  0  0  0  0  0  0  0
    3.5731    3.1329    0.0000 C   0  0  0  0  0  0  0  0  0  0  0  0
    2.2731    0.8813    0.0000 C   0  0  0  0  0  0  0  0  0  0  0  0
   -4.2216    3.1321    0.0000 C   0  0  0  0  0  0  0  0  0  0  0  0
    2.2740    3.8829    0.0000 C   0  0  0  0  0  0  0  0  0  0  0  0
    0.9740    1.6313    0.0000 C   0  0  0  0  0  0  0  0  0  0  0  0
   -0.3245    3.8821    0.0000 C   0  0  0  0  0  0  0  0  0  0  0  0
   -1.6236    3.1321    0.0000 C   0  0  0  0  0  0  0  0  0  0  0  0
    0.9745    3.1321    0.0000 C   0  0  0  0  0  0  0  0  0  0  0  0
   -2.9226    3.8821    0.0000 C   0  0  0  0  0  0  0  0  0  0  0  0
   -2.9226    5.3821    0.0000 S   0  0  0  0  0  0  0  0  0  0  0  0
  3  1  2  0
  5  4  2  0
  6  4  1  0
  7  3  1  0
  8  5  1  0
  9  6  2  0
 11 10  1  0
 12  8  2  0
 12  9  1  0
 12 10  1  0
 13  7  1  0
 13 11  1  0
 14  2  1  0
 14 13  1  0
M  END
>  <NAME>  (5784) 
6-PHENYL-4-METHYLTHIO-1-HEXENE

>  <SYNONYMS>  (5784) 


>  <SPECTRUM TYPE>  (5784) 
MS1

>  <INSTRUMENT TYPE>  (5784) 
EI-B

>  <INSTRUMENT>  (5784) 
JEOL JMS-D-3000

>  <ION MODE>  (5784) 
P

>  <INCHIKEY>  (5784) 
QLNCUBLOWMDGLA-UHFFFAOYSA-N

>  <FORMULA>  (5784) 
C13H18S

>  <EXACT MASS>  (5784) 
206.112921576

>  <MW>  (5784) 
206

>  <ID>  (5784) 
JP002511

>  <CONTRIBUTOR>  (5784) 
University of Tokyo Team, {Faculty of Engineering, University of Tokyo

>  <COMMENT>  (5784) 
SMILES=C=CCC(SC)CCc(c1)cccc1
InChI=InChI=1S/C13H18S/c1-3-7-13(14-2)11-10-12-8-5-4-6-9-12/h3-6,8-9,13H,1,7,10-11H2,2H3
computed SMILES=S(C)C(CC=C)CCC=1C=CC=CC1
accession=JP002511
date=2016.01.19 (Created 2008.10.21, modified 2011.05.06)
author=MASS SPECTROSCOPY SOC. OF JAPAN (MSSJ)
license=CC BY-NC-SA
exact mass=206.11292
ionization energy=70 eV
ion type=[M]+*
computed spectral entropy=1.7828725945939294
computed normalized entropy=0.6755717560913502
SPLASH=splash10-014i-0920000000-390073a5c67da0f41e72
submitter=submitter = University of Tokyo Team (Faculty of Engineering, University of Tokyo)
MoNA Rating=3.75

>  <NUM PEAKS>  (5784) 
14

>  <MASS SPECTRAL PEAKS>  (5784) 
61 2.43
91 12.36
92 1.05
102 9.94
104 3.73
117 99.99
118 10.74
129 1.24
158 4.09
165 18.07
166 2.13
206 39.31
207 6.06
208 2.25

$$$$

     RDKit          2D

 19 18  0  0  0  0  0  0  0  0999 V2000
    2.5981    6.0000    0.0000 C   0  0  0  0  0  0  0  0  0  0  0  0
   -6.4952   11.2500    0.0000 C   0  0  0  0  0  0  0  0  0  0  0  0
   -9.0933    6.7500    0.0000 C   0  0  0  0  0  0  0  0  0  0  0  0
   -6.4952    2.2500    0.0000 C   0  0  0  0  0  0  0  0  0  0  0  0
    1.2990    6.7500    0.0000 C   0  0  0  0  0  0  0  0  0  0  0  0
   -5.1962   10.5000    0.0000 C   0  0  0  0  0  0  0  0  0  0  0  0
   -7.7942    6.0000    0.0000 C   0  0  0  0  0  0  0  0  0  0  0  0
   -6.4952    3.7500    0.0000 C   0  0  0  0  0  0  0  0  0  0  0  0
   -2.5981    6.0000    0.0000 C   0  0  0  0  0  0  0  0  0  0  0  0
   -3.8971    6.7500    0.0000 C   0  0  0  0  0  0  0  0  0  0  0  0
   -1.2990    6.7500    0.0000 C   0  0  0  0  0  0  0  0  0  0  0  0
   -3.8971    8.2500    0.0000 C   0  0  0  0  0  0  0  0  0  0  0  0
   -5.1962    6.0000    0.0000 C   0  0  0  0  0  0  0  0  0  0  0  0
   -1.2990    8.2500    0.0000 O   0  0  0  0  0  0  0  0  0  0  0  0
   -2.5981    9.0000    0.0000 O   0  0  0  0  0  0  0  0  0  0  0  0
    0.0000    6.0000    0.0000 O   0  0  0  0  0  0  0  0  0  0  0  0
   -5.1962    9.0000    0.0000 O   0  0  0  0  0  0  0  0  0  0  0  0
   -6.4952    6.7500    0.0000 O   0  0  0  0  0  0  0  0  0  0  0  0
   -5.1962    4.5000    0.0000 O   0  0  0  0  0  0  0  0  0  0  0  0
  5  1  1  0
  6  2  1  0
  7  3  1  0
  8  4  1  0
 10  9  1  0
 11  9  1  0
 12 10  1  0
 13 10  1  0
 14 11  2  0
 15 12  2  0
 16  5  1  0
 16 11  1  0
 17  6  1  0
 17 12  1  0
 18  7  1  0
 18 13  1  0
 19  8  1  0
 19 13  1  0
M  END
>  <NAME>  (5785) 
DIETHYL 2-(DIETHOXYMETHYL)SUCCINATE

>  <SYNONYMS>  (5785) 


>  <SPECTRUM TYPE>  (5785) 
MS1

>  <INSTRUMENT TYPE>  (5785) 
EI-B

>  <INSTRUMENT>  (5785) 
JEOL JMS-D-3000

>  <ION MODE>  (5785) 
P

>  <INCHIKEY>  (5785) 
XKFYOTHOBBFZSE-UHFFFAOYSA-N

>  <FORMULA>  (5785) 
C13H24O6

>  <EXACT MASS>  (5785) 
276.15728848799995

>  <MW>  (5785) 
276

>  <ID>  (5785) 
JP002510

>  <CONTRIBUTOR>  (5785) 
University of Tokyo Team, {Faculty of Engineering, University of Tokyo

>  <COMMENT>  (5785) 
SMILES=CCOC(=O)CC(C(=O)OCC)C(OCC)OCC
InChI=InChI=1S/C13H24O6/c1-5-16-11(14)9-10(12(15)17-6-2)13(18-7-3)19-8-4/h10,13H,5-9H2,1-4H3
computed SMILES=O=C(OCC)CC(C(=O)OCC)C(OCC)OCC
accession=JP002510
date=2016.01.19 (Created 2008.10.21, modified 2011.05.06)
author=MASS SPECTROSCOPY SOC. OF JAPAN (MSSJ)
license=CC BY-NC-SA
exact mass=276.15729
ionization energy=70 eV
ion type=[M]+*
computed spectral entropy=2.6941092682543712
computed normalized entropy=0.7461009453636438
SPLASH=splash10-055r-2910000000-5ee6bd0168f1a2685771
submitter=submitter = University of Tokyo Team (Faculty of Engineering, University of Tokyo)
MoNA Rating=3.75

>  <NUM PEAKS>  (5785) 
37

>  <MASS SPECTRAL PEAKS>  (5785) 
75 60.59
76 1.86
83 10.68
84 1.28
85 3.11
88 1.49
99 1.4
100 24.4
101 1.31
104 12.76
105 1.11
110 1.72
112 1.59
113 1.48
127 1.88
128 4.86
129 34.01
130 2.41
141 1.77
145 5.26
155 1.45
156 4.53
157 57.9
158 7.15
173 5.41
184 10.43
185 99.99
186 9.88
187 1.58
189 4.07
201 5.49
202 1.2
230 17.81
231 16.14
232 2.14
247 1.77
276 2.31

$$$$

     RDKit          2D

 15 15  0  0  0  0  0  0  0  0999 V2000
   -5.1972   -0.5500    0.0000 C   0  0  0  0  0  0  0  0  0  0  0  0
    3.1480    0.4019    0.0000 C   0  0  0  0  0  0  0  0  0  0  0  0
    5.1970    0.9513    0.0000 C   0  0  0  0  0  0  0  0  0  0  0  0
    4.6476    3.0002    0.0000 C   0  0  0  0  0  0  0  0  0  0  0  0
    1.2998    0.2006    0.0000 C   0  0  0  0  0  0  0  0  0  0  0  0
   -0.0002    2.4506    0.0000 C   0  0  0  0  0  0  0  0  0  0  0  0
   -0.0002   -0.5494    0.0000 C   0  0  0  0  0  0  0  0  0  0  0  0
   -1.3002    1.7006    0.0000 C   0  0  0  0  0  0  0  0  0  0  0  0
    2.5987    2.4508    0.0000 C   0  0  0  0  0  0  0  0  0  0  0  0
    1.2998    1.7006    0.0000 C   0  0  0  0  0  0  0  0  0  0  0  0
   -1.3002    0.2006    0.0000 C   0  0  0  0  0  0  0  0  0  0  0  0
   -2.5992   -0.5496    0.0000 C   0  0  0  0  0  0  0  0  0  0  0  0
   -2.5989   -2.0496    0.0000 O   0  0  0  0  0  0  0  0  0  0  0  0
   -3.8983    0.2002    0.0000 O   0  0  0  0  0  0  0  0  0  0  0  0
    3.8978    1.7010    0.0000 Si  0  0  0  0  0  4  0  0  0  0  0  0
  7  5  1  0
  8  6  1  0
 10  5  2  0
 10  6  1  0
 10  9  1  0
 11  7  1  0
 11  8  1  0
 12 11  1  0
 13 12  2  0
 14  1  1  0
 14 12  1  0
 15  2  1  0
 15  3  1  0
 15  4  1  0
 15  9  1  0
M  END
>  <NAME>  (5786) 
METHYL 4-TRIMETHYLSILYLMETHYL-3-CYCLOHEXENECARBOXYLATE

>  <SYNONYMS>  (5786) 


>  <SPECTRUM TYPE>  (5786) 
MS1

>  <INSTRUMENT TYPE>  (5786) 
EI-B

>  <INSTRUMENT>  (5786) 
JEOL JMS-D-3000

>  <ION MODE>  (5786) 
P

>  <INCHIKEY>  (5786) 
DBBWPGOLVKGOEO-UHFFFAOYSA-N

>  <FORMULA>  (5786) 
C12H22O2Si

>  <EXACT MASS>  (5786) 
226.138906474

>  <MW>  (5786) 
226

>  <ID>  (5786) 
JP002509

>  <CONTRIBUTOR>  (5786) 
University of Tokyo Team, {Faculty of Engineering, University of Tokyo

>  <COMMENT>  (5786) 
SMILES=COC(=O)C(C1)CC=C(C1)C[Si](C)(C)C
InChI=InChI=1S/C12H22O2Si/c1-14-12(13)11-7-5-10(6-8-11)9-15(2,3)4/h5,11H,6-9H2,1-4H3
computed SMILES=O=C(OC)C1CC=C(CC1)C[Si](C)(C)C
accession=JP002509
date=2016.01.19 (Created 2008.10.21, modified 2011.05.06)
author=MASS SPECTROSCOPY SOC. OF JAPAN (MSSJ)
license=CC BY-NC-SA
exact mass=226.13891
ionization energy=70 eV
ion type=[M]+*
computed spectral entropy=3.0422288664516177
computed normalized entropy=0.8088452549381657
SPLASH=splash10-00c3-9700000000-13b09b6d799c2e3cbad2
submitter=submitter = University of Tokyo Team (Faculty of Engineering, University of Tokyo)
MoNA Rating=3.75

>  <NUM PEAKS>  (5786) 
43

>  <MASS SPECTRAL PEAKS>  (5786) 
59 9.61
61 9.22
71 13.14
72 2.37
73 78.24
74 7.56
75 99.99
76 7.26
77 9.44
79 4.92
85 2.75
91 12.23
92 2.85
93 13.46
94 3.2
110 3.34
115 2.78
117 6.52
119 20.08
121 7.02
125 3.8
127 3.69
135 3.87
136 3.66
141 11.03
143 53.05
144 7.36
145 3.02
149 8.43
151 2.4
155 3.06
156 5.35
165 6.81
167 9.84
168 2.38
169 2.91
183 50.72
184 8.95
185 2.57
193 7.36
211 13.81
212 2.51
226 1.64

$$$$

     RDKit          2D

 15 16  0  0  0  0  0  0  0  0999 V2000
   -1.4390   -4.0000    0.0000 C   0  0  0  0  0  0  0  0  0  0  0  0
    1.1596    3.0977    0.0000 C   0  0  0  0  0  0  0  0  0  0  0  0
    0.6112    5.1469    0.0000 C   0  0  0  0  0  0  0  0  0  0  0  0
   -1.4380    4.5985    0.0000 C   0  0  0  0  0  0  0  0  0  0  0  0
   -1.4400   -1.0000    0.0000 C   0  0  0  0  0  0  0  0  0  0  0  0
   -1.4400    0.5000    0.0000 C   0  0  0  0  0  0  0  0  0  0  0  0
    1.1600   -1.0000    0.0000 C   0  0  0  0  0  0  0  0  0  0  0  0
   -0.8896    2.5493    0.0000 C   0  0  0  0  0  0  0  0  0  0  0  0
   -0.1400   -3.2500    0.0000 C   0  0  0  0  0  0  0  0  0  0  0  0
   -0.1400   -1.7500    0.0000 C   0  0  0  0  0  0  0  0  0  0  0  0
    1.1600    0.5000    0.0000 C   0  0  0  0  0  0  0  0  0  0  0  0
   -0.1400    1.2500    0.0000 C   0  0  0  0  0  0  0  0  0  0  0  0
    1.1590   -4.0000    0.0000 O   0  0  0  0  0  0  0  0  0  0  0  0
    1.1600    2.0000    0.0000 O   0  0  0  0  0  0  0  0  0  0  0  0
   -0.1392    3.8481    0.0000 Si  0  0  0  0  0  4  0  0  0  0  0  0
  6  5  1  0
  9  1  1  0
 10  5  1  0
 10  7  1  0
 10  9  1  0
 11  7  1  0
 12  6  1  0
 12  8  1  0
 12 11  1  0
 13  9  2  0
 14 11  1  0
 14 12  1  0
 15  2  1  0
 15  3  1  0
 15  4  1  0
 15  8  1  0
M  END
>  <NAME>  (5787) 
METHYL 3,4-EPOXY-4-TRIMETHYLSILYLMETHYLCYCLOHEXYL KETONE

>  <SYNONYMS>  (5787) 


>  <SPECTRUM TYPE>  (5787) 
MS1

>  <INSTRUMENT TYPE>  (5787) 
EI-B

>  <INSTRUMENT>  (5787) 
JEOL JMS-D-3000

>  <ION MODE>  (5787) 
P

>  <INCHIKEY>  (5787) 
SMCFBVDPIWMNCF-UHFFFAOYSA-N

>  <FORMULA>  (5787) 
C12H22O2Si

>  <EXACT MASS>  (5787) 
226.138906474

>  <MW>  (5787) 
226

>  <ID>  (5787) 
JP002508

>  <CONTRIBUTOR>  (5787) 
University of Tokyo Team, {Faculty of Engineering, University of Tokyo

>  <COMMENT>  (5787) 
SMILES=CC(=O)C(C2)CC(O1)C(C2)(C[Si](C)(C)C)1
InChI=InChI=1S/C12H22O2Si/c1-9(13)10-5-6-12(8-15(2,3)4)11(7-10)14-12/h10-11H,5-8H2,1-4H3
computed SMILES=O=C(C)C1CCC2(OC2C1)C[Si](C)(C)C
accession=JP002508
date=2016.01.19 (Created 2008.10.21, modified 2011.05.06)
author=MASS SPECTROSCOPY SOC. OF JAPAN (MSSJ)
license=CC BY-NC-SA
exact mass=226.13891
ionization energy=70 eV
ion type=[M]+*
computed spectral entropy=2.751049304324605
computed normalized entropy=0.8088472957074239
SPLASH=splash10-00fu-9300000000-7e97e630ccf7ef8e6f0b
submitter=submitter = University of Tokyo Team (Faculty of Engineering, University of Tokyo)
MoNA Rating=3.75

>  <NUM PEAKS>  (5787) 
30

>  <MASS SPECTRAL PEAKS>  (5787) 
58 9.98
59 6.57
61 4.72
71 5.17
73 99.99
74 9.07
75 58.45
76 4.18
77 9.78
79 4.18
91 14.84
92 11.5
93 33.4
94 6.52
117 4.42
118 3.14
119 10.13
121 7.75
136 2.67
141 4.32
143 32.59
144 4.54
149 4.04
165 3.15
167 5.38
183 22.74
184 3.74
193 3.25
211 5.57
226 3

$$$$

     RDKit          2D

 15 15  0  0  0  0  0  0  0  0999 V2000
    8.1753   -0.0079    0.0000 C   0  0  0  0  0  0  0  0  0  0  0  0
    8.7240    2.0412    0.0000 C   0  0  0  0  0  0  0  0  0  0  0  0
    6.6749    2.5900    0.0000 C   0  0  0  0  0  0  0  0  0  0  0  0
   -1.6700   -0.9600    0.0000 C   0  0  0  0  0  0  0  0  0  0  0  0
   -1.6700    0.5400    0.0000 C   0  0  0  0  0  0  0  0  0  0  0  0
   -0.3700   -1.7100    0.0000 C   0  0  0  0  0  0  0  0  0  0  0  0
   -0.3700    1.2900    0.0000 C   0  0  0  0  0  0  0  0  0  0  0  0
    0.9300   -0.9600    0.0000 C   0  0  0  0  0  0  0  0  0  0  0  0
    3.5281    0.5404    0.0000 C   0  0  0  0  0  0  0  0  0  0  0  0
    6.1262    0.5408    0.0000 C   0  0  0  0  0  0  0  0  0  0  0  0
    4.8270    1.2906    0.0000 C   0  0  0  0  0  0  0  0  0  0  0  0
    0.9300    0.5400    0.0000 C   0  0  0  0  0  0  0  0  0  0  0  0
    4.8268    2.7906    0.0000 O   0  0  0  0  0  0  0  0  0  0  0  0
    2.2289    1.2902    0.0000 O   0  0  0  0  0  0  0  0  0  0  0  0
    7.4251    1.2910    0.0000 Si  0  0  0  0  0  4  0  0  0  0  0  0
  5  4  2  0
  6  4  1  0
  7  5  1  0
  8  6  2  0
 11  9  1  0
 11 10  1  0
 12  7  2  0
 12  8  1  0
 13 11  2  0
 14  9  1  0
 14 12  1  0
 15  1  1  0
 15  2  1  0
 15  3  1  0
 15 10  1  0
M  END
>  <NAME>  (5788) 
1-PHENOXY-3-TRIMETHYLSILYL-2-PROPANONE

>  <SYNONYMS>  (5788) 


>  <SPECTRUM TYPE>  (5788) 
MS1

>  <INSTRUMENT TYPE>  (5788) 
EI-B

>  <INSTRUMENT>  (5788) 
JEOL JMS-D-3000

>  <ION MODE>  (5788) 
P

>  <INCHIKEY>  (5788) 
NRAWMMGVSRRVSR-UHFFFAOYSA-N

>  <FORMULA>  (5788) 
C12H18O2Si

>  <EXACT MASS>  (5788) 
222.107606346

>  <MW>  (5788) 
222

>  <ID>  (5788) 
JP002507

>  <CONTRIBUTOR>  (5788) 
University of Tokyo Team, {Faculty of Engineering, University of Tokyo

>  <COMMENT>  (5788) 
SMILES=O=C(COc(c1)cccc1)C[Si](C)(C)C
InChI=InChI=1S/C12H18O2Si/c1-15(2,3)10-11(13)9-14-12-7-5-4-6-8-12/h4-8H,9-10H2,1-3H3
computed SMILES=O=C(COC=1C=CC=CC1)C[Si](C)(C)C
accession=JP002507
date=2016.01.19 (Created 2008.10.21, modified 2011.05.06)
author=MASS SPECTROSCOPY SOC. OF JAPAN (MSSJ)
license=CC BY-NC-SA
exact mass=222.10761
ionization energy=70 eV
ion type=[M]+*
computed spectral entropy=3.1232842338876536
computed normalized entropy=0.7725067101512364
SPLASH=splash10-00b9-9310000000-59187edd7c419b037370
submitter=submitter = University of Tokyo Team (Faculty of Engineering, University of Tokyo)
MoNA Rating=3.75

>  <NUM PEAKS>  (5788) 
57

>  <MASS SPECTRAL PEAKS>  (5788) 
43 5.49
44 2.88
45 7.73
47 3.78
51 5.12
54 1.01
55 1.33
57 1.17
58 1.86
59 3.84
61 2.98
65 3.57
66 1.7
67 2.24
72 2.82
73 52.5
74 4.9
75 99.99
76 8.43
77 15.63
78 1.97
79 1.6
85 1.97
91 5.76
93 1.17
94 2.02
95 1.97
99 1.22
104 6.18
105 1.22
107 4.42
113 1.28
115 5.28
129 9.44
130 1.38
131 8.64
132 13.07
133 2.02
135 1.97
149 1.01
150 3.46
151 15.9
152 2.66
153 1.28
154 1.54
161 2.77
166 4.32
167 1.22
179 7.57
180 2.4
189 6.4
194 1.76
205 1.33
207 3.78
222 37.24
223 6.61
224 1.65

$$$$

     RDKit          2D

 14 14  0  0  0  0  0  0  0  0999 V2000
   -3.5905    1.3257    0.0000 C   0  0  0  0  0  0  0  0  0  0  0  0
    6.8126   -0.1974    0.0000 C   0  0  0  0  0  0  0  0  0  0  0  0
   -0.9777    4.3129    0.0000 C   0  0  0  0  0  0  0  0  0  0  0  0
   -2.2878    2.0693    0.0000 C   0  0  0  0  0  0  0  0  0  0  0  0
   -0.9925    1.3129    0.0000 C   0  0  0  0  0  0  0  0  0  0  0  0
    2.9046    2.0501    0.0000 C   0  0  0  0  0  0  0  0  0  0  0  0
    1.5910   -0.1747    0.0000 C   0  0  0  0  0  0  0  0  0  0  0  0
    4.1891    1.3253    0.0000 C   0  0  0  0  0  0  0  0  0  0  0  0
    2.9156   -0.9689    0.0000 C   0  0  0  0  0  0  0  0  0  0  0  0
    1.6056    1.3001    0.0000 C   0  0  0  0  0  0  0  0  0  0  0  0
    4.2146   -0.2189    0.0000 C   0  0  0  0  0  0  0  0  0  0  0  0
    0.3102    2.0565    0.0000 C   0  0  0  0  0  0  0  0  0  0  0  0
    5.5198   -0.9581    0.0000 O   0  0  0  0  0  0  0  0  0  0  0  0
    0.3176    3.5565    0.0000 S   0  0  0  0  0  0  0  0  0  0  0  0
  4  1  2  0
  5  4  1  0
  8  6  2  0
  9  7  1  0
 10  6  1  0
 10  7  2  0
 11  8  1  0
 11  9  2  0
 12  5  1  0
 12 10  1  0
 13  2  1  0
 13 11  1  0
 14  3  1  0
 14 12  1  0
M  END
>  <NAME>  (5789) 
4-(4-METHOXYPHENYL)-4-METHYLTHIO-1-BUTENE

>  <SYNONYMS>  (5789) 


>  <SPECTRUM TYPE>  (5789) 
MS1

>  <INSTRUMENT TYPE>  (5789) 
EI-B

>  <INSTRUMENT>  (5789) 
JEOL JMS-D-3000

>  <ION MODE>  (5789) 
P

>  <INCHIKEY>  (5789) 
WEYDOWYVKXIWLV-UHFFFAOYSA-N

>  <FORMULA>  (5789) 
C12H16OS

>  <EXACT MASS>  (5789) 
208.092186132

>  <MW>  (5789) 
208

>  <ID>  (5789) 
JP002506

>  <CONTRIBUTOR>  (5789) 
University of Tokyo Team, {Faculty of Engineering, University of Tokyo

>  <COMMENT>  (5789) 
SMILES=C=CCC(SC)c(c1)ccc(OC)c1
InChI=InChI=1S/C12H16OS/c1-4-5-12(14-3)10-6-8-11(13-2)9-7-10/h4,6-9,12H,1,5H2,2-3H3
computed SMILES=O(C1=CC=C(C=C1)C(SC)CC=C)C
computed normalized entropy=0.8613669725979355
accession=JP002506
date=2016.01.19 (Created 2008.10.21, modified 2011.05.06)
author=MASS SPECTROSCOPY SOC. OF JAPAN (MSSJ)
license=CC BY-NC-SA
exact mass=208.09219
ionization energy=70 eV
ion type=[M]+*
computed spectral entropy=3.3345246950837977
SPLASH=splash10-03xr-2900000000-7e785972c017ccb8fee8
submitter=submitter = University of Tokyo Team (Faculty of Engineering, University of Tokyo)
MoNA Rating=3.75

>  <NUM PEAKS>  (5789) 
48

>  <MASS SPECTRAL PEAKS>  (5789) 
50 5.94
51 11.23
52 3.03
53 3.38
62 3.66
63 12.92
64 5.49
65 12.19
75 4.11
76 3.76
77 11.85
78 4.97
79 5.36
80 3.8
89 9.3
91 29.03
92 3.78
94 10.48
102 8.86
103 4.5
107 3.45
115 42.59
116 13.57
117 28.53
118 3.86
119 4.57
121 8.07
127 16.07
128 24.71
129 42.97
130 9.67
131 8.33
134 3.4
143 3.2
144 40.83
145 36.36
146 10.73
151 4.85
152 5.03
158 6.68
159 67.03
160 99.99
161 59.72
162 7.17
167 51.94
168 5.91
174 11.99
208 3.17

$$$$

     RDKit          2D

 13 13  0  0  0  0  0  0  0  0999 V2000
   -5.3834    4.1934    0.0000 C   0  0  0  0  0  0  0  0  0  0  0  0
   -5.9324    2.1443    0.0000 C   0  0  0  0  0  0  0  0  0  0  0  0
   -3.8834    1.5953    0.0000 C   0  0  0  0  0  0  0  0  0  0  0  0
    3.1608    1.3943    0.0000 C   0  0  0  0  0  0  0  0  0  0  0  0
    3.1613    2.8952    0.0000 C   0  0  0  0  0  0  0  0  0  0  0  0
    1.8613    0.6435    0.0000 C   0  0  0  0  0  0  0  0  0  0  0  0
    1.8623    3.6452    0.0000 C   0  0  0  0  0  0  0  0  0  0  0  0
    0.5623    1.3935    0.0000 C   0  0  0  0  0  0  0  0  0  0  0  0
   -0.7363    3.6443    0.0000 C   0  0  0  0  0  0  0  0  0  0  0  0
   -3.3344    3.6443    0.0000 C   0  0  0  0  0  0  0  0  0  0  0  0
    0.5627    2.8943    0.0000 C   0  0  0  0  0  0  0  0  0  0  0  0
   -2.0353    2.8943    0.0000 N   0  0  0  0  0  0  0  0  0  0  0  0
   -4.6334    2.8943    0.0000 Si  0  0  0  0  0  4  0  0  0  0  0  0
  5  4  2  0
  6  4  1  0
  7  5  1  0
  8  6  2  0
 11  7  2  0
 11  8  1  0
 11  9  1  0
 12  9  1  0
 12 10  1  0
 13  1  1  0
 13  2  1  0
 13  3  1  0
 13 10  1  0
M  END
>  <NAME>  (5790) 
BENZYL(TRIMETHYLSILYLMETHYL)AMINE

>  <SYNONYMS>  (5790) 


>  <SPECTRUM TYPE>  (5790) 
MS1

>  <INSTRUMENT TYPE>  (5790) 
EI-B

>  <INSTRUMENT>  (5790) 
JEOL JMS-D-3000

>  <ION MODE>  (5790) 
P

>  <INCHIKEY>  (5790) 
WECLUYCAWLJMKM-UHFFFAOYSA-N

>  <FORMULA>  (5790) 
C11H19NSi

>  <EXACT MASS>  (5790) 
193.128676138

>  <MW>  (5790) 
193

>  <ID>  (5790) 
JP002505

>  <CONTRIBUTOR>  (5790) 
University of Tokyo Team, {Faculty of Engineering, University of Tokyo

>  <COMMENT>  (5790) 
SMILES=c(c1)ccc(c1)CNC[Si](C)(C)C
InChI=InChI=1S/C11H19NSi/c1-13(2,3)10-12-9-11-7-5-4-6-8-11/h4-8,12H,9-10H2,1-3H3
computed SMILES=C=1C=CC(=CC1)CNC[Si](C)(C)C
accession=JP002505
date=2016.01.19 (Created 2008.10.21, modified 2011.05.06)
author=MASS SPECTROSCOPY SOC. OF JAPAN (MSSJ)
license=CC BY-NC-SA
exact mass=193.12868
ionization energy=70 eV
ion type=[M]+*
computed spectral entropy=2.2605304355108977
computed normalized entropy=0.6646278300985234
SPLASH=splash10-0fdo-9500000000-cd4f4ade68f7d058f99a
submitter=submitter = University of Tokyo Team (Faculty of Engineering, University of Tokyo)
MoNA Rating=3.75

>  <NUM PEAKS>  (5790) 
30

>  <MASS SPECTRAL PEAKS>  (5790) 
43 3.19
45 7.89
59 6.62
60 1.11
63 1.54
65 8.58
72 1.27
73 56.87
74 4.46
75 2.81
86 1.54
89 2.07
90 1.42
91 99.99
92 7.73
100 12.16
101 1.54
102 73.16
103 7.23
104 2.96
118 2.81
119 1.15
120 14.51
121 2.69
133 1.11
149 1
178 3.81
179 1.03
190 1
193 0.03

$$$$

     RDKit          2D

 13 13  0  0  0  0  0  0  0  0999 V2000
    6.4962   -0.7508    0.0000 C   0  0  0  0  0  0  0  0  0  0  0  0
    5.1968   -3.0006    0.0000 C   0  0  0  0  0  0  0  0  0  0  0  0
    1.6346   -2.6491    0.0000 C   0  0  0  0  0  0  0  0  0  0  0  0
    3.5629   -2.6494    0.0000 C   0  0  0  0  0  0  0  0  0  0  0  0
   -1.3000    0.7500    0.0000 C   0  0  0  0  0  0  0  0  0  0  0  0
    0.0000    1.5000    0.0000 C   0  0  0  0  0  0  0  0  0  0  0  0
   -1.3000   -0.7500    0.0000 C   0  0  0  0  0  0  0  0  0  0  0  0
    1.3000    0.7500    0.0000 C   0  0  0  0  0  0  0  0  0  0  0  0
    0.0000   -1.5000    0.0000 C   0  0  0  0  0  0  0  0  0  0  0  0
    3.8981   -0.7504    0.0000 C   0  0  0  0  0  0  0  0  0  0  0  0
    1.3000   -0.7500    0.0000 C   0  0  0  0  0  0  0  0  0  0  0  0
    5.1970   -1.5006    0.0000 N   0  0  0  0  0  0  0  0  0  0  0  0
    2.5989   -1.5002    0.0000 Si  0  0  0  0  0  4  0  0  0  0  0  0
  6  5  2  0
  7  5  1  0
  8  6  1  0
  9  7  2  0
 11  8  2  0
 11  9  1  0
 12  1  1  0
 12  2  1  0
 12 10  1  0
 13  3  1  0
 13  4  1  0
 13 10  1  0
 13 11  1  0
M  END
>  <NAME>  (5791) 
DIMETHYL(PHENYLDIMETHYLSILYLMETHYL)AMINE

>  <SYNONYMS>  (5791) 


>  <SPECTRUM TYPE>  (5791) 
MS1

>  <INSTRUMENT TYPE>  (5791) 
EI-B

>  <INSTRUMENT>  (5791) 
JEOL JMS-D-3000

>  <ION MODE>  (5791) 
P

>  <INCHIKEY>  (5791) 
YWEUYNRHLCXDKJ-UHFFFAOYSA-N

>  <FORMULA>  (5791) 
C11H19NSi

>  <EXACT MASS>  (5791) 
193.128676138

>  <MW>  (5791) 
193

>  <ID>  (5791) 
JP002504

>  <CONTRIBUTOR>  (5791) 
University of Tokyo Team, {Faculty of Engineering, University of Tokyo

>  <COMMENT>  (5791) 
SMILES=CN(C)C[Si](C)(C)c(c1)cccc1
InChI=InChI=1S/C11H19NSi/c1-12(2)10-13(3,4)11-8-6-5-7-9-11/h5-9H,10H2,1-4H3
computed SMILES=C=1C=CC(=CC1)[Si](C)(C)CN(C)C
accession=JP002504
date=2016.01.19 (Created 2008.10.21, modified 2011.05.06)
author=MASS SPECTROSCOPY SOC. OF JAPAN (MSSJ)
license=CC BY-NC-SA
exact mass=193.12868
ionization energy=70 eV
ion type=[M]+*
computed spectral entropy=1.1185824231600878
computed normalized entropy=0.42385681076627585
SPLASH=splash10-0a4i-9100000000-6b05eaa8897a9b6feb65
submitter=submitter = University of Tokyo Team (Faculty of Engineering, University of Tokyo)
MoNA Rating=3.75

>  <NUM PEAKS>  (5791) 
14

>  <MASS SPECTRAL PEAKS>  (5791) 
42 2.99
43 2.57
53 1.14
57 2.44
58 99.99
59 3.78
78 1.1
105 1.89
107 1.3
121 1.41
135 5.86
137 1.21
178 1.47
193 3.8

$$$$

     RDKit          2D

 13 13  0  0  0  0  0  0  0  0999 V2000
   -5.5207    3.1321    0.0000 C   0  0  0  0  0  0  0  0  0  0  0  0
   -4.2216    5.3821    0.0000 C   0  0  0  0  0  0  0  0  0  0  0  0
    3.5726    0.8821    0.0000 C   0  0  0  0  0  0  0  0  0  0  0  0
    3.5731    2.3829    0.0000 C   0  0  0  0  0  0  0  0  0  0  0  0
    2.2731    0.1313    0.0000 C   0  0  0  0  0  0  0  0  0  0  0  0
    2.2740    3.1329    0.0000 C   0  0  0  0  0  0  0  0  0  0  0  0
    0.9740    0.8813    0.0000 C   0  0  0  0  0  0  0  0  0  0  0  0
   -0.3245    3.1321    0.0000 C   0  0  0  0  0  0  0  0  0  0  0  0
   -1.6236    2.3821    0.0000 C   0  0  0  0  0  0  0  0  0  0  0  0
    0.9745    2.3821    0.0000 C   0  0  0  0  0  0  0  0  0  0  0  0
   -2.9226    3.1321    0.0000 C   0  0  0  0  0  0  0  0  0  0  0  0
   -4.2216    2.3821    0.0000 S   0  0  0  0  0  0  0  0  0  0  0  0
   -2.9226    4.6321    0.0000 S   0  0  0  0  0  0  0  0  0  0  0  0
  4  3  2  0
  5  3  1  0
  6  4  1  0
  7  5  2  0
  9  8  1  0
 10  6  2  0
 10  7  1  0
 10  8  1  0
 11  9  1  0
 12  1  1  0
 12 11  1  0
 13  2  1  0
 13 11  1  0
M  END
>  <NAME>  (5792) 
3-PHENYL-1,1-BIS(METHYLTHIO)PROPANE

>  <SYNONYMS>  (5792) 


>  <SPECTRUM TYPE>  (5792) 
MS1

>  <INSTRUMENT TYPE>  (5792) 
EI-B

>  <INSTRUMENT>  (5792) 
JEOL JMS-D-3000

>  <ION MODE>  (5792) 
P

>  <INCHIKEY>  (5792) 
DOUCNIUISDRCHR-UHFFFAOYSA-N

>  <FORMULA>  (5792) 
C11H16S2

>  <EXACT MASS>  (5792) 
212.069342512

>  <MW>  (5792) 
212

>  <ID>  (5792) 
JP002503

>  <CONTRIBUTOR>  (5792) 
University of Tokyo Team, {Faculty of Engineering, University of Tokyo

>  <COMMENT>  (5792) 
SMILES=CSC(SC)CCc(c1)cccc1
InChI=InChI=1S/C11H16S2/c1-12-11(13-2)9-8-10-6-4-3-5-7-10/h3-7,11H,8-9H2,1-2H3
computed SMILES=S(C)C(SC)CCC=1C=CC=CC1
accession=JP002503
date=2016.01.19 (Created 2008.10.21, modified 2011.05.06)
author=MASS SPECTROSCOPY SOC. OF JAPAN (MSSJ)
license=CC BY-NC-SA
exact mass=212.06934
ionization energy=70 eV
ion type=[M]+*
computed spectral entropy=2.021364147568255
computed normalized entropy=0.7134528544448884
SPLASH=splash10-014i-1900000000-557fd946a4b6a22b992a
submitter=submitter = University of Tokyo Team (Faculty of Engineering, University of Tokyo)
MoNA Rating=3.75

>  <NUM PEAKS>  (5792) 
17

>  <MASS SPECTRAL PEAKS>  (5792) 
47 2.32
48 8.04
61 2.04
91 11.67
92 1.39
115 4.71
116 6.55
117 99.99
118 10.28
149 3.3
164 40.29
165 33.49
166 5.46
167 1.53
212 17.65
213 2.3
214 1.68

$$$$

     RDKit          2D

 12 12  0  0  0  0  0  0  0  0999 V2000
    5.5772   -0.0083    0.0000 C   0  0  0  0  0  0  0  0  0  0  0  0
    6.1259    2.0408    0.0000 C   0  0  0  0  0  0  0  0  0  0  0  0
    4.0768    2.5895    0.0000 C   0  0  0  0  0  0  0  0  0  0  0  0
   -1.6700   -0.9600    0.0000 C   0  0  0  0  0  0  0  0  0  0  0  0
   -0.3700   -1.7100    0.0000 C   0  0  0  0  0  0  0  0  0  0  0  0
   -1.6700    0.5400    0.0000 C   0  0  0  0  0  0  0  0  0  0  0  0
    0.9300   -0.9600    0.0000 C   0  0  0  0  0  0  0  0  0  0  0  0
   -0.3700    1.2900    0.0000 C   0  0  0  0  0  0  0  0  0  0  0  0
    3.5281    0.5404    0.0000 C   0  0  0  0  0  0  0  0  0  0  0  0
    0.9300    0.5400    0.0000 C   0  0  0  0  0  0  0  0  0  0  0  0
    2.2289    1.2902    0.0000 S   0  0  0  0  0  0  0  0  0  0  0  0
    4.8270    1.2906    0.0000 Si  0  0  0  0  0  4  0  0  0  0  0  0
  5  4  2  0
  6  4  1  0
  7  5  1  0
  8  6  2  0
 10  7  2  0
 10  8  1  0
 11  9  1  0
 11 10  1  0
 12  1  1  0
 12  2  1  0
 12  3  1  0
 12  9  1  0
M  END
>  <NAME>  (5793) 
PHENYLTHIOMETHYLTRIMETHYLSILANE

>  <SYNONYMS>  (5793) 


>  <SPECTRUM TYPE>  (5793) 
MS1

>  <INSTRUMENT TYPE>  (5793) 
EI-B

>  <INSTRUMENT>  (5793) 
JEOL JMS-D-3000

>  <ION MODE>  (5793) 
P

>  <INCHIKEY>  (5793) 
UOQDIMYVQSHALM-UHFFFAOYSA-N

>  <FORMULA>  (5793) 
C10H16SSi

>  <EXACT MASS>  (5793) 
196.074198042

>  <MW>  (5793) 
196

>  <ID>  (5793) 
JP002502

>  <CONTRIBUTOR>  (5793) 
University of Tokyo Team, {Faculty of Engineering, University of Tokyo

>  <COMMENT>  (5793) 
SMILES=c(c1)ccc(c1)SC[Si](C)(C)C
InChI=InChI=1S/C10H16SSi/c1-12(2,3)9-11-10-7-5-4-6-8-10/h4-8H,9H2,1-3H3
computed SMILES=S(C=1C=CC=CC1)C[Si](C)(C)C
accession=JP002502
date=2016.01.19 (Created 2008.10.21, modified 2011.05.06)
author=MASS SPECTROSCOPY SOC. OF JAPAN (MSSJ)
license=CC BY-NC-SA
exact mass=196.0742
ionization energy=70 eV
ion type=[M]+*
computed spectral entropy=2.470056331531466
computed normalized entropy=0.7412679275803492
SPLASH=splash10-00di-9500000000-4f9046e93221a702fbb3
submitter=submitter = University of Tokyo Team (Faculty of Engineering, University of Tokyo)
MoNA Rating=3.75

>  <NUM PEAKS>  (5793) 
28

>  <MASS SPECTRAL PEAKS>  (5793) 
43 4.62
44 3.31
45 8.13
51 3.79
58 1.03
59 4.58
65 2.51
72 4.44
73 99.99
74 9.03
75 5
77 5.58
91 11.24
105 4.34
109 1.75
135 8.72
136 1.27
137 1.62
151 2.48
165 12.41
166 1.86
167 1.58
181 26.55
182 4.24
183 2.34
196 25.48
197 4.65
198 2.41

$$$$

     RDKit          2D

 16 15  0  0  0  0  0  0  0  0999 V2000
   -8.4437    5.6250    0.0000 C   0  0  0  0  0  0  0  0  0  0  0  0
    3.2476    4.8750    0.0000 C   0  0  0  0  0  0  0  0  0  0  0  0
   -7.1447    4.8750    0.0000 C   0  0  0  0  0  0  0  0  0  0  0  0
    1.9486    5.6250    0.0000 C   0  0  0  0  0  0  0  0  0  0  0  0
   -3.2476    7.1250    0.0000 C   0  0  0  0  0  0  0  0  0  0  0  0
   -1.9486    3.3750    0.0000 C   0  0  0  0  0  0  0  0  0  0  0  0
   -3.2476    5.6250    0.0000 C   0  0  0  0  0  0  0  0  0  0  0  0
   -1.9486    4.8750    0.0000 C   0  0  0  0  0  0  0  0  0  0  0  0
   -4.5466    4.8750    0.0000 C   0  0  0  0  0  0  0  0  0  0  0  0
   -0.6495    5.6250    0.0000 C   0  0  0  0  0  0  0  0  0  0  0  0
   -4.5466    7.8750    0.0000 O   0  0  0  0  0  0  0  0  0  0  0  0
   -0.6495    2.6250    0.0000 O   0  0  0  0  0  0  0  0  0  0  0  0
   -4.5466    3.3750    0.0000 O   0  0  0  0  0  0  0  0  0  0  0  0
   -0.6495    7.1250    0.0000 O   0  0  0  0  0  0  0  0  0  0  0  0
   -5.8457    5.6250    0.0000 O   0  0  0  0  0  0  0  0  0  0  0  0
    0.6495    4.8750    0.0000 O   0  0  0  0  0  0  0  0  0  0  0  0
  3  1  1  0
  4  2  1  0
  7  5  1  0
  8  6  1  0
  8  7  1  0
  9  7  1  0
 10  8  1  0
 11  5  2  0
 12  6  2  0
 13  9  2  0
 14 10  2  0
 15  3  1  0
 15  9  1  0
 16  4  1  0
 16 10  1  0
M  END
>  <NAME>  (5794) 
DIETHYL 2,3-DIFORMYLSUCCINATE

>  <SYNONYMS>  (5794) 


>  <SPECTRUM TYPE>  (5794) 
MS1

>  <INSTRUMENT TYPE>  (5794) 
EI-B

>  <INSTRUMENT>  (5794) 
JEOL JMS-D-3000

>  <ION MODE>  (5794) 
P

>  <INCHIKEY>  (5794) 
AEISKPJPXBJHSV-UHFFFAOYSA-N

>  <FORMULA>  (5794) 
C10H14O6

>  <EXACT MASS>  (5794) 
230.07903816799998

>  <MW>  (5794) 
230

>  <ID>  (5794) 
JP002501

>  <CONTRIBUTOR>  (5794) 
University of Tokyo Team, {Faculty of Engineering, University of Tokyo

>  <COMMENT>  (5794) 
SMILES=CCOC(=O)C(C=O)C(C=O)C(=O)OCC
InChI=InChI=1S/C10H14O6/c1-3-15-9(13)7(5-11)8(6-12)10(14)16-4-2/h5-8H,3-4H2,1-2H3
computed SMILES=O=CC(C(=O)OCC)C(C=O)C(=O)OCC
accession=JP002501
date=2016.01.19 (Created 2008.10.21, modified 2011.05.06)
author=MASS SPECTROSCOPY SOC. OF JAPAN (MSSJ)
license=CC BY-NC-SA
exact mass=230.07904
ionization energy=70 eV
ion type=[M]+*
computed spectral entropy=2.628575098705659
computed normalized entropy=0.8383287984879046
SPLASH=splash10-0f89-4900000000-ddabbad8ee59a08e04cf
submitter=submitter = University of Tokyo Team (Faculty of Engineering, University of Tokyo)
MoNA Rating=3.75

>  <NUM PEAKS>  (5794) 
23

>  <MASS SPECTRAL PEAKS>  (5794) 
55 19.37
56 5.42
57 4.76
75 6.8
83 99.99
84 7.46
85 4.59
100 58.62
103 10.69
110 8.34
115 21.88
128 8.1
129 53.03
130 4.48
143 9.95
156 6.67
157 45.2
158 5.48
171 4.88
184 12.91
185 25.3
216 5.23
230 17.38

$$$$

     RDKit          2D

 12 12  0  0  0  0  0  0  0  0999 V2000
    5.2044    2.7915    0.0000 C   0  0  0  0  0  0  0  0  0  0  0  0
    2.4322    0.2764    0.0000 C   0  0  0  0  0  0  0  0  0  0  0  0
    4.1892    1.0711    0.0000 C   0  0  0  0  0  0  0  0  0  0  0  0
    3.7117    2.9394    0.0000 C   0  0  0  0  0  0  0  0  0  0  0  0
   -1.0100    0.6500    0.0000 C   0  0  0  0  0  0  0  0  0  0  0  0
   -1.4900   -0.7700    0.0000 C   0  0  0  0  0  0  0  0  0  0  0  0
    0.9500   -0.7700    0.0000 C   0  0  0  0  0  0  0  0  0  0  0  0
    0.4700    0.6500    0.0000 C   0  0  0  0  0  0  0  0  0  0  0  0
    1.3445    1.8687    0.0000 C   0  0  0  0  0  0  0  0  0  0  0  0
    2.8372    1.7207    0.0000 C   0  0  0  0  0  0  0  0  0  0  0  0
    0.7263    3.2354    0.0000 O   0  0  0  0  0  0  0  0  0  0  0  0
   -0.2600   -1.6500    0.0000 O   0  0  0  0  0  0  0  0  0  0  0  0
  4  1  2  0
  6  5  2  0
  8  5  1  0
  8  7  2  0
  9  8  1  0
 10  2  1  0
 10  3  1  0
 10  4  1  0
 10  9  1  0
 11  9  2  0
 12  6  1  0
 12  7  1  0
M  END
>  <NAME>  (5795) 
3-FURYL 1,1-DIMETHYL-2-PROPENYL KETONE

>  <SYNONYMS>  (5795) 


>  <SPECTRUM TYPE>  (5795) 
MS1

>  <INSTRUMENT TYPE>  (5795) 
EI-B

>  <INSTRUMENT>  (5795) 
JEOL JMS-D-3000

>  <ION MODE>  (5795) 
P

>  <INCHIKEY>  (5795) 
CJCMABCNODTCIC-UHFFFAOYSA-N

>  <FORMULA>  (5795) 
C10H12O2

>  <EXACT MASS>  (5795) 
164.083729624

>  <MW>  (5795) 
164

>  <ID>  (5795) 
JP002500

>  <CONTRIBUTOR>  (5795) 
University of Tokyo Team, {Faculty of Engineering, University of Tokyo

>  <COMMENT>  (5795) 
SMILES=C=CC(C)(C)C(=O)c(c1)coc1
InChI=InChI=1S/C10H12O2/c1-4-10(2,3)9(11)8-5-6-12-7-8/h4-7H,1H2,2-3H3
computed SMILES=O=C(C1=COC=C1)C(C=C)(C)C
accession=JP002500
date=2016.01.19 (Created 2008.10.21, modified 2011.05.06)
author=MASS SPECTROSCOPY SOC. OF JAPAN (MSSJ)
license=CC BY-NC-SA
exact mass=164.08373
ionization energy=70 eV
ion type=[M]+*
computed spectral entropy=0.9074214838781319
computed normalized entropy=0.43637749159569517
SPLASH=splash10-0002-9000000000-b04ea3a29322e164cf8f
submitter=submitter = University of Tokyo Team (Faculty of Engineering, University of Tokyo)
MoNA Rating=3.75

>  <NUM PEAKS>  (5795) 
8

>  <MASS SPECTRAL PEAKS>  (5795) 
32 3.66
41 3.33
69 3.41
95 99.99
96 5.84
135 1.25
164 9.51
165 1.14

$$$$

     RDKit          2D

 14 13  0  0  0  0  0  0  0  0999 V2000
   -8.4437    5.6250    0.0000 C   0  0  0  0  0  0  0  0  0  0  0  0
    3.2476    4.8750    0.0000 C   0  0  0  0  0  0  0  0  0  0  0  0
   -7.1447    4.8750    0.0000 C   0  0  0  0  0  0  0  0  0  0  0  0
    1.9486    5.6250    0.0000 C   0  0  0  0  0  0  0  0  0  0  0  0
   -3.2476    5.6250    0.0000 C   0  0  0  0  0  0  0  0  0  0  0  0
   -1.9486    3.3750    0.0000 C   0  0  0  0  0  0  0  0  0  0  0  0
   -1.9486    4.8750    0.0000 C   0  0  0  0  0  0  0  0  0  0  0  0
   -4.5466    4.8750    0.0000 C   0  0  0  0  0  0  0  0  0  0  0  0
   -0.6495    5.6250    0.0000 C   0  0  0  0  0  0  0  0  0  0  0  0
   -0.6495    2.6250    0.0000 O   0  0  0  0  0  0  0  0  0  0  0  0
   -4.5466    3.3750    0.0000 O   0  0  0  0  0  0  0  0  0  0  0  0
   -0.6495    7.1250    0.0000 O   0  0  0  0  0  0  0  0  0  0  0  0
   -5.8457    5.6250    0.0000 O   0  0  0  0  0  0  0  0  0  0  0  0
    0.6495    4.8750    0.0000 O   0  0  0  0  0  0  0  0  0  0  0  0
  3  1  1  0
  4  2  1  0
  7  5  1  0
  7  6  1  0
  8  5  1  0
  9  7  1  0
 10  6  2  0
 11  8  2  0
 12  9  2  0
 13  3  1  0
 13  8  1  0
 14  4  1  0
 14  9  1  0
M  END
>  <NAME>  (5796) 
DIETHYL 2-FORMYLSUCCINATE

>  <SYNONYMS>  (5796) 


>  <SPECTRUM TYPE>  (5796) 
MS1

>  <INSTRUMENT TYPE>  (5796) 
EI-B

>  <INSTRUMENT>  (5796) 
JEOL JMS-D-3000

>  <ION MODE>  (5796) 
P

>  <INCHIKEY>  (5796) 
LHHLYOVYBZWIGM-UHFFFAOYSA-N

>  <FORMULA>  (5796) 
C9H14O5

>  <EXACT MASS>  (5796) 
202.084123548

>  <MW>  (5796) 
202

>  <ID>  (5796) 
JP002499

>  <CONTRIBUTOR>  (5796) 
University of Tokyo Team, {Faculty of Engineering, University of Tokyo

>  <COMMENT>  (5796) 
SMILES=CCOC(=O)CC(C=O)C(=O)OCC
InChI=InChI=1S/C9H14O5/c1-3-13-8(11)5-7(6-10)9(12)14-4-2/h6-7H,3-5H2,1-2H3
computed SMILES=O=CC(C(=O)OCC)CC(=O)OCC
accession=JP002499
date=2016.01.19 (Created 2008.10.21, modified 2011.05.06)
author=MASS SPECTROSCOPY SOC. OF JAPAN (MSSJ)
license=CC BY-NC-SA
exact mass=202.08412
ionization energy=70 eV
ion type=[M]+*
computed spectral entropy=2.829823301772757
computed normalized entropy=0.8492345812304204
SPLASH=splash10-056r-9700000000-45c03da07d87852f3342
submitter=submitter = University of Tokyo Team (Faculty of Engineering, University of Tokyo)
MoNA Rating=3.75

>  <NUM PEAKS>  (5796) 
28

>  <MASS SPECTRAL PEAKS>  (5796) 
54 5.52
55 84.69
56 14.67
57 14.52
60 6.03
71 2.8
72 8.13
73 49.2
74 3.21
82 4.36
83 74.5
84 17.37
85 5.59
88 18.31
98 14.68
99 62.96
100 65.68
101 4.56
110 21.07
111 13.77
128 99.99
129 63.8
130 5.45
156 18.49
157 35.55
158 2.93
174 10.01
202 5.7

$$$$

     RDKit          2D

 11 11  0  0  0  0  0  0  0  0999 V2000
    6.1262    0.5408    0.0000 C   0  0  0  0  0  0  0  0  0  0  0  0
   -1.6700   -0.9600    0.0000 C   0  0  0  0  0  0  0  0  0  0  0  0
   -1.6700    0.5400    0.0000 C   0  0  0  0  0  0  0  0  0  0  0  0
   -0.3700   -1.7100    0.0000 C   0  0  0  0  0  0  0  0  0  0  0  0
   -0.3700    1.2900    0.0000 C   0  0  0  0  0  0  0  0  0  0  0  0
    0.9300   -0.9600    0.0000 C   0  0  0  0  0  0  0  0  0  0  0  0
    3.5281    0.5404    0.0000 C   0  0  0  0  0  0  0  0  0  0  0  0
    4.8270    1.2906    0.0000 C   0  0  0  0  0  0  0  0  0  0  0  0
    0.9300    0.5400    0.0000 C   0  0  0  0  0  0  0  0  0  0  0  0
    4.8268    2.7906    0.0000 O   0  0  0  0  0  0  0  0  0  0  0  0
    2.2289    1.2902    0.0000 O   0  0  0  0  0  0  0  0  0  0  0  0
  3  2  2  0
  4  2  1  0
  5  3  1  0
  6  4  2  0
  8  1  1  0
  8  7  1  0
  9  5  2  0
  9  6  1  0
 10  8  2  0
 11  7  1  0
 11  9  1  0
M  END
>  <NAME>  (5797) 
1-PHENOXY-2-PROPANONE

>  <SYNONYMS>  (5797) 


>  <SPECTRUM TYPE>  (5797) 
MS1

>  <INSTRUMENT TYPE>  (5797) 
EI-B

>  <INSTRUMENT>  (5797) 
JEOL JMS-D-3000

>  <ION MODE>  (5797) 
P

>  <INCHIKEY>  (5797) 
QWAVNXZAQASOML-UHFFFAOYSA-N

>  <FORMULA>  (5797) 
C9H10O2

>  <EXACT MASS>  (5797) 
150.06807956

>  <MW>  (5797) 
150

>  <ID>  (5797) 
JP002498

>  <CONTRIBUTOR>  (5797) 
University of Tokyo Team, {Faculty of Engineering, University of Tokyo

>  <COMMENT>  (5797) 
SMILES=CC(=O)COc(c1)cccc1
InChI=InChI=1S/C9H10O2/c1-8(10)7-11-9-5-3-2-4-6-9/h2-6H,7H2,1H3
computed SMILES=O=C(C)COC=1C=CC=CC1
accession=JP002498
date=2016.01.19 (Created 2008.10.21, modified 2011.05.06)
author=MASS SPECTROSCOPY SOC. OF JAPAN (MSSJ)
license=CC BY-NC-SA
exact mass=150.06808
ionization energy=70 eV
ion type=[M]+*
computed spectral entropy=2.3371176013723685
computed normalized entropy=0.6940636401945582
SPLASH=splash10-0kdl-9600000000-517bfa6642e21a45d585
submitter=submitter = University of Tokyo Team (Faculty of Engineering, University of Tokyo)
MoNA Rating=3.75

>  <NUM PEAKS>  (5797) 
29

>  <MASS SPECTRAL PEAKS>  (5797) 
42 1.97
43 73.22
44 1.61
50 5.93
51 22.69
52 2.26
54 1.49
57 1.13
62 1
63 3.39
64 1.57
65 7.18
66 1.41
74 1.61
75 1.25
76 2.26
77 99.99
78 9.28
79 22.29
80 1.53
93 1.21
94 3.71
107 73.78
108 15.02
109 1.29
131 3.59
132 3.02
150 75.76
151 7.79

$$$$

     RDKit          2D

 10 10  0  0  0  0  0  0  0  0999 V2000
    5.2044    2.7915    0.0000 C   0  0  0  0  0  0  0  0  0  0  0  0
    3.7117    2.9394    0.0000 C   0  0  0  0  0  0  0  0  0  0  0  0
    2.8372    1.7207    0.0000 C   0  0  0  0  0  0  0  0  0  0  0  0
   -1.0100    0.6500    0.0000 C   0  0  0  0  0  0  0  0  0  0  0  0
   -1.4900   -0.7700    0.0000 C   0  0  0  0  0  0  0  0  0  0  0  0
    0.9500   -0.7700    0.0000 C   0  0  0  0  0  0  0  0  0  0  0  0
    0.4700    0.6500    0.0000 C   0  0  0  0  0  0  0  0  0  0  0  0
    1.3445    1.8687    0.0000 C   0  0  0  0  0  0  0  0  0  0  0  0
    0.7263    3.2354    0.0000 O   0  0  0  0  0  0  0  0  0  0  0  0
   -0.2600   -1.6500    0.0000 O   0  0  0  0  0  0  0  0  0  0  0  0
  2  1  2  0
  3  2  1  0
  5  4  2  0
  7  4  1  0
  7  6  2  0
  8  3  1  0
  8  7  1  0
  9  8  1  0
 10  5  1  0
 10  6  1  0
M  END
>  <NAME>  (5798) 
1-(3-FURYL)-3-BUTENE-1-OL

>  <SYNONYMS>  (5798) 


>  <SPECTRUM TYPE>  (5798) 
MS1

>  <INSTRUMENT TYPE>  (5798) 
EI-B

>  <INSTRUMENT>  (5798) 
JEOL JMS-D-3000

>  <ION MODE>  (5798) 
P

>  <INCHIKEY>  (5798) 
YFOVGIPVIZYMST-UHFFFAOYSA-N

>  <FORMULA>  (5798) 
C8H10O2

>  <EXACT MASS>  (5798) 
138.06807956

>  <MW>  (5798) 
138

>  <ID>  (5798) 
JP002497

>  <CONTRIBUTOR>  (5798) 
University of Tokyo Team, {Faculty of Engineering, University of Tokyo

>  <COMMENT>  (5798) 
SMILES=C=CCC(O)c(c([H])1)c([H])c([H])o1
InChI=InChI=1S/C8H10O2/c1-2-3-8(9)7-4-5-10-6-7/h2,4-6,8-9H,1,3H2
computed SMILES=OC(C1=COC=C1)CC=C
accession=JP002497
date=2016.01.19 (Created 2008.10.21, modified 2011.05.06)
author=MASS SPECTROSCOPY SOC. OF JAPAN (MSSJ)
license=CC BY-NC-SA
exact mass=138.06808
ionization energy=70 eV
ion type=[M]+*
computed spectral entropy=2.544168611872631
computed normalized entropy=0.7340918879068006
SPLASH=splash10-0007-9200000000-95dc47c412c92548ff3b
submitter=submitter = University of Tokyo Team (Faculty of Engineering, University of Tokyo)
MoNA Rating=3.75

>  <NUM PEAKS>  (5798) 
32

>  <MASS SPECTRAL PEAKS>  (5798) 
42 27.3
45 2.5
50 3.67
51 9.08
52 2.37
53 2.67
55 1.78
57 3.66
60 1.86
62 2.4
63 7.19
64 1.89
65 19.15
66 2.95
67 1.33
69 23.26
77 3.91
78 1.95
79 1.54
89 2.92
90 2.4
91 88.76
92 10.1
95 11.65
96 4.55
97 99.99
98 5.29
105 1.59
119 6.73
120 57.04
121 5.8
138 6.38

$$$$

     RDKit          2D

 10 10  0  0  0  0  0  0  0  0999 V2000
    5.8815   -0.8855    0.0000 C   0  0  0  0  0  0  0  0  0  0  0  0
    4.7678    0.1193    0.0000 C   0  0  0  0  0  0  0  0  0  0  0  0
   -1.1700   -1.2200    0.0000 C   0  0  0  0  0  0  0  0  0  0  0  0
    3.3407   -0.3428    0.0000 C   0  0  0  0  0  0  0  0  0  0  0  0
    0.3300   -1.2200    0.0000 C   0  0  0  0  0  0  0  0  0  0  0  0
   -1.6300    0.2000    0.0000 C   0  0  0  0  0  0  0  0  0  0  0  0
    2.2271    0.6621    0.0000 C   0  0  0  0  0  0  0  0  0  0  0  0
    0.8000    0.2000    0.0000 C   0  0  0  0  0  0  0  0  0  0  0  0
    2.5404    2.1290    0.0000 O   0  0  0  0  0  0  0  0  0  0  0  0
   -0.4200    1.0800    0.0000 O   0  0  0  0  0  0  0  0  0  0  0  0
  2  1  2  0
  4  2  1  0
  5  3  1  0
  6  3  2  0
  7  4  1  0
  8  5  2  0
  8  7  1  0
  9  7  1  0
 10  6  1  0
 10  8  1  0
M  END
>  <NAME>  (5799) 
1-(2-FURYL)-3-BUTENE-1-OL

>  <SYNONYMS>  (5799) 


>  <SPECTRUM TYPE>  (5799) 
MS1

>  <INSTRUMENT TYPE>  (5799) 
EI-B

>  <INSTRUMENT>  (5799) 
JEOL JMS-D-300

>  <ION MODE>  (5799) 
P

>  <INCHIKEY>  (5799) 
LCSKPZJIQPMRAV-UHFFFAOYSA-N

>  <FORMULA>  (5799) 
C8H10O2

>  <EXACT MASS>  (5799) 
138.06807956

>  <MW>  (5799) 
138

>  <ID>  (5799) 
JP002496

>  <CONTRIBUTOR>  (5799) 
University of Tokyo Team, {Faculty of Engineering, University of Tokyo

>  <COMMENT>  (5799) 
SMILES=C=CCC(O)c(o1)c([H])c([H])c([H])1
InChI=InChI=1S/C8H10O2/c1-2-4-7(9)8-5-3-6-10-8/h2-3,5-7,9H,1,4H2
computed SMILES=OC(C=1OC=CC1)CC=C
accession=JP002496
date=2016.01.19 (Created 2008.10.21, modified 2011.05.06)
author=MASS SPECTROSCOPY SOC. OF JAPAN (MSSJ)
license=CC BY-NC-SA
exact mass=138.06808
ionization energy=70 eV
ion type=[M]+*
computed spectral entropy=1.5974555326194162
computed normalized entropy=0.6428633980096206
SPLASH=splash10-000t-9000000000-6411f35db2ce4a6ab8dd
submitter=submitter = University of Tokyo Team (Faculty of Engineering, University of Tokyo)
MoNA Rating=3.75

>  <NUM PEAKS>  (5799) 
12

>  <MASS SPECTRAL PEAKS>  (5799) 
28 37.03
32 56.75
40 1.98
41 5.18
43 1.03
69 2.89
91 5.31
92 1.05
97 99.99
98 5.62
120 7.75
138 3.97

$$$$

     RDKit          2D

 10 10  0  0  0  0  0  0  0  0999 V2000
   -1.6700   -0.9602    0.0000 C   0  0  0  0  0  0  0  0  0  0  0  0
    6.1262    0.5406    0.0000 C   0  0  0  0  0  0  0  0  0  0  0  0
    4.8262    1.2906    0.0000 C   0  0  0  0  0  0  0  0  0  0  0  0
    6.1262   -0.9594    0.0000 C   0  0  0  0  0  0  0  0  0  0  0  0
    3.5262    0.5406    0.0000 C   0  0  0  0  0  0  0  0  0  0  0  0
    4.8262   -1.7094    0.0000 C   0  0  0  0  0  0  0  0  0  0  0  0
    0.9281   -0.9598    0.0000 C   0  0  0  0  0  0  0  0  0  0  0  0
    3.5262   -0.9594    0.0000 C   0  0  0  0  0  0  0  0  0  0  0  0
   -0.3708   -1.7100    0.0000 O   0  0  0  0  0  0  0  0  0  0  0  0
    2.2272   -1.7096    0.0000 S   0  0  0  0  0  0  0  0  0  0  0  0
  3  2  2  0
  4  2  1  0
  5  3  1  0
  6  4  2  0
  8  5  2  0
  8  6  1  0
  9  1  1  0
  9  7  1  0
 10  7  1  0
 10  8  1  0
M  END
>  <NAME>  (5800) 
PHENYLTHIOMETHYL METHYL ETHER

>  <SYNONYMS>  (5800) 


>  <SPECTRUM TYPE>  (5800) 
MS1

>  <INSTRUMENT TYPE>  (5800) 
EI-B

>  <INSTRUMENT>  (5800) 
JEOL JMS-D-3000

>  <ION MODE>  (5800) 
P

>  <INCHIKEY>  (5800) 
QPXQVNXSQCRWEV-UHFFFAOYSA-N

>  <FORMULA>  (5800) 
C8H10OS

>  <EXACT MASS>  (5800) 
154.04523594

>  <MW>  (5800) 
154

>  <ID>  (5800) 
JP002495

>  <CONTRIBUTOR>  (5800) 
University of Tokyo Team, {Faculty of Engineering, University of Tokyo

>  <COMMENT>  (5800) 
SMILES=COCSc(c1)cccc1
InChI=InChI=1S/C8H10OS/c1-9-7-10-8-5-3-2-4-6-8/h2-6H,7H2,1H3
computed SMILES=O(C)CSC=1C=CC=CC1
ion type=[M]+*
accession=JP002495
date=2016.01.19 (Created 2008.10.21, modified 2011.05.06)
author=MASS SPECTROSCOPY SOC. OF JAPAN (MSSJ)
license=CC BY-NC-SA
exact mass=154.04524
ionization energy=70 eV
computed spectral entropy=1.7128698405906349
computed normalized entropy=0.5926122949102552
SPLASH=splash10-0002-9300000000-115698aa26c48f982aef
submitter=submitter = University of Tokyo Team (Faculty of Engineering, University of Tokyo)
MoNA Rating=3.75

>  <NUM PEAKS>  (5800) 
18

>  <MASS SPECTRAL PEAKS>  (5800) 
45 99.99
46 2.54
50 1.99
51 4.66
65 6.23
66 1.24
69 2.74
77 3.73
78 2.55
79 1.02
91 2.06
109 6.84
110 1.81
123 4.34
124 4.98
154 25.38
155 2.45
156 1.28

$$$$

     RDKit          2D

 10 10  0  0  0  0  0  0  0  0999 V2000
    5.8815   -0.8855    0.0000 C   0  0  0  0  0  0  0  0  0  0  0  0
    4.7678    0.1193    0.0000 C   0  0  0  0  0  0  0  0  0  0  0  0
   -1.1700   -1.2200    0.0000 C   0  0  0  0  0  0  0  0  0  0  0  0
    3.3407   -0.3428    0.0000 C   0  0  0  0  0  0  0  0  0  0  0  0
    0.3300   -1.2200    0.0000 C   0  0  0  0  0  0  0  0  0  0  0  0
   -1.6300    0.2000    0.0000 C   0  0  0  0  0  0  0  0  0  0  0  0
    2.2271    0.6621    0.0000 C   0  0  0  0  0  0  0  0  0  0  0  0
    0.8000    0.2000    0.0000 C   0  0  0  0  0  0  0  0  0  0  0  0
    2.5404    2.1290    0.0000 O   0  0  0  0  0  0  0  0  0  0  0  0
   -0.4200    1.0800    0.0000 O   0  0  0  0  0  0  0  0  0  0  0  0
  2  1  2  0
  4  2  1  0
  5  3  1  0
  6  3  2  0
  7  4  1  0
  8  5  2  0
  8  7  1  0
  9  7  2  0
 10  6  1  0
 10  8  1  0
M  END
>  <NAME>  (5801) 
ALLYL 2-FURYL KETONE

>  <SYNONYMS>  (5801) 


>  <SPECTRUM TYPE>  (5801) 
MS1

>  <INSTRUMENT TYPE>  (5801) 
EI-B

>  <INSTRUMENT>  (5801) 
JEOL JMS-D-3000

>  <ION MODE>  (5801) 
P

>  <INCHIKEY>  (5801) 
INHOSYWZGAASRA-UHFFFAOYSA-N

>  <FORMULA>  (5801) 
C8H8O2

>  <EXACT MASS>  (5801) 
136.052429496

>  <MW>  (5801) 
136

>  <ID>  (5801) 
JP002494

>  <CONTRIBUTOR>  (5801) 
University of Tokyo Team, {Faculty of Engineering, University of Tokyo

>  <COMMENT>  (5801) 
SMILES=C=CCC(=O)c(c1)occ1
InChI=InChI=1S/C8H8O2/c1-2-4-7(9)8-5-3-6-10-8/h2-3,5-6H,1,4H2
computed SMILES=O=C(C=1OC=CC1)CC=C
accession=JP002494
date=2016.01.19 (Created 2008.10.21, modified 2011.05.06)
author=MASS SPECTROSCOPY SOC. OF JAPAN (MSSJ)
license=CC BY-NC-SA
exact mass=136.05243
ionization energy=70 eV
ion type=[M]+*
computed spectral entropy=1.3888074013029208
computed normalized entropy=0.6678751835365375
SPLASH=splash10-0002-9600000000-ebb79890e29f9014d58b
submitter=submitter = University of Tokyo Team (Faculty of Engineering, University of Tokyo)
MoNA Rating=3.75

>  <NUM PEAKS>  (5801) 
8

>  <MASS SPECTRAL PEAKS>  (5801) 
69 3.23
79 3.57
95 99.99
96 5.51
107 7.01
108 27.75
136 37.39
137 3.79

$$$$

     RDKit          2D

 12 11  0  0  0  0  0  0  0  0999 V2000
    3.2476    4.8750    0.0000 C   0  0  0  0  0  0  0  0  0  0  0  0
   -8.4437    5.6250    0.0000 C   0  0  0  0  0  0  0  0  0  0  0  0
    1.9486    5.6250    0.0000 C   0  0  0  0  0  0  0  0  0  0  0  0
   -7.1447    4.8750    0.0000 C   0  0  0  0  0  0  0  0  0  0  0  0
   -1.9486    4.8750    0.0000 C   0  0  0  0  0  0  0  0  0  0  0  0
   -3.2476    5.6250    0.0000 C   0  0  0  0  0  0  0  0  0  0  0  0
   -0.6495    5.6250    0.0000 C   0  0  0  0  0  0  0  0  0  0  0  0
   -4.5466    4.8750    0.0000 C   0  0  0  0  0  0  0  0  0  0  0  0
   -0.6495    7.1250    0.0000 O   0  0  0  0  0  0  0  0  0  0  0  0
   -4.5466    3.3750    0.0000 O   0  0  0  0  0  0  0  0  0  0  0  0
    0.6495    4.8750    0.0000 O   0  0  0  0  0  0  0  0  0  0  0  0
   -5.8457    5.6250    0.0000 O   0  0  0  0  0  0  0  0  0  0  0  0
  3  1  1  0
  4  2  1  0
  6  5  1  0
  7  5  1  0
  8  6  1  0
  9  7  2  0
 10  8  2  0
 11  3  1  0
 11  7  1  0
 12  4  1  0
 12  8  1  0
M  END
>  <NAME>  (5802) 
DIETHYL SUCCINATE

>  <SYNONYMS>  (5802) 


>  <SPECTRUM TYPE>  (5802) 
MS1

>  <INSTRUMENT TYPE>  (5802) 
EI-B

>  <INSTRUMENT>  (5802) 
JEOL JMS-D-3000

>  <ION MODE>  (5802) 
P

>  <INCHIKEY>  (5802) 
DKMROQRQHGEIOW-UHFFFAOYSA-N

>  <FORMULA>  (5802) 
C8H14O4

>  <EXACT MASS>  (5802) 
174.089208928

>  <MW>  (5802) 
174

>  <ID>  (5802) 
JP002492

>  <CONTRIBUTOR>  (5802) 
University of Tokyo Team, {Faculty of Engineering, University of Tokyo

>  <COMMENT>  (5802) 
SMILES=CCOC(=O)CCC(=O)OCC
InChI=InChI=1S/C8H14O4/c1-3-11-7(9)5-6-8(10)12-4-2/h3-6H2,1-2H3
computed SMILES=O=C(OCC)CCC(=O)OCC
accession=JP002492
date=2016.01.19 (Created 2008.10.21, modified 2011.05.06)
author=MASS SPECTROSCOPY SOC. OF JAPAN (MSSJ)
license=CC BY-NC-SA
exact mass=174.08921
ionization energy=70 eV
ion type=[M]+*
computed spectral entropy=2.1091548521715824
computed normalized entropy=0.7607168114237092
SPLASH=splash10-004i-6900000000-91b4bd8842569eab361f
submitter=submitter = University of Tokyo Team (Faculty of Engineering, University of Tokyo)
MoNA Rating=3.75

>  <NUM PEAKS>  (5802) 
16

>  <MASS SPECTRAL PEAKS>  (5802) 
55 28.17
56 17.61
57 5.92
60 1.12
73 24.85
74 16.93
75 3.35
98 1.37
99 8.42
101 17.78
103 1.46
128 23.58
129 99.99
130 7.17
147 2.96
174 2.55

$$$$

     RDKit          2D

 19 20  0  0  0  0  0  0  0  0999 V2000
    2.6990   -3.6400    0.0000 C   0  0  0  0  0  0  0  0  0  0  0  0
    0.1010   -3.6400    0.0000 C   0  0  0  0  0  0  0  0  0  0  0  0
    1.4000    3.1100    0.0000 C   0  0  0  0  0  0  0  0  0  0  0  0
   -4.3483    0.6587    0.0000 C   0  0  0  0  0  0  0  0  0  0  0  0
   -6.3972    0.1094    0.0000 C   0  0  0  0  0  0  0  0  0  0  0  0
   -5.8479   -1.9396    0.0000 C   0  0  0  0  0  0  0  0  0  0  0  0
    2.7000    0.8600    0.0000 C   0  0  0  0  0  0  0  0  0  0  0  0
   -2.5000    0.8600    0.0000 C   0  0  0  0  0  0  0  0  0  0  0  0
    2.7000   -0.6400    0.0000 C   0  0  0  0  0  0  0  0  0  0  0  0
   -1.2000    1.6100    0.0000 C   0  0  0  0  0  0  0  0  0  0  0  0
   -1.2000   -1.3900    0.0000 C   0  0  0  0  0  0  0  0  0  0  0  0
   -3.7989   -1.3902    0.0000 C   0  0  0  0  0  0  0  0  0  0  0  0
    1.4000   -2.8900    0.0000 C   0  0  0  0  0  0  0  0  0  0  0  0
    1.4000    1.6100    0.0000 C   0  0  0  0  0  0  0  0  0  0  0  0
   -2.5000   -0.6400    0.0000 C   0  0  0  0  0  0  0  0  0  0  0  0
    1.4000   -1.3900    0.0000 C   0  0  0  0  0  0  0  0  0  0  0  0
    0.1000    0.8600    0.0000 C   0  0  0  0  0  0  0  0  0  0  0  0
    0.1000   -0.6400    0.0000 C   0  0  0  0  0  0  0  0  0  0  0  0
   -5.0981   -0.6404    0.0000 Si  0  0  0  0  0  4  0  0  0  0  0  0
  9  7  1  0
 10  8  1  0
 13  1  1  0
 13  2  1  0
 14  3  2  0
 14  7  1  0
 15  8  2  0
 15 11  1  0
 15 12  1  0
 16  9  1  0
 16 13  1  0
 17 10  1  0
 17 14  1  0
 18 11  1  0
 18 16  1  0
 18 17  1  0
 19  4  1  0
 19  5  1  0
 19  6  1  0
 19 12  1  0
M  END
>  <NAME>  (5803) 
2-TRIMETHYLSILYLMETHYL-5-METHYLENE-8-ISOPROPYL-1,4,4A,5,6,7,8,8A-OCTAHYDRONAPHTHALENE

>  <SYNONYMS>  (5803) 


>  <SPECTRUM TYPE>  (5803) 
MS1

>  <INSTRUMENT TYPE>  (5803) 
EI-B

>  <INSTRUMENT>  (5803) 
JEOL JMS-D-3000

>  <ION MODE>  (5803) 
P

>  <INCHIKEY>  (5803) 
MDIMFWRFBWZBBF-UHFFFAOYSA-N

>  <FORMULA>  (5803) 
C18H32Si

>  <EXACT MASS>  (5803) 
276.227327554

>  <MW>  (5803) 
276

>  <ID>  (5803) 
JP002491

>  <CONTRIBUTOR>  (5803) 
University of Tokyo Team, {Faculty of Engineering, University of Tokyo

>  <COMMENT>  (5803) 
SMILES=CC(C)C(C1)C(C2)C(CC=C(C[Si](C)(C)C)2)C(=C)C1
InChI=InChI=1S/C18H32Si/c1-13(2)16-9-7-14(3)17-10-8-15(11-18(16)17)12-19(4,5)6/h8,13,16-18H,3,7,9-12H2,1-2,4-6H3
computed SMILES=C=C1CCC(C(C)C)C2CC(=CCC12)C[Si](C)(C)C
accession=JP002491
date=2016.01.19 (Created 2008.10.21, modified 2011.05.06)
author=MASS SPECTROSCOPY SOC. OF JAPAN (MSSJ)
license=CC BY-NC-SA
exact mass=276.22733
ionization energy=70 eV
ion type=[M]+*
computed spectral entropy=2.439052792625148
computed normalized entropy=0.7243357625144997
SPLASH=splash10-00di-9230000000-c186e138e0d767a5262f
submitter=submitter = University of Tokyo Team (Faculty of Engineering, University of Tokyo)
MoNA Rating=3.75

>  <NUM PEAKS>  (5803) 
29

>  <MASS SPECTRAL PEAKS>  (5803) 
42 3.04
45 3.85
59 4.92
69 1.99
73 99.99
74 8.81
75 4.55
77 1.73
79 2.28
91 3.99
92 3.36
93 5.61
105 2.76
117 1.95
119 2.95
133 1.82
135 3.79
136 5.11
140 2.02
149 2.27
159 8.29
161 2.16
162 2.36
202 4.45
209 7.74
233 6.84
261 4.11
276 26.37
277 6.76

$$$$

     RDKit          2D

 19 20  0  0  0  0  0  0  0  0999 V2000
    2.6990    3.8600    0.0000 C   0  0  0  0  0  0  0  0  0  0  0  0
    0.1010    3.8600    0.0000 C   0  0  0  0  0  0  0  0  0  0  0  0
    1.4000   -2.8900    0.0000 C   0  0  0  0  0  0  0  0  0  0  0  0
   -4.3483    0.6587    0.0000 C   0  0  0  0  0  0  0  0  0  0  0  0
   -6.3972    0.1094    0.0000 C   0  0  0  0  0  0  0  0  0  0  0  0
   -5.8479   -1.9396    0.0000 C   0  0  0  0  0  0  0  0  0  0  0  0
    2.7000   -0.6400    0.0000 C   0  0  0  0  0  0  0  0  0  0  0  0
   -2.5000    0.8600    0.0000 C   0  0  0  0  0  0  0  0  0  0  0  0
    2.7000    0.8600    0.0000 C   0  0  0  0  0  0  0  0  0  0  0  0
   -1.2000    1.6100    0.0000 C   0  0  0  0  0  0  0  0  0  0  0  0
   -1.2000   -1.3900    0.0000 C   0  0  0  0  0  0  0  0  0  0  0  0
   -3.7989   -1.3902    0.0000 C   0  0  0  0  0  0  0  0  0  0  0  0
    1.4000    3.1100    0.0000 C   0  0  0  0  0  0  0  0  0  0  0  0
    1.4000   -1.3900    0.0000 C   0  0  0  0  0  0  0  0  0  0  0  0
   -2.5000   -0.6400    0.0000 C   0  0  0  0  0  0  0  0  0  0  0  0
    1.4000    1.6100    0.0000 C   0  0  0  0  0  0  0  0  0  0  0  0
    0.1000    0.8600    0.0000 C   0  0  0  0  0  0  0  0  0  0  0  0
    0.1000   -0.6400    0.0000 C   0  0  0  0  0  0  0  0  0  0  0  0
   -5.0981   -0.6404    0.0000 Si  0  0  0  0  0  4  0  0  0  0  0  0
  9  7  1  0
 10  8  1  0
 13  1  1  0
 13  2  1  0
 14  3  2  0
 14  7  1  0
 15  8  2  0
 15 11  1  0
 15 12  1  0
 16  9  1  0
 16 13  1  0
 17 10  1  0
 17 16  1  0
 18 11  1  0
 18 14  1  0
 18 17  1  0
 19  4  1  0
 19  5  1  0
 19  6  1  0
 19 12  1  0
M  END
>  <NAME>  (5804) 
2-TRIMETHYLSILYLMETHYL-5-ISOPROPYL-8-METHYLENE-1,4,4A,5,6,7,8,8A-OCTAHYDRONAPHTHALENE

>  <SYNONYMS>  (5804) 


>  <SPECTRUM TYPE>  (5804) 
MS1

>  <INSTRUMENT TYPE>  (5804) 
EI-B

>  <INSTRUMENT>  (5804) 
JEOL JMS-D-3000

>  <ION MODE>  (5804) 
P

>  <INCHIKEY>  (5804) 
UJRQRJJLPSKUKJ-UHFFFAOYSA-N

>  <FORMULA>  (5804) 
C18H32Si

>  <EXACT MASS>  (5804) 
276.227327554

>  <MW>  (5804) 
276

>  <ID>  (5804) 
JP002490

>  <CONTRIBUTOR>  (5804) 
University of Tokyo Team, {Faculty of Engineering, University of Tokyo

>  <COMMENT>  (5804) 
SMILES=CC(C)C(C1)C(C2)C(CC(=C2)C[Si](C)(C)C)C(=C)C1
InChI=InChI=1S/C18H32Si/c1-13(2)16-9-7-14(3)18-11-15(8-10-17(16)18)12-19(4,5)6/h8,13,16-18H,3,7,9-12H2,1-2,4-6H3
computed SMILES=C=C1CCC(C(C)C)C2CC=C(CC12)C[Si](C)(C)C
accession=JP002490
date=2016.01.19 (Created 2008.10.21, modified 2011.05.06)
author=MASS SPECTROSCOPY SOC. OF JAPAN (MSSJ)
license=CC BY-NC-SA
exact mass=276.22733
ionization energy=70 eV
ion type=[M]+*
computed spectral entropy=2.3337707765421762
computed normalized entropy=0.7080965689213548
SPLASH=splash10-00di-9210000000-7275a0753f3cdfd195d0
submitter=submitter = University of Tokyo Team (Faculty of Engineering, University of Tokyo)
MoNA Rating=3.75

>  <NUM PEAKS>  (5804) 
27

>  <MASS SPECTRAL PEAKS>  (5804) 
42 3.31
45 4.64
59 4.98
69 2.02
73 99.99
74 8.75
75 4.95
77 1.72
79 1.79
91 3.39
92 5.63
93 7.52
105 2.71
117 2.51
119 1.79
133 1.98
136 12.04
148 3.88
159 6.5
166 2.23
177 1.93
206 4.44
233 7.48
234 2
261 2.67
276 11.07
277 2.85

$$$$

     RDKit          2D

 19 19  0  0  0  0  0  0  0  0999 V2000
    9.0942    0.7512    0.0000 C   0  0  0  0  0  0  0  0  0  0  0  0
    7.7948    3.0010    0.0000 C   0  0  0  0  0  0  0  0  0  0  0  0
   -3.1483    0.5487    0.0000 C   0  0  0  0  0  0  0  0  0  0  0  0
   -5.1972   -0.0006    0.0000 C   0  0  0  0  0  0  0  0  0  0  0  0
   -4.6479   -2.0496    0.0000 C   0  0  0  0  0  0  0  0  0  0  0  0
    5.1970    1.5006    0.0000 C   0  0  0  0  0  0  0  0  0  0  0  0
    6.4962    0.7508    0.0000 C   0  0  0  0  0  0  0  0  0  0  0  0
    3.8981    0.7504    0.0000 C   0  0  0  0  0  0  0  0  0  0  0  0
   -1.3000    0.7500    0.0000 C   0  0  0  0  0  0  0  0  0  0  0  0
   -0.0000   -1.5000    0.0000 C   0  0  0  0  0  0  0  0  0  0  0  0
    0.0000    1.5000    0.0000 C   0  0  0  0  0  0  0  0  0  0  0  0
    1.3000   -0.7500    0.0000 C   0  0  0  0  0  0  0  0  0  0  0  0
   -2.5989   -1.5002    0.0000 C   0  0  0  0  0  0  0  0  0  0  0  0
    7.7951    1.5010    0.0000 C   0  0  0  0  0  0  0  0  0  0  0  0
   -1.3000   -0.7500    0.0000 C   0  0  0  0  0  0  0  0  0  0  0  0
    1.3000    0.7500    0.0000 C   0  0  0  0  0  0  0  0  0  0  0  0
    2.5989    1.5002    0.0000 C   0  0  0  0  0  0  0  0  0  0  0  0
    2.5987    3.0002    0.0000 O   0  0  0  0  0  0  0  0  0  0  0  0
   -3.8981   -0.7504    0.0000 Si  0  0  0  0  0  4  0  0  0  0  0  0
  7  6  1  0
  8  6  1  0
 11  9  1  0
 12 10  1  0
 14  1  1  0
 14  2  1  0
 14  7  2  0
 15  9  2  0
 15 10  1  0
 15 13  1  0
 16 11  1  0
 16 12  1  0
 17  8  1  0
 17 16  1  0
 18 17  2  0
 19  3  1  0
 19  4  1  0
 19  5  1  0
 19 13  1  0
M  END
>  <NAME>  (5805) 
4-TRIMETHYLSILYLMETHYL-3-CYCLOHEXENYL 4-METHYL-3-PENTENYL KETONE

>  <SYNONYMS>  (5805) 


>  <SPECTRUM TYPE>  (5805) 
MS1

>  <INSTRUMENT TYPE>  (5805) 
EI-B

>  <INSTRUMENT>  (5805) 
JEOL JMS-D-3000

>  <ION MODE>  (5805) 
P

>  <INCHIKEY>  (5805) 
LBAPEYHQZIRTRZ-UHFFFAOYSA-N

>  <FORMULA>  (5805) 
C17H30OSi

>  <EXACT MASS>  (5805) 
278.20659211

>  <MW>  (5805) 
278

>  <ID>  (5805) 
JP002489

>  <CONTRIBUTOR>  (5805) 
University of Tokyo Team, {Faculty of Engineering, University of Tokyo

>  <COMMENT>  (5805) 
SMILES=CC(C)=CCCC(=O)C(C1)CC=C(C1)C[Si](C)(C)C
InChI=InChI=1S/C17H30OSi/c1-14(2)7-6-8-17(18)16-11-9-15(10-12-16)13-19(3,4)5/h7,9,16H,6,8,10-13H2,1-5H3
computed SMILES=O=C(CCC=C(C)C)C1CC=C(CC1)C[Si](C)(C)C
accession=JP002489
date=2016.01.19 (Created 2008.10.21, modified 2011.05.06)
author=MASS SPECTROSCOPY SOC. OF JAPAN (MSSJ)
license=CC BY-NC-SA
exact mass=278.20659
ionization energy=70 eV
ion type=[M]+*
computed spectral entropy=2.6741403554751293
computed normalized entropy=0.7941507044499475
SPLASH=splash10-00xr-9110000000-65009541625ec0bb72df
submitter=submitter = University of Tokyo Team (Faculty of Engineering, University of Tokyo)
MoNA Rating=3.75

>  <NUM PEAKS>  (5805) 
29

>  <MASS SPECTRAL PEAKS>  (5805) 
42 20.93
43 3.42
45 9.34
55 5.38
59 5.46
69 56.25
70 3.63
73 99.99
74 8.72
75 11.67
79 4.49
83 2.73
91 5.69
93 3.99
94 4.11
95 3.34
117 3.61
119 11.56
121 3.99
132 3.95
143 4.8
151 2.41
155 7.38
183 12.31
195 4.69
211 21.17
212 4.06
278 13.26
279 3.32

$$$$

     RDKit          2D

 19 20  0  0  0  0  0  0  0  0999 V2000
   -2.5990    3.7500    0.0000 C   0  0  0  0  0  0  0  0  0  0  0  0
   -0.0010    3.7500    0.0000 C   0  0  0  0  0  0  0  0  0  0  0  0
    4.4483   -0.5487    0.0000 C   0  0  0  0  0  0  0  0  0  0  0  0
    6.4972    0.0006    0.0000 C   0  0  0  0  0  0  0  0  0  0  0  0
    5.9479    2.0496    0.0000 C   0  0  0  0  0  0  0  0  0  0  0  0
    2.6000   -0.7500    0.0000 C   0  0  0  0  0  0  0  0  0  0  0  0
    1.3000   -1.5000    0.0000 C   0  0  0  0  0  0  0  0  0  0  0  0
   -2.6000    0.7500    0.0000 C   0  0  0  0  0  0  0  0  0  0  0  0
   -2.6000   -0.7500    0.0000 C   0  0  0  0  0  0  0  0  0  0  0  0
    1.3000    1.5000    0.0000 C   0  0  0  0  0  0  0  0  0  0  0  0
    3.8989    1.5002    0.0000 C   0  0  0  0  0  0  0  0  0  0  0  0
   -1.3000    3.0000    0.0000 C   0  0  0  0  0  0  0  0  0  0  0  0
    2.6000    0.7500    0.0000 C   0  0  0  0  0  0  0  0  0  0  0  0
   -1.3000    1.5000    0.0000 C   0  0  0  0  0  0  0  0  0  0  0  0
    0.0000   -0.7500    0.0000 C   0  0  0  0  0  0  0  0  0  0  0  0
    0.0000    0.7500    0.0000 C   0  0  0  0  0  0  0  0  0  0  0  0
   -1.3000   -1.5000    0.0000 C   0  0  0  0  0  0  0  0  0  0  0  0
   -1.3000   -3.0000    0.0000 O   0  0  0  0  0  0  0  0  0  0  0  0
    5.1981    0.7504    0.0000 Si  0  0  0  0  0  4  0  0  0  0  0  0
  7  6  1  0
  9  8  1  0
 12  1  1  0
 12  2  1  0
 13  6  2  0
 13 10  1  0
 13 11  1  0
 14  8  1  0
 14 12  1  0
 15  7  1  0
 16 10  1  0
 16 14  1  0
 16 15  1  0
 17  9  1  0
 17 15  1  0
 18 17  2  0
 19  3  1  0
 19  4  1  0
 19  5  1  0
 19 11  1  0
M  END
>  <NAME>  (5806) 
4-ISOPROPYL-6-TRIMETHYLSILYLMETHYL-3,4,4A,5,8,8A-HEXAHYDRO-1(2H)-NAPHTHALENONE

>  <SYNONYMS>  (5806) 


>  <SPECTRUM TYPE>  (5806) 
MS1

>  <INSTRUMENT TYPE>  (5806) 
EI-B

>  <INSTRUMENT>  (5806) 
JEOL JMS-D-3000

>  <ION MODE>  (5806) 
P

>  <INCHIKEY>  (5806) 
ROXCJFJOMADILD-UHFFFAOYSA-N

>  <FORMULA>  (5806) 
C17H30OSi

>  <EXACT MASS>  (5806) 
278.20659211

>  <MW>  (5806) 
278

>  <ID>  (5806) 
JP002488

>  <CONTRIBUTOR>  (5806) 
University of Tokyo Team, {Faculty of Engineering, University of Tokyo

>  <COMMENT>  (5806) 
SMILES=CC(C)C(C1)C(C2)C(CC=C(C[Si](C)(C)C)2)C(=O)C1
InChI=InChI=1S/C17H30OSi/c1-12(2)14-8-9-17(18)15-7-6-13(10-16(14)15)11-19(3,4)5/h6,12,14-16H,7-11H2,1-5H3
computed SMILES=O=C1CCC(C(C)C)C2CC(=CCC12)C[Si](C)(C)C
accession=JP002488
date=2016.01.19 (Created 2008.10.21, modified 2011.05.06)
author=MASS SPECTROSCOPY SOC. OF JAPAN (MSSJ)
license=CC BY-NC-SA
exact mass=278.20659
ionization energy=70 eV
ion type=[M]+*
computed spectral entropy=3.4297900755636044
computed normalized entropy=0.8859757129375296
SPLASH=splash10-00di-9510000000-a6a8769d2b0a60f63247
submitter=submitter = University of Tokyo Team (Faculty of Engineering, University of Tokyo)
MoNA Rating=3.75

>  <NUM PEAKS>  (5806) 
48

>  <MASS SPECTRAL PEAKS>  (5806) 
42 12.75
43 8.43
45 12.06
55 9.95
59 9.41
67 5.1
69 14.66
73 99.99
74 9.36
75 27.66
77 7.25
79 8.53
80 3.33
81 6.13
83 8.92
91 13.87
92 4.9
93 6.47
95 3.97
104 18.04
105 9.75
106 6.27
107 3.43
115 3.48
117 9.71
118 8.23
119 5.88
121 7.06
129 5.14
131 7.45
132 3.58
139 6.91
143 4.16
145 23.58
146 3.72
155 7.89
159 6.96
160 4.9
163 3.33
188 12.89
189 3.58
191 3.62
193 3.38
206 5.73
211 27.7
212 5.49
278 13.24
279 3.18

$$$$

     RDKit          2D

 19 20  0  0  0  0  0  0  0  0999 V2000
    2.5990    3.7500    0.0000 C   0  0  0  0  0  0  0  0  0  0  0  0
    0.0010    3.7500    0.0000 C   0  0  0  0  0  0  0  0  0  0  0  0
   -4.4483    0.5487    0.0000 C   0  0  0  0  0  0  0  0  0  0  0  0
   -6.4972   -0.0006    0.0000 C   0  0  0  0  0  0  0  0  0  0  0  0
   -5.9479   -2.0496    0.0000 C   0  0  0  0  0  0  0  0  0  0  0  0
   -2.6000    0.7500    0.0000 C   0  0  0  0  0  0  0  0  0  0  0  0
   -1.3000    1.5000    0.0000 C   0  0  0  0  0  0  0  0  0  0  0  0
    2.6000    0.7500    0.0000 C   0  0  0  0  0  0  0  0  0  0  0  0
    2.6000   -0.7500    0.0000 C   0  0  0  0  0  0  0  0  0  0  0  0
   -1.3000   -1.5000    0.0000 C   0  0  0  0  0  0  0  0  0  0  0  0
   -3.8989   -1.5002    0.0000 C   0  0  0  0  0  0  0  0  0  0  0  0
    1.3000    3.0000    0.0000 C   0  0  0  0  0  0  0  0  0  0  0  0
   -2.6000   -0.7500    0.0000 C   0  0  0  0  0  0  0  0  0  0  0  0
    1.3000    1.5000    0.0000 C   0  0  0  0  0  0  0  0  0  0  0  0
    0.0000    0.7500    0.0000 C   0  0  0  0  0  0  0  0  0  0  0  0
    0.0000   -0.7500    0.0000 C   0  0  0  0  0  0  0  0  0  0  0  0
    1.3000   -1.5000    0.0000 C   0  0  0  0  0  0  0  0  0  0  0  0
    1.3000   -3.0000    0.0000 O   0  0  0  0  0  0  0  0  0  0  0  0
   -5.1981   -0.7504    0.0000 Si  0  0  0  0  0  4  0  0  0  0  0  0
  7  6  1  0
  9  8  1  0
 12  1  1  0
 12  2  1  0
 13  6  2  0
 13 10  1  0
 13 11  1  0
 14  8  1  0
 14 12  1  0
 15  7  1  0
 15 14  1  0
 16 10  1  0
 16 15  1  0
 17  9  1  0
 17 16  1  0
 18 17  2  0
 19  3  1  0
 19  4  1  0
 19  5  1  0
 19 11  1  0
M  END
>  <NAME>  (5807) 
4-ISOPROPYL-7-TRIMETHYLSILYLMETHYL-3,4,4A,5,8,8A-HEXAHYDRO-1(2H)-NAPHTHALENONE

>  <SYNONYMS>  (5807) 


>  <SPECTRUM TYPE>  (5807) 
MS1

>  <INSTRUMENT TYPE>  (5807) 
EI-B

>  <INSTRUMENT>  (5807) 
JEOL JMS-D-3000

>  <ION MODE>  (5807) 
P

>  <INCHIKEY>  (5807) 
HLPZCWLAJKNQBB-UHFFFAOYSA-N

>  <FORMULA>  (5807) 
C17H30OSi

>  <EXACT MASS>  (5807) 
278.20659211

>  <MW>  (5807) 
278

>  <ID>  (5807) 
JP002487

>  <CONTRIBUTOR>  (5807) 
University of Tokyo Team, {Faculty of Engineering, University of Tokyo

>  <COMMENT>  (5807) 
SMILES=CC(C)C(C1)C(C2)C(CC(=C2)C[Si](C)(C)C)C(=O)C1
InChI=InChI=1S/C17H30OSi/c1-12(2)14-8-9-17(18)16-10-13(6-7-15(14)16)11-19(3,4)5/h6,12,14-16H,7-11H2,1-5H3
computed SMILES=O=C1CCC(C(C)C)C2CC=C(CC12)C[Si](C)(C)C
accession=JP002487
date=2016.01.19 (Created 2008.10.21, modified 2011.05.06)
author=MASS SPECTROSCOPY SOC. OF JAPAN (MSSJ)
license=CC BY-NC-SA
exact mass=278.20659
ionization energy=70 eV
ion type=[M]+*
computed spectral entropy=2.8663574694912786
computed normalized entropy=0.8512342289518389
SPLASH=splash10-00di-9340000000-99cdd177bff7b4ebd745
submitter=submitter = University of Tokyo Team (Faculty of Engineering, University of Tokyo)
MoNA Rating=3.75

>  <NUM PEAKS>  (5807) 
29

>  <MASS SPECTRAL PEAKS>  (5807) 
41 9.39
43 4.07
45 10.18
55 5.99
59 6.02
69 9.49
73 99.99
74 8.8
75 16.38
79 3.94
91 8.27
95 4.16
104 4.14
105 4.31
117 10.42
118 5.4
119 4.52
129 7.73
145 15.09
155 17.52
191 6.72
193 6.48
208 4.73
211 33.67
212 6.28
235 10.52
263 9.61
278 27.57
279 6.77

$$$$

     RDKit          2D

 14 15  0  0  0  0  0  0  0  0999 V2000
    3.8971    1.0700    0.0000 C   0  0  0  0  0  0  0  0  0  0  0  0
   -5.1962    4.8200    0.0000 C   0  0  0  0  0  0  0  0  0  0  0  0
    3.8976    2.5708    0.0000 C   0  0  0  0  0  0  0  0  0  0  0  0
    2.5976    0.3192    0.0000 C   0  0  0  0  0  0  0  0  0  0  0  0
   -5.1966    3.3192    0.0000 C   0  0  0  0  0  0  0  0  0  0  0  0
   -3.8966    5.5708    0.0000 C   0  0  0  0  0  0  0  0  0  0  0  0
    2.5986    3.3208    0.0000 C   0  0  0  0  0  0  0  0  0  0  0  0
    1.2986    1.0692    0.0000 C   0  0  0  0  0  0  0  0  0  0  0  0
   -3.8976    2.5692    0.0000 C   0  0  0  0  0  0  0  0  0  0  0  0
   -2.5976    4.8208    0.0000 C   0  0  0  0  0  0  0  0  0  0  0  0
    0.0000    3.3200    0.0000 C   0  0  0  0  0  0  0  0  0  0  0  0
   -1.2990    2.5700    0.0000 C   0  0  0  0  0  0  0  0  0  0  0  0
    1.2990    2.5700    0.0000 C   0  0  0  0  0  0  0  0  0  0  0  0
   -2.5981    3.3200    0.0000 C   0  0  0  0  0  0  0  0  0  0  0  0
  3  1  2  0
  4  1  1  0
  5  2  2  0
  6  2  1  0
  7  3  1  0
  8  4  2  0
  9  5  1  0
 10  6  2  0
 11 12  2  0
 13  7  2  0
 13  8  1  0
 13 11  1  0
 14  9  2  0
 14 10  1  0
 14 12  1  0
M  END
>  <NAME>  (5808) 
TRANS-1,2-DIPHENYLETHENE

>  <SYNONYMS>  (5808) 
TRANS-STILBENE

>  <SPECTRUM TYPE>  (5808) 
MS1

>  <INSTRUMENT TYPE>  (5808) 
EI-B

>  <INSTRUMENT>  (5808) 
JEOL JMS-D-3000

>  <ION MODE>  (5808) 
P

>  <INCHIKEY>  (5808) 
PJANXHGTPQOBST-VAWYXSNFSA-N

>  <FORMULA>  (5808) 
C14H12

>  <EXACT MASS>  (5808) 
180.093900384

>  <MW>  (5808) 
180

>  <ID>  (5808) 
JP002486

>  <CONTRIBUTOR>  (5808) 
University of Tokyo Team, {Faculty of Engineering, University of Tokyo

>  <COMMENT>  (5808) 
SMILES=c(c2)ccc(c2)C=Cc(c1)cccc1
InChI=InChI=1S/C14H12/c1-3-7-13(8-4-1)11-12-14-9-5-2-6-10-14/h1-12H/b12-11+
computed SMILES=C=1C=CC(=CC1)C=CC=2C=CC=CC2
accession=JP002486
date=2016.01.19 (Created 2008.10.21, modified 2011.05.06)
author=MASS SPECTROSCOPY SOC. OF JAPAN (MSSJ)
license=CC BY-NC-SA
exact mass=180.0939
ionization energy=70 eV
ion type=[M]+*
computed spectral entropy=2.833820881091763
computed normalized entropy=0.7534352849952544
SPLASH=splash10-0059-2900000000-ee6d4e550d2588ad7b19
submitter=submitter = University of Tokyo Team (Faculty of Engineering, University of Tokyo)
MoNA Rating=3.75

>  <NUM PEAKS>  (5808) 
43

>  <MASS SPECTRAL PEAKS>  (5808) 
44 4.93
50 4.4
51 10.45
52 3.76
62 2.17
63 6.84
64 1.64
65 1.96
74 2.7
75 3.82
76 13.74
77 9.71
78 4.14
83 3.07
87 1.75
88 4.4
89 18.04
90 4.98
101 1.22
102 9.5
103 2.01
105 2.44
106 1.06
115 3.76
126 1.85
127 1.85
128 1.53
139 2.7
150 1.8
151 4.77
152 9.34
153 2.86
163 1.11
164 1.22
165 34.81
166 4.83
176 7.05
177 6.68
178 48.46
179 82.59
180 99.99
181 14.43
182 1.59

$$$$

     RDKit          2D

 15 16  0  0  0  0  0  0  0  0999 V2000
   -4.1583    0.5487    0.0000 C   0  0  0  0  0  0  0  0  0  0  0  0
   -6.2072   -0.0006    0.0000 C   0  0  0  0  0  0  0  0  0  0  0  0
   -5.6579   -2.0496    0.0000 C   0  0  0  0  0  0  0  0  0  0  0  0
   -2.3100    0.7500    0.0000 C   0  0  0  0  0  0  0  0  0  0  0  0
   -1.0100    1.5000    0.0000 C   0  0  0  0  0  0  0  0  0  0  0  0
    1.7200    1.2100    0.0000 C   0  0  0  0  0  0  0  0  0  0  0  0
    2.6000    0.0000    0.0000 C   0  0  0  0  0  0  0  0  0  0  0  0
   -1.0100   -1.5000    0.0000 C   0  0  0  0  0  0  0  0  0  0  0  0
   -3.6089   -1.5002    0.0000 C   0  0  0  0  0  0  0  0  0  0  0  0
   -2.3100   -0.7500    0.0000 C   0  0  0  0  0  0  0  0  0  0  0  0
    0.2900    0.7500    0.0000 C   0  0  0  0  0  0  0  0  0  0  0  0
    0.2900   -0.7500    0.0000 C   0  0  0  0  0  0  0  0  0  0  0  0
    1.7200   -1.2100    0.0000 C   0  0  0  0  0  0  0  0  0  0  0  0
    2.1853   -2.6360    0.0000 O   0  0  0  0  0  0  0  0  0  0  0  0
   -4.9081   -0.7504    0.0000 Si  0  0  0  0  0  4  0  0  0  0  0  0
  5  4  1  0
  7  6  1  0
 10  4  2  0
 10  8  1  0
 10  9  1  0
 11  5  1  0
 11  6  1  0
 12  8  1  0
 12 11  1  0
 13  7  1  0
 13 12  1  0
 14 13  2  0
 15  1  1  0
 15  2  1  0
 15  3  1  0
 15  9  1  0
M  END
>  <NAME>  (5809) 
6-TRIMETHYLSILYLMETHYL-2,3,3A,4,7,7A-HEXAHYDROINDEN-1-ONE

>  <SYNONYMS>  (5809) 


>  <SPECTRUM TYPE>  (5809) 
MS1

>  <INSTRUMENT TYPE>  (5809) 
EI-B

>  <INSTRUMENT>  (5809) 
JEOL JMS-D-3000

>  <ION MODE>  (5809) 
P

>  <INCHIKEY>  (5809) 
URLCUOXPPURWLW-UHFFFAOYSA-N

>  <FORMULA>  (5809) 
C13H22OSi

>  <EXACT MASS>  (5809) 
222.143991854

>  <MW>  (5809) 
222

>  <ID>  (5809) 
JP002485

>  <CONTRIBUTOR>  (5809) 
University of Tokyo Team, {Faculty of Engineering, University of Tokyo

>  <COMMENT>  (5809) 
SMILES=O=C(C2)C(C1)C(C2)CC=C(C[Si](C)(C)C)1
InChI=InChI=1S/C13H22OSi/c1-15(2,3)9-10-4-5-11-6-7-13(14)12(11)8-10/h4,11-12H,5-9H2,1-3H3
computed SMILES=O=C1CCC2CC=C(CC12)C[Si](C)(C)C
accession=JP002485
date=2016.01.19 (Created 2008.10.21, modified 2011.05.06)
author=MASS SPECTROSCOPY SOC. OF JAPAN (MSSJ)
license=CC BY-NC-SA
exact mass=222.14399
ionization energy=70 eV
ion type=[M]+*
computed spectral entropy=2.81651599865499
computed normalized entropy=0.911186449605355
SPLASH=splash10-00di-9860000000-01636aed43c5ae9d88f3
submitter=submitter = University of Tokyo Team (Faculty of Engineering, University of Tokyo)
MoNA Rating=3.75

>  <NUM PEAKS>  (5809) 
22

>  <MASS SPECTRAL PEAKS>  (5809) 
45 12.96
59 11.37
73 99.99
75 14.02
91 17.72
92 18.25
105 20.1
106 20.37
117 25.39
131 10.58
132 14.28
133 13.75
141 9.25
148 8.73
179 14.81
181 10.84
193 12.16
194 14.02
207 30.68
221 20.1
222 57.93
223 16.4

$$$$

     RDKit          2D

 15 16  0  0  0  0  0  0  0  0999 V2000
   -4.1583    0.5487    0.0000 C   0  0  0  0  0  0  0  0  0  0  0  0
   -6.2072   -0.0006    0.0000 C   0  0  0  0  0  0  0  0  0  0  0  0
   -5.6579   -2.0496    0.0000 C   0  0  0  0  0  0  0  0  0  0  0  0
   -2.3100    0.7500    0.0000 C   0  0  0  0  0  0  0  0  0  0  0  0
    1.7200   -1.2100    0.0000 C   0  0  0  0  0  0  0  0  0  0  0  0
   -1.0100    1.5000    0.0000 C   0  0  0  0  0  0  0  0  0  0  0  0
    2.6000    0.0000    0.0000 C   0  0  0  0  0  0  0  0  0  0  0  0
   -1.0100   -1.5000    0.0000 C   0  0  0  0  0  0  0  0  0  0  0  0
   -3.6089   -1.5002    0.0000 C   0  0  0  0  0  0  0  0  0  0  0  0
   -2.3100   -0.7500    0.0000 C   0  0  0  0  0  0  0  0  0  0  0  0
    0.2900   -0.7500    0.0000 C   0  0  0  0  0  0  0  0  0  0  0  0
    0.2900    0.7500    0.0000 C   0  0  0  0  0  0  0  0  0  0  0  0
    1.7200    1.2100    0.0000 C   0  0  0  0  0  0  0  0  0  0  0  0
    2.1853    2.6360    0.0000 O   0  0  0  0  0  0  0  0  0  0  0  0
   -4.9081   -0.7504    0.0000 Si  0  0  0  0  0  4  0  0  0  0  0  0
  6  4  1  0
  7  5  1  0
 10  4  2  0
 10  8  1  0
 10  9  1  0
 11  5  1  0
 11  8  1  0
 12  6  1  0
 12 11  1  0
 13  7  1  0
 13 12  1  0
 14 13  2  0
 15  1  1  0
 15  2  1  0
 15  3  1  0
 15  9  1  0
M  END
>  <NAME>  (5810) 
5-TRIMETHYLSILYLMETHYL-2,3,3A,4,7,7A-HEXAHYDROINDEN-1-ONE

>  <SYNONYMS>  (5810) 


>  <SPECTRUM TYPE>  (5810) 
MS1

>  <INSTRUMENT TYPE>  (5810) 
EI-B

>  <INSTRUMENT>  (5810) 
JEOL JMS-D-3000

>  <ION MODE>  (5810) 
P

>  <INCHIKEY>  (5810) 
HNVXPSNCOVLESZ-UHFFFAOYSA-N

>  <FORMULA>  (5810) 
C13H22OSi

>  <EXACT MASS>  (5810) 
222.14399185399998

>  <MW>  (5810) 
222

>  <ID>  (5810) 
JP002484

>  <CONTRIBUTOR>  (5810) 
University of Tokyo Team, {Faculty of Engineering, University of Tokyo

>  <COMMENT>  (5810) 
SMILES=O=C(C2)C(C1)C(C2)CC(=C1)C[Si](C)(C)C
InChI=InChI=1S/C13H22OSi/c1-15(2,3)9-10-4-6-12-11(8-10)5-7-13(12)14/h4,11-12H,5-9H2,1-3H3
computed SMILES=O=C1CCC2CC(=CCC12)C[Si](C)(C)C
accession=JP002484
date=2016.01.19 (Created 2008.10.21, modified 2011.05.06)
author=MASS SPECTROSCOPY SOC. OF JAPAN (MSSJ)
license=CC BY-NC-SA
exact mass=222.14399
ionization energy=70 eV
ion type=[M]+*
computed spectral entropy=2.6551053450977777
computed normalized entropy=0.7884977973878947
SPLASH=splash10-00di-9720000000-2c166704795a66f78402
submitter=submitter = University of Tokyo Team (Faculty of Engineering, University of Tokyo)
MoNA Rating=3.75

>  <NUM PEAKS>  (5810) 
29

>  <MASS SPECTRAL PEAKS>  (5810) 
43 3.23
45 10.06
59 6.15
73 99.99
74 9.41
75 13.75
77 3.14
79 2.62
91 8.26
92 2.15
105 2.61
106 3.46
117 6.58
131 3.7
132 6.32
154 7.55
155 18.18
156 2.85
166 9.81
167 52.74
168 9.28
169 2.84
181 5.47
193 2.46
207 12.3
208 2.56
221 2.37
222 25.62
223 4.85

$$$$

     RDKit          2D

 11 10  0  0  0  0  0  0  0  0999 V2000
   -5.3469    4.4130    0.0000 C   0  0  0  0  0  0  0  0  0  0  0  0
   -4.0478    2.1630    0.0000 C   0  0  0  0  0  0  0  0  0  0  0  0
   -1.4498    2.1630    0.0000 C   0  0  0  0  0  0  0  0  0  0  0  0
    0.3983    2.3639    0.0000 C   0  0  0  0  0  0  0  0  0  0  0  0
    2.4474    2.9130    0.0000 C   0  0  0  0  0  0  0  0  0  0  0  0
    1.8983    4.9620    0.0000 C   0  0  0  0  0  0  0  0  0  0  0  0
   -2.7488    4.4130    0.0000 C   0  0  0  0  0  0  0  0  0  0  0  0
   -4.0478    3.6630    0.0000 C   0  0  0  0  0  0  0  0  0  0  0  0
   -1.4498    3.6630    0.0000 C   0  0  0  0  0  0  0  0  0  0  0  0
   -0.1507    4.4130    0.0000 O   0  0  0  0  0  0  0  0  0  0  0  0
    1.1483    3.6630    0.0000 Si  0  0  0  0  0  4  0  0  0  0  0  0
  8  1  1  0
  8  2  1  0
  8  7  2  0
  9  3  2  0
  9  7  1  0
 10  9  1  0
 11  4  1  0
 11  5  1  0
 11  6  1  0
 11 10  1  0
M  END
>  <NAME>  (5811) 
2-TRIMETHYLSILOXY-4-METHYL-1,3-PENTADIENE

>  <SYNONYMS>  (5811) 


>  <SPECTRUM TYPE>  (5811) 
MS1

>  <INSTRUMENT TYPE>  (5811) 
EI-B

>  <INSTRUMENT>  (5811) 
JEOL JMS-D-3000

>  <ION MODE>  (5811) 
P

>  <INCHIKEY>  (5811) 
DKSBCCBPNYPGQP-UHFFFAOYSA-N

>  <FORMULA>  (5811) 
C9H18OSi

>  <EXACT MASS>  (5811) 
170.11269172599998

>  <MW>  (5811) 
170

>  <ID>  (5811) 
JP002483

>  <CONTRIBUTOR>  (5811) 
University of Tokyo Team, {Faculty of Engineering, University of Tokyo

>  <COMMENT>  (5811) 
SMILES=CC(C)=CC(=C)O[Si](C)(C)C
InChI=InChI=1S/C9H18OSi/c1-8(2)7-9(3)10-11(4,5)6/h7H,3H2,1-2,4-6H3
computed SMILES=O(C(=C)C=C(C)C)[Si](C)(C)C
accession=JP002483
date=2016.01.19 (Created 2008.10.21, modified 2011.05.06)
author=MASS SPECTROSCOPY SOC. OF JAPAN (MSSJ)
license=CC BY-NC-SA
exact mass=170.11269
ionization energy=70 eV
ion type=[M]+*
computed spectral entropy=2.569321193519148
computed normalized entropy=0.7630221172249866
SPLASH=splash10-05i0-9400000000-26c25441cc2c3f606f36
submitter=submitter = University of Tokyo Team (Faculty of Engineering, University of Tokyo)
MoNA Rating=3.75

>  <NUM PEAKS>  (5811) 
29

>  <MASS SPECTRAL PEAKS>  (5811) 
43 6.19
45 14.4
47 8.66
53 4.07
55 4.81
57 2.92
59 3.63
61 4.73
70 11.36
73 99.99
74 9.06
75 93.31
76 6.94
77 5.74
79 15.88
80 9.05
81 3.78
83 4.21
85 3.66
97 5.17
99 3
113 5.54
115 7.52
127 4.61
155 91.74
156 13.32
157 4.14
170 28.42
171 4.41

$$$$

     RDKit          2D

 10  9  0  0  0  0  0  0  0  0999 V2000
   -7.4695    3.9375    0.0000 C   0  0  0  0  0  0  0  0  0  0  0  0
    1.6238    3.1875    0.0000 C   0  0  0  0  0  0  0  0  0  0  0  0
    0.3248    5.4375    0.0000 C   0  0  0  0  0  0  0  0  0  0  0  0
   -6.1704    3.1875    0.0000 C   0  0  0  0  0  0  0  0  0  0  0  0
   -2.2733    3.9375    0.0000 C   0  0  0  0  0  0  0  0  0  0  0  0
   -0.9743    3.1875    0.0000 C   0  0  0  0  0  0  0  0  0  0  0  0
   -3.5724    3.1875    0.0000 C   0  0  0  0  0  0  0  0  0  0  0  0
    0.3248    3.9375    0.0000 C   0  0  0  0  0  0  0  0  0  0  0  0
   -4.8714    3.9375    0.0000 C   0  0  0  0  0  0  0  0  0  0  0  0
   -4.8714    5.4375    0.0000 O   0  0  0  0  0  0  0  0  0  0  0  0
  4  1  2  0
  6  5  1  0
  7  5  1  0
  8  2  1  0
  8  3  1  0
  8  6  2  0
  9  4  1  0
  9  7  1  0
 10  9  2  0
M  END
>  <NAME>  (5812) 
7-METHYL-1,6-OCTADIEN-3-ONE

>  <SYNONYMS>  (5812) 


>  <SPECTRUM TYPE>  (5812) 
MS1

>  <INSTRUMENT TYPE>  (5812) 
EI-B

>  <INSTRUMENT>  (5812) 
JEOL JMS-D-3000

>  <ION MODE>  (5812) 
P

>  <INCHIKEY>  (5812) 
FVAZRTUEFHNRTR-UHFFFAOYSA-N

>  <FORMULA>  (5812) 
C9H14O

>  <EXACT MASS>  (5812) 
138.104465068

>  <MW>  (5812) 
138

>  <ID>  (5812) 
JP002482

>  <CONTRIBUTOR>  (5812) 
University of Tokyo Team, {Faculty of Engineering, University of Tokyo

>  <COMMENT>  (5812) 
SMILES=C=CC(=O)CCC=C(C)C
InChI=InChI=1S/C9H14O/c1-4-9(10)7-5-6-8(2)3/h4,6H,1,5,7H2,2-3H3
computed SMILES=O=C(C=C)CCC=C(C)C
accession=JP002482
date=2016.01.19 (Created 2008.10.21, modified 2011.05.06)
author=MASS SPECTROSCOPY SOC. OF JAPAN (MSSJ)
license=CC BY-NC-SA
exact mass=138.10447
ionization energy=70 eV
ion type=[M]+*
computed spectral entropy=2.9435483037859442
computed normalized entropy=0.8741579155514139
SPLASH=splash10-0avm-9100000000-0742d60aa2d5e573b58c
submitter=submitter = University of Tokyo Team (Faculty of Engineering, University of Tokyo)
MoNA Rating=3.75

>  <NUM PEAKS>  (5812) 
29

>  <MASS SPECTRAL PEAKS>  (5812) 
42 69.1
43 15.85
53 10.2
54 4.71
55 99.99
56 9.95
57 4.13
59 10.16
67 24.09
68 17.45
69 32.44
70 37.29
77 5.67
79 8.12
81 10.77
82 15.03
83 26.61
93 5.4
94 6.48
95 41.2
96 12.78
97 18.17
105 6.87
109 7.89
110 4.29
120 6.97
121 4.54
123 20.48
138 9.06

$$$$

     RDKit          2D

 12 12  0  0  0  0  0  0  0  0999 V2000
    3.6071   -1.3299    0.0000 C   0  0  0  0  0  0  0  0  0  0  0  0
   -4.1871    1.6701    0.0000 C   0  0  0  0  0  0  0  0  0  0  0  0
    1.0085   -1.3308    0.0000 C   0  0  0  0  0  0  0  0  0  0  0  0
   -0.2905   -0.5808    0.0000 C   0  0  0  0  0  0  0  0  0  0  0  0
    1.0095    1.6709    0.0000 C   0  0  0  0  0  0  0  0  0  0  0  0
    2.3080   -0.5799    0.0000 C   0  0  0  0  0  0  0  0  0  0  0  0
   -0.2900    0.9201    0.0000 C   0  0  0  0  0  0  0  0  0  0  0  0
    2.3085    0.9209    0.0000 C   0  0  0  0  0  0  0  0  0  0  0  0
   -1.5891    1.6701    0.0000 C   0  0  0  0  0  0  0  0  0  0  0  0
    3.6077    1.6707    0.0000 O   0  0  0  0  0  0  0  0  0  0  0  0
   -1.5891    3.1701    0.0000 O   0  0  0  0  0  0  0  0  0  0  0  0
   -2.8881    0.9201    0.0000 O   0  0  0  0  0  0  0  0  0  0  0  0
  4  3  1  0
  6  1  2  0
  6  3  1  0
  7  4  1  0
  7  5  1  0
  8  5  1  0
  8  6  1  0
  9  7  1  0
 10  8  1  0
 11  9  2  0
 12  2  1  0
 12  9  1  0
M  END
>  <NAME>  (5813) 
METHYL 3-HYDROXY-4-METHYLENECYCLOHEXANECARBOXYLATE

>  <SYNONYMS>  (5813) 


>  <SPECTRUM TYPE>  (5813) 
MS1

>  <INSTRUMENT TYPE>  (5813) 
EI-B

>  <INSTRUMENT>  (5813) 
JEOL JMS-D-3000

>  <ION MODE>  (5813) 
P

>  <INCHIKEY>  (5813) 
XQBZFGGJIWUYCF-UHFFFAOYSA-N

>  <FORMULA>  (5813) 
C9H14O3

>  <EXACT MASS>  (5813) 
170.09429430799997

>  <MW>  (5813) 
170

>  <ID>  (5813) 
JP002481

>  <CONTRIBUTOR>  (5813) 
University of Tokyo Team, {Faculty of Engineering, University of Tokyo

>  <COMMENT>  (5813) 
SMILES=COC(=O)C(C1)CC(O)C(=C)C1
InChI=InChI=1S/C9H14O3/c1-6-3-4-7(5-8(6)10)9(11)12-2/h7-8,10H,1,3-5H2,2H3
computed SMILES=O=C(OC)C1CCC(=C)C(O)C1
accession=JP002481
date=2016.01.19 (Created 2008.10.21, modified 2011.05.06)
author=MASS SPECTROSCOPY SOC. OF JAPAN (MSSJ)
license=CC BY-NC-SA
exact mass=170.09429
ionization energy=70 eV
ion type=[M]+*
computed spectral entropy=2.9887622579008735
computed normalized entropy=0.8969324207966237
SPLASH=splash10-03dl-9400000000-91a8b7cfacbf74ea2822
submitter=submitter = University of Tokyo Team (Faculty of Engineering, University of Tokyo)
MoNA Rating=3.75

>  <NUM PEAKS>  (5813) 
28

>  <MASS SPECTRAL PEAKS>  (5813) 
42 32.07
43 27.82
53 10.69
55 55.43
56 6.7
59 11.02
66 8.67
67 25.81
68 6.66
69 19.8
77 14.86
79 10.06
81 18.49
82 13.58
83 8.75
84 12.55
87 64.18
91 15.92
92 13.95
93 62.43
95 23.43
109 11.57
110 61.88
111 99.99
112 7.35
138 15.89
139 7.61
170 9.88

$$$$

     RDKit          2D

 10 10  0  0  0  0  0  0  0  0999 V2000
   -2.2915    1.3193    0.0000 C   0  0  0  0  0  0  0  0  0  0  0  0
   -0.9814    3.5628    0.0000 C   0  0  0  0  0  0  0  0  0  0  0  0
    1.6056    2.0565    0.0000 C   0  0  0  0  0  0  0  0  0  0  0  0
    0.2920   -0.1684    0.0000 C   0  0  0  0  0  0  0  0  0  0  0  0
    2.8901    1.3316    0.0000 C   0  0  0  0  0  0  0  0  0  0  0  0
    1.6165   -0.9625    0.0000 C   0  0  0  0  0  0  0  0  0  0  0  0
   -0.9888    2.0629    0.0000 C   0  0  0  0  0  0  0  0  0  0  0  0
    0.3065    1.3065    0.0000 C   0  0  0  0  0  0  0  0  0  0  0  0
    2.9156   -0.2125    0.0000 C   0  0  0  0  0  0  0  0  0  0  0  0
    4.2207   -0.9518    0.0000 O   0  0  0  0  0  0  0  0  0  0  0  0
  5  3  2  0
  6  4  1  0
  7  1  1  0
  7  2  1  0
  8  3  1  0
  8  4  1  0
  8  7  1  0
  9  5  1  0
  9  6  1  0
 10  9  2  0
M  END
>  <NAME>  (5814) 
CRYPTONE

>  <SYNONYMS>  (5814) 
4-ISOPROPYL-2-CYCLOHEXENONE

>  <SPECTRUM TYPE>  (5814) 
MS1

>  <INSTRUMENT TYPE>  (5814) 
EI-B

>  <INSTRUMENT>  (5814) 
JEOL JMS-D-3000

>  <ION MODE>  (5814) 
P

>  <INCHIKEY>  (5814) 
AANMVENRNJYEMK-UHFFFAOYSA-N

>  <FORMULA>  (5814) 
C9H14O

>  <EXACT MASS>  (5814) 
138.104465068

>  <MW>  (5814) 
138

>  <ID>  (5814) 
JP002480

>  <CONTRIBUTOR>  (5814) 
University of Tokyo Team, {Faculty of Engineering, University of Tokyo

>  <COMMENT>  (5814) 
SMILES=CC(C)C(C1)C=CC(=O)C1
InChI=InChI=1S/C9H14O/c1-7(2)8-3-5-9(10)6-4-8/h3,5,7-8H,4,6H2,1-2H3
computed SMILES=O=C1C=CC(CC1)C(C)C
accession=JP002480
date=2016.01.19 (Created 2008.10.21, modified 2011.05.06)
author=MASS SPECTROSCOPY SOC. OF JAPAN (MSSJ)
license=CC BY-NC-SA
exact mass=138.10447
ionization energy=70 eV
ion type=[M]+*
computed spectral entropy=2.730176363123071
computed normalized entropy=0.8107919532374551
SPLASH=splash10-0002-9100000000-8be20fa842397bcfd4b4
submitter=submitter = University of Tokyo Team (Faculty of Engineering, University of Tokyo)
MoNA Rating=3.75

>  <NUM PEAKS>  (5814) 
29

>  <MASS SPECTRAL PEAKS>  (5814) 
42 32.98
43 42.72
51 2.99
53 5.82
54 4.6
55 11.98
56 2.68
65 5.16
66 7.87
67 24.46
68 15.91
69 3.89
70 2.51
77 4.32
79 4.3
81 20.78
82 6.49
83 7.01
94 2.95
95 58.72
96 99.99
97 16.67
109 3.2
110 3.91
120 3.48
121 5.03
123 5.68
138 23.57
139 2.33

$$$$

     RDKit          2D

  7  7  0  0  0  0  0  0  0  0999 V2000
    2.7540   -0.1871    0.0000 C   0  0  0  0  0  0  0  0  0  0  0  0
    2.2050    1.8620    0.0000 C   0  0  0  0  0  0  0  0  0  0  0  0
    0.7045   -2.2370    0.0000 C   0  0  0  0  0  0  0  0  0  0  0  0
   -0.5945   -1.4870    0.0000 C   0  0  0  0  0  0  0  0  0  0  0  0
    0.7050   -0.7361    0.0000 C   0  0  0  0  0  0  0  0  0  0  0  0
    1.4550    0.5629    0.0000 C   0  0  0  0  0  0  0  0  0  0  0  0
    0.1560    1.3129    0.0000 O   0  0  0  0  0  0  0  0  0  0  0  0
  4  3  1  0
  5  3  1  0
  5  4  1  0
  6  1  1  0
  6  2  1  0
  6  5  1  0
  7  6  1  0
M  END
>  <NAME>  (5815) 
2-CYCLOPROPYL-2-PROPANOL

>  <SYNONYMS>  (5815) 


>  <SPECTRUM TYPE>  (5815) 
MS1

>  <INSTRUMENT TYPE>  (5815) 
EI-B

>  <INSTRUMENT>  (5815) 
JEOL JMS-D-3000

>  <ION MODE>  (5815) 
P

>  <INCHIKEY>  (5815) 
ITQVACMQJLOIDS-UHFFFAOYSA-N

>  <FORMULA>  (5815) 
C6H12O

>  <EXACT MASS>  (5815) 
100.088815004

>  <MW>  (5815) 
100

>  <ID>  (5815) 
JP002479

>  <CONTRIBUTOR>  (5815) 
University of Tokyo Team, {Faculty of Engineering, University of Tokyo

>  <COMMENT>  (5815) 
SMILES=CC(C)(O)C(C1)C1
InChI=InChI=1S/C6H12O/c1-6(2,7)5-3-4-5/h5,7H,3-4H2,1-2H3
computed SMILES=OC(C)(C)C1CC1
accession=JP002479
date=2016.01.19 (Created 2008.10.21, modified 2011.05.06)
author=MASS SPECTROSCOPY SOC. OF JAPAN (MSSJ)
license=CC BY-NC-SA
exact mass=100.08882
ionization energy=70 eV
ion type=[M]+*
computed spectral entropy=2.7363057931345636
computed normalized entropy=0.7825825470221268
SPLASH=splash10-00kf-9000000000-50cc5f711023c1461a12
submitter=submitter = University of Tokyo Team (Faculty of Engineering, University of Tokyo)
MoNA Rating=3.75

>  <NUM PEAKS>  (5815) 
33

>  <MASS SPECTRAL PEAKS>  (5815) 
41 56.56
42 8.52
43 99.99
44 3.13
45 3.55
50 2.88
51 4.82
52 2.34
53 11.76
54 10.47
55 11.87
56 3.64
57 20.04
58 3.83
59 31.84
60 1.12
63 1.35
65 9.16
66 2.66
67 89.95
68 5.82
69 6.79
71 5.51
72 34.97
73 1.7
77 2.29
79 5.76
81 11.64
82 24.12
83 3.23
85 58.6
86 3.55
100 1.19

$$$$

     RDKit          2D

 25 27  0  0  0  0  0  0  0  0999 V2000
   -6.4683    1.8149    0.0000 C   0  0  0  0  0  0  0  0  0  0  0  0
   -4.5985    3.6188    0.0000 C   0  0  0  0  0  0  0  0  0  0  0  0
   -1.7844   -2.5601    0.0000 C   0  0  0  0  0  0  0  0  0  0  0  0
    9.5491   -1.1600    0.0000 C   0  0  0  0  0  0  0  0  0  0  0  0
    9.5496    0.3409    0.0000 C   0  0  0  0  0  0  0  0  0  0  0  0
    8.2496   -1.9108    0.0000 C   0  0  0  0  0  0  0  0  0  0  0  0
    8.2505    1.0909    0.0000 C   0  0  0  0  0  0  0  0  0  0  0  0
    6.9505   -1.1608    0.0000 C   0  0  0  0  0  0  0  0  0  0  0  0
   -2.5156    1.4595    0.0000 C   0  0  0  0  0  0  0  0  0  0  0  0
   -4.3854   -0.3450    0.0000 C   0  0  0  0  0  0  0  0  0  0  0  0
    2.7274   -1.4645    0.0000 C   0  0  0  0  0  0  0  0  0  0  0  0
   -1.4740    0.3789    0.0000 C   0  0  0  0  0  0  0  0  0  0  0  0
   -3.3439   -1.4256    0.0000 C   0  0  0  0  0  0  0  0  0  0  0  0
    4.1872   -1.1529    0.0000 C   0  0  0  0  0  0  0  0  0  0  0  0
    5.6520    1.0900    0.0000 C   0  0  0  0  0  0  0  0  0  0  0  0
    2.9772    0.9429    0.0000 C   0  0  0  0  0  0  0  0  0  0  0  0
   -5.0127    2.1771    0.0000 C   0  0  0  0  0  0  0  0  0  0  0  0
    6.9510    0.3400    0.0000 C   0  0  0  0  0  0  0  0  0  0  0  0
   -3.9712    1.0976    0.0000 C   0  0  0  0  0  0  0  0  0  0  0  0
    1.9774   -0.1655    0.0000 C   0  0  0  0  0  0  0  0  0  0  0  0
    0.4857   -0.0080    0.0000 C   0  0  0  0  0  0  0  0  0  0  0  0
   -1.8882   -1.0637    0.0000 C   0  0  0  0  0  0  0  0  0  0  0  0
    4.3529    0.3400    0.0000 N   0  0  0  0  0  0  0  0  0  0  0  0
   -0.1238    1.3626    0.0000 O   0  0  0  0  0  0  0  0  0  0  0  0
   -0.3965   -1.2211    0.0000 O   0  0  0  0  0  0  0  0  0  0  0  0
  5  4  2  0
  6  4  1  0
  7  5  1  0
  8  6  2  0
 12  9  1  0
 13 10  1  0
 14 11  1  0
 17  1  1  0
 17  2  1  0
 18  7  2  0
 18  8  1  0
 18 15  1  0
 19  9  1  0
 19 10  1  0
 19 17  1  0
 20 11  1  0
 20 16  1  0
 21 20  1  0
 22  3  1  0
 22 12  1  0
 22 13  1  0
 23 14  1  0
 23 15  1  0
 23 16  1  0
 24 21  2  0
 25 21  1  0
 25 22  1  0
M  END
>  <NAME>  (5816) 
N-BENZYL-3-MENTHOXYCARBONYLPYRROLIDINE

>  <SYNONYMS>  (5816) 


>  <SPECTRUM TYPE>  (5816) 
MS1

>  <INSTRUMENT TYPE>  (5816) 
EI-B

>  <INSTRUMENT>  (5816) 
JEOL JMS-D-3000

>  <ION MODE>  (5816) 
P

>  <INCHIKEY>  (5816) 
ULEFDVPTRAHPIR-UHFFFAOYSA-N

>  <FORMULA>  (5816) 
C22H33NO2

>  <EXACT MASS>  (5816) 
343.251129296

>  <MW>  (5816) 
343

>  <ID>  (5816) 
JP002478

>  <CONTRIBUTOR>  (5816) 
University of Tokyo Team, {Faculty of Engineering, University of Tokyo

>  <COMMENT>  (5816) 
SMILES=CC(C)C(C3)CCC(C)(C3)OC(=O)C(C2)CN(C2)Cc(c1)cccc1
InChI=InChI=1S/C22H33NO2/c1-17(2)19-9-12-22(3,13-10-19)25-21(24)20-11-14-23(16-20)15-18-7-5-4-6-8-18/h4-8,17,19-20H,9-16H2,1-3H3
computed SMILES=O=C(OC1(C)CCC(CC1)C(C)C)C2CN(CC=3C=CC=CC3)CC2
accession=JP002478
date=2016.01.19 (Created 2008.10.21, modified 2011.05.06)
author=MASS SPECTROSCOPY SOC. OF JAPAN (MSSJ)
license=CC BY-NC-SA
exact mass=343.25113
ionization energy=70 eV
ion type=[M]+*
computed spectral entropy=2.9977243623281526
computed normalized entropy=0.7586786783692486
SPLASH=splash10-0gvo-9640000000-73a545692d2b3395e8b9
submitter=submitter = University of Tokyo Team (Faculty of Engineering, University of Tokyo)
MoNA Rating=3.75

>  <NUM PEAKS>  (5816) 
52

>  <MASS SPECTRAL PEAKS>  (5816) 
40 9.4
42 12.57
43 5.64
53 1.26
55 10.17
57 5.79
65 4.14
67 2.47
68 4.31
69 9.31
70 1.99
71 1.07
79 1.05
81 4.64
82 2.39
83 16.45
84 1.42
91 99.99
92 10.96
95 4.56
96 1.13
97 2.68
100 1.22
101 1.4
104 1.09
105 1.01
114 69.26
115 4.39
118 1.65
119 1.17
120 1.93
123 1.19
128 9.56
131 1.11
132 10.28
133 3.87
138 1.55
139 2.57
158 2.7
159 3.32
160 6.08
161 1.34
176 1.63
177 1.61
178 1.59
188 11.9
189 1.8
204 63.71
205 13.13
206 6.35
252 30.75
343 7.21

$$$$

     RDKit          2D

 21 22  0  0  0  0  0  0  0  0999 V2000
   -6.5196   -0.0371    0.0000 C   0  0  0  0  0  0  0  0  0  0  0  0
   -4.6147    3.2624    0.0000 C   0  0  0  0  0  0  0  0  0  0  0  0
    6.2167   -3.6908    0.0000 C   0  0  0  0  0  0  0  0  0  0  0  0
    6.2172   -2.1900    0.0000 C   0  0  0  0  0  0  0  0  0  0  0  0
    4.9172   -4.4416    0.0000 C   0  0  0  0  0  0  0  0  0  0  0  0
    4.9181   -1.4400    0.0000 C   0  0  0  0  0  0  0  0  0  0  0  0
    3.6181   -3.6916    0.0000 C   0  0  0  0  0  0  0  0  0  0  0  0
    2.3196   -1.4408    0.0000 C   0  0  0  0  0  0  0  0  0  0  0  0
    1.0206   -2.1908    0.0000 C   0  0  0  0  0  0  0  0  0  0  0  0
   -1.6543   -2.0437    0.0000 C   0  0  0  0  0  0  0  0  0  0  0  0
   -0.4443    0.0521    0.0000 C   0  0  0  0  0  0  0  0  0  0  0  0
    3.6186   -2.1908    0.0000 C   0  0  0  0  0  0  0  0  0  0  0  0
   -2.6540   -0.9353    0.0000 C   0  0  0  0  0  0  0  0  0  0  0  0
   -1.9040    0.3637    0.0000 C   0  0  0  0  0  0  0  0  0  0  0  0
   -4.1457   -1.0928    0.0000 C   0  0  0  0  0  0  0  0  0  0  0  0
   -2.5135    1.7343    0.0000 C   0  0  0  0  0  0  0  0  0  0  0  0
   -0.2785   -1.4408    0.0000 N   0  0  0  0  0  0  0  0  0  0  0  0
   -4.7552   -2.4633    0.0000 O   0  0  0  0  0  0  0  0  0  0  0  0
   -1.6313    2.9475    0.0000 O   0  0  0  0  0  0  0  0  0  0  0  0
   -5.0279    0.1204    0.0000 O   0  0  0  0  0  0  0  0  0  0  0  0
   -4.0052    1.8918    0.0000 O   0  0  0  0  0  0  0  0  0  0  0  0
  4  3  2  0
  5  3  1  0
  6  4  1  0
  7  5  2  0
  9  8  1  0
 12  6  2  0
 12  7  1  0
 12  8  1  0
 13 10  1  0
 14 11  1  0
 14 13  1  0
 15 13  1  0
 16 14  1  0
 17  9  1  0
 17 10  1  0
 17 11  1  0
 18 15  2  0
 19 16  2  0
 20  1  1  0
 20 15  1  0
 21  2  1  0
 21 16  1  0
M  END
>  <NAME>  (5817) 
N-((1R)-PHENYLETHYL)-TRANS-3,4-DI(METHOXYCARBONYL)PYRROLIDINE

>  <SYNONYMS>  (5817) 


>  <SPECTRUM TYPE>  (5817) 
MS1

>  <INSTRUMENT TYPE>  (5817) 
EI-B

>  <INSTRUMENT>  (5817) 
JEOL JMS-D-3000

>  <ION MODE>  (5817) 
P

>  <INCHIKEY>  (5817) 
RMWZNMIFTKZUCP-UHFFFAOYSA-N

>  <FORMULA>  (5817) 
C16H21NO4

>  <EXACT MASS>  (5817) 
291.147058152

>  <MW>  (5817) 
291

>  <ID>  (5817) 
JP002477

>  <CONTRIBUTOR>  (5817) 
University of Tokyo Team, {Faculty of Engineering, University of Tokyo

>  <COMMENT>  (5817) 
SMILES=COC(=O)C(C1)C(C(=O)OC)CN(CCc(c2)cccc2)1
InChI=InChI=1S/C16H21NO4/c1-20-15(18)13-10-17(11-14(13)16(19)21-2)9-8-12-6-4-3-5-7-12/h3-7,13-14H,8-11H2,1-2H3
computed SMILES=O=C(OC)C1CN(CCC=2C=CC=CC2)CC1C(=O)OC
accession=JP002477
date=2016.01.19 (Created 2008.10.21, modified 2011.05.06)
author=MASS SPECTROSCOPY SOC. OF JAPAN (MSSJ)
license=CC BY-NC-SA
exact mass=291.14706
ionization energy=70 eV
ion type=[M]+*
computed spectral entropy=2.7182538064321724
computed normalized entropy=0.7368779165176308
SPLASH=splash10-004i-3590000000-6fdaff56d847524ac8cd
submitter=submitter = University of Tokyo Team (Faculty of Engineering, University of Tokyo)
MoNA Rating=3.75

>  <NUM PEAKS>  (5817) 
40

>  <MASS SPECTRAL PEAKS>  (5817) 
42 4.51
43 2.35
45 1.14
51 2.06
53 2.08
55 1.76
56 5.05
59 3.12
67 1.16
68 5.31
77 9.28
78 2.54
79 8.35
91 9.13
94 1.48
96 1.76
101 1.04
103 5.91
104 4.33
105 56.94
106 6.59
118 3.31
121 2.24
126 2.79
127 2.21
128 1.46
154 7.49
156 4.54
158 2.62
186 2.3
214 16.99
215 2.01
216 1.03
260 10.91
261 2.05
276 99.99
277 17.57
278 2.37
290 1.5
291 3.93

$$$$

     RDKit          2D

 11 11  0  0  0  0  0  0  0  0999 V2000
   -3.4349    3.0684    0.0000 C   0  0  0  0  0  0  0  0  0  0  0  0
   -3.9839    1.0193    0.0000 C   0  0  0  0  0  0  0  0  0  0  0  0
   -1.9349    0.4703    0.0000 C   0  0  0  0  0  0  0  0  0  0  0  0
    2.5113    0.2693    0.0000 C   0  0  0  0  0  0  0  0  0  0  0  0
    2.5118    1.7702    0.0000 C   0  0  0  0  0  0  0  0  0  0  0  0
    1.2118   -0.4815    0.0000 C   0  0  0  0  0  0  0  0  0  0  0  0
    1.2127    2.5202    0.0000 C   0  0  0  0  0  0  0  0  0  0  0  0
   -0.0873    0.2685    0.0000 C   0  0  0  0  0  0  0  0  0  0  0  0
   -1.3858    2.5193    0.0000 C   0  0  0  0  0  0  0  0  0  0  0  0
   -0.0868    1.7693    0.0000 C   0  0  0  0  0  0  0  0  0  0  0  0
   -2.6849    1.7693    0.0000 Si  0  0  0  0  0  4  0  0  0  0  0  0
  5  4  2  0
  6  4  1  0
  7  5  1  0
  8  6  2  0
 10  7  2  0
 10  8  1  0
 10  9  1  0
 11  1  1  0
 11  2  1  0
 11  3  1  0
 11  9  1  0
M  END
>  <NAME>  (5818) 
BENZYLTRIMETHYLSILANE

>  <SYNONYMS>  (5818) 


>  <SPECTRUM TYPE>  (5818) 
MS1

>  <INSTRUMENT TYPE>  (5818) 
EI-B

>  <INSTRUMENT>  (5818) 
JEOL JMS-D-3000

>  <ION MODE>  (5818) 
P

>  <INCHIKEY>  (5818) 
MRIWRLGWLMRJIW-UHFFFAOYSA-N

>  <FORMULA>  (5818) 
C10H16Si

>  <EXACT MASS>  (5818) 
164.102127042

>  <MW>  (5818) 
164

>  <ID>  (5818) 
JP002476

>  <CONTRIBUTOR>  (5818) 
University of Tokyo Team, {Faculty of Engineering, University of Tokyo

>  <COMMENT>  (5818) 
SMILES=c(c1)ccc(c1)C[Si](C)(C)C
InChI=InChI=1S/C10H16Si/c1-11(2,3)9-10-7-5-4-6-8-10/h4-8H,9H2,1-3H3
computed SMILES=C=1C=CC(=CC1)C[Si](C)(C)C
accession=JP002476
date=2016.01.19 (Created 2008.10.21, modified 2011.05.06)
author=MASS SPECTROSCOPY SOC. OF JAPAN (MSSJ)
license=CC BY-NC-SA
exact mass=164.10213
ionization energy=70 eV
ion type=[M]+*
computed spectral entropy=2.20892711943899
computed normalized entropy=0.6702173709577313
SPLASH=splash10-00di-9500000000-6433c2be552fb96ee47e
submitter=submitter = University of Tokyo Team (Faculty of Engineering, University of Tokyo)
MoNA Rating=3.75

>  <NUM PEAKS>  (5818) 
27

>  <MASS SPECTRAL PEAKS>  (5818) 
43 3.87
45 5.19
58 1.38
59 4.14
65 2.17
72 1.11
73 99.99
74 10.29
75 4.04
77 1.21
79 1.57
91 4.12
105 2.1
107 2.17
108 1.4
119 1.54
121 13.72
122 1.83
131 1.02
133 1.19
146 6.19
147 1.08
149 19.45
150 3.04
164 28.55
165 4.84
166 1.36

$$$$

     RDKit          2D

 14 15  0  0  0  0  0  0  0  0999 V2000
    3.6672   -1.5044    0.0000 C   0  0  0  0  0  0  0  0  0  0  0  0
    3.6677   -0.0036    0.0000 C   0  0  0  0  0  0  0  0  0  0  0  0
    2.3677   -2.2552    0.0000 C   0  0  0  0  0  0  0  0  0  0  0  0
    2.3687    0.7464    0.0000 C   0  0  0  0  0  0  0  0  0  0  0  0
    1.0687   -1.5052    0.0000 C   0  0  0  0  0  0  0  0  0  0  0  0
   -3.1544   -1.8089    0.0000 C   0  0  0  0  0  0  0  0  0  0  0  0
   -1.6947   -1.4973    0.0000 C   0  0  0  0  0  0  0  0  0  0  0  0
   -0.2299    0.7456    0.0000 C   0  0  0  0  0  0  0  0  0  0  0  0
   -2.9047    0.5985    0.0000 C   0  0  0  0  0  0  0  0  0  0  0  0
   -5.3961   -0.3524    0.0000 C   0  0  0  0  0  0  0  0  0  0  0  0
    1.0692   -0.0044    0.0000 C   0  0  0  0  0  0  0  0  0  0  0  0
   -3.9044   -0.5099    0.0000 C   0  0  0  0  0  0  0  0  0  0  0  0
   -1.5289   -0.0044    0.0000 N   0  0  0  0  0  0  0  0  0  0  0  0
   -6.2784   -1.5656    0.0000 O   0  0  0  0  0  0  0  0  0  0  0  0
  2  1  2  0
  3  1  1  0
  4  2  1  0
  5  3  2  0
  7  6  1  0
 11  4  2  0
 11  5  1  0
 11  8  1  0
 12  6  1  0
 12  9  1  0
 12 10  1  0
 13  7  1  0
 13  8  1  0
 13  9  1  0
 14 10  1  0
M  END
>  <NAME>  (5819) 
N-BENZYL-3-HYDROXYMETHYLPYRROLIDINE

>  <SYNONYMS>  (5819) 


>  <SPECTRUM TYPE>  (5819) 
MS1

>  <INSTRUMENT TYPE>  (5819) 
EI-B

>  <INSTRUMENT>  (5819) 
JEOL JMS-D-3000

>  <ION MODE>  (5819) 
P

>  <INCHIKEY>  (5819) 
QPQQBJDSKDWQMJ-UHFFFAOYSA-N

>  <FORMULA>  (5819) 
C12H17NO

>  <EXACT MASS>  (5819) 
191.131014164

>  <MW>  (5819) 
191

>  <ID>  (5819) 
JP002475

>  <CONTRIBUTOR>  (5819) 
University of Tokyo Team, {Faculty of Engineering, University of Tokyo

>  <COMMENT>  (5819) 
SMILES=OCC(C2)CN(C2)Cc(c1)cccc1
InChI=InChI=1S/C12H17NO/c14-10-12-6-7-13(9-12)8-11-4-2-1-3-5-11/h1-5,12,14H,6-10H2
computed SMILES=OCC1CN(CC=2C=CC=CC2)CC1
accession=JP002475
date=2016.01.19 (Created 2008.10.21, modified 2011.05.06)
author=MASS SPECTROSCOPY SOC. OF JAPAN (MSSJ)
license=CC BY-NC-SA
exact mass=191.13101
ionization energy=70 eV
ion type=[M]+*
computed spectral entropy=2.7844698265362178
computed normalized entropy=0.7654718553101328
SPLASH=splash10-0006-9600000000-403650cf549010ef653d
submitter=submitter = University of Tokyo Team (Faculty of Engineering, University of Tokyo)
MoNA Rating=3.75

>  <NUM PEAKS>  (5819) 
38

>  <MASS SPECTRAL PEAKS>  (5819) 
40 5.51
42 48.67
43 5.2
44 5.26
45 1.7
51 3.21
53 1.66
55 5.97
57 2.02
59 2.04
63 2.46
65 14.3
68 2.2
70 1.52
71 4.52
72 1.68
77 2.69
82 3.95
89 2.85
90 1.81
91 99.99
92 15.31
100 29.99
101 1.8
104 1.97
105 1.65
106 4.83
107 4.12
114 32.9
115 2.51
118 2.8
120 3.86
132 7.02
133 4.96
134 1.62
190 33.84
191 30.3
192 3.93

$$$$

     RDKit          2D

 13 14  0  0  0  0  0  0  0  0999 V2000
   -5.9896   -1.3804    0.0000 C   0  0  0  0  0  0  0  0  0  0  0  0
    3.0738   -2.5323    0.0000 C   0  0  0  0  0  0  0  0  0  0  0  0
    3.0742   -1.0315    0.0000 C   0  0  0  0  0  0  0  0  0  0  0  0
    1.7742   -3.2832    0.0000 C   0  0  0  0  0  0  0  0  0  0  0  0
    1.7752   -0.2815    0.0000 C   0  0  0  0  0  0  0  0  0  0  0  0
    0.4752   -2.5332    0.0000 C   0  0  0  0  0  0  0  0  0  0  0  0
   -3.7479   -2.8369    0.0000 C   0  0  0  0  0  0  0  0  0  0  0  0
   -2.2882   -2.5252    0.0000 C   0  0  0  0  0  0  0  0  0  0  0  0
   -3.4982   -0.4294    0.0000 C   0  0  0  0  0  0  0  0  0  0  0  0
   -0.8234   -0.2823    0.0000 C   0  0  0  0  0  0  0  0  0  0  0  0
   -4.4979   -1.5378    0.0000 C   0  0  0  0  0  0  0  0  0  0  0  0
    0.4757   -1.0323    0.0000 C   0  0  0  0  0  0  0  0  0  0  0  0
   -2.1224   -1.0323    0.0000 N   0  0  0  0  0  0  0  0  0  0  0  0
  3  2  2  0
  4  2  1  0
  5  3  1  0
  6  4  2  0
  8  7  1  0
 11  1  1  0
 11  7  1  0
 11  9  1  0
 12  5  2  0
 12  6  1  0
 12 10  1  0
 13  8  1  0
 13  9  1  0
 13 10  1  0
M  END
>  <NAME>  (5820) 
N-BENZYL-3-METHYLPYRROLIDINE

>  <SYNONYMS>  (5820) 


>  <SPECTRUM TYPE>  (5820) 
MS1

>  <INSTRUMENT TYPE>  (5820) 
EI-B

>  <INSTRUMENT>  (5820) 
JEOL JMS-D-3000

>  <ION MODE>  (5820) 
P

>  <INCHIKEY>  (5820) 
MJIUUKUNEAAVEV-UHFFFAOYSA-N

>  <FORMULA>  (5820) 
C12H17N

>  <EXACT MASS>  (5820) 
175.136099544

>  <MW>  (5820) 
175

>  <ID>  (5820) 
JP002474

>  <CONTRIBUTOR>  (5820) 
University of Tokyo Team, {Faculty of Engineering, University of Tokyo

>  <COMMENT>  (5820) 
SMILES=CC(C2)CN(C2)Cc(c1)cccc1
InChI=InChI=1S/C12H17N/c1-11-7-8-13(9-11)10-12-5-3-2-4-6-12/h2-6,11H,7-10H2,1H3
computed SMILES=C=1C=CC(=CC1)CN2CCC(C)C2
accession=JP002474
date=2016.01.19 (Created 2008.10.21, modified 2011.05.06)
author=MASS SPECTROSCOPY SOC. OF JAPAN (MSSJ)
license=CC BY-NC-SA
exact mass=175.1361
ionization energy=70 eV
ion type=[M]+*
computed spectral entropy=2.478655482860712
computed normalized entropy=0.7218010246582541
SPLASH=splash10-0006-9200000000-87c2196b4bed11b83cab
submitter=submitter = University of Tokyo Team (Faculty of Engineering, University of Tokyo)
MoNA Rating=3.75

>  <NUM PEAKS>  (5820) 
31

>  <MASS SPECTRAL PEAKS>  (5820) 
42 99.99
43 3.14
51 2.89
53 1.01
55 6.48
56 2.64
57 2.22
63 2.5
65 15
66 1.15
68 1.01
69 3.16
77 1.77
82 1.8
84 44.2
85 2.57
89 2.67
90 1.7
91 92.32
92 14.51
97 1.3
98 50.58
99 3.56
104 2.26
105 1.19
118 2.83
132 9.95
133 7.8
174 38.94
175 35.21
176 4.58

$$$$

     RDKit          2D

 12 12  0  0  0  0  0  0  0  0999 V2000
    2.0704   -2.0473    0.0000 C   0  0  0  0  0  0  0  0  0  0  0  0
   -3.7942    0.6580    0.0000 C   0  0  0  0  0  0  0  0  0  0  0  0
   -1.7792   -1.1452    0.0000 C   0  0  0  0  0  0  0  0  0  0  0  0
   -0.1554   -2.3260    0.0000 C   0  0  0  0  0  0  0  0  0  0  0  0
   -1.5265    1.8822    0.0000 C   0  0  0  0  0  0  0  0  0  0  0  0
    1.6482    0.5858    0.0000 C   0  0  0  0  0  0  0  0  0  0  0  0
    0.4382    1.4758    0.0000 C   0  0  0  0  0  0  0  0  0  0  0  0
    1.1882   -0.8342    0.0000 C   0  0  0  0  0  0  0  0  0  0  0  0
   -2.5795   -0.2220    0.0000 C   0  0  0  0  0  0  0  0  0  0  0  0
   -0.3118   -0.8342    0.0000 C   0  0  0  0  0  0  0  0  0  0  0  0
   -0.7718    0.5858    0.0000 C   0  0  0  0  0  0  0  0  0  0  0  0
   -2.7342   -1.7140    0.0000 O   0  0  0  0  0  0  0  0  0  0  0  0
  7  6  1  0
  8  1  1  0
  8  6  1  0
  9  2  1  0
 10  3  1  0
 10  4  1  0
 10  8  1  0
 11  5  1  0
 11  7  1  0
 11  9  1  0
 11 10  1  0
 12  9  2  0
M  END
>  <NAME>  (5821) 
D-CAMPHOLYLMETHANE

>  <SYNONYMS>  (5821) 
(D)-1-ACETYL-1,2,2,3-TETRAMETHYLCYCLOPENTANE

>  <SPECTRUM TYPE>  (5821) 
MS1

>  <INSTRUMENT TYPE>  (5821) 
EI-B

>  <INSTRUMENT>  (5821) 
JEOL JMS-D-3000

>  <ION MODE>  (5821) 
P

>  <INCHIKEY>  (5821) 
RUPLXQJJFFMCOX-UHFFFAOYSA-N

>  <FORMULA>  (5821) 
C11H20O

>  <EXACT MASS>  (5821) 
168.15141526

>  <MW>  (5821) 
168

>  <ID>  (5821) 
JP002473

>  <CONTRIBUTOR>  (5821) 
University of Tokyo Team, {Faculty of Engineering, University of Tokyo

>  <COMMENT>  (5821) 
SMILES=CC(=O)C(C)(C1)C(C)(C)C(C)C1
InChI=InChI=1S/C11H20O/c1-8-6-7-11(5,9(2)12)10(8,3)4/h8H,6-7H2,1-5H3
computed SMILES=O=C(C)C1(C)CCC(C)C1(C)C
accession=JP002473
date=2016.01.19 (Created 2008.10.21, modified 2011.05.06)
author=MASS SPECTROSCOPY SOC. OF JAPAN (MSSJ)
license=CC BY-NC-SA
exact mass=168.15142
ionization energy=70 eV
ion type=[M]+*
computed spectral entropy=2.832363474038675
computed normalized entropy=0.7678113392618314
SPLASH=splash10-0159-9100000000-912dfb9b12e355e76404
submitter=submitter = University of Tokyo Team (Faculty of Engineering, University of Tokyo)
MoNA Rating=3.75

>  <NUM PEAKS>  (5821) 
40

>  <MASS SPECTRAL PEAKS>  (5821) 
42 3.37
43 38.57
51 1.5
53 6.07
54 1.32
55 26.34
56 3.06
57 12.96
65 1.7
67 7.48
68 1.97
69 99.99
70 7.76
71 1
72 1.48
77 2.01
79 1.94
81 4.89
82 1.42
83 26.08
84 34.29
85 27.71
86 1.85
91 1.22
93 1.06
95 2.85
96 12.17
97 3.79
98 12.68
99 1.53
107 1.25
109 5.73
110 2.42
111 2.63
123 1.64
124 5.57
125 32.91
126 3.17
150 1.95
168 2.01

$$$$

     RDKit          2D

 11 11  0  0  1  0  0  0  0  0999 V2000
   -3.5376   -0.2051    0.0000 C   0  0  0  0  0  0  0  0  0  0  0  0
   -2.2386   -2.4551    0.0000 C   0  0  0  0  0  0  0  0  0  0  0  0
    2.9576    2.0449    0.0000 C   0  0  0  0  0  0  0  0  0  0  0  0
    0.3590    2.0458    0.0000 C   0  0  0  0  0  0  0  0  0  0  0  0
   -0.9400    1.2958    0.0000 C   0  0  0  0  0  0  0  0  0  0  0  0
    1.6590   -0.2059    0.0000 C   0  0  0  0  0  0  0  0  0  0  0  0
   -2.2386   -0.9551    0.0000 C   0  0  0  0  0  0  0  0  0  0  0  0
    1.6585    1.2949    0.0000 C   0  0  0  0  0  0  0  0  0  0  0  0
   -0.9395   -0.2051    0.0000 C   0  0  0  0  0  0  0  0  0  0  0  0
    0.3600   -0.9559    0.0000 C   0  0  0  0  0  0  0  0  0  0  0  0
    0.3597   -2.4559    0.0000 O   0  0  0  0  0  0  0  0  0  0  0  0
  5  4  1  0
  7  1  1  0
  7  2  1  0
  8  3  1  1
  8  4  1  0
  8  6  1  0
  9  5  1  0
  9  7  1  6
 10  6  1  0
 10  9  1  0
 10 11  1  1
M  END
>  <NAME>  (5822) 
L-MENTHOL

>  <SYNONYMS>  (5822) 


>  <SPECTRUM TYPE>  (5822) 
MS1

>  <INSTRUMENT TYPE>  (5822) 
EI-B

>  <INSTRUMENT>  (5822) 
JEOL JMS-D-3000

>  <ION MODE>  (5822) 
P

>  <INCHIKEY>  (5822) 
NOOLISFMXDJSKH-KXUCPTDWSA-N

>  <FORMULA>  (5822) 
C10H20O

>  <EXACT MASS>  (5822) 
156.15141526

>  <MW>  (5822) 
156

>  <ID>  (5822) 
JP002472

>  <CONTRIBUTOR>  (5822) 
University of Tokyo Team, {Faculty of Engineering, University of Tokyo

>  <COMMENT>  (5822) 
SMILES=CC(C1)CC(O)C(C1)C(C)C
InChI=InChI=1S/C10H20O/c1-7(2)9-5-4-8(3)6-10(9)11/h7-11H,4-6H2,1-3H3/t8-,9+,10-/m1/s1
computed SMILES=OC1CC(C)CCC1C(C)C
accession=JP002472
date=2016.01.19 (Created 2008.10.21, modified 2011.05.06)
author=MASS SPECTROSCOPY SOC. OF JAPAN (MSSJ)
license=CC BY-NC-SA
exact mass=156.15142
ionization energy=70 eV
ion type=[M]+*
computed spectral entropy=3.152369585154626
computed normalized entropy=0.8233650683622087
SPLASH=splash10-00ea-9100000000-0be605183591bf5f33a0
submitter=submitter = University of Tokyo Team (Faculty of Engineering, University of Tokyo)
MoNA Rating=3.75

>  <NUM PEAKS>  (5822) 
46

>  <MASS SPECTRAL PEAKS>  (5822) 
40 18.23
42 6.06
43 22.21
44 1.9
45 1.86
51 1.08
53 6.52
54 4.21
55 37.05
56 19.13
57 20.51
58 2.77
59 1.7
65 1.33
67 23.22
68 12.95
69 31.68
70 11.3
71 99.99
72 5.61
73 1.4
77 1.9
79 2.92
80 8.66
81 70.46
82 37.39
83 13.99
84 3.15
85 9.04
86 4.14
93 2.39
94 4.3
95 70.26
96 28.77
97 4.98
99 4.35
109 11.48
110 6.46
111 1.65
112 1.82
113 1.65
123 31.3
124 3.25
138 21.96
139 2.92
156 0.09

$$$$

     RDKit          2D

 12 12  0  0  1  0  0  0  0  0999 V2000
    2.0704   -2.0473    0.0000 C   0  0  0  0  0  0  0  0  0  0  0  0
   -1.7792   -1.1452    0.0000 C   0  0  0  0  0  0  0  0  0  0  0  0
   -0.1554   -2.3260    0.0000 C   0  0  0  0  0  0  0  0  0  0  0  0
   -1.5265    1.8822    0.0000 C   0  0  0  0  0  0  0  0  0  0  0  0
    1.6482    0.5858    0.0000 C   0  0  0  0  0  0  0  0  0  0  0  0
    0.4382    1.4758    0.0000 C   0  0  0  0  0  0  0  0  0  0  0  0
    1.1882   -0.8342    0.0000 C   0  0  0  0  0  0  0  0  0  0  0  0
   -2.5795   -0.2220    0.0000 C   0  0  0  0  0  0  0  0  0  0  0  0
   -0.3118   -0.8342    0.0000 C   0  0  0  0  0  0  0  0  0  0  0  0
   -0.7718    0.5858    0.0000 C   0  0  0  0  0  0  0  0  0  0  0  0
   -2.7342   -1.7140    0.0000 O   0  0  0  0  0  0  0  0  0  0  0  0
   -3.7942    0.6580    0.0000 O   0  0  0  0  0  0  0  0  0  0  0  0
  6  5  1  0
  7  1  1  1
  7  5  1  0
  9  2  1  0
  9  3  1  0
  9  7  1  0
 10  4  1  1
 10  6  1  0
 10  8  1  0
 10  9  1  0
 11  8  2  0
 12  8  1  0
M  END
>  <NAME>  (5823) 
D-CAMPHOLIC ACID

>  <SYNONYMS>  (5823) 
(D)-TRANS-1,2,2,3-TETRAMETHYLCYCLOPENTANECARBOXYLIC ACID

>  <SPECTRUM TYPE>  (5823) 
MS1

>  <INSTRUMENT TYPE>  (5823) 
EI-B

>  <INSTRUMENT>  (5823) 
JEOL JMS-D-3000

>  <ION MODE>  (5823) 
P

>  <INCHIKEY>  (5823) 
JDFOIACPOPEQLS-XCBNKYQSSA-N

>  <FORMULA>  (5823) 
C10H18O2

>  <EXACT MASS>  (5823) 
170.130679816

>  <MW>  (5823) 
170

>  <ID>  (5823) 
JP002471

>  <CONTRIBUTOR>  (5823) 
University of Tokyo Team, {Faculty of Engineering, University of Tokyo

>  <COMMENT>  (5823) 
SMILES=OC(=O)C(C)(C1)C(C)(C)C([H])(C)C1
InChI=InChI=1S/C10H18O2/c1-7-5-6-10(4,8(11)12)9(7,2)3/h7H,5-6H2,1-4H3,(H,11,12)/t7-,10+/m1/s1
computed SMILES=O=C(O)C1(C)CCC(C)C1(C)C
accession=JP002471
date=2016.01.19 (Created 2008.10.21, modified 2011.05.06)
author=MASS SPECTROSCOPY SOC. OF JAPAN (MSSJ)
license=CC BY-NC-SA
exact mass=170.13068
ionization energy=70 eV
ion type=[M]+*
computed spectral entropy=2.7028885551485455
computed normalized entropy=0.7430445456037948
SPLASH=splash10-00lr-9000000000-7e708060dec5f0ea6624
submitter=submitter = University of Tokyo Team (Faculty of Engineering, University of Tokyo)
MoNA Rating=3.75

>  <NUM PEAKS>  (5823) 
38

>  <MASS SPECTRAL PEAKS>  (5823) 
42 2.55
43 11.66
45 6.97
53 3.67
55 15.86
56 6.43
57 2.81
58 1.86
59 10.48
67 4.77
68 2.1
69 73.71
70 9.43
71 2.33
73 1.93
74 5
77 1.13
79 1.27
81 3.22
82 1.83
83 6.83
84 99.99
85 7.89
87 16.71
95 2.21
96 9.69
97 9.12
99 2.32
100 2.85
101 1.24
109 7.39
110 1.5
113 3.3
114 3.97
115 1.12
127 1.97
152 1.41
170 4.68

$$$$

     RDKit          2D

  9  9  0  0  1  0  0  0  0  0999 V2000
   -2.9228    0.8825    0.0000 C   0  0  0  0  0  0  0  0  0  0  0  0
    2.2733   -0.6175    0.0000 C   0  0  0  0  0  0  0  0  0  0  0  0
    2.2738    0.8833    0.0000 C   0  0  0  0  0  0  0  0  0  0  0  0
    0.9738   -1.3683    0.0000 C   0  0  0  0  0  0  0  0  0  0  0  0
    0.9748    1.6333    0.0000 C   0  0  0  0  0  0  0  0  0  0  0  0
   -0.3252   -0.6183    0.0000 C   0  0  0  0  0  0  0  0  0  0  0  0
   -1.6238    1.6325    0.0000 C   0  0  0  0  0  0  0  0  0  0  0  0
   -0.3248    0.8825    0.0000 C   0  0  0  0  0  0  0  0  0  0  0  0
   -1.6238    3.1325    0.0000 N   0  0  0  0  0  0  0  0  0  0  0  0
  3  2  2  0
  4  2  1  0
  5  3  1  0
  6  4  2  0
  7  1  1  1
  8  5  2  0
  8  6  1  0
  8  7  1  0
  7  9  1  0
M  END
>  <NAME>  (5824) 
L-(-)-ALPHA-PHENYLETHYLAMINE

>  <SYNONYMS>  (5824) 


>  <SPECTRUM TYPE>  (5824) 
MS1

>  <INSTRUMENT TYPE>  (5824) 
EI-B

>  <INSTRUMENT>  (5824) 
JEOL JMS-D-3000

>  <ION MODE>  (5824) 
P

>  <INCHIKEY>  (5824) 
RQEUFEKYXDPUSK-SSDOTTSWSA-N

>  <FORMULA>  (5824) 
C8H11N

>  <EXACT MASS>  (5824) 
121.08914935199999

>  <MW>  (5824) 
121

>  <ID>  (5824) 
JP002470

>  <CONTRIBUTOR>  (5824) 
University of Tokyo Team, {Faculty of Engineering, University of Tokyo

>  <COMMENT>  (5824) 
SMILES=[H]C(C)(N)c(c1)cccc1
InChI=InChI=1S/C8H11N/c1-7(9)8-5-3-2-4-6-8/h2-7H,9H2,1H3/t7-/m1/s1
computed SMILES=NC(C=1C=CC=CC1)C
accession=JP002470
date=2016.01.19 (Created 2008.10.21, modified 2011.05.06)
author=MASS SPECTROSCOPY SOC. OF JAPAN (MSSJ)
license=CC BY-NC-SA
exact mass=121.08915
ionization energy=70 eV
ion type=[M]+*
computed spectral entropy=2.6982539514095665
computed normalized entropy=0.801311820417158
SPLASH=splash10-0a4i-9700000000-2b2bbe2f7e713187dda7
submitter=submitter = University of Tokyo Team (Faculty of Engineering, University of Tokyo)
MoNA Rating=3.75

>  <NUM PEAKS>  (5824) 
29

>  <MASS SPECTRAL PEAKS>  (5824) 
42 14.39
43 15.73
44 17.27
45 15.17
50 3.5
51 8.76
52 3.29
53 10.22
58 4.03
59 21.31
60 1.59
63 1.72
65 1.57
73 1.19
74 13.28
75 1.19
76 1.18
77 16.74
78 5.58
79 26.49
80 1.98
91 2.41
103 4.05
104 5.63
105 20.83
106 99.99
107 8.43
120 8.4
121 1.57

$$$$

     RDKit          2D

 10  9  0  0  0  0  0  0  0  0999 V2000
    3.2476    3.3750    0.0000 C   0  0  0  0  0  0  0  0  0  0  0  0
   -5.8457    5.6250    0.0000 C   0  0  0  0  0  0  0  0  0  0  0  0
   -0.6495    4.1250    0.0000 C   0  0  0  0  0  0  0  0  0  0  0  0
   -1.9486    4.8750    0.0000 C   0  0  0  0  0  0  0  0  0  0  0  0
    0.6495    3.3750    0.0000 C   0  0  0  0  0  0  0  0  0  0  0  0
   -3.2476    5.6250    0.0000 C   0  0  0  0  0  0  0  0  0  0  0  0
    0.6495    1.8750    0.0000 O   0  0  0  0  0  0  0  0  0  0  0  0
   -3.2476    7.1250    0.0000 O   0  0  0  0  0  0  0  0  0  0  0  0
    1.9486    4.1250    0.0000 O   0  0  0  0  0  0  0  0  0  0  0  0
   -4.5466    4.8750    0.0000 O   0  0  0  0  0  0  0  0  0  0  0  0
  4  3  3  0
  5  3  1  0
  6  4  1  0
  7  5  2  0
  8  6  2  0
  9  1  1  0
  9  5  1  0
 10  2  1  0
 10  6  1  0
M  END
>  <NAME>  (5825) 
DIMETHYL ACETYLENEDICARBOXYLATE

>  <SYNONYMS>  (5825) 


>  <SPECTRUM TYPE>  (5825) 
MS1

>  <INSTRUMENT TYPE>  (5825) 
EI-B

>  <INSTRUMENT>  (5825) 
JEOL JMS-D-3000

>  <ION MODE>  (5825) 
P

>  <INCHIKEY>  (5825) 
VHILMKFSCRWWIJ-UHFFFAOYSA-N

>  <FORMULA>  (5825) 
C6H6O4

>  <EXACT MASS>  (5825) 
142.026608672

>  <MW>  (5825) 
142

>  <ID>  (5825) 
JP002469

>  <CONTRIBUTOR>  (5825) 
University of Tokyo Team, {Faculty of Engineering, University of Tokyo

>  <COMMENT>  (5825) 
SMILES=COC(=O)C#CC(=O)OC
InChI=InChI=1S/C6H6O4/c1-9-5(7)3-4-6(8)10-2/h1-2H3
computed SMILES=O=C(C#CC(=O)OC)OC
accession=JP002469
date=2016.01.19 (Created 2008.10.21, modified 2011.05.06)
author=MASS SPECTROSCOPY SOC. OF JAPAN (MSSJ)
license=CC BY-NC-SA
exact mass=142.02661
ionization energy=70 eV
ion type=[M]+*
computed spectral entropy=2.379087639533111
computed normalized entropy=0.6994853201875799
SPLASH=splash10-03k9-4900000000-4d712956ef214af5d5b6
submitter=submitter = University of Tokyo Team (Faculty of Engineering, University of Tokyo)
MoNA Rating=3.75

>  <NUM PEAKS>  (5825) 
30

>  <MASS SPECTRAL PEAKS>  (5825) 
42 1.27
43 4.94
45 5.55
51 1.92
52 13.03
53 6.22
54 1.09
58 1.83
59 18.8
65 1.06
66 2
68 1.16
69 3.73
74 3.03
77 8.7
78 1.3
80 8.97
81 1.25
82 2.36
83 3.96
84 4.59
91 5.08
98 4.19
105 2.44
111 99.99
112 15.13
113 2.03
121 68.24
122 6.22
142 1.16

$$$$

     RDKit          2D

  6  5  0  0  0  0  0  0  0  0999 V2000
    0.8002    0.0135    0.0000 C   0  0  0  0  0  0  0  0  0  0  0  0
   -0.6998    2.6115    0.0000 C   0  0  0  0  0  0  0  0  0  0  0  0
   -1.2488    0.5625    0.0000 C   0  0  0  0  0  0  0  0  0  0  0  0
    1.3493    2.0625    0.0000 C   0  0  0  0  0  0  0  0  0  0  0  0
    1.3493    3.5625    0.0000 I   0  0  0  0  0  0  0  0  0  0  0  0
    0.0502    1.3125    0.0000 Si  0  0  0  0  0  4  0  0  0  0  0  0
  5  4  1  0
  6  1  1  0
  6  2  1  0
  6  3  1  0
  6  4  1  0
M  END
>  <NAME>  (5826) 
IODOMETHYLTRIMETHYLSILANE

>  <SYNONYMS>  (5826) 


>  <SPECTRUM TYPE>  (5826) 
MS1

>  <INSTRUMENT TYPE>  (5826) 
EI-B

>  <INSTRUMENT>  (5826) 
JEOL JMS-D-3000

>  <ION MODE>  (5826) 
P

>  <INCHIKEY>  (5826) 
VZNYXGQMDSRJAL-UHFFFAOYSA-N

>  <FORMULA>  (5826) 
C4H11ISi

>  <EXACT MASS>  (5826) 
213.967474882

>  <MW>  (5826) 
214

>  <ID>  (5826) 
JP002468

>  <CONTRIBUTOR>  (5826) 
University of Tokyo Team, {Faculty of Engineering, University of Tokyo

>  <COMMENT>  (5826) 
SMILES=C[Si](C)(C)CI
InChI=InChI=1S/C4H11ISi/c1-6(2,3)4-5/h4H2,1-3H3
computed SMILES=IC[Si](C)(C)C
accession=JP002468
date=2016.01.19 (Created 2008.10.21, modified 2011.05.06)
author=MASS SPECTROSCOPY SOC. OF JAPAN (MSSJ)
license=CC BY-NC-SA
exact mass=213.96747
ionization energy=70 eV
ion type=[M]+*
computed spectral entropy=2.348866283539432
computed normalized entropy=0.6840055433146539
SPLASH=splash10-00dj-4920000000-232170215b2f2cc6de50
submitter=submitter = University of Tokyo Team (Faculty of Engineering, University of Tokyo)
MoNA Rating=3.75

>  <NUM PEAKS>  (5826) 
31

>  <MASS SPECTRAL PEAKS>  (5826) 
42 2.33
43 9.49
44 2.67
45 5.27
53 1.28
55 1.76
57 1.46
58 1.69
59 4.76
72 6.74
73 51.04
74 4.86
75 1.93
87 1.41
127 1.6
128 1.74
155 5.61
156 1.05
157 2.76
169 1.6
170 4.23
171 77.96
172 5.14
173 2.82
185 2.52
199 99.99
200 8.68
201 3.71
214 38.56
215 3.71
216 1.45

$$$$

     RDKit          2D

 23 24  0  0  0  0  0  0  0  0999 V2000
   -5.0923    1.6547    0.0000 C   0  0  0  0  0  0  0  0  0  0  0  0
   -2.4942    3.1547    0.0000 C   0  0  0  0  0  0  0  0  0  0  0  0
    0.6169    3.0642    0.0000 C   0  0  0  0  0  0  0  0  0  0  0  0
    0.1657    5.6229    0.0000 C   0  0  0  0  0  0  0  0  0  0  0  0
   -1.7568    4.7263    0.0000 C   0  0  0  0  0  0  0  0  0  0  0  0
   -3.7933    0.9047    0.0000 C   0  0  0  0  0  0  0  0  0  0  0  0
    4.0010   -0.5953    0.0000 C   0  0  0  0  0  0  0  0  0  0  0  0
    3.3049    5.4696    0.0000 C   0  0  0  0  0  0  0  0  0  0  0  0
    4.0015    0.9055    0.0000 C   0  0  0  0  0  0  0  0  0  0  0  0
    2.7015   -1.3461    0.0000 C   0  0  0  0  0  0  0  0  0  0  0  0
    1.8270    5.7307    0.0000 C   0  0  0  0  0  0  0  0  0  0  0  0
    3.8187    4.0595    0.0000 C   0  0  0  0  0  0  0  0  0  0  0  0
    2.7024    1.6555    0.0000 C   0  0  0  0  0  0  0  0  0  0  0  0
    1.4024   -0.5961    0.0000 C   0  0  0  0  0  0  0  0  0  0  0  0
    0.8628    4.5816    0.0000 C   0  0  0  0  0  0  0  0  0  0  0  0
    2.8545    2.9104    0.0000 C   0  0  0  0  0  0  0  0  0  0  0  0
   -1.1952    0.9047    0.0000 C   0  0  0  0  0  0  0  0  0  0  0  0
   -2.4942    1.6547    0.0000 C   0  0  0  0  0  0  0  0  0  0  0  0
    1.4029    0.9047    0.0000 C   0  0  0  0  0  0  0  0  0  0  0  0
    1.3766    3.1715    0.0000 C   0  0  0  0  0  0  0  0  0  0  0  0
    0.1039    1.6547    0.0000 C   0  0  0  0  0  0  0  0  0  0  0  0
   -0.8603    2.8038    0.0000 O   0  0  0  0  0  0  0  0  0  0  0  0
   -0.3473    4.2133    0.0000 Si  0  0  0  0  0  4  0  0  0  0  0  0
  6  1  2  0
  9  7  2  0
 10  7  1  0
 11  8  2  0
 12  8  1  0
 13  9  1  0
 14 10  2  0
 15 11  1  0
 16 12  2  0
 18  2  2  0
 18  6  1  0
 18 17  1  0
 19 13  2  0
 19 14  1  0
 20 15  2  0
 20 16  1  0
 21 17  1  0
 21 19  1  0
 21 20  1  0
 22 21  1  0
 23  3  1  0
 23  4  1  0
 23  5  1  0
 23 22  1  0
M  END
>  <NAME>  (5827) 
3-METHYLENE-5,5-DIPHENYL-5-TRIMETHYLSILOXYPENTENE

>  <SYNONYMS>  (5827) 


>  <SPECTRUM TYPE>  (5827) 
MS1

>  <INSTRUMENT TYPE>  (5827) 
EI-B

>  <INSTRUMENT>  (5827) 
JEOL JMS-D-3000

>  <ION MODE>  (5827) 
P

>  <INCHIKEY>  (5827) 
XJINLCNJCGOXLL-UHFFFAOYSA-N

>  <FORMULA>  (5827) 
C21H26OSi

>  <EXACT MASS>  (5827) 
322.175291982

>  <MW>  (5827) 
322

>  <ID>  (5827) 
JP002418

>  <CONTRIBUTOR>  (5827) 
University of Tokyo Team, {Faculty of Engineering, University of Tokyo

>  <COMMENT>  (5827) 
SMILES=C=CC(=C)CC(O[Si](C)(C)C)(c(c2)cccc2)c(c1)cccc1
InChI=InChI=1S/C21H26OSi/c1-6-18(2)17-21(22-23(3,4)5,19-13-9-7-10-14-19)20-15-11-8-12-16-20/h6-16H,1-2,17H2,3-5H3
computed SMILES=O(C(C=1C=CC=CC1)(C=2C=CC=CC2)CC(=C)C=C)[Si](C)(C)C
accession=JP002418
date=2016.01.19 (Created 2008.10.21, modified 2011.05.06)
author=MASS SPECTROSCOPY SOC. OF JAPAN (MSSJ)
license=CC BY-NC-SA
exact mass=322.17529
ionization energy=70 eV
ion type=[M]+*
computed spectral entropy=2.1040946752476186
computed normalized entropy=0.6314422385608581
SPLASH=splash10-0ab9-6190000000-a3670ac34572c46515ad
submitter=submitter = University of Tokyo Team (Faculty of Engineering, University of Tokyo)
MoNA Rating=3.75

>  <NUM PEAKS>  (5827) 
28

>  <MASS SPECTRAL PEAKS>  (5827) 
45 6
47 1.25
53 1.25
59 1.85
73 69.45
74 6.1
75 10.99
77 3.14
91 4.6
105 2.68
112 1.76
115 1.55
125 2.4
128 1.45
141 1.48
155 1.47
165 2.9
178 1.5
191 1.55
202 1.29
215 1.65
217 1.77
231 1.64
232 3.93
239 2.25
255 99.99
256 23.18
257 6.19

$$$$

     RDKit          2D

 18 18  0  0  0  0  0  0  0  0999 V2000
    2.2610   -0.4990    0.0000 C   0  0  0  0  0  0  0  0  0  0  0  0
    4.3100   -1.0481    0.0000 C   0  0  0  0  0  0  0  0  0  0  0  0
    4.8590    1.0010    0.0000 C   0  0  0  0  0  0  0  0  0  0  0  0
   -3.1900    1.5500    0.0000 C   0  0  0  0  0  0  0  0  0  0  0  0
   -2.4400    0.2500    0.0000 C   0  0  0  0  0  0  0  0  0  0  0  0
   -2.4400    2.8500    0.0000 C   0  0  0  0  0  0  0  0  0  0  0  0
   -0.9400    0.2500    0.0000 C   0  0  0  0  0  0  0  0  0  0  0  0
   -0.9400    2.8500    0.0000 C   0  0  0  0  0  0  0  0  0  0  0  0
   -0.1900   -1.0500    0.0000 C   0  0  0  0  0  0  0  0  0  0  0  0
   -0.1900    4.1500    0.0000 C   0  0  0  0  0  0  0  0  0  0  0  0
    1.3100   -1.0500    0.0000 C   0  0  0  0  0  0  0  0  0  0  0  0
    1.3100    4.1500    0.0000 C   0  0  0  0  0  0  0  0  0  0  0  0
    2.0600    0.2500    0.0000 C   0  0  0  0  0  0  0  0  0  0  0  0
    2.0600    2.8500    0.0000 C   0  0  0  0  0  0  0  0  0  0  0  0
    1.3100    1.5500    0.0000 C   0  0  0  0  0  0  0  0  0  0  0  0
    3.5600    2.8500    0.0000 I   0  0  0  0  0  0  0  0  0  0  0  0
    2.8100    1.5500    0.0000 O   0  0  0  0  0  0  0  0  0  0  0  0
    3.5600    0.2510    0.0000 Si  0  0  0  0  0  4  0  0  0  0  0  0
  5  4  1  0
  6  4  1  0
  7  5  1  0
  8  6  1  0
  9  7  1  0
 10  8  1  0
 11  9  1  0
 12 10  1  0
 13 11  1  0
 14 12  1  0
 15 13  1  0
 15 14  1  0
 16 14  1  0
 17 15  1  0
 18  1  1  0
 18  2  1  0
 18  3  1  0
 18 17  1  0
M  END
>  <NAME>  (5828) 
1-IODO-2-TRIMETHYLSILOXYCYCLODODECANE

>  <SYNONYMS>  (5828) 


>  <SPECTRUM TYPE>  (5828) 
MS1

>  <INSTRUMENT TYPE>  (5828) 
EI-B

>  <INSTRUMENT>  (5828) 
JEOL JMS-D-3000

>  <ION MODE>  (5828) 
P

>  <INCHIKEY>  (5828) 
VWRHWBFXGSUGKF-UHFFFAOYSA-N

>  <FORMULA>  (5828) 
C15H31IOSi

>  <EXACT MASS>  (5828) 
382.118890142

>  <MW>  (5828) 
382

>  <ID>  (5828) 
JP002417

>  <CONTRIBUTOR>  (5828) 
University of Tokyo Team, {Faculty of Engineering, University of Tokyo

>  <COMMENT>  (5828) 
SMILES=C(C1)CCCCC(O[Si](C)(C)C)C(I)CCCC1
InChI=InChI=1S/C15H31IOSi/c1-18(2,3)17-15-13-11-9-7-5-4-6-8-10-12-14(15)16/h14-15H,4-13H2,1-3H3
computed SMILES=IC1CCCCCCCCCCC1O[Si](C)(C)C
accession=JP002417
date=2016.01.19 (Created 2008.10.21, modified 2011.05.06)
author=MASS SPECTROSCOPY SOC. OF JAPAN (MSSJ)
license=CC BY-NC-SA
exact mass=382.11889
ionization energy=70 eV
ion type=[M]+*
computed spectral entropy=3.699565787686826
computed normalized entropy=0.879865931370435
SPLASH=splash10-05e9-9410000000-99d356587dfd18188621
submitter=submitter = University of Tokyo Team (Faculty of Engineering, University of Tokyo)
MoNA Rating=3.75

>  <NUM PEAKS>  (5828) 
67

>  <MASS SPECTRAL PEAKS>  (5828) 
42 42.82
43 7.75
45 12.96
47 5.84
53 8.13
54 6.48
55 57.56
58 18.04
59 11.05
61 4.19
67 37.1
68 13.85
69 29.86
71 11.05
73 99.99
74 6.09
75 88.69
76 4.7
77 4.95
79 15.88
80 9.78
81 33.03
82 23.37
83 53.11
84 8.25
91 9.02
93 8.76
94 4.32
95 32.78
96 12.45
97 18.8
98 14.35
99 4.06
103 19.56
107 4.82
109 25.15
111 7.75
112 4.32
115 7.36
116 4.32
121 8.13
122 4.7
123 5.97
125 4.7
127 4.32
129 80.55
130 43.58
131 4.82
135 7.24
143 29.73
144 6.6
155 15.5
156 4.32
157 6.73
164 4.95
182 6.35
183 8.76
185 9.4
199 4.44
211 4.82
239 4.32
254 11.94
255 83.22
256 19.31
257 6.86
367 5.84
382 4.95

$$$$

     RDKit          2D

 19 18  0  0  0  0  0  0  0  0999 V2000
    3.2476    5.6250    0.0000 C   0  0  0  0  0  0  0  0  0  0  0  0
    1.9486    7.8750    0.0000 C   0  0  0  0  0  0  0  0  0  0  0  0
   -3.2476    7.8750    0.0000 C   0  0  0  0  0  0  0  0  0  0  0  0
   -9.7428    5.6250    0.0000 C   0  0  0  0  0  0  0  0  0  0  0  0
   -6.5957    4.6740    0.0000 C   0  0  0  0  0  0  0  0  0  0  0  0
   -7.1447    2.6250    0.0000 C   0  0  0  0  0  0  0  0  0  0  0  0
   -5.0957    2.0760    0.0000 C   0  0  0  0  0  0  0  0  0  0  0  0
   -0.6495    6.3750    0.0000 C   0  0  0  0  0  0  0  0  0  0  0  0
    0.6495    5.6250    0.0000 C   0  0  0  0  0  0  0  0  0  0  0  0
   -1.9486    5.6250    0.0000 C   0  0  0  0  0  0  0  0  0  0  0  0
   -5.8457    6.3750    0.0000 C   0  0  0  0  0  0  0  0  0  0  0  0
    1.9486    6.3750    0.0000 C   0  0  0  0  0  0  0  0  0  0  0  0
   -3.2476    6.3750    0.0000 C   0  0  0  0  0  0  0  0  0  0  0  0
   -8.4437    6.3750    0.0000 C   0  0  0  0  0  0  0  0  0  0  0  0
   -4.5466    5.6250    0.0000 C   0  0  0  0  0  0  0  0  0  0  0  0
   -8.4437    7.8750    0.0000 O   0  0  0  0  0  0  0  0  0  0  0  0
   -7.1447    5.6250    0.0000 O   0  0  0  0  0  0  0  0  0  0  0  0
   -4.5466    4.1250    0.0000 O   0  0  0  0  0  0  0  0  0  0  0  0
   -5.8457    3.3750    0.0000 Si  0  0  0  0  0  4  0  0  0  0  0  0
  9  8  1  0
 10  8  1  0
 12  1  1  0
 12  2  1  0
 12  9  2  0
 13  3  1  0
 10 13  2  0
 14  4  1  0
 15 11  1  0
 15 13  1  0
 16 14  2  0
 17 11  1  0
 17 14  1  0
 18 15  1  0
 19  5  1  0
 19  6  1  0
 19  7  1  0
 19 18  1  0
M  END
>  <NAME>  (5829) 
2-TRIMETHYLSILOXYGERANYL ACETATE

>  <SYNONYMS>  (5829) 
3,7-DIMETHYL-2-TRIMETHYLSILOXY-3,6-OCTADIENYL ACETATE

>  <SPECTRUM TYPE>  (5829) 
MS1

>  <INSTRUMENT TYPE>  (5829) 
EI-B

>  <INSTRUMENT>  (5829) 
JEOL JMS-D-3000

>  <ION MODE>  (5829) 
P

>  <INCHIKEY>  (5829) 
UMXASTJSQGQEKV-JLHYYAGUSA-N

>  <FORMULA>  (5829) 
C15H28O3Si

>  <EXACT MASS>  (5829) 
284.180771286

>  <MW>  (5829) 
284

>  <ID>  (5829) 
JP002416

>  <CONTRIBUTOR>  (5829) 
University of Tokyo Team, {Faculty of Engineering, University of Tokyo

>  <COMMENT>  (5829) 
SMILES=CC(C)=CCC=C(C)C(COC(C)=O)O[Si](C)(C)C
InChI=InChI=1S/C15H28O3Si/c1-12(2)9-8-10-13(3)15(11-17-14(4)16)18-19(5,6)7/h9-10,15H,8,11H2,1-7H3/b13-10+
computed SMILES=O=C(OCC(O[Si](C)(C)C)C(=CCC=C(C)C)C)C
accession=JP002416
date=2016.01.19 (Created 2008.10.21, modified 2011.05.06)
author=MASS SPECTROSCOPY SOC. OF JAPAN (MSSJ)
license=CC BY-NC-SA
exact mass=284.18077
ionization energy=70 eV
ion type=[M]+*
computed spectral entropy=2.83403312384548
computed normalized entropy=0.841634732121788
SPLASH=splash10-01x0-2930000000-99913a98b17ca933143d
submitter=submitter = University of Tokyo Team (Faculty of Engineering, University of Tokyo)
MoNA Rating=3.75

>  <NUM PEAKS>  (5829) 
29

>  <MASS SPECTRAL PEAKS>  (5829) 
43 6.2
69 5.15
73 26.7
75 8.45
79 7.05
82 11.2
93 32.1
105 5.35
117 25
119 24.8
121 75.75
122 8.25
131 99.99
132 12.4
133 10.15
134 47.95
135 9.75
155 8.25
175 15.95
181 6.05
194 20.3
209 8.65
211 89.4
212 16.4
215 5.3
224 8.35
228 7.05
229 1.25
284 0.6

$$$$

     RDKit          2D

 17 17  0  0  0  0  0  0  0  0999 V2000
    5.1975   -1.4994    0.0000 C   0  0  0  0  0  0  0  0  0  0  0  0
    2.5994   -1.4998    0.0000 C   0  0  0  0  0  0  0  0  0  0  0  0
   -2.5989   -1.5002    0.0000 C   0  0  0  0  0  0  0  0  0  0  0  0
    5.7464   -0.5483    0.0000 C   0  0  0  0  0  0  0  0  0  0  0  0
    7.7953    0.0010    0.0000 C   0  0  0  0  0  0  0  0  0  0  0  0
    7.2459    2.0500    0.0000 C   0  0  0  0  0  0  0  0  0  0  0  0
   -1.3000    0.7500    0.0000 C   0  0  0  0  0  0  0  0  0  0  0  0
    0.0000   -1.5000    0.0000 C   0  0  0  0  0  0  0  0  0  0  0  0
    0.0000    1.5000    0.0000 C   0  0  0  0  0  0  0  0  0  0  0  0
    1.3000   -0.7500    0.0000 C   0  0  0  0  0  0  0  0  0  0  0  0
    2.5989    1.5002    0.0000 C   0  0  0  0  0  0  0  0  0  0  0  0
    3.8983   -0.7496    0.0000 C   0  0  0  0  0  0  0  0  0  0  0  0
   -1.3000   -0.7500    0.0000 C   0  0  0  0  0  0  0  0  0  0  0  0
    1.3000    0.7500    0.0000 C   0  0  0  0  0  0  0  0  0  0  0  0
    3.8981    0.7504    0.0000 C   0  0  0  0  0  0  0  0  0  0  0  0
    5.1970    1.5006    0.0000 O   0  0  0  0  0  0  0  0  0  0  0  0
    6.4962    0.7508    0.0000 Si  0  0  0  0  0  4  0  0  0  0  0  0
  9  7  2  0
 10  8  1  0
 12  1  1  0
 12  2  1  0
 13  3  1  0
 13  7  1  0
 13  8  2  0
 14  9  1  0
 14 10  2  0
 14 11  1  0
 15 11  1  0
 15 12  2  0
 16 15  1  0
 17  4  1  0
 17  5  1  0
 17  6  1  0
 17 16  1  0
M  END
>  <NAME>  (5830) 
3-METHYL-1-PARA-TOLYL-2-TRIMETHYLSILOXY-2-BUTENE

>  <SYNONYMS>  (5830) 


>  <SPECTRUM TYPE>  (5830) 
MS1

>  <INSTRUMENT TYPE>  (5830) 
EI-B

>  <INSTRUMENT>  (5830) 
JEOL JMS-D-3000

>  <ION MODE>  (5830) 
P

>  <INCHIKEY>  (5830) 
VORDKEHQNNRQAM-UHFFFAOYSA-N

>  <FORMULA>  (5830) 
C15H24OSi

>  <EXACT MASS>  (5830) 
248.15964191799998

>  <MW>  (5830) 
248

>  <ID>  (5830) 
JP002415

>  <CONTRIBUTOR>  (5830) 
University of Tokyo Team, {Faculty of Engineering, University of Tokyo

>  <COMMENT>  (5830) 
SMILES=Cc(c1)ccc(c1)CC(=C(C)C)O[Si](C)(C)C
InChI=InChI=1S/C15H24OSi/c1-12(2)15(16-17(4,5)6)11-14-9-7-13(3)8-10-14/h7-10H,11H2,1-6H3
computed SMILES=O(C(=C(C)C)CC1=CC=C(C=C1)C)[Si](C)(C)C
accession=JP002415
date=2016.01.19 (Created 2008.10.21, modified 2011.05.06)
author=MASS SPECTROSCOPY SOC. OF JAPAN (MSSJ)
license=CC BY-NC-SA
exact mass=248.15964
ionization energy=70 eV
ion type=[M]+*
computed spectral entropy=2.5632732331774655
computed normalized entropy=0.7777306151335764
SPLASH=splash10-00dj-9230000000-5fa5796fefea7eb5c8e2
submitter=submitter = University of Tokyo Team (Faculty of Engineering, University of Tokyo)
MoNA Rating=3.75

>  <NUM PEAKS>  (5830) 
27

>  <MASS SPECTRAL PEAKS>  (5830) 
41 4.82
42 2.33
43 4.94
45 15.91
47 2.7
70 3.51
71 2.86
73 99.99
74 8.5
75 44.36
76 3.48
77 4.32
105 8.1
119 6.9
128 2.72
141 7.04
142 2.98
143 19.26
144 2.81
157 4.48
159 7.07
191 4.08
233 15.64
234 3.53
248 45.49
249 9.63
250 2.65

$$$$

     RDKit          2D

 16 16  0  0  0  0  0  0  0  0999 V2000
    5.0600    2.8490    0.0000 C   0  0  0  0  0  0  0  0  0  0  0  0
    2.8100    4.1481    0.0000 C   0  0  0  0  0  0  0  0  0  0  0  0
   -3.1900    1.5500    0.0000 C   0  0  0  0  0  0  0  0  0  0  0  0
   -2.4400    0.2500    0.0000 C   0  0  0  0  0  0  0  0  0  0  0  0
   -2.4400    2.8500    0.0000 C   0  0  0  0  0  0  0  0  0  0  0  0
   -0.9400    0.2500    0.0000 C   0  0  0  0  0  0  0  0  0  0  0  0
   -0.9400    2.8500    0.0000 C   0  0  0  0  0  0  0  0  0  0  0  0
   -0.1900   -1.0500    0.0000 C   0  0  0  0  0  0  0  0  0  0  0  0
   -0.1900    4.1500    0.0000 C   0  0  0  0  0  0  0  0  0  0  0  0
    1.3100   -1.0500    0.0000 C   0  0  0  0  0  0  0  0  0  0  0  0
    1.3100    4.1500    0.0000 C   0  0  0  0  0  0  0  0  0  0  0  0
    2.0600    0.2500    0.0000 C   0  0  0  0  0  0  0  0  0  0  0  0
    2.0600    2.8500    0.0000 C   0  0  0  0  0  0  0  0  0  0  0  0
    1.3100    1.5500    0.0000 C   0  0  0  0  0  0  0  0  0  0  0  0
    2.8100    1.5500    0.0000 N   0  0  0  0  0  0  0  0  0  0  0  0
    3.5600    2.8490    0.0000 N   0  0  0  0  0  0  0  0  0  0  0  0
  4  3  1  0
  5  3  1  0
  6  4  1  0
  7  5  1  0
  8  6  1  0
  9  7  1  0
 10  8  1  0
 11  9  1  0
 12 10  1  0
 13 11  1  0
 14 12  1  0
 14 13  1  0
 15 14  2  3
 16  1  1  0
 16  2  1  0
 16 15  1  0
M  END
>  <NAME>  (5831) 
N-DIMETHYLAMINOCYCLODODECANIMINE

>  <SYNONYMS>  (5831) 
CYCLODODECANONE DIMETHYLHYDRAZONE

>  <SPECTRUM TYPE>  (5831) 
MS1

>  <INSTRUMENT TYPE>  (5831) 
EI-B

>  <INSTRUMENT>  (5831) 
JEOL JMS-D-3000

>  <ION MODE>  (5831) 
P

>  <INCHIKEY>  (5831) 
CJCDXLQSYITABD-UHFFFAOYSA-N

>  <FORMULA>  (5831) 
C14H28N2

>  <EXACT MASS>  (5831) 
224.22524889599998

>  <MW>  (5831) 
224

>  <ID>  (5831) 
JP002414

>  <CONTRIBUTOR>  (5831) 
University of Tokyo Team, {Faculty of Engineering, University of Tokyo

>  <COMMENT>  (5831) 
SMILES=CN(C)N=C(C1)CCCCCCCCCC1
InChI=InChI=1S/C14H28N2/c1-16(2)15-14-12-10-8-6-4-3-5-7-9-11-13-14/h3-13H2,1-2H3
computed SMILES=N(=C1CCCCCCCCCCC1)N(C)C
accession=JP002414
date=2016.01.19 (Created 2008.10.21, modified 2011.05.06)
author=MASS SPECTROSCOPY SOC. OF JAPAN (MSSJ)
license=CC BY-NC-SA
exact mass=224.22525
ionization energy=70 eV
ion type=[M]+*
computed spectral entropy=3.876782105788361
computed normalized entropy=0.9718720507612575
SPLASH=splash10-052f-9300000000-c319e2b09d70cab1cf37
submitter=submitter = University of Tokyo Team (Faculty of Engineering, University of Tokyo)
MoNA Rating=3.75

>  <NUM PEAKS>  (5831) 
54

>  <MASS SPECTRAL PEAKS>  (5831) 
41 99.99
42 44.59
43 70.27
45 40.54
46 31.08
53 20.27
54 24.32
55 85.13
56 25.67
57 66.21
58 62.16
59 35.13
60 89.18
67 29.72
68 20.27
69 62.16
70 31.08
71 41.89
72 32.43
73 14.86
79 31.08
80 27.02
81 36.48
82 32.43
83 52.7
84 21.62
85 27.02
86 44.59
91 24.32
93 27.02
94 24.32
95 41.89
96 24.32
97 35.13
98 12.16
99 33.78
100 29.72
108 24.32
109 33.78
110 31.08
111 35.13
112 32.43
113 29.72
121 12.16
122 24.32
123 33.78
124 31.08
125 35.13
135 28.37
137 22.97
149 24.32
180 27.02
182 24.32
224 14.86

$$$$

     RDKit          2D

 16 16  0  0  0  0  0  0  0  0999 V2000
   -0.3240    4.6329    0.0000 C   0  0  0  0  0  0  0  0  0  0  0  0
   -0.3240   -1.3671    0.0000 C   0  0  0  0  0  0  0  0  0  0  0  0
    0.2250   -0.4161    0.0000 C   0  0  0  0  0  0  0  0  0  0  0  0
    2.2740    0.1329    0.0000 C   0  0  0  0  0  0  0  0  0  0  0  0
    1.7250    2.1820    0.0000 C   0  0  0  0  0  0  0  0  0  0  0  0
   -0.3240    3.1329    0.0000 C   0  0  0  0  0  0  0  0  0  0  0  0
   -5.5202    3.1329    0.0000 C   0  0  0  0  0  0  0  0  0  0  0  0
   -5.5207    1.6321    0.0000 C   0  0  0  0  0  0  0  0  0  0  0  0
   -4.2207    3.8837    0.0000 C   0  0  0  0  0  0  0  0  0  0  0  0
   -4.2216    0.8821    0.0000 C   0  0  0  0  0  0  0  0  0  0  0  0
   -2.9216    3.1337    0.0000 C   0  0  0  0  0  0  0  0  0  0  0  0
   -2.9221    1.6329    0.0000 C   0  0  0  0  0  0  0  0  0  0  0  0
   -0.3240    1.6329    0.0000 C   0  0  0  0  0  0  0  0  0  0  0  0
   -1.6231    0.8829    0.0000 C   0  0  0  0  0  0  0  0  0  0  0  0
   -1.6231   -0.6171    0.0000 O   0  0  0  0  0  0  0  0  0  0  0  0
    0.9750    0.8829    0.0000 Si  0  0  0  0  0  4  0  0  0  0  0  0
  6  1  2  0
  8  7  2  0
  9  7  1  0
 10  8  1  0
 11  9  2  0
 12 10  2  0
 12 11  1  0
 13  6  2  0
 14 12  1  0
 14 13  1  0
 15  2  1  0
 15 14  1  0
 16  3  1  0
 16  4  1  0
 16  5  1  0
 16 13  1  0
M  END
>  <NAME>  (5832) 
4-METHOXY-4-PHENYL-3-TRIMETHYLSILYL-1,2-BUTADIENE

>  <SYNONYMS>  (5832) 


>  <SPECTRUM TYPE>  (5832) 
MS1

>  <INSTRUMENT TYPE>  (5832) 
EI-B

>  <INSTRUMENT>  (5832) 
JEOL JMS-D-3000

>  <ION MODE>  (5832) 
P

>  <INCHIKEY>  (5832) 
NDPBSSRBORGJGZ-UHFFFAOYSA-N

>  <FORMULA>  (5832) 
C14H20OSi

>  <EXACT MASS>  (5832) 
232.12834179

>  <MW>  (5832) 
232

>  <ID>  (5832) 
JP002413

>  <CONTRIBUTOR>  (5832) 
University of Tokyo Team, {Faculty of Engineering, University of Tokyo

>  <COMMENT>  (5832) 
SMILES=COC(c(c1)cccc1)C(=C=C)[Si](C)(C)C
InChI=InChI=1S/C14H20OSi/c1-6-13(16(3,4)5)14(15-2)12-10-8-7-9-11-12/h7-11,14H,1H2,2-5H3
computed SMILES=C(=C)=C(C(OC)C=1C=CC=CC1)[Si](C)(C)C
accession=JP002413
date=2016.01.19 (Created 2008.10.21, modified 2011.05.06)
author=MASS SPECTROSCOPY SOC. OF JAPAN (MSSJ)
license=CC BY-NC-SA
exact mass=232.12834
ionization energy=70 eV
ion type=[M]+*
computed spectral entropy=2.1602037757117682
computed normalized entropy=0.6630263254948172
SPLASH=splash10-00dr-7900000000-7efa0f44c0c89b962634
submitter=submitter = University of Tokyo Team (Faculty of Engineering, University of Tokyo)
MoNA Rating=3.75

>  <NUM PEAKS>  (5832) 
26

>  <MASS SPECTRAL PEAKS>  (5832) 
59 3.59
73 19.86
74 1.71
75 1.2
77 12.38
78 1.31
89 70.59
90 6.11
91 13.06
92 1.1
93 1.63
96 1.28
105 3.13
106 1.26
122 99.99
123 6.22
127 2.1
128 34.97
129 4.1
158 1.78
159 3.27
185 3.72
200 1.28
201 1.13
217 3.24
232 0.19

$$$$

     RDKit          2D

 16 17  0  0  0  0  0  0  0  0999 V2000
    0.0011   -1.9302    0.0000 C   0  0  0  0  0  0  0  0  0  0  0  0
    5.1972    2.5698    0.0000 C   0  0  0  0  0  0  0  0  0  0  0  0
    3.8977    3.3206    0.0000 C   0  0  0  0  0  0  0  0  0  0  0  0
    5.1977    1.0690    0.0000 C   0  0  0  0  0  0  0  0  0  0  0  0
   -1.2986    3.3217    0.0000 C   0  0  0  0  0  0  0  0  0  0  0  0
   -2.5977    2.5719    0.0000 C   0  0  0  0  0  0  0  0  0  0  0  0
    2.5987    2.5706    0.0000 C   0  0  0  0  0  0  0  0  0  0  0  0
    3.8987    0.3190    0.0000 C   0  0  0  0  0  0  0  0  0  0  0  0
    0.0008    2.5706    0.0000 C   0  0  0  0  0  0  0  0  0  0  0  0
   -2.5975    1.0710    0.0000 C   0  0  0  0  0  0  0  0  0  0  0  0
    2.5992    1.0698    0.0000 C   0  0  0  0  0  0  0  0  0  0  0  0
    0.0011    1.0698    0.0000 C   0  0  0  0  0  0  0  0  0  0  0  0
   -1.2981    0.3200    0.0000 C   0  0  0  0  0  0  0  0  0  0  0  0
    1.3001    0.3198    0.0000 C   0  0  0  0  0  0  0  0  0  0  0  0
   -1.2986   -1.1800    0.0000 O   0  0  0  0  0  0  0  0  0  0  0  0
    1.3001   -1.1802    0.0000 O   0  0  0  0  0  0  0  0  0  0  0  0
  3  2  2  0
  4  2  1  0
  6  5  1  0
  7  3  1  0
  8  4  2  0
  9  5  1  0
 10  6  1  0
 11  7  2  0
 11  8  1  0
 12  9  1  0
 13 10  1  0
 13 12  1  0
 14 11  1  0
 14 12  1  0
 15 13  2  0
 16  1  1  0
 16 14  1  0
M  END
>  <NAME>  (5833) 
2-(I-METHOXYBENZYL)CYCLOHEXANONE

>  <SYNONYMS>  (5833) 


>  <SPECTRUM TYPE>  (5833) 
MS1

>  <INSTRUMENT TYPE>  (5833) 
EI-B

>  <INSTRUMENT>  (5833) 
JEOL JMS-D-3000

>  <ION MODE>  (5833) 
P

>  <INCHIKEY>  (5833) 
LRFLORXTZQEIMB-UHFFFAOYSA-N

>  <FORMULA>  (5833) 
C14H18O2

>  <EXACT MASS>  (5833) 
218.130679816

>  <MW>  (5833) 
218

>  <ID>  (5833) 
JP002412

>  <CONTRIBUTOR>  (5833) 
University of Tokyo Team, {Faculty of Engineering, University of Tokyo

>  <COMMENT>  (5833) 
SMILES=COC(c(c2)cccc2)C(C1)C(=O)CCC1
InChI=InChI=1S/C14H18O2/c1-16-14(11-7-3-2-4-8-11)12-9-5-6-10-13(12)15/h2-4,7-8,12,14H,5-6,9-10H2,1H3
computed SMILES=O=C1CCCCC1C(OC)C=2C=CC=CC2
accession=JP002412
date=2016.01.19 (Created 2008.10.21, modified 2011.05.06)
author=MASS SPECTROSCOPY SOC. OF JAPAN (MSSJ)
license=CC BY-NC-SA
exact mass=218.13068
ionization energy=70 eV
ion type=[M]+*
computed spectral entropy=1.8227935122194225
computed normalized entropy=0.5897018691021267
SPLASH=splash10-00di-2900000000-5f1b263d875c2a232b0a
submitter=submitter = University of Tokyo Team (Faculty of Engineering, University of Tokyo)
MoNA Rating=3.75

>  <NUM PEAKS>  (5833) 
22

>  <MASS SPECTRAL PEAKS>  (5833) 
42 3.91
51 3.08
55 2.51
65 2.05
67 1.12
77 11.93
78 2.32
91 9.44
103 1.16
105 8.08
115 3.18
117 2.35
121 99.99
122 9.51
128 1.29
129 1.92
130 1.35
185 1.45
186 1.55
189 1.69
203 1.69
218 1.22

$$$$

     RDKit          2D

 15 15  0  0  0  0  0  0  0  0999 V2000
   -6.8197    3.1321    0.0000 C   0  0  0  0  0  0  0  0  0  0  0  0
   -4.2216    7.6321    0.0000 C   0  0  0  0  0  0  0  0  0  0  0  0
   -5.5207    3.8821    0.0000 C   0  0  0  0  0  0  0  0  0  0  0  0
   -4.2216    6.1321    0.0000 C   0  0  0  0  0  0  0  0  0  0  0  0
    3.5726    1.6321    0.0000 C   0  0  0  0  0  0  0  0  0  0  0  0
    3.5731    3.1329    0.0000 C   0  0  0  0  0  0  0  0  0  0  0  0
    2.2731    0.8813    0.0000 C   0  0  0  0  0  0  0  0  0  0  0  0
   -4.2216    3.1321    0.0000 C   0  0  0  0  0  0  0  0  0  0  0  0
    2.2740    3.8829    0.0000 C   0  0  0  0  0  0  0  0  0  0  0  0
    0.9740    1.6313    0.0000 C   0  0  0  0  0  0  0  0  0  0  0  0
   -0.3245    3.8821    0.0000 C   0  0  0  0  0  0  0  0  0  0  0  0
   -1.6236    3.1321    0.0000 C   0  0  0  0  0  0  0  0  0  0  0  0
    0.9745    3.1321    0.0000 C   0  0  0  0  0  0  0  0  0  0  0  0
   -2.9226    3.8821    0.0000 C   0  0  0  0  0  0  0  0  0  0  0  0
   -2.9226    5.3821    0.0000 O   0  0  0  0  0  0  0  0  0  0  0  0
  3  1  2  0
  4  2  1  0
  6  5  2  0
  7  5  1  0
  8  3  1  0
  9  6  1  0
 10  7  2  0
 11 12  2  0
 13  9  2  0
 13 10  1  0
 13 11  1  0
 14  8  1  0
 14 12  1  0
 15  4  1  0
 15 14  1  0
M  END
>  <NAME>  (5834) 
3-ETHOXY-1-PHENYL-1,5-HEXADIENE

>  <SYNONYMS>  (5834) 


>  <SPECTRUM TYPE>  (5834) 
MS1

>  <INSTRUMENT TYPE>  (5834) 
EI-B

>  <INSTRUMENT>  (5834) 
JEOL JMS-D-3000

>  <ION MODE>  (5834) 
P

>  <INCHIKEY>  (5834) 
WTTVTGXLZBPQGO-VAWYXSNFSA-N

>  <FORMULA>  (5834) 
C14H18O

>  <EXACT MASS>  (5834) 
202.135765196

>  <MW>  (5834) 
202

>  <ID>  (5834) 
JP002411

>  <CONTRIBUTOR>  (5834) 
University of Tokyo Team, {Faculty of Engineering, University of Tokyo

>  <COMMENT>  (5834) 
SMILES=C=CCC(OCC)C=Cc(c1)cccc1
InChI=InChI=1S/C14H18O/c1-3-8-14(15-4-2)12-11-13-9-6-5-7-10-13/h3,5-7,9-12,14H,1,4,8H2,2H3/b12-11+
computed SMILES=O(CC)C(C=CC=1C=CC=CC1)CC=C
accession=JP002411
date=2016.01.19 (Created 2008.10.21, modified 2011.05.06)
author=MASS SPECTROSCOPY SOC. OF JAPAN (MSSJ)
license=CC BY-NC-SA
exact mass=202.13577
ionization energy=70 eV
ion type=[M]+*
computed spectral entropy=2.609898636693406
computed normalized entropy=0.7750725711271674
SPLASH=splash10-03e9-3900000000-3059a5b1b359efaed894
submitter=submitter = University of Tokyo Team (Faculty of Engineering, University of Tokyo)
MoNA Rating=3.75

>  <NUM PEAKS>  (5834) 
29

>  <MASS SPECTRAL PEAKS>  (5834) 
42 6.39
51 5.56
55 32.77
63 2.65
65 3.32
76 2.01
77 15.2
78 5.64
79 5.68
89 2.27
91 15.35
102 3.25
103 11.06
104 4.07
105 11.06
115 36.8
116 4.74
117 2.09
127 2.13
128 5.64
129 5
131 7.66
132 1.98
133 66.25
134 6.76
141 2.46
156 2.01
161 99.99
162 12.63

$$$$

     RDKit          2D

 15 15  0  0  0  0  0  0  0  0999 V2000
   -5.2353    2.6378    0.0000 C   0  0  0  0  0  0  0  0  0  0  0  0
    0.4120    5.1965    0.0000 C   0  0  0  0  0  0  0  0  0  0  0  0
   -2.6372    4.1378    0.0000 C   0  0  0  0  0  0  0  0  0  0  0  0
   -3.9363    1.8878    0.0000 C   0  0  0  0  0  0  0  0  0  0  0  0
    0.9250    3.7869    0.0000 C   0  0  0  0  0  0  0  0  0  0  0  0
    3.8579    0.3878    0.0000 C   0  0  0  0  0  0  0  0  0  0  0  0
    3.8584    1.8887    0.0000 C   0  0  0  0  0  0  0  0  0  0  0  0
    2.5584   -0.3630    0.0000 C   0  0  0  0  0  0  0  0  0  0  0  0
    2.5594    2.6387    0.0000 C   0  0  0  0  0  0  0  0  0  0  0  0
    1.2594    0.3870    0.0000 C   0  0  0  0  0  0  0  0  0  0  0  0
   -1.3382    1.8878    0.0000 C   0  0  0  0  0  0  0  0  0  0  0  0
   -2.6372    2.6378    0.0000 C   0  0  0  0  0  0  0  0  0  0  0  0
    1.2599    1.8878    0.0000 C   0  0  0  0  0  0  0  0  0  0  0  0
   -0.0392    2.6378    0.0000 C   0  0  0  0  0  0  0  0  0  0  0  0
   -1.0034    3.7869    0.0000 O   0  0  0  0  0  0  0  0  0  0  0  0
  4  1  2  0
  5  2  1  0
  7  6  2  0
  8  6  1  0
  9  7  1  0
 10  8  2  0
 12  3  2  0
 12  4  1  0
 12 11  1  0
 13  9  2  0
 13 10  1  0
 14  5  1  0
 14 11  1  0
 14 13  1  0
 15 14  1  0
M  END
>  <NAME>  (5835) 
5-METHYLENE-3-PHENYL-6-HEPTEN-3-OL

>  <SYNONYMS>  (5835) 


>  <SPECTRUM TYPE>  (5835) 
MS1

>  <INSTRUMENT TYPE>  (5835) 
EI-B

>  <INSTRUMENT>  (5835) 
JEOL JMS-D-3000

>  <ION MODE>  (5835) 
P

>  <INCHIKEY>  (5835) 
WPSCHDLKCBWLIC-UHFFFAOYSA-N

>  <FORMULA>  (5835) 
C14H18O

>  <EXACT MASS>  (5835) 
202.135765196

>  <MW>  (5835) 
202

>  <ID>  (5835) 
JP002410

>  <CONTRIBUTOR>  (5835) 
University of Tokyo Team, {Faculty of Engineering, University of Tokyo

>  <COMMENT>  (5835) 
SMILES=C=CC(=C)CC(O)(CC)c(c1)cccc1
InChI=InChI=1S/C14H18O/c1-4-12(3)11-14(15,5-2)13-9-7-6-8-10-13/h4,6-10,15H,1,3,5,11H2,2H3
computed SMILES=OC(C=1C=CC=CC1)(CC(=C)C=C)CC
accession=JP002410
date=2016.01.19 (Created 2008.10.21, modified 2011.05.06)
author=MASS SPECTROSCOPY SOC. OF JAPAN (MSSJ)
license=CC BY-NC-SA
exact mass=202.13577
ionization energy=70 eV
ion type=[M]+*
computed spectral entropy=2.672779885083212
computed normalized entropy=0.7937466798377344
SPLASH=splash10-0a4r-6900000000-f6b625fd6f0923b2c4cd
submitter=submitter = University of Tokyo Team (Faculty of Engineering, University of Tokyo)
MoNA Rating=3.75

>  <NUM PEAKS>  (5835) 
29

>  <MASS SPECTRAL PEAKS>  (5835) 
41 7.54
43 10.57
51 8.61
53 4.45
57 67.25
65 4.16
67 3.5
68 3.87
77 23.91
78 4.57
79 3.76
91 14.04
93 5.88
105 32.12
106 3.63
115 8.56
117 4.7
128 4.78
129 5.5
135 99.99
136 10.15
141 4.33
153 3.47
154 4.54
155 23.54
156 3.62
169 7.55
184 7.78
202 0.12

$$$$

     RDKit          2D

 15 14  0  0  0  0  0  0  0  0999 V2000
    5.6813    1.9785    0.0000 C   0  0  0  0  0  0  0  0  0  0  0  0
    3.0832    0.4785    0.0000 C   0  0  0  0  0  0  0  0  0  0  0  0
    5.1323   -0.0706    0.0000 C   0  0  0  0  0  0  0  0  0  0  0  0
   -0.5977    5.3265    0.0000 C   0  0  0  0  0  0  0  0  0  0  0  0
   -2.0977    3.8265    0.0000 C   0  0  0  0  0  0  0  0  0  0  0  0
   -0.5977    2.3265    0.0000 C   0  0  0  0  0  0  0  0  0  0  0  0
    5.0418    3.0405    0.0000 C   0  0  0  0  0  0  0  0  0  0  0  0
    3.3718    4.0047    0.0000 C   0  0  0  0  0  0  0  0  0  0  0  0
    2.3118    4.3396    0.0000 C   0  0  0  0  0  0  0  0  0  0  0  0
    0.6418    5.3037    0.0000 C   0  0  0  0  0  0  0  0  0  0  0  0
    4.3823    1.2285    0.0000 C   0  0  0  0  0  0  0  0  0  0  0  0
   -0.5977    3.8265    0.0000 C   0  0  0  0  0  0  0  0  0  0  0  0
    1.6523    2.5275    0.0000 O   0  0  0  0  0  0  0  0  0  0  0  0
    3.6323    2.5275    0.0000 Si  0  0  0  0  0  4  0  0  0  0  0  0
    0.9023    3.8265    0.0000 Si  0  0  0  0  0  4  0  0  0  0  0  0
 11  1  1  0
 11  2  1  0
 11  3  1  0
 12  4  1  0
 12  5  1  0
 12  6  1  0
 14  7  1  0
 14  8  1  0
 14 11  1  0
 14 13  1  0
 15  9  1  0
 15 10  1  0
 15 12  1  0
 15 13  1  0
M  END
>  <NAME>  (5836) 
BIS(TERT-BUTYLDIMETHYLSILYL) ETHER

>  <SYNONYMS>  (5836) 


>  <SPECTRUM TYPE>  (5836) 
MS1

>  <INSTRUMENT TYPE>  (5836) 
EI-B

>  <INSTRUMENT>  (5836) 
JEOL JMS-D-3000

>  <ION MODE>  (5836) 
P

>  <INCHIKEY>  (5836) 
FGTJJHCZWOVVNH-UHFFFAOYSA-N

>  <FORMULA>  (5836) 
C12H30OSi2

>  <EXACT MASS>  (5836) 
246.18351864

>  <MW>  (5836) 
246

>  <ID>  (5836) 
JP002409

>  <CONTRIBUTOR>  (5836) 
University of Tokyo Team, {Faculty of Engineering, University of Tokyo

>  <COMMENT>  (5836) 
SMILES=CC(C)(C)[Si](C)(C)O[Si](C)(C)C(C)(C)C
InChI=InChI=1S/C12H30OSi2/c1-11(2,3)14(7,8)13-15(9,10)12(4,5)6/h1-10H3
computed SMILES=O([Si](C)(C)C(C)(C)C)[Si](C)(C)C(C)(C)C
accession=JP002409
date=2016.01.19 (Created 2008.10.21, modified 2011.05.06)
author=MASS SPECTROSCOPY SOC. OF JAPAN (MSSJ)
license=CC BY-NC-SA
exact mass=246.18352
ionization energy=70 eV
ion type=[M]+*
computed spectral entropy=1.9206536133016179
computed normalized entropy=0.641129926815205
SPLASH=splash10-0002-1900000000-71bc412104d55ee124c9
submitter=submitter = University of Tokyo Team (Faculty of Engineering, University of Tokyo)
MoNA Rating=3.75

>  <NUM PEAKS>  (5836) 
20

>  <MASS SPECTRAL PEAKS>  (5836) 
42 1.99
45 2
57 1.49
59 3.59
66 2.37
73 14.74
74 1.33
75 1.3
117 4.18
119 1
131 4
133 5.22
147 99.99
148 15.83
149 7.92
189 27.02
190 5.24
191 2.34
231 1.16
246 0.77

$$$$

     RDKit          2D

 14 14  0  0  0  0  0  0  0  0999 V2000
    3.2474    5.2504    0.0000 C   0  0  0  0  0  0  0  0  0  0  0  0
    4.5468    3.0006    0.0000 C   0  0  0  0  0  0  0  0  0  0  0  0
    4.5470    1.5006    0.0000 C   0  0  0  0  0  0  0  0  0  0  0  0
   -1.9500    0.7500    0.0000 C   0  0  0  0  0  0  0  0  0  0  0  0
   -1.9500   -0.7500    0.0000 C   0  0  0  0  0  0  0  0  0  0  0  0
   -0.6500    1.5000    0.0000 C   0  0  0  0  0  0  0  0  0  0  0  0
   -0.6500   -1.5000    0.0000 C   0  0  0  0  0  0  0  0  0  0  0  0
    1.9487    3.0002    0.0000 C   0  0  0  0  0  0  0  0  0  0  0  0
    3.2476    3.7504    0.0000 C   0  0  0  0  0  0  0  0  0  0  0  0
    0.6500    0.7500    0.0000 C   0  0  0  0  0  0  0  0  0  0  0  0
    0.6500   -0.7500    0.0000 C   0  0  0  0  0  0  0  0  0  0  0  0
    1.9489    1.5002    0.0000 C   0  0  0  0  0  0  0  0  0  0  0  0
    1.9489   -1.5002    0.0000 O   0  0  0  0  0  0  0  0  0  0  0  0
    3.2481    0.7504    0.0000 O   0  0  0  0  0  0  0  0  0  0  0  0
  5  4  1  0
  6  4  1  0
  7  5  1  0
  9  1  1  0
  9  2  1  0
  9  8  1  0
 10  6  1  0
 11  7  1  0
 11 10  1  0
 12  8  1  0
 12 10  1  0
 13 11  2  0
 14  3  1  0
 14 12  1  0
M  END
>  <NAME>  (5837) 
2-(1-METHOXY-3-METHYLBUTYL)CYCLOHEXANONE

>  <SYNONYMS>  (5837) 


>  <SPECTRUM TYPE>  (5837) 
MS1

>  <INSTRUMENT TYPE>  (5837) 
EI-B

>  <INSTRUMENT>  (5837) 
JEOL JMS-D-3000

>  <ION MODE>  (5837) 
P

>  <INCHIKEY>  (5837) 
VYNARGPIYFNYEH-UHFFFAOYSA-N

>  <FORMULA>  (5837) 
C12H22O2

>  <EXACT MASS>  (5837) 
198.161979944

>  <MW>  (5837) 
198

>  <ID>  (5837) 
JP002408

>  <CONTRIBUTOR>  (5837) 
University of Tokyo Team, {Faculty of Engineering, University of Tokyo

>  <COMMENT>  (5837) 
SMILES=COC(CC(C)C)C(C1)C(=O)CCC1
InChI=InChI=1S/C12H22O2/c1-9(2)8-12(14-3)10-6-4-5-7-11(10)13/h9-10,12H,4-8H2,1-3H3
computed SMILES=O=C1CCCCC1C(OC)CC(C)C
accession=JP002408
date=2016.01.19 (Created 2008.10.21, modified 2011.05.06)
author=MASS SPECTROSCOPY SOC. OF JAPAN (MSSJ)
license=CC BY-NC-SA
exact mass=198.16198
ionization energy=70 eV
ion type=[M]+*
computed spectral entropy=2.92982347716144
computed normalized entropy=0.8889467520015268
SPLASH=splash10-0fry-9400000000-8461628784313398a15b
submitter=submitter = University of Tokyo Team (Faculty of Engineering, University of Tokyo)
MoNA Rating=3.75

>  <NUM PEAKS>  (5837) 
27

>  <MASS SPECTRAL PEAKS>  (5837) 
42 36.81
43 25.66
45 55.29
53 7.25
55 15.97
57 6.97
59 42.07
67 12.27
69 85.8
70 7.79
71 19.91
81 61.44
82 6.57
85 21.16
95 7.12
97 15.74
98 25.32
100 12.85
101 99.99
102 6.54
109 11.18
111 13.11
123 6.95
141 54.08
166 19.26
169 11.36
198 10.11

$$$$

     RDKit          2D

 14 14  0  0  0  0  0  0  0  0999 V2000
   -3.5733    3.1877    0.0000 C   0  0  0  0  0  0  0  0  0  0  0  0
    0.3234    5.4383    0.0000 C   0  0  0  0  0  0  0  0  0  0  0  0
   -2.2742    2.4379    0.0000 C   0  0  0  0  0  0  0  0  0  0  0  0
   -0.9753    3.1881    0.0000 C   0  0  0  0  0  0  0  0  0  0  0  0
    4.2220    0.1870    0.0000 C   0  0  0  0  0  0  0  0  0  0  0  0
    5.5210    0.9370    0.0000 C   0  0  0  0  0  0  0  0  0  0  0  0
    2.9224    0.9379    0.0000 C   0  0  0  0  0  0  0  0  0  0  0  0
    5.5205    2.4379    0.0000 C   0  0  0  0  0  0  0  0  0  0  0  0
    0.3239    2.4383    0.0000 C   0  0  0  0  0  0  0  0  0  0  0  0
    2.9220    2.4387    0.0000 C   0  0  0  0  0  0  0  0  0  0  0  0
    4.2210    3.1887    0.0000 C   0  0  0  0  0  0  0  0  0  0  0  0
    1.6228    3.1885    0.0000 C   0  0  0  0  0  0  0  0  0  0  0  0
    4.2212    4.6887    0.0000 O   0  0  0  0  0  0  0  0  0  0  0  0
    1.6226    4.6885    0.0000 O   0  0  0  0  0  0  0  0  0  0  0  0
  3  1  1  0
  4  3  1  0
  6  5  1  0
  7  5  1  0
  8  6  1  0
  9  4  1  0
 10  7  1  0
 11  8  1  0
 11 10  1  0
 12  9  1  0
 12 10  1  0
 13 11  2  0
 14  2  1  0
 14 12  1  0
M  END
>  <NAME>  (5838) 
2-(1-METHOXYPENTYL)CYCLOHEXANONE

>  <SYNONYMS>  (5838) 


>  <SPECTRUM TYPE>  (5838) 
MS1

>  <INSTRUMENT TYPE>  (5838) 
EI-B

>  <INSTRUMENT>  (5838) 
JEOL JMS-D-3000

>  <ION MODE>  (5838) 
P

>  <INCHIKEY>  (5838) 
VETUWLQRWUEGEF-UHFFFAOYSA-N

>  <FORMULA>  (5838) 
C12H22O2

>  <EXACT MASS>  (5838) 
198.161979944

>  <MW>  (5838) 
198

>  <ID>  (5838) 
JP002407

>  <CONTRIBUTOR>  (5838) 
University of Tokyo Team, {Faculty of Engineering, University of Tokyo

>  <COMMENT>  (5838) 
SMILES=CCCCC(OC)C(C1)C(=O)CCC1
InChI=InChI=1S/C12H22O2/c1-3-4-9-12(14-2)10-7-5-6-8-11(10)13/h10,12H,3-9H2,1-2H3
computed SMILES=O=C1CCCCC1C(OC)CCCC
accession=JP002407
date=2016.01.19 (Created 2008.10.21, modified 2011.05.06)
author=MASS SPECTROSCOPY SOC. OF JAPAN (MSSJ)
license=CC BY-NC-SA
exact mass=198.16198
ionization energy=70 eV
ion type=[M]+*
computed spectral entropy=3.4255355709185715
computed normalized entropy=0.8801885258118358
SPLASH=splash10-015d-9300000000-c3351cd1c2548cd7d756
submitter=submitter = University of Tokyo Team (Faculty of Engineering, University of Tokyo)
MoNA Rating=3.75

>  <NUM PEAKS>  (5838) 
49

>  <MASS SPECTRAL PEAKS>  (5838) 
41 98.41
42 9.17
43 22.33
45 78.77
51 5.18
53 18.51
54 13.91
55 40.3
56 4.58
57 9.16
59 6.52
65 7.13
66 5.14
67 52.99
68 12.38
69 99.99
70 9.62
71 24.04
77 10.11
79 23.33
80 7.79
81 76.57
82 14.61
83 8.38
85 10.19
91 9.58
93 8.55
94 3.82
95 23.3
96 6.03
97 15.18
98 35.66
99 3.83
100 9.44
101 63.79
102 4.67
109 25.07
111 11.36
119 5.24
123 6.56
131 13.73
135 14.83
137 36.73
138 4.99
141 28.86
166 28.85
167 4.35
169 7.49
198 3.82

$$$$

     RDKit          2D

 13 13  0  0  0  0  0  0  0  0999 V2000
   -2.4400    0.2500    0.0000 C   0  0  0  0  0  0  0  0  0  0  0  0
   -0.9400    0.2500    0.0000 C   0  0  0  0  0  0  0  0  0  0  0  0
   -3.1900    1.5500    0.0000 C   0  0  0  0  0  0  0  0  0  0  0  0
   -0.1900   -1.0500    0.0000 C   0  0  0  0  0  0  0  0  0  0  0  0
   -2.4400    2.8500    0.0000 C   0  0  0  0  0  0  0  0  0  0  0  0
    1.3100   -1.0500    0.0000 C   0  0  0  0  0  0  0  0  0  0  0  0
   -0.9400    2.8500    0.0000 C   0  0  0  0  0  0  0  0  0  0  0  0
    2.0600    0.2500    0.0000 C   0  0  0  0  0  0  0  0  0  0  0  0
   -0.1900    4.1500    0.0000 C   0  0  0  0  0  0  0  0  0  0  0  0
    1.3100    1.5500    0.0000 C   0  0  0  0  0  0  0  0  0  0  0  0
    1.3100    4.1500    0.0000 C   0  0  0  0  0  0  0  0  0  0  0  0
    2.0600    2.8500    0.0000 C   0  0  0  0  0  0  0  0  0  0  0  0
    3.5600    2.8500    0.0000 O   0  0  0  0  0  0  0  0  0  0  0  0
  2  1  1  0
  3  1  1  0
  4  2  1  0
  5  3  1  0
  6  4  1  0
  7  5  1  0
  8  6  1  0
  9  7  1  0
  8 10  2  0
 11  9  1  0
 12 10  1  0
 12 11  1  0
 13 12  1  0
M  END
>  <NAME>  (5839) 
2-CYCLODODECENOL

>  <SYNONYMS>  (5839) 


>  <SPECTRUM TYPE>  (5839) 
MS1

>  <INSTRUMENT TYPE>  (5839) 
EI-B

>  <INSTRUMENT>  (5839) 
JEOL JMS-D-3000

>  <ION MODE>  (5839) 
P

>  <INCHIKEY>  (5839) 
HNTAJRDNEDXPDP-CSKARUKUSA-N

>  <FORMULA>  (5839) 
C12H22O

>  <EXACT MASS>  (5839) 
182.167065324

>  <MW>  (5839) 
182

>  <ID>  (5839) 
JP002406

>  <CONTRIBUTOR>  (5839) 
University of Tokyo Team, {Faculty of Engineering, University of Tokyo

>  <COMMENT>  (5839) 
SMILES=OC(C1)C=CCCCCCCCC1
InChI=InChI=1S/C12H22O/c13-12-10-8-6-4-2-1-3-5-7-9-11-12/h8,10,12-13H,1-7,9,11H2/b10-8+
computed SMILES=OC1C=CCCCCCCCCC1
accession=JP002406
date=2016.01.19 (Created 2008.10.21, modified 2011.05.06)
author=MASS SPECTROSCOPY SOC. OF JAPAN (MSSJ)
license=CC BY-NC-SA
exact mass=182.16707
ionization energy=70 eV
ion type=[M]+*
computed spectral entropy=3.402519883685606
computed normalized entropy=0.8887016388648341
SPLASH=splash10-067l-9100000000-376f10bd2a1fc5c7be91
submitter=submitter = University of Tokyo Team (Faculty of Engineering, University of Tokyo)
MoNA Rating=3.75

>  <NUM PEAKS>  (5839) 
46

>  <MASS SPECTRAL PEAKS>  (5839) 
40 2.91
42 83.36
43 15.72
53 10.74
54 33.96
55 99.99
56 21.58
57 28.14
58 9.33
67 75.46
68 46.61
69 41.86
70 20.91
71 16.49
72 2.47
77 6.39
78 2.64
79 33.6
80 33.36
81 54.75
82 59.06
83 37.98
84 10.5
85 5.58
91 4.51
93 19.84
94 16.86
95 29.35
96 32.32
97 28.14
98 14.12
107 11.17
108 6.89
109 11.37
110 6.12
111 21.78
112 3.64
121 15.66
122 5.72
123 4.08
125 4.08
135 8.56
136 4.41
139 2.3
164 10.5
182 2.4

$$$$

     RDKit          2D

 15 15  0  0  0  0  0  0  0  0999 V2000
    7.2107   -0.2406    0.0000 C   0  0  0  0  0  0  0  0  0  0  0  0
    5.5129   -2.2073    0.0000 C   0  0  0  0  0  0  0  0  0  0  0  0
   -6.0059    0.3334    0.0000 C   0  0  0  0  0  0  0  0  0  0  0  0
    0.9204   -1.2422    0.0000 C   0  0  0  0  0  0  0  0  0  0  0  0
    3.2420   -0.2469    0.0000 C   0  0  0  0  0  0  0  0  0  0  0  0
    4.6586    0.2463    0.0000 C   0  0  0  0  0  0  0  0  0  0  0  0
    2.1066    0.7332    0.0000 C   0  0  0  0  0  0  0  0  0  0  0  0
   -2.1167   -0.4566    0.0000 C   0  0  0  0  0  0  0  0  0  0  0  0
    5.7941   -0.7339    0.0000 C   0  0  0  0  0  0  0  0  0  0  0  0
   -4.7146   -0.4299    0.0000 C   0  0  0  0  0  0  0  0  0  0  0  0
   -0.8100    0.2800    0.0000 C   0  0  0  0  0  0  0  0  0  0  0  0
    0.6900    0.2400    0.0000 C   0  0  0  0  0  0  0  0  0  0  0  0
   -4.7300   -1.9298    0.0000 O   0  0  0  0  0  0  0  0  0  0  0  0
   -3.4079    0.3067    0.0000 O   0  0  0  0  0  0  0  0  0  0  0  0
   -0.0700    1.5800    0.0000 O   0  0  0  0  0  0  0  0  0  0  0  0
  6  5  1  0
  7  5  1  0
  9  1  1  0
  9  2  1  0
  9  6  2  0
 10  3  1  0
 11  8  1  0
 12  4  1  0
 12  7  1  0
 12 11  1  0
 13 10  2  0
 14  8  1  0
 14 10  1  0
 15 11  1  0
 15 12  1  0
M  END
>  <NAME>  (5840) 
2,3-EPOXYGERANYL ACETATE

>  <SYNONYMS>  (5840) 
2,3-EPOXY-3,7-DIMETHYL-6-OCTENYL ACETATE

>  <SPECTRUM TYPE>  (5840) 
MS1

>  <INSTRUMENT TYPE>  (5840) 
EI-B

>  <INSTRUMENT>  (5840) 
JEOL JMS-D-3000

>  <ION MODE>  (5840) 
P

>  <INCHIKEY>  (5840) 
HUUKHKAFVDAFIX-UHFFFAOYSA-N

>  <FORMULA>  (5840) 
C12H20O3

>  <EXACT MASS>  (5840) 
212.14124449999997

>  <MW>  (5840) 
212

>  <ID>  (5840) 
JP002405

>  <CONTRIBUTOR>  (5840) 
University of Tokyo Team, {Faculty of Engineering, University of Tokyo

>  <COMMENT>  (5840) 
SMILES=CC(C)=CCCC(C)(O1)C(COC(C)=O)1
InChI=InChI=1S/C12H20O3/c1-9(2)6-5-7-12(4)11(15-12)8-14-10(3)13/h6,11H,5,7-8H2,1-4H3
computed SMILES=O=C(OCC1OC1(C)CCC=C(C)C)C
accession=JP002405
date=2016.01.19 (Created 2008.10.21, modified 2011.05.06)
author=MASS SPECTROSCOPY SOC. OF JAPAN (MSSJ)
license=CC BY-NC-SA
exact mass=212.14124
ionization energy=70 eV
ion type=[M]+*
computed spectral entropy=3.5399748593399183
computed normalized entropy=0.8055559945610036
SPLASH=splash10-00l6-9200000000-c906ee74e7526368b247
submitter=submitter = University of Tokyo Team (Faculty of Engineering, University of Tokyo)
MoNA Rating=3.75

>  <NUM PEAKS>  (5840) 
81

>  <MASS SPECTRAL PEAKS>  (5840) 
42 53.84
43 78.17
45 7.76
50 1.15
51 3.35
52 1.56
53 9.89
54 3.35
55 21.97
56 3.09
57 2.26
59 4.04
60 7.55
61 3.23
63 1.68
65 4.4
66 1.89
67 31.16
68 9.01
69 76.35
70 19.41
71 7.78
72 1.98
73 1.63
77 7.8
78 2.4
79 10.15
80 3.07
81 14.7
82 99.99
83 16.93
84 5.11
85 2
87 1.84
88 18.6
89 1.49
91 16.4
92 4.67
93 8.64
94 4.74
95 7.51
96 2.07
97 2.75
101 3.28
103 2.98
104 1.33
105 6.34
106 2.49
107 4.53
108 2.75
109 17.58
110 4
111 3.07
112 1.31
113 1.26
115 3.16
116 1.22
117 5.04
118 1
119 20.16
120 2.54
121 8.69
122 2.3
123 2.38
124 1.42
128 1.33
129 1.49
130 15.88
131 2.31
132 3.37
133 1.77
134 13.89
135 3.02
137 2.6
139 3.74
143 1.38
148 1.05
150 1.75
152 8.11
153 1.14
212 0.26

$$$$

     RDKit          2D

 16 16  0  0  0  0  0  0  0  0999 V2000
    7.9744   -0.7579    0.0000 C   0  0  0  0  0  0  0  0  0  0  0  0
   10.0234   -0.2085    0.0000 C   0  0  0  0  0  0  0  0  0  0  0  0
    9.4740    1.8404    0.0000 C   0  0  0  0  0  0  0  0  0  0  0  0
   -1.6700   -0.9600    0.0000 C   0  0  0  0  0  0  0  0  0  0  0  0
   -1.6700    0.5400    0.0000 C   0  0  0  0  0  0  0  0  0  0  0  0
   -0.3700   -1.7100    0.0000 C   0  0  0  0  0  0  0  0  0  0  0  0
   -0.3700    1.2900    0.0000 C   0  0  0  0  0  0  0  0  0  0  0  0
    0.9300   -0.9600    0.0000 C   0  0  0  0  0  0  0  0  0  0  0  0
    3.5281    0.5404    0.0000 C   0  0  0  0  0  0  0  0  0  0  0  0
    6.1262    0.5408    0.0000 C   0  0  0  0  0  0  0  0  0  0  0  0
    4.8270    1.2906    0.0000 C   0  0  0  0  0  0  0  0  0  0  0  0
    0.9300    0.5400    0.0000 C   0  0  0  0  0  0  0  0  0  0  0  0
    4.8268    2.7906    0.0000 I   0  0  0  0  0  0  0  0  0  0  0  0
    2.2289    1.2902    0.0000 O   0  0  0  0  0  0  0  0  0  0  0  0
    7.4251    1.2910    0.0000 O   0  0  0  0  0  0  0  0  0  0  0  0
    8.7242    0.5412    0.0000 Si  0  0  0  0  0  4  0  0  0  0  0  0
  5  4  2  0
  6  4  1  0
  7  5  1  0
  8  6  2  0
 11  9  1  0
 11 10  1  0
 12  7  2  0
 12  8  1  0
 13 11  1  0
 14  9  1  0
 14 12  1  0
 15 10  1  0
 16  1  1  0
 16  2  1  0
 16  3  1  0
 16 15  1  0
M  END
>  <NAME>  (5841) 
2-IODO-1-PHENOXY-3-TRIMETHYLSILOXYPROPANE

>  <SYNONYMS>  (5841) 


>  <SPECTRUM TYPE>  (5841) 
MS1

>  <INSTRUMENT TYPE>  (5841) 
EI-B

>  <INSTRUMENT>  (5841) 
JEOL JMS-D-3000

>  <ION MODE>  (5841) 
P

>  <INCHIKEY>  (5841) 
GMVDFWYKVLJLMT-UHFFFAOYSA-N

>  <FORMULA>  (5841) 
C12H19IO2Si

>  <EXACT MASS>  (5841) 
350.01990437800004

>  <MW>  (5841) 
350

>  <ID>  (5841) 
JP002404

>  <CONTRIBUTOR>  (5841) 
University of Tokyo Team, {Faculty of Engineering, University of Tokyo

>  <COMMENT>  (5841) 
SMILES=c(c1)ccc(c1)OCC(I)CO[Si](C)(C)C
InChI=InChI=1S/C12H19IO2Si/c1-16(2,3)15-10-11(13)9-14-12-7-5-4-6-8-12/h4-8,11H,9-10H2,1-3H3
computed SMILES=IC(COC=1C=CC=CC1)CO[Si](C)(C)C
accession=JP002404
date=2016.01.19 (Created 2008.10.21, modified 2011.05.06)
author=MASS SPECTROSCOPY SOC. OF JAPAN (MSSJ)
license=CC BY-NC-SA
exact mass=350.0199
ionization energy=70 eV
ion type=[M]+*
computed spectral entropy=2.7669245628184203
computed normalized entropy=0.8217052206041352
SPLASH=splash10-00di-9410000000-6edbd6798850419a1baa
submitter=submitter = University of Tokyo Team (Faculty of Engineering, University of Tokyo)
MoNA Rating=3.75

>  <NUM PEAKS>  (5841) 
29

>  <MASS SPECTRAL PEAKS>  (5841) 
40 15.05
43 3.39
45 8.7
47 3.67
51 6.55
59 9.43
65 3.88
73 99.99
74 9.27
75 20.68
77 20.32
79 5.01
91 3.63
94 4.17
101 7.62
107 28.31
108 2.74
116 23.4
117 2.5
127 6
129 2.83
133 10.26
151 17.71
152 2.27
189 4.71
207 2.97
234 2.66
243 20.14
350 3.94

$$$$

     RDKit          2D

 14 14  0  0  0  0  0  0  0  0999 V2000
    5.5772   -0.0083    0.0000 C   0  0  0  0  0  0  0  0  0  0  0  0
    6.1259    2.0408    0.0000 C   0  0  0  0  0  0  0  0  0  0  0  0
    4.0768    2.5895    0.0000 C   0  0  0  0  0  0  0  0  0  0  0  0
    2.5641   -0.6088    0.0000 C   0  0  0  0  0  0  0  0  0  0  0  0
    4.4924   -0.6085    0.0000 C   0  0  0  0  0  0  0  0  0  0  0  0
   -1.6700   -0.9600    0.0000 C   0  0  0  0  0  0  0  0  0  0  0  0
   -1.6700    0.5400    0.0000 C   0  0  0  0  0  0  0  0  0  0  0  0
   -0.3700   -1.7100    0.0000 C   0  0  0  0  0  0  0  0  0  0  0  0
   -0.3700    1.2900    0.0000 C   0  0  0  0  0  0  0  0  0  0  0  0
    0.9300   -0.9600    0.0000 C   0  0  0  0  0  0  0  0  0  0  0  0
    0.9300    0.5400    0.0000 C   0  0  0  0  0  0  0  0  0  0  0  0
    2.2289    1.2902    0.0000 O   0  0  0  0  0  0  0  0  0  0  0  0
    4.8270    1.2906    0.0000 Si  0  0  0  0  0  4  0  0  0  0  0  0
    3.5281    0.5404    0.0000 Si  0  0  0  0  0  4  0  0  0  0  0  0
  7  6  2  0
  8  6  1  0
  9  7  1  0
 10  8  2  0
 11  9  2  0
 11 10  1  0
 12 11  1  0
 13  1  1  0
 13  2  1  0
 13  3  1  0
 14  4  1  0
 14  5  1  0
 14 12  1  0
 14 13  1  0
M  END
>  <NAME>  (5842) 
PHENOXYPENTAMETHYLDISILANE

>  <SYNONYMS>  (5842) 


>  <SPECTRUM TYPE>  (5842) 
MS1

>  <INSTRUMENT TYPE>  (5842) 
EI-B

>  <INSTRUMENT>  (5842) 
JEOL JMS-D-3000

>  <ION MODE>  (5842) 
P

>  <INCHIKEY>  (5842) 
FSBACNVBMRMBSF-UHFFFAOYSA-N

>  <FORMULA>  (5842) 
C11H20OSi2

>  <EXACT MASS>  (5842) 
224.10526832

>  <MW>  (5842) 
224

>  <ID>  (5842) 
JP002403

>  <CONTRIBUTOR>  (5842) 
University of Tokyo Team, {Faculty of Engineering, University of Tokyo

>  <COMMENT>  (5842) 
SMILES=c(c1)ccc(c1)O[Si](C)(C)[Si](C)(C)C
InChI=InChI=1S/C11H20OSi2/c1-13(2,3)14(4,5)12-11-9-7-6-8-10-11/h6-10H,1-5H3
computed SMILES=O(C=1C=CC=CC1)[Si](C)(C)[Si](C)(C)C
accession=JP002403
date=2016.01.19 (Created 2008.10.21, modified 2011.05.06)
author=MASS SPECTROSCOPY SOC. OF JAPAN (MSSJ)
license=CC BY-NC-SA
exact mass=224.10527
ionization energy=70 eV
ion type=[M]+*
computed spectral entropy=3.0489573768259843
computed normalized entropy=0.7754558980056778
SPLASH=splash10-0fka-8920000000-9a48fdfec59bce4e984a
submitter=submitter = University of Tokyo Team (Faculty of Engineering, University of Tokyo)
MoNA Rating=3.75

>  <NUM PEAKS>  (5842) 
51

>  <MASS SPECTRAL PEAKS>  (5842) 
40 1.61
43 9.74
44 2.82
45 22.3
46 1.37
47 2.55
51 6.36
53 1.16
55 1.38
57 1.4
58 2.6
59 7.18
65 1.65
72 3.39
73 99.99
74 8.88
75 17.09
76 1.63
77 17.85
78 1.56
83 1.22
85 1.15
91 8.77
95 7.36
105 1.65
115 1.04
117 1.7
121 15.29
122 1.85
123 2.07
129 1.02
131 6.29
132 1.03
133 5.16
135 9.89
136 1.53
147 39.96
148 6.73
149 4.72
150 1
151 80.85
152 12.05
153 3.76
179 2.81
193 32.04
194 6.54
195 2.93
210 37.41
211 15.59
212 2.28
224 0.78

$$$$

     RDKit          2D

 11 10  0  0  0  0  0  0  0  0999 V2000
    1.7758    3.6743    0.0000 C   0  0  0  0  0  0  0  0  0  0  0  0
   -6.0185    3.6743    0.0000 C   0  0  0  0  0  0  0  0  0  0  0  0
   -5.8618    2.7857    0.0000 C   0  0  0  0  0  0  0  0  0  0  0  0
   -0.8223    2.1743    0.0000 C   0  0  0  0  0  0  0  0  0  0  0  0
    0.4767    4.4243    0.0000 C   0  0  0  0  0  0  0  0  0  0  0  0
   -4.7194    4.4243    0.0000 C   0  0  0  0  0  0  0  0  0  0  0  0
   -4.3846    2.5252    0.0000 C   0  0  0  0  0  0  0  0  0  0  0  0
   -2.1214    4.4243    0.0000 C   0  0  0  0  0  0  0  0  0  0  0  0
   -0.8223    3.6743    0.0000 C   0  0  0  0  0  0  0  0  0  0  0  0
   -3.4204    3.6743    0.0000 C   0  0  0  0  0  0  0  0  0  0  0  0
   -2.4562    2.5252    0.0000 O   0  0  0  0  0  0  0  0  0  0  0  0
  5  1  2  0
  6  2  1  0
  7  3  1  0
  9  4  2  0
  9  5  1  0
  9  8  1  0
 10  6  1  0
 10  7  1  0
 10  8  1  0
 11 10  1  0
M  END
>  <NAME>  (5843) 
3-ETHYL-5-METHYLENE-6-HEPTEN-3-OL

>  <SYNONYMS>  (5843) 


>  <SPECTRUM TYPE>  (5843) 
MS1

>  <INSTRUMENT TYPE>  (5843) 
EI-B

>  <INSTRUMENT>  (5843) 
JEOL JMS-D-3000

>  <ION MODE>  (5843) 
P

>  <INCHIKEY>  (5843) 
DCURWKJHOAMPCY-UHFFFAOYSA-N

>  <FORMULA>  (5843) 
C10H18O

>  <EXACT MASS>  (5843) 
154.135765196

>  <MW>  (5843) 
154

>  <ID>  (5843) 
JP002402

>  <CONTRIBUTOR>  (5843) 
University of Tokyo Team, {Faculty of Engineering, University of Tokyo

>  <COMMENT>  (5843) 
SMILES=C=CC(=C)CC(O)(CC)CC
InChI=InChI=1S/C10H18O/c1-5-9(4)8-10(11,6-2)7-3/h5,11H,1,4,6-8H2,2-3H3
computed SMILES=OC(CC(=C)C=C)(CC)CC
accession=JP002402
date=2016.01.19 (Created 2008.10.21, modified 2011.05.06)
author=MASS SPECTROSCOPY SOC. OF JAPAN (MSSJ)
license=CC BY-NC-SA
exact mass=154.13577
ionization energy=70 eV
ion type=[M]+*
computed spectral entropy=2.2746198946962046
computed normalized entropy=0.6901494179394305
SPLASH=splash10-0a4r-9000000000-f726f11478544adbd360
submitter=submitter = University of Tokyo Team (Faculty of Engineering, University of Tokyo)
MoNA Rating=3.75

>  <NUM PEAKS>  (5843) 
27

>  <MASS SPECTRAL PEAKS>  (5843) 
41 15.45
42 1.08
43 8.14
45 37.82
51 1.19
53 3.76
55 3.46
57 99.99
58 4.52
65 1.6
67 5.55
68 25.66
69 14.08
70 1.09
77 1.28
79 3.16
81 1.21
87 77.85
88 4.62
91 2.13
93 2.21
95 1.26
107 6.19
121 1.4
125 10.29
136 1.42
154 0.47

$$$$

     RDKit          2D

 11 10  0  0  0  0  0  0  0  0999 V2000
   -7.4695    3.9375    0.0000 C   0  0  0  0  0  0  0  0  0  0  0  0
    1.6238    3.1875    0.0000 C   0  0  0  0  0  0  0  0  0  0  0  0
    0.3248    5.4375    0.0000 C   0  0  0  0  0  0  0  0  0  0  0  0
   -4.8714    5.4375    0.0000 C   0  0  0  0  0  0  0  0  0  0  0  0
   -6.1704    3.1875    0.0000 C   0  0  0  0  0  0  0  0  0  0  0  0
   -0.9743    3.1875    0.0000 C   0  0  0  0  0  0  0  0  0  0  0  0
   -3.5724    3.1875    0.0000 C   0  0  0  0  0  0  0  0  0  0  0  0
    0.3248    3.9375    0.0000 C   0  0  0  0  0  0  0  0  0  0  0  0
   -4.8714    3.9375    0.0000 C   0  0  0  0  0  0  0  0  0  0  0  0
   -2.2733    3.9375    0.0000 C   0  0  0  0  0  0  0  0  0  0  0  0
   -2.2733    5.4375    0.0000 O   0  0  0  0  0  0  0  0  0  0  0  0
  5  1  2  0
  8  2  1  0
  8  3  1  0
  8  6  2  0
  9  4  2  0
  9  5  1  0
  9  7  1  0
 10  6  1  0
 10  7  1  0
 11 10  1  0
M  END
>  <NAME>  (5844) 
2-METHYL-6-METHYLENE-2,7-OCTADIEN-4-OL

>  <SYNONYMS>  (5844) 


>  <SPECTRUM TYPE>  (5844) 
MS1

>  <INSTRUMENT TYPE>  (5844) 
EI-B

>  <INSTRUMENT>  (5844) 
JEOL JMS-D-3000

>  <ION MODE>  (5844) 
P

>  <INCHIKEY>  (5844) 
NHMKYUHMPXBMFI-UHFFFAOYSA-N

>  <FORMULA>  (5844) 
C10H16O

>  <EXACT MASS>  (5844) 
152.120115132

>  <MW>  (5844) 
152

>  <ID>  (5844) 
JP002401

>  <CONTRIBUTOR>  (5844) 
University of Tokyo Team, {Faculty of Engineering, University of Tokyo

>  <COMMENT>  (5844) 
SMILES=C=CC(=C)CC(O)C=C(C)C
InChI=InChI=1S/C10H16O/c1-5-9(4)7-10(11)6-8(2)3/h5-6,10-11H,1,4,7H2,2-3H3
computed SMILES=OC(C=C(C)C)CC(=C)C=C
accession=JP002401
date=2016.01.19 (Created 2008.10.21, modified 2011.05.06)
author=MASS SPECTROSCOPY SOC. OF JAPAN (MSSJ)
license=CC BY-NC-SA
exact mass=152.12012
ionization energy=70 eV
ion type=[M]+*
computed spectral entropy=2.661470860625441
computed normalized entropy=0.7825099698638448
SPLASH=splash10-000l-9100000000-61ef9412b16d890e7441
submitter=submitter = University of Tokyo Team (Faculty of Engineering, University of Tokyo)
MoNA Rating=3.75

>  <NUM PEAKS>  (5844) 
30

>  <MASS SPECTRAL PEAKS>  (5844) 
41 30.24
43 11.34
51 2.83
53 6.86
55 8.83
57 4.36
59 1.82
65 4.85
66 1.86
67 11.26
68 6.85
69 3.3
77 5.86
78 3.55
79 16.41
80 2.57
81 3.45
83 6.93
85 99.99
86 5.86
91 12.45
92 5.02
93 3.98
105 3.74
108 1.82
109 3.39
117 1.67
119 11.84
134 7.23
152 1.32

$$$$

     RDKit          2D

 12 12  0  0  0  0  0  0  0  0999 V2000
   -5.5207    3.1321    0.0000 C   0  0  0  0  0  0  0  0  0  0  0  0
   -4.2216    2.3821    0.0000 C   0  0  0  0  0  0  0  0  0  0  0  0
    3.5726    0.8821    0.0000 C   0  0  0  0  0  0  0  0  0  0  0  0
    3.5731    2.3829    0.0000 C   0  0  0  0  0  0  0  0  0  0  0  0
    2.2731    0.1313    0.0000 C   0  0  0  0  0  0  0  0  0  0  0  0
    2.2740    3.1329    0.0000 C   0  0  0  0  0  0  0  0  0  0  0  0
    0.9740    0.8813    0.0000 C   0  0  0  0  0  0  0  0  0  0  0  0
   -0.3245    3.1321    0.0000 C   0  0  0  0  0  0  0  0  0  0  0  0
    0.9745    2.3821    0.0000 C   0  0  0  0  0  0  0  0  0  0  0  0
   -1.6236    2.3821    0.0000 C   0  0  0  0  0  0  0  0  0  0  0  0
   -1.6236    0.8821    0.0000 O   0  0  0  0  0  0  0  0  0  0  0  0
   -2.9226    3.1321    0.0000 O   0  0  0  0  0  0  0  0  0  0  0  0
  2  1  1  0
  4  3  2  0
  5  3  1  0
  6  4  1  0
  7  5  2  0
  9  6  2  0
  9  7  1  0
  9  8  1  0
 10  8  1  0
 11 10  2  0
 12  2  1  0
 12 10  1  0
M  END
>  <NAME>  (5845) 
ETHYL PHENYLACETATE

>  <SYNONYMS>  (5845) 


>  <SPECTRUM TYPE>  (5845) 
MS1

>  <INSTRUMENT TYPE>  (5845) 
EI-B

>  <INSTRUMENT>  (5845) 
JEOL JMS-D-3000

>  <ION MODE>  (5845) 
P

>  <INCHIKEY>  (5845) 
DULCUDSUACXJJC-UHFFFAOYSA-N

>  <FORMULA>  (5845) 
C10H12O2

>  <EXACT MASS>  (5845) 
164.083729624

>  <MW>  (5845) 
164

>  <ID>  (5845) 
JP002400

>  <CONTRIBUTOR>  (5845) 
University of Tokyo Team, {Faculty of Engineering, University of Tokyo

>  <COMMENT>  (5845) 
SMILES=CCOC(=O)Cc(c1)cccc1
InChI=InChI=1S/C10H12O2/c1-2-12-10(11)8-9-6-4-3-5-7-9/h3-7H,2,8H2,1H3
computed SMILES=O=C(OCC)CC=1C=CC=CC1
accession=JP002400
date=2016.01.19 (Created 2008.10.21, modified 2011.05.06)
author=MASS SPECTROSCOPY SOC. OF JAPAN (MSSJ)
license=CC BY-NC-SA
exact mass=164.08373
ionization energy=70 eV
ion type=[M]+*
computed spectral entropy=1.5469355123410808
computed normalized entropy=0.6451222160906926
SPLASH=splash10-0006-9300000000-e27e1342447ce663669f
submitter=submitter = University of Tokyo Team (Faculty of Engineering, University of Tokyo)
MoNA Rating=3.75

>  <NUM PEAKS>  (5845) 
11

>  <MASS SPECTRAL PEAKS>  (5845) 
40 2.56
44 2.37
89 2.83
90 7.12
91 99.99
92 13.62
105 3.86
118 10.74
119 3.84
164 34.48
165 3.74

$$$$

     RDKit          2D

 11 10  0  0  0  0  0  0  0  0999 V2000
    0.0000    0.0000    0.0000 C   0  0  0  0  0  0  0  0  0  0  0  0
    1.2990    2.2500    0.0000 C   0  0  0  0  0  0  0  0  0  0  0  0
   -1.8481    5.7990    0.0000 C   0  0  0  0  0  0  0  0  0  0  0  0
   -3.8971    5.2500    0.0000 C   0  0  0  0  0  0  0  0  0  0  0  0
   -3.3481    3.2010    0.0000 C   0  0  0  0  0  0  0  0  0  0  0  0
    0.1782    3.4895    0.0000 C   0  0  0  0  0  0  0  0  0  0  0  0
   -0.7860    5.1595    0.0000 C   0  0  0  0  0  0  0  0  0  0  0  0
   -1.2990    2.2500    0.0000 C   0  0  0  0  0  0  0  0  0  0  0  0
    0.0000    1.5000    0.0000 C   0  0  0  0  0  0  0  0  0  0  0  0
   -2.5981    4.5000    0.0000 Si  0  0  0  0  0  4  0  0  0  0  0  0
   -1.2990    3.7500    0.0000 Si  0  0  0  0  0  4  0  0  0  0  0  0
  9  1  2  0
  9  2  1  0
  9  8  1  0
 10  3  1  0
 10  4  1  0
 10  5  1  0
 11  6  1  0
 11  7  1  0
 11  8  1  0
 11 10  1  0
M  END
>  <NAME>  (5846) 
2-METHYLALLYLPENTAMETHYLDISILANE

>  <SYNONYMS>  (5846) 


>  <SPECTRUM TYPE>  (5846) 
MS1

>  <INSTRUMENT TYPE>  (5846) 
EI-B

>  <INSTRUMENT>  (5846) 
JEOL JMS-D-3000

>  <ION MODE>  (5846) 
P

>  <INCHIKEY>  (5846) 
ZFYSRCJRMPTMOE-UHFFFAOYSA-N

>  <FORMULA>  (5846) 
C9H22Si2

>  <EXACT MASS>  (5846) 
186.126003764

>  <MW>  (5846) 
186

>  <ID>  (5846) 
JP002399

>  <CONTRIBUTOR>  (5846) 
University of Tokyo Team, {Faculty of Engineering, University of Tokyo

>  <COMMENT>  (5846) 
SMILES=CC(=C)C[Si](C)(C)[Si](C)(C)C
InChI=InChI=1S/C9H22Si2/c1-9(2)8-11(6,7)10(3,4)5/h1,8H2,2-7H3
computed SMILES=C=C(C)C[Si](C)(C)[Si](C)(C)C
accession=JP002399
date=2016.01.19 (Created 2008.10.21, modified 2011.05.06)
author=MASS SPECTROSCOPY SOC. OF JAPAN (MSSJ)
license=CC BY-NC-SA
exact mass=186.126
ionization energy=70 eV
ion type=[M]+*
computed spectral entropy=2.385544735562055
computed normalized entropy=0.8101865083437368
SPLASH=splash10-0089-3900000000-73f00fd756d1e65c2439
submitter=submitter = University of Tokyo Team (Faculty of Engineering, University of Tokyo)
MoNA Rating=3.75

>  <NUM PEAKS>  (5846) 
19

>  <MASS SPECTRAL PEAKS>  (5846) 
41 4.37
45 3.75
59 6.78
73 49.92
74 5.2
75 10.16
85 5.73
97 5.65
112 17.66
113 21.27
114 3.18
115 3.3
129 8.08
131 99.99
132 17.02
133 12.74
171 15.48
186 24.05
187 5.14

$$$$

     RDKit          2D

 12 11  0  0  0  0  0  0  0  0999 V2000
    1.5813    3.0601    0.0000 C   0  0  0  0  0  0  0  0  0  0  0  0
   -4.3648    4.3591    0.0000 C   0  0  0  0  0  0  0  0  0  0  0  0
   -4.9139    2.3101    0.0000 C   0  0  0  0  0  0  0  0  0  0  0  0
   -2.8648    1.7611    0.0000 C   0  0  0  0  0  0  0  0  0  0  0  0
   -1.3516    4.9592    0.0000 C   0  0  0  0  0  0  0  0  0  0  0  0
   -3.2800    4.9592    0.0000 C   0  0  0  0  0  0  0  0  0  0  0  0
    0.2823    3.8101    0.0000 C   0  0  0  0  0  0  0  0  0  0  0  0
   -1.0168    1.5601    0.0000 C   0  0  0  0  0  0  0  0  0  0  0  0
   -1.0168    3.0601    0.0000 C   0  0  0  0  0  0  0  0  0  0  0  0
   -1.0168    0.0601    0.0000 O   0  0  0  0  0  0  0  0  0  0  0  0
   -3.6148    3.0601    0.0000 Si  0  0  0  0  0  4  0  0  0  0  0  0
   -2.3158    3.8101    0.0000 Si  0  0  0  0  0  4  0  0  0  0  0  0
  7  1  1  0
  9  7  1  0
  9  8  2  0
 10  8  2  0
 11  2  1  0
 11  3  1  0
 11  4  1  0
 12  5  1  0
 12  6  1  0
 12  9  1  0
 12 11  1  0
M  END
>  <NAME>  (5847) 
ETHYL(PENTAMETHYLDISILANYL)KETENE

>  <SYNONYMS>  (5847) 


>  <SPECTRUM TYPE>  (5847) 
MS1

>  <INSTRUMENT TYPE>  (5847) 
EI-B

>  <INSTRUMENT>  (5847) 
JEOL JMS-D-3000

>  <ION MODE>  (5847) 
P

>  <INCHIKEY>  (5847) 
FOOSEGCIMSEKQV-UHFFFAOYSA-N

>  <FORMULA>  (5847) 
C9H20OSi2

>  <EXACT MASS>  (5847) 
200.10526832

>  <MW>  (5847) 
200

>  <ID>  (5847) 
JP002398

>  <CONTRIBUTOR>  (5847) 
University of Tokyo Team, {Faculty of Engineering, University of Tokyo

>  <COMMENT>  (5847) 
SMILES=CCC(=C=O)[Si](C)(C)[Si](C)(C)C
InChI=InChI=1S/C9H20OSi2/c1-7-9(8-10)12(5,6)11(2,3)4/h7H2,1-6H3
computed SMILES=O=C=C(CC)[Si](C)(C)[Si](C)(C)C
accession=JP002398
date=2016.01.19 (Created 2008.10.21, modified 2011.05.06)
author=MASS SPECTROSCOPY SOC. OF JAPAN (MSSJ)
license=CC BY-NC-SA
exact mass=200.10527
ionization energy=70 eV
ion type=[M]+*
computed spectral entropy=3.131863032228229
computed normalized entropy=0.7851279914056596
SPLASH=splash10-00dj-9800000000-86fa42717b9def5533c1
submitter=submitter = University of Tokyo Team (Faculty of Engineering, University of Tokyo)
MoNA Rating=3.75

>  <NUM PEAKS>  (5847) 
54

>  <MASS SPECTRAL PEAKS>  (5847) 
43 10.97
45 17.22
53 1.14
55 2.03
57 1.21
58 3.09
59 32.84
60 2.8
61 1.28
69 2.69
71 1.31
72 1.15
73 99.99
74 8.23
75 8.75
83 7.96
84 2.43
85 1.77
97 8.85
98 12.16
99 59.24
100 6.59
101 3.05
103 1.55
111 11.93
112 1.47
113 1.46
115 1.7
117 9.4
118 1.23
119 3.39
127 56.18
128 5.85
129 3.86
131 11.17
132 1.89
133 18.71
134 2.63
135 1.49
141 1.19
143 3.85
145 1.15
147 4.31
155 2.1
157 27.11
158 4.83
159 2.37
171 1.24
172 45.75
173 8.38
174 3.8
185 9.49
186 1.86
200 1.02

$$$$

     RDKit          2D

 12 11  0  0  0  0  0  0  0  0999 V2000
    1.9486    4.1250    0.0000 C   0  0  0  0  0  0  0  0  0  0  0  0
   -3.7966    6.1740    0.0000 C   0  0  0  0  0  0  0  0  0  0  0  0
   -5.8457    5.6250    0.0000 C   0  0  0  0  0  0  0  0  0  0  0  0
   -5.2966    3.5760    0.0000 C   0  0  0  0  0  0  0  0  0  0  0  0
    0.6495    4.8750    0.0000 C   0  0  0  0  0  0  0  0  0  0  0  0
   -0.6495    4.1250    0.0000 C   0  0  0  0  0  0  0  0  0  0  0  0
   -1.9486    4.8750    0.0000 C   0  0  0  0  0  0  0  0  0  0  0  0
   -3.2476    4.1250    0.0000 C   0  0  0  0  0  0  0  0  0  0  0  0
   -3.2476    2.6250    0.0000 C   0  0  0  0  0  0  0  0  0  0  0  0
   -1.9486    1.8750    0.0000 O   0  0  0  0  0  0  0  0  0  0  0  0
   -4.5466    1.8750    0.0000 O   0  0  0  0  0  0  0  0  0  0  0  0
   -4.5466    4.8750    0.0000 Si  0  0  0  0  0  4  0  0  0  0  0  0
  5  1  1  0
  6  5  1  0
  7  6  1  0
  8  7  1  0
  9  8  1  0
 10  9  2  0
 11  9  1  0
 12  2  1  0
 12  3  1  0
 12  4  1  0
 12  8  1  0
M  END
>  <NAME>  (5848) 
2-TRIMETHYLSILYLHEXANOIC ACID

>  <SYNONYMS>  (5848) 


>  <SPECTRUM TYPE>  (5848) 
MS1

>  <INSTRUMENT TYPE>  (5848) 
EI-B

>  <INSTRUMENT>  (5848) 
JEOL JMS-D-3000

>  <ION MODE>  (5848) 
P

>  <INCHIKEY>  (5848) 
YQQCMSGNERDIER-UHFFFAOYSA-N

>  <FORMULA>  (5848) 
C9H20O2Si

>  <EXACT MASS>  (5848) 
188.12325641

>  <MW>  (5848) 
188

>  <ID>  (5848) 
JP002397

>  <CONTRIBUTOR>  (5848) 
University of Tokyo Team, {Faculty of Engineering, University of Tokyo

>  <COMMENT>  (5848) 
SMILES=CCCCC(C(O)=O)[Si](C)(C)C
InChI=InChI=1S/C9H20O2Si/c1-5-6-7-8(9(10)11)12(2,3)4/h8H,5-7H2,1-4H3,(H,10,11)
computed SMILES=O=C(O)C(CCCC)[Si](C)(C)C
accession=JP002397
date=2016.01.19 (Created 2008.10.21, modified 2011.05.06)
author=MASS SPECTROSCOPY SOC. OF JAPAN (MSSJ)
license=CC BY-NC-SA
exact mass=188.12326
ionization energy=70 eV
ion type=[M]+*
computed spectral entropy=2.3264621431154047
computed normalized entropy=0.6908992439564627
SPLASH=splash10-00fr-9600000000-ba8c404e796516741b49
submitter=submitter = University of Tokyo Team (Faculty of Engineering, University of Tokyo)
MoNA Rating=3.75

>  <NUM PEAKS>  (5848) 
29

>  <MASS SPECTRAL PEAKS>  (5848) 
45 5.28
47 4.32
55 1.18
59 1.27
60 1.12
61 4.76
72 2.66
73 95.66
74 9.1
75 99.99
76 7.73
77 4.08
81 2.61
116 2.43
117 34.83
118 3.16
119 1.35
129 6.14
131 12.37
132 14.83
133 1.82
143 1.11
145 5.72
146 1.09
159 1.49
173 74.71
174 10.34
175 3.9
188 1.33

$$$$

     RDKit          2D

 11 10  0  0  0  0  0  0  0  0999 V2000
   -7.1447    3.3750    0.0000 C   0  0  0  0  0  0  0  0  0  0  0  0
   -1.3995    1.3260    0.0000 C   0  0  0  0  0  0  0  0  0  0  0  0
    0.6495    1.8750    0.0000 C   0  0  0  0  0  0  0  0  0  0  0  0
    0.1005    3.9240    0.0000 C   0  0  0  0  0  0  0  0  0  0  0  0
   -5.8457    2.6250    0.0000 C   0  0  0  0  0  0  0  0  0  0  0  0
   -4.5466    3.3750    0.0000 C   0  0  0  0  0  0  0  0  0  0  0  0
   -3.2476    2.6250    0.0000 C   0  0  0  0  0  0  0  0  0  0  0  0
   -1.9486    4.8750    0.0000 C   0  0  0  0  0  0  0  0  0  0  0  0
   -1.9486    3.3750    0.0000 C   0  0  0  0  0  0  0  0  0  0  0  0
   -1.9486    6.3750    0.0000 O   0  0  0  0  0  0  0  0  0  0  0  0
   -0.6495    2.6250    0.0000 Si  0  0  0  0  0  4  0  0  0  0  0  0
  5  1  1  0
  6  5  1  0
  7  6  1  0
  9  7  1  0
  9  8  2  0
 10  8  2  0
 11  2  1  0
 11  3  1  0
 11  4  1  0
 11  9  1  0
M  END
>  <NAME>  (5849) 
BUTYL(TRIMETHYLSILYL)KETENE

>  <SYNONYMS>  (5849) 


>  <SPECTRUM TYPE>  (5849) 
MS1

>  <INSTRUMENT TYPE>  (5849) 
EI-B

>  <INSTRUMENT>  (5849) 
JEOL JMS-D-3000

>  <ION MODE>  (5849) 
P

>  <INCHIKEY>  (5849) 
WWOZYODFTOAQNT-UHFFFAOYSA-N

>  <FORMULA>  (5849) 
C9H18OSi

>  <EXACT MASS>  (5849) 
170.11269172599998

>  <MW>  (5849) 
170

>  <ID>  (5849) 
JP002396

>  <CONTRIBUTOR>  (5849) 
University of Tokyo Team, {Faculty of Engineering, University of Tokyo

>  <COMMENT>  (5849) 
SMILES=CCCCC(=C=O)[Si](C)(C)C
InChI=InChI=1S/C9H18OSi/c1-5-6-7-9(8-10)11(2,3)4/h5-7H2,1-4H3
computed SMILES=O=C=C(CCCC)[Si](C)(C)C
accession=JP002396
date=2016.01.19 (Created 2008.10.21, modified 2011.05.06)
author=MASS SPECTROSCOPY SOC. OF JAPAN (MSSJ)
license=CC BY-NC-SA
exact mass=170.11269
ionization energy=70 eV
ion type=[M]+*
computed spectral entropy=3.0712078155864555
computed normalized entropy=0.7891443027514513
SPLASH=splash10-0a6r-7900000000-cb430c1bb830cfb7b263
submitter=submitter = University of Tokyo Team (Faculty of Engineering, University of Tokyo)
MoNA Rating=3.75

>  <NUM PEAKS>  (5849) 
49

>  <MASS SPECTRAL PEAKS>  (5849) 
41 4.34
43 16.15
45 26.48
46 1.79
47 1.56
53 2.81
55 6.27
57 1.42
58 9.2
59 72.81
60 2.09
61 2.49
67 2.13
69 3.38
70 2.56
72 3.24
74 18.91
75 85.8
76 6.06
77 3.63
79 1.9
80 1.41
81 3.91
83 7.22
84 3.46
85 15.89
86 1.5
97 2.99
98 2.99
99 23.18
100 2.91
101 8.56
111 2.09
113 41.53
114 4.38
115 8.69
125 1.87
127 81.77
128 10.53
129 4.23
141 2.47
142 6.96
155 99.99
156 15.26
157 4.54
169 36.06
170 53.73
171 8.53
172 2.42

$$$$

     RDKit          2D

 10 10  0  0  0  0  0  0  0  0999 V2000
   -0.3112    2.4384    0.0000 C   0  0  0  0  0  0  0  0  0  0  0  0
   -2.3530    1.8632    0.0000 C   0  0  0  0  0  0  0  0  0  0  0  0
   -1.7778   -0.1786    0.0000 C   0  0  0  0  0  0  0  0  0  0  0  0
    3.1552    2.9887    0.0000 C   0  0  0  0  0  0  0  0  0  0  0  0
    3.9052    1.6896    0.0000 C   0  0  0  0  0  0  0  0  0  0  0  0
    1.6931    2.6411    0.0000 C   0  0  0  0  0  0  0  0  0  0  0  0
    2.9328    0.5739    0.0000 C   0  0  0  0  0  0  0  0  0  0  0  0
    1.5534    1.1632    0.0000 C   0  0  0  0  0  0  0  0  0  0  0  0
    0.2640    0.3966    0.0000 O   0  0  0  0  0  0  0  0  0  0  0  0
   -1.0445    1.1299    0.0000 Si  0  0  0  0  0  4  0  0  0  0  0  0
  5  4  1  0
  6  4  1  0
  7  5  1  0
  8  6  2  0
  8  7  1  0
  9  8  1  0
 10  1  1  0
 10  2  1  0
 10  3  1  0
 10  9  1  0
M  END
>  <NAME>  (5850) 
1-TRIMETHYLSILOXYCYCLOPENTENE

>  <SYNONYMS>  (5850) 


>  <SPECTRUM TYPE>  (5850) 
MS1

>  <INSTRUMENT TYPE>  (5850) 
EI-B

>  <INSTRUMENT>  (5850) 
JEOL JMS-D-3000

>  <ION MODE>  (5850) 
P

>  <INCHIKEY>  (5850) 
UBMYYGXGMPGCBO-UHFFFAOYSA-N

>  <FORMULA>  (5850) 
C8H16OSi

>  <EXACT MASS>  (5850) 
156.09704166199998

>  <MW>  (5850) 
156

>  <ID>  (5850) 
JP002395

>  <CONTRIBUTOR>  (5850) 
University of Tokyo Team, {Faculty of Engineering, University of Tokyo

>  <COMMENT>  (5850) 
SMILES=C(C1)CC(=C1)O[Si](C)(C)C
InChI=InChI=1S/C8H16OSi/c1-10(2,3)9-8-6-4-5-7-8/h6H,4-5,7H2,1-3H3
computed SMILES=O(C1=CCCC1)[Si](C)(C)C
accession=JP002395
date=2016.01.19 (Created 2008.10.21, modified 2011.05.06)
author=MASS SPECTROSCOPY SOC. OF JAPAN (MSSJ)
license=CC BY-NC-SA
exact mass=156.09704
ionization energy=70 eV
ion type=[M]+*
computed spectral entropy=2.435235846656567
computed normalized entropy=0.766266393414094
SPLASH=splash10-05di-9300000000-a03f7a713e6064dec874
submitter=submitter = University of Tokyo Team (Faculty of Engineering, University of Tokyo)
MoNA Rating=3.75

>  <NUM PEAKS>  (5850) 
24

>  <MASS SPECTRAL PEAKS>  (5850) 
42 5.28
43 5.41
45 14.6
47 4.52
55 7.54
57 3.9
59 9.98
61 3.37
63 2.92
67 3.37
70 4.74
71 3.86
73 81.75
74 7.45
75 99.99
76 7.23
77 4.39
85 2.92
99 5.14
127 3.95
141 20.06
155 46.24
156 45.13
157 8.03

$$$$

     RDKit          2D

 10  9  0  0  0  0  0  0  0  0999 V2000
   -4.4596    3.2243    0.0000 C   0  0  0  0  0  0  0  0  0  0  0  0
   -1.8615    4.7243    0.0000 C   0  0  0  0  0  0  0  0  0  0  0  0
    1.4865    1.9252    0.0000 C   0  0  0  0  0  0  0  0  0  0  0  0
    2.0356    3.9743    0.0000 C   0  0  0  0  0  0  0  0  0  0  0  0
   -0.0135    4.5233    0.0000 C   0  0  0  0  0  0  0  0  0  0  0  0
   -3.1606    2.4743    0.0000 C   0  0  0  0  0  0  0  0  0  0  0  0
   -1.8615    3.2243    0.0000 C   0  0  0  0  0  0  0  0  0  0  0  0
   -3.1606    0.9743    0.0000 I   0  0  0  0  0  0  0  0  0  0  0  0
   -0.5625    2.4743    0.0000 O   0  0  0  0  0  0  0  0  0  0  0  0
    0.7365    3.2243    0.0000 Si  0  0  0  0  0  4  0  0  0  0  0  0
  6  1  1  0
  7  2  1  0
  7  6  1  0
  8  6  1  0
  9  7  1  0
 10  3  1  0
 10  4  1  0
 10  5  1  0
 10  9  1  0
M  END
>  <NAME>  (5851) 
2-IODO-3-TRIMETHYLSILOXYBUTANE

>  <SYNONYMS>  (5851) 


>  <SPECTRUM TYPE>  (5851) 
MS1

>  <INSTRUMENT TYPE>  (5851) 
EI-B

>  <INSTRUMENT>  (5851) 
JEOL JMS-D-3000

>  <ION MODE>  (5851) 
P

>  <INCHIKEY>  (5851) 
XZBCZKWFLSEZIK-UHFFFAOYSA-N

>  <FORMULA>  (5851) 
C7H17IOSi

>  <EXACT MASS>  (5851) 
272.009339694

>  <MW>  (5851) 
272

>  <ID>  (5851) 
JP002394

>  <CONTRIBUTOR>  (5851) 
University of Tokyo Team, {Faculty of Engineering, University of Tokyo

>  <COMMENT>  (5851) 
SMILES=C[Si](C)(C)OC(C)C(C)I
InChI=InChI=1S/C7H17IOSi/c1-6(8)7(2)9-10(3,4)5/h6-7H,1-5H3
computed SMILES=IC(C)C(O[Si](C)(C)C)C
accession=JP002394
date=2016.01.19 (Created 2008.10.21, modified 2011.05.06)
author=MASS SPECTROSCOPY SOC. OF JAPAN (MSSJ)
license=CC BY-NC-SA
exact mass=272.00933
ionization energy=70 eV
ion type=[M]+*
computed spectral entropy=2.5517007237191547
computed normalized entropy=0.7430722864623277
SPLASH=splash10-00xr-8900000000-68fe716279d63e32af7a
submitter=submitter = University of Tokyo Team (Faculty of Engineering, University of Tokyo)
MoNA Rating=3.75

>  <NUM PEAKS>  (5851) 
31

>  <MASS SPECTRAL PEAKS>  (5851) 
41 2.39
43 6.06
45 6.67
47 4.37
51 3
55 6.2
57 1.92
59 2.76
61 2.32
65 2.7
72 2.59
73 99.99
74 8.97
75 26.09
76 1.88
117 60.44
118 6.64
119 2.5
127 4.41
129 18.59
130 5.22
145 47.98
146 6.54
147 2.25
171 1.58
185 30.23
186 2.19
187 1.65
257 9.73
258 1.25
272 0.24

$$$$

     RDKit          2D

  9  8  0  0  0  0  0  0  0  0999 V2000
   -6.3212    3.8505    0.0000 C   0  0  0  0  0  0  0  0  0  0  0  0
   -0.5760    1.8014    0.0000 C   0  0  0  0  0  0  0  0  0  0  0  0
    1.4731    2.3505    0.0000 C   0  0  0  0  0  0  0  0  0  0  0  0
    0.9240    4.3995    0.0000 C   0  0  0  0  0  0  0  0  0  0  0  0
   -5.0221    3.1005    0.0000 C   0  0  0  0  0  0  0  0  0  0  0  0
   -3.7231    3.8505    0.0000 C   0  0  0  0  0  0  0  0  0  0  0  0
   -2.4240    3.1005    0.0000 C   0  0  0  0  0  0  0  0  0  0  0  0
   -1.1250    3.8505    0.0000 O   0  0  0  0  0  0  0  0  0  0  0  0
    0.1740    3.1005    0.0000 Si  0  0  0  0  0  4  0  0  0  0  0  0
  5  1  1  0
  5  6  2  0
  7  6  1  0
  8  7  1  0
  9  2  1  0
  9  3  1  0
  9  4  1  0
  9  8  1  0
M  END
>  <NAME>  (5852) 
1-TRIMETHYLSILOXY-2-BUTENE

>  <SYNONYMS>  (5852) 


>  <SPECTRUM TYPE>  (5852) 
MS1

>  <INSTRUMENT TYPE>  (5852) 
EI-B

>  <INSTRUMENT>  (5852) 
JEOL JMS-D-3000

>  <ION MODE>  (5852) 
P

>  <INCHIKEY>  (5852) 
RQYBDDHHZHXTRM-AATRIKPKSA-N

>  <FORMULA>  (5852) 
C7H16OSi

>  <EXACT MASS>  (5852) 
144.09704166199998

>  <MW>  (5852) 
144

>  <ID>  (5852) 
JP002393

>  <CONTRIBUTOR>  (5852) 
University of Tokyo Team, {Faculty of Engineering, University of Tokyo

>  <COMMENT>  (5852) 
SMILES=CC=CCO[Si](C)(C)C
InChI=InChI=1S/C7H16OSi/c1-5-6-7-8-9(2,3)4/h5-6H,7H2,1-4H3/b6-5+
computed SMILES=O(CC=CC)[Si](C)(C)C
accession=JP002393
date=2016.01.19 (Created 2008.10.21, modified 2011.05.06)
author=MASS SPECTROSCOPY SOC. OF JAPAN (MSSJ)
license=CC BY-NC-SA
exact mass=144.09704
ionization energy=70 eV
ion type=[M]+*
computed spectral entropy=2.326215076816151
computed normalized entropy=0.7058040708296075
SPLASH=splash10-004i-9400000000-d45056819014a7ec2b30
submitter=submitter = University of Tokyo Team (Faculty of Engineering, University of Tokyo)
MoNA Rating=3.75

>  <NUM PEAKS>  (5852) 
27

>  <MASS SPECTRAL PEAKS>  (5852) 
42 1.63
43 4.83
44 1.91
45 8.11
47 5.28
53 2.21
54 2.4
55 4.28
57 3.62
58 1.95
59 4.83
60 1.24
61 4.3
73 45
74 4.55
75 99.99
76 7.46
77 3.84
85 1.52
99 3.16
101 3.05
113 1.59
129 57.82
130 6.95
131 2.49
144 23.62
145 3.51

$$$$

     RDKit          2D

  9  8  0  0  0  0  0  0  0  0999 V2000
   -3.1974   -0.2880    0.0000 C   0  0  0  0  0  0  0  0  0  0  0  0
    0.1507    1.4130    0.0000 C   0  0  0  0  0  0  0  0  0  0  0  0
    0.6998    3.4620    0.0000 C   0  0  0  0  0  0  0  0  0  0  0  0
   -1.3493    4.0111    0.0000 C   0  0  0  0  0  0  0  0  0  0  0  0
   -1.8983    0.4620    0.0000 C   0  0  0  0  0  0  0  0  0  0  0  0
   -3.1974    2.7120    0.0000 C   0  0  0  0  0  0  0  0  0  0  0  0
   -1.8983    1.9620    0.0000 C   0  0  0  0  0  0  0  0  0  0  0  0
   -4.4964    3.4620    0.0000 O   0  0  0  0  0  0  0  0  0  0  0  0
   -0.5993    2.7120    0.0000 Si  0  0  0  0  0  4  0  0  0  0  0  0
  5  1  1  0
  7  5  1  0
  7  6  2  0
  8  6  2  0
  9  2  1  0
  9  3  1  0
  9  4  1  0
  9  7  1  0
M  END
>  <NAME>  (5853) 
ETHYL(TRIMETHYLSILYL)KETENE

>  <SYNONYMS>  (5853) 


>  <SPECTRUM TYPE>  (5853) 
MS1

>  <INSTRUMENT TYPE>  (5853) 
EI-B

>  <INSTRUMENT>  (5853) 
JEOL JMS-D-3000

>  <ION MODE>  (5853) 
P

>  <INCHIKEY>  (5853) 
RQSLKPHKSDWYDG-UHFFFAOYSA-N

>  <FORMULA>  (5853) 
C7H14OSi

>  <EXACT MASS>  (5853) 
142.08139159799998

>  <MW>  (5853) 
142

>  <ID>  (5853) 
JP002392

>  <CONTRIBUTOR>  (5853) 
University of Tokyo Team, {Faculty of Engineering, University of Tokyo

>  <COMMENT>  (5853) 
SMILES=CCC(=C=O)[Si](C)(C)C
InChI=InChI=1S/C7H14OSi/c1-5-7(6-8)9(2,3)4/h5H2,1-4H3
computed SMILES=O=C=C(CC)[Si](C)(C)C
accession=JP002392
date=2016.01.19 (Created 2008.10.21, modified 2011.05.06)
author=MASS SPECTROSCOPY SOC. OF JAPAN (MSSJ)
license=CC BY-NC-SA
exact mass=142.08139
ionization energy=70 eV
ion type=[M]+*
computed spectral entropy=2.1746934204029604
computed normalized entropy=0.714297058040115
SPLASH=splash10-004i-4900000000-7a4ddf476e471d5ab3e3
submitter=submitter = University of Tokyo Team (Faculty of Engineering, University of Tokyo)
MoNA Rating=3.75

>  <NUM PEAKS>  (5853) 
21

>  <MASS SPECTRAL PEAKS>  (5853) 
32 11.47
43 2.74
55 10.22
56 1.85
57 4.08
58 2.18
69 4.08
70 2.76
71 3.13
72 6.85
82 6.06
83 4.6
84 2.46
93 2.43
97 13.12
98 3.46
111 31.66
112 2.32
126 99.99
127 11.5
142 3.74

$$$$

     RDKit          2D

  8  9  0  0  0  0  0  0  0  0999 V2000
    1.6796    2.0493    0.0000 C   0  0  0  0  0  0  0  0  0  0  0  0
   -1.6700   -0.7500    0.0000 C   0  0  0  0  0  0  0  0  0  0  0  0
   -1.6700    0.7500    0.0000 C   0  0  0  0  0  0  0  0  0  0  0  0
   -0.3700   -1.5000    0.0000 C   0  0  0  0  0  0  0  0  0  0  0  0
   -0.3700    1.5000    0.0000 C   0  0  0  0  0  0  0  0  0  0  0  0
    0.9300   -0.7500    0.0000 C   0  0  0  0  0  0  0  0  0  0  0  0
    0.9300    0.7500    0.0000 C   0  0  0  0  0  0  0  0  0  0  0  0
    2.2300   -0.0000    0.0000 O   0  0  0  0  0  0  0  0  0  0  0  0
  3  2  1  0
  4  2  1  0
  5  3  1  0
  6  4  1  0
  7  1  1  0
  7  5  1  0
  7  6  1  0
  8  6  1  0
  8  7  1  0
M  END
>  <NAME>  (5854) 
1-METHYL-1,2-EPOXYCYCLOHEXANE

>  <SYNONYMS>  (5854) 


>  <SPECTRUM TYPE>  (5854) 
MS1

>  <INSTRUMENT TYPE>  (5854) 
EI-B

>  <INSTRUMENT>  (5854) 
JEOL JMS-D-3000

>  <ION MODE>  (5854) 
P

>  <INCHIKEY>  (5854) 
FIEKVYPYFQSFTP-UHFFFAOYSA-N

>  <FORMULA>  (5854) 
C7H12O

>  <EXACT MASS>  (5854) 
112.088815004

>  <MW>  (5854) 
112

>  <ID>  (5854) 
JP002391

>  <CONTRIBUTOR>  (5854) 
University of Tokyo Team, {Faculty of Engineering, University of Tokyo

>  <COMMENT>  (5854) 
SMILES=CC(C2)(O1)C(CCC2)1
InChI=InChI=1S/C7H12O/c1-7-5-3-2-4-6(7)8-7/h6H,2-5H2,1H3
computed SMILES=O1C2CCCCC12C
accession=JP002391
date=2016.01.19 (Created 2008.10.21, modified 2011.05.06)
author=MASS SPECTROSCOPY SOC. OF JAPAN (MSSJ)
license=CC BY-NC-SA
exact mass=112.08882
ionization energy=70 eV
ion type=[M]+*
computed spectral entropy=2.8035917346047725
computed normalized entropy=0.8242955112574694
SPLASH=splash10-05ng-9000000000-64b13d76160fe950134d
submitter=submitter = University of Tokyo Team (Faculty of Engineering, University of Tokyo)
MoNA Rating=3.75

>  <NUM PEAKS>  (5854) 
30

>  <MASS SPECTRAL PEAKS>  (5854) 
42 64.12
43 68.25
44 3.48
51 4.17
53 12.8
54 4.13
55 95.85
56 18.05
57 10.69
58 14.48
65 3.16
67 22.09
68 27.02
69 33.91
70 6.75
71 23.63
77 6.73
79 14.56
81 2.91
82 2.58
83 96.31
84 20.3
91 3.81
93 2.64
94 5.83
97 99.99
98 6.91
111 6.18
112 34.62
113 2.83

$$$$

     RDKit          2D

  8  8  0  0  0  0  0  0  0  0999 V2000
    1.9489    1.5002    0.0000 C   0  0  0  0  0  0  0  0  0  0  0  0
   -1.9500    0.7500    0.0000 C   0  0  0  0  0  0  0  0  0  0  0  0
   -1.9500   -0.7500    0.0000 C   0  0  0  0  0  0  0  0  0  0  0  0
   -0.6500    1.5000    0.0000 C   0  0  0  0  0  0  0  0  0  0  0  0
   -0.6500   -1.5000    0.0000 C   0  0  0  0  0  0  0  0  0  0  0  0
    0.6500    0.7500    0.0000 C   0  0  0  0  0  0  0  0  0  0  0  0
    0.6500   -0.7500    0.0000 C   0  0  0  0  0  0  0  0  0  0  0  0
    1.9489   -1.5002    0.0000 O   0  0  0  0  0  0  0  0  0  0  0  0
  3  2  1  0
  4  2  1  0
  5  3  1  0
  6  1  1  0
  6  4  1  0
  7  5  1  0
  7  6  1  0
  8  7  2  0
M  END
>  <NAME>  (5855) 
2-METHYLCYCLOHEXANONE

>  <SYNONYMS>  (5855) 


>  <SPECTRUM TYPE>  (5855) 
MS1

>  <INSTRUMENT TYPE>  (5855) 
EI-B

>  <INSTRUMENT>  (5855) 
JEOL JMS-D-3000

>  <ION MODE>  (5855) 
P

>  <INCHIKEY>  (5855) 
LFSAPCRASZRSKS-UHFFFAOYSA-N

>  <FORMULA>  (5855) 
C7H12O

>  <EXACT MASS>  (5855) 
112.088815004

>  <MW>  (5855) 
112

>  <ID>  (5855) 
JP002390

>  <CONTRIBUTOR>  (5855) 
University of Tokyo Team, {Faculty of Engineering, University of Tokyo

>  <COMMENT>  (5855) 
SMILES=CC(C1)C(=O)CCC1
InChI=InChI=1S/C7H12O/c1-6-4-2-3-5-7(6)8/h6H,2-5H2,1H3
computed SMILES=O=C1CCCCC1C
accession=JP002390
date=2016.01.19 (Created 2008.10.21, modified 2011.05.06)
author=MASS SPECTROSCOPY SOC. OF JAPAN (MSSJ)
license=CC BY-NC-SA
exact mass=112.08882
ionization energy=70 eV
ion type=[M]+*
computed spectral entropy=2.7083460351356607
computed normalized entropy=0.8043089089521842
SPLASH=splash10-066r-9100000000-72692ff8e12de3c934c7
submitter=submitter = University of Tokyo Team (Faculty of Engineering, University of Tokyo)
MoNA Rating=3.75

>  <NUM PEAKS>  (5855) 
29

>  <MASS SPECTRAL PEAKS>  (5855) 
40 1.26
42 48.15
43 26.64
50 1.42
51 2.16
53 5.33
54 3.82
55 50.94
56 47.68
57 5.86
58 11.54
59 2.69
66 1.31
67 9.63
68 99.99
69 51.05
70 14.51
71 4.15
79 5.49
81 4.17
83 22.52
84 33.05
85 2.1
94 4.76
97 14.31
98 1.83
111 1.55
112 60.45
113 4.94

$$$$

     RDKit          2D

  7  7  0  0  0  0  0  0  0  0999 V2000
   -1.6700   -0.9600    0.0000 C   0  0  0  0  0  0  0  0  0  0  0  0
   -1.6700    0.5400    0.0000 C   0  0  0  0  0  0  0  0  0  0  0  0
   -0.3700   -1.7100    0.0000 C   0  0  0  0  0  0  0  0  0  0  0  0
   -0.3700    1.2900    0.0000 C   0  0  0  0  0  0  0  0  0  0  0  0
    0.9300   -0.9600    0.0000 C   0  0  0  0  0  0  0  0  0  0  0  0
    0.9300    0.5400    0.0000 C   0  0  0  0  0  0  0  0  0  0  0  0
    2.2289    1.2902    0.0000 O   0  0  0  0  0  0  0  0  0  0  0  0
  2  1  1  0
  3  1  1  0
  4  2  1  0
  5  3  1  0
  6  4  1  0
  6  5  1  0
  7  6  2  0
M  END
>  <NAME>  (5856) 
CYCLOHEXANONE

>  <SYNONYMS>  (5856) 


>  <SPECTRUM TYPE>  (5856) 
MS1

>  <INSTRUMENT TYPE>  (5856) 
EI-B

>  <INSTRUMENT>  (5856) 
JEOL JMS-D-3000

>  <ION MODE>  (5856) 
P

>  <INCHIKEY>  (5856) 
JHIVVAPYMSGYDF-UHFFFAOYSA-N

>  <FORMULA>  (5856) 
C6H10O

>  <EXACT MASS>  (5856) 
98.07316494

>  <MW>  (5856) 
98

>  <ID>  (5856) 
JP002389

>  <CONTRIBUTOR>  (5856) 
University of Tokyo Team, {Faculty of Engineering, University of Tokyo

>  <COMMENT>  (5856) 
SMILES=O=C(C1)CCCC1
InChI=InChI=1S/C6H10O/c7-6-4-2-1-3-5-6/h1-5H2
computed SMILES=O=C1CCCCC1
computed spectral entropy=2.238411317783548
accession=JP002389
date=2016.01.19 (Created 2008.10.21, modified 2011.05.06)
author=MASS SPECTROSCOPY SOC. OF JAPAN (MSSJ)
license=CC BY-NC-SA
exact mass=98.07316
ionization energy=70 eV
ion type=[M]+*
computed normalized entropy=0.7472000544053978
SPLASH=splash10-052f-9000000000-e12b443f04b3874cc4a3
submitter=submitter = University of Tokyo Team (Faculty of Engineering, University of Tokyo)
MoNA Rating=3.75

>  <NUM PEAKS>  (5856) 
20

>  <MASS SPECTRAL PEAKS>  (5856) 
41 35.18
42 58.45
43 22.89
51 1.49
53 2.61
54 9.11
55 99.99
56 12.47
58 5.56
59 1.96
67 1.49
68 2
69 29.01
70 2
71 2.38
80 4.48
83 9.06
97 2.24
98 30.56
99 2.24

$$$$

     RDKit          2D

 12 12  0  0  0  0  0  0  0  0999 V2000
    4.1347    1.1614    0.0000 C   0  0  0  0  0  0  0  0  0  0  0  0
   -1.6111    3.2110    0.0000 C   0  0  0  0  0  0  0  0  0  0  0  0
   -3.6601    2.6620    0.0000 C   0  0  0  0  0  0  0  0  0  0  0  0
   -3.1111    0.6129    0.0000 C   0  0  0  0  0  0  0  0  0  0  0  0
    0.2365    3.4128    0.0000 C   0  0  0  0  0  0  0  0  0  0  0  0
    1.5356    4.1628    0.0000 C   0  0  0  0  0  0  0  0  0  0  0  0
    1.5365    1.1612    0.0000 C   0  0  0  0  0  0  0  0  0  0  0  0
   -1.0620    1.1620    0.0000 C   0  0  0  0  0  0  0  0  0  0  0  0
    2.8356    1.9112    0.0000 C   0  0  0  0  0  0  0  0  0  0  0  0
    0.2370    1.9120    0.0000 C   0  0  0  0  0  0  0  0  0  0  0  0
    2.8351    3.4120    0.0000 O   0  0  0  0  0  0  0  0  0  0  0  0
   -2.3611    1.9120    0.0000 Si  0  0  0  0  0  4  0  0  0  0  0  0
  6  5  1  0
  9  1  1  0
  9  7  1  0
 10  5  2  0
 10  7  1  0
 10  8  1  0
 11  6  1  0
 11  9  1  0
 12  2  1  0
 12  3  1  0
 12  4  1  0
 12  8  1  0
M  END
>  <NAME>  (5857) 
6-METHYL-4-TRIMETHYLSILYLMETHYL-5,6-DIHYDRO-2H-PYRAN

>  <SYNONYMS>  (5857) 


>  <SPECTRUM TYPE>  (5857) 
MS1

>  <INSTRUMENT TYPE>  (5857) 
EI-B

>  <INSTRUMENT>  (5857) 
JEOL JMS-D-3000

>  <ION MODE>  (5857) 
P

>  <INCHIKEY>  (5857) 
WOUCLWIGYRWDRJ-UHFFFAOYSA-N

>  <FORMULA>  (5857) 
C10H20OSi

>  <EXACT MASS>  (5857) 
184.12834178999998

>  <MW>  (5857) 
184

>  <ID>  (5857) 
JP002388

>  <CONTRIBUTOR>  (5857) 
University of Tokyo Team, {Faculty of Engineering, University of Tokyo

>  <COMMENT>  (5857) 
SMILES=CC(O1)CC(=CC1)C[Si](C)(C)C
InChI=InChI=1S/C10H20OSi/c1-9-7-10(5-6-11-9)8-12(2,3)4/h5,9H,6-8H2,1-4H3
computed SMILES=O1CC=C(CC1C)C[Si](C)(C)C
accession=JP002388
date=2016.01.19 (Created 2008.10.21, modified 2011.05.06)
author=MASS SPECTROSCOPY SOC. OF JAPAN (MSSJ)
license=CC BY-NC-SA
exact mass=184.12834
ionization energy=70 eV
ion type=[M]+*
computed spectral entropy=2.3097470313574306
computed normalized entropy=0.7008074505088071
SPLASH=splash10-00di-9300000000-23ba25059a98b3fa13be
submitter=submitter = University of Tokyo Team (Faculty of Engineering, University of Tokyo)
MoNA Rating=3.75

>  <NUM PEAKS>  (5857) 
27

>  <MASS SPECTRAL PEAKS>  (5857) 
43 11.72
44 4.16
45 11.63
53 1.39
55 1.82
58 2.55
59 9.6
67 1.4
72 1.51
73 99.99
74 9.01
75 11.64
77 1.4
79 3.77
83 1.4
95 3.24
97 7.91
101 2.38
110 3.94
115 1.92
117 47.54
118 5.08
119 2.11
125 5.92
127 1.36
169 1.68
184 3.46

$$$$

     RDKit          2D

 21 23  0  0  1  0  0  0  0  0999 V2000
   -3.5603   -2.2833    0.0000 C   0  0  0  0  0  0  0  0  0  0  0  0
    6.1126    0.2393    0.0000 C   0  0  0  0  0  0  0  0  0  0  0  0
   -2.5376    4.6556    0.0000 C   0  0  0  0  0  0  0  0  0  0  0  0
    4.8131    0.9901    0.0000 C   0  0  0  0  0  0  0  0  0  0  0  0
    6.1131   -1.2615    0.0000 C   0  0  0  0  0  0  0  0  0  0  0  0
   -3.4207    3.4421    0.0000 C   0  0  0  0  0  0  0  0  0  0  0  0
   -1.0450    4.4985    0.0000 C   0  0  0  0  0  0  0  0  0  0  0  0
    3.5140    0.2401    0.0000 C   0  0  0  0  0  0  0  0  0  0  0  0
    4.8140   -2.0115    0.0000 C   0  0  0  0  0  0  0  0  0  0  0  0
   -2.8112    2.0715    0.0000 C   0  0  0  0  0  0  0  0  0  0  0  0
   -0.4355    3.1279    0.0000 C   0  0  0  0  0  0  0  0  0  0  0  0
    2.2155   -2.0107    0.0000 C   0  0  0  0  0  0  0  0  0  0  0  0
   -0.4593   -1.8636    0.0000 C   0  0  0  0  0  0  0  0  0  0  0  0
    0.7507    0.2322    0.0000 C   0  0  0  0  0  0  0  0  0  0  0  0
   -2.9508   -0.9127    0.0000 C   0  0  0  0  0  0  0  0  0  0  0  0
    3.5145   -1.2607    0.0000 C   0  0  0  0  0  0  0  0  0  0  0  0
   -1.3186    1.9144    0.0000 C   0  0  0  0  0  0  0  0  0  0  0  0
   -1.4591   -0.7552    0.0000 C   0  0  0  0  0  0  0  0  0  0  0  0
   -0.7091    0.5438    0.0000 C   0  0  0  0  0  0  0  0  0  0  0  0
    0.9164   -1.2607    0.0000 N   0  0  0  0  0  0  0  0  0  0  0  0
   -3.8330    0.3005    0.0000 O   0  0  0  0  0  0  0  0  0  0  0  0
  4  2  2  0
  5  2  1  0
  6  3  2  0
  7  3  1  0
  8  4  1  0
  9  5  2  0
 10  6  1  0
 11  7  2  0
 15  1  1  0
 16  8  2  0
 16  9  1  0
 16 12  1  0
 17 10  2  0
 17 11  1  0
 18 13  1  0
 18 15  1  6
 19 14  1  0
 19 17  1  1
 19 18  1  0
 20 12  1  0
 20 13  1  0
 20 14  1  0
 21 15  2  0
M  END
>  <NAME>  (5858) 
N-BENZYL-TRANS-(3-ACETYL-4-PHENYL)PYRROLIDINE

>  <SYNONYMS>  (5858) 


>  <SPECTRUM TYPE>  (5858) 
MS1

>  <INSTRUMENT TYPE>  (5858) 
EI-B

>  <INSTRUMENT>  (5858) 
JEOL JMS-D-3000

>  <ION MODE>  (5858) 
P

>  <INCHIKEY>  (5858) 
XUMMZAHZYIBFES-RTBURBONSA-N

>  <FORMULA>  (5858) 
C19H21NO

>  <EXACT MASS>  (5858) 
279.162314292

>  <MW>  (5858) 
279

>  <ID>  (5858) 
JP002387

>  <CONTRIBUTOR>  (5858) 
University of Tokyo Team, {Faculty of Engineering, University of Tokyo

>  <COMMENT>  (5858) 
SMILES=CC(=O)C(C2)C(CN(Cc(c3)cccc3)2)c(c1)cccc1
InChI=InChI=1S/C19H21NO/c1-15(21)18-13-20(12-16-8-4-2-5-9-16)14-19(18)17-10-6-3-7-11-17/h2-11,18-19H,12-14H2,1H3/t18-,19-/m1/s1
computed SMILES=O=C(C)C1CN(CC=2C=CC=CC2)CC1C=3C=CC=CC3
accession=JP002387
date=2016.01.19 (Created 2008.10.21, modified 2011.05.06)
author=MASS SPECTROSCOPY SOC. OF JAPAN (MSSJ)
license=CC BY-NC-SA
exact mass=279.16231
ionization energy=70 eV
ion type=[M]+*
computed spectral entropy=2.658103138042775
computed normalized entropy=0.8257861696642533
SPLASH=splash10-0006-9710000000-923c9c0d72935fbd3af2
submitter=submitter = University of Tokyo Team (Faculty of Engineering, University of Tokyo)
MoNA Rating=3.75

>  <NUM PEAKS>  (5858) 
25

>  <MASS SPECTRAL PEAKS>  (5858) 
42 63.42
43 19.33
51 4.33
65 15.26
77 5.47
91 99.99
92 8.84
104 5.74
105 3.41
115 10.8
116 4.21
117 50.67
118 7.96
132 16.18
133 11.31
144 4.11
158 3.41
160 8.3
175 32.46
176 4.67
188 8.69
209 14.46
260 3.63
279 18.48
280 3.94

$$$$

     RDKit          2D

 18 21  0  0  1  0  0  0  0  0999 V2000
    0.2689    6.2540    0.0000 C   0  0  0  0  0  0  0  0  0  0  0  0
    4.1431    5.5367    0.0000 C   0  0  0  0  0  0  0  0  0  0  0  0
    4.1580    4.0618    0.0000 C   0  0  0  0  0  0  0  0  0  0  0  0
    2.8511    6.2632    0.0000 C   0  0  0  0  0  0  0  0  0  0  0  0
    2.8794    3.2775    0.0000 C   0  0  0  0  0  0  0  0  0  0  0  0
    0.2900   -1.2100    0.0000 C   0  0  0  0  0  0  0  0  0  0  0  0
   -1.8200   -1.9400    0.0000 C   0  0  0  0  0  0  0  0  0  0  0  0
    0.8500   -1.9400    0.0000 C   0  0  0  0  0  0  0  0  0  0  0  0
   -1.0100    1.0400    0.0000 C   0  0  0  0  0  0  0  0  0  0  0  0
    1.5900    1.0400    0.0000 C   0  0  0  0  0  0  0  0  0  0  0  0
   -0.5200    0.1700    0.0000 C   0  0  0  0  0  0  0  0  0  0  0  0
    1.5741    5.5148    0.0000 C   0  0  0  0  0  0  0  0  0  0  0  0
   -1.0100   -0.4600    0.0000 C   0  0  0  0  0  0  0  0  0  0  0  0
    1.5900   -0.4600    0.0000 C   0  0  0  0  0  0  0  0  0  0  0  0
   -0.5200   -1.3300    0.0000 C   0  0  0  0  0  0  0  0  0  0  0  0
    1.5890    4.0400    0.0000 C   0  0  0  0  0  0  0  0  0  0  0  0
    0.2900    1.7900    0.0000 C   0  0  0  0  0  0  0  0  0  0  0  0
    0.2900    3.2900    0.0000 N   0  0  0  0  0  0  0  0  0  0  0  0
  3  2  1  0
  4  2  1  0
  5  3  1  0
 12  1  1  0
 12  4  1  0
 13  6  1  1
 13  7  1  0
 13  9  1  0
 14  6  1  6
 14  8  1  0
 14 10  1  0
 15  7  1  6
 15  8  1  0
 15 11  1  0
 16  5  1  0
 16 12  1  0
 17  9  1  0
 17 10  1  0
 17 11  1  0
 16 18  2  0
 17 18  1  1
M  END
>  <NAME>  (5859) 
N-(1-ADAMANTYL)-2-METHYLCYCLOHEXANIMINE

>  <SYNONYMS>  (5859) 


>  <SPECTRUM TYPE>  (5859) 
MS1

>  <INSTRUMENT TYPE>  (5859) 
EI-B

>  <INSTRUMENT>  (5859) 
JEOL JMS-D-3000

>  <ION MODE>  (5859) 
P

>  <INCHIKEY>  (5859) 
HYDCFZQSWVGFFZ-OZRGJFLCSA-N

>  <FORMULA>  (5859) 
C17H27N

>  <EXACT MASS>  (5859) 
245.21434986399998

>  <MW>  (5859) 
245

>  <ID>  (5859) 
JP002386

>  <CONTRIBUTOR>  (5859) 
University of Tokyo Team, {Faculty of Engineering, University of Tokyo

>  <COMMENT>  (5859) 
SMILES=CC(C4)C(CCC4)=NC(C3)(C1)CC([H])(C2)CC([H])(CC([H])23)1
InChI=InChI=1S/C17H27N/c1-12-4-2-3-5-16(12)18-17-9-13-6-14(10-17)8-15(7-13)11-17/h12-15H,2-11H2,1H3/b18-16+/t12?,13-,14+,15-,17-
computed SMILES=N(=C1CCCCC1C)C23CC4CC(CC(C4)C2)C3
accession=JP002386
date=2016.01.19 (Created 2008.10.21, modified 2011.05.06)
author=MASS SPECTROSCOPY SOC. OF JAPAN (MSSJ)
license=CC BY-NC-SA
exact mass=245.21435
ionization energy=70 eV
ion type=[M]+*
computed spectral entropy=2.0682726524537136
computed normalized entropy=0.7459716747253088
SPLASH=splash10-000i-4920000000-63376b9222f794bed58a
submitter=submitter = University of Tokyo Team (Faculty of Engineering, University of Tokyo)
MoNA Rating=3.75

>  <NUM PEAKS>  (5859) 
16

>  <MASS SPECTRAL PEAKS>  (5859) 
53 3.17
55 7.21
67 9.17
69 2.51
77 4.9
79 15.62
81 5.21
91 4.71
93 12.34
94 3.62
107 4.45
135 99.99
136 11.69
188 9
245 24.31
246 4.95

$$$$

     RDKit          2D

 18 21  0  0  1  0  0  0  0  0999 V2000
   -4.8395    1.5051    0.0000 C   0  0  0  0  0  0  0  0  0  0  0  0
   -3.2512    5.1108    0.0000 C   0  0  0  0  0  0  0  0  0  0  0  0
   -1.8124    4.7865    0.0000 C   0  0  0  0  0  0  0  0  0  0  0  0
   -4.2551    4.0203    0.0000 C   0  0  0  0  0  0  0  0  0  0  0  0
   -1.3428    3.3619    0.0000 C   0  0  0  0  0  0  0  0  0  0  0  0
    1.7215   -1.2108    0.0000 C   0  0  0  0  0  0  0  0  0  0  0  0
    2.2815   -1.9408    0.0000 C   0  0  0  0  0  0  0  0  0  0  0  0
    3.0215    1.0392    0.0000 C   0  0  0  0  0  0  0  0  0  0  0  0
   -0.3885   -1.9408    0.0000 C   0  0  0  0  0  0  0  0  0  0  0  0
    0.4215    1.0392    0.0000 C   0  0  0  0  0  0  0  0  0  0  0  0
   -3.8202    2.6055    0.0000 C   0  0  0  0  0  0  0  0  0  0  0  0
    3.0215   -0.4608    0.0000 C   0  0  0  0  0  0  0  0  0  0  0  0
    0.4215   -0.4608    0.0000 C   0  0  0  0  0  0  0  0  0  0  0  0
    0.9115   -1.3308    0.0000 C   0  0  0  0  0  0  0  0  0  0  0  0
    1.7215    1.7892    0.0000 C   0  0  0  0  0  0  0  0  0  0  0  0
   -2.3814    2.2812    0.0000 C   0  0  0  0  0  0  0  0  0  0  0  0
    0.9115    0.1692    0.0000 C   0  0  0  0  0  0  0  0  0  0  0  0
   -1.9499    0.8446    0.0000 N   0  0  0  0  0  0  0  0  0  0  0  0
  3  2  1  0
  4  2  1  0
  5  3  1  0
 11  1  1  0
 11  4  1  0
 12  6  1  1
 12  7  1  0
 12  8  1  0
 13  6  1  6
 13  9  1  0
 13 10  1  0
 14  7  1  1
 14  9  1  0
 15  8  1  1
 15 10  1  0
 16  5  1  0
 16 11  1  0
 17 14  1  0
 17 15  1  0
 16 18  2  0
 18 17  1  0
M  END
>  <NAME>  (5860) 
N-(2-ADAMANTYL)-2-METHYLCYCLOHEXANIMINE

>  <SYNONYMS>  (5860) 


>  <SPECTRUM TYPE>  (5860) 
MS1

>  <INSTRUMENT TYPE>  (5860) 
EI-B

>  <INSTRUMENT>  (5860) 
JEOL JMS-D-3000

>  <ION MODE>  (5860) 
P

>  <INCHIKEY>  (5860) 
WSEFNHGCDYIOSY-QIXOVXMPSA-N

>  <FORMULA>  (5860) 
C17H27N

>  <EXACT MASS>  (5860) 
245.21434986399998

>  <MW>  (5860) 
245

>  <ID>  (5860) 
JP002385

>  <CONTRIBUTOR>  (5860) 
University of Tokyo Team, {Faculty of Engineering, University of Tokyo

>  <COMMENT>  (5860) 
SMILES=CC(C4)C(CCC4)=NC(C([H])31)C([H])(C2)CC([H])(CC([H])(C3)2)C1
InChI=InChI=1S/C17H27N/c1-11-4-2-3-5-16(11)18-17-14-7-12-6-13(9-14)10-15(17)8-12/h11-15,17H,2-10H2,1H3/b18-16+/t11?,12-,13+,14-,15+,17?
computed SMILES=N(=C1CCCCC1C)C2C3CC4CC(C3)CC2C4
accession=JP002385
date=2016.01.19 (Created 2008.10.21, modified 2011.05.06)
author=MASS SPECTROSCOPY SOC. OF JAPAN (MSSJ)
license=CC BY-NC-SA
exact mass=245.21435
ionization energy=70 eV
ion type=[M]+*
computed spectral entropy=2.849752452377898
computed normalized entropy=0.8966973514309214
SPLASH=splash10-000j-9850000000-708060c4f6010f196186
submitter=submitter = University of Tokyo Team (Faculty of Engineering, University of Tokyo)
MoNA Rating=3.75

>  <NUM PEAKS>  (5860) 
24

>  <MASS SPECTRAL PEAKS>  (5860) 
44 8.06
53 9.04
55 18.91
67 48
77 13.16
79 33.34
81 18.49
91 17.38
92 8.7
93 29.43
107 12.29
110 8.29
112 11.82
135 99.99
136 12.06
150 32.99
188 7.78
202 9.22
230 19.57
241 8.56
243 15.11
244 9.33
245 61.09
246 11.74

$$$$

     RDKit          2D

 20 20  0  0  0  0  0  0  0  0999 V2000
    3.8978    3.3204    0.0000 C   0  0  0  0  0  0  0  0  0  0  0  0
    1.2998    4.8204    0.0000 C   0  0  0  0  0  0  0  0  0  0  0  0
    0.7507    4.2714    0.0000 C   0  0  0  0  0  0  0  0  0  0  0  0
    1.2998    6.3204    0.0000 C   0  0  0  0  0  0  0  0  0  0  0  0
   -0.7493    6.8695    0.0000 C   0  0  0  0  0  0  0  0  0  0  0  0
    2.5988    2.5704    0.0000 C   0  0  0  0  0  0  0  0  0  0  0  0
   -9.0925    4.8204    0.0000 C   0  0  0  0  0  0  0  0  0  0  0  0
   -9.0930    3.3196    0.0000 C   0  0  0  0  0  0  0  0  0  0  0  0
   -7.7930    5.5712    0.0000 C   0  0  0  0  0  0  0  0  0  0  0  0
   -7.7940    2.5696    0.0000 C   0  0  0  0  0  0  0  0  0  0  0  0
   -6.4940    4.8212    0.0000 C   0  0  0  0  0  0  0  0  0  0  0  0
    0.0007    2.5704    0.0000 C   0  0  0  0  0  0  0  0  0  0  0  0
   -5.1954    2.5704    0.0000 C   0  0  0  0  0  0  0  0  0  0  0  0
   -2.5974    2.5704    0.0000 C   0  0  0  0  0  0  0  0  0  0  0  0
    1.2998    3.3204    0.0000 C   0  0  0  0  0  0  0  0  0  0  0  0
   -6.4945    3.3204    0.0000 C   0  0  0  0  0  0  0  0  0  0  0  0
   -1.2983    3.3204    0.0000 C   0  0  0  0  0  0  0  0  0  0  0  0
   -3.8964    3.3204    0.0000 O   0  0  0  0  0  0  0  0  0  0  0  0
   -1.2983    4.8204    0.0000 O   0  0  0  0  0  0  0  0  0  0  0  0
    0.0007    5.5704    0.0000 Si  0  0  0  0  0  4  0  0  0  0  0  0
  6  1  2  0
  8  7  2  0
  9  7  1  0
 10  8  1  0
 11  9  2  0
 15  2  2  0
 15  6  1  0
 15 12  1  0
 16 10  2  0
 16 11  1  0
 16 13  1  0
 17 12  1  0
 17 14  1  0
 18 13  1  0
 18 14  1  0
 19 17  1  0
 20  3  1  0
 20  4  1  0
 20  5  1  0
 20 19  1  0
M  END
>  <NAME>  (5861) 
6-BENZYLOXY-3-METHYLENE-5-TRIMETHYLSILOXY-1-HEXENE

>  <SYNONYMS>  (5861) 


>  <SPECTRUM TYPE>  (5861) 
MS1

>  <INSTRUMENT TYPE>  (5861) 
EI-B

>  <INSTRUMENT>  (5861) 
JEOL JMS-D-3000

>  <ION MODE>  (5861) 
P

>  <INCHIKEY>  (5861) 
IAPWZIJERGMFKY-UHFFFAOYSA-N

>  <FORMULA>  (5861) 
C17H26O2Si

>  <EXACT MASS>  (5861) 
290.170206602

>  <MW>  (5861) 
290

>  <ID>  (5861) 
JP002384

>  <CONTRIBUTOR>  (5861) 
University of Tokyo Team, {Faculty of Engineering, University of Tokyo

>  <COMMENT>  (5861) 
SMILES=C=CC(=C)CC(COCc(c1)cccc1)O[Si](C)(C)C
InChI=InChI=1S/C17H26O2Si/c1-6-15(2)12-17(19-20(3,4)5)14-18-13-16-10-8-7-9-11-16/h6-11,17H,1-2,12-14H2,3-5H3
computed SMILES=O(CC=1C=CC=CC1)CC(O[Si](C)(C)C)CC(=C)C=C
accession=JP002384
date=2016.01.19 (Created 2008.10.21, modified 2011.05.06)
author=MASS SPECTROSCOPY SOC. OF JAPAN (MSSJ)
license=CC BY-NC-SA
exact mass=290.17021
ionization energy=70 eV
ion type=[M]+*
computed spectral entropy=2.3950969832995095
computed normalized entropy=0.6910789080508638
SPLASH=splash10-006x-9100000000-1f63875e37cd3e7384a6
submitter=submitter = University of Tokyo Team (Faculty of Engineering, University of Tokyo)
MoNA Rating=3.75

>  <NUM PEAKS>  (5861) 
32

>  <MASS SPECTRAL PEAKS>  (5861) 
41 3.18
43 3.54
45 4.52
59 6.13
65 6.39
73 56.25
74 5.12
75 17.13
77 4.12
79 7.61
81 4.49
91 99.99
92 9.98
94 2.62
95 2.14
97 2.01
103 3.2
105 2.08
107 5.95
109 4.54
117 4.32
125 2.43
129 2.32
140 1.9
141 1.89
150 2.17
169 4.84
199 3.03
217 0.06
222 0.73
275 0.04
290 0.29

$$$$

     RDKit          2D

 20 21  0  0  0  0  0  0  0  0999 V2000
   -6.4827   -0.7265    0.0000 C   0  0  0  0  0  0  0  0  0  0  0  0
   -8.5318   -1.2756    0.0000 C   0  0  0  0  0  0  0  0  0  0  0  0
   -7.9827   -3.3246    0.0000 C   0  0  0  0  0  0  0  0  0  0  0  0
    5.7579   -0.5251    0.0000 C   0  0  0  0  0  0  0  0  0  0  0  0
    4.4583    0.2255    0.0000 C   0  0  0  0  0  0  0  0  0  0  0  0
    5.7586   -2.0260    0.0000 C   0  0  0  0  0  0  0  0  0  0  0  0
    3.1593   -0.5247    0.0000 C   0  0  0  0  0  0  0  0  0  0  0  0
    4.4597   -2.7762    0.0000 C   0  0  0  0  0  0  0  0  0  0  0  0
   -4.6351   -0.5247    0.0000 C   0  0  0  0  0  0  0  0  0  0  0  0
   -3.3361    0.2253    0.0000 C   0  0  0  0  0  0  0  0  0  0  0  0
   -3.3351   -2.7764    0.0000 C   0  0  0  0  0  0  0  0  0  0  0  0
    1.8611   -2.7758    0.0000 C   0  0  0  0  0  0  0  0  0  0  0  0
   -0.7369   -2.7762    0.0000 C   0  0  0  0  0  0  0  0  0  0  0  0
   -5.9337   -2.7756    0.0000 C   0  0  0  0  0  0  0  0  0  0  0  0
    3.1601   -2.0256    0.0000 C   0  0  0  0  0  0  0  0  0  0  0  0
   -4.6346   -2.0256    0.0000 C   0  0  0  0  0  0  0  0  0  0  0  0
   -2.0361   -2.0264    0.0000 C   0  0  0  0  0  0  0  0  0  0  0  0
    0.5620   -2.0260    0.0000 O   0  0  0  0  0  0  0  0  0  0  0  0
   -2.0366   -0.5256    0.0000 O   0  0  0  0  0  0  0  0  0  0  0  0
   -7.2327   -2.0256    0.0000 Si  0  0  0  0  0  4  0  0  0  0  0  0
  5  4  2  0
  6  4  1  0
  7  5  1  0
  8  6  2  0
 10  9  1  0
 15  7  2  0
 15  8  1  0
 15 12  1  0
 16  9  2  0
 16 11  1  0
 16 14  1  0
 17 11  1  0
 17 13  1  0
 18 12  1  0
 18 13  1  0
 19 10  1  0
 19 17  1  0
 20  1  1  0
 20  2  1  0
 20  3  1  0
 20 14  1  0
M  END
>  <NAME>  (5862) 
6-BENZYLOXYMETHYL-4-TRIMETHYLSILYLMETHYL-5,6-DIHYDRO-2H-PYRANE

>  <SYNONYMS>  (5862) 


>  <SPECTRUM TYPE>  (5862) 
MS1

>  <INSTRUMENT TYPE>  (5862) 
EI-B

>  <INSTRUMENT>  (5862) 
JEOL JMS-D-3000

>  <ION MODE>  (5862) 
P

>  <INCHIKEY>  (5862) 
OTXSTMDCYMFJRJ-UHFFFAOYSA-N

>  <FORMULA>  (5862) 
C17H26O2Si

>  <EXACT MASS>  (5862) 
290.170206602

>  <MW>  (5862) 
290

>  <ID>  (5862) 
JP002383

>  <CONTRIBUTOR>  (5862) 
University of Tokyo Team, {Faculty of Engineering, University of Tokyo

>  <COMMENT>  (5862) 
SMILES=c(c2)ccc(c2)COCC(O1)CC(=CC1)C[Si](C)(C)C
InChI=InChI=1S/C17H26O2Si/c1-20(2,3)14-16-9-10-19-17(11-16)13-18-12-15-7-5-4-6-8-15/h4-9,17H,10-14H2,1-3H3
computed SMILES=O(CC=1C=CC=CC1)CC2OCC=C(C2)C[Si](C)(C)C
accession=JP002383
date=2016.01.19 (Created 2008.10.21, modified 2011.05.06)
author=MASS SPECTROSCOPY SOC. OF JAPAN (MSSJ)
license=CC BY-NC-SA
exact mass=290.17021
ionization energy=70 eV
ion type=[M]+*
computed spectral entropy=2.541431984956522
computed normalized entropy=0.7547397417014977
SPLASH=splash10-00dl-9200000000-11f41b3dcf7f3aacc3ee
submitter=submitter = University of Tokyo Team (Faculty of Engineering, University of Tokyo)
MoNA Rating=3.75

>  <NUM PEAKS>  (5862) 
29

>  <MASS SPECTRAL PEAKS>  (5862) 
45 7.68
51 1.65
59 4.86
65 6.75
67 3.51
68 2.57
73 99.99
74 8.76
75 13.59
77 3.3
79 14.64
81 13.69
87 1.72
91 86.76
92 8.68
95 5.54
96 1.73
97 3.93
103 5.83
105 1.79
107 2.71
109 12.67
117 4.88
169 24.21
170 4.1
199 31.5
200 5.25
201 1.72
290 1.7

$$$$

     RDKit          2D

 17 18  0  0  0  0  0  0  0  0999 V2000
    0.0000    3.0000    0.0000 C   0  0  0  0  0  0  0  0  0  0  0  0
   -5.1551   -3.0009    0.0000 C   0  0  0  0  0  0  0  0  0  0  0  0
    1.8127   -2.1596    0.0000 C   0  0  0  0  0  0  0  0  0  0  0  0
    2.7772   -0.4897    0.0000 C   0  0  0  0  0  0  0  0  0  0  0  0
   -6.4715    0.7127    0.0000 C   0  0  0  0  0  0  0  0  0  0  0  0
   -5.2018    1.4633    0.0000 C   0  0  0  0  0  0  0  0  0  0  0  0
   -6.4544   -0.7694    0.0000 C   0  0  0  0  0  0  0  0  0  0  0  0
   -3.8831    0.7483    0.0000 C   0  0  0  0  0  0  0  0  0  0  0  0
   -1.3000    0.7500    0.0000 C   0  0  0  0  0  0  0  0  0  0  0  0
    1.3000    0.7500    0.0000 C   0  0  0  0  0  0  0  0  0  0  0  0
    0.0000   -1.5000    0.0000 C   0  0  0  0  0  0  0  0  0  0  0  0
    0.0000    1.5000    0.0000 C   0  0  0  0  0  0  0  0  0  0  0  0
   -5.1677   -1.5010    0.0000 C   0  0  0  0  0  0  0  0  0  0  0  0
   -1.3000   -0.7500    0.0000 C   0  0  0  0  0  0  0  0  0  0  0  0
   -3.8981   -0.7504    0.0000 C   0  0  0  0  0  0  0  0  0  0  0  0
    1.3000   -0.7500    0.0000 C   0  0  0  0  0  0  0  0  0  0  0  0
   -2.5989   -1.5002    0.0000 N   0  0  0  0  0  0  0  0  0  0  0  0
  6  5  1  0
  7  5  1  0
  8  6  1  0
 12  1  1  0
 12  9  1  0
 12 10  1  0
 13  2  1  0
 13  7  1  0
 14  9  1  0
 14 11  1  0
 15  8  1  0
 15 13  1  0
 16  3  1  0
 16  4  1  0
 16 10  1  0
 16 11  1  0
 17 14  1  0
 15 17  2  0
M  END
>  <NAME>  (5863) 
N-(3,3,5-TRIMETHYLCYCLOHEXYL)-2-METHYLCYCLOHEXANIMINE

>  <SYNONYMS>  (5863) 


>  <SPECTRUM TYPE>  (5863) 
MS1

>  <INSTRUMENT TYPE>  (5863) 
EI-B

>  <INSTRUMENT>  (5863) 
JEOL JMS-D-300

>  <ION MODE>  (5863) 
P

>  <INCHIKEY>  (5863) 
QEISLGFRKREVJZ-BMRADRMJSA-N

>  <FORMULA>  (5863) 
C16H29N

>  <EXACT MASS>  (5863) 
235.22999992799998

>  <MW>  (5863) 
235

>  <ID>  (5863) 
JP002382

>  <CONTRIBUTOR>  (5863) 
University of Tokyo Team, {Faculty of Engineering, University of Tokyo

>  <COMMENT>  (5863) 
SMILES=CC(C1)CC(C)(C)CC1N=C(C2)C(C)CCC2
InChI=InChI=1S/C16H29N/c1-12-9-14(11-16(3,4)10-12)17-15-8-6-5-7-13(15)2/h12-14H,5-11H2,1-4H3/b17-15+
computed SMILES=N(=C1CCCCC1C)C2CC(C)CC(C)(C)C2
accession=JP002382
date=2016.01.19 (Created 2008.10.21, modified 2011.05.06)
author=MASS SPECTROSCOPY SOC. OF JAPAN (MSSJ)
license=CC BY-NC-SA
exact mass=235.23
ionization energy=70 eV
ion type=[M]+*
computed spectral entropy=2.954735804921282
computed normalized entropy=0.9068901950694133
SPLASH=splash10-02t9-9520000000-faeb604de59316ea2864
submitter=submitter = University of Tokyo Team (Faculty of Engineering, University of Tokyo)
MoNA Rating=3.75

>  <NUM PEAKS>  (5863) 
26

>  <MASS SPECTRAL PEAKS>  (5863) 
43 11.17
53 8.18
55 36.42
57 15.21
67 17.01
68 10.47
69 99.99
70 8.33
79 8.13
81 11.77
83 33.73
95 8.98
107 8.13
109 11.27
110 22.4
112 40.36
123 10.47
124 8.33
125 19.61
160 12.37
174 9.43
178 12.22
218 13.22
220 26.94
233 9.58
235 19.01

$$$$

     RDKit          2D

 17 17  0  0  0  0  0  0  0  0999 V2000
   -5.1459    2.4830    0.0000 C   0  0  0  0  0  0  0  0  0  0  0  0
   -2.5478    3.9830    0.0000 C   0  0  0  0  0  0  0  0  0  0  0  0
   -0.4988    6.0320    0.0000 C   0  0  0  0  0  0  0  0  0  0  0  0
   -2.5478    5.4830    0.0000 C   0  0  0  0  0  0  0  0  0  0  0  0
   -1.9988    3.4339    0.0000 C   0  0  0  0  0  0  0  0  0  0  0  0
   -3.8469    1.7330    0.0000 C   0  0  0  0  0  0  0  0  0  0  0  0
    3.9474    0.2330    0.0000 C   0  0  0  0  0  0  0  0  0  0  0  0
    3.9478    1.7338    0.0000 C   0  0  0  0  0  0  0  0  0  0  0  0
    2.6478   -0.5179    0.0000 C   0  0  0  0  0  0  0  0  0  0  0  0
    2.6488    2.4838    0.0000 C   0  0  0  0  0  0  0  0  0  0  0  0
    1.3488    0.2321    0.0000 C   0  0  0  0  0  0  0  0  0  0  0  0
   -1.2488    1.7330    0.0000 C   0  0  0  0  0  0  0  0  0  0  0  0
   -2.5478    2.4830    0.0000 C   0  0  0  0  0  0  0  0  0  0  0  0
    1.3493    1.7330    0.0000 C   0  0  0  0  0  0  0  0  0  0  0  0
    0.0502    2.4830    0.0000 C   0  0  0  0  0  0  0  0  0  0  0  0
    0.0502    3.9830    0.0000 O   0  0  0  0  0  0  0  0  0  0  0  0
   -1.2488    4.7330    0.0000 Si  0  0  0  0  0  4  0  0  0  0  0  0
  6  1  2  0
  8  7  2  0
  9  7  1  0
 10  8  1  0
 11  9  2  0
 13  2  2  0
 13  6  1  0
 13 12  1  0
 14 10  2  0
 14 11  1  0
 15 12  1  0
 15 14  1  0
 16 15  1  0
 17  3  1  0
 17  4  1  0
 17  5  1  0
 17 16  1  0
M  END
>  <NAME>  (5864) 
3-METHYLENE-5-PHENYL-5-TRIMETHYLSILOXY-1-PENTENE

>  <SYNONYMS>  (5864) 


>  <SPECTRUM TYPE>  (5864) 
MS1

>  <INSTRUMENT TYPE>  (5864) 
EI-B

>  <INSTRUMENT>  (5864) 
JEOL JMS-D-3000

>  <ION MODE>  (5864) 
P

>  <INCHIKEY>  (5864) 
XTFVPAAHRMECEV-UHFFFAOYSA-N

>  <FORMULA>  (5864) 
C15H22OSi

>  <EXACT MASS>  (5864) 
246.14399185399998

>  <MW>  (5864) 
246

>  <ID>  (5864) 
JP002381

>  <CONTRIBUTOR>  (5864) 
University of Tokyo Team, {Faculty of Engineering, University of Tokyo

>  <COMMENT>  (5864) 
SMILES=C=CC(=C)CC(O[Si](C)(C)C)c(c1)cccc1
InChI=InChI=1S/C15H22OSi/c1-6-13(2)12-15(16-17(3,4)5)14-10-8-7-9-11-14/h6-11,15H,1-2,12H2,3-5H3
computed SMILES=O(C(C=1C=CC=CC1)CC(=C)C=C)[Si](C)(C)C
accession=JP002381
date=2016.01.19 (Created 2008.10.21, modified 2011.05.06)
author=MASS SPECTROSCOPY SOC. OF JAPAN (MSSJ)
license=CC BY-NC-SA
exact mass=246.14399
ionization energy=70 eV
ion type=[M]+*
computed spectral entropy=2.11419503778013
computed normalized entropy=0.6568116177226866
SPLASH=splash10-00b9-9700000000-f8d3921811d09a49e2ab
submitter=submitter = University of Tokyo Team (Faculty of Engineering, University of Tokyo)
MoNA Rating=3.75

>  <NUM PEAKS>  (5864) 
25

>  <MASS SPECTRAL PEAKS>  (5864) 
43 12.91
45 8.09
47 2.84
53 2.33
58 4.53
59 3.58
73 90.51
74 7.45
75 16.78
76 1.87
77 3.94
91 2.54
104 1.91
105 2.06
117 2.74
119 1.85
125 3.86
127 1.91
128 2.06
163 2.25
179 99.99
180 16.27
181 4.72
231 2.67
246 0.39

$$$$

     RDKit          2D

 20 21  0  0  1  0  0  0  0  0999 V2000
   -5.3523    0.1902    0.0000 C   0  0  0  0  0  0  0  0  0  0  0  0
   -3.4474    3.4896    0.0000 C   0  0  0  0  0  0  0  0  0  0  0  0
    6.0850    0.2865    0.0000 C   0  0  0  0  0  0  0  0  0  0  0  0
    4.7855    1.0373    0.0000 C   0  0  0  0  0  0  0  0  0  0  0  0
    6.0855   -1.2143    0.0000 C   0  0  0  0  0  0  0  0  0  0  0  0
    3.4864    0.2873    0.0000 C   0  0  0  0  0  0  0  0  0  0  0  0
    4.7864   -1.9643    0.0000 C   0  0  0  0  0  0  0  0  0  0  0  0
    2.1879   -1.9635    0.0000 C   0  0  0  0  0  0  0  0  0  0  0  0
   -0.4869   -1.8164    0.0000 C   0  0  0  0  0  0  0  0  0  0  0  0
    0.7231    0.2794    0.0000 C   0  0  0  0  0  0  0  0  0  0  0  0
    3.4869   -1.2135    0.0000 C   0  0  0  0  0  0  0  0  0  0  0  0
   -1.4867   -0.7080    0.0000 C   0  0  0  0  0  0  0  0  0  0  0  0
   -0.7367    0.5910    0.0000 C   0  0  0  0  0  0  0  0  0  0  0  0
   -2.9784   -0.8655    0.0000 C   0  0  0  0  0  0  0  0  0  0  0  0
   -1.3462    1.9616    0.0000 C   0  0  0  0  0  0  0  0  0  0  0  0
    0.8888   -1.2135    0.0000 N   0  0  0  0  0  0  0  0  0  0  0  0
   -3.5879   -2.2361    0.0000 O   0  0  0  0  0  0  0  0  0  0  0  0
   -0.4640    3.1747    0.0000 O   0  0  0  0  0  0  0  0  0  0  0  0
   -3.8606    0.3477    0.0000 O   0  0  0  0  0  0  0  0  0  0  0  0
   -2.8379    2.1191    0.0000 O   0  0  0  0  0  0  0  0  0  0  0  0
  4  3  2  0
  5  3  1  0
  6  4  1  0
  7  5  2  0
 11  6  2  0
 11  7  1  0
 11  8  1  0
 12  9  1  0
 13 10  1  0
 13 12  1  0
 12 14  1  6
 13 15  1  6
 16  8  1  0
 16  9  1  0
 16 10  1  0
 17 14  2  0
 18 15  2  0
 19  1  1  0
 19 14  1  0
 20  2  1  0
 20 15  1  0
M  END
>  <NAME>  (5865) 
N-BENZYL-CIS-3,4-DI(METHOXYCARBONYL)PYRR0LIDINE

>  <SYNONYMS>  (5865) 
DIMETHYL 1-BENZYLPYRROLIDINE-CIS-3,4-DICARBOXYLATE

>  <SPECTRUM TYPE>  (5865) 
MS1

>  <INSTRUMENT TYPE>  (5865) 
EI-B

>  <INSTRUMENT>  (5865) 
JEOL JMS-D-3000

>  <ION MODE>  (5865) 
P

>  <INCHIKEY>  (5865) 
JSRVVUSBZJFOJO-BETUJISGSA-N

>  <FORMULA>  (5865) 
C15H19NO4

>  <EXACT MASS>  (5865) 
277.131408088

>  <MW>  (5865) 
277

>  <ID>  (5865) 
JP002380

>  <CONTRIBUTOR>  (5865) 
University of Tokyo Team, {Faculty of Engineering, University of Tokyo

>  <COMMENT>  (5865) 
SMILES=COC(=O)C(C1)C(C(=O)OC)CN(Cc(c2)cccc2)1
InChI=InChI=1S/C15H19NO4/c1-19-14(17)12-9-16(10-13(12)15(18)20-2)8-11-6-4-3-5-7-11/h3-7,12-13H,8-10H2,1-2H3/t12-,13+
computed SMILES=O=C(OC)C1CN(CC=2C=CC=CC2)CC1C(=O)OC
accession=JP002380
date=2016.01.19 (Created 2008.10.21, modified 2011.05.06)
author=MASS SPECTROSCOPY SOC. OF JAPAN (MSSJ)
license=CC BY-NC-SA
exact mass=277.13141
ionization energy=70 eV
ion type=[M]+*
computed spectral entropy=2.900167231836511
computed normalized entropy=0.797277948752328
SPLASH=splash10-0006-9730000000-c90d18d651000b25421b
submitter=submitter = University of Tokyo Team (Faculty of Engineering, University of Tokyo)
MoNA Rating=3.75

>  <NUM PEAKS>  (5865) 
38

>  <MASS SPECTRAL PEAKS>  (5865) 
42 20.04
44 5.55
45 2.88
55 3.27
59 3.38
65 10.83
68 4.89
73 2.83
77 2.35
82 2.28
87 2.62
91 99.99
92 11.66
105 2.63
118 2.23
120 2.74
126 6.4
127 4.13
132 6.12
133 2.6
154 12.89
158 9.39
159 3.53
176 3.55
180 9.18
186 59.4
187 5.66
191 11.54
200 9.13
216 4.17
217 2.21
218 3.75
246 23.73
247 3.76
262 3.08
276 5.95
277 11.94
278 2.22

$$$$

     RDKit          2D

 20 21  0  0  1  0  0  0  0  0999 V2000
   -5.3523    0.1902    0.0000 C   0  0  0  0  0  0  0  0  0  0  0  0
   -3.4474    3.4896    0.0000 C   0  0  0  0  0  0  0  0  0  0  0  0
    6.0850    0.2865    0.0000 C   0  0  0  0  0  0  0  0  0  0  0  0
    4.7855    1.0373    0.0000 C   0  0  0  0  0  0  0  0  0  0  0  0
    6.0855   -1.2143    0.0000 C   0  0  0  0  0  0  0  0  0  0  0  0
    3.4864    0.2873    0.0000 C   0  0  0  0  0  0  0  0  0  0  0  0
    4.7864   -1.9643    0.0000 C   0  0  0  0  0  0  0  0  0  0  0  0
    2.1879   -1.9635    0.0000 C   0  0  0  0  0  0  0  0  0  0  0  0
   -0.4869   -1.8164    0.0000 C   0  0  0  0  0  0  0  0  0  0  0  0
    0.7231    0.2794    0.0000 C   0  0  0  0  0  0  0  0  0  0  0  0
    3.4869   -1.2135    0.0000 C   0  0  0  0  0  0  0  0  0  0  0  0
   -1.4867   -0.7080    0.0000 C   0  0  0  0  0  0  0  0  0  0  0  0
   -0.7367    0.5910    0.0000 C   0  0  0  0  0  0  0  0  0  0  0  0
   -2.9784   -0.8655    0.0000 C   0  0  0  0  0  0  0  0  0  0  0  0
   -1.3462    1.9616    0.0000 C   0  0  0  0  0  0  0  0  0  0  0  0
    0.8888   -1.2135    0.0000 N   0  0  0  0  0  0  0  0  0  0  0  0
   -3.5879   -2.2361    0.0000 O   0  0  0  0  0  0  0  0  0  0  0  0
   -0.4640    3.1747    0.0000 O   0  0  0  0  0  0  0  0  0  0  0  0
   -3.8606    0.3477    0.0000 O   0  0  0  0  0  0  0  0  0  0  0  0
   -2.8379    2.1191    0.0000 O   0  0  0  0  0  0  0  0  0  0  0  0
  4  3  2  0
  5  3  1  0
  6  4  1  0
  7  5  2  0
 11  6  2  0
 11  7  1  0
 11  8  1  0
 12  9  1  0
 13 10  1  0
 13 12  1  0
 12 14  1  6
 13 15  1  1
 16  8  1  0
 16  9  1  0
 16 10  1  0
 17 14  2  0
 18 15  2  0
 19  1  1  0
 19 14  1  0
 20  2  1  0
 20 15  1  0
M  END
>  <NAME>  (5866) 
N-BENZYL-TRANS-3,4-DI(METHOXYCARBONYL)PYRROLIDINE

>  <SYNONYMS>  (5866) 
DIMETHYL 1-BENZYLPYRROLIDINE-TRANS-3,4-DICARBOXYLATE

>  <SPECTRUM TYPE>  (5866) 
MS1

>  <INSTRUMENT TYPE>  (5866) 
EI-B

>  <INSTRUMENT>  (5866) 
JEOL JMS-D-3000

>  <ION MODE>  (5866) 
P

>  <INCHIKEY>  (5866) 
JSRVVUSBZJFOJO-STQMWFEESA-N

>  <FORMULA>  (5866) 
C15H19NO4

>  <EXACT MASS>  (5866) 
277.131408088

>  <MW>  (5866) 
277

>  <ID>  (5866) 
JP002379

>  <CONTRIBUTOR>  (5866) 
University of Tokyo Team, {Faculty of Engineering, University of Tokyo

>  <COMMENT>  (5866) 
SMILES=COC(=O)C(C1)C(C(=O)OC)CN(Cc(c2)cccc2)1
InChI=InChI=1S/C15H19NO4/c1-19-14(17)12-9-16(10-13(12)15(18)20-2)8-11-6-4-3-5-7-11/h3-7,12-13H,8-10H2,1-2H3/t12-,13-/m0/s1
computed SMILES=O=C(OC)C1CN(CC=2C=CC=CC2)CC1C(=O)OC
accession=JP002379
date=2016.01.19 (Created 2008.10.21, modified 2011.05.06)
author=MASS SPECTROSCOPY SOC. OF JAPAN (MSSJ)
license=CC BY-NC-SA
exact mass=277.13141
ionization energy=70 eV
ion type=[M]+*
computed spectral entropy=3.049514742488305
computed normalized entropy=0.760983577239385
SPLASH=splash10-0006-9410000000-846286801bde4026bd4f
submitter=submitter = University of Tokyo Team (Faculty of Engineering, University of Tokyo)
MoNA Rating=3.75

>  <NUM PEAKS>  (5866) 
55

>  <MASS SPECTRAL PEAKS>  (5866) 
42 31.6
43 1.16
44 5.97
45 2.95
51 2.79
53 1.8
55 3.67
59 4.17
63 1.48
65 13.45
66 1.11
67 1.69
68 3.73
73 2.54
77 3.07
79 1.59
80 1.22
82 2.03
87 1.58
89 2.62
90 1.41
91 99.99
92 12.3
99 1.78
104 1.68
105 3.26
106 1.73
118 1.96
120 2.87
126 12.36
127 2.6
131 1.28
132 4.62
133 2.91
154 33.68
155 2.88
158 5.26
159 1.34
176 1.3
186 12.27
187 1.32
190 2.17
191 1.98
200 7.55
216 3.86
218 1.8
221 1.63
222 1.28
244 2.33
246 12.23
247 1.79
262 1.96
276 3.56
277 5.47
278 1.09

$$$$

     RDKit          2D

 17 18  0  0  0  0  0  0  0  0999 V2000
   -6.4147   -1.3294    0.0000 C   0  0  0  0  0  0  0  0  0  0  0  0
   -5.5325   -0.1162    0.0000 C   0  0  0  0  0  0  0  0  0  0  0  0
    5.9048   -0.2125    0.0000 C   0  0  0  0  0  0  0  0  0  0  0  0
    5.9053    1.2883    0.0000 C   0  0  0  0  0  0  0  0  0  0  0  0
    4.6053   -0.9634    0.0000 C   0  0  0  0  0  0  0  0  0  0  0  0
    4.6063    2.0383    0.0000 C   0  0  0  0  0  0  0  0  0  0  0  0
    3.3063   -0.2134    0.0000 C   0  0  0  0  0  0  0  0  0  0  0  0
   -0.9169   -0.5171    0.0000 C   0  0  0  0  0  0  0  0  0  0  0  0
    0.5429   -0.2054    0.0000 C   0  0  0  0  0  0  0  0  0  0  0  0
    2.0077    2.0375    0.0000 C   0  0  0  0  0  0  0  0  0  0  0  0
   -0.6671    1.8904    0.0000 C   0  0  0  0  0  0  0  0  0  0  0  0
    3.3067    1.2875    0.0000 C   0  0  0  0  0  0  0  0  0  0  0  0
   -1.6669    0.7820    0.0000 C   0  0  0  0  0  0  0  0  0  0  0  0
   -3.1586    0.9394    0.0000 C   0  0  0  0  0  0  0  0  0  0  0  0
    0.7087    1.2875    0.0000 N   0  0  0  0  0  0  0  0  0  0  0  0
   -3.7681    2.3100    0.0000 O   0  0  0  0  0  0  0  0  0  0  0  0
   -4.0408   -0.2737    0.0000 O   0  0  0  0  0  0  0  0  0  0  0  0
  2  1  1  0
  4  3  2  0
  5  3  1  0
  6  4  1  0
  7  5  2  0
  9  8  1  0
 12  6  2  0
 12  7  1  0
 12 10  1  0
 13  8  1  0
 13 11  1  0
 14 13  1  0
 15  9  1  0
 15 10  1  0
 15 11  1  0
 16 14  2  0
 17  2  1  0
 17 14  1  0
M  END
>  <NAME>  (5867) 
N-BENZYL-3-ETHOXYCARBONYLPYRROLIDINE

>  <SYNONYMS>  (5867) 
ETHYL 1-BENZYLPYRROLIDINE-3-CARBOXYLATE

>  <SPECTRUM TYPE>  (5867) 
MS1

>  <INSTRUMENT TYPE>  (5867) 
EI-B

>  <INSTRUMENT>  (5867) 
JEOL JMS-D-3000

>  <ION MODE>  (5867) 
P

>  <INCHIKEY>  (5867) 
CYPXEPWPTXKUPL-UHFFFAOYSA-N

>  <FORMULA>  (5867) 
C14H19NO2

>  <EXACT MASS>  (5867) 
233.141578848

>  <MW>  (5867) 
233

>  <ID>  (5867) 
JP002378

>  <CONTRIBUTOR>  (5867) 
University of Tokyo Team, {Faculty of Engineering, University of Tokyo

>  <COMMENT>  (5867) 
SMILES=CCOC(=O)C(C2)CN(C2)Cc(c1)cccc1
InChI=InChI=1S/C14H19NO2/c1-2-17-14(16)13-8-9-15(11-13)10-12-6-4-3-5-7-12/h3-7,13H,2,8-11H2,1H3
computed SMILES=O=C(OCC)C1CN(CC=2C=CC=CC2)CC1
author=MASS SPECTROSCOPY SOC. OF JAPAN (MSSJ)
license=CC BY-NC-SA
exact mass=233.14158
accession=JP002378
date=2016.01.19 (Created 2008.10.21, modified 2011.05.06)
ionization energy=70 eV
ion type=[M]+*
computed spectral entropy=2.471042291552962
computed normalized entropy=0.7415638157884364
SPLASH=splash10-0006-9400000000-2688c8fccc692b1a9bc0
submitter=submitter = University of Tokyo Team (Faculty of Engineering, University of Tokyo)
MoNA Rating=3.75

>  <NUM PEAKS>  (5867) 
28

>  <MASS SPECTRAL PEAKS>  (5867) 
42 28.25
43 1.9
44 2.58
51 2.38
55 3.19
65 12.66
68 9.71
69 2.85
77 2.03
82 2.25
89 2.03
91 99.99
92 12.54
114 2.42
128 3.94
132 6.86
133 2.88
142 50.16
143 4.3
156 9.34
160 2.43
184 3.07
188 13.95
189 1.95
204 4.01
229 2.96
232 4.95
233 5.87

$$$$

     RDKit          2D

 16 16  0  0  0  0  0  0  0  0999 V2000
   -8.7683    4.2571    0.0000 C   0  0  0  0  0  0  0  0  0  0  0  0
   -6.1702    2.7571    0.0000 C   0  0  0  0  0  0  0  0  0  0  0  0
   -7.4692    5.0071    0.0000 C   0  0  0  0  0  0  0  0  0  0  0  0
    4.2221    2.7571    0.0000 C   0  0  0  0  0  0  0  0  0  0  0  0
    4.2226    4.2579    0.0000 C   0  0  0  0  0  0  0  0  0  0  0  0
    2.9226    2.0063    0.0000 C   0  0  0  0  0  0  0  0  0  0  0  0
    2.9236    5.0079    0.0000 C   0  0  0  0  0  0  0  0  0  0  0  0
    1.6236    2.7563    0.0000 C   0  0  0  0  0  0  0  0  0  0  0  0
   -4.8712    5.0071    0.0000 C   0  0  0  0  0  0  0  0  0  0  0  0
    0.3250    5.0071    0.0000 C   0  0  0  0  0  0  0  0  0  0  0  0
   -2.2731    5.0071    0.0000 C   0  0  0  0  0  0  0  0  0  0  0  0
   -6.1702    4.2571    0.0000 C   0  0  0  0  0  0  0  0  0  0  0  0
    1.6240    4.2571    0.0000 C   0  0  0  0  0  0  0  0  0  0  0  0
   -3.5721    4.2571    0.0000 C   0  0  0  0  0  0  0  0  0  0  0  0
   -3.5721    2.7571    0.0000 O   0  0  0  0  0  0  0  0  0  0  0  0
   -0.9740    4.2571    0.0000 O   0  0  0  0  0  0  0  0  0  0  0  0
  3  1  2  0
  5  4  2  0
  6  4  1  0
  7  5  1  0
  8  6  2  0
 12  2  2  0
 12  3  1  0
 12  9  1  0
 13  7  2  0
 13  8  1  0
 13 10  1  0
 14  9  1  0
 14 11  1  0
 15 14  1  0
 16 10  1  0
 16 11  1  0
M  END
>  <NAME>  (5868) 
1-BENZYLOXY-4-METHYLENE-5-HEXEN-2-OL

>  <SYNONYMS>  (5868) 


>  <SPECTRUM TYPE>  (5868) 
MS1

>  <INSTRUMENT TYPE>  (5868) 
EI-B

>  <INSTRUMENT>  (5868) 
JEOL JMS-D-3000

>  <ION MODE>  (5868) 
P

>  <INCHIKEY>  (5868) 
JWRUCASEZDOQPK-UHFFFAOYSA-N

>  <FORMULA>  (5868) 
C14H18O2

>  <EXACT MASS>  (5868) 
218.130679816

>  <MW>  (5868) 
218

>  <ID>  (5868) 
JP002377

>  <CONTRIBUTOR>  (5868) 
University of Tokyo Team, {Faculty of Engineering, University of Tokyo

>  <COMMENT>  (5868) 
SMILES=C=CC(=C)CC(O)COCc(c1)cccc1
InChI=InChI=1S/C14H18O2/c1-3-12(2)9-14(15)11-16-10-13-7-5-4-6-8-13/h3-8,14-15H,1-2,9-11H2
computed SMILES=OC(COCC=1C=CC=CC1)CC(=C)C=C
accession=JP002377
date=2016.01.19 (Created 2008.10.21, modified 2011.05.06)
author=MASS SPECTROSCOPY SOC. OF JAPAN (MSSJ)
license=CC BY-NC-SA
exact mass=218.13068
ionization energy=70 eV
ion type=[M]+*
computed spectral entropy=2.5783328858711316
computed normalized entropy=0.750827749883156
SPLASH=splash10-0006-9100000000-b5dfe3567eac804c3cf2
submitter=submitter = University of Tokyo Team (Faculty of Engineering, University of Tokyo)
MoNA Rating=3.75

>  <NUM PEAKS>  (5868) 
31

>  <MASS SPECTRAL PEAKS>  (5868) 
41 22.6
43 5.95
51 3.31
53 4.34
55 1.71
63 1.88
65 10.62
67 5.95
68 6.99
69 10.85
77 3.45
79 7.24
81 6.83
83 1.87
89 1.86
91 99.99
92 17.2
94 2.57
95 2.31
97 2.8
107 6.49
109 5.64
112 2.06
113 2.62
114 2.85
126 6.33
127 5.42
143 4.01
169 1.72
187 2.88
218 0.38

$$$$

     RDKit          2D

 16 17  0  0  0  0  0  0  0  0999 V2000
   -7.7945   -3.7503    0.0000 C   0  0  0  0  0  0  0  0  0  0  0  0
    3.8971   -1.4998    0.0000 C   0  0  0  0  0  0  0  0  0  0  0  0
    2.5974   -0.7492    0.0000 C   0  0  0  0  0  0  0  0  0  0  0  0
    3.8978   -3.0007    0.0000 C   0  0  0  0  0  0  0  0  0  0  0  0
    1.2985   -1.4994    0.0000 C   0  0  0  0  0  0  0  0  0  0  0  0
    2.5989   -3.7509    0.0000 C   0  0  0  0  0  0  0  0  0  0  0  0
   -6.4959   -1.4994    0.0000 C   0  0  0  0  0  0  0  0  0  0  0  0
   -5.1969   -0.7494    0.0000 C   0  0  0  0  0  0  0  0  0  0  0  0
   -5.1959   -3.7511    0.0000 C   0  0  0  0  0  0  0  0  0  0  0  0
    0.0003   -3.7505    0.0000 C   0  0  0  0  0  0  0  0  0  0  0  0
   -2.5977   -3.7509    0.0000 C   0  0  0  0  0  0  0  0  0  0  0  0
   -6.4955   -3.0003    0.0000 C   0  0  0  0  0  0  0  0  0  0  0  0
    1.2992   -3.0003    0.0000 C   0  0  0  0  0  0  0  0  0  0  0  0
   -3.8969   -3.0011    0.0000 C   0  0  0  0  0  0  0  0  0  0  0  0
   -1.2988   -3.0007    0.0000 O   0  0  0  0  0  0  0  0  0  0  0  0
   -3.8974   -1.5003    0.0000 O   0  0  0  0  0  0  0  0  0  0  0  0
  3  2  2  0
  4  2  1  0
  5  3  1  0
  6  4  2  0
  8  7  1  0
 12  1  2  0
 12  7  1  0
 12  9  1  0
 13  5  2  0
 13  6  1  0
 13 10  1  0
 14  9  1  0
 14 11  1  0
 15 10  1  0
 15 11  1  0
 16  8  1  0
 16 14  1  0
M  END
>  <NAME>  (5869) 
2-(BENZYLOXYMETHYL)-4-METHYLENE-4H-TETRAHYDROPYRAN

>  <SYNONYMS>  (5869) 


>  <SPECTRUM TYPE>  (5869) 
MS1

>  <INSTRUMENT TYPE>  (5869) 
EI-B

>  <INSTRUMENT>  (5869) 
JEOL JMS-D-3000

>  <ION MODE>  (5869) 
P

>  <INCHIKEY>  (5869) 
IDIMKXOKGIWVMZ-UHFFFAOYSA-N

>  <FORMULA>  (5869) 
C14H18O2

>  <EXACT MASS>  (5869) 
218.130679816

>  <MW>  (5869) 
218

>  <ID>  (5869) 
JP002376

>  <CONTRIBUTOR>  (5869) 
University of Tokyo Team, {Faculty of Engineering, University of Tokyo

>  <COMMENT>  (5869) 
SMILES=C=C(C2)CC(OC2)COCc(c1)cccc1
InChI=InChI=1S/C14H18O2/c1-12-7-8-16-14(9-12)11-15-10-13-5-3-2-4-6-13/h2-6,14H,1,7-11H2
computed SMILES=O(CC=1C=CC=CC1)CC2OCCC(=C)C2
accession=JP002376
date=2016.01.19 (Created 2008.10.21, modified 2011.05.06)
author=MASS SPECTROSCOPY SOC. OF JAPAN (MSSJ)
license=CC BY-NC-SA
exact mass=218.13068
ionization energy=70 eV
ion type=[M]+*
computed spectral entropy=2.4813490344490483
computed normalized entropy=0.7368966552781362
SPLASH=splash10-0005-9000000000-c5733bd707eff5fd141c
submitter=submitter = University of Tokyo Team (Faculty of Engineering, University of Tokyo)
MoNA Rating=3.75

>  <NUM PEAKS>  (5869) 
29

>  <MASS SPECTRAL PEAKS>  (5869) 
41 29.26
42 1.87
43 6.98
51 2.52
53 7.21
55 1.73
63 1.65
65 11.27
67 11.51
68 2.8
69 21.78
70 1.46
77 2.32
79 7.11
81 4.1
83 2.05
84 2.39
89 1.96
91 69.16
92 7.54
95 1.58
96 29.82
97 99.99
98 7.67
107 7.51
112 3.49
127 2.57
187 2.3
218 1.41

$$$$

     RDKit          2D

 15 16  0  0  0  0  0  0  0  0999 V2000
    1.8127   -2.1596    0.0000 C   0  0  0  0  0  0  0  0  0  0  0  0
    5.6694   -3.9372    0.0000 C   0  0  0  0  0  0  0  0  0  0  0  0
    6.1833   -2.5271    0.0000 C   0  0  0  0  0  0  0  0  0  0  0  0
    4.1914   -4.1981    0.0000 C   0  0  0  0  0  0  0  0  0  0  0  0
   -1.3000    0.7500    0.0000 C   0  0  0  0  0  0  0  0  0  0  0  0
    0.0000    1.5000    0.0000 C   0  0  0  0  0  0  0  0  0  0  0  0
    5.2193   -1.3779    0.0000 C   0  0  0  0  0  0  0  0  0  0  0  0
    3.2274   -3.0490    0.0000 C   0  0  0  0  0  0  0  0  0  0  0  0
   -1.3000   -0.7500    0.0000 C   0  0  0  0  0  0  0  0  0  0  0  0
    1.3000    0.7500    0.0000 C   0  0  0  0  0  0  0  0  0  0  0  0
    2.7772   -0.4897    0.0000 C   0  0  0  0  0  0  0  0  0  0  0  0
    3.7413   -1.6389    0.0000 C   0  0  0  0  0  0  0  0  0  0  0  0
    0.0000   -1.5000    0.0000 C   0  0  0  0  0  0  0  0  0  0  0  0
    1.3000   -0.7500    0.0000 C   0  0  0  0  0  0  0  0  0  0  0  0
   -0.0000   -3.0000    0.0000 O   0  0  0  0  0  0  0  0  0  0  0  0
  3  2  2  0
  4  2  1  0
  6  5  1  0
  7  3  1  0
  8  4  2  0
  9  5  1  0
 10  6  1  0
 12  7  2  0
 12  8  1  0
 12 11  1  0
 13  9  1  0
 14  1  1  0
 14 10  1  0
 14 11  1  0
 14 13  1  0
 15 13  2  0
M  END
>  <NAME>  (5870) 
2-BENZYL-2-METHYLCYCLOHEXANONE

>  <SYNONYMS>  (5870) 


>  <SPECTRUM TYPE>  (5870) 
MS1

>  <INSTRUMENT TYPE>  (5870) 
EI-B

>  <INSTRUMENT>  (5870) 
JEOL JMS-D-3000

>  <ION MODE>  (5870) 
P

>  <INCHIKEY>  (5870) 
JHMRHFGOPQLVBP-UHFFFAOYSA-N

>  <FORMULA>  (5870) 
C14H18O

>  <EXACT MASS>  (5870) 
202.135765196

>  <MW>  (5870) 
202

>  <ID>  (5870) 
JP002375

>  <CONTRIBUTOR>  (5870) 
University of Tokyo Team, {Faculty of Engineering, University of Tokyo

>  <COMMENT>  (5870) 
SMILES=c(c2)ccc(c2)CC(C)(C1)C(=O)CCC1
InChI=InChI=1S/C14H18O/c1-14(10-6-5-9-13(14)15)11-12-7-3-2-4-8-12/h2-4,7-8H,5-6,9-11H2,1H3
computed SMILES=O=C1CCCCC1(C)CC=2C=CC=CC2
accession=JP002375
date=2016.01.19 (Created 2008.10.21, modified 2011.05.06)
author=MASS SPECTROSCOPY SOC. OF JAPAN (MSSJ)
license=CC BY-NC-SA
exact mass=202.13577
ionization energy=70 eV
ion type=[M]+*
computed spectral entropy=2.391245672210589
computed normalized entropy=0.7626375644587131
SPLASH=splash10-0006-9310000000-e9984670fb1e5b012086
submitter=submitter = University of Tokyo Team (Faculty of Engineering, University of Tokyo)
MoNA Rating=3.75

>  <NUM PEAKS>  (5870) 
23

>  <MASS SPECTRAL PEAKS>  (5870) 
44 3.27
51 3.4
55 14.79
65 7.55
67 3.71
77 4.09
83 7.11
91 99.99
92 13.91
105 3.65
111 3.33
115 3.84
117 8.62
118 2.95
129 4.03
131 4.59
143 6.54
145 3.71
158 4.53
159 9.82
187 5.41
202 23.36
203 4.53

$$$$

     RDKit          2D

 15 16  0  0  1  0  0  0  0  0999 V2000
   -5.8651    3.6678    0.0000 C   0  0  0  0  0  0  0  0  0  0  0  0
    3.2429    1.4498    0.0000 C   0  0  0  0  0  0  0  0  0  0  0  0
    3.2434    2.9507    0.0000 C   0  0  0  0  0  0  0  0  0  0  0  0
    1.9434    0.6990    0.0000 C   0  0  0  0  0  0  0  0  0  0  0  0
   -3.2872    0.7155    0.0000 C   0  0  0  0  0  0  0  0  0  0  0  0
   -4.5632    1.4406    0.0000 C   0  0  0  0  0  0  0  0  0  0  0  0
    1.9444    3.7007    0.0000 C   0  0  0  0  0  0  0  0  0  0  0  0
    0.6444    1.4490    0.0000 C   0  0  0  0  0  0  0  0  0  0  0  0
   -1.9829    1.4301    0.0000 C   0  0  0  0  0  0  0  0  0  0  0  0
   -0.6542    3.6998    0.0000 C   0  0  0  0  0  0  0  0  0  0  0  0
   -4.5643    2.9209    0.0000 C   0  0  0  0  0  0  0  0  0  0  0  0
    0.6449    2.9498    0.0000 C   0  0  0  0  0  0  0  0  0  0  0  0
   -1.9532    2.9498    0.0000 C   0  0  0  0  0  0  0  0  0  0  0  0
   -3.2693    3.6757    0.0000 C   0  0  0  0  0  0  0  0  0  0  0  0
   -3.2870    5.1756    0.0000 O   0  0  0  0  0  0  0  0  0  0  0  0
  3  2  2  0
  4  2  1  0
  6  5  1  0
  7  3  1  0
  8  4  2  0
  9  5  1  0
 11  1  1  1
 11  6  1  0
 12  7  2  0
 12  8  1  0
 12 10  1  0
 13  9  1  0
 13 10  1  6
 14 11  1  0
 14 13  1  0
 15 14  2  0
M  END
>  <NAME>  (5871) 
TRANS-2-BENZYL-6-METHYLCYCLOHEXANONE

>  <SYNONYMS>  (5871) 


>  <SPECTRUM TYPE>  (5871) 
MS1

>  <INSTRUMENT TYPE>  (5871) 
EI-B

>  <INSTRUMENT>  (5871) 
JEOL JMS-D-3000

>  <ION MODE>  (5871) 
P

>  <INCHIKEY>  (5871) 
RADVUEMOCLDJMY-YPMHNXCESA-N

>  <FORMULA>  (5871) 
C14H18O

>  <EXACT MASS>  (5871) 
202.135765196

>  <MW>  (5871) 
202

>  <ID>  (5871) 
JP002374

>  <CONTRIBUTOR>  (5871) 
University of Tokyo Team, {Faculty of Engineering, University of Tokyo

>  <COMMENT>  (5871) 
SMILES=CC(C2)C(=O)C(CC2)Cc(c1)cccc1
InChI=InChI=1S/C14H18O/c1-11-6-5-9-13(14(11)15)10-12-7-3-2-4-8-12/h2-4,7-8,11,13H,5-6,9-10H2,1H3/t11-,13+/m1/s1
computed SMILES=O=C1C(C)CCCC1CC=2C=CC=CC2
accession=JP002374
date=2016.01.19 (Created 2008.10.21, modified 2011.05.06)
author=MASS SPECTROSCOPY SOC. OF JAPAN (MSSJ)
license=CC BY-NC-SA
exact mass=202.13577
ionization energy=70 eV
ion type=[M]+*
computed spectral entropy=2.559598523880235
computed normalized entropy=0.8053981022719179
SPLASH=splash10-0006-9410000000-12e4fff609b10191fdcc
submitter=submitter = University of Tokyo Team (Faculty of Engineering, University of Tokyo)
MoNA Rating=3.75

>  <NUM PEAKS>  (5871) 
24

>  <MASS SPECTRAL PEAKS>  (5871) 
43 5.81
55 17.25
57 6.09
65 9.1
67 3.92
77 4.09
83 6.8
91 99.99
92 15.1
104 5.49
105 3.15
111 8.13
115 5.65
117 12.75
118 3.98
129 4.99
131 6.04
143 5.99
145 6.8
158 3.28
159 13.25
187 5.6
202 30.4
203 4.75

$$$$

     RDKit          2D

 16 17  0  0  0  0  0  0  0  0999 V2000
   -6.1260   -1.1442    0.0000 C   0  0  0  0  0  0  0  0  0  0  0  0
    5.3113   -1.2405    0.0000 C   0  0  0  0  0  0  0  0  0  0  0  0
    5.3118    0.2604    0.0000 C   0  0  0  0  0  0  0  0  0  0  0  0
    4.0118   -1.9913    0.0000 C   0  0  0  0  0  0  0  0  0  0  0  0
    4.0128    1.0104    0.0000 C   0  0  0  0  0  0  0  0  0  0  0  0
    2.7128   -1.2413    0.0000 C   0  0  0  0  0  0  0  0  0  0  0  0
   -1.5103   -1.5450    0.0000 C   0  0  0  0  0  0  0  0  0  0  0  0
   -0.0506   -1.2334    0.0000 C   0  0  0  0  0  0  0  0  0  0  0  0
    1.4142    1.0095    0.0000 C   0  0  0  0  0  0  0  0  0  0  0  0
   -1.2606    0.8624    0.0000 C   0  0  0  0  0  0  0  0  0  0  0  0
    2.7133    0.2595    0.0000 C   0  0  0  0  0  0  0  0  0  0  0  0
   -2.2603   -0.2460    0.0000 C   0  0  0  0  0  0  0  0  0  0  0  0
   -3.7521   -0.0885    0.0000 C   0  0  0  0  0  0  0  0  0  0  0  0
    0.1152    0.2595    0.0000 N   0  0  0  0  0  0  0  0  0  0  0  0
   -4.3616    1.2821    0.0000 O   0  0  0  0  0  0  0  0  0  0  0  0
   -4.6343   -1.3016    0.0000 O   0  0  0  0  0  0  0  0  0  0  0  0
  3  2  2  0
  4  2  1  0
  5  3  1  0
  6  4  2  0
  8  7  1  0
 11  5  2  0
 11  6  1  0
 11  9  1  0
 12  7  1  0
 12 10  1  0
 13 12  1  0
 14  8  1  0
 14  9  1  0
 14 10  1  0
 15 13  2  0
 16  1  1  0
 16 13  1  0
M  END
>  <NAME>  (5872) 
N-BENZYL-3-METHOXYCARBONYLPYRROLIDINE

>  <SYNONYMS>  (5872) 
METHYL 1-BENZYLPYRROLIDINE-3-CARBOXYLATE

>  <SPECTRUM TYPE>  (5872) 
MS1

>  <INSTRUMENT TYPE>  (5872) 
EI-B

>  <INSTRUMENT>  (5872) 
JEOL JMS-D-3000

>  <ION MODE>  (5872) 
P

>  <INCHIKEY>  (5872) 
GDWFCUOFVSNTTG-UHFFFAOYSA-N

>  <FORMULA>  (5872) 
C13H17NO2

>  <EXACT MASS>  (5872) 
219.125928784

>  <MW>  (5872) 
219

>  <ID>  (5872) 
JP002372

>  <CONTRIBUTOR>  (5872) 
University of Tokyo Team, {Faculty of Engineering, University of Tokyo

>  <COMMENT>  (5872) 
SMILES=COC(=O)C(C2)CN(C2)Cc(c1)cccc1
InChI=InChI=1S/C13H17NO2/c1-16-13(15)12-7-8-14(10-12)9-11-5-3-2-4-6-11/h2-6,12H,7-10H2,1H3
computed SMILES=O=C(OC)C1CN(CC=2C=CC=CC2)CC1
date=2016.01.19 (Created 2008.10.21, modified 2011.05.06)
author=MASS SPECTROSCOPY SOC. OF JAPAN (MSSJ)
accession=JP002372
license=CC BY-NC-SA
exact mass=219.12593
ionization energy=70 eV
ion type=[M]+*
computed spectral entropy=2.461075998213803
computed normalized entropy=0.784908479725741
SPLASH=splash10-0006-9410000000-d58b85061e8deb3b8005
submitter=submitter = University of Tokyo Team (Faculty of Engineering, University of Tokyo)
MoNA Rating=3.75

>  <NUM PEAKS>  (5872) 
23

>  <MASS SPECTRAL PEAKS>  (5872) 
42 28.13
44 5.06
51 3.18
55 3.63
59 2.76
65 13.04
68 6.15
73 9.69
77 3.06
91 99.99
92 12.57
128 53.55
129 4.09
130 5.88
132 6.55
133 2.61
142 17.74
188 10.85
204 3.83
215 5.25
218 11.61
219 8.4
220 2.62

$$$$

     RDKit          2D

 13 13  0  0  0  0  0  0  0  0999 V2000
   -5.5207    3.1321    0.0000 C   0  0  0  0  0  0  0  0  0  0  0  0
   -2.9226    4.6321    0.0000 C   0  0  0  0  0  0  0  0  0  0  0  0
   -4.2216    2.3821    0.0000 C   0  0  0  0  0  0  0  0  0  0  0  0
    3.5726    0.8821    0.0000 C   0  0  0  0  0  0  0  0  0  0  0  0
    3.5731    2.3829    0.0000 C   0  0  0  0  0  0  0  0  0  0  0  0
    2.2731    0.1313    0.0000 C   0  0  0  0  0  0  0  0  0  0  0  0
    2.2740    3.1329    0.0000 C   0  0  0  0  0  0  0  0  0  0  0  0
    0.9740    0.8813    0.0000 C   0  0  0  0  0  0  0  0  0  0  0  0
   -1.6236    2.3821    0.0000 C   0  0  0  0  0  0  0  0  0  0  0  0
   -2.9226    3.1321    0.0000 C   0  0  0  0  0  0  0  0  0  0  0  0
    0.9745    2.3821    0.0000 C   0  0  0  0  0  0  0  0  0  0  0  0
   -0.3245    3.1321    0.0000 C   0  0  0  0  0  0  0  0  0  0  0  0
   -0.3245    4.6321    0.0000 O   0  0  0  0  0  0  0  0  0  0  0  0
  3  1  2  0
  5  4  2  0
  6  4  1  0
  7  5  1  0
  8  6  2  0
 10  2  2  0
 10  3  1  0
 10  9  1  0
 11  7  2  0
 11  8  1  0
 12  9  1  0
 12 11  1  0
 13 12  1  0
M  END
>  <NAME>  (5873) 
3-METHYLENE-1-PHENYL-4-PENTEN-1-OL

>  <SYNONYMS>  (5873) 


>  <SPECTRUM TYPE>  (5873) 
MS1

>  <INSTRUMENT TYPE>  (5873) 
EI-B

>  <INSTRUMENT>  (5873) 
JEOL JMS-D-3000

>  <ION MODE>  (5873) 
P

>  <INCHIKEY>  (5873) 
DRGKXHCIROMRKK-UHFFFAOYSA-N

>  <FORMULA>  (5873) 
C12H14O

>  <EXACT MASS>  (5873) 
174.104465068

>  <MW>  (5873) 
174

>  <ID>  (5873) 
JP002371

>  <CONTRIBUTOR>  (5873) 
University of Tokyo Team, {Faculty of Engineering, University of Tokyo

>  <COMMENT>  (5873) 
SMILES=C=CC(=C)CC(O)c(c1)cccc1
InChI=InChI=1S/C12H14O/c1-3-10(2)9-12(13)11-7-5-4-6-8-11/h3-8,12-13H,1-2,9H2
computed SMILES=OC(C=1C=CC=CC1)CC(=C)C=C
accession=JP002371
date=2016.01.19 (Created 2008.10.21, modified 2011.05.06)
author=MASS SPECTROSCOPY SOC. OF JAPAN (MSSJ)
license=CC BY-NC-SA
exact mass=174.10447
ionization energy=70 eV
ion type=[M]+*
computed spectral entropy=2.814037094259714
computed normalized entropy=0.7980003957666857
SPLASH=splash10-0a6r-9800000000-13dd9b0b3d389de1239c
submitter=submitter = University of Tokyo Team (Faculty of Engineering, University of Tokyo)
MoNA Rating=3.75

>  <NUM PEAKS>  (5873) 
34

>  <MASS SPECTRAL PEAKS>  (5873) 
41 11.62
42 3.51
50 7.02
51 18.41
52 5.28
53 15.56
63 2.79
65 3.74
66 1.87
67 24.26
68 42.54
69 2.46
74 2.33
75 1.64
76 2.65
77 50.62
78 8.92
79 47.01
80 3.28
91 3.64
105 55.18
106 32.56
107 99.99
108 7.87
115 5.18
127 1.73
128 5.28
129 3.77
141 6.82
153 2.03
154 1.8
155 6.1
156 11.52
174 1.7

$$$$

     RDKit          2D

 12 11  0  0  0  0  0  0  0  0999 V2000
    2.5981    4.5000    0.0000 C   0  0  0  0  0  0  0  0  0  0  0  0
   -7.7942    4.5000    0.0000 C   0  0  0  0  0  0  0  0  0  0  0  0
   -5.1962    3.0000    0.0000 C   0  0  0  0  0  0  0  0  0  0  0  0
   -1.2990    6.7500    0.0000 C   0  0  0  0  0  0  0  0  0  0  0  0
    1.2990    5.2500    0.0000 C   0  0  0  0  0  0  0  0  0  0  0  0
   -6.4952    5.2500    0.0000 C   0  0  0  0  0  0  0  0  0  0  0  0
    0.0000    4.5000    0.0000 C   0  0  0  0  0  0  0  0  0  0  0  0
   -3.8971    5.2500    0.0000 C   0  0  0  0  0  0  0  0  0  0  0  0
   -5.1962    4.5000    0.0000 C   0  0  0  0  0  0  0  0  0  0  0  0
   -1.2990    5.2500    0.0000 C   0  0  0  0  0  0  0  0  0  0  0  0
   -2.5981    4.5000    0.0000 C   0  0  0  0  0  0  0  0  0  0  0  0
   -2.5981    3.0000    0.0000 O   0  0  0  0  0  0  0  0  0  0  0  0
  5  1  1  0
  6  2  2  0
  7  5  1  0
  9  3  2  0
  9  6  1  0
  9  8  1  0
 10  4  1  0
 10  7  1  0
 11  8  1  0
 11 10  1  0
 12 11  1  0
M  END
>  <NAME>  (5874) 
6-METHYL-3-METH YLENE-1-NONEN-5-OL

>  <SYNONYMS>  (5874) 


>  <SPECTRUM TYPE>  (5874) 
MS1

>  <INSTRUMENT TYPE>  (5874) 
EI-B

>  <INSTRUMENT>  (5874) 
JEOL JMS-D-3000

>  <ION MODE>  (5874) 
P

>  <INCHIKEY>  (5874) 
ILEIVICQNLSORA-UHFFFAOYSA-N

>  <FORMULA>  (5874) 
C11H20O

>  <EXACT MASS>  (5874) 
168.15141526

>  <MW>  (5874) 
168

>  <ID>  (5874) 
JP002370

>  <CONTRIBUTOR>  (5874) 
University of Tokyo Team, {Faculty of Engineering, University of Tokyo

>  <COMMENT>  (5874) 
SMILES=CCCC(C)C(O)CC(=C)C=C
InChI=InChI=1S/C11H20O/c1-5-7-10(4)11(12)8-9(3)6-2/h6,10-12H,2-3,5,7-8H2,1,4H3
computed SMILES=OC(CC(=C)C=C)C(C)CCC
accession=JP002370
date=2016.01.19 (Created 2008.10.21, modified 2011.05.06)
author=MASS SPECTROSCOPY SOC. OF JAPAN (MSSJ)
license=CC BY-NC-SA
exact mass=168.15142
ionization energy=70 eV
ion type=[M]+*
computed spectral entropy=2.6829448439131256
computed normalized entropy=0.7375618682568699
SPLASH=splash10-014i-9000000000-dc7b4655a4fce3823d17
submitter=submitter = University of Tokyo Team (Faculty of Engineering, University of Tokyo)
MoNA Rating=3.75

>  <NUM PEAKS>  (5874) 
38

>  <MASS SPECTRAL PEAKS>  (5874) 
41 33.35
42 3.88
43 15.22
44 7.81
45 3.06
51 1.41
52 1.14
53 9.79
54 1.08
55 42.62
56 8.94
57 9.59
58 1.55
59 1.12
65 1.94
66 1.64
67 22.96
68 99.99
69 11.55
70 1.43
71 5.35
72 1.93
77 1.19
79 3.65
80 1.18
81 1.74
82 2.19
83 27.24
84 2.36
93 2.29
94 1.09
97 1.47
99 17.27
100 1.82
101 3.27
107 0.85
150 0.65
168 0.69

$$$$

     RDKit          2D

 12 11  0  0  0  0  0  0  0  0999 V2000
    0.0000    0.0000    0.0000 C   0  0  0  0  0  0  0  0  0  0  0  0
    1.2990    2.2500    0.0000 C   0  0  0  0  0  0  0  0  0  0  0  0
   -2.5981    0.0000    0.0000 C   0  0  0  0  0  0  0  0  0  0  0  0
   -3.8971    2.2500    0.0000 C   0  0  0  0  0  0  0  0  0  0  0  0
   -1.8481    5.7990    0.0000 C   0  0  0  0  0  0  0  0  0  0  0  0
   -3.8971    5.2500    0.0000 C   0  0  0  0  0  0  0  0  0  0  0  0
   -3.3481    3.2010    0.0000 C   0  0  0  0  0  0  0  0  0  0  0  0
    0.0000    1.5000    0.0000 C   0  0  0  0  0  0  0  0  0  0  0  0
   -2.5981    1.5000    0.0000 C   0  0  0  0  0  0  0  0  0  0  0  0
   -1.2990    2.2500    0.0000 C   0  0  0  0  0  0  0  0  0  0  0  0
   -1.2990    3.7500    0.0000 O   0  0  0  0  0  0  0  0  0  0  0  0
   -2.5981    4.5000    0.0000 Si  0  0  0  0  0  4  0  0  0  0  0  0
  8  1  1  0
  8  2  1  0
  9  3  1  0
  9  4  1  0
 10  8  1  0
 10  9  2  0
 11 10  1  0
 12  5  1  0
 12  6  1  0
 12  7  1  0
 12 11  1  0
M  END
>  <NAME>  (5875) 
2,4-DIMETHYL-3-TRIMETHYLSILOXY-2-PENTENE

>  <SYNONYMS>  (5875) 


>  <SPECTRUM TYPE>  (5875) 
MS1

>  <INSTRUMENT TYPE>  (5875) 
EI-B

>  <INSTRUMENT>  (5875) 
JEOL JMS-D-3000

>  <ION MODE>  (5875) 
P

>  <INCHIKEY>  (5875) 
NTNHDIJDGWDRNM-UHFFFAOYSA-N

>  <FORMULA>  (5875) 
C10H22OSi

>  <EXACT MASS>  (5875) 
186.14399185399998

>  <MW>  (5875) 
186

>  <ID>  (5875) 
JP002368

>  <CONTRIBUTOR>  (5875) 
University of Tokyo Team, {Faculty of Engineering, University of Tokyo

>  <COMMENT>  (5875) 
SMILES=CC(C)C(=C(C)C)O[Si](C)(C)C
InChI=InChI=1S/C10H22OSi/c1-8(2)10(9(3)4)11-12(5,6)7/h8H,1-7H3
computed SMILES=O(C(=C(C)C)C(C)C)[Si](C)(C)C
accession=JP002368
date=2016.01.19 (Created 2008.10.21, modified 2011.05.06)
author=MASS SPECTROSCOPY SOC. OF JAPAN (MSSJ)
license=CC BY-NC-SA
exact mass=186.14399
ionization energy=70 eV
ion type=[M]+*
computed spectral entropy=2.5690177890131554
computed normalized entropy=0.7885026606894902
SPLASH=splash10-00di-9400000000-fe175751b63e20ca821f
submitter=submitter = University of Tokyo Team (Faculty of Engineering, University of Tokyo)
MoNA Rating=3.75

>  <NUM PEAKS>  (5875) 
26

>  <MASS SPECTRAL PEAKS>  (5875) 
41 9.71
43 5.79
45 11.66
47 3.11
55 4.2
59 4.46
64 3.49
73 99.99
74 8.8
75 50.13
76 3.57
77 2.69
78 4.2
79 2.96
81 30.5
91 3.84
95 3.89
99 3.59
129 8.05
130 2.9
143 15.57
158 3.56
171 36.62
172 5.61
186 37.96
187 6.42

$$$$

     RDKit          2D

 11 10  0  0  0  0  0  0  0  0999 V2000
    2.2733    4.3125    0.0000 C   0  0  0  0  0  0  0  0  0  0  0  0
   -6.8200    5.0625    0.0000 C   0  0  0  0  0  0  0  0  0  0  0  0
   -5.5209    2.8125    0.0000 C   0  0  0  0  0  0  0  0  0  0  0  0
   -1.6238    6.5625    0.0000 C   0  0  0  0  0  0  0  0  0  0  0  0
    0.9743    5.0625    0.0000 C   0  0  0  0  0  0  0  0  0  0  0  0
   -0.3248    4.3125    0.0000 C   0  0  0  0  0  0  0  0  0  0  0  0
   -4.2219    5.0625    0.0000 C   0  0  0  0  0  0  0  0  0  0  0  0
   -5.5209    4.3125    0.0000 C   0  0  0  0  0  0  0  0  0  0  0  0
   -1.6238    5.0625    0.0000 C   0  0  0  0  0  0  0  0  0  0  0  0
   -2.9228    4.3125    0.0000 C   0  0  0  0  0  0  0  0  0  0  0  0
   -2.9228    2.8125    0.0000 O   0  0  0  0  0  0  0  0  0  0  0  0
  5  1  2  0
  6  5  1  0
  8  2  1  0
  8  3  1  0
  8  7  1  0
  9  4  2  0
  9  6  1  0
 10  7  1  0
 10  9  1  0
 11 10  1  0
M  END
>  <NAME>  (5876) 
2-METHYL-6-METHYLENE-7-OCTEN-4-OL

>  <SYNONYMS>  (5876) 


>  <SPECTRUM TYPE>  (5876) 
MS1

>  <INSTRUMENT TYPE>  (5876) 
EI-B

>  <INSTRUMENT>  (5876) 
JEOL JMS-D-3000

>  <ION MODE>  (5876) 
P

>  <INCHIKEY>  (5876) 
INNRBDIICBSBPH-UHFFFAOYSA-N

>  <FORMULA>  (5876) 
C10H18O

>  <EXACT MASS>  (5876) 
154.135765196

>  <MW>  (5876) 
154

>  <ID>  (5876) 
JP002367

>  <CONTRIBUTOR>  (5876) 
University of Tokyo Team, {Faculty of Engineering, University of Tokyo

>  <COMMENT>  (5876) 
SMILES=C=CCC(=C)C(O)CC(C)C
InChI=InChI=1S/C10H18O/c1-5-6-9(4)10(11)7-8(2)3/h5,8,10-11H,1,4,6-7H2,2-3H3
computed SMILES=OC(C(=C)CC=C)CC(C)C
accession=JP002367
date=2016.01.19 (Created 2008.10.21, modified 2011.05.06)
author=MASS SPECTROSCOPY SOC. OF JAPAN (MSSJ)
license=CC BY-NC-SA
exact mass=154.13577
ionization energy=70 eV
ion type=[M]+*
computed spectral entropy=2.5896232650870585
computed normalized entropy=0.7472073284623569
SPLASH=splash10-014i-9000000000-1207c13a922f6f8cb768
submitter=submitter = University of Tokyo Team (Faculty of Engineering, University of Tokyo)
MoNA Rating=3.75

>  <NUM PEAKS>  (5876) 
32

>  <MASS SPECTRAL PEAKS>  (5876) 
41 39.6
42 4.37
43 41.19
44 7.05
45 20.95
51 1.87
52 1.35
53 11.44
55 3.03
57 13.15
58 3.68
65 2.16
66 1.93
67 27.19
68 99.99
69 56.51
70 4.36
71 4.7
77 1.4
79 3.23
80 2.39
81 1.27
83 1.24
85 17.05
86 2.16
87 7.15
93 3.74
97 1.93
98 3.12
121 1.2
136 3.35
154 0.14

$$$$

     RDKit          2D

 11 11  0  0  0  0  0  0  0  0999 V2000
   -5.5207    3.1321    0.0000 C   0  0  0  0  0  0  0  0  0  0  0  0
   -4.2216    2.3821    0.0000 C   0  0  0  0  0  0  0  0  0  0  0  0
    3.5726    0.8821    0.0000 C   0  0  0  0  0  0  0  0  0  0  0  0
    3.5731    2.3829    0.0000 C   0  0  0  0  0  0  0  0  0  0  0  0
    2.2731    0.1313    0.0000 C   0  0  0  0  0  0  0  0  0  0  0  0
    2.2740    3.1329    0.0000 C   0  0  0  0  0  0  0  0  0  0  0  0
    0.9740    0.8813    0.0000 C   0  0  0  0  0  0  0  0  0  0  0  0
   -2.9226    3.1321    0.0000 C   0  0  0  0  0  0  0  0  0  0  0  0
   -0.3245    3.1321    0.0000 C   0  0  0  0  0  0  0  0  0  0  0  0
    0.9745    2.3821    0.0000 C   0  0  0  0  0  0  0  0  0  0  0  0
   -1.6236    2.3821    0.0000 O   0  0  0  0  0  0  0  0  0  0  0  0
  2  1  2  0
  4  3  2  0
  5  3  1  0
  6  4  1  0
  7  5  2  0
  8  2  1  0
 10  6  2  0
 10  7  1  0
 10  9  1  0
 11  8  1  0
 11  9  1  0
M  END
>  <NAME>  (5877) 
ALLYL BENZYL ETHER

>  <SYNONYMS>  (5877) 


>  <SPECTRUM TYPE>  (5877) 
MS1

>  <INSTRUMENT TYPE>  (5877) 
EI-B

>  <INSTRUMENT>  (5877) 
JEOL JMS-D-3000

>  <ION MODE>  (5877) 
P

>  <INCHIKEY>  (5877) 
HUGHWHMUUQNACD-UHFFFAOYSA-N

>  <FORMULA>  (5877) 
C10H12O

>  <EXACT MASS>  (5877) 
148.088815004

>  <MW>  (5877) 
148

>  <ID>  (5877) 
JP002365

>  <CONTRIBUTOR>  (5877) 
University of Tokyo Team, {Faculty of Engineering, University of Tokyo

>  <COMMENT>  (5877) 
SMILES=C=CCOCc(c1)cccc1
InChI=InChI=1S/C10H12O/c1-2-8-11-9-10-6-4-3-5-7-10/h2-7H,1,8-9H2
computed SMILES=O(CC=C)CC=1C=CC=CC1
accession=JP002365
date=2016.01.19 (Created 2008.10.21, modified 2011.05.06)
author=MASS SPECTROSCOPY SOC. OF JAPAN (MSSJ)
license=CC BY-NC-SA
exact mass=148.08882
ionization energy=70 eV
ion type=[M]+*
computed spectral entropy=2.252632784429734
computed normalized entropy=0.7088088826308857
SPLASH=splash10-0006-9100000000-f4cbb025a4cbc1034096
submitter=submitter = University of Tokyo Team (Faculty of Engineering, University of Tokyo)
MoNA Rating=3.75

>  <NUM PEAKS>  (5877) 
24

>  <MASS SPECTRAL PEAKS>  (5877) 
41 14.29
42 1.98
43 2.13
51 6.14
52 1.33
63 2.45
65 11.76
77 10.85
78 2.76
79 12.75
89 2.8
90 1.62
91 99.99
92 58.66
93 3.81
104 6.72
105 11.07
106 3.99
107 16.54
108 1.58
118 2.09
130 1.28
147 2.22
148 1.78

$$$$

     RDKit          2D

 11 11  0  0  0  0  0  0  0  0999 V2000
    3.5726    0.8821    0.0000 C   0  0  0  0  0  0  0  0  0  0  0  0
    3.5731    2.3829    0.0000 C   0  0  0  0  0  0  0  0  0  0  0  0
    2.2731    0.1313    0.0000 C   0  0  0  0  0  0  0  0  0  0  0  0
    2.2740    3.1329    0.0000 C   0  0  0  0  0  0  0  0  0  0  0  0
    0.9740    0.8813    0.0000 C   0  0  0  0  0  0  0  0  0  0  0  0
   -4.2216    2.3821    0.0000 C   0  0  0  0  0  0  0  0  0  0  0  0
   -2.9226    3.1321    0.0000 C   0  0  0  0  0  0  0  0  0  0  0  0
   -0.3245    3.1321    0.0000 C   0  0  0  0  0  0  0  0  0  0  0  0
    0.9745    2.3821    0.0000 C   0  0  0  0  0  0  0  0  0  0  0  0
   -5.5207    3.1321    0.0000 O   0  0  0  0  0  0  0  0  0  0  0  0
   -1.6236    2.3821    0.0000 O   0  0  0  0  0  0  0  0  0  0  0  0
  2  1  2  0
  3  1  1  0
  4  2  1  0
  5  3  2  0
  7  6  1  0
  9  4  2  0
  9  5  1  0
  9  8  1  0
 10  6  1  0
 11  7  1  0
 11  8  1  0
M  END
>  <NAME>  (5878) 
2-BENZYLOXYETHYL ALCOHOL

>  <SYNONYMS>  (5878) 


>  <SPECTRUM TYPE>  (5878) 
MS1

>  <INSTRUMENT TYPE>  (5878) 
EI-B

>  <INSTRUMENT>  (5878) 
JEOL JMS-D-3000

>  <ION MODE>  (5878) 
P

>  <INCHIKEY>  (5878) 
CUZKCNWZBXLAJX-UHFFFAOYSA-N

>  <FORMULA>  (5878) 
C9H12O2

>  <EXACT MASS>  (5878) 
152.083729624

>  <MW>  (5878) 
152

>  <ID>  (5878) 
JP002364

>  <CONTRIBUTOR>  (5878) 
University of Tokyo Team, {Faculty of Engineering, University of Tokyo

>  <COMMENT>  (5878) 
SMILES=OCCOCc(c1)cccc1
InChI=InChI=1S/C9H12O2/c10-6-7-11-8-9-4-2-1-3-5-9/h1-5,10H,6-8H2
computed SMILES=OCCOCC=1C=CC=CC1
accession=JP002364
date=2016.01.19 (Created 2008.10.21, modified 2011.05.06)
author=MASS SPECTROSCOPY SOC. OF JAPAN (MSSJ)
license=CC BY-NC-SA
exact mass=152.08373
ionization energy=70 eV
ion type=[M]+*
computed spectral entropy=2.2046713299525087
computed normalized entropy=0.7487576905318116
SPLASH=splash10-0006-9100000000-9a336d60ca35c32fbd3b
submitter=submitter = University of Tokyo Team (Faculty of Engineering, University of Tokyo)
MoNA Rating=3.75

>  <NUM PEAKS>  (5878) 
19

>  <MASS SPECTRAL PEAKS>  (5878) 
41 2.36
43 5.86
45 3.14
50 3.32
51 7.86
63 5.68
65 19.49
77 8.9
79 9.01
89 4.72
90 2.86
91 99.99
92 23.74
93 2.53
105 3.36
107 18.24
108 3.18
152 15.41
153 3.04

$$$$

     RDKit          2D

 11 11  0  0  0  0  0  0  0  0999 V2000
    3.5726    0.8821    0.0000 C   0  0  0  0  0  0  0  0  0  0  0  0
    3.5731    2.3829    0.0000 C   0  0  0  0  0  0  0  0  0  0  0  0
    2.2731    0.1313    0.0000 C   0  0  0  0  0  0  0  0  0  0  0  0
    2.2740    3.1329    0.0000 C   0  0  0  0  0  0  0  0  0  0  0  0
    0.9740    0.8813    0.0000 C   0  0  0  0  0  0  0  0  0  0  0  0
   -4.2216    2.3821    0.0000 C   0  0  0  0  0  0  0  0  0  0  0  0
   -2.9226    3.1321    0.0000 C   0  0  0  0  0  0  0  0  0  0  0  0
   -0.3245    3.1321    0.0000 C   0  0  0  0  0  0  0  0  0  0  0  0
    0.9745    2.3821    0.0000 C   0  0  0  0  0  0  0  0  0  0  0  0
   -5.5207    3.1321    0.0000 O   0  0  0  0  0  0  0  0  0  0  0  0
   -1.6236    2.3821    0.0000 O   0  0  0  0  0  0  0  0  0  0  0  0
  2  1  2  0
  3  1  1  0
  4  2  1  0
  5  3  2  0
  7  6  1  0
  9  4  2  0
  9  5  1  0
  9  8  1  0
 10  6  2  0
 11  7  1  0
 11  8  1  0
M  END
>  <NAME>  (5879) 
BENZYLOXYACETALDEHYDE

>  <SYNONYMS>  (5879) 


>  <SPECTRUM TYPE>  (5879) 
MS1

>  <INSTRUMENT TYPE>  (5879) 
EI-B

>  <INSTRUMENT>  (5879) 
JEOL JMS-D-3000

>  <ION MODE>  (5879) 
P

>  <INCHIKEY>  (5879) 
NFNOAHXEQXMCGT-UHFFFAOYSA-N

>  <FORMULA>  (5879) 
C9H10O2

>  <EXACT MASS>  (5879) 
150.06807956

>  <MW>  (5879) 
150

>  <ID>  (5879) 
JP002363

>  <CONTRIBUTOR>  (5879) 
University of Tokyo Team, {Faculty of Engineering, University of Tokyo

>  <COMMENT>  (5879) 
SMILES=O=CCOCc(c1)cccc1
InChI=InChI=1S/C9H10O2/c10-6-7-11-8-9-4-2-1-3-5-9/h1-6H,7-8H2
computed SMILES=O=CCOCC=1C=CC=CC1
accession=JP002363
date=2016.01.19 (Created 2008.10.21, modified 2011.05.06)
author=MASS SPECTROSCOPY SOC. OF JAPAN (MSSJ)
license=CC BY-NC-SA
exact mass=150.06808
ionization energy=70 eV
ion type=[M]+*
computed spectral entropy=2.1892565958853796
computed normalized entropy=0.6801308018693205
SPLASH=splash10-0006-9400000000-f208772c70ba9e197f44
submitter=submitter = University of Tokyo Team (Faculty of Engineering, University of Tokyo)
MoNA Rating=3.75

>  <NUM PEAKS>  (5879) 
25

>  <MASS SPECTRAL PEAKS>  (5879) 
41 1.4
43 2.89
45 1.24
50 2.15
51 5.77
52 1.26
58 1.09
63 3.01
65 9.81
73 2.95
77 6.96
78 2.15
79 2.79
89 3.59
90 4.15
91 99.99
92 10.29
105 6.55
106 2.37
107 43.88
108 4.16
121 1.03
136 1.69
149 10.82
150 6.1

$$$$

     RDKit          2D

 11 11  0  0  0  0  0  0  0  0999 V2000
    2.7783   -0.7587    0.0000 C   0  0  0  0  0  0  0  0  0  0  0  0
    4.8272   -0.2094    0.0000 C   0  0  0  0  0  0  0  0  0  0  0  0
    4.2779    1.8396    0.0000 C   0  0  0  0  0  0  0  0  0  0  0  0
   -1.6700   -0.9600    0.0000 C   0  0  0  0  0  0  0  0  0  0  0  0
   -1.6700    0.5400    0.0000 C   0  0  0  0  0  0  0  0  0  0  0  0
   -0.3700   -1.7100    0.0000 C   0  0  0  0  0  0  0  0  0  0  0  0
   -0.3700    1.2900    0.0000 C   0  0  0  0  0  0  0  0  0  0  0  0
    0.9300   -0.9600    0.0000 C   0  0  0  0  0  0  0  0  0  0  0  0
    0.9300    0.5400    0.0000 C   0  0  0  0  0  0  0  0  0  0  0  0
    2.2289    1.2902    0.0000 O   0  0  0  0  0  0  0  0  0  0  0  0
    3.5281    0.5404    0.0000 Si  0  0  0  0  0  4  0  0  0  0  0  0
  5  4  1  0
  6  4  1  0
  7  5  2  0
  8  6  1  0
  9  7  1  0
  9  8  2  0
 10  9  1  0
 11  1  1  0
 11  2  1  0
 11  3  1  0
 11 10  1  0
M  END
>  <NAME>  (5880) 
2-TRIMETHYLSILOXY-1,3-CYCLOHEXADIENE

>  <SYNONYMS>  (5880) 


>  <SPECTRUM TYPE>  (5880) 
MS1

>  <INSTRUMENT TYPE>  (5880) 
EI-B

>  <INSTRUMENT>  (5880) 
JEOL JMS-D-3000

>  <ION MODE>  (5880) 
P

>  <INCHIKEY>  (5880) 
WPIRVUXAMPRMAY-UHFFFAOYSA-N

>  <FORMULA>  (5880) 
C9H16OSi

>  <EXACT MASS>  (5880) 
168.097041662

>  <MW>  (5880) 
168

>  <ID>  (5880) 
JP002362

>  <CONTRIBUTOR>  (5880) 
University of Tokyo Team, {Faculty of Engineering, University of Tokyo

>  <COMMENT>  (5880) 
SMILES=C(C1)C=CC(=C1)O[Si](C)(C)C
InChI=InChI=1S/C9H16OSi/c1-11(2,3)10-9-7-5-4-6-8-9/h5,7-8H,4,6H2,1-3H3
computed SMILES=O(C=1C=CCCC1)[Si](C)(C)C
accession=JP002362
date=2016.01.19 (Created 2008.10.21, modified 2011.05.06)
author=MASS SPECTROSCOPY SOC. OF JAPAN (MSSJ)
license=CC BY-NC-SA
exact mass=168.09704
ionization energy=70 eV
ion type=[M]+*
computed spectral entropy=2.5875154862704486
computed normalized entropy=0.8787804755264328
SPLASH=splash10-0gk9-9500000000-cf16d1cd901ad3f2b2d2
submitter=submitter = University of Tokyo Team (Faculty of Engineering, University of Tokyo)
MoNA Rating=3.75

>  <NUM PEAKS>  (5880) 
19

>  <MASS SPECTRAL PEAKS>  (5880) 
43 8.62
44 9.64
45 15.22
59 11.16
68 39.59
73 99.99
74 12.69
75 65.98
76 11.16
77 13.7
94 9.13
96 18.27
151 59.39
152 9.13
153 18.27
166 13.7
167 14.21
168 58.88
169 13.7

$$$$

     RDKit          2D

 11 10  0  0  0  0  0  0  0  0999 V2000
    5.3603    3.9608    0.0000 C   0  0  0  0  0  0  0  0  0  0  0  0
    3.8603    1.3627    0.0000 C   0  0  0  0  0  0  0  0  0  0  0  0
    5.9094    1.9118    0.0000 C   0  0  0  0  0  0  0  0  0  0  0  0
   -1.3358    3.9608    0.0000 C   0  0  0  0  0  0  0  0  0  0  0  0
   -1.8849    1.9118    0.0000 C   0  0  0  0  0  0  0  0  0  0  0  0
    0.1642    1.3627    0.0000 C   0  0  0  0  0  0  0  0  0  0  0  0
    3.3113    3.4118    0.0000 C   0  0  0  0  0  0  0  0  0  0  0  0
    0.7132    3.4118    0.0000 C   0  0  0  0  0  0  0  0  0  0  0  0
    2.0123    2.6618    0.0000 S   0  0  0  0  0  0  0  0  0  0  0  0
    4.6103    2.6618    0.0000 Si  0  0  0  0  0  4  0  0  0  0  0  0
   -0.5858    2.6618    0.0000 Si  0  0  0  0  0  4  0  0  0  0  0  0
  9  7  1  0
  9  8  1  0
 10  1  1  0
 10  2  1  0
 10  3  1  0
 10  7  1  0
 11  4  1  0
 11  5  1  0
 11  6  1  0
 11  8  1  0
M  END
>  <NAME>  (5881) 
BIS(TRIMETHYLSILYLMETHYL) SULFIDE

>  <SYNONYMS>  (5881) 


>  <SPECTRUM TYPE>  (5881) 
MS1

>  <INSTRUMENT TYPE>  (5881) 
EI-B

>  <INSTRUMENT>  (5881) 
JEOL JMS-D-3000

>  <ION MODE>  (5881) 
P

>  <INCHIKEY>  (5881) 
GISUCMFTNKRCPF-UHFFFAOYSA-N

>  <FORMULA>  (5881) 
C8H22SSi2

>  <EXACT MASS>  (5881) 
206.098074764

>  <MW>  (5881) 
206

>  <ID>  (5881) 
JP002361

>  <CONTRIBUTOR>  (5881) 
University of Tokyo Team, {Faculty of Engineering, University of Tokyo

>  <COMMENT>  (5881) 
SMILES=C[Si](C)(C)CSC[Si](C)(C)C
InChI=InChI=1S/C8H22SSi2/c1-10(2,3)7-9-8-11(4,5)6/h7-8H2,1-6H3
computed SMILES=S(C[Si](C)(C)C)C[Si](C)(C)C
accession=JP002361
date=2016.01.19 (Created 2008.10.21, modified 2011.05.06)
author=MASS SPECTROSCOPY SOC. OF JAPAN (MSSJ)
license=CC BY-NC-SA
exact mass=206.09807
ionization energy=70 eV
ion type=[M]+*
computed spectral entropy=2.375208232371137
computed normalized entropy=0.729017143799401
SPLASH=splash10-00di-9100000000-56d23b18fc69a115ae00
submitter=submitter = University of Tokyo Team (Faculty of Engineering, University of Tokyo)
MoNA Rating=3.75

>  <NUM PEAKS>  (5881) 
26

>  <MASS SPECTRAL PEAKS>  (5881) 
43 7.83
44 34.51
45 15.37
46 2.91
47 2.15
48 1.72
57 1.67
58 2.79
59 11.45
64 1.98
72 5.58
73 99.99
74 8.86
75 13.35
77 1.81
90 3.42
103 2.44
105 2.06
118 3.2
119 7.84
163 3.94
191 12.39
192 2.57
193 1.69
206 5.13
207 1.57

$$$$

     RDKit          2D

 10  9  0  0  0  0  0  0  0  0999 V2000
    1.3260   -0.6495    0.0000 C   0  0  0  0  0  0  0  0  0  0  0  0
   -0.1740    1.9486    0.0000 C   0  0  0  0  0  0  0  0  0  0  0  0
   -0.7231   -0.1005    0.0000 C   0  0  0  0  0  0  0  0  0  0  0  0
    3.9240    2.3505    0.0000 C   0  0  0  0  0  0  0  0  0  0  0  0
    4.4731    4.3995    0.0000 C   0  0  0  0  0  0  0  0  0  0  0  0
    2.4240    4.9486    0.0000 C   0  0  0  0  0  0  0  0  0  0  0  0
    1.8750    1.3995    0.0000 C   0  0  0  0  0  0  0  0  0  0  0  0
    1.8750    2.8995    0.0000 C   0  0  0  0  0  0  0  0  0  0  0  0
    0.5760    0.6495    0.0000 Si  0  0  0  0  0  4  0  0  0  0  0  0
    3.1740    3.6495    0.0000 Si  0  0  0  0  0  4  0  0  0  0  0  0
  8  7  1  0
  9  1  1  0
  9  2  1  0
  9  3  1  0
  9  7  1  0
 10  4  1  0
 10  5  1  0
 10  6  1  0
 10  8  1  0
M  END
>  <NAME>  (5882) 
1,2-BIS(TRIMETHYLSILYL)ETHANE

>  <SYNONYMS>  (5882) 


>  <SPECTRUM TYPE>  (5882) 
MS1

>  <INSTRUMENT TYPE>  (5882) 
EI-B

>  <INSTRUMENT>  (5882) 
JEOL JMS-D-3000

>  <ION MODE>  (5882) 
P

>  <INCHIKEY>  (5882) 
DMKCEJPDZDUPDV-UHFFFAOYSA-N

>  <FORMULA>  (5882) 
C8H22Si2

>  <EXACT MASS>  (5882) 
174.12600376400002

>  <MW>  (5882) 
174

>  <ID>  (5882) 
JP002360

>  <CONTRIBUTOR>  (5882) 
University of Tokyo Team, {Faculty of Engineering, University of Tokyo

>  <COMMENT>  (5882) 
SMILES=C[Si](C)(C)CC[Si](C)(C)C
InChI=InChI=1S/C8H22Si2/c1-9(2,3)7-8-10(4,5)6/h7-8H2,1-6H3
computed SMILES=C[Si](C)(C)CC[Si](C)(C)C
accession=JP002360
date=2016.01.19 (Created 2008.10.21, modified 2011.05.06)
author=MASS SPECTROSCOPY SOC. OF JAPAN (MSSJ)
license=CC BY-NC-SA
exact mass=174.126
ionization energy=70 eV
ion type=[M]+*
computed spectral entropy=2.1732610366700222
computed normalized entropy=0.7138265790857837
SPLASH=splash10-00di-9100000000-b43cf7402ae0eb8e4244
submitter=submitter = University of Tokyo Team (Faculty of Engineering, University of Tokyo)
MoNA Rating=3.75

>  <NUM PEAKS>  (5882) 
21

>  <MASS SPECTRAL PEAKS>  (5882) 
43 2.75
44 1.94
45 9.78
58 7.99
59 6.33
72 1.82
73 99.99
74 9.41
75 3.4
85 14.56
86 24.31
87 3.16
99 2.63
131 7.62
132 1.37
157 3.49
159 12.05
160 2.35
172 1.74
174 7.71
175 1.62

$$$$

     RDKit          2D

  8  7  0  0  0  0  0  0  0  0999 V2000
    1.6238    3.1875    0.0000 C   0  0  0  0  0  0  0  0  0  0  0  0
   -0.9743    1.6875    0.0000 C   0  0  0  0  0  0  0  0  0  0  0  0
   -4.8714    3.9375    0.0000 C   0  0  0  0  0  0  0  0  0  0  0  0
    0.3248    3.9375    0.0000 C   0  0  0  0  0  0  0  0  0  0  0  0
   -2.2733    3.9375    0.0000 C   0  0  0  0  0  0  0  0  0  0  0  0
   -0.9743    3.1875    0.0000 C   0  0  0  0  0  0  0  0  0  0  0  0
   -3.5724    3.1875    0.0000 C   0  0  0  0  0  0  0  0  0  0  0  0
   -3.5724    1.6875    0.0000 O   0  0  0  0  0  0  0  0  0  0  0  0
  4  1  2  0
  6  2  2  0
  6  4  1  0
  6  5  1  0
  7  3  1  0
  7  5  1  0
  8  7  1  0
M  END
>  <NAME>  (5883) 
4-METHYLENE-5-HEXEN-2-OL

>  <SYNONYMS>  (5883) 


>  <SPECTRUM TYPE>  (5883) 
MS1

>  <INSTRUMENT TYPE>  (5883) 
EI-B

>  <INSTRUMENT>  (5883) 
JEOL JMS-D-3000

>  <ION MODE>  (5883) 
P

>  <INCHIKEY>  (5883) 
HHQQFJVNLOLQAM-UHFFFAOYSA-N

>  <FORMULA>  (5883) 
C7H12O

>  <EXACT MASS>  (5883) 
112.088815004

>  <MW>  (5883) 
112

>  <ID>  (5883) 
JP002359

>  <CONTRIBUTOR>  (5883) 
University of Tokyo Team, {Faculty of Engineering, University of Tokyo

>  <COMMENT>  (5883) 
SMILES=C=CC(=C)CC(C)O
InChI=InChI=1S/C7H12O/c1-4-6(2)5-7(3)8/h4,7-8H,1-2,5H2,3H3
computed SMILES=OC(C)CC(=C)C=C
accession=JP002359
date=2016.01.19 (Created 2008.10.21, modified 2011.05.06)
author=MASS SPECTROSCOPY SOC. OF JAPAN (MSSJ)
license=CC BY-NC-SA
exact mass=112.08882
ionization energy=70 eV
ion type=[M]+*
computed spectral entropy=2.252656190170323
computed normalized entropy=0.7399046110675974
SPLASH=splash10-014j-9000000000-3056101afa8aa7e43667
submitter=submitter = University of Tokyo Team (Faculty of Engineering, University of Tokyo)
MoNA Rating=3.75

>  <NUM PEAKS>  (5883) 
21

>  <MASS SPECTRAL PEAKS>  (5883) 
42 7.01
43 31.37
45 82.88
50 2.5
51 4.98
52 3.63
53 24.91
55 2.49
58 3.06
65 3.21
66 3.82
67 62.8
68 99.99
69 16.61
70 4.42
73 3.29
75 2.75
77 2.46
79 3.68
97 19.92
112 5.28

$$$$

     RDKit          2D

  6  5  0  0  0  0  0  0  0  0999 V2000
    1.2990    2.2500    0.0000 C   0  0  0  0  0  0  0  0  0  0  0  0
   -1.2990    0.7500    0.0000 C   0  0  0  0  0  0  0  0  0  0  0  0
    0.0000    3.0000    0.0000 C   0  0  0  0  0  0  0  0  0  0  0  0
   -2.5981    3.0000    0.0000 C   0  0  0  0  0  0  0  0  0  0  0  0
   -1.2990    2.2500    0.0000 C   0  0  0  0  0  0  0  0  0  0  0  0
   -3.8971    2.2500    0.0000 Br  0  0  0  0  0  0  0  0  0  0  0  0
  3  1  2  0
  5  2  2  0
  5  3  1  0
  5  4  1  0
  6  4  1  0
M  END
>  <NAME>  (5884) 
2-BROMOMETHYL-1,3-BUTADIENE

>  <SYNONYMS>  (5884) 


>  <SPECTRUM TYPE>  (5884) 
MS1

>  <INSTRUMENT TYPE>  (5884) 
EI-B

>  <INSTRUMENT>  (5884) 
JEOL JMS-D-3000

>  <ION MODE>  (5884) 
P

>  <INCHIKEY>  (5884) 
KWEFLUDPRLSSTJ-UHFFFAOYSA-N

>  <FORMULA>  (5884) 
C5H7Br

>  <EXACT MASS>  (5884) 
145.973112324

>  <MW>  (5884) 
146

>  <ID>  (5884) 
JP002358

>  <CONTRIBUTOR>  (5884) 
University of Tokyo Team, {Faculty of Engineering, University of Tokyo

>  <COMMENT>  (5884) 
SMILES=C=CC(=C)CBr
InChI=InChI=1S/C5H7Br/c1-3-5(2)4-6/h3H,1-2,4H2
computed SMILES=BrCC(=C)C=C
accession=JP002358
date=2016.01.19 (Created 2008.10.21, modified 2011.05.06)
author=MASS SPECTROSCOPY SOC. OF JAPAN (MSSJ)
license=CC BY-NC-SA
exact mass=145.97311
ionization energy=70 eV
ion type=[M]+*
computed spectral entropy=2.015752925801907
computed normalized entropy=0.6521272212265664
SPLASH=splash10-014i-9100000000-a8eb7f3ac9daf7bfcf85
submitter=submitter = University of Tokyo Team (Faculty of Engineering, University of Tokyo)
MoNA Rating=3.75

>  <NUM PEAKS>  (5884) 
22

>  <MASS SPECTRAL PEAKS>  (5884) 
41 50.63
42 1.75
43 1.1
49 3.55
50 2.77
51 3.59
52 2.77
53 3.42
62 1.02
63 1.71
65 12.45
66 3.3
67 99.99
68 5.79
69 2.69
75 1.06
84 2.24
86 1.34
146 20.53
147 2.04
148 20.62
149 1.26

$$$$

     RDKit          2D

  6  5  0  0  0  0  0  0  0  0999 V2000
    0.8002    0.0135    0.0000 C   0  0  0  0  0  0  0  0  0  0  0  0
   -0.6998    2.6115    0.0000 C   0  0  0  0  0  0  0  0  0  0  0  0
   -1.2488    0.5625    0.0000 C   0  0  0  0  0  0  0  0  0  0  0  0
    1.3493    2.0625    0.0000 C   0  0  0  0  0  0  0  0  0  0  0  0
    1.3493    3.5625    0.0000 S   0  0  0  0  0  0  0  0  0  0  0  0
    0.0502    1.3125    0.0000 Si  0  0  0  0  0  4  0  0  0  0  0  0
  5  4  1  0
  6  1  1  0
  6  2  1  0
  6  3  1  0
  6  4  1  0
M  END
>  <NAME>  (5885) 
TRIMETHYLSILYLMETHANETHIOL

>  <SYNONYMS>  (5885) 


>  <SPECTRUM TYPE>  (5885) 
MS1

>  <INSTRUMENT TYPE>  (5885) 
EI-B

>  <INSTRUMENT>  (5885) 
JEOL JMS-D-3000

>  <ION MODE>  (5885) 
P

>  <INCHIKEY>  (5885) 
IIYTXTQVIDHSSL-UHFFFAOYSA-N

>  <FORMULA>  (5885) 
C4H12SSi

>  <EXACT MASS>  (5885) 
120.04289791400001

>  <MW>  (5885) 
120

>  <ID>  (5885) 
JP002357

>  <CONTRIBUTOR>  (5885) 
University of Tokyo Team, {Faculty of Engineering, University of Tokyo

>  <COMMENT>  (5885) 
SMILES=SC[Si](C)(C)C
InChI=InChI=1S/C4H12SSi/c1-6(2,3)4-5/h5H,4H2,1-3H3
computed SMILES=SC[Si](C)(C)C
accession=JP002357
date=2016.01.19 (Created 2008.10.21, modified 2011.05.06)
author=MASS SPECTROSCOPY SOC. OF JAPAN (MSSJ)
license=CC BY-NC-SA
exact mass=120.0429
ionization energy=70 eV
ion type=[M]+*
computed spectral entropy=2.574849138501563
computed normalized entropy=0.7812428961701471
SPLASH=splash10-00dl-9100000000-dd3bd3d8e561bd24ef2c
submitter=submitter = University of Tokyo Team (Faculty of Engineering, University of Tokyo)
MoNA Rating=3.75

>  <NUM PEAKS>  (5885) 
27

>  <MASS SPECTRAL PEAKS>  (5885) 
42 3.25
43 24.93
44 62.85
45 25.38
46 5.03
47 3.85
48 3.78
53 1.79
55 1.9
57 1.9
58 7.15
59 25.19
60 2.26
61 2.93
64 4.27
72 2.29
73 99.99
74 11.48
75 14.43
77 16.44
105 28.57
106 2.69
107 2.62
117 4.99
119 4.92
120 15.26
121 2.48

$$$$

     RDKit          2D

 22 24  0  0  0  0  0  0  0  0999 V2000
   -1.5000   -3.0000    0.0000 C   0  0  0  0  0  0  0  0  0  0  0  0
   -0.0000   -4.5000    0.0000 C   0  0  0  0  0  0  0  0  0  0  0  0
    1.5000   -3.0000    0.0000 C   0  0  0  0  0  0  0  0  0  0  0  0
    1.5000    3.0000    0.0000 C   0  0  0  0  0  0  0  0  0  0  0  0
    0.0000    4.5000    0.0000 C   0  0  0  0  0  0  0  0  0  0  0  0
   -1.5000    3.0000    0.0000 C   0  0  0  0  0  0  0  0  0  0  0  0
    3.9000   -0.7500    0.0000 C   0  0  0  0  0  0  0  0  0  0  0  0
   -3.9000   -0.7500    0.0000 C   0  0  0  0  0  0  0  0  0  0  0  0
    3.9000    0.7500    0.0000 C   0  0  0  0  0  0  0  0  0  0  0  0
   -3.9000    0.7500    0.0000 C   0  0  0  0  0  0  0  0  0  0  0  0
    2.6000   -1.5000    0.0000 C   0  0  0  0  0  0  0  0  0  0  0  0
   -2.6000   -1.5000    0.0000 C   0  0  0  0  0  0  0  0  0  0  0  0
    2.6000    1.5000    0.0000 C   0  0  0  0  0  0  0  0  0  0  0  0
   -2.6000    1.5000    0.0000 C   0  0  0  0  0  0  0  0  0  0  0  0
    1.3000   -0.7500    0.0000 C   0  0  0  0  0  0  0  0  0  0  0  0
   -1.3000   -0.7500    0.0000 C   0  0  0  0  0  0  0  0  0  0  0  0
    1.3000    0.7500    0.0000 C   0  0  0  0  0  0  0  0  0  0  0  0
   -1.3000    0.7500    0.0000 C   0  0  0  0  0  0  0  0  0  0  0  0
   -0.0000   -1.5000    0.0000 C   0  0  0  0  0  0  0  0  0  0  0  0
   -0.0000    1.5000    0.0000 C   0  0  0  0  0  0  0  0  0  0  0  0
   -0.0000   -3.0000    0.0000 Si  0  0  0  0  0  4  0  0  0  0  0  0
    0.0000    3.0000    0.0000 Si  0  0  0  0  0  4  0  0  0  0  0  0
  9  7  2  0
 10  8  1  0
 11  7  1  0
 12  8  2  0
 13  9  1  0
 14 10  2  0
 15 11  2  0
 16 12  1  0
 17 13  2  0
 17 15  1  0
 18 14  1  0
 18 16  1  0
 19 15  1  0
 19 16  2  0
 20 17  1  0
 20 18  2  0
 21  1  1  0
 21  2  1  0
 21  3  1  0
 21 19  1  0
 22  4  1  0
 22  5  1  0
 22  6  1  0
 22 20  1  0
M  END
>  <NAME>  (5886) 
9,10-BIS(TRIMETHYLSILYL)ANTHRACENE

>  <SYNONYMS>  (5886) 


>  <SPECTRUM TYPE>  (5886) 
MS1

>  <INSTRUMENT TYPE>  (5886) 
EI-B

>  <INSTRUMENT>  (5886) 
JEOL JMS-D-3000

>  <ION MODE>  (5886) 
P

>  <INCHIKEY>  (5886) 
BOZCPJYCSHAPRN-UHFFFAOYSA-N

>  <FORMULA>  (5886) 
C20H26Si2

>  <EXACT MASS>  (5886) 
322.15730389199996

>  <MW>  (5886) 
322

>  <ID>  (5886) 
JP002356

>  <CONTRIBUTOR>  (5886) 
University of Tokyo Team, {Faculty of Engineering, University of Tokyo

>  <COMMENT>  (5886) 
SMILES=C[Si](C)(C)c(c21)c(c3)c(ccc3)c([Si](C)(C)C)c(cccc2)1
InChI=InChI=1S/C20H26Si2/c1-21(2,3)19-15-11-7-9-13-17(15)20(22(4,5)6)18-14-10-8-12-16(18)19/h7-14H,1-6H3
computed SMILES=C=1C=CC=2C(C1)=C(C=3C=CC=CC3C2[Si](C)(C)C)[Si](C)(C)C
accession=JP002356
date=2016.01.19 (Created 2008.10.21, modified 2011.05.06)
author=MASS SPECTROSCOPY SOC. OF JAPAN (MSSJ)
license=CC BY-NC-SA
exact mass=322.1573
ionization energy=70 eV
ion type=[M]+*
computed spectral entropy=3.42446925873844
computed normalized entropy=0.783730433309774
SPLASH=splash10-00di-9387000000-6ea3ee9d123e3aff10f7
submitter=submitter = University of Tokyo Team (Faculty of Engineering, University of Tokyo)
MoNA Rating=3.75

>  <NUM PEAKS>  (5886) 
79

>  <MASS SPECTRAL PEAKS>  (5886) 
43 2.77
44 1.11
45 10.73
59 2.67
63 1.31
65 1.67
73 99.99
74 9.12
75 9.78
76 2.65
77 1.33
88 1.07
89 1.15
93 12.83
95 4.81
118 1.5
123 1.29
129 1.06
130 1.58
131 1.6
137 1.15
138 4.1
139 1.36
145 1.37
146 11.15
147 3
151 1.44
152 2.02
165 1.33
176 2.18
177 1.42
178 7.14
179 2.22
180 2.43
189 1.7
191 2.21
192 1.78
202 1.9
203 2.15
204 1.7
205 2.68
206 2.53
207 3.71
208 3.12
212 1.68
215 1.06
217 6.08
218 2.98
219 21.33
220 4.81
221 1.53
229 1.04
231 3.32
232 2.22
233 9.59
234 5.26
235 11.34
236 2.58
245 1.88
247 2.11
248 1.66
249 24.21
250 12.4
251 3.35
261 1.15
265 1.06
269 1.11
275 1.22
277 1.01
281 1.1
291 1.91
305 1.43
307 26.97
308 8.94
309 3.21
322 64.46
323 21.11
324 7.36
325 1.9

$$$$

     RDKit          2D

 18 20  0  0  0  0  0  0  0  0999 V2000
    1.5000    3.0000    0.0000 C   0  0  0  0  0  0  0  0  0  0  0  0
    0.0000    4.5000    0.0000 C   0  0  0  0  0  0  0  0  0  0  0  0
   -1.5000    3.0000    0.0000 C   0  0  0  0  0  0  0  0  0  0  0  0
    3.9000   -0.7500    0.0000 C   0  0  0  0  0  0  0  0  0  0  0  0
   -3.9000   -0.7500    0.0000 C   0  0  0  0  0  0  0  0  0  0  0  0
    3.9000    0.7500    0.0000 C   0  0  0  0  0  0  0  0  0  0  0  0
   -3.9000    0.7500    0.0000 C   0  0  0  0  0  0  0  0  0  0  0  0
    2.6000   -1.5000    0.0000 C   0  0  0  0  0  0  0  0  0  0  0  0
   -2.6000   -1.5000    0.0000 C   0  0  0  0  0  0  0  0  0  0  0  0
    2.6000    1.5000    0.0000 C   0  0  0  0  0  0  0  0  0  0  0  0
   -2.6000    1.5000    0.0000 C   0  0  0  0  0  0  0  0  0  0  0  0
   -0.0000   -1.5000    0.0000 C   0  0  0  0  0  0  0  0  0  0  0  0
    1.3000   -0.7500    0.0000 C   0  0  0  0  0  0  0  0  0  0  0  0
   -1.3000   -0.7500    0.0000 C   0  0  0  0  0  0  0  0  0  0  0  0
    1.3000    0.7500    0.0000 C   0  0  0  0  0  0  0  0  0  0  0  0
   -1.3000    0.7500    0.0000 C   0  0  0  0  0  0  0  0  0  0  0  0
   -0.0000    1.5000    0.0000 C   0  0  0  0  0  0  0  0  0  0  0  0
    0.0000    3.0000    0.0000 Si  0  0  0  0  0  4  0  0  0  0  0  0
  6  4  2  0
  7  5  1  0
  8  4  1  0
  9  5  2  0
 10  6  1  0
 11  7  2  0
 13  8  2  0
 13 12  1  0
 14  9  1  0
 14 12  2  0
 15 10  2  0
 15 13  1  0
 16 11  1  0
 16 14  1  0
 17 15  1  0
 17 16  2  0
 18  1  1  0
 18  2  1  0
 18  3  1  0
 18 17  1  0
M  END
>  <NAME>  (5887) 
9-TRIMETHYLSILYLANTHRACENE

>  <SYNONYMS>  (5887) 


>  <SPECTRUM TYPE>  (5887) 
MS1

>  <INSTRUMENT TYPE>  (5887) 
EI-B

>  <INSTRUMENT>  (5887) 
JEOL JMS-D-3000

>  <ION MODE>  (5887) 
P

>  <INCHIKEY>  (5887) 
BCXUWDHESDSDMJ-UHFFFAOYSA-N

>  <FORMULA>  (5887) 
C17H18Si

>  <EXACT MASS>  (5887) 
250.117777106

>  <MW>  (5887) 
250

>  <ID>  (5887) 
JP002355

>  <CONTRIBUTOR>  (5887) 
University of Tokyo Team, {Faculty of Engineering, University of Tokyo

>  <COMMENT>  (5887) 
SMILES=c(c3)cc(c1)c(c3)c([Si](C)(C)C)c(c2)c(ccc2)1
InChI=InChI=1S/C17H18Si/c1-18(2,3)17-15-10-6-4-8-13(15)12-14-9-5-7-11-16(14)17/h4-12H,1-3H3
computed SMILES=C=1C=CC2=C(C1)C=C3C=CC=CC3=C2[Si](C)(C)C
accession=JP002355
date=2016.01.19 (Created 2008.10.21, modified 2011.05.06)
license=CC BY-NC-SA
author=MASS SPECTROSCOPY SOC. OF JAPAN (MSSJ)
exact mass=250.11778
ionization energy=70 eV
ion type=[M]+*
computed spectral entropy=3.144796204866578
computed normalized entropy=0.7712488844380289
SPLASH=splash10-0f79-1390000000-08ee56e42f4b315fbe71
submitter=submitter = University of Tokyo Team (Faculty of Engineering, University of Tokyo)
MoNA Rating=3.75

>  <NUM PEAKS>  (5887) 
59

>  <MASS SPECTRAL PEAKS>  (5887) 
43 3.21
44 1.53
45 3
53 1.9
73 7.05
75 3.6
76 2.81
77 1.27
88 1.49
89 2.53
93 4.29
95 1.62
103 1.93
104 1.15
109 2.09
110 4.15
116 1.06
118 14.58
125 1.19
150 1.46
151 2.2
152 2.51
153 1.15
165 3.73
176 4.74
177 3.29
178 18.06
179 5.43
180 1.94
181 1.21
189 4.71
190 2.3
191 7.83
192 12.09
193 2.69
195 1.15
202 3.33
203 3.71
204 3.93
205 6.89
206 1.63
208 1.52
212 1.09
215 1.06
216 1.15
217 10.03
218 4.75
219 10.36
220 2.62
221 1
231 2.63
233 10.3
234 3.29
235 99.99
236 24.05
237 6.27
250 69.06
251 16.99
252 4.49

$$$$

     RDKit          2D

 18 18  0  0  0  0  0  0  0  0999 V2000
   -5.0593    5.1603    0.0000 C   0  0  0  0  0  0  0  0  0  0  0  0
   -5.6275    2.3356    0.0000 C   0  0  0  0  0  0  0  0  0  0  0  0
   -3.7049    1.4391    0.0000 C   0  0  0  0  0  0  0  0  0  0  0  0
   -1.7214    5.8033    0.0000 C   0  0  0  0  0  0  0  0  0  0  0  0
   -3.8347    5.9881    0.0000 C   0  0  0  0  0  0  0  0  0  0  0  0
   -4.1695    4.0891    0.0000 C   0  0  0  0  0  0  0  0  0  0  0  0
   -0.9421    4.8391    0.0000 C   0  0  0  0  0  0  0  0  0  0  0  0
    4.5889   -0.0600    0.0000 C   0  0  0  0  0  0  0  0  0  0  0  0
    4.5894    1.4408    0.0000 C   0  0  0  0  0  0  0  0  0  0  0  0
    3.2894   -0.8108    0.0000 C   0  0  0  0  0  0  0  0  0  0  0  0
    3.2903    2.1908    0.0000 C   0  0  0  0  0  0  0  0  0  0  0  0
    1.9903   -0.0608    0.0000 C   0  0  0  0  0  0  0  0  0  0  0  0
    0.6918    2.1900    0.0000 C   0  0  0  0  0  0  0  0  0  0  0  0
   -0.6073    2.9400    0.0000 C   0  0  0  0  0  0  0  0  0  0  0  0
    1.9908    1.4400    0.0000 C   0  0  0  0  0  0  0  0  0  0  0  0
   -4.2180    2.8486    0.0000 Si  0  0  0  0  0  4  0  0  0  0  0  0
   -2.8705    4.8391    0.0000 Si  0  0  0  0  0  4  0  0  0  0  0  0
   -1.9063    3.6900    0.0000 Si  0  0  0  0  0  4  0  0  0  0  0  0
  9  8  2  0
 10  8  1  0
 11  9  1  0
 12 10  2  0
 14 13  3  0
 15 11  2  0
 15 12  1  0
 15 13  1  0
 16  1  1  0
 16  2  1  0
 16  3  1  0
 17  4  1  0
 17  5  1  0
 17  6  1  0
 18  7  1  0
 18 14  1  0
 18 16  1  0
 18 17  1  0
M  END
>  <NAME>  (5888) 
2-(PHENYLETHYNYL)-1,1,1,2,3,3,3-HEPTAMETHYLTRISILANE

>  <SYNONYMS>  (5888) 


>  <SPECTRUM TYPE>  (5888) 
MS1

>  <INSTRUMENT TYPE>  (5888) 
EI-B

>  <INSTRUMENT>  (5888) 
JEOL JMS-D-3000

>  <ION MODE>  (5888) 
P

>  <INCHIKEY>  (5888) 
CLDYVJDWBYFRLX-UHFFFAOYSA-N

>  <FORMULA>  (5888) 
C15H26Si3

>  <EXACT MASS>  (5888) 
290.134230422

>  <MW>  (5888) 
290

>  <ID>  (5888) 
JP002354

>  <CONTRIBUTOR>  (5888) 
University of Tokyo Team, {Faculty of Engineering, University of Tokyo

>  <COMMENT>  (5888) 
SMILES=c(c1)ccc(c1)C#C[Si](C)([Si](C)(C)C)[Si](C)(C)C
InChI=InChI=1S/C15H26Si3/c1-16(2,3)18(7,17(4,5)6)14-13-15-11-9-8-10-12-15/h8-12H,1-7H3
computed SMILES=C(#C[Si](C)([Si](C)(C)C)[Si](C)(C)C)C=1C=CC=CC1
accession=JP002354
date=2016.01.19 (Created 2008.10.21, modified 2011.05.06)
author=MASS SPECTROSCOPY SOC. OF JAPAN (MSSJ)
license=CC BY-NC-SA
exact mass=290.13423
ionization energy=70 eV
ion type=[M]+*
computed spectral entropy=3.2336129021811315
computed normalized entropy=0.7804749581478008
SPLASH=splash10-01b9-7930000000-356a7593c6fbba17f990
submitter=submitter = University of Tokyo Team (Faculty of Engineering, University of Tokyo)
MoNA Rating=3.75

>  <NUM PEAKS>  (5888) 
63

>  <MASS SPECTRAL PEAKS>  (5888) 
43 14.77
45 21.85
46 1.3
47 1.52
53 3.12
55 1.45
59 6.59
67 1.22
69 1.24
73 99.99
74 8.32
75 9.68
76 1.52
77 1.36
83 1.5
85 1.53
91 1.25
93 1.43
99 2.2
101 7.88
102 4.26
103 2.04
105 7
115 2.87
116 69.85
117 11.11
118 5.56
119 1.29
125 1
129 8.59
130 1.67
131 6.27
132 1.01
133 1.08
135 24.7
136 3.26
137 1.05
140 7.15
141 1.5
142 1.03
143 2.19
145 3.91
155 3.3
159 25.17
160 4.08
161 1.82
175 1.01
177 2.24
187 6.76
188 1.34
191 2.59
201 2.06
202 3.16
203 1.11
217 27.47
218 6.91
219 2.79
275 9.28
276 2.91
277 1.49
290 17.24
291 5.71
292 2.66

$$$$

     RDKit          2D

 15 16  0  0  0  0  0  0  0  0999 V2000
    3.8981   -0.7504    0.0000 C   0  0  0  0  0  0  0  0  0  0  0  0
    1.6346   -2.6491    0.0000 C   0  0  0  0  0  0  0  0  0  0  0  0
   -1.3000    0.7500    0.0000 C   0  0  0  0  0  0  0  0  0  0  0  0
    5.4931   -4.9482    0.0000 C   0  0  0  0  0  0  0  0  0  0  0  0
    0.0000    1.5000    0.0000 C   0  0  0  0  0  0  0  0  0  0  0  0
   -1.3000   -0.7500    0.0000 C   0  0  0  0  0  0  0  0  0  0  0  0
    4.0150   -5.2084    0.0000 C   0  0  0  0  0  0  0  0  0  0  0  0
    6.0061   -3.5387    0.0000 C   0  0  0  0  0  0  0  0  0  0  0  0
    1.3000    0.7500    0.0000 C   0  0  0  0  0  0  0  0  0  0  0  0
    0.0000   -1.5000    0.0000 C   0  0  0  0  0  0  0  0  0  0  0  0
    3.0499   -4.0590    0.0000 C   0  0  0  0  0  0  0  0  0  0  0  0
    5.0410   -2.3893    0.0000 C   0  0  0  0  0  0  0  0  0  0  0  0
    1.3000   -0.7500    0.0000 C   0  0  0  0  0  0  0  0  0  0  0  0
    3.5629   -2.6494    0.0000 C   0  0  0  0  0  0  0  0  0  0  0  0
    2.5989   -1.5002    0.0000 Si  0  0  0  0  0  4  0  0  0  0  0  0
  5  3  2  0
  6  3  1  0
  7  4  2  0
  8  4  1  0
  9  5  1  0
 10  6  2  0
 11  7  1  0
 12  8  2  0
 13  9  2  0
 13 10  1  0
 14 11  2  0
 14 12  1  0
 15  1  1  0
 15  2  1  0
 15 13  1  0
 15 14  1  0
M  END
>  <NAME>  (5889) 
DIMETHYLDIPHENYLSILANE

>  <SYNONYMS>  (5889) 


>  <SPECTRUM TYPE>  (5889) 
MS1

>  <INSTRUMENT TYPE>  (5889) 
EI-B

>  <INSTRUMENT>  (5889) 
JEOL JMS-D-3000

>  <ION MODE>  (5889) 
P

>  <INCHIKEY>  (5889) 
WJKVFIFBAASZJX-UHFFFAOYSA-N

>  <FORMULA>  (5889) 
C14H16Si

>  <EXACT MASS>  (5889) 
212.102127042

>  <MW>  (5889) 
212

>  <ID>  (5889) 
JP002353

>  <CONTRIBUTOR>  (5889) 
University of Tokyo Team, {Faculty of Engineering, University of Tokyo

>  <COMMENT>  (5889) 
SMILES=c(c2)ccc(c2)[Si](C)(C)c(c1)cccc1
InChI=InChI=1S/C14H16Si/c1-15(2,13-9-5-3-6-10-13)14-11-7-4-8-12-14/h3-12H,1-2H3
computed SMILES=C=1C=CC(=CC1)[Si](C=2C=CC=CC2)(C)C
accession=JP002353
date=2016.01.19 (Created 2008.10.21, modified 2011.05.06)
author=MASS SPECTROSCOPY SOC. OF JAPAN (MSSJ)
license=CC BY-NC-SA
exact mass=212.10213
ionization energy=70 eV
ion type=[M]+*
computed spectral entropy=2.5871127212515237
computed normalized entropy=0.7164695470346535
SPLASH=splash10-0002-2900000000-061c63df9a24362f818f
submitter=submitter = University of Tokyo Team (Faculty of Engineering, University of Tokyo)
MoNA Rating=3.75

>  <NUM PEAKS>  (5889) 
37

>  <MASS SPECTRAL PEAKS>  (5889) 
43 9.76
50 1.21
51 2.44
53 7.66
65 1.19
67 2.02
69 1.15
77 1.65
78 2.36
79 2.9
91 3.13
93 5.77
95 1.32
97 1.77
98 2.63
103 1.56
105 13.36
106 3.85
107 2.77
117 1.11
119 5.56
120 1.21
129 1
135 8.7
136 1.5
137 1.04
155 1.4
165 4.02
180 1.79
181 3.81
193 1.34
195 5.08
197 99.99
198 20.33
199 5.5
212 16.33
213 3.42

$$$$

     RDKit          2D

 15 16  0  0  0  0  0  0  0  0999 V2000
    3.8981   -0.7504    0.0000 C   0  0  0  0  0  0  0  0  0  0  0  0
    1.6346   -2.6491    0.0000 C   0  0  0  0  0  0  0  0  0  0  0  0
   -1.3000    0.7500    0.0000 C   0  0  0  0  0  0  0  0  0  0  0  0
    5.4931   -4.9482    0.0000 C   0  0  0  0  0  0  0  0  0  0  0  0
    0.0000    1.5000    0.0000 C   0  0  0  0  0  0  0  0  0  0  0  0
   -1.3000   -0.7500    0.0000 C   0  0  0  0  0  0  0  0  0  0  0  0
    4.0150   -5.2084    0.0000 C   0  0  0  0  0  0  0  0  0  0  0  0
    6.0061   -3.5387    0.0000 C   0  0  0  0  0  0  0  0  0  0  0  0
    1.3000    0.7500    0.0000 C   0  0  0  0  0  0  0  0  0  0  0  0
    0.0000   -1.5000    0.0000 C   0  0  0  0  0  0  0  0  0  0  0  0
    3.0499   -4.0590    0.0000 C   0  0  0  0  0  0  0  0  0  0  0  0
    5.0410   -2.3893    0.0000 C   0  0  0  0  0  0  0  0  0  0  0  0
    1.3000   -0.7500    0.0000 C   0  0  0  0  0  0  0  0  0  0  0  0
    3.5629   -2.6494    0.0000 C   0  0  0  0  0  0  0  0  0  0  0  0
    2.5989   -1.5002    0.0000 Ge  0  0  0  0  0  4  0  0  0  0  0  0
  5  3  2  0
  6  3  1  0
  7  4  2  0
  8  4  1  0
  9  5  1  0
 10  6  2  0
 11  7  1  0
 12  8  2  0
 13  9  2  0
 13 10  1  0
 14 11  2  0
 14 12  1  0
 15  1  1  0
 15  2  1  0
 15 13  1  0
 15 14  1  0
M  END
>  <NAME>  (5890) 
DIMETHYLDIPHENYLGERMANE

>  <SYNONYMS>  (5890) 


>  <SPECTRUM TYPE>  (5890) 
MS1

>  <INSTRUMENT TYPE>  (5890) 
EI-B

>  <INSTRUMENT>  (5890) 
JEOL JMS-D-3000

>  <ION MODE>  (5890) 
P

>  <INCHIKEY>  (5890) 
QTOKZEXKYJMZND-UHFFFAOYSA-N

>  <FORMULA>  (5890) 
C14H16Ge

>  <EXACT MASS>  (5890) 
258.046378312

>  <MW>  (5890) 
258

>  <ID>  (5890) 
JP002352

>  <CONTRIBUTOR>  (5890) 
University of Tokyo Team, {Faculty of Engineering, University of Tokyo

>  <COMMENT>  (5890) 
SMILES=c(c2)ccc(c2)[Ge](C)(C)c(c1)cccc1
InChI=InChI=1S/C14H16Ge/c1-15(2,13-9-5-3-6-10-13)14-11-7-4-8-12-14/h3-12H,1-2H3
computed SMILES=C=1C=CC(=CC1)[Ge](C=2C=CC=CC2)(C)C
accession=JP002352
date=2016.01.19 (Created 2008.10.21, modified 2011.05.06)
author=MASS SPECTROSCOPY SOC. OF JAPAN (MSSJ)
license=CC BY-NC-SA
exact mass=258.04638
ionization energy=70 eV
ion type=[M]+*
computed spectral entropy=3.041467940526439
computed normalized entropy=0.7624668098500081
SPLASH=splash10-0006-1290000000-81a384afeb9499de41a7
submitter=submitter = University of Tokyo Team (Faculty of Engineering, University of Tokyo)
MoNA Rating=3.75

>  <NUM PEAKS>  (5890) 
54

>  <MASS SPECTRAL PEAKS>  (5890) 
50 1.53
51 4.56
65 2.18
77 2.31
78 3.13
85 2.71
87 3.66
88 1.1
89 4.72
91 6.23
95 2.22
97 3.08
99 3.99
101 1.1
121 2.22
123 2.83
124 1.06
125 3.12
139 1.03
147 12.37
148 1.58
149 15.68
150 6.14
151 20.18
152 3.69
153 5.07
154 2.07
163 1.12
165 1.99
167 1.05
177 3.46
179 4.45
180 1.62
181 6.03
183 1.36
222 1.12
223 5.28
224 2.64
225 7.64
226 5.2
227 9.68
228 2.54
229 2.33
239 56.84
240 8.83
241 74.53
242 32.01
243 99.99
244 15
245 21.84
246 3.33
254 1.31
256 1.71
258 2.32

$$$$

     RDKit          2D

 14 13  0  0  0  0  0  0  0  0999 V2000
    1.7205   -0.6081    0.0000 C   0  0  0  0  0  0  0  0  0  0  0  0
    0.2205    1.9900    0.0000 C   0  0  0  0  0  0  0  0  0  0  0  0
   -0.3286   -0.0591    0.0000 C   0  0  0  0  0  0  0  0  0  0  0  0
    0.2205    2.8719    0.0000 C   0  0  0  0  0  0  0  0  0  0  0  0
   -0.3286    4.9209    0.0000 C   0  0  0  0  0  0  0  0  0  0  0  0
    1.7205    5.4700    0.0000 C   0  0  0  0  0  0  0  0  0  0  0  0
    2.8186    5.4700    0.0000 C   0  0  0  0  0  0  0  0  0  0  0  0
    4.8676    4.9209    0.0000 C   0  0  0  0  0  0  0  0  0  0  0  0
    2.2695    1.4409    0.0000 C   0  0  0  0  0  0  0  0  0  0  0  0
    2.2695    3.4209    0.0000 C   0  0  0  0  0  0  0  0  0  0  0  0
    0.9705    0.6909    0.0000 C   0  0  0  0  0  0  0  0  0  0  0  0
    4.3186    2.8719    0.0000 Cl  0  0  0  0  0  0  0  0  0  0  0  0
    0.9705    4.1709    0.0000 Si  0  0  0  0  0  4  0  0  0  0  0  0
    3.5686    4.1709    0.0000 Si  0  0  0  0  0  4  0  0  0  0  0  0
  9 10  2  0
 11  1  1  0
 11  2  1  0
 11  3  1  0
 11  9  1  0
 13  4  1  0
 13  5  1  0
 13  6  1  0
 13 10  1  0
 14  7  1  0
 14  8  1  0
 14 10  1  0
 14 12  1  0
M  END
>  <NAME>  (5891) 
(E)-1-CHLORODIMETHYLSILYL-1-TRIMETHYLSILYL-3,3-DIMETHYL-1-BUTENE

>  <SYNONYMS>  (5891) 


>  <SPECTRUM TYPE>  (5891) 
MS1

>  <INSTRUMENT TYPE>  (5891) 
EI-B

>  <INSTRUMENT>  (5891) 
JEOL JMS-D-3000

>  <ION MODE>  (5891) 
P

>  <INCHIKEY>  (5891) 
DWNGYQWUOSDVAC-MDZDMXLPSA-N

>  <FORMULA>  (5891) 
C11H25ClSi2

>  <EXACT MASS>  (5891) 
248.11833153999999

>  <MW>  (5891) 
248

>  <ID>  (5891) 
JP002351

>  <CONTRIBUTOR>  (5891) 
University of Tokyo Team, {Faculty of Engineering, University of Tokyo

>  <COMMENT>  (5891) 
SMILES=CC(C)(C)C([H])=C([Si](C)(C)C)[Si](C)(C)Cl
InChI=InChI=1S/C11H25ClSi2/c1-11(2,3)9-10(13(4,5)6)14(7,8)12/h9H,1-8H3/b10-9+
computed SMILES=Cl[Si](C(=CC(C)(C)C)[Si](C)(C)C)(C)C
accession=JP002351
date=2016.01.19 (Created 2008.10.21, modified 2011.05.06)
author=MASS SPECTROSCOPY SOC. OF JAPAN (MSSJ)
license=CC BY-NC-SA
exact mass=248.11833
ionization energy=70 eV
ion type=[M]+*
computed spectral entropy=2.9725426942908317
computed normalized entropy=0.7678605905286479
SPLASH=splash10-00gi-9510000000-2bed7a4ed277effa37ed
submitter=submitter = University of Tokyo Team (Faculty of Engineering, University of Tokyo)
MoNA Rating=3.75

>  <NUM PEAKS>  (5891) 
48

>  <MASS SPECTRAL PEAKS>  (5891) 
43 2.71
45 8.51
55 1.21
56 1.1
57 10.41
58 1.01
59 7.52
63 1.24
65 2.16
67 2.18
69 1.27
72 1.8
73 99.99
74 8.79
75 7.58
79 1.03
83 50.34
84 5.25
85 5.56
93 7.95
95 3.64
97 18.5
98 11.46
99 3.91
100 2.46
109 2.53
112 1.71
117 1.8
123 2.42
124 1.52
125 52.83
126 7.14
127 2.4
133 1.37
139 29.37
140 37.51
141 6.71
142 1.74
175 1.37
191 1.99
213 1.24
215 1.21
233 19.54
234 4.26
235 7.97
236 1.78
248 3.85
250 1.69

$$$$

     RDKit          2D

 12 11  0  0  0  0  0  0  0  0999 V2000
    2.6403    0.7450    0.0000 C   0  0  0  0  0  0  0  0  0  0  0  0
   -3.1108    3.7153    0.0000 C   0  0  0  0  0  0  0  0  0  0  0  0
   -3.6789    0.8906    0.0000 C   0  0  0  0  0  0  0  0  0  0  0  0
   -1.7564   -0.0059    0.0000 C   0  0  0  0  0  0  0  0  0  0  0  0
    0.2271    4.3583    0.0000 C   0  0  0  0  0  0  0  0  0  0  0  0
   -1.8861    4.5431    0.0000 C   0  0  0  0  0  0  0  0  0  0  0  0
   -2.2210    2.6441    0.0000 C   0  0  0  0  0  0  0  0  0  0  0  0
    1.0064    3.3941    0.0000 C   0  0  0  0  0  0  0  0  0  0  0  0
    1.3413    1.4950    0.0000 C   0  0  0  0  0  0  0  0  0  0  0  0
   -2.2694    1.4036    0.0000 Si  0  0  0  0  0  4  0  0  0  0  0  0
   -0.9219    3.3941    0.0000 Si  0  0  0  0  0  4  0  0  0  0  0  0
    0.0423    2.2450    0.0000 Si  0  0  0  0  0  4  0  0  0  0  0  0
  9  1  3  0
 10  2  1  0
 10  3  1  0
 10  4  1  0
 11  5  1  0
 11  6  1  0
 11  7  1  0
 12  8  1  0
 12  9  1  0
 12 10  1  0
 12 11  1  0
M  END
>  <NAME>  (5892) 
2-ETHYNYL-1,1,1,2,3,3,3-HEPTAMETHYLTRISILANE

>  <SYNONYMS>  (5892) 


>  <SPECTRUM TYPE>  (5892) 
MS1

>  <INSTRUMENT TYPE>  (5892) 
EI-B

>  <INSTRUMENT>  (5892) 
JEOL JMS-D-3000

>  <ION MODE>  (5892) 
P

>  <INCHIKEY>  (5892) 
PWGUZZBESIYXHZ-UHFFFAOYSA-N

>  <FORMULA>  (5892) 
C9H22Si3

>  <EXACT MASS>  (5892) 
214.10293029399998

>  <MW>  (5892) 
214

>  <ID>  (5892) 
JP002350

>  <CONTRIBUTOR>  (5892) 
University of Tokyo Team, {Faculty of Engineering, University of Tokyo

>  <COMMENT>  (5892) 
SMILES=C#C[Si](C)([Si](C)(C)C)[Si](C)(C)C
InChI=InChI=1S/C9H22Si3/c1-9-12(8,10(2,3)4)11(5,6)7/h1H,2-8H3
computed SMILES=C#C[Si](C)([Si](C)(C)C)[Si](C)(C)C
accession=JP002350
date=2016.01.19 (Created 2008.10.21, modified 2011.05.06)
author=MASS SPECTROSCOPY SOC. OF JAPAN (MSSJ)
license=CC BY-NC-SA
exact mass=214.10293
ionization energy=70 eV
ion type=[M]+*
computed spectral entropy=3.0646924340674966
computed normalized entropy=0.7834034794312478
SPLASH=splash10-00xr-5910000000-24a34ecdbf8231deb9fd
submitter=submitter = University of Tokyo Team (Faculty of Engineering, University of Tokyo)
MoNA Rating=3.75

>  <NUM PEAKS>  (5892) 
50

>  <MASS SPECTRAL PEAKS>  (5892) 
43 4.72
45 12.08
46 1.08
53 1.53
55 2.12
59 1.91
67 1.88
69 2.46
71 1.04
72 1.02
73 99.99
74 6.78
75 5.81
81 1.17
83 10.62
84 1.37
85 3.67
95 1.04
97 2.11
99 3.07
101 11.36
102 1.66
111 13.68
112 2.15
113 2.4
115 3.87
116 66.34
117 10.45
118 5.34
125 6.36
126 7.41
127 2.29
129 1.98
131 2.75
139 1.17
140 17.15
141 24.59
142 5.38
143 2.07
155 19.63
156 3.7
157 2.07
171 1.59
183 1.1
199 32.56
200 8.4
201 4.31
214 24.71
215 6.91
216 3.24

$$$$

     RDKit          2D

  6  6  0  0  0  0  0  0  0  0999 V2000
   -1.3000    0.7500    0.0000 C   0  0  0  0  0  0  0  0  0  0  0  0
    0.0000    1.5000    0.0000 C   0  0  0  0  0  0  0  0  0  0  0  0
   -1.3000   -0.7500    0.0000 C   0  0  0  0  0  0  0  0  0  0  0  0
    1.3000    0.7500    0.0000 C   0  0  0  0  0  0  0  0  0  0  0  0
   -0.0000   -1.5000    0.0000 C   0  0  0  0  0  0  0  0  0  0  0  0
    1.3000   -0.7500    0.0000 C   0  0  0  0  0  0  0  0  0  0  0  0
  2  1  1  0
  3  1  1  0
  4  2  1  0
  5  3  1  0
  6  4  1  0
  6  5  1  0
M  END
>  <NAME>  (5893) 
CYCLOHEXANE

>  <SYNONYMS>  (5893) 


>  <SPECTRUM TYPE>  (5893) 
MS1

>  <INSTRUMENT TYPE>  (5893) 
EI-B

>  <INSTRUMENT>  (5893) 
JEOL JMS-D-3000

>  <ION MODE>  (5893) 
P

>  <INCHIKEY>  (5893) 
XDTMQSROBMDMFD-UHFFFAOYSA-N

>  <FORMULA>  (5893) 
C6H12

>  <EXACT MASS>  (5893) 
84.093900384

>  <MW>  (5893) 
84

>  <ID>  (5893) 
JP002349

>  <CONTRIBUTOR>  (5893) 
University of Tokyo Team, {Faculty of Engineering, University of Tokyo

>  <COMMENT>  (5893) 
SMILES=C(C1)CCCC1
InChI=InChI=1S/C6H12/c1-2-4-6-5-3-1/h1-6H2
computed SMILES=C1CCCCC1
accession=JP002349
date=2016.01.19 (Created 2008.10.21, modified 2011.05.06)
author=MASS SPECTROSCOPY SOC. OF JAPAN (MSSJ)
license=CC BY-NC-SA
exact mass=84.0939
ionization energy=70 eV
ion type=[M]+*
computed spectral entropy=2.0929860227870534
computed normalized entropy=0.738732233906041
SPLASH=splash10-0a4l-9000000000-14e97092ea29e622dae3
submitter=submitter = University of Tokyo Team (Faculty of Engineering, University of Tokyo)
MoNA Rating=3.75

>  <NUM PEAKS>  (5893) 
17

>  <MASS SPECTRAL PEAKS>  (5893) 
40 51.34
42 27.71
43 13
50 1.08
51 1.7
53 3.23
54 5.41
55 31.6
56 99.99
57 4.59
67 2.39
68 1.78
69 22.78
70 1.18
83 3.81
84 60.47
85 3.87

$$$$

     RDKit          2D

  6  5  0  0  0  0  0  0  0  0999 V2000
   -4.5466    3.3750    0.0000 C   0  0  0  0  0  0  0  0  0  0  0  0
    1.9486    2.6250    0.0000 C   0  0  0  0  0  0  0  0  0  0  0  0
   -3.2476    2.6250    0.0000 C   0  0  0  0  0  0  0  0  0  0  0  0
    0.6495    3.3750    0.0000 C   0  0  0  0  0  0  0  0  0  0  0  0
   -1.9486    3.3750    0.0000 C   0  0  0  0  0  0  0  0  0  0  0  0
   -0.6495    2.6250    0.0000 C   0  0  0  0  0  0  0  0  0  0  0  0
  3  1  1  0
  4  2  1  0
  5  3  1  0
  6  4  1  0
  6  5  1  0
M  END
>  <NAME>  (5894) 
HEXANE

>  <SYNONYMS>  (5894) 


>  <SPECTRUM TYPE>  (5894) 
MS1

>  <INSTRUMENT TYPE>  (5894) 
EI-B

>  <INSTRUMENT>  (5894) 
JEOL JMS-D-3000

>  <ION MODE>  (5894) 
P

>  <INCHIKEY>  (5894) 
VLKZOEOYAKHREP-UHFFFAOYSA-N

>  <FORMULA>  (5894) 
C6H14

>  <EXACT MASS>  (5894) 
86.109550448

>  <MW>  (5894) 
86

>  <ID>  (5894) 
JP002348

>  <CONTRIBUTOR>  (5894) 
University of Tokyo Team, {Faculty of Engineering, University of Tokyo

>  <COMMENT>  (5894) 
SMILES=CCCCCC
InChI=InChI=1S/C6H14/c1-3-5-6-4-2/h3-6H2,1-2H3
computed SMILES=CCCCCC
accession=JP002348
date=2016.01.19 (Created 2008.10.21, modified 2011.05.06)
author=MASS SPECTROSCOPY SOC. OF JAPAN (MSSJ)
license=CC BY-NC-SA
exact mass=86.10955
ionization energy=70 eV
ion type=[M]+*
computed spectral entropy=1.913505466642344
computed normalized entropy=0.7700512479233756
SPLASH=splash10-0a4l-9000000000-8ab77db137ff0d1e75f0
submitter=submitter = University of Tokyo Team (Faculty of Engineering, University of Tokyo)
MoNA Rating=3.75

>  <NUM PEAKS>  (5894) 
12

>  <MASS SPECTRAL PEAKS>  (5894) 
40 44.96
42 29.81
43 58.89
53 1.21
55 6.01
56 45.71
57 99.99
58 4.67
70 1.34
71 8.22
86 19.66
87 1.35

$$$$

     RDKit          2D

  6  6  0  0  0  0  0  0  0  0999 V2000
   -1.3000    0.7500    0.0000 C   0  0  0  0  0  0  0  0  0  0  0  0
    0.0000    1.5000    0.0000 C   0  0  0  0  0  0  0  0  0  0  0  0
   -1.3000   -0.7500    0.0000 C   0  0  0  0  0  0  0  0  0  0  0  0
    1.3000    0.7500    0.0000 C   0  0  0  0  0  0  0  0  0  0  0  0
   -0.0000   -1.5000    0.0000 C   0  0  0  0  0  0  0  0  0  0  0  0
    1.3000   -0.7500    0.0000 C   0  0  0  0  0  0  0  0  0  0  0  0
  2  1  2  0
  3  1  1  0
  4  2  1  0
  5  3  2  0
  6  4  2  0
  6  5  1  0
M  END
>  <NAME>  (5895) 
BENZENE

>  <SYNONYMS>  (5895) 


>  <SPECTRUM TYPE>  (5895) 
MS1

>  <INSTRUMENT TYPE>  (5895) 
EI-B

>  <INSTRUMENT>  (5895) 
JEOL JMS-D-3000

>  <ION MODE>  (5895) 
P

>  <INCHIKEY>  (5895) 
UHOVQNZJYSORNB-UHFFFAOYSA-N

>  <FORMULA>  (5895) 
C6H6

>  <EXACT MASS>  (5895) 
78.046950192

>  <MW>  (5895) 
78

>  <ID>  (5895) 
JP002347

>  <CONTRIBUTOR>  (5895) 
University of Tokyo Team, {Faculty of Engineering, University of Tokyo

>  <COMMENT>  (5895) 
SMILES=c(c1)cccc1
InChI=InChI=1S/C6H6/c1-2-4-6-5-3-1/h1-6H
computed SMILES=C=1C=CC=CC1
accession=JP002347
date=2016.01.19 (Created 2008.10.21, modified 2011.05.06)
author=MASS SPECTROSCOPY SOC. OF JAPAN (MSSJ)
license=CC BY-NC-SA
exact mass=78.04695
ionization energy=70 eV
ion type=[M]+*
computed spectral entropy=1.6028665737533123
computed normalized entropy=0.6450409611524283
SPLASH=splash10-004i-9000000000-92ccc664b07cb6c56de9
submitter=submitter = University of Tokyo Team (Faculty of Engineering, University of Tokyo)
MoNA Rating=3.75

>  <NUM PEAKS>  (5895) 
12

>  <MASS SPECTRAL PEAKS>  (5895) 
49 1.28
50 10.55
51 13.86
52 15.31
63 2.33
73 1.3
74 4.15
75 1.73
76 4.06
77 17.73
78 99.99
79 7.21

$$$$

     RDKit          2D

  6  5  0  0  0  0  0  0  0  0999 V2000
    1.2990    2.2500    0.0000 C   0  0  0  0  0  0  0  0  0  0  0  0
   -3.8971    2.2500    0.0000 C   0  0  0  0  0  0  0  0  0  0  0  0
    0.0000    3.0000    0.0000 C   0  0  0  0  0  0  0  0  0  0  0  0
   -2.5981    3.0000    0.0000 C   0  0  0  0  0  0  0  0  0  0  0  0
   -2.5981    4.5000    0.0000 O   0  0  0  0  0  0  0  0  0  0  0  0
   -1.2990    2.2500    0.0000 O   0  0  0  0  0  0  0  0  0  0  0  0
  3  1  1  0
  4  2  1  0
  5  4  2  0
  6  3  1  0
  6  4  1  0
M  END
>  <NAME>  (5896) 
ETHYL ACETATE

>  <SYNONYMS>  (5896) 


>  <SPECTRUM TYPE>  (5896) 
MS1

>  <INSTRUMENT TYPE>  (5896) 
EI-B

>  <INSTRUMENT>  (5896) 
JEOL JMS-D-3000

>  <ION MODE>  (5896) 
P

>  <INCHIKEY>  (5896) 
XEKOWRVHYACXOJ-UHFFFAOYSA-N

>  <FORMULA>  (5896) 
C4H8O2

>  <EXACT MASS>  (5896) 
88.052429496

>  <MW>  (5896) 
88

>  <ID>  (5896) 
JP002346

>  <CONTRIBUTOR>  (5896) 
University of Tokyo Team, {Faculty of Engineering, University of Tokyo

>  <COMMENT>  (5896) 
SMILES=CCOC(C)=O
InChI=InChI=1S/C4H8O2/c1-3-6-4(2)5/h3H2,1-2H3
computed SMILES=O=C(OCC)C
accession=JP002346
date=2016.01.19 (Created 2008.10.21, modified 2011.05.06)
author=MASS SPECTROSCOPY SOC. OF JAPAN (MSSJ)
license=CC BY-NC-SA
exact mass=88.05243
ionization energy=70 eV
ion type=[M]+*
computed spectral entropy=1.3181979912920325
computed normalized entropy=0.5999377600673551
SPLASH=splash10-0006-9000000000-4950ee9233400dc5bfe6
submitter=submitter = University of Tokyo Team (Faculty of Engineering, University of Tokyo)
MoNA Rating=3.75

>  <NUM PEAKS>  (5896) 
9

>  <MASS SPECTRAL PEAKS>  (5896) 
42 5.15
43 99.99
44 1.36
45 15.2
60 1.04
61 15.29
70 10.09
73 4.47
88 5.39

$$$$

     RDKit          2D

  4  3  0  0  0  0  0  0  0  0999 V2000
    0.9743    0.5625    0.0000 C   0  0  0  0  0  0  0  0  0  0  0  0
   -1.6238    0.5625    0.0000 C   0  0  0  0  0  0  0  0  0  0  0  0
   -0.3248    1.3125    0.0000 C   0  0  0  0  0  0  0  0  0  0  0  0
   -0.3248    2.8125    0.0000 O   0  0  0  0  0  0  0  0  0  0  0  0
  3  1  1  0
  3  2  1  0
  4  3  1  0
M  END
>  <NAME>  (5897) 
2-PROPANOL

>  <SYNONYMS>  (5897) 


>  <SPECTRUM TYPE>  (5897) 
MS1

>  <INSTRUMENT TYPE>  (5897) 
EI-B

>  <INSTRUMENT>  (5897) 
JEOL JMS-D-3000

>  <ION MODE>  (5897) 
P

>  <INCHIKEY>  (5897) 
KFZMGEQAYNKOFK-UHFFFAOYSA-N

>  <FORMULA>  (5897) 
C3H8O

>  <EXACT MASS>  (5897) 
60.057514876

>  <MW>  (5897) 
60

>  <ID>  (5897) 
JP002345

>  <CONTRIBUTOR>  (5897) 
University of Tokyo Team, {Faculty of Engineering, University of Tokyo

>  <COMMENT>  (5897) 
SMILES=CC(C)O
InChI=InChI=1S/C3H8O/c1-3(2)4/h3-4H,1-2H3
computed SMILES=OC(C)C
accession=JP002345
date=2016.01.19 (Created 2008.10.21, modified 2011.05.06)
author=MASS SPECTROSCOPY SOC. OF JAPAN (MSSJ)
license=CC BY-NC-SA
exact mass=60.05751
ionization energy=70 eV
ion type=[M]+*
computed spectral entropy=0.8027062452677306
computed normalized entropy=0.4125094088529333
SPLASH=splash10-0002-9000000000-2261ea7d03d835d46644
submitter=submitter = University of Tokyo Team (Faculty of Engineering, University of Tokyo)
MoNA Rating=3.75

>  <NUM PEAKS>  (5897) 
7

>  <MASS SPECTRAL PEAKS>  (5897) 
42 4.32
43 11.12
44 2.08
45 99.99
46 2.54
59 4.69
60 0.49

$$$$

     RDKit          2D

  4  3  0  0  0  0  0  0  0  0999 V2000
    0.9743    0.5625    0.0000 C   0  0  0  0  0  0  0  0  0  0  0  0
   -1.6238    0.5625    0.0000 C   0  0  0  0  0  0  0  0  0  0  0  0
   -0.3248    1.3125    0.0000 C   0  0  0  0  0  0  0  0  0  0  0  0
   -0.3248    2.8125    0.0000 O   0  0  0  0  0  0  0  0  0  0  0  0
  3  1  1  0
  3  2  1  0
  4  3  2  0
M  END
>  <NAME>  (5898) 
ACETONE

>  <SYNONYMS>  (5898) 


>  <SPECTRUM TYPE>  (5898) 
MS1

>  <INSTRUMENT TYPE>  (5898) 
EI-B

>  <INSTRUMENT>  (5898) 
JEOL JMS-D-3000

>  <ION MODE>  (5898) 
P

>  <INCHIKEY>  (5898) 
CSCPPACGZOOCGX-UHFFFAOYSA-N

>  <FORMULA>  (5898) 
C3H6O

>  <EXACT MASS>  (5898) 
58.041864812

>  <MW>  (5898) 
58

>  <ID>  (5898) 
JP002344

>  <CONTRIBUTOR>  (5898) 
University of Tokyo Team, {Faculty of Engineering, University of Tokyo

>  <COMMENT>  (5898) 
SMILES=CC(C)=O
InChI=InChI=1S/C3H6O/c1-3(2)4/h1-2H3
computed SMILES=O=C(C)C
accession=JP002344
date=2016.01.19 (Created 2008.10.21, modified 2011.05.06)
author=MASS SPECTROSCOPY SOC. OF JAPAN (MSSJ)
license=CC BY-NC-SA
exact mass=58.04186
ionization energy=70 eV
ion type=[M]+*
computed spectral entropy=0.9168776316695163
computed normalized entropy=0.5117191494818975
SPLASH=splash10-052f-9000000000-14f33068e4ba092deb77
submitter=submitter = University of Tokyo Team (Faculty of Engineering, University of Tokyo)
MoNA Rating=3.75

>  <NUM PEAKS>  (5898) 
6

>  <MASS SPECTRAL PEAKS>  (5898) 
42 6.52
43 99.99
44 1.19
57 1.25
58 50.41
59 1.95

$$$$

     RDKit          2D

  2  1  0  0  0  0  0  0  0  0999 V2000
    0.0000    0.0000    0.0000 C   0  0  0  0  0  0  0  0  0  0  0  0
    1.5000    0.0000    0.0000 I   0  0  0  0  0  0  0  0  0  0  0  0
  2  1  1  0
M  END
>  <NAME>  (5899) 
METHYL IODIDE

>  <SYNONYMS>  (5899) 
IODOMETHANE

>  <SPECTRUM TYPE>  (5899) 
MS1

>  <INSTRUMENT TYPE>  (5899) 
EI-B

>  <INSTRUMENT>  (5899) 
JEOL JMS-D-3000

>  <ION MODE>  (5899) 
P

>  <INCHIKEY>  (5899) 
INQOMBQAUSQDDS-UHFFFAOYSA-N

>  <FORMULA>  (5899) 
CH3I

>  <EXACT MASS>  (5899) 
141.927948096

>  <MW>  (5899) 
142

>  <ID>  (5899) 
JP002343

>  <CONTRIBUTOR>  (5899) 
University of Tokyo Team, {Faculty of Engineering, University of Tokyo

>  <COMMENT>  (5899) 
SMILES=CI
InChI=InChI=1S/CH3I/c1-2/h1H3
computed SMILES=IC
accession=JP002343
date=2016.01.19 (Created 2008.10.21, modified 2011.05.06)
author=MASS SPECTROSCOPY SOC. OF JAPAN (MSSJ)
license=CC BY-NC-SA
exact mass=141.92794
ionization energy=70 eV
ion type=[M]+*
computed spectral entropy=1.0578761327432102
computed normalized entropy=0.5436407910492581
SPLASH=splash10-0006-0900000000-ec173bcd5e9e6db42c13
submitter=submitter = University of Tokyo Team (Faculty of Engineering, University of Tokyo)
MoNA Rating=3.75

>  <NUM PEAKS>  (5899) 
7

>  <MASS SPECTRAL PEAKS>  (5899) 
127 24.56
128 1.61
139 4.01
140 3.72
141 13.49
142 99.99
143 1.13

$$$$

     RDKit          2D

  3  2  0  0  0  0  0  0  0  0999 V2000
   -0.0000    0.7500    0.0000 C   0  0  0  0  0  0  0  0  0  0  0  0
   -1.2990    0.0000    0.0000 Cl  0  0  0  0  0  0  0  0  0  0  0  0
    0.0000    2.2500    0.0000 Cl  0  0  0  0  0  0  0  0  0  0  0  0
  2  1  1  0
  3  1  1  0
M  END
>  <NAME>  (5900) 
DICHLOROMETHANE

>  <SYNONYMS>  (5900) 


>  <SPECTRUM TYPE>  (5900) 
MS1

>  <INSTRUMENT TYPE>  (5900) 
EI-B

>  <INSTRUMENT>  (5900) 
JEOL JMS-D-3000

>  <ION MODE>  (5900) 
P

>  <INCHIKEY>  (5900) 
YMWUJEATGCHHMB-UHFFFAOYSA-N

>  <FORMULA>  (5900) 
CH2Cl2

>  <EXACT MASS>  (5900) 
83.953355424

>  <MW>  (5900) 
84

>  <ID>  (5900) 
JP002342

>  <CONTRIBUTOR>  (5900) 
University of Tokyo Team, {Faculty of Engineering, University of Tokyo

>  <COMMENT>  (5900) 
SMILES=ClCCl
InChI=InChI=1S/CH2Cl2/c2-1-3/h1H2
computed SMILES=ClCCl
accession=JP002342
date=2016.01.19 (Created 2008.10.21, modified 2011.05.06)
author=MASS SPECTROSCOPY SOC. OF JAPAN (MSSJ)
license=CC BY-NC-SA
exact mass=83.95336
ionization energy=70 eV
ion type=[M]+*
computed spectral entropy=1.7441058735771051
computed normalized entropy=0.7273486433549343
SPLASH=splash10-000t-9000000000-3c727a0b79ead1d0afc9
submitter=submitter = University of Tokyo Team (Faculty of Engineering, University of Tokyo)
MoNA Rating=3.75

>  <NUM PEAKS>  (5900) 
11

>  <MASS SPECTRAL PEAKS>  (5900) 
42 3
47 13.31
48 7.4
49 99.99
50 3.41
51 30.9
83 1.82
84 57.85
85 1.93
86 36.56
88 5.94

$$$$

     RDKit          2D

  3  2  0  0  0  0  0  0  0  0999 V2000
   -0.0000    0.7500    0.0000 C   0  0  0  0  0  0  0  0  0  0  0  0
   -1.2990    0.0000    0.0000 Br  0  0  0  0  0  0  0  0  0  0  0  0
    0.0000    2.2500    0.0000 Br  0  0  0  0  0  0  0  0  0  0  0  0
  2  1  1  0
  3  1  1  0
M  END
>  <NAME>  (5901) 
DIBROMOMETHANE

>  <SYNONYMS>  (5901) 


>  <SPECTRUM TYPE>  (5901) 
MS1

>  <INSTRUMENT TYPE>  (5901) 
EI-B

>  <INSTRUMENT>  (5901) 
JEOL JMS-D-3000

>  <ION MODE>  (5901) 
P

>  <INCHIKEY>  (5901) 
FJBFPHVGVWTDIP-UHFFFAOYSA-N

>  <FORMULA>  (5901) 
CH2Br2

>  <EXACT MASS>  (5901) 
171.852324264

>  <MW>  (5901) 
172

>  <ID>  (5901) 
JP002341

>  <CONTRIBUTOR>  (5901) 
University of Tokyo Team, {Faculty of Engineering, University of Tokyo

>  <COMMENT>  (5901) 
SMILES=BrCBr
InChI=InChI=1S/CH2Br2/c2-1-3/h1H2
computed SMILES=BrCBr
accession=JP002341
date=2016.01.19 (Created 2008.10.21, modified 2011.05.06)
author=MASS SPECTROSCOPY SOC. OF JAPAN (MSSJ)
license=CC BY-NC-SA
exact mass=171.85233
ionization energy=70 eV
ion type=[M]+*
computed spectral entropy=1.9997029376625473
computed normalized entropy=0.6918497360069991
SPLASH=splash10-00di-7900000000-459bcfcdc5499e25c899
submitter=submitter = University of Tokyo Team (Faculty of Engineering, University of Tokyo)
MoNA Rating=3.75

>  <NUM PEAKS>  (5901) 
18

>  <MASS SPECTRAL PEAKS>  (5901) 
79 7.26
80 1.18
81 7.48
82 1.07
87 1.33
91 8.36
92 3.69
93 74.59
94 4.27
95 65.24
158 1.03
160 2.01
162 1.03
172 51.98
173 1.93
174 99.99
175 1.8
176 48.78

$$$$

     RDKit          2D

  4  3  0  0  0  0  0  0  0  0999 V2000
   -0.3248    1.3125    0.0000 C   0  0  0  0  0  0  0  0  0  0  0  0
    0.9743    0.5625    0.0000 Cl  0  0  0  0  0  0  0  0  0  0  0  0
   -1.6238    0.5625    0.0000 Cl  0  0  0  0  0  0  0  0  0  0  0  0
   -0.3248    2.8125    0.0000 Cl  0  0  0  0  0  0  0  0  0  0  0  0
  2  1  1  0
  3  1  1  0
  4  1  1  0
M  END
>  <NAME>  (5902) 
CHLOROFORM

>  <SYNONYMS>  (5902) 


>  <SPECTRUM TYPE>  (5902) 
MS1

>  <INSTRUMENT TYPE>  (5902) 
EI-B

>  <INSTRUMENT>  (5902) 
JEOL JMS-D-3000

>  <ION MODE>  (5902) 
P

>  <INCHIKEY>  (5902) 
HEDRZPFGACZZDS-UHFFFAOYSA-N

>  <FORMULA>  (5902) 
CHCl3

>  <EXACT MASS>  (5902) 
117.91438307199999

>  <MW>  (5902) 
118

>  <ID>  (5902) 
JP002340

>  <CONTRIBUTOR>  (5902) 
University of Tokyo Team, {Faculty of Engineering, University of Tokyo

>  <COMMENT>  (5902) 
SMILES=ClC(Cl)Cl
InChI=InChI=1S/CHCl3/c2-1(3)4/h1H
computed SMILES=ClC(Cl)Cl
ionization energy=70 eV
ion type=[M]+*
accession=JP002340
date=2016.01.19 (Created 2008.10.21, modified 2011.05.06)
author=MASS SPECTROSCOPY SOC. OF JAPAN (MSSJ)
license=CC BY-NC-SA
exact mass=117.91438
computed spectral entropy=1.7284734027300344
computed normalized entropy=0.654958641228921
SPLASH=splash10-001r-9000000000-4c60f1e48cbdf424460b
submitter=submitter = University of Tokyo Team (Faculty of Engineering, University of Tokyo)
MoNA Rating=3.75

>  <NUM PEAKS>  (5902) 
14

>  <MASS SPECTRAL PEAKS>  (5902) 
47 25.98
48 13.39
49 9
50 4.47
82 3.78
83 99.99
84 3.5
85 65.55
86 1.1
87 10.41
117 1.21
118 1.98
119 1.23
120 2

$$$$

     RDKit          2D

  5  4  0  0  0  0  0  0  0  0999 V2000
    0.0000    1.5000    0.0000 C   0  0  0  0  0  0  0  0  0  0  0  0
   -1.2990    0.7500    0.0000 Cl  0  0  0  0  0  0  0  0  0  0  0  0
    0.7500    0.2010    0.0000 Cl  0  0  0  0  0  0  0  0  0  0  0  0
    1.2990    2.2500    0.0000 Cl  0  0  0  0  0  0  0  0  0  0  0  0
   -0.7500    2.7990    0.0000 Cl  0  0  0  0  0  0  0  0  0  0  0  0
  2  1  1  0
  3  1  1  0
  4  1  1  0
  5  1  1  0
M  END
>  <NAME>  (5903) 
CARBON TETRACHLORIDE

>  <SYNONYMS>  (5903) 
TETRACHLOROMETHANE

>  <SPECTRUM TYPE>  (5903) 
MS1

>  <INSTRUMENT TYPE>  (5903) 
EI-B

>  <INSTRUMENT>  (5903) 
JEOL JMS-D-3000

>  <ION MODE>  (5903) 
P

>  <INCHIKEY>  (5903) 
VZGDMQKNWNREIO-UHFFFAOYSA-N

>  <FORMULA>  (5903) 
CCl4

>  <EXACT MASS>  (5903) 
151.87541072

>  <MW>  (5903) 
152

>  <ID>  (5903) 
JP002339

>  <CONTRIBUTOR>  (5903) 
University of Tokyo Team, {Faculty of Engineering, University of Tokyo

>  <COMMENT>  (5903) 
SMILES=ClC(Cl)(Cl)Cl
InChI=InChI=1S/CCl4/c2-1(3,4)5
computed SMILES=ClC(Cl)(Cl)Cl
computed normalized entropy=0.684011386994079
accession=JP002339
date=2016.01.19 (Created 2008.10.21, modified 2011.05.06)
author=MASS SPECTROSCOPY SOC. OF JAPAN (MSSJ)
license=CC BY-NC-SA
exact mass=151.87541
ionization energy=70 eV
ion type=[M]+*
computed spectral entropy=1.8523371741055175
SPLASH=splash10-014i-3900000000-3ee1252607af104d66c6
submitter=submitter = University of Tokyo Team (Faculty of Engineering, University of Tokyo)
MoNA Rating=3.75

>  <NUM PEAKS>  (5903) 
15

>  <MASS SPECTRAL PEAKS>  (5903) 
47 20.81
49 7.18
58 4.14
59 3.94
60 1.27
70 1.44
82 23.99
84 15.46
86 2.58
117 99.99
118 1.15
119 97.63
120 1.1
121 31
123 3.43

$$$$

     RDKit          2D

 12 12  0  0  0  0  0  0  0  0999 V2000
   -2.8427    1.4898    0.0000 C   0  0  0  0  0  0  0  0  0  0  0  0
    0.2749   -2.0308    0.0000 C   0  0  0  0  0  0  0  0  0  0  0  0
    2.3253   -1.4869    0.0000 C   0  0  0  0  0  0  0  0  0  0  0  0
    1.7815    0.5635    0.0000 C   0  0  0  0  0  0  0  0  0  0  0  0
   -0.2768    4.4798    0.0000 C   0  0  0  0  0  0  0  0  0  0  0  0
    1.0061    3.7521    0.0000 C   0  0  0  0  0  0  0  0  0  0  0  0
   -1.5539    3.7274    0.0000 C   0  0  0  0  0  0  0  0  0  0  0  0
    1.0423    2.2525    0.0000 C   0  0  0  0  0  0  0  0  0  0  0  0
   -1.5481    2.2473    0.0000 C   0  0  0  0  0  0  0  0  0  0  0  0
   -0.2652    1.5196    0.0000 C   0  0  0  0  0  0  0  0  0  0  0  0
    1.0282   -0.7337    0.0000 C   0  0  0  0  0  0  0  0  0  0  0  0
   -0.2689    0.0196    0.0000 N   0  0  0  0  0  0  0  0  0  0  0  0
  6  5  1  0
  7  5  1  0
  8  6  1  0
  9  1  1  0
  9  7  1  0
 10  8  1  0
 10  9  1  0
 11  2  1  0
 11  3  1  0
 11  4  1  0
 10 12  2  0
 12 11  1  0
M  END
>  <NAME>  (5904) 
N-(TERT-BUTYL)-2-METHYLCYCLOHEXANIMINE

>  <SYNONYMS>  (5904) 


>  <SPECTRUM TYPE>  (5904) 
MS1

>  <INSTRUMENT TYPE>  (5904) 
EI-B

>  <INSTRUMENT>  (5904) 
JEOL JMS-D-3000

>  <ION MODE>  (5904) 
P

>  <INCHIKEY>  (5904) 
KFNAZWBIFXRKJD-ZRDIBKRKSA-N

>  <FORMULA>  (5904) 
C11H21N

>  <EXACT MASS>  (5904) 
167.167399672

>  <MW>  (5904) 
167

>  <ID>  (5904) 
JP002338

>  <CONTRIBUTOR>  (5904) 
University of Tokyo Team, {Faculty of Engineering, University of Tokyo

>  <COMMENT>  (5904) 
SMILES=CC(C1)C(CCC1)=NC(C)(C)C
InChI=InChI=1S/C11H21N/c1-9-7-5-6-8-10(9)12-11(2,3)4/h9H,5-8H2,1-4H3/b12-10+
computed SMILES=N(=C1CCCCC1C)C(C)(C)C
accession=JP002338
date=2016.01.19 (Created 2008.10.21, modified 2011.05.06)
author=MASS SPECTROSCOPY SOC. OF JAPAN (MSSJ)
license=CC BY-NC-SA
exact mass=167.1674
ionization energy=70 eV
ion type=[M]+*
computed spectral entropy=2.7649864348120374
computed normalized entropy=0.8389330380190018
SPLASH=splash10-0a4i-9300000000-e0573e0e1b7a41fd90df
submitter=submitter = University of Tokyo Team (Faculty of Engineering, University of Tokyo)
MoNA Rating=3.75

>  <NUM PEAKS>  (5904) 
27

>  <MASS SPECTRAL PEAKS>  (5904) 
42 29.35
44 1.8
53 1.96
54 8.29
55 8.62
56 11.19
57 99.99
58 13.23
67 4.12
68 10.91
69 7.05
70 1.46
82 15.04
83 28.63
84 2.39
95 7.28
96 30.91
97 2.61
110 12.37
111 18.88
112 11.16
124 12.82
125 1.96
152 25.96
153 3.02
167 23.98
168 3.13

$$$$

     RDKit          2D

 12 11  0  0  0  0  0  0  0  0999 V2000
   -7.4695    3.9375    0.0000 C   0  0  0  0  0  0  0  0  0  0  0  0
    1.6238    3.1875    0.0000 C   0  0  0  0  0  0  0  0  0  0  0  0
    0.3248    5.4375    0.0000 C   0  0  0  0  0  0  0  0  0  0  0  0
   -4.8714    5.4375    0.0000 C   0  0  0  0  0  0  0  0  0  0  0  0
   -0.9743    6.1875    0.0000 C   0  0  0  0  0  0  0  0  0  0  0  0
   -6.1704    3.1875    0.0000 C   0  0  0  0  0  0  0  0  0  0  0  0
   -0.9743    3.1875    0.0000 C   0  0  0  0  0  0  0  0  0  0  0  0
   -3.5724    3.1875    0.0000 C   0  0  0  0  0  0  0  0  0  0  0  0
    0.3248    3.9375    0.0000 C   0  0  0  0  0  0  0  0  0  0  0  0
   -4.8714    3.9375    0.0000 C   0  0  0  0  0  0  0  0  0  0  0  0
   -2.2733    3.9375    0.0000 C   0  0  0  0  0  0  0  0  0  0  0  0
   -2.2733    5.4375    0.0000 O   0  0  0  0  0  0  0  0  0  0  0  0
  6  1  2  0
  9  2  1  0
  9  3  1  0
  9  7  1  0
 10  4  2  0
 10  6  1  0
 10  8  1  0
 11  7  1  0
 11  8  1  0
 12  5  1  0
 12 11  1  0
M  END
>  <NAME>  (5905) 
5-METHOXY-7-METHYL-3-METHYLENEOCT-1-ENE

>  <SYNONYMS>  (5905) 


>  <SPECTRUM TYPE>  (5905) 
MS1

>  <INSTRUMENT TYPE>  (5905) 
EI-B

>  <INSTRUMENT>  (5905) 
JEOL JMS-D-3000

>  <ION MODE>  (5905) 
P

>  <INCHIKEY>  (5905) 
AYRYNESGTLKBAU-UHFFFAOYSA-N

>  <FORMULA>  (5905) 
C11H20O

>  <EXACT MASS>  (5905) 
168.15141526

>  <MW>  (5905) 
168

>  <ID>  (5905) 
JP002337

>  <CONTRIBUTOR>  (5905) 
University of Tokyo Team, {Faculty of Engineering, University of Tokyo

>  <COMMENT>  (5905) 
SMILES=C=CC(=C)CC(OC)CC(C)C
InChI=InChI=1S/C11H20O/c1-6-10(4)8-11(12-5)7-9(2)3/h6,9,11H,1,4,7-8H2,2-3,5H3
computed SMILES=O(C)C(CC(=C)C=C)CC(C)C
accession=JP002337
date=2016.01.19 (Created 2008.10.21, modified 2011.05.06)
author=MASS SPECTROSCOPY SOC. OF JAPAN (MSSJ)
license=CC BY-NC-SA
exact mass=168.15142
ionization energy=70 eV
ion type=[M]+*
computed spectral entropy=2.4885590933080075
computed normalized entropy=0.7731143506941289
SPLASH=splash10-1004-9300000000-f427ff74df47ed89ed20
submitter=submitter = University of Tokyo Team (Faculty of Engineering, University of Tokyo)
MoNA Rating=3.75

>  <NUM PEAKS>  (5905) 
25

>  <MASS SPECTRAL PEAKS>  (5905) 
42 28.86
43 26.02
45 51.55
53 9.96
55 4.96
58 3.75
59 52.57
65 2.61
67 5.83
69 91.89
70 4.77
71 14.35
77 5.15
79 12.99
80 2.84
81 12.57
82 3.71
85 3.71
93 3.63
101 99.99
102 6.7
111 2.91
112 3.59
136 2.65
168 4.05

$$$$

     RDKit          2D

 13 13  0  0  0  0  0  0  0  0999 V2000
    3.2481    0.7504    0.0000 C   0  0  0  0  0  0  0  0  0  0  0  0
    3.2474    5.2504    0.0000 C   0  0  0  0  0  0  0  0  0  0  0  0
   -1.9500    0.7500    0.0000 C   0  0  0  0  0  0  0  0  0  0  0  0
   -1.9500   -0.7500    0.0000 C   0  0  0  0  0  0  0  0  0  0  0  0
   -0.6500    1.5000    0.0000 C   0  0  0  0  0  0  0  0  0  0  0  0
   -0.6500   -1.5000    0.0000 C   0  0  0  0  0  0  0  0  0  0  0  0
    1.9487    3.0002    0.0000 C   0  0  0  0  0  0  0  0  0  0  0  0
    1.9489    1.5002    0.0000 C   0  0  0  0  0  0  0  0  0  0  0  0
    3.2476    3.7504    0.0000 C   0  0  0  0  0  0  0  0  0  0  0  0
    0.6500    0.7500    0.0000 C   0  0  0  0  0  0  0  0  0  0  0  0
    0.6500   -0.7500    0.0000 C   0  0  0  0  0  0  0  0  0  0  0  0
    4.5468    3.0006    0.0000 O   0  0  0  0  0  0  0  0  0  0  0  0
    1.9489   -1.5002    0.0000 O   0  0  0  0  0  0  0  0  0  0  0  0
  4  3  1  0
  5  3  1  0
  6  4  1  0
  8  1  1  0
  8  7  1  0
  9  2  1  0
  9  7  1  0
 10  5  1  0
 10  8  1  0
 11  6  1  0
 11 10  1  0
 12  9  2  0
 13 11  2  0
M  END
>  <NAME>  (5906) 
2-(1-METHYL-3-OXOBUTYL)CYCLOHEXANONE

>  <SYNONYMS>  (5906) 


>  <SPECTRUM TYPE>  (5906) 
MS1

>  <INSTRUMENT TYPE>  (5906) 
EI-B

>  <INSTRUMENT>  (5906) 
JEOL JMS-D-3000

>  <ION MODE>  (5906) 
P

>  <INCHIKEY>  (5906) 
QXEQYZLLHMLPPY-UHFFFAOYSA-N

>  <FORMULA>  (5906) 
C11H18O2

>  <EXACT MASS>  (5906) 
182.130679816

>  <MW>  (5906) 
182

>  <ID>  (5906) 
JP002336

>  <CONTRIBUTOR>  (5906) 
University of Tokyo Team, {Faculty of Engineering, University of Tokyo

>  <COMMENT>  (5906) 
SMILES=CC(=O)CC(C)C(C1)C(=O)CCC1
InChI=InChI=1S/C11H18O2/c1-8(7-9(2)12)10-5-3-4-6-11(10)13/h8,10H,3-7H2,1-2H3
computed SMILES=O=C(C)CC(C)C1C(=O)CCCC1
accession=JP002336
date=2016.01.19 (Created 2008.10.21, modified 2011.05.06)
author=MASS SPECTROSCOPY SOC. OF JAPAN (MSSJ)
license=CC BY-NC-SA
exact mass=182.13068
ionization energy=70 eV
ion type=[M]+*
computed spectral entropy=3.0910405445479636
computed normalized entropy=0.794240306020445
SPLASH=splash10-002b-5900000000-8a4151afce912a100d13
submitter=submitter = University of Tokyo Team (Faculty of Engineering, University of Tokyo)
MoNA Rating=3.75

>  <NUM PEAKS>  (5906) 
49

>  <MASS SPECTRAL PEAKS>  (5906) 
18 1.6
43 12.77
55 6.04
58 3.57
67 4.62
68 3.17
69 8.14
70 5.25
71 1.71
79 3.2
80 1.6
81 5.69
82 1.75
83 6.58
84 5.6
85 33.8
86 3.59
93 2.41
94 1.93
95 6.05
96 8.54
97 21.52
98 98.62
99 9.54
107 5.36
109 4.62
111 6.7
112 1.79
121 6.53
122 6.62
123 2.81
124 20.21
125 99.99
126 29.11
127 1.86
135 7.47
136 2.97
137 2.15
139 12.73
140 1.93
149 67.29
150 7.96
163 4.66
164 27.87
165 5.33
167 5.66
180 2.55
182 73.12
183 10.1

$$$$

     RDKit          2D

 12 12  0  0  0  0  0  0  0  0999 V2000
   -3.5732    2.4377    0.0000 C   0  0  0  0  0  0  0  0  0  0  0  0
    0.3235    4.6883    0.0000 C   0  0  0  0  0  0  0  0  0  0  0  0
   -2.2743    3.1879    0.0000 C   0  0  0  0  0  0  0  0  0  0  0  0
    2.9229    0.1868    0.0000 C   0  0  0  0  0  0  0  0  0  0  0  0
    4.2220    0.9368    0.0000 C   0  0  0  0  0  0  0  0  0  0  0  0
   -0.9752    2.4381    0.0000 C   0  0  0  0  0  0  0  0  0  0  0  0
    1.6234    0.9377    0.0000 C   0  0  0  0  0  0  0  0  0  0  0  0
    4.2215    2.4377    0.0000 C   0  0  0  0  0  0  0  0  0  0  0  0
    0.3238    3.1883    0.0000 C   0  0  0  0  0  0  0  0  0  0  0  0
    1.6229    2.4385    0.0000 C   0  0  0  0  0  0  0  0  0  0  0  0
    2.9220    3.1885    0.0000 C   0  0  0  0  0  0  0  0  0  0  0  0
    2.9222    4.6885    0.0000 O   0  0  0  0  0  0  0  0  0  0  0  0
  3  1  2  0
  5  4  1  0
  6  3  1  0
  7  4  1  0
  8  5  1  0
  9  2  1  0
  9  6  1  0
 10  7  1  0
 10  9  1  0
 11  8  1  0
 11 10  1  0
 12 11  2  0
M  END
>  <NAME>  (5907) 
2-(1-METHYL-3-BUTENYL)CYCLOHEXANONE

>  <SYNONYMS>  (5907) 


>  <SPECTRUM TYPE>  (5907) 
MS1

>  <INSTRUMENT TYPE>  (5907) 
EI-B

>  <INSTRUMENT>  (5907) 
JEOL JMS-D-3000

>  <ION MODE>  (5907) 
P

>  <INCHIKEY>  (5907) 
DRGWHWMMHCDREE-UHFFFAOYSA-N

>  <FORMULA>  (5907) 
C11H18O

>  <EXACT MASS>  (5907) 
166.135765196

>  <MW>  (5907) 
166

>  <ID>  (5907) 
JP002335

>  <CONTRIBUTOR>  (5907) 
University of Tokyo Team, {Faculty of Engineering, University of Tokyo

>  <COMMENT>  (5907) 
SMILES=C=CCC(C)C(C1)C(=O)CCC1
InChI=InChI=1S/C11H18O/c1-3-6-9(2)10-7-4-5-8-11(10)12/h3,9-10H,1,4-8H2,2H3
computed SMILES=O=C1CCCCC1C(C)CC=C
accession=JP002335
date=2016.01.19 (Created 2008.10.21, modified 2011.05.06)
author=MASS SPECTROSCOPY SOC. OF JAPAN (MSSJ)
license=CC BY-NC-SA
exact mass=166.13577
ionization energy=70 eV
ion type=[M]+*
computed spectral entropy=2.790351188887343
computed normalized entropy=0.7564224376525693
SPLASH=splash10-0002-9100000000-690a32b6a414dec01d87
submitter=submitter = University of Tokyo Team (Faculty of Engineering, University of Tokyo)
MoNA Rating=3.75

>  <NUM PEAKS>  (5907) 
40

>  <MASS SPECTRAL PEAKS>  (5907) 
42 23.01
43 3.66
51 1.59
53 5.01
54 1.95
55 34.12
56 1.92
57 1.5
65 1.83
67 8.88
68 4.45
69 7.19
70 21.14
71 1.22
77 2.51
79 5.34
80 1.95
81 9.56
83 14.93
84 1.15
91 6.88
92 1.14
93 1.47
95 1.9
97 12.13
98 99.99
99 6.97
105 4.37
106 2.14
107 1.92
109 1.81
119 1.92
125 2.53
131 1.67
133 2.73
137 2.08
148 4
149 1.18
151 3.41
166 5.79

$$$$

     RDKit          2D

 12 12  0  0  0  0  0  0  0  0999 V2000
   -4.8712    2.0071    0.0000 C   0  0  0  0  0  0  0  0  0  0  0  0
   -3.5721    4.2571    0.0000 C   0  0  0  0  0  0  0  0  0  0  0  0
    2.9231    0.5071    0.0000 C   0  0  0  0  0  0  0  0  0  0  0  0
    2.9236    2.0079    0.0000 C   0  0  0  0  0  0  0  0  0  0  0  0
    1.6236   -0.2437    0.0000 C   0  0  0  0  0  0  0  0  0  0  0  0
    1.6245    2.7579    0.0000 C   0  0  0  0  0  0  0  0  0  0  0  0
    0.3245    0.5063    0.0000 C   0  0  0  0  0  0  0  0  0  0  0  0
   -0.9740    2.7571    0.0000 C   0  0  0  0  0  0  0  0  0  0  0  0
   -3.5721    2.7571    0.0000 C   0  0  0  0  0  0  0  0  0  0  0  0
    0.3250    2.0071    0.0000 C   0  0  0  0  0  0  0  0  0  0  0  0
   -2.2731    2.0071    0.0000 C   0  0  0  0  0  0  0  0  0  0  0  0
   -2.2731    0.5071    0.0000 O   0  0  0  0  0  0  0  0  0  0  0  0
  4  3  2  0
  5  3  1  0
  6  4  1  0
  7  5  2  0
  9  1  1  0
  9  2  1  0
 10  6  2  0
 10  7  1  0
 10  8  1  0
 11  8  1  0
 11  9  1  0
 12 11  2  0
M  END
>  <NAME>  (5908) 
3-METHYL-1-PHENYL-2-BUTANONE

>  <SYNONYMS>  (5908) 


>  <SPECTRUM TYPE>  (5908) 
MS1

>  <INSTRUMENT TYPE>  (5908) 
EI-B

>  <INSTRUMENT>  (5908) 
JEOL JMS-D-3000

>  <ION MODE>  (5908) 
P

>  <INCHIKEY>  (5908) 
ZATIMOAGKJEVGN-UHFFFAOYSA-N

>  <FORMULA>  (5908) 
C11H14O

>  <EXACT MASS>  (5908) 
162.104465068

>  <MW>  (5908) 
162

>  <ID>  (5908) 
JP002334

>  <CONTRIBUTOR>  (5908) 
University of Tokyo Team, {Faculty of Engineering, University of Tokyo

>  <COMMENT>  (5908) 
SMILES=CC(C)C(=O)Cc(c1)cccc1
InChI=InChI=1S/C11H14O/c1-9(2)11(12)8-10-6-4-3-5-7-10/h3-7,9H,8H2,1-2H3
computed SMILES=O=C(CC=1C=CC=CC1)C(C)C
accession=JP002334
date=2016.01.19 (Created 2008.10.21, modified 2011.05.06)
author=MASS SPECTROSCOPY SOC. OF JAPAN (MSSJ)
license=CC BY-NC-SA
exact mass=162.10447
ionization energy=70 eV
ion type=[M]+*
computed spectral entropy=1.9505161424349544
computed normalized entropy=0.6884466171694879
SPLASH=splash10-006x-9000000000-a92fd915daa1a1411e0a
submitter=submitter = University of Tokyo Team (Faculty of Engineering, University of Tokyo)
MoNA Rating=3.75

>  <NUM PEAKS>  (5908) 
17

>  <MASS SPECTRAL PEAKS>  (5908) 
42 9.5
43 99.99
51 2.68
63 3.17
64 1.08
65 14.26
70 16.86
71 84.65
72 4.1
77 1.27
89 3.33
90 2.17
91 62.54
92 11.2
105 1.51
162 11.75
163 1.37

$$$$

     RDKit          2D

 12 12  0  0  0  0  0  0  0  0999 V2000
    2.5987    3.0002    0.0000 C   0  0  0  0  0  0  0  0  0  0  0  0
    3.8981    0.7504    0.0000 C   0  0  0  0  0  0  0  0  0  0  0  0
   -2.5989   -1.5002    0.0000 C   0  0  0  0  0  0  0  0  0  0  0  0
   -0.0000   -3.0000    0.0000 C   0  0  0  0  0  0  0  0  0  0  0  0
   -1.3000    0.7500    0.0000 C   0  0  0  0  0  0  0  0  0  0  0  0
    0.0000    1.5000    0.0000 C   0  0  0  0  0  0  0  0  0  0  0  0
    2.5989    1.5002    0.0000 C   0  0  0  0  0  0  0  0  0  0  0  0
   -1.3000   -0.7500    0.0000 C   0  0  0  0  0  0  0  0  0  0  0  0
   -0.0000   -1.5000    0.0000 C   0  0  0  0  0  0  0  0  0  0  0  0
    1.3000    0.7500    0.0000 C   0  0  0  0  0  0  0  0  0  0  0  0
    1.3000   -0.7500    0.0000 C   0  0  0  0  0  0  0  0  0  0  0  0
    2.5989   -1.5002    0.0000 O   0  0  0  0  0  0  0  0  0  0  0  0
  6  5  1  0
  7  1  1  0
  7  2  1  0
  8  3  1  0
  8  5  1  0
  9  4  2  0
  9  8  1  0
 10  6  1  0
 10  7  1  0
 11  9  1  0
 11 10  1  0
 12 11  2  0
M  END
>  <NAME>  (5909) 
6-ISOPROPYL-3-METHYL-2-METHYLENECYCLOHEXANONE

>  <SYNONYMS>  (5909) 


>  <SPECTRUM TYPE>  (5909) 
MS1

>  <INSTRUMENT TYPE>  (5909) 
EI-B

>  <INSTRUMENT>  (5909) 
JEOL JMS-D-3000

>  <ION MODE>  (5909) 
P

>  <INCHIKEY>  (5909) 
IRMRWAWQVBGNMC-UHFFFAOYSA-N

>  <FORMULA>  (5909) 
C11H18O

>  <EXACT MASS>  (5909) 
166.135765196

>  <MW>  (5909) 
166

>  <ID>  (5909) 
JP002333

>  <CONTRIBUTOR>  (5909) 
University of Tokyo Team, {Faculty of Engineering, University of Tokyo

>  <COMMENT>  (5909) 
SMILES=CC(C)C(C1)C(=O)C(=C)C(C)C1
InChI=InChI=1S/C11H18O/c1-7(2)10-6-5-8(3)9(4)11(10)12/h7-8,10H,4-6H2,1-3H3
computed SMILES=O=C1C(=C)C(C)CCC1C(C)C
accession=JP002333
date=2016.01.19 (Created 2008.10.21, modified 2011.05.06)
author=MASS SPECTROSCOPY SOC. OF JAPAN (MSSJ)
license=CC BY-NC-SA
exact mass=166.13577
ionization energy=70 eV
ion type=[M]+*
computed spectral entropy=2.993478498021896
computed normalized entropy=0.9187813998414305
SPLASH=splash10-05fr-9700000000-719c10d927fc370923c9
submitter=submitter = University of Tokyo Team (Faculty of Engineering, University of Tokyo)
MoNA Rating=3.75

>  <NUM PEAKS>  (5909) 
26

>  <MASS SPECTRAL PEAKS>  (5909) 
42 37.05
53 16.68
54 9.64
55 32.72
67 28.34
68 16.24
69 16.78
77 7.77
79 9.99
81 26.27
82 12.25
83 9.64
91 10.18
93 6.93
95 41.73
96 13.13
109 29.37
110 10.23
123 24.16
124 99.99
125 9.39
151 25.68
161 29.23
162 7.08
163 11.26
166 15.15

$$$$

     RDKit          2D

 13 13  0  0  0  0  0  0  0  0999 V2000
    2.8183   -1.1087    0.0000 C   0  0  0  0  0  0  0  0  0  0  0  0
    4.8672   -0.5594    0.0000 C   0  0  0  0  0  0  0  0  0  0  0  0
    4.3179    1.4896    0.0000 C   0  0  0  0  0  0  0  0  0  0  0  0
   -1.6200   -1.3100    0.0000 C   0  0  0  0  0  0  0  0  0  0  0  0
   -0.3300   -2.0600    0.0000 C   0  0  0  0  0  0  0  0  0  0  0  0
   -1.6200    0.1900    0.0000 C   0  0  0  0  0  0  0  0  0  0  0  0
    0.9700   -1.3100    0.0000 C   0  0  0  0  0  0  0  0  0  0  0  0
   -0.3325    2.4400    0.0000 C   0  0  0  0  0  0  0  0  0  0  0  0
    2.2689    0.9402    0.0000 C   0  0  0  0  0  0  0  0  0  0  0  0
   -0.3300    0.9400    0.0000 C   0  0  0  0  0  0  0  0  0  0  0  0
    0.9700    0.1900    0.0000 C   0  0  0  0  0  0  0  0  0  0  0  0
   -1.6328    3.1878    0.0000 O   0  0  0  0  0  0  0  0  0  0  0  0
    3.5681    0.1904    0.0000 Si  0  0  0  0  0  4  0  0  0  0  0  0
  5  4  2  0
  6  4  1  0
  7  5  1  0
 10  6  2  0
 10  8  1  0
 11  7  2  0
 11  9  1  0
 11 10  1  0
 12  8  2  0
 13  1  1  0
 13  2  1  0
 13  3  1  0
 13  9  1  0
M  END
>  <NAME>  (5910) 
2-(TRIMETHYLSILYLMETHYL)BENZALDEHYDE

>  <SYNONYMS>  (5910) 


>  <SPECTRUM TYPE>  (5910) 
MS1

>  <INSTRUMENT TYPE>  (5910) 
EI-B

>  <INSTRUMENT>  (5910) 
JEOL JMS-D-3000

>  <ION MODE>  (5910) 
P

>  <INCHIKEY>  (5910) 
JLRRMHMDTHMAND-UHFFFAOYSA-N

>  <FORMULA>  (5910) 
C11H16OSi

>  <EXACT MASS>  (5910) 
192.09704166199998

>  <MW>  (5910) 
192

>  <ID>  (5910) 
JP002332

>  <CONTRIBUTOR>  (5910) 
University of Tokyo Team, {Faculty of Engineering, University of Tokyo

>  <COMMENT>  (5910) 
SMILES=O=Cc(c1)c(ccc1)C[Si](C)(C)C
InChI=InChI=1S/C11H16OSi/c1-13(2,3)9-11-7-5-4-6-10(11)8-12/h4-8H,9H2,1-3H3
computed SMILES=O=CC=1C=CC=CC1C[Si](C)(C)C
accession=JP002332
date=2016.01.19 (Created 2008.10.21, modified 2011.05.06)
author=MASS SPECTROSCOPY SOC. OF JAPAN (MSSJ)
license=CC BY-NC-SA
exact mass=192.09704
ionization energy=70 eV
ion type=[M]+*
computed spectral entropy=2.493958912222255
computed normalized entropy=0.7484411309710176
SPLASH=splash10-00fr-9600000000-3e950f74b94c8d4d370f
submitter=submitter = University of Tokyo Team (Faculty of Engineering, University of Tokyo)
MoNA Rating=3.75

>  <NUM PEAKS>  (5910) 
28

>  <MASS SPECTRAL PEAKS>  (5910) 
42 5.32
43 8.91
44 10.6
58 3.29
60 5.78
65 2.44
73 99.99
74 8.81
75 10.21
77 3.26
81 4.87
91 2.91
103 2.4
115 2.62
117 2.27
118 6.23
119 5.61
131 2.94
133 4.24
149 3.1
159 5.03
161 2.8
177 45.56
178 7.49
179 2.34
191 2.28
192 15.22
193 2.65

$$$$

     RDKit          2D

 14 14  0  0  0  0  0  0  0  0999 V2000
   -5.5207    3.1321    0.0000 C   0  0  0  0  0  0  0  0  0  0  0  0
   -4.2216    5.3821    0.0000 C   0  0  0  0  0  0  0  0  0  0  0  0
    3.5726    0.8821    0.0000 C   0  0  0  0  0  0  0  0  0  0  0  0
    3.5731    2.3829    0.0000 C   0  0  0  0  0  0  0  0  0  0  0  0
    2.2731    0.1313    0.0000 C   0  0  0  0  0  0  0  0  0  0  0  0
    2.2740    3.1329    0.0000 C   0  0  0  0  0  0  0  0  0  0  0  0
    0.9740    0.8813    0.0000 C   0  0  0  0  0  0  0  0  0  0  0  0
   -1.6236    2.3821    0.0000 C   0  0  0  0  0  0  0  0  0  0  0  0
    0.9745    2.3821    0.0000 C   0  0  0  0  0  0  0  0  0  0  0  0
   -0.3245    3.1321    0.0000 C   0  0  0  0  0  0  0  0  0  0  0  0
   -2.9226    3.1321    0.0000 C   0  0  0  0  0  0  0  0  0  0  0  0
   -0.3245    4.6321    0.0000 O   0  0  0  0  0  0  0  0  0  0  0  0
   -4.2216    2.3821    0.0000 O   0  0  0  0  0  0  0  0  0  0  0  0
   -2.9226    4.6321    0.0000 O   0  0  0  0  0  0  0  0  0  0  0  0
  4  3  2  0
  5  3  1  0
  6  4  1  0
  7  5  2  0
  9  6  2  0
  9  7  1  0
 10  8  1  0
 10  9  1  0
 11  8  1  0
 12 10  2  0
 13  1  1  0
 13 11  1  0
 14  2  1  0
 14 11  1  0
M  END
>  <NAME>  (5911) 
3,3-DIMETHOXYPROPIOPHENONE

>  <SYNONYMS>  (5911) 


>  <SPECTRUM TYPE>  (5911) 
MS1

>  <INSTRUMENT TYPE>  (5911) 
EI-B

>  <INSTRUMENT>  (5911) 
JEOL JMS-D-3000

>  <ION MODE>  (5911) 
P

>  <INCHIKEY>  (5911) 
PQNPAOSXSXMRKJ-UHFFFAOYSA-N

>  <FORMULA>  (5911) 
C11H14O3

>  <EXACT MASS>  (5911) 
194.094294308

>  <MW>  (5911) 
194

>  <ID>  (5911) 
JP002331

>  <CONTRIBUTOR>  (5911) 
University of Tokyo Team, {Faculty of Engineering, University of Tokyo

>  <COMMENT>  (5911) 
SMILES=COC(OC)CC(=O)c(c1)cccc1
InChI=InChI=1S/C11H14O3/c1-13-11(14-2)8-10(12)9-6-4-3-5-7-9/h3-7,11H,8H2,1-2H3
computed SMILES=O=C(C=1C=CC=CC1)CC(OC)OC
accession=JP002331
date=2016.01.19 (Created 2008.10.21, modified 2011.05.06)
author=MASS SPECTROSCOPY SOC. OF JAPAN (MSSJ)
license=CC BY-NC-SA
exact mass=194.09429
ionization energy=70 eV
ion type=[M]+*
computed spectral entropy=2.2068781848315195
computed normalized entropy=0.7038374281221722
SPLASH=splash10-056r-9800000000-bfaa2510dfe58293dfda
submitter=submitter = University of Tokyo Team (Faculty of Engineering, University of Tokyo)
MoNA Rating=3.75

>  <NUM PEAKS>  (5911) 
23

>  <MASS SPECTRAL PEAKS>  (5911) 
43 2.13
47 7.3
50 3.01
51 10.1
58 7.61
59 1.24
74 1.33
75 63.92
76 4.04
77 32.02
78 3.28
85 10.8
91 1.85
105 99.99
106 8.31
133 1.58
147 3.47
162 3.47
163 3.59
164 1
179 16.68
180 1.73
194 5.14

$$$$

     RDKit          2D

 13 13  0  0  0  0  0  0  0  0999 V2000
   -7.4918    0.8285    0.0000 C   0  0  0  0  0  0  0  0  0  0  0  0
   -3.5891   -1.4118    0.0000 C   0  0  0  0  0  0  0  0  0  0  0  0
   -6.1947    1.5817    0.0000 C   0  0  0  0  0  0  0  0  0  0  0  0
   -4.8938    0.8350    0.0000 C   0  0  0  0  0  0  0  0  0  0  0  0
    0.6208    3.3931    0.0000 C   0  0  0  0  0  0  0  0  0  0  0  0
   -0.8503    3.0894    0.0000 C   0  0  0  0  0  0  0  0  0  0  0  0
    1.3682    2.1011    0.0000 C   0  0  0  0  0  0  0  0  0  0  0  0
   -3.5966    1.5882    0.0000 C   0  0  0  0  0  0  0  0  0  0  0  0
   -0.9985    1.5947    0.0000 C   0  0  0  0  0  0  0  0  0  0  0  0
    0.3645    0.9863    0.0000 C   0  0  0  0  0  0  0  0  0  0  0  0
   -2.2957    0.8414    0.0000 C   0  0  0  0  0  0  0  0  0  0  0  0
    0.6758   -0.4810    0.0000 O   0  0  0  0  0  0  0  0  0  0  0  0
   -2.2920   -0.6586    0.0000 O   0  0  0  0  0  0  0  0  0  0  0  0
  3  1  1  0
  4  3  1  0
  6  5  1  0
  7  5  1  0
  8  4  1  0
  9  6  1  0
 10  7  1  0
 10  9  1  0
 11  8  1  0
 11  9  1  0
 12 10  2  0
 13  2  1  0
 13 11  1  0
M  END
>  <NAME>  (5912) 
2-(1-METHOXYPENTYL)CYCLOPENTANONE

>  <SYNONYMS>  (5912) 


>  <SPECTRUM TYPE>  (5912) 
MS1

>  <INSTRUMENT TYPE>  (5912) 
EI-B

>  <INSTRUMENT>  (5912) 
JEOL JMS-D-3000

>  <ION MODE>  (5912) 
P

>  <INCHIKEY>  (5912) 
NABMSHMIHYWUPQ-UHFFFAOYSA-N

>  <FORMULA>  (5912) 
C11H20O2

>  <EXACT MASS>  (5912) 
184.14632988

>  <MW>  (5912) 
184

>  <ID>  (5912) 
JP002330

>  <CONTRIBUTOR>  (5912) 
University of Tokyo Team, {Faculty of Engineering, University of Tokyo

>  <COMMENT>  (5912) 
SMILES=CCCCC(OC)C(C1)C(=O)CC1
InChI=InChI=1S/C11H20O2/c1-3-4-8-11(13-2)9-6-5-7-10(9)12/h9,11H,3-8H2,1-2H3
computed SMILES=O=C1CCCC1C(OC)CCCC
accession=JP002330
date=2016.01.19 (Created 2008.10.21, modified 2011.05.06)
author=MASS SPECTROSCOPY SOC. OF JAPAN (MSSJ)
license=CC BY-NC-SA
exact mass=184.14633
ionization energy=70 eV
ion type=[M]+*
computed spectral entropy=3.2746206158101776
computed normalized entropy=0.860234030363894
SPLASH=splash10-0gba-9400000000-275658d3ed7d817a539a
submitter=submitter = University of Tokyo Team (Faculty of Engineering, University of Tokyo)
MoNA Rating=3.75

>  <NUM PEAKS>  (5912) 
45

>  <MASS SPECTRAL PEAKS>  (5912) 
41 55.8
42 4.15
43 12.63
44 4.23
45 45.88
53 12.81
54 23.86
55 26.3
56 4.19
57 3.8
59 9.06
65 4.85
66 3.21
67 95.97
68 17.88
69 82.07
70 5.17
71 17.52
74 9.18
77 4.74
79 11.29
80 3.51
81 24.27
82 8.67
83 7.61
84 30.5
85 6.4
93 3.38
95 53.89
96 15.32
97 36.71
98 4.88
100 9.67
101 99.99
102 7.41
109 5.93
110 11.7
111 3.74
123 53.82
124 7.33
127 52.47
128 4.52
152 50.97
153 6.35
184 3.11

$$$$

     RDKit          2D

 14 13  0  0  0  0  0  0  0  0999 V2000
    4.6740    1.6005    0.0000 C   0  0  0  0  0  0  0  0  0  0  0  0
    2.0760    0.1005    0.0000 C   0  0  0  0  0  0  0  0  0  0  0  0
    4.1250   -0.4486    0.0000 C   0  0  0  0  0  0  0  0  0  0  0  0
    1.6740    4.1986    0.0000 C   0  0  0  0  0  0  0  0  0  0  0  0
   -0.3750    4.7476    0.0000 C   0  0  0  0  0  0  0  0  0  0  0  0
   -0.9240    2.6986    0.0000 C   0  0  0  0  0  0  0  0  0  0  0  0
    4.0345    2.6625    0.0000 C   0  0  0  0  0  0  0  0  0  0  0  0
    2.3645    3.6267    0.0000 C   0  0  0  0  0  0  0  0  0  0  0  0
   -0.2845    1.6365    0.0000 C   0  0  0  0  0  0  0  0  0  0  0  0
    1.3855    0.6723    0.0000 C   0  0  0  0  0  0  0  0  0  0  0  0
    3.3750    0.8505    0.0000 Si  0  0  0  0  0  4  0  0  0  0  0  0
    0.3750    3.4486    0.0000 Si  0  0  0  0  0  4  0  0  0  0  0  0
    2.6250    2.1495    0.0000 Si  0  0  0  0  0  4  0  0  0  0  0  0
    1.1250    2.1495    0.0000 Si  0  0  0  0  0  4  0  0  0  0  0  0
 11  1  1  0
 11  2  1  0
 11  3  1  0
 12  4  1  0
 12  5  1  0
 12  6  1  0
 13  7  1  0
 13  8  1  0
 13 11  1  0
 14  9  1  0
 14 10  1  0
 14 12  1  0
 14 13  1  0
M  END
>  <NAME>  (5913) 
DECAMETHYLTETRASILANE

>  <SYNONYMS>  (5913) 


>  <SPECTRUM TYPE>  (5913) 
MS1

>  <INSTRUMENT TYPE>  (5913) 
EI-B

>  <INSTRUMENT>  (5913) 
JEOL JMS-D-3000

>  <ION MODE>  (5913) 
P

>  <INCHIKEY>  (5913) 
WYNNMDYMPQMXFH-UHFFFAOYSA-N

>  <FORMULA>  (5913) 
C10H30Si4

>  <EXACT MASS>  (5913) 
262.14245708

>  <MW>  (5913) 
262

>  <ID>  (5913) 
JP002328

>  <CONTRIBUTOR>  (5913) 
University of Tokyo Team, {Faculty of Engineering, University of Tokyo

>  <COMMENT>  (5913) 
SMILES=C[Si](C)(C)[Si](C)(C)[Si](C)(C)[Si](C)(C)C
InChI=InChI=1S/C10H30Si4/c1-11(2,3)13(7,8)14(9,10)12(4,5)6/h1-10H3
computed SMILES=C[Si](C)(C)[Si](C)(C)[Si](C)(C)[Si](C)(C)C
accession=JP002328
date=2016.01.19 (Created 2008.10.21, modified 2011.05.06)
author=MASS SPECTROSCOPY SOC. OF JAPAN (MSSJ)
license=CC BY-NC-SA
exact mass=262.14246
ionization energy=70 eV
ion type=[M]+*
computed spectral entropy=2.8932019044335977
computed normalized entropy=0.8506421650306276
SPLASH=splash10-00di-3910000000-b4800d4b1e0176400795
submitter=submitter = University of Tokyo Team (Faculty of Engineering, University of Tokyo)
MoNA Rating=3.75

>  <NUM PEAKS>  (5913) 
30

>  <MASS SPECTRAL PEAKS>  (5913) 
59 8.96
73 99.99
74 8.45
75 5.5
99 5.48
101 5.23
113 3.78
114 3.04
115 16.95
116 26.13
117 6.51
129 15.98
131 56.7
132 8.38
133 4.59
145 5.32
159 15
160 2.99
173 27.97
174 40.8
175 11.14
176 4.68
187 5.84
189 46.26
190 10.58
191 5.91
247 9.25
262 26.11
263 8.26
264 4.45

$$$$

     RDKit          2D

 14 13  0  0  0  0  0  0  0  0999 V2000
    9.4216    4.3726    0.0000 C   0  0  0  0  0  0  0  0  0  0  0  0
    7.9216    1.7745    0.0000 C   0  0  0  0  0  0  0  0  0  0  0  0
    9.9707    2.3236    0.0000 C   0  0  0  0  0  0  0  0  0  0  0  0
    0.3284    5.1226    0.0000 C   0  0  0  0  0  0  0  0  0  0  0  0
   -1.7207    4.5736    0.0000 C   0  0  0  0  0  0  0  0  0  0  0  0
   -1.1716    2.5245    0.0000 C   0  0  0  0  0  0  0  0  0  0  0  0
    4.7745    3.8236    0.0000 C   0  0  0  0  0  0  0  0  0  0  0  0
    3.4755    3.0736    0.0000 C   0  0  0  0  0  0  0  0  0  0  0  0
    6.0736    3.0736    0.0000 C   0  0  0  0  0  0  0  0  0  0  0  0
    2.1764    3.8236    0.0000 C   0  0  0  0  0  0  0  0  0  0  0  0
    7.3726    3.8236    0.0000 O   0  0  0  0  0  0  0  0  0  0  0  0
    0.8774    3.0736    0.0000 O   0  0  0  0  0  0  0  0  0  0  0  0
    8.6716    3.0736    0.0000 Si  0  0  0  0  0  4  0  0  0  0  0  0
   -0.4216    3.8236    0.0000 Si  0  0  0  0  0  4  0  0  0  0  0  0
  8  7  1  0
  9  7  1  0
 10  8  1  0
 11  9  1  0
 12 10  1  0
 13  1  1  0
 13  2  1  0
 13  3  1  0
 13 11  1  0
 14  4  1  0
 14  5  1  0
 14  6  1  0
 14 12  1  0
M  END
>  <NAME>  (5914) 
1,4-BIS(TRIMETHYLSILOXY)BUTANE

>  <SYNONYMS>  (5914) 


>  <SPECTRUM TYPE>  (5914) 
MS1

>  <INSTRUMENT TYPE>  (5914) 
EI-B

>  <INSTRUMENT>  (5914) 
JEOL JMS-D-3000

>  <ION MODE>  (5914) 
P

>  <INCHIKEY>  (5914) 
ITDZOVTUXDYFSE-UHFFFAOYSA-N

>  <FORMULA>  (5914) 
C10H26O2Si2

>  <EXACT MASS>  (5914) 
234.147133132

>  <MW>  (5914) 
234

>  <ID>  (5914) 
JP002327

>  <CONTRIBUTOR>  (5914) 
University of Tokyo Team, {Faculty of Engineering, University of Tokyo

>  <COMMENT>  (5914) 
SMILES=C[Si](C)(C)OCCCCO[Si](C)(C)C
InChI=InChI=1S/C10H26O2Si2/c1-13(2,3)11-9-7-8-10-12-14(4,5)6/h7-10H2,1-6H3
computed SMILES=O(CCCCO[Si](C)(C)C)[Si](C)(C)C
accession=JP002327
date=2016.01.19 (Created 2008.10.21, modified 2011.05.06)
author=MASS SPECTROSCOPY SOC. OF JAPAN (MSSJ)
license=CC BY-NC-SA
exact mass=234.14713
ionization energy=70 eV
ion type=[M]+*
computed spectral entropy=2.5180591802600776
computed normalized entropy=0.7728620533107957
SPLASH=splash10-0002-4900000000-062d19917f55ffe43140
submitter=submitter = University of Tokyo Team (Faculty of Engineering, University of Tokyo)
MoNA Rating=3.75

>  <NUM PEAKS>  (5914) 
26

>  <MASS SPECTRAL PEAKS>  (5914) 
45 6.09
47 2.89
55 14.17
59 5.66
61 2.49
66 7.33
72 2.06
73 48.7
74 4.31
75 12.81
81 4.09
100 10.53
101 3.85
102 13.18
112 45.96
113 5.29
116 2.15
131 4.03
133 5.14
147 99.99
148 16.14
149 8.41
177 11.21
178 2.18
219 2.89
234 0.14

$$$$

     RDKit          2D

 12 11  0  0  0  0  0  0  0  0999 V2000
    1.8149    3.2978    0.0000 C   0  0  0  0  0  0  0  0  0  0  0  0
   -1.2343    0.7392    0.0000 C   0  0  0  0  0  0  0  0  0  0  0  0
    1.6582    2.4093    0.0000 C   0  0  0  0  0  0  0  0  0  0  0  0
   -5.9793    3.2978    0.0000 C   0  0  0  0  0  0  0  0  0  0  0  0
   -4.6803    5.5478    0.0000 C   0  0  0  0  0  0  0  0  0  0  0  0
    0.5159    4.0478    0.0000 C   0  0  0  0  0  0  0  0  0  0  0  0
   -1.7473    2.1488    0.0000 C   0  0  0  0  0  0  0  0  0  0  0  0
    0.1810    2.1488    0.0000 C   0  0  0  0  0  0  0  0  0  0  0  0
   -3.3812    3.2978    0.0000 C   0  0  0  0  0  0  0  0  0  0  0  0
   -4.6803    4.0478    0.0000 C   0  0  0  0  0  0  0  0  0  0  0  0
   -2.0822    4.0478    0.0000 O   0  0  0  0  0  0  0  0  0  0  0  0
   -0.7831    3.2978    0.0000 Si  0  0  0  0  0  4  0  0  0  0  0  0
  6  1  1  0
  7  2  1  0
  8  3  1  0
 10  4  1  0
 10  5  1  0
 10  9  1  0
 11  9  1  0
 12  6  1  0
 12  7  1  0
 12  8  1  0
 12 11  1  0
M  END
>  <NAME>  (5915) 
2-METHYL-1-TRIETHYLSILOXYPROPANE

>  <SYNONYMS>  (5915) 


>  <SPECTRUM TYPE>  (5915) 
MS1

>  <INSTRUMENT TYPE>  (5915) 
EI-B

>  <INSTRUMENT>  (5915) 
JEOL JMS-D-3000

>  <ION MODE>  (5915) 
P

>  <INCHIKEY>  (5915) 
COCSZBCQKMSION-UHFFFAOYSA-N

>  <FORMULA>  (5915) 
C10H24OSi

>  <EXACT MASS>  (5915) 
188.15964191799998

>  <MW>  (5915) 
188

>  <ID>  (5915) 
JP002326

>  <CONTRIBUTOR>  (5915) 
University of Tokyo Team, {Faculty of Engineering, University of Tokyo

>  <COMMENT>  (5915) 
SMILES=CC(C)CO[Si](CC)(CC)CC
InChI=InChI=1S/C10H24OSi/c1-6-12(7-2,8-3)11-9-10(4)5/h10H,6-9H2,1-5H3
computed SMILES=O(CC(C)C)[Si](CC)(CC)CC
accession=JP002326
date=2016.01.19 (Created 2008.10.21, modified 2011.05.06)
author=MASS SPECTROSCOPY SOC. OF JAPAN (MSSJ)
license=CC BY-NC-SA
exact mass=188.15964
ionization energy=70 eV
ion type=[M]+*
computed spectral entropy=2.4720880561770135
computed normalized entropy=0.7418776514551425
SPLASH=splash10-0pdi-7900000000-a003d2f98ce68a80d9e7
submitter=submitter = University of Tokyo Team (Faculty of Engineering, University of Tokyo)
MoNA Rating=3.75

>  <NUM PEAKS>  (5915) 
28

>  <MASS SPECTRAL PEAKS>  (5915) 
41 6.27
43 2.8
45 9.77
47 16.38
57 4.95
58 7.01
59 18.95
60 1.97
61 3.96
73 2.58
74 2.02
75 78.37
76 5.93
77 2.71
87 16.6
88 3.3
89 1.67
100 1.66
102 72.36
103 7.09
104 2.74
112 8.2
113 8.46
131 4.94
159 99.99
160 14.4
161 4.46
188 0.36

$$$$

     RDKit          2D

 12 11  0  0  0  0  0  0  0  0999 V2000
    6.2476    3.7231    0.0000 C   0  0  0  0  0  0  0  0  0  0  0  0
    4.7476    1.1250    0.0000 C   0  0  0  0  0  0  0  0  0  0  0  0
    6.7966    1.6740    0.0000 C   0  0  0  0  0  0  0  0  0  0  0  0
    5.1627    4.3231    0.0000 C   0  0  0  0  0  0  0  0  0  0  0  0
    3.2344    4.3231    0.0000 C   0  0  0  0  0  0  0  0  0  0  0  0
    1.6005    3.1740    0.0000 C   0  0  0  0  0  0  0  0  0  0  0  0
    2.8995    2.4240    0.0000 C   0  0  0  0  0  0  0  0  0  0  0  0
    0.3014    2.4240    0.0000 C   0  0  0  0  0  0  0  0  0  0  0  0
    5.4976    2.4240    0.0000 C   0  0  0  0  0  0  0  0  0  0  0  0
    4.1986    3.1740    0.0000 C   0  0  0  0  0  0  0  0  0  0  0  0
   -0.9976    3.1740    0.0000 O   0  0  0  0  0  0  0  0  0  0  0  0
   -2.2966    2.4240    0.0000 Si  0  0  0  0  0  4  0  0  0  0  0  0
  7  6  1  0
  8  6  1  0
  9  1  1  0
  9  2  1  0
  9  3  1  0
 10  4  1  0
 10  5  1  0
 10  7  1  0
 10  9  1  0
 11  8  1  0
 12 11  1  0
M  END
>  <NAME>  (5916) 
TERT-BUTYLDIMETHYLSILOXYBUTANE

>  <SYNONYMS>  (5916) 


>  <SPECTRUM TYPE>  (5916) 
MS1

>  <INSTRUMENT TYPE>  (5916) 
EI-B

>  <INSTRUMENT>  (5916) 
JEOL JMS-D-3000

>  <ION MODE>  (5916) 
P

>  <INCHIKEY>  (5916) 
REZBYFYIMOZMSY-UHFFFAOYSA-N

>  <FORMULA>  (5916) 
C10H24OSi

>  <EXACT MASS>  (5916) 
188.15964191799998

>  <MW>  (5916) 
188

>  <ID>  (5916) 
JP002325

>  <CONTRIBUTOR>  (5916) 
University of Tokyo Team, {Faculty of Engineering, University of Tokyo

>  <COMMENT>  (5916) 
SMILES=[SiH3]OCCCC(C)(C)C(C)(C)C
InChI=InChI=1S/C10H24OSi/c1-9(2,3)10(4,5)7-6-8-11-12/h6-8H2,1-5,12H3
computed SMILES=O([SiH3])CCCC(C)(C)C(C)(C)C
accession=JP002325
date=2016.01.19 (Created 2008.10.21, modified 2011.05.06)
author=MASS SPECTROSCOPY SOC. OF JAPAN (MSSJ)
license=CC BY-NC-SA
exact mass=188.15964
ionization energy=70 eV
ion type=[M]+*
computed spectral entropy=1.9566255968557615
computed normalized entropy=0.6156678587919143
SPLASH=splash10-003r-9700000000-dc65b20e77b3b56c5167
submitter=submitter = University of Tokyo Team (Faculty of Engineering, University of Tokyo)
MoNA Rating=3.75

>  <NUM PEAKS>  (5916) 
24

>  <MASS SPECTRAL PEAKS>  (5916) 
42 2.68
43 1.43
45 3.18
47 3.12
55 1.34
57 1.25
58 2.09
59 5.34
61 2.05
73 10.39
74 1.32
75 73.94
76 5.81
77 2.85
87 1.07
88 1.05
89 16.51
90 1.55
115 1.86
131 99.99
132 12.33
133 4.31
173 1.18
188 0.75

$$$$

     RDKit          2D

 12 11  0  0  0  0  0  0  0  0999 V2000
    2.1863    4.2623    0.0000 C   0  0  0  0  0  0  0  0  0  0  0  0
   -0.4118    2.7623    0.0000 C   0  0  0  0  0  0  0  0  0  0  0  0
   -3.0099    2.7623    0.0000 C   0  0  0  0  0  0  0  0  0  0  0  0
   -6.3579    5.5613    0.0000 C   0  0  0  0  0  0  0  0  0  0  0  0
   -6.9070    3.5123    0.0000 C   0  0  0  0  0  0  0  0  0  0  0  0
   -4.8579    2.9632    0.0000 C   0  0  0  0  0  0  0  0  0  0  0  0
    0.8873    5.0123    0.0000 C   0  0  0  0  0  0  0  0  0  0  0  0
   -1.7108    5.0123    0.0000 C   0  0  0  0  0  0  0  0  0  0  0  0
   -0.4118    4.2623    0.0000 C   0  0  0  0  0  0  0  0  0  0  0  0
   -3.0099    4.2623    0.0000 C   0  0  0  0  0  0  0  0  0  0  0  0
   -4.3089    5.0123    0.0000 O   0  0  0  0  0  0  0  0  0  0  0  0
   -5.6079    4.2623    0.0000 Si  0  0  0  0  0  4  0  0  0  0  0  0
  7  1  1  0
  9  2  1  0
  9  7  1  0
  9  8  1  0
 10  3  2  0
 10  8  1  0
 11 10  1  0
 12  4  1  0
 12  5  1  0
 12  6  1  0
 12 11  1  0
M  END
>  <NAME>  (5917) 
4-METHYL-2-TRIMETHYLSILOXYHEXENE

>  <SYNONYMS>  (5917) 


>  <SPECTRUM TYPE>  (5917) 
MS1

>  <INSTRUMENT TYPE>  (5917) 
EI-B

>  <INSTRUMENT>  (5917) 
JEOL JMS-D-3000

>  <ION MODE>  (5917) 
P

>  <INCHIKEY>  (5917) 
URNYBCYAAMHBET-UHFFFAOYSA-N

>  <FORMULA>  (5917) 
C10H22OSi

>  <EXACT MASS>  (5917) 
186.14399185399998

>  <MW>  (5917) 
186

>  <ID>  (5917) 
JP002324

>  <CONTRIBUTOR>  (5917) 
University of Tokyo Team, {Faculty of Engineering, University of Tokyo

>  <COMMENT>  (5917) 
SMILES=CCC(C)CC(=C)O[Si](C)(C)C
InChI=InChI=1S/C10H22OSi/c1-7-9(2)8-10(3)11-12(4,5)6/h9H,3,7-8H2,1-2,4-6H3
computed SMILES=O(C(=C)CC(C)CC)[Si](C)(C)C
accession=JP002324
date=2016.01.19 (Created 2008.10.21, modified 2011.05.06)
author=MASS SPECTROSCOPY SOC. OF JAPAN (MSSJ)
license=CC BY-NC-SA
exact mass=186.14399
ionization energy=70 eV
ion type=[M]+*
computed spectral entropy=2.7340358276490115
computed normalized entropy=0.7629472243913739
SPLASH=splash10-00ur-8900000000-5efe8efa2a6fbbd78f6a
submitter=submitter = University of Tokyo Team (Faculty of Engineering, University of Tokyo)
MoNA Rating=3.75

>  <NUM PEAKS>  (5917) 
36

>  <MASS SPECTRAL PEAKS>  (5917) 
40 3.22
41 9.42
43 17.32
44 6.45
45 14.23
47 5.9
55 4.81
57 5.02
58 8
59 5.51
60 3.98
61 4.2
67 2.18
69 1.82
72 6.4
73 67.83
74 6.63
75 69.95
76 5.16
77 3.2
85 2.5
95 2.18
99 2.71
101 3.67
115 96.81
116 10.81
117 4.84
130 99.99
131 13.02
132 4.3
143 5.23
157 17.92
158 2.64
171 12.52
172 1.83
186 2.15

$$$$

     RDKit          2D

 11 10  0  0  0  0  0  0  0  0999 V2000
   -7.4695    3.9375    0.0000 C   0  0  0  0  0  0  0  0  0  0  0  0
    0.3248    5.4375    0.0000 C   0  0  0  0  0  0  0  0  0  0  0  0
    1.6238    3.1875    0.0000 C   0  0  0  0  0  0  0  0  0  0  0  0
   -0.9743    6.1875    0.0000 C   0  0  0  0  0  0  0  0  0  0  0  0
   -6.1704    3.1875    0.0000 C   0  0  0  0  0  0  0  0  0  0  0  0
   -4.8714    3.9375    0.0000 C   0  0  0  0  0  0  0  0  0  0  0  0
   -3.5724    3.1875    0.0000 C   0  0  0  0  0  0  0  0  0  0  0  0
   -0.9743    3.1875    0.0000 C   0  0  0  0  0  0  0  0  0  0  0  0
    0.3248    3.9375    0.0000 C   0  0  0  0  0  0  0  0  0  0  0  0
   -2.2733    3.9375    0.0000 C   0  0  0  0  0  0  0  0  0  0  0  0
   -2.2733    5.4375    0.0000 O   0  0  0  0  0  0  0  0  0  0  0  0
  5  1  1  0
  6  5  1  0
  7  6  1  0
  9  2  2  0
  9  3  1  0
  9  8  1  0
 10  7  1  0
 10  8  1  0
 11  4  1  0
 11 10  1  0
M  END
>  <NAME>  (5918) 
2-METHYL-4-METHOXYOCT-1-ENE

>  <SYNONYMS>  (5918) 


>  <SPECTRUM TYPE>  (5918) 
MS1

>  <INSTRUMENT TYPE>  (5918) 
EI-B

>  <INSTRUMENT>  (5918) 
JEOL JMS-D-3000

>  <ION MODE>  (5918) 
P

>  <INCHIKEY>  (5918) 
GQKIPQSVWNDERA-UHFFFAOYSA-N

>  <FORMULA>  (5918) 
C10H20O

>  <EXACT MASS>  (5918) 
156.15141526

>  <MW>  (5918) 
156

>  <ID>  (5918) 
JP002323

>  <CONTRIBUTOR>  (5918) 
University of Tokyo Team, {Faculty of Engineering, University of Tokyo

>  <COMMENT>  (5918) 
SMILES=CCCCC(OC)CC(C)=C
InChI=InChI=1S/C10H20O/c1-5-6-7-10(11-4)8-9(2)3/h10H,2,5-8H2,1,3-4H3
computed SMILES=O(C)C(CC(=C)C)CCCC
accession=JP002323
date=2016.01.19 (Created 2008.10.21, modified 2011.05.06)
author=MASS SPECTROSCOPY SOC. OF JAPAN (MSSJ)
license=CC BY-NC-SA
exact mass=156.15142
ionization energy=70 eV
ion type=[M]+*
computed spectral entropy=2.0705346530018773
computed normalized entropy=0.6698499565259317
SPLASH=splash10-0uxs-9400000000-b0fbda23ebac7975818f
submitter=submitter = University of Tokyo Team (Faculty of Engineering, University of Tokyo)
MoNA Rating=3.75

>  <NUM PEAKS>  (5918) 
22

>  <MASS SPECTRAL PEAKS>  (5918) 
42 22.26
43 6
45 52.11
46 1.2
53 2.36
55 5.95
57 1.63
58 2.25
59 6.89
67 7.4
68 2.1
69 94.55
70 5.72
71 5.98
81 2.35
83 1.03
95 1.71
99 12.78
100 1.47
101 99.99
102 7.2
156 0.1

$$$$

     RDKit          2D

 11 10  0  0  0  0  0  0  0  0999 V2000
    0.0000    0.0000    0.0000 C   0  0  0  0  0  0  0  0  0  0  0  0
    1.2990    2.2500    0.0000 C   0  0  0  0  0  0  0  0  0  0  0  0
   -2.5981    1.5000    0.0000 C   0  0  0  0  0  0  0  0  0  0  0  0
   -1.8481    5.7990    0.0000 C   0  0  0  0  0  0  0  0  0  0  0  0
   -3.8971    5.2500    0.0000 C   0  0  0  0  0  0  0  0  0  0  0  0
   -3.3481    3.2010    0.0000 C   0  0  0  0  0  0  0  0  0  0  0  0
    0.0000    1.5000    0.0000 C   0  0  0  0  0  0  0  0  0  0  0  0
   -1.2990    2.2500    0.0000 C   0  0  0  0  0  0  0  0  0  0  0  0
   -1.2990    3.7500    0.0000 C   0  0  0  0  0  0  0  0  0  0  0  0
   -2.5981    4.5000    0.0000 C   0  0  0  0  0  0  0  0  0  0  0  0
    0.0000    4.5000    0.0000 O   0  0  0  0  0  0  0  0  0  0  0  0
  7  1  2  0
  7  2  1  0
  8  3  1  0
  8  7  1  0
  9  8  1  0
 10  4  1  0
 10  5  1  0
 10  6  1  0
 10  9  1  0
 11  9  2  0
M  END
>  <NAME>  (5919) 
2,2,4,5-TETRAMETHYL-5-HEXEN-3-ONE

>  <SYNONYMS>  (5919) 


>  <SPECTRUM TYPE>  (5919) 
MS1

>  <INSTRUMENT TYPE>  (5919) 
EI-B

>  <INSTRUMENT>  (5919) 
JEOL JMS-D-3000

>  <ION MODE>  (5919) 
P

>  <INCHIKEY>  (5919) 
BBWANVSATBDGOP-UHFFFAOYSA-N

>  <FORMULA>  (5919) 
C10H18O

>  <EXACT MASS>  (5919) 
154.135765196

>  <MW>  (5919) 
154

>  <ID>  (5919) 
JP002322

>  <CONTRIBUTOR>  (5919) 
University of Tokyo Team, {Faculty of Engineering, University of Tokyo

>  <COMMENT>  (5919) 
SMILES=CC(=C)C(C)C(=O)C(C)(C)C
InChI=InChI=1S/C10H18O/c1-7(2)8(3)9(11)10(4,5)6/h8H,1H2,2-6H3
computed SMILES=O=C(C(C(=C)C)C)C(C)(C)C
accession=JP002322
date=2016.01.19 (Created 2008.10.21, modified 2011.05.06)
author=MASS SPECTROSCOPY SOC. OF JAPAN (MSSJ)
license=CC BY-NC-SA
exact mass=154.13577
ionization energy=70 eV
ion type=[M]+*
computed spectral entropy=2.112342287597039
computed normalized entropy=0.7174005990761049
SPLASH=splash10-0a4i-9000000000-318e91acb68cc03c76c5
submitter=submitter = University of Tokyo Team (Faculty of Engineering, University of Tokyo)
MoNA Rating=3.75

>  <NUM PEAKS>  (5919) 
19

>  <MASS SPECTRAL PEAKS>  (5919) 
15 1.04
27 5.93
29 15.11
39 9.69
41 36.69
42 4.14
43 2.82
53 2.86
55 5.96
56 2.32
57 99.99
58 6.76
67 1.43
69 12.56
70 9.17
85 25.69
86 1.47
97 1.1
154 3.58

$$$$

     RDKit          2D

 12 12  0  0  0  0  0  0  0  0999 V2000
   -2.5476    4.3306    0.0000 C   0  0  0  0  0  0  0  0  0  0  0  0
   -4.5966    3.7816    0.0000 C   0  0  0  0  0  0  0  0  0  0  0  0
   -4.0476    1.7326    0.0000 C   0  0  0  0  0  0  0  0  0  0  0  0
    3.1976    0.7816    0.0000 C   0  0  0  0  0  0  0  0  0  0  0  0
    3.1981    2.2824    0.0000 C   0  0  0  0  0  0  0  0  0  0  0  0
    1.8981    0.0308    0.0000 C   0  0  0  0  0  0  0  0  0  0  0  0
    1.8990    3.0324    0.0000 C   0  0  0  0  0  0  0  0  0  0  0  0
    0.5990    0.7808    0.0000 C   0  0  0  0  0  0  0  0  0  0  0  0
   -0.6995    3.0316    0.0000 C   0  0  0  0  0  0  0  0  0  0  0  0
    0.5995    2.2816    0.0000 C   0  0  0  0  0  0  0  0  0  0  0  0
   -1.9986    2.2816    0.0000 O   0  0  0  0  0  0  0  0  0  0  0  0
   -3.2976    3.0316    0.0000 Si  0  0  0  0  0  4  0  0  0  0  0  0
  5  4  2  0
  6  4  1  0
  7  5  1  0
  8  6  2  0
 10  7  2  0
 10  8  1  0
 10  9  1  0
 11  9  1  0
 12  1  1  0
 12  2  1  0
 12  3  1  0
 12 11  1  0
M  END
>  <NAME>  (5920) 
BENZYLOXYTRIMETHYLSILANE

>  <SYNONYMS>  (5920) 


>  <SPECTRUM TYPE>  (5920) 
MS1

>  <INSTRUMENT TYPE>  (5920) 
EI-B

>  <INSTRUMENT>  (5920) 
JEOL JMS-D-3000

>  <ION MODE>  (5920) 
P

>  <INCHIKEY>  (5920) 
AOKMFXQCRBQJOP-UHFFFAOYSA-N

>  <FORMULA>  (5920) 
C10H16OSi

>  <EXACT MASS>  (5920) 
180.09704166199998

>  <MW>  (5920) 
180

>  <ID>  (5920) 
JP002321

>  <CONTRIBUTOR>  (5920) 
University of Tokyo Team, {Faculty of Engineering, University of Tokyo

>  <COMMENT>  (5920) 
SMILES=c(c1)ccc(c1)CO[Si](C)(C)C
InChI=InChI=1S/C10H16OSi/c1-12(2,3)11-9-10-7-5-4-6-8-10/h4-8H,9H2,1-3H3
computed SMILES=O(CC=1C=CC=CC1)[Si](C)(C)C
accession=JP002321
date=2016.01.19 (Created 2008.10.21, modified 2011.05.06)
author=MASS SPECTROSCOPY SOC. OF JAPAN (MSSJ)
license=CC BY-NC-SA
exact mass=180.09704
ionization energy=70 eV
ion type=[M]+*
computed spectral entropy=2.246916711836509
computed normalized entropy=0.7269122782171134
SPLASH=splash10-014l-8900000000-6985c84e4f9a06cf8ed9
submitter=submitter = University of Tokyo Team (Faculty of Engineering, University of Tokyo)
MoNA Rating=3.75

>  <NUM PEAKS>  (5920) 
22

>  <MASS SPECTRAL PEAKS>  (5920) 
44 3.59
56 2.37
62 2.64
65 14.93
73 16.97
74 2.98
75 3.53
77 2.78
83 6.38
89 3.46
91 99.99
92 8.35
135 51.93
136 8.07
137 2.51
149 2.57
165 77.18
166 11.81
167 3.86
179 3.25
180 12.08
181 2.57

$$$$

     RDKit          2D

 11 11  0  0  0  0  0  0  0  0999 V2000
    2.6196    0.6986    0.0000 C   0  0  0  0  0  0  0  0  0  0  0  0
   -5.1894    0.6500    0.0000 C   0  0  0  0  0  0  0  0  0  0  0  0
    1.3221   -0.0542    0.0000 C   0  0  0  0  0  0  0  0  0  0  0  0
   -2.6052   -2.2968    0.0000 C   0  0  0  0  0  0  0  0  0  0  0  0
    0.0215    0.6931    0.0000 C   0  0  0  0  0  0  0  0  0  0  0  0
   -3.8828   -1.5744    0.0000 C   0  0  0  0  0  0  0  0  0  0  0  0
   -1.3025   -1.5794    0.0000 C   0  0  0  0  0  0  0  0  0  0  0  0
   -3.8870   -0.0941    0.0000 C   0  0  0  0  0  0  0  0  0  0  0  0
   -1.2760   -0.0596    0.0000 C   0  0  0  0  0  0  0  0  0  0  0  0
   -2.5935    0.6635    0.0000 C   0  0  0  0  0  0  0  0  0  0  0  0
   -2.6145    2.1633    0.0000 O   0  0  0  0  0  0  0  0  0  0  0  0
  3  1  2  0
  5  3  1  0
  6  4  1  0
  7  4  1  0
  8  2  1  0
  8  6  1  0
  9  5  1  0
  9  7  1  0
 10  8  1  0
 10  9  1  0
 11 10  2  0
M  END
>  <NAME>  (5921) 
2-ALLYL-6-METHYLCYCLOHEXANONE

>  <SYNONYMS>  (5921) 


>  <SPECTRUM TYPE>  (5921) 
MS1

>  <INSTRUMENT TYPE>  (5921) 
EI-B

>  <INSTRUMENT>  (5921) 
JEOL JMS-D-3000

>  <ION MODE>  (5921) 
P

>  <INCHIKEY>  (5921) 
AGKHZTYZZUCRAM-UHFFFAOYSA-N

>  <FORMULA>  (5921) 
C10H16O

>  <EXACT MASS>  (5921) 
152.120115132

>  <MW>  (5921) 
152

>  <ID>  (5921) 
JP002320

>  <CONTRIBUTOR>  (5921) 
University of Tokyo Team, {Faculty of Engineering, University of Tokyo

>  <COMMENT>  (5921) 
SMILES=C=CCC(C1)C(=O)C(C)CC1
InChI=InChI=1S/C10H16O/c1-3-5-9-7-4-6-8(2)10(9)11/h3,8-9H,1,4-7H2,2H3
computed SMILES=O=C1C(C)CCCC1CC=C
accession=JP002320
date=2016.01.19 (Created 2008.10.21, modified 2011.05.06)
author=MASS SPECTROSCOPY SOC. OF JAPAN (MSSJ)
license=CC BY-NC-SA
exact mass=152.12012
ionization energy=70 eV
ion type=[M]+*
computed spectral entropy=3.2324868245001555
computed normalized entropy=0.9020426234702167
SPLASH=splash10-0ktg-9200000000-6577ab813a1b07d2d91a
submitter=submitter = University of Tokyo Team (Faculty of Engineering, University of Tokyo)
MoNA Rating=3.75

>  <NUM PEAKS>  (5921) 
36

>  <MASS SPECTRAL PEAKS>  (5921) 
42 95.69
43 12.31
53 24.5
54 65.66
55 63.63
56 16.42
57 7.44
65 6.88
66 10.02
67 99.09
68 67.78
69 27.89
70 15.32
77 6.82
79 41.76
80 15.64
81 46.77
82 28.38
83 17.13
84 10.28
93 13.65
94 99.99
95 75.1
96 50.81
97 12.49
98 8.13
108 15.76
109 56.95
110 12.19
111 12.96
119 5.87
123 15.59
124 9.66
137 24.79
152 66.74
153 8.19

$$$$

     RDKit          2D

 11 11  0  0  0  0  0  0  0  0999 V2000
    5.2185   -1.3785    0.0000 C   0  0  0  0  0  0  0  0  0  0  0  0
    1.8127   -2.1596    0.0000 C   0  0  0  0  0  0  0  0  0  0  0  0
    3.7413   -1.6389    0.0000 C   0  0  0  0  0  0  0  0  0  0  0  0
   -1.3000    0.7500    0.0000 C   0  0  0  0  0  0  0  0  0  0  0  0
    0.0000    1.5000    0.0000 C   0  0  0  0  0  0  0  0  0  0  0  0
   -1.3000   -0.7500    0.0000 C   0  0  0  0  0  0  0  0  0  0  0  0
    2.7772   -0.4897    0.0000 C   0  0  0  0  0  0  0  0  0  0  0  0
    1.3000    0.7500    0.0000 C   0  0  0  0  0  0  0  0  0  0  0  0
    0.0000   -1.5000    0.0000 C   0  0  0  0  0  0  0  0  0  0  0  0
    1.3000   -0.7500    0.0000 C   0  0  0  0  0  0  0  0  0  0  0  0
   -0.0000   -3.0000    0.0000 O   0  0  0  0  0  0  0  0  0  0  0  0
  3  1  2  0
  5  4  1  0
  6  4  1  0
  7  3  1  0
  8  5  1  0
  9  6  1  0
 10  2  1  0
 10  7  1  0
 10  8  1  0
 10  9  1  0
 11  9  2  0
M  END
>  <NAME>  (5922) 
2-ALLYL-2-METHYLCYCLOHEXANONE

>  <SYNONYMS>  (5922) 


>  <SPECTRUM TYPE>  (5922) 
MS1

>  <INSTRUMENT TYPE>  (5922) 
EI-B

>  <INSTRUMENT>  (5922) 
JEOL JMS-D-3000

>  <ION MODE>  (5922) 
P

>  <INCHIKEY>  (5922) 
FGDGJMZVLROUMG-UHFFFAOYSA-N

>  <FORMULA>  (5922) 
C10H16O

>  <EXACT MASS>  (5922) 
152.120115132

>  <MW>  (5922) 
152

>  <ID>  (5922) 
JP002319

>  <CONTRIBUTOR>  (5922) 
University of Tokyo Team, {Faculty of Engineering, University of Tokyo

>  <COMMENT>  (5922) 
SMILES=C=CCC(C)(C1)C(=O)CCC1
InChI=InChI=1S/C10H16O/c1-3-7-10(2)8-5-4-6-9(10)11/h3H,1,4-8H2,2H3
computed SMILES=O=C1CCCCC1(C)CC=C
accession=JP002319
date=2016.01.19 (Created 2008.10.21, modified 2011.05.06)
author=MASS SPECTROSCOPY SOC. OF JAPAN (MSSJ)
license=CC BY-NC-SA
exact mass=152.12012
ionization energy=70 eV
ion type=[M]+*
computed spectral entropy=3.2016105896982157
computed normalized entropy=0.8801470120886529
SPLASH=splash10-0a4l-9200000000-03198d0dbf5d5ec63756
submitter=submitter = University of Tokyo Team (Faculty of Engineering, University of Tokyo)
MoNA Rating=3.75

>  <NUM PEAKS>  (5922) 
38

>  <MASS SPECTRAL PEAKS>  (5922) 
42 60.45
43 9.43
51 4
53 15.88
54 10.25
55 99.99
56 6.15
65 4.85
66 4.06
67 52.58
68 19.29
69 16.08
70 4.26
71 3.56
77 5.95
79 16.68
80 9.21
81 30.37
82 18.43
83 43.75
84 8.82
91 5.22
93 51.76
94 21.24
95 31.34
96 6.2
97 3.55
108 27.66
109 48.73
110 8.47
111 4.8
119 5.8
123 19.06
124 4.25
134 4.84
137 24.78
152 29.19
153 3.41

$$$$

     RDKit          2D

 10 10  0  0  0  0  0  0  0  0999 V2000
    2.5987    3.0002    0.0000 C   0  0  0  0  0  0  0  0  0  0  0  0
    3.8981    0.7504    0.0000 C   0  0  0  0  0  0  0  0  0  0  0  0
   -2.5989   -1.5002    0.0000 C   0  0  0  0  0  0  0  0  0  0  0  0
   -1.3000    0.7500    0.0000 C   0  0  0  0  0  0  0  0  0  0  0  0
   -0.0000   -1.5000    0.0000 C   0  0  0  0  0  0  0  0  0  0  0  0
    0.0000    1.5000    0.0000 C   0  0  0  0  0  0  0  0  0  0  0  0
    1.3000   -0.7500    0.0000 C   0  0  0  0  0  0  0  0  0  0  0  0
    2.5989    1.5002    0.0000 C   0  0  0  0  0  0  0  0  0  0  0  0
   -1.3000   -0.7500    0.0000 C   0  0  0  0  0  0  0  0  0  0  0  0
    1.3000    0.7500    0.0000 C   0  0  0  0  0  0  0  0  0  0  0  0
  6  4  1  0
  7  5  1  0
  8  1  2  0
  8  2  1  0
  9  3  1  0
  9  4  2  0
  9  5  1  0
 10  6  1  0
 10  7  1  0
 10  8  1  0
M  END
>  <NAME>  (5923) 
1-METHYL-4-ISOPROPENYLCYCLOHEXENE

>  <SYNONYMS>  (5923) 


>  <SPECTRUM TYPE>  (5923) 
MS1

>  <INSTRUMENT TYPE>  (5923) 
EI-B

>  <INSTRUMENT>  (5923) 
JEOL JMS-D-3000

>  <ION MODE>  (5923) 
P

>  <INCHIKEY>  (5923) 
XMGQYMWWDOXHJM-UHFFFAOYSA-N

>  <FORMULA>  (5923) 
C10H16

>  <EXACT MASS>  (5923) 
136.125200512

>  <MW>  (5923) 
136

>  <ID>  (5923) 
JP002318

>  <CONTRIBUTOR>  (5923) 
University of Tokyo Team, {Faculty of Engineering, University of Tokyo

>  <COMMENT>  (5923) 
SMILES=CC(=C)C(C1)CC([H])=C(C)C1
InChI=InChI=1S/C10H16/c1-8(2)10-6-4-9(3)5-7-10/h4,10H,1,5-7H2,2-3H3
computed SMILES=C=C(C)C1CC=C(C)CC1
accession=JP002318
date=2016.01.19 (Created 2008.10.21, modified 2011.05.06)
author=MASS SPECTROSCOPY SOC. OF JAPAN (MSSJ)
license=CC BY-NC-SA
exact mass=136.1252
ionization energy=70 eV
ion type=[M]+*
computed spectral entropy=2.797852336916808
computed normalized entropy=0.880366565915118
SPLASH=splash10-00kf-9300000000-d7348db845e3e79845dd
submitter=submitter = University of Tokyo Team (Faculty of Engineering, University of Tokyo)
MoNA Rating=3.75

>  <NUM PEAKS>  (5923) 
24

>  <MASS SPECTRAL PEAKS>  (5923) 
41 22.69
43 5.29
53 11.46
55 6.69
65 3.88
67 31.55
68 66.98
69 14.7
77 11.7
79 29.33
80 15.73
81 13.29
91 14.56
92 23.23
93 99.99
94 28.57
95 10
105 5.79
107 28.22
108 6.88
121 37.18
122 3.96
136 62.63
137 7.06

$$$$

     RDKit          2D

 11 12  0  0  0  0  0  0  0  0999 V2000
    0.4487    2.2416    0.0000 C   0  0  0  0  0  0  0  0  0  0  0  0
   -2.3100   -0.7500    0.0000 C   0  0  0  0  0  0  0  0  0  0  0  0
   -2.3100    0.7500    0.0000 C   0  0  0  0  0  0  0  0  0  0  0  0
   -1.0100   -1.5000    0.0000 C   0  0  0  0  0  0  0  0  0  0  0  0
   -1.0100    1.5000    0.0000 C   0  0  0  0  0  0  0  0  0  0  0  0
    1.7200   -1.2100    0.0000 C   0  0  0  0  0  0  0  0  0  0  0  0
    1.7200    1.2100    0.0000 C   0  0  0  0  0  0  0  0  0  0  0  0
    0.2900   -0.7500    0.0000 C   0  0  0  0  0  0  0  0  0  0  0  0
    2.6000    0.0000    0.0000 C   0  0  0  0  0  0  0  0  0  0  0  0
    0.2900    0.7500    0.0000 C   0  0  0  0  0  0  0  0  0  0  0  0
    4.1000   -0.0000    0.0000 O   0  0  0  0  0  0  0  0  0  0  0  0
  3  2  1  0
  4  2  1  0
  5  3  1  0
  8  4  1  0
  8  6  2  0
  9  6  1  0
  9  7  1  0
 10  1  1  0
 10  5  1  0
 10  7  1  0
 10  8  1  0
 11  9  2  0
M  END
>  <NAME>  (5924) 
Y-METHYLBICYCLO(4.3.0)NON-6-EN-8-ONE

>  <SYNONYMS>  (5924) 


>  <SPECTRUM TYPE>  (5924) 
MS1

>  <INSTRUMENT TYPE>  (5924) 
EI-B

>  <INSTRUMENT>  (5924) 
JEOL JMS-D-3000

>  <ION MODE>  (5924) 
P

>  <INCHIKEY>  (5924) 
HJDKCIOQDUHLEF-UHFFFAOYSA-N

>  <FORMULA>  (5924) 
C10H14O

>  <EXACT MASS>  (5924) 
150.104465068

>  <MW>  (5924) 
150

>  <ID>  (5924) 
JP002317

>  <CONTRIBUTOR>  (5924) 
University of Tokyo Team, {Faculty of Engineering, University of Tokyo

>  <COMMENT>  (5924) 
SMILES=O=C(C=1)CC(C)(C2)C(CCC2)1
InChI=InChI=1S/C10H14O/c1-10-5-3-2-4-8(10)6-9(11)7-10/h6H,2-5,7H2,1H3
computed SMILES=O=C1C=C2CCCCC2(C)C1
accession=JP002317
date=2016.01.19 (Created 2008.10.21, modified 2011.05.06)
author=MASS SPECTROSCOPY SOC. OF JAPAN (MSSJ)
license=CC BY-NC-SA
exact mass=150.10447
ionization energy=70 eV
ion type=[M]+*
computed spectral entropy=2.980090267955072
computed normalized entropy=0.8761885693616259
SPLASH=splash10-0kil-6900000000-d7a8c5c8d8e324b3846e
submitter=submitter = University of Tokyo Team (Faculty of Engineering, University of Tokyo)
MoNA Rating=3.75

>  <NUM PEAKS>  (5924) 
30

>  <MASS SPECTRAL PEAKS>  (5924) 
43 5.59
51 9.68
52 6.04
53 12.71
55 10.86
65 10.19
66 6.08
67 12.51
77 23.27
78 7.07
79 54.27
80 15.54
81 11.57
82 13.13
91 22.72
93 37.28
94 10.57
95 6.09
105 5.29
107 37.35
108 19.03
109 61.11
110 5.06
121 34.29
122 21.01
135 99.99
136 10.25
149 5.09
150 87.26
151 10.31

$$$$

     RDKit          2D

 12 12  0  0  0  0  0  0  0  0999 V2000
   -0.4685   -1.8502    0.0000 C   0  0  0  0  0  0  0  0  0  0  0  0
   -1.7652    0.4011    0.0000 C   0  0  0  0  0  0  0  0  0  0  0  0
    0.8344    1.8985    0.0000 C   0  0  0  0  0  0  0  0  0  0  0  0
    5.0626    2.1944    0.0000 C   0  0  0  0  0  0  0  0  0  0  0  0
    3.5954    1.8825    0.0000 C   0  0  0  0  0  0  0  0  0  0  0  0
    5.8078    0.9010    0.0000 C   0  0  0  0  0  0  0  0  0  0  0  0
   -0.4670   -0.3502    0.0000 C   0  0  0  0  0  0  0  0  0  0  0  0
    0.8328    0.3985    0.0000 C   0  0  0  0  0  0  0  0  0  0  0  0
    3.4309    0.3958    0.0000 C   0  0  0  0  0  0  0  0  0  0  0  0
    2.1311   -0.3529    0.0000 C   0  0  0  0  0  0  0  0  0  0  0  0
    2.1296   -1.8529    0.0000 O   0  0  0  0  0  0  0  0  0  0  0  0
    4.8072   -0.2113    0.0000 O   0  0  0  0  0  0  0  0  0  0  0  0
  5  4  1  0
  6  4  2  0
  7  1  2  0
  7  2  1  0
  8  3  1  0
  8  7  1  0
  9  5  2  0
 10  8  1  0
 10  9  1  0
 11 10  2  0
 12  6  1  0
 12  9  1  0
M  END
>  <NAME>  (5925) 
2,3-DIMETHYL-1-(2-FURYL)-3-BUTEN-1-ONE

>  <SYNONYMS>  (5925) 


>  <SPECTRUM TYPE>  (5925) 
MS1

>  <INSTRUMENT TYPE>  (5925) 
EI-B

>  <INSTRUMENT>  (5925) 
JEOL JMS-D-3000

>  <ION MODE>  (5925) 
P

>  <INCHIKEY>  (5925) 
WGNCXGIIBJVYLT-UHFFFAOYSA-N

>  <FORMULA>  (5925) 
C10H12O2

>  <EXACT MASS>  (5925) 
164.083729624

>  <MW>  (5925) 
164

>  <ID>  (5925) 
JP002316

>  <CONTRIBUTOR>  (5925) 
University of Tokyo Team, {Faculty of Engineering, University of Tokyo

>  <COMMENT>  (5925) 
SMILES=CC(=C)C(C)C(=O)c(c1)occ1
InChI=InChI=1S/C10H12O2/c1-7(2)8(3)10(11)9-5-4-6-12-9/h4-6,8H,1H2,2-3H3
computed SMILES=O=C(C=1OC=CC1)C(C(=C)C)C
accession=JP002316
date=2016.01.19 (Created 2008.10.21, modified 2011.05.06)
author=MASS SPECTROSCOPY SOC. OF JAPAN (MSSJ)
license=CC BY-NC-SA
exact mass=164.08373
ionization energy=70 eV
ion type=[M]+*
computed spectral entropy=2.987274405561821
computed normalized entropy=0.7560339524270879
SPLASH=splash10-000b-9300000000-71a7b55cebffef54773c
submitter=submitter = University of Tokyo Team (Faculty of Engineering, University of Tokyo)
MoNA Rating=3.75

>  <NUM PEAKS>  (5925) 
52

>  <MASS SPECTRAL PEAKS>  (5925) 
26 1.06
27 14.54
29 3.29
36 1.27
37 2.08
38 7.68
39 61.87
41 63.4
42 4.14
43 5.32
44 1.48
50 2.12
51 7.1
52 2.28
53 11.3
54 2.08
55 5.2
56 1.13
57 1.34
63 1.71
65 3.33
66 2.15
67 10.81
68 9.36
69 15.61
70 1.69
77 4.38
78 1.29
79 2.49
80 1.41
81 5.89
82 1.38
91 4.31
92 1.22
93 4.29
94 1.86
95 99.99
96 25.24
97 3.24
107 4.47
108 1.25
110 4.82
121 16.45
122 2.83
123 1.61
124 2.76
135 2.3
136 86.56
137 8.96
149 24.41
150 2.51
164 5.29

$$$$

     RDKit          2D

 12 12  0  0  0  0  0  0  0  0999 V2000
    5.1978   -0.7723    0.0000 C   0  0  0  0  0  0  0  0  0  0  0  0
   -3.9026    1.4945    0.0000 C   0  0  0  0  0  0  0  0  0  0  0  0
    0.0053   -0.7531    0.0000 C   0  0  0  0  0  0  0  0  0  0  0  0
    1.3189    1.4718    0.0000 C   0  0  0  0  0  0  0  0  0  0  0  0
   -1.2792   -0.0282    0.0000 C   0  0  0  0  0  0  0  0  0  0  0  0
   -0.0056    2.2659    0.0000 C   0  0  0  0  0  0  0  0  0  0  0  0
    2.5997   -0.7595    0.0000 C   0  0  0  0  0  0  0  0  0  0  0  0
    3.9024   -0.0159    0.0000 C   0  0  0  0  0  0  0  0  0  0  0  0
    1.3044   -0.0031    0.0000 C   0  0  0  0  0  0  0  0  0  0  0  0
   -1.3047    1.5159    0.0000 C   0  0  0  0  0  0  0  0  0  0  0  0
    3.9098    1.4841    0.0000 O   0  0  0  0  0  0  0  0  0  0  0  0
   -2.6098    2.2552    0.0000 O   0  0  0  0  0  0  0  0  0  0  0  0
  5  3  2  0
  6  4  1  0
  8  1  1  0
  8  7  1  0
  9  3  1  0
  9  4  2  0
  9  7  1  0
 10  5  1  0
 10  6  2  0
 11  8  2  0
 12  2  1  0
 12 10  1  0
M  END
>  <NAME>  (5926) 
PARA-METHOXYPHENYLACETONE

>  <SYNONYMS>  (5926) 


>  <SPECTRUM TYPE>  (5926) 
MS1

>  <INSTRUMENT TYPE>  (5926) 
EI-B

>  <INSTRUMENT>  (5926) 
JEOL JMS-D-3000

>  <ION MODE>  (5926) 
P

>  <INCHIKEY>  (5926) 
WFWKNGZODAOLEO-UHFFFAOYSA-N

>  <FORMULA>  (5926) 
C10H12O2

>  <EXACT MASS>  (5926) 
164.083729624

>  <MW>  (5926) 
164

>  <ID>  (5926) 
JP002315

>  <CONTRIBUTOR>  (5926) 
University of Tokyo Team, {Faculty of Engineering, University of Tokyo

>  <COMMENT>  (5926) 
SMILES=COc(c1)ccc(CC(C)=O)c1
InChI=InChI=1S/C10H12O2/c1-8(11)7-9-3-5-10(12-2)6-4-9/h3-6H,7H2,1-2H3
computed SMILES=O=C(C)CC1=CC=C(OC)C=C1
accession=JP002315
date=2016.01.19 (Created 2008.10.21, modified 2011.05.06)
author=MASS SPECTROSCOPY SOC. OF JAPAN (MSSJ)
license=CC BY-NC-SA
exact mass=164.08373
ionization energy=70 eV
ion type=[M]+*
computed spectral entropy=2.208540665440733
computed normalized entropy=0.6316418959821848
SPLASH=splash10-00di-4900000000-19395666ea4a7facf293
submitter=submitter = University of Tokyo Team (Faculty of Engineering, University of Tokyo)
MoNA Rating=3.75

>  <NUM PEAKS>  (5926) 
33

>  <MASS SPECTRAL PEAKS>  (5926) 
50 1.43
51 3.8
52 2.52
53 1.47
55 2.27
57 4.02
58 1.97
59 2.05
60 2.07
63 1.73
65 2.33
67 1.34
69 1.03
73 2.27
74 1.49
75 1.44
77 8.38
78 6.58
79 1.44
81 1.61
89 1.76
90 1.16
91 6
92 1
105 1.51
106 1.28
107 1.44
121 99.99
122 10.26
135 2.36
145 1.08
164 13.35
165 1.46

$$$$

     RDKit          2D

 11 10  0  0  0  0  0  0  0  0999 V2000
    5.3603    3.9608    0.0000 C   0  0  0  0  0  0  0  0  0  0  0  0
    3.8603    1.3627    0.0000 C   0  0  0  0  0  0  0  0  0  0  0  0
    5.9094    1.9118    0.0000 C   0  0  0  0  0  0  0  0  0  0  0  0
   -1.3358    3.9608    0.0000 C   0  0  0  0  0  0  0  0  0  0  0  0
   -1.8849    1.9118    0.0000 C   0  0  0  0  0  0  0  0  0  0  0  0
    0.1642    1.3627    0.0000 C   0  0  0  0  0  0  0  0  0  0  0  0
    2.0123    2.6618    0.0000 C   0  0  0  0  0  0  0  0  0  0  0  0
    3.3113    3.4118    0.0000 C   0  0  0  0  0  0  0  0  0  0  0  0
    0.7132    3.4118    0.0000 C   0  0  0  0  0  0  0  0  0  0  0  0
    4.6103    2.6618    0.0000 Si  0  0  0  0  0  4  0  0  0  0  0  0
   -0.5858    2.6618    0.0000 Si  0  0  0  0  0  4  0  0  0  0  0  0
  7  8  2  0
  9  7  1  0
 10  1  1  0
 10  2  1  0
 10  3  1  0
 10  8  1  0
 11  4  1  0
 11  5  1  0
 11  6  1  0
 11  9  1  0
M  END
>  <NAME>  (5927) 
1,3-BIS(TRIMETHYLSILYL)PROPENE

>  <SYNONYMS>  (5927) 


>  <SPECTRUM TYPE>  (5927) 
MS1

>  <INSTRUMENT TYPE>  (5927) 
EI-B

>  <INSTRUMENT>  (5927) 
JEOL JMS-D-3000

>  <ION MODE>  (5927) 
P

>  <INCHIKEY>  (5927) 
SVOLIZOGHWXZQV-BQYQJAHWSA-N

>  <FORMULA>  (5927) 
C9H22Si2

>  <EXACT MASS>  (5927) 
186.12600376400002

>  <MW>  (5927) 
186

>  <ID>  (5927) 
JP002314

>  <CONTRIBUTOR>  (5927) 
University of Tokyo Team, {Faculty of Engineering, University of Tokyo

>  <COMMENT>  (5927) 
SMILES=C[Si](C)(C)CC=C[Si](C)(C)C
InChI=InChI=1S/C9H22Si2/c1-10(2,3)8-7-9-11(4,5)6/h7-8H,9H2,1-6H3/b8-7+
computed SMILES=C(=C[Si](C)(C)C)C[Si](C)(C)C
accession=JP002314
date=2016.01.19 (Created 2008.10.21, modified 2011.05.06)
author=MASS SPECTROSCOPY SOC. OF JAPAN (MSSJ)
license=CC BY-NC-SA
exact mass=186.126
ionization energy=70 eV
ion type=[M]+*
computed spectral entropy=1.7832058756329154
computed normalized entropy=0.6756980440030398
SPLASH=splash10-00dj-9000000000-68cfbf19268852848289
submitter=submitter = University of Tokyo Team (Faculty of Engineering, University of Tokyo)
MoNA Rating=3.75

>  <NUM PEAKS>  (5927) 
14

>  <MASS SPECTRAL PEAKS>  (5927) 
41 1.63
44 5.46
45 1.63
46 14.75
59 5.46
73 99.99
74 6.55
75 4.91
83 7.1
97 4.37
98 69.39
99 4.37
171 8.19
186 7.65

$$$$

     RDKit          2D

 10  9  0  0  0  0  0  0  0  0999 V2000
   -4.8714    3.9375    0.0000 C   0  0  0  0  0  0  0  0  0  0  0  0
    2.9228    3.9375    0.0000 C   0  0  0  0  0  0  0  0  0  0  0  0
    0.3248   -0.5625    0.0000 C   0  0  0  0  0  0  0  0  0  0  0  0
   -3.5724    3.1875    0.0000 C   0  0  0  0  0  0  0  0  0  0  0  0
    1.6238    3.1875    0.0000 C   0  0  0  0  0  0  0  0  0  0  0  0
    0.3248    0.9375    0.0000 C   0  0  0  0  0  0  0  0  0  0  0  0
   -2.2733    3.9375    0.0000 C   0  0  0  0  0  0  0  0  0  0  0  0
    0.3248    3.9375    0.0000 C   0  0  0  0  0  0  0  0  0  0  0  0
   -0.9743    1.6875    0.0000 C   0  0  0  0  0  0  0  0  0  0  0  0
   -0.9743    3.1875    0.0000 N   0  0  0  0  0  0  0  0  0  0  0  0
  4  1  1  0
  5  2  1  0
  6  3  1  0
  7  4  1  0
  8  5  1  0
  9  6  1  0
 10  7  1  0
 10  8  1  0
 10  9  1  0
M  END
>  <NAME>  (5928) 
TRIPROPYLAMINE

>  <SYNONYMS>  (5928) 


>  <SPECTRUM TYPE>  (5928) 
MS1

>  <INSTRUMENT TYPE>  (5928) 
EI-B

>  <INSTRUMENT>  (5928) 
JEOL JMS-D-3000

>  <ION MODE>  (5928) 
P

>  <INCHIKEY>  (5928) 
YFTHZRPMJXBUME-UHFFFAOYSA-N

>  <FORMULA>  (5928) 
C9H21N

>  <EXACT MASS>  (5928) 
143.167399672

>  <MW>  (5928) 
143

>  <ID>  (5928) 
JP002313

>  <CONTRIBUTOR>  (5928) 
University of Tokyo Team, {Faculty of Engineering, University of Tokyo

>  <COMMENT>  (5928) 
SMILES=CCCN(CCC)CCC
InChI=InChI=1S/C9H21N/c1-4-7-10(8-5-2)9-6-3/h4-9H2,1-3H3
computed SMILES=N(CCC)(CCC)CCC
accession=JP002313
date=2016.01.19 (Created 2008.10.21, modified 2011.05.06)
author=MASS SPECTROSCOPY SOC. OF JAPAN (MSSJ)
license=CC BY-NC-SA
exact mass=143.1674
ionization energy=70 eV
ion type=[M]+*
computed spectral entropy=2.10452038701526
computed normalized entropy=0.702506163716212
SPLASH=splash10-00du-9000000000-a9eef4712317c253591f
submitter=submitter = University of Tokyo Team (Faculty of Engineering, University of Tokyo)
MoNA Rating=3.75

>  <NUM PEAKS>  (5928) 
20

>  <MASS SPECTRAL PEAKS>  (5928) 
41 1.63
42 1.13
43 50.75
44 5.49
45 19.76
56 4.48
57 48.32
58 3.5
59 4.81
68 3.27
71 99.99
72 6.64
73 1.09
76 4.81
85 87.21
86 8.43
87 2.78
98 6.16
112 3.4
143 1.37

$$$$

     RDKit          2D

 12 11  0  0  0  0  0  0  0  0999 V2000
   -8.2697    4.9755    0.0000 C   0  0  0  0  0  0  0  0  0  0  0  0
    0.0736    2.9264    0.0000 C   0  0  0  0  0  0  0  0  0  0  0  0
    2.1226    3.4755    0.0000 C   0  0  0  0  0  0  0  0  0  0  0  0
    1.5736    5.5245    0.0000 C   0  0  0  0  0  0  0  0  0  0  0  0
   -6.9707    4.2255    0.0000 C   0  0  0  0  0  0  0  0  0  0  0  0
   -5.6716    4.9755    0.0000 C   0  0  0  0  0  0  0  0  0  0  0  0
   -4.3726    4.2255    0.0000 C   0  0  0  0  0  0  0  0  0  0  0  0
   -3.0736    4.9755    0.0000 C   0  0  0  0  0  0  0  0  0  0  0  0
   -1.7745    4.2255    0.0000 C   0  0  0  0  0  0  0  0  0  0  0  0
   -1.7745    2.7255    0.0000 O   0  0  0  0  0  0  0  0  0  0  0  0
   -0.4755    4.9755    0.0000 O   0  0  0  0  0  0  0  0  0  0  0  0
    0.8236    4.2255    0.0000 Si  0  0  0  0  0  4  0  0  0  0  0  0
  5  1  1  0
  6  5  1  0
  7  6  1  0
  8  7  1  0
  9  8  1  0
 10  9  2  0
 11  9  1  0
 12  2  1  0
 12  3  1  0
 12  4  1  0
 12 11  1  0
M  END
>  <NAME>  (5929) 
TRIMETHYLSILYL HEXANOATE

>  <SYNONYMS>  (5929) 


>  <SPECTRUM TYPE>  (5929) 
MS1

>  <INSTRUMENT TYPE>  (5929) 
EI-B

>  <INSTRUMENT>  (5929) 
JEOL JMS-D-3000

>  <ION MODE>  (5929) 
P

>  <INCHIKEY>  (5929) 
CYXNJMDACJPPRR-UHFFFAOYSA-N

>  <FORMULA>  (5929) 
C9H20O2Si

>  <EXACT MASS>  (5929) 
188.12325641

>  <MW>  (5929) 
188

>  <ID>  (5929) 
JP002312

>  <CONTRIBUTOR>  (5929) 
University of Tokyo Team, {Faculty of Engineering, University of Tokyo

>  <COMMENT>  (5929) 
SMILES=CCCCCC(=O)O[Si](C)(C)C
InChI=InChI=1S/C9H20O2Si/c1-5-6-7-8-9(10)11-12(2,3)4/h5-8H2,1-4H3
computed SMILES=O=C(O[Si](C)(C)C)CCCCC
accession=JP002312
date=2016.01.19 (Created 2008.10.21, modified 2011.05.06)
author=MASS SPECTROSCOPY SOC. OF JAPAN (MSSJ)
license=CC BY-NC-SA
exact mass=188.12326
ionization energy=70 eV
ion type=[M]+*
computed spectral entropy=2.136079959166228
computed normalized entropy=0.7539425026525091
SPLASH=splash10-00fr-9300000000-a578dc8e72e90713c600
submitter=submitter = University of Tokyo Team (Faculty of Engineering, University of Tokyo)
MoNA Rating=3.75

>  <NUM PEAKS>  (5929) 
17

>  <MASS SPECTRAL PEAKS>  (5929) 
42 6.85
43 6.29
45 8.61
47 6.18
55 6.75
60 5.27
61 7.02
73 99.99
74 9.85
75 99.01
76 7.18
117 26.33
131 7.6
132 12.22
173 48.07
174 6.71
188 0.89

$$$$

     RDKit          2D

 11 10  0  0  0  0  0  0  0  0999 V2000
    1.5368    3.1373    0.0000 C   0  0  0  0  0  0  0  0  0  0  0  0
    0.2377    0.8873    0.0000 C   0  0  0  0  0  0  0  0  0  0  0  0
   -2.3603    0.8873    0.0000 C   0  0  0  0  0  0  0  0  0  0  0  0
   -4.4094    4.4363    0.0000 C   0  0  0  0  0  0  0  0  0  0  0  0
   -4.9584    2.3873    0.0000 C   0  0  0  0  0  0  0  0  0  0  0  0
   -2.9094    1.8382    0.0000 C   0  0  0  0  0  0  0  0  0  0  0  0
    0.2377    3.8873    0.0000 C   0  0  0  0  0  0  0  0  0  0  0  0
   -1.0613    1.6373    0.0000 C   0  0  0  0  0  0  0  0  0  0  0  0
   -1.0613    3.1373    0.0000 C   0  0  0  0  0  0  0  0  0  0  0  0
   -2.3603    3.8873    0.0000 O   0  0  0  0  0  0  0  0  0  0  0  0
   -3.6594    3.1373    0.0000 Si  0  0  0  0  0  4  0  0  0  0  0  0
  7  1  1  0
  8  2  1  0
  8  3  1  0
  9  7  1  0
  9  8  2  0
 10  9  1  0
 11  4  1  0
 11  5  1  0
 11  6  1  0
 11 10  1  0
M  END
>  <NAME>  (5930) 
2-METHYL-3-TRIMETHYLSILOXY-2-PENTENE

>  <SYNONYMS>  (5930) 


>  <SPECTRUM TYPE>  (5930) 
MS1

>  <INSTRUMENT TYPE>  (5930) 
EI-B

>  <INSTRUMENT>  (5930) 
JEOL JMS-D-3000

>  <ION MODE>  (5930) 
P

>  <INCHIKEY>  (5930) 
DYKBJHFIVZAUPC-UHFFFAOYSA-N

>  <FORMULA>  (5930) 
C9H20OSi

>  <EXACT MASS>  (5930) 
172.12834178999998

>  <MW>  (5930) 
172

>  <ID>  (5930) 
JP002311

>  <CONTRIBUTOR>  (5930) 
University of Tokyo Team, {Faculty of Engineering, University of Tokyo

>  <COMMENT>  (5930) 
InChI=InChI=1S/C9H20OSi/c1-7-9(8(2)3)10-11(4,5)6/h7H2,1-6H3
SMILES=CCC(=C(C)C)O[Si](C)(C)C
computed SMILES=O(C(=C(C)C)CC)[Si](C)(C)C
accession=JP002311
date=2016.01.19 (Created 2008.10.21, modified 2011.05.06)
author=MASS SPECTROSCOPY SOC. OF JAPAN (MSSJ)
license=CC BY-NC-SA
exact mass=172.12834
ionization energy=70 eV
ion type=[M]+*
computed spectral entropy=2.3852656496658526
computed normalized entropy=0.7410244381712113
SPLASH=splash10-00fr-9200000000-dec650c6d497b25e8082
submitter=submitter = University of Tokyo Team (Faculty of Engineering, University of Tokyo)
MoNA Rating=3.75

>  <NUM PEAKS>  (5930) 
25

>  <MASS SPECTRAL PEAKS>  (5930) 
42 7.46
43 5.51
44 2.85
45 15.18
47 5.29
55 3.6
57 7.35
59 5.05
61 3.52
67 5.9
71 3.92
73 99.99
74 8.76
75 80.06
76 5.91
77 3.25
91 2.39
115 2.38
129 3.02
143 6.94
144 4.43
157 23.01
158 3.35
172 20.9
173 3.23

$$$$

     RDKit          2D

 10  9  0  0  0  0  0  0  0  0999 V2000
   -7.4695    3.9375    0.0000 C   0  0  0  0  0  0  0  0  0  0  0  0
    1.6238    3.1875    0.0000 C   0  0  0  0  0  0  0  0  0  0  0  0
   -0.9743    6.1875    0.0000 C   0  0  0  0  0  0  0  0  0  0  0  0
   -6.1704    3.1875    0.0000 C   0  0  0  0  0  0  0  0  0  0  0  0
    0.3248    3.9375    0.0000 C   0  0  0  0  0  0  0  0  0  0  0  0
   -4.8714    3.9375    0.0000 C   0  0  0  0  0  0  0  0  0  0  0  0
   -0.9743    3.1875    0.0000 C   0  0  0  0  0  0  0  0  0  0  0  0
   -3.5724    3.1875    0.0000 C   0  0  0  0  0  0  0  0  0  0  0  0
   -2.2733    3.9375    0.0000 C   0  0  0  0  0  0  0  0  0  0  0  0
   -2.2733    5.4375    0.0000 O   0  0  0  0  0  0  0  0  0  0  0  0
  4  1  1  0
  5  2  2  0
  6  4  1  0
  7  5  1  0
  8  6  1  0
  9  7  1  0
  9  8  1  0
 10  3  1  0
 10  9  1  0
M  END
>  <NAME>  (5931) 
4-METHOXYOCT-1-ENE

>  <SYNONYMS>  (5931) 


>  <SPECTRUM TYPE>  (5931) 
MS1

>  <INSTRUMENT TYPE>  (5931) 
EI-B

>  <INSTRUMENT>  (5931) 
JEOL JMS-D-3000

>  <ION MODE>  (5931) 
P

>  <INCHIKEY>  (5931) 
IASDJCRPRZHAJM-UHFFFAOYSA-N

>  <FORMULA>  (5931) 
C9H18O

>  <EXACT MASS>  (5931) 
142.135765196

>  <MW>  (5931) 
142

>  <ID>  (5931) 
JP002310

>  <CONTRIBUTOR>  (5931) 
University of Tokyo Team, {Faculty of Engineering, University of Tokyo

>  <COMMENT>  (5931) 
SMILES=CCCCC(OC)CC=C
InChI=InChI=1S/C9H18O/c1-4-6-8-9(10-3)7-5-2/h5,9H,2,4,6-8H2,1,3H3
computed SMILES=O(C)C(CC=C)CCCC
accession=JP002310
date=2016.01.19 (Created 2008.10.21, modified 2011.05.06)
author=MASS SPECTROSCOPY SOC. OF JAPAN (MSSJ)
license=CC BY-NC-SA
exact mass=142.13577
ionization energy=70 eV
ion type=[M]+*
computed spectral entropy=2.2339474835719693
computed normalized entropy=0.7124706121997988
SPLASH=splash10-0gba-9200000000-2922f58c754a2dba98e0
submitter=submitter = University of Tokyo Team (Faculty of Engineering, University of Tokyo)
MoNA Rating=3.75

>  <NUM PEAKS>  (5931) 
23

>  <MASS SPECTRAL PEAKS>  (5931) 
42 35.01
43 9.6
44 2.48
45 66.84
46 1.38
53 6.01
54 3.81
55 16.14
56 1.09
57 1.56
58 2.95
59 9.49
67 5.43
68 1.33
69 99.99
70 6.07
71 5.78
81 1.73
85 29.91
86 1.44
101 93.28
102 5.84
119 1.44

$$$$

     RDKit          2D

 11 10  0  0  0  0  0  0  0  0999 V2000
   -7.4695    3.9375    0.0000 C   0  0  0  0  0  0  0  0  0  0  0  0
    1.6238    3.1875    0.0000 C   0  0  0  0  0  0  0  0  0  0  0  0
   -0.9743    6.1875    0.0000 C   0  0  0  0  0  0  0  0  0  0  0  0
   -6.1704    3.1875    0.0000 C   0  0  0  0  0  0  0  0  0  0  0  0
    0.3248    3.9375    0.0000 C   0  0  0  0  0  0  0  0  0  0  0  0
   -4.8714    3.9375    0.0000 C   0  0  0  0  0  0  0  0  0  0  0  0
   -0.9743    3.1875    0.0000 C   0  0  0  0  0  0  0  0  0  0  0  0
   -3.5724    3.1875    0.0000 C   0  0  0  0  0  0  0  0  0  0  0  0
   -2.2733    3.9375    0.0000 C   0  0  0  0  0  0  0  0  0  0  0  0
   -3.5724    1.6875    0.0000 Br  0  0  0  0  0  0  0  0  0  0  0  0
   -2.2733    5.4375    0.0000 O   0  0  0  0  0  0  0  0  0  0  0  0
  4  1  1  0
  5  2  2  0
  6  4  1  0
  7  5  1  0
  8  6  1  0
  9  7  1  0
  9  8  1  0
 10  8  1  0
 11  3  1  0
 11  9  1  0
M  END
>  <NAME>  (5932) 
5-BROMO-4-METHOXYOCT-1-ENE

>  <SYNONYMS>  (5932) 


>  <SPECTRUM TYPE>  (5932) 
MS1

>  <INSTRUMENT TYPE>  (5932) 
EI-B

>  <INSTRUMENT>  (5932) 
JEOL JMS-D-3000

>  <ION MODE>  (5932) 
P

>  <INCHIKEY>  (5932) 
PFJHYEBEIPVXNR-UHFFFAOYSA-N

>  <FORMULA>  (5932) 
C9H17BrO

>  <EXACT MASS>  (5932) 
220.046277264

>  <MW>  (5932) 
220

>  <ID>  (5932) 
JP002309

>  <CONTRIBUTOR>  (5932) 
University of Tokyo Team, {Faculty of Engineering, University of Tokyo

>  <COMMENT>  (5932) 
SMILES=C=CCC(OC)C(Br)CCC
InChI=InChI=1S/C9H17BrO/c1-4-6-8(10)9(11-3)7-5-2/h5,8-9H,2,4,6-7H2,1,3H3
computed SMILES=BrC(CCC)C(OC)CC=C
accession=JP002309
date=2016.01.19 (Created 2008.10.21, modified 2011.05.06)
author=MASS SPECTROSCOPY SOC. OF JAPAN (MSSJ)
license=CC BY-NC-SA
exact mass=220.04628
ionization energy=70 eV
ion type=[M]+*
computed spectral entropy=2.5137873755284152
computed normalized entropy=0.7809519572353631
SPLASH=splash10-0a4i-4390000000-6331ee34323ed2515205
submitter=submitter = University of Tokyo Team (Faculty of Engineering, University of Tokyo)
MoNA Rating=3.75

>  <NUM PEAKS>  (5932) 
25

>  <MASS SPECTRAL PEAKS>  (5932) 
41 14.12
55 7.22
57 27.28
67 6.52
77 3.08
81 9.1
91 5.14
95 5.4
105 6.32
115 3.24
119 3.82
121 3.4
128 2.84
129 3.16
131 2.78
145 11.84
161 5.74
163 2.74
177 5.96
189 4.18
203 2.78
205 99.99
206 15.26
220 26.76
221 4.92

$$$$

     RDKit          2D

 10 10  0  0  0  0  0  0  0  0999 V2000
   -2.5989   -1.5002    0.0000 C   0  0  0  0  0  0  0  0  0  0  0  0
    3.8981    0.7504    0.0000 C   0  0  0  0  0  0  0  0  0  0  0  0
   -1.3000    0.7500    0.0000 C   0  0  0  0  0  0  0  0  0  0  0  0
   -0.0000   -1.5000    0.0000 C   0  0  0  0  0  0  0  0  0  0  0  0
    0.0000    1.5000    0.0000 C   0  0  0  0  0  0  0  0  0  0  0  0
    1.3000   -0.7500    0.0000 C   0  0  0  0  0  0  0  0  0  0  0  0
   -1.3000   -0.7500    0.0000 C   0  0  0  0  0  0  0  0  0  0  0  0
    2.5989    1.5002    0.0000 C   0  0  0  0  0  0  0  0  0  0  0  0
    1.3000    0.7500    0.0000 C   0  0  0  0  0  0  0  0  0  0  0  0
    2.5987    3.0002    0.0000 O   0  0  0  0  0  0  0  0  0  0  0  0
  5  3  1  0
  6  4  1  0
  7  1  1  0
  7  3  2  0
  7  4  1  0
  8  2  1  0
  9  5  1  0
  9  6  1  0
  9  8  1  0
 10  8  2  0
M  END
>  <NAME>  (5933) 
METHYL 4-METHYL-3-CYCLOHEXENYL KETONE

>  <SYNONYMS>  (5933) 
4-ACETYL-1-METHYLCYCLOHEXENE

>  <SPECTRUM TYPE>  (5933) 
MS1

>  <INSTRUMENT TYPE>  (5933) 
EI-B

>  <INSTRUMENT>  (5933) 
JEOL JMS-D-3000

>  <ION MODE>  (5933) 
P

>  <INCHIKEY>  (5933) 
HOBBEYSRFFJETF-UHFFFAOYSA-N

>  <FORMULA>  (5933) 
C9H14O

>  <EXACT MASS>  (5933) 
138.104465068

>  <MW>  (5933) 
138

>  <ID>  (5933) 
JP002308

>  <CONTRIBUTOR>  (5933) 
University of Tokyo Team, {Faculty of Engineering, University of Tokyo

>  <COMMENT>  (5933) 
SMILES=CC(C1)=CCC(C1)C(C)=O
InChI=InChI=1S/C9H14O/c1-7-3-5-9(6-4-7)8(2)10/h3,9H,4-6H2,1-2H3
computed SMILES=O=C(C)C1CC=C(C)CC1
accession=JP002308
date=2016.01.19 (Created 2008.10.21, modified 2011.05.06)
author=MASS SPECTROSCOPY SOC. OF JAPAN (MSSJ)
license=CC BY-NC-SA
exact mass=138.10447
ionization energy=70 eV
ion type=[M]+*
computed spectral entropy=2.798486464254192
computed normalized entropy=0.8490973849828027
SPLASH=splash10-000g-9200000000-c7a992e3f2edf78ecf36
submitter=submitter = University of Tokyo Team (Faculty of Engineering, University of Tokyo)
MoNA Rating=3.75

>  <NUM PEAKS>  (5933) 
27

>  <MASS SPECTRAL PEAKS>  (5933) 
41 21.41
43 92.15
45 5.76
51 5.08
53 13.83
55 29.09
65 5.56
67 43.87
68 13.99
71 4.21
77 14.87
78 3.04
79 24.69
80 16.08
81 11.62
91 9.25
92 3.06
93 20.07
94 16.4
95 99.99
96 8.48
105 13.39
109 4.99
123 44.35
124 4.01
138 75.66
139 7.99

$$$$

     RDKit          2D

 12 12  0  0  0  0  0  0  0  0999 V2000
   -0.7506    0.5496    0.0000 C   0  0  0  0  0  0  0  0  0  0  0  0
   -1.3000   -1.4994    0.0000 C   0  0  0  0  0  0  0  0  0  0  0  0
    0.7490   -2.0487    0.0000 C   0  0  0  0  0  0  0  0  0  0  0  0
    5.1972   -2.2500    0.0000 C   0  0  0  0  0  0  0  0  0  0  0  0
    3.8972   -3.0000    0.0000 C   0  0  0  0  0  0  0  0  0  0  0  0
    5.1972   -0.7500    0.0000 C   0  0  0  0  0  0  0  0  0  0  0  0
    2.5972   -2.2500    0.0000 C   0  0  0  0  0  0  0  0  0  0  0  0
    3.8972   -0.0000    0.0000 C   0  0  0  0  0  0  0  0  0  0  0  0
    2.5972   -0.7500    0.0000 C   0  0  0  0  0  0  0  0  0  0  0  0
    3.8972    1.5000    0.0000 Cl  0  0  0  0  0  0  0  0  0  0  0  0
    1.2983    0.0002    0.0000 O   0  0  0  0  0  0  0  0  0  0  0  0
   -0.0008   -0.7496    0.0000 Si  0  0  0  0  0  4  0  0  0  0  0  0
  5  4  2  0
  6  4  1  0
  7  5  1  0
  8  6  2  0
  9  7  2  0
  9  8  1  0
 10  8  1  0
 11  9  1  0
 12  1  1  0
 12  2  1  0
 12  3  1  0
 12 11  1  0
M  END
>  <NAME>  (5934) 
1-CHLORO-2-TRIMETHYLSILOXYBENZENE

>  <SYNONYMS>  (5934) 


>  <SPECTRUM TYPE>  (5934) 
MS1

>  <INSTRUMENT TYPE>  (5934) 
EI-B

>  <INSTRUMENT>  (5934) 
JEOL JMS-D-3000

>  <ION MODE>  (5934) 
P

>  <INCHIKEY>  (5934) 
NZLHRQHCIXYIMM-UHFFFAOYSA-N

>  <FORMULA>  (5934) 
C9H13ClOSi

>  <EXACT MASS>  (5934) 
200.04241924599998

>  <MW>  (5934) 
200

>  <ID>  (5934) 
JP002307

>  <CONTRIBUTOR>  (5934) 
University of Tokyo Team, {Faculty of Engineering, University of Tokyo

>  <COMMENT>  (5934) 
SMILES=Clc(c1)c(ccc1)O[Si](C)(C)C
InChI=InChI=1S/C9H13ClOSi/c1-12(2,3)11-9-7-5-4-6-8(9)10/h4-7H,1-3H3
computed SMILES=ClC=1C=CC=CC1O[Si](C)(C)C
accession=JP002307
date=2016.01.19 (Created 2008.10.21, modified 2011.05.06)
author=MASS SPECTROSCOPY SOC. OF JAPAN (MSSJ)
license=CC BY-NC-SA
exact mass=200.04242
ionization energy=70 eV
ion type=[M]+*
computed spectral entropy=2.358991742744641
computed normalized entropy=0.8326205817481263
SPLASH=splash10-000j-5920000000-6aa19ac60e234c9a7be8
submitter=submitter = University of Tokyo Team (Faculty of Engineering, University of Tokyo)
MoNA Rating=3.75

>  <NUM PEAKS>  (5934) 
17

>  <MASS SPECTRAL PEAKS>  (5934) 
63 5.82
65 6.2
73 9.75
79 4.55
91 13.31
93 60.64
94 5.09
95 22.02
149 55.41
150 8.47
185 99.99
186 15.09
187 37.44
188 5.12
200 38.06
201 4.75
202 13.75

$$$$

     RDKit          2D

 10 10  0  0  0  0  0  0  0  0999 V2000
   -2.5989   -1.5002    0.0000 C   0  0  0  0  0  0  0  0  0  0  0  0
    3.8981    0.7504    0.0000 C   0  0  0  0  0  0  0  0  0  0  0  0
   -1.3000    0.7500    0.0000 C   0  0  0  0  0  0  0  0  0  0  0  0
   -0.0000   -1.5000    0.0000 C   0  0  0  0  0  0  0  0  0  0  0  0
    0.0000    1.5000    0.0000 C   0  0  0  0  0  0  0  0  0  0  0  0
    1.3000   -0.7500    0.0000 C   0  0  0  0  0  0  0  0  0  0  0  0
   -1.3000   -0.7500    0.0000 C   0  0  0  0  0  0  0  0  0  0  0  0
    2.5989    1.5002    0.0000 C   0  0  0  0  0  0  0  0  0  0  0  0
    1.3000    0.7500    0.0000 C   0  0  0  0  0  0  0  0  0  0  0  0
    2.5987    3.0002    0.0000 O   0  0  0  0  0  0  0  0  0  0  0  0
  5  3  1  0
  6  4  1  0
  7  1  2  0
  7  3  1  0
  7  4  1  0
  8  2  1  0
  9  5  1  0
  9  6  1  0
  9  8  1  0
 10  8  2  0
M  END
>  <NAME>  (5935) 
METHYL 4-METHYLENECYCLOHEXYL KETONE

>  <SYNONYMS>  (5935) 
1-ACETYL-4-METHYLENECYCLOHEXANE

>  <SPECTRUM TYPE>  (5935) 
MS1

>  <INSTRUMENT TYPE>  (5935) 
EI-B

>  <INSTRUMENT>  (5935) 
JEOL JMS-D-3000

>  <ION MODE>  (5935) 
P

>  <INCHIKEY>  (5935) 
FUVYWLRLHOAXFT-UHFFFAOYSA-N

>  <FORMULA>  (5935) 
C9H14O

>  <EXACT MASS>  (5935) 
138.104465068

>  <MW>  (5935) 
138

>  <ID>  (5935) 
JP002306

>  <CONTRIBUTOR>  (5935) 
University of Tokyo Team, {Faculty of Engineering, University of Tokyo

>  <COMMENT>  (5935) 
SMILES=C=C(C1)CCC(C1)C(C)=O
InChI=InChI=1S/C9H14O/c1-7-3-5-9(6-4-7)8(2)10/h9H,1,3-6H2,2H3
computed SMILES=O=C(C)C1CCC(=C)CC1
accession=JP002306
date=2016.01.19 (Created 2008.10.21, modified 2011.05.06)
author=MASS SPECTROSCOPY SOC. OF JAPAN (MSSJ)
license=CC BY-NC-SA
exact mass=138.10447
ionization energy=70 eV
ion type=[M]+*
computed spectral entropy=2.4527066925736696
computed normalized entropy=0.8485782792034124
SPLASH=splash10-00dl-9100000000-30aae28114340971539a
submitter=submitter = University of Tokyo Team (Faculty of Engineering, University of Tokyo)
MoNA Rating=3.75

>  <NUM PEAKS>  (5935) 
18

>  <MASS SPECTRAL PEAKS>  (5935) 
41 17.27
43 56.89
53 9.61
55 15.23
67 21.4
68 24.48
71 99.99
72 4.9
77 5.52
79 13.08
80 7.7
93 6.83
94 9.72
95 42.59
96 3.79
123 15.19
138 38.64
139 4.09

$$$$

     RDKit          2D

 10 10  0  0  0  0  0  0  0  0999 V2000
   -3.8969    2.5696    0.0000 C   0  0  0  0  0  0  0  0  0  0  0  0
    2.5983    0.3196    0.0000 C   0  0  0  0  0  0  0  0  0  0  0  0
    2.5988    1.8204    0.0000 C   0  0  0  0  0  0  0  0  0  0  0  0
    1.2988   -0.4312    0.0000 C   0  0  0  0  0  0  0  0  0  0  0  0
    1.2998    2.5704    0.0000 C   0  0  0  0  0  0  0  0  0  0  0  0
   -0.0002    0.3188    0.0000 C   0  0  0  0  0  0  0  0  0  0  0  0
   -1.2988    2.5696    0.0000 C   0  0  0  0  0  0  0  0  0  0  0  0
   -2.5978    1.8196    0.0000 C   0  0  0  0  0  0  0  0  0  0  0  0
    0.0002    1.8196    0.0000 C   0  0  0  0  0  0  0  0  0  0  0  0
   -2.5978    0.3196    0.0000 O   0  0  0  0  0  0  0  0  0  0  0  0
  3  2  2  0
  4  2  1  0
  5  3  1  0
  6  4  2  0
  8  1  1  0
  8  7  1  0
  9  5  2  0
  9  6  1  0
  9  7  1  0
 10  8  2  0
M  END
>  <NAME>  (5936) 
PHENYLACETONE

>  <SYNONYMS>  (5936) 


>  <SPECTRUM TYPE>  (5936) 
MS1

>  <INSTRUMENT TYPE>  (5936) 
EI-B

>  <INSTRUMENT>  (5936) 
JEOL JMS-D-3000

>  <ION MODE>  (5936) 
P

>  <INCHIKEY>  (5936) 
QCCDLTOVEPVEJK-UHFFFAOYSA-N

>  <FORMULA>  (5936) 
C9H10O

>  <EXACT MASS>  (5936) 
134.07316494

>  <MW>  (5936) 
134

>  <ID>  (5936) 
JP002305

>  <CONTRIBUTOR>  (5936) 
University of Tokyo Team, {Faculty of Engineering, University of Tokyo

>  <COMMENT>  (5936) 
SMILES=CC(=O)Cc(c1)cccc1
InChI=InChI=1S/C9H10O/c1-8(10)7-9-5-3-2-4-6-9/h2-6H,7H2,1H3
computed SMILES=O=C(C)CC=1C=CC=CC1
accession=JP002305
date=2016.01.19 (Created 2008.10.21, modified 2011.05.06)
author=MASS SPECTROSCOPY SOC. OF JAPAN (MSSJ)
license=CC BY-NC-SA
exact mass=134.07316
ionization energy=70 eV
ion type=[M]+*
computed spectral entropy=2.046830943584698
computed normalized entropy=0.6527937232944806
SPLASH=splash10-0006-9100000000-474d8233daf5ed7c2f2a
submitter=submitter = University of Tokyo Team (Faculty of Engineering, University of Tokyo)
MoNA Rating=3.75

>  <NUM PEAKS>  (5936) 
23

>  <MASS SPECTRAL PEAKS>  (5936) 
15 1.49
32 6.44
38 1
39 7.03
41 1.56
43 99.99
46 1.57
50 1.71
51 3.82
52 1.07
62 1.44
63 4.26
64 1.16
65 13.82
66 1.03
77 1.76
89 3.48
90 1.71
91 57.25
92 24.76
93 1.78
134 24.06
135 2.47

$$$$

     RDKit          2D

 11 11  0  0  0  0  0  0  0  0999 V2000
   -4.3810    2.7764    0.0000 C   0  0  0  0  0  0  0  0  0  0  0  0
   -5.1777    0.3035    0.0000 C   0  0  0  0  0  0  0  0  0  0  0  0
    1.2100    0.3900    0.0000 C   0  0  0  0  0  0  0  0  0  0  0  0
    0.0000    1.2800    0.0000 C   0  0  0  0  0  0  0  0  0  0  0  0
    0.7500   -1.0300    0.0000 C   0  0  0  0  0  0  0  0  0  0  0  0
   -1.2100    0.3900    0.0000 C   0  0  0  0  0  0  0  0  0  0  0  0
   -0.7500   -1.0300    0.0000 C   0  0  0  0  0  0  0  0  0  0  0  0
   -2.6377    0.8500    0.0000 C   0  0  0  0  0  0  0  0  0  0  0  0
   -1.6322   -2.2431    0.0000 O   0  0  0  0  0  0  0  0  0  0  0  0
   -2.9533    2.3164    0.0000 O   0  0  0  0  0  0  0  0  0  0  0  0
   -3.7499   -0.1565    0.0000 O   0  0  0  0  0  0  0  0  0  0  0  0
  4  3  1  0
  5  3  1  0
  6  4  1  0
  7  5  1  0
  7  6  1  0
  8  6  1  0
  9  7  2  0
 10  1  1  0
 10  8  1  0
 11  2  1  0
 11  8  1  0
M  END
>  <NAME>  (5937) 
2-(DIMETHOXYMETHYL)CYCLOPENTANONE

>  <SYNONYMS>  (5937) 


>  <SPECTRUM TYPE>  (5937) 
MS1

>  <INSTRUMENT TYPE>  (5937) 
EI-B

>  <INSTRUMENT>  (5937) 
JEOL JMS-D-3000

>  <ION MODE>  (5937) 
P

>  <INCHIKEY>  (5937) 
BMUJLDCMIRTFHP-UHFFFAOYSA-N

>  <FORMULA>  (5937) 
C8H14O3

>  <EXACT MASS>  (5937) 
158.09429430799997

>  <MW>  (5937) 
158

>  <ID>  (5937) 
JP002304

>  <CONTRIBUTOR>  (5937) 
University of Tokyo Team, {Faculty of Engineering, University of Tokyo

>  <COMMENT>  (5937) 
SMILES=COC(OC)C(C1)C(=O)CC1
InChI=InChI=1S/C8H14O3/c1-10-8(11-2)6-4-3-5-7(6)9/h6,8H,3-5H2,1-2H3
computed SMILES=O=C1CCCC1C(OC)OC
accession=JP002304
date=2016.01.19 (Created 2008.10.21, modified 2011.05.06)
author=MASS SPECTROSCOPY SOC. OF JAPAN (MSSJ)
license=CC BY-NC-SA
exact mass=158.09429
ionization energy=70 eV
ion type=[M]+*
computed spectral entropy=2.420227563672396
computed normalized entropy=0.7428348225501348
SPLASH=splash10-004i-9100000000-abeab23508923cc141f7
submitter=submitter = University of Tokyo Team (Faculty of Engineering, University of Tokyo)
MoNA Rating=3.75

>  <NUM PEAKS>  (5937) 
26

>  <MASS SPECTRAL PEAKS>  (5937) 
41 15.65
42 3.1
43 1.68
45 3.25
47 9.49
53 2.11
55 6.78
59 2.7
67 20.91
68 1.76
69 4.27
70 4.94
71 10.2
75 99.99
76 3.1
83 1.8
84 10.4
85 3.06
87 2.04
95 8.39
97 5.49
98 1.76
111 2.11
126 9.41
127 11.53
158 2.04

$$$$

     RDKit          2D

  9  9  0  0  0  0  0  0  0  0999 V2000
    2.6052   -0.7613    0.0000 C   0  0  0  0  0  0  0  0  0  0  0  0
   -2.6041   -0.8953    0.0000 C   0  0  0  0  0  0  0  0  0  0  0  0
   -0.0300    2.1400    0.0000 C   0  0  0  0  0  0  0  0  0  0  0  0
    1.2600    1.4400    0.0000 C   0  0  0  0  0  0  0  0  0  0  0  0
   -1.3200    1.4000    0.0000 C   0  0  0  0  0  0  0  0  0  0  0  0
    1.2900   -0.0400    0.0000 C   0  0  0  0  0  0  0  0  0  0  0  0
   -1.3200   -0.1200    0.0000 C   0  0  0  0  0  0  0  0  0  0  0  0
    0.0100   -0.8200    0.0000 C   0  0  0  0  0  0  0  0  0  0  0  0
    0.0571   -2.3193    0.0000 O   0  0  0  0  0  0  0  0  0  0  0  0
  4  3  1  0
  5  3  1  0
  6  1  1  0
  6  4  1  0
  7  2  1  0
  7  5  1  0
  8  6  1  0
  8  7  1  0
  9  8  2  0
M  END
>  <NAME>  (5938) 
2,6-DIMETHYLCYCLOHEXANONE

>  <SYNONYMS>  (5938) 


>  <SPECTRUM TYPE>  (5938) 
MS1

>  <INSTRUMENT TYPE>  (5938) 
EI-B

>  <INSTRUMENT>  (5938) 
JEOL JMS-D-3000

>  <ION MODE>  (5938) 
P

>  <INCHIKEY>  (5938) 
AILVYPLQKCQNJC-UHFFFAOYSA-N

>  <FORMULA>  (5938) 
C8H14O

>  <EXACT MASS>  (5938) 
126.104465068

>  <MW>  (5938) 
126

>  <ID>  (5938) 
JP002303

>  <CONTRIBUTOR>  (5938) 
University of Tokyo Team, {Faculty of Engineering, University of Tokyo

>  <COMMENT>  (5938) 
SMILES=CC(C1)C(=O)C(C)CC1
InChI=InChI=1S/C8H14O/c1-6-4-3-5-7(2)8(6)9/h6-7H,3-5H2,1-2H3
computed SMILES=O=C1C(C)CCCC1C
accession=JP002303
date=2016.01.19 (Created 2008.10.21, modified 2011.05.06)
author=MASS SPECTROSCOPY SOC. OF JAPAN (MSSJ)
license=CC BY-NC-SA
exact mass=126.10447
ionization energy=70 eV
ion type=[M]+*
computed spectral entropy=2.666963670928922
computed normalized entropy=0.8628039605316173
SPLASH=splash10-066u-9100000000-1d2cf5e5c955f0dcbb59
submitter=submitter = University of Tokyo Team (Faculty of Engineering, University of Tokyo)
MoNA Rating=3.75

>  <NUM PEAKS>  (5938) 
22

>  <MASS SPECTRAL PEAKS>  (5938) 
40 7.55
42 72.66
43 31.04
44 26.7
53 5.84
54 5.11
55 45.85
56 87.62
57 15.44
58 32.89
59 6.18
67 6.96
68 99.99
69 96.15
70 16.61
83 11.98
84 12.37
97 10.52
98 46
111 6.14
126 59.6
127 5.26

$$$$

     RDKit          2D

  9  9  0  0  0  0  0  0  0  0999 V2000
    1.8127   -2.1596    0.0000 C   0  0  0  0  0  0  0  0  0  0  0  0
    2.7772   -0.4897    0.0000 C   0  0  0  0  0  0  0  0  0  0  0  0
   -1.3000    0.7500    0.0000 C   0  0  0  0  0  0  0  0  0  0  0  0
    0.0000    1.5000    0.0000 C   0  0  0  0  0  0  0  0  0  0  0  0
   -1.3000   -0.7500    0.0000 C   0  0  0  0  0  0  0  0  0  0  0  0
    1.3000    0.7500    0.0000 C   0  0  0  0  0  0  0  0  0  0  0  0
   -0.0000   -1.5000    0.0000 C   0  0  0  0  0  0  0  0  0  0  0  0
    1.3000   -0.7500    0.0000 C   0  0  0  0  0  0  0  0  0  0  0  0
   -0.0000   -3.0000    0.0000 O   0  0  0  0  0  0  0  0  0  0  0  0
  4  3  1  0
  5  3  1  0
  6  4  1  0
  7  5  1  0
  8  1  1  0
  8  2  1  0
  8  6  1  0
  8  7  1  0
  9  7  2  0
M  END
>  <NAME>  (5939) 
2,2-DIMETHYLCYCLOHEXANONE

>  <SYNONYMS>  (5939) 


>  <SPECTRUM TYPE>  (5939) 
MS1

>  <INSTRUMENT TYPE>  (5939) 
EI-B

>  <INSTRUMENT>  (5939) 
JEOL JMS-D-3000

>  <ION MODE>  (5939) 
P

>  <INCHIKEY>  (5939) 
KNSPBSQWRKKAPI-UHFFFAOYSA-N

>  <FORMULA>  (5939) 
C8H14O

>  <EXACT MASS>  (5939) 
126.104465068

>  <MW>  (5939) 
126

>  <ID>  (5939) 
JP002302

>  <CONTRIBUTOR>  (5939) 
University of Tokyo Team, {Faculty of Engineering, University of Tokyo

>  <COMMENT>  (5939) 
SMILES=O=C(C1)C(C)(C)CCC1
InChI=InChI=1S/C8H14O/c1-8(2)6-4-3-5-7(8)9/h3-6H2,1-2H3
computed SMILES=O=C1CCCCC1(C)C
accession=JP002302
date=2016.01.19 (Created 2008.10.21, modified 2011.05.06)
author=MASS SPECTROSCOPY SOC. OF JAPAN (MSSJ)
license=CC BY-NC-SA
exact mass=126.10447
ionization energy=70 eV
ion type=[M]+*
computed spectral entropy=2.817663811546095
computed normalized entropy=0.799028854785854
SPLASH=splash10-0apl-9000000000-fe0c8568c4c5c7bdb4a0
submitter=submitter = University of Tokyo Team (Faculty of Engineering, University of Tokyo)
MoNA Rating=3.75

>  <NUM PEAKS>  (5939) 
34

>  <MASS SPECTRAL PEAKS>  (5939) 
40 35.61
42 49.23
43 9.93
44 18.95
45 1.99
51 1.69
53 4.96
54 3.6
55 44.59
56 61.64
57 7.58
58 9.75
59 2.88
67 11.72
68 37.61
69 59.84
70 14.07
71 2.27
74 1.67
77 1.43
79 1.11
81 1.77
82 99.99
83 15.63
84 7.26
93 1.88
95 1.23
97 4.43
98 16.34
99 1.27
108 1.22
111 3.03
126 43
127 4

$$$$

     RDKit          2D

  8  7  0  0  0  0  0  0  0  0999 V2000
    1.6238    3.1875    0.0000 C   0  0  0  0  0  0  0  0  0  0  0  0
   -0.9743    1.6875    0.0000 C   0  0  0  0  0  0  0  0  0  0  0  0
   -4.8714    3.9375    0.0000 C   0  0  0  0  0  0  0  0  0  0  0  0
    0.3248    3.9375    0.0000 C   0  0  0  0  0  0  0  0  0  0  0  0
   -2.2733    3.9375    0.0000 C   0  0  0  0  0  0  0  0  0  0  0  0
   -0.9743    3.1875    0.0000 C   0  0  0  0  0  0  0  0  0  0  0  0
   -3.5724    3.1875    0.0000 C   0  0  0  0  0  0  0  0  0  0  0  0
   -3.5724    1.6875    0.0000 O   0  0  0  0  0  0  0  0  0  0  0  0
  4  1  1  0
  6  2  1  0
  6  4  1  0
  6  5  1  0
  7  3  1  0
  7  5  1  0
  8  7  2  0
M  END
>  <NAME>  (5940) 
4-METHYL-2-HEXANONE

>  <SYNONYMS>  (5940) 


>  <SPECTRUM TYPE>  (5940) 
MS1

>  <INSTRUMENT TYPE>  (5940) 
EI-B

>  <INSTRUMENT>  (5940) 
JEOL JMS-D-3000

>  <ION MODE>  (5940) 
P

>  <INCHIKEY>  (5940) 
XUPXMIAWKPTZLZ-UHFFFAOYSA-N

>  <FORMULA>  (5940) 
C7H14O

>  <EXACT MASS>  (5940) 
114.104465068

>  <MW>  (5940) 
114

>  <ID>  (5940) 
JP002301

>  <CONTRIBUTOR>  (5940) 
University of Tokyo Team, {Faculty of Engineering, University of Tokyo

>  <COMMENT>  (5940) 
SMILES=CCC(C)CC(C)=O
InChI=InChI=1S/C7H14O/c1-4-6(2)5-7(3)8/h6H,4-5H2,1-3H3
computed SMILES=O=C(C)CC(C)CC
accession=JP002301
date=2016.01.19 (Created 2008.10.21, modified 2011.05.06)
author=MASS SPECTROSCOPY SOC. OF JAPAN (MSSJ)
license=CC BY-NC-SA
exact mass=114.10447
ionization energy=70 eV
ion type=[M]+*
computed spectral entropy=2.0722767300399885
computed normalized entropy=0.6806574010962315
SPLASH=splash10-0a4l-9000000000-145f2e0d11a8d4f0c011
submitter=submitter = University of Tokyo Team (Faculty of Engineering, University of Tokyo)
MoNA Rating=3.75

>  <NUM PEAKS>  (5940) 
21

>  <MASS SPECTRAL PEAKS>  (5940) 
40 1.1
41 38.52
42 1.96
43 55.1
45 2.82
53 1.61
55 7.77
56 99.99
57 79.1
58 3.66
59 2.43
69 3.34
70 1.45
71 1.4
73 1.25
74 1.67
83 1.19
84 11
85 46.83
86 3.26
114 3.75

$$$$

     RDKit          2D

  8  7  0  0  0  0  0  0  0  0999 V2000
    3.8236    3.0736    0.0000 C   0  0  0  0  0  0  0  0  0  0  0  0
    2.3236    0.4755    0.0000 C   0  0  0  0  0  0  0  0  0  0  0  0
    4.3726    1.0245    0.0000 C   0  0  0  0  0  0  0  0  0  0  0  0
   -0.8236    2.5245    0.0000 C   0  0  0  0  0  0  0  0  0  0  0  0
    0.4755    1.7745    0.0000 C   0  0  0  0  0  0  0  0  0  0  0  0
   -2.1226    1.7745    0.0000 Cl  0  0  0  0  0  0  0  0  0  0  0  0
    1.7745    2.5245    0.0000 O   0  0  0  0  0  0  0  0  0  0  0  0
    3.0736    1.7745    0.0000 Si  0  0  0  0  0  4  0  0  0  0  0  0
  5  4  1  0
  6  4  1  0
  7  5  1  0
  8  1  1  0
  8  2  1  0
  8  3  1  0
  8  7  1  0
M  END
>  <NAME>  (5941) 
1-CHLORO-2-TRIMETHYLSILOXYETHANE

>  <SYNONYMS>  (5941) 


>  <SPECTRUM TYPE>  (5941) 
MS1

>  <INSTRUMENT TYPE>  (5941) 
EI-B

>  <INSTRUMENT>  (5941) 
JEOL JMS-D-3000

>  <ION MODE>  (5941) 
P

>  <INCHIKEY>  (5941) 
SJIIMFTWFNLSKY-UHFFFAOYSA-N

>  <FORMULA>  (5941) 
C5H13ClOSi

>  <EXACT MASS>  (5941) 
152.042419246

>  <MW>  (5941) 
152

>  <ID>  (5941) 
JP002299

>  <CONTRIBUTOR>  (5941) 
University of Tokyo Team, {Faculty of Engineering, University of Tokyo

>  <COMMENT>  (5941) 
SMILES=ClCCO[Si](C)(C)C
InChI=InChI=1S/C5H13ClOSi/c1-8(2,3)7-5-4-6/h4-5H2,1-3H3
computed SMILES=ClCCO[Si](C)(C)C
accession=JP002299
date=2016.01.19 (Created 2008.10.21, modified 2011.05.06)
author=MASS SPECTROSCOPY SOC. OF JAPAN (MSSJ)
license=CC BY-NC-SA
exact mass=152.04242
ionization energy=70 eV
ion type=[M]+*
computed spectral entropy=2.1786347363653142
computed normalized entropy=0.6948297736596887
SPLASH=splash10-0006-9300000000-d2c5d5dda347907cb96e
submitter=submitter = University of Tokyo Team (Faculty of Engineering, University of Tokyo)
MoNA Rating=3.75

>  <NUM PEAKS>  (5941) 
23

>  <MASS SPECTRAL PEAKS>  (5941) 
43 4.13
45 3.44
47 1.32
58 1.11
59 1.71
63 1.92
65 2.31
73 27.22
74 2.77
75 2.33
79 2.7
93 99.99
94 8.06
95 37.61
96 2.68
100 5.88
102 17.38
103 1.93
137 30.99
138 2.99
139 10.94
140 1.11
152 0.01

$$$$

     RDKit          2D

  5  4  0  0  0  0  0  0  0  0999 V2000
    0.0000    0.0000    0.0000 C   0  0  0  0  0  0  0  0  0  0  0  0
   -1.2990    2.2500    0.0000 C   0  0  0  0  0  0  0  0  0  0  0  0
    0.0000    1.5000    0.0000 C   0  0  0  0  0  0  0  0  0  0  0  0
   -1.2990    3.7500    0.0000 I   0  0  0  0  0  0  0  0  0  0  0  0
    1.2990    2.2500    0.0000 I   0  0  0  0  0  0  0  0  0  0  0  0
  3  1  1  0
  3  2  1  0
  4  2  1  0
  5  3  1  0
M  END
>  <NAME>  (5942) 
1,2-DIIODOPROPANE

>  <SYNONYMS>  (5942) 


>  <SPECTRUM TYPE>  (5942) 
MS1

>  <INSTRUMENT TYPE>  (5942) 
EI-B

>  <INSTRUMENT>  (5942) 
JEOL JMS-D-3000

>  <ION MODE>  (5942) 
P

>  <INCHIKEY>  (5942) 
ISXPOEJSKALLKA-UHFFFAOYSA-N

>  <FORMULA>  (5942) 
C3H6I2

>  <EXACT MASS>  (5942) 
295.855896192

>  <MW>  (5942) 
296

>  <ID>  (5942) 
JP002298

>  <CONTRIBUTOR>  (5942) 
University of Tokyo Team, {Faculty of Engineering, University of Tokyo

>  <COMMENT>  (5942) 
SMILES=CC(I)CI
InChI=InChI=1S/C3H6I2/c1-3(5)2-4/h3H,2H2,1H3
computed SMILES=ICC(I)C
accession=JP002298
date=2016.01.19 (Created 2008.10.21, modified 2011.05.06)
author=MASS SPECTROSCOPY SOC. OF JAPAN (MSSJ)
license=CC BY-NC-SA
exact mass=295.85589
ionization energy=70 eV
ion type=[M]+*
computed spectral entropy=1.6774520103971315
computed normalized entropy=0.7634413103237593
SPLASH=splash10-014l-5920000000-a44943dd70bca751d85d
submitter=submitter = University of Tokyo Team (Faculty of Engineering, University of Tokyo)
MoNA Rating=3.75

>  <NUM PEAKS>  (5942) 
9

>  <MASS SPECTRAL PEAKS>  (5942) 
41 70.87
42 19.21
127 15.96
128 20.67
141 2.49
169 99.99
170 3.85
254 29.18
296 3.01

$$$$

     RDKit          2D

  5  4  0  0  0  0  0  0  0  0999 V2000
    0.0000    0.0000    0.0000 C   0  0  0  0  0  0  0  0  0  0  0  0
   -1.2990    2.2500    0.0000 C   0  0  0  0  0  0  0  0  0  0  0  0
    0.0000    1.5000    0.0000 C   0  0  0  0  0  0  0  0  0  0  0  0
   -1.2990    3.7500    0.0000 Br  0  0  0  0  0  0  0  0  0  0  0  0
    1.2990    2.2500    0.0000 Br  0  0  0  0  0  0  0  0  0  0  0  0
  3  1  1  0
  3  2  1  0
  4  2  1  0
  5  3  1  0
M  END
>  <NAME>  (5943) 
1,2-DIBROMOPROPANE

>  <SYNONYMS>  (5943) 


>  <SPECTRUM TYPE>  (5943) 
MS1

>  <INSTRUMENT TYPE>  (5943) 
EI-B

>  <INSTRUMENT>  (5943) 
JEOL JMS-D-3000

>  <ION MODE>  (5943) 
P

>  <INCHIKEY>  (5943) 
XFNJYAKDBJUJAJ-UHFFFAOYSA-N

>  <FORMULA>  (5943) 
C3H6Br2

>  <EXACT MASS>  (5943) 
199.883624392

>  <MW>  (5943) 
200

>  <ID>  (5943) 
JP002297

>  <CONTRIBUTOR>  (5943) 
University of Tokyo Team, {Faculty of Engineering, University of Tokyo

>  <COMMENT>  (5943) 
SMILES=CC(Br)CBr
InChI=InChI=1S/C3H6Br2/c1-3(5)2-4/h3H,2H2,1H3
computed SMILES=BrCC(Br)C
accession=JP002297
date=2016.01.19 (Created 2008.10.21, modified 2011.05.06)
author=MASS SPECTROSCOPY SOC. OF JAPAN (MSSJ)
license=CC BY-NC-SA
exact mass=199.88363
ionization energy=70 eV
ion type=[M]+*
computed spectral entropy=1.7735851511365242
computed normalized entropy=0.5580727218023066
SPLASH=splash10-00di-2900000000-a83b2d0cd5fbc0e93991
submitter=submitter = University of Tokyo Team (Faculty of Engineering, University of Tokyo)
MoNA Rating=3.75

>  <NUM PEAKS>  (5943) 
24

>  <MASS SPECTRAL PEAKS>  (5943) 
41 35.87
42 3.04
43 1.85
45 1.83
77 1.28
79 1.07
81 1.18
82 1.32
93 3.35
95 3.11
105 1.77
107 3.99
109 1.89
112 2.28
117 1.5
119 1.91
121 99.99
122 4.17
123 99.94
124 3.62
187 1.03
200 1.59
202 2.76
204 1.32

$$$$

     RDKit          2D

 29 29  0  0  0  0  0  0  0  0999 V2000
    3.0600   -2.4087    0.0000 C   0  0  0  0  0  0  0  0  0  0  0  0
    5.1090   -1.8597    0.0000 C   0  0  0  0  0  0  0  0  0  0  0  0
    4.5600    0.1894    0.0000 C   0  0  0  0  0  0  0  0  0  0  0  0
    2.7122    3.3914    0.0000 C   0  0  0  0  0  0  0  0  0  0  0  0
    1.2119    4.8912    0.0000 C   0  0  0  0  0  0  0  0  0  0  0  0
   -0.2878    3.3909    0.0000 C   0  0  0  0  0  0  0  0  0  0  0  0
    0.6621   -2.0616    0.0000 C   0  0  0  0  0  0  0  0  0  0  0  0
    1.2108   -4.1107    0.0000 C   0  0  0  0  0  0  0  0  0  0  0  0
   -0.8383   -4.6594    0.0000 C   0  0  0  0  0  0  0  0  0  0  0  0
   -5.1504   -0.0506    0.0000 C   0  0  0  0  0  0  0  0  0  0  0  0
   -5.6997   -2.0996    0.0000 C   0  0  0  0  0  0  0  0  0  0  0  0
   -3.6508   -2.6490    0.0000 C   0  0  0  0  0  0  0  0  0  0  0  0
   -1.9003   -4.0197    0.0000 C   0  0  0  0  0  0  0  0  0  0  0  0
   -2.8642   -2.3496    0.0000 C   0  0  0  0  0  0  0  0  0  0  0  0
   -1.7213    0.7888    0.0000 C   0  0  0  0  0  0  0  0  0  0  0  0
   -3.6497    0.7891    0.0000 C   0  0  0  0  0  0  0  0  0  0  0  0
    2.5114    1.1412    0.0000 C   0  0  0  0  0  0  0  0  0  0  0  0
    1.2114   -1.1105    0.0000 C   0  0  0  0  0  0  0  0  0  0  0  0
   -0.0871    1.1403    0.0000 C   0  0  0  0  0  0  0  0  0  0  0  0
    2.5110   -0.3597    0.0000 C   0  0  0  0  0  0  0  0  0  0  0  0
    1.2124    1.8912    0.0000 C   0  0  0  0  0  0  0  0  0  0  0  0
   -0.0876   -0.3605    0.0000 C   0  0  0  0  0  0  0  0  0  0  0  0
    3.8100   -1.1097    0.0000 C   0  0  0  0  0  0  0  0  0  0  0  0
    1.2122    3.3912    0.0000 C   0  0  0  0  0  0  0  0  0  0  0  0
   -0.0881   -3.3605    0.0000 C   0  0  0  0  0  0  0  0  0  0  0  0
   -4.4006   -1.3498    0.0000 C   0  0  0  0  0  0  0  0  0  0  0  0
   -1.3868   -1.1103    0.0000 N   0  0  0  0  0  0  0  0  0  0  0  0
   -1.3870   -2.6103    0.0000 Si  0  0  0  0  0  4  0  0  0  0  0  0
   -2.6857   -0.3601    0.0000 Si  0  0  0  0  0  4  0  0  0  0  0  0
 20 17  2  0
 20 18  1  0
 21 17  1  0
 21 19  2  0
 22 18  2  0
 22 19  1  0
 23  1  1  0
 23  2  1  0
 23  3  1  0
 23 20  1  0
 24  4  1  0
 24  5  1  0
 24  6  1  0
 24 21  1  0
 25  7  1  0
 25  8  1  0
 25  9  1  0
 26 10  1  0
 26 11  1  0
 26 12  1  0
 27 22  1  0
 28 13  1  0
 28 14  1  0
 28 25  1  0
 28 27  1  0
 29 15  1  0
 29 16  1  0
 29 26  1  0
 29 27  1  0
M  END
>  <NAME>  (5944) 
3,5-DI-TERT-BUTYL-N,N-BIS(TERT-BUTYLDIMETHYLSILYL)ANILINE

>  <SYNONYMS>  (5944) 


>  <SPECTRUM TYPE>  (5944) 
MS1

>  <INSTRUMENT TYPE>  (5944) 
EI-B

>  <INSTRUMENT>  (5944) 
JEOL JMS-D-3000

>  <ION MODE>  (5944) 
P

>  <INCHIKEY>  (5944) 
VITNSGDBOAYRHK-UHFFFAOYSA-N

>  <FORMULA>  (5944) 
C26H51NSi2

>  <EXACT MASS>  (5944) 
433.356003692

>  <MW>  (5944) 
433

>  <ID>  (5944) 
JP002296

>  <CONTRIBUTOR>  (5944) 
University of Tokyo Team, {Faculty of Engineering, University of Tokyo

>  <COMMENT>  (5944) 
SMILES=C[Si](C)(N([Si](C)(C)C(C)(C)C)c(c1)cc(C(C)(C)C)cc(C(C)(C)C)1)C(C)(C)C
InChI=InChI=1S/C26H51NSi2/c1-23(2,3)20-17-21(24(4,5)6)19-22(18-20)27(28(13,14)25(7,8)9)29(15,16)26(10,11)12/h17-19H,1-16H3
computed SMILES=C=1C(=CC(=CC1C(C)(C)C)C(C)(C)C)N([Si](C)(C)C(C)(C)C)[Si](C)(C)C(C)(C)C
accession=JP002296
date=2016.01.19 (Created 2008.10.21, modified 2011.05.06)
author=MASS SPECTROSCOPY SOC. OF JAPAN (MSSJ)
license=CC BY-NC-SA
exact mass=433.356
ionization energy=70 eV
ion type=[M]+*
computed spectral entropy=2.8907960591742796
computed normalized entropy=0.7281066788330826
SPLASH=splash10-0059-3019000000-03baa580275b0601352b
submitter=submitter = University of Tokyo Team (Faculty of Engineering, University of Tokyo)
MoNA Rating=3.75

>  <NUM PEAKS>  (5944) 
53

>  <MASS SPECTRAL PEAKS>  (5944) 
45 1.08
55 1.1
56 2.93
57 61.38
58 2.82
59 3.64
73 26.11
74 2.7
75 1.71
99 1.32
100 1.04
130 2.28
134 1.18
150 1.01
160 1.9
190 2.52
205 1.23
206 2.75
222 8.19
223 2.03
232 1.54
246 2.02
247 1.23
248 1.92
262 6.88
263 2.14
264 7.05
265 1.74
277 1.02
278 12.34
279 3.54
280 1.33
288 2.4
302 1.88
304 10.15
305 3.28
306 1.41
318 5.34
319 3.38
320 8.52
321 2.68
322 1
334 99.99
335 32.05
336 11.96
337 2.46
360 1.3
376 81.51
377 28.52
378 10.48
379 2.35
418 2.76
419 1

$$$$

     RDKit          2D

 17 17  0  0  0  0  0  0  0  0999 V2000
    1.8487   -2.7991    0.0000 C   0  0  0  0  0  0  0  0  0  0  0  0
    3.8978   -2.2504    0.0000 C   0  0  0  0  0  0  0  0  0  0  0  0
    3.3491   -0.2013    0.0000 C   0  0  0  0  0  0  0  0  0  0  0  0
   -3.3491   -0.2013    0.0000 C   0  0  0  0  0  0  0  0  0  0  0  0
   -3.8978   -2.2504    0.0000 C   0  0  0  0  0  0  0  0  0  0  0  0
   -1.8487   -2.7991    0.0000 C   0  0  0  0  0  0  0  0  0  0  0  0
    1.3000    0.7500    0.0000 C   0  0  0  0  0  0  0  0  0  0  0  0
   -1.3000    0.7500    0.0000 C   0  0  0  0  0  0  0  0  0  0  0  0
    0.0000   -1.5000    0.0000 C   0  0  0  0  0  0  0  0  0  0  0  0
    0.0000    1.5000    0.0000 C   0  0  0  0  0  0  0  0  0  0  0  0
    1.3000   -0.7500    0.0000 C   0  0  0  0  0  0  0  0  0  0  0  0
   -1.3000   -0.7500    0.0000 C   0  0  0  0  0  0  0  0  0  0  0  0
    0.0000    3.0000    0.0000 C   0  0  0  0  0  0  0  0  0  0  0  0
    2.5989   -1.5002    0.0000 C   0  0  0  0  0  0  0  0  0  0  0  0
   -2.5989   -1.5002    0.0000 C   0  0  0  0  0  0  0  0  0  0  0  0
    1.2990    3.7500    0.0000 O   0  0  0  0  0  0  0  0  0  0  0  0
   -1.2990    3.7500    0.0000 O   0  0  0  0  0  0  0  0  0  0  0  0
 10  7  2  0
 10  8  1  0
 11  7  1  0
 11  9  2  0
 12  8  2  0
 12  9  1  0
 13 10  1  0
 14  1  1  0
 14  2  1  0
 14  3  1  0
 14 11  1  0
 15  4  1  0
 15  5  1  0
 15  6  1  0
 15 12  1  0
 16 13  2  0
 17 13  1  0
M  END
>  <NAME>  (5945) 
3,5-DI-TERT-BUTYLBENZOICACID

>  <SYNONYMS>  (5945) 


>  <SPECTRUM TYPE>  (5945) 
MS1

>  <INSTRUMENT TYPE>  (5945) 
EI-B

>  <INSTRUMENT>  (5945) 
JEOL JMS-D-3000

>  <ION MODE>  (5945) 
P

>  <INCHIKEY>  (5945) 
NCTSLPBQVXUAHR-UHFFFAOYSA-N

>  <FORMULA>  (5945) 
C15H22O2

>  <EXACT MASS>  (5945) 
234.161979944

>  <MW>  (5945) 
234

>  <ID>  (5945) 
JP002295

>  <CONTRIBUTOR>  (5945) 
University of Tokyo Team, {Faculty of Engineering, University of Tokyo

>  <COMMENT>  (5945) 
SMILES=OC(=O)c(c1)cc(cc1C(C)(C)C)C(C)(C)C
InChI=InChI=1S/C15H22O2/c1-14(2,3)11-7-10(13(16)17)8-12(9-11)15(4,5)6/h7-9H,1-6H3,(H,16,17)
computed SMILES=O=C(O)C=1C=C(C=C(C1)C(C)(C)C)C(C)(C)C
accession=JP002295
date=2016.01.19 (Created 2008.10.21, modified 2011.05.06)
author=MASS SPECTROSCOPY SOC. OF JAPAN (MSSJ)
license=CC BY-NC-SA
exact mass=234.16198
ionization energy=70 eV
ion type=[M]+*
computed spectral entropy=2.682372234948225
computed normalized entropy=0.708836631997963
SPLASH=splash10-014i-7290000000-65b93c0a785c5a5fe6d8
submitter=submitter = University of Tokyo Team (Faculty of Engineering, University of Tokyo)
MoNA Rating=3.75

>  <NUM PEAKS>  (5945) 
44

>  <MASS SPECTRAL PEAKS>  (5945) 
40 10.25
43 2.78
44 25.02
45 1.15
51 1.91
53 1.12
55 3.01
56 2.02
57 35.36
58 2.43
64 1.37
65 1.38
69 3.4
73 1.17
77 2.14
78 2.79
79 2.7
87 2.01
88 3.92
91 5.34
102 3.96
103 1.03
105 1.85
115 2.61
116 1.03
117 1.9
119 2.02
128 1.8
129 1.4
131 2.01
135 1.32
145 1.37
163 2.38
175 1.11
189 2.19
191 7.2
192 1.15
203 1.21
217 1.3
219 99.99
220 16.88
221 5
234 12.88
235 2.39

$$$$

     RDKit          2D

  9  9  0  0  0  0  0  0  0  0999 V2000
   -2.5989   -0.7504    0.0000 C   0  0  0  0  0  0  0  0  0  0  0  0
    2.5992   -0.7500    0.0000 C   0  0  0  0  0  0  0  0  0  0  0  0
    1.2992    1.5000    0.0000 C   0  0  0  0  0  0  0  0  0  0  0  0
    1.2992   -1.5000    0.0000 C   0  0  0  0  0  0  0  0  0  0  0  0
   -0.0008    0.7500    0.0000 C   0  0  0  0  0  0  0  0  0  0  0  0
    2.5992    0.7500    0.0000 C   0  0  0  0  0  0  0  0  0  0  0  0
   -0.0008   -0.7500    0.0000 C   0  0  0  0  0  0  0  0  0  0  0  0
    3.8981    1.5002    0.0000 N   0  0  0  0  0  0  0  0  0  0  0  0
   -1.2998   -1.5002    0.0000 O   0  0  0  0  0  0  0  0  0  0  0  0
  4  2  2  0
  5  3  1  0
  6  2  1  0
  6  3  2  0
  7  4  1  0
  7  5  2  0
  8  6  1  0
  9  1  1  0
  9  7  1  0
M  END
>  <NAME>  (5946) 
PARA-ANISIDINE

>  <SYNONYMS>  (5946) 
4-METHOXYANILINE

>  <SPECTRUM TYPE>  (5946) 
MS1

>  <INSTRUMENT TYPE>  (5946) 
EI-B

>  <INSTRUMENT>  (5946) 
JEOL JMS-D-3000

>  <ION MODE>  (5946) 
P

>  <INCHIKEY>  (5946) 
BHAAPTBBJKJZER-UHFFFAOYSA-N

>  <FORMULA>  (5946) 
C7H9NO

>  <EXACT MASS>  (5946) 
123.068413908

>  <MW>  (5946) 
123

>  <ID>  (5946) 
JP002294

>  <CONTRIBUTOR>  (5946) 
University of Tokyo Team, {Faculty of Engineering, University of Tokyo

>  <COMMENT>  (5946) 
SMILES=COc(c1)ccc(N)c1
InChI=InChI=1S/C7H9NO/c1-9-7-4-2-6(8)3-5-7/h2-5H,8H2,1H3
computed SMILES=O(C1=CC=C(N)C=C1)C
accession=JP002294
date=2016.01.19 (Created 2008.10.21, modified 2011.05.06)
author=MASS SPECTROSCOPY SOC. OF JAPAN (MSSJ)
license=CC BY-NC-SA
exact mass=123.06841
ionization energy=70 eV
ion type=[M]+*
computed spectral entropy=2.458551035491706
computed normalized entropy=0.7228486793348697
SPLASH=splash10-0ab9-5900000000-3786160ae4a86463960a
submitter=submitter = University of Tokyo Team (Faculty of Engineering, University of Tokyo)
MoNA Rating=3.75

>  <NUM PEAKS>  (5946) 
30

>  <MASS SPECTRAL PEAKS>  (5946) 
42 1.29
47 1.84
50 3.03
51 5.14
52 17.09
53 20.29
54 4.62
61 4.9
62 2.16
63 4.58
64 3.57
65 9.71
66 2.3
67 1.12
77 2.59
78 1.75
79 3.52
80 32.08
81 2.88
91 1.02
92 4.68
95 2.81
106 1.17
107 7.6
108 99.99
109 8.61
120 7.38
122 3.57
123 76.39
124 6.72

$$$$

     RDKit          2D

  8  8  0  0  0  0  0  0  0  0999 V2000
   -2.5989    1.5002    0.0000 C   0  0  0  0  0  0  0  0  0  0  0  0
   -1.3000   -0.7500    0.0000 C   0  0  0  0  0  0  0  0  0  0  0  0
    0.0000    1.5000    0.0000 C   0  0  0  0  0  0  0  0  0  0  0  0
    0.0000   -1.5000    0.0000 C   0  0  0  0  0  0  0  0  0  0  0  0
    1.3000    0.7500    0.0000 C   0  0  0  0  0  0  0  0  0  0  0  0
   -1.3000    0.7500    0.0000 C   0  0  0  0  0  0  0  0  0  0  0  0
    1.3000   -0.7500    0.0000 C   0  0  0  0  0  0  0  0  0  0  0  0
    2.5989   -1.5002    0.0000 N   0  0  0  0  0  0  0  0  0  0  0  0
  4  2  2  0
  5  3  1  0
  6  1  1  0
  6  2  1  0
  6  3  2  0
  7  4  1  0
  7  5  2  0
  8  7  1  0
M  END
>  <NAME>  (5947) 
PARA-TOLUIDINE

>  <SYNONYMS>  (5947) 
4-METHYLANILINE

>  <SPECTRUM TYPE>  (5947) 
MS1

>  <INSTRUMENT TYPE>  (5947) 
EI-B

>  <INSTRUMENT>  (5947) 
JEOL JMS-D-3000

>  <ION MODE>  (5947) 
P

>  <INCHIKEY>  (5947) 
RZXMPPFPUUCRFN-UHFFFAOYSA-N

>  <FORMULA>  (5947) 
C7H9N

>  <EXACT MASS>  (5947) 
107.073499288

>  <MW>  (5947) 
107

>  <ID>  (5947) 
JP002293

>  <CONTRIBUTOR>  (5947) 
University of Tokyo Team, {Faculty of Engineering, University of Tokyo

>  <COMMENT>  (5947) 
SMILES=Cc(c1)ccc(N)c1
InChI=InChI=1S/C7H9N/c1-6-2-4-7(8)5-3-6/h2-5H,8H2,1H3
computed SMILES=NC1=CC=C(C=C1)C
accession=JP002293
date=2016.01.19 (Created 2008.10.21, modified 2011.05.06)
author=MASS SPECTROSCOPY SOC. OF JAPAN (MSSJ)
license=CC BY-NC-SA
exact mass=107.0735
ionization energy=70 eV
ion type=[M]+*
computed spectral entropy=1.939481134510955
computed normalized entropy=0.6274521181046131
SPLASH=splash10-0a4i-3900000000-c7694241f19d9db54a68
submitter=submitter = University of Tokyo Team (Faculty of Engineering, University of Tokyo)
MoNA Rating=3.75

>  <NUM PEAKS>  (5947) 
22

>  <MASS SPECTRAL PEAKS>  (5947) 
42 1.03
50 2.24
51 5.17
52 5.35
53 6.9
54 4.18
62 1.02
63 2.21
65 2.37
66 1.34
77 13.71
78 4.75
79 9.53
80 3.15
89 1.67
90 1.12
91 2.08
104 2.87
105 1.68
106 99.99
107 72.67
108 6.04

$$$$

     RDKit          2D

  9  9  0  0  0  0  0  0  0  0999 V2000
   -1.3000   -0.7500    0.0000 C   0  0  0  0  0  0  0  0  0  0  0  0
    0.0000    1.5000    0.0000 C   0  0  0  0  0  0  0  0  0  0  0  0
    0.0000   -1.5000    0.0000 C   0  0  0  0  0  0  0  0  0  0  0  0
    1.3000    0.7500    0.0000 C   0  0  0  0  0  0  0  0  0  0  0  0
   -2.5989    1.5002    0.0000 C   0  0  0  0  0  0  0  0  0  0  0  0
   -1.3000    0.7500    0.0000 C   0  0  0  0  0  0  0  0  0  0  0  0
    1.3000   -0.7500    0.0000 C   0  0  0  0  0  0  0  0  0  0  0  0
   -3.8978    2.2504    0.0000 N   0  0  0  0  0  0  0  0  0  0  0  0
    2.5989   -1.5002    0.0000 N   0  0  0  0  0  0  0  0  0  0  0  0
  3  1  2  0
  4  2  1  0
  6  1  1  0
  6  2  2  0
  6  5  1  0
  7  3  1  0
  7  4  2  0
  8  5  3  0
  9  7  1  0
M  END
>  <NAME>  (5948) 
4-AMINOBENZONITRILE

>  <SYNONYMS>  (5948) 


>  <SPECTRUM TYPE>  (5948) 
MS1

>  <INSTRUMENT TYPE>  (5948) 
EI-B

>  <INSTRUMENT>  (5948) 
JEOL JMS-D-3000

>  <ION MODE>  (5948) 
P

>  <INCHIKEY>  (5948) 
YBAZINRZQSAIAY-UHFFFAOYSA-N

>  <FORMULA>  (5948) 
C7H6N2

>  <EXACT MASS>  (5948) 
118.053098192

>  <MW>  (5948) 
118

>  <ID>  (5948) 
JP002292

>  <CONTRIBUTOR>  (5948) 
University of Tokyo Team, {Faculty of Engineering, University of Tokyo

>  <COMMENT>  (5948) 
SMILES=N#Cc(c1)ccc(N)c1
InChI=InChI=1S/C7H6N2/c8-5-6-1-3-7(9)4-2-6/h1-4H,9H2
computed SMILES=N#CC1=CC=C(N)C=C1
accession=JP002292
date=2016.01.19 (Created 2008.10.21, modified 2011.05.06)
author=MASS SPECTROSCOPY SOC. OF JAPAN (MSSJ)
license=CC BY-NC-SA
exact mass=118.0531
ionization energy=70 eV
ion type=[M]+*
computed spectral entropy=2.0396678210073462
computed normalized entropy=0.6505091958534919
SPLASH=splash10-014i-7900000000-4e7f55155d22373c852e
submitter=submitter = University of Tokyo Team (Faculty of Engineering, University of Tokyo)
MoNA Rating=3.75

>  <NUM PEAKS>  (5948) 
23

>  <MASS SPECTRAL PEAKS>  (5948) 
45 1.13
50 2.58
51 2.05
52 3.91
54 1.19
59 4.42
61 1.24
62 2.8
63 8.62
64 12.09
65 4.66
66 1.54
75 1.85
76 1.43
77 1.01
78 1.62
89 1.07
90 9.5
91 27.69
92 2.42
117 5.8
118 99.99
119 9

$$$$

     RDKit          2D

  8  8  0  0  0  0  0  0  0  0999 V2000
   -1.3000    0.7500    0.0000 C   0  0  0  0  0  0  0  0  0  0  0  0
   -0.0000   -1.5000    0.0000 C   0  0  0  0  0  0  0  0  0  0  0  0
    0.0000    1.5000    0.0000 C   0  0  0  0  0  0  0  0  0  0  0  0
    1.3000   -0.7500    0.0000 C   0  0  0  0  0  0  0  0  0  0  0  0
   -1.3000   -0.7500    0.0000 C   0  0  0  0  0  0  0  0  0  0  0  0
    1.3000    0.7500    0.0000 C   0  0  0  0  0  0  0  0  0  0  0  0
   -2.5989   -1.5002    0.0000 Br  0  0  0  0  0  0  0  0  0  0  0  0
    2.5989    1.5002    0.0000 N   0  0  0  0  0  0  0  0  0  0  0  0
  3  1  2  0
  4  2  1  0
  5  1  1  0
  5  2  2  0
  6  3  1  0
  6  4  2  0
  7  5  1  0
  8  6  1  0
M  END
>  <NAME>  (5949) 
4-BROMOANILINE

>  <SYNONYMS>  (5949) 


>  <SPECTRUM TYPE>  (5949) 
MS1

>  <INSTRUMENT TYPE>  (5949) 
EI-B

>  <INSTRUMENT>  (5949) 
JEOL JMS-D-3000

>  <ION MODE>  (5949) 
P

>  <INCHIKEY>  (5949) 
WDFQBORIUYODSI-UHFFFAOYSA-N

>  <FORMULA>  (5949) 
C6H6BrN

>  <EXACT MASS>  (5949) 
170.968361292

>  <MW>  (5949) 
171

>  <ID>  (5949) 
JP002291

>  <CONTRIBUTOR>  (5949) 
University of Tokyo Team, {Faculty of Engineering, University of Tokyo

>  <COMMENT>  (5949) 
SMILES=Nc(c1)ccc(Br)c1
InChI=InChI=1S/C6H6BrN/c7-5-1-3-6(8)4-2-5/h1-4H,8H2
computed SMILES=BrC1=CC=C(N)C=C1
accession=JP002291
date=2016.01.19 (Created 2008.10.21, modified 2011.05.06)
author=MASS SPECTROSCOPY SOC. OF JAPAN (MSSJ)
license=CC BY-NC-SA
exact mass=170.96836
ionization energy=70 eV
ion type=[M]+*
computed spectral entropy=2.64825722536158
computed normalized entropy=0.708531650953641
SPLASH=splash10-00di-9800000000-eb3b658f471df38453a9
submitter=submitter = University of Tokyo Team (Faculty of Engineering, University of Tokyo)
MoNA Rating=3.75

>  <NUM PEAKS>  (5949) 
42

>  <MASS SPECTRAL PEAKS>  (5949) 
42 1.5
45 9.32
46 3.43
49 1.76
50 5.28
51 3.43
52 8.21
53 3.99
54 1.46
61 4.04
62 5.76
63 11.99
64 8.51
65 74.2
66 8.03
67 1.28
75 2.14
76 1.76
78 2.7
79 1.2
80 1.2
81 1.46
85 8.51
86 8.55
90 2.88
91 8.81
92 60.06
93 4.98
107 4.72
108 1.46
114 1.11
116 1.8
117 1.54
119 1.07
143 2.75
145 2.27
157 1.59
170 1.71
171 99.99
172 9.07
173 96.81
174 7.43

$$$$

     RDKit          2D

 10  9  0  0  0  0  0  0  0  0999 V2000
    1.9486    2.6250    0.0000 C   0  0  0  0  0  0  0  0  0  0  0  0
   -4.5466    3.3750    0.0000 C   0  0  0  0  0  0  0  0  0  0  0  0
   -1.6137    1.4759    0.0000 C   0  0  0  0  0  0  0  0  0  0  0  0
    0.3147    1.4759    0.0000 C   0  0  0  0  0  0  0  0  0  0  0  0
   -0.9844    4.5241    0.0000 C   0  0  0  0  0  0  0  0  0  0  0  0
   -2.9127    4.5241    0.0000 C   0  0  0  0  0  0  0  0  0  0  0  0
    0.6495    3.3750    0.0000 C   0  0  0  0  0  0  0  0  0  0  0  0
   -3.2476    2.6250    0.0000 C   0  0  0  0  0  0  0  0  0  0  0  0
   -0.6495    2.6250    0.0000 Si  0  0  0  0  0  4  0  0  0  0  0  0
   -1.9486    3.3750    0.0000 Si  0  0  0  0  0  4  0  0  0  0  0  0
  7  1  1  0
  8  2  1  0
  9  3  1  0
  9  4  1  0
  9  7  1  0
 10  5  1  0
 10  6  1  0
 10  8  1  0
 10  9  1  0
M  END
>  <NAME>  (5950) 
1,2-DIETHYL-1,1,2,2-TETRAMETHYLDISILANE

>  <SYNONYMS>  (5950) 


>  <SPECTRUM TYPE>  (5950) 
MS1

>  <INSTRUMENT TYPE>  (5950) 
EI-B

>  <INSTRUMENT>  (5950) 
JEOL JMS-D-3000

>  <ION MODE>  (5950) 
P

>  <INCHIKEY>  (5950) 
VPHDNCJLFNXQQN-UHFFFAOYSA-N

>  <FORMULA>  (5950) 
C8H22Si2

>  <EXACT MASS>  (5950) 
174.126003764

>  <MW>  (5950) 
174

>  <ID>  (5950) 
JP002290

>  <CONTRIBUTOR>  (5950) 
University of Tokyo Team, {Faculty of Engineering, University of Tokyo

>  <COMMENT>  (5950) 
SMILES=CC[Si](C)(C)[Si](C)(C)CC
InChI=InChI=1S/C8H22Si2/c1-7-9(3,4)10(5,6)8-2/h7-8H2,1-6H3
computed SMILES=CC[Si](C)(C)[Si](C)(C)CC
accession=JP002290
date=2016.01.19 (Created 2008.10.21, modified 2011.05.06)
author=MASS SPECTROSCOPY SOC. OF JAPAN (MSSJ)
license=CC BY-NC-SA
exact mass=174.126
ionization energy=70 eV
ion type=[M]+*
computed spectral entropy=2.7969626668143865
computed normalized entropy=0.7483172544551895
SPLASH=splash10-052r-9400000000-0f7f5291bd358f7eb8b8
submitter=submitter = University of Tokyo Team (Faculty of Engineering, University of Tokyo)
MoNA Rating=3.75

>  <NUM PEAKS>  (5950) 
42

>  <MASS SPECTRAL PEAKS>  (5950) 
43 10.13
44 2.46
45 9.38
55 1.32
57 1.98
58 8.39
59 96.3
60 7.84
61 3.91
69 1.25
71 3.9
72 2.34
73 32.72
74 2.87
75 1.67
85 8.39
86 12.11
87 99.99
88 10.29
89 4.18
99 1.69
101 3.47
102 1.56
103 14.63
104 2.05
105 1.07
115 1.98
116 1.05
117 41.79
118 6.63
119 3.31
129 1.19
131 8.57
132 1.33
145 15.92
146 2.87
147 1.33
159 6.11
160 1.18
174 21.63
175 4.23
176 1.89

$$$$

     RDKit          2D

 16 15  0  0  0  0  0  0  0  0999 V2000
    6.9240    2.8995    0.0000 C   0  0  0  0  0  0  0  0  0  0  0  0
    4.3260    1.3995    0.0000 C   0  0  0  0  0  0  0  0  0  0  0  0
    6.3750    0.8505    0.0000 C   0  0  0  0  0  0  0  0  0  0  0  0
    0.9240    5.4976    0.0000 C   0  0  0  0  0  0  0  0  0  0  0  0
   -1.1250    6.0466    0.0000 C   0  0  0  0  0  0  0  0  0  0  0  0
   -1.6740    3.9976    0.0000 C   0  0  0  0  0  0  0  0  0  0  0  0
    6.2845    3.9616    0.0000 C   0  0  0  0  0  0  0  0  0  0  0  0
    4.6145    4.9258    0.0000 C   0  0  0  0  0  0  0  0  0  0  0  0
   -1.0345    2.9355    0.0000 C   0  0  0  0  0  0  0  0  0  0  0  0
    0.6355    1.9713    0.0000 C   0  0  0  0  0  0  0  0  0  0  0  0
    3.3750    3.4486    0.0000 C   0  0  0  0  0  0  0  0  0  0  0  0
    1.8750    3.4486    0.0000 C   0  0  0  0  0  0  0  0  0  0  0  0
    5.6250    2.1495    0.0000 C   0  0  0  0  0  0  0  0  0  0  0  0
   -0.3750    4.7476    0.0000 C   0  0  0  0  0  0  0  0  0  0  0  0
    4.8750    3.4486    0.0000 Si  0  0  0  0  0  4  0  0  0  0  0  0
    0.3750    3.4486    0.0000 Si  0  0  0  0  0  4  0  0  0  0  0  0
 12 11  3  0
 13  1  1  0
 13  2  1  0
 13  3  1  0
 14  4  1  0
 14  5  1  0
 14  6  1  0
 15  7  1  0
 15  8  1  0
 15 11  1  0
 15 13  1  0
 16  9  1  0
 16 10  1  0
 16 12  1  0
 16 14  1  0
M  END
>  <NAME>  (5951) 
BIS(TERT-BUTYLDIMETHYLSILYL)ACETYLENE

>  <SYNONYMS>  (5951) 


>  <SPECTRUM TYPE>  (5951) 
MS1

>  <INSTRUMENT TYPE>  (5951) 
EI-B

>  <INSTRUMENT>  (5951) 
JEOL JMS-D-3000

>  <ION MODE>  (5951) 
P

>  <INCHIKEY>  (5951) 
YRUARCSGWDQBNC-UHFFFAOYSA-N

>  <FORMULA>  (5951) 
C14H30Si2

>  <EXACT MASS>  (5951) 
254.18860402

>  <MW>  (5951) 
254

>  <ID>  (5951) 
JP002289

>  <CONTRIBUTOR>  (5951) 
University of Tokyo Team, {Faculty of Engineering, University of Tokyo

>  <COMMENT>  (5951) 
SMILES=CC(C)(C)[Si](C)(C)C#C[Si](C)(C)C(C)(C)C
InChI=InChI=1S/C14H30Si2/c1-13(2,3)15(7,8)11-12-16(9,10)14(4,5)6/h1-10H3
computed SMILES=C(#C[Si](C)(C)C(C)(C)C)[Si](C)(C)C(C)(C)C
accession=JP002289
date=2016.01.19 (Created 2008.10.21, modified 2011.05.06)
author=MASS SPECTROSCOPY SOC. OF JAPAN (MSSJ)
license=CC BY-NC-SA
exact mass=254.1886
ionization energy=70 eV
ion type=[M]+*
computed spectral entropy=2.83562927700678
computed normalized entropy=0.7493359348565961
SPLASH=splash10-0002-5900000000-265a73aae5c2ca157bf9
submitter=submitter = University of Tokyo Team (Faculty of Engineering, University of Tokyo)
MoNA Rating=3.75

>  <NUM PEAKS>  (5951) 
44

>  <MASS SPECTRAL PEAKS>  (5951) 
43 7.16
45 6.77
53 1.16
55 2.57
56 2.26
57 5.78
58 1.12
59 8.63
67 3.6
69 2.95
70 3.56
71 1.1
73 61.6
74 5.39
75 2.33
81 1.38
83 9.98
84 1.19
85 3.05
95 1.38
97 10.86
98 1.31
99 10
100 1.33
109 2.7
111 1.5
123 2.1
125 10.26
126 1.79
127 1.53
139 1.31
140 6.87
141 13.5
142 2.6
143 1.05
151 1.56
155 46.31
156 8.68
157 3.85
197 99.99
198 22.16
199 9.12
200 1.34
254 2.53

$$$$

     RDKit          2D

 19 19  0  0  0  0  0  0  0  0999 V2000
   -7.4192    4.1705    0.0000 C   0  0  0  0  0  0  0  0  0  0  0  0
   -4.8212    5.6705    0.0000 C   0  0  0  0  0  0  0  0  0  0  0  0
   -2.7721    7.7195    0.0000 C   0  0  0  0  0  0  0  0  0  0  0  0
   -4.8212    7.1705    0.0000 C   0  0  0  0  0  0  0  0  0  0  0  0
   -4.2721    5.1214    0.0000 C   0  0  0  0  0  0  0  0  0  0  0  0
   -6.1202    3.4205    0.0000 C   0  0  0  0  0  0  0  0  0  0  0  0
    4.2721    1.9205    0.0000 C   0  0  0  0  0  0  0  0  0  0  0  0
    4.2726    3.4213    0.0000 C   0  0  0  0  0  0  0  0  0  0  0  0
    2.9726    1.1696    0.0000 C   0  0  0  0  0  0  0  0  0  0  0  0
    2.9736    4.1713    0.0000 C   0  0  0  0  0  0  0  0  0  0  0  0
    1.6736    1.9196    0.0000 C   0  0  0  0  0  0  0  0  0  0  0  0
    0.3750    4.1705    0.0000 C   0  0  0  0  0  0  0  0  0  0  0  0
   -0.9240    3.4205    0.0000 C   0  0  0  0  0  0  0  0  0  0  0  0
   -3.5221    3.4205    0.0000 C   0  0  0  0  0  0  0  0  0  0  0  0
   -4.8212    4.1705    0.0000 C   0  0  0  0  0  0  0  0  0  0  0  0
    1.6740    3.4205    0.0000 C   0  0  0  0  0  0  0  0  0  0  0  0
   -2.2231    4.1705    0.0000 C   0  0  0  0  0  0  0  0  0  0  0  0
   -2.2231    5.6705    0.0000 O   0  0  0  0  0  0  0  0  0  0  0  0
   -3.5221    6.4205    0.0000 Si  0  0  0  0  0  4  0  0  0  0  0  0
  6  1  2  0
  8  7  2  0
  9  7  1  0
 10  8  1  0
 11  9  2  0
 13 12  1  0
 15  2  2  0
 15  6  1  0
 15 14  1  0
 16 10  2  0
 16 11  1  0
 16 12  1  0
 17 13  1  0
 17 14  1  0
 18 17  1  0
 19  3  1  0
 19  4  1  0
 19  5  1  0
 19 18  1  0
M  END
>  <NAME>  (5952) 
3-METHYLENE-7-PHENYL-5-TRIMETHYLSILOXY-1-HEPTENE

>  <SYNONYMS>  (5952) 


>  <SPECTRUM TYPE>  (5952) 
MS1

>  <INSTRUMENT TYPE>  (5952) 
EI-B

>  <INSTRUMENT>  (5952) 
JEOL JMS-D-3000

>  <ION MODE>  (5952) 
P

>  <INCHIKEY>  (5952) 
ITNCTDBNPCKRAP-UHFFFAOYSA-N

>  <FORMULA>  (5952) 
C17H26OSi

>  <EXACT MASS>  (5952) 
274.175291982

>  <MW>  (5952) 
274

>  <ID>  (5952) 
JP002288

>  <CONTRIBUTOR>  (5952) 
University of Tokyo Team, {Faculty of Engineering, University of Tokyo

>  <COMMENT>  (5952) 
SMILES=C=CC(=C)CC(CCc(c1)cccc1)O[Si](C)(C)C
InChI=InChI=1S/C17H26OSi/c1-6-15(2)14-17(18-19(3,4)5)13-12-16-10-8-7-9-11-16/h6-11,17H,1-2,12-14H2,3-5H3
computed SMILES=O(C(CC(=C)C=C)CCC=1C=CC=CC1)[Si](C)(C)C
accession=JP002288
date=2016.01.19 (Created 2008.10.21, modified 2011.05.06)
author=MASS SPECTROSCOPY SOC. OF JAPAN (MSSJ)
license=CC BY-NC-SA
exact mass=274.17529
ionization energy=70 eV
ion type=[M]+*
computed spectral entropy=2.779706007416805
computed normalized entropy=0.8255009799444828
SPLASH=splash10-00di-9310000000-ba395a56738e09763fdf
submitter=submitter = University of Tokyo Team (Faculty of Engineering, University of Tokyo)
MoNA Rating=3.75

>  <NUM PEAKS>  (5952) 
29

>  <MASS SPECTRAL PEAKS>  (5952) 
43 4.12
45 10.81
59 8.41
65 4.73
73 99.99
74 8.39
75 15.97
77 4.89
78 3.22
79 6.02
80 4.24
91 52.75
92 9.88
93 7.69
97 3.92
103 10.43
104 6.4
105 5.64
117 23.98
155 3.59
156 3.22
169 29.55
170 5.02
184 5.19
187 5.69
207 28.58
208 5.26
274 13.65
275 3.5

$$$$

     RDKit          2D

 19 20  0  0  0  0  0  0  0  0999 V2000
    2.5850   -2.4751    0.0000 C   0  0  0  0  0  0  0  0  0  0  0  0
    4.6340   -1.9260    0.0000 C   0  0  0  0  0  0  0  0  0  0  0  0
    4.0850    0.1230    0.0000 C   0  0  0  0  0  0  0  0  0  0  0  0
   -8.3572    1.0738    0.0000 C   0  0  0  0  0  0  0  0  0  0  0  0
   -8.3574   -0.4271    0.0000 C   0  0  0  0  0  0  0  0  0  0  0  0
   -7.0578    1.8248    0.0000 C   0  0  0  0  0  0  0  0  0  0  0  0
   -7.0583   -1.1769    0.0000 C   0  0  0  0  0  0  0  0  0  0  0  0
   -5.7586    1.0750    0.0000 C   0  0  0  0  0  0  0  0  0  0  0  0
   -4.4597   -1.1756    0.0000 C   0  0  0  0  0  0  0  0  0  0  0  0
   -3.1608   -0.4254    0.0000 C   0  0  0  0  0  0  0  0  0  0  0  0
    0.7374   -2.6769    0.0000 C   0  0  0  0  0  0  0  0  0  0  0  0
   -0.5616   -3.4269    0.0000 C   0  0  0  0  0  0  0  0  0  0  0  0
   -0.5626   -0.4252    0.0000 C   0  0  0  0  0  0  0  0  0  0  0  0
    2.0360   -0.4260    0.0000 C   0  0  0  0  0  0  0  0  0  0  0  0
   -5.7589   -0.4258    0.0000 C   0  0  0  0  0  0  0  0  0  0  0  0
    0.7369   -1.1760    0.0000 C   0  0  0  0  0  0  0  0  0  0  0  0
   -1.8616   -1.1752    0.0000 C   0  0  0  0  0  0  0  0  0  0  0  0
   -1.8611   -2.6760    0.0000 O   0  0  0  0  0  0  0  0  0  0  0  0
    3.3350   -1.1760    0.0000 Si  0  0  0  0  0  4  0  0  0  0  0  0
  5  4  2  0
  6  4  1  0
  7  5  1  0
  8  6  2  0
 10  9  1  0
 12 11  1  0
 15  7  2  0
 15  8  1  0
 15  9  1  0
 16 11  2  0
 16 13  1  0
 16 14  1  0
 17 10  1  0
 17 13  1  0
 18 12  1  0
 18 17  1  0
 19  1  1  0
 19  2  1  0
 19  3  1  0
 19 14  1  0
M  END
>  <NAME>  (5953) 
4-TRIMETHYLSILYLMETHYL-6-(2-PHENYLETHYL)-5,6-DIHYDRO-2H-PYRAN

>  <SYNONYMS>  (5953) 


>  <SPECTRUM TYPE>  (5953) 
MS1

>  <INSTRUMENT TYPE>  (5953) 
EI-B

>  <INSTRUMENT>  (5953) 
JEOL JMS-D-3000

>  <ION MODE>  (5953) 
P

>  <INCHIKEY>  (5953) 
HARHZXXSHAMBPR-UHFFFAOYSA-N

>  <FORMULA>  (5953) 
C17H26OSi

>  <EXACT MASS>  (5953) 
274.175291982

>  <MW>  (5953) 
274

>  <ID>  (5953) 
JP002287

>  <CONTRIBUTOR>  (5953) 
University of Tokyo Team, {Faculty of Engineering, University of Tokyo

>  <COMMENT>  (5953) 
SMILES=c(c2)ccc(c2)CCC(O1)CC(=CC1)C[Si](C)(C)C
InChI=InChI=1S/C17H26OSi/c1-19(2,3)14-16-11-12-18-17(13-16)10-9-15-7-5-4-6-8-15/h4-8,11,17H,9-10,12-14H2,1-3H3
computed SMILES=O1CC=C(CC1CCC=2C=CC=CC2)C[Si](C)(C)C
accession=JP002287
date=2016.01.19 (Created 2008.10.21, modified 2011.05.06)
author=MASS SPECTROSCOPY SOC. OF JAPAN (MSSJ)
license=CC BY-NC-SA
exact mass=274.17529
ionization energy=70 eV
ion type=[M]+*
computed spectral entropy=2.62251415107559
computed normalized entropy=0.8049221747947785
SPLASH=splash10-00dl-9210000000-3d789ae87b3a6bab10bd
submitter=submitter = University of Tokyo Team (Faculty of Engineering, University of Tokyo)
MoNA Rating=3.75

>  <NUM PEAKS>  (5953) 
26

>  <MASS SPECTRAL PEAKS>  (5953) 
43 3.54
45 10.34
59 8.94
65 4
73 99.99
74 8.56
75 16.48
77 4.03
78 3.62
79 6.25
80 4.3
91 51.25
92 10.06
93 8.38
103 8.15
104 6.99
105 5.15
117 23.5
125 3.65
155 3.5
156 3.56
169 9.06
184 3.47
207 26.17
208 5.04
274 4.82

$$$$

     RDKit          2D

 18 19  0  0  0  0  0  0  0  0999 V2000
    0.6276   -1.7732    0.0000 C   0  0  0  0  0  0  0  0  0  0  0  0
   -8.7927   -1.0232    0.0000 C   0  0  0  0  0  0  0  0  0  0  0  0
   -8.2437   -3.0722    0.0000 C   0  0  0  0  0  0  0  0  0  0  0  0
   -6.1947   -2.5232    0.0000 C   0  0  0  0  0  0  0  0  0  0  0  0
   -0.8724   -1.7732    0.0000 C   0  0  0  0  0  0  0  0  0  0  0  0
   -4.1830    3.5865    0.0000 C   0  0  0  0  0  0  0  0  0  0  0  0
   -2.8840    2.8365    0.0000 C   0  0  0  0  0  0  0  0  0  0  0  0
   -1.6224   -0.4742    0.0000 C   0  0  0  0  0  0  0  0  0  0  0  0
   -5.4821    2.8365    0.0000 C   0  0  0  0  0  0  0  0  0  0  0  0
   -2.8840    1.3365    0.0000 C   0  0  0  0  0  0  0  0  0  0  0  0
   -4.1830   -1.5348    0.0000 C   0  0  0  0  0  0  0  0  0  0  0  0
   -6.7437   -0.4742    0.0000 C   0  0  0  0  0  0  0  0  0  0  0  0
   -3.1224   -0.4742    0.0000 C   0  0  0  0  0  0  0  0  0  0  0  0
   -5.2437   -0.4742    0.0000 C   0  0  0  0  0  0  0  0  0  0  0  0
   -5.4821    1.3365    0.0000 C   0  0  0  0  0  0  0  0  0  0  0  0
   -4.1830    0.5865    0.0000 C   0  0  0  0  0  0  0  0  0  0  0  0
   -6.7811    0.5865    0.0000 O   0  0  0  0  0  0  0  0  0  0  0  0
   -7.4937   -1.7732    0.0000 Si  0  0  0  0  0  4  0  0  0  0  0  0
  5  1  1  0
  7  6  1  0
  8  5  1  0
  9  6  1  0
 10  7  1  0
 13  8  1  0
 13 11  1  0
 14 11  1  0
 14 12  1  0
 15  9  1  0
 16 10  1  0
 16 13  1  0
 16 14  1  0
 16 15  1  0
 17 15  2  0
 18  2  1  0
 18  3  1  0
 18  4  1  0
 18 12  1  0
M  END
>  <NAME>  (5954) 
3-PROPYL-1-TRIMETHYLSILYLMETHYLSPIRO(3.5)NONAN-5-ONE

>  <SYNONYMS>  (5954) 


>  <SPECTRUM TYPE>  (5954) 
MS1

>  <INSTRUMENT TYPE>  (5954) 
EI-B

>  <INSTRUMENT>  (5954) 
JEOL JMS-D-3000

>  <ION MODE>  (5954) 
P

>  <INCHIKEY>  (5954) 
HBGMUTZBIXAHPY-UHFFFAOYSA-N

>  <FORMULA>  (5954) 
C16H30OSi

>  <EXACT MASS>  (5954) 
266.20659211

>  <MW>  (5954) 
266

>  <ID>  (5954) 
JP002286

>  <CONTRIBUTOR>  (5954) 
University of Tokyo Team, {Faculty of Engineering, University of Tokyo

>  <COMMENT>  (5954) 
SMILES=CCCC(C1)C(C2)(C(=O)CCC2)C(C[Si](C)(C)C)1
InChI=InChI=1S/C16H30OSi/c1-5-8-13-11-14(12-18(2,3)4)16(13)10-7-6-9-15(16)17/h13-14H,5-12H2,1-4H3
computed SMILES=O=C1CCCCC12C(CCC)CC2C[Si](C)(C)C
accession=JP002286
date=2016.01.19 (Created 2008.10.21, modified 2011.05.06)
author=MASS SPECTROSCOPY SOC. OF JAPAN (MSSJ)
license=CC BY-NC-SA
exact mass=266.20659
ionization energy=70 eV
ion type=[M]+*
computed spectral entropy=3.476245305603323
computed normalized entropy=0.8456219822016818
SPLASH=splash10-0fk9-9810000000-a8359ff00de37be684ad
submitter=submitter = University of Tokyo Team (Faculty of Engineering, University of Tokyo)
MoNA Rating=3.75

>  <NUM PEAKS>  (5954) 
61

>  <MASS SPECTRAL PEAKS>  (5954) 
42 8.61
43 3.67
45 7.22
53 4.18
55 5.95
59 11.91
61 3.16
65 3.8
67 11.91
68 3.16
69 3.04
73 99.99
74 9.12
75 23.19
77 5.32
79 9.12
80 4.43
81 5.7
91 21.03
92 4.18
93 9.37
95 6.21
98 3.16
103 2.91
105 5.32
109 5.19
111 34.72
112 3.54
117 3.29
119 6.46
121 3.42
122 3.04
123 3.29
128 3.04
129 3.04
131 4.94
132 3.04
133 12.04
134 3.29
135 6.08
143 2.91
145 5.7
149 3.67
151 3.54
152 4.68
153 70.59
154 8.87
170 6.97
171 3.04
174 4.18
175 6.21
176 3.42
181 3.16
183 24.2
184 3.92
223 15.71
224 3.29
225 12.8
226 2.78
251 3.16
266 3.54

$$$$

     RDKit          2D

 18 19  0  0  0  0  0  0  0  0999 V2000
    2.2731    7.2579    0.0000 C   0  0  0  0  0  0  0  0  0  0  0  0
   -4.2221    0.5079    0.0000 C   0  0  0  0  0  0  0  0  0  0  0  0
    4.8712    2.7579    0.0000 C   0  0  0  0  0  0  0  0  0  0  0  0
   -2.9226   -0.2429    0.0000 C   0  0  0  0  0  0  0  0  0  0  0  0
   -4.2226    2.0087    0.0000 C   0  0  0  0  0  0  0  0  0  0  0  0
    4.8716    4.2587    0.0000 C   0  0  0  0  0  0  0  0  0  0  0  0
    3.5716    2.0071    0.0000 C   0  0  0  0  0  0  0  0  0  0  0  0
   -1.6236    0.5071    0.0000 C   0  0  0  0  0  0  0  0  0  0  0  0
   -2.9236    2.7587    0.0000 C   0  0  0  0  0  0  0  0  0  0  0  0
    3.5726    5.0087    0.0000 C   0  0  0  0  0  0  0  0  0  0  0  0
    2.2726    2.7571    0.0000 C   0  0  0  0  0  0  0  0  0  0  0  0
   -0.3250    4.2579    0.0000 C   0  0  0  0  0  0  0  0  0  0  0  0
   -1.6240    2.0079    0.0000 C   0  0  0  0  0  0  0  0  0  0  0  0
    2.2731    4.2579    0.0000 C   0  0  0  0  0  0  0  0  0  0  0  0
   -0.3250    2.7579    0.0000 C   0  0  0  0  0  0  0  0  0  0  0  0
    0.9740    5.0079    0.0000 C   0  0  0  0  0  0  0  0  0  0  0  0
    0.9740    2.0079    0.0000 O   0  0  0  0  0  0  0  0  0  0  0  0
    0.9740    6.5079    0.0000 O   0  0  0  0  0  0  0  0  0  0  0  0
  4  2  2  0
  5  2  1  0
  6  3  2  0
  7  3  1  0
  8  4  1  0
  9  5  2  0
 10  6  1  0
 11  7  2  0
 13  8  2  0
 13  9  1  0
 14 10  2  0
 14 11  1  0
 15 12  1  0
 15 13  1  0
 16 12  1  0
 16 14  1  0
 17 15  2  0
 18  1  1  0
 18 16  1  0
M  END
>  <NAME>  (5955) 
3-METHOXY-3-PHENYLPROPIOPHENONE

>  <SYNONYMS>  (5955) 


>  <SPECTRUM TYPE>  (5955) 
MS1

>  <INSTRUMENT TYPE>  (5955) 
EI-B

>  <INSTRUMENT>  (5955) 
JEOL JMS-D-3000

>  <ION MODE>  (5955) 
P

>  <INCHIKEY>  (5955) 
AVZUDRKDFJPJMF-UHFFFAOYSA-N

>  <FORMULA>  (5955) 
C16H16O2

>  <EXACT MASS>  (5955) 
240.115029752

>  <MW>  (5955) 
240

>  <ID>  (5955) 
JP002285

>  <CONTRIBUTOR>  (5955) 
University of Tokyo Team, {Faculty of Engineering, University of Tokyo

>  <COMMENT>  (5955) 
SMILES=COC(CC(=O)c(c2)cccc2)c(c1)cccc1
InChI=InChI=1S/C16H16O2/c1-18-16(14-10-6-3-7-11-14)12-15(17)13-8-4-2-5-9-13/h2-11,16H,12H2,1H3
computed SMILES=O=C(C=1C=CC=CC1)CC(OC)C=2C=CC=CC2
accession=JP002285
date=2016.01.19 (Created 2008.10.21, modified 2011.05.06)
author=MASS SPECTROSCOPY SOC. OF JAPAN (MSSJ)
license=CC BY-NC-SA
exact mass=240.11503
ionization energy=70 eV
ion type=[M]+*
computed spectral entropy=2.4669527521928853
computed normalized entropy=0.7403365383666609
SPLASH=splash10-0adi-3920000000-d6dcabb7be28f24baa41
submitter=submitter = University of Tokyo Team (Faculty of Engineering, University of Tokyo)
MoNA Rating=3.75

>  <NUM PEAKS>  (5955) 
28

>  <MASS SPECTRAL PEAKS>  (5955) 
40 1.39
50 3.17
51 12.66
52 1.51
63 1.58
65 2.16
75 1.51
76 2.47
77 55.32
78 8.36
89 1.7
91 10.38
102 2.09
103 11.08
104 9.14
105 96.08
106 8.98
121 99.99
122 8.48
130 2.05
131 6.16
179 2.28
207 15.76
208 15.53
209 2.9
225 35.91
226 6.16
240 4.14

$$$$

     RDKit          2D

 17 17  0  0  0  0  0  0  0  0999 V2000
    5.8100    4.1490    0.0000 C   0  0  0  0  0  0  0  0  0  0  0  0
   -3.1900    1.5500    0.0000 C   0  0  0  0  0  0  0  0  0  0  0  0
   -2.4400    0.2500    0.0000 C   0  0  0  0  0  0  0  0  0  0  0  0
   -2.4400    2.8500    0.0000 C   0  0  0  0  0  0  0  0  0  0  0  0
   -0.9400    0.2500    0.0000 C   0  0  0  0  0  0  0  0  0  0  0  0
   -0.9400    2.8500    0.0000 C   0  0  0  0  0  0  0  0  0  0  0  0
   -0.1900   -1.0500    0.0000 C   0  0  0  0  0  0  0  0  0  0  0  0
   -0.1900    4.1500    0.0000 C   0  0  0  0  0  0  0  0  0  0  0  0
    1.3100   -1.0500    0.0000 C   0  0  0  0  0  0  0  0  0  0  0  0
    1.3100    4.1500    0.0000 C   0  0  0  0  0  0  0  0  0  0  0  0
    2.0600    0.2500    0.0000 C   0  0  0  0  0  0  0  0  0  0  0  0
    3.5600    2.8500    0.0000 C   0  0  0  0  0  0  0  0  0  0  0  0
    4.3100    4.1490    0.0000 C   0  0  0  0  0  0  0  0  0  0  0  0
    2.0600    2.8500    0.0000 C   0  0  0  0  0  0  0  0  0  0  0  0
    1.3100    1.5500    0.0000 C   0  0  0  0  0  0  0  0  0  0  0  0
    3.5600    5.4481    0.0000 O   0  0  0  0  0  0  0  0  0  0  0  0
   -0.1900    1.5500    0.0000 O   0  0  0  0  0  0  0  0  0  0  0  0
  3  2  1  0
  4  2  1  0
  5  3  1  0
  6  4  1  0
  7  5  1  0
  8  6  1  0
  9  7  1  0
 10  8  1  0
 11  9  1  0
 13  1  1  0
 13 12  1  0
 14 10  1  0
 14 12  1  0
 15 11  1  0
 15 14  1  0
 16 13  2  0
 17 15  2  0
M  END
>  <NAME>  (5956) 
2-(2-OXOPROPYL)CYCLODODECANONE

>  <SYNONYMS>  (5956) 


>  <SPECTRUM TYPE>  (5956) 
MS1

>  <INSTRUMENT TYPE>  (5956) 
EI-B

>  <INSTRUMENT>  (5956) 
JEOL JMS-D-3000

>  <ION MODE>  (5956) 
P

>  <INCHIKEY>  (5956) 
GNMCLGGNPWOVOH-UHFFFAOYSA-N

>  <FORMULA>  (5956) 
C15H26O2

>  <EXACT MASS>  (5956) 
238.193280072

>  <MW>  (5956) 
238

>  <ID>  (5956) 
JP002284

>  <CONTRIBUTOR>  (5956) 
University of Tokyo Team, {Faculty of Engineering, University of Tokyo

>  <COMMENT>  (5956) 
SMILES=CC(=O)CC(C1)C(=O)CCCCCCCCC1
InChI=InChI=1S/C15H26O2/c1-13(16)12-14-10-8-6-4-2-3-5-7-9-11-15(14)17/h14H,2-12H2,1H3
computed SMILES=O=C(C)CC1C(=O)CCCCCCCCCC1
accession=JP002284
date=2016.01.19 (Created 2008.10.21, modified 2011.05.06)
author=MASS SPECTROSCOPY SOC. OF JAPAN (MSSJ)
license=CC BY-NC-SA
exact mass=238.19328
ionization energy=70 eV
ion type=[M]+*
computed spectral entropy=2.9460821503752337
computed normalized entropy=0.9531031018918592
SPLASH=splash10-052g-9310000000-24be8fadaaa24ce82f36
submitter=submitter = University of Tokyo Team (Faculty of Engineering, University of Tokyo)
MoNA Rating=3.75

>  <NUM PEAKS>  (5956) 
22

>  <MASS SPECTRAL PEAKS>  (5956) 
42 29.75
43 99.99
55 39.44
67 15.72
69 22.28
71 24.11
81 22.28
82 16.9
83 15.46
95 24.77
96 30.79
97 17.43
98 33.55
108 13.36
109 29.88
111 14.15
114 32.37
121 17.56
181 14.41
195 37.35
220 28.7
238 36.3

$$$$

     RDKit          2D

 15 15  0  0  0  0  0  0  0  0999 V2000
    9.0942    0.7512    0.0000 C   0  0  0  0  0  0  0  0  0  0  0  0
    7.7948    3.0010    0.0000 C   0  0  0  0  0  0  0  0  0  0  0  0
   -2.5989   -1.5002    0.0000 C   0  0  0  0  0  0  0  0  0  0  0  0
    2.5987    3.0002    0.0000 C   0  0  0  0  0  0  0  0  0  0  0  0
    5.1970    1.5006    0.0000 C   0  0  0  0  0  0  0  0  0  0  0  0
    6.4962    0.7508    0.0000 C   0  0  0  0  0  0  0  0  0  0  0  0
    3.8981    0.7504    0.0000 C   0  0  0  0  0  0  0  0  0  0  0  0
   -1.3000    0.7500    0.0000 C   0  0  0  0  0  0  0  0  0  0  0  0
   -0.0000   -1.5000    0.0000 C   0  0  0  0  0  0  0  0  0  0  0  0
    0.0000    1.5000    0.0000 C   0  0  0  0  0  0  0  0  0  0  0  0
    1.3000   -0.7500    0.0000 C   0  0  0  0  0  0  0  0  0  0  0  0
    7.7951    1.5010    0.0000 C   0  0  0  0  0  0  0  0  0  0  0  0
   -1.3000   -0.7500    0.0000 C   0  0  0  0  0  0  0  0  0  0  0  0
    2.5989    1.5002    0.0000 C   0  0  0  0  0  0  0  0  0  0  0  0
    1.3000    0.7500    0.0000 C   0  0  0  0  0  0  0  0  0  0  0  0
  6  5  1  0
  7  5  1  0
 10  8  1  0
 11  9  1  0
 12  1  1  0
 12  2  1  0
 12  6  2  0
 13  3  1  0
 13  8  2  0
 13  9  1  0
 14  4  2  0
 14  7  1  0
 15 10  1  0
 15 11  1  0
 15 14  1  0
M  END
>  <NAME>  (5957) 
1-METHYL-4-(1-METHYLENE-5-METHYL-4-HEXENYL)CYCLOHEXENE

>  <SYNONYMS>  (5957) 


>  <SPECTRUM TYPE>  (5957) 
MS1

>  <INSTRUMENT TYPE>  (5957) 
EI-B

>  <INSTRUMENT>  (5957) 
JEOL JMS-D-3000

>  <ION MODE>  (5957) 
P

>  <INCHIKEY>  (5957) 
XZRVRYFILCSYSP-UHFFFAOYSA-N

>  <FORMULA>  (5957) 
C15H24

>  <EXACT MASS>  (5957) 
204.187800768

>  <MW>  (5957) 
204

>  <ID>  (5957) 
JP002283

>  <CONTRIBUTOR>  (5957) 
University of Tokyo Team, {Faculty of Engineering, University of Tokyo

>  <COMMENT>  (5957) 
SMILES=CC(C)=CCCC(=C)C(C1)CC([H])=C(C)C1
InChI=InChI=1S/C15H24/c1-12(2)6-5-7-14(4)15-10-8-13(3)9-11-15/h6,8,15H,4-5,7,9-11H2,1-3H3
computed SMILES=C=C(CCC=C(C)C)C1CC=C(C)CC1
accession=JP002283
date=2016.01.19 (Created 2008.10.21, modified 2011.05.06)
author=MASS SPECTROSCOPY SOC. OF JAPAN (MSSJ)
license=CC BY-NC-SA
exact mass=204.1878
ionization energy=70 eV
ion type=[M]+*
computed spectral entropy=3.105728845533055
computed normalized entropy=0.9320342842251778
SPLASH=splash10-00kf-9410000000-63ed3a2552a50f20d1fb
submitter=submitter = University of Tokyo Team (Faculty of Engineering, University of Tokyo)
MoNA Rating=3.75

>  <NUM PEAKS>  (5957) 
28

>  <MASS SPECTRAL PEAKS>  (5957) 
41 65.35
53 13.09
55 17.13
67 33.57
68 12.61
69 96.34
77 17.13
79 33.62
80 13.09
81 18.75
91 24.67
92 22.13
93 99.99
94 45.2
95 19.16
105 24.28
107 30.65
108 14.08
109 44.13
119 35.3
120 13.75
121 25.78
133 13.98
134 15.76
135 18.22
161 34.23
204 76.82
205 15.53

$$$$

     RDKit          2D

 17 18  0  0  0  0  0  0  0  0999 V2000
   -4.5347    2.6480    0.0000 C   0  0  0  0  0  0  0  0  0  0  0  0
   -6.5837    2.0989    0.0000 C   0  0  0  0  0  0  0  0  0  0  0  0
   -6.0347    0.0499    0.0000 C   0  0  0  0  0  0  0  0  0  0  0  0
    3.8094   -0.9013    0.0000 C   0  0  0  0  0  0  0  0  0  0  0  0
    3.8096    0.5995    0.0000 C   0  0  0  0  0  0  0  0  0  0  0  0
    2.5100   -1.6523    0.0000 C   0  0  0  0  0  0  0  0  0  0  0  0
    2.5105    1.3493    0.0000 C   0  0  0  0  0  0  0  0  0  0  0  0
    1.2108   -0.9025    0.0000 C   0  0  0  0  0  0  0  0  0  0  0  0
   -2.6871    2.8497    0.0000 C   0  0  0  0  0  0  0  0  0  0  0  0
   -1.3881    3.5997    0.0000 C   0  0  0  0  0  0  0  0  0  0  0  0
   -1.3871    0.5981    0.0000 C   0  0  0  0  0  0  0  0  0  0  0  0
   -3.9857    0.5989    0.0000 C   0  0  0  0  0  0  0  0  0  0  0  0
   -2.6866    1.3489    0.0000 C   0  0  0  0  0  0  0  0  0  0  0  0
    1.2111    0.5983    0.0000 C   0  0  0  0  0  0  0  0  0  0  0  0
   -0.0881    1.3481    0.0000 C   0  0  0  0  0  0  0  0  0  0  0  0
   -0.0886    2.8489    0.0000 O   0  0  0  0  0  0  0  0  0  0  0  0
   -5.2847    1.3489    0.0000 Si  0  0  0  0  0  4  0  0  0  0  0  0
  5  4  2  0
  6  4  1  0
  7  5  1  0
  8  6  2  0
 10  9  1  0
 13  9  2  0
 13 11  1  0
 13 12  1  0
 14  7  2  0
 14  8  1  0
 15 11  1  0
 15 14  1  0
 16 10  1  0
 16 15  1  0
 17  1  1  0
 17  2  1  0
 17  3  1  0
 17 12  1  0
M  END
>  <NAME>  (5958) 
4-TRIMETHYLSILYLMETHYL-6-PHENYL-5,6-DIHYDRO-2H-PYRAN

>  <SYNONYMS>  (5958) 


>  <SPECTRUM TYPE>  (5958) 
MS1

>  <INSTRUMENT TYPE>  (5958) 
EI-B

>  <INSTRUMENT>  (5958) 
JEOL JMS-D-3000

>  <ION MODE>  (5958) 
P

>  <INCHIKEY>  (5958) 
XZFMEUWLAAFAPN-UHFFFAOYSA-N

>  <FORMULA>  (5958) 
C15H22OSi

>  <EXACT MASS>  (5958) 
246.14399185399998

>  <MW>  (5958) 
246

>  <ID>  (5958) 
JP002282

>  <CONTRIBUTOR>  (5958) 
University of Tokyo Team, {Faculty of Engineering, University of Tokyo

>  <COMMENT>  (5958) 
SMILES=c(c2)ccc(c2)C(O1)CC(=CC1)C[Si](C)(C)C
InChI=InChI=1S/C15H22OSi/c1-17(2,3)12-13-9-10-16-15(11-13)14-7-5-4-6-8-14/h4-9,15H,10-12H2,1-3H3
computed SMILES=O1CC=C(CC1C=2C=CC=CC2)C[Si](C)(C)C
accession=JP002282
date=2016.01.19 (Created 2008.10.21, modified 2011.05.06)
author=MASS SPECTROSCOPY SOC. OF JAPAN (MSSJ)
license=CC BY-NC-SA
exact mass=246.14399
ionization energy=70 eV
ion type=[M]+*
computed spectral entropy=2.58562895887289
computed normalized entropy=0.8135887863767887
SPLASH=splash10-00di-9500000000-f005c26cf6bb36312b65
submitter=submitter = University of Tokyo Team (Faculty of Engineering, University of Tokyo)
MoNA Rating=3.75

>  <NUM PEAKS>  (5958) 
24

>  <MASS SPECTRAL PEAKS>  (5958) 
43 4.21
45 8.47
51 3.84
59 7.1
73 99.99
74 9.71
75 12.81
77 9.88
91 8.35
98 5.44
104 3.82
105 9.82
106 6.82
125 3.42
128 6.54
129 4.45
140 8.77
141 9.6
155 6.62
156 12.13
179 32.83
180 5.4
231 6.51
246 4.11

$$$$

     RDKit          2D

 19 19  0  0  0  0  0  0  0  0999 V2000
    1.6238    5.0075    0.0000 C   0  0  0  0  0  0  0  0  0  0  0  0
    4.2219    2.0075    0.0000 C   0  0  0  0  0  0  0  0  0  0  0  0
    2.9228   -0.2425    0.0000 C   0  0  0  0  0  0  0  0  0  0  0  0
   -4.8714    4.2575    0.0000 C   0  0  0  0  0  0  0  0  0  0  0  0
   -4.8719    2.7567    0.0000 C   0  0  0  0  0  0  0  0  0  0  0  0
   -3.5719    5.0083    0.0000 C   0  0  0  0  0  0  0  0  0  0  0  0
   -3.5728    2.0067    0.0000 C   0  0  0  0  0  0  0  0  0  0  0  0
   -2.2728    4.2583    0.0000 C   0  0  0  0  0  0  0  0  0  0  0  0
   -0.9743    0.5075    0.0000 C   0  0  0  0  0  0  0  0  0  0  0  0
    0.3248   -0.2425    0.0000 C   0  0  0  0  0  0  0  0  0  0  0  0
    0.3248    4.2575    0.0000 C   0  0  0  0  0  0  0  0  0  0  0  0
   -2.2733    2.7575    0.0000 C   0  0  0  0  0  0  0  0  0  0  0  0
   -0.9743    2.0075    0.0000 C   0  0  0  0  0  0  0  0  0  0  0  0
    0.3248    2.7575    0.0000 C   0  0  0  0  0  0  0  0  0  0  0  0
    1.6238    2.0075    0.0000 C   0  0  0  0  0  0  0  0  0  0  0  0
    0.3248   -1.7425    0.0000 O   0  0  0  0  0  0  0  0  0  0  0  0
   -0.9743    5.0075    0.0000 O   0  0  0  0  0  0  0  0  0  0  0  0
    2.9228    2.7575    0.0000 O   0  0  0  0  0  0  0  0  0  0  0  0
    1.6238    0.5075    0.0000 O   0  0  0  0  0  0  0  0  0  0  0  0
  5  4  2  0
  6  4  1  0
  7  5  1  0
  8  6  2  0
 10  9  1  0
 11  1  1  0
 12  7  2  0
 12  8  1  0
 13  9  1  0
 13 12  1  0
 14 11  1  0
 14 13  1  0
 15 14  1  0
 16 10  2  0
 17 11  2  0
 18  2  1  0
 18 15  1  0
 19  3  1  0
 19 15  1  0
M  END
>  <NAME>  (5959) 
4-DIMETHOXYMETHYL-3-PHENYL-5-OXOHEXANAL

>  <SYNONYMS>  (5959) 


>  <SPECTRUM TYPE>  (5959) 
MS1

>  <INSTRUMENT TYPE>  (5959) 
EI-B

>  <INSTRUMENT>  (5959) 
JEOL JMS-D-3000

>  <ION MODE>  (5959) 
P

>  <INCHIKEY>  (5959) 
UBLRDRTVLCTAKO-UHFFFAOYSA-N

>  <FORMULA>  (5959) 
C15H20O4

>  <EXACT MASS>  (5959) 
264.13615912

>  <MW>  (5959) 
264

>  <ID>  (5959) 
JP002281

>  <CONTRIBUTOR>  (5959) 
University of Tokyo Team, {Faculty of Engineering, University of Tokyo

>  <COMMENT>  (5959) 
SMILES=O=CCC(c(c1)cccc1)C(C(C)=O)C(OC)OC
InChI=InChI=1S/C15H20O4/c1-11(17)14(15(18-2)19-3)13(9-10-16)12-7-5-4-6-8-12/h4-8,10,13-15H,9H2,1-3H3
computed SMILES=O=CCC(C=1C=CC=CC1)C(C(=O)C)C(OC)OC
accession=JP002281
date=2016.01.19 (Created 2008.10.21, modified 2011.05.06)
author=MASS SPECTROSCOPY SOC. OF JAPAN (MSSJ)
license=CC BY-NC-SA
exact mass=264.13616
ionization energy=70 eV
ion type=[M]+*
computed spectral entropy=3.3830378721217365
computed normalized entropy=0.8367536417448608
SPLASH=splash10-0059-5910000000-27ca3eeee38a3431a9e5
submitter=submitter = University of Tokyo Team (Faculty of Engineering, University of Tokyo)
MoNA Rating=3.75

>  <NUM PEAKS>  (5959) 
57

>  <MASS SPECTRAL PEAKS>  (5959) 
18 1.56
28 2.02
29 1.96
31 15.91
43 13.12
58 2.44
60 2.51
68 1.69
71 2.46
75 99.99
76 3.39
77 1.89
78 2.53
85 20.1
91 2
95 8.45
100 5.3
101 21.62
103 5.85
104 14.93
105 4.75
115 3.92
117 1.59
123 2.32
128 4.74
129 11
130 5.86
131 37.97
132 21.03
133 2.8
141 1.46
143 3.83
145 4.33
146 3.62
147 13.42
148 1.84
154 2.02
155 3.64
157 22.45
158 9.13
159 2.63
171 8.43
172 25.94
173 6.47
183 1.44
185 1.45
189 14.18
190 3.16
199 3.78
200 13.38
201 3.13
204 2.18
213 2.02
214 20.57
215 3.26
232 3.46
246 4.02

$$$$

     RDKit          2D

 17 18  0  0  0  0  0  0  0  0999 V2000
    4.8961    2.6912    0.0000 C   0  0  0  0  0  0  0  0  0  0  0  0
   -4.1971    4.9412    0.0000 C   0  0  0  0  0  0  0  0  0  0  0  0
   -4.1976    3.4403    0.0000 C   0  0  0  0  0  0  0  0  0  0  0  0
   -2.8976    5.6920    0.0000 C   0  0  0  0  0  0  0  0  0  0  0  0
    3.0402   -1.1123    0.0000 C   0  0  0  0  0  0  0  0  0  0  0  0
   -2.8986    2.6903    0.0000 C   0  0  0  0  0  0  0  0  0  0  0  0
   -1.5986    4.9420    0.0000 C   0  0  0  0  0  0  0  0  0  0  0  0
    3.5162    0.3124    0.0000 C   0  0  0  0  0  0  0  0  0  0  0  0
    1.5475   -1.1099    0.0000 C   0  0  0  0  0  0  0  0  0  0  0  0
   -0.3000    2.6912    0.0000 C   0  0  0  0  0  0  0  0  0  0  0  0
    0.9990    3.4412    0.0000 C   0  0  0  0  0  0  0  0  0  0  0  0
   -1.5991    3.4412    0.0000 C   0  0  0  0  0  0  0  0  0  0  0  0
    2.2981    1.1912    0.0000 C   0  0  0  0  0  0  0  0  0  0  0  0
    1.0875    0.3179    0.0000 C   0  0  0  0  0  0  0  0  0  0  0  0
    2.2981    2.6912    0.0000 C   0  0  0  0  0  0  0  0  0  0  0  0
   -0.3377    0.7856    0.0000 O   0  0  0  0  0  0  0  0  0  0  0  0
    3.5971    3.4412    0.0000 O   0  0  0  0  0  0  0  0  0  0  0  0
  3  2  2  0
  4  2  1  0
  6  3  1  0
  7  4  2  0
  8  5  1  0
  9  5  1  0
 10 11  2  0
 12  6  2  0
 12  7  1  0
 12 10  1  0
 13  8  1  0
 14  9  1  0
 14 13  1  0
 15 11  1  0
 15 13  1  0
 16 14  2  0
 17  1  1  0
 17 15  1  0
M  END
>  <NAME>  (5960) 
2-(1-METHOXY-3-PHENYL-2-PROPENYL)CYCLOPENTANONE

>  <SYNONYMS>  (5960) 


>  <SPECTRUM TYPE>  (5960) 
MS1

>  <INSTRUMENT TYPE>  (5960) 
EI-B

>  <INSTRUMENT>  (5960) 
JEOL JMS-D-3000

>  <ION MODE>  (5960) 
P

>  <INCHIKEY>  (5960) 
HRGKKSYTZKMLOS-ZHACJKMWSA-N

>  <FORMULA>  (5960) 
C15H18O2

>  <EXACT MASS>  (5960) 
230.130679816

>  <MW>  (5960) 
230

>  <ID>  (5960) 
JP002279

>  <CONTRIBUTOR>  (5960) 
University of Tokyo Team, {Faculty of Engineering, University of Tokyo

>  <COMMENT>  (5960) 
SMILES=COC(C=Cc(c2)cccc2)C(C1)C(=O)CC1
InChI=InChI=1S/C15H18O2/c1-17-15(13-8-5-9-14(13)16)11-10-12-6-3-2-4-7-12/h2-4,6-7,10-11,13,15H,5,8-9H2,1H3/b11-10+
computed SMILES=O=C1CCCC1C(OC)C=CC=2C=CC=CC2
accession=JP002279
date=2016.01.19 (Created 2008.10.21, modified 2011.05.06)
author=MASS SPECTROSCOPY SOC. OF JAPAN (MSSJ)
license=CC BY-NC-SA
exact mass=230.13068
ionization energy=70 eV
ion type=[M]+*
computed spectral entropy=3.3099710545873844
computed normalized entropy=0.8800305627920646
SPLASH=splash10-0005-2900000000-463824e9c5eaf39aa09e
submitter=submitter = University of Tokyo Team (Faculty of Engineering, University of Tokyo)
MoNA Rating=3.75

>  <NUM PEAKS>  (5960) 
43

>  <MASS SPECTRAL PEAKS>  (5960) 
41 9.33
44 13.6
51 13.2
55 9.33
63 10.13
65 9.73
71 10.53
76 6.26
77 19.33
78 8.8
79 6.53
85 7.6
89 5.86
91 41.2
102 7.2
103 7.2
104 5.86
115 61.46
116 9.6
117 8.4
121 29.06
127 7.06
128 26
129 15.2
131 7.6
139 6.8
141 93.46
142 65.6
143 12.66
147 77.73
148 10.26
152 5.73
153 8.13
154 20.93
155 24.93
156 16.53
165 5.73
169 9.86
170 16.4
197 27.86
198 99.99
199 14.93
230 5.73

$$$$

     RDKit          2D

 16 17  0  0  0  0  0  0  0  0999 V2000
    3.2481    2.1950    0.0000 C   0  0  0  0  0  0  0  0  0  0  0  0
   -7.1442    2.1950    0.0000 C   0  0  0  0  0  0  0  0  0  0  0  0
    3.2486    3.6958    0.0000 C   0  0  0  0  0  0  0  0  0  0  0  0
    1.9486    1.4442    0.0000 C   0  0  0  0  0  0  0  0  0  0  0  0
   -5.8447    1.4442    0.0000 C   0  0  0  0  0  0  0  0  0  0  0  0
   -7.1447    3.6958    0.0000 C   0  0  0  0  0  0  0  0  0  0  0  0
    1.9495    4.4458    0.0000 C   0  0  0  0  0  0  0  0  0  0  0  0
    0.6495    2.1942    0.0000 C   0  0  0  0  0  0  0  0  0  0  0  0
   -4.5457    2.1942    0.0000 C   0  0  0  0  0  0  0  0  0  0  0  0
   -5.8457    4.4458    0.0000 C   0  0  0  0  0  0  0  0  0  0  0  0
   -0.6490    4.4450    0.0000 C   0  0  0  0  0  0  0  0  0  0  0  0
   -1.9481    3.6950    0.0000 C   0  0  0  0  0  0  0  0  0  0  0  0
    0.6500    3.6950    0.0000 C   0  0  0  0  0  0  0  0  0  0  0  0
   -4.5462    3.6950    0.0000 C   0  0  0  0  0  0  0  0  0  0  0  0
   -3.2471    4.4450    0.0000 C   0  0  0  0  0  0  0  0  0  0  0  0
   -3.2471    5.9450    0.0000 O   0  0  0  0  0  0  0  0  0  0  0  0
  3  1  2  0
  4  1  1  0
  5  2  2  0
  6  2  1  0
  7  3  1  0
  8  4  2  0
  9  5  1  0
 10  6  2  0
 11 12  2  0
 13  7  2  0
 13  8  1  0
 13 11  1  0
 14  9  2  0
 14 10  1  0
 15 12  1  0
 15 14  1  0
 16 15  2  0
M  END
>  <NAME>  (5961) 
CHALCONE

>  <SYNONYMS>  (5961) 


>  <SPECTRUM TYPE>  (5961) 
MS1

>  <INSTRUMENT TYPE>  (5961) 
EI-B

>  <INSTRUMENT>  (5961) 
JEOL JMS-D-3000

>  <ION MODE>  (5961) 
P

>  <INCHIKEY>  (5961) 
DQFBYFPFKXHELB-VAWYXSNFSA-N

>  <FORMULA>  (5961) 
C15H12O

>  <EXACT MASS>  (5961) 
208.088815004

>  <MW>  (5961) 
208

>  <ID>  (5961) 
JP002278

>  <CONTRIBUTOR>  (5961) 
University of Tokyo Team, {Faculty of Engineering, University of Tokyo

>  <COMMENT>  (5961) 
SMILES=O=C(C=Cc(c2)cccc2)c(c1)cccc1
InChI=InChI=1S/C15H12O/c16-15(14-9-5-2-6-10-14)12-11-13-7-3-1-4-8-13/h1-12H/b12-11+
computed SMILES=O=C(C=CC=1C=CC=CC1)C=2C=CC=CC2
accession=JP002278
date=2016.01.19 (Created 2008.10.21, modified 2011.05.06)
author=MASS SPECTROSCOPY SOC. OF JAPAN (MSSJ)
license=CC BY-NC-SA
exact mass=208.08882
ionization energy=70 eV
ion type=[M]+*
computed spectral entropy=2.5639480939768684
computed normalized entropy=0.8067667292143247
SPLASH=splash10-0a4i-5890000000-645c9135637f00e29e82
submitter=submitter = University of Tokyo Team (Faculty of Engineering, University of Tokyo)
MoNA Rating=3.75

>  <NUM PEAKS>  (5961) 
24

>  <MASS SPECTRAL PEAKS>  (5961) 
50 4.52
51 19.98
63 3
75 2.7
76 6.94
77 66.17
78 5.04
89 8.24
90 4.02
102 8.95
103 36.41
104 4.46
105 33.93
106 3
130 12.48
131 43.49
132 4.29
165 7.35
178 8.35
179 15.98
180 5.59
207 99.99
208 91.42
209 13.64

$$$$

     RDKit          2D

 17 17  0  0  0  0  0  0  0  0999 V2000
   -2.8578    1.9595    0.0000 C   0  0  0  0  0  0  0  0  0  0  0  0
   -3.4065   -0.0897    0.0000 C   0  0  0  0  0  0  0  0  0  0  0  0
   -1.3574   -0.6384    0.0000 C   0  0  0  0  0  0  0  0  0  0  0  0
    3.6411    1.6178    0.0000 C   0  0  0  0  0  0  0  0  0  0  0  0
    5.6893    2.1703    0.0000 C   0  0  0  0  0  0  0  0  0  0  0  0
    5.1368    4.2184    0.0000 C   0  0  0  0  0  0  0  0  0  0  0  0
   -0.8129    5.9038    0.0000 C   0  0  0  0  0  0  0  0  0  0  0  0
   -2.1075    5.1616    0.0000 C   0  0  0  0  0  0  0  0  0  0  0  0
    0.4861    5.1538    0.0000 C   0  0  0  0  0  0  0  0  0  0  0  0
   -2.1079    3.6608    0.0000 C   0  0  0  0  0  0  0  0  0  0  0  0
    1.7909    2.9138    0.0000 C   0  0  0  0  0  0  0  0  0  0  0  0
   -0.8087    1.4108    0.0000 C   0  0  0  0  0  0  0  0  0  0  0  0
    0.4906    3.6616    0.0000 C   0  0  0  0  0  0  0  0  0  0  0  0
   -0.8089    2.9108    0.0000 C   0  0  0  0  0  0  0  0  0  0  0  0
    3.0887    3.6659    0.0000 O   0  0  0  0  0  0  0  0  0  0  0  0
   -2.1076    0.6606    0.0000 Si  0  0  0  0  0  4  0  0  0  0  0  0
    4.3890    2.9181    0.0000 Si  0  0  0  0  0  4  0  0  0  0  0  0
  8  7  2  0
  9  7  1  0
 10  8  1  0
 13  9  2  0
 13 11  1  0
 14 10  2  0
 14 12  1  0
 14 13  1  0
 15 11  1  0
 16  1  1  0
 16  2  1  0
 16  3  1  0
 16 12  1  0
 17  4  1  0
 17  5  1  0
 17  6  1  0
 17 15  1  0
M  END
>  <NAME>  (5962) 
2-(TRIMETHYLSILYLMETHYL)BENZYL TRIMETHYLSILYL ETHER

>  <SYNONYMS>  (5962) 


>  <SPECTRUM TYPE>  (5962) 
MS1

>  <INSTRUMENT TYPE>  (5962) 
EI-B

>  <INSTRUMENT>  (5962) 
JEOL JMS-D-3000

>  <ION MODE>  (5962) 
P

>  <INCHIKEY>  (5962) 
ICZDVVZHLUFUDE-UHFFFAOYSA-N

>  <FORMULA>  (5962) 
C14H26OSi2

>  <EXACT MASS>  (5962) 
266.152218512

>  <MW>  (5962) 
266

>  <ID>  (5962) 
JP002277

>  <CONTRIBUTOR>  (5962) 
University of Tokyo Team, {Faculty of Engineering, University of Tokyo

>  <COMMENT>  (5962) 
SMILES=C[Si](C)(C)OCc(c1)c(ccc1)C[Si](C)(C)C
InChI=InChI=1S/C14H26OSi2/c1-16(2,3)12-14-10-8-7-9-13(14)11-15-17(4,5)6/h7-10H,11-12H2,1-6H3
computed SMILES=O(CC=1C=CC=CC1C[Si](C)(C)C)[Si](C)(C)C
accession=JP002277
date=2016.01.19 (Created 2008.10.21, modified 2011.05.06)
author=MASS SPECTROSCOPY SOC. OF JAPAN (MSSJ)
license=CC BY-NC-SA
exact mass=266.15222
ionization energy=70 eV
ion type=[M]+*
computed spectral entropy=1.8362422344741995
computed normalized entropy=0.6481129415567813
SPLASH=splash10-0udi-6900000000-ba550bd2ec47dd3290ec
submitter=submitter = University of Tokyo Team (Faculty of Engineering, University of Tokyo)
MoNA Rating=3.75

>  <NUM PEAKS>  (5962) 
17

>  <MASS SPECTRAL PEAKS>  (5962) 
43 2.9
45 8.51
73 46.03
74 3.79
75 23.47
77 3.65
78 3.9
103 4.29
104 99.99
105 11.88
147 5.12
161 3.09
163 3.01
176 2.03
177 2.07
266 0.15
267 0.04

$$$$

     RDKit          2D

 16 17  0  0  0  0  0  0  0  0999 V2000
   -0.4974    0.1754    0.0000 C   0  0  0  0  0  0  0  0  0  0  0  0
   -7.6677   -0.3737    0.0000 C   0  0  0  0  0  0  0  0  0  0  0  0
   -7.1187   -2.4227    0.0000 C   0  0  0  0  0  0  0  0  0  0  0  0
   -5.0697   -1.8737    0.0000 C   0  0  0  0  0  0  0  0  0  0  0  0
   -3.0580    4.2360    0.0000 C   0  0  0  0  0  0  0  0  0  0  0  0
   -1.7590    3.4860    0.0000 C   0  0  0  0  0  0  0  0  0  0  0  0
   -4.3571    3.4860    0.0000 C   0  0  0  0  0  0  0  0  0  0  0  0
   -1.7590    1.9860    0.0000 C   0  0  0  0  0  0  0  0  0  0  0  0
   -3.0580   -0.8853    0.0000 C   0  0  0  0  0  0  0  0  0  0  0  0
   -5.6187    0.1754    0.0000 C   0  0  0  0  0  0  0  0  0  0  0  0
   -1.9974    0.1754    0.0000 C   0  0  0  0  0  0  0  0  0  0  0  0
   -4.1187    0.1754    0.0000 C   0  0  0  0  0  0  0  0  0  0  0  0
   -4.3571    1.9860    0.0000 C   0  0  0  0  0  0  0  0  0  0  0  0
   -3.0580    1.2360    0.0000 C   0  0  0  0  0  0  0  0  0  0  0  0
   -5.6561    1.2360    0.0000 O   0  0  0  0  0  0  0  0  0  0  0  0
   -6.3687   -1.1237    0.0000 Si  0  0  0  0  0  4  0  0  0  0  0  0
  6  5  1  0
  7  5  1  0
  8  6  1  0
 11  1  1  0
 11  9  1  0
 12  9  1  0
 12 10  1  0
 13  7  1  0
 14  8  1  0
 14 11  1  0
 14 12  1  0
 14 13  1  0
 15 13  2  0
 16  2  1  0
 16  3  1  0
 16  4  1  0
 16 10  1  0
M  END
>  <NAME>  (5963) 
3-METHYL-1-TRIMETHYLSILYLMETHYLSPIRO(3.5)NONAN-5-ONE

>  <SYNONYMS>  (5963) 


>  <SPECTRUM TYPE>  (5963) 
MS1

>  <INSTRUMENT TYPE>  (5963) 
EI-B

>  <INSTRUMENT>  (5963) 
JEOL JMS-D-3000

>  <ION MODE>  (5963) 
P

>  <INCHIKEY>  (5963) 
WAWKLYQBEDIBDK-UHFFFAOYSA-N

>  <FORMULA>  (5963) 
C14H26OSi

>  <EXACT MASS>  (5963) 
238.17529198199998

>  <MW>  (5963) 
238

>  <ID>  (5963) 
JP002276

>  <CONTRIBUTOR>  (5963) 
University of Tokyo Team, {Faculty of Engineering, University of Tokyo

>  <COMMENT>  (5963) 
SMILES=C[Si](C)(C)CC(C1)C(C2)(C(=O)CCC2)C(C)1
InChI=InChI=1S/C14H26OSi/c1-11-9-12(10-16(2,3)4)14(11)8-6-5-7-13(14)15/h11-12H,5-10H2,1-4H3
computed SMILES=O=C1CCCCC12C(C)CC2C[Si](C)(C)C
accession=JP002276
date=2016.01.19 (Created 2008.10.21, modified 2011.05.06)
author=MASS SPECTROSCOPY SOC. OF JAPAN (MSSJ)
license=CC BY-NC-SA
exact mass=238.17529
ionization energy=70 eV
ion type=[M]+*
computed spectral entropy=2.744115893461907
computed normalized entropy=0.791784478224416
SPLASH=splash10-00b9-7900000000-37e4f3f93902d95ad424
submitter=submitter = University of Tokyo Team (Faculty of Engineering, University of Tokyo)
MoNA Rating=3.75

>  <NUM PEAKS>  (5963) 
32

>  <MASS SPECTRAL PEAKS>  (5963) 
42 5.35
43 3.5
45 8.35
55 5.11
59 10.28
67 4.82
73 82.39
74 7.19
75 20.18
77 3.68
79 6.46
81 4.98
91 7.12
93 4.16
105 7.3
106 3.2
107 3.72
111 5.42
119 3.02
125 99.99
126 9.58
133 5
146 3.14
147 5.48
148 5.17
170 4.27
183 22.23
184 3.45
197 31.85
198 5.87
223 6.92
238 9.57

$$$$

     RDKit          2D

 16 16  0  0  0  0  0  0  0  0999 V2000
   -3.3344    0.6443    0.0000 C   0  0  0  0  0  0  0  0  0  0  0  0
   -0.7363    0.6443    0.0000 C   0  0  0  0  0  0  0  0  0  0  0  0
   -5.3834    4.1934    0.0000 C   0  0  0  0  0  0  0  0  0  0  0  0
   -5.9324    2.1443    0.0000 C   0  0  0  0  0  0  0  0  0  0  0  0
   -3.8834    1.5953    0.0000 C   0  0  0  0  0  0  0  0  0  0  0  0
    3.1608    1.3943    0.0000 C   0  0  0  0  0  0  0  0  0  0  0  0
    3.1613    2.8952    0.0000 C   0  0  0  0  0  0  0  0  0  0  0  0
    1.8613    0.6435    0.0000 C   0  0  0  0  0  0  0  0  0  0  0  0
    1.8623    3.6452    0.0000 C   0  0  0  0  0  0  0  0  0  0  0  0
    0.5623    1.3935    0.0000 C   0  0  0  0  0  0  0  0  0  0  0  0
   -0.7363    3.6443    0.0000 C   0  0  0  0  0  0  0  0  0  0  0  0
   -2.0353    1.3943    0.0000 C   0  0  0  0  0  0  0  0  0  0  0  0
    0.5627    2.8943    0.0000 C   0  0  0  0  0  0  0  0  0  0  0  0
   -2.0353    2.8943    0.0000 C   0  0  0  0  0  0  0  0  0  0  0  0
   -3.3344    3.6443    0.0000 O   0  0  0  0  0  0  0  0  0  0  0  0
   -4.6334    2.8943    0.0000 Si  0  0  0  0  0  4  0  0  0  0  0  0
  7  6  2  0
  8  6  1  0
  9  7  1  0
 10  8  2  0
 12  1  1  0
 12  2  1  0
 13  9  2  0
 13 10  1  0
 13 11  1  0
 14 11  1  0
 14 12  2  0
 15 14  1  0
 16  3  1  0
 16  4  1  0
 16  5  1  0
 16 15  1  0
M  END
>  <NAME>  (5964) 
3-METHYL-1-PHENYL-2-TRIMETHYLSILOXY-2-BUTENE

>  <SYNONYMS>  (5964) 


>  <SPECTRUM TYPE>  (5964) 
MS1

>  <INSTRUMENT TYPE>  (5964) 
EI-B

>  <INSTRUMENT>  (5964) 
JEOL JMS-D-300

>  <ION MODE>  (5964) 
P

>  <INCHIKEY>  (5964) 
WKPXIXBVMCGQPV-UHFFFAOYSA-N

>  <FORMULA>  (5964) 
C14H22OSi

>  <EXACT MASS>  (5964) 
234.143991854

>  <MW>  (5964) 
234

>  <ID>  (5964) 
JP002275

>  <CONTRIBUTOR>  (5964) 
University of Tokyo Team, {Faculty of Engineering, University of Tokyo

>  <COMMENT>  (5964) 
SMILES=CC(C)=C(Cc(c1)cccc1)O[Si](C)(C)C
InChI=InChI=1S/C14H22OSi/c1-12(2)14(15-16(3,4)5)11-13-9-7-6-8-10-13/h6-10H,11H2,1-5H3
computed SMILES=O(C(=C(C)C)CC=1C=CC=CC1)[Si](C)(C)C
accession=JP002275
date=2016.01.19 (Created 2008.10.21, modified 2011.05.06)
author=MASS SPECTROSCOPY SOC. OF JAPAN (MSSJ)
license=CC BY-NC-SA
exact mass=234.14399
ionization energy=70 eV
ion type=[M]+*
computed spectral entropy=2.5781141181565723
computed normalized entropy=0.7580019119315725
SPLASH=splash10-00fr-9220000000-2cfbbc878ae8ffd019f3
submitter=submitter = University of Tokyo Team (Faculty of Engineering, University of Tokyo)
MoNA Rating=3.75

>  <NUM PEAKS>  (5964) 
30

>  <MASS SPECTRAL PEAKS>  (5964) 
42 6.07
43 3.68
45 16.18
47 3.05
59 4.35
61 2.01
65 3.01
73 99.99
74 8.8
75 54.61
76 4.13
77 3.43
91 0.99
105 5.25
115 2.61
128 3.85
129 11.27
130 2.47
135 2.64
141 3.39
143 11.25
144 2.94
145 5.95
163 1.85
177 5.89
219 16.66
220 3.32
234 36.72
235 7.79
236 2.1

$$$$

     RDKit          2D

 15 15  0  0  0  0  0  0  0  0999 V2000
    9.0942    0.7512    0.0000 C   0  0  0  0  0  0  0  0  0  0  0  0
    7.7948    3.0010    0.0000 C   0  0  0  0  0  0  0  0  0  0  0  0
   -2.5989   -1.5002    0.0000 C   0  0  0  0  0  0  0  0  0  0  0  0
    5.1970    1.5006    0.0000 C   0  0  0  0  0  0  0  0  0  0  0  0
    6.4962    0.7508    0.0000 C   0  0  0  0  0  0  0  0  0  0  0  0
    3.8981    0.7504    0.0000 C   0  0  0  0  0  0  0  0  0  0  0  0
   -1.3000    0.7500    0.0000 C   0  0  0  0  0  0  0  0  0  0  0  0
   -0.0000   -1.5000    0.0000 C   0  0  0  0  0  0  0  0  0  0  0  0
    0.0000    1.5000    0.0000 C   0  0  0  0  0  0  0  0  0  0  0  0
    1.3000   -0.7500    0.0000 C   0  0  0  0  0  0  0  0  0  0  0  0
    7.7951    1.5010    0.0000 C   0  0  0  0  0  0  0  0  0  0  0  0
   -1.3000   -0.7500    0.0000 C   0  0  0  0  0  0  0  0  0  0  0  0
    1.3000    0.7500    0.0000 C   0  0  0  0  0  0  0  0  0  0  0  0
    2.5989    1.5002    0.0000 C   0  0  0  0  0  0  0  0  0  0  0  0
    2.5987    3.0002    0.0000 O   0  0  0  0  0  0  0  0  0  0  0  0
  5  4  1  0
  6  4  1  0
  9  7  1  0
 10  8  1  0
 11  1  1  0
 11  2  1  0
 11  5  2  0
 12  3  1  0
 12  7  2  0
 12  8  1  0
 13  9  1  0
 13 10  1  0
 14  6  1  0
 14 13  1  0
 15 14  2  0
M  END
>  <NAME>  (5965) 
4-METHYL-3-CYCLOHEXENYL 4-METHYL-3-PENTENYL KETONE

>  <SYNONYMS>  (5965) 


>  <SPECTRUM TYPE>  (5965) 
MS1

>  <INSTRUMENT TYPE>  (5965) 
EI-B

>  <INSTRUMENT>  (5965) 
JEOL JMS-D-3000

>  <ION MODE>  (5965) 
P

>  <INCHIKEY>  (5965) 
BUSKKOPCEZGTQK-UHFFFAOYSA-N

>  <FORMULA>  (5965) 
C14H22O

>  <EXACT MASS>  (5965) 
206.167065324

>  <MW>  (5965) 
206

>  <ID>  (5965) 
JP002274

>  <CONTRIBUTOR>  (5965) 
University of Tokyo Team, {Faculty of Engineering, University of Tokyo

>  <COMMENT>  (5965) 
SMILES=CC(C)=CCCC(=O)C(C1)CC=C(C)C1
InChI=InChI=1S/C14H22O/c1-11(2)5-4-6-14(15)13-9-7-12(3)8-10-13/h5,7,13H,4,6,8-10H2,1-3H3
computed SMILES=O=C(CCC=C(C)C)C1CC=C(C)CC1
accession=JP002274
date=2016.01.19 (Created 2008.10.21, modified 2011.05.06)
author=MASS SPECTROSCOPY SOC. OF JAPAN (MSSJ)
license=CC BY-NC-SA
exact mass=206.16707
ionization energy=70 eV
ion type=[M]+*
computed spectral entropy=2.9589142006097884
computed normalized entropy=0.9081726603492922
SPLASH=splash10-066v-9200000000-ed9e7e18148415178917
submitter=submitter = University of Tokyo Team (Faculty of Engineering, University of Tokyo)
MoNA Rating=3.75

>  <NUM PEAKS>  (5965) 
26

>  <MASS SPECTRAL PEAKS>  (5965) 
41 70.06
43 20.68
53 13.74
55 46.86
56 10.35
67 29.45
69 99.99
70 8.96
77 9.99
79 24.12
81 13.59
82 10.33
83 20.02
93 18.34
94 39.95
95 80.77
96 11.02
109 14.15
111 27.73
121 14.66
123 43.59
136 14.4
137 9.76
149 10.22
206 48.62
207 9.01

$$$$

     RDKit          2D

 16 16  0  0  0  0  0  0  0  0999 V2000
   -7.4692    4.2571    0.0000 C   0  0  0  0  0  0  0  0  0  0  0  0
   -3.5721    6.5071    0.0000 C   0  0  0  0  0  0  0  0  0  0  0  0
   -6.1702    3.5071    0.0000 C   0  0  0  0  0  0  0  0  0  0  0  0
   -4.8712    4.2571    0.0000 C   0  0  0  0  0  0  0  0  0  0  0  0
    4.2221    2.0071    0.0000 C   0  0  0  0  0  0  0  0  0  0  0  0
    4.2226    3.5079    0.0000 C   0  0  0  0  0  0  0  0  0  0  0  0
    2.9226    1.2563    0.0000 C   0  0  0  0  0  0  0  0  0  0  0  0
    2.9236    4.2579    0.0000 C   0  0  0  0  0  0  0  0  0  0  0  0
    1.6236    2.0063    0.0000 C   0  0  0  0  0  0  0  0  0  0  0  0
   -3.5721    3.5071    0.0000 C   0  0  0  0  0  0  0  0  0  0  0  0
   -0.9740    3.5071    0.0000 C   0  0  0  0  0  0  0  0  0  0  0  0
    1.6240    3.5071    0.0000 C   0  0  0  0  0  0  0  0  0  0  0  0
   -2.2731    4.2571    0.0000 C   0  0  0  0  0  0  0  0  0  0  0  0
    0.3250    4.2571    0.0000 C   0  0  0  0  0  0  0  0  0  0  0  0
    0.3250    5.7571    0.0000 O   0  0  0  0  0  0  0  0  0  0  0  0
   -2.2731    5.7571    0.0000 O   0  0  0  0  0  0  0  0  0  0  0  0
  3  1  1  0
  4  3  1  0
  6  5  2  0
  7  5  1  0
  8  6  1  0
  9  7  2  0
 10  4  1  0
 12  8  2  0
 12  9  1  0
 13 10  1  0
 13 11  1  0
 14 11  1  0
 14 12  1  0
 15 14  2  0
 16  2  1  0
 16 13  1  0
M  END
>  <NAME>  (5966) 
3-METHOXYHEPTANOPHENONE

>  <SYNONYMS>  (5966) 
3-METHOXY-1-PHENYL-1-HEPTANONE

>  <SPECTRUM TYPE>  (5966) 
MS1

>  <INSTRUMENT TYPE>  (5966) 
EI-B

>  <INSTRUMENT>  (5966) 
JEOL JMS-D-3000

>  <ION MODE>  (5966) 
P

>  <INCHIKEY>  (5966) 
JOWQOLYPYCSOFE-UHFFFAOYSA-N

>  <FORMULA>  (5966) 
C14H20O2

>  <EXACT MASS>  (5966) 
220.14632988

>  <MW>  (5966) 
220

>  <ID>  (5966) 
JP002273

>  <CONTRIBUTOR>  (5966) 
University of Tokyo Team, {Faculty of Engineering, University of Tokyo

>  <COMMENT>  (5966) 
SMILES=CCCCC(OC)CC(=O)c(c1)cccc1
InChI=InChI=1S/C14H20O2/c1-3-4-10-13(16-2)11-14(15)12-8-6-5-7-9-12/h5-9,13H,3-4,10-11H2,1-2H3
computed SMILES=O=C(C=1C=CC=CC1)CC(OC)CCCC
accession=JP002273
date=2016.01.19 (Created 2008.10.21, modified 2011.05.06)
author=MASS SPECTROSCOPY SOC. OF JAPAN (MSSJ)
license=CC BY-NC-SA
exact mass=220.14633
ionization energy=70 eV
ion type=[M]+*
computed spectral entropy=2.8011815437067304
computed normalized entropy=0.7543091916330309
SPLASH=splash10-0a4i-4900000000-18d2d006ac8ce13e8a03
submitter=submitter = University of Tokyo Team (Faculty of Engineering, University of Tokyo)
MoNA Rating=3.75

>  <NUM PEAKS>  (5966) 
41

>  <MASS SPECTRAL PEAKS>  (5966) 
41 7.57
43 2.41
44 3.38
45 8.11
50 1.59
51 7.33
55 5.52
57 2.76
58 1.27
69 9.27
71 3.64
76 1.62
77 31.76
78 3.19
81 1.97
85 5.29
91 2.76
100 1.98
101 6.58
105 99.99
106 8.37
111 2.49
115 1.93
117 1.59
120 5.26
131 2.81
132 1.43
133 2.32
134 1.82
145 3.91
146 1.22
157 3.42
159 6.61
163 12.17
164 1.51
182 1.95
184 1.53
188 11.99
189 2.28
205 3.86
220 1.18

$$$$

     RDKit          2D

 16 16  0  0  0  0  0  0  0  0999 V2000
   -6.8197    3.1321    0.0000 C   0  0  0  0  0  0  0  0  0  0  0  0
   -5.5207    5.3821    0.0000 C   0  0  0  0  0  0  0  0  0  0  0  0
   -4.2216    6.1321    0.0000 C   0  0  0  0  0  0  0  0  0  0  0  0
    3.5726    1.6321    0.0000 C   0  0  0  0  0  0  0  0  0  0  0  0
    3.5731    3.1329    0.0000 C   0  0  0  0  0  0  0  0  0  0  0  0
    2.2731    0.8813    0.0000 C   0  0  0  0  0  0  0  0  0  0  0  0
    2.2740    3.8829    0.0000 C   0  0  0  0  0  0  0  0  0  0  0  0
    0.9740    1.6313    0.0000 C   0  0  0  0  0  0  0  0  0  0  0  0
   -4.2216    3.1321    0.0000 C   0  0  0  0  0  0  0  0  0  0  0  0
   -1.6236    3.1321    0.0000 C   0  0  0  0  0  0  0  0  0  0  0  0
   -5.5207    3.8821    0.0000 C   0  0  0  0  0  0  0  0  0  0  0  0
    0.9745    3.1321    0.0000 C   0  0  0  0  0  0  0  0  0  0  0  0
   -2.9226    3.8821    0.0000 C   0  0  0  0  0  0  0  0  0  0  0  0
   -0.3245    3.8821    0.0000 C   0  0  0  0  0  0  0  0  0  0  0  0
   -0.3245    5.3821    0.0000 O   0  0  0  0  0  0  0  0  0  0  0  0
   -2.9226    5.3821    0.0000 O   0  0  0  0  0  0  0  0  0  0  0  0
  5  4  2  0
  6  4  1  0
  7  5  1  0
  8  6  2  0
 11  1  1  0
 11  2  1  0
 11  9  1  0
 12  7  2  0
 12  8  1  0
 13  9  1  0
 13 10  1  0
 14 10  1  0
 14 12  1  0
 15 14  2  0
 16  3  1  0
 16 13  1  0
M  END
>  <NAME>  (5967) 
3-METHOXY-5-METHYLHEXANOPHENONE

>  <SYNONYMS>  (5967) 
3-METHOXY-5-METHYL-1-PHENYL-1-HEXANONE

>  <SPECTRUM TYPE>  (5967) 
MS1

>  <INSTRUMENT TYPE>  (5967) 
EI-B

>  <INSTRUMENT>  (5967) 
JEOL JMS-D-3000

>  <ION MODE>  (5967) 
P

>  <INCHIKEY>  (5967) 
BKZPFDYLUSKCEG-UHFFFAOYSA-N

>  <FORMULA>  (5967) 
C14H20O2

>  <EXACT MASS>  (5967) 
220.14632988

>  <MW>  (5967) 
220

>  <ID>  (5967) 
JP002272

>  <CONTRIBUTOR>  (5967) 
University of Tokyo Team, {Faculty of Engineering, University of Tokyo

>  <COMMENT>  (5967) 
SMILES=COC(CC(C)C)CC(=O)c(c1)cccc1
InChI=InChI=1S/C14H20O2/c1-11(2)9-13(16-3)10-14(15)12-7-5-4-6-8-12/h4-8,11,13H,9-10H2,1-3H3
computed SMILES=O=C(C=1C=CC=CC1)CC(OC)CC(C)C
accession=JP002272
date=2016.01.19 (Created 2008.10.21, modified 2011.05.06)
author=MASS SPECTROSCOPY SOC. OF JAPAN (MSSJ)
license=CC BY-NC-SA
exact mass=220.14633
ionization energy=70 eV
ion type=[M]+*
computed spectral entropy=2.7392843076764453
computed normalized entropy=0.7704686743184572
SPLASH=splash10-0a4i-5900000000-cb5f463ce5c9b8a512ed
submitter=submitter = University of Tokyo Team (Faculty of Engineering, University of Tokyo)
MoNA Rating=3.75

>  <NUM PEAKS>  (5967) 
35

>  <MASS SPECTRAL PEAKS>  (5967) 
41 7.58
43 8.36
45 7.53
50 1.33
51 6.05
55 3.72
57 3.95
58 1.78
59 6.67
69 11.93
71 1.62
76 1.32
77 27.28
78 2.7
85 11.73
91 1.9
100 2.01
101 7.85
105 99.99
106 8.38
115 1.33
117 1.65
120 5.88
131 2.73
132 1.36
133 4.82
145 8.53
146 4.89
163 13.04
164 1.55
173 3.07
188 10.13
189 1.68
205 4.65
220 1.28

$$$$

     RDKit          2D

 15 15  0  0  0  0  0  0  0  0999 V2000
   -6.8197    3.1321    0.0000 C   0  0  0  0  0  0  0  0  0  0  0  0
   -2.9226    0.8821    0.0000 C   0  0  0  0  0  0  0  0  0  0  0  0
   -5.5207    3.8821    0.0000 C   0  0  0  0  0  0  0  0  0  0  0  0
   -4.2216    3.1321    0.0000 C   0  0  0  0  0  0  0  0  0  0  0  0
    3.5726    1.6321    0.0000 C   0  0  0  0  0  0  0  0  0  0  0  0
    3.5731    3.1329    0.0000 C   0  0  0  0  0  0  0  0  0  0  0  0
    2.2731    0.8813    0.0000 C   0  0  0  0  0  0  0  0  0  0  0  0
    2.2740    3.8829    0.0000 C   0  0  0  0  0  0  0  0  0  0  0  0
    0.9740    1.6313    0.0000 C   0  0  0  0  0  0  0  0  0  0  0  0
   -2.9226    3.8821    0.0000 C   0  0  0  0  0  0  0  0  0  0  0  0
   -0.3245    3.8821    0.0000 C   0  0  0  0  0  0  0  0  0  0  0  0
   -1.6236    1.6321    0.0000 C   0  0  0  0  0  0  0  0  0  0  0  0
    0.9745    3.1321    0.0000 C   0  0  0  0  0  0  0  0  0  0  0  0
   -1.6236    3.1321    0.0000 C   0  0  0  0  0  0  0  0  0  0  0  0
   -0.3245    0.8821    0.0000 O   0  0  0  0  0  0  0  0  0  0  0  0
  3  1  1  0
  4  3  1  0
  6  5  2  0
  7  5  1  0
  8  6  1  0
  9  7  2  0
 10  4  1  0
 12  2  1  0
 13  8  2  0
 13  9  1  0
 13 11  1  0
 14 10  1  0
 14 11  1  0
 14 12  1  0
 15 12  2  0
M  END
>  <NAME>  (5968) 
3-BENZYL-2-HEPTANONE

>  <SYNONYMS>  (5968) 


>  <SPECTRUM TYPE>  (5968) 
MS1

>  <INSTRUMENT TYPE>  (5968) 
EI-B

>  <INSTRUMENT>  (5968) 
JEOL JMS-D-3000

>  <ION MODE>  (5968) 
P

>  <INCHIKEY>  (5968) 
DQQOAEDWHZWPBO-UHFFFAOYSA-N

>  <FORMULA>  (5968) 
C14H20O

>  <EXACT MASS>  (5968) 
204.15141526

>  <MW>  (5968) 
204

>  <ID>  (5968) 
JP002271

>  <CONTRIBUTOR>  (5968) 
University of Tokyo Team, {Faculty of Engineering, University of Tokyo

>  <COMMENT>  (5968) 
SMILES=CCCCC(C(C)=O)Cc(c1)cccc1
InChI=InChI=1S/C14H20O/c1-3-4-10-14(12(2)15)11-13-8-6-5-7-9-13/h5-9,14H,3-4,10-11H2,1-2H3
computed SMILES=O=C(C)C(CC=1C=CC=CC1)CCCC
accession=JP002271
date=2016.01.19 (Created 2008.10.21, modified 2011.05.06)
author=MASS SPECTROSCOPY SOC. OF JAPAN (MSSJ)
license=CC BY-NC-SA
exact mass=204.15142
ionization energy=70 eV
ion type=[M]+*
computed spectral entropy=2.353129561962776
computed normalized entropy=0.7061780136174928
SPLASH=splash10-0005-7900000000-2fabac8b7786a1c2d99e
submitter=submitter = University of Tokyo Team (Faculty of Engineering, University of Tokyo)
MoNA Rating=3.75

>  <NUM PEAKS>  (5968) 
28

>  <MASS SPECTRAL PEAKS>  (5968) 
41 6.66
43 34.67
51 1.85
55 3.69
57 1.62
65 7.19
71 2.28
77 3.24
78 2.63
79 1.59
85 2.28
91 96.12
92 9.55
103 2.03
104 5.13
105 13.08
115 3.38
117 6.75
119 2.82
129 6.74
133 3.54
143 1.55
147 99.99
148 43.76
149 4.74
161 4.13
189 2.24
204 6.63

$$$$

     RDKit          2D

 15 15  0  0  0  0  0  0  0  0999 V2000
    4.8721    3.8829    0.0000 C   0  0  0  0  0  0  0  0  0  0  0  0
    3.5731    3.1329    0.0000 C   0  0  0  0  0  0  0  0  0  0  0  0
    2.2740    3.8829    0.0000 C   0  0  0  0  0  0  0  0  0  0  0  0
   -8.1183    5.3829    0.0000 C   0  0  0  0  0  0  0  0  0  0  0  0
    0.9750    3.1329    0.0000 C   0  0  0  0  0  0  0  0  0  0  0  0
   -8.1187    3.8821    0.0000 C   0  0  0  0  0  0  0  0  0  0  0  0
   -6.8187    6.1337    0.0000 C   0  0  0  0  0  0  0  0  0  0  0  0
   -6.8197    3.1321    0.0000 C   0  0  0  0  0  0  0  0  0  0  0  0
   -5.5197    5.3837    0.0000 C   0  0  0  0  0  0  0  0  0  0  0  0
   -0.3240    3.8829    0.0000 C   0  0  0  0  0  0  0  0  0  0  0  0
   -4.2212    3.1329    0.0000 C   0  0  0  0  0  0  0  0  0  0  0  0
   -2.9221    3.8829    0.0000 C   0  0  0  0  0  0  0  0  0  0  0  0
   -5.5202    3.8829    0.0000 C   0  0  0  0  0  0  0  0  0  0  0  0
   -1.6231    3.1329    0.0000 C   0  0  0  0  0  0  0  0  0  0  0  0
   -1.6231    1.6329    0.0000 O   0  0  0  0  0  0  0  0  0  0  0  0
  2  1  1  0
  3  2  1  0
  5  3  1  0
  6  4  2  0
  7  4  1  0
  8  6  1  0
  9  7  2  0
 10  5  1  0
 12 11  1  0
 13  8  2  0
 13  9  1  0
 13 11  1  0
 14 10  1  0
 14 12  1  0
 15 14  2  0
M  END
>  <NAME>  (5969) 
1-PHENYL-3-OCTANONE

>  <SYNONYMS>  (5969) 


>  <SPECTRUM TYPE>  (5969) 
MS1

>  <INSTRUMENT TYPE>  (5969) 
EI-B

>  <INSTRUMENT>  (5969) 
JEOL JMS-D-3000

>  <ION MODE>  (5969) 
P

>  <INCHIKEY>  (5969) 
PMMNDSRSUDQZCC-UHFFFAOYSA-N

>  <FORMULA>  (5969) 
C14H20O

>  <EXACT MASS>  (5969) 
204.15141526

>  <MW>  (5969) 
204

>  <ID>  (5969) 
JP002270

>  <CONTRIBUTOR>  (5969) 
University of Tokyo Team, {Faculty of Engineering, University of Tokyo

>  <COMMENT>  (5969) 
SMILES=CCCCCC(=O)CCc(c1)cccc1
InChI=InChI=1S/C14H20O/c1-2-3-5-10-14(15)12-11-13-8-6-4-7-9-13/h4,6-9H,2-3,5,10-12H2,1H3
computed SMILES=O=C(CCC=1C=CC=CC1)CCCCC
ionization energy=70 eV
accession=JP002270
date=2016.01.19 (Created 2008.10.21, modified 2011.05.06)
author=MASS SPECTROSCOPY SOC. OF JAPAN (MSSJ)
license=CC BY-NC-SA
exact mass=204.15142
ion type=[M]+*
computed spectral entropy=2.9245643552847396
computed normalized entropy=0.8873510656582655
SPLASH=splash10-0006-9400000000-1878c561a8c244284d9d
submitter=submitter = University of Tokyo Team (Faculty of Engineering, University of Tokyo)
MoNA Rating=3.75

>  <NUM PEAKS>  (5969) 
27

>  <MASS SPECTRAL PEAKS>  (5969) 
41 23.22
42 5.27
43 99.99
44 5.12
51 11.61
55 16.28
65 12.51
71 47.2
77 21.26
78 9.8
79 10.4
80 16.13
81 18.7
82 5.58
91 98.34
92 10.55
99 40.42
103 16.13
104 32.12
105 78.12
106 8.59
130 26.24
131 19.6
133 30.92
146 7.54
148 21.11
204 11.01

$$$$

     RDKit          2D

 15 15  0  0  0  0  0  0  0  0999 V2000
   -7.4692    4.2571    0.0000 C   0  0  0  0  0  0  0  0  0  0  0  0
   -4.8712    5.7571    0.0000 C   0  0  0  0  0  0  0  0  0  0  0  0
   -6.1702    3.5071    0.0000 C   0  0  0  0  0  0  0  0  0  0  0  0
    4.2221    2.0071    0.0000 C   0  0  0  0  0  0  0  0  0  0  0  0
    4.2226    3.5079    0.0000 C   0  0  0  0  0  0  0  0  0  0  0  0
    2.9226    1.2563    0.0000 C   0  0  0  0  0  0  0  0  0  0  0  0
    2.9236    4.2579    0.0000 C   0  0  0  0  0  0  0  0  0  0  0  0
    1.6236    2.0063    0.0000 C   0  0  0  0  0  0  0  0  0  0  0  0
    0.3250    4.2571    0.0000 C   0  0  0  0  0  0  0  0  0  0  0  0
   -0.9740    3.5071    0.0000 C   0  0  0  0  0  0  0  0  0  0  0  0
   -3.5721    3.5071    0.0000 C   0  0  0  0  0  0  0  0  0  0  0  0
   -4.8712    4.2571    0.0000 C   0  0  0  0  0  0  0  0  0  0  0  0
    1.6240    3.5071    0.0000 C   0  0  0  0  0  0  0  0  0  0  0  0
   -2.2731    4.2571    0.0000 C   0  0  0  0  0  0  0  0  0  0  0  0
   -2.2731    5.7571    0.0000 O   0  0  0  0  0  0  0  0  0  0  0  0
  3  1  2  0
  5  4  2  0
  6  4  1  0
  7  5  1  0
  8  6  2  0
 10  9  1  0
 12  2  2  0
 12  3  1  0
 12 11  1  0
 13  7  2  0
 13  8  1  0
 13  9  1  0
 14 10  1  0
 14 11  1  0
 15 14  1  0
M  END
>  <NAME>  (5970) 
5-METHYLENE-1-PHENYL-6-HEPTEN-3-OL

>  <SYNONYMS>  (5970) 


>  <SPECTRUM TYPE>  (5970) 
MS1

>  <INSTRUMENT TYPE>  (5970) 
EI-B

>  <INSTRUMENT>  (5970) 
JEOL JMS-D-3000

>  <ION MODE>  (5970) 
P

>  <INCHIKEY>  (5970) 
COBOTNFHQDSRRO-UHFFFAOYSA-N

>  <FORMULA>  (5970) 
C14H18O

>  <EXACT MASS>  (5970) 
202.135765196

>  <MW>  (5970) 
202

>  <ID>  (5970) 
JP002269

>  <CONTRIBUTOR>  (5970) 
University of Tokyo Team, {Faculty of Engineering, University of Tokyo

>  <COMMENT>  (5970) 
SMILES=C=CC(=C)CC(O)CCc(c1)cccc1
InChI=InChI=1S/C14H18O/c1-3-12(2)11-14(15)10-9-13-7-5-4-6-8-13/h3-8,14-15H,1-2,9-11H2
computed SMILES=OC(CC(=C)C=C)CCC=1C=CC=CC1
accession=JP002269
date=2016.01.19 (Created 2008.10.21, modified 2011.05.06)
author=MASS SPECTROSCOPY SOC. OF JAPAN (MSSJ)
license=CC BY-NC-SA
exact mass=202.13577
ionization energy=70 eV
ion type=[M]+*
computed spectral entropy=2.673360850502046
computed normalized entropy=0.73492715584313
SPLASH=splash10-0006-9300000000-c47834f182f475736c09
submitter=submitter = University of Tokyo Team (Faculty of Engineering, University of Tokyo)
MoNA Rating=3.75

>  <NUM PEAKS>  (5970) 
38

>  <MASS SPECTRAL PEAKS>  (5970) 
41 1.12
43 2.18
51 3.28
52 1.3
55 1.18
63 1.5
65 8.66
66 1.06
67 6.53
68 20.85
69 4.31
77 5.25
78 6.14
79 3.73
80 1.48
91 99.99
92 29.47
93 5.02
103 2
104 3.69
105 11.69
106 2.01
115 1.34
116 1.59
117 13.96
118 2.56
128 1.04
129 1.54
130 1.03
133 6.06
134 13.07
135 4
143 1.5
158 1.3
169 1.36
184 13.82
185 2.05
202 1.03

$$$$

     RDKit          2D

 15 16  0  0  0  0  0  0  0  0999 V2000
    2.5987   -1.5004    0.0000 C   0  0  0  0  0  0  0  0  0  0  0  0
   -7.7944   -0.0006    0.0000 C   0  0  0  0  0  0  0  0  0  0  0  0
   -7.7947   -1.5014    0.0000 C   0  0  0  0  0  0  0  0  0  0  0  0
   -6.4950    0.7505    0.0000 C   0  0  0  0  0  0  0  0  0  0  0  0
   -6.4955   -2.2512    0.0000 C   0  0  0  0  0  0  0  0  0  0  0  0
   -5.1959    0.0007    0.0000 C   0  0  0  0  0  0  0  0  0  0  0  0
   -3.8970   -2.2499    0.0000 C   0  0  0  0  0  0  0  0  0  0  0  0
   -2.5980   -1.4997    0.0000 C   0  0  0  0  0  0  0  0  0  0  0  0
    1.3002   -3.7512    0.0000 C   0  0  0  0  0  0  0  0  0  0  0  0
    0.0011   -4.5012    0.0000 C   0  0  0  0  0  0  0  0  0  0  0  0
    0.0001   -1.4995    0.0000 C   0  0  0  0  0  0  0  0  0  0  0  0
    1.2997   -2.2504    0.0000 C   0  0  0  0  0  0  0  0  0  0  0  0
   -5.1961   -1.5002    0.0000 C   0  0  0  0  0  0  0  0  0  0  0  0
   -1.2989   -2.2495    0.0000 C   0  0  0  0  0  0  0  0  0  0  0  0
   -1.2984   -3.7504    0.0000 O   0  0  0  0  0  0  0  0  0  0  0  0
  3  2  2  0
  4  2  1  0
  5  3  1  0
  6  4  2  0
  8  7  1  0
 10  9  1  0
 12  1  2  0
 12  9  1  0
 12 11  1  0
 13  5  2  0
 13  6  1  0
 13  7  1  0
 14  8  1  0
 14 11  1  0
 15 10  1  0
 15 14  1  0
M  END
>  <NAME>  (5971) 
4-METHYLENE-2-(2-PHENYLETHYL)-TETRAHYDROPYRAN

>  <SYNONYMS>  (5971) 


>  <SPECTRUM TYPE>  (5971) 
MS1

>  <INSTRUMENT TYPE>  (5971) 
EI-B

>  <INSTRUMENT>  (5971) 
JEOL JMS-D-3000

>  <ION MODE>  (5971) 
P

>  <INCHIKEY>  (5971) 
KMJUZEPIVYGWPT-UHFFFAOYSA-N

>  <FORMULA>  (5971) 
C14H18O

>  <EXACT MASS>  (5971) 
202.135765196

>  <MW>  (5971) 
202

>  <ID>  (5971) 
JP002268

>  <CONTRIBUTOR>  (5971) 
University of Tokyo Team, {Faculty of Engineering, University of Tokyo

>  <COMMENT>  (5971) 
SMILES=C=C(C2)CC(OC2)CCc(c1)cccc1
InChI=InChI=1S/C14H18O/c1-12-9-10-15-14(11-12)8-7-13-5-3-2-4-6-13/h2-6,14H,1,7-11H2
computed SMILES=O1CCC(=C)CC1CCC=2C=CC=CC2
accession=JP002268
date=2016.01.19 (Created 2008.10.21, modified 2011.05.06)
author=MASS SPECTROSCOPY SOC. OF JAPAN (MSSJ)
license=CC BY-NC-SA
exact mass=202.13577
ionization energy=70 eV
ion type=[M]+*
computed spectral entropy=2.867592138144247
computed normalized entropy=0.9145582612068335
SPLASH=splash10-0fr7-9310000000-57cf1474e950763659fa
submitter=submitter = University of Tokyo Team (Faculty of Engineering, University of Tokyo)
MoNA Rating=3.75

>  <NUM PEAKS>  (5971) 
23

>  <MASS SPECTRAL PEAKS>  (5971) 
43 18.49
53 27.49
65 20.43
67 63.74
68 18.24
69 14.11
77 13.62
78 19.95
79 12.4
91 92.21
92 93.43
93 19.95
97 99.99
98 12.16
104 44.52
105 21.41
111 21.89
117 66.42
124 28.46
134 19.7
157 22.38
202 83.94
203 16.05

$$$$

     RDKit          2D

 15 14  0  0  0  0  0  0  0  0999 V2000
    3.0748    5.9243    0.0000 C   0  0  0  0  0  0  0  0  0  0  0  0
   -9.9156    5.9243    0.0000 C   0  0  0  0  0  0  0  0  0  0  0  0
   -6.8664    3.3657    0.0000 C   0  0  0  0  0  0  0  0  0  0  0  0
   -4.7194    4.4243    0.0000 C   0  0  0  0  0  0  0  0  0  0  0  0
   -8.2817    4.7752    0.0000 C   0  0  0  0  0  0  0  0  0  0  0  0
    1.7758    6.6743    0.0000 C   0  0  0  0  0  0  0  0  0  0  0  0
   -8.6165    6.6743    0.0000 C   0  0  0  0  0  0  0  0  0  0  0  0
   -6.3533    4.7752    0.0000 C   0  0  0  0  0  0  0  0  0  0  0  0
    0.4767    5.9243    0.0000 C   0  0  0  0  0  0  0  0  0  0  0  0
   -0.8223    6.6743    0.0000 C   0  0  0  0  0  0  0  0  0  0  0  0
   -2.1214    5.9243    0.0000 C   0  0  0  0  0  0  0  0  0  0  0  0
   -3.4204    6.6743    0.0000 C   0  0  0  0  0  0  0  0  0  0  0  0
   -4.7194    5.9243    0.0000 C   0  0  0  0  0  0  0  0  0  0  0  0
   -6.0185    6.6743    0.0000 O   0  0  0  0  0  0  0  0  0  0  0  0
   -7.3175    5.9243    0.0000 Si  0  0  0  0  0  4  0  0  0  0  0  0
  6  1  1  0
  7  2  1  0
  8  3  1  0
  9  6  1  0
 10  9  1  0
 11 10  1  0
 12 11  1  0
 13  4  1  0
 13 12  1  0
 14 13  1  0
 15  5  1  0
 15  7  1  0
 15  8  1  0
 15 14  1  0
M  END
>  <NAME>  (5972) 
2-(METHYLDIETHYLSILOXY)OCTANE

>  <SYNONYMS>  (5972) 


>  <SPECTRUM TYPE>  (5972) 
MS1

>  <INSTRUMENT TYPE>  (5972) 
EI-B

>  <INSTRUMENT>  (5972) 
JEOL JMS-D-3000

>  <ION MODE>  (5972) 
P

>  <INCHIKEY>  (5972) 
AWUGSFXDDGKRQI-UHFFFAOYSA-N

>  <FORMULA>  (5972) 
C13H30OSi

>  <EXACT MASS>  (5972) 
230.20659211

>  <MW>  (5972) 
230

>  <ID>  (5972) 
JP002267

>  <CONTRIBUTOR>  (5972) 
University of Tokyo Team, {Faculty of Engineering, University of Tokyo

>  <COMMENT>  (5972) 
SMILES=CCCCCCC(C)O[Si](C)(CC)CC
InChI=InChI=1S/C13H30OSi/c1-6-9-10-11-12-13(4)14-15(5,7-2)8-3/h13H,6-12H2,1-5H3
computed SMILES=O(C(C)CCCCCC)[Si](C)(CC)CC
accession=JP002267
date=2016.01.19 (Created 2008.10.21, modified 2011.05.06)
author=MASS SPECTROSCOPY SOC. OF JAPAN (MSSJ)
license=CC BY-NC-SA
exact mass=230.20659
ionization energy=70 eV
ion type=[M]+*
computed spectral entropy=2.688868701720871
computed normalized entropy=0.8158379225185046
SPLASH=splash10-0f9i-9330000000-f6e80af48f3f498dfb5a
submitter=submitter = University of Tokyo Team (Faculty of Engineering, University of Tokyo)
MoNA Rating=3.75

>  <NUM PEAKS>  (5972) 
27

>  <MASS SPECTRAL PEAKS>  (5972) 
42 8.68
43 6.09
45 6.89
55 7.16
57 7.37
61 27.37
69 3.92
71 5.93
73 26.79
75 99.99
76 7.3
77 3.72
89 71.07
90 6.33
101 19.84
103 8.71
115 4.41
117 7.25
145 25.04
159 8.56
187 43.41
188 7.3
201 77.32
202 14.07
203 4.31
215 3.72
230 0.36

$$$$

     RDKit          2D

 15 15  0  0  0  0  0  0  0  0999 V2000
   -1.5890   -3.5800    0.0000 C   0  0  0  0  0  0  0  0  0  0  0  0
    1.0090   -3.5800    0.0000 C   0  0  0  0  0  0  0  0  0  0  0  0
   -0.2900    3.1700    0.0000 C   0  0  0  0  0  0  0  0  0  0  0  0
    4.3579   -1.8796    0.0000 C   0  0  0  0  0  0  0  0  0  0  0  0
    4.9072    0.1694    0.0000 C   0  0  0  0  0  0  0  0  0  0  0  0
    2.8583    0.7187    0.0000 C   0  0  0  0  0  0  0  0  0  0  0  0
   -1.5900    0.9200    0.0000 C   0  0  0  0  0  0  0  0  0  0  0  0
   -1.5900   -0.5800    0.0000 C   0  0  0  0  0  0  0  0  0  0  0  0
    1.0100    0.9200    0.0000 C   0  0  0  0  0  0  0  0  0  0  0  0
   -0.2900   -2.8300    0.0000 C   0  0  0  0  0  0  0  0  0  0  0  0
   -0.2900    1.6700    0.0000 C   0  0  0  0  0  0  0  0  0  0  0  0
   -0.2900   -1.3300    0.0000 C   0  0  0  0  0  0  0  0  0  0  0  0
    1.0100   -0.5800    0.0000 C   0  0  0  0  0  0  0  0  0  0  0  0
    2.3089   -1.3302    0.0000 O   0  0  0  0  0  0  0  0  0  0  0  0
    3.6081   -0.5804    0.0000 Si  0  0  0  0  0  4  0  0  0  0  0  0
  8  7  1  0
 10  1  1  0
 10  2  1  0
 11  3  1  0
 11  7  1  0
 11  9  1  0
 12  8  1  0
 12 10  1  0
 13  9  1  0
 13 12  1  0
 14 13  1  0
 15  4  1  0
 15  5  1  0
 15  6  1  0
 15 14  1  0
M  END
>  <NAME>  (5973) 
1-ISOPROPYL-4-METHYL-2-TRIMETHYLSILOXYCYCLOHEXANE

>  <SYNONYMS>  (5973) 
MENTHYLOXYTRIMETHYLSILANE

>  <SPECTRUM TYPE>  (5973) 
MS1

>  <INSTRUMENT TYPE>  (5973) 
EI-B

>  <INSTRUMENT>  (5973) 
JEOL JMS-D-3000

>  <ION MODE>  (5973) 
P

>  <INCHIKEY>  (5973) 
LDWGJYAAQHHQTJ-UHFFFAOYSA-N

>  <FORMULA>  (5973) 
C13H28OSi

>  <EXACT MASS>  (5973) 
228.19094204600003

>  <MW>  (5973) 
228

>  <ID>  (5973) 
JP002266

>  <CONTRIBUTOR>  (5973) 
University of Tokyo Team, {Faculty of Engineering, University of Tokyo

>  <COMMENT>  (5973) 
SMILES=CC(C1)CC(O[Si](C)(C)C)C(C1)C(C)C
InChI=InChI=1S/C13H28OSi/c1-10(2)12-8-7-11(3)9-13(12)14-15(4,5)6/h10-13H,7-9H2,1-6H3
computed SMILES=O(C1CC(C)CCC1C(C)C)[Si](C)(C)C
accession=JP002266
date=2016.01.19 (Created 2008.10.21, modified 2011.05.06)
author=MASS SPECTROSCOPY SOC. OF JAPAN (MSSJ)
license=CC BY-NC-SA
exact mass=228.19094
ionization energy=70 eV
ion type=[M]+*
computed spectral entropy=2.4073991171097364
computed normalized entropy=0.7677893663077114
SPLASH=splash10-0006-2920000000-a7165ffe2a728965e3c3
submitter=submitter = University of Tokyo Team (Faculty of Engineering, University of Tokyo)
MoNA Rating=3.75

>  <NUM PEAKS>  (5973) 
23

>  <MASS SPECTRAL PEAKS>  (5973) 
43 3.71
44 1.81
55 1.69
73 10.23
75 16.93
81 6.64
82 3.26
95 5.38
123 3.99
137 5.18
138 20.04
139 2.52
143 99.99
144 13.64
145 5.2
157 4.87
171 5.38
205 6.79
213 17.91
214 3.71
220 2.37
228 14.91
229 3.36

$$$$

     RDKit          2D

 15 16  0  0  0  0  0  0  0  0999 V2000
   -0.6759    1.4813    0.0000 C   0  0  0  0  0  0  0  0  0  0  0  0
   -0.6759   -2.3013    0.0000 C   0  0  0  0  0  0  0  0  0  0  0  0
    2.4475    2.5900    0.0000 C   0  0  0  0  0  0  0  0  0  0  0  0
    5.5811   -0.9618    0.0000 C   0  0  0  0  0  0  0  0  0  0  0  0
    7.6310   -0.4159    0.0000 C   0  0  0  0  0  0  0  0  0  0  0  0
    7.0850    1.6340    0.0000 C   0  0  0  0  0  0  0  0  0  0  0  0
    1.1450   -1.1600    0.0000 C   0  0  0  0  0  0  0  0  0  0  0  0
    1.1450    0.3400    0.0000 C   0  0  0  0  0  0  0  0  0  0  0  0
    3.7350   -1.1600    0.0000 C   0  0  0  0  0  0  0  0  0  0  0  0
    2.4450   -1.9100    0.0000 C   0  0  0  0  0  0  0  0  0  0  0  0
    3.7350    0.3400    0.0000 C   0  0  0  0  0  0  0  0  0  0  0  0
    1.5750   -0.4100    0.0000 C   0  0  0  0  0  0  0  0  0  0  0  0
    2.4450    1.0900    0.0000 C   0  0  0  0  0  0  0  0  0  0  0  0
    5.0352    1.0880    0.0000 O   0  0  0  0  0  0  0  0  0  0  0  0
    6.3331    0.3361    0.0000 Si  0  0  0  0  0  4  0  0  0  0  0  0
  8  7  1  0
 10  7  1  0
 10  9  1  0
 11  9  1  0
 12  1  1  0
 12  2  1  0
 12 10  1  0
 13  3  1  0
 13  8  1  0
 13 11  1  0
 13 12  1  0
 14 11  1  0
 15  4  1  0
 15  5  1  0
 15  6  1  0
 15 14  1  0
M  END
>  <NAME>  (5974) 
1,7,7-TRIMETHYL-2-TRIMETHYLSILOXYBICYCLO(2.2.1)HEPTANE

>  <SYNONYMS>  (5974) 
BORNYLOXYTRIMETHYLSILANE

>  <SPECTRUM TYPE>  (5974) 
MS1

>  <INSTRUMENT TYPE>  (5974) 
EI-B

>  <INSTRUMENT>  (5974) 
JEOL JMS-D-3000

>  <ION MODE>  (5974) 
P

>  <INCHIKEY>  (5974) 
RUVRGUBFCPLVCZ-UHFFFAOYSA-N

>  <FORMULA>  (5974) 
C13H26OSi

>  <EXACT MASS>  (5974) 
226.17529198199998

>  <MW>  (5974) 
226

>  <ID>  (5974) 
JP002265

>  <CONTRIBUTOR>  (5974) 
University of Tokyo Team, {Faculty of Engineering, University of Tokyo

>  <COMMENT>  (5974) 
SMILES=C[Si](C)(C)OC(C1)C(C)(C2)C(C)(C)C(C2)1
InChI=InChI=1S/C13H26OSi/c1-12(2)10-7-8-13(12,3)11(9-10)14-15(4,5)6/h10-11H,7-9H2,1-6H3
computed SMILES=O(C1CC2CCC1(C)C2(C)C)[Si](C)(C)C
accession=JP002265
date=2016.01.19 (Created 2008.10.21, modified 2011.05.06)
author=MASS SPECTROSCOPY SOC. OF JAPAN (MSSJ)
license=CC BY-NC-SA
exact mass=226.17529
ionization energy=70 eV
ion type=[M]+*
computed spectral entropy=2.984224416615456
computed normalized entropy=0.8955706072369936
SPLASH=splash10-0092-9810000000-cd46bc89adc2949ef09e
submitter=submitter = University of Tokyo Team (Faculty of Engineering, University of Tokyo)
MoNA Rating=3.75

>  <NUM PEAKS>  (5974) 
28

>  <MASS SPECTRAL PEAKS>  (5974) 
41 15.19
45 6.98
55 7.34
67 6.71
73 57.51
75 35.49
80 8.91
81 13.11
93 18.1
95 99.99
96 8.48
100 17.82
106 6.1
107 35.3
108 10.31
112 16.87
113 28.5
121 39.22
136 47.55
137 6.02
142 13.29
143 10.49
144 11.27
145 5.8
155 17.74
211 9.5
226 28.57
227 5.93

$$$$

     RDKit          2D

 16 16  0  0  0  0  0  0  0  0999 V2000
    4.8670    0.9406    0.0000 C   0  0  0  0  0  0  0  0  0  0  0  0
    3.5676    3.1904    0.0000 C   0  0  0  0  0  0  0  0  0  0  0  0
   -0.8850    4.4881    0.0000 C   0  0  0  0  0  0  0  0  0  0  0  0
   -2.9331    3.9356    0.0000 C   0  0  0  0  0  0  0  0  0  0  0  0
   -2.3806    1.8875    0.0000 C   0  0  0  0  0  0  0  0  0  0  0  0
   -1.6200   -1.3100    0.0000 C   0  0  0  0  0  0  0  0  0  0  0  0
   -0.3300   -2.0600    0.0000 C   0  0  0  0  0  0  0  0  0  0  0  0
   -1.6200    0.1900    0.0000 C   0  0  0  0  0  0  0  0  0  0  0  0
    0.9700   -1.3100    0.0000 C   0  0  0  0  0  0  0  0  0  0  0  0
   -0.3325    2.4400    0.0000 C   0  0  0  0  0  0  0  0  0  0  0  0
   -0.3300    0.9400    0.0000 C   0  0  0  0  0  0  0  0  0  0  0  0
    0.9700    0.1900    0.0000 C   0  0  0  0  0  0  0  0  0  0  0  0
    2.2689    0.9402    0.0000 C   0  0  0  0  0  0  0  0  0  0  0  0
    3.5681    0.1904    0.0000 O   0  0  0  0  0  0  0  0  0  0  0  0
    2.2687    2.4402    0.0000 O   0  0  0  0  0  0  0  0  0  0  0  0
   -1.6328    3.1878    0.0000 Si  0  0  0  0  0  4  0  0  0  0  0  0
  7  6  2  0
  8  6  1  0
  9  7  1  0
 11  8  2  0
 11 10  1  0
 12  9  2  0
 12 11  1  0
 13 12  1  0
 14  1  1  0
 14 13  1  0
 15  2  1  0
 15 13  1  0
 16  3  1  0
 16  4  1  0
 16  5  1  0
 16 10  1  0
M  END
>  <NAME>  (5975) 
2-(TRIMETHYLSILYLMETHYL)BENZALDEHYDE DIMETHYL ACETAL

>  <SYNONYMS>  (5975) 


>  <SPECTRUM TYPE>  (5975) 
MS1

>  <INSTRUMENT TYPE>  (5975) 
EI-B

>  <INSTRUMENT>  (5975) 
JEOL JMS-D-3000

>  <ION MODE>  (5975) 
P

>  <INCHIKEY>  (5975) 
CZUABHFBQIIFGM-UHFFFAOYSA-N

>  <FORMULA>  (5975) 
C13H22O2Si

>  <EXACT MASS>  (5975) 
238.138906474

>  <MW>  (5975) 
238

>  <ID>  (5975) 
JP002264

>  <CONTRIBUTOR>  (5975) 
University of Tokyo Team, {Faculty of Engineering, University of Tokyo

>  <COMMENT>  (5975) 
SMILES=COC(OC)c(c1)c(ccc1)C[Si](C)(C)C
InChI=InChI=1S/C13H22O2Si/c1-14-13(15-2)12-9-7-6-8-11(12)10-16(3,4)5/h6-9,13H,10H2,1-5H3
computed SMILES=O(C)C(OC)C=1C=CC=CC1C[Si](C)(C)C
accession=JP002264
date=2016.01.19 (Created 2008.10.21, modified 2011.05.06)
author=MASS SPECTROSCOPY SOC. OF JAPAN (MSSJ)
license=CC BY-NC-SA
exact mass=238.13891
ionization energy=70 eV
ion type=[M]+*
computed spectral entropy=2.9734054546730873
computed normalized entropy=0.8579434608018113
SPLASH=splash10-00ec-9810000000-807f0412d3811aa95e88
submitter=submitter = University of Tokyo Team (Faculty of Engineering, University of Tokyo)
MoNA Rating=3.75

>  <NUM PEAKS>  (5975) 
32

>  <MASS SPECTRAL PEAKS>  (5975) 
40 30.05
44 25.52
45 15.35
59 23.94
61 9.48
73 99.99
74 8.76
75 12.82
89 26.44
91 17.29
103 13.02
104 6.75
105 8.01
118 6.63
119 39.88
133 9.55
134 58.23
135 7.47
159 7.79
163 9.65
177 47.93
178 7.76
191 5.58
192 22.73
203 1.4
205 2.68
206 2.15
207 15.57
208 3.14
223 6.37
224 1.16
238 0.47

$$$$

     RDKit          2D

 15 15  0  0  0  0  0  0  0  0999 V2000
    4.0890    2.2394    0.0000 C   0  0  0  0  0  0  0  0  0  0  0  0
    1.0397   -0.3192    0.0000 C   0  0  0  0  0  0  0  0  0  0  0  0
    3.9323    1.3508    0.0000 C   0  0  0  0  0  0  0  0  0  0  0  0
    2.7899    2.9894    0.0000 C   0  0  0  0  0  0  0  0  0  0  0  0
    0.5267    1.0903    0.0000 C   0  0  0  0  0  0  0  0  0  0  0  0
    2.4551    1.0903    0.0000 C   0  0  0  0  0  0  0  0  0  0  0  0
   -5.0043    4.4894    0.0000 C   0  0  0  0  0  0  0  0  0  0  0  0
   -5.0048    2.9885    0.0000 C   0  0  0  0  0  0  0  0  0  0  0  0
   -3.7048    5.2402    0.0000 C   0  0  0  0  0  0  0  0  0  0  0  0
   -3.7057    2.2385    0.0000 C   0  0  0  0  0  0  0  0  0  0  0  0
   -2.4057    4.4902    0.0000 C   0  0  0  0  0  0  0  0  0  0  0  0
   -1.1072    2.2394    0.0000 C   0  0  0  0  0  0  0  0  0  0  0  0
   -2.4062    2.9894    0.0000 C   0  0  0  0  0  0  0  0  0  0  0  0
    0.1919    2.9894    0.0000 O   0  0  0  0  0  0  0  0  0  0  0  0
    1.4909    2.2394    0.0000 Si  0  0  0  0  0  4  0  0  0  0  0  0
  4  1  1  0
  5  2  1  0
  6  3  1  0
  8  7  2  0
  9  7  1  0
 10  8  1  0
 11  9  2  0
 13 10  2  0
 13 11  1  0
 13 12  1  0
 14 12  1  0
 15  4  1  0
 15  5  1  0
 15  6  1  0
 15 14  1  0
M  END
>  <NAME>  (5976) 
BENZYLOXYTRIETHYLSILANE

>  <SYNONYMS>  (5976) 


>  <SPECTRUM TYPE>  (5976) 
MS1

>  <INSTRUMENT TYPE>  (5976) 
EI-B

>  <INSTRUMENT>  (5976) 
JEOL JMS-D-3000

>  <ION MODE>  (5976) 
P

>  <INCHIKEY>  (5976) 
PVEFGVHUGAHUHQ-UHFFFAOYSA-N

>  <FORMULA>  (5976) 
C13H22OSi

>  <EXACT MASS>  (5976) 
222.14399185399998

>  <MW>  (5976) 
222

>  <ID>  (5976) 
JP002263

>  <CONTRIBUTOR>  (5976) 
University of Tokyo Team, {Faculty of Engineering, University of Tokyo

>  <COMMENT>  (5976) 
SMILES=CC[Si](CC)(CC)OCc(c1)cccc1
InChI=InChI=1S/C13H22OSi/c1-4-15(5-2,6-3)14-12-13-10-8-7-9-11-13/h7-11H,4-6,12H2,1-3H3
computed SMILES=O(CC=1C=CC=CC1)[Si](CC)(CC)CC
accession=JP002263
date=2016.01.19 (Created 2008.10.21, modified 2011.05.06)
author=MASS SPECTROSCOPY SOC. OF JAPAN (MSSJ)
license=CC BY-NC-SA
exact mass=222.14399
ionization energy=70 eV
ion type=[M]+*
computed spectral entropy=2.1211508838301882
computed normalized entropy=0.7080575599346727
SPLASH=splash10-0006-4900000000-570f6c440f32b4c0d871
submitter=submitter = University of Tokyo Team (Faculty of Engineering, University of Tokyo)
MoNA Rating=3.75

>  <NUM PEAKS>  (5976) 
20

>  <MASS SPECTRAL PEAKS>  (5976) 
42 2.44
44 2.87
59 4.38
65 5.67
69 2.66
75 2.07
83 5.07
87 4.21
91 55.26
92 4.98
97 1.7
135 15.04
136 2.28
163 27.88
164 4.79
165 7.64
193 99.99
194 18.46
195 5.45
222 0.14

$$$$

     RDKit          2D

 14 14  0  0  0  0  0  0  0  0999 V2000
    5.8462    0.7508    0.0000 C   0  0  0  0  0  0  0  0  0  0  0  0
    3.2474    5.2504    0.0000 C   0  0  0  0  0  0  0  0  0  0  0  0
    4.5470    1.5006    0.0000 C   0  0  0  0  0  0  0  0  0  0  0  0
    3.2476    3.7504    0.0000 C   0  0  0  0  0  0  0  0  0  0  0  0
   -1.9500    0.7500    0.0000 C   0  0  0  0  0  0  0  0  0  0  0  0
   -1.9500   -0.7500    0.0000 C   0  0  0  0  0  0  0  0  0  0  0  0
    3.2481    0.7504    0.0000 C   0  0  0  0  0  0  0  0  0  0  0  0
    1.9487    3.0002    0.0000 C   0  0  0  0  0  0  0  0  0  0  0  0
   -0.6500    1.5000    0.0000 C   0  0  0  0  0  0  0  0  0  0  0  0
   -0.6500   -1.5000    0.0000 C   0  0  0  0  0  0  0  0  0  0  0  0
    1.9489    1.5002    0.0000 C   0  0  0  0  0  0  0  0  0  0  0  0
    0.6500    0.7500    0.0000 C   0  0  0  0  0  0  0  0  0  0  0  0
    0.6500   -0.7500    0.0000 C   0  0  0  0  0  0  0  0  0  0  0  0
    1.9489   -1.5002    0.0000 O   0  0  0  0  0  0  0  0  0  0  0  0
  3  1  2  0
  4  2  1  0
  6  5  1  0
  7  3  1  0
  8  4  1  0
  9  5  1  0
 10  6  1  0
 11  7  1  0
 11  8  1  0
 12  9  1  0
 12 11  1  0
 13 10  1  0
 13 12  1  0
 14 13  2  0
M  END
>  <NAME>  (5977) 
2-(1-PROPYL-3-BUTENYL)CYCLOHEXANONE

>  <SYNONYMS>  (5977) 


>  <SPECTRUM TYPE>  (5977) 
MS1

>  <INSTRUMENT TYPE>  (5977) 
EI-B

>  <INSTRUMENT>  (5977) 
JEOL JMS-D-3000

>  <ION MODE>  (5977) 
P

>  <INCHIKEY>  (5977) 
IFAVPAZDGBNKPQ-UHFFFAOYSA-N

>  <FORMULA>  (5977) 
C13H22O

>  <EXACT MASS>  (5977) 
194.167065324

>  <MW>  (5977) 
194

>  <ID>  (5977) 
JP002262

>  <CONTRIBUTOR>  (5977) 
University of Tokyo Team, {Faculty of Engineering, University of Tokyo

>  <COMMENT>  (5977) 
SMILES=CCCC(CC=C)C(C1)C(=O)CCC1
InChI=InChI=1S/C13H22O/c1-3-7-11(8-4-2)12-9-5-6-10-13(12)14/h3,11-12H,1,4-10H2,2H3
computed SMILES=O=C1CCCCC1C(CC=C)CCC
accession=JP002262
date=2016.01.19 (Created 2008.10.21, modified 2011.05.06)
author=MASS SPECTROSCOPY SOC. OF JAPAN (MSSJ)
license=CC BY-NC-SA
exact mass=194.16707
ionization energy=70 eV
ion type=[M]+*
computed spectral entropy=2.758890061494493
computed normalized entropy=0.7823618833740188
SPLASH=splash10-0002-9100000000-ee79ab475e57e966dde2
submitter=submitter = University of Tokyo Team (Faculty of Engineering, University of Tokyo)
MoNA Rating=3.75

>  <NUM PEAKS>  (5977) 
34

>  <MASS SPECTRAL PEAKS>  (5977) 
42 16
43 1.77
53 3.28
54 3.8
55 17.55
57 2.43
65 2.3
67 9.65
69 7.51
70 13.54
77 3.07
79 5.97
80 1.78
81 7.23
83 12.77
91 9.2
93 3.17
95 3.12
96 4.11
97 11.19
98 99.99
99 7.06
105 2.72
111 2.41
129 1.71
131 2.91
133 6.14
134 2.13
145 2.95
147 3.1
151 8.03
153 1.8
176 3.69
194 2.53

$$$$

     RDKit          2D

 16 16  0  0  0  0  0  0  0  0999 V2000
   -0.1858    0.8429    0.0000 C   0  0  0  0  0  0  0  0  0  0  0  0
    7.6267    0.8325    0.0000 C   0  0  0  0  0  0  0  0  0  0  0  0
   -3.5201    3.6584    0.0000 C   0  0  0  0  0  0  0  0  0  0  0  0
   -4.0792    1.6121    0.0000 C   0  0  0  0  0  0  0  0  0  0  0  0
   -2.0329    1.0529    0.0000 C   0  0  0  0  0  0  0  0  0  0  0  0
    3.7187    3.0801    0.0000 C   0  0  0  0  0  0  0  0  0  0  0  0
    2.4051    0.8552    0.0000 C   0  0  0  0  0  0  0  0  0  0  0  0
    5.0032    2.3552    0.0000 C   0  0  0  0  0  0  0  0  0  0  0  0
    3.7296    0.0611    0.0000 C   0  0  0  0  0  0  0  0  0  0  0  0
    1.1243    3.0865    0.0000 C   0  0  0  0  0  0  0  0  0  0  0  0
   -0.1784    2.3429    0.0000 C   0  0  0  0  0  0  0  0  0  0  0  0
    2.4196    2.3301    0.0000 C   0  0  0  0  0  0  0  0  0  0  0  0
    5.0287    0.8111    0.0000 C   0  0  0  0  0  0  0  0  0  0  0  0
    6.3338    0.0718    0.0000 O   0  0  0  0  0  0  0  0  0  0  0  0
   -1.4737    3.0993    0.0000 O   0  0  0  0  0  0  0  0  0  0  0  0
   -2.7765    2.3557    0.0000 Si  0  0  0  0  0  4  0  0  0  0  0  0
  8  6  2  0
  9  7  1  0
 11  1  2  0
 11 10  1  0
 12  6  1  0
 12  7  2  0
 12 10  1  0
 13  8  1  0
 13  9  2  0
 14  2  1  0
 14 13  1  0
 15 11  1  0
 16  3  1  0
 16  4  1  0
 16  5  1  0
 16 15  1  0
M  END
>  <NAME>  (5978) 
3-(PARA-METHOXYPHENYL)-2-TRIMETHYLSILOXYPROPENE

>  <SYNONYMS>  (5978) 


>  <SPECTRUM TYPE>  (5978) 
MS1

>  <INSTRUMENT TYPE>  (5978) 
EI-B

>  <INSTRUMENT>  (5978) 
JEOL JMS-D-3000

>  <ION MODE>  (5978) 
P

>  <INCHIKEY>  (5978) 
DUEZNAYVAXALAR-UHFFFAOYSA-N

>  <FORMULA>  (5978) 
C13H20O2Si

>  <EXACT MASS>  (5978) 
236.12325641

>  <MW>  (5978) 
236

>  <ID>  (5978) 
JP002260

>  <CONTRIBUTOR>  (5978) 
University of Tokyo Team, {Faculty of Engineering, University of Tokyo

>  <COMMENT>  (5978) 
SMILES=COc(c1)ccc(c1)CC(=C)O[Si](C)(C)C
InChI=InChI=1S/C13H20O2Si/c1-11(15-16(3,4)5)10-12-6-8-13(14-2)9-7-12/h6-9H,1,10H2,2-5H3
computed SMILES=O(C1=CC=C(C=C1)CC(O[Si](C)(C)C)=C)C
accession=JP002260
date=2016.01.19 (Created 2008.10.21, modified 2011.05.06)
author=MASS SPECTROSCOPY SOC. OF JAPAN (MSSJ)
license=CC BY-NC-SA
exact mass=236.12326
ion type=[M]+*
ionization energy=70 eV
computed spectral entropy=2.9763226352216643
computed normalized entropy=0.7963043658707923
SPLASH=splash10-00di-9240000000-b8d6c43779968f3e3450
submitter=submitter = University of Tokyo Team (Faculty of Engineering, University of Tokyo)
MoNA Rating=3.75

>  <NUM PEAKS>  (5978) 
42

>  <MASS SPECTRAL PEAKS>  (5978) 
47 2.65
48 5.01
51 3.48
55 4.3
57 5.55
58 4.16
59 5.39
60 4.84
69 2.71
73 99.99
74 10.22
75 43.62
76 4.23
77 11.97
78 3.77
79 2.42
89 2.85
91 5.51
92 3.52
97 2.41
103 3.11
105 2.78
107 3.01
115 2.94
117 2.99
121 19.98
135 23.5
136 3.26
147 3.08
163 2.58
164 3.21
193 3.46
205 3.01
206 3.52
207 2.98
209 41.83
210 7.41
211 2.31
221 5.48
223 3.9
236 23.76
237 8.45

$$$$

     RDKit          2D

 15 15  0  0  0  0  0  0  0  0999 V2000
   -5.1962    2.5700    0.0000 C   0  0  0  0  0  0  0  0  0  0  0  0
   -1.2990    0.3200    0.0000 C   0  0  0  0  0  0  0  0  0  0  0  0
    1.2990    4.8200    0.0000 C   0  0  0  0  0  0  0  0  0  0  0  0
   -3.8971    1.8200    0.0000 C   0  0  0  0  0  0  0  0  0  0  0  0
    3.8971    0.3200    0.0000 C   0  0  0  0  0  0  0  0  0  0  0  0
    3.8976    1.8208    0.0000 C   0  0  0  0  0  0  0  0  0  0  0  0
    2.5976   -0.4308    0.0000 C   0  0  0  0  0  0  0  0  0  0  0  0
    2.5986    2.5708    0.0000 C   0  0  0  0  0  0  0  0  0  0  0  0
    1.2986    0.3192    0.0000 C   0  0  0  0  0  0  0  0  0  0  0  0
   -1.2990    1.8200    0.0000 C   0  0  0  0  0  0  0  0  0  0  0  0
    1.2990    1.8200    0.0000 C   0  0  0  0  0  0  0  0  0  0  0  0
   -2.5981    2.5700    0.0000 C   0  0  0  0  0  0  0  0  0  0  0  0
    0.0000    2.5700    0.0000 C   0  0  0  0  0  0  0  0  0  0  0  0
   -2.5981    4.0700    0.0000 O   0  0  0  0  0  0  0  0  0  0  0  0
    0.0000    4.0700    0.0000 O   0  0  0  0  0  0  0  0  0  0  0  0
  4  1  1  0
  6  5  2  0
  7  5  1  0
  8  6  1  0
  9  7  2  0
 10  2  1  0
 11  8  2  0
 11  9  1  0
 12  4  1  0
 12 10  1  0
 13 10  1  0
 13 11  1  0
 14 12  2  0
 15  3  1  0
 15 13  1  0
M  END
>  <NAME>  (5979) 
1-METHOXY-2-METHYL-1-PHENYLPENTAN-3-ONE

>  <SYNONYMS>  (5979) 


>  <SPECTRUM TYPE>  (5979) 
MS1

>  <INSTRUMENT TYPE>  (5979) 
EI-B

>  <INSTRUMENT>  (5979) 
JEOL JMS-D-3000

>  <ION MODE>  (5979) 
P

>  <INCHIKEY>  (5979) 
JEAZSOXKLCVEAR-UHFFFAOYSA-N

>  <FORMULA>  (5979) 
C13H18O2

>  <EXACT MASS>  (5979) 
206.130679816

>  <MW>  (5979) 
206

>  <ID>  (5979) 
JP002259

>  <CONTRIBUTOR>  (5979) 
University of Tokyo Team, {Faculty of Engineering, University of Tokyo

>  <COMMENT>  (5979) 
SMILES=CCC(=O)C(C)C(OC)c(c1)cccc1
InChI=InChI=1S/C13H18O2/c1-4-12(14)10(2)13(15-3)11-8-6-5-7-9-11/h5-10,13H,4H2,1-3H3
computed SMILES=O=C(CC)C(C)C(OC)C=1C=CC=CC1
accession=JP002259
date=2016.01.19 (Created 2008.10.21, modified 2011.05.06)
author=MASS SPECTROSCOPY SOC. OF JAPAN (MSSJ)
license=CC BY-NC-SA
exact mass=206.13068
ionization energy=70 eV
ion type=[M]+*
computed spectral entropy=1.4300976517322448
computed normalized entropy=0.5280912632824079
SPLASH=splash10-00di-1900000000-b0e26b5aec74d220bdcb
submitter=submitter = University of Tokyo Team (Faculty of Engineering, University of Tokyo)
MoNA Rating=3.75

>  <NUM PEAKS>  (5979) 
15

>  <MASS SPECTRAL PEAKS>  (5979) 
57 4.37
77 5.63
78 1.05
91 4.71
105 4.15
115 2.08
117 5.63
118 2.88
121 99.99
122 9.47
145 1.54
174 5.43
177 1.29
191 1.28
206 0.19

$$$$

     RDKit          2D

 16 16  0  0  0  0  0  0  0  0999 V2000
   -6.8197    3.1321    0.0000 C   0  0  0  0  0  0  0  0  0  0  0  0
   -4.2216    7.6321    0.0000 C   0  0  0  0  0  0  0  0  0  0  0  0
   -5.5207    3.8821    0.0000 C   0  0  0  0  0  0  0  0  0  0  0  0
   -4.2216    6.1321    0.0000 C   0  0  0  0  0  0  0  0  0  0  0  0
    3.5726    1.6321    0.0000 C   0  0  0  0  0  0  0  0  0  0  0  0
    3.5731    3.1329    0.0000 C   0  0  0  0  0  0  0  0  0  0  0  0
    2.2731    0.8813    0.0000 C   0  0  0  0  0  0  0  0  0  0  0  0
    2.2740    3.8829    0.0000 C   0  0  0  0  0  0  0  0  0  0  0  0
    0.9740    1.6313    0.0000 C   0  0  0  0  0  0  0  0  0  0  0  0
   -1.6236    3.1321    0.0000 C   0  0  0  0  0  0  0  0  0  0  0  0
    0.9745    3.1321    0.0000 C   0  0  0  0  0  0  0  0  0  0  0  0
   -0.3245    3.8821    0.0000 C   0  0  0  0  0  0  0  0  0  0  0  0
   -2.9226    3.8821    0.0000 C   0  0  0  0  0  0  0  0  0  0  0  0
   -0.3245    5.3821    0.0000 O   0  0  0  0  0  0  0  0  0  0  0  0
   -4.2216    3.1321    0.0000 O   0  0  0  0  0  0  0  0  0  0  0  0
   -2.9226    5.3821    0.0000 O   0  0  0  0  0  0  0  0  0  0  0  0
  3  1  1  0
  4  2  1  0
  6  5  2  0
  7  5  1  0
  8  6  1  0
  9  7  2  0
 11  8  2  0
 11  9  1  0
 12 10  1  0
 12 11  1  0
 13 10  1  0
 14 12  2  0
 15  3  1  0
 15 13  1  0
 16  4  1  0
 16 13  1  0
M  END
>  <NAME>  (5980) 
3,3-DIETHOXYPROPIOPHENONE

>  <SYNONYMS>  (5980) 


>  <SPECTRUM TYPE>  (5980) 
MS1

>  <INSTRUMENT TYPE>  (5980) 
EI-B

>  <INSTRUMENT>  (5980) 
JEOL JMS-D-3000

>  <ION MODE>  (5980) 
P

>  <INCHIKEY>  (5980) 
DTLKIEUIPAYFLA-UHFFFAOYSA-N

>  <FORMULA>  (5980) 
C13H18O3

>  <EXACT MASS>  (5980) 
222.12559443599997

>  <MW>  (5980) 
222

>  <ID>  (5980) 
JP002258

>  <CONTRIBUTOR>  (5980) 
University of Tokyo Team, {Faculty of Engineering, University of Tokyo

>  <COMMENT>  (5980) 
SMILES=CCOC(OCC)CC(=O)c(c1)cccc1
InChI=InChI=1S/C13H18O3/c1-3-15-13(16-4-2)10-12(14)11-8-6-5-7-9-11/h5-9,13H,3-4,10H2,1-2H3
computed SMILES=O=C(C=1C=CC=CC1)CC(OCC)OCC
accession=JP002258
date=2016.01.19 (Created 2008.10.21, modified 2011.05.06)
author=MASS SPECTROSCOPY SOC. OF JAPAN (MSSJ)
license=CC BY-NC-SA
exact mass=222.12559
ionization energy=70 eV
ion type=[M]+*
computed spectral entropy=2.2480487472487067
computed normalized entropy=0.7169679139664865
SPLASH=splash10-0a4i-4900000000-c22fcf24d8b6f3ea191b
submitter=submitter = University of Tokyo Team (Faculty of Engineering, University of Tokyo)
MoNA Rating=3.75

>  <NUM PEAKS>  (5980) 
23

>  <MASS SPECTRAL PEAKS>  (5980) 
43 3
44 3.46
45 1.44
47 21.2
51 5.49
71 3.23
72 2.45
75 19.46
76 2.06
77 21.64
78 2.97
99 1.54
103 30.07
104 2.26
105 99.99
106 8.18
120 1.39
147 4.07
177 4.33
178 1.47
193 15.66
194 1.96
222 2.09

$$$$

     RDKit          2D

 16 18  0  0  0  0  0  0  0  0999 V2000
   -5.1296    2.9615    0.0000 C   0  0  0  0  0  0  0  0  0  0  0  0
   -2.5315   -1.5385    0.0000 C   0  0  0  0  0  0  0  0  0  0  0  0
    2.6647    4.4615    0.0000 C   0  0  0  0  0  0  0  0  0  0  0  0
    1.3652    5.2124    0.0000 C   0  0  0  0  0  0  0  0  0  0  0  0
    2.6652    2.9607    0.0000 C   0  0  0  0  0  0  0  0  0  0  0  0
    0.0661    4.4624    0.0000 C   0  0  0  0  0  0  0  0  0  0  0  0
    1.3661    2.2107    0.0000 C   0  0  0  0  0  0  0  0  0  0  0  0
   -2.5315    2.9615    0.0000 C   0  0  0  0  0  0  0  0  0  0  0  0
   -1.2324    0.7115    0.0000 C   0  0  0  0  0  0  0  0  0  0  0  0
    0.0666    2.9615    0.0000 C   0  0  0  0  0  0  0  0  0  0  0  0
   -1.2324    2.2115    0.0000 C   0  0  0  0  0  0  0  0  0  0  0  0
   -3.8305    2.2115    0.0000 C   0  0  0  0  0  0  0  0  0  0  0  0
   -2.5315   -0.0385    0.0000 C   0  0  0  0  0  0  0  0  0  0  0  0
   -3.8305    0.7115    0.0000 O   0  0  0  0  0  0  0  0  0  0  0  0
   -5.7258    0.6866    0.0000 O   0  0  0  0  0  0  0  0  0  0  0  0
   -4.7997   -0.9173    0.0000 O   0  0  0  0  0  0  0  0  0  0  0  0
  4  3  2  0
  5  3  1  0
  6  4  1  0
  7  5  2  0
 10  6  2  0
 10  7  1  0
 11  8  1  0
 11  9  1  0
 11 10  1  0
 12  1  1  0
 12  8  1  0
 13  2  1  0
 13  9  1  0
 14 12  1  0
 14 13  1  0
 15 12  1  0
 16 13  1  0
 16 15  1  0
M  END
>  <NAME>  (5981) 
1,5-DIMETHYL-3-PHENYL-6,7,8-TRIOXABICYCLO(3.2.1)OCTANE

>  <SYNONYMS>  (5981) 


>  <SPECTRUM TYPE>  (5981) 
MS1

>  <INSTRUMENT TYPE>  (5981) 
EI-B

>  <INSTRUMENT>  (5981) 
JEOL JMS-D-3000

>  <ION MODE>  (5981) 
P

>  <INCHIKEY>  (5981) 
NACUOFJOIXFQJT-UHFFFAOYSA-N

>  <FORMULA>  (5981) 
C13H16O3

>  <EXACT MASS>  (5981) 
220.10994437199997

>  <MW>  (5981) 
220

>  <ID>  (5981) 
JP002257

>  <CONTRIBUTOR>  (5981) 
University of Tokyo Team, {Faculty of Engineering, University of Tokyo

>  <COMMENT>  (5981) 
SMILES=c(c3)ccc(c3)C(C1)CC(C)(O2)OC(C)(O2)1
InChI=InChI=1S/C13H16O3/c1-12-8-11(10-6-4-3-5-7-10)9-13(2,14-12)16-15-12/h3-7,11H,8-9H2,1-2H3
computed SMILES=O1OC2(OC1(C)CC(C=3C=CC=CC3)C2)C
accession=JP002257
date=2016.01.19 (Created 2008.10.21, modified 2011.05.06)
author=MASS SPECTROSCOPY SOC. OF JAPAN (MSSJ)
license=CC BY-NC-SA
exact mass=220.10994
ionization energy=70 eV
ion type=[M]+*
computed spectral entropy=3.3988957761725467
computed normalized entropy=0.9152631792572083
SPLASH=splash10-014i-3900000000-0de90a07d95b5eaff1d8
submitter=submitter = University of Tokyo Team (Faculty of Engineering, University of Tokyo)
MoNA Rating=3.75

>  <NUM PEAKS>  (5981) 
41

>  <MASS SPECTRAL PEAKS>  (5981) 
40 12.09
43 9.33
44 23.25
45 16.9
50 8.28
51 23.14
52 5.58
58 9.39
60 16.62
63 9.72
65 11.82
77 23.75
78 17.95
82 10.38
83 11.82
89 8.06
91 40.11
102 7.12
103 31.1
104 53.97
105 18.83
115 42.98
116 10.77
117 99.99
118 63.81
119 9
127 6.18
128 8.28
129 15.63
130 28.17
137 25.8
145 29.17
146 9.55
147 59.55
148 7.4
158 11.87
159 15.46
160 54.8
161 10.27
162 7.95
204 8.06

$$$$

     RDKit          2D

 15 16  0  0  0  0  0  0  0  0999 V2000
   -0.3706   -2.1717    0.0000 C   0  0  0  0  0  0  0  0  0  0  0  0
    4.8256    2.3283    0.0000 C   0  0  0  0  0  0  0  0  0  0  0  0
    3.5261    3.0791    0.0000 C   0  0  0  0  0  0  0  0  0  0  0  0
    4.8261    0.8275    0.0000 C   0  0  0  0  0  0  0  0  0  0  0  0
   -2.7364    1.3374    0.0000 C   0  0  0  0  0  0  0  0  0  0  0  0
    2.2270    2.3291    0.0000 C   0  0  0  0  0  0  0  0  0  0  0  0
    3.5270    0.0775    0.0000 C   0  0  0  0  0  0  0  0  0  0  0  0
   -1.7407    0.2127    0.0000 C   0  0  0  0  0  0  0  0  0  0  0  0
   -1.9880    2.6288    0.0000 C   0  0  0  0  0  0  0  0  0  0  0  0
    2.2275    0.8283    0.0000 C   0  0  0  0  0  0  0  0  0  0  0  0
   -0.3706    0.8283    0.0000 C   0  0  0  0  0  0  0  0  0  0  0  0
   -0.5216    2.3133    0.0000 C   0  0  0  0  0  0  0  0  0  0  0  0
    0.9285    0.0783    0.0000 C   0  0  0  0  0  0  0  0  0  0  0  0
    0.5961    3.3137    0.0000 O   0  0  0  0  0  0  0  0  0  0  0  0
    0.9285   -1.4217    0.0000 O   0  0  0  0  0  0  0  0  0  0  0  0
  3  2  2  0
  4  2  1  0
  6  3  1  0
  7  4  2  0
  8  5  1  0
  9  5  1  0
 10  6  2  0
 10  7  1  0
 11  8  1  0
 12  9  1  0
 12 11  1  0
 13 10  1  0
 13 11  1  0
 14 12  2  0
 15  1  1  0
 15 13  1  0
M  END
>  <NAME>  (5982) 
2-(1-METHOXYBENZYL)CYCLOPENTANONE

>  <SYNONYMS>  (5982) 


>  <SPECTRUM TYPE>  (5982) 
MS1

>  <INSTRUMENT TYPE>  (5982) 
EI-B

>  <INSTRUMENT>  (5982) 
JEOL JMS-D-3000

>  <ION MODE>  (5982) 
P

>  <INCHIKEY>  (5982) 
JECPKECYQZJMRB-UHFFFAOYSA-N

>  <FORMULA>  (5982) 
C13H16O2

>  <EXACT MASS>  (5982) 
204.115029752

>  <MW>  (5982) 
204

>  <ID>  (5982) 
JP002256

>  <CONTRIBUTOR>  (5982) 
University of Tokyo Team, {Faculty of Engineering, University of Tokyo

>  <COMMENT>  (5982) 
SMILES=COC(c(c2)cccc2)C(C1)C(=O)CC1
InChI=InChI=1S/C13H16O2/c1-15-13(10-6-3-2-4-7-10)11-8-5-9-12(11)14/h2-4,6-7,11,13H,5,8-9H2,1H3
computed SMILES=O=C1CCCC1C(OC)C=2C=CC=CC2
accession=JP002256
date=2016.01.19 (Created 2008.10.21, modified 2011.05.06)
author=MASS SPECTROSCOPY SOC. OF JAPAN (MSSJ)
license=CC BY-NC-SA
exact mass=204.11503
ionization energy=70 eV
ion type=[M]+*
computed spectral entropy=1.7528101384364714
computed normalized entropy=0.5757258073444043
SPLASH=splash10-00di-2900000000-d8d799df3f792d0d2c43
submitter=submitter = University of Tokyo Team (Faculty of Engineering, University of Tokyo)
MoNA Rating=3.75

>  <NUM PEAKS>  (5982) 
21

>  <MASS SPECTRAL PEAKS>  (5982) 
40 2.76
42 1.69
44 1.08
51 2.28
55 1.13
65 1.69
77 9.91
78 2
91 8.14
105 4.01
115 4.23
116 2.23
117 2.63
121 99.99
122 9.3
128 1.46
129 2.28
130 2.79
171 2.4
172 2.81
204 0.6

$$$$

     RDKit          2D

 14 14  0  0  0  0  0  0  0  0999 V2000
    1.9493   -1.5546    0.0000 C   0  0  0  0  0  0  0  0  0  0  0  0
    3.2483    2.1954    0.0000 C   0  0  0  0  0  0  0  0  0  0  0  0
    0.6502   -0.8046    0.0000 C   0  0  0  0  0  0  0  0  0  0  0  0
   -4.5459    3.6954    0.0000 C   0  0  0  0  0  0  0  0  0  0  0  0
   -4.5464    2.1946    0.0000 C   0  0  0  0  0  0  0  0  0  0  0  0
   -3.2464    4.4462    0.0000 C   0  0  0  0  0  0  0  0  0  0  0  0
   -0.6488   -0.0546    0.0000 C   0  0  0  0  0  0  0  0  0  0  0  0
   -3.2474    1.4446    0.0000 C   0  0  0  0  0  0  0  0  0  0  0  0
   -1.9474    3.6962    0.0000 C   0  0  0  0  0  0  0  0  0  0  0  0
    0.6502    2.1954    0.0000 C   0  0  0  0  0  0  0  0  0  0  0  0
    1.9493    1.4454    0.0000 C   0  0  0  0  0  0  0  0  0  0  0  0
   -1.9478    2.1954    0.0000 C   0  0  0  0  0  0  0  0  0  0  0  0
   -0.6488    1.4454    0.0000 C   0  0  0  0  0  0  0  0  0  0  0  0
    1.9493   -0.0546    0.0000 O   0  0  0  0  0  0  0  0  0  0  0  0
  3  1  3  0
  5  4  2  0
  6  4  1  0
  7  3  1  0
  8  5  1  0
  9  6  2  0
 11  2  1  0
 11 10  1  0
 12  8  2  0
 12  9  1  0
 13  7  1  0
 13 10  1  0
 13 12  1  0
 14 11  2  0
M  END
>  <NAME>  (5983) 
4-PHENYL-6-HEPTYN-2-ONE

>  <SYNONYMS>  (5983) 


>  <SPECTRUM TYPE>  (5983) 
MS1

>  <INSTRUMENT TYPE>  (5983) 
EI-B

>  <INSTRUMENT>  (5983) 
JEOL JMS-D-3000

>  <ION MODE>  (5983) 
P

>  <INCHIKEY>  (5983) 
BYUGDDFTCNVKKD-UHFFFAOYSA-N

>  <FORMULA>  (5983) 
C13H14O

>  <EXACT MASS>  (5983) 
186.104465068

>  <MW>  (5983) 
186

>  <ID>  (5983) 
JP002255

>  <CONTRIBUTOR>  (5983) 
University of Tokyo Team, {Faculty of Engineering, University of Tokyo

>  <COMMENT>  (5983) 
SMILES=C#CCC(CC(C)=O)c(c1)cccc1
InChI=InChI=1S/C13H14O/c1-3-7-13(10-11(2)14)12-8-5-4-6-9-12/h1,4-6,8-9,13H,7,10H2,2H3
computed SMILES=O=C(C)CC(C=1C=CC=CC1)CC#C
accession=JP002255
date=2016.01.19 (Created 2008.10.21, modified 2011.05.06)
author=MASS SPECTROSCOPY SOC. OF JAPAN (MSSJ)
license=CC BY-NC-SA
exact mass=186.10447
ionization energy=70 eV
ion type=[M]+*
computed spectral entropy=2.000816459910276
computed normalized entropy=0.6215885820920728
SPLASH=splash10-0006-9600000000-81a6b4279cd6aa18342c
submitter=submitter = University of Tokyo Team (Faculty of Engineering, University of Tokyo)
MoNA Rating=3.75

>  <NUM PEAKS>  (5983) 
25

>  <MASS SPECTRAL PEAKS>  (5983) 
43 99.99
50 1.24
51 4.1
52 1.19
63 1.99
65 1.62
67 1.27
75 1
77 5.17
78 2.8
91 3.4
102 1.58
103 3.36
104 2.65
105 1.54
115 2.01
127 2.99
128 36.7
129 7.38
141 1.11
142 1.3
143 17.52
144 4.77
147 3.36
186 0.8

$$$$

     RDKit          2D

 14 15  0  0  0  0  0  0  0  0999 V2000
    2.5986   -3.7512    0.0000 C   0  0  0  0  0  0  0  0  0  0  0  0
   -2.5982    2.2494    0.0000 C   0  0  0  0  0  0  0  0  0  0  0  0
   -2.5989    0.7485    0.0000 C   0  0  0  0  0  0  0  0  0  0  0  0
   -1.2986    3.0000    0.0000 C   0  0  0  0  0  0  0  0  0  0  0  0
   -1.3000   -0.0017    0.0000 C   0  0  0  0  0  0  0  0  0  0  0  0
    0.0004    2.2498    0.0000 C   0  0  0  0  0  0  0  0  0  0  0  0
    1.2986   -1.5012    0.0000 C   0  0  0  0  0  0  0  0  0  0  0  0
    3.8986   -1.5012    0.0000 C   0  0  0  0  0  0  0  0  0  0  0  0
    2.5986    0.7488    0.0000 C   0  0  0  0  0  0  0  0  0  0  0  0
    2.5986   -2.2512    0.0000 C   0  0  0  0  0  0  0  0  0  0  0  0
   -0.0004    0.7490    0.0000 C   0  0  0  0  0  0  0  0  0  0  0  0
    1.2986   -0.0012    0.0000 C   0  0  0  0  0  0  0  0  0  0  0  0
    3.8986   -0.0012    0.0000 C   0  0  0  0  0  0  0  0  0  0  0  0
    5.1975    0.7490    0.0000 O   0  0  0  0  0  0  0  0  0  0  0  0
  3  2  2  0
  4  2  1  0
  5  3  1  0
  6  4  2  0
 10  1  1  0
 10  7  1  0
 10  8  2  0
 11  5  2  0
 11  6  1  0
 12  7  1  0
 12  9  1  0
 12 11  1  0
 13  8  1  0
 13  9  1  0
 14 13  2  0
M  END
>  <NAME>  (5984) 
3-METHYL-5-PHENYLCYCLOHEX-2-ENONE

>  <SYNONYMS>  (5984) 


>  <SPECTRUM TYPE>  (5984) 
MS1

>  <INSTRUMENT TYPE>  (5984) 
EI-B

>  <INSTRUMENT>  (5984) 
JEOL JMS-D-3000

>  <ION MODE>  (5984) 
P

>  <INCHIKEY>  (5984) 
NIWQFOONBVIMGR-UHFFFAOYSA-N

>  <FORMULA>  (5984) 
C13H14O

>  <EXACT MASS>  (5984) 
186.104465068

>  <MW>  (5984) 
186

>  <ID>  (5984) 
JP002254

>  <CONTRIBUTOR>  (5984) 
University of Tokyo Team, {Faculty of Engineering, University of Tokyo

>  <COMMENT>  (5984) 
SMILES=CC(=C2)CC(CC(=O)2)c(c1)cccc1
InChI=InChI=1S/C13H14O/c1-10-7-12(9-13(14)8-10)11-5-3-2-4-6-11/h2-6,8,12H,7,9H2,1H3
computed SMILES=O=C1C=C(C)CC(C=2C=CC=CC2)C1
accession=JP002254
date=2016.01.19 (Created 2008.10.21, modified 2011.05.06)
author=MASS SPECTROSCOPY SOC. OF JAPAN (MSSJ)
license=CC BY-NC-SA
exact mass=186.10447
ionization energy=70 eV
ion type=[M]+*
computed spectral entropy=1.4750347514417468
computed normalized entropy=0.5935976514721747
SPLASH=splash10-001i-9500000000-2b589e450435bac91e86
submitter=submitter = University of Tokyo Team (Faculty of Engineering, University of Tokyo)
MoNA Rating=3.75

>  <NUM PEAKS>  (5984) 
12

>  <MASS SPECTRAL PEAKS>  (5984) 
44 1.84
54 3.54
82 99.99
83 5.83
104 11.01
105 1.99
142 3.67
143 2.08
144 3.08
184 1.86
186 42.45
187 5.94

$$$$

     RDKit          2D

 14 13  0  0  0  0  0  0  0  0999 V2000
   -8.2697    4.9755    0.0000 C   0  0  0  0  0  0  0  0  0  0  0  0
   -0.4755    1.9755    0.0000 C   0  0  0  0  0  0  0  0  0  0  0  0
   -3.0736    1.9755    0.0000 C   0  0  0  0  0  0  0  0  0  0  0  0
    0.0736    2.9264    0.0000 C   0  0  0  0  0  0  0  0  0  0  0  0
    2.1226    3.4755    0.0000 C   0  0  0  0  0  0  0  0  0  0  0  0
    1.5736    5.5245    0.0000 C   0  0  0  0  0  0  0  0  0  0  0  0
   -6.9707    4.2255    0.0000 C   0  0  0  0  0  0  0  0  0  0  0  0
   -5.6716    4.9755    0.0000 C   0  0  0  0  0  0  0  0  0  0  0  0
   -4.3726    4.2255    0.0000 C   0  0  0  0  0  0  0  0  0  0  0  0
   -3.0736    4.9755    0.0000 C   0  0  0  0  0  0  0  0  0  0  0  0
   -1.7745    2.7255    0.0000 C   0  0  0  0  0  0  0  0  0  0  0  0
   -1.7745    4.2255    0.0000 C   0  0  0  0  0  0  0  0  0  0  0  0
   -0.4755    4.9755    0.0000 O   0  0  0  0  0  0  0  0  0  0  0  0
    0.8236    4.2255    0.0000 Si  0  0  0  0  0  4  0  0  0  0  0  0
  7  1  1  0
  8  7  1  0
  9  8  1  0
 10  9  1  0
 11  2  1  0
 11  3  1  0
 12 10  1  0
 12 11  2  0
 13 12  1  0
 14  4  1  0
 14  5  1  0
 14  6  1  0
 14 13  1  0
M  END
>  <NAME>  (5985) 
2-METHYL-3-TRIMETHYLSILOXY-2-OCTENE

>  <SYNONYMS>  (5985) 


>  <SPECTRUM TYPE>  (5985) 
MS1

>  <INSTRUMENT TYPE>  (5985) 
EI-B

>  <INSTRUMENT>  (5985) 
JEOL JMS-D-3000

>  <ION MODE>  (5985) 
P

>  <INCHIKEY>  (5985) 
XEAQQYZZUGWXNO-UHFFFAOYSA-N

>  <FORMULA>  (5985) 
C12H26OSi

>  <EXACT MASS>  (5985) 
214.175291982

>  <MW>  (5985) 
214

>  <ID>  (5985) 
JP002253

>  <CONTRIBUTOR>  (5985) 
University of Tokyo Team, {Faculty of Engineering, University of Tokyo

>  <COMMENT>  (5985) 
SMILES=CCCCCC(=C(C)C)O[Si](C)(C)C
InChI=InChI=1S/C12H26OSi/c1-7-8-9-10-12(11(2)3)13-14(4,5)6/h7-10H2,1-6H3
computed SMILES=O(C(=C(C)C)CCCCC)[Si](C)(C)C
accession=JP002253
date=2016.01.19 (Created 2008.10.21, modified 2011.05.06)
author=MASS SPECTROSCOPY SOC. OF JAPAN (MSSJ)
license=CC BY-NC-SA
exact mass=214.17529
ionization energy=70 eV
ion type=[M]+*
computed spectral entropy=2.6925253159352973
computed normalized entropy=0.8169473870833753
SPLASH=splash10-05fu-8900000000-20abe269eaf66a8b1e10
submitter=submitter = University of Tokyo Team (Faculty of Engineering, University of Tokyo)
MoNA Rating=3.75

>  <NUM PEAKS>  (5985) 
27

>  <MASS SPECTRAL PEAKS>  (5985) 
42 18.3
43 11.37
45 12.83
55 4.66
59 5.14
67 9.49
69 6.36
71 5.53
73 99.99
74 8.57
75 62.66
76 4.58
81 6.53
91 7.59
99 4.92
130 7.98
143 72.94
144 10.61
157 4.78
158 92.64
159 14.66
160 4.44
171 45.97
172 8.18
199 10.73
214 22.86
215 4.52

$$$$

     RDKit          2D

 14 13  0  0  0  0  0  0  0  0999 V2000
    2.9228    3.9375    0.0000 C   0  0  0  0  0  0  0  0  0  0  0  0
    1.6238    6.1875    0.0000 C   0  0  0  0  0  0  0  0  0  0  0  0
   -7.4695    3.9375    0.0000 C   0  0  0  0  0  0  0  0  0  0  0  0
   -3.5724    1.6875    0.0000 C   0  0  0  0  0  0  0  0  0  0  0  0
    0.3248    3.9375    0.0000 C   0  0  0  0  0  0  0  0  0  0  0  0
   -4.8714    3.9375    0.0000 C   0  0  0  0  0  0  0  0  0  0  0  0
   -0.9743    4.6875    0.0000 C   0  0  0  0  0  0  0  0  0  0  0  0
   -3.5724    4.6875    0.0000 C   0  0  0  0  0  0  0  0  0  0  0  0
    1.6238    4.6875    0.0000 C   0  0  0  0  0  0  0  0  0  0  0  0
   -6.1704    4.6875    0.0000 C   0  0  0  0  0  0  0  0  0  0  0  0
   -2.2733    2.4375    0.0000 C   0  0  0  0  0  0  0  0  0  0  0  0
   -2.2733    3.9375    0.0000 C   0  0  0  0  0  0  0  0  0  0  0  0
   -6.1704    6.1875    0.0000 O   0  0  0  0  0  0  0  0  0  0  0  0
   -0.9743    1.6875    0.0000 O   0  0  0  0  0  0  0  0  0  0  0  0
  7  5  1  0
  8  6  1  0
  9  1  2  0
  9  2  1  0
  9  5  1  0
 10  3  1  0
 10  6  1  0
 11  4  1  0
 12  7  1  0
 12  8  1  0
 12 11  1  0
 13 10  2  0
 14 11  2  0
M  END
>  <NAME>  (5986) 
3-(3-METHYL-3-BUTENYL)HEPTA-2,6-DIONE

>  <SYNONYMS>  (5986) 


>  <SPECTRUM TYPE>  (5986) 
MS1

>  <INSTRUMENT TYPE>  (5986) 
EI-B

>  <INSTRUMENT>  (5986) 
JEOL JMS-D-3000

>  <ION MODE>  (5986) 
P

>  <INCHIKEY>  (5986) 
UIPLNRWNRUEEPE-UHFFFAOYSA-N

>  <FORMULA>  (5986) 
C12H20O2

>  <EXACT MASS>  (5986) 
196.14632988

>  <MW>  (5986) 
196

>  <ID>  (5986) 
JP002252

>  <CONTRIBUTOR>  (5986) 
University of Tokyo Team, {Faculty of Engineering, University of Tokyo

>  <COMMENT>  (5986) 
SMILES=CC(=C)CCC(CCC(C)=O)C(C)=O
InChI=InChI=1S/C12H20O2/c1-9(2)5-7-12(11(4)14)8-6-10(3)13/h12H,1,5-8H2,2-4H3
computed SMILES=O=C(C)CCC(C(=O)C)CCC(=C)C
accession=JP002252
date=2016.01.19 (Created 2008.10.21, modified 2011.05.06)
author=MASS SPECTROSCOPY SOC. OF JAPAN (MSSJ)
license=CC BY-NC-SA
exact mass=196.14633
ionization energy=70 eV
ion type=[M]+*
computed spectral entropy=3.0345900315621614
computed normalized entropy=0.8342317950182709
SPLASH=splash10-004i-2900000000-25ac693cdc7acee56329
submitter=submitter = University of Tokyo Team (Faculty of Engineering, University of Tokyo)
MoNA Rating=3.75

>  <NUM PEAKS>  (5986) 
38

>  <MASS SPECTRAL PEAKS>  (5986) 
43 3.3
71 17.03
72 2.61
85 5.77
86 2.32
93 7.11
95 22.41
96 2.62
97 2.66
99 2.97
100 3.36
105 8.76
106 2.09
107 6.4
108 5.15
109 2.75
110 4.27
111 2.84
113 3.08
118 2.89
119 4.51
120 19.95
121 6.94
123 7.95
125 10.03
126 3.46
128 99.99
129 8.6
135 7.58
138 7.76
139 9.81
141 11.27
145 9.79
153 2.6
158 3.5
160 10.99
178 9.9
196 9.71

$$$$

     RDKit          2D

 13 13  0  0  0  0  0  0  0  0999 V2000
    4.5468    3.0006    0.0000 C   0  0  0  0  0  0  0  0  0  0  0  0
    3.2474    5.2504    0.0000 C   0  0  0  0  0  0  0  0  0  0  0  0
    3.2481    0.7504    0.0000 C   0  0  0  0  0  0  0  0  0  0  0  0
   -1.9500    0.7500    0.0000 C   0  0  0  0  0  0  0  0  0  0  0  0
   -1.9500   -0.7500    0.0000 C   0  0  0  0  0  0  0  0  0  0  0  0
   -0.6500    1.5000    0.0000 C   0  0  0  0  0  0  0  0  0  0  0  0
   -0.6500   -1.5000    0.0000 C   0  0  0  0  0  0  0  0  0  0  0  0
    1.9487    3.0002    0.0000 C   0  0  0  0  0  0  0  0  0  0  0  0
    3.2476    3.7504    0.0000 C   0  0  0  0  0  0  0  0  0  0  0  0
    1.9489    1.5002    0.0000 C   0  0  0  0  0  0  0  0  0  0  0  0
    0.6500    0.7500    0.0000 C   0  0  0  0  0  0  0  0  0  0  0  0
    0.6500   -0.7500    0.0000 C   0  0  0  0  0  0  0  0  0  0  0  0
    1.9489   -1.5002    0.0000 O   0  0  0  0  0  0  0  0  0  0  0  0
  5  4  1  0
  6  4  1  0
  7  5  1  0
  9  1  2  0
  9  2  1  0
  9  8  1  0
 10  3  1  0
 10  8  1  0
 11  6  1  0
 11 10  1  0
 12  7  1  0
 12 11  1  0
 13 12  2  0
M  END
>  <NAME>  (5987) 
2-(1,3-DIMETHYL-3-BUTENYL)CYCLOHEXANONE

>  <SYNONYMS>  (5987) 


>  <SPECTRUM TYPE>  (5987) 
MS1

>  <INSTRUMENT TYPE>  (5987) 
EI-B

>  <INSTRUMENT>  (5987) 
JEOL JMS-D-3000

>  <ION MODE>  (5987) 
P

>  <INCHIKEY>  (5987) 
JNHRKKHWPNJMSO-UHFFFAOYSA-N

>  <FORMULA>  (5987) 
C12H20O

>  <EXACT MASS>  (5987) 
180.15141526

>  <MW>  (5987) 
180

>  <ID>  (5987) 
JP002251

>  <CONTRIBUTOR>  (5987) 
University of Tokyo Team, {Faculty of Engineering, University of Tokyo

>  <COMMENT>  (5987) 
SMILES=CC(=C)CC(C)C(C1)C(=O)CCC1
InChI=InChI=1S/C12H20O/c1-9(2)8-10(3)11-6-4-5-7-12(11)13/h10-11H,1,4-8H2,2-3H3
computed SMILES=O=C1CCCCC1C(C)CC(=C)C
accession=JP002251
date=2016.01.19 (Created 2008.10.21, modified 2011.05.06)
author=MASS SPECTROSCOPY SOC. OF JAPAN (MSSJ)
license=CC BY-NC-SA
exact mass=180.15142
ionization energy=70 eV
ion type=[M]+*
computed spectral entropy=2.788272186296523
computed normalized entropy=0.8662254582034681
SPLASH=splash10-06r2-4900000000-7e6214bf9210221be420
submitter=submitter = University of Tokyo Team (Faculty of Engineering, University of Tokyo)
MoNA Rating=3.75

>  <NUM PEAKS>  (5987) 
25

>  <MASS SPECTRAL PEAKS>  (5987) 
55 14.89
67 9.57
70 9.09
79 7.09
81 6.09
82 8.02
83 37.15
91 9.46
93 8.76
97 8.02
98 63.17
105 67.68
106 11.42
107 8.57
119 30.31
120 27.65
125 22.36
133 13.38
137 7.72
145 7.06
147 70.83
148 9.02
162 99.99
163 11.9
180 11.6

$$$$

     RDKit          2D

 14 14  0  0  0  0  0  0  0  0999 V2000
   -1.6353    4.6878    0.0000 C   0  0  0  0  0  0  0  0  0  0  0  0
    2.8183   -1.1087    0.0000 C   0  0  0  0  0  0  0  0  0  0  0  0
    4.8672   -0.5594    0.0000 C   0  0  0  0  0  0  0  0  0  0  0  0
    4.3179    1.4896    0.0000 C   0  0  0  0  0  0  0  0  0  0  0  0
   -1.6200   -1.3100    0.0000 C   0  0  0  0  0  0  0  0  0  0  0  0
   -0.3300   -2.0600    0.0000 C   0  0  0  0  0  0  0  0  0  0  0  0
   -1.6200    0.1900    0.0000 C   0  0  0  0  0  0  0  0  0  0  0  0
    0.9700   -1.3100    0.0000 C   0  0  0  0  0  0  0  0  0  0  0  0
   -0.3325    2.4400    0.0000 C   0  0  0  0  0  0  0  0  0  0  0  0
    2.2689    0.9402    0.0000 C   0  0  0  0  0  0  0  0  0  0  0  0
   -0.3300    0.9400    0.0000 C   0  0  0  0  0  0  0  0  0  0  0  0
    0.9700    0.1900    0.0000 C   0  0  0  0  0  0  0  0  0  0  0  0
   -1.6328    3.1878    0.0000 O   0  0  0  0  0  0  0  0  0  0  0  0
    3.5681    0.1904    0.0000 Si  0  0  0  0  0  4  0  0  0  0  0  0
  6  5  2  0
  7  5  1  0
  8  6  1  0
 11  7  2  0
 11  9  1  0
 12  8  2  0
 12 10  1  0
 12 11  1  0
 13  1  1  0
 13  9  1  0
 14  2  1  0
 14  3  1  0
 14  4  1  0
 14 10  1  0
M  END
>  <NAME>  (5988) 
2-(TRIMETHYLSILYLMETHYL)BENZYL METHYL ETHER

>  <SYNONYMS>  (5988) 


>  <SPECTRUM TYPE>  (5988) 
MS1

>  <INSTRUMENT TYPE>  (5988) 
EI-B

>  <INSTRUMENT>  (5988) 
JEOL JMS-D-3000

>  <ION MODE>  (5988) 
P

>  <INCHIKEY>  (5988) 
UGIPJBGGQSXMIT-UHFFFAOYSA-N

>  <FORMULA>  (5988) 
C12H20OSi

>  <EXACT MASS>  (5988) 
208.12834179

>  <MW>  (5988) 
208

>  <ID>  (5988) 
JP002250

>  <CONTRIBUTOR>  (5988) 
University of Tokyo Team, {Faculty of Engineering, University of Tokyo

>  <COMMENT>  (5988) 
SMILES=COCc(c1)c(ccc1)C[Si](C)(C)C
InChI=InChI=1S/C12H20OSi/c1-13-9-11-7-5-6-8-12(11)10-14(2,3)4/h5-8H,9-10H2,1-4H3
computed SMILES=O(C)CC=1C=CC=CC1C[Si](C)(C)C
accession=JP002250
date=2016.01.19 (Created 2008.10.21, modified 2011.05.06)
author=MASS SPECTROSCOPY SOC. OF JAPAN (MSSJ)
license=CC BY-NC-SA
exact mass=208.12834
ionization energy=70 eV
ion type=[M]+*
computed spectral entropy=1.0059892165005322
computed normalized entropy=0.4578454232111912
SPLASH=splash10-0udi-1900000000-cb672a949ee39665122b
submitter=submitter = University of Tokyo Team (Faculty of Engineering, University of Tokyo)
MoNA Rating=3.75

>  <NUM PEAKS>  (5988) 
9

>  <MASS SPECTRAL PEAKS>  (5988) 
73 10.8
89 2.79
104 99.99
105 8.36
163 3.69
177 4.14
192 2.26
193 1.15
208 0.33

$$$$

     RDKit          2D

 14 14  0  0  0  0  0  0  0  0999 V2000
   -2.0353    1.3943    0.0000 C   0  0  0  0  0  0  0  0  0  0  0  0
   -5.3834    4.1934    0.0000 C   0  0  0  0  0  0  0  0  0  0  0  0
   -5.9324    2.1443    0.0000 C   0  0  0  0  0  0  0  0  0  0  0  0
   -3.8834    1.5953    0.0000 C   0  0  0  0  0  0  0  0  0  0  0  0
    3.1608    1.3943    0.0000 C   0  0  0  0  0  0  0  0  0  0  0  0
    3.1613    2.8952    0.0000 C   0  0  0  0  0  0  0  0  0  0  0  0
    1.8613    0.6435    0.0000 C   0  0  0  0  0  0  0  0  0  0  0  0
    1.8623    3.6452    0.0000 C   0  0  0  0  0  0  0  0  0  0  0  0
    0.5623    1.3935    0.0000 C   0  0  0  0  0  0  0  0  0  0  0  0
   -0.7363    3.6443    0.0000 C   0  0  0  0  0  0  0  0  0  0  0  0
   -2.0353    2.8943    0.0000 C   0  0  0  0  0  0  0  0  0  0  0  0
    0.5627    2.8943    0.0000 C   0  0  0  0  0  0  0  0  0  0  0  0
   -3.3344    3.6443    0.0000 O   0  0  0  0  0  0  0  0  0  0  0  0
   -4.6334    2.8943    0.0000 Si  0  0  0  0  0  4  0  0  0  0  0  0
  6  5  2  0
  7  5  1  0
  8  6  1  0
  9  7  2  0
 11  1  2  0
 11 10  1  0
 12  8  2  0
 12  9  1  0
 12 10  1  0
 13 11  1  0
 14  2  1  0
 14  3  1  0
 14  4  1  0
 14 13  1  0
M  END
>  <NAME>  (5989) 
3-PHENYL-2-TRIMETHYLSILOXYPROPENE

>  <SYNONYMS>  (5989) 


>  <SPECTRUM TYPE>  (5989) 
MS1

>  <INSTRUMENT TYPE>  (5989) 
EI-B

>  <INSTRUMENT>  (5989) 
JEOL JMS-D-3000

>  <ION MODE>  (5989) 
P

>  <INCHIKEY>  (5989) 
OEHNYSQPYONHIW-UHFFFAOYSA-N

>  <FORMULA>  (5989) 
C12H18OSi

>  <EXACT MASS>  (5989) 
206.112691726

>  <MW>  (5989) 
206

>  <ID>  (5989) 
JP002249

>  <CONTRIBUTOR>  (5989) 
University of Tokyo Team, {Faculty of Engineering, University of Tokyo

>  <COMMENT>  (5989) 
SMILES=C=C(Cc(c1)cccc1)O[Si](C)(C)C
InChI=InChI=1S/C12H18OSi/c1-11(13-14(2,3)4)10-12-8-6-5-7-9-12/h5-9H,1,10H2,2-4H3
computed SMILES=O(C(=C)CC=1C=CC=CC1)[Si](C)(C)C
accession=JP002249
date=2016.01.19 (Created 2008.10.21, modified 2011.05.06)
author=MASS SPECTROSCOPY SOC. OF JAPAN (MSSJ)
license=CC BY-NC-SA
exact mass=206.11269
ionization energy=70 eV
ion type=[M]+*
computed spectral entropy=2.793842757671782
computed normalized entropy=0.821429174541596
SPLASH=splash10-0axu-9630000000-1f26db7ab39ea3802d19
submitter=submitter = University of Tokyo Team (Faculty of Engineering, University of Tokyo)
MoNA Rating=3.75

>  <NUM PEAKS>  (5989) 
30

>  <MASS SPECTRAL PEAKS>  (5989) 
43 22.56
44 3.36
45 15.22
47 6.53
51 4.3
59 3.72
61 3.36
65 6.72
72 4.7
73 99.99
74 9.54
75 55.35
76 4.39
77 10.17
91 22.32
92 6.02
105 11.23
115 21.16
116 6.81
117 62.99
118 6.36
134 6.15
135 3.89
173 8.58
175 7.76
191 61.75
192 10.68
206 92.57
207 16.74
208 4.43

$$$$

     RDKit          2D

 14 14  0  0  0  0  0  0  0  0999 V2000
   -6.8197    3.1321    0.0000 C   0  0  0  0  0  0  0  0  0  0  0  0
   -4.2216    6.1321    0.0000 C   0  0  0  0  0  0  0  0  0  0  0  0
   -5.5207    3.8821    0.0000 C   0  0  0  0  0  0  0  0  0  0  0  0
    3.5726    1.6321    0.0000 C   0  0  0  0  0  0  0  0  0  0  0  0
    3.5731    3.1329    0.0000 C   0  0  0  0  0  0  0  0  0  0  0  0
    2.2731    0.8813    0.0000 C   0  0  0  0  0  0  0  0  0  0  0  0
   -4.2216    3.1321    0.0000 C   0  0  0  0  0  0  0  0  0  0  0  0
    2.2740    3.8829    0.0000 C   0  0  0  0  0  0  0  0  0  0  0  0
    0.9740    1.6313    0.0000 C   0  0  0  0  0  0  0  0  0  0  0  0
   -0.3245    3.8821    0.0000 C   0  0  0  0  0  0  0  0  0  0  0  0
   -1.6236    3.1321    0.0000 C   0  0  0  0  0  0  0  0  0  0  0  0
    0.9745    3.1321    0.0000 C   0  0  0  0  0  0  0  0  0  0  0  0
   -2.9226    3.8821    0.0000 C   0  0  0  0  0  0  0  0  0  0  0  0
   -2.9226    5.3821    0.0000 O   0  0  0  0  0  0  0  0  0  0  0  0
  3  1  2  0
  5  4  2  0
  6  4  1  0
  7  3  1  0
  8  5  1  0
  9  6  2  0
 10 11  2  0
 12  8  2  0
 12  9  1  0
 12 10  1  0
 13  7  1  0
 13 11  1  0
 14  2  1  0
 14 13  1  0
M  END
>  <NAME>  (5990) 
1-PHENYL-3-METHOXY-1,5-HEXADIENE

>  <SYNONYMS>  (5990) 


>  <SPECTRUM TYPE>  (5990) 
MS1

>  <INSTRUMENT TYPE>  (5990) 
EI-B

>  <INSTRUMENT>  (5990) 
JEOL JMS-D-3000

>  <ION MODE>  (5990) 
P

>  <INCHIKEY>  (5990) 
NDUMBKGCLBBXLU-ZHACJKMWSA-N

>  <FORMULA>  (5990) 
C13H16O

>  <EXACT MASS>  (5990) 
188.120115132

>  <MW>  (5990) 
188

>  <ID>  (5990) 
JP002248

>  <CONTRIBUTOR>  (5990) 
University of Tokyo Team, {Faculty of Engineering, University of Tokyo

>  <COMMENT>  (5990) 
SMILES=C=CCC(OC)C=Cc(c1)cccc1
InChI=InChI=1S/C13H16O/c1-3-7-13(14-2)11-10-12-8-5-4-6-9-12/h3-6,8-11,13H,1,7H2,2H3/b11-10+
computed SMILES=O(C)C(C=CC=1C=CC=CC1)CC=C
accession=JP002248
date=2016.01.19 (Created 2008.10.21, modified 2011.05.06)
author=MASS SPECTROSCOPY SOC. OF JAPAN (MSSJ)
license=CC BY-NC-SA
exact mass=188.12012
ionization energy=70 eV
ion type=[M]+*
computed spectral entropy=3.1959343468771046
computed normalized entropy=0.8606092165361982
SPLASH=splash10-007a-1900000000-ae708097dbcfbeae0929
submitter=submitter = University of Tokyo Team (Faculty of Engineering, University of Tokyo)
MoNA Rating=3.75

>  <NUM PEAKS>  (5990) 
41

>  <MASS SPECTRAL PEAKS>  (5990) 
41 12.36
45 7.85
50 2.97
51 9.53
55 10.31
63 4.46
65 4.24
76 2.92
77 16.26
78 8.04
79 3
91 28.26
102 3.51
103 10.31
104 5.78
105 3.9
115 53.04
116 7.17
117 8.29
128 4.51
129 4.36
131 8.87
132 2.92
133 10.97
141 2.8
147 99.99
148 11.07
156 3.12
160 32.28
161 16.14
162 20.17
169 10.76
170 10.76
171 24.21
172 13.45
173 52.45
174 9.41
185 12.1
186 13.45
187 80.7
188 41.69

$$$$

     RDKit          2D

 13 13  0  0  0  0  0  0  0  0999 V2000
   -3.5721    4.2571    0.0000 C   0  0  0  0  0  0  0  0  0  0  0  0
   -4.8712    2.0071    0.0000 C   0  0  0  0  0  0  0  0  0  0  0  0
   -2.2731    0.5071    0.0000 C   0  0  0  0  0  0  0  0  0  0  0  0
    2.9231    0.5071    0.0000 C   0  0  0  0  0  0  0  0  0  0  0  0
    2.9236    2.0079    0.0000 C   0  0  0  0  0  0  0  0  0  0  0  0
    1.6236   -0.2437    0.0000 C   0  0  0  0  0  0  0  0  0  0  0  0
    1.6245    2.7579    0.0000 C   0  0  0  0  0  0  0  0  0  0  0  0
    0.3245    0.5063    0.0000 C   0  0  0  0  0  0  0  0  0  0  0  0
   -3.5721    2.7571    0.0000 C   0  0  0  0  0  0  0  0  0  0  0  0
   -2.2731    2.0071    0.0000 C   0  0  0  0  0  0  0  0  0  0  0  0
    0.3250    2.0071    0.0000 C   0  0  0  0  0  0  0  0  0  0  0  0
   -0.9740    2.7571    0.0000 C   0  0  0  0  0  0  0  0  0  0  0  0
   -0.9740    4.2571    0.0000 O   0  0  0  0  0  0  0  0  0  0  0  0
  5  4  2  0
  6  4  1  0
  7  5  1  0
  8  6  2  0
  9  1  2  0
  9  2  1  0
 10  3  1  0
 10  9  1  0
 11  7  2  0
 11  8  1  0
 12 10  1  0
 12 11  1  0
 13 12  2  0
M  END
>  <NAME>  (5991) 
2,3-DIMETHYL-1-PHENYL-3-BUTEN-1-ONE

>  <SYNONYMS>  (5991) 


>  <SPECTRUM TYPE>  (5991) 
MS1

>  <INSTRUMENT TYPE>  (5991) 
EI-B

>  <INSTRUMENT>  (5991) 
JEOL JMS-D-3000

>  <ION MODE>  (5991) 
P

>  <INCHIKEY>  (5991) 
WBQKHEBUULKXGU-UHFFFAOYSA-N

>  <FORMULA>  (5991) 
C12H14O

>  <EXACT MASS>  (5991) 
174.104465068

>  <MW>  (5991) 
174

>  <ID>  (5991) 
JP002247

>  <CONTRIBUTOR>  (5991) 
University of Tokyo Team, {Faculty of Engineering, University of Tokyo

>  <COMMENT>  (5991) 
SMILES=CC(=C)C(C)C(=O)c(c1)cccc1
InChI=InChI=1S/C12H14O/c1-9(2)10(3)12(13)11-7-5-4-6-8-11/h4-8,10H,1H2,2-3H3
computed SMILES=O=C(C=1C=CC=CC1)C(C(=C)C)C
accession=JP002247
date=2016.01.19 (Created 2008.10.21, modified 2011.05.06)
author=MASS SPECTROSCOPY SOC. OF JAPAN (MSSJ)
license=CC BY-NC-SA
exact mass=174.10447
ionization energy=70 eV
ion type=[M]+*
computed spectral entropy=0.782045421418507
computed normalized entropy=0.43646786013941713
SPLASH=splash10-0a4i-1900000000-c282e2332ec10180cc72
submitter=submitter = University of Tokyo Team (Faculty of Engineering, University of Tokyo)
MoNA Rating=3.75

>  <NUM PEAKS>  (5991) 
6

>  <MASS SPECTRAL PEAKS>  (5991) 
41 2.15
77 12.02
105 99.99
106 7.5
159 1.26
174 3.09

$$$$

     RDKit          2D

 13 12  0  0  0  0  0  0  0  0999 V2000
  -10.2183    6.1005    0.0000 C   0  0  0  0  0  0  0  0  0  0  0  0
    0.7231    4.0514    0.0000 C   0  0  0  0  0  0  0  0  0  0  0  0
    2.7721    4.6005    0.0000 C   0  0  0  0  0  0  0  0  0  0  0  0
    2.2231    6.6495    0.0000 C   0  0  0  0  0  0  0  0  0  0  0  0
   -8.9192    5.3505    0.0000 C   0  0  0  0  0  0  0  0  0  0  0  0
   -7.6202    6.1005    0.0000 C   0  0  0  0  0  0  0  0  0  0  0  0
   -6.3212    5.3505    0.0000 C   0  0  0  0  0  0  0  0  0  0  0  0
   -5.0221    6.1005    0.0000 C   0  0  0  0  0  0  0  0  0  0  0  0
   -3.7231    5.3505    0.0000 C   0  0  0  0  0  0  0  0  0  0  0  0
   -2.4240    6.1005    0.0000 C   0  0  0  0  0  0  0  0  0  0  0  0
   -1.1250    5.3505    0.0000 C   0  0  0  0  0  0  0  0  0  0  0  0
    0.1740    6.1005    0.0000 O   0  0  0  0  0  0  0  0  0  0  0  0
    1.4731    5.3505    0.0000 Si  0  0  0  0  0  4  0  0  0  0  0  0
  5  1  1  0
  6  5  1  0
  7  6  1  0
  8  7  1  0
  9  8  1  0
 10  9  1  0
 11 10  1  0
 12 11  1  0
 13  2  1  0
 13  3  1  0
 13  4  1  0
 13 12  1  0
M  END
>  <NAME>  (5992) 
1-TRIMETHYLSILOXYOCTANE

>  <SYNONYMS>  (5992) 


>  <SPECTRUM TYPE>  (5992) 
MS1

>  <INSTRUMENT TYPE>  (5992) 
EI-B

>  <INSTRUMENT>  (5992) 
JEOL JMS-D-3000

>  <ION MODE>  (5992) 
P

>  <INCHIKEY>  (5992) 
CDGIKLPUDRGJQN-UHFFFAOYSA-N

>  <FORMULA>  (5992) 
C11H26OSi

>  <EXACT MASS>  (5992) 
202.175291982

>  <MW>  (5992) 
202

>  <ID>  (5992) 
JP002246

>  <CONTRIBUTOR>  (5992) 
University of Tokyo Team, {Faculty of Engineering, University of Tokyo

>  <COMMENT>  (5992) 
SMILES=CCCCCCCCO[Si](C)(C)C
InChI=InChI=1S/C11H26OSi/c1-5-6-7-8-9-10-11-12-13(2,3)4/h5-11H2,1-4H3
computed SMILES=O(CCCCCCCC)[Si](C)(C)C
accession=JP002246
date=2016.01.19 (Created 2008.10.21, modified 2011.05.06)
author=MASS SPECTROSCOPY SOC. OF JAPAN (MSSJ)
license=CC BY-NC-SA
exact mass=202.17529
ionization energy=70 eV
ion type=[M]+*
computed spectral entropy=2.5914472239439115
computed normalized entropy=0.8965792088385774
SPLASH=splash10-0553-9300000000-4d24c56946561f597876
submitter=submitter = University of Tokyo Team (Faculty of Engineering, University of Tokyo)
MoNA Rating=3.75

>  <NUM PEAKS>  (5992) 
18

>  <MASS SPECTRAL PEAKS>  (5992) 
42 30.95
43 10.37
44 36.45
55 29.75
56 18.71
57 42.6
69 46.69
70 15.35
71 18.04
73 50.63
75 95.41
84 9.34
85 9.89
89 21.55
103 29.86
187 99.99
188 16.87
202 0.88

$$$$

     RDKit          2D

 13 12  0  0  0  0  0  0  0  0999 V2000
    2.8358    5.3873    0.0000 C   0  0  0  0  0  0  0  0  0  0  0  0
   -4.9584    3.8873    0.0000 C   0  0  0  0  0  0  0  0  0  0  0  0
   -8.3065    6.6863    0.0000 C   0  0  0  0  0  0  0  0  0  0  0  0
   -8.8555    4.6373    0.0000 C   0  0  0  0  0  0  0  0  0  0  0  0
   -6.8065    4.0882    0.0000 C   0  0  0  0  0  0  0  0  0  0  0  0
    1.5368    6.1373    0.0000 C   0  0  0  0  0  0  0  0  0  0  0  0
    0.2377    5.3873    0.0000 C   0  0  0  0  0  0  0  0  0  0  0  0
   -1.0613    6.1373    0.0000 C   0  0  0  0  0  0  0  0  0  0  0  0
   -2.3603    5.3873    0.0000 C   0  0  0  0  0  0  0  0  0  0  0  0
   -3.6594    6.1373    0.0000 C   0  0  0  0  0  0  0  0  0  0  0  0
   -4.9584    5.3873    0.0000 C   0  0  0  0  0  0  0  0  0  0  0  0
   -6.2575    6.1373    0.0000 O   0  0  0  0  0  0  0  0  0  0  0  0
   -7.5565    5.3873    0.0000 Si  0  0  0  0  0  4  0  0  0  0  0  0
  6  1  1  0
  7  6  1  0
  8  7  1  0
  9  8  1  0
 10  9  1  0
 11  2  1  0
 11 10  1  0
 12 11  1  0
 13  3  1  0
 13  4  1  0
 13  5  1  0
 13 12  1  0
M  END
>  <NAME>  (5993) 
2-TRIMETHYLSILOXYOCTANE

>  <SYNONYMS>  (5993) 


>  <SPECTRUM TYPE>  (5993) 
MS1

>  <INSTRUMENT TYPE>  (5993) 
EI-B

>  <INSTRUMENT>  (5993) 
JEOL JMS-D-3000

>  <ION MODE>  (5993) 
P

>  <INCHIKEY>  (5993) 
UHWVCRDNNJCGLG-UHFFFAOYSA-N

>  <FORMULA>  (5993) 
C11H26OSi

>  <EXACT MASS>  (5993) 
202.17529198199998

>  <MW>  (5993) 
202

>  <ID>  (5993) 
JP002245

>  <CONTRIBUTOR>  (5993) 
University of Tokyo Team, {Faculty of Engineering, University of Tokyo

>  <COMMENT>  (5993) 
SMILES=CCCCCCC(C)O[Si](C)(C)C
InChI=InChI=1S/C11H26OSi/c1-6-7-8-9-10-11(2)12-13(3,4)5/h11H,6-10H2,1-5H3
computed SMILES=O(C(C)CCCCCC)[Si](C)(C)C
accession=JP002245
date=2016.01.19 (Created 2008.10.21, modified 2011.05.06)
author=MASS SPECTROSCOPY SOC. OF JAPAN (MSSJ)
license=CC BY-NC-SA
exact mass=202.17529
ionization energy=70 eV
ion type=[M]+*
computed spectral entropy=2.0792625469287516
computed normalized entropy=0.6459592292641139
SPLASH=splash10-014i-9800000000-06f61df6389fe198109b
submitter=submitter = University of Tokyo Team (Faculty of Engineering, University of Tokyo)
MoNA Rating=3.75

>  <NUM PEAKS>  (5993) 
25

>  <MASS SPECTRAL PEAKS>  (5993) 
43 3.22
45 6.52
47 2.62
55 4.79
56 1.69
57 1.38
58 1.36
59 2.23
61 3.91
69 1.49
70 1.7
72 1.35
73 49.42
74 4.59
75 40.04
76 2.93
77 1.49
101 1.5
103 1.84
117 99.99
118 10.78
119 4
187 8.55
188 1.35
202 0.09

$$$$

     RDKit          2D

 12 11  0  0  0  0  0  0  0  0999 V2000
    1.5368    4.6373    0.0000 C   0  0  0  0  0  0  0  0  0  0  0  0
   -4.9584    6.8873    0.0000 C   0  0  0  0  0  0  0  0  0  0  0  0
   -4.7575    3.1373    0.0000 C   0  0  0  0  0  0  0  0  0  0  0  0
   -6.2575    1.6373    0.0000 C   0  0  0  0  0  0  0  0  0  0  0  0
   -7.7575    3.1373    0.0000 C   0  0  0  0  0  0  0  0  0  0  0  0
    0.2377    5.3873    0.0000 C   0  0  0  0  0  0  0  0  0  0  0  0
   -1.0613    4.6373    0.0000 C   0  0  0  0  0  0  0  0  0  0  0  0
   -2.3603    5.3873    0.0000 C   0  0  0  0  0  0  0  0  0  0  0  0
   -3.6594    4.6373    0.0000 C   0  0  0  0  0  0  0  0  0  0  0  0
   -4.9584    5.3873    0.0000 C   0  0  0  0  0  0  0  0  0  0  0  0
   -6.2575    3.1373    0.0000 C   0  0  0  0  0  0  0  0  0  0  0  0
   -6.2575    4.6373    0.0000 N   0  0  0  0  0  0  0  0  0  0  0  0
  6  1  1  0
  7  6  1  0
  8  7  1  0
  9  8  1  0
 10  2  1  0
 10  9  1  0
 11  3  1  0
 11  4  1  0
 11  5  1  0
 10 12  2  0
 12 11  1  0
M  END
>  <NAME>  (5994) 
N-(TERT-BUTYL)-2-HEPTANIMINE

>  <SYNONYMS>  (5994) 


>  <SPECTRUM TYPE>  (5994) 
MS1

>  <INSTRUMENT TYPE>  (5994) 
EI-B

>  <INSTRUMENT>  (5994) 
JEOL JMS-D-3000

>  <ION MODE>  (5994) 
P

>  <INCHIKEY>  (5994) 
MVGGGQZIXGZLBW-BENRWUELSA-N

>  <FORMULA>  (5994) 
C11H23N

>  <EXACT MASS>  (5994) 
169.183049736

>  <MW>  (5994) 
169

>  <ID>  (5994) 
JP002244

>  <CONTRIBUTOR>  (5994) 
University of Tokyo Team, {Faculty of Engineering, University of Tokyo

>  <COMMENT>  (5994) 
SMILES=CCCCCC(C)=NC(C)(C)C
InChI=InChI=1S/C11H23N/c1-6-7-8-9-10(2)12-11(3,4)5/h6-9H2,1-5H3/b12-10-
computed SMILES=N(=C(C)CCCCC)C(C)(C)C
accession=JP002244
date=2016.01.19 (Created 2008.10.21, modified 2011.05.06)
author=MASS SPECTROSCOPY SOC. OF JAPAN (MSSJ)
license=CC BY-NC-SA
exact mass=169.18305
ionization energy=70 eV
ion type=[M]+*
computed spectral entropy=2.5227884646206955
computed normalized entropy=0.7938155233652826
SPLASH=splash10-0a4l-9100000000-ebbb62aa1098c4a41794
submitter=submitter = University of Tokyo Team (Faculty of Engineering, University of Tokyo)
MoNA Rating=3.75

>  <NUM PEAKS>  (5994) 
24

>  <MASS SPECTRAL PEAKS>  (5994) 
41 46.11
42 32.28
43 32.45
53 1.82
54 1.62
55 13.45
56 10.86
57 99.99
58 43.7
59 5.24
69 1.06
70 23.24
71 11.27
72 1.72
82 1.72
84 6.93
96 1.48
98 14.17
99 1.82
113 16.72
114 6.62
126 4.17
154 10.34
169 1.44

$$$$

     RDKit          2D

 13 13  0  0  0  0  0  0  0  0999 V2000
    2.8183   -1.1087    0.0000 C   0  0  0  0  0  0  0  0  0  0  0  0
    4.8672   -0.5594    0.0000 C   0  0  0  0  0  0  0  0  0  0  0  0
    4.3179    1.4896    0.0000 C   0  0  0  0  0  0  0  0  0  0  0  0
   -1.6200   -1.3100    0.0000 C   0  0  0  0  0  0  0  0  0  0  0  0
   -0.3300   -2.0600    0.0000 C   0  0  0  0  0  0  0  0  0  0  0  0
   -1.6200    0.1900    0.0000 C   0  0  0  0  0  0  0  0  0  0  0  0
    0.9700   -1.3100    0.0000 C   0  0  0  0  0  0  0  0  0  0  0  0
   -0.3325    2.4400    0.0000 C   0  0  0  0  0  0  0  0  0  0  0  0
    2.2689    0.9402    0.0000 C   0  0  0  0  0  0  0  0  0  0  0  0
   -0.3300    0.9400    0.0000 C   0  0  0  0  0  0  0  0  0  0  0  0
    0.9700    0.1900    0.0000 C   0  0  0  0  0  0  0  0  0  0  0  0
   -1.6328    3.1878    0.0000 O   0  0  0  0  0  0  0  0  0  0  0  0
    3.5681    0.1904    0.0000 Si  0  0  0  0  0  4  0  0  0  0  0  0
  5  4  2  0
  6  4  1  0
  7  5  1  0
 10  6  2  0
 10  8  1  0
 11  7  2  0
 11  9  1  0
 11 10  1  0
 12  8  1  0
 13  1  1  0
 13  2  1  0
 13  3  1  0
 13  9  1  0
M  END
>  <NAME>  (5995) 
2-(TRIMETHYLSILYLMETHYL)BENZYL ALCOHOL

>  <SYNONYMS>  (5995) 


>  <SPECTRUM TYPE>  (5995) 
MS1

>  <INSTRUMENT TYPE>  (5995) 
EI-B

>  <INSTRUMENT>  (5995) 
JEOL JMS-D-3000

>  <ION MODE>  (5995) 
P

>  <INCHIKEY>  (5995) 
GDBYLQNQAUNHCX-UHFFFAOYSA-N

>  <FORMULA>  (5995) 
C11H18OSi

>  <EXACT MASS>  (5995) 
194.11269172599998

>  <MW>  (5995) 
194

>  <ID>  (5995) 
JP002243

>  <CONTRIBUTOR>  (5995) 
University of Tokyo Team, {Faculty of Engineering, University of Tokyo

>  <COMMENT>  (5995) 
SMILES=OCc(c1)c(ccc1)C[Si](C)(C)C
InChI=InChI=1S/C11H18OSi/c1-13(2,3)9-11-7-5-4-6-10(11)8-12/h4-7,12H,8-9H2,1-3H3
computed SMILES=OCC=1C=CC=CC1C[Si](C)(C)C
accession=JP002243
date=2016.01.19 (Created 2008.10.21, modified 2011.05.06)
author=MASS SPECTROSCOPY SOC. OF JAPAN (MSSJ)
license=CC BY-NC-SA
exact mass=194.11269
ionization energy=70 eV
ion type=[M]+*
computed spectral entropy=1.9772965315315942
computed normalized entropy=0.6396859834077421
SPLASH=splash10-0udi-7900000000-c046c485f47a6ef6483d
submitter=submitter = University of Tokyo Team (Faculty of Engineering, University of Tokyo)
MoNA Rating=3.75

>  <NUM PEAKS>  (5995) 
22

>  <MASS SPECTRAL PEAKS>  (5995) 
43 3.1
44 1.34
45 8.85
47 3.57
51 1.38
59 1.43
61 2.04
65 1.57
73 36.98
74 3.36
75 28
76 2.32
77 4.4
78 4.69
91 2.72
103 4.29
104 99.99
105 10.38
119 1.12
161 1.82
179 1.34
194 0.06

$$$$

     RDKit          2D

 19 18  0  0  0  0  0  0  0  0999 V2000
    3.0861    4.1347    0.0000 C   0  0  0  0  0  0  0  0  0  0  0  0
    1.7871    6.3847    0.0000 C   0  0  0  0  0  0  0  0  0  0  0  0
   -7.7219    4.3747    0.0000 C   0  0  0  0  0  0  0  0  0  0  0  0
   -6.4228    6.6247    0.0000 C   0  0  0  0  0  0  0  0  0  0  0  0
   -0.4761    2.9856    0.0000 C   0  0  0  0  0  0  0  0  0  0  0  0
    1.4522    2.9856    0.0000 C   0  0  0  0  0  0  0  0  0  0  0  0
   -6.0880    3.2256    0.0000 C   0  0  0  0  0  0  0  0  0  0  0  0
   -4.1596    3.2256    0.0000 C   0  0  0  0  0  0  0  0  0  0  0  0
    0.1532    6.0337    0.0000 C   0  0  0  0  0  0  0  0  0  0  0  0
   -1.7752    6.0337    0.0000 C   0  0  0  0  0  0  0  0  0  0  0  0
   -2.8606    6.2737    0.0000 C   0  0  0  0  0  0  0  0  0  0  0  0
   -4.7889    6.2737    0.0000 C   0  0  0  0  0  0  0  0  0  0  0  0
    1.7871    4.8847    0.0000 C   0  0  0  0  0  0  0  0  0  0  0  0
   -6.4228    5.1247    0.0000 C   0  0  0  0  0  0  0  0  0  0  0  0
   -2.1100    4.1347    0.0000 O   0  0  0  0  0  0  0  0  0  0  0  0
    0.4881    4.1347    0.0000 Si  0  0  0  0  0  4  0  0  0  0  0  0
   -5.1238    4.3747    0.0000 Si  0  0  0  0  0  4  0  0  0  0  0  0
   -0.8110    4.8847    0.0000 Si  0  0  0  0  0  4  0  0  0  0  0  0
   -3.8247    5.1247    0.0000 Si  0  0  0  0  0  4  0  0  0  0  0  0
 13  1  1  0
 13  2  1  0
 14  3  1  0
 14  4  1  0
 16  5  1  0
 16  6  1  0
 16 13  1  0
 17  7  1  0
 17  8  1  0
 17 14  1  0
 18  9  1  0
 18 10  1  0
 18 15  1  0
 18 16  1  0
 19 11  1  0
 19 12  1  0
 19 15  1  0
 19 17  1  0
M  END
>  <NAME>  (5996) 
2,3,3,4,4,6,6,7,7,8-DECAMETHYL-5-OXA-3,4,6,7-TETRASILANONANE

>  <SYNONYMS>  (5996) 


>  <SPECTRUM TYPE>  (5996) 
MS1

>  <INSTRUMENT TYPE>  (5996) 
EI-B

>  <INSTRUMENT>  (5996) 
JEOL JMS-D-3000

>  <ION MODE>  (5996) 
P

>  <INCHIKEY>  (5996) 
ILTJVKMWYFGWOL-UHFFFAOYSA-N

>  <FORMULA>  (5996) 
C14H38OSi4

>  <EXACT MASS>  (5996) 
334.19997195599996

>  <MW>  (5996) 
334

>  <ID>  (5996) 
JP002242

>  <CONTRIBUTOR>  (5996) 
University of Tokyo Team, {Faculty of Engineering, University of Tokyo

>  <COMMENT>  (5996) 
SMILES=CC(C)[Si](C)(C)[Si](C)(C)O[Si](C)(C)[Si](C)(C)C(C)C
InChI=InChI=1S/C14H38OSi4/c1-13(2)16(5,6)18(9,10)15-19(11,12)17(7,8)14(3)4/h13-14H,1-12H3
computed SMILES=O([Si](C)(C)[Si](C)(C)C(C)C)[Si](C)(C)[Si](C)(C)C(C)C
accession=JP002242
date=2016.01.19 (Created 2008.10.21, modified 2011.05.06)
author=MASS SPECTROSCOPY SOC. OF JAPAN (MSSJ)
license=CC BY-NC-SA
exact mass=334.19997
ionization energy=70 eV
ion type=[M]+*
computed spectral entropy=3.1594467715706074
computed normalized entropy=0.7920429700118379
SPLASH=splash10-0006-1920000000-e73398592b78c1fe3008
submitter=submitter = University of Tokyo Team (Faculty of Engineering, University of Tokyo)
MoNA Rating=3.75

>  <NUM PEAKS>  (5996) 
54

>  <MASS SPECTRAL PEAKS>  (5996) 
45 1.45
59 8.11
73 31.42
74 2.75
75 1.27
85 1.55
101 1.9
103 2.03
117 9.38
118 1.38
119 1.54
129 1.41
131 4.83
133 10.11
134 1.37
143 1.64
144 7.1
145 5.45
146 1.34
147 13.66
148 2.05
149 1.13
159 6.31
160 2.44
161 3.08
174 3.83
175 13.93
176 4.14
177 2.61
189 3.28
190 1.27
191 99.99
192 23.33
193 13.17
194 2.09
203 1.54
217 1.8
219 2.09
233 24.3
234 6.51
235 7.07
236 1.78
249 8.52
250 2.73
251 1.66
277 2.59
291 11.23
292 3.8
293 2.2
319 3.61
320 1.37
334 5.53
335 2.06
336 1.15

$$$$

     RDKit          2D

 11 12  0  0  1  0  0  0  0  0999 V2000
   -0.6759    1.4813    0.0000 C   0  0  0  0  0  0  0  0  0  0  0  0
   -0.6759   -2.3013    0.0000 C   0  0  0  0  0  0  0  0  0  0  0  0
    2.4475    2.5900    0.0000 C   0  0  0  0  0  0  0  0  0  0  0  0
    1.1450   -1.1600    0.0000 C   0  0  0  0  0  0  0  0  0  0  0  0
    1.1450    0.3400    0.0000 C   0  0  0  0  0  0  0  0  0  0  0  0
    3.7350   -1.1600    0.0000 C   0  0  0  0  0  0  0  0  0  0  0  0
    2.4450   -1.9100    0.0000 C   0  0  0  0  0  0  0  0  0  0  0  0
    3.7350    0.3400    0.0000 C   0  0  0  0  0  0  0  0  0  0  0  0
    1.5750   -0.4100    0.0000 C   0  0  0  0  0  0  0  0  0  0  0  0
    2.4450    1.0900    0.0000 C   0  0  0  0  0  0  0  0  0  0  0  0
    5.0352    1.0880    0.0000 O   0  0  0  0  0  0  0  0  0  0  0  0
  5  4  1  0
  7  4  1  1
  7  6  1  0
  8  6  1  0
  9  1  1  0
  9  2  1  0
  9  7  1  0
 10  3  1  6
 10  5  1  0
 10  8  1  0
 10  9  1  0
 11  8  2  0
M  END
>  <NAME>  (5997) 
(+)-CAMPHOR

>  <SYNONYMS>  (5997) 


>  <SPECTRUM TYPE>  (5997) 
MS1

>  <INSTRUMENT TYPE>  (5997) 
EI-B

>  <INSTRUMENT>  (5997) 
JEOL JMS-D-3000

>  <ION MODE>  (5997) 
P

>  <INCHIKEY>  (5997) 
DSSYKIVIOFKYAU-XCBNKYQSSA-N

>  <FORMULA>  (5997) 
C10H16O

>  <EXACT MASS>  (5997) 
152.120115132

>  <MW>  (5997) 
152

>  <ID>  (5997) 
JP002241

>  <CONTRIBUTOR>  (5997) 
University of Tokyo Team, {Faculty of Engineering, University of Tokyo

>  <COMMENT>  (5997) 
SMILES=O=C(C1)C(C)(C2)C(C)(C)C([H])(C2)1
InChI=InChI=1S/C10H16O/c1-9(2)7-4-5-10(9,3)8(11)6-7/h7H,4-6H2,1-3H3/t7-,10+/m1/s1
computed SMILES=O=C1CC2CCC1(C)C2(C)C
accession=JP002241
date=2016.01.19 (Created 2008.10.21, modified 2011.05.06)
author=MASS SPECTROSCOPY SOC. OF JAPAN (MSSJ)
license=CC BY-NC-SA
exact mass=152.12012
ionization energy=70 eV
ion type=[M]+*
computed spectral entropy=3.0935718822624843
computed normalized entropy=0.8080077400561261
SPLASH=splash10-05nb-9200000000-1b9d8eae41ec7b1ad819
submitter=submitter = University of Tokyo Team (Faculty of Engineering, University of Tokyo)
MoNA Rating=3.75

>  <NUM PEAKS>  (5997) 
46

>  <MASS SPECTRAL PEAKS>  (5997) 
40 26.47
42 3.21
43 8.21
51 2.9
52 1.69
53 9.4
54 2.57
55 29.18
56 2.2
57 1.97
59 1.22
65 3.11
66 1.27
67 18.3
68 14.89
69 37.51
71 1.91
77 4.44
78 1
79 4.86
80 10
81 57.13
82 11.51
83 28.96
84 3.33
91 4.03
92 1.11
93 8.99
94 1.73
95 99.99
96 9.76
97 4.94
105 1.06
107 1.17
108 33.56
109 21.81
110 15.67
111 2.13
121 1.56
123 1.01
135 12.03
136 2.51
137 2.71
139 2.2
152 19.08
153 2.09

$$$$

     RDKit          2D

  9  9  0  0  1  0  0  0  0  0999 V2000
   -2.9228    0.8825    0.0000 C   0  0  0  0  0  0  0  0  0  0  0  0
    2.2733   -0.6175    0.0000 C   0  0  0  0  0  0  0  0  0  0  0  0
    2.2738    0.8833    0.0000 C   0  0  0  0  0  0  0  0  0  0  0  0
    0.9738   -1.3683    0.0000 C   0  0  0  0  0  0  0  0  0  0  0  0
    0.9748    1.6333    0.0000 C   0  0  0  0  0  0  0  0  0  0  0  0
   -0.3252   -0.6183    0.0000 C   0  0  0  0  0  0  0  0  0  0  0  0
   -1.6238    1.6325    0.0000 C   0  0  0  0  0  0  0  0  0  0  0  0
   -0.3248    0.8825    0.0000 C   0  0  0  0  0  0  0  0  0  0  0  0
   -1.6238    3.1325    0.0000 N   0  0  0  0  0  0  0  0  0  0  0  0
  3  2  2  0
  4  2  1  0
  5  3  1  0
  6  4  2  0
  7  1  1  1
  8  5  2  0
  8  6  1  0
  8  7  1  0
  7  9  1  0
M  END
>  <NAME>  (5998) 
(+)-ALPHA-PHENYLETHYLAMINE

>  <SYNONYMS>  (5998) 


>  <SPECTRUM TYPE>  (5998) 
MS1

>  <INSTRUMENT TYPE>  (5998) 
EI-B

>  <INSTRUMENT>  (5998) 
JEOL JMS-D-3000

>  <ION MODE>  (5998) 
P

>  <INCHIKEY>  (5998) 
RQEUFEKYXDPUSK-SSDOTTSWSA-N

>  <FORMULA>  (5998) 
C8H11N

>  <EXACT MASS>  (5998) 
121.08914935199999

>  <MW>  (5998) 
121

>  <ID>  (5998) 
JP002240

>  <CONTRIBUTOR>  (5998) 
University of Tokyo Team, {Faculty of Engineering, University of Tokyo

>  <COMMENT>  (5998) 
SMILES=[H]C(C)(N)c(c1)cccc1
InChI=InChI=1S/C8H11N/c1-7(9)8-5-3-2-4-6-8/h2-7H,9H2,1H3/t7-/m1/s1
computed SMILES=NC(C=1C=CC=CC1)C
accession=JP002240
date=2016.01.19 (Created 2008.10.21, modified 2011.05.06)
author=MASS SPECTROSCOPY SOC. OF JAPAN (MSSJ)
license=CC BY-NC-SA
exact mass=121.08915
ionization energy=70 eV
ion type=[M]+*
computed spectral entropy=2.5921906981904237
computed normalized entropy=0.7698137701791518
SPLASH=splash10-0a6r-9700000000-e331382d3d6920d5a738
submitter=submitter = University of Tokyo Team (Faculty of Engineering, University of Tokyo)
MoNA Rating=3.75

>  <NUM PEAKS>  (5998) 
29

>  <MASS SPECTRAL PEAKS>  (5998) 
42 17.75
43 10.18
44 23.83
50 4.39
51 11.71
52 4.38
53 15.97
54 1.21
59 1.2
60 2.34
63 2.2
65 1.93
74 1.73
75 1.43
76 1.81
77 23.83
78 8.72
79 42.65
80 3.41
91 1.65
102 1.26
103 5.47
104 9.69
105 4.38
106 99.99
107 16.64
118 1.19
120 14.67
121 1.88

$$$$

     RDKit          2D

  6  5  0  0  0  0  0  0  0  0999 V2000
    1.2990    2.2500    0.0000 C   0  0  0  0  0  0  0  0  0  0  0  0
   -3.8971    2.2500    0.0000 C   0  0  0  0  0  0  0  0  0  0  0  0
    0.0000    3.0000    0.0000 C   0  0  0  0  0  0  0  0  0  0  0  0
   -1.2990    2.2500    0.0000 C   0  0  0  0  0  0  0  0  0  0  0  0
   -1.2990    0.7500    0.0000 O   0  0  0  0  0  0  0  0  0  0  0  0
   -2.5981    3.0000    0.0000 O   0  0  0  0  0  0  0  0  0  0  0  0
  3  1  2  0
  4  3  1  0
  5  4  2  0
  6  2  1  0
  6  4  1  0
M  END
>  <NAME>  (5999) 
METHYLACRYLATE

>  <SYNONYMS>  (5999) 


>  <SPECTRUM TYPE>  (5999) 
MS1

>  <INSTRUMENT TYPE>  (5999) 
EI-B

>  <INSTRUMENT>  (5999) 
JEOL JMS-D-3000

>  <ION MODE>  (5999) 
P

>  <INCHIKEY>  (5999) 
BAPJBEWLBFYGME-UHFFFAOYSA-N

>  <FORMULA>  (5999) 
C4H6O2

>  <EXACT MASS>  (5999) 
86.036779432

>  <MW>  (5999) 
86

>  <ID>  (5999) 
JP002239

>  <CONTRIBUTOR>  (5999) 
University of Tokyo Team, {Faculty of Engineering, University of Tokyo

>  <COMMENT>  (5999) 
SMILES=C=CC(=O)OC
InChI=InChI=1S/C4H6O2/c1-3-4(5)6-2/h3H,1H2,2H3
computed SMILES=O=C(OC)C=C
accession=JP002239
date=2016.01.19 (Created 2008.10.21, modified 2011.05.06)
author=MASS SPECTROSCOPY SOC. OF JAPAN (MSSJ)
license=CC BY-NC-SA
exact mass=86.03678
ionization energy=70 eV
ion type=[M]+*
computed spectral entropy=2.0113950292517004
computed normalized entropy=0.7099341930855281
SPLASH=splash10-0a4i-9000000000-369a2d051131a7bcebfb
submitter=submitter = University of Tokyo Team (Faculty of Engineering, University of Tokyo)
MoNA Rating=3.75

>  <NUM PEAKS>  (5999) 
17

>  <MASS SPECTRAL PEAKS>  (5999) 
42 7.01
43 16.45
44 2.24
45 21.45
53 1.53
54 1
55 99.99
56 4.13
57 1.79
58 13.86
59 32.31
60 1.27
68 1.73
73 2.03
74 18.17
85 13.64
86 2.42

$$$$

     RDKit          2D

 14 14  0  0  0  0  0  0  0  0999 V2000
   -2.5989   -1.5002    0.0000 C   0  0  0  0  0  0  0  0  0  0  0  0
   -1.3000    0.7500    0.0000 C   0  0  0  0  0  0  0  0  0  0  0  0
   -0.0000   -1.5000    0.0000 C   0  0  0  0  0  0  0  0  0  0  0  0
    0.0000    1.5000    0.0000 C   0  0  0  0  0  0  0  0  0  0  0  0
    1.3000   -0.7500    0.0000 C   0  0  0  0  0  0  0  0  0  0  0  0
    5.1970    1.5006    0.0000 C   0  0  0  0  0  0  0  0  0  0  0  0
   -1.3000   -0.7500    0.0000 C   0  0  0  0  0  0  0  0  0  0  0  0
    1.3000    0.7500    0.0000 C   0  0  0  0  0  0  0  0  0  0  0  0
    6.4962    0.7508    0.0000 C   0  0  0  0  0  0  0  0  0  0  0  0
    2.5989    1.5002    0.0000 C   0  0  0  0  0  0  0  0  0  0  0  0
    3.8981    0.7504    0.0000 N   0  0  0  0  0  0  0  0  0  0  0  0
    6.4964   -0.7492    0.0000 O   0  0  0  0  0  0  0  0  0  0  0  0
    7.7951    1.5010    0.0000 O   0  0  0  0  0  0  0  0  0  0  0  0
    2.5987    3.0002    0.0000 O   0  0  0  0  0  0  0  0  0  0  0  0
  4  2  2  0
  5  3  1  0
  7  1  1  0
  7  2  1  0
  7  3  2  0
  8  4  1  0
  8  5  2  0
  9  6  1  0
 10  8  1  0
 11  6  1  0
 11 10  1  0
 12  9  2  0
 13  9  1  0
 14 10  2  0
M  END
>  <NAME>  (6000) 
PARA-METHYLHIPPURIC ACID

>  <SYNONYMS>  (6000) 


>  <SPECTRUM TYPE>  (6000) 
MS1

>  <INSTRUMENT TYPE>  (6000) 
EI-B

>  <INSTRUMENT>  (6000) 
VARIAN MAT-44

>  <ION MODE>  (6000) 
P

>  <INCHIKEY>  (6000) 
NRSCPTLHWVWLLH-UHFFFAOYSA-N

>  <FORMULA>  (6000) 
C10H11NO3

>  <EXACT MASS>  (6000) 
193.073893212

>  <MW>  (6000) 
193

>  <ID>  (6000) 
JP002238

>  <CONTRIBUTOR>  (6000) 
University of Tokyo Team, {Faculty of Engineering, University of Tokyo

>  <COMMENT>  (6000) 
SMILES=OC(=O)CNC(=O)c(c1)ccc(C)c1
InChI=InChI=1S/C10H11NO3/c1-7-2-4-8(5-3-7)10(14)11-6-9(12)13/h2-5H,6H2,1H3,(H,11,14)(H,12,13)
computed SMILES=O=C(O)CNC(=O)C1=CC=C(C=C1)C
accession=JP002238
date=2016.01.19 (Created 2008.10.21, modified 2011.05.06)
author=KOGA M, UNIV. OF OCCUPATIONAL AND ENVIRONMENTAL HEALTH
license=CC BY-NC-SA
exact mass=193.07389
ionization energy=70 eV
ion type=[M]+*
computed spectral entropy=2.24511468343678
computed normalized entropy=0.7263292941827884
SPLASH=splash10-014i-5900000000-3993dac60df8a66d7eb9
submitter=submitter = University of Tokyo Team (Faculty of Engineering, University of Tokyo)
MoNA Rating=3.75

>  <NUM PEAKS>  (6000) 
22

>  <MASS SPECTRAL PEAKS>  (6000) 
51 4.11
56 1.61
62 2.54
63 7.7
64 3.22
65 30.06
66 1.93
73 1.25
74 1.61
77 1.61
89 8.31
90 8.95
91 17.67
92 6.05
105 1.29
118 11.54
119 99.99
120 10.04
148 10.93
149 17.11
150 1.57
193 1.25

$$$$

     RDKit          2D

 14 14  0  0  0  0  0  0  0  0999 V2000
   -3.2521   -1.1338    0.0000 C   0  0  0  0  0  0  0  0  0  0  0  0
   -0.6482   -4.1238    0.0000 C   0  0  0  0  0  0  0  0  0  0  0  0
   -1.9473   -3.3738    0.0000 C   0  0  0  0  0  0  0  0  0  0  0  0
    0.6463   -3.3816    0.0000 C   0  0  0  0  0  0  0  0  0  0  0  0
   -0.6523   -1.1308    0.0000 C   0  0  0  0  0  0  0  0  0  0  0  0
    4.5440   -1.1314    0.0000 C   0  0  0  0  0  0  0  0  0  0  0  0
   -1.9518   -1.8816    0.0000 C   0  0  0  0  0  0  0  0  0  0  0  0
    0.6468   -1.8808    0.0000 C   0  0  0  0  0  0  0  0  0  0  0  0
    5.8429   -1.8816    0.0000 C   0  0  0  0  0  0  0  0  0  0  0  0
    1.9459   -1.1310    0.0000 C   0  0  0  0  0  0  0  0  0  0  0  0
    3.2449   -1.8812    0.0000 N   0  0  0  0  0  0  0  0  0  0  0  0
    5.8427   -3.3816    0.0000 O   0  0  0  0  0  0  0  0  0  0  0  0
    7.1421   -1.1318    0.0000 O   0  0  0  0  0  0  0  0  0  0  0  0
    1.9462    0.3690    0.0000 O   0  0  0  0  0  0  0  0  0  0  0  0
  3  2  2  0
  4  2  1  0
  7  1  1  0
  7  3  1  0
  7  5  2  0
  8  4  2  0
  8  5  1  0
  9  6  1  0
 10  8  1  0
 11  6  1  0
 11 10  2  3
 12  9  2  0
 13  9  1  0
 14 10  1  0
M  END
>  <NAME>  (6001) 
META-METHYLHIPPURIC ACID

>  <SYNONYMS>  (6001) 


>  <SPECTRUM TYPE>  (6001) 
MS1

>  <INSTRUMENT TYPE>  (6001) 
EI-B

>  <INSTRUMENT>  (6001) 
VARIAN MAT-44

>  <ION MODE>  (6001) 
P

>  <INCHIKEY>  (6001) 
YKAKNMHEIJUKEX-UHFFFAOYSA-N

>  <FORMULA>  (6001) 
C10H11NO3

>  <EXACT MASS>  (6001) 
193.073893212

>  <MW>  (6001) 
193

>  <ID>  (6001) 
JP002237

>  <CONTRIBUTOR>  (6001) 
University of Tokyo Team, {Faculty of Engineering, University of Tokyo

>  <COMMENT>  (6001) 
SMILES=OC(=O)CNC(=O)c(c1)cc(C)cc1
InChI=InChI=1S/C10H11NO3/c1-7-3-2-4-8(5-7)10(14)11-6-9(12)13/h2-5H,6H2,1H3,(H,11,14)(H,12,13)
computed SMILES=O=C(O)CN=C(O)C1=CC=CC(=C1)C
accession=JP002237
date=2016.01.19 (Created 2008.10.21, modified 2011.05.06)
author=KOGA M, UNIV. OF OCCUPATIONAL AND ENVIRONMENTAL HEALTH
license=CC BY-NC-SA
exact mass=193.07389
ionization energy=70 eV
ion type=[M]+*
computed spectral entropy=2.3668745027803997
computed normalized entropy=0.7548648920339396
SPLASH=splash10-014i-6900000000-4a327638e0211a45d7b3
submitter=submitter = University of Tokyo Team (Faculty of Engineering, University of Tokyo)
MoNA Rating=3.75

>  <NUM PEAKS>  (6001) 
23

>  <MASS SPECTRAL PEAKS>  (6001) 
51 4.67
52 1.29
56 2.16
62 2.82
63 8.84
64 4.08
65 28.6
66 1.92
74 2.82
77 2.16
89 8.76
90 10.33
91 32.06
92 10.05
105 1.8
118 8.72
119 99.99
120 10.05
134 2.75
148 15.44
149 21.1
150 2.23
193 1.17

$$$$

     RDKit          2D

 14 14  0  0  0  0  0  0  0  0999 V2000
    6.1776   -2.0598    0.0000 C   0  0  0  0  0  0  0  0  0  0  0  0
    7.4651    1.6902    0.0000 C   0  0  0  0  0  0  0  0  0  0  0  0
    6.1751    2.4402    0.0000 C   0  0  0  0  0  0  0  0  0  0  0  0
    7.4651    0.1902    0.0000 C   0  0  0  0  0  0  0  0  0  0  0  0
    4.8751    1.6902    0.0000 C   0  0  0  0  0  0  0  0  0  0  0  0
    0.9781   -0.5604    0.0000 C   0  0  0  0  0  0  0  0  0  0  0  0
    6.1751   -0.5598    0.0000 C   0  0  0  0  0  0  0  0  0  0  0  0
    4.8751    0.1902    0.0000 C   0  0  0  0  0  0  0  0  0  0  0  0
   -0.3211    0.1894    0.0000 C   0  0  0  0  0  0  0  0  0  0  0  0
    3.5762   -0.5600    0.0000 C   0  0  0  0  0  0  0  0  0  0  0  0
    2.2770    0.1898    0.0000 N   0  0  0  0  0  0  0  0  0  0  0  0
   -0.3213    1.6894    0.0000 O   0  0  0  0  0  0  0  0  0  0  0  0
   -1.6200   -0.5608    0.0000 O   0  0  0  0  0  0  0  0  0  0  0  0
    3.5764   -2.0600    0.0000 O   0  0  0  0  0  0  0  0  0  0  0  0
  3  2  2  0
  4  2  1  0
  5  3  1  0
  7  1  1  0
  7  4  2  0
  8  5  2  0
  8  7  1  0
  9  6  1  0
 10  8  1  0
 11  6  1  0
 11 10  2  3
 12  9  2  0
 13  9  1  0
 14 10  1  0
M  END
>  <NAME>  (6002) 
ORTHO-METHYLHIPPURIC ACID

>  <SYNONYMS>  (6002) 


>  <SPECTRUM TYPE>  (6002) 
MS1

>  <INSTRUMENT TYPE>  (6002) 
EI-B

>  <INSTRUMENT>  (6002) 
VARIAN MAT-44

>  <ION MODE>  (6002) 
P

>  <INCHIKEY>  (6002) 
YOEBAVRJHRCKRE-UHFFFAOYSA-N

>  <FORMULA>  (6002) 
C10H11NO3

>  <EXACT MASS>  (6002) 
193.073893212

>  <MW>  (6002) 
193

>  <ID>  (6002) 
JP002236

>  <CONTRIBUTOR>  (6002) 
University of Tokyo Team, {Faculty of Engineering, University of Tokyo

>  <COMMENT>  (6002) 
SMILES=OC(=O)CNC(=O)c(c1)c(C)ccc1
InChI=InChI=1S/C10H11NO3/c1-7-4-2-3-5-8(7)10(14)11-6-9(12)13/h2-5H,6H2,1H3,(H,11,14)(H,12,13)
computed SMILES=O=C(O)CN=C(O)C=1C=CC=CC1C
accession=JP002236
license=CC BY-NC-SA
date=2016.01.19 (Created 2008.10.21, modified 2011.05.06)
author=KOGA M, UNIV. OF OCCUPATIONAL AND ENVIRONMENTAL HEALTH
exact mass=193.07389
ionization energy=70 eV
ion type=[M]+*
computed spectral entropy=2.259413392518371
computed normalized entropy=0.7205924287915909
SPLASH=splash10-014l-8900000000-f3facdb25edf52b32bf5
submitter=submitter = University of Tokyo Team (Faculty of Engineering, University of Tokyo)
MoNA Rating=3.75

>  <NUM PEAKS>  (6002) 
23

>  <MASS SPECTRAL PEAKS>  (6002) 
51 4.89
56 2.44
62 2.44
63 7.69
64 3.14
65 31.11
66 2.79
73 2.44
74 3.14
77 2.44
89 13.28
90 21.67
91 86.71
92 10.48
105 2.09
117 4.89
118 72.72
119 99.99
120 8.74
148 2.09
149 2.44
175 2.79
193 8.04

$$$$

     RDKit          2D

 18 18  0  0  0  0  0  0  0  0999 V2000
   -4.2212    3.1329    0.0000 C   0  0  0  0  0  0  0  0  0  0  0  0
   -5.5203    3.8829    0.0000 H   0  0  0  0  0  0  0  0  0  0  0  0
   -4.2217    1.6320    0.0000 C   0  0  0  0  0  0  0  0  0  0  0  0
   -5.5209    0.8822    0.0000 H   0  0  0  0  0  0  0  0  0  0  0  0
   -2.9217    3.8837    0.0000 C   0  0  0  0  0  0  0  0  0  0  0  0
   -2.9220    5.3837    0.0000 H   0  0  0  0  0  0  0  0  0  0  0  0
   -2.9227    0.8820    0.0000 C   0  0  0  0  0  0  0  0  0  0  0  0
   -2.9224   -0.6180    0.0000 H   0  0  0  0  0  0  0  0  0  0  0  0
   -1.6227    3.1337    0.0000 C   0  0  0  0  0  0  0  0  0  0  0  0
   -0.3235    3.8835    0.0000 H   0  0  0  0  0  0  0  0  0  0  0  0
    2.2739    0.8829    0.0000 C   0  0  0  0  0  0  0  0  0  0  0  0
   -1.6232    1.6329    0.0000 C   0  0  0  0  0  0  0  0  0  0  0  0
    3.5730    1.6329    0.0000 C   0  0  0  0  0  0  0  0  0  0  0  0
   -0.3241    0.8829    0.0000 C   0  0  0  0  0  0  0  0  0  0  0  0
    0.9749    1.6329    0.0000 N   0  0  0  0  0  0  0  0  0  0  0  0
    3.5730    3.1329    0.0000 O   0  0  0  0  0  0  0  0  0  0  0  0
    4.8720    0.8829    0.0000 O   0  0  0  0  0  0  0  0  0  0  0  0
   -0.3241   -0.6171    0.0000 O   0  0  0  0  0  0  0  0  0  0  0  0
  1  2  1  0
  3  4  1  0
  5  6  1  0
  7  8  1  0
  9 10  1  0
  3  1  2  0
  5  1  1  0
  7  3  1  0
  9  5  2  0
 12  7  2  0
 12  9  1  0
 13 11  1  0
 14 12  1  0
 15 11  1  0
 15 14  2  3
 16 13  2  0
 17 13  1  0
 18 14  1  0
M  ISO  5   2   2   4   2   6   2   8   2  10   2
M  END
>  <NAME>  (6003) 
N-BENZOYL(D5) GLYCINE

>  <SYNONYMS>  (6003) 


>  <SPECTRUM TYPE>  (6003) 
MS1

>  <INSTRUMENT TYPE>  (6003) 
EI-B

>  <INSTRUMENT>  (6003) 
VARIAN MAT-44

>  <ION MODE>  (6003) 
P

>  <INCHIKEY>  (6003) 
QIAFMBKCNZACKA-RALIUCGRSA-N

>  <FORMULA>  (6003) 
C9H9NO3

>  <EXACT MASS>  (6003) 
184.089626878

>  <MW>  (6003) 
184

>  <ID>  (6003) 
JP002235

>  <CONTRIBUTOR>  (6003) 
University of Tokyo Team, {Faculty of Engineering, University of Tokyo

>  <COMMENT>  (6003) 
SMILES=OC(=O)CNC(=O)c(c([2H])1)c([2H])c([2H])c([2H])c([2H])1
InChI=InChI=1S/C9H9NO3/c11-8(12)6-10-9(13)7-4-2-1-3-5-7/h1-5H,6H2,(H,10,13)(H,11,12)/i1D,2D,3D,4D,5D
computed SMILES=[H]C=1C(C(O)=NCC(=O)O)=C([H])C([H])=C([H])C1[H]
accession=JP002235
date=2016.01.19 (Created 2008.10.21, modified 2011.05.06)
author=KOGA M, UNIV. OF OCCUPATIONAL AND ENVIRONMENTAL HEALTH
license=CC BY-NC-SA
exact mass=179.05824
ionization energy=70 eV
ion type=[M]+*
computed spectral entropy=2.3072694815394996
computed normalized entropy=0.5960086998939867
SPLASH=splash10-0il0-9700000000-5eb7d5acc34cdb44f3e0
submitter=submitter = University of Tokyo Team (Faculty of Engineering, University of Tokyo)
MoNA Rating=3.75

>  <NUM PEAKS>  (6003) 
48

>  <MASS SPECTRAL PEAKS>  (6003) 
51 1.33
52 10.48
53 5.32
54 50.74
55 4.15
56 2.66
57 0.16
59 0.16
61 0.16
63 0.16
71 0.16
72 0.16
73 0.16
76 2.49
77 2.32
78 1.33
79 0.16
80 4.15
81 13.31
82 78.53
83 6.65
85 0.16
86 0.16
95 0.16
96 0.16
97 0.16
105 2.32
106 0.16
107 0.16
108 0.99
109 14.47
110 99.99
111 7.98
117 0.16
120 0.16
121 0.16
127 0.16
132 0.16
136 0.16
138 6.32
139 7.65
140 19.63
141 1.16
142 0.16
165 0.16
166 0.16
184 0.99
185 0.16

$$$$

     RDKit          2D

 13 13  0  0  0  0  0  0  0  0999 V2000
    3.2478    1.4446    0.0000 C   0  0  0  0  0  0  0  0  0  0  0  0
    3.2483    2.9454    0.0000 C   0  0  0  0  0  0  0  0  0  0  0  0
    1.9483    0.6938    0.0000 C   0  0  0  0  0  0  0  0  0  0  0  0
    1.9493    3.6954    0.0000 C   0  0  0  0  0  0  0  0  0  0  0  0
    0.6493    1.4438    0.0000 C   0  0  0  0  0  0  0  0  0  0  0  0
   -3.2474    3.6946    0.0000 C   0  0  0  0  0  0  0  0  0  0  0  0
    0.6498    2.9446    0.0000 C   0  0  0  0  0  0  0  0  0  0  0  0
   -4.5464    2.9446    0.0000 C   0  0  0  0  0  0  0  0  0  0  0  0
   -0.6493    3.6946    0.0000 C   0  0  0  0  0  0  0  0  0  0  0  0
   -1.9483    2.9446    0.0000 N   0  0  0  0  0  0  0  0  0  0  0  0
   -4.5464    1.4446    0.0000 O   0  0  0  0  0  0  0  0  0  0  0  0
   -5.8454    3.6946    0.0000 O   0  0  0  0  0  0  0  0  0  0  0  0
   -0.6493    5.1946    0.0000 O   0  0  0  0  0  0  0  0  0  0  0  0
  2  1  2  0
  3  1  1  0
  4  2  1  0
  5  3  2  0
  7  4  2  0
  7  5  1  0
  8  6  1  0
  9  7  1  0
 10  6  1  0
 10  9  2  3
 11  8  2  0
 12  8  1  0
 13  9  1  0
M  END
>  <NAME>  (6004) 
HIPPURIC ACID

>  <SYNONYMS>  (6004) 


>  <SPECTRUM TYPE>  (6004) 
MS1

>  <INSTRUMENT TYPE>  (6004) 
EI-B

>  <INSTRUMENT>  (6004) 
VARIAN MAT-44

>  <ION MODE>  (6004) 
P

>  <INCHIKEY>  (6004) 
QIAFMBKCNZACKA-UHFFFAOYSA-N

>  <FORMULA>  (6004) 
C9H9NO3

>  <EXACT MASS>  (6004) 
179.05824314799997

>  <MW>  (6004) 
179

>  <ID>  (6004) 
JP002234

>  <CONTRIBUTOR>  (6004) 
University of Tokyo Team, {Faculty of Engineering, University of Tokyo

>  <COMMENT>  (6004) 
SMILES=OC(=O)CNC(=O)c(c1)cccc1
InChI=InChI=1S/C9H9NO3/c11-8(12)6-10-9(13)7-4-2-1-3-5-7/h1-5H,6H2,(H,10,13)(H,11,12)
computed SMILES=O=C(O)CN=C(O)C=1C=CC=CC1
accession=JP002234
date=2016.01.19 (Created 2008.10.21, modified 2011.05.06)
author=KOGA M, UNIV. OF OCCUPATIONAL AND ENVIRONMENTAL HEALTH
license=CC BY-NC-SA
exact mass=179.05824
ionization energy=70 eV
ion type=[M]+*
computed spectral entropy=2.2007712399177373
computed normalized entropy=0.6837080271674816
SPLASH=splash10-0a6r-8900000000-01e7057139a995115ddb
submitter=submitter = University of Tokyo Team (Faculty of Engineering, University of Tokyo)
MoNA Rating=3.75

>  <NUM PEAKS>  (6004) 
25

>  <MASS SPECTRAL PEAKS>  (6004) 
51 35.68
52 3.01
53 1.18
55 1.82
56 2.78
57 2.09
67 1.25
69 2.36
73 1.56
74 4.19
75 3.58
76 11.81
77 95.99
78 7.62
81 1.21
103 1.18
104 10.97
105 99.99
106 12.54
133 1.18
134 21.08
135 27.18
136 2.7
161 1.25
179 2.47

$$$$

     RDKit          2D

 14 14  0  0  0  0  0  0  0  0999 V2000
    3.5726    1.6321    0.0000 C   0  0  0  0  0  0  0  0  0  0  0  0
    3.5731    3.1329    0.0000 C   0  0  0  0  0  0  0  0  0  0  0  0
    2.2731    0.8813    0.0000 C   0  0  0  0  0  0  0  0  0  0  0  0
    2.2740    3.8829    0.0000 C   0  0  0  0  0  0  0  0  0  0  0  0
    0.9740    1.6313    0.0000 C   0  0  0  0  0  0  0  0  0  0  0  0
   -0.3245    3.8821    0.0000 C   0  0  0  0  0  0  0  0  0  0  0  0
   -4.2216    3.1321    0.0000 C   0  0  0  0  0  0  0  0  0  0  0  0
    0.9745    3.1321    0.0000 C   0  0  0  0  0  0  0  0  0  0  0  0
   -1.6236    3.1321    0.0000 C   0  0  0  0  0  0  0  0  0  0  0  0
   -5.5207    3.8821    0.0000 C   0  0  0  0  0  0  0  0  0  0  0  0
   -2.9226    3.8821    0.0000 N   0  0  0  0  0  0  0  0  0  0  0  0
   -1.6236    1.6321    0.0000 O   0  0  0  0  0  0  0  0  0  0  0  0
   -5.5207    5.3821    0.0000 O   0  0  0  0  0  0  0  0  0  0  0  0
   -6.8197    3.1321    0.0000 O   0  0  0  0  0  0  0  0  0  0  0  0
  2  1  2  0
  3  1  1  0
  4  2  1  0
  5  3  2  0
  8  4  2  0
  8  5  1  0
  8  6  1  0
  9  6  1  0
 10  7  1  0
 11  7  1  0
 11  9  2  3
 12  9  1  0
 13 10  2  0
 14 10  1  0
M  END
>  <NAME>  (6005) 
PHENATURIC ACID

>  <SYNONYMS>  (6005) 
PHENYLACETAMIDOACETIC ACID

>  <SPECTRUM TYPE>  (6005) 
MS1

>  <INSTRUMENT TYPE>  (6005) 
EI-B

>  <INSTRUMENT>  (6005) 
VARIAN MAT-44

>  <ION MODE>  (6005) 
P

>  <INCHIKEY>  (6005) 
UTYVDVLMYQPLQB-UHFFFAOYSA-N

>  <FORMULA>  (6005) 
C10H11NO3

>  <EXACT MASS>  (6005) 
193.07389321199997

>  <MW>  (6005) 
193

>  <ID>  (6005) 
JP002233

>  <CONTRIBUTOR>  (6005) 
University of Tokyo Team, {Faculty of Engineering, University of Tokyo

>  <COMMENT>  (6005) 
SMILES=OC(=O)CNC(=O)Cc(c1)cccc1
InChI=InChI=1S/C10H11NO3/c12-9(11-7-10(13)14)6-8-4-2-1-3-5-8/h1-5H,6-7H2,(H,11,12)(H,13,14)
computed SMILES=O=C(O)CN=C(O)CC=1C=CC=CC1
accession=JP002233
date=2016.01.19 (Created 2008.10.21, modified 2011.05.06)
author=KOGA M, UNIV. OF OCCUPATIONAL AND ENVIRONMENTAL HEALTH
license=CC BY-NC-SA
exact mass=193.07389
ionization energy=70 eV
ion type=[M]+*
computed spectral entropy=2.5108374161466904
computed normalized entropy=0.7244745377506577
SPLASH=splash10-0006-9000000000-96f6d1819364e0910beb
submitter=submitter = University of Tokyo Team (Faculty of Engineering, University of Tokyo)
MoNA Rating=3.75

>  <NUM PEAKS>  (6005) 
32

>  <MASS SPECTRAL PEAKS>  (6005) 
51 9.49
52 3
55 3.54
56 24.89
57 1.39
58 1.24
59 1.04
61 1.3
62 5.32
63 10.98
64 8.57
65 29.42
66 2.03
73 9.49
74 30.8
75 1.96
76 2.02
77 1.93
84 1.3
88 1.59
89 9.1
90 7.61
91 99.99
92 74.16
93 6.79
102 2.01
117 2.4
118 1.3
119 1.59
149 4.41
193 4.58
194 1.24

$$$$

     RDKit          2D

 12 12  0  0  0  0  0  0  0  0999 V2000
   -4.8714    4.2575    0.0000 C   0  0  0  0  0  0  0  0  0  0  0  0
    4.2219    0.5075    0.0000 C   0  0  0  0  0  0  0  0  0  0  0  0
    4.2224    2.0083    0.0000 C   0  0  0  0  0  0  0  0  0  0  0  0
    2.9224   -0.2433    0.0000 C   0  0  0  0  0  0  0  0  0  0  0  0
    2.9233    2.7583    0.0000 C   0  0  0  0  0  0  0  0  0  0  0  0
    1.6233    0.5067    0.0000 C   0  0  0  0  0  0  0  0  0  0  0  0
    0.3248    2.7575    0.0000 C   0  0  0  0  0  0  0  0  0  0  0  0
   -0.9743    3.5075    0.0000 C   0  0  0  0  0  0  0  0  0  0  0  0
    1.6238    2.0075    0.0000 C   0  0  0  0  0  0  0  0  0  0  0  0
   -2.2733    4.2575    0.0000 C   0  0  0  0  0  0  0  0  0  0  0  0
   -2.2733    5.7575    0.0000 O   0  0  0  0  0  0  0  0  0  0  0  0
   -3.5724    3.5075    0.0000 O   0  0  0  0  0  0  0  0  0  0  0  0
  3  2  2  0
  4  2  1  0
  5  3  1  0
  6  4  2  0
  8  7  3  0
  9  5  2  0
  9  6  1  0
  9  7  1  0
 10  8  1  0
 11 10  2  0
 12  1  1  0
 12 10  1  0
M  END
>  <NAME>  (6006) 
PHENYLPROPIOLIC ACID METHYL ESTER

>  <SYNONYMS>  (6006) 


>  <SPECTRUM TYPE>  (6006) 
MS1

>  <INSTRUMENT TYPE>  (6006) 
EI-B

>  <INSTRUMENT>  (6006) 
JEOL JMS-01-SG

>  <ION MODE>  (6006) 
P

>  <INCHIKEY>  (6006) 
JFGWPXKGINUNDH-UHFFFAOYSA-N

>  <FORMULA>  (6006) 
C10H8O2

>  <EXACT MASS>  (6006) 
160.052429496

>  <MW>  (6006) 
160

>  <ID>  (6006) 
JP002232

>  <CONTRIBUTOR>  (6006) 
University of Tokyo Team, {Faculty of Engineering, University of Tokyo

>  <COMMENT>  (6006) 
SMILES=COC(=O)C#Cc(c1)cccc1
InChI=InChI=1S/C10H8O2/c1-12-10(11)8-7-9-5-3-2-4-6-9/h2-6H,1H3
computed SMILES=O=C(C#CC=1C=CC=CC1)OC
accession=JP002232
date=2016.01.19 (Created 2008.10.21, modified 2011.05.06)
author=KOGA M, UNIV. OF OCCUPATIONAL AND ENVIRONMENTAL HEALTH
license=CC BY-NC-SA
exact mass=160.05243
ionization energy=70 eV
ion type=[M]+*
computed spectral entropy=2.288110331074021
computed normalized entropy=0.740239050611571
SPLASH=splash10-0fb9-2900000000-01da70e9791d312ae174
submitter=submitter = University of Tokyo Team (Faculty of Engineering, University of Tokyo)
MoNA Rating=3.75

>  <NUM PEAKS>  (6006) 
22

>  <MASS SPECTRAL PEAKS>  (6006) 
44 4.4
49 3.7
50 8.5
51 3.01
61 4.8
62 7
63 6.6
74 0.7
75 52.7
76 5.9
77 6.6
89 0.81
98 5.5
100 2.6
101 30.8
102 99.99
103 7.8
129 99.2
130 30.4
131 0.44
160 71.7
161 8.5

$$$$

     RDKit          2D

 14 14  0  0  1  0  0  0  0  0999 V2000
   -1.6353    4.6878    0.0000 C   0  0  0  0  0  0  0  0  0  0  0  0
    4.8670    0.9406    0.0000 C   0  0  0  0  0  0  0  0  0  0  0  0
   -1.6200   -1.3100    0.0000 C   0  0  0  0  0  0  0  0  0  0  0  0
   -0.3300   -2.0600    0.0000 C   0  0  0  0  0  0  0  0  0  0  0  0
   -1.6200    0.1900    0.0000 C   0  0  0  0  0  0  0  0  0  0  0  0
    0.9700   -1.3100    0.0000 C   0  0  0  0  0  0  0  0  0  0  0  0
   -0.3300    0.9400    0.0000 C   0  0  0  0  0  0  0  0  0  0  0  0
    0.9700    0.1900    0.0000 C   0  0  0  0  0  0  0  0  0  0  0  0
   -0.3325    2.4400    0.0000 C   0  0  0  0  0  0  0  0  0  0  0  0
    2.2689    0.9402    0.0000 C   0  0  0  0  0  0  0  0  0  0  0  0
    0.9653    3.1922    0.0000 O   0  0  0  0  0  0  0  0  0  0  0  0
    2.2687    2.4402    0.0000 O   0  0  0  0  0  0  0  0  0  0  0  0
   -1.6328    3.1878    0.0000 O   0  0  0  0  0  0  0  0  0  0  0  0
    3.5681    0.1904    0.0000 O   0  0  0  0  0  0  0  0  0  0  0  0
  4  3  1  0
  5  3  1  0
  6  4  1  0
  7  5  1  0
  8  6  1  0
  8  7  1  0
  7  9  1  6
  8 10  1  6
 11  9  2  0
 12 10  2  0
 13  1  1  0
 13  9  1  0
 14  2  1  0
 14 10  1  0
M  END
>  <NAME>  (6007) 
CIS-1,2-CYCLOHEXANEDICARBOXYLIC ACID DIMETHYL ESTER

>  <SYNONYMS>  (6007) 


>  <SPECTRUM TYPE>  (6007) 
MS1

>  <INSTRUMENT TYPE>  (6007) 
EI-B

>  <INSTRUMENT>  (6007) 
JEOL JMS-01-SG

>  <ION MODE>  (6007) 
P

>  <INCHIKEY>  (6007) 
AIACXWOETVLBIA-OCAPTIKFSA-N

>  <FORMULA>  (6007) 
C10H16O4

>  <EXACT MASS>  (6007) 
200.104858992

>  <MW>  (6007) 
200

>  <ID>  (6007) 
JP002231

>  <CONTRIBUTOR>  (6007) 
University of Tokyo Team, {Faculty of Engineering, University of Tokyo

>  <COMMENT>  (6007) 
SMILES=COC(=O)C([H])(C1)C([H])(CCC1)C(=O)OC
InChI=InChI=1S/C10H16O4/c1-13-9(11)7-5-3-4-6-8(7)10(12)14-2/h7-8H,3-6H2,1-2H3/t7-,8+
computed SMILES=O=C(OC)C1CCCCC1C(=O)OC
accession=JP002231
date=2016.01.19 (Created 2008.10.21, modified 2011.05.06)
author=KOGA M, UNIV. OF OCCUPATIONAL AND ENVIRONMENTAL HEALTH
license=CC BY-NC-SA
exact mass=200.10486
ionization energy=70 eV
ion type=[M]+*
computed spectral entropy=2.8702713822239305
computed normalized entropy=0.7496840484606367
SPLASH=splash10-001i-9500000000-3c0917c10b26ab363393
submitter=submitter = University of Tokyo Team (Faculty of Engineering, University of Tokyo)
MoNA Rating=3.75

>  <NUM PEAKS>  (6007) 
46

>  <MASS SPECTRAL PEAKS>  (6007) 
50 2.9
51 1.7
52 2.9
53 1.04
54 9.3
55 12.2
58 1.7
66 0.46
67 16.8
68 5.2
69 2.9
76 0.23
77 4
79 15.6
80 51.1
81 99.99
82 9.8
87 5.2
94 1.7
96 0.17
97 1.7
98 2.9
99 2.3
100 0.29
101 4.6
107 2.9
108 51.7
109 2.84
110 1.7
111 6.9
112 5.8
113 0.63
114 3.4
125 4.6
126 5.2
127 0.29
128 1.7
136 3.4
139 3.4
140 7.44
141 12.7
142 2.3
145 1.7
168 2.32
169 22
170 2.3

$$$$

     RDKit          2D

 13 13  0  0  0  0  0  0  0  0999 V2000
   -2.5989   -1.5002    0.0000 C   0  0  0  0  0  0  0  0  0  0  0  0
    7.7951    1.5010    0.0000 C   0  0  0  0  0  0  0  0  0  0  0  0
   -1.3000    0.7500    0.0000 C   0  0  0  0  0  0  0  0  0  0  0  0
   -0.0000   -1.5000    0.0000 C   0  0  0  0  0  0  0  0  0  0  0  0
    0.0000    1.5000    0.0000 C   0  0  0  0  0  0  0  0  0  0  0  0
    1.3000   -0.7500    0.0000 C   0  0  0  0  0  0  0  0  0  0  0  0
    2.5989    1.5002    0.0000 C   0  0  0  0  0  0  0  0  0  0  0  0
    3.8981    0.7504    0.0000 C   0  0  0  0  0  0  0  0  0  0  0  0
   -1.3000   -0.7500    0.0000 C   0  0  0  0  0  0  0  0  0  0  0  0
    1.3000    0.7500    0.0000 C   0  0  0  0  0  0  0  0  0  0  0  0
    5.1970    1.5006    0.0000 C   0  0  0  0  0  0  0  0  0  0  0  0
    5.1968    3.0006    0.0000 O   0  0  0  0  0  0  0  0  0  0  0  0
    6.4962    0.7508    0.0000 O   0  0  0  0  0  0  0  0  0  0  0  0
  5  3  2  0
  6  4  1  0
  7  8  2  0
  9  1  1  0
  9  3  1  0
  9  4  2  0
 10  5  1  0
 10  6  2  0
 10  7  1  0
 11  8  1  0
 12 11  2  0
 13  2  1  0
 13 11  1  0
M  END
>  <NAME>  (6008) 
PARA-METHYLCINNAMIC ACID METHYL ESTER

>  <SYNONYMS>  (6008) 


>  <SPECTRUM TYPE>  (6008) 
MS1

>  <INSTRUMENT TYPE>  (6008) 
EI-B

>  <INSTRUMENT>  (6008) 
JEOL JMS-01-SG

>  <ION MODE>  (6008) 
P

>  <INCHIKEY>  (6008) 
WLJBRXRCJNSDHT-BQYQJAHWSA-N

>  <FORMULA>  (6008) 
C11H12O2

>  <EXACT MASS>  (6008) 
176.083729624

>  <MW>  (6008) 
176

>  <ID>  (6008) 
JP002230

>  <CONTRIBUTOR>  (6008) 
University of Tokyo Team, {Faculty of Engineering, University of Tokyo

>  <COMMENT>  (6008) 
SMILES=COC(=O)C=Cc(c1)ccc(C)c1
InChI=InChI=1S/C11H12O2/c1-9-3-5-10(6-4-9)7-8-11(12)13-2/h3-8H,1-2H3/b8-7+
computed SMILES=O=C(OC)C=CC1=CC=C(C=C1)C
accession=JP002230
date=2016.01.19 (Created 2008.10.21, modified 2011.05.06)
author=KOGA M, UNIV. OF OCCUPATIONAL AND ENVIRONMENTAL HEALTH
license=CC BY-NC-SA
exact mass=176.08373
ionization energy=70 eV
ion type=[M]+*
computed spectral entropy=2.7698778416449863
computed normalized entropy=0.7364345837616308
SPLASH=splash10-014j-2900000000-93b0b51e717b0cd721d6
submitter=submitter = University of Tokyo Team (Faculty of Engineering, University of Tokyo)
MoNA Rating=3.75

>  <NUM PEAKS>  (6008) 
43

>  <MASS SPECTRAL PEAKS>  (6008) 
50 7.2
51 6.4
52 4.8
57 0.16
58 7.2
59 13.7
61 2.4
62 0.4
63 4.8
65 11.2
72 2.4
73 0.16
76 4
77 4
87 3.2
89 0.8
90 2.4
91 19.3
101 1.6
102 0.4
103 3.2
113 2.4
115 46.7
116 1.77
117 46.7
118 10.4
127 2.4
130 0.24
131 4
132 2.4
135 3.2
140 0.24
144 4
145 99.99
146 12.9
147 0.16
149 1.6
158 2.4
161 8.8
175 1.37
176 54.8
177 7.2
178 2.4

$$$$

     RDKit          2D

 12 12  0  0  0  0  0  0  0  0999 V2000
    5.1970    1.5006    0.0000 C   0  0  0  0  0  0  0  0  0  0  0  0
   -1.3000    0.7500    0.0000 C   0  0  0  0  0  0  0  0  0  0  0  0
   -0.0000   -1.5000    0.0000 C   0  0  0  0  0  0  0  0  0  0  0  0
    0.0000    1.5000    0.0000 C   0  0  0  0  0  0  0  0  0  0  0  0
    1.3000   -0.7500    0.0000 C   0  0  0  0  0  0  0  0  0  0  0  0
   -2.5989   -1.5002    0.0000 C   0  0  0  0  0  0  0  0  0  0  0  0
   -1.3000   -0.7500    0.0000 C   0  0  0  0  0  0  0  0  0  0  0  0
    1.3000    0.7500    0.0000 C   0  0  0  0  0  0  0  0  0  0  0  0
    2.5989    1.5002    0.0000 C   0  0  0  0  0  0  0  0  0  0  0  0
   -3.8981   -0.7504    0.0000 O   0  0  0  0  0  0  0  0  0  0  0  0
    2.5987    3.0002    0.0000 O   0  0  0  0  0  0  0  0  0  0  0  0
    3.8981    0.7504    0.0000 O   0  0  0  0  0  0  0  0  0  0  0  0
  4  2  2  0
  5  3  1  0
  7  2  1  0
  7  3  2  0
  7  6  1  0
  8  4  1  0
  8  5  2  0
  9  8  1  0
 10  6  2  0
 11  9  2  0
 12  1  1  0
 12  9  1  0
M  END
>  <NAME>  (6009) 
TEREPHTHALALDEHYDIC ACID METHYL ESTER

>  <SYNONYMS>  (6009) 
METHYL PARA-FORMYLBENZOATE

>  <SPECTRUM TYPE>  (6009) 
MS1

>  <INSTRUMENT TYPE>  (6009) 
EI-B

>  <INSTRUMENT>  (6009) 
JEOL JMS-01-SG

>  <ION MODE>  (6009) 
P

>  <INCHIKEY>  (6009) 
FEIOASZZURHTHB-UHFFFAOYSA-N

>  <FORMULA>  (6009) 
C9H8O3

>  <EXACT MASS>  (6009) 
164.04734411599998

>  <MW>  (6009) 
164

>  <ID>  (6009) 
JP002229

>  <CONTRIBUTOR>  (6009) 
University of Tokyo Team, {Faculty of Engineering, University of Tokyo

>  <COMMENT>  (6009) 
SMILES=O=Cc(c1)ccc(c1)C(=O)OC
InChI=InChI=1S/C9H8O3/c1-12-9(11)8-4-2-7(6-10)3-5-8/h2-6H,1H3
computed SMILES=O=CC1=CC=C(C=C1)C(=O)OC
accession=JP002229
date=2016.01.19 (Created 2008.10.21, modified 2011.05.06)
author=KOGA M, UNIV. OF OCCUPATIONAL AND ENVIRONMENTAL HEALTH
license=CC BY-NC-SA
exact mass=164.04734
ionization energy=70 eV
ion type=[M]+*
computed spectral entropy=2.31489538975471
computed normalized entropy=0.6874642165799875
SPLASH=splash10-001i-4900000000-fe21f4a3ee117cb5579b
submitter=submitter = University of Tokyo Team (Faculty of Engineering, University of Tokyo)
MoNA Rating=3.75

>  <NUM PEAKS>  (6009) 
29

>  <MASS SPECTRAL PEAKS>  (6009) 
49 0.9
50 13.5
51 20.7
52 0.29
53 0.9
62 1.4
63 1.7
66 0.17
75 6.4
76 9.6
77 31.1
78 0.17
91 0.9
92 1.4
103 6.1
104 0.64
105 38.7
106 3.4
107 1.7
119 0.29
120 3.2
121 0.9
133 99.99
134 0.93
135 10.3
136 1.4
163 18.7
164 5.35
165 6.1

$$$$

     RDKit          2D

 15 14  0  0  0  0  0  0  0  0999 V2000
   -7.7942    8.2500    0.0000 C   0  0  0  0  0  0  0  0  0  0  0  0
    0.0000    3.7500    0.0000 C   0  0  0  0  0  0  0  0  0  0  0  0
   -3.8971    0.0000    0.0000 C   0  0  0  0  0  0  0  0  0  0  0  0
   -6.4952    4.5000    0.0000 C   0  0  0  0  0  0  0  0  0  0  0  0
   -3.8971    4.5000    0.0000 C   0  0  0  0  0  0  0  0  0  0  0  0
   -5.1962    3.7500    0.0000 C   0  0  0  0  0  0  0  0  0  0  0  0
   -6.4952    6.0000    0.0000 C   0  0  0  0  0  0  0  0  0  0  0  0
   -2.5981    3.7500    0.0000 C   0  0  0  0  0  0  0  0  0  0  0  0
   -5.1962    2.2500    0.0000 C   0  0  0  0  0  0  0  0  0  0  0  0
   -5.1962    6.7500    0.0000 O   0  0  0  0  0  0  0  0  0  0  0  0
   -2.5981    2.2500    0.0000 O   0  0  0  0  0  0  0  0  0  0  0  0
   -6.4952    1.5000    0.0000 O   0  0  0  0  0  0  0  0  0  0  0  0
   -7.7942    6.7500    0.0000 O   0  0  0  0  0  0  0  0  0  0  0  0
   -1.2990    4.5000    0.0000 O   0  0  0  0  0  0  0  0  0  0  0  0
   -3.8971    1.5000    0.0000 O   0  0  0  0  0  0  0  0  0  0  0  0
  4  6  2  0
  6  5  1  0
  7  4  1  0
  8  5  1  0
  9  6  1  0
 10  7  2  0
 11  8  2  0
 12  9  2  0
 13  1  1  0
 13  7  1  0
 14  2  1  0
 14  8  1  0
 15  3  1  0
 15  9  1  0
M  END
>  <NAME>  (6010) 
TRANS-ACONITIC ACID TRIMETHYL ESTER

>  <SYNONYMS>  (6010) 


>  <SPECTRUM TYPE>  (6010) 
MS1

>  <INSTRUMENT TYPE>  (6010) 
EI-B

>  <INSTRUMENT>  (6010) 
JEOL JMS-01-SG

>  <ION MODE>  (6010) 
P

>  <INCHIKEY>  (6010) 
DZAIBGWGBBQGPZ-GQCTYLIASA-N

>  <FORMULA>  (6010) 
C9H12O6

>  <EXACT MASS>  (6010) 
216.06338810399998

>  <MW>  (6010) 
216

>  <ID>  (6010) 
JP002228

>  <CONTRIBUTOR>  (6010) 
University of Tokyo Team, {Faculty of Engineering, University of Tokyo

>  <COMMENT>  (6010) 
SMILES=COC(=O)CC(=CC(=O)OC)C(=O)OC
InChI=InChI=1S/C9H12O6/c1-13-7(10)4-6(9(12)15-3)5-8(11)14-2/h4H,5H2,1-3H3/b6-4+
computed SMILES=O=C(OC)C=C(C(=O)OC)CC(=O)OC
accession=JP002228
date=2016.01.19 (Created 2008.10.21, modified 2011.05.06)
author=KOGA M, UNIV. OF OCCUPATIONAL AND ENVIRONMENTAL HEALTH
license=CC BY-NC-SA
exact mass=216.06339
ionization energy=70 eV
ion type=[M]+*
computed spectral entropy=3.268458917511085
computed normalized entropy=0.7416989225125212
SPLASH=splash10-01bi-2900000000-e5e0d24f5aeb8dcff78a
submitter=submitter = University of Tokyo Team (Faculty of Engineering, University of Tokyo)
MoNA Rating=3.75

>  <NUM PEAKS>  (6010) 
82

>  <MASS SPECTRAL PEAKS>  (6010) 
43 0.7
45 5.6
47 0.9
50 0.32
51 9.6
52 8.9
53 38
54 0.63
55 16.9
56 0.7
58 0.7
59 4.81
60 0.9
61 0.9
63 1.1
65 0.14
66 0.7
67 8.6
68 3.9
69 0.65
70 0.9
71 0.9
75 7.5
79 0.7
80 4.2
81 9.3
82 5.1
83 2.88
84 4.6
85 4.6
86 1.1
87 0.21
89 1.4
95 2.8
96 0.9
97 0.42
98 0.7
99 1.1
101 3.9
107 0.23
108 4.4
110 9.8
111 63.6
112 1.43
113 4.9
114 1.4
115 0.9
116 0.14
123 8.4
124 1.1
127 9.1
129 0.93
130 0.9
133 1.8
136 0.7
137 0.07
138 20.1
139 66.6
140 7.5
142 0.16
143 7.5
144 0.9
147 0.7
151 0.32
152 0.9
155 9.3
156 2.5
157 1.1
166 99.99
167 53
168 5.1
169 0.09
170 23.4
171 61.7
172 6.1
173 0.11
183 1.4
198 31.9
199 41
200 0.49
201 0.7
215 3.7

$$$$

     RDKit          2D

 16 16  0  0  0  0  0  0  0  0999 V2000
   -5.1962    2.5700    0.0000 C   0  0  0  0  0  0  0  0  0  0  0  0
   -1.2990    6.3200    0.0000 C   0  0  0  0  0  0  0  0  0  0  0  0
    3.8971    0.3200    0.0000 C   0  0  0  0  0  0  0  0  0  0  0  0
    3.8976    1.8208    0.0000 C   0  0  0  0  0  0  0  0  0  0  0  0
    2.5976   -0.4308    0.0000 C   0  0  0  0  0  0  0  0  0  0  0  0
    2.5986    2.5708    0.0000 C   0  0  0  0  0  0  0  0  0  0  0  0
    1.2986    0.3192    0.0000 C   0  0  0  0  0  0  0  0  0  0  0  0
   -1.2990    1.8200    0.0000 C   0  0  0  0  0  0  0  0  0  0  0  0
    1.2990    1.8200    0.0000 C   0  0  0  0  0  0  0  0  0  0  0  0
    0.0000    2.5700    0.0000 C   0  0  0  0  0  0  0  0  0  0  0  0
   -2.5981    2.5700    0.0000 C   0  0  0  0  0  0  0  0  0  0  0  0
    0.0000    4.0700    0.0000 C   0  0  0  0  0  0  0  0  0  0  0  0
   -2.5981    4.0700    0.0000 O   0  0  0  0  0  0  0  0  0  0  0  0
    1.2990    4.8200    0.0000 O   0  0  0  0  0  0  0  0  0  0  0  0
   -3.8971    1.8200    0.0000 O   0  0  0  0  0  0  0  0  0  0  0  0
   -1.2990    4.8200    0.0000 O   0  0  0  0  0  0  0  0  0  0  0  0
  4  3  2  0
  5  3  1  0
  6  4  1  0
  7  5  2  0
  9  6  2  0
  9  7  1  0
 10  8  1  0
 10  9  1  0
 11  8  1  0
 12 10  1  0
 13 11  2  0
 14 12  2  0
 15  1  1  0
 15 11  1  0
 16  2  1  0
 16 12  1  0
M  END
>  <NAME>  (6011) 
PHENYLSUCCINIC ACID DIMETHYL ESTER

>  <SYNONYMS>  (6011) 


>  <SPECTRUM TYPE>  (6011) 
MS1

>  <INSTRUMENT TYPE>  (6011) 
EI-B

>  <INSTRUMENT>  (6011) 
JEOL JMS-01-SG

>  <ION MODE>  (6011) 
P

>  <INCHIKEY>  (6011) 
CGVIBFZHFCVINR-UHFFFAOYSA-N

>  <FORMULA>  (6011) 
C12H14O4

>  <EXACT MASS>  (6011) 
222.089208928

>  <MW>  (6011) 
222

>  <ID>  (6011) 
JP002227

>  <CONTRIBUTOR>  (6011) 
University of Tokyo Team, {Faculty of Engineering, University of Tokyo

>  <COMMENT>  (6011) 
SMILES=COC(=O)CC(C(=O)OC)c(c1)cccc1
InChI=InChI=1S/C12H14O4/c1-15-11(13)8-10(12(14)16-2)9-6-4-3-5-7-9/h3-7,10H,8H2,1-2H3
computed SMILES=O=C(OC)CC(C(=O)OC)C=1C=CC=CC1
accession=JP002227
date=2016.01.19 (Created 2008.10.21, modified 2011.05.06)
author=KOGA M, UNIV. OF OCCUPATIONAL AND ENVIRONMENTAL HEALTH
license=CC BY-NC-SA
exact mass=222.08921
ionization energy=70 eV
ion type=[M]+*
computed spectral entropy=2.888265992277154
computed normalized entropy=0.7543840472826012
SPLASH=splash10-0fk9-2900000000-ed82043c01aeffb821cc
submitter=submitter = University of Tokyo Team (Faculty of Engineering, University of Tokyo)
MoNA Rating=3.75

>  <NUM PEAKS>  (6011) 
46

>  <MASS SPECTRAL PEAKS>  (6011) 
50 2.2
51 11.2
52 6.7
53 0.22
59 2.2
63 2.2
66 3.3
67 0.11
75 4.4
76 5.6
77 17.9
78 1.12
79 7.8
89 4.4
90 2.2
91 1.46
93 2.2
94 1.1
96 2.2
102 0.56
103 37
104 23.5
105 2.2
115 0.11
116 1.1
117 7.8
118 2.2
121 99.99
122 10.1
131 15.7
132 11.2
133 0.33
139 4.4
140 1.1
141 1.1
142 0.22
147 1.1
149 3.3
155 1.1
162 8.31
163 24.7
164 3.3
167 1.1
190 6.17
191 15.7
192 1.1

$$$$

     RDKit          2D

 16 16  0  0  1  0  0  0  0  0999 V2000
   -1.7792   -1.1452    0.0000 C   0  0  0  0  0  0  0  0  0  0  0  0
   -0.1554   -2.3260    0.0000 C   0  0  0  0  0  0  0  0  0  0  0  0
   -1.5265    1.8822    0.0000 C   0  0  0  0  0  0  0  0  0  0  0  0
    4.4444   -3.1030    0.0000 C   0  0  0  0  0  0  0  0  0  0  0  0
   -5.1637    0.0461    0.0000 C   0  0  0  0  0  0  0  0  0  0  0  0
    1.6482    0.5858    0.0000 C   0  0  0  0  0  0  0  0  0  0  0  0
    0.4382    1.4758    0.0000 C   0  0  0  0  0  0  0  0  0  0  0  0
    1.1882   -0.8342    0.0000 C   0  0  0  0  0  0  0  0  0  0  0  0
    2.0704   -2.0473    0.0000 C   0  0  0  0  0  0  0  0  0  0  0  0
   -2.5795   -0.2220    0.0000 C   0  0  0  0  0  0  0  0  0  0  0  0
   -0.3118   -0.8342    0.0000 C   0  0  0  0  0  0  0  0  0  0  0  0
   -0.7718    0.5858    0.0000 C   0  0  0  0  0  0  0  0  0  0  0  0
    1.4609   -3.4179    0.0000 O   0  0  0  0  0  0  0  0  0  0  0  0
   -2.7342   -1.7140    0.0000 O   0  0  0  0  0  0  0  0  0  0  0  0
    3.5622   -1.8899    0.0000 O   0  0  0  0  0  0  0  0  0  0  0  0
   -3.7942    0.6580    0.0000 O   0  0  0  0  0  0  0  0  0  0  0  0
  7  6  1  0
  8  6  1  0
  8  9  1  6
 11  1  1  0
 11  2  1  0
 11  8  1  0
 12  3  1  1
 12  7  1  0
 12 10  1  0
 12 11  1  0
 13  9  2  0
 14 10  2  0
 15  4  1  0
 15  9  1  0
 16  5  1  0
 16 10  1  0
M  END
>  <NAME>  (6012) 
CAMPHORIC ACID DIMETHYL ESTER

>  <SYNONYMS>  (6012) 


>  <SPECTRUM TYPE>  (6012) 
MS1

>  <INSTRUMENT TYPE>  (6012) 
EI-B

>  <INSTRUMENT>  (6012) 
JEOL JMS-01-SG

>  <ION MODE>  (6012) 
P

>  <INCHIKEY>  (6012) 
JTQKJWYDOXYYBH-PELKAZGASA-N

>  <FORMULA>  (6012) 
C12H20O4

>  <EXACT MASS>  (6012) 
228.13615912

>  <MW>  (6012) 
228

>  <ID>  (6012) 
JP002226

>  <CONTRIBUTOR>  (6012) 
University of Tokyo Team, {Faculty of Engineering, University of Tokyo

>  <COMMENT>  (6012) 
SMILES=COC(=O)C([H])(C1)C(C)(C)C(C)(C1)C(=O)OC
InChI=InChI=1S/C12H20O4/c1-11(2)8(9(13)15-4)6-7-12(11,3)10(14)16-5/h8H,6-7H2,1-5H3/t8-,12+/m1/s1
computed SMILES=O=C(OC)C1CCC(C(=O)OC)(C)C1(C)C
accession=JP002226
date=2016.01.19 (Created 2008.10.21, modified 2011.05.06)
author=KOGA M, UNIV. OF OCCUPATIONAL AND ENVIRONMENTAL HEALTH
license=CC BY-NC-SA
exact mass=228.13616
ionization energy=70 eV
ion type=[M]+*
computed spectral entropy=3.4568610479029394
computed normalized entropy=0.7982160932758758
SPLASH=splash10-0ap0-4900000000-3e5882cf59c26e7da1ac
submitter=submitter = University of Tokyo Team (Faculty of Engineering, University of Tokyo)
MoNA Rating=3.75

>  <NUM PEAKS>  (6012) 
76

>  <MASS SPECTRAL PEAKS>  (6012) 
43 1.3
45 2.2
51 1.3
52 0.31
53 12.4
54 5.3
55 32.8
56 0.17
59 14.2
65 3.1
66 3.1
67 3.42
68 34.6
69 29.3
70 1.3
73 1.95
75 2.2
77 5.7
79 10.6
80 0.31
81 9.7
82 12.8
83 16.4
85 0.13
87 4.8
88 2.6
91 5.7
93 2.48
94 7.1
95 22.2
96 25.3
97 0.44
99 1.3
100 1.7
101 15.1
102 0.22
107 7.5
108 69.3
109 99.99
110 0.93
112 3.1
113 4.4
114 5.3
115 0.4
121 11.1
122 3.1
123 2.2
125 0.84
126 5.3
127 5.7
128 10.2
129 0.13
135 2.6
136 69.7
137 40.8
138 0.48
139 1.7
140 6.2
142 1.7
146 0.22
149 4
150 1.3
153 11.5
154 0.93
155 2.6
159 2.6
164 29.3
165 0.4
167 2.2
168 58.6
169 23.5
170 0.31
181 2.2
196 19.5
197 8.8
198 1.3

$$$$

     RDKit          2D

  5  4  0  0  0  0  0  0  0  0999 V2000
   -3.8971    2.2500    0.0000 C   0  0  0  0  0  0  0  0  0  0  0  0
    0.0000    1.5000    0.0000 C   0  0  0  0  0  0  0  0  0  0  0  0
   -1.2990    2.2500    0.0000 C   0  0  0  0  0  0  0  0  0  0  0  0
    1.2990    2.2500    0.0000 O   0  0  0  0  0  0  0  0  0  0  0  0
   -2.5981    1.5000    0.0000 S   0  0  0  0  0  0  0  0  0  0  0  0
  3  2  1  0
  4  2  1  0
  5  1  1  0
  5  3  1  0
M  END
>  <NAME>  (6013) 
2-METHYLTHIOETHANOL

>  <SYNONYMS>  (6013) 


>  <SPECTRUM TYPE>  (6013) 
MS1

>  <INSTRUMENT TYPE>  (6013) 
EI-B

>  <INSTRUMENT>  (6013) 
JEOL JMS-01-SG

>  <ION MODE>  (6013) 
P

>  <INCHIKEY>  (6013) 
WBBPRCNXBQTYLF-UHFFFAOYSA-N

>  <FORMULA>  (6013) 
C3H8OS

>  <EXACT MASS>  (6013) 
92.029585876

>  <MW>  (6013) 
92

>  <ID>  (6013) 
JP002225

>  <CONTRIBUTOR>  (6013) 
University of Tokyo Team, {Faculty of Engineering, University of Tokyo

>  <COMMENT>  (6013) 
SMILES=OCCSC
InChI=InChI=1S/C3H8OS/c1-5-3-2-4/h4H,2-3H2,1H3
computed SMILES=OCCSC
accession=JP002225
date=2016.01.19 (Created 2008.10.21, modified 2011.05.06)
author=KOGA M, UNIV. OF OCCUPATIONAL AND ENVIRONMENTAL HEALTH
license=CC BY-NC-SA
exact mass=92.02959
ionization energy=70 eV
ion type=[M]+*
computed spectral entropy=1.99693447127182
computed normalized entropy=0.7202418646710197
SPLASH=splash10-03dm-9000000000-72514bd7603ac40929c9
submitter=submitter = University of Tokyo Team (Faculty of Engineering, University of Tokyo)
MoNA Rating=3.75

>  <NUM PEAKS>  (6013) 
16

>  <MASS SPECTRAL PEAKS>  (6013) 
45 29.4
46 14.2
47 32.4
48 1.87
49 11.1
53 2.5
59 4
61 99.99
62 21.3
63 4
66 1.5
68 0.2
74 3
76 2.5
92 63.9
94 4.5

$$$$

     RDKit          2D

 14 13  0  0  0  0  0  0  0  0999 V2000
   -2.1469    1.9414    0.0000 C   0  0  0  0  0  0  0  0  0  0  0  0
   -3.5623    3.3509    0.0000 C   0  0  0  0  0  0  0  0  0  0  0  0
    2.5981    4.5000    0.0000 C   0  0  0  0  0  0  0  0  0  0  0  0
   -7.7942    4.5000    0.0000 C   0  0  0  0  0  0  0  0  0  0  0  0
   -1.6339    3.3509    0.0000 C   0  0  0  0  0  0  0  0  0  0  0  0
   -1.2990    5.2500    0.0000 C   0  0  0  0  0  0  0  0  0  0  0  0
   -3.8971    5.2500    0.0000 C   0  0  0  0  0  0  0  0  0  0  0  0
    0.0000    4.5000    0.0000 C   0  0  0  0  0  0  0  0  0  0  0  0
   -5.1962    4.5000    0.0000 C   0  0  0  0  0  0  0  0  0  0  0  0
   -2.5981    4.5000    0.0000 C   0  0  0  0  0  0  0  0  0  0  0  0
    0.0000    3.0000    0.0000 O   0  0  0  0  0  0  0  0  0  0  0  0
   -5.1962    3.0000    0.0000 O   0  0  0  0  0  0  0  0  0  0  0  0
    1.2990    5.2500    0.0000 O   0  0  0  0  0  0  0  0  0  0  0  0
   -6.4952    5.2500    0.0000 O   0  0  0  0  0  0  0  0  0  0  0  0
  5  1  1  0
  8  6  1  0
  9  7  1  0
 10  2  1  0
 10  5  1  0
 10  6  1  0
 10  7  1  0
 11  8  2  0
 12  9  2  0
 13  3  1  0
 13  8  1  0
 14  4  1  0
 14  9  1  0
M  END
>  <NAME>  (6014) 
3-ETHYL-3-METHYLGLUTARIC ACID DIMETHY ESTER

>  <SYNONYMS>  (6014) 


>  <SPECTRUM TYPE>  (6014) 
MS1

>  <INSTRUMENT TYPE>  (6014) 
EI-B

>  <INSTRUMENT>  (6014) 
JEOL JMS-01-SG

>  <ION MODE>  (6014) 
P

>  <INCHIKEY>  (6014) 
MYBLGPBPMJJRAB-UHFFFAOYSA-N

>  <FORMULA>  (6014) 
C10H18O4

>  <EXACT MASS>  (6014) 
202.120509056

>  <MW>  (6014) 
202

>  <ID>  (6014) 
JP002224

>  <CONTRIBUTOR>  (6014) 
University of Tokyo Team, {Faculty of Engineering, University of Tokyo

>  <COMMENT>  (6014) 
SMILES=COC(=O)CC(C)(CC)CC(=O)OC
InChI=InChI=1S/C10H18O4/c1-5-10(2,6-8(11)13-3)7-9(12)14-4/h5-7H2,1-4H3
computed SMILES=O=C(OC)CC(C)(CC(=O)OC)CC
accession=JP002224
date=2016.01.19 (Created 2008.10.21, modified 2011.05.06)
author=KOGA M, UNIV. OF OCCUPATIONAL AND ENVIRONMENTAL HEALTH
license=CC BY-NC-SA
exact mass=202.12051
ionization energy=70 eV
ion type=[M]+*
computed spectral entropy=3.283051586379057
computed normalized entropy=0.8018503417302194
SPLASH=splash10-00or-9700000000-a375838bb40ef6cf843a
submitter=submitter = University of Tokyo Team (Faculty of Engineering, University of Tokyo)
MoNA Rating=3.75

>  <NUM PEAKS>  (6014) 
60

>  <MASS SPECTRAL PEAKS>  (6014) 
39 12.5
41 34.6
42 5.7
43 1.44
51 1.9
53 8.6
54 5.7
55 4.03
56 1.9
59 7.6
61 3.8
64 0.19
67 6.7
68 11.5
69 83.6
70 0.57
71 1.9
74 9.6
75 2.8
79 0.19
81 9.6
83 7.6
84 1.9
85 1.05
86 3.8
87 43.2
88 3.8
93 0.28
94 3.8
95 7.6
96 16.3
97 8.55
98 7.6
99 4.8
101 2.8
104 0.38
109 19.2
110 5.7
111 8.6
112 0.19
113 20.1
114 1.9
117 4.8
121 0.38
127 7.6
128 19.2
129 99.99
130 0.86
131 1.9
139 3.8
140 1.9
141 5.09
142 18.2
143 9.6
155 4.8
170 1.05
171 39.4
172 3.8
173 1.9
186 4.8

$$$$

     RDKit          2D

 12 12  0  0  0  0  0  0  0  0999 V2000
   -2.5989   -1.5002    0.0000 C   0  0  0  0  0  0  0  0  0  0  0  0
    6.4962    0.7508    0.0000 C   0  0  0  0  0  0  0  0  0  0  0  0
   -1.3000    0.7500    0.0000 C   0  0  0  0  0  0  0  0  0  0  0  0
   -0.0000   -1.5000    0.0000 C   0  0  0  0  0  0  0  0  0  0  0  0
    0.0000    1.5000    0.0000 C   0  0  0  0  0  0  0  0  0  0  0  0
    1.3000   -0.7500    0.0000 C   0  0  0  0  0  0  0  0  0  0  0  0
    2.5989    1.5002    0.0000 C   0  0  0  0  0  0  0  0  0  0  0  0
   -1.3000   -0.7500    0.0000 C   0  0  0  0  0  0  0  0  0  0  0  0
    1.3000    0.7500    0.0000 C   0  0  0  0  0  0  0  0  0  0  0  0
    3.8981    0.7504    0.0000 C   0  0  0  0  0  0  0  0  0  0  0  0
    3.8983   -0.7496    0.0000 O   0  0  0  0  0  0  0  0  0  0  0  0
    5.1970    1.5006    0.0000 O   0  0  0  0  0  0  0  0  0  0  0  0
  5  3  2  0
  6  4  1  0
  8  1  1  0
  8  3  1  0
  8  4  2  0
  9  5  1  0
  9  6  2  0
  9  7  1  0
 10  7  1  0
 11 10  2  0
 12  2  1  0
 12 10  1  0
M  END
>  <NAME>  (6015) 
PARA-TOLYLACETIC ACID METHYL ESTER

>  <SYNONYMS>  (6015) 


>  <SPECTRUM TYPE>  (6015) 
MS1

>  <INSTRUMENT TYPE>  (6015) 
EI-B

>  <INSTRUMENT>  (6015) 
JEOL JMS-01-SG

>  <ION MODE>  (6015) 
P

>  <INCHIKEY>  (6015) 
LSAGWGNECLEVPE-UHFFFAOYSA-N

>  <FORMULA>  (6015) 
C10H12O2

>  <EXACT MASS>  (6015) 
164.083729624

>  <MW>  (6015) 
164

>  <ID>  (6015) 
JP002223

>  <CONTRIBUTOR>  (6015) 
University of Tokyo Team, {Faculty of Engineering, University of Tokyo

>  <COMMENT>  (6015) 
SMILES=COC(=O)Cc(c1)ccc(C)c1
InChI=InChI=1S/C10H12O2/c1-8-3-5-9(6-4-8)7-10(11)12-2/h3-6H,7H2,1-2H3
computed SMILES=O=C(OC)CC1=CC=C(C=C1)C
accession=JP002223
date=2016.01.19 (Created 2008.10.21, modified 2011.05.06)
author=KOGA M, UNIV. OF OCCUPATIONAL AND ENVIRONMENTAL HEALTH
license=CC BY-NC-SA
exact mass=164.08373
ionization energy=70 eV
ion type=[M]+*
computed spectral entropy=2.2594231236843494
computed normalized entropy=0.6519317071618523
SPLASH=splash10-0bt9-2900000000-98e6565813ab01d4269c
submitter=submitter = University of Tokyo Team (Faculty of Engineering, University of Tokyo)
MoNA Rating=3.75

>  <NUM PEAKS>  (6015) 
32

>  <MASS SPECTRAL PEAKS>  (6015) 
38 1.8
39 5.7
50 4.2
51 1.06
52 4.5
53 2.4
62 2.1
63 0.42
65 3.3
66 1.2
76 1.8
77 2.18
78 9.1
79 17.9
80 1.8
89 0.24
91 3.3
102 2.1
103 15.5
104 0.94
105 99.99
106 21.2
107 1.8
115 0.15
119 1.8
121 1.2
132 3
133 0.27
149 1.5
164 64.7
165 7.2
166 1.2

$$$$

     RDKit          2D

 12 12  0  0  0  0  0  0  0  0999 V2000
   -5.5207    3.1321    0.0000 C   0  0  0  0  0  0  0  0  0  0  0  0
    3.5726    0.8821    0.0000 C   0  0  0  0  0  0  0  0  0  0  0  0
    3.5731    2.3829    0.0000 C   0  0  0  0  0  0  0  0  0  0  0  0
    2.2731    0.1313    0.0000 C   0  0  0  0  0  0  0  0  0  0  0  0
    2.2740    3.1329    0.0000 C   0  0  0  0  0  0  0  0  0  0  0  0
    0.9740    0.8813    0.0000 C   0  0  0  0  0  0  0  0  0  0  0  0
   -0.3245    3.1321    0.0000 C   0  0  0  0  0  0  0  0  0  0  0  0
   -1.6236    2.3821    0.0000 C   0  0  0  0  0  0  0  0  0  0  0  0
    0.9745    2.3821    0.0000 C   0  0  0  0  0  0  0  0  0  0  0  0
   -2.9226    3.1321    0.0000 C   0  0  0  0  0  0  0  0  0  0  0  0
   -2.9226    4.6321    0.0000 O   0  0  0  0  0  0  0  0  0  0  0  0
   -4.2216    2.3821    0.0000 O   0  0  0  0  0  0  0  0  0  0  0  0
  3  2  1  0
  4  2  1  0
  5  3  1  0
  6  4  1  0
  8  7  1  0
  9  5  1  0
  9  6  1  0
  9  7  1  0
 10  8  1  0
 11 10  2  0
 12  1  1  0
 12 10  1  0
M  END
>  <NAME>  (6016) 
CYCLOHEXANEPROPIONIC ACID METHYL ESTER

>  <SYNONYMS>  (6016) 
METHYL 3-CYCLOHEXYLPROPIONATE

>  <SPECTRUM TYPE>  (6016) 
MS1

>  <INSTRUMENT TYPE>  (6016) 
EI-B

>  <INSTRUMENT>  (6016) 
JEOL JMS-01-SG

>  <ION MODE>  (6016) 
P

>  <INCHIKEY>  (6016) 
PPALFHZGSIENQB-UHFFFAOYSA-N

>  <FORMULA>  (6016) 
C10H18O2

>  <EXACT MASS>  (6016) 
170.130679816

>  <MW>  (6016) 
170

>  <ID>  (6016) 
JP002222

>  <CONTRIBUTOR>  (6016) 
University of Tokyo Team, {Faculty of Engineering, University of Tokyo

>  <COMMENT>  (6016) 
SMILES=COC(=O)CCC(C1)CCCC1
InChI=InChI=1S/C10H18O2/c1-12-10(11)8-7-9-5-3-2-4-6-9/h9H,2-8H2,1H3
computed SMILES=O=C(OC)CCC1CCCCC1
accession=JP002222
date=2016.01.19 (Created 2008.10.21, modified 2011.05.06)
author=KOGA M, UNIV. OF OCCUPATIONAL AND ENVIRONMENTAL HEALTH
license=CC BY-NC-SA
exact mass=170.13068
ionization energy=70 eV
ion type=[M]+*
computed spectral entropy=2.953828990436246
computed normalized entropy=0.702507711696675
SPLASH=splash10-059j-9000000000-6aeb411130896bee881f
submitter=submitter = University of Tokyo Team (Faculty of Engineering, University of Tokyo)
MoNA Rating=3.75

>  <NUM PEAKS>  (6016) 
67

>  <MASS SPECTRAL PEAKS>  (6016) 
38 0.3
39 14.4
41 37.8
42 0.35
43 23.6
50 1
51 1.4
52 0.14
53 7.7
54 9.1
55 78
56 0.45
57 14.1
58 1.7
60 0.3
61 0.1
63 0.7
65 1
66 2.1
67 1.97
68 5.6
69 9.8
70 1.7
72 0.03
74 80.9
75 23.6
76 1.4
77 0.1
78 2.1
79 7.4
80 2.1
81 1.2
82 2.8
83 10.6
84 1.4
85 0.07
87 99.99
88 18.7
89 1.4
91 0.24
93 3.8
94 6.3
95 9.5
96 2.89
97 94.3
98 8.1
99 0.3
105 0.03
109 3.8
110 2.4
111 1
113 0.1
119 1.4
120 2.4
121 13.4
122 0.14
123 0.3
135 0.3
137 1.4
138 0.45
139 12.7
140 1.4
141 13
142 0.21
169 0.3
170 1.4
171 0.3

$$$$

     RDKit          2D

 12 12  0  0  0  0  0  0  0  0999 V2000
    5.1971   -0.7647    0.0000 C   0  0  0  0  0  0  0  0  0  0  0  0
   -3.9033    1.5020    0.0000 C   0  0  0  0  0  0  0  0  0  0  0  0
    1.2891    1.4828    0.0000 C   0  0  0  0  0  0  0  0  0  0  0  0
   -0.0244   -0.7420    0.0000 C   0  0  0  0  0  0  0  0  0  0  0  0
    2.5736    0.7580    0.0000 C   0  0  0  0  0  0  0  0  0  0  0  0
    1.3001   -1.5362    0.0000 C   0  0  0  0  0  0  0  0  0  0  0  0
   -0.0099    0.7328    0.0000 C   0  0  0  0  0  0  0  0  0  0  0  0
    2.5991   -0.7862    0.0000 C   0  0  0  0  0  0  0  0  0  0  0  0
   -1.3052    1.4892    0.0000 C   0  0  0  0  0  0  0  0  0  0  0  0
   -1.2979    2.9892    0.0000 O   0  0  0  0  0  0  0  0  0  0  0  0
    3.9043   -1.5254    0.0000 O   0  0  0  0  0  0  0  0  0  0  0  0
   -2.6080    0.7456    0.0000 O   0  0  0  0  0  0  0  0  0  0  0  0
  5  3  2  0
  6  4  1  0
  7  3  1  0
  7  4  2  0
  8  5  1  0
  8  6  2  0
  9  7  1  0
 10  9  2  0
 11  1  1  0
 11  8  1  0
 12  2  1  0
 12  9  1  0
M  END
>  <NAME>  (6017) 
PARA-ANISIC ACID METHYL ESTER

>  <SYNONYMS>  (6017) 
METHYL 4-METHOXYBENZOATE

>  <SPECTRUM TYPE>  (6017) 
MS1

>  <INSTRUMENT TYPE>  (6017) 
EI-B

>  <INSTRUMENT>  (6017) 
JEOL JMS-01-SG

>  <ION MODE>  (6017) 
P

>  <INCHIKEY>  (6017) 
DDIZAANNODHTRB-UHFFFAOYSA-N

>  <FORMULA>  (6017) 
C9H10O3

>  <EXACT MASS>  (6017) 
166.06299417999998

>  <MW>  (6017) 
166

>  <ID>  (6017) 
JP002221

>  <CONTRIBUTOR>  (6017) 
University of Tokyo Team, {Faculty of Engineering, University of Tokyo

>  <COMMENT>  (6017) 
SMILES=COc(c1)ccc(c1)C(=O)OC
InChI=InChI=1S/C9H10O3/c1-11-8-5-3-7(4-6-8)9(10)12-2/h3-6H,1-2H3
computed SMILES=O=C(OC)C1=CC=C(OC)C=C1
accession=JP002221
date=2016.01.19 (Created 2008.10.21, modified 2011.05.06)
author=KOGA M, UNIV. OF OCCUPATIONAL AND ENVIRONMENTAL HEALTH
license=CC BY-NC-SA
exact mass=166.06299
ionization energy=70 eV
ion type=[M]+*
computed spectral entropy=2.5453482254921673
computed normalized entropy=0.7218060115306061
SPLASH=splash10-014r-6900000000-ea0c740f9da9c4c70539
submitter=submitter = University of Tokyo Team (Faculty of Engineering, University of Tokyo)
MoNA Rating=3.75

>  <NUM PEAKS>  (6017) 
34

>  <MASS SPECTRAL PEAKS>  (6017) 
37 1.9
38 7.3
39 4.1
50 1.05
51 4.7
52 2.2
53 3.1
62 0.41
63 17.8
64 23.3
65 2.8
66 0.19
75 4.7
76 6.3
77 54.3
78 0.44
79 4.1
92 30.9
93 1.9
103 0.15
104 2.2
105 1.5
107 46.9
108 0.44
119 2.5
120 2.2
121 2.2
123 0.28
135 53.3
136 26.5
137 2.5
165 0.51
166 99.99
167 11.1

$$$$

     RDKit          2D

 14 14  0  0  0  0  0  0  0  0999 V2000
   -1.6353    4.6878    0.0000 C   0  0  0  0  0  0  0  0  0  0  0  0
    4.8670    0.9406    0.0000 C   0  0  0  0  0  0  0  0  0  0  0  0
   -1.6200   -1.3100    0.0000 C   0  0  0  0  0  0  0  0  0  0  0  0
   -0.3300   -2.0600    0.0000 C   0  0  0  0  0  0  0  0  0  0  0  0
   -1.6200    0.1900    0.0000 C   0  0  0  0  0  0  0  0  0  0  0  0
    0.9700   -1.3100    0.0000 C   0  0  0  0  0  0  0  0  0  0  0  0
   -0.3300    0.9400    0.0000 C   0  0  0  0  0  0  0  0  0  0  0  0
    0.9700    0.1900    0.0000 C   0  0  0  0  0  0  0  0  0  0  0  0
   -0.3325    2.4400    0.0000 C   0  0  0  0  0  0  0  0  0  0  0  0
    2.2689    0.9402    0.0000 C   0  0  0  0  0  0  0  0  0  0  0  0
    0.9653    3.1922    0.0000 O   0  0  0  0  0  0  0  0  0  0  0  0
    2.2687    2.4402    0.0000 O   0  0  0  0  0  0  0  0  0  0  0  0
   -1.6328    3.1878    0.0000 O   0  0  0  0  0  0  0  0  0  0  0  0
    3.5681    0.1904    0.0000 O   0  0  0  0  0  0  0  0  0  0  0  0
  4  3  2  0
  5  3  1  0
  6  4  1  0
  7  5  1  0
  8  6  1  0
  8  7  1  0
  9  7  1  0
 10  8  1  0
 11  9  2  0
 12 10  2  0
 13  1  1  0
 13  9  1  0
 14  2  1  0
 14 10  1  0
M  END
>  <NAME>  (6018) 
CYCLOHEXENE-4,5-DICARBOXYLIC ACID DIMETHYLESTER

>  <SYNONYMS>  (6018) 


>  <SPECTRUM TYPE>  (6018) 
MS1

>  <INSTRUMENT TYPE>  (6018) 
EI-B

>  <INSTRUMENT>  (6018) 
JEOL JMS-01-SG

>  <ION MODE>  (6018) 
P

>  <INCHIKEY>  (6018) 
DVVAGRMJGUQHLI-UHFFFAOYSA-N

>  <FORMULA>  (6018) 
C10H14O4

>  <EXACT MASS>  (6018) 
198.089208928

>  <MW>  (6018) 
198

>  <ID>  (6018) 
JP002220

>  <CONTRIBUTOR>  (6018) 
University of Tokyo Team, {Faculty of Engineering, University of Tokyo

>  <COMMENT>  (6018) 
SMILES=COC(=O)C(C1)C(CC=C1)C(=O)OC
InChI=InChI=1S/C10H14O4/c1-13-9(11)7-5-3-4-6-8(7)10(12)14-2/h3-4,7-8H,5-6H2,1-2H3
computed SMILES=O=C(OC)C1CC=CCC1C(=O)OC
author=KOGA M, UNIV. OF OCCUPATIONAL AND ENVIRONMENTAL HEALTH
license=CC BY-NC-SA
accession=JP002220
date=2016.01.19 (Created 2008.10.21, modified 2011.05.06)
exact mass=198.08921
ionization energy=70 eV
ion type=[M]+*
computed spectral entropy=2.2951995466685733
computed normalized entropy=0.6309677478103268
SPLASH=splash10-004i-9400000000-64ea1725bf5bc139283e
submitter=submitter = University of Tokyo Team (Faculty of Engineering, University of Tokyo)
MoNA Rating=3.75

>  <NUM PEAKS>  (6018) 
38

>  <MASS SPECTRAL PEAKS>  (6018) 
33 5
39 4.1
50 1.8
51 0.34
52 2.7
53 3.1
54 1.5
55 0.25
59 1.3
61 1.5
63 0.9
65 0.22
66 0.9
67 1.5
68 1.1
77 1.27
78 38.3
79 99.99
80 10
81 0.34
82 0.9
91 1.5
93 1.5
97 0.09
105 2.2
106 3.6
107 13
108 0.11
110 1.3
111 2.2
123 1.1
137 0.63
138 40.8
139 5.9
166 15.9
167 1.66
168 1.1
198 0.9

$$$$

     RDKit          2D

 15 16  0  0  0  0  0  0  0  0999 V2000
    3.7781    5.7300    0.0000 C   0  0  0  0  0  0  0  0  0  0  0  0
   -2.7200   -1.0200    0.0000 C   0  0  0  0  0  0  0  0  0  0  0  0
   -2.7200    0.4800    0.0000 C   0  0  0  0  0  0  0  0  0  0  0  0
    2.4800   -1.0200    0.0000 C   0  0  0  0  0  0  0  0  0  0  0  0
   -1.4200   -1.7700    0.0000 C   0  0  0  0  0  0  0  0  0  0  0  0
    1.1800   -1.7700    0.0000 C   0  0  0  0  0  0  0  0  0  0  0  0
    2.4800    0.4800    0.0000 C   0  0  0  0  0  0  0  0  0  0  0  0
   -1.4200    1.2300    0.0000 C   0  0  0  0  0  0  0  0  0  0  0  0
    1.1800    2.7300    0.0000 C   0  0  0  0  0  0  0  0  0  0  0  0
   -0.1200   -1.0200    0.0000 C   0  0  0  0  0  0  0  0  0  0  0  0
    1.1800    1.2300    0.0000 C   0  0  0  0  0  0  0  0  0  0  0  0
   -0.1200    0.4800    0.0000 C   0  0  0  0  0  0  0  0  0  0  0  0
    2.4790    3.4800    0.0000 C   0  0  0  0  0  0  0  0  0  0  0  0
    3.7781    2.7300    0.0000 O   0  0  0  0  0  0  0  0  0  0  0  0
    2.4790    4.9800    0.0000 O   0  0  0  0  0  0  0  0  0  0  0  0
  3  2  2  0
  5  2  1  0
  6  4  2  0
  7  4  1  0
  8  3  1  0
 10  5  2  0
 10  6  1  0
 11  7  2  0
 11  9  1  0
 12  8  2  0
 12 10  1  0
 12 11  1  0
 13  9  1  0
 14 13  2  0
 15  1  1  0
 15 13  1  0
M  END
>  <NAME>  (6019) 
ALPHA-NAPHTHALENEACETIC ACID METHYL ESTER

>  <SYNONYMS>  (6019) 


>  <SPECTRUM TYPE>  (6019) 
MS1

>  <INSTRUMENT TYPE>  (6019) 
EI-B

>  <INSTRUMENT>  (6019) 
JEOL JMS-01-SG

>  <ION MODE>  (6019) 
P

>  <INCHIKEY>  (6019) 
YGGXZTQSGNFKPJ-UHFFFAOYSA-N

>  <FORMULA>  (6019) 
C13H12O2

>  <EXACT MASS>  (6019) 
200.083729624

>  <MW>  (6019) 
200

>  <ID>  (6019) 
JP002219

>  <CONTRIBUTOR>  (6019) 
University of Tokyo Team, {Faculty of Engineering, University of Tokyo

>  <COMMENT>  (6019) 
SMILES=COC(=O)Cc(c1)c(c2)c(ccc2)cc1
InChI=InChI=1S/C13H12O2/c1-15-13(14)9-11-7-4-6-10-5-2-3-8-12(10)11/h2-8H,9H2,1H3
computed SMILES=O=C(OC)CC1=CC=CC=2C=CC=CC21
accession=JP002219
date=2016.01.19 (Created 2008.10.21, modified 2011.05.06)
author=KOGA M, UNIV. OF OCCUPATIONAL AND ENVIRONMENTAL HEALTH
license=CC BY-NC-SA
exact mass=200.08373
ionization energy=70 eV
ion type=[M]+*
computed spectral entropy=1.8015081154296808
computed normalized entropy=0.5152307220162582
SPLASH=splash10-0006-1920000000-6bd8e01c4742ccf73f44
submitter=submitter = University of Tokyo Team (Faculty of Engineering, University of Tokyo)
MoNA Rating=3.75

>  <NUM PEAKS>  (6019) 
33

>  <MASS SPECTRAL PEAKS>  (6019) 
39 1
50 2
51 1
58 0.26
62 1.3
63 2.3
64 1
65 0.06
69 0.6
70 3.3
75 0.6
76 0.1
78 1
86 0.6
87 1
88 0.06
89 2.3
113 1.6
114 1
115 1.77
116 2
139 7.7
140 3.6
141 99.99
142 12
143 1
156 0.6
158 0.06
168 0.6
169 1.3
200 35.9
201 0.5
202 0.6

$$$$

     RDKit          2D

 15 15  0  0  0  0  0  0  0  0999 V2000
   -2.9356    5.4356    0.0000 C   0  0  0  0  0  0  0  0  0  0  0  0
    4.8670    0.9406    0.0000 C   0  0  0  0  0  0  0  0  0  0  0  0
   -1.6200   -1.3100    0.0000 C   0  0  0  0  0  0  0  0  0  0  0  0
   -0.3300   -2.0600    0.0000 C   0  0  0  0  0  0  0  0  0  0  0  0
   -1.6200    0.1900    0.0000 C   0  0  0  0  0  0  0  0  0  0  0  0
    0.9700   -1.3100    0.0000 C   0  0  0  0  0  0  0  0  0  0  0  0
   -0.3325    2.4400    0.0000 C   0  0  0  0  0  0  0  0  0  0  0  0
   -0.3300    0.9400    0.0000 C   0  0  0  0  0  0  0  0  0  0  0  0
    0.9700    0.1900    0.0000 C   0  0  0  0  0  0  0  0  0  0  0  0
   -1.6328    3.1878    0.0000 C   0  0  0  0  0  0  0  0  0  0  0  0
    2.2689    0.9402    0.0000 C   0  0  0  0  0  0  0  0  0  0  0  0
   -2.9306    2.4356    0.0000 O   0  0  0  0  0  0  0  0  0  0  0  0
    2.2687    2.4402    0.0000 O   0  0  0  0  0  0  0  0  0  0  0  0
   -1.6353    4.6878    0.0000 O   0  0  0  0  0  0  0  0  0  0  0  0
    3.5681    0.1904    0.0000 O   0  0  0  0  0  0  0  0  0  0  0  0
  4  3  2  0
  5  3  1  0
  6  4  1  0
  8  5  2  0
  8  7  1  0
  9  6  2  0
  9  8  1  0
 10  7  1  0
 11  9  1  0
 12 10  2  0
 13 11  2  0
 14  1  1  0
 14 10  1  0
 15  2  1  0
 15 11  1  0
M  END
>  <NAME>  (6020) 
(ORTHO-METHOXYCARBONYL)PHENYLACETIC ACID METHYL ESTER

>  <SYNONYMS>  (6020) 


>  <SPECTRUM TYPE>  (6020) 
MS1

>  <INSTRUMENT TYPE>  (6020) 
EI-B

>  <INSTRUMENT>  (6020) 
JEOL JMS-01-SG

>  <ION MODE>  (6020) 
P

>  <INCHIKEY>  (6020) 
ROMWRJNZSHFGEK-UHFFFAOYSA-N

>  <FORMULA>  (6020) 
C11H12O4

>  <EXACT MASS>  (6020) 
208.073558864

>  <MW>  (6020) 
208

>  <ID>  (6020) 
JP002218

>  <CONTRIBUTOR>  (6020) 
University of Tokyo Team, {Faculty of Engineering, University of Tokyo

>  <COMMENT>  (6020) 
SMILES=COC(=O)Cc(c1)c(ccc1)C(=O)OC
InChI=InChI=1S/C11H12O4/c1-14-10(12)7-8-5-3-4-6-9(8)11(13)15-2/h3-6H,7H2,1-2H3
computed SMILES=O=C(OC)C=1C=CC=CC1CC(=O)OC
accession=JP002218
date=2016.01.19 (Created 2008.10.21, modified 2011.05.06)
author=KOGA M, UNIV. OF OCCUPATIONAL AND ENVIRONMENTAL HEALTH
license=CC BY-NC-SA
exact mass=208.07356
ionization energy=70 eV
ion type=[M]+*
computed spectral entropy=2.7376283569684134
computed normalized entropy=0.742130067144194
SPLASH=splash10-002b-3900000000-0cd70492ca6bdf804629
submitter=submitter = University of Tokyo Team (Faculty of Engineering, University of Tokyo)
MoNA Rating=3.75

>  <NUM PEAKS>  (6020) 
40

>  <MASS SPECTRAL PEAKS>  (6020) 
38 2.6
39 7.8
50 2.6
51 0.96
52 2.6
53 3.5
62 6.1
63 1.4
64 6.1
65 10.5
75 1.7
76 0.35
77 10.5
78 7
79 2.6
88 0.17
89 25.4
90 21
91 67.5
92 0.35
103 2.6
104 2.6
105 14.9
106 0.35
117 3.5
118 9.6
119 40.3
120 0.43
121 2.6
133 78.9
134 9.6
145 0.26
148 99.99
149 80.7
150 7
163 0.17
176 98.2
177 33.3
178 4.3
208 2.6

$$$$

     RDKit          2D

 11 11  0  0  0  0  0  0  0  0999 V2000
   -4.8712    2.0071    0.0000 C   0  0  0  0  0  0  0  0  0  0  0  0
    2.9231    0.5071    0.0000 C   0  0  0  0  0  0  0  0  0  0  0  0
    2.9236    2.0079    0.0000 C   0  0  0  0  0  0  0  0  0  0  0  0
    1.6236   -0.2437    0.0000 C   0  0  0  0  0  0  0  0  0  0  0  0
    1.6245    2.7579    0.0000 C   0  0  0  0  0  0  0  0  0  0  0  0
    0.3245    0.5063    0.0000 C   0  0  0  0  0  0  0  0  0  0  0  0
   -0.9740    2.7571    0.0000 C   0  0  0  0  0  0  0  0  0  0  0  0
    0.3250    2.0071    0.0000 C   0  0  0  0  0  0  0  0  0  0  0  0
   -2.2731    2.0071    0.0000 C   0  0  0  0  0  0  0  0  0  0  0  0
   -2.2731    0.5071    0.0000 O   0  0  0  0  0  0  0  0  0  0  0  0
   -3.5721    2.7571    0.0000 O   0  0  0  0  0  0  0  0  0  0  0  0
  3  2  1  0
  4  2  1  0
  5  3  1  0
  6  4  1  0
  8  5  1  0
  8  6  1  0
  8  7  1  0
  9  7  1  0
 10  9  2  0
 11  1  1  0
 11  9  1  0
M  END
>  <NAME>  (6021) 
CYCLOHEXYLACETIC ACID METHYL ESTER

>  <SYNONYMS>  (6021) 


>  <SPECTRUM TYPE>  (6021) 
MS1

>  <INSTRUMENT TYPE>  (6021) 
EI-B

>  <INSTRUMENT>  (6021) 
JEOL JMS-01-SG

>  <ION MODE>  (6021) 
P

>  <INCHIKEY>  (6021) 
IMXBRVLCKXGWSS-UHFFFAOYSA-N

>  <FORMULA>  (6021) 
C9H16O2

>  <EXACT MASS>  (6021) 
156.115029752

>  <MW>  (6021) 
156

>  <ID>  (6021) 
JP002217

>  <CONTRIBUTOR>  (6021) 
University of Tokyo Team, {Faculty of Engineering, University of Tokyo

>  <COMMENT>  (6021) 
SMILES=COC(=O)CC(C1)CCCC1
InChI=InChI=1S/C9H16O2/c1-11-9(10)7-8-5-3-2-4-6-8/h8H,2-7H2,1H3
computed SMILES=O=C(OC)CC1CCCCC1
accession=JP002217
date=2016.01.19 (Created 2008.10.21, modified 2011.05.06)
author=KOGA M, UNIV. OF OCCUPATIONAL AND ENVIRONMENTAL HEALTH
license=CC BY-NC-SA
exact mass=156.11503
ionization energy=70 eV
ion type=[M]+*
computed spectral entropy=2.5359952070914518
computed normalized entropy=0.6784963536333584
SPLASH=splash10-00bc-9000000000-6ae9fad45b0a90df0df6
submitter=submitter = University of Tokyo Team (Faculty of Engineering, University of Tokyo)
MoNA Rating=3.75

>  <NUM PEAKS>  (6021) 
42

>  <MASS SPECTRAL PEAKS>  (6021) 
38 1.3
39 14.2
41 28.1
42 0.3
43 77.6
44 3.3
46 1
50 0.16
52 1.3
53 8.4
54 11.1
55 4.67
56 4
66 1.6
67 14.5
68 0.44
69 1.6
74 84
75 99.99
76 0.5
77 2
79 4
80 4.4
81 1.28
82 8.1
83 8.4
84 1
87 0.2
93 1.6
94 1.6
95 4.7
96 0.2
97 12.8
98 1.3
99 1.6
113 0.57
123 2
124 2
125 15.5
126 0.16
156 2.7
157 1

$$$$

     RDKit          2D

 10 10  0  0  0  0  0  0  0  0999 V2000
   -2.4863    2.6509    0.0000 C   0  0  0  0  0  0  0  0  0  0  0  0
    3.8509   -0.4865    0.0000 C   0  0  0  0  0  0  0  0  0  0  0  0
    4.8219    0.6515    0.0000 C   0  0  0  0  0  0  0  0  0  0  0  0
    2.4614    0.1200    0.0000 C   0  0  0  0  0  0  0  0  0  0  0  0
    4.0596    1.9319    0.0000 C   0  0  0  0  0  0  0  0  0  0  0  0
    1.4821    2.6062    0.0000 C   0  0  0  0  0  0  0  0  0  0  0  0
    2.6049    1.6116    0.0000 C   0  0  0  0  0  0  0  0  0  0  0  0
    0.0593    2.1312    0.0000 C   0  0  0  0  0  0  0  0  0  0  0  0
   -0.2407    0.6616    0.0000 O   0  0  0  0  0  0  0  0  0  0  0  0
   -1.0635    3.1259    0.0000 O   0  0  0  0  0  0  0  0  0  0  0  0
  3  2  1  0
  4  2  1  0
  5  3  1  0
  7  4  1  0
  7  5  1  0
  7  6  1  0
  8  6  1  0
  9  8  2  0
 10  1  1  0
 10  8  1  0
M  END
>  <NAME>  (6022) 
CYCLOPENTYLACETIC ACID METHYL ESTER

>  <SYNONYMS>  (6022) 


>  <SPECTRUM TYPE>  (6022) 
MS1

>  <INSTRUMENT TYPE>  (6022) 
EI-B

>  <INSTRUMENT>  (6022) 
JEOL JMS-01-SG

>  <ION MODE>  (6022) 
P

>  <INCHIKEY>  (6022) 
ILSNISVKFYYCCE-UHFFFAOYSA-N

>  <FORMULA>  (6022) 
C8H14O2

>  <EXACT MASS>  (6022) 
142.099379688

>  <MW>  (6022) 
142

>  <ID>  (6022) 
JP002216

>  <CONTRIBUTOR>  (6022) 
University of Tokyo Team, {Faculty of Engineering, University of Tokyo

>  <COMMENT>  (6022) 
SMILES=COC(=O)CC(C1)CCC1
InChI=InChI=1S/C8H14O2/c1-10-8(9)6-7-4-2-3-5-7/h7H,2-6H2,1H3
computed SMILES=O=C(OC)CC1CCCC1
accession=JP002216
date=2016.01.19 (Created 2008.10.21, modified 2011.05.06)
author=KOGA M, UNIV. OF OCCUPATIONAL AND ENVIRONMENTAL HEALTH
license=CC BY-NC-SA
exact mass=142.09938
ionization energy=70 eV
ion type=[M]+*
computed spectral entropy=2.968844806454828
computed normalized entropy=0.7550804851937808
SPLASH=splash10-002f-9100000000-c1f3ce52422c2e0aa2cc
submitter=submitter = University of Tokyo Team (Faculty of Engineering, University of Tokyo)
MoNA Rating=3.75

>  <NUM PEAKS>  (6022) 
51

>  <MASS SPECTRAL PEAKS>  (6022) 
38 2
39 32.6
41 71.8
42 1.3
43 82.9
50 2.5
51 1
52 0.25
53 13.5
54 16
55 66.3
56 0.5
58 2.5
61 1.5
63 1.5
66 0.55
67 38.6
68 16.5
69 19
70 0.2
71 1.5
72 5.5
74 76.8
75 99.99
76 5
78 1.5
79 5
80 0.15
81 10
82 16
83 38.6
84 0.3
85 3
86 1
87 10.5
88 0.25
91 1
93 1.5
95 2
99 3.06
100 5
101 3
109 3.5
110 0.45
111 39.6
112 3
113 29.1
114 0.5
127 3.5
142 6
143 1.5

$$$$

     RDKit          2D

 11 10  0  0  0  0  0  0  0  0999 V2000
   -4.8714    3.9375    0.0000 C   0  0  0  0  0  0  0  0  0  0  0  0
    2.9228    3.9375    0.0000 C   0  0  0  0  0  0  0  0  0  0  0  0
    0.3248   -0.5625    0.0000 C   0  0  0  0  0  0  0  0  0  0  0  0
   -3.5724    3.1875    0.0000 C   0  0  0  0  0  0  0  0  0  0  0  0
    1.6238    3.1875    0.0000 C   0  0  0  0  0  0  0  0  0  0  0  0
   -2.2733    3.9375    0.0000 C   0  0  0  0  0  0  0  0  0  0  0  0
    0.3248    3.9375    0.0000 C   0  0  0  0  0  0  0  0  0  0  0  0
   -0.9743    3.1875    0.0000 C   0  0  0  0  0  0  0  0  0  0  0  0
   -0.9743    1.6875    0.0000 C   0  0  0  0  0  0  0  0  0  0  0  0
   -2.2733    0.9375    0.0000 O   0  0  0  0  0  0  0  0  0  0  0  0
    0.3248    0.9375    0.0000 O   0  0  0  0  0  0  0  0  0  0  0  0
  4  1  1  0
  5  2  1  0
  6  4  1  0
  7  5  1  0
  8  6  1  0
  8  7  1  0
  9  8  1  0
 10  9  2  0
 11  3  1  0
 11  9  1  0
M  END
>  <NAME>  (6023) 
2-PROPYLPENTANOIC ACID METHYL ESTER

>  <SYNONYMS>  (6023) 


>  <SPECTRUM TYPE>  (6023) 
MS1

>  <INSTRUMENT TYPE>  (6023) 
EI-B

>  <INSTRUMENT>  (6023) 
JEOL JMS-01-SG

>  <ION MODE>  (6023) 
P

>  <INCHIKEY>  (6023) 
WPRYUWYMOZQHIY-UHFFFAOYSA-N

>  <FORMULA>  (6023) 
C9H18O2

>  <EXACT MASS>  (6023) 
158.130679816

>  <MW>  (6023) 
158

>  <ID>  (6023) 
JP002215

>  <CONTRIBUTOR>  (6023) 
University of Tokyo Team, {Faculty of Engineering, University of Tokyo

>  <COMMENT>  (6023) 
SMILES=CCCC(CCC)C(=O)OC
InChI=InChI=1S/C9H18O2/c1-4-6-8(7-5-2)9(10)11-3/h8H,4-7H2,1-3H3
computed SMILES=O=C(OC)C(CCC)CCC
accession=JP002215
date=2016.01.19 (Created 2008.10.21, modified 2011.05.06)
author=KOGA M, UNIV. OF OCCUPATIONAL AND ENVIRONMENTAL HEALTH
license=CC BY-NC-SA
exact mass=158.13068
ionization energy=70 eV
ion type=[M]+*
computed spectral entropy=2.028979013749711
computed normalized entropy=0.6088999062194502
SPLASH=splash10-052r-9100000000-bf6b9f29bfbf3f101478
submitter=submitter = University of Tokyo Team (Faculty of Engineering, University of Tokyo)
MoNA Rating=3.75

>  <NUM PEAKS>  (6023) 
28

>  <MASS SPECTRAL PEAKS>  (6023) 
43 1
51 0.7
53 2.4
54 0.1
55 16.7
56 3.2
57 40.2
58 0.07
67 0.7
69 4.2
70 0.7
78 0.07
79 1
83 5.3
84 2.1
87 99.99
88 6.7
91 1.4
93 1
97 0.21
98 0.7
99 4.6
115 7.4
116 4.41
117 3.2
127 5.6
129 6
130 0.7

$$$$

     RDKit          2D

  9  9  0  0  0  0  0  0  0  0999 V2000
   -1.9249    2.1536    0.0000 C   0  0  0  0  0  0  0  0  0  0  0  0
    2.9894   -1.4589    0.0000 C   0  0  0  0  0  0  0  0  0  0  0  0
    3.9605   -0.3209    0.0000 C   0  0  0  0  0  0  0  0  0  0  0  0
    1.6000   -0.8523    0.0000 C   0  0  0  0  0  0  0  0  0  0  0  0
    3.1982    0.9595    0.0000 C   0  0  0  0  0  0  0  0  0  0  0  0
    1.7435    0.6392    0.0000 C   0  0  0  0  0  0  0  0  0  0  0  0
    0.6207    1.6339    0.0000 C   0  0  0  0  0  0  0  0  0  0  0  0
    0.9207    3.1036    0.0000 O   0  0  0  0  0  0  0  0  0  0  0  0
   -0.8021    1.1589    0.0000 O   0  0  0  0  0  0  0  0  0  0  0  0
  3  2  1  0
  4  2  1  0
  5  3  1  0
  6  4  1  0
  6  5  1  0
  7  6  1  0
  8  7  2  0
  9  1  1  0
  9  7  1  0
M  END
>  <NAME>  (6024) 
CYCLOPENTANECARBOXYLIC ACID METHYL ESTER

>  <SYNONYMS>  (6024) 


>  <SPECTRUM TYPE>  (6024) 
MS1

>  <INSTRUMENT TYPE>  (6024) 
EI-B

>  <INSTRUMENT>  (6024) 
JEOL JMS-01-SG

>  <ION MODE>  (6024) 
P

>  <INCHIKEY>  (6024) 
IIHIJFJSXPDTNO-UHFFFAOYSA-N

>  <FORMULA>  (6024) 
C7H12O2

>  <EXACT MASS>  (6024) 
128.083729624

>  <MW>  (6024) 
128

>  <ID>  (6024) 
JP002214

>  <CONTRIBUTOR>  (6024) 
University of Tokyo Team, {Faculty of Engineering, University of Tokyo

>  <COMMENT>  (6024) 
SMILES=COC(=O)C(C1)CCC1
InChI=InChI=1S/C7H12O2/c1-9-7(8)6-4-2-3-5-6/h6H,2-5H2,1H3
computed SMILES=O=C(OC)C1CCCC1
accession=JP002214
date=2016.01.19 (Created 2008.10.21, modified 2011.05.06)
author=KOGA M, UNIV. OF OCCUPATIONAL AND ENVIRONMENTAL HEALTH
license=CC BY-NC-SA
exact mass=128.08373
ionization energy=70 eV
ion type=[M]+*
computed spectral entropy=1.970561097938202
computed normalized entropy=0.620052775418992
SPLASH=splash10-00kr-9100000000-c00e2b8f297d67e56996
submitter=submitter = University of Tokyo Team (Faculty of Engineering, University of Tokyo)
MoNA Rating=3.75

>  <NUM PEAKS>  (6024) 
24

>  <MASS SPECTRAL PEAKS>  (6024) 
42 1.2
53 3
55 14.5
56 0.09
65 0.9
66 1.8
67 12.4
68 1
69 43
70 2.4
85 2.1
87 99.99
88 4.8
95 2.4
96 2.1
97 1.57
98 1.5
99 0.9
100 13.9
101 0.18
113 1.5
127 2.4
128 8.7
129 1.8

$$$$

     RDKit          2D

 12 12  0  0  0  0  0  0  0  0999 V2000
   -5.5207    3.1321    0.0000 C   0  0  0  0  0  0  0  0  0  0  0  0
    3.5726    0.8821    0.0000 C   0  0  0  0  0  0  0  0  0  0  0  0
    3.5731    2.3829    0.0000 C   0  0  0  0  0  0  0  0  0  0  0  0
    2.2731    0.1313    0.0000 C   0  0  0  0  0  0  0  0  0  0  0  0
    2.2740    3.1329    0.0000 C   0  0  0  0  0  0  0  0  0  0  0  0
    0.9740    0.8813    0.0000 C   0  0  0  0  0  0  0  0  0  0  0  0
   -0.3245    3.1321    0.0000 C   0  0  0  0  0  0  0  0  0  0  0  0
   -1.6236    2.3821    0.0000 C   0  0  0  0  0  0  0  0  0  0  0  0
    0.9745    2.3821    0.0000 C   0  0  0  0  0  0  0  0  0  0  0  0
   -2.9226    3.1321    0.0000 C   0  0  0  0  0  0  0  0  0  0  0  0
   -2.9226    4.6321    0.0000 O   0  0  0  0  0  0  0  0  0  0  0  0
   -4.2216    2.3821    0.0000 O   0  0  0  0  0  0  0  0  0  0  0  0
  3  2  2  0
  4  2  1  0
  5  3  1  0
  6  4  2  0
  8  7  1  0
  9  5  2  0
  9  6  1  0
  9  7  1  0
 10  8  1  0
 11 10  2  0
 12  1  1  0
 12 10  1  0
M  END
>  <NAME>  (6025) 
3-PHENYLPROPIONIC ACID METHYL ESTER

>  <SYNONYMS>  (6025) 


>  <SPECTRUM TYPE>  (6025) 
MS1

>  <INSTRUMENT TYPE>  (6025) 
EI-B

>  <INSTRUMENT>  (6025) 
JEOL JMS-01-SG

>  <ION MODE>  (6025) 
P

>  <INCHIKEY>  (6025) 
RPUSRLKKXPQSGP-UHFFFAOYSA-N

>  <FORMULA>  (6025) 
C10H12O2

>  <EXACT MASS>  (6025) 
164.083729624

>  <MW>  (6025) 
164

>  <ID>  (6025) 
JP002212

>  <CONTRIBUTOR>  (6025) 
University of Tokyo Team, {Faculty of Engineering, University of Tokyo

>  <COMMENT>  (6025) 
SMILES=COC(=O)CCc(c1)cccc1
InChI=InChI=1S/C10H12O2/c1-12-10(11)8-7-9-5-3-2-4-6-9/h2-6H,7-8H2,1H3
computed SMILES=O=C(OC)CCC=1C=CC=CC1
accession=JP002212
date=2016.01.19 (Created 2008.10.21, modified 2011.05.06)
author=KOGA M, UNIV. OF OCCUPATIONAL AND ENVIRONMENTAL HEALTH
license=CC BY-NC-SA
exact mass=164.08373
ionization energy=70 eV
ion type=[M]+*
computed spectral entropy=2.454864139997916
computed normalized entropy=0.6904708336683975
SPLASH=splash10-0udl-5900000000-bf39f462c471652299ef
submitter=submitter = University of Tokyo Team (Faculty of Engineering, University of Tokyo)
MoNA Rating=3.75

>  <NUM PEAKS>  (6025) 
35

>  <MASS SPECTRAL PEAKS>  (6025) 
50 4.4
51 9.7
52 3.2
53 0.17
55 0.8
62 1.1
63 3.5
64 0.11
65 8.8
66 0.8
75 1.4
76 0.17
77 14.7
78 10.6
79 10.6
87 0.08
89 2.3
90 0.8
91 59.2
92 0.53
93 0.8
102 1.7
103 10.9
104 99.99
105 33.3
106 2.9
107 4.7
121 0.14
131 2.9
132 2
133 10.9
134 0.11
136 1.1
164 33.3
165 3.8

$$$$

     RDKit          2D

 12 12  0  0  0  0  0  0  0  0999 V2000
   -0.9740    4.2571    0.0000 C   0  0  0  0  0  0  0  0  0  0  0  0
   -4.8712    2.0071    0.0000 C   0  0  0  0  0  0  0  0  0  0  0  0
    2.9231    0.5071    0.0000 C   0  0  0  0  0  0  0  0  0  0  0  0
    2.9236    2.0079    0.0000 C   0  0  0  0  0  0  0  0  0  0  0  0
    1.6236   -0.2437    0.0000 C   0  0  0  0  0  0  0  0  0  0  0  0
    1.6245    2.7579    0.0000 C   0  0  0  0  0  0  0  0  0  0  0  0
    0.3245    0.5063    0.0000 C   0  0  0  0  0  0  0  0  0  0  0  0
   -0.9740    2.7571    0.0000 C   0  0  0  0  0  0  0  0  0  0  0  0
    0.3250    2.0071    0.0000 C   0  0  0  0  0  0  0  0  0  0  0  0
   -2.2731    2.0071    0.0000 C   0  0  0  0  0  0  0  0  0  0  0  0
   -2.2731    0.5071    0.0000 O   0  0  0  0  0  0  0  0  0  0  0  0
   -3.5721    2.7571    0.0000 O   0  0  0  0  0  0  0  0  0  0  0  0
  4  3  2  0
  5  3  1  0
  6  4  1  0
  7  5  2  0
  8  1  1  0
  9  6  2  0
  9  7  1  0
  9  8  1  0
 10  8  1  0
 11 10  2  0
 12  2  1  0
 12 10  1  0
M  END
>  <NAME>  (6026) 
ALPHA-PHENYLPROPIONIC ACID METHYL ESTER

>  <SYNONYMS>  (6026) 


>  <SPECTRUM TYPE>  (6026) 
MS1

>  <INSTRUMENT TYPE>  (6026) 
EI-B

>  <INSTRUMENT>  (6026) 
JEOL JMS-01-SG

>  <ION MODE>  (6026) 
P

>  <INCHIKEY>  (6026) 
DZIQUZJSNSZOCH-UHFFFAOYSA-N

>  <FORMULA>  (6026) 
C10H12O2

>  <EXACT MASS>  (6026) 
164.083729624

>  <MW>  (6026) 
164

>  <ID>  (6026) 
JP002211

>  <CONTRIBUTOR>  (6026) 
University of Tokyo Team, {Faculty of Engineering, University of Tokyo

>  <COMMENT>  (6026) 
SMILES=COC(=O)C(C)c(c1)cccc1
InChI=InChI=1S/C10H12O2/c1-8(10(11)12-2)9-6-4-3-5-7-9/h3-8H,1-2H3
computed SMILES=O=C(OC)C(C=1C=CC=CC1)C
accession=JP002211
date=2016.01.19 (Created 2008.10.21, modified 2011.05.06)
author=KOGA M, UNIV. OF OCCUPATIONAL AND ENVIRONMENTAL HEALTH
license=CC BY-NC-SA
exact mass=164.08373
ionization energy=70 eV
ion type=[M]+*
computed spectral entropy=1.523851543948241
computed normalized entropy=0.577422675456012
SPLASH=splash10-0a4i-2900000000-65a5be1d1341a3fe58be
submitter=submitter = University of Tokyo Team (Faculty of Engineering, University of Tokyo)
MoNA Rating=3.75

>  <NUM PEAKS>  (6026) 
14

>  <MASS SPECTRAL PEAKS>  (6026) 
50 2.2
51 4.5
52 1.4
63 0.17
70 8.7
77 10.8
78 3.1
79 1.17
103 7.5
104 4.3
105 99.99
106 0.92
164 19.6
165 2.4

$$$$

     RDKit          2D

 10 10  0  0  0  0  0  0  0  0999 V2000
   -3.5724    2.0075    0.0000 C   0  0  0  0  0  0  0  0  0  0  0  0
    2.9228   -0.2425    0.0000 C   0  0  0  0  0  0  0  0  0  0  0  0
    2.9233    1.2583    0.0000 C   0  0  0  0  0  0  0  0  0  0  0  0
    1.6233   -0.9933    0.0000 C   0  0  0  0  0  0  0  0  0  0  0  0
    1.6243    2.0083    0.0000 C   0  0  0  0  0  0  0  0  0  0  0  0
    0.3243   -0.2433    0.0000 C   0  0  0  0  0  0  0  0  0  0  0  0
    0.3248    1.2575    0.0000 C   0  0  0  0  0  0  0  0  0  0  0  0
   -0.9743    2.0075    0.0000 C   0  0  0  0  0  0  0  0  0  0  0  0
   -0.9743    3.5075    0.0000 O   0  0  0  0  0  0  0  0  0  0  0  0
   -2.2733    1.2575    0.0000 O   0  0  0  0  0  0  0  0  0  0  0  0
  3  2  2  0
  4  2  1  0
  5  3  1  0
  6  4  1  0
  7  5  1  0
  7  6  1  0
  8  7  1  0
  9  8  2  0
 10  1  1  0
 10  8  1  0
M  END
>  <NAME>  (6027) 
CYCLOHEXENE-4-CARBOXYLIC ACID METHYL ESTER

>  <SYNONYMS>  (6027) 


>  <SPECTRUM TYPE>  (6027) 
MS1

>  <INSTRUMENT TYPE>  (6027) 
EI-B

>  <INSTRUMENT>  (6027) 
JEOL JMS-01-SG

>  <ION MODE>  (6027) 
P

>  <INCHIKEY>  (6027) 
IPUNVLFESXFVFH-UHFFFAOYSA-N

>  <FORMULA>  (6027) 
C8H12O2

>  <EXACT MASS>  (6027) 
140.083729624

>  <MW>  (6027) 
140

>  <ID>  (6027) 
JP002210

>  <CONTRIBUTOR>  (6027) 
University of Tokyo Team, {Faculty of Engineering, University of Tokyo

>  <COMMENT>  (6027) 
SMILES=COC(=O)C(C1)CC=CC1
InChI=InChI=1S/C8H12O2/c1-10-8(9)7-5-3-2-4-6-7/h2-3,7H,4-6H2,1H3
computed SMILES=O=C(OC)C1CC=CCC1
accession=JP002210
date=2016.01.19 (Created 2008.10.21, modified 2011.05.06)
author=KOGA M, UNIV. OF OCCUPATIONAL AND ENVIRONMENTAL HEALTH
license=CC BY-NC-SA
exact mass=140.08373
ionization energy=70 eV
ion type=[M]+*
computed spectral entropy=2.528267495440451
computed normalized entropy=0.6950398930566153
SPLASH=splash10-001i-9200000000-32ac2937626599588a42
submitter=submitter = University of Tokyo Team (Faculty of Engineering, University of Tokyo)
MoNA Rating=3.75

>  <NUM PEAKS>  (6027) 
38

>  <MASS SPECTRAL PEAKS>  (6027) 
42 1.7
45 4.5
50 4.5
51 0.51
52 5.1
53 16
54 14.9
55 0.68
56 1.1
59 7.4
61 1.7
63 0.22
65 3.4
66 5.7
67 3.4
68 0.22
74 6.3
77 12
78 2.2
79 5.34
80 90.2
81 99.99
82 6.8
91 0.17
93 2.2
95 1.7
97 4
98 0.11
107 2.8
108 45.4
109 15.5
110 0.17
111 2.8
112 2.2
125 2.8
139 0.11
140 21.2
141 1.7

$$$$

     RDKit          2D

 16 16  0  0  0  0  0  0  0  0999 V2000
   -6.1702    4.2571    0.0000 C   0  0  0  0  0  0  0  0  0  0  0  0
   -3.5721   -0.2429    0.0000 C   0  0  0  0  0  0  0  0  0  0  0  0
    2.9231    2.0071    0.0000 C   0  0  0  0  0  0  0  0  0  0  0  0
    2.9236    3.5079    0.0000 C   0  0  0  0  0  0  0  0  0  0  0  0
    1.6236    1.2563    0.0000 C   0  0  0  0  0  0  0  0  0  0  0  0
    1.6245    4.2579    0.0000 C   0  0  0  0  0  0  0  0  0  0  0  0
    0.3245    2.0063    0.0000 C   0  0  0  0  0  0  0  0  0  0  0  0
   -0.9740    4.2571    0.0000 C   0  0  0  0  0  0  0  0  0  0  0  0
    0.3250    3.5071    0.0000 C   0  0  0  0  0  0  0  0  0  0  0  0
   -2.2731    3.5071    0.0000 C   0  0  0  0  0  0  0  0  0  0  0  0
   -3.5721    4.2571    0.0000 C   0  0  0  0  0  0  0  0  0  0  0  0
   -2.2731    2.0071    0.0000 C   0  0  0  0  0  0  0  0  0  0  0  0
   -3.5721    5.7571    0.0000 O   0  0  0  0  0  0  0  0  0  0  0  0
   -0.9740    1.2571    0.0000 O   0  0  0  0  0  0  0  0  0  0  0  0
   -4.8712    3.5071    0.0000 O   0  0  0  0  0  0  0  0  0  0  0  0
   -3.5721    1.2571    0.0000 O   0  0  0  0  0  0  0  0  0  0  0  0
  4  3  2  0
  5  3  1  0
  6  4  1  0
  7  5  2  0
  9  6  2  0
  9  7  1  0
  9  8  1  0
 10  8  1  0
 11 10  1  0
 12 10  1  0
 13 11  2  0
 14 12  2  0
 15  1  1  0
 15 11  1  0
 16  2  1  0
 16 12  1  0
M  END
>  <NAME>  (6028) 
BENZYLMALONIC ACID METHYL ESTER

>  <SYNONYMS>  (6028) 


>  <SPECTRUM TYPE>  (6028) 
MS1

>  <INSTRUMENT TYPE>  (6028) 
EI-B

>  <INSTRUMENT>  (6028) 
JEOL JMS-01-SG

>  <ION MODE>  (6028) 
P

>  <INCHIKEY>  (6028) 
ZMYJSOIMFGAQRQ-UHFFFAOYSA-N

>  <FORMULA>  (6028) 
C12H14O4

>  <EXACT MASS>  (6028) 
222.089208928

>  <MW>  (6028) 
222

>  <ID>  (6028) 
JP002209

>  <CONTRIBUTOR>  (6028) 
University of Tokyo Team, {Faculty of Engineering, University of Tokyo

>  <COMMENT>  (6028) 
SMILES=COC(=O)C(C(=O)OC)Cc(c1)cccc1
InChI=InChI=1S/C12H14O4/c1-15-11(13)10(12(14)16-2)8-9-6-4-3-5-7-9/h3-7,10H,8H2,1-2H3
computed SMILES=O=C(OC)C(C(=O)OC)CC=1C=CC=CC1
accession=JP002209
date=2016.01.19 (Created 2008.10.21, modified 2011.05.06)
author=KOGA M, UNIV. OF OCCUPATIONAL AND ENVIRONMENTAL HEALTH
license=CC BY-NC-SA
exact mass=222.08921
ionization energy=70 eV
ion type=[M]+*
computed spectral entropy=2.6014863162302313
computed normalized entropy=0.7440242214546032
SPLASH=splash10-03ec-3900000000-31ecf271eb2b3186dabe
submitter=submitter = University of Tokyo Team (Faculty of Engineering, University of Tokyo)
MoNA Rating=3.75

>  <NUM PEAKS>  (6028) 
33

>  <MASS SPECTRAL PEAKS>  (6028) 
50 2.9
51 12.9
52 4.7
59 0.82
63 5.2
65 11.1
76 2.9
77 1.64
78 6.4
89 3.5
91 72.3
92 0.64
102 7.6
103 27.6
104 7
105 0.41
117 7
121 6.4
130 3.5
131 99.99
132 10.5
144 3.5
147 5.2
159 2.88
160 4.7
161 25.8
162 87
163 2.17
164 2.9
190 5.2
191 4.7
222 3.94
223 7

$$$$

     RDKit          2D

 10 10  0  0  0  0  0  0  0  0999 V2000
   -3.5724    2.0075    0.0000 C   0  0  0  0  0  0  0  0  0  0  0  0
    2.9228   -0.2425    0.0000 C   0  0  0  0  0  0  0  0  0  0  0  0
    2.9233    1.2583    0.0000 C   0  0  0  0  0  0  0  0  0  0  0  0
    1.6233   -0.9933    0.0000 C   0  0  0  0  0  0  0  0  0  0  0  0
    1.6243    2.0083    0.0000 C   0  0  0  0  0  0  0  0  0  0  0  0
    0.3243   -0.2433    0.0000 C   0  0  0  0  0  0  0  0  0  0  0  0
    0.3248    1.2575    0.0000 C   0  0  0  0  0  0  0  0  0  0  0  0
   -0.9743    2.0075    0.0000 C   0  0  0  0  0  0  0  0  0  0  0  0
   -0.9743    3.5075    0.0000 O   0  0  0  0  0  0  0  0  0  0  0  0
   -2.2733    1.2575    0.0000 O   0  0  0  0  0  0  0  0  0  0  0  0
  3  2  1  0
  4  2  1  0
  5  3  1  0
  6  4  1  0
  7  5  1  0
  7  6  1  0
  8  7  1  0
  9  8  2  0
 10  1  1  0
 10  8  1  0
M  END
>  <NAME>  (6029) 
CYCLOHEXANECARBOXYLIC ACID METHYL ESTER

>  <SYNONYMS>  (6029) 


>  <SPECTRUM TYPE>  (6029) 
MS1

>  <INSTRUMENT TYPE>  (6029) 
EI-B

>  <INSTRUMENT>  (6029) 
JEOL JMS-01-SG

>  <ION MODE>  (6029) 
P

>  <INCHIKEY>  (6029) 
ZQWPRMPSCMSAJU-UHFFFAOYSA-N

>  <FORMULA>  (6029) 
C8H14O2

>  <EXACT MASS>  (6029) 
142.099379688

>  <MW>  (6029) 
142

>  <ID>  (6029) 
JP002208

>  <CONTRIBUTOR>  (6029) 
University of Tokyo Team, {Faculty of Engineering, University of Tokyo

>  <COMMENT>  (6029) 
SMILES=COC(=O)C(C1)CCCC1
InChI=InChI=1S/C8H14O2/c1-10-8(9)7-5-3-2-4-6-7/h7H,2-6H2,1H3
computed SMILES=O=C(OC)C1CCCCC1
accession=JP002208
date=2016.01.19 (Created 2008.10.21, modified 2011.05.06)
author=KOGA M, UNIV. OF OCCUPATIONAL AND ENVIRONMENTAL HEALTH
license=CC BY-NC-SA
exact mass=142.09938
ionization energy=70 eV
ion type=[M]+*
computed spectral entropy=2.692702127389102
computed normalized entropy=0.7841328365674024
SPLASH=splash10-0bu9-9300000000-4e253eb261ff28940df3
submitter=submitter = University of Tokyo Team (Faculty of Engineering, University of Tokyo)
MoNA Rating=3.75

>  <NUM PEAKS>  (6029) 
31

>  <MASS SPECTRAL PEAKS>  (6029) 
50 2.6
53 9.3
54 10.6
55 99.99
56 5.3
61 5.3
65 12.6
67 1.86
68 20
69 12
74 4
75 0.4
78 2.6
79 6.6
81 18.6
82 2.93
83 77.3
84 6.6
87 98.6
88 0.66
99 2.6
100 5.3
101 16
109 0.53
110 29.3
111 26.6
113 21.3
114 0.53
127 10.6
142 28
143 5.3

$$$$

     RDKit          2D

 13 13  0  0  0  0  0  0  0  0999 V2000
   -3.8982   -0.3752    0.0000 C   0  0  0  0  0  0  0  0  0  0  0  0
    2.5977   -4.1256    0.0000 C   0  0  0  0  0  0  0  0  0  0  0  0
   -2.5990    0.3746    0.0000 C   0  0  0  0  0  0  0  0  0  0  0  0
    2.5981    1.8758    0.0000 C   0  0  0  0  0  0  0  0  0  0  0  0
    1.2990    2.6258    0.0000 C   0  0  0  0  0  0  0  0  0  0  0  0
    2.5976    0.3750    0.0000 C   0  0  0  0  0  0  0  0  0  0  0  0
   -0.0005    1.8750    0.0000 C   0  0  0  0  0  0  0  0  0  0  0  0
    1.2981   -0.3758    0.0000 C   0  0  0  0  0  0  0  0  0  0  0  0
   -0.0010    0.3742    0.0000 C   0  0  0  0  0  0  0  0  0  0  0  0
    1.2983   -1.8758    0.0000 C   0  0  0  0  0  0  0  0  0  0  0  0
   -0.0006   -2.6260    0.0000 O   0  0  0  0  0  0  0  0  0  0  0  0
    2.5975   -2.6256    0.0000 O   0  0  0  0  0  0  0  0  0  0  0  0
   -1.3001   -0.3756    0.0000 O   0  0  0  0  0  0  0  0  0  0  0  0
  3  1  1  0
  5  4  2  0
  6  4  1  0
  7  5  1  0
  8  6  2  0
  9  7  2  0
  9  8  1  0
 10  8  1  0
 11 10  2  0
 12  2  1  0
 12 10  1  0
 13  3  1  0
 13  9  1  0
M  END
>  <NAME>  (6030) 
2-ETHOXYBENZOIC ACID METHYL ESTER

>  <SYNONYMS>  (6030) 


>  <SPECTRUM TYPE>  (6030) 
MS1

>  <INSTRUMENT TYPE>  (6030) 
EI-B

>  <INSTRUMENT>  (6030) 
JEOL JMS-01-SG

>  <ION MODE>  (6030) 
P

>  <INCHIKEY>  (6030) 
QAYQKAPOTVSWLS-UHFFFAOYSA-N

>  <FORMULA>  (6030) 
C10H12O3

>  <EXACT MASS>  (6030) 
180.078644244

>  <MW>  (6030) 
180

>  <ID>  (6030) 
JP002206

>  <CONTRIBUTOR>  (6030) 
University of Tokyo Team, {Faculty of Engineering, University of Tokyo

>  <COMMENT>  (6030) 
SMILES=CCOc(c1)c(ccc1)C(=O)OC
InChI=InChI=1S/C10H12O3/c1-3-13-9-7-5-4-6-8(9)10(11)12-2/h4-7H,3H2,1-2H3
computed SMILES=O=C(OC)C=1C=CC=CC1OCC
accession=JP002206
date=2016.01.19 (Created 2008.10.21, modified 2011.05.06)
author=KOGA M, UNIV. OF OCCUPATIONAL AND ENVIRONMENTAL HEALTH
license=CC BY-NC-SA
exact mass=180.07864
ionization energy=70 eV
ion type=[M]+*
computed spectral entropy=2.421430312061196
computed normalized entropy=0.6810670207762459
SPLASH=splash10-00di-2900000000-c682f42166c19c565234
submitter=submitter = University of Tokyo Team (Faculty of Engineering, University of Tokyo)
MoNA Rating=3.75

>  <NUM PEAKS>  (6030) 
35

>  <MASS SPECTRAL PEAKS>  (6030) 
50 1.4
51 3.4
52 2
53 0.25
62 1.7
63 5.7
64 7.1
65 1.26
76 2
77 5.7
91 2.5
92 3.18
93 10
103 1.4
104 1.4
105 0.51
107 1.1
120 99.99
121 28
122 0.28
133 17.4
134 1.7
135 2.5
137 0.02
147 14.3
148 2.8
149 9.7
150 0.17
151 1.1
152 3.4
157 1.1
165 1.63
166 2.2
180 13.4
181 1.7

$$$$

     RDKit          2D

 15 15  0  0  0  0  0  0  0  0999 V2000
   -7.7951   -1.5010    0.0000 C   0  0  0  0  0  0  0  0  0  0  0  0
    5.1970    1.5006    0.0000 C   0  0  0  0  0  0  0  0  0  0  0  0
   -6.4962   -0.7508    0.0000 C   0  0  0  0  0  0  0  0  0  0  0  0
   -5.1970   -1.5006    0.0000 C   0  0  0  0  0  0  0  0  0  0  0  0
   -3.8981   -0.7504    0.0000 C   0  0  0  0  0  0  0  0  0  0  0  0
   -2.5989   -1.5002    0.0000 C   0  0  0  0  0  0  0  0  0  0  0  0
   -1.3000    0.7500    0.0000 C   0  0  0  0  0  0  0  0  0  0  0  0
    0.0000   -1.5000    0.0000 C   0  0  0  0  0  0  0  0  0  0  0  0
    0.0000    1.5000    0.0000 C   0  0  0  0  0  0  0  0  0  0  0  0
    1.3000   -0.7500    0.0000 C   0  0  0  0  0  0  0  0  0  0  0  0
   -1.3000   -0.7500    0.0000 C   0  0  0  0  0  0  0  0  0  0  0  0
    1.3000    0.7500    0.0000 C   0  0  0  0  0  0  0  0  0  0  0  0
    2.5989    1.5002    0.0000 C   0  0  0  0  0  0  0  0  0  0  0  0
    2.5987    3.0002    0.0000 O   0  0  0  0  0  0  0  0  0  0  0  0
    3.8981    0.7504    0.0000 O   0  0  0  0  0  0  0  0  0  0  0  0
  3  1  1  0
  4  3  1  0
  5  4  1  0
  6  5  1  0
  9  7  2  0
 10  8  1  0
 11  6  1  0
 11  7  1  0
 11  8  2  0
 12  9  1  0
 12 10  2  0
 13 12  1  0
 14 13  2  0
 15  2  1  0
 15 13  1  0
M  END
>  <NAME>  (6031) 
4-N-AMYLBENZOIC ACID METHYL ESTER

>  <SYNONYMS>  (6031) 


>  <SPECTRUM TYPE>  (6031) 
MS1

>  <INSTRUMENT TYPE>  (6031) 
EI-B

>  <INSTRUMENT>  (6031) 
JEOL JMS-01-SG

>  <ION MODE>  (6031) 
P

>  <INCHIKEY>  (6031) 
STDGBCHZHMQCAE-UHFFFAOYSA-N

>  <FORMULA>  (6031) 
C13H18O2

>  <EXACT MASS>  (6031) 
206.130679816

>  <MW>  (6031) 
206

>  <ID>  (6031) 
JP002205

>  <CONTRIBUTOR>  (6031) 
University of Tokyo Team, {Faculty of Engineering, University of Tokyo

>  <COMMENT>  (6031) 
SMILES=CCCCCc(c1)ccc(c1)C(=O)OC
InChI=InChI=1S/C13H18O2/c1-3-4-5-6-11-7-9-12(10-8-11)13(14)15-2/h7-10H,3-6H2,1-2H3
computed SMILES=O=C(OC)C1=CC=C(C=C1)CCCCC
accession=JP002205
date=2016.01.19 (Created 2008.10.21, modified 2011.05.06)
author=KOGA M, UNIV. OF OCCUPATIONAL AND ENVIRONMENTAL HEALTH
license=CC BY-NC-SA
exact mass=206.13068
ionization energy=70 eV
ion type=[M]+*
computed spectral entropy=3.1489126374144525
computed normalized entropy=0.7788455868631623
SPLASH=splash10-0k96-4910000000-564da4d816cdbfa3fa2e
submitter=submitter = University of Tokyo Team (Faculty of Engineering, University of Tokyo)
MoNA Rating=3.75

>  <NUM PEAKS>  (6031) 
57

>  <MASS SPECTRAL PEAKS>  (6031) 
42 2.2
45 3.4
51 3.4
55 0.22
59 5.7
62 3.4
63 3.4
64 0.22
65 10.3
76 6.8
77 10.3
78 0.45
79 2.2
89 12.6
90 18.3
91 99.99
92 5.7
102 5.7
103 4.5
104 0.22
105 19.5
106 8
107 6.8
110 0.22
115 6.8
117 2.2
118 32.1
119 2.75
121 22.9
122 4.5
123 3.4
131 0.45
133 2.2
134 2.2
135 13.7
145 0.45
146 4.5
147 9.1
148 3.4
149 6.78
150 97.7
151 8
152 4.5
161 0.45
163 9.1
164 4.5
165 4.5
167 0.22
175 51.7
176 9.1
178 2.2
180 0.57
205 5.7
206 45.9
207 5.7
208 0.34
219 5.7

$$$$

     RDKit          2D

 14 14  0  0  0  0  0  0  0  0999 V2000
    5.1970    2.2504    0.0000 C   0  0  0  0  0  0  0  0  0  0  0  0
   -6.4962   -0.0010    0.0000 C   0  0  0  0  0  0  0  0  0  0  0  0
    3.8978    3.0002    0.0000 C   0  0  0  0  0  0  0  0  0  0  0  0
    2.5989    2.2500    0.0000 C   0  0  0  0  0  0  0  0  0  0  0  0
    1.2998    2.9998    0.0000 C   0  0  0  0  0  0  0  0  0  0  0  0
    0.0008    0.7496    0.0000 C   0  0  0  0  0  0  0  0  0  0  0  0
   -1.2992    2.9996    0.0000 C   0  0  0  0  0  0  0  0  0  0  0  0
   -1.2992   -0.0004    0.0000 C   0  0  0  0  0  0  0  0  0  0  0  0
   -2.5992    2.2496    0.0000 C   0  0  0  0  0  0  0  0  0  0  0  0
    0.0008    2.2496    0.0000 C   0  0  0  0  0  0  0  0  0  0  0  0
   -2.5992    0.7496    0.0000 C   0  0  0  0  0  0  0  0  0  0  0  0
   -3.8981   -0.0006    0.0000 C   0  0  0  0  0  0  0  0  0  0  0  0
   -3.8978   -1.5006    0.0000 O   0  0  0  0  0  0  0  0  0  0  0  0
   -5.1972    0.7492    0.0000 O   0  0  0  0  0  0  0  0  0  0  0  0
  3  1  1  0
  4  3  1  0
  5  4  1  0
  8  6  2  0
  9  7  1  0
 10  5  1  0
 10  6  1  0
 10  7  2  0
 11  8  1  0
 11  9  2  0
 12 11  1  0
 13 12  2  0
 14  2  1  0
 14 12  1  0
M  END
>  <NAME>  (6032) 
4-N-BUTYLBENZOIC ACID METHYL ESTER

>  <SYNONYMS>  (6032) 


>  <SPECTRUM TYPE>  (6032) 
MS1

>  <INSTRUMENT TYPE>  (6032) 
EI-B

>  <INSTRUMENT>  (6032) 
JEOL JMS-01-SG

>  <ION MODE>  (6032) 
P

>  <INCHIKEY>  (6032) 
XJRYQLPELPLPHZ-UHFFFAOYSA-N

>  <FORMULA>  (6032) 
C12H16O2

>  <EXACT MASS>  (6032) 
192.115029752

>  <MW>  (6032) 
192

>  <ID>  (6032) 
JP002204

>  <CONTRIBUTOR>  (6032) 
University of Tokyo Team, {Faculty of Engineering, University of Tokyo

>  <COMMENT>  (6032) 
SMILES=CCCCc(c1)ccc(c1)C(=O)OC
InChI=InChI=1S/C12H16O2/c1-3-4-5-10-6-8-11(9-7-10)12(13)14-2/h6-9H,3-5H2,1-2H3
computed SMILES=O=C(OC)C1=CC=C(C=C1)CCCC
accession=JP002204
date=2016.01.19 (Created 2008.10.21, modified 2011.05.06)
author=KOGA M, UNIV. OF OCCUPATIONAL AND ENVIRONMENTAL HEALTH
license=CC BY-NC-SA
exact mass=192.11503
ionization energy=70 eV
ion type=[M]+*
computed spectral entropy=2.8610466576992946
computed normalized entropy=0.7390591833484538
SPLASH=splash10-0gvp-3900000000-096bbde31a3692198c42
submitter=submitter = University of Tokyo Team (Faculty of Engineering, University of Tokyo)
MoNA Rating=3.75

>  <NUM PEAKS>  (6032) 
48

>  <MASS SPECTRAL PEAKS>  (6032) 
45 5.4
50 4.5
51 6.3
52 0.27
53 6.3
55 5.4
58 5.4
62 0.27
63 5.4
65 7.2
66 1.8
77 0.99
78 4.5
79 2.7
89 10.8
90 1.62
91 96.3
92 6.3
102 3.6
103 0.45
104 4.5
105 2.7
107 5.4
110 0.45
115 5.4
116 4.5
118 17.1
119 1.44
120 3.6
121 28.8
131 5.4
133 1.53
134 5.4
135 9
141 1.8
143 0.27
149 87.3
150 99.99
151 8.1
152 0.27
161 66.6
162 10.8
163 5.4
164 0.36
178 5.4
191 5.4
192 54.9
193 5.4

$$$$

     RDKit          2D

 14 14  0  0  0  0  0  0  0  0999 V2000
    3.3491    0.2013    0.0000 C   0  0  0  0  0  0  0  0  0  0  0  0
    3.8978    2.2504    0.0000 C   0  0  0  0  0  0  0  0  0  0  0  0
    1.8487    2.7991    0.0000 C   0  0  0  0  0  0  0  0  0  0  0  0
   -5.1970   -1.5006    0.0000 C   0  0  0  0  0  0  0  0  0  0  0  0
   -1.3000    0.7500    0.0000 C   0  0  0  0  0  0  0  0  0  0  0  0
   -0.0000   -1.5000    0.0000 C   0  0  0  0  0  0  0  0  0  0  0  0
    0.0000    1.5000    0.0000 C   0  0  0  0  0  0  0  0  0  0  0  0
    1.3000   -0.7500    0.0000 C   0  0  0  0  0  0  0  0  0  0  0  0
   -1.3000   -0.7500    0.0000 C   0  0  0  0  0  0  0  0  0  0  0  0
    1.3000    0.7500    0.0000 C   0  0  0  0  0  0  0  0  0  0  0  0
   -2.5989   -1.5002    0.0000 C   0  0  0  0  0  0  0  0  0  0  0  0
    2.5989    1.5002    0.0000 C   0  0  0  0  0  0  0  0  0  0  0  0
   -2.5987   -3.0002    0.0000 O   0  0  0  0  0  0  0  0  0  0  0  0
   -3.8981   -0.7504    0.0000 O   0  0  0  0  0  0  0  0  0  0  0  0
  7  5  2  0
  8  6  1  0
  9  5  1  0
  9  6  2  0
 10  7  1  0
 10  8  2  0
 11  9  1  0
 12  1  1  0
 12  2  1  0
 12  3  1  0
 12 10  1  0
 13 11  2  0
 14  4  1  0
 14 11  1  0
M  END
>  <NAME>  (6033) 
4-TERT-BUTYLBENZOIC ACID METHYL ESTER

>  <SYNONYMS>  (6033) 


>  <SPECTRUM TYPE>  (6033) 
MS1

>  <INSTRUMENT TYPE>  (6033) 
EI-B

>  <INSTRUMENT>  (6033) 
JEOL JMS-01-SG

>  <ION MODE>  (6033) 
P

>  <INCHIKEY>  (6033) 
UPIJOAFHOIWPLT-UHFFFAOYSA-N

>  <FORMULA>  (6033) 
C12H16O2

>  <EXACT MASS>  (6033) 
192.115029752

>  <MW>  (6033) 
192

>  <ID>  (6033) 
JP002203

>  <CONTRIBUTOR>  (6033) 
University of Tokyo Team, {Faculty of Engineering, University of Tokyo

>  <COMMENT>  (6033) 
SMILES=COC(=O)c(c1)ccc(c1)C(C)(C)C
InChI=InChI=1S/C12H16O2/c1-12(2,3)10-7-5-9(6-8-10)11(13)14-4/h5-8H,1-4H3
computed SMILES=O=C(OC)C1=CC=C(C=C1)C(C)(C)C
accession=JP002203
date=2016.01.19 (Created 2008.10.21, modified 2011.05.06)
author=KOGA M, UNIV. OF OCCUPATIONAL AND ENVIRONMENTAL HEALTH
license=CC BY-NC-SA
exact mass=192.11503
ionization energy=70 eV
ion type=[M]+*
computed spectral entropy=2.7125711556378005
computed normalized entropy=0.6899011830690683
SPLASH=splash10-004i-2900000000-9a3ca45e21a73221aa29
submitter=submitter = University of Tokyo Team (Faculty of Engineering, University of Tokyo)
MoNA Rating=3.75

>  <NUM PEAKS>  (6033) 
51

>  <MASS SPECTRAL PEAKS>  (6033) 
44 1.1
45 1.9
50 2.2
51 0.53
55 1.9
57 1.1
58 3.4
59 0.8
63 1.5
64 1.1
65 2.6
72 0.19
77 5.3
78 1.9
80 1.9
90 0.3
91 13.3
92 1.1
93 6.4
102 0.26
103 2.2
104 2.2
105 16
106 0.26
107 1.1
110 1.1
115 5.7
116 0.3
117 7.6
118 4.9
119 2.2
121 0.22
122 1.9
132 1.5
133 1.5
135 0.22
145 3.8
146 3.8
149 22.1
150 0.11
151 1.1
161 8
162 1.5
177 99.99
178 11.8
179 2.2
191 1.5
192 1.6
193 3.4
203 1.1
276 1.5

$$$$

     RDKit          2D

 13 13  0  0  0  0  0  0  0  0999 V2000
   -5.1970   -1.5006    0.0000 C   0  0  0  0  0  0  0  0  0  0  0  0
    5.1970    1.5006    0.0000 C   0  0  0  0  0  0  0  0  0  0  0  0
   -3.8981   -0.7504    0.0000 C   0  0  0  0  0  0  0  0  0  0  0  0
   -2.5989   -1.5002    0.0000 C   0  0  0  0  0  0  0  0  0  0  0  0
   -1.3000    0.7500    0.0000 C   0  0  0  0  0  0  0  0  0  0  0  0
   -0.0000   -1.5000    0.0000 C   0  0  0  0  0  0  0  0  0  0  0  0
    0.0000    1.5000    0.0000 C   0  0  0  0  0  0  0  0  0  0  0  0
    1.3000   -0.7500    0.0000 C   0  0  0  0  0  0  0  0  0  0  0  0
   -1.3000   -0.7500    0.0000 C   0  0  0  0  0  0  0  0  0  0  0  0
    1.3000    0.7500    0.0000 C   0  0  0  0  0  0  0  0  0  0  0  0
    2.5989    1.5002    0.0000 C   0  0  0  0  0  0  0  0  0  0  0  0
    2.5987    3.0002    0.0000 O   0  0  0  0  0  0  0  0  0  0  0  0
    3.8981    0.7504    0.0000 O   0  0  0  0  0  0  0  0  0  0  0  0
  3  1  1  0
  4  3  1  0
  7  5  2  0
  8  6  1  0
  9  4  1  0
  9  5  1  0
  9  6  2  0
 10  7  1  0
 10  8  2  0
 11 10  1  0
 12 11  2  0
 13  2  1  0
 13 11  1  0
M  END
>  <NAME>  (6034) 
4-PROPYLBENZOIC ACID METHYL ESTER

>  <SYNONYMS>  (6034) 


>  <SPECTRUM TYPE>  (6034) 
MS1

>  <INSTRUMENT TYPE>  (6034) 
EI-B

>  <INSTRUMENT>  (6034) 
JEOL JMS-01-SG

>  <ION MODE>  (6034) 
P

>  <INCHIKEY>  (6034) 
RXFJHVNBEFFCJX-UHFFFAOYSA-N

>  <FORMULA>  (6034) 
C11H14O2

>  <EXACT MASS>  (6034) 
178.099379688

>  <MW>  (6034) 
178

>  <ID>  (6034) 
JP002202

>  <CONTRIBUTOR>  (6034) 
University of Tokyo Team, {Faculty of Engineering, University of Tokyo

>  <COMMENT>  (6034) 
SMILES=CCCc(c1)ccc(c1)C(=O)OC
InChI=InChI=1S/C11H14O2/c1-3-4-9-5-7-10(8-6-9)11(12)13-2/h5-8H,3-4H2,1-2H3
computed SMILES=O=C(OC)C1=CC=C(C=C1)CCC
accession=JP002202
date=2016.01.19 (Created 2008.10.21, modified 2011.05.06)
author=KOGA M, UNIV. OF OCCUPATIONAL AND ENVIRONMENTAL HEALTH
license=CC BY-NC-SA
exact mass=178.09938
ionization energy=70 eV
ion type=[M]+*
computed spectral entropy=2.8766974214092036
computed normalized entropy=0.7353477772031577
SPLASH=splash10-03xr-2900000000-f083ec19e46d944b4b6c
submitter=submitter = University of Tokyo Team (Faculty of Engineering, University of Tokyo)
MoNA Rating=3.75

>  <NUM PEAKS>  (6034) 
50

>  <MASS SPECTRAL PEAKS>  (6034) 
44 2.1
50 2.8
51 6.4
59 1.85
61 1.4
62 2.8
63 1.4
65 0.57
66 1.4
72 1.4
74 3.5
75 0.21
76 2.1
77 21.4
78 9.2
79 0.5
85 1.4
89 4.2
90 2.1
91 4.42
92 2.1
93 2.1
98 1.4
101 0.21
102 4.2
103 17.8
104 10
105 0.57
110 2.1
115 5
117 10
118 0.28
119 63.5
120 7.1
121 3.5
123 0.35
131 27.8
132 2.8
135 4.2
145 0.28
146 2.1
147 33.5
148 4.2
163 99.99
164 10
165 3.5
177 2.1
178 4.42
179 4.2
183 1.4

$$$$

     RDKit          2D

 12 12  0  0  0  0  0  0  0  0999 V2000
    0.0000    3.0000    0.0000 C   0  0  0  0  0  0  0  0  0  0  0  0
    2.5989   -1.5002    0.0000 C   0  0  0  0  0  0  0  0  0  0  0  0
   -5.1970   -1.5006    0.0000 C   0  0  0  0  0  0  0  0  0  0  0  0
    1.3000    0.7500    0.0000 C   0  0  0  0  0  0  0  0  0  0  0  0
   -1.3000    0.7500    0.0000 C   0  0  0  0  0  0  0  0  0  0  0  0
   -0.0000   -1.5000    0.0000 C   0  0  0  0  0  0  0  0  0  0  0  0
    0.0000    1.5000    0.0000 C   0  0  0  0  0  0  0  0  0  0  0  0
    1.3000   -0.7500    0.0000 C   0  0  0  0  0  0  0  0  0  0  0  0
   -1.3000   -0.7500    0.0000 C   0  0  0  0  0  0  0  0  0  0  0  0
   -2.5989   -1.5002    0.0000 C   0  0  0  0  0  0  0  0  0  0  0  0
   -2.5987   -3.0002    0.0000 O   0  0  0  0  0  0  0  0  0  0  0  0
   -3.8981   -0.7504    0.0000 O   0  0  0  0  0  0  0  0  0  0  0  0
  7  1  1  0
  7  4  2  0
  7  5  1  0
  8  2  1  0
  8  4  1  0
  8  6  2  0
  9  5  2  0
  9  6  1  0
 10  9  1  0
 11 10  2  0
 12  3  1  0
 12 10  1  0
M  END
>  <NAME>  (6035) 
3,5-DIMETHYLBENZOIC ACID METHYL ESTER

>  <SYNONYMS>  (6035) 


>  <SPECTRUM TYPE>  (6035) 
MS1

>  <INSTRUMENT TYPE>  (6035) 
EI-B

>  <INSTRUMENT>  (6035) 
JEOL JMS-01-SG

>  <ION MODE>  (6035) 
P

>  <INCHIKEY>  (6035) 
PEVXENGLERTHJE-UHFFFAOYSA-N

>  <FORMULA>  (6035) 
C10H12O2

>  <EXACT MASS>  (6035) 
164.083729624

>  <MW>  (6035) 
164

>  <ID>  (6035) 
JP002201

>  <CONTRIBUTOR>  (6035) 
University of Tokyo Team, {Faculty of Engineering, University of Tokyo

>  <COMMENT>  (6035) 
SMILES=COC(=O)c(c1)cc(C)cc(C)1
InChI=InChI=1S/C10H12O2/c1-7-4-8(2)6-9(5-7)10(11)12-3/h4-6H,1-3H3
computed SMILES=O=C(OC)C=1C=C(C=C(C1)C)C
ionization energy=70 eV
accession=JP002201
date=2016.01.19 (Created 2008.10.21, modified 2011.05.06)
author=KOGA M, UNIV. OF OCCUPATIONAL AND ENVIRONMENTAL HEALTH
license=CC BY-NC-SA
exact mass=164.08373
ion type=[M]+*
computed spectral entropy=2.212759609997693
computed normalized entropy=0.6274910334752424
SPLASH=splash10-001i-1900000000-b340f946af909f620519
submitter=submitter = University of Tokyo Team (Faculty of Engineering, University of Tokyo)
MoNA Rating=3.75

>  <NUM PEAKS>  (6035) 
34

>  <MASS SPECTRAL PEAKS>  (6035) 
51 5.1
52 3
62 2.5
63 0.25
64 1
65 3
76 3
77 1.49
78 3
79 13.4
80 1.5
89 0.2
90 1
91 1
98 1
102 0.25
103 9.7
104 5.1
105 50
106 0.51
107 2.5
119 2
120 1
121 0.2
123 1
133 99.99
134 11.3
135 0.2
139 1
149 2
150 1
163 0.2
164 39.6
165 6.7

$$$$

     RDKit          2D

 11 11  0  0  0  0  0  0  0  0999 V2000
   -0.3325    2.4400    0.0000 C   0  0  0  0  0  0  0  0  0  0  0  0
    4.8670    0.9406    0.0000 C   0  0  0  0  0  0  0  0  0  0  0  0
   -1.6200   -1.3100    0.0000 C   0  0  0  0  0  0  0  0  0  0  0  0
   -0.3300   -2.0600    0.0000 C   0  0  0  0  0  0  0  0  0  0  0  0
   -1.6200    0.1900    0.0000 C   0  0  0  0  0  0  0  0  0  0  0  0
    0.9700   -1.3100    0.0000 C   0  0  0  0  0  0  0  0  0  0  0  0
   -0.3300    0.9400    0.0000 C   0  0  0  0  0  0  0  0  0  0  0  0
    0.9700    0.1900    0.0000 C   0  0  0  0  0  0  0  0  0  0  0  0
    2.2689    0.9402    0.0000 C   0  0  0  0  0  0  0  0  0  0  0  0
    2.2687    2.4402    0.0000 O   0  0  0  0  0  0  0  0  0  0  0  0
    3.5681    0.1904    0.0000 O   0  0  0  0  0  0  0  0  0  0  0  0
  4  3  2  0
  5  3  1  0
  6  4  1  0
  7  1  1  0
  7  5  2  0
  8  6  2  0
  8  7  1  0
  9  8  1  0
 10  9  2  0
 11  2  1  0
 11  9  1  0
M  END
>  <NAME>  (6036) 
2-METHYLBENZOIC ACID METHYL ESTER

>  <SYNONYMS>  (6036) 


>  <SPECTRUM TYPE>  (6036) 
MS1

>  <INSTRUMENT TYPE>  (6036) 
EI-B

>  <INSTRUMENT>  (6036) 
JEOL JMS-01-SG

>  <ION MODE>  (6036) 
P

>  <INCHIKEY>  (6036) 
WVWZECQNFWFVFW-UHFFFAOYSA-N

>  <FORMULA>  (6036) 
C9H10O2

>  <EXACT MASS>  (6036) 
150.06807956

>  <MW>  (6036) 
150

>  <ID>  (6036) 
JP002200

>  <CONTRIBUTOR>  (6036) 
University of Tokyo Team, {Faculty of Engineering, University of Tokyo

>  <COMMENT>  (6036) 
SMILES=COC(=O)c(c1)c(C)ccc1
InChI=InChI=1S/C9H10O2/c1-7-5-3-4-6-8(7)9(10)11-2/h3-6H,1-2H3
computed SMILES=O=C(OC)C=1C=CC=CC1C
accession=JP002200
date=2016.01.19 (Created 2008.10.21, modified 2011.05.06)
author=KOGA M, UNIV. OF OCCUPATIONAL AND ENVIRONMENTAL HEALTH
license=CC BY-NC-SA
exact mass=150.06808
ionization energy=70 eV
ion type=[M]+*
computed spectral entropy=2.5370720506507904
computed normalized entropy=0.6589544903483544
SPLASH=splash10-014i-6900000000-8aa8201a6c48c2865c69
submitter=submitter = University of Tokyo Team (Faculty of Engineering, University of Tokyo)
MoNA Rating=3.75

>  <NUM PEAKS>  (6036) 
47

>  <MASS SPECTRAL PEAKS>  (6036) 
45 5.5
50 3.1
51 9.4
53 0.39
59 8.6
60 1.5
62 3.9
63 0.78
64 2.3
65 29.9
66 3.1
68 0.07
69 1.5
73 0.7
74 3.9
76 0.07
77 11.8
78 0.7
79 3.9
80 0.15
86 0.7
87 2.3
89 10.2
90 2.51
91 88.9
92 1.5
97 0.7
105 0.78
106 3.1
107 3.1
110 0.7
112 0.07
115 0.7
118 75.5
119 99.99
120 0.94
121 3.9
122 2.3
123 2.3
133 0.39
135 7
136 3.9
137 0.7
149 0.07
150 50.3
151 6.2
152 1.5

$$$$

     RDKit          2D

 10 10  0  0  0  0  0  0  0  0999 V2000
   -3.5724    2.0075    0.0000 C   0  0  0  0  0  0  0  0  0  0  0  0
    2.9228   -0.2425    0.0000 C   0  0  0  0  0  0  0  0  0  0  0  0
    2.9233    1.2583    0.0000 C   0  0  0  0  0  0  0  0  0  0  0  0
    1.6233   -0.9933    0.0000 C   0  0  0  0  0  0  0  0  0  0  0  0
    1.6243    2.0083    0.0000 C   0  0  0  0  0  0  0  0  0  0  0  0
    0.3243   -0.2433    0.0000 C   0  0  0  0  0  0  0  0  0  0  0  0
    0.3248    1.2575    0.0000 C   0  0  0  0  0  0  0  0  0  0  0  0
   -0.9743    2.0075    0.0000 C   0  0  0  0  0  0  0  0  0  0  0  0
   -0.9743    3.5075    0.0000 O   0  0  0  0  0  0  0  0  0  0  0  0
   -2.2733    1.2575    0.0000 O   0  0  0  0  0  0  0  0  0  0  0  0
  3  2  2  0
  4  2  1  0
  5  3  1  0
  6  4  2  0
  7  5  2  0
  7  6  1  0
  8  7  1  0
  9  8  2  0
 10  1  1  0
 10  8  1  0
M  END
>  <NAME>  (6037) 
BENZOIC ACID METHYL ESTER

>  <SYNONYMS>  (6037) 


>  <SPECTRUM TYPE>  (6037) 
MS1

>  <INSTRUMENT TYPE>  (6037) 
EI-B

>  <INSTRUMENT>  (6037) 
JEOL JMS-01-SG

>  <ION MODE>  (6037) 
P

>  <INCHIKEY>  (6037) 
QPJVMBTYPHYUOC-UHFFFAOYSA-N

>  <FORMULA>  (6037) 
C8H8O2

>  <EXACT MASS>  (6037) 
136.052429496

>  <MW>  (6037) 
136

>  <ID>  (6037) 
JP002199

>  <CONTRIBUTOR>  (6037) 
University of Tokyo Team, {Faculty of Engineering, University of Tokyo

>  <COMMENT>  (6037) 
SMILES=COC(=O)c(c1)cccc1
InChI=InChI=1S/C8H8O2/c1-10-8(9)7-5-3-2-4-6-7/h2-6H,1H3
computed SMILES=O=C(OC)C=1C=CC=CC1
accession=JP002199
date=2016.01.19 (Created 2008.10.21, modified 2011.05.06)
author=KOGA M, UNIV. OF OCCUPATIONAL AND ENVIRONMENTAL HEALTH
license=CC BY-NC-SA
exact mass=136.05243
ionization energy=70 eV
ion type=[M]+*
computed spectral entropy=1.8963630456936433
computed normalized entropy=0.6048051487576063
SPLASH=splash10-0a6r-6900000000-e50a4550fe1c8b263d81
submitter=submitter = University of Tokyo Team (Faculty of Engineering, University of Tokyo)
MoNA Rating=3.75

>  <NUM PEAKS>  (6037) 
23

>  <MASS SPECTRAL PEAKS>  (6037) 
45 10.5
49 1.2
50 7.2
51 2.03
53 1.6
58 0.8
59 5
60 0.16
73 1.6
74 5
75 1.6
76 0.25
77 54.2
78 5
91 0.8
92 0.46
105 99.99
106 6.3
107 1.2
131 0.16
135 2.9
136 31.3
137 2.1

$$$$

     RDKit          2D

 12 12  0  0  0  0  0  0  0  0999 V2000
   -2.5989   -1.5002    0.0000 C   0  0  0  0  0  0  0  0  0  0  0  0
   -0.0000   -3.0000    0.0000 C   0  0  0  0  0  0  0  0  0  0  0  0
    3.8976    3.7504    0.0000 C   0  0  0  0  0  0  0  0  0  0  0  0
   -1.3000    0.7500    0.0000 C   0  0  0  0  0  0  0  0  0  0  0  0
    0.0000    1.5000    0.0000 C   0  0  0  0  0  0  0  0  0  0  0  0
    1.3000   -0.7500    0.0000 C   0  0  0  0  0  0  0  0  0  0  0  0
   -1.3000   -0.7500    0.0000 C   0  0  0  0  0  0  0  0  0  0  0  0
   -0.0000   -1.5000    0.0000 C   0  0  0  0  0  0  0  0  0  0  0  0
    1.3000    0.7500    0.0000 C   0  0  0  0  0  0  0  0  0  0  0  0
    2.5989    1.5002    0.0000 C   0  0  0  0  0  0  0  0  0  0  0  0
    3.8981    0.7504    0.0000 O   0  0  0  0  0  0  0  0  0  0  0  0
    2.5987    3.0002    0.0000 O   0  0  0  0  0  0  0  0  0  0  0  0
  5  4  2  0
  7  1  1  0
  7  4  1  0
  8  2  1  0
  8  6  1  0
  8  7  2  0
  9  5  1  0
  9  6  2  0
 10  9  1  0
 11 10  2  0
 12  3  1  0
 12 10  1  0
M  END
>  <NAME>  (6038) 
3,4-DIMETHYLBENZOIC ACID METHYL ESTER

>  <SYNONYMS>  (6038) 


>  <SPECTRUM TYPE>  (6038) 
MS1

>  <INSTRUMENT TYPE>  (6038) 
EI-B

>  <INSTRUMENT>  (6038) 
JEOL JMS-01-SG

>  <ION MODE>  (6038) 
P

>  <INCHIKEY>  (6038) 
PTSSKYUSCIALKU-UHFFFAOYSA-N

>  <FORMULA>  (6038) 
C10H12O2

>  <EXACT MASS>  (6038) 
164.083729624

>  <MW>  (6038) 
164

>  <ID>  (6038) 
JP002198

>  <CONTRIBUTOR>  (6038) 
University of Tokyo Team, {Faculty of Engineering, University of Tokyo

>  <COMMENT>  (6038) 
SMILES=COC(=O)c(c1)cc(C)c(C)c1
InChI=InChI=1S/C10H12O2/c1-7-4-5-9(6-8(7)2)10(11)12-3/h4-6H,1-3H3
computed SMILES=O=C(OC)C1=CC=C(C(=C1)C)C
accession=JP002198
date=2016.01.19 (Created 2008.10.21, modified 2011.05.06)
author=KOGA M, UNIV. OF OCCUPATIONAL AND ENVIRONMENTAL HEALTH
license=CC BY-NC-SA
exact mass=164.08373
ionization energy=70 eV
ion type=[M]+*
computed spectral entropy=2.2368205774701275
computed normalized entropy=0.6063685748732087
SPLASH=splash10-001i-2900000000-d222e838dbdc3d456eb1
submitter=submitter = University of Tokyo Team (Faculty of Engineering, University of Tokyo)
MoNA Rating=3.75

>  <NUM PEAKS>  (6038) 
40

>  <MASS SPECTRAL PEAKS>  (6038) 
44 3.2
45 1.3
51 6.8
52 0.13
53 1.8
59 1.8
62 1.8
63 0.22
64 1.8
65 3.2
66 2.7
68 0.13
75 0.9
77 11
78 3.2
79 1.19
82 0.9
89 2.2
91 1.3
92 0.18
98 1.3
102 1.8
103 6.8
104 0.18
105 35.3
106 3.2
107 0.9
120 0.13
123 0.9
125 0.9
133 99.99
134 0.91
135 2.2
139 0.9
149 0.9
157 0.09
163 1.8
164 29.8
165 3.2
181 0.9

$$$$

     RDKit          2D

 12 12  0  0  0  0  0  0  0  0999 V2000
   -2.5989   -1.5002    0.0000 C   0  0  0  0  0  0  0  0  0  0  0  0
    2.5989    1.5002    0.0000 C   0  0  0  0  0  0  0  0  0  0  0  0
    5.1970   -1.5006    0.0000 C   0  0  0  0  0  0  0  0  0  0  0  0
   -1.3000    0.7500    0.0000 C   0  0  0  0  0  0  0  0  0  0  0  0
    0.0000    1.5000    0.0000 C   0  0  0  0  0  0  0  0  0  0  0  0
   -0.0000   -1.5000    0.0000 C   0  0  0  0  0  0  0  0  0  0  0  0
   -1.3000   -0.7500    0.0000 C   0  0  0  0  0  0  0  0  0  0  0  0
    1.3000    0.7500    0.0000 C   0  0  0  0  0  0  0  0  0  0  0  0
    1.3000   -0.7500    0.0000 C   0  0  0  0  0  0  0  0  0  0  0  0
    2.5989   -1.5002    0.0000 C   0  0  0  0  0  0  0  0  0  0  0  0
    2.5987   -3.0002    0.0000 O   0  0  0  0  0  0  0  0  0  0  0  0
    3.8981   -0.7504    0.0000 O   0  0  0  0  0  0  0  0  0  0  0  0
  5  4  2  0
  7  1  1  0
  7  4  1  0
  7  6  2  0
  8  2  1  0
  8  5  1  0
  9  6  1  0
  9  8  2  0
 10  9  1  0
 11 10  2  0
 12  3  1  0
 12 10  1  0
M  END
>  <NAME>  (6039) 
2,5-DIMETHYLBENZOIC ACID METHYL ESTER

>  <SYNONYMS>  (6039) 


>  <SPECTRUM TYPE>  (6039) 
MS1

>  <INSTRUMENT TYPE>  (6039) 
EI-B

>  <INSTRUMENT>  (6039) 
JEOL JMS-01-SG

>  <ION MODE>  (6039) 
P

>  <INCHIKEY>  (6039) 
YILVOENZHZWHHK-UHFFFAOYSA-N

>  <FORMULA>  (6039) 
C10H12O2

>  <EXACT MASS>  (6039) 
164.083729624

>  <MW>  (6039) 
164

>  <ID>  (6039) 
JP002197

>  <CONTRIBUTOR>  (6039) 
University of Tokyo Team, {Faculty of Engineering, University of Tokyo

>  <COMMENT>  (6039) 
SMILES=COC(=O)c(c1)c(C)ccc(C)1
InChI=InChI=1S/C10H12O2/c1-7-4-5-8(2)9(6-7)10(11)12-3/h4-6H,1-3H3
computed SMILES=O=C(OC)C1=CC(=CC=C1C)C
accession=JP002197
date=2016.01.19 (Created 2008.10.21, modified 2011.05.06)
author=KOGA M, UNIV. OF OCCUPATIONAL AND ENVIRONMENTAL HEALTH
license=CC BY-NC-SA
exact mass=164.08373
ionization energy=70 eV
ion type=[M]+*
computed spectral entropy=2.739441087543622
computed normalized entropy=0.7239174968901133
SPLASH=splash10-001i-2900000000-3b368cce71f0f903d7fe
submitter=submitter = University of Tokyo Team (Faculty of Engineering, University of Tokyo)
MoNA Rating=3.75

>  <NUM PEAKS>  (6039) 
44

>  <MASS SPECTRAL PEAKS>  (6039) 
45 11.2
50 2.8
51 18.6
52 0.28
53 7.4
54 1.8
55 1.8
59 1.02
62 3.7
63 5.6
65 7.4
71 0.18
73 1.8
74 2.8
75 5.6
77 2.99
78 12.1
79 21.4
80 2.8
89 0.18
91 9.3
92 2.8
93 4.6
102 0.56
103 22.4
104 44.8
105 80.3
106 0.74
110 2.8
116 1.8
117 1.8
119 0.28
120 2.8
132 99.99
133 85.9
134 1.02
135 1.8
147 2.8
149 8.4
150 0.18
157 1.8
163 3.7
164 56
165 5.6

$$$$

     RDKit          2D

 12 12  0  0  0  0  0  0  0  0999 V2000
   -2.5989   -1.5002    0.0000 C   0  0  0  0  0  0  0  0  0  0  0  0
    2.5989   -1.5002    0.0000 C   0  0  0  0  0  0  0  0  0  0  0  0
    3.8976    3.7504    0.0000 C   0  0  0  0  0  0  0  0  0  0  0  0
   -1.3000    0.7500    0.0000 C   0  0  0  0  0  0  0  0  0  0  0  0
   -0.0000    1.5000    0.0000 C   0  0  0  0  0  0  0  0  0  0  0  0
   -0.0000   -1.5000    0.0000 C   0  0  0  0  0  0  0  0  0  0  0  0
   -1.3000   -0.7500    0.0000 C   0  0  0  0  0  0  0  0  0  0  0  0
    1.3000   -0.7500    0.0000 C   0  0  0  0  0  0  0  0  0  0  0  0
    1.3000    0.7500    0.0000 C   0  0  0  0  0  0  0  0  0  0  0  0
    2.5989    1.5002    0.0000 C   0  0  0  0  0  0  0  0  0  0  0  0
    3.8981    0.7504    0.0000 O   0  0  0  0  0  0  0  0  0  0  0  0
    2.5987    3.0002    0.0000 O   0  0  0  0  0  0  0  0  0  0  0  0
  5  4  2  0
  7  1  1  0
  7  4  1  0
  7  6  2  0
  8  2  1  0
  8  6  1  0
  9  5  1  0
  9  8  2  0
 10  9  1  0
 11 10  2  0
 12  3  1  0
 12 10  1  0
M  END
>  <NAME>  (6040) 
2,4-DIMETHYLBENZOIC ACID METHYL ESTER

>  <SYNONYMS>  (6040) 


>  <SPECTRUM TYPE>  (6040) 
MS1

>  <INSTRUMENT TYPE>  (6040) 
EI-B

>  <INSTRUMENT>  (6040) 
JEOL JMS-01-SG

>  <ION MODE>  (6040) 
P

>  <INCHIKEY>  (6040) 
QQCLNRPRQRDMCK-UHFFFAOYSA-N

>  <FORMULA>  (6040) 
C10H12O2

>  <EXACT MASS>  (6040) 
164.083729624

>  <MW>  (6040) 
164

>  <ID>  (6040) 
JP002196

>  <CONTRIBUTOR>  (6040) 
University of Tokyo Team, {Faculty of Engineering, University of Tokyo

>  <COMMENT>  (6040) 
computed SMILES=O=C(OC)C1=CC=C(C=C1C)C
SMILES=COC(=O)c(c1)c(C)cc(C)c1
InChI=InChI=1S/C10H12O2/c1-7-4-5-9(8(2)6-7)10(11)12-3/h4-6H,1-3H3
computed spectral entropy=2.549665324590361
computed normalized entropy=0.6911761027449423
ionization energy=70 eV
ion type=[M]+*
accession=JP002196
date=2016.01.19 (Created 2008.10.21, modified 2011.05.06)
author=KOGA M, UNIV. OF OCCUPATIONAL AND ENVIRONMENTAL HEALTH
license=CC BY-NC-SA
exact mass=164.08373
SPLASH=splash10-001i-2900000000-690f2da82fd946ce62b5
submitter=submitter = University of Tokyo Team (Faculty of Engineering, University of Tokyo)
MoNA Rating=3.75

>  <NUM PEAKS>  (6040) 
40

>  <MASS SPECTRAL PEAKS>  (6040) 
42 1.8
45 4.3
50 1.8
51 0.75
52 4.3
53 5.6
59 1.2
60 0.12
62 2.5
63 4.3
65 4.3
66 0.12
74 5
75 1.2
77 21.8
78 0.75
79 15.6
80 2.5
89 4.3
91 0.56
93 1.2
102 2.5
103 11.2
104 1.75
105 57.5
106 6.8
119 2.5
120 0.31
123 1.2
132 58.7
133 99.99
134 1
135 3.1
137 1.2
140 1.8
147 0.18
149 3.7
163 3.7
164 46.8
165 5

$$$$

     RDKit          2D

 11 11  0  0  0  0  0  0  0  0999 V2000
   -2.6023   -0.0091    0.0000 C   0  0  0  0  0  0  0  0  0  0  0  0
    5.1938   -0.0067    0.0000 C   0  0  0  0  0  0  0  0  0  0  0  0
    0.0016   -2.9991    0.0000 C   0  0  0  0  0  0  0  0  0  0  0  0
   -1.2974   -2.2491    0.0000 C   0  0  0  0  0  0  0  0  0  0  0  0
    1.2961   -2.2569    0.0000 C   0  0  0  0  0  0  0  0  0  0  0  0
   -0.0024   -0.0061    0.0000 C   0  0  0  0  0  0  0  0  0  0  0  0
   -1.3020   -0.7569    0.0000 C   0  0  0  0  0  0  0  0  0  0  0  0
    1.2966   -0.7561    0.0000 C   0  0  0  0  0  0  0  0  0  0  0  0
    2.5958   -0.0063    0.0000 C   0  0  0  0  0  0  0  0  0  0  0  0
    2.5960    1.4937    0.0000 O   0  0  0  0  0  0  0  0  0  0  0  0
    3.8947   -0.7565    0.0000 O   0  0  0  0  0  0  0  0  0  0  0  0
  4  3  2  0
  5  3  1  0
  7  1  1  0
  7  4  1  0
  7  6  2  0
  8  5  2  0
  8  6  1  0
  9  8  1  0
 10  9  2  0
 11  2  1  0
 11  9  1  0
M  END
>  <NAME>  (6041) 
3-METHYLBENZOIC ACID METHYL ESTER

>  <SYNONYMS>  (6041) 


>  <SPECTRUM TYPE>  (6041) 
MS1

>  <INSTRUMENT TYPE>  (6041) 
EI-B

>  <INSTRUMENT>  (6041) 
JEOL JMS-01-SG

>  <ION MODE>  (6041) 
P

>  <INCHIKEY>  (6041) 
CPXCDEMFNPKOEF-UHFFFAOYSA-N

>  <FORMULA>  (6041) 
C9H10O2

>  <EXACT MASS>  (6041) 
150.06807956

>  <MW>  (6041) 
150

>  <ID>  (6041) 
JP002195

>  <CONTRIBUTOR>  (6041) 
University of Tokyo Team, {Faculty of Engineering, University of Tokyo

>  <COMMENT>  (6041) 
SMILES=COC(=O)c(c1)cc(C)cc1
InChI=InChI=1S/C9H10O2/c1-7-4-3-5-8(6-7)9(10)11-2/h3-6H,1-2H3
computed SMILES=O=C(OC)C1=CC=CC(=C1)C
computed spectral entropy=1.8505866310379149
accession=JP002195
date=2016.01.19 (Created 2008.10.21, modified 2011.05.06)
author=KOGA M, UNIV. OF OCCUPATIONAL AND ENVIRONMENTAL HEALTH
license=CC BY-NC-SA
exact mass=150.06808
ionization energy=70 eV
ion type=[M]+*
computed normalized entropy=0.5749170616464176
SPLASH=splash10-014l-5900000000-49d98d581fea2767e5bd
submitter=submitter = University of Tokyo Team (Faculty of Engineering, University of Tokyo)
MoNA Rating=3.75

>  <NUM PEAKS>  (6041) 
25

>  <MASS SPECTRAL PEAKS>  (6041) 
45 2.1
50 1.7
51 3.5
53 0.14
59 2.5
62 2.8
63 5
65 1.54
66 1
74 2.5
89 4.6
90 0.39
91 57.9
92 3.5
106 1.4
110 0.14
118 1.4
119 99.99
120 8.2
133 0.14
135 2.1
149 1
150 34.5
151 0.25
152 1.7

$$$$

     RDKit          2D

 11 11  0  0  0  0  0  0  0  0999 V2000
   -2.5989   -1.5002    0.0000 C   0  0  0  0  0  0  0  0  0  0  0  0
    5.1970    1.5006    0.0000 C   0  0  0  0  0  0  0  0  0  0  0  0
   -1.3000    0.7500    0.0000 C   0  0  0  0  0  0  0  0  0  0  0  0
   -0.0000   -1.5000    0.0000 C   0  0  0  0  0  0  0  0  0  0  0  0
    0.0000    1.5000    0.0000 C   0  0  0  0  0  0  0  0  0  0  0  0
    1.3000   -0.7500    0.0000 C   0  0  0  0  0  0  0  0  0  0  0  0
   -1.3000   -0.7500    0.0000 C   0  0  0  0  0  0  0  0  0  0  0  0
    1.3000    0.7500    0.0000 C   0  0  0  0  0  0  0  0  0  0  0  0
    2.5989    1.5002    0.0000 C   0  0  0  0  0  0  0  0  0  0  0  0
    2.5987    3.0002    0.0000 O   0  0  0  0  0  0  0  0  0  0  0  0
    3.8981    0.7504    0.0000 O   0  0  0  0  0  0  0  0  0  0  0  0
  5  3  2  0
  6  4  1  0
  7  1  1  0
  7  3  1  0
  7  4  2  0
  8  5  1  0
  8  6  2  0
  9  8  1  0
 10  9  2  0
 11  2  1  0
 11  9  1  0
M  END
>  <NAME>  (6042) 
4-METHYLBENZOIC ACID METHYL ESTER

>  <SYNONYMS>  (6042) 


>  <SPECTRUM TYPE>  (6042) 
MS1

>  <INSTRUMENT TYPE>  (6042) 
EI-B

>  <INSTRUMENT>  (6042) 
JEOL JMS-01-SG

>  <ION MODE>  (6042) 
P

>  <INCHIKEY>  (6042) 
QSSJZLPUHJDYKF-UHFFFAOYSA-N

>  <FORMULA>  (6042) 
C9H10O2

>  <EXACT MASS>  (6042) 
150.06807956

>  <MW>  (6042) 
150

>  <ID>  (6042) 
JP002194

>  <CONTRIBUTOR>  (6042) 
University of Tokyo Team, {Faculty of Engineering, University of Tokyo

>  <COMMENT>  (6042) 
SMILES=COC(=O)c(c1)ccc(C)c1
InChI=InChI=1S/C9H10O2/c1-7-3-5-8(6-4-7)9(10)11-2/h3-6H,1-2H3
computed SMILES=O=C(OC)C1=CC=C(C=C1)C
accession=JP002194
date=2016.01.19 (Created 2008.10.21, modified 2011.05.06)
author=KOGA M, UNIV. OF OCCUPATIONAL AND ENVIRONMENTAL HEALTH
license=CC BY-NC-SA
exact mass=150.06808
ionization energy=70 eV
ion type=[M]+*
computed spectral entropy=1.9271937307626892
computed normalized entropy=0.5847357770165066
SPLASH=splash10-014i-5900000000-9a63e568df5efb37c37f
submitter=submitter = University of Tokyo Team (Faculty of Engineering, University of Tokyo)
MoNA Rating=3.75

>  <NUM PEAKS>  (6042) 
27

>  <MASS SPECTRAL PEAKS>  (6042) 
44 1.6
45 2.2
50 0.9
51 0.29
53 1.6
59 4.5
61 1.3
62 0.09
63 4.5
65 15.7
74 2.2
89 0.39
90 3.6
91 41.6
92 2.2
106 0.16
107 0.6
110 0.9
118 0.9
119 99.99
120 8.8
133 1.3
135 0.9
149 0.13
150 30.1
151 2.6
152 0.6

$$$$

     RDKit          2D

 14 13  0  0  0  0  0  0  0  0999 V2000
    3.8971    6.7500    0.0000 C   0  0  0  0  0  0  0  0  0  0  0  0
  -11.6913    6.7500    0.0000 C   0  0  0  0  0  0  0  0  0  0  0  0
    2.5981    7.5000    0.0000 C   0  0  0  0  0  0  0  0  0  0  0  0
    1.2990    6.7500    0.0000 C   0  0  0  0  0  0  0  0  0  0  0  0
    0.0000    7.5000    0.0000 C   0  0  0  0  0  0  0  0  0  0  0  0
   -1.2990    6.7500    0.0000 C   0  0  0  0  0  0  0  0  0  0  0  0
   -2.5981    7.5000    0.0000 C   0  0  0  0  0  0  0  0  0  0  0  0
   -3.8971    6.7500    0.0000 C   0  0  0  0  0  0  0  0  0  0  0  0
   -5.1962    7.5000    0.0000 C   0  0  0  0  0  0  0  0  0  0  0  0
   -6.4952    6.7500    0.0000 C   0  0  0  0  0  0  0  0  0  0  0  0
   -7.7942    7.5000    0.0000 C   0  0  0  0  0  0  0  0  0  0  0  0
   -9.0933    6.7500    0.0000 C   0  0  0  0  0  0  0  0  0  0  0  0
   -9.0933    5.2500    0.0000 O   0  0  0  0  0  0  0  0  0  0  0  0
  -10.3923    7.5000    0.0000 O   0  0  0  0  0  0  0  0  0  0  0  0
  3  1  2  0
  4  3  1  0
  5  4  1  0
  6  5  1  0
  7  6  1  0
  8  7  1  0
  9  8  1  0
 10  9  1  0
 11 10  1  0
 12 11  1  0
 13 12  2  0
 14  2  1  0
 14 12  1  0
M  END
>  <NAME>  (6043) 
10-UNDECENOIC ACID METHYL ESTER

>  <SYNONYMS>  (6043) 


>  <SPECTRUM TYPE>  (6043) 
MS1

>  <INSTRUMENT TYPE>  (6043) 
EI-B

>  <INSTRUMENT>  (6043) 
JEOL JMS-01-SG

>  <ION MODE>  (6043) 
P

>  <INCHIKEY>  (6043) 
KISVAASFGZJBCY-UHFFFAOYSA-N

>  <FORMULA>  (6043) 
C12H22O2

>  <EXACT MASS>  (6043) 
198.161979944

>  <MW>  (6043) 
198

>  <ID>  (6043) 
JP002193

>  <CONTRIBUTOR>  (6043) 
University of Tokyo Team, {Faculty of Engineering, University of Tokyo

>  <COMMENT>  (6043) 
SMILES=C=CCCCCCCCCC(=O)OC
InChI=InChI=1S/C12H22O2/c1-3-4-5-6-7-8-9-10-11-12(13)14-2/h3H,1,4-11H2,2H3
computed SMILES=O=C(OC)CCCCCCCCC=C
accession=JP002193
date=2016.01.19 (Created 2008.10.21, modified 2011.05.06)
author=KOGA M, UNIV. OF OCCUPATIONAL AND ENVIRONMENTAL HEALTH
license=CC BY-NC-SA
exact mass=198.16198
ionization energy=70 eV
ion type=[M]+*
computed spectral entropy=3.588935388577668
computed normalized entropy=0.812189374345242
SPLASH=splash10-00m0-9200000000-050afee53e08a93ecb26
submitter=submitter = University of Tokyo Team (Faculty of Engineering, University of Tokyo)
MoNA Rating=3.75

>  <NUM PEAKS>  (6043) 
83

>  <MASS SPECTRAL PEAKS>  (6043) 
42 3
47 1
50 1.3
51 0.2
52 2.6
53 12
54 24
55 5.93
56 20
57 15
58 1
59 2.43
65 3.6
66 1.6
67 49.3
68 3.36
69 69.3
70 10.6
71 5.6
72 0.33
73 13.3
74 42
75 18.3
77 0.23
78 1.6
79 10
80 7.3
81 3.3
82 57
83 72
84 56
85 1.23
86 2
87 99.99
88 10
91 0.3
93 6.6
94 9.3
95 16.6
96 6.86
97 34.6
98 35.3
99 6
100 0.2
101 13.3
102 2
106 1.3
107 0.6
108 2.3
109 11
110 15.6
111 1.16
112 1.6
113 5.6
114 9.6
115 0.86
116 1
118 1.6
119 8
120 0.1
121 1.6
122 11.6
123 20.3
124 5.36
125 13.3
127 2.6
128 4.3
129 0.16
133 2
137 14.6
138 7.6
139 0.1
141 2.6
143 1
148 8
149 1.76
150 2
151 1.6
154 1
155 0.3
166 16.3
167 5.6
198 1.3

$$$$

     RDKit          2D

 27 26  0  0  0  0  0  0  0  0999 V2000
    8.4437   13.8750    0.0000 C   0  0  0  0  0  0  0  0  0  0  0  0
  -24.0322   14.6250    0.0000 C   0  0  0  0  0  0  0  0  0  0  0  0
    7.1447   14.6250    0.0000 C   0  0  0  0  0  0  0  0  0  0  0  0
    5.8457   13.8750    0.0000 C   0  0  0  0  0  0  0  0  0  0  0  0
    4.5466   14.6250    0.0000 C   0  0  0  0  0  0  0  0  0  0  0  0
    3.2476   13.8750    0.0000 C   0  0  0  0  0  0  0  0  0  0  0  0
    1.9486   14.6250    0.0000 C   0  0  0  0  0  0  0  0  0  0  0  0
    0.6495   13.8750    0.0000 C   0  0  0  0  0  0  0  0  0  0  0  0
   -0.6495   14.6250    0.0000 C   0  0  0  0  0  0  0  0  0  0  0  0
   -1.9486   13.8750    0.0000 C   0  0  0  0  0  0  0  0  0  0  0  0
   -3.2476   14.6250    0.0000 C   0  0  0  0  0  0  0  0  0  0  0  0
   -4.5466   13.8750    0.0000 C   0  0  0  0  0  0  0  0  0  0  0  0
   -5.8457   14.6250    0.0000 C   0  0  0  0  0  0  0  0  0  0  0  0
   -7.1447   13.8750    0.0000 C   0  0  0  0  0  0  0  0  0  0  0  0
   -8.4437   14.6250    0.0000 C   0  0  0  0  0  0  0  0  0  0  0  0
   -9.7428   13.8750    0.0000 C   0  0  0  0  0  0  0  0  0  0  0  0
  -11.0418   14.6250    0.0000 C   0  0  0  0  0  0  0  0  0  0  0  0
  -12.3409   13.8750    0.0000 C   0  0  0  0  0  0  0  0  0  0  0  0
  -13.6399   14.6250    0.0000 C   0  0  0  0  0  0  0  0  0  0  0  0
  -14.9389   13.8750    0.0000 C   0  0  0  0  0  0  0  0  0  0  0  0
  -16.2380   14.6250    0.0000 C   0  0  0  0  0  0  0  0  0  0  0  0
  -17.5370   13.8750    0.0000 C   0  0  0  0  0  0  0  0  0  0  0  0
  -18.8361   14.6250    0.0000 C   0  0  0  0  0  0  0  0  0  0  0  0
  -20.1351   13.8750    0.0000 C   0  0  0  0  0  0  0  0  0  0  0  0
  -21.4341   14.6250    0.0000 C   0  0  0  0  0  0  0  0  0  0  0  0
  -21.4341   16.1250    0.0000 O   0  0  0  0  0  0  0  0  0  0  0  0
  -22.7332   13.8750    0.0000 O   0  0  0  0  0  0  0  0  0  0  0  0
  3  1  1  0
  4  3  1  0
  5  4  1  0
  6  5  1  0
  7  6  1  0
  8  7  1  0
  9  8  1  0
 10  9  1  0
 10 11  2  0
 12 11  1  0
 13 12  1  0
 14 13  1  0
 15 14  1  0
 16 15  1  0
 17 16  1  0
 18 17  1  0
 19 18  1  0
 20 19  1  0
 21 20  1  0
 22 21  1  0
 23 22  1  0
 24 23  1  0
 25 24  1  0
 26 25  2  0
 27  2  1  0
 27 25  1  0
M  END
>  <NAME>  (6044) 
15-TETRACOSENOIC ACID METHYL ESTER

>  <SYNONYMS>  (6044) 


>  <SPECTRUM TYPE>  (6044) 
MS1

>  <INSTRUMENT TYPE>  (6044) 
EI-B

>  <INSTRUMENT>  (6044) 
JEOL JMS-01-SG

>  <ION MODE>  (6044) 
P

>  <INCHIKEY>  (6044) 
AINIZSBLAFHZCP-ZHACJKMWSA-N

>  <FORMULA>  (6044) 
C25H48O2

>  <EXACT MASS>  (6044) 
380.365430776

>  <MW>  (6044) 
380

>  <ID>  (6044) 
JP002192

>  <CONTRIBUTOR>  (6044) 
University of Tokyo Team, {Faculty of Engineering, University of Tokyo

>  <COMMENT>  (6044) 
SMILES=CCCCCCCCC=CCCCCCCCCCCCCCC(=O)OC
InChI=InChI=1S/C25H48O2/c1-3-4-5-6-7-8-9-10-11-12-13-14-15-16-17-18-19-20-21-22-23-24-25(26)27-2/h10-11H,3-9,12-24H2,1-2H3/b11-10+
computed SMILES=O=C(OC)CCCCCCCCCCCCCC=CCCCCCCCC
accession=JP002192
date=2016.01.19 (Created 2008.10.21, modified 2011.05.06)
author=KOGA M, UNIV. OF OCCUPATIONAL AND ENVIRONMENTAL HEALTH
license=CC BY-NC-SA
exact mass=380.36543
ionization energy=70 eV
ion type=[M]+*
computed spectral entropy=3.9217271185118787
computed normalized entropy=0.8280326851256178
SPLASH=splash10-0532-9301000000-f65d82ee77545b1c0e17
submitter=submitter = University of Tokyo Team (Faculty of Engineering, University of Tokyo)
MoNA Rating=3.75

>  <NUM PEAKS>  (6044) 
114

>  <MASS SPECTRAL PEAKS>  (6044) 
53 2
54 13.1
55 99.99
56 2.52
57 36.3
67 26.2
68 17.1
69 6.26
70 15.6
71 17.6
74 6.5
75 0.6
79 4.5
80 5.5
81 31.3
82 2.07
83 55
84 26.2
85 8.5
87 2.62
88 4.5
93 3.5
94 7
95 2.37
96 33.8
97 51.5
98 27.7
99 0.6
100 2.5
101 6
107 3
108 0.45
109 13.1
110 15.6
111 24.7
112 0.75
113 2.5
114 3.5
115 4
118 0.25
119 3.5
121 9.5
122 2.5
123 1.46
124 10.1
125 16.1
126 3
127 0.4
128 4
129 3.5
133 2
134 0.35
135 6.5
136 2.5
137 8
138 1.01
139 6.5
141 3.5
143 6
144 0.25
146 2
148 2
149 4
150 0.2
151 5.5
152 9.5
153 5
155 0.3
163 2.5
165 3.5
166 4.5
167 0.3
176 2.5
179 2.5
180 2.5
181 0.25
193 2.5
194 2
195 2.5
207 0.4
221 2
222 5.5
225 2
235 0.2
236 4.5
237 3
241 2.5
248 0.2
250 5.5
251 2.5
253 2
257 0.2
263 3.5
264 8
265 2.5
277 0.45
278 4
279 2
291 4
292 0.3
304 2
305 4
306 6
307 0.25
319 2.5
320 2.5
329 2.5
330 0.25
331 2.5
348 26.2
349 15.6
350 0.25
373 2.5
380 3.5

$$$$

     RDKit          2D

 25 24  0  0  0  0  0  0  0  0999 V2000
  -22.0836   13.5000    0.0000 C   0  0  0  0  0  0  0  0  0  0  0  0
    7.7942   12.7500    0.0000 C   0  0  0  0  0  0  0  0  0  0  0  0
  -20.7846   12.7500    0.0000 C   0  0  0  0  0  0  0  0  0  0  0  0
  -19.4856   13.5000    0.0000 C   0  0  0  0  0  0  0  0  0  0  0  0
  -18.1865   12.7500    0.0000 C   0  0  0  0  0  0  0  0  0  0  0  0
  -16.8875   13.5000    0.0000 C   0  0  0  0  0  0  0  0  0  0  0  0
  -15.5885   12.7500    0.0000 C   0  0  0  0  0  0  0  0  0  0  0  0
  -14.2894   13.5000    0.0000 C   0  0  0  0  0  0  0  0  0  0  0  0
  -12.9904   12.7500    0.0000 C   0  0  0  0  0  0  0  0  0  0  0  0
  -11.6913   13.5000    0.0000 C   0  0  0  0  0  0  0  0  0  0  0  0
  -10.3923   12.7500    0.0000 C   0  0  0  0  0  0  0  0  0  0  0  0
   -9.0933   13.5000    0.0000 C   0  0  0  0  0  0  0  0  0  0  0  0
   -7.7942   12.7500    0.0000 C   0  0  0  0  0  0  0  0  0  0  0  0
   -6.4952   13.5000    0.0000 C   0  0  0  0  0  0  0  0  0  0  0  0
   -5.1962   12.7500    0.0000 C   0  0  0  0  0  0  0  0  0  0  0  0
   -3.8971   13.5000    0.0000 C   0  0  0  0  0  0  0  0  0  0  0  0
   -2.5981   12.7500    0.0000 C   0  0  0  0  0  0  0  0  0  0  0  0
   -1.2990   13.5000    0.0000 C   0  0  0  0  0  0  0  0  0  0  0  0
    0.0000   12.7500    0.0000 C   0  0  0  0  0  0  0  0  0  0  0  0
    1.2990   13.5000    0.0000 C   0  0  0  0  0  0  0  0  0  0  0  0
    2.5981   12.7500    0.0000 C   0  0  0  0  0  0  0  0  0  0  0  0
    3.8971   13.5000    0.0000 C   0  0  0  0  0  0  0  0  0  0  0  0
    5.1962   12.7500    0.0000 C   0  0  0  0  0  0  0  0  0  0  0  0
    5.1962   11.2500    0.0000 O   0  0  0  0  0  0  0  0  0  0  0  0
    6.4952   13.5000    0.0000 O   0  0  0  0  0  0  0  0  0  0  0  0
  3  1  1  0
  4  3  1  0
  5  4  1  0
  6  5  1  0
  7  6  1  0
  8  7  1  0
  9  8  1  0
 10  9  1  0
 10 11  2  0
 12 11  1  0
 13 12  1  0
 14 13  1  0
 15 14  1  0
 16 15  1  0
 17 16  1  0
 18 17  1  0
 19 18  1  0
 20 19  1  0
 21 20  1  0
 22 21  1  0
 23 22  1  0
 24 23  2  0
 25  2  1  0
 25 23  1  0
M  END
>  <NAME>  (6045) 
13-DOCOSENOIC ACID METHYL ESTER

>  <SYNONYMS>  (6045) 
ERUCIC ACID METHYL ESTER

>  <SPECTRUM TYPE>  (6045) 
MS1

>  <INSTRUMENT TYPE>  (6045) 
EI-B

>  <INSTRUMENT>  (6045) 
JEOL JMS-01-SG

>  <ION MODE>  (6045) 
P

>  <INCHIKEY>  (6045) 
ZYNDJIBBPLNPOW-ZHACJKMWSA-N

>  <FORMULA>  (6045) 
C23H44O2

>  <EXACT MASS>  (6045) 
352.334130648

>  <MW>  (6045) 
352

>  <ID>  (6045) 
JP002191

>  <CONTRIBUTOR>  (6045) 
University of Tokyo Team, {Faculty of Engineering, University of Tokyo

>  <COMMENT>  (6045) 
SMILES=CCCCCCCCC=CCCCCCCCCCCCC(=O)OC
InChI=InChI=1S/C23H44O2/c1-3-4-5-6-7-8-9-10-11-12-13-14-15-16-17-18-19-20-21-22-23(24)25-2/h10-11H,3-9,12-22H2,1-2H3/b11-10+
computed SMILES=O=C(OC)CCCCCCCCCCCC=CCCCCCCCC
accession=JP002191
date=2016.01.19 (Created 2008.10.21, modified 2011.05.06)
author=KOGA M, UNIV. OF OCCUPATIONAL AND ENVIRONMENTAL HEALTH
license=CC BY-NC-SA
exact mass=352.33413
ionization energy=70 eV
ion type=[M]+*
computed spectral entropy=3.9691691353489533
computed normalized entropy=0.7932077789549757
SPLASH=splash10-0a4i-9200000000-ddeeb656e43675e3860f
submitter=submitter = University of Tokyo Team (Faculty of Engineering, University of Tokyo)
MoNA Rating=3.75

>  <NUM PEAKS>  (6045) 
149

>  <MASS SPECTRAL PEAKS>  (6045) 
42 12.4
43 2.9
45 9.5
46 0.08
53 3.7
54 14.5
55 99.99
56 3.73
57 65.9
58 4.9
59 15.3
60 0.16
61 0.8
62 0.8
66 0.8
67 2.44
68 14.9
69 56.8
70 16.5
71 1.61
73 2.9
74 39
75 7.4
76 0.08
77 2.9
79 5.3
80 3.7
81 2.86
82 20.3
83 53.1
84 27.8
85 0.91
86 6.2
87 27.3
88 2.9
89 0.08
91 1.2
92 1.6
93 3.3
94 0.58
95 21.1
96 31.1
97 45.2
98 2.73
99 4.5
100 2.4
101 5.8
106 0.08
107 4.5
108 3.7
109 14.1
110 1.7
111 24
112 7.8
113 2.9
114 0.33
115 4.5
118 0.8
119 1.6
120 0.2
121 8.2
122 2.9
123 12.8
124 1.12
125 13.2
126 1.2
127 2.9
128 0.2
129 5.3
133 3.3
134 4.1
135 0.58
136 1.6
137 7
138 8.7
139 0.78
140 1.6
141 5.3
143 5.3
144 0.08
146 0.8
147 1.6
148 2.4
149 0.49
150 1.2
151 4.5
152 8.2
153 0.53
155 0.8
161 1.2
162 2
163 0.24
164 1.2
165 2.4
166 4.5
167 0.2
169 2
171 1.2
172 0.8
173 0.16
177 1.2
179 2.4
180 2
181 0.12
182 0.8
183 0.8
185 0.8
191 0.12
193 2.4
194 2.9
195 0.8
196 0.16
200 1.6
204 1.6
206 1.6
208 0.24
217 1.6
220 2
221 2
222 0.58
224 1.6
225 2
227 1.2
232 0.12
235 2.4
236 6.6
237 2.4
238 0.12
239 2
241 1.2
249 1.6
250 0.33
255 1.2
256 1.6
263 2
264 0.37
270 1.2
277 2.4
278 7.4
279 0.2
291 2.9
292 2
302 2.4
320 2.28
321 13.2
322 3.7
352 3.3
353 0.08
354 1.2

$$$$

     RDKit          2D

 23 22  0  0  0  0  0  0  0  0999 V2000
    8.1190    9.9375    0.0000 C   0  0  0  0  0  0  0  0  0  0  0  0
  -15.2637   17.4375    0.0000 C   0  0  0  0  0  0  0  0  0  0  0  0
    6.8200   10.6875    0.0000 C   0  0  0  0  0  0  0  0  0  0  0  0
    5.5209    9.9375    0.0000 C   0  0  0  0  0  0  0  0  0  0  0  0
    4.2219   10.6875    0.0000 C   0  0  0  0  0  0  0  0  0  0  0  0
    2.9228    9.9375    0.0000 C   0  0  0  0  0  0  0  0  0  0  0  0
    1.6238   10.6875    0.0000 C   0  0  0  0  0  0  0  0  0  0  0  0
    0.3248    9.9375    0.0000 C   0  0  0  0  0  0  0  0  0  0  0  0
   -0.9743   10.6875    0.0000 C   0  0  0  0  0  0  0  0  0  0  0  0
   -2.2733    9.9375    0.0000 C   0  0  0  0  0  0  0  0  0  0  0  0
   -3.5724   10.6875    0.0000 C   0  0  0  0  0  0  0  0  0  0  0  0
   -4.8714    9.9375    0.0000 C   0  0  0  0  0  0  0  0  0  0  0  0
   -6.1704   10.6875    0.0000 C   0  0  0  0  0  0  0  0  0  0  0  0
   -7.4695    9.9375    0.0000 C   0  0  0  0  0  0  0  0  0  0  0  0
   -8.7685   10.6875    0.0000 C   0  0  0  0  0  0  0  0  0  0  0  0
  -10.0675    9.9375    0.0000 C   0  0  0  0  0  0  0  0  0  0  0  0
  -11.3666   10.6875    0.0000 C   0  0  0  0  0  0  0  0  0  0  0  0
  -11.3666   12.1875    0.0000 C   0  0  0  0  0  0  0  0  0  0  0  0
  -12.6656   12.9375    0.0000 C   0  0  0  0  0  0  0  0  0  0  0  0
  -12.6656   14.4375    0.0000 C   0  0  0  0  0  0  0  0  0  0  0  0
  -13.9647   15.1875    0.0000 C   0  0  0  0  0  0  0  0  0  0  0  0
  -15.2637   14.4375    0.0000 O   0  0  0  0  0  0  0  0  0  0  0  0
  -13.9647   16.6875    0.0000 O   0  0  0  0  0  0  0  0  0  0  0  0
  3  1  1  0
  4  3  1  0
  5  4  1  0
  6  5  1  0
  7  6  1  0
  8  7  1  0
  9  8  1  0
 10  9  1  0
 11 10  1  0
 12 11  1  0
 13 12  1  0
 14 13  1  0
 15 14  1  0
 16 15  1  0
 16 17  2  0
 18 17  1  0
 19 18  1  0
 20 19  1  0
 21 20  1  0
 22 21  2  0
 23  2  1  0
 23 21  1  0
M  END
>  <NAME>  (6046) 
CIS-5-EICOSENOIC ACID METHYL ESTER

>  <SYNONYMS>  (6046) 


>  <SPECTRUM TYPE>  (6046) 
MS1

>  <INSTRUMENT TYPE>  (6046) 
EI-B

>  <INSTRUMENT>  (6046) 
JEOL JMS-01-SG

>  <ION MODE>  (6046) 
P

>  <INCHIKEY>  (6046) 
DCELZGFMHKOOJH-MSUUIHNZSA-N

>  <FORMULA>  (6046) 
C21H40O2

>  <EXACT MASS>  (6046) 
324.30283052

>  <MW>  (6046) 
324

>  <ID>  (6046) 
JP002190

>  <CONTRIBUTOR>  (6046) 
University of Tokyo Team, {Faculty of Engineering, University of Tokyo

>  <COMMENT>  (6046) 
SMILES=CCCCCCCCCCCCCCC=CCCCC(=O)OC
InChI=InChI=1S/C21H40O2/c1-3-4-5-6-7-8-9-10-11-12-13-14-15-16-17-18-19-20-21(22)23-2/h16-17H,3-15,18-20H2,1-2H3/b17-16-
computed SMILES=O=C(OC)CCCC=CCCCCCCCCCCCCCC
accession=JP002190
date=2016.01.19 (Created 2008.10.21, modified 2011.05.06)
author=KOGA M, UNIV. OF OCCUPATIONAL AND ENVIRONMENTAL HEALTH
license=CC BY-NC-SA
exact mass=324.30283
ionization energy=70 eV
ion type=[M]+*
computed spectral entropy=4.030583669012067
computed normalized entropy=0.7971494710064662
SPLASH=splash10-05o1-9310000000-a6697956cb8bd50b7101
submitter=submitter = University of Tokyo Team (Faculty of Engineering, University of Tokyo)
MoNA Rating=3.75

>  <NUM PEAKS>  (6046) 
157

>  <MASS SPECTRAL PEAKS>  (6046) 
43 5.3
47 2.2
48 0.7
52 0.07
53 7.6
54 27.4
55 99.99
56 1.9
57 50.3
58 1.5
61 1.5
62 0.22
64 0.7
65 6.1
66 0.7
67 6.94
68 56.4
69 60.3
70 19
71 2.06
72 0.7
74 83.9
75 17.5
77 0.15
78 5.3
79 17.5
80 16
81 6.48
82 47.3
83 69.4
84 69.4
85 2.21
87 32.8
88 6.1
91 4.5
92 0.3
93 4.5
94 10.6
95 37.4
96 9.08
97 71.7
98 47.3
99 9.9
101 0.91
102 0.7
105 3.8
107 6.1
108 0.61
109 29.7
110 38.1
111 37.4
112 1.29
113 3.8
114 7.6
115 6.8
116 0.15
118 3.8
119 4.5
120 0.7
121 1.06
122 3
123 24.4
124 18.3
125 1.67
126 1.5
127 6.8
128 6.8
129 0.76
130 1.5
131 1.5
132 3
133 0.3
134 10.6
135 9.9
136 0.7
137 1.22
138 12.2
139 6.8
140 1.5
141 1.37
142 0.7
143 3
144 3.8
147 0.22
148 9.1
149 4.5
150 0.7
151 1.06
152 14.5
153 4.5
155 3
157 0.15
161 0.7
162 3.8
163 1.5
164 0.38
165 4.5
166 7.6
167 1.5
169 0.3
172 1.5
173 3.8
176 3.8
177 0.15
179 3
180 3
181 2.2
182 0.3
187 4.5
191 0.7
194 10.6
196 0.3
199 3.8
203 0.7
204 0.7
205 0.07
206 3
207 3.8
208 14.5
210 0.3
211 0.7
214 0.7
219 0.7
220 0.15
221 5.3
222 4.5
224 2.2
225 0.22
227 3
228 2.2
235 0.7
236 0.38
237 2.2
241 3
242 0.7
248 0.61
249 6.8
250 22.9
251 6.1
252 0.07
253 1.5
255 0.7
256 0.7
260 0.07
262 0.7
264 3.8
267 2.2
274 0.45
275 7.6
277 0.7
278 1.5
283 0.07
292 35.1
293 12.2
294 2.2
324 0.45
325 0.7

$$$$

     RDKit          2D

 21 20  0  0  0  0  0  0  0  0999 V2000
    3.2476   -4.1250    0.0000 C   0  0  0  0  0  0  0  0  0  0  0  0
   13.6399    3.3750    0.0000 C   0  0  0  0  0  0  0  0  0  0  0  0
    1.9486   -3.3750    0.0000 C   0  0  0  0  0  0  0  0  0  0  0  0
    0.6495   -4.1250    0.0000 C   0  0  0  0  0  0  0  0  0  0  0  0
   -0.6495   -3.3750    0.0000 C   0  0  0  0  0  0  0  0  0  0  0  0
   -0.6495   -1.8750    0.0000 C   0  0  0  0  0  0  0  0  0  0  0  0
   -1.9486   -1.1250    0.0000 C   0  0  0  0  0  0  0  0  0  0  0  0
   -1.9486    0.3750    0.0000 C   0  0  0  0  0  0  0  0  0  0  0  0
   -0.6495    1.1250    0.0000 C   0  0  0  0  0  0  0  0  0  0  0  0
   -0.6495    2.6250    0.0000 C   0  0  0  0  0  0  0  0  0  0  0  0
    0.6495    3.3750    0.0000 C   0  0  0  0  0  0  0  0  0  0  0  0
    1.9486    2.6250    0.0000 C   0  0  0  0  0  0  0  0  0  0  0  0
    3.2476    3.3750    0.0000 C   0  0  0  0  0  0  0  0  0  0  0  0
    4.5466    2.6250    0.0000 C   0  0  0  0  0  0  0  0  0  0  0  0
    5.8457    3.3750    0.0000 C   0  0  0  0  0  0  0  0  0  0  0  0
    7.1447    2.6250    0.0000 C   0  0  0  0  0  0  0  0  0  0  0  0
    8.4437    3.3750    0.0000 C   0  0  0  0  0  0  0  0  0  0  0  0
    9.7428    2.6250    0.0000 C   0  0  0  0  0  0  0  0  0  0  0  0
   11.0418    3.3750    0.0000 C   0  0  0  0  0  0  0  0  0  0  0  0
   11.0418    4.8750    0.0000 O   0  0  0  0  0  0  0  0  0  0  0  0
   12.3409    2.6250    0.0000 O   0  0  0  0  0  0  0  0  0  0  0  0
  3  1  1  0
  4  3  1  0
  4  5  2  0
  6  5  1  0
  7  6  1  0
  7  8  2  0
  9  8  1  0
 10  9  1  0
 10 11  2  0
 12 11  1  0
 13 12  1  0
 14 13  1  0
 15 14  1  0
 16 15  1  0
 17 16  1  0
 18 17  1  0
 19 18  1  0
 20 19  2  0
 21  2  1  0
 21 19  1  0
M  END
>  <NAME>  (6047) 
CIS-9,CIS-12,CIS-15-OCTADECATRIENOIC ACIDMETHYL ESTER

>  <SYNONYMS>  (6047) 
LINOLENIC ACID METHYL ESTER

>  <SPECTRUM TYPE>  (6047) 
MS1

>  <INSTRUMENT TYPE>  (6047) 
EI-B

>  <INSTRUMENT>  (6047) 
JEOL JMS-01-SG

>  <ION MODE>  (6047) 
P

>  <INCHIKEY>  (6047) 
DVWSXZIHSUZZKJ-YSTUJMKBSA-N

>  <FORMULA>  (6047) 
C19H32O2

>  <EXACT MASS>  (6047) 
292.240230264

>  <MW>  (6047) 
292

>  <ID>  (6047) 
JP002189

>  <CONTRIBUTOR>  (6047) 
University of Tokyo Team, {Faculty of Engineering, University of Tokyo

>  <COMMENT>  (6047) 
SMILES=CCC=CCC=CCC=CCCCCCCCC(=O)OC
InChI=InChI=1S/C19H32O2/c1-3-4-5-6-7-8-9-10-11-12-13-14-15-16-17-18-19(20)21-2/h4-5,7-8,10-11H,3,6,9,12-18H2,1-2H3/b5-4-,8-7-,11-10-
computed SMILES=O=C(OC)CCCCCCCC=CCC=CCC=CCC
accession=JP002189
date=2016.01.19 (Created 2008.10.21, modified 2011.05.06)
author=KOGA M, UNIV. OF OCCUPATIONAL AND ENVIRONMENTAL HEALTH
license=CC BY-NC-SA
exact mass=292.24023
ionization energy=70 eV
ion type=[M]+*
computed spectral entropy=3.752359979462939
computed normalized entropy=0.7708954127919387
SPLASH=splash10-0a6u-9400000000-66aefd28ec364557f7aa
submitter=submitter = University of Tokyo Team (Faculty of Engineering, University of Tokyo)
MoNA Rating=3.75

>  <NUM PEAKS>  (6047) 
130

>  <MASS SPECTRAL PEAKS>  (6047) 
50 0.6
51 1.8
52 1.2
53 0.94
54 9.4
55 38.9
57 5.6
62 0.12
64 0.6
65 5
66 8.1
67 6.66
68 12.5
69 15.7
71 0.6
77 1.76
78 14.4
79 99.99
80 48.4
81 4.33
82 14.4
83 7.5
84 1.2
85 0.12
87 11.9
91 25.1
92 5.6
93 4.9
94 27.6
95 50.3
96 9.4
97 0.69
98 0.6
99 3.1
100 2.5
101 0.5
102 3.1
103 3.7
105 8.8
106 0.25
107 24.5
108 37.7
109 13.2
110 0.18
111 3.1
114 0.6
115 1.8
116 0.31
117 3.7
118 2.5
119 5
120 0.25
121 20.7
122 13.2
123 4.4
124 0.06
125 0.6
128 0.6
129 3.1
131 0.37
132 3.7
133 4.4
134 1.2
135 1.5
136 10.6
137 3.1
139 0.6
141 0.25
144 3.1
145 1.2
146 2.5
147 0.31
149 11.9
150 5
157 1.2
158 0.18
159 0.6
160 1.2
161 0.6
162 0.12
163 4.4
164 5.6
165 0.6
169 0.06
171 0.6
172 0.6
173 2.5
174 0.25
175 0.6
176 2.5
178 0.6
179 0.06
180 2.5
184 3.1
191 0.6
192 0.12
196 1.8
197 0.6
199 1.8
201 0.12
203 0.6
204 2.5
210 0.6
215 0.25
216 0.6
218 1.2
220 1.2
222 0.18
223 2.5
224 1.2
225 1.2
232 0.25
235 2.5
236 4.4
237 1.2
238 0.12
249 1.2
250 1.2
251 0.6
253 0.12
259 0.6
261 0.6
262 3.1
263 0.25
264 0.6
267 1.2
278 0.6
290 0.06
292 5
293 0.6

$$$$

     RDKit          2D

 21 20  0  0  0  0  0  0  0  0999 V2000
  -10.0675    7.3125    0.0000 C   0  0  0  0  0  0  0  0  0  0  0  0
    1.6238   -2.4375    0.0000 C   0  0  0  0  0  0  0  0  0  0  0  0
  -11.3666    6.5625    0.0000 C   0  0  0  0  0  0  0  0  0  0  0  0
  -11.3666    5.0625    0.0000 C   0  0  0  0  0  0  0  0  0  0  0  0
  -12.6656    4.3125    0.0000 C   0  0  0  0  0  0  0  0  0  0  0  0
  -12.6656    2.8125    0.0000 C   0  0  0  0  0  0  0  0  0  0  0  0
  -13.9647    2.0625    0.0000 C   0  0  0  0  0  0  0  0  0  0  0  0
  -13.9647    0.5625    0.0000 C   0  0  0  0  0  0  0  0  0  0  0  0
  -12.6656   -0.1875    0.0000 C   0  0  0  0  0  0  0  0  0  0  0  0
  -12.6656   -1.6875    0.0000 C   0  0  0  0  0  0  0  0  0  0  0  0
  -11.3666   -2.4375    0.0000 C   0  0  0  0  0  0  0  0  0  0  0  0
  -10.0675   -1.6875    0.0000 C   0  0  0  0  0  0  0  0  0  0  0  0
   -8.7685   -2.4375    0.0000 C   0  0  0  0  0  0  0  0  0  0  0  0
   -7.4695   -1.6875    0.0000 C   0  0  0  0  0  0  0  0  0  0  0  0
   -6.1704   -2.4375    0.0000 C   0  0  0  0  0  0  0  0  0  0  0  0
   -4.8714   -1.6875    0.0000 C   0  0  0  0  0  0  0  0  0  0  0  0
   -3.5724   -2.4375    0.0000 C   0  0  0  0  0  0  0  0  0  0  0  0
   -2.2733   -1.6875    0.0000 C   0  0  0  0  0  0  0  0  0  0  0  0
   -0.9743   -2.4375    0.0000 C   0  0  0  0  0  0  0  0  0  0  0  0
   -0.9743   -3.9375    0.0000 O   0  0  0  0  0  0  0  0  0  0  0  0
    0.3248   -1.6875    0.0000 O   0  0  0  0  0  0  0  0  0  0  0  0
  3  1  1  0
  4  3  1  0
  5  4  1  0
  6  5  1  0
  7  6  1  0
  7  8  2  0
  9  8  1  0
 10  9  1  0
 10 11  2  0
 12 11  1  0
 13 12  1  0
 14 13  1  0
 15 14  1  0
 16 15  1  0
 17 16  1  0
 18 17  1  0
 19 18  1  0
 20 19  2  0
 21  2  1  0
 21 19  1  0
M  END
>  <NAME>  (6048) 
CIS-9,CIS-12-OCTADECADIENOIC ACID METHYL ESTER

>  <SYNONYMS>  (6048) 
LINOLEIC ACID METHYL ESTER

>  <SPECTRUM TYPE>  (6048) 
MS1

>  <INSTRUMENT TYPE>  (6048) 
EI-B

>  <INSTRUMENT>  (6048) 
JEOL JMS-01-SG

>  <ION MODE>  (6048) 
P

>  <INCHIKEY>  (6048) 
WTTJVINHCBCLGX-NQLNTKRDSA-N

>  <FORMULA>  (6048) 
C19H34O2

>  <EXACT MASS>  (6048) 
294.255880328

>  <MW>  (6048) 
294

>  <ID>  (6048) 
JP002188

>  <CONTRIBUTOR>  (6048) 
University of Tokyo Team, {Faculty of Engineering, University of Tokyo

>  <COMMENT>  (6048) 
SMILES=CCCCCC=CCC=CCCCCCCCC(=O)OC
InChI=InChI=1S/C19H34O2/c1-3-4-5-6-7-8-9-10-11-12-13-14-15-16-17-18-19(20)21-2/h7-8,10-11H,3-6,9,12-18H2,1-2H3/b8-7-,11-10-
computed SMILES=O=C(OC)CCCCCCCC=CCC=CCCCCC
accession=JP002188
date=2016.01.19 (Created 2008.10.21, modified 2011.05.06)
author=KOGA M, UNIV. OF OCCUPATIONAL AND ENVIRONMENTAL HEALTH
license=CC BY-NC-SA
exact mass=294.25588
ionization energy=70 eV
ion type=[M]+*
computed spectral entropy=3.6002024039964895
computed normalized entropy=0.8147391416753742
SPLASH=splash10-014j-9300000000-729382f4e6ed1136cb48
submitter=submitter = University of Tokyo Team (Faculty of Engineering, University of Tokyo)
MoNA Rating=3.75

>  <NUM PEAKS>  (6048) 
83

>  <MASS SPECTRAL PEAKS>  (6048) 
51 2.2
53 8.1
54 35.9
55 5.25
59 6.2
65 6.2
66 6.6
67 99.99
68 41.1
69 27.7
70 2.2
71 0.18
73 1.8
74 7.4
77 9.2
78 0.4
79 30
80 20.3
81 20.3
82 4.55
83 19.2
84 2.5
85 3.7
87 0.55
91 7.7
92 2.2
93 12.5
94 1.55
95 48.1
96 39.2
97 13.3
98 0.25
99 2.2
105 2.9
106 1.8
107 0.85
108 9.2
109 26.2
110 18.8
111 0.55
115 2.5
119 2.9
121 11.4
122 0.7
123 11.4
124 10
125 2.5
129 0.25
131 1.8
132 1.8
133 2.9
135 0.92
136 11.1
137 6.6
138 5.9
139 0.18
141 2.2
146 1.8
148 1.8
149 0.85
150 9.6
151 4.4
152 2.9
154 0.25
161 1.8
163 3.3
164 7.7
165 0.18
171 1.8
173 2.9
177 1.8
178 0.48
182 2.2
196 2.2
206 1.8
210 0.18
221 1.8
224 1.8
262 6.2
263 0.66
264 2.2
294 9.2
295 2.5

$$$$

     RDKit          2D

 21 20  0  0  0  0  0  0  0  0999 V2000
    6.4952   10.5000    0.0000 C   0  0  0  0  0  0  0  0  0  0  0  0
  -18.1865   11.2500    0.0000 C   0  0  0  0  0  0  0  0  0  0  0  0
    5.1962   11.2500    0.0000 C   0  0  0  0  0  0  0  0  0  0  0  0
    3.8971   10.5000    0.0000 C   0  0  0  0  0  0  0  0  0  0  0  0
    2.5981   11.2500    0.0000 C   0  0  0  0  0  0  0  0  0  0  0  0
    1.2990   10.5000    0.0000 C   0  0  0  0  0  0  0  0  0  0  0  0
    0.0000   11.2500    0.0000 C   0  0  0  0  0  0  0  0  0  0  0  0
   -1.2990   10.5000    0.0000 C   0  0  0  0  0  0  0  0  0  0  0  0
   -2.5981   11.2500    0.0000 C   0  0  0  0  0  0  0  0  0  0  0  0
   -3.8971   10.5000    0.0000 C   0  0  0  0  0  0  0  0  0  0  0  0
   -5.1962   11.2500    0.0000 C   0  0  0  0  0  0  0  0  0  0  0  0
   -6.4952   10.5000    0.0000 C   0  0  0  0  0  0  0  0  0  0  0  0
   -7.7942   11.2500    0.0000 C   0  0  0  0  0  0  0  0  0  0  0  0
   -9.0933   10.5000    0.0000 C   0  0  0  0  0  0  0  0  0  0  0  0
  -10.3923   11.2500    0.0000 C   0  0  0  0  0  0  0  0  0  0  0  0
  -11.6913   10.5000    0.0000 C   0  0  0  0  0  0  0  0  0  0  0  0
  -12.9904   11.2500    0.0000 C   0  0  0  0  0  0  0  0  0  0  0  0
  -14.2894   10.5000    0.0000 C   0  0  0  0  0  0  0  0  0  0  0  0
  -15.5885   11.2500    0.0000 C   0  0  0  0  0  0  0  0  0  0  0  0
  -15.5885   12.7500    0.0000 O   0  0  0  0  0  0  0  0  0  0  0  0
  -16.8875   10.5000    0.0000 O   0  0  0  0  0  0  0  0  0  0  0  0
  3  1  1  0
  4  3  1  0
  5  4  1  0
  6  5  1  0
  7  6  1  0
  7  8  2  0
  9  8  1  0
 10  9  1  0
 10 11  2  0
 12 11  1  0
 13 12  1  0
 14 13  1  0
 15 14  1  0
 16 15  1  0
 17 16  1  0
 18 17  1  0
 19 18  1  0
 20 19  2  0
 21  2  1  0
 21 19  1  0
M  END
>  <NAME>  (6049) 
TRANS-9,TRANS-12-OCTADECADIENOIC ACID METHYL ESTER

>  <SYNONYMS>  (6049) 


>  <SPECTRUM TYPE>  (6049) 
MS1

>  <INSTRUMENT TYPE>  (6049) 
EI-B

>  <INSTRUMENT>  (6049) 
JEOL JMS-01-SG

>  <ION MODE>  (6049) 
P

>  <INCHIKEY>  (6049) 
WTTJVINHCBCLGX-ZDVGBALWSA-N

>  <FORMULA>  (6049) 
C19H34O2

>  <EXACT MASS>  (6049) 
294.255880328

>  <MW>  (6049) 
294

>  <ID>  (6049) 
JP002187

>  <CONTRIBUTOR>  (6049) 
University of Tokyo Team, {Faculty of Engineering, University of Tokyo

>  <COMMENT>  (6049) 
SMILES=CCCCCC=CCC=CCCCCCCCC(=O)OC
InChI=InChI=1S/C19H34O2/c1-3-4-5-6-7-8-9-10-11-12-13-14-15-16-17-18-19(20)21-2/h7-8,10-11H,3-6,9,12-18H2,1-2H3/b8-7+,11-10+
computed SMILES=O=C(OC)CCCCCCCC=CCC=CCCCCC
ionization energy=70 eV
accession=JP002187
date=2016.01.19 (Created 2008.10.21, modified 2011.05.06)
author=KOGA M, UNIV. OF OCCUPATIONAL AND ENVIRONMENTAL HEALTH
license=CC BY-NC-SA
exact mass=294.25588
ion type=[M]+*
computed spectral entropy=3.7496729607538595
computed normalized entropy=0.8196524279618131
SPLASH=splash10-0159-9300000000-52967c3e5e37758bb81e
submitter=submitter = University of Tokyo Team (Faculty of Engineering, University of Tokyo)
MoNA Rating=3.75

>  <NUM PEAKS>  (6049) 
97

>  <MASS SPECTRAL PEAKS>  (6049) 
44 13.3
51 4.4
53 8.8
54 3.55
55 55.5
58 2.2
65 7.7
66 0.77
67 99.99
68 41.1
69 31.1
70 0.33
71 4.4
73 6.6
77 11.1
78 0.22
79 32.2
80 15.5
81 86.6
82 5.44
83 17.7
84 3.3
85 3.3
87 0.44
91 10
93 14.4
94 13.3
95 6
96 41.1
97 12.2
101 6.6
104 0.33
105 3.3
106 4.4
107 7.7
108 1.11
109 23.3
110 18.8
111 7.7
112 0.44
113 2.2
115 4.4
119 2.2
120 0.66
121 12.2
122 4.4
123 12.2
124 0.77
125 2.2
128 2.2
129 2.2
131 0.22
132 3.3
134 4.4
135 11.1
136 1.33
137 6.6
138 2.2
139 4.4
143 0.22
148 4.4
149 8.8
150 15.5
151 0.44
152 3.3
155 2.2
156 2.2
160 0.33
163 4.4
164 10
170 3.3
173 0.66
175 3.3
177 2.2
178 5.5
180 0.33
182 5.5
183 2.2
187 5.5
194 0.22
195 5.5
196 2.2
206 4.4
210 0.55
215 2.2
217 3.3
220 5.5
221 0.55
223 2.2
224 2.2
231 3.3
233 0.33
262 5.5
263 6.6
264 5.5
294 1.22
295 3.3

$$$$

     RDKit          2D

 17 16  0  0  0  0  0  0  0  0999 V2000
    8.4437   12.3750    0.0000 C   0  0  0  0  0  0  0  0  0  0  0  0
   -8.4437    7.1250    0.0000 C   0  0  0  0  0  0  0  0  0  0  0  0
    7.1447   11.6250    0.0000 C   0  0  0  0  0  0  0  0  0  0  0  0
    7.1447   10.1250    0.0000 C   0  0  0  0  0  0  0  0  0  0  0  0
    5.8457    9.3750    0.0000 C   0  0  0  0  0  0  0  0  0  0  0  0
    5.8457    7.8750    0.0000 C   0  0  0  0  0  0  0  0  0  0  0  0
    4.5466    7.1250    0.0000 C   0  0  0  0  0  0  0  0  0  0  0  0
    3.2476    7.8750    0.0000 C   0  0  0  0  0  0  0  0  0  0  0  0
    1.9486    7.1250    0.0000 C   0  0  0  0  0  0  0  0  0  0  0  0
    0.6495    7.8750    0.0000 C   0  0  0  0  0  0  0  0  0  0  0  0
   -0.6495    7.1250    0.0000 C   0  0  0  0  0  0  0  0  0  0  0  0
   -1.9486    7.8750    0.0000 C   0  0  0  0  0  0  0  0  0  0  0  0
   -3.2476    7.1250    0.0000 C   0  0  0  0  0  0  0  0  0  0  0  0
   -4.5466    7.8750    0.0000 C   0  0  0  0  0  0  0  0  0  0  0  0
   -5.8457    7.1250    0.0000 C   0  0  0  0  0  0  0  0  0  0  0  0
   -5.8457    5.6250    0.0000 O   0  0  0  0  0  0  0  0  0  0  0  0
   -7.1447    7.8750    0.0000 O   0  0  0  0  0  0  0  0  0  0  0  0
  3  1  1  0
  4  3  1  0
  5  4  1  0
  6  5  1  0
  6  7  2  0
  8  7  1  0
  9  8  1  0
 10  9  1  0
 11 10  1  0
 12 11  1  0
 13 12  1  0
 14 13  1  0
 15 14  1  0
 16 15  2  0
 17  2  1  0
 17 15  1  0
M  END
>  <NAME>  (6050) 
CIS-9-TETRADECENOIC ACID METHYL ESTER

>  <SYNONYMS>  (6050) 
MYRISTOLEIC ACID METHYL ESTER

>  <SPECTRUM TYPE>  (6050) 
MS1

>  <INSTRUMENT TYPE>  (6050) 
EI-B

>  <INSTRUMENT>  (6050) 
JEOL JMS-01-SG

>  <ION MODE>  (6050) 
P

>  <INCHIKEY>  (6050) 
RWIPSJUSVXDVPB-SREVYHEPSA-N

>  <FORMULA>  (6050) 
C15H28O2

>  <EXACT MASS>  (6050) 
240.208930136

>  <MW>  (6050) 
240

>  <ID>  (6050) 
JP002186

>  <CONTRIBUTOR>  (6050) 
University of Tokyo Team, {Faculty of Engineering, University of Tokyo

>  <COMMENT>  (6050) 
SMILES=CCCCC=CCCCCCCCC(=O)OC
InChI=InChI=1S/C15H28O2/c1-3-4-5-6-7-8-9-10-11-12-13-14-15(16)17-2/h6-7H,3-5,8-14H2,1-2H3/b7-6-
computed SMILES=O=C(OC)CCCCCCCC=CCCCC
accession=JP002186
date=2016.01.19 (Created 2008.10.21, modified 2011.05.06)
author=KOGA M, UNIV. OF OCCUPATIONAL AND ENVIRONMENTAL HEALTH
license=CC BY-NC-SA
exact mass=240.20893
ionization energy=70 eV
ion type=[M]+*
computed spectral entropy=3.7767005506319777
computed normalized entropy=0.8274348038766602
SPLASH=splash10-05us-9300000000-b46b3886901119dc669c
submitter=submitter = University of Tokyo Team (Faculty of Engineering, University of Tokyo)
MoNA Rating=3.75

>  <NUM PEAKS>  (6050) 
96

>  <MASS SPECTRAL PEAKS>  (6050) 
43 1.7
45 3.8
53 13
54 3.46
55 92.2
56 21.5
59 25.7
65 0.45
66 2.1
67 56.5
68 33.5
69 9.25
70 19.7
71 6.3
72 1.4
73 0.84
74 99.99
75 12.7
77 2.1
78 0.28
79 12
80 8.4
81 43.4
82 3.6
83 60.4
84 57.5
85 12.3
87 7.13
88 5.3
91 4.5
93 7.4
94 0.95
95 30
96 59
97 49.4
98 5.3
99 7
100 2.4
101 10.2
105 0.28
107 6
108 5.6
109 20.4
110 3.07
111 27.9
112 10.6
113 9.5
114 0.6
115 8.4
119 6.3
121 7.7
122 0.24
123 20.4
124 26.8
125 14.4
126 0.45
127 4.9
128 6
129 4.5
133 0.45
134 2.8
135 5.3
136 1.4
137 1.41
138 9.8
139 4.5
141 6.3
143 0.31
144 1.7
147 5.3
148 4.2
149 0.14
151 7.4
152 6
153 1.4
154 0.14
157 1.4
161 3.1
164 9.5
165 0.67
166 29.3
167 5.3
170 1.4
172 0.14
179 2.8
180 3.1
190 5.6
191 0.21
194 1.4
197 2.4
208 25.7
209 1.73
210 2.8
222 1.4
240 7
241 1.7

$$$$

     RDKit          2D

 19 18  0  0  0  0  0  0  0  0999 V2000
   -8.7685    4.3125    0.0000 C   0  0  0  0  0  0  0  0  0  0  0  0
    9.4180   11.8125    0.0000 C   0  0  0  0  0  0  0  0  0  0  0  0
   -7.4695    5.0625    0.0000 C   0  0  0  0  0  0  0  0  0  0  0  0
   -7.4695    6.5625    0.0000 C   0  0  0  0  0  0  0  0  0  0  0  0
   -6.1704    7.3125    0.0000 C   0  0  0  0  0  0  0  0  0  0  0  0
   -6.1704    8.8125    0.0000 C   0  0  0  0  0  0  0  0  0  0  0  0
   -4.8714    9.5625    0.0000 C   0  0  0  0  0  0  0  0  0  0  0  0
   -4.8714   11.0625    0.0000 C   0  0  0  0  0  0  0  0  0  0  0  0
   -3.5724   11.8125    0.0000 C   0  0  0  0  0  0  0  0  0  0  0  0
   -2.2733   11.0625    0.0000 C   0  0  0  0  0  0  0  0  0  0  0  0
   -0.9743   11.8125    0.0000 C   0  0  0  0  0  0  0  0  0  0  0  0
    0.3248   11.0625    0.0000 C   0  0  0  0  0  0  0  0  0  0  0  0
    1.6238   11.8125    0.0000 C   0  0  0  0  0  0  0  0  0  0  0  0
    2.9228   11.0625    0.0000 C   0  0  0  0  0  0  0  0  0  0  0  0
    4.2219   11.8125    0.0000 C   0  0  0  0  0  0  0  0  0  0  0  0
    5.5209   11.0625    0.0000 C   0  0  0  0  0  0  0  0  0  0  0  0
    6.8200   11.8125    0.0000 C   0  0  0  0  0  0  0  0  0  0  0  0
    6.8200   13.3125    0.0000 O   0  0  0  0  0  0  0  0  0  0  0  0
    8.1190   11.0625    0.0000 O   0  0  0  0  0  0  0  0  0  0  0  0
  3  1  1  0
  4  3  1  0
  5  4  1  0
  6  5  1  0
  7  6  1  0
  8  7  1  0
  8  9  2  0
 10  9  1  0
 11 10  1  0
 12 11  1  0
 13 12  1  0
 14 13  1  0
 15 14  1  0
 16 15  1  0
 17 16  1  0
 18 17  2  0
 19  2  1  0
 19 17  1  0
M  END
>  <NAME>  (6051) 
CIS-9-HEXADECENOIC ACID METHYL ESTER

>  <SYNONYMS>  (6051) 


>  <SPECTRUM TYPE>  (6051) 
MS1

>  <INSTRUMENT TYPE>  (6051) 
EI-B

>  <INSTRUMENT>  (6051) 
JEOL JMS-01-SG

>  <ION MODE>  (6051) 
P

>  <INCHIKEY>  (6051) 
IZFGRAGOVZCUFB-HJWRWDBZSA-N

>  <FORMULA>  (6051) 
C17H32O2

>  <EXACT MASS>  (6051) 
268.240230264

>  <MW>  (6051) 
268

>  <ID>  (6051) 
JP002185

>  <CONTRIBUTOR>  (6051) 
University of Tokyo Team, {Faculty of Engineering, University of Tokyo

>  <COMMENT>  (6051) 
SMILES=CCCCCCC=CCCCCCCCC(=O)OC
InChI=InChI=1S/C17H32O2/c1-3-4-5-6-7-8-9-10-11-12-13-14-15-16-17(18)19-2/h8-9H,3-7,10-16H2,1-2H3/b9-8-
computed SMILES=O=C(OC)CCCCCCCC=CCCCCCC
accession=JP002185
date=2016.01.19 (Created 2008.10.21, modified 2011.05.06)
author=KOGA M, UNIV. OF OCCUPATIONAL AND ENVIRONMENTAL HEALTH
license=CC BY-NC-SA
exact mass=268.24023
ionization energy=70 eV
ion type=[M]+*
computed spectral entropy=3.7549334968667964
computed normalized entropy=0.8226658745899177
SPLASH=splash10-05nb-9300000000-86e7cd0e221b6d5090cf
submitter=submitter = University of Tokyo Team (Faculty of Engineering, University of Tokyo)
MoNA Rating=3.75

>  <NUM PEAKS>  (6051) 
96

>  <MASS SPECTRAL PEAKS>  (6051) 
42 1.4
43 1.8
53 7.3
54 2.02
55 99.99
56 18.9
57 17.7
65 0.22
66 1.4
67 34
68 20.4
69 6.22
70 14.2
71 5.9
73 2.6
74 4.44
75 7.5
77 2.2
78 1.2
79 0.85
80 5.3
81 29.3
82 20.8
83 4.3
84 34.8
85 7.5
87 38.1
88 0.26
91 2.4
93 4.8
94 6.1
95 1.93
96 38.5
97 35.5
98 33.8
99 0.44
100 1.6
101 6.7
102 1.4
105 0.14
106 1.2
107 3.2
108 3.2
109 1.2
110 18.9
111 19.1
112 7.3
113 0.34
114 2.8
115 4.8
119 4.2
120 0.22
121 4.4
122 3
123 13.2
124 1.02
125 8.5
126 3
127 3.4
128 0.42
129 3.2
133 2.8
134 3.2
135 0.44
136 2.8
137 7.7
138 9.1
139 0.53
141 6.9
143 2.4
147 1.8
148 0.28
149 2.4
150 1.8
151 5.1
152 1.46
153 4
154 1.2
155 2
161 0.18
165 3.6
166 2.6
172 1.2
175 0.16
179 1.6
180 1.6
192 5.1
193 0.36
194 12.4
195 2.4
208 1.6
218 0.16
236 15.9
237 11.6
238 1.8
268 3.8

$$$$

     RDKit          2D

 19 18  0  0  0  0  0  0  0  0999 V2000
  -16.2380   10.1250    0.0000 C   0  0  0  0  0  0  0  0  0  0  0  0
    5.8457    9.3750    0.0000 C   0  0  0  0  0  0  0  0  0  0  0  0
  -14.9389    9.3750    0.0000 C   0  0  0  0  0  0  0  0  0  0  0  0
  -13.6399   10.1250    0.0000 C   0  0  0  0  0  0  0  0  0  0  0  0
  -12.3409    9.3750    0.0000 C   0  0  0  0  0  0  0  0  0  0  0  0
  -11.0418   10.1250    0.0000 C   0  0  0  0  0  0  0  0  0  0  0  0
   -9.7428    9.3750    0.0000 C   0  0  0  0  0  0  0  0  0  0  0  0
   -8.4437   10.1250    0.0000 C   0  0  0  0  0  0  0  0  0  0  0  0
   -7.1447    9.3750    0.0000 C   0  0  0  0  0  0  0  0  0  0  0  0
   -5.8457   10.1250    0.0000 C   0  0  0  0  0  0  0  0  0  0  0  0
   -4.5466    9.3750    0.0000 C   0  0  0  0  0  0  0  0  0  0  0  0
   -3.2476   10.1250    0.0000 C   0  0  0  0  0  0  0  0  0  0  0  0
   -1.9486    9.3750    0.0000 C   0  0  0  0  0  0  0  0  0  0  0  0
   -0.6495   10.1250    0.0000 C   0  0  0  0  0  0  0  0  0  0  0  0
    0.6495    9.3750    0.0000 C   0  0  0  0  0  0  0  0  0  0  0  0
    1.9486   10.1250    0.0000 C   0  0  0  0  0  0  0  0  0  0  0  0
    3.2476    9.3750    0.0000 C   0  0  0  0  0  0  0  0  0  0  0  0
    3.2476    7.8750    0.0000 O   0  0  0  0  0  0  0  0  0  0  0  0
    4.5466   10.1250    0.0000 O   0  0  0  0  0  0  0  0  0  0  0  0
  3  1  1  0
  4  3  1  0
  5  4  1  0
  6  5  1  0
  7  6  1  0
  8  7  1  0
  8  9  2  0
 10  9  1  0
 11 10  1  0
 12 11  1  0
 13 12  1  0
 14 13  1  0
 15 14  1  0
 16 15  1  0
 17 16  1  0
 18 17  2  0
 19  2  1  0
 19 17  1  0
M  END
>  <NAME>  (6052) 
TRANS-9-HEXADECENOIC ACID METHYL ESTER

>  <SYNONYMS>  (6052) 


>  <SPECTRUM TYPE>  (6052) 
MS1

>  <INSTRUMENT TYPE>  (6052) 
EI-B

>  <INSTRUMENT>  (6052) 
JEOL JMS-01-SG

>  <ION MODE>  (6052) 
P

>  <INCHIKEY>  (6052) 
IZFGRAGOVZCUFB-CMDGGOBGSA-N

>  <FORMULA>  (6052) 
C17H32O2

>  <EXACT MASS>  (6052) 
268.240230264

>  <MW>  (6052) 
268

>  <ID>  (6052) 
JP002184

>  <CONTRIBUTOR>  (6052) 
University of Tokyo Team, {Faculty of Engineering, University of Tokyo

>  <COMMENT>  (6052) 
SMILES=CCCCCCC=CCCCCCCCC(=O)OC
InChI=InChI=1S/C17H32O2/c1-3-4-5-6-7-8-9-10-11-12-13-14-15-16-17(18)19-2/h8-9H,3-7,10-16H2,1-2H3/b9-8+
computed SMILES=O=C(OC)CCCCCCCC=CCCCCCC
accession=JP002184
date=2016.01.19 (Created 2008.10.21, modified 2011.05.06)
author=KOGA M, UNIV. OF OCCUPATIONAL AND ENVIRONMENTAL HEALTH
license=CC BY-NC-SA
exact mass=268.24023
ionization energy=70 eV
ion type=[M]+*
computed spectral entropy=3.859069423217388
computed normalized entropy=0.8242121452857358
SPLASH=splash10-067j-9300000000-429d2c647fb476c71995
submitter=submitter = University of Tokyo Team (Faculty of Engineering, University of Tokyo)
MoNA Rating=3.75

>  <NUM PEAKS>  (6052) 
108

>  <MASS SPECTRAL PEAKS>  (6052) 
43 2.5
44 2.5
53 7.6
54 2.11
55 99.99
56 23
57 21.1
59 0.83
62 1.9
65 3.2
67 40.3
68 2.3
69 69.8
70 17.3
71 8.3
73 0.38
74 49.3
75 7.6
77 5.1
79 1.02
80 5.7
81 35.2
82 27.5
83 4.93
84 42.9
85 7
87 39.1
88 0.57
89 3.2
91 5.1
93 5.1
94 0.7
95 21.7
96 44.2
97 42.3
98 3.71
99 5.1
100 3.2
101 6.4
102 0.38
103 1.9
105 1.9
106 3.8
107 0.51
108 6.4
109 14.7
110 23.7
111 2.11
112 8.9
113 3.2
114 6.4
115 0.57
118 1.9
119 4.4
120 4.4
121 0.57
122 5.1
123 16.6
124 10.8
125 1.02
127 3.8
128 3.2
129 4.4
133 0.19
134 5.7
135 7
136 3.8
137 0.89
138 10.8
139 6.4
141 8.9
143 0.25
144 1.9
145 2.5
148 4.4
150 0.25
151 5.7
152 16
153 4.4
154 0.25
156 3.2
159 1.9
161 3.2
162 0.25
165 4.4
166 3.2
170 2.5
175 0.32
179 4.4
180 3.2
184 1.9
192 0.64
193 1.9
194 14.7
195 1.9
199 0.25
205 2.5
208 3.2
209 2.5
211 0.19
215 2.5
218 1.9
225 1.9
236 1.85
237 10.2
238 2.5
268 5.7
269 1.9

$$$$

     RDKit          2D

 24 23  0  0  0  0  0  0  0  0999 V2000
  -19.1608   12.9375    0.0000 C   0  0  0  0  0  0  0  0  0  0  0  0
  -17.8618   10.6875    0.0000 C   0  0  0  0  0  0  0  0  0  0  0  0
    8.1190   12.1875    0.0000 C   0  0  0  0  0  0  0  0  0  0  0  0
   -6.1704   12.9375    0.0000 C   0  0  0  0  0  0  0  0  0  0  0  0
   -7.4695   12.1875    0.0000 C   0  0  0  0  0  0  0  0  0  0  0  0
   -4.8714   12.1875    0.0000 C   0  0  0  0  0  0  0  0  0  0  0  0
   -8.7685   12.9375    0.0000 C   0  0  0  0  0  0  0  0  0  0  0  0
   -3.5724   12.9375    0.0000 C   0  0  0  0  0  0  0  0  0  0  0  0
  -10.0675   12.1875    0.0000 C   0  0  0  0  0  0  0  0  0  0  0  0
   -2.2733   12.1875    0.0000 C   0  0  0  0  0  0  0  0  0  0  0  0
  -11.3666   12.9375    0.0000 C   0  0  0  0  0  0  0  0  0  0  0  0
   -0.9743   12.9375    0.0000 C   0  0  0  0  0  0  0  0  0  0  0  0
  -12.6656   12.1875    0.0000 C   0  0  0  0  0  0  0  0  0  0  0  0
    0.3248   12.1875    0.0000 C   0  0  0  0  0  0  0  0  0  0  0  0
  -13.9647   12.9375    0.0000 C   0  0  0  0  0  0  0  0  0  0  0  0
    1.6238   12.9375    0.0000 C   0  0  0  0  0  0  0  0  0  0  0  0
  -15.2637   12.1875    0.0000 C   0  0  0  0  0  0  0  0  0  0  0  0
    2.9228   12.1875    0.0000 C   0  0  0  0  0  0  0  0  0  0  0  0
  -16.5627   12.9375    0.0000 C   0  0  0  0  0  0  0  0  0  0  0  0
    4.2219   12.9375    0.0000 C   0  0  0  0  0  0  0  0  0  0  0  0
  -17.8618   12.1875    0.0000 C   0  0  0  0  0  0  0  0  0  0  0  0
    5.5209   12.1875    0.0000 C   0  0  0  0  0  0  0  0  0  0  0  0
    5.5209   10.6875    0.0000 O   0  0  0  0  0  0  0  0  0  0  0  0
    6.8200   12.9375    0.0000 O   0  0  0  0  0  0  0  0  0  0  0  0
  5  4  1  0
  6  4  1  0
  7  5  1  0
  8  6  1  0
  9  7  1  0
 10  8  1  0
 11  9  1  0
 12 10  1  0
 13 11  1  0
 14 12  1  0
 15 13  1  0
 16 14  1  0
 17 15  1  0
 18 16  1  0
 19 17  1  0
 20 18  1  0
 21  1  1  0
 21  2  1  0
 21 19  1  0
 22 20  1  0
 23 22  2  0
 24  3  1  0
 24 22  1  0
M  END
>  <NAME>  (6053) 
19-METHYLEICOSANOIC ACID METHYL ESTER

>  <SYNONYMS>  (6053) 


>  <SPECTRUM TYPE>  (6053) 
MS1

>  <INSTRUMENT TYPE>  (6053) 
EI-B

>  <INSTRUMENT>  (6053) 
JEOL JMS-01-SG

>  <ION MODE>  (6053) 
P

>  <INCHIKEY>  (6053) 
CMVPFMWIPGEIMP-UHFFFAOYSA-N

>  <FORMULA>  (6053) 
C22H44O2

>  <EXACT MASS>  (6053) 
340.334130648

>  <MW>  (6053) 
340

>  <ID>  (6053) 
JP002183

>  <CONTRIBUTOR>  (6053) 
University of Tokyo Team, {Faculty of Engineering, University of Tokyo

>  <COMMENT>  (6053) 
SMILES=COC(=O)CCCCCCCCCCCCCCCCCC(C)C
InChI=InChI=1S/C22H44O2/c1-21(2)19-17-15-13-11-9-7-5-4-6-8-10-12-14-16-18-20-22(23)24-3/h21H,4-20H2,1-3H3
computed SMILES=O=C(OC)CCCCCCCCCCCCCCCCCC(C)C
accession=JP002183
date=2016.01.19 (Created 2008.10.21, modified 2011.05.06)
author=KOGA M, UNIV. OF OCCUPATIONAL AND ENVIRONMENTAL HEALTH
license=CC BY-NC-SA
exact mass=340.33413
ionization energy=70 eV
ion type=[M]+*
computed spectral entropy=3.146183041664104
computed normalized entropy=0.74825518211598
SPLASH=splash10-00dr-9210000000-8bbc2d09780f72030712
submitter=submitter = University of Tokyo Team (Faculty of Engineering, University of Tokyo)
MoNA Rating=3.75

>  <NUM PEAKS>  (6053) 
67

>  <MASS SPECTRAL PEAKS>  (6053) 
54 1.3
55 31.5
56 8.5
57 3.09
67 5.5
68 1.3
69 21
70 0.23
71 12.1
74 99.99
75 26.6
81 0.55
82 3.2
83 12.1
84 3.6
85 0.69
87 66.4
88 6.5
95 4.2
96 0.13
97 12.1
98 4.6
99 1.6
101 1.05
103 1.3
109 2.6
111 4.9
115 0.29
116 1.3
121 1.6
122 1.9
123 0.13
124 1.6
125 2.9
129 7.8
130 0.26
135 1.9
136 1.3
143 21
144 0.19
149 1.6
157 3.9
171 2.3
172 0.16
185 7.8
197 1.3
199 9.5
200 0.23
213 2.3
225 1.3
227 2.9
228 0.16
241 7.8
242 1.9
255 5.2
256 0.16
269 1.3
283 1.6
284 1.3
291 0.13
297 14.4
298 2.3
309 1.3
311 0.19
312 1.3
340 17.1
341 4.6

$$$$

     RDKit          2D

 23 22  0  0  0  0  0  0  0  0999 V2000
    6.8200   10.6875    0.0000 C   0  0  0  0  0  0  0  0  0  0  0  0
    5.5209   12.9375    0.0000 C   0  0  0  0  0  0  0  0  0  0  0  0
  -19.1608   10.6875    0.0000 C   0  0  0  0  0  0  0  0  0  0  0  0
   -4.8714   11.4375    0.0000 C   0  0  0  0  0  0  0  0  0  0  0  0
   -6.1704   10.6875    0.0000 C   0  0  0  0  0  0  0  0  0  0  0  0
   -3.5724   10.6875    0.0000 C   0  0  0  0  0  0  0  0  0  0  0  0
   -7.4695   11.4375    0.0000 C   0  0  0  0  0  0  0  0  0  0  0  0
   -2.2733   11.4375    0.0000 C   0  0  0  0  0  0  0  0  0  0  0  0
   -8.7685   10.6875    0.0000 C   0  0  0  0  0  0  0  0  0  0  0  0
   -0.9743   10.6875    0.0000 C   0  0  0  0  0  0  0  0  0  0  0  0
  -10.0675   11.4375    0.0000 C   0  0  0  0  0  0  0  0  0  0  0  0
    0.3248   11.4375    0.0000 C   0  0  0  0  0  0  0  0  0  0  0  0
  -11.3666   10.6875    0.0000 C   0  0  0  0  0  0  0  0  0  0  0  0
    1.6238   10.6875    0.0000 C   0  0  0  0  0  0  0  0  0  0  0  0
  -12.6656   11.4375    0.0000 C   0  0  0  0  0  0  0  0  0  0  0  0
    2.9228   11.4375    0.0000 C   0  0  0  0  0  0  0  0  0  0  0  0
  -13.9647   10.6875    0.0000 C   0  0  0  0  0  0  0  0  0  0  0  0
    4.2219   10.6875    0.0000 C   0  0  0  0  0  0  0  0  0  0  0  0
  -15.2637   11.4375    0.0000 C   0  0  0  0  0  0  0  0  0  0  0  0
    5.5209   11.4375    0.0000 C   0  0  0  0  0  0  0  0  0  0  0  0
  -16.5627   10.6875    0.0000 C   0  0  0  0  0  0  0  0  0  0  0  0
  -16.5627    9.1875    0.0000 O   0  0  0  0  0  0  0  0  0  0  0  0
  -17.8618   11.4375    0.0000 O   0  0  0  0  0  0  0  0  0  0  0  0
  5  4  1  0
  6  4  1  0
  7  5  1  0
  8  6  1  0
  9  7  1  0
 10  8  1  0
 11  9  1  0
 12 10  1  0
 13 11  1  0
 14 12  1  0
 15 13  1  0
 16 14  1  0
 17 15  1  0
 18 16  1  0
 19 17  1  0
 20  1  1  0
 20  2  1  0
 20 18  1  0
 21 19  1  0
 22 21  2  0
 23  3  1  0
 23 21  1  0
M  END
>  <NAME>  (6054) 
18-METHYLNONADECANOIC ACID METHYL ESTER

>  <SYNONYMS>  (6054) 


>  <SPECTRUM TYPE>  (6054) 
MS1

>  <INSTRUMENT TYPE>  (6054) 
EI-B

>  <INSTRUMENT>  (6054) 
JEOL JMS-01-SG

>  <ION MODE>  (6054) 
P

>  <INCHIKEY>  (6054) 
IVHQIMJNEKWLSS-UHFFFAOYSA-N

>  <FORMULA>  (6054) 
C21H42O2

>  <EXACT MASS>  (6054) 
326.318480584

>  <MW>  (6054) 
326

>  <ID>  (6054) 
JP002182

>  <CONTRIBUTOR>  (6054) 
University of Tokyo Team, {Faculty of Engineering, University of Tokyo

>  <COMMENT>  (6054) 
SMILES=COC(=O)CCCCCCCCCCCCCCCCC(C)C
InChI=InChI=1S/C21H42O2/c1-20(2)18-16-14-12-10-8-6-4-5-7-9-11-13-15-17-19-21(22)23-3/h20H,4-19H2,1-3H3
computed SMILES=O=C(OC)CCCCCCCCCCCCCCCCC(C)C
accession=JP002182
date=2016.01.19 (Created 2008.10.21, modified 2011.05.06)
author=KOGA M, UNIV. OF OCCUPATIONAL AND ENVIRONMENTAL HEALTH
license=CC BY-NC-SA
exact mass=326.31848
ionization energy=70 eV
ion type=[M]+*
computed spectral entropy=3.2079937101549345
computed normalized entropy=0.7146922686335521
SPLASH=splash10-00g0-9210000000-ba013b95508c28e6474f
submitter=submitter = University of Tokyo Team (Faculty of Engineering, University of Tokyo)
MoNA Rating=3.75

>  <NUM PEAKS>  (6054) 
89

>  <MASS SPECTRAL PEAKS>  (6054) 
43 3.1
44 1
54 2
55 3.6
56 9.7
57 36.3
60 1
67 0.45
68 2
69 23.4
70 2.7
71 1.29
73 1
74 99.99
75 33.9
77 0.17
79 1.7
81 4.1
82 2
83 1.36
84 4.1
85 5.9
87 83.5
88 0.62
91 1
93 2
95 3.4
97 1.43
98 4.1
99 3.1
101 9
102 0.13
108 1.7
109 3.4
111 6.6
112 0.1
113 2
115 3.1
118 1
119 0.1
121 2
123 1.7
125 3.1
129 0.83
130 2.7
134 1
135 1
136 0.1
139 2.4
143 27.9
144 3.8
149 0.1
150 1.3
156 1
157 4.8
171 0.59
172 2.4
185 6.2
186 1.3
199 1.04
200 2.4
210 1
213 2.7
214 0.2
221 1
224 1
225 1
227 0.87
228 2.4
237 1
241 6.6
242 0.17
253 1
255 4.5
256 1.3
262 0.13
269 1.7
270 1.3
271 1.7
277 0.2
278 1
279 1
283 13.6
284 0.34
295 2
297 1
326 18.1
327 0.45
328 1

$$$$

     RDKit          2D

 22 21  0  0  0  0  0  0  0  0999 V2000
    6.8200    9.9375    0.0000 C   0  0  0  0  0  0  0  0  0  0  0  0
    5.5209   12.1875    0.0000 C   0  0  0  0  0  0  0  0  0  0  0  0
  -17.8618   10.6875    0.0000 C   0  0  0  0  0  0  0  0  0  0  0  0
   -4.8714   10.6875    0.0000 C   0  0  0  0  0  0  0  0  0  0  0  0
   -3.5724    9.9375    0.0000 C   0  0  0  0  0  0  0  0  0  0  0  0
   -6.1704    9.9375    0.0000 C   0  0  0  0  0  0  0  0  0  0  0  0
   -2.2733   10.6875    0.0000 C   0  0  0  0  0  0  0  0  0  0  0  0
   -7.4695   10.6875    0.0000 C   0  0  0  0  0  0  0  0  0  0  0  0
   -0.9743    9.9375    0.0000 C   0  0  0  0  0  0  0  0  0  0  0  0
   -8.7685    9.9375    0.0000 C   0  0  0  0  0  0  0  0  0  0  0  0
    0.3248   10.6875    0.0000 C   0  0  0  0  0  0  0  0  0  0  0  0
  -10.0675   10.6875    0.0000 C   0  0  0  0  0  0  0  0  0  0  0  0
    1.6238    9.9375    0.0000 C   0  0  0  0  0  0  0  0  0  0  0  0
  -11.3666    9.9375    0.0000 C   0  0  0  0  0  0  0  0  0  0  0  0
    2.9228   10.6875    0.0000 C   0  0  0  0  0  0  0  0  0  0  0  0
  -12.6656   10.6875    0.0000 C   0  0  0  0  0  0  0  0  0  0  0  0
    4.2219    9.9375    0.0000 C   0  0  0  0  0  0  0  0  0  0  0  0
  -13.9647    9.9375    0.0000 C   0  0  0  0  0  0  0  0  0  0  0  0
    5.5209   10.6875    0.0000 C   0  0  0  0  0  0  0  0  0  0  0  0
  -15.2637   10.6875    0.0000 C   0  0  0  0  0  0  0  0  0  0  0  0
  -15.2637   12.1875    0.0000 O   0  0  0  0  0  0  0  0  0  0  0  0
  -16.5627    9.9375    0.0000 O   0  0  0  0  0  0  0  0  0  0  0  0
  5  4  1  0
  6  4  1  0
  7  5  1  0
  8  6  1  0
  9  7  1  0
 10  8  1  0
 11  9  1  0
 12 10  1  0
 13 11  1  0
 14 12  1  0
 15 13  1  0
 16 14  1  0
 17 15  1  0
 18 16  1  0
 19  1  1  0
 19  2  1  0
 19 17  1  0
 20 18  1  0
 21 20  2  0
 22  3  1  0
 22 20  1  0
M  END
>  <NAME>  (6055) 
17-METHYLOCTADECANOIC ACID METHYL ESTER

>  <SYNONYMS>  (6055) 


>  <SPECTRUM TYPE>  (6055) 
MS1

>  <INSTRUMENT TYPE>  (6055) 
EI-B

>  <INSTRUMENT>  (6055) 
JEOL JMS-01-SG

>  <ION MODE>  (6055) 
P

>  <INCHIKEY>  (6055) 
MASZVQKLIMRPFY-UHFFFAOYSA-N

>  <FORMULA>  (6055) 
C20H40O2

>  <EXACT MASS>  (6055) 
312.30283052

>  <MW>  (6055) 
312

>  <ID>  (6055) 
JP002181

>  <CONTRIBUTOR>  (6055) 
University of Tokyo Team, {Faculty of Engineering, University of Tokyo

>  <COMMENT>  (6055) 
SMILES=COC(=O)CCCCCCCCCCCCCCCC(C)C
InChI=InChI=1S/C20H40O2/c1-19(2)17-15-13-11-9-7-5-4-6-8-10-12-14-16-18-20(21)22-3/h19H,4-18H2,1-3H3
computed SMILES=O=C(OC)CCCCCCCCCCCCCCCC(C)C
accession=JP002181
date=2016.01.19 (Created 2008.10.21, modified 2011.05.06)
author=KOGA M, UNIV. OF OCCUPATIONAL AND ENVIRONMENTAL HEALTH
license=CC BY-NC-SA
exact mass=312.30283
ionization energy=70 eV
ion type=[M]+*
computed spectral entropy=3.227750980578884
computed normalized entropy=0.7790601063533594
SPLASH=splash10-00dr-9210000000-9b1214cf902bc9d2ee7f
submitter=submitter = University of Tokyo Team (Faculty of Engineering, University of Tokyo)
MoNA Rating=3.75

>  <NUM PEAKS>  (6055) 
63

>  <MASS SPECTRAL PEAKS>  (6055) 
42 9.2
43 3.3
44 18.4
55 3.27
56 5.8
57 34.4
67 5
69 2.35
71 13.4
74 99.99
75 34.4
81 0.42
82 2.5
83 15.1
84 2.5
85 0.58
87 89
88 6.7
92 3.3
93 0.33
95 9.2
97 14.2
98 4.2
99 0.25
101 11.7
108 2.5
109 3.3
111 0.5
113 2.5
120 2.5
129 10
135 0.33
139 3.3
143 26
150 3.3
157 0.92
171 4.2
172 3.3
177 4.2
182 0.25
185 4.2
194 2.5
195 5
198 0.25
199 8.4
200 5
203 5
213 0.58
214 3.3
221 2.5
223 2.5
227 0.58
228 2.5
241 5.8
242 2.5
255 0.5
256 2.5
269 11.7
270 4.2
281 0.5
283 5
312 13.4
313 5

$$$$

     RDKit          2D

 21 20  0  0  0  0  0  0  0  0999 V2000
    6.1704    9.5625    0.0000 C   0  0  0  0  0  0  0  0  0  0  0  0
    4.8714   11.8125    0.0000 C   0  0  0  0  0  0  0  0  0  0  0  0
  -17.2123    9.5625    0.0000 C   0  0  0  0  0  0  0  0  0  0  0  0
   -4.2219    9.5625    0.0000 C   0  0  0  0  0  0  0  0  0  0  0  0
   -5.5209   10.3125    0.0000 C   0  0  0  0  0  0  0  0  0  0  0  0
   -2.9228   10.3125    0.0000 C   0  0  0  0  0  0  0  0  0  0  0  0
   -6.8200    9.5625    0.0000 C   0  0  0  0  0  0  0  0  0  0  0  0
   -1.6238    9.5625    0.0000 C   0  0  0  0  0  0  0  0  0  0  0  0
   -8.1190   10.3125    0.0000 C   0  0  0  0  0  0  0  0  0  0  0  0
   -0.3248   10.3125    0.0000 C   0  0  0  0  0  0  0  0  0  0  0  0
   -9.4180    9.5625    0.0000 C   0  0  0  0  0  0  0  0  0  0  0  0
    0.9743    9.5625    0.0000 C   0  0  0  0  0  0  0  0  0  0  0  0
  -10.7171   10.3125    0.0000 C   0  0  0  0  0  0  0  0  0  0  0  0
    2.2733   10.3125    0.0000 C   0  0  0  0  0  0  0  0  0  0  0  0
  -12.0161    9.5625    0.0000 C   0  0  0  0  0  0  0  0  0  0  0  0
    3.5724    9.5625    0.0000 C   0  0  0  0  0  0  0  0  0  0  0  0
  -13.3151   10.3125    0.0000 C   0  0  0  0  0  0  0  0  0  0  0  0
    4.8714   10.3125    0.0000 C   0  0  0  0  0  0  0  0  0  0  0  0
  -14.6142    9.5625    0.0000 C   0  0  0  0  0  0  0  0  0  0  0  0
  -14.6142    8.0625    0.0000 O   0  0  0  0  0  0  0  0  0  0  0  0
  -15.9132   10.3125    0.0000 O   0  0  0  0  0  0  0  0  0  0  0  0
  5  4  1  0
  6  4  1  0
  7  5  1  0
  8  6  1  0
  9  7  1  0
 10  8  1  0
 11  9  1  0
 12 10  1  0
 13 11  1  0
 14 12  1  0
 15 13  1  0
 16 14  1  0
 17 15  1  0
 18  1  1  0
 18  2  1  0
 18 16  1  0
 19 17  1  0
 20 19  2  0
 21  3  1  0
 21 19  1  0
M  END
>  <NAME>  (6056) 
16-METHYLHEPTADECANOIC ACID METHYL ESTER

>  <SYNONYMS>  (6056) 


>  <SPECTRUM TYPE>  (6056) 
MS1

>  <INSTRUMENT TYPE>  (6056) 
EI-B

>  <INSTRUMENT>  (6056) 
JEOL JMS-01-SG

>  <ION MODE>  (6056) 
P

>  <INCHIKEY>  (6056) 
KDQIFKKWPMBNOH-UHFFFAOYSA-N

>  <FORMULA>  (6056) 
C19H38O2

>  <EXACT MASS>  (6056) 
298.287180456

>  <MW>  (6056) 
298

>  <ID>  (6056) 
JP002180

>  <CONTRIBUTOR>  (6056) 
University of Tokyo Team, {Faculty of Engineering, University of Tokyo

>  <COMMENT>  (6056) 
SMILES=COC(=O)CCCCCCCCCCCCCCC(C)C
InChI=InChI=1S/C19H38O2/c1-18(2)16-14-12-10-8-6-4-5-7-9-11-13-15-17-19(20)21-3/h18H,4-17H2,1-3H3
computed SMILES=O=C(OC)CCCCCCCCCCCCCCC(C)C
accession=JP002180
date=2016.01.19 (Created 2008.10.21, modified 2011.05.06)
author=KOGA M, UNIV. OF OCCUPATIONAL AND ENVIRONMENTAL HEALTH
license=CC BY-NC-SA
exact mass=298.28718
ionization energy=70 eV
ion type=[M]+*
computed spectral entropy=2.9742051209269436
computed normalized entropy=0.720646541509321
SPLASH=splash10-00dr-9200000000-b5765f5af3633a9b717c
submitter=submitter = University of Tokyo Team (Faculty of Engineering, University of Tokyo)
MoNA Rating=3.75

>  <NUM PEAKS>  (6056) 
62

>  <MASS SPECTRAL PEAKS>  (6056) 
44 7.2
55 10.3
56 19.3
59 0.45
67 1.8
68 1.8
69 14.4
70 0.22
71 6.3
74 99.99
75 18
81 0.36
82 2.2
83 10.8
84 3.6
85 0.27
87 53.1
88 4
93 1.8
95 0.36
97 7.6
98 3.6
100 2.2
101 0.67
102 2.7
104 1.3
106 2.2
108 0.22
109 2.2
111 3.6
112 1.3
115 0.18
120 2.7
125 1.8
129 6.3
130 0.13
141 1.8
143 16.2
144 3.1
150 0.13
157 3.6
171 2.2
172 1.3
180 0.13
184 1.8
185 2.2
199 8.1
200 0.22
204 1.3
213 1.8
225 1.3
235 0.13
242 1.3
243 1.3
249 1.3
255 1.57
256 2.7
262 2.2
267 1.8
269 0.18
298 5.8
299 2.2

$$$$

     RDKit          2D

 20 19  0  0  0  0  0  0  0  0999 V2000
  -15.2637   10.6875    0.0000 C   0  0  0  0  0  0  0  0  0  0  0  0
  -13.9647    8.4375    0.0000 C   0  0  0  0  0  0  0  0  0  0  0  0
    6.8200    9.9375    0.0000 C   0  0  0  0  0  0  0  0  0  0  0  0
   -4.8714   10.6875    0.0000 C   0  0  0  0  0  0  0  0  0  0  0  0
   -6.1704    9.9375    0.0000 C   0  0  0  0  0  0  0  0  0  0  0  0
   -3.5724    9.9375    0.0000 C   0  0  0  0  0  0  0  0  0  0  0  0
   -7.4695   10.6875    0.0000 C   0  0  0  0  0  0  0  0  0  0  0  0
   -2.2733   10.6875    0.0000 C   0  0  0  0  0  0  0  0  0  0  0  0
   -8.7685    9.9375    0.0000 C   0  0  0  0  0  0  0  0  0  0  0  0
   -0.9743    9.9375    0.0000 C   0  0  0  0  0  0  0  0  0  0  0  0
  -10.0675   10.6875    0.0000 C   0  0  0  0  0  0  0  0  0  0  0  0
    0.3248   10.6875    0.0000 C   0  0  0  0  0  0  0  0  0  0  0  0
  -11.3666    9.9375    0.0000 C   0  0  0  0  0  0  0  0  0  0  0  0
    1.6238    9.9375    0.0000 C   0  0  0  0  0  0  0  0  0  0  0  0
  -12.6656   10.6875    0.0000 C   0  0  0  0  0  0  0  0  0  0  0  0
    2.9228   10.6875    0.0000 C   0  0  0  0  0  0  0  0  0  0  0  0
  -13.9647    9.9375    0.0000 C   0  0  0  0  0  0  0  0  0  0  0  0
    4.2219    9.9375    0.0000 C   0  0  0  0  0  0  0  0  0  0  0  0
    4.2219    8.4375    0.0000 O   0  0  0  0  0  0  0  0  0  0  0  0
    5.5209   10.6875    0.0000 O   0  0  0  0  0  0  0  0  0  0  0  0
  5  4  1  0
  6  4  1  0
  7  5  1  0
  8  6  1  0
  9  7  1  0
 10  8  1  0
 11  9  1  0
 12 10  1  0
 13 11  1  0
 14 12  1  0
 15 13  1  0
 16 14  1  0
 17  1  1  0
 17  2  1  0
 17 15  1  0
 18 16  1  0
 19 18  2  0
 20  3  1  0
 20 18  1  0
M  END
>  <NAME>  (6057) 
15-METHYLHEXADECANOIC ACID METHYL ESTER

>  <SYNONYMS>  (6057) 


>  <SPECTRUM TYPE>  (6057) 
MS1

>  <INSTRUMENT TYPE>  (6057) 
EI-B

>  <INSTRUMENT>  (6057) 
JEOL JMS-01-SG

>  <ION MODE>  (6057) 
P

>  <INCHIKEY>  (6057) 
BNHKXOIJKIMOJH-UHFFFAOYSA-N

>  <FORMULA>  (6057) 
C18H36O2

>  <EXACT MASS>  (6057) 
284.271530392

>  <MW>  (6057) 
284

>  <ID>  (6057) 
JP002179

>  <CONTRIBUTOR>  (6057) 
University of Tokyo Team, {Faculty of Engineering, University of Tokyo

>  <COMMENT>  (6057) 
SMILES=COC(=O)CCCCCCCCCCCCCC(C)C
InChI=InChI=1S/C18H36O2/c1-17(2)15-13-11-9-7-5-4-6-8-10-12-14-16-18(19)20-3/h17H,4-16H2,1-3H3
computed SMILES=O=C(OC)CCCCCCCCCCCCCC(C)C
accession=JP002179
date=2016.01.19 (Created 2008.10.21, modified 2011.05.06)
author=KOGA M, UNIV. OF OCCUPATIONAL AND ENVIRONMENTAL HEALTH
license=CC BY-NC-SA
exact mass=284.27153
ionization energy=70 eV
ion type=[M]+*
computed spectral entropy=2.7798382043200136
computed normalized entropy=0.6905826913753049
SPLASH=splash10-00dr-9110000000-2928094e268aec8c5f34
submitter=submitter = University of Tokyo Team (Faculty of Engineering, University of Tokyo)
MoNA Rating=3.75

>  <NUM PEAKS>  (6057) 
56

>  <MASS SPECTRAL PEAKS>  (6057) 
43 2
53 1.1
54 1.3
55 2.56
56 2.4
57 9.9
59 5.1
67 0.24
68 1.8
69 12.8
70 1.8
71 0.31
73 1.5
74 99.99
75 22.5
77 0.18
79 1.5
81 3.6
83 9.9
84 0.2
85 1.5
87 70.4
88 5.4
95 0.31
97 9.4
98 2.9
99 1.1
101 0.78
109 1.1
111 3.3
120 1.3
123 0.2
125 2.2
129 5.8
130 1.5
138 0.15
143 20.2
144 1.3
157 2.7
171 0.24
172 1.3
184 2.7
185 4.7
199 0.92
200 1.3
213 2.4
216 1.1
227 0.27
229 1.1
241 15
242 2.9
243 0.11
253 1.5
255 2
284 9.2
285 2

$$$$

     RDKit          2D

 14 13  0  0  0  0  0  0  0  0999 V2000
   -0.6495    7.1250    0.0000 C   0  0  0  0  0  0  0  0  0  0  0  0
   -4.5466    3.3750    0.0000 C   0  0  0  0  0  0  0  0  0  0  0  0
    3.2476    4.8750    0.0000 C   0  0  0  0  0  0  0  0  0  0  0  0
   -8.4437    5.6250    0.0000 C   0  0  0  0  0  0  0  0  0  0  0  0
   -1.9486    4.8750    0.0000 C   0  0  0  0  0  0  0  0  0  0  0  0
   -3.2476    5.6250    0.0000 C   0  0  0  0  0  0  0  0  0  0  0  0
   -0.6495    5.6250    0.0000 C   0  0  0  0  0  0  0  0  0  0  0  0
   -4.5466    4.8750    0.0000 C   0  0  0  0  0  0  0  0  0  0  0  0
    0.6495    4.8750    0.0000 C   0  0  0  0  0  0  0  0  0  0  0  0
   -5.8457    5.6250    0.0000 C   0  0  0  0  0  0  0  0  0  0  0  0
    0.6495    3.3750    0.0000 O   0  0  0  0  0  0  0  0  0  0  0  0
   -5.8457    7.1250    0.0000 O   0  0  0  0  0  0  0  0  0  0  0  0
    1.9486    5.6250    0.0000 O   0  0  0  0  0  0  0  0  0  0  0  0
   -7.1447    4.8750    0.0000 O   0  0  0  0  0  0  0  0  0  0  0  0
  6  5  1  0
  7  1  1  0
  5  7  2  0
  8  2  1  0
  6  8  2  0
  9  7  1  0
 10  8  1  0
 11  9  2  0
 12 10  2  0
 13  3  1  0
 13  9  1  0
 14  4  1  0
 14 10  1  0
M  END
>  <NAME>  (6058) 
2,5-DIMETHYL-2,4-HEXADIENEDIOIC ACID DIMETHYL ESTER

>  <SYNONYMS>  (6058) 


>  <SPECTRUM TYPE>  (6058) 
MS1

>  <INSTRUMENT TYPE>  (6058) 
EI-B

>  <INSTRUMENT>  (6058) 
JEOL JMS-01-SG

>  <ION MODE>  (6058) 
P

>  <INCHIKEY>  (6058) 
DZQYXTIAUQLOHM-KQQUZDAGSA-N

>  <FORMULA>  (6058) 
C10H14O4

>  <EXACT MASS>  (6058) 
198.089208928

>  <MW>  (6058) 
198

>  <ID>  (6058) 
JP002178

>  <CONTRIBUTOR>  (6058) 
University of Tokyo Team, {Faculty of Engineering, University of Tokyo

>  <COMMENT>  (6058) 
SMILES=COC(=O)C(C)=CC=C(C)C(=O)OC
InChI=InChI=1S/C10H14O4/c1-7(9(11)13-3)5-6-8(2)10(12)14-4/h5-6H,1-4H3/b7-5+,8-6+
computed SMILES=O=C(OC)C(=CC=C(C(=O)OC)C)C
accession=JP002178
date=2016.01.19 (Created 2008.10.21, modified 2011.05.06)
author=KOGA M, UNIV. OF OCCUPATIONAL AND ENVIRONMENTAL HEALTH
license=CC BY-NC-SA
exact mass=198.08921
ionization energy=70 eV
ion type=[M]+*
computed spectral entropy=2.9661316093387224
computed normalized entropy=0.7079656420338071
SPLASH=splash10-000i-5900000000-9492163c668e4c95e698
submitter=submitter = University of Tokyo Team (Faculty of Engineering, University of Tokyo)
MoNA Rating=3.75

>  <NUM PEAKS>  (6058) 
66

>  <MASS SPECTRAL PEAKS>  (6058) 
38 1.5
39 9.8
41 8.2
43 1.33
50 1.5
51 4.1
52 2.8
53 0.91
54 1
55 5.2
59 3
62 0.06
63 0.8
65 1.9
66 1.5
67 0.41
68 1.3
69 5.4
77 10.2
78 0.24
79 15.9
80 2.6
81 2.8
82 0.06
83 2.1
84 0.6
95 5.2
96 0.56
97 15.7
98 2.8
106 1.3
107 1.31
108 2.8
109 1.7
110 1.3
111 0.3
112 12.4
113 1
117 0.8
121 0.1
122 1
123 3.7
124 5.2
125 0.08
127 0.6
135 1
137 3.4
138 0.32
139 99.99
140 8.9
141 1.3
142 0.06
143 1.7
151 6.7
152 1
153 0.13
155 0.8
165 0.8
166 1.3
167 0.76
168 1
183 1.9
184 1
197 0.06
198 9.3
199 1

$$$$

     RDKit          2D

 12 12  0  0  0  0  0  0  0  0999 V2000
   -5.5207    3.1321    0.0000 C   0  0  0  0  0  0  0  0  0  0  0  0
    3.5726    0.8821    0.0000 C   0  0  0  0  0  0  0  0  0  0  0  0
    3.5731    2.3829    0.0000 C   0  0  0  0  0  0  0  0  0  0  0  0
    2.2731    0.1313    0.0000 C   0  0  0  0  0  0  0  0  0  0  0  0
    2.2740    3.1329    0.0000 C   0  0  0  0  0  0  0  0  0  0  0  0
    0.9740    0.8813    0.0000 C   0  0  0  0  0  0  0  0  0  0  0  0
   -0.3245    3.1321    0.0000 C   0  0  0  0  0  0  0  0  0  0  0  0
   -1.6236    2.3821    0.0000 C   0  0  0  0  0  0  0  0  0  0  0  0
    0.9745    2.3821    0.0000 C   0  0  0  0  0  0  0  0  0  0  0  0
   -2.9226    3.1321    0.0000 C   0  0  0  0  0  0  0  0  0  0  0  0
   -2.9226    4.6321    0.0000 O   0  0  0  0  0  0  0  0  0  0  0  0
   -4.2216    2.3821    0.0000 O   0  0  0  0  0  0  0  0  0  0  0  0
  3  2  2  0
  4  2  1  0
  5  3  1  0
  6  4  2  0
  7  8  2  0
  9  5  2  0
  9  6  1  0
  9  7  1  0
 10  8  1  0
 11 10  2  0
 12  1  1  0
 12 10  1  0
M  END
>  <NAME>  (6059) 
TRANS-CINNAMIC ACID METHYL ESTER

>  <SYNONYMS>  (6059) 


>  <SPECTRUM TYPE>  (6059) 
MS1

>  <INSTRUMENT TYPE>  (6059) 
EI-B

>  <INSTRUMENT>  (6059) 
JEOL JMS-01-SG

>  <ION MODE>  (6059) 
P

>  <INCHIKEY>  (6059) 
CCRCUPLGCSFEDV-BQYQJAHWSA-N

>  <FORMULA>  (6059) 
C10H10O2

>  <EXACT MASS>  (6059) 
162.06807956

>  <MW>  (6059) 
162

>  <ID>  (6059) 
JP002177

>  <CONTRIBUTOR>  (6059) 
University of Tokyo Team, {Faculty of Engineering, University of Tokyo

>  <COMMENT>  (6059) 
SMILES=COC(=O)C=Cc(c1)cccc1
InChI=InChI=1S/C10H10O2/c1-12-10(11)8-7-9-5-3-2-4-6-9/h2-8H,1H3/b8-7+
computed SMILES=O=C(OC)C=CC=1C=CC=CC1
accession=JP002177
date=2016.01.19 (Created 2008.10.21, modified 2011.05.06)
author=KOGA M, UNIV. OF OCCUPATIONAL AND ENVIRONMENTAL HEALTH
license=CC BY-NC-SA
exact mass=162.06808
ionization energy=70 eV
ion type=[M]+*
computed spectral entropy=2.7113039488030393
computed normalized entropy=0.6966673024752207
SPLASH=splash10-0w29-4900000000-ff0f82861ca2b55e4c51
submitter=submitter = University of Tokyo Team (Faculty of Engineering, University of Tokyo)
MoNA Rating=3.75

>  <NUM PEAKS>  (6059) 
49

>  <MASS SPECTRAL PEAKS>  (6059) 
37 1.3
38 2.4
39 5.4
49 0.11
50 12
51 36
52 5.6
53 0.09
61 0.9
62 2.9
63 5.6
65 0.24
75 6.5
76 9.2
77 55.1
78 0.56
79 1.5
85 1.1
87 0.9
89 0.2
90 1.3
91 5.8
92 1.8
101 0.27
102 19.7
103 99.99
104 13.1
105 0.24
106 0.9
107 1.3
115 0.9
116 0.22
117 5.4
118 1.3
119 0.9
121 0.15
130 4.9
131 48.2
132 15.6
133 0.24
134 2
144 2.9
145 1.1
146 0.11
147 2.9
161 36.7
162 73.2
163 0.83
164 0.9

$$$$

     RDKit          2D

 12 11  0  0  0  0  0  0  0  0999 V2000
   -8.4437    5.6250    0.0000 C   0  0  0  0  0  0  0  0  0  0  0  0
    3.2476    4.8750    0.0000 C   0  0  0  0  0  0  0  0  0  0  0  0
   -3.2476    5.6250    0.0000 C   0  0  0  0  0  0  0  0  0  0  0  0
   -1.9486    4.8750    0.0000 C   0  0  0  0  0  0  0  0  0  0  0  0
   -4.5466    4.8750    0.0000 C   0  0  0  0  0  0  0  0  0  0  0  0
   -0.6495    5.6250    0.0000 C   0  0  0  0  0  0  0  0  0  0  0  0
   -5.8457    5.6250    0.0000 C   0  0  0  0  0  0  0  0  0  0  0  0
    0.6495    4.8750    0.0000 C   0  0  0  0  0  0  0  0  0  0  0  0
   -5.8457    7.1250    0.0000 O   0  0  0  0  0  0  0  0  0  0  0  0
    0.6495    3.3750    0.0000 O   0  0  0  0  0  0  0  0  0  0  0  0
   -7.1447    4.8750    0.0000 O   0  0  0  0  0  0  0  0  0  0  0  0
    1.9486    5.6250    0.0000 O   0  0  0  0  0  0  0  0  0  0  0  0
  3  4  2  0
  5  3  1  0
  6  4  1  0
  7  5  1  0
  8  6  1  0
  9  7  2  0
 10  8  2  0
 11  1  1  0
 11  7  1  0
 12  2  1  0
 12  8  1  0
M  END
>  <NAME>  (6060) 
TRANS-2-BUTENE-1,4-DICARBOXYLIC ACID DIMETHYL ESTER

>  <SYNONYMS>  (6060) 


>  <SPECTRUM TYPE>  (6060) 
MS1

>  <INSTRUMENT TYPE>  (6060) 
EI-B

>  <INSTRUMENT>  (6060) 
JEOL JMS-01-SG

>  <ION MODE>  (6060) 
P

>  <INCHIKEY>  (6060) 
CPSQPCGPYWRIPB-ONEGZZNKSA-N

>  <FORMULA>  (6060) 
C8H12O4

>  <EXACT MASS>  (6060) 
172.073558864

>  <MW>  (6060) 
172

>  <ID>  (6060) 
JP002176

>  <CONTRIBUTOR>  (6060) 
University of Tokyo Team, {Faculty of Engineering, University of Tokyo

>  <COMMENT>  (6060) 
SMILES=COC(=O)CC=CCC(=O)OC
InChI=InChI=1S/C8H12O4/c1-11-7(9)5-3-4-6-8(10)12-2/h3-4H,5-6H2,1-2H3/b4-3+
computed SMILES=O=C(OC)CC=CCC(=O)OC
accession=JP002176
date=2016.01.19 (Created 2008.10.21, modified 2011.05.06)
author=KOGA M, UNIV. OF OCCUPATIONAL AND ENVIRONMENTAL HEALTH
license=CC BY-NC-SA
exact mass=172.07356
ionization energy=70 eV
ion type=[M]+*
computed spectral entropy=2.8228127905728937
computed normalized entropy=0.7076520631874154
SPLASH=splash10-0a4l-9600000000-44e4fd3fc9889abd1c39
submitter=submitter = University of Tokyo Team (Faculty of Engineering, University of Tokyo)
MoNA Rating=3.75

>  <NUM PEAKS>  (6060) 
54

>  <MASS SPECTRAL PEAKS>  (6060) 
37 0.9
38 2.3
39 21.2
40 0.14
41 39.4
42 3.7
43 3.7
44 0.04
49 0.4
50 3
51 4.9
52 0.44
53 24
54 26.8
55 10.9
59 99.99
60 1.4
67 1.8
68 3.5
69 0.53
71 37.6
72 6.3
74 1.6
75 0.07
79 0.7
80 5.1
81 22.8
82 0.46
83 1.4
84 0.9
85 3.9
86 0.09
87 1.1
97 5.3
98 4.2
99 0.28
101 3.5
108 75.7
109 4.2
111 0.3
112 15.8
113 45.5
114 3.9
127 0.14
130 2.5
131 0.7
140 85.9
141 1.44
142 1.6
149 0.4
155 1.1
157 0.07
172 2.3
173 0.4

$$$$

     RDKit          2D

 25 24  0  0  0  0  0  0  0  0999 V2000
   -1.3000    0.7500    0.0000 C   0  0  0  0  0  0  0  0  0  0  0  0
    0.0000    1.5000    0.0000 C   0  0  0  0  0  0  0  0  0  0  0  0
   -1.3000   -0.7500    0.0000 C   0  0  0  0  0  0  0  0  0  0  0  0
    1.3000    0.7500    0.0000 C   0  0  0  0  0  0  0  0  0  0  0  0
   -0.0000   -1.5000    0.0000 C   0  0  0  0  0  0  0  0  0  0  0  0
    1.3000   -0.7500    0.0000 C   0  0  0  0  0  3  0  0  0  0  0  0
   -1.3000    0.7500    0.0000 C   0  0  0  0  0  0  0  0  0  0  0  0
    0.0000    1.5000    0.0000 C   0  0  0  0  0  0  0  0  0  0  0  0
   -1.3000   -0.7500    0.0000 C   0  0  0  0  0  0  0  0  0  0  0  0
    1.3000    0.7500    0.0000 C   0  0  0  0  0  0  0  0  0  0  0  0
   -0.0000   -1.5000    0.0000 C   0  0  0  0  0  0  0  0  0  0  0  0
    1.3000   -0.7500    0.0000 C   0  0  0  0  0  3  0  0  0  0  0  0
   -1.3000    0.7500    0.0000 C   0  0  0  0  0  0  0  0  0  0  0  0
    0.0000    1.5000    0.0000 C   0  0  0  0  0  0  0  0  0  0  0  0
   -1.3000   -0.7500    0.0000 C   0  0  0  0  0  0  0  0  0  0  0  0
    1.3000    0.7500    0.0000 C   0  0  0  0  0  0  0  0  0  0  0  0
   -0.0000   -1.5000    0.0000 C   0  0  0  0  0  0  0  0  0  0  0  0
    1.3000   -0.7500    0.0000 C   0  0  0  0  0  3  0  0  0  0  0  0
   -1.3000    0.7500    0.0000 C   0  0  0  0  0  0  0  0  0  0  0  0
    0.0000    1.5000    0.0000 C   0  0  0  0  0  0  0  0  0  0  0  0
   -1.3000   -0.7500    0.0000 C   0  0  0  0  0  0  0  0  0  0  0  0
    1.3000    0.7500    0.0000 C   0  0  0  0  0  0  0  0  0  0  0  0
   -0.0000   -1.5000    0.0000 C   0  0  0  0  0  0  0  0  0  0  0  0
    1.3000   -0.7500    0.0000 C   0  0  0  0  0  3  0  0  0  0  0  0
    0.0000    0.0000    0.0000 Sn  0  0  0  0  0 15  0  0  0  0  0  0
  2  1  2  0
  3  1  1  0
  4  2  1  0
  5  3  2  0
  6  4  2  0
  6  5  1  0
  8  7  2  0
  9  7  1  0
 10  8  1  0
 11  9  2  0
 12 10  2  0
 12 11  1  0
 14 13  2  0
 15 13  1  0
 16 14  1  0
 17 15  2  0
 18 16  2  0
 18 17  1  0
 20 19  2  0
 21 19  1  0
 22 20  1  0
 23 21  2  0
 24 22  2  0
 24 23  1  0
M  RAD  4   6   2  12   2  18   2  24   2
M  END
>  <NAME>  (6061) 
TETRAPHENYLTIN

>  <SYNONYMS>  (6061) 


>  <SPECTRUM TYPE>  (6061) 
MS1

>  <INSTRUMENT TYPE>  (6061) 
EI-B

>  <INSTRUMENT>  (6061) 
VARIAN MAT-44

>  <ION MODE>  (6061) 
P

>  <INCHIKEY>  (6061) 
CRHIAMBJMSSNNM-UHFFFAOYSA-N

>  <FORMULA>  (6061) 
C24H20Sn

>  <EXACT MASS>  (6061) 
428.05869534

>  <MW>  (6061) 
428

>  <ID>  (6061) 
JP002175

>  <CONTRIBUTOR>  (6061) 
University of Tokyo Team, {Faculty of Engineering, University of Tokyo

>  <COMMENT>  (6061) 
SMILES=c([Sn](c(c4)cccc4)(c(c3)cccc3)c(c2)cccc2)(c1)cccc1
InChI=InChI=1S/4C6H5.Sn/c4*1-2-4-6-5-3-1;/h4*1-5H;
computed SMILES=[Sn].[C]=1C=CC=CC1.[C]=1C=CC=CC1.[C]=1C=CC=CC1.[C]=1C=CC=CC1
accession=JP002175
date=2016.01.19 (Created 2008.10.21, modified 2011.05.06)
author=KOGA M, UNIV. OF OCCUPATIONAL AND ENVIRONMENTAL HEALTH
license=CC BY-NC-SA
exact mass=428.0587
ionization energy=70 eV
ion type=[M]+*
computed spectral entropy=3.5904165516519964
computed normalized entropy=0.8368373133230179
SPLASH=splash10-0f6t-1925000000-50dff29b233b751a3a0a
submitter=submitter = University of Tokyo Team (Faculty of Engineering, University of Tokyo)
MoNA Rating=3.75

>  <NUM PEAKS>  (6061) 
73

>  <MASS SPECTRAL PEAKS>  (6061) 
45 4.31
50 10.07
51 38.84
52 3.95
55 7.19
56 2.51
57 9.35
60 3.95
70 1.07
71 3.23
73 2.87
74 1.43
75 1.43
77 14.38
78 4.67
83 1.79
85 2.15
112 3.59
113 1.07
114 1.79
115 3.59
116 45.68
117 26.61
118 75.89
119 26.97
120 99.99
121 2.15
122 14.74
124 16.9
141 1.43
143 2.51
145 3.23
151 1.43
152 8.63
153 6.11
154 8.99
155 1.79
169 1.07
189 1.79
191 1.79
192 2.51
193 34.17
194 21.94
195 56.83
196 25.89
197 74.46
198 4.67
199 10.07
200 1.07
201 12.23
268 1.43
269 2.51
270 17.98
271 14.02
272 30.57
273 17.98
274 37.05
275 4.67
276 5.39
278 5.75
343 2.51
345 1.79
346 2.15
347 38.12
348 31.29
349 73.74
350 42.08
351 92.8
352 18.7
353 14.38
354 2.87
355 15.82
356 2.51

$$$$

     RDKit          2D

 20 18  0  0  0  0  0  0  0  0999 V2000
   -1.3000    0.7500    0.0000 C   0  0  0  0  0  0  0  0  0  0  0  0
    0.0000    1.5000    0.0000 C   0  0  0  0  0  0  0  0  0  0  0  0
   -1.3000   -0.7500    0.0000 C   0  0  0  0  0  0  0  0  0  0  0  0
    1.3000    0.7500    0.0000 C   0  0  0  0  0  0  0  0  0  0  0  0
   -0.0000   -1.5000    0.0000 C   0  0  0  0  0  0  0  0  0  0  0  0
    1.3000   -0.7500    0.0000 C   0  0  0  0  0  3  0  0  0  0  0  0
   -1.3000    0.7500    0.0000 C   0  0  0  0  0  0  0  0  0  0  0  0
    0.0000    1.5000    0.0000 C   0  0  0  0  0  0  0  0  0  0  0  0
   -1.3000   -0.7500    0.0000 C   0  0  0  0  0  0  0  0  0  0  0  0
    1.3000    0.7500    0.0000 C   0  0  0  0  0  0  0  0  0  0  0  0
   -0.0000   -1.5000    0.0000 C   0  0  0  0  0  0  0  0  0  0  0  0
    1.3000   -0.7500    0.0000 C   0  0  0  0  0  3  0  0  0  0  0  0
   -1.3000    0.7500    0.0000 C   0  0  0  0  0  0  0  0  0  0  0  0
    0.0000    1.5000    0.0000 C   0  0  0  0  0  0  0  0  0  0  0  0
   -1.3000   -0.7500    0.0000 C   0  0  0  0  0  0  0  0  0  0  0  0
    1.3000    0.7500    0.0000 C   0  0  0  0  0  0  0  0  0  0  0  0
   -0.0000   -1.5000    0.0000 C   0  0  0  0  0  0  0  0  0  0  0  0
    1.3000   -0.7500    0.0000 C   0  0  0  0  0  3  0  0  0  0  0  0
    0.0000    0.0000    0.0000 Cl  0  0  0  0  0  0  0  0  0  0  0  0
    0.0000    0.0000    0.0000 Sn  0  0  0  0  0 15  0  0  0  0  0  0
  2  1  2  0
  3  1  1  0
  4  2  1  0
  5  3  2  0
  6  4  2  0
  6  5  1  0
  8  7  2  0
  9  7  1  0
 10  8  1  0
 11  9  2  0
 12 10  2  0
 12 11  1  0
 14 13  2  0
 15 13  1  0
 16 14  1  0
 17 15  2  0
 18 16  2  0
 18 17  1  0
M  CHG  2  19  -1  20   1
M  RAD  3   6   2  12   2  18   2
M  END
>  <NAME>  (6062) 
TRIPHENYLTIN CHLORIDE

>  <SYNONYMS>  (6062) 


>  <SPECTRUM TYPE>  (6062) 
MS1

>  <INSTRUMENT TYPE>  (6062) 
EI-B

>  <INSTRUMENT>  (6062) 
VARIAN MAT-44

>  <ION MODE>  (6062) 
P

>  <INCHIKEY>  (6062) 
NJVOZLGKTAPUTQ-UHFFFAOYSA-M

>  <FORMULA>  (6062) 
C18H15ClSn

>  <EXACT MASS>  (6062) 
385.98842286

>  <MW>  (6062) 
386

>  <ID>  (6062) 
JP002173

>  <CONTRIBUTOR>  (6062) 
University of Tokyo Team, {Faculty of Engineering, University of Tokyo

>  <COMMENT>  (6062) 
SMILES=c(c3)ccc(c3)[Sn](Cl)(c(c2)cccc2)c(c1)cccc1
InChI=InChI=1S/3C6H5.ClH.Sn/c3*1-2-4-6-5-3-1;;/h3*1-5H;1H;/q;;;;+1/p-1
computed SMILES=[Cl-].[Sn+].[C]=1C=CC=CC1.[C]=1C=CC=CC1.[C]=1C=CC=CC1
accession=JP002173
date=2016.01.19 (Created 2008.10.21, modified 2011.05.06)
author=KOGA M, UNIV. OF OCCUPATIONAL AND ENVIRONMENTAL HEALTH
license=CC BY-NC-SA
exact mass=385.98842
ionization energy=70 eV
ion type=[M]+*
computed spectral entropy=3.41446139399395
computed normalized entropy=0.8064184002661802
SPLASH=splash10-0zfr-4905000000-fb1d0dfd80a55e5f5e4b
submitter=submitter = University of Tokyo Team (Faculty of Engineering, University of Tokyo)
MoNA Rating=3.75

>  <NUM PEAKS>  (6062) 
69

>  <MASS SPECTRAL PEAKS>  (6062) 
51 93.44
52 6.2
63 1.32
74 4.25
75 4.03
76 6.02
77 59.99
78 5.74
115 1.36
116 5.65
117 3.88
118 9.78
119 4.54
120 12.97
122 1.83
124 2.2
143 1.66
145 2.12
147 1.2
149 1.54
150 1.79
151 16.2
152 16.36
153 37.32
154 99.99
155 50.89
156 4.77
157 14.52
159 6.05
161 1.42
193 8.03
194 5.67
195 13.38
196 6.86
197 16.73
198 1.45
199 2.41
201 2.76
228 1.17
229 1.3
230 3.12
231 6.22
232 3.22
301 1.12
303 1.23
304 5.06
305 17.85
306 19.19
307 34.34
308 29.07
309 39.82
310 13.51
311 14.85
312 4.56
313 6.51
314 1.63
315 1.75
346 1.18
347 2.52
348 3.23
349 3.72
350 4.09
351 3.16
382 1.37
383 2.08
384 2.38
385 3.04
386 2.45
387 1.36

$$$$

     RDKit          2D

 17 12  0  0  0  0  0  0  0  0999 V2000
   -2.5981    2.2500    0.0000 C   0  0  0  0  0  3  0  0  0  0  0  0
    1.2990    1.5000    0.0000 C   0  0  0  0  0  0  0  0  0  0  0  0
   -1.2990    1.5000    0.0000 C   0  0  0  0  0  0  0  0  0  0  0  0
    0.0000    2.2500    0.0000 C   0  0  0  0  0  0  0  0  0  0  0  0
   -2.5981    2.2500    0.0000 C   0  0  0  0  0  3  0  0  0  0  0  0
    1.2990    1.5000    0.0000 C   0  0  0  0  0  0  0  0  0  0  0  0
   -1.2990    1.5000    0.0000 C   0  0  0  0  0  0  0  0  0  0  0  0
    0.0000    2.2500    0.0000 C   0  0  0  0  0  0  0  0  0  0  0  0
   -2.5981    2.2500    0.0000 C   0  0  0  0  0  3  0  0  0  0  0  0
    1.2990    1.5000    0.0000 C   0  0  0  0  0  0  0  0  0  0  0  0
   -1.2990    1.5000    0.0000 C   0  0  0  0  0  0  0  0  0  0  0  0
    0.0000    2.2500    0.0000 C   0  0  0  0  0  0  0  0  0  0  0  0
    0.9743    0.5625    0.0000 C   0  0  0  0  0  0  0  0  0  0  0  0
   -0.3248    1.3125    0.0000 C   0  0  0  0  0  0  0  0  0  0  0  0
   -1.6238    0.5625    0.0000 O   0  0  0  0  0  0  0  0  0  0  0  0
   -0.3248    2.8125    0.0000 O   0  0  0  0  0  0  0  0  0  0  0  0
    0.0000    0.0000    0.0000 Sn  0  0  0  0  0 15  0  0  0  0  0  0
  3  1  1  0
  4  2  1  0
  4  3  1  0
  7  5  1  0
  8  6  1  0
  8  7  1  0
 11  9  1  0
 12 10  1  0
 12 11  1  0
 14 13  1  0
 15 14  2  0
 16 14  1  0
M  CHG  2  16  -1  17   1
M  RAD  3   1   2   5   2   9   2
M  END
>  <NAME>  (6063) 
TRIBUTYLTIN ACETATE

>  <SYNONYMS>  (6063) 
TRIBUTYLSTANNYL ACETATE

>  <SPECTRUM TYPE>  (6063) 
MS1

>  <INSTRUMENT TYPE>  (6063) 
EI-B

>  <INSTRUMENT>  (6063) 
VARIAN MAT-44

>  <ION MODE>  (6063) 
P

>  <INCHIKEY>  (6063) 
PWBHRVGYSMBMIO-UHFFFAOYSA-M

>  <FORMULA>  (6063) 
C14H30O2Sn

>  <EXACT MASS>  (6063) 
350.1267749

>  <MW>  (6063) 
350

>  <ID>  (6063) 
JP002172

>  <CONTRIBUTOR>  (6063) 
University of Tokyo Team, {Faculty of Engineering, University of Tokyo

>  <COMMENT>  (6063) 
SMILES=CCCC[Sn](CCCC)(CCCC)OC(C)=O
InChI=InChI=1S/3C4H9.C2H4O2.Sn/c3*1-3-4-2;1-2(3)4;/h3*1,3-4H2,2H3;1H3,(H,3,4);/q;;;;+1/p-1
computed SMILES=[Sn+].O=C([O-])C.[CH2]CCC.[CH2]CCC.[CH2]CCC
accession=JP002172
date=2016.01.19 (Created 2008.10.21, modified 2011.05.06)
author=KOGA M, UNIV. OF OCCUPATIONAL AND ENVIRONMENTAL HEALTH
license=CC BY-NC-SA
exact mass=350.12678
ionization energy=70 eV
ion type=[M]+*
computed spectral entropy=3.597820026938593
computed normalized entropy=0.8210402005478339
SPLASH=splash10-002f-1890000000-e100f32d003c01572593
submitter=submitter = University of Tokyo Team (Faculty of Engineering, University of Tokyo)
MoNA Rating=3.75

>  <NUM PEAKS>  (6063) 
80

>  <MASS SPECTRAL PEAKS>  (6063) 
53 1.33
55 4.46
56 2.15
57 32.81
58 1.56
60 2.8
69 24.07
76 3.25
100 1.2
116 2.21
117 8.73
118 7.82
119 20.56
120 9.97
121 18.86
122 1.17
123 3.97
125 3.25
126 1.72
131 5.83
132 1.49
133 9.44
134 5.79
135 15.44
136 5.44
137 18.44
138 1.36
139 4.07
141 3.19
145 1.43
147 2.08
149 2.37
153 1.07
155 1.3
169 4.33
171 2.6
173 13.39
174 9.18
175 48.12
176 25.83
177 74.09
178 22.9
179 69.4
180 4
181 19.74
182 1.04
183 11.4
213 1.07
229 6.25
230 4.43
231 12.74
232 6.77
233 18.21
234 4.13
235 6.41
236 1.92
237 4.72
249 1.14
251 1.98
253 2.47
265 1.04
267 1.95
268 1.01
269 2.96
271 1.14
285 3.16
287 3.71
288 5.27
289 51.31
290 39.36
291 84.09
292 47.73
293 99.99
294 13.62
295 15.34
296 4.04
297 15.21
298 1.79
376 1.23
471 1.07

$$$$

     RDKit          2D

 17 12  0  0  0  0  0  0  0  0999 V2000
   -2.5981    2.2500    0.0000 C   0  0  0  0  0  3  0  0  0  0  0  0
    1.2990    1.5000    0.0000 C   0  0  0  0  0  0  0  0  0  0  0  0
   -1.2990    1.5000    0.0000 C   0  0  0  0  0  0  0  0  0  0  0  0
    0.0000    2.2500    0.0000 C   0  0  0  0  0  0  0  0  0  0  0  0
   -2.5981    2.2500    0.0000 C   0  0  0  0  0  3  0  0  0  0  0  0
    1.2990    1.5000    0.0000 C   0  0  0  0  0  0  0  0  0  0  0  0
   -1.2990    1.5000    0.0000 C   0  0  0  0  0  0  0  0  0  0  0  0
    0.0000    2.2500    0.0000 C   0  0  0  0  0  0  0  0  0  0  0  0
   -2.5981    2.2500    0.0000 C   0  0  0  0  0  3  0  0  0  0  0  0
    1.2990    1.5000    0.0000 C   0  0  0  0  0  0  0  0  0  0  0  0
   -1.2990    1.5000    0.0000 C   0  0  0  0  0  0  0  0  0  0  0  0
    0.0000    2.2500    0.0000 C   0  0  0  0  0  0  0  0  0  0  0  0
   -2.5981    2.2500    0.0000 C   0  0  0  0  0  3  0  0  0  0  0  0
    1.2990    1.5000    0.0000 C   0  0  0  0  0  0  0  0  0  0  0  0
   -1.2990    1.5000    0.0000 C   0  0  0  0  0  0  0  0  0  0  0  0
    0.0000    2.2500    0.0000 C   0  0  0  0  0  0  0  0  0  0  0  0
    0.0000    0.0000    0.0000 Sn  0  0  0  0  0 15  0  0  0  0  0  0
  3  1  1  0
  4  2  1  0
  4  3  1  0
  7  5  1  0
  8  6  1  0
  8  7  1  0
 11  9  1  0
 12 10  1  0
 12 11  1  0
 15 13  1  0
 16 14  1  0
 16 15  1  0
M  RAD  4   1   2   5   2   9   2  13   2
M  END
>  <NAME>  (6064) 
TETRABUTYLTIN

>  <SYNONYMS>  (6064) 


>  <SPECTRUM TYPE>  (6064) 
MS1

>  <INSTRUMENT TYPE>  (6064) 
EI-B

>  <INSTRUMENT>  (6064) 
VARIAN MAT-44

>  <ION MODE>  (6064) 
P

>  <INCHIKEY>  (6064) 
AFCAKJKUYFLYFK-UHFFFAOYSA-N

>  <FORMULA>  (6064) 
C16H36Sn

>  <EXACT MASS>  (6064) 
348.183895852

>  <MW>  (6064) 
348

>  <ID>  (6064) 
JP002171

>  <CONTRIBUTOR>  (6064) 
University of Tokyo Team, {Faculty of Engineering, University of Tokyo

>  <COMMENT>  (6064) 
SMILES=CCCC[Sn](CCCC)(CCCC)CCCC
InChI=InChI=1S/4C4H9.Sn/c4*1-3-4-2;/h4*1,3-4H2,2H3;
computed SMILES=[Sn].[CH2]CCC.[CH2]CCC.[CH2]CCC.[CH2]CCC
accession=JP002171
date=2016.01.19 (Created 2008.10.21, modified 2011.05.06)
author=KOGA M, UNIV. OF OCCUPATIONAL AND ENVIRONMENTAL HEALTH
license=CC BY-NC-SA
exact mass=348.1839
ionization energy=70 eV
ion type=[M]+*
computed spectral entropy=3.5603305702513377
computed normalized entropy=0.8844768963779944
SPLASH=splash10-004i-0970000000-9caf9a7cb591d1b2bc1d
submitter=submitter = University of Tokyo Team (Faculty of Engineering, University of Tokyo)
MoNA Rating=3.75

>  <NUM PEAKS>  (6064) 
56

>  <MASS SPECTRAL PEAKS>  (6064) 
116 9.56
117 31.14
118 28.87
119 60.94
120 38.51
121 68.86
122 9.02
123 27.43
124 3.51
125 12.34
127 3.54
131 5.41
133 4.18
135 5.17
145 4.82
147 9.38
148 4.12
149 11.09
151 6.98
171 3.95
173 14.46
174 15.52
175 64.28
176 42.93
177 98.41
178 39.54
179 99.99
180 6.85
181 17.63
183 15.76
203 4.19
204 3.02
205 6.9
206 3.45
207 8.53
230 4.93
231 36.32
232 29.57
233 62.05
234 35.11
235 76.24
236 8.35
237 11.04
239 12.86
261 3.21
263 3.95
286 5.65
287 36.89
288 33.02
289 61.95
290 41.31
291 74.9
292 12.1
293 11.26
294 3.45
295 12.58

$$$$

     RDKit          2D

 14  9  0  0  0  0  0  0  0  0999 V2000
   -2.5981    2.2500    0.0000 C   0  0  0  0  0  3  0  0  0  0  0  0
    1.2990    1.5000    0.0000 C   0  0  0  0  0  0  0  0  0  0  0  0
   -1.2990    1.5000    0.0000 C   0  0  0  0  0  0  0  0  0  0  0  0
    0.0000    2.2500    0.0000 C   0  0  0  0  0  0  0  0  0  0  0  0
   -2.5981    2.2500    0.0000 C   0  0  0  0  0  3  0  0  0  0  0  0
    1.2990    1.5000    0.0000 C   0  0  0  0  0  0  0  0  0  0  0  0
   -1.2990    1.5000    0.0000 C   0  0  0  0  0  0  0  0  0  0  0  0
    0.0000    2.2500    0.0000 C   0  0  0  0  0  0  0  0  0  0  0  0
   -2.5981    2.2500    0.0000 C   0  0  0  0  0  3  0  0  0  0  0  0
    1.2990    1.5000    0.0000 C   0  0  0  0  0  0  0  0  0  0  0  0
   -1.2990    1.5000    0.0000 C   0  0  0  0  0  0  0  0  0  0  0  0
    0.0000    2.2500    0.0000 C   0  0  0  0  0  0  0  0  0  0  0  0
    0.0000    0.0000    0.0000 Cl  0  0  0  0  0  0  0  0  0  0  0  0
    0.0000    0.0000    0.0000 Sn  0  0  0  0  0 15  0  0  0  0  0  0
  3  1  1  0
  4  2  1  0
  4  3  1  0
  7  5  1  0
  8  6  1  0
  8  7  1  0
 11  9  1  0
 12 10  1  0
 12 11  1  0
M  CHG  2  13  -1  14   1
M  RAD  3   1   2   5   2   9   2
M  END
>  <NAME>  (6065) 
TRI-BUTYLTIN CHLORIDE

>  <SYNONYMS>  (6065) 


>  <SPECTRUM TYPE>  (6065) 
MS1

>  <INSTRUMENT TYPE>  (6065) 
EI-B

>  <INSTRUMENT>  (6065) 
VARIAN MAT-44

>  <ION MODE>  (6065) 
P

>  <INCHIKEY>  (6065) 
GCTFWCDSFPMHHS-UHFFFAOYSA-M

>  <FORMULA>  (6065) 
C12H27ClSn

>  <EXACT MASS>  (6065) 
326.082323244

>  <MW>  (6065) 
326

>  <ID>  (6065) 
JP002170

>  <CONTRIBUTOR>  (6065) 
University of Tokyo Team, {Faculty of Engineering, University of Tokyo

>  <COMMENT>  (6065) 
SMILES=CCCC[Sn](Cl)(CCCC)CCCC
InChI=InChI=1S/3C4H9.ClH.Sn/c3*1-3-4-2;;/h3*1,3-4H2,2H3;1H;/q;;;;+1/p-1
computed SMILES=[Cl-].[Sn+].[CH2]CCC.[CH2]CCC.[CH2]CCC
accession=JP002170
date=2016.01.19 (Created 2008.10.21, modified 2011.05.06)
author=KOGA M, UNIV. OF OCCUPATIONAL AND ENVIRONMENTAL HEALTH
license=CC BY-NC-SA
exact mass=326.08233
ionization energy=70 eV
ion type=[M]+*
computed spectral entropy=3.895724708456186
computed normalized entropy=0.8657532193289984
SPLASH=splash10-066r-2690000000-7b10b43b6782c3d055b4
submitter=submitter = University of Tokyo Team (Faculty of Engineering, University of Tokyo)
MoNA Rating=3.75

>  <NUM PEAKS>  (6065) 
90

>  <MASS SPECTRAL PEAKS>  (6065) 
51 1.18
53 3.2
54 1.73
55 11.8
56 12.88
57 99.99
58 6.24
69 2
71 1.83
115 1.03
116 3.87
117 8.99
118 9.39
119 15.18
120 11.94
121 18.88
122 1.84
123 4.2
124 1.3
125 3.52
133 1.58
134 1.07
135 1.79
145 1.49
147 2.69
149 2.66
150 2.41
151 12.22
152 10.64
153 23.21
154 14.17
155 32.31
156 4.73
157 12.7
158 1.05
159 5.91
161 1.52
171 1.12
172 2.23
173 11.09
174 9.6
175 19.89
176 12.14
177 25.12
178 4.16
179 7.68
180 1.65
181 5.16
182 1.1
183 1.73
207 2.38
208 4.06
209 12.91
210 11.78
211 22.44
212 14.3
213 25.42
214 5.52
215 9.6
216 1.6
217 4.45
219 1.13
230 1.24
231 2.83
232 3.11
233 4.25
234 3.7
235 4.04
261 1.84
263 2.49
264 7.64
265 25.04
266 28.07
267 44.81
268 36.75
269 52.21
270 15.36
271 21.63
272 4.78
273 10.41
274 1.74
275 2.76
287 4.81
288 4.58
289 7.68
290 5.61
291 9.11
292 1.74
293 1.52
295 1.59

$$$$

     RDKit          2D

 14  9  0  0  0  0  0  0  0  0999 V2000
   -2.5981    2.2500    0.0000 C   0  0  0  0  0  3  0  0  0  0  0  0
    1.2990    1.5000    0.0000 C   0  0  0  0  0  0  0  0  0  0  0  0
   -1.2990    1.5000    0.0000 C   0  0  0  0  0  0  0  0  0  0  0  0
    0.0000    2.2500    0.0000 C   0  0  0  0  0  0  0  0  0  0  0  0
   -2.5981    2.2500    0.0000 C   0  0  0  0  0  3  0  0  0  0  0  0
    1.2990    1.5000    0.0000 C   0  0  0  0  0  0  0  0  0  0  0  0
   -1.2990    1.5000    0.0000 C   0  0  0  0  0  0  0  0  0  0  0  0
    0.0000    2.2500    0.0000 C   0  0  0  0  0  0  0  0  0  0  0  0
   -2.5981    2.2500    0.0000 C   0  0  0  0  0  3  0  0  0  0  0  0
    1.2990    1.5000    0.0000 C   0  0  0  0  0  0  0  0  0  0  0  0
   -1.2990    1.5000    0.0000 C   0  0  0  0  0  0  0  0  0  0  0  0
    0.0000    2.2500    0.0000 C   0  0  0  0  0  0  0  0  0  0  0  0
    0.0000    0.0000    0.0000 F   0  0  0  0  0  0  0  0  0  0  0  0
    0.0000    0.0000    0.0000 Sn  0  0  0  0  0 15  0  0  0  0  0  0
  3  1  1  0
  4  2  1  0
  4  3  1  0
  7  5  1  0
  8  6  1  0
  8  7  1  0
 11  9  1  0
 12 10  1  0
 12 11  1  0
M  CHG  2  13  -1  14   1
M  RAD  3   1   2   5   2   9   2
M  END
>  <NAME>  (6066) 
TRI-BUTHYLTIN FLUORIDE

>  <SYNONYMS>  (6066) 


>  <SPECTRUM TYPE>  (6066) 
MS1

>  <INSTRUMENT TYPE>  (6066) 
EI-B

>  <INSTRUMENT>  (6066) 
VARIAN MAT-44

>  <ION MODE>  (6066) 
P

>  <INCHIKEY>  (6066) 
DFNPRTKVCGZMMC-UHFFFAOYSA-M

>  <FORMULA>  (6066) 
C12H27FSn

>  <EXACT MASS>  (6066) 
310.111873784

>  <MW>  (6066) 
310

>  <ID>  (6066) 
JP002169

>  <CONTRIBUTOR>  (6066) 
University of Tokyo Team, {Faculty of Engineering, University of Tokyo

>  <COMMENT>  (6066) 
SMILES=CCCC[Sn](F)(CCCC)CCCC
cas=1983-10-4
InChI=InChI=1S/3C4H9.FH.Sn/c3*1-3-4-2;;/h3*1,3-4H2,2H3;1H;/q;;;;+1/p-1
computed SMILES=[F-].[Sn+].[CH2]CCC.[CH2]CCC.[CH2]CCC
accession=JP002169
date=2016.01.19 (Created 2008.10.21, modified 2011.05.06)
author=KOGA M, UNIV. OF OCCUPATIONAL AND ENVIRONMENTAL HEALTH
license=CC BY-NC-SA
exact mass=310.11188
ionization energy=70 eV
ion type=[M]+*
computed spectral entropy=3.7986404153007993
computed normalized entropy=0.8284988787755215
SPLASH=splash10-0udi-1970000000-d2ae49205af4a824b734
submitter=submitter = University of Tokyo Team (Faculty of Engineering, University of Tokyo)
MoNA Rating=3.75

>  <NUM PEAKS>  (6066) 
98

>  <MASS SPECTRAL PEAKS>  (6066) 
51 1.22
53 2.28
55 8.3
56 3.45
57 60.21
58 2.96
69 2.07
116 2.62
117 11.06
118 8.95
119 17.96
120 10.8
121 21.03
123 3.37
125 3.79
131 2.75
132 1.16
133 3.19
134 1.94
135 18.07
136 8.82
137 25.49
138 9.65
139 33.26
141 5.08
143 6.31
145 2.33
146 1.11
147 3.32
149 3.68
151 2.33
152 1.22
153 4.02
154 2.02
155 4.9
157 1.86
159 1.06
163 1.86
164 1.81
165 3.5
166 2.36
167 4.62
168 1.92
169 2.72
171 2.49
172 2.02
173 29.31
174 17.86
175 49.44
176 21.29
177 64.37
178 4.05
179 10.56
181 11.01
191 2.05
192 2.38
193 9.68
194 6.67
195 14.64
196 6.82
197 13.99
198 1.03
199 2.59
201 2.44
209 2.18
210 1.42
211 4.02
212 1.76
213 4.72
215 1.73
231 2.15
232 1.55
233 2.93
234 1.42
235 1.58
245 3.11
247 2.31
248 2.7
249 45.33
250 31.78
251 77.27
252 38.32
253 99.99
254 9.58
255 14.15
256 2.28
257 15.96
258 1.53
265 3.97
266 2.72
267 7.58
268 4.2
269 10.28
270 1.84
271 3.84
273 1.68
289 1.06
291 1.27

$$$$

     RDKit          2D

  9  4  0  0  0  0  0  0  0  0999 V2000
    0.0000    0.0000    0.0000 C   0  0  0  0  0  3  0  0  0  0  0  0
    1.5000    0.0000    0.0000 C   0  0  0  0  0  0  0  0  0  0  0  0
    0.0000    0.0000    0.0000 C   0  0  0  0  0  3  0  0  0  0  0  0
    1.5000    0.0000    0.0000 C   0  0  0  0  0  0  0  0  0  0  0  0
    0.0000    0.0000    0.0000 C   0  0  0  0  0  3  0  0  0  0  0  0
    1.5000    0.0000    0.0000 C   0  0  0  0  0  0  0  0  0  0  0  0
    0.0000    0.0000    0.0000 C   0  0  0  0  0  3  0  0  0  0  0  0
    1.5000    0.0000    0.0000 C   0  0  0  0  0  0  0  0  0  0  0  0
    0.0000    0.0000    0.0000 Sn  0  0  0  0  0 15  0  0  0  0  0  0
  2  1  1  0
  4  3  1  0
  6  5  1  0
  8  7  1  0
M  RAD  4   1   2   3   2   5   2   7   2
M  END
>  <NAME>  (6067) 
TETRAETHYL TIN

>  <SYNONYMS>  (6067) 


>  <SPECTRUM TYPE>  (6067) 
MS1

>  <INSTRUMENT TYPE>  (6067) 
EI-B

>  <INSTRUMENT>  (6067) 
VARIAN MAT-44

>  <ION MODE>  (6067) 
P

>  <INCHIKEY>  (6067) 
RWWNQEOPUOCKGR-UHFFFAOYSA-N

>  <FORMULA>  (6067) 
C8H20Sn

>  <EXACT MASS>  (6067) 
236.05869533999999

>  <MW>  (6067) 
236

>  <ID>  (6067) 
JP002168

>  <CONTRIBUTOR>  (6067) 
University of Tokyo Team, {Faculty of Engineering, University of Tokyo

>  <COMMENT>  (6067) 
SMILES=CC[Sn](CC)(CC)CC
InChI=InChI=1S/4C2H5.Sn/c4*1-2;/h4*1H2,2H3;
computed SMILES=[Sn].[CH2]C.[CH2]C.[CH2]C.[CH2]C
accession=JP002168
date=2016.01.19 (Created 2008.10.21, modified 2011.05.06)
author=KOGA M, UNIV. OF OCCUPATIONAL AND ENVIRONMENTAL HEALTH
license=CC BY-NC-SA
exact mass=236.0587
ionization energy=70 eV
ion type=[M]+*
computed spectral entropy=4.490981492003181
computed normalized entropy=0.8986973628439404
SPLASH=splash10-0f6t-0339100000-55385e2abf7cf981332b
submitter=submitter = University of Tokyo Team (Faculty of Engineering, University of Tokyo)
MoNA Rating=3.75

>  <NUM PEAKS>  (6067) 
148

>  <MASS SPECTRAL PEAKS>  (6067) 
45 8
55 18.66
56 4
57 26.66
67 4
69 13.33
70 5.33
71 13.33
79 1.33
81 2.66
82 1.33
83 8
85 5.33
95 1.33
97 4
109 1.33
117 4
118 5.33
119 10.66
120 9.33
121 9.33
123 1.33
125 1.33
133 6.66
134 2.66
135 13.33
136 2.66
137 18.66
139 2.66
141 2.66
145 10.66
146 4
147 25.33
148 8
149 42.66
150 2.66
151 20
153 12
154 2.66
155 16
156 2.66
157 5.33
175 9.33
176 4
177 16
178 5.33
179 21.33
181 2.66
182 2.66
183 14.66
184 20
185 22.66
186 14.66
187 5.33
191 5.33
192 1.33
193 9.33
194 1.33
195 13.33
197 2.66
203 1.33
205 5.33
207 6.66
209 4
211 10.66
212 1.33
213 12
215 2.66
249 8
250 8
251 28
252 26.66
253 54.66
254 36
255 60
256 28
257 46.66
258 6.66
259 18.66
260 2.66
261 13.33
279 6.66
280 2.66
281 16
282 9.33
283 25.33
284 9.33
285 24
286 4
287 14.66
289 4
291 1.33
307 4
308 4
309 17.33
310 12
311 40
312 22.66
313 42.66
314 14.66
315 34.66
316 2.66
317 13.33
318 1.33
319 5.33
335 4
336 2.66
337 17.33
338 13.33
339 41.33
340 26.66
341 50.66
342 22.66
343 44
344 8
345 21.33
346 2.66
347 9.33
349 1.33
365 12
366 9.33
367 36
368 29.33
369 74.66
370 45.33
371 76
372 30.66
373 0.6
374 9.33
375 20
376 4
377 13.33
391 1.33
393 14.66
394 14.66
395 42.66
396 38.66
397 92
398 60
399 99.99
400 45.33
401 77.33
402 17.33
403 29.33
404 5.33
405 18.66
427 1.33
429 1.33

$$$$

     RDKit          2D

 19 18  0  0  0  0  0  0  0  0999 V2000
    5.5209    8.4375    0.0000 C   0  0  0  0  0  0  0  0  0  0  0  0
    4.2219   10.6875    0.0000 C   0  0  0  0  0  0  0  0  0  0  0  0
  -15.2637    8.4375    0.0000 C   0  0  0  0  0  0  0  0  0  0  0  0
   -3.5724    9.1875    0.0000 C   0  0  0  0  0  0  0  0  0  0  0  0
   -4.8714    8.4375    0.0000 C   0  0  0  0  0  0  0  0  0  0  0  0
   -2.2733    8.4375    0.0000 C   0  0  0  0  0  0  0  0  0  0  0  0
   -6.1704    9.1875    0.0000 C   0  0  0  0  0  0  0  0  0  0  0  0
   -0.9743    9.1875    0.0000 C   0  0  0  0  0  0  0  0  0  0  0  0
   -7.4695    8.4375    0.0000 C   0  0  0  0  0  0  0  0  0  0  0  0
    0.3248    8.4375    0.0000 C   0  0  0  0  0  0  0  0  0  0  0  0
   -8.7685    9.1875    0.0000 C   0  0  0  0  0  0  0  0  0  0  0  0
    1.6238    9.1875    0.0000 C   0  0  0  0  0  0  0  0  0  0  0  0
  -10.0675    8.4375    0.0000 C   0  0  0  0  0  0  0  0  0  0  0  0
    2.9228    8.4375    0.0000 C   0  0  0  0  0  0  0  0  0  0  0  0
  -11.3666    9.1875    0.0000 C   0  0  0  0  0  0  0  0  0  0  0  0
    4.2219    9.1875    0.0000 C   0  0  0  0  0  0  0  0  0  0  0  0
  -12.6656    8.4375    0.0000 C   0  0  0  0  0  0  0  0  0  0  0  0
  -12.6656    6.9375    0.0000 O   0  0  0  0  0  0  0  0  0  0  0  0
  -13.9647    9.1875    0.0000 O   0  0  0  0  0  0  0  0  0  0  0  0
  5  4  1  0
  6  4  1  0
  7  5  1  0
  8  6  1  0
  9  7  1  0
 10  8  1  0
 11  9  1  0
 12 10  1  0
 13 11  1  0
 14 12  1  0
 15 13  1  0
 16  1  1  0
 16  2  1  0
 16 14  1  0
 17 15  1  0
 18 17  2  0
 19  3  1  0
 19 17  1  0
M  END
>  <NAME>  (6068) 
14-METHYLPENTADECANOIC ACID METHYL ESTER

>  <SYNONYMS>  (6068) 


>  <SPECTRUM TYPE>  (6068) 
MS1

>  <INSTRUMENT TYPE>  (6068) 
EI-B

>  <INSTRUMENT>  (6068) 
JEOL JMS-01-SG

>  <ION MODE>  (6068) 
P

>  <INCHIKEY>  (6068) 
WAKCWJNDXBPEBP-UHFFFAOYSA-N

>  <FORMULA>  (6068) 
C17H34O2

>  <EXACT MASS>  (6068) 
270.255880328

>  <MW>  (6068) 
270

>  <ID>  (6068) 
JP002166

>  <CONTRIBUTOR>  (6068) 
University of Tokyo Team, {Faculty of Engineering, University of Tokyo

>  <COMMENT>  (6068) 
SMILES=COC(=O)CCCCCCCCCCCCC(C)C
InChI=InChI=1S/C17H34O2/c1-16(2)14-12-10-8-6-4-5-7-9-11-13-15-17(18)19-3/h16H,4-15H2,1-3H3
computed SMILES=O=C(OC)CCCCCCCCCCCCC(C)C
accession=JP002166
date=2016.01.19 (Created 2008.10.21, modified 2011.05.06)
author=KOGA M, UNIV. OF OCCUPATIONAL AND ENVIRONMENTAL HEALTH
license=CC BY-NC-SA
exact mass=270.25588
ionization energy=70 eV
ion type=[M]+*
computed spectral entropy=3.204363400876669
computed normalized entropy=0.7858575046725579
SPLASH=splash10-00di-9210000000-cb4ca10245305ebee3ba
submitter=submitter = University of Tokyo Team (Faculty of Engineering, University of Tokyo)
MoNA Rating=3.75

>  <NUM PEAKS>  (6068) 
59

>  <MASS SPECTRAL PEAKS>  (6068) 
42 4.7
43 2
55 21.6
56 0.6
57 17.5
59 2
67 4
68 0.47
69 17.5
71 8.1
72 2.7
74 99.99
75 14.1
81 4.7
83 14.1
87 5.6
88 6.7
89 2
93 3.3
97 0.54
98 2.7
101 10.1
102 3.3
112 0.33
124 3.3
126 2.7
129 6
135 0.4
137 3.3
138 3.3
139 2
143 1.55
144 3.3
147 3.3
153 3.3
159 0.27
166 2.7
170 2
171 7.4
172 0.2
177 2.7
185 4
189 3.3
193 0.2
197 2
199 6.7
205 4
206 0.2
209 2.7
213 4.7
215 2
223 0.2
227 12.1
228 4
239 3.3
241 0.31
253 2
270 8.1
271 2

$$$$

     RDKit          2D

 18 17  0  0  0  0  0  0  0  0999 V2000
    5.5209    7.6875    0.0000 C   0  0  0  0  0  0  0  0  0  0  0  0
    4.2219    9.9375    0.0000 C   0  0  0  0  0  0  0  0  0  0  0  0
  -13.9647    8.4375    0.0000 C   0  0  0  0  0  0  0  0  0  0  0  0
   -3.5724    8.4375    0.0000 C   0  0  0  0  0  0  0  0  0  0  0  0
   -2.2733    7.6875    0.0000 C   0  0  0  0  0  0  0  0  0  0  0  0
   -4.8714    7.6875    0.0000 C   0  0  0  0  0  0  0  0  0  0  0  0
   -0.9743    8.4375    0.0000 C   0  0  0  0  0  0  0  0  0  0  0  0
   -6.1704    8.4375    0.0000 C   0  0  0  0  0  0  0  0  0  0  0  0
    0.3248    7.6875    0.0000 C   0  0  0  0  0  0  0  0  0  0  0  0
   -7.4695    7.6875    0.0000 C   0  0  0  0  0  0  0  0  0  0  0  0
    1.6238    8.4375    0.0000 C   0  0  0  0  0  0  0  0  0  0  0  0
   -8.7685    8.4375    0.0000 C   0  0  0  0  0  0  0  0  0  0  0  0
    2.9228    7.6875    0.0000 C   0  0  0  0  0  0  0  0  0  0  0  0
  -10.0675    7.6875    0.0000 C   0  0  0  0  0  0  0  0  0  0  0  0
    4.2219    8.4375    0.0000 C   0  0  0  0  0  0  0  0  0  0  0  0
  -11.3666    8.4375    0.0000 C   0  0  0  0  0  0  0  0  0  0  0  0
  -11.3666    9.9375    0.0000 O   0  0  0  0  0  0  0  0  0  0  0  0
  -12.6656    7.6875    0.0000 O   0  0  0  0  0  0  0  0  0  0  0  0
  5  4  1  0
  6  4  1  0
  7  5  1  0
  8  6  1  0
  9  7  1  0
 10  8  1  0
 11  9  1  0
 12 10  1  0
 13 11  1  0
 14 12  1  0
 15  1  1  0
 15  2  1  0
 15 13  1  0
 16 14  1  0
 17 16  2  0
 18  3  1  0
 18 16  1  0
M  END
>  <NAME>  (6069) 
13-METHYLTETRADECANOIC ACID METHYL ESTER

>  <SYNONYMS>  (6069) 


>  <SPECTRUM TYPE>  (6069) 
MS1

>  <INSTRUMENT TYPE>  (6069) 
EI-B

>  <INSTRUMENT>  (6069) 
JEOL JMS-01-SG

>  <ION MODE>  (6069) 
P

>  <INCHIKEY>  (6069) 
OGGUSDOXMVVCIX-UHFFFAOYSA-N

>  <FORMULA>  (6069) 
C16H32O2

>  <EXACT MASS>  (6069) 
256.240230264

>  <MW>  (6069) 
256

>  <ID>  (6069) 
JP002165

>  <CONTRIBUTOR>  (6069) 
University of Tokyo Team, {Faculty of Engineering, University of Tokyo

>  <COMMENT>  (6069) 
SMILES=COC(=O)CCCCCCCCCCCC(C)C
InChI=InChI=1S/C16H32O2/c1-15(2)13-11-9-7-5-4-6-8-10-12-14-16(17)18-3/h15H,4-14H2,1-3H3
computed SMILES=O=C(OC)CCCCCCCCCCCC(C)C
accession=JP002165
date=2016.01.19 (Created 2008.10.21, modified 2011.05.06)
author=KOGA M, UNIV. OF OCCUPATIONAL AND ENVIRONMENTAL HEALTH
license=CC BY-NC-SA
exact mass=256.24023
ionization energy=70 eV
ion type=[M]+*
computed spectral entropy=2.557522589218612
computed normalized entropy=0.7030823400237991
SPLASH=splash10-00dr-9100000000-bc9efe344475c8bedff2
submitter=submitter = University of Tokyo Team (Faculty of Engineering, University of Tokyo)
MoNA Rating=3.75

>  <NUM PEAKS>  (6069) 
38

>  <MASS SPECTRAL PEAKS>  (6069) 
43 1.3
44 1.3
55 20
56 0.4
57 12.4
59 4.8
65 1.3
67 0.35
69 14
70 1.6
71 2.7
74 99.99
75 12.7
81 3.5
83 8.6
84 0.24
87 52.1
88 5.1
95 1.6
97 0.64
101 7
102 1.6
107 1.8
111 0.37
125 1.6
129 4.5
143 14.5
144 0.24
157 5.6
171 2.9
185 2.7
199 0.45
213 11.3
214 1.8
225 1.8
227 0.18
256 5.4
257 1.3

$$$$

     RDKit          2D

 17 16  0  0  0  0  0  0  0  0999 V2000
    4.8714    7.3125    0.0000 C   0  0  0  0  0  0  0  0  0  0  0  0
    3.5724    9.5625    0.0000 C   0  0  0  0  0  0  0  0  0  0  0  0
  -13.3151    7.3125    0.0000 C   0  0  0  0  0  0  0  0  0  0  0  0
   -2.9228    7.3125    0.0000 C   0  0  0  0  0  0  0  0  0  0  0  0
   -4.2219    8.0625    0.0000 C   0  0  0  0  0  0  0  0  0  0  0  0
   -1.6238    8.0625    0.0000 C   0  0  0  0  0  0  0  0  0  0  0  0
   -5.5209    7.3125    0.0000 C   0  0  0  0  0  0  0  0  0  0  0  0
   -0.3248    7.3125    0.0000 C   0  0  0  0  0  0  0  0  0  0  0  0
   -6.8200    8.0625    0.0000 C   0  0  0  0  0  0  0  0  0  0  0  0
    0.9743    8.0625    0.0000 C   0  0  0  0  0  0  0  0  0  0  0  0
   -8.1190    7.3125    0.0000 C   0  0  0  0  0  0  0  0  0  0  0  0
    2.2733    7.3125    0.0000 C   0  0  0  0  0  0  0  0  0  0  0  0
   -9.4180    8.0625    0.0000 C   0  0  0  0  0  0  0  0  0  0  0  0
    3.5724    8.0625    0.0000 C   0  0  0  0  0  0  0  0  0  0  0  0
  -10.7171    7.3125    0.0000 C   0  0  0  0  0  0  0  0  0  0  0  0
  -10.7171    5.8125    0.0000 O   0  0  0  0  0  0  0  0  0  0  0  0
  -12.0161    8.0625    0.0000 O   0  0  0  0  0  0  0  0  0  0  0  0
  5  4  1  0
  6  4  1  0
  7  5  1  0
  8  6  1  0
  9  7  1  0
 10  8  1  0
 11  9  1  0
 12 10  1  0
 13 11  1  0
 14  1  1  0
 14  2  1  0
 14 12  1  0
 15 13  1  0
 16 15  2  0
 17  3  1  0
 17 15  1  0
M  END
>  <NAME>  (6070) 
12-METHYLTRIDECANOIC ACID METHYL ESTER

>  <SYNONYMS>  (6070) 


>  <SPECTRUM TYPE>  (6070) 
MS1

>  <INSTRUMENT TYPE>  (6070) 
EI-B

>  <INSTRUMENT>  (6070) 
JEOL JMS-01-SG

>  <ION MODE>  (6070) 
P

>  <INCHIKEY>  (6070) 
FLESKWMKPOBWDE-UHFFFAOYSA-N

>  <FORMULA>  (6070) 
C15H30O2

>  <EXACT MASS>  (6070) 
242.2245802

>  <MW>  (6070) 
242

>  <ID>  (6070) 
JP002164

>  <CONTRIBUTOR>  (6070) 
University of Tokyo Team, {Faculty of Engineering, University of Tokyo

>  <COMMENT>  (6070) 
SMILES=COC(=O)CCCCCCCCCCC(C)C
InChI=InChI=1S/C15H30O2/c1-14(2)12-10-8-6-4-5-7-9-11-13-15(16)17-3/h14H,4-13H2,1-3H3
computed SMILES=O=C(OC)CCCCCCCCCCC(C)C
accession=JP002164
date=2016.01.19 (Created 2008.10.21, modified 2011.05.06)
author=KOGA M, UNIV. OF OCCUPATIONAL AND ENVIRONMENTAL HEALTH
license=CC BY-NC-SA
exact mass=242.22458
ionization energy=70 eV
ion type=[M]+*
computed spectral entropy=2.8388690124402975
computed normalized entropy=0.7414820868424947
SPLASH=splash10-00di-9200000000-966db9aaa54d6cbabdf9
submitter=submitter = University of Tokyo Team (Faculty of Engineering, University of Tokyo)
MoNA Rating=3.75

>  <NUM PEAKS>  (6070) 
46

>  <MASS SPECTRAL PEAKS>  (6070) 
43 3.4
55 26.2
56 7.3
57 1.5
59 3
67 3
69 13.1
70 0.46
71 2.3
74 99.99
75 16.6
81 0.38
83 9.2
84 3
85 2.3
87 6.98
88 8.1
92 3.4
95 3.4
97 1.11
98 1.9
99 2.7
101 9.2
109 0.19
111 4.6
113 1.5
115 3.8
125 0.19
126 1.9
129 6.1
130 3.4
138 0.15
143 15.8
144 3
154 1.9
157 0.42
159 2.3
166 1.9
185 1.5
199 2.2
200 4.2
202 1.9
211 2.3
212 0.15
242 7.3
243 1.9

$$$$

     RDKit          2D

 16 15  0  0  0  0  0  0  0  0999 V2000
    4.8714    6.5625    0.0000 C   0  0  0  0  0  0  0  0  0  0  0  0
    3.5724    8.8125    0.0000 C   0  0  0  0  0  0  0  0  0  0  0  0
  -12.0161    7.3125    0.0000 C   0  0  0  0  0  0  0  0  0  0  0  0
   -2.9228    6.5625    0.0000 C   0  0  0  0  0  0  0  0  0  0  0  0
   -1.6238    7.3125    0.0000 C   0  0  0  0  0  0  0  0  0  0  0  0
   -4.2219    7.3125    0.0000 C   0  0  0  0  0  0  0  0  0  0  0  0
   -0.3248    6.5625    0.0000 C   0  0  0  0  0  0  0  0  0  0  0  0
   -5.5209    6.5625    0.0000 C   0  0  0  0  0  0  0  0  0  0  0  0
    0.9743    7.3125    0.0000 C   0  0  0  0  0  0  0  0  0  0  0  0
   -6.8200    7.3125    0.0000 C   0  0  0  0  0  0  0  0  0  0  0  0
    2.2733    6.5625    0.0000 C   0  0  0  0  0  0  0  0  0  0  0  0
   -8.1190    6.5625    0.0000 C   0  0  0  0  0  0  0  0  0  0  0  0
    3.5724    7.3125    0.0000 C   0  0  0  0  0  0  0  0  0  0  0  0
   -9.4180    7.3125    0.0000 C   0  0  0  0  0  0  0  0  0  0  0  0
   -9.4180    8.8125    0.0000 O   0  0  0  0  0  0  0  0  0  0  0  0
  -10.7171    6.5625    0.0000 O   0  0  0  0  0  0  0  0  0  0  0  0
  5  4  1  0
  6  4  1  0
  7  5  1  0
  8  6  1  0
  9  7  1  0
 10  8  1  0
 11  9  1  0
 12 10  1  0
 13  1  1  0
 13  2  1  0
 13 11  1  0
 14 12  1  0
 15 14  2  0
 16  3  1  0
 16 14  1  0
M  END
>  <NAME>  (6071) 
11-METHYLDODECANOIC ACID METHYL ESTER

>  <SYNONYMS>  (6071) 


>  <SPECTRUM TYPE>  (6071) 
MS1

>  <INSTRUMENT TYPE>  (6071) 
EI-B

>  <INSTRUMENT>  (6071) 
JEOL JMS-01-SG

>  <ION MODE>  (6071) 
P

>  <INCHIKEY>  (6071) 
GSRXTORWPQDOOY-UHFFFAOYSA-N

>  <FORMULA>  (6071) 
C14H28O2

>  <EXACT MASS>  (6071) 
228.208930136

>  <MW>  (6071) 
228

>  <ID>  (6071) 
JP002163

>  <CONTRIBUTOR>  (6071) 
University of Tokyo Team, {Faculty of Engineering, University of Tokyo

>  <COMMENT>  (6071) 
SMILES=COC(=O)CCCCCCCCCC(C)C
InChI=InChI=1S/C14H28O2/c1-13(2)11-9-7-5-4-6-8-10-12-14(15)16-3/h13H,4-12H2,1-3H3
computed SMILES=O=C(OC)CCCCCCCCCC(C)C
accession=JP002163
date=2016.01.19 (Created 2008.10.21, modified 2011.05.06)
author=KOGA M, UNIV. OF OCCUPATIONAL AND ENVIRONMENTAL HEALTH
license=CC BY-NC-SA
exact mass=228.20893
ionization energy=70 eV
ion type=[M]+*
computed spectral entropy=2.5654528321702337
computed normalized entropy=0.7159032437751005
SPLASH=splash10-00di-9100000000-dd95718648ff6c0211f0
submitter=submitter = University of Tokyo Team (Faculty of Engineering, University of Tokyo)
MoNA Rating=3.75

>  <NUM PEAKS>  (6071) 
36

>  <MASS SPECTRAL PEAKS>  (6071) 
44 4.4
55 21.5
56 4.7
57 1.15
67 2.9
69 10.6
71 4.1
74 99.99
75 14.4
77 2.9
79 2.3
81 0.32
83 8.2
84 2
85 3.2
87 5.41
88 5
95 2.9
97 8.8
98 0.2
101 5
109 1.7
111 1.7
115 0.32
129 5.9
130 2.3
138 1.7
143 1.39
144 2.9
157 1.7
168 3.2
185 1.68
197 2
199 2
228 7.1
229 1.7

$$$$

     RDKit          2D

 15 14  0  0  0  0  0  0  0  0999 V2000
  -10.7171    7.3125    0.0000 C   0  0  0  0  0  0  0  0  0  0  0  0
   -9.4180    5.0625    0.0000 C   0  0  0  0  0  0  0  0  0  0  0  0
    4.8714    7.3125    0.0000 C   0  0  0  0  0  0  0  0  0  0  0  0
   -4.2219    6.5625    0.0000 C   0  0  0  0  0  0  0  0  0  0  0  0
   -2.9228    7.3125    0.0000 C   0  0  0  0  0  0  0  0  0  0  0  0
   -5.5209    7.3125    0.0000 C   0  0  0  0  0  0  0  0  0  0  0  0
   -1.6238    6.5625    0.0000 C   0  0  0  0  0  0  0  0  0  0  0  0
   -6.8200    6.5625    0.0000 C   0  0  0  0  0  0  0  0  0  0  0  0
   -0.3248    7.3125    0.0000 C   0  0  0  0  0  0  0  0  0  0  0  0
   -8.1190    7.3125    0.0000 C   0  0  0  0  0  0  0  0  0  0  0  0
    0.9743    6.5625    0.0000 C   0  0  0  0  0  0  0  0  0  0  0  0
   -9.4180    6.5625    0.0000 C   0  0  0  0  0  0  0  0  0  0  0  0
    2.2733    7.3125    0.0000 C   0  0  0  0  0  0  0  0  0  0  0  0
    2.2733    8.8125    0.0000 O   0  0  0  0  0  0  0  0  0  0  0  0
    3.5724    6.5625    0.0000 O   0  0  0  0  0  0  0  0  0  0  0  0
  5  4  1  0
  6  4  1  0
  7  5  1  0
  8  6  1  0
  9  7  1  0
 10  8  1  0
 11  9  1  0
 12  1  1  0
 12  2  1  0
 12 10  1  0
 13 11  1  0
 14 13  2  0
 15  3  1  0
 15 13  1  0
M  END
>  <NAME>  (6072) 
10-METHYLUNDECANOIC ACID METHYL ESTER

>  <SYNONYMS>  (6072) 


>  <SPECTRUM TYPE>  (6072) 
MS1

>  <INSTRUMENT TYPE>  (6072) 
EI-B

>  <INSTRUMENT>  (6072) 
JEOL JMS-01-SG

>  <ION MODE>  (6072) 
P

>  <INCHIKEY>  (6072) 
XPVCTJYIICVJOE-UHFFFAOYSA-N

>  <FORMULA>  (6072) 
C13H26O2

>  <EXACT MASS>  (6072) 
214.193280072

>  <MW>  (6072) 
214

>  <ID>  (6072) 
JP002162

>  <CONTRIBUTOR>  (6072) 
University of Tokyo Team, {Faculty of Engineering, University of Tokyo

>  <COMMENT>  (6072) 
SMILES=COC(=O)CCCCCCCCC(C)C
InChI=InChI=1S/C13H26O2/c1-12(2)10-8-6-4-5-7-9-11-13(14)15-3/h12H,4-11H2,1-3H3
computed SMILES=O=C(OC)CCCCCCCCC(C)C
accession=JP002162
date=2016.01.19 (Created 2008.10.21, modified 2011.05.06)
author=KOGA M, UNIV. OF OCCUPATIONAL AND ENVIRONMENTAL HEALTH
license=CC BY-NC-SA
exact mass=214.19328
ionization energy=70 eV
ion type=[M]+*
computed spectral entropy=2.933209274934623
computed normalized entropy=0.7254939600371785
SPLASH=splash10-00di-9100000000-5ab7730312b911d41002
submitter=submitter = University of Tokyo Team (Faculty of Engineering, University of Tokyo)
MoNA Rating=3.75

>  <NUM PEAKS>  (6072) 
57

>  <MASS SPECTRAL PEAKS>  (6072) 
43 3.4
51 1.1
53 1.5
54 0.11
55 23.3
56 7.2
57 19.1
59 0.42
60 3
61 2.6
62 1.1
63 0.15
67 2.6
68 1.1
69 24.1
70 0.22
71 4.9
72 1.1
74 99.99
75 1.32
79 1.9
80 1.9
81 4.2
82 0.19
83 10.7
84 4.5
85 2.6
86 0.34
87 51.7
88 6.5
93 1.5
95 0.34
97 6.8
98 5.3
99 2.2
101 0.53
104 4.2
109 4.2
111 1.5
112 0.15
114 1.5
115 3.4
117 1.9
126 0.19
129 6.1
130 3
143 13
144 0.26
155 3
157 2.2
171 13.4
173 0.38
183 4.2
199 2.2
207 2.2
214 0.61
215 1.9

$$$$

     RDKit          2D

 13 12  0  0  0  0  0  0  0  0999 V2000
   -9.7428    5.6250    0.0000 C   0  0  0  0  0  0  0  0  0  0  0  0
   -3.2476    3.3750    0.0000 C   0  0  0  0  0  0  0  0  0  0  0  0
    3.2476    5.6250    0.0000 C   0  0  0  0  0  0  0  0  0  0  0  0
   -8.4437    4.8750    0.0000 C   0  0  0  0  0  0  0  0  0  0  0  0
   -7.1447    5.6250    0.0000 C   0  0  0  0  0  0  0  0  0  0  0  0
   -5.8457    4.8750    0.0000 C   0  0  0  0  0  0  0  0  0  0  0  0
   -4.5466    5.6250    0.0000 C   0  0  0  0  0  0  0  0  0  0  0  0
   -1.9486    5.6250    0.0000 C   0  0  0  0  0  0  0  0  0  0  0  0
   -0.6495    4.8750    0.0000 C   0  0  0  0  0  0  0  0  0  0  0  0
   -3.2476    4.8750    0.0000 C   0  0  0  0  0  0  0  0  0  0  0  0
    0.6495    5.6250    0.0000 C   0  0  0  0  0  0  0  0  0  0  0  0
    0.6495    7.1250    0.0000 O   0  0  0  0  0  0  0  0  0  0  0  0
    1.9486    4.8750    0.0000 O   0  0  0  0  0  0  0  0  0  0  0  0
  4  1  1  0
  5  4  1  0
  6  5  1  0
  7  6  1  0
  9  8  1  0
 10  2  1  0
 10  7  1  0
 10  8  1  0
 11  9  1  0
 12 11  2  0
 13  3  1  0
 13 11  1  0
M  END
>  <NAME>  (6073) 
4-METHYLNONANOIC ACID METHYL ESTER

>  <SYNONYMS>  (6073) 


>  <SPECTRUM TYPE>  (6073) 
MS1

>  <INSTRUMENT TYPE>  (6073) 
EI-B

>  <INSTRUMENT>  (6073) 
JEOL JMS-01-SG

>  <ION MODE>  (6073) 
P

>  <INCHIKEY>  (6073) 
GXZVGQNXKJXNBV-UHFFFAOYSA-N

>  <FORMULA>  (6073) 
C11H22O2

>  <EXACT MASS>  (6073) 
186.161979944

>  <MW>  (6073) 
186

>  <ID>  (6073) 
JP002161

>  <CONTRIBUTOR>  (6073) 
University of Tokyo Team, {Faculty of Engineering, University of Tokyo

>  <COMMENT>  (6073) 
SMILES=CCCCCC(C)CCC(=O)OC
InChI=InChI=1S/C11H22O2/c1-4-5-6-7-10(2)8-9-11(12)13-3/h10H,4-9H2,1-3H3
computed SMILES=O=C(OC)CCC(C)CCCCC
accession=JP002161
date=2016.01.19 (Created 2008.10.21, modified 2011.05.06)
author=KOGA M, UNIV. OF OCCUPATIONAL AND ENVIRONMENTAL HEALTH
license=CC BY-NC-SA
exact mass=186.16198
ionization energy=70 eV
ion type=[M]+*
computed spectral entropy=2.733645331699393
computed normalized entropy=0.7061491573278667
SPLASH=splash10-000i-9300000000-53ce2f1571d2f336bb11
submitter=submitter = University of Tokyo Team (Faculty of Engineering, University of Tokyo)
MoNA Rating=3.75

>  <NUM PEAKS>  (6073) 
48

>  <MASS SPECTRAL PEAKS>  (6073) 
41 1.3
43 2.3
44 3.7
53 0.23
54 2.5
55 34
56 7.6
57 1.59
67 4.6
68 1.8
69 26.6
70 0.3
71 5.7
73 3.4
74 6.4
75 1.55
79 1.3
81 9.2
82 2.3
83 1.01
84 4.1
85 1.3
87 99.99
88 0.78
93 1.3
95 5.3
97 8.5
98 0.23
101 11.3
103 1.3
111 4.1
112 0.16
115 1.6
121 2.5
126 1.1
129 0.53
130 1.1
136 1.1
137 3.4
138 0.13
139 3.4
143 42.3
144 5
145 0.18
154 1.1
155 6.4
157 3
186 0.6

$$$$

     RDKit          2D

 14 15  0  0  0  0  0  0  0  0999 V2000
    2.4790    4.9800    0.0000 C   0  0  0  0  0  0  0  0  0  0  0  0
   -2.7200   -1.0200    0.0000 C   0  0  0  0  0  0  0  0  0  0  0  0
   -2.7200    0.4800    0.0000 C   0  0  0  0  0  0  0  0  0  0  0  0
    2.4800   -1.0200    0.0000 C   0  0  0  0  0  0  0  0  0  0  0  0
   -1.4200   -1.7700    0.0000 C   0  0  0  0  0  0  0  0  0  0  0  0
    1.1800   -1.7700    0.0000 C   0  0  0  0  0  0  0  0  0  0  0  0
   -1.4200    1.2300    0.0000 C   0  0  0  0  0  0  0  0  0  0  0  0
    2.4800    0.4800    0.0000 C   0  0  0  0  0  0  0  0  0  0  0  0
   -0.1200   -1.0200    0.0000 C   0  0  0  0  0  0  0  0  0  0  0  0
   -0.1200    0.4800    0.0000 C   0  0  0  0  0  0  0  0  0  0  0  0
    1.1800    1.2300    0.0000 C   0  0  0  0  0  0  0  0  0  0  0  0
    1.1800    2.7300    0.0000 C   0  0  0  0  0  0  0  0  0  0  0  0
   -0.1190    3.4800    0.0000 O   0  0  0  0  0  0  0  0  0  0  0  0
    2.4790    3.4800    0.0000 O   0  0  0  0  0  0  0  0  0  0  0  0
  3  2  2  0
  5  2  1  0
  6  4  2  0
  7  3  1  0
  8  4  1  0
  9  5  2  0
  9  6  1  0
 10  7  2  0
 10  9  1  0
 11  8  2  0
 11 10  1  0
 12 11  1  0
 13 12  2  0
 14  1  1  0
 14 12  1  0
M  END
>  <NAME>  (6074) 
1-NAPHTHOIC ACID METHYL ESTER

>  <SYNONYMS>  (6074) 


>  <SPECTRUM TYPE>  (6074) 
MS1

>  <INSTRUMENT TYPE>  (6074) 
EI-B

>  <INSTRUMENT>  (6074) 
JEOL JMS-01-SG

>  <ION MODE>  (6074) 
P

>  <INCHIKEY>  (6074) 
HMRROBKAACRWBP-UHFFFAOYSA-N

>  <FORMULA>  (6074) 
C12H10O2

>  <EXACT MASS>  (6074) 
186.06807956

>  <MW>  (6074) 
186

>  <ID>  (6074) 
JP002160

>  <CONTRIBUTOR>  (6074) 
University of Tokyo Team, {Faculty of Engineering, University of Tokyo

>  <COMMENT>  (6074) 
SMILES=COC(=O)c(c1)c(c2)c(ccc2)cc1
InChI=InChI=1S/C12H10O2/c1-14-12(13)11-8-4-6-9-5-2-3-7-10(9)11/h2-8H,1H3
computed SMILES=O=C(OC)C1=CC=CC=2C=CC=CC21
accession=JP002160
date=2016.01.19 (Created 2008.10.21, modified 2011.05.06)
author=KOGA M, UNIV. OF OCCUPATIONAL AND ENVIRONMENTAL HEALTH
license=CC BY-NC-SA
exact mass=186.06808
ionization energy=70 eV
ion type=[M]+*
computed spectral entropy=2.332019334840833
computed normalized entropy=0.6507623860488201
SPLASH=splash10-004r-2900000000-bb31de6b26f38e0185ef
submitter=submitter = University of Tokyo Team (Faculty of Engineering, University of Tokyo)
MoNA Rating=3.75

>  <NUM PEAKS>  (6074) 
36

>  <MASS SPECTRAL PEAKS>  (6074) 
44 2.8
50 1.3
51 7.5
61 0.13
62 1.6
63 12.2
64 11.9
71 0.11
74 4.3
75 7.5
76 3.5
77 1.32
78 1.3
86 1.3
87 2.3
88 0.13
100 1.3
101 6.2
114 1.3
115 0.21
125 1.3
126 15.9
127 99.99
128 1.38
129 1.5
141 2.8
154 1.8
155 3.97
156 16.6
157 1.8
168 1.8
171 0.11
185 1.1
186 76.7
187 9.9
188 1.3

$$$$

     RDKit          2D

 15 15  0  0  0  0  0  0  0  0999 V2000
    5.8714   -2.6397    0.0000 C   0  0  0  0  0  0  0  0  0  0  0  0
   -7.1322    0.3449    0.0000 C   0  0  0  0  0  0  0  0  0  0  0  0
    4.5662   -1.9004    0.0000 C   0  0  0  0  0  0  0  0  0  0  0  0
    3.2734   -2.6611    0.0000 C   0  0  0  0  0  0  0  0  0  0  0  0
   -1.9398    0.3257    0.0000 C   0  0  0  0  0  0  0  0  0  0  0  0
   -3.2534   -1.8991    0.0000 C   0  0  0  0  0  0  0  0  0  0  0  0
   -0.6553   -0.3991    0.0000 C   0  0  0  0  0  0  0  0  0  0  0  0
   -1.9288   -2.6933    0.0000 C   0  0  0  0  0  0  0  0  0  0  0  0
    1.9682   -1.9218    0.0000 C   0  0  0  0  0  0  0  0  0  0  0  0
   -3.2388   -0.4243    0.0000 C   0  0  0  0  0  0  0  0  0  0  0  0
   -0.6298   -1.9433    0.0000 C   0  0  0  0  0  0  0  0  0  0  0  0
   -4.5342    0.3321    0.0000 C   0  0  0  0  0  0  0  0  0  0  0  0
   -4.5268    1.8321    0.0000 O   0  0  0  0  0  0  0  0  0  0  0  0
   -5.8369   -0.4115    0.0000 O   0  0  0  0  0  0  0  0  0  0  0  0
    0.6754   -2.6825    0.0000 O   0  0  0  0  0  0  0  0  0  0  0  0
  3  1  1  0
  4  3  1  0
  7  5  2  0
  8  6  1  0
  9  4  1  0
 10  5  1  0
 10  6  2  0
 11  7  1  0
 11  8  2  0
 12 10  1  0
 13 12  2  0
 14  2  1  0
 14 12  1  0
 15  9  1  0
 15 11  1  0
M  END
>  <NAME>  (6075) 
4-BUTOXYBENZOIC ACID METHYL ESTER

>  <SYNONYMS>  (6075) 


>  <SPECTRUM TYPE>  (6075) 
MS1

>  <INSTRUMENT TYPE>  (6075) 
EI-B

>  <INSTRUMENT>  (6075) 
JEOL JMS-01-SG

>  <ION MODE>  (6075) 
P

>  <INCHIKEY>  (6075) 
PUHCYTHGLBCWEA-UHFFFAOYSA-N

>  <FORMULA>  (6075) 
C12H16O3

>  <EXACT MASS>  (6075) 
208.109944372

>  <MW>  (6075) 
208

>  <ID>  (6075) 
JP002159

>  <CONTRIBUTOR>  (6075) 
University of Tokyo Team, {Faculty of Engineering, University of Tokyo

>  <COMMENT>  (6075) 
SMILES=CCCCOc(c1)ccc(c1)C(=O)OC
InChI=InChI=1S/C12H16O3/c1-3-4-9-15-11-7-5-10(6-8-11)12(13)14-2/h5-8H,3-4,9H2,1-2H3
computed SMILES=O=C(OC)C1=CC=C(OCCCC)C=C1
accession=JP002159
date=2016.01.19 (Created 2008.10.21, modified 2011.05.06)
author=KOGA M, UNIV. OF OCCUPATIONAL AND ENVIRONMENTAL HEALTH
license=CC BY-NC-SA
exact mass=208.10994
ionization energy=70 eV
ion type=[M]+*
computed spectral entropy=2.473203575547348
computed normalized entropy=0.645974203229193
SPLASH=splash10-0fk9-2900000000-e801d65bf9c649a513fe
submitter=submitter = University of Tokyo Team (Faculty of Engineering, University of Tokyo)
MoNA Rating=3.75

>  <NUM PEAKS>  (6075) 
46

>  <MASS SPECTRAL PEAKS>  (6075) 
45 1.5
50 4.8
51 2.7
53 0.15
55 3.3
56 3.9
57 9
63 0.42
64 4.8
65 14.1
66 1.5
67 0.24
70 2.1
75 1.5
76 4.2
77 0.12
79 1.2
82 1.2
91 2.7
92 0.72
93 15
94 1.5
95 1.5
103 0.27
107 2.1
109 1.5
115 1.5
119 0.15
120 4.2
121 96.9
122 16.2
123 0.3
124 1.2
135 1.8
136 1.5
141 0.15
147 1.2
150 1.2
151 7.8
152 99.99
153 9.3
165 1.8
177 8.7
208 3.49
209 4.2
210 1.5

$$$$

     RDKit          2D

 46 49  0  0  0  0  0  0  0  0999 V2000
   -2.5462    3.0799    0.0000 C   0  0  0  0  0  0  0  0  0  0  0  0
    4.3656    0.5894    0.0000 C   0  0  0  0  0  0  0  0  0  0  0  0
    2.6499    7.5806    0.0000 C   0  0  0  0  0  0  0  0  0  0  0  0
   -1.2471   -2.1701    0.0000 C   0  0  0  0  0  0  0  0  0  0  0  0
   -1.2471   -3.6701    0.0000 H   0  0  0  0  0  0  0  0  0  0  0  0
    8.2621    4.3400    0.0000 C   0  0  0  0  0  0  0  0  0  0  0  0
    9.5610    5.0902    0.0000 H   0  0  0  0  0  0  0  0  0  0  0  0
   -2.5460    9.0814    0.0000 C   0  0  0  0  0  0  0  0  0  0  0  0
   -3.8450    9.8316    0.0000 H   0  0  0  0  0  0  0  0  0  0  0  0
    0.0529   -1.4201    0.0000 C   0  0  0  0  0  0  0  0  0  0  0  0
    1.3518   -2.1703    0.0000 H   0  0  0  0  0  0  0  0  0  0  0  0
   -2.5471   -1.4201    0.0000 C   0  0  0  0  0  0  0  0  0  0  0  0
   -3.8460   -2.1703    0.0000 H   0  0  0  0  0  0  0  0  0  0  0  0
    8.2628    2.8392    0.0000 C   0  0  0  0  0  0  0  0  0  0  0  0
    9.5621    2.0896    0.0000 H   0  0  0  0  0  0  0  0  0  0  0  0
    6.9625    5.0906    0.0000 C   0  0  0  0  0  0  0  0  0  0  0  0
    6.9625    6.5906    0.0000 H   0  0  0  0  0  0  0  0  0  0  0  0
   -2.5468    7.5806    0.0000 C   0  0  0  0  0  0  0  0  0  0  0  0
   -3.8460    6.8310    0.0000 H   0  0  0  0  0  0  0  0  0  0  0  0
   -1.2464    9.8320    0.0000 C   0  0  0  0  0  0  0  0  0  0  0  0
   -1.2464   11.3320    0.0000 H   0  0  0  0  0  0  0  0  0  0  0  0
    0.0529    0.0799    0.0000 C   0  0  0  0  0  0  0  0  0  0  0  0
    1.3518    0.8301    0.0000 H   0  0  0  0  0  0  0  0  0  0  0  0
   -2.5471    0.0799    0.0000 C   0  0  0  0  0  0  0  0  0  0  0  0
   -3.8460    0.8301    0.0000 H   0  0  0  0  0  0  0  0  0  0  0  0
    6.9639    2.0890    0.0000 C   0  0  0  0  0  0  0  0  0  0  0  0
    6.9639    0.5890    0.0000 H   0  0  0  0  0  0  0  0  0  0  0  0
    5.6636    4.3404    0.0000 C   0  0  0  0  0  0  0  0  0  0  0  0
    4.3643    5.0900    0.0000 H   0  0  0  0  0  0  0  0  0  0  0  0
   -1.2478    6.8303    0.0000 C   0  0  0  0  0  0  0  0  0  0  0  0
   -1.2478    5.3303    0.0000 H   0  0  0  0  0  0  0  0  0  0  0  0
    0.0525    9.0818    0.0000 C   0  0  0  0  0  0  0  0  0  0  0  0
    1.3518    9.8314    0.0000 H   0  0  0  0  0  0  0  0  0  0  0  0
    1.3514    2.3291    0.0000 C   0  0  0  0  0  0  0  0  0  0  0  0
    0.0514    4.5808    0.0000 C   0  0  0  0  0  0  0  0  0  0  0  0
   -1.2471    2.3299    0.0000 C   0  0  0  0  0  0  0  0  0  0  0  0
    4.3654    2.0894    0.0000 C   0  0  0  0  0  0  0  0  0  0  0  0
    1.3507    6.8308    0.0000 C   0  0  0  0  0  0  0  0  0  0  0  0
   -1.2471    0.8299    0.0000 C   0  0  0  0  0  0  0  0  0  0  0  0
    5.6643    2.8396    0.0000 C   0  0  0  0  0  0  0  0  0  0  0  0
    0.0518    7.5810    0.0000 C   0  0  0  0  0  0  0  0  0  0  0  0
    0.0519    3.0799    0.0000 C   0  0  0  0  0  0  0  0  0  0  0  0
    2.6505    3.0791    0.0000 C   0  0  0  0  0  0  0  0  0  0  0  0
    1.3505    5.3308    0.0000 C   0  0  0  0  0  0  0  0  0  0  0  0
    2.6500    4.5799    0.0000 C   0  0  0  0  0  0  0  0  0  0  0  0
    4.7804    5.8099    0.0000 O   0  0  0  0  0  0  0  0  0  0  0  0
  4  5  1  0
  6  7  1  0
  8  9  1  0
 10 11  1  0
 12 13  1  0
 14 15  1  0
 16 17  1  0
 18 19  1  0
 20 21  1  0
 22 23  1  0
 24 25  1  0
 26 27  1  0
 28 29  1  0
 30 31  1  0
 32 33  1  0
 10  4  2  0
 12  4  1  0
 14  6  2  0
 16  6  1  0
 18  8  2  0
 20  8  1  0
 22 10  1  0
 24 12  2  0
 26 14  1  0
 28 16  2  0
 30 18  1  0
 32 20  2  0
 36  1  1  0
 37  2  1  0
 38  3  1  0
 39 22  2  0
 39 24  1  0
 39 36  1  0
 40 26  2  0
 40 28  1  0
 40 37  1  0
 41 30  2  0
 41 32  1  0
 41 38  1  0
 42 34  2  0
 42 35  1  0
 42 36  1  0
 43 34  1  0
 43 37  1  0
 44 35  2  0
 44 38  1  0
 45 43  2  0
 45 44  1  0
 46 45  1  0
M  ISO  8   5   2   7   2   9   2  11   2  13   2  15   2  17   2  19   2
M  ISO  7  21   2  23   2  25   2  27   2  29   2  31   2  33   2
M  END
>  <NAME>  (6076) 
2,4,6-TRI(ALPHA-METHYLBENZYL(5D))PHENOL

>  <SYNONYMS>  (6076) 


>  <SPECTRUM TYPE>  (6076) 
MS1

>  <INSTRUMENT TYPE>  (6076) 
EI-B

>  <INSTRUMENT>  (6076) 
JEOL JMS-01-SG

>  <ION MODE>  (6076) 
P

>  <INCHIKEY>  (6076) 
BYLSIPUARIZAHZ-RXLUIHFSSA-N

>  <FORMULA>  (6076) 
C30H30O

>  <EXACT MASS>  (6076) 
421.32381677

>  <MW>  (6076) 
421

>  <ID>  (6076) 
JP002157

>  <CONTRIBUTOR>  (6076) 
University of Tokyo Team, {Faculty of Engineering, University of Tokyo

>  <COMMENT>  (6076) 
SMILES=Oc(c(C(c(c4[2H])c(c(c([2H])c4[2H])[2H])[2H])C)1)c(C(c(c3[2H])c(c(c([2H])c3[2H])[2H])[2H])C)cc(C(c(c2[2H])c(c(c([2H])c([2H])2)[2H])[2H])C)c1
InChI=InChI=1S/C30H30O/c1-21(24-13-7-4-8-14-24)27-19-28(22(2)25-15-9-5-10-16-25)30(31)29(20-27)23(3)26-17-11-6-12-18-26/h4-23,31H,1-3H3/i4D,5D,6D,7D,8D,9D,10D,11D,12D,13D,14D,15D,16D,17D,18D
computed SMILES=[H]C=1C(=C([H])C([H])=C([H])C1[H])C(C=2C=C(C(O)=C(C2)C(C=3C([H])=C([H])C([H])=C([H])C3[H])C)C(C=4C([H])=C([H])C([H])=C([H])C4[H])C)C
accession=JP002157
date=2016.01.19 (Created 2008.10.21, modified 2011.05.06)
author=KOGA M, UNIV. OF OCCUPATIONAL AND ENVIRONMENTAL HEALTH
license=CC BY-NC-SA
exact mass=406.22967
ionization energy=70 eV
ion type=[M]+*
computed spectral entropy=2.138401878608739
computed normalized entropy=0.7398362763429549
SPLASH=splash10-0c00-0302900000-9756bc26fe6aa47d8c20
submitter=submitter = University of Tokyo Team (Faculty of Engineering, University of Tokyo)
MoNA Rating=3.75

>  <NUM PEAKS>  (6076) 
18

>  <MASS SPECTRAL PEAKS>  (6076) 
83 6.6
96 6.8
108 6.8
109 1.22
110 42
111 7.1
154 6.8
240 0.74
241 8.5
311 16.4
312 8.3
322 0.85
323 18.7
324 6.6
407 99.99
408 0.44
421 58.6
422 5.9

$$$$

     RDKit          2D

 31 34  0  0  0  0  0  0  0  0999 V2000
    1.3000    0.3198    0.0000 C   0  0  0  0  0  0  0  0  0  0  0  0
    5.1977    7.0701    0.0000 C   0  0  0  0  0  0  0  0  0  0  0  0
    0.0003    7.0701    0.0000 C   0  0  0  0  0  0  0  0  0  0  0  0
    6.4961   -1.1802    0.0000 C   0  0  0  0  0  0  0  0  0  0  0  0
    9.0954    3.3207    0.0000 C   0  0  0  0  0  0  0  0  0  0  0  0
   -3.8974    3.3207    0.0000 C   0  0  0  0  0  0  0  0  0  0  0  0
    6.4966    0.3207    0.0000 C   0  0  0  0  0  0  0  0  0  0  0  0
    5.1966   -1.9310    0.0000 C   0  0  0  0  0  0  0  0  0  0  0  0
    9.0956    4.8215    0.0000 C   0  0  0  0  0  0  0  0  0  0  0  0
    7.7960    2.5696    0.0000 C   0  0  0  0  0  0  0  0  0  0  0  0
   -2.5980    2.5696    0.0000 C   0  0  0  0  0  0  0  0  0  0  0  0
   -3.8976    4.8215    0.0000 C   0  0  0  0  0  0  0  0  0  0  0  0
    5.1976    1.0707    0.0000 C   0  0  0  0  0  0  0  0  0  0  0  0
    3.8976   -1.1810    0.0000 C   0  0  0  0  0  0  0  0  0  0  0  0
    7.7965    5.5713    0.0000 C   0  0  0  0  0  0  0  0  0  0  0  0
    6.4968    3.3194    0.0000 C   0  0  0  0  0  0  0  0  0  0  0  0
   -1.2988    3.3194    0.0000 C   0  0  0  0  0  0  0  0  0  0  0  0
   -2.5985    5.5713    0.0000 C   0  0  0  0  0  0  0  0  0  0  0  0
    3.8990    3.3198    0.0000 C   0  0  0  0  0  0  0  0  0  0  0  0
    1.2990    3.3198    0.0000 C   0  0  0  0  0  0  0  0  0  0  0  0
    2.5990    1.0698    0.0000 C   0  0  0  0  0  0  0  0  0  0  0  0
    5.1979    5.5701    0.0000 C   0  0  0  0  0  0  0  0  0  0  0  0
    0.0001    5.5701    0.0000 C   0  0  0  0  0  0  0  0  0  0  0  0
    3.8980    0.3198    0.0000 C   0  0  0  0  0  0  0  0  0  0  0  0
    6.4971    4.8203    0.0000 C   0  0  0  0  0  0  0  0  0  0  0  0
   -1.2991    4.8203    0.0000 C   0  0  0  0  0  0  0  0  0  0  0  0
    2.5990    2.5698    0.0000 C   0  0  0  0  0  0  0  0  0  0  0  0
    3.8990    4.8198    0.0000 C   0  0  0  0  0  0  0  0  0  0  0  0
    1.2990    4.8198    0.0000 C   0  0  0  0  0  0  0  0  0  0  0  0
    2.5990    5.5698    0.0000 C   0  0  0  0  0  0  0  0  0  0  0  0
    2.5990    7.0698    0.0000 O   0  0  0  0  0  0  0  0  0  0  0  0
  7  4  2  0
  8  4  1  0
  9  5  2  0
 10  5  1  0
 11  6  2  0
 12  6  1  0
 13  7  1  0
 14  8  2  0
 15  9  1  0
 16 10  2  0
 17 11  1  0
 18 12  2  0
 21  1  1  0
 22  2  1  0
 23  3  1  0
 24 13  2  0
 24 14  1  0
 24 21  1  0
 25 15  2  0
 25 16  1  0
 25 22  1  0
 26 17  2  0
 26 18  1  0
 26 23  1  0
 27 19  2  0
 27 20  1  0
 27 21  1  0
 28 19  1  0
 28 22  1  0
 29 20  2  0
 29 23  1  0
 30 28  2  0
 30 29  1  0
 31 30  1  0
M  END
>  <NAME>  (6077) 
2,4,6-TRI(ALPHA-METHYLBENZYL)PHENOL

>  <SYNONYMS>  (6077) 


>  <SPECTRUM TYPE>  (6077) 
MS1

>  <INSTRUMENT TYPE>  (6077) 
EI-B

>  <INSTRUMENT>  (6077) 
JEOL JMS-01-SG

>  <ION MODE>  (6077) 
P

>  <INCHIKEY>  (6077) 
BYLSIPUARIZAHZ-UHFFFAOYSA-N

>  <FORMULA>  (6077) 
C30H30O

>  <EXACT MASS>  (6077) 
406.22966557999996

>  <MW>  (6077) 
406

>  <ID>  (6077) 
JP002156

>  <CONTRIBUTOR>  (6077) 
University of Tokyo Team, {Faculty of Engineering, University of Tokyo

>  <COMMENT>  (6077) 
SMILES=c(c4)c(ccc4)C(c(c2)c(c(cc(C(c(c3)cccc3)C)2)C(c(c1)cccc1)C)O)C
InChI=InChI=1S/C30H30O/c1-21(24-13-7-4-8-14-24)27-19-28(22(2)25-15-9-5-10-16-25)30(31)29(20-27)23(3)26-17-11-6-12-18-26/h4-23,31H,1-3H3
computed SMILES=OC=1C(=CC(=CC1C(C=2C=CC=CC2)C)C(C=3C=CC=CC3)C)C(C=4C=CC=CC4)C
accession=JP002156
date=2016.01.19 (Created 2008.10.21, modified 2011.05.06)
author=KOGA M, UNIV. OF OCCUPATIONAL AND ENVIRONMENTAL HEALTH
license=CC BY-NC-SA
exact mass=406.22967
ionization energy=70 eV
ion type=[M]+*
computed spectral entropy=2.013592697622419
computed normalized entropy=0.7629969516107389
SPLASH=splash10-0a4l-2118900000-4f1f8d980f60b12e1eac
submitter=submitter = University of Tokyo Team (Faculty of Engineering, University of Tokyo)
MoNA Rating=3.75

>  <NUM PEAKS>  (6077) 
14

>  <MASS SPECTRAL PEAKS>  (6077) 
44 10.6
77 10.1
91 11.9
105 5.38
149 10.6
235 11.7
287 9.6
301 1.63
302 9
313 17.4
391 91.4
392 2.6
406 99.99
407 29.5

$$$$

     RDKit          2D

 33 35  0  0  0  0  0  0  0  0999 V2000
   -0.0082    7.0730    0.0000 C   0  0  0  0  0  0  0  0  0  0  0  0
    5.2064    7.0924    0.0000 C   0  0  0  0  0  0  0  0  0  0  0  0
   -3.9053    3.3230    0.0000 C   0  0  0  0  0  0  0  0  0  0  0  0
   -5.2043    2.5730    0.0000 H   0  0  0  0  0  0  0  0  0  0  0  0
    9.0945    3.3330    0.0000 C   0  0  0  0  0  0  0  0  0  0  0  0
   10.3917    2.5799    0.0000 H   0  0  0  0  0  0  0  0  0  0  0  0
   -2.6058    2.5721    0.0000 C   0  0  0  0  0  0  0  0  0  0  0  0
   -2.6060    1.0721    0.0000 H   0  0  0  0  0  0  0  0  0  0  0  0
   -3.9058    4.8238    0.0000 C   0  0  0  0  0  0  0  0  0  0  0  0
   -5.2049    5.5736    0.0000 H   0  0  0  0  0  0  0  0  0  0  0  0
    7.7932    2.5854    0.0000 C   0  0  0  0  0  0  0  0  0  0  0  0
    7.7898    1.0854    0.0000 H   0  0  0  0  0  0  0  0  0  0  0  0
    9.0986    4.8339    0.0000 C   0  0  0  0  0  0  0  0  0  0  0  0
   10.3996    5.5805    0.0000 H   0  0  0  0  0  0  0  0  0  0  0  0
    2.5626    2.6145    0.0000 C   0  0  0  0  0  0  0  0  0  0  0  0
   -1.3067    3.3221    0.0000 C   0  0  0  0  0  0  0  0  0  0  0  0
   -0.0076    2.5723    0.0000 H   0  0  0  0  0  0  0  0  0  0  0  0
   -2.6067    5.5738    0.0000 C   0  0  0  0  0  0  0  0  0  0  0  0
   -2.6065    7.0738    0.0000 H   0  0  0  0  0  0  0  0  0  0  0  0
    6.4959    3.3385    0.0000 C   0  0  0  0  0  0  0  0  0  0  0  0
    5.1950    2.5918    0.0000 H   0  0  0  0  0  0  0  0  0  0  0  0
    7.8014    5.5870    0.0000 C   0  0  0  0  0  0  0  0  0  0  0  0
    7.8048    7.0870    0.0000 H   0  0  0  0  0  0  0  0  0  0  0  0
    1.2883    3.3427    0.0000 C   0  0  0  0  0  0  0  0  0  0  0  0
    3.8686    3.3260    0.0000 C   0  0  0  0  0  0  0  0  0  0  0  0
   -0.0082    5.5730    0.0000 C   0  0  0  0  0  0  0  0  0  0  0  0
    5.2028    5.5925    0.0000 C   0  0  0  0  0  0  0  0  0  0  0  0
   -1.3072    4.8230    0.0000 C   0  0  0  0  0  0  0  0  0  0  0  0
    6.5000    4.8393    0.0000 C   0  0  0  0  0  0  0  0  0  0  0  0
    1.2908    4.8230    0.0000 C   0  0  0  0  0  0  0  0  0  0  0  0
    3.9020    4.8456    0.0000 C   0  0  0  0  0  0  0  0  0  0  0  0
    2.5877    5.5747    0.0000 C   0  0  0  0  0  0  0  0  0  0  0  0
    2.5735    7.0746    0.0000 O   0  0  0  0  0  0  0  0  0  0  0  0
  3  4  1  0
  5  6  1  0
  7  8  1  0
  9 10  1  0
 11 12  1  0
 13 14  1  0
 16 17  1  0
 18 19  1  0
 20 21  1  0
 22 23  1  0
  7  3  2  0
  9  3  1  0
 11  5  2  0
 13  5  1  0
 16  7  1  0
 18  9  2  0
 20 11  1  0
 22 13  2  0
 24 15  2  0
 25 15  1  0
 26  1  1  0
 27  2  1  0
 28 16  2  0
 28 18  1  0
 28 26  1  0
 29 20  2  0
 29 22  1  0
 29 27  1  0
 30 24  1  0
 30 26  1  0
 31 25  2  0
 31 27  1  0
 32 30  2  0
 32 31  1  0
 33 32  1  0
M  ISO  8   4   2   6   2   8   2  10   2  12   2  14   2  17   2  19   2
M  ISO  2  21   2  23   2
M  END
>  <NAME>  (6078) 
2,6-DI(ALPHA-METHYLBENZYL(5D))PHENOL

>  <SYNONYMS>  (6078) 


>  <SPECTRUM TYPE>  (6078) 
MS1

>  <INSTRUMENT TYPE>  (6078) 
EI-B

>  <INSTRUMENT>  (6078) 
JEOL JMS-01-SG

>  <ION MODE>  (6078) 
P

>  <INCHIKEY>  (6078) 
NYPMHOYLEBBBGY-ZKZWDRQZSA-N

>  <FORMULA>  (6078) 
C22H22O

>  <EXACT MASS>  (6078) 
312.229832784

>  <MW>  (6078) 
312

>  <ID>  (6078) 
JP002155

>  <CONTRIBUTOR>  (6078) 
University of Tokyo Team, {Faculty of Engineering, University of Tokyo

>  <COMMENT>  (6078) 
SMILES=[2H]c(c([2H])3)c([2H])c([2H])c(c([2H])3)C(C)c(c2)c(O)c(cc2)C(C)c(c([2H])1)c([2H])c([2H])c([2H])c([2H])1
InChI=InChI=1S/C22H22O/c1-16(18-10-5-3-6-11-18)20-14-9-15-21(22(20)23)17(2)19-12-7-4-8-13-19/h3-17,23H,1-2H3/i3D,4D,5D,6D,7D,8D,10D,11D,12D,13D
computed SMILES=[H]C=1C(=C([H])C([H])=C([H])C1[H])C(C2=CC=CC(=C2O)C(C=3C([H])=C([H])C([H])=C([H])C3[H])C)C
accession=JP002155
date=2016.01.19 (Created 2008.10.21, modified 2011.05.06)
author=KOGA M, UNIV. OF OCCUPATIONAL AND ENVIRONMENTAL HEALTH
license=CC BY-NC-SA
exact mass=302.16707
ionization energy=70 eV
ion type=[M]+*
computed spectral entropy=2.4567610697075093
computed normalized entropy=0.8200869922174079
SPLASH=splash10-03dj-0293000000-0b1adcba6816eec8b121
submitter=submitter = University of Tokyo Team (Faculty of Engineering, University of Tokyo)
MoNA Rating=3.75

>  <NUM PEAKS>  (6078) 
20

>  <MASS SPECTRAL PEAKS>  (6078) 
96 9
108 6.4
109 9.6
110 2.07
169 11.6
170 10.4
188 33.9
189 0.83
202 11.2
213 14.6
214 43
215 1.27
227 9.5
228 9.1
229 13.3
296 1.16
297 99.99
298 25.9
312 59.2
313 19.5

$$$$

     RDKit          2D

 23 25  0  0  0  0  0  0  0  0999 V2000
    0.6584    1.4592    0.0000 C   0  0  0  0  0  0  0  0  0  0  0  0
   -0.6613    8.2124    0.0000 C   0  0  0  0  0  0  0  0  0  0  0  0
    5.8546   -0.0408    0.0000 C   0  0  0  0  0  0  0  0  0  0  0  0
   -4.5674    4.4718    0.0000 C   0  0  0  0  0  0  0  0  0  0  0  0
    5.8551    1.4601    0.0000 C   0  0  0  0  0  0  0  0  0  0  0  0
    4.5551   -0.7916    0.0000 C   0  0  0  0  0  0  0  0  0  0  0  0
   -3.2697    3.7178    0.0000 C   0  0  0  0  0  0  0  0  0  0  0  0
   -4.5643    5.9726    0.0000 C   0  0  0  0  0  0  0  0  0  0  0  0
    3.2342    5.9149    0.0000 C   0  0  0  0  0  0  0  0  0  0  0  0
    4.5560    2.2101    0.0000 C   0  0  0  0  0  0  0  0  0  0  0  0
    3.2560   -0.0416    0.0000 C   0  0  0  0  0  0  0  0  0  0  0  0
   -1.9689    4.4647    0.0000 C   0  0  0  0  0  0  0  0  0  0  0  0
   -3.2634    6.7195    0.0000 C   0  0  0  0  0  0  0  0  0  0  0  0
    3.2407    4.4472    0.0000 C   0  0  0  0  0  0  0  0  0  0  0  0
    1.9651    6.6901    0.0000 C   0  0  0  0  0  0  0  0  0  0  0  0
    1.9575    2.2092    0.0000 C   0  0  0  0  0  0  0  0  0  0  0  0
   -0.6649    6.7124    0.0000 C   0  0  0  0  0  0  0  0  0  0  0  0
    3.2565    1.4592    0.0000 C   0  0  0  0  0  0  0  0  0  0  0  0
   -1.9657    5.9655    0.0000 C   0  0  0  0  0  0  0  0  0  0  0  0
    1.9575    3.7092    0.0000 C   0  0  0  0  0  0  0  0  0  0  0  0
    0.6323    5.9592    0.0000 C   0  0  0  0  0  0  0  0  0  0  0  0
    0.6581    4.4565    0.0000 C   0  0  0  0  0  0  0  0  0  0  0  0
   -0.6338    3.6943    0.0000 O   0  0  0  0  0  0  0  0  0  0  0  0
  5  3  2  0
  6  3  1  0
  7  4  2  0
  8  4  1  0
 10  5  1  0
 11  6  2  0
 12  7  1  0
 13  8  2  0
 14  9  2  0
 15  9  1  0
 16  1  1  0
 17  2  1  0
 18 10  2  0
 18 11  1  0
 18 16  1  0
 19 12  2  0
 19 13  1  0
 19 17  1  0
 20 14  1  0
 20 16  1  0
 21 15  2  0
 21 17  1  0
 22 20  2  0
 22 21  1  0
 23 22  1  0
M  END
>  <NAME>  (6079) 
2,6-DI(ALPHA-METHYLBENZYL)PHENOL

>  <SYNONYMS>  (6079) 


>  <SPECTRUM TYPE>  (6079) 
MS1

>  <INSTRUMENT TYPE>  (6079) 
EI-B

>  <INSTRUMENT>  (6079) 
JEOL JMS-01-SG

>  <ION MODE>  (6079) 
P

>  <INCHIKEY>  (6079) 
NYPMHOYLEBBBGY-UHFFFAOYSA-N

>  <FORMULA>  (6079) 
C22H22O

>  <EXACT MASS>  (6079) 
302.167065324

>  <MW>  (6079) 
302

>  <ID>  (6079) 
JP002154

>  <CONTRIBUTOR>  (6079) 
University of Tokyo Team, {Faculty of Engineering, University of Tokyo

>  <COMMENT>  (6079) 
SMILES=c(c3)ccc(c3)C(C)c(c2)c(O)c(cc2)C(C)c(c1)cccc1
InChI=InChI=1S/C22H22O/c1-16(18-10-5-3-6-11-18)20-14-9-15-21(22(20)23)17(2)19-12-7-4-8-13-19/h3-17,23H,1-2H3
computed SMILES=OC=1C(=CC=CC1C(C=2C=CC=CC2)C)C(C=3C=CC=CC3)C
accession=JP002154
date=2016.01.19 (Created 2008.10.21, modified 2011.05.06)
author=KOGA M, UNIV. OF OCCUPATIONAL AND ENVIRONMENTAL HEALTH
license=CC BY-NC-SA
exact mass=302.16707
ionization energy=70 eV
ion type=[M]+*
computed spectral entropy=2.9820547581254786
computed normalized entropy=0.8855933391921366
SPLASH=splash10-052u-9460000000-0347a34b0a9a5b001d99
submitter=submitter = University of Tokyo Team (Faculty of Engineering, University of Tokyo)
MoNA Rating=3.75

>  <NUM PEAKS>  (6079) 
29

>  <MASS SPECTRAL PEAKS>  (6079) 
43 28.9
44 49.7
45 11.6
51 1.6
55 24.1
56 13.5
57 23.6
69 1.66
71 12.7
77 20.9
78 20.8
79 1.05
83 12.2
91 15.3
103 19.9
104 3.18
105 28.3
119 8.5
149 35.3
165 1.44
181 8.5
197 15.5
209 35.7
223 1.49
224 23
287 99.99
288 21.6
302 7.13
303 16.4

$$$$

     RDKit          2D

 18 19  0  0  0  0  0  0  0  0999 V2000
    6.4970    1.5006    0.0000 C   0  0  0  0  0  0  0  0  0  0  0  0
    0.0010    5.2500    0.0000 C   0  0  0  0  0  0  0  0  0  0  0  0
   -2.6000   -0.7500    0.0000 C   0  0  0  0  0  0  0  0  0  0  0  0
   -2.6000    0.7500    0.0000 C   0  0  0  0  0  0  0  0  0  0  0  0
   -1.3000   -1.5000    0.0000 C   0  0  0  0  0  0  0  0  0  0  0  0
   -1.3000    1.5000    0.0000 C   0  0  0  0  0  0  0  0  0  0  0  0
    1.3000   -1.5000    0.0000 C   0  0  0  0  0  0  0  0  0  0  0  0
    2.6000   -0.7500    0.0000 C   0  0  0  0  0  0  0  0  0  0  0  0
    0.0000   -0.7500    0.0000 C   0  0  0  0  0  0  0  0  0  0  0  0
    0.0000    0.7500    0.0000 C   0  0  0  0  0  0  0  0  0  0  0  0
    2.6000    0.7500    0.0000 C   0  0  0  0  0  0  0  0  0  0  0  0
    1.3000    1.5000    0.0000 C   0  0  0  0  0  0  0  0  0  0  0  0
    3.8989    1.5002    0.0000 C   0  0  0  0  0  0  0  0  0  0  0  0
    1.3000    3.0000    0.0000 C   0  0  0  0  0  0  0  0  0  0  0  0
    3.8987    3.0002    0.0000 O   0  0  0  0  0  0  0  0  0  0  0  0
    2.5990    3.7500    0.0000 O   0  0  0  0  0  0  0  0  0  0  0  0
    5.1981    0.7504    0.0000 O   0  0  0  0  0  0  0  0  0  0  0  0
    0.0010    3.7500    0.0000 O   0  0  0  0  0  0  0  0  0  0  0  0
  4  3  2  0
  5  3  1  0
  6  4  1  0
  8  7  2  0
  9  5  2  0
  9  7  1  0
 10  6  2  0
 10  9  1  0
 11  8  1  0
 12 10  1  0
 12 11  2  0
 13 11  1  0
 14 12  1  0
 15 13  2  0
 16 14  2  0
 17  1  1  0
 17 13  1  0
 18  2  1  0
 18 14  1  0
M  END
>  <NAME>  (6080) 
NAPHTHALENE-1,2-DICARBOXYLIC ACID DIMETHYLESTER

>  <SYNONYMS>  (6080) 


>  <SPECTRUM TYPE>  (6080) 
MS1

>  <INSTRUMENT TYPE>  (6080) 
EI-B

>  <INSTRUMENT>  (6080) 
JEOL JMS-01-SG

>  <ION MODE>  (6080) 
P

>  <INCHIKEY>  (6080) 
JGJWEXOAAXEJMW-UHFFFAOYSA-N

>  <FORMULA>  (6080) 
C14H12O4

>  <EXACT MASS>  (6080) 
244.073558864

>  <MW>  (6080) 
244

>  <ID>  (6080) 
JP002153

>  <CONTRIBUTOR>  (6080) 
University of Tokyo Team, {Faculty of Engineering, University of Tokyo

>  <COMMENT>  (6080) 
SMILES=COC(=O)c(c1)c(C(=O)OC)c(c2)c(ccc2)c1
InChI=InChI=1S/C14H12O4/c1-17-13(15)11-8-7-9-5-3-4-6-10(9)12(11)14(16)18-2/h3-8H,1-2H3
computed SMILES=O=C(OC)C=1C=CC=2C=CC=CC2C1C(=O)OC
accession=JP002153
date=2016.01.19 (Created 2008.10.21, modified 2011.05.06)
author=KOGA M, UNIV. OF OCCUPATIONAL AND ENVIRONMENTAL HEALTH
license=CC BY-NC-SA
exact mass=244.07356
ionization energy=70 eV
ion type=[M]+*
computed spectral entropy=1.815852792124546
computed normalized entropy=0.7572694323740943
SPLASH=splash10-03di-0390000000-ab37ea50370469d51905
submitter=submitter = University of Tokyo Team (Faculty of Engineering, University of Tokyo)
MoNA Rating=3.75

>  <NUM PEAKS>  (6080) 
11

>  <MASS SPECTRAL PEAKS>  (6080) 
114 10.8
126 12.5
127 13.6
154 0.79
170 11.9
171 6.7
185 6.6
213 99.99
214 13.1
244 43.9
245 8.5

$$$$

     RDKit          2D

 15 15  0  0  0  0  0  0  0  0999 V2000
   -1.2100    0.3900    0.0000 C   0  0  0  0  0  0  0  0  0  0  0  0
    3.1239   -2.0857    0.0000 C   0  0  0  0  0  0  0  0  0  0  0  0
    0.7500   -1.0300    0.0000 C   0  0  0  0  0  0  0  0  0  0  0  0
    4.0061   -3.2988    0.0000 C   0  0  0  0  0  0  0  0  0  0  0  0
    5.4979   -3.1414    0.0000 C   0  0  0  0  0  0  0  0  0  0  0  0
    2.6582   -3.9570    0.0000 F   0  0  0  0  0  0  0  0  0  0  0  0
    4.4202   -4.7405    0.0000 F   0  0  0  0  0  0  0  0  0  0  0  0
    5.6553   -4.6331    0.0000 F   0  0  0  0  0  0  0  0  0  0  0  0
    6.9896   -2.9839    0.0000 F   0  0  0  0  0  0  0  0  0  0  0  0
    5.3404   -1.6497    0.0000 F   0  0  0  0  0  0  0  0  0  0  0  0
   -0.7500   -1.0300    0.0000 N   0  0  0  0  0  0  0  0  0  0  0  0
    0.0000    1.2800    0.0000 N   0  0  0  0  0  0  0  0  0  0  0  0
    1.6322   -2.2431    0.0000 N   0  0  0  0  0  0  0  0  0  0  0  0
    1.2100    0.3900    0.0000 N   0  0  0  0  0  0  0  0  0  0  0  0
    3.7334   -0.7151    0.0000 O   0  0  0  0  0  0  0  0  0  0  0  0
  4  2  1  0
  5  4  1  0
  6  4  1  0
  7  4  1  0
  8  5  1  0
  9  5  1  0
 10  5  1  0
 11  1  2  0
 11  3  1  0
 12  1  1  0
 13  2  2  3
 13  3  1  0
 14  3  1  0
 14 12  2  0
 15  2  1  0
M  END
>  <NAME>  (6081) 
3-(N-PENTAFLUOROPROPYL)AMINO-1,2,4-TRIAZOLE

>  <SYNONYMS>  (6081) 


>  <SPECTRUM TYPE>  (6081) 
MS1

>  <INSTRUMENT TYPE>  (6081) 
EI-B

>  <INSTRUMENT>  (6081) 
JEOL JMS-01-SG

>  <ION MODE>  (6081) 
P

>  <INCHIKEY>  (6081) 
SYVBYMQVZXBVAZ-UHFFFAOYSA-N

>  <FORMULA>  (6081) 
C5H3F5N4O

>  <EXACT MASS>  (6081) 
230.022701816

>  <MW>  (6081) 
230

>  <ID>  (6081) 
JP002152

>  <CONTRIBUTOR>  (6081) 
University of Tokyo Team, {Faculty of Engineering, University of Tokyo

>  <COMMENT>  (6081) 
SMILES=[H]C(N=1)=NC(N1)NC(=O)C(F)(F)C(F)(F)F
InChI=InChI=1S/C5H3F5N4O/c6-4(7,5(8,9)10)2(15)13-3-11-1-12-14-3/h1,3H,(H,13,15)
computed SMILES=FC(F)(F)C(F)(F)C(O)=NC1N=NC=N1
accession=JP002152
date=2016.01.19 (Created 2008.10.21, modified 2011.05.06)
author=KOGA M, UNIV. OF OCCUPATIONAL AND ENVIRONMENTAL HEALTH
license=CC BY-NC-SA
exact mass=230.0227
ionization energy=70 eV
ion type=[M]+*
computed spectral entropy=1.955829297035983
computed normalized entropy=0.7870836102446119
SPLASH=splash10-0159-8970000000-8811b8fb8c5450888b1a
submitter=submitter = University of Tokyo Team (Faculty of Engineering, University of Tokyo)
MoNA Rating=3.75

>  <NUM PEAKS>  (6081) 
12

>  <MASS SPECTRAL PEAKS>  (6081) 
50 10.4
53 9.6
54 15.1
55 0.59
68 24.2
69 65.9
83 7
100 1.36
111 74.7
119 61.5
230 99.99
231 8.4

$$$$

     RDKit          2D

 15 15  0  0  0  0  0  0  0  0999 V2000
    0.7500   -1.0300    0.0000 C   0  0  0  0  0  0  0  0  0  0  0  0
   -1.2100    0.3900    0.0000 C   0  0  0  0  0  0  0  0  0  0  0  0
   -3.1239   -2.0857    0.0000 C   0  0  0  0  0  0  0  0  0  0  0  0
   -4.0061   -3.2988    0.0000 C   0  0  0  0  0  0  0  0  0  0  0  0
   -5.4979   -3.1414    0.0000 C   0  0  0  0  0  0  0  0  0  0  0  0
   -4.4202   -4.7405    0.0000 F   0  0  0  0  0  0  0  0  0  0  0  0
   -2.6582   -3.9570    0.0000 F   0  0  0  0  0  0  0  0  0  0  0  0
   -5.3404   -1.6497    0.0000 F   0  0  0  0  0  0  0  0  0  0  0  0
   -6.9896   -2.9839    0.0000 F   0  0  0  0  0  0  0  0  0  0  0  0
   -5.6553   -4.6331    0.0000 F   0  0  0  0  0  0  0  0  0  0  0  0
    1.2100    0.3900    0.0000 N   0  0  0  0  0  0  0  0  0  0  0  0
    0.0000    1.2800    0.0000 N   0  0  0  0  0  0  0  0  0  0  0  0
   -1.6322   -2.2431    0.0000 N   0  0  0  0  0  0  0  0  0  0  0  0
   -0.7500   -1.0300    0.0000 N   0  0  0  0  0  0  0  0  0  0  0  0
   -3.7334   -0.7151    0.0000 O   0  0  0  0  0  0  0  0  0  0  0  0
  4  3  1  0
  5  4  1  0
  6  4  1  0
  7  4  1  0
  8  5  1  0
  9  5  1  0
 10  5  1  0
 11  1  2  0
 12  2  2  0
 12 11  1  0
 13  3  2  3
 14  1  1  0
 14  2  1  0
 14 13  1  0
 15  3  1  0
M  END
>  <NAME>  (6082) 
4-(N-PENTAFLUOROPROPIONYL)AMINO1,2,4-TRIAZOLE

>  <SYNONYMS>  (6082) 


>  <SPECTRUM TYPE>  (6082) 
MS1

>  <INSTRUMENT TYPE>  (6082) 
EI-B

>  <INSTRUMENT>  (6082) 
JEOL JMS-01-SG

>  <ION MODE>  (6082) 
P

>  <INCHIKEY>  (6082) 
OIXIJWYGTNCGQU-UHFFFAOYSA-N

>  <FORMULA>  (6082) 
C5H3F5N4O

>  <EXACT MASS>  (6082) 
230.022701816

>  <MW>  (6082) 
230

>  <ID>  (6082) 
JP002151

>  <CONTRIBUTOR>  (6082) 
University of Tokyo Team, {Faculty of Engineering, University of Tokyo

>  <COMMENT>  (6082) 
SMILES=O=C(Nn(c1)cnn1)C(F)(F)C(F)(F)F
InChI=InChI=1S/C5H3F5N4O/c6-4(7,5(8,9)10)3(15)13-14-1-11-12-2-14/h1-2H,(H,13,15)
computed SMILES=FC(F)(F)C(F)(F)C(O)=NN1C=NN=C1
accession=JP002151
date=2016.01.19 (Created 2008.10.21, modified 2011.05.06)
author=KOGA M, UNIV. OF OCCUPATIONAL AND ENVIRONMENTAL HEALTH
license=CC BY-NC-SA
exact mass=230.0227
ionization energy=70 eV
ion type=[M]+*
computed spectral entropy=2.09497641531158
computed normalized entropy=0.7938351288552725
SPLASH=splash10-014i-6920000000-4a44be72898f75784ca4
submitter=submitter = University of Tokyo Team (Faculty of Engineering, University of Tokyo)
MoNA Rating=3.75

>  <NUM PEAKS>  (6082) 
14

>  <MASS SPECTRAL PEAKS>  (6082) 
43 10.5
44 4.6
50 18
55 2.61
56 10
57 8.2
69 71.6
83 0.7
84 5.8
100 42.9
111 29.4
119 99.99
230 33.3
231 8.4

$$$$

     RDKit          2D

 14 15  0  0  0  0  0  0  0  0999 V2000
    7.4270    2.7906    0.0000 C   0  0  0  0  0  0  0  0  0  0  0  0
   -1.6700   -0.9600    0.0000 C   0  0  0  0  0  0  0  0  0  0  0  0
    6.1270    3.5406    0.0000 C   0  0  0  0  0  0  0  0  0  0  0  0
    7.4270    1.2906    0.0000 C   0  0  0  0  0  0  0  0  0  0  0  0
   -0.3700   -1.7100    0.0000 C   0  0  0  0  0  0  0  0  0  0  0  0
   -1.6700    0.5400    0.0000 C   0  0  0  0  0  0  0  0  0  0  0  0
    4.8270    2.7906    0.0000 C   0  0  0  0  0  0  0  0  0  0  0  0
    6.1270    0.5406    0.0000 C   0  0  0  0  0  0  0  0  0  0  0  0
    0.9300   -0.9600    0.0000 C   0  0  0  0  0  0  0  0  0  0  0  0
   -0.3700    1.2900    0.0000 C   0  0  0  0  0  0  0  0  0  0  0  0
    4.8270    1.2906    0.0000 C   0  0  0  0  0  0  0  0  0  0  0  0
    0.9300    0.5400    0.0000 C   0  0  0  0  0  0  0  0  0  0  0  0
    3.5281    0.5404    0.0000 S   0  0  0  0  0  0  0  0  0  0  0  0
    2.2289    1.2902    0.0000 S   0  0  0  0  0  0  0  0  0  0  0  0
  3  1  2  0
  4  1  1  0
  5  2  2  0
  6  2  1  0
  7  3  1  0
  8  4  2  0
  9  5  1  0
 10  6  2  0
 11  7  2  0
 11  8  1  0
 12  9  2  0
 12 10  1  0
 13 11  1  0
 14 12  1  0
 14 13  1  0
M  END
>  <NAME>  (6083) 
DIPHENYLDISULFIDE

>  <SYNONYMS>  (6083) 


>  <SPECTRUM TYPE>  (6083) 
MS1

>  <INSTRUMENT TYPE>  (6083) 
EI-B

>  <INSTRUMENT>  (6083) 
JEOL JMS-01-SG

>  <ION MODE>  (6083) 
P

>  <INCHIKEY>  (6083) 
GUUVPOWQJOLRAS-UHFFFAOYSA-N

>  <FORMULA>  (6083) 
C12H10S2

>  <EXACT MASS>  (6083) 
218.02239232

>  <MW>  (6083) 
218

>  <ID>  (6083) 
JP002150

>  <CONTRIBUTOR>  (6083) 
University of Tokyo Team, {Faculty of Engineering, University of Tokyo

>  <COMMENT>  (6083) 
SMILES=c(c2)ccc(c2)SSc(c1)cccc1
InChI=InChI=1S/C12H10S2/c1-3-7-11(8-4-1)13-14-12-9-5-2-6-10-12/h1-10H
computed SMILES=S(SC=1C=CC=CC1)C=2C=CC=CC2
accession=JP002150
date=2016.01.19 (Created 2008.10.21, modified 2011.05.06)
author=KOGA M, UNIV. OF OCCUPATIONAL AND ENVIRONMENTAL HEALTH
license=CC BY-NC-SA
exact mass=218.02239
ionization energy=70 eV
ion type=[M]+*
computed spectral entropy=2.406905573846959
computed normalized entropy=0.7905691690834608
SPLASH=splash10-066r-4930000000-114dfaf5f4b91fdb223f
submitter=submitter = University of Tokyo Team (Faculty of Engineering, University of Tokyo)
MoNA Rating=3.75

>  <NUM PEAKS>  (6083) 
21

>  <MASS SPECTRAL PEAKS>  (6083) 
55 12.6
57 7.1
65 62.1
66 1.12
69 16.5
77 18.2
78 5.7
108 0.97
109 99.99
110 23.3
111 6.5
140 0.77
141 7.1
154 33.1
155 5.8
184 1.35
185 31.2
186 20.4
218 75.5
219 0.97
220 7

$$$$

     RDKit          2D

 16 17  0  0  0  0  0  0  0  0999 V2000
    5.1981    0.7504    0.0000 C   0  0  0  0  0  0  0  0  0  0  0  0
    2.5990    5.2500    0.0000 C   0  0  0  0  0  0  0  0  0  0  0  0
   -2.6000   -0.7500    0.0000 C   0  0  0  0  0  0  0  0  0  0  0  0
   -2.6000    0.7500    0.0000 C   0  0  0  0  0  0  0  0  0  0  0  0
   -1.3000   -1.5000    0.0000 C   0  0  0  0  0  0  0  0  0  0  0  0
   -1.3000    1.5000    0.0000 C   0  0  0  0  0  0  0  0  0  0  0  0
    1.3000   -1.5000    0.0000 C   0  0  0  0  0  0  0  0  0  0  0  0
    2.6000   -0.7500    0.0000 C   0  0  0  0  0  0  0  0  0  0  0  0
    0.0000   -0.7500    0.0000 C   0  0  0  0  0  0  0  0  0  0  0  0
    0.0000    0.7500    0.0000 C   0  0  0  0  0  0  0  0  0  0  0  0
    2.6000    0.7500    0.0000 C   0  0  0  0  0  0  0  0  0  0  0  0
    1.3000    1.5000    0.0000 C   0  0  0  0  0  0  0  0  0  0  0  0
    1.3000    3.0000    0.0000 C   0  0  0  0  0  0  0  0  0  0  0  0
    0.0010    3.7500    0.0000 O   0  0  0  0  0  0  0  0  0  0  0  0
    3.8989    1.5002    0.0000 O   0  0  0  0  0  0  0  0  0  0  0  0
    2.5990    3.7500    0.0000 O   0  0  0  0  0  0  0  0  0  0  0  0
  4  3  2  0
  5  3  1  0
  6  4  1  0
  8  7  2  0
  9  5  2  0
  9  7  1  0
 10  6  2  0
 10  9  1  0
 11  8  1  0
 12 10  1  0
 12 11  2  0
 13 12  1  0
 14 13  2  0
 15  1  1  0
 15 11  1  0
 16  2  1  0
 16 13  1  0
M  END
>  <NAME>  (6084) 
2-METHOXY-1-NAPHTHOIC ACID METHYL ESTER

>  <SYNONYMS>  (6084) 


>  <SPECTRUM TYPE>  (6084) 
MS1

>  <INSTRUMENT TYPE>  (6084) 
EI-B

>  <INSTRUMENT>  (6084) 
JEOL JMS-01-SG

>  <ION MODE>  (6084) 
P

>  <INCHIKEY>  (6084) 
BDXGQHHFVPQVAQ-UHFFFAOYSA-N

>  <FORMULA>  (6084) 
C13H12O3

>  <EXACT MASS>  (6084) 
216.07864424399997

>  <MW>  (6084) 
216

>  <ID>  (6084) 
JP002149

>  <CONTRIBUTOR>  (6084) 
University of Tokyo Team, {Faculty of Engineering, University of Tokyo

>  <COMMENT>  (6084) 
SMILES=COC(=O)c(c(OC)1)c(c2)c(ccc2)cc1
InChI=InChI=1S/C13H12O3/c1-15-11-8-7-9-5-3-4-6-10(9)12(11)13(14)16-2/h3-8H,1-2H3
computed SMILES=O=C(OC)C1=C(OC)C=CC=2C=CC=CC21
accession=JP002149
date=2016.01.19 (Created 2008.10.21, modified 2011.05.06)
author=KOGA M, UNIV. OF OCCUPATIONAL AND ENVIRONMENTAL HEALTH
license=CC BY-NC-SA
exact mass=216.07864
ionization energy=70 eV
ion type=[M]+*
computed spectral entropy=1.8588575807754528
computed normalized entropy=0.7043642288159201
SPLASH=splash10-00kr-0930000000-1ab8c6f60dd80efe973b
submitter=submitter = University of Tokyo Team (Faculty of Engineering, University of Tokyo)
MoNA Rating=3.75

>  <NUM PEAKS>  (6084) 
14

>  <MASS SPECTRAL PEAKS>  (6084) 
88 5
114 15.5
115 6.4
127 1.63
128 5
129 5.4
142 16.3
149 3.88
150 4.6
170 8.9
185 99.99
186 1.61
216 62.3
217 9.9

$$$$

     RDKit          2D

 20 21  0  0  0  0  0  0  0  0999 V2000
    0.6652   -2.2841    0.0000 C   0  0  0  0  0  0  0  0  0  0  0  0
    4.5623    1.4659    0.0000 C   0  0  0  0  0  0  0  0  0  0  0  0
    5.8614    2.2159    0.0000 H   0  0  0  0  0  0  0  0  0  0  0  0
    3.2628    2.2167    0.0000 C   0  0  0  0  0  0  0  0  0  0  0  0
    3.2631    3.7167    0.0000 H   0  0  0  0  0  0  0  0  0  0  0  0
    4.5628   -0.0350    0.0000 C   0  0  0  0  0  0  0  0  0  0  0  0
    5.8620   -0.7848    0.0000 H   0  0  0  0  0  0  0  0  0  0  0  0
    1.9638    1.4667    0.0000 C   0  0  0  0  0  0  0  0  0  0  0  0
    0.6646    2.2165    0.0000 H   0  0  0  0  0  0  0  0  0  0  0  0
    3.2638   -0.7850    0.0000 C   0  0  0  0  0  0  0  0  0  0  0  0
    3.2635   -2.2850    0.0000 H   0  0  0  0  0  0  0  0  0  0  0  0
   -1.9291   -0.7905    0.0000 C   0  0  0  0  0  0  0  0  0  0  0  0
   -0.6265    1.4408    0.0000 C   0  0  0  0  0  0  0  0  0  0  0  0
   -3.2172   -0.0720    0.0000 C   0  0  0  0  0  0  0  0  0  0  0  0
   -1.9550    2.2284    0.0000 C   0  0  0  0  0  0  0  0  0  0  0  0
    0.6652   -0.7841    0.0000 C   0  0  0  0  0  0  0  0  0  0  0  0
    1.9643   -0.0341    0.0000 C   0  0  0  0  0  0  0  0  0  0  0  0
   -0.6338   -0.0341    0.0000 C   0  0  0  0  0  0  0  0  0  0  0  0
   -3.2503    1.4720    0.0000 C   0  0  0  0  0  0  0  0  0  0  0  0
   -4.5591    2.2048    0.0000 O   0  0  0  0  0  0  0  0  0  0  0  0
  2  3  1  0
  4  5  1  0
  6  7  1  0
  8  9  1  0
 10 11  1  0
  4  2  2  0
  6  2  1  0
  8  4  1  0
 10  6  2  0
 14 12  2  0
 15 13  1  0
 16  1  1  0
 17  8  2  0
 17 10  1  0
 17 16  1  0
 18 12  1  0
 18 13  2  0
 18 16  1  0
 19 14  1  0
 19 15  2  0
 20 19  1  0
M  ISO  5   3   2   5   2   7   2   9   2  11   2
M  END
>  <NAME>  (6085) 
PARA-(ALPHA-METHYLBENZYL(5D))PHENOL

>  <SYNONYMS>  (6085) 


>  <SPECTRUM TYPE>  (6085) 
MS1

>  <INSTRUMENT TYPE>  (6085) 
EI-B

>  <INSTRUMENT>  (6085) 
JEOL JMS-01-SG

>  <ION MODE>  (6085) 
P

>  <INCHIKEY>  (6085) 
XHASMJXNUHCHBL-VIQYUKPQSA-N

>  <FORMULA>  (6085) 
C14H14O

>  <EXACT MASS>  (6085) 
203.135848798

>  <MW>  (6085) 
203

>  <ID>  (6085) 
JP002148

>  <CONTRIBUTOR>  (6085) 
University of Tokyo Team, {Faculty of Engineering, University of Tokyo

>  <COMMENT>  (6085) 
SMILES=Oc(c2)ccc(c2)C(C)c(c([2H])1)c([2H])c([2H])c([2H])c([2H])1
InChI=InChI=1S/C14H14O/c1-11(12-5-3-2-4-6-12)13-7-9-14(15)10-8-13/h2-11,15H,1H3/i2D,3D,4D,5D,6D
computed SMILES=[H]C=1C(=C([H])C([H])=C([H])C1[H])C(C2=CC=C(O)C=C2)C
accession=JP002148
date=2016.01.19 (Created 2008.10.21, modified 2011.05.06)
author=KOGA M, UNIV. OF OCCUPATIONAL AND ENVIRONMENTAL HEALTH
license=CC BY-NC-SA
exact mass=198.10447
ionization energy=70 eV
ion type=[M]+*
computed spectral entropy=2.305112852600322
computed normalized entropy=0.7571344602485496
SPLASH=splash10-000i-2900000000-155160b2a02a5708d277
submitter=submitter = University of Tokyo Team (Faculty of Engineering, University of Tokyo)
MoNA Rating=3.75

>  <NUM PEAKS>  (6085) 
21

>  <MASS SPECTRAL PEAKS>  (6085) 
44 8.1
51 7.2
55 7.2
56 0.72
57 7.2
65 7.5
77 8.1
78 0.72
91 7.2
121 7.2
157 7.2
158 0.72
160 7.2
169 14.7
170 12.5
186 0.72
187 8.8
188 99.99
189 15.7
203 3.61
204 7.5

$$$$

     RDKit          2D

 15 16  0  0  0  0  0  0  0  0999 V2000
    6.0441    1.1454    0.0000 C   0  0  0  0  0  0  0  0  0  0  0  0
   -3.0200   -1.1200    0.0000 C   0  0  0  0  0  0  0  0  0  0  0  0
   -3.0200    0.3600    0.0000 C   0  0  0  0  0  0  0  0  0  0  0  0
   -1.7200   -1.8800    0.0000 C   0  0  0  0  0  0  0  0  0  0  0  0
   -1.7500    1.1100    0.0000 C   0  0  0  0  0  0  0  0  0  0  0  0
    0.8800   -1.8800    0.0000 C   0  0  0  0  0  0  0  0  0  0  0  0
    2.1700   -1.1200    0.0000 C   0  0  0  0  0  0  0  0  0  0  0  0
   -0.4200   -1.1200    0.0000 C   0  0  0  0  0  0  0  0  0  0  0  0
   -0.4200    0.3600    0.0000 C   0  0  0  0  0  0  0  0  0  0  0  0
    2.1500    0.3800    0.0000 C   0  0  0  0  0  0  0  0  0  0  0  0
    0.8500    1.1400    0.0000 C   0  0  0  0  0  0  0  0  0  0  0  0
    3.4461    1.1351    0.0000 C   0  0  0  0  0  0  0  0  0  0  0  0
    0.8337    2.6399    0.0000 O   0  0  0  0  0  0  0  0  0  0  0  0
    3.4401    2.6351    0.0000 O   0  0  0  0  0  0  0  0  0  0  0  0
    4.7481    0.3903    0.0000 O   0  0  0  0  0  0  0  0  0  0  0  0
  3  2  2  0
  4  2  1  0
  5  3  1  0
  7  6  2  0
  8  4  2  0
  8  6  1  0
  9  5  2  0
  9  8  1  0
 10  7  1  0
 11  9  1  0
 11 10  2  0
 12 10  1  0
 13 11  1  0
 14 12  2  0
 15  1  1  0
 15 12  1  0
M  END
>  <NAME>  (6086) 
1-HYDROXY-2-NAPHTHOIC ACID METHYL ESTER

>  <SYNONYMS>  (6086) 


>  <SPECTRUM TYPE>  (6086) 
MS1

>  <INSTRUMENT TYPE>  (6086) 
EI-B

>  <INSTRUMENT>  (6086) 
JEOL JMS-01-SG

>  <ION MODE>  (6086) 
P

>  <INCHIKEY>  (6086) 
HMIBDRSTVGFJPB-UHFFFAOYSA-N

>  <FORMULA>  (6086) 
C12H10O3

>  <EXACT MASS>  (6086) 
202.06299417999998

>  <MW>  (6086) 
202

>  <ID>  (6086) 
JP002147

>  <CONTRIBUTOR>  (6086) 
University of Tokyo Team, {Faculty of Engineering, University of Tokyo

>  <COMMENT>  (6086) 
SMILES=COC(=O)c(c1)c(O)c(c2)c(ccc2)c1
InChI=InChI=1S/C12H10O3/c1-15-12(14)10-7-6-8-4-2-3-5-9(8)11(10)13/h2-7,13H,1H3
computed SMILES=O=C(OC)C=1C=CC=2C=CC=CC2C1O
accession=JP002147
date=2016.01.19 (Created 2008.10.21, modified 2011.05.06)
author=KOGA M, UNIV. OF OCCUPATIONAL AND ENVIRONMENTAL HEALTH
license=CC BY-NC-SA
exact mass=202.06299
ionization energy=70 eV
ion type=[M]+*
computed spectral entropy=1.977466550110299
computed normalized entropy=0.7957910814392188
SPLASH=splash10-00di-1910000000-e150b9bb19db367685cb
submitter=submitter = University of Tokyo Team (Faculty of Engineering, University of Tokyo)
MoNA Rating=3.75

>  <NUM PEAKS>  (6086) 
12

>  <MASS SPECTRAL PEAKS>  (6086) 
63 10.3
71 13.1
85 7.9
113 1.07
114 37.4
115 19.1
142 62.5
143 0.98
170 99.99
171 17
202 41.3
203 6.2

$$$$

     RDKit          2D

 15 16  0  0  0  0  0  0  0  0999 V2000
    2.2889   -1.7216    0.0000 C   0  0  0  0  0  0  0  0  0  0  0  0
    6.1861    2.0284    0.0000 C   0  0  0  0  0  0  0  0  0  0  0  0
    4.8865    2.7792    0.0000 C   0  0  0  0  0  0  0  0  0  0  0  0
    6.1865    0.5276    0.0000 C   0  0  0  0  0  0  0  0  0  0  0  0
    3.5875    2.0292    0.0000 C   0  0  0  0  0  0  0  0  0  0  0  0
    4.8875   -0.2224    0.0000 C   0  0  0  0  0  0  0  0  0  0  0  0
   -0.3054   -0.2280    0.0000 C   0  0  0  0  0  0  0  0  0  0  0  0
    0.9972    2.0033    0.0000 C   0  0  0  0  0  0  0  0  0  0  0  0
   -1.5935    0.4905    0.0000 C   0  0  0  0  0  0  0  0  0  0  0  0
   -0.3312    2.7909    0.0000 C   0  0  0  0  0  0  0  0  0  0  0  0
    2.2889   -0.2216    0.0000 C   0  0  0  0  0  0  0  0  0  0  0  0
    3.5880    0.5284    0.0000 C   0  0  0  0  0  0  0  0  0  0  0  0
    0.9899    0.5284    0.0000 C   0  0  0  0  0  0  0  0  0  0  0  0
   -1.6266    2.0345    0.0000 C   0  0  0  0  0  0  0  0  0  0  0  0
   -2.9354    2.7674    0.0000 O   0  0  0  0  0  0  0  0  0  0  0  0
  3  2  2  0
  4  2  1  0
  5  3  1  0
  6  4  2  0
  9  7  2  0
 10  8  1  0
 11  1  1  0
 12  5  2  0
 12  6  1  0
 12 11  1  0
 13  7  1  0
 13  8  2  0
 13 11  1  0
 14  9  1  0
 14 10  2  0
 15 14  1  0
M  END
>  <NAME>  (6087) 
PARA-(ALPHA-METHYLBENZYL)PHENOL

>  <SYNONYMS>  (6087) 


>  <SPECTRUM TYPE>  (6087) 
MS1

>  <INSTRUMENT TYPE>  (6087) 
EI-B

>  <INSTRUMENT>  (6087) 
JEOL JMS-01-SG

>  <ION MODE>  (6087) 
P

>  <INCHIKEY>  (6087) 
XHASMJXNUHCHBL-UHFFFAOYSA-N

>  <FORMULA>  (6087) 
C14H14O

>  <EXACT MASS>  (6087) 
198.104465068

>  <MW>  (6087) 
198

>  <ID>  (6087) 
JP002146

>  <CONTRIBUTOR>  (6087) 
University of Tokyo Team, {Faculty of Engineering, University of Tokyo

>  <COMMENT>  (6087) 
SMILES=Oc(c2)ccc(c2)C(C)c(c1)cccc1
InChI=InChI=1S/C14H14O/c1-11(12-5-3-2-4-6-12)13-7-9-14(15)10-8-13/h2-11,15H,1H3
computed SMILES=OC1=CC=C(C=C1)C(C=2C=CC=CC2)C
accession=JP002146
date=2016.01.19 (Created 2008.10.21, modified 2011.05.06)
author=KOGA M, UNIV. OF OCCUPATIONAL AND ENVIRONMENTAL HEALTH
license=CC BY-NC-SA
exact mass=198.10447
ionization energy=70 eV
ion type=[M]+*
computed spectral entropy=2.6419544074014643
computed normalized entropy=0.8016035121921578
SPLASH=splash10-001i-5900000000-d67bcb715aec85ab57fb
submitter=submitter = University of Tokyo Team (Faculty of Engineering, University of Tokyo)
MoNA Rating=3.75

>  <NUM PEAKS>  (6087) 
27

>  <MASS SPECTRAL PEAKS>  (6087) 
44 10
45 6.1
51 6.1
55 1.93
56 10.2
57 15.2
67 0.68
69 12.1
70 7.5
71 7.8
75 10.2
77 0.86
78 6.8
79 5
81 6.4
82 0.58
83 8.3
84 5.8
91 8.3
94 0.58
97 5.7
149 9.5
165 25.7
183 99.99
184 15.1
198 51.9
199 9.3

$$$$

     RDKit          2D

 13 15  0  0  0  0  0  0  0  0999 V2000
    3.2200   -1.2700    0.0000 C   0  0  0  0  0  0  0  0  0  0  0  0
   -3.2200   -1.2700    0.0000 C   0  0  0  0  0  0  0  0  0  0  0  0
    3.6800    0.1600    0.0000 C   0  0  0  0  0  0  0  0  0  0  0  0
   -3.6800    0.1600    0.0000 C   0  0  0  0  0  0  0  0  0  0  0  0
    1.7500   -1.5800    0.0000 C   0  0  0  0  0  0  0  0  0  0  0  0
   -1.7500   -1.5800    0.0000 C   0  0  0  0  0  0  0  0  0  0  0  0
    2.6800    1.2700    0.0000 C   0  0  0  0  0  0  0  0  0  0  0  0
   -2.6800    1.2700    0.0000 C   0  0  0  0  0  0  0  0  0  0  0  0
    0.7500   -0.4700    0.0000 C   0  0  0  0  0  0  0  0  0  0  0  0
   -0.7500   -0.4700    0.0000 C   0  0  0  0  0  0  0  0  0  0  0  0
    1.2100    0.9600    0.0000 C   0  0  0  0  0  0  0  0  0  0  0  0
   -1.2100    0.9600    0.0000 C   0  0  0  0  0  0  0  0  0  0  0  0
    0.0000    1.8400    0.0000 S   0  0  0  0  0  0  0  0  0  0  0  0
  3  1  2  0
  4  2  2  0
  5  1  1  0
  6  2  1  0
  7  3  1  0
  8  4  1  0
  9  5  2  0
 10  6  2  0
 10  9  1  0
 11  7  2  0
 11  9  1  0
 12  8  2  0
 12 10  1  0
 13 11  1  0
 13 12  1  0
M  END
>  <NAME>  (6088) 
DIBENZOTHIOPHENE

>  <SYNONYMS>  (6088) 


>  <SPECTRUM TYPE>  (6088) 
MS1

>  <INSTRUMENT TYPE>  (6088) 
EI-B

>  <INSTRUMENT>  (6088) 
JEOL JMS-01-SG

>  <ION MODE>  (6088) 
P

>  <INCHIKEY>  (6088) 
IYYZUPMFVPLQIF-UHFFFAOYSA-N

>  <FORMULA>  (6088) 
C12H8S

>  <EXACT MASS>  (6088) 
184.034671256

>  <MW>  (6088) 
184

>  <ID>  (6088) 
JP002145

>  <CONTRIBUTOR>  (6088) 
University of Tokyo Team, {Faculty of Engineering, University of Tokyo

>  <COMMENT>  (6088) 
SMILES=c(c3)cc(s1)c(c3)c(c2)c(ccc2)1
InChI=InChI=1S/C12H8S/c1-3-7-11-9(5-1)10-6-2-4-8-12(10)13-11/h1-8H
computed SMILES=S1C=2C=CC=CC2C=3C=CC=CC13
accession=JP002145
date=2016.01.19 (Created 2008.10.21, modified 2011.05.06)
author=KOGA M, UNIV. OF OCCUPATIONAL AND ENVIRONMENTAL HEALTH
license=CC BY-NC-SA
exact mass=184.03467
ionization energy=70 eV
ion type=[M]+*
computed spectral entropy=1.794010747126226
computed normalized entropy=0.6797922602870361
SPLASH=splash10-001i-1900000000-2b4678815c405c7d2ef4
submitter=submitter = University of Tokyo Team (Faculty of Engineering, University of Tokyo)
MoNA Rating=3.75

>  <NUM PEAKS>  (6088) 
14

>  <MASS SPECTRAL PEAKS>  (6088) 
44 3.9
63 3.2
79 8.2
91 0.45
92 12.5
138 3.5
139 15.4
140 0.39
152 11.4
182 3.5
183 5.8
184 99.99
185 17.5
186 8.3

$$$$

     RDKit          2D

 12 12  0  0  0  0  0  0  0  0999 V2000
   -3.8894    0.4766    0.0000 C   0  0  0  0  0  0  0  0  0  0  0  0
   -4.1392   -1.9308    0.0000 C   0  0  0  0  0  0  0  0  0  0  0  0
   -1.0382   -2.3505    0.0000 C   0  0  0  0  0  0  0  0  0  0  0  0
    0.4535   -2.5079    0.0000 C   0  0  0  0  0  0  0  0  0  0  0  0
    0.2960   -3.9996    0.0000 F   0  0  0  0  0  0  0  0  0  0  0  0
    1.9452   -2.6654    0.0000 F   0  0  0  0  0  0  0  0  0  0  0  0
    0.6109   -1.0162    0.0000 F   0  0  0  0  0  0  0  0  0  0  0  0
   -5.3492    0.1650    0.0000 N   0  0  0  0  0  0  0  0  0  0  0  0
   -5.5149   -1.3279    0.0000 N   0  0  0  0  0  0  0  0  0  0  0  0
   -1.6477   -0.9799    0.0000 N   0  0  0  0  0  0  0  0  0  0  0  0
   -3.1394   -0.8224    0.0000 N   0  0  0  0  0  0  0  0  0  0  0  0
   -1.9204   -3.5636    0.0000 O   0  0  0  0  0  0  0  0  0  0  0  0
  4  3  1  0
  5  4  1  0
  6  4  1  0
  7  4  1  0
  8  1  2  0
  9  2  2  0
  9  8  1  0
 10  3  2  3
 11  1  1  0
 11  2  1  0
 11 10  1  0
 12  3  1  0
M  END
>  <NAME>  (6089) 
4-(N-TRIFLUOROACETYL)AMINO-1,2,4-TRIAZOLE

>  <SYNONYMS>  (6089) 


>  <SPECTRUM TYPE>  (6089) 
MS1

>  <INSTRUMENT TYPE>  (6089) 
EI-B

>  <INSTRUMENT>  (6089) 
JEOL JMS-01-SG

>  <ION MODE>  (6089) 
P

>  <INCHIKEY>  (6089) 
YTBZSBHBBPVUID-UHFFFAOYSA-N

>  <FORMULA>  (6089) 
C4H3F3N4O

>  <EXACT MASS>  (6089) 
180.025895376

>  <MW>  (6089) 
180

>  <ID>  (6089) 
JP002144

>  <CONTRIBUTOR>  (6089) 
University of Tokyo Team, {Faculty of Engineering, University of Tokyo

>  <COMMENT>  (6089) 
SMILES=O=C(Nn(c1)cnn1)C(F)(F)F
InChI=InChI=1S/C4H3F3N4O/c5-4(6,7)3(12)10-11-1-8-9-2-11/h1-2H,(H,10,12)
computed SMILES=FC(F)(F)C(O)=NN1C=NN=C1
accession=JP002144
date=2016.01.19 (Created 2008.10.21, modified 2011.05.06)
author=KOGA M, UNIV. OF OCCUPATIONAL AND ENVIRONMENTAL HEALTH
license=CC BY-NC-SA
exact mass=180.0259
ionization energy=70 eV
ion type=[M]+*
computed spectral entropy=1.3863956923587908
computed normalized entropy=0.6667153966919496
SPLASH=splash10-001i-4900000000-0b863527ddd815ec2f67
submitter=submitter = University of Tokyo Team (Faculty of Engineering, University of Tokyo)
MoNA Rating=3.75

>  <NUM PEAKS>  (6089) 
8

>  <MASS SPECTRAL PEAKS>  (6089) 
51 13.1
53 5.6
69 41.2
84 0.84
111 14
153 5
180 99.99
181 5.9

$$$$

     RDKit          2D

 12 12  0  0  0  0  0  0  0  0999 V2000
   -1.3399   -3.3969    0.0000 C   0  0  0  0  0  0  0  0  0  0  0  0
    2.9711   -0.8815    0.0000 C   0  0  0  0  0  0  0  0  0  0  0  0
    0.8698   -2.4095    0.0000 C   0  0  0  0  0  0  0  0  0  0  0  0
    4.4628   -0.7240    0.0000 C   0  0  0  0  0  0  0  0  0  0  0  0
    4.6202   -2.2158    0.0000 F   0  0  0  0  0  0  0  0  0  0  0  0
    5.9545   -0.5666    0.0000 F   0  0  0  0  0  0  0  0  0  0  0  0
    4.3053    0.7677    0.0000 F   0  0  0  0  0  0  0  0  0  0  0  0
    0.1198   -3.7086    0.0000 N   0  0  0  0  0  0  0  0  0  0  0  0
   -1.5057   -1.9041    0.0000 N   0  0  0  0  0  0  0  0  0  0  0  0
    2.3616   -2.2521    0.0000 N   0  0  0  0  0  0  0  0  0  0  0  0
   -0.1299   -1.3012    0.0000 N   0  0  0  0  0  0  0  0  0  0  0  0
    2.0888    0.3316    0.0000 O   0  0  0  0  0  0  0  0  0  0  0  0
  4  2  1  0
  5  4  1  0
  6  4  1  0
  7  4  1  0
  8  1  2  0
  8  3  1  0
  9  1  1  0
 10  2  2  3
 10  3  1  0
 11  3  2  0
 11  9  1  0
 12  2  1  0
M  END
>  <NAME>  (6090) 
3-(N-TRIFLUOROACETYL)AMINO-1,2,4-TRIAZOLE

>  <SYNONYMS>  (6090) 


>  <SPECTRUM TYPE>  (6090) 
MS1

>  <INSTRUMENT TYPE>  (6090) 
EI-B

>  <INSTRUMENT>  (6090) 
JEOL JMS-01-SG

>  <ION MODE>  (6090) 
P

>  <INCHIKEY>  (6090) 
YZJAOMRBFRWXNC-UHFFFAOYSA-N

>  <FORMULA>  (6090) 
C4H3F3N4O

>  <EXACT MASS>  (6090) 
180.025895376

>  <MW>  (6090) 
180

>  <ID>  (6090) 
JP002143

>  <CONTRIBUTOR>  (6090) 
University of Tokyo Team, {Faculty of Engineering, University of Tokyo

>  <COMMENT>  (6090) 
SMILES=C1=NNC(=N1)NC(=O)C(F)(F)F
InChI=InChI=1S/C4H3F3N4O/c5-4(6,7)2(12)10-3-8-1-9-11-3/h1H,(H2,8,9,10,11,12)
computed SMILES=FC(F)(F)C(O)=NC=1N=CNN1
accession=JP002143
date=2016.01.19 (Created 2008.10.21, modified 2011.05.06)
author=KOGA M, UNIV. OF OCCUPATIONAL AND ENVIRONMENTAL HEALTH
license=CC BY-NC-SA
exact mass=180.0259
ionization energy=70 eV
ion type=[M]+*
computed spectral entropy=1.5450391845709124
computed normalized entropy=0.7031776362359933
SPLASH=splash10-00lr-5900000000-8defba1107eb01ed8e87
submitter=submitter = University of Tokyo Team (Faculty of Engineering, University of Tokyo)
MoNA Rating=3.75

>  <NUM PEAKS>  (6090) 
9

>  <MASS SPECTRAL PEAKS>  (6090) 
50 8.1
51 9.2
53 6.1
67 1.03
69 65
111 42.7
149 5.1
180 99.99
181 5.6

$$$$

     RDKit          2D

 10  9  0  0  0  0  0  0  0  0999 V2000
   -7.1447    4.8750    0.0000 C   0  0  0  0  0  0  0  0  0  0  0  0
    1.9486    5.6250    0.0000 C   0  0  0  0  0  0  0  0  0  0  0  0
   -5.8457    5.6250    0.0000 C   0  0  0  0  0  0  0  0  0  0  0  0
    0.6495    4.8750    0.0000 C   0  0  0  0  0  0  0  0  0  0  0  0
   -3.2476    5.6250    0.0000 C   0  0  0  0  0  0  0  0  0  0  0  0
   -1.9486    4.8750    0.0000 C   0  0  0  0  0  0  0  0  0  0  0  0
   -8.4437    5.6250    0.0000 N   0  0  0  0  0  0  0  0  0  0  0  0
    3.2476    4.8750    0.0000 N   0  0  0  0  0  0  0  0  0  0  0  0
   -4.5466    4.8750    0.0000 N   0  0  0  0  0  0  0  0  0  0  0  0
   -0.6495    5.6250    0.0000 N   0  0  0  0  0  0  0  0  0  0  0  0
  3  1  1  0
  4  2  1  0
  6  5  1  0
  7  1  1  0
  8  2  1  0
  9  3  1  0
  9  5  1  0
 10  4  1  0
 10  6  1  0
M  END
>  <NAME>  (6091) 
TRIETHYLENETETRAMINE

>  <SYNONYMS>  (6091) 


>  <SPECTRUM TYPE>  (6091) 
MS1

>  <INSTRUMENT TYPE>  (6091) 
EI-B

>  <INSTRUMENT>  (6091) 
JEOL JMS-01-SG

>  <ION MODE>  (6091) 
P

>  <INCHIKEY>  (6091) 
VILCJCGEZXAXTO-UHFFFAOYSA-N

>  <FORMULA>  (6091) 
C6H18N4

>  <EXACT MASS>  (6091) 
146.15314657599998

>  <MW>  (6091) 
146

>  <ID>  (6091) 
JP002142

>  <CONTRIBUTOR>  (6091) 
University of Tokyo Team, {Faculty of Engineering, University of Tokyo

>  <COMMENT>  (6091) 
SMILES=NCCNCCNCCN
InChI=InChI=1S/C6H18N4/c7-1-3-9-5-6-10-4-2-8/h9-10H,1-8H2
computed SMILES=NCCNCCNCCN
accession=JP002142
date=2016.01.19 (Created 2008.10.21, modified 2011.05.06)
author=KOGA M, UNIV. OF OCCUPATIONAL AND ENVIRONMENTAL HEALTH
license=CC BY-NC-SA
exact mass=146.15315
ionization energy=70 eV
ion type=[M]+*
computed spectral entropy=1.9600252738296784
computed normalized entropy=0.7426990129522596
SPLASH=splash10-0006-9000000000-dc59b9e5ca78bd735bee
submitter=submitter = University of Tokyo Team (Faculty of Engineering, University of Tokyo)
MoNA Rating=3.75

>  <NUM PEAKS>  (6091) 
14

>  <MASS SPECTRAL PEAKS>  (6091) 
43 12.8
44 99.99
56 24.9
57 0.53
58 8.4
61 8
70 13
73 3.22
85 6.7
87 5.6
97 6.6
98 0.63
99 23.9
116 13.5

$$$$

     RDKit          2D

 12 12  0  0  0  0  0  0  0  0999 V2000
    7.4251    1.2910    0.0000 C   0  0  0  0  0  0  0  0  0  0  0  0
   -1.6700   -0.9600    0.0000 C   0  0  0  0  0  0  0  0  0  0  0  0
   -1.6700    0.5400    0.0000 C   0  0  0  0  0  0  0  0  0  0  0  0
   -0.3700   -1.7100    0.0000 C   0  0  0  0  0  0  0  0  0  0  0  0
   -0.3700    1.2900    0.0000 C   0  0  0  0  0  0  0  0  0  0  0  0
    0.9300   -0.9600    0.0000 C   0  0  0  0  0  0  0  0  0  0  0  0
    3.5281    0.5404    0.0000 C   0  0  0  0  0  0  0  0  0  0  0  0
    6.1262    0.5408    0.0000 C   0  0  0  0  0  0  0  0  0  0  0  0
    0.9300    0.5400    0.0000 C   0  0  0  0  0  0  0  0  0  0  0  0
    6.1264   -0.9592    0.0000 O   0  0  0  0  0  0  0  0  0  0  0  0
    4.8270    1.2906    0.0000 O   0  0  0  0  0  0  0  0  0  0  0  0
    2.2289    1.2902    0.0000 O   0  0  0  0  0  0  0  0  0  0  0  0
  3  2  2  0
  4  2  1  0
  5  3  1  0
  6  4  2  0
  8  1  1  0
  9  5  2  0
  9  6  1  0
 10  8  2  0
 11  7  1  0
 11  8  1  0
 12  7  1  0
 12  9  1  0
M  END
>  <NAME>  (6092) 
PHENOXY METHYL ACETATE

>  <SYNONYMS>  (6092) 


>  <SPECTRUM TYPE>  (6092) 
MS1

>  <INSTRUMENT TYPE>  (6092) 
EI-B

>  <INSTRUMENT>  (6092) 
HITACHI RMU-7M

>  <ION MODE>  (6092) 
P

>  <INCHIKEY>  (6092) 
HTZSHXWXQWAYEO-UHFFFAOYSA-N

>  <FORMULA>  (6092) 
C9H10O3

>  <EXACT MASS>  (6092) 
166.06299417999998

>  <MW>  (6092) 
166

>  <ID>  (6092) 
JP002141

>  <CONTRIBUTOR>  (6092) 
University of Tokyo Team, {Faculty of Engineering, University of Tokyo

>  <COMMENT>  (6092) 
SMILES=CC(=O)OCOc(c1)cccc1
InChI=InChI=1S/C9H10O3/c1-8(10)11-7-12-9-5-3-2-4-6-9/h2-6H,7H2,1H3
computed SMILES=O=C(OCOC=1C=CC=CC1)C
accession=JP002141
date=2016.01.19 (Created 2008.10.21, modified 2011.05.06)
author=TAJIMA S, GUNMA COLLEGE OF TECHNOLOGY
license=CC BY-NC-SA
exact mass=166.06299
ionization energy=70 eV
ion type=[M]+*
computed spectral entropy=2.287369003465932
computed normalized entropy=0.6864431629214932
SPLASH=splash10-0ar0-9800000000-56af52db42155eee1096
submitter=submitter = University of Tokyo Team (Faculty of Engineering, University of Tokyo)
MoNA Rating=3.75

>  <NUM PEAKS>  (6092) 
28

>  <MASS SPECTRAL PEAKS>  (6092) 
15 3.16
27 1.14
28 4.3
29 1.77
31 1.2
32 1.2
38 1.39
39 6.33
42 1.64
44 3.16
45 8.79
50 3.86
51 14.8
59 2.53
63 1.9
64 1.08
65 6.7
66 1.2
77 73.69
78 6.14
79 23.59
80 1.58
91 1.2
94 3.86
107 99.99
108 8.29
166 59.65
167 5.95

$$$$

     RDKit          2D

 12 11  0  0  0  0  0  0  0  0999 V2000
    3.2476    4.8750    0.0000 C   0  0  0  0  0  0  0  0  0  0  0  0
   -8.4437    5.6250    0.0000 C   0  0  0  0  0  0  0  0  0  0  0  0
    1.9486    5.6250    0.0000 C   0  0  0  0  0  0  0  0  0  0  0  0
   -7.1447    4.8750    0.0000 C   0  0  0  0  0  0  0  0  0  0  0  0
   -1.9486    4.8750    0.0000 C   0  0  0  0  0  0  0  0  0  0  0  0
   -3.2476    5.6250    0.0000 C   0  0  0  0  0  0  0  0  0  0  0  0
   -0.6495    5.6250    0.0000 C   0  0  0  0  0  0  0  0  0  0  0  0
   -4.5466    4.8750    0.0000 C   0  0  0  0  0  0  0  0  0  0  0  0
   -0.6495    7.1250    0.0000 O   0  0  0  0  0  0  0  0  0  0  0  0
   -4.5466    3.3750    0.0000 O   0  0  0  0  0  0  0  0  0  0  0  0
    0.6495    4.8750    0.0000 O   0  0  0  0  0  0  0  0  0  0  0  0
   -5.8457    5.6250    0.0000 O   0  0  0  0  0  0  0  0  0  0  0  0
  3  1  1  0
  4  2  1  0
  5  6  2  0
  7  5  1  0
  8  6  1  0
  9  7  2  0
 10  8  2  0
 11  3  1  0
 11  7  1  0
 12  4  1  0
 12  8  1  0
M  END
>  <NAME>  (6093) 
FUMARIC ACID DIETHYL ESTER

>  <SYNONYMS>  (6093) 
TRANS-BUTENEDIOIC ACID DIETHYL ESTER

>  <SPECTRUM TYPE>  (6093) 
MS1

>  <INSTRUMENT TYPE>  (6093) 
EI-B

>  <INSTRUMENT>  (6093) 
HITACHI RMU-7M

>  <ION MODE>  (6093) 
P

>  <INCHIKEY>  (6093) 
IEPRKVQEAMIZSS-AATRIKPKSA-N

>  <FORMULA>  (6093) 
C8H12O4

>  <EXACT MASS>  (6093) 
172.073558864

>  <MW>  (6093) 
172

>  <ID>  (6093) 
JP002140

>  <CONTRIBUTOR>  (6093) 
University of Tokyo Team, {Faculty of Engineering, University of Tokyo

>  <COMMENT>  (6093) 
SMILES=CCOC(=O)C=CC(=O)OCC
InChI=InChI=1S/C8H12O4/c1-3-11-7(9)5-6-8(10)12-4-2/h5-6H,3-4H2,1-2H3/b6-5+
computed SMILES=O=C(OCC)C=CC(=O)OCC
accession=JP002140
date=2016.01.19 (Created 2008.10.21, modified 2011.05.06)
author=TAJIMA S, GUNMA COLLEGE OF TECHNOLOGY
license=CC BY-NC-SA
exact mass=172.07356
ionization energy=70 eV
ion type=[M]+*
computed spectral entropy=2.787441282775131
computed normalized entropy=0.8117215111152545
SPLASH=splash10-004i-9500000000-7af424f697038d4057e4
submitter=submitter = University of Tokyo Team (Faculty of Engineering, University of Tokyo)
MoNA Rating=3.75

>  <NUM PEAKS>  (6093) 
31

>  <MASS SPECTRAL PEAKS>  (6093) 
15 3.58
26 11.83
27 21.77
28 12.56
29 42.11
30 1.79
31 4.48
43 6.72
44 10.22
45 15.5
53 8.78
54 10.93
55 24.64
56 1.79
71 10.3
72 2.69
81 7.71
82 12.54
83 1.34
98 3.14
99 62.72
100 12.28
101 1
117 5.02
125 3.14
126 25.9
127 99.99
128 9.68
129 1
143 2.87
145 2.69

$$$$

     RDKit          2D

 12 12  0  0  0  0  0  0  0  0999 V2000
   -5.5207    3.1321    0.0000 C   0  0  0  0  0  0  0  0  0  0  0  0
   -4.2216    2.3821    0.0000 C   0  0  0  0  0  0  0  0  0  0  0  0
    3.5726    0.8821    0.0000 C   0  0  0  0  0  0  0  0  0  0  0  0
    3.5731    2.3829    0.0000 C   0  0  0  0  0  0  0  0  0  0  0  0
    2.2731    0.1313    0.0000 C   0  0  0  0  0  0  0  0  0  0  0  0
    2.2740    3.1329    0.0000 C   0  0  0  0  0  0  0  0  0  0  0  0
    0.9740    0.8813    0.0000 C   0  0  0  0  0  0  0  0  0  0  0  0
   -0.3245    3.1321    0.0000 C   0  0  0  0  0  0  0  0  0  0  0  0
    0.9745    2.3821    0.0000 C   0  0  0  0  0  0  0  0  0  0  0  0
   -1.6236    2.3821    0.0000 C   0  0  0  0  0  0  0  0  0  0  0  0
   -1.6236    0.8821    0.0000 O   0  0  0  0  0  0  0  0  0  0  0  0
   -2.9226    3.1321    0.0000 O   0  0  0  0  0  0  0  0  0  0  0  0
  2  1  1  0
  4  3  2  0
  5  3  1  0
  6  4  1  0
  7  5  2  0
  9  6  2  0
  9  7  1  0
  9  8  1  0
 10  8  1  0
 11 10  2  0
 12  2  1  0
 12 10  1  0
M  END
>  <NAME>  (6094) 
PHENYL ACETIC ACID ETHYL ESTER

>  <SYNONYMS>  (6094) 


>  <SPECTRUM TYPE>  (6094) 
MS1

>  <INSTRUMENT TYPE>  (6094) 
EI-B

>  <INSTRUMENT>  (6094) 
HITACHI RMU-7M

>  <ION MODE>  (6094) 
P

>  <INCHIKEY>  (6094) 
DULCUDSUACXJJC-UHFFFAOYSA-N

>  <FORMULA>  (6094) 
C10H12O2

>  <EXACT MASS>  (6094) 
164.083729624

>  <MW>  (6094) 
164

>  <ID>  (6094) 
JP002139

>  <CONTRIBUTOR>  (6094) 
University of Tokyo Team, {Faculty of Engineering, University of Tokyo

>  <COMMENT>  (6094) 
SMILES=CCOC(=O)Cc(c1)cccc1
InChI=InChI=1S/C10H12O2/c1-2-12-10(11)8-9-6-4-3-5-7-9/h3-7H,2,8H2,1H3
computed SMILES=O=C(OCC)CC=1C=CC=CC1
accession=JP002139
date=2016.01.19 (Created 2008.10.21, modified 2011.05.06)
author=TAJIMA S, GUNMA COLLEGE OF TECHNOLOGY
license=CC BY-NC-SA
exact mass=164.08373
ionization energy=70 eV
ion type=[M]+*
computed spectral entropy=2.193592514992135
computed normalized entropy=0.6732742536610717
SPLASH=splash10-0006-9100000000-582a1e3bd3dd7bf289d2
submitter=submitter = University of Tokyo Team (Faculty of Engineering, University of Tokyo)
MoNA Rating=3.75

>  <NUM PEAKS>  (6094) 
26

>  <MASS SPECTRAL PEAKS>  (6094) 
15 1.2
27 2.58
28 2.45
29 18.32
39 4.69
41 1.49
44 7.44
45.5 1.32
50 1.32
51 3.38
59 1.26
63 2.75
65 10.13
77 3.55
78 1.03
89 2.86
90 2.18
91 99.99
92 10.53
105 6.41
106 2.12
118 1.09
119 2.29
149 5.67
164 14.77
165 1.72

$$$$

     RDKit          2D

  9  8  0  0  0  0  0  0  0  0999 V2000
   -7.4695    3.9375    0.0000 C   0  0  0  0  0  0  0  0  0  0  0  0
    1.6238    3.1875    0.0000 C   0  0  0  0  0  0  0  0  0  0  0  0
   -6.1704    3.1875    0.0000 C   0  0  0  0  0  0  0  0  0  0  0  0
   -4.8714    3.9375    0.0000 C   0  0  0  0  0  0  0  0  0  0  0  0
   -3.5724    3.1875    0.0000 C   0  0  0  0  0  0  0  0  0  0  0  0
   -2.2733    3.9375    0.0000 C   0  0  0  0  0  0  0  0  0  0  0  0
    0.3248    3.9375    0.0000 C   0  0  0  0  0  0  0  0  0  0  0  0
    0.3248    5.4375    0.0000 O   0  0  0  0  0  0  0  0  0  0  0  0
   -0.9743    3.1875    0.0000 O   0  0  0  0  0  0  0  0  0  0  0  0
  3  1  1  0
  4  3  1  0
  5  4  1  0
  6  5  1  0
  7  2  1  0
  8  7  2  0
  9  6  1  0
  9  7  1  0
M  END
>  <NAME>  (6095) 
ACETIC ACID PENTYL ESTER

>  <SYNONYMS>  (6095) 
PENTYL ACETATE

>  <SPECTRUM TYPE>  (6095) 
MS1

>  <INSTRUMENT TYPE>  (6095) 
EI-B

>  <INSTRUMENT>  (6095) 
HITACHI RMU-7M

>  <ION MODE>  (6095) 
P

>  <INCHIKEY>  (6095) 
PGMYKACGEOXYJE-UHFFFAOYSA-N

>  <FORMULA>  (6095) 
C7H14O2

>  <EXACT MASS>  (6095) 
130.099379688

>  <MW>  (6095) 
130

>  <ID>  (6095) 
JP002138

>  <CONTRIBUTOR>  (6095) 
University of Tokyo Team, {Faculty of Engineering, University of Tokyo

>  <COMMENT>  (6095) 
SMILES=CCCCCOC(C)=O
InChI=InChI=1S/C7H14O2/c1-3-4-5-6-9-7(2)8/h3-6H2,1-2H3
computed SMILES=O=C(OCCCCC)C
accession=JP002138
date=2016.01.19 (Created 2008.10.21, modified 2011.05.06)
author=TAJIMA S, GUNMA COLLEGE OF TECHNOLOGY
license=CC BY-NC-SA
exact mass=130.09938
ionization energy=70 eV
ion type=[M]+*
computed spectral entropy=2.5882864615166943
computed normalized entropy=0.8144249907917132
SPLASH=splash10-0006-9000000000-9c8240a3cfc31061e3ff
submitter=submitter = University of Tokyo Team (Faculty of Engineering, University of Tokyo)
MoNA Rating=3.75

>  <NUM PEAKS>  (6095) 
24

>  <MASS SPECTRAL PEAKS>  (6095) 
15 2.01
27 17.18
28 7.89
29 47.99
30 1.63
31 39.4
39 10.68
40 2.86
41 55.73
42 99.99
43 36.22
44 17.03
45 5.26
53 1.93
54 1.93
55 69.5
56 14.4
57 22.06
58 6.35
61 2.71
69 5.88
70 38.85
71 4.49
73 1.63

$$$$

     RDKit          2D

  6  5  0  0  0  0  0  0  0  0999 V2000
   -4.5466    3.3750    0.0000 C   0  0  0  0  0  0  0  0  0  0  0  0
    1.9486    2.6250    0.0000 C   0  0  0  0  0  0  0  0  0  0  0  0
   -1.9486    3.3750    0.0000 C   0  0  0  0  0  0  0  0  0  0  0  0
   -0.6495    2.6250    0.0000 C   0  0  0  0  0  0  0  0  0  0  0  0
   -3.2476    2.6250    0.0000 O   0  0  0  0  0  0  0  0  0  0  0  0
    0.6495    3.3750    0.0000 O   0  0  0  0  0  0  0  0  0  0  0  0
  4  3  1  0
  5  1  1  0
  5  3  1  0
  6  2  1  0
  6  4  1  0
M  END
>  <NAME>  (6096) 
1,2-DIMETHOXYETHANE

>  <SYNONYMS>  (6096) 


>  <SPECTRUM TYPE>  (6096) 
MS1

>  <INSTRUMENT TYPE>  (6096) 
EI-B

>  <INSTRUMENT>  (6096) 
HITACHI RMU-7M

>  <ION MODE>  (6096) 
P

>  <INCHIKEY>  (6096) 
XTHFKEDIFFGKHM-UHFFFAOYSA-N

>  <FORMULA>  (6096) 
C4H10O2

>  <EXACT MASS>  (6096) 
90.06807956

>  <MW>  (6096) 
90

>  <ID>  (6096) 
JP002137

>  <CONTRIBUTOR>  (6096) 
University of Tokyo Team, {Faculty of Engineering, University of Tokyo

>  <COMMENT>  (6096) 
SMILES=COCCOC
InChI=InChI=1S/C4H10O2/c1-5-3-4-6-2/h3-4H2,1-2H3
computed SMILES=O(C)CCOC
accession=JP002137
date=2016.01.19 (Created 2008.10.21, modified 2011.05.06)
author=TAJIMA S, GUNMA COLLEGE OF TECHNOLOGY
license=CC BY-NC-SA
exact mass=90.06808
ionization energy=70 eV
ion type=[M]+*
computed spectral entropy=1.5278302352301663
computed normalized entropy=0.595657076341741
SPLASH=splash10-0002-9000000000-256f9da6e8dd5f90a080
submitter=submitter = University of Tokyo Team (Faculty of Engineering, University of Tokyo)
MoNA Rating=3.75

>  <NUM PEAKS>  (6096) 
13

>  <MASS SPECTRAL PEAKS>  (6096) 
15 7.89
27 1.38
28 4.5
29 10.15
31 4.07
43 2.57
44 1.13
45 99.99
46 2.13
58 5.39
59 2.51
60 14.97
90 6.14

$$$$

     RDKit          2D

  7  6  0  0  0  0  0  0  0  0999 V2000
    1.9486    2.6250    0.0000 C   0  0  0  0  0  0  0  0  0  0  0  0
   -4.5466    3.3750    0.0000 C   0  0  0  0  0  0  0  0  0  0  0  0
    0.6495    3.3750    0.0000 C   0  0  0  0  0  0  0  0  0  0  0  0
   -3.2476    2.6250    0.0000 C   0  0  0  0  0  0  0  0  0  0  0  0
   -0.6495    2.6250    0.0000 C   0  0  0  0  0  0  0  0  0  0  0  0
   -0.6495    1.1250    0.0000 O   0  0  0  0  0  0  0  0  0  0  0  0
   -1.9486    3.3750    0.0000 O   0  0  0  0  0  0  0  0  0  0  0  0
  3  1  2  0
  4  2  1  0
  5  3  1  0
  6  5  2  0
  7  4  1  0
  7  5  1  0
M  END
>  <NAME>  (6097) 
ETHYL ACRYLATE

>  <SYNONYMS>  (6097) 
PROPENOIC ACID ETHYL ESTER

>  <SPECTRUM TYPE>  (6097) 
MS1

>  <INSTRUMENT TYPE>  (6097) 
EI-B

>  <INSTRUMENT>  (6097) 
HITACHI RMU-7M

>  <ION MODE>  (6097) 
P

>  <INCHIKEY>  (6097) 
JIGUQPWFLRLWPJ-UHFFFAOYSA-N

>  <FORMULA>  (6097) 
C5H8O2

>  <EXACT MASS>  (6097) 
100.052429496

>  <MW>  (6097) 
100

>  <ID>  (6097) 
JP002136

>  <CONTRIBUTOR>  (6097) 
University of Tokyo Team, {Faculty of Engineering, University of Tokyo

>  <COMMENT>  (6097) 
SMILES=CCOC(=O)C=C
InChI=InChI=1S/C5H8O2/c1-3-5(6)7-4-2/h3H,1,4H2,2H3
computed SMILES=O=C(OCC)C=C
accession=JP002136
date=2016.01.19 (Created 2008.10.21, modified 2011.05.06)
author=TAJIMA S, GUNMA COLLEGE OF TECHNOLOGY
license=CC BY-NC-SA
exact mass=100.05243
ionization energy=70 eV
ion type=[M]+*
computed spectral entropy=2.192124383625105
computed normalized entropy=0.7200224102353115
SPLASH=splash10-0a4i-9000000000-8762b44567cd7afeb692
submitter=submitter = University of Tokyo Team (Faculty of Engineering, University of Tokyo)
MoNA Rating=3.75

>  <NUM PEAKS>  (6097) 
21

>  <MASS SPECTRAL PEAKS>  (6097) 
15 1.32
26 4.61
27 26.91
28 7.63
29 18.42
31 3.16
41 1.97
43 5.79
44 3.29
45 11.84
54 4.08
55 99.99
56 12.04
57 3.82
58 4.93
72 1.25
73 8.22
82 3.22
85 3.82
99 5.66
100 0.92

$$$$

     RDKit          2D

  5  4  0  0  0  0  0  0  0  0999 V2000
   -0.0000   -0.0000    0.0000 C   0  0  0  0  0  0  0  0  0  0  0  0
   -1.2990    3.7500    0.0000 C   0  0  0  0  0  0  0  0  0  0  0  0
    0.0000    1.5000    0.0000 C   0  0  0  0  0  0  0  0  0  0  0  0
   -1.2990    2.2500    0.0000 C   0  0  0  0  0  0  0  0  0  0  0  0
   -2.5981    1.5000    0.0000 O   0  0  0  0  0  0  0  0  0  0  0  0
  3  1  2  0
  4  2  1  0
  4  3  1  0
  5  4  2  0
M  END
>  <NAME>  (6098) 
METHYL VINYL KETONE

>  <SYNONYMS>  (6098) 


>  <SPECTRUM TYPE>  (6098) 
MS1

>  <INSTRUMENT TYPE>  (6098) 
EI-B

>  <INSTRUMENT>  (6098) 
HITACHI RMU-7M

>  <ION MODE>  (6098) 
P

>  <INCHIKEY>  (6098) 
FUSUHKVFWTUUBE-UHFFFAOYSA-N

>  <FORMULA>  (6098) 
C4H6O

>  <EXACT MASS>  (6098) 
70.041864812

>  <MW>  (6098) 
70

>  <ID>  (6098) 
JP002135

>  <CONTRIBUTOR>  (6098) 
University of Tokyo Team, {Faculty of Engineering, University of Tokyo

>  <COMMENT>  (6098) 
computed SMILES=O=C(C=C)C
SMILES=C=CC(C)=O
InChI=InChI=1S/C4H6O/c1-3-4(2)5/h3H,1H2,2H3
accession=JP002135
date=2016.01.19 (Created 2008.10.21, modified 2011.05.06)
author=TAJIMA S, GUNMA COLLEGE OF TECHNOLOGY
license=CC BY-NC-SA
exact mass=70.04186
ionization energy=70 eV
ion type=[M]+*
computed spectral entropy=2.494056336383093
computed normalized entropy=0.7748221652772872
SPLASH=splash10-0006-9000000000-ed02292aef1db44add36
submitter=submitter = University of Tokyo Team (Faculty of Engineering, University of Tokyo)
MoNA Rating=3.75

>  <NUM PEAKS>  (6098) 
25

>  <MASS SPECTRAL PEAKS>  (6098) 
15 8.13
27 13.74
28 17.41
29 5.04
39 11.3
40 2.76
41 43.41
42 5.85
43 99.99
44 29.19
45 2.44
50 1.63
51 3.17
52 1.63
53 8.29
54 2.11
55 24.39
56 1.63
57 2.44
65 3.66
67 12.44
68 2.44
69 12.76
70 5.53
71 2.36

$$$$

     RDKit          2D

 14 14  0  0  0  0  0  0  0  0999 V2000
   -4.5464    1.4446    0.0000 C   0  0  0  0  0  0  0  0  0  0  0  0
   -5.8454    3.6946    0.0000 C   0  0  0  0  0  0  0  0  0  0  0  0
   -0.6493    5.1946    0.0000 C   0  0  0  0  0  0  0  0  0  0  0  0
    3.2478    1.4446    0.0000 C   0  0  0  0  0  0  0  0  0  0  0  0
    3.2483    2.9454    0.0000 C   0  0  0  0  0  0  0  0  0  0  0  0
    1.9483    0.6938    0.0000 C   0  0  0  0  0  0  0  0  0  0  0  0
    1.9493    3.6954    0.0000 C   0  0  0  0  0  0  0  0  0  0  0  0
    0.6493    1.4438    0.0000 C   0  0  0  0  0  0  0  0  0  0  0  0
   -4.5464    2.9446    0.0000 C   0  0  0  0  0  0  0  0  0  0  0  0
   -0.6493    3.6946    0.0000 C   0  0  0  0  0  0  0  0  0  0  0  0
    0.6498    2.9446    0.0000 C   0  0  0  0  0  0  0  0  0  0  0  0
   -3.2474    3.6946    0.0000 C   0  0  0  0  0  0  0  0  0  0  0  0
   -3.2474    5.1946    0.0000 O   0  0  0  0  0  0  0  0  0  0  0  0
   -1.9483    2.9446    0.0000 O   0  0  0  0  0  0  0  0  0  0  0  0
  5  4  2  0
  6  4  1  0
  7  5  1  0
  8  6  2  0
  9  1  2  0
  9  2  1  0
 10  3  1  0
 11  7  2  0
 11  8  1  0
 11 10  1  0
 12  9  1  0
 13 12  2  0
 14 10  1  0
 14 12  1  0
M  END
>  <NAME>  (6099) 
ALPHA-METHYLBENZYL METHACRYLATE

>  <SYNONYMS>  (6099) 
METHACRYLIC ACID ALPHA-METHYLBENZYL ESTER

>  <SPECTRUM TYPE>  (6099) 
MS1

>  <INSTRUMENT TYPE>  (6099) 
EI-B

>  <INSTRUMENT>  (6099) 
HITACHI RMU-7M

>  <ION MODE>  (6099) 
P

>  <INCHIKEY>  (6099) 
BQMWZHUIGYNOAL-UHFFFAOYSA-N

>  <FORMULA>  (6099) 
C12H14O2

>  <EXACT MASS>  (6099) 
190.099379688

>  <MW>  (6099) 
190

>  <ID>  (6099) 
JP002134

>  <CONTRIBUTOR>  (6099) 
University of Tokyo Team, {Faculty of Engineering, University of Tokyo

>  <COMMENT>  (6099) 
SMILES=CC(=C)C(=O)OC(C)c(c1)cccc1
InChI=InChI=1S/C12H14O2/c1-9(2)12(13)14-10(3)11-7-5-4-6-8-11/h4-8,10H,1H2,2-3H3
computed SMILES=O=C(OC(C=1C=CC=CC1)C)C(=C)C
accession=JP002134
date=2016.01.19 (Created 2008.10.21, modified 2011.05.06)
author=TAJIMA S, GUNMA COLLEGE OF TECHNOLOGY
license=CC BY-NC-SA
exact mass=190.09938
ionization energy=70 eV
ion type=[M]+*
computed spectral entropy=2.4988524327407777
computed normalized entropy=0.7969564797938197
SPLASH=splash10-0pvm-6900000000-ddd61fe8e43d35fe4b3d
submitter=submitter = University of Tokyo Team (Faculty of Engineering, University of Tokyo)
MoNA Rating=3.75

>  <NUM PEAKS>  (6099) 
23

>  <MASS SPECTRAL PEAKS>  (6099) 
27 4.11
28 4.39
39 10.05
41 36.18
43 14.09
50 1.52
51 8.61
52 1.52
69 71.21
70 12.11
77 20.94
78 13.1
79 12.87
103 14.39
104 77.91
105 99.99
106 7.77
121 15.23
145 60.17
146 6.7
172 1.68
175 1
190 1.22

$$$$

     RDKit          2D

 13 12  0  0  0  0  0  0  0  0999 V2000
    0.2010    0.7500    0.0000 C   0  0  0  0  0  0  0  0  0  0  0  0
    0.9510   -0.5490    0.0000 H   0  0  0  0  0  0  0  0  0  0  0  0
   -0.5490    2.0490    0.0000 H   0  0  0  0  0  0  0  0  0  0  0  0
   -1.0981   -0.0000    0.0000 H   0  0  0  0  0  0  0  0  0  0  0  0
    2.7990    0.7500    0.0000 C   0  0  0  0  0  0  0  0  0  0  0  0
    2.0490   -0.5490    0.0000 H   0  0  0  0  0  0  0  0  0  0  0  0
    4.0981   -0.0000    0.0000 H   0  0  0  0  0  0  0  0  0  0  0  0
    3.5490    2.0490    0.0000 H   0  0  0  0  0  0  0  0  0  0  0  0
    2.7990    5.2500    0.0000 C   0  0  0  0  0  0  0  0  0  0  0  0
    1.5000    1.5000    0.0000 C   0  0  0  0  0  0  0  0  0  0  0  0
    2.7990    3.7500    0.0000 C   0  0  0  0  0  0  0  0  0  0  0  0
    4.0981    3.0000    0.0000 O   0  0  0  0  0  0  0  0  0  0  0  0
    1.5000    3.0000    0.0000 O   0  0  0  0  0  0  0  0  0  0  0  0
  1  2  1  0
  1  3  1  0
  1  4  1  0
  5  6  1  0
  5  7  1  0
  5  8  1  0
 10  1  1  0
 10  5  1  0
 11  9  1  0
 12 11  2  0
 13 10  1  0
 13 11  1  0
M  ISO  6   2   2   3   2   4   2   6   2   7   2   8   2
M  END
>  <NAME>  (6100) 
ISOPROPYL ACETATE (1,1,1,3,3,3-D6)

>  <SYNONYMS>  (6100) 
ACETIC ACID ISOPROPYL ESTER (1,1,1,3,3,3-D6)

>  <SPECTRUM TYPE>  (6100) 
MS1

>  <INSTRUMENT TYPE>  (6100) 
EI-B

>  <INSTRUMENT>  (6100) 
HITACHI RMU-7M

>  <ION MODE>  (6100) 
P

>  <INCHIKEY>  (6100) 
JMMWKPVZQRWMSS-WFGJKAKNSA-N

>  <FORMULA>  (6100) 
C5H10O2

>  <EXACT MASS>  (6100) 
108.10574003599999

>  <MW>  (6100) 
108

>  <ID>  (6100) 
JP002133

>  <CONTRIBUTOR>  (6100) 
University of Tokyo Team, {Faculty of Engineering, University of Tokyo

>  <COMMENT>  (6100) 
SMILES=[2H]C([2H])([2H])C(C([2H])([2H])[2H])OC(C)=O
InChI=InChI=1S/C5H10O2/c1-4(2)7-5(3)6/h4H,1-3H3/i1D3,2D3
computed SMILES=[H]C([H])([H])C(OC(=O)C)C([H])([H])[H]
accession=JP002133
date=2016.01.19 (Created 2008.10.21, modified 2011.05.06)
author=TAJIMA S, GUNMA COLLEGE OF TECHNOLOGY
license=CC BY-NC-SA
exact mass=102.06808
ionization energy=70 eV
ion type=[M]+*
computed spectral entropy=2.097437428395647
computed normalized entropy=0.7256635492184313
SPLASH=splash10-0006-9000000000-cdf84450d15ce5ef480a
submitter=submitter = University of Tokyo Team (Faculty of Engineering, University of Tokyo)
MoNA Rating=3.75

>  <NUM PEAKS>  (6100) 
18

>  <MASS SPECTRAL PEAKS>  (6100) 
15 4.44
18 1
29 5.56
30 4.49
31 1.97
41 1.4
42 4.49
43 99.99
44 3.88
45 8.99
46 9.27
47 4.1
48 8.88
49 21.52
62 3.03
63 15.34
65 12.47
90 9.83

$$$$

     RDKit          2D

 12 11  0  0  0  0  0  0  0  0999 V2000
   -5.3469    4.4130    0.0000 C   0  0  0  0  0  0  0  0  0  0  0  0
   -4.0478    2.1630    0.0000 C   0  0  0  0  0  0  0  0  0  0  0  0
    1.1483    3.6630    0.0000 C   0  0  0  0  0  0  0  0  0  0  0  0
    0.3983    2.3639    0.0000 H   0  0  0  0  0  0  0  0  0  0  0  0
    2.4474    2.9130    0.0000 H   0  0  0  0  0  0  0  0  0  0  0  0
    1.8983    4.9620    0.0000 H   0  0  0  0  0  0  0  0  0  0  0  0
   -0.1507    5.9130    0.0000 C   0  0  0  0  0  0  0  0  0  0  0  0
   -4.0478    3.6630    0.0000 C   0  0  0  0  0  0  0  0  0  0  0  0
   -0.1507    4.4130    0.0000 C   0  0  0  0  0  0  0  0  0  0  0  0
   -2.7488    4.4130    0.0000 C   0  0  0  0  0  0  0  0  0  0  0  0
   -2.7488    5.9130    0.0000 O   0  0  0  0  0  0  0  0  0  0  0  0
   -1.4498    3.6630    0.0000 O   0  0  0  0  0  0  0  0  0  0  0  0
  3  4  1  0
  3  5  1  0
  3  6  1  0
  8  1  2  0
  8  2  1  0
  9  3  1  0
  9  7  1  0
 10  8  1  0
 11 10  2  0
 12  9  1  0
 12 10  1  0
M  ISO  3   4   2   5   2   6   2
M  END
>  <NAME>  (6101) 
ISOPROPYL METHACRYLATE (1,1,1-D3)

>  <SYNONYMS>  (6101) 
METHACRYLIC ACID ISOPROPYL ESTER (1,1,1-D3)

>  <SPECTRUM TYPE>  (6101) 
MS1

>  <INSTRUMENT TYPE>  (6101) 
EI-B

>  <INSTRUMENT>  (6101) 
HITACHI RMU-5B

>  <ION MODE>  (6101) 
P

>  <INCHIKEY>  (6101) 
BOQSSGDQNWEFSX-HPRDVNIFSA-N

>  <FORMULA>  (6101) 
C7H12O2

>  <EXACT MASS>  (6101) 
131.102559862

>  <MW>  (6101) 
131

>  <ID>  (6101) 
JP002132

>  <CONTRIBUTOR>  (6101) 
University of Tokyo Team, {Faculty of Engineering, University of Tokyo

>  <COMMENT>  (6101) 
SMILES=[2H]C([2H])([2H])C(C)OC(=O)C(C)=C
InChI=InChI=1S/C7H12O2/c1-5(2)7(8)9-6(3)4/h6H,1H2,2-4H3/i3D3
computed SMILES=[H]C([H])([H])C(OC(=O)C(=C)C)C
accession=JP002132
date=2016.01.19 (Created 2008.10.21, modified 2011.05.06)
author=TAJIMA S, GUNMA COLLEGE OF TECHNOLOGY
license=CC BY-NC-SA
exact mass=128.08373
ionization energy=70 eV
ion type=[M]+*
computed spectral entropy=2.7008386970759446
computed normalized entropy=0.7724389693420763
SPLASH=splash10-00kp-9000000000-758b3869a90cad776a77
submitter=submitter = University of Tokyo Team (Faculty of Engineering, University of Tokyo)
MoNA Rating=3.75

>  <NUM PEAKS>  (6101) 
33

>  <MASS SPECTRAL PEAKS>  (6101) 
26 2.98
27 8.95
28 5.96
29 10.93
37 3.88
38 7.75
39 49.9
40 15.71
41 82.7
42 12.72
43 20.78
44 14.12
45 10.93
46 90.46
47 2.78
48 2.58
53 1.99
55 1.89
62 19.88
67 3.88
68 1.99
69 99.99
70 9.64
73 9.34
85 1.99
86 8.35
87 3.38
88 30.02
89 1.79
95 1.79
113 1.09
116 1.19
131 2.98

$$$$

     RDKit          2D

  9  8  0  0  0  0  0  0  0  0999 V2000
   -7.4695    3.9375    0.0000 C   0  0  0  0  0  0  0  0  0  0  0  0
    1.6238    3.1875    0.0000 C   0  0  0  0  0  0  0  0  0  0  0  0
   -6.1704    3.1875    0.0000 C   0  0  0  0  0  0  0  0  0  0  0  0
   -4.8714    3.9375    0.0000 C   0  0  0  0  0  0  0  0  0  0  0  0
   -3.5724    3.1875    0.0000 C   0  0  0  0  0  0  0  0  0  0  0  0
   -2.2733    3.9375    0.0000 C   0  0  0  0  0  0  0  0  0  0  0  0
   -0.9743    3.1875    0.0000 C   0  0  0  0  0  0  0  0  0  0  0  0
    0.3248    3.9375    0.0000 C   0  0  0  0  0  0  0  0  0  0  0  0
    0.3248    5.4375    0.0000 O   0  0  0  0  0  0  0  0  0  0  0  0
  3  1  1  0
  4  3  1  0
  5  4  1  0
  6  5  1  0
  7  6  1  0
  8  2  1  0
  8  7  1  0
  9  8  2  0
M  END
>  <NAME>  (6102) 
METHYL HEXYL KETONE

>  <SYNONYMS>  (6102) 
2-OCTANONE

>  <SPECTRUM TYPE>  (6102) 
MS1

>  <INSTRUMENT TYPE>  (6102) 
EI-B

>  <INSTRUMENT>  (6102) 
HITACHI RMU-7M

>  <ION MODE>  (6102) 
P

>  <INCHIKEY>  (6102) 
ZPVFWPFBNIEHGJ-UHFFFAOYSA-N

>  <FORMULA>  (6102) 
C8H16O

>  <EXACT MASS>  (6102) 
128.120115132

>  <MW>  (6102) 
128

>  <ID>  (6102) 
JP002131

>  <CONTRIBUTOR>  (6102) 
University of Tokyo Team, {Faculty of Engineering, University of Tokyo

>  <COMMENT>  (6102) 
SMILES=CCCCCCC(C)=O
InChI=InChI=1S/C8H16O/c1-3-4-5-6-7-8(2)9/h3-7H2,1-2H3
computed SMILES=O=C(C)CCCCCC
accession=JP002131
date=2016.01.19 (Created 2008.10.21, modified 2011.05.06)
author=TAJIMA S, GUNMA COLLEGE OF TECHNOLOGY
license=CC BY-NC-SA
exact mass=128.12012
ionization energy=70 eV
ion type=[M]+*
computed spectral entropy=2.177456920477484
computed normalized entropy=0.6683217931288711
SPLASH=splash10-052f-9000000000-0c79f07e8e0b16f54caa
submitter=submitter = University of Tokyo Team (Faculty of Engineering, University of Tokyo)
MoNA Rating=3.75

>  <NUM PEAKS>  (6102) 
26

>  <MASS SPECTRAL PEAKS>  (6102) 
15 2.15
27 5.22
28 2.61
29 5.92
39 3.5
41 10.81
42 3.66
43 99.99
44 4.68
45 2.64
55 4.95
56 1.78
57 5.11
58 83.16
59 15.38
68 1.72
69 1.61
70 2.69
71 15.12
72 3.12
85 6.99
86 1.72
95 1
113 2.69
128 3.77
129 1.08

$$$$

     RDKit          2D

  6  5  0  0  0  0  0  0  0  0999 V2000
   -0.0000   -0.0000    0.0000 C   0  0  0  0  0  0  0  0  0  0  0  0
    1.2990    2.2500    0.0000 C   0  0  0  0  0  0  0  0  0  0  0  0
   -1.2990    3.7500    0.0000 C   0  0  0  0  0  0  0  0  0  0  0  0
   -0.0000    1.5000    0.0000 C   0  0  0  0  0  0  0  0  0  0  0  0
   -1.2990    2.2500    0.0000 C   0  0  0  0  0  0  0  0  0  0  0  0
   -2.5981    1.5000    0.0000 O   0  0  0  0  0  0  0  0  0  0  0  0
  4  1  1  0
  4  2  1  0
  5  3  1  0
  5  4  1  0
  6  5  2  0
M  END
>  <NAME>  (6103) 
METHYL ISOPROPYL KETONE

>  <SYNONYMS>  (6103) 
3-METHYL-2-BUTANONE

>  <SPECTRUM TYPE>  (6103) 
MS1

>  <INSTRUMENT TYPE>  (6103) 
EI-B

>  <INSTRUMENT>  (6103) 
HITACHI RMU-7M

>  <ION MODE>  (6103) 
P

>  <INCHIKEY>  (6103) 
SYBYTAAJFKOIEJ-UHFFFAOYSA-N

>  <FORMULA>  (6103) 
C5H10O

>  <EXACT MASS>  (6103) 
86.07316494

>  <MW>  (6103) 
86

>  <ID>  (6103) 
JP002130

>  <CONTRIBUTOR>  (6103) 
University of Tokyo Team, {Faculty of Engineering, University of Tokyo

>  <COMMENT>  (6103) 
SMILES=CC(C)C(C)=O
InChI=InChI=1S/C5H10O/c1-4(2)5(3)6/h4H,1-3H3
computed SMILES=O=C(C)C(C)C
accession=JP002130
date=2016.01.19 (Created 2008.10.21, modified 2011.05.06)
author=TAJIMA S, GUNMA COLLEGE OF TECHNOLOGY
license=CC BY-NC-SA
exact mass=86.07316
ionization energy=70 eV
ion type=[M]+*
computed spectral entropy=1.5883864954524343
computed normalized entropy=0.6018764646101876
SPLASH=splash10-0006-9000000000-b377cc181fde8486f9e2
submitter=submitter = University of Tokyo Team (Faculty of Engineering, University of Tokyo)
MoNA Rating=3.75

>  <NUM PEAKS>  (6103) 
14

>  <MASS SPECTRAL PEAKS>  (6103) 
15 3.69
27 7.38
28 1.94
29 3.44
39 3.13
41 12.58
42 3.75
43 99.99
44 3.07
45 1.25
57 3.69
71 5.51
86 15.71
87 1.5

$$$$

     RDKit          2D

  7  6  0  0  0  0  0  0  0  0999 V2000
    1.6238    3.1875    0.0000 C   0  0  0  0  0  0  0  0  0  0  0  0
   -4.8714    3.9375    0.0000 C   0  0  0  0  0  0  0  0  0  0  0  0
    0.3248    3.9375    0.0000 C   0  0  0  0  0  0  0  0  0  0  0  0
   -0.9743    3.1875    0.0000 C   0  0  0  0  0  0  0  0  0  0  0  0
   -2.2733    3.9375    0.0000 C   0  0  0  0  0  0  0  0  0  0  0  0
   -3.5724    3.1875    0.0000 C   0  0  0  0  0  0  0  0  0  0  0  0
   -3.5724    1.6875    0.0000 O   0  0  0  0  0  0  0  0  0  0  0  0
  3  1  1  0
  4  3  1  0
  5  4  1  0
  6  2  1  0
  6  5  1  0
  7  6  1  0
M  END
>  <NAME>  (6104) 
2-HEXANOL

>  <SYNONYMS>  (6104) 


>  <SPECTRUM TYPE>  (6104) 
MS1

>  <INSTRUMENT TYPE>  (6104) 
EI-B

>  <INSTRUMENT>  (6104) 
HITACHI RMU-7M

>  <ION MODE>  (6104) 
P

>  <INCHIKEY>  (6104) 
QNVRIHYSUZMSGM-UHFFFAOYSA-N

>  <FORMULA>  (6104) 
C6H14O

>  <EXACT MASS>  (6104) 
102.104465068

>  <MW>  (6104) 
102

>  <ID>  (6104) 
JP002129

>  <CONTRIBUTOR>  (6104) 
University of Tokyo Team, {Faculty of Engineering, University of Tokyo

>  <COMMENT>  (6104) 
SMILES=CCCCC(C)O
InChI=InChI=1S/C6H14O/c1-3-4-5-6(2)7/h6-7H,3-5H2,1-2H3
computed SMILES=OC(C)CCCC
accession=JP002129
date=2016.01.19 (Created 2008.10.21, modified 2011.05.06)
author=TAJIMA S, GUNMA COLLEGE OF TECHNOLOGY
license=CC BY-NC-SA
exact mass=102.10447
ionization energy=70 eV
ion type=[M]+*
computed spectral entropy=2.668796982775148
computed normalized entropy=0.784663953101985
SPLASH=splash10-052g-9000000000-5ed68fbbaa3fc418b8c9
submitter=submitter = University of Tokyo Team (Faculty of Engineering, University of Tokyo)
MoNA Rating=3.75

>  <NUM PEAKS>  (6104) 
30

>  <MASS SPECTRAL PEAKS>  (6104) 
15 3.03
19 1.39
27 12.64
28 6.14
29 18.84
31 1.9
39 9.23
40 1.33
41 32.43
42 16.25
43 70.16
44 10.11
45 99.99
46 2.28
53 2.09
54 1.26
55 23.01
56 13.59
57 12.39
58 29.65
59 2.47
67 1.14
69 18.58
70 1.2
71 3.48
84 9.17
85 6.76
87 4.3
100 3.2
101 1.14

$$$$

     RDKit          2D

  9  9  0  0  0  0  0  0  0  0999 V2000
    2.2717    0.9387    0.0000 C   0  0  0  0  0  0  0  0  0  0  0  0
   -1.5992    3.1622    0.0000 C   0  0  0  0  0  0  0  0  0  0  0  0
   -0.2942   -2.0513    0.0000 C   0  0  0  0  0  0  0  0  0  0  0  0
   -1.5771   -1.3236    0.0000 C   0  0  0  0  0  0  0  0  0  0  0  0
    0.9829   -1.2989    0.0000 C   0  0  0  0  0  0  0  0  0  0  0  0
   -1.6133    0.1760    0.0000 C   0  0  0  0  0  0  0  0  0  0  0  0
    0.9770    0.1813    0.0000 C   0  0  0  0  0  0  0  0  0  0  0  0
   -0.3059    0.9090    0.0000 C   0  0  0  0  0  0  0  0  0  0  0  0
   -0.3021    2.4090    0.0000 N   0  0  0  0  0  0  0  0  0  0  0  0
  4  3  2  0
  5  3  1  0
  6  4  1  0
  7  1  1  0
  7  5  2  0
  8  6  2  0
  8  7  1  0
  9  2  1  0
  9  8  1  0
M  END
>  <NAME>  (6105) 
N-METHYL-ORTHO-TOLUIDINE

>  <SYNONYMS>  (6105) 


>  <SPECTRUM TYPE>  (6105) 
MS1

>  <INSTRUMENT TYPE>  (6105) 
EI-B

>  <INSTRUMENT>  (6105) 
HITACHI RMU-7M

>  <ION MODE>  (6105) 
P

>  <INCHIKEY>  (6105) 
GUAWMXYQZKVRCW-UHFFFAOYSA-N

>  <FORMULA>  (6105) 
C8H11N

>  <EXACT MASS>  (6105) 
121.08914935199999

>  <MW>  (6105) 
121

>  <ID>  (6105) 
JP002128

>  <CONTRIBUTOR>  (6105) 
University of Tokyo Team, {Faculty of Engineering, University of Tokyo

>  <COMMENT>  (6105) 
SMILES=CNc(c1)c(C)ccc1
InChI=InChI=1S/C8H11N/c1-7-5-3-4-6-8(7)9-2/h3-6,9H,1-2H3
computed SMILES=C=1C=CC(=C(C1)NC)C
accession=JP002128
date=2016.01.19 (Created 2008.10.21, modified 2011.05.06)
author=TAJIMA S, GUNMA COLLEGE OF TECHNOLOGY
license=CC BY-NC-SA
exact mass=121.08915
ionization energy=70 eV
ion type=[M]+*
computed spectral entropy=2.7382905882865285
computed normalized entropy=0.7765203158246523
SPLASH=splash10-00di-5900000000-90109ecf624a152fd7c6
submitter=submitter = University of Tokyo Team (Faculty of Engineering, University of Tokyo)
MoNA Rating=3.75

>  <NUM PEAKS>  (6105) 
34

>  <MASS SPECTRAL PEAKS>  (6105) 
27 2.53
28 4.22
30 5.35
39 7.69
41 2.35
42 2.35
44 1.41
50 2.44
51 6.85
52 4.22
53 3.56
58.5 7.13
59.5 7.6
60.5 4.97
63 4.13
65 16.14
77 15.95
78 5.16
79 11.07
80 1.88
89 3.75
90 1.88
91 36.59
92 7.13
93 6.29
104 8.91
105 2.06
106 71.2
107 8.63
117 2.72
118 12.95
120 69.14
121 99.99
122 8.35

$$$$

     RDKit          2D

 10 10  0  0  0  0  0  0  0  0999 V2000
    5.1970   -1.5006    0.0000 C   0  0  0  0  0  0  0  0  0  0  0  0
   -2.5989    1.5002    0.0000 C   0  0  0  0  0  0  0  0  0  0  0  0
    3.8981   -0.7504    0.0000 C   0  0  0  0  0  0  0  0  0  0  0  0
   -1.3000   -0.7500    0.0000 C   0  0  0  0  0  0  0  0  0  0  0  0
    0.0000    1.5000    0.0000 C   0  0  0  0  0  0  0  0  0  0  0  0
    0.0000   -1.5000    0.0000 C   0  0  0  0  0  0  0  0  0  0  0  0
    1.3000    0.7500    0.0000 C   0  0  0  0  0  0  0  0  0  0  0  0
   -1.3000    0.7500    0.0000 C   0  0  0  0  0  0  0  0  0  0  0  0
    1.3000   -0.7500    0.0000 C   0  0  0  0  0  0  0  0  0  0  0  0
    2.5989   -1.5002    0.0000 N   0  0  0  0  0  0  0  0  0  0  0  0
  3  1  1  0
  6  4  2  0
  7  5  1  0
  8  2  1  0
  8  4  1  0
  8  5  2  0
  9  6  1  0
  9  7  2  0
 10  3  1  0
 10  9  1  0
M  END
>  <NAME>  (6106) 
N-ETHYL-PARA-TOLUIDINE

>  <SYNONYMS>  (6106) 


>  <SPECTRUM TYPE>  (6106) 
MS1

>  <INSTRUMENT TYPE>  (6106) 
EI-B

>  <INSTRUMENT>  (6106) 
HITACHI RMU-7M

>  <ION MODE>  (6106) 
P

>  <INCHIKEY>  (6106) 
AASABFUMCBTXRL-UHFFFAOYSA-N

>  <FORMULA>  (6106) 
C9H13N

>  <EXACT MASS>  (6106) 
135.104799416

>  <MW>  (6106) 
135

>  <ID>  (6106) 
JP002127

>  <CONTRIBUTOR>  (6106) 
University of Tokyo Team, {Faculty of Engineering, University of Tokyo

>  <COMMENT>  (6106) 
SMILES=CCNc(c1)ccc(C)c1
InChI=InChI=1S/C9H13N/c1-3-10-9-6-4-8(2)5-7-9/h4-7,10H,3H2,1-2H3
computed SMILES=C=1C=C(C=CC1NCC)C
accession=JP002127
date=2016.01.19 (Created 2008.10.21, modified 2011.05.06)
author=TAJIMA S, GUNMA COLLEGE OF TECHNOLOGY
license=CC BY-NC-SA
exact mass=135.1048
ionization energy=70 eV
ion type=[M]+*
computed spectral entropy=2.5770321314738704
computed normalized entropy=0.7307908858111937
SPLASH=splash10-00di-4900000000-6d53ce0794464a508c44
submitter=submitter = University of Tokyo Team (Faculty of Engineering, University of Tokyo)
MoNA Rating=3.75

>  <NUM PEAKS>  (6106) 
34

>  <MASS SPECTRAL PEAKS>  (6106) 
27 3.58
28 4.63
29 1.68
39 4.79
41 1.91
50 1.44
51 4.04
52 2.43
53 1.73
58.5 2.2
59.5 4.1
60 4.04
63 2.31
65 8.38
77 8.43
78 2.43
79 3.41
89 2.25
90 1.73
91 17.85
92 5.2
93 3.59
104 1.62
105 1.68
106 3.93
118 5.55
119 4.04
120 99.99
121 9.53
132 1.16
133 1.79
134 7.51
135 38.42
136 4.04

$$$$

     RDKit          2D

 10 10  0  0  0  0  0  0  0  0999 V2000
    5.1937   -0.0065    0.0000 C   0  0  0  0  0  0  0  0  0  0  0  0
   -2.6024   -0.0089    0.0000 C   0  0  0  0  0  0  0  0  0  0  0  0
    3.8946   -0.7563    0.0000 C   0  0  0  0  0  0  0  0  0  0  0  0
    0.0015   -2.9989    0.0000 C   0  0  0  0  0  0  0  0  0  0  0  0
   -1.2976   -2.2489    0.0000 C   0  0  0  0  0  0  0  0  0  0  0  0
    1.2960   -2.2567    0.0000 C   0  0  0  0  0  0  0  0  0  0  0  0
   -0.0026   -0.0059    0.0000 C   0  0  0  0  0  0  0  0  0  0  0  0
   -1.3021   -0.7567    0.0000 C   0  0  0  0  0  0  0  0  0  0  0  0
    1.2965   -0.7559    0.0000 C   0  0  0  0  0  0  0  0  0  0  0  0
    2.5956   -0.0061    0.0000 N   0  0  0  0  0  0  0  0  0  0  0  0
  3  1  1  0
  5  4  2  0
  6  4  1  0
  8  2  1  0
  8  5  1  0
  8  7  2  0
  9  6  2  0
  9  7  1  0
 10  3  1  0
 10  9  1  0
M  END
>  <NAME>  (6107) 
N-ETHYL-META-TOLUIDINE

>  <SYNONYMS>  (6107) 


>  <SPECTRUM TYPE>  (6107) 
MS1

>  <INSTRUMENT TYPE>  (6107) 
EI-B

>  <INSTRUMENT>  (6107) 
HITACHI RMU-7M

>  <ION MODE>  (6107) 
P

>  <INCHIKEY>  (6107) 
GUYMMHOQXYZMJQ-UHFFFAOYSA-N

>  <FORMULA>  (6107) 
C9H13N

>  <EXACT MASS>  (6107) 
135.104799416

>  <MW>  (6107) 
135

>  <ID>  (6107) 
JP002126

>  <CONTRIBUTOR>  (6107) 
University of Tokyo Team, {Faculty of Engineering, University of Tokyo

>  <COMMENT>  (6107) 
SMILES=CCNc(c1)cc(C)cc1
InChI=InChI=1S/C9H13N/c1-3-10-9-6-4-5-8(2)7-9/h4-7,10H,3H2,1-2H3
computed SMILES=C=1C=C(C=C(C1)C)NCC
accession=JP002126
date=2016.01.19 (Created 2008.10.21, modified 2011.05.06)
author=TAJIMA S, GUNMA COLLEGE OF TECHNOLOGY
license=CC BY-NC-SA
exact mass=135.1048
ionization energy=70 eV
ion type=[M]+*
computed spectral entropy=2.4409727333331444
computed normalized entropy=0.724905935378701
SPLASH=splash10-00di-5900000000-4cca99d986bc3cc4f079
submitter=submitter = University of Tokyo Team (Faculty of Engineering, University of Tokyo)
MoNA Rating=3.75

>  <NUM PEAKS>  (6107) 
29

>  <MASS SPECTRAL PEAKS>  (6107) 
27 3.24
28 7.54
39 5.27
41 1.96
42 1.35
44 1.43
51 3.16
52 1.2
58.5 2.18
59.5 3.09
60 2.26
63 2.26
65 10.99
77 7.45
78 1.5
79 2.48
89 2.26
91 24.76
92 5.57
93 5.87
106 1.88
118 7.22
119 3.76
120 99.99
121 9.78
133 2.93
134 5.27
135 36.12
136 3.61

$$$$

     RDKit          2D

  9  9  0  0  0  0  0  0  0  0999 V2000
   -3.8981    0.7504    0.0000 C   0  0  0  0  0  0  0  0  0  0  0  0
   -2.5989    1.5002    0.0000 C   0  0  0  0  0  0  0  0  0  0  0  0
   -1.3000   -0.7500    0.0000 C   0  0  0  0  0  0  0  0  0  0  0  0
    0.0000    1.5000    0.0000 C   0  0  0  0  0  0  0  0  0  0  0  0
    0.0000   -1.5000    0.0000 C   0  0  0  0  0  0  0  0  0  0  0  0
    1.3000    0.7500    0.0000 C   0  0  0  0  0  0  0  0  0  0  0  0
   -1.3000    0.7500    0.0000 C   0  0  0  0  0  0  0  0  0  0  0  0
    1.3000   -0.7500    0.0000 C   0  0  0  0  0  0  0  0  0  0  0  0
    2.5989   -1.5002    0.0000 N   0  0  0  0  0  0  0  0  0  0  0  0
  2  1  1  0
  5  3  2  0
  6  4  1  0
  7  2  1  0
  7  3  1  0
  7  4  2  0
  8  5  1  0
  8  6  2  0
  9  8  1  0
M  END
>  <NAME>  (6108) 
PARA-ETHYL ANILINE

>  <SYNONYMS>  (6108) 


>  <SPECTRUM TYPE>  (6108) 
MS1

>  <INSTRUMENT TYPE>  (6108) 
EI-B

>  <INSTRUMENT>  (6108) 
HITACHI RMU-7M

>  <ION MODE>  (6108) 
P

>  <INCHIKEY>  (6108) 
HRXZRAXKKNUKRF-UHFFFAOYSA-N

>  <FORMULA>  (6108) 
C8H11N

>  <EXACT MASS>  (6108) 
121.08914935199999

>  <MW>  (6108) 
121

>  <ID>  (6108) 
JP002125

>  <CONTRIBUTOR>  (6108) 
University of Tokyo Team, {Faculty of Engineering, University of Tokyo

>  <COMMENT>  (6108) 
SMILES=CCc(c1)ccc(N)c1
InChI=InChI=1S/C8H11N/c1-2-7-3-5-8(9)6-4-7/h3-6H,2,9H2,1H3
computed SMILES=NC1=CC=C(C=C1)CC
accession=JP002125
date=2016.01.19 (Created 2008.10.21, modified 2011.05.06)
author=TAJIMA S, GUNMA COLLEGE OF TECHNOLOGY
license=CC BY-NC-SA
exact mass=121.08915
ionization energy=70 eV
ion type=[M]+*
computed spectral entropy=2.1507184076723505
computed normalized entropy=0.660115003522394
SPLASH=splash10-0a4i-3900000000-00d2642a2c01197ba178
submitter=submitter = University of Tokyo Team (Faculty of Engineering, University of Tokyo)
MoNA Rating=3.75

>  <NUM PEAKS>  (6108) 
26

>  <MASS SPECTRAL PEAKS>  (6108) 
27 1.04
28 8.59
39 3.46
41 1.38
44 1.94
51 2.28
52 2.07
53 4.36
58.5 2.63
59.5 1.24
63 1.11
65 3.46
77 11.27
78 2.84
79 6.64
91 3.25
93 2.07
103 1.31
104 1.11
106 99.99
107 10.44
118 2.56
119 2.63
120 4.15
121 34.16
122 3.39

$$$$

     RDKit          2D

  9  9  0  0  0  0  0  0  0  0999 V2000
    3.5660    1.3113    0.0000 C   0  0  0  0  0  0  0  0  0  0  0  0
    2.2682    0.5591    0.0000 C   0  0  0  0  0  0  0  0  0  0  0  0
   -0.3357    3.5491    0.0000 C   0  0  0  0  0  0  0  0  0  0  0  0
    0.9634    2.7991    0.0000 C   0  0  0  0  0  0  0  0  0  0  0  0
   -1.6302    2.8069    0.0000 C   0  0  0  0  0  0  0  0  0  0  0  0
   -0.3316    0.5561    0.0000 C   0  0  0  0  0  0  0  0  0  0  0  0
    0.9679    1.3069    0.0000 C   0  0  0  0  0  0  0  0  0  0  0  0
   -1.6307    1.3061    0.0000 C   0  0  0  0  0  0  0  0  0  0  0  0
   -2.9298    0.5563    0.0000 N   0  0  0  0  0  0  0  0  0  0  0  0
  2  1  1  0
  4  3  2  0
  5  3  1  0
  7  2  1  0
  7  4  1  0
  7  6  2  0
  8  5  2  0
  8  6  1  0
  9  8  1  0
M  END
>  <NAME>  (6109) 
META-ETHYL ANILINE

>  <SYNONYMS>  (6109) 


>  <SPECTRUM TYPE>  (6109) 
MS1

>  <INSTRUMENT TYPE>  (6109) 
EI-B

>  <INSTRUMENT>  (6109) 
HITACHI RMU-7M

>  <ION MODE>  (6109) 
P

>  <INCHIKEY>  (6109) 
AMKPQMFZCBTTAT-UHFFFAOYSA-N

>  <FORMULA>  (6109) 
C8H11N

>  <EXACT MASS>  (6109) 
121.08914935199999

>  <MW>  (6109) 
121

>  <ID>  (6109) 
JP002124

>  <CONTRIBUTOR>  (6109) 
University of Tokyo Team, {Faculty of Engineering, University of Tokyo

>  <COMMENT>  (6109) 
SMILES=CCc(c1)cc(N)cc1
InChI=InChI=1S/C8H11N/c1-2-7-4-3-5-8(9)6-7/h3-6H,2,9H2,1H3
computed SMILES=NC1=CC=CC(=C1)CC
accession=JP002124
date=2016.01.19 (Created 2008.10.21, modified 2011.05.06)
author=TAJIMA S, GUNMA COLLEGE OF TECHNOLOGY
license=CC BY-NC-SA
exact mass=121.08915
ionization energy=70 eV
ion type=[M]+*
computed spectral entropy=2.5973113182577223
computed normalized entropy=0.7428301734226413
SPLASH=splash10-0ab9-4900000000-a4b5f37ca091a8329011
submitter=submitter = University of Tokyo Team (Faculty of Engineering, University of Tokyo)
MoNA Rating=3.75

>  <NUM PEAKS>  (6109) 
33

>  <MASS SPECTRAL PEAKS>  (6109) 
27 1.89
28 7.59
30 1.53
39 6.47
41 2.93
42 2.01
44 2.81
51 3.48
52 2.62
53 3.66
58.5 4.27
59.5 2.44
63 2.38
65 5.98
66 3.05
77 18.06
78 5.06
79 15.62
80 4.39
89 1.4
91 6.35
92 1.77
93 8.79
94 3.66
103 4.03
104 2.75
106 99.99
107 11.35
118 3.36
119 2.56
120 18.3
121 73.76
122 9.21

$$$$

     RDKit          2D

  9  9  0  0  0  0  0  0  0  0999 V2000
    3.2511   -1.1212    0.0000 C   0  0  0  0  0  0  0  0  0  0  0  0
   -3.2458   -0.3738    0.0000 C   0  0  0  0  0  0  0  0  0  0  0  0
    0.6473    1.8688    0.0000 C   0  0  0  0  0  0  0  0  0  0  0  0
    1.9463    1.1188    0.0000 C   0  0  0  0  0  0  0  0  0  0  0  0
   -0.6473    1.1266    0.0000 C   0  0  0  0  0  0  0  0  0  0  0  0
    0.6513   -1.1242    0.0000 C   0  0  0  0  0  0  0  0  0  0  0  0
    1.9508   -0.3734    0.0000 C   0  0  0  0  0  0  0  0  0  0  0  0
   -0.6477   -0.3742    0.0000 C   0  0  0  0  0  0  0  0  0  0  0  0
   -1.9469   -1.1240    0.0000 N   0  0  0  0  0  0  0  0  0  0  0  0
  4  3  2  0
  5  3  1  0
  7  1  1  0
  7  4  1  0
  7  6  2  0
  8  5  2  0
  8  6  1  0
  9  2  1  0
  9  8  1  0
M  END
>  <NAME>  (6110) 
N-METHYL-META-TOLUIDINE

>  <SYNONYMS>  (6110) 


>  <SPECTRUM TYPE>  (6110) 
MS1

>  <INSTRUMENT TYPE>  (6110) 
EI-B

>  <INSTRUMENT>  (6110) 
HITACHI RMU-7M

>  <ION MODE>  (6110) 
P

>  <INCHIKEY>  (6110) 
FBGJJTQNZVNEQU-UHFFFAOYSA-N

>  <FORMULA>  (6110) 
C8H11N

>  <EXACT MASS>  (6110) 
121.08914935199999

>  <MW>  (6110) 
121

>  <ID>  (6110) 
JP002123

>  <CONTRIBUTOR>  (6110) 
University of Tokyo Team, {Faculty of Engineering, University of Tokyo

>  <COMMENT>  (6110) 
SMILES=CNc(c1)cc(C)cc1
InChI=InChI=1S/C8H11N/c1-7-4-3-5-8(6-7)9-2/h3-6,9H,1-2H3
computed SMILES=C=1C=C(C=C(C1)C)NC
accession=JP002123
date=2016.01.19 (Created 2008.10.21, modified 2011.05.06)
author=TAJIMA S, GUNMA COLLEGE OF TECHNOLOGY
license=CC BY-NC-SA
exact mass=121.08915
ionization energy=70 eV
ion type=[M]+*
computed spectral entropy=2.6807603784384217
computed normalized entropy=0.7369613421445569
SPLASH=splash10-00di-6900000000-4ff02cb0f23a83d18912
submitter=submitter = University of Tokyo Team (Faculty of Engineering, University of Tokyo)
MoNA Rating=3.75

>  <NUM PEAKS>  (6110) 
38

>  <MASS SPECTRAL PEAKS>  (6110) 
27 2.89
28 4.69
30 2.49
38 2
39 8.78
40 1.5
41 3.24
42 1.9
44 1.6
50 2.89
51 6.28
52 3.54
53 2.49
58.5 3.59
59.5 6.98
60.5 3.59
62 1.75
63 4.89
64 1.9
65 12.52
66 1.5
77 11.47
78 3.99
79 5.39
80 1.5
89 3.39
90 2.44
91 31.12
92 7.98
93 4.79
104 2.44
105 1.75
106 6.43
118 7.53
119 9.78
120 99.99
121 84.24
122 7.73

$$$$

     RDKit          2D

 10 10  0  0  0  0  0  0  0  0999 V2000
    2.9231    0.5071    0.0000 C   0  0  0  0  0  0  0  0  0  0  0  0
    2.9236    2.0079    0.0000 C   0  0  0  0  0  0  0  0  0  0  0  0
    1.6236   -0.2437    0.0000 C   0  0  0  0  0  0  0  0  0  0  0  0
   -2.2731    2.0071    0.0000 C   0  0  0  0  0  0  0  0  0  0  0  0
    1.6245    2.7579    0.0000 C   0  0  0  0  0  0  0  0  0  0  0  0
    0.3245    0.5063    0.0000 C   0  0  0  0  0  0  0  0  0  0  0  0
   -0.9740    2.7571    0.0000 C   0  0  0  0  0  0  0  0  0  0  0  0
   -3.5721    2.7571    0.0000 C   0  0  0  0  0  0  0  0  0  0  0  0
    0.3250    2.0071    0.0000 C   0  0  0  0  0  0  0  0  0  0  0  0
   -4.8712    2.0071    0.0000 O   0  0  0  0  0  0  0  0  0  0  0  0
  2  1  2  0
  3  1  1  0
  5  2  1  0
  6  3  2  0
  4  7  2  0
  8  4  1  0
  9  5  2  0
  9  6  1  0
  9  7  1  0
 10  8  2  0
M  END
>  <NAME>  (6111) 
CINNAMALDEHYDE

>  <SYNONYMS>  (6111) 


>  <SPECTRUM TYPE>  (6111) 
MS1

>  <INSTRUMENT TYPE>  (6111) 
EI-B

>  <INSTRUMENT>  (6111) 
HITACHI RMU-7M

>  <ION MODE>  (6111) 
P

>  <INCHIKEY>  (6111) 
KJPRLNWUNMBNBZ-QPJJXVBHSA-N

>  <FORMULA>  (6111) 
C9H8O

>  <EXACT MASS>  (6111) 
132.057514876

>  <MW>  (6111) 
132

>  <ID>  (6111) 
JP002122

>  <CONTRIBUTOR>  (6111) 
University of Tokyo Team, {Faculty of Engineering, University of Tokyo

>  <COMMENT>  (6111) 
SMILES=O=CC=Cc(c1)cccc1
InChI=InChI=1S/C9H8O/c10-8-4-7-9-5-2-1-3-6-9/h1-8H/b7-4+
computed SMILES=O=CC=CC=1C=CC=CC1
accession=JP002122
author=TAJIMA S, GUNMA COLLEGE OF TECHNOLOGY
date=2016.01.19 (Created 2008.10.21, modified 2011.05.06)
license=CC BY-NC-SA
exact mass=132.05751
ionization energy=70 eV
ion type=[M]+*
computed spectral entropy=2.4754980813557155
computed normalized entropy=0.7597988741177667
SPLASH=splash10-0f89-5900000000-540c43f6893b35e8a105
submitter=submitter = University of Tokyo Team (Faculty of Engineering, University of Tokyo)
MoNA Rating=3.75

>  <NUM PEAKS>  (6111) 
26

>  <MASS SPECTRAL PEAKS>  (6111) 
27 3.55
28 3.68
29 2.26
31 6.45
39 3.87
44 3.22
45 3.61
50 7.74
51 26.43
52 5.8
55 1.29
62 1.35
63 3.87
74 3.09
75 2.97
76 3.87
77 34.75
78 21.28
91 1.68
102 6.32
103 46.42
104 15.34
105 2.58
131 99.99
132 50.68
133 4.45

$$$$

     RDKit          2D

 11 11  0  0  0  0  0  0  0  0999 V2000
   -4.8712    2.0071    0.0000 C   0  0  0  0  0  0  0  0  0  0  0  0
    2.9231    0.5071    0.0000 C   0  0  0  0  0  0  0  0  0  0  0  0
    2.9236    2.0079    0.0000 C   0  0  0  0  0  0  0  0  0  0  0  0
    1.6236   -0.2437    0.0000 C   0  0  0  0  0  0  0  0  0  0  0  0
    1.6245    2.7579    0.0000 C   0  0  0  0  0  0  0  0  0  0  0  0
    0.3245    0.5063    0.0000 C   0  0  0  0  0  0  0  0  0  0  0  0
   -0.9740    2.7571    0.0000 C   0  0  0  0  0  0  0  0  0  0  0  0
    0.3250    2.0071    0.0000 C   0  0  0  0  0  0  0  0  0  0  0  0
   -2.2731    2.0071    0.0000 C   0  0  0  0  0  0  0  0  0  0  0  0
   -2.2731    0.5071    0.0000 O   0  0  0  0  0  0  0  0  0  0  0  0
   -3.5721    2.7571    0.0000 O   0  0  0  0  0  0  0  0  0  0  0  0
  3  2  2  0
  4  2  1  0
  5  3  1  0
  6  4  2  0
  8  5  2  0
  8  6  1  0
  8  7  1  0
  9  7  1  0
 10  9  2  0
 11  1  1  0
 11  9  1  0
M  END
>  <NAME>  (6112) 
PHENYLACETIC ACID METHYL ESTER

>  <SYNONYMS>  (6112) 


>  <SPECTRUM TYPE>  (6112) 
MS1

>  <INSTRUMENT TYPE>  (6112) 
EI-B

>  <INSTRUMENT>  (6112) 
HITACHI RMU-7M

>  <ION MODE>  (6112) 
P

>  <INCHIKEY>  (6112) 
CRZQGDNQQAALAY-UHFFFAOYSA-N

>  <FORMULA>  (6112) 
C9H10O2

>  <EXACT MASS>  (6112) 
150.06807956

>  <MW>  (6112) 
150

>  <ID>  (6112) 
JP002121

>  <CONTRIBUTOR>  (6112) 
University of Tokyo Team, {Faculty of Engineering, University of Tokyo

>  <COMMENT>  (6112) 
SMILES=COC(=O)Cc(c1)cccc1
InChI=InChI=1S/C9H10O2/c1-11-9(10)7-8-5-3-2-4-6-8/h2-6H,7H2,1H3
computed SMILES=O=C(OC)CC=1C=CC=CC1
accession=JP002121
date=2016.01.19 (Created 2008.10.21, modified 2011.05.06)
author=TAJIMA S, GUNMA COLLEGE OF TECHNOLOGY
license=CC BY-NC-SA
exact mass=150.06808
ionization energy=70 eV
ion type=[M]+*
computed spectral entropy=1.8029832583155403
computed normalized entropy=0.6018505973421212
SPLASH=splash10-0006-9200000000-389b3d6431858f4110c9
submitter=submitter = University of Tokyo Team (Faculty of Engineering, University of Tokyo)
MoNA Rating=3.75

>  <NUM PEAKS>  (6112) 
20

>  <MASS SPECTRAL PEAKS>  (6112) 
15 2.53
28 1
31 1.05
39 5.83
41 1
50 1.05
51 2.39
59 5.73
63 3.34
65 12.05
77 1
89 3.82
90 2.63
91 99.99
92 7.64
105 1.48
118 2.15
119 1.58
150 30.05
151 2.87

$$$$

     RDKit          2D

 10 10  0  0  0  0  0  0  0  0999 V2000
    4.8270    1.2906    0.0000 C   0  0  0  0  0  0  0  0  0  0  0  0
   -1.6700   -0.9600    0.0000 C   0  0  0  0  0  0  0  0  0  0  0  0
   -1.6700    0.5400    0.0000 C   0  0  0  0  0  0  0  0  0  0  0  0
   -0.3700   -1.7100    0.0000 C   0  0  0  0  0  0  0  0  0  0  0  0
   -0.3700    1.2900    0.0000 C   0  0  0  0  0  0  0  0  0  0  0  0
    0.9300   -0.9600    0.0000 C   0  0  0  0  0  0  0  0  0  0  0  0
    3.5281    0.5404    0.0000 C   0  0  0  0  0  0  0  0  0  0  0  0
    0.9300    0.5400    0.0000 C   0  0  0  0  0  0  0  0  0  0  0  0
    3.5283   -0.9596    0.0000 O   0  0  0  0  0  0  0  0  0  0  0  0
    2.2289    1.2902    0.0000 O   0  0  0  0  0  0  0  0  0  0  0  0
  3  2  1  0
  4  2  1  0
  5  3  1  0
  6  4  1  0
  7  1  1  0
  8  5  1  0
  8  6  1  0
  9  7  2  0
 10  7  1  0
 10  8  1  0
M  END
>  <NAME>  (6113) 
CYCLOHEXYL ACETATE

>  <SYNONYMS>  (6113) 
ACETIC ACID CYCLOHEXYL ESTER

>  <SPECTRUM TYPE>  (6113) 
MS1

>  <INSTRUMENT TYPE>  (6113) 
EI-B

>  <INSTRUMENT>  (6113) 
HITACHI RMU-7M

>  <ION MODE>  (6113) 
P

>  <INCHIKEY>  (6113) 
YYLLIJHXUHJATK-UHFFFAOYSA-N

>  <FORMULA>  (6113) 
C8H14O2

>  <EXACT MASS>  (6113) 
142.099379688

>  <MW>  (6113) 
142

>  <ID>  (6113) 
JP002120

>  <CONTRIBUTOR>  (6113) 
University of Tokyo Team, {Faculty of Engineering, University of Tokyo

>  <COMMENT>  (6113) 
SMILES=CC(=O)OC(C1)CCCC1
InChI=InChI=1S/C8H14O2/c1-7(9)10-8-5-3-2-4-6-8/h8H,2-6H2,1H3
computed SMILES=O=C(OC1CCCCC1)C
accession=JP002120
date=2016.01.19 (Created 2008.10.21, modified 2011.05.06)
author=TAJIMA S, GUNMA COLLEGE OF TECHNOLOGY
license=CC BY-NC-SA
exact mass=142.09938
ionization energy=70 eV
ion type=[M]+*
computed spectral entropy=2.299713154565947
computed normalized entropy=0.733445191154488
SPLASH=splash10-00l6-9000000000-e34ef1930e205ff0aa2a
submitter=submitter = University of Tokyo Team (Faculty of Engineering, University of Tokyo)
MoNA Rating=3.75

>  <NUM PEAKS>  (6113) 
23

>  <MASS SPECTRAL PEAKS>  (6113) 
15 2.08
27 4.45
28 1.41
29 3.12
39 6.01
41 13.35
42 2.89
43 99.99
44 3.41
53 1.48
54 20.1
55 16.54
57 8.01
58 6.45
61 6.9
67 67.36
68 2.97
71 2.97
81 8.01
82 67.14
83 8.83
99 3.04
100 3.34

$$$$

     RDKit          2D

  9  9  0  0  0  0  0  0  0  0999 V2000
   -1.6205    0.1948    0.0000 C   0  0  0  0  0  0  0  0  0  0  0  0
   -0.3171   -0.5477    0.0000 C   0  0  0  0  0  0  0  0  0  0  0  0
    2.2488    2.4423    0.0000 C   0  0  0  0  0  0  0  0  0  0  0  0
    3.5317    1.7146    0.0000 C   0  0  0  0  0  0  0  0  0  0  0  0
    0.9717    1.6899    0.0000 C   0  0  0  0  0  0  0  0  0  0  0  0
    3.5679    0.2150    0.0000 C   0  0  0  0  0  0  0  0  0  0  0  0
    0.9776    0.2098    0.0000 C   0  0  0  0  0  0  0  0  0  0  0  0
    2.2604   -0.5180    0.0000 C   0  0  0  0  0  0  0  0  0  0  0  0
    2.2567   -2.0179    0.0000 N   0  0  0  0  0  0  0  0  0  0  0  0
  2  1  1  0
  4  3  2  0
  5  3  1  0
  6  4  1  0
  7  2  1  0
  7  5  2  0
  8  6  2  0
  8  7  1  0
  9  8  1  0
M  END
>  <NAME>  (6114) 
ORTHO-ETHYL ANILINE

>  <SYNONYMS>  (6114) 


>  <SPECTRUM TYPE>  (6114) 
MS1

>  <INSTRUMENT TYPE>  (6114) 
EI-B

>  <INSTRUMENT>  (6114) 
HITACHI RMU-7M

>  <ION MODE>  (6114) 
P

>  <INCHIKEY>  (6114) 
MLPVBIWIRCKMJV-UHFFFAOYSA-N

>  <FORMULA>  (6114) 
C8H11N

>  <EXACT MASS>  (6114) 
121.08914935199999

>  <MW>  (6114) 
121

>  <ID>  (6114) 
JP002119

>  <CONTRIBUTOR>  (6114) 
University of Tokyo Team, {Faculty of Engineering, University of Tokyo

>  <COMMENT>  (6114) 
SMILES=CCc(c1)c(N)ccc1
InChI=InChI=1S/C8H11N/c1-2-7-5-3-4-6-8(7)9/h3-6H,2,9H2,1H3
computed SMILES=NC=1C=CC=CC1CC
accession=JP002119
date=2016.01.19 (Created 2008.10.21, modified 2011.05.06)
author=TAJIMA S, GUNMA COLLEGE OF TECHNOLOGY
license=CC BY-NC-SA
exact mass=121.08915
ionization energy=70 eV
ion type=[M]+*
computed spectral entropy=2.1253014169584197
computed normalized entropy=0.6448442393737178
SPLASH=splash10-0a4i-3900000000-2a005bbca40518ab63ee
submitter=submitter = University of Tokyo Team (Faculty of Engineering, University of Tokyo)
MoNA Rating=3.75

>  <NUM PEAKS>  (6114) 
27

>  <MASS SPECTRAL PEAKS>  (6114) 
27 1.36
28 2.65
30 1.55
39 4.26
41 1
51 2.97
52 1.87
53 3.74
58.5 1
63 1.36
65 3.23
66 1.16
77 13.69
78 3.74
79 11.62
80 1.29
89 1.03
91 3.49
93 1.74
103 2.97
104 1.36
106 99.99
107 8.13
118 2.58
120 3.36
121 40.15
122 3.16

$$$$

     RDKit          2D

  9  9  0  0  0  0  0  0  0  0999 V2000
   -3.5724    2.0075    0.0000 C   0  0  0  0  0  0  0  0  0  0  0  0
   -2.2733    1.2575    0.0000 C   0  0  0  0  0  0  0  0  0  0  0  0
    2.9228   -0.2425    0.0000 C   0  0  0  0  0  0  0  0  0  0  0  0
    1.6233   -0.9933    0.0000 C   0  0  0  0  0  0  0  0  0  0  0  0
    2.9233    1.2583    0.0000 C   0  0  0  0  0  0  0  0  0  0  0  0
    0.3243   -0.2433    0.0000 C   0  0  0  0  0  0  0  0  0  0  0  0
    1.6243    2.0083    0.0000 C   0  0  0  0  0  0  0  0  0  0  0  0
    0.3248    1.2575    0.0000 C   0  0  0  0  0  0  0  0  0  0  0  0
   -0.9743    2.0075    0.0000 N   0  0  0  0  0  0  0  0  0  0  0  0
  2  1  1  0
  4  3  2  0
  5  3  1  0
  6  4  1  0
  7  5  2  0
  8  6  2  0
  8  7  1  0
  9  2  1  0
  9  8  1  0
M  END
>  <NAME>  (6115) 
N-ETHYL ANILINE

>  <SYNONYMS>  (6115) 


>  <SPECTRUM TYPE>  (6115) 
MS1

>  <INSTRUMENT TYPE>  (6115) 
EI-B

>  <INSTRUMENT>  (6115) 
HITACHI RMU-7M

>  <ION MODE>  (6115) 
P

>  <INCHIKEY>  (6115) 
OJGMBLNIHDZDGS-UHFFFAOYSA-N

>  <FORMULA>  (6115) 
C8H11N

>  <EXACT MASS>  (6115) 
121.08914935199999

>  <MW>  (6115) 
121

>  <ID>  (6115) 
JP002118

>  <CONTRIBUTOR>  (6115) 
University of Tokyo Team, {Faculty of Engineering, University of Tokyo

>  <COMMENT>  (6115) 
SMILES=CCNc(c1)cccc1
InChI=InChI=1S/C8H11N/c1-2-9-8-6-4-3-5-7-8/h3-7,9H,2H2,1H3
computed SMILES=C=1C=CC(=CC1)NCC
ion type=[M]+*
accession=JP002118
date=2016.01.19 (Created 2008.10.21, modified 2011.05.06)
author=TAJIMA S, GUNMA COLLEGE OF TECHNOLOGY
license=CC BY-NC-SA
exact mass=121.08915
ionization energy=70 eV
computed spectral entropy=2.601960516165916
computed normalized entropy=0.7318441039147929
SPLASH=splash10-0a4i-6900000000-d449b83fa832bf7a9b12
submitter=submitter = University of Tokyo Team (Faculty of Engineering, University of Tokyo)
MoNA Rating=3.75

>  <NUM PEAKS>  (6115) 
35

>  <MASS SPECTRAL PEAKS>  (6115) 
27 3.3
28 3.64
29 1.28
30 2.02
38 1.75
39 6.68
40 1.35
41 1.48
42 2.09
44 1.96
50 3.24
51 13.01
52 4.32
53 7.96
58.5 1.21
63 2.56
64 2.09
65 7.75
66 3.17
77 26.57
78 5.39
79 16.25
80 1.35
91 2.9
92 2.02
93 1.89
103 1.55
104 3.44
106 99.99
107 8.02
118 2.63
119 1.48
120 5.39
121 37.09
122 4.05

$$$$

     RDKit          2D

 10 10  0  0  0  0  0  0  0  0999 V2000
   -3.5147    1.3398    0.0000 C   0  0  0  0  0  0  0  0  0  0  0  0
    1.6435    2.8271    0.0000 C   0  0  0  0  0  0  0  0  0  0  0  0
   -2.2176    0.5865    0.0000 C   0  0  0  0  0  0  0  0  0  0  0  0
    2.9500   -0.8900    0.0000 C   0  0  0  0  0  0  0  0  0  0  0  0
    1.6783   -1.6372    0.0000 C   0  0  0  0  0  0  0  0  0  0  0  0
    2.9369    0.5921    0.0000 C   0  0  0  0  0  0  0  0  0  0  0  0
    0.3615   -0.9187    0.0000 C   0  0  0  0  0  0  0  0  0  0  0  0
    1.6521    1.3271    0.0000 C   0  0  0  0  0  0  0  0  0  0  0  0
    0.3805    0.5800    0.0000 C   0  0  0  0  0  0  0  0  0  0  0  0
   -0.9167    1.3333    0.0000 N   0  0  0  0  0  0  0  0  0  0  0  0
  3  1  1  0
  5  4  2  0
  6  4  1  0
  7  5  1  0
  8  2  1  0
  8  6  2  0
  9  7  2  0
  9  8  1  0
 10  3  1  0
 10  9  1  0
M  END
>  <NAME>  (6116) 
N-ETHYL-ORTHO-TOLUIDINE

>  <SYNONYMS>  (6116) 


>  <SPECTRUM TYPE>  (6116) 
MS1

>  <INSTRUMENT TYPE>  (6116) 
EI-B

>  <INSTRUMENT>  (6116) 
HITACHI RMU-7M

>  <ION MODE>  (6116) 
P

>  <INCHIKEY>  (6116) 
MWOUGPLLVVEUMM-UHFFFAOYSA-N

>  <FORMULA>  (6116) 
C9H13N

>  <EXACT MASS>  (6116) 
135.104799416

>  <MW>  (6116) 
135

>  <ID>  (6116) 
JP002117

>  <CONTRIBUTOR>  (6116) 
University of Tokyo Team, {Faculty of Engineering, University of Tokyo

>  <COMMENT>  (6116) 
SMILES=CCNc(c1)c(C)ccc1
InChI=InChI=1S/C9H13N/c1-3-10-9-7-5-4-6-8(9)2/h4-7,10H,3H2,1-2H3
computed SMILES=C=1C=CC(=C(C1)NCC)C
accession=JP002117
date=2016.01.19 (Created 2008.10.21, modified 2011.05.06)
author=TAJIMA S, GUNMA COLLEGE OF TECHNOLOGY
license=CC BY-NC-SA
exact mass=135.1048
ionization energy=70 eV
ion type=[M]+*
computed spectral entropy=2.6898655738094828
computed normalized entropy=0.7394644293488875
SPLASH=splash10-00di-5900000000-dadcdf238a6e60ad5f3f
submitter=submitter = University of Tokyo Team (Faculty of Engineering, University of Tokyo)
MoNA Rating=3.75

>  <NUM PEAKS>  (6116) 
38

>  <MASS SPECTRAL PEAKS>  (6116) 
27 3.14
28 3.52
29 1.35
30 1.6
39 5.96
41 2.56
42 1.92
44 5.12
50 1.41
51 4.48
52 2.43
53 1.35
58.5 2.43
59.5 1.86
60 1.28
63 2.56
65 10.89
77 7.56
78 2.24
79 3.27
89 1.92
91 24.34
92 4.42
93 7.56
103 1.35
104 1.86
105 1.54
106 6.34
107 1.41
117 3.07
118 11.92
119 4.16
120 99.99
121 9.48
133 1.28
134 4.55
135 37.48
136 4.36

$$$$

     RDKit          2D

  7  6  0  0  0  0  0  0  0  0999 V2000
    1.9486    2.6250    0.0000 C   0  0  0  0  0  0  0  0  0  0  0  0
   -4.5466    3.3750    0.0000 C   0  0  0  0  0  0  0  0  0  0  0  0
   -0.6495    2.6250    0.0000 C   0  0  0  0  0  0  0  0  0  0  0  0
   -1.9486    3.3750    0.0000 C   0  0  0  0  0  0  0  0  0  0  0  0
   -1.9486    4.8750    0.0000 O   0  0  0  0  0  0  0  0  0  0  0  0
    0.6495    3.3750    0.0000 O   0  0  0  0  0  0  0  0  0  0  0  0
   -3.2476    2.6250    0.0000 O   0  0  0  0  0  0  0  0  0  0  0  0
  4  3  1  0
  5  4  2  0
  6  1  1  0
  6  3  1  0
  7  2  1  0
  7  4  1  0
M  END
>  <NAME>  (6117) 
METHOXY ACETIC ACID METHYL ESTER

>  <SYNONYMS>  (6117) 
METHYL METHOXY ACETATE

>  <SPECTRUM TYPE>  (6117) 
MS1

>  <INSTRUMENT TYPE>  (6117) 
EI-B

>  <INSTRUMENT>  (6117) 
HITACHI RMU-7M

>  <ION MODE>  (6117) 
P

>  <INCHIKEY>  (6117) 
QRMHDGWGLNLHMN-UHFFFAOYSA-N

>  <FORMULA>  (6117) 
C4H8O3

>  <EXACT MASS>  (6117) 
104.04734411599999

>  <MW>  (6117) 
104

>  <ID>  (6117) 
JP002116

>  <CONTRIBUTOR>  (6117) 
University of Tokyo Team, {Faculty of Engineering, University of Tokyo

>  <COMMENT>  (6117) 
SMILES=COCC(=O)OC
InChI=InChI=1S/C4H8O3/c1-6-3-4(5)7-2/h3H2,1-2H3
computed SMILES=O=C(OC)COC
accession=JP002116
date=2016.01.19 (Created 2008.10.21, modified 2011.05.06)
author=TAJIMA S, GUNMA COLLEGE OF TECHNOLOGY
license=CC BY-NC-SA
exact mass=104.04734
ionization energy=70 eV
ion type=[M]+*
computed spectral entropy=1.5547763571578872
computed normalized entropy=0.6256880343132941
SPLASH=splash10-0002-9000000000-3df00b19857674681d71
submitter=submitter = University of Tokyo Team (Faculty of Engineering, University of Tokyo)
MoNA Rating=3.75

>  <NUM PEAKS>  (6117) 
12

>  <MASS SPECTRAL PEAKS>  (6117) 
15 17.93
28 1.06
29 12.63
31 2.44
42 4.16
43 4.81
44 2.04
45 99.99
46 1.79
59 3.26
74 23.55
75 5.05

$$$$

     RDKit          2D

  9  8  0  0  0  0  0  0  0  0999 V2000
   -6.4952    4.5000    0.0000 C   0  0  0  0  0  0  0  0  0  0  0  0
    2.5981    3.7500    0.0000 C   0  0  0  0  0  0  0  0  0  0  0  0
   -5.1962    3.7500    0.0000 C   0  0  0  0  0  0  0  0  0  0  0  0
    1.2990    4.5000    0.0000 C   0  0  0  0  0  0  0  0  0  0  0  0
   -3.8971    4.5000    0.0000 C   0  0  0  0  0  0  0  0  0  0  0  0
   -2.5981    3.7500    0.0000 C   0  0  0  0  0  0  0  0  0  0  0  0
    0.0000    3.7500    0.0000 C   0  0  0  0  0  0  0  0  0  0  0  0
   -0.0000    2.2500    0.0000 O   0  0  0  0  0  0  0  0  0  0  0  0
   -1.2990    4.5000    0.0000 O   0  0  0  0  0  0  0  0  0  0  0  0
  3  1  1  0
  4  2  1  0
  5  3  1  0
  6  5  1  0
  7  4  1  0
  8  7  2  0
  9  6  1  0
  9  7  1  0
M  END
>  <NAME>  (6118) 
PROPIONIC ACID BUTYL ESTER

>  <SYNONYMS>  (6118) 


>  <SPECTRUM TYPE>  (6118) 
MS1

>  <INSTRUMENT TYPE>  (6118) 
EI-B

>  <INSTRUMENT>  (6118) 
HITACHI RMU-7M

>  <ION MODE>  (6118) 
P

>  <INCHIKEY>  (6118) 
BTMVHUNTONAYDX-UHFFFAOYSA-N

>  <FORMULA>  (6118) 
C7H14O2

>  <EXACT MASS>  (6118) 
130.099379688

>  <MW>  (6118) 
130

>  <ID>  (6118) 
JP002115

>  <CONTRIBUTOR>  (6118) 
University of Tokyo Team, {Faculty of Engineering, University of Tokyo

>  <COMMENT>  (6118) 
SMILES=CCCCOC(=O)CC
InChI=InChI=1S/C7H14O2/c1-3-5-6-9-7(8)4-2/h3-6H2,1-2H3
computed SMILES=O=C(OCCCC)CC
accession=JP002115
date=2016.01.19 (Created 2008.10.21, modified 2011.05.06)
author=TAJIMA S, GUNMA COLLEGE OF TECHNOLOGY
license=CC BY-NC-SA
exact mass=130.09938
ionization energy=70 eV
ion type=[M]+*
computed spectral entropy=2.140363290092347
computed normalized entropy=0.7269171836253423
SPLASH=splash10-0a6r-9000000000-fe604893272116d73ad4
submitter=submitter = University of Tokyo Team (Faculty of Engineering, University of Tokyo)
MoNA Rating=3.75

>  <NUM PEAKS>  (6118) 
19

>  <MASS SPECTRAL PEAKS>  (6118) 
26 1.61
27 11.3
28 7.69
29 51.94
30 1.42
31 3.94
39 3.1
41 21.38
42 1.87
43 4.59
55 7.24
56 35.47
57 99.99
58 3.29
71 3.04
73 1.49
74 2.2
75 23.13
87 5.88

$$$$

     RDKit          2D

  8  7  0  0  0  0  0  0  0  0999 V2000
   -6.4952    4.5000    0.0000 C   0  0  0  0  0  0  0  0  0  0  0  0
    2.5981    3.7500    0.0000 C   0  0  0  0  0  0  0  0  0  0  0  0
   -5.1962    3.7500    0.0000 C   0  0  0  0  0  0  0  0  0  0  0  0
    1.2990    4.5000    0.0000 C   0  0  0  0  0  0  0  0  0  0  0  0
   -3.8971    4.5000    0.0000 C   0  0  0  0  0  0  0  0  0  0  0  0
    0.0000    3.7500    0.0000 C   0  0  0  0  0  0  0  0  0  0  0  0
   -2.5981    3.7500    0.0000 C   0  0  0  0  0  0  0  0  0  0  0  0
   -1.2990    4.5000    0.0000 C   0  0  0  0  0  0  0  0  0  0  0  0
  3  1  2  0
  4  2  1  0
  5  3  1  0
  6  4  1  0
  7  5  1  0
  8  6  1  0
  8  7  1  0
M  END
>  <NAME>  (6119) 
1-OCTENE

>  <SYNONYMS>  (6119) 


>  <SPECTRUM TYPE>  (6119) 
MS1

>  <INSTRUMENT TYPE>  (6119) 
EI-B

>  <INSTRUMENT>  (6119) 
HITACHI RMU-7M

>  <ION MODE>  (6119) 
P

>  <INCHIKEY>  (6119) 
KWKAKUADMBZCLK-UHFFFAOYSA-N

>  <FORMULA>  (6119) 
C8H16

>  <EXACT MASS>  (6119) 
112.12520051199999

>  <MW>  (6119) 
112

>  <ID>  (6119) 
JP002114

>  <CONTRIBUTOR>  (6119) 
University of Tokyo Team, {Faculty of Engineering, University of Tokyo

>  <COMMENT>  (6119) 
SMILES=CCCCCCC=C
InChI=InChI=1S/C8H16/c1-3-5-7-8-6-4-2/h3H,1,4-8H2,2H3
computed SMILES=C=CCCCCCC
accession=JP002114
date=2016.01.19 (Created 2008.10.21, modified 2011.05.06)
author=TAJIMA S, GUNMA COLLEGE OF TECHNOLOGY
license=CC BY-NC-SA
exact mass=112.1252
ionization energy=70 eV
ion type=[M]+*
computed spectral entropy=2.9626458561369646
computed normalized entropy=0.814453796019449
SPLASH=splash10-052f-9000000000-0d12e31b62f696bdc7ed
submitter=submitter = University of Tokyo Team (Faculty of Engineering, University of Tokyo)
MoNA Rating=3.75

>  <NUM PEAKS>  (6119) 
38

>  <MASS SPECTRAL PEAKS>  (6119) 
15 1.59
26 1.51
27 25.56
28 6.51
29 41.27
39 23.1
40 3.65
41 76.19
42 58.81
43 99.99
44 5.4
45 3.33
53 6.03
54 8.89
55 92.46
56 68.65
57 28.73
58 4.29
60 6.75
67 6.98
68 7.46
69 44.44
70 61.27
71 13.97
72 2.78
73 3.89
81 3.65
82 6.43
83 26.9
84 15.87
85 5.24
87 1.59
95 1.59
97 5.4
99 3.57
111 2.62
112 7.3
113 2.3

$$$$

     RDKit          2D

 15 14  0  0  0  0  0  0  0  0999 V2000
   -0.4853    3.3849    0.0000 C   0  0  0  0  0  0  0  0  0  0  0  0
   -1.2353    2.0858    0.0000 H   0  0  0  0  0  0  0  0  0  0  0  0
    0.2647    4.6839    0.0000 H   0  0  0  0  0  0  0  0  0  0  0  0
   -1.7844    4.1349    0.0000 H   0  0  0  0  0  0  0  0  0  0  0  0
    7.3089    3.3849    0.0000 C   0  0  0  0  0  0  0  0  0  0  0  0
    8.0589    2.0858    0.0000 H   0  0  0  0  0  0  0  0  0  0  0  0
    8.6079    4.1349    0.0000 H   0  0  0  0  0  0  0  0  0  0  0  0
    6.5589    4.6839    0.0000 H   0  0  0  0  0  0  0  0  0  0  0  0
    3.4118    2.6349    0.0000 C   0  0  0  0  0  0  0  0  0  0  0  0
    2.1127    3.3849    0.0000 C   0  0  0  0  0  0  0  0  0  0  0  0
    4.7108    3.3849    0.0000 C   0  0  0  0  0  0  0  0  0  0  0  0
    2.1127    4.8849    0.0000 O   0  0  0  0  0  0  0  0  0  0  0  0
    4.7108    4.8849    0.0000 O   0  0  0  0  0  0  0  0  0  0  0  0
    0.8137    2.6349    0.0000 O   0  0  0  0  0  0  0  0  0  0  0  0
    6.0099    2.6349    0.0000 O   0  0  0  0  0  0  0  0  0  0  0  0
  1  2  1  0
  1  3  1  0
  1  4  1  0
  5  6  1  0
  5  7  1  0
  5  8  1  0
 10  9  1  0
 11  9  1  0
 12 10  2  0
 13 11  2  0
 14  1  1  0
 14 10  1  0
 15  5  1  0
 15 11  1  0
M  ISO  6   2   2   3   2   4   2   6   2   7   2   8   2
M  END
>  <NAME>  (6120) 
MALONIC ACID DIMETHYL ESTER (1,1,1,7,7,7-D6)

>  <SYNONYMS>  (6120) 
PROPANEDIOIC ACID DIMETHYL ESTER (1,1,1,7,7,7-D6)

>  <SPECTRUM TYPE>  (6120) 
MS1

>  <INSTRUMENT TYPE>  (6120) 
EI-B

>  <INSTRUMENT>  (6120) 
HITACHI RMU-7M

>  <ION MODE>  (6120) 
P

>  <INCHIKEY>  (6120) 
BEPAFCGSDWSTEL-WFGJKAKNSA-N

>  <FORMULA>  (6120) 
C5H8O4

>  <EXACT MASS>  (6120) 
138.079919212

>  <MW>  (6120) 
138

>  <ID>  (6120) 
JP002113

>  <CONTRIBUTOR>  (6120) 
University of Tokyo Team, {Faculty of Engineering, University of Tokyo

>  <COMMENT>  (6120) 
SMILES=[2H]C([2H])([2H])OC(=O)CC(=O)OC([2H])([2H])[2H]
InChI=InChI=1S/C5H8O4/c1-8-4(6)3-5(7)9-2/h3H2,1-2H3/i1D3,2D3
computed SMILES=[H]C([H])([H])OC(=O)CC(=O)OC([H])([H])[H]
accession=JP002113
date=2016.01.19 (Created 2008.10.21, modified 2011.05.06)
author=TAJIMA S, GUNMA COLLEGE OF TECHNOLOGY
license=CC BY-NC-SA
exact mass=132.04226
ionization energy=70 eV
ion type=[M]+*
computed spectral entropy=2.4174519569204636
computed normalized entropy=0.7334865332249391
SPLASH=splash10-0ik9-9200000000-d60208b3cf3bfe73f67b
submitter=submitter = University of Tokyo Team (Faculty of Engineering, University of Tokyo)
MoNA Rating=3.75

>  <NUM PEAKS>  (6120) 
27

>  <MASS SPECTRAL PEAKS>  (6120) 
18 47.09
28 4.6
29 3.32
30 5.82
32 12.74
33 2.66
41 2.77
42 17.73
43 2.22
44 16.62
45 1.55
48 1.66
50 4.99
60 27.15
61 2.66
62 99.99
63 2.94
69 9.58
78 34.35
79 1.27
102 1.94
103 3.05
104 77.84
105 3.88
110 1
120 1.39
138 3.05

$$$$

     RDKit          2D

  8  7  0  0  0  0  0  0  0  0999 V2000
   -3.5724    3.9375    0.0000 C   0  0  0  0  0  0  0  0  0  0  0  0
   -2.2733    1.6875    0.0000 C   0  0  0  0  0  0  0  0  0  0  0  0
    2.9228    3.1875    0.0000 C   0  0  0  0  0  0  0  0  0  0  0  0
   -0.9743    3.9375    0.0000 C   0  0  0  0  0  0  0  0  0  0  0  0
   -2.2733    3.1875    0.0000 C   0  0  0  0  0  0  0  0  0  0  0  0
    0.3248    3.1875    0.0000 C   0  0  0  0  0  0  0  0  0  0  0  0
    0.3248    1.6875    0.0000 O   0  0  0  0  0  0  0  0  0  0  0  0
    1.6238    3.9375    0.0000 O   0  0  0  0  0  0  0  0  0  0  0  0
  5  1  1  0
  5  2  1  0
  5  4  1  0
  6  4  1  0
  7  6  2  0
  8  3  1  0
  8  6  1  0
M  END
>  <NAME>  (6121) 
ISOVALERIC ACID METHYL ESTER

>  <SYNONYMS>  (6121) 
3-METHYL BUTANOIC ACID METHYL ESTER

>  <SPECTRUM TYPE>  (6121) 
MS1

>  <INSTRUMENT TYPE>  (6121) 
EI-B

>  <INSTRUMENT>  (6121) 
HITACHI RMU-7M

>  <ION MODE>  (6121) 
P

>  <INCHIKEY>  (6121) 
OQAGVSWESNCJJT-UHFFFAOYSA-N

>  <FORMULA>  (6121) 
C6H12O2

>  <EXACT MASS>  (6121) 
116.083729624

>  <MW>  (6121) 
116

>  <ID>  (6121) 
JP002112

>  <CONTRIBUTOR>  (6121) 
University of Tokyo Team, {Faculty of Engineering, University of Tokyo

>  <COMMENT>  (6121) 
SMILES=COC(=O)CC(C)C
InChI=InChI=1S/C6H12O2/c1-5(2)4-6(7)8-3/h5H,4H2,1-3H3
computed SMILES=O=C(OC)CC(C)C
license=CC BY-NC-SA
accession=JP002112
date=2016.01.19 (Created 2008.10.21, modified 2011.05.06)
author=TAJIMA S, GUNMA COLLEGE OF TECHNOLOGY
exact mass=116.08373
ionization energy=70 eV
ion type=[M]+*
computed spectral entropy=2.5581735623505564
computed normalized entropy=0.8049497267547786
SPLASH=splash10-0596-9000000000-07204361bb9951b4e592
submitter=submitter = University of Tokyo Team (Faculty of Engineering, University of Tokyo)
MoNA Rating=3.75

>  <NUM PEAKS>  (6121) 
24

>  <MASS SPECTRAL PEAKS>  (6121) 
15 21.68
27 13.84
28 3.7
29 23.34
31 4.02
39 11.48
40 1.59
41 34.12
42 10.97
43 71.43
44 3.83
45 2.49
55 3.76
56 5.36
57 27.74
59 43.56
60 5.68
69 5.42
73 2.42
74 99.99
75 3.44
85 26.79
86 1.28
101 9.57

$$$$

     RDKit          2D

  5  5  0  0  0  0  0  0  0  0999 V2000
   -0.7500    1.0300    0.0000 C   0  0  0  0  0  0  0  0  0  0  0  0
    0.7500    1.0300    0.0000 C   0  0  0  0  0  0  0  0  0  0  0  0
   -1.2100   -0.3900    0.0000 C   0  0  0  0  0  0  0  0  0  0  0  0
    1.2100   -0.3900    0.0000 C   0  0  0  0  0  0  0  0  0  0  0  0
   -0.0000   -1.2800    0.0000 O   0  0  0  0  0  0  0  0  0  0  0  0
  2  1  1  0
  3  1  2  0
  4  2  2  0
  5  3  1  0
  5  4  1  0
M  END
>  <NAME>  (6122) 
FURAN

>  <SYNONYMS>  (6122) 


>  <SPECTRUM TYPE>  (6122) 
MS1

>  <INSTRUMENT TYPE>  (6122) 
EI-B

>  <INSTRUMENT>  (6122) 
HITACHI RMU-7M

>  <ION MODE>  (6122) 
P

>  <INCHIKEY>  (6122) 
YLQBMQCUIZJEEH-UHFFFAOYSA-N

>  <FORMULA>  (6122) 
C4H4O

>  <EXACT MASS>  (6122) 
68.026214748

>  <MW>  (6122) 
68

>  <ID>  (6122) 
JP002111

>  <CONTRIBUTOR>  (6122) 
University of Tokyo Team, {Faculty of Engineering, University of Tokyo

>  <COMMENT>  (6122) 
SMILES=c(c1)coc1
InChI=InChI=1S/C4H4O/c1-2-4-5-3-1/h1-4H
computed SMILES=O1C=CC=C1
accession=JP002111
date=2016.01.19 (Created 2008.10.21, modified 2011.05.06)
author=TAJIMA S, GUNMA COLLEGE OF TECHNOLOGY
license=CC BY-NC-SA
exact mass=68.02621
ionization energy=70 eV
ion type=[M]+*
computed spectral entropy=1.662412508291419
computed normalized entropy=0.6299266369229568
SPLASH=splash10-00kr-9000000000-4c50652f33a401ab3cae
submitter=submitter = University of Tokyo Team (Faculty of Engineering, University of Tokyo)
MoNA Rating=3.75

>  <NUM PEAKS>  (6122) 
14

>  <MASS SPECTRAL PEAKS>  (6122) 
26 1.43
28 3.94
29 10.14
34 1.67
37 7.28
38 12.23
39 99.99
40 12.71
41 1.85
42 7.64
43 2.33
44 1.19
68 88.19
69 4.18

$$$$

     RDKit          2D

 12 11  0  0  0  0  0  0  0  0999 V2000
   -5.1962    1.5000    0.0000 C   0  0  0  0  0  0  0  0  0  0  0  0
    3.8971    6.7500    0.0000 C   0  0  0  0  0  0  0  0  0  0  0  0
   -3.8971    2.2500    0.0000 C   0  0  0  0  0  0  0  0  0  0  0  0
    2.5981    6.0000    0.0000 C   0  0  0  0  0  0  0  0  0  0  0  0
   -2.5981    6.0000    0.0000 C   0  0  0  0  0  0  0  0  0  0  0  0
   -1.2990    6.7500    0.0000 C   0  0  0  0  0  0  0  0  0  0  0  0
   -2.5981    4.5000    0.0000 C   0  0  0  0  0  0  0  0  0  0  0  0
    0.0000    6.0000    0.0000 C   0  0  0  0  0  0  0  0  0  0  0  0
   -1.2990    3.7500    0.0000 O   0  0  0  0  0  0  0  0  0  0  0  0
    0.0000    4.5000    0.0000 O   0  0  0  0  0  0  0  0  0  0  0  0
   -3.8971    3.7500    0.0000 O   0  0  0  0  0  0  0  0  0  0  0  0
    1.2990    6.7500    0.0000 O   0  0  0  0  0  0  0  0  0  0  0  0
  3  1  1  0
  4  2  1  0
  5  6  2  0
  7  5  1  0
  8  6  1  0
  9  7  2  0
 10  8  2  0
 11  3  1  0
 11  7  1  0
 12  4  1  0
 12  8  1  0
M  END
>  <NAME>  (6123) 
DIETHYL MALEATE

>  <SYNONYMS>  (6123) 
CIS-BUTENEDIOIC ACID DIETHYL ESTER

>  <SPECTRUM TYPE>  (6123) 
MS1

>  <INSTRUMENT TYPE>  (6123) 
EI-B

>  <INSTRUMENT>  (6123) 
HITACHI RMU-7M

>  <ION MODE>  (6123) 
P

>  <INCHIKEY>  (6123) 
IEPRKVQEAMIZSS-WAYWQWQTSA-N

>  <FORMULA>  (6123) 
C8H12O4

>  <EXACT MASS>  (6123) 
172.073558864

>  <MW>  (6123) 
172

>  <ID>  (6123) 
JP002110

>  <CONTRIBUTOR>  (6123) 
University of Tokyo Team, {Faculty of Engineering, University of Tokyo

>  <COMMENT>  (6123) 
SMILES=CCOC(=O)C=CC(=O)OCC
InChI=InChI=1S/C8H12O4/c1-3-11-7(9)5-6-8(10)12-4-2/h5-6H,3-4H2,1-2H3/b6-5-
computed SMILES=O=C(OCC)C=CC(=O)OCC
accession=JP002110
date=2016.01.19 (Created 2008.10.21, modified 2011.05.06)
author=TAJIMA S, GUNMA COLLEGE OF TECHNOLOGY
license=CC BY-NC-SA
exact mass=172.07356
ionization energy=70 eV
ion type=[M]+*
computed spectral entropy=2.359903345839266
computed normalized entropy=0.7331451954770247
SPLASH=splash10-002b-9300000000-beca5d278a0d16ecf73b
submitter=submitter = University of Tokyo Team (Faculty of Engineering, University of Tokyo)
MoNA Rating=3.75

>  <NUM PEAKS>  (6123) 
25

>  <MASS SPECTRAL PEAKS>  (6123) 
15 1.07
26 5.68
27 12.56
28 2.56
29 19.63
31 2.53
43 3.28
44 2.84
45 6.25
53 2.65
54 7.13
55 7.83
71 4.86
72 2.15
81 1.58
82 7.13
98 1.26
99 99.99
100 12.31
125 1.58
126 12.63
127 29.36
128 6.19
143 2.27
145 1

$$$$

     RDKit          2D

  7  6  0  0  0  0  0  0  0  0999 V2000
    1.9486    3.3750    0.0000 C   0  0  0  0  0  0  0  0  0  0  0  0
   -5.8457    3.3750    0.0000 C   0  0  0  0  0  0  0  0  0  0  0  0
    0.6495    4.1250    0.0000 C   0  0  0  0  0  0  0  0  0  0  0  0
   -4.5466    4.1250    0.0000 C   0  0  0  0  0  0  0  0  0  0  0  0
   -0.6495    3.3750    0.0000 C   0  0  0  0  0  0  0  0  0  0  0  0
   -3.2476    3.3750    0.0000 C   0  0  0  0  0  0  0  0  0  0  0  0
   -1.9486    4.1250    0.0000 O   0  0  0  0  0  0  0  0  0  0  0  0
  3  1  1  0
  4  2  1  0
  5  3  1  0
  6  4  1  0
  7  5  1  0
  7  6  1  0
M  END
>  <NAME>  (6124) 
DIPROPYL ETHER

>  <SYNONYMS>  (6124) 


>  <SPECTRUM TYPE>  (6124) 
MS1

>  <INSTRUMENT TYPE>  (6124) 
EI-B

>  <INSTRUMENT>  (6124) 
HITACHI RMU-7M

>  <ION MODE>  (6124) 
P

>  <INCHIKEY>  (6124) 
POLCUAVZOMRGSN-UHFFFAOYSA-N

>  <FORMULA>  (6124) 
C6H14O

>  <EXACT MASS>  (6124) 
102.104465068

>  <MW>  (6124) 
102

>  <ID>  (6124) 
JP002109

>  <CONTRIBUTOR>  (6124) 
University of Tokyo Team, {Faculty of Engineering, University of Tokyo

>  <COMMENT>  (6124) 
SMILES=CCCOCCC
InChI=InChI=1S/C6H14O/c1-3-5-7-6-4-2/h3-6H2,1-2H3
computed SMILES=O(CCC)CCC
accession=JP002109
date=2016.01.19 (Created 2008.10.21, modified 2011.05.06)
author=TAJIMA S, GUNMA COLLEGE OF TECHNOLOGY
license=CC BY-NC-SA
exact mass=102.10447
ionization energy=70 eV
ion type=[M]+*
computed spectral entropy=2.4488196596200966
computed normalized entropy=0.7607686014791718
SPLASH=splash10-0006-9000000000-daf6911056cd08d0468c
submitter=submitter = University of Tokyo Team (Faculty of Engineering, University of Tokyo)
MoNA Rating=3.75

>  <NUM PEAKS>  (6124) 
25

>  <MASS SPECTRAL PEAKS>  (6124) 
15 2.04
19 2.41
26 2.34
27 18.76
29 11.9
31 71.9
33 1.46
39 7.37
40 1.46
41 32.34
42 14.01
43 99.99
44 5.77
45 59.42
46 2.19
55 7.15
56 2.04
57 9.2
58 1.53
59 23.14
60 4.38
61 2.34
73 16.79
87 3.36
102 5.04

$$$$

     RDKit          2D

  7  6  0  0  0  0  0  0  0  0999 V2000
   -3.5724    3.9375    0.0000 C   0  0  0  0  0  0  0  0  0  0  0  0
   -2.2733    1.6875    0.0000 C   0  0  0  0  0  0  0  0  0  0  0  0
   -0.9743    3.9375    0.0000 C   0  0  0  0  0  0  0  0  0  0  0  0
    1.6238    3.9375    0.0000 C   0  0  0  0  0  0  0  0  0  0  0  0
   -2.2733    3.1875    0.0000 C   0  0  0  0  0  0  0  0  0  0  0  0
    2.9228    3.1875    0.0000 O   0  0  0  0  0  0  0  0  0  0  0  0
    0.3248    3.1875    0.0000 O   0  0  0  0  0  0  0  0  0  0  0  0
  5  1  1  0
  5  2  1  0
  5  3  1  0
  6  4  2  0
  7  3  1  0
  7  4  1  0
M  END
>  <NAME>  (6125) 
FORMIC ACID ISOBUTYL ESTER

>  <SYNONYMS>  (6125) 
ISOBUTYL FORMATE

>  <SPECTRUM TYPE>  (6125) 
MS1

>  <INSTRUMENT TYPE>  (6125) 
EI-B

>  <INSTRUMENT>  (6125) 
HITACHI RMU-7M

>  <ION MODE>  (6125) 
P

>  <INCHIKEY>  (6125) 
AVMSWPWPYJVYKY-UHFFFAOYSA-N

>  <FORMULA>  (6125) 
C5H10O2

>  <EXACT MASS>  (6125) 
102.06807956

>  <MW>  (6125) 
102

>  <ID>  (6125) 
JP002108

>  <CONTRIBUTOR>  (6125) 
University of Tokyo Team, {Faculty of Engineering, University of Tokyo

>  <COMMENT>  (6125) 
SMILES=O=COCC(C)C
InChI=InChI=1S/C5H10O2/c1-5(2)3-7-4-6/h4-5H,3H2,1-2H3
computed SMILES=O=COCC(C)C
accession=JP002108
date=2016.01.19 (Created 2008.10.21, modified 2011.05.06)
author=TAJIMA S, GUNMA COLLEGE OF TECHNOLOGY
license=CC BY-NC-SA
exact mass=102.06808
ionization energy=70 eV
ion type=[M]+*
computed spectral entropy=2.5637198583574903
computed normalized entropy=0.8066949130552657
SPLASH=splash10-0006-9000000000-ff8a8eb246694d1e9366
submitter=submitter = University of Tokyo Team (Faculty of Engineering, University of Tokyo)
MoNA Rating=3.75

>  <NUM PEAKS>  (6125) 
24

>  <MASS SPECTRAL PEAKS>  (6125) 
15 1.61
26 1.42
27 22.47
28 8.05
29 16.42
31 41.85
32 4.83
33 12.04
38 1.42
39 15.45
40 3.22
41 76.3
42 28.91
43 99.99
44 11.72
45 4.06
55 9.92
56 72.12
57 11.33
59 6.12
60 36.06
61 9.59
73 2.58
74 1.67

$$$$

     RDKit          2D

  7  6  0  0  0  0  0  0  0  0999 V2000
    1.9486    3.3750    0.0000 C   0  0  0  0  0  0  0  0  0  0  0  0
    0.6495    4.1250    0.0000 C   0  0  0  0  0  0  0  0  0  0  0  0
   -0.6495    3.3750    0.0000 C   0  0  0  0  0  0  0  0  0  0  0  0
   -1.9486    4.1250    0.0000 C   0  0  0  0  0  0  0  0  0  0  0  0
   -4.5466    4.1250    0.0000 C   0  0  0  0  0  0  0  0  0  0  0  0
   -5.8457    3.3750    0.0000 O   0  0  0  0  0  0  0  0  0  0  0  0
   -3.2476    3.3750    0.0000 O   0  0  0  0  0  0  0  0  0  0  0  0
  2  1  1  0
  3  2  1  0
  4  3  1  0
  6  5  2  0
  7  4  1  0
  7  5  1  0
M  END
>  <NAME>  (6126) 
FORMIC ACID BUTYL ESTER

>  <SYNONYMS>  (6126) 
BUTYL FORMATE

>  <SPECTRUM TYPE>  (6126) 
MS1

>  <INSTRUMENT TYPE>  (6126) 
EI-B

>  <INSTRUMENT>  (6126) 
HITACHI RMU-7M

>  <ION MODE>  (6126) 
P

>  <INCHIKEY>  (6126) 
NMJJFJNHVMGPGM-UHFFFAOYSA-N

>  <FORMULA>  (6126) 
C5H10O2

>  <EXACT MASS>  (6126) 
102.06807956

>  <MW>  (6126) 
102

>  <ID>  (6126) 
JP002107

>  <CONTRIBUTOR>  (6126) 
University of Tokyo Team, {Faculty of Engineering, University of Tokyo

>  <COMMENT>  (6126) 
SMILES=CCCCOC=O
InChI=InChI=1S/C5H10O2/c1-2-3-4-7-5-6/h5H,2-4H2,1H3
computed SMILES=O=COCCCC
accession=JP002107
date=2016.01.19 (Created 2008.10.21, modified 2011.05.06)
author=TAJIMA S, GUNMA COLLEGE OF TECHNOLOGY
license=CC BY-NC-SA
exact mass=102.06808
ionization energy=70 eV
ion type=[M]+*
computed spectral entropy=2.2338392909107143
computed normalized entropy=0.7586638088669462
SPLASH=splash10-0a4l-9000000000-e7e1458477b7320af8a0
submitter=submitter = University of Tokyo Team (Faculty of Engineering, University of Tokyo)
MoNA Rating=3.75

>  <NUM PEAKS>  (6126) 
19

>  <MASS SPECTRAL PEAKS>  (6126) 
15 1
26 1.3
27 16.49
28 9.45
29 16.36
31 40.55
39 8.02
40 2.61
41 58.34
42 8.41
43 20.99
44 3.91
45 4.56
47 1.89
55 12.19
56 99.99
57 8.02
60 1.3
73 4.3

$$$$

     RDKit          2D

  8  7  0  0  0  0  0  0  0  0999 V2000
   -3.5724    3.9375    0.0000 C   0  0  0  0  0  0  0  0  0  0  0  0
    2.9228    3.1875    0.0000 C   0  0  0  0  0  0  0  0  0  0  0  0
   -0.9743    3.9375    0.0000 C   0  0  0  0  0  0  0  0  0  0  0  0
   -2.2733    3.1875    0.0000 C   0  0  0  0  0  0  0  0  0  0  0  0
    0.3248    3.1875    0.0000 C   0  0  0  0  0  0  0  0  0  0  0  0
   -2.2733    1.6875    0.0000 O   0  0  0  0  0  0  0  0  0  0  0  0
    0.3248    1.6875    0.0000 O   0  0  0  0  0  0  0  0  0  0  0  0
    1.6238    3.9375    0.0000 O   0  0  0  0  0  0  0  0  0  0  0  0
  4  1  1  0
  4  3  1  0
  5  3  1  0
  6  4  2  0
  7  5  2  0
  8  2  1  0
  8  5  1  0
M  END
>  <NAME>  (6127) 
METHYL ACETO ACETATE

>  <SYNONYMS>  (6127) 


>  <SPECTRUM TYPE>  (6127) 
MS1

>  <INSTRUMENT TYPE>  (6127) 
EI-B

>  <INSTRUMENT>  (6127) 
HITACHI RMU-7M

>  <ION MODE>  (6127) 
P

>  <INCHIKEY>  (6127) 
WRQNANDWMGAFTP-UHFFFAOYSA-N

>  <FORMULA>  (6127) 
C5H8O3

>  <EXACT MASS>  (6127) 
116.04734411599999

>  <MW>  (6127) 
116

>  <ID>  (6127) 
JP002106

>  <CONTRIBUTOR>  (6127) 
University of Tokyo Team, {Faculty of Engineering, University of Tokyo

>  <COMMENT>  (6127) 
SMILES=COC(=O)CC(C)=O
InChI=InChI=1S/C5H8O3/c1-4(6)3-5(7)8-2/h3H2,1-2H3
computed SMILES=O=C(OC)CC(=O)C
accession=JP002106
date=2016.01.19 (Created 2008.10.21, modified 2011.05.06)
author=TAJIMA S, GUNMA COLLEGE OF TECHNOLOGY
license=CC BY-NC-SA
exact mass=116.04734
ionization energy=70 eV
ion type=[M]+*
computed spectral entropy=2.3240882895115402
computed normalized entropy=0.7412191282970798
SPLASH=splash10-0006-9000000000-9801f4fde1f8c64f6baf
submitter=submitter = University of Tokyo Team (Faculty of Engineering, University of Tokyo)
MoNA Rating=3.75

>  <NUM PEAKS>  (6127) 
23

>  <MASS SPECTRAL PEAKS>  (6127) 
14 1.77
15 13.13
26 2.3
27 4.6
28 3.94
29 7.22
31 9.91
32 5.91
39 1.77
41 3.74
42 11.23
43 99.99
44 4.73
57 2.1
58 2.04
59 9.32
69 13.72
74 5.98
84 9.19
85 7.22
88 3.22
101 2.82
116 3.61

$$$$

     RDKit          2D

  4  3  0  0  0  0  0  0  0  0999 V2000
   -0.3248    1.3125    0.0000 C   0  0  0  0  0  0  0  0  0  0  0  0
    0.9743    0.5625    0.0000 Cl  0  0  0  0  0  0  0  0  0  0  0  0
   -1.6238    0.5625    0.0000 Cl  0  0  0  0  0  0  0  0  0  0  0  0
   -0.3248    2.8125    0.0000 Cl  0  0  0  0  0  0  0  0  0  0  0  0
  2  1  1  0
  3  1  1  0
  4  1  1  0
M  END
>  <NAME>  (6128) 
CHLOROFORM

>  <SYNONYMS>  (6128) 


>  <SPECTRUM TYPE>  (6128) 
MS1

>  <INSTRUMENT TYPE>  (6128) 
EI-B

>  <INSTRUMENT>  (6128) 
HITACHI RMU-7M

>  <ION MODE>  (6128) 
P

>  <INCHIKEY>  (6128) 
HEDRZPFGACZZDS-UHFFFAOYSA-N

>  <FORMULA>  (6128) 
CHCl3

>  <EXACT MASS>  (6128) 
117.91438307199999

>  <MW>  (6128) 
118

>  <ID>  (6128) 
JP002105

>  <CONTRIBUTOR>  (6128) 
University of Tokyo Team, {Faculty of Engineering, University of Tokyo

>  <COMMENT>  (6128) 
SMILES=ClC(Cl)Cl
InChI=InChI=1S/CHCl3/c2-1(3)4/h1H
computed SMILES=ClC(Cl)Cl
accession=JP002105
date=2016.01.19 (Created 2008.10.21, modified 2011.05.06)
author=TAJIMA S, GUNMA COLLEGE OF TECHNOLOGY
license=CC BY-NC-SA
exact mass=117.91438
ionization energy=70 eV
ion type=[M]+*
computed spectral entropy=1.773137691310749
computed normalized entropy=0.6258398066035534
SPLASH=splash10-001r-9000000000-375900f120fe0ebf7c58
submitter=submitter = University of Tokyo Team (Faculty of Engineering, University of Tokyo)
MoNA Rating=3.75

>  <NUM PEAKS>  (6128) 
17

>  <MASS SPECTRAL PEAKS>  (6128) 
35 4.16
36 1.68
37 1.52
47 21.02
48 9.91
49 7.11
50 3.28
82 3.52
83 99.99
84 3.36
85 64.27
86 1.12
87 10.31
117 1.12
118 1.76
119 1.12
120 1.52

$$$$

     RDKit          2D

  6  5  0  0  0  0  0  0  0  0999 V2000
    1.2990    2.2500    0.0000 C   0  0  0  0  0  0  0  0  0  0  0  0
   -1.2990    2.2500    0.0000 C   0  0  0  0  0  0  0  0  0  0  0  0
   -2.5981    3.0000    0.0000 C   0  0  0  0  0  0  0  0  0  0  0  0
   -2.5981    4.5000    0.0000 O   0  0  0  0  0  0  0  0  0  0  0  0
   -3.8971    2.2500    0.0000 O   0  0  0  0  0  0  0  0  0  0  0  0
    0.0000    3.0000    0.0000 O   0  0  0  0  0  0  0  0  0  0  0  0
  3  2  1  0
  4  3  2  0
  5  3  1  0
  6  1  1  0
  6  2  1  0
M  END
>  <NAME>  (6129) 
METHOXY ACETIC ACID

>  <SYNONYMS>  (6129) 


>  <SPECTRUM TYPE>  (6129) 
MS1

>  <INSTRUMENT TYPE>  (6129) 
EI-B

>  <INSTRUMENT>  (6129) 
HITACHI RMU-7M

>  <ION MODE>  (6129) 
P

>  <INCHIKEY>  (6129) 
RMIODHQZRUFFFF-UHFFFAOYSA-N

>  <FORMULA>  (6129) 
C3H6O3

>  <EXACT MASS>  (6129) 
90.03169405199999

>  <MW>  (6129) 
90

>  <ID>  (6129) 
JP002104

>  <CONTRIBUTOR>  (6129) 
University of Tokyo Team, {Faculty of Engineering, University of Tokyo

>  <COMMENT>  (6129) 
SMILES=COCC(O)=O
InChI=InChI=1S/C3H6O3/c1-6-2-3(4)5/h2H2,1H3,(H,4,5)
computed SMILES=O=C(O)COC
accession=JP002104
date=2016.01.19 (Created 2008.10.21, modified 2011.05.06)
author=TAJIMA S, GUNMA COLLEGE OF TECHNOLOGY
license=CC BY-NC-SA
exact mass=90.03169
ionization energy=70 eV
ion type=[M]+*
computed spectral entropy=1.7149079404867553
computed normalized entropy=0.6685932942488794
SPLASH=splash10-0002-9000000000-459a9fd6341faa2d6199
submitter=submitter = University of Tokyo Team (Faculty of Engineering, University of Tokyo)
MoNA Rating=3.75

>  <NUM PEAKS>  (6129) 
13

>  <MASS SPECTRAL PEAKS>  (6129) 
14 2.29
15 15.37
28 1.43
29 22.57
30 2.74
31 10.86
42 4.69
43 1.6
44 10.51
45 99.99
46 2.86
59 1.14
60 22

$$$$

     RDKit          2D

  6  6  0  0  0  0  0  0  0  0999 V2000
   -1.3000    0.7500    0.0000 C   0  0  0  0  0  0  0  0  0  0  0  0
    0.0000    1.5000    0.0000 C   0  0  0  0  0  0  0  0  0  0  0  0
   -1.3000   -0.7500    0.0000 C   0  0  0  0  0  0  0  0  0  0  0  0
    1.3000    0.7500    0.0000 C   0  0  0  0  0  0  0  0  0  0  0  0
   -0.0000   -1.5000    0.0000 C   0  0  0  0  0  0  0  0  0  0  0  0
    1.3000   -0.7500    0.0000 C   0  0  0  0  0  0  0  0  0  0  0  0
  2  1  2  0
  3  1  1  0
  4  2  1  0
  5  3  2  0
  6  4  2  0
  6  5  1  0
M  END
>  <NAME>  (6130) 
BENZENE

>  <SYNONYMS>  (6130) 


>  <SPECTRUM TYPE>  (6130) 
MS1

>  <INSTRUMENT TYPE>  (6130) 
EI-B

>  <INSTRUMENT>  (6130) 
HITACHI RMU-7M

>  <ION MODE>  (6130) 
P

>  <INCHIKEY>  (6130) 
UHOVQNZJYSORNB-UHFFFAOYSA-N

>  <FORMULA>  (6130) 
C6H6

>  <EXACT MASS>  (6130) 
78.046950192

>  <MW>  (6130) 
78

>  <ID>  (6130) 
JP002103

>  <CONTRIBUTOR>  (6130) 
University of Tokyo Team, {Faculty of Engineering, University of Tokyo

>  <COMMENT>  (6130) 
SMILES=c(c1)cccc1
InChI=InChI=1S/C6H6/c1-2-4-6-5-3-1/h1-6H
computed SMILES=C=1C=CC=CC1
accession=JP002103
date=2016.01.19 (Created 2008.10.21, modified 2011.05.06)
author=TAJIMA S, GUNMA COLLEGE OF TECHNOLOGY
license=CC BY-NC-SA
exact mass=78.04695
ionization energy=70 eV
ion type=[M]+*
computed spectral entropy=1.914277587390715
computed normalized entropy=0.6756559972466133
SPLASH=splash10-004i-9000000000-70967112fec69784847c
submitter=submitter = University of Tokyo Team (Faculty of Engineering, University of Tokyo)
MoNA Rating=3.75

>  <NUM PEAKS>  (6130) 
17

>  <MASS SPECTRAL PEAKS>  (6130) 
26 1.14
27 1.49
37 2.13
38 3.41
39 10.94
49 1.56
50 11.51
51 14.77
52 18.82
63 2.13
73 1.49
74 4.26
75 1.63
76 4.62
77 21.16
78 99.99
79 6.46

$$$$

     RDKit          2D

  5  4  0  0  0  0  0  0  0  0999 V2000
    0.0000    1.5000    0.0000 C   0  0  0  0  0  0  0  0  0  0  0  0
   -1.2990    2.2500    0.0000 C   0  0  0  0  0  0  0  0  0  0  0  0
   -0.0000   -0.0000    0.0000 Cl  0  0  0  0  0  0  0  0  0  0  0  0
   -1.2990    3.7500    0.0000 Cl  0  0  0  0  0  0  0  0  0  0  0  0
   -2.5981    1.5000    0.0000 Cl  0  0  0  0  0  0  0  0  0  0  0  0
  2  1  2  0
  3  1  1  0
  4  2  1  0
  5  2  1  0
M  END
>  <NAME>  (6131) 
TRICHLOROETHYLENE

>  <SYNONYMS>  (6131) 


>  <SPECTRUM TYPE>  (6131) 
MS1

>  <INSTRUMENT TYPE>  (6131) 
EI-B

>  <INSTRUMENT>  (6131) 
HITACHI RMU-7M

>  <ION MODE>  (6131) 
P

>  <INCHIKEY>  (6131) 
XSTXAVWGXDQKEL-UHFFFAOYSA-N

>  <FORMULA>  (6131) 
C2HCl3

>  <EXACT MASS>  (6131) 
129.914383072

>  <MW>  (6131) 
130

>  <ID>  (6131) 
JP002102

>  <CONTRIBUTOR>  (6131) 
University of Tokyo Team, {Faculty of Engineering, University of Tokyo

>  <COMMENT>  (6131) 
SMILES=ClC=C(Cl)Cl
InChI=InChI=1S/C2HCl3/c3-1-2(4)5/h1H
computed SMILES=ClC=C(Cl)Cl
accession=JP002102
date=2016.01.19 (Created 2008.10.21, modified 2011.05.06)
author=TAJIMA S, GUNMA COLLEGE OF TECHNOLOGY
license=CC BY-NC-SA
exact mass=129.91438
ionization energy=70 eV
ion type=[M]+*
computed spectral entropy=2.414654101742542
computed normalized entropy=0.717089980701886
SPLASH=splash10-001j-9600000000-35bd416ad747042a0c53
submitter=submitter = University of Tokyo Team (Faculty of Engineering, University of Tokyo)
MoNA Rating=3.75

>  <NUM PEAKS>  (6131) 
29

>  <MASS SPECTRAL PEAKS>  (6131) 
24 1.71
25 8.75
35 5.14
36 1.52
37 1.84
47 8.24
48 2.47
49 2.92
59 5.64
60 37.16
61 2.92
62 11.94
65 1.52
66 1.46
82 1.4
83 1.2
84 1.14
94 7.99
95 99.99
96 7.48
97 64.36
98 2.28
99 10.15
130 87.44
131 2.41
132 83.7
133 1.9
134 26.63
136 3.04

$$$$

     RDKit          2D

  7  7  0  0  0  0  0  0  0  0999 V2000
    0.0000    2.5700    0.0000 C   0  0  0  0  0  0  0  0  0  0  0  0
    1.3000    1.8200    0.0000 C   0  0  0  0  0  0  0  0  0  0  0  0
   -1.3000    1.8200    0.0000 C   0  0  0  0  0  0  0  0  0  0  0  0
    1.3000    0.3200    0.0000 C   0  0  0  0  0  0  0  0  0  0  0  0
   -1.3000    0.3200    0.0000 C   0  0  0  0  0  0  0  0  0  0  0  0
   -0.0000   -0.4300    0.0000 C   0  0  0  0  0  0  0  0  0  0  0  0
   -0.0000   -1.9300    0.0000 N   0  0  0  0  0  0  0  0  0  0  0  0
  2  1  2  0
  3  1  1  0
  4  2  1  0
  5  3  2  0
  6  4  2  0
  6  5  1  0
  7  6  1  0
M  END
>  <NAME>  (6132) 
ANILINE

>  <SYNONYMS>  (6132) 
AMINOBENZENE

>  <SPECTRUM TYPE>  (6132) 
MS1

>  <INSTRUMENT TYPE>  (6132) 
EI-B

>  <INSTRUMENT>  (6132) 
HITACHI RMU-7M

>  <ION MODE>  (6132) 
P

>  <INCHIKEY>  (6132) 
PAYRUJLWNCNPSJ-UHFFFAOYSA-N

>  <FORMULA>  (6132) 
C6H7N

>  <EXACT MASS>  (6132) 
93.057849224

>  <MW>  (6132) 
93

>  <ID>  (6132) 
JP002101

>  <CONTRIBUTOR>  (6132) 
University of Tokyo Team, {Faculty of Engineering, University of Tokyo

>  <COMMENT>  (6132) 
SMILES=Nc(c1)cccc1
InChI=InChI=1S/C6H7N/c7-6-4-2-1-3-5-6/h1-5H,7H2
computed SMILES=NC=1C=CC=CC1
accession=JP002101
date=2016.01.19 (Created 2008.10.21, modified 2011.05.06)
author=TAJIMA S, GUNMA COLLEGE OF TECHNOLOGY
license=CC BY-NC-SA
exact mass=93.05785
ionization energy=70 eV
ion type=[M]+*
computed spectral entropy=2.176810094801334
computed normalized entropy=0.6849506682405717
SPLASH=splash10-00kf-9000000000-9a543eee5081cc927e82
submitter=submitter = University of Tokyo Team (Faculty of Engineering, University of Tokyo)
MoNA Rating=3.75

>  <NUM PEAKS>  (6132) 
24

>  <MASS SPECTRAL PEAKS>  (6132) 
27 1.51
37 1.8
38 3.6
39 10.66
40 4.32
41 3.96
45.5 1.51
46.5 4.68
50 2.74
51 3.24
52 3.46
53 1.44
54 3.46
62 2.09
63 3.67
64 2.59
65 18.01
66 42.44
67 4.32
77 1.37
78 1.51
92 11.53
93 99.99
94 6.7

$$$$

     RDKit          2D

  4  3  0  0  0  0  0  0  0  0999 V2000
    0.9743    0.5625    0.0000 C   0  0  0  0  0  0  0  0  0  0  0  0
   -1.6238    0.5625    0.0000 C   0  0  0  0  0  0  0  0  0  0  0  0
   -0.3248    2.8125    0.0000 O   0  0  0  0  0  0  0  0  0  0  0  0
   -0.3248    1.3125    0.0000 S   0  0  0  0  0  0  0  0  0  0  0  0
  4  1  1  0
  4  2  1  0
  4  3  2  0
M  END
>  <NAME>  (6133) 
DIMETHYL SULFOXIDE

>  <SYNONYMS>  (6133) 


>  <SPECTRUM TYPE>  (6133) 
MS1

>  <INSTRUMENT TYPE>  (6133) 
EI-B

>  <INSTRUMENT>  (6133) 
HITACHI RMU-7M

>  <ION MODE>  (6133) 
P

>  <INCHIKEY>  (6133) 
IAZDPXIOMUYVGZ-UHFFFAOYSA-N

>  <FORMULA>  (6133) 
C2H6OS

>  <EXACT MASS>  (6133) 
78.013935812

>  <MW>  (6133) 
78

>  <ID>  (6133) 
JP002100

>  <CONTRIBUTOR>  (6133) 
University of Tokyo Team, {Faculty of Engineering, University of Tokyo

>  <COMMENT>  (6133) 
SMILES=CS(C)=O
InChI=InChI=1S/C2H6OS/c1-4(2)3/h1-2H3
computed SMILES=O=S(C)C
accession=JP002100
date=2016.01.19 (Created 2008.10.21, modified 2011.05.06)
author=TAJIMA S, GUNMA COLLEGE OF TECHNOLOGY
license=CC BY-NC-SA
exact mass=78.01394
ionization energy=70 eV
ion type=[M]+*
computed spectral entropy=2.2892897384555257
computed normalized entropy=0.7406206071250454
SPLASH=splash10-03fr-9000000000-f0f118841efd8b3297a3
submitter=submitter = University of Tokyo Team (Faculty of Engineering, University of Tokyo)
MoNA Rating=3.75

>  <NUM PEAKS>  (6133) 
22

>  <MASS SPECTRAL PEAKS>  (6133) 
14 1.49
15 11.55
27 4.89
28 11.98
29 5.24
31 7.09
32 3.4
33 2.48
34 4.04
35 6.38
45 16.94
46 8.36
47 8.43
48 5.1
61 16.94
62 6.45
63 99.99
64 2.41
65 4.32
78 76.54
79 4.11
80 3.47

$$$$

     RDKit          2D

 10  9  0  0  0  0  0  0  0  0999 V2000
    0.3248    3.9375    0.0000 C   0  0  0  0  0  0  0  0  0  0  0  0
   -6.1704    0.1875    0.0000 C   0  0  0  0  0  0  0  0  0  0  0  0
   -3.5724    4.6875    0.0000 C   0  0  0  0  0  0  0  0  0  0  0  0
   -4.8714    3.9375    0.0000 C   0  0  0  0  0  0  0  0  0  0  0  0
   -2.2733    3.9375    0.0000 C   0  0  0  0  0  0  0  0  0  0  0  0
   -4.8714    2.4375    0.0000 C   0  0  0  0  0  0  0  0  0  0  0  0
   -2.2733    2.4375    0.0000 O   0  0  0  0  0  0  0  0  0  0  0  0
   -3.5724    1.6875    0.0000 O   0  0  0  0  0  0  0  0  0  0  0  0
   -0.9743    4.6875    0.0000 O   0  0  0  0  0  0  0  0  0  0  0  0
   -6.1704    1.6875    0.0000 O   0  0  0  0  0  0  0  0  0  0  0  0
  3  4  2  0
  5  3  1  0
  6  4  1  0
  7  5  2  0
  8  6  2  0
  9  1  1  0
  9  5  1  0
 10  2  1  0
 10  6  1  0
M  END
>  <NAME>  (6134) 
MALEIC ACID DIMETHYL ESTER

>  <SYNONYMS>  (6134) 


>  <SPECTRUM TYPE>  (6134) 
MS1

>  <INSTRUMENT TYPE>  (6134) 
EI-B

>  <INSTRUMENT>  (6134) 
HITACHI RMU-7M

>  <ION MODE>  (6134) 
P

>  <INCHIKEY>  (6134) 
LDCRTTXIJACKKU-ARJAWSKDSA-N

>  <FORMULA>  (6134) 
C6H8O4

>  <EXACT MASS>  (6134) 
144.042258736

>  <MW>  (6134) 
144

>  <ID>  (6134) 
JP002099

>  <CONTRIBUTOR>  (6134) 
University of Tokyo Team, {Faculty of Engineering, University of Tokyo

>  <COMMENT>  (6134) 
SMILES=COC(=O)C=CC(=O)OC
InChI=InChI=1S/C6H8O4/c1-9-5(7)3-4-6(8)10-2/h3-4H,1-2H3/b4-3-
computed SMILES=O=C(OC)C=CC(=O)OC
accession=JP002099
date=2016.01.19 (Created 2008.10.21, modified 2011.05.06)
author=TAJIMA S, GUNMA COLLEGE OF TECHNOLOGY
license=CC BY-NC-SA
exact mass=144.04226
ionization energy=70 eV
ion type=[M]+*
computed spectral entropy=1.8245828535643518
computed normalized entropy=0.658079158632081
SPLASH=splash10-03di-7900000000-6c17ce0137a98251d821
submitter=submitter = University of Tokyo Team (Faculty of Engineering, University of Tokyo)
MoNA Rating=3.75

>  <NUM PEAKS>  (6134) 
16

>  <MASS SPECTRAL PEAKS>  (6134) 
15 20.35
26 6.88
27 2.09
28 4.79
29 3.05
31 1.14
39 1.62
41 1.26
53 3.89
54 5.98
55 2.75
59 24.24
82 2.39
85 9.69
113 99.99
114 7.42

$$$$

     RDKit          2D

  4  3  0  0  0  0  0  0  0  0999 V2000
   -1.2990    1.5000    0.0000 C   0  0  0  0  0  0  0  0  0  0  0  0
    0.0000    2.2500    0.0000 C   0  0  0  0  0  0  0  0  0  0  0  0
   -2.5981    2.2500    0.0000 Cl  0  0  0  0  0  0  0  0  0  0  0  0
    1.2990    1.5000    0.0000 Cl  0  0  0  0  0  0  0  0  0  0  0  0
  2  1  1  0
  3  1  1  0
  4  2  1  0
M  END
>  <NAME>  (6135) 
1,2-DICHLOROETHANE

>  <SYNONYMS>  (6135) 


>  <SPECTRUM TYPE>  (6135) 
MS1

>  <INSTRUMENT TYPE>  (6135) 
EI-B

>  <INSTRUMENT>  (6135) 
HITACHI RMU-7M

>  <ION MODE>  (6135) 
P

>  <INCHIKEY>  (6135) 
WSLDOOZREJYCGB-UHFFFAOYSA-N

>  <FORMULA>  (6135) 
C2H4Cl2

>  <EXACT MASS>  (6135) 
97.969005488

>  <MW>  (6135) 
98

>  <ID>  (6135) 
JP002098

>  <CONTRIBUTOR>  (6135) 
University of Tokyo Team, {Faculty of Engineering, University of Tokyo

>  <COMMENT>  (6135) 
SMILES=ClCCCl
InChI=InChI=1S/C2H4Cl2/c3-1-2-4/h1-2H2
computed SMILES=ClCCCl
accession=JP002098
date=2016.01.19 (Created 2008.10.21, modified 2011.05.06)
author=TAJIMA S, GUNMA COLLEGE OF TECHNOLOGY
license=CC BY-NC-SA
exact mass=97.96901
ionization energy=70 eV
ion type=[M]+*
computed spectral entropy=2.2041712310285657
computed normalized entropy=0.735770432654065
SPLASH=splash10-03fr-9000000000-19f59c151d600b711587
submitter=submitter = University of Tokyo Team (Faculty of Engineering, University of Tokyo)
MoNA Rating=3.75

>  <NUM PEAKS>  (6135) 
20

>  <MASS SPECTRAL PEAKS>  (6135) 
25 3.01
26 14.19
27 77.23
28 1.47
35 1.85
36 1.74
47 1.74
48 2.32
49 41.31
50 1.22
51 12.86
60 3.13
61 12.75
62 99.99
63 22.6
64 32.5
65 6.08
98 10.08
100 6.37
102 1.1

$$$$

     RDKit          2D

 10  9  0  0  0  0  0  0  0  0999 V2000
   -6.4952    4.5000    0.0000 C   0  0  0  0  0  0  0  0  0  0  0  0
    2.5981    3.7500    0.0000 C   0  0  0  0  0  0  0  0  0  0  0  0
   -2.5981    3.7500    0.0000 C   0  0  0  0  0  0  0  0  0  0  0  0
   -1.2990    4.5000    0.0000 C   0  0  0  0  0  0  0  0  0  0  0  0
   -3.8971    4.5000    0.0000 C   0  0  0  0  0  0  0  0  0  0  0  0
    0.0000    3.7500    0.0000 C   0  0  0  0  0  0  0  0  0  0  0  0
   -3.8971    6.0000    0.0000 O   0  0  0  0  0  0  0  0  0  0  0  0
   -0.0000    2.2500    0.0000 O   0  0  0  0  0  0  0  0  0  0  0  0
   -5.1962    3.7500    0.0000 O   0  0  0  0  0  0  0  0  0  0  0  0
    1.2990    4.5000    0.0000 O   0  0  0  0  0  0  0  0  0  0  0  0
  3  4  2  0
  5  3  1  0
  6  4  1  0
  7  5  2  0
  8  6  2  0
  9  1  1  0
  9  5  1  0
 10  2  1  0
 10  6  1  0
M  END
>  <NAME>  (6136) 
FUMARIC ACID DIMETHYL ESTER

>  <SYNONYMS>  (6136) 
TRANS-BUTENEDIOIC ACID DIMETHYL ESTER

>  <SPECTRUM TYPE>  (6136) 
MS1

>  <INSTRUMENT TYPE>  (6136) 
EI-B

>  <INSTRUMENT>  (6136) 
HITACHI RMU-7M

>  <ION MODE>  (6136) 
P

>  <INCHIKEY>  (6136) 
LDCRTTXIJACKKU-ONEGZZNKSA-N

>  <FORMULA>  (6136) 
C6H8O4

>  <EXACT MASS>  (6136) 
144.042258736

>  <MW>  (6136) 
144

>  <ID>  (6136) 
JP002097

>  <CONTRIBUTOR>  (6136) 
University of Tokyo Team, {Faculty of Engineering, University of Tokyo

>  <COMMENT>  (6136) 
SMILES=COC(=O)C=CC(=O)OC
InChI=InChI=1S/C6H8O4/c1-9-5(7)3-4-6(8)10-2/h3-4H,1-2H3/b4-3+
computed SMILES=O=C(OC)C=CC(=O)OC
accession=JP002097
date=2016.01.19 (Created 2008.10.21, modified 2011.05.06)
author=TAJIMA S, GUNMA COLLEGE OF TECHNOLOGY
license=CC BY-NC-SA
exact mass=144.04226
ionization energy=70 eV
ion type=[M]+*
computed spectral entropy=2.306750111529512
computed normalized entropy=0.725837331483136
SPLASH=splash10-03di-9600000000-85c5795d39a711edce4a
submitter=submitter = University of Tokyo Team (Faculty of Engineering, University of Tokyo)
MoNA Rating=3.75

>  <NUM PEAKS>  (6136) 
24

>  <MASS SPECTRAL PEAKS>  (6136) 
15 23.21
26 10.89
27 3.22
29 4.66
30 1.43
31 2.15
39 4.3
41 3.51
42 1.43
44 1.43
53 13.9
54 9.67
55 3.01
59 28.72
81 3.8
82 5.16
85 45.77
86 2.58
99 1.79
100 1.93
113 99.99
114 17.19
115 1.58
144 1

$$$$

     RDKit          2D

 13 13  0  0  0  0  0  0  0  0999 V2000
    2.3089   -1.6702    0.0000 C   0  0  0  0  0  0  0  0  0  0  0  0
   -0.2900   -1.6700    0.0000 C   0  0  0  0  0  0  0  0  0  0  0  0
   -1.5900   -0.9200    0.0000 C   0  0  0  0  0  0  0  0  0  0  0  0
   -0.2900    1.3300    0.0000 C   0  0  0  0  0  0  0  0  0  0  0  0
   -4.1881    0.5804    0.0000 C   0  0  0  0  0  0  0  0  0  0  0  0
    3.6081    0.5804    0.0000 C   0  0  0  0  0  0  0  0  0  0  0  0
    1.0100   -0.9200    0.0000 C   0  0  0  0  0  0  0  0  0  0  0  0
   -1.5900    0.5800    0.0000 C   0  0  0  0  0  0  0  0  0  0  0  0
    1.0100    0.5800    0.0000 C   0  0  0  0  0  0  0  0  0  0  0  0
   -2.8889    1.3302    0.0000 N   0  0  0  0  0  0  0  0  0  0  0  0
    2.3089    1.3302    0.0000 N   0  0  0  0  0  0  0  0  0  0  0  0
   -5.4872   -0.1694    0.0000 O   0  0  0  0  0  0  0  0  0  0  0  0
    4.9072   -0.1694    0.0000 O   0  0  0  0  0  0  0  0  0  0  0  0
  3  2  2  0
  7  1  1  0
  7  2  1  0
  8  3  1  0
  8  4  2  0
  9  4  1  0
  9  7  2  0
 10  5  2  0
 10  8  1  0
 11  6  2  0
 11  9  1  0
 12  5  2  0
 13  6  2  0
M  END
>  <NAME>  (6137) 
TOLUENE-2,4-DIISOCYANATE

>  <SYNONYMS>  (6137) 


>  <SPECTRUM TYPE>  (6137) 
MS1

>  <INSTRUMENT TYPE>  (6137) 
EI-B

>  <INSTRUMENT>  (6137) 
HITACHI RMU-7M

>  <ION MODE>  (6137) 
P

>  <INCHIKEY>  (6137) 
DVKJHBMWWAPEIU-UHFFFAOYSA-N

>  <FORMULA>  (6137) 
C9H6N2O2

>  <EXACT MASS>  (6137) 
174.042927432

>  <MW>  (6137) 
174

>  <ID>  (6137) 
JP002096

>  <CONTRIBUTOR>  (6137) 
University of Tokyo Team, {Faculty of Engineering, University of Tokyo

>  <COMMENT>  (6137) 
SMILES=O=C=Nc(c1)cc(N=C=O)c(C)c1
InChI=InChI=1S/C9H6N2O2/c1-7-2-3-8(10-5-12)4-9(7)11-6-13/h2-4H,1H3
computed SMILES=O=C=NC1=CC=C(C(N=C=O)=C1)C
accession=JP002096
date=2016.01.19 (Created 2008.10.21, modified 2011.05.06)
author=TAJIMA S, GUNMA COLLEGE OF TECHNOLOGY
license=CC BY-NC-SA
exact mass=174.04293
ionization energy=70 eV
ion type=[M]+*
computed spectral entropy=2.9101900856795235
computed normalized entropy=0.7644991100472146
SPLASH=splash10-00dj-3900000000-347a0157566e6fd204bf
submitter=submitter = University of Tokyo Team (Faculty of Engineering, University of Tokyo)
MoNA Rating=3.75

>  <NUM PEAKS>  (6137) 
45

>  <MASS SPECTRAL PEAKS>  (6137) 
26 1.29
27 3.65
37 1.53
38 3.24
39 5.12
40 1.77
41 1.65
44 8.42
45.5 1.18
50 4.71
51 7
52 4.65
53 1.47
58.5 1.06
59 3.83
62 1.47
63 4.24
64 5.18
65 2.53
66 1.24
72.5 1
73 1.35
75 2.06
76 5.59
77 5.47
78 2.12
87 3.24
90 4.71
91 9.65
102 2.35
103 3
104 1.77
106 1.18
117 3.65
118 7.3
119 6.47
120 1.82
132 13.48
133 1.18
145 37.79
146 29.02
147 3
173 26.43
174 99.99
175 10.36

$$$$

     RDKit          2D

 10 10  0  0  0  0  0  0  0  0999 V2000
    3.5681    3.1900    0.0000 C   0  0  0  0  0  0  0  0  0  0  0  0
    2.2781    3.9400    0.0000 C   0  0  0  0  0  0  0  0  0  0  0  0
    3.5681    1.6900    0.0000 C   0  0  0  0  0  0  0  0  0  0  0  0
    0.9781    3.1900    0.0000 C   0  0  0  0  0  0  0  0  0  0  0  0
    2.2806   -0.5600    0.0000 C   0  0  0  0  0  0  0  0  0  0  0  0
   -0.3208    0.9398    0.0000 C   0  0  0  0  0  0  0  0  0  0  0  0
    2.2781    0.9400    0.0000 C   0  0  0  0  0  0  0  0  0  0  0  0
    0.9781    1.6900    0.0000 C   0  0  0  0  0  0  0  0  0  0  0  0
    2.2831   -2.0600    0.0000 N   0  0  0  0  0  0  0  0  0  0  0  0
   -1.6200    1.6896    0.0000 O   0  0  0  0  0  0  0  0  0  0  0  0
  2  1  2  0
  3  1  1  0
  4  2  1  0
  7  3  2  0
  7  5  1  0
  8  4  2  0
  8  6  1  0
  8  7  1  0
  9  5  3  0
 10  6  2  0
M  END
>  <NAME>  (6138) 
ORTHO-CYANOBENZALDEHYDE

>  <SYNONYMS>  (6138) 


>  <SPECTRUM TYPE>  (6138) 
MS1

>  <INSTRUMENT TYPE>  (6138) 
EI-B

>  <INSTRUMENT>  (6138) 
HITACHI RMU-7M

>  <ION MODE>  (6138) 
P

>  <INCHIKEY>  (6138) 
QVTPWONEVZJCCS-UHFFFAOYSA-N

>  <FORMULA>  (6138) 
C8H5NO

>  <EXACT MASS>  (6138) 
131.03711378

>  <MW>  (6138) 
131

>  <ID>  (6138) 
JP002095

>  <CONTRIBUTOR>  (6138) 
University of Tokyo Team, {Faculty of Engineering, University of Tokyo

>  <COMMENT>  (6138) 
SMILES=N#Cc(c1)c(C=O)ccc1
InChI=InChI=1S/C8H5NO/c9-5-7-3-1-2-4-8(7)6-10/h1-4,6H
computed SMILES=N#CC=1C=CC=CC1C=O
accession=JP002095
date=2016.01.19 (Created 2008.10.21, modified 2011.05.06)
author=TAJIMA S, GUNMA COLLEGE OF TECHNOLOGY
license=CC BY-NC-SA
exact mass=131.03711
ionization energy=70 eV
ion type=[M]+*
computed spectral entropy=2.359318180348845
computed normalized entropy=0.7329634035961762
SPLASH=splash10-0udi-5900000000-409f18589016609c8a58
submitter=submitter = University of Tokyo Team (Faculty of Engineering, University of Tokyo)
MoNA Rating=3.75

>  <NUM PEAKS>  (6138) 
25

>  <MASS SPECTRAL PEAKS>  (6138) 
27 2.41
29 2.97
37 2.62
38 2.41
39 3.38
49 1.93
50 14.9
51 8.9
51.5 1.52
52 3.31
61 1.38
62 1.38
63 1.59
73 1.38
74 4.83
75 15.03
76 38.14
77 3.86
102 31.03
103 99.99
104 24.41
105 1.52
130 23.1
131 8.14
132 1.38

$$$$

     RDKit          2D

 10 10  0  0  0  0  0  0  0  0999 V2000
   -1.6200   -1.3100    0.0000 C   0  0  0  0  0  0  0  0  0  0  0  0
   -0.3300   -2.0600    0.0000 C   0  0  0  0  0  0  0  0  0  0  0  0
   -1.6200    0.1900    0.0000 C   0  0  0  0  0  0  0  0  0  0  0  0
    0.9700   -1.3100    0.0000 C   0  0  0  0  0  0  0  0  0  0  0  0
   -0.3325    2.4400    0.0000 C   0  0  0  0  0  0  0  0  0  0  0  0
    2.2689    0.9402    0.0000 C   0  0  0  0  0  0  0  0  0  0  0  0
   -0.3300    0.9400    0.0000 C   0  0  0  0  0  0  0  0  0  0  0  0
    0.9700    0.1900    0.0000 C   0  0  0  0  0  0  0  0  0  0  0  0
   -1.6328    3.1878    0.0000 O   0  0  0  0  0  0  0  0  0  0  0  0
    3.5681    0.1904    0.0000 O   0  0  0  0  0  0  0  0  0  0  0  0
  2  1  2  0
  3  1  1  0
  4  2  1  0
  7  3  2  0
  7  5  1  0
  8  4  2  0
  8  6  1  0
  8  7  1  0
  9  5  2  0
 10  6  2  0
M  END
>  <NAME>  (6139) 
ORTHO-PHTHALALDEHYDE

>  <SYNONYMS>  (6139) 
1,2-BENZENEDICARBALDEHYDE

>  <SPECTRUM TYPE>  (6139) 
MS1

>  <INSTRUMENT TYPE>  (6139) 
EI-B

>  <INSTRUMENT>  (6139) 
HITACHI RMU-7M

>  <ION MODE>  (6139) 
P

>  <INCHIKEY>  (6139) 
ZWLUXSQADUDCSB-UHFFFAOYSA-N

>  <FORMULA>  (6139) 
C8H6O2

>  <EXACT MASS>  (6139) 
134.036779432

>  <MW>  (6139) 
134

>  <ID>  (6139) 
JP002094

>  <CONTRIBUTOR>  (6139) 
University of Tokyo Team, {Faculty of Engineering, University of Tokyo

>  <COMMENT>  (6139) 
SMILES=O=Cc(c1)c(C=O)ccc1
InChI=InChI=1S/C8H6O2/c9-5-7-3-1-2-4-8(7)6-10/h1-6H
computed SMILES=O=CC=1C=CC=CC1C=O
accession=JP002094
date=2016.01.19 (Created 2008.10.21, modified 2011.05.06)
author=TAJIMA S, GUNMA COLLEGE OF TECHNOLOGY
license=CC BY-NC-SA
exact mass=134.03678
ionization energy=70 eV
ion type=[M]+*
computed spectral entropy=2.6354417382366897
computed normalized entropy=0.7996274832108842
SPLASH=splash10-0pdi-9500000000-95efe464dfb075a64362
submitter=submitter = University of Tokyo Team (Faculty of Engineering, University of Tokyo)
MoNA Rating=3.75

>  <NUM PEAKS>  (6139) 
27

>  <MASS SPECTRAL PEAKS>  (6139) 
26 1.81
27 5.93
29 10.42
37 5.12
38 5.93
39 9.99
49 3.87
50 29.96
51 49.44
52 11.3
53 4.68
61 3.12
62 3.87
63 4.49
73 2.5
74 11.3
75 6.24
76 10.11
77 84.52
78 17.67
104 3.25
105 99.99
106 30.15
120 4.99
133 7.62
134 35.58
135 3.12

$$$$

     RDKit          2D

  7  6  0  0  0  0  0  0  0  0999 V2000
    1.4498    2.6115    0.0000 C   0  0  0  0  0  0  0  0  0  0  0  0
   -0.0502    0.0135    0.0000 C   0  0  0  0  0  0  0  0  0  0  0  0
   -0.5993    2.0625    0.0000 C   0  0  0  0  0  0  0  0  0  0  0  0
    0.6998    1.3125    0.0000 C   0  0  0  0  0  0  0  0  0  0  0  0
   -0.5993    3.5625    0.0000 O   0  0  0  0  0  0  0  0  0  0  0  0
   -1.8983    1.3125    0.0000 O   0  0  0  0  0  0  0  0  0  0  0  0
    1.9988    0.5625    0.0000 O   0  0  0  0  0  0  0  0  0  0  0  0
  4  1  1  0
  4  2  1  0
  4  3  1  0
  5  3  2  0
  6  3  1  0
  7  4  1  0
M  END
>  <NAME>  (6140) 
2-METHYLLACTIC ACID

>  <SYNONYMS>  (6140) 
ALPHA-HYDROXY ISOBUTYRIC ACID

>  <SPECTRUM TYPE>  (6140) 
MS1

>  <INSTRUMENT TYPE>  (6140) 
EI-B

>  <INSTRUMENT>  (6140) 
HITACHI RMU-7M

>  <ION MODE>  (6140) 
P

>  <INCHIKEY>  (6140) 
BWLBGMIXKSTLSX-UHFFFAOYSA-N

>  <FORMULA>  (6140) 
C4H8O3

>  <EXACT MASS>  (6140) 
104.04734411599999

>  <MW>  (6140) 
104

>  <ID>  (6140) 
JP002093

>  <CONTRIBUTOR>  (6140) 
University of Tokyo Team, {Faculty of Engineering, University of Tokyo

>  <COMMENT>  (6140) 
SMILES=OC(=O)C(C)(C)O
InChI=InChI=1S/C4H8O3/c1-4(2,7)3(5)6/h7H,1-2H3,(H,5,6)
computed SMILES=O=C(O)C(O)(C)C
accession=JP002093
date=2016.01.19 (Created 2008.10.21, modified 2011.05.06)
author=TAJIMA S, GUNMA COLLEGE OF TECHNOLOGY
license=CC BY-NC-SA
exact mass=104.04734
ionization energy=70 eV
ion type=[M]+*
computed spectral entropy=2.130236149071161
computed normalized entropy=0.7110902959776018
SPLASH=splash10-0a4l-9000000000-bb87a50521380a4f04c0
submitter=submitter = University of Tokyo Team (Faculty of Engineering, University of Tokyo)
MoNA Rating=3.75

>  <NUM PEAKS>  (6140) 
20

>  <MASS SPECTRAL PEAKS>  (6140) 
14 2.06
15 10.66
26 1.62
27 5.88
28 3.58
29 7.5
31 47.72
38 1.62
39 8.82
40 1.76
41 25.15
42 5.88
43 48.75
44 3.9
45 5.74
47 2.65
58 1.69
59 99.99
60 3.9
89 1.84

$$$$

     RDKit          2D

  8  8  0  0  0  0  0  0  0  0999 V2000
    1.9446    2.2539    0.0000 C   0  0  0  0  0  0  0  0  0  0  0  0
   -1.9467    1.4939    0.0000 C   0  0  0  0  0  0  0  0  0  0  0  0
   -0.6477    2.2439    0.0000 C   0  0  0  0  0  0  0  0  0  0  0  0
   -1.9512    0.0017    0.0000 C   0  0  0  0  0  0  0  0  0  0  0  0
    0.6473    0.0009    0.0000 C   0  0  0  0  0  0  0  0  0  0  0  0
    0.6468    1.5017    0.0000 C   0  0  0  0  0  0  0  0  0  0  0  0
   -0.6517   -0.7491    0.0000 C   0  0  0  0  0  0  0  0  0  0  0  0
   -0.6520   -2.2491    0.0000 N   0  0  0  0  0  0  0  0  0  0  0  0
  3  2  2  0
  4  2  1  0
  6  1  1  0
  6  3  1  0
  6  5  2  0
  7  4  2  0
  7  5  1  0
  8  7  1  0
M  END
>  <NAME>  (6141) 
META-TOLUIDINE

>  <SYNONYMS>  (6141) 


>  <SPECTRUM TYPE>  (6141) 
MS1

>  <INSTRUMENT TYPE>  (6141) 
EI-B

>  <INSTRUMENT>  (6141) 
HITACHI RMU-7M

>  <ION MODE>  (6141) 
P

>  <INCHIKEY>  (6141) 
JJYPMNFTHPTTDI-UHFFFAOYSA-N

>  <FORMULA>  (6141) 
C7H9N

>  <EXACT MASS>  (6141) 
107.073499288

>  <MW>  (6141) 
107

>  <ID>  (6141) 
JP002092

>  <CONTRIBUTOR>  (6141) 
University of Tokyo Team, {Faculty of Engineering, University of Tokyo

>  <COMMENT>  (6141) 
SMILES=Cc(c1)cc(N)cc1
InChI=InChI=1S/C7H9N/c1-6-3-2-4-7(8)5-6/h2-5H,8H2,1H3
computed SMILES=NC1=CC=CC(=C1)C
accession=JP002092
date=2016.01.19 (Created 2008.10.21, modified 2011.05.06)
author=TAJIMA S, GUNMA COLLEGE OF TECHNOLOGY
license=CC BY-NC-SA
exact mass=107.0735
ionization energy=70 eV
ion type=[M]+*
computed spectral entropy=2.2567315387257176
computed normalized entropy=0.6635109008648182
SPLASH=splash10-0a4i-4900000000-a860382b14b555e54dba
submitter=submitter = University of Tokyo Team (Faculty of Engineering, University of Tokyo)
MoNA Rating=3.75

>  <NUM PEAKS>  (6141) 
30

>  <MASS SPECTRAL PEAKS>  (6141) 
27 3.06
30 1.48
38 2.14
39 7.81
40 1.53
41 3.01
42 1.89
50 2.35
51 5.2
52 4.85
52.5 2.19
53 6.12
53.5 3.78
54 1.79
62 1.07
63 2.7
64 1.28
65 4.08
66 1.79
77 16.73
78 5.15
79 18.37
80 4.64
89 3.16
90 2.7
91 3.32
104 2.6
106 99.99
107 95.61
108 7.6

$$$$

     RDKit          2D

 12 12  0  0  0  0  0  0  0  0999 V2000
    3.3491   -0.1287    0.0000 C   0  0  0  0  0  0  0  0  0  0  0  0
    3.8978    1.9204    0.0000 C   0  0  0  0  0  0  0  0  0  0  0  0
    1.8487    2.4691    0.0000 C   0  0  0  0  0  0  0  0  0  0  0  0
    1.3000   -1.0800    0.0000 C   0  0  0  0  0  0  0  0  0  0  0  0
    1.3000    0.4200    0.0000 C   0  0  0  0  0  0  0  0  0  0  0  0
    0.0000    1.1700    0.0000 C   0  0  0  0  0  0  0  0  0  0  0  0
   -1.3000   -1.0800    0.0000 C   0  0  0  0  0  0  0  0  0  0  0  0
    2.5989    1.1702    0.0000 C   0  0  0  0  0  0  0  0  0  0  0  0
   -0.0000   -1.8300    0.0000 N   0  0  0  0  0  0  0  0  0  0  0  0
   -1.3000    0.4200    0.0000 N   0  0  0  0  0  0  0  0  0  0  0  0
    0.0000    2.6700    0.0000 O   0  0  0  0  0  0  0  0  0  0  0  0
   -2.5989   -1.8302    0.0000 O   0  0  0  0  0  0  0  0  0  0  0  0
  5  4  2  0
  6  5  1  0
  8  1  1  0
  8  2  1  0
  8  3  1  0
  8  5  1  0
  9  4  1  0
  9  7  2  0
 10  6  2  0
 10  7  1  0
 11  6  1  0
 12  7  1  0
M  END
>  <NAME>  (6142) 
5-TERT-BUTYL-1,2,3,4-TETRAHYDROPYRIMIDINE-2,4-DIONE

>  <SYNONYMS>  (6142) 
5-TERT-BUTYLURACIL

>  <SPECTRUM TYPE>  (6142) 
MS1

>  <INSTRUMENT TYPE>  (6142) 
EI-B

>  <INSTRUMENT>  (6142) 
MS-902

>  <ION MODE>  (6142) 
P

>  <INCHIKEY>  (6142) 
FFVVCDOCJNTZKL-UHFFFAOYSA-N

>  <FORMULA>  (6142) 
C8H12N2O2

>  <EXACT MASS>  (6142) 
168.089877624

>  <MW>  (6142) 
168

>  <ID>  (6142) 
JP002049

>  <CONTRIBUTOR>  (6142) 
University of Tokyo Team, {Faculty of Engineering, University of Tokyo

>  <COMMENT>  (6142) 
SMILES=O=C(N1)NC(=O)C(=C1)C(C)(C)C
InChI=InChI=1S/C8H12N2O2/c1-8(2,3)5-4-9-7(12)10-6(5)11/h4H,1-3H3,(H2,9,10,11,12)
computed SMILES=OC1=NC=C(C(O)=N1)C(C)(C)C
accession=JP002049
date=2016.01.19 (Created 2008.10.21, modified 2011.05.06)
author=SASAKI S, TOYOHASHI UNIV. OF TECH.
license=CC BY-NC-SA
exact mass=168.08988
ionization energy=70 eV
ion type=[M]+*
computed spectral entropy=2.6807012891791455
computed normalized entropy=0.7042130202987577
SPLASH=splash10-0w29-5900000000-ddc9b28d37f60974fa83
submitter=submitter = University of Tokyo Team (Faculty of Engineering, University of Tokyo)
MoNA Rating=3.75

>  <NUM PEAKS>  (6142) 
45

>  <MASS SPECTRAL PEAKS>  (6142) 
38 1.4
39 12.1
40 1.6
41 1.23
42 10.4
43 3.2
44 2.9
50 0.11
51 2.4
52 1.3
53 5.5
54 0.15
55 9.3
56 1.4
57 3.6
65 0.29
66 2.5
67 6.3
68 22.1
69 0.43
70 2.6
71 1.3
76 1.6
76.5 0.27
77 1.1
79 1.1
80 5.9
81 0.36
82 15.4
83 3.9
92 12.5
96 0.11
97 1
110 58
111 4.8
125 1.13
126 22.7
127 1.5
149 1.1
151 0.12
153 99.99
154 9.3
167 1.3
168 3.13
169 3.2

$$$$

     RDKit          2D

 12 12  0  0  0  0  0  0  0  0999 V2000
    3.8981    0.7504    0.0000 C   0  0  0  0  0  0  0  0  0  0  0  0
    2.5987    3.0002    0.0000 C   0  0  0  0  0  0  0  0  0  0  0  0
    0.0000   -1.5000    0.0000 C   0  0  0  0  0  0  0  0  0  0  0  0
   -1.3000    0.7500    0.0000 C   0  0  0  0  0  0  0  0  0  0  0  0
   -1.3000   -0.7500    0.0000 C   0  0  0  0  0  0  0  0  0  0  0  0
    1.3000    0.7500    0.0000 C   0  0  0  0  0  0  0  0  0  0  0  0
    1.3000   -0.7500    0.0000 N   0  0  0  0  0  0  0  0  0  0  0  0
    0.0000    1.5000    0.0000 N   0  0  0  0  0  0  0  0  0  0  0  0
    2.5989    1.5002    0.0000 N   0  0  0  0  0  0  0  0  0  0  0  0
   -2.5989   -1.5002    0.0000 N   0  0  0  0  0  0  0  0  0  0  0  0
   -3.8981   -0.7504    0.0000 O   0  0  0  0  0  0  0  0  0  0  0  0
   -2.5987   -3.0002    0.0000 O   0  0  0  0  0  0  0  0  0  0  0  0
  5  3  2  0
  5  4  1  0
  7  3  1  0
  7  6  2  0
  8  4  2  0
  8  6  1  0
  9  1  1  0
  9  2  1  0
  9  6  1  0
 10  5  1  0
 11 10  1  0
 12 10  2  0
M  CHG  2  10   1  11  -1
M  END
>  <NAME>  (6143) 
2-DIMETHYLAMINO-5-NITROPYRIMIDINE

>  <SYNONYMS>  (6143) 


>  <SPECTRUM TYPE>  (6143) 
MS1

>  <INSTRUMENT TYPE>  (6143) 
EI-B

>  <INSTRUMENT>  (6143) 
MS-902

>  <ION MODE>  (6143) 
P

>  <INCHIKEY>  (6143) 
IFFZVNFNYKKNFB-UHFFFAOYSA-N

>  <FORMULA>  (6143) 
C6H8N4O2

>  <EXACT MASS>  (6143) 
168.064725496

>  <MW>  (6143) 
168

>  <ID>  (6143) 
JP002048

>  <CONTRIBUTOR>  (6143) 
University of Tokyo Team, {Faculty of Engineering, University of Tokyo

>  <COMMENT>  (6143) 
SMILES=CN(C)c(n1)ncc(c1)[N+1]([O-1])=O
InChI=InChI=1S/C6H8N4O2/c1-9(2)6-7-3-5(4-8-6)10(11)12/h3-4H,1-2H3
computed SMILES=O=N(=O)C1=CN=C(N=C1)N(C)C
accession=JP002048
date=2016.01.19 (Created 2008.10.21, modified 2011.05.06)
author=SASAKI S, TOYOHASHI UNIV. OF TECH.
license=CC BY-NC-SA
exact mass=168.06473
ionization energy=70 eV
ion type=[M]+*
computed spectral entropy=2.827842122833475
computed normalized entropy=0.7518456970779984
SPLASH=splash10-00kf-6900000000-0cdab6a073c667cd1d89
submitter=submitter = University of Tokyo Team (Faculty of Engineering, University of Tokyo)
MoNA Rating=3.75

>  <NUM PEAKS>  (6143) 
43

>  <MASS SPECTRAL PEAKS>  (6143) 
38 1.1
39 1.5
40 4.3
41 0.48
42 30.3
43 24.8
44 65
45 0.15
50 2.4
52 9
53 8.3
54 0.28
55 4.3
68 2
69 13.5
70 10
71 0.15
72 3.9
77 1.8
79 24
80 1.58
81 2.9
93 8.5
94 2.5
95 0.98
106 1.2
107 45
108 4
109 0.16
110 1.3
121 28.8
122 5.5
123 0.12
125 4.3
135 4.3
139 55
140 0.43
152 1.3
153 37.1
154 2.5
167 1.53
168 99.99
169 9.5

$$$$

     RDKit          2D

 12 13  0  0  0  0  0  0  0  0999 V2000
   -1.3000    3.0000    0.0000 C   0  0  0  0  0  0  0  0  0  0  0  0
   -2.6000   -0.7500    0.0000 C   0  0  0  0  0  0  0  0  0  0  0  0
   -2.6000    0.7500    0.0000 C   0  0  0  0  0  0  0  0  0  0  0  0
   -1.3000   -1.5000    0.0000 C   0  0  0  0  0  0  0  0  0  0  0  0
    2.6000    0.7500    0.0000 C   0  0  0  0  0  0  0  0  0  0  0  0
    2.6000   -0.7500    0.0000 C   0  0  0  0  0  0  0  0  0  0  0  0
   -1.3000    1.5000    0.0000 C   0  0  0  0  0  0  0  0  0  0  0  0
    0.0000   -0.7500    0.0000 C   0  0  0  0  0  0  0  0  0  0  0  0
    1.3000    1.5000    0.0000 C   0  0  0  0  0  0  0  0  0  0  0  0
    1.3000   -1.5000    0.0000 N   0  0  0  0  0  0  0  0  0  0  0  0
    0.0000    0.7500    0.0000 N   0  0  0  0  0  0  0  0  0  0  0  0
    1.3000    3.0000    0.0000 O   0  0  0  0  0  0  0  0  0  0  0  0
  3  2  1  0
  4  2  1  0
  6  5  2  0
  7  1  1  0
  7  3  1  0
  8  4  1  0
  9  5  1  0
 10  6  1  0
 10  8  2  0
 11  7  1  0
 11  8  1  0
 11  9  1  0
 12  9  2  0
M  END
>  <NAME>  (6144) 
6,7,8,9-TETRAHYDRO-6-METHYL-4H-PYRIDO(1,2-A)PYRIMIDIN-4-ONE

>  <SYNONYMS>  (6144) 


>  <SPECTRUM TYPE>  (6144) 
MS1

>  <INSTRUMENT TYPE>  (6144) 
EI-B

>  <INSTRUMENT>  (6144) 
MS-902

>  <ION MODE>  (6144) 
P

>  <INCHIKEY>  (6144) 
HCJOGZBBWGQKGC-UHFFFAOYSA-N

>  <FORMULA>  (6144) 
C9H12N2O

>  <EXACT MASS>  (6144) 
164.094963004

>  <MW>  (6144) 
164

>  <ID>  (6144) 
JP002047

>  <CONTRIBUTOR>  (6144) 
University of Tokyo Team, {Faculty of Engineering, University of Tokyo

>  <COMMENT>  (6144) 
SMILES=CC(C2)N(C(=O)1)C(CC2)=NC=C1
InChI=InChI=1S/C9H12N2O/c1-7-3-2-4-8-10-6-5-9(12)11(7)8/h5-7H,2-4H2,1H3
computed SMILES=O=C1C=CN=C2N1C(C)CCC2
accession=JP002047
date=2016.01.19 (Created 2008.10.21, modified 2011.05.06)
author=SASAKI S, TOYOHASHI UNIV. OF TECH.
license=CC BY-NC-SA
exact mass=164.09496
ionization energy=70 eV
ion type=[M]+*
computed spectral entropy=2.1637527514854265
computed normalized entropy=0.763709784166008
SPLASH=splash10-03di-1900000000-4690e372a58f5ca29a62
submitter=submitter = University of Tokyo Team (Faculty of Engineering, University of Tokyo)
MoNA Rating=3.75

>  <NUM PEAKS>  (6144) 
17

>  <MASS SPECTRAL PEAKS>  (6144) 
51 7
52 6
53 6
66 0.7
67 6
69 15
93 6
94 0.6
110 60
121 6
122 7
123 1.4
135 20
149 52
163 50
164 99.99
165 11

$$$$

     RDKit          2D

 10 10  0  0  0  0  0  0  0  0999 V2000
    3.8981    0.7504    0.0000 C   0  0  0  0  0  0  0  0  0  0  0  0
    2.5987    3.0002    0.0000 C   0  0  0  0  0  0  0  0  0  0  0  0
   -0.0000   -1.5000    0.0000 C   0  0  0  0  0  0  0  0  0  0  0  0
   -1.3000    0.7500    0.0000 C   0  0  0  0  0  0  0  0  0  0  0  0
   -1.3000   -0.7500    0.0000 C   0  0  0  0  0  0  0  0  0  0  0  0
    1.3000    0.7500    0.0000 C   0  0  0  0  0  0  0  0  0  0  0  0
   -2.5989   -1.5002    0.0000 Cl  0  0  0  0  0  0  0  0  0  0  0  0
    1.3000   -0.7500    0.0000 N   0  0  0  0  0  0  0  0  0  0  0  0
    0.0000    1.5000    0.0000 N   0  0  0  0  0  0  0  0  0  0  0  0
    2.5989    1.5002    0.0000 N   0  0  0  0  0  0  0  0  0  0  0  0
  5  3  2  0
  5  4  1  0
  7  5  1  0
  8  3  1  0
  8  6  2  0
  9  4  2  0
  9  6  1  0
 10  1  1  0
 10  2  1  0
 10  6  1  0
M  END
>  <NAME>  (6145) 
5-CHLORO-2-DIMETHYLAMINOPYRIMIDINE

>  <SYNONYMS>  (6145) 


>  <SPECTRUM TYPE>  (6145) 
MS1

>  <INSTRUMENT TYPE>  (6145) 
EI-B

>  <INSTRUMENT>  (6145) 
MS-902

>  <ION MODE>  (6145) 
P

>  <INCHIKEY>  (6145) 
NAMGQSSLAIYNCN-UHFFFAOYSA-N

>  <FORMULA>  (6145) 
C6H8ClN3

>  <EXACT MASS>  (6145) 
157.040674936

>  <MW>  (6145) 
157

>  <ID>  (6145) 
JP002046

>  <CONTRIBUTOR>  (6145) 
University of Tokyo Team, {Faculty of Engineering, University of Tokyo

>  <COMMENT>  (6145) 
SMILES=CN(C)c(n1)ncc(Cl)c1
InChI=InChI=1S/C6H8ClN3/c1-10(2)6-8-3-5(7)4-9-6/h3-4H,1-2H3
computed SMILES=ClC1=CN=C(N=C1)N(C)C
accession=JP002046
date=2016.01.19 (Created 2008.10.21, modified 2011.05.06)
author=SASAKI S, TOYOHASHI UNIV. OF TECH.
license=CC BY-NC-SA
exact mass=157.04067
ionization energy=70 eV
ion type=[M]+*
computed spectral entropy=3.032105248313433
computed normalized entropy=0.7290672008658649
SPLASH=splash10-0a6u-3900000000-141560089c5c9c461abc
submitter=submitter = University of Tokyo Team (Faculty of Engineering, University of Tokyo)
MoNA Rating=3.75

>  <NUM PEAKS>  (6145) 
64

>  <MASS SPECTRAL PEAKS>  (6145) 
36 3.7
38 1.2
39 1.8
40 0.26
41 3.6
42 26.3
43 7.4
44 8.25
45 2
51 3.8
52 7
53 0.65
54 2.7
55 2.9
58 1.8
59 0.26
60 2.6
61 1.6
66 1.1
67 0.16
69 11.8
70 6
73 1
74 0.22
77 1.8
78.5 3.2
79 4.9
80 0.24
82 1.6
83 3.2
86 3.5
87 0.7
88 3.2
89 2.6
90 1
95 0.11
100 1.4
101 2
102 1.6
103 0.15
107 4.4
108 1
113 5.6
114 1.81
115 15.2
116 6.5
117 4.3
121 0.15
127 1.2
128 74
129 10.3
130 2.45
131 3.3
137 1
142 54.8
143 0.34
144 15.9
145 1.2
154 1
156 2.66
157 99.99
158 14
159 29.1
160 2.3

$$$$

     RDKit          2D

 12 13  0  0  0  0  0  0  0  0999 V2000
    5.1968    3.0006    0.0000 C   0  0  0  0  0  0  0  0  0  0  0  0
    3.8971    3.7512    0.0000 C   0  0  0  0  0  0  0  0  0  0  0  0
    5.1975    1.4998    0.0000 C   0  0  0  0  0  0  0  0  0  0  0  0
   -1.3000   -0.7500    0.0000 C   0  0  0  0  0  0  0  0  0  0  0  0
    2.5982    3.0010    0.0000 C   0  0  0  0  0  0  0  0  0  0  0  0
    3.8986    0.7496    0.0000 C   0  0  0  0  0  0  0  0  0  0  0  0
   -1.3000    0.7500    0.0000 C   0  0  0  0  0  0  0  0  0  0  0  0
   -0.0000   -1.5000    0.0000 C   0  0  0  0  0  0  0  0  0  0  0  0
    2.5989    1.5002    0.0000 C   0  0  0  0  0  0  0  0  0  0  0  0
    1.3000    0.7500    0.0000 C   0  0  0  0  0  0  0  0  0  0  0  0
    0.0000    1.5000    0.0000 N   0  0  0  0  0  0  0  0  0  0  0  0
    1.3000   -0.7500    0.0000 N   0  0  0  0  0  0  0  0  0  0  0  0
  2  1  2  0
  3  1  1  0
  5  2  1  0
  6  3  2  0
  7  4  2  0
  8  4  1  0
  9  5  2  0
  9  6  1  0
 10  9  1  0
 11  7  1  0
 11 10  2  0
 12  8  2  0
 12 10  1  0
M  END
>  <NAME>  (6146) 
2-PHENYLPYRIMIDINE

>  <SYNONYMS>  (6146) 


>  <SPECTRUM TYPE>  (6146) 
MS1

>  <INSTRUMENT TYPE>  (6146) 
EI-B

>  <INSTRUMENT>  (6146) 
MS-902

>  <ION MODE>  (6146) 
P

>  <INCHIKEY>  (6146) 
OXPDQFOKSZYEMJ-UHFFFAOYSA-N

>  <FORMULA>  (6146) 
C10H8N2

>  <EXACT MASS>  (6146) 
156.068748256

>  <MW>  (6146) 
156

>  <ID>  (6146) 
JP002045

>  <CONTRIBUTOR>  (6146) 
University of Tokyo Team, {Faculty of Engineering, University of Tokyo

>  <COMMENT>  (6146) 
SMILES=c(c2)ccc(c2)c(n1)nccc1
InChI=InChI=1S/C10H8N2/c1-2-5-9(6-3-1)10-11-7-4-8-12-10/h1-8H
computed SMILES=N=1C=CC=NC1C=2C=CC=CC2
accession=JP002045
date=2016.01.19 (Created 2008.10.21, modified 2011.05.06)
author=SASAKI S, TOYOHASHI UNIV. OF TECH.
license=CC BY-NC-SA
exact mass=156.06875
ionization energy=70 eV
ion type=[M]+*
computed spectral entropy=2.5546356810243926
computed normalized entropy=0.6792075939711918
SPLASH=splash10-0pb9-4900000000-4dbdb2b9c10d87840dde
submitter=submitter = University of Tokyo Team (Faculty of Engineering, University of Tokyo)
MoNA Rating=3.75

>  <NUM PEAKS>  (6146) 
43

>  <MASS SPECTRAL PEAKS>  (6146) 
39 3.9
41 6.6
42 3.1
43 1.1
44 7.2
50 5.4
51 6.6
52 0.31
53 1.5
55 3.8
56 2.5
57 1.3
58 1
63 1.3
65 1.2
67 0.15
69 2.6
70 1.8
71 9
74 0.15
75 2.8
76 13
77 8.7
78 0.49
80 2
81 1
82 2
83 0.18
84 1.2
85 6.2
97 1.4
99 0.2
102 1.8
103 66.6
104 8.7
113 0.12
127 1
128 2.9
129 9.3
130 0.12
155 8.5
156 99.99
157 10.9

$$$$

     RDKit          2D

 11 11  0  0  0  0  0  0  0  0999 V2000
   -3.8981   -0.7504    0.0000 C   0  0  0  0  0  0  0  0  0  0  0  0
    1.3000    0.7500    0.0000 C   0  0  0  0  0  0  0  0  0  0  0  0
   -2.5989   -1.5002    0.0000 C   0  0  0  0  0  0  0  0  0  0  0  0
   -1.3000   -0.7500    0.0000 C   0  0  0  0  0  0  0  0  0  0  0  0
   -1.3000    0.7500    0.0000 C   0  0  0  0  0  0  0  0  0  0  0  0
    0.0000   -1.5000    0.0000 C   0  0  0  0  0  0  0  0  0  0  0  0
    0.0000    1.5000    0.0000 N   0  0  0  0  0  0  0  0  0  0  0  0
    1.3000   -0.7500    0.0000 N   0  0  0  0  0  0  0  0  0  0  0  0
   -2.5987   -3.0002    0.0000 O   0  0  0  0  0  0  0  0  0  0  0  0
   -2.5989    1.5002    0.0000 O   0  0  0  0  0  0  0  0  0  0  0  0
   -0.0000   -3.0000    0.0000 O   0  0  0  0  0  0  0  0  0  0  0  0
  3  1  1  0
  4  3  1  0
  5  4  2  0
  6  4  1  0
  7  2  1  0
  7  5  1  0
  8  2  1  0
  8  6  2  0
  9  3  2  0
 10  5  1  0
 11  6  1  0
M  END
>  <NAME>  (6147) 
5-ACETYL-1,2-DIHYDRO-4,6-DIHYDROXYPYRIMIDINE

>  <SYNONYMS>  (6147) 


>  <SPECTRUM TYPE>  (6147) 
MS1

>  <INSTRUMENT TYPE>  (6147) 
EI-B

>  <INSTRUMENT>  (6147) 
MS-902

>  <ION MODE>  (6147) 
P

>  <INCHIKEY>  (6147) 
SHGXAQVFSPSKPP-UHFFFAOYSA-N

>  <FORMULA>  (6147) 
C6H8N2O3

>  <EXACT MASS>  (6147) 
156.05349211599997

>  <MW>  (6147) 
156

>  <ID>  (6147) 
JP002044

>  <CONTRIBUTOR>  (6147) 
University of Tokyo Team, {Faculty of Engineering, University of Tokyo

>  <COMMENT>  (6147) 
SMILES=CC(=O)C(=C(O)1)C(O)=NCN1
InChI=InChI=1S/C6H8N2O3/c1-3(9)4-5(10)7-2-8-6(4)11/h7,10H,2H2,1H3,(H,8,11)
computed SMILES=O=C(C=1C(O)=NCNC1O)C
accession=JP002044
date=2016.01.19 (Created 2008.10.21, modified 2011.05.06)
author=SASAKI S, TOYOHASHI UNIV. OF TECH.
license=CC BY-NC-SA
exact mass=156.05349
ionization energy=70 eV
ion type=[M]+*
computed spectral entropy=2.390559706955685
computed normalized entropy=0.6836992813346165
SPLASH=splash10-0a4i-6900000000-18d54300517cd2c7c579
submitter=submitter = University of Tokyo Team (Faculty of Engineering, University of Tokyo)
MoNA Rating=3.75

>  <NUM PEAKS>  (6147) 
33

>  <MASS SPECTRAL PEAKS>  (6147) 
41 1.8
42 6.3
43 53.4
44 1.13
45 13.4
46 1.6
53 1.2
55 0.24
56 4.7
60 2.6
66 1.2
67 0.12
68 3
69 19.7
71 10.1
73 0.13
83 1.3
84 3.9
85 10.8
86 0.31
99 13.8
111 2.6
112 2.2
126 0.2
127 1.8
128 3.9
138 3.9
139 0.82
141 7.9
154 3.6
155 73.9
156 99.99
157 6.5

$$$$

     RDKit          2D

 11 11  0  0  0  0  0  0  0  0999 V2000
    1.3000    0.7500    0.0000 C   0  0  0  0  0  0  0  0  0  0  0  0
   -1.3000   -0.7500    0.0000 C   0  0  0  0  0  0  0  0  0  0  0  0
   -2.5989   -1.5002    0.0000 C   0  0  0  0  0  0  0  0  0  0  0  0
   -1.3000    0.7500    0.0000 C   0  0  0  0  0  0  0  0  0  0  0  0
    0.0000   -1.5000    0.0000 C   0  0  0  0  0  0  0  0  0  0  0  0
   -3.8981   -0.7504    0.0000 N   0  0  0  0  0  0  0  0  0  0  0  0
    0.0000    1.5000    0.0000 N   0  0  0  0  0  0  0  0  0  0  0  0
    1.3000   -0.7500    0.0000 N   0  0  0  0  0  0  0  0  0  0  0  0
   -2.5987   -3.0002    0.0000 O   0  0  0  0  0  0  0  0  0  0  0  0
   -2.5989    1.5002    0.0000 O   0  0  0  0  0  0  0  0  0  0  0  0
   -0.0000   -3.0000    0.0000 O   0  0  0  0  0  0  0  0  0  0  0  0
  3  2  1  0
  4  2  2  0
  5  2  1  0
  6  3  1  0
  7  1  2  0
  7  4  1  0
  8  1  1  0
  8  5  2  0
  9  3  2  0
 10  4  1  0
 11  5  1  0
M  END
>  <NAME>  (6148) 
4,6-DIHYDROXYPYRIMIDINE-5-CARBOXAMIDE

>  <SYNONYMS>  (6148) 


>  <SPECTRUM TYPE>  (6148) 
MS1

>  <INSTRUMENT TYPE>  (6148) 
EI-B

>  <INSTRUMENT>  (6148) 
MS-902

>  <ION MODE>  (6148) 
P

>  <INCHIKEY>  (6148) 
RVVVQQNYGKCVMV-UHFFFAOYSA-N

>  <FORMULA>  (6148) 
C5H5N3O3

>  <EXACT MASS>  (6148) 
155.03309102

>  <MW>  (6148) 
155

>  <ID>  (6148) 
JP002043

>  <CONTRIBUTOR>  (6148) 
University of Tokyo Team, {Faculty of Engineering, University of Tokyo

>  <COMMENT>  (6148) 
SMILES=NC(=O)c(c(O)1)c(O)ncn1
InChI=InChI=1S/C5H5N3O3/c6-3(9)2-4(10)7-1-8-5(2)11/h1H,(H2,6,9)(H2,7,8,10,11)
computed SMILES=O=C(N)C=1C(O)=NC=NC1O
accession=JP002043
date=2016.01.19 (Created 2008.10.21, modified 2011.05.06)
author=SASAKI S, TOYOHASHI UNIV. OF TECH.
license=CC BY-NC-SA
exact mass=155.03309
ionization energy=70 eV
ion type=[M]+*
computed spectral entropy=1.4905483577843492
computed normalized entropy=0.5376016809951673
SPLASH=splash10-0a4r-1900000000-6765db8ea494ffce90b4
submitter=submitter = University of Tokyo Team (Faculty of Engineering, University of Tokyo)
MoNA Rating=3.75

>  <NUM PEAKS>  (6148) 
16

>  <MASS SPECTRAL PEAKS>  (6148) 
40 2.7
41 1.9
42 4.3
44 0.67
57 1
67 1
68 2.1
69 1
71 10
84 1.4
110 2.7
112 0.32
139 66.7
140 4.4
155 99.99
156 8

$$$$

     RDKit          2D

 11 11  0  0  0  0  0  0  0  0999 V2000
    3.8981    0.7504    0.0000 C   0  0  0  0  0  0  0  0  0  0  0  0
   -0.0000   -1.5000    0.0000 C   0  0  0  0  0  0  0  0  0  0  0  0
   -1.3000    0.7500    0.0000 C   0  0  0  0  0  0  0  0  0  0  0  0
   -1.3000   -0.7500    0.0000 C   0  0  0  0  0  0  0  0  0  0  0  0
    1.3000    0.7500    0.0000 C   0  0  0  0  0  0  0  0  0  0  0  0
    1.3000   -0.7500    0.0000 N   0  0  0  0  0  0  0  0  0  0  0  0
    0.0000    1.5000    0.0000 N   0  0  0  0  0  0  0  0  0  0  0  0
   -2.5989   -1.5002    0.0000 N   0  0  0  0  0  0  0  0  0  0  0  0
   -3.8981   -0.7504    0.0000 O   0  0  0  0  0  0  0  0  0  0  0  0
   -2.5987   -3.0002    0.0000 O   0  0  0  0  0  0  0  0  0  0  0  0
    2.5989    1.5002    0.0000 O   0  0  0  0  0  0  0  0  0  0  0  0
  4  2  2  0
  4  3  1  0
  6  2  1  0
  6  5  2  0
  7  3  2  0
  7  5  1  0
  8  4  1  0
  9  8  1  0
 10  8  2  0
 11  1  1  0
 11  5  1  0
M  CHG  2   8   1   9  -1
M  END
>  <NAME>  (6149) 
2-METHOXY-5-NITROPYRIMIDINE

>  <SYNONYMS>  (6149) 


>  <SPECTRUM TYPE>  (6149) 
MS1

>  <INSTRUMENT TYPE>  (6149) 
EI-B

>  <INSTRUMENT>  (6149) 
MS-902

>  <ION MODE>  (6149) 
P

>  <INCHIKEY>  (6149) 
ZPUHFIFABZPKHA-UHFFFAOYSA-N

>  <FORMULA>  (6149) 
C5H5N3O3

>  <EXACT MASS>  (6149) 
155.03309102

>  <MW>  (6149) 
155

>  <ID>  (6149) 
JP002042

>  <CONTRIBUTOR>  (6149) 
University of Tokyo Team, {Faculty of Engineering, University of Tokyo

>  <COMMENT>  (6149) 
SMILES=COc(n1)ncc(c1)[N+1]([O-1])=O
InChI=InChI=1S/C5H5N3O3/c1-11-5-6-2-4(3-7-5)8(9)10/h2-3H,1H3
computed SMILES=O=N(=O)C1=CN=C(N=C1)OC
accession=JP002042
date=2016.01.19 (Created 2008.10.21, modified 2011.05.06)
author=SASAKI S, TOYOHASHI UNIV. OF TECH.
license=CC BY-NC-SA
exact mass=155.03309
ionization energy=70 eV
ion type=[M]+*
computed spectral entropy=2.9129586133767815
computed normalized entropy=0.7484823014030078
SPLASH=splash10-004i-9700000000-1d0d3199d1e2d13a088d
submitter=submitter = University of Tokyo Team (Faculty of Engineering, University of Tokyo)
MoNA Rating=3.75

>  <NUM PEAKS>  (6149) 
49

>  <MASS SPECTRAL PEAKS>  (6149) 
36 3
38 4
39 10.6
40 0.56
42 8.3
43 1.3
44 13.3
46 0.2
51 5.4
52 13.9
53 16.4
54 0.96
55 4.6
56 4.2
57 1.8
58 0.51
59 2.1
65 4.6
66 6.3
67 1.37
68 2.2
69 1.2
70 1.6
77 0.54
78 2.2
79 42.7
80 5.5
81 0.67
82 7.9
83 1.3
84 1.8
94 1.03
95 2.7
97 2.3
98 7.2
108 0.49
109 6.3
110 1.8
122 5.4
123 0.47
124 1
125 99.99
126 13.3
127 0.24
139 1.1
140 2
154 9.8
155 5.73
156 4.9

$$$$

     RDKit          2D

 10 10  0  0  0  0  0  0  0  0999 V2000
   -2.5989   -1.5002    0.0000 C   0  0  0  0  0  0  0  0  0  0  0  0
    1.3000    0.7500    0.0000 C   0  0  0  0  0  0  0  0  0  0  0  0
   -1.3000   -0.7500    0.0000 C   0  0  0  0  0  0  0  0  0  0  0  0
   -1.3000    0.7500    0.0000 C   0  0  0  0  0  0  0  0  0  0  0  0
   -0.0000   -1.5000    0.0000 C   0  0  0  0  0  0  0  0  0  0  0  0
   -2.5989    1.5002    0.0000 Cl  0  0  0  0  0  0  0  0  0  0  0  0
   -3.8978   -2.2504    0.0000 N   0  0  0  0  0  0  0  0  0  0  0  0
    0.0000    1.5000    0.0000 N   0  0  0  0  0  0  0  0  0  0  0  0
    1.3000   -0.7500    0.0000 N   0  0  0  0  0  0  0  0  0  0  0  0
   -0.0000   -3.0000    0.0000 O   0  0  0  0  0  0  0  0  0  0  0  0
  3  1  1  0
  4  3  2  0
  5  3  1  0
  6  4  1  0
  7  1  3  0
  8  2  2  0
  8  4  1  0
  9  2  1  0
  9  5  2  0
 10  5  1  0
M  END
>  <NAME>  (6150) 
6-CHLORO-5-CYANO-3,4-DIHYDROPYRIMIDIN-4-ONE

>  <SYNONYMS>  (6150) 


>  <SPECTRUM TYPE>  (6150) 
MS1

>  <INSTRUMENT TYPE>  (6150) 
EI-B

>  <INSTRUMENT>  (6150) 
MS-902

>  <ION MODE>  (6150) 
P

>  <INCHIKEY>  (6150) 
PEBPXXOYLASTAA-UHFFFAOYSA-N

>  <FORMULA>  (6150) 
C5H2ClN3O

>  <EXACT MASS>  (6150) 
154.988639364

>  <MW>  (6150) 
155

>  <ID>  (6150) 
JP002041

>  <CONTRIBUTOR>  (6150) 
University of Tokyo Team, {Faculty of Engineering, University of Tokyo

>  <COMMENT>  (6150) 
SMILES=N#CC(C(=O)1)=C(Cl)N=CN1
InChI=InChI=1S/C5H2ClN3O/c6-4-3(1-7)5(10)9-2-8-4/h2H,(H,8,9,10)
computed SMILES=N#CC=1C(Cl)=NC=NC1O
accession=JP002041
date=2016.01.19 (Created 2008.10.21, modified 2011.05.06)
author=SASAKI S, TOYOHASHI UNIV. OF TECH.
license=CC BY-NC-SA
exact mass=154.98864
ionization energy=70 eV
ion type=[M]+*
computed spectral entropy=2.7541568054444063
computed normalized entropy=0.7153379793078937
SPLASH=splash10-0a4l-8900000000-4d78ce7514559b18e7cc
submitter=submitter = University of Tokyo Team (Faculty of Engineering, University of Tokyo)
MoNA Rating=3.75

>  <NUM PEAKS>  (6150) 
47

>  <MASS SPECTRAL PEAKS>  (6150) 
35 2.8
36 16
37 1
38 1.81
39 4
40 1.9
41 1.4
43 0.11
47 11.1
48 3.6
49 3.5
50 0.42
51 4
53 1.1
55 1.2
57 0.17
62 4.4
63 4.7
64 10.4
65 0.86
66 1.8
67 4.8
73 1.3
76 0.46
77 5.3
82 1.2
85 21.4
86 0.12
87 5.2
92 3.2
93 82.4
94 0.45
99 3.9
100 2.9
101 1.3
111 0.11
120 11.1
127 39.1
128 15.1
129 1.35
130 5.2
137 1.6
149 1.6
155 99.99
156 8.2
157 38.6
158 2.7

$$$$

     RDKit          2D

 11 11  0  0  0  0  0  0  0  0999 V2000
   -3.8981   -0.7504    0.0000 C   0  0  0  0  0  0  0  0  0  0  0  0
    1.3000    0.7500    0.0000 C   0  0  0  0  0  0  0  0  0  0  0  0
   -2.5989   -1.5002    0.0000 C   0  0  0  0  0  0  0  0  0  0  0  0
   -1.3000   -0.7500    0.0000 C   0  0  0  0  0  0  0  0  0  0  0  0
   -1.3000    0.7500    0.0000 C   0  0  0  0  0  0  0  0  0  0  0  0
    0.0000   -1.5000    0.0000 C   0  0  0  0  0  0  0  0  0  0  0  0
    0.0000    1.5000    0.0000 N   0  0  0  0  0  0  0  0  0  0  0  0
    1.3000   -0.7500    0.0000 N   0  0  0  0  0  0  0  0  0  0  0  0
   -2.5987   -3.0002    0.0000 O   0  0  0  0  0  0  0  0  0  0  0  0
   -2.5989    1.5002    0.0000 O   0  0  0  0  0  0  0  0  0  0  0  0
   -0.0000   -3.0000    0.0000 O   0  0  0  0  0  0  0  0  0  0  0  0
  3  1  1  0
  4  3  1  0
  5  4  2  0
  6  4  1  0
  7  2  2  0
  7  5  1  0
  8  2  1  0
  8  6  2  0
  9  3  2  0
 10  5  1  0
 11  6  1  0
M  END
>  <NAME>  (6151) 
5-ACETYL-3,4-DIHYDRO-6-HYDROXYPYRIMIDIN-4-ONE

>  <SYNONYMS>  (6151) 


>  <SPECTRUM TYPE>  (6151) 
MS1

>  <INSTRUMENT TYPE>  (6151) 
EI-B

>  <INSTRUMENT>  (6151) 
MS-902

>  <ION MODE>  (6151) 
P

>  <INCHIKEY>  (6151) 
PYJZBCIQPVBBPY-UHFFFAOYSA-N

>  <FORMULA>  (6151) 
C6H6N2O3

>  <EXACT MASS>  (6151) 
154.03784205199997

>  <MW>  (6151) 
154

>  <ID>  (6151) 
JP002040

>  <CONTRIBUTOR>  (6151) 
University of Tokyo Team, {Faculty of Engineering, University of Tokyo

>  <COMMENT>  (6151) 
SMILES=CC(=O)C(=C(O)1)C(=O)NC=N1
InChI=InChI=1S/C6H6N2O3/c1-3(9)4-5(10)7-2-8-6(4)11/h2H,1H3,(H2,7,8,10,11)
computed SMILES=O=C(C=1C(O)=NC=NC1O)C
accession=JP002040
date=2016.01.19 (Created 2008.10.21, modified 2011.05.06)
author=SASAKI S, TOYOHASHI UNIV. OF TECH.
license=CC BY-NC-SA
exact mass=154.03784
ionization energy=70 eV
ion type=[M]+*
computed spectral entropy=2.3248899194676196
computed normalized entropy=0.6539134507392427
SPLASH=splash10-000i-4900000000-77f464783e8c7108a029
submitter=submitter = University of Tokyo Team (Faculty of Engineering, University of Tokyo)
MoNA Rating=3.75

>  <NUM PEAKS>  (6151) 
35

>  <MASS SPECTRAL PEAKS>  (6151) 
36 4.3
38 1.3
39 1.9
40 0.19
41 2.8
42 4
43 18.1
44 1.61
45 1
53 1.2
55 1.9
56 0.23
57 2.3
66 1.3
67 2
68 0.37
69 14.3
70 1.3
71 26.9
83 0.29
84 5.9
85 1.6
92 2.2
111 0.13
112 8.9
125 1.9
126 1.3
137 0.19
139 99.99
140 5.7
141 1
151 0.1
153 7.3
154 48.9
155 5.5

$$$$

     RDKit          2D

  9  9  0  0  0  0  0  0  0  0999 V2000
   -2.5989   -0.7504    0.0000 C   0  0  0  0  0  0  0  0  0  0  0  0
    1.2992    1.5000    0.0000 C   0  0  0  0  0  0  0  0  0  0  0  0
    2.5992   -0.7500    0.0000 C   0  0  0  0  0  0  0  0  0  0  0  0
    2.5992    0.7500    0.0000 C   0  0  0  0  0  0  0  0  0  0  0  0
   -0.0008   -0.7500    0.0000 C   0  0  0  0  0  0  0  0  0  0  0  0
    3.8981    1.5002    0.0000 Cl  0  0  0  0  0  0  0  0  0  0  0  0
   -0.0008    0.7500    0.0000 N   0  0  0  0  0  0  0  0  0  0  0  0
    1.2992   -1.5000    0.0000 N   0  0  0  0  0  0  0  0  0  0  0  0
   -1.2998   -1.5002    0.0000 O   0  0  0  0  0  0  0  0  0  0  0  0
  4  2  2  0
  4  3  1  0
  6  4  1  0
  7  2  1  0
  7  5  2  0
  8  3  2  0
  8  5  1  0
  9  1  1  0
  9  5  1  0
M  END
>  <NAME>  (6152) 
5-CHLORO-2-METHOXYPYRIMIDINE

>  <SYNONYMS>  (6152) 


>  <SPECTRUM TYPE>  (6152) 
MS1

>  <INSTRUMENT TYPE>  (6152) 
EI-B

>  <INSTRUMENT>  (6152) 
MS-902

>  <ION MODE>  (6152) 
P

>  <INCHIKEY>  (6152) 
GJNGJHZIOYFEOP-UHFFFAOYSA-N

>  <FORMULA>  (6152) 
C5H5ClN2O

>  <EXACT MASS>  (6152) 
144.00904046

>  <MW>  (6152) 
144

>  <ID>  (6152) 
JP002039

>  <CONTRIBUTOR>  (6152) 
University of Tokyo Team, {Faculty of Engineering, University of Tokyo

>  <COMMENT>  (6152) 
SMILES=COc(n1)ncc(Cl)c1
InChI=InChI=1S/C5H5ClN2O/c1-9-5-7-2-4(6)3-8-5/h2-3H,1H3
computed SMILES=ClC1=CN=C(N=C1)OC
accession=JP002039
date=2016.01.19 (Created 2008.10.21, modified 2011.05.06)
author=SASAKI S, TOYOHASHI UNIV. OF TECH.
license=CC BY-NC-SA
exact mass=144.00904
ionization energy=70 eV
ion type=[M]+*
computed spectral entropy=2.922723607465657
computed normalized entropy=0.7677916325179654
SPLASH=splash10-0296-5900000000-7b2caffd467d54d3a435
submitter=submitter = University of Tokyo Team (Faculty of Engineering, University of Tokyo)
MoNA Rating=3.75

>  <NUM PEAKS>  (6152) 
45

>  <MASS SPECTRAL PEAKS>  (6152) 
38 4.1
39 5.9
40 1.1
42 0.91
43 2.1
49 1.8
50 7.8
51 0.98
52 15.5
53 9
54 7.9
56 0.1
60 9.8
61 1.9
62 3.8
65 0.14
67 2.1
73 4.3
74 20.9
75 0.17
76 6.9
77 3.1
79 6.7
81 0.25
82 17.8
86 5.5
87 34.5
88 0.34
89 11.4
90 2.4
102 8.6
104 0.26
109 1.2
110 1.3
113 4
114 99.99
115 35.3
116 34.5
117 12.8
118 0.14
143 25.9
144 81.9
145 14.3
146 2.88
147 1.8

$$$$

     RDKit          2D

 10 10  0  0  0  0  0  0  0  0999 V2000
   -3.8981   -0.7504    0.0000 C   0  0  0  0  0  0  0  0  0  0  0  0
    3.8981    0.7504    0.0000 C   0  0  0  0  0  0  0  0  0  0  0  0
    0.0000   -1.5000    0.0000 C   0  0  0  0  0  0  0  0  0  0  0  0
   -1.3000    0.7500    0.0000 C   0  0  0  0  0  0  0  0  0  0  0  0
   -1.3000   -0.7500    0.0000 C   0  0  0  0  0  0  0  0  0  0  0  0
    1.3000    0.7500    0.0000 C   0  0  0  0  0  0  0  0  0  0  0  0
    1.3000   -0.7500    0.0000 N   0  0  0  0  0  0  0  0  0  0  0  0
    0.0000    1.5000    0.0000 N   0  0  0  0  0  0  0  0  0  0  0  0
   -2.5989   -1.5002    0.0000 O   0  0  0  0  0  0  0  0  0  0  0  0
    2.5989    1.5002    0.0000 O   0  0  0  0  0  0  0  0  0  0  0  0
  5  3  2  0
  5  4  1  0
  7  3  1  0
  7  6  2  0
  8  4  2  0
  8  6  1  0
  9  1  1  0
  9  5  1  0
 10  2  1  0
 10  6  1  0
M  END
>  <NAME>  (6153) 
2,5-DIMETHOXYPYRIMIDINE

>  <SYNONYMS>  (6153) 


>  <SPECTRUM TYPE>  (6153) 
MS1

>  <INSTRUMENT TYPE>  (6153) 
EI-B

>  <INSTRUMENT>  (6153) 
MS-902

>  <ION MODE>  (6153) 
P

>  <INCHIKEY>  (6153) 
JCDHBXYIWAUNSH-UHFFFAOYSA-N

>  <FORMULA>  (6153) 
C6H8N2O2

>  <EXACT MASS>  (6153) 
140.058577496

>  <MW>  (6153) 
140

>  <ID>  (6153) 
JP002038

>  <CONTRIBUTOR>  (6153) 
University of Tokyo Team, {Faculty of Engineering, University of Tokyo

>  <COMMENT>  (6153) 
SMILES=COc(c1)cnc(OC)n1
InChI=InChI=1S/C6H8N2O2/c1-9-5-3-7-6(10-2)8-4-5/h3-4H,1-2H3
computed SMILES=N=1C=C(OC)C=NC1OC
accession=JP002038
date=2016.01.19 (Created 2008.10.21, modified 2011.05.06)
author=SASAKI S, TOYOHASHI UNIV. OF TECH.
license=CC BY-NC-SA
exact mass=140.05858
ionization energy=70 eV
ion type=[M]+*
computed spectral entropy=2.6642576883234277
computed normalized entropy=0.7272315701683555
SPLASH=splash10-01ox-4900000000-dd55651667f8cdda96e1
submitter=submitter = University of Tokyo Team (Faculty of Engineering, University of Tokyo)
MoNA Rating=3.75

>  <NUM PEAKS>  (6153) 
39

>  <MASS SPECTRAL PEAKS>  (6153) 
38 2.2
39 7.3
40 3.3
41 0.3
42 16.9
43 3.1
44 2
51 0.19
52 3.4
53 13.9
54 7.2
55 2.26
56 19
57 2.1
65 1
67 0.6
68 3.9
69 1.3
70 21.7
77 0.14
79 1.5
80 2.1
81 3.1
82 0.32
83 18.1
96 1.5
97 9.1
98 0.51
109 3.1
110 57.3
111 51.8
112 0.35
118 1
124 1.8
125 23.2
126 0.18
139 58
140 99.99
141 7.9

$$$$

     RDKit          2D

 10 10  0  0  0  0  0  0  0  0999 V2000
   -2.5989   -1.5002    0.0000 C   0  0  0  0  0  0  0  0  0  0  0  0
    1.3000    0.7500    0.0000 C   0  0  0  0  0  0  0  0  0  0  0  0
   -1.3000   -0.7500    0.0000 C   0  0  0  0  0  0  0  0  0  0  0  0
   -1.3000    0.7500    0.0000 C   0  0  0  0  0  0  0  0  0  0  0  0
   -0.0000   -1.5000    0.0000 C   0  0  0  0  0  0  0  0  0  0  0  0
    0.0000    1.5000    0.0000 N   0  0  0  0  0  0  0  0  0  0  0  0
    1.3000   -0.7500    0.0000 N   0  0  0  0  0  0  0  0  0  0  0  0
   -3.8981   -0.7504    0.0000 O   0  0  0  0  0  0  0  0  0  0  0  0
   -2.5989    1.5002    0.0000 O   0  0  0  0  0  0  0  0  0  0  0  0
   -0.0000   -3.0000    0.0000 O   0  0  0  0  0  0  0  0  0  0  0  0
  3  1  1  0
  4  3  2  0
  5  3  1  0
  6  2  2  0
  6  4  1  0
  7  2  1  0
  7  5  2  0
  8  1  2  0
  9  4  1  0
 10  5  1  0
M  END
>  <NAME>  (6154) 
5-FORMYL-4,6-DIHYDROXYPYRIMIDINE

>  <SYNONYMS>  (6154) 
4,6-DIHYDROXYPYRIMIDINE-5-CARBALDEHYDE

>  <SPECTRUM TYPE>  (6154) 
MS1

>  <INSTRUMENT TYPE>  (6154) 
EI-B

>  <INSTRUMENT>  (6154) 
MS-902

>  <ION MODE>  (6154) 
P

>  <INCHIKEY>  (6154) 
LJMXTWXGOCCHQO-UHFFFAOYSA-N

>  <FORMULA>  (6154) 
C5H4N2O3

>  <EXACT MASS>  (6154) 
140.02219198799997

>  <MW>  (6154) 
140

>  <ID>  (6154) 
JP002037

>  <CONTRIBUTOR>  (6154) 
University of Tokyo Team, {Faculty of Engineering, University of Tokyo

>  <COMMENT>  (6154) 
SMILES=O=Cc(c(O)1)c(O)ncn1
InChI=InChI=1S/C5H4N2O3/c8-1-3-4(9)6-2-7-5(3)10/h1-2H,(H2,6,7,9,10)
computed SMILES=O=CC=1C(O)=NC=NC1O
accession=JP002037
date=2016.01.19 (Created 2008.10.21, modified 2011.05.06)
author=SASAKI S, TOYOHASHI UNIV. OF TECH.
license=CC BY-NC-SA
exact mass=140.02219
ionization energy=70 eV
ion type=[M]+*
computed spectral entropy=2.123334547829585
computed normalized entropy=0.6681241606272963
SPLASH=splash10-03di-6900000000-df428dbdfec477ec9910
submitter=submitter = University of Tokyo Team (Faculty of Engineering, University of Tokyo)
MoNA Rating=3.75

>  <NUM PEAKS>  (6154) 
24

>  <MASS SPECTRAL PEAKS>  (6154) 
36 3.8
38 1.5
39 1.6
40 0.21
41 7.5
42 10.8
43 9.8
44 0.87
47 1.5
53 3.6
56 4.6
57 1.93
58 2.9
67 2.5
68 4.6
69 1.7
70 6.3
71 7.3
84 8.2
112 99.99
113 5.8
139 1.7
140 10.2
141 1

$$$$

     RDKit          2D

  9  9  0  0  0  0  0  0  0  0999 V2000
    3.8981    1.5002    0.0000 C   0  0  0  0  0  0  0  0  0  0  0  0
   -2.5989   -0.7504    0.0000 C   0  0  0  0  0  0  0  0  0  0  0  0
    1.2992    1.5000    0.0000 C   0  0  0  0  0  0  0  0  0  0  0  0
    2.5992   -0.7500    0.0000 C   0  0  0  0  0  0  0  0  0  0  0  0
    2.5992    0.7500    0.0000 C   0  0  0  0  0  0  0  0  0  0  0  0
   -0.0008   -0.7500    0.0000 C   0  0  0  0  0  0  0  0  0  0  0  0
   -0.0008    0.7500    0.0000 N   0  0  0  0  0  0  0  0  0  0  0  0
    1.2992   -1.5000    0.0000 N   0  0  0  0  0  0  0  0  0  0  0  0
   -1.2998   -1.5002    0.0000 O   0  0  0  0  0  0  0  0  0  0  0  0
  5  1  1  0
  5  3  2  0
  5  4  1  0
  7  3  1  0
  7  6  2  0
  8  4  2  0
  8  6  1  0
  9  2  1  0
  9  6  1  0
M  END
>  <NAME>  (6155) 
2-METHOXY-5-METHYLPYRIMIDINE

>  <SYNONYMS>  (6155) 


>  <SPECTRUM TYPE>  (6155) 
MS1

>  <INSTRUMENT TYPE>  (6155) 
EI-B

>  <INSTRUMENT>  (6155) 
MS-902

>  <ION MODE>  (6155) 
P

>  <INCHIKEY>  (6155) 
BCJLWYKGUBGKFP-UHFFFAOYSA-N

>  <FORMULA>  (6155) 
C6H8N2O

>  <EXACT MASS>  (6155) 
124.063662876

>  <MW>  (6155) 
124

>  <ID>  (6155) 
JP002036

>  <CONTRIBUTOR>  (6155) 
University of Tokyo Team, {Faculty of Engineering, University of Tokyo

>  <COMMENT>  (6155) 
SMILES=COc(n1)ncc(C)c1
InChI=InChI=1S/C6H8N2O/c1-5-3-7-6(9-2)8-4-5/h3-4H,1-2H3
computed SMILES=N=1C=C(C=NC1OC)C
accession=JP002036
date=2016.01.19 (Created 2008.10.21, modified 2011.05.06)
author=SASAKI S, TOYOHASHI UNIV. OF TECH.
license=CC BY-NC-SA
exact mass=124.06366
ionization energy=70 eV
ion type=[M]+*
computed spectral entropy=2.5088091197826343
computed normalized entropy=0.7238892951294824
SPLASH=splash10-00dl-9600000000-9a32d4906ea4b81824f1
submitter=submitter = University of Tokyo Team (Faculty of Engineering, University of Tokyo)
MoNA Rating=3.75

>  <NUM PEAKS>  (6155) 
32

>  <MASS SPECTRAL PEAKS>  (6155) 
37 2
38 4.2
39 19.4
40 1.03
41 13.8
42 11.5
43 7.3
44 0.19
45 1
51 2.4
52 8.3
53 0.76
54 10.6
56 2.2
58 15.4
61 0.1
64 1.3
65 1.1
66 7.2
67 5.51
68 7.8
79 1.3
80 1.3
81 0.12
82 6.7
93 11.5
94 83.4
95 3.67
96 4.1
123 48.2
124 99.99
125 9.4

$$$$

     RDKit          2D

  9  9  0  0  0  0  0  0  0  0999 V2000
   -1.6700    0.5398    0.0000 C   0  0  0  0  0  0  0  0  0  0  0  0
   -0.3706   -1.7100    0.0000 C   0  0  0  0  0  0  0  0  0  0  0  0
    0.9281    2.0402    0.0000 C   0  0  0  0  0  0  0  0  0  0  0  0
    2.2281   -0.2098    0.0000 C   0  0  0  0  0  0  0  0  0  0  0  0
    3.5281    2.0402    0.0000 C   0  0  0  0  0  0  0  0  0  0  0  0
    0.9281    0.5402    0.0000 C   0  0  0  0  0  0  0  0  0  0  0  0
    2.2281    2.7902    0.0000 N   0  0  0  0  0  0  0  0  0  0  0  0
    3.5281    0.5402    0.0000 N   0  0  0  0  0  0  0  0  0  0  0  0
   -0.3708   -0.2100    0.0000 N   0  0  0  0  0  0  0  0  0  0  0  0
  6  3  2  0
  6  4  1  0
  7  3  1  0
  7  5  2  0
  8  4  2  0
  8  5  1  0
  9  1  1  0
  9  2  1  0
  9  6  1  0
M  END
>  <NAME>  (6156) 
5-DIMETHYLAMINOPYRIMIDINE

>  <SYNONYMS>  (6156) 


>  <SPECTRUM TYPE>  (6156) 
MS1

>  <INSTRUMENT TYPE>  (6156) 
EI-B

>  <INSTRUMENT>  (6156) 
MS-902

>  <ION MODE>  (6156) 
P

>  <INCHIKEY>  (6156) 
JWVNPUBYKCSIKR-UHFFFAOYSA-N

>  <FORMULA>  (6156) 
C6H9N3

>  <EXACT MASS>  (6156) 
123.07964728799999

>  <MW>  (6156) 
123

>  <ID>  (6156) 
JP002035

>  <CONTRIBUTOR>  (6156) 
University of Tokyo Team, {Faculty of Engineering, University of Tokyo

>  <COMMENT>  (6156) 
SMILES=CN(C)c(c1)cncn1
InChI=InChI=1S/C6H9N3/c1-9(2)6-3-7-5-8-4-6/h3-5H,1-2H3
computed SMILES=N=1C=NC=C(C1)N(C)C
accession=JP002035
date=2016.01.19 (Created 2008.10.21, modified 2011.05.06)
author=SASAKI S, TOYOHASHI UNIV. OF TECH.
license=CC BY-NC-SA
exact mass=123.07965
ionization energy=70 eV
ion type=[M]+*
computed spectral entropy=2.2281221823456137
computed normalized entropy=0.6616948123487456
SPLASH=splash10-00di-6900000000-3ada785e1607c944e5a3
submitter=submitter = University of Tokyo Team (Faculty of Engineering, University of Tokyo)
MoNA Rating=3.75

>  <NUM PEAKS>  (6156) 
29

>  <MASS SPECTRAL PEAKS>  (6156) 
39 1.6
40 4.1
40.5 1.6
41 0.2
42 16.6
43 1.6
44 1.7
48 0.46
51 3.1
52 8.5
53 6.1
54 0.96
55 1.1
66 1.7
67 4.6
68 1.27
69 10.6
79 2.1
80 2.9
81 2.17
82 1.8
94 6.1
95 6.7
106 0.29
107 4.3
108 1
122 99.99
123 8.85
124 7.5

$$$$

     RDKit          2D

  9  9  0  0  0  0  0  0  0  0999 V2000
   -1.3000    0.7498    0.0000 C   0  0  0  0  0  0  0  0  0  0  0  0
   -0.0006   -1.5000    0.0000 C   0  0  0  0  0  0  0  0  0  0  0  0
    3.8981    2.2502    0.0000 C   0  0  0  0  0  0  0  0  0  0  0  0
    3.8981    0.7502    0.0000 C   0  0  0  0  0  0  0  0  0  0  0  0
    2.5981    3.0002    0.0000 C   0  0  0  0  0  0  0  0  0  0  0  0
    1.2981    0.7502    0.0000 C   0  0  0  0  0  0  0  0  0  0  0  0
    2.5981    0.0002    0.0000 N   0  0  0  0  0  0  0  0  0  0  0  0
    1.2981    2.2502    0.0000 N   0  0  0  0  0  0  0  0  0  0  0  0
   -0.0008   -0.0000    0.0000 N   0  0  0  0  0  0  0  0  0  0  0  0
  4  3  2  0
  5  3  1  0
  7  4  1  0
  7  6  2  0
  8  5  2  0
  8  6  1  0
  9  1  1  0
  9  2  1  0
  9  6  1  0
M  END
>  <NAME>  (6157) 
2-DIMETHYLAMINOPYRIMIDINE

>  <SYNONYMS>  (6157) 


>  <SPECTRUM TYPE>  (6157) 
MS1

>  <INSTRUMENT TYPE>  (6157) 
EI-B

>  <INSTRUMENT>  (6157) 
MS-902

>  <ION MODE>  (6157) 
P

>  <INCHIKEY>  (6157) 
OUMGIYIBWRLOAF-UHFFFAOYSA-N

>  <FORMULA>  (6157) 
C6H9N3

>  <EXACT MASS>  (6157) 
123.079647288

>  <MW>  (6157) 
123

>  <ID>  (6157) 
JP002034

>  <CONTRIBUTOR>  (6157) 
University of Tokyo Team, {Faculty of Engineering, University of Tokyo

>  <COMMENT>  (6157) 
SMILES=CN(C)c(n1)nccc1
InChI=InChI=1S/C6H9N3/c1-9(2)6-7-4-3-5-8-6/h3-5H,1-2H3
computed SMILES=N=1C=CC=NC1N(C)C
accession=JP002034
date=2016.01.19 (Created 2008.10.21, modified 2011.05.06)
author=SASAKI S, TOYOHASHI UNIV. OF TECH.
license=CC BY-NC-SA
exact mass=123.07965
ionization energy=70 eV
ion type=[M]+*
computed spectral entropy=2.6611640360077686
computed normalized entropy=0.7610920294682967
SPLASH=splash10-0006-9100000000-e6758d4c49694ca14ace
submitter=submitter = University of Tokyo Team (Faculty of Engineering, University of Tokyo)
MoNA Rating=3.75

>  <NUM PEAKS>  (6157) 
33

>  <MASS SPECTRAL PEAKS>  (6157) 
39 2.2
40 5.2
41 5.6
42 2.95
43 5.2
44 54.8
45 1.2
51 0.27
52 11.2
53 26
54 8.5
55 0.46
66 2.6
67 4.6
68 3.2
69 1.18
70 3.4
78 1.8
79 22.2
80 3.27
81 34.8
82 2.1
93 1.7
94 99.99
95 19.2
96 3
106 1.6
108 6.03
109 4.7
120 1
122 16.7
123 9.86
124 8.8

$$$$

     RDKit          2D

  9  9  0  0  0  0  0  0  0  0999 V2000
    1.3000   -0.7498    0.0000 C   0  0  0  0  0  0  0  0  0  0  0  0
   -2.5981   -0.0002    0.0000 C   0  0  0  0  0  0  0  0  0  0  0  0
   -1.2981   -2.2502    0.0000 C   0  0  0  0  0  0  0  0  0  0  0  0
   -3.8981   -2.2502    0.0000 C   0  0  0  0  0  0  0  0  0  0  0  0
    0.0008    0.0000    0.0000 C   0  0  0  0  0  0  0  0  0  0  0  0
   -1.2981   -0.7502    0.0000 C   0  0  0  0  0  0  0  0  0  0  0  0
   -3.8981   -0.7502    0.0000 N   0  0  0  0  0  0  0  0  0  0  0  0
   -2.5981   -3.0002    0.0000 N   0  0  0  0  0  0  0  0  0  0  0  0
    0.0006    1.5000    0.0000 O   0  0  0  0  0  0  0  0  0  0  0  0
  5  1  1  0
  6  2  2  0
  6  3  1  0
  6  5  1  0
  7  2  1  0
  7  4  2  0
  8  3  2  0
  8  4  1  0
  9  5  2  0
M  END
>  <NAME>  (6158) 
5-ACETYLPYRIMIDINE

>  <SYNONYMS>  (6158) 


>  <SPECTRUM TYPE>  (6158) 
MS1

>  <INSTRUMENT TYPE>  (6158) 
EI-B

>  <INSTRUMENT>  (6158) 
MS-902

>  <ION MODE>  (6158) 
P

>  <INCHIKEY>  (6158) 
COTYNDRSENVEFI-UHFFFAOYSA-N

>  <FORMULA>  (6158) 
C6H6N2O

>  <EXACT MASS>  (6158) 
122.048012812

>  <MW>  (6158) 
122

>  <ID>  (6158) 
JP002033

>  <CONTRIBUTOR>  (6158) 
University of Tokyo Team, {Faculty of Engineering, University of Tokyo

>  <COMMENT>  (6158) 
SMILES=CC(=O)c(c1)cncn1
InChI=InChI=1S/C6H6N2O/c1-5(9)6-2-7-4-8-3-6/h2-4H,1H3
computed SMILES=O=C(C=1C=NC=NC1)C
accession=JP002033
date=2016.01.19 (Created 2008.10.21, modified 2011.05.06)
author=SASAKI S, TOYOHASHI UNIV. OF TECH.
license=CC BY-NC-SA
exact mass=122.04801
ionization energy=70 eV
ion type=[M]+*
computed spectral entropy=1.9243877324502103
computed normalized entropy=0.6792244348585232
SPLASH=splash10-0a4i-8900000000-7db97e237537356d8741
submitter=submitter = University of Tokyo Team (Faculty of Engineering, University of Tokyo)
MoNA Rating=3.75

>  <NUM PEAKS>  (6158) 
17

>  <MASS SPECTRAL PEAKS>  (6158) 
37 1.7
38 2.2
39 2.9
40 0.12
42 3.7
43 40.3
44 1
50 0.12
51 6.4
52 26.4
53 16.6
79 5.18
80 8.3
107 99.99
108 6.7
122 6.58
123 5.6

$$$$

     RDKit          2D

  8  8  0  0  0  0  0  0  0  0999 V2000
   -1.3000   -0.7500    0.0000 C   0  0  0  0  0  0  0  0  0  0  0  0
   -1.3000    0.7500    0.0000 C   0  0  0  0  0  0  0  0  0  0  0  0
   -0.0000   -1.5000    0.0000 C   0  0  0  0  0  0  0  0  0  0  0  0
    1.3000    0.7500    0.0000 C   0  0  0  0  0  0  0  0  0  0  0  0
    2.5989    1.5002    0.0000 N   0  0  0  0  0  0  0  0  0  0  0  0
    0.0000    1.5000    0.0000 N   0  0  0  0  0  0  0  0  0  0  0  0
    1.3000   -0.7500    0.0000 N   0  0  0  0  0  0  0  0  0  0  0  0
    2.5989   -1.5002    0.0000 O   0  0  0  0  0  0  0  0  0  0  0  0
  2  1  2  0
  3  1  1  0
  5  4  2  0
  6  2  1  0
  6  4  1  0
  7  3  2  0
  7  4  1  0
  8  7  1  0
M  CHG  2   7   1   8  -1
M  END
>  <NAME>  (6159) 
2-AMINOPYRIMIDINE 1-OXIDE

>  <SYNONYMS>  (6159) 


>  <SPECTRUM TYPE>  (6159) 
MS1

>  <INSTRUMENT TYPE>  (6159) 
EI-B

>  <INSTRUMENT>  (6159) 
MS-902

>  <ION MODE>  (6159) 
P

>  <INCHIKEY>  (6159) 
BAEWURLBOZSGIA-UHFFFAOYSA-N

>  <FORMULA>  (6159) 
C4H5N3O

>  <EXACT MASS>  (6159) 
111.04326178

>  <MW>  (6159) 
111

>  <ID>  (6159) 
JP002032

>  <CONTRIBUTOR>  (6159) 
University of Tokyo Team, {Faculty of Engineering, University of Tokyo

>  <COMMENT>  (6159) 
SMILES=Nc(n1)[n+1]([O-1])ccc1
InChI=InChI=1S/C4H5N3O/c5-4-6-2-1-3-7(4)8/h1-3H,(H2,5,6)
computed SMILES=O=N1=CC=CNC1=N
accession=JP002032
date=2016.01.19 (Created 2008.10.21, modified 2011.05.06)
author=SASAKI S, TOYOHASHI UNIV. OF TECH.
license=CC BY-NC-SA
exact mass=111.04326
ionization energy=70 eV
ion type=[M]+*
computed spectral entropy=1.8652210542205894
computed normalized entropy=0.5948730649046543
SPLASH=splash10-03di-6900000000-e091f19d3de9fbbe7ab4
submitter=submitter = University of Tokyo Team (Faculty of Engineering, University of Tokyo)
MoNA Rating=3.75

>  <NUM PEAKS>  (6159) 
23

>  <MASS SPECTRAL PEAKS>  (6159) 
44 4.1
45 1.6
47.5 1.3
51 0.19
52 6
53 7.5
54 4.4
55 0.14
55.5 1.3
57 1.6
66 3.3
67 1.1
68 17.6
69 2.8
70 14.2
77 0.11
81 1.7
84 1.7
94 2.2
95 2.48
96 1.7
111 99.99
112 6.3

$$$$

     RDKit          2D

  8  8  0  0  0  0  0  0  0  0999 V2000
   -3.8981   -0.7504    0.0000 C   0  0  0  0  0  0  0  0  0  0  0  0
    0.0000   -1.5000    0.0000 C   0  0  0  0  0  0  0  0  0  0  0  0
   -1.3000    0.7500    0.0000 C   0  0  0  0  0  0  0  0  0  0  0  0
    1.3000    0.7500    0.0000 C   0  0  0  0  0  0  0  0  0  0  0  0
   -1.3000   -0.7500    0.0000 C   0  0  0  0  0  0  0  0  0  0  0  0
    1.3000   -0.7500    0.0000 N   0  0  0  0  0  0  0  0  0  0  0  0
    0.0000    1.5000    0.0000 N   0  0  0  0  0  0  0  0  0  0  0  0
   -2.5989   -1.5002    0.0000 O   0  0  0  0  0  0  0  0  0  0  0  0
  5  2  2  0
  5  3  1  0
  6  2  1  0
  6  4  2  0
  7  3  2  0
  7  4  1  0
  8  1  1  0
  8  5  1  0
M  END
>  <NAME>  (6160) 
5-METHOXYPYRIMIDINE

>  <SYNONYMS>  (6160) 


>  <SPECTRUM TYPE>  (6160) 
MS1

>  <INSTRUMENT TYPE>  (6160) 
EI-B

>  <INSTRUMENT>  (6160) 
MS-902

>  <ION MODE>  (6160) 
P

>  <INCHIKEY>  (6160) 
JIADELSANNMYFC-UHFFFAOYSA-N

>  <FORMULA>  (6160) 
C5H6N2O

>  <EXACT MASS>  (6160) 
110.048012812

>  <MW>  (6160) 
110

>  <ID>  (6160) 
JP002031

>  <CONTRIBUTOR>  (6160) 
University of Tokyo Team, {Faculty of Engineering, University of Tokyo

>  <COMMENT>  (6160) 
SMILES=COc(c1)cncn1
InChI=InChI=1S/C5H6N2O/c1-8-5-2-6-4-7-3-5/h2-4H,1H3
computed SMILES=N=1C=NC=C(OC)C1
accession=JP002031
date=2016.01.19 (Created 2008.10.21, modified 2011.05.06)
author=SASAKI S, TOYOHASHI UNIV. OF TECH.
license=CC BY-NC-SA
exact mass=110.04801
ionization energy=70 eV
ion type=[M]+*
computed spectral entropy=1.75786576070079
computed normalized entropy=0.6081798148969945
SPLASH=splash10-03di-8900000000-108eb68304fce860d83b
submitter=submitter = University of Tokyo Team (Faculty of Engineering, University of Tokyo)
MoNA Rating=3.75

>  <NUM PEAKS>  (6160) 
18

>  <MASS SPECTRAL PEAKS>  (6160) 
38 1.2
39 3.5
40 13
41 0.14
42 2.4
51 3.5
52 6.6
53 0.12
56 41.3
57 1.4
66 1.4
67 0.11
68 21.1
79 1.3
83 9.2
94 0.1
110 99.99
111 7.3

$$$$

     RDKit          2D

  8  8  0  0  0  0  0  0  0  0999 V2000
    3.8981    0.7504    0.0000 C   0  0  0  0  0  0  0  0  0  0  0  0
   -1.3000   -0.7500    0.0000 C   0  0  0  0  0  0  0  0  0  0  0  0
   -1.3000    0.7500    0.0000 C   0  0  0  0  0  0  0  0  0  0  0  0
   -0.0000   -1.5000    0.0000 C   0  0  0  0  0  0  0  0  0  0  0  0
    1.3000    0.7500    0.0000 C   0  0  0  0  0  0  0  0  0  0  0  0
    0.0000    1.5000    0.0000 N   0  0  0  0  0  0  0  0  0  0  0  0
    1.3000   -0.7500    0.0000 N   0  0  0  0  0  0  0  0  0  0  0  0
    2.5989    1.5002    0.0000 O   0  0  0  0  0  0  0  0  0  0  0  0
  3  2  2  0
  4  2  1  0
  6  3  1  0
  6  5  2  0
  7  4  2  0
  7  5  1  0
  8  1  1  0
  8  5  1  0
M  END
>  <NAME>  (6161) 
2-METHOXYPYRIMIDINE

>  <SYNONYMS>  (6161) 


>  <SPECTRUM TYPE>  (6161) 
MS1

>  <INSTRUMENT TYPE>  (6161) 
EI-B

>  <INSTRUMENT>  (6161) 
MS-902

>  <ION MODE>  (6161) 
P

>  <INCHIKEY>  (6161) 
YLZYSVYZMDJYOT-UHFFFAOYSA-N

>  <FORMULA>  (6161) 
C5H6N2O

>  <EXACT MASS>  (6161) 
110.048012812

>  <MW>  (6161) 
110

>  <ID>  (6161) 
JP002030

>  <CONTRIBUTOR>  (6161) 
University of Tokyo Team, {Faculty of Engineering, University of Tokyo

>  <COMMENT>  (6161) 
SMILES=COc(n1)nccc1
InChI=InChI=1S/C5H6N2O/c1-8-5-6-3-2-4-7-5/h2-4H,1H3
computed SMILES=N=1C=CC=NC1OC
accession=JP002030
date=2016.01.19 (Created 2008.10.21, modified 2011.05.06)
author=SASAKI S, TOYOHASHI UNIV. OF TECH.
license=CC BY-NC-SA
exact mass=110.04801
ionization energy=70 eV
ion type=[M]+*
computed spectral entropy=2.3301237732103175
computed normalized entropy=0.7331920406632025
SPLASH=splash10-03di-9800000000-872abe1b8e40dd5dca91
submitter=submitter = University of Tokyo Team (Faculty of Engineering, University of Tokyo)
MoNA Rating=3.75

>  <NUM PEAKS>  (6161) 
24

>  <MASS SPECTRAL PEAKS>  (6161) 
38 2
39 5.9
40 26
41 0.31
42 4.3
51 4
52 12.9
53 6.73
54 6.9
55 1.6
56 10.6
57 0.19
58 2.5
66 1.7
67 2.5
68 0.52
79 14.8
80 9.99
81 27.1
82 0.47
95 2
109 27.3
110 99.99
111 8.4

$$$$

     RDKit          2D

 19 19  0  0  0  0  0  0  0  0999 V2000
    3.5639   -0.3087    0.0000 C   0  0  0  0  0  0  0  0  0  0  0  0
    5.6129    0.2407    0.0000 C   0  0  0  0  0  0  0  0  0  0  0  0
    5.0635    2.2896    0.0000 C   0  0  0  0  0  0  0  0  0  0  0  0
    3.1991    3.8536    0.0000 C   0  0  0  0  0  0  0  0  0  0  0  0
    1.0858    4.0381    0.0000 C   0  0  0  0  0  0  0  0  0  0  0  0
    0.9013    1.9248    0.0000 C   0  0  0  0  0  0  0  0  0  0  0  0
    3.9786    2.8895    0.0000 C   0  0  0  0  0  0  0  0  0  0  0  0
   -1.3000    0.7500    0.0000 C   0  0  0  0  0  0  0  0  0  0  0  0
   -0.0000   -1.5000    0.0000 C   0  0  0  0  0  0  0  0  0  0  0  0
    0.0000    1.5000    0.0000 C   0  0  0  0  0  0  0  0  0  0  0  0
    1.3000   -0.7500    0.0000 C   0  0  0  0  0  0  0  0  0  0  0  0
   -1.3000   -0.7500    0.0000 C   0  0  0  0  0  0  0  0  0  0  0  0
    1.3000    0.7500    0.0000 C   0  0  0  0  0  0  0  0  0  0  0  0
   -2.5989   -1.5002    0.0000 N   0  0  0  0  0  0  0  0  0  0  0  0
   -3.8981   -0.7504    0.0000 O   0  0  0  0  0  0  0  0  0  0  0  0
   -2.5987   -3.0002    0.0000 O   0  0  0  0  0  0  0  0  0  0  0  0
    4.3137    0.9905    0.0000 Si  0  0  0  0  0  4  0  0  0  0  0  0
    2.0502    2.8892    0.0000 Si  0  0  0  0  0  4  0  0  0  0  0  0
    3.0146    1.7403    0.0000 Si  0  0  0  0  0  4  0  0  0  0  0  0
 10  8  2  0
 11  9  1  0
 12  8  1  0
 12  9  2  0
 13 10  1  0
 13 11  2  0
 14 12  1  0
 15 14  1  0
 16 14  2  0
 17  1  1  0
 17  2  1  0
 17  3  1  0
 18  4  1  0
 18  5  1  0
 18  6  1  0
 19  7  1  0
 19 13  1  0
 19 17  1  0
 19 18  1  0
M  CHG  2  14   1  15  -1
M  END
>  <NAME>  (6162) 
2-(PARA-NITROPHENYL)-HEPTAMETHYLTRISILANE

>  <SYNONYMS>  (6162) 


>  <SPECTRUM TYPE>  (6162) 
MS1

>  <INSTRUMENT TYPE>  (6162) 
EI-B

>  <INSTRUMENT>  (6162) 
JEOL JMS-D-3000

>  <ION MODE>  (6162) 
P

>  <INCHIKEY>  (6162) 
NEEWTQVEDZXWHS-UHFFFAOYSA-N

>  <FORMULA>  (6162) 
C13H25NO2Si3

>  <EXACT MASS>  (6162) 
311.11930863000003

>  <MW>  (6162) 
311

>  <ID>  (6162) 
JP001980

>  <CONTRIBUTOR>  (6162) 
University of Tokyo Team, {Faculty of Engineering, University of Tokyo

>  <COMMENT>  (6162) 
SMILES=[O-1][N+1](=O)c(c1)ccc(c1)[Si](C)([Si](C)(C)C)[Si](C)(C)C
InChI=InChI=1S/C13H25NO2Si3/c1-17(2,3)19(7,18(4,5)6)13-10-8-12(9-11-13)14(15)16/h8-11H,1-7H3
computed SMILES=O=N(=O)C1=CC=C(C=C1)[Si](C)([Si](C)(C)C)[Si](C)(C)C
license=CC BY-NC-SA
accession=JP001980
date=2016.01.19 (Created 2008.10.21, modified 2011.05.06)
author=MASS SPECTROSCOPY SOC. OF JAPAN (MSSJ)
exact mass=311.11931
ionization energy=70 eV
ion type=[M]+*
computed spectral entropy=2.674149765965335
computed normalized entropy=0.786237746854458
SPLASH=splash10-00di-9710000000-eb86d41da80b8abad099
submitter=submitter = University of Tokyo Team (Faculty of Engineering, University of Tokyo)
MoNA Rating=3.75

>  <NUM PEAKS>  (6162) 
30

>  <MASS SPECTRAL PEAKS>  (6162) 
40 8.57
56 4.24
73 99.99
74 8.67
75 5.02
117 3.46
119 6.33
121 2.98
131 3.79
133 5.32
134 10.89
135 3.01
147 7.75
148 3.77
149 4.34
162 2.83
164 6.6
177 9.69
179 15.97
180 6.25
192 7.62
193 8.08
222 8.86
223 4.24
238 2.95
265 6.02
296 3.82
297 1.12
311 3.19
312 1.03

$$$$

     RDKit          2D

 19 19  0  0  0  0  0  0  0  0999 V2000
    3.5639   -0.3087    0.0000 C   0  0  0  0  0  0  0  0  0  0  0  0
    5.6129    0.2407    0.0000 C   0  0  0  0  0  0  0  0  0  0  0  0
    5.0635    2.2896    0.0000 C   0  0  0  0  0  0  0  0  0  0  0  0
    3.1991    3.8536    0.0000 C   0  0  0  0  0  0  0  0  0  0  0  0
    1.0858    4.0381    0.0000 C   0  0  0  0  0  0  0  0  0  0  0  0
    0.9013    1.9248    0.0000 C   0  0  0  0  0  0  0  0  0  0  0  0
    3.9786    2.8895    0.0000 C   0  0  0  0  0  0  0  0  0  0  0  0
   -1.3000    0.7500    0.0000 C   0  0  0  0  0  0  0  0  0  0  0  0
   -0.0000   -1.5000    0.0000 C   0  0  0  0  0  0  0  0  0  0  0  0
    0.0000    1.5000    0.0000 C   0  0  0  0  0  0  0  0  0  0  0  0
    1.3000   -0.7500    0.0000 C   0  0  0  0  0  0  0  0  0  0  0  0
   -1.3000   -0.7500    0.0000 C   0  0  0  0  0  0  0  0  0  0  0  0
    1.3000    0.7500    0.0000 C   0  0  0  0  0  0  0  0  0  0  0  0
   -2.5989   -1.5002    0.0000 N   0  0  0  0  0  0  0  0  0  0  0  0
   -3.8981   -0.7504    0.0000 O   0  0  0  0  0  0  0  0  0  0  0  0
   -2.5987   -3.0002    0.0000 O   0  0  0  0  0  0  0  0  0  0  0  0
    4.3137    0.9905    0.0000 Si  0  0  0  0  0  4  0  0  0  0  0  0
    2.0502    2.8892    0.0000 Si  0  0  0  0  0  4  0  0  0  0  0  0
    3.0146    1.7403    0.0000 Si  0  0  0  0  0  4  0  0  0  0  0  0
 10  8  2  0
 11  9  1  0
 12  8  1  0
 12  9  2  0
 13 10  1  0
 13 11  2  0
 14 12  1  0
 15 14  1  0
 16 14  2  0
 17  1  1  0
 17  2  1  0
 17  3  1  0
 18  4  1  0
 18  5  1  0
 18  6  1  0
 19  7  1  0
 19 13  1  0
 19 17  1  0
 19 18  1  0
M  CHG  2  14   1  15  -1
M  END
>  <NAME>  (6163) 
2-(PARA-NITROPHENYL)-HEPTAMETHYLTRISILANE

>  <SYNONYMS>  (6163) 


>  <SPECTRUM TYPE>  (6163) 
MS1

>  <INSTRUMENT TYPE>  (6163) 
EI-B

>  <INSTRUMENT>  (6163) 
JEOL JMS-D-3000

>  <ION MODE>  (6163) 
P

>  <INCHIKEY>  (6163) 
NEEWTQVEDZXWHS-UHFFFAOYSA-N

>  <FORMULA>  (6163) 
C13H25NO2Si3

>  <EXACT MASS>  (6163) 
311.11930863

>  <MW>  (6163) 
311

>  <ID>  (6163) 
JP001979

>  <CONTRIBUTOR>  (6163) 
University of Tokyo Team, {Faculty of Engineering, University of Tokyo

>  <COMMENT>  (6163) 
SMILES=[O-1][N+1](=O)c(c1)ccc(c1)[Si](C)([Si](C)(C)C)[Si](C)(C)C
InChI=InChI=1S/C13H25NO2Si3/c1-17(2,3)19(7,18(4,5)6)13-10-8-12(9-11-13)14(15)16/h8-11H,1-7H3
computed SMILES=O=N(=O)C1=CC=C(C=C1)[Si](C)([Si](C)(C)C)[Si](C)(C)C
accession=JP001979
date=2016.01.19 (Created 2008.10.21, modified 2011.05.06)
author=MASS SPECTROSCOPY SOC. OF JAPAN (MSSJ)
license=CC BY-NC-SA
exact mass=311.11931
ionization energy=70 eV
ion type=[M]+*
computed spectral entropy=2.674149765965335
computed normalized entropy=0.786237746854458
SPLASH=splash10-00di-9710000000-eb86d41da80b8abad099
submitter=submitter = University of Tokyo Team (Faculty of Engineering, University of Tokyo)
MoNA Rating=3.75

>  <NUM PEAKS>  (6163) 
30

>  <MASS SPECTRAL PEAKS>  (6163) 
40 8.57
56 4.24
73 99.99
74 8.67
75 5.02
117 3.46
119 6.33
121 2.98
131 3.79
133 5.32
134 10.89
135 3.01
147 7.75
148 3.77
149 4.34
162 2.83
164 6.6
177 9.69
179 15.97
180 6.25
192 7.62
193 8.08
222 8.86
223 4.24
238 2.95
265 6.02
296 3.82
297 1.12
311 3.19
312 1.03

$$$$

     RDKit          2D

 19 19  0  0  0  0  0  0  0  0999 V2000
   -2.1428    0.2397    0.0000 C   0  0  0  0  0  0  0  0  0  0  0  0
   -4.1918   -0.3093    0.0000 C   0  0  0  0  0  0  0  0  0  0  0  0
   -3.6428   -2.3583    0.0000 C   0  0  0  0  0  0  0  0  0  0  0  0
   -1.7786   -3.9225    0.0000 C   0  0  0  0  0  0  0  0  0  0  0  0
    0.3346   -4.1074    0.0000 C   0  0  0  0  0  0  0  0  0  0  0  0
    0.5195   -1.9942    0.0000 C   0  0  0  0  0  0  0  0  0  0  0  0
   -2.5579   -2.9584    0.0000 C   0  0  0  0  0  0  0  0  0  0  0  0
    1.4195    1.4315    0.0000 C   0  0  0  0  0  0  0  0  0  0  0  0
    2.7191    0.6807    0.0000 C   0  0  0  0  0  0  0  0  0  0  0  0
    0.1205    0.6815    0.0000 C   0  0  0  0  0  0  0  0  0  0  0  0
    1.4205   -1.5701    0.0000 C   0  0  0  0  0  0  0  0  0  0  0  0
    2.7195   -0.8201    0.0000 C   0  0  0  0  0  0  0  0  0  0  0  0
    0.1210   -0.8193    0.0000 C   0  0  0  0  0  0  0  0  0  0  0  0
    4.0187   -1.5699    0.0000 N   0  0  0  0  0  0  0  0  0  0  0  0
    5.3176   -0.8197    0.0000 O   0  0  0  0  0  0  0  0  0  0  0  0
    4.0189   -3.0699    0.0000 O   0  0  0  0  0  0  0  0  0  0  0  0
   -2.8928   -1.0593    0.0000 Si  0  0  0  0  0  4  0  0  0  0  0  0
   -0.6296   -2.9584    0.0000 Si  0  0  0  0  0  4  0  0  0  0  0  0
   -1.5938   -1.8093    0.0000 Si  0  0  0  0  0  4  0  0  0  0  0  0
  9  8  2  0
 10  8  1  0
 12  9  1  0
 12 11  2  0
 13 10  2  0
 13 11  1  0
 14 12  1  0
 15 14  1  0
 16 14  2  0
 17  1  1  0
 17  2  1  0
 17  3  1  0
 18  4  1  0
 18  5  1  0
 18  6  1  0
 19  7  1  0
 19 13  1  0
 19 17  1  0
 19 18  1  0
M  CHG  2  14   1  15  -1
M  END
>  <NAME>  (6164) 
2-(META-NITROPHENYL)HEPTAMETHYLTRISILANE

>  <SYNONYMS>  (6164) 


>  <SPECTRUM TYPE>  (6164) 
MS1

>  <INSTRUMENT TYPE>  (6164) 
EI-B

>  <INSTRUMENT>  (6164) 
JEOL JMS-D-3000

>  <ION MODE>  (6164) 
P

>  <INCHIKEY>  (6164) 
IFUNCUBPOATDRW-UHFFFAOYSA-N

>  <FORMULA>  (6164) 
C13H25NO2Si3

>  <EXACT MASS>  (6164) 
311.11930863000003

>  <MW>  (6164) 
311

>  <ID>  (6164) 
JP001978

>  <CONTRIBUTOR>  (6164) 
University of Tokyo Team, {Faculty of Engineering, University of Tokyo

>  <COMMENT>  (6164) 
SMILES=[O-1][N+1](=O)c(c1)cc(cc1)[Si](C)([Si](C)(C)C)[Si](C)(C)C
InChI=InChI=1S/C13H25NO2Si3/c1-17(2,3)19(7,18(4,5)6)13-10-8-9-12(11-13)14(15)16/h8-11H,1-7H3
computed SMILES=O=N(=O)C1=CC=CC(=C1)[Si](C)([Si](C)(C)C)[Si](C)(C)C
accession=JP001978
date=2016.01.19 (Created 2008.10.21, modified 2011.05.06)
author=MASS SPECTROSCOPY SOC. OF JAPAN (MSSJ)
license=CC BY-NC-SA
exact mass=311.11931
ionization energy=70 eV
ion type=[M]+*
computed spectral entropy=2.966615025512229
computed normalized entropy=0.7545133743524352
SPLASH=splash10-00di-9810000000-423a19c0495e255d741d
submitter=submitter = University of Tokyo Team (Faculty of Engineering, University of Tokyo)
MoNA Rating=3.75

>  <NUM PEAKS>  (6164) 
51

>  <MASS SPECTRAL PEAKS>  (6164) 
40 8.23
47 1.14
56 3.99
73 99.99
74 8.63
75 6.66
83 1.98
93 1.67
103 1.84
105 1.75
115 1.1
117 3.69
119 9.57
120 1.84
121 2.68
131 4.38
132 2.05
133 10.99
134 5.83
135 3.11
145 1.39
147 9.21
148 4.03
149 10.2
150 2.36
158 1.48
161 1.18
162 1.3
163 1.23
164 2.57
165 1.34
175 1.88
177 5.62
178 1.68
179 12.28
180 3.2
181 1.29
191 1.48
192 2.2
193 7.85
194 2.68
195 1.4
205 1.29
206 1.5
207 1.77
208 1.32
222 1.91
237 2.21
296 3.74
297 1.09
311 3.2

$$$$

     RDKit          2D

 19 19  0  0  0  0  0  0  0  0999 V2000
   -3.3494   -0.4024    0.0000 C   0  0  0  0  0  0  0  0  0  0  0  0
   -3.8981   -2.4515    0.0000 C   0  0  0  0  0  0  0  0  0  0  0  0
   -1.8490   -3.0002    0.0000 C   0  0  0  0  0  0  0  0  0  0  0  0
   -0.9651   -2.8501    0.0000 C   0  0  0  0  0  0  0  0  0  0  0  0
    0.9633   -2.8498    0.0000 C   0  0  0  0  0  0  0  0  0  0  0  0
   -0.3362    0.1981    0.0000 C   0  0  0  0  0  0  0  0  0  0  0  0
   -2.2646    0.1978    0.0000 C   0  0  0  0  0  0  0  0  0  0  0  0
    3.8978   -0.9507    0.0000 C   0  0  0  0  0  0  0  0  0  0  0  0
    2.5978    1.2993    0.0000 C   0  0  0  0  0  0  0  0  0  0  0  0
    2.5978   -1.7007    0.0000 C   0  0  0  0  0  0  0  0  0  0  0  0
    1.2978    0.5493    0.0000 C   0  0  0  0  0  0  0  0  0  0  0  0
    3.8978    0.5493    0.0000 C   0  0  0  0  0  0  0  0  0  0  0  0
    1.2978   -0.9507    0.0000 C   0  0  0  0  0  0  0  0  0  0  0  0
    5.1968    1.2995    0.0000 N   0  0  0  0  0  0  0  0  0  0  0  0
    6.4959    0.5498    0.0000 O   0  0  0  0  0  0  0  0  0  0  0  0
    5.1965    2.7995    0.0000 O   0  0  0  0  0  0  0  0  0  0  0  0
   -2.5992   -1.7013    0.0000 Si  0  0  0  0  0  4  0  0  0  0  0  0
   -0.0011   -1.7009    0.0000 Si  0  0  0  0  0  4  0  0  0  0  0  0
   -1.3002   -0.9511    0.0000 Si  0  0  0  0  0  4  0  0  0  0  0  0
 10  8  2  0
 11  9  1  0
 12  8  1  0
 12  9  2  0
 13 10  1  0
 13 11  2  0
 14 12  1  0
 15 14  1  0
 16 14  2  0
 17  1  1  0
 17  2  1  0
 17  3  1  0
 18  4  1  0
 18  5  1  0
 18 13  1  0
 19  6  1  0
 19  7  1  0
 19 17  1  0
 19 18  1  0
M  CHG  2  14   1  15  -1
M  END
>  <NAME>  (6165) 
1-(PARA-NITROPHENYL)HEPTAMETHYLTRISILANE

>  <SYNONYMS>  (6165) 


>  <SPECTRUM TYPE>  (6165) 
MS1

>  <INSTRUMENT TYPE>  (6165) 
EI-B

>  <INSTRUMENT>  (6165) 
JEOL JMS-D-3000

>  <ION MODE>  (6165) 
P

>  <INCHIKEY>  (6165) 
SFVPLOSWHJTENK-UHFFFAOYSA-N

>  <FORMULA>  (6165) 
C13H25NO2Si3

>  <EXACT MASS>  (6165) 
311.11930863

>  <MW>  (6165) 
311

>  <ID>  (6165) 
JP001977

>  <CONTRIBUTOR>  (6165) 
University of Tokyo Team, {Faculty of Engineering, University of Tokyo

>  <COMMENT>  (6165) 
SMILES=[O-1][N+1](=O)c(c1)ccc(c1)[Si](C)(C)[Si](C)(C)[Si](C)(C)C
InChI=InChI=1S/C13H25NO2Si3/c1-17(2,3)19(6,7)18(4,5)13-10-8-12(9-11-13)14(15)16/h8-11H,1-7H3
computed SMILES=O=N(=O)C1=CC=C(C=C1)[Si](C)(C)[Si](C)(C)[Si](C)(C)C
accession=JP001977
date=2016.01.19 (Created 2008.10.21, modified 2011.05.06)
author=MASS SPECTROSCOPY SOC. OF JAPAN (MSSJ)
license=CC BY-NC-SA
exact mass=311.11931
ionization energy=70 eV
ion type=[M]+*
computed spectral entropy=2.687321564494953
computed normalized entropy=0.8248133636110306
SPLASH=splash10-00e9-7911000000-5e78198c3849ae1ac0fa
submitter=submitter = University of Tokyo Team (Faculty of Engineering, University of Tokyo)
MoNA Rating=3.75

>  <NUM PEAKS>  (6165) 
26

>  <MASS SPECTRAL PEAKS>  (6165) 
40 7.52
56 5.69
73 99.99
74 8.83
75 4.71
117 4.26
119 9.22
131 38.29
132 6.79
133 9.6
134 19.31
135 4.56
147 11.57
148 4.94
162 4.49
164 11.04
177 4.75
180 7.52
192 4.07
193 10.79
222 5.9
223 5.86
238 8.14
296 4.36
311 14.01
312 4.36

$$$$

     RDKit          2D

 19 19  0  0  0  0  0  0  0  0999 V2000
    5.1467   -3.0873    0.0000 C   0  0  0  0  0  0  0  0  0  0  0  0
    5.6958   -1.0382    0.0000 C   0  0  0  0  0  0  0  0  0  0  0  0
    3.6467   -0.4892    0.0000 C   0  0  0  0  0  0  0  0  0  0  0  0
    2.7628   -0.6392    0.0000 C   0  0  0  0  0  0  0  0  0  0  0  0
    0.8345   -0.6392    0.0000 C   0  0  0  0  0  0  0  0  0  0  0  0
    2.1335   -3.6873    0.0000 C   0  0  0  0  0  0  0  0  0  0  0  0
    4.0619   -3.6873    0.0000 C   0  0  0  0  0  0  0  0  0  0  0  0
   -0.7989   -4.7891    0.0000 C   0  0  0  0  0  0  0  0  0  0  0  0
   -2.0985   -4.0382    0.0000 C   0  0  0  0  0  0  0  0  0  0  0  0
    0.5001   -4.0391    0.0000 C   0  0  0  0  0  0  0  0  0  0  0  0
   -0.7999   -1.7874    0.0000 C   0  0  0  0  0  0  0  0  0  0  0  0
   -2.0989   -2.5374    0.0000 C   0  0  0  0  0  0  0  0  0  0  0  0
    0.4996   -2.5382    0.0000 C   0  0  0  0  0  0  0  0  0  0  0  0
   -3.3981   -1.7876    0.0000 N   0  0  0  0  0  0  0  0  0  0  0  0
   -4.6970   -2.5378    0.0000 O   0  0  0  0  0  0  0  0  0  0  0  0
   -3.3983   -0.2876    0.0000 O   0  0  0  0  0  0  0  0  0  0  0  0
    4.3967   -1.7882    0.0000 Si  0  0  0  0  0  4  0  0  0  0  0  0
    1.7986   -1.7882    0.0000 Si  0  0  0  0  0  4  0  0  0  0  0  0
    3.0977   -2.5382    0.0000 Si  0  0  0  0  0  4  0  0  0  0  0  0
  9  8  2  0
 10  8  1  0
 12  9  1  0
 12 11  2  0
 13 10  2  0
 13 11  1  0
 14 12  1  0
 15 14  1  0
 16 14  2  0
 17  1  1  0
 17  2  1  0
 17  3  1  0
 18  4  1  0
 18  5  1  0
 18 13  1  0
 19  6  1  0
 19  7  1  0
 19 17  1  0
 19 18  1  0
M  CHG  2  14   1  15  -1
M  END
>  <NAME>  (6166) 
1-(META-NITROPHENYL)HEPTAMETHYLTRISILANE

>  <SYNONYMS>  (6166) 


>  <SPECTRUM TYPE>  (6166) 
MS1

>  <INSTRUMENT TYPE>  (6166) 
EI-B

>  <INSTRUMENT>  (6166) 
JEOL JMS-D-3000

>  <ION MODE>  (6166) 
P

>  <INCHIKEY>  (6166) 
FONSERSZTSBZOB-UHFFFAOYSA-N

>  <FORMULA>  (6166) 
C13H25NO2Si3

>  <EXACT MASS>  (6166) 
311.11930863

>  <MW>  (6166) 
311

>  <ID>  (6166) 
JP001976

>  <CONTRIBUTOR>  (6166) 
University of Tokyo Team, {Faculty of Engineering, University of Tokyo

>  <COMMENT>  (6166) 
SMILES=[O-1][N+1](=O)c(c1)cc(cc1)[Si](C)(C)[Si](C)(C)[Si](C)(C)C
InChI=InChI=1S/C13H25NO2Si3/c1-17(2,3)19(6,7)18(4,5)13-10-8-9-12(11-13)14(15)16/h8-11H,1-7H3
computed SMILES=O=N(=O)C1=CC=CC(=C1)[Si](C)(C)[Si](C)(C)[Si](C)(C)C
accession=JP001976
date=2016.01.19 (Created 2008.10.21, modified 2011.05.06)
author=MASS SPECTROSCOPY SOC. OF JAPAN (MSSJ)
license=CC BY-NC-SA
exact mass=311.11931
ionization energy=70 eV
ion type=[M]+*
computed spectral entropy=2.4545983272154506
computed normalized entropy=0.79410049012708
SPLASH=splash10-00di-9801000000-a65619b4ac90379e0519
submitter=submitter = University of Tokyo Team (Faculty of Engineering, University of Tokyo)
MoNA Rating=3.75

>  <NUM PEAKS>  (6166) 
22

>  <MASS SPECTRAL PEAKS>  (6166) 
40 7.32
56 4.89
73 99.99
74 8.83
75 5.95
117 9.04
119 12.36
131 22.83
132 4.52
133 12.18
134 11.79
135 3.74
147 11.14
148 3.42
149 3.42
164 7.5
177 3.25
180 3.79
193 9.25
296 3.45
311 11.59
312 3.61

$$$$

     RDKit          2D

 16 16  0  0  0  0  0  0  0  0999 V2000
    3.1483   -0.5487    0.0000 C   0  0  0  0  0  0  0  0  0  0  0  0
    5.1972    0.0006    0.0000 C   0  0  0  0  0  0  0  0  0  0  0  0
    4.6479    2.0496    0.0000 C   0  0  0  0  0  0  0  0  0  0  0  0
    3.5629    2.6494    0.0000 C   0  0  0  0  0  0  0  0  0  0  0  0
    1.6346    2.6491    0.0000 C   0  0  0  0  0  0  0  0  0  0  0  0
   -1.3000    0.7500    0.0000 C   0  0  0  0  0  0  0  0  0  0  0  0
   -0.0000   -1.5000    0.0000 C   0  0  0  0  0  0  0  0  0  0  0  0
    0.0000    1.5000    0.0000 C   0  0  0  0  0  0  0  0  0  0  0  0
    1.3000   -0.7500    0.0000 C   0  0  0  0  0  0  0  0  0  0  0  0
   -1.3000   -0.7500    0.0000 C   0  0  0  0  0  0  0  0  0  0  0  0
    1.3000    0.7500    0.0000 C   0  0  0  0  0  0  0  0  0  0  0  0
   -2.5989   -1.5002    0.0000 N   0  0  0  0  0  0  0  0  0  0  0  0
   -3.8981   -0.7504    0.0000 O   0  0  0  0  0  0  0  0  0  0  0  0
   -2.5987   -3.0002    0.0000 O   0  0  0  0  0  0  0  0  0  0  0  0
    3.8981    0.7504    0.0000 Si  0  0  0  0  0  4  0  0  0  0  0  0
    2.5989    1.5002    0.0000 Si  0  0  0  0  0  4  0  0  0  0  0  0
  8  6  2  0
  9  7  1  0
 10  6  1  0
 10  7  2  0
 11  8  1  0
 11  9  2  0
 12 10  1  0
 13 12  1  0
 14 12  2  0
 15  1  1  0
 15  2  1  0
 15  3  1  0
 16  4  1  0
 16  5  1  0
 16 11  1  0
 16 15  1  0
M  CHG  2  12   1  13  -1
M  END
>  <NAME>  (6167) 
PARA-NITROPHENYLPENTAMETHYLDISILANE

>  <SYNONYMS>  (6167) 


>  <SPECTRUM TYPE>  (6167) 
MS1

>  <INSTRUMENT TYPE>  (6167) 
EI-B

>  <INSTRUMENT>  (6167) 
JEOL JMS-D-3000

>  <ION MODE>  (6167) 
P

>  <INCHIKEY>  (6167) 
JBRHXSPSFSQEFQ-UHFFFAOYSA-N

>  <FORMULA>  (6167) 
C11H19NO2Si2

>  <EXACT MASS>  (6167) 
253.095431908

>  <MW>  (6167) 
253

>  <ID>  (6167) 
JP001975

>  <CONTRIBUTOR>  (6167) 
University of Tokyo Team, {Faculty of Engineering, University of Tokyo

>  <COMMENT>  (6167) 
SMILES=[O-1][N+1](=O)c(c1)ccc(c1)[Si](C)(C)[Si](C)(C)C
InChI=InChI=1S/C11H19NO2Si2/c1-15(2,3)16(4,5)11-8-6-10(7-9-11)12(13)14/h6-9H,1-5H3
computed SMILES=O=N(=O)C1=CC=C(C=C1)[Si](C)(C)[Si](C)(C)C
accession=JP001975
date=2016.01.19 (Created 2008.10.21, modified 2011.05.06)
author=MASS SPECTROSCOPY SOC. OF JAPAN (MSSJ)
license=CC BY-NC-SA
exact mass=253.09543
ionization energy=70 eV
ion type=[M]+*
computed spectral entropy=3.1419605317121087
computed normalized entropy=0.7737974707565939
SPLASH=splash10-00e9-6900000000-5c2dadfdfc0b6b7ac03b
submitter=submitter = University of Tokyo Team (Faculty of Engineering, University of Tokyo)
MoNA Rating=3.75

>  <NUM PEAKS>  (6167) 
58

>  <MASS SPECTRAL PEAKS>  (6167) 
53 3.72
55 1.89
57 1.04
58 2.96
59 4.35
67 1.97
69 1.69
72 1.38
73 99.99
74 9.53
75 7.64
77 1.15
79 1.11
83 3.79
90 1.43
91 1.35
93 4.12
99 1.04
103 1.47
104 1.65
105 2.1
107 1.46
117 1.41
119 18.48
120 3.03
121 2.25
122 1.99
131 4.12
132 1.25
133 7.58
134 40.37
135 7.16
136 2.03
145 1.1
147 4.69
148 1.41
149 4.7
150 8.33
151 1.74
158 3.61
164 18.63
165 3.29
175 1.33
177 1.65
179 14.59
180 13.02
181 2.44
192 1.35
193 19.76
194 4.27
195 2.04
207 7.12
208 3.08
222 1.69
223 1.68
238 5.45
239 1.24
253 1.03

$$$$

     RDKit          2D

 16 16  0  0  0  0  0  0  0  0999 V2000
    3.2349   -2.6486    0.0000 C   0  0  0  0  0  0  0  0  0  0  0  0
    5.2840   -2.0995    0.0000 C   0  0  0  0  0  0  0  0  0  0  0  0
    4.7349   -0.0505    0.0000 C   0  0  0  0  0  0  0  0  0  0  0  0
    3.6501    0.5495    0.0000 C   0  0  0  0  0  0  0  0  0  0  0  0
    1.7217    0.5495    0.0000 C   0  0  0  0  0  0  0  0  0  0  0  0
    0.0883   -3.6004    0.0000 C   0  0  0  0  0  0  0  0  0  0  0  0
   -1.2112   -2.8495    0.0000 C   0  0  0  0  0  0  0  0  0  0  0  0
    1.3873   -2.8504    0.0000 C   0  0  0  0  0  0  0  0  0  0  0  0
    0.0873   -0.5987    0.0000 C   0  0  0  0  0  0  0  0  0  0  0  0
   -1.2117   -1.3487    0.0000 C   0  0  0  0  0  0  0  0  0  0  0  0
    1.3869   -1.3495    0.0000 C   0  0  0  0  0  0  0  0  0  0  0  0
   -2.5108   -0.5989    0.0000 N   0  0  0  0  0  0  0  0  0  0  0  0
   -3.8098   -1.3491    0.0000 O   0  0  0  0  0  0  0  0  0  0  0  0
   -2.5111    0.9011    0.0000 O   0  0  0  0  0  0  0  0  0  0  0  0
    3.9849   -1.3495    0.0000 Si  0  0  0  0  0  4  0  0  0  0  0  0
    2.6859   -0.5995    0.0000 Si  0  0  0  0  0  4  0  0  0  0  0  0
  7  6  2  0
  8  6  1  0
 10  7  1  0
 10  9  2  0
 11  8  2  0
 11  9  1  0
 12 10  1  0
 13 12  1  0
 14 12  2  0
 15  1  1  0
 15  2  1  0
 15  3  1  0
 16  4  1  0
 16  5  1  0
 16 11  1  0
 16 15  1  0
M  CHG  2  12   1  13  -1
M  END
>  <NAME>  (6168) 
META-NITROPHENYLPENTAMETHYLDISILANE

>  <SYNONYMS>  (6168) 


>  <SPECTRUM TYPE>  (6168) 
MS1

>  <INSTRUMENT TYPE>  (6168) 
EI-B

>  <INSTRUMENT>  (6168) 
JEOL JMS-D-3000

>  <ION MODE>  (6168) 
P

>  <INCHIKEY>  (6168) 
FCVHPSZRDHJMPG-UHFFFAOYSA-N

>  <FORMULA>  (6168) 
C11H19NO2Si2

>  <EXACT MASS>  (6168) 
253.095431908

>  <MW>  (6168) 
253

>  <ID>  (6168) 
JP001974

>  <CONTRIBUTOR>  (6168) 
University of Tokyo Team, {Faculty of Engineering, University of Tokyo

>  <COMMENT>  (6168) 
SMILES=[O-1][N+1](=O)c(c1)cc(cc1)[Si](C)(C)[Si](C)(C)C
InChI=InChI=1S/C11H19NO2Si2/c1-15(2,3)16(4,5)11-8-6-7-10(9-11)12(13)14/h6-9H,1-5H3
computed SMILES=O=N(=O)C1=CC=CC(=C1)[Si](C)(C)[Si](C)(C)C
accession=JP001974
date=2016.01.19 (Created 2008.10.21, modified 2011.05.06)
author=MASS SPECTROSCOPY SOC. OF JAPAN (MSSJ)
license=CC BY-NC-SA
exact mass=253.09543
ionization energy=70 eV
ion type=[M]+*
computed spectral entropy=3.2362615028882775
computed normalized entropy=0.8039698768027992
SPLASH=splash10-00e9-4900000000-1d2f91ba4e8ebb008d79
submitter=submitter = University of Tokyo Team (Faculty of Engineering, University of Tokyo)
MoNA Rating=3.75

>  <NUM PEAKS>  (6168) 
56

>  <MASS SPECTRAL PEAKS>  (6168) 
53 4.88
55 1.96
58 2.33
59 5.9
63 1.36
67 2.31
69 1.75
72 1.49
73 99.99
74 9.78
75 6.94
77 1.33
79 1.44
83 5.17
90 2.71
91 2.26
93 5.29
103 2.55
104 1.53
105 3.23
107 1.87
117 2.04
119 33.9
120 5.1
121 4.98
131 7.61
132 2.72
133 21.13
134 38.1
135 7.71
136 2.14
145 1.84
147 12.02
148 2.71
149 20.08
150 7.02
151 1.79
158 6.13
159 1.4
164 21.76
165 3.94
175 1.85
177 1.98
179 21.39
180 14.22
181 3.01
191 1.25
192 1.89
193 28.19
194 6.45
195 3.13
207 2.63
208 4.52
222 1.28
238 2.08
253 1.37

$$$$

     RDKit          2D

 13 13  0  0  0  0  0  0  0  0999 V2000
    3.3491    0.2013    0.0000 C   0  0  0  0  0  0  0  0  0  0  0  0
    3.8978    2.2504    0.0000 C   0  0  0  0  0  0  0  0  0  0  0  0
    1.8487    2.7991    0.0000 C   0  0  0  0  0  0  0  0  0  0  0  0
   -1.3000    0.7500    0.0000 C   0  0  0  0  0  0  0  0  0  0  0  0
   -0.0000   -1.5000    0.0000 C   0  0  0  0  0  0  0  0  0  0  0  0
    0.0000    1.5000    0.0000 C   0  0  0  0  0  0  0  0  0  0  0  0
    1.3000   -0.7500    0.0000 C   0  0  0  0  0  0  0  0  0  0  0  0
   -1.3000   -0.7500    0.0000 C   0  0  0  0  0  0  0  0  0  0  0  0
    1.3000    0.7500    0.0000 C   0  0  0  0  0  0  0  0  0  0  0  0
   -2.5989   -1.5002    0.0000 N   0  0  0  0  0  0  0  0  0  0  0  0
   -3.8981   -0.7504    0.0000 O   0  0  0  0  0  0  0  0  0  0  0  0
   -2.5987   -3.0002    0.0000 O   0  0  0  0  0  0  0  0  0  0  0  0
    2.5989    1.5002    0.0000 Si  0  0  0  0  0  4  0  0  0  0  0  0
  6  4  2  0
  7  5  1  0
  8  4  1  0
  8  5  2  0
  9  6  1  0
  9  7  2  0
 10  8  1  0
 11 10  1  0
 12 10  2  0
 13  1  1  0
 13  2  1  0
 13  3  1  0
 13  9  1  0
M  CHG  2  10   1  11  -1
M  END
>  <NAME>  (6169) 
PARA-NITROPHENYLTRIMETHYLSILANE

>  <SYNONYMS>  (6169) 


>  <SPECTRUM TYPE>  (6169) 
MS1

>  <INSTRUMENT TYPE>  (6169) 
EI-B

>  <INSTRUMENT>  (6169) 
JEOL JMS-D-3000

>  <ION MODE>  (6169) 
P

>  <INCHIKEY>  (6169) 
IJGJSNAIGBFOTK-UHFFFAOYSA-N

>  <FORMULA>  (6169) 
C9H13NO2Si

>  <EXACT MASS>  (6169) 
195.071555186

>  <MW>  (6169) 
195

>  <ID>  (6169) 
JP001973

>  <CONTRIBUTOR>  (6169) 
University of Tokyo Team, {Faculty of Engineering, University of Tokyo

>  <COMMENT>  (6169) 
SMILES=[O-1][N+1](=O)c(c1)ccc(c1)[Si](C)(C)C
InChI=InChI=1S/C9H13NO2Si/c1-13(2,3)9-6-4-8(5-7-9)10(11)12/h4-7H,1-3H3
computed SMILES=O=N(=O)C1=CC=C(C=C1)[Si](C)(C)C
accession=JP001973
date=2016.01.19 (Created 2008.10.21, modified 2011.05.06)
author=MASS SPECTROSCOPY SOC. OF JAPAN (MSSJ)
license=CC BY-NC-SA
exact mass=195.07156
ionization energy=70 eV
ion type=[M]+*
computed spectral entropy=2.031988185524112
computed normalized entropy=0.6312726231392644
SPLASH=splash10-001i-1900000000-0bed72ad0b8421be8350
submitter=submitter = University of Tokyo Team (Faculty of Engineering, University of Tokyo)
MoNA Rating=3.75

>  <NUM PEAKS>  (6169) 
25

>  <MASS SPECTRAL PEAKS>  (6169) 
43 3.51
45 2.18
53 2.33
55 1.11
58 1.05
67 1.44
73 5.44
83 1.91
93 3.23
104 1.47
105 1.88
119 8.59
120 2.55
121 1.82
122 3.43
133 1.15
134 22.03
135 3.32
136 1.22
150 1.41
180 99.99
181 14.85
182 5.48
195 5.07
196 0.87

$$$$

     RDKit          2D

 13 13  0  0  0  0  0  0  0  0999 V2000
   -5.5652    3.2092    0.0000 C   0  0  0  0  0  0  0  0  0  0  0  0
   -2.6323    1.3102    0.0000 C   0  0  0  0  0  0  0  0  0  0  0  0
   -0.7039    1.3102    0.0000 C   0  0  0  0  0  0  0  0  0  0  0  0
   -4.2662    2.4592    0.0000 C   0  0  0  0  0  0  0  0  0  0  0  0
    3.5281    0.9592    0.0000 C   0  0  0  0  0  0  0  0  0  0  0  0
    3.5285    2.4601    0.0000 C   0  0  0  0  0  0  0  0  0  0  0  0
    2.2285    0.2084    0.0000 C   0  0  0  0  0  0  0  0  0  0  0  0
    2.2295    3.2101    0.0000 C   0  0  0  0  0  0  0  0  0  0  0  0
    0.9295    0.9584    0.0000 C   0  0  0  0  0  0  0  0  0  0  0  0
   -2.9671    3.2092    0.0000 C   0  0  0  0  0  0  0  0  0  0  0  0
   -0.3691    3.2092    0.0000 C   0  0  0  0  0  0  0  0  0  0  0  0
    0.9300    2.4592    0.0000 C   0  0  0  0  0  0  0  0  0  0  0  0
   -1.6681    2.4592    0.0000 Si  0  0  0  0  0  4  0  0  0  0  0  0
  4  1  2  0
  6  5  2  0
  7  5  1  0
  8  6  1  0
  9  7  2  0
 10  4  1  0
 12  8  2  0
 12  9  1  0
 12 11  1  0
 13  2  1  0
 13  3  1  0
 13 10  1  0
 13 11  1  0
M  END
>  <NAME>  (6170) 
ALLYLBENZYLDIMETHYLSILANE

>  <SYNONYMS>  (6170) 


>  <SPECTRUM TYPE>  (6170) 
MS1

>  <INSTRUMENT TYPE>  (6170) 
EI-B

>  <INSTRUMENT>  (6170) 
JEOL JMS-D-3000

>  <ION MODE>  (6170) 
P

>  <INCHIKEY>  (6170) 
MWHVQTOELUOXTM-UHFFFAOYSA-N

>  <FORMULA>  (6170) 
C12H18Si

>  <EXACT MASS>  (6170) 
190.117777106

>  <MW>  (6170) 
190

>  <ID>  (6170) 
JP001972

>  <CONTRIBUTOR>  (6170) 
University of Tokyo Team, {Faculty of Engineering, University of Tokyo

>  <COMMENT>  (6170) 
InChI=InChI=1S/C12H18Si/c1-4-10-13(2,3)11-12-8-6-5-7-9-12/h4-9H,1,10-11H2,2-3H3
SMILES=C=CC[Si](C)(C)Cc(c1)cccc1
computed SMILES=C=CC[Si](C)(C)CC=1C=CC=CC1
accession=JP001972
date=2016.01.19 (Created 2008.10.21, modified 2011.05.06)
author=MASS SPECTROSCOPY SOC. OF JAPAN (MSSJ)
license=CC BY-NC-SA
exact mass=190.11778
ionization energy=70 eV
ion type=[M]+*
computed spectral entropy=2.222365815714477
computed normalized entropy=0.741843934230468
SPLASH=splash10-0002-3900000000-2a04da553afb3752591c
submitter=submitter = University of Tokyo Team (Faculty of Engineering, University of Tokyo)
MoNA Rating=3.75

>  <NUM PEAKS>  (6170) 
20

>  <MASS SPECTRAL PEAKS>  (6170) 
41 3.05
44 9.74
45 5.77
59 16.25
65 3.08
71 5.11
91 5.44
99 23.1
100 2.57
105 2.84
107 2.4
119 2.4
121 36.29
122 4.98
133 3.79
148 2.71
149 99.99
150 15.18
151 4.52
190 7.64

$$$$

     RDKit          2D

 17 13  0  0  0  0  0  0  0  0999 V2000
    1.1437    1.1474    0.0000 C   0  0  0  0  0  0  0  0  0  0  0  0
   -4.7044   -1.0920    0.0000 C   0  0  0  0  0  0  0  0  0  0  0  0
   -3.4321   -2.4632    0.0000 C   0  0  0  0  0  0  0  0  0  0  0  0
   -2.5821    3.1760    0.0000 C   0  0  0  0  0  0  0  0  0  0  0  0
   -4.2020    2.2408    0.0000 C   0  0  0  0  0  0  0  0  0  0  0  0
   -0.5132   -0.7779    0.0000 C   0  0  0  0  0  3  0  0  0  0  0  0
   -1.8122   -1.5279    0.0000 C   0  0  0  0  0  0  0  0  0  0  0  0
   -1.3099    1.8049    0.0000 C   0  0  0  0  0  0  0  0  0  0  0  0
   -0.2896    0.7053    0.0000 C   0  0  0  0  0  0  0  0  0  0  0  0
   -3.6507    0.4534    0.0000 C   0  0  0  0  0  0  0  0  0  0  0  0
   -3.2085   -0.9799    0.0000 C   0  0  0  0  0  0  0  0  0  0  0  0
   -2.8057    1.6928    0.0000 C   0  0  0  0  0  0  0  0  0  0  0  0
   -5.1339    0.6770    0.0000 O   0  0  0  0  0  0  0  0  0  0  0  0
    0.0000    0.0000    0.0000 C   0  0  0  0  0  3  0  0  0  0  0  0
    0.0000    0.0000    0.0000 C   0  0  0  0  0  3  0  0  0  0  0  0
    0.0000    0.0000    0.0000 C   0  0  0  0  0  3  0  0  0  0  0  0
    0.0000    0.0000    0.0000 Sn  0  0  0  0  0 15  0  0  0  0  0  0
  7  6  1  0
  9  1  2  0
  9  6  1  0
  9  8  1  0
 11  2  1  0
 11  3  1  0
 11  7  1  0
 11 10  1  0
 12  4  1  0
 12  5  1  0
 12  8  1  0
 12 10  1  0
 13 10  2  0
M  RAD  4   6   2  14   2  15   2  16   2
M  END
>  <NAME>  (6171) 
2,2,7,7-TETRAMETHYL-4-(TRIMETHYLSTANNYLMETHYL)CYCLOHEPT-4-ENONE

>  <SYNONYMS>  (6171) 


>  <SPECTRUM TYPE>  (6171) 
MS1

>  <INSTRUMENT TYPE>  (6171) 
EI-B

>  <INSTRUMENT>  (6171) 
JEOL JMS-D-3000

>  <ION MODE>  (6171) 
P

>  <INCHIKEY>  (6171) 
HLYWPYLMMCZNEC-UHFFFAOYSA-N

>  <FORMULA>  (6171) 
C15H28OSn

>  <EXACT MASS>  (6171) 
344.11621021599996

>  <MW>  (6171) 
344

>  <ID>  (6171) 
JP001971

>  <CONTRIBUTOR>  (6171) 
University of Tokyo Team, {Faculty of Engineering, University of Tokyo

>  <COMMENT>  (6171) 
SMILES=O=C(C(C)(C)1)C(C)(C)CC(=CC1)C[Sn](C)(C)C
InChI=InChI=1S/C12H19O.3CH3.Sn/c1-9-6-7-11(2,3)10(13)12(4,5)8-9;;;;/h6H,1,7-8H2,2-5H3;3*1H3;
computed SMILES=[Sn].O=C1C(C)(C)C[CH]C(=C)CC1(C)C.[CH3].[CH3].[CH3]
accession=JP001971
date=2016.01.19 (Created 2008.10.21, modified 2011.05.06)
author=MASS SPECTROSCOPY SOC. OF JAPAN (MSSJ)
license=CC BY-NC-SA
exact mass=344.11621
ionization energy=70 eV
ion type=[M]+*
computed spectral entropy=2.8278572055846984
computed normalized entropy=0.8580088519408484
SPLASH=splash10-03xr-1902000000-1bd1d8db3973c830c8fb
submitter=submitter = University of Tokyo Team (Faculty of Engineering, University of Tokyo)
MoNA Rating=3.75

>  <NUM PEAKS>  (6171) 
27

>  <MASS SPECTRAL PEAKS>  (6171) 
41 11.43
55 6.04
67 6.93
79 9.83
93 6.01
95 4.58
107 8.08
133 5.04
135 8.41
150 5.24
161 45.45
162 25.57
163 67.07
164 27.94
165 99.99
167 13.84
169 18.21
325 6.67
326 4.15
327 11.11
328 5.88
329 16.3
340 9.66
341 6.45
342 16.5
343 8.69
344 21.94

$$$$

     RDKit          2D

 17 17  0  0  0  0  0  0  0  0999 V2000
   -0.1094    2.3928    0.0000 C   0  0  0  0  0  0  0  0  0  0  0  0
    0.6921   -3.4031    0.0000 C   0  0  0  0  0  0  0  0  0  0  0  0
    2.7039   -3.4031    0.0000 C   0  0  0  0  0  0  0  0  0  0  0  0
    3.9154    0.3306    0.0000 C   0  0  0  0  0  0  0  0  0  0  0  0
    2.2917    1.5114    0.0000 C   0  0  0  0  0  0  0  0  0  0  0  0
   -0.4071   -1.7877    0.0000 C   0  0  0  0  0  0  0  0  0  0  0  0
   -2.5255   -1.9000    0.0000 C   0  0  0  0  0  0  0  0  0  0  0  0
   -2.6377    0.2183    0.0000 C   0  0  0  0  0  0  0  0  0  0  0  0
    1.1044    1.5114    0.0000 C   0  0  0  0  0  0  0  0  0  0  0  0
    0.4880   -1.4004    0.0000 C   0  0  0  0  0  0  0  0  0  0  0  0
   -0.5194    0.3306    0.0000 C   0  0  0  0  0  0  0  0  0  0  0  0
    2.9080   -1.4004    0.0000 C   0  0  0  0  0  0  0  0  0  0  0  0
    1.6980   -2.2904    0.0000 C   0  0  0  0  0  0  0  0  0  0  0  0
    2.4480    0.0196    0.0000 C   0  0  0  0  0  0  0  0  0  0  0  0
    0.9480    0.0196    0.0000 C   0  0  0  0  0  0  0  0  0  0  0  0
    4.3358   -1.8604    0.0000 O   0  0  0  0  0  0  0  0  0  0  0  0
   -1.5224   -0.7847    0.0000 Si  0  0  0  0  0  4  0  0  0  0  0  0
  9  1  2  0
 13  2  1  0
 13  3  1  0
 13 10  1  0
 13 12  1  0
 14  4  1  0
 14  5  1  0
 14 12  1  0
 15  9  1  0
 15 10  1  0
 15 11  1  0
 15 14  1  0
 16 12  2  0
 17  6  1  0
 17  7  1  0
 17  8  1  0
 17 11  1  0
M  END
>  <NAME>  (6172) 
2,2,5,5-TETRAMETHYL-3-(TRIMETHYLSILYLMETHYL)-3-VINYLCYCLOPENTANONE

>  <SYNONYMS>  (6172) 


>  <SPECTRUM TYPE>  (6172) 
MS1

>  <INSTRUMENT TYPE>  (6172) 
EI-B

>  <INSTRUMENT>  (6172) 
JEOL JMS-D-3000

>  <ION MODE>  (6172) 
P

>  <INCHIKEY>  (6172) 
HLDNWEJDMZLBMJ-UHFFFAOYSA-N

>  <FORMULA>  (6172) 
C15H28OSi

>  <EXACT MASS>  (6172) 
252.19094204599998

>  <MW>  (6172) 
252

>  <ID>  (6172) 
JP001970

>  <CONTRIBUTOR>  (6172) 
University of Tokyo Team, {Faculty of Engineering, University of Tokyo

>  <COMMENT>  (6172) 
SMILES=C=CC(C[Si](C)(C)C)(C1)C(C)(C)C(=O)C(C)(C)1
InChI=InChI=1S/C15H28OSi/c1-9-15(11-17(6,7)8)10-13(2,3)12(16)14(15,4)5/h9H,1,10-11H2,2-8H3
computed SMILES=O=C1C(C)(C)CC(C=C)(C[Si](C)(C)C)C1(C)C
accession=JP001970
date=2016.01.19 (Created 2008.10.21, modified 2011.05.06)
author=MASS SPECTROSCOPY SOC. OF JAPAN (MSSJ)
license=CC BY-NC-SA
exact mass=252.19094
ionization energy=70 eV
ion type=[M]+*
computed spectral entropy=2.7976163991285463
computed normalized entropy=0.8072214610664785
SPLASH=splash10-00dj-9310000000-3a418bb3a05b6b0b55d1
submitter=submitter = University of Tokyo Team (Faculty of Engineering, University of Tokyo)
MoNA Rating=3.75

>  <NUM PEAKS>  (6172) 
32

>  <MASS SPECTRAL PEAKS>  (6172) 
42 6.68
43 4.25
45 9.82
55 4.64
59 10.99
67 7.95
73 99.99
74 8.59
75 14.97
81 5
91 3.58
93 3.69
95 54.14
96 4.68
107 3.32
113 3.45
119 3.41
144 3.99
147 3.9
153 5.13
158 16.09
168 5.43
179 3.51
181 6.98
185 23.77
186 3.69
196 3.84
209 4.27
237 12.67
238 3.32
252 13.25
253 3.06

$$$$

     RDKit          2D

 17 17  0  0  0  0  0  0  0  0999 V2000
   -5.0095    0.2549    0.0000 C   0  0  0  0  0  0  0  0  0  0  0  0
   -3.7373   -1.1163    0.0000 C   0  0  0  0  0  0  0  0  0  0  0  0
   -2.8873    4.5229    0.0000 C   0  0  0  0  0  0  0  0  0  0  0  0
   -4.5072    3.5877    0.0000 C   0  0  0  0  0  0  0  0  0  0  0  0
    0.9179    0.3745    0.0000 C   0  0  0  0  0  0  0  0  0  0  0  0
    3.0377    0.4538    0.0000 C   0  0  0  0  0  0  0  0  0  0  0  0
    2.9584    2.5737    0.0000 C   0  0  0  0  0  0  0  0  0  0  0  0
   -0.8184    0.5690    0.0000 C   0  0  0  0  0  0  0  0  0  0  0  0
   -2.1174   -0.1810    0.0000 C   0  0  0  0  0  0  0  0  0  0  0  0
   -1.6151    3.1518    0.0000 C   0  0  0  0  0  0  0  0  0  0  0  0
    0.8386    2.4944    0.0000 C   0  0  0  0  0  0  0  0  0  0  0  0
   -0.5948    2.0522    0.0000 C   0  0  0  0  0  0  0  0  0  0  0  0
   -3.9559    1.8003    0.0000 C   0  0  0  0  0  0  0  0  0  0  0  0
   -3.5137    0.3670    0.0000 C   0  0  0  0  0  0  0  0  0  0  0  0
   -3.1109    3.0397    0.0000 C   0  0  0  0  0  0  0  0  0  0  0  0
   -5.4391    2.0239    0.0000 O   0  0  0  0  0  0  0  0  0  0  0  0
    1.9381    1.4741    0.0000 Si  0  0  0  0  0  4  0  0  0  0  0  0
  9  8  1  0
 12  8  2  0
 12 10  1  0
 12 11  1  0
 14  1  1  0
 14  2  1  0
 14  9  1  0
 14 13  1  0
 15  3  1  0
 15  4  1  0
 15 10  1  0
 15 13  1  0
 16 13  2  0
 17  5  1  0
 17  6  1  0
 17  7  1  0
 17 11  1  0
M  END
>  <NAME>  (6173) 
2,2,7,7-TETRAMETHYL-4-(TRIMETHYLSILYLMETHYL)CYCLOHEPT-4-ENONE

>  <SYNONYMS>  (6173) 


>  <SPECTRUM TYPE>  (6173) 
MS1

>  <INSTRUMENT TYPE>  (6173) 
EI-B

>  <INSTRUMENT>  (6173) 
JEOL JMS-D-3000

>  <ION MODE>  (6173) 
P

>  <INCHIKEY>  (6173) 
IFNYFGDYSCEBQD-UHFFFAOYSA-N

>  <FORMULA>  (6173) 
C15H28OSi

>  <EXACT MASS>  (6173) 
252.190942046

>  <MW>  (6173) 
252

>  <ID>  (6173) 
JP001969

>  <CONTRIBUTOR>  (6173) 
University of Tokyo Team, {Faculty of Engineering, University of Tokyo

>  <COMMENT>  (6173) 
SMILES=C[Si](C)(C)CC(=C1)CC(C)(C)C(=O)C(C)(C)C1
InChI=InChI=1S/C15H28OSi/c1-14(2)9-8-12(11-17(5,6)7)10-15(3,4)13(14)16/h8H,9-11H2,1-7H3
computed SMILES=O=C1C(C)(C)CC=C(CC1(C)C)C[Si](C)(C)C
accession=JP001969
date=2016.01.19 (Created 2008.10.21, modified 2011.05.06)
author=MASS SPECTROSCOPY SOC. OF JAPAN (MSSJ)
license=CC BY-NC-SA
exact mass=252.19094
ionization energy=70 eV
ion type=[M]+*
computed spectral entropy=2.6102527327596494
computed normalized entropy=0.7674511179013158
SPLASH=splash10-00di-9310000000-10162daf36dcf2e2b3ef
submitter=submitter = University of Tokyo Team (Faculty of Engineering, University of Tokyo)
MoNA Rating=3.75

>  <NUM PEAKS>  (6173) 
30

>  <MASS SPECTRAL PEAKS>  (6173) 
42 5.26
43 2.23
45 8.47
55 3.23
59 5.84
67 4.05
73 99.99
74 8.85
75 12.63
79 1.98
91 2.14
93 3.32
95 28.12
96 2.46
107 2.36
144 2.39
147 2.55
158 14.87
159 2.12
168 5.26
169 2.23
181 9.19
185 19.82
186 3.36
196 3.49
209 2.13
237 9.61
238 2.04
252 13.79
253 2.99

$$$$

     RDKit          2D

 15 15  0  0  0  0  0  0  0  0999 V2000
    2.9001    3.4974    0.0000 C   0  0  0  0  0  0  0  0  0  0  0  0
    1.0656    4.3132    0.0000 C   0  0  0  0  0  0  0  0  0  0  0  0
    0.5349   -0.8223    0.0000 C   0  0  0  0  0  0  0  0  0  0  0  0
    2.4950   -0.4006    0.0000 C   0  0  0  0  0  0  0  0  0  0  0  0
   -1.9436    2.3814    0.0000 C   0  0  0  0  0  0  0  0  0  0  0  0
   -3.9926    1.8324    0.0000 C   0  0  0  0  0  0  0  0  0  0  0  0
   -3.4436   -0.2167    0.0000 C   0  0  0  0  0  0  0  0  0  0  0  0
    0.0702    2.5752    0.0000 C   0  0  0  0  0  0  0  0  0  0  0  0
   -1.3946    0.3324    0.0000 C   0  0  0  0  0  0  0  0  0  0  0  0
   -0.0955    1.0824    0.0000 C   0  0  0  0  0  0  0  0  0  0  0  0
    2.2800    1.5878    0.0000 C   0  0  0  0  0  0  0  0  0  0  0  0
    1.5300    2.8869    0.0000 C   0  0  0  0  0  0  0  0  0  0  0  0
    1.2802    0.4795    0.0000 C   0  0  0  0  0  0  0  0  0  0  0  0
    3.7717    1.4304    0.0000 O   0  0  0  0  0  0  0  0  0  0  0  0
   -2.6936    1.0824    0.0000 Si  0  0  0  0  0  4  0  0  0  0  0  0
 10  8  1  0
 10  9  1  0
 12  1  1  0
 12  2  1  0
 12  8  1  0
 12 11  1  0
 13  3  1  0
 13  4  1  0
 13 10  1  0
 13 11  1  0
 14 11  2  0
 15  5  1  0
 15  6  1  0
 15  7  1  0
 15  9  1  0
M  END
>  <NAME>  (6174) 
2,2,5,5-TETRAMETHYL-3-(TRIMETHYLSILYLMETHYL)CYCLOPENTANONE

>  <SYNONYMS>  (6174) 


>  <SPECTRUM TYPE>  (6174) 
MS1

>  <INSTRUMENT TYPE>  (6174) 
EI-B

>  <INSTRUMENT>  (6174) 
JEOL JMS-D-3000

>  <ION MODE>  (6174) 
P

>  <INCHIKEY>  (6174) 
QQGIKIMSAOMDCY-UHFFFAOYSA-N

>  <FORMULA>  (6174) 
C13H26OSi

>  <EXACT MASS>  (6174) 
226.175291982

>  <MW>  (6174) 
226

>  <ID>  (6174) 
JP001968

>  <CONTRIBUTOR>  (6174) 
University of Tokyo Team, {Faculty of Engineering, University of Tokyo

>  <COMMENT>  (6174) 
SMILES=C[Si](C)(C)CC(C1)C(C)(C)C(=O)C(C)(C)1
InChI=InChI=1S/C13H26OSi/c1-12(2)8-10(9-15(5,6)7)13(3,4)11(12)14/h10H,8-9H2,1-7H3
computed SMILES=O=C1C(C)(C)CC(C[Si](C)(C)C)C1(C)C
accession=JP001968
date=2016.01.19 (Created 2008.10.21, modified 2011.05.06)
author=MASS SPECTROSCOPY SOC. OF JAPAN (MSSJ)
license=CC BY-NC-SA
exact mass=226.17529
ionization energy=70 eV
ion type=[M]+*
computed spectral entropy=2.552766180544388
computed normalized entropy=0.7660892879621504
SPLASH=splash10-00ba-9330000000-dc8af67582eff6b34d19
submitter=submitter = University of Tokyo Team (Faculty of Engineering, University of Tokyo)
MoNA Rating=3.75

>  <NUM PEAKS>  (6174) 
28

>  <MASS SPECTRAL PEAKS>  (6174) 
41 7.99
43 2.28
45 7.41
55 5.05
59 8.37
67 4.31
69 3.16
72 2.63
73 99.99
74 8.89
75 16.52
83 9.27
84 2.41
95 69.92
96 5.72
113 3.5
121 3.14
142 4.07
155 7.88
156 6.96
170 2.94
185 53.04
186 9.21
187 2.68
211 8.4
226 80.98
227 15.89
228 4.31

$$$$

     RDKit          2D

 15 14  0  0  0  0  0  0  0  0999 V2000
    2.2308    4.1851    0.0000 C   0  0  0  0  0  0  0  0  0  0  0  0
   -4.2643    1.9351    0.0000 C   0  0  0  0  0  0  0  0  0  0  0  0
   -1.6663    1.9351    0.0000 C   0  0  0  0  0  0  0  0  0  0  0  0
   -0.7021    6.0842    0.0000 C   0  0  0  0  0  0  0  0  0  0  0  0
   -2.6305    6.0842    0.0000 C   0  0  0  0  0  0  0  0  0  0  0  0
   -6.3134    5.4841    0.0000 C   0  0  0  0  0  0  0  0  0  0  0  0
   -6.8624    3.4351    0.0000 C   0  0  0  0  0  0  0  0  0  0  0  0
   -4.8134    2.8861    0.0000 C   0  0  0  0  0  0  0  0  0  0  0  0
    0.9318    4.9351    0.0000 C   0  0  0  0  0  0  0  0  0  0  0  0
   -0.3672    4.1851    0.0000 C   0  0  0  0  0  0  0  0  0  0  0  0
   -2.9653    2.6851    0.0000 C   0  0  0  0  0  0  0  0  0  0  0  0
   -2.9653    4.1851    0.0000 C   0  0  0  0  0  0  0  0  0  0  0  0
   -1.6663    4.9351    0.0000 C   0  0  0  0  0  0  0  0  0  0  0  0
   -4.2643    4.9351    0.0000 O   0  0  0  0  0  0  0  0  0  0  0  0
   -5.5634    4.1851    0.0000 Si  0  0  0  0  0  4  0  0  0  0  0  0
  9  1  2  0
 10  9  1  0
 11  2  1  0
 11  3  1  0
 12 11  2  0
 13  4  1  0
 13  5  1  0
 13 10  1  0
 13 12  1  0
 14 12  1  0
 15  6  1  0
 15  7  1  0
 15  8  1  0
 15 14  1  0
M  END
>  <NAME>  (6175) 
2,4,4-TRIMETHYL-3-TRIMETHYLSILOXYHEPTA-2,6-DIENE

>  <SYNONYMS>  (6175) 


>  <SPECTRUM TYPE>  (6175) 
MS1

>  <INSTRUMENT TYPE>  (6175) 
EI-B

>  <INSTRUMENT>  (6175) 
JEOL JMS-D-3000

>  <ION MODE>  (6175) 
P

>  <INCHIKEY>  (6175) 
HEERNIKATQJDAJ-UHFFFAOYSA-N

>  <FORMULA>  (6175) 
C13H26OSi

>  <EXACT MASS>  (6175) 
226.175291982

>  <MW>  (6175) 
226

>  <ID>  (6175) 
JP001967

>  <CONTRIBUTOR>  (6175) 
University of Tokyo Team, {Faculty of Engineering, University of Tokyo

>  <COMMENT>  (6175) 
SMILES=C=CCC(C)(C)C(=C(C)C)O[Si](C)(C)C
InChI=InChI=1S/C13H26OSi/c1-9-10-13(4,5)12(11(2)3)14-15(6,7)8/h9H,1,10H2,2-8H3
computed SMILES=O(C(=C(C)C)C(C)(C)CC=C)[Si](C)(C)C
accession=JP001967
date=2016.01.19 (Created 2008.10.21, modified 2011.05.06)
author=MASS SPECTROSCOPY SOC. OF JAPAN (MSSJ)
license=CC BY-NC-SA
exact mass=226.17529
ionization energy=70 eV
ion type=[M]+*
computed spectral entropy=2.3285152849795967
computed normalized entropy=0.7772774975706223
SPLASH=splash10-0072-9300000000-c36942d8439c8292dc64
submitter=submitter = University of Tokyo Team (Faculty of Engineering, University of Tokyo)
MoNA Rating=3.75

>  <NUM PEAKS>  (6175) 
20

>  <MASS SPECTRAL PEAKS>  (6175) 
41 7.11
45 6.68
55 6.65
67 9.89
73 59.23
74 5.18
75 21.15
83 2.98
93 3.44
95 99.99
96 8.01
156 15.66
157 3.09
170 5.1
185 57.07
186 9.92
187 2.78
211 9.63
226 12
227 2.51

$$$$

     RDKit          2D

 13 12  0  0  0  0  0  0  0  0999 V2000
    2.2308    4.1851    0.0000 C   0  0  0  0  0  0  0  0  0  0  0  0
   -2.9653    2.6851    0.0000 C   0  0  0  0  0  0  0  0  0  0  0  0
   -0.7021    6.0842    0.0000 C   0  0  0  0  0  0  0  0  0  0  0  0
   -2.6305    6.0842    0.0000 C   0  0  0  0  0  0  0  0  0  0  0  0
   -6.3134    5.4841    0.0000 C   0  0  0  0  0  0  0  0  0  0  0  0
   -6.8624    3.4351    0.0000 C   0  0  0  0  0  0  0  0  0  0  0  0
   -4.8134    2.8861    0.0000 C   0  0  0  0  0  0  0  0  0  0  0  0
    0.9318    4.9351    0.0000 C   0  0  0  0  0  0  0  0  0  0  0  0
   -0.3672    4.1851    0.0000 C   0  0  0  0  0  0  0  0  0  0  0  0
   -2.9653    4.1851    0.0000 C   0  0  0  0  0  0  0  0  0  0  0  0
   -1.6663    4.9351    0.0000 C   0  0  0  0  0  0  0  0  0  0  0  0
   -4.2643    4.9351    0.0000 O   0  0  0  0  0  0  0  0  0  0  0  0
   -5.5634    4.1851    0.0000 Si  0  0  0  0  0  4  0  0  0  0  0  0
  8  1  2  0
  9  8  1  0
 10  2  2  0
 11  3  1  0
 11  4  1  0
 11  9  1  0
 11 10  1  0
 12 10  1  0
 13  5  1  0
 13  6  1  0
 13  7  1  0
 13 12  1  0
M  END
>  <NAME>  (6176) 
3,3-DIMETHYL-2-TRIMETHYLSILOXYHEXA-1,5-DIENE

>  <SYNONYMS>  (6176) 


>  <SPECTRUM TYPE>  (6176) 
MS1

>  <INSTRUMENT TYPE>  (6176) 
EI-B

>  <INSTRUMENT>  (6176) 
JEOL JMS-D-3000

>  <ION MODE>  (6176) 
P

>  <INCHIKEY>  (6176) 
SEIFSZWKKUPJQW-UHFFFAOYSA-N

>  <FORMULA>  (6176) 
C11H22OSi

>  <EXACT MASS>  (6176) 
198.14399185399998

>  <MW>  (6176) 
198

>  <ID>  (6176) 
JP001966

>  <CONTRIBUTOR>  (6176) 
University of Tokyo Team, {Faculty of Engineering, University of Tokyo

>  <COMMENT>  (6176) 
SMILES=C=CCC(C)(C)C(=C)O[Si](C)(C)C
InChI=InChI=1S/C11H22OSi/c1-8-9-11(3,4)10(2)12-13(5,6)7/h8H,1-2,9H2,3-7H3
computed SMILES=O(C(=C)C(C)(C)CC=C)[Si](C)(C)C
accession=JP001966
date=2016.01.19 (Created 2008.10.21, modified 2011.05.06)
author=MASS SPECTROSCOPY SOC. OF JAPAN (MSSJ)
license=CC BY-NC-SA
exact mass=198.14399
ionization energy=70 eV
ion type=[M]+*
computed spectral entropy=2.697978091518165
computed normalized entropy=0.7932436106368137
SPLASH=splash10-006x-9300000000-5d54a6de13cbb39c3d8e
submitter=submitter = University of Tokyo Team (Faculty of Engineering, University of Tokyo)
MoNA Rating=3.75

>  <NUM PEAKS>  (6176) 
30

>  <MASS SPECTRAL PEAKS>  (6176) 
43 6.17
45 10.55
47 4.02
55 5.19
59 3.88
61 4.02
67 51.42
68 3.23
73 99.99
74 9.13
75 53.21
76 4.02
77 3.67
91 96.05
92 8.17
93 6.88
99 3.88
127 5.61
130 5.69
141 11.19
142 4.29
143 3.21
155 10.21
156 3.15
157 26.43
158 4.35
183 33.75
184 5.42
198 32.78
199 5.79

$$$$

     RDKit          2D

 13 12  0  0  0  0  0  0  0  0999 V2000
    2.1863    4.2623    0.0000 C   0  0  0  0  0  0  0  0  0  0  0  0
   -4.3089    2.0123    0.0000 C   0  0  0  0  0  0  0  0  0  0  0  0
   -1.7108    2.0123    0.0000 C   0  0  0  0  0  0  0  0  0  0  0  0
   -6.3579    5.5613    0.0000 C   0  0  0  0  0  0  0  0  0  0  0  0
   -6.9070    3.5123    0.0000 C   0  0  0  0  0  0  0  0  0  0  0  0
   -4.8579    2.9632    0.0000 C   0  0  0  0  0  0  0  0  0  0  0  0
    0.8873    5.0123    0.0000 C   0  0  0  0  0  0  0  0  0  0  0  0
   -0.4118    4.2623    0.0000 C   0  0  0  0  0  0  0  0  0  0  0  0
   -1.7108    5.0123    0.0000 C   0  0  0  0  0  0  0  0  0  0  0  0
   -3.0099    2.7623    0.0000 C   0  0  0  0  0  0  0  0  0  0  0  0
   -3.0099    4.2623    0.0000 C   0  0  0  0  0  0  0  0  0  0  0  0
   -4.3089    5.0123    0.0000 O   0  0  0  0  0  0  0  0  0  0  0  0
   -5.6079    4.2623    0.0000 Si  0  0  0  0  0  4  0  0  0  0  0  0
  7  1  1  0
  8  7  1  0
  8  9  2  0
 10  2  1  0
 10  3  1  0
 11  9  1  0
 11 10  2  0
 12 11  1  0
 13  4  1  0
 13  5  1  0
 13  6  1  0
 13 12  1  0
M  END
>  <NAME>  (6177) 
2-METHYL-3-TRIMETHYLSILOXYHEPTA-2,6-DIENE

>  <SYNONYMS>  (6177) 


>  <SPECTRUM TYPE>  (6177) 
MS1

>  <INSTRUMENT TYPE>  (6177) 
EI-B

>  <INSTRUMENT>  (6177) 
JEOL JMS-D-3000

>  <ION MODE>  (6177) 
P

>  <INCHIKEY>  (6177) 
XMLUNFLKLCCWQP-CMDGGOBGSA-N

>  <FORMULA>  (6177) 
C11H22OSi

>  <EXACT MASS>  (6177) 
198.143991854

>  <MW>  (6177) 
198

>  <ID>  (6177) 
JP001965

>  <CONTRIBUTOR>  (6177) 
University of Tokyo Team, {Faculty of Engineering, University of Tokyo

>  <COMMENT>  (6177) 
SMILES=CCC=CC(=C(C)C)O[Si](C)(C)C
InChI=InChI=1S/C11H22OSi/c1-7-8-9-11(10(2)3)12-13(4,5)6/h8-9H,7H2,1-6H3/b9-8+
computed SMILES=O(C(C=CCC)=C(C)C)[Si](C)(C)C
accession=JP001965
date=2016.01.19 (Created 2008.10.21, modified 2011.05.06)
author=MASS SPECTROSCOPY SOC. OF JAPAN (MSSJ)
license=CC BY-NC-SA
exact mass=198.14399
ionization energy=70 eV
ion type=[M]+*
computed spectral entropy=2.5850275006832755
computed normalized entropy=0.7934164842927166
SPLASH=splash10-006x-9300000000-6900503668d6fcf28ba0
submitter=submitter = University of Tokyo Team (Faculty of Engineering, University of Tokyo)
MoNA Rating=3.75

>  <NUM PEAKS>  (6177) 
26

>  <MASS SPECTRAL PEAKS>  (6177) 
43 4.22
45 12.37
47 3.58
55 3.34
59 5.55
61 3.85
67 50.26
73 99.99
74 9.01
75 54.69
76 4.21
77 3.4
91 99.33
92 9.06
93 6.45
127 5.52
130 4.82
141 10.18
142 3.59
155 11.41
157 21.1
158 3.59
183 29.09
184 4.96
198 42.1
199 7.5

$$$$

     RDKit          2D

 11 10  0  0  0  0  0  0  0  0999 V2000
    1.9931    3.2978    0.0000 C   0  0  0  0  0  0  0  0  0  0  0  0
   -5.8011    3.2978    0.0000 C   0  0  0  0  0  0  0  0  0  0  0  0
   -4.5021    5.5478    0.0000 C   0  0  0  0  0  0  0  0  0  0  0  0
   -0.9398    5.1969    0.0000 C   0  0  0  0  0  0  0  0  0  0  0  0
   -2.8682    5.1969    0.0000 C   0  0  0  0  0  0  0  0  0  0  0  0
    0.6941    4.0478    0.0000 C   0  0  0  0  0  0  0  0  0  0  0  0
   -0.6050    3.2978    0.0000 C   0  0  0  0  0  0  0  0  0  0  0  0
   -4.5021    4.0478    0.0000 C   0  0  0  0  0  0  0  0  0  0  0  0
   -3.2031    3.2978    0.0000 C   0  0  0  0  0  0  0  0  0  0  0  0
   -1.9040    4.0478    0.0000 C   0  0  0  0  0  0  0  0  0  0  0  0
   -3.2031    1.7978    0.0000 O   0  0  0  0  0  0  0  0  0  0  0  0
  6  1  2  0
  7  6  1  0
  8  2  1  0
  8  3  1  0
  9  8  1  0
 10  4  1  0
 10  5  1  0
 10  7  1  0
 10  9  1  0
 11  9  2  0
M  END
>  <NAME>  (6178) 
2,4,4-TRIMETHYLHEPT-6-EN-3-ONE

>  <SYNONYMS>  (6178) 


>  <SPECTRUM TYPE>  (6178) 
MS1

>  <INSTRUMENT TYPE>  (6178) 
EI-B

>  <INSTRUMENT>  (6178) 
JEOL JMS-D-3000

>  <ION MODE>  (6178) 
P

>  <INCHIKEY>  (6178) 
UCARIABCKZAQBN-UHFFFAOYSA-N

>  <FORMULA>  (6178) 
C10H18O

>  <EXACT MASS>  (6178) 
154.135765196

>  <MW>  (6178) 
154

>  <ID>  (6178) 
JP001964

>  <CONTRIBUTOR>  (6178) 
University of Tokyo Team, {Faculty of Engineering, University of Tokyo

>  <COMMENT>  (6178) 
SMILES=C=CCC(C)(C)C(=O)C(C)C
InChI=InChI=1S/C10H18O/c1-6-7-10(4,5)9(11)8(2)3/h6,8H,1,7H2,2-5H3
computed SMILES=O=C(C(C)C)C(C)(C)CC=C
accession=JP001964
date=2016.01.19 (Created 2008.10.21, modified 2011.05.06)
author=MASS SPECTROSCOPY SOC. OF JAPAN (MSSJ)
license=CC BY-NC-SA
exact mass=154.13577
ionization energy=70 eV
ion type=[M]+*
computed spectral entropy=2.459482295785477
computed normalized entropy=0.7640811356511966
SPLASH=splash10-053u-9100000000-fa87252b0987d90094be
submitter=submitter = University of Tokyo Team (Faculty of Engineering, University of Tokyo)
MoNA Rating=3.75

>  <NUM PEAKS>  (6178) 
25

>  <MASS SPECTRAL PEAKS>  (6178) 
41 31.76
42 4.14
43 55.63
53 2.68
55 77.99
56 4.38
65 1.89
67 9.56
69 4.1
70 5.25
71 52.78
72 2.96
73 3.71
75 1.97
82 22.28
83 99.99
84 7.26
111 32.91
112 2.56
117 1.77
118 1.77
131 5.72
139 1.89
154 24.89
155 2.92

$$$$

     RDKit          2D

 11 10  0  0  0  0  0  0  0  0999 V2000
    1.9040    3.4522    0.0000 C   0  0  0  0  0  0  0  0  0  0  0  0
   -0.6941    1.9522    0.0000 C   0  0  0  0  0  0  0  0  0  0  0  0
   -5.8902    3.4522    0.0000 C   0  0  0  0  0  0  0  0  0  0  0  0
   -4.2563    2.3031    0.0000 C   0  0  0  0  0  0  0  0  0  0  0  0
   -2.3280    2.3031    0.0000 C   0  0  0  0  0  0  0  0  0  0  0  0
    0.6050    4.2022    0.0000 C   0  0  0  0  0  0  0  0  0  0  0  0
   -1.9931    4.2022    0.0000 C   0  0  0  0  0  0  0  0  0  0  0  0
   -0.6941    3.4522    0.0000 C   0  0  0  0  0  0  0  0  0  0  0  0
   -4.5912    4.2022    0.0000 C   0  0  0  0  0  0  0  0  0  0  0  0
   -3.2921    3.4522    0.0000 C   0  0  0  0  0  0  0  0  0  0  0  0
   -4.5912    5.7022    0.0000 O   0  0  0  0  0  0  0  0  0  0  0  0
  6  1  2  0
  8  2  2  0
  8  6  1  0
  8  7  1  0
  9  3  1  0
 10  4  1  0
 10  5  1  0
 10  7  1  0
 10  9  1  0
 11  9  2  0
M  END
>  <NAME>  (6179) 
3,3-DIMETHYL-5-METHYLENEHEPT-6-EN-2-ONE

>  <SYNONYMS>  (6179) 


>  <SPECTRUM TYPE>  (6179) 
MS1

>  <INSTRUMENT TYPE>  (6179) 
EI-B

>  <INSTRUMENT>  (6179) 
JEOL JMS-D-3000

>  <ION MODE>  (6179) 
P

>  <INCHIKEY>  (6179) 
COQAKJCNHZRCGV-UHFFFAOYSA-N

>  <FORMULA>  (6179) 
C10H16O

>  <EXACT MASS>  (6179) 
152.120115132

>  <MW>  (6179) 
152

>  <ID>  (6179) 
JP001963

>  <CONTRIBUTOR>  (6179) 
University of Tokyo Team, {Faculty of Engineering, University of Tokyo

>  <COMMENT>  (6179) 
SMILES=C=CC(=C)CC(C)(C)C(C)=O
InChI=InChI=1S/C10H16O/c1-6-8(2)7-10(4,5)9(3)11/h6H,1-2,7H2,3-5H3
computed SMILES=O=C(C)C(C)(C)CC(=C)C=C
accession=JP001963
date=2016.01.19 (Created 2008.10.21, modified 2011.05.06)
author=MASS SPECTROSCOPY SOC. OF JAPAN (MSSJ)
license=CC BY-NC-SA
exact mass=152.12012
ionization energy=70 eV
ion type=[M]+*
computed spectral entropy=2.804376192774351
computed normalized entropy=0.8245261530231628
SPLASH=splash10-0aou-9400000000-f21aa3432e66e88e3c6b
submitter=submitter = University of Tokyo Team (Faculty of Engineering, University of Tokyo)
MoNA Rating=3.75

>  <NUM PEAKS>  (6179) 
30

>  <MASS SPECTRAL PEAKS>  (6179) 
42 30.6
43 47.69
44 3.6
51 4.59
52 2.44
53 17.85
55 26.06
56 2.11
57 5.56
65 6.73
67 86.09
68 9.43
69 7.92
77 8.07
79 12.47
81 26.21
91 10.2
93 9.09
94 6.61
95 6.15
105 2.36
107 5.6
108 2.15
109 99.99
110 9.74
119 12.78
123 2.44
134 10.7
137 7.86
152 17.87

$$$$

     RDKit          2D

 11 10  0  0  0  0  0  0  0  0999 V2000
   -7.4695    3.9375    0.0000 C   0  0  0  0  0  0  0  0  0  0  0  0
    1.6238    3.1875    0.0000 C   0  0  0  0  0  0  0  0  0  0  0  0
    0.3248    5.4375    0.0000 C   0  0  0  0  0  0  0  0  0  0  0  0
   -4.8714    5.4375    0.0000 C   0  0  0  0  0  0  0  0  0  0  0  0
   -6.1704    3.1875    0.0000 C   0  0  0  0  0  0  0  0  0  0  0  0
   -3.5724    3.1875    0.0000 C   0  0  0  0  0  0  0  0  0  0  0  0
   -2.2733    3.9375    0.0000 C   0  0  0  0  0  0  0  0  0  0  0  0
    0.3248    3.9375    0.0000 C   0  0  0  0  0  0  0  0  0  0  0  0
   -4.8714    3.9375    0.0000 C   0  0  0  0  0  0  0  0  0  0  0  0
   -0.9743    3.1875    0.0000 C   0  0  0  0  0  0  0  0  0  0  0  0
   -0.9743    1.6875    0.0000 O   0  0  0  0  0  0  0  0  0  0  0  0
  5  1  2  0
  7  6  1  0
  8  2  1  0
  8  3  1  0
  9  4  2  0
  9  5  1  0
  9  6  1  0
 10  7  1  0
 10  8  1  0
 11 10  2  0
M  END
>  <NAME>  (6180) 
2-METHYL-6-METHYLENEOCT-7-EN-3-ONE

>  <SYNONYMS>  (6180) 


>  <SPECTRUM TYPE>  (6180) 
MS1

>  <INSTRUMENT TYPE>  (6180) 
EI-B

>  <INSTRUMENT>  (6180) 
JEOL JMS-D-3000

>  <ION MODE>  (6180) 
P

>  <INCHIKEY>  (6180) 
IYFQOCPXUHQIMN-UHFFFAOYSA-N

>  <FORMULA>  (6180) 
C10H16O

>  <EXACT MASS>  (6180) 
152.120115132

>  <MW>  (6180) 
152

>  <ID>  (6180) 
JP001962

>  <CONTRIBUTOR>  (6180) 
University of Tokyo Team, {Faculty of Engineering, University of Tokyo

>  <COMMENT>  (6180) 
SMILES=C=CC(=C)CCC(=O)C(C)C
InChI=InChI=1S/C10H16O/c1-5-9(4)6-7-10(11)8(2)3/h5,8H,1,4,6-7H2,2-3H3
computed SMILES=O=C(CCC(=C)C=C)C(C)C
accession=JP001962
date=2016.01.19 (Created 2008.10.21, modified 2011.05.06)
author=MASS SPECTROSCOPY SOC. OF JAPAN (MSSJ)
license=CC BY-NC-SA
exact mass=152.12012
ionization energy=70 eV
ion type=[M]+*
computed spectral entropy=2.3398133115879878
computed normalized entropy=0.7462342936884112
SPLASH=splash10-007o-9000000000-9c0aa5527f62f7fc4e09
submitter=submitter = University of Tokyo Team (Faculty of Engineering, University of Tokyo)
MoNA Rating=3.75

>  <NUM PEAKS>  (6180) 
23

>  <MASS SPECTRAL PEAKS>  (6180) 
42 26.77
43 84.35
44 2.44
51 3.04
52 2.49
53 19.83
55 4.95
65 4.52
66 2.63
67 52.75
68 5.24
71 99.99
72 5.42
77 3.34
79 19.11
80 3.04
81 56.83
82 4.87
91 2
95 2
109 10.8
119 2.54
152 5.55

$$$$

     RDKit          2D

  9  8  0  0  0  0  0  0  0  0999 V2000
    1.6683    3.1103    0.0000 C   0  0  0  0  0  0  0  0  0  0  0  0
   -4.8268    3.8603    0.0000 C   0  0  0  0  0  0  0  0  0  0  0  0
   -1.2646    5.0094    0.0000 C   0  0  0  0  0  0  0  0  0  0  0  0
   -3.1930    5.0094    0.0000 C   0  0  0  0  0  0  0  0  0  0  0  0
    0.3693    3.8603    0.0000 C   0  0  0  0  0  0  0  0  0  0  0  0
   -0.9297    3.1103    0.0000 C   0  0  0  0  0  0  0  0  0  0  0  0
   -3.5278    3.1103    0.0000 C   0  0  0  0  0  0  0  0  0  0  0  0
   -2.2288    3.8603    0.0000 C   0  0  0  0  0  0  0  0  0  0  0  0
   -3.5278    1.6103    0.0000 O   0  0  0  0  0  0  0  0  0  0  0  0
  5  1  2  0
  6  5  1  0
  7  2  1  0
  8  3  1  0
  8  4  1  0
  8  6  1  0
  8  7  1  0
  9  7  2  0
M  END
>  <NAME>  (6181) 
3,3-DIMETHYLHEX-5-EN-2-ONE

>  <SYNONYMS>  (6181) 


>  <SPECTRUM TYPE>  (6181) 
MS1

>  <INSTRUMENT TYPE>  (6181) 
EI-B

>  <INSTRUMENT>  (6181) 
JEOL JMS-D-3000

>  <ION MODE>  (6181) 
P

>  <INCHIKEY>  (6181) 
AICKKCPBGSMRJG-UHFFFAOYSA-N

>  <FORMULA>  (6181) 
C8H14O

>  <EXACT MASS>  (6181) 
126.104465068

>  <MW>  (6181) 
126

>  <ID>  (6181) 
JP001961

>  <CONTRIBUTOR>  (6181) 
University of Tokyo Team, {Faculty of Engineering, University of Tokyo

>  <COMMENT>  (6181) 
SMILES=C=CCC(C)(C)C(C)=O
InChI=InChI=1S/C8H14O/c1-5-6-8(3,4)7(2)9/h5H,1,6H2,2-4H3
computed SMILES=O=C(C)C(C)(C)CC=C
accession=JP001961
date=2016.01.19 (Created 2008.10.21, modified 2011.05.06)
author=MASS SPECTROSCOPY SOC. OF JAPAN (MSSJ)
license=CC BY-NC-SA
exact mass=126.10447
ionization energy=70 eV
ion type=[M]+*
computed spectral entropy=2.0830052931882443
computed normalized entropy=0.6953242489580247
SPLASH=splash10-0a4i-9100000000-2e562c82393b7adc577b
submitter=submitter = University of Tokyo Team (Faculty of Engineering, University of Tokyo)
MoNA Rating=3.75

>  <NUM PEAKS>  (6181) 
20

>  <MASS SPECTRAL PEAKS>  (6181) 
41 3.04
43 47.63
53 2.78
55 99.99
56 5.13
57 3.81
65 1.46
67 8.58
68 1.43
69 3.04
71 2.55
81 1.57
82 8.72
83 47.14
84 3.47
85 1
93 3.7
108 10.59
111 10.24
126 7.09

$$$$

     RDKit          2D

  9  8  0  0  0  0  0  0  0  0999 V2000
    1.9486    3.3750    0.0000 C   0  0  0  0  0  0  0  0  0  0  0  0
   -5.8457    3.3750    0.0000 C   0  0  0  0  0  0  0  0  0  0  0  0
   -4.5466    5.6250    0.0000 C   0  0  0  0  0  0  0  0  0  0  0  0
    0.6495    4.1250    0.0000 C   0  0  0  0  0  0  0  0  0  0  0  0
   -0.6495    3.3750    0.0000 C   0  0  0  0  0  0  0  0  0  0  0  0
   -1.9486    4.1250    0.0000 C   0  0  0  0  0  0  0  0  0  0  0  0
   -4.5466    4.1250    0.0000 C   0  0  0  0  0  0  0  0  0  0  0  0
   -3.2476    3.3750    0.0000 C   0  0  0  0  0  0  0  0  0  0  0  0
   -3.2476    1.8750    0.0000 O   0  0  0  0  0  0  0  0  0  0  0  0
  4  1  2  0
  5  4  1  0
  6  5  1  0
  7  2  1  0
  7  3  1  0
  8  6  1  0
  8  7  1  0
  9  8  2  0
M  END
>  <NAME>  (6182) 
2-METHYLHEPT-6-EN-3-ONE

>  <SYNONYMS>  (6182) 


>  <SPECTRUM TYPE>  (6182) 
MS1

>  <INSTRUMENT TYPE>  (6182) 
EI-B

>  <INSTRUMENT>  (6182) 
JEOL JMS-D-3000

>  <ION MODE>  (6182) 
P

>  <INCHIKEY>  (6182) 
NJAYZISKWWQCJX-UHFFFAOYSA-N

>  <FORMULA>  (6182) 
C8H14O

>  <EXACT MASS>  (6182) 
126.104465068

>  <MW>  (6182) 
126

>  <ID>  (6182) 
JP001960

>  <CONTRIBUTOR>  (6182) 
University of Tokyo Team, {Faculty of Engineering, University of Tokyo

>  <COMMENT>  (6182) 
SMILES=C=CCCC(=O)C(C)C
InChI=InChI=1S/C8H14O/c1-4-5-6-8(9)7(2)3/h4,7H,1,5-6H2,2-3H3
computed SMILES=O=C(CCC=C)C(C)C
accession=JP001960
date=2016.01.19 (Created 2008.10.21, modified 2011.05.06)
author=MASS SPECTROSCOPY SOC. OF JAPAN (MSSJ)
license=CC BY-NC-SA
exact mass=126.10447
ionization energy=70 eV
ion type=[M]+*
computed spectral entropy=1.7979184947601656
computed normalized entropy=0.6484620240782601
SPLASH=splash10-0ab9-9000000000-44520ecf09e90d393b14
submitter=submitter = University of Tokyo Team (Faculty of Engineering, University of Tokyo)
MoNA Rating=3.75

>  <NUM PEAKS>  (6182) 
16

>  <MASS SPECTRAL PEAKS>  (6182) 
42 3.3
43 49.22
53 3.68
54 1.96
55 99.99
56 5.16
57 1.55
67 1.04
69 1.47
70 1.33
71 54.64
72 3.49
82 1.39
83 38.36
84 2.31
126 5.41

$$$$

     RDKit          2D

 25 25  0  0  0  0  0  0  0  0999 V2000
    1.5662   -3.0307    0.0000 C   0  0  0  0  0  0  0  0  0  0  0  0
    3.6152   -2.4817    0.0000 C   0  0  0  0  0  0  0  0  0  0  0  0
    3.0662   -0.4327    0.0000 C   0  0  0  0  0  0  0  0  0  0  0  0
    1.2183    3.2494    0.0000 C   0  0  0  0  0  0  0  0  0  0  0  0
   -0.2820    4.7491    0.0000 C   0  0  0  0  0  0  0  0  0  0  0  0
   -1.7817    3.2489    0.0000 C   0  0  0  0  0  0  0  0  0  0  0  0
   -3.6304   -0.4332    0.0000 C   0  0  0  0  0  0  0  0  0  0  0  0
   -4.1797   -2.4821    0.0000 C   0  0  0  0  0  0  0  0  0  0  0  0
   -2.1308   -3.0315    0.0000 C   0  0  0  0  0  0  0  0  0  0  0  0
   -5.7604    1.3373    0.0000 C   0  0  0  0  0  0  0  0  0  0  0  0
   -6.3094   -0.7117    0.0000 C   0  0  0  0  0  0  0  0  0  0  0  0
   -4.2604   -1.2607    0.0000 C   0  0  0  0  0  0  0  0  0  0  0  0
    1.0176    0.5191    0.0000 C   0  0  0  0  0  0  0  0  0  0  0  0
   -0.2824   -1.7325    0.0000 C   0  0  0  0  0  0  0  0  0  0  0  0
    1.0172   -0.9817    0.0000 C   0  0  0  0  0  0  0  0  0  0  0  0
   -0.2814    1.2691    0.0000 C   0  0  0  0  0  0  0  0  0  0  0  0
   -1.5814   -0.9825    0.0000 C   0  0  0  0  0  0  0  0  0  0  0  0
   -1.5809    0.5183    0.0000 C   0  0  0  0  0  0  0  0  0  0  0  0
    2.3162   -1.7317    0.0000 C   0  0  0  0  0  0  0  0  0  0  0  0
   -0.2817    3.2491    0.0000 C   0  0  0  0  0  0  0  0  0  0  0  0
   -2.8806   -1.7323    0.0000 C   0  0  0  0  0  0  0  0  0  0  0  0
   -5.0104    0.0383    0.0000 C   0  0  0  0  0  0  0  0  0  0  0  0
   -1.9158    2.4174    0.0000 F   0  0  0  0  0  0  0  0  0  0  0  0
   -3.8441    2.4174    0.0000 F   0  0  0  0  0  0  0  0  0  0  0  0
   -2.8800    1.2683    0.0000 Si  0  0  0  0  0  4  0  0  0  0  0  0
 15 13  2  0
 15 14  1  0
 16 13  1  0
 17 14  2  0
 18 16  2  0
 18 17  1  0
 19  1  1  0
 19  2  1  0
 19  3  1  0
 19 15  1  0
 20  4  1  0
 20  5  1  0
 20  6  1  0
 20 16  1  0
 21  7  1  0
 21  8  1  0
 21  9  1  0
 21 17  1  0
 22 10  1  0
 22 11  1  0
 22 12  1  0
 25 18  1  0
 25 22  1  0
 25 23  1  0
 25 24  1  0
M  END
>  <NAME>  (6183) 
2,4,6-TRI-TERT-BUTYL-1-TERT-BUTYLDIFLUOROSILYLBENZENE

>  <SYNONYMS>  (6183) 
TERT-BUTYLDIFLUORO-2,4,6-TRI-TERT-BUTYLPHENYLSILANE

>  <SPECTRUM TYPE>  (6183) 
MS1

>  <INSTRUMENT TYPE>  (6183) 
EI-B

>  <INSTRUMENT>  (6183) 
JEOL JMS-D-3000

>  <ION MODE>  (6183) 
P

>  <INCHIKEY>  (6183) 
QTOAVPZOPLUZID-UHFFFAOYSA-N

>  <FORMULA>  (6183) 
C22H38F2Si

>  <EXACT MASS>  (6183) 
368.271084186

>  <MW>  (6183) 
368

>  <ID>  (6183) 
JP001959

>  <CONTRIBUTOR>  (6183) 
University of Tokyo Team, {Faculty of Engineering, University of Tokyo

>  <COMMENT>  (6183) 
SMILES=CC(C)(C)c(c1)cc(C(C)(C)C)c(c1C(C)(C)C)[Si](F)(F)C(C)(C)C
InChI=InChI=1S/C22H38F2Si/c1-19(2,3)15-13-16(20(4,5)6)18(17(14-15)21(7,8)9)25(23,24)22(10,11)12/h13-14H,1-12H3
computed SMILES=F[Si](F)(C=1C(=CC(=CC1C(C)(C)C)C(C)(C)C)C(C)(C)C)C(C)(C)C
accession=JP001959
date=2016.01.19 (Created 2008.10.21, modified 2011.05.06)
author=MASS SPECTROSCOPY SOC. OF JAPAN (MSSJ)
license=CC BY-NC-SA
exact mass=368.27108
ionization energy=70 eV
ion type=[M]+*
computed spectral entropy=1.9281449005423723
computed normalized entropy=0.5726092977551418
SPLASH=splash10-0a4j-9071000000-8b6dd5b7b5881015a716
submitter=submitter = University of Tokyo Team (Faculty of Engineering, University of Tokyo)
MoNA Rating=3.75

>  <NUM PEAKS>  (6183) 
29

>  <MASS SPECTRAL PEAKS>  (6183) 
43 1.83
44 1.28
55 2.65
57 99.99
58 4.53
77 1.37
81 5.58
91 1.86
105 1.03
115 1.04
117 1.18
128 1.16
129 1.33
131 1.47
143 1.07
159 1.01
173 1.12
189 1.02
215 1.06
231 3.51
241 1.74
297 72.09
298 17.72
299 4.58
311 1.08
312 8.19
313 1.89
353 1.44
368 1.08

$$$$

     RDKit          2D

 22 22  0  0  0  0  0  0  0  0999 V2000
   -2.3677    3.2191    0.0000 C   0  0  0  0  0  0  0  0  0  0  0  0
   -4.4167    2.6701    0.0000 C   0  0  0  0  0  0  0  0  0  0  0  0
   -3.8677    0.6210    0.0000 C   0  0  0  0  0  0  0  0  0  0  0  0
   -2.0198   -2.5810    0.0000 C   0  0  0  0  0  0  0  0  0  0  0  0
   -0.5196   -4.0807    0.0000 C   0  0  0  0  0  0  0  0  0  0  0  0
    0.9802   -2.5805    0.0000 C   0  0  0  0  0  0  0  0  0  0  0  0
    3.2446    0.8615    0.0000 C   0  0  0  0  0  0  0  0  0  0  0  0
    3.7940    2.9104    0.0000 C   0  0  0  0  0  0  0  0  0  0  0  0
    1.7450    3.4598    0.0000 C   0  0  0  0  0  0  0  0  0  0  0  0
   -1.8191   -0.3307    0.0000 C   0  0  0  0  0  0  0  0  0  0  0  0
   -0.5191    1.9209    0.0000 C   0  0  0  0  0  0  0  0  0  0  0  0
   -1.8186    1.1701    0.0000 C   0  0  0  0  0  0  0  0  0  0  0  0
   -0.5201   -1.0807    0.0000 C   0  0  0  0  0  0  0  0  0  0  0  0
    0.7799    1.1709    0.0000 C   0  0  0  0  0  0  0  0  0  0  0  0
    0.7795   -0.3299    0.0000 C   0  0  0  0  0  0  0  0  0  0  0  0
   -3.1177    1.9201    0.0000 C   0  0  0  0  0  0  0  0  0  0  0  0
   -0.5198   -2.5807    0.0000 C   0  0  0  0  0  0  0  0  0  0  0  0
    2.4948    2.1606    0.0000 C   0  0  0  0  0  0  0  0  0  0  0  0
    1.7442   -2.6190    0.0000 F   0  0  0  0  0  0  0  0  0  0  0  0
    3.7932   -2.0699    0.0000 F   0  0  0  0  0  0  0  0  0  0  0  0
    3.2442   -0.0209    0.0000 F   0  0  0  0  0  0  0  0  0  0  0  0
    2.4942   -1.3199    0.0000 Si  0  0  0  0  0  4  0  0  0  0  0  0
 12 10  2  0
 12 11  1  0
 13 10  1  0
 14 11  2  0
 15 13  2  0
 15 14  1  0
 16  1  1  0
 16  2  1  0
 16  3  1  0
 16 12  1  0
 17  4  1  0
 17  5  1  0
 17  6  1  0
 17 13  1  0
 18  7  1  0
 18  8  1  0
 18  9  1  0
 18 14  1  0
 22 15  1  0
 22 19  1  0
 22 20  1  0
 22 21  1  0
M  END
>  <NAME>  (6184) 
2,4,6-TRI-TERT-BUTYL-1-TRIFLUOROSILYLBENZENE

>  <SYNONYMS>  (6184) 
TRIFLUORO-2,4,6-TRI-TERT-BUTYLPHENYLSILANE

>  <SPECTRUM TYPE>  (6184) 
MS1

>  <INSTRUMENT TYPE>  (6184) 
EI-B

>  <INSTRUMENT>  (6184) 
JEOL JMS-D-3000

>  <ION MODE>  (6184) 
P

>  <INCHIKEY>  (6184) 
ZVGWMROARPHAON-UHFFFAOYSA-N

>  <FORMULA>  (6184) 
C18H29F3Si

>  <EXACT MASS>  (6184) 
330.19906211800003

>  <MW>  (6184) 
330

>  <ID>  (6184) 
JP001958

>  <CONTRIBUTOR>  (6184) 
University of Tokyo Team, {Faculty of Engineering, University of Tokyo

>  <COMMENT>  (6184) 
SMILES=CC(C)(C)c(c1)cc(C(C)(C)C)c([Si](F)(F)F)c1C(C)(C)C
InChI=InChI=1S/C18H29F3Si/c1-16(2,3)12-10-13(17(4,5)6)15(22(19,20)21)14(11-12)18(7,8)9/h10-11H,1-9H3
computed SMILES=F[Si](F)(F)C=1C(=CC(=CC1C(C)(C)C)C(C)(C)C)C(C)(C)C
ion type=[M]+*
accession=JP001958
date=2016.01.19 (Created 2008.10.21, modified 2011.05.06)
author=MASS SPECTROSCOPY SOC. OF JAPAN (MSSJ)
license=CC BY-NC-SA
exact mass=330.19906
ionization energy=70 eV
computed spectral entropy=1.959908918850334
computed normalized entropy=0.5820423918198498
SPLASH=splash10-0a4i-9071000000-19270a9bfa5510eca865
submitter=submitter = University of Tokyo Team (Faculty of Engineering, University of Tokyo)
MoNA Rating=3.75

>  <NUM PEAKS>  (6184) 
29

>  <MASS SPECTRAL PEAKS>  (6184) 
42 1.03
43 3.13
44 1.21
53 1.06
55 3.76
57 99.99
58 4.47
59 1.04
77 1.35
91 2.22
105 1.13
115 1.58
128 1.47
129 1.31
141 1.02
142 1.03
143 2.78
199 1.43
231 2.48
243 1.09
259 74.57
260 14.68
261 4
274 4.81
275 1.1
315 5.52
316 1.32
330 5.7
331 1.5

$$$$

     RDKit          2D

 19 19  0  0  0  0  0  0  0  0999 V2000
    3.1483   -0.8995    0.0000 C   0  0  0  0  0  0  0  0  0  0  0  0
    5.1972   -0.3502    0.0000 C   0  0  0  0  0  0  0  0  0  0  0  0
    4.6479    1.6988    0.0000 C   0  0  0  0  0  0  0  0  0  0  0  0
   -3.1483    0.1980    0.0000 C   0  0  0  0  0  0  0  0  0  0  0  0
   -5.1972   -0.3514    0.0000 C   0  0  0  0  0  0  0  0  0  0  0  0
   -4.6479   -2.4004    0.0000 C   0  0  0  0  0  0  0  0  0  0  0  0
   -3.5629   -3.0002    0.0000 C   0  0  0  0  0  0  0  0  0  0  0  0
   -1.6346   -2.9999    0.0000 C   0  0  0  0  0  0  0  0  0  0  0  0
    1.3000   -1.1008    0.0000 C   0  0  0  0  0  0  0  0  0  0  0  0
    0.0000    1.1492    0.0000 C   0  0  0  0  0  0  0  0  0  0  0  0
   -0.0000   -1.8508    0.0000 C   0  0  0  0  0  0  0  0  0  0  0  0
   -1.3000    0.3992    0.0000 C   0  0  0  0  0  0  0  0  0  0  0  0
    1.3000    0.3992    0.0000 C   0  0  0  0  0  0  0  0  0  0  0  0
   -1.3000   -1.1008    0.0000 C   0  0  0  0  0  0  0  0  0  0  0  0
    2.5989    1.1494    0.0000 C   0  0  0  0  0  0  0  0  0  0  0  0
    2.5987    2.6494    0.0000 O   0  0  0  0  0  0  0  0  0  0  0  0
    3.8981    0.3996    0.0000 Si  0  0  0  0  0  4  0  0  0  0  0  0
   -3.8981   -1.1012    0.0000 Si  0  0  0  0  0  4  0  0  0  0  0  0
   -2.5989   -1.8510    0.0000 Si  0  0  0  0  0  4  0  0  0  0  0  0
 11  9  2  0
 12 10  1  0
 13  9  1  0
 13 10  2  0
 14 11  1  0
 14 12  2  0
 15 13  1  0
 16 15  1  0
 17  1  1  0
 17  2  1  0
 17  3  1  0
 17 15  1  0
 18  4  1  0
 18  5  1  0
 18  6  1  0
 19  7  1  0
 19  8  1  0
 19 14  1  0
 19 18  1  0
M  END
>  <NAME>  (6185) 
4-(PENTAMETHYLDISILANYL)PHENYLTRIMETHYLSILYLMETHANOL

>  <SYNONYMS>  (6185) 


>  <SPECTRUM TYPE>  (6185) 
MS1

>  <INSTRUMENT TYPE>  (6185) 
EI-B

>  <INSTRUMENT>  (6185) 
JEOL JMS-D-3000

>  <ION MODE>  (6185) 
P

>  <INCHIKEY>  (6185) 
BFRCFBRSQSVTJZ-UHFFFAOYSA-N

>  <FORMULA>  (6185) 
C15H30OSi3

>  <EXACT MASS>  (6185) 
310.16044517

>  <MW>  (6185) 
310

>  <ID>  (6185) 
JP001957

>  <CONTRIBUTOR>  (6185) 
University of Tokyo Team, {Faculty of Engineering, University of Tokyo

>  <COMMENT>  (6185) 
SMILES=C[Si](C)(C)C(O)c(c1)ccc(c1)[Si](C)(C)[Si](C)(C)C
InChI=InChI=1S/C15H30OSi3/c1-17(2,3)15(16)13-9-11-14(12-10-13)19(7,8)18(4,5)6/h9-12,15-16H,1-8H3
computed SMILES=OC(C1=CC=C(C=C1)[Si](C)(C)[Si](C)(C)C)[Si](C)(C)C
accession=JP001957
ionization energy=70 eV
date=2016.01.19 (Created 2008.10.21, modified 2011.05.06)
author=MASS SPECTROSCOPY SOC. OF JAPAN (MSSJ)
license=CC BY-NC-SA
exact mass=310.16045
ion type=[M]+*
computed spectral entropy=2.1807244324443937
computed normalized entropy=0.6544389534872016
SPLASH=splash10-05fr-6319000000-8a0e6195f5953c8c9b6b
submitter=submitter = University of Tokyo Team (Faculty of Engineering, University of Tokyo)
MoNA Rating=3.75

>  <NUM PEAKS>  (6185) 
28

>  <MASS SPECTRAL PEAKS>  (6185) 
59 1.18
73 99.99
74 8.67
75 5.09
131 6.81
132 1.14
133 3.27
145 1.2
147 13.06
148 2.47
149 1.55
161 1.39
163 2.94
177 1.23
193 12.53
194 2.52
195 1.22
207 1.76
219 1.29
221 6.09
222 1.44
236 5.67
237 1.56
309 99.38
310 31.85
311 15.21
312 3.29
313 0.81

$$$$

     RDKit          2D

 20 19  0  0  0  0  0  0  0  0999 V2000
    4.9624    1.1278    0.0000 C   0  0  0  0  0  0  0  0  0  0  0  0
    2.3643   -0.3722    0.0000 C   0  0  0  0  0  0  0  0  0  0  0  0
    4.4134   -0.9213    0.0000 C   0  0  0  0  0  0  0  0  0  0  0  0
    1.4824    4.5572    0.0000 C   0  0  0  0  0  0  0  0  0  0  0  0
   -0.5666    5.1063    0.0000 C   0  0  0  0  0  0  0  0  0  0  0  0
   -1.9470    2.5772    0.0000 C   0  0  0  0  0  0  0  0  0  0  0  0
   -2.5949    3.8497    0.0000 C   0  0  0  0  0  0  0  0  0  0  0  0
   -2.9989    0.5739    0.0000 C   0  0  0  0  0  0  0  0  0  0  0  0
   -1.2455   -0.8630    0.0000 C   0  0  0  0  0  0  0  0  0  0  0  0
   -0.3266    0.5925    0.0000 C   0  0  0  0  0  0  0  0  0  0  0  0
    1.1734   -0.9075    0.0000 C   0  0  0  0  0  0  0  0  0  0  0  0
    2.6734    0.5925    0.0000 C   0  0  0  0  0  0  0  0  0  0  0  0
    3.6634    0.3778    0.0000 C   0  0  0  0  0  0  0  0  0  0  0  0
    1.1734    2.0925    0.0000 C   0  0  0  0  0  0  0  0  0  0  0  0
    4.0829    2.6055    0.0000 F   0  0  0  0  0  0  0  0  0  0  0  0
    2.4129    3.5697    0.0000 F   0  0  0  0  0  0  0  0  0  0  0  0
    0.1834    3.8072    0.0000 Si  0  0  0  0  0  4  0  0  0  0  0  0
   -1.5893    1.0870    0.0000 Si  0  0  0  0  0  4  0  0  0  0  0  0
    1.1734    0.5925    0.0000 Si  0  0  0  0  0  4  0  0  0  0  0  0
    2.6734    2.0925    0.0000 Si  0  0  0  0  0  4  0  0  0  0  0  0
 13  1  1  0
 13  2  1  0
 13  3  1  0
 17  4  1  0
 17  5  1  0
 17  6  1  0
 17 14  1  0
 18  7  1  0
 18  8  1  0
 18  9  1  0
 18 14  1  0
 19 10  1  0
 19 11  1  0
 19 12  1  0
 19 14  1  0
 20 13  1  0
 20 14  1  0
 20 15  1  0
 20 16  1  0
M  END
>  <NAME>  (6186) 
TERT-BUTYLDIFLUOROTRIS(TRIMETHYLSILYL)METHYLSILANE

>  <SYNONYMS>  (6186) 
TERT-BUTYLDIFLUOROSILYLTRIS(TRIMETHYLSILYL)METHANE

>  <SPECTRUM TYPE>  (6186) 
MS1

>  <INSTRUMENT TYPE>  (6186) 
EI-B

>  <INSTRUMENT>  (6186) 
JEOL JMS-D-3000

>  <ION MODE>  (6186) 
P

>  <INCHIKEY>  (6186) 
ZDCXZZOUTBYJPB-UHFFFAOYSA-N

>  <FORMULA>  (6186) 
C14H36F2Si4

>  <EXACT MASS>  (6186) 
354.186213712

>  <MW>  (6186) 
354

>  <ID>  (6186) 
JP001956

>  <CONTRIBUTOR>  (6186) 
University of Tokyo Team, {Faculty of Engineering, University of Tokyo

>  <COMMENT>  (6186) 
SMILES=CC(C)(C)[Si](F)(F)C([Si](C)(C)C)([Si](C)(C)C)[Si](C)(C)C
InChI=InChI=1S/C14H36F2Si4/c1-13(2,3)20(15,16)14(17(4,5)6,18(7,8)9)19(10,11)12/h1-12H3
computed SMILES=F[Si](F)(C(C)(C)C)C([Si](C)(C)C)([Si](C)(C)C)[Si](C)(C)C
license=CC BY-NC-SA
accession=JP001956
date=2016.01.19 (Created 2008.10.21, modified 2011.05.06)
author=MASS SPECTROSCOPY SOC. OF JAPAN (MSSJ)
exact mass=354.18621
ionization energy=70 eV
ion type=[M]+*
computed spectral entropy=3.062451757028799
computed normalized entropy=0.7713417108136261
SPLASH=splash10-0a4i-3191000000-5a5e7e54ee548df03d70
submitter=submitter = University of Tokyo Team (Faculty of Engineering, University of Tokyo)
MoNA Rating=3.75

>  <NUM PEAKS>  (6186) 
53

>  <MASS SPECTRAL PEAKS>  (6186) 
43 2.21
44 2.24
45 7.35
57 3.05
59 9.53
73 52.73
74 4.44
75 1.97
77 3.69
83 2.42
85 1.79
97 3.27
99 1.39
103 1.03
113 4.28
115 1.27
117 1.27
127 3.09
129 3.02
131 7.29
132 1.15
133 1.73
141 1.98
155 2.59
175 2.33
185 1.35
189 7.48
190 1.72
191 3.67
193 1.57
195 1.03
201 2.62
205 99.99
206 26.41
207 14.76
208 2.68
209 14.43
210 3.79
211 2.32
247 5.27
248 1.46
262 3.07
281 1.49
283 3.58
284 1.07
297 36.48
298 11.62
299 7.28
300 1.51
339 31.68
340 11.29
341 6.28
342 1.46

$$$$

     RDKit          2D

 15 15  0  0  0  0  0  0  0  0999 V2000
   -4.8637    1.0953    0.0000 C   0  0  0  0  0  0  0  0  0  0  0  0
   -2.9353    1.6168    0.0000 C   0  0  0  0  0  0  0  0  0  0  0  0
    3.5252   -2.5929    0.0000 C   0  0  0  0  0  0  0  0  0  0  0  0
    4.0739   -0.5438    0.0000 C   0  0  0  0  0  0  0  0  0  0  0  0
    2.0248    0.0049    0.0000 C   0  0  0  0  0  0  0  0  0  0  0  0
   -1.1221   -2.0444    0.0000 C   0  0  0  0  0  0  0  0  0  0  0  0
    0.1764    0.2064    0.0000 C   0  0  0  0  0  0  0  0  0  0  0  0
   -2.4217   -1.2936    0.0000 C   0  0  0  0  0  0  0  0  0  0  0  0
   -1.1231    0.9573    0.0000 C   0  0  0  0  0  0  0  0  0  0  0  0
    1.4761   -2.0442    0.0000 C   0  0  0  0  0  0  0  0  0  0  0  0
   -3.8993   -0.0535    0.0000 C   0  0  0  0  0  0  0  0  0  0  0  0
    0.1769   -1.2944    0.0000 C   0  0  0  0  0  0  0  0  0  0  0  0
   -2.4221    0.2073    0.0000 C   0  0  0  0  0  0  0  0  0  0  0  0
   -4.4120   -1.4632    0.0000 O   0  0  0  0  0  0  0  0  0  0  0  0
    2.7750   -1.2940    0.0000 Si  0  0  0  0  0  4  0  0  0  0  0  0
  8  6  1  0
  9  7  1  0
 11  1  1  0
 12  6  2  0
 12  7  1  0
 12 10  1  0
 13  2  1  0
 13  8  1  0
 13  9  1  0
 13 11  1  0
 14 11  2  0
 15  3  1  0
 15  4  1  0
 15  5  1  0
 15 10  1  0
M  END
>  <NAME>  (6187) 
4-ACETYL-4-METHYL-1-TRIMETHYLSILYLMETHYLCYCLOHEXENE

>  <SYNONYMS>  (6187) 


>  <SPECTRUM TYPE>  (6187) 
MS1

>  <INSTRUMENT TYPE>  (6187) 
EI-B

>  <INSTRUMENT>  (6187) 
JEOL JMS-D-3000

>  <ION MODE>  (6187) 
P

>  <INCHIKEY>  (6187) 
YIDRDQNBNNKTAA-UHFFFAOYSA-N

>  <FORMULA>  (6187) 
C13H24OSi

>  <EXACT MASS>  (6187) 
224.159641918

>  <MW>  (6187) 
224

>  <ID>  (6187) 
JP001954

>  <CONTRIBUTOR>  (6187) 
University of Tokyo Team, {Faculty of Engineering, University of Tokyo

>  <COMMENT>  (6187) 
SMILES=CC(=O)C(C)(C1)CC=C(C1)C[Si](C)(C)C
InChI=InChI=1S/C13H24OSi/c1-11(14)13(2)8-6-12(7-9-13)10-15(3,4)5/h6H,7-10H2,1-5H3
computed SMILES=O=C(C)C1(C)CC=C(CC1)C[Si](C)(C)C
accession=JP001954
date=2016.01.19 (Created 2008.10.21, modified 2011.05.06)
author=MASS SPECTROSCOPY SOC. OF JAPAN (MSSJ)
license=CC BY-NC-SA
exact mass=224.15964
ionization energy=70 eV
ion type=[M]+*
computed spectral entropy=2.23320644046184
computed normalized entropy=0.6775840344213525
SPLASH=splash10-00di-9100000000-df002301b0f69f9255ae
submitter=submitter = University of Tokyo Team (Faculty of Engineering, University of Tokyo)
MoNA Rating=3.75

>  <NUM PEAKS>  (6187) 
27

>  <MASS SPECTRAL PEAKS>  (6187) 
41 3.72
43 11.77
44 2.26
45 11.43
59 7.75
67 1.84
72 1.36
73 99.99
74 8.62
75 11.64
77 1.96
79 1.96
91 4.16
93 1.57
97 1.36
107 2.05
119 2.17
125 1.51
134 2.32
151 2.07
157 5.01
158 7.21
159 2.26
168 1.51
209 2.85
224 6.23
225 1.24

$$$$

     RDKit          2D

 16 16  0  0  0  0  0  0  0  0999 V2000
   -3.8981   -0.7504    0.0000 C   0  0  0  0  0  0  0  0  0  0  0  0
    3.1483   -0.5487    0.0000 C   0  0  0  0  0  0  0  0  0  0  0  0
    5.1972    0.0006    0.0000 C   0  0  0  0  0  0  0  0  0  0  0  0
    4.6479    2.0496    0.0000 C   0  0  0  0  0  0  0  0  0  0  0  0
    3.5629    2.6494    0.0000 C   0  0  0  0  0  0  0  0  0  0  0  0
    1.6346    2.6491    0.0000 C   0  0  0  0  0  0  0  0  0  0  0  0
   -1.3000    0.7500    0.0000 C   0  0  0  0  0  0  0  0  0  0  0  0
   -0.0000   -1.5000    0.0000 C   0  0  0  0  0  0  0  0  0  0  0  0
    0.0000    1.5000    0.0000 C   0  0  0  0  0  0  0  0  0  0  0  0
    1.3000   -0.7500    0.0000 C   0  0  0  0  0  0  0  0  0  0  0  0
   -2.5989   -1.5002    0.0000 C   0  0  0  0  0  0  0  0  0  0  0  0
   -1.3000   -0.7500    0.0000 C   0  0  0  0  0  0  0  0  0  0  0  0
    1.3000    0.7500    0.0000 C   0  0  0  0  0  0  0  0  0  0  0  0
   -2.5987   -3.0002    0.0000 O   0  0  0  0  0  0  0  0  0  0  0  0
    3.8981    0.7504    0.0000 Si  0  0  0  0  0  4  0  0  0  0  0  0
    2.5989    1.5002    0.0000 Si  0  0  0  0  0  4  0  0  0  0  0  0
  9  7  2  0
 10  8  1  0
 11  1  1  0
 12  7  1  0
 12  8  2  0
 12 11  1  0
 13  9  1  0
 13 10  2  0
 14 11  2  0
 15  2  1  0
 15  3  1  0
 15  4  1  0
 16  5  1  0
 16  6  1  0
 16 13  1  0
 16 15  1  0
M  END
>  <NAME>  (6188) 
4-(PENTAMETHYLDISILANYL)ACETOPHENONE

>  <SYNONYMS>  (6188) 


>  <SPECTRUM TYPE>  (6188) 
MS1

>  <INSTRUMENT TYPE>  (6188) 
EI-B

>  <INSTRUMENT>  (6188) 
JEOL JMS-D-3000

>  <ION MODE>  (6188) 
P

>  <INCHIKEY>  (6188) 
RHZVIGVRZQHWGA-UHFFFAOYSA-N

>  <FORMULA>  (6188) 
C13H22OSi2

>  <EXACT MASS>  (6188) 
250.120918384

>  <MW>  (6188) 
250

>  <ID>  (6188) 
JP001953

>  <CONTRIBUTOR>  (6188) 
University of Tokyo Team, {Faculty of Engineering, University of Tokyo

>  <COMMENT>  (6188) 
SMILES=CC(=O)c(c1)ccc(c1)[Si](C)(C)[Si](C)(C)C
InChI=InChI=1S/C13H22OSi2/c1-11(14)12-7-9-13(10-8-12)16(5,6)15(2,3)4/h7-10H,1-6H3
computed SMILES=O=C(C1=CC=C(C=C1)[Si](C)(C)[Si](C)(C)C)C
accession=JP001953
date=2016.01.19 (Created 2008.10.21, modified 2011.05.06)
author=MASS SPECTROSCOPY SOC. OF JAPAN (MSSJ)
license=CC BY-NC-SA
exact mass=250.12092
ionization energy=70 eV
ion type=[M]+*
computed spectral entropy=2.475735698671679
computed normalized entropy=0.727901212678752
SPLASH=splash10-004i-3930000000-5990d7959a22041229c1
submitter=submitter = University of Tokyo Team (Faculty of Engineering, University of Tokyo)
MoNA Rating=3.75

>  <NUM PEAKS>  (6188) 
30

>  <MASS SPECTRAL PEAKS>  (6188) 
44 6.47
45 2.03
46 4.73
73 35.09
74 2.94
75 2.96
119 5.51
131 1.82
133 2.45
134 5.76
147 2.57
149 2.14
161 1.9
162 2.59
176 2.01
177 99.99
178 16.72
179 5.7
191 1.86
193 3.37
206 1.85
207 3.5
219 2.21
235 16.62
236 4.37
237 1.82
249 3.02
250 22.58
251 5.9
252 2.2

$$$$

     RDKit          2D

 16 16  0  0  0  0  0  0  0  0999 V2000
   -6.4962   -0.7508    0.0000 C   0  0  0  0  0  0  0  0  0  0  0  0
   -5.1968   -3.0006    0.0000 C   0  0  0  0  0  0  0  0  0  0  0  0
    3.1483   -0.5487    0.0000 C   0  0  0  0  0  0  0  0  0  0  0  0
    5.1972    0.0006    0.0000 C   0  0  0  0  0  0  0  0  0  0  0  0
    4.6479    2.0496    0.0000 C   0  0  0  0  0  0  0  0  0  0  0  0
   -1.3000    0.7500    0.0000 C   0  0  0  0  0  0  0  0  0  0  0  0
   -0.0000   -1.5000    0.0000 C   0  0  0  0  0  0  0  0  0  0  0  0
    0.0000    1.5000    0.0000 C   0  0  0  0  0  0  0  0  0  0  0  0
    1.3000   -0.7500    0.0000 C   0  0  0  0  0  0  0  0  0  0  0  0
   -2.5989   -1.5002    0.0000 C   0  0  0  0  0  0  0  0  0  0  0  0
    2.5989    1.5002    0.0000 C   0  0  0  0  0  0  0  0  0  0  0  0
   -1.3000   -0.7500    0.0000 C   0  0  0  0  0  0  0  0  0  0  0  0
    1.3000    0.7500    0.0000 C   0  0  0  0  0  0  0  0  0  0  0  0
   -3.8981   -0.7504    0.0000 N   0  0  0  0  0  0  0  0  0  0  0  0
   -5.1970   -1.5006    0.0000 N   0  0  0  0  0  0  0  0  0  0  0  0
    3.8981    0.7504    0.0000 Si  0  0  0  0  0  4  0  0  0  0  0  0
  8  6  1  0
  9  7  1  0
 12  6  1  0
 12  7  1  0
 12 10  1  0
 13  8  2  0
 13  9  1  0
 13 11  1  0
 10 14  2  0
 15  1  1  0
 15  2  1  0
 15 14  1  0
 16  3  1  0
 16  4  1  0
 16  5  1  0
 16 11  1  0
M  END
>  <NAME>  (6189) 
4-(TRIMETHYLSILYLMETHYL)CYCLOHEX-3-ENECARBOXALDEHYDE DIMETHYLHYDRAZONE

>  <SYNONYMS>  (6189) 


>  <SPECTRUM TYPE>  (6189) 
MS1

>  <INSTRUMENT TYPE>  (6189) 
EI-B

>  <INSTRUMENT>  (6189) 
JEOL JMS-D-3000

>  <ION MODE>  (6189) 
P

>  <INCHIKEY>  (6189) 
BXNPGGXMEZJXKR-GXDHUFHOSA-N

>  <FORMULA>  (6189) 
C13H26N2Si

>  <EXACT MASS>  (6189) 
238.186525362

>  <MW>  (6189) 
238

>  <ID>  (6189) 
JP001952

>  <CONTRIBUTOR>  (6189) 
University of Tokyo Team, {Faculty of Engineering, University of Tokyo

>  <COMMENT>  (6189) 
SMILES=CN(C)N=CC(C1)CC=C(C1)C[Si](C)(C)C
InChI=InChI=1S/C13H26N2Si/c1-15(2)14-10-12-6-8-13(9-7-12)11-16(3,4)5/h8,10,12H,6-7,9,11H2,1-5H3/b14-10+
computed SMILES=N(=CC1CC=C(CC1)C[Si](C)(C)C)N(C)C
ion type=[M]+*
accession=JP001952
date=2016.01.19 (Created 2008.10.21, modified 2011.05.06)
author=MASS SPECTROSCOPY SOC. OF JAPAN (MSSJ)
license=CC BY-NC-SA
exact mass=238.18653
ionization energy=70 eV
computed spectral entropy=2.786556788117731
computed normalized entropy=0.8275354850924768
SPLASH=splash10-00dj-9210000000-5b05dfb76b5c58365ac0
submitter=submitter = University of Tokyo Team (Faculty of Engineering, University of Tokyo)
MoNA Rating=3.75

>  <NUM PEAKS>  (6189) 
29

>  <MASS SPECTRAL PEAKS>  (6189) 
42 7.49
43 11.6
44 8.39
45 13.56
58 5.57
59 20.11
73 99.99
74 10.45
75 5.3
83 23.46
86 4.8
92 3.67
98 75.76
99 6.28
102 7.81
151 7.89
165 5.99
166 10.29
168 4.35
179 6.61
180 3.41
183 17.23
193 4.71
194 5.02
208 4.87
223 12.06
237 4.8
238 27.75
239 6.13

$$$$

     RDKit          2D

 17 16  0  0  0  0  0  0  0  0999 V2000
   -1.7911    4.9090    0.0000 C   0  0  0  0  0  0  0  0  0  0  0  0
    1.2227    6.6490    0.0000 C   0  0  0  0  0  0  0  0  0  0  0  0
   -0.8263    7.1980    0.0000 C   0  0  0  0  0  0  0  0  0  0  0  0
    2.5858    1.2774    0.0000 C   0  0  0  0  0  0  0  0  0  0  0  0
    4.5735    3.9123    0.0000 C   0  0  0  0  0  0  0  0  0  0  0  0
    3.3568    5.6500    0.0000 C   0  0  0  0  0  0  0  0  0  0  0  0
   -2.9304    5.9060    0.0000 C   0  0  0  0  0  0  0  0  0  0  0  0
   -3.4986    3.0814    0.0000 C   0  0  0  0  0  0  0  0  0  0  0  0
   -1.0835    0.8317    0.0000 C   0  0  0  0  0  0  0  0  0  0  0  0
   -1.4885    2.6955    0.0000 C   0  0  0  0  0  0  0  0  0  0  0  0
    1.1946    1.6455    0.0000 C   0  0  0  0  0  0  0  0  0  0  0  0
    2.4341    3.1227    0.0000 C   0  0  0  0  0  0  0  0  0  0  0  0
   -0.0763    5.8990    0.0000 Si  0  0  0  0  0  4  0  0  0  0  0  0
    3.0963    4.1727    0.0000 Si  0  0  0  0  0  4  0  0  0  0  0  0
   -2.0890    3.5944    0.0000 Si  0  0  0  0  0  4  0  0  0  0  0  0
    0.9341    3.1227    0.0000 Si  0  0  0  0  0  4  0  0  0  0  0  0
    0.6737    4.5999    0.0000 Si  0  0  0  0  0  4  0  0  0  0  0  0
 13  1  1  0
 13  2  1  0
 13  3  1  0
 14  4  1  0
 14  5  1  0
 14  6  1  0
 15  7  1  0
 15  8  1  0
 15  9  1  0
 16 10  1  0
 16 11  1  0
 16 12  1  0
 17 13  1  0
 17 14  1  0
 17 15  1  0
 17 16  1  0
M  END
>  <NAME>  (6190) 
TETRAKIS(TRIMETHYLSILYL)SILANE

>  <SYNONYMS>  (6190) 


>  <SPECTRUM TYPE>  (6190) 
MS1

>  <INSTRUMENT TYPE>  (6190) 
EI-B

>  <INSTRUMENT>  (6190) 
JEOL JMS-D-3000

>  <ION MODE>  (6190) 
P

>  <INCHIKEY>  (6190) 
BOJSDHZZKKYWAS-UHFFFAOYSA-N

>  <FORMULA>  (6190) 
C12H36Si5

>  <EXACT MASS>  (6190) 
320.166333802

>  <MW>  (6190) 
320

>  <ID>  (6190) 
JP001951

>  <CONTRIBUTOR>  (6190) 
University of Tokyo Team, {Faculty of Engineering, University of Tokyo

>  <COMMENT>  (6190) 
SMILES=C[Si](C)(C)[Si]([Si](C)(C)C)([Si](C)(C)C)[Si](C)(C)C
InChI=InChI=1S/C12H36Si5/c1-13(2,3)17(14(4,5)6,15(7,8)9)16(10,11)12/h1-12H3
computed SMILES=C[Si](C)(C)[Si]([Si](C)(C)C)([Si](C)(C)C)[Si](C)(C)C
accession=JP001951
date=2016.01.19 (Created 2008.10.21, modified 2011.05.06)
author=MASS SPECTROSCOPY SOC. OF JAPAN (MSSJ)
license=CC BY-NC-SA
exact mass=320.16633
ionization energy=70 eV
ion type=[M]+*
computed spectral entropy=3.152630263446989
computed normalized entropy=0.8018235186239835
SPLASH=splash10-00e9-8973000000-a479b5cff4591706542d
submitter=submitter = University of Tokyo Team (Faculty of Engineering, University of Tokyo)
MoNA Rating=3.75

>  <NUM PEAKS>  (6190) 
51

>  <MASS SPECTRAL PEAKS>  (6190) 
43 2.17
45 13.15
59 8.12
73 99.99
74 8.71
75 4.6
85 1.81
99 6.62
100 1.39
101 2.93
113 4.95
115 6.24
116 1.75
117 3.11
127 1.28
129 8.06
130 1.43
131 12.65
132 1.64
141 1.29
143 4.6
144 1.66
145 3.55
157 8.96
158 25.01
159 10.11
160 3.76
171 5.67
172 3.01
173 27.13
174 6.23
175 3.25
187 4.06
188 1
189 1.2
217 2.41
225 2.4
227 1.2
231 13.26
232 74.25
233 25.38
234 12.43
235 2.9
247 2.49
305 13.28
306 4.6
307 2.8
320 23.92
321 8.31
322 5.06
323 1.32

$$$$

     RDKit          2D

 16 16  0  0  0  0  0  0  0  0999 V2000
    0.8059    3.7722    0.0000 C   0  0  0  0  0  0  0  0  0  0  0  0
   -0.6941    5.2722    0.0000 C   0  0  0  0  0  0  0  0  0  0  0  0
   -2.1941    3.7722    0.0000 C   0  0  0  0  0  0  0  0  0  0  0  0
   -2.9573    0.3731    0.0000 C   0  0  0  0  0  0  0  0  0  0  0  0
   -1.0289    0.3731    0.0000 C   0  0  0  0  0  0  0  0  0  0  0  0
    3.2031    0.0222    0.0000 C   0  0  0  0  0  0  0  0  0  0  0  0
    1.9035   -0.7287    0.0000 C   0  0  0  0  0  0  0  0  0  0  0  0
    3.2035    1.5230    0.0000 C   0  0  0  0  0  0  0  0  0  0  0  0
    0.6045    0.0213    0.0000 C   0  0  0  0  0  0  0  0  0  0  0  0
    1.9045    2.2730    0.0000 C   0  0  0  0  0  0  0  0  0  0  0  0
   -3.2921    2.2722    0.0000 C   0  0  0  0  0  0  0  0  0  0  0  0
    0.6050    1.5222    0.0000 C   0  0  0  0  0  0  0  0  0  0  0  0
   -4.5912    1.5222    0.0000 Cl  0  0  0  0  0  0  0  0  0  0  0  0
   -0.6941    2.2722    0.0000 N   0  0  0  0  0  0  0  0  0  0  0  0
   -0.6941    3.7722    0.0000 Si  0  0  0  0  0  4  0  0  0  0  0  0
   -1.9931    1.5222    0.0000 Si  0  0  0  0  0  4  0  0  0  0  0  0
  7  6  2  0
  8  6  1  0
  9  7  1  0
 10  8  2  0
 12  9  2  0
 12 10  1  0
 13 11  1  0
 14 12  1  0
 15  1  1  0
 15  2  1  0
 15  3  1  0
 15 14  1  0
 16  4  1  0
 16  5  1  0
 16 11  1  0
 16 14  1  0
M  END
>  <NAME>  (6191) 
1-(CHLOROMETHYL)-1,1,3,3,3-PENTAMETYL-2-PHENYL-DISILAZANE

>  <SYNONYMS>  (6191) 
N-CHLOROMETHYLDIMETHYLSILYL-N-TRIMETHYLSILYLANILINE

>  <SPECTRUM TYPE>  (6191) 
MS1

>  <INSTRUMENT TYPE>  (6191) 
EI-B

>  <INSTRUMENT>  (6191) 
JEOL JMS-D-3000

>  <ION MODE>  (6191) 
P

>  <INCHIKEY>  (6191) 
LIFSXFXUFRZUAU-UHFFFAOYSA-N

>  <FORMULA>  (6191) 
C12H22ClNSi2

>  <EXACT MASS>  (6191) 
271.097930444

>  <MW>  (6191) 
271

>  <ID>  (6191) 
JP001950

>  <CONTRIBUTOR>  (6191) 
University of Tokyo Team, {Faculty of Engineering, University of Tokyo

>  <COMMENT>  (6191) 
SMILES=ClC[Si](C)(C)N(c(c1)cccc1)[Si](C)(C)C
InChI=InChI=1S/C12H22ClNSi2/c1-15(2,3)14(16(4,5)11-13)12-9-7-6-8-10-12/h6-10H,11H2,1-5H3
computed SMILES=ClC[Si](N(C=1C=CC=CC1)[Si](C)(C)C)(C)C
accession=JP001950
date=2016.01.19 (Created 2008.10.21, modified 2011.05.06)
author=MASS SPECTROSCOPY SOC. OF JAPAN (MSSJ)
license=CC BY-NC-SA
exact mass=271.09793
ionization energy=70 eV
ion type=[M]+*
computed spectral entropy=3.0629624320024926
computed normalized entropy=0.7543419336380012
SPLASH=splash10-00di-5190000000-fd9fa2fa7fa71800c0cc
submitter=submitter = University of Tokyo Team (Faculty of Engineering, University of Tokyo)
MoNA Rating=3.75

>  <NUM PEAKS>  (6191) 
58

>  <MASS SPECTRAL PEAKS>  (6191) 
44 7.89
45 1.29
46 12.98
51 1.26
58 2.13
59 14.32
60 1.11
63 1.78
65 1.34
70 1.65
73 36.53
74 3.28
75 5.26
77 3.62
79 6.35
81 2.49
84 2.53
91 2.04
93 6.99
95 3.17
100 1.48
104 1.48
105 1.92
107 1.25
119 1.52
120 1.81
121 1.4
130 1.82
132 1.07
134 1.64
135 1.45
146 1.07
148 2.6
149 2.54
150 3.67
160 1.16
162 1.95
176 1.06
178 1.61
192 5
206 7.04
207 1
220 4.41
221 1.5
222 99.99
223 23.78
224 9.04
225 1.4
226 1.26
228 6.73
229 1.44
230 2.67
256 5.63
257 1.43
258 2.5
271 5.93
272 1.36
273 2.81

$$$$

     RDKit          2D

 13 13  0  0  0  0  0  0  0  0999 V2000
    1.1437    1.1474    0.0000 C   0  0  0  0  0  0  0  0  0  0  0  0
   -4.7044   -1.0920    0.0000 C   0  0  0  0  0  0  0  0  0  0  0  0
   -3.4321   -2.4632    0.0000 C   0  0  0  0  0  0  0  0  0  0  0  0
   -2.5821    3.1760    0.0000 C   0  0  0  0  0  0  0  0  0  0  0  0
   -4.2020    2.2408    0.0000 C   0  0  0  0  0  0  0  0  0  0  0  0
   -0.5132   -0.7779    0.0000 C   0  0  0  0  0  0  0  0  0  0  0  0
   -1.8122   -1.5279    0.0000 C   0  0  0  0  0  0  0  0  0  0  0  0
   -1.3099    1.8049    0.0000 C   0  0  0  0  0  0  0  0  0  0  0  0
   -0.2896    0.7053    0.0000 C   0  0  0  0  0  0  0  0  0  0  0  0
   -3.6507    0.4534    0.0000 C   0  0  0  0  0  0  0  0  0  0  0  0
   -3.2085   -0.9799    0.0000 C   0  0  0  0  0  0  0  0  0  0  0  0
   -2.8057    1.6928    0.0000 C   0  0  0  0  0  0  0  0  0  0  0  0
   -5.1339    0.6770    0.0000 O   0  0  0  0  0  0  0  0  0  0  0  0
  7  6  1  0
  9  1  2  0
  9  6  1  0
  9  8  1  0
 11  2  1  0
 11  3  1  0
 11  7  1  0
 11 10  1  0
 12  4  1  0
 12  5  1  0
 12  8  1  0
 12 10  1  0
 13 10  2  0
M  END
>  <NAME>  (6192) 
2,2,7,7-TETRAMETHYL-4-METHYLENECYCLOHEPTANONE

>  <SYNONYMS>  (6192) 


>  <SPECTRUM TYPE>  (6192) 
MS1

>  <INSTRUMENT TYPE>  (6192) 
EI-B

>  <INSTRUMENT>  (6192) 
JEOL JMS-D-3000

>  <ION MODE>  (6192) 
P

>  <INCHIKEY>  (6192) 
WTVWRJYDHWAHLK-UHFFFAOYSA-N

>  <FORMULA>  (6192) 
C12H20O

>  <EXACT MASS>  (6192) 
180.15141526

>  <MW>  (6192) 
180

>  <ID>  (6192) 
JP001949

>  <CONTRIBUTOR>  (6192) 
University of Tokyo Team, {Faculty of Engineering, University of Tokyo

>  <COMMENT>  (6192) 
SMILES=C=C(C1)CC(C)(C)C(=O)C(C)(C)C1
InChI=InChI=1S/C12H20O/c1-9-6-7-11(2,3)10(13)12(4,5)8-9/h1,6-8H2,2-5H3
computed SMILES=O=C1C(C)(C)CC(=C)CCC1(C)C
accession=JP001949
date=2016.01.19 (Created 2008.10.21, modified 2011.05.06)
author=MASS SPECTROSCOPY SOC. OF JAPAN (MSSJ)
license=CC BY-NC-SA
exact mass=180.15142
ionization energy=70 eV
ion type=[M]+*
computed spectral entropy=2.9399848028068423
computed normalized entropy=0.8730996476833613
SPLASH=splash10-053s-9400000000-9c648ed150436c221836
submitter=submitter = University of Tokyo Team (Faculty of Engineering, University of Tokyo)
MoNA Rating=3.75

>  <NUM PEAKS>  (6192) 
29

>  <MASS SPECTRAL PEAKS>  (6192) 
41 36.17
43 13.61
53 9.36
55 21.27
56 13.61
57 4.68
67 22.12
68 12.34
69 15.31
77 7.23
79 3.82
81 99.99
82 20.85
83 9.78
93 4.25
95 39.14
96 71.06
97 5.95
108 8.93
109 74.89
110 9.36
111 8.08
124 21.27
125 28.08
137 15.74
138 3.4
165 11.06
180 43.82
181 3.4

$$$$

     RDKit          2D

 13 12  0  0  0  0  0  0  0  0999 V2000
   -7.4695    3.9375    0.0000 C   0  0  0  0  0  0  0  0  0  0  0  0
    1.6238    3.1875    0.0000 C   0  0  0  0  0  0  0  0  0  0  0  0
    0.3248    5.4375    0.0000 C   0  0  0  0  0  0  0  0  0  0  0  0
   -4.8714    5.4375    0.0000 C   0  0  0  0  0  0  0  0  0  0  0  0
   -1.3091    5.0866    0.0000 C   0  0  0  0  0  0  0  0  0  0  0  0
   -3.2375    5.0866    0.0000 C   0  0  0  0  0  0  0  0  0  0  0  0
   -6.1704    3.1875    0.0000 C   0  0  0  0  0  0  0  0  0  0  0  0
   -3.5724    3.1875    0.0000 C   0  0  0  0  0  0  0  0  0  0  0  0
    0.3248    3.9375    0.0000 C   0  0  0  0  0  0  0  0  0  0  0  0
   -4.8714    3.9375    0.0000 C   0  0  0  0  0  0  0  0  0  0  0  0
   -0.9743    3.1875    0.0000 C   0  0  0  0  0  0  0  0  0  0  0  0
   -2.2733    3.9375    0.0000 C   0  0  0  0  0  0  0  0  0  0  0  0
   -0.9743    1.6875    0.0000 O   0  0  0  0  0  0  0  0  0  0  0  0
  7  1  2  0
  9  2  1  0
  9  3  1  0
 10  4  2  0
 10  7  1  0
 10  8  1  0
 11  9  1  0
 12  5  1  0
 12  6  1  0
 12  8  1  0
 12 11  1  0
 13 11  2  0
M  END
>  <NAME>  (6193) 
2,4,4-TRIMETHYL-6-METHYLENEOCT-7-EN-3-ONE

>  <SYNONYMS>  (6193) 


>  <SPECTRUM TYPE>  (6193) 
MS1

>  <INSTRUMENT TYPE>  (6193) 
EI-B

>  <INSTRUMENT>  (6193) 
JEOL JMS-D-3000

>  <ION MODE>  (6193) 
P

>  <INCHIKEY>  (6193) 
SBYFNTNCYJALMR-UHFFFAOYSA-N

>  <FORMULA>  (6193) 
C12H20O

>  <EXACT MASS>  (6193) 
180.15141526

>  <MW>  (6193) 
180

>  <ID>  (6193) 
JP001948

>  <CONTRIBUTOR>  (6193) 
University of Tokyo Team, {Faculty of Engineering, University of Tokyo

>  <COMMENT>  (6193) 
SMILES=C=CC(=C)CC(C)(C)C(=O)C(C)C
InChI=InChI=1S/C12H20O/c1-7-10(4)8-12(5,6)11(13)9(2)3/h7,9H,1,4,8H2,2-3,5-6H3
computed SMILES=O=C(C(C)C)C(C)(C)CC(=C)C=C
accession=JP001948
date=2016.01.19 (Created 2008.10.21, modified 2011.05.06)
author=MASS SPECTROSCOPY SOC. OF JAPAN (MSSJ)
license=CC BY-NC-SA
exact mass=180.15142
ionization energy=70 eV
ion type=[M]+*
computed spectral entropy=2.8701241825083055
computed normalized entropy=0.8438569893011278
SPLASH=splash10-001i-9100000000-7df6bd05557d8eb42e02
submitter=submitter = University of Tokyo Team (Faculty of Engineering, University of Tokyo)
MoNA Rating=3.75

>  <NUM PEAKS>  (6193) 
30

>  <MASS SPECTRAL PEAKS>  (6193) 
41 31.78
42 4.53
43 11.73
53 7.37
55 13.36
56 3.14
57 9.59
66 4.16
67 16.53
68 9.63
69 34.29
70 4.88
77 3.16
79 3.87
81 10.55
83 5.73
84 99.99
85 9.84
91 2.93
94 5.6
95 14.8
96 13.52
107 4.46
109 9.67
121 2.9
123 4.4
124 6.81
125 8.83
163 3.52
180 18.06

$$$$

     RDKit          2D

 13 14  0  0  0  0  0  0  0  0999 V2000
   -1.3000    0.7500    0.0000 C   0  0  0  0  0  0  0  0  0  0  0  0
    6.4971    0.7512    0.0000 C   0  0  0  0  0  0  0  0  0  0  0  0
    0.0000    1.5000    0.0000 C   0  0  0  0  0  0  0  0  0  0  0  0
   -1.3000   -0.7500    0.0000 C   0  0  0  0  0  0  0  0  0  0  0  0
    6.4966   -0.7496    0.0000 C   0  0  0  0  0  0  0  0  0  0  0  0
    5.1981    1.5012    0.0000 C   0  0  0  0  0  0  0  0  0  0  0  0
    1.3000    0.7500    0.0000 C   0  0  0  0  0  0  0  0  0  0  0  0
   -0.0000   -1.5000    0.0000 C   0  0  0  0  0  0  0  0  0  0  0  0
    5.1971   -1.5004    0.0000 C   0  0  0  0  0  0  0  0  0  0  0  0
    3.8986    0.7504    0.0000 C   0  0  0  0  0  0  0  0  0  0  0  0
    1.3000   -0.7500    0.0000 C   0  0  0  0  0  0  0  0  0  0  0  0
    3.8981   -0.7504    0.0000 C   0  0  0  0  0  0  0  0  0  0  0  0
    2.5989   -1.5002    0.0000 Si  0  0  0  0  0  4  0  0  0  0  0  0
  3  1  2  0
  4  1  1  0
  5  2  2  0
  6  2  1  0
  7  3  1  0
  8  4  2  0
  9  5  1  0
 10  6  2  0
 11  7  2  0
 11  8  1  0
 12  9  2  0
 12 10  1  0
 13 11  1  0
 13 12  1  0
M  END
>  <NAME>  (6194) 
DIHYDRODIPHENYLSILANE

>  <SYNONYMS>  (6194) 


>  <SPECTRUM TYPE>  (6194) 
MS1

>  <INSTRUMENT TYPE>  (6194) 
EI-B

>  <INSTRUMENT>  (6194) 
JEOL JMS-D-3000

>  <ION MODE>  (6194) 
P

>  <INCHIKEY>  (6194) 
VDCSGNNYCFPWFK-UHFFFAOYSA-N

>  <FORMULA>  (6194) 
C12H12Si

>  <EXACT MASS>  (6194) 
184.070826914

>  <MW>  (6194) 
184

>  <ID>  (6194) 
JP001947

>  <CONTRIBUTOR>  (6194) 
University of Tokyo Team, {Faculty of Engineering, University of Tokyo

>  <COMMENT>  (6194) 
SMILES=c(c2)ccc(c2)[SiH2]c(c1)cccc1
InChI=InChI=1S/C12H12Si/c1-3-7-11(8-4-1)13-12-9-5-2-6-10-12/h1-10H,13H2
computed SMILES=C=1C=CC(=CC1)[SiH2]C=2C=CC=CC2
accession=JP001947
date=2016.01.19 (Created 2008.10.21, modified 2011.05.06)
author=MASS SPECTROSCOPY SOC. OF JAPAN (MSSJ)
license=CC BY-NC-SA
exact mass=184.07083
ionization energy=70 eV
ion type=[M]+*
computed spectral entropy=2.8829259922054544
computed normalized entropy=0.771316431528135
SPLASH=splash10-0a4i-4900000000-0cd2394218a64aa5d6cd
submitter=submitter = University of Tokyo Team (Faculty of Engineering, University of Tokyo)
MoNA Rating=3.75

>  <NUM PEAKS>  (6194) 
42

>  <MASS SPECTRAL PEAKS>  (6194) 
41 5.68
42 2.24
43 13.55
44 3.14
45 13.3
50 1.28
51 2.75
53 13.28
54 2.67
55 3.12
56 4.64
57 3.92
58 3.44
59 18.31
66 1.05
67 1.14
73 1.08
74 14.62
77 2.8
78 3.15
79 8.07
80 2.24
81 2.5
86 1
91 4.54
92 1.12
103 3.07
104 1.23
105 48.66
106 99.99
107 15.37
108 4.25
129 1.6
154 1.22
155 2.65
180 3
181 9.75
182 4.13
183 17.39
184 54.58
185 10.41
186 2.72

$$$$

     RDKit          2D

 14 15  0  0  0  0  0  0  0  0999 V2000
    3.8971    1.0700    0.0000 C   0  0  0  0  0  0  0  0  0  0  0  0
   -5.1962    4.8200    0.0000 C   0  0  0  0  0  0  0  0  0  0  0  0
    2.5976    0.3192    0.0000 C   0  0  0  0  0  0  0  0  0  0  0  0
    3.8976    2.5708    0.0000 C   0  0  0  0  0  0  0  0  0  0  0  0
   -3.8966    5.5708    0.0000 C   0  0  0  0  0  0  0  0  0  0  0  0
   -5.1966    3.3192    0.0000 C   0  0  0  0  0  0  0  0  0  0  0  0
    1.2986    1.0692    0.0000 C   0  0  0  0  0  0  0  0  0  0  0  0
    2.5986    3.3208    0.0000 C   0  0  0  0  0  0  0  0  0  0  0  0
   -2.5976    4.8208    0.0000 C   0  0  0  0  0  0  0  0  0  0  0  0
   -3.8976    2.5692    0.0000 C   0  0  0  0  0  0  0  0  0  0  0  0
    1.2990    2.5700    0.0000 C   0  0  0  0  0  0  0  0  0  0  0  0
   -2.5981    3.3200    0.0000 C   0  0  0  0  0  0  0  0  0  0  0  0
    0.0000    3.3200    0.0000 N   0  0  0  0  0  0  0  0  0  0  0  0
   -1.2990    2.5700    0.0000 N   0  0  0  0  0  0  0  0  0  0  0  0
  3  1  2  0
  4  1  1  0
  5  2  2  0
  6  2  1  0
  7  3  1  0
  8  4  2  0
  9  5  1  0
 10  6  2  0
 11  7  2  0
 11  8  1  0
 12  9  2  0
 12 10  1  0
 13 11  1  0
 14 12  1  0
 13 14  2  0
M  END
>  <NAME>  (6195) 
AZOBENZENE

>  <SYNONYMS>  (6195) 


>  <SPECTRUM TYPE>  (6195) 
MS1

>  <INSTRUMENT TYPE>  (6195) 
EI-B

>  <INSTRUMENT>  (6195) 
JEOL JMS-D-3000

>  <ION MODE>  (6195) 
P

>  <INCHIKEY>  (6195) 
DMLAVOWQYNRWNQ-BUHFOSPRSA-N

>  <FORMULA>  (6195) 
C12H10N2

>  <EXACT MASS>  (6195) 
182.08439832

>  <MW>  (6195) 
182

>  <ID>  (6195) 
JP001946

>  <CONTRIBUTOR>  (6195) 
University of Tokyo Team, {Faculty of Engineering, University of Tokyo

>  <COMMENT>  (6195) 
SMILES=c(c2)ccc(c2)N=Nc(c1)cccc1
InChI=InChI=1S/C12H10N2/c1-3-7-11(8-4-1)13-14-12-9-5-2-6-10-12/h1-10H/b14-13+
computed SMILES=N(=NC=1C=CC=CC1)C=2C=CC=CC2
accession=JP001946
date=2016.01.19 (Created 2008.10.21, modified 2011.05.06)
author=MASS SPECTROSCOPY SOC. OF JAPAN (MSSJ)
license=CC BY-NC-SA
exact mass=182.0844
ionization energy=70 eV
ion type=[M]+*
computed spectral entropy=1.8413997248143548
computed normalized entropy=0.6641445628209929
SPLASH=splash10-004i-9400000000-ba3371d80063d6220770
submitter=submitter = University of Tokyo Team (Faculty of Engineering, University of Tokyo)
MoNA Rating=3.75

>  <NUM PEAKS>  (6195) 
16

>  <MASS SPECTRAL PEAKS>  (6195) 
50 2.66
51 21.3
52 2.43
63 3.18
64 2.9
77 99.99
78 5.99
105 18.63
115 2.2
128 1.45
149 1.07
152 6.83
153 5.43
154 1.54
182 28.74
183 4.49

$$$$

     RDKit          2D

 17 16  0  0  0  0  0  0  0  0999 V2000
    0.7988    0.4465    0.0000 C   0  0  0  0  0  0  0  0  0  0  0  0
   -2.2150    2.1865    0.0000 C   0  0  0  0  0  0  0  0  0  0  0  0
   -1.6660    0.1374    0.0000 C   0  0  0  0  0  0  0  0  0  0  0  0
    0.3212    4.7107    0.0000 C   0  0  0  0  0  0  0  0  0  0  0  0
   -1.9060    5.7493    0.0000 C   0  0  0  0  0  0  0  0  0  0  0  0
   -2.4550    3.7003    0.0000 C   0  0  0  0  0  0  0  0  0  0  0  0
    3.2997    2.4323    0.0000 C   0  0  0  0  0  0  0  0  0  0  0  0
    2.8676    5.2810    0.0000 C   0  0  0  0  0  0  0  0  0  0  0  0
    0.4458    5.8335    0.0000 C   0  0  0  0  0  0  0  0  0  0  0  0
    1.7185    1.1543    0.0000 C   0  0  0  0  0  0  0  0  0  0  0  0
    0.1372   -0.7302    0.0000 F   0  0  0  0  0  0  0  0  0  0  0  0
    2.8676    0.1901    0.0000 F   0  0  0  0  0  0  0  0  0  0  0  0
    4.4812    2.1598    0.0000 F   0  0  0  0  0  0  0  0  0  0  0  0
   -0.9160    1.4365    0.0000 Si  0  0  0  0  0  4  0  0  0  0  0  0
   -1.1560    4.4503    0.0000 Si  0  0  0  0  0  4  0  0  0  0  0  0
    1.7185    4.3168    0.0000 Si  0  0  0  0  0  4  0  0  0  0  0  0
   -0.1660    2.7355    0.0000 Si  0  0  0  0  0  4  0  0  0  0  0  0
 11 10  1  0
 12 10  1  0
 13 10  1  0
 14  1  1  0
 14  2  1  0
 14  3  1  0
 15  4  1  0
 15  5  1  0
 15  6  1  0
 16  7  1  0
 16  8  1  0
 16  9  1  0
 17 10  1  0
 17 14  1  0
 17 15  1  0
 17 16  1  0
M  END
>  <NAME>  (6196) 
TRIFLUOROTRIS(TRIMETHYLSILYL)METHYLSILANE

>  <SYNONYMS>  (6196) 
TRIFLUOROSILYLTRIS(TRIMETHYSILYL)METHANE

>  <SPECTRUM TYPE>  (6196) 
MS1

>  <INSTRUMENT TYPE>  (6196) 
EI-B

>  <INSTRUMENT>  (6196) 
JEOL JMS-D-3000

>  <ION MODE>  (6196) 
P

>  <INCHIKEY>  (6196) 
GLHNOPPKUIOCTF-UHFFFAOYSA-N

>  <FORMULA>  (6196) 
C10H27F3Si4

>  <EXACT MASS>  (6196) 
316.114191644

>  <MW>  (6196) 
316

>  <ID>  (6196) 
JP001945

>  <CONTRIBUTOR>  (6196) 
University of Tokyo Team, {Faculty of Engineering, University of Tokyo

>  <COMMENT>  (6196) 
SMILES=FC(F)(F)[Si]([Si](C)(C)C)([Si](C)(C)C)[Si](C)(C)C
InChI=InChI=1S/C10H27F3Si4/c1-14(2,3)17(10(11,12)13,15(4,5)6)16(7,8)9/h1-9H3
computed SMILES=FC(F)(F)[Si]([Si](C)(C)C)([Si](C)(C)C)[Si](C)(C)C
accession=JP001945
date=2016.01.19 (Created 2008.10.21, modified 2011.05.06)
author=MASS SPECTROSCOPY SOC. OF JAPAN (MSSJ)
license=CC BY-NC-SA
exact mass=316.11419
ionization energy=70 eV
ion type=[M]+*
computed spectral entropy=2.7674268942051556
computed normalized entropy=0.7269956035351409
SPLASH=splash10-0zfr-5196000000-f192d5b8dba3370a7abd
submitter=submitter = University of Tokyo Team (Faculty of Engineering, University of Tokyo)
MoNA Rating=3.75

>  <NUM PEAKS>  (6196) 
45

>  <MASS SPECTRAL PEAKS>  (6196) 
43 4.39
44 2.15
45 14.25
46 1.09
47 1.48
55 1.14
59 13.94
60 1.17
69 1.66
73 47.06
74 3.95
75 1.76
77 4.99
83 2.6
85 2.21
113 2.23
117 2.41
119 1.01
127 2.7
129 1.04
131 1.53
133 1.24
147 1.43
179 1.14
189 2.34
193 8.01
194 1.71
195 2.44
197 1.48
205 9.46
206 2.1
207 1.61
209 99.99
210 21.93
211 12.51
212 2
213 20.36
214 4.13
215 2.36
228 2.18
285 2.47
301 87.17
302 25.85
303 15.66
304 3.3

$$$$

     RDKit          2D

 12 12  0  0  0  0  0  0  0  0999 V2000
   -1.3858    4.0193    0.0000 C   0  0  0  0  0  0  0  0  0  0  0  0
   -3.4349    3.0684    0.0000 C   0  0  0  0  0  0  0  0  0  0  0  0
   -3.9839    1.0193    0.0000 C   0  0  0  0  0  0  0  0  0  0  0  0
   -1.9349    0.4703    0.0000 C   0  0  0  0  0  0  0  0  0  0  0  0
    2.5113    0.2693    0.0000 C   0  0  0  0  0  0  0  0  0  0  0  0
    1.2118   -0.4815    0.0000 C   0  0  0  0  0  0  0  0  0  0  0  0
    2.5118    1.7702    0.0000 C   0  0  0  0  0  0  0  0  0  0  0  0
   -0.0873    0.2685    0.0000 C   0  0  0  0  0  0  0  0  0  0  0  0
    1.2127    2.5202    0.0000 C   0  0  0  0  0  0  0  0  0  0  0  0
   -0.0868    1.7693    0.0000 C   0  0  0  0  0  0  0  0  0  0  0  0
   -1.3858    2.5193    0.0000 N   0  0  0  0  0  0  0  0  0  0  0  0
   -2.6849    1.7693    0.0000 Si  0  0  0  0  0  4  0  0  0  0  0  0
  6  5  2  0
  7  5  1  0
  8  6  1  0
  9  7  2  0
 10  8  2  0
 10  9  1  0
 11  1  1  0
 11 10  1  0
 12  2  1  0
 12  3  1  0
 12  4  1  0
 12 11  1  0
M  END
>  <NAME>  (6197) 
N-METHYL-N-TRIMETHYLSILYLANILINE

>  <SYNONYMS>  (6197) 


>  <SPECTRUM TYPE>  (6197) 
MS1

>  <INSTRUMENT TYPE>  (6197) 
EI-B

>  <INSTRUMENT>  (6197) 
JEOL JMS-D-3000

>  <ION MODE>  (6197) 
P

>  <INCHIKEY>  (6197) 
LUZXFCNMHQMIBH-UHFFFAOYSA-N

>  <FORMULA>  (6197) 
C10H17NSi

>  <EXACT MASS>  (6197) 
179.113026074

>  <MW>  (6197) 
179

>  <ID>  (6197) 
JP001944

>  <CONTRIBUTOR>  (6197) 
University of Tokyo Team, {Faculty of Engineering, University of Tokyo

>  <COMMENT>  (6197) 
SMILES=c(c1)ccc(c1)N(C)[Si](C)(C)C
InChI=InChI=1S/C10H17NSi/c1-11(12(2,3)4)10-8-6-5-7-9-10/h5-9H,1-4H3
computed SMILES=C=1C=CC(=CC1)N(C)[Si](C)(C)C
accession=JP001944
date=2016.01.19 (Created 2008.10.21, modified 2011.05.06)
author=MASS SPECTROSCOPY SOC. OF JAPAN (MSSJ)
license=CC BY-NC-SA
exact mass=179.11303
ionization energy=70 eV
ion type=[M]+*
computed spectral entropy=3.057749774508871
computed normalized entropy=0.777692110519709
SPLASH=splash10-0bvi-5900000000-13b5cd3f9cc416e94e9d
submitter=submitter = University of Tokyo Team (Faculty of Engineering, University of Tokyo)
MoNA Rating=3.75

>  <NUM PEAKS>  (6197) 
51

>  <MASS SPECTRAL PEAKS>  (6197) 
43 6.26
45 10.61
47 1.58
50 3.91
51 10.38
52 3.6
53 3.46
55 1.01
58 1.64
59 42.63
60 3.21
61 2.03
63 2.69
64 1.87
65 5.11
66 1.17
73 19.65
74 2.99
75 13.43
76 2.37
77 21.09
78 5.45
79 9.47
80 1.04
82 2.27
84 2.49
91 2.01
92 1.37
93 1.89
104 10.67
105 5.99
106 49.75
107 41.55
108 3.9
119 3.13
120 1.7
121 1.32
134 2.21
135 1.62
148 2.01
149 5.13
150 1.08
162 2.12
163 1.15
164 99.99
165 15.85
166 4.35
178 1.51
179 43.52
180 7.46
181 1.95

$$$$

     RDKit          2D

 13 13  0  0  0  0  0  0  0  0999 V2000
   -1.0186    4.3342    0.0000 C   0  0  0  0  0  0  0  0  0  0  0  0
   -3.2818    0.9352    0.0000 C   0  0  0  0  0  0  0  0  0  0  0  0
   -1.3534    0.9352    0.0000 C   0  0  0  0  0  0  0  0  0  0  0  0
    2.8785    0.5842    0.0000 C   0  0  0  0  0  0  0  0  0  0  0  0
    1.5790   -0.1666    0.0000 C   0  0  0  0  0  0  0  0  0  0  0  0
    2.8790    2.0851    0.0000 C   0  0  0  0  0  0  0  0  0  0  0  0
    0.2800    0.5834    0.0000 C   0  0  0  0  0  0  0  0  0  0  0  0
    1.5800    2.8351    0.0000 C   0  0  0  0  0  0  0  0  0  0  0  0
   -3.6167    2.8342    0.0000 C   0  0  0  0  0  0  0  0  0  0  0  0
    0.2805    2.0842    0.0000 C   0  0  0  0  0  0  0  0  0  0  0  0
   -4.9157    2.0842    0.0000 Cl  0  0  0  0  0  0  0  0  0  0  0  0
   -1.0186    2.8342    0.0000 N   0  0  0  0  0  0  0  0  0  0  0  0
   -2.3176    2.0842    0.0000 Si  0  0  0  0  0  4  0  0  0  0  0  0
  5  4  2  0
  6  4  1  0
  7  5  1  0
  8  6  2  0
 10  7  2  0
 10  8  1  0
 11  9  1  0
 12  1  1  0
 12 10  1  0
 13  2  1  0
 13  3  1  0
 13  9  1  0
 13 12  1  0
M  END
>  <NAME>  (6198) 
N-(CHLOROMETHYLDIMETHYLSILYL)-N-METHYLANILINE

>  <SYNONYMS>  (6198) 


>  <SPECTRUM TYPE>  (6198) 
MS1

>  <INSTRUMENT TYPE>  (6198) 
EI-B

>  <INSTRUMENT>  (6198) 
JEOL JMS-D-3000

>  <ION MODE>  (6198) 
P

>  <INCHIKEY>  (6198) 
ALLAMHREESSLKW-UHFFFAOYSA-N

>  <FORMULA>  (6198) 
C10H16ClNSi

>  <EXACT MASS>  (6198) 
213.07405372199997

>  <MW>  (6198) 
213

>  <ID>  (6198) 
JP001943

>  <CONTRIBUTOR>  (6198) 
University of Tokyo Team, {Faculty of Engineering, University of Tokyo

>  <COMMENT>  (6198) 
SMILES=ClC[Si](C)(C)N(C)c(c1)cccc1
InChI=InChI=1S/C10H16ClNSi/c1-12(13(2,3)9-11)10-7-5-4-6-8-10/h4-8H,9H2,1-3H3
computed SMILES=ClC[Si](N(C=1C=CC=CC1)C)(C)C
accession=JP001943
date=2016.01.19 (Created 2008.10.21, modified 2011.05.06)
author=MASS SPECTROSCOPY SOC. OF JAPAN (MSSJ)
license=CC BY-NC-SA
exact mass=213.07405
ionization energy=70 eV
ion type=[M]+*
computed spectral entropy=3.1923808959009015
computed normalized entropy=0.793068815141933
SPLASH=splash10-08fr-7910000000-da27057e73a0c984244f
submitter=submitter = University of Tokyo Team (Faculty of Engineering, University of Tokyo)
MoNA Rating=3.75

>  <NUM PEAKS>  (6198) 
56

>  <MASS SPECTRAL PEAKS>  (6198) 
43 1.1
44 5.73
45 2.47
46 3.02
47 2.01
49 1.29
50 3.13
51 9.04
52 4.23
53 2.08
58 1.21
59 43.22
60 3.58
61 2
63 2.9
64 1.61
65 3.08
73 1.85
74 2.1
75 17
76 2.67
77 25.45
78 4.86
79 10.53
80 1.28
81 6.66
82 4.88
83 1.3
84 1.79
91 3.09
92 1.02
93 3.45
95 1.34
103 1.52
104 17.26
105 14.86
106 21.86
107 14.37
108 1.42
109 1.08
119 3.49
120 5.16
121 1.24
134 1.77
135 1.79
148 1.55
149 4.96
162 6.68
163 1.35
164 99.99
165 15.8
166 4.59
213 16.45
214 2.78
215 6.05
216 1.13

$$$$

     RDKit          2D

 11 11  0  0  0  0  0  0  0  0999 V2000
    3.8999   -0.4436    0.0000 C   0  0  0  0  0  0  0  0  0  0  0  0
   -2.4399    2.6959    0.0000 C   0  0  0  0  0  0  0  0  0  0  0  0
   -0.5115    3.2173    0.0000 C   0  0  0  0  0  0  0  0  0  0  0  0
    1.3017   -0.4438    0.0000 C   0  0  0  0  0  0  0  0  0  0  0  0
    2.6003    1.8070    0.0000 C   0  0  0  0  0  0  0  0  0  0  0  0
    0.0022    0.3070    0.0000 C   0  0  0  0  0  0  0  0  0  0  0  0
    1.3008    2.5579    0.0000 C   0  0  0  0  0  0  0  0  0  0  0  0
    2.6008    0.3062    0.0000 C   0  0  0  0  0  0  0  0  0  0  0  0
   -1.4754    1.5471    0.0000 C   0  0  0  0  0  0  0  0  0  0  0  0
    0.0017    1.8079    0.0000 C   0  0  0  0  0  0  0  0  0  0  0  0
   -1.9882    0.1374    0.0000 O   0  0  0  0  0  0  0  0  0  0  0  0
  6  4  1  0
  7  5  1  0
  8  1  2  0
  8  4  1  0
  8  5  1  0
  9  2  1  0
 10  3  1  0
 10  6  1  0
 10  7  1  0
 10  9  1  0
 11  9  2  0
M  END
>  <NAME>  (6199) 
1-ACETYL-1-METHYL-4-METHYLENECYCLOHEXANE

>  <SYNONYMS>  (6199) 


>  <SPECTRUM TYPE>  (6199) 
MS1

>  <INSTRUMENT TYPE>  (6199) 
EI-B

>  <INSTRUMENT>  (6199) 
JEOL JMS-D-3000

>  <ION MODE>  (6199) 
P

>  <INCHIKEY>  (6199) 
JSCQETDRSINWLO-UHFFFAOYSA-N

>  <FORMULA>  (6199) 
C10H16O

>  <EXACT MASS>  (6199) 
152.120115132

>  <MW>  (6199) 
152

>  <ID>  (6199) 
JP001942

>  <CONTRIBUTOR>  (6199) 
University of Tokyo Team, {Faculty of Engineering, University of Tokyo

>  <COMMENT>  (6199) 
SMILES=C=C(C1)CCC(C)(C1)C(C)=O
InChI=InChI=1S/C10H16O/c1-8-4-6-10(3,7-5-8)9(2)11/h1,4-7H2,2-3H3
computed SMILES=O=C(C)C1(C)CCC(=C)CC1
accession=JP001942
date=2016.01.19 (Created 2008.10.21, modified 2011.05.06)
author=MASS SPECTROSCOPY SOC. OF JAPAN (MSSJ)
license=CC BY-NC-SA
exact mass=152.12012
ionization energy=70 eV
ion type=[M]+*
computed spectral entropy=2.817195188187488
computed normalized entropy=0.8547738564508756
SPLASH=splash10-0ap3-9300000000-8f7b9db23da676cbd06c
submitter=submitter = University of Tokyo Team (Faculty of Engineering, University of Tokyo)
MoNA Rating=3.75

>  <NUM PEAKS>  (6199) 
27

>  <MASS SPECTRAL PEAKS>  (6199) 
41 39.93
43 54.64
51 3.98
53 13.42
55 28.77
57 16.71
59 4.49
65 6.6
67 75.15
68 34.64
69 7.68
77 9.25
79 14.6
80 4.88
81 25.55
85 79.1
86 4.43
91 7.08
93 10.07
94 8.16
107 4.27
108 7.2
109 99.99
110 9.63
137 21.56
152 30.97
153 3.47

$$$$

     RDKit          2D

 11 12  0  0  0  0  0  0  0  0999 V2000
    3.0195    1.9591    0.0000 C   0  0  0  0  0  0  0  0  0  0  0  0
    1.1124    2.5814    0.0000 C   0  0  0  0  0  0  0  0  0  0  0  0
   -2.3100   -0.7500    0.0000 C   0  0  0  0  0  0  0  0  0  0  0  0
   -2.3100    0.7500    0.0000 C   0  0  0  0  0  0  0  0  0  0  0  0
   -1.0100   -1.5000    0.0000 C   0  0  0  0  0  0  0  0  0  0  0  0
   -1.0100    1.5000    0.0000 C   0  0  0  0  0  0  0  0  0  0  0  0
    1.7200   -1.2100    0.0000 C   0  0  0  0  0  0  0  0  0  0  0  0
    0.2900   -0.7500    0.0000 C   0  0  0  0  0  0  0  0  0  0  0  0
    0.2900    0.7500    0.0000 C   0  0  0  0  0  0  0  0  0  0  0  0
    2.6000    0.0000    0.0000 O   0  0  0  0  0  0  0  0  0  0  0  0
    1.7200    1.2100    0.0000 Si  0  0  0  0  0  4  0  0  0  0  0  0
  4  3  2  0
  5  3  1  0
  6  4  1  0
  8  5  2  0
  8  7  1  0
  9  6  2  0
  9  8  1  0
 10  7  1  0
 11  1  1  0
 11  2  1  0
 11  9  1  0
 11 10  1  0
M  END
>  <NAME>  (6200) 
2,2-DIMETHYL-3,4-BENZO-1-OXA-2-SILACYCLOPENT-3-ENE

>  <SYNONYMS>  (6200) 


>  <SPECTRUM TYPE>  (6200) 
MS1

>  <INSTRUMENT TYPE>  (6200) 
EI-B

>  <INSTRUMENT>  (6200) 
JEOL JMS-D-3000

>  <ION MODE>  (6200) 
P

>  <INCHIKEY>  (6200) 
GLZOQCBCUKBUJG-UHFFFAOYSA-N

>  <FORMULA>  (6200) 
C9H12OSi

>  <EXACT MASS>  (6200) 
164.06574153399998

>  <MW>  (6200) 
164

>  <ID>  (6200) 
JP001941

>  <CONTRIBUTOR>  (6200) 
University of Tokyo Team, {Faculty of Engineering, University of Tokyo

>  <COMMENT>  (6200) 
SMILES=c(c2)cc(C1)c(c2)[Si](C)(C)O1
InChI=InChI=1S/C9H12OSi/c1-11(2)9-6-4-3-5-8(9)7-10-11/h3-6H,7H2,1-2H3
computed SMILES=O1CC=2C=CC=CC2[Si]1(C)C
accession=JP001941
date=2016.01.19 (Created 2008.10.21, modified 2011.05.06)
author=MASS SPECTROSCOPY SOC. OF JAPAN (MSSJ)
license=CC BY-NC-SA
exact mass=164.06574
ionization energy=70 eV
ion type=[M]+*
computed spectral entropy=2.22627919261615
computed normalized entropy=0.6681100112006915
SPLASH=splash10-0002-1900000000-fb4d7549e9f716ae026a
submitter=submitter = University of Tokyo Team (Faculty of Engineering, University of Tokyo)
MoNA Rating=3.75

>  <NUM PEAKS>  (6200) 
28

>  <MASS SPECTRAL PEAKS>  (6200) 
43 4.22
45 3.17
53 2.05
63 2.07
67 1.79
74 2.2
75 2.73
77 2.83
81 2.36
89 3.51
90 1.83
91 1.77
103 2.19
105 5.85
119 1.51
121 1.67
131 2.53
133 3.1
145 2.29
147 2.53
148 1.66
149 99.99
150 14.45
151 4.41
163 12.82
164 24.04
165 3.97
166 1.09

$$$$

     RDKit          2D

 10  9  0  0  0  0  0  0  0  0999 V2000
    1.0514   -0.9240    0.0000 C   0  0  0  0  0  0  0  0  0  0  0  0
   -0.4486    1.6740    0.0000 C   0  0  0  0  0  0  0  0  0  0  0  0
   -0.9976   -0.3750    0.0000 C   0  0  0  0  0  0  0  0  0  0  0  0
    4.9486    1.3260    0.0000 C   0  0  0  0  0  0  0  0  0  0  0  0
    5.4976    3.3750    0.0000 C   0  0  0  0  0  0  0  0  0  0  0  0
    3.4486    3.9240    0.0000 C   0  0  0  0  0  0  0  0  0  0  0  0
    1.6005    1.1250    0.0000 C   0  0  0  0  0  0  0  0  0  0  0  0
    2.8995    1.8750    0.0000 C   0  0  0  0  0  0  0  0  0  0  0  0
    0.3014    0.3750    0.0000 Si  0  0  0  0  0  4  0  0  0  0  0  0
    4.1986    2.6250    0.0000 Si  0  0  0  0  0  4  0  0  0  0  0  0
  8  7  3  0
  9  1  1  0
  9  2  1  0
  9  3  1  0
  9  7  1  0
 10  4  1  0
 10  5  1  0
 10  6  1  0
 10  8  1  0
M  END
>  <NAME>  (6201) 
BIS(TRIMEHYLSILYL)ACETYLENE

>  <SYNONYMS>  (6201) 


>  <SPECTRUM TYPE>  (6201) 
MS1

>  <INSTRUMENT TYPE>  (6201) 
EI-B

>  <INSTRUMENT>  (6201) 
JEOL JMS-D-3000

>  <ION MODE>  (6201) 
P

>  <INCHIKEY>  (6201) 
ZDWYFWIBTZJGOR-UHFFFAOYSA-N

>  <FORMULA>  (6201) 
C8H18Si2

>  <EXACT MASS>  (6201) 
170.094703636

>  <MW>  (6201) 
170

>  <ID>  (6201) 
JP001940

>  <CONTRIBUTOR>  (6201) 
University of Tokyo Team, {Faculty of Engineering, University of Tokyo

>  <COMMENT>  (6201) 
SMILES=C[Si](C)(C)C#C[Si](C)(C)C
InChI=InChI=1S/C8H18Si2/c1-9(2,3)7-8-10(4,5)6/h1-6H3
computed SMILES=C(#C[Si](C)(C)C)[Si](C)(C)C
accession=JP001940
date=2016.01.19 (Created 2008.10.21, modified 2011.05.06)
author=MASS SPECTROSCOPY SOC. OF JAPAN (MSSJ)
license=CC BY-NC-SA
exact mass=170.0947
ionization energy=70 eV
ion type=[M]+*
computed spectral entropy=1.7745583574169326
computed normalized entropy=0.6026813155147482
SPLASH=splash10-0a4i-2900000000-f9352c023ee66acb3f97
submitter=submitter = University of Tokyo Team (Faculty of Engineering, University of Tokyo)
MoNA Rating=3.75

>  <NUM PEAKS>  (6201) 
19

>  <MASS SPECTRAL PEAKS>  (6201) 
43 1.93
45 2.32
55 1.12
59 1.56
67 1.48
70 5.11
73 13.63
83 2.73
97 4.36
101 1.13
117 1.88
125 1.74
139 1.61
155 99.99
156 18.96
157 8.54
158 1.2
170 9.13
171 1.99

$$$$

     RDKit          2D

  9  8  0  0  0  0  0  0  0  0999 V2000
    1.5368    3.1373    0.0000 C   0  0  0  0  0  0  0  0  0  0  0  0
   -1.0613    1.6373    0.0000 C   0  0  0  0  0  0  0  0  0  0  0  0
   -4.4094    4.4363    0.0000 C   0  0  0  0  0  0  0  0  0  0  0  0
   -4.9584    2.3873    0.0000 C   0  0  0  0  0  0  0  0  0  0  0  0
   -2.9094    1.8382    0.0000 C   0  0  0  0  0  0  0  0  0  0  0  0
    0.2377    3.8873    0.0000 C   0  0  0  0  0  0  0  0  0  0  0  0
   -2.3603    3.8873    0.0000 C   0  0  0  0  0  0  0  0  0  0  0  0
   -1.0613    3.1373    0.0000 C   0  0  0  0  0  0  0  0  0  0  0  0
   -3.6594    3.1373    0.0000 Si  0  0  0  0  0  4  0  0  0  0  0  0
  6  1  2  0
  8  2  2  0
  8  6  1  0
  8  7  1  0
  9  3  1  0
  9  4  1  0
  9  5  1  0
  9  7  1  0
M  END
>  <NAME>  (6202) 
2-(TRIMETHYLSILYLMETHYL)BUTA-1,3-DIENE

>  <SYNONYMS>  (6202) 


>  <SPECTRUM TYPE>  (6202) 
MS1

>  <INSTRUMENT TYPE>  (6202) 
EI-B

>  <INSTRUMENT>  (6202) 
JEOL JMS-D-3000

>  <ION MODE>  (6202) 
P

>  <INCHIKEY>  (6202) 
JGVXFONXFYPFAK-UHFFFAOYSA-N

>  <FORMULA>  (6202) 
C8H16Si

>  <EXACT MASS>  (6202) 
140.102127042

>  <MW>  (6202) 
140

>  <ID>  (6202) 
JP001939

>  <CONTRIBUTOR>  (6202) 
University of Tokyo Team, {Faculty of Engineering, University of Tokyo

>  <COMMENT>  (6202) 
SMILES=C=CC(=C)C[Si](C)(C)C
InChI=InChI=1S/C8H16Si/c1-6-8(2)7-9(3,4)5/h6H,1-2,7H2,3-5H3
computed SMILES=C=CC(=C)C[Si](C)(C)C
accession=JP001939
date=2016.01.19 (Created 2008.10.21, modified 2011.05.06)
author=MASS SPECTROSCOPY SOC. OF JAPAN (MSSJ)
license=CC BY-NC-SA
exact mass=140.10213
ionization energy=70 eV
ion type=[M]+*
computed spectral entropy=2.0003878180242447
computed normalized entropy=0.637981664217953
SPLASH=splash10-00di-9100000000-e799ee2de4158073e3d5
submitter=submitter = University of Tokyo Team (Faculty of Engineering, University of Tokyo)
MoNA Rating=3.75

>  <NUM PEAKS>  (6202) 
23

>  <MASS SPECTRAL PEAKS>  (6202) 
43 4.94
44 1.36
45 6.4
55 1.3
58 2.01
59 10.29
69 1.15
71 1.15
72 1.57
73 99.99
74 9.03
75 3.53
83 1.62
85 3.76
86 1.64
97 7.92
98 4.95
99 1.66
109 1.29
125 9.14
126 1.09
140 11.99
141 1.75

$$$$

     RDKit          2D

 10  9  0  0  0  0  0  0  0  0999 V2000
   -6.3212    3.8505    0.0000 C   0  0  0  0  0  0  0  0  0  0  0  0
   -0.5760    1.8014    0.0000 C   0  0  0  0  0  0  0  0  0  0  0  0
    1.4731    2.3505    0.0000 C   0  0  0  0  0  0  0  0  0  0  0  0
   -5.0221    3.1005    0.0000 C   0  0  0  0  0  0  0  0  0  0  0  0
   -3.7231    3.8505    0.0000 C   0  0  0  0  0  0  0  0  0  0  0  0
   -2.4240    3.1005    0.0000 C   0  0  0  0  0  0  0  0  0  0  0  0
   -1.1250    3.8505    0.0000 C   0  0  0  0  0  0  0  0  0  0  0  0
    0.1740    3.1005    0.0000 C   0  0  0  0  0  0  0  0  0  0  0  0
    0.9240    4.3995    0.0000 Br  0  0  0  0  0  0  0  0  0  0  0  0
   -1.1250    5.3505    0.0000 O   0  0  0  0  0  0  0  0  0  0  0  0
  4  1  2  0
  5  4  1  0
  6  5  1  0
  7  6  1  0
  8  2  1  0
  8  3  1  0
  8  7  1  0
  9  8  1  0
 10  7  2  0
M  END
>  <NAME>  (6203) 
2-METHYL-2-BROMOHEPT-6-EN-3-ONE

>  <SYNONYMS>  (6203) 


>  <SPECTRUM TYPE>  (6203) 
MS1

>  <INSTRUMENT TYPE>  (6203) 
EI-B

>  <INSTRUMENT>  (6203) 
JEOL JMS-D-3000

>  <ION MODE>  (6203) 
P

>  <INCHIKEY>  (6203) 
AOWPRVPXYURVBN-UHFFFAOYSA-N

>  <FORMULA>  (6203) 
C8H13BrO

>  <EXACT MASS>  (6203) 
204.014977136

>  <MW>  (6203) 
204

>  <ID>  (6203) 
JP001938

>  <CONTRIBUTOR>  (6203) 
University of Tokyo Team, {Faculty of Engineering, University of Tokyo

>  <COMMENT>  (6203) 
SMILES=C=CCCC(=O)C(C)(C)Br
InChI=InChI=1S/C8H13BrO/c1-4-5-6-7(10)8(2,3)9/h4H,1,5-6H2,2-3H3
computed SMILES=O=C(CCC=C)C(Br)(C)C
accession=JP001938
date=2016.01.19 (Created 2008.10.21, modified 2011.05.06)
author=MASS SPECTROSCOPY SOC. OF JAPAN (MSSJ)
license=CC BY-NC-SA
exact mass=204.01498
ionization energy=70 eV
ion type=[M]+*
computed spectral entropy=1.763826019852587
computed normalized entropy=0.5706249740880291
SPLASH=splash10-053r-9000000000-1eab196b7c54b935db7b
submitter=submitter = University of Tokyo Team (Faculty of Engineering, University of Tokyo)
MoNA Rating=3.75

>  <NUM PEAKS>  (6203) 
22

>  <MASS SPECTRAL PEAKS>  (6203) 
42 5.63
43 4.07
53 2.81
54 1.91
55 92.69
56 4.2
67 1.14
69 3.26
70 12.97
71 1.06
81 1.01
82 5.09
83 99.99
84 5.75
97 1.22
121 3.5
123 3.22
125 2.08
149 1.22
151 1.38
204 1.46
206 1.42

$$$$

     RDKit          2D

 10 10  0  0  0  0  0  0  0  0999 V2000
    1.8487   -2.7991    0.0000 C   0  0  0  0  0  0  0  0  0  0  0  0
    3.8978   -2.2504    0.0000 C   0  0  0  0  0  0  0  0  0  0  0  0
   -1.3000    0.7500    0.0000 C   0  0  0  0  0  0  0  0  0  0  0  0
    0.0000    1.5000    0.0000 C   0  0  0  0  0  0  0  0  0  0  0  0
   -1.3000   -0.7500    0.0000 C   0  0  0  0  0  0  0  0  0  0  0  0
    1.3000    0.7500    0.0000 C   0  0  0  0  0  0  0  0  0  0  0  0
    0.0000   -1.5000    0.0000 C   0  0  0  0  0  0  0  0  0  0  0  0
    1.3000   -0.7500    0.0000 C   0  0  0  0  0  0  0  0  0  0  0  0
    3.3491   -0.2013    0.0000 Cl  0  0  0  0  0  0  0  0  0  0  0  0
    2.5989   -1.5002    0.0000 Si  0  0  0  0  0  4  0  0  0  0  0  0
  4  3  2  0
  5  3  1  0
  6  4  1  0
  7  5  2  0
  8  6  2  0
  8  7  1  0
 10  1  1  0
 10  2  1  0
 10  8  1  0
 10  9  1  0
M  END
>  <NAME>  (6204) 
CHLORODIMETHYLPHENYLSILANE

>  <SYNONYMS>  (6204) 


>  <SPECTRUM TYPE>  (6204) 
MS1

>  <INSTRUMENT TYPE>  (6204) 
EI-B

>  <INSTRUMENT>  (6204) 
JEOL JMS-D-3000

>  <ION MODE>  (6204) 
P

>  <INCHIKEY>  (6204) 
KWYZNESIGBQHJK-UHFFFAOYSA-N

>  <FORMULA>  (6204) 
C8H11ClSi

>  <EXACT MASS>  (6204) 
170.031854562

>  <MW>  (6204) 
170

>  <ID>  (6204) 
JP001937

>  <CONTRIBUTOR>  (6204) 
University of Tokyo Team, {Faculty of Engineering, University of Tokyo

>  <COMMENT>  (6204) 
SMILES=c(c1)ccc(c1)[Si](C)(C)Cl
InChI=InChI=1S/C8H11ClSi/c1-10(2,9)8-6-4-3-5-7-8/h3-7H,1-2H3
computed SMILES=Cl[Si](C=1C=CC=CC1)(C)C
accession=JP001937
date=2016.01.19 (Created 2008.10.21, modified 2011.05.06)
author=MASS SPECTROSCOPY SOC. OF JAPAN (MSSJ)
license=CC BY-NC-SA
exact mass=170.03185
ionization energy=70 eV
ion type=[M]+*
computed spectral entropy=2.1493208580020817
computed normalized entropy=0.685480728072454
SPLASH=splash10-0a4i-1900000000-9375b32bfbf121816569
submitter=submitter = University of Tokyo Team (Faculty of Engineering, University of Tokyo)
MoNA Rating=3.75

>  <NUM PEAKS>  (6204) 
23

>  <MASS SPECTRAL PEAKS>  (6204) 
50 1.05
51 2.5
53 1.81
63 10.67
65 4.88
77 1.32
78 2.26
79 1.65
91 11.05
92 1.04
93 3.44
103 1.64
105 2.98
119 2.05
135 3.54
155 99.99
156 13.18
157 36.56
158 4.76
159 1.46
170 18.57
171 2.88
172 8.4

$$$$

     RDKit          2D

  9  9  0  0  0  0  0  0  0  0999 V2000
   -4.6848    0.1045    0.0000 C   0  0  0  0  0  0  0  0  0  0  0  0
   -2.3109    1.1602    0.0000 C   0  0  0  0  0  0  0  0  0  0  0  0
    1.1179   -2.5684    0.0000 C   0  0  0  0  0  0  0  0  0  0  0  0
    1.2837   -1.0755    0.0000 C   0  0  0  0  0  0  0  0  0  0  0  0
   -0.3419   -2.8800    0.0000 C   0  0  0  0  0  0  0  0  0  0  0  0
   -0.0921   -0.4726    0.0000 C   0  0  0  0  0  0  0  0  0  0  0  0
   -1.0919   -1.5810    0.0000 C   0  0  0  0  0  0  0  0  0  0  0  0
   -2.5836   -1.4235    0.0000 N   0  0  0  0  0  0  0  0  0  0  0  0
   -3.1931   -0.0529    0.0000 N   0  0  0  0  0  0  0  0  0  0  0  0
  4  3  1  0
  5  3  1  0
  6  4  1  0
  7  5  1  0
  7  6  1  0
  8  7  2  3
  9  1  1  0
  9  2  1  0
  9  8  1  0
M  END
>  <NAME>  (6205) 
CYCLOPENTANONE DIMETHYLHYDRAZONE

>  <SYNONYMS>  (6205) 


>  <SPECTRUM TYPE>  (6205) 
MS1

>  <INSTRUMENT TYPE>  (6205) 
EI-B

>  <INSTRUMENT>  (6205) 
JEOL JMS-D-3000

>  <ION MODE>  (6205) 
P

>  <INCHIKEY>  (6205) 
WEZHJSIEBKGPAO-UHFFFAOYSA-N

>  <FORMULA>  (6205) 
C7H14N2

>  <EXACT MASS>  (6205) 
126.11569844799999

>  <MW>  (6205) 
126

>  <ID>  (6205) 
JP001936

>  <CONTRIBUTOR>  (6205) 
University of Tokyo Team, {Faculty of Engineering, University of Tokyo

>  <COMMENT>  (6205) 
SMILES=CN(C)N=C(C1)CCC1
InChI=InChI=1S/C7H14N2/c1-9(2)8-7-5-3-4-6-7/h3-6H2,1-2H3
computed SMILES=N(=C1CCCC1)N(C)C
accession=JP001936
date=2016.01.19 (Created 2008.10.21, modified 2011.05.06)
author=MASS SPECTROSCOPY SOC. OF JAPAN (MSSJ)
license=CC BY-NC-SA
exact mass=126.1157
ionization energy=70 eV
ion type=[M]+*
computed spectral entropy=2.7028354489882793
computed normalized entropy=0.8504687438514414
SPLASH=splash10-0006-9200000000-30e67abaebd411e0f172
submitter=submitter = University of Tokyo Team (Faculty of Engineering, University of Tokyo)
MoNA Rating=3.75

>  <NUM PEAKS>  (6205) 
24

>  <MASS SPECTRAL PEAKS>  (6205) 
41 29.25
42 48.19
43 96.99
44 99.99
45 24.75
52 5.1
53 9.23
54 23.36
55 46.37
56 5.9
58 21.35
59 3.92
67 8.78
68 5.17
70 5.3
80 4.86
82 71.98
83 11.83
84 17.77
97 5.55
111 28.94
125 13.65
126 89.61
127 7.79

$$$$

     RDKit          2D

  8  8  0  0  0  0  0  0  0  0999 V2000
    3.8981   -0.7504    0.0000 C   0  0  0  0  0  0  0  0  0  0  0  0
   -1.3000    0.7500    0.0000 C   0  0  0  0  0  0  0  0  0  0  0  0
    0.0000    1.5000    0.0000 C   0  0  0  0  0  0  0  0  0  0  0  0
   -1.3000   -0.7500    0.0000 C   0  0  0  0  0  0  0  0  0  0  0  0
    1.3000    0.7500    0.0000 C   0  0  0  0  0  0  0  0  0  0  0  0
    0.0000   -1.5000    0.0000 C   0  0  0  0  0  0  0  0  0  0  0  0
    1.3000   -0.7500    0.0000 C   0  0  0  0  0  0  0  0  0  0  0  0
    2.5989   -1.5002    0.0000 Si  0  0  0  0  0  4  0  0  0  0  0  0
  3  2  2  0
  4  2  1  0
  5  3  1  0
  6  4  2  0
  7  5  2  0
  7  6  1  0
  8  1  1  0
  8  7  1  0
M  END
>  <NAME>  (6206) 
METHYLPHENYLSILANE

>  <SYNONYMS>  (6206) 


>  <SPECTRUM TYPE>  (6206) 
MS1

>  <INSTRUMENT TYPE>  (6206) 
EI-B

>  <INSTRUMENT>  (6206) 
JEOL JMS-D-3000

>  <ION MODE>  (6206) 
P

>  <INCHIKEY>  (6206) 
QRLBICHXRCOJDU-UHFFFAOYSA-N

>  <FORMULA>  (6206) 
C7H10Si

>  <EXACT MASS>  (6206) 
122.05517685

>  <MW>  (6206) 
122

>  <ID>  (6206) 
JP001935

>  <CONTRIBUTOR>  (6206) 
University of Tokyo Team, {Faculty of Engineering, University of Tokyo

>  <COMMENT>  (6206) 
SMILES=C[SiH2]c(c1)cccc1
InChI=InChI=1S/C7H10Si/c1-8-7-5-3-2-4-6-7/h2-6H,8H2,1H3
computed SMILES=C=1C=CC(=CC1)[SiH2]C
accession=JP001935
date=2016.01.19 (Created 2008.10.21, modified 2011.05.06)
author=MASS SPECTROSCOPY SOC. OF JAPAN (MSSJ)
license=CC BY-NC-SA
exact mass=122.05518
ionization energy=70 eV
ion type=[M]+*
computed spectral entropy=2.651241648686183
computed normalized entropy=0.7457052313397186
SPLASH=splash10-05fr-2900000000-6e21ba5f9a1eac620673
submitter=submitter = University of Tokyo Team (Faculty of Engineering, University of Tokyo)
MoNA Rating=3.75

>  <NUM PEAKS>  (6206) 
35

>  <MASS SPECTRAL PEAKS>  (6206) 
44 18.42
45 2.31
50 2.42
51 5.14
52 1.63
53 17.27
54 3.64
61 1.72
65 1.29
66 3.15
67 4.3
68 1.08
69 2.92
77 3.96
78 4.69
79 9.51
80 2.22
81 7.45
91 3.01
93 3.78
95 5.09
96 1.94
103 3.24
104 1.17
105 44.33
106 15.59
107 67.02
108 8.31
109 2.78
119 3.76
120 33.04
121 99.99
122 95.26
123 14.68
124 3.55

$$$$

     RDKit          2D

  8  7  0  0  0  0  0  0  0  0999 V2000
    1.6740    0.1005    0.0000 C   0  0  0  0  0  0  0  0  0  0  0  0
   -0.9240    1.6005    0.0000 C   0  0  0  0  0  0  0  0  0  0  0  0
   -0.3750   -0.4486    0.0000 C   0  0  0  0  0  0  0  0  0  0  0  0
    2.4240    1.3995    0.0000 C   0  0  0  0  0  0  0  0  0  0  0  0
    1.8750    3.4486    0.0000 C   0  0  0  0  0  0  0  0  0  0  0  0
   -0.1740    2.8995    0.0000 C   0  0  0  0  0  0  0  0  0  0  0  0
    0.3750    0.8505    0.0000 Si  0  0  0  0  0  4  0  0  0  0  0  0
    1.1250    2.1495    0.0000 Si  0  0  0  0  0  4  0  0  0  0  0  0
  7  1  1  0
  7  2  1  0
  7  3  1  0
  8  4  1  0
  8  5  1  0
  8  6  1  0
  8  7  1  0
M  END
>  <NAME>  (6207) 
HEXAMETHYLDISILANE

>  <SYNONYMS>  (6207) 


>  <SPECTRUM TYPE>  (6207) 
MS1

>  <INSTRUMENT TYPE>  (6207) 
EI-B

>  <INSTRUMENT>  (6207) 
JEOL JMS-D-3000

>  <ION MODE>  (6207) 
P

>  <INCHIKEY>  (6207) 
NEXSMEBSBIABKL-UHFFFAOYSA-N

>  <FORMULA>  (6207) 
C6H18Si2

>  <EXACT MASS>  (6207) 
146.094703636

>  <MW>  (6207) 
146

>  <ID>  (6207) 
JP001934

>  <CONTRIBUTOR>  (6207) 
University of Tokyo Team, {Faculty of Engineering, University of Tokyo

>  <COMMENT>  (6207) 
SMILES=C[Si](C)(C)[Si](C)(C)C
InChI=InChI=1S/C6H18Si2/c1-7(2,3)8(4,5)6/h1-6H3
computed SMILES=C[Si](C)(C)[Si](C)(C)C
accession=JP001934
date=2016.01.19 (Created 2008.10.21, modified 2011.05.06)
author=MASS SPECTROSCOPY SOC. OF JAPAN (MSSJ)
license=CC BY-NC-SA
exact mass=146.0947
ionization energy=70 eV
ion type=[M]+*
computed spectral entropy=1.8423436423609212
computed normalized entropy=0.6502664708345965
SPLASH=splash10-00di-9200000000-ed2fb8c99cf12cb3d6de
submitter=submitter = University of Tokyo Team (Faculty of Engineering, University of Tokyo)
MoNA Rating=3.75

>  <NUM PEAKS>  (6207) 
17

>  <MASS SPECTRAL PEAKS>  (6207) 
43 7.45
44 4.62
45 11.03
58 2.4
59 3.89
69 1.03
72 2.46
73 99.99
74 9.6
75 3.88
115 1.65
131 22.46
132 3.62
133 1.81
146 13.4
147 2.35
148 1.08

$$$$

     RDKit          2D

  6  5  0  0  0  0  0  0  0  0999 V2000
    1.2990    2.2500    0.0000 C   0  0  0  0  0  0  0  0  0  0  0  0
   -3.8971    2.2500    0.0000 C   0  0  0  0  0  0  0  0  0  0  0  0
   -1.2990    0.7500    0.0000 C   0  0  0  0  0  0  0  0  0  0  0  0
    0.0000    3.0000    0.0000 C   0  0  0  0  0  0  0  0  0  0  0  0
   -2.5981    3.0000    0.0000 C   0  0  0  0  0  0  0  0  0  0  0  0
   -1.2990    2.2500    0.0000 Si  0  0  0  0  0  4  0  0  0  0  0  0
  4  1  1  0
  5  2  1  0
  6  3  1  0
  6  4  1  0
  6  5  1  0
M  END
>  <NAME>  (6208) 
DIETHYLMETHYLSILANE

>  <SYNONYMS>  (6208) 


>  <SPECTRUM TYPE>  (6208) 
MS1

>  <INSTRUMENT TYPE>  (6208) 
EI-B

>  <INSTRUMENT>  (6208) 
JEOL JMS-D-3000

>  <ION MODE>  (6208) 
P

>  <INCHIKEY>  (6208) 
UUTZEAQZDHSEAL-UHFFFAOYSA-N

>  <FORMULA>  (6208) 
C5H14Si

>  <EXACT MASS>  (6208) 
102.08647697800001

>  <MW>  (6208) 
102

>  <ID>  (6208) 
JP001933

>  <CONTRIBUTOR>  (6208) 
University of Tokyo Team, {Faculty of Engineering, University of Tokyo

>  <COMMENT>  (6208) 
SMILES=CC[SiH](C)CC
InChI=InChI=1S/C5H14Si/c1-4-6(3)5-2/h6H,4-5H2,1-3H3
computed SMILES=CC[SiH](C)CC
accession=JP001933
date=2016.01.19 (Created 2008.10.21, modified 2011.05.06)
author=MASS SPECTROSCOPY SOC. OF JAPAN (MSSJ)
license=CC BY-NC-SA
exact mass=102.08648
ionization energy=70 eV
ion type=[M]+*
computed spectral entropy=2.3350025031513004
computed normalized entropy=0.7446999874178887
SPLASH=splash10-00di-9000000000-7d840880a38fd5b54ba9
submitter=submitter = University of Tokyo Team (Faculty of Engineering, University of Tokyo)
MoNA Rating=3.75

>  <NUM PEAKS>  (6208) 
23

>  <MASS SPECTRAL PEAKS>  (6208) 
42 5.03
43 57.22
44 9.46
45 47.48
46 3.6
47 1.67
53 1.41
55 2.56
57 2.16
58 21.9
59 18.2
60 1.24
70 1.11
71 1.67
72 36.98
73 99.99
74 16.04
75 3.82
86 1.62
87 7.77
101 8.96
102 7.32
103 1.05

$$$$

     RDKit          2D

  6  5  0  0  0  0  0  0  0  0999 V2000
   -0.0000   -0.0000    0.0000 C   0  0  0  0  0  0  0  0  0  0  0  0
    1.2990    2.2500    0.0000 C   0  0  0  0  0  0  0  0  0  0  0  0
   -1.2990    3.7500    0.0000 C   0  0  0  0  0  0  0  0  0  0  0  0
   -2.5981    1.5000    0.0000 C   0  0  0  0  0  0  0  0  0  0  0  0
   -0.0000    1.5000    0.0000 Si  0  0  0  0  0  4  0  0  0  0  0  0
   -1.2990    2.2500    0.0000 Si  0  0  0  0  0  4  0  0  0  0  0  0
  5  1  1  0
  5  2  1  0
  6  3  1  0
  6  4  1  0
  6  5  1  0
M  END
>  <NAME>  (6209) 
1,1,2,2-TETRAMETHYLDISILANE

>  <SYNONYMS>  (6209) 


>  <SPECTRUM TYPE>  (6209) 
MS1

>  <INSTRUMENT TYPE>  (6209) 
EI-B

>  <INSTRUMENT>  (6209) 
JEOL JMS-D-3000

>  <ION MODE>  (6209) 
P

>  <INCHIKEY>  (6209) 
RDWAGGBALVFUHB-UHFFFAOYSA-N

>  <FORMULA>  (6209) 
C4H14Si2

>  <EXACT MASS>  (6209) 
118.063403508

>  <MW>  (6209) 
118

>  <ID>  (6209) 
JP001932

>  <CONTRIBUTOR>  (6209) 
University of Tokyo Team, {Faculty of Engineering, University of Tokyo

>  <COMMENT>  (6209) 
SMILES=C[SiH](C)[SiH](C)C
InChI=InChI=1S/C4H14Si2/c1-5(2)6(3)4/h5-6H,1-4H3
computed SMILES=C[SiH](C)[SiH](C)C
accession=JP001932
date=2016.01.19 (Created 2008.10.21, modified 2011.05.06)
author=MASS SPECTROSCOPY SOC. OF JAPAN (MSSJ)
license=CC BY-NC-SA
exact mass=118.0634
ionization energy=70 eV
ion type=[M]+*
computed spectral entropy=2.560903425125637
computed normalized entropy=0.732417528092392
SPLASH=splash10-0ab9-9200000000-06130a8a1e90b3c807fb
submitter=submitter = University of Tokyo Team (Faculty of Engineering, University of Tokyo)
MoNA Rating=3.75

>  <NUM PEAKS>  (6209) 
33

>  <MASS SPECTRAL PEAKS>  (6209) 
42 2.13
43 30.88
44 4.24
45 8.76
53 1.92
55 1.65
57 2.49
58 56.86
59 99.99
60 9.23
61 3.26
69 4.61
70 1.69
71 2.1
72 1.16
73 84.5
74 7.52
75 3.41
81 1.23
83 1.13
85 3.47
86 1.29
87 2.65
99 1.41
101 6.92
102 14.64
103 30.48
104 4.64
105 2.18
117 8.06
118 30.58
119 4.58
120 2.05

$$$$

     RDKit          2D

  9  8  0  0  0  0  0  0  0  0999 V2000
    0.9926    2.4721    0.0000 C   0  0  0  0  0  0  0  0  0  0  0  0
   -4.2035    2.4721    0.0000 C   0  0  0  0  0  0  0  0  0  0  0  0
   -4.0469    1.5836    0.0000 C   0  0  0  0  0  0  0  0  0  0  0  0
    0.8359    1.5836    0.0000 C   0  0  0  0  0  0  0  0  0  0  0  0
   -0.3064    3.2221    0.0000 O   0  0  0  0  0  0  0  0  0  0  0  0
   -2.9045    3.2221    0.0000 O   0  0  0  0  0  0  0  0  0  0  0  0
   -2.5697    1.3231    0.0000 O   0  0  0  0  0  0  0  0  0  0  0  0
   -0.6413    1.3231    0.0000 O   0  0  0  0  0  0  0  0  0  0  0  0
   -1.6055    2.4721    0.0000 Si  0  0  0  0  0  4  0  0  0  0  0  0
  5  1  1  0
  6  2  1  0
  7  3  1  0
  8  4  1  0
  9  5  1  0
  9  6  1  0
  9  7  1  0
  9  8  1  0
M  END
>  <NAME>  (6210) 
TETRAMETHOXYSILANE

>  <SYNONYMS>  (6210) 


>  <SPECTRUM TYPE>  (6210) 
MS1

>  <INSTRUMENT TYPE>  (6210) 
EI-B

>  <INSTRUMENT>  (6210) 
JEOL JMS-D-3000

>  <ION MODE>  (6210) 
P

>  <INCHIKEY>  (6210) 
LFQCEHFDDXELDD-UHFFFAOYSA-N

>  <FORMULA>  (6210) 
C4H12O4Si

>  <EXACT MASS>  (6210) 
152.050485394

>  <MW>  (6210) 
152

>  <ID>  (6210) 
JP001931

>  <CONTRIBUTOR>  (6210) 
University of Tokyo Team, {Faculty of Engineering, University of Tokyo

>  <COMMENT>  (6210) 
SMILES=CO[Si](OC)(OC)OC
InChI=InChI=1S/C4H12O4Si/c1-5-9(6-2,7-3)8-4/h1-4H3
computed SMILES=O(C)[Si](OC)(OC)OC
accession=JP001931
date=2016.01.19 (Created 2008.10.21, modified 2011.05.06)
author=MASS SPECTROSCOPY SOC. OF JAPAN (MSSJ)
license=CC BY-NC-SA
exact mass=152.05049
ionization energy=70 eV
ion type=[M]+*
computed spectral entropy=2.623088193078658
computed normalized entropy=0.7712249242638081
SPLASH=splash10-00dl-7900000000-e45a647844a5c83c0090
submitter=submitter = University of Tokyo Team (Faculty of Engineering, University of Tokyo)
MoNA Rating=3.75

>  <NUM PEAKS>  (6210) 
30

>  <MASS SPECTRAL PEAKS>  (6210) 
44 2.97
45 7.26
46 1.16
47 5.19
58 1.7
59 14.65
60 7.6
61 13.65
62 1.3
63 1.41
68 2.4
75 5.76
76 3.41
77 7.79
87 1.53
90 28.35
91 53.01
92 5.66
93 2.4
107 11.43
108 1.03
120 6.5
121 99.99
122 10.03
123 4.45
137 8.27
151 8.67
152 50.3
153 6.39
154 2.45

$$$$

     RDKit          2D

  8  7  0  0  0  0  0  0  0  0999 V2000
    1.6740    0.1005    0.0000 C   0  0  0  0  0  0  0  0  0  0  0  0
   -0.9240    1.6005    0.0000 C   0  0  0  0  0  0  0  0  0  0  0  0
    2.4240    1.3995    0.0000 C   0  0  0  0  0  0  0  0  0  0  0  0
    1.8750    3.4486    0.0000 C   0  0  0  0  0  0  0  0  0  0  0  0
   -0.3750   -0.4486    0.0000 Cl  0  0  0  0  0  0  0  0  0  0  0  0
   -0.1740    2.8995    0.0000 Cl  0  0  0  0  0  0  0  0  0  0  0  0
    0.3750    0.8505    0.0000 Si  0  0  0  0  0  4  0  0  0  0  0  0
    1.1250    2.1495    0.0000 Si  0  0  0  0  0  4  0  0  0  0  0  0
  7  1  1  0
  7  2  1  0
  7  5  1  0
  8  3  1  0
  8  4  1  0
  8  6  1  0
  8  7  1  0
M  END
>  <NAME>  (6211) 
1,2-DICHLORO-1,1,2,2-TETRAMETHYLDISILANE

>  <SYNONYMS>  (6211) 


>  <SPECTRUM TYPE>  (6211) 
MS1

>  <INSTRUMENT TYPE>  (6211) 
EI-B

>  <INSTRUMENT>  (6211) 
JEOL JMS-D-3000

>  <ION MODE>  (6211) 
P

>  <INCHIKEY>  (6211) 
SFAZXBAPWCPIER-UHFFFAOYSA-N

>  <FORMULA>  (6211) 
C4H12Cl2Si2

>  <EXACT MASS>  (6211) 
185.985458804

>  <MW>  (6211) 
186

>  <ID>  (6211) 
JP001930

>  <CONTRIBUTOR>  (6211) 
University of Tokyo Team, {Faculty of Engineering, University of Tokyo

>  <COMMENT>  (6211) 
SMILES=C[Si](C)(Cl)[Si](C)(C)Cl
InChI=InChI=1S/C4H12Cl2Si2/c1-7(2,5)8(3,4)6/h1-4H3
computed SMILES=Cl[Si](C)(C)[Si](Cl)(C)C
license=CC BY-NC-SA
exact mass=185.98546
accession=JP001930
date=2016.01.19 (Created 2008.10.21, modified 2011.05.06)
author=MASS SPECTROSCOPY SOC. OF JAPAN (MSSJ)
ionization energy=70 eV
ion type=[M]+*
computed spectral entropy=2.5564636012205297
computed normalized entropy=0.7190473497971872
SPLASH=splash10-0abc-9000000000-59792d56622ed9679b9f
submitter=submitter = University of Tokyo Team (Faculty of Engineering, University of Tokyo)
MoNA Rating=3.75

>  <NUM PEAKS>  (6211) 
35

>  <MASS SPECTRAL PEAKS>  (6211) 
42 1.92
43 18.72
44 2.26
45 3.82
53 1.13
55 1.92
57 1.11
58 99.99
59 10.84
60 3.71
63 9.08
65 11.46
67 3.2
72 1.85
73 69.64
74 8.05
75 12.84
78 1.53
79 1.5
92 1.79
93 74.16
94 6.2
95 26.07
96 1.9
133 1
135 1.09
151 11.49
152 1.88
153 4.89
171 1.51
173 1.08
186 8.62
187 1.33
188 6.22
190 1.31

$$$$

     RDKit          2D

 21 23  0  0  0  0  0  0  0  0999 V2000
    0.2010    5.2500    0.0000 C   0  0  0  0  0  0  0  0  0  0  0  0
   -1.2990    6.7500    0.0000 C   0  0  0  0  0  0  0  0  0  0  0  0
   -2.7990    5.2500    0.0000 C   0  0  0  0  0  0  0  0  0  0  0  0
    3.9000   -0.7500    0.0000 C   0  0  0  0  0  0  0  0  0  0  0  0
   -3.9000   -0.7500    0.0000 C   0  0  0  0  0  0  0  0  0  0  0  0
    3.9000    0.7500    0.0000 C   0  0  0  0  0  0  0  0  0  0  0  0
   -3.9000    0.7500    0.0000 C   0  0  0  0  0  0  0  0  0  0  0  0
    2.6000   -1.5000    0.0000 C   0  0  0  0  0  0  0  0  0  0  0  0
   -2.6000   -1.5000    0.0000 C   0  0  0  0  0  0  0  0  0  0  0  0
    2.6000    1.5000    0.0000 C   0  0  0  0  0  0  0  0  0  0  0  0
   -2.6000    1.5000    0.0000 C   0  0  0  0  0  0  0  0  0  0  0  0
   -0.0000   -1.5000    0.0000 C   0  0  0  0  0  0  0  0  0  0  0  0
    1.3000   -0.7500    0.0000 C   0  0  0  0  0  0  0  0  0  0  0  0
   -1.3000   -0.7500    0.0000 C   0  0  0  0  0  0  0  0  0  0  0  0
    1.3000    0.7500    0.0000 C   0  0  0  0  0  0  0  0  0  0  0  0
   -1.3000    0.7500    0.0000 C   0  0  0  0  0  0  0  0  0  0  0  0
   -0.0000    1.5000    0.0000 C   0  0  0  0  0  0  0  0  0  0  0  0
    0.0000    3.0000    0.0000 C   0  0  0  0  0  0  0  0  0  0  0  0
    1.2990    3.7500    0.0000 O   0  0  0  0  0  0  0  0  0  0  0  0
   -1.2990    3.7500    0.0000 O   0  0  0  0  0  0  0  0  0  0  0  0
   -1.2990    5.2500    0.0000 Si  0  0  0  0  0  4  0  0  0  0  0  0
  6  4  2  0
  7  5  1  0
  8  4  1  0
  9  5  2  0
 10  6  1  0
 11  7  2  0
 13  8  2  0
 13 12  1  0
 14  9  1  0
 14 12  2  0
 15 10  2  0
 15 13  1  0
 16 11  1  0
 16 14  1  0
 17 15  1  0
 17 16  2  0
 18 17  1  0
 19 18  2  0
 20 18  1  0
 21  1  1  0
 21  2  1  0
 21  3  1  0
 21 20  1  0
M  END
>  <NAME>  (6212) 
ANTHRACENE-9-CARBOXYLIC ACID TRIMETHYLSILYL ESTER

>  <SYNONYMS>  (6212) 


>  <SPECTRUM TYPE>  (6212) 
MS1

>  <INSTRUMENT TYPE>  (6212) 
EI-B

>  <INSTRUMENT>  (6212) 
JEOL JMS-01-SG

>  <ION MODE>  (6212) 
P

>  <INCHIKEY>  (6212) 
JTUMBWFAVUSXJY-UHFFFAOYSA-N

>  <FORMULA>  (6212) 
C18H18O2Si

>  <EXACT MASS>  (6212) 
294.107606346

>  <MW>  (6212) 
294

>  <ID>  (6212) 
JP001929

>  <CONTRIBUTOR>  (6212) 
University of Tokyo Team, {Faculty of Engineering, University of Tokyo

>  <COMMENT>  (6212) 
SMILES=C[Si](C)(C)OC(=O)c(c21)c(c3)c(ccc3)cc(cccc2)1
InChI=InChI=1S/C18H18O2Si/c1-21(2,3)20-18(19)17-15-10-6-4-8-13(15)12-14-9-5-7-11-16(14)17/h4-12H,1-3H3
computed SMILES=O=C(O[Si](C)(C)C)C=1C=2C=CC=CC2C=C3C=CC=CC31
accession=JP001929
date=2016.01.19 (Created 2008.10.21, modified 2011.05.06)
author=KOGA M, UNIV. OF OCCUPATIONAL AND ENVIRONMENTAL HEALTH
license=CC BY-NC-SA
exact mass=294.10761
ionization energy=70 eV
ion type=[M]+*
computed spectral entropy=2.659753027569766
computed normalized entropy=0.8878473724270308
SPLASH=splash10-004i-2690000000-5da2f1a3f2ee73044e2a
submitter=submitter = University of Tokyo Team (Faculty of Engineering, University of Tokyo)
MoNA Rating=3.75

>  <NUM PEAKS>  (6212) 
20

>  <MASS SPECTRAL PEAKS>  (6212) 
45 26
73 37.8
75 23.9
88 1.91
140 17.4
150 15.8
151 33.3
175 1.09
176 96.7
177 41
178 35.7
191 0.6
206 59.7
235 34.9
236 7
279 99.99
280 21.9
293 34.1
294 52.8
295 13.4

$$$$

     RDKit          2D

 18 17  0  0  0  0  0  0  0  0999 V2000
   -1.3457    3.1740    0.0000 C   0  0  0  0  0  0  0  0  0  0  0  0
    0.1543    5.7721    0.0000 C   0  0  0  0  0  0  0  0  0  0  0  0
   -1.8947    5.2231    0.0000 C   0  0  0  0  0  0  0  0  0  0  0  0
   10.3457    2.4240    0.0000 C   0  0  0  0  0  0  0  0  0  0  0  0
   12.3947    2.9731    0.0000 C   0  0  0  0  0  0  0  0  0  0  0  0
   11.8457    5.0221    0.0000 C   0  0  0  0  0  0  0  0  0  0  0  0
    4.6005    4.4731    0.0000 C   0  0  0  0  0  0  0  0  0  0  0  0
    5.8995    3.7231    0.0000 C   0  0  0  0  0  0  0  0  0  0  0  0
    3.3014    3.7231    0.0000 C   0  0  0  0  0  0  0  0  0  0  0  0
    7.1986    4.4731    0.0000 C   0  0  0  0  0  0  0  0  0  0  0  0
    2.0024    4.4731    0.0000 C   0  0  0  0  0  0  0  0  0  0  0  0
    8.4976    3.7231    0.0000 C   0  0  0  0  0  0  0  0  0  0  0  0
    2.0024    5.9731    0.0000 O   0  0  0  0  0  0  0  0  0  0  0  0
    8.4976    2.2231    0.0000 O   0  0  0  0  0  0  0  0  0  0  0  0
    0.7034    3.7231    0.0000 O   0  0  0  0  0  0  0  0  0  0  0  0
    9.7966    4.4731    0.0000 O   0  0  0  0  0  0  0  0  0  0  0  0
   -0.5957    4.4731    0.0000 Si  0  0  0  0  0  4  0  0  0  0  0  0
   11.0957    3.7231    0.0000 Si  0  0  0  0  0  4  0  0  0  0  0  0
  8  7  1  0
  9  7  1  0
 10  8  1  0
 11  9  1  0
 12 10  1  0
 13 11  2  0
 14 12  2  0
 15 11  1  0
 16 12  1  0
 17  1  1  0
 17  2  1  0
 17  3  1  0
 17 15  1  0
 18  4  1  0
 18  5  1  0
 18  6  1  0
 18 16  1  0
M  END
>  <NAME>  (6213) 
HEXANEDIOIC ACID BIS(TRIMETHYLSILYL) ESTER

>  <SYNONYMS>  (6213) 
BIS(TRIMETHYLSILYL) ADIPATE

>  <SPECTRUM TYPE>  (6213) 
MS1

>  <INSTRUMENT TYPE>  (6213) 
EI-B

>  <INSTRUMENT>  (6213) 
JEOL JMS-01-SG

>  <ION MODE>  (6213) 
P

>  <INCHIKEY>  (6213) 
DVGSOFSBBKDKRU-UHFFFAOYSA-N

>  <FORMULA>  (6213) 
C12H26O4Si2

>  <EXACT MASS>  (6213) 
290.13696237199997

>  <MW>  (6213) 
290

>  <ID>  (6213) 
JP001927

>  <CONTRIBUTOR>  (6213) 
University of Tokyo Team, {Faculty of Engineering, University of Tokyo

>  <COMMENT>  (6213) 
SMILES=O=C(CCCCC(=O)O[Si](C)(C)C)O[Si](C)(C)C
InChI=InChI=1S/C12H26O4Si2/c1-17(2,3)15-11(13)9-7-8-10-12(14)16-18(4,5)6/h7-10H2,1-6H3
computed SMILES=O=C(O[Si](C)(C)C)CCCCC(=O)O[Si](C)(C)C
accession=JP001927
date=2016.01.19 (Created 2008.10.21, modified 2011.05.06)
author=KOGA M, UNIV. OF OCCUPATIONAL AND ENVIRONMENTAL HEALTH
license=CC BY-NC-SA
exact mass=290.13696
ionization energy=70 eV
ion type=[M]+*
computed spectral entropy=2.5445592891293765
computed normalized entropy=0.8641915513052105
SPLASH=splash10-00fr-9410000000-04fa750756439db22706
submitter=submitter = University of Tokyo Team (Faculty of Engineering, University of Tokyo)
MoNA Rating=3.75

>  <NUM PEAKS>  (6213) 
19

>  <MASS SPECTRAL PEAKS>  (6213) 
45 9
47 12.6
55 29.7
73 99.99
74 10.6
75 68.5
83 23
111 8.93
117 15.9
129 11.3
141 44.3
147 5.38
149 12.4
159 18.1
172 20.8
185 1.68
217 10.4
275 33.9
276 5.9

$$$$

     RDKit          2D

 19 18  0  0  0  0  0  0  0  0999 V2000
    4.7844    8.7623    0.0000 C   0  0  0  0  0  0  0  0  0  0  0  0
  -14.1522   10.0613    0.0000 C   0  0  0  0  0  0  0  0  0  0  0  0
  -14.7012    8.0123    0.0000 C   0  0  0  0  0  0  0  0  0  0  0  0
  -12.6522    7.4632    0.0000 C   0  0  0  0  0  0  0  0  0  0  0  0
    3.4853    9.5123    0.0000 C   0  0  0  0  0  0  0  0  0  0  0  0
    2.1863    8.7623    0.0000 C   0  0  0  0  0  0  0  0  0  0  0  0
    0.8873    9.5123    0.0000 C   0  0  0  0  0  0  0  0  0  0  0  0
   -0.4118    8.7623    0.0000 C   0  0  0  0  0  0  0  0  0  0  0  0
   -1.7108    9.5123    0.0000 C   0  0  0  0  0  0  0  0  0  0  0  0
   -3.0099    8.7623    0.0000 C   0  0  0  0  0  0  0  0  0  0  0  0
   -4.3089    9.5123    0.0000 C   0  0  0  0  0  0  0  0  0  0  0  0
   -5.6079    8.7623    0.0000 C   0  0  0  0  0  0  0  0  0  0  0  0
   -6.9070    9.5123    0.0000 C   0  0  0  0  0  0  0  0  0  0  0  0
   -8.2060    8.7623    0.0000 C   0  0  0  0  0  0  0  0  0  0  0  0
   -9.5050    9.5123    0.0000 C   0  0  0  0  0  0  0  0  0  0  0  0
  -10.8041    8.7623    0.0000 C   0  0  0  0  0  0  0  0  0  0  0  0
  -10.8041    7.2623    0.0000 O   0  0  0  0  0  0  0  0  0  0  0  0
  -12.1031    9.5123    0.0000 O   0  0  0  0  0  0  0  0  0  0  0  0
  -13.4022    8.7623    0.0000 Si  0  0  0  0  0  4  0  0  0  0  0  0
  5  1  1  0
  6  5  1  0
  7  6  1  0
  8  7  1  0
  9  8  1  0
 10  9  1  0
 11 10  1  0
 12 11  1  0
 13 12  1  0
 14 13  1  0
 15 14  1  0
 16 15  1  0
 17 16  2  0
 18 16  1  0
 19  2  1  0
 19  3  1  0
 19  4  1  0
 19 18  1  0
M  END
>  <NAME>  (6214) 
TRIDECANOIC ACID TRIMETHYLSILYL ESTER

>  <SYNONYMS>  (6214) 


>  <SPECTRUM TYPE>  (6214) 
MS1

>  <INSTRUMENT TYPE>  (6214) 
EI-B

>  <INSTRUMENT>  (6214) 
JEOL JMS-01-SG

>  <ION MODE>  (6214) 
P

>  <INCHIKEY>  (6214) 
UZUTZCYXYDHJAT-UHFFFAOYSA-N

>  <FORMULA>  (6214) 
C16H34O2Si

>  <EXACT MASS>  (6214) 
286.232806858

>  <MW>  (6214) 
286

>  <ID>  (6214) 
JP001926

>  <CONTRIBUTOR>  (6214) 
University of Tokyo Team, {Faculty of Engineering, University of Tokyo

>  <COMMENT>  (6214) 
SMILES=CCCCCCCCCCCCC(=O)O[Si](C)(C)C
InChI=InChI=1S/C16H34O2Si/c1-5-6-7-8-9-10-11-12-13-14-15-16(17)18-19(2,3)4/h5-15H2,1-4H3
computed SMILES=O=C(O[Si](C)(C)C)CCCCCCCCCCCC
accession=JP001926
date=2016.01.19 (Created 2008.10.21, modified 2011.05.06)
author=KOGA M, UNIV. OF OCCUPATIONAL AND ENVIRONMENTAL HEALTH
license=CC BY-NC-SA
exact mass=286.23281
ionization energy=70 eV
ion type=[M]+*
computed spectral entropy=2.3373380100398693
computed normalized entropy=0.7938143824945426
SPLASH=splash10-00bc-9110000000-d82340760ca3f00725e3
submitter=submitter = University of Tokyo Team (Faculty of Engineering, University of Tokyo)
MoNA Rating=3.75

>  <NUM PEAKS>  (6214) 
19

>  <MASS SPECTRAL PEAKS>  (6214) 
43 75.6
45 10
47 9.7
55 2.64
57 8.8
69 10.3
73 99.99
74 0.97
75 96.3
76 6.3
77 21.8
117 7.5
118 6.9
129 24
131 13
132 2.58
145 17
271 38.9
272 6.9

$$$$

     RDKit          2D

 20 21  0  0  0  0  0  0  0  0999 V2000
   -4.7340    3.0686    0.0000 C   0  0  0  0  0  0  0  0  0  0  0  0
   -5.2831    1.0196    0.0000 C   0  0  0  0  0  0  0  0  0  0  0  0
   -3.2340    0.4705    0.0000 C   0  0  0  0  0  0  0  0  0  0  0  0
    3.8102    0.2696    0.0000 C   0  0  0  0  0  0  0  0  0  0  0  0
   -0.0869    7.0196    0.0000 C   0  0  0  0  0  0  0  0  0  0  0  0
    3.8107    1.7704    0.0000 C   0  0  0  0  0  0  0  0  0  0  0  0
    2.5107   -0.4813    0.0000 C   0  0  0  0  0  0  0  0  0  0  0  0
   -1.3869    6.2696    0.0000 C   0  0  0  0  0  0  0  0  0  0  0  0
    1.2131    6.2696    0.0000 C   0  0  0  0  0  0  0  0  0  0  0  0
    2.5117    2.5204    0.0000 C   0  0  0  0  0  0  0  0  0  0  0  0
    1.2117    0.2687    0.0000 C   0  0  0  0  0  0  0  0  0  0  0  0
   -1.3869    4.7696    0.0000 C   0  0  0  0  0  0  0  0  0  0  0  0
    1.2131    4.7696    0.0000 C   0  0  0  0  0  0  0  0  0  0  0  0
    1.2121    1.7696    0.0000 C   0  0  0  0  0  0  0  0  0  0  0  0
   -0.0869    4.0196    0.0000 C   0  0  0  0  0  0  0  0  0  0  0  0
   -0.0869    2.5196    0.0000 C   0  0  0  0  0  0  0  0  0  0  0  0
   -1.3859    1.7696    0.0000 C   0  0  0  0  0  0  0  0  0  0  0  0
   -1.3859    0.2696    0.0000 O   0  0  0  0  0  0  0  0  0  0  0  0
   -2.6850    2.5196    0.0000 O   0  0  0  0  0  0  0  0  0  0  0  0
   -3.9840    1.7696    0.0000 Si  0  0  0  0  0  4  0  0  0  0  0  0
  6  4  2  0
  7  4  1  0
  8  5  2  0
  9  5  1  0
 10  6  1  0
 11  7  2  0
 12  8  1  0
 13  9  2  0
 14 10  2  0
 14 11  1  0
 15 12  2  0
 15 13  1  0
 16 14  1  0
 16 15  1  0
 17 16  1  0
 18 17  2  0
 19 17  1  0
 20  1  1  0
 20  2  1  0
 20  3  1  0
 20 19  1  0
M  END
>  <NAME>  (6215) 
DIPHENYLACETIC ACID TRIMETHYLSILYL ESTER

>  <SYNONYMS>  (6215) 


>  <SPECTRUM TYPE>  (6215) 
MS1

>  <INSTRUMENT TYPE>  (6215) 
EI-B

>  <INSTRUMENT>  (6215) 
JEOL JMS-01-SG

>  <ION MODE>  (6215) 
P

>  <INCHIKEY>  (6215) 
QSBLMZZLVMXTHB-UHFFFAOYSA-N

>  <FORMULA>  (6215) 
C17H20O2Si

>  <EXACT MASS>  (6215) 
284.12325641

>  <MW>  (6215) 
284

>  <ID>  (6215) 
JP001925

>  <CONTRIBUTOR>  (6215) 
University of Tokyo Team, {Faculty of Engineering, University of Tokyo

>  <COMMENT>  (6215) 
SMILES=c(c2)ccc(c2)C(c(c1)cccc1)C(=O)O[Si](C)(C)C
InChI=InChI=1S/C17H20O2Si/c1-20(2,3)19-17(18)16(14-10-6-4-7-11-14)15-12-8-5-9-13-15/h4-13,16H,1-3H3
computed SMILES=O=C(O[Si](C)(C)C)C(C=1C=CC=CC1)C=2C=CC=CC2
accession=JP001925
date=2016.01.19 (Created 2008.10.21, modified 2011.05.06)
author=KOGA M, UNIV. OF OCCUPATIONAL AND ENVIRONMENTAL HEALTH
license=CC BY-NC-SA
exact mass=284.12326
ionization energy=70 eV
ion type=[M]+*
computed spectral entropy=2.0114837924885913
computed normalized entropy=0.6831467069689571
SPLASH=splash10-00di-9100000000-7bc2d4a2a654f0340574
submitter=submitter = University of Tokyo Team (Faculty of Engineering, University of Tokyo)
MoNA Rating=3.75

>  <NUM PEAKS>  (6215) 
19

>  <MASS SPECTRAL PEAKS>  (6215) 
43 2.1
44 21.3
45 12.4
47 0.28
51 5.6
73 99.99
74 8.2
75 2.23
76 3.2
77 15
78 2.3
105 1.87
152 4.4
165 8.2
166 3
167 0.63
182 7.5
240 7.2
269 3

$$$$

     RDKit          2D

 20 22  0  0  0  0  0  0  0  0999 V2000
    0.2010    5.5900    0.0000 C   0  0  0  0  0  0  0  0  0  0  0  0
   -1.2990    7.0900    0.0000 C   0  0  0  0  0  0  0  0  0  0  0  0
   -2.7990    5.5900    0.0000 C   0  0  0  0  0  0  0  0  0  0  0  0
    3.2200   -1.2700    0.0000 C   0  0  0  0  0  0  0  0  0  0  0  0
   -3.2200   -1.2700    0.0000 C   0  0  0  0  0  0  0  0  0  0  0  0
    3.6900    0.1600    0.0000 C   0  0  0  0  0  0  0  0  0  0  0  0
   -3.6800    0.1600    0.0000 C   0  0  0  0  0  0  0  0  0  0  0  0
    1.7500   -1.5800    0.0000 C   0  0  0  0  0  0  0  0  0  0  0  0
   -1.7500   -1.5800    0.0000 C   0  0  0  0  0  0  0  0  0  0  0  0
    2.6800    1.2700    0.0000 C   0  0  0  0  0  0  0  0  0  0  0  0
   -2.6800    1.2700    0.0000 C   0  0  0  0  0  0  0  0  0  0  0  0
    0.7500   -0.4700    0.0000 C   0  0  0  0  0  0  0  0  0  0  0  0
   -0.7500   -0.4700    0.0000 C   0  0  0  0  0  0  0  0  0  0  0  0
    1.2100    0.9600    0.0000 C   0  0  0  0  0  0  0  0  0  0  0  0
   -1.2100    0.9600    0.0000 C   0  0  0  0  0  0  0  0  0  0  0  0
   -0.0000    1.8400    0.0000 C   0  0  0  0  0  0  0  0  0  0  0  0
    0.0000    3.3400    0.0000 C   0  0  0  0  0  0  0  0  0  0  0  0
    1.2990    4.0900    0.0000 O   0  0  0  0  0  0  0  0  0  0  0  0
   -1.2990    4.0900    0.0000 O   0  0  0  0  0  0  0  0  0  0  0  0
   -1.2990    5.5900    0.0000 Si  0  0  0  0  0  4  0  0  0  0  0  0
  6  4  2  0
  7  5  2  0
  8  4  1  0
  9  5  1  0
 10  6  1  0
 11  7  1  0
 12  8  2  0
 13  9  2  0
 13 12  1  0
 14 10  2  0
 14 12  1  0
 15 11  2  0
 15 13  1  0
 16 14  1  0
 16 15  1  0
 17 16  1  0
 18 17  2  0
 19 17  1  0
 20  1  1  0
 20  2  1  0
 20  3  1  0
 20 19  1  0
M  END
>  <NAME>  (6216) 
9-FLUORENECARBOXYLIC ACID TRIMETHYLSILYL ESTER

>  <SYNONYMS>  (6216) 


>  <SPECTRUM TYPE>  (6216) 
MS1

>  <INSTRUMENT TYPE>  (6216) 
EI-B

>  <INSTRUMENT>  (6216) 
JEOL JMS-01-SG

>  <ION MODE>  (6216) 
P

>  <INCHIKEY>  (6216) 
XYXUFGRMSJQXCQ-UHFFFAOYSA-N

>  <FORMULA>  (6216) 
C17H18O2Si

>  <EXACT MASS>  (6216) 
282.107606346

>  <MW>  (6216) 
282

>  <ID>  (6216) 
JP001924

>  <CONTRIBUTOR>  (6216) 
University of Tokyo Team, {Faculty of Engineering, University of Tokyo

>  <COMMENT>  (6216) 
SMILES=C[Si](C)(C)OC(=O)C(c21)c(c3)c(ccc3)c(cccc2)1
InChI=InChI=1S/C17H18O2Si/c1-20(2,3)19-17(18)16-14-10-6-4-8-12(14)13-9-5-7-11-15(13)16/h4-11,16H,1-3H3
computed SMILES=O=C(O[Si](C)(C)C)C1C=2C=CC=CC2C=3C=CC=CC31
ionization energy=70 eV
accession=JP001924
date=2016.01.19 (Created 2008.10.21, modified 2011.05.06)
author=KOGA M, UNIV. OF OCCUPATIONAL AND ENVIRONMENTAL HEALTH
license=CC BY-NC-SA
exact mass=282.10761
ion type=[M]+*
computed spectral entropy=2.476225546290445
computed normalized entropy=0.7144876631511577
SPLASH=splash10-00di-9200000000-4050903235737411937d
submitter=submitter = University of Tokyo Team (Faculty of Engineering, University of Tokyo)
MoNA Rating=3.75

>  <NUM PEAKS>  (6216) 
32

>  <MASS SPECTRAL PEAKS>  (6216) 
43 2
44 10.4
45 12.6
49 0.47
61 2.7
63 4
70 2.7
73 99.99
74 8.9
75 18.2
77 17.4
79 0.28
82 3.2
91 2.5
92 2.5
93 0.44
95 2.9
104 2.8
115 2.6
117 0.27
152 2.9
163 6.5
164 8.7
165 2.16
166 9.9
167 3
180 3.4
192 0.32
238 5.2
239 2.6
267 2.7
282 2.4

$$$$

     RDKit          2D

 19 20  0  0  0  0  0  0  0  0999 V2000
   -4.7875    3.1612    0.0000 C   0  0  0  0  0  0  0  0  0  0  0  0
   -5.3365    1.1122    0.0000 C   0  0  0  0  0  0  0  0  0  0  0  0
   -3.2875    0.5631    0.0000 C   0  0  0  0  0  0  0  0  0  0  0  0
    3.7567    0.3622    0.0000 C   0  0  0  0  0  0  0  0  0  0  0  0
    3.7572    1.8630    0.0000 C   0  0  0  0  0  0  0  0  0  0  0  0
    2.4572   -0.3887    0.0000 C   0  0  0  0  0  0  0  0  0  0  0  0
    0.6039    6.4361    0.0000 C   0  0  0  0  0  0  0  0  0  0  0  0
   -0.8919    6.4083    0.0000 C   0  0  0  0  0  0  0  0  0  0  0  0
    2.4582    2.6130    0.0000 C   0  0  0  0  0  0  0  0  0  0  0  0
    1.1582    0.3613    0.0000 C   0  0  0  0  0  0  0  0  0  0  0  0
    1.0712    4.9939    0.0000 C   0  0  0  0  0  0  0  0  0  0  0  0
   -1.3448    4.9887    0.0000 C   0  0  0  0  0  0  0  0  0  0  0  0
    1.1587    1.8622    0.0000 C   0  0  0  0  0  0  0  0  0  0  0  0
   -0.1404    4.1122    0.0000 C   0  0  0  0  0  0  0  0  0  0  0  0
   -0.1404    2.6122    0.0000 C   0  0  0  0  0  0  0  0  0  0  0  0
   -1.4394    1.8622    0.0000 C   0  0  0  0  0  0  0  0  0  0  0  0
   -1.4394    0.3622    0.0000 O   0  0  0  0  0  0  0  0  0  0  0  0
   -2.7384    2.6122    0.0000 O   0  0  0  0  0  0  0  0  0  0  0  0
   -4.0375    1.8622    0.0000 Si  0  0  0  0  0  4  0  0  0  0  0  0
  5  4  2  0
  6  4  1  0
  8  7  1  0
  9  5  1  0
 10  6  2  0
 11  7  1  0
 12  8  1  0
 13  9  2  0
 13 10  1  0
 14 11  1  0
 14 12  1  0
 15 13  1  0
 15 14  1  0
 16 15  1  0
 17 16  2  0
 18 16  1  0
 19  1  1  0
 19  2  1  0
 19  3  1  0
 19 18  1  0
M  END
>  <NAME>  (6217) 
ALPHA-CYCLOPENTYL-ALPHA-PHENYLACETIC ACIDTRIMETHYLSILYL ESTER

>  <SYNONYMS>  (6217) 


>  <SPECTRUM TYPE>  (6217) 
MS1

>  <INSTRUMENT TYPE>  (6217) 
EI-B

>  <INSTRUMENT>  (6217) 
JEOL JMS-01-SG

>  <ION MODE>  (6217) 
P

>  <INCHIKEY>  (6217) 
LLMWGMYFEFHAIY-UHFFFAOYSA-N

>  <FORMULA>  (6217) 
C16H24O2Si

>  <EXACT MASS>  (6217) 
276.154556538

>  <MW>  (6217) 
276

>  <ID>  (6217) 
JP001923

>  <CONTRIBUTOR>  (6217) 
University of Tokyo Team, {Faculty of Engineering, University of Tokyo

>  <COMMENT>  (6217) 
SMILES=c(c2)ccc(c2)C(C(C1)CCC1)C(=O)O[Si](C)(C)C
InChI=InChI=1S/C16H24O2Si/c1-19(2,3)18-16(17)15(14-11-7-8-12-14)13-9-5-4-6-10-13/h4-6,9-10,14-15H,7-8,11-12H2,1-3H3
computed SMILES=O=C(O[Si](C)(C)C)C(C=1C=CC=CC1)C2CCCC2
accession=JP001923
date=2016.01.19 (Created 2008.10.21, modified 2011.05.06)
author=KOGA M, UNIV. OF OCCUPATIONAL AND ENVIRONMENTAL HEALTH
license=CC BY-NC-SA
exact mass=276.15456
ionization energy=70 eV
ion type=[M]+*
computed spectral entropy=2.0741790078730498
computed normalized entropy=0.7481019421436098
SPLASH=splash10-05fr-9410000000-1a009d85dbde8dc61b1b
submitter=submitter = University of Tokyo Team (Faculty of Engineering, University of Tokyo)
MoNA Rating=3.75

>  <NUM PEAKS>  (6217) 
16

>  <MASS SPECTRAL PEAKS>  (6217) 
45 9.9
67 6.5
73 99.99
74 1.7
75 22.7
77 6.1
91 24.3
115 0.55
117 8.5
118 12.2
158 67.9
159 0.99
208 12.2
232 9.3
261 10.2
262 2.3

$$$$

     RDKit          2D

 17 16  0  0  0  0  0  0  0  0999 V2000
   -1.4094    2.7353    0.0000 C   0  0  0  0  0  0  0  0  0  0  0  0
    0.0906    5.3334    0.0000 C   0  0  0  0  0  0  0  0  0  0  0  0
   -1.9584    4.7844    0.0000 C   0  0  0  0  0  0  0  0  0  0  0  0
   10.4829    2.7353    0.0000 C   0  0  0  0  0  0  0  0  0  0  0  0
   11.0320    4.7844    0.0000 C   0  0  0  0  0  0  0  0  0  0  0  0
    8.9829    5.3334    0.0000 C   0  0  0  0  0  0  0  0  0  0  0  0
    4.5368    4.0344    0.0000 C   0  0  0  0  0  0  0  0  0  0  0  0
    3.2377    3.2844    0.0000 C   0  0  0  0  0  0  0  0  0  0  0  0
    5.8358    3.2844    0.0000 C   0  0  0  0  0  0  0  0  0  0  0  0
    1.9387    4.0344    0.0000 C   0  0  0  0  0  0  0  0  0  0  0  0
    7.1349    4.0344    0.0000 C   0  0  0  0  0  0  0  0  0  0  0  0
    1.9387    5.5344    0.0000 O   0  0  0  0  0  0  0  0  0  0  0  0
    7.1349    5.5344    0.0000 O   0  0  0  0  0  0  0  0  0  0  0  0
    0.6397    3.2844    0.0000 O   0  0  0  0  0  0  0  0  0  0  0  0
    8.4339    3.2844    0.0000 O   0  0  0  0  0  0  0  0  0  0  0  0
   -0.6594    4.0344    0.0000 Si  0  0  0  0  0  4  0  0  0  0  0  0
    9.7329    4.0344    0.0000 Si  0  0  0  0  0  4  0  0  0  0  0  0
  8  7  1  0
  9  7  1  0
 10  8  1  0
 11  9  1  0
 12 10  2  0
 13 11  2  0
 14 10  1  0
 15 11  1  0
 16  1  1  0
 16  2  1  0
 16  3  1  0
 16 14  1  0
 17  4  1  0
 17  5  1  0
 17  6  1  0
 17 15  1  0
M  END
>  <NAME>  (6218) 
PENTANEDIOIC ACID BIS(TRIMETHYLSILYL) ESTER

>  <SYNONYMS>  (6218) 
BIS(TRIMETHYLSILYL) GLUTARATE

>  <SPECTRUM TYPE>  (6218) 
MS1

>  <INSTRUMENT TYPE>  (6218) 
EI-B

>  <INSTRUMENT>  (6218) 
JEOL JMS-01-SG

>  <ION MODE>  (6218) 
P

>  <INCHIKEY>  (6218) 
UWZGPXOJVOOLSG-UHFFFAOYSA-N

>  <FORMULA>  (6218) 
C11H24O4Si2

>  <EXACT MASS>  (6218) 
276.12131230800003

>  <MW>  (6218) 
276

>  <ID>  (6218) 
JP001922

>  <CONTRIBUTOR>  (6218) 
University of Tokyo Team, {Faculty of Engineering, University of Tokyo

>  <COMMENT>  (6218) 
SMILES=O=C(CCCC(=O)O[Si](C)(C)C)O[Si](C)(C)C
InChI=InChI=1S/C11H24O4Si2/c1-16(2,3)14-10(12)8-7-9-11(13)15-17(4,5)6/h7-9H2,1-6H3
computed SMILES=O=C(O[Si](C)(C)C)CCCC(=O)O[Si](C)(C)C
accession=JP001922
date=2016.01.19 (Created 2008.10.21, modified 2011.05.06)
author=KOGA M, UNIV. OF OCCUPATIONAL AND ENVIRONMENTAL HEALTH
license=CC BY-NC-SA
exact mass=276.12131
ionization energy=70 eV
ion type=[M]+*
computed spectral entropy=2.268544430221297
computed normalized entropy=0.8182044498791361
SPLASH=splash10-0002-9820000000-c555698fdca408b9ae89
submitter=submitter = University of Tokyo Team (Faculty of Engineering, University of Tokyo)
MoNA Rating=3.75

>  <NUM PEAKS>  (6218) 
16

>  <MASS SPECTRAL PEAKS>  (6218) 
43 7.5
45 14.1
55 46.6
73 8.83
74 9.3
75 40.5
97 14.4
129 1.19
147 99.99
148 20.2
149 16.6
158 2.22
204 7.7
233 8
261 21.9
262 4.7

$$$$

     RDKit          2D

 18 18  0  0  0  0  0  0  0  0999 V2000
    7.5043    3.5800    0.0000 C   0  0  0  0  0  0  0  0  0  0  0  0
    7.5043   -3.9200    0.0000 C   0  0  0  0  0  0  0  0  0  0  0  0
    0.4590    0.3783    0.0000 C   0  0  0  0  0  0  0  0  0  0  0  0
   -1.5900   -0.1710    0.0000 C   0  0  0  0  0  0  0  0  0  0  0  0
   -1.0406   -2.2200    0.0000 C   0  0  0  0  0  0  0  0  0  0  0  0
    7.5053    0.5800    0.0000 C   0  0  0  0  0  0  0  0  0  0  0  0
    7.5053   -0.9200    0.0000 C   0  0  0  0  0  0  0  0  0  0  0  0
    4.9053    0.5800    0.0000 C   0  0  0  0  0  0  0  0  0  0  0  0
    3.6064   -1.6702    0.0000 C   0  0  0  0  0  0  0  0  0  0  0  0
    4.9053   -0.9200    0.0000 C   0  0  0  0  0  0  0  0  0  0  0  0
    6.2053    1.3300    0.0000 C   0  0  0  0  0  0  0  0  0  0  0  0
    6.2053   -1.6700    0.0000 C   0  0  0  0  0  0  0  0  0  0  0  0
    2.3072   -0.9204    0.0000 C   0  0  0  0  0  0  0  0  0  0  0  0
    2.3070    0.5796    0.0000 O   0  0  0  0  0  0  0  0  0  0  0  0
    6.2053    2.8300    0.0000 O   0  0  0  0  0  0  0  0  0  0  0  0
    6.2053   -3.1700    0.0000 O   0  0  0  0  0  0  0  0  0  0  0  0
    1.0083   -1.6706    0.0000 O   0  0  0  0  0  0  0  0  0  0  0  0
   -0.2908   -0.9208    0.0000 Si  0  0  0  0  0  4  0  0  0  0  0  0
  7  6  2  0
 10  8  1  0
 10  9  1  0
 11  6  1  0
 11  8  2  0
 12  7  1  0
 12 10  2  0
 13  9  1  0
 14 13  2  0
 15  1  1  0
 15 11  1  0
 16  2  1  0
 16 12  1  0
 17 13  1  0
 18  3  1  0
 18  4  1  0
 18  5  1  0
 18 17  1  0
M  END
>  <NAME>  (6219) 
2,5-DIMETHOXYPHENYLACETIC ACID TRIMETHYLSILYL ESTER

>  <SYNONYMS>  (6219) 


>  <SPECTRUM TYPE>  (6219) 
MS1

>  <INSTRUMENT TYPE>  (6219) 
EI-B

>  <INSTRUMENT>  (6219) 
JEOL JMS-01-SG

>  <ION MODE>  (6219) 
P

>  <INCHIKEY>  (6219) 
ZPSFULASMKZAKO-UHFFFAOYSA-N

>  <FORMULA>  (6219) 
C13H20O4Si

>  <EXACT MASS>  (6219) 
268.11308565

>  <MW>  (6219) 
268

>  <ID>  (6219) 
JP001921

>  <CONTRIBUTOR>  (6219) 
University of Tokyo Team, {Faculty of Engineering, University of Tokyo

>  <COMMENT>  (6219) 
SMILES=COc(c1)cc(CC(=O)O[Si](C)(C)C)c(OC)c1
InChI=InChI=1S/C13H20O4Si/c1-15-11-6-7-12(16-2)10(8-11)9-13(14)17-18(3,4)5/h6-8H,9H2,1-5H3
computed SMILES=O=C(O[Si](C)(C)C)CC1=CC(OC)=CC=C1OC
accession=JP001921
date=2016.01.19 (Created 2008.10.21, modified 2011.05.06)
author=KOGA M, UNIV. OF OCCUPATIONAL AND ENVIRONMENTAL HEALTH
license=CC BY-NC-SA
exact mass=268.11309
ionization energy=70 eV
ion type=[M]+*
computed spectral entropy=2.5610119732270675
computed normalized entropy=0.7529736401171485
SPLASH=splash10-00di-9260000000-48c4840500464832f833
submitter=submitter = University of Tokyo Team (Faculty of Engineering, University of Tokyo)
MoNA Rating=3.75

>  <NUM PEAKS>  (6219) 
30

>  <MASS SPECTRAL PEAKS>  (6219) 
45 7.6
47 2.9
65 3.4
73 99.99
74 5.9
75 28.2
77 11.1
78 0.38
89 3.8
91 5.5
121 7.2
134 0.34
135 6.4
151 4.2
163 4.2
178 0.25
179 5.9
193 5.9
194 12.3
195 0.34
207 2.9
209 43.5
210 10.2
211 0.29
224 2.5
238 12.8
239 2.9
253 0.76
268 32.9
269 6.4

$$$$

     RDKit          2D

 18 18  0  0  0  0  0  0  0  0999 V2000
    7.4125   -2.2267    0.0000 C   0  0  0  0  0  0  0  0  0  0  0  0
   -4.8347    2.0532    0.0000 C   0  0  0  0  0  0  0  0  0  0  0  0
   -6.8864    1.5142    0.0000 C   0  0  0  0  0  0  0  0  0  0  0  0
   -6.3475   -0.5375    0.0000 C   0  0  0  0  0  0  0  0  0  0  0  0
    6.1073   -1.4875    0.0000 C   0  0  0  0  0  0  0  0  0  0  0  0
    4.8145   -2.2482    0.0000 C   0  0  0  0  0  0  0  0  0  0  0  0
   -0.3987    0.7386    0.0000 C   0  0  0  0  0  0  0  0  0  0  0  0
   -1.7122   -1.4862    0.0000 C   0  0  0  0  0  0  0  0  0  0  0  0
    0.8858    0.0138    0.0000 C   0  0  0  0  0  0  0  0  0  0  0  0
   -0.3877   -2.2803    0.0000 C   0  0  0  0  0  0  0  0  0  0  0  0
    3.5093   -1.5089    0.0000 C   0  0  0  0  0  0  0  0  0  0  0  0
   -1.6977   -0.0114    0.0000 C   0  0  0  0  0  0  0  0  0  0  0  0
    0.9113   -1.5303    0.0000 C   0  0  0  0  0  0  0  0  0  0  0  0
   -2.9930    0.7450    0.0000 C   0  0  0  0  0  0  0  0  0  0  0  0
   -2.9857    2.2450    0.0000 O   0  0  0  0  0  0  0  0  0  0  0  0
    2.2165   -2.2696    0.0000 O   0  0  0  0  0  0  0  0  0  0  0  0
   -4.2958    0.0014    0.0000 O   0  0  0  0  0  0  0  0  0  0  0  0
   -5.5911    0.7578    0.0000 Si  0  0  0  0  0  4  0  0  0  0  0  0
  5  1  1  0
  6  5  1  0
  9  7  2  0
 10  8  1  0
 11  6  1  0
 12  7  1  0
 12  8  2  0
 13  9  1  0
 13 10  2  0
 14 12  1  0
 15 14  2  0
 16 11  1  0
 16 13  1  0
 17 14  1  0
 18  2  1  0
 18  3  1  0
 18  4  1  0
 18 17  1  0
M  END
>  <NAME>  (6220) 
4-BUTOXYBENZOIC ACID TRIMETHYLSILYL ESTER

>  <SYNONYMS>  (6220) 


>  <SPECTRUM TYPE>  (6220) 
MS1

>  <INSTRUMENT TYPE>  (6220) 
EI-B

>  <INSTRUMENT>  (6220) 
JEOL JMS-01-SG

>  <ION MODE>  (6220) 
P

>  <INCHIKEY>  (6220) 
SJNBPQNORONGJJ-UHFFFAOYSA-N

>  <FORMULA>  (6220) 
C14H22O3Si

>  <EXACT MASS>  (6220) 
266.133821094

>  <MW>  (6220) 
266

>  <ID>  (6220) 
JP001920

>  <CONTRIBUTOR>  (6220) 
University of Tokyo Team, {Faculty of Engineering, University of Tokyo

>  <COMMENT>  (6220) 
computed SMILES=O=C(O[Si](C)(C)C)C1=CC=C(OCCCC)C=C1
SMILES=CCCCOc(c1)ccc(c1)C(=O)O[Si](C)(C)C
InChI=InChI=1S/C14H22O3Si/c1-5-6-11-16-13-9-7-12(8-10-13)14(15)17-18(2,3)4/h7-10H,5-6,11H2,1-4H3
accession=JP001920
date=2016.01.19 (Created 2008.10.21, modified 2011.05.06)
author=KOGA M, UNIV. OF OCCUPATIONAL AND ENVIRONMENTAL HEALTH
license=CC BY-NC-SA
exact mass=266.13382
ionization energy=70 eV
ion type=[M]+*
computed spectral entropy=2.360266968975177
computed normalized entropy=0.8165963297029866
SPLASH=splash10-0002-3940000000-e57dab3b63b62ac25a37
submitter=submitter = University of Tokyo Team (Faculty of Engineering, University of Tokyo)
MoNA Rating=3.75

>  <NUM PEAKS>  (6220) 
18

>  <MASS SPECTRAL PEAKS>  (6220) 
57 3.2
65 5.8
73 14.1
75 2.32
77 18
92 5.1
93 10.3
121 4.9
122 5.1
151 34.8
177 10.9
195 99.99
196 12.9
207 34.8
208 4.5
251 7.61
252 12.9
266 22.5

$$$$

     RDKit          2D

 18 18  0  0  0  0  0  0  0  0999 V2000
   -7.7951   -1.5010    0.0000 C   0  0  0  0  0  0  0  0  0  0  0  0
    5.9472    0.2017    0.0000 C   0  0  0  0  0  0  0  0  0  0  0  0
    6.4959    2.2508    0.0000 C   0  0  0  0  0  0  0  0  0  0  0  0
    4.4468    2.7995    0.0000 C   0  0  0  0  0  0  0  0  0  0  0  0
   -6.4962   -0.7508    0.0000 C   0  0  0  0  0  0  0  0  0  0  0  0
   -5.1970   -1.5006    0.0000 C   0  0  0  0  0  0  0  0  0  0  0  0
   -3.8981   -0.7504    0.0000 C   0  0  0  0  0  0  0  0  0  0  0  0
   -2.5989   -1.5002    0.0000 C   0  0  0  0  0  0  0  0  0  0  0  0
   -1.3000    0.7500    0.0000 C   0  0  0  0  0  0  0  0  0  0  0  0
   -0.0000   -1.5000    0.0000 C   0  0  0  0  0  0  0  0  0  0  0  0
    0.0000    1.5000    0.0000 C   0  0  0  0  0  0  0  0  0  0  0  0
    1.3000   -0.7500    0.0000 C   0  0  0  0  0  0  0  0  0  0  0  0
   -1.3000   -0.7500    0.0000 C   0  0  0  0  0  0  0  0  0  0  0  0
    1.3000    0.7500    0.0000 C   0  0  0  0  0  0  0  0  0  0  0  0
    2.5989    1.5002    0.0000 C   0  0  0  0  0  0  0  0  0  0  0  0
    2.5987    3.0002    0.0000 O   0  0  0  0  0  0  0  0  0  0  0  0
    3.8981    0.7504    0.0000 O   0  0  0  0  0  0  0  0  0  0  0  0
    5.1970    1.5006    0.0000 Si  0  0  0  0  0  4  0  0  0  0  0  0
  5  1  1  0
  6  5  1  0
  7  6  1  0
  8  7  1  0
 11  9  2  0
 12 10  1  0
 13  8  1  0
 13  9  1  0
 13 10  2  0
 14 11  1  0
 14 12  2  0
 15 14  1  0
 16 15  2  0
 17 15  1  0
 18  2  1  0
 18  3  1  0
 18  4  1  0
 18 17  1  0
M  END
>  <NAME>  (6221) 
4-PENTYLBENZOIC ACID TRIMETHYLSILYL ESTER

>  <SYNONYMS>  (6221) 


>  <SPECTRUM TYPE>  (6221) 
MS1

>  <INSTRUMENT TYPE>  (6221) 
EI-B

>  <INSTRUMENT>  (6221) 
JEOL JMS-01-SG

>  <ION MODE>  (6221) 
P

>  <INCHIKEY>  (6221) 
JKDYEPCDZXAYSI-UHFFFAOYSA-N

>  <FORMULA>  (6221) 
C15H24O2Si

>  <EXACT MASS>  (6221) 
264.154556538

>  <MW>  (6221) 
264

>  <ID>  (6221) 
JP001919

>  <CONTRIBUTOR>  (6221) 
University of Tokyo Team, {Faculty of Engineering, University of Tokyo

>  <COMMENT>  (6221) 
SMILES=CCCCCc(c1)ccc(c1)C(=O)O[Si](C)(C)C
InChI=InChI=1S/C15H24O2Si/c1-5-6-7-8-13-9-11-14(12-10-13)15(16)17-18(2,3)4/h9-12H,5-8H2,1-4H3
computed SMILES=O=C(O[Si](C)(C)C)C1=CC=C(C=C1)CCCCC
accession=JP001919
date=2016.01.19 (Created 2008.10.21, modified 2011.05.06)
author=KOGA M, UNIV. OF OCCUPATIONAL AND ENVIRONMENTAL HEALTH
license=CC BY-NC-SA
exact mass=264.15456
ionization energy=70 eV
ion type=[M]+*
computed spectral entropy=2.054579139641583
computed normalized entropy=0.725176289301289
SPLASH=splash10-0002-3190000000-94d111fc3991dcfcb548
submitter=submitter = University of Tokyo Team (Faculty of Engineering, University of Tokyo)
MoNA Rating=3.75

>  <NUM PEAKS>  (6221) 
17

>  <MASS SPECTRAL PEAKS>  (6221) 
43 7.7
45 7.7
73 12.9
77 0.9
90 10.9
91 19.3
118 8.3
175 4.83
176 3.8
193 5.8
205 48.3
206 0.58
207 3.8
249 99.99
250 16.7
251 0.38
264 3.8

$$$$

     RDKit          2D

 16 15  0  0  0  0  0  0  0  0999 V2000
    2.2769   -1.6005    0.0000 C   0  0  0  0  0  0  0  0  0  0  0  0
    0.7769    0.9976    0.0000 C   0  0  0  0  0  0  0  0  0  0  0  0
    0.2279   -1.0514    0.0000 C   0  0  0  0  0  0  0  0  0  0  0  0
    7.4731    5.8995    0.0000 C   0  0  0  0  0  0  0  0  0  0  0  0
    8.0221    7.9486    0.0000 C   0  0  0  0  0  0  0  0  0  0  0  0
    5.9731    8.4976    0.0000 C   0  0  0  0  0  0  0  0  0  0  0  0
    4.1250    2.6986    0.0000 C   0  0  0  0  0  0  0  0  0  0  0  0
    4.1250    4.1986    0.0000 C   0  0  0  0  0  0  0  0  0  0  0  0
    2.8260    1.9486    0.0000 C   0  0  0  0  0  0  0  0  0  0  0  0
    5.4240    4.9486    0.0000 C   0  0  0  0  0  0  0  0  0  0  0  0
    1.5269    2.6986    0.0000 O   0  0  0  0  0  0  0  0  0  0  0  0
    6.7231    4.1986    0.0000 O   0  0  0  0  0  0  0  0  0  0  0  0
    2.8260    0.4486    0.0000 O   0  0  0  0  0  0  0  0  0  0  0  0
    5.4240    6.4486    0.0000 O   0  0  0  0  0  0  0  0  0  0  0  0
    1.5269   -0.3014    0.0000 Si  0  0  0  0  0  4  0  0  0  0  0  0
    6.7231    7.1986    0.0000 Si  0  0  0  0  0  4  0  0  0  0  0  0
  8  7  1  0
  9  7  1  0
 10  8  1  0
 11  9  2  0
 12 10  2  0
 13  9  1  0
 14 10  1  0
 15  1  1  0
 15  2  1  0
 15  3  1  0
 15 13  1  0
 16  4  1  0
 16  5  1  0
 16  6  1  0
 16 14  1  0
M  END
>  <NAME>  (6222) 
BUTANEDIOIC ACID BIS(TRIMETHYLSILYL) ESTER

>  <SYNONYMS>  (6222) 
BIS(TRIMETHYLSILYL) SUCCINATE

>  <SPECTRUM TYPE>  (6222) 
MS1

>  <INSTRUMENT TYPE>  (6222) 
EI-B

>  <INSTRUMENT>  (6222) 
JEOL JMS-01-SG

>  <ION MODE>  (6222) 
P

>  <INCHIKEY>  (6222) 
QUUDZINXVRFXLB-UHFFFAOYSA-N

>  <FORMULA>  (6222) 
C10H22O4Si2

>  <EXACT MASS>  (6222) 
262.105662244

>  <MW>  (6222) 
262

>  <ID>  (6222) 
JP001918

>  <CONTRIBUTOR>  (6222) 
University of Tokyo Team, {Faculty of Engineering, University of Tokyo

>  <COMMENT>  (6222) 
SMILES=O=C(CCC(=O)O[Si](C)(C)C)O[Si](C)(C)C
InChI=InChI=1S/C10H22O4Si2/c1-15(2,3)13-9(11)7-8-10(12)14-16(4,5)6/h7-8H2,1-6H3
computed SMILES=O=C(O[Si](C)(C)C)CCC(=O)O[Si](C)(C)C
accession=JP001918
date=2016.01.19 (Created 2008.10.21, modified 2011.05.06)
author=KOGA M, UNIV. OF OCCUPATIONAL AND ENVIRONMENTAL HEALTH
license=CC BY-NC-SA
exact mass=262.10566
ionization energy=70 eV
ion type=[M]+*
computed spectral entropy=1.9375114903475161
computed normalized entropy=0.7797119825458292
SPLASH=splash10-0002-7910000000-813556755505f2b49b53
submitter=submitter = University of Tokyo Team (Faculty of Engineering, University of Tokyo)
MoNA Rating=3.75

>  <NUM PEAKS>  (6222) 
12

>  <MASS SPECTRAL PEAKS>  (6222) 
45 18
55 17.5
56 13
73 1.65
74 11.6
75 44
147 99.99
148 3.64
149 9.9
172 7.1
247 21.3
248 4

$$$$

     RDKit          2D

 18 19  0  0  0  0  0  0  0  0999 V2000
    4.5281    4.4310    0.0000 C   0  0  0  0  0  0  0  0  0  0  0  0
    5.0771    6.4800    0.0000 C   0  0  0  0  0  0  0  0  0  0  0  0
    3.0281    7.0290    0.0000 C   0  0  0  0  0  0  0  0  0  0  0  0
   -2.7200   -1.0200    0.0000 C   0  0  0  0  0  0  0  0  0  0  0  0
   -2.7200    0.4800    0.0000 C   0  0  0  0  0  0  0  0  0  0  0  0
    2.4800   -1.0200    0.0000 C   0  0  0  0  0  0  0  0  0  0  0  0
   -1.4200   -1.7700    0.0000 C   0  0  0  0  0  0  0  0  0  0  0  0
    1.1800   -1.7700    0.0000 C   0  0  0  0  0  0  0  0  0  0  0  0
    2.4800    0.4800    0.0000 C   0  0  0  0  0  0  0  0  0  0  0  0
   -1.4200    1.2300    0.0000 C   0  0  0  0  0  0  0  0  0  0  0  0
    1.1800    2.7300    0.0000 C   0  0  0  0  0  0  0  0  0  0  0  0
   -0.1200   -1.0200    0.0000 C   0  0  0  0  0  0  0  0  0  0  0  0
    1.1800    1.2300    0.0000 C   0  0  0  0  0  0  0  0  0  0  0  0
   -0.1200    0.4800    0.0000 C   0  0  0  0  0  0  0  0  0  0  0  0
    2.4790    3.4800    0.0000 C   0  0  0  0  0  0  0  0  0  0  0  0
    3.7781    2.7300    0.0000 O   0  0  0  0  0  0  0  0  0  0  0  0
    2.4790    4.9800    0.0000 O   0  0  0  0  0  0  0  0  0  0  0  0
    3.7781    5.7300    0.0000 Si  0  0  0  0  0  4  0  0  0  0  0  0
  5  4  2  0
  7  4  1  0
  8  6  2  0
  9  6  1  0
 10  5  1  0
 12  7  2  0
 12  8  1  0
 13  9  2  0
 13 11  1  0
 14 10  2  0
 14 12  1  0
 14 13  1  0
 15 11  1  0
 16 15  2  0
 17 15  1  0
 18  1  1  0
 18  2  1  0
 18  3  1  0
 18 17  1  0
M  END
>  <NAME>  (6223) 
ALPHA-NAPHTHALENEACETIC ACID TRIMETHYLSILYL ESTER

>  <SYNONYMS>  (6223) 


>  <SPECTRUM TYPE>  (6223) 
MS1

>  <INSTRUMENT TYPE>  (6223) 
EI-B

>  <INSTRUMENT>  (6223) 
JEOL JMS-01-SG

>  <ION MODE>  (6223) 
P

>  <INCHIKEY>  (6223) 
FUAQQDROLSPOHA-UHFFFAOYSA-N

>  <FORMULA>  (6223) 
C15H18O2Si

>  <EXACT MASS>  (6223) 
258.107606346

>  <MW>  (6223) 
258

>  <ID>  (6223) 
JP001917

>  <CONTRIBUTOR>  (6223) 
University of Tokyo Team, {Faculty of Engineering, University of Tokyo

>  <COMMENT>  (6223) 
SMILES=O=C(O[Si](C)(C)C)Cc(c1)c(c2)c(ccc2)cc1
InChI=InChI=1S/C15H18O2Si/c1-18(2,3)17-15(16)11-13-9-6-8-12-7-4-5-10-14(12)13/h4-10H,11H2,1-3H3
computed SMILES=O=C(O[Si](C)(C)C)CC1=CC=CC=2C=CC=CC21
accession=JP001917
date=2016.01.19 (Created 2008.10.21, modified 2011.05.06)
license=CC BY-NC-SA
author=KOGA M, UNIV. OF OCCUPATIONAL AND ENVIRONMENTAL HEALTH
exact mass=258.10761
ionization energy=70 eV
ion type=[M]+*
computed spectral entropy=1.5184891641242972
computed normalized entropy=0.6110849935766589
SPLASH=splash10-00di-9010000000-187459ff1d4b9d9432a2
submitter=submitter = University of Tokyo Team (Faculty of Engineering, University of Tokyo)
MoNA Rating=3.75

>  <NUM PEAKS>  (6223) 
12

>  <MASS SPECTRAL PEAKS>  (6223) 
45 6.2
73 99.99
74 9.7
75 2.11
77 5.1
115 8.6
139 4
141 1.02
214 9.7
243 5.4
258 8.1
259 1.8

$$$$

     RDKit          2D

 17 16  0  0  0  0  0  0  0  0999 V2000
    4.1349    7.6373    0.0000 C   0  0  0  0  0  0  0  0  0  0  0  0
  -12.2036    8.9363    0.0000 C   0  0  0  0  0  0  0  0  0  0  0  0
  -12.7526    6.8873    0.0000 C   0  0  0  0  0  0  0  0  0  0  0  0
  -10.7036    6.3382    0.0000 C   0  0  0  0  0  0  0  0  0  0  0  0
    2.8358    8.3873    0.0000 C   0  0  0  0  0  0  0  0  0  0  0  0
    1.5368    7.6373    0.0000 C   0  0  0  0  0  0  0  0  0  0  0  0
    0.2377    8.3873    0.0000 C   0  0  0  0  0  0  0  0  0  0  0  0
   -1.0613    7.6373    0.0000 C   0  0  0  0  0  0  0  0  0  0  0  0
   -2.3603    8.3873    0.0000 C   0  0  0  0  0  0  0  0  0  0  0  0
   -3.6594    7.6373    0.0000 C   0  0  0  0  0  0  0  0  0  0  0  0
   -4.9584    8.3873    0.0000 C   0  0  0  0  0  0  0  0  0  0  0  0
   -6.2575    7.6373    0.0000 C   0  0  0  0  0  0  0  0  0  0  0  0
   -7.5565    8.3873    0.0000 C   0  0  0  0  0  0  0  0  0  0  0  0
   -8.8555    7.6373    0.0000 C   0  0  0  0  0  0  0  0  0  0  0  0
   -8.8555    6.1373    0.0000 O   0  0  0  0  0  0  0  0  0  0  0  0
  -10.1546    8.3873    0.0000 O   0  0  0  0  0  0  0  0  0  0  0  0
  -11.4536    7.6373    0.0000 Si  0  0  0  0  0  4  0  0  0  0  0  0
  5  1  2  0
  6  5  1  0
  7  6  1  0
  8  7  1  0
  9  8  1  0
 10  9  1  0
 11 10  1  0
 12 11  1  0
 13 12  1  0
 14 13  1  0
 15 14  2  0
 16 14  1  0
 17  2  1  0
 17  3  1  0
 17  4  1  0
 17 16  1  0
M  END
>  <NAME>  (6224) 
10-UNDECENOIC ACID TRIMETHYLSILYL ESTER

>  <SYNONYMS>  (6224) 


>  <SPECTRUM TYPE>  (6224) 
MS1

>  <INSTRUMENT TYPE>  (6224) 
EI-B

>  <INSTRUMENT>  (6224) 
JEOL JMS-01-SG

>  <ION MODE>  (6224) 
P

>  <INCHIKEY>  (6224) 
VMXRWOBZWPBJEY-UHFFFAOYSA-N

>  <FORMULA>  (6224) 
C14H28O2Si

>  <EXACT MASS>  (6224) 
256.185856666

>  <MW>  (6224) 
256

>  <ID>  (6224) 
JP001916

>  <CONTRIBUTOR>  (6224) 
University of Tokyo Team, {Faculty of Engineering, University of Tokyo

>  <COMMENT>  (6224) 
SMILES=C=CCCCCCCCCC(=O)O[Si](C)(C)C
InChI=InChI=1S/C14H28O2Si/c1-5-6-7-8-9-10-11-12-13-14(15)16-17(2,3)4/h5H,1,6-13H2,2-4H3
computed SMILES=O=C(O[Si](C)(C)C)CCCCCCCCC=C
accession=JP001916
date=2016.01.19 (Created 2008.10.21, modified 2011.05.06)
author=KOGA M, UNIV. OF OCCUPATIONAL AND ENVIRONMENTAL HEALTH
license=CC BY-NC-SA
exact mass=256.18586
ionization energy=70 eV
ion type=[M]+*
computed spectral entropy=2.6711245539120245
computed normalized entropy=0.7639407342770683
SPLASH=splash10-00b9-9400000000-fcef3116190d971a2469
submitter=submitter = University of Tokyo Team (Faculty of Engineering, University of Tokyo)
MoNA Rating=3.75

>  <NUM PEAKS>  (6224) 
33

>  <MASS SPECTRAL PEAKS>  (6224) 
44 4.2
45 10
47 6.3
55 2.36
61 6.3
67 9.4
69 8.4
72 0.52
73 99.99
74 10
75 98.4
76 0.63
77 18.9
81 9.4
82 5.7
83 0.57
84 7.8
95 5.7
96 7.8
97 0.57
98 6.3
116 5.2
117 73.1
118 0.57
124 6.3
129 31
131 20.5
132 1.89
145 14.2
147 8.4
166 3.6
241 5.36
242 5.7

$$$$

     RDKit          2D

 17 17  0  0  0  0  0  0  0  0999 V2000
    3.5571   -1.9933    0.0000 C   0  0  0  0  0  0  0  0  0  0  0  0
    4.8566    1.7571    0.0000 C   0  0  0  0  0  0  0  0  0  0  0  0
   -3.4871    3.8057    0.0000 C   0  0  0  0  0  0  0  0  0  0  0  0
   -5.5362    3.2567    0.0000 C   0  0  0  0  0  0  0  0  0  0  0  0
   -4.9871    1.2076    0.0000 C   0  0  0  0  0  0  0  0  0  0  0  0
   -0.3405    0.2558    0.0000 C   0  0  0  0  0  0  0  0  0  0  0  0
    0.9585   -0.4942    0.0000 C   0  0  0  0  0  0  0  0  0  0  0  0
    0.9595    2.5075    0.0000 C   0  0  0  0  0  0  0  0  0  0  0  0
   -0.3400    1.7567    0.0000 C   0  0  0  0  0  0  0  0  0  0  0  0
    2.2580    0.2567    0.0000 C   0  0  0  0  0  0  0  0  0  0  0  0
    2.2585    1.7575    0.0000 C   0  0  0  0  0  0  0  0  0  0  0  0
   -1.6391    2.5067    0.0000 C   0  0  0  0  0  0  0  0  0  0  0  0
   -1.6391    4.0067    0.0000 O   0  0  0  0  0  0  0  0  0  0  0  0
    3.5571   -0.4933    0.0000 O   0  0  0  0  0  0  0  0  0  0  0  0
    3.5577    2.5073    0.0000 O   0  0  0  0  0  0  0  0  0  0  0  0
   -2.9381    1.7567    0.0000 O   0  0  0  0  0  0  0  0  0  0  0  0
   -4.2371    2.5067    0.0000 Si  0  0  0  0  0  4  0  0  0  0  0  0
  7  6  2  0
  9  6  1  0
  9  8  2  0
 10  7  1  0
 11  8  1  0
 11 10  2  0
 12  9  1  0
 13 12  2  0
 14  1  1  0
 14 10  1  0
 15  2  1  0
 15 11  1  0
 16 12  1  0
 17  3  1  0
 17  4  1  0
 17  5  1  0
 17 16  1  0
M  END
>  <NAME>  (6225) 
3,4-DIMETHOXYBENZOIC ACID TRIMETHYLSILYL ESTER

>  <SYNONYMS>  (6225) 


>  <SPECTRUM TYPE>  (6225) 
MS1

>  <INSTRUMENT TYPE>  (6225) 
EI-B

>  <INSTRUMENT>  (6225) 
JEOL JMS-01-SG

>  <ION MODE>  (6225) 
P

>  <INCHIKEY>  (6225) 
JZIXRRXJQVBHJP-UHFFFAOYSA-N

>  <FORMULA>  (6225) 
C12H18O4Si

>  <EXACT MASS>  (6225) 
254.09743558600002

>  <MW>  (6225) 
254

>  <ID>  (6225) 
JP001915

>  <CONTRIBUTOR>  (6225) 
University of Tokyo Team, {Faculty of Engineering, University of Tokyo

>  <COMMENT>  (6225) 
SMILES=COc(c1)c(OC)cc(c1)C(=O)O[Si](C)(C)C
InChI=InChI=1S/C12H18O4Si/c1-14-10-7-6-9(8-11(10)15-2)12(13)16-17(3,4)5/h6-8H,1-5H3
computed SMILES=O=C(O[Si](C)(C)C)C1=CC=C(OC)C(OC)=C1
accession=JP001915
date=2016.01.19 (Created 2008.10.21, modified 2011.05.06)
author=KOGA M, UNIV. OF OCCUPATIONAL AND ENVIRONMENTAL HEALTH
license=CC BY-NC-SA
exact mass=254.09744
ionization energy=70 eV
ion type=[M]+*
computed spectral entropy=1.9379123727241936
computed normalized entropy=0.7798733094820791
SPLASH=splash10-00kk-2950000000-d9b7cc7fdc185e89c1fa
submitter=submitter = University of Tokyo Team (Faculty of Engineering, University of Tokyo)
MoNA Rating=3.75

>  <NUM PEAKS>  (6225) 
12

>  <MASS SPECTRAL PEAKS>  (6225) 
73 11
75 14.9
77 20.1
79 0.9
137 12.3
165 90.9
195 99.99
196 1.42
239 75.9
240 11
254 35
255 6.4

$$$$

     RDKit          2D

 17 17  0  0  0  0  0  0  0  0999 V2000
   -4.7795    3.5092    0.0000 C   0  0  0  0  0  0  0  0  0  0  0  0
    6.1626   -0.0656    0.0000 C   0  0  0  0  0  0  0  0  0  0  0  0
    8.2143    0.4733    0.0000 C   0  0  0  0  0  0  0  0  0  0  0  0
    7.6753    2.5250    0.0000 C   0  0  0  0  0  0  0  0  0  0  0  0
   -0.8715    1.2617    0.0000 C   0  0  0  0  0  0  0  0  0  0  0  0
    0.4421    3.4865    0.0000 C   0  0  0  0  0  0  0  0  0  0  0  0
    1.7229    1.2553    0.0000 C   0  0  0  0  0  0  0  0  0  0  0  0
   -2.1560    1.9865    0.0000 C   0  0  0  0  0  0  0  0  0  0  0  0
   -0.8825    4.2807    0.0000 C   0  0  0  0  0  0  0  0  0  0  0  0
    3.0256    1.9989    0.0000 C   0  0  0  0  0  0  0  0  0  0  0  0
    0.4275    2.0117    0.0000 C   0  0  0  0  0  0  0  0  0  0  0  0
   -2.1815    3.5307    0.0000 C   0  0  0  0  0  0  0  0  0  0  0  0
    4.3209    1.2425    0.0000 C   0  0  0  0  0  0  0  0  0  0  0  0
    4.3135   -0.2575    0.0000 O   0  0  0  0  0  0  0  0  0  0  0  0
   -3.4867    4.2699    0.0000 O   0  0  0  0  0  0  0  0  0  0  0  0
    5.6236    1.9861    0.0000 O   0  0  0  0  0  0  0  0  0  0  0  0
    6.9190    1.2297    0.0000 Si  0  0  0  0  0  4  0  0  0  0  0  0
  8  5  2  0
  9  6  1  0
  7 10  2  0
 11  5  1  0
 11  6  2  0
 11  7  1  0
 12  8  1  0
 12  9  2  0
 13 10  1  0
 14 13  2  0
 15  1  1  0
 15 12  1  0
 16 13  1  0
 17  2  1  0
 17  3  1  0
 17  4  1  0
 17 16  1  0
M  END
>  <NAME>  (6226) 
PARA-METHOXYCINNAMIC ACID TRIMETHYLSILYL ESTER

>  <SYNONYMS>  (6226) 


>  <SPECTRUM TYPE>  (6226) 
MS1

>  <INSTRUMENT TYPE>  (6226) 
EI-B

>  <INSTRUMENT>  (6226) 
JEOL JMS-01-SG

>  <ION MODE>  (6226) 
P

>  <INCHIKEY>  (6226) 
YQVAQSPGNGFHAH-JXMROGBWSA-N

>  <FORMULA>  (6226) 
C13H18O3Si

>  <EXACT MASS>  (6226) 
250.102520966

>  <MW>  (6226) 
250

>  <ID>  (6226) 
JP001913

>  <CONTRIBUTOR>  (6226) 
University of Tokyo Team, {Faculty of Engineering, University of Tokyo

>  <COMMENT>  (6226) 
SMILES=COc(c1)ccc(c1)C=CC(=O)O[Si](C)(C)C
InChI=InChI=1S/C13H18O3Si/c1-15-12-8-5-11(6-9-12)7-10-13(14)16-17(2,3)4/h5-10H,1-4H3/b10-7+
computed SMILES=O=C(O[Si](C)(C)C)C=CC1=CC=C(OC)C=C1
accession=JP001913
date=2016.01.19 (Created 2008.10.21, modified 2011.05.06)
author=KOGA M, UNIV. OF OCCUPATIONAL AND ENVIRONMENTAL HEALTH
license=CC BY-NC-SA
exact mass=250.10252
ionization energy=70 eV
ion type=[M]+*
computed spectral entropy=2.2879009906638816
computed normalized entropy=0.8251858533189321
SPLASH=splash10-03du-2940000000-719ec2dde6cbd77d0022
submitter=submitter = University of Tokyo Team (Faculty of Engineering, University of Tokyo)
MoNA Rating=3.75

>  <NUM PEAKS>  (6226) 
16

>  <MASS SPECTRAL PEAKS>  (6226) 
73 14.4
75 22.3
77 18.8
90 0.69
118 8.8
121 19.4
133 24.8
161 99.99
162 9.4
165 5.9
191 58.4
192 0.81
235 60.3
236 8.8
250 31.7
251 5

$$$$

     RDKit          2D

 17 17  0  0  0  0  0  0  0  0999 V2000
   -4.4670   -2.5807    0.0000 C   0  0  0  0  0  0  0  0  0  0  0  0
    7.9748   -3.1257    0.0000 C   0  0  0  0  0  0  0  0  0  0  0  0
    8.5241   -1.0767    0.0000 C   0  0  0  0  0  0  0  0  0  0  0  0
    6.4752   -0.5273    0.0000 C   0  0  0  0  0  0  0  0  0  0  0  0
   -0.5653   -4.8185    0.0000 C   0  0  0  0  0  0  0  0  0  0  0  0
    0.7292   -4.0763    0.0000 C   0  0  0  0  0  0  0  0  0  0  0  0
   -1.8644   -4.0685    0.0000 C   0  0  0  0  0  0  0  0  0  0  0  0
    2.0288   -1.8257    0.0000 C   0  0  0  0  0  0  0  0  0  0  0  0
    3.3278   -2.5759    0.0000 C   0  0  0  0  0  0  0  0  0  0  0  0
   -0.5694   -1.8255    0.0000 C   0  0  0  0  0  0  0  0  0  0  0  0
    0.7297   -2.5755    0.0000 C   0  0  0  0  0  0  0  0  0  0  0  0
   -1.8689   -2.5763    0.0000 C   0  0  0  0  0  0  0  0  0  0  0  0
    4.6269   -1.8261    0.0000 C   0  0  0  0  0  0  0  0  0  0  0  0
    4.6272   -0.3261    0.0000 O   0  0  0  0  0  0  0  0  0  0  0  0
   -3.1692   -1.8285    0.0000 O   0  0  0  0  0  0  0  0  0  0  0  0
    5.9258   -2.5763    0.0000 O   0  0  0  0  0  0  0  0  0  0  0  0
    7.2250   -1.8265    0.0000 Si  0  0  0  0  0  4  0  0  0  0  0  0
  6  5  2  0
  7  5  1  0
  8  9  2  0
 11  6  1  0
 11  8  1  0
 11 10  2  0
 12  7  2  0
 12 10  1  0
 13  9  1  0
 14 13  2  0
 15  1  1  0
 15 12  1  0
 16 13  1  0
 17  2  1  0
 17  3  1  0
 17  4  1  0
 17 16  1  0
M  END
>  <NAME>  (6227) 
META-METHOXYCINNAMIC ACID TRIMETHYLSILYL ESTER

>  <SYNONYMS>  (6227) 


>  <SPECTRUM TYPE>  (6227) 
MS1

>  <INSTRUMENT TYPE>  (6227) 
EI-B

>  <INSTRUMENT>  (6227) 
JEOL JMS-01-SG

>  <ION MODE>  (6227) 
P

>  <INCHIKEY>  (6227) 
RGDYRMJCKDCLTE-CMDGGOBGSA-N

>  <FORMULA>  (6227) 
C13H18O3Si

>  <EXACT MASS>  (6227) 
250.102520966

>  <MW>  (6227) 
250

>  <ID>  (6227) 
JP001912

>  <CONTRIBUTOR>  (6227) 
University of Tokyo Team, {Faculty of Engineering, University of Tokyo

>  <COMMENT>  (6227) 
SMILES=COc(c1)cc(cc1)C=CC(=O)O[Si](C)(C)C
InChI=InChI=1S/C13H18O3Si/c1-15-12-7-5-6-11(10-12)8-9-13(14)16-17(2,3)4/h5-10H,1-4H3/b9-8+
computed SMILES=O=C(O[Si](C)(C)C)C=CC=1C=CC=C(OC)C1
accession=JP001912
date=2016.01.19 (Created 2008.10.21, modified 2011.05.06)
author=KOGA M, UNIV. OF OCCUPATIONAL AND ENVIRONMENTAL HEALTH
license=CC BY-NC-SA
exact mass=250.10252
ionization energy=70 eV
ion type=[M]+*
computed spectral entropy=2.673725262579174
computed normalized entropy=0.8206402822559781
SPLASH=splash10-01tl-8940000000-91c6436bd78fc1ad2cd8
submitter=submitter = University of Tokyo Team (Faculty of Engineering, University of Tokyo)
MoNA Rating=3.75

>  <NUM PEAKS>  (6227) 
26

>  <MASS SPECTRAL PEAKS>  (6227) 
45 21
47 15.6
51 8.5
63 1.09
64 8.5
73 24.2
75 96
76 1.17
77 32
79 8.5
89 19.5
90 1.95
92 9.3
102 14
103 10.1
118 2.89
133 28.9
161 99.99
162 10.9
175 2.96
191 79.6
192 14
235 84.3
236 1.25
250 30.4
251 7.8

$$$$

     RDKit          2D

 17 17  0  0  0  0  0  0  0  0999 V2000
    3.3491    0.2013    0.0000 C   0  0  0  0  0  0  0  0  0  0  0  0
    3.8978    2.2504    0.0000 C   0  0  0  0  0  0  0  0  0  0  0  0
    1.8487    2.7991    0.0000 C   0  0  0  0  0  0  0  0  0  0  0  0
   -5.9472   -0.2017    0.0000 C   0  0  0  0  0  0  0  0  0  0  0  0
   -6.4959   -2.2508    0.0000 C   0  0  0  0  0  0  0  0  0  0  0  0
   -4.4468   -2.7995    0.0000 C   0  0  0  0  0  0  0  0  0  0  0  0
   -1.3000    0.7500    0.0000 C   0  0  0  0  0  0  0  0  0  0  0  0
   -0.0000   -1.5000    0.0000 C   0  0  0  0  0  0  0  0  0  0  0  0
    0.0000    1.5000    0.0000 C   0  0  0  0  0  0  0  0  0  0  0  0
    1.3000   -0.7500    0.0000 C   0  0  0  0  0  0  0  0  0  0  0  0
   -1.3000   -0.7500    0.0000 C   0  0  0  0  0  0  0  0  0  0  0  0
    1.3000    0.7500    0.0000 C   0  0  0  0  0  0  0  0  0  0  0  0
   -2.5989   -1.5002    0.0000 C   0  0  0  0  0  0  0  0  0  0  0  0
    2.5989    1.5002    0.0000 C   0  0  0  0  0  0  0  0  0  0  0  0
   -2.5987   -3.0002    0.0000 O   0  0  0  0  0  0  0  0  0  0  0  0
   -3.8981   -0.7504    0.0000 O   0  0  0  0  0  0  0  0  0  0  0  0
   -5.1970   -1.5006    0.0000 Si  0  0  0  0  0  4  0  0  0  0  0  0
  9  7  2  0
 10  8  1  0
 11  7  1  0
 11  8  2  0
 12  9  1  0
 12 10  2  0
 13 11  1  0
 14  1  1  0
 14  2  1  0
 14  3  1  0
 14 12  1  0
 15 13  2  0
 16 13  1  0
 17  4  1  0
 17  5  1  0
 17  6  1  0
 17 16  1  0
M  END
>  <NAME>  (6228) 
4-TERT-BUTYLBENZOIC ACID TRIMETHYLSILYL ESTER

>  <SYNONYMS>  (6228) 


>  <SPECTRUM TYPE>  (6228) 
MS1

>  <INSTRUMENT TYPE>  (6228) 
EI-B

>  <INSTRUMENT>  (6228) 
JEOL JMS-01-SG

>  <ION MODE>  (6228) 
P

>  <INCHIKEY>  (6228) 
PLYFZJPAUGYADQ-UHFFFAOYSA-N

>  <FORMULA>  (6228) 
C14H22O2Si

>  <EXACT MASS>  (6228) 
250.138906474

>  <MW>  (6228) 
250

>  <ID>  (6228) 
JP001911

>  <CONTRIBUTOR>  (6228) 
University of Tokyo Team, {Faculty of Engineering, University of Tokyo

>  <COMMENT>  (6228) 
SMILES=CC(C)(C)c(c1)ccc(c1)C(=O)O[Si](C)(C)C
InChI=InChI=1S/C14H22O2Si/c1-14(2,3)12-9-7-11(8-10-12)13(15)16-17(4,5)6/h7-10H,1-6H3
computed SMILES=O=C(O[Si](C)(C)C)C1=CC=C(C=C1)C(C)(C)C
accession=JP001911
date=2016.01.19 (Created 2008.10.21, modified 2011.05.06)
author=KOGA M, UNIV. OF OCCUPATIONAL AND ENVIRONMENTAL HEALTH
license=CC BY-NC-SA
exact mass=250.13891
ionization energy=70 eV
ion type=[M]+*
computed spectral entropy=2.383034879536567
computed normalized entropy=0.7314193584281248
SPLASH=splash10-000i-5790000000-21ff59593925b1df7b9d
submitter=submitter = University of Tokyo Team (Faculty of Engineering, University of Tokyo)
MoNA Rating=3.75

>  <NUM PEAKS>  (6228) 
26

>  <MASS SPECTRAL PEAKS>  (6228) 
45 9.9
57 3.4
73 35
74 0.19
75 7.1
77 9.1
91 7.4
96 2.59
103 1.7
105 1.7
110 4.2
115 0.42
117 4.2
118 9.9
145 3.7
146 0.51
161 29.9
162 3.4
191 29
192 0.56
193 7.9
207 5.6
235 99.99
236 1.88
237 5.1
250 4.8

$$$$

     RDKit          2D

 17 17  0  0  0  0  0  0  0  0999 V2000
   -6.4962   -0.7508    0.0000 C   0  0  0  0  0  0  0  0  0  0  0  0
    5.9472    0.2017    0.0000 C   0  0  0  0  0  0  0  0  0  0  0  0
    6.4959    2.2508    0.0000 C   0  0  0  0  0  0  0  0  0  0  0  0
    4.4468    2.7995    0.0000 C   0  0  0  0  0  0  0  0  0  0  0  0
   -5.1970   -1.5006    0.0000 C   0  0  0  0  0  0  0  0  0  0  0  0
   -3.8981   -0.7504    0.0000 C   0  0  0  0  0  0  0  0  0  0  0  0
   -2.5989   -1.5002    0.0000 C   0  0  0  0  0  0  0  0  0  0  0  0
   -1.3000    0.7500    0.0000 C   0  0  0  0  0  0  0  0  0  0  0  0
   -0.0000   -1.5000    0.0000 C   0  0  0  0  0  0  0  0  0  0  0  0
    0.0000    1.5000    0.0000 C   0  0  0  0  0  0  0  0  0  0  0  0
    1.3000   -0.7500    0.0000 C   0  0  0  0  0  0  0  0  0  0  0  0
   -1.3000   -0.7500    0.0000 C   0  0  0  0  0  0  0  0  0  0  0  0
    1.3000    0.7500    0.0000 C   0  0  0  0  0  0  0  0  0  0  0  0
    2.5989    1.5002    0.0000 C   0  0  0  0  0  0  0  0  0  0  0  0
    2.5987    3.0002    0.0000 O   0  0  0  0  0  0  0  0  0  0  0  0
    3.8981    0.7504    0.0000 O   0  0  0  0  0  0  0  0  0  0  0  0
    5.1970    1.5006    0.0000 Si  0  0  0  0  0  4  0  0  0  0  0  0
  5  1  1  0
  6  5  1  0
  7  6  1  0
 10  8  2  0
 11  9  1  0
 12  7  1  0
 12  8  1  0
 12  9  2  0
 13 10  1  0
 13 11  2  0
 14 13  1  0
 15 14  2  0
 16 14  1  0
 17  2  1  0
 17  3  1  0
 17  4  1  0
 17 16  1  0
M  END
>  <NAME>  (6229) 
4-BUTYLBENZOIC ACID TRIMETHYLSILYL ESTER

>  <SYNONYMS>  (6229) 


>  <SPECTRUM TYPE>  (6229) 
MS1

>  <INSTRUMENT TYPE>  (6229) 
EI-B

>  <INSTRUMENT>  (6229) 
JEOL JMS-01-SG

>  <ION MODE>  (6229) 
P

>  <INCHIKEY>  (6229) 
QCIYBSTWFOLQPL-UHFFFAOYSA-N

>  <FORMULA>  (6229) 
C14H22O2Si

>  <EXACT MASS>  (6229) 
250.138906474

>  <MW>  (6229) 
250

>  <ID>  (6229) 
JP001910

>  <CONTRIBUTOR>  (6229) 
University of Tokyo Team, {Faculty of Engineering, University of Tokyo

>  <COMMENT>  (6229) 
SMILES=CCCCc(c1)ccc(c1)C(=O)O[Si](C)(C)C
InChI=InChI=1S/C14H22O2Si/c1-5-6-7-12-8-10-13(11-9-12)14(15)16-17(2,3)4/h8-11H,5-7H2,1-4H3
computed SMILES=O=C(O[Si](C)(C)C)C1=CC=C(C=C1)CCCC
accession=JP001910
date=2016.01.19 (Created 2008.10.21, modified 2011.05.06)
author=KOGA M, UNIV. OF OCCUPATIONAL AND ENVIRONMENTAL HEALTH
license=CC BY-NC-SA
exact mass=250.13891
ionization energy=70 eV
ion type=[M]+*
computed spectral entropy=2.676427676818213
computed normalized entropy=0.8120631528898911
SPLASH=splash10-01pc-7960000000-71d82bd795ea9c7553da
submitter=submitter = University of Tokyo Team (Faculty of Engineering, University of Tokyo)
MoNA Rating=3.75

>  <NUM PEAKS>  (6229) 
27

>  <MASS SPECTRAL PEAKS>  (6229) 
45 34.8
47 11.6
51 6
55 0.73
65 8.9
73 27.4
75 12.3
77 2.19
78 5.4
89 9.6
90 27.1
91 4.51
92 6
103 7.3
105 6
118 1.61
133 7
148 6.1
161 77.6
162 0.96
191 61.6
192 14.4
193 13
235 99.99
236 19.7
237 6.1
250 7

$$$$

     RDKit          2D

 15 14  0  0  0  0  0  0  0  0999 V2000
   -1.2353    2.0858    0.0000 C   0  0  0  0  0  0  0  0  0  0  0  0
    0.2647    4.6839    0.0000 C   0  0  0  0  0  0  0  0  0  0  0  0
   -1.7844    4.1349    0.0000 C   0  0  0  0  0  0  0  0  0  0  0  0
    8.0589    2.0858    0.0000 C   0  0  0  0  0  0  0  0  0  0  0  0
    8.6079    4.1349    0.0000 C   0  0  0  0  0  0  0  0  0  0  0  0
    6.5589    4.6839    0.0000 C   0  0  0  0  0  0  0  0  0  0  0  0
    3.4118    2.6349    0.0000 C   0  0  0  0  0  0  0  0  0  0  0  0
    2.1127    3.3849    0.0000 C   0  0  0  0  0  0  0  0  0  0  0  0
    4.7108    3.3849    0.0000 C   0  0  0  0  0  0  0  0  0  0  0  0
    2.1127    4.8849    0.0000 O   0  0  0  0  0  0  0  0  0  0  0  0
    4.7108    4.8849    0.0000 O   0  0  0  0  0  0  0  0  0  0  0  0
    0.8137    2.6349    0.0000 O   0  0  0  0  0  0  0  0  0  0  0  0
    6.0099    2.6349    0.0000 O   0  0  0  0  0  0  0  0  0  0  0  0
   -0.4853    3.3849    0.0000 Si  0  0  0  0  0  4  0  0  0  0  0  0
    7.3089    3.3849    0.0000 Si  0  0  0  0  0  4  0  0  0  0  0  0
  8  7  1  0
  9  7  1  0
 10  8  2  0
 11  9  2  0
 12  8  1  0
 13  9  1  0
 14  1  1  0
 14  2  1  0
 14  3  1  0
 14 12  1  0
 15  4  1  0
 15  5  1  0
 15  6  1  0
 15 13  1  0
M  END
>  <NAME>  (6230) 
PROPANEDIOIC ACID BIS(TRIMETHYLSILYL) ESTER

>  <SYNONYMS>  (6230) 
BIS(TRIMETHYLSILYL) MALONATE

>  <SPECTRUM TYPE>  (6230) 
MS1

>  <INSTRUMENT TYPE>  (6230) 
EI-B

>  <INSTRUMENT>  (6230) 
JEOL JMS-01-SG

>  <ION MODE>  (6230) 
P

>  <INCHIKEY>  (6230) 
ATCKJLDGNXGLAO-UHFFFAOYSA-N

>  <FORMULA>  (6230) 
C9H20O4Si2

>  <EXACT MASS>  (6230) 
248.09001218

>  <MW>  (6230) 
248

>  <ID>  (6230) 
JP001909

>  <CONTRIBUTOR>  (6230) 
University of Tokyo Team, {Faculty of Engineering, University of Tokyo

>  <COMMENT>  (6230) 
SMILES=O=C(CC(=O)O[Si](C)(C)C)O[Si](C)(C)C
InChI=InChI=1S/C9H20O4Si2/c1-14(2,3)12-8(10)7-9(11)13-15(4,5)6/h7H2,1-6H3
computed SMILES=O=C(O[Si](C)(C)C)CC(=O)O[Si](C)(C)C
accession=JP001909
date=2016.01.19 (Created 2008.10.21, modified 2011.05.06)
author=KOGA M, UNIV. OF OCCUPATIONAL AND ENVIRONMENTAL HEALTH
license=CC BY-NC-SA
exact mass=248.09001
ionization energy=70 eV
ion type=[M]+*
computed spectral entropy=1.8975312846977386
computed normalized entropy=0.7397928848683686
SPLASH=splash10-00dj-9800000000-3cee22cf8fd191bedf2c
submitter=submitter = University of Tokyo Team (Faculty of Engineering, University of Tokyo)
MoNA Rating=3.75

>  <NUM PEAKS>  (6230) 
13

>  <MASS SPECTRAL PEAKS>  (6230) 
44 10.9
45 14.5
73 98.1
74 1
75 39.5
130 26.3
147 99.99
148 1.54
149 8.6
174 18.1
202 14
217 0.31
233 3.6

$$$$

     RDKit          2D

 16 15  0  0  0  0  0  0  0  0999 V2000
  -10.3053    6.5993    0.0000 C   0  0  0  0  0  0  0  0  0  0  0  0
   -9.0062    4.3493    0.0000 C   0  0  0  0  0  0  0  0  0  0  0  0
    3.4351    5.3002    0.0000 C   0  0  0  0  0  0  0  0  0  0  0  0
    3.9841    7.3493    0.0000 C   0  0  0  0  0  0  0  0  0  0  0  0
    1.9351    7.8983    0.0000 C   0  0  0  0  0  0  0  0  0  0  0  0
   -5.1091    6.5993    0.0000 C   0  0  0  0  0  0  0  0  0  0  0  0
   -3.8101    5.8493    0.0000 C   0  0  0  0  0  0  0  0  0  0  0  0
   -6.4082    5.8493    0.0000 C   0  0  0  0  0  0  0  0  0  0  0  0
   -2.5111    6.5993    0.0000 C   0  0  0  0  0  0  0  0  0  0  0  0
   -7.7072    6.5993    0.0000 C   0  0  0  0  0  0  0  0  0  0  0  0
   -1.2120    5.8493    0.0000 C   0  0  0  0  0  0  0  0  0  0  0  0
   -9.0062    5.8493    0.0000 C   0  0  0  0  0  0  0  0  0  0  0  0
    0.0870    6.5993    0.0000 C   0  0  0  0  0  0  0  0  0  0  0  0
    0.0870    8.0993    0.0000 O   0  0  0  0  0  0  0  0  0  0  0  0
    1.3861    5.8493    0.0000 O   0  0  0  0  0  0  0  0  0  0  0  0
    2.6851    6.5993    0.0000 Si  0  0  0  0  0  4  0  0  0  0  0  0
  7  6  1  0
  8  6  1  0
  9  7  1  0
 10  8  1  0
 11  9  1  0
 12  1  1  0
 12  2  1  0
 12 10  1  0
 13 11  1  0
 14 13  2  0
 15 13  1  0
 16  3  1  0
 16  4  1  0
 16  5  1  0
 16 15  1  0
M  END
>  <NAME>  (6231) 
8-METHYLNONANOIC ACID TRIMETHYLSILYL ESTER

>  <SYNONYMS>  (6231) 


>  <SPECTRUM TYPE>  (6231) 
MS1

>  <INSTRUMENT TYPE>  (6231) 
EI-B

>  <INSTRUMENT>  (6231) 
JEOL JMS-01-SG

>  <ION MODE>  (6231) 
P

>  <INCHIKEY>  (6231) 
RPEGLTSXQCBJRY-UHFFFAOYSA-N

>  <FORMULA>  (6231) 
C13H28O2Si

>  <EXACT MASS>  (6231) 
244.185856666

>  <MW>  (6231) 
244

>  <ID>  (6231) 
JP001908

>  <CONTRIBUTOR>  (6231) 
University of Tokyo Team, {Faculty of Engineering, University of Tokyo

>  <COMMENT>  (6231) 
SMILES=CC(C)CCCCCCC(=O)O[Si](C)(C)C
InChI=InChI=1S/C13H28O2Si/c1-12(2)10-8-6-7-9-11-13(14)15-16(3,4)5/h12H,6-11H2,1-5H3
computed SMILES=O=C(O[Si](C)(C)C)CCCCCCC(C)C
accession=JP001908
date=2016.01.19 (Created 2008.10.21, modified 2011.05.06)
author=KOGA M, UNIV. OF OCCUPATIONAL AND ENVIRONMENTAL HEALTH
license=CC BY-NC-SA
exact mass=244.18586
ionization energy=70 eV
ion type=[M]+*
computed spectral entropy=2.783402705126768
computed normalized entropy=0.8031202558966627
SPLASH=splash10-00b9-9440000000-f462a4b55dbc93e9f19d
submitter=submitter = University of Tokyo Team (Faculty of Engineering, University of Tokyo)
MoNA Rating=3.75

>  <NUM PEAKS>  (6231) 
32

>  <MASS SPECTRAL PEAKS>  (6231) 
43 26.5
45 12.1
47 5.9
55 1.08
56 5.5
58 5.3
61 5.1
69 1.14
71 5.1
73 99.99
74 8.9
75 8.12
76 6.1
77 11.9
81 11.4
83 0.61
95 6.3
97 5.3
116 4.8
117 7.63
118 8.2
129 31.2
130 4.6
131 2.08
132 22.9
133 5.3
145 17.2
185 0.51
201 8.7
229 79.3
230 14.4
231 4.8

$$$$

     RDKit          2D

 16 16  0  0  0  0  0  0  0  0999 V2000
    3.2476   -3.7504    0.0000 C   0  0  0  0  0  0  0  0  0  0  0  0
    3.9978    2.4515    0.0000 C   0  0  0  0  0  0  0  0  0  0  0  0
    4.5465    4.5006    0.0000 C   0  0  0  0  0  0  0  0  0  0  0  0
    2.4974    5.0493    0.0000 C   0  0  0  0  0  0  0  0  0  0  0  0
    1.9487   -3.0002    0.0000 C   0  0  0  0  0  0  0  0  0  0  0  0
   -1.9500    0.7500    0.0000 C   0  0  0  0  0  0  0  0  0  0  0  0
   -1.9500   -0.7500    0.0000 C   0  0  0  0  0  0  0  0  0  0  0  0
   -0.6500    1.5000    0.0000 C   0  0  0  0  0  0  0  0  0  0  0  0
   -0.6500   -1.5000    0.0000 C   0  0  0  0  0  0  0  0  0  0  0  0
    0.6500    0.7500    0.0000 C   0  0  0  0  0  0  0  0  0  0  0  0
    0.6500   -0.7500    0.0000 C   0  0  0  0  0  0  0  0  0  0  0  0
    1.9489    1.5002    0.0000 C   0  0  0  0  0  0  0  0  0  0  0  0
    3.2481    0.7504    0.0000 O   0  0  0  0  0  0  0  0  0  0  0  0
    1.9489   -1.5002    0.0000 O   0  0  0  0  0  0  0  0  0  0  0  0
    1.9487    3.0002    0.0000 O   0  0  0  0  0  0  0  0  0  0  0  0
    3.2476    3.7504    0.0000 Si  0  0  0  0  0  4  0  0  0  0  0  0
  5  1  1  0
  7  6  2  0
  8  6  1  0
  9  7  1  0
 10  8  2  0
 11  9  2  0
 11 10  1  0
 12 10  1  0
 13 12  2  0
 14  5  1  0
 14 11  1  0
 15 12  1  0
 16  2  1  0
 16  3  1  0
 16  4  1  0
 16 15  1  0
M  END
>  <NAME>  (6232) 
2-ETHOXYBENZOIC ACID TRIMETHYLSILYL ESTER

>  <SYNONYMS>  (6232) 


>  <SPECTRUM TYPE>  (6232) 
MS1

>  <INSTRUMENT TYPE>  (6232) 
EI-B

>  <INSTRUMENT>  (6232) 
JEOL JMS-01-SG

>  <ION MODE>  (6232) 
P

>  <INCHIKEY>  (6232) 
LPNQWYXWIIDKLT-UHFFFAOYSA-N

>  <FORMULA>  (6232) 
C12H18O3Si

>  <EXACT MASS>  (6232) 
238.102520966

>  <MW>  (6232) 
238

>  <ID>  (6232) 
JP001907

>  <CONTRIBUTOR>  (6232) 
University of Tokyo Team, {Faculty of Engineering, University of Tokyo

>  <COMMENT>  (6232) 
SMILES=CCOc(c1)c(ccc1)C(=O)O[Si](C)(C)C
InChI=InChI=1S/C12H18O3Si/c1-5-14-11-9-7-6-8-10(11)12(13)15-16(2,3)4/h6-9H,5H2,1-4H3
computed SMILES=O=C(O[Si](C)(C)C)C=1C=CC=CC1OCC
accession=JP001907
date=2016.01.19 (Created 2008.10.21, modified 2011.05.06)
author=KOGA M, UNIV. OF OCCUPATIONAL AND ENVIRONMENTAL HEALTH
license=CC BY-NC-SA
exact mass=238.10252
ionization energy=70 eV
ion type=[M]+*
computed spectral entropy=3.1555161186376965
computed normalized entropy=0.8738819865132178
SPLASH=splash10-009t-2900000000-4484158df784b8be5ae2
submitter=submitter = University of Tokyo Team (Faculty of Engineering, University of Tokyo)
MoNA Rating=3.75

>  <NUM PEAKS>  (6232) 
37

>  <MASS SPECTRAL PEAKS>  (6232) 
43 7.9
45 24.7
51 8.5
63 0.91
64 13.7
65 30.5
73 41.8
75 5.16
76 10
77 20.4
91 22.9
92 2.69
93 26.2
105 51
120 69.1
121 6.33
133 96
134 11.3
135 63.3
136 0.88
148 64.2
149 20.4
151 71.2
152 1.03
153 20.7
163 17.7
177 65.7
178 0.82
179 60.5
180 11.6
193 7.9
195 99.99
196 15.5
220 7.6
223 45.2
224 0.82
238 16.5

$$$$

     RDKit          2D

 16 16  0  0  0  0  0  0  0  0999 V2000
   -2.0353    5.8943    0.0000 C   0  0  0  0  0  0  0  0  0  0  0  0
   -5.3834    4.1934    0.0000 C   0  0  0  0  0  0  0  0  0  0  0  0
   -5.9324    2.1443    0.0000 C   0  0  0  0  0  0  0  0  0  0  0  0
   -3.8834    1.5953    0.0000 C   0  0  0  0  0  0  0  0  0  0  0  0
   -0.7363    5.1443    0.0000 C   0  0  0  0  0  0  0  0  0  0  0  0
    3.1608    1.3943    0.0000 C   0  0  0  0  0  0  0  0  0  0  0  0
    3.1613    2.8952    0.0000 C   0  0  0  0  0  0  0  0  0  0  0  0
    1.8613    0.6435    0.0000 C   0  0  0  0  0  0  0  0  0  0  0  0
    1.8623    3.6452    0.0000 C   0  0  0  0  0  0  0  0  0  0  0  0
    0.5623    1.3935    0.0000 C   0  0  0  0  0  0  0  0  0  0  0  0
    0.5627    2.8943    0.0000 C   0  0  0  0  0  0  0  0  0  0  0  0
   -0.7363    3.6443    0.0000 C   0  0  0  0  0  0  0  0  0  0  0  0
   -2.0353    2.8943    0.0000 C   0  0  0  0  0  0  0  0  0  0  0  0
   -2.0353    1.3943    0.0000 O   0  0  0  0  0  0  0  0  0  0  0  0
   -3.3344    3.6443    0.0000 O   0  0  0  0  0  0  0  0  0  0  0  0
   -4.6334    2.8943    0.0000 Si  0  0  0  0  0  4  0  0  0  0  0  0
  5  1  1  0
  7  6  2  0
  8  6  1  0
  9  7  1  0
 10  8  2  0
 11  9  2  0
 11 10  1  0
 12  5  1  0
 12 11  1  0
 13 12  1  0
 14 13  2  0
 15 13  1  0
 16  2  1  0
 16  3  1  0
 16  4  1  0
 16 15  1  0
M  END
>  <NAME>  (6233) 
ALPHA-ETHYL-ALPHA-PHENYLACETIC ACID TRIMETHYLSILYL ESTER

>  <SYNONYMS>  (6233) 


>  <SPECTRUM TYPE>  (6233) 
MS1

>  <INSTRUMENT TYPE>  (6233) 
EI-B

>  <INSTRUMENT>  (6233) 
JEOL JMS-01-SG

>  <ION MODE>  (6233) 
P

>  <INCHIKEY>  (6233) 
VYKUZPWIVBWKQA-UHFFFAOYSA-N

>  <FORMULA>  (6233) 
C13H20O2Si

>  <EXACT MASS>  (6233) 
236.12325641

>  <MW>  (6233) 
236

>  <ID>  (6233) 
JP001905

>  <CONTRIBUTOR>  (6233) 
University of Tokyo Team, {Faculty of Engineering, University of Tokyo

>  <COMMENT>  (6233) 
SMILES=CCC(c(c1)cccc1)C(=O)O[Si](C)(C)C
InChI=InChI=1S/C13H20O2Si/c1-5-12(11-9-7-6-8-10-11)13(14)15-16(2,3)4/h6-10,12H,5H2,1-4H3
computed SMILES=O=C(O[Si](C)(C)C)C(C=1C=CC=CC1)CC
accession=JP001905
date=2016.01.19 (Created 2008.10.21, modified 2011.05.06)
author=KOGA M, UNIV. OF OCCUPATIONAL AND ENVIRONMENTAL HEALTH
license=CC BY-NC-SA
exact mass=236.12326
ionization energy=70 eV
ion type=[M]+*
computed spectral entropy=2.404750888330594
computed normalized entropy=0.747077867916529
SPLASH=splash10-00vl-9500000000-e420e57c1e37a418a5da
submitter=submitter = University of Tokyo Team (Faculty of Engineering, University of Tokyo)
MoNA Rating=3.75

>  <NUM PEAKS>  (6233) 
25

>  <MASS SPECTRAL PEAKS>  (6233) 
43 4.3
44 4.3
45 25
47 1.25
51 5
61 4.3
73 91.8
74 3.68
75 87.5
76 5
77 36.2
78 0.43
89 4.3
90 5
91 38.7
115 0.5
117 23.1
118 99.99
119 7.5
147 0.31
148 5
192 39.3
193 5
221 3.56
222 4.3

$$$$

     RDKit          2D

 16 16  0  0  0  0  0  0  0  0999 V2000
   -2.5989   -1.5002    0.0000 C   0  0  0  0  0  0  0  0  0  0  0  0
    8.5453    0.2021    0.0000 C   0  0  0  0  0  0  0  0  0  0  0  0
    9.0940    2.2512    0.0000 C   0  0  0  0  0  0  0  0  0  0  0  0
    7.0449    2.8000    0.0000 C   0  0  0  0  0  0  0  0  0  0  0  0
   -1.3000    0.7500    0.0000 C   0  0  0  0  0  0  0  0  0  0  0  0
    0.0000   -1.5000    0.0000 C   0  0  0  0  0  0  0  0  0  0  0  0
    0.0000    1.5000    0.0000 C   0  0  0  0  0  0  0  0  0  0  0  0
    1.3000   -0.7500    0.0000 C   0  0  0  0  0  0  0  0  0  0  0  0
    2.5989    1.5002    0.0000 C   0  0  0  0  0  0  0  0  0  0  0  0
    3.8981    0.7504    0.0000 C   0  0  0  0  0  0  0  0  0  0  0  0
   -1.3000   -0.7500    0.0000 C   0  0  0  0  0  0  0  0  0  0  0  0
    1.3000    0.7500    0.0000 C   0  0  0  0  0  0  0  0  0  0  0  0
    5.1970    1.5006    0.0000 C   0  0  0  0  0  0  0  0  0  0  0  0
    5.1968    3.0006    0.0000 O   0  0  0  0  0  0  0  0  0  0  0  0
    6.4962    0.7508    0.0000 O   0  0  0  0  0  0  0  0  0  0  0  0
    7.7951    1.5010    0.0000 Si  0  0  0  0  0  4  0  0  0  0  0  0
  7  5  2  0
  8  6  1  0
  9 10  2  0
 11  1  1  0
 11  5  1  0
 11  6  2  0
 12  7  1  0
 12  8  2  0
 12  9  1  0
 13 10  1  0
 14 13  2  0
 15 13  1  0
 16  2  1  0
 16  3  1  0
 16  4  1  0
 16 15  1  0
M  END
>  <NAME>  (6234) 
PARA-METHYLCINNAMIC ACID TRIMETHYLSILYL ESTER

>  <SYNONYMS>  (6234) 


>  <SPECTRUM TYPE>  (6234) 
MS1

>  <INSTRUMENT TYPE>  (6234) 
EI-B

>  <INSTRUMENT>  (6234) 
JEOL JMS-01-SG

>  <ION MODE>  (6234) 
P

>  <INCHIKEY>  (6234) 
FXVQMFXMBNRJBF-MDZDMXLPSA-N

>  <FORMULA>  (6234) 
C13H18O2Si

>  <EXACT MASS>  (6234) 
234.107606346

>  <MW>  (6234) 
234

>  <ID>  (6234) 
JP001904

>  <CONTRIBUTOR>  (6234) 
University of Tokyo Team, {Faculty of Engineering, University of Tokyo

>  <COMMENT>  (6234) 
SMILES=Cc(c1)ccc(c1)C=CC(=O)O[Si](C)(C)C
InChI=InChI=1S/C13H18O2Si/c1-11-5-7-12(8-6-11)9-10-13(14)15-16(2,3)4/h5-10H,1-4H3/b10-9+
computed SMILES=O=C(O[Si](C)(C)C)C=CC1=CC=C(C=C1)C
accession=JP001904
date=2016.01.19 (Created 2008.10.21, modified 2011.05.06)
author=KOGA M, UNIV. OF OCCUPATIONAL AND ENVIRONMENTAL HEALTH
license=CC BY-NC-SA
exact mass=234.10761
ionization energy=70 eV
ion type=[M]+*
computed spectral entropy=2.3480027355625435
computed normalized entropy=0.8123531961409701
SPLASH=splash10-016s-1950000000-6808e4bd4ae4891486cd
submitter=submitter = University of Tokyo Team (Faculty of Engineering, University of Tokyo)
MoNA Rating=3.75

>  <NUM PEAKS>  (6234) 
18

>  <MASS SPECTRAL PEAKS>  (6234) 
45 7.5
47 8.1
73 15.1
75 4.06
77 9.3
91 15.1
105 7.5
115 4.12
117 27.9
145 98.2
146 6.9
149 1.91
159 24.4
175 80.8
176 14.5
219 99.99
220 18
234 32.5

$$$$

     RDKit          2D

 15 15  0  0  0  0  0  0  0  0999 V2000
   -4.4962    5.4556    0.0000 C   0  0  0  0  0  0  0  0  0  0  0  0
   -6.5452    4.9066    0.0000 C   0  0  0  0  0  0  0  0  0  0  0  0
   -5.9962    2.8576    0.0000 C   0  0  0  0  0  0  0  0  0  0  0  0
    3.8471    1.9066    0.0000 C   0  0  0  0  0  0  0  0  0  0  0  0
    3.8476    3.4074    0.0000 C   0  0  0  0  0  0  0  0  0  0  0  0
    2.5476    1.1558    0.0000 C   0  0  0  0  0  0  0  0  0  0  0  0
    2.5486    4.1574    0.0000 C   0  0  0  0  0  0  0  0  0  0  0  0
    1.2486    1.9058    0.0000 C   0  0  0  0  0  0  0  0  0  0  0  0
   -0.0500    4.1566    0.0000 C   0  0  0  0  0  0  0  0  0  0  0  0
   -1.3490    3.4066    0.0000 C   0  0  0  0  0  0  0  0  0  0  0  0
    1.2490    3.4066    0.0000 C   0  0  0  0  0  0  0  0  0  0  0  0
   -2.6481    4.1566    0.0000 C   0  0  0  0  0  0  0  0  0  0  0  0
   -2.6481    5.6566    0.0000 O   0  0  0  0  0  0  0  0  0  0  0  0
   -3.9471    3.4066    0.0000 O   0  0  0  0  0  0  0  0  0  0  0  0
   -5.2462    4.1566    0.0000 Si  0  0  0  0  0  4  0  0  0  0  0  0
  5  4  1  0
  6  4  1  0
  7  5  1  0
  8  6  1  0
 10  9  1  0
 11  7  1  0
 11  8  1  0
 11  9  1  0
 12 10  1  0
 13 12  2  0
 14 12  1  0
 15  1  1  0
 15  2  1  0
 15  3  1  0
 15 14  1  0
M  END
>  <NAME>  (6235) 
CYCLOHEXANEPROPIONIC ACID TRIMETHYLSILYL ESTER

>  <SYNONYMS>  (6235) 


>  <SPECTRUM TYPE>  (6235) 
MS1

>  <INSTRUMENT TYPE>  (6235) 
EI-B

>  <INSTRUMENT>  (6235) 
JEOL JMS-01-SG

>  <ION MODE>  (6235) 
P

>  <INCHIKEY>  (6235) 
VCAHYVCSQNXYQP-UHFFFAOYSA-N

>  <FORMULA>  (6235) 
C12H24O2Si

>  <EXACT MASS>  (6235) 
228.154556538

>  <MW>  (6235) 
228

>  <ID>  (6235) 
JP001902

>  <CONTRIBUTOR>  (6235) 
University of Tokyo Team, {Faculty of Engineering, University of Tokyo

>  <COMMENT>  (6235) 
SMILES=O=C(CCC(C1)CCCC1)O[Si](C)(C)C
InChI=InChI=1S/C12H24O2Si/c1-15(2,3)14-12(13)10-9-11-7-5-4-6-8-11/h11H,4-10H2,1-3H3
computed SMILES=O=C(O[Si](C)(C)C)CCC1CCCCC1
accession=JP001902
date=2016.01.19 (Created 2008.10.21, modified 2011.05.06)
author=KOGA M, UNIV. OF OCCUPATIONAL AND ENVIRONMENTAL HEALTH
license=CC BY-NC-SA
exact mass=228.15456
ionization energy=70 eV
ion type=[M]+*
computed spectral entropy=2.5713924156337984
computed normalized entropy=0.7988479691474542
SPLASH=splash10-0101-9300000000-f3dd09f9ab4c0abbefee
submitter=submitter = University of Tokyo Team (Faculty of Engineering, University of Tokyo)
MoNA Rating=3.75

>  <NUM PEAKS>  (6235) 
25

>  <MASS SPECTRAL PEAKS>  (6235) 
43 14.9
45 39.2
47 7.1
55 3.15
56 6.5
61 8.7
67 14.1
72 0.57
73 93.9
74 12.1
75 99.99
76 0.74
77 11.4
79 11
81 5.9
93 0.89
95 10.5
117 51.8
121 8.6
129 2.71
131 21.6
132 14.8
145 30.1
213 2.82
214 5.4

$$$$

     RDKit          2D

 15 15  0  0  0  0  0  0  0  0999 V2000
    6.7382   -0.3518    0.0000 C   0  0  0  0  0  0  0  0  0  0  0  0
   -1.6058    3.2103    0.0000 C   0  0  0  0  0  0  0  0  0  0  0  0
   -3.6575    2.6713    0.0000 C   0  0  0  0  0  0  0  0  0  0  0  0
   -3.1186    0.6196    0.0000 C   0  0  0  0  0  0  0  0  0  0  0  0
    2.8302    1.8958    0.0000 C   0  0  0  0  0  0  0  0  0  0  0  0
    1.5167   -0.3291    0.0000 C   0  0  0  0  0  0  0  0  0  0  0  0
    4.1148    1.1709    0.0000 C   0  0  0  0  0  0  0  0  0  0  0  0
    2.8412   -1.1232    0.0000 C   0  0  0  0  0  0  0  0  0  0  0  0
    1.5312    1.1458    0.0000 C   0  0  0  0  0  0  0  0  0  0  0  0
    4.1402   -0.3732    0.0000 C   0  0  0  0  0  0  0  0  0  0  0  0
    0.2359    1.9021    0.0000 C   0  0  0  0  0  0  0  0  0  0  0  0
    0.2433    3.4021    0.0000 O   0  0  0  0  0  0  0  0  0  0  0  0
    5.4454   -1.1125    0.0000 O   0  0  0  0  0  0  0  0  0  0  0  0
   -1.0668    1.1585    0.0000 O   0  0  0  0  0  0  0  0  0  0  0  0
   -2.3622    1.9149    0.0000 Si  0  0  0  0  0  4  0  0  0  0  0  0
  7  5  2  0
  8  6  1  0
  9  5  1  0
  9  6  2  0
 10  7  1  0
 10  8  2  0
 11  9  1  0
 12 11  2  0
 13  1  1  0
 13 10  1  0
 14 11  1  0
 15  2  1  0
 15  3  1  0
 15  4  1  0
 15 14  1  0
M  END
>  <NAME>  (6236) 
4-METHOXYBENZOIC ACID TRIMETHYLSILYL ESTER

>  <SYNONYMS>  (6236) 


>  <SPECTRUM TYPE>  (6236) 
MS1

>  <INSTRUMENT TYPE>  (6236) 
EI-B

>  <INSTRUMENT>  (6236) 
Unknown

>  <ION MODE>  (6236) 
P

>  <INCHIKEY>  (6236) 
AYGQUFGXOJWAHD-UHFFFAOYSA-N

>  <FORMULA>  (6236) 
C11H16O3Si

>  <EXACT MASS>  (6236) 
224.086870902

>  <MW>  (6236) 
224

>  <ID>  (6236) 
JP001901

>  <CONTRIBUTOR>  (6236) 
University of Tokyo Team, {Faculty of Engineering, University of Tokyo

>  <COMMENT>  (6236) 
SMILES=COc(c1)ccc(c1)C(=O)O[Si](C)(C)C
InChI=InChI=1S/C11H16O3Si/c1-13-10-7-5-9(6-8-10)11(12)14-15(2,3)4/h5-8H,1-4H3
computed SMILES=O=C(O[Si](C)(C)C)C1=CC=C(OC)C=C1
accession=JP001901
date=2016.01.19 (Created 2008.10.21, modified 2011.05.06)
author=KOGA M, UNIV. OF OCCUPATIONAL AND ENVIRONMENTAL HEALTH
license=CC BY-NC-SA
exact mass=224.08687
ionization energy=70 eV
ion type=[M]+*
computed spectral entropy=1.9846442625410845
computed normalized entropy=0.7004923461569386
SPLASH=splash10-0670-1930000000-840a4c674599245ffd92
submitter=submitter = University of Tokyo Team (Faculty of Engineering, University of Tokyo)
MoNA Rating=3.75

>  <NUM PEAKS>  (6236) 
17

>  <MASS SPECTRAL PEAKS>  (6236) 
64 6.4
73 4.6
75 7.1
77 1.72
92 14.8
104 4
107 12.2
135 99.99
136 8.4
165 90.6
166 12.8
167 0.4
209 80.4
210 11.9
211 3.7
224 1.45
225 2.3

$$$$

     RDKit          2D

 15 15  0  0  0  0  0  0  0  0999 V2000
    4.4586    3.6002    0.0000 C   0  0  0  0  0  0  0  0  0  0  0  0
   -1.2873    2.6490    0.0000 C   0  0  0  0  0  0  0  0  0  0  0  0
   -3.3362    2.0996    0.0000 C   0  0  0  0  0  0  0  0  0  0  0  0
   -2.7869    0.0507    0.0000 C   0  0  0  0  0  0  0  0  0  0  0  0
    3.1602   -1.6512    0.0000 C   0  0  0  0  0  0  0  0  0  0  0  0
    4.4592   -0.9012    0.0000 C   0  0  0  0  0  0  0  0  0  0  0  0
    1.8606   -0.9004    0.0000 C   0  0  0  0  0  0  0  0  0  0  0  0
    4.4587    0.5996    0.0000 C   0  0  0  0  0  0  0  0  0  0  0  0
    1.8602    0.6004    0.0000 C   0  0  0  0  0  0  0  0  0  0  0  0
    3.1592    1.3504    0.0000 C   0  0  0  0  0  0  0  0  0  0  0  0
    0.5610    1.3502    0.0000 C   0  0  0  0  0  0  0  0  0  0  0  0
    0.5608    2.8502    0.0000 O   0  0  0  0  0  0  0  0  0  0  0  0
    3.1594    2.8504    0.0000 O   0  0  0  0  0  0  0  0  0  0  0  0
   -0.7379    0.6000    0.0000 O   0  0  0  0  0  0  0  0  0  0  0  0
   -2.0371    1.3498    0.0000 Si  0  0  0  0  0  4  0  0  0  0  0  0
  6  5  2  0
  7  5  1  0
  8  6  1  0
  9  7  2  0
 10  8  2  0
 10  9  1  0
 11  9  1  0
 12 11  2  0
 13  1  1  0
 13 10  1  0
 14 11  1  0
 15  2  1  0
 15  3  1  0
 15  4  1  0
 15 14  1  0
M  END
>  <NAME>  (6237) 
2-METHOXYBENZOIC ACID TRIMETHYLSILYL ESTER

>  <SYNONYMS>  (6237) 


>  <SPECTRUM TYPE>  (6237) 
MS1

>  <INSTRUMENT TYPE>  (6237) 
EI-B

>  <INSTRUMENT>  (6237) 
JEOL JMS-01-SG

>  <ION MODE>  (6237) 
P

>  <INCHIKEY>  (6237) 
LWBFIZBQVRDUMY-UHFFFAOYSA-N

>  <FORMULA>  (6237) 
C11H16O3Si

>  <EXACT MASS>  (6237) 
224.086870902

>  <MW>  (6237) 
224

>  <ID>  (6237) 
JP001900

>  <CONTRIBUTOR>  (6237) 
University of Tokyo Team, {Faculty of Engineering, University of Tokyo

>  <COMMENT>  (6237) 
SMILES=COc(c1)c(ccc1)C(=O)O[Si](C)(C)C
InChI=InChI=1S/C11H16O3Si/c1-13-10-8-6-5-7-9(10)11(12)14-15(2,3)4/h5-8H,1-4H3
computed SMILES=O=C(O[Si](C)(C)C)C=1C=CC=CC1OC
accession=JP001900
date=2016.01.19 (Created 2008.10.21, modified 2011.05.06)
author=KOGA M, UNIV. OF OCCUPATIONAL AND ENVIRONMENTAL HEALTH
license=CC BY-NC-SA
exact mass=224.08687
ionization energy=70 eV
ion type=[M]+*
computed spectral entropy=2.9237865824771405
computed normalized entropy=0.8158981807242235
SPLASH=splash10-057i-9830000000-7c5c591325987a581d23
submitter=submitter = University of Tokyo Team (Faculty of Engineering, University of Tokyo)
MoNA Rating=3.75

>  <NUM PEAKS>  (6237) 
36

>  <MASS SPECTRAL PEAKS>  (6237) 
43 5.4
44 4.8
45 22.7
47 1.51
49 3.7
51 5.4
59 8.6
63 0.54
64 11.8
73 26.4
75 29.7
76 0.48
77 99.99
78 9.7
79 9.1
91 2.27
92 34
104 10.2
105 25.9
106 0.54
120 3.7
133 4.3
134 92.9
135 3.18
136 41
137 5.4
147 14.5
149 1.29
150 5.4
165 31.3
179 23.2
194 1.24
209 76.2
210 10.8
224 23.7
225 3.7

$$$$

     RDKit          2D

 15 15  0  0  0  0  0  0  0  0999 V2000
   -2.5989   -1.5002    0.0000 C   0  0  0  0  0  0  0  0  0  0  0  0
    2.5989    1.5002    0.0000 C   0  0  0  0  0  0  0  0  0  0  0  0
    4.4468   -2.7995    0.0000 C   0  0  0  0  0  0  0  0  0  0  0  0
    6.4959   -2.2508    0.0000 C   0  0  0  0  0  0  0  0  0  0  0  0
    5.9472   -0.2017    0.0000 C   0  0  0  0  0  0  0  0  0  0  0  0
   -1.3000    0.7500    0.0000 C   0  0  0  0  0  0  0  0  0  0  0  0
    0.0000    1.5000    0.0000 C   0  0  0  0  0  0  0  0  0  0  0  0
    0.0000   -1.5000    0.0000 C   0  0  0  0  0  0  0  0  0  0  0  0
   -1.3000   -0.7500    0.0000 C   0  0  0  0  0  0  0  0  0  0  0  0
    1.3000    0.7500    0.0000 C   0  0  0  0  0  0  0  0  0  0  0  0
    1.3000   -0.7500    0.0000 C   0  0  0  0  0  0  0  0  0  0  0  0
    2.5989   -1.5002    0.0000 C   0  0  0  0  0  0  0  0  0  0  0  0
    2.5987   -3.0002    0.0000 O   0  0  0  0  0  0  0  0  0  0  0  0
    3.8981   -0.7504    0.0000 O   0  0  0  0  0  0  0  0  0  0  0  0
    5.1970   -1.5006    0.0000 Si  0  0  0  0  0  4  0  0  0  0  0  0
  7  6  2  0
  9  1  1  0
  9  6  1  0
  9  8  2  0
 10  2  1  0
 10  7  1  0
 11  8  1  0
 11 10  2  0
 12 11  1  0
 13 12  2  0
 14 12  1  0
 15  3  1  0
 15  4  1  0
 15  5  1  0
 15 14  1  0
M  END
>  <NAME>  (6238) 
2,5-DIMETHYLBENZOIC ACID TRIMETHYLSILYL ESTER

>  <SYNONYMS>  (6238) 


>  <SPECTRUM TYPE>  (6238) 
MS1

>  <INSTRUMENT TYPE>  (6238) 
EI-B

>  <INSTRUMENT>  (6238) 
JEOL JMS-01-SG

>  <ION MODE>  (6238) 
P

>  <INCHIKEY>  (6238) 
DDDBDWYEBRVNBB-UHFFFAOYSA-N

>  <FORMULA>  (6238) 
C12H18O2Si

>  <EXACT MASS>  (6238) 
222.107606346

>  <MW>  (6238) 
222

>  <ID>  (6238) 
JP001899

>  <CONTRIBUTOR>  (6238) 
University of Tokyo Team, {Faculty of Engineering, University of Tokyo

>  <COMMENT>  (6238) 
SMILES=Cc(c1)cc(c(C)c1)C(=O)O[Si](C)(C)C
InChI=InChI=1S/C12H18O2Si/c1-9-6-7-10(2)11(8-9)12(13)14-15(3,4)5/h6-8H,1-5H3
computed SMILES=O=C(O[Si](C)(C)C)C1=CC(=CC=C1C)C
accession=JP001899
date=2016.01.19 (Created 2008.10.21, modified 2011.05.06)
author=KOGA M, UNIV. OF OCCUPATIONAL AND ENVIRONMENTAL HEALTH
license=CC BY-NC-SA
exact mass=222.10761
ionization energy=70 eV
ion type=[M]+*
computed spectral entropy=2.100866676548343
computed normalized entropy=0.7757857205502557
SPLASH=splash10-001i-2930000000-fbb84a0894282bff8f5a
submitter=submitter = University of Tokyo Team (Faculty of Engineering, University of Tokyo)
MoNA Rating=3.75

>  <NUM PEAKS>  (6238) 
15

>  <MASS SPECTRAL PEAKS>  (6238) 
73 11.7
75 4.9
77 23.5
79 1.27
96 11.7
103 10.7
104 14.7
105 2.84
132 55.8
133 99.99
134 4.9
163 3.72
207 62.7
208 4.9
222 15.6

$$$$

     RDKit          2D

 15 15  0  0  0  0  0  0  0  0999 V2000
   -4.4962    5.4556    0.0000 C   0  0  0  0  0  0  0  0  0  0  0  0
   -6.5452    4.9066    0.0000 C   0  0  0  0  0  0  0  0  0  0  0  0
   -5.9962    2.8576    0.0000 C   0  0  0  0  0  0  0  0  0  0  0  0
    3.8471    1.9066    0.0000 C   0  0  0  0  0  0  0  0  0  0  0  0
    3.8476    3.4074    0.0000 C   0  0  0  0  0  0  0  0  0  0  0  0
    2.5476    1.1558    0.0000 C   0  0  0  0  0  0  0  0  0  0  0  0
    2.5486    4.1574    0.0000 C   0  0  0  0  0  0  0  0  0  0  0  0
    1.2486    1.9058    0.0000 C   0  0  0  0  0  0  0  0  0  0  0  0
   -0.0500    4.1566    0.0000 C   0  0  0  0  0  0  0  0  0  0  0  0
   -1.3490    3.4066    0.0000 C   0  0  0  0  0  0  0  0  0  0  0  0
    1.2490    3.4066    0.0000 C   0  0  0  0  0  0  0  0  0  0  0  0
   -2.6481    4.1566    0.0000 C   0  0  0  0  0  0  0  0  0  0  0  0
   -2.6481    5.6566    0.0000 O   0  0  0  0  0  0  0  0  0  0  0  0
   -3.9471    3.4066    0.0000 O   0  0  0  0  0  0  0  0  0  0  0  0
   -5.2462    4.1566    0.0000 Si  0  0  0  0  0  4  0  0  0  0  0  0
  5  4  2  0
  6  4  1  0
  7  5  1  0
  8  6  2  0
 10  9  1  0
 11  7  2  0
 11  8  1  0
 11  9  1  0
 12 10  1  0
 13 12  2  0
 14 12  1  0
 15  1  1  0
 15  2  1  0
 15  3  1  0
 15 14  1  0
M  END
>  <NAME>  (6239) 
BETA-PHENYLPROPIONIC ACID TRIMETHYLSILYL ESTER

>  <SYNONYMS>  (6239) 


>  <SPECTRUM TYPE>  (6239) 
MS1

>  <INSTRUMENT TYPE>  (6239) 
EI-B

>  <INSTRUMENT>  (6239) 
JEOL JMS-01-SG

>  <ION MODE>  (6239) 
P

>  <INCHIKEY>  (6239) 
GRONVOGSDOJOMG-UHFFFAOYSA-N

>  <FORMULA>  (6239) 
C12H18O2Si

>  <EXACT MASS>  (6239) 
222.107606346

>  <MW>  (6239) 
222

>  <ID>  (6239) 
JP001898

>  <CONTRIBUTOR>  (6239) 
University of Tokyo Team, {Faculty of Engineering, University of Tokyo

>  <COMMENT>  (6239) 
SMILES=O=C(CCc(c1)cccc1)O[Si](C)(C)C
InChI=InChI=1S/C12H18O2Si/c1-15(2,3)14-12(13)10-9-11-7-5-4-6-8-11/h4-8H,9-10H2,1-3H3
computed SMILES=O=C(O[Si](C)(C)C)CCC=1C=CC=CC1
accession=JP001898
date=2016.01.19 (Created 2008.10.21, modified 2011.05.06)
author=KOGA M, UNIV. OF OCCUPATIONAL AND ENVIRONMENTAL HEALTH
license=CC BY-NC-SA
exact mass=222.10761
ionization energy=70 eV
ion type=[M]+*
computed spectral entropy=2.263836090210078
computed normalized entropy=0.8578199741269421
SPLASH=splash10-004j-9000000000-2dd07490f3ed7d63d1bf
submitter=submitter = University of Tokyo Team (Faculty of Engineering, University of Tokyo)
MoNA Rating=3.75

>  <NUM PEAKS>  (6239) 
14

>  <MASS SPECTRAL PEAKS>  (6239) 
44 16.5
45 60.9
47 42.1
51 0.22
65 18
73 50.3
75 99.99
77 3.15
78 17.2
85 15.7
91 31.5
104 6.99
105 17.2
207 20.3

$$$$

     RDKit          2D

 15 15  0  0  0  0  0  0  0  0999 V2000
   -2.5989   -1.5002    0.0000 C   0  0  0  0  0  0  0  0  0  0  0  0
    5.7464   -0.5483    0.0000 C   0  0  0  0  0  0  0  0  0  0  0  0
    7.7953    0.0010    0.0000 C   0  0  0  0  0  0  0  0  0  0  0  0
    7.2459    2.0500    0.0000 C   0  0  0  0  0  0  0  0  0  0  0  0
   -1.3000    0.7500    0.0000 C   0  0  0  0  0  0  0  0  0  0  0  0
    0.0000   -1.5000    0.0000 C   0  0  0  0  0  0  0  0  0  0  0  0
    0.0000    1.5000    0.0000 C   0  0  0  0  0  0  0  0  0  0  0  0
    1.3000   -0.7500    0.0000 C   0  0  0  0  0  0  0  0  0  0  0  0
    2.5989    1.5002    0.0000 C   0  0  0  0  0  0  0  0  0  0  0  0
   -1.3000   -0.7500    0.0000 C   0  0  0  0  0  0  0  0  0  0  0  0
    1.3000    0.7500    0.0000 C   0  0  0  0  0  0  0  0  0  0  0  0
    3.8981    0.7504    0.0000 C   0  0  0  0  0  0  0  0  0  0  0  0
    3.8983   -0.7496    0.0000 O   0  0  0  0  0  0  0  0  0  0  0  0
    5.1970    1.5006    0.0000 O   0  0  0  0  0  0  0  0  0  0  0  0
    6.4962    0.7508    0.0000 Si  0  0  0  0  0  4  0  0  0  0  0  0
  7  5  2  0
  8  6  1  0
 10  1  1  0
 10  5  1  0
 10  6  2  0
 11  7  1  0
 11  8  2  0
 11  9  1  0
 12  9  1  0
 13 12  2  0
 14 12  1  0
 15  2  1  0
 15  3  1  0
 15  4  1  0
 15 14  1  0
M  END
>  <NAME>  (6240) 
PARA-TOLYLACETIC ACID TRIMETHYLSILYL ESTER

>  <SYNONYMS>  (6240) 


>  <SPECTRUM TYPE>  (6240) 
MS1

>  <INSTRUMENT TYPE>  (6240) 
EI-B

>  <INSTRUMENT>  (6240) 
JEOL JMS-01-SG

>  <ION MODE>  (6240) 
P

>  <INCHIKEY>  (6240) 
LXJDXPPJXKOURQ-UHFFFAOYSA-N

>  <FORMULA>  (6240) 
C12H18O2Si

>  <EXACT MASS>  (6240) 
222.107606346

>  <MW>  (6240) 
222

>  <ID>  (6240) 
JP001897

>  <CONTRIBUTOR>  (6240) 
University of Tokyo Team, {Faculty of Engineering, University of Tokyo

>  <COMMENT>  (6240) 
SMILES=Cc(c1)ccc(c1)CC(=O)O[Si](C)(C)C
InChI=InChI=1S/C12H18O2Si/c1-10-5-7-11(8-6-10)9-12(13)14-15(2,3)4/h5-8H,9H2,1-4H3
computed SMILES=O=C(O[Si](C)(C)C)CC1=CC=C(C=C1)C
accession=JP001897
date=2016.01.19 (Created 2008.10.21, modified 2011.05.06)
author=KOGA M, UNIV. OF OCCUPATIONAL AND ENVIRONMENTAL HEALTH
license=CC BY-NC-SA
exact mass=222.10761
ionization energy=70 eV
ion type=[M]+*
computed spectral entropy=1.8149065743765185
computed normalized entropy=0.654589178632445
SPLASH=splash10-00di-9100000000-75dc4d1fbc46b5e88f82
submitter=submitter = University of Tokyo Team (Faculty of Engineering, University of Tokyo)
MoNA Rating=3.75

>  <NUM PEAKS>  (6240) 
16

>  <MASS SPECTRAL PEAKS>  (6240) 
43 3.9
45 18
73 99.99
74 0.79
75 23.1
77 10.9
78 3.1
79 0.31
103 3.1
104 2.7
105 5.8
151 0.39
178 10.9
179 4.7
207 7
222 2.7

$$$$

     RDKit          2D

 15 15  0  0  0  0  0  0  0  0999 V2000
   -0.7363    5.1443    0.0000 C   0  0  0  0  0  0  0  0  0  0  0  0
   -5.3834    4.1934    0.0000 C   0  0  0  0  0  0  0  0  0  0  0  0
   -5.9324    2.1443    0.0000 C   0  0  0  0  0  0  0  0  0  0  0  0
   -3.8834    1.5953    0.0000 C   0  0  0  0  0  0  0  0  0  0  0  0
    3.1608    1.3943    0.0000 C   0  0  0  0  0  0  0  0  0  0  0  0
    3.1613    2.8952    0.0000 C   0  0  0  0  0  0  0  0  0  0  0  0
    1.8613    0.6435    0.0000 C   0  0  0  0  0  0  0  0  0  0  0  0
    1.8623    3.6452    0.0000 C   0  0  0  0  0  0  0  0  0  0  0  0
    0.5623    1.3935    0.0000 C   0  0  0  0  0  0  0  0  0  0  0  0
   -0.7363    3.6443    0.0000 C   0  0  0  0  0  0  0  0  0  0  0  0
    0.5627    2.8943    0.0000 C   0  0  0  0  0  0  0  0  0  0  0  0
   -2.0353    2.8943    0.0000 C   0  0  0  0  0  0  0  0  0  0  0  0
   -2.0353    1.3943    0.0000 O   0  0  0  0  0  0  0  0  0  0  0  0
   -3.3344    3.6443    0.0000 O   0  0  0  0  0  0  0  0  0  0  0  0
   -4.6334    2.8943    0.0000 Si  0  0  0  0  0  4  0  0  0  0  0  0
  6  5  2  0
  7  5  1  0
  8  6  1  0
  9  7  2  0
 10  1  1  0
 11  8  2  0
 11  9  1  0
 11 10  1  0
 12 10  1  0
 13 12  2  0
 14 12  1  0
 15  2  1  0
 15  3  1  0
 15  4  1  0
 15 14  1  0
M  END
>  <NAME>  (6241) 
DL-ALPHA-PHENYLPROPIONIC ACID TRIMETHYLSILYL ESTER

>  <SYNONYMS>  (6241) 


>  <SPECTRUM TYPE>  (6241) 
MS1

>  <INSTRUMENT TYPE>  (6241) 
EI-B

>  <INSTRUMENT>  (6241) 
JEOL JMS-01-SG

>  <ION MODE>  (6241) 
P

>  <INCHIKEY>  (6241) 
OMYJQVPBIWDUAO-UHFFFAOYSA-N

>  <FORMULA>  (6241) 
C12H18O2Si

>  <EXACT MASS>  (6241) 
222.107606346

>  <MW>  (6241) 
222

>  <ID>  (6241) 
JP001896

>  <CONTRIBUTOR>  (6241) 
University of Tokyo Team, {Faculty of Engineering, University of Tokyo

>  <COMMENT>  (6241) 
SMILES=c(c1)ccc(c1)C(C)C(=O)O[Si](C)(C)C
InChI=InChI=1S/C12H18O2Si/c1-10(11-8-6-5-7-9-11)12(13)14-15(2,3)4/h5-10H,1-4H3
computed SMILES=O=C(O[Si](C)(C)C)C(C=1C=CC=CC1)C
accession=JP001896
date=2016.01.19 (Created 2008.10.21, modified 2011.05.06)
author=KOGA M, UNIV. OF OCCUPATIONAL AND ENVIRONMENTAL HEALTH
license=CC BY-NC-SA
exact mass=222.10761
ionization energy=70 eV
ion type=[M]+*
computed spectral entropy=1.8111902025598512
computed normalized entropy=0.6266288056586102
SPLASH=splash10-00di-9100000000-71ff7a6f623ea87de317
submitter=submitter = University of Tokyo Team (Faculty of Engineering, University of Tokyo)
MoNA Rating=3.75

>  <NUM PEAKS>  (6241) 
18

>  <MASS SPECTRAL PEAKS>  (6241) 
44 3.5
45 5.9
47 1.8
51 0.16
73 99.99
74 9.4
75 24.3
77 1.11
79 3.5
103 3.5
104 3.5
105 0.68
117 1.6
147 4.7
178 17.2
179 0.23
207 13.4
208 1.6

$$$$

     RDKit          2D

 15 15  0  0  0  0  0  0  0  0999 V2000
    5.9472    0.2017    0.0000 C   0  0  0  0  0  0  0  0  0  0  0  0
    6.4959    2.2508    0.0000 C   0  0  0  0  0  0  0  0  0  0  0  0
    4.4468    2.7995    0.0000 C   0  0  0  0  0  0  0  0  0  0  0  0
   -1.3000    0.7500    0.0000 C   0  0  0  0  0  0  0  0  0  0  0  0
   -0.0000   -1.5000    0.0000 C   0  0  0  0  0  0  0  0  0  0  0  0
    0.0000    1.5000    0.0000 C   0  0  0  0  0  0  0  0  0  0  0  0
    1.3000   -0.7500    0.0000 C   0  0  0  0  0  0  0  0  0  0  0  0
   -2.5989   -1.5002    0.0000 C   0  0  0  0  0  0  0  0  0  0  0  0
   -1.3000   -0.7500    0.0000 C   0  0  0  0  0  0  0  0  0  0  0  0
    1.3000    0.7500    0.0000 C   0  0  0  0  0  0  0  0  0  0  0  0
    2.5989    1.5002    0.0000 C   0  0  0  0  0  0  0  0  0  0  0  0
   -3.8981   -0.7504    0.0000 O   0  0  0  0  0  0  0  0  0  0  0  0
    2.5987    3.0002    0.0000 O   0  0  0  0  0  0  0  0  0  0  0  0
    3.8981    0.7504    0.0000 O   0  0  0  0  0  0  0  0  0  0  0  0
    5.1970    1.5006    0.0000 Si  0  0  0  0  0  4  0  0  0  0  0  0
  6  4  2  0
  7  5  1  0
  9  4  1  0
  9  5  2  0
  9  8  1  0
 10  6  1  0
 10  7  2  0
 11 10  1  0
 12  8  2  0
 13 11  2  0
 14 11  1  0
 15  1  1  0
 15  2  1  0
 15  3  1  0
 15 14  1  0
M  END
>  <NAME>  (6242) 
BENZALDEHYDE-4-CARBOXYLIC ACID TRIMETHYLSILYL ESTER

>  <SYNONYMS>  (6242) 
TRIMETHYLSILYL 4-FORMYLBENZOATE

>  <SPECTRUM TYPE>  (6242) 
MS1

>  <INSTRUMENT TYPE>  (6242) 
EI-B

>  <INSTRUMENT>  (6242) 
JEOL JMS-01-SG

>  <ION MODE>  (6242) 
P

>  <INCHIKEY>  (6242) 
LLLSJLOFPKECPD-UHFFFAOYSA-N

>  <FORMULA>  (6242) 
C11H14O3Si

>  <EXACT MASS>  (6242) 
222.071220838

>  <MW>  (6242) 
222

>  <ID>  (6242) 
JP001895

>  <CONTRIBUTOR>  (6242) 
University of Tokyo Team, {Faculty of Engineering, University of Tokyo

>  <COMMENT>  (6242) 
SMILES=O=Cc(c1)ccc(c1)C(=O)O[Si](C)(C)C
InChI=InChI=1S/C11H14O3Si/c1-15(2,3)14-11(13)10-6-4-9(8-12)5-7-10/h4-8H,1-3H3
computed SMILES=O=CC1=CC=C(C=C1)C(=O)O[Si](C)(C)C
accession=JP001895
date=2016.01.19 (Created 2008.10.21, modified 2011.05.06)
author=KOGA M, UNIV. OF OCCUPATIONAL AND ENVIRONMENTAL HEALTH
license=CC BY-NC-SA
exact mass=222.07122
ionization energy=70 eV
ion type=[M]+*
computed spectral entropy=2.4148536943652847
computed normalized entropy=0.781242487220331
SPLASH=splash10-0bu0-4940000000-3657816e0cd51fefff4f
submitter=submitter = University of Tokyo Team (Faculty of Engineering, University of Tokyo)
MoNA Rating=3.75

>  <NUM PEAKS>  (6242) 
22

>  <MASS SPECTRAL PEAKS>  (6242) 
45 9
47 7
50 9
51 2.1
73 20
74 5.5
75 16.5
76 1.4
77 35
89 10
103 14
104 0.8
105 35
133 96.5
134 10.5
135 0.5
163 68
164 10
207 99.99
208 1.75
209 6
222 10

$$$$

     RDKit          2D

 15 15  0  0  0  0  0  0  0  0999 V2000
   -4.4962    5.4556    0.0000 C   0  0  0  0  0  0  0  0  0  0  0  0
   -6.5452    4.9066    0.0000 C   0  0  0  0  0  0  0  0  0  0  0  0
   -5.9962    2.8576    0.0000 C   0  0  0  0  0  0  0  0  0  0  0  0
    3.8471    1.9066    0.0000 C   0  0  0  0  0  0  0  0  0  0  0  0
    3.8476    3.4074    0.0000 C   0  0  0  0  0  0  0  0  0  0  0  0
    2.5476    1.1558    0.0000 C   0  0  0  0  0  0  0  0  0  0  0  0
    2.5486    4.1574    0.0000 C   0  0  0  0  0  0  0  0  0  0  0  0
    1.2486    1.9058    0.0000 C   0  0  0  0  0  0  0  0  0  0  0  0
   -0.0500    4.1566    0.0000 C   0  0  0  0  0  0  0  0  0  0  0  0
   -1.3490    3.4066    0.0000 C   0  0  0  0  0  0  0  0  0  0  0  0
    1.2490    3.4066    0.0000 C   0  0  0  0  0  0  0  0  0  0  0  0
   -2.6481    4.1566    0.0000 C   0  0  0  0  0  0  0  0  0  0  0  0
   -2.6481    5.6566    0.0000 O   0  0  0  0  0  0  0  0  0  0  0  0
   -3.9471    3.4066    0.0000 O   0  0  0  0  0  0  0  0  0  0  0  0
   -5.2462    4.1566    0.0000 Si  0  0  0  0  0  4  0  0  0  0  0  0
  5  4  2  0
  6  4  1  0
  7  5  1  0
  8  6  2  0
  9 10  2  0
 11  7  2  0
 11  8  1  0
 11  9  1  0
 12 10  1  0
 13 12  2  0
 14 12  1  0
 15  1  1  0
 15  2  1  0
 15  3  1  0
 15 14  1  0
M  END
>  <NAME>  (6243) 
3-PHENYL-2-PROPENOIC ACID TRIMETHYLSILYL ESTER

>  <SYNONYMS>  (6243) 
CINNAMIC ACID TRIMETHYLSILYL ESTER

>  <SPECTRUM TYPE>  (6243) 
MS1

>  <INSTRUMENT TYPE>  (6243) 
EI-B

>  <INSTRUMENT>  (6243) 
JEOL JMS-01-SG

>  <ION MODE>  (6243) 
P

>  <INCHIKEY>  (6243) 
HEVXLPBSUCJVAQ-MDZDMXLPSA-N

>  <FORMULA>  (6243) 
C12H16O2Si

>  <EXACT MASS>  (6243) 
220.091956282

>  <MW>  (6243) 
220

>  <ID>  (6243) 
JP001894

>  <CONTRIBUTOR>  (6243) 
University of Tokyo Team, {Faculty of Engineering, University of Tokyo

>  <COMMENT>  (6243) 
SMILES=O=C(C=Cc(c1)cccc1)O[Si](C)(C)C
InChI=InChI=1S/C12H16O2Si/c1-15(2,3)14-12(13)10-9-11-7-5-4-6-8-11/h4-10H,1-3H3/b10-9+
computed SMILES=O=C(O[Si](C)(C)C)C=CC=1C=CC=CC1
accession=JP001894
date=2016.01.19 (Created 2008.10.21, modified 2011.05.06)
author=KOGA M, UNIV. OF OCCUPATIONAL AND ENVIRONMENTAL HEALTH
license=CC BY-NC-SA
exact mass=220.09196
ionization energy=70 eV
ion type=[M]+*
computed spectral entropy=2.4579215635223135
computed normalized entropy=0.8347673634649891
SPLASH=splash10-0m30-5940000000-42c6242e404ddf2a790d
submitter=submitter = University of Tokyo Team (Faculty of Engineering, University of Tokyo)
MoNA Rating=3.75

>  <NUM PEAKS>  (6243) 
19

>  <MASS SPECTRAL PEAKS>  (6243) 
43 21.2
45 22.1
51 8.8
73 1.5
75 53
76 7
77 51.3
102 0.88
103 56.6
131 98.2
132 7.9
135 2.12
145 23.8
161 85.8
162 13.2
205 99.99
206 15.9
207 6.1
220 22.1

$$$$

     RDKit          2D

 14 14  0  0  0  0  0  0  0  0999 V2000
   -5.3834    4.1934    0.0000 C   0  0  0  0  0  0  0  0  0  0  0  0
   -5.9324    2.1443    0.0000 C   0  0  0  0  0  0  0  0  0  0  0  0
   -3.8834    1.5953    0.0000 C   0  0  0  0  0  0  0  0  0  0  0  0
    3.1608    1.3943    0.0000 C   0  0  0  0  0  0  0  0  0  0  0  0
    3.1613    2.8952    0.0000 C   0  0  0  0  0  0  0  0  0  0  0  0
    1.8613    0.6435    0.0000 C   0  0  0  0  0  0  0  0  0  0  0  0
    1.8623    3.6452    0.0000 C   0  0  0  0  0  0  0  0  0  0  0  0
    0.5623    1.3935    0.0000 C   0  0  0  0  0  0  0  0  0  0  0  0
   -0.7363    3.6443    0.0000 C   0  0  0  0  0  0  0  0  0  0  0  0
    0.5627    2.8943    0.0000 C   0  0  0  0  0  0  0  0  0  0  0  0
   -2.0353    2.8943    0.0000 C   0  0  0  0  0  0  0  0  0  0  0  0
   -2.0353    1.3943    0.0000 O   0  0  0  0  0  0  0  0  0  0  0  0
   -3.3344    3.6443    0.0000 O   0  0  0  0  0  0  0  0  0  0  0  0
   -4.6334    2.8943    0.0000 Si  0  0  0  0  0  4  0  0  0  0  0  0
  5  4  1  0
  6  4  1  0
  7  5  1  0
  8  6  1  0
 10  7  1  0
 10  8  1  0
 10  9  1  0
 11  9  1  0
 12 11  2  0
 13 11  1  0
 14  1  1  0
 14  2  1  0
 14  3  1  0
 14 13  1  0
M  END
>  <NAME>  (6244) 
CYCLOHEXYLACETIC ACID TRIMETHYLSILYL ESTER

>  <SYNONYMS>  (6244) 


>  <SPECTRUM TYPE>  (6244) 
MS1

>  <INSTRUMENT TYPE>  (6244) 
EI-B

>  <INSTRUMENT>  (6244) 
JEOL JMS-01-SG

>  <ION MODE>  (6244) 
P

>  <INCHIKEY>  (6244) 
YKJZHLWHFWFOOE-UHFFFAOYSA-N

>  <FORMULA>  (6244) 
C11H22O2Si

>  <EXACT MASS>  (6244) 
214.138906474

>  <MW>  (6244) 
214

>  <ID>  (6244) 
JP001893

>  <CONTRIBUTOR>  (6244) 
University of Tokyo Team, {Faculty of Engineering, University of Tokyo

>  <COMMENT>  (6244) 
SMILES=O=C(CC(C1)CCCC1)O[Si](C)(C)C
InChI=InChI=1S/C11H22O2Si/c1-14(2,3)13-11(12)9-10-7-5-4-6-8-10/h10H,4-9H2,1-3H3
computed SMILES=O=C(O[Si](C)(C)C)CC1CCCCC1
accession=JP001893
date=2016.01.19 (Created 2008.10.21, modified 2011.05.06)
author=KOGA M, UNIV. OF OCCUPATIONAL AND ENVIRONMENTAL HEALTH
license=CC BY-NC-SA
exact mass=214.13891
ionization energy=70 eV
ion type=[M]+*
computed spectral entropy=2.606466781376729
computed normalized entropy=0.7663379947984542
SPLASH=splash10-014i-6900000000-1f48680799597aa413b2
submitter=submitter = University of Tokyo Team (Faculty of Engineering, University of Tokyo)
MoNA Rating=3.75

>  <NUM PEAKS>  (6244) 
30

>  <MASS SPECTRAL PEAKS>  (6244) 
43 5.2
44 4.9
45 9.8
47 0.8
55 12.1
59 4.3
61 4.6
67 0.43
72 5.4
73 45.3
74 6
75 7.02
76 5.7
77 15.8
79 9.8
81 0.6
83 2
107 4.3
116 4.6
117 99.99
118 9.5
119 4.9
131 7.8
132 3.41
133 8.3
147 1.7
148 2
155 0.2
199 36.4
200 6.3

$$$$

     RDKit          2D

 13 13  0  0  0  0  0  0  0  0999 V2000
   -1.2226    4.5396    0.0000 C   0  0  0  0  0  0  0  0  0  0  0  0
   -2.1704    2.6418    0.0000 C   0  0  0  0  0  0  0  0  0  0  0  0
   -0.2726    1.6940    0.0000 C   0  0  0  0  0  0  0  0  0  0  0  0
    5.5895   -0.0207    0.0000 C   0  0  0  0  0  0  0  0  0  0  0  0
    6.5606    1.1173    0.0000 C   0  0  0  0  0  0  0  0  0  0  0  0
    4.2001    0.5859    0.0000 C   0  0  0  0  0  0  0  0  0  0  0  0
    5.7983    2.3977    0.0000 C   0  0  0  0  0  0  0  0  0  0  0  0
    3.2208    3.0721    0.0000 C   0  0  0  0  0  0  0  0  0  0  0  0
    4.3435    2.0774    0.0000 C   0  0  0  0  0  0  0  0  0  0  0  0
    1.7980    2.5971    0.0000 C   0  0  0  0  0  0  0  0  0  0  0  0
    1.4979    1.1274    0.0000 O   0  0  0  0  0  0  0  0  0  0  0  0
    0.6752    3.5918    0.0000 O   0  0  0  0  0  0  0  0  0  0  0  0
   -0.7476    3.1168    0.0000 Si  0  0  0  0  0  4  0  0  0  0  0  0
  5  4  1  0
  6  4  1  0
  7  5  1  0
  9  6  1  0
  9  7  1  0
  9  8  1  0
 10  8  1  0
 11 10  2  0
 12 10  1  0
 13  1  1  0
 13  2  1  0
 13  3  1  0
 13 12  1  0
M  END
>  <NAME>  (6245) 
CYCLOPENTYLACETIC ACID TRIMETHYLSILYL ESTER

>  <SYNONYMS>  (6245) 


>  <SPECTRUM TYPE>  (6245) 
MS1

>  <INSTRUMENT TYPE>  (6245) 
EI-B

>  <INSTRUMENT>  (6245) 
JEOL JMS-01-SG

>  <ION MODE>  (6245) 
P

>  <INCHIKEY>  (6245) 
MPPGRILZFNBLIQ-UHFFFAOYSA-N

>  <FORMULA>  (6245) 
C10H20O2Si

>  <EXACT MASS>  (6245) 
200.12325641

>  <MW>  (6245) 
200

>  <ID>  (6245) 
JP001892

>  <CONTRIBUTOR>  (6245) 
University of Tokyo Team, {Faculty of Engineering, University of Tokyo

>  <COMMENT>  (6245) 
SMILES=O=C(CC(C1)CCC1)O[Si](C)(C)C
InChI=InChI=1S/C10H20O2Si/c1-13(2,3)12-10(11)8-9-6-4-5-7-9/h9H,4-8H2,1-3H3
computed SMILES=O=C(O[Si](C)(C)C)CC1CCCC1
accession=JP001892
date=2016.01.19 (Created 2008.10.21, modified 2011.05.06)
author=KOGA M, UNIV. OF OCCUPATIONAL AND ENVIRONMENTAL HEALTH
license=CC BY-NC-SA
exact mass=200.12326
ionization energy=70 eV
ion type=[M]+*
computed spectral entropy=2.139710169924967
computed normalized entropy=0.7717373127726078
SPLASH=splash10-00vr-9600000000-e54817d7f3770943d7a1
submitter=submitter = University of Tokyo Team (Faculty of Engineering, University of Tokyo)
MoNA Rating=3.75

>  <NUM PEAKS>  (6245) 
16

>  <MASS SPECTRAL PEAKS>  (6245) 
43 11.1
44 4.1
45 20.1
58 0.98
73 98.3
74 10.2
75 99.99
76 0.9
77 16.8
93 9.8
117 72.4
118 0.86
132 16.8
167 10.2
185 92.1
186 16

$$$$

     RDKit          2D

 13 13  0  0  0  0  0  0  0  0999 V2000
   -2.5476    4.3306    0.0000 C   0  0  0  0  0  0  0  0  0  0  0  0
   -4.5966    3.7816    0.0000 C   0  0  0  0  0  0  0  0  0  0  0  0
   -4.0476    1.7326    0.0000 C   0  0  0  0  0  0  0  0  0  0  0  0
    3.1976    0.7816    0.0000 C   0  0  0  0  0  0  0  0  0  0  0  0
    3.1981    2.2824    0.0000 C   0  0  0  0  0  0  0  0  0  0  0  0
    1.8981    0.0308    0.0000 C   0  0  0  0  0  0  0  0  0  0  0  0
    1.8990    3.0324    0.0000 C   0  0  0  0  0  0  0  0  0  0  0  0
    0.5990    0.7808    0.0000 C   0  0  0  0  0  0  0  0  0  0  0  0
    0.5995    2.2816    0.0000 C   0  0  0  0  0  0  0  0  0  0  0  0
   -0.6995    3.0316    0.0000 C   0  0  0  0  0  0  0  0  0  0  0  0
   -0.6995    4.5316    0.0000 O   0  0  0  0  0  0  0  0  0  0  0  0
   -1.9986    2.2816    0.0000 O   0  0  0  0  0  0  0  0  0  0  0  0
   -3.2976    3.0316    0.0000 Si  0  0  0  0  0  4  0  0  0  0  0  0
  5  4  1  0
  6  4  1  0
  7  5  1  0
  8  6  1  0
  9  7  1  0
  9  8  1  0
 10  9  1  0
 11 10  2  0
 12 10  1  0
 13  1  1  0
 13  2  1  0
 13  3  1  0
 13 12  1  0
M  END
>  <NAME>  (6246) 
CYCLOHEXANECARBOXYLIC ACID TRIMETHYLSILYLESTER

>  <SYNONYMS>  (6246) 


>  <SPECTRUM TYPE>  (6246) 
MS1

>  <INSTRUMENT TYPE>  (6246) 
EI-B

>  <INSTRUMENT>  (6246) 
JEOL JMS-01-SG

>  <ION MODE>  (6246) 
P

>  <INCHIKEY>  (6246) 
PYJUBHQOZUNCIC-UHFFFAOYSA-N

>  <FORMULA>  (6246) 
C10H20O2Si

>  <EXACT MASS>  (6246) 
200.12325640999998

>  <MW>  (6246) 
200

>  <ID>  (6246) 
JP001891

>  <CONTRIBUTOR>  (6246) 
University of Tokyo Team, {Faculty of Engineering, University of Tokyo

>  <COMMENT>  (6246) 
SMILES=C(C1)CCC(C1)C(=O)O[Si](C)(C)C
InChI=InChI=1S/C10H20O2Si/c1-13(2,3)12-10(11)9-7-5-4-6-8-9/h9H,4-8H2,1-3H3
computed SMILES=O=C(O[Si](C)(C)C)C1CCCCC1
accession=JP001891
date=2016.01.19 (Created 2008.10.21, modified 2011.05.06)
author=KOGA M, UNIV. OF OCCUPATIONAL AND ENVIRONMENTAL HEALTH
license=CC BY-NC-SA
exact mass=200.12326
ionization energy=70 eV
ion type=[M]+*
computed spectral entropy=1.719808273336416
computed normalized entropy=0.7172157570206894
SPLASH=splash10-00di-9100000000-20f75081ee87ca9e816a
submitter=submitter = University of Tokyo Team (Faculty of Engineering, University of Tokyo)
MoNA Rating=3.75

>  <NUM PEAKS>  (6246) 
11

>  <MASS SPECTRAL PEAKS>  (6246) 
45 23.1
55 8.4
57 6.2
58 0.64
73 99.99
74 7.9
75 41.3
77 0.57
117 6.9
185 24.9
186 5.9

$$$$

     RDKit          2D

 13 13  0  0  0  0  0  0  0  0999 V2000
   -2.5476    4.3306    0.0000 C   0  0  0  0  0  0  0  0  0  0  0  0
   -4.5966    3.7816    0.0000 C   0  0  0  0  0  0  0  0  0  0  0  0
   -4.0476    1.7326    0.0000 C   0  0  0  0  0  0  0  0  0  0  0  0
    3.1976    0.7816    0.0000 C   0  0  0  0  0  0  0  0  0  0  0  0
    3.1981    2.2824    0.0000 C   0  0  0  0  0  0  0  0  0  0  0  0
    1.8981    0.0308    0.0000 C   0  0  0  0  0  0  0  0  0  0  0  0
    1.8990    3.0324    0.0000 C   0  0  0  0  0  0  0  0  0  0  0  0
    0.5990    0.7808    0.0000 C   0  0  0  0  0  0  0  0  0  0  0  0
    0.5995    2.2816    0.0000 C   0  0  0  0  0  0  0  0  0  0  0  0
   -0.6995    3.0316    0.0000 C   0  0  0  0  0  0  0  0  0  0  0  0
   -0.6995    4.5316    0.0000 O   0  0  0  0  0  0  0  0  0  0  0  0
   -1.9986    2.2816    0.0000 O   0  0  0  0  0  0  0  0  0  0  0  0
   -3.2976    3.0316    0.0000 Si  0  0  0  0  0  4  0  0  0  0  0  0
  5  4  2  0
  6  4  1  0
  7  5  1  0
  8  6  1  0
  9  7  1  0
  9  8  1  0
 10  9  1  0
 11 10  2  0
 12 10  1  0
 13  1  1  0
 13  2  1  0
 13  3  1  0
 13 12  1  0
M  END
>  <NAME>  (6247) 
CYCLOHEXENE-4-CARBOXYLIC ACID TRIMETHYLSILYL ESTER

>  <SYNONYMS>  (6247) 


>  <SPECTRUM TYPE>  (6247) 
MS1

>  <INSTRUMENT TYPE>  (6247) 
EI-B

>  <INSTRUMENT>  (6247) 
JEOL JMS-01-SG

>  <ION MODE>  (6247) 
P

>  <INCHIKEY>  (6247) 
BFVIGVPKTFVFNX-UHFFFAOYSA-N

>  <FORMULA>  (6247) 
C10H18O2Si

>  <EXACT MASS>  (6247) 
198.107606346

>  <MW>  (6247) 
198

>  <ID>  (6247) 
JP001890

>  <CONTRIBUTOR>  (6247) 
University of Tokyo Team, {Faculty of Engineering, University of Tokyo

>  <COMMENT>  (6247) 
SMILES=C(C1)=CCC(C1)C(=O)O[Si](C)(C)C
InChI=InChI=1S/C10H18O2Si/c1-13(2,3)12-10(11)9-7-5-4-6-8-9/h4-5,9H,6-8H2,1-3H3
computed SMILES=O=C(O[Si](C)(C)C)C1CC=CCC1
accession=JP001890
date=2016.01.19 (Created 2008.10.21, modified 2011.05.06)
author=KOGA M, UNIV. OF OCCUPATIONAL AND ENVIRONMENTAL HEALTH
license=CC BY-NC-SA
exact mass=198.10761
ionization energy=70 eV
ion type=[M]+*
computed spectral entropy=2.4205455279609733
computed normalized entropy=0.6984218058870508
SPLASH=splash10-00di-9200000000-67c5ceb8c0082d44b131
submitter=submitter = University of Tokyo Team (Faculty of Engineering, University of Tokyo)
MoNA Rating=3.75

>  <NUM PEAKS>  (6247) 
32

>  <MASS SPECTRAL PEAKS>  (6247) 
44 2.7
45 9.8
47 4.5
51 0.17
53 2.9
55 2.1
57 3.2
58 0.32
59 4.3
61 2.7
66 1.6
72 0.16
73 99.99
74 9.8
75 37.3
76 0.23
77 8.2
78 1.7
79 11.7
80 4.66
81 5.8
107 1.6
108 7.6
117 0.68
129 9.6
131 1.7
147 1.4
154 0.45
158 1.6
183 20.5
184 3.6
198 3.2

$$$$

     RDKit          2D

 27 30  0  0  1  0  0  0  0  0999 V2000
    9.2324    7.1952    0.0000 C   0  0  0  0  0  0  0  0  0  0  0  0
    6.7615    7.9981    0.0000 C   0  0  0  0  0  0  0  0  0  0  0  0
    2.8999    4.5213    0.0000 C   0  0  0  0  0  0  0  0  0  0  0  0
   -1.8900    0.7600    0.0000 C   0  0  0  0  0  0  0  0  0  0  0  0
    2.1640    3.0021    0.0000 C   0  0  0  0  0  0  0  0  0  0  0  0
   -4.4900   -2.2400    0.0000 C   0  0  0  0  0  0  0  0  0  0  0  0
   -4.4900   -0.7400    0.0000 C   0  0  0  0  0  0  0  0  0  0  0  0
    5.8343    5.1450    0.0000 C   0  0  0  0  0  0  0  0  0  0  0  0
    7.3016    5.4568    0.0000 C   0  0  0  0  0  0  0  0  0  0  0  0
    5.3708    3.7184    0.0000 C   0  0  0  0  0  0  0  0  0  0  0  0
   -3.1900   -2.9900    0.0000 C   0  0  0  0  0  0  0  0  0  0  0  0
   -0.5900   -2.9900    0.0000 C   0  0  0  0  0  0  0  0  0  0  0  0
    0.7100   -2.2400    0.0000 C   0  0  0  0  0  0  0  0  0  0  0  0
    4.3200    0.7600    0.0000 C   0  0  0  0  0  0  0  0  0  0  0  0
    3.4400   -0.4500    0.0000 C   0  0  0  0  0  0  0  0  0  0  0  0
   -0.5900    1.5100    0.0000 C   0  0  0  0  0  0  0  0  0  0  0  0
   -3.1900    0.0100    0.0000 C   0  0  0  0  0  0  0  0  0  0  0  0
    0.7100    2.2600    0.0000 C   0  0  0  0  0  0  0  0  0  0  0  0
    7.7651    6.8834    0.0000 C   0  0  0  0  0  0  0  0  0  0  0  0
    3.9036    3.4066    0.0000 C   0  0  0  0  0  0  0  0  0  0  0  0
   -1.8900   -2.2400    0.0000 C   0  0  0  0  0  0  0  0  0  0  0  0
    0.7100   -0.7400    0.0000 C   0  0  0  0  0  0  0  0  0  0  0  0
    3.4400    1.9800    0.0000 C   0  0  0  0  0  0  0  0  0  0  0  0
    2.0100    0.0100    0.0000 C   0  0  0  0  0  0  0  0  0  0  0  0
   -0.5900    0.0100    0.0000 C   0  0  0  0  0  0  0  0  0  0  0  0
   -1.8900   -0.7400    0.0000 C   0  0  0  0  0  0  0  0  0  0  0  0
    2.0100    1.5100    0.0000 C   0  0  0  0  0  0  0  0  0  0  0  0
  7  6  1  0
  9  8  1  0
 10  8  1  0
 11  6  2  0
 13 12  1  0
 15 14  1  0
 17  7  1  0
 18 16  1  0
 19  1  1  0
 19  2  1  0
 19  9  1  0
 20  3  1  6
 20 10  1  0
 21 11  1  1
 21 12  1  0
 22 13  1  6
 23 14  1  1
 23 20  1  0
 24 15  1  1
 24 22  1  0
 25 16  1  1
 25 22  1  0
 26  4  1  1
 26 17  1  0
 26 21  1  0
 26 25  1  0
 27  5  1  1
 27 18  1  0
 27 23  1  0
 27 24  1  0
M  END
>  <NAME>  (6248) 
5ALPHA-CHOLEST-3-ENE

>  <SYNONYMS>  (6248) 
3-CHOLESTENE

>  <SPECTRUM TYPE>  (6248) 
MS1

>  <INSTRUMENT TYPE>  (6248) 
EI-B

>  <INSTRUMENT>  (6248) 
SHIMADZU LKB-9000B

>  <ION MODE>  (6248) 
P

>  <INCHIKEY>  (6248) 
SFBMPHLOQAKIBY-XWLABEFZSA-N

>  <FORMULA>  (6248) 
C27H46

>  <EXACT MASS>  (6248) 
370.359951472

>  <MW>  (6248) 
370

>  <ID>  (6248) 
JP001889

>  <CONTRIBUTOR>  (6248) 
University of Tokyo Team, {Faculty of Engineering, University of Tokyo

>  <COMMENT>  (6248) 
SMILES=C(C1)C=CC([H])(C4)C(C(C3([H])C4)([H])CCC(C3([H])2)(C)C([H])(CC2)C(CCCC(C)C)([H])C)(C)1
InChI=InChI=1S/C27H46/c1-19(2)9-8-10-20(3)23-14-15-24-22-13-12-21-11-6-7-17-26(21,4)25(22)16-18-27(23,24)5/h6,11,19-25H,7-10,12-18H2,1-5H3/t20-,21-,22+,23-,24+,25+,26+,27-/m1/s1
computed SMILES=C1=CC2CCC3C4CCC(C(C)CCCC(C)C)C4(C)CCC3C2(C)CC1
accession=JP001889
date=2016.01.19 (Created 2008.10.21, modified 2011.05.06)
author=SEYAMA Y, DEPT. OF PHYSIOL. CHEMISTRY AND NUTRITION, FAC. OF MEDICINE, UNIV. OF TOKYO
license=CC BY-NC-SA
exact mass=370.35995
ionization energy=70 eV
ion type=[M]+*
computed spectral entropy=4.546616302451826
computed normalized entropy=0.8443904673387788
SPLASH=splash10-05mo-9822000000-e0bad95790c46a6d8813
submitter=submitter = University of Tokyo Team (Faculty of Engineering, University of Tokyo)
MoNA Rating=3.75

>  <NUM PEAKS>  (6248) 
218

>  <MASS SPECTRAL PEAKS>  (6248) 
36 8
38 3.1
39 8.4
40 3.6
41 61.3
42 8.2
43 99.99
45 29.9
46 11.4
50 6.8
52 2.3
53 14.8
54 6.5
55 85.9
56 11.6
57 57
58 2.4
59 12.4
65 8
66 4.5
67 60.1
68 16.7
69 52
70 7.5
71 24.6
72 1.8
73 1
74 2.8
77 26
78 8.5
79 74.4
80 18.2
81 86.4
82 17.4
83 36.9
84 3.8
85 4.6
87 2
89 1.2
90 2.4
91 72.7
92 25.2
93 84.1
94 33.2
95 79.7
96 9.5
97 23.6
98 2.9
99 1.9
100 8.6
101 2.7
103 2.9
104 10.9
105 69
106 60.4
107 73.4
108 44.4
109 42.7
110 6.5
111 33.1
112 5.6
113 4.2
114 2.3
115 5.4
116 1
117 12.5
118 5.7
119 35.3
120 20.7
121 36.2
122 14.3
123 24.3
124 3.6
125 5
126 3.4
127 1.4
128 5.6
129 4
130 2.6
131 15
132 6.3
133 31.6
134 16.6
135 25.5
136 7.9
137 8.3
138 4.4
139 3.7
140 3
141 4.9
143 1.7
144 2.9
145 22.7
146 8.6
147 54.9
148 18.3
149 19.4
150 3.7
151 5.7
152 2.3
153 4.5
154 1.3
155 1.3
156 1
157 1.1
158 1.5
159 13.3
160 11.2
161 53.5
162 29.2
163 12.3
164 3
165 2.8
166 3
167 3.6
171 1.9
172 5
173 12.5
174 6.8
175 15.4
176 40.1
177 15.2
178 2.4
179 0.28
181 2.1
185 3.7
186 3.6
187 0.89
188 8.2
189 9.2
190 6.5
192 0.18
193 2.1
194 4.2
197 1.3
198 0.41
199 3.1
201 25
202 12.3
203 4.86
204 7.6
205 1
206 1.4
207 0.15
214 1.6
215 92.7
216 54.6
217 2.5
218 4
219 2.6
220 2.4
221 0.23
222 2.4
225 1.5
226 2.3
227 0.28
229 5.4
230 19
231 8
232 0.33
233 1
241 2.2
242 2.1
243 0.32
244 2.2
245 1.1
246 1.5
247 0.27
249 2.6
251 3
252 1.2
253 0.14
255 3.1
256 4.5
257 31.1
258 0.81
259 1.1
260 2.9
261 3
262 0.64
263 2
267 2.9
268 2.6
271 0.29
272 1.3
273 1
275 6.1
276 0.23
279 1.6
280 2
281 2.2
285 0.32
287 4.8
300 2.7
301 10.2
302 0.42
306 2.7
313 2.2
314 2.7
315 0.58
316 83.5
317 22.3
318 2.7
325 0.18
328 2.5
333 1.4
334 1.6
339 0.27
341 3.3
355 37.9
356 11.8
357 0.22
366 2.5
368 1.2
370 91.4
371 2.95
372 5
399 1.1

$$$$

     RDKit          2D

 27 30  0  0  1  0  0  0  0  0999 V2000
    9.2324    7.1952    0.0000 C   0  0  0  0  0  0  0  0  0  0  0  0
    6.7615    7.9981    0.0000 C   0  0  0  0  0  0  0  0  0  0  0  0
    2.8999    4.5213    0.0000 C   0  0  0  0  0  0  0  0  0  0  0  0
   -1.8900    0.7600    0.0000 C   0  0  0  0  0  0  0  0  0  0  0  0
    2.1640    3.0021    0.0000 C   0  0  0  0  0  0  0  0  0  0  0  0
   -4.4900   -2.2400    0.0000 C   0  0  0  0  0  0  0  0  0  0  0  0
   -4.4900   -0.7400    0.0000 C   0  0  0  0  0  0  0  0  0  0  0  0
    5.8343    5.1450    0.0000 C   0  0  0  0  0  0  0  0  0  0  0  0
    7.3016    5.4568    0.0000 C   0  0  0  0  0  0  0  0  0  0  0  0
    5.3708    3.7184    0.0000 C   0  0  0  0  0  0  0  0  0  0  0  0
   -3.1900   -2.9900    0.0000 C   0  0  0  0  0  0  0  0  0  0  0  0
   -0.5900   -2.9900    0.0000 C   0  0  0  0  0  0  0  0  0  0  0  0
    0.7100   -2.2400    0.0000 C   0  0  0  0  0  0  0  0  0  0  0  0
    4.3200    0.7600    0.0000 C   0  0  0  0  0  0  0  0  0  0  0  0
    3.4400   -0.4500    0.0000 C   0  0  0  0  0  0  0  0  0  0  0  0
   -0.5900    1.5100    0.0000 C   0  0  0  0  0  0  0  0  0  0  0  0
   -3.1900    0.0100    0.0000 C   0  0  0  0  0  0  0  0  0  0  0  0
    0.7100    2.2600    0.0000 C   0  0  0  0  0  0  0  0  0  0  0  0
    7.7651    6.8834    0.0000 C   0  0  0  0  0  0  0  0  0  0  0  0
    3.9036    3.4066    0.0000 C   0  0  0  0  0  0  0  0  0  0  0  0
   -1.8900   -2.2400    0.0000 C   0  0  0  0  0  0  0  0  0  0  0  0
    0.7100   -0.7400    0.0000 C   0  0  0  0  0  0  0  0  0  0  0  0
    3.4400    1.9800    0.0000 C   0  0  0  0  0  0  0  0  0  0  0  0
    2.0100    0.0100    0.0000 C   0  0  0  0  0  0  0  0  0  0  0  0
   -0.5900    0.0100    0.0000 C   0  0  0  0  0  0  0  0  0  0  0  0
   -1.8900   -0.7400    0.0000 C   0  0  0  0  0  0  0  0  0  0  0  0
    2.0100    1.5100    0.0000 C   0  0  0  0  0  0  0  0  0  0  0  0
  7  6  1  0
  9  8  1  0
 10  8  1  0
 11  6  2  0
 13 12  1  0
 15 14  1  0
 17  7  1  0
 18 16  1  0
 19  1  1  0
 19  2  1  0
 19  9  1  0
 20  3  1  6
 20 10  1  0
 21 11  1  0
 21 12  2  0
 22 13  1  6
 23 14  1  1
 23 20  1  0
 24 15  1  1
 24 22  1  0
 25 16  1  1
 25 22  1  0
 26  4  1  1
 26 17  1  0
 26 21  1  0
 26 25  1  0
 27  5  1  1
 27 18  1  0
 27 23  1  0
 27 24  1  0
M  END
>  <NAME>  (6249) 
CHOLEST-3,5-DIENE

>  <SYNONYMS>  (6249) 


>  <SPECTRUM TYPE>  (6249) 
MS1

>  <INSTRUMENT TYPE>  (6249) 
EI-B

>  <INSTRUMENT>  (6249) 
SHIMADZU LKB-9000B

>  <ION MODE>  (6249) 
P

>  <INCHIKEY>  (6249) 
RLHIRZFWJBOHHD-HKQCOZBKSA-N

>  <FORMULA>  (6249) 
C27H44

>  <EXACT MASS>  (6249) 
368.344301408

>  <MW>  (6249) 
368

>  <ID>  (6249) 
JP001888

>  <CONTRIBUTOR>  (6249) 
University of Tokyo Team, {Faculty of Engineering, University of Tokyo

>  <COMMENT>  (6249) 
SMILES=C(C3([H])4)(C)(C([H])(CC4)C(CCCC(C)C)([H])C)CCC(C3([H])1)([H])C(C)(C2)C(C=CC2)=CC1
InChI=InChI=1S/C27H44/c1-19(2)9-8-10-20(3)23-14-15-24-22-13-12-21-11-6-7-17-26(21,4)25(22)16-18-27(23,24)5/h6,11-12,19-20,22-25H,7-10,13-18H2,1-5H3/t20-,22+,23-,24+,25+,26+,27-/m1/s1
computed SMILES=C1=CCCC2(C1=CCC3C2CCC4(C)C(CCC34)C(C)CCCC(C)C)C
accession=JP001888
date=2016.01.19 (Created 2008.10.21, modified 2011.05.06)
author=SEYAMA Y, DEPT. OF PHYSIOL. CHEMISTRY AND NUTRITION, FAC. OF MEDICINE, UNIV. OF TOKYO
license=CC BY-NC-SA
exact mass=368.3443
ionization energy=70 eV
ion type=[M]+*
computed spectral entropy=4.459830434821556
computed normalized entropy=0.8606747834093081
SPLASH=splash10-05mp-6921000000-3279ad60b13326a18be4
submitter=submitter = University of Tokyo Team (Faculty of Engineering, University of Tokyo)
MoNA Rating=3.75

>  <NUM PEAKS>  (6249) 
178

>  <MASS SPECTRAL PEAKS>  (6249) 
39 4.8
40 1.3
41 47.9
42 4.9
43 78.1
45 1.8
53 8.4
54 1.4
55 54.7
56 5
57 44
58 2
59 1
65 0.47
66 2.2
67 41.9
68 5.1
69 30.7
70 3
71 22.5
72 1.3
77 16
78 6.1
79 40.3
80 6.9
81 85.6
82 8.1
83 19.5
84 1.5
85 5
89 1
90 1
91 52.7
92 15.4
93 46.5
94 13.4
95 47.2
96 4.8
97 11.9
100 1.1
103 4.6
104 5.5
105 63
106 20.6
107 57
108 21.5
109 28.9
110 3.5
111 7.4
112 1.1
113 1.2
114 1.2
115 7.6
116 5
117 21.8
118 10
119 28.3
120 37.3
121 35.5
122 9.4
123 12.9
124 1.7
125 2.3
127 2.6
128 9.2
129 15.5
130 8.6
131 28.9
132 8.4
133 31.5
134 8.9
135 25.9
136 5.5
137 5.4
141 4.8
142 5.7
143 29.6
144 11.3
145 66.3
146 22.9
147 82.5
148 18.6
149 17.9
150 3
151 4.2
152 1.1
153 1.7
155 3.9
156 2.4
157 13.2
158 11.8
159 26.5
160 20
161 21.4
162 6.1
163 11.3
164 1.6
165 2.8
167 1.2
169 2.3
170 1.1
171 7.4
172 3.5
173 7.3
174 4.3
175 6.5
176 2.3
177 3.5
179 1.5
183 1.9
184 1
185 7.6
186 3
187 4.1
188 1
189 2.3
190 1
191 3.4
192 1
193 3.7
197 2.3
198 1.4
199 8.6
200 4.7
201 6.5
202 1.6
203 1.6
205 7.3
206 5.3
207 1.9
211 1
212 1.7
213 27.7
214 7.5
215 3.3
216 1.4
217 3.6
218 2.1
219 2.6
227 2.8
228 6.6
229 3.8
230 1
231 1.1
232 1.2
239 1.1
241 2.4
242 1.1
245 5
246 5
247 36.9
248 8.5
249 1.4
254 1.2
255 28.7
256 6.4
257 1.3
258 1.2
259 4.4
260 25.5
261 8.8
262 1.8
274 2.2
275 1.3
283 3.1
284 1.3
314 1
326 4
327 1.3
339 2.2
340 1.3
353 31.1
354 9.1
355 1.5
367 2.6
368 99.99
369 31.5
370 4.8

$$$$

     RDKit          2D

 27 30  0  0  1  0  0  0  0  0999 V2000
    9.2324    7.1952    0.0000 C   0  0  0  0  0  0  0  0  0  0  0  0
    6.7615    7.9981    0.0000 C   0  0  0  0  0  0  0  0  0  0  0  0
    2.8999    4.5213    0.0000 C   0  0  0  0  0  0  0  0  0  0  0  0
   -1.8900    0.7600    0.0000 C   0  0  0  0  0  0  0  0  0  0  0  0
    2.1640    3.0021    0.0000 C   0  0  0  0  0  0  0  0  0  0  0  0
   -4.4900   -2.2400    0.0000 C   0  0  0  0  0  0  0  0  0  0  0  0
   -4.4900   -0.7400    0.0000 C   0  0  0  0  0  0  0  0  0  0  0  0
    5.8343    5.1450    0.0000 C   0  0  0  0  0  0  0  0  0  0  0  0
    7.3016    5.4568    0.0000 C   0  0  0  0  0  0  0  0  0  0  0  0
    5.3708    3.7184    0.0000 C   0  0  0  0  0  0  0  0  0  0  0  0
   -3.1900   -2.9900    0.0000 C   0  0  0  0  0  0  0  0  0  0  0  0
   -0.5900   -2.9900    0.0000 C   0  0  0  0  0  0  0  0  0  0  0  0
    0.7100   -2.2400    0.0000 C   0  0  0  0  0  0  0  0  0  0  0  0
    4.3200    0.7600    0.0000 C   0  0  0  0  0  0  0  0  0  0  0  0
    3.4400   -0.4500    0.0000 C   0  0  0  0  0  0  0  0  0  0  0  0
   -0.5900    1.5100    0.0000 C   0  0  0  0  0  0  0  0  0  0  0  0
   -3.1900    0.0100    0.0000 C   0  0  0  0  0  0  0  0  0  0  0  0
    0.7100    2.2600    0.0000 C   0  0  0  0  0  0  0  0  0  0  0  0
    7.7651    6.8834    0.0000 C   0  0  0  0  0  0  0  0  0  0  0  0
    3.9036    3.4066    0.0000 C   0  0  0  0  0  0  0  0  0  0  0  0
   -1.8900   -2.2400    0.0000 C   0  0  0  0  0  0  0  0  0  0  0  0
    0.7100   -0.7400    0.0000 C   0  0  0  0  0  0  0  0  0  0  0  0
    3.4400    1.9800    0.0000 C   0  0  0  0  0  0  0  0  0  0  0  0
    2.0100    0.0100    0.0000 C   0  0  0  0  0  0  0  0  0  0  0  0
   -0.5900    0.0100    0.0000 C   0  0  0  0  0  0  0  0  0  0  0  0
   -1.8900   -0.7400    0.0000 C   0  0  0  0  0  0  0  0  0  0  0  0
    2.0100    1.5100    0.0000 C   0  0  0  0  0  0  0  0  0  0  0  0
  7  6  1  0
  9  8  1  0
 10  8  1  0
 11  6  1  0
 13 12  1  0
 15 14  1  0
 17  7  1  0
 18 16  1  0
 19  1  1  0
 19  2  1  0
 19  9  1  0
 20  3  1  6
 20 10  1  0
 21 11  1  1
 21 12  1  0
 22 13  1  6
 23 14  1  0
 23 20  1  0
 24 15  1  1
 24 22  1  0
 25 16  1  1
 25 22  1  0
 26  4  1  1
 26 17  1  0
 26 21  1  0
 26 25  1  0
 27  5  1  1
 27 18  1  0
 27 23  1  0
 27 24  1  0
M  END
>  <NAME>  (6250) 
5ALPHA-CHOLESTANE

>  <SYNONYMS>  (6250) 
CHOLESTANE

>  <SPECTRUM TYPE>  (6250) 
MS1

>  <INSTRUMENT TYPE>  (6250) 
EI-B

>  <INSTRUMENT>  (6250) 
SHIMADZU LKB-9000B

>  <ION MODE>  (6250) 
P

>  <INCHIKEY>  (6250) 
XIIAYQZJNBULGD-GZHIZRLSSA-N

>  <FORMULA>  (6250) 
C27H48

>  <EXACT MASS>  (6250) 
372.375601536

>  <MW>  (6250) 
372

>  <ID>  (6250) 
JP001887

>  <CONTRIBUTOR>  (6250) 
University of Tokyo Team, {Faculty of Engineering, University of Tokyo

>  <COMMENT>  (6250) 
SMILES=C(C([H])41)([H])(C(C([H])3CC4)(C)CCCC3)CCC(C)(C(C(C)CCCC(C)C)2)C1([H])CC2
InChI=InChI=1S/C27H48/c1-19(2)9-8-10-20(3)23-14-15-24-22-13-12-21-11-6-7-17-26(21,4)25(22)16-18-27(23,24)5/h19-25H,6-18H2,1-5H3/t20-,21-,22+,23?,24+,25+,26+,27-/m1/s1
computed SMILES=CC(C)CCCC(C)C1CCC2C3CCC4CCCCC4(C)C3CCC12C
accession=JP001887
date=2016.01.19 (Created 2008.10.21, modified 2011.05.06)
author=SEYAMA Y, DEPT. OF PHYSIOL. CHEMISTRY AND NUTRITION, FAC. OF MEDICINE, UNIV. OF TOKYO
license=CC BY-NC-SA
exact mass=372.3756
ionization energy=70 eV
ion type=[M]+*
computed spectral entropy=3.928241114016328
computed normalized entropy=0.8666640677055527
SPLASH=splash10-014i-9851000000-ca7764e1c20d14348ad4
submitter=submitter = University of Tokyo Team (Faculty of Engineering, University of Tokyo)
MoNA Rating=3.75

>  <NUM PEAKS>  (6250) 
93

>  <MASS SPECTRAL PEAKS>  (6250) 
39 2
41 22.2
42 2.5
43 31.8
45 1.7
53 4
54 2
55 36
56 3.4
57 17.2
65 1.3
66 1.3
67 29
68 9.2
69 19.3
70 1.9
71 7.5
77 4.1
78 1.2
79 15.9
80 4.8
81 36.1
82 7.9
83 15.8
84 1.3
85 1.5
91 8.5
92 2.4
93 19.5
94 7.4
95 40
96 5.5
97 10
105 6.4
106 2.8
107 17.3
108 18.3
109 41.2
110 5.5
111 4.3
117 1.1
119 3.8
120 2.4
121 19
122 15.8
123 20.6
124 2.4
125 1.2
131 1
133 4.3
134 2.3
135 15.7
136 7
137 7.6
147 6.9
148 11.9
149 49.2
150 18.2
151 8.8
152 1.8
161 6.3
162 7.1
163 8.8
164 2.3
165 1
175 9.2
176 3.5
177 2.5
189 3.8
190 3.6
191 1.3
203 13.4
204 3.3
205 1.2
216 1.7
217 99.99
218 55.2
219 17.3
220 2.2
231 1.5
232 13.7
233 3.4
259 2
262 8.3
263 2.1
315 1.2
343 1.5
357 26.4
358 7.6
359 1.1
372 32
373 8.9
374 1.3

$$$$

     RDKit          2D

 22 24  0  0  0  0  0  0  0  0999 V2000
   -4.0667    1.5454    0.0000 C   0  0  0  0  0  0  0  0  0  0  0  0
    5.1962    1.5000    0.0000 C   0  0  0  0  0  0  0  0  0  0  0  0
    2.5981   -0.0000    0.0000 C   0  0  0  0  0  0  0  0  0  0  0  0
    1.2990   -0.7500    0.0000 C   0  0  0  0  0  0  0  0  0  0  0  0
   -0.5449    3.1771    0.0000 C   0  0  0  0  0  0  0  0  0  0  0  0
   -1.4266    4.3906    0.0000 C   0  0  0  0  0  0  0  0  0  0  0  0
    1.2990    2.2500    0.0000 C   0  0  0  0  0  0  0  0  0  0  0  0
   -2.3083    0.7500    0.0000 C   0  0  0  0  0  0  0  0  0  0  0  0
   -2.8532    2.4271    0.0000 C   0  0  0  0  0  0  0  0  0  0  0  0
    2.5981    1.5000    0.0000 C   0  0  0  0  0  0  0  0  0  0  0  0
    0.0000    1.5000    0.0000 C   0  0  0  0  0  0  0  0  0  0  0  0
    0.0000    0.0000    0.0000 C   0  0  0  0  0  0  0  0  0  0  0  0
   -4.0667    4.8087    0.0000 C   0  0  0  0  0  0  0  0  0  0  0  0
   -1.4266    1.9635    0.0000 C   0  0  0  0  0  0  0  0  0  0  0  0
   -3.9099    6.3005    0.0000 C   0  0  0  0  0  0  0  0  0  0  0  0
   -2.4181    6.1437    0.0000 F   0  0  0  0  0  0  0  0  0  0  0  0
   -3.7531    7.7923    0.0000 F   0  0  0  0  0  0  0  0  0  0  0  0
   -5.4017    6.4573    0.0000 F   0  0  0  0  0  0  0  0  0  0  0  0
   -1.4266   -0.4635    0.0000 N   0  0  0  0  0  0  0  0  0  0  0  0
   -2.8532    3.9271    0.0000 N   0  0  0  0  0  0  0  0  0  0  0  0
   -5.4370    4.1986    0.0000 O   0  0  0  0  0  0  0  0  0  0  0  0
    3.8971    2.2500    0.0000 O   0  0  0  0  0  0  0  0  0  0  0  0
  4  3  2  0
  6  5  1  0
  9  1  2  0
 10  3  1  0
 10  7  2  0
 11  7  1  0
 12  4  1  0
 12 11  2  0
 14  5  1  0
 14  8  1  0
 14  9  1  0
 14 11  1  0
 15 13  1  0
 16 15  1  0
 17 15  1  0
 18 15  1  0
 19  8  2  0
 19 12  1  0
 20  6  1  0
 20  9  1  0
 20 13  1  0
 21 13  2  0
 22  2  1  0
 22 10  1  0
M  END
>  <NAME>  (6251) 
5-METHOXYINDOLE-3-SPIRO-3'-N-TRIFLUOROACETYL-2'-METHYLENEPYRROLIDINE

>  <SYNONYMS>  (6251) 
TRIFLUOROACETYL DERIVATIVE OF MELATONIN

>  <SPECTRUM TYPE>  (6251) 
MS1

>  <INSTRUMENT TYPE>  (6251) 
EI-B

>  <INSTRUMENT>  (6251) 
SHIMADZU LKB-9000B

>  <ION MODE>  (6251) 
P

>  <INCHIKEY>  (6251) 
RAEVVXJFQROQDJ-UHFFFAOYSA-N

>  <FORMULA>  (6251) 
C15H13F3N2O2

>  <EXACT MASS>  (6251) 
310.09291231599997

>  <MW>  (6251) 
310

>  <ID>  (6251) 
JP001886

>  <CONTRIBUTOR>  (6251) 
University of Tokyo Team, {Faculty of Engineering, University of Tokyo

>  <COMMENT>  (6251) 
SMILES=COc(c3)cc(c(c3)2)C(C=N2)(C1)C(=C)N(C1)C(=O)C(F)(F)F
InChI=InChI=1S/C15H13F3N2O2/c1-9-14(5-6-20(9)13(21)15(16,17)18)8-19-12-4-3-10(22-2)7-11(12)14/h3-4,7-8H,1,5-6H2,2H3
computed SMILES=O=C(N1C(=C)C2(C=NC=3C=CC(OC)=CC32)CC1)C(F)(F)F
accession=JP001886
date=2016.01.19 (Created 2008.10.21, modified 2011.05.06)
author=SEYAMA Y, DEPT. OF PHYSIOL. CHEMISTRY AND NUTRITION, FAC. OF MEDICINE, UNIV. OF TOKYO
license=CC BY-NC-SA
exact mass=310.09291
ionization energy=70 eV
ion type=[M]+*
computed spectral entropy=3.6319373323103785
computed normalized entropy=0.8219208735210298
SPLASH=splash10-03di-2926000000-6c7037f915a5e3952519
submitter=submitter = University of Tokyo Team (Faculty of Engineering, University of Tokyo)
MoNA Rating=3.75

>  <NUM PEAKS>  (6251) 
83

>  <MASS SPECTRAL PEAKS>  (6251) 
39 1.7
40 1.8
44 1.9
50 1.2
51 2.8
52 1.4
53 1
54 6
62 1.2
63 3.9
64 1.2
65 1.3
69 7
74 1
75 2.4
76 1.5
77 5.4
80 1
88 1.4
89 3.5
90 1.1
101 2.2
102 2.9
103 3.9
114 1.9
115 7.2
116 4.1
117 1.7
120 4.4
127 2.5
128 3.2
129 2
130 5.2
131 1
140 1.9
141 3.8
142 4.3
143 4.7
144 3.1
145 1.9
153 1.1
154 3.6
155 3.9
156 2.1
158 6.5
159 3.3
160 2.5
166 1.5
167 1.1
168 1.4
169 7.7
170 12.6
171 3.1
172 2.9
173 3.9
181 2.1
182 3.9
183 2.4
184 10.3
185 6.8
186 23.8
187 3.4
196 2.3
197 3.6
198 11.8
199 2.4
211 2.1
212 3.2
213 27.4
214 5.3
226 1.1
241 6.9
242 1.1
267 3.3
279 1.7
282 1.7
291 1.9
295 5.1
296 1.4
309 12.1
310 99.99
311 18.9
312 2

$$$$

     RDKit          2D

 35 38  0  0  1  0  0  0  0  0999 V2000
    9.7194    7.6889    0.0000 C   0  0  0  0  0  0  0  0  0  0  0  0
   10.0133    6.2180    0.0000 H   0  0  0  0  0  0  0  0  0  0  0  0
   11.1903    7.9828    0.0000 H   0  0  0  0  0  0  0  0  0  0  0  0
    9.4254    9.1598    0.0000 H   0  0  0  0  0  0  0  0  0  0  0  0
    6.7657    7.6219    0.0000 C   0  0  0  0  0  0  0  0  0  0  0  0
    7.6537    6.4130    0.0000 H   0  0  0  0  0  0  0  0  0  0  0  0
    5.3682    7.0770    0.0000 H   0  0  0  0  0  0  0  0  0  0  0  0
    6.6011    9.1128    0.0000 H   0  0  0  0  0  0  0  0  0  0  0  0
    3.2009    4.6377    0.0000 C   0  0  0  0  0  0  0  0  0  0  0  0
   -1.6125    0.9400    0.0000 C   0  0  0  0  0  0  0  0  0  0  0  0
    2.4507    3.1203    0.0000 C   0  0  0  0  0  0  0  0  0  0  0  0
    6.1427    5.2256    0.0000 C   0  0  0  0  0  0  0  0  0  0  0  0
    7.6137    5.5195    0.0000 C   0  0  0  0  0  0  0  0  0  0  0  0
    5.6618    3.8047    0.0000 C   0  0  0  0  0  0  0  0  0  0  0  0
   -0.3200   -2.8400    0.0000 C   0  0  0  0  0  0  0  0  0  0  0  0
    1.0100   -2.0900    0.0000 C   0  0  0  0  0  0  0  0  0  0  0  0
    4.5500    0.8800    0.0000 C   0  0  0  0  0  0  0  0  0  0  0  0
    3.7100   -0.3100    0.0000 C   0  0  0  0  0  0  0  0  0  0  0  0
   -4.2000   -0.5600    0.0000 C   0  0  0  0  0  0  0  0  0  0  0  0
   -0.3200    1.6300    0.0000 C   0  0  0  0  0  0  0  0  0  0  0  0
   -2.8900    0.1600    0.0000 C   0  0  0  0  0  0  0  0  0  0  0  0
    1.0100    2.3900    0.0000 C   0  0  0  0  0  0  0  0  0  0  0  0
   -2.8900   -2.8400    0.0000 C   0  0  0  0  0  0  0  0  0  0  0  0
    8.2485    7.3950    0.0000 C   0  0  0  0  0  0  0  0  0  0  0  0
    8.2144    8.8946    0.0000 H   0  0  0  0  0  0  0  0  0  0  0  0
    4.1909    3.5108    0.0000 C   0  0  0  0  0  0  0  0  0  0  0  0
   -1.6200   -2.0900    0.0000 C   0  0  0  0  0  0  0  0  0  0  0  0
   -4.2000   -2.0900    0.0000 C   0  0  0  0  0  0  0  0  0  0  0  0
    1.0100   -0.5600    0.0000 C   0  0  0  0  0  0  0  0  0  0  0  0
    3.7100    2.0900    0.0000 C   0  0  0  0  0  0  0  0  0  0  0  0
    2.2800    0.1600    0.0000 C   0  0  0  0  0  0  0  0  0  0  0  0
   -0.3200    0.1600    0.0000 C   0  0  0  0  0  0  0  0  0  0  0  0
   -1.6200   -0.5600    0.0000 C   0  0  0  0  0  0  0  0  0  0  0  0
    2.2800    1.6300    0.0000 C   0  0  0  0  0  0  0  0  0  0  0  0
   -5.4977   -2.8424    0.0000 O   0  0  0  0  0  0  0  0  0  0  0  0
  1  2  1  0
  1  3  1  0
  1  4  1  0
  5  6  1  0
  5  7  1  0
  5  8  1  0
 24 25  1  0
 13 12  1  0
 14 12  1  0
 16 15  1  0
 18 17  1  0
 21 19  1  0
 22 20  1  0
 24  1  1  0
 24  5  1  0
 24 13  1  0
 26  9  1  6
 26 14  1  0
 27 15  1  1
 27 23  1  0
 28 19  1  0
 28 23  1  0
 29 16  1  6
 30 17  1  0
 30 26  1  0
 31 18  1  1
 31 29  1  0
 32 20  1  1
 32 29  1  0
 33 10  1  1
 33 21  1  0
 33 27  1  0
 33 32  1  0
 34 11  1  1
 34 22  1  0
 34 30  1  0
 34 31  1  0
 28 35  1  1
M  ISO  7   2   2   3   2   4   2   6   2   7   2   8   2  25   2
M  END
>  <NAME>  (6252) 
5ALPHA-CHOLESTAN-3BETA-OL (25,26,26,26,27,27,27-D7)

>  <SYNONYMS>  (6252) 
CHOLESTANOL (25,26,26,26,27,27,27-D7)

>  <SPECTRUM TYPE>  (6252) 
MS1

>  <INSTRUMENT TYPE>  (6252) 
EI-B

>  <INSTRUMENT>  (6252) 
SHIMADZU LKB-9000B

>  <ION MODE>  (6252) 
P

>  <INCHIKEY>  (6252) 
QYIXCDOBOSTCEI-ZIXNOYIFSA-N

>  <FORMULA>  (6252) 
C27H48O

>  <EXACT MASS>  (6252) 
395.41445337799996

>  <MW>  (6252) 
395

>  <ID>  (6252) 
JP001885

>  <CONTRIBUTOR>  (6252) 
University of Tokyo Team, {Faculty of Engineering, University of Tokyo

>  <COMMENT>  (6252) 
SMILES=C(C(C([2H])([2H])[2H])([2H])CCCC(C)C(C1)C(C)(C4)C(C(C([H])2C4)([H])CCC([H])(C3)C2(C)CCC3([H])O)([H])C1)([2H])([2H])[2H]
InChI=InChI=1S/C27H48O/c1-18(2)7-6-8-19(3)23-11-12-24-22-10-9-20-17-21(28)13-15-26(20,4)25(22)14-16-27(23,24)5/h18-25,28H,6-17H2,1-5H3/t19-,20+,21+,22+,23?,24+,25+,26+,27-/m1/s1/i1D3,2D3,18D
computed SMILES=[H]C(CCCC(C)C1CCC2C3CCC4CC(O)CCC4(C)C3CCC12C)(C([H])([H])[H])C([H])([H])[H]
accession=JP001885
date=2016.01.19 (Created 2008.10.21, modified 2011.05.06)
author=SEYAMA Y, DEPT. OF PHYSIOL. CHEMISTRY AND NUTRITION, FAC. OF MEDICINE, UNIV. OF TOKYO
license=CC BY-NC-SA
exact mass=388.37052
ionization energy=70 eV
ion type=[M]+*
computed spectral entropy=4.65478436201935
computed normalized entropy=0.8760782812449555
SPLASH=splash10-00ls-8963000000-5a98800e67e851e83be5
submitter=submitter = University of Tokyo Team (Faculty of Engineering, University of Tokyo)
MoNA Rating=3.75

>  <NUM PEAKS>  (6252) 
203

>  <MASS SPECTRAL PEAKS>  (6252) 
39 3.2
40 6.4
41 26.9
42 4.6
43 21.6
44 7.3
45 6.2
46 9.6
47 5.7
48 3.8
49 6.6
50 19.7
53 5.8
54 2.5
55 50
56 9.3
57 19.8
58 5.6
59 4.3
60 8.2
61 6.2
62 2.8
63 7
64 5.7
65 2.5
66 1.7
67 37
68 14.6
69 27.4
70 7.7
71 6.8
72 3.2
73 3
74 4.2
75 7.7
76 3.1
77 8.9
78 3.5
79 32.1
80 8.7
81 56.3
82 13.1
83 16.4
84 4.8
85 3.8
86 2.3
87 3.1
88 2
89 2.5
90 1.3
91 22.8
92 6.2
93 41.2
94 18.2
95 53.1
96 9.6
97 11.7
98 3.6
99 3.1
100 1.3
101 2.6
103 1.3
104 2.4
105 24.6
106 14.5
107 52.4
108 44.6
109 35.4
110 8.7
111 9
112 2.5
113 1.7
115 3.8
117 4
118 2.7
119 18.5
120 14.1
121 31.3
122 21.2
123 22.7
124 17.9
125 5.2
126 1.2
128 3.3
129 2.2
130 1
131 6.8
132 2.8
133 17.7
134 11.5
135 24.5
136 11.1
137 9.2
138 4.9
139 1.2
143 1.8
144 1.3
145 11.1
146 4.4
147 28.3
148 20.5
149 33.5
150 5.4
151 4.4
152 1.2
157 1.3
158 1
159 8.9
160 6.8
161 16.5
162 8.8
163 8.5
164 4.4
165 53.1
166 18.2
167 4
171 1.1
173 7.5
174 3.8
175 8.2
176 4.2
177 3.9
178 3.5
179 2
185 1.1
187 5.3
188 3.4
189 4.6
190 7.6
191 5
192 2.6
198 3.1
199 3
200 1.9
201 11.8
202 3.6
203 5.1
204 2.6
205 3.6
206 3.8
213 1.8
214 1.6
215 83.7
216 33
217 45.7
218 8.8
219 14.7
220 4.6
229 3.4
230 9.9
231 15.5
232 10.1
233 99.99
234 67.5
235 11.3
236 1.1
243 1.1
246 1.5
247 1.3
248 17.8
249 3.5
254 1.4
255 1.8
257 7.3
258 1.7
268 1.2
269 16
270 4.8
271 1.4
273 2.2
274 1.2
282 1
283 1.1
285 4.6
286 1
295 1.6
296 1.3
322 1.2
323 3.4
331 1.3
338 3.4
345 1.4
346 3.8
347 1.3
359 1.3
360 1
361 1.1
362 23.7
363 6.4
364 1.2
366 3
376 1.7
377 10.1
378 4.7
379 2.6
380 38.3
381 11.6
382 1.9
393 5.4
394 4.8
395 95.2
396 28.8
397 4.3

$$$$

     RDKit          2D

 28 31  0  0  1  0  0  0  0  0999 V2000
    9.5655    7.2342    0.0000 C   0  0  0  0  0  0  0  0  0  0  0  0
    7.1046    8.0672    0.0000 C   0  0  0  0  0  0  0  0  0  0  0  0
    3.2009    4.6377    0.0000 C   0  0  0  0  0  0  0  0  0  0  0  0
   -1.6125    0.9400    0.0000 C   0  0  0  0  0  0  0  0  0  0  0  0
    2.4507    3.1203    0.0000 C   0  0  0  0  0  0  0  0  0  0  0  0
    6.1427    5.2256    0.0000 C   0  0  0  0  0  0  0  0  0  0  0  0
    7.6137    5.5195    0.0000 C   0  0  0  0  0  0  0  0  0  0  0  0
    5.6618    3.8047    0.0000 C   0  0  0  0  0  0  0  0  0  0  0  0
   -0.3200   -2.8400    0.0000 C   0  0  0  0  0  0  0  0  0  0  0  0
    1.0100   -2.0900    0.0000 C   0  0  0  0  0  0  0  0  0  0  0  0
    4.5500    0.8800    0.0000 C   0  0  0  0  0  0  0  0  0  0  0  0
    3.7100   -0.3100    0.0000 C   0  0  0  0  0  0  0  0  0  0  0  0
   -4.2000   -0.5600    0.0000 C   0  0  0  0  0  0  0  0  0  0  0  0
   -0.3200    1.6300    0.0000 C   0  0  0  0  0  0  0  0  0  0  0  0
   -2.8900    0.1600    0.0000 C   0  0  0  0  0  0  0  0  0  0  0  0
    1.0100    2.3900    0.0000 C   0  0  0  0  0  0  0  0  0  0  0  0
   -2.8900   -2.8400    0.0000 C   0  0  0  0  0  0  0  0  0  0  0  0
    8.0946    6.9403    0.0000 C   0  0  0  0  0  0  0  0  0  0  0  0
    4.1909    3.5108    0.0000 C   0  0  0  0  0  0  0  0  0  0  0  0
   -1.6200   -2.0900    0.0000 C   0  0  0  0  0  0  0  0  0  0  0  0
   -4.2000   -2.0900    0.0000 C   0  0  0  0  0  0  0  0  0  0  0  0
    1.0100   -0.5600    0.0000 C   0  0  0  0  0  0  0  0  0  0  0  0
    3.7100    2.0900    0.0000 C   0  0  0  0  0  0  0  0  0  0  0  0
    2.2800    0.1600    0.0000 C   0  0  0  0  0  0  0  0  0  0  0  0
   -0.3200    0.1600    0.0000 C   0  0  0  0  0  0  0  0  0  0  0  0
   -1.6200   -0.5600    0.0000 C   0  0  0  0  0  0  0  0  0  0  0  0
    2.2800    1.6300    0.0000 C   0  0  0  0  0  0  0  0  0  0  0  0
   -5.4977   -2.8424    0.0000 O   0  0  0  0  0  0  0  0  0  0  0  0
  7  6  1  0
  8  6  1  0
 10  9  1  0
 12 11  1  0
 15 13  1  0
 16 14  1  0
 18  1  1  0
 18  2  1  0
 18  7  1  0
 19  3  1  6
 19  8  1  0
 20  9  1  1
 20 17  1  0
 21 13  1  0
 21 17  1  0
 22 10  1  6
 23 11  1  0
 23 19  1  0
 24 12  1  1
 24 22  1  0
 25 14  1  1
 25 22  1  0
 26  4  1  1
 26 15  1  0
 26 20  1  0
 26 25  1  0
 27  5  1  1
 27 16  1  0
 27 23  1  0
 27 24  1  0
 21 28  1  6
M  END
>  <NAME>  (6253) 
5ALPHA-CHOLESTAN-3ALPHA-OL

>  <SYNONYMS>  (6253) 
EPICHOLESTANOL

>  <SPECTRUM TYPE>  (6253) 
MS1

>  <INSTRUMENT TYPE>  (6253) 
EI-B

>  <INSTRUMENT>  (6253) 
SHIMADZU LKB-9000B

>  <ION MODE>  (6253) 
P

>  <INCHIKEY>  (6253) 
QYIXCDOBOSTCEI-FLWZNDCUSA-N

>  <FORMULA>  (6253) 
C27H48O

>  <EXACT MASS>  (6253) 
388.37051615599995

>  <MW>  (6253) 
388

>  <ID>  (6253) 
JP001884

>  <CONTRIBUTOR>  (6253) 
University of Tokyo Team, {Faculty of Engineering, University of Tokyo

>  <COMMENT>  (6253) 
SMILES=C(C([H])41)([H])(C(C)(C([H])3CC4)CCC(C3)([H])O)CCC(C)(C(C(C)CCCC(C)C)2)C1([H])CC2
InChI=InChI=1S/C27H48O/c1-18(2)7-6-8-19(3)23-11-12-24-22-10-9-20-17-21(28)13-15-26(20,4)25(22)14-16-27(23,24)5/h18-25,28H,6-17H2,1-5H3/t19-,20+,21-,22+,23?,24+,25+,26+,27-/m1/s1
computed SMILES=OC1CCC2(C)C(CCC3C4CCC(C(C)CCCC(C)C)C4(C)CCC32)C1
accession=JP001884
date=2016.01.19 (Created 2008.10.21, modified 2011.05.06)
author=SEYAMA Y, DEPT. OF PHYSIOL. CHEMISTRY AND NUTRITION, FAC. OF MEDICINE, UNIV. OF TOKYO
license=CC BY-NC-SA
exact mass=388.37052
ionization energy=70 eV
ion type=[M]+*
computed spectral entropy=4.515435284950419
computed normalized entropy=0.8667717222911813
SPLASH=splash10-00lr-8963000000-884dec03aaa000f672bc
submitter=submitter = University of Tokyo Team (Faculty of Engineering, University of Tokyo)
MoNA Rating=3.75

>  <NUM PEAKS>  (6253) 
183

>  <MASS SPECTRAL PEAKS>  (6253) 
39 4.1
40 4.5
41 33.9
42 5.5
43 59.6
44 4.5
45 1.1
53 5.7
54 2.5
55 56.8
56 9.2
57 43.5
58 2.5
59 1
65 2.8
66 1.9
67 36.6
68 13.8
69 37.4
70 6.5
71 18.8
72 1.1
74 1.9
77 7.9
78 2.2
79 31.7
80 8.2
81 57.3
82 13.8
83 23.4
84 3.8
85 5.9
87 1.4
91 22.2
92 6
93 40.8
94 18.1
95 54.3
96 8.3
97 16
98 2.1
99 2.5
101 1.2
104 2.1
105 24.7
106 14.7
107 54
108 41.8
109 36.9
110 7.3
111 11.5
112 1.7
113 2.8
115 3
117 3.9
118 2.6
119 18.4
120 13.8
121 32
122 22.4
123 22.6
124 17.7
125 5.8
126 1.1
127 1
128 3
129 1.7
131 6.8
132 2.6
133 18.3
134 11.4
135 24.7
136 11.2
137 9.5
138 4.8
139 1.4
143 1.5
144 1
145 11.2
146 4.3
147 28.7
148 20.2
149 32.5
150 5.1
151 4.8
152 2.8
153 1
157 1.1
159 8.3
160 6.4
161 16.7
162 8.6
163 8.9
164 4.2
165 53.7
166 17.9
167 3.5
171 1
173 7.4
174 3.7
175 8.1
176 4.1
177 4
178 3.4
179 2.4
180 1
185 1
187 5.3
188 3.2
189 4.6
190 7.5
191 5.2
192 2.7
193 1.8
198 3.1
199 3
200 1.3
201 11.9
202 3.3
203 5.2
204 2.8
205 3.9
206 4.1
207 1.4
208 2.3
213 1.7
214 1.2
215 83.7
216 32.8
217 44.7
218 8.4
219 14.9
220 4.1
229 3.3
230 9.6
231 17.3
232 10.7
233 99.99
234 64.7
235 10.6
236 1
243 1.2
246 1.9
247 2.8
248 17.8
249 3.5
255 1.4
257 7.4
258 1.7
259 1
260 1
261 1.2
262 18.5
263 5.2
264 1
273 2.2
274 1.3
275 1.6
285 2.3
288 1.7
289 1.5
301 1.1
315 1.2
316 3.6
331 3.7
332 1
338 1.4
355 26.7
356 7.6
357 1.4
359 3
369 1.8
370 10.1
371 5.2
372 1.6
373 39.7
374 11.6
375 1.6
386 6.6
387 2.4
388 92.4
389 27.5
390 4.1

$$$$

     RDKit          2D

 34 37  0  0  1  0  0  0  0  0999 V2000
    9.5655    7.2342    0.0000 C   0  0  0  0  0  0  0  0  0  0  0  0
   10.0746    4.6865    0.0000 C   0  0  0  0  0  0  0  0  0  0  0  0
    8.1228    2.9718    0.0000 C   0  0  0  0  0  0  0  0  0  0  0  0
    3.2009    4.6377    0.0000 C   0  0  0  0  0  0  0  0  0  0  0  0
   -1.6125    0.9400    0.0000 C   0  0  0  0  0  0  0  0  0  0  0  0
    2.4507    3.1203    0.0000 C   0  0  0  0  0  0  0  0  0  0  0  0
   -6.0504   -0.7943    0.0000 C   0  0  0  0  0  0  0  0  0  0  0  0
   -8.0985   -1.3471    0.0000 C   0  0  0  0  0  0  0  0  0  0  0  0
   -7.5457   -3.3951    0.0000 C   0  0  0  0  0  0  0  0  0  0  0  0
    8.0946    6.9403    0.0000 C   0  0  0  0  0  0  0  0  0  0  0  0
    5.6618    3.8047    0.0000 C   0  0  0  0  0  0  0  0  0  0  0  0
    6.1427    5.2256    0.0000 C   0  0  0  0  0  0  0  0  0  0  0  0
   -0.3200   -2.8400    0.0000 C   0  0  0  0  0  0  0  0  0  0  0  0
    1.0100   -2.0900    0.0000 C   0  0  0  0  0  0  0  0  0  0  0  0
    4.5500    0.8800    0.0000 C   0  0  0  0  0  0  0  0  0  0  0  0
    3.7100   -0.3100    0.0000 C   0  0  0  0  0  0  0  0  0  0  0  0
   -4.2000   -0.5600    0.0000 C   0  0  0  0  0  0  0  0  0  0  0  0
   -0.3200    1.6300    0.0000 C   0  0  0  0  0  0  0  0  0  0  0  0
   -2.8900    0.1600    0.0000 C   0  0  0  0  0  0  0  0  0  0  0  0
    1.0100    2.3900    0.0000 C   0  0  0  0  0  0  0  0  0  0  0  0
   -2.8900   -2.8400    0.0000 C   0  0  0  0  0  0  0  0  0  0  0  0
    8.6037    4.3926    0.0000 C   0  0  0  0  0  0  0  0  0  0  0  0
    4.1909    3.5108    0.0000 C   0  0  0  0  0  0  0  0  0  0  0  0
    7.6137    5.5195    0.0000 C   0  0  0  0  0  0  0  0  0  0  0  0
   -1.6200   -2.0900    0.0000 C   0  0  0  0  0  0  0  0  0  0  0  0
   -4.2000   -2.0900    0.0000 C   0  0  0  0  0  0  0  0  0  0  0  0
    1.0100   -0.5600    0.0000 C   0  0  0  0  0  0  0  0  0  0  0  0
    3.7100    2.0900    0.0000 C   0  0  0  0  0  0  0  0  0  0  0  0
    2.2800    0.1600    0.0000 C   0  0  0  0  0  0  0  0  0  0  0  0
   -0.3200    0.1600    0.0000 C   0  0  0  0  0  0  0  0  0  0  0  0
   -1.6200   -0.5600    0.0000 C   0  0  0  0  0  0  0  0  0  0  0  0
    2.2800    1.6300    0.0000 C   0  0  0  0  0  0  0  0  0  0  0  0
   -5.4977   -2.8424    0.0000 O   0  0  0  0  0  0  0  0  0  0  0  0
   -6.7981   -2.0947    0.0000 Si  0  0  0  0  0  4  0  0  0  0  0  0
 10  1  1  0
 12 11  1  0
 14 13  1  0
 16 15  1  0
 19 17  1  0
 20 18  1  0
 22  2  1  0
 22  3  1  0
 23  4  1  6
 23 11  1  0
 24 10  1  1
 24 12  1  0
 24 22  1  0
 25 13  2  0
 25 21  1  0
 26 17  1  0
 26 21  1  0
 27 14  1  6
 28 15  1  1
 28 23  1  0
 29 16  1  1
 29 27  1  0
 30 18  1  1
 30 27  1  0
 31  5  1  1
 31 19  1  0
 31 25  1  0
 31 30  1  0
 32  6  1  1
 32 20  1  0
 32 28  1  0
 32 29  1  0
 26 33  1  1
 34  7  1  0
 34  8  1  0
 34  9  1  0
 34 33  1  0
M  END
>  <NAME>  (6254) 
(24R)-24-ETHYL-5-CHOLESTEN-3BETA-YL TRIMETHYLSILYL ETHER

>  <SYNONYMS>  (6254) 
BETA-SITOSTERYL TRIMETHYLSILYL ETHER

>  <SPECTRUM TYPE>  (6254) 
MS1

>  <INSTRUMENT TYPE>  (6254) 
EI-B

>  <INSTRUMENT>  (6254) 
SHIMADZU LKB-9000B

>  <ION MODE>  (6254) 
P

>  <INCHIKEY>  (6254) 
XEWVATFZTBNDCF-BBWXUVGCSA-N

>  <FORMULA>  (6254) 
C32H58OSi

>  <EXACT MASS>  (6254) 
486.42569300599996

>  <MW>  (6254) 
486

>  <ID>  (6254) 
JP001883

>  <CONTRIBUTOR>  (6254) 
University of Tokyo Team, {Faculty of Engineering, University of Tokyo

>  <COMMENT>  (6254) 
computed SMILES=O(C1CC2=CCC3C(CCC4(C)C(CCC34)C(C)CCC(CC)C(C)C)C2(C)CC1)[Si](C)(C)C
SMILES=C(C4)C(CC(C34C)=C([H])CC(C23[H])(C(C1)([H])C(C)(CC2)C(C([H])(C)CCC(CC)([H])C(C)C)(C1)[H])[H])(O[Si](C)(C)C)[H]
InChI=InChI=1S/C32H58OSi/c1-10-24(22(2)3)12-11-23(4)28-15-16-29-27-14-13-25-21-26(33-34(7,8)9)17-19-31(25,5)30(27)18-20-32(28,29)6/h13,22-24,26-30H,10-12,14-21H2,1-9H3/t23-,24-,26+,27+,28-,29+,30+,31+,32-/m1/s1
accession=JP001883
date=2016.01.19 (Created 2008.10.21, modified 2011.05.06)
author=SEYAMA Y, DEPT. OF PHYSIOL. CHEMISTRY AND NUTRITION, FAC. OF MEDICINE, UNIV. OF TOKYO
license=CC BY-NC-SA
exact mass=486.42569
ionization energy=70 eV
ion type=[M]+*
computed spectral entropy=4.6519421058670005
computed normalized entropy=0.9057875153953348
SPLASH=splash10-056s-6923000000-955efb898f374d4ff328
submitter=submitter = University of Tokyo Team (Faculty of Engineering, University of Tokyo)
MoNA Rating=3.75

>  <NUM PEAKS>  (6254) 
170

>  <MASS SPECTRAL PEAKS>  (6254) 
40 2.8
41 16.9
42 3.8
43 39.8
45 1.4
47 4.2
50 5
51 2.5
52 2.4
53 2.9
54 4
55 28.3
56 2.9
57 29.4
58 2
59 9.8
65 1
67 8.8
68 3.1
69 20.8
70 2.2
71 19.9
73 50.1
74 6.5
75 39.8
76 3.8
77 7.1
79 12.7
80 1.9
81 28.6
82 4.6
83 10.8
84 7.1
85 18.6
89 1.2
91 18.1
92 4.6
93 19.4
94 5.7
95 33.6
96 4.6
97 9.6
98 1.5
99 2.4
101 7
103 7.7
104 5
105 21.3
106 4.6
107 29.1
108 6.1
109 18.1
110 2.3
111 8.5
112 4.1
113 2.5
115 3.9
116 6.6
117 7.4
118 2.2
119 27.4
120 16.8
121 28.8
122 5.1
123 9.8
124 1.9
125 3.3
127 1.9
129 99.99
130 19.1
131 19
132 4.6
133 17.5
134 7.9
135 11.2
136 6.9
137 2.7
138 1.6
139 1.6
142 1.8
143 18.2
144 4.9
145 24.5
146 8.8
147 14.5
148 4.9
149 7.4
150 6
151 4.5
153 2.1
155 5.2
157 5.5
158 4.9
159 9.8
160 10.4
161 14
162 7.5
163 10.8
164 4.9
165 2.8
166 4.9
169 3.2
171 5.9
172 5.8
173 11.1
174 6.4
175 6.5
176 4.9
177 4.8
179 3.7
181 4.1
182 4.1
183 1.6
185 3.7
186 6
187 4.5
189 5.1
191 3.9
196 4.9
198 6.1
199 6.1
201 4.2
202 1.5
203 5.1
205 1.8
207 2.6
210 1.2
213 9.9
214 8.4
219 4.2
221 1.8
222 4.6
227 8.2
228 6.3
229 2.1
231 4.3
233 3.1
234 4.7
235 5.5
238 3.1
240 5.4
241 1.6
243 3.8
245 5.6
247 5.7
254 4.1
255 14.8
256 7.9
257 7.9
261 3.7
273 8.2
274 4.8
275 4
281 7.3
296 10
297 2
303 7.6
329 6.1
356 19.4
357 71.8
358 22.9
381 29.9
382 10.1
386 12.3
396 58.6
397 22
398 4.1
471 7.9
486 25.9
487 12.2

$$$$

     RDKit          2D

 33 36  0  0  1  0  0  0  0  0999 V2000
    9.5655    7.2342    0.0000 C   0  0  0  0  0  0  0  0  0  0  0  0
    7.1046    8.0672    0.0000 C   0  0  0  0  0  0  0  0  0  0  0  0
    8.6037    4.3926    0.0000 C   0  0  0  0  0  0  0  0  0  0  0  0
    3.2009    4.6377    0.0000 C   0  0  0  0  0  0  0  0  0  0  0  0
   -1.6125    0.9400    0.0000 C   0  0  0  0  0  0  0  0  0  0  0  0
    2.4507    3.1203    0.0000 C   0  0  0  0  0  0  0  0  0  0  0  0
   -6.9949   -4.3451    0.0000 C   0  0  0  0  0  0  0  0  0  0  0  0
   -5.4922   -5.8424    0.0000 C   0  0  0  0  0  0  0  0  0  0  0  0
   -3.9950   -4.3396    0.0000 C   0  0  0  0  0  0  0  0  0  0  0  0
    6.1427    5.2256    0.0000 C   0  0  0  0  0  0  0  0  0  0  0  0
    5.6618    3.8047    0.0000 C   0  0  0  0  0  0  0  0  0  0  0  0
   -0.3200   -2.8400    0.0000 C   0  0  0  0  0  0  0  0  0  0  0  0
    1.0100   -2.0900    0.0000 C   0  0  0  0  0  0  0  0  0  0  0  0
    4.5500    0.8800    0.0000 C   0  0  0  0  0  0  0  0  0  0  0  0
    3.7100   -0.3100    0.0000 C   0  0  0  0  0  0  0  0  0  0  0  0
   -4.2000   -0.5600    0.0000 C   0  0  0  0  0  0  0  0  0  0  0  0
   -0.3200    1.6300    0.0000 C   0  0  0  0  0  0  0  0  0  0  0  0
   -2.8900    0.1600    0.0000 C   0  0  0  0  0  0  0  0  0  0  0  0
    1.0100    2.3900    0.0000 C   0  0  0  0  0  0  0  0  0  0  0  0
   -2.8900   -2.8400    0.0000 C   0  0  0  0  0  0  0  0  0  0  0  0
    8.0946    6.9403    0.0000 C   0  0  0  0  0  0  0  0  0  0  0  0
    7.6137    5.5195    0.0000 C   0  0  0  0  0  0  0  0  0  0  0  0
    4.1909    3.5108    0.0000 C   0  0  0  0  0  0  0  0  0  0  0  0
   -1.6200   -2.0900    0.0000 C   0  0  0  0  0  0  0  0  0  0  0  0
   -4.2000   -2.0900    0.0000 C   0  0  0  0  0  0  0  0  0  0  0  0
    1.0100   -0.5600    0.0000 C   0  0  0  0  0  0  0  0  0  0  0  0
    3.7100    2.0900    0.0000 C   0  0  0  0  0  0  0  0  0  0  0  0
    2.2800    0.1600    0.0000 C   0  0  0  0  0  0  0  0  0  0  0  0
   -0.3200    0.1600    0.0000 C   0  0  0  0  0  0  0  0  0  0  0  0
   -1.6200   -0.5600    0.0000 C   0  0  0  0  0  0  0  0  0  0  0  0
    2.2800    1.6300    0.0000 C   0  0  0  0  0  0  0  0  0  0  0  0
   -5.4977   -2.8424    0.0000 O   0  0  0  0  0  0  0  0  0  0  0  0
   -5.4950   -4.3424    0.0000 Si  0  0  0  0  0  4  0  0  0  0  0  0
 11 10  1  0
 13 12  1  0
 15 14  1  0
 18 16  1  0
 19 17  1  0
 21  1  1  0
 21  2  1  0
 22  3  1  6
 22 10  1  0
 22 21  1  0
 23  4  1  6
 23 11  1  0
 24 12  2  0
 24 20  1  0
 25 16  1  0
 25 20  1  0
 26 13  1  6
 27 14  1  1
 27 23  1  0
 28 15  1  1
 28 26  1  0
 29 17  1  1
 29 26  1  0
 30  5  1  1
 30 18  1  0
 30 24  1  0
 30 29  1  0
 31  6  1  1
 31 19  1  0
 31 27  1  0
 31 28  1  0
 25 32  1  1
 33  7  1  0
 33  8  1  0
 33  9  1  0
 33 32  1  0
M  END
>  <NAME>  (6255) 
(24R)-24-METHYL-5-CHOLESTEN-3BETA-YL TRIMETHYLSILYL ETHER

>  <SYNONYMS>  (6255) 
CAMPESTERYL TRIMETHYLSILYL ETHER

>  <SPECTRUM TYPE>  (6255) 
MS1

>  <INSTRUMENT TYPE>  (6255) 
EI-B

>  <INSTRUMENT>  (6255) 
SHIMADZU LKB-9000B

>  <ION MODE>  (6255) 
P

>  <INCHIKEY>  (6255) 
VWYCDHUXOZENHE-MTJVUTKMSA-N

>  <FORMULA>  (6255) 
C31H56OSi

>  <EXACT MASS>  (6255) 
472.410042942

>  <MW>  (6255) 
472

>  <ID>  (6255) 
JP001882

>  <CONTRIBUTOR>  (6255) 
University of Tokyo Team, {Faculty of Engineering, University of Tokyo

>  <COMMENT>  (6255) 
SMILES=C(CC([H])(C)C(C)C)C(C(C4)(C(C)(C3(C4)[H])CCC([H])(C31[H])C(C2)(C(CC([H])(O[Si](C)(C)C)C2)=C([H])C1)C)[H])([H])C
InChI=InChI=1S/C31H56OSi/c1-21(2)22(3)10-11-23(4)27-14-15-28-26-13-12-24-20-25(32-33(7,8)9)16-18-30(24,5)29(26)17-19-31(27,28)6/h12,21-23,25-29H,10-11,13-20H2,1-9H3/t22-,23-,25+,26+,27-,28+,29+,30+,31-/m1/s1
computed SMILES=O(C1CC2=CCC3C(CCC4(C)C(CCC34)C(C)CCC(C)C(C)C)C2(C)CC1)[Si](C)(C)C
accession=JP001882
date=2016.01.19 (Created 2008.10.21, modified 2011.05.06)
author=SEYAMA Y, DEPT. OF PHYSIOL. CHEMISTRY AND NUTRITION, FAC. OF MEDICINE, UNIV. OF TOKYO
license=CC BY-NC-SA
exact mass=472.41004
ionization energy=70 eV
ion type=[M]+*
computed spectral entropy=4.411628240207355
computed normalized entropy=0.8980130586857559
SPLASH=splash10-00bc-5913000000-b516932f652f6cda9eef
submitter=submitter = University of Tokyo Team (Faculty of Engineering, University of Tokyo)
MoNA Rating=3.75

>  <NUM PEAKS>  (6255) 
136

>  <MASS SPECTRAL PEAKS>  (6255) 
41 10.2
42 1.9
43 36.7
44 3.2
47 1.9
51 1.8
53 2.5
55 25.2
56 2.3
57 19.6
63 1.8
65 5.4
67 11.3
69 16.7
70 3.8
71 22.6
73 50.8
74 4
75 26.4
76 3.6
79 7.7
80 2.6
81 17.7
82 1.1
83 10.6
84 1.2
85 6.4
89 1.4
91 17.9
92 4.2
93 19.1
94 4.8
95 32.1
96 1.4
97 9.5
99 5.9
101 7.3
103 6.1
104 1.1
105 20.3
106 5.6
107 25.8
108 5.3
109 12.1
111 4.8
113 1.9
115 4.7
116 6.7
117 6.1
118 2.3
119 26.8
120 12.7
121 27.7
122 3.6
123 6.1
125 2.7
127 5.2
128 1.6
129 99.99
130 17.4
131 16.1
132 6.4
133 18.4
134 10.9
135 12.1
136 6.3
143 12.7
144 10.4
145 24.1
146 11
147 15.1
148 2.1
149 6.5
151 2.1
153 1.6
155 5.1
157 6.6
158 10.8
159 2.3
160 5.1
161 10.4
162 8.6
163 7.3
164 4.2
165 3.2
167 1.7
169 6
171 2.3
173 5
174 4.9
175 5.9
176 5.3
177 2.8
180 5.1
185 3
186 4.7
187 1.3
189 1.5
190 6.1
193 2
195 2.9
196 5.9
197 2.9
198 5.8
199 3.5
201 2.6
202 2.5
203 6.4
211 2.3
213 9.4
222 4.2
223 1.4
225 8.2
227 7.3
229 3.5
247 5.5
253 4.2
255 13.2
256 6
257 4.3
260 4.5
261 13.2
262 4.6
281 6
289 7.1
341 6.7
342 15.7
343 74.5
344 20.9
367 25.9
368 11.1
382 54.7
383 16.5
457 7.9
472 23.5
473 11.1

$$$$

     RDKit          2D

 32 35  0  0  1  0  0  0  0  0999 V2000
    9.5655    7.2342    0.0000 C   0  0  0  0  0  0  0  0  0  0  0  0
    7.1046    8.0672    0.0000 C   0  0  0  0  0  0  0  0  0  0  0  0
    3.2009    4.6377    0.0000 C   0  0  0  0  0  0  0  0  0  0  0  0
   -1.6125    0.9400    0.0000 C   0  0  0  0  0  0  0  0  0  0  0  0
    2.4507    3.1203    0.0000 C   0  0  0  0  0  0  0  0  0  0  0  0
   -6.9949   -4.3451    0.0000 C   0  0  0  0  0  0  0  0  0  0  0  0
   -5.4922   -5.8424    0.0000 C   0  0  0  0  0  0  0  0  0  0  0  0
   -3.9950   -4.3396    0.0000 C   0  0  0  0  0  0  0  0  0  0  0  0
    6.1427    5.2256    0.0000 C   0  0  0  0  0  0  0  0  0  0  0  0
    7.6137    5.5195    0.0000 C   0  0  0  0  0  0  0  0  0  0  0  0
    5.6618    3.8047    0.0000 C   0  0  0  0  0  0  0  0  0  0  0  0
   -0.3200   -2.8400    0.0000 C   0  0  0  0  0  0  0  0  0  0  0  0
    1.0100   -2.0900    0.0000 C   0  0  0  0  0  0  0  0  0  0  0  0
    4.5500    0.8800    0.0000 C   0  0  0  0  0  0  0  0  0  0  0  0
    3.7100   -0.3100    0.0000 C   0  0  0  0  0  0  0  0  0  0  0  0
   -4.2000   -0.5600    0.0000 C   0  0  0  0  0  0  0  0  0  0  0  0
   -0.3200    1.6300    0.0000 C   0  0  0  0  0  0  0  0  0  0  0  0
   -2.8900    0.1600    0.0000 C   0  0  0  0  0  0  0  0  0  0  0  0
    1.0100    2.3900    0.0000 C   0  0  0  0  0  0  0  0  0  0  0  0
   -2.8900   -2.8400    0.0000 C   0  0  0  0  0  0  0  0  0  0  0  0
    8.0946    6.9403    0.0000 C   0  0  0  0  0  0  0  0  0  0  0  0
    4.1909    3.5108    0.0000 C   0  0  0  0  0  0  0  0  0  0  0  0
   -1.6200   -2.0900    0.0000 C   0  0  0  0  0  0  0  0  0  0  0  0
   -4.2000   -2.0900    0.0000 C   0  0  0  0  0  0  0  0  0  0  0  0
    1.0100   -0.5600    0.0000 C   0  0  0  0  0  0  0  0  0  0  0  0
    3.7100    2.0900    0.0000 C   0  0  0  0  0  0  0  0  0  0  0  0
    2.2800    0.1600    0.0000 C   0  0  0  0  0  0  0  0  0  0  0  0
   -0.3200    0.1600    0.0000 C   0  0  0  0  0  0  0  0  0  0  0  0
   -1.6200   -0.5600    0.0000 C   0  0  0  0  0  0  0  0  0  0  0  0
    2.2800    1.6300    0.0000 C   0  0  0  0  0  0  0  0  0  0  0  0
   -5.4977   -2.8424    0.0000 O   0  0  0  0  0  0  0  0  0  0  0  0
   -5.4950   -4.3424    0.0000 Si  0  0  0  0  0  4  0  0  0  0  0  0
 10  9  1  0
 11  9  1  0
 13 12  1  0
 15 14  1  0
 18 16  1  0
 19 17  1  0
 21  1  1  0
 21  2  1  0
 21 10  1  0
 22  3  1  6
 22 11  1  0
 23 12  2  0
 23 20  1  0
 24 16  1  0
 24 20  1  0
 25 13  1  6
 26 14  1  1
 26 22  1  0
 27 15  1  1
 27 25  1  0
 28 17  1  1
 28 25  1  0
 29  4  1  1
 29 18  1  0
 29 23  1  0
 29 28  1  0
 30  5  1  1
 30 19  1  0
 30 26  1  0
 30 27  1  0
 24 31  1  1
 32  6  1  0
 32  7  1  0
 32  8  1  0
 32 31  1  0
M  END
>  <NAME>  (6256) 
5-CHOLESTEN-3BETA-YL TRIMETHYLSILYL ETHER

>  <SYNONYMS>  (6256) 
CHOLESTERYL TRIMETHYLSILYL ETHER

>  <SPECTRUM TYPE>  (6256) 
MS1

>  <INSTRUMENT TYPE>  (6256) 
EI-B

>  <INSTRUMENT>  (6256) 
SHIMADZU LKB-9000B

>  <ION MODE>  (6256) 
P

>  <INCHIKEY>  (6256) 
CBVJJGRSRFXUPK-OCBUSCMESA-N

>  <FORMULA>  (6256) 
C30H54OSi

>  <EXACT MASS>  (6256) 
458.39439287799996

>  <MW>  (6256) 
458

>  <ID>  (6256) 
JP001881

>  <CONTRIBUTOR>  (6256) 
University of Tokyo Team, {Faculty of Engineering, University of Tokyo

>  <COMMENT>  (6256) 
SMILES=C[Si](C)(C)OC([H])(C1)CCC(C([H])42)(C1=C([H])CC2(C(C3(C)CC4)([H])CCC3([H])C(C)CCCC(C)C)[H])C
InChI=InChI=1S/C30H54OSi/c1-21(2)10-9-11-22(3)26-14-15-27-25-13-12-23-20-24(31-32(6,7)8)16-18-29(23,4)28(25)17-19-30(26,27)5/h12,21-22,24-28H,9-11,13-20H2,1-8H3/t22-,24+,25+,26-,27+,28+,29+,30-/m1/s1
computed SMILES=O(C1CC2=CCC3C(CCC4(C)C(CCC34)C(C)CCCC(C)C)C2(C)CC1)[Si](C)(C)C
accession=JP001881
date=2016.01.19 (Created 2008.10.21, modified 2011.05.06)
author=SEYAMA Y, DEPT. OF PHYSIOL. CHEMISTRY AND NUTRITION, FAC. OF MEDICINE, UNIV. OF TOKYO
license=CC BY-NC-SA
exact mass=458.39439
ionization energy=70 eV
ion type=[M]+*
computed spectral entropy=4.556636836050453
computed normalized entropy=0.8675551451145812
SPLASH=splash10-004i-6913000000-e2f0bd0852200d0cdcd4
submitter=submitter = University of Tokyo Team (Faculty of Engineering, University of Tokyo)
MoNA Rating=3.75

>  <NUM PEAKS>  (6256) 
191

>  <MASS SPECTRAL PEAKS>  (6256) 
39 1.9
41 15.2
42 1.7
43 31.3
44 1.5
45 2.8
47 1.2
53 2.5
55 25.5
56 4.5
57 29.3
58 1.7
59 3.3
61 2.3
65 1
67 14
68 2.2
69 19.7
70 2.8
71 16.5
72 1.7
73 56.1
74 5.2
75 40
76 3.3
77 5.8
78 1.7
79 14
80 2.2
81 29
82 3.4
83 14.1
84 1.3
85 3.7
89 2.4
91 16.5
92 4
93 20.1
94 4.6
95 35.6
96 3.5
97 8.7
99 1.4
101 3.1
103 2.8
104 1.9
105 23
106 6.4
107 28.6
108 6.1
109 19
110 3
111 6.8
113 1.8
115 3.8
116 3.2
117 7.7
118 4
119 25.8
120 14.9
121 28.6
122 4.3
123 8.9
124 1.3
125 3.4
127 2.1
128 2
129 99.99
130 16.1
131 16.8
132 5.8
133 17.2
134 4.9
135 13.4
136 2.2
137 6.9
139 1.2
141 2.1
142 2.1
143 13.9
144 5
145 24.7
146 7.4
147 14.9
148 4.9
149 8.7
150 1.3
151 3.5
153 1.4
155 6
156 1.9
157 6.3
158 4.3
159 16
160 11.1
161 15
162 3.5
163 9.1
164 1.3
165 3.5
167 1.2
168 1.1
169 3.3
170 1
171 4.6
172 2
173 8.3
174 3.2
175 6.4
176 1.3
177 4.3
178 1
179 2.6
181 2.5
182 1.5
183 1.9
185 4.1
186 1.6
187 3.9
188 1.2
189 5.1
191 2.6
193 3.5
194 1.1
195 2
196 2.1
197 2.8
198 1
199 4.6
200 1.8
201 4.2
202 1
203 6.4
204 1.2
205 3
206 2.2
207 2.5
209 1.1
213 9.8
214 3.1
215 3.3
217 5.6
218 1.3
219 2.9
220 1.3
221 1.4
227 2.6
228 2.5
229 3.1
231 1.2
233 4.1
234 1
237 1.2
241 1.9
245 2.3
246 2.2
247 16.1
248 3.6
255 13.3
256 2.9
259 2.7
260 1.8
261 1.4
273 1.6
274 3
275 8.3
276 1.9
283 1.2
301 3.7
311 1
313 1.2
326 2.9
327 4.4
328 16.5
329 91
330 23.2
331 3.1
339 1.1
340 2.3
353 30.9
354 9.2
355 1.3
367 3.3
368 61.2
369 18
370 3
443 10
444 3.8
458 26.6
459 10.2
460 2.7

$$$$

     RDKit          2D

 40 43  0  0  1  0  0  0  0  0999 V2000
    9.5655    7.2342    0.0000 C   0  0  0  0  0  0  0  0  0  0  0  0
    7.1046    8.0672    0.0000 C   0  0  0  0  0  0  0  0  0  0  0  0
    3.2009    4.6377    0.0000 C   0  0  0  0  0  0  0  0  0  0  0  0
   -1.6125    0.9400    0.0000 C   0  0  0  0  0  0  0  0  0  0  0  0
    2.4507    3.1203    0.0000 C   0  0  0  0  0  0  0  0  0  0  0  0
    6.1427    5.2256    0.0000 C   0  0  0  0  0  0  0  0  0  0  0  0
    7.6137    5.5195    0.0000 C   0  0  0  0  0  0  0  0  0  0  0  0
    5.6618    3.8047    0.0000 C   0  0  0  0  0  0  0  0  0  0  0  0
   -0.3200   -2.8400    0.0000 C   0  0  0  0  0  0  0  0  0  0  0  0
    1.0100   -2.0900    0.0000 C   0  0  0  0  0  0  0  0  0  0  0  0
    4.5500    0.8800    0.0000 C   0  0  0  0  0  0  0  0  0  0  0  0
    3.7100   -0.3100    0.0000 C   0  0  0  0  0  0  0  0  0  0  0  0
   -4.2000   -0.5600    0.0000 C   0  0  0  0  0  0  0  0  0  0  0  0
   -0.3200    1.6300    0.0000 C   0  0  0  0  0  0  0  0  0  0  0  0
   -2.8900    0.1600    0.0000 C   0  0  0  0  0  0  0  0  0  0  0  0
    1.0100    2.3900    0.0000 C   0  0  0  0  0  0  0  0  0  0  0  0
   -2.8900   -2.8400    0.0000 C   0  0  0  0  0  0  0  0  0  0  0  0
    8.0946    6.9403    0.0000 C   0  0  0  0  0  0  0  0  0  0  0  0
    4.1909    3.5108    0.0000 C   0  0  0  0  0  0  0  0  0  0  0  0
   -1.6200   -2.0900    0.0000 C   0  0  0  0  0  0  0  0  0  0  0  0
   -4.2000   -2.0900    0.0000 C   0  0  0  0  0  0  0  0  0  0  0  0
    1.0100   -0.5600    0.0000 C   0  0  0  0  0  0  0  0  0  0  0  0
    3.7100    2.0900    0.0000 C   0  0  0  0  0  0  0  0  0  0  0  0
    2.2800    0.1600    0.0000 C   0  0  0  0  0  0  0  0  0  0  0  0
   -0.3200    0.1600    0.0000 C   0  0  0  0  0  0  0  0  0  0  0  0
   -5.4950   -4.3424    0.0000 C   0  0  0  0  0  0  0  0  0  0  0  0
   -1.6200   -0.5600    0.0000 C   0  0  0  0  0  0  0  0  0  0  0  0
    2.2800    1.6300    0.0000 C   0  0  0  0  0  0  0  0  0  0  0  0
   -6.7926   -5.0947    0.0000 C   0  0  0  0  0  0  0  0  0  0  0  0
   -6.7899   -6.5947    0.0000 C   0  0  0  0  0  0  0  0  0  0  0  0
   -8.0876   -7.3471    0.0000 C   0  0  0  0  0  0  0  0  0  0  0  0
   -7.3082   -3.6861    0.0000 F   0  0  0  0  0  0  0  0  0  0  0  0
   -8.2694   -5.3579    0.0000 F   0  0  0  0  0  0  0  0  0  0  0  0
   -6.2743   -8.0033    0.0000 F   0  0  0  0  0  0  0  0  0  0  0  0
   -5.3132   -6.3316    0.0000 F   0  0  0  0  0  0  0  0  0  0  0  0
   -8.8399   -6.0494    0.0000 F   0  0  0  0  0  0  0  0  0  0  0  0
   -9.3853   -8.0994    0.0000 F   0  0  0  0  0  0  0  0  0  0  0  0
   -7.3352   -8.6447    0.0000 F   0  0  0  0  0  0  0  0  0  0  0  0
   -4.1946   -5.0900    0.0000 O   0  0  0  0  0  0  0  0  0  0  0  0
   -5.4977   -2.8424    0.0000 O   0  0  0  0  0  0  0  0  0  0  0  0
  7  6  1  0
  8  6  1  0
 10  9  1  0
 12 11  1  0
 15 13  1  0
 16 14  1  0
 18  1  1  0
 18  2  1  0
 18  7  1  0
 19  3  1  6
 19  8  1  0
 20  9  2  0
 20 17  1  0
 21 13  1  0
 21 17  1  0
 22 10  1  0
 23 11  1  0
 23 19  1  0
 24 12  1  0
 24 22  1  0
 25 14  1  0
 25 22  1  0
 27  4  1  1
 27 15  1  0
 27 20  1  0
 27 25  1  0
 28  5  1  1
 28 16  1  0
 28 23  1  0
 28 24  1  0
 29 26  1  0
 30 29  1  0
 31 30  1  0
 32 29  1  0
 33 29  1  0
 34 30  1  0
 35 30  1  0
 36 31  1  0
 37 31  1  0
 38 31  1  0
 39 26  2  0
 21 40  1  1
 40 26  1  0
M  END
>  <NAME>  (6257) 
5-CHOLESTEN-3BETA-YL HEPTAFLUOROBUTYRATE

>  <SYNONYMS>  (6257) 
CHOLESTERYL HEPTAFLUOROBUTYRATE

>  <SPECTRUM TYPE>  (6257) 
MS1

>  <INSTRUMENT TYPE>  (6257) 
EI-B

>  <INSTRUMENT>  (6257) 
SHIMADZU LKB-9000B

>  <ION MODE>  (6257) 
P

>  <INCHIKEY>  (6257) 
UGFHVHIEZCURFA-IINHWNONSA-N

>  <FORMULA>  (6257) 
C31H45F7O2

>  <EXACT MASS>  (6257) 
582.3307782200001

>  <MW>  (6257) 
582

>  <ID>  (6257) 
JP001880

>  <CONTRIBUTOR>  (6257) 
University of Tokyo Team, {Faculty of Engineering, University of Tokyo

>  <COMMENT>  (6257) 
SMILES=C(C14)CC(C(CCC(C34)C(C)(C(=CC3)2)CCC(OC(=O)C(C(C(F)(F)F)(F)F)(F)F)(C2)[H])1C)C(CCCC(C)C)C
InChI=InChI=1S/C31H45F7O2/c1-18(2)7-6-8-19(3)23-11-12-24-22-10-9-20-17-21(13-15-27(20,4)25(22)14-16-28(23,24)5)40-26(39)29(32,33)30(34,35)31(36,37)38/h9,18-19,21-25H,6-8,10-17H2,1-5H3/t19-,21+,22?,23?,24?,25?,27+,28-/m1/s1
computed SMILES=O=C(OC1CC2=CCC3C(CCC4(C)C(CCC34)C(C)CCCC(C)C)C2(C)CC1)C(F)(F)C(F)(F)C(F)(F)F
accession=JP001880
date=2016.01.19 (Created 2008.10.21, modified 2011.05.06)
author=SEYAMA Y, DEPT. OF PHYSIOL. CHEMISTRY AND NUTRITION, FAC. OF MEDICINE, UNIV. OF TOKYO
license=CC BY-NC-SA
exact mass=582.33078
ionization energy=70 eV
ion type=[M]+*
computed spectral entropy=4.269988098300634
computed normalized entropy=0.8772383928173286
SPLASH=splash10-014i-5924000000-8e34341609e8159897e7
submitter=submitter = University of Tokyo Team (Faculty of Engineering, University of Tokyo)
MoNA Rating=3.75

>  <NUM PEAKS>  (6257) 
130

>  <MASS SPECTRAL PEAKS>  (6257) 
41 4.2
43 9.8
53 2.2
55 19.8
56 2.3
57 18.4
58 1
65 1
67 13.7
68 2.4
69 14.8
70 1.4
71 9.5
77 3.8
78 1.3
79 12.6
80 2.6
81 24.5
82 3.1
83 8.1
85 1.9
91 14.9
92 4.4
93 16.5
94 5.2
95 20
96 2.1
97 4.6
100 1
103 1.3
104 1.5
105 19.1
106 6.2
107 17.6
108 6.6
109 10.3
110 1.6
111 2.8
115 1.7
116 1.1
117 6.8
118 3.6
119 11.5
120 11.2
121 10.8
122 2.9
123 5.5
125 1
128 2.1
129 4.1
130 2.5
131 10.4
132 3.2
133 13.6
134 4
135 10.1
136 2.1
137 2
141 1.3
142 1.7
143 12
144 4.5
145 23.9
146 6.8
147 18.2
148 4.4
149 5.3
150 1.1
151 1.4
155 1
157 6.1
158 8.4
159 12.6
160 7.4
161 7.6
162 2
163 4.3
165 1.2
169 2.3
171 4
172 1.8
173 4.1
174 1.6
175 2.1
177 1.1
185 3.9
186 1.4
187 2.2
191 1.2
193 1.4
197 1.5
199 6
200 2.1
201 2.5
205 2.3
206 2.1
213 18.1
214 6.3
215 3.5
216 1
227 2.1
228 8.3
229 3
241 1.3
245 1.3
246 1.3
247 11.7
248 2.9
255 11.7
256 2.6
259 1.3
260 9.1
261 3.3
274 1.1
275 4.3
276 1.1
283 1.5
301 1.2
326 1.5
339 1.2
353 15
354 4.7
368 99.99
369 34.4
370 6.2
427 4.2
428 1.9
469 2.6
567 1.2
582 1

$$$$

     RDKit          2D

 49 52  0  0  1  0  0  0  0  0999 V2000
    3.1899    4.8613    0.0000 C   0  0  0  0  0  0  0  0  0  0  0  0
    2.4540    3.3421    0.0000 C   0  0  0  0  0  0  0  0  0  0  0  0
   -1.6000    1.1000    0.0000 C   0  0  0  0  0  0  0  0  0  0  0  0
    5.6608    4.0584    0.0000 C   0  0  0  0  0  0  0  0  0  0  0  0
    4.6100    1.1000    0.0000 C   0  0  0  0  0  0  0  0  0  0  0  0
    3.7300   -0.1100    0.0000 C   0  0  0  0  0  0  0  0  0  0  0  0
    6.1243    5.4850    0.0000 C   0  0  0  0  0  0  0  0  0  0  0  0
   -4.2000   -0.4000    0.0000 C   0  0  0  0  0  0  0  0  0  0  0  0
   -0.3000    1.8500    0.0000 C   0  0  0  0  0  0  0  0  0  0  0  0
   -2.9000    0.3500    0.0000 C   0  0  0  0  0  0  0  0  0  0  0  0
    1.0000    2.6000    0.0000 C   0  0  0  0  0  0  0  0  0  0  0  0
   -2.9000   -2.6500    0.0000 C   0  0  0  0  0  0  0  0  0  0  0  0
    1.0000   -1.9000    0.0000 C   0  0  0  0  0  0  0  0  0  0  0  0
    4.1936    3.7466    0.0000 C   0  0  0  0  0  0  0  0  0  0  0  0
   -4.2000   -1.9000    0.0000 C   0  0  0  0  0  0  0  0  0  0  0  0
    1.0000   -0.4000    0.0000 C   0  0  0  0  0  0  0  0  0  0  0  0
    3.7300    2.3200    0.0000 C   0  0  0  0  0  0  0  0  0  0  0  0
    2.3000    0.3500    0.0000 C   0  0  0  0  0  0  0  0  0  0  0  0
   -0.3000    0.3500    0.0000 C   0  0  0  0  0  0  0  0  0  0  0  0
   -1.6000   -1.9000    0.0000 C   0  0  0  0  0  0  0  0  0  0  0  0
   -0.3000   -2.6500    0.0000 C   0  0  0  0  0  0  0  0  0  0  0  0
    7.5916    5.7968    0.0000 C   0  0  0  0  0  0  0  0  0  0  0  0
    9.5224    7.5352    0.0000 C   0  0  0  0  0  0  0  0  0  0  0  0
   -5.4987   -4.1502    0.0000 C   0  0  0  0  0  0  0  0  0  0  0  0
   -1.5990   -4.9000    0.0000 C   0  0  0  0  0  0  0  0  0  0  0  0
    2.3000    1.8500    0.0000 C   0  0  0  0  0  0  0  0  0  0  0  0
   -1.6000   -0.4000    0.0000 C   0  0  0  0  0  0  0  0  0  0  0  0
    9.9859    8.9618    0.0000 C   0  0  0  0  0  0  0  0  0  0  0  0
   10.5260    6.4205    0.0000 C   0  0  0  0  0  0  0  0  0  0  0  0
   -6.7976   -4.9004    0.0000 C   0  0  0  0  0  0  0  0  0  0  0  0
   -1.5990   -6.4000    0.0000 C   0  0  0  0  0  0  0  0  0  0  0  0
   11.4125    8.4983    0.0000 F   0  0  0  0  0  0  0  0  0  0  0  0
   10.4495   10.3884    0.0000 F   0  0  0  0  0  0  0  0  0  0  0  0
    8.5593    9.4254    0.0000 F   0  0  0  0  0  0  0  0  0  0  0  0
    9.0281    6.4990    0.0000 F   0  0  0  0  0  0  0  0  0  0  0  0
   10.8379    4.9533    0.0000 F   0  0  0  0  0  0  0  0  0  0  0  0
   11.8625    7.1015    0.0000 F   0  0  0  0  0  0  0  0  0  0  0  0
   -7.5478   -3.6015    0.0000 F   0  0  0  0  0  0  0  0  0  0  0  0
   -8.0965   -5.6506    0.0000 F   0  0  0  0  0  0  0  0  0  0  0  0
   -6.0474   -6.1993    0.0000 F   0  0  0  0  0  0  0  0  0  0  0  0
   -3.0990   -6.4000    0.0000 F   0  0  0  0  0  0  0  0  0  0  0  0
   -1.5990   -7.9000    0.0000 F   0  0  0  0  0  0  0  0  0  0  0  0
   -0.0990   -6.4000    0.0000 F   0  0  0  0  0  0  0  0  0  0  0  0
    8.5952    4.6821    0.0000 O   0  0  0  0  0  0  0  0  0  0  0  0
   -4.1995   -4.9000    0.0000 O   0  0  0  0  0  0  0  0  0  0  0  0
   -2.8981   -4.1500    0.0000 O   0  0  0  0  0  0  0  0  0  0  0  0
   -5.4989   -2.6502    0.0000 O   0  0  0  0  0  0  0  0  0  0  0  0
   -0.3000   -4.1500    0.0000 O   0  0  0  0  0  0  0  0  0  0  0  0
    8.0551    7.2234    0.0000 O   0  0  0  0  0  0  0  0  0  0  0  0
  6  5  1  0
  7  4  1  0
 10  8  1  0
 11  9  1  0
 14  1  1  6
 14  4  1  0
 15  8  1  0
 15 12  1  0
 16 13  1  6
 17  5  1  1
 17 14  1  0
 18  6  1  1
 18 16  1  0
 19  9  1  1
 19 16  1  0
 20 12  1  6
 21 13  1  0
 21 20  1  0
 22  7  1  0
 26  2  1  1
 26 11  1  0
 26 17  1  0
 26 18  1  0
 27  3  1  1
 27 10  1  0
 27 19  1  0
 27 20  1  0
 28 23  1  0
 29 23  1  0
 30 24  1  0
 31 25  1  0
 32 28  1  0
 33 28  1  0
 34 28  1  0
 35 29  1  0
 36 29  1  0
 37 29  1  0
 38 30  1  0
 39 30  1  0
 40 30  1  0
 41 31  1  0
 42 31  1  0
 43 31  1  0
 44 22  2  0
 45 24  2  0
 46 25  2  0
 15 47  1  6
 47 24  1  0
 21 48  1  1
 48 25  1  0
 49 22  1  0
 49 23  1  0
M  END
>  <NAME>  (6258) 
HEXAFLUOROISOPROPYL 3ALPHA,6BETA-BIS(TRIFLUOROACETOXY)-5BETA-CHOLAN-24-OATE

>  <SYNONYMS>  (6258) 


>  <SPECTRUM TYPE>  (6258) 
MS1

>  <INSTRUMENT TYPE>  (6258) 
EI-B

>  <INSTRUMENT>  (6258) 
SHIMADZU LKB-9000B

>  <ION MODE>  (6258) 
P

>  <INCHIKEY>  (6258) 
KYEKUHZLTCKTMI-DKMDMZSLSA-N

>  <FORMULA>  (6258) 
C31H38F12O6

>  <EXACT MASS>  (6258) 
734.247677576

>  <MW>  (6258) 
734

>  <ID>  (6258) 
JP001879

>  <CONTRIBUTOR>  (6258) 
University of Tokyo Team, {Faculty of Engineering, University of Tokyo

>  <COMMENT>  (6258) 
SMILES=C(CC(OC(C(F)(F)F)C(F)(F)F)=O)C(C(C4)(C(C3(C4)[H])(C)CCC(C3([H])1)(C(C)(C2)C(CC(C2)OC(C(F)(F)F)=O)([H])C(C1)OC(=O)C(F)(F)F)[H])[H])([H])C
InChI=InChI=1S/C31H38F12O6/c1-14(4-7-22(44)49-23(28(32,33)34)29(35,36)37)17-5-6-18-16-13-21(48-25(46)31(41,42)43)20-12-15(47-24(45)30(38,39)40)8-10-27(20,3)19(16)9-11-26(17,18)2/h14-21,23H,4-13H2,1-3H3/t14-,15-,16+,17-,18+,19+,20+,21-,26-,27-/m1/s1
computed SMILES=O=C(OC(C(F)(F)F)C(F)(F)F)CCC(C)C1CCC2C3CC(OC(=O)C(F)(F)F)C4CC(OC(=O)C(F)(F)F)CCC4(C)C3CCC12C
accession=JP001879
date=2016.01.19 (Created 2008.10.21, modified 2011.05.06)
author=SEYAMA Y, DEPT. OF PHYSIOL. CHEMISTRY AND NUTRITION, FAC. OF MEDICINE, UNIV. OF TOKYO
license=CC BY-NC-SA
exact mass=734.24768
ionization energy=70 eV
ion type=[M]+*
computed spectral entropy=4.440883500375841
computed normalized entropy=0.8677000526264455
SPLASH=splash10-0694-9723000000-c02e57551e54c10ef40a
submitter=submitter = University of Tokyo Team (Faculty of Engineering, University of Tokyo)
MoNA Rating=3.75

>  <NUM PEAKS>  (6258) 
167

>  <MASS SPECTRAL PEAKS>  (6258) 
39 4.4
41 27.9
42 3.5
43 18.5
45 2.2
50 2.6
51 3.2
53 9.2
54 4.5
55 99.99
56 6.9
57 7.9
59 4.3
63 1
65 5.1
66 3.6
67 48.2
68 69.4
69 44.5
70 3.1
71 2.2
77 10.7
78 3.7
79 18.1
80 6.1
81 42.4
82 14.5
83 22.1
84 1.5
85 6.8
89 1.2
91 31.6
92 10.5
93 50.1
94 14.1
95 59.9
96 2.8
97 7.9
98 1.1
99 1.5
100 1.1
103 1.7
104 2.3
105 38.3
106 13
107 36.4
108 13.1
109 19.6
110 3
111 3.6
113 2
114 2.4
115 2.6
116 1.2
117 10
118 7.2
119 28.9
120 16.7
121 20
122 7.2
123 11.2
124 1
125 1.1
127 3.1
128 2.3
129 5.6
130 2.5
131 16.4
132 5.2
133 19.5
134 58.4
135 18.5
136 3.3
137 7.2
141 2.6
142 1.5
143 15.9
144 5.2
145 24.1
146 5.7
147 16.5
148 9
149 6.3
151 1.9
153 1.4
155 1.2
156 1
157 9.7
158 5.9
159 17.2
160 7.4
161 8.9
162 2.3
163 2.1
169 1.5
170 1.1
171 7.8
172 5.1
173 10.3
174 4.2
175 2.8
181 1.9
183 1.7
185 6.3
186 4.8
187 6.2
188 1
195 1.8
197 1.6
199 12.9
200 3.8
201 4.1
209 5.3
210 4.7
211 1.6
212 1
213 41.6
214 20.5
215 8.9
216 6.2
217 1.2
221 2
223 1.1
227 3.3
228 25.2
229 8
233 1.1
235 2.8
241 1
247 1.3
251 1.6
255 4.9
277 1.5
290 17.1
291 2.5
313 2.4
314 1
315 3.2
327 47.1
328 68.6
329 22
330 17.4
331 4.6
339 3.7
341 1.2
342 50
343 12
344 2.3
345 3.9
355 1.7
356 1.9
369 4.1
385 1.4
435 1.6
453 1.7
487 3.1
491 7.2
492 1.9
506 7.6
507 15.1
508 3.9
549 6.6
550 1.7
605 2.5
620 46.6
621 15.5
622 2.2

$$$$

     RDKit          2D

 56 59  0  0  1  0  0  0  0  0999 V2000
    3.1130    4.9420    0.0000 C   0  0  0  0  0  0  0  0  0  0  0  0
    2.3787    3.4316    0.0000 C   0  0  0  0  0  0  0  0  0  0  0  0
   -1.6800    1.1900    0.0000 C   0  0  0  0  0  0  0  0  0  0  0  0
    5.5829    4.1361    0.0000 C   0  0  0  0  0  0  0  0  0  0  0  0
    4.5300    1.1900    0.0000 C   0  0  0  0  0  0  0  0  0  0  0  0
    3.6500   -0.0200    0.0000 C   0  0  0  0  0  0  0  0  0  0  0  0
    6.0482    5.5621    0.0000 C   0  0  0  0  0  0  0  0  0  0  0  0
   -4.2800   -0.3100    0.0000 C   0  0  0  0  0  0  0  0  0  0  0  0
   -0.3800    1.9400    0.0000 C   0  0  0  0  0  0  0  0  0  0  0  0
   -2.9800    0.4400    0.0000 C   0  0  0  0  0  0  0  0  0  0  0  0
    0.9200    2.6900    0.0000 C   0  0  0  0  0  0  0  0  0  0  0  0
   -2.9800   -2.5600    0.0000 C   0  0  0  0  0  0  0  0  0  0  0  0
    4.1153    3.8260    0.0000 C   0  0  0  0  0  0  0  0  0  0  0  0
   -4.2800   -1.8100    0.0000 C   0  0  0  0  0  0  0  0  0  0  0  0
    3.6500    2.4000    0.0000 C   0  0  0  0  0  0  0  0  0  0  0  0
    2.2200    0.4400    0.0000 C   0  0  0  0  0  0  0  0  0  0  0  0
   -0.3800    0.4400    0.0000 C   0  0  0  0  0  0  0  0  0  0  0  0
   -1.6800   -1.8100    0.0000 C   0  0  0  0  0  0  0  0  0  0  0  0
    7.5158    5.8722    0.0000 C   0  0  0  0  0  0  0  0  0  0  0  0
    0.9200   -0.3100    0.0000 C   0  0  0  0  0  0  0  0  0  0  0  0
   -0.3800   -2.5600    0.0000 C   0  0  0  0  0  0  0  0  0  0  0  0
    0.9200   -1.8100    0.0000 C   0  0  0  0  0  0  0  0  0  0  0  0
    9.4486    7.6082    0.0000 C   0  0  0  0  0  0  0  0  0  0  0  0
   -5.5787   -4.0602    0.0000 C   0  0  0  0  0  0  0  0  0  0  0  0
   -1.6790   -4.8100    0.0000 C   0  0  0  0  0  0  0  0  0  0  0  0
    2.2187   -4.0602    0.0000 C   0  0  0  0  0  0  0  0  0  0  0  0
    2.2200    1.9400    0.0000 C   0  0  0  0  0  0  0  0  0  0  0  0
   -1.6800   -0.3100    0.0000 C   0  0  0  0  0  0  0  0  0  0  0  0
    9.9139    9.0343    0.0000 C   0  0  0  0  0  0  0  0  0  0  0  0
   10.4510    6.4923    0.0000 C   0  0  0  0  0  0  0  0  0  0  0  0
   -6.8776   -4.8104    0.0000 C   0  0  0  0  0  0  0  0  0  0  0  0
   -1.6790   -6.3100    0.0000 C   0  0  0  0  0  0  0  0  0  0  0  0
    3.5176   -4.8104    0.0000 C   0  0  0  0  0  0  0  0  0  0  0  0
   11.3399    8.5690    0.0000 F   0  0  0  0  0  0  0  0  0  0  0  0
   10.3792   10.4603    0.0000 F   0  0  0  0  0  0  0  0  0  0  0  0
    8.4879    9.4995    0.0000 F   0  0  0  0  0  0  0  0  0  0  0  0
    8.9531    6.5726    0.0000 F   0  0  0  0  0  0  0  0  0  0  0  0
   10.7610    5.0247    0.0000 F   0  0  0  0  0  0  0  0  0  0  0  0
   11.7883    7.1716    0.0000 F   0  0  0  0  0  0  0  0  0  0  0  0
   -7.6278   -3.5115    0.0000 F   0  0  0  0  0  0  0  0  0  0  0  0
   -8.1765   -5.5606    0.0000 F   0  0  0  0  0  0  0  0  0  0  0  0
   -6.1274   -6.1093    0.0000 F   0  0  0  0  0  0  0  0  0  0  0  0
   -3.1790   -6.3100    0.0000 F   0  0  0  0  0  0  0  0  0  0  0  0
   -1.6790   -7.8100    0.0000 F   0  0  0  0  0  0  0  0  0  0  0  0
   -0.1790   -6.3100    0.0000 F   0  0  0  0  0  0  0  0  0  0  0  0
    2.7674   -6.1093    0.0000 F   0  0  0  0  0  0  0  0  0  0  0  0
    4.8165   -5.5606    0.0000 F   0  0  0  0  0  0  0  0  0  0  0  0
    4.2678   -3.5115    0.0000 F   0  0  0  0  0  0  0  0  0  0  0  0
    8.5181    4.7562    0.0000 O   0  0  0  0  0  0  0  0  0  0  0  0
   -4.2795   -4.8100    0.0000 O   0  0  0  0  0  0  0  0  0  0  0  0
   -2.9781   -4.0600    0.0000 O   0  0  0  0  0  0  0  0  0  0  0  0
    0.9195   -4.8100    0.0000 O   0  0  0  0  0  0  0  0  0  0  0  0
   -5.5789   -2.5602    0.0000 O   0  0  0  0  0  0  0  0  0  0  0  0
    7.9810    7.2982    0.0000 O   0  0  0  0  0  0  0  0  0  0  0  0
   -0.3800   -4.0600    0.0000 O   0  0  0  0  0  0  0  0  0  0  0  0
    2.2189   -2.5602    0.0000 O   0  0  0  0  0  0  0  0  0  0  0  0
  6  5  1  0
  7  4  1  0
 10  8  1  0
 11  9  1  0
 13  1  1  6
 13  4  1  0
 14  8  1  0
 14 12  1  0
 15  5  1  1
 15 13  1  0
 16  6  1  1
 17  9  1  1
 18 12  1  6
 19  7  1  0
 20 16  1  0
 20 17  1  0
 21 18  1  0
 20 22  1  6
 22 21  1  0
 27  2  1  1
 27 11  1  0
 27 15  1  0
 27 16  1  0
 28  3  1  1
 28 10  1  0
 28 17  1  0
 28 18  1  0
 29 23  1  0
 30 23  1  0
 31 24  1  0
 32 25  1  0
 33 26  1  0
 34 29  1  0
 35 29  1  0
 36 29  1  0
 37 30  1  0
 38 30  1  0
 39 30  1  0
 40 31  1  0
 41 31  1  0
 42 31  1  0
 43 32  1  0
 44 32  1  0
 45 32  1  0
 46 33  1  0
 47 33  1  0
 48 33  1  0
 49 19  2  0
 50 24  2  0
 51 25  2  0
 52 26  2  0
 14 53  1  6
 53 24  1  0
 54 19  1  0
 54 23  1  0
 21 55  1  1
 55 25  1  0
 22 56  1  1
 56 26  1  0
M  END
>  <NAME>  (6259) 
HEXAFLUOROISOPROPYL 3ALPHA,6BETA,7BETA-TRIS(TRIFLUOROACETOXY)-5BETA-CHOLAN-24-OATE

>  <SYNONYMS>  (6259) 
HEXAFLUOROISOPROPYL 3,6,7-TRIS(O-TRIFLUOROACETYL) BETA-MURICHOLATE

>  <SPECTRUM TYPE>  (6259) 
MS1

>  <INSTRUMENT TYPE>  (6259) 
EI-B

>  <INSTRUMENT>  (6259) 
SHIMADZU LKB-9000B

>  <ION MODE>  (6259) 
P

>  <INCHIKEY>  (6259) 
ZMQPGXCUJGKHOP-UDFIMFMKSA-N

>  <FORMULA>  (6259) 
C33H37F15O8

>  <EXACT MASS>  (6259) 
846.224891444

>  <MW>  (6259) 
846

>  <ID>  (6259) 
JP001878

>  <CONTRIBUTOR>  (6259) 
University of Tokyo Team, {Faculty of Engineering, University of Tokyo

>  <COMMENT>  (6259) 
SMILES=C(C(OC(C(F)(F)F)=O)3)(C(C(C(C4)(C3(CC(C4)OC(C(F)(F)F)=O)[H])C)2[H])(C(C1)(C(C)(CC2)C([H])(C1)C(CCC(=O)OC(C(F)(F)F)C(F)(F)F)([H])C)[H])[H])OC(C(F)(F)F)=O
InChI=InChI=1S/C33H37F15O8/c1-13(4-7-19(49)54-23(29(34,35)36)30(37,38)39)15-5-6-16-20-17(9-11-27(15,16)2)28(3)10-8-14(53-24(50)31(40,41)42)12-18(28)21(55-25(51)32(43,44)45)22(20)56-26(52)33(46,47)48/h13-18,20-23H,4-12H2,1-3H3/t13-,14-,15-,16+,17+,18+,20+,21+,22-,27-,28-/m1/s1
computed SMILES=O=C(OC(C(F)(F)F)C(F)(F)F)CCC(C)C1CCC2C3C(OC(=O)C(F)(F)F)C(OC(=O)C(F)(F)F)C4CC(OC(=O)C(F)(F)F)CCC4(C)C3CCC12C
accession=JP001878
date=2016.01.19 (Created 2008.10.21, modified 2011.05.06)
author=SEYAMA Y, DEPT. OF PHYSIOL. CHEMISTRY AND NUTRITION, FAC. OF MEDICINE, UNIV. OF TOKYO
license=CC BY-NC-SA
exact mass=846.22489
ionization energy=70 eV
ion type=[M]+*
computed spectral entropy=4.839442252131519
computed normalized entropy=0.883680171745995
SPLASH=splash10-05mo-9521000000-9e6ca167b5f3e6d3453f
submitter=submitter = University of Tokyo Team (Faculty of Engineering, University of Tokyo)
MoNA Rating=3.75

>  <NUM PEAKS>  (6259) 
239

>  <MASS SPECTRAL PEAKS>  (6259) 
38 1.4
39 15.4
40 7.7
41 35.8
42 3.8
43 19.9
44 13.8
45 6.9
47 9.4
49 1.1
50 3.4
51 6.4
53 8.5
54 4.9
55 99.99
56 7.7
57 12
59 16
60 1.2
63 1
64 1.2
65 7.6
66 3
67 38.8
68 41.8
69 52.7
70 4.8
71 2.4
73 7.1
75 2.2
76 1
77 20.6
78 15.8
79 30.4
80 8.5
81 66.8
82 21.9
83 27.2
84 2.2
85 12.2
89 1.3
91 24.6
92 6.3
93 38.7
94 14.2
95 54.2
96 10.1
97 8.1
98 1.7
99 2.4
103 2.1
104 2
105 26.5
106 6.5
107 30.6
108 10.3
109 18.1
110 5.3
111 3.2
112 1
113 2.7
115 2.9
116 1.4
117 10.4
118 5.3
119 17.7
120 4.6
121 12.5
122 3.2
123 7.5
124 1.6
125 2.3
126 2.5
127 1.6
128 3
129 7.3
130 2.7
131 12.8
132 5
133 14.1
134 3.4
135 9.2
136 1.7
137 21.7
138 5.6
139 2.7
141 4.1
142 2.7
143 10.8
144 3.7
145 15.5
146 5.1
147 9.7
148 1.9
149 4.5
151 2.5
153 2.3
154 1.3
155 6.8
156 2.6
157 14.7
158 4.7
159 18.8
160 4
161 3.8
163 1.4
165 1.3
167 1.5
168 1.1
169 6.4
170 2.1
171 8.1
172 2.4
173 4.5
174 1
175 1.8
177 1.2
179 1.1
181 2.7
183 5
184 2
185 6.4
186 1.4
187 2.8
189 1
191 1.3
195 3.3
196 1.2
197 7.1
198 2.6
199 6.1
200 1.7
201 2.4
202 1.1
203 1.7
205 1.1
207 10.1
208 2
209 6.4
210 6
211 11.4
212 10.2
213 18.3
214 4.9
215 14
216 2.2
217 3.2
219 3.5
221 3
223 1.9
225 3.5
226 5.8
227 6.9
228 1.4
229 1.7
231 1.5
232 4.7
233 4.5
235 4.6
237 8.8
238 1.4
239 3.6
240 1.2
241 1.1
243 1.2
246 1.7
247 2.2
249 1.1
251 5.1
252 1.1
253 10.9
254 2.5
255 1.1
257 1.9
264 3.4
271 3.1
273 1
276 1.5
277 3.9
278 1.8
281 2.6
283 1.9
285 1.6
290 35.8
291 6.8
292 1.2
293 2.5
297 2.3
304 2.1
311 9.8
312 2.1
313 2.5
314 1.2
315 1.6
318 1.5
325 6.8
326 16.5
327 18.9
328 7
329 2.4
331 1.8
337 1.2
339 1.5
340 9.9
341 6.9
342 1.5
343 1.4
344 2.9
345 2.2
346 2.1
353 2.6
354 4.2
355 2
367 20.6
368 4.6
385 1.5
395 7.5
396 2.2
410 1.9
439 8.9
440 46.4
441 10.5
442 1.1
454 3.2
481 5.8
485 1.8
489 3.3
503 2
504 9.9
505 12.8
506 3.3
547 1.3
603 3.8
604 1.1
618 27.9
619 16.2
620 4.5
661 5.4
662 1.5

$$$$

     RDKit          2D

 49 52  0  0  1  0  0  0  0  0999 V2000
    3.1899    4.8613    0.0000 C   0  0  0  0  0  0  0  0  0  0  0  0
    2.4540    3.3421    0.0000 C   0  0  0  0  0  0  0  0  0  0  0  0
   -1.6000    1.1000    0.0000 C   0  0  0  0  0  0  0  0  0  0  0  0
    5.6608    4.0584    0.0000 C   0  0  0  0  0  0  0  0  0  0  0  0
    4.6100    1.1000    0.0000 C   0  0  0  0  0  0  0  0  0  0  0  0
    3.7300   -0.1100    0.0000 C   0  0  0  0  0  0  0  0  0  0  0  0
    6.1243    5.4850    0.0000 C   0  0  0  0  0  0  0  0  0  0  0  0
   -4.2000   -0.4000    0.0000 C   0  0  0  0  0  0  0  0  0  0  0  0
   -0.3000    1.8500    0.0000 C   0  0  0  0  0  0  0  0  0  0  0  0
   -2.9000    0.3500    0.0000 C   0  0  0  0  0  0  0  0  0  0  0  0
    1.0000    2.6000    0.0000 C   0  0  0  0  0  0  0  0  0  0  0  0
   -2.9000   -2.6500    0.0000 C   0  0  0  0  0  0  0  0  0  0  0  0
    1.0000   -1.9000    0.0000 C   0  0  0  0  0  0  0  0  0  0  0  0
    4.1936    3.7466    0.0000 C   0  0  0  0  0  0  0  0  0  0  0  0
   -4.2000   -1.9000    0.0000 C   0  0  0  0  0  0  0  0  0  0  0  0
    1.0000   -0.4000    0.0000 C   0  0  0  0  0  0  0  0  0  0  0  0
    3.7300    2.3200    0.0000 C   0  0  0  0  0  0  0  0  0  0  0  0
    2.3000    0.3500    0.0000 C   0  0  0  0  0  0  0  0  0  0  0  0
   -0.3000    0.3500    0.0000 C   0  0  0  0  0  0  0  0  0  0  0  0
   -1.6000   -1.9000    0.0000 C   0  0  0  0  0  0  0  0  0  0  0  0
   -0.3000   -2.6500    0.0000 C   0  0  0  0  0  0  0  0  0  0  0  0
    7.5916    5.7968    0.0000 C   0  0  0  0  0  0  0  0  0  0  0  0
    9.5224    7.5352    0.0000 C   0  0  0  0  0  0  0  0  0  0  0  0
   -5.4987   -4.1502    0.0000 C   0  0  0  0  0  0  0  0  0  0  0  0
   -1.5990   -4.9000    0.0000 C   0  0  0  0  0  0  0  0  0  0  0  0
    2.3000    1.8500    0.0000 C   0  0  0  0  0  0  0  0  0  0  0  0
   -1.6000   -0.4000    0.0000 C   0  0  0  0  0  0  0  0  0  0  0  0
    9.9859    8.9618    0.0000 C   0  0  0  0  0  0  0  0  0  0  0  0
   10.5260    6.4205    0.0000 C   0  0  0  0  0  0  0  0  0  0  0  0
   -6.7976   -4.9004    0.0000 C   0  0  0  0  0  0  0  0  0  0  0  0
   -1.5990   -6.4000    0.0000 C   0  0  0  0  0  0  0  0  0  0  0  0
   11.4125    8.4983    0.0000 F   0  0  0  0  0  0  0  0  0  0  0  0
   10.4495   10.3884    0.0000 F   0  0  0  0  0  0  0  0  0  0  0  0
    8.5593    9.4254    0.0000 F   0  0  0  0  0  0  0  0  0  0  0  0
    9.0281    6.4990    0.0000 F   0  0  0  0  0  0  0  0  0  0  0  0
   10.8379    4.9533    0.0000 F   0  0  0  0  0  0  0  0  0  0  0  0
   11.8625    7.1015    0.0000 F   0  0  0  0  0  0  0  0  0  0  0  0
   -7.5478   -3.6015    0.0000 F   0  0  0  0  0  0  0  0  0  0  0  0
   -8.0965   -5.6506    0.0000 F   0  0  0  0  0  0  0  0  0  0  0  0
   -6.0474   -6.1993    0.0000 F   0  0  0  0  0  0  0  0  0  0  0  0
   -3.0990   -6.4000    0.0000 F   0  0  0  0  0  0  0  0  0  0  0  0
   -1.5990   -7.9000    0.0000 F   0  0  0  0  0  0  0  0  0  0  0  0
   -0.0990   -6.4000    0.0000 F   0  0  0  0  0  0  0  0  0  0  0  0
    8.5952    4.6821    0.0000 O   0  0  0  0  0  0  0  0  0  0  0  0
   -4.1995   -4.9000    0.0000 O   0  0  0  0  0  0  0  0  0  0  0  0
   -2.8981   -4.1500    0.0000 O   0  0  0  0  0  0  0  0  0  0  0  0
   -5.4989   -2.6502    0.0000 O   0  0  0  0  0  0  0  0  0  0  0  0
   -0.3000   -4.1500    0.0000 O   0  0  0  0  0  0  0  0  0  0  0  0
    8.0551    7.2234    0.0000 O   0  0  0  0  0  0  0  0  0  0  0  0
  6  5  1  0
  7  4  1  0
 10  8  1  0
 11  9  1  0
 14  1  1  6
 14  4  1  0
 15  8  1  0
 15 12  1  0
 16 13  1  6
 17  5  1  1
 17 14  1  0
 18  6  1  1
 18 16  1  0
 19  9  1  1
 19 16  1  0
 20 12  1  6
 21 13  1  0
 21 20  1  0
 22  7  1  0
 26  2  1  1
 26 11  1  0
 26 17  1  0
 26 18  1  0
 27  3  1  1
 27 10  1  0
 27 19  1  0
 27 20  1  0
 28 23  1  0
 29 23  1  0
 30 24  1  0
 31 25  1  0
 32 28  1  0
 33 28  1  0
 34 28  1  0
 35 29  1  0
 36 29  1  0
 37 29  1  0
 38 30  1  0
 39 30  1  0
 40 30  1  0
 41 31  1  0
 42 31  1  0
 43 31  1  0
 44 22  2  0
 45 24  2  0
 46 25  2  0
 15 47  1  6
 47 24  1  0
 21 48  1  6
 48 25  1  0
 49 22  1  0
 49 23  1  0
M  END
>  <NAME>  (6260) 
HEXAFLUOROISOPROPYL 3ALPHA,6ALPHA-BIS(TRIFLUOROACETOXY)-5BETA-CHOLAN-24-OATE

>  <SYNONYMS>  (6260) 
HEXAFLUOROISOPROPYL 3,6-BIS(O-TRIFLUOROACETYL)HYODEOXYCHOLATE

>  <SPECTRUM TYPE>  (6260) 
MS1

>  <INSTRUMENT TYPE>  (6260) 
EI-B

>  <INSTRUMENT>  (6260) 
SHIMADZU LKB-9000B

>  <ION MODE>  (6260) 
P

>  <INCHIKEY>  (6260) 
KYEKUHZLTCKTMI-ZROIFKTNSA-N

>  <FORMULA>  (6260) 
C31H38F12O6

>  <EXACT MASS>  (6260) 
734.247677576

>  <MW>  (6260) 
734

>  <ID>  (6260) 
JP001877

>  <CONTRIBUTOR>  (6260) 
University of Tokyo Team, {Faculty of Engineering, University of Tokyo

>  <COMMENT>  (6260) 
SMILES=C(CC(OC(C(F)(F)F)C(F)(F)F)=O)C(C(C4)(C(C3(C4)[H])(C)CCC(C3([H])1)(C(C)(C2)C(CC(C2)OC(C(F)(F)F)=O)([H])C(C1)OC(=O)C(F)(F)F)[H])[H])([H])C
InChI=InChI=1S/C31H38F12O6/c1-14(4-7-22(44)49-23(28(32,33)34)29(35,36)37)17-5-6-18-16-13-21(48-25(46)31(41,42)43)20-12-15(47-24(45)30(38,39)40)8-10-27(20,3)19(16)9-11-26(17,18)2/h14-21,23H,4-13H2,1-3H3/t14-,15-,16+,17-,18+,19+,20+,21+,26-,27-/m1/s1
computed SMILES=O=C(OC(C(F)(F)F)C(F)(F)F)CCC(C)C1CCC2C3CC(OC(=O)C(F)(F)F)C4CC(OC(=O)C(F)(F)F)CCC4(C)C3CCC12C
accession=JP001877
date=2016.01.19 (Created 2008.10.21, modified 2011.05.06)
author=SEYAMA Y, DEPT. OF PHYSIOL. CHEMISTRY AND NUTRITION, FAC. OF MEDICINE, UNIV. OF TOKYO
license=CC BY-NC-SA
exact mass=734.24768
ionization energy=70 eV
ion type=[M]+*
computed spectral entropy=4.420248165890629
computed normalized entropy=0.8626618344037257
SPLASH=splash10-014i-9622000000-c4367be928a5c3097a87
submitter=submitter = University of Tokyo Team (Faculty of Engineering, University of Tokyo)
MoNA Rating=3.75

>  <NUM PEAKS>  (6260) 
168

>  <MASS SPECTRAL PEAKS>  (6260) 
39 1.7
41 21.1
42 2.3
43 13.8
45 1.6
50 1.8
51 2.6
53 6.4
54 4.2
55 77.6
56 4.7
57 6.7
59 2.6
65 3.2
66 2.7
67 37.9
68 99.99
69 41.5
70 2.4
77 8.3
78 3.1
79 14.6
80 4.7
81 35.3
82 22.7
83 18.1
84 1.4
85 6
91 24.3
92 6.2
93 41.5
94 12.4
95 46.5
96 2.1
97 6.3
98 1.2
99 1.5
100 1.7
103 1.5
104 1.9
105 29.4
106 9.7
107 33
108 10.7
109 16.3
110 2.7
111 1.9
113 1.7
114 2
115 2.2
117 8.5
118 6.1
119 17.2
120 14.2
121 15.9
122 5.6
123 7.7
124 1.2
125 1.2
127 2.5
128 1.8
129 4.2
130 2.1
131 13.4
132 3.9
133 15.1
134 8.9
135 11.2
136 2.2
137 4.1
138 1
141 1.2
142 1.6
143 10.2
144 3.4
145 15.8
146 4
147 12.8
148 7.6
149 3.9
151 1.2
153 1
156 1.1
157 6.8
158 4.3
159 13.1
160 5.4
161 6.3
162 2.4
169 1.2
171 6.6
172 4.1
173 7.3
174 2.2
175 2.2
177 1.1
181 1.6
183 1.2
185 4.7
186 3.1
187 4.3
189 1.3
195 1.6
197 1.1
199 10.4
200 2.5
201 3.3
203 1.4
207 1
209 3.5
210 3.7
212 1.1
213 33.6
214 19.6
215 6.2
216 5.1
217 1.2
221 2
223 1.1
227 3.1
228 11.7
229 4.4
233 1.2
235 2.4
241 1.1
247 1.7
251 1.8
255 5.6
256 1.1
277 1.4
286 2.1
290 10.1
291 1.8
300 1.6
301 1
313 1.8
314 1.3
315 2.7
327 39
328 39.5
329 11.6
330 10.6
331 3
339 4.1
341 1.4
342 22.3
343 6.1
344 1.6
345 2.6
355 1.5
356 1.9
369 4.3
385 1.4
435 1.5
456 2.4
487 2.6
491 5.9
492 1.2
505 1.5
506 7.2
507 11.4
508 3.4
549 5.4
550 1.3
605 2.1
620 31.4
621 10
622 1.8

$$$$

     RDKit          2D

 42 45  0  0  1  0  0  0  0  0999 V2000
    3.2009    4.6377    0.0000 C   0  0  0  0  0  0  0  0  0  0  0  0
   -1.6125    0.9400    0.0000 C   0  0  0  0  0  0  0  0  0  0  0  0
    2.4507    3.1203    0.0000 C   0  0  0  0  0  0  0  0  0  0  0  0
    5.6618    3.8047    0.0000 C   0  0  0  0  0  0  0  0  0  0  0  0
   -0.3200   -2.8400    0.0000 C   0  0  0  0  0  0  0  0  0  0  0  0
    1.0100   -2.0900    0.0000 C   0  0  0  0  0  0  0  0  0  0  0  0
    4.5500    0.8800    0.0000 C   0  0  0  0  0  0  0  0  0  0  0  0
    3.7100   -0.3100    0.0000 C   0  0  0  0  0  0  0  0  0  0  0  0
    6.1427    5.2256    0.0000 C   0  0  0  0  0  0  0  0  0  0  0  0
   -4.2000   -0.5600    0.0000 C   0  0  0  0  0  0  0  0  0  0  0  0
   -0.3200    1.6300    0.0000 C   0  0  0  0  0  0  0  0  0  0  0  0
   -2.8900    0.1600    0.0000 C   0  0  0  0  0  0  0  0  0  0  0  0
    1.0100    2.3900    0.0000 C   0  0  0  0  0  0  0  0  0  0  0  0
   -2.8900   -2.8400    0.0000 C   0  0  0  0  0  0  0  0  0  0  0  0
    4.1909    3.5108    0.0000 C   0  0  0  0  0  0  0  0  0  0  0  0
   -1.6200   -2.0900    0.0000 C   0  0  0  0  0  0  0  0  0  0  0  0
   -4.2000   -2.0900    0.0000 C   0  0  0  0  0  0  0  0  0  0  0  0
    1.0100   -0.5600    0.0000 C   0  0  0  0  0  0  0  0  0  0  0  0
    3.7100    2.0900    0.0000 C   0  0  0  0  0  0  0  0  0  0  0  0
    2.2800    0.1600    0.0000 C   0  0  0  0  0  0  0  0  0  0  0  0
   -0.3200    0.1600    0.0000 C   0  0  0  0  0  0  0  0  0  0  0  0
    7.6137    5.5195    0.0000 C   0  0  0  0  0  0  0  0  0  0  0  0
    9.5655    7.2342    0.0000 C   0  0  0  0  0  0  0  0  0  0  0  0
   -5.4950   -4.3424    0.0000 C   0  0  0  0  0  0  0  0  0  0  0  0
   -1.6200   -0.5600    0.0000 C   0  0  0  0  0  0  0  0  0  0  0  0
    2.2800    1.6300    0.0000 C   0  0  0  0  0  0  0  0  0  0  0  0
   10.0464    8.6551    0.0000 C   0  0  0  0  0  0  0  0  0  0  0  0
   10.5555    6.1074    0.0000 C   0  0  0  0  0  0  0  0  0  0  0  0
   -6.7926   -5.0947    0.0000 C   0  0  0  0  0  0  0  0  0  0  0  0
   11.4672    8.1742    0.0000 F   0  0  0  0  0  0  0  0  0  0  0  0
   10.5273   10.0759    0.0000 F   0  0  0  0  0  0  0  0  0  0  0  0
    8.6256    9.1360    0.0000 F   0  0  0  0  0  0  0  0  0  0  0  0
    9.0586    6.2041    0.0000 F   0  0  0  0  0  0  0  0  0  0  0  0
   10.8494    4.6364    0.0000 F   0  0  0  0  0  0  0  0  0  0  0  0
   11.9002    6.7720    0.0000 F   0  0  0  0  0  0  0  0  0  0  0  0
   -7.5450   -3.7970    0.0000 F   0  0  0  0  0  0  0  0  0  0  0  0
   -8.0903   -5.8471    0.0000 F   0  0  0  0  0  0  0  0  0  0  0  0
   -6.0403   -6.3924    0.0000 F   0  0  0  0  0  0  0  0  0  0  0  0
    8.6037    4.3926    0.0000 O   0  0  0  0  0  0  0  0  0  0  0  0
   -4.1946   -5.0900    0.0000 O   0  0  0  0  0  0  0  0  0  0  0  0
   -5.4977   -2.8424    0.0000 O   0  0  0  0  0  0  0  0  0  0  0  0
    8.0946    6.9403    0.0000 O   0  0  0  0  0  0  0  0  0  0  0  0
  6  5  1  0
  8  7  1  0
  9  4  1  0
 12 10  1  0
 13 11  1  0
 15  1  1  6
 15  4  1  0
 16  5  1  1
 16 14  1  0
 17 10  1  0
 17 14  1  0
 18  6  1  6
 19  7  1  1
 19 15  1  0
 20  8  1  1
 20 18  1  0
 21 11  1  1
 21 18  1  0
 22  9  1  0
 25  2  1  1
 25 12  1  0
 25 16  1  0
 25 21  1  0
 26  3  1  1
 26 13  1  0
 26 19  1  0
 26 20  1  0
 27 23  1  0
 28 23  1  0
 29 24  1  0
 30 27  1  0
 31 27  1  0
 32 27  1  0
 33 28  1  0
 34 28  1  0
 35 28  1  0
 36 29  1  0
 37 29  1  0
 38 29  1  0
 39 22  2  0
 40 24  2  0
 17 41  1  1
 41 24  1  0
 42 22  1  0
 42 23  1  0
M  END
>  <NAME>  (6261) 
HEXAFLUOROISOPROPYL 3BETA-TRIFLUOROACETOXY-5ALPHA-CHOLAN-24-OATE

>  <SYNONYMS>  (6261) 


>  <SPECTRUM TYPE>  (6261) 
MS1

>  <INSTRUMENT TYPE>  (6261) 
EI-B

>  <INSTRUMENT>  (6261) 
SHIMADZU LKB-9000B

>  <ION MODE>  (6261) 
P

>  <INCHIKEY>  (6261) 
QSMCWSQCJINJEC-MIRCAXOXSA-N

>  <FORMULA>  (6261) 
C29H39F9O4

>  <EXACT MASS>  (6261) 
622.270463708

>  <MW>  (6261) 
622

>  <ID>  (6261) 
JP001875

>  <CONTRIBUTOR>  (6261) 
University of Tokyo Team, {Faculty of Engineering, University of Tokyo

>  <COMMENT>  (6261) 
SMILES=C(C4([H])1)CC(C(CCC([H])(C4([H])3)C(C([H])2CC3)(CCC(C2)OC(=O)C(F)(F)F)C)(C)1)([H])C(CCC(=O)OC(C(F)(F)F)C(F)(F)F)([H])C
InChI=InChI=1S/C29H39F9O4/c1-15(4-9-22(39)42-23(27(30,31)32)28(33,34)35)19-7-8-20-18-6-5-16-14-17(41-24(40)29(36,37)38)10-12-25(16,2)21(18)11-13-26(19,20)3/h15-21,23H,4-14H2,1-3H3/t15-,16+,17+,18+,19-,20+,21+,25+,26-/m1/s1
computed SMILES=O=C(OC(C(F)(F)F)C(F)(F)F)CCC(C)C1CCC2C3CCC4CC(OC(=O)C(F)(F)F)CCC4(C)C3CCC12C
accession=JP001875
date=2016.01.19 (Created 2008.10.21, modified 2011.05.06)
author=SEYAMA Y, DEPT. OF PHYSIOL. CHEMISTRY AND NUTRITION, FAC. OF MEDICINE, UNIV. OF TOKYO
license=CC BY-NC-SA
exact mass=622.27046
ionization energy=70 eV
ion type=[M]+*
computed spectral entropy=4.380297319843023
computed normalized entropy=0.858904322659256
SPLASH=splash10-0aru-9724000000-9b122caa6a9c4034d812
submitter=submitter = University of Tokyo Team (Faculty of Engineering, University of Tokyo)
MoNA Rating=3.75

>  <NUM PEAKS>  (6261) 
164

>  <MASS SPECTRAL PEAKS>  (6261) 
39 2.1
40 1.4
41 19.9
42 3
43 13.3
44 2.6
45 2.4
47 1.8
49 1
50 1.5
51 3.4
53 7.3
54 4.2
55 65.7
56 5.2
57 6.9
59 4
64 1.7
65 3.3
66 2.3
67 45.6
68 35.3
69 29.6
70 2.3
71 1.8
73 1.9
75 1.8
76 1.4
77 9.1
78 4.5
79 23.4
80 11.1
81 50.7
82 16.6
83 17.6
84 1.3
85 8.7
89 1.1
91 22.8
92 6.6
93 45
94 18.8
95 55.1
96 6.6
97 8.5
99 1
101 1.8
103 1
104 1.3
105 19.8
106 14
107 53.1
108 27.6
109 30.1
110 4.5
111 4.3
113 1
115 4.1
117 3.8
118 2
119 14
120 8.5
121 28.7
122 17.7
123 33
124 4.3
125 1.2
128 2.7
129 2.3
131 4.4
132 2
133 13.3
134 5.1
135 18.6
136 5.3
137 6.7
138 1.6
139 1.3
141 2
145 5.4
146 2.7
147 30
148 9.5
149 16.6
150 2.3
151 2.3
155 1.9
157 1.1
159 2.2
160 5
161 11.7
162 4.9
163 5.6
173 3.9
174 2
175 4.3
176 1.7
177 1.4
181 1.3
187 3.3
188 3
189 2.5
191 1
195 1.5
201 7.3
202 1.8
203 2.5
207 3
208 1.7
209 4.1
210 3.2
211 1.7
215 21.8
216 16.5
217 24
218 3.7
219 1.2
221 1.7
229 2.1
230 14.5
231 3.5
233 1.1
235 2.1
237 1.6
238 1.5
257 2.8
261 10.6
262 7.3
263 1.3
274 1.6
277 1.2
281 1.5
287 1.1
288 3
290 1.1
293 1.7
301 3.4
302 8.5
303 2
315 14.8
316 3.9
329 99.99
330 61.4
331 12.8
332 1.2
344 38.8
345 11.6
346 3.1
399 1.3
400 3.7
401 4.7
413 2.1
437 8.8
438 2.4
454 1.5
455 2.5
493 6.3
494 1.2
508 4
509 3.9
607 5.4
608 1.3
622 27.8
623 9.2

$$$$

     RDKit          2D

 56 59  0  0  1  0  0  0  0  0999 V2000
    3.1130    4.9420    0.0000 C   0  0  0  0  0  0  0  0  0  0  0  0
    2.3787    3.4316    0.0000 C   0  0  0  0  0  0  0  0  0  0  0  0
   -1.6800    1.1900    0.0000 C   0  0  0  0  0  0  0  0  0  0  0  0
    5.5829    4.1361    0.0000 C   0  0  0  0  0  0  0  0  0  0  0  0
    4.5300    1.1900    0.0000 C   0  0  0  0  0  0  0  0  0  0  0  0
    3.6500   -0.0200    0.0000 C   0  0  0  0  0  0  0  0  0  0  0  0
    6.0482    5.5621    0.0000 C   0  0  0  0  0  0  0  0  0  0  0  0
   -4.2800   -0.3100    0.0000 C   0  0  0  0  0  0  0  0  0  0  0  0
   -0.3800    1.9400    0.0000 C   0  0  0  0  0  0  0  0  0  0  0  0
   -2.9800    0.4400    0.0000 C   0  0  0  0  0  0  0  0  0  0  0  0
    0.9200    2.6900    0.0000 C   0  0  0  0  0  0  0  0  0  0  0  0
   -2.9800   -2.5600    0.0000 C   0  0  0  0  0  0  0  0  0  0  0  0
    4.1153    3.8260    0.0000 C   0  0  0  0  0  0  0  0  0  0  0  0
   -4.2800   -1.8100    0.0000 C   0  0  0  0  0  0  0  0  0  0  0  0
    3.6500    2.4000    0.0000 C   0  0  0  0  0  0  0  0  0  0  0  0
    2.2200    0.4400    0.0000 C   0  0  0  0  0  0  0  0  0  0  0  0
   -0.3800    0.4400    0.0000 C   0  0  0  0  0  0  0  0  0  0  0  0
   -1.6800   -1.8100    0.0000 C   0  0  0  0  0  0  0  0  0  0  0  0
    7.5158    5.8722    0.0000 C   0  0  0  0  0  0  0  0  0  0  0  0
    0.9200   -0.3100    0.0000 C   0  0  0  0  0  0  0  0  0  0  0  0
   -0.3800   -2.5600    0.0000 C   0  0  0  0  0  0  0  0  0  0  0  0
    0.9200   -1.8100    0.0000 C   0  0  0  0  0  0  0  0  0  0  0  0
    9.4486    7.6082    0.0000 C   0  0  0  0  0  0  0  0  0  0  0  0
   -5.5787   -4.0602    0.0000 C   0  0  0  0  0  0  0  0  0  0  0  0
   -1.6790   -4.8100    0.0000 C   0  0  0  0  0  0  0  0  0  0  0  0
    2.2187   -4.0602    0.0000 C   0  0  0  0  0  0  0  0  0  0  0  0
    2.2200    1.9400    0.0000 C   0  0  0  0  0  0  0  0  0  0  0  0
   -1.6800   -0.3100    0.0000 C   0  0  0  0  0  0  0  0  0  0  0  0
    9.9139    9.0343    0.0000 C   0  0  0  0  0  0  0  0  0  0  0  0
   10.4510    6.4923    0.0000 C   0  0  0  0  0  0  0  0  0  0  0  0
   -6.8776   -4.8104    0.0000 C   0  0  0  0  0  0  0  0  0  0  0  0
   -1.6790   -6.3100    0.0000 C   0  0  0  0  0  0  0  0  0  0  0  0
    3.5176   -4.8104    0.0000 C   0  0  0  0  0  0  0  0  0  0  0  0
   11.3399    8.5690    0.0000 F   0  0  0  0  0  0  0  0  0  0  0  0
   10.3792   10.4603    0.0000 F   0  0  0  0  0  0  0  0  0  0  0  0
    8.4879    9.4995    0.0000 F   0  0  0  0  0  0  0  0  0  0  0  0
    8.9531    6.5726    0.0000 F   0  0  0  0  0  0  0  0  0  0  0  0
   10.7610    5.0247    0.0000 F   0  0  0  0  0  0  0  0  0  0  0  0
   11.7883    7.1716    0.0000 F   0  0  0  0  0  0  0  0  0  0  0  0
   -7.6278   -3.5115    0.0000 F   0  0  0  0  0  0  0  0  0  0  0  0
   -8.1765   -5.5606    0.0000 F   0  0  0  0  0  0  0  0  0  0  0  0
   -6.1274   -6.1093    0.0000 F   0  0  0  0  0  0  0  0  0  0  0  0
   -3.1790   -6.3100    0.0000 F   0  0  0  0  0  0  0  0  0  0  0  0
   -1.6790   -7.8100    0.0000 F   0  0  0  0  0  0  0  0  0  0  0  0
   -0.1790   -6.3100    0.0000 F   0  0  0  0  0  0  0  0  0  0  0  0
    2.7674   -6.1093    0.0000 F   0  0  0  0  0  0  0  0  0  0  0  0
    4.8165   -5.5606    0.0000 F   0  0  0  0  0  0  0  0  0  0  0  0
    4.2678   -3.5115    0.0000 F   0  0  0  0  0  0  0  0  0  0  0  0
    8.5181    4.7562    0.0000 O   0  0  0  0  0  0  0  0  0  0  0  0
   -4.2795   -4.8100    0.0000 O   0  0  0  0  0  0  0  0  0  0  0  0
   -2.9781   -4.0600    0.0000 O   0  0  0  0  0  0  0  0  0  0  0  0
    0.9195   -4.8100    0.0000 O   0  0  0  0  0  0  0  0  0  0  0  0
   -5.5789   -2.5602    0.0000 O   0  0  0  0  0  0  0  0  0  0  0  0
    7.9810    7.2982    0.0000 O   0  0  0  0  0  0  0  0  0  0  0  0
   -0.3800   -4.0600    0.0000 O   0  0  0  0  0  0  0  0  0  0  0  0
    2.2189   -2.5602    0.0000 O   0  0  0  0  0  0  0  0  0  0  0  0
  6  5  1  0
  7  4  1  0
 10  8  1  0
 11  9  1  0
 13  1  1  6
 13  4  1  0
 14  8  1  0
 14 12  1  0
 15  5  1  1
 15 13  1  0
 16  6  1  1
 17  9  1  1
 18 12  1  6
 19  7  1  0
 20 16  1  0
 20 17  1  0
 21 18  1  0
 20 22  1  6
 22 21  1  0
 27  2  1  1
 27 11  1  0
 27 15  1  0
 27 16  1  0
 28  3  1  1
 28 10  1  0
 28 17  1  0
 28 18  1  0
 29 23  1  0
 30 23  1  0
 31 24  1  0
 32 25  1  0
 33 26  1  0
 34 29  1  0
 35 29  1  0
 36 29  1  0
 37 30  1  0
 38 30  1  0
 39 30  1  0
 40 31  1  0
 41 31  1  0
 42 31  1  0
 43 32  1  0
 44 32  1  0
 45 32  1  0
 46 33  1  0
 47 33  1  0
 48 33  1  0
 49 19  2  0
 50 24  2  0
 51 25  2  0
 52 26  2  0
 14 53  1  6
 53 24  1  0
 54 19  1  0
 54 23  1  0
 21 55  1  6
 55 25  1  0
 22 56  1  6
 56 26  1  0
M  END
>  <NAME>  (6262) 
HEXAFLUOROISOPROPYL 3ALPHA,6ALPHA,7ALPHA-TRIS(TRIFLUOROACETOXY)-5BETA-CHOLAN-24-OATE

>  <SYNONYMS>  (6262) 
HEXAFLUOROISOPROPYL 3,6,7-TRIS(O-TRIFLUOROACETYL)HYOCHOLATE

>  <SPECTRUM TYPE>  (6262) 
MS1

>  <INSTRUMENT TYPE>  (6262) 
EI-B

>  <INSTRUMENT>  (6262) 
SHIMADZU LKB-9000B

>  <ION MODE>  (6262) 
P

>  <INCHIKEY>  (6262) 
ZMQPGXCUJGKHOP-VEOIIIRKSA-N

>  <FORMULA>  (6262) 
C33H37F15O8

>  <EXACT MASS>  (6262) 
846.224891444

>  <MW>  (6262) 
846

>  <ID>  (6262) 
JP001874

>  <CONTRIBUTOR>  (6262) 
University of Tokyo Team, {Faculty of Engineering, University of Tokyo

>  <COMMENT>  (6262) 
SMILES=C(C(OC(C(F)(F)F)=O)3)(C(C(C(C4)(C3(CC(C4)OC(C(F)(F)F)=O)[H])C)2[H])(C(C1)(C(C)(CC2)C([H])(C1)C(CCC(=O)OC(C(F)(F)F)C(F)(F)F)([H])C)[H])[H])OC(C(F)(F)F)=O
InChI=InChI=1S/C33H37F15O8/c1-13(4-7-19(49)54-23(29(34,35)36)30(37,38)39)15-5-6-16-20-17(9-11-27(15,16)2)28(3)10-8-14(53-24(50)31(40,41)42)12-18(28)21(55-25(51)32(43,44)45)22(20)56-26(52)33(46,47)48/h13-18,20-23H,4-12H2,1-3H3/t13-,14-,15-,16+,17+,18+,20+,21-,22+,27-,28-/m1/s1
computed SMILES=O=C(OC(C(F)(F)F)C(F)(F)F)CCC(C)C1CCC2C3C(OC(=O)C(F)(F)F)C(OC(=O)C(F)(F)F)C4CC(OC(=O)C(F)(F)F)CCC4(C)C3CCC12C
accession=JP001874
date=2016.01.19 (Created 2008.10.21, modified 2011.05.06)
author=SEYAMA Y, DEPT. OF PHYSIOL. CHEMISTRY AND NUTRITION, FAC. OF MEDICINE, UNIV. OF TOKYO
license=CC BY-NC-SA
exact mass=846.22489
ionization energy=70 eV
ion type=[M]+*
computed spectral entropy=4.623646320297305
computed normalized entropy=0.8972219474702379
SPLASH=splash10-0aou-9732000000-5c6eb3468ff29ce94558
submitter=submitter = University of Tokyo Team (Faculty of Engineering, University of Tokyo)
MoNA Rating=3.75

>  <NUM PEAKS>  (6262) 
173

>  <MASS SPECTRAL PEAKS>  (6262) 
39 4.8
41 25
42 4
43 20.5
44 6.1
45 2.7
50 6.7
51 4.7
53 10.1
54 5.7
55 99.99
56 6.2
57 10.3
59 7.7
60 1.9
63 2.9
65 5.4
66 2.6
67 36.7
68 34.5
69 54.5
70 5.2
71 1.6
74 1.9
77 11.9
78 5.9
79 2.6
80 2.4
82 12.9
83 25.8
84 2.3
85 13.7
89 2.6
91 29.3
92 8
93 45.7
94 13.7
95 61.2
97 6.1
99 2.2
104 2
105 35.8
106 9.8
107 34.9
108 8.1
109 15
110 6.2
111 5
113 3.4
115 3.6
117 11.1
118 6.2
119 25.9
120 6.3
121 17.5
122 3.6
123 8.7
125 3.1
126 2.2
128 3.2
129 8.3
130 2.8
131 16.3
132 8.9
133 16
134 3.9
135 9.5
136 1.9
137 19.6
139 2.1
141 4
142 3.7
143 12.7
144 4.6
145 19.5
146 4.9
147 13.3
148 1.8
149 2.6
151 3.9
153 3.4
155 4.3
156 3.7
157 17.7
158 6.2
159 7.7
160 5
161 3.4
169 11.9
170 2.7
171 9.5
172 2.1
173 5.2
179 3.2
181 3.8
183 7.7
184 2.1
185 5.7
187 3
191 1.3
195 5
197 22.1
198 4.7
199 5.8
201 3.1
209 6.4
210 6
211 21.3
212 26.6
213 19.6
214 5.4
215 5.1
216 1.2
217 1.9
219 2.1
221 3.8
223 2.8
225 5
226 8
227 9
229 1
232 2
233 7
235 3.2
237 2.3
238 1.1
239 1.8
251 5.6
253 8.5
264 2.4
271 2.6
277 3.8
278 3.2
290 65.8
291 9.7
293 1.9
297 2.7
311 9.7
325 5.5
326 32.5
327 17.3
328 7.6
329 2.4
340 14.9
341 7.9
344 5.8
345 3
346 2.7
353 3.1
354 5
355 1
367 27.6
368 5.9
385 1.9
395 8.4
410 2
439 4.8
440 12.8
481 7.3
489 2.5
504 8.9
505 14.1
506 3
547 3.4
554 11.8
555 1.8
568 10.9
569 1.7
603 2.1
618 27.6
619 13.4
620 1.1
661 3

$$$$

     RDKit          2D

 42 45  0  0  1  0  0  0  0  0999 V2000
    3.2009    4.6377    0.0000 C   0  0  0  0  0  0  0  0  0  0  0  0
   -1.6125    0.9400    0.0000 C   0  0  0  0  0  0  0  0  0  0  0  0
    2.4507    3.1203    0.0000 C   0  0  0  0  0  0  0  0  0  0  0  0
    5.6618    3.8047    0.0000 C   0  0  0  0  0  0  0  0  0  0  0  0
   -0.3200   -2.8400    0.0000 C   0  0  0  0  0  0  0  0  0  0  0  0
    1.0100   -2.0900    0.0000 C   0  0  0  0  0  0  0  0  0  0  0  0
    4.5500    0.8800    0.0000 C   0  0  0  0  0  0  0  0  0  0  0  0
    3.7100   -0.3100    0.0000 C   0  0  0  0  0  0  0  0  0  0  0  0
    6.1427    5.2256    0.0000 C   0  0  0  0  0  0  0  0  0  0  0  0
   -4.2000   -0.5600    0.0000 C   0  0  0  0  0  0  0  0  0  0  0  0
   -0.3200    1.6300    0.0000 C   0  0  0  0  0  0  0  0  0  0  0  0
   -2.8900    0.1600    0.0000 C   0  0  0  0  0  0  0  0  0  0  0  0
    1.0100    2.3900    0.0000 C   0  0  0  0  0  0  0  0  0  0  0  0
   -2.8900   -2.8400    0.0000 C   0  0  0  0  0  0  0  0  0  0  0  0
    4.1909    3.5108    0.0000 C   0  0  0  0  0  0  0  0  0  0  0  0
   -1.6200   -2.0900    0.0000 C   0  0  0  0  0  0  0  0  0  0  0  0
   -4.2000   -2.0900    0.0000 C   0  0  0  0  0  0  0  0  0  0  0  0
    1.0100   -0.5600    0.0000 C   0  0  0  0  0  0  0  0  0  0  0  0
    3.7100    2.0900    0.0000 C   0  0  0  0  0  0  0  0  0  0  0  0
    2.2800    0.1600    0.0000 C   0  0  0  0  0  0  0  0  0  0  0  0
   -0.3200    0.1600    0.0000 C   0  0  0  0  0  0  0  0  0  0  0  0
    7.6137    5.5195    0.0000 C   0  0  0  0  0  0  0  0  0  0  0  0
    9.5655    7.2342    0.0000 C   0  0  0  0  0  0  0  0  0  0  0  0
   -5.4950   -4.3424    0.0000 C   0  0  0  0  0  0  0  0  0  0  0  0
   -1.6200   -0.5600    0.0000 C   0  0  0  0  0  0  0  0  0  0  0  0
    2.2800    1.6300    0.0000 C   0  0  0  0  0  0  0  0  0  0  0  0
   10.0464    8.6551    0.0000 C   0  0  0  0  0  0  0  0  0  0  0  0
   10.5555    6.1074    0.0000 C   0  0  0  0  0  0  0  0  0  0  0  0
   -6.7926   -5.0947    0.0000 C   0  0  0  0  0  0  0  0  0  0  0  0
   11.4672    8.1742    0.0000 F   0  0  0  0  0  0  0  0  0  0  0  0
   10.5273   10.0759    0.0000 F   0  0  0  0  0  0  0  0  0  0  0  0
    8.6256    9.1360    0.0000 F   0  0  0  0  0  0  0  0  0  0  0  0
    9.0586    6.2041    0.0000 F   0  0  0  0  0  0  0  0  0  0  0  0
   10.8494    4.6364    0.0000 F   0  0  0  0  0  0  0  0  0  0  0  0
   11.9002    6.7720    0.0000 F   0  0  0  0  0  0  0  0  0  0  0  0
   -7.5450   -3.7970    0.0000 F   0  0  0  0  0  0  0  0  0  0  0  0
   -8.0903   -5.8471    0.0000 F   0  0  0  0  0  0  0  0  0  0  0  0
   -6.0403   -6.3924    0.0000 F   0  0  0  0  0  0  0  0  0  0  0  0
    8.6037    4.3926    0.0000 O   0  0  0  0  0  0  0  0  0  0  0  0
   -4.1946   -5.0900    0.0000 O   0  0  0  0  0  0  0  0  0  0  0  0
   -5.4977   -2.8424    0.0000 O   0  0  0  0  0  0  0  0  0  0  0  0
    8.0946    6.9403    0.0000 O   0  0  0  0  0  0  0  0  0  0  0  0
  6  5  1  0
  8  7  1  0
  9  4  1  0
 12 10  1  0
 13 11  1  0
 15  1  1  6
 15  4  1  0
 16  5  1  6
 16 14  1  0
 17 10  1  0
 17 14  1  0
 18  6  1  6
 19  7  1  1
 19 15  1  0
 20  8  1  1
 20 18  1  0
 21 11  1  1
 21 18  1  0
 22  9  1  0
 25  2  1  1
 25 12  1  0
 25 16  1  0
 25 21  1  0
 26  3  1  1
 26 13  1  0
 26 19  1  0
 26 20  1  0
 27 23  1  0
 28 23  1  0
 29 24  1  0
 30 27  1  0
 31 27  1  0
 32 27  1  0
 33 28  1  0
 34 28  1  0
 35 28  1  0
 36 29  1  0
 37 29  1  0
 38 29  1  0
 39 22  2  0
 40 24  2  0
 17 41  1  1
 41 24  1  0
 42 22  1  0
 42 23  1  0
M  END
>  <NAME>  (6263) 
HEXAFLUOROISOPROPYL 3BETA-TRIFLUOROACETOXY-5BETA-CHOLAN-24-OATE

>  <SYNONYMS>  (6263) 
HEXAFLUOROISOPROPYL 3BETA-TRIFLUOROACETYL5BETA-CHOLANOATE

>  <SPECTRUM TYPE>  (6263) 
MS1

>  <INSTRUMENT TYPE>  (6263) 
EI-B

>  <INSTRUMENT>  (6263) 
SHIMADZU LKB-9000B

>  <ION MODE>  (6263) 
P

>  <INCHIKEY>  (6263) 
QSMCWSQCJINJEC-WSWXKWDLSA-N

>  <FORMULA>  (6263) 
C29H39F9O4

>  <EXACT MASS>  (6263) 
622.270463708

>  <MW>  (6263) 
622

>  <ID>  (6263) 
JP001873

>  <CONTRIBUTOR>  (6263) 
University of Tokyo Team, {Faculty of Engineering, University of Tokyo

>  <COMMENT>  (6263) 
SMILES=C(C4([H])1)CC(C(CCC([H])(C4([H])3)C(C([H])2CC3)(CCC(C2)OC(=O)C(F)(F)F)C)(C)1)([H])C(CCC(=O)OC(C(F)(F)F)C(F)(F)F)([H])C
InChI=InChI=1S/C29H39F9O4/c1-15(4-9-22(39)42-23(27(30,31)32)28(33,34)35)19-7-8-20-18-6-5-16-14-17(41-24(40)29(36,37)38)10-12-25(16,2)21(18)11-13-26(19,20)3/h15-21,23H,4-14H2,1-3H3/t15-,16-,17+,18+,19-,20+,21+,25+,26-/m1/s1
computed SMILES=O=C(OC(C(F)(F)F)C(F)(F)F)CCC(C)C1CCC2C3CCC4CC(OC(=O)C(F)(F)F)CCC4(C)C3CCC12C
accession=JP001873
date=2016.01.19 (Created 2008.10.21, modified 2011.05.06)
author=SEYAMA Y, DEPT. OF PHYSIOL. CHEMISTRY AND NUTRITION, FAC. OF MEDICINE, UNIV. OF TOKYO
license=CC BY-NC-SA
exact mass=622.27046
ionization energy=70 eV
ion type=[M]+*
computed spectral entropy=4.123365242454627
computed normalized entropy=0.8772220968014833
SPLASH=splash10-0aos-9711000000-68c5da48287e1d585a33
submitter=submitter = University of Tokyo Team (Faculty of Engineering, University of Tokyo)
MoNA Rating=3.75

>  <NUM PEAKS>  (6263) 
110

>  <MASS SPECTRAL PEAKS>  (6263) 
39 3.4
41 27.3
42 4.1
43 18.5
44 1.6
45 4.2
47 1.8
50 2.5
51 3.7
53 11.1
54 5.8
55 99.99
56 6.7
57 8.6
59 2.8
64 1.8
65 5.3
66 3.9
67 65.9
68 53
69 43.7
70 3
73 2.3
77 13.4
78 8
79 21.3
80 11
81 38.5
82 33.8
83 21.6
85 6.2
91 31.4
92 7.1
93 66
94 24.9
95 75.5
96 4.7
97 11.5
105 29.8
106 25.5
107 68.1
108 37.7
109 44.5
110 8.8
111 5.2
115 3.9
117 6.8
119 19.1
120 10.9
121 39.2
122 27
123 25.4
124 3
128 3.9
131 6.1
133 19.3
134 6.8
135 24.4
136 9.8
137 13.4
138 1.9
139 1
141 2.5
145 8.7
147 27.2
148 13.3
149 54.4
150 6.9
151 2.8
159 2.6
160 5.5
161 15
162 7.4
163 7.1
173 3.1
175 4.4
187 2.3
189 2.3
201 5.2
203 2.8
207 2.4
209 6
210 2.3
211 3.2
215 11.4
216 12.3
217 20.4
218 3.3
230 7
237 2
257 3.2
261 2.6
262 6.3
263 7.5
315 7.7
329 73.4
330 41.5
331 6.7
341 3
344 21.3
345 5.7
346 1.9
401 1.9
437 2.5
493 5
508 6.6
509 3
607 2.8
622 14.4
623 1.8

$$$$

     RDKit          2D

 32 31  0  0  0  0  0  0  0  0999 V2000
    8.0320   14.3873    0.0000 C   0  0  0  0  0  0  0  0  0  0  0  0
  -23.1449   12.8873    0.0000 C   0  0  0  0  0  0  0  0  0  0  0  0
  -23.8949   15.6863    0.0000 C   0  0  0  0  0  0  0  0  0  0  0  0
  -24.4440   13.6373    0.0000 C   0  0  0  0  0  0  0  0  0  0  0  0
  -22.3949   13.0882    0.0000 C   0  0  0  0  0  0  0  0  0  0  0  0
    6.7329   15.1373    0.0000 C   0  0  0  0  0  0  0  0  0  0  0  0
    5.4339   14.3873    0.0000 C   0  0  0  0  0  0  0  0  0  0  0  0
    4.1349   15.1373    0.0000 C   0  0  0  0  0  0  0  0  0  0  0  0
    2.8358   14.3873    0.0000 C   0  0  0  0  0  0  0  0  0  0  0  0
    1.5368   15.1373    0.0000 C   0  0  0  0  0  0  0  0  0  0  0  0
    0.2377   14.3873    0.0000 C   0  0  0  0  0  0  0  0  0  0  0  0
   -1.0613   15.1373    0.0000 C   0  0  0  0  0  0  0  0  0  0  0  0
   -2.3603   14.3873    0.0000 C   0  0  0  0  0  0  0  0  0  0  0  0
   -3.6594   15.1373    0.0000 C   0  0  0  0  0  0  0  0  0  0  0  0
   -4.9584   14.3873    0.0000 C   0  0  0  0  0  0  0  0  0  0  0  0
   -6.2575   15.1373    0.0000 C   0  0  0  0  0  0  0  0  0  0  0  0
   -7.5565   14.3873    0.0000 C   0  0  0  0  0  0  0  0  0  0  0  0
   -8.8555   15.1373    0.0000 C   0  0  0  0  0  0  0  0  0  0  0  0
  -10.1546   14.3873    0.0000 C   0  0  0  0  0  0  0  0  0  0  0  0
  -11.4536   15.1373    0.0000 C   0  0  0  0  0  0  0  0  0  0  0  0
  -12.7526   14.3873    0.0000 C   0  0  0  0  0  0  0  0  0  0  0  0
  -14.0517   15.1373    0.0000 C   0  0  0  0  0  0  0  0  0  0  0  0
  -15.3507   14.3873    0.0000 C   0  0  0  0  0  0  0  0  0  0  0  0
  -16.6498   15.1373    0.0000 C   0  0  0  0  0  0  0  0  0  0  0  0
  -17.9488   14.3873    0.0000 C   0  0  0  0  0  0  0  0  0  0  0  0
  -19.2478   15.1373    0.0000 C   0  0  0  0  0  0  0  0  0  0  0  0
  -20.5469   14.3873    0.0000 C   0  0  0  0  0  0  0  0  0  0  0  0
  -20.5469   12.8873    0.0000 C   0  0  0  0  0  0  0  0  0  0  0  0
  -19.2478   12.1373    0.0000 O   0  0  0  0  0  0  0  0  0  0  0  0
  -21.8459   12.1373    0.0000 O   0  0  0  0  0  0  0  0  0  0  0  0
  -21.8459   15.1373    0.0000 O   0  0  0  0  0  0  0  0  0  0  0  0
  -23.1449   14.3873    0.0000 Si  0  0  0  0  0  4  0  0  0  0  0  0
  6  1  1  0
  7  6  1  0
  8  7  1  0
  9  8  1  0
 10  9  1  0
 11 10  1  0
 12 11  1  0
 13 12  1  0
 14 13  1  0
 15 14  1  0
 16 15  1  0
 17 16  1  0
 18 17  1  0
 19 18  1  0
 20 19  1  0
 21 20  1  0
 22 21  1  0
 23 22  1  0
 24 23  1  0
 25 24  1  0
 26 25  1  0
 27 26  1  0
 28 27  1  0
 29 28  2  0
 30  2  1  0
 30 28  1  0
 31 27  1  0
 32  3  1  0
 32  4  1  0
 32  5  1  0
 32 31  1  0
M  END
>  <NAME>  (6264) 
METHYL 2-TRIMETHYLSILOXYTETRACOSANOATE

>  <SYNONYMS>  (6264) 
METHYL (O-TRIMETHYLSILYL)-ALPHA-HYDROXYLIGNOCERATE

>  <SPECTRUM TYPE>  (6264) 
MS1

>  <INSTRUMENT TYPE>  (6264) 
EI-B

>  <INSTRUMENT>  (6264) 
SHIMADZU LKB-9000B

>  <ION MODE>  (6264) 
P

>  <INCHIKEY>  (6264) 
IBDXNSNFZWQOOS-UHFFFAOYSA-N

>  <FORMULA>  (6264) 
C28H58O3Si

>  <EXACT MASS>  (6264) 
470.415522246

>  <MW>  (6264) 
470

>  <ID>  (6264) 
JP001872

>  <CONTRIBUTOR>  (6264) 
University of Tokyo Team, {Faculty of Engineering, University of Tokyo

>  <COMMENT>  (6264) 
SMILES=C(CC(C(OC)=O)O[Si](C)(C)C)CCCCCCCCCCCCCCCCCCCC
InChI=InChI=1S/C28H58O3Si/c1-6-7-8-9-10-11-12-13-14-15-16-17-18-19-20-21-22-23-24-25-26-27(28(29)30-2)31-32(3,4)5/h27H,6-26H2,1-5H3
computed SMILES=O=C(OC)C(O[Si](C)(C)C)CCCCCCCCCCCCCCCCCCCCCC
accession=JP001872
date=2016.01.19 (Created 2008.10.21, modified 2011.05.06)
author=SEYAMA Y, DEPT. OF PHYSIOL. CHEMISTRY AND NUTRITION, FAC. OF MEDICINE, UNIV. OF TOKYO
license=CC BY-NC-SA
exact mass=470.41552
ionization energy=70 eV
ion type=[M]+*
computed spectral entropy=3.445483266857349
computed normalized entropy=0.8597945585244546
SPLASH=splash10-03k9-9200300000-088f7758d1948fcf01b5
submitter=submitter = University of Tokyo Team (Faculty of Engineering, University of Tokyo)
MoNA Rating=3.75

>  <NUM PEAKS>  (6264) 
55

>  <MASS SPECTRAL PEAKS>  (6264) 
39 2.3
41 13.9
42 5.1
43 35.3
55 19.8
56 5.6
57 33.3
59 5.7
61 2.6
67 7.6
68 7
69 17.4
70 7.9
71 17.3
73 73.8
74 8.7
75 25.5
77 1.8
79 1
81 6.7
82 11.1
83 20
84 3.6
85 7.3
87 2.1
89 31.9
90 3.8
91 9
95 11.4
97 17.6
98 3.6
101 3.3
103 12.6
104 3.3
105 2.8
107 3.3
108 1.5
109 6
111 12
115 2.1
117 1
123 3.7
125 4
129 27.2
130 3.6
131 5.1
143 3.3
145 4.5
159 12.9
411 99.99
412 31.1
413 7.7
455 30.8
456 9.8
470 3.4

$$$$

     RDKit          2D

 31 30  0  0  0  0  0  0  0  0999 V2000
    8.0687   13.7745    0.0000 C   0  0  0  0  0  0  0  0  0  0  0  0
  -21.8091   16.0245    0.0000 C   0  0  0  0  0  0  0  0  0  0  0  0
  -21.0591   15.8236    0.0000 C   0  0  0  0  0  0  0  0  0  0  0  0
  -23.1082   15.2745    0.0000 C   0  0  0  0  0  0  0  0  0  0  0  0
  -22.5591   13.2255    0.0000 C   0  0  0  0  0  0  0  0  0  0  0  0
    6.7697   14.5245    0.0000 C   0  0  0  0  0  0  0  0  0  0  0  0
    5.4707   13.7745    0.0000 C   0  0  0  0  0  0  0  0  0  0  0  0
    4.1716   14.5245    0.0000 C   0  0  0  0  0  0  0  0  0  0  0  0
    2.8726   13.7745    0.0000 C   0  0  0  0  0  0  0  0  0  0  0  0
    1.5736   14.5245    0.0000 C   0  0  0  0  0  0  0  0  0  0  0  0
    0.2745   13.7745    0.0000 C   0  0  0  0  0  0  0  0  0  0  0  0
   -1.0245   14.5245    0.0000 C   0  0  0  0  0  0  0  0  0  0  0  0
   -2.3236   13.7745    0.0000 C   0  0  0  0  0  0  0  0  0  0  0  0
   -3.6226   14.5245    0.0000 C   0  0  0  0  0  0  0  0  0  0  0  0
   -4.9216   13.7745    0.0000 C   0  0  0  0  0  0  0  0  0  0  0  0
   -6.2207   14.5245    0.0000 C   0  0  0  0  0  0  0  0  0  0  0  0
   -7.5197   13.7745    0.0000 C   0  0  0  0  0  0  0  0  0  0  0  0
   -8.8187   14.5245    0.0000 C   0  0  0  0  0  0  0  0  0  0  0  0
  -10.1178   13.7745    0.0000 C   0  0  0  0  0  0  0  0  0  0  0  0
  -11.4168   14.5245    0.0000 C   0  0  0  0  0  0  0  0  0  0  0  0
  -12.7159   13.7745    0.0000 C   0  0  0  0  0  0  0  0  0  0  0  0
  -14.0149   14.5245    0.0000 C   0  0  0  0  0  0  0  0  0  0  0  0
  -15.3139   13.7745    0.0000 C   0  0  0  0  0  0  0  0  0  0  0  0
  -16.6130   14.5245    0.0000 C   0  0  0  0  0  0  0  0  0  0  0  0
  -17.9120   13.7745    0.0000 C   0  0  0  0  0  0  0  0  0  0  0  0
  -19.2111   14.5245    0.0000 C   0  0  0  0  0  0  0  0  0  0  0  0
  -19.2111   16.0245    0.0000 C   0  0  0  0  0  0  0  0  0  0  0  0
  -17.9120   16.7745    0.0000 O   0  0  0  0  0  0  0  0  0  0  0  0
  -20.5101   16.7745    0.0000 O   0  0  0  0  0  0  0  0  0  0  0  0
  -20.5101   13.7745    0.0000 O   0  0  0  0  0  0  0  0  0  0  0  0
  -21.8091   14.5245    0.0000 Si  0  0  0  0  0  4  0  0  0  0  0  0
  6  1  1  0
  7  6  1  0
  8  7  1  0
  9  8  1  0
 10  9  1  0
 11 10  1  0
 12 11  1  0
 13 12  1  0
 14 13  1  0
 15 14  1  0
 16 15  1  0
 17 16  1  0
 18 17  1  0
 19 18  1  0
 20 19  1  0
 21 20  1  0
 22 21  1  0
 23 22  1  0
 24 23  1  0
 25 24  1  0
 26 25  1  0
 27 26  1  0
 28 27  2  0
 29  2  1  0
 29 27  1  0
 30 26  1  0
 31  3  1  0
 31  4  1  0
 31  5  1  0
 31 30  1  0
M  END
>  <NAME>  (6265) 
METHYL 2-TRIMETHYLSILOXYTRICOSANOATE

>  <SYNONYMS>  (6265) 
METHYL (O-TRIMETHYLSILYL)-ALPHA-HYDROXYTRICOSANOATE

>  <SPECTRUM TYPE>  (6265) 
MS1

>  <INSTRUMENT TYPE>  (6265) 
EI-B

>  <INSTRUMENT>  (6265) 
SHIMADZU LKB-9000B

>  <ION MODE>  (6265) 
P

>  <INCHIKEY>  (6265) 
GRADXVJUAVCNHF-UHFFFAOYSA-N

>  <FORMULA>  (6265) 
C27H56O3Si

>  <EXACT MASS>  (6265) 
456.39987218199997

>  <MW>  (6265) 
456

>  <ID>  (6265) 
JP001871

>  <CONTRIBUTOR>  (6265) 
University of Tokyo Team, {Faculty of Engineering, University of Tokyo

>  <COMMENT>  (6265) 
SMILES=CCCCCCCCCCCCCCCCCCCCCC(C(=O)OC)O[Si](C)(C)C
InChI=InChI=1S/C27H56O3Si/c1-6-7-8-9-10-11-12-13-14-15-16-17-18-19-20-21-22-23-24-25-26(27(28)29-2)30-31(3,4)5/h26H,6-25H2,1-5H3
computed SMILES=O=C(OC)C(O[Si](C)(C)C)CCCCCCCCCCCCCCCCCCCCC
accession=JP001871
date=2016.01.19 (Created 2008.10.21, modified 2011.05.06)
author=SEYAMA Y, DEPT. OF PHYSIOL. CHEMISTRY AND NUTRITION, FAC. OF MEDICINE, UNIV. OF TOKYO
license=CC BY-NC-SA
exact mass=456.39987
ionization energy=70 eV
ion type=[M]+*
computed spectral entropy=3.467887407535072
computed normalized entropy=0.8135462919026655
SPLASH=splash10-0002-9203100000-10a214409049cff6705c
submitter=submitter = University of Tokyo Team (Faculty of Engineering, University of Tokyo)
MoNA Rating=3.75

>  <NUM PEAKS>  (6265) 
71

>  <MASS SPECTRAL PEAKS>  (6265) 
41 10.2
42 2.5
43 26.7
45 2.1
54 1.6
55 13.5
56 2.7
57 23.5
58 1.5
59 6.7
61 1.6
67 5.1
68 2.6
69 12.4
70 2.7
71 11.7
72 1.6
73 64.7
74 6.5
75 17.8
76 1.5
77 1
81 5.6
82 4
83 15.5
84 1.8
85 6.4
87 1.7
89 28.3
90 2.6
91 6.5
95 6.4
97 13.2
98 1.7
99 1.6
101 3
103 17.5
104 1.8
105 2
107 1.4
109 4.1
110 1.1
111 6.1
113 1
115 3.2
116 2.3
117 1.8
119 1.8
123 1.5
125 2.4
129 17.7
130 2.1
131 2.5
143 2.5
145 2.8
146 2.3
159 10.4
160 1
161 1.4
162 2.2
185 1.5
207 1.4
397 99.99
398 32
399 8
400 1.2
413 3.7
441 32.8
442 10.8
443 2.7
456 3

$$$$

     RDKit          2D

 30 29  0  0  0  0  0  0  0  0999 V2000
    7.3825   13.2623    0.0000 C   0  0  0  0  0  0  0  0  0  0  0  0
  -21.1964   11.7623    0.0000 C   0  0  0  0  0  0  0  0  0  0  0  0
  -21.9464   14.5613    0.0000 C   0  0  0  0  0  0  0  0  0  0  0  0
  -22.4954   12.5123    0.0000 C   0  0  0  0  0  0  0  0  0  0  0  0
  -20.4464   11.9632    0.0000 C   0  0  0  0  0  0  0  0  0  0  0  0
    6.0834   14.0123    0.0000 C   0  0  0  0  0  0  0  0  0  0  0  0
    4.7844   13.2623    0.0000 C   0  0  0  0  0  0  0  0  0  0  0  0
    3.4853   14.0123    0.0000 C   0  0  0  0  0  0  0  0  0  0  0  0
    2.1863   13.2623    0.0000 C   0  0  0  0  0  0  0  0  0  0  0  0
    0.8873   14.0123    0.0000 C   0  0  0  0  0  0  0  0  0  0  0  0
   -0.4118   13.2623    0.0000 C   0  0  0  0  0  0  0  0  0  0  0  0
   -1.7108   14.0123    0.0000 C   0  0  0  0  0  0  0  0  0  0  0  0
   -3.0099   13.2623    0.0000 C   0  0  0  0  0  0  0  0  0  0  0  0
   -4.3089   14.0123    0.0000 C   0  0  0  0  0  0  0  0  0  0  0  0
   -5.6079   13.2623    0.0000 C   0  0  0  0  0  0  0  0  0  0  0  0
   -6.9070   14.0123    0.0000 C   0  0  0  0  0  0  0  0  0  0  0  0
   -8.2060   13.2623    0.0000 C   0  0  0  0  0  0  0  0  0  0  0  0
   -9.5050   14.0123    0.0000 C   0  0  0  0  0  0  0  0  0  0  0  0
  -10.8041   13.2623    0.0000 C   0  0  0  0  0  0  0  0  0  0  0  0
  -12.1031   14.0123    0.0000 C   0  0  0  0  0  0  0  0  0  0  0  0
  -13.4022   13.2623    0.0000 C   0  0  0  0  0  0  0  0  0  0  0  0
  -14.7012   14.0123    0.0000 C   0  0  0  0  0  0  0  0  0  0  0  0
  -16.0002   13.2623    0.0000 C   0  0  0  0  0  0  0  0  0  0  0  0
  -17.2993   14.0123    0.0000 C   0  0  0  0  0  0  0  0  0  0  0  0
  -18.5983   13.2623    0.0000 C   0  0  0  0  0  0  0  0  0  0  0  0
  -18.5983   11.7623    0.0000 C   0  0  0  0  0  0  0  0  0  0  0  0
  -17.2993   11.0123    0.0000 O   0  0  0  0  0  0  0  0  0  0  0  0
  -19.8974   11.0123    0.0000 O   0  0  0  0  0  0  0  0  0  0  0  0
  -19.8974   14.0123    0.0000 O   0  0  0  0  0  0  0  0  0  0  0  0
  -21.1964   13.2623    0.0000 Si  0  0  0  0  0  4  0  0  0  0  0  0
  6  1  1  0
  7  6  1  0
  8  7  1  0
  9  8  1  0
 10  9  1  0
 11 10  1  0
 12 11  1  0
 13 12  1  0
 14 13  1  0
 15 14  1  0
 16 15  1  0
 17 16  1  0
 18 17  1  0
 19 18  1  0
 20 19  1  0
 21 20  1  0
 22 21  1  0
 23 22  1  0
 24 23  1  0
 25 24  1  0
 26 25  1  0
 27 26  2  0
 28  2  1  0
 28 26  1  0
 29 25  1  0
 30  3  1  0
 30  4  1  0
 30  5  1  0
 30 29  1  0
M  END
>  <NAME>  (6266) 
METHYL 2-TRIMETHYLSILOXYDOCOSANOATE

>  <SYNONYMS>  (6266) 
METHYL (O-TRIMETHYLSILYL)-ALPHA-HYDROXYBEHENATE

>  <SPECTRUM TYPE>  (6266) 
MS1

>  <INSTRUMENT TYPE>  (6266) 
EI-B

>  <INSTRUMENT>  (6266) 
SHIMADZU LKB-9000B

>  <ION MODE>  (6266) 
P

>  <INCHIKEY>  (6266) 
QSSVMTKWPPSPAQ-UHFFFAOYSA-N

>  <FORMULA>  (6266) 
C26H54O3Si

>  <EXACT MASS>  (6266) 
442.38422211799997

>  <MW>  (6266) 
442

>  <ID>  (6266) 
JP001870

>  <CONTRIBUTOR>  (6266) 
University of Tokyo Team, {Faculty of Engineering, University of Tokyo

>  <COMMENT>  (6266) 
SMILES=CCCCCCCCCCCCCCCCCCCCC(C(=O)OC)O[Si](C)(C)C
InChI=InChI=1S/C26H54O3Si/c1-6-7-8-9-10-11-12-13-14-15-16-17-18-19-20-21-22-23-24-25(26(27)28-2)29-30(3,4)5/h25H,6-24H2,1-5H3
computed SMILES=O=C(OC)C(O[Si](C)(C)C)CCCCCCCCCCCCCCCCCCCC
accession=JP001870
date=2016.01.19 (Created 2008.10.21, modified 2011.05.06)
author=SEYAMA Y, DEPT. OF PHYSIOL. CHEMISTRY AND NUTRITION, FAC. OF MEDICINE, UNIV. OF TOKYO
license=CC BY-NC-SA
exact mass=442.38422
ionization energy=70 eV
ion type=[M]+*
computed spectral entropy=3.407650369412044
computed normalized entropy=0.8075942995036718
SPLASH=splash10-001i-9204100000-4a89313bf56153f70ec6
submitter=submitter = University of Tokyo Team (Faculty of Engineering, University of Tokyo)
MoNA Rating=3.75

>  <NUM PEAKS>  (6266) 
68

>  <MASS SPECTRAL PEAKS>  (6266) 
41 10
42 2.3
43 21.8
44 1
45 1.8
54 1.5
55 12.4
56 2.6
57 19.7
58 1.1
59 6.6
61 1.7
67 4.3
68 2.7
69 11.3
70 2
71 10.8
72 1.2
73 61.3
74 6.2
75 15.2
76 1.4
81 5.1
82 3
83 13.8
84 1.4
85 5.5
87 1.6
89 26.4
90 2.1
91 6.2
95 5.8
97 12.7
98 1.5
99 1.4
101 2.8
103 16.3
104 2
105 1.8
107 1.4
109 3.5
111 5.9
115 2.8
116 2
117 1.8
119 1.8
123 1.4
125 2.2
129 16.7
130 2.1
131 2.1
143 2.3
145 2.3
146 2.2
159 9.7
160 1
161 1
162 1.6
185 1.1
383 99.99
384 32
385 8.4
386 1
399 3.5
427 32.7
428 11
429 2.7
442 2.3

$$$$

     RDKit          2D

 29 28  0  0  0  0  0  0  0  0999 V2000
    7.4192   12.6495    0.0000 C   0  0  0  0  0  0  0  0  0  0  0  0
  -19.8606   14.8995    0.0000 C   0  0  0  0  0  0  0  0  0  0  0  0
  -19.1106   14.6986    0.0000 C   0  0  0  0  0  0  0  0  0  0  0  0
  -21.1596   14.1495    0.0000 C   0  0  0  0  0  0  0  0  0  0  0  0
  -20.6106   12.1005    0.0000 C   0  0  0  0  0  0  0  0  0  0  0  0
    6.1202   13.3995    0.0000 C   0  0  0  0  0  0  0  0  0  0  0  0
    4.8212   12.6495    0.0000 C   0  0  0  0  0  0  0  0  0  0  0  0
    3.5221   13.3995    0.0000 C   0  0  0  0  0  0  0  0  0  0  0  0
    2.2231   12.6495    0.0000 C   0  0  0  0  0  0  0  0  0  0  0  0
    0.9240   13.3995    0.0000 C   0  0  0  0  0  0  0  0  0  0  0  0
   -0.3750   12.6495    0.0000 C   0  0  0  0  0  0  0  0  0  0  0  0
   -1.6740   13.3995    0.0000 C   0  0  0  0  0  0  0  0  0  0  0  0
   -2.9731   12.6495    0.0000 C   0  0  0  0  0  0  0  0  0  0  0  0
   -4.2721   13.3995    0.0000 C   0  0  0  0  0  0  0  0  0  0  0  0
   -5.5712   12.6495    0.0000 C   0  0  0  0  0  0  0  0  0  0  0  0
   -6.8702   13.3995    0.0000 C   0  0  0  0  0  0  0  0  0  0  0  0
   -8.1692   12.6495    0.0000 C   0  0  0  0  0  0  0  0  0  0  0  0
   -9.4683   13.3995    0.0000 C   0  0  0  0  0  0  0  0  0  0  0  0
  -10.7673   12.6495    0.0000 C   0  0  0  0  0  0  0  0  0  0  0  0
  -12.0663   13.3995    0.0000 C   0  0  0  0  0  0  0  0  0  0  0  0
  -13.3654   12.6495    0.0000 C   0  0  0  0  0  0  0  0  0  0  0  0
  -14.6644   13.3995    0.0000 C   0  0  0  0  0  0  0  0  0  0  0  0
  -15.9635   12.6495    0.0000 C   0  0  0  0  0  0  0  0  0  0  0  0
  -17.2625   13.3995    0.0000 C   0  0  0  0  0  0  0  0  0  0  0  0
  -17.2625   14.8995    0.0000 C   0  0  0  0  0  0  0  0  0  0  0  0
  -15.9635   15.6495    0.0000 O   0  0  0  0  0  0  0  0  0  0  0  0
  -18.5615   15.6495    0.0000 O   0  0  0  0  0  0  0  0  0  0  0  0
  -18.5615   12.6495    0.0000 O   0  0  0  0  0  0  0  0  0  0  0  0
  -19.8606   13.3995    0.0000 Si  0  0  0  0  0  4  0  0  0  0  0  0
  6  1  1  0
  7  6  1  0
  8  7  1  0
  9  8  1  0
 10  9  1  0
 11 10  1  0
 12 11  1  0
 13 12  1  0
 14 13  1  0
 15 14  1  0
 16 15  1  0
 17 16  1  0
 18 17  1  0
 19 18  1  0
 20 19  1  0
 21 20  1  0
 22 21  1  0
 23 22  1  0
 24 23  1  0
 25 24  1  0
 26 25  2  0
 27  2  1  0
 27 25  1  0
 28 24  1  0
 29  3  1  0
 29  4  1  0
 29  5  1  0
 29 28  1  0
M  END
>  <NAME>  (6267) 
METHYL 2-TRIMETHYLSILOXYHENEICOSANOATE

>  <SYNONYMS>  (6267) 
METHYL (O-TRIMETHYLSILYL)-ALPHA-HYDROXYHENEICOSANOATE

>  <SPECTRUM TYPE>  (6267) 
MS1

>  <INSTRUMENT TYPE>  (6267) 
EI-B

>  <INSTRUMENT>  (6267) 
SHIMADZU LKB-9000B

>  <ION MODE>  (6267) 
P

>  <INCHIKEY>  (6267) 
KAWPRWNCFLMHOR-UHFFFAOYSA-N

>  <FORMULA>  (6267) 
C25H52O3Si

>  <EXACT MASS>  (6267) 
428.36857205399997

>  <MW>  (6267) 
428

>  <ID>  (6267) 
JP001869

>  <CONTRIBUTOR>  (6267) 
University of Tokyo Team, {Faculty of Engineering, University of Tokyo

>  <COMMENT>  (6267) 
SMILES=CCCCCCCCCCCCCCCCCCCC(C(=O)OC)O[Si](C)(C)C
InChI=InChI=1S/C25H52O3Si/c1-6-7-8-9-10-11-12-13-14-15-16-17-18-19-20-21-22-23-24(25(26)27-2)28-29(3,4)5/h24H,6-23H2,1-5H3
computed SMILES=O=C(OC)C(O[Si](C)(C)C)CCCCCCCCCCCCCCCCCCC
accession=JP001869
date=2016.01.19 (Created 2008.10.21, modified 2011.05.06)
author=SEYAMA Y, DEPT. OF PHYSIOL. CHEMISTRY AND NUTRITION, FAC. OF MEDICINE, UNIV. OF TOKYO
license=CC BY-NC-SA
exact mass=428.36857
ionization energy=70 eV
ion type=[M]+*
computed spectral entropy=3.4227092561325043
computed normalized entropy=0.8140212771672882
SPLASH=splash10-01b9-9203100000-e68f380f6f25fd95e170
submitter=submitter = University of Tokyo Team (Faculty of Engineering, University of Tokyo)
MoNA Rating=3.75

>  <NUM PEAKS>  (6267) 
67

>  <MASS SPECTRAL PEAKS>  (6267) 
41 10.7
42 2.8
43 25.4
45 2.4
54 1.5
55 13.9
56 2.6
57 21.2
58 1.5
59 7.4
61 1.5
67 5.4
68 2.6
69 12.8
70 2.3
71 11.2
72 1.6
73 69.4
74 6.8
75 17.7
76 1.5
81 6.2
82 3.7
83 16.2
84 1.9
85 6.2
87 1.9
89 29.7
90 2.5
91 6.2
95 6.3
97 13.9
98 1.5
99 1.5
101 3.5
103 18.6
104 1.8
105 2
107 1.3
109 3.5
110 1
111 6.5
115 3.2
116 2.3
117 1.9
119 1.9
123 1.6
125 2.2
129 16.7
130 2.1
131 2.5
143 2.1
145 2.5
146 2.2
159 10.9
160 1
161 1.3
162 2
185 1.3
369 99.99
370 30.4
371 7.6
385 3.5
413 32
414 10.2
415 2.5
428 1.8

$$$$

     RDKit          2D

 28 27  0  0  0  0  0  0  0  0999 V2000
    6.7329   12.1373    0.0000 C   0  0  0  0  0  0  0  0  0  0  0  0
  -19.2478   10.6373    0.0000 C   0  0  0  0  0  0  0  0  0  0  0  0
  -19.9978   13.4363    0.0000 C   0  0  0  0  0  0  0  0  0  0  0  0
  -20.5469   11.3873    0.0000 C   0  0  0  0  0  0  0  0  0  0  0  0
  -18.4978   10.8382    0.0000 C   0  0  0  0  0  0  0  0  0  0  0  0
    5.4339   12.8873    0.0000 C   0  0  0  0  0  0  0  0  0  0  0  0
    4.1349   12.1373    0.0000 C   0  0  0  0  0  0  0  0  0  0  0  0
    2.8358   12.8873    0.0000 C   0  0  0  0  0  0  0  0  0  0  0  0
    1.5368   12.1373    0.0000 C   0  0  0  0  0  0  0  0  0  0  0  0
    0.2377   12.8873    0.0000 C   0  0  0  0  0  0  0  0  0  0  0  0
   -1.0613   12.1373    0.0000 C   0  0  0  0  0  0  0  0  0  0  0  0
   -2.3603   12.8873    0.0000 C   0  0  0  0  0  0  0  0  0  0  0  0
   -3.6594   12.1373    0.0000 C   0  0  0  0  0  0  0  0  0  0  0  0
   -4.9584   12.8873    0.0000 C   0  0  0  0  0  0  0  0  0  0  0  0
   -6.2575   12.1373    0.0000 C   0  0  0  0  0  0  0  0  0  0  0  0
   -7.5565   12.8873    0.0000 C   0  0  0  0  0  0  0  0  0  0  0  0
   -8.8555   12.1373    0.0000 C   0  0  0  0  0  0  0  0  0  0  0  0
  -10.1546   12.8873    0.0000 C   0  0  0  0  0  0  0  0  0  0  0  0
  -11.4536   12.1373    0.0000 C   0  0  0  0  0  0  0  0  0  0  0  0
  -12.7526   12.8873    0.0000 C   0  0  0  0  0  0  0  0  0  0  0  0
  -14.0517   12.1373    0.0000 C   0  0  0  0  0  0  0  0  0  0  0  0
  -15.3507   12.8873    0.0000 C   0  0  0  0  0  0  0  0  0  0  0  0
  -16.6498   12.1373    0.0000 C   0  0  0  0  0  0  0  0  0  0  0  0
  -16.6498   10.6373    0.0000 C   0  0  0  0  0  0  0  0  0  0  0  0
  -15.3507    9.8873    0.0000 O   0  0  0  0  0  0  0  0  0  0  0  0
  -17.9488    9.8873    0.0000 O   0  0  0  0  0  0  0  0  0  0  0  0
  -17.9488   12.8873    0.0000 O   0  0  0  0  0  0  0  0  0  0  0  0
  -19.2478   12.1373    0.0000 Si  0  0  0  0  0  4  0  0  0  0  0  0
  6  1  1  0
  7  6  1  0
  8  7  1  0
  9  8  1  0
 10  9  1  0
 11 10  1  0
 12 11  1  0
 13 12  1  0
 14 13  1  0
 15 14  1  0
 16 15  1  0
 17 16  1  0
 18 17  1  0
 19 18  1  0
 20 19  1  0
 21 20  1  0
 22 21  1  0
 23 22  1  0
 24 23  1  0
 25 24  2  0
 26  2  1  0
 26 24  1  0
 27 23  1  0
 28  3  1  0
 28  4  1  0
 28  5  1  0
 28 27  1  0
M  END
>  <NAME>  (6268) 
METHYL 2-TRIMETHYLSILOXYEICOSANOATE

>  <SYNONYMS>  (6268) 
METHYL (O-TRIMETHYLSILYL)-ALPHA-HYDROXYARACHIDATE

>  <SPECTRUM TYPE>  (6268) 
MS1

>  <INSTRUMENT TYPE>  (6268) 
EI-B

>  <INSTRUMENT>  (6268) 
SHIMADZU LKB-9000B

>  <ION MODE>  (6268) 
P

>  <INCHIKEY>  (6268) 
AIDIPDFVXORXLT-UHFFFAOYSA-N

>  <FORMULA>  (6268) 
C24H50O3Si

>  <EXACT MASS>  (6268) 
414.35292198999997

>  <MW>  (6268) 
414

>  <ID>  (6268) 
JP001868

>  <CONTRIBUTOR>  (6268) 
University of Tokyo Team, {Faculty of Engineering, University of Tokyo

>  <COMMENT>  (6268) 
SMILES=CCCCCCCCCCCCCCCCCCC(C(=O)OC)O[Si](C)(C)C
InChI=InChI=1S/C24H50O3Si/c1-6-7-8-9-10-11-12-13-14-15-16-17-18-19-20-21-22-23(24(25)26-2)27-28(3,4)5/h23H,6-22H2,1-5H3
computed SMILES=O=C(OC)C(O[Si](C)(C)C)CCCCCCCCCCCCCCCCCC
accession=JP001868
date=2016.01.19 (Created 2008.10.21, modified 2011.05.06)
author=SEYAMA Y, DEPT. OF PHYSIOL. CHEMISTRY AND NUTRITION, FAC. OF MEDICINE, UNIV. OF TOKYO
license=CC BY-NC-SA
exact mass=414.35292
ionization energy=70 eV
ion type=[M]+*
computed spectral entropy=3.4252075537968767
computed normalized entropy=0.8009059997849268
SPLASH=splash10-0a4i-9206000000-24419fa72e2c684c5d08
submitter=submitter = University of Tokyo Team (Faculty of Engineering, University of Tokyo)
MoNA Rating=3.75

>  <NUM PEAKS>  (6268) 
72

>  <MASS SPECTRAL PEAKS>  (6268) 
39 1.1
41 8.8
42 2.1
43 19.9
45 2.2
54 1.1
55 11.3
56 2.3
57 17
58 1.1
59 6.1
61 1.2
67 4
68 1.7
69 10.4
70 2.4
71 8.5
72 1.2
73 55.1
74 5.5
75 14.3
76 1.3
81 4.8
82 2.9
83 12.9
84 1.6
85 4.4
87 1.7
89 24.9
90 2.1
91 5.1
95 4.9
97 11.8
98 1
99 1.1
101 2.6
103 16.1
104 1.7
105 1.9
107 1.5
109 2.9
111 5.5
113 1
115 2.8
116 1.7
117 1.4
119 2.4
123 1.1
125 1.8
129 13.2
130 1.6
131 2
143 1.6
145 1.9
146 2.2
149 4.2
159 8.9
161 1.3
162 1.6
167 1.4
185 1.1
207 2.6
355 99.99
356 29.3
357 7.3
358 1
371 3.6
372 1
399 33.1
400 10.2
401 2.5
414 1.7

$$$$

     RDKit          2D

 27 26  0  0  0  0  0  0  0  0999 V2000
    6.7697   11.5245    0.0000 C   0  0  0  0  0  0  0  0  0  0  0  0
  -17.9120   13.7745    0.0000 C   0  0  0  0  0  0  0  0  0  0  0  0
  -17.1620   13.5736    0.0000 C   0  0  0  0  0  0  0  0  0  0  0  0
  -19.2111   13.0245    0.0000 C   0  0  0  0  0  0  0  0  0  0  0  0
  -18.6620   10.9755    0.0000 C   0  0  0  0  0  0  0  0  0  0  0  0
    5.4707   12.2745    0.0000 C   0  0  0  0  0  0  0  0  0  0  0  0
    4.1716   11.5245    0.0000 C   0  0  0  0  0  0  0  0  0  0  0  0
    2.8726   12.2745    0.0000 C   0  0  0  0  0  0  0  0  0  0  0  0
    1.5736   11.5245    0.0000 C   0  0  0  0  0  0  0  0  0  0  0  0
    0.2745   12.2745    0.0000 C   0  0  0  0  0  0  0  0  0  0  0  0
   -1.0245   11.5245    0.0000 C   0  0  0  0  0  0  0  0  0  0  0  0
   -2.3236   12.2745    0.0000 C   0  0  0  0  0  0  0  0  0  0  0  0
   -3.6226   11.5245    0.0000 C   0  0  0  0  0  0  0  0  0  0  0  0
   -4.9216   12.2745    0.0000 C   0  0  0  0  0  0  0  0  0  0  0  0
   -6.2207   11.5245    0.0000 C   0  0  0  0  0  0  0  0  0  0  0  0
   -7.5197   12.2745    0.0000 C   0  0  0  0  0  0  0  0  0  0  0  0
   -8.8187   11.5245    0.0000 C   0  0  0  0  0  0  0  0  0  0  0  0
  -10.1178   12.2745    0.0000 C   0  0  0  0  0  0  0  0  0  0  0  0
  -11.4168   11.5245    0.0000 C   0  0  0  0  0  0  0  0  0  0  0  0
  -12.7159   12.2745    0.0000 C   0  0  0  0  0  0  0  0  0  0  0  0
  -14.0149   11.5245    0.0000 C   0  0  0  0  0  0  0  0  0  0  0  0
  -15.3139   12.2745    0.0000 C   0  0  0  0  0  0  0  0  0  0  0  0
  -15.3139   13.7745    0.0000 C   0  0  0  0  0  0  0  0  0  0  0  0
  -14.0149   14.5245    0.0000 O   0  0  0  0  0  0  0  0  0  0  0  0
  -16.6130   14.5245    0.0000 O   0  0  0  0  0  0  0  0  0  0  0  0
  -16.6130   11.5245    0.0000 O   0  0  0  0  0  0  0  0  0  0  0  0
  -17.9120   12.2745    0.0000 Si  0  0  0  0  0  4  0  0  0  0  0  0
  6  1  1  0
  7  6  1  0
  8  7  1  0
  9  8  1  0
 10  9  1  0
 11 10  1  0
 12 11  1  0
 13 12  1  0
 14 13  1  0
 15 14  1  0
 16 15  1  0
 17 16  1  0
 18 17  1  0
 19 18  1  0
 20 19  1  0
 21 20  1  0
 22 21  1  0
 23 22  1  0
 24 23  2  0
 25  2  1  0
 25 23  1  0
 26 22  1  0
 27  3  1  0
 27  4  1  0
 27  5  1  0
 27 26  1  0
M  END
>  <NAME>  (6269) 
METHYL 2-TRIMETHYLSILOXYNONADECANOATE

>  <SYNONYMS>  (6269) 
METHYL (O-TRIMETHYLSILYL)-ALPHA-HYDROXYNONADECANOATE

>  <SPECTRUM TYPE>  (6269) 
MS1

>  <INSTRUMENT TYPE>  (6269) 
EI-B

>  <INSTRUMENT>  (6269) 
SHIMADZU LKB-9000B

>  <ION MODE>  (6269) 
P

>  <INCHIKEY>  (6269) 
VMAQKURDBISNDM-UHFFFAOYSA-N

>  <FORMULA>  (6269) 
C23H48O3Si

>  <EXACT MASS>  (6269) 
400.33727192599997

>  <MW>  (6269) 
400

>  <ID>  (6269) 
JP001867

>  <CONTRIBUTOR>  (6269) 
University of Tokyo Team, {Faculty of Engineering, University of Tokyo

>  <COMMENT>  (6269) 
SMILES=CCCCCCCCCCCCCCCCCC(C(=O)OC)O[Si](C)(C)C
InChI=InChI=1S/C23H48O3Si/c1-6-7-8-9-10-11-12-13-14-15-16-17-18-19-20-21-22(23(24)25-2)26-27(3,4)5/h22H,6-21H2,1-5H3
computed SMILES=O=C(OC)C(O[Si](C)(C)C)CCCCCCCCCCCCCCCCC
ion type=[M]+*
accession=JP001867
date=2016.01.19 (Created 2008.10.21, modified 2011.05.06)
author=SEYAMA Y, DEPT. OF PHYSIOL. CHEMISTRY AND NUTRITION, FAC. OF MEDICINE, UNIV. OF TOKYO
license=CC BY-NC-SA
exact mass=400.33727
ionization energy=70 eV
computed spectral entropy=3.3135988575976594
computed normalized entropy=0.7997806193677998
SPLASH=splash10-0006-9207000000-7ae9ddaf279fe36a98e2
submitter=submitter = University of Tokyo Team (Faculty of Engineering, University of Tokyo)
MoNA Rating=3.75

>  <NUM PEAKS>  (6269) 
63

>  <MASS SPECTRAL PEAKS>  (6269) 
41 9.4
42 2
43 16.1
45 2
54 1.2
55 9.8
56 2.5
57 14.1
59 5.9
61 1.2
67 4
68 1.8
69 10.3
70 2
71 6.6
72 1.1
73 52.3
74 5.3
75 13.1
76 1.2
77 1.3
81 5
82 2.9
83 10.4
84 1.4
85 3.8
87 1.6
89 24.3
90 2
91 5.4
95 5
97 12
101 2.4
103 14.8
104 1.5
105 2.1
107 1.1
109 2.8
111 5.4
115 2.7
116 1.7
117 1.3
119 2
123 1.1
125 1.7
129 12.9
130 1.6
131 2.2
143 1.6
145 1.6
146 1.8
149 1.1
159 8.1
162 1.4
207 1.8
341 99.99
342 28.3
343 6.8
357 3.6
385 34.6
386 9.2
387 2.1
400 1.1

$$$$

     RDKit          2D

 26 25  0  0  0  0  0  0  0  0999 V2000
    6.0834   11.0123    0.0000 C   0  0  0  0  0  0  0  0  0  0  0  0
  -17.2993    9.5123    0.0000 C   0  0  0  0  0  0  0  0  0  0  0  0
  -18.0493   12.3113    0.0000 C   0  0  0  0  0  0  0  0  0  0  0  0
  -18.5983   10.2623    0.0000 C   0  0  0  0  0  0  0  0  0  0  0  0
  -16.5493    9.7132    0.0000 C   0  0  0  0  0  0  0  0  0  0  0  0
    4.7844   11.7623    0.0000 C   0  0  0  0  0  0  0  0  0  0  0  0
    3.4853   11.0123    0.0000 C   0  0  0  0  0  0  0  0  0  0  0  0
    2.1863   11.7623    0.0000 C   0  0  0  0  0  0  0  0  0  0  0  0
    0.8873   11.0123    0.0000 C   0  0  0  0  0  0  0  0  0  0  0  0
   -0.4118   11.7623    0.0000 C   0  0  0  0  0  0  0  0  0  0  0  0
   -1.7108   11.0123    0.0000 C   0  0  0  0  0  0  0  0  0  0  0  0
   -3.0099   11.7623    0.0000 C   0  0  0  0  0  0  0  0  0  0  0  0
   -4.3089   11.0123    0.0000 C   0  0  0  0  0  0  0  0  0  0  0  0
   -5.6079   11.7623    0.0000 C   0  0  0  0  0  0  0  0  0  0  0  0
   -6.9070   11.0123    0.0000 C   0  0  0  0  0  0  0  0  0  0  0  0
   -8.2060   11.7623    0.0000 C   0  0  0  0  0  0  0  0  0  0  0  0
   -9.5050   11.0123    0.0000 C   0  0  0  0  0  0  0  0  0  0  0  0
  -10.8041   11.7623    0.0000 C   0  0  0  0  0  0  0  0  0  0  0  0
  -12.1031   11.0123    0.0000 C   0  0  0  0  0  0  0  0  0  0  0  0
  -13.4022   11.7623    0.0000 C   0  0  0  0  0  0  0  0  0  0  0  0
  -14.7012   11.0123    0.0000 C   0  0  0  0  0  0  0  0  0  0  0  0
  -14.7012    9.5123    0.0000 C   0  0  0  0  0  0  0  0  0  0  0  0
  -13.4022    8.7623    0.0000 O   0  0  0  0  0  0  0  0  0  0  0  0
  -16.0002    8.7623    0.0000 O   0  0  0  0  0  0  0  0  0  0  0  0
  -16.0002   11.7623    0.0000 O   0  0  0  0  0  0  0  0  0  0  0  0
  -17.2993   11.0123    0.0000 Si  0  0  0  0  0  4  0  0  0  0  0  0
  6  1  1  0
  7  6  1  0
  8  7  1  0
  9  8  1  0
 10  9  1  0
 11 10  1  0
 12 11  1  0
 13 12  1  0
 14 13  1  0
 15 14  1  0
 16 15  1  0
 17 16  1  0
 18 17  1  0
 19 18  1  0
 20 19  1  0
 21 20  1  0
 22 21  1  0
 23 22  2  0
 24  2  1  0
 24 22  1  0
 25 21  1  0
 26  3  1  0
 26  4  1  0
 26  5  1  0
 26 25  1  0
M  END
>  <NAME>  (6270) 
METHYL 2-TRIMETHYLSILOXYOCTADECANOATE

>  <SYNONYMS>  (6270) 
METHYL (O-TRIMETHYLSILYL)-ALPHA-HYDROXYSTEARATE

>  <SPECTRUM TYPE>  (6270) 
MS1

>  <INSTRUMENT TYPE>  (6270) 
EI-B

>  <INSTRUMENT>  (6270) 
SHIMADZU LKB-9000B

>  <ION MODE>  (6270) 
P

>  <INCHIKEY>  (6270) 
MPVPFICBAYSSLQ-UHFFFAOYSA-N

>  <FORMULA>  (6270) 
C22H46O3Si

>  <EXACT MASS>  (6270) 
386.32162186200003

>  <MW>  (6270) 
386

>  <ID>  (6270) 
JP001866

>  <CONTRIBUTOR>  (6270) 
University of Tokyo Team, {Faculty of Engineering, University of Tokyo

>  <COMMENT>  (6270) 
SMILES=CCCCCCCCCCCCCCCCC(C(=O)OC)O[Si](C)(C)C
InChI=InChI=1S/C22H46O3Si/c1-6-7-8-9-10-11-12-13-14-15-16-17-18-19-20-21(22(23)24-2)25-26(3,4)5/h21H,6-20H2,1-5H3
computed SMILES=O=C(OC)C(O[Si](C)(C)C)CCCCCCCCCCCCCCCC
accession=JP001866
date=2016.01.19 (Created 2008.10.21, modified 2011.05.06)
author=SEYAMA Y, DEPT. OF PHYSIOL. CHEMISTRY AND NUTRITION, FAC. OF MEDICINE, UNIV. OF TOKYO
license=CC BY-NC-SA
exact mass=386.32162
ionization energy=70 eV
ion type=[M]+*
computed spectral entropy=3.379856021159171
computed normalized entropy=0.8038295131425638
SPLASH=splash10-00b9-9205000000-75d1c3ec3f329a2f48a8
submitter=submitter = University of Tokyo Team (Faculty of Engineering, University of Tokyo)
MoNA Rating=3.75

>  <NUM PEAKS>  (6270) 
67

>  <MASS SPECTRAL PEAKS>  (6270) 
41 11.8
42 2.3
43 20.2
45 3.3
52 1.2
54 1.2
55 11.7
56 2.7
57 15.5
58 1.2
59 7.4
61 1.4
67 4.4
68 1.8
69 12.3
70 2.2
71 8
72 1.4
73 66.3
74 6.5
75 17.1
76 1.3
77 1.3
79 1.4
80 1.1
81 5.7
82 2.9
83 14.5
84 1.7
85 4.2
87 2.5
89 30.8
90 2.6
91 6.1
95 5.7
97 13.7
98 1.3
99 1.2
101 3.1
103 18.3
104 1.7
105 2.4
107 1.7
109 3
111 6.8
115 2.6
116 1.8
117 2.1
119 2.2
123 1
125 1.8
129 13.6
130 1.7
131 2.6
143 1.7
145 1.9
146 2.1
159 9.3
162 1.3
327 99.99
328 26.5
329 6.6
343 3.5
371 32.4
372 9
373 1.8
386 0.7

$$$$

     RDKit          2D

 23 22  0  0  0  0  0  0  0  0999 V2000
  -19.4856   11.2500    0.0000 C   0  0  0  0  0  0  0  0  0  0  0  0
    6.4952   11.2500    0.0000 C   0  0  0  0  0  0  0  0  0  0  0  0
  -18.1865   10.5000    0.0000 C   0  0  0  0  0  0  0  0  0  0  0  0
    5.1962   10.5000    0.0000 C   0  0  0  0  0  0  0  0  0  0  0  0
  -16.8875   11.2500    0.0000 C   0  0  0  0  0  0  0  0  0  0  0  0
  -15.5885   10.5000    0.0000 C   0  0  0  0  0  0  0  0  0  0  0  0
  -14.2894   11.2500    0.0000 C   0  0  0  0  0  0  0  0  0  0  0  0
  -12.9904   10.5000    0.0000 C   0  0  0  0  0  0  0  0  0  0  0  0
  -11.6913   11.2500    0.0000 C   0  0  0  0  0  0  0  0  0  0  0  0
  -10.3923   10.5000    0.0000 C   0  0  0  0  0  0  0  0  0  0  0  0
   -9.0933   11.2500    0.0000 C   0  0  0  0  0  0  0  0  0  0  0  0
   -7.7942   10.5000    0.0000 C   0  0  0  0  0  0  0  0  0  0  0  0
   -6.4952   11.2500    0.0000 C   0  0  0  0  0  0  0  0  0  0  0  0
   -5.1962   10.5000    0.0000 C   0  0  0  0  0  0  0  0  0  0  0  0
   -3.8971   11.2500    0.0000 C   0  0  0  0  0  0  0  0  0  0  0  0
   -2.5981   10.5000    0.0000 C   0  0  0  0  0  0  0  0  0  0  0  0
   -1.2990   11.2500    0.0000 C   0  0  0  0  0  0  0  0  0  0  0  0
    1.2990   11.2500    0.0000 C   0  0  0  0  0  0  0  0  0  0  0  0
    0.0000   10.5000    0.0000 C   0  0  0  0  0  0  0  0  0  0  0  0
    2.5981   10.5000    0.0000 C   0  0  0  0  0  0  0  0  0  0  0  0
    0.0000    9.0000    0.0000 O   0  0  0  0  0  0  0  0  0  0  0  0
    2.5981    9.0000    0.0000 O   0  0  0  0  0  0  0  0  0  0  0  0
    3.8971   11.2500    0.0000 O   0  0  0  0  0  0  0  0  0  0  0  0
  3  1  1  0
  4  2  1  0
  5  3  1  0
  6  5  1  0
  7  6  1  0
  8  7  1  0
  9  8  1  0
 10  9  1  0
 11 10  1  0
 12 11  1  0
 13 12  1  0
 14 13  1  0
 15 14  1  0
 16 15  1  0
 17 16  1  0
 19 17  1  0
 19 18  1  0
 20 18  1  0
 21 19  1  0
 22 20  2  0
 23  4  1  0
 23 20  1  0
M  END
>  <NAME>  (6271) 
ETHYL 3-HYDROXYOCTADECANOATE

>  <SYNONYMS>  (6271) 
ETHYL BETA-HYDROXYSTEARATE

>  <SPECTRUM TYPE>  (6271) 
MS1

>  <INSTRUMENT TYPE>  (6271) 
EI-B

>  <INSTRUMENT>  (6271) 
SHIMADZU QP-1000

>  <ION MODE>  (6271) 
P

>  <INCHIKEY>  (6271) 
BXRPWBZYLZSTNL-UHFFFAOYSA-N

>  <FORMULA>  (6271) 
C20H40O3

>  <EXACT MASS>  (6271) 
328.29774513999996

>  <MW>  (6271) 
328

>  <ID>  (6271) 
JP001865

>  <CONTRIBUTOR>  (6271) 
University of Tokyo Team, {Faculty of Engineering, University of Tokyo

>  <COMMENT>  (6271) 
SMILES=CCCCCCCCCCCCCCCC(O)CC(=O)OCC
InChI=InChI=1S/C20H40O3/c1-3-5-6-7-8-9-10-11-12-13-14-15-16-17-19(21)18-20(22)23-4-2/h19,21H,3-18H2,1-2H3
computed SMILES=O=C(OCC)CC(O)CCCCCCCCCCCCCCC
accession=JP001865
date=2016.01.19 (Created 2008.10.21, modified 2011.05.06)
author=SEYAMA Y, DEPT. OF PHYSIOL. CHEMISTRY AND NUTRITION, FAC. OF MEDICINE, UNIV. OF TOKYO
license=CC BY-NC-SA
exact mass=328.29775
ionization energy=70 eV
ion type=[M]+*
computed spectral entropy=3.378492953917633
computed normalized entropy=0.806389347558397
SPLASH=splash10-066u-9200000000-fb8fee5485b6ce2a5a9d
submitter=submitter = University of Tokyo Team (Faculty of Engineering, University of Tokyo)
MoNA Rating=3.75

>  <NUM PEAKS>  (6271) 
66

>  <MASS SPECTRAL PEAKS>  (6271) 
39 3.2
40 1.3
41 36
42 11.1
43 74
44 8.3
45 9
47 2.6
53 1.7
54 4.5
55 32.1
56 9.3
57 35.2
58 3.3
59 1.5
60 7
61 7.3
67 8.6
68 7.5
69 17.4
70 13.2
71 37.5
72 2.1
73 7.1
75 7.4
79 1
81 8.4
82 7.8
83 11.6
84 5.5
85 6.1
86 1.1
87 1.5
88 20.5
89 22.7
95 6.1
96 8.2
97 8.4
98 4
99 2.9
101 5.2
109 2.9
110 2.6
111 3.6
112 1.3
114 1.1
115 3.3
116 1.1
117 99.99
118 5.4
119 1.3
123 1.8
124 1.4
125 1.3
127 1.6
128 1.2
147 1.2
149 3
155 1.4
213 1.3
222 2.5
239 1.2
264 3.2
265 2.1
281 0.8
310 0.9

$$$$

     RDKit          2D

 31 34  0  0  1  0  0  0  0  0999 V2000
    3.1099    4.4913    0.0000 C   0  0  0  0  0  0  0  0  0  0  0  0
   -1.6775    0.7300    0.0000 C   0  0  0  0  0  0  0  0  0  0  0  0
    2.3740    2.9721    0.0000 C   0  0  0  0  0  0  0  0  0  0  0  0
    9.4424    7.1652    0.0000 C   0  0  0  0  0  0  0  0  0  0  0  0
    5.5808    3.6884    0.0000 C   0  0  0  0  0  0  0  0  0  0  0  0
   -0.3800   -3.0200    0.0000 C   0  0  0  0  0  0  0  0  0  0  0  0
    0.9200   -2.2700    0.0000 C   0  0  0  0  0  0  0  0  0  0  0  0
    4.5300    0.7300    0.0000 C   0  0  0  0  0  0  0  0  0  0  0  0
    3.6500   -0.4800    0.0000 C   0  0  0  0  0  0  0  0  0  0  0  0
    6.0443    5.1150    0.0000 C   0  0  0  0  0  0  0  0  0  0  0  0
   -4.2700   -0.7700    0.0000 C   0  0  0  0  0  0  0  0  0  0  0  0
   -2.9700   -0.0200    0.0000 C   0  0  0  0  0  0  0  0  0  0  0  0
   -2.9700   -3.0200    0.0000 C   0  0  0  0  0  0  0  0  0  0  0  0
   -0.3800    1.4800    0.0000 C   0  0  0  0  0  0  0  0  0  0  0  0
   -0.8927    2.8896    0.0000 H   0  0  0  0  0  0  0  0  0  0  0  0
   -1.8800    1.4802    0.0000 H   0  0  0  0  0  0  0  0  0  0  0  0
    4.1136    3.3766    0.0000 C   0  0  0  0  0  0  0  0  0  0  0  0
   -1.6800   -2.2700    0.0000 C   0  0  0  0  0  0  0  0  0  0  0  0
   -4.2700   -2.2700    0.0000 C   0  0  0  0  0  0  0  0  0  0  0  0
    0.9200   -0.7700    0.0000 C   0  0  0  0  0  0  0  0  0  0  0  0
    3.6500    1.9500    0.0000 C   0  0  0  0  0  0  0  0  0  0  0  0
    2.2200   -0.0200    0.0000 C   0  0  0  0  0  0  0  0  0  0  0  0
   -0.3800   -0.0200    0.0000 C   0  0  0  0  0  0  0  0  0  0  0  0
    0.9200    2.2300    0.0000 C   0  0  0  0  0  0  0  0  0  0  0  0
    7.5116    5.4268    0.0000 C   0  0  0  0  0  0  0  0  0  0  0  0
   -1.6800   -0.7700    0.0000 C   0  0  0  0  0  0  0  0  0  0  0  0
    2.2200    1.4800    0.0000 C   0  0  0  0  0  0  0  0  0  0  0  0
   -5.5689   -3.0202    0.0000 O   0  0  0  0  0  0  0  0  0  0  0  0
    0.9200    3.7300    0.0000 O   0  0  0  0  0  0  0  0  0  0  0  0
    8.5152    4.3121    0.0000 O   0  0  0  0  0  0  0  0  0  0  0  0
    7.9751    6.8534    0.0000 O   0  0  0  0  0  0  0  0  0  0  0  0
 14 15  1  0
 14 16  1  0
  7  6  1  0
  9  8  1  0
 10  5  1  0
 12 11  1  0
 17  1  1  6
 17  5  1  0
 18  6  1  6
 18 13  1  0
 19 11  1  0
 19 13  1  0
 20  7  1  6
 21  8  1  1
 21 17  1  0
 22  9  1  1
 22 20  1  0
 23 14  1  1
 23 20  1  0
 24 14  1  0
 25 10  1  0
 26  2  1  1
 26 12  1  0
 26 18  1  0
 26 23  1  0
 27  3  1  1
 27 21  1  0
 27 22  1  0
 27 24  1  0
 19 28  1  6
 29 24  2  0
 30 25  2  0
 31  4  1  0
 31 25  1  0
M  ISO  2  15   2  16   2
M  END
>  <NAME>  (6272) 
METHYL 3ALPHA-HYDROXY-12-OXO-5BETA-CHOLAN-24-OATE (11,11-D2)

>  <SYNONYMS>  (6272) 
METHYL 12-KETOLITHOCHOLATE

>  <SPECTRUM TYPE>  (6272) 
MS1

>  <INSTRUMENT TYPE>  (6272) 
EI-B

>  <INSTRUMENT>  (6272) 
SHIMADZU QP-1000

>  <ION MODE>  (6272) 
P

>  <INCHIKEY>  (6272) 
BNXKKGNFJUFIND-XGZZKPOLSA-N

>  <FORMULA>  (6272) 
C25H40O4

>  <EXACT MASS>  (6272) 
406.305213252

>  <MW>  (6272) 
406

>  <ID>  (6272) 
JP001864

>  <CONTRIBUTOR>  (6272) 
University of Tokyo Team, {Faculty of Engineering, University of Tokyo

>  <COMMENT>  (6272) 
SMILES=C(C1(C)4)([H])(CC(O)CC4)CCC(C2([H])3)(C(C(C(C(C([H])(CC3)C([H])(C)CCC(=O)OC)2C)=O)([2H])[2H])1[H])[H]
InChI=InChI=1S/C25H40O4/c1-15(5-10-23(28)29-4)19-8-9-20-18-7-6-16-13-17(26)11-12-24(16,2)21(18)14-22(27)25(19,20)3/h15-21,26H,5-14H2,1-4H3/t15-,16-,17-,18+,19-,20+,21+,24+,25-/m1/s1/i14D2
computed SMILES=[H]C1([H])C(=O)C2(C)C(CCC2C3CCC4CC(O)CCC4(C)C31)C(C)CCC(=O)OC
accession=JP001864
date=2016.01.19 (Created 2008.10.21, modified 2011.05.06)
author=SEYAMA Y, DEPT. OF PHYSIOL. CHEMISTRY AND NUTRITION, FAC. OF MEDICINE, UNIV. OF TOKYO
license=CC BY-NC-SA
exact mass=404.29266
ionization energy=70 eV
ion type=[M]+*
computed spectral entropy=4.845742076649348
computed normalized entropy=0.866706020518507
SPLASH=splash10-0a5c-9641000000-6a71de607f21827380bc
submitter=submitter = University of Tokyo Team (Faculty of Engineering, University of Tokyo)
MoNA Rating=3.75

>  <NUM PEAKS>  (6272) 
268

>  <MASS SPECTRAL PEAKS>  (6272) 
39 8.1
40 11.1
41 61.2
42 15.3
43 73.5
44 10.9
45 18.6
46 1.3
53 14.2
54 8.6
55 99.99
56 19.2
57 28.6
58 3.7
59 21.4
60 2.6
61 1.1
65 5
66 3.5
67 44.4
68 15.3
69 34.2
70 9.9
71 9.9
72 1.6
73 18.7
74 8.9
75 1.1
77 12.3
78 5.6
79 42.3
80 15.6
81 77.9
82 23.2
83 31.5
84 6.4
85 6.1
86 1.4
87 3.6
88 1.4
91 24.6
92 11.1
93 39.4
94 16.3
95 37.4
96 14.2
97 14.7
98 5.4
99 6.3
100 1.6
101 2.6
103 1.3
104 1.4
105 20.2
106 11.4
107 35.2
108 15.9
109 39.9
110 12.2
111 12.2
112 4.2
113 2.8
114 1.4
115 7.3
116 4.5
117 4.8
118 2.8
119 12.6
120 8.7
121 26.5
122 35.2
123 30.9
124 12.9
125 14.9
126 2.8
127 2.1
128 2
129 3.5
130 2.4
131 6.6
132 5
133 11.2
134 6.3
135 17.5
136 11.8
137 13.8
138 6.1
139 4.4
140 1.4
141 4
142 1.8
143 3.9
144 4
145 9.6
146 6.4
147 22.2
149 20
150 7.9
151 17.6
152 3
153 3
154 9.7
155 3.8
156 3.5
157 4.2
158 4.6
159 9.1
160 5.2
161 7.6
162 5.5
163 12
165 10.1
166 2.1
167 1.4
169 1
170 1.7
171 3.2
172 3.3
173 6.3
174 4.3
175 6.5
176 3.6
177 8
178 2.2
179 2.5
180 1.2
181 1.3
183 1.3
184 1
185 2.8
186 3
187 4.4
188 3.1
189 6.7
191 10.4
192 2.5
193 1.6
194 1.5
195 1.7
197 1.4
198 2.1
199 2.7
200 2.3
201 3.3
202 2
203 3.8
204 2.3
205 7.7
206 2.2
207 1.3
211 1.2
212 1.9
213 4.6
214 4.6
215 14.2
216 4.3
217 3.4
218 2.2
219 1.3
220 1.1
221 1.2
223 1.7
224 1.2
225 1.2
226 1
227 2.7
228 2.1
229 5.2
230 20.2
231 18.4
233 94
235 2.4
236 1
237 1
239 1
240 1.1
241 1.8
242 1.8
243 2.2
244 2
245 5
246 4.6
247 3.8
249 10.8
251 70.2
253 2.9
254 6.6
255 16.4
256 3.5
257 2.1
259 6.2
260 2.3
261 2.1
262 1.8
263 6.8
264 6.6
265 2
266 1.3
271 3
272 3
273 12.9
274 2.6
275 1.9
277 8.7
278 5.4
279 2.9
280 1.8
281 1.5
282 1.3
283 3.3
284 1.3
285 1.1
287 1
289 1.7
290 1.9
291 20.8
293 1.3
294 1.1
295 1.6
296 2
297 3.9
298 1.5
299 1.5
300 1.1
301 3.4
302 1.7
303 1.1
310 1
311 5.2
312 2
313 2.3
314 2
315 6.7
316 1.8
319 2
323 1.6
327 1
328 1.4
329 1.1
331 1.9
332 2
333 18
339 1.3
340 1.5
341 4.3
342 1.4
345 1.6
346 1.4
355 1.7
356 2
357 3.7
358 1.2
359 1
369 1
370 2.1
371 1
372 1.1
373 7.1
374 3
375 3.7
376 1.1
388 13.4
389 4.2
391 1.3
404 2.6
406 74.1
407 24.1
408 4.4

$$$$

     RDKit          2D

 33 37  0  0  1  0  0  0  0  0999 V2000
    9.5592    7.5098    0.0000 C   0  0  0  0  0  0  0  0  0  0  0  0
    7.0863    8.3065    0.0000 C   0  0  0  0  0  0  0  0  0  0  0  0
    3.2335    4.8199    0.0000 C   0  0  0  0  0  0  0  0  0  0  0  0
    2.5172    3.3117    0.0000 C   0  0  0  0  0  0  0  0  0  0  0  0
   -1.5400    1.0700    0.0000 C   0  0  0  0  0  0  0  0  0  0  0  0
   -6.9387   -4.1804    0.0000 C   0  0  0  0  0  0  0  0  0  0  0  0
   -5.4384   -5.6802    0.0000 C   0  0  0  0  0  0  0  0  0  0  0  0
   -3.9387   -4.1800    0.0000 C   0  0  0  0  0  0  0  0  0  0  0  0
    6.1664    5.4510    0.0000 C   0  0  0  0  0  0  0  0  0  0  0  0
    7.6328    5.7665    0.0000 C   0  0  0  0  0  0  0  0  0  0  0  0
    5.7064    4.0233    0.0000 C   0  0  0  0  0  0  0  0  0  0  0  0
    4.6700    1.0700    0.0000 C   0  0  0  0  0  0  0  0  0  0  0  0
    3.7800   -0.1400    0.0000 C   0  0  0  0  0  0  0  0  0  0  0  0
   -4.1400   -0.4300    0.0000 C   0  0  0  0  0  0  0  0  0  0  0  0
   -0.2400    1.8200    0.0000 C   0  0  0  0  0  0  0  0  0  0  0  0
    1.0600    2.5700    0.0000 C   0  0  0  0  0  0  0  0  0  0  0  0
   -2.8400    0.3200    0.0000 C   0  0  0  0  0  0  0  0  0  0  0  0
    1.0600   -1.9300    0.0000 C   0  0  0  0  0  0  0  0  0  0  0  0
   -2.8400   -2.6800    0.0000 C   0  0  0  0  0  0  0  0  0  0  0  0
    8.0928    7.1942    0.0000 C   0  0  0  0  0  0  0  0  0  0  0  0
    4.2400    3.7077    0.0000 C   0  0  0  0  0  0  0  0  0  0  0  0
   -4.1400   -1.9300    0.0000 C   0  0  0  0  0  0  0  0  0  0  0  0
    1.0600   -0.4300    0.0000 C   0  0  0  0  0  0  0  0  0  0  0  0
    3.7800    2.2800    0.0000 C   0  0  0  0  0  0  0  0  0  0  0  0
    2.3600    0.3200    0.0000 C   0  0  0  0  0  0  0  0  0  0  0  0
   -0.2400    0.3200    0.0000 C   0  0  0  0  0  0  0  0  0  0  0  0
   -0.2400   -2.6800    0.0000 C   0  0  0  0  0  0  0  0  0  0  0  0
    2.3600    1.8200    0.0000 C   0  0  0  0  0  0  0  0  0  0  0  0
   -1.5400   -0.4300    0.0000 C   0  0  0  0  0  0  0  0  0  0  0  0
   -1.5400   -1.9300    0.0000 C   0  0  0  0  0  0  0  0  0  0  0  0
   -1.5400   -3.4300    0.0000 O   0  0  0  0  0  0  0  0  0  0  0  0
   -5.4389   -2.6802    0.0000 O   0  0  0  0  0  0  0  0  0  0  0  0
   -5.4387   -4.1802    0.0000 Si  0  0  0  0  0  4  0  0  0  0  0  0
 10  9  1  0
 11  9  1  0
 13 12  1  0
 16 15  1  0
 17 14  1  0
 20  1  1  0
 20  2  1  0
 20 10  1  0
 21  3  1  6
 21 11  1  0
 22 14  1  0
 22 19  1  0
 23 18  1  6
 24 12  1  1
 24 21  1  0
 25 13  1  1
 25 23  1  0
 26 15  1  1
 26 23  1  0
 27 18  1  6
 28  4  1  1
 28 16  1  0
 28 24  1  0
 28 25  1  0
 29  5  1  1
 29 17  1  0
 29 26  1  0
 30 19  1  1
 30 27  1  0
 30 29  1  0
 27 31  1  0
 30 31  1  0
 22 32  1  1
 33  6  1  0
 33  7  1  0
 33  8  1  0
 33 32  1  0
M  END
>  <NAME>  (6273) 
3BETA-TRIMETHYLSILOXY-5ALPHA,6ALPHA-EPOXYCHOLESTANE

>  <SYNONYMS>  (6273) 
TRIMETHYLSILYL ALPHA-EPOXYCHOLESTEROL

>  <SPECTRUM TYPE>  (6273) 
MS1

>  <INSTRUMENT TYPE>  (6273) 
EI-B

>  <INSTRUMENT>  (6273) 
SHIMADZU QP-1000

>  <ION MODE>  (6273) 
P

>  <INCHIKEY>  (6273) 
AZHUYKSUWGBLAU-ROMNCUSUSA-N

>  <FORMULA>  (6273) 
C30H54O2Si

>  <EXACT MASS>  (6273) 
474.389307498

>  <MW>  (6273) 
474

>  <ID>  (6273) 
JP001863

>  <CONTRIBUTOR>  (6273) 
University of Tokyo Team, {Faculty of Engineering, University of Tokyo

>  <COMMENT>  (6273) 
SMILES=[H]C(C3)(C4([H])5)C([H])(CCC(C)(C(C(CCCC(C)C)C)CC5)4)C(C)(C(C23)(O2)1)CCC(C1)O[Si](C)(C)C
InChI=InChI=1S/C30H54O2Si/c1-20(2)10-9-11-21(3)24-12-13-25-23-18-27-30(31-27)19-22(32-33(6,7)8)14-17-29(30,5)26(23)15-16-28(24,25)4/h20-27H,9-19H2,1-8H3/t21-,22+,23+,24-,25+,26+,27+,28-,29-,30+/m1/s1
computed SMILES=O1C2CC3C4CCC(C(C)CCCC(C)C)C4(C)CCC3C5(C)CCC(O[Si](C)(C)C)CC125
exact mass=474.38931
accession=JP001863
date=2016.01.19 (Created 2008.10.21, modified 2011.05.06)
author=SEYAMA Y, DEPT. OF PHYSIOL. CHEMISTRY AND NUTRITION, FAC. OF MEDICINE, UNIV. OF TOKYO
license=CC BY-NC-SA
ionization energy=70 eV
ion type=[M]+*
computed spectral entropy=4.616306295807901
computed normalized entropy=0.8633277466908338
SPLASH=splash10-0avj-9710000000-05b0457dce95aa8c567c
submitter=submitter = University of Tokyo Team (Faculty of Engineering, University of Tokyo)
MoNA Rating=3.75

>  <NUM PEAKS>  (6273) 
210

>  <MASS SPECTRAL PEAKS>  (6273) 
53 7
54 2.5
55 86.3
56 12.6
57 81.6
58 4.1
59 8.7
60 1.1
61 5.6
65 3.2
66 1.9
67 41.7
68 8.7
69 47.4
70 6.9
71 33
72 3.4
73 99.99
74 9.2
75 58.8
76 4.6
77 15.2
78 2.9
79 34.9
80 6.5
81 54.8
82 8
83 23.2
84 3.1
85 6.5
87 1
89 2.6
91 30.8
92 8.4
93 54.2
94 20.1
95 61.7
96 40
97 14.4
98 1.5
99 2.8
101 11.2
102 1.2
103 5.2
104 1.7
105 23.6
106 7.9
107 32.4
108 15.6
109 26.4
110 13.3
111 7.8
112 1.2
113 2
115 4.5
116 3.8
117 11.8
118 7.3
119 20.3
120 16
121 24.7
122 14.1
123 30
124 4.2
125 3.2
127 3.8
128 1.8
129 18.3
130 5.5
131 16.7
132 5.5
133 21.9
134 14.1
135 31.1
136 12.9
137 7.8
138 1.9
139 1.6
141 2.8
142 6
143 20.8
144 6.4
145 15.1
146 4.8
147 14
148 5.4
149 12.6
150 3.7
151 3.9
152 1
153 1.4
154 1
155 9.9
156 4.9
157 11
158 7.4
159 17.2
160 4.9
161 12.7
162 4.1
163 12.5
164 3.9
165 3.3
167 1.7
168 2.4
169 8.6
170 3.1
171 6.5
172 2.8
173 8.2
174 2.8
175 7.6
176 3.3
177 5.2
178 1.4
179 2.7
180 1.1
181 11.2
182 6.3
183 9
184 2.7
185 6.3
186 4.7
187 5.6
188 1.7
189 3.5
190 1.2
191 3.1
192 1
193 4
194 1.2
195 2.4
196 1.2
197 18.1
198 4.9
199 6.1
200 3.9
201 8.4
202 1.9
203 3.7
205 1.7
206 3
207 8.8
208 2.8
209 2.3
210 1
211 11
212 3.1
213 4.4
214 1.3
215 2.8
216 2
217 2.8
219 3.2
221 1.6
225 2.1
226 2.2
227 3.9
228 1.1
229 3.1
230 1.1
231 1.5
233 1.9
239 1.5
243 3.2
244 1.1
245 2.3
246 1.8
247 5.6
248 2
249 2.5
251 1.1
253 4.9
254 1.3
255 1.1
259 1.5
260 1.7
261 1.6
262 1.5
271 3.5
272 1
273 2.3
274 2
275 3.1
276 1.1
281 1.6
288 2
289 1.6
291 2.3
299 1
325 1.2
329 1.1
340 1.2
341 2.8
342 1.2
343 1.3
351 2.5
356 4.8
357 1.6
366 3.8
367 2.5
369 2.9
370 1
384 6.6
385 2.1
445 1.1
456 1
459 1.3
474 6.6
475 2.5

$$$$

     RDKit          2D

 36 35  0  0  0  0  0  0  0  0999 V2000
   11.0418   19.1250    0.0000 C   0  0  0  0  0  0  0  0  0  0  0  0
  -33.1255   19.1250    0.0000 C   0  0  0  0  0  0  0  0  0  0  0  0
    9.7428   19.8750    0.0000 C   0  0  0  0  0  0  0  0  0  0  0  0
  -31.8264   19.8750    0.0000 C   0  0  0  0  0  0  0  0  0  0  0  0
    8.4437   19.1250    0.0000 C   0  0  0  0  0  0  0  0  0  0  0  0
  -30.5274   19.1250    0.0000 C   0  0  0  0  0  0  0  0  0  0  0  0
    7.1447   19.8750    0.0000 C   0  0  0  0  0  0  0  0  0  0  0  0
  -29.2284   19.8750    0.0000 C   0  0  0  0  0  0  0  0  0  0  0  0
    5.8457   19.1250    0.0000 C   0  0  0  0  0  0  0  0  0  0  0  0
  -27.9293   19.1250    0.0000 C   0  0  0  0  0  0  0  0  0  0  0  0
    4.5466   19.8750    0.0000 C   0  0  0  0  0  0  0  0  0  0  0  0
  -26.6303   19.8750    0.0000 C   0  0  0  0  0  0  0  0  0  0  0  0
    3.2476   19.1250    0.0000 C   0  0  0  0  0  0  0  0  0  0  0  0
  -25.3312   19.1250    0.0000 C   0  0  0  0  0  0  0  0  0  0  0  0
    1.9486   19.8750    0.0000 C   0  0  0  0  0  0  0  0  0  0  0  0
  -24.0322   19.8750    0.0000 C   0  0  0  0  0  0  0  0  0  0  0  0
    0.6495   19.1250    0.0000 C   0  0  0  0  0  0  0  0  0  0  0  0
   -0.6495   19.8750    0.0000 C   0  0  0  0  0  0  0  0  0  0  0  0
   -1.9486   19.1250    0.0000 C   0  0  0  0  0  0  0  0  0  0  0  0
  -22.7332   19.1250    0.0000 C   0  0  0  0  0  0  0  0  0  0  0  0
   -3.2476   19.8750    0.0000 C   0  0  0  0  0  0  0  0  0  0  0  0
  -21.4341   19.8750    0.0000 C   0  0  0  0  0  0  0  0  0  0  0  0
   -4.5466   19.1250    0.0000 C   0  0  0  0  0  0  0  0  0  0  0  0
  -20.1351   19.1250    0.0000 C   0  0  0  0  0  0  0  0  0  0  0  0
   -5.8457   19.8750    0.0000 C   0  0  0  0  0  0  0  0  0  0  0  0
  -18.8361   19.8750    0.0000 C   0  0  0  0  0  0  0  0  0  0  0  0
   -7.1447   19.1250    0.0000 C   0  0  0  0  0  0  0  0  0  0  0  0
  -17.5370   19.1250    0.0000 C   0  0  0  0  0  0  0  0  0  0  0  0
   -8.4437   19.8750    0.0000 C   0  0  0  0  0  0  0  0  0  0  0  0
  -16.2380   19.8750    0.0000 C   0  0  0  0  0  0  0  0  0  0  0  0
   -9.7428   19.1250    0.0000 C   0  0  0  0  0  0  0  0  0  0  0  0
  -14.9389   19.1250    0.0000 C   0  0  0  0  0  0  0  0  0  0  0  0
  -11.0418   19.8750    0.0000 C   0  0  0  0  0  0  0  0  0  0  0  0
  -13.6399   19.8750    0.0000 C   0  0  0  0  0  0  0  0  0  0  0  0
  -13.6399   21.3750    0.0000 O   0  0  0  0  0  0  0  0  0  0  0  0
  -12.3409   19.1250    0.0000 O   0  0  0  0  0  0  0  0  0  0  0  0
  3  1  1  0
  4  2  1  0
  5  3  1  0
  6  4  1  0
  7  5  1  0
  8  6  1  0
  9  7  1  0
 10  8  1  0
 11  9  1  0
 12 10  1  0
 13 11  1  0
 14 12  1  0
 15 13  1  0
 16 14  1  0
 17 15  1  0
 18 17  1  0
 19 18  1  0
 20 16  1  0
 21 19  1  0
 22 20  1  0
 23 21  1  0
 24 22  1  0
 25 23  1  0
 26 24  1  0
 27 25  1  0
 28 26  1  0
 29 27  1  0
 30 28  1  0
 31 29  1  0
 32 30  1  0
 33 31  1  0
 34 32  1  0
 35 34  2  0
 36 33  1  0
 36 34  1  0
M  END
>  <NAME>  (6274) 
OCTADECYL HEXADECANOATE

>  <SYNONYMS>  (6274) 
STEARYL PALMITATE

>  <SPECTRUM TYPE>  (6274) 
MS1

>  <INSTRUMENT TYPE>  (6274) 
EI-B

>  <INSTRUMENT>  (6274) 
SHIMADZU QP-1000

>  <ION MODE>  (6274) 
P

>  <INCHIKEY>  (6274) 
BILPUZXRUDPOOF-UHFFFAOYSA-N

>  <FORMULA>  (6274) 
C34H68O2

>  <EXACT MASS>  (6274) 
508.521931416

>  <MW>  (6274) 
508

>  <ID>  (6274) 
JP001862

>  <CONTRIBUTOR>  (6274) 
University of Tokyo Team, {Faculty of Engineering, University of Tokyo

>  <COMMENT>  (6274) 
SMILES=C(CCCCCCCC(OCCCCCCCCCCCCCCCCCC)=O)CCCCCCC
InChI=InChI=1S/C34H68O2/c1-3-5-7-9-11-13-15-17-18-19-21-23-25-27-29-31-33-36-34(35)32-30-28-26-24-22-20-16-14-12-10-8-6-4-2/h3-33H2,1-2H3
computed SMILES=O=C(OCCCCCCCCCCCCCCCCCC)CCCCCCCCCCCCCCC
accession=JP001862
date=2016.01.19 (Created 2008.10.21, modified 2011.05.06)
author=SEYAMA Y, DEPT. OF PHYSIOL. CHEMISTRY AND NUTRITION, FAC. OF MEDICINE, UNIV. OF TOKYO
license=CC BY-NC-SA
exact mass=508.52193
ionization energy=70 eV
ion type=[M]+*
computed spectral entropy=3.3390688173930365
computed normalized entropy=0.8090526030585153
SPLASH=splash10-0a4l-9000000000-97dfbe411b8f4a98a387
submitter=submitter = University of Tokyo Team (Faculty of Engineering, University of Tokyo)
MoNA Rating=3.75

>  <NUM PEAKS>  (6274) 
62

>  <MASS SPECTRAL PEAKS>  (6274) 
41 40.4
42 12.5
43 99.99
44 4.7
53 1.5
54 6.1
55 48.4
56 19.1
57 82.4
58 4.1
60 8.8
61 13.5
67 7.2
68 8.9
69 34.3
70 14.3
71 35.1
72 2
73 11.8
74 1.4
81 5.5
82 12.3
83 28.2
84 10.1
85 18.2
86 1.4
87 2.8
95 3.6
96 6.4
97 24.2
98 7.7
99 3.6
101 2.1
109 1.6
110 2.4
111 10.7
112 3.3
113 1.9
115 2.1
116 1.7
124 1.4
125 5.5
126 1.7
127 1
129 3.7
139 2.3
140 1.2
153 1.3
157 1.1
171 1
185 1
213 1.6
224 1.5
239 3.2
252 5.9
253 1.5
256 6.3
257 35.4
258 6.5
297 2.1
508 3.5
509 1.3

$$$$

     RDKit          2D

 21 20  0  0  0  0  0  0  0  0999 V2000
  -19.4856   11.2500    0.0000 C   0  0  0  0  0  0  0  0  0  0  0  0
  -18.1865   10.5000    0.0000 C   0  0  0  0  0  0  0  0  0  0  0  0
  -16.8875   11.2500    0.0000 C   0  0  0  0  0  0  0  0  0  0  0  0
  -15.5885   10.5000    0.0000 C   0  0  0  0  0  0  0  0  0  0  0  0
  -14.2894   11.2500    0.0000 C   0  0  0  0  0  0  0  0  0  0  0  0
  -12.9904   10.5000    0.0000 C   0  0  0  0  0  0  0  0  0  0  0  0
  -11.6913   11.2500    0.0000 C   0  0  0  0  0  0  0  0  0  0  0  0
  -10.3923   10.5000    0.0000 C   0  0  0  0  0  0  0  0  0  0  0  0
   -9.0933   11.2500    0.0000 C   0  0  0  0  0  0  0  0  0  0  0  0
   -7.7942   10.5000    0.0000 C   0  0  0  0  0  0  0  0  0  0  0  0
   -6.4952   11.2500    0.0000 C   0  0  0  0  0  0  0  0  0  0  0  0
   -5.1962   10.5000    0.0000 C   0  0  0  0  0  0  0  0  0  0  0  0
   -3.8971   11.2500    0.0000 C   0  0  0  0  0  0  0  0  0  0  0  0
   -2.5981   10.5000    0.0000 C   0  0  0  0  0  0  0  0  0  0  0  0
   -1.2990   11.2500    0.0000 C   0  0  0  0  0  0  0  0  0  0  0  0
    0.0000   10.5000    0.0000 C   0  0  0  0  0  0  0  0  0  0  0  0
    1.2990   11.2500    0.0000 C   0  0  0  0  0  0  0  0  0  0  0  0
    2.5981   10.5000    0.0000 C   0  0  0  0  0  0  0  0  0  0  0  0
    3.8971   11.2500    0.0000 C   0  0  0  0  0  0  0  0  0  0  0  0
    5.1962   10.5000    0.0000 C   0  0  0  0  0  0  0  0  0  0  0  0
    6.4952   11.2500    0.0000 O   0  0  0  0  0  0  0  0  0  0  0  0
  2  1  1  0
  3  2  1  0
  4  3  1  0
  5  4  1  0
  6  5  1  0
  7  6  1  0
  8  7  1  0
  9  8  1  0
  9 10  2  0
 11 10  1  0
 12 11  1  0
 13 12  1  0
 14 13  1  0
 15 14  1  0
 16 15  1  0
 17 16  1  0
 18 17  1  0
 19 18  1  0
 20 19  1  0
 21 20  1  0
M  END
>  <NAME>  (6275) 
11-EICOSENOL

>  <SYNONYMS>  (6275) 


>  <SPECTRUM TYPE>  (6275) 
MS1

>  <INSTRUMENT TYPE>  (6275) 
EI-B

>  <INSTRUMENT>  (6275) 
SHIMADZU QP-1000

>  <ION MODE>  (6275) 
P

>  <INCHIKEY>  (6275) 
QYOZAXQSDUAPDS-MDZDMXLPSA-N

>  <FORMULA>  (6275) 
C20H40O

>  <EXACT MASS>  (6275) 
296.30791589999995

>  <MW>  (6275) 
296

>  <ID>  (6275) 
JP001861

>  <CONTRIBUTOR>  (6275) 
University of Tokyo Team, {Faculty of Engineering, University of Tokyo

>  <COMMENT>  (6275) 
SMILES=CCCCCCCCC=CCCCCCCCCCCO
InChI=InChI=1S/C20H40O/c1-2-3-4-5-6-7-8-9-10-11-12-13-14-15-16-17-18-19-20-21/h9-10,21H,2-8,11-20H2,1H3/b10-9+
computed SMILES=OCCCCCCCCCCC=CCCCCCCCC
accession=JP001861
date=2016.01.19 (Created 2008.10.21, modified 2011.05.06)
author=SEYAMA Y, DEPT. OF PHYSIOL. CHEMISTRY AND NUTRITION, FAC. OF MEDICINE, UNIV. OF TOKYO
license=CC BY-NC-SA
exact mass=296.30792
ionization energy=70 eV
ion type=[M]+*
computed spectral entropy=3.2116118454393248
computed normalized entropy=0.8168245861945889
SPLASH=splash10-05nf-9000000000-5b7739079e31469d2ed2
submitter=submitter = University of Tokyo Team (Faculty of Engineering, University of Tokyo)
MoNA Rating=3.75

>  <NUM PEAKS>  (6275) 
51

>  <MASS SPECTRAL PEAKS>  (6275) 
40 2
41 86.9
42 14.8
43 60.4
44 4
45 1.7
53 5.7
54 32.8
55 99.99
56 23.4
57 34.5
58 1.8
65 1.4
66 4.5
67 44.6
68 33.9
69 51
70 14
71 11.1
77 1
79 4.8
80 3.8
81 38.4
82 57.6
83 31.8
84 6.2
85 3
93 1.4
94 1.7
95 29
96 39.2
97 19.7
98 3.4
99 1
109 14.4
110 13
111 6.1
112 1.4
123 7.7
124 7.7
125 2.2
137 4.2
138 4.7
151 1.6
152 2.4
166 1.4
180 1
250 1
278 5.1
279 1
296 0.1

$$$$

     RDKit          2D

 16 15  0  0  0  0  0  0  0  0999 V2000
    4.5466    7.8750    0.0000 C   0  0  0  0  0  0  0  0  0  0  0  0
  -13.6399    7.8750    0.0000 C   0  0  0  0  0  0  0  0  0  0  0  0
    3.2476    8.6250    0.0000 C   0  0  0  0  0  0  0  0  0  0  0  0
  -12.3409    8.6250    0.0000 C   0  0  0  0  0  0  0  0  0  0  0  0
    1.9486    7.8750    0.0000 C   0  0  0  0  0  0  0  0  0  0  0  0
    0.6495    8.6250    0.0000 C   0  0  0  0  0  0  0  0  0  0  0  0
   -0.6495    7.8750    0.0000 C   0  0  0  0  0  0  0  0  0  0  0  0
   -1.9486    8.6250    0.0000 C   0  0  0  0  0  0  0  0  0  0  0  0
   -3.2476    7.8750    0.0000 C   0  0  0  0  0  0  0  0  0  0  0  0
   -4.5466    8.6250    0.0000 C   0  0  0  0  0  0  0  0  0  0  0  0
   -5.8457    7.8750    0.0000 C   0  0  0  0  0  0  0  0  0  0  0  0
   -7.1447    8.6250    0.0000 C   0  0  0  0  0  0  0  0  0  0  0  0
   -8.4437    7.8750    0.0000 C   0  0  0  0  0  0  0  0  0  0  0  0
   -9.7428    8.6250    0.0000 C   0  0  0  0  0  0  0  0  0  0  0  0
  -11.0418    7.8750    0.0000 C   0  0  0  0  0  0  0  0  0  0  0  0
  -11.0418    6.3750    0.0000 O   0  0  0  0  0  0  0  0  0  0  0  0
  3  1  1  0
  4  2  1  0
  5  3  1  0
  6  5  1  0
  7  6  1  0
  8  7  1  0
  9  8  1  0
 10  9  1  0
 11 10  1  0
 12 11  1  0
 13 12  1  0
 14 13  1  0
 15  4  1  0
 15 14  1  0
 16 15  2  0
M  END
>  <NAME>  (6276) 
3-PENTADECANONE

>  <SYNONYMS>  (6276) 
DODECYL ETHYL KETONE

>  <SPECTRUM TYPE>  (6276) 
MS1

>  <INSTRUMENT TYPE>  (6276) 
EI-B

>  <INSTRUMENT>  (6276) 
SHIMADZU QP-1000

>  <ION MODE>  (6276) 
P

>  <INCHIKEY>  (6276) 
YELXTWKVTZTDCM-UHFFFAOYSA-N

>  <FORMULA>  (6276) 
C15H30O

>  <EXACT MASS>  (6276) 
226.22966558000002

>  <MW>  (6276) 
226

>  <ID>  (6276) 
JP001860

>  <CONTRIBUTOR>  (6276) 
University of Tokyo Team, {Faculty of Engineering, University of Tokyo

>  <COMMENT>  (6276) 
SMILES=CCCCCCCCCCCCC(=O)CC
InChI=InChI=1S/C15H30O/c1-3-5-6-7-8-9-10-11-12-13-14-15(16)4-2/h3-14H2,1-2H3
computed SMILES=O=C(CC)CCCCCCCCCCCC
accession=JP001860
date=2016.01.19 (Created 2008.10.21, modified 2011.05.06)
author=SEYAMA Y, DEPT. OF PHYSIOL. CHEMISTRY AND NUTRITION, FAC. OF MEDICINE, UNIV. OF TOKYO
license=CC BY-NC-SA
exact mass=226.22967
ionization energy=70 eV
ion type=[M]+*
computed spectral entropy=2.6231666808069805
computed normalized entropy=0.7320085998867698
SPLASH=splash10-0596-9000000000-13c3914d726903a9778a
submitter=submitter = University of Tokyo Team (Faculty of Engineering, University of Tokyo)
MoNA Rating=3.75

>  <NUM PEAKS>  (6276) 
36

>  <MASS SPECTRAL PEAKS>  (6276) 
41 52.8
42 11.9
43 72.5
44 2.1
53 2.8
54 2.6
55 26.5
56 7.5
57 99.99
58 3.7
67 4.4
68 1.5
69 7.2
70 2.3
71 16.6
72 76.6
73 31.4
74 1.4
81 3.5
82 1.4
83 4
84 1.4
85 19.2
86 1.6
95 4.8
96 2
97 3.5
98 1.1
99 3
109 2.6
110 1.1
114 1.3
123 1.5
153 1
197 13.4
198 1.8

$$$$

     RDKit          2D

 16 15  0  0  0  0  0  0  0  0999 V2000
    4.5466    7.8750    0.0000 C   0  0  0  0  0  0  0  0  0  0  0  0
  -13.6399    7.8750    0.0000 C   0  0  0  0  0  0  0  0  0  0  0  0
    3.2476    8.6250    0.0000 C   0  0  0  0  0  0  0  0  0  0  0  0
  -12.3409    8.6250    0.0000 C   0  0  0  0  0  0  0  0  0  0  0  0
    1.9486    7.8750    0.0000 C   0  0  0  0  0  0  0  0  0  0  0  0
    0.6495    8.6250    0.0000 C   0  0  0  0  0  0  0  0  0  0  0  0
   -0.6495    7.8750    0.0000 C   0  0  0  0  0  0  0  0  0  0  0  0
   -1.9486    8.6250    0.0000 C   0  0  0  0  0  0  0  0  0  0  0  0
   -3.2476    7.8750    0.0000 C   0  0  0  0  0  0  0  0  0  0  0  0
   -4.5466    8.6250    0.0000 C   0  0  0  0  0  0  0  0  0  0  0  0
   -5.8457    7.8750    0.0000 C   0  0  0  0  0  0  0  0  0  0  0  0
   -7.1447    8.6250    0.0000 C   0  0  0  0  0  0  0  0  0  0  0  0
   -8.4437    7.8750    0.0000 C   0  0  0  0  0  0  0  0  0  0  0  0
   -9.7428    8.6250    0.0000 C   0  0  0  0  0  0  0  0  0  0  0  0
  -11.0418    7.8750    0.0000 C   0  0  0  0  0  0  0  0  0  0  0  0
  -11.0418    6.3750    0.0000 O   0  0  0  0  0  0  0  0  0  0  0  0
  3  1  1  0
  4  2  1  0
  5  3  1  0
  6  5  1  0
  7  6  1  0
  8  7  1  0
  9  8  1  0
 10  9  1  0
 11 10  1  0
 12 11  1  0
 13 12  1  0
 14 13  1  0
 15  4  1  0
 15 14  1  0
 16 15  1  0
M  END
>  <NAME>  (6277) 
3-PENTADECANOL

>  <SYNONYMS>  (6277) 
ALPHA-ETHYLTRIDECANOL

>  <SPECTRUM TYPE>  (6277) 
MS1

>  <INSTRUMENT TYPE>  (6277) 
EI-B

>  <INSTRUMENT>  (6277) 
SHIMADZU QP-1000

>  <ION MODE>  (6277) 
P

>  <INCHIKEY>  (6277) 
WVZVEGVDRAOXNT-UHFFFAOYSA-N

>  <FORMULA>  (6277) 
C15H32O

>  <EXACT MASS>  (6277) 
228.24531564400002

>  <MW>  (6277) 
228

>  <ID>  (6277) 
JP001859

>  <CONTRIBUTOR>  (6277) 
University of Tokyo Team, {Faculty of Engineering, University of Tokyo

>  <COMMENT>  (6277) 
SMILES=CCCCCCCCCCCCC(O)CC
InChI=InChI=1S/C15H32O/c1-3-5-6-7-8-9-10-11-12-13-14-15(16)4-2/h15-16H,3-14H2,1-2H3
computed SMILES=OC(CC)CCCCCCCCCCCC
accession=JP001859
date=2016.01.19 (Created 2008.10.21, modified 2011.05.06)
author=SEYAMA Y, DEPT. OF PHYSIOL. CHEMISTRY AND NUTRITION, FAC. OF MEDICINE, UNIV. OF TOKYO
license=CC BY-NC-SA
exact mass=228.24532
ionization energy=70 eV
ion type=[M]+*
computed spectral entropy=2.7510900228342092
computed normalized entropy=0.7801499601727934
SPLASH=splash10-0a4l-9000000000-733e47707224bbd2128a
submitter=submitter = University of Tokyo Team (Faculty of Engineering, University of Tokyo)
MoNA Rating=3.75

>  <NUM PEAKS>  (6277) 
34

>  <MASS SPECTRAL PEAKS>  (6277) 
41 61.4
42 11.3
43 50.7
44 4.1
45 2.4
53 2.5
54 3.3
55 39.6
56 9.7
57 36.2
58 14.7
59 99.99
60 3.2
67 5.1
68 2.4
69 27
70 5.7
71 8.4
72 2.8
73 1
81 2.6
82 2
83 19.2
84 3
85 4.8
95 1.1
96 1.2
97 16.4
98 2
99 1.1
111 9.5
112 1.2
125 4.1
199 7.5

$$$$

     RDKit          2D

 20 19  0  0  0  0  0  0  0  0999 V2000
    5.8457    9.3750    0.0000 C   0  0  0  0  0  0  0  0  0  0  0  0
  -12.3409    7.8750    0.0000 C   0  0  0  0  0  0  0  0  0  0  0  0
  -16.2380   10.1250    0.0000 C   0  0  0  0  0  0  0  0  0  0  0  0
    4.5466   10.1250    0.0000 C   0  0  0  0  0  0  0  0  0  0  0  0
    3.2476    9.3750    0.0000 C   0  0  0  0  0  0  0  0  0  0  0  0
    1.9486   10.1250    0.0000 C   0  0  0  0  0  0  0  0  0  0  0  0
    0.6495    9.3750    0.0000 C   0  0  0  0  0  0  0  0  0  0  0  0
   -0.6495   10.1250    0.0000 C   0  0  0  0  0  0  0  0  0  0  0  0
   -1.9486    9.3750    0.0000 C   0  0  0  0  0  0  0  0  0  0  0  0
   -3.2476   10.1250    0.0000 C   0  0  0  0  0  0  0  0  0  0  0  0
   -4.5466    9.3750    0.0000 C   0  0  0  0  0  0  0  0  0  0  0  0
   -5.8457   10.1250    0.0000 C   0  0  0  0  0  0  0  0  0  0  0  0
   -7.1447    9.3750    0.0000 C   0  0  0  0  0  0  0  0  0  0  0  0
   -8.4437   10.1250    0.0000 C   0  0  0  0  0  0  0  0  0  0  0  0
   -9.7428    9.3750    0.0000 C   0  0  0  0  0  0  0  0  0  0  0  0
  -11.0418   10.1250    0.0000 C   0  0  0  0  0  0  0  0  0  0  0  0
  -12.3409    9.3750    0.0000 C   0  0  0  0  0  0  0  0  0  0  0  0
  -13.6399   10.1250    0.0000 C   0  0  0  0  0  0  0  0  0  0  0  0
  -13.6399   11.6250    0.0000 O   0  0  0  0  0  0  0  0  0  0  0  0
  -14.9389    9.3750    0.0000 O   0  0  0  0  0  0  0  0  0  0  0  0
  4  1  1  0
  5  4  1  0
  6  5  1  0
  7  6  1  0
  8  7  1  0
  9  8  1  0
 10  9  1  0
 11 10  1  0
 12 11  1  0
 13 12  1  0
 14 13  1  0
 15 14  1  0
 16 15  1  0
 17  2  1  0
 17 16  1  0
 18 17  1  0
 19 18  2  0
 20  3  1  0
 20 18  1  0
M  END
>  <NAME>  (6278) 
METHYL 2-METHYLHEXADECANOATE

>  <SYNONYMS>  (6278) 
METHYL ALPHA-METHYLPALMITATE

>  <SPECTRUM TYPE>  (6278) 
MS1

>  <INSTRUMENT TYPE>  (6278) 
EI-B

>  <INSTRUMENT>  (6278) 
SHIMADZU QP-1000

>  <ION MODE>  (6278) 
P

>  <INCHIKEY>  (6278) 
OAMQXAKDCJRWHE-UHFFFAOYSA-N

>  <FORMULA>  (6278) 
C18H36O2

>  <EXACT MASS>  (6278) 
284.271530392

>  <MW>  (6278) 
284

>  <ID>  (6278) 
JP001858

>  <CONTRIBUTOR>  (6278) 
University of Tokyo Team, {Faculty of Engineering, University of Tokyo

>  <COMMENT>  (6278) 
SMILES=CCCCCCCCCCCCCCC(C)C(=O)OC
InChI=InChI=1S/C18H36O2/c1-4-5-6-7-8-9-10-11-12-13-14-15-16-17(2)18(19)20-3/h17H,4-16H2,1-3H3
computed SMILES=O=C(OC)C(C)CCCCCCCCCCCCCC
accession=JP001858
date=2016.01.19 (Created 2008.10.21, modified 2011.05.06)
author=SEYAMA Y, DEPT. OF PHYSIOL. CHEMISTRY AND NUTRITION, FAC. OF MEDICINE, UNIV. OF TOKYO
license=CC BY-NC-SA
exact mass=284.27153
ionization energy=70 eV
ion type=[M]+*
computed spectral entropy=2.4006344063252714
computed normalized entropy=0.692676670598578
SPLASH=splash10-000i-9200000000-798360131a8c372204c5
submitter=submitter = University of Tokyo Team (Faculty of Engineering, University of Tokyo)
MoNA Rating=3.75

>  <NUM PEAKS>  (6278) 
32

>  <MASS SPECTRAL PEAKS>  (6278) 
54 1.1
55 18.6
56 5.3
57 19.6
59 7.8
67 1.5
69 10.5
70 2.4
71 4.9
73 1.6
74 1
83 4.7
85 2.1
87 3.7
88 99.99
89 4.3
97 2.3
98 1.9
101 32.8
102 2.4
115 2
129 1
143 4.4
157 4.1
171 1.6
185 1.4
199 1.5
213 1.3
227 2.8
241 1.6
284 3
285 0.7

$$$$

     RDKit          2D

 24 24  0  0  0  0  0  0  0  0999 V2000
  -11.6913   21.0600    0.0000 C   0  0  0  0  0  0  0  0  0  0  0  0
  -10.3923   20.3100    0.0000 C   0  0  0  0  0  0  0  0  0  0  0  0
  -10.3923   18.8100    0.0000 C   0  0  0  0  0  0  0  0  0  0  0  0
   -9.0933   18.0600    0.0000 C   0  0  0  0  0  0  0  0  0  0  0  0
   -9.0933   16.5600    0.0000 C   0  0  0  0  0  0  0  0  0  0  0  0
   -7.7942   15.8100    0.0000 C   0  0  0  0  0  0  0  0  0  0  0  0
   -7.7942   14.3100    0.0000 C   0  0  0  0  0  0  0  0  0  0  0  0
   -6.4952   13.5600    0.0000 C   0  0  0  0  0  0  0  0  0  0  0  0
   -6.4952   12.0600    0.0000 C   0  0  0  0  0  0  0  0  0  0  0  0
   -5.1962   11.3100    0.0000 C   0  0  0  0  0  0  0  0  0  0  0  0
   -3.8971   12.0600    0.0000 C   0  0  0  0  0  0  0  0  0  0  0  0
   -2.5981   11.3100    0.0000 C   0  0  0  0  0  0  0  0  0  0  0  0
   -1.2990   12.0600    0.0000 C   0  0  0  0  0  0  0  0  0  0  0  0
    0.0000   11.3100    0.0000 C   0  0  0  0  0  0  0  0  0  0  0  0
    1.2990   12.0600    0.0000 C   0  0  0  0  0  0  0  0  0  0  0  0
    2.5981   11.3100    0.0000 C   0  0  0  0  0  0  0  0  0  0  0  0
    8.1207   13.8645    0.0000 C   0  0  0  0  0  0  0  0  0  0  0  0
    8.8707   12.5655    0.0000 C   0  0  0  0  0  0  0  0  0  0  0  0
    3.8971   12.0600    0.0000 C   0  0  0  0  0  0  0  0  0  0  0  0
    6.6523   13.5479    0.0000 C   0  0  0  0  0  0  0  0  0  0  0  0
    7.8623   11.4521    0.0000 C   0  0  0  0  0  0  0  0  0  0  0  0
    5.1962   11.3100    0.0000 C   0  0  0  0  0  0  0  0  0  0  0  0
    6.4952   12.0600    0.0000 N   0  0  0  0  0  0  0  0  0  0  0  0
    5.1962    9.8100    0.0000 O   0  0  0  0  0  0  0  0  0  0  0  0
  2  1  1  0
  3  2  1  0
  4  3  1  0
  5  4  1  0
  6  5  1  0
  7  6  1  0
  8  7  1  0
  9  8  1  0
  9 10  2  0
 11 10  1  0
 12 11  1  0
 13 12  1  0
 14 13  1  0
 15 14  1  0
 16 15  1  0
 18 17  1  0
 19 16  1  0
 20 17  1  0
 21 18  1  0
 22 19  1  0
 23 20  1  0
 23 21  1  0
 23 22  1  0
 24 22  2  0
M  END
>  <NAME>  (6279) 
1-OCTADEC-CIS-9-ENOYLPYRROLIDINE

>  <SYNONYMS>  (6279) 
N-OLEOYLPYRROLIDINE

>  <SPECTRUM TYPE>  (6279) 
MS1

>  <INSTRUMENT TYPE>  (6279) 
EI-B

>  <INSTRUMENT>  (6279) 
SHIMADZU QP-1000

>  <ION MODE>  (6279) 
P

>  <INCHIKEY>  (6279) 
KEMZFVSIIGZOCH-KTKRTIGZSA-N

>  <FORMULA>  (6279) 
C22H41NO

>  <EXACT MASS>  (6279) 
335.318814932

>  <MW>  (6279) 
335

>  <ID>  (6279) 
JP001857

>  <CONTRIBUTOR>  (6279) 
University of Tokyo Team, {Faculty of Engineering, University of Tokyo

>  <COMMENT>  (6279) 
SMILES=CCCCCCCCC([H])=C([H])CCCCCCCC(=O)N(C1)CCC1
InChI=InChI=1S/C22H41NO/c1-2-3-4-5-6-7-8-9-10-11-12-13-14-15-16-19-22(24)23-20-17-18-21-23/h9-10H,2-8,11-21H2,1H3/b10-9-
computed SMILES=O=C(N1CCCC1)CCCCCCCC=CCCCCCCCC
accession=JP001857
date=2016.01.19 (Created 2008.10.21, modified 2011.05.06)
author=SEYAMA Y, DEPT. OF PHYSIOL. CHEMISTRY AND NUTRITION, FAC. OF MEDICINE, UNIV. OF TOKYO
license=CC BY-NC-SA
exact mass=335.31881
ionization energy=70 eV
ion type=[M]+*
computed spectral entropy=2.1849601205976787
computed normalized entropy=0.6424090916857919
SPLASH=splash10-03fr-1900000000-5bfa97923f33db159ad1
submitter=submitter = University of Tokyo Team (Faculty of Engineering, University of Tokyo)
MoNA Rating=3.75

>  <NUM PEAKS>  (6279) 
30

>  <MASS SPECTRAL PEAKS>  (6279) 
95 1.3
97 1.1
98 19.4
99 2.1
112 2.1
113 99.99
114 7.6
126 49.6
127 10.7
140 5.9
141 1.8
154 2.3
168 4.8
169 1
180 1.6
182 6.6
183 1.1
194 1.2
196 1.8
208 1.8
222 2.5
236 4
250 3.6
264 1.7
278 1.1
292 1.1
306 0.7
320 0.1
335 5.7
336 1.6

$$$$

     RDKit          2D

 24 24  0  0  0  0  0  0  0  0999 V2000
  -18.2125    9.7950    0.0000 C   0  0  0  0  0  0  0  0  0  0  0  0
  -16.9135   10.5450    0.0000 C   0  0  0  0  0  0  0  0  0  0  0  0
  -15.6144    9.7950    0.0000 C   0  0  0  0  0  0  0  0  0  0  0  0
  -14.3154   10.5450    0.0000 C   0  0  0  0  0  0  0  0  0  0  0  0
  -13.0164    9.7950    0.0000 C   0  0  0  0  0  0  0  0  0  0  0  0
  -11.7173   10.5450    0.0000 C   0  0  0  0  0  0  0  0  0  0  0  0
  -10.4183    9.7950    0.0000 C   0  0  0  0  0  0  0  0  0  0  0  0
   -9.1192   10.5450    0.0000 C   0  0  0  0  0  0  0  0  0  0  0  0
   -7.8202    9.7950    0.0000 C   0  0  0  0  0  0  0  0  0  0  0  0
   -6.5212   10.5450    0.0000 C   0  0  0  0  0  0  0  0  0  0  0  0
   -5.2221    9.7950    0.0000 C   0  0  0  0  0  0  0  0  0  0  0  0
   -3.9231   10.5450    0.0000 C   0  0  0  0  0  0  0  0  0  0  0  0
   -2.6241    9.7950    0.0000 C   0  0  0  0  0  0  0  0  0  0  0  0
   -1.3250   10.5450    0.0000 C   0  0  0  0  0  0  0  0  0  0  0  0
   -0.0260    9.7950    0.0000 C   0  0  0  0  0  0  0  0  0  0  0  0
    1.2731   10.5450    0.0000 C   0  0  0  0  0  0  0  0  0  0  0  0
    6.7957    7.9905    0.0000 C   0  0  0  0  0  0  0  0  0  0  0  0
    7.5457    9.2895    0.0000 C   0  0  0  0  0  0  0  0  0  0  0  0
    2.5721    9.7950    0.0000 C   0  0  0  0  0  0  0  0  0  0  0  0
    5.3273    8.3071    0.0000 C   0  0  0  0  0  0  0  0  0  0  0  0
    6.5373   10.4029    0.0000 C   0  0  0  0  0  0  0  0  0  0  0  0
    3.8711   10.5450    0.0000 C   0  0  0  0  0  0  0  0  0  0  0  0
    5.1702    9.7950    0.0000 N   0  0  0  0  0  0  0  0  0  0  0  0
    3.8711   12.0450    0.0000 O   0  0  0  0  0  0  0  0  0  0  0  0
  2  1  1  0
  3  2  1  0
  4  3  1  0
  5  4  1  0
  6  5  1  0
  7  6  1  0
  8  7  1  0
  9  8  1  0
 10  9  1  0
 11 10  1  0
 12 11  1  0
 13 12  1  0
 14 13  1  0
 15 14  1  0
 16 15  1  0
 18 17  1  0
 19 16  1  0
 20 17  1  0
 21 18  1  0
 22 19  1  0
 23 20  1  0
 23 21  1  0
 23 22  1  0
 24 22  2  0
M  END
>  <NAME>  (6280) 
1-OCTADECANOYLPYRROLIDINE

>  <SYNONYMS>  (6280) 
N-STEAROYLPYRROLIDINE

>  <SPECTRUM TYPE>  (6280) 
MS1

>  <INSTRUMENT TYPE>  (6280) 
EI-B

>  <INSTRUMENT>  (6280) 
SHIMADZU QP-1000

>  <ION MODE>  (6280) 
P

>  <INCHIKEY>  (6280) 
AEBDOCOLSSICMC-UHFFFAOYSA-N

>  <FORMULA>  (6280) 
C22H43NO

>  <EXACT MASS>  (6280) 
337.33446499599995

>  <MW>  (6280) 
337

>  <ID>  (6280) 
JP001856

>  <CONTRIBUTOR>  (6280) 
University of Tokyo Team, {Faculty of Engineering, University of Tokyo

>  <COMMENT>  (6280) 
SMILES=CCCCCCCCCCCCCCCCCC(=O)N(C1)CCC1
InChI=InChI=1S/C22H43NO/c1-2-3-4-5-6-7-8-9-10-11-12-13-14-15-16-19-22(24)23-20-17-18-21-23/h2-21H2,1H3
computed SMILES=O=C(N1CCCC1)CCCCCCCCCCCCCCCCC
accession=JP001856
date=2016.01.19 (Created 2008.10.21, modified 2011.05.06)
author=SEYAMA Y, DEPT. OF PHYSIOL. CHEMISTRY AND NUTRITION, FAC. OF MEDICINE, UNIV. OF TOKYO
license=CC BY-NC-SA
exact mass=337.33447
ionization energy=70 eV
ion type=[M]+*
computed spectral entropy=1.4155033177477665
computed normalized entropy=0.45144504191927093
SPLASH=splash10-03di-0900000000-f30ef03dab3b94dd7582
submitter=submitter = University of Tokyo Team (Faculty of Engineering, University of Tokyo)
MoNA Rating=3.75

>  <NUM PEAKS>  (6280) 
23

>  <MASS SPECTRAL PEAKS>  (6280) 
98 7.8
99 1.1
112 1.4
113 99.99
114 7.2
126 18.6
127 3.9
140 2.6
154 1.3
168 2.1
182 1.4
196 0.7
210 0.4
224 0.4
238 0.6
252 0.6
266 0.3
280 0.3
294 0.4
308 0.3
322 0.2
337 1
338 0.2

$$$$

     RDKit          2D

 23 23  0  0  0  0  0  0  0  0999 V2000
  -16.9135    9.7950    0.0000 C   0  0  0  0  0  0  0  0  0  0  0  0
  -15.6144    9.0450    0.0000 C   0  0  0  0  0  0  0  0  0  0  0  0
  -14.3154    9.7950    0.0000 C   0  0  0  0  0  0  0  0  0  0  0  0
  -13.0164    9.0450    0.0000 C   0  0  0  0  0  0  0  0  0  0  0  0
  -11.7173    9.7950    0.0000 C   0  0  0  0  0  0  0  0  0  0  0  0
  -10.4183    9.0450    0.0000 C   0  0  0  0  0  0  0  0  0  0  0  0
   -9.1192    9.7950    0.0000 C   0  0  0  0  0  0  0  0  0  0  0  0
   -7.8202    9.0450    0.0000 C   0  0  0  0  0  0  0  0  0  0  0  0
   -6.5212    9.7950    0.0000 C   0  0  0  0  0  0  0  0  0  0  0  0
   -5.2221    9.0450    0.0000 C   0  0  0  0  0  0  0  0  0  0  0  0
   -3.9231    9.7950    0.0000 C   0  0  0  0  0  0  0  0  0  0  0  0
   -2.6241    9.0450    0.0000 C   0  0  0  0  0  0  0  0  0  0  0  0
   -1.3250    9.7950    0.0000 C   0  0  0  0  0  0  0  0  0  0  0  0
   -0.0260    9.0450    0.0000 C   0  0  0  0  0  0  0  0  0  0  0  0
    1.2731    9.7950    0.0000 C   0  0  0  0  0  0  0  0  0  0  0  0
    6.7957    7.2405    0.0000 C   0  0  0  0  0  0  0  0  0  0  0  0
    7.5457    8.5395    0.0000 C   0  0  0  0  0  0  0  0  0  0  0  0
    2.5721    9.0450    0.0000 C   0  0  0  0  0  0  0  0  0  0  0  0
    5.3273    7.5571    0.0000 C   0  0  0  0  0  0  0  0  0  0  0  0
    6.5373    9.6529    0.0000 C   0  0  0  0  0  0  0  0  0  0  0  0
    3.8711    9.7950    0.0000 C   0  0  0  0  0  0  0  0  0  0  0  0
    5.1702    9.0450    0.0000 N   0  0  0  0  0  0  0  0  0  0  0  0
    3.8711   11.2950    0.0000 O   0  0  0  0  0  0  0  0  0  0  0  0
  2  1  1  0
  3  2  1  0
  4  3  1  0
  5  4  1  0
  6  5  1  0
  7  6  1  0
  8  7  1  0
  9  8  1  0
 10  9  1  0
 11 10  1  0
 12 11  1  0
 13 12  1  0
 14 13  1  0
 15 14  1  0
 17 16  1  0
 18 15  1  0
 19 16  1  0
 20 17  1  0
 21 18  1  0
 22 19  1  0
 22 20  1  0
 22 21  1  0
 23 21  2  0
M  END
>  <NAME>  (6281) 
1-HEPTADECANOYLPYRROLIDINE

>  <SYNONYMS>  (6281) 
N-PALMITOYLPYRROLIDINE

>  <SPECTRUM TYPE>  (6281) 
MS1

>  <INSTRUMENT TYPE>  (6281) 
EI-B

>  <INSTRUMENT>  (6281) 
SHIMADZU QP-1000

>  <ION MODE>  (6281) 
P

>  <INCHIKEY>  (6281) 
HGOPYGUCWZFCID-UHFFFAOYSA-N

>  <FORMULA>  (6281) 
C21H41NO

>  <EXACT MASS>  (6281) 
323.318814932

>  <MW>  (6281) 
323

>  <ID>  (6281) 
JP001855

>  <CONTRIBUTOR>  (6281) 
University of Tokyo Team, {Faculty of Engineering, University of Tokyo

>  <COMMENT>  (6281) 
SMILES=CCCCCCCCCCCCCCCCC(=O)N(C1)CCC1
InChI=InChI=1S/C21H41NO/c1-2-3-4-5-6-7-8-9-10-11-12-13-14-15-18-21(23)22-19-16-17-20-22/h2-20H2,1H3
computed SMILES=O=C(N1CCCC1)CCCCCCCCCCCCCCCC
accession=JP001855
date=2016.01.19 (Created 2008.10.21, modified 2011.05.06)
author=SEYAMA Y, DEPT. OF PHYSIOL. CHEMISTRY AND NUTRITION, FAC. OF MEDICINE, UNIV. OF TOKYO
license=CC BY-NC-SA
exact mass=323.31881
ionization energy=70 eV
ion type=[M]+*
computed spectral entropy=1.268073505800148
computed normalized entropy=0.4232933353205717
SPLASH=splash10-03di-0900000000-3487e43c57e2b374325b
submitter=submitter = University of Tokyo Team (Faculty of Engineering, University of Tokyo)
MoNA Rating=3.75

>  <NUM PEAKS>  (6281) 
20

>  <MASS SPECTRAL PEAKS>  (6281) 
98 9
99 1.2
112 1.7
113 99.99
126 24.7
127 6.1
140 1.2
154 2.9
168 0.6
182 1.7
196 0.7
210 0.2
224 0.2
238 0.2
252 0.2
280 0.2
294 0.5
308 0.3
323 0.5
324 0.2

$$$$

     RDKit          2D

  5  4  0  0  0  0  0  0  0  0999 V2000
   -1.2990    0.7500    0.0000 C   0  0  0  0  0  0  0  0  0  0  0  0
    0.7500    0.2010    0.0000 C   0  0  0  0  0  0  0  0  0  0  0  0
    1.2990    2.2500    0.0000 C   0  0  0  0  0  0  0  0  0  0  0  0
    0.0000    1.5000    0.0000 C   0  0  0  0  0  0  0  0  0  0  0  0
   -0.7500    2.7990    0.0000 O   0  0  0  0  0  0  0  0  0  0  0  0
  4  1  1  0
  4  2  1  0
  4  3  1  0
  5  4  1  0
M  END
>  <NAME>  (6282) 
2-METHYL-2-PROPANOL

>  <SYNONYMS>  (6282) 
TERT-BUTYL ALCOHOL

>  <SPECTRUM TYPE>  (6282) 
MS1

>  <INSTRUMENT TYPE>  (6282) 
EI-B

>  <INSTRUMENT>  (6282) 
HITACHI RMU-7M

>  <ION MODE>  (6282) 
P

>  <INCHIKEY>  (6282) 
DKGAVHZHDRPRBM-UHFFFAOYSA-N

>  <FORMULA>  (6282) 
C4H10O

>  <EXACT MASS>  (6282) 
74.07316494

>  <MW>  (6282) 
74

>  <ID>  (6282) 
JP001854

>  <CONTRIBUTOR>  (6282) 
University of Tokyo Team, {Faculty of Engineering, University of Tokyo

>  <COMMENT>  (6282) 
SMILES=CC(C)(C)O
InChI=InChI=1S/C4H10O/c1-4(2,3)5/h5H,1-3H3
computed SMILES=OC(C)(C)C
accession=JP001854
date=2016.01.19 (Created 2008.10.21, modified 2011.05.06)
author=TAJIMA S, GUNMA COLLEGE OF TECHNOLOGY
license=CC BY-NC-SA
exact mass=74.07316
ionization energy=70 eV
ion type=[M]+*
computed spectral entropy=1.847938971375524
computed normalized entropy=0.7002269146024692
SPLASH=splash10-0a4i-9000000000-e1e141eb4262f5c1a3e6
submitter=submitter = University of Tokyo Team (Faculty of Engineering, University of Tokyo)
MoNA Rating=3.75

>  <NUM PEAKS>  (6282) 
14

>  <MASS SPECTRAL PEAKS>  (6282) 
15 4.42
27 5.31
28 5.48
29 9.4
31 37.53
39 5.42
41 23.38
42 2.21
43 9.23
55 1.93
56 2.32
57 8.79
59 99.99
60 3.1

$$$$

     RDKit          2D

  5  4  0  0  0  0  0  0  0  0999 V2000
   -3.8971    2.2500    0.0000 C   0  0  0  0  0  0  0  0  0  0  0  0
   -2.5981    1.5000    0.0000 C   0  0  0  0  0  0  0  0  0  0  0  0
   -1.2990    2.2500    0.0000 C   0  0  0  0  0  0  0  0  0  0  0  0
    0.0000    1.5000    0.0000 C   0  0  0  0  0  0  0  0  0  0  0  0
    1.2990    2.2500    0.0000 O   0  0  0  0  0  0  0  0  0  0  0  0
  2  1  1  0
  3  2  1  0
  4  3  1  0
  5  4  1  0
M  END
>  <NAME>  (6283) 
1-BUTANOL

>  <SYNONYMS>  (6283) 


>  <SPECTRUM TYPE>  (6283) 
MS1

>  <INSTRUMENT TYPE>  (6283) 
EI-B

>  <INSTRUMENT>  (6283) 
HITACHI RMU-7M

>  <ION MODE>  (6283) 
P

>  <INCHIKEY>  (6283) 
LRHPLDYGYMQRHN-UHFFFAOYSA-N

>  <FORMULA>  (6283) 
C4H10O

>  <EXACT MASS>  (6283) 
74.07316494

>  <MW>  (6283) 
74

>  <ID>  (6283) 
JP001853

>  <CONTRIBUTOR>  (6283) 
University of Tokyo Team, {Faculty of Engineering, University of Tokyo

>  <COMMENT>  (6283) 
SMILES=CCCCO
InChI=InChI=1S/C4H10O/c1-2-3-4-5/h5H,2-4H2,1H3
computed SMILES=OCCCC
accession=JP001853
date=2016.01.19 (Created 2008.10.21, modified 2011.05.06)
author=TAJIMA S, GUNMA COLLEGE OF TECHNOLOGY
license=CC BY-NC-SA
exact mass=74.07316
ionization energy=70 eV
ion type=[M]+*
computed spectral entropy=2.386153762402856
computed normalized entropy=0.7837530552696896
SPLASH=splash10-052f-9000000000-610cf73e0b514e180dbd
submitter=submitter = University of Tokyo Team (Faculty of Engineering, University of Tokyo)
MoNA Rating=3.75

>  <NUM PEAKS>  (6283) 
21

>  <MASS SPECTRAL PEAKS>  (6283) 
15 2.34
19 2.78
26 2.49
27 31.58
28 13.29
29 20.47
31 80.12
33 8.41
39 10.45
40 4.02
41 70.61
42 33.26
43 64.4
44 7.02
45 5.99
55 15.28
56 99.99
57 7.68
72 2.05
73 1.97
74 0.73

$$$$

     RDKit          2D

  5  4  0  0  0  0  0  0  0  0999 V2000
   -0.0000   -0.0000    0.0000 C   0  0  0  0  0  0  0  0  0  0  0  0
   -1.2990    3.7500    0.0000 C   0  0  0  0  0  0  0  0  0  0  0  0
    0.0000    1.5000    0.0000 C   0  0  0  0  0  0  0  0  0  0  0  0
   -1.2990    2.2500    0.0000 C   0  0  0  0  0  0  0  0  0  0  0  0
   -2.5981    1.5000    0.0000 O   0  0  0  0  0  0  0  0  0  0  0  0
  3  1  1  0
  4  2  1  0
  4  3  1  0
  5  4  1  0
M  END
>  <NAME>  (6284) 
2-BUTANOL

>  <SYNONYMS>  (6284) 
SEC-BUTYL ALCOHOL

>  <SPECTRUM TYPE>  (6284) 
MS1

>  <INSTRUMENT TYPE>  (6284) 
EI-B

>  <INSTRUMENT>  (6284) 
HITACHI RMU-7M

>  <ION MODE>  (6284) 
P

>  <INCHIKEY>  (6284) 
BTANRVKWQNVYAZ-UHFFFAOYSA-N

>  <FORMULA>  (6284) 
C4H10O

>  <EXACT MASS>  (6284) 
74.07316494

>  <MW>  (6284) 
74

>  <ID>  (6284) 
JP001852

>  <CONTRIBUTOR>  (6284) 
University of Tokyo Team, {Faculty of Engineering, University of Tokyo

>  <COMMENT>  (6284) 
SMILES=CCC(C)O
InChI=InChI=1S/C4H10O/c1-3-4(2)5/h4-5H,3H2,1-2H3
computed SMILES=OC(C)CC
accession=JP001852
date=2016.01.19 (Created 2008.10.21, modified 2011.05.06)
author=TAJIMA S, GUNMA COLLEGE OF TECHNOLOGY
license=CC BY-NC-SA
exact mass=74.07316
ionization energy=70 eV
ion type=[M]+*
computed spectral entropy=1.912659410044678
computed normalized entropy=0.689846061445267
SPLASH=splash10-0002-9000000000-ccad0f1d1aa3a22b166d
submitter=submitter = University of Tokyo Team (Faculty of Engineering, University of Tokyo)
MoNA Rating=3.75

>  <NUM PEAKS>  (6284) 
16

>  <MASS SPECTRAL PEAKS>  (6284) 
15 1.61
19 3.72
27 8.34
28 6.01
29 7.74
31 16.88
39 1.91
41 10.95
43 9.55
44 7.94
45 99.99
46 2.51
55 2.51
57 2.41
59 18.29
73 1.11

$$$$

     RDKit          2D

  6  5  0  0  0  0  0  0  0  0999 V2000
    1.2990    2.2500    0.0000 C   0  0  0  0  0  0  0  0  0  0  0  0
    0.0000    3.0000    0.0000 C   0  0  0  0  0  0  0  0  0  0  0  0
   -1.2990    2.2500    0.0000 C   0  0  0  0  0  0  0  0  0  0  0  0
   -2.5981    3.0000    0.0000 C   0  0  0  0  0  0  0  0  0  0  0  0
   -2.5981    4.5000    0.0000 O   0  0  0  0  0  0  0  0  0  0  0  0
   -3.8971    2.2500    0.0000 O   0  0  0  0  0  0  0  0  0  0  0  0
  2  1  1  0
  3  2  1  0
  4  3  1  0
  5  4  2  0
  6  4  1  0
M  END
>  <NAME>  (6285) 
BUTANOIC ACID

>  <SYNONYMS>  (6285) 
BUTYRIC ACID

>  <SPECTRUM TYPE>  (6285) 
MS1

>  <INSTRUMENT TYPE>  (6285) 
EI-B

>  <INSTRUMENT>  (6285) 
HITACHI RMU-7M

>  <ION MODE>  (6285) 
P

>  <INCHIKEY>  (6285) 
FERIUCNNQQJTOY-UHFFFAOYSA-N

>  <FORMULA>  (6285) 
C4H8O2

>  <EXACT MASS>  (6285) 
88.052429496

>  <MW>  (6285) 
88

>  <ID>  (6285) 
JP001851

>  <CONTRIBUTOR>  (6285) 
University of Tokyo Team, {Faculty of Engineering, University of Tokyo

>  <COMMENT>  (6285) 
SMILES=CCCC(O)=O
InChI=InChI=1S/C4H8O2/c1-2-3-4(5)6/h2-3H2,1H3,(H,5,6)
computed SMILES=O=C(O)CCC
accession=JP001851
date=2016.01.19 (Created 2008.10.21, modified 2011.05.06)
author=TAJIMA S, GUNMA COLLEGE OF TECHNOLOGY
license=CC BY-NC-SA
exact mass=88.05243
ionization energy=70 eV
ion type=[M]+*
computed spectral entropy=2.3648295078375545
computed normalized entropy=0.7441124770308386
SPLASH=splash10-03dl-9000000000-6dc57ea0c6b21d3f8aa1
submitter=submitter = University of Tokyo Team (Faculty of Engineering, University of Tokyo)
MoNA Rating=3.75

>  <NUM PEAKS>  (6285) 
24

>  <MASS SPECTRAL PEAKS>  (6285) 
15 1.77
18 2.48
26 2.36
27 23.48
28 9.47
29 11.98
31 1
38 1.77
39 10.97
40 1.53
41 22.36
42 18.7
43 17.11
44 1.12
45 13.1
55 8.61
60 99.99
61 2.3
69 1.18
70 1.89
71 2.89
73 28.5
87 1.18
88 1.53

$$$$

     RDKit          2D

  6  5  0  0  0  0  0  0  0  0999 V2000
    1.2990    2.2500    0.0000 C   0  0  0  0  0  0  0  0  0  0  0  0
   -3.8971    2.2500    0.0000 C   0  0  0  0  0  0  0  0  0  0  0  0
   -2.5981    4.5000    0.0000 C   0  0  0  0  0  0  0  0  0  0  0  0
    0.0000    3.0000    0.0000 C   0  0  0  0  0  0  0  0  0  0  0  0
   -1.2990    2.2500    0.0000 C   0  0  0  0  0  0  0  0  0  0  0  0
   -2.5981    3.0000    0.0000 C   0  0  0  0  0  0  0  0  0  0  0  0
  4  1  1  0
  5  4  1  0
  6  2  1  0
  6  3  1  0
  6  5  1  0
M  END
>  <NAME>  (6286) 
2-METHYL PENTANE

>  <SYNONYMS>  (6286) 
ISOHEXANE

>  <SPECTRUM TYPE>  (6286) 
MS1

>  <INSTRUMENT TYPE>  (6286) 
EI-B

>  <INSTRUMENT>  (6286) 
HITACHI RMU-7M

>  <ION MODE>  (6286) 
P

>  <INCHIKEY>  (6286) 
AFABGHUZZDYHJO-UHFFFAOYSA-N

>  <FORMULA>  (6286) 
C6H14

>  <EXACT MASS>  (6286) 
86.109550448

>  <MW>  (6286) 
86

>  <ID>  (6286) 
JP001850

>  <CONTRIBUTOR>  (6286) 
University of Tokyo Team, {Faculty of Engineering, University of Tokyo

>  <COMMENT>  (6286) 
SMILES=CCCC(C)C
InChI=InChI=1S/C6H14/c1-4-5-6(2)3/h6H,4-5H2,1-3H3
computed SMILES=CCCC(C)C
accession=JP001850
date=2016.01.19 (Created 2008.10.21, modified 2011.05.06)
author=TAJIMA S, GUNMA COLLEGE OF TECHNOLOGY
license=CC BY-NC-SA
exact mass=86.10955
ionization energy=70 eV
ion type=[M]+*
computed spectral entropy=1.9829683779863534
computed normalized entropy=0.7513926869771508
SPLASH=splash10-0006-9000000000-7bc39e385e8a00c54e56
submitter=submitter = University of Tokyo Team (Faculty of Engineering, University of Tokyo)
MoNA Rating=3.75

>  <NUM PEAKS>  (6286) 
14

>  <MASS SPECTRAL PEAKS>  (6286) 
27 12.12
28 2.73
29 10.72
39 10.23
41 34.55
42 47.3
43 99.99
44 2.52
55 4.91
56 3.85
57 10.93
70 4.41
71 20.25
86 1.26

$$$$

     RDKit          2D

  8  7  0  0  0  0  0  0  0  0999 V2000
    1.9486    3.3750    0.0000 C   0  0  0  0  0  0  0  0  0  0  0  0
   -5.8457    3.3750    0.0000 C   0  0  0  0  0  0  0  0  0  0  0  0
   -4.5466    5.6250    0.0000 C   0  0  0  0  0  0  0  0  0  0  0  0
    0.6495    4.1250    0.0000 C   0  0  0  0  0  0  0  0  0  0  0  0
   -0.6495    3.3750    0.0000 C   0  0  0  0  0  0  0  0  0  0  0  0
   -1.9486    4.1250    0.0000 C   0  0  0  0  0  0  0  0  0  0  0  0
   -3.2476    3.3750    0.0000 C   0  0  0  0  0  0  0  0  0  0  0  0
   -4.5466    4.1250    0.0000 C   0  0  0  0  0  0  0  0  0  0  0  0
  4  1  1  0
  5  4  1  0
  6  5  1  0
  7  6  1  0
  8  2  1  0
  8  3  1  0
  8  7  1  0
M  END
>  <NAME>  (6287) 
2-METHYLHEPTANE

>  <SYNONYMS>  (6287) 
ISOOCTANE

>  <SPECTRUM TYPE>  (6287) 
MS1

>  <INSTRUMENT TYPE>  (6287) 
EI-B

>  <INSTRUMENT>  (6287) 
HITACHI RMU-7M

>  <ION MODE>  (6287) 
P

>  <INCHIKEY>  (6287) 
JVSWJIKNEAIKJW-UHFFFAOYSA-N

>  <FORMULA>  (6287) 
C8H18

>  <EXACT MASS>  (6287) 
114.14085057599999

>  <MW>  (6287) 
114

>  <ID>  (6287) 
JP001849

>  <CONTRIBUTOR>  (6287) 
University of Tokyo Team, {Faculty of Engineering, University of Tokyo

>  <COMMENT>  (6287) 
SMILES=CCCCCC(C)C
InChI=InChI=1S/C8H18/c1-4-5-6-7-8(2)3/h8H,4-7H2,1-3H3
computed SMILES=CCCCCC(C)C
accession=JP001849
date=2016.01.19 (Created 2008.10.21, modified 2011.05.06)
author=TAJIMA S, GUNMA COLLEGE OF TECHNOLOGY
license=CC BY-NC-SA
exact mass=114.14085
ionization energy=70 eV
ion type=[M]+*
computed spectral entropy=1.635635607711186
computed normalized entropy=0.6582281905240707
SPLASH=splash10-0a4i-9000000000-8f0a0db80b2d392156d2
submitter=submitter = University of Tokyo Team (Faculty of Engineering, University of Tokyo)
MoNA Rating=3.75

>  <NUM PEAKS>  (6287) 
12

>  <MASS SPECTRAL PEAKS>  (6287) 
27 3.67
28 1.3
29 7.99
39 3.59
41 19.79
42 1.03
43 17.6
55 2.64
56 29.33
57 99.99
58 4.33
99 3.74

$$$$

     RDKit          2D

  4  3  0  0  0  0  0  0  0  0999 V2000
    0.9743    0.5625    0.0000 C   0  0  0  0  0  0  0  0  0  0  0  0
   -0.3248    1.3125    0.0000 C   0  0  0  0  0  0  0  0  0  0  0  0
   -1.6238    0.5625    0.0000 N   0  0  0  0  0  0  0  0  0  0  0  0
   -0.3248    2.8125    0.0000 O   0  0  0  0  0  0  0  0  0  0  0  0
  2  1  1  0
  3  2  2  0
  4  2  1  0
M  END
>  <NAME>  (6288) 
ACETAMIDE

>  <SYNONYMS>  (6288) 


>  <SPECTRUM TYPE>  (6288) 
MS1

>  <INSTRUMENT TYPE>  (6288) 
EI-B

>  <INSTRUMENT>  (6288) 
HITACHI RMU-7M

>  <ION MODE>  (6288) 
P

>  <INCHIKEY>  (6288) 
DLFVBJFMPXGRIB-UHFFFAOYSA-N

>  <FORMULA>  (6288) 
C2H5NO

>  <EXACT MASS>  (6288) 
59.03711378

>  <MW>  (6288) 
59

>  <ID>  (6288) 
JP001848

>  <CONTRIBUTOR>  (6288) 
University of Tokyo Team, {Faculty of Engineering, University of Tokyo

>  <COMMENT>  (6288) 
SMILES=CC(N)=O
InChI=InChI=1S/C2H5NO/c1-2(3)4/h1H3,(H2,3,4)
computed SMILES=N=C(O)C
accession=JP001848
date=2016.01.19 (Created 2008.10.21, modified 2011.05.06)
author=TAJIMA S, GUNMA COLLEGE OF TECHNOLOGY
license=CC BY-NC-SA
exact mass=59.03711
ionization energy=70 eV
ion type=[M]+*
computed spectral entropy=2.311303539983099
computed normalized entropy=0.7715320759425144
SPLASH=splash10-0006-9000000000-94d49b439405d0f3ad41
submitter=submitter = University of Tokyo Team (Faculty of Engineering, University of Tokyo)
MoNA Rating=3.75

>  <NUM PEAKS>  (6288) 
20

>  <MASS SPECTRAL PEAKS>  (6288) 
12 1.29
13 1.7
14 5.64
15 20.73
16 3.54
27 3.06
28 16.18
29 2.38
30 2.11
31 3.81
38 6.12
39 10.94
40 32.29
41 62.47
42 29.44
43 56.15
44 74.64
45 1.97
59 99.99
60 6.05

$$$$

     RDKit          2D

  9  8  0  0  0  0  0  0  0  0999 V2000
    2.5981    4.5000    0.0000 C   0  0  0  0  0  0  0  0  0  0  0  0
   -7.7942    4.5000    0.0000 C   0  0  0  0  0  0  0  0  0  0  0  0
    1.2990    5.2500    0.0000 C   0  0  0  0  0  0  0  0  0  0  0  0
   -6.4952    5.2500    0.0000 C   0  0  0  0  0  0  0  0  0  0  0  0
    0.0000    4.5000    0.0000 C   0  0  0  0  0  0  0  0  0  0  0  0
   -5.1962    4.5000    0.0000 C   0  0  0  0  0  0  0  0  0  0  0  0
   -1.2990    5.2500    0.0000 C   0  0  0  0  0  0  0  0  0  0  0  0
   -3.8971    5.2500    0.0000 C   0  0  0  0  0  0  0  0  0  0  0  0
   -2.5981    4.5000    0.0000 N   0  0  0  0  0  0  0  0  0  0  0  0
  3  1  1  0
  4  2  1  0
  5  3  1  0
  6  4  1  0
  7  5  1  0
  8  6  1  0
  9  7  1  0
  9  8  1  0
M  END
>  <NAME>  (6289) 
DIBUTYL AMINE

>  <SYNONYMS>  (6289) 


>  <SPECTRUM TYPE>  (6289) 
MS1

>  <INSTRUMENT TYPE>  (6289) 
EI-B

>  <INSTRUMENT>  (6289) 
HITACHI RMU-7M

>  <ION MODE>  (6289) 
P

>  <INCHIKEY>  (6289) 
JQVDAXLFBXTEQA-UHFFFAOYSA-N

>  <FORMULA>  (6289) 
C8H19N

>  <EXACT MASS>  (6289) 
129.151749608

>  <MW>  (6289) 
129

>  <ID>  (6289) 
JP001847

>  <CONTRIBUTOR>  (6289) 
University of Tokyo Team, {Faculty of Engineering, University of Tokyo

>  <COMMENT>  (6289) 
SMILES=CCCCNCCCC
InChI=InChI=1S/C8H19N/c1-3-5-7-9-8-6-4-2/h9H,3-8H2,1-2H3
computed SMILES=N(CCCC)CCCC
ion type=[M]+*
computed spectral entropy=2.4361367936340903
computed normalized entropy=0.7477178055360703
accession=JP001847
date=2016.01.19 (Created 2008.10.21, modified 2011.05.06)
author=TAJIMA S, GUNMA COLLEGE OF TECHNOLOGY
license=CC BY-NC-SA
exact mass=129.15175
ionization energy=70 eV
SPLASH=splash10-001c-9000000000-5c973181850ad794c5e9
submitter=submitter = University of Tokyo Team (Faculty of Engineering, University of Tokyo)
MoNA Rating=3.75

>  <NUM PEAKS>  (6289) 
26

>  <MASS SPECTRAL PEAKS>  (6289) 
15 1.08
27 8.09
28 11.57
29 22.54
30 55.04
39 4.38
41 20.38
42 7.55
43 5.58
44 67.21
45 1.8
55 3.9
56 6.35
57 19
58 1.62
70 3.48
72 2.7
84 10.01
86 99.99
87 6
99 1.56
100 1.2
112 1.68
128 1.68
129 9.59
130 2.04

$$$$

     RDKit          2D

  9  8  0  0  0  0  0  0  0  0999 V2000
    2.5981    4.5000    0.0000 C   0  0  0  0  0  0  0  0  0  0  0  0
    1.2990    5.2500    0.0000 C   0  0  0  0  0  0  0  0  0  0  0  0
    0.0000    4.5000    0.0000 C   0  0  0  0  0  0  0  0  0  0  0  0
   -1.2990    5.2500    0.0000 C   0  0  0  0  0  0  0  0  0  0  0  0
   -2.5981    4.5000    0.0000 C   0  0  0  0  0  0  0  0  0  0  0  0
   -3.8971    5.2500    0.0000 C   0  0  0  0  0  0  0  0  0  0  0  0
   -5.1962    4.5000    0.0000 C   0  0  0  0  0  0  0  0  0  0  0  0
   -6.4952    5.2500    0.0000 C   0  0  0  0  0  0  0  0  0  0  0  0
   -7.7942    4.5000    0.0000 O   0  0  0  0  0  0  0  0  0  0  0  0
  2  1  1  0
  3  2  1  0
  4  3  1  0
  5  4  1  0
  6  5  1  0
  7  6  1  0
  8  7  1  0
  9  8  1  0
M  END
>  <NAME>  (6290) 
1-OCTANOL

>  <SYNONYMS>  (6290) 
OCTYL ALCOHOL

>  <SPECTRUM TYPE>  (6290) 
MS1

>  <INSTRUMENT TYPE>  (6290) 
EI-B

>  <INSTRUMENT>  (6290) 
HITACHI RMU-7M

>  <ION MODE>  (6290) 
P

>  <INCHIKEY>  (6290) 
KBPLFHHGFOOTCA-UHFFFAOYSA-N

>  <FORMULA>  (6290) 
C8H18O

>  <EXACT MASS>  (6290) 
130.135765196

>  <MW>  (6290) 
130

>  <ID>  (6290) 
JP001846

>  <CONTRIBUTOR>  (6290) 
University of Tokyo Team, {Faculty of Engineering, University of Tokyo

>  <COMMENT>  (6290) 
SMILES=CCCCCCCCO
InChI=InChI=1S/C8H18O/c1-2-3-4-5-6-7-8-9/h9H,2-8H2,1H3
computed SMILES=OCCCCCCCC
accession=JP001846
date=2016.01.19 (Created 2008.10.21, modified 2011.05.06)
author=TAJIMA S, GUNMA COLLEGE OF TECHNOLOGY
license=CC BY-NC-SA
exact mass=130.13577
ionization energy=70 eV
ion type=[M]+*
computed spectral entropy=2.8778183628056024
computed normalized entropy=0.8380399201973935
SPLASH=splash10-0a4l-9000000000-ed86628388cb3c552567
submitter=submitter = University of Tokyo Team (Faculty of Engineering, University of Tokyo)
MoNA Rating=3.75

>  <NUM PEAKS>  (6290) 
31

>  <MASS SPECTRAL PEAKS>  (6290) 
15 1.29
27 24.14
28 11.1
29 36.77
31 23.33
39 16.01
40 3.14
41 81.58
42 49.64
43 70.15
44 6.68
45 4.18
53 3.78
54 4.91
55 86.89
56 99.99
57 41.83
58 2.25
67 5.71
68 16.01
69 62.51
70 59.53
71 11.02
73 2.01
81 1.61
82 7.4
83 32.5
84 43.93
85 4.91
97 2.82
112 1.37

$$$$

     RDKit          2D

  6  6  0  0  0  0  0  0  0  0999 V2000
   -1.3000    0.7500    0.0000 C   0  0  0  0  0  0  0  0  0  0  0  0
    0.0000    1.5000    0.0000 C   0  0  0  0  0  0  0  0  0  0  0  0
   -1.3000   -0.7500    0.0000 C   0  0  0  0  0  0  0  0  0  0  0  0
    1.3000    0.7500    0.0000 C   0  0  0  0  0  0  0  0  0  0  0  0
   -0.0000   -1.5000    0.0000 C   0  0  0  0  0  0  0  0  0  0  0  0
    1.3000   -0.7500    0.0000 C   0  0  0  0  0  0  0  0  0  0  0  0
  2  1  1  0
  3  1  1  0
  4  2  1  0
  5  3  1  0
  6  4  1  0
  6  5  1  0
M  END
>  <NAME>  (6291) 
CYCLOHEXANE

>  <SYNONYMS>  (6291) 


>  <SPECTRUM TYPE>  (6291) 
MS1

>  <INSTRUMENT TYPE>  (6291) 
EI-B

>  <INSTRUMENT>  (6291) 
HITACHI RMU-7M

>  <ION MODE>  (6291) 
P

>  <INCHIKEY>  (6291) 
XDTMQSROBMDMFD-UHFFFAOYSA-N

>  <FORMULA>  (6291) 
C6H12

>  <EXACT MASS>  (6291) 
84.093900384

>  <MW>  (6291) 
84

>  <ID>  (6291) 
JP001845

>  <CONTRIBUTOR>  (6291) 
University of Tokyo Team, {Faculty of Engineering, University of Tokyo

>  <COMMENT>  (6291) 
SMILES=C(C1)CCCC1
InChI=InChI=1S/C6H12/c1-2-4-6-5-3-1/h1-6H2
computed SMILES=C1CCCCC1
accession=JP001845
date=2016.01.19 (Created 2008.10.21, modified 2011.05.06)
author=TAJIMA S, GUNMA COLLEGE OF TECHNOLOGY
license=CC BY-NC-SA
exact mass=84.0939
ionization energy=70 eV
ion type=[M]+*
computed spectral entropy=2.3124889114555565
computed normalized entropy=0.7853750503296942
SPLASH=splash10-0a4l-9000000000-c9adeb7bca08187b71b6
submitter=submitter = University of Tokyo Team (Faculty of Engineering, University of Tokyo)
MoNA Rating=3.75

>  <NUM PEAKS>  (6291) 
19

>  <MASS SPECTRAL PEAKS>  (6291) 
27 11.09
28 12.66
29 6.65
39 15.52
40 3.6
41 54.16
42 24.12
43 10.54
44 1.85
53 2.59
54 4.16
55 32.07
56 99.99
57 3.42
67 1.85
69 25.79
83 2.96
84 62.66
85 3.05

$$$$

     RDKit          2D

 15 15  0  0  0  0  0  0  0  0999 V2000
    4.8721    3.8829    0.0000 C   0  0  0  0  0  0  0  0  0  0  0  0
    3.5731    3.1329    0.0000 C   0  0  0  0  0  0  0  0  0  0  0  0
    2.2740    3.8829    0.0000 C   0  0  0  0  0  0  0  0  0  0  0  0
    0.9750    3.1329    0.0000 C   0  0  0  0  0  0  0  0  0  0  0  0
   -8.1183    5.3829    0.0000 C   0  0  0  0  0  0  0  0  0  0  0  0
   -8.1187    3.8821    0.0000 C   0  0  0  0  0  0  0  0  0  0  0  0
   -6.8187    6.1337    0.0000 C   0  0  0  0  0  0  0  0  0  0  0  0
   -0.3240    3.8829    0.0000 C   0  0  0  0  0  0  0  0  0  0  0  0
   -6.8197    3.1321    0.0000 C   0  0  0  0  0  0  0  0  0  0  0  0
   -5.5197    5.3837    0.0000 C   0  0  0  0  0  0  0  0  0  0  0  0
   -1.6231    3.1329    0.0000 C   0  0  0  0  0  0  0  0  0  0  0  0
   -5.5202    3.8829    0.0000 C   0  0  0  0  0  0  0  0  0  0  0  0
   -4.2212    3.1329    0.0000 C   0  0  0  0  0  0  0  0  0  0  0  0
   -4.2212    1.6329    0.0000 O   0  0  0  0  0  0  0  0  0  0  0  0
   -2.9221    3.8829    0.0000 O   0  0  0  0  0  0  0  0  0  0  0  0
  2  1  1  0
  3  2  1  0
  4  3  1  0
  6  5  2  0
  7  5  1  0
  8  4  1  0
  9  6  1  0
 10  7  2  0
 11  8  1  0
 12  9  2  0
 12 10  1  0
 13 12  1  0
 14 13  2  0
 15 11  1  0
 15 13  1  0
M  END
>  <NAME>  (6292) 
HEXYL BENZOATE

>  <SYNONYMS>  (6292) 


>  <SPECTRUM TYPE>  (6292) 
MS1

>  <INSTRUMENT TYPE>  (6292) 
EI-B

>  <INSTRUMENT>  (6292) 
HITACHI RMU-7M

>  <ION MODE>  (6292) 
P

>  <INCHIKEY>  (6292) 
UUGLJVMIFJNVFH-UHFFFAOYSA-N

>  <FORMULA>  (6292) 
C13H18O2

>  <EXACT MASS>  (6292) 
206.130679816

>  <MW>  (6292) 
206

>  <ID>  (6292) 
JP001844

>  <CONTRIBUTOR>  (6292) 
University of Tokyo Team, {Faculty of Engineering, University of Tokyo

>  <COMMENT>  (6292) 
SMILES=CCCCCCOC(=O)c(c1)cccc1
InChI=InChI=1S/C13H18O2/c1-2-3-4-8-11-15-13(14)12-9-6-5-7-10-12/h5-7,9-10H,2-4,8,11H2,1H3
computed SMILES=O=C(OCCCCCC)C=1C=CC=CC1
accession=JP001844
date=2016.01.19 (Created 2008.10.21, modified 2011.05.06)
author=TAJIMA S, GUNMA COLLEGE OF TECHNOLOGY
license=CC BY-NC-SA
exact mass=206.13068
ionization energy=70 eV
ion type=[M]+*
computed spectral entropy=2.5167732049339913
computed normalized entropy=0.7724673518920135
SPLASH=splash10-0ab9-8900000000-f68dec8f8af75af595c8
submitter=submitter = University of Tokyo Team (Faculty of Engineering, University of Tokyo)
MoNA Rating=3.75

>  <NUM PEAKS>  (6292) 
26

>  <MASS SPECTRAL PEAKS>  (6292) 
27 5.19
28 4.63
29 5.52
39 3.35
41 10.93
42 10.26
43 11.32
50 2.29
51 13.94
54 1
55 13.22
56 28.83
57 1.78
69 10.71
76 1.9
77 44.67
78 3.29
79 6.75
83 1.23
84 16.34
85 1.12
105 99.99
106 7.86
122 15.17
123 88.23
124 6.47

$$$$

     RDKit          2D

 14 14  0  0  0  0  0  0  0  0999 V2000
   -4.2308    0.5551    0.0000 C   0  0  0  0  0  0  0  0  0  0  0  0
    6.1633    0.5619    0.0000 C   0  0  0  0  0  0  0  0  0  0  0  0
    0.9711   -2.4305    0.0000 C   0  0  0  0  0  0  0  0  0  0  0  0
   -0.3279   -1.6805    0.0000 C   0  0  0  0  0  0  0  0  0  0  0  0
    2.2656   -1.6883    0.0000 C   0  0  0  0  0  0  0  0  0  0  0  0
    0.9671    0.5625    0.0000 C   0  0  0  0  0  0  0  0  0  0  0  0
   -0.3325   -0.1883    0.0000 C   0  0  0  0  0  0  0  0  0  0  0  0
    2.2661   -0.1875    0.0000 C   0  0  0  0  0  0  0  0  0  0  0  0
   -1.6327    0.5595    0.0000 C   0  0  0  0  0  0  0  0  0  0  0  0
    3.5653    0.5623    0.0000 C   0  0  0  0  0  0  0  0  0  0  0  0
   -1.6353    2.0595    0.0000 O   0  0  0  0  0  0  0  0  0  0  0  0
    3.5655    2.0623    0.0000 O   0  0  0  0  0  0  0  0  0  0  0  0
   -2.9305   -0.1927    0.0000 O   0  0  0  0  0  0  0  0  0  0  0  0
    4.8642   -0.1879    0.0000 O   0  0  0  0  0  0  0  0  0  0  0  0
  4  3  2  0
  5  3  1  0
  7  4  1  0
  7  6  2  0
  8  5  2  0
  8  6  1  0
  9  7  1  0
 10  8  1  0
 11  9  2  0
 12 10  2  0
 13  1  1  0
 13  9  1  0
 14  2  1  0
 14 10  1  0
M  END
>  <NAME>  (6293) 
DIMETHYL ISOPHTHALATE

>  <SYNONYMS>  (6293) 
1,3-BENZENEDICARBOXYLIC ACID DIMETHYL ESTER

>  <SPECTRUM TYPE>  (6293) 
MS1

>  <INSTRUMENT TYPE>  (6293) 
EI-B

>  <INSTRUMENT>  (6293) 
HITACHI RMU-7M

>  <ION MODE>  (6293) 
P

>  <INCHIKEY>  (6293) 
VNGOYPQMJFJDLV-UHFFFAOYSA-N

>  <FORMULA>  (6293) 
C10H10O4

>  <EXACT MASS>  (6293) 
194.0579088

>  <MW>  (6293) 
194

>  <ID>  (6293) 
JP001843

>  <CONTRIBUTOR>  (6293) 
University of Tokyo Team, {Faculty of Engineering, University of Tokyo

>  <COMMENT>  (6293) 
SMILES=COC(=O)c(c1)cc(cc1)C(=O)OC
InChI=InChI=1S/C10H10O4/c1-13-9(11)7-4-3-5-8(6-7)10(12)14-2/h3-6H,1-2H3
computed SMILES=O=C(OC)C1=CC=CC(=C1)C(=O)OC
accession=JP001843
date=2016.01.19 (Created 2008.10.21, modified 2011.05.06)
author=TAJIMA S, GUNMA COLLEGE OF TECHNOLOGY
license=CC BY-NC-SA
exact mass=194.05791
ionization energy=70 eV
ion type=[M]+*
computed spectral entropy=2.486092068627473
computed normalized entropy=0.7239666080818171
SPLASH=splash10-03di-3900000000-2d5d2fc06c4790885098
submitter=submitter = University of Tokyo Team (Faculty of Engineering, University of Tokyo)
MoNA Rating=3.75

>  <NUM PEAKS>  (6293) 
31

>  <MASS SPECTRAL PEAKS>  (6293) 
15 3.76
28 3.25
30 1.18
38 1.03
39 1.08
50 10.58
51 2.02
52 3.25
59 1.51
63 1
64 1
66 3.76
74 3.29
75 8.04
76 13.36
77 7.86
92 2.54
103 9.41
104 4.23
105 1
107 2.26
119 4.75
120 7.53
135 31.61
136 2.59
149 1.93
163 99.99
164 9.69
193 1.79
194 16.7
195 1.83

$$$$

     RDKit          2D

 14 14  0  0  0  0  0  0  0  0999 V2000
   -5.1970   -1.5006    0.0000 C   0  0  0  0  0  0  0  0  0  0  0  0
    5.1970    1.5006    0.0000 C   0  0  0  0  0  0  0  0  0  0  0  0
   -1.3000    0.7500    0.0000 C   0  0  0  0  0  0  0  0  0  0  0  0
   -0.0000   -1.5000    0.0000 C   0  0  0  0  0  0  0  0  0  0  0  0
    0.0000    1.5000    0.0000 C   0  0  0  0  0  0  0  0  0  0  0  0
    1.3000   -0.7500    0.0000 C   0  0  0  0  0  0  0  0  0  0  0  0
   -1.3000   -0.7500    0.0000 C   0  0  0  0  0  0  0  0  0  0  0  0
    1.3000    0.7500    0.0000 C   0  0  0  0  0  0  0  0  0  0  0  0
   -2.5989   -1.5002    0.0000 C   0  0  0  0  0  0  0  0  0  0  0  0
    2.5989    1.5002    0.0000 C   0  0  0  0  0  0  0  0  0  0  0  0
   -2.5987   -3.0002    0.0000 O   0  0  0  0  0  0  0  0  0  0  0  0
    2.5987    3.0002    0.0000 O   0  0  0  0  0  0  0  0  0  0  0  0
   -3.8981   -0.7504    0.0000 O   0  0  0  0  0  0  0  0  0  0  0  0
    3.8981    0.7504    0.0000 O   0  0  0  0  0  0  0  0  0  0  0  0
  5  3  2  0
  6  4  1  0
  7  3  1  0
  7  4  2  0
  8  5  1  0
  8  6  2  0
  9  7  1  0
 10  8  1  0
 11  9  2  0
 12 10  2  0
 13  1  1  0
 13  9  1  0
 14  2  1  0
 14 10  1  0
M  END
>  <NAME>  (6294) 
DIMETHYL TEREPHTHALATE

>  <SYNONYMS>  (6294) 
1,4-BENZENEDICARBOXYLIC ACID DIMETHYL ESTER

>  <SPECTRUM TYPE>  (6294) 
MS1

>  <INSTRUMENT TYPE>  (6294) 
EI-B

>  <INSTRUMENT>  (6294) 
HITACHI RMU-7M

>  <ION MODE>  (6294) 
P

>  <INCHIKEY>  (6294) 
WOZVHXUHUFLZGK-UHFFFAOYSA-N

>  <FORMULA>  (6294) 
C10H10O4

>  <EXACT MASS>  (6294) 
194.0579088

>  <MW>  (6294) 
194

>  <ID>  (6294) 
JP001842

>  <CONTRIBUTOR>  (6294) 
University of Tokyo Team, {Faculty of Engineering, University of Tokyo

>  <COMMENT>  (6294) 
SMILES=COC(=O)c(c1)ccc(c1)C(=O)OC
InChI=InChI=1S/C10H10O4/c1-13-9(11)7-3-5-8(6-4-7)10(12)14-2/h3-6H,1-2H3
computed SMILES=O=C(OC)C1=CC=C(C=C1)C(=O)OC
accession=JP001842
date=2016.01.19 (Created 2008.10.21, modified 2011.05.06)
author=TAJIMA S, GUNMA COLLEGE OF TECHNOLOGY
license=CC BY-NC-SA
exact mass=194.05791
ionization energy=70 eV
ion type=[M]+*
computed spectral entropy=2.5880492191092888
computed normalized entropy=0.746753154797105
SPLASH=splash10-03di-3900000000-7ee8d82816aa448b1a19
submitter=submitter = University of Tokyo Team (Faculty of Engineering, University of Tokyo)
MoNA Rating=3.75

>  <NUM PEAKS>  (6294) 
32

>  <MASS SPECTRAL PEAKS>  (6294) 
15 6.17
28 2.77
29 1.41
38 1.47
39 1.64
50 12.28
51 2.26
52 2.89
53 1.13
59 2.21
63 1.41
64 1.19
66 2.32
74 4.47
75 9.96
76 14.09
77 8.55
92 2.94
103 14.66
104 9.05
105 1.7
107 1.36
119 4.53
120 7.07
135 24.56
136 2.15
163 99.99
164 9.8
165 1.08
179 2.72
194 21.17
195 2.26

$$$$

     RDKit          2D

  5  4  0  0  0  0  0  0  0  0999 V2000
    0.0000    0.0000    0.0000 C   0  0  0  0  0  0  0  0  0  0  0  0
   -1.2990    2.2500    0.0000 C   0  0  0  0  0  0  0  0  0  0  0  0
    0.0000    1.5000    0.0000 C   0  0  0  0  0  0  0  0  0  0  0  0
   -1.2990    3.7500    0.0000 O   0  0  0  0  0  0  0  0  0  0  0  0
    1.2990    2.2500    0.0000 O   0  0  0  0  0  0  0  0  0  0  0  0
  3  1  1  0
  3  2  1  0
  4  2  1  0
  5  3  1  0
M  END
>  <NAME>  (6295) 
1,2-PROPANEDIOL

>  <SYNONYMS>  (6295) 


>  <SPECTRUM TYPE>  (6295) 
MS1

>  <INSTRUMENT TYPE>  (6295) 
EI-B

>  <INSTRUMENT>  (6295) 
HITACHI RMU-7M

>  <ION MODE>  (6295) 
P

>  <INCHIKEY>  (6295) 
DNIAPMSPPWPWGF-UHFFFAOYSA-N

>  <FORMULA>  (6295) 
C3H8O2

>  <EXACT MASS>  (6295) 
76.052429496

>  <MW>  (6295) 
76

>  <ID>  (6295) 
JP001841

>  <CONTRIBUTOR>  (6295) 
University of Tokyo Team, {Faculty of Engineering, University of Tokyo

>  <COMMENT>  (6295) 
SMILES=OCC(C)O
InChI=InChI=1S/C3H8O2/c1-3(5)2-4/h3-5H,2H2,1H3
computed SMILES=OCC(O)C
accession=JP001841
date=2016.01.19 (Created 2008.10.21, modified 2011.05.06)
author=TAJIMA S, GUNMA COLLEGE OF TECHNOLOGY
license=CC BY-NC-SA
exact mass=76.05243
ionization energy=70 eV
ion type=[M]+*
computed spectral entropy=1.8258191838839253
computed normalized entropy=0.6444340620215918
SPLASH=splash10-0002-9000000000-a18bede40461dace657b
submitter=submitter = University of Tokyo Team (Faculty of Engineering, University of Tokyo)
MoNA Rating=3.75

>  <NUM PEAKS>  (6295) 
17

>  <MASS SPECTRAL PEAKS>  (6295) 
15 6.13
19 6.55
26 1.11
27 10.45
28 3.62
29 8.84
31 11.49
33 1.53
39 1
41 1.95
42 1.95
43 14.83
44 5.71
45 99.99
46 2.44
57 2.09
61 4.39

$$$$

     RDKit          2D

 18 18  0  0  0  0  0  0  0  0999 V2000
  -11.3663    6.5071    0.0000 C   0  0  0  0  0  0  0  0  0  0  0  0
  -10.0673    5.7571    0.0000 C   0  0  0  0  0  0  0  0  0  0  0  0
   -8.7683    6.5071    0.0000 C   0  0  0  0  0  0  0  0  0  0  0  0
   -7.4692    5.7571    0.0000 C   0  0  0  0  0  0  0  0  0  0  0  0
   -6.1702    6.5071    0.0000 C   0  0  0  0  0  0  0  0  0  0  0  0
   -4.8712    5.7571    0.0000 C   0  0  0  0  0  0  0  0  0  0  0  0
   -3.5721    6.5071    0.0000 C   0  0  0  0  0  0  0  0  0  0  0  0
    5.5212    4.2571    0.0000 C   0  0  0  0  0  0  0  0  0  0  0  0
    5.5216    5.7579    0.0000 C   0  0  0  0  0  0  0  0  0  0  0  0
    4.2216    3.5063    0.0000 C   0  0  0  0  0  0  0  0  0  0  0  0
   -2.2731    5.7571    0.0000 C   0  0  0  0  0  0  0  0  0  0  0  0
    4.2226    6.5079    0.0000 C   0  0  0  0  0  0  0  0  0  0  0  0
    2.9226    4.2563    0.0000 C   0  0  0  0  0  0  0  0  0  0  0  0
   -0.9740    6.5071    0.0000 C   0  0  0  0  0  0  0  0  0  0  0  0
    2.9231    5.7571    0.0000 C   0  0  0  0  0  0  0  0  0  0  0  0
    1.6240    6.5071    0.0000 C   0  0  0  0  0  0  0  0  0  0  0  0
    1.6240    8.0071    0.0000 O   0  0  0  0  0  0  0  0  0  0  0  0
    0.3250    5.7571    0.0000 O   0  0  0  0  0  0  0  0  0  0  0  0
  2  1  1  0
  3  2  1  0
  4  3  1  0
  5  4  1  0
  6  5  1  0
  7  6  1  0
  9  8  2  0
 10  8  1  0
 11  7  1  0
 12  9  1  0
 13 10  2  0
 14 11  1  0
 15 12  2  0
 15 13  1  0
 16 15  1  0
 17 16  2  0
 18 14  1  0
 18 16  1  0
M  END
>  <NAME>  (6296) 
NONYL-BENZOATE

>  <SYNONYMS>  (6296) 


>  <SPECTRUM TYPE>  (6296) 
MS1

>  <INSTRUMENT TYPE>  (6296) 
EI-B

>  <INSTRUMENT>  (6296) 
HITACHI RMU-7M

>  <ION MODE>  (6296) 
P

>  <INCHIKEY>  (6296) 
VUHMHACHBVTPMF-UHFFFAOYSA-N

>  <FORMULA>  (6296) 
C16H24O2

>  <EXACT MASS>  (6296) 
248.177630008

>  <MW>  (6296) 
248

>  <ID>  (6296) 
JP001840

>  <CONTRIBUTOR>  (6296) 
University of Tokyo Team, {Faculty of Engineering, University of Tokyo

>  <COMMENT>  (6296) 
SMILES=CCCCCCCCCOC(=O)c(c1)cccc1
InChI=InChI=1S/C16H24O2/c1-2-3-4-5-6-7-11-14-18-16(17)15-12-9-8-10-13-15/h8-10,12-13H,2-7,11,14H2,1H3
computed SMILES=O=C(OCCCCCCCCC)C=1C=CC=CC1
accession=JP001840
date=2016.01.19 (Created 2008.10.21, modified 2011.05.06)
author=TAJIMA S, GUNMA COLLEGE OF TECHNOLOGY
license=CC BY-NC-SA
exact mass=248.17763
ionization energy=70 eV
ion type=[M]+*
computed spectral entropy=2.9325541307069005
computed normalized entropy=0.8248289843887715
SPLASH=splash10-0ab9-9500000000-63c13dcf2bc7db2ee6e8
submitter=submitter = University of Tokyo Team (Faculty of Engineering, University of Tokyo)
MoNA Rating=3.75

>  <NUM PEAKS>  (6296) 
35

>  <MASS SPECTRAL PEAKS>  (6296) 
27 1.15
29 2.95
39 2.71
41 15.25
42 5.79
43 14.89
50 1.75
51 9.1
53 1.21
54 2.41
55 21.76
56 26.4
57 9.89
67 3.01
68 4.76
69 20.37
70 25.02
71 7.17
76 1.99
77 55.27
78 4.28
79 13.2
82 5.73
83 15.07
84 15.43
85 3.92
96 2.77
97 15.31
98 10.31
105 99.99
106 7.9
122 9.52
123 79.08
124 5.79
126 7.11

$$$$

     RDKit          2D

 20 20  0  0  0  0  0  0  0  0999 V2000
  -13.3149    7.6321    0.0000 C   0  0  0  0  0  0  0  0  0  0  0  0
  -12.0159    6.8821    0.0000 C   0  0  0  0  0  0  0  0  0  0  0  0
  -10.7168    7.6321    0.0000 C   0  0  0  0  0  0  0  0  0  0  0  0
   -9.4178    6.8821    0.0000 C   0  0  0  0  0  0  0  0  0  0  0  0
   -8.1187    7.6321    0.0000 C   0  0  0  0  0  0  0  0  0  0  0  0
   -6.8197    6.8821    0.0000 C   0  0  0  0  0  0  0  0  0  0  0  0
   -5.5207    7.6321    0.0000 C   0  0  0  0  0  0  0  0  0  0  0  0
   -4.2216    6.8821    0.0000 C   0  0  0  0  0  0  0  0  0  0  0  0
   -2.9226    7.6321    0.0000 C   0  0  0  0  0  0  0  0  0  0  0  0
    6.1707    5.3821    0.0000 C   0  0  0  0  0  0  0  0  0  0  0  0
    6.1712    6.8829    0.0000 C   0  0  0  0  0  0  0  0  0  0  0  0
    4.8712    4.6313    0.0000 C   0  0  0  0  0  0  0  0  0  0  0  0
   -1.6236    6.8821    0.0000 C   0  0  0  0  0  0  0  0  0  0  0  0
    4.8721    7.6329    0.0000 C   0  0  0  0  0  0  0  0  0  0  0  0
    3.5721    5.3813    0.0000 C   0  0  0  0  0  0  0  0  0  0  0  0
   -0.3245    7.6321    0.0000 C   0  0  0  0  0  0  0  0  0  0  0  0
    3.5726    6.8821    0.0000 C   0  0  0  0  0  0  0  0  0  0  0  0
    2.2736    7.6321    0.0000 C   0  0  0  0  0  0  0  0  0  0  0  0
    2.2736    9.1321    0.0000 O   0  0  0  0  0  0  0  0  0  0  0  0
    0.9745    6.8821    0.0000 O   0  0  0  0  0  0  0  0  0  0  0  0
  2  1  1  0
  3  2  1  0
  4  3  1  0
  5  4  1  0
  6  5  1  0
  7  6  1  0
  8  7  1  0
  9  8  1  0
 11 10  2  0
 12 10  1  0
 13  9  1  0
 14 11  1  0
 15 12  2  0
 16 13  1  0
 17 14  2  0
 17 15  1  0
 18 17  1  0
 19 18  2  0
 20 16  1  0
 20 18  1  0
M  END
>  <NAME>  (6297) 
UNDECYL BENZOATE

>  <SYNONYMS>  (6297) 


>  <SPECTRUM TYPE>  (6297) 
MS1

>  <INSTRUMENT TYPE>  (6297) 
EI-B

>  <INSTRUMENT>  (6297) 
HITACHI RMU-7M

>  <ION MODE>  (6297) 
P

>  <INCHIKEY>  (6297) 
YEHGKFOTJWYCBN-UHFFFAOYSA-N

>  <FORMULA>  (6297) 
C18H28O2

>  <EXACT MASS>  (6297) 
276.208930136

>  <MW>  (6297) 
276

>  <ID>  (6297) 
JP001839

>  <CONTRIBUTOR>  (6297) 
University of Tokyo Team, {Faculty of Engineering, University of Tokyo

>  <COMMENT>  (6297) 
SMILES=CCCCCCCCCCCOC(=O)c(c1)cccc1
InChI=InChI=1S/C18H28O2/c1-2-3-4-5-6-7-8-9-13-16-20-18(19)17-14-11-10-12-15-17/h10-12,14-15H,2-9,13,16H2,1H3
computed SMILES=O=C(OCCCCCCCCCCC)C=1C=CC=CC1
accession=JP001839
date=2016.01.19 (Created 2008.10.21, modified 2011.05.06)
author=TAJIMA S, GUNMA COLLEGE OF TECHNOLOGY
license=CC BY-NC-SA
exact mass=276.20893
ionization energy=70 eV
ion type=[M]+*
computed spectral entropy=2.9930171909082754
computed normalized entropy=0.811362157028575
SPLASH=splash10-0ab9-9700000000-0fd04ca45905d8ec1ae1
submitter=submitter = University of Tokyo Team (Faculty of Engineering, University of Tokyo)
MoNA Rating=3.75

>  <NUM PEAKS>  (6297) 
40

>  <MASS SPECTRAL PEAKS>  (6297) 
27 1.17
29 3.13
39 2.02
41 15.73
42 3.85
43 15.4
51 5.16
54 2.15
55 22.52
56 17.56
57 13.12
67 4.77
68 4.9
69 22.45
70 21.34
71 5.74
76 1.11
77 42.43
78 2.87
79 12.27
81 2.55
82 8.94
83 22.13
84 16.84
85 3.39
96 5.03
97 20.56
98 7.9
105 99.99
106 7.57
110 1.11
111 7.7
112 2.68
122 9.4
123 98.24
124 7.31
125 2.74
126 3.2
141 2.09
154 3.46

$$$$

     RDKit          2D

 14 14  0  0  0  0  0  0  0  0999 V2000
   -1.6353    4.6878    0.0000 C   0  0  0  0  0  0  0  0  0  0  0  0
    4.8670    0.9406    0.0000 C   0  0  0  0  0  0  0  0  0  0  0  0
   -1.6200   -1.3100    0.0000 C   0  0  0  0  0  0  0  0  0  0  0  0
   -0.3300   -2.0600    0.0000 C   0  0  0  0  0  0  0  0  0  0  0  0
   -1.6200    0.1900    0.0000 C   0  0  0  0  0  0  0  0  0  0  0  0
    0.9700   -1.3100    0.0000 C   0  0  0  0  0  0  0  0  0  0  0  0
   -0.3300    0.9400    0.0000 C   0  0  0  0  0  0  0  0  0  0  0  0
    0.9700    0.1900    0.0000 C   0  0  0  0  0  0  0  0  0  0  0  0
   -0.3325    2.4400    0.0000 C   0  0  0  0  0  0  0  0  0  0  0  0
    2.2689    0.9402    0.0000 C   0  0  0  0  0  0  0  0  0  0  0  0
    0.9653    3.1922    0.0000 O   0  0  0  0  0  0  0  0  0  0  0  0
    2.2687    2.4402    0.0000 O   0  0  0  0  0  0  0  0  0  0  0  0
   -1.6328    3.1878    0.0000 O   0  0  0  0  0  0  0  0  0  0  0  0
    3.5681    0.1904    0.0000 O   0  0  0  0  0  0  0  0  0  0  0  0
  4  3  2  0
  5  3  1  0
  6  4  1  0
  7  5  2  0
  8  6  2  0
  8  7  1  0
  9  7  1  0
 10  8  1  0
 11  9  2  0
 12 10  2  0
 13  1  1  0
 13  9  1  0
 14  2  1  0
 14 10  1  0
M  END
>  <NAME>  (6298) 
DIMETHYL PHTHALATE

>  <SYNONYMS>  (6298) 
1,2-BENZENEDICARBOXYLIC ACID DIMETHYL ESTER

>  <SPECTRUM TYPE>  (6298) 
MS1

>  <INSTRUMENT TYPE>  (6298) 
EI-B

>  <INSTRUMENT>  (6298) 
HITACHI RMU-7M

>  <ION MODE>  (6298) 
P

>  <INCHIKEY>  (6298) 
NIQCNGHVCWTJSM-UHFFFAOYSA-N

>  <FORMULA>  (6298) 
C10H10O4

>  <EXACT MASS>  (6298) 
194.0579088

>  <MW>  (6298) 
194

>  <ID>  (6298) 
JP001838

>  <CONTRIBUTOR>  (6298) 
University of Tokyo Team, {Faculty of Engineering, University of Tokyo

>  <COMMENT>  (6298) 
SMILES=COC(=O)c(c1)c(ccc1)C(=O)OC
InChI=InChI=1S/C10H10O4/c1-13-9(11)7-5-3-4-6-8(7)10(12)14-2/h3-6H,1-2H3
computed SMILES=O=C(OC)C=1C=CC=CC1C(=O)OC
accession=JP001838
date=2016.01.19 (Created 2008.10.21, modified 2011.05.06)
author=TAJIMA S, GUNMA COLLEGE OF TECHNOLOGY
license=CC BY-NC-SA
exact mass=194.05791
ionization energy=70 eV
ion type=[M]+*
computed spectral entropy=2.1681481598076875
computed normalized entropy=0.6735730974948262
SPLASH=splash10-03di-4900000000-4b5a7315902788fc4921
submitter=submitter = University of Tokyo Team (Faculty of Engineering, University of Tokyo)
MoNA Rating=3.75

>  <NUM PEAKS>  (6298) 
25

>  <MASS SPECTRAL PEAKS>  (6298) 
15 4.3
28 2.09
29 1.16
39 1.45
50 8.25
51 2.79
52 1.1
63 1.22
64 2.21
74 2.32
75 2.61
76 9.1
77 22.08
78 1.45
79 1.74
92 7.9
104 4.36
105 2.96
120 2.03
133 4.76
135 6.91
163 99.99
164 9.88
165 1.1
194 6.62

$$$$

     RDKit          2D

  5  4  0  0  0  0  0  0  0  0999 V2000
   -1.2990    2.2500    0.0000 C   0  0  0  0  0  0  0  0  0  0  0  0
   -2.5981    1.5000    0.0000 C   0  0  0  0  0  0  0  0  0  0  0  0
    0.0000    1.5000    0.0000 C   0  0  0  0  0  0  0  0  0  0  0  0
   -3.8971    2.2500    0.0000 O   0  0  0  0  0  0  0  0  0  0  0  0
    1.2990    2.2500    0.0000 O   0  0  0  0  0  0  0  0  0  0  0  0
  2  1  1  0
  3  1  1  0
  4  2  1  0
  5  3  1  0
M  END
>  <NAME>  (6299) 
1,3-PROPANEDIOL

>  <SYNONYMS>  (6299) 


>  <SPECTRUM TYPE>  (6299) 
MS1

>  <INSTRUMENT TYPE>  (6299) 
EI-B

>  <INSTRUMENT>  (6299) 
HITACHI RMU-7M

>  <ION MODE>  (6299) 
P

>  <INCHIKEY>  (6299) 
YPFDHNVEDLHUCE-UHFFFAOYSA-N

>  <FORMULA>  (6299) 
C3H8O2

>  <EXACT MASS>  (6299) 
76.052429496

>  <MW>  (6299) 
76

>  <ID>  (6299) 
JP001837

>  <CONTRIBUTOR>  (6299) 
University of Tokyo Team, {Faculty of Engineering, University of Tokyo

>  <COMMENT>  (6299) 
SMILES=OCCCO
InChI=InChI=1S/C3H8O2/c4-2-1-3-5/h4-5H,1-3H2
computed SMILES=OCCCO
accession=JP001837
date=2016.01.19 (Created 2008.10.21, modified 2011.05.06)
author=TAJIMA S, GUNMA COLLEGE OF TECHNOLOGY
license=CC BY-NC-SA
exact mass=76.05243
ionization energy=70 eV
ion type=[M]+*
computed spectral entropy=2.6110530758465513
computed normalized entropy=0.8215886876782962
SPLASH=splash10-057i-9000000000-8a78b7d323abef680fac
submitter=submitter = University of Tokyo Team (Faculty of Engineering, University of Tokyo)
MoNA Rating=3.75

>  <NUM PEAKS>  (6299) 
24

>  <MASS SPECTRAL PEAKS>  (6299) 
14 2.69
15 9.27
19 19.49
26 8.47
27 35.75
28 99.99
29 47.98
30 16.53
31 90.05
39 6.72
40 4.03
41 11.69
42 5.65
43 18.68
44 5.51
45 19.09
46 9.41
47 3.63
53 3.09
55 4.97
56 4.17
57 57.26
58 51.48
59 4.03

$$$$

     RDKit          2D

  7  6  0  0  0  0  0  0  0  0999 V2000
   -1.9486    4.1250    0.0000 C   0  0  0  0  0  0  0  0  0  0  0  0
   -0.6495    3.3750    0.0000 C   0  0  0  0  0  0  0  0  0  0  0  0
   -3.2476    3.3750    0.0000 C   0  0  0  0  0  0  0  0  0  0  0  0
    0.6495    4.1250    0.0000 C   0  0  0  0  0  0  0  0  0  0  0  0
   -4.5466    4.1250    0.0000 C   0  0  0  0  0  0  0  0  0  0  0  0
    1.9486    3.3750    0.0000 O   0  0  0  0  0  0  0  0  0  0  0  0
   -5.8457    3.3750    0.0000 O   0  0  0  0  0  0  0  0  0  0  0  0
  2  1  1  0
  3  1  1  0
  4  2  1  0
  5  3  1  0
  6  4  1  0
  7  5  1  0
M  END
>  <NAME>  (6300) 
1,5-PENTANEDIOL

>  <SYNONYMS>  (6300) 


>  <SPECTRUM TYPE>  (6300) 
MS1

>  <INSTRUMENT TYPE>  (6300) 
EI-B

>  <INSTRUMENT>  (6300) 
HITACHI RMU-7M

>  <ION MODE>  (6300) 
P

>  <INCHIKEY>  (6300) 
ALQSHHUCVQOPAS-UHFFFAOYSA-N

>  <FORMULA>  (6300) 
C5H12O2

>  <EXACT MASS>  (6300) 
104.083729624

>  <MW>  (6300) 
104

>  <ID>  (6300) 
JP001836

>  <CONTRIBUTOR>  (6300) 
University of Tokyo Team, {Faculty of Engineering, University of Tokyo

>  <COMMENT>  (6300) 
SMILES=OCCCCCO
InChI=InChI=1S/C5H12O2/c6-4-2-1-3-5-7/h6-7H,1-5H2
computed SMILES=OCCCCCO
accession=JP001836
date=2016.01.19 (Created 2008.10.21, modified 2011.05.06)
author=TAJIMA S, GUNMA COLLEGE OF TECHNOLOGY
license=CC BY-NC-SA
exact mass=104.08373
ionization energy=70 eV
ion type=[M]+*
computed spectral entropy=2.8173803015339667
computed normalized entropy=0.8283495444057766
SPLASH=splash10-055f-9000000000-6df68c0c336b19457aa8
submitter=submitter = University of Tokyo Team (Faculty of Engineering, University of Tokyo)
MoNA Rating=3.75

>  <NUM PEAKS>  (6300) 
30

>  <MASS SPECTRAL PEAKS>  (6300) 
15 1.57
19 2.83
26 2.2
27 26.67
28 16.04
29 44.28
30 4.09
31 99.99
33 2.7
39 13.84
40 5.22
41 59.31
42 11.01
43 28.87
44 30.57
45 9.69
53 3.21
55 24.34
56 39.18
57 28.11
58 3.71
61 2.2
67 17.8
68 17.61
69 4.15
71 1.89
73 5.16
74 8.43
85 1.01
87 1.01

$$$$

     RDKit          2D

  6  5  0  0  0  0  0  0  0  0999 V2000
   -1.9486    3.3750    0.0000 C   0  0  0  0  0  0  0  0  0  0  0  0
   -0.6495    2.6250    0.0000 C   0  0  0  0  0  0  0  0  0  0  0  0
   -3.2476    2.6250    0.0000 C   0  0  0  0  0  0  0  0  0  0  0  0
    0.6495    3.3750    0.0000 C   0  0  0  0  0  0  0  0  0  0  0  0
   -4.5466    3.3750    0.0000 O   0  0  0  0  0  0  0  0  0  0  0  0
    1.9486    2.6250    0.0000 O   0  0  0  0  0  0  0  0  0  0  0  0
  2  1  1  0
  3  1  1  0
  4  2  1  0
  5  3  1  0
  6  4  1  0
M  END
>  <NAME>  (6301) 
1,4-BUTANEDIOL

>  <SYNONYMS>  (6301) 


>  <SPECTRUM TYPE>  (6301) 
MS1

>  <INSTRUMENT TYPE>  (6301) 
EI-B

>  <INSTRUMENT>  (6301) 
HITACHI RMU-7M

>  <ION MODE>  (6301) 
P

>  <INCHIKEY>  (6301) 
WERYXYBDKMZEQL-UHFFFAOYSA-N

>  <FORMULA>  (6301) 
C4H10O2

>  <EXACT MASS>  (6301) 
90.06807956

>  <MW>  (6301) 
90

>  <ID>  (6301) 
JP001835

>  <CONTRIBUTOR>  (6301) 
University of Tokyo Team, {Faculty of Engineering, University of Tokyo

>  <COMMENT>  (6301) 
SMILES=OCCCCO
InChI=InChI=1S/C4H10O2/c5-3-1-2-4-6/h5-6H,1-4H2
computed SMILES=OCCCCO
accession=JP001835
date=2016.01.19 (Created 2008.10.21, modified 2011.05.06)
author=TAJIMA S, GUNMA COLLEGE OF TECHNOLOGY
license=CC BY-NC-SA
exact mass=90.06808
ionization energy=70 eV
ion type=[M]+*
computed spectral entropy=2.04339661729979
computed normalized entropy=0.7545637878013126
SPLASH=splash10-0006-9000000000-1c3e5028147c04eef039
submitter=submitter = University of Tokyo Team (Faculty of Engineering, University of Tokyo)
MoNA Rating=3.75

>  <NUM PEAKS>  (6301) 
15

>  <MASS SPECTRAL PEAKS>  (6301) 
27 8.97
29 10.65
30 2.1
31 54.53
39 9.31
40 5.12
41 37.5
42 99.99
43 21.81
44 67.03
45 4.03
55 2.52
57 6.8
60 1.17
71 4.03

$$$$

     RDKit          2D

  4  3  0  0  0  0  0  0  0  0999 V2000
   -1.2990    1.5000    0.0000 C   0  0  0  0  0  0  0  0  0  0  0  0
    0.0000    2.2500    0.0000 C   0  0  0  0  0  0  0  0  0  0  0  0
   -2.5981    2.2500    0.0000 N   0  0  0  0  0  0  0  0  0  0  0  0
    1.2990    1.5000    0.0000 O   0  0  0  0  0  0  0  0  0  0  0  0
  2  1  1  0
  3  1  1  0
  4  2  1  0
M  END
>  <NAME>  (6302) 
2-AMINO-1-ETHANOL

>  <SYNONYMS>  (6302) 


>  <SPECTRUM TYPE>  (6302) 
MS1

>  <INSTRUMENT TYPE>  (6302) 
EI-B

>  <INSTRUMENT>  (6302) 
HITACHI RMU-7M

>  <ION MODE>  (6302) 
P

>  <INCHIKEY>  (6302) 
HZAXFHJVJLSVMW-UHFFFAOYSA-N

>  <FORMULA>  (6302) 
C2H7NO

>  <EXACT MASS>  (6302) 
61.052763844

>  <MW>  (6302) 
61

>  <ID>  (6302) 
JP001834

>  <CONTRIBUTOR>  (6302) 
University of Tokyo Team, {Faculty of Engineering, University of Tokyo

>  <COMMENT>  (6302) 
SMILES=NCCO
InChI=InChI=1S/C2H7NO/c3-1-2-4/h4H,1-3H2
computed SMILES=OCCN
accession=JP001834
date=2016.01.19 (Created 2008.10.21, modified 2011.05.06)
author=TAJIMA S, GUNMA COLLEGE OF TECHNOLOGY
license=CC BY-NC-SA
exact mass=61.05276
ionization energy=70 eV
ion type=[M]+*
computed spectral entropy=0.8977415214867215
computed normalized entropy=0.4085797741144368
SPLASH=splash10-001i-9000000000-7160c3fea0c0159e447a
submitter=submitter = University of Tokyo Team (Faculty of Engineering, University of Tokyo)
MoNA Rating=3.75

>  <NUM PEAKS>  (6302) 
9

>  <MASS SPECTRAL PEAKS>  (6302) 
27 2.27
28 9.52
29 3.49
30 99.99
31 4.89
41 1.31
42 3.23
43 1.22
61 0.87

$$$$

     RDKit          2D

 11 10  0  0  0  0  0  0  0  0999 V2000
    2.5981    4.5000    0.0000 C   0  0  0  0  0  0  0  0  0  0  0  0
   -7.7942    4.5000    0.0000 C   0  0  0  0  0  0  0  0  0  0  0  0
   -2.5981    4.5000    0.0000 C   0  0  0  0  0  0  0  0  0  0  0  0
   -1.2990    5.2500    0.0000 C   0  0  0  0  0  0  0  0  0  0  0  0
   -3.8971    5.2500    0.0000 C   0  0  0  0  0  0  0  0  0  0  0  0
    0.0000    4.5000    0.0000 C   0  0  0  0  0  0  0  0  0  0  0  0
   -5.1962    4.5000    0.0000 C   0  0  0  0  0  0  0  0  0  0  0  0
    0.0000    3.0000    0.0000 O   0  0  0  0  0  0  0  0  0  0  0  0
   -5.1962    3.0000    0.0000 O   0  0  0  0  0  0  0  0  0  0  0  0
    1.2990    5.2500    0.0000 O   0  0  0  0  0  0  0  0  0  0  0  0
   -6.4952    5.2500    0.0000 O   0  0  0  0  0  0  0  0  0  0  0  0
  4  3  1  0
  5  3  1  0
  6  4  1  0
  7  5  1  0
  8  6  2  0
  9  7  2  0
 10  1  1  0
 10  6  1  0
 11  2  1  0
 11  7  1  0
M  END
>  <NAME>  (6303) 
PENTANEDIOIC ACID DIMETHYL ESTER

>  <SYNONYMS>  (6303) 
DIMETHYL GLUTARATE

>  <SPECTRUM TYPE>  (6303) 
MS1

>  <INSTRUMENT TYPE>  (6303) 
EI-B

>  <INSTRUMENT>  (6303) 
HITACHI RMU-7M

>  <ION MODE>  (6303) 
P

>  <INCHIKEY>  (6303) 
XTDYIOOONNVFMA-UHFFFAOYSA-N

>  <FORMULA>  (6303) 
C7H12O4

>  <EXACT MASS>  (6303) 
160.073558864

>  <MW>  (6303) 
160

>  <ID>  (6303) 
JP001832

>  <CONTRIBUTOR>  (6303) 
University of Tokyo Team, {Faculty of Engineering, University of Tokyo

>  <COMMENT>  (6303) 
SMILES=COC(=O)CCCC(=O)OC
InChI=InChI=1S/C7H12O4/c1-10-6(8)4-3-5-7(9)11-2/h3-5H2,1-2H3
computed SMILES=O=C(OC)CCCC(=O)OC
accession=JP001832
date=2016.01.19 (Created 2008.10.21, modified 2011.05.06)
author=TAJIMA S, GUNMA COLLEGE OF TECHNOLOGY
license=CC BY-NC-SA
exact mass=160.07356
ionization energy=70 eV
ion type=[M]+*
computed spectral entropy=2.8890463945907046
computed normalized entropy=0.7885895403569434
SPLASH=splash10-0pdi-9500000000-01e4dd415a934e49db00
submitter=submitter = University of Tokyo Team (Faculty of Engineering, University of Tokyo)
MoNA Rating=3.75

>  <NUM PEAKS>  (6303) 
39

>  <MASS SPECTRAL PEAKS>  (6303) 
15 26.73
27 7.66
28 2.71
29 8.05
31 3.04
39 9.64
40 2.18
41 21.58
42 24.09
43 16.44
44 1.32
45 3.3
49 1.32
55 43.56
56 3.17
58 7.66
59 99.99
60 2.77
68 2.51
69 5.61
70 2.57
71 1.19
72 5.87
73 1.19
74 10.76
85 5.21
87 21.32
88 1.72
97 8.71
99 1.45
100 73.93
101 52.41
102 3.1
111 1
114 1.19
115 1.06
128 27.52
129 52.48
130 3.56

$$$$

     RDKit          2D

 12 11  0  0  0  0  0  0  0  0999 V2000
   -8.4437    5.6250    0.0000 C   0  0  0  0  0  0  0  0  0  0  0  0
    3.2476    4.8750    0.0000 C   0  0  0  0  0  0  0  0  0  0  0  0
   -3.2476    5.6250    0.0000 C   0  0  0  0  0  0  0  0  0  0  0  0
   -1.9486    4.8750    0.0000 C   0  0  0  0  0  0  0  0  0  0  0  0
   -4.5466    4.8750    0.0000 C   0  0  0  0  0  0  0  0  0  0  0  0
   -0.6495    5.6250    0.0000 C   0  0  0  0  0  0  0  0  0  0  0  0
   -5.8457    5.6250    0.0000 C   0  0  0  0  0  0  0  0  0  0  0  0
    0.6495    4.8750    0.0000 C   0  0  0  0  0  0  0  0  0  0  0  0
   -5.8457    7.1250    0.0000 O   0  0  0  0  0  0  0  0  0  0  0  0
    0.6495    3.3750    0.0000 O   0  0  0  0  0  0  0  0  0  0  0  0
   -7.1447    4.8750    0.0000 O   0  0  0  0  0  0  0  0  0  0  0  0
    1.9486    5.6250    0.0000 O   0  0  0  0  0  0  0  0  0  0  0  0
  4  3  1  0
  5  3  1  0
  6  4  1  0
  7  5  1  0
  8  6  1  0
  9  7  2  0
 10  8  2  0
 11  1  1  0
 11  7  1  0
 12  2  1  0
 12  8  1  0
M  END
>  <NAME>  (6304) 
HEXANEDIOIC ACID DIMETHYL ESTER

>  <SYNONYMS>  (6304) 
DIMETHYL ADIPATE

>  <SPECTRUM TYPE>  (6304) 
MS1

>  <INSTRUMENT TYPE>  (6304) 
EI-B

>  <INSTRUMENT>  (6304) 
HITACHI RMU-7M

>  <ION MODE>  (6304) 
P

>  <INCHIKEY>  (6304) 
UDSFAEKRVUSQDD-UHFFFAOYSA-N

>  <FORMULA>  (6304) 
C8H14O4

>  <EXACT MASS>  (6304) 
174.089208928

>  <MW>  (6304) 
174

>  <ID>  (6304) 
JP001831

>  <CONTRIBUTOR>  (6304) 
University of Tokyo Team, {Faculty of Engineering, University of Tokyo

>  <COMMENT>  (6304) 
SMILES=COC(=O)CCCCC(=O)OC
InChI=InChI=1S/C8H14O4/c1-11-7(9)5-3-4-6-8(10)12-2/h3-6H2,1-2H3
computed SMILES=O=C(OC)CCCCC(=O)OC
accession=JP001831
date=2016.01.19 (Created 2008.10.21, modified 2011.05.06)
author=TAJIMA S, GUNMA COLLEGE OF TECHNOLOGY
license=CC BY-NC-SA
exact mass=174.08921
ionization energy=70 eV
ion type=[M]+*
computed spectral entropy=3.1023427480874046
computed normalized entropy=0.840998679050786
SPLASH=splash10-0btc-9400000000-ff42d8fa8b333380c410
submitter=submitter = University of Tokyo Team (Faculty of Engineering, University of Tokyo)
MoNA Rating=3.75

>  <NUM PEAKS>  (6304) 
40

>  <MASS SPECTRAL PEAKS>  (6304) 
15 18.7
27 11
28 10.32
29 11.68
31 2.79
39 10.83
41 29.78
42 17.6
43 40.44
44 2.12
45 6.35
53 3.29
54 8.88
55 76.9
56 9.22
57 3.98
59 99.99
60 2.12
68 2.62
69 6.77
71 3.21
72 6.43
73 24.53
74 35.19
82 8.97
83 20.22
84 1.44
87 9.22
88 1.61
97 2.7
101 48.9
102 2.2
110 1.95
111 51.27
112 3.38
114 58.38
115 12.52
142 10.07
143 47.29
144 3.38

$$$$

     RDKit          2D

  9  9  0  0  0  0  0  0  0  0999 V2000
   -2.5989   -0.7504    0.0000 C   0  0  0  0  0  0  0  0  0  0  0  0
    2.5992   -0.7500    0.0000 C   0  0  0  0  0  0  0  0  0  0  0  0
    1.2992    1.5000    0.0000 C   0  0  0  0  0  0  0  0  0  0  0  0
    1.2992   -1.5000    0.0000 C   0  0  0  0  0  0  0  0  0  0  0  0
   -0.0008    0.7500    0.0000 C   0  0  0  0  0  0  0  0  0  0  0  0
    2.5992    0.7500    0.0000 C   0  0  0  0  0  0  0  0  0  0  0  0
   -0.0008   -0.7500    0.0000 C   0  0  0  0  0  0  0  0  0  0  0  0
    3.8981    1.5002    0.0000 N   0  0  0  0  0  0  0  0  0  0  0  0
   -1.2998   -1.5002    0.0000 O   0  0  0  0  0  0  0  0  0  0  0  0
  4  2  2  0
  5  3  1  0
  6  2  1  0
  6  3  2  0
  7  4  1  0
  7  5  2  0
  8  6  1  0
  9  1  1  0
  9  7  1  0
M  END
>  <NAME>  (6305) 
PARA-ANISIDINE

>  <SYNONYMS>  (6305) 
PARA-METHOXYANILINE

>  <SPECTRUM TYPE>  (6305) 
MS1

>  <INSTRUMENT TYPE>  (6305) 
EI-B

>  <INSTRUMENT>  (6305) 
HITACHI RMU-7M

>  <ION MODE>  (6305) 
P

>  <INCHIKEY>  (6305) 
BHAAPTBBJKJZER-UHFFFAOYSA-N

>  <FORMULA>  (6305) 
C7H9NO

>  <EXACT MASS>  (6305) 
123.068413908

>  <MW>  (6305) 
123

>  <ID>  (6305) 
JP001830

>  <CONTRIBUTOR>  (6305) 
University of Tokyo Team, {Faculty of Engineering, University of Tokyo

>  <COMMENT>  (6305) 
SMILES=COc(c1)ccc(N)c1
InChI=InChI=1S/C7H9NO/c1-9-7-4-2-6(8)3-5-7/h2-5H,8H2,1H3
computed SMILES=O(C1=CC=C(N)C=C1)C
accession=JP001830
date=2016.01.19 (Created 2008.10.21, modified 2011.05.06)
author=TAJIMA S, GUNMA COLLEGE OF TECHNOLOGY
license=CC BY-NC-SA
exact mass=123.06841
ionization energy=70 eV
ion type=[M]+*
computed spectral entropy=2.122643052795176
computed normalized entropy=0.6679065761962819
SPLASH=splash10-0ab9-4900000000-a2f147705f92caffa50b
submitter=submitter = University of Tokyo Team (Faculty of Engineering, University of Tokyo)
MoNA Rating=3.75

>  <NUM PEAKS>  (6305) 
24

>  <MASS SPECTRAL PEAKS>  (6305) 
27 2.92
28 6.41
38 1.37
39 5.29
41 2.86
50 1.12
51 2.61
52 9.02
53 13.68
54 2.49
61 2.24
63 2.49
64 1.37
65 6.28
79 1.49
80 28.54
81 2.24
92 1.62
95 2.36
108 99.99
109 6.9
122 2.36
123 71.52
124 5.41

$$$$

     RDKit          2D

 10  9  0  0  0  0  0  0  0  0999 V2000
   -6.4952    4.5000    0.0000 C   0  0  0  0  0  0  0  0  0  0  0  0
    2.5981    3.7500    0.0000 C   0  0  0  0  0  0  0  0  0  0  0  0
   -2.5981    3.7500    0.0000 C   0  0  0  0  0  0  0  0  0  0  0  0
   -1.2990    4.5000    0.0000 C   0  0  0  0  0  0  0  0  0  0  0  0
   -3.8971    4.5000    0.0000 C   0  0  0  0  0  0  0  0  0  0  0  0
    0.0000    3.7500    0.0000 C   0  0  0  0  0  0  0  0  0  0  0  0
   -3.8971    6.0000    0.0000 O   0  0  0  0  0  0  0  0  0  0  0  0
   -0.0000    2.2500    0.0000 O   0  0  0  0  0  0  0  0  0  0  0  0
   -5.1962    3.7500    0.0000 O   0  0  0  0  0  0  0  0  0  0  0  0
    1.2990    4.5000    0.0000 O   0  0  0  0  0  0  0  0  0  0  0  0
  4  3  1  0
  5  3  1  0
  6  4  1  0
  7  5  2  0
  8  6  2  0
  9  1  1  0
  9  5  1  0
 10  2  1  0
 10  6  1  0
M  END
>  <NAME>  (6306) 
BUTANEDIOIC ACID DIMETHYL ESTER

>  <SYNONYMS>  (6306) 
DIMETHYL SUCCINATE

>  <SPECTRUM TYPE>  (6306) 
MS1

>  <INSTRUMENT TYPE>  (6306) 
EI-B

>  <INSTRUMENT>  (6306) 
HITACHI RMU-7M

>  <ION MODE>  (6306) 
P

>  <INCHIKEY>  (6306) 
MUXOBHXGJLMRAB-UHFFFAOYSA-N

>  <FORMULA>  (6306) 
C6H10O4

>  <EXACT MASS>  (6306) 
146.0579088

>  <MW>  (6306) 
146

>  <ID>  (6306) 
JP001829

>  <CONTRIBUTOR>  (6306) 
University of Tokyo Team, {Faculty of Engineering, University of Tokyo

>  <COMMENT>  (6306) 
SMILES=COC(=O)CCC(=O)OC
InChI=InChI=1S/C6H10O4/c1-9-5(7)3-4-6(8)10-2/h3-4H2,1-2H3
computed SMILES=O=C(OC)CCC(=O)OC
accession=JP001829
date=2016.01.19 (Created 2008.10.21, modified 2011.05.06)
author=TAJIMA S, GUNMA COLLEGE OF TECHNOLOGY
license=CC BY-NC-SA
exact mass=146.05791
ionization energy=70 eV
ion type=[M]+*
computed spectral entropy=2.130359275936076
computed normalized entropy=0.7370537267796707
SPLASH=splash10-066r-9700000000-a5816c939f45d0df9f23
submitter=submitter = University of Tokyo Team (Faculty of Engineering, University of Tokyo)
MoNA Rating=3.75

>  <NUM PEAKS>  (6306) 
18

>  <MASS SPECTRAL PEAKS>  (6306) 
15 17.44
26 1.54
27 7.14
28 9.31
29 3.15
31 1.26
41 2.45
42 2.24
43 1.47
45 4.83
55 46.43
56 3.78
57 3.5
59 35.15
87 16.88
114 25.98
115 99.99
116 4.83

$$$$

     RDKit          2D

  8  7  0  0  0  0  0  0  0  0999 V2000
    0.0000    0.0000    0.0000 C   0  0  0  0  0  0  0  0  0  0  0  0
   -2.5981    6.0000    0.0000 C   0  0  0  0  0  0  0  0  0  0  0  0
   -1.2990    2.2500    0.0000 C   0  0  0  0  0  0  0  0  0  0  0  0
   -1.2990    3.7500    0.0000 C   0  0  0  0  0  0  0  0  0  0  0  0
    0.0000    1.5000    0.0000 C   0  0  0  0  0  0  0  0  0  0  0  0
   -2.5981    4.5000    0.0000 C   0  0  0  0  0  0  0  0  0  0  0  0
    1.2990    2.2500    0.0000 O   0  0  0  0  0  0  0  0  0  0  0  0
   -3.8971    3.7500    0.0000 O   0  0  0  0  0  0  0  0  0  0  0  0
  4  3  1  0
  5  1  1  0
  5  3  1  0
  6  2  1  0
  6  4  1  0
  7  5  1  0
  8  6  1  0
M  END
>  <NAME>  (6307) 
2,5-HEXANEDIOL

>  <SYNONYMS>  (6307) 
2,5-DIHYDROXYHEXANE

>  <SPECTRUM TYPE>  (6307) 
MS1

>  <INSTRUMENT TYPE>  (6307) 
EI-B

>  <INSTRUMENT>  (6307) 
HITACHI RMU-7M

>  <ION MODE>  (6307) 
P

>  <INCHIKEY>  (6307) 
OHMBHFSEKCCCBW-UHFFFAOYSA-N

>  <FORMULA>  (6307) 
C6H14O2

>  <EXACT MASS>  (6307) 
118.099379688

>  <MW>  (6307) 
118

>  <ID>  (6307) 
JP001828

>  <CONTRIBUTOR>  (6307) 
University of Tokyo Team, {Faculty of Engineering, University of Tokyo

>  <COMMENT>  (6307) 
SMILES=CC(O)CCC(C)O
InChI=InChI=1S/C6H14O2/c1-5(7)3-4-6(2)8/h5-8H,3-4H2,1-2H3
computed SMILES=OC(C)CCC(O)C
accession=JP001828
date=2016.01.19 (Created 2008.10.21, modified 2011.05.06)
author=TAJIMA S, GUNMA COLLEGE OF TECHNOLOGY
license=CC BY-NC-SA
exact mass=118.09938
ionization energy=70 eV
ion type=[M]+*
computed spectral entropy=2.4418118188957965
computed normalized entropy=0.7683355755583464
SPLASH=splash10-0a4m-9000000000-c341ee689b419a250560
submitter=submitter = University of Tokyo Team (Faculty of Engineering, University of Tokyo)
MoNA Rating=3.75

>  <NUM PEAKS>  (6307) 
24

>  <MASS SPECTRAL PEAKS>  (6307) 
15 2.47
19 2.95
27 8.52
28 7.76
29 15.8
31 3.98
39 4.26
40 2.06
41 48.56
42 3.09
43 38.8
44 4.05
45 75.89
46 1.51
55 12.36
56 99.99
57 19.37
58 18.2
59 2.06
67 10.1
71 1.44
83 1.58
85 36.88
86 1.72

$$$$

     RDKit          2D

  9  8  0  0  0  0  0  0  0  0999 V2000
    1.9486    3.3750    0.0000 C   0  0  0  0  0  0  0  0  0  0  0  0
   -5.8457    3.3750    0.0000 C   0  0  0  0  0  0  0  0  0  0  0  0
   -1.9486    4.1250    0.0000 C   0  0  0  0  0  0  0  0  0  0  0  0
   -0.6495    3.3750    0.0000 C   0  0  0  0  0  0  0  0  0  0  0  0
   -3.2476    3.3750    0.0000 C   0  0  0  0  0  0  0  0  0  0  0  0
   -0.6495    1.8750    0.0000 O   0  0  0  0  0  0  0  0  0  0  0  0
   -3.2476    1.8750    0.0000 O   0  0  0  0  0  0  0  0  0  0  0  0
    0.6495    4.1250    0.0000 O   0  0  0  0  0  0  0  0  0  0  0  0
   -4.5466    4.1250    0.0000 O   0  0  0  0  0  0  0  0  0  0  0  0
  4  3  1  0
  5  3  1  0
  6  4  2  0
  7  5  2  0
  8  1  1  0
  8  4  1  0
  9  2  1  0
  9  5  1  0
M  END
>  <NAME>  (6308) 
PROPANEDIOIC ACID DIMETHYL ESTER

>  <SYNONYMS>  (6308) 
DIMETHYL MALONATE

>  <SPECTRUM TYPE>  (6308) 
MS1

>  <INSTRUMENT TYPE>  (6308) 
EI-B

>  <INSTRUMENT>  (6308) 
HITACHI RMU-7M

>  <ION MODE>  (6308) 
P

>  <INCHIKEY>  (6308) 
BEPAFCGSDWSTEL-UHFFFAOYSA-N

>  <FORMULA>  (6308) 
C5H8O4

>  <EXACT MASS>  (6308) 
132.042258736

>  <MW>  (6308) 
132

>  <ID>  (6308) 
JP001827

>  <CONTRIBUTOR>  (6308) 
University of Tokyo Team, {Faculty of Engineering, University of Tokyo

>  <COMMENT>  (6308) 
SMILES=COC(=O)CC(=O)OC
InChI=InChI=1S/C5H8O4/c1-8-4(6)3-5(7)9-2/h3H2,1-2H3
computed SMILES=O=C(OC)CC(=O)OC
accession=JP001827
date=2016.01.19 (Created 2008.10.21, modified 2011.05.06)
author=TAJIMA S, GUNMA COLLEGE OF TECHNOLOGY
license=CC BY-NC-SA
exact mass=132.04226
ionization energy=70 eV
ion type=[M]+*
computed spectral entropy=2.395670080630873
computed normalized entropy=0.7538167093817243
SPLASH=splash10-0pb9-9300000000-774c5b6ff9660ce1834a
submitter=submitter = University of Tokyo Team (Faculty of Engineering, University of Tokyo)
MoNA Rating=3.75

>  <NUM PEAKS>  (6308) 
24

>  <MASS SPECTRAL PEAKS>  (6308) 
14 2.45
15 17.42
27 3.72
29 25.44
30 1.96
31 5.28
41 5.38
42 39.14
43 25.24
44 2.45
45 11.94
57 35.23
58 5.68
59 99.99
60 2.05
69 8.22
74 28.47
100 4.21
101 99.02
102 4.01
104 2.45
105 1.27
132 1
133 1.86

$$$$

     RDKit          2D

  8  8  0  0  0  0  0  0  0  0999 V2000
    3.5281    0.5404    0.0000 C   0  0  0  0  0  0  0  0  0  0  0  0
   -1.6700   -0.9600    0.0000 C   0  0  0  0  0  0  0  0  0  0  0  0
   -1.6700    0.5400    0.0000 C   0  0  0  0  0  0  0  0  0  0  0  0
   -0.3700   -1.7100    0.0000 C   0  0  0  0  0  0  0  0  0  0  0  0
   -0.3700    1.2900    0.0000 C   0  0  0  0  0  0  0  0  0  0  0  0
    0.9300   -0.9600    0.0000 C   0  0  0  0  0  0  0  0  0  0  0  0
    0.9300    0.5400    0.0000 C   0  0  0  0  0  0  0  0  0  0  0  0
    2.2289    1.2902    0.0000 O   0  0  0  0  0  0  0  0  0  0  0  0
  3  2  2  0
  4  2  1  0
  5  3  1  0
  6  4  2  0
  7  5  2  0
  7  6  1  0
  8  1  1  0
  8  7  1  0
M  END
>  <NAME>  (6309) 
ANISOLE

>  <SYNONYMS>  (6309) 
METHOXYBENZENE

>  <SPECTRUM TYPE>  (6309) 
MS1

>  <INSTRUMENT TYPE>  (6309) 
EI-B

>  <INSTRUMENT>  (6309) 
HITACHI RMU-7M

>  <ION MODE>  (6309) 
P

>  <INCHIKEY>  (6309) 
RDOXTESZEPMUJZ-UHFFFAOYSA-N

>  <FORMULA>  (6309) 
C7H8O

>  <EXACT MASS>  (6309) 
108.057514876

>  <MW>  (6309) 
108

>  <ID>  (6309) 
JP001826

>  <CONTRIBUTOR>  (6309) 
University of Tokyo Team, {Faculty of Engineering, University of Tokyo

>  <COMMENT>  (6309) 
SMILES=COc(c1)cccc1
InChI=InChI=1S/C7H8O/c1-8-7-5-3-2-4-6-7/h2-6H,1H3
computed SMILES=O(C=1C=CC=CC1)C
accession=JP001826
date=2016.01.19 (Created 2008.10.21, modified 2011.05.06)
author=TAJIMA S, GUNMA COLLEGE OF TECHNOLOGY
license=CC BY-NC-SA
exact mass=108.05751
ionization energy=70 eV
ion type=[M]+*
computed spectral entropy=2.354816227061898
computed normalized entropy=0.7227582729920853
SPLASH=splash10-0ar0-9300000000-9d7f6749c18da0bb17a5
submitter=submitter = University of Tokyo Team (Faculty of Engineering, University of Tokyo)
MoNA Rating=3.75

>  <NUM PEAKS>  (6309) 
26

>  <MASS SPECTRAL PEAKS>  (6309) 
15 1.25
27 1.87
28 1.75
37 1.75
38 4.99
39 22.03
50 6.74
51 12.48
52 3.12
53 1.19
62 1.87
63 6.37
64 3.68
65 56.74
66 3.62
74 2.37
77 19.29
78 66.79
79 13.73
80 1.31
92 1.44
93 15.04
94 1.31
107 2.62
108 99.99
109 7.49

$$$$

     RDKit          2D

 10 10  0  0  0  0  0  0  0  0999 V2000
   -3.9008    0.7413    0.0000 C   0  0  0  0  0  0  0  0  0  0  0  0
    0.0072   -1.5063    0.0000 C   0  0  0  0  0  0  0  0  0  0  0  0
    1.3207    0.7186    0.0000 C   0  0  0  0  0  0  0  0  0  0  0  0
   -1.2773   -0.7814    0.0000 C   0  0  0  0  0  0  0  0  0  0  0  0
   -0.0038    1.5127    0.0000 C   0  0  0  0  0  0  0  0  0  0  0  0
    2.6016   -1.5127    0.0000 C   0  0  0  0  0  0  0  0  0  0  0  0
    1.3062   -0.7563    0.0000 C   0  0  0  0  0  0  0  0  0  0  0  0
   -1.3028    0.7627    0.0000 C   0  0  0  0  0  0  0  0  0  0  0  0
    3.9043   -0.7691    0.0000 O   0  0  0  0  0  0  0  0  0  0  0  0
   -2.6080    1.5020    0.0000 O   0  0  0  0  0  0  0  0  0  0  0  0
  4  2  2  0
  5  3  1  0
  7  2  1  0
  7  3  2  0
  7  6  1  0
  8  4  1  0
  8  5  2  0
  9  6  2  0
 10  1  1  0
 10  8  1  0
M  END
>  <NAME>  (6310) 
PARA-ANISALDEHYDE

>  <SYNONYMS>  (6310) 
PARA-METHOXYBENZALDEHYDE

>  <SPECTRUM TYPE>  (6310) 
MS1

>  <INSTRUMENT TYPE>  (6310) 
EI-B

>  <INSTRUMENT>  (6310) 
HITACHI RMU-7M

>  <ION MODE>  (6310) 
P

>  <INCHIKEY>  (6310) 
ZRSNZINYAWTAHE-UHFFFAOYSA-N

>  <FORMULA>  (6310) 
C8H8O2

>  <EXACT MASS>  (6310) 
136.052429496

>  <MW>  (6310) 
136

>  <ID>  (6310) 
JP001825

>  <CONTRIBUTOR>  (6310) 
University of Tokyo Team, {Faculty of Engineering, University of Tokyo

>  <COMMENT>  (6310) 
SMILES=O=Cc(c1)ccc(OC)c1
InChI=InChI=1S/C8H8O2/c1-10-8-4-2-7(6-9)3-5-8/h2-6H,1H3
computed SMILES=O=CC1=CC=C(OC)C=C1
accession=JP001825
date=2016.01.19 (Created 2008.10.21, modified 2011.05.06)
author=TAJIMA S, GUNMA COLLEGE OF TECHNOLOGY
license=CC BY-NC-SA
exact mass=136.05243
ionization energy=70 eV
ion type=[M]+*
computed spectral entropy=2.3073283913193436
computed normalized entropy=0.7000736034962214
SPLASH=splash10-000i-5900000000-e26ac32161d707d4b67d
submitter=submitter = University of Tokyo Team (Faculty of Engineering, University of Tokyo)
MoNA Rating=3.75

>  <NUM PEAKS>  (6310) 
27

>  <MASS SPECTRAL PEAKS>  (6310) 
27 1.13
28 1.58
29 1.41
37 1.13
38 3.44
39 8.07
50 5.64
51 6.77
53 1.41
62 2.26
63 7
64 7.73
65 7.9
74 2.54
75 1.75
76 2.37
77 33.86
78 3.84
79 2.09
92 14.79
93 1.81
105 1.19
107 18.06
108 2.03
135 99.99
136 71.05
137 6.15

$$$$

     RDKit          2D

 10  9  0  0  0  0  0  0  0  0999 V2000
    2.5981    4.5000    0.0000 C   0  0  0  0  0  0  0  0  0  0  0  0
   -7.7942    4.5000    0.0000 C   0  0  0  0  0  0  0  0  0  0  0  0
    1.2990    5.2500    0.0000 C   0  0  0  0  0  0  0  0  0  0  0  0
   -6.4952    5.2500    0.0000 C   0  0  0  0  0  0  0  0  0  0  0  0
    0.0000    4.5000    0.0000 C   0  0  0  0  0  0  0  0  0  0  0  0
   -5.1962    4.5000    0.0000 C   0  0  0  0  0  0  0  0  0  0  0  0
   -1.2990    5.2500    0.0000 C   0  0  0  0  0  0  0  0  0  0  0  0
   -3.8971    5.2500    0.0000 C   0  0  0  0  0  0  0  0  0  0  0  0
   -3.8971    6.7500    0.0000 O   0  0  0  0  0  0  0  0  0  0  0  0
   -2.5981    4.5000    0.0000 O   0  0  0  0  0  0  0  0  0  0  0  0
  3  1  1  0
  4  2  1  0
  5  3  1  0
  6  4  1  0
  7  5  1  0
  8  6  1  0
  9  8  2  0
 10  7  1  0
 10  8  1  0
M  END
>  <NAME>  (6311) 
BUTYL BUTYRATE

>  <SYNONYMS>  (6311) 
BUTYRIC ACID BUTYL ESTER

>  <SPECTRUM TYPE>  (6311) 
MS1

>  <INSTRUMENT TYPE>  (6311) 
EI-B

>  <INSTRUMENT>  (6311) 
HITACHI RMU-7M

>  <ION MODE>  (6311) 
P

>  <INCHIKEY>  (6311) 
XUPYJHCZDLZNFP-UHFFFAOYSA-N

>  <FORMULA>  (6311) 
C8H16O2

>  <EXACT MASS>  (6311) 
144.115029752

>  <MW>  (6311) 
144

>  <ID>  (6311) 
JP001824

>  <CONTRIBUTOR>  (6311) 
University of Tokyo Team, {Faculty of Engineering, University of Tokyo

>  <COMMENT>  (6311) 
SMILES=CCCCOC(=O)CCC
InChI=InChI=1S/C8H16O2/c1-3-5-7-10-8(9)6-4-2/h3-7H2,1-2H3
computed SMILES=O=C(OCCCC)CCC
accession=JP001824
date=2016.01.19 (Created 2008.10.21, modified 2011.05.06)
author=TAJIMA S, GUNMA COLLEGE OF TECHNOLOGY
license=CC BY-NC-SA
exact mass=144.11503
ionization energy=70 eV
ion type=[M]+*
computed spectral entropy=2.461929598852798
computed normalized entropy=0.7746657955706359
SPLASH=splash10-0596-9000000000-d391cfb43ea3b2438e3d
submitter=submitter = University of Tokyo Team (Faculty of Engineering, University of Tokyo)
MoNA Rating=3.75

>  <NUM PEAKS>  (6311) 
24

>  <MASS SPECTRAL PEAKS>  (6311) 
26 1.34
27 17.85
29 23.19
31 2.04
39 12.58
40 2.67
41 60.08
42 11.6
43 99.99
44 4.01
45 2.25
55 12.51
56 70.48
57 22.14
60 12.09
61 2.11
70 1.05
71 81.94
72 3.37
73 6.54
88 3.16
89 35.84
90 1.48
101 4.43

$$$$

     RDKit          2D

 10  9  0  0  0  0  0  0  0  0999 V2000
   -7.4695    3.9375    0.0000 C   0  0  0  0  0  0  0  0  0  0  0  0
    1.6238    3.1875    0.0000 C   0  0  0  0  0  0  0  0  0  0  0  0
   -6.1704    3.1875    0.0000 C   0  0  0  0  0  0  0  0  0  0  0  0
   -4.8714    3.9375    0.0000 C   0  0  0  0  0  0  0  0  0  0  0  0
   -3.5724    3.1875    0.0000 C   0  0  0  0  0  0  0  0  0  0  0  0
    0.3248    3.9375    0.0000 C   0  0  0  0  0  0  0  0  0  0  0  0
   -0.9743    3.1875    0.0000 C   0  0  0  0  0  0  0  0  0  0  0  0
    0.3248    5.4375    0.0000 O   0  0  0  0  0  0  0  0  0  0  0  0
   -0.9743    1.6875    0.0000 O   0  0  0  0  0  0  0  0  0  0  0  0
   -2.2733    3.9375    0.0000 O   0  0  0  0  0  0  0  0  0  0  0  0
  3  1  1  0
  4  3  1  0
  5  4  1  0
  6  2  1  0
  7  6  1  0
  8  6  1  0
  9  7  2  0
 10  5  1  0
 10  7  1  0
M  END
>  <NAME>  (6312) 
LACTIC ACID BUTYL ESTER

>  <SYNONYMS>  (6312) 
BUTYL 2-HYDROXYPROPANOATE

>  <SPECTRUM TYPE>  (6312) 
MS1

>  <INSTRUMENT TYPE>  (6312) 
EI-B

>  <INSTRUMENT>  (6312) 
HITACHI RMU-7M

>  <ION MODE>  (6312) 
P

>  <INCHIKEY>  (6312) 
MRABAEUHTLLEML-UHFFFAOYSA-N

>  <FORMULA>  (6312) 
C7H14O3

>  <EXACT MASS>  (6312) 
146.09429430799997

>  <MW>  (6312) 
146

>  <ID>  (6312) 
JP001823

>  <CONTRIBUTOR>  (6312) 
University of Tokyo Team, {Faculty of Engineering, University of Tokyo

>  <COMMENT>  (6312) 
SMILES=CCCCOC(=O)C(C)O
InChI=InChI=1S/C7H14O3/c1-3-4-5-10-7(9)6(2)8/h6,8H,3-5H2,1-2H3
computed SMILES=O=C(OCCCC)C(O)C
accession=JP001823
date=2016.01.19 (Created 2008.10.21, modified 2011.05.06)
author=TAJIMA S, GUNMA COLLEGE OF TECHNOLOGY
license=CC BY-NC-SA
exact mass=146.09429
ionization energy=70 eV
ion type=[M]+*
computed spectral entropy=2.2055154301842417
computed normalized entropy=0.7244208164987089
SPLASH=splash10-0002-9000000000-e4eacc0f272d55fc90b8
submitter=submitter = University of Tokyo Team (Faculty of Engineering, University of Tokyo)
MoNA Rating=3.75

>  <NUM PEAKS>  (6312) 
21

>  <MASS SPECTRAL PEAKS>  (6312) 
15 1
19 1.64
26 1.37
27 11.03
28 7.02
29 20.51
31 5.93
39 3.65
41 24.07
42 3.46
43 13.22
44 2.73
45 99.99
46 2.01
55 3.28
56 12.94
57 13.04
74 4.83
75 2.64
85 1.82
89 3.37

$$$$

     RDKit          2D

 13 14  0  0  0  0  0  0  0  0999 V2000
    2.5986    1.0700    0.0000 C   0  0  0  0  0  0  0  0  0  0  0  0
   -5.1957    1.0700    0.0000 C   0  0  0  0  0  0  0  0  0  0  0  0
    1.2990    0.3192    0.0000 C   0  0  0  0  0  0  0  0  0  0  0  0
    2.5990    2.5708    0.0000 C   0  0  0  0  0  0  0  0  0  0  0  0
   -5.1962    2.5708    0.0000 C   0  0  0  0  0  0  0  0  0  0  0  0
   -3.8962    0.3192    0.0000 C   0  0  0  0  0  0  0  0  0  0  0  0
    0.0000    1.0692    0.0000 C   0  0  0  0  0  0  0  0  0  0  0  0
    1.3000    3.3208    0.0000 C   0  0  0  0  0  0  0  0  0  0  0  0
   -3.8971    3.3208    0.0000 C   0  0  0  0  0  0  0  0  0  0  0  0
   -2.5971    1.0692    0.0000 C   0  0  0  0  0  0  0  0  0  0  0  0
    0.0005    2.5700    0.0000 C   0  0  0  0  0  0  0  0  0  0  0  0
   -2.5976    2.5700    0.0000 C   0  0  0  0  0  0  0  0  0  0  0  0
   -1.2986    3.3200    0.0000 N   0  0  0  0  0  0  0  0  0  0  0  0
  3  1  1  0
  4  1  1  0
  5  2  1  0
  6  2  1  0
  7  3  1  0
  8  4  1  0
  9  5  1  0
 10  6  1  0
 11  7  1  0
 11  8  1  0
 12  9  1  0
 12 10  1  0
 13 11  1  0
 13 12  1  0
M  END
>  <NAME>  (6313) 
DICYCLOHEXYLAMINE

>  <SYNONYMS>  (6313) 


>  <SPECTRUM TYPE>  (6313) 
MS1

>  <INSTRUMENT TYPE>  (6313) 
EI-B

>  <INSTRUMENT>  (6313) 
HITACHI RMU-7M

>  <ION MODE>  (6313) 
P

>  <INCHIKEY>  (6313) 
XBPCUCUWBYBCDP-UHFFFAOYSA-N

>  <FORMULA>  (6313) 
C12H23N

>  <EXACT MASS>  (6313) 
181.183049736

>  <MW>  (6313) 
181

>  <ID>  (6313) 
JP001822

>  <CONTRIBUTOR>  (6313) 
University of Tokyo Team, {Faculty of Engineering, University of Tokyo

>  <COMMENT>  (6313) 
SMILES=C(C2)CCC(C2)NC(C1)CCCC1
InChI=InChI=1S/C12H23N/c1-3-7-11(8-4-1)13-12-9-5-2-6-10-12/h11-13H,1-10H2
computed SMILES=N(C1CCCCC1)C2CCCCC2
accession=JP001822
date=2016.01.19 (Created 2008.10.21, modified 2011.05.06)
author=TAJIMA S, GUNMA COLLEGE OF TECHNOLOGY
license=CC BY-NC-SA
exact mass=181.18305
ionization energy=70 eV
ion type=[M]+*
computed spectral entropy=2.5168399820892327
computed normalized entropy=0.7262065121742407
SPLASH=splash10-052r-9800000000-b9af93fec53e937dfd80
submitter=submitter = University of Tokyo Team (Faculty of Engineering, University of Tokyo)
MoNA Rating=3.75

>  <NUM PEAKS>  (6313) 
32

>  <MASS SPECTRAL PEAKS>  (6313) 
27 2.46
28 5.25
29 4.12
30 4.12
39 3.32
41 14.83
42 1.99
43 3.92
44 9.44
53 1.99
54 2.39
55 14.69
56 44.22
57 1.86
67 2.46
68 1.99
69 1.2
70 2.66
79 1.06
81 3.06
82 7.98
83 4.39
96 1.4
98 3.99
100 5.32
110 2.33
125 1.06
138 99.99
139 10.31
152 3.06
181 11.64
182 1.53

$$$$

     RDKit          2D

  5  4  0  0  0  0  0  0  0  0999 V2000
   -3.8971    2.2500    0.0000 C   0  0  0  0  0  0  0  0  0  0  0  0
   -2.5981    1.5000    0.0000 C   0  0  0  0  0  0  0  0  0  0  0  0
   -1.2990    2.2500    0.0000 C   0  0  0  0  0  0  0  0  0  0  0  0
    0.0000    1.5000    0.0000 C   0  0  0  0  0  0  0  0  0  0  0  0
    1.2990    2.2500    0.0000 Cl  0  0  0  0  0  0  0  0  0  0  0  0
  2  1  1  0
  3  2  1  0
  4  3  1  0
  5  4  1  0
M  END
>  <NAME>  (6314) 
BUTYL CHLORIDE

>  <SYNONYMS>  (6314) 
1-CHLOROBUTANE

>  <SPECTRUM TYPE>  (6314) 
MS1

>  <INSTRUMENT TYPE>  (6314) 
EI-B

>  <INSTRUMENT>  (6314) 
HITACHI RMU-7M

>  <ION MODE>  (6314) 
P

>  <INCHIKEY>  (6314) 
VFWCMGCRMGJXDK-UHFFFAOYSA-N

>  <FORMULA>  (6314) 
C4H9Cl

>  <EXACT MASS>  (6314) 
92.039277968

>  <MW>  (6314) 
92

>  <ID>  (6314) 
JP001821

>  <CONTRIBUTOR>  (6314) 
University of Tokyo Team, {Faculty of Engineering, University of Tokyo

>  <COMMENT>  (6314) 
SMILES=CCCCCl
InChI=InChI=1S/C4H9Cl/c1-2-3-4-5/h2-4H2,1H3
computed SMILES=ClCCCC
accession=JP001821
date=2016.01.19 (Created 2008.10.21, modified 2011.05.06)
author=TAJIMA S, GUNMA COLLEGE OF TECHNOLOGY
license=CC BY-NC-SA
exact mass=92.03928
ionization energy=70 eV
ion type=[M]+*
computed spectral entropy=2.167227127148032
computed normalized entropy=0.7360407678618512
SPLASH=splash10-0a6u-9000000000-0350104e9b48c471c55a
submitter=submitter = University of Tokyo Team (Faculty of Engineering, University of Tokyo)
MoNA Rating=3.75

>  <NUM PEAKS>  (6314) 
19

>  <MASS SPECTRAL PEAKS>  (6314) 
26 3.46
27 27.85
28 15.23
29 19.54
31 1.23
38 1.38
39 10.69
40 2.31
41 62.46
42 4.92
43 33.23
49 2.38
51 1.54
55 8.15
56 99.99
57 9.92
62 1.62
63 5.85
65 1.62

$$$$

     RDKit          2D

 14 14  0  0  0  0  0  0  0  0999 V2000
   -7.4692    4.2571    0.0000 C   0  0  0  0  0  0  0  0  0  0  0  0
   -6.1702    3.5071    0.0000 C   0  0  0  0  0  0  0  0  0  0  0  0
   -4.8712    4.2571    0.0000 C   0  0  0  0  0  0  0  0  0  0  0  0
    4.2221    2.0071    0.0000 C   0  0  0  0  0  0  0  0  0  0  0  0
    4.2226    3.5079    0.0000 C   0  0  0  0  0  0  0  0  0  0  0  0
    2.9226    1.2563    0.0000 C   0  0  0  0  0  0  0  0  0  0  0  0
   -3.5721    3.5071    0.0000 C   0  0  0  0  0  0  0  0  0  0  0  0
    2.9236    4.2579    0.0000 C   0  0  0  0  0  0  0  0  0  0  0  0
    1.6236    2.0063    0.0000 C   0  0  0  0  0  0  0  0  0  0  0  0
   -2.2731    4.2571    0.0000 C   0  0  0  0  0  0  0  0  0  0  0  0
    1.6240    3.5071    0.0000 C   0  0  0  0  0  0  0  0  0  0  0  0
    0.3250    4.2571    0.0000 C   0  0  0  0  0  0  0  0  0  0  0  0
    0.3250    5.7571    0.0000 O   0  0  0  0  0  0  0  0  0  0  0  0
   -0.9740    3.5071    0.0000 O   0  0  0  0  0  0  0  0  0  0  0  0
  2  1  1  0
  3  2  1  0
  5  4  2  0
  6  4  1  0
  7  3  1  0
  8  5  1  0
  9  6  2  0
 10  7  1  0
 11  8  2  0
 11  9  1  0
 12 11  1  0
 13 12  2  0
 14 10  1  0
 14 12  1  0
M  END
>  <NAME>  (6315) 
PENTYL BENZOATE

>  <SYNONYMS>  (6315) 
BENZOIC ACID PENTYL ESTER

>  <SPECTRUM TYPE>  (6315) 
MS1

>  <INSTRUMENT TYPE>  (6315) 
EI-B

>  <INSTRUMENT>  (6315) 
HITACHI RMU-7M

>  <ION MODE>  (6315) 
P

>  <INCHIKEY>  (6315) 
QKNZNUNCDJZTCH-UHFFFAOYSA-N

>  <FORMULA>  (6315) 
C12H16O2

>  <EXACT MASS>  (6315) 
192.115029752

>  <MW>  (6315) 
192

>  <ID>  (6315) 
JP001820

>  <CONTRIBUTOR>  (6315) 
University of Tokyo Team, {Faculty of Engineering, University of Tokyo

>  <COMMENT>  (6315) 
SMILES=CCCCCOC(=O)c(c1)cccc1
InChI=InChI=1S/C12H16O2/c1-2-3-7-10-14-12(13)11-8-5-4-6-9-11/h4-6,8-9H,2-3,7,10H2,1H3
computed SMILES=O=C(OCCCCC)C=1C=CC=CC1
accession=JP001820
date=2016.01.19 (Created 2008.10.21, modified 2011.05.06)
author=TAJIMA S, GUNMA COLLEGE OF TECHNOLOGY
license=CC BY-NC-SA
exact mass=192.11503
ionization energy=70 eV
ion type=[M]+*
computed spectral entropy=2.429464278409894
computed normalized entropy=0.77482658589117
SPLASH=splash10-05i0-8900000000-2b924112cb980b22a08c
submitter=submitter = University of Tokyo Team (Faculty of Engineering, University of Tokyo)
MoNA Rating=3.75

>  <NUM PEAKS>  (6315) 
23

>  <MASS SPECTRAL PEAKS>  (6315) 
27 3.97
29 4.48
39 4.03
41 9.6
42 15.36
43 6.33
50 4.73
51 20.79
52 1.34
55 20.22
69 4.22
70 36.98
71 2.11
76 3.07
77 63.98
78 5.12
79 10.75
105 99.99
106 8
122 17.79
123 85.41
124 6.4
192 1.09

$$$$

     RDKit          2D

 10  9  0  0  0  0  0  0  0  0999 V2000
    2.5981    4.5000    0.0000 C   0  0  0  0  0  0  0  0  0  0  0  0
   -7.7942    4.5000    0.0000 C   0  0  0  0  0  0  0  0  0  0  0  0
    1.2990    5.2500    0.0000 C   0  0  0  0  0  0  0  0  0  0  0  0
   -6.4952    5.2500    0.0000 C   0  0  0  0  0  0  0  0  0  0  0  0
    0.0000    4.5000    0.0000 C   0  0  0  0  0  0  0  0  0  0  0  0
   -5.1962    4.5000    0.0000 C   0  0  0  0  0  0  0  0  0  0  0  0
   -1.2990    5.2500    0.0000 C   0  0  0  0  0  0  0  0  0  0  0  0
   -3.8971    5.2500    0.0000 C   0  0  0  0  0  0  0  0  0  0  0  0
   -3.8971    6.7500    0.0000 O   0  0  0  0  0  0  0  0  0  0  0  0
   -2.5981    4.5000    0.0000 O   0  0  0  0  0  0  0  0  0  0  0  0
  3  1  1  0
  4  2  1  0
  5  3  1  0
  4  6  2  0
  7  5  1  0
  8  6  1  0
  9  8  2  0
 10  7  1  0
 10  8  1  0
M  END
>  <NAME>  (6316) 
CROTONIC ACID BUTYL ESTER

>  <SYNONYMS>  (6316) 
BUTYL CROTONATE

>  <SPECTRUM TYPE>  (6316) 
MS1

>  <INSTRUMENT TYPE>  (6316) 
EI-B

>  <INSTRUMENT>  (6316) 
HITACHI RMU-7M

>  <ION MODE>  (6316) 
P

>  <INCHIKEY>  (6316) 
GWCTUKHUBWMAMI-GQCTYLIASA-N

>  <FORMULA>  (6316) 
C8H14O2

>  <EXACT MASS>  (6316) 
142.099379688

>  <MW>  (6316) 
142

>  <ID>  (6316) 
JP001819

>  <CONTRIBUTOR>  (6316) 
University of Tokyo Team, {Faculty of Engineering, University of Tokyo

>  <COMMENT>  (6316) 
SMILES=CCCCOC(=O)C([H])=C([H])C
InChI=InChI=1S/C8H14O2/c1-3-5-7-10-8(9)6-4-2/h4,6H,3,5,7H2,1-2H3/b6-4+
computed SMILES=O=C(OCCCC)C=CC
accession=JP001819
date=2016.01.19 (Created 2008.10.21, modified 2011.05.06)
author=TAJIMA S, GUNMA COLLEGE OF TECHNOLOGY
license=CC BY-NC-SA
exact mass=142.09938
ionization energy=70 eV
ion type=[M]+*
computed spectral entropy=2.0033349180977713
computed normalized entropy=0.6687296244003514
SPLASH=splash10-014r-9000000000-11af0d1d0f715709ecf7
submitter=submitter = University of Tokyo Team (Faculty of Engineering, University of Tokyo)
MoNA Rating=3.75

>  <NUM PEAKS>  (6316) 
20

>  <MASS SPECTRAL PEAKS>  (6316) 
27 4.62
28 1.48
29 6.89
39 14.4
40 2.62
41 34.64
42 2.62
43 2.18
45 1
55 5.24
56 17.45
57 3.05
68 1.75
69 99.99
70 4.62
87 43.28
88 1.83
99 1.05
127 1.4
142 0.87

$$$$

     RDKit          2D

  9  9  0  0  0  0  0  0  0  0999 V2000
   -2.9297    0.1864    0.0000 C   0  0  0  0  0  0  0  0  0  0  0  0
    2.2664   -1.3093    0.0000 C   0  0  0  0  0  0  0  0  0  0  0  0
    0.9719   -2.0515    0.0000 C   0  0  0  0  0  0  0  0  0  0  0  0
    2.2669    0.1916    0.0000 C   0  0  0  0  0  0  0  0  0  0  0  0
   -0.3272   -1.3015    0.0000 C   0  0  0  0  0  0  0  0  0  0  0  0
    0.9678    0.9416    0.0000 C   0  0  0  0  0  0  0  0  0  0  0  0
   -0.3317    0.1907    0.0000 C   0  0  0  0  0  0  0  0  0  0  0  0
    0.9676    2.4416    0.0000 N   0  0  0  0  0  0  0  0  0  0  0  0
   -1.6320    0.9385    0.0000 O   0  0  0  0  0  0  0  0  0  0  0  0
  3  2  2  0
  4  2  1  0
  5  3  1  0
  6  4  2  0
  7  5  2  0
  7  6  1  0
  8  6  1  0
  9  1  1  0
  9  7  1  0
M  END
>  <NAME>  (6317) 
ORTHO-ANISIDINE

>  <SYNONYMS>  (6317) 
ORTHO-METHOXYANILINE

>  <SPECTRUM TYPE>  (6317) 
MS1

>  <INSTRUMENT TYPE>  (6317) 
EI-B

>  <INSTRUMENT>  (6317) 
HITACHI RMU-7M

>  <ION MODE>  (6317) 
P

>  <INCHIKEY>  (6317) 
VMPITZXILSNTON-UHFFFAOYSA-N

>  <FORMULA>  (6317) 
C7H9NO

>  <EXACT MASS>  (6317) 
123.068413908

>  <MW>  (6317) 
123

>  <ID>  (6317) 
JP001818

>  <CONTRIBUTOR>  (6317) 
University of Tokyo Team, {Faculty of Engineering, University of Tokyo

>  <COMMENT>  (6317) 
SMILES=COc(c1)c(N)ccc1
InChI=InChI=1S/C7H9NO/c1-9-7-5-3-2-4-6(7)8/h2-5H,8H2,1H3
computed SMILES=O(C=1C=CC=CC1N)C
accession=JP001818
date=2016.01.19 (Created 2008.10.21, modified 2011.05.06)
author=TAJIMA S, GUNMA COLLEGE OF TECHNOLOGY
license=CC BY-NC-SA
exact mass=123.06841
ionization energy=70 eV
ion type=[M]+*
computed spectral entropy=2.484268697457891
computed normalized entropy=0.704485171075439
SPLASH=splash10-0ac0-8900000000-1e225ec069e10e5f0553
submitter=submitter = University of Tokyo Team (Faculty of Engineering, University of Tokyo)
MoNA Rating=3.75

>  <NUM PEAKS>  (6317) 
34

>  <MASS SPECTRAL PEAKS>  (6317) 
15 2.44
26 1.4
27 5.98
28 7.8
29 1.28
37 1.28
38 3.54
38.5 1.1
39 10.3
40 1.22
41 3.11
50 3.66
51 6.71
52 13.6
53 20.67
54 3.66
62 1.46
63 3.66
64 2.32
65 12.8
66 2.5
77 2.13
78 2.5
79 2.13
80 67.56
81 4.57
91 1
92 5.98
93 2.13
94 1.89
108 99.99
109 7.62
123 85.85
124 7.43

$$$$

     RDKit          2D

 12 12  0  0  0  0  0  0  0  0999 V2000
   -4.8712    2.0071    0.0000 C   0  0  0  0  0  0  0  0  0  0  0  0
   -3.5721    4.2571    0.0000 C   0  0  0  0  0  0  0  0  0  0  0  0
    2.9231    0.5071    0.0000 C   0  0  0  0  0  0  0  0  0  0  0  0
    2.9236    2.0079    0.0000 C   0  0  0  0  0  0  0  0  0  0  0  0
    1.6236   -0.2437    0.0000 C   0  0  0  0  0  0  0  0  0  0  0  0
    1.6245    2.7579    0.0000 C   0  0  0  0  0  0  0  0  0  0  0  0
    0.3245    0.5063    0.0000 C   0  0  0  0  0  0  0  0  0  0  0  0
   -2.2731    2.0071    0.0000 C   0  0  0  0  0  0  0  0  0  0  0  0
   -3.5721    2.7571    0.0000 C   0  0  0  0  0  0  0  0  0  0  0  0
    0.3250    2.0071    0.0000 C   0  0  0  0  0  0  0  0  0  0  0  0
   -0.9740    2.7571    0.0000 C   0  0  0  0  0  0  0  0  0  0  0  0
   -0.9740    4.2571    0.0000 O   0  0  0  0  0  0  0  0  0  0  0  0
  4  3  2  0
  5  3  1  0
  6  4  1  0
  7  5  2  0
  9  1  1  0
  9  2  1  0
  9  8  1  0
 10  6  2  0
 10  7  1  0
 11  8  1  0
 11 10  1  0
 12 11  2  0
M  END
>  <NAME>  (6318) 
ISOBUTYL PHENYL KETONE

>  <SYNONYMS>  (6318) 


>  <SPECTRUM TYPE>  (6318) 
MS1

>  <INSTRUMENT TYPE>  (6318) 
EI-B

>  <INSTRUMENT>  (6318) 
HITACHI RMU-7M

>  <ION MODE>  (6318) 
P

>  <INCHIKEY>  (6318) 
HEOVGVNITGAUKL-UHFFFAOYSA-N

>  <FORMULA>  (6318) 
C11H14O

>  <EXACT MASS>  (6318) 
162.104465068

>  <MW>  (6318) 
162

>  <ID>  (6318) 
JP001817

>  <CONTRIBUTOR>  (6318) 
University of Tokyo Team, {Faculty of Engineering, University of Tokyo

>  <COMMENT>  (6318) 
SMILES=CC(C)CC(=O)c(c1)cccc1
InChI=InChI=1S/C11H14O/c1-9(2)8-11(12)10-6-4-3-5-7-10/h3-7,9H,8H2,1-2H3
computed SMILES=O=C(C=1C=CC=CC1)CC(C)C
accession=JP001817
date=2016.01.19 (Created 2008.10.21, modified 2011.05.06)
author=TAJIMA S, GUNMA COLLEGE OF TECHNOLOGY
license=CC BY-NC-SA
exact mass=162.10447
ionization energy=70 eV
ion type=[M]+*
computed spectral entropy=1.982525438523193
computed normalized entropy=0.6733117760465318
SPLASH=splash10-0a4i-5900000000-604a50e6b49857c08c75
submitter=submitter = University of Tokyo Team (Faculty of Engineering, University of Tokyo)
MoNA Rating=3.75

>  <NUM PEAKS>  (6318) 
19

>  <MASS SPECTRAL PEAKS>  (6318) 
28 4.11
30 3.1
39 4.76
43 1.79
50 3.51
51 13.93
52 1.07
57 1.49
69 1.73
77 45.83
78 6.07
91 1.73
105 99.99
106 7.38
120 22.92
121 1.73
147 3.39
162 11.55
163 1.49

$$$$

     RDKit          2D

  7  6  0  0  0  0  0  0  0  0999 V2000
    1.6238    1.6875    0.0000 C   0  0  0  0  0  0  0  0  0  0  0  0
    0.3248    3.9375    0.0000 C   0  0  0  0  0  0  0  0  0  0  0  0
   -3.5724    1.6875    0.0000 C   0  0  0  0  0  0  0  0  0  0  0  0
   -0.9743    1.6875    0.0000 C   0  0  0  0  0  0  0  0  0  0  0  0
    0.3248    2.4375    0.0000 C   0  0  0  0  0  0  0  0  0  0  0  0
   -2.2733    2.4375    0.0000 C   0  0  0  0  0  0  0  0  0  0  0  0
   -2.2733    3.9375    0.0000 O   0  0  0  0  0  0  0  0  0  0  0  0
  5  1  1  0
  5  2  1  0
  5  4  1  0
  6  3  1  0
  6  4  1  0
  7  6  1  0
M  END
>  <NAME>  (6319) 
4-METHYL-2-PENTANOL

>  <SYNONYMS>  (6319) 


>  <SPECTRUM TYPE>  (6319) 
MS1

>  <INSTRUMENT TYPE>  (6319) 
EI-B

>  <INSTRUMENT>  (6319) 
HITACHI RMU-7M

>  <ION MODE>  (6319) 
P

>  <INCHIKEY>  (6319) 
WVYWICLMDOOCFB-UHFFFAOYSA-N

>  <FORMULA>  (6319) 
C6H14O

>  <EXACT MASS>  (6319) 
102.104465068

>  <MW>  (6319) 
102

>  <ID>  (6319) 
JP001816

>  <CONTRIBUTOR>  (6319) 
University of Tokyo Team, {Faculty of Engineering, University of Tokyo

>  <COMMENT>  (6319) 
SMILES=CC(C)CC(C)O
InChI=InChI=1S/C6H14O/c1-5(2)4-6(3)7/h5-7H,4H2,1-3H3
computed SMILES=OC(C)CC(C)C
accession=JP001816
date=2016.01.19 (Created 2008.10.21, modified 2011.05.06)
author=TAJIMA S, GUNMA COLLEGE OF TECHNOLOGY
license=CC BY-NC-SA
exact mass=102.10447
ionization energy=70 eV
ion type=[M]+*
computed spectral entropy=1.997942077234718
computed normalized entropy=0.6912405201083802
SPLASH=splash10-0002-9000000000-249727e6c8ac064ea5fc
submitter=submitter = University of Tokyo Team (Faculty of Engineering, University of Tokyo)
MoNA Rating=3.75

>  <NUM PEAKS>  (6319) 
18

>  <MASS SPECTRAL PEAKS>  (6319) 
15 1.98
19 1.35
27 7.54
29 5.08
31 1.75
39 5.95
41 14.84
42 4.76
43 22.14
44 6.59
45 99.99
46 2.22
55 1.83
56 4.44
57 4.76
69 14.29
84 3.1
87 4.6

$$$$

     RDKit          2D

  6  5  0  0  0  0  0  0  0  0999 V2000
   -0.0000   -0.0000    0.0000 C   0  0  0  0  0  0  0  0  0  0  0  0
    1.2990    2.2500    0.0000 C   0  0  0  0  0  0  0  0  0  0  0  0
   -1.2990    3.7500    0.0000 C   0  0  0  0  0  0  0  0  0  0  0  0
   -0.0000    1.5000    0.0000 C   0  0  0  0  0  0  0  0  0  0  0  0
   -1.2990    2.2500    0.0000 C   0  0  0  0  0  0  0  0  0  0  0  0
   -2.5981    1.5000    0.0000 O   0  0  0  0  0  0  0  0  0  0  0  0
  4  1  1  0
  4  2  1  0
  5  3  1  0
  5  4  1  0
  6  5  1  0
M  END
>  <NAME>  (6320) 
3-METHYL-2-BUTANOL

>  <SYNONYMS>  (6320) 


>  <SPECTRUM TYPE>  (6320) 
MS1

>  <INSTRUMENT TYPE>  (6320) 
EI-B

>  <INSTRUMENT>  (6320) 
HITACHI RMU-7M

>  <ION MODE>  (6320) 
P

>  <INCHIKEY>  (6320) 
MXLMTQWGSQIYOW-UHFFFAOYSA-N

>  <FORMULA>  (6320) 
C5H12O

>  <EXACT MASS>  (6320) 
88.088815004

>  <MW>  (6320) 
88

>  <ID>  (6320) 
JP001815

>  <CONTRIBUTOR>  (6320) 
University of Tokyo Team, {Faculty of Engineering, University of Tokyo

>  <COMMENT>  (6320) 
SMILES=CC(C)C(C)O
InChI=InChI=1S/C5H12O/c1-4(2)5(3)6/h4-6H,1-3H3
computed SMILES=OC(C)C(C)C
accession=JP001815
date=2016.01.19 (Created 2008.10.21, modified 2011.05.06)
author=TAJIMA S, GUNMA COLLEGE OF TECHNOLOGY
license=CC BY-NC-SA
exact mass=88.08882
ionization energy=70 eV
ion type=[M]+*
computed spectral entropy=1.8265896887701552
computed normalized entropy=0.6203523665099883
SPLASH=splash10-0002-9000000000-44d9d7a94ff7c2651021
submitter=submitter = University of Tokyo Team (Faculty of Engineering, University of Tokyo)
MoNA Rating=3.75

>  <NUM PEAKS>  (6320) 
19

>  <MASS SPECTRAL PEAKS>  (6320) 
15 1.03
19 1.27
27 6.22
28 1.15
29 3.26
31 2.11
39 4.23
41 7.55
42 2.17
43 12.44
44 10.75
45 99.99
46 2.17
55 14.86
57 1.09
69 1
71 2.29
73 10.39
88 0.48

$$$$

     RDKit          2D

  6  5  0  0  0  0  0  0  0  0999 V2000
    1.2990    2.2500    0.0000 C   0  0  0  0  0  0  0  0  0  0  0  0
   -3.8971    2.2500    0.0000 C   0  0  0  0  0  0  0  0  0  0  0  0
    0.0000    3.0000    0.0000 C   0  0  0  0  0  0  0  0  0  0  0  0
   -1.2990    2.2500    0.0000 C   0  0  0  0  0  0  0  0  0  0  0  0
   -2.5981    3.0000    0.0000 C   0  0  0  0  0  0  0  0  0  0  0  0
   -2.5981    4.5000    0.0000 O   0  0  0  0  0  0  0  0  0  0  0  0
  3  1  1  0
  4  3  1  0
  5  2  1  0
  5  4  1  0
  6  5  1  0
M  END
>  <NAME>  (6321) 
2-PENTANOL

>  <SYNONYMS>  (6321) 


>  <SPECTRUM TYPE>  (6321) 
MS1

>  <INSTRUMENT TYPE>  (6321) 
EI-B

>  <INSTRUMENT>  (6321) 
HITACHI RMU-7M

>  <ION MODE>  (6321) 
P

>  <INCHIKEY>  (6321) 
JYVLIDXNZAXMDK-UHFFFAOYSA-N

>  <FORMULA>  (6321) 
C5H12O

>  <EXACT MASS>  (6321) 
88.088815004

>  <MW>  (6321) 
88

>  <ID>  (6321) 
JP001814

>  <CONTRIBUTOR>  (6321) 
University of Tokyo Team, {Faculty of Engineering, University of Tokyo

>  <COMMENT>  (6321) 
SMILES=CCCC(C)O
InChI=InChI=1S/C5H12O/c1-3-4-5(2)6/h5-6H,3-4H2,1-2H3
computed SMILES=OC(C)CCC
accession=JP001814
date=2016.01.19 (Created 2008.10.21, modified 2011.05.06)
author=TAJIMA S, GUNMA COLLEGE OF TECHNOLOGY
license=CC BY-NC-SA
exact mass=88.08882
ionization energy=70 eV
ion type=[M]+*
computed spectral entropy=1.8699216071848985
computed normalized entropy=0.6350688944194953
SPLASH=splash10-0002-9000000000-ee11af6c4a561b5c9bbd
submitter=submitter = University of Tokyo Team (Faculty of Engineering, University of Tokyo)
MoNA Rating=3.75

>  <NUM PEAKS>  (6321) 
19

>  <MASS SPECTRAL PEAKS>  (6321) 
19 1.31
27 4.98
28 1.05
29 3.57
31 4.46
39 3.41
41 6.19
42 2.78
43 12.64
44 7.35
45 99.99
46 2.05
55 20.99
56 1.36
57 1.05
59 2.89
70 2.1
71 1.47
73 9.18

$$$$

     RDKit          2D

  6  5  0  0  0  0  0  0  0  0999 V2000
    0.0000    0.0000    0.0000 C   0  0  0  0  0  0  0  0  0  0  0  0
    1.2990    2.2500    0.0000 C   0  0  0  0  0  0  0  0  0  0  0  0
   -1.2990    2.2500    0.0000 C   0  0  0  0  0  0  0  0  0  0  0  0
   -1.2990    3.7500    0.0000 C   0  0  0  0  0  0  0  0  0  0  0  0
    0.0000    1.5000    0.0000 C   0  0  0  0  0  0  0  0  0  0  0  0
   -2.5981    4.5000    0.0000 O   0  0  0  0  0  0  0  0  0  0  0  0
  4  3  1  0
  5  1  1  0
  5  2  1  0
  5  3  1  0
  6  4  1  0
M  END
>  <NAME>  (6322) 
3-METHYL-1-BUTANOL

>  <SYNONYMS>  (6322) 
ISOPENTYL ALCOHOL

>  <SPECTRUM TYPE>  (6322) 
MS1

>  <INSTRUMENT TYPE>  (6322) 
EI-B

>  <INSTRUMENT>  (6322) 
HITACHI RMU-7M

>  <ION MODE>  (6322) 
P

>  <INCHIKEY>  (6322) 
PHTQWCKDNZKARW-UHFFFAOYSA-N

>  <FORMULA>  (6322) 
C5H12O

>  <EXACT MASS>  (6322) 
88.088815004

>  <MW>  (6322) 
88

>  <ID>  (6322) 
JP001813

>  <CONTRIBUTOR>  (6322) 
University of Tokyo Team, {Faculty of Engineering, University of Tokyo

>  <COMMENT>  (6322) 
SMILES=OCCC(C)C
InChI=InChI=1S/C5H12O/c1-5(2)3-4-6/h5-6H,3-4H2,1-2H3
computed SMILES=OCCC(C)C
accession=JP001813
date=2016.01.19 (Created 2008.10.21, modified 2011.05.06)
author=TAJIMA S, GUNMA COLLEGE OF TECHNOLOGY
license=CC BY-NC-SA
exact mass=88.08882
ionization energy=70 eV
ion type=[M]+*
computed spectral entropy=2.571344523642307
computed normalized entropy=0.8318696887674984
SPLASH=splash10-052f-9000000000-8f690089412de62c1345
submitter=submitter = University of Tokyo Team (Faculty of Engineering, University of Tokyo)
MoNA Rating=3.75

>  <NUM PEAKS>  (6322) 
22

>  <MASS SPECTRAL PEAKS>  (6322) 
15 1.12
19 1.23
27 20.33
28 10.01
29 40.65
31 32.79
39 18.39
40 2.96
41 72.83
42 80.59
43 64.35
44 3.98
45 16.14
46 6.64
53 2.66
55 99.99
56 35.75
57 52.6
58 2.35
69 5.11
70 74.16
71 6.74

$$$$

     RDKit          2D

  6  5  0  0  0  0  0  0  0  0999 V2000
   -0.0000   -0.0000    0.0000 C   0  0  0  0  0  0  0  0  0  0  0  0
   -1.2990    3.7500    0.0000 C   0  0  0  0  0  0  0  0  0  0  0  0
   -2.5981    1.5000    0.0000 C   0  0  0  0  0  0  0  0  0  0  0  0
   -0.0000    1.5000    0.0000 C   0  0  0  0  0  0  0  0  0  0  0  0
   -1.2990    2.2500    0.0000 N   0  0  0  0  0  0  0  0  0  0  0  0
    1.2990    2.2500    0.0000 O   0  0  0  0  0  0  0  0  0  0  0  0
  4  1  1  0
  5  2  1  0
  5  3  1  0
  5  4  1  0
  6  4  2  0
M  END
>  <NAME>  (6323) 
N,N-DIMETHYLACETAMIDE

>  <SYNONYMS>  (6323) 


>  <SPECTRUM TYPE>  (6323) 
MS1

>  <INSTRUMENT TYPE>  (6323) 
EI-B

>  <INSTRUMENT>  (6323) 
HITACHI RMU-7M

>  <ION MODE>  (6323) 
P

>  <INCHIKEY>  (6323) 
FXHOOIRPVKKKFG-UHFFFAOYSA-N

>  <FORMULA>  (6323) 
C4H9NO

>  <EXACT MASS>  (6323) 
87.068413908

>  <MW>  (6323) 
87

>  <ID>  (6323) 
JP001812

>  <CONTRIBUTOR>  (6323) 
University of Tokyo Team, {Faculty of Engineering, University of Tokyo

>  <COMMENT>  (6323) 
SMILES=CN(C)C(C)=O
InChI=InChI=1S/C4H9NO/c1-4(6)5(2)3/h1-3H3
computed SMILES=O=C(N(C)C)C
accession=JP001812
date=2016.01.19 (Created 2008.10.21, modified 2011.05.06)
author=TAJIMA S, GUNMA COLLEGE OF TECHNOLOGY
license=CC BY-NC-SA
exact mass=87.06841
ionization energy=70 eV
ion type=[M]+*
computed spectral entropy=1.9165194767120628
computed normalized entropy=0.7471958349340636
SPLASH=splash10-0006-9000000000-340f7e8d45f1b9d72a18
submitter=submitter = University of Tokyo Team (Faculty of Engineering, University of Tokyo)
MoNA Rating=3.75

>  <NUM PEAKS>  (6323) 
13

>  <MASS SPECTRAL PEAKS>  (6323) 
15 6.89
18 2.92
28 3.21
30 7.36
41 1.98
42 18.77
43 40.19
44 99.99
45 21.13
56 1.23
72 15.66
87 58.02
88 4.72

$$$$

     RDKit          2D

  7  7  0  0  0  0  0  0  0  0999 V2000
   -1.6700   -0.9600    0.0000 C   0  0  0  0  0  0  0  0  0  0  0  0
   -1.6700    0.5400    0.0000 C   0  0  0  0  0  0  0  0  0  0  0  0
   -0.3700   -1.7100    0.0000 C   0  0  0  0  0  0  0  0  0  0  0  0
   -0.3700    1.2900    0.0000 C   0  0  0  0  0  0  0  0  0  0  0  0
    0.9300   -0.9600    0.0000 C   0  0  0  0  0  0  0  0  0  0  0  0
    0.9300    0.5400    0.0000 C   0  0  0  0  0  0  0  0  0  0  0  0
    2.2289    1.2902    0.0000 O   0  0  0  0  0  0  0  0  0  0  0  0
  2  1  1  0
  3  1  1  0
  4  2  1  0
  5  3  1  0
  6  4  1  0
  6  5  1  0
  7  6  1  0
M  END
>  <NAME>  (6324) 
CYCLOHEXANOL

>  <SYNONYMS>  (6324) 
CYCLOHEXYL ALCOHOL

>  <SPECTRUM TYPE>  (6324) 
MS1

>  <INSTRUMENT TYPE>  (6324) 
EI-B

>  <INSTRUMENT>  (6324) 
HITACHI RMU-7M

>  <ION MODE>  (6324) 
P

>  <INCHIKEY>  (6324) 
HPXRVTGHNJAIIH-UHFFFAOYSA-N

>  <FORMULA>  (6324) 
C6H12O

>  <EXACT MASS>  (6324) 
100.088815004

>  <MW>  (6324) 
100

>  <ID>  (6324) 
JP001811

>  <CONTRIBUTOR>  (6324) 
University of Tokyo Team, {Faculty of Engineering, University of Tokyo

>  <COMMENT>  (6324) 
SMILES=OC(C1)CCCC1
InChI=InChI=1S/C6H12O/c7-6-4-2-1-3-5-6/h6-7H,1-5H2
computed SMILES=OC1CCCCC1
accession=JP001811
date=2016.01.19 (Created 2008.10.21, modified 2011.05.06)
author=TAJIMA S, GUNMA COLLEGE OF TECHNOLOGY
license=CC BY-NC-SA
exact mass=100.08882
ionization energy=70 eV
ion type=[M]+*
computed spectral entropy=2.6982461527755324
computed normalized entropy=0.7933224244271607
SPLASH=splash10-0a4i-9000000000-6f29b4ae6194ec13d2c2
submitter=submitter = University of Tokyo Team (Faculty of Engineering, University of Tokyo)
MoNA Rating=3.75

>  <NUM PEAKS>  (6324) 
30

>  <MASS SPECTRAL PEAKS>  (6324) 
27 8.91
28 3.24
29 9.88
31 4.78
39 9.96
40 1.62
41 20.65
42 7.29
43 10.12
44 22.27
45 3.24
51 1.3
53 3.16
54 10.36
55 9.39
56 12.96
57 99.99
58 7.94
67 24.94
68 1.54
69 1.78
70 1.21
71 13.12
72 6.8
79 1.3
81 4.53
82 46.96
83 4.29
99 1.05
100 2.43

$$$$

     RDKit          2D

  6  5  0  0  0  0  0  0  0  0999 V2000
    1.2990    2.2500    0.0000 C   0  0  0  0  0  0  0  0  0  0  0  0
    0.0000    3.0000    0.0000 C   0  0  0  0  0  0  0  0  0  0  0  0
   -2.5981    3.0000    0.0000 C   0  0  0  0  0  0  0  0  0  0  0  0
   -1.2990    2.2500    0.0000 C   0  0  0  0  0  0  0  0  0  0  0  0
   -3.8971    2.2500    0.0000 O   0  0  0  0  0  0  0  0  0  0  0  0
   -1.2990    0.7500    0.0000 O   0  0  0  0  0  0  0  0  0  0  0  0
  2  1  1  0
  4  2  1  0
  4  3  1  0
  5  3  1  0
  6  4  1  0
M  END
>  <NAME>  (6325) 
1,2-DIHYDROXYLBUTANE

>  <SYNONYMS>  (6325) 
1,2-BUTANEDIOL

>  <SPECTRUM TYPE>  (6325) 
MS1

>  <INSTRUMENT TYPE>  (6325) 
EI-B

>  <INSTRUMENT>  (6325) 
HITACHI RMU-7M

>  <ION MODE>  (6325) 
P

>  <INCHIKEY>  (6325) 
BMRWNKZVCUKKSR-UHFFFAOYSA-N

>  <FORMULA>  (6325) 
C4H10O2

>  <EXACT MASS>  (6325) 
90.06807956

>  <MW>  (6325) 
90

>  <ID>  (6325) 
JP001810

>  <CONTRIBUTOR>  (6325) 
University of Tokyo Team, {Faculty of Engineering, University of Tokyo

>  <COMMENT>  (6325) 
SMILES=CCC(O)CO
InChI=InChI=1S/C4H10O2/c1-2-4(6)3-5/h4-6H,2-3H2,1H3
computed SMILES=OCC(O)CC
accession=JP001810
date=2016.01.19 (Created 2008.10.21, modified 2011.05.06)
author=TAJIMA S, GUNMA COLLEGE OF TECHNOLOGY
license=CC BY-NC-SA
exact mass=90.06808
ionization energy=70 eV
ion type=[M]+*
computed spectral entropy=2.202067301890219
computed normalized entropy=0.6928980500148193
SPLASH=splash10-0a59-9000000000-2535214e40df35508a77
submitter=submitter = University of Tokyo Team (Faculty of Engineering, University of Tokyo)
MoNA Rating=3.75

>  <NUM PEAKS>  (6325) 
24

>  <MASS SPECTRAL PEAKS>  (6325) 
15 4.46
18 1.28
19 1
26 1.15
27 7.72
28 2.23
29 9.69
30 1
31 61.42
32 1.02
33 1.08
39 4.15
41 27.17
42 3.25
43 20.41
44 2.1
45 1.21
55 3.64
57 4.78
58 9.76
59 99.99
60 3.89
61 20.41
73 1.47

$$$$

     RDKit          2D

  6  6  0  0  0  0  0  0  0  0999 V2000
   -1.1900   -1.1800    0.0000 C   0  0  0  0  0  0  0  0  0  0  0  0
    0.3100   -1.1800    0.0000 C   0  0  0  0  0  0  0  0  0  0  0  0
   -1.6500    0.2500    0.0000 C   0  0  0  0  0  0  0  0  0  0  0  0
    0.7700    0.2500    0.0000 C   0  0  0  0  0  0  0  0  0  0  0  0
    2.1960    0.7153    0.0000 O   0  0  0  0  0  0  0  0  0  0  0  0
   -0.4400    1.1300    0.0000 O   0  0  0  0  0  0  0  0  0  0  0  0
  2  1  1  0
  3  1  1  0
  4  2  1  0
  5  4  2  0
  6  3  1  0
  6  4  1  0
M  END
>  <NAME>  (6326) 
4-BUTANOLIDE

>  <SYNONYMS>  (6326) 
GAMMA-BUTYROLACTONE

>  <SPECTRUM TYPE>  (6326) 
MS1

>  <INSTRUMENT TYPE>  (6326) 
EI-B

>  <INSTRUMENT>  (6326) 
HITACHI RMU-7M

>  <ION MODE>  (6326) 
P

>  <INCHIKEY>  (6326) 
YEJRWHAVMIAJKC-UHFFFAOYSA-N

>  <FORMULA>  (6326) 
C4H6O2

>  <EXACT MASS>  (6326) 
86.036779432

>  <MW>  (6326) 
86

>  <ID>  (6326) 
JP001809

>  <CONTRIBUTOR>  (6326) 
University of Tokyo Team, {Faculty of Engineering, University of Tokyo

>  <COMMENT>  (6326) 
SMILES=O=C(C1)OCC1
InChI=InChI=1S/C4H6O2/c5-4-2-1-3-6-4/h1-3H2
computed SMILES=O=C1OCCC1
accession=JP001809
date=2016.01.19 (Created 2008.10.21, modified 2011.05.06)
author=TAJIMA S, GUNMA COLLEGE OF TECHNOLOGY
license=CC BY-NC-SA
exact mass=86.03678
ionization energy=70 eV
ion type=[M]+*
computed spectral entropy=2.448232889889991
computed normalized entropy=0.770356016789668
SPLASH=splash10-004l-9000000000-500445dc73cb69119e6b
submitter=submitter = University of Tokyo Team (Faculty of Engineering, University of Tokyo)
MoNA Rating=3.75

>  <NUM PEAKS>  (6326) 
24

>  <MASS SPECTRAL PEAKS>  (6326) 
14 2.72
15 2.65
18 2.87
25 1.29
26 11.25
27 29.37
28 99.99
29 44.56
30 2.15
31 2.72
37 1.93
38 2.72
39 8.74
40 7.81
41 32.09
42 92.26
43 5.66
44 1.15
55 7.95
56 31.38
57 6.45
85 11.39
86 36.6
87 5.16

$$$$

     RDKit          2D

 10  9  0  0  0  0  0  0  0  0999 V2000
    2.2733    2.8125    0.0000 C   0  0  0  0  0  0  0  0  0  0  0  0
    0.9743    5.0625    0.0000 C   0  0  0  0  0  0  0  0  0  0  0  0
   -5.5209    2.8125    0.0000 C   0  0  0  0  0  0  0  0  0  0  0  0
   -4.2219    5.0625    0.0000 C   0  0  0  0  0  0  0  0  0  0  0  0
   -0.3248    2.8125    0.0000 C   0  0  0  0  0  0  0  0  0  0  0  0
   -2.9228    2.8125    0.0000 C   0  0  0  0  0  0  0  0  0  0  0  0
    0.9743    3.5625    0.0000 C   0  0  0  0  0  0  0  0  0  0  0  0
   -4.2219    3.5625    0.0000 C   0  0  0  0  0  0  0  0  0  0  0  0
   -1.6238    3.5625    0.0000 C   0  0  0  0  0  0  0  0  0  0  0  0
   -1.6238    5.0625    0.0000 O   0  0  0  0  0  0  0  0  0  0  0  0
  7  1  1  0
  7  2  1  0
  7  5  1  0
  8  3  1  0
  8  4  1  0
  8  6  1  0
  9  5  1  0
  9  6  1  0
 10  9  2  0
M  END
>  <NAME>  (6327) 
DIISOBUTYL KETONE

>  <SYNONYMS>  (6327) 
2,6-DIMETHYL-4-HEPTANONE

>  <SPECTRUM TYPE>  (6327) 
MS1

>  <INSTRUMENT TYPE>  (6327) 
EI-B

>  <INSTRUMENT>  (6327) 
HITACHI RMU-7M

>  <ION MODE>  (6327) 
P

>  <INCHIKEY>  (6327) 
PTTPXKJBFFKCEK-UHFFFAOYSA-N

>  <FORMULA>  (6327) 
C9H18O

>  <EXACT MASS>  (6327) 
142.135765196

>  <MW>  (6327) 
142

>  <ID>  (6327) 
JP001808

>  <CONTRIBUTOR>  (6327) 
University of Tokyo Team, {Faculty of Engineering, University of Tokyo

>  <COMMENT>  (6327) 
SMILES=CC(C)CC(=O)CC(C)C
InChI=InChI=1S/C9H18O/c1-7(2)5-9(10)6-8(3)4/h7-8H,5-6H2,1-4H3
computed SMILES=O=C(CC(C)C)CC(C)C
accession=JP001808
date=2016.01.19 (Created 2008.10.21, modified 2011.05.06)
author=TAJIMA S, GUNMA COLLEGE OF TECHNOLOGY
license=CC BY-NC-SA
exact mass=142.13577
ionization energy=70 eV
ion type=[M]+*
computed spectral entropy=2.2784178150839627
computed normalized entropy=0.7169223483022352
SPLASH=splash10-0a4r-9000000000-9382d11942152900dc11
submitter=submitter = University of Tokyo Team (Faculty of Engineering, University of Tokyo)
MoNA Rating=3.75

>  <NUM PEAKS>  (6327) 
24

>  <MASS SPECTRAL PEAKS>  (6327) 
15 1.38
27 9.44
28 1.6
29 15.98
39 9.15
40 1.6
41 33.12
42 5.08
43 20.48
55 2.47
56 2.11
57 99.99
58 25.27
59 2.32
67 1.45
69 4.5
71 1.45
84 1.96
85 70.88
86 3.63
100 2.9
127 3.63
142 8.71
143 1.53

$$$$

     RDKit          2D

  8  7  0  0  0  0  0  0  0  0999 V2000
    0.0000    0.0000    0.0000 C   0  0  0  0  0  0  0  0  0  0  0  0
    1.2990    2.2500    0.0000 C   0  0  0  0  0  0  0  0  0  0  0  0
   -2.5981    6.0000    0.0000 C   0  0  0  0  0  0  0  0  0  0  0  0
   -1.2990    2.2500    0.0000 C   0  0  0  0  0  0  0  0  0  0  0  0
   -1.2990    3.7500    0.0000 C   0  0  0  0  0  0  0  0  0  0  0  0
    0.0000    1.5000    0.0000 C   0  0  0  0  0  0  0  0  0  0  0  0
   -2.5981    4.5000    0.0000 C   0  0  0  0  0  0  0  0  0  0  0  0
   -3.8971    3.7500    0.0000 O   0  0  0  0  0  0  0  0  0  0  0  0
  5  4  1  0
  6  1  1  0
  6  2  1  0
  6  4  1  0
  7  3  1  0
  7  5  1  0
  8  7  2  0
M  END
>  <NAME>  (6328) 
ISOPENTYL METHYL KETONE

>  <SYNONYMS>  (6328) 
5-METHYL-2-HEXANONE

>  <SPECTRUM TYPE>  (6328) 
MS1

>  <INSTRUMENT TYPE>  (6328) 
EI-B

>  <INSTRUMENT>  (6328) 
HITACHI RMU-7M

>  <ION MODE>  (6328) 
P

>  <INCHIKEY>  (6328) 
FFWSICBKRCICMR-UHFFFAOYSA-N

>  <FORMULA>  (6328) 
C7H14O

>  <EXACT MASS>  (6328) 
114.104465068

>  <MW>  (6328) 
114

>  <ID>  (6328) 
JP001807

>  <CONTRIBUTOR>  (6328) 
University of Tokyo Team, {Faculty of Engineering, University of Tokyo

>  <COMMENT>  (6328) 
SMILES=CC(C)CCC(C)=O
InChI=InChI=1S/C7H14O/c1-6(2)4-5-7(3)8/h6H,4-5H2,1-3H3
computed SMILES=O=C(C)CCC(C)C
accession=JP001807
date=2016.01.19 (Created 2008.10.21, modified 2011.05.06)
author=TAJIMA S, GUNMA COLLEGE OF TECHNOLOGY
license=CC BY-NC-SA
exact mass=114.10447
ionization energy=70 eV
ion type=[M]+*
computed spectral entropy=2.1200693445596253
computed normalized entropy=0.6858751947118162
SPLASH=splash10-052f-9000000000-dbf6e4e2149ba1271e57
submitter=submitter = University of Tokyo Team (Faculty of Engineering, University of Tokyo)
MoNA Rating=3.75

>  <NUM PEAKS>  (6328) 
22

>  <MASS SPECTRAL PEAKS>  (6328) 
15 3.25
27 6.24
28 1.9
29 5.52
39 4.88
41 10.85
42 2.53
43 99.99
44 2.26
55 3.62
56 3.16
57 13.74
58 42.5
59 11.03
71 9.86
72 2.71
81 4.34
85 1.81
86 1.18
99 1.08
114 2.53
115 1.18

$$$$

     RDKit          2D

  6  5  0  0  0  0  0  0  0  0999 V2000
    1.2990    2.2500    0.0000 C   0  0  0  0  0  0  0  0  0  0  0  0
   -3.8971    2.2500    0.0000 C   0  0  0  0  0  0  0  0  0  0  0  0
    0.0000    3.0000    0.0000 C   0  0  0  0  0  0  0  0  0  0  0  0
   -2.5981    3.0000    0.0000 C   0  0  0  0  0  0  0  0  0  0  0  0
   -1.2990    2.2500    0.0000 C   0  0  0  0  0  0  0  0  0  0  0  0
   -1.2990    0.7500    0.0000 O   0  0  0  0  0  0  0  0  0  0  0  0
  3  1  1  0
  4  2  1  0
  5  3  1  0
  5  4  1  0
  6  5  2  0
M  END
>  <NAME>  (6329) 
DIETHYL KETONE

>  <SYNONYMS>  (6329) 
3-PENTANONE

>  <SPECTRUM TYPE>  (6329) 
MS1

>  <INSTRUMENT TYPE>  (6329) 
EI-B

>  <INSTRUMENT>  (6329) 
HITACHI RMU-7M

>  <ION MODE>  (6329) 
P

>  <INCHIKEY>  (6329) 
FDPIMTJIUBPUKL-UHFFFAOYSA-N

>  <FORMULA>  (6329) 
C5H10O

>  <EXACT MASS>  (6329) 
86.07316494

>  <MW>  (6329) 
86

>  <ID>  (6329) 
JP001806

>  <CONTRIBUTOR>  (6329) 
University of Tokyo Team, {Faculty of Engineering, University of Tokyo

>  <COMMENT>  (6329) 
SMILES=CCC(=O)CC
InChI=InChI=1S/C5H10O/c1-3-5(6)4-2/h3-4H2,1-2H3
computed SMILES=O=C(CC)CC
accession=JP001806
date=2016.01.19 (Created 2008.10.21, modified 2011.05.06)
author=TAJIMA S, GUNMA COLLEGE OF TECHNOLOGY
license=CC BY-NC-SA
exact mass=86.07316
ionization energy=70 eV
ion type=[M]+*
computed spectral entropy=1.706800392320901
computed normalized entropy=0.6024256506844389
SPLASH=splash10-0a6r-9000000000-c1a7a86d837131566f02
submitter=submitter = University of Tokyo Team (Faculty of Engineering, University of Tokyo)
MoNA Rating=3.75

>  <NUM PEAKS>  (6329) 
17

>  <MASS SPECTRAL PEAKS>  (6329) 
15 1.28
26 3.55
27 17.83
28 6.89
29 81.75
30 2.06
39 1.78
41 1.92
42 1.99
43 3.05
53 1.07
55 1.35
56 4.9
57 99.99
58 3.13
86 16.26
87 1.85

$$$$

     RDKit          2D

  7  7  0  0  0  0  0  0  0  0999 V2000
   -1.6700   -0.9600    0.0000 C   0  0  0  0  0  0  0  0  0  0  0  0
   -1.6700    0.5400    0.0000 C   0  0  0  0  0  0  0  0  0  0  0  0
   -0.3700   -1.7100    0.0000 C   0  0  0  0  0  0  0  0  0  0  0  0
   -0.3700    1.2900    0.0000 C   0  0  0  0  0  0  0  0  0  0  0  0
    0.9300   -0.9600    0.0000 C   0  0  0  0  0  0  0  0  0  0  0  0
    0.9300    0.5400    0.0000 C   0  0  0  0  0  0  0  0  0  0  0  0
    2.2289    1.2902    0.0000 O   0  0  0  0  0  0  0  0  0  0  0  0
  2  1  1  0
  3  1  1  0
  4  2  1  0
  5  3  1  0
  6  4  1  0
  6  5  1  0
  7  6  2  0
M  END
>  <NAME>  (6330) 
CYCLOHEXANONE

>  <SYNONYMS>  (6330) 


>  <SPECTRUM TYPE>  (6330) 
MS1

>  <INSTRUMENT TYPE>  (6330) 
EI-B

>  <INSTRUMENT>  (6330) 
HITACHI RMU-7M

>  <ION MODE>  (6330) 
P

>  <INCHIKEY>  (6330) 
JHIVVAPYMSGYDF-UHFFFAOYSA-N

>  <FORMULA>  (6330) 
C6H10O

>  <EXACT MASS>  (6330) 
98.07316494

>  <MW>  (6330) 
98

>  <ID>  (6330) 
JP001805

>  <CONTRIBUTOR>  (6330) 
University of Tokyo Team, {Faculty of Engineering, University of Tokyo

>  <COMMENT>  (6330) 
SMILES=O=C(C1)CCCC1
InChI=InChI=1S/C6H10O/c7-6-4-2-1-3-5-6/h1-5H2
computed SMILES=O=C1CCCCC1
accession=JP001805
date=2016.01.19 (Created 2008.10.21, modified 2011.05.06)
author=TAJIMA S, GUNMA COLLEGE OF TECHNOLOGY
license=CC BY-NC-SA
exact mass=98.07316
ionization energy=70 eV
ion type=[M]+*
computed spectral entropy=2.5541048125923886
computed normalized entropy=0.7749487964459931
SPLASH=splash10-0a4l-9000000000-ef33444a3514a2701f27
submitter=submitter = University of Tokyo Team (Faculty of Engineering, University of Tokyo)
MoNA Rating=3.75

>  <NUM PEAKS>  (6330) 
27

>  <MASS SPECTRAL PEAKS>  (6330) 
15 1.55
18 1.4
26 2.95
27 17.55
28 10.25
29 6.6
38 1.94
39 18.87
40 5.12
41 31.21
42 67.47
43 11.02
50 1.16
51 1.48
53 2.33
54 7.38
55 99.99
56 11.34
57 1.55
69 25.93
70 19.72
71 1.55
80 4.11
83 7.38
97 1.71
98 32.84
99 3.03

$$$$

     RDKit          2D

  7  6  0  0  0  0  0  0  0  0999 V2000
    1.6238    3.1875    0.0000 C   0  0  0  0  0  0  0  0  0  0  0  0
   -4.8714    3.9375    0.0000 C   0  0  0  0  0  0  0  0  0  0  0  0
    0.3248    3.9375    0.0000 C   0  0  0  0  0  0  0  0  0  0  0  0
   -0.9743    3.1875    0.0000 C   0  0  0  0  0  0  0  0  0  0  0  0
   -2.2733    3.9375    0.0000 C   0  0  0  0  0  0  0  0  0  0  0  0
   -3.5724    3.1875    0.0000 C   0  0  0  0  0  0  0  0  0  0  0  0
   -3.5724    1.6875    0.0000 O   0  0  0  0  0  0  0  0  0  0  0  0
  3  1  1  0
  4  3  1  0
  5  4  1  0
  6  2  1  0
  6  5  1  0
  7  6  2  0
M  END
>  <NAME>  (6331) 
BUTYL METHYL KETONE

>  <SYNONYMS>  (6331) 
2-HEXANONE

>  <SPECTRUM TYPE>  (6331) 
MS1

>  <INSTRUMENT TYPE>  (6331) 
EI-B

>  <INSTRUMENT>  (6331) 
HITACHI RMU-7M

>  <ION MODE>  (6331) 
P

>  <INCHIKEY>  (6331) 
QQZOPKMRPOGIEB-UHFFFAOYSA-N

>  <FORMULA>  (6331) 
C6H12O

>  <EXACT MASS>  (6331) 
100.088815004

>  <MW>  (6331) 
100

>  <ID>  (6331) 
JP001804

>  <CONTRIBUTOR>  (6331) 
University of Tokyo Team, {Faculty of Engineering, University of Tokyo

>  <COMMENT>  (6331) 
SMILES=CCCCC(C)=O
InChI=InChI=1S/C6H12O/c1-3-4-5-6(2)7/h3-5H2,1-2H3
computed SMILES=O=C(C)CCCC
accession=JP001804
date=2016.01.19 (Created 2008.10.21, modified 2011.05.06)
author=TAJIMA S, GUNMA COLLEGE OF TECHNOLOGY
license=CC BY-NC-SA
exact mass=100.08882
ionization energy=70 eV
ion type=[M]+*
computed spectral entropy=2.1041486997283236
computed normalized entropy=0.7146178659555718
SPLASH=splash10-052f-9000000000-c9c9e98957d1fde0dce7
submitter=submitter = University of Tokyo Team (Faculty of Engineering, University of Tokyo)
MoNA Rating=3.75

>  <NUM PEAKS>  (6331) 
19

>  <MASS SPECTRAL PEAKS>  (6331) 
15 4.66
26 1.18
27 8.46
28 2.49
29 16.46
39 5.77
41 15.67
42 3.67
43 99.99
44 2.23
55 1.57
57 17.25
58 49.31
59 2.69
71 5.18
72 1.25
85 7.41
100 9.11
101 2.56

$$$$

     RDKit          2D

  5  4  0  0  0  0  0  0  0  0999 V2000
   -0.0000   -0.0000    0.0000 C   0  0  0  0  0  0  0  0  0  0  0  0
   -1.2990    3.7500    0.0000 C   0  0  0  0  0  0  0  0  0  0  0  0
    0.0000    1.5000    0.0000 C   0  0  0  0  0  0  0  0  0  0  0  0
   -1.2990    2.2500    0.0000 C   0  0  0  0  0  0  0  0  0  0  0  0
   -2.5981    1.5000    0.0000 O   0  0  0  0  0  0  0  0  0  0  0  0
  3  1  1  0
  4  2  1  0
  4  3  1  0
  5  4  2  0
M  END
>  <NAME>  (6332) 
ETHYL METHYL KETONE

>  <SYNONYMS>  (6332) 
2-BUTANONE

>  <SPECTRUM TYPE>  (6332) 
MS1

>  <INSTRUMENT TYPE>  (6332) 
EI-B

>  <INSTRUMENT>  (6332) 
HITACHI RMU-7M

>  <ION MODE>  (6332) 
P

>  <INCHIKEY>  (6332) 
ZWEHNKRNPOVVGH-UHFFFAOYSA-N

>  <FORMULA>  (6332) 
C4H8O

>  <EXACT MASS>  (6332) 
72.057514876

>  <MW>  (6332) 
72

>  <ID>  (6332) 
JP001803

>  <CONTRIBUTOR>  (6332) 
University of Tokyo Team, {Faculty of Engineering, University of Tokyo

>  <COMMENT>  (6332) 
SMILES=CCC(C)=O
InChI=InChI=1S/C4H8O/c1-3-4(2)5/h3H2,1-2H3
computed SMILES=O=C(C)CC
accession=JP001803
date=2016.01.19 (Created 2008.10.21, modified 2011.05.06)
author=TAJIMA S, GUNMA COLLEGE OF TECHNOLOGY
license=CC BY-NC-SA
exact mass=72.05751
ionization energy=70 eV
ion type=[M]+*
computed spectral entropy=1.5537787946212456
computed normalized entropy=0.5737629213774686
SPLASH=splash10-0006-9000000000-6d2b5f585a1d1bc5a8fb
submitter=submitter = University of Tokyo Team (Faculty of Engineering, University of Tokyo)
MoNA Rating=3.75

>  <NUM PEAKS>  (6332) 
15

>  <MASS SPECTRAL PEAKS>  (6332) 
15 3.02
18 3.27
26 1.13
27 4.59
28 1.38
29 14.34
39 1.26
41 1.19
42 3.27
43 99.99
44 2.64
57 8.3
71 1.01
72 27.99
73 1.64

$$$$

     RDKit          2D

  7  6  0  0  0  0  0  0  0  0999 V2000
    1.6238    1.6875    0.0000 C   0  0  0  0  0  0  0  0  0  0  0  0
    0.3248    3.9375    0.0000 C   0  0  0  0  0  0  0  0  0  0  0  0
   -3.5724    1.6875    0.0000 C   0  0  0  0  0  0  0  0  0  0  0  0
   -0.9743    1.6875    0.0000 C   0  0  0  0  0  0  0  0  0  0  0  0
    0.3248    2.4375    0.0000 C   0  0  0  0  0  0  0  0  0  0  0  0
   -2.2733    2.4375    0.0000 C   0  0  0  0  0  0  0  0  0  0  0  0
   -2.2733    3.9375    0.0000 O   0  0  0  0  0  0  0  0  0  0  0  0
  5  1  1  0
  5  2  1  0
  5  4  1  0
  6  3  1  0
  6  4  1  0
  7  6  2  0
M  END
>  <NAME>  (6333) 
ISOBUTYL METHYL KETONE

>  <SYNONYMS>  (6333) 
4-METHYL-2-PENTANONE

>  <SPECTRUM TYPE>  (6333) 
MS1

>  <INSTRUMENT TYPE>  (6333) 
EI-B

>  <INSTRUMENT>  (6333) 
HITACHI RMU-7M

>  <ION MODE>  (6333) 
P

>  <INCHIKEY>  (6333) 
NTIZESTWPVYFNL-UHFFFAOYSA-N

>  <FORMULA>  (6333) 
C6H12O

>  <EXACT MASS>  (6333) 
100.088815004

>  <MW>  (6333) 
100

>  <ID>  (6333) 
JP001802

>  <CONTRIBUTOR>  (6333) 
University of Tokyo Team, {Faculty of Engineering, University of Tokyo

>  <COMMENT>  (6333) 
SMILES=CC(C)CC(C)=O
InChI=InChI=1S/C6H12O/c1-5(2)4-6(3)7/h5H,4H2,1-3H3
computed SMILES=O=C(C)CC(C)C
accession=JP001802
date=2016.01.19 (Created 2008.10.21, modified 2011.05.06)
author=TAJIMA S, GUNMA COLLEGE OF TECHNOLOGY
license=CC BY-NC-SA
exact mass=100.08882
ionization energy=70 eV
ion type=[M]+*
computed spectral entropy=2.0172097976253593
computed normalized entropy=0.7119865511918662
SPLASH=splash10-0006-9000000000-a74860e5429fbdddd4ec
submitter=submitter = University of Tokyo Team (Faculty of Engineering, University of Tokyo)
MoNA Rating=3.75

>  <NUM PEAKS>  (6333) 
17

>  <MASS SPECTRAL PEAKS>  (6333) 
15 3.19
18 1.06
27 4.99
28 2.45
29 9.81
39 5.56
41 17.42
42 3.35
43 99.99
44 2.45
57 20.28
58 37.94
59 2.37
67 1.55
85 14.39
100 11.69
101 1.72

$$$$

     RDKit          2D

  6  5  0  0  0  0  0  0  0  0999 V2000
    1.2990    2.2500    0.0000 C   0  0  0  0  0  0  0  0  0  0  0  0
   -3.8971    2.2500    0.0000 C   0  0  0  0  0  0  0  0  0  0  0  0
    0.0000    3.0000    0.0000 C   0  0  0  0  0  0  0  0  0  0  0  0
   -1.2990    2.2500    0.0000 C   0  0  0  0  0  0  0  0  0  0  0  0
   -2.5981    3.0000    0.0000 C   0  0  0  0  0  0  0  0  0  0  0  0
   -2.5981    4.5000    0.0000 O   0  0  0  0  0  0  0  0  0  0  0  0
  3  1  1  0
  4  3  1  0
  5  2  1  0
  5  4  1  0
  6  5  2  0
M  END
>  <NAME>  (6334) 
METHYL PROPYL KETONE

>  <SYNONYMS>  (6334) 
2-PENTANONE

>  <SPECTRUM TYPE>  (6334) 
MS1

>  <INSTRUMENT TYPE>  (6334) 
EI-B

>  <INSTRUMENT>  (6334) 
HITACHI RMU-7M

>  <ION MODE>  (6334) 
P

>  <INCHIKEY>  (6334) 
XNLICIUVMPYHGG-UHFFFAOYSA-N

>  <FORMULA>  (6334) 
C5H10O

>  <EXACT MASS>  (6334) 
86.07316494

>  <MW>  (6334) 
86

>  <ID>  (6334) 
JP001801

>  <CONTRIBUTOR>  (6334) 
University of Tokyo Team, {Faculty of Engineering, University of Tokyo

>  <COMMENT>  (6334) 
SMILES=CCCC(C)=O
InChI=InChI=1S/C5H10O/c1-3-4-5(2)6/h3-4H2,1-2H3
computed SMILES=O=C(C)CCC
accession=JP001801
date=2016.01.19 (Created 2008.10.21, modified 2011.05.06)
author=TAJIMA S, GUNMA COLLEGE OF TECHNOLOGY
license=CC BY-NC-SA
exact mass=86.07316
ionization energy=70 eV
ion type=[M]+*
computed spectral entropy=1.5266525151333896
computed normalized entropy=0.5951979171410533
SPLASH=splash10-0006-9000000000-a8e31a9aba1a3bc1fe5a
submitter=submitter = University of Tokyo Team (Faculty of Engineering, University of Tokyo)
MoNA Rating=3.75

>  <NUM PEAKS>  (6334) 
13

>  <MASS SPECTRAL PEAKS>  (6334) 
15 3.27
27 7.31
28 1.6
29 1.53
39 3.62
41 8.98
42 3.34
43 99.99
44 2.51
58 7.52
71 7.17
86 13.51
87 1.46

$$$$

     RDKit          2D

  6  5  0  0  0  0  0  0  0  0999 V2000
    1.2990    2.2500    0.0000 C   0  0  0  0  0  0  0  0  0  0  0  0
    0.0000    3.0000    0.0000 C   0  0  0  0  0  0  0  0  0  0  0  0
   -2.5981    3.0000    0.0000 C   0  0  0  0  0  0  0  0  0  0  0  0
   -1.2990    2.2500    0.0000 C   0  0  0  0  0  0  0  0  0  0  0  0
   -1.2990    0.7500    0.0000 N   0  0  0  0  0  0  0  0  0  0  0  0
   -3.8971    2.2500    0.0000 O   0  0  0  0  0  0  0  0  0  0  0  0
  2  1  1  0
  4  2  1  0
  4  3  1  0
  5  4  1  0
  6  3  1  0
M  END
>  <NAME>  (6335) 
2-AMINO-1-BUTANOL

>  <SYNONYMS>  (6335) 


>  <SPECTRUM TYPE>  (6335) 
MS1

>  <INSTRUMENT TYPE>  (6335) 
EI-B

>  <INSTRUMENT>  (6335) 
HITACHI RMU-7M

>  <ION MODE>  (6335) 
P

>  <INCHIKEY>  (6335) 
JCBPETKZIGVZRE-UHFFFAOYSA-N

>  <FORMULA>  (6335) 
C4H11NO

>  <EXACT MASS>  (6335) 
89.084063972

>  <MW>  (6335) 
89

>  <ID>  (6335) 
JP001800

>  <CONTRIBUTOR>  (6335) 
University of Tokyo Team, {Faculty of Engineering, University of Tokyo

>  <COMMENT>  (6335) 
SMILES=CCC(N)CO
InChI=InChI=1S/C4H11NO/c1-2-4(5)3-6/h4,6H,2-3,5H2,1H3
computed SMILES=OCC(N)CC
accession=JP001800
date=2016.01.19 (Created 2008.10.21, modified 2011.05.06)
author=TAJIMA S, GUNMA COLLEGE OF TECHNOLOGY
license=CC BY-NC-SA
exact mass=89.08406
ionization energy=70 eV
ion type=[M]+*
computed spectral entropy=2.223497911629006
computed normalized entropy=0.709137940785552
SPLASH=splash10-0a4i-9000000000-7129a19c0febef7f10c3
submitter=submitter = University of Tokyo Team (Faculty of Engineering, University of Tokyo)
MoNA Rating=3.75

>  <NUM PEAKS>  (6335) 
23

>  <MASS SPECTRAL PEAKS>  (6335) 
15 2.63
18 5.33
26 0.93
27 4.1
28 9.97
29 3.71
30 13.91
31 3.48
39 3.25
41 32.53
42 16.77
43 8.96
44 2.78
54 1.08
55 1
56 4.4
57 2.16
58 99.99
59 4.25
60 17.77
70 1.16
72 2.7
90 2.24

$$$$

     RDKit          2D

  6  5  0  0  0  0  0  0  0  0999 V2000
    1.2990    2.2500    0.0000 C   0  0  0  0  0  0  0  0  0  0  0  0
   -3.8971    2.2500    0.0000 C   0  0  0  0  0  0  0  0  0  0  0  0
    0.0000    3.0000    0.0000 C   0  0  0  0  0  0  0  0  0  0  0  0
   -1.2990    2.2500    0.0000 C   0  0  0  0  0  0  0  0  0  0  0  0
   -1.2990    0.7500    0.0000 O   0  0  0  0  0  0  0  0  0  0  0  0
   -2.5981    3.0000    0.0000 O   0  0  0  0  0  0  0  0  0  0  0  0
  3  1  1  0
  4  3  1  0
  5  4  2  0
  6  2  1  0
  6  4  1  0
M  END
>  <NAME>  (6336) 
METHYL PROPIONATE

>  <SYNONYMS>  (6336) 
PROPIONIC ACID METHYL ESTER

>  <SPECTRUM TYPE>  (6336) 
MS1

>  <INSTRUMENT TYPE>  (6336) 
EI-B

>  <INSTRUMENT>  (6336) 
HITACHI RMU-7M

>  <ION MODE>  (6336) 
P

>  <INCHIKEY>  (6336) 
RJUFJBKOKNCXHH-UHFFFAOYSA-N

>  <FORMULA>  (6336) 
C4H8O2

>  <EXACT MASS>  (6336) 
88.052429496

>  <MW>  (6336) 
88

>  <ID>  (6336) 
JP001799

>  <CONTRIBUTOR>  (6336) 
University of Tokyo Team, {Faculty of Engineering, University of Tokyo

>  <COMMENT>  (6336) 
SMILES=CCC(=O)OC
InChI=InChI=1S/C4H8O2/c1-3-4(5)6-2/h3H2,1-2H3
computed SMILES=O=C(OC)CC
accession=JP001799
date=2016.01.19 (Created 2008.10.21, modified 2011.05.06)
author=TAJIMA S, GUNMA COLLEGE OF TECHNOLOGY
license=CC BY-NC-SA
exact mass=88.05243
ionization energy=70 eV
ion type=[M]+*
computed spectral entropy=2.019046492107972
computed normalized entropy=0.6985421465568117
SPLASH=splash10-0a6r-9000000000-f392ce5fb6b0153ccdfe
submitter=submitter = University of Tokyo Team (Faculty of Engineering, University of Tokyo)
MoNA Rating=3.75

>  <NUM PEAKS>  (6336) 
18

>  <MASS SPECTRAL PEAKS>  (6336) 
15 12.58
18 1.12
26 3.15
27 13.56
28 7.87
29 65.92
30 2.17
31 3.82
45 2.92
55 3.97
56 3.07
57 99.99
58 3.45
59 29.96
60 1.05
87 2.17
88 28.91
89 2.4

$$$$

     RDKit          2D

  5  4  0  0  0  0  0  0  0  0999 V2000
   -1.2990    2.2500    0.0000 C   0  0  0  0  0  0  0  0  0  0  0  0
   -2.5981    1.5000    0.0000 C   0  0  0  0  0  0  0  0  0  0  0  0
    0.0000    1.5000    0.0000 C   0  0  0  0  0  0  0  0  0  0  0  0
   -3.8971    2.2500    0.0000 N   0  0  0  0  0  0  0  0  0  0  0  0
    1.2990    2.2500    0.0000 O   0  0  0  0  0  0  0  0  0  0  0  0
  2  1  1  0
  3  1  1  0
  4  2  1  0
  5  3  1  0
M  END
>  <NAME>  (6337) 
3-AMINO-1-PROPANOL

>  <SYNONYMS>  (6337) 


>  <SPECTRUM TYPE>  (6337) 
MS1

>  <INSTRUMENT TYPE>  (6337) 
EI-B

>  <INSTRUMENT>  (6337) 
HITACHI RMU-7M

>  <ION MODE>  (6337) 
P

>  <INCHIKEY>  (6337) 
WUGQZFFCHPXWKQ-UHFFFAOYSA-N

>  <FORMULA>  (6337) 
C3H9NO

>  <EXACT MASS>  (6337) 
75.068413908

>  <MW>  (6337) 
75

>  <ID>  (6337) 
JP001798

>  <CONTRIBUTOR>  (6337) 
University of Tokyo Team, {Faculty of Engineering, University of Tokyo

>  <COMMENT>  (6337) 
SMILES=NCCCO
InChI=InChI=1S/C3H9NO/c4-2-1-3-5/h5H,1-4H2
computed SMILES=OCCCN
accession=JP001798
date=2016.01.19 (Created 2008.10.21, modified 2011.05.06)
author=TAJIMA S, GUNMA COLLEGE OF TECHNOLOGY
license=CC BY-NC-SA
exact mass=75.06841
ionization energy=70 eV
ion type=[M]+*
computed spectral entropy=1.8195525763478309
computed normalized entropy=0.6179623993644248
SPLASH=splash10-001i-9000000000-1d41272cc15beccdffac
submitter=submitter = University of Tokyo Team (Faculty of Engineering, University of Tokyo)
MoNA Rating=3.75

>  <NUM PEAKS>  (6337) 
19

>  <MASS SPECTRAL PEAKS>  (6337) 
15 1.38
17 2.06
18 21.75
26 1.38
27 3.92
28 10.74
29 4.13
30 99.99
31 6.33
41 2.2
42 3.44
43 2.27
44 7.09
45 3.17
55 1.31
56 3.51
57 2.75
58 1.79
75 2.41

$$$$

     RDKit          2D

  6  5  0  0  0  0  0  0  0  0999 V2000
    1.2990    2.2500    0.0000 C   0  0  0  0  0  0  0  0  0  0  0  0
   -3.8971    2.2500    0.0000 C   0  0  0  0  0  0  0  0  0  0  0  0
    0.0000    3.0000    0.0000 C   0  0  0  0  0  0  0  0  0  0  0  0
   -2.5981    3.0000    0.0000 C   0  0  0  0  0  0  0  0  0  0  0  0
   -2.5981    4.5000    0.0000 O   0  0  0  0  0  0  0  0  0  0  0  0
   -1.2990    2.2500    0.0000 O   0  0  0  0  0  0  0  0  0  0  0  0
  3  1  1  0
  4  2  1  0
  5  4  2  0
  6  3  1  0
  6  4  1  0
M  END
>  <NAME>  (6338) 
ACETIC ACID ETHYL ESTER

>  <SYNONYMS>  (6338) 
ETHYL ACETATE

>  <SPECTRUM TYPE>  (6338) 
MS1

>  <INSTRUMENT TYPE>  (6338) 
EI-B

>  <INSTRUMENT>  (6338) 
HITACHI RMU-7M

>  <ION MODE>  (6338) 
P

>  <INCHIKEY>  (6338) 
XEKOWRVHYACXOJ-UHFFFAOYSA-N

>  <FORMULA>  (6338) 
C4H8O2

>  <EXACT MASS>  (6338) 
88.052429496

>  <MW>  (6338) 
88

>  <ID>  (6338) 
JP001797

>  <CONTRIBUTOR>  (6338) 
University of Tokyo Team, {Faculty of Engineering, University of Tokyo

>  <COMMENT>  (6338) 
SMILES=CCOC(C)=O
InChI=InChI=1S/C4H8O2/c1-3-6-4(2)5/h3H2,1-2H3
computed SMILES=O=C(OCC)C
accession=JP001797
date=2016.01.19 (Created 2008.10.21, modified 2011.05.06)
author=TAJIMA S, GUNMA COLLEGE OF TECHNOLOGY
license=CC BY-NC-SA
exact mass=88.05243
ionization energy=70 eV
ion type=[M]+*
computed spectral entropy=1.654193331374619
computed normalized entropy=0.6898522008611981
SPLASH=splash10-0006-9000000000-4fbfd506d2d6d053e57f
submitter=submitter = University of Tokyo Team (Faculty of Engineering, University of Tokyo)
MoNA Rating=3.75

>  <NUM PEAKS>  (6338) 
11

>  <MASS SPECTRAL PEAKS>  (6338) 
15 5.72
27 6.9
29 15.78
42 5.13
43 99.99
44 3.45
45 14.5
61 13.81
70 8.78
73 4.24
88 3.25

$$$$

     RDKit          2D

 14 14  0  0  0  0  0  0  0  0999 V2000
    6.4962    0.7508    0.0000 C   0  0  0  0  0  0  0  0  0  0  0  0
    5.1968    3.0006    0.0000 C   0  0  0  0  0  0  0  0  0  0  0  0
   -1.3000    0.7500    0.0000 C   0  0  0  0  0  0  0  0  0  0  0  0
   -0.0000   -1.5000    0.0000 C   0  0  0  0  0  0  0  0  0  0  0  0
    0.0000    1.5000    0.0000 C   0  0  0  0  0  0  0  0  0  0  0  0
    1.3000   -0.7500    0.0000 C   0  0  0  0  0  0  0  0  0  0  0  0
   -2.5989   -1.5002    0.0000 C   0  0  0  0  0  0  0  0  0  0  0  0
    5.1970    1.5006    0.0000 C   0  0  0  0  0  0  0  0  0  0  0  0
   -1.3000   -0.7500    0.0000 C   0  0  0  0  0  0  0  0  0  0  0  0
    1.3000    0.7500    0.0000 C   0  0  0  0  0  0  0  0  0  0  0  0
    2.5989    1.5002    0.0000 C   0  0  0  0  0  0  0  0  0  0  0  0
   -3.8978   -2.2504    0.0000 N   0  0  0  0  0  0  0  0  0  0  0  0
    2.5987    3.0002    0.0000 O   0  0  0  0  0  0  0  0  0  0  0  0
    3.8981    0.7504    0.0000 O   0  0  0  0  0  0  0  0  0  0  0  0
  5  3  2  0
  6  4  1  0
  8  1  1  0
  8  2  1  0
  9  3  1  0
  9  4  2  0
  9  7  1  0
 10  5  1  0
 10  6  2  0
 11 10  1  0
 12  7  3  0
 13 11  2  0
 14  8  1  0
 14 11  1  0
M  END
>  <NAME>  (6339) 
ISOPROPYL 4-CYANOBENZOATE

>  <SYNONYMS>  (6339) 


>  <SPECTRUM TYPE>  (6339) 
MS1

>  <INSTRUMENT TYPE>  (6339) 
EI-B

>  <INSTRUMENT>  (6339) 
HITACHI RMU-7M

>  <ION MODE>  (6339) 
P

>  <INCHIKEY>  (6339) 
NFNBGZCLCQVHRY-UHFFFAOYSA-N

>  <FORMULA>  (6339) 
C11H11NO2

>  <EXACT MASS>  (6339) 
189.078978592

>  <MW>  (6339) 
189

>  <ID>  (6339) 
JP001796

>  <CONTRIBUTOR>  (6339) 
University of Tokyo Team, {Faculty of Engineering, University of Tokyo

>  <COMMENT>  (6339) 
SMILES=N#Cc(c1)ccc(c1)C(=O)OC(C)C
InChI=InChI=1S/C11H11NO2/c1-8(2)14-11(13)10-5-3-9(7-12)4-6-10/h3-6,8H,1-2H3
computed SMILES=N#CC1=CC=C(C=C1)C(=O)OC(C)C
accession=JP001796
date=2016.01.19 (Created 2008.10.21, modified 2011.05.06)
author=TAJIMA S, GUNMA COLLEGE OF TECHNOLOGY
license=CC BY-NC-SA
exact mass=189.07898
ionization energy=70 eV
ion type=[M]+*
computed spectral entropy=2.561564901610387
computed normalized entropy=0.7772122849987632
SPLASH=splash10-001l-4900000000-cf63cb13e9f9f5cba855
submitter=submitter = University of Tokyo Team (Faculty of Engineering, University of Tokyo)
MoNA Rating=3.75

>  <NUM PEAKS>  (6339) 
27

>  <MASS SPECTRAL PEAKS>  (6339) 
27 6.49
29 9.86
34 1.16
39 4.35
40 21.16
41 11.3
42 17.1
43 22.32
44 3.19
50 4.06
51 5.8
52 1.16
74 1.16
75 8.12
76 5.22
102 30.14
103 6.09
104 3.19
130 99.99
131 12.17
147 4.06
148 53.91
149 5.8
171 0.88
174 4.06
189 5.91
190 0.88

$$$$

     RDKit          2D

  5  5  0  0  0  0  0  0  0  0999 V2000
   -0.7500    1.0300    0.0000 C   0  0  0  0  0  0  0  0  0  0  0  0
    0.7500    1.0300    0.0000 C   0  0  0  0  0  0  0  0  0  0  0  0
   -1.2100   -0.3900    0.0000 C   0  0  0  0  0  0  0  0  0  0  0  0
    1.2100   -0.3900    0.0000 C   0  0  0  0  0  0  0  0  0  0  0  0
   -0.0000   -1.2800    0.0000 O   0  0  0  0  0  0  0  0  0  0  0  0
  2  1  1  0
  3  1  1  0
  4  2  1  0
  5  3  1  0
  5  4  1  0
M  END
>  <NAME>  (6340) 
OXOLANE

>  <SYNONYMS>  (6340) 
TETRAHYDROFURAN

>  <SPECTRUM TYPE>  (6340) 
MS1

>  <INSTRUMENT TYPE>  (6340) 
EI-B

>  <INSTRUMENT>  (6340) 
HITACHI RMU-7M

>  <ION MODE>  (6340) 
P

>  <INCHIKEY>  (6340) 
WYURNTSHIVDZCO-UHFFFAOYSA-N

>  <FORMULA>  (6340) 
C4H8O

>  <EXACT MASS>  (6340) 
72.057514876

>  <MW>  (6340) 
72

>  <ID>  (6340) 
JP001795

>  <CONTRIBUTOR>  (6340) 
University of Tokyo Team, {Faculty of Engineering, University of Tokyo

>  <COMMENT>  (6340) 
SMILES=C(C1)COC1
InChI=InChI=1S/C4H8O/c1-2-4-5-3-1/h1-4H2
computed SMILES=O1CCCC1
accession=JP001795
date=2016.01.19 (Created 2008.10.21, modified 2011.05.06)
author=TAJIMA S, GUNMA COLLEGE OF TECHNOLOGY
license=CC BY-NC-SA
exact mass=72.05751
ionization energy=70 eV
ion type=[M]+*
computed spectral entropy=1.899851715424679
computed normalized entropy=0.8250951164433651
SPLASH=splash10-0006-9000000000-15e25f01aff47ab7facc
submitter=submitter = University of Tokyo Team (Faculty of Engineering, University of Tokyo)
MoNA Rating=3.75

>  <NUM PEAKS>  (6340) 
10

>  <MASS SPECTRAL PEAKS>  (6340) 
27 15.88
28 6.88
29 7.88
39 12.88
40 6.63
41 46.13
42 99.99
43 15.38
71 23.75
72 25.38

$$$$

     RDKit          2D

 20 20  0  0  0  0  0  0  0  0999 V2000
    6.4962    0.7508    0.0000 C   0  0  0  0  0  0  0  0  0  0  0  0
    5.7464   -0.5483    0.0000 H   0  0  0  0  0  0  0  0  0  0  0  0
    7.7953    0.0010    0.0000 H   0  0  0  0  0  0  0  0  0  0  0  0
    7.2459    2.0500    0.0000 H   0  0  0  0  0  0  0  0  0  0  0  0
    5.1968    3.0006    0.0000 C   0  0  0  0  0  0  0  0  0  0  0  0
    6.6968    3.0009    0.0000 H   0  0  0  0  0  0  0  0  0  0  0  0
    5.1965    4.5006    0.0000 H   0  0  0  0  0  0  0  0  0  0  0  0
    3.6968    3.0004    0.0000 H   0  0  0  0  0  0  0  0  0  0  0  0
   -1.3000    0.7500    0.0000 C   0  0  0  0  0  0  0  0  0  0  0  0
    0.0000   -1.5000    0.0000 C   0  0  0  0  0  0  0  0  0  0  0  0
    0.0000    1.5000    0.0000 C   0  0  0  0  0  0  0  0  0  0  0  0
    1.3000   -0.7500    0.0000 C   0  0  0  0  0  0  0  0  0  0  0  0
   -2.5989   -1.5002    0.0000 C   0  0  0  0  0  0  0  0  0  0  0  0
    5.1970    1.5006    0.0000 C   0  0  0  0  0  0  0  0  0  0  0  0
   -1.3000   -0.7500    0.0000 C   0  0  0  0  0  0  0  0  0  0  0  0
    1.3000    0.7500    0.0000 C   0  0  0  0  0  0  0  0  0  0  0  0
    2.5989    1.5002    0.0000 C   0  0  0  0  0  0  0  0  0  0  0  0
   -3.8978   -2.2504    0.0000 N   0  0  0  0  0  0  0  0  0  0  0  0
    2.5987    3.0002    0.0000 O   0  0  0  0  0  0  0  0  0  0  0  0
    3.8981    0.7504    0.0000 O   0  0  0  0  0  0  0  0  0  0  0  0
  1  2  1  0
  1  3  1  0
  1  4  1  0
  5  6  1  0
  5  7  1  0
  5  8  1  0
 11  9  2  0
 12 10  1  0
 14  1  1  0
 14  5  1  0
 15  9  1  0
 15 10  2  0
 15 13  1  0
 16 11  1  0
 16 12  2  0
 17 16  1  0
 18 13  3  0
 19 17  2  0
 20 14  1  0
 20 17  1  0
M  ISO  6   2   2   3   2   4   2   6   2   7   2   8   2
M  END
>  <NAME>  (6341) 
ISOPROPYL 4-CYANOBENZOATE (D6)

>  <SYNONYMS>  (6341) 
(2,2,2,3,3,3-2H6)ISOPROPYL 4-CYANOBENZOATE

>  <SPECTRUM TYPE>  (6341) 
MS1

>  <INSTRUMENT TYPE>  (6341) 
EI-B

>  <INSTRUMENT>  (6341) 
HITACHI RMU-7M

>  <ION MODE>  (6341) 
P

>  <INCHIKEY>  (6341) 
NFNBGZCLCQVHRY-WFGJKAKNSA-N

>  <FORMULA>  (6341) 
C11H11NO2

>  <EXACT MASS>  (6341) 
195.116639068

>  <MW>  (6341) 
195

>  <ID>  (6341) 
JP001794

>  <CONTRIBUTOR>  (6341) 
University of Tokyo Team, {Faculty of Engineering, University of Tokyo

>  <COMMENT>  (6341) 
SMILES=N#Cc(c1)ccc(c1)C(=O)OC(C([2H])([2H])[2H])C([2H])([2H])[2H]
InChI=InChI=1S/C11H11NO2/c1-8(2)14-11(13)10-5-3-9(7-12)4-6-10/h3-6,8H,1-2H3/i1D3,2D3
computed SMILES=[H]C([H])([H])C(OC(=O)C1=CC=C(C#N)C=C1)C([H])([H])[H]
accession=JP001794
date=2016.01.19 (Created 2008.10.21, modified 2011.05.06)
author=TAJIMA S, GUNMA COLLEGE OF TECHNOLOGY
license=CC BY-NC-SA
exact mass=189.07898
ionization energy=70 eV
ion type=[M]+*
computed spectral entropy=2.5579884923079685
computed normalized entropy=0.7676565122269378
SPLASH=splash10-0f89-5900000000-d7b8f9c164f88da4b554
submitter=submitter = University of Tokyo Team (Faculty of Engineering, University of Tokyo)
MoNA Rating=3.75

>  <NUM PEAKS>  (6341) 
28

>  <MASS SPECTRAL PEAKS>  (6341) 
40 3.42
42 1.61
44 1.94
45 8.07
46 9.17
47 16.09
48 1.94
49 30.36
50 5.36
51 7.11
65 31.52
74 1.49
75 9.82
76 5.94
102 32.43
103 5.49
104 1.29
106 0.84
130 99.99
131 14.21
132 0.8
148 3.17
149 1.94
150 38.11
151 3.23
177 4.52
195 8.66
196 0.65

$$$$

     RDKit          2D

 15 15  0  0  0  0  0  0  0  0999 V2000
    7.4627   -0.9393    0.0000 C   0  0  0  0  0  0  0  0  0  0  0  0
    6.1633   -3.1891    0.0000 C   0  0  0  0  0  0  0  0  0  0  0  0
   -4.2292   -1.6935    0.0000 C   0  0  0  0  0  0  0  0  0  0  0  0
   -0.3276   -3.9313    0.0000 C   0  0  0  0  0  0  0  0  0  0  0  0
    0.9669   -3.1891    0.0000 C   0  0  0  0  0  0  0  0  0  0  0  0
   -1.6266   -3.1813    0.0000 C   0  0  0  0  0  0  0  0  0  0  0  0
   -0.3316   -0.9383    0.0000 C   0  0  0  0  0  0  0  0  0  0  0  0
    4.8646   -0.9389    0.0000 C   0  0  0  0  0  0  0  0  0  0  0  0
    6.1635   -1.6891    0.0000 C   0  0  0  0  0  0  0  0  0  0  0  0
    0.9674   -1.6883    0.0000 C   0  0  0  0  0  0  0  0  0  0  0  0
   -1.6312   -1.6891    0.0000 C   0  0  0  0  0  0  0  0  0  0  0  0
    2.2666   -0.9385    0.0000 C   0  0  0  0  0  0  0  0  0  0  0  0
    2.2668    0.5615    0.0000 O   0  0  0  0  0  0  0  0  0  0  0  0
   -2.9315   -0.9413    0.0000 O   0  0  0  0  0  0  0  0  0  0  0  0
    3.5655   -1.6887    0.0000 O   0  0  0  0  0  0  0  0  0  0  0  0
  5  4  2  0
  6  4  1  0
  9  1  1  0
  9  2  1  0
  9  8  1  0
 10  5  1  0
 10  7  2  0
 11  6  2  0
 11  7  1  0
 12 10  1  0
 13 12  2  0
 14  3  1  0
 14 11  1  0
 15  8  1  0
 15 12  1  0
M  END
>  <NAME>  (6342) 
ISOBUTYL 3-METHOXYBENZOATE

>  <SYNONYMS>  (6342) 


>  <SPECTRUM TYPE>  (6342) 
MS1

>  <INSTRUMENT TYPE>  (6342) 
EI-B

>  <INSTRUMENT>  (6342) 
HITACHI RMU-7M

>  <ION MODE>  (6342) 
P

>  <INCHIKEY>  (6342) 
YMOAQFMEIBYZJW-UHFFFAOYSA-N

>  <FORMULA>  (6342) 
C12H16O3

>  <EXACT MASS>  (6342) 
208.10994437199997

>  <MW>  (6342) 
208

>  <ID>  (6342) 
JP001793

>  <CONTRIBUTOR>  (6342) 
University of Tokyo Team, {Faculty of Engineering, University of Tokyo

>  <COMMENT>  (6342) 
SMILES=COc(c1)cc(cc1)C(=O)OCC(C)C
InChI=InChI=1S/C12H16O3/c1-9(2)8-15-12(13)10-5-4-6-11(7-10)14-3/h4-7,9H,8H2,1-3H3
computed SMILES=O=C(OCC(C)C)C=1C=CC=C(OC)C1
accession=JP001793
date=2016.01.19 (Created 2008.10.21, modified 2011.05.06)
author=TAJIMA S, GUNMA COLLEGE OF TECHNOLOGY
license=CC BY-NC-SA
exact mass=208.10994
ionization energy=70 eV
ion type=[M]+*
computed spectral entropy=2.6334164301208407
computed normalized entropy=0.7406915960339604
SPLASH=splash10-0f79-4900000000-e30125d95f5f68b2c043
submitter=submitter = University of Tokyo Team (Faculty of Engineering, University of Tokyo)
MoNA Rating=3.75

>  <NUM PEAKS>  (6342) 
35

>  <MASS SPECTRAL PEAKS>  (6342) 
27 5.67
29 10.68
38 2.54
39 6.01
41 10.81
43 3
50 3.27
51 2.2
53 1.74
55 1.4
56 4.34
57 3.6
62 1.4
63 7.21
64 9.68
65 2.6
75 1.34
76 3.67
77 19.36
78 2.67
92 16.15
93 1.34
105 1.47
107 20.63
108 3.4
109 1.87
135 99.99
136 10.08
137 1.2
152 73.77
153 8.01
154 1
165 1.27
208 16.29
209 2.14

$$$$

     RDKit          2D

 16 16  0  0  0  0  0  0  0  0999 V2000
   -6.1802    2.4253    0.0000 C   0  0  0  0  0  0  0  0  0  0  0  0
   -4.8774    0.1775    0.0000 C   0  0  0  0  0  0  0  0  0  0  0  0
    1.6198   -0.5560    0.0000 C   0  0  0  0  0  0  0  0  0  0  0  0
    0.3207    0.1940    0.0000 C   0  0  0  0  0  0  0  0  0  0  0  0
    2.9143    0.1862    0.0000 C   0  0  0  0  0  0  0  0  0  0  0  0
    1.6157    2.4370    0.0000 C   0  0  0  0  0  0  0  0  0  0  0  0
   -3.5822    2.4296    0.0000 C   0  0  0  0  0  0  0  0  0  0  0  0
   -4.8799    1.6775    0.0000 C   0  0  0  0  0  0  0  0  0  0  0  0
    0.3162    1.6862    0.0000 C   0  0  0  0  0  0  0  0  0  0  0  0
    2.9148    1.6870    0.0000 C   0  0  0  0  0  0  0  0  0  0  0  0
   -0.9841    2.4340    0.0000 C   0  0  0  0  0  0  0  0  0  0  0  0
    4.2139    2.4368    0.0000 N   0  0  0  0  0  0  0  0  0  0  0  0
   -0.9866    3.9340    0.0000 O   0  0  0  0  0  0  0  0  0  0  0  0
    5.5128    1.6866    0.0000 O   0  0  0  0  0  0  0  0  0  0  0  0
    4.2142    3.9368    0.0000 O   0  0  0  0  0  0  0  0  0  0  0  0
   -2.2819    1.6818    0.0000 O   0  0  0  0  0  0  0  0  0  0  0  0
  4  3  2  0
  5  3  1  0
  8  1  1  0
  8  2  1  0
  8  7  1  0
  9  4  1  0
  9  6  2  0
 10  5  2  0
 10  6  1  0
 11  9  1  0
 12 10  1  0
 13 11  2  0
 14 12  1  0
 15 12  2  0
 16  7  1  0
 16 11  1  0
M  CHG  2  12   1  14  -1
M  END
>  <NAME>  (6343) 
ISOBUTYL 3-NITROBENZOATE

>  <SYNONYMS>  (6343) 


>  <SPECTRUM TYPE>  (6343) 
MS1

>  <INSTRUMENT TYPE>  (6343) 
EI-B

>  <INSTRUMENT>  (6343) 
HITACHI RMU-7M

>  <ION MODE>  (6343) 
P

>  <INCHIKEY>  (6343) 
XGXZBLXZWJRBCZ-UHFFFAOYSA-N

>  <FORMULA>  (6343) 
C11H13NO4

>  <EXACT MASS>  (6343) 
223.084457896

>  <MW>  (6343) 
223

>  <ID>  (6343) 
JP001792

>  <CONTRIBUTOR>  (6343) 
University of Tokyo Team, {Faculty of Engineering, University of Tokyo

>  <COMMENT>  (6343) 
SMILES=CC(C)COC(=O)c(c1)cc(cc1)[N+1]([O-1])=O
InChI=InChI=1S/C11H13NO4/c1-8(2)7-16-11(13)9-4-3-5-10(6-9)12(14)15/h3-6,8H,7H2,1-2H3
computed SMILES=O=C(OCC(C)C)C1=CC=CC(=C1)N(=O)=O
accession=JP001792
date=2016.01.19 (Created 2008.10.21, modified 2011.05.06)
author=TAJIMA S, GUNMA COLLEGE OF TECHNOLOGY
license=CC BY-NC-SA
exact mass=223.08446
ionization energy=70 eV
ion type=[M]+*
computed spectral entropy=2.4719420541049004
computed normalized entropy=0.6952742773289402
SPLASH=splash10-0zfr-9700000000-8652066e0ed4181780eb
submitter=submitter = University of Tokyo Team (Faculty of Engineering, University of Tokyo)
MoNA Rating=3.75

>  <NUM PEAKS>  (6343) 
35

>  <MASS SPECTRAL PEAKS>  (6343) 
27 2.13
29 6.21
39 2.98
40 3.69
41 12.46
43 4.36
50 6.16
51 1.42
55 4.07
56 99.99
57 9.24
63 1.04
64 1.42
65 4.26
72 1.04
73 1.42
74 1.52
75 5.31
76 20.84
77 2.27
92 4.22
93 1.09
103 1
104 28.61
105 2.51
120 2.37
121 3.79
122 2.37
134 4.64
137 1.75
150 94.74
151 16.3
152 2.37
168 6.21
169 1.18

$$$$

     RDKit          2D

 15 15  0  0  0  0  0  0  0  0999 V2000
    7.7916   -0.7568    0.0000 C   0  0  0  0  0  0  0  0  0  0  0  0
    6.4922   -3.0066    0.0000 C   0  0  0  0  0  0  0  0  0  0  0  0
    0.0013   -3.7488    0.0000 C   0  0  0  0  0  0  0  0  0  0  0  0
   -1.2977   -2.9988    0.0000 C   0  0  0  0  0  0  0  0  0  0  0  0
    1.2958   -3.0066    0.0000 C   0  0  0  0  0  0  0  0  0  0  0  0
   -0.0027   -0.7558    0.0000 C   0  0  0  0  0  0  0  0  0  0  0  0
   -2.6026   -0.7588    0.0000 C   0  0  0  0  0  0  0  0  0  0  0  0
    5.1935   -0.7564    0.0000 C   0  0  0  0  0  0  0  0  0  0  0  0
    6.4924   -1.5066    0.0000 C   0  0  0  0  0  0  0  0  0  0  0  0
   -1.3023   -1.5066    0.0000 C   0  0  0  0  0  0  0  0  0  0  0  0
    1.2963   -1.5058    0.0000 C   0  0  0  0  0  0  0  0  0  0  0  0
    2.5955   -0.7560    0.0000 C   0  0  0  0  0  0  0  0  0  0  0  0
   -3.9028   -0.0110    0.0000 N   0  0  0  0  0  0  0  0  0  0  0  0
    2.5957    0.7440    0.0000 O   0  0  0  0  0  0  0  0  0  0  0  0
    3.8944   -1.5062    0.0000 O   0  0  0  0  0  0  0  0  0  0  0  0
  4  3  2  0
  5  3  1  0
  9  1  1  0
  9  2  1  0
  9  8  1  0
 10  4  1  0
 10  6  2  0
 10  7  1  0
 11  5  2  0
 11  6  1  0
 12 11  1  0
 13  7  3  0
 14 12  2  0
 15  8  1  0
 15 12  1  0
M  END
>  <NAME>  (6344) 
ISOBUTYL 3-CYANOBENZOATE

>  <SYNONYMS>  (6344) 


>  <SPECTRUM TYPE>  (6344) 
MS1

>  <INSTRUMENT TYPE>  (6344) 
EI-B

>  <INSTRUMENT>  (6344) 
HITACHI RMU-7M

>  <ION MODE>  (6344) 
P

>  <INCHIKEY>  (6344) 
WYLBZEVZADZBKE-UHFFFAOYSA-N

>  <FORMULA>  (6344) 
C12H13NO2

>  <EXACT MASS>  (6344) 
203.094628656

>  <MW>  (6344) 
203

>  <ID>  (6344) 
JP001791

>  <CONTRIBUTOR>  (6344) 
University of Tokyo Team, {Faculty of Engineering, University of Tokyo

>  <COMMENT>  (6344) 
SMILES=N#Cc(c1)cc(cc1)C(=O)OCC(C)C
InChI=InChI=1S/C12H13NO2/c1-9(2)8-15-12(14)11-5-3-4-10(6-11)7-13/h3-6,9H,8H2,1-2H3
computed SMILES=N#CC1=CC=CC(=C1)C(=O)OCC(C)C
accession=JP001791
date=2016.01.19 (Created 2008.10.21, modified 2011.05.06)
author=TAJIMA S, GUNMA COLLEGE OF TECHNOLOGY
license=CC BY-NC-SA
exact mass=203.09463
ionization energy=70 eV
ion type=[M]+*
computed spectral entropy=2.188638326392857
computed normalized entropy=0.6886725157053857
SPLASH=splash10-053r-7900000000-e206beb3bd4fa27fd6ff
submitter=submitter = University of Tokyo Team (Faculty of Engineering, University of Tokyo)
MoNA Rating=3.75

>  <NUM PEAKS>  (6344) 
24

>  <MASS SPECTRAL PEAKS>  (6344) 
39 4.34
40 1.31
41 14.46
42 3.81
43 8.68
50 2.63
51 4.54
55 2.96
56 77.32
57 5.59
73 2.1
74 1.12
75 6.64
76 4.4
101 1
102 29.52
103 5.65
104 1.12
130 99.99
131 9.2
148 17.82
149 1.91
160 1.12
161 1

$$$$

     RDKit          2D

 12 12  0  0  0  0  0  0  0  0999 V2000
   -1.3000   -0.7500    0.0000 C   0  0  0  0  0  0  0  0  0  0  0  0
    0.0000    1.5000    0.0000 C   0  0  0  0  0  0  0  0  0  0  0  0
    0.0000   -1.5000    0.0000 C   0  0  0  0  0  0  0  0  0  0  0  0
    1.3000    0.7500    0.0000 C   0  0  0  0  0  0  0  0  0  0  0  0
   -1.3000    0.7500    0.0000 C   0  0  0  0  0  0  0  0  0  0  0  0
    1.3000   -0.7500    0.0000 C   0  0  0  0  0  0  0  0  0  0  0  0
   -2.5989    1.5002    0.0000 C   0  0  0  0  0  0  0  0  0  0  0  0
   -3.8981    0.7504    0.0000 Cl  0  0  0  0  0  0  0  0  0  0  0  0
    2.5989   -1.5002    0.0000 N   0  0  0  0  0  0  0  0  0  0  0  0
   -2.5987    3.0002    0.0000 O   0  0  0  0  0  0  0  0  0  0  0  0
    3.8981   -0.7504    0.0000 O   0  0  0  0  0  0  0  0  0  0  0  0
    2.5987   -3.0002    0.0000 O   0  0  0  0  0  0  0  0  0  0  0  0
  3  1  2  0
  4  2  1  0
  5  1  1  0
  5  2  2  0
  6  3  1  0
  6  4  2  0
  7  5  1  0
  8  7  1  0
  9  6  1  0
 10  7  2  0
 11  9  1  0
 12  9  2  0
M  CHG  2   9   1  11  -1
M  END
>  <NAME>  (6345) 
PARA-NITROBENZOYL CHLORIDE

>  <SYNONYMS>  (6345) 


>  <SPECTRUM TYPE>  (6345) 
MS1

>  <INSTRUMENT TYPE>  (6345) 
EI-B

>  <INSTRUMENT>  (6345) 
HITACHI RMU-7M

>  <ION MODE>  (6345) 
P

>  <INCHIKEY>  (6345) 
SKDHHIUENRGTHK-UHFFFAOYSA-N

>  <FORMULA>  (6345) 
C7H4ClNO3

>  <EXACT MASS>  (6345) 
184.987970668

>  <MW>  (6345) 
185

>  <ID>  (6345) 
JP001697

>  <CONTRIBUTOR>  (6345) 
University of Tokyo Team, {Faculty of Engineering, University of Tokyo

>  <COMMENT>  (6345) 
SMILES=[O-1][N+1](=O)c(c1)ccc(c1)C(=O)Cl
InChI=InChI=1S/C7H4ClNO3/c8-7(10)5-1-3-6(4-2-5)9(11)12/h1-4H
computed SMILES=O=C(Cl)C1=CC=C(C=C1)N(=O)=O
accession=JP001697
date=2016.01.19 (Created 2008.10.21, modified 2011.05.06)
author=TAJIMA S, GUNMA COLLEGE OF TECHNOLOGY
license=CC BY-NC-SA
exact mass=184.98797
ionization energy=70 eV
ion type=[M]+*
computed spectral entropy=2.5652617600079117
computed normalized entropy=0.7401780839491017
SPLASH=splash10-0udi-8900000000-87827d4e9641ce426ca5
submitter=submitter = University of Tokyo Team (Faculty of Engineering, University of Tokyo)
MoNA Rating=3.75

>  <NUM PEAKS>  (6345) 
32

>  <MASS SPECTRAL PEAKS>  (6345) 
28 2.84
30 1.95
35 3.01
36 34.47
37 3.85
38 13.11
39 2.12
44 1.39
49 1.17
50 17.23
51 3.46
52 1.23
62 1
63 2.4
64 2.73
65 1.17
73 1.67
74 6.75
75 16.73
76 25.1
77 3.23
92 6.41
103 22.25
104 24.71
105 1.56
111 2.51
113 0.78
120 5.19
121 1
150 99.99
151 7.92
185 0.61

$$$$

     RDKit          2D

  4  3  0  0  0  0  0  0  0  0999 V2000
    0.0000    0.0000    0.0000 C   0  0  0  0  0  0  0  0  0  0  0  0
    0.0000    1.5000    0.0000 C   0  0  0  0  0  0  0  0  0  0  0  0
   -1.2990    2.2500    0.0000 C   0  0  0  0  0  0  0  0  0  0  0  0
   -2.5981    3.0000    0.0000 N   0  0  0  0  0  0  0  0  0  0  0  0
  2  1  1  0
  3  2  1  0
  4  3  3  0
M  END
>  <NAME>  (6346) 
PROPIONITRILE

>  <SYNONYMS>  (6346) 


>  <SPECTRUM TYPE>  (6346) 
MS1

>  <INSTRUMENT TYPE>  (6346) 
EI-B

>  <INSTRUMENT>  (6346) 
HITACHI RMU-7M

>  <ION MODE>  (6346) 
P

>  <INCHIKEY>  (6346) 
FVSKHRXBFJPNKK-UHFFFAOYSA-N

>  <FORMULA>  (6346) 
C3H5N

>  <EXACT MASS>  (6346) 
55.042199159999996

>  <MW>  (6346) 
55

>  <ID>  (6346) 
JP001696

>  <CONTRIBUTOR>  (6346) 
University of Tokyo Team, {Faculty of Engineering, University of Tokyo

>  <COMMENT>  (6346) 
SMILES=CCC#N
InChI=InChI=1S/C3H5N/c1-2-3-4/h2H2,1H3
computed SMILES=N#CCC
accession=JP001696
date=2016.01.19 (Created 2008.10.21, modified 2011.05.06)
author=TAJIMA S, GUNMA COLLEGE OF TECHNOLOGY
license=CC BY-NC-SA
exact mass=55.0422
ionization energy=70 eV
ion type=[M]+*
computed spectral entropy=1.9439848990450814
computed normalized entropy=0.6725726175999116
SPLASH=splash10-0fb9-9000000000-63d7383e13ee067cb1c2
submitter=submitter = University of Tokyo Team (Faculty of Engineering, University of Tokyo)
MoNA Rating=3.75

>  <NUM PEAKS>  (6346) 
18

>  <MASS SPECTRAL PEAKS>  (6346) 
15 4.61
25 1.4
26 14.02
27 12.88
28 99.99
29 3.14
31 1.74
37 1.07
38 2
39 2.54
40 4.34
41 3.81
50 1.27
51 7.74
52 10.68
53 7.21
54 71.63
55 11.42

$$$$

     RDKit          2D

  7  7  0  0  0  0  0  0  0  0999 V2000
    2.2289    1.2902    0.0000 C   0  0  0  0  0  0  0  0  0  0  0  0
   -1.6700    0.5400    0.0000 C   0  0  0  0  0  0  0  0  0  0  0  0
   -0.3700    1.2900    0.0000 C   0  0  0  0  0  0  0  0  0  0  0  0
   -1.6700   -0.9600    0.0000 C   0  0  0  0  0  0  0  0  0  0  0  0
    0.9300   -0.9600    0.0000 C   0  0  0  0  0  0  0  0  0  0  0  0
    0.9300    0.5400    0.0000 C   0  0  0  0  0  0  0  0  0  0  0  0
   -0.3700   -1.7100    0.0000 N   0  0  0  0  0  0  0  0  0  0  0  0
  3  2  2  0
  4  2  1  0
  6  1  1  0
  6  3  1  0
  6  5  2  0
  7  4  2  0
  7  5  1  0
M  END
>  <NAME>  (6347) 
3-METHYLPYRIDINE

>  <SYNONYMS>  (6347) 
BETA METHYL PYRIDINE

>  <SPECTRUM TYPE>  (6347) 
MS1

>  <INSTRUMENT TYPE>  (6347) 
EI-B

>  <INSTRUMENT>  (6347) 
HITACHI RMU-7M

>  <ION MODE>  (6347) 
P

>  <INCHIKEY>  (6347) 
ITQTTZVARXURQS-UHFFFAOYSA-N

>  <FORMULA>  (6347) 
C6H7N

>  <EXACT MASS>  (6347) 
93.057849224

>  <MW>  (6347) 
93

>  <ID>  (6347) 
JP001695

>  <CONTRIBUTOR>  (6347) 
University of Tokyo Team, {Faculty of Engineering, University of Tokyo

>  <COMMENT>  (6347) 
SMILES=Cc(c1)cncc1
InChI=InChI=1S/C6H7N/c1-6-3-2-4-7-5-6/h2-5H,1H3
computed SMILES=N=1C=CC=C(C1)C
accession=JP001695
date=2016.01.19 (Created 2008.10.21, modified 2011.05.06)
author=TAJIMA S, GUNMA COLLEGE OF TECHNOLOGY
license=CC BY-NC-SA
exact mass=93.05785
ionization energy=70 eV
ion type=[M]+*
computed spectral entropy=2.3948193271509415
computed normalized entropy=0.7439924549587119
SPLASH=splash10-00kf-9000000000-5fb57b3d6b75f2db13ce
submitter=submitter = University of Tokyo Team (Faculty of Engineering, University of Tokyo)
MoNA Rating=3.75

>  <NUM PEAKS>  (6347) 
25

>  <MASS SPECTRAL PEAKS>  (6347) 
26 1.67
27 3.06
28 2.62
37 2.73
38 6.24
39 25.24
40 13.15
41 3.34
50 2.56
51 4.9
52 2.62
53 2.51
54 2.67
61 1.45
62 2.56
63 6.13
64 3.4
65 27.63
66 40.84
67 10.14
78 3.29
91 1.28
92 32.76
93 99.99
94 7.41

$$$$

     RDKit          2D

  9  8  0  0  0  0  0  0  0  0999 V2000
   -7.4695    3.9375    0.0000 C   0  0  0  0  0  0  0  0  0  0  0  0
    1.6238    3.1875    0.0000 C   0  0  0  0  0  0  0  0  0  0  0  0
   -6.1704    3.1875    0.0000 C   0  0  0  0  0  0  0  0  0  0  0  0
   -3.5724    3.1875    0.0000 C   0  0  0  0  0  0  0  0  0  0  0  0
   -2.2733    3.9375    0.0000 C   0  0  0  0  0  0  0  0  0  0  0  0
    0.3248    3.9375    0.0000 C   0  0  0  0  0  0  0  0  0  0  0  0
    0.3248    5.4375    0.0000 O   0  0  0  0  0  0  0  0  0  0  0  0
   -4.8714    3.9375    0.0000 O   0  0  0  0  0  0  0  0  0  0  0  0
   -0.9743    3.1875    0.0000 O   0  0  0  0  0  0  0  0  0  0  0  0
  3  1  1  0
  5  4  1  0
  6  2  1  0
  7  6  2  0
  8  3  1  0
  8  4  1  0
  9  5  1  0
  9  6  1  0
M  END
>  <NAME>  (6348) 
2-ETHOXYETHYL ACETATE

>  <SYNONYMS>  (6348) 


>  <SPECTRUM TYPE>  (6348) 
MS1

>  <INSTRUMENT TYPE>  (6348) 
EI-B

>  <INSTRUMENT>  (6348) 
HITACHI RMU-7M

>  <ION MODE>  (6348) 
P

>  <INCHIKEY>  (6348) 
SVONRAPFKPVNKG-UHFFFAOYSA-N

>  <FORMULA>  (6348) 
C6H12O3

>  <EXACT MASS>  (6348) 
132.078644244

>  <MW>  (6348) 
132

>  <ID>  (6348) 
JP001694

>  <CONTRIBUTOR>  (6348) 
University of Tokyo Team, {Faculty of Engineering, University of Tokyo

>  <COMMENT>  (6348) 
SMILES=CCOCCOC(C)=O
InChI=InChI=1S/C6H12O3/c1-3-8-4-5-9-6(2)7/h3-5H2,1-2H3
computed SMILES=O=C(OCCOCC)C
accession=JP001694
date=2016.01.19 (Created 2008.10.21, modified 2011.05.06)
author=TAJIMA S, GUNMA COLLEGE OF TECHNOLOGY
license=CC BY-NC-SA
exact mass=132.07864
ionization energy=70 eV
ion type=[M]+*
computed spectral entropy=2.2425998820636264
computed normalized entropy=0.7366015287903598
SPLASH=splash10-0006-9000000000-b0a736be4ca5526b00b2
submitter=submitter = University of Tokyo Team (Faculty of Engineering, University of Tokyo)
MoNA Rating=3.75

>  <NUM PEAKS>  (6348) 
21

>  <MASS SPECTRAL PEAKS>  (6348) 
15 5.13
27 5.25
28 3.09
29 14.76
31 44.66
41 3.89
42 2.41
43 99.99
44 19.77
45 8.59
58 2.35
59 43.92
60 1.61
61 3.09
70 1.54
72 30.2
73 3.77
74 1.85
87 6.11
88 5.81
89 1.3

$$$$

     RDKit          2D

  7  6  0  0  0  0  0  0  0  0999 V2000
   -2.5111    2.0993    0.0000 C   0  0  0  0  0  0  0  0  0  0  0  0
    0.8370    0.8002    0.0000 C   0  0  0  0  0  0  0  0  0  0  0  0
    1.3861    2.8493    0.0000 C   0  0  0  0  0  0  0  0  0  0  0  0
   -0.6630    3.3983    0.0000 C   0  0  0  0  0  0  0  0  0  0  0  0
   -1.2120    1.3493    0.0000 C   0  0  0  0  0  0  0  0  0  0  0  0
    0.0870    2.0993    0.0000 C   0  0  0  0  0  0  0  0  0  0  0  0
   -1.2120   -0.1507    0.0000 O   0  0  0  0  0  0  0  0  0  0  0  0
  5  1  1  0
  6  2  1  0
  6  3  1  0
  6  4  1  0
  6  5  1  0
  7  5  2  0
M  END
>  <NAME>  (6349) 
PINACOLIN

>  <SYNONYMS>  (6349) 
3,3-DIMETHYL-2-BUTANONE

>  <SPECTRUM TYPE>  (6349) 
MS1

>  <INSTRUMENT TYPE>  (6349) 
EI-B

>  <INSTRUMENT>  (6349) 
HITACHI RMU-7M

>  <ION MODE>  (6349) 
P

>  <INCHIKEY>  (6349) 
PJGSXYOJTGTZAV-UHFFFAOYSA-N

>  <FORMULA>  (6349) 
C6H12O

>  <EXACT MASS>  (6349) 
100.088815004

>  <MW>  (6349) 
100

>  <ID>  (6349) 
JP001693

>  <CONTRIBUTOR>  (6349) 
University of Tokyo Team, {Faculty of Engineering, University of Tokyo

>  <COMMENT>  (6349) 
SMILES=CC(=O)C(C)(C)C
InChI=InChI=1S/C6H12O/c1-5(7)6(2,3)4/h1-4H3
computed SMILES=O=C(C)C(C)(C)C
ionization energy=70 eV
accession=JP001693
date=2016.01.19 (Created 2008.10.21, modified 2011.05.06)
author=TAJIMA S, GUNMA COLLEGE OF TECHNOLOGY
license=CC BY-NC-SA
exact mass=100.08882
ion type=[M]+*
computed spectral entropy=2.042024772088887
computed normalized entropy=0.7064920858399303
SPLASH=splash10-0a4l-9000000000-41d85a09d1c545d1c0e5
submitter=submitter = University of Tokyo Team (Faculty of Engineering, University of Tokyo)
MoNA Rating=3.75

>  <NUM PEAKS>  (6349) 
18

>  <MASS SPECTRAL PEAKS>  (6349) 
15 4.51
27 4.89
28 2.41
29 41.95
39 8.12
40 1.2
41 56.32
42 3.46
43 32.63
55 3.68
56 6.62
57 99.99
58 4.36
67 1
69 1
85 4.59
100 16.77
101 1.35

$$$$

     RDKit          2D

  8  7  0  0  0  0  0  0  0  0999 V2000
    2.2733    2.8125    0.0000 C   0  0  0  0  0  0  0  0  0  0  0  0
   -5.5209    2.8125    0.0000 C   0  0  0  0  0  0  0  0  0  0  0  0
   -2.9228    2.8125    0.0000 C   0  0  0  0  0  0  0  0  0  0  0  0
   -1.6238    3.5625    0.0000 C   0  0  0  0  0  0  0  0  0  0  0  0
    0.9743    3.5625    0.0000 C   0  0  0  0  0  0  0  0  0  0  0  0
    0.9743    5.0625    0.0000 O   0  0  0  0  0  0  0  0  0  0  0  0
   -4.2219    3.5625    0.0000 O   0  0  0  0  0  0  0  0  0  0  0  0
   -0.3248    2.8125    0.0000 O   0  0  0  0  0  0  0  0  0  0  0  0
  4  3  1  0
  5  1  1  0
  6  5  2  0
  7  2  1  0
  7  3  1  0
  8  4  1  0
  8  5  1  0
M  END
>  <NAME>  (6350) 
2-METHOXYETHYL ACETATE

>  <SYNONYMS>  (6350) 
METHYL CELLOSOLVE ACETATE

>  <SPECTRUM TYPE>  (6350) 
MS1

>  <INSTRUMENT TYPE>  (6350) 
EI-B

>  <INSTRUMENT>  (6350) 
HITACHI RMU-7M

>  <ION MODE>  (6350) 
P

>  <INCHIKEY>  (6350) 
XLLIQLLCWZCATF-UHFFFAOYSA-N

>  <FORMULA>  (6350) 
C5H10O3

>  <EXACT MASS>  (6350) 
118.06299417999999

>  <MW>  (6350) 
118

>  <ID>  (6350) 
JP001692

>  <CONTRIBUTOR>  (6350) 
University of Tokyo Team, {Faculty of Engineering, University of Tokyo

>  <COMMENT>  (6350) 
SMILES=COCCOC(C)=O
InChI=InChI=1S/C5H10O3/c1-5(6)8-4-3-7-2/h3-4H2,1-2H3
computed SMILES=O=C(OCCOC)C
accession=JP001692
date=2016.01.19 (Created 2008.10.21, modified 2011.05.06)
author=TAJIMA S, GUNMA COLLEGE OF TECHNOLOGY
license=CC BY-NC-SA
exact mass=118.06299
ionization energy=70 eV
ion type=[M]+*
computed spectral entropy=1.7876466674716454
computed normalized entropy=0.6601231641658825
SPLASH=splash10-0007-9000000000-992552dcd9d3c0736701
submitter=submitter = University of Tokyo Team (Faculty of Engineering, University of Tokyo)
MoNA Rating=3.75

>  <NUM PEAKS>  (6350) 
15

>  <MASS SPECTRAL PEAKS>  (6350) 
14 1.58
15 14.88
27 2.4
28 4.6
29 9.53
31 4.32
42 3.22
43 99.99
44 2.74
45 51.37
46 1.17
58 42.46
59 2.67
73 3.64
88 1.37

$$$$

     RDKit          2D

  8  7  0  0  0  0  0  0  0  0999 V2000
   -6.4952    4.5000    0.0000 C   0  0  0  0  0  0  0  0  0  0  0  0
    2.5981    3.7500    0.0000 C   0  0  0  0  0  0  0  0  0  0  0  0
   -5.1962    3.7500    0.0000 C   0  0  0  0  0  0  0  0  0  0  0  0
    1.2990    4.5000    0.0000 C   0  0  0  0  0  0  0  0  0  0  0  0
   -2.5981    3.7500    0.0000 C   0  0  0  0  0  0  0  0  0  0  0  0
   -1.2990    4.5000    0.0000 C   0  0  0  0  0  0  0  0  0  0  0  0
   -3.8971    4.5000    0.0000 O   0  0  0  0  0  0  0  0  0  0  0  0
    0.0000    3.7500    0.0000 O   0  0  0  0  0  0  0  0  0  0  0  0
  3  1  1  0
  4  2  1  0
  6  5  1  0
  7  3  1  0
  7  5  1  0
  8  4  1  0
  8  6  1  0
M  END
>  <NAME>  (6351) 
ETHYLENE GLYCOL DIETHYL ETHER

>  <SYNONYMS>  (6351) 
1,2-DIETHOXYETHANE

>  <SPECTRUM TYPE>  (6351) 
MS1

>  <INSTRUMENT TYPE>  (6351) 
EI-B

>  <INSTRUMENT>  (6351) 
HITACHI RMU-7M

>  <ION MODE>  (6351) 
P

>  <INCHIKEY>  (6351) 
LZDKZFUFMNSQCJ-UHFFFAOYSA-N

>  <FORMULA>  (6351) 
C6H14O2

>  <EXACT MASS>  (6351) 
118.099379688

>  <MW>  (6351) 
118

>  <ID>  (6351) 
JP001691

>  <CONTRIBUTOR>  (6351) 
University of Tokyo Team, {Faculty of Engineering, University of Tokyo

>  <COMMENT>  (6351) 
SMILES=CCOCCOCC
InChI=InChI=1S/C6H14O2/c1-3-7-5-6-8-4-2/h3-6H2,1-2H3
computed SMILES=O(CC)CCOCC
accession=JP001691
date=2016.01.19 (Created 2008.10.21, modified 2011.05.06)
author=TAJIMA S, GUNMA COLLEGE OF TECHNOLOGY
license=CC BY-NC-SA
exact mass=118.09938
ionization energy=70 eV
ion type=[M]+*
computed spectral entropy=2.457018740153306
computed normalized entropy=0.7454916126149305
SPLASH=splash10-0563-9000000000-d8ff5b8759002483f602
submitter=submitter = University of Tokyo Team (Faculty of Engineering, University of Tokyo)
MoNA Rating=3.75

>  <NUM PEAKS>  (6351) 
27

>  <MASS SPECTRAL PEAKS>  (6351) 
14 1.34
15 7.71
26 1.87
27 13.67
28 8.35
29 37.38
30 2.51
31 99.99
32 1.1
41 9.52
42 2.8
43 41.65
44 13.9
45 41.36
46 1.69
47 2.8
58 2.28
59 76.05
60 4.21
61 3.39
72 6.43
73 7.01
74 31.02
75 1.93
87 1.34
88 1
118 0.53

$$$$

     RDKit          2D

  9  9  0  0  0  0  0  0  0  0999 V2000
   -1.6238    3.1325    0.0000 C   0  0  0  0  0  0  0  0  0  0  0  0
   -2.9228    0.8825    0.0000 C   0  0  0  0  0  0  0  0  0  0  0  0
    2.2733   -0.6175    0.0000 C   0  0  0  0  0  0  0  0  0  0  0  0
    2.2738    0.8833    0.0000 C   0  0  0  0  0  0  0  0  0  0  0  0
    0.9738   -1.3683    0.0000 C   0  0  0  0  0  0  0  0  0  0  0  0
    0.9748    1.6333    0.0000 C   0  0  0  0  0  0  0  0  0  0  0  0
   -0.3252   -0.6183    0.0000 C   0  0  0  0  0  0  0  0  0  0  0  0
   -1.6238    1.6325    0.0000 C   0  0  0  0  0  0  0  0  0  0  0  0
   -0.3248    0.8825    0.0000 C   0  0  0  0  0  0  0  0  0  0  0  0
  4  3  2  0
  5  3  1  0
  6  4  1  0
  7  5  2  0
  8  1  2  0
  8  2  1  0
  9  6  2  0
  9  7  1  0
  9  8  1  0
M  END
>  <NAME>  (6352) 
ISOPROPENYLBENZENE

>  <SYNONYMS>  (6352) 
ALPHA-METHYLSTYRENE

>  <SPECTRUM TYPE>  (6352) 
MS1

>  <INSTRUMENT TYPE>  (6352) 
EI-B

>  <INSTRUMENT>  (6352) 
HITACHI RMU-7M

>  <ION MODE>  (6352) 
P

>  <INCHIKEY>  (6352) 
XYLMUPLGERFSHI-UHFFFAOYSA-N

>  <FORMULA>  (6352) 
C9H10

>  <EXACT MASS>  (6352) 
118.07825032

>  <MW>  (6352) 
118

>  <ID>  (6352) 
JP001690

>  <CONTRIBUTOR>  (6352) 
University of Tokyo Team, {Faculty of Engineering, University of Tokyo

>  <COMMENT>  (6352) 
SMILES=CC(=C)c(c1)cccc1
InChI=InChI=1S/C9H10/c1-8(2)9-6-4-3-5-7-9/h3-7H,1H2,2H3
computed SMILES=C=C(C=1C=CC=CC1)C
accession=JP001690
date=2016.01.19 (Created 2008.10.21, modified 2011.05.06)
author=TAJIMA S, GUNMA COLLEGE OF TECHNOLOGY
license=CC BY-NC-SA
exact mass=118.07825
ionization energy=70 eV
ion type=[M]+*
computed spectral entropy=2.748330989728378
computed normalized entropy=0.7793675577251221
SPLASH=splash10-014i-6900000000-13e1647c84d252f25812
submitter=submitter = University of Tokyo Team (Faculty of Engineering, University of Tokyo)
MoNA Rating=3.75

>  <NUM PEAKS>  (6352) 
34

>  <MASS SPECTRAL PEAKS>  (6352) 
27 3.55
28 2.95
38 1.81
39 12.99
40 1.74
41 2.11
50 7.7
51 19.71
52 4.38
53 1.59
57 2.49
57.5 5.97
58 9.74
62 2.49
63 7.18
65 6.19
74 3.17
75 2.87
76 3.47
77 26.13
78 37.24
79 2.95
89 3.85
90 1.66
91 19.86
92 1.96
102 5.21
103 55.89
104 4.68
115 26.59
116 6.04
117 79.46
118 99.99
119 9.74

$$$$

     RDKit          2D

  7  6  0  0  0  0  0  0  0  0999 V2000
    1.6238    1.6875    0.0000 C   0  0  0  0  0  0  0  0  0  0  0  0
   -3.5724    1.6875    0.0000 C   0  0  0  0  0  0  0  0  0  0  0  0
   -0.9743    1.6875    0.0000 C   0  0  0  0  0  0  0  0  0  0  0  0
    0.3248    2.4375    0.0000 C   0  0  0  0  0  0  0  0  0  0  0  0
   -2.2733    2.4375    0.0000 C   0  0  0  0  0  0  0  0  0  0  0  0
    0.3248    3.9375    0.0000 O   0  0  0  0  0  0  0  0  0  0  0  0
   -2.2733    3.9375    0.0000 O   0  0  0  0  0  0  0  0  0  0  0  0
  4  1  1  0
  4  3  1  0
  5  2  1  0
  5  3  1  0
  6  4  2  0
  7  5  2  0
M  END
>  <NAME>  (6353) 
ACETYL ACETONE

>  <SYNONYMS>  (6353) 


>  <SPECTRUM TYPE>  (6353) 
MS1

>  <INSTRUMENT TYPE>  (6353) 
EI-B

>  <INSTRUMENT>  (6353) 
HITACHI RMU-7M

>  <ION MODE>  (6353) 
P

>  <INCHIKEY>  (6353) 
YRKCREAYFQTBPV-UHFFFAOYSA-N

>  <FORMULA>  (6353) 
C5H8O2

>  <EXACT MASS>  (6353) 
100.052429496

>  <MW>  (6353) 
100

>  <ID>  (6353) 
JP001689

>  <CONTRIBUTOR>  (6353) 
University of Tokyo Team, {Faculty of Engineering, University of Tokyo

>  <COMMENT>  (6353) 
SMILES=CC(=O)CC(C)=O
InChI=InChI=1S/C5H8O2/c1-4(6)3-5(2)7/h3H2,1-2H3
computed SMILES=O=C(C)CC(=O)C
accession=JP001689
date=2016.01.19 (Created 2008.10.21, modified 2011.05.06)
author=TAJIMA S, GUNMA COLLEGE OF TECHNOLOGY
license=CC BY-NC-SA
exact mass=100.05243
ionization energy=70 eV
ion type=[M]+*
computed spectral entropy=1.8450505990562105
computed normalized entropy=0.6266221212635004
SPLASH=splash10-0006-9000000000-43699b9ce7635de34706
submitter=submitter = University of Tokyo Team (Faculty of Engineering, University of Tokyo)
MoNA Rating=3.75

>  <NUM PEAKS>  (6353) 
19

>  <MASS SPECTRAL PEAKS>  (6353) 
14 1.43
15 8.33
26 1.21
27 4.03
28 2.15
29 3.59
31 2.21
39 3.42
41 4.03
42 4.8
43 99.99
44 2.37
55 1.1
58 4.3
72 4.75
85 24.67
86 1.21
100 14.68
101 1.38

$$$$

     RDKit          2D

  7  6  0  0  0  0  0  0  0  0999 V2000
    1.9486    3.3750    0.0000 C   0  0  0  0  0  0  0  0  0  0  0  0
    0.6495    4.1250    0.0000 C   0  0  0  0  0  0  0  0  0  0  0  0
   -4.5466    4.1250    0.0000 C   0  0  0  0  0  0  0  0  0  0  0  0
   -0.6495    3.3750    0.0000 C   0  0  0  0  0  0  0  0  0  0  0  0
   -3.2476    3.3750    0.0000 C   0  0  0  0  0  0  0  0  0  0  0  0
   -5.8457    3.3750    0.0000 O   0  0  0  0  0  0  0  0  0  0  0  0
   -1.9486    4.1250    0.0000 O   0  0  0  0  0  0  0  0  0  0  0  0
  2  1  1  0
  4  2  1  0
  5  3  1  0
  6  3  1  0
  7  4  1  0
  7  5  1  0
M  END
>  <NAME>  (6354) 
2-PROPOXYETHANOL

>  <SYNONYMS>  (6354) 
ETHYLENE GLYCOL MONO PROPYL ETHER

>  <SPECTRUM TYPE>  (6354) 
MS1

>  <INSTRUMENT TYPE>  (6354) 
EI-B

>  <INSTRUMENT>  (6354) 
HITACHI RMU-7M

>  <ION MODE>  (6354) 
P

>  <INCHIKEY>  (6354) 
YEYKMVJDLWJFOA-UHFFFAOYSA-N

>  <FORMULA>  (6354) 
C5H12O2

>  <EXACT MASS>  (6354) 
104.083729624

>  <MW>  (6354) 
104

>  <ID>  (6354) 
JP001688

>  <CONTRIBUTOR>  (6354) 
University of Tokyo Team, {Faculty of Engineering, University of Tokyo

>  <COMMENT>  (6354) 
SMILES=CCCOCCO
InChI=InChI=1S/C5H12O2/c1-2-4-7-5-3-6/h6H,2-5H2,1H3
computed SMILES=OCCOCCC
accession=JP001688
date=2016.01.19 (Created 2008.10.21, modified 2011.05.06)
author=TAJIMA S, GUNMA COLLEGE OF TECHNOLOGY
license=CC BY-NC-SA
exact mass=104.08373
ionization energy=70 eV
ion type=[M]+*
computed spectral entropy=2.178272948066331
computed normalized entropy=0.7154727851817574
SPLASH=splash10-0006-9000000000-aae83dcce4523b7e9612
submitter=submitter = University of Tokyo Team (Faculty of Engineering, University of Tokyo)
MoNA Rating=3.75

>  <NUM PEAKS>  (6354) 
21

>  <MASS SPECTRAL PEAKS>  (6354) 
15 2.26
19 2.53
27 16.17
28 2.1
29 4.64
31 12.83
39 3.56
41 23.45
42 5.23
43 99.99
44 4.47
45 39.3
46 1.02
55 3.4
57 3.13
58 2.48
59 2.05
73 20.43
74 0.97
75 4.1
86 5.34

$$$$

     RDKit          2D

  9  8  0  0  0  0  0  0  0  0999 V2000
   -7.4695    3.9375    0.0000 C   0  0  0  0  0  0  0  0  0  0  0  0
    1.6238    3.1875    0.0000 C   0  0  0  0  0  0  0  0  0  0  0  0
   -6.1704    3.1875    0.0000 C   0  0  0  0  0  0  0  0  0  0  0  0
   -4.8714    3.9375    0.0000 C   0  0  0  0  0  0  0  0  0  0  0  0
   -3.5724    3.1875    0.0000 C   0  0  0  0  0  0  0  0  0  0  0  0
   -2.2733    3.9375    0.0000 C   0  0  0  0  0  0  0  0  0  0  0  0
    0.3248    3.9375    0.0000 C   0  0  0  0  0  0  0  0  0  0  0  0
    0.3248    5.4375    0.0000 O   0  0  0  0  0  0  0  0  0  0  0  0
   -0.9743    3.1875    0.0000 O   0  0  0  0  0  0  0  0  0  0  0  0
  3  1  1  0
  4  3  1  0
  5  4  1  0
  6  5  1  0
  7  2  1  0
  8  7  2  0
  9  6  1  0
  9  7  1  0
M  END
>  <NAME>  (6355) 
ACETIC ACID AMYL ESTER

>  <SYNONYMS>  (6355) 
PENTYL ACETATE

>  <SPECTRUM TYPE>  (6355) 
MS1

>  <INSTRUMENT TYPE>  (6355) 
EI-B

>  <INSTRUMENT>  (6355) 
HITACHI RMU-7M

>  <ION MODE>  (6355) 
P

>  <INCHIKEY>  (6355) 
PGMYKACGEOXYJE-UHFFFAOYSA-N

>  <FORMULA>  (6355) 
C7H14O2

>  <EXACT MASS>  (6355) 
130.099379688

>  <MW>  (6355) 
130

>  <ID>  (6355) 
JP001687

>  <CONTRIBUTOR>  (6355) 
University of Tokyo Team, {Faculty of Engineering, University of Tokyo

>  <COMMENT>  (6355) 
SMILES=CCCCCOC(C)=O
InChI=InChI=1S/C7H14O2/c1-3-4-5-6-9-7(2)8/h3-6H2,1-2H3
computed SMILES=O=C(OCCCCC)C
accession=JP001687
date=2016.01.19 (Created 2008.10.21, modified 2011.05.06)
author=TAJIMA S, GUNMA COLLEGE OF TECHNOLOGY
license=CC BY-NC-SA
exact mass=130.09938
ionization energy=70 eV
ion type=[M]+*
computed spectral entropy=2.2578954357423022
computed normalized entropy=0.7416254870601873
SPLASH=splash10-0006-9000000000-b1bec14ac5b42f1bc36d
submitter=submitter = University of Tokyo Team (Faculty of Engineering, University of Tokyo)
MoNA Rating=3.75

>  <NUM PEAKS>  (6355) 
21

>  <MASS SPECTRAL PEAKS>  (6355) 
15 3.03
27 5.36
28 2.87
29 7.76
31 2.72
39 3.73
41 12.89
42 29.11
43 99.99
44 2.87
45 1.32
55 22.2
56 1.86
57 2.33
58 3.73
61 19.02
69 5.82
70 31.06
71 2.48
73 11.57
87 1.16

$$$$

     RDKit          2D

 14 13  0  0  0  0  0  0  0  0999 V2000
    2.9228    5.4375    0.0000 C   0  0  0  0  0  0  0  0  0  0  0  0
   -0.9743    3.1875    0.0000 C   0  0  0  0  0  0  0  0  0  0  0  0
   -7.4695    3.9375    0.0000 C   0  0  0  0  0  0  0  0  0  0  0  0
   -8.7685    6.1875    0.0000 C   0  0  0  0  0  0  0  0  0  0  0  0
    1.6238    6.1875    0.0000 C   0  0  0  0  0  0  0  0  0  0  0  0
   -2.2733    3.9375    0.0000 C   0  0  0  0  0  0  0  0  0  0  0  0
    0.3248    5.4375    0.0000 C   0  0  0  0  0  0  0  0  0  0  0  0
   -0.9743    6.1875    0.0000 C   0  0  0  0  0  0  0  0  0  0  0  0
   -3.5724    6.1875    0.0000 C   0  0  0  0  0  0  0  0  0  0  0  0
   -7.4695    5.4375    0.0000 C   0  0  0  0  0  0  0  0  0  0  0  0
   -2.2733    5.4375    0.0000 C   0  0  0  0  0  0  0  0  0  0  0  0
   -6.1704    6.1875    0.0000 C   0  0  0  0  0  0  0  0  0  0  0  0
   -6.1704    7.6875    0.0000 O   0  0  0  0  0  0  0  0  0  0  0  0
   -4.8714    5.4375    0.0000 O   0  0  0  0  0  0  0  0  0  0  0  0
  5  1  1  0
  6  2  1  0
  7  5  1  0
  8  7  1  0
 10  3  2  0
 10  4  1  0
 11  6  1  0
 11  8  1  0
 11  9  1  0
 12 10  1  0
 13 12  2  0
 14  9  1  0
 14 12  1  0
M  END
>  <NAME>  (6356) 
METHACRYLIC ACID 2-ETHYLHEXYL ESTER

>  <SYNONYMS>  (6356) 
2-ETHYLHEXYL METHACRYLATE

>  <SPECTRUM TYPE>  (6356) 
MS1

>  <INSTRUMENT TYPE>  (6356) 
EI-B

>  <INSTRUMENT>  (6356) 
HITACHI RMU-7M

>  <ION MODE>  (6356) 
P

>  <INCHIKEY>  (6356) 
WDQMWEYDKDCEHT-UHFFFAOYSA-N

>  <FORMULA>  (6356) 
C12H22O2

>  <EXACT MASS>  (6356) 
198.161979944

>  <MW>  (6356) 
198

>  <ID>  (6356) 
JP001686

>  <CONTRIBUTOR>  (6356) 
University of Tokyo Team, {Faculty of Engineering, University of Tokyo

>  <COMMENT>  (6356) 
SMILES=CCCCC(CC)COC(=O)C(C)=C
InChI=InChI=1S/C12H22O2/c1-5-7-8-11(6-2)9-14-12(13)10(3)4/h11H,3,5-9H2,1-2,4H3
computed SMILES=O=C(OCC(CC)CCCC)C(=C)C
accession=JP001686
date=2016.01.19 (Created 2008.10.21, modified 2011.05.06)
author=TAJIMA S, GUNMA COLLEGE OF TECHNOLOGY
license=CC BY-NC-SA
exact mass=198.16198
ionization energy=70 eV
ion type=[M]+*
computed spectral entropy=2.6708153668776853
computed normalized entropy=0.7706344169848948
SPLASH=splash10-0603-9000000000-52174175656da66091c0
submitter=submitter = University of Tokyo Team (Faculty of Engineering, University of Tokyo)
MoNA Rating=3.75

>  <NUM PEAKS>  (6356) 
32

>  <MASS SPECTRAL PEAKS>  (6356) 
15 0.44
27 6.56
28 2.22
29 12.78
39 11.5
40 2.89
41 63.11
42 10.5
43 19.72
53 1.5
54 1.78
55 30.89
56 20.44
57 31.83
58 1.61
67 1.39
68 1.89
69 94.39
70 99.99
71 13.44
82 4.06
83 21.56
84 12.33
85 2.17
87 11.11
97 2.67
98 1.06
99 4.28
100 2
111 1.11
112 19.78
113 2

$$$$

     RDKit          2D

  9  8  0  0  0  0  0  0  0  0999 V2000
    1.9486    3.3750    0.0000 C   0  0  0  0  0  0  0  0  0  0  0  0
   -4.5466    5.6250    0.0000 C   0  0  0  0  0  0  0  0  0  0  0  0
   -5.8457    3.3750    0.0000 C   0  0  0  0  0  0  0  0  0  0  0  0
    0.6495    4.1250    0.0000 C   0  0  0  0  0  0  0  0  0  0  0  0
   -0.6495    3.3750    0.0000 C   0  0  0  0  0  0  0  0  0  0  0  0
   -4.5466    4.1250    0.0000 C   0  0  0  0  0  0  0  0  0  0  0  0
   -3.2476    3.3750    0.0000 C   0  0  0  0  0  0  0  0  0  0  0  0
   -3.2476    1.8750    0.0000 O   0  0  0  0  0  0  0  0  0  0  0  0
   -1.9486    4.1250    0.0000 O   0  0  0  0  0  0  0  0  0  0  0  0
  4  1  2  0
  5  4  1  0
  6  2  2  0
  6  3  1  0
  7  6  1  0
  8  7  2  0
  9  5  1  0
  9  7  1  0
M  END
>  <NAME>  (6357) 
METHACRYLIC ACID ALLYL ESTER

>  <SYNONYMS>  (6357) 
ALLYL METHACRYLATE

>  <SPECTRUM TYPE>  (6357) 
MS1

>  <INSTRUMENT TYPE>  (6357) 
EI-B

>  <INSTRUMENT>  (6357) 
HITACHI RMU-7M

>  <ION MODE>  (6357) 
P

>  <INCHIKEY>  (6357) 
FBCQUCJYYPMKRO-UHFFFAOYSA-N

>  <FORMULA>  (6357) 
C7H10O2

>  <EXACT MASS>  (6357) 
126.06807956

>  <MW>  (6357) 
126

>  <ID>  (6357) 
JP001685

>  <CONTRIBUTOR>  (6357) 
University of Tokyo Team, {Faculty of Engineering, University of Tokyo

>  <COMMENT>  (6357) 
SMILES=C=CCOC(=O)C(C)=C
InChI=InChI=1S/C7H10O2/c1-4-5-9-7(8)6(2)3/h4H,1-2,5H2,3H3
computed SMILES=O=C(OCC=C)C(=C)C
accession=JP001685
date=2016.01.19 (Created 2008.10.21, modified 2011.05.06)
author=TAJIMA S, GUNMA COLLEGE OF TECHNOLOGY
license=CC BY-NC-SA
exact mass=126.06808
ionization energy=70 eV
ion type=[M]+*
computed spectral entropy=1.989594867187981
computed normalized entropy=0.6181023983021919
SPLASH=splash10-014l-9000000000-b36180c9f35e5bd3c2fe
submitter=submitter = University of Tokyo Team (Faculty of Engineering, University of Tokyo)
MoNA Rating=3.75

>  <NUM PEAKS>  (6357) 
25

>  <MASS SPECTRAL PEAKS>  (6357) 
15 1.56
26 1.35
27 3.18
28 2.23
29 2.57
31 1.08
38 2.1
39 25.56
40 5.41
41 95.74
42 4.73
43 2.7
55 1.89
57 6.29
67 1.35
69 99.99
70 6.36
79 1.49
81 15.55
82 1.56
87 2.16
97 2.23
98 1.15
111 8.11
126 0.41

$$$$

     RDKit          2D

 12 11  0  0  0  0  0  0  0  0999 V2000
    2.9228    5.4375    0.0000 C   0  0  0  0  0  0  0  0  0  0  0  0
   -7.4695    3.9375    0.0000 C   0  0  0  0  0  0  0  0  0  0  0  0
   -8.7685    6.1875    0.0000 C   0  0  0  0  0  0  0  0  0  0  0  0
    1.6238    6.1875    0.0000 C   0  0  0  0  0  0  0  0  0  0  0  0
    0.3248    5.4375    0.0000 C   0  0  0  0  0  0  0  0  0  0  0  0
   -0.9743    6.1875    0.0000 C   0  0  0  0  0  0  0  0  0  0  0  0
   -2.2733    5.4375    0.0000 C   0  0  0  0  0  0  0  0  0  0  0  0
   -3.5724    6.1875    0.0000 C   0  0  0  0  0  0  0  0  0  0  0  0
   -7.4695    5.4375    0.0000 C   0  0  0  0  0  0  0  0  0  0  0  0
   -6.1704    6.1875    0.0000 C   0  0  0  0  0  0  0  0  0  0  0  0
   -6.1704    7.6875    0.0000 O   0  0  0  0  0  0  0  0  0  0  0  0
   -4.8714    5.4375    0.0000 O   0  0  0  0  0  0  0  0  0  0  0  0
  4  1  1  0
  5  4  1  0
  6  5  1  0
  7  6  1  0
  8  7  1  0
  9  2  2  0
  9  3  1  0
 10  9  1  0
 11 10  2  0
 12  8  1  0
 12 10  1  0
M  END
>  <NAME>  (6358) 
METHACRYLIC ACID HEXYL ESTER

>  <SYNONYMS>  (6358) 
HEXYL METHACRYLATE

>  <SPECTRUM TYPE>  (6358) 
MS1

>  <INSTRUMENT TYPE>  (6358) 
EI-B

>  <INSTRUMENT>  (6358) 
HITACHI RMU-7M

>  <ION MODE>  (6358) 
P

>  <INCHIKEY>  (6358) 
LNCPIMCVTKXXOY-UHFFFAOYSA-N

>  <FORMULA>  (6358) 
C10H18O2

>  <EXACT MASS>  (6358) 
170.130679816

>  <MW>  (6358) 
170

>  <ID>  (6358) 
JP001684

>  <CONTRIBUTOR>  (6358) 
University of Tokyo Team, {Faculty of Engineering, University of Tokyo

>  <COMMENT>  (6358) 
SMILES=CCCCCCOC(=O)C(C)=C
InChI=InChI=1S/C10H18O2/c1-4-5-6-7-8-12-10(11)9(2)3/h2,4-8H2,1,3H3
computed SMILES=O=C(OCCCCCC)C(=C)C
accession=JP001684
date=2016.01.19 (Created 2008.10.21, modified 2011.05.06)
author=TAJIMA S, GUNMA COLLEGE OF TECHNOLOGY
license=CC BY-NC-SA
exact mass=170.13068
ionization energy=70 eV
ion type=[M]+*
computed spectral entropy=2.5514835231353725
computed normalized entropy=0.7362025251474605
SPLASH=splash10-05mx-9000000000-bd96149dd8abfd0cc675
submitter=submitter = University of Tokyo Team (Faculty of Engineering, University of Tokyo)
MoNA Rating=3.75

>  <NUM PEAKS>  (6358) 
32

>  <MASS SPECTRAL PEAKS>  (6358) 
15 0.66
27 7.25
28 2.77
29 9.09
31 0.92
39 13.37
40 3.82
41 67.79
42 23.98
43 37.22
44 1.58
45 1.45
53 1.25
54 1.98
55 28
56 57.25
57 5.4
59 1.52
67 1.2
68 1.45
69 99.99
70 7.51
83 3.29
84 31.82
85 2.64
86 2.37
87 64.56
88 3.43
97 2.83
99 1.32
113 1.05
127 0.66

$$$$

     RDKit          2D

 10  9  0  0  0  0  0  0  0  0999 V2000
   -4.4596    3.2243    0.0000 C   0  0  0  0  0  0  0  0  0  0  0  0
   -3.1606    0.9743    0.0000 C   0  0  0  0  0  0  0  0  0  0  0  0
    1.4865    1.9252    0.0000 C   0  0  0  0  0  0  0  0  0  0  0  0
    2.0356    3.9743    0.0000 C   0  0  0  0  0  0  0  0  0  0  0  0
   -0.0135    4.5233    0.0000 C   0  0  0  0  0  0  0  0  0  0  0  0
   -3.1606    2.4743    0.0000 C   0  0  0  0  0  0  0  0  0  0  0  0
   -1.8615    3.2243    0.0000 C   0  0  0  0  0  0  0  0  0  0  0  0
    0.7365    3.2243    0.0000 C   0  0  0  0  0  0  0  0  0  0  0  0
   -1.8615    4.7243    0.0000 O   0  0  0  0  0  0  0  0  0  0  0  0
   -0.5625    2.4743    0.0000 O   0  0  0  0  0  0  0  0  0  0  0  0
  6  1  2  0
  6  2  1  0
  7  6  1  0
  8  3  1  0
  8  4  1  0
  8  5  1  0
  9  7  2  0
 10  7  1  0
 10  8  1  0
M  END
>  <NAME>  (6359) 
METHACRYLIC ACID TERT-BUTYL ESTER

>  <SYNONYMS>  (6359) 
TERT-BUTYL METHACRYLATE

>  <SPECTRUM TYPE>  (6359) 
MS1

>  <INSTRUMENT TYPE>  (6359) 
EI-B

>  <INSTRUMENT>  (6359) 
HITACHI RMU-7M

>  <ION MODE>  (6359) 
P

>  <INCHIKEY>  (6359) 
SJMYWORNLPSJQO-UHFFFAOYSA-N

>  <FORMULA>  (6359) 
C8H14O2

>  <EXACT MASS>  (6359) 
142.099379688

>  <MW>  (6359) 
142

>  <ID>  (6359) 
JP001683

>  <CONTRIBUTOR>  (6359) 
University of Tokyo Team, {Faculty of Engineering, University of Tokyo

>  <COMMENT>  (6359) 
SMILES=CC(=C)C(=O)OC(C)(C)C
InChI=InChI=1S/C8H14O2/c1-6(2)7(9)10-8(3,4)5/h1H2,2-5H3
computed SMILES=O=C(OC(C)(C)C)C(=C)C
accession=JP001683
date=2016.01.19 (Created 2008.10.21, modified 2011.05.06)
author=TAJIMA S, GUNMA COLLEGE OF TECHNOLOGY
license=CC BY-NC-SA
exact mass=142.09938
ionization energy=70 eV
ion type=[M]+*
computed spectral entropy=2.2666209531995847
computed normalized entropy=0.695688702513406
SPLASH=splash10-0a4i-9000000000-2e0e4d0166ab1b7a7448
submitter=submitter = University of Tokyo Team (Faculty of Engineering, University of Tokyo)
MoNA Rating=3.75

>  <NUM PEAKS>  (6359) 
26

>  <MASS SPECTRAL PEAKS>  (6359) 
15 1.68
27 3.75
28 2.75
29 17.14
31 1.45
38 1.07
39 12.78
40 2.91
41 59.76
42 2.45
43 3.75
55 3.37
56 28.39
57 99.99
58 4.44
59 2.98
69 62.51
70 2.83
86 1.38
87 19.74
88 0.92
91 5.36
105 0.92
106 2.45
124 1.53
127 1.76

$$$$

     RDKit          2D

 10  9  0  0  0  0  0  0  0  0999 V2000
    2.2733    2.8125    0.0000 C   0  0  0  0  0  0  0  0  0  0  0  0
    0.9743    5.0625    0.0000 C   0  0  0  0  0  0  0  0  0  0  0  0
   -4.2219    5.0625    0.0000 C   0  0  0  0  0  0  0  0  0  0  0  0
   -5.5209    2.8125    0.0000 C   0  0  0  0  0  0  0  0  0  0  0  0
   -0.3248    2.8125    0.0000 C   0  0  0  0  0  0  0  0  0  0  0  0
    0.9743    3.5625    0.0000 C   0  0  0  0  0  0  0  0  0  0  0  0
   -4.2219    3.5625    0.0000 C   0  0  0  0  0  0  0  0  0  0  0  0
   -2.9228    2.8125    0.0000 C   0  0  0  0  0  0  0  0  0  0  0  0
   -2.9228    1.3125    0.0000 O   0  0  0  0  0  0  0  0  0  0  0  0
   -1.6238    3.5625    0.0000 O   0  0  0  0  0  0  0  0  0  0  0  0
  6  1  1  0
  6  2  1  0
  6  5  1  0
  7  3  2  0
  7  4  1  0
  8  7  1  0
  9  8  2  0
 10  5  1  0
 10  8  1  0
M  END
>  <NAME>  (6360) 
METHACRYLIC ACID ISOBUTYL ESTER

>  <SYNONYMS>  (6360) 
ISOBUTYL METHACRYLATE

>  <SPECTRUM TYPE>  (6360) 
MS1

>  <INSTRUMENT TYPE>  (6360) 
EI-B

>  <INSTRUMENT>  (6360) 
HITACHI RMU-7M

>  <ION MODE>  (6360) 
P

>  <INCHIKEY>  (6360) 
RUMACXVDVNRZJZ-UHFFFAOYSA-N

>  <FORMULA>  (6360) 
C8H14O2

>  <EXACT MASS>  (6360) 
142.099379688

>  <MW>  (6360) 
142

>  <ID>  (6360) 
JP001682

>  <CONTRIBUTOR>  (6360) 
University of Tokyo Team, {Faculty of Engineering, University of Tokyo

>  <COMMENT>  (6360) 
SMILES=CC(C)COC(=O)C(C)=C
InChI=InChI=1S/C8H14O2/c1-6(2)5-10-8(9)7(3)4/h6H,3,5H2,1-2,4H3
computed SMILES=O=C(OCC(C)C)C(=C)C
accession=JP001682
date=2016.01.19 (Created 2008.10.21, modified 2011.05.06)
author=TAJIMA S, GUNMA COLLEGE OF TECHNOLOGY
license=CC BY-NC-SA
exact mass=142.09938
ionization energy=70 eV
ion type=[M]+*
computed spectral entropy=2.028473189126163
computed normalized entropy=0.6662697452947588
SPLASH=splash10-066u-9000000000-eb6a9221d885699b6f95
submitter=submitter = University of Tokyo Team (Faculty of Engineering, University of Tokyo)
MoNA Rating=3.75

>  <NUM PEAKS>  (6360) 
21

>  <MASS SPECTRAL PEAKS>  (6360) 
15 0.72
27 3.71
28 1.91
29 8.45
31 0.67
39 11.86
40 2.99
41 56.65
42 3.09
43 3.56
55 3.2
56 52.11
57 8.35
59 1.03
69 99.99
70 5.15
73 1.44
87 23.35
88 1.08
99 2.01
112 0.52

$$$$

     RDKit          2D

 10  9  0  0  0  0  0  0  0  0999 V2000
   -7.4695    3.9375    0.0000 C   0  0  0  0  0  0  0  0  0  0  0  0
    0.3248    5.4375    0.0000 C   0  0  0  0  0  0  0  0  0  0  0  0
    1.6238    3.1875    0.0000 C   0  0  0  0  0  0  0  0  0  0  0  0
   -6.1704    3.1875    0.0000 C   0  0  0  0  0  0  0  0  0  0  0  0
   -4.8714    3.9375    0.0000 C   0  0  0  0  0  0  0  0  0  0  0  0
   -3.5724    3.1875    0.0000 C   0  0  0  0  0  0  0  0  0  0  0  0
    0.3248    3.9375    0.0000 C   0  0  0  0  0  0  0  0  0  0  0  0
   -0.9743    3.1875    0.0000 C   0  0  0  0  0  0  0  0  0  0  0  0
   -0.9743    1.6875    0.0000 O   0  0  0  0  0  0  0  0  0  0  0  0
   -2.2733    3.9375    0.0000 O   0  0  0  0  0  0  0  0  0  0  0  0
  4  1  1  0
  5  4  1  0
  6  5  1  0
  7  2  2  0
  7  3  1  0
  8  7  1  0
  9  8  2  0
 10  6  1  0
 10  8  1  0
M  END
>  <NAME>  (6361) 
METHACRYLIC ACID BUTYL ESTER

>  <SYNONYMS>  (6361) 
BUTYL METHACRYLATE

>  <SPECTRUM TYPE>  (6361) 
MS1

>  <INSTRUMENT TYPE>  (6361) 
EI-B

>  <INSTRUMENT>  (6361) 
HITACHI RMU-7M

>  <ION MODE>  (6361) 
P

>  <INCHIKEY>  (6361) 
SOGAXMICEFXMKE-UHFFFAOYSA-N

>  <FORMULA>  (6361) 
C8H14O2

>  <EXACT MASS>  (6361) 
142.099379688

>  <MW>  (6361) 
142

>  <ID>  (6361) 
JP001681

>  <CONTRIBUTOR>  (6361) 
University of Tokyo Team, {Faculty of Engineering, University of Tokyo

>  <COMMENT>  (6361) 
SMILES=CCCCOC(=O)C(C)=C
InChI=InChI=1S/C8H14O2/c1-4-5-6-10-8(9)7(2)3/h2,4-6H2,1,3H3
computed SMILES=O=C(OCCCC)C(=C)C
accession=JP001681
date=2016.01.19 (Created 2008.10.21, modified 2011.05.06)
author=TAJIMA S, GUNMA COLLEGE OF TECHNOLOGY
license=CC BY-NC-SA
exact mass=142.09938
ionization energy=70 eV
ion type=[M]+*
computed spectral entropy=2.2959875586929477
computed normalized entropy=0.6966326465898364
SPLASH=splash10-0673-9000000000-c486d6de692ac2db015a
submitter=submitter = University of Tokyo Team (Faculty of Engineering, University of Tokyo)
MoNA Rating=3.75

>  <NUM PEAKS>  (6361) 
27

>  <MASS SPECTRAL PEAKS>  (6361) 
15 1.18
26 1.23
27 7.85
28 4.76
29 19.23
31 1.63
39 18.44
40 4.99
41 85.48
42 4.6
43 5.38
45 2.07
55 9.98
56 59.08
57 8.41
59 2.13
68 1.46
69 99.99
70 6
71 1.01
73 1.01
74 1.12
86 3.25
87 68.33
88 3.31
99 1.29
113 1.23

$$$$

     RDKit          2D

  9  8  0  0  0  0  0  0  0  0999 V2000
    1.9486    2.6250    0.0000 C   0  0  0  0  0  0  0  0  0  0  0  0
    0.6495    4.8750    0.0000 C   0  0  0  0  0  0  0  0  0  0  0  0
   -4.5466    3.3750    0.0000 C   0  0  0  0  0  0  0  0  0  0  0  0
   -3.2476    1.1250    0.0000 C   0  0  0  0  0  0  0  0  0  0  0  0
    0.6495    3.3750    0.0000 C   0  0  0  0  0  0  0  0  0  0  0  0
   -3.2476    2.6250    0.0000 C   0  0  0  0  0  0  0  0  0  0  0  0
   -0.6495    2.6250    0.0000 C   0  0  0  0  0  0  0  0  0  0  0  0
   -0.6495    1.1250    0.0000 O   0  0  0  0  0  0  0  0  0  0  0  0
   -1.9486    3.3750    0.0000 O   0  0  0  0  0  0  0  0  0  0  0  0
  5  1  2  0
  5  2  1  0
  6  3  1  0
  6  4  1  0
  7  5  1  0
  8  7  2  0
  9  6  1  0
  9  7  1  0
M  END
>  <NAME>  (6362) 
METHACRYLIC ACID ISOPROPYL ESTER

>  <SYNONYMS>  (6362) 
ISOPROPYL METHACRYLATE

>  <SPECTRUM TYPE>  (6362) 
MS1

>  <INSTRUMENT TYPE>  (6362) 
EI-B

>  <INSTRUMENT>  (6362) 
HITACHI RMU-7M

>  <ION MODE>  (6362) 
P

>  <INCHIKEY>  (6362) 
BOQSSGDQNWEFSX-UHFFFAOYSA-N

>  <FORMULA>  (6362) 
C7H12O2

>  <EXACT MASS>  (6362) 
128.083729624

>  <MW>  (6362) 
128

>  <ID>  (6362) 
JP001680

>  <CONTRIBUTOR>  (6362) 
University of Tokyo Team, {Faculty of Engineering, University of Tokyo

>  <COMMENT>  (6362) 
SMILES=CC(C)OC(=O)C(C)=C
InChI=InChI=1S/C7H12O2/c1-5(2)7(8)9-6(3)4/h6H,1H2,2-4H3
computed SMILES=O=C(OC(C)C)C(=C)C
accession=JP001680
date=2016.01.19 (Created 2008.10.21, modified 2011.05.06)
author=TAJIMA S, GUNMA COLLEGE OF TECHNOLOGY
license=CC BY-NC-SA
exact mass=128.08373
ionization energy=70 eV
ion type=[M]+*
computed spectral entropy=2.4041270398332544
computed normalized entropy=0.7214824397758371
SPLASH=splash10-00kf-9000000000-83a970125ce317c3c4ee
submitter=submitter = University of Tokyo Team (Faculty of Engineering, University of Tokyo)
MoNA Rating=3.75

>  <NUM PEAKS>  (6362) 
28

>  <MASS SPECTRAL PEAKS>  (6362) 
15 3.02
26 1.07
27 11.2
28 2.33
29 1.45
31 1.89
38 1.89
39 21.96
40 5.6
41 77.53
42 15.04
43 69.54
44 2.52
45 5.35
55 1.26
59 24.1
68 1.76
69 99.99
70 13.22
74 1.26
82 1.76
83 5.98
86 5.54
87 52.67
88 2.39
110 0.69
113 5.29
128 1.89

$$$$

     RDKit          2D

  8  7  0  0  0  0  0  0  0  0999 V2000
    1.6238    3.1875    0.0000 C   0  0  0  0  0  0  0  0  0  0  0  0
   -3.5724    1.6875    0.0000 C   0  0  0  0  0  0  0  0  0  0  0  0
   -4.8714    3.9375    0.0000 C   0  0  0  0  0  0  0  0  0  0  0  0
    0.3248    3.9375    0.0000 C   0  0  0  0  0  0  0  0  0  0  0  0
   -3.5724    3.1875    0.0000 C   0  0  0  0  0  0  0  0  0  0  0  0
   -2.2733    3.9375    0.0000 C   0  0  0  0  0  0  0  0  0  0  0  0
   -2.2733    5.4375    0.0000 O   0  0  0  0  0  0  0  0  0  0  0  0
   -0.9743    3.1875    0.0000 O   0  0  0  0  0  0  0  0  0  0  0  0
  4  1  1  0
  5  2  2  0
  5  3  1  0
  6  5  1  0
  7  6  2  0
  8  4  1  0
  8  6  1  0
M  END
>  <NAME>  (6363) 
METHACRYLIC ACID ETHYL ESTER

>  <SYNONYMS>  (6363) 
ETHYL METHACRYLATE

>  <SPECTRUM TYPE>  (6363) 
MS1

>  <INSTRUMENT TYPE>  (6363) 
EI-B

>  <INSTRUMENT>  (6363) 
HITACHI RMU-7M

>  <ION MODE>  (6363) 
P

>  <INCHIKEY>  (6363) 
SUPCQIBBMFXVTL-UHFFFAOYSA-N

>  <FORMULA>  (6363) 
C6H10O2

>  <EXACT MASS>  (6363) 
114.06807956

>  <MW>  (6363) 
114

>  <ID>  (6363) 
JP001679

>  <CONTRIBUTOR>  (6363) 
University of Tokyo Team, {Faculty of Engineering, University of Tokyo

>  <COMMENT>  (6363) 
SMILES=CCOC(=O)C(C)=C
InChI=InChI=1S/C6H10O2/c1-4-8-6(7)5(2)3/h2,4H2,1,3H3
computed SMILES=O=C(OCC)C(=C)C
accession=JP001679
date=2016.01.19 (Created 2008.10.21, modified 2011.05.06)
author=TAJIMA S, GUNMA COLLEGE OF TECHNOLOGY
license=CC BY-NC-SA
exact mass=114.06808
ionization energy=70 eV
ion type=[M]+*
computed spectral entropy=2.384117429988784
computed normalized entropy=0.7317516231230421
SPLASH=splash10-014l-9000000000-d36b841316cfbfab4ba6
submitter=submitter = University of Tokyo Team (Faculty of Engineering, University of Tokyo)
MoNA Rating=3.75

>  <NUM PEAKS>  (6363) 
26

>  <MASS SPECTRAL PEAKS>  (6363) 
15 3.12
26 2.82
27 12.34
28 3.73
29 33.21
38 3.05
39 29.7
40 8.61
41 91.77
42 8.38
43 3.66
45 9.6
55 2.89
58 2.82
68 5.18
69 99.99
70 8.38
71 2.51
85 1.6
86 17.52
87 2.36
96 2.21
99 11.42
113 1.45
114 6.09
115 0.76

$$$$

     RDKit          2D

  6  5  0  0  0  0  0  0  0  0999 V2000
   -0.0000   -0.0000    0.0000 C   0  0  0  0  0  0  0  0  0  0  0  0
    1.2990    2.2500    0.0000 C   0  0  0  0  0  0  0  0  0  0  0  0
   -0.0000    1.5000    0.0000 C   0  0  0  0  0  0  0  0  0  0  0  0
   -1.2990    2.2500    0.0000 C   0  0  0  0  0  0  0  0  0  0  0  0
   -2.5981    1.5000    0.0000 O   0  0  0  0  0  0  0  0  0  0  0  0
   -1.2990    3.7500    0.0000 O   0  0  0  0  0  0  0  0  0  0  0  0
  3  1  2  0
  3  2  1  0
  4  3  1  0
  5  4  2  0
  6  4  1  0
M  END
>  <NAME>  (6364) 
METHACRYLIC ACID

>  <SYNONYMS>  (6364) 


>  <SPECTRUM TYPE>  (6364) 
MS1

>  <INSTRUMENT TYPE>  (6364) 
EI-B

>  <INSTRUMENT>  (6364) 
HITACHI RMU-7M

>  <ION MODE>  (6364) 
P

>  <INCHIKEY>  (6364) 
CERQOIWHTDAKMF-UHFFFAOYSA-N

>  <FORMULA>  (6364) 
C4H6O2

>  <EXACT MASS>  (6364) 
86.036779432

>  <MW>  (6364) 
86

>  <ID>  (6364) 
JP001678

>  <CONTRIBUTOR>  (6364) 
University of Tokyo Team, {Faculty of Engineering, University of Tokyo

>  <COMMENT>  (6364) 
SMILES=CC(=C)C(O)=O
InChI=InChI=1S/C4H6O2/c1-3(2)4(5)6/h1H2,2H3,(H,5,6)
computed SMILES=O=C(O)C(=C)C
accession=JP001678
date=2016.01.19 (Created 2008.10.21, modified 2011.05.06)
author=TAJIMA S, GUNMA COLLEGE OF TECHNOLOGY
license=CC BY-NC-SA
exact mass=86.03678
ionization energy=70 eV
ion type=[M]+*
computed spectral entropy=2.288103061098794
computed normalized entropy=0.7199698882533665
SPLASH=splash10-000l-9000000000-c9d0061e71d30b1e89c3
submitter=submitter = University of Tokyo Team (Faculty of Engineering, University of Tokyo)
MoNA Rating=3.75

>  <NUM PEAKS>  (6364) 
24

>  <MASS SPECTRAL PEAKS>  (6364) 
15 2.28
26 2.66
27 5.54
28 4.02
29 3.26
31 1
37 5.32
38 9.04
39 58.92
40 17.46
41 99.99
42 7.59
43 5.32
44 1.9
45 11.31
53 1.75
57 3.26
58 3.95
68 7.44
69 13.9
71 1.75
85 3.64
86 72.29
87 3.87

$$$$

     RDKit          2D

 10 10  0  0  0  0  0  0  0  0999 V2000
   -3.8969    2.5696    0.0000 C   0  0  0  0  0  0  0  0  0  0  0  0
   -2.5978    0.3196    0.0000 C   0  0  0  0  0  0  0  0  0  0  0  0
    2.5983    0.3196    0.0000 C   0  0  0  0  0  0  0  0  0  0  0  0
    2.5988    1.8204    0.0000 C   0  0  0  0  0  0  0  0  0  0  0  0
    1.2988   -0.4312    0.0000 C   0  0  0  0  0  0  0  0  0  0  0  0
    1.2998    2.5704    0.0000 C   0  0  0  0  0  0  0  0  0  0  0  0
   -0.0002    0.3188    0.0000 C   0  0  0  0  0  0  0  0  0  0  0  0
   -1.2988    2.5696    0.0000 C   0  0  0  0  0  0  0  0  0  0  0  0
   -2.5978    1.8196    0.0000 C   0  0  0  0  0  0  0  0  0  0  0  0
    0.0002    1.8196    0.0000 C   0  0  0  0  0  0  0  0  0  0  0  0
  4  3  2  0
  5  3  1  0
  6  4  1  0
  7  5  2  0
  9  1  1  0
  9  2  1  0
  9  8  1  0
 10  6  2  0
 10  7  1  0
 10  8  1  0
M  END
>  <NAME>  (6365) 
ISOBUTYLBENZENE

>  <SYNONYMS>  (6365) 


>  <SPECTRUM TYPE>  (6365) 
MS1

>  <INSTRUMENT TYPE>  (6365) 
EI-B

>  <INSTRUMENT>  (6365) 
HITACHI RMU-7M

>  <ION MODE>  (6365) 
P

>  <INCHIKEY>  (6365) 
KXUHSQYYJYAXGZ-UHFFFAOYSA-N

>  <FORMULA>  (6365) 
C10H14

>  <EXACT MASS>  (6365) 
134.109550448

>  <MW>  (6365) 
134

>  <ID>  (6365) 
JP001677

>  <CONTRIBUTOR>  (6365) 
University of Tokyo Team, {Faculty of Engineering, University of Tokyo

>  <COMMENT>  (6365) 
SMILES=CC(C)Cc(c1)cccc1
InChI=InChI=1S/C10H14/c1-9(2)8-10-6-4-3-5-7-10/h3-7,9H,8H2,1-2H3
computed SMILES=C=1C=CC(=CC1)CC(C)C
accession=JP001677
date=2016.01.19 (Created 2008.10.21, modified 2011.05.06)
author=TAJIMA S, GUNMA COLLEGE OF TECHNOLOGY
license=CC BY-NC-SA
exact mass=134.10955
ionization energy=70 eV
ion type=[M]+*
computed spectral entropy=2.1458499892891045
computed normalized entropy=0.6666457813348448
SPLASH=splash10-0006-9100000000-8955415b16a78341ad8c
submitter=submitter = University of Tokyo Team (Faculty of Engineering, University of Tokyo)
MoNA Rating=3.75

>  <NUM PEAKS>  (6365) 
25

>  <MASS SPECTRAL PEAKS>  (6365) 
27 4.81
28 1.45
29 1.19
39 8.37
41 9.23
43 15.69
50 1.71
51 4.75
52 1.12
56 1.25
57.5 1.25
63 2.97
65 12.26
77 2.83
78 2.44
89 2.18
91 99.99
92 52.54
93 3.49
103 0.86
115 2.31
117 1.45
119 0.92
134 22.02
135 2.18

$$$$

     RDKit          2D

  9  9  0  0  0  0  0  0  0  0999 V2000
   -2.9228    0.8825    0.0000 C   0  0  0  0  0  0  0  0  0  0  0  0
   -1.6238    3.1325    0.0000 C   0  0  0  0  0  0  0  0  0  0  0  0
    2.2733   -0.6175    0.0000 C   0  0  0  0  0  0  0  0  0  0  0  0
    2.2738    0.8833    0.0000 C   0  0  0  0  0  0  0  0  0  0  0  0
    0.9738   -1.3683    0.0000 C   0  0  0  0  0  0  0  0  0  0  0  0
    0.9748    1.6333    0.0000 C   0  0  0  0  0  0  0  0  0  0  0  0
   -0.3252   -0.6183    0.0000 C   0  0  0  0  0  0  0  0  0  0  0  0
   -1.6238    1.6325    0.0000 C   0  0  0  0  0  0  0  0  0  0  0  0
   -0.3248    0.8825    0.0000 C   0  0  0  0  0  0  0  0  0  0  0  0
  4  3  2  0
  5  3  1  0
  6  4  1  0
  7  5  2  0
  8  1  1  0
  8  2  1  0
  9  6  2  0
  9  7  1  0
  9  8  1  0
M  END
>  <NAME>  (6366) 
CUMENE

>  <SYNONYMS>  (6366) 
ISOPROPYLBENZENE

>  <SPECTRUM TYPE>  (6366) 
MS1

>  <INSTRUMENT TYPE>  (6366) 
EI-B

>  <INSTRUMENT>  (6366) 
HITACHI RMU-7M

>  <ION MODE>  (6366) 
P

>  <INCHIKEY>  (6366) 
RWGFKTVRMDUZSP-UHFFFAOYSA-N

>  <FORMULA>  (6366) 
C9H12

>  <EXACT MASS>  (6366) 
120.093900384

>  <MW>  (6366) 
120

>  <ID>  (6366) 
JP001676

>  <CONTRIBUTOR>  (6366) 
University of Tokyo Team, {Faculty of Engineering, University of Tokyo

>  <COMMENT>  (6366) 
SMILES=CC(C)c(c1)cccc1
InChI=InChI=1S/C9H12/c1-8(2)9-6-4-3-5-7-9/h3-8H,1-2H3
computed SMILES=C=1C=CC(=CC1)C(C)C
accession=JP001676
date=2016.01.19 (Created 2008.10.21, modified 2011.05.06)
author=TAJIMA S, GUNMA COLLEGE OF TECHNOLOGY
license=CC BY-NC-SA
exact mass=120.0939
ionization energy=70 eV
ion type=[M]+*
computed spectral entropy=2.3106115300568297
computed normalized entropy=0.7091906280530215
SPLASH=splash10-0a4i-5900000000-85373096cba2d7b6167d
submitter=submitter = University of Tokyo Team (Faculty of Engineering, University of Tokyo)
MoNA Rating=3.75

>  <NUM PEAKS>  (6366) 
26

>  <MASS SPECTRAL PEAKS>  (6366) 
15 0.93
27 5.65
39 7.89
41 4.56
50 3.87
51 13.15
52 3.25
52.5 1.16
53 1.47
63 2.86
65 2.71
74 1.31
75 1.16
76 1.16
77 16.71
78 6.19
79 15.31
89 1.01
91 6.19
103 7.19
104 2.24
105 99.99
106 8.51
119 0.77
120 23.9
121 2.24

$$$$

     RDKit          2D

 10 10  0  0  0  0  0  0  0  0999 V2000
   -4.8712    2.0071    0.0000 C   0  0  0  0  0  0  0  0  0  0  0  0
   -3.5721    2.7571    0.0000 C   0  0  0  0  0  0  0  0  0  0  0  0
   -2.2731    2.0071    0.0000 C   0  0  0  0  0  0  0  0  0  0  0  0
    2.9231    0.5071    0.0000 C   0  0  0  0  0  0  0  0  0  0  0  0
    2.9236    2.0079    0.0000 C   0  0  0  0  0  0  0  0  0  0  0  0
    1.6236   -0.2437    0.0000 C   0  0  0  0  0  0  0  0  0  0  0  0
   -0.9740    2.7571    0.0000 C   0  0  0  0  0  0  0  0  0  0  0  0
    1.6245    2.7579    0.0000 C   0  0  0  0  0  0  0  0  0  0  0  0
    0.3245    0.5063    0.0000 C   0  0  0  0  0  0  0  0  0  0  0  0
    0.3250    2.0071    0.0000 C   0  0  0  0  0  0  0  0  0  0  0  0
  2  1  1  0
  3  2  1  0
  5  4  2  0
  6  4  1  0
  7  3  1  0
  8  5  1  0
  9  6  2  0
 10  7  1  0
 10  8  2  0
 10  9  1  0
M  END
>  <NAME>  (6367) 
BUTYLBENZENE

>  <SYNONYMS>  (6367) 


>  <SPECTRUM TYPE>  (6367) 
MS1

>  <INSTRUMENT TYPE>  (6367) 
EI-B

>  <INSTRUMENT>  (6367) 
HITACHI RMU-7M

>  <ION MODE>  (6367) 
P

>  <INCHIKEY>  (6367) 
OCKPCBLVNKHBMX-UHFFFAOYSA-N

>  <FORMULA>  (6367) 
C10H14

>  <EXACT MASS>  (6367) 
134.109550448

>  <MW>  (6367) 
134

>  <ID>  (6367) 
JP001675

>  <CONTRIBUTOR>  (6367) 
University of Tokyo Team, {Faculty of Engineering, University of Tokyo

>  <COMMENT>  (6367) 
SMILES=CCCCc(c1)cccc1
InChI=InChI=1S/C10H14/c1-2-3-7-10-8-5-4-6-9-10/h4-6,8-9H,2-3,7H2,1H3
computed SMILES=C=1C=CC(=CC1)CCCC
accession=JP001675
date=2016.01.19 (Created 2008.10.21, modified 2011.05.06)
author=TAJIMA S, GUNMA COLLEGE OF TECHNOLOGY
license=CC BY-NC-SA
exact mass=134.10955
ionization energy=70 eV
ion type=[M]+*
computed spectral entropy=2.050064209723567
computed normalized entropy=0.6632274517925949
SPLASH=splash10-0006-9100000000-8aeafb9017bc190eb37e
submitter=submitter = University of Tokyo Team (Faculty of Engineering, University of Tokyo)
MoNA Rating=3.75

>  <NUM PEAKS>  (6367) 
22

>  <MASS SPECTRAL PEAKS>  (6367) 
27 4.2
28 1.4
29 1.33
39 5.67
41 3.71
43 2.1
50 1.47
51 4.83
52 1.26
63 2.1
65 10.71
77 5.04
78 5.18
79 2.73
89 1.54
91 99.99
92 49.9
93 3.5
103 1.75
105 7.84
134 22.04
135 2.24

$$$$

     RDKit          2D

 14 14  0  0  0  0  0  0  0  0999 V2000
   -6.8197    3.1321    0.0000 C   0  0  0  0  0  0  0  0  0  0  0  0
   -5.5207    5.3821    0.0000 C   0  0  0  0  0  0  0  0  0  0  0  0
    3.5726    1.6321    0.0000 C   0  0  0  0  0  0  0  0  0  0  0  0
    3.5731    3.1329    0.0000 C   0  0  0  0  0  0  0  0  0  0  0  0
    2.2731    0.8813    0.0000 C   0  0  0  0  0  0  0  0  0  0  0  0
    2.2740    3.8829    0.0000 C   0  0  0  0  0  0  0  0  0  0  0  0
    0.9740    1.6313    0.0000 C   0  0  0  0  0  0  0  0  0  0  0  0
   -4.2216    3.1321    0.0000 C   0  0  0  0  0  0  0  0  0  0  0  0
   -2.9226    3.8821    0.0000 C   0  0  0  0  0  0  0  0  0  0  0  0
   -5.5207    3.8821    0.0000 C   0  0  0  0  0  0  0  0  0  0  0  0
    0.9745    3.1321    0.0000 C   0  0  0  0  0  0  0  0  0  0  0  0
   -0.3245    3.8821    0.0000 C   0  0  0  0  0  0  0  0  0  0  0  0
   -0.3245    5.3821    0.0000 O   0  0  0  0  0  0  0  0  0  0  0  0
   -1.6236    3.1321    0.0000 O   0  0  0  0  0  0  0  0  0  0  0  0
  4  3  2  0
  5  3  1  0
  6  4  1  0
  7  5  2  0
  9  8  1  0
 10  1  1  0
 10  2  1  0
 10  8  1  0
 11  6  2  0
 11  7  1  0
 12 11  1  0
 13 12  2  0
 14  9  1  0
 14 12  1  0
M  END
>  <NAME>  (6368) 
ISOAMYL BENZOATE

>  <SYNONYMS>  (6368) 
ISOPENTYL BENZOATE

>  <SPECTRUM TYPE>  (6368) 
MS1

>  <INSTRUMENT TYPE>  (6368) 
EI-B

>  <INSTRUMENT>  (6368) 
HITACHI RMU-7M

>  <ION MODE>  (6368) 
P

>  <INCHIKEY>  (6368) 
MLLAPOCBLWUFAP-UHFFFAOYSA-N

>  <FORMULA>  (6368) 
C12H16O2

>  <EXACT MASS>  (6368) 
192.115029752

>  <MW>  (6368) 
192

>  <ID>  (6368) 
JP001674

>  <CONTRIBUTOR>  (6368) 
University of Tokyo Team, {Faculty of Engineering, University of Tokyo

>  <COMMENT>  (6368) 
SMILES=CC(C)CCOC(=O)c(c1)cccc1
InChI=InChI=1S/C12H16O2/c1-10(2)8-9-14-12(13)11-6-4-3-5-7-11/h3-7,10H,8-9H2,1-2H3
computed SMILES=O=C(OCCC(C)C)C=1C=CC=CC1
accession=JP001674
date=2016.01.19 (Created 2008.10.21, modified 2011.05.06)
author=TAJIMA S, GUNMA COLLEGE OF TECHNOLOGY
license=CC BY-NC-SA
exact mass=192.11503
ionization energy=70 eV
ion type=[M]+*
computed spectral entropy=2.2965343655030015
computed normalized entropy=0.7226228654697041
SPLASH=splash10-05fr-9500000000-2effe379809884c4562d
submitter=submitter = University of Tokyo Team (Faculty of Engineering, University of Tokyo)
MoNA Rating=3.75

>  <NUM PEAKS>  (6368) 
24

>  <MASS SPECTRAL PEAKS>  (6368) 
27 4.47
28 1.63
29 4.26
39 3.4
41 7.45
42 10.64
43 7.94
50 2.62
51 10.99
55 25.96
56 1.49
69 3.05
70 99.99
71 6.03
76 1.84
77 38.87
78 3.12
79 3.19
105 96.52
106 7.8
122 6.38
123 26.38
124 2.06
149 0.85

$$$$

     RDKit          2D

  9  9  0  0  0  0  0  0  0  0999 V2000
   -3.5724    2.0075    0.0000 C   0  0  0  0  0  0  0  0  0  0  0  0
   -2.2733    1.2575    0.0000 C   0  0  0  0  0  0  0  0  0  0  0  0
    2.9228   -0.2425    0.0000 C   0  0  0  0  0  0  0  0  0  0  0  0
    2.9233    1.2583    0.0000 C   0  0  0  0  0  0  0  0  0  0  0  0
    1.6233   -0.9933    0.0000 C   0  0  0  0  0  0  0  0  0  0  0  0
   -0.9743    2.0075    0.0000 C   0  0  0  0  0  0  0  0  0  0  0  0
    1.6243    2.0083    0.0000 C   0  0  0  0  0  0  0  0  0  0  0  0
    0.3243   -0.2433    0.0000 C   0  0  0  0  0  0  0  0  0  0  0  0
    0.3248    1.2575    0.0000 C   0  0  0  0  0  0  0  0  0  0  0  0
  2  1  1  0
  4  3  2  0
  5  3  1  0
  6  2  1  0
  7  4  1  0
  8  5  2  0
  9  6  1  0
  9  7  2  0
  9  8  1  0
M  END
>  <NAME>  (6369) 
PROPYLBENZENE

>  <SYNONYMS>  (6369) 


>  <SPECTRUM TYPE>  (6369) 
MS1

>  <INSTRUMENT TYPE>  (6369) 
EI-B

>  <INSTRUMENT>  (6369) 
HITACHI RMU-7M

>  <ION MODE>  (6369) 
P

>  <INCHIKEY>  (6369) 
ODLMAHJVESYWTB-UHFFFAOYSA-N

>  <FORMULA>  (6369) 
C9H12

>  <EXACT MASS>  (6369) 
120.093900384

>  <MW>  (6369) 
120

>  <ID>  (6369) 
JP001673

>  <CONTRIBUTOR>  (6369) 
University of Tokyo Team, {Faculty of Engineering, University of Tokyo

>  <COMMENT>  (6369) 
SMILES=CCCc(c1)cccc1
InChI=InChI=1S/C9H12/c1-2-6-9-7-4-3-5-8-9/h3-5,7-8H,2,6H2,1H3
computed SMILES=C=1C=CC(=CC1)CCC
accession=JP001673
date=2016.01.19 (Created 2008.10.21, modified 2011.05.06)
author=TAJIMA S, GUNMA COLLEGE OF TECHNOLOGY
license=CC BY-NC-SA
exact mass=120.0939
ionization energy=70 eV
ion type=[M]+*
computed spectral entropy=1.822058981051156
computed normalized entropy=0.6188136327304613
SPLASH=splash10-0006-9100000000-793ec8742b70e0386155
submitter=submitter = University of Tokyo Team (Faculty of Engineering, University of Tokyo)
MoNA Rating=3.75

>  <NUM PEAKS>  (6369) 
19

>  <MASS SPECTRAL PEAKS>  (6369) 
27 2.35
39 5.7
41 2.64
50 1.85
51 4.77
52 1.28
63 2.56
65 9.97
77 3.49
78 5.7
79 1.64
89 1.78
91 99.99
92 9.9
103 1.28
105 3.56
115 1.28
120 20.3
121 1.99

$$$$

     RDKit          2D

  8  8  0  0  0  0  0  0  0  0999 V2000
   -2.9228    0.8825    0.0000 C   0  0  0  0  0  0  0  0  0  0  0  0
   -1.6238    1.6325    0.0000 C   0  0  0  0  0  0  0  0  0  0  0  0
    2.2733   -0.6175    0.0000 C   0  0  0  0  0  0  0  0  0  0  0  0
    2.2738    0.8833    0.0000 C   0  0  0  0  0  0  0  0  0  0  0  0
    0.9738   -1.3683    0.0000 C   0  0  0  0  0  0  0  0  0  0  0  0
    0.9748    1.6333    0.0000 C   0  0  0  0  0  0  0  0  0  0  0  0
   -0.3252   -0.6183    0.0000 C   0  0  0  0  0  0  0  0  0  0  0  0
   -0.3248    0.8825    0.0000 C   0  0  0  0  0  0  0  0  0  0  0  0
  2  1  1  0
  4  3  2  0
  5  3  1  0
  6  4  1  0
  7  5  2  0
  8  2  1  0
  8  6  2  0
  8  7  1  0
M  END
>  <NAME>  (6370) 
ETHYLBENZENE

>  <SYNONYMS>  (6370) 


>  <SPECTRUM TYPE>  (6370) 
MS1

>  <INSTRUMENT TYPE>  (6370) 
EI-B

>  <INSTRUMENT>  (6370) 
HITACHI RMU-7M

>  <ION MODE>  (6370) 
P

>  <INCHIKEY>  (6370) 
YNQLUTRBYVCPMQ-UHFFFAOYSA-N

>  <FORMULA>  (6370) 
C8H10

>  <EXACT MASS>  (6370) 
106.07825032

>  <MW>  (6370) 
106

>  <ID>  (6370) 
JP001672

>  <CONTRIBUTOR>  (6370) 
University of Tokyo Team, {Faculty of Engineering, University of Tokyo

>  <COMMENT>  (6370) 
SMILES=CCc(c1)cccc1
InChI=InChI=1S/C8H10/c1-2-8-6-4-3-5-7-8/h3-7H,2H2,1H3
computed SMILES=C=1C=CC(=CC1)CC
accession=JP001672
date=2016.01.19 (Created 2008.10.21, modified 2011.05.06)
author=TAJIMA S, GUNMA COLLEGE OF TECHNOLOGY
license=CC BY-NC-SA
exact mass=106.07825
ionization energy=70 eV
ion type=[M]+*
computed spectral entropy=1.9089788619133499
computed normalized entropy=0.6737857796406991
SPLASH=splash10-0006-9200000000-c2b5306fbaeb48134d6b
submitter=submitter = University of Tokyo Team (Faculty of Engineering, University of Tokyo)
MoNA Rating=3.75

>  <NUM PEAKS>  (6370) 
17

>  <MASS SPECTRAL PEAKS>  (6370) 
27 2.32
39 5.06
50 2.93
51 9.15
52 2.99
63 2.62
65 7.87
77 7.5
78 5.49
79 3.97
89 1.65
91 99.99
92 7.38
103 3.05
105 5.98
106 32.95
107 2.62

$$$$

     RDKit          2D

 11 11  0  0  0  0  0  0  0  0999 V2000
   -1.3000   -0.7500    0.0000 C   0  0  0  0  0  0  0  0  0  0  0  0
    0.0000    1.5000    0.0000 C   0  0  0  0  0  0  0  0  0  0  0  0
    0.0000   -1.5000    0.0000 C   0  0  0  0  0  0  0  0  0  0  0  0
    1.3000    0.7500    0.0000 C   0  0  0  0  0  0  0  0  0  0  0  0
   -2.5989    1.5002    0.0000 C   0  0  0  0  0  0  0  0  0  0  0  0
   -1.3000    0.7500    0.0000 C   0  0  0  0  0  0  0  0  0  0  0  0
    1.3000   -0.7500    0.0000 C   0  0  0  0  0  0  0  0  0  0  0  0
   -3.8978    2.2504    0.0000 N   0  0  0  0  0  0  0  0  0  0  0  0
    2.5989   -1.5002    0.0000 N   0  0  0  0  0  0  0  0  0  0  0  0
    3.8981   -0.7504    0.0000 O   0  0  0  0  0  0  0  0  0  0  0  0
    2.5987   -3.0002    0.0000 O   0  0  0  0  0  0  0  0  0  0  0  0
  3  1  2  0
  4  2  1  0
  6  1  1  0
  6  2  2  0
  6  5  1  0
  7  3  1  0
  7  4  2  0
  8  5  3  0
  9  7  1  0
 10  9  1  0
 11  9  2  0
M  CHG  2   9   1  10  -1
M  END
>  <NAME>  (6371) 
PARA-NITROBENZONITRILE

>  <SYNONYMS>  (6371) 


>  <SPECTRUM TYPE>  (6371) 
MS1

>  <INSTRUMENT TYPE>  (6371) 
EI-B

>  <INSTRUMENT>  (6371) 
HITACHI RMU-7M

>  <ION MODE>  (6371) 
P

>  <INCHIKEY>  (6371) 
NKJIFDNZPGLLSH-UHFFFAOYSA-N

>  <FORMULA>  (6371) 
C7H4N2O2

>  <EXACT MASS>  (6371) 
148.027277368

>  <MW>  (6371) 
148

>  <ID>  (6371) 
JP001671

>  <CONTRIBUTOR>  (6371) 
University of Tokyo Team, {Faculty of Engineering, University of Tokyo

>  <COMMENT>  (6371) 
SMILES=N#Cc(c1)ccc(c1)[N+1]([O-1])=O
InChI=InChI=1S/C7H4N2O2/c8-5-6-1-3-7(4-2-6)9(10)11/h1-4H
computed SMILES=N#CC1=CC=C(C=C1)N(=O)=O
accession=JP001671
date=2016.01.19 (Created 2008.10.21, modified 2011.05.06)
author=TAJIMA S, GUNMA COLLEGE OF TECHNOLOGY
license=CC BY-NC-SA
exact mass=148.02728
ionization energy=70 eV
ion type=[M]+*
computed spectral entropy=2.487559489477655
computed normalized entropy=0.7728038063038701
SPLASH=splash10-0udi-9700000000-8aa8029bcd60db9a3b18
submitter=submitter = University of Tokyo Team (Faculty of Engineering, University of Tokyo)
MoNA Rating=3.75

>  <NUM PEAKS>  (6371) 
25

>  <MASS SPECTRAL PEAKS>  (6371) 
27 3.9
30 32.99
37 3.09
38 2.95
39 3.68
49 1.84
50 16.13
51 22.83
52 5.15
62 2.21
63 5.15
64 3.09
73 1.4
74 6.11
75 38.59
76 18.04
90 22.97
91 1.4
98 1.84
102 99.99
103 7.66
118 7.73
132 1.55
148 48.9
149 4.34

$$$$

     RDKit          2D

 10 10  0  0  0  0  0  0  0  0999 V2000
   -1.3000    0.7500    0.0000 C   0  0  0  0  0  0  0  0  0  0  0  0
   -0.0000   -1.5000    0.0000 C   0  0  0  0  0  0  0  0  0  0  0  0
    0.0000    1.5000    0.0000 C   0  0  0  0  0  0  0  0  0  0  0  0
    1.3000   -0.7500    0.0000 C   0  0  0  0  0  0  0  0  0  0  0  0
   -1.3000   -0.7500    0.0000 C   0  0  0  0  0  0  0  0  0  0  0  0
    1.3000    0.7500    0.0000 C   0  0  0  0  0  0  0  0  0  0  0  0
   -2.5989   -1.5002    0.0000 I   0  0  0  0  0  0  0  0  0  0  0  0
    2.5989    1.5002    0.0000 N   0  0  0  0  0  0  0  0  0  0  0  0
    3.8981    0.7504    0.0000 O   0  0  0  0  0  0  0  0  0  0  0  0
    2.5987    3.0002    0.0000 O   0  0  0  0  0  0  0  0  0  0  0  0
  3  1  2  0
  4  2  1  0
  5  1  1  0
  5  2  2  0
  6  3  1  0
  6  4  2  0
  7  5  1  0
  8  6  1  0
  9  8  1  0
 10  8  2  0
M  CHG  2   8   1   9  -1
M  END
>  <NAME>  (6372) 
1-IODO-4-NITROBENZENE

>  <SYNONYMS>  (6372) 


>  <SPECTRUM TYPE>  (6372) 
MS1

>  <INSTRUMENT TYPE>  (6372) 
EI-B

>  <INSTRUMENT>  (6372) 
HITACHI RMU-7M

>  <ION MODE>  (6372) 
P

>  <INCHIKEY>  (6372) 
SCCCFNJTCDSLCY-UHFFFAOYSA-N

>  <FORMULA>  (6372) 
C6H4INO2

>  <EXACT MASS>  (6372) 
248.928676368

>  <MW>  (6372) 
249

>  <ID>  (6372) 
JP001670

>  <CONTRIBUTOR>  (6372) 
University of Tokyo Team, {Faculty of Engineering, University of Tokyo

>  <COMMENT>  (6372) 
SMILES=[O-1][N+1](=O)c(c1)ccc(I)c1
InChI=InChI=1S/C6H4INO2/c7-5-1-3-6(4-2-5)8(9)10/h1-4H
computed SMILES=O=N(=O)C1=CC=C(I)C=C1
accession=JP001670
date=2016.01.19 (Created 2008.10.21, modified 2011.05.06)
author=TAJIMA S, GUNMA COLLEGE OF TECHNOLOGY
license=CC BY-NC-SA
exact mass=248.92867
ionization energy=70 eV
ion type=[M]+*
computed spectral entropy=2.4750273097041386
computed normalized entropy=0.7427597262252082
SPLASH=splash10-0fba-9050000000-4c3c7088b4c0561c91d8
submitter=submitter = University of Tokyo Team (Faculty of Engineering, University of Tokyo)
MoNA Rating=3.75

>  <NUM PEAKS>  (6372) 
28

>  <MASS SPECTRAL PEAKS>  (6372) 
28 2.65
30 5.03
37 3.4
38 4.56
39 1.36
49 2.04
50 51.63
51 3.4
61 1.5
62 1.7
63 4.56
64 8.71
73 3.74
74 18.57
75 18.98
76 99.99
77 6.67
92 12.24
127 2.18
128 1.22
191 11.29
203 32.99
204 2.04
219 21.16
220 1.36
233 1.7
249 84.08
250 5.71

$$$$

     RDKit          2D

 10 10  0  0  0  0  0  0  0  0999 V2000
   -1.3000    0.7500    0.0000 C   0  0  0  0  0  0  0  0  0  0  0  0
   -0.0000   -1.5000    0.0000 C   0  0  0  0  0  0  0  0  0  0  0  0
    0.0000    1.5000    0.0000 C   0  0  0  0  0  0  0  0  0  0  0  0
    1.3000   -0.7500    0.0000 C   0  0  0  0  0  0  0  0  0  0  0  0
   -1.3000   -0.7500    0.0000 C   0  0  0  0  0  0  0  0  0  0  0  0
    1.3000    0.7500    0.0000 C   0  0  0  0  0  0  0  0  0  0  0  0
   -2.5989   -1.5002    0.0000 Br  0  0  0  0  0  0  0  0  0  0  0  0
    2.5989    1.5002    0.0000 N   0  0  0  0  0  0  0  0  0  0  0  0
    3.8981    0.7504    0.0000 O   0  0  0  0  0  0  0  0  0  0  0  0
    2.5987    3.0002    0.0000 O   0  0  0  0  0  0  0  0  0  0  0  0
  3  1  2  0
  4  2  1  0
  5  1  1  0
  5  2  2  0
  6  3  1  0
  6  4  2  0
  7  5  1  0
  8  6  1  0
  9  8  1  0
 10  8  2  0
M  CHG  2   8   1   9  -1
M  END
>  <NAME>  (6373) 
1-BROMO-4-NITROBENZENE

>  <SYNONYMS>  (6373) 


>  <SPECTRUM TYPE>  (6373) 
MS1

>  <INSTRUMENT TYPE>  (6373) 
EI-B

>  <INSTRUMENT>  (6373) 
HITACHI RMU-7M

>  <ION MODE>  (6373) 
P

>  <INCHIKEY>  (6373) 
ZDFBKZUDCQQKAC-UHFFFAOYSA-N

>  <FORMULA>  (6373) 
C6H4BrNO2

>  <EXACT MASS>  (6373) 
200.942540468

>  <MW>  (6373) 
201

>  <ID>  (6373) 
JP001669

>  <CONTRIBUTOR>  (6373) 
University of Tokyo Team, {Faculty of Engineering, University of Tokyo

>  <COMMENT>  (6373) 
SMILES=[O-1][N+1](=O)c(c1)ccc(Br)c1
InChI=InChI=1S/C6H4BrNO2/c7-5-1-3-6(4-2-5)8(9)10/h1-4H
computed SMILES=O=N(=O)C1=CC=C(Br)C=C1
accession=JP001669
date=2016.01.19 (Created 2008.10.21, modified 2011.05.06)
author=TAJIMA S, GUNMA COLLEGE OF TECHNOLOGY
license=CC BY-NC-SA
exact mass=200.94254
ionization energy=70 eV
ion type=[M]+*
computed spectral entropy=2.9930298553173564
computed normalized entropy=0.8059705861514591
SPLASH=splash10-0zor-9830000000-cec91df0aa50e7e103d8
submitter=submitter = University of Tokyo Team (Faculty of Engineering, University of Tokyo)
MoNA Rating=3.75

>  <NUM PEAKS>  (6373) 
41

>  <MASS SPECTRAL PEAKS>  (6373) 
27 1.92
30 16.46
37 7.68
38 10.42
39 4.33
49 4.88
50 71.97
51 8.78
61 2.85
62 3.24
63 8.78
64 6.64
65 2.19
73 7.13
74 35
75 99.99
76 78.99
77 5.6
92 4.66
117 2.19
119 2.14
129 2.63
131 2.41
143 30.17
144 1.48
145 29.51
146 1.43
155 71.48
156 5.43
157 69.28
158 4.55
171 53.21
172 3.78
173 52
174 3.29
185 3.29
187 3.24
201 66.26
202 4.39
203 64.34
204 4.39

$$$$

     RDKit          2D

 10 10  0  0  0  0  0  0  0  0999 V2000
   -1.3000    0.7500    0.0000 C   0  0  0  0  0  0  0  0  0  0  0  0
   -0.0000   -1.5000    0.0000 C   0  0  0  0  0  0  0  0  0  0  0  0
    0.0000    1.5000    0.0000 C   0  0  0  0  0  0  0  0  0  0  0  0
    1.3000   -0.7500    0.0000 C   0  0  0  0  0  0  0  0  0  0  0  0
   -1.3000   -0.7500    0.0000 C   0  0  0  0  0  0  0  0  0  0  0  0
    1.3000    0.7500    0.0000 C   0  0  0  0  0  0  0  0  0  0  0  0
   -2.5989   -1.5002    0.0000 Cl  0  0  0  0  0  0  0  0  0  0  0  0
    2.5989    1.5002    0.0000 N   0  0  0  0  0  0  0  0  0  0  0  0
    3.8981    0.7504    0.0000 O   0  0  0  0  0  0  0  0  0  0  0  0
    2.5987    3.0002    0.0000 O   0  0  0  0  0  0  0  0  0  0  0  0
  3  1  2  0
  4  2  1  0
  5  1  1  0
  5  2  2  0
  6  3  1  0
  6  4  2  0
  7  5  1  0
  8  6  1  0
  9  8  1  0
 10  8  2  0
M  CHG  2   8   1   9  -1
M  END
>  <NAME>  (6374) 
1-CHLORO-4-NITROBENZENE

>  <SYNONYMS>  (6374) 


>  <SPECTRUM TYPE>  (6374) 
MS1

>  <INSTRUMENT TYPE>  (6374) 
EI-B

>  <INSTRUMENT>  (6374) 
HITACHI RMU-7M

>  <ION MODE>  (6374) 
P

>  <INCHIKEY>  (6374) 
CZGCEKJOLUNIFY-UHFFFAOYSA-N

>  <FORMULA>  (6374) 
C6H4ClNO2

>  <EXACT MASS>  (6374) 
156.993056048

>  <MW>  (6374) 
157

>  <ID>  (6374) 
JP001668

>  <CONTRIBUTOR>  (6374) 
University of Tokyo Team, {Faculty of Engineering, University of Tokyo

>  <COMMENT>  (6374) 
SMILES=[O-1][N+1](=O)c(c1)ccc(Cl)c1
InChI=InChI=1S/C6H4ClNO2/c7-5-1-3-6(4-2-5)8(9)10/h1-4H
computed SMILES=O=N(=O)C1=CC=C(Cl)C=C1
accession=JP001668
date=2016.01.19 (Created 2008.10.21, modified 2011.05.06)
author=TAJIMA S, GUNMA COLLEGE OF TECHNOLOGY
license=CC BY-NC-SA
exact mass=156.99306
ionization energy=70 eV
ion type=[M]+*
computed spectral entropy=2.8162416080427057
computed normalized entropy=0.7858871841922033
SPLASH=splash10-06vi-9800000000-5ae52005af4e84fed3e6
submitter=submitter = University of Tokyo Team (Faculty of Engineering, University of Tokyo)
MoNA Rating=3.75

>  <NUM PEAKS>  (6374) 
36

>  <MASS SPECTRAL PEAKS>  (6374) 
27 1.31
28 3.5
30 15.95
36 1.46
37 4.59
38 4.73
39 2.48
49 2.91
50 34.01
51 12.96
61 3.71
62 2.04
63 4.15
64 1.31
73 9.4
74 20.32
75 99.99
76 13.04
84 1.82
85 7.94
87 2.55
99 27.6
100 1.6
101 8.67
111 87.69
112 5.97
113 27.39
114 1.68
127 28.84
128 1.82
129 9.1
141 2.91
157 64.53
158 4.44
159 20.61
160 1.31

$$$$

     RDKit          2D

  7  6  0  0  0  0  0  0  0  0999 V2000
    1.6238    1.6875    0.0000 C   0  0  0  0  0  0  0  0  0  0  0  0
    0.3248    3.9375    0.0000 C   0  0  0  0  0  0  0  0  0  0  0  0
   -3.5724    1.6875    0.0000 C   0  0  0  0  0  0  0  0  0  0  0  0
    0.3248    2.4375    0.0000 C   0  0  0  0  0  0  0  0  0  0  0  0
   -0.9743    1.6875    0.0000 C   0  0  0  0  0  0  0  0  0  0  0  0
   -0.9743    0.1875    0.0000 O   0  0  0  0  0  0  0  0  0  0  0  0
   -2.2733    2.4375    0.0000 O   0  0  0  0  0  0  0  0  0  0  0  0
  4  1  2  0
  4  2  1  0
  5  4  1  0
  6  5  2  0
  7  3  1  0
  7  5  1  0
M  END
>  <NAME>  (6375) 
METHACRYLIC ACID METHYL ESTER

>  <SYNONYMS>  (6375) 
METHYL METHACRYLATE

>  <SPECTRUM TYPE>  (6375) 
MS1

>  <INSTRUMENT TYPE>  (6375) 
EI-B

>  <INSTRUMENT>  (6375) 
HITACHI RMU-7M

>  <ION MODE>  (6375) 
P

>  <INCHIKEY>  (6375) 
VVQNEPGJFQJSBK-UHFFFAOYSA-N

>  <FORMULA>  (6375) 
C5H8O2

>  <EXACT MASS>  (6375) 
100.052429496

>  <MW>  (6375) 
100

>  <ID>  (6375) 
JP001667

>  <CONTRIBUTOR>  (6375) 
University of Tokyo Team, {Faculty of Engineering, University of Tokyo

>  <COMMENT>  (6375) 
SMILES=COC(=O)C(C)=C
InChI=InChI=1S/C5H8O2/c1-4(2)5(6)7-3/h1H2,2-3H3
computed SMILES=O=C(OC)C(=C)C
accession=JP001667
license=CC BY-NC-SA
date=2016.01.19 (Created 2008.10.21, modified 2011.05.06)
author=TAJIMA S, GUNMA COLLEGE OF TECHNOLOGY
exact mass=100.05243
ionization energy=70 eV
ion type=[M]+*
computed spectral entropy=2.3335442134741298
computed normalized entropy=0.6860949105910853
SPLASH=splash10-00kf-9000000000-77a257ba815641d19301
submitter=submitter = University of Tokyo Team (Faculty of Engineering, University of Tokyo)
MoNA Rating=3.75

>  <NUM PEAKS>  (6375) 
30

>  <MASS SPECTRAL PEAKS>  (6375) 
15 10.87
26 1.24
27 1.83
28 2.15
29 2.69
31 1.13
33 0.91
37 1.72
38 3.71
39 30.95
40 8.07
41 99.99
42 4.79
43 2.26
45 1.67
53 1.45
54 1.4
55 7.16
56 3.39
57 1.08
58 1.24
59 8.5
68 1.24
69 74.49
70 3.5
82 2.85
85 5.38
99 11.14
100 24.87
101 1.83

$$$$

     RDKit          2D

 13 13  0  0  0  0  0  0  0  0999 V2000
   -6.8197    3.1321    0.0000 C   0  0  0  0  0  0  0  0  0  0  0  0
   -5.5207    3.8821    0.0000 C   0  0  0  0  0  0  0  0  0  0  0  0
   -4.2216    3.1321    0.0000 C   0  0  0  0  0  0  0  0  0  0  0  0
    3.5726    1.6321    0.0000 C   0  0  0  0  0  0  0  0  0  0  0  0
   -2.9226    3.8821    0.0000 C   0  0  0  0  0  0  0  0  0  0  0  0
    3.5731    3.1329    0.0000 C   0  0  0  0  0  0  0  0  0  0  0  0
    2.2731    0.8813    0.0000 C   0  0  0  0  0  0  0  0  0  0  0  0
    2.2740    3.8829    0.0000 C   0  0  0  0  0  0  0  0  0  0  0  0
    0.9740    1.6313    0.0000 C   0  0  0  0  0  0  0  0  0  0  0  0
   -1.6236    3.1321    0.0000 C   0  0  0  0  0  0  0  0  0  0  0  0
    0.9745    3.1321    0.0000 C   0  0  0  0  0  0  0  0  0  0  0  0
   -0.3245    3.8821    0.0000 C   0  0  0  0  0  0  0  0  0  0  0  0
   -0.3245    5.3821    0.0000 O   0  0  0  0  0  0  0  0  0  0  0  0
  2  1  1  0
  3  2  1  0
  5  3  1  0
  6  4  2  0
  7  4  1  0
  8  6  1  0
  9  7  2  0
 10  5  1  0
 11  8  2  0
 11  9  1  0
 12 10  1  0
 12 11  1  0
 13 12  2  0
M  END
>  <NAME>  (6376) 
PENTYL PHENYL KETONE

>  <SYNONYMS>  (6376) 
HEXANO PHENONE

>  <SPECTRUM TYPE>  (6376) 
MS1

>  <INSTRUMENT TYPE>  (6376) 
EI-B

>  <INSTRUMENT>  (6376) 
HITACHI RMU-7M

>  <ION MODE>  (6376) 
P

>  <INCHIKEY>  (6376) 
MAHPVQDVMLWUAG-UHFFFAOYSA-N

>  <FORMULA>  (6376) 
C12H16O

>  <EXACT MASS>  (6376) 
176.120115132

>  <MW>  (6376) 
176

>  <ID>  (6376) 
JP001666

>  <CONTRIBUTOR>  (6376) 
University of Tokyo Team, {Faculty of Engineering, University of Tokyo

>  <COMMENT>  (6376) 
SMILES=CCCCCC(=O)c(c1)cccc1
InChI=InChI=1S/C12H16O/c1-2-3-5-10-12(13)11-8-6-4-7-9-11/h4,6-9H,2-3,5,10H2,1H3
computed SMILES=O=C(C=1C=CC=CC1)CCCCC
accession=JP001666
date=2016.01.19 (Created 2008.10.21, modified 2011.05.06)
author=TAJIMA S, GUNMA COLLEGE OF TECHNOLOGY
license=CC BY-NC-SA
exact mass=176.12012
ionization energy=70 eV
ion type=[M]+*
computed spectral entropy=1.9766056854464333
computed normalized entropy=0.6598071873430413
SPLASH=splash10-0ab9-4900000000-1e3541af840b16205cde
submitter=submitter = University of Tokyo Team (Faculty of Engineering, University of Tokyo)
MoNA Rating=3.75

>  <NUM PEAKS>  (6376) 
20

>  <MASS SPECTRAL PEAKS>  (6376) 
27 3.73
29 2.78
39 2.52
41 3.13
43 3.39
50 2.17
51 9.64
55 3.39
76 1.39
77 43.75
78 7.03
91 1.74
105 99.99
106 7.64
119 1.56
120 53.73
121 4.77
133 4.69
134 1.13
176 2.08

$$$$

     RDKit          2D

 12 12  0  0  0  0  0  0  0  0999 V2000
   -5.5207    3.1321    0.0000 C   0  0  0  0  0  0  0  0  0  0  0  0
   -4.2216    2.3821    0.0000 C   0  0  0  0  0  0  0  0  0  0  0  0
   -2.9226    3.1321    0.0000 C   0  0  0  0  0  0  0  0  0  0  0  0
    3.5726    0.8821    0.0000 C   0  0  0  0  0  0  0  0  0  0  0  0
    3.5731    2.3829    0.0000 C   0  0  0  0  0  0  0  0  0  0  0  0
    2.2731    0.1313    0.0000 C   0  0  0  0  0  0  0  0  0  0  0  0
    2.2740    3.1329    0.0000 C   0  0  0  0  0  0  0  0  0  0  0  0
    0.9740    0.8813    0.0000 C   0  0  0  0  0  0  0  0  0  0  0  0
   -1.6236    2.3821    0.0000 C   0  0  0  0  0  0  0  0  0  0  0  0
    0.9745    2.3821    0.0000 C   0  0  0  0  0  0  0  0  0  0  0  0
   -0.3245    3.1321    0.0000 C   0  0  0  0  0  0  0  0  0  0  0  0
   -0.3245    4.6321    0.0000 O   0  0  0  0  0  0  0  0  0  0  0  0
  2  1  1  0
  3  2  1  0
  5  4  2  0
  6  4  1  0
  7  5  1  0
  8  6  2  0
  9  3  1  0
 10  7  2  0
 10  8  1  0
 11  9  1  0
 11 10  1  0
 12 11  2  0
M  END
>  <NAME>  (6377) 
BUTYL PHENYL KETONE

>  <SYNONYMS>  (6377) 


>  <SPECTRUM TYPE>  (6377) 
MS1

>  <INSTRUMENT TYPE>  (6377) 
EI-B

>  <INSTRUMENT>  (6377) 
HITACHI RMU-7M

>  <ION MODE>  (6377) 
P

>  <INCHIKEY>  (6377) 
XKGLSKVNOSHTAD-UHFFFAOYSA-N

>  <FORMULA>  (6377) 
C11H14O

>  <EXACT MASS>  (6377) 
162.104465068

>  <MW>  (6377) 
162

>  <ID>  (6377) 
JP001665

>  <CONTRIBUTOR>  (6377) 
University of Tokyo Team, {Faculty of Engineering, University of Tokyo

>  <COMMENT>  (6377) 
SMILES=CCCCC(=O)c(c1)cccc1
InChI=InChI=1S/C11H14O/c1-2-3-9-11(12)10-7-5-4-6-8-10/h4-8H,2-3,9H2,1H3
computed SMILES=O=C(C=1C=CC=CC1)CCCC
accession=JP001665
date=2016.01.19 (Created 2008.10.21, modified 2011.05.06)
author=TAJIMA S, GUNMA COLLEGE OF TECHNOLOGY
license=CC BY-NC-SA
exact mass=162.10447
ionization energy=70 eV
ion type=[M]+*
computed spectral entropy=1.7348537186657582
computed normalized entropy=0.6123272440126328
SPLASH=splash10-0a4i-3900000000-d4ceda523827189bf3d1
submitter=submitter = University of Tokyo Team (Faculty of Engineering, University of Tokyo)
MoNA Rating=3.75

>  <NUM PEAKS>  (6377) 
17

>  <MASS SPECTRAL PEAKS>  (6377) 
27 1.54
29 1.46
39 1.46
41 1.54
50 1.9
51 8.63
55 1.61
76 1.17
77 41.4
78 5.85
91 1
105 99.99
106 7.32
120 45.5
121 3.8
133 2.19
162 2.19

$$$$

     RDKit          2D

 11 11  0  0  0  0  0  0  0  0999 V2000
   -3.8969    2.5696    0.0000 C   0  0  0  0  0  0  0  0  0  0  0  0
   -2.5978    0.3196    0.0000 C   0  0  0  0  0  0  0  0  0  0  0  0
    2.5983    0.3196    0.0000 C   0  0  0  0  0  0  0  0  0  0  0  0
    2.5988    1.8204    0.0000 C   0  0  0  0  0  0  0  0  0  0  0  0
    1.2988   -0.4312    0.0000 C   0  0  0  0  0  0  0  0  0  0  0  0
    1.2998    2.5704    0.0000 C   0  0  0  0  0  0  0  0  0  0  0  0
   -0.0002    0.3188    0.0000 C   0  0  0  0  0  0  0  0  0  0  0  0
   -2.5978    1.8196    0.0000 C   0  0  0  0  0  0  0  0  0  0  0  0
    0.0002    1.8196    0.0000 C   0  0  0  0  0  0  0  0  0  0  0  0
   -1.2988    2.5696    0.0000 C   0  0  0  0  0  0  0  0  0  0  0  0
   -1.2988    4.0696    0.0000 O   0  0  0  0  0  0  0  0  0  0  0  0
  4  3  2  0
  5  3  1  0
  6  4  1  0
  7  5  2  0
  8  1  1  0
  8  2  1  0
  9  6  2  0
  9  7  1  0
 10  8  1  0
 10  9  1  0
 11 10  2  0
M  END
>  <NAME>  (6378) 
ISOPROPYL PHENYL KETONE

>  <SYNONYMS>  (6378) 


>  <SPECTRUM TYPE>  (6378) 
MS1

>  <INSTRUMENT TYPE>  (6378) 
EI-B

>  <INSTRUMENT>  (6378) 
HITACHI RMU-7M

>  <ION MODE>  (6378) 
P

>  <INCHIKEY>  (6378) 
BSMGLVDZZMBWQB-UHFFFAOYSA-N

>  <FORMULA>  (6378) 
C10H12O

>  <EXACT MASS>  (6378) 
148.088815004

>  <MW>  (6378) 
148

>  <ID>  (6378) 
JP001664

>  <CONTRIBUTOR>  (6378) 
University of Tokyo Team, {Faculty of Engineering, University of Tokyo

>  <COMMENT>  (6378) 
SMILES=CC(C)C(=O)c(c1)cccc1
InChI=InChI=1S/C10H12O/c1-8(2)10(11)9-6-4-3-5-7-9/h3-8H,1-2H3
computed SMILES=O=C(C=1C=CC=CC1)C(C)C
accession=JP001664
date=2016.01.19 (Created 2008.10.21, modified 2011.05.06)
author=TAJIMA S, GUNMA COLLEGE OF TECHNOLOGY
license=CC BY-NC-SA
exact mass=148.08882
ionization energy=70 eV
ion type=[M]+*
computed spectral entropy=1.2922003826174262
computed normalized entropy=0.5200196887587991
SPLASH=splash10-0a4i-3900000000-408fcfb356cdd271e01e
submitter=submitter = University of Tokyo Team (Faculty of Engineering, University of Tokyo)
MoNA Rating=3.75

>  <NUM PEAKS>  (6378) 
12

>  <MASS SPECTRAL PEAKS>  (6378) 
27 1.72
39 2.28
41 2.74
43 1.35
50 1.95
51 7.57
76 0.93
77 25.73
78 2
105 99.99
106 6.92
148 2.14

$$$$

     RDKit          2D

 11 11  0  0  0  0  0  0  0  0999 V2000
   -4.8712    2.0071    0.0000 C   0  0  0  0  0  0  0  0  0  0  0  0
   -3.5721    2.7571    0.0000 C   0  0  0  0  0  0  0  0  0  0  0  0
    2.9231    0.5071    0.0000 C   0  0  0  0  0  0  0  0  0  0  0  0
    2.9236    2.0079    0.0000 C   0  0  0  0  0  0  0  0  0  0  0  0
    1.6236   -0.2437    0.0000 C   0  0  0  0  0  0  0  0  0  0  0  0
   -2.2731    2.0071    0.0000 C   0  0  0  0  0  0  0  0  0  0  0  0
    1.6245    2.7579    0.0000 C   0  0  0  0  0  0  0  0  0  0  0  0
    0.3245    0.5063    0.0000 C   0  0  0  0  0  0  0  0  0  0  0  0
    0.3250    2.0071    0.0000 C   0  0  0  0  0  0  0  0  0  0  0  0
   -0.9740    2.7571    0.0000 C   0  0  0  0  0  0  0  0  0  0  0  0
   -0.9740    4.2571    0.0000 O   0  0  0  0  0  0  0  0  0  0  0  0
  2  1  1  0
  4  3  2  0
  5  3  1  0
  6  2  1  0
  7  4  1  0
  8  5  2  0
  9  7  2  0
  9  8  1  0
 10  6  1  0
 10  9  1  0
 11 10  2  0
M  END
>  <NAME>  (6379) 
PROPYL PHENYL KETONE

>  <SYNONYMS>  (6379) 


>  <SPECTRUM TYPE>  (6379) 
MS1

>  <INSTRUMENT TYPE>  (6379) 
EI-B

>  <INSTRUMENT>  (6379) 
HITACHI RMU-7M

>  <ION MODE>  (6379) 
P

>  <INCHIKEY>  (6379) 
FFSAXUULYPJSKH-UHFFFAOYSA-N

>  <FORMULA>  (6379) 
C10H12O

>  <EXACT MASS>  (6379) 
148.088815004

>  <MW>  (6379) 
148

>  <ID>  (6379) 
JP001663

>  <CONTRIBUTOR>  (6379) 
University of Tokyo Team, {Faculty of Engineering, University of Tokyo

>  <COMMENT>  (6379) 
SMILES=CCCC(=O)c(c1)cccc1
InChI=InChI=1S/C10H12O/c1-2-6-10(11)9-7-4-3-5-8-9/h3-5,7-8H,2,6H2,1H3
computed SMILES=O=C(C=1C=CC=CC1)CCC
accession=JP001663
date=2016.01.19 (Created 2008.10.21, modified 2011.05.06)
author=TAJIMA S, GUNMA COLLEGE OF TECHNOLOGY
license=CC BY-NC-SA
exact mass=148.08882
ionization energy=70 eV
ion type=[M]+*
computed spectral entropy=1.7468888758822925
computed normalized entropy=0.5932841156643125
SPLASH=splash10-0a4i-4900000000-e3814fae1d883a52efc5
submitter=submitter = University of Tokyo Team (Faculty of Engineering, University of Tokyo)
MoNA Rating=3.75

>  <NUM PEAKS>  (6379) 
19

>  <MASS SPECTRAL PEAKS>  (6379) 
27 1.52
28 1.07
39 1.7
41 1.7
43 1.79
50 2.33
51 9.39
55 1.34
76 1.16
77 42.04
78 3.76
91 1.25
105 99.99
106 7.42
120 10.2
130 1.25
133 1.16
148 10.73
149 1.16

$$$$

     RDKit          2D

 10 10  0  0  0  0  0  0  0  0999 V2000
   -3.5724    2.0075    0.0000 C   0  0  0  0  0  0  0  0  0  0  0  0
   -2.2733    1.2575    0.0000 C   0  0  0  0  0  0  0  0  0  0  0  0
    2.9228   -0.2425    0.0000 C   0  0  0  0  0  0  0  0  0  0  0  0
    2.9233    1.2583    0.0000 C   0  0  0  0  0  0  0  0  0  0  0  0
    1.6233   -0.9933    0.0000 C   0  0  0  0  0  0  0  0  0  0  0  0
    1.6243    2.0083    0.0000 C   0  0  0  0  0  0  0  0  0  0  0  0
    0.3243   -0.2433    0.0000 C   0  0  0  0  0  0  0  0  0  0  0  0
    0.3248    1.2575    0.0000 C   0  0  0  0  0  0  0  0  0  0  0  0
   -0.9743    2.0075    0.0000 C   0  0  0  0  0  0  0  0  0  0  0  0
   -0.9743    3.5075    0.0000 O   0  0  0  0  0  0  0  0  0  0  0  0
  2  1  1  0
  4  3  2  0
  5  3  1  0
  6  4  1  0
  7  5  2  0
  8  6  2  0
  8  7  1  0
  9  2  1  0
  9  8  1  0
 10  9  2  0
M  END
>  <NAME>  (6380) 
ETHYL PHENYL KETONE

>  <SYNONYMS>  (6380) 
PROPIOPHENONE

>  <SPECTRUM TYPE>  (6380) 
MS1

>  <INSTRUMENT TYPE>  (6380) 
EI-B

>  <INSTRUMENT>  (6380) 
HITACHI RMU-7M

>  <ION MODE>  (6380) 
P

>  <INCHIKEY>  (6380) 
KRIOVPPHQSLHCZ-UHFFFAOYSA-N

>  <FORMULA>  (6380) 
C9H10O

>  <EXACT MASS>  (6380) 
134.07316494

>  <MW>  (6380) 
134

>  <ID>  (6380) 
JP001662

>  <CONTRIBUTOR>  (6380) 
University of Tokyo Team, {Faculty of Engineering, University of Tokyo

>  <COMMENT>  (6380) 
SMILES=CCC(=O)c(c1)cccc1
InChI=InChI=1S/C9H10O/c1-2-9(10)8-6-4-3-5-7-8/h3-7H,2H2,1H3
computed SMILES=O=C(C=1C=CC=CC1)CC
accession=JP001662
date=2016.01.19 (Created 2008.10.21, modified 2011.05.06)
author=TAJIMA S, GUNMA COLLEGE OF TECHNOLOGY
license=CC BY-NC-SA
exact mass=134.07316
ionization energy=70 eV
ion type=[M]+*
computed spectral entropy=1.4743213556036523
computed normalized entropy=0.5747955028097512
SPLASH=splash10-0a4i-5900000000-0e0edfd808970dcb973b
submitter=submitter = University of Tokyo Team (Faculty of Engineering, University of Tokyo)
MoNA Rating=3.75

>  <NUM PEAKS>  (6380) 
13

>  <MASS SPECTRAL PEAKS>  (6380) 
27 2.05
28 1.44
29 1.97
50 3.64
51 12.59
76 1.44
77 46.02
78 3.56
105 99.99
106 7.51
133 0.53
134 7.66
135 0.53

$$$$

     RDKit          2D

  9  9  0  0  0  0  0  0  0  0999 V2000
   -2.9228    0.8825    0.0000 C   0  0  0  0  0  0  0  0  0  0  0  0
    2.2733   -0.6175    0.0000 C   0  0  0  0  0  0  0  0  0  0  0  0
    2.2738    0.8833    0.0000 C   0  0  0  0  0  0  0  0  0  0  0  0
    0.9738   -1.3683    0.0000 C   0  0  0  0  0  0  0  0  0  0  0  0
    0.9748    1.6333    0.0000 C   0  0  0  0  0  0  0  0  0  0  0  0
   -0.3252   -0.6183    0.0000 C   0  0  0  0  0  0  0  0  0  0  0  0
   -1.6238    1.6325    0.0000 C   0  0  0  0  0  0  0  0  0  0  0  0
   -0.3248    0.8825    0.0000 C   0  0  0  0  0  0  0  0  0  0  0  0
   -1.6238    3.1325    0.0000 O   0  0  0  0  0  0  0  0  0  0  0  0
  3  2  2  0
  4  2  1  0
  5  3  1  0
  6  4  2  0
  7  1  1  0
  8  5  2  0
  8  6  1  0
  8  7  1  0
  9  7  2  0
M  END
>  <NAME>  (6381) 
ACETOPHENONE

>  <SYNONYMS>  (6381) 


>  <SPECTRUM TYPE>  (6381) 
MS1

>  <INSTRUMENT TYPE>  (6381) 
EI-B

>  <INSTRUMENT>  (6381) 
HITACHI RMU-7M

>  <ION MODE>  (6381) 
P

>  <INCHIKEY>  (6381) 
KWOLFJPFCHCOCG-UHFFFAOYSA-N

>  <FORMULA>  (6381) 
C8H8O

>  <EXACT MASS>  (6381) 
120.057514876

>  <MW>  (6381) 
120

>  <ID>  (6381) 
JP001661

>  <CONTRIBUTOR>  (6381) 
University of Tokyo Team, {Faculty of Engineering, University of Tokyo

>  <COMMENT>  (6381) 
SMILES=CC(=O)c(c1)cccc1
InChI=InChI=1S/C8H8O/c1-7(9)8-5-3-2-4-6-8/h2-6H,1H3
computed SMILES=O=C(C=1C=CC=CC1)C
accession=JP001661
date=2016.01.19 (Created 2008.10.21, modified 2011.05.06)
author=TAJIMA S, GUNMA COLLEGE OF TECHNOLOGY
license=CC BY-NC-SA
exact mass=120.05751
ionization energy=70 eV
ion type=[M]+*
computed spectral entropy=1.8524290498687
computed normalized entropy=0.618356008052438
SPLASH=splash10-0a6r-8900000000-72a8572391def7a73d00
submitter=submitter = University of Tokyo Team (Faculty of Engineering, University of Tokyo)
MoNA Rating=3.75

>  <NUM PEAKS>  (6381) 
20

>  <MASS SPECTRAL PEAKS>  (6381) 
27 0.86
28 1.02
38 1.18
39 2.36
43 10.38
50 6.45
51 18.32
52 1.73
52.5 1.57
63 1.49
65 1.1
74 2.52
75 1.57
76 2.04
77 69.89
91 1.18
105 99.99
106 7.55
120 20.36
121 2.04

$$$$

     RDKit          2D

 11 11  0  0  0  0  0  0  0  0999 V2000
   -1.3000   -0.7500    0.0000 C   0  0  0  0  0  0  0  0  0  0  0  0
    0.0000    1.5000    0.0000 C   0  0  0  0  0  0  0  0  0  0  0  0
    0.0000   -1.5000    0.0000 C   0  0  0  0  0  0  0  0  0  0  0  0
    1.3000    0.7500    0.0000 C   0  0  0  0  0  0  0  0  0  0  0  0
   -2.5989    1.5002    0.0000 C   0  0  0  0  0  0  0  0  0  0  0  0
   -1.3000    0.7500    0.0000 C   0  0  0  0  0  0  0  0  0  0  0  0
    1.3000   -0.7500    0.0000 C   0  0  0  0  0  0  0  0  0  0  0  0
    2.5989   -1.5002    0.0000 N   0  0  0  0  0  0  0  0  0  0  0  0
   -3.8981    0.7504    0.0000 O   0  0  0  0  0  0  0  0  0  0  0  0
    3.8981   -0.7504    0.0000 O   0  0  0  0  0  0  0  0  0  0  0  0
    2.5987   -3.0002    0.0000 O   0  0  0  0  0  0  0  0  0  0  0  0
  3  1  2  0
  4  2  1  0
  6  1  1  0
  6  2  2  0
  6  5  1  0
  7  3  1  0
  7  4  2  0
  8  7  1  0
  9  5  2  0
 10  8  1  0
 11  8  2  0
M  CHG  2   8   1  10  -1
M  END
>  <NAME>  (6382) 
PARA-NITROBENZALDEHYDE

>  <SYNONYMS>  (6382) 


>  <SPECTRUM TYPE>  (6382) 
MS1

>  <INSTRUMENT TYPE>  (6382) 
EI-B

>  <INSTRUMENT>  (6382) 
HITACHI RMU-7M

>  <ION MODE>  (6382) 
P

>  <INCHIKEY>  (6382) 
BXRFQSNOROATLV-UHFFFAOYSA-N

>  <FORMULA>  (6382) 
C7H5NO3

>  <EXACT MASS>  (6382) 
151.02694301999998

>  <MW>  (6382) 
151

>  <ID>  (6382) 
JP001660

>  <CONTRIBUTOR>  (6382) 
University of Tokyo Team, {Faculty of Engineering, University of Tokyo

>  <COMMENT>  (6382) 
SMILES=O=Cc(c1)ccc(c1)[N+1]([O-1])=O
InChI=InChI=1S/C7H5NO3/c9-5-6-1-3-7(4-2-6)8(10)11/h1-5H
computed SMILES=O=CC1=CC=C(C=C1)N(=O)=O
accession=JP001660
date=2016.01.19 (Created 2008.10.21, modified 2011.05.06)
author=TAJIMA S, GUNMA COLLEGE OF TECHNOLOGY
license=CC BY-NC-SA
exact mass=151.02694
ionization energy=70 eV
ion type=[M]+*
computed spectral entropy=2.876117378393296
computed normalized entropy=0.7850604565182512
SPLASH=splash10-0udi-9500000000-5c59f32e9a8085f6918f
submitter=submitter = University of Tokyo Team (Faculty of Engineering, University of Tokyo)
MoNA Rating=3.75

>  <NUM PEAKS>  (6382) 
39

>  <MASS SPECTRAL PEAKS>  (6382) 
26 1.39
27 9.07
28 6.14
29 10.46
30 15.27
37 5.58
38 8.02
39 13.6
46 1.39
49 3.14
50 47
51 99.99
52 4.81
53 2.09
61 2.65
62 3.97
63 6.21
64 4.88
65 15.97
66 1.26
73 3.42
74 19.04
75 17.43
76 26.36
77 91.91
78 5.93
92 12.06
93 3.7
94 1.39
103 1.67
104 22.94
105 28.8
106 2.16
120 10.25
121 1.74
135 1.74
150 98.33
151 96.23
152 8.23

$$$$

     RDKit          2D

 11 11  0  0  0  0  0  0  0  0999 V2000
    0.6471   -2.6191    0.0000 C   0  0  0  0  0  0  0  0  0  0  0  0
   -0.6520   -1.8691    0.0000 C   0  0  0  0  0  0  0  0  0  0  0  0
    1.9416   -1.8769    0.0000 C   0  0  0  0  0  0  0  0  0  0  0  0
    0.6430    0.3740    0.0000 C   0  0  0  0  0  0  0  0  0  0  0  0
   -1.9568    0.3709    0.0000 C   0  0  0  0  0  0  0  0  0  0  0  0
   -0.6565   -0.3769    0.0000 C   0  0  0  0  0  0  0  0  0  0  0  0
    1.9421   -0.3760    0.0000 C   0  0  0  0  0  0  0  0  0  0  0  0
    3.2412    0.3737    0.0000 N   0  0  0  0  0  0  0  0  0  0  0  0
   -3.2546   -0.3812    0.0000 O   0  0  0  0  0  0  0  0  0  0  0  0
    4.5401   -0.3765    0.0000 O   0  0  0  0  0  0  0  0  0  0  0  0
    3.2415    1.8737    0.0000 O   0  0  0  0  0  0  0  0  0  0  0  0
  2  1  2  0
  3  1  1  0
  6  2  1  0
  6  4  2  0
  6  5  1  0
  7  3  2  0
  7  4  1  0
  8  7  1  0
  9  5  2  0
 10  8  1  0
 11  8  2  0
M  CHG  2   8   1  10  -1
M  END
>  <NAME>  (6383) 
META-NITROBENZALDEHYDE

>  <SYNONYMS>  (6383) 


>  <SPECTRUM TYPE>  (6383) 
MS1

>  <INSTRUMENT TYPE>  (6383) 
EI-B

>  <INSTRUMENT>  (6383) 
HITACHI RMU-7M

>  <ION MODE>  (6383) 
P

>  <INCHIKEY>  (6383) 
ZETIVVHRRQLWFW-UHFFFAOYSA-N

>  <FORMULA>  (6383) 
C7H5NO3

>  <EXACT MASS>  (6383) 
151.02694302

>  <MW>  (6383) 
151

>  <ID>  (6383) 
JP001659

>  <CONTRIBUTOR>  (6383) 
University of Tokyo Team, {Faculty of Engineering, University of Tokyo

>  <COMMENT>  (6383) 
SMILES=O=Cc(c1)cc(cc1)[N+1]([O-1])=O
InChI=InChI=1S/C7H5NO3/c9-5-6-2-1-3-7(4-6)8(10)11/h1-5H
computed SMILES=O=CC1=CC=CC(=C1)N(=O)=O
accession=JP001659
date=2016.01.19 (Created 2008.10.21, modified 2011.05.06)
author=TAJIMA S, GUNMA COLLEGE OF TECHNOLOGY
license=CC BY-NC-SA
exact mass=151.02694
ionization energy=70 eV
ion type=[M]+*
computed spectral entropy=2.71188304990289
computed normalized entropy=0.7690317059110324
SPLASH=splash10-0udi-9600000000-f2894ea4fbbd37052a02
submitter=submitter = University of Tokyo Team (Faculty of Engineering, University of Tokyo)
MoNA Rating=3.75

>  <NUM PEAKS>  (6383) 
34

>  <MASS SPECTRAL PEAKS>  (6383) 
27 6.07
28 5.55
29 7.19
30 6.07
31 3.81
32 2.77
37 3.21
38 4.42
39 7.8
49 1.73
50 32.84
51 86.92
52 3.99
62 2.43
63 4.33
64 3.12
65 11.01
73 1.99
74 12.82
75 14.04
76 26.52
77 99.99
78 6.24
92 4.42
93 1.65
104 19.5
105 53.21
106 3.99
120 3.47
121 2.69
135 1.56
150 84.84
151 87.52
152 8.15

$$$$

     RDKit          2D

 12 12  0  0  0  0  0  0  0  0999 V2000
   -3.8981    0.7504    0.0000 C   0  0  0  0  0  0  0  0  0  0  0  0
   -1.3000   -0.7500    0.0000 C   0  0  0  0  0  0  0  0  0  0  0  0
    0.0000    1.5000    0.0000 C   0  0  0  0  0  0  0  0  0  0  0  0
    0.0000   -1.5000    0.0000 C   0  0  0  0  0  0  0  0  0  0  0  0
    1.3000    0.7500    0.0000 C   0  0  0  0  0  0  0  0  0  0  0  0
   -2.5989    1.5002    0.0000 C   0  0  0  0  0  0  0  0  0  0  0  0
   -1.3000    0.7500    0.0000 C   0  0  0  0  0  0  0  0  0  0  0  0
    1.3000   -0.7500    0.0000 C   0  0  0  0  0  0  0  0  0  0  0  0
    2.5989   -1.5002    0.0000 N   0  0  0  0  0  0  0  0  0  0  0  0
   -2.5987    3.0002    0.0000 O   0  0  0  0  0  0  0  0  0  0  0  0
    3.8981   -0.7504    0.0000 O   0  0  0  0  0  0  0  0  0  0  0  0
    2.5987   -3.0002    0.0000 O   0  0  0  0  0  0  0  0  0  0  0  0
  4  2  2  0
  5  3  1  0
  6  1  1  0
  7  2  1  0
  7  3  2  0
  7  6  1  0
  8  4  1  0
  8  5  2  0
  9  8  1  0
 10  6  2  0
 11  9  1  0
 12  9  2  0
M  CHG  2   9   1  11  -1
M  END
>  <NAME>  (6384) 
PARA-NITROACETOPHENONE

>  <SYNONYMS>  (6384) 


>  <SPECTRUM TYPE>  (6384) 
MS1

>  <INSTRUMENT TYPE>  (6384) 
EI-B

>  <INSTRUMENT>  (6384) 
HITACHI RMU-7M

>  <ION MODE>  (6384) 
P

>  <INCHIKEY>  (6384) 
YQYGPGKTNQNXMH-UHFFFAOYSA-N

>  <FORMULA>  (6384) 
C8H7NO3

>  <EXACT MASS>  (6384) 
165.04259308399998

>  <MW>  (6384) 
165

>  <ID>  (6384) 
JP001658

>  <CONTRIBUTOR>  (6384) 
University of Tokyo Team, {Faculty of Engineering, University of Tokyo

>  <COMMENT>  (6384) 
SMILES=CC(=O)c(c1)ccc(c1)[N+1]([O-1])=O
InChI=InChI=1S/C8H7NO3/c1-6(10)7-2-4-8(5-3-7)9(11)12/h2-5H,1H3
computed SMILES=O=C(C1=CC=C(C=C1)N(=O)=O)C
accession=JP001658
date=2016.01.19 (Created 2008.10.21, modified 2011.05.06)
author=TAJIMA S, GUNMA COLLEGE OF TECHNOLOGY
license=CC BY-NC-SA
exact mass=165.04259
ionization energy=70 eV
ion type=[M]+*
computed spectral entropy=2.2874036458580136
computed normalized entropy=0.7106218973053032
SPLASH=splash10-0udi-3900000000-ef4aa0cf3d727e6de0be
submitter=submitter = University of Tokyo Team (Faculty of Engineering, University of Tokyo)
MoNA Rating=3.75

>  <NUM PEAKS>  (6384) 
25

>  <MASS SPECTRAL PEAKS>  (6384) 
43 18.38
44 2.59
50 6.33
51 2.36
55 1.14
57 1.37
63 1.91
64 1.98
65 2.44
74 2.82
75 4.73
76 12.2
77 3.81
91 2.67
92 8.39
104 27.69
105 2.29
119 1
120 19.15
121 2.44
149 1.98
150 99.99
151 7.86
165 11.44
166 0.99

$$$$

     RDKit          2D

 12 12  0  0  0  0  0  0  0  0999 V2000
   -3.2527   -0.3801    0.0000 C   0  0  0  0  0  0  0  0  0  0  0  0
    0.6489   -2.6180    0.0000 C   0  0  0  0  0  0  0  0  0  0  0  0
   -0.6501   -1.8680    0.0000 C   0  0  0  0  0  0  0  0  0  0  0  0
    1.9435   -1.8758    0.0000 C   0  0  0  0  0  0  0  0  0  0  0  0
    0.6449    0.3750    0.0000 C   0  0  0  0  0  0  0  0  0  0  0  0
   -1.9549    0.3720    0.0000 C   0  0  0  0  0  0  0  0  0  0  0  0
   -0.6546   -0.3758    0.0000 C   0  0  0  0  0  0  0  0  0  0  0  0
    1.9439   -0.3750    0.0000 C   0  0  0  0  0  0  0  0  0  0  0  0
    3.2431    0.3748    0.0000 N   0  0  0  0  0  0  0  0  0  0  0  0
   -1.9574    1.8720    0.0000 O   0  0  0  0  0  0  0  0  0  0  0  0
    4.5420   -0.3754    0.0000 O   0  0  0  0  0  0  0  0  0  0  0  0
    3.2433    1.8748    0.0000 O   0  0  0  0  0  0  0  0  0  0  0  0
  3  2  2  0
  4  2  1  0
  6  1  1  0
  7  3  1  0
  7  5  2  0
  7  6  1  0
  8  4  2  0
  8  5  1  0
  9  8  1  0
 10  6  2  0
 11  9  1  0
 12  9  2  0
M  CHG  2   9   1  11  -1
M  END
>  <NAME>  (6385) 
META-NITROACETOPHENONE

>  <SYNONYMS>  (6385) 


>  <SPECTRUM TYPE>  (6385) 
MS1

>  <INSTRUMENT TYPE>  (6385) 
EI-B

>  <INSTRUMENT>  (6385) 
HITACHI RMU-7M

>  <ION MODE>  (6385) 
P

>  <INCHIKEY>  (6385) 
ARKIFHPFTHVKDT-UHFFFAOYSA-N

>  <FORMULA>  (6385) 
C8H7NO3

>  <EXACT MASS>  (6385) 
165.04259308399998

>  <MW>  (6385) 
165

>  <ID>  (6385) 
JP001657

>  <CONTRIBUTOR>  (6385) 
University of Tokyo Team, {Faculty of Engineering, University of Tokyo

>  <COMMENT>  (6385) 
SMILES=CC(=O)c(c1)cc(cc1)[N+1]([O-1])=O
InChI=InChI=1S/C8H7NO3/c1-6(10)7-3-2-4-8(5-7)9(11)12/h2-5H,1H3
computed SMILES=O=C(C1=CC=CC(=C1)N(=O)=O)C
accession=JP001657
date=2016.01.19 (Created 2008.10.21, modified 2011.05.06)
author=TAJIMA S, GUNMA COLLEGE OF TECHNOLOGY
license=CC BY-NC-SA
exact mass=165.04259
ionization energy=70 eV
ion type=[M]+*
computed spectral entropy=2.3118304877901275
computed normalized entropy=0.7274359124171975
SPLASH=splash10-0udi-6900000000-9480015db2f7bd40b696
submitter=submitter = University of Tokyo Team (Faculty of Engineering, University of Tokyo)
MoNA Rating=3.75

>  <NUM PEAKS>  (6385) 
24

>  <MASS SPECTRAL PEAKS>  (6385) 
39 2
43 27.74
50 10.39
51 4.82
62 1.24
63 2.96
64 2
65 3.99
74 4.13
75 7.23
76 21.75
77 6.81
89 1.58
91 6.19
92 5.85
104 33.24
105 2.34
119 1.1
120 1.79
122 2.2
150 99.99
151 7.98
165 10.19
166 0.83

$$$$

     RDKit          2D

 11 10  0  0  0  0  0  0  0  0999 V2000
    2.0490    2.5981    0.0000 C   0  0  0  0  0  0  0  0  0  0  0  0
    2.0490    4.0981    0.0000 H   0  0  0  0  0  0  0  0  0  0  0  0
    2.0490    1.0981    0.0000 H   0  0  0  0  0  0  0  0  0  0  0  0
    3.5490    2.5981    0.0000 H   0  0  0  0  0  0  0  0  0  0  0  0
   -0.2010    1.2990    0.0000 C   0  0  0  0  0  0  0  0  0  0  0  0
   -1.5000    2.0490    0.0000 H   0  0  0  0  0  0  0  0  0  0  0  0
   -0.9510    0.0000    0.0000 H   0  0  0  0  0  0  0  0  0  0  0  0
    1.0981    0.5490    0.0000 H   0  0  0  0  0  0  0  0  0  0  0  0
    0.5490    2.5981    0.0000 C   0  0  0  0  0  0  0  0  0  0  0  0
    0.8095    4.0753    0.0000 H   0  0  0  0  0  0  0  0  0  0  0  0
   -0.8605    3.1111    0.0000 O   0  0  0  0  0  0  0  0  0  0  0  0
  1  2  1  0
  1  3  1  0
  1  4  1  0
  5  6  1  0
  5  7  1  0
  5  8  1  0
  9 10  1  0
  9  1  1  0
  9  5  1  0
 11  9  1  0
M  ISO  7   2   2   3   2   4   2   6   2   7   2   8   2  10   2
M  END
>  <NAME>  (6386) 
ISOPROPYL ALCOHOL(1,1,1,2,3,3,3-D7)

>  <SYNONYMS>  (6386) 


>  <SPECTRUM TYPE>  (6386) 
MS1

>  <INSTRUMENT TYPE>  (6386) 
EI-B

>  <INSTRUMENT>  (6386) 
HITACHI RMU-7M

>  <ION MODE>  (6386) 
P

>  <INCHIKEY>  (6386) 
KFZMGEQAYNKOFK-YYWVXINBSA-N

>  <FORMULA>  (6386) 
C3H8O

>  <EXACT MASS>  (6386) 
67.101452098

>  <MW>  (6386) 
67

>  <ID>  (6386) 
JP001656

>  <CONTRIBUTOR>  (6386) 
University of Tokyo Team, {Faculty of Engineering, University of Tokyo

>  <COMMENT>  (6386) 
SMILES=[2H]C([2H])([2H])C([2H])(O)C([2H])([2H])[2H]
InChI=InChI=1S/C3H8O/c1-3(2)4/h3-4H,1-2H3/i1D3,2D3,3D
computed SMILES=[H]C(O)(C([H])([H])[H])C([H])([H])[H]
accession=JP001656
date=2016.01.19 (Created 2008.10.21, modified 2011.05.06)
author=TAJIMA S, GUNMA COLLEGE OF TECHNOLOGY
license=CC BY-NC-SA
exact mass=60.05751
ionization energy=70 eV
ion type=[M]+*
computed spectral entropy=1.4333249786330373
computed normalized entropy=0.5169627096640406
SPLASH=splash10-0002-9000000000-40a45591af6378500aeb
submitter=submitter = University of Tokyo Team (Faculty of Engineering, University of Tokyo)
MoNA Rating=3.75

>  <NUM PEAKS>  (6386) 
16

>  <MASS SPECTRAL PEAKS>  (6386) 
18 2.5
21 3.72
22 0.51
28 1.93
29 1.17
30 11.66
33 2.39
42 2.09
45 2.19
46 8.66
47 1.48
48 1.68
49 99.99
50 7.74
51 0.92
65 2.19

$$$$

     RDKit          2D

 10  9  0  0  0  0  0  0  0  0999 V2000
    0.4118    1.0613    0.0000 C   0  0  0  0  0  0  0  0  0  0  0  0
    1.1618   -0.2377    0.0000 H   0  0  0  0  0  0  0  0  0  0  0  0
   -0.3382    2.3603    0.0000 H   0  0  0  0  0  0  0  0  0  0  0  0
   -0.8873    0.3113    0.0000 H   0  0  0  0  0  0  0  0  0  0  0  0
    1.7108    3.3113    0.0000 C   0  0  0  0  0  0  0  0  0  0  0  0
    3.2108    3.3113    0.0000 H   0  0  0  0  0  0  0  0  0  0  0  0
    1.7108    4.8113    0.0000 H   0  0  0  0  0  0  0  0  0  0  0  0
    0.2108    3.3113    0.0000 H   0  0  0  0  0  0  0  0  0  0  0  0
    1.7108    1.8113    0.0000 C   0  0  0  0  0  0  0  0  0  0  0  0
    3.0099    1.0613    0.0000 O   0  0  0  0  0  0  0  0  0  0  0  0
  1  2  1  0
  1  3  1  0
  1  4  1  0
  5  6  1  0
  5  7  1  0
  5  8  1  0
  9  1  1  0
  9  5  1  0
 10  9  1  0
M  ISO  6   2   2   3   2   4   2   6   2   7   2   8   2
M  END
>  <NAME>  (6387) 
ISOPROPYL ALCOHOL(1,1,1,3,3,3-D6)

>  <SYNONYMS>  (6387) 


>  <SPECTRUM TYPE>  (6387) 
MS1

>  <INSTRUMENT TYPE>  (6387) 
EI-B

>  <INSTRUMENT>  (6387) 
HITACHI RMU-7M

>  <ION MODE>  (6387) 
P

>  <INCHIKEY>  (6387) 
KFZMGEQAYNKOFK-WFGJKAKNSA-N

>  <FORMULA>  (6387) 
C3H8O

>  <EXACT MASS>  (6387) 
66.095175352

>  <MW>  (6387) 
66

>  <ID>  (6387) 
JP001655

>  <CONTRIBUTOR>  (6387) 
University of Tokyo Team, {Faculty of Engineering, University of Tokyo

>  <COMMENT>  (6387) 
SMILES=[2H]C([2H])([2H])C([H])(O)C([2H])([2H])[2H]
InChI=InChI=1S/C3H8O/c1-3(2)4/h3-4H,1-2H3/i1D3,2D3
computed SMILES=[H]C([H])([H])C(O)C([H])([H])[H]
computed spectral entropy=1.5582972291674526
accession=JP001655
date=2016.01.19 (Created 2008.10.21, modified 2011.05.06)
author=TAJIMA S, GUNMA COLLEGE OF TECHNOLOGY
license=CC BY-NC-SA
exact mass=60.05751
ionization energy=70 eV
ion type=[M]+*
computed normalized entropy=0.5754314408695992
SPLASH=splash10-0002-9000000000-a1c27780d39325f67c84
submitter=submitter = University of Tokyo Team (Faculty of Engineering, University of Tokyo)
MoNA Rating=3.75

>  <NUM PEAKS>  (6387) 
15

>  <MASS SPECTRAL PEAKS>  (6387) 
18 2.5
20 3.22
21 2.91
28 1.38
29 6.38
30 4.85
33 3.47
42 1.89
44 1.69
45 5.11
46 8.84
47 1.74
48 99.99
49 8.32
65 4.85

$$$$

     RDKit          2D

  5  4  0  0  0  0  0  0  0  0999 V2000
   -1.2990    0.7500    0.0000 C   0  0  0  0  0  0  0  0  0  0  0  0
    0.7500    0.2010    0.0000 C   0  0  0  0  0  0  0  0  0  0  0  0
    0.0000    1.5000    0.0000 C   0  0  0  0  0  0  0  0  0  0  0  0
    1.2990    2.2500    0.0000 H   0  0  0  0  0  0  0  0  0  0  0  0
   -0.7500    2.7990    0.0000 O   0  0  0  0  0  0  0  0  0  0  0  0
  3  4  1  0
  3  1  1  0
  3  2  1  0
  5  3  1  0
M  ISO  1   4   2
M  END
>  <NAME>  (6388) 
ISOPROPYL ALCOHOL(2-D)

>  <SYNONYMS>  (6388) 


>  <SPECTRUM TYPE>  (6388) 
MS1

>  <INSTRUMENT TYPE>  (6388) 
EI-B

>  <INSTRUMENT>  (6388) 
HITACHI RMU-7M

>  <ION MODE>  (6388) 
P

>  <INCHIKEY>  (6388) 
KFZMGEQAYNKOFK-WFVSFCRTSA-N

>  <FORMULA>  (6388) 
C3H8O

>  <EXACT MASS>  (6388) 
61.063791622

>  <MW>  (6388) 
61

>  <ID>  (6388) 
JP001654

>  <CONTRIBUTOR>  (6388) 
University of Tokyo Team, {Faculty of Engineering, University of Tokyo

>  <COMMENT>  (6388) 
SMILES=[2H]C(C)(C)O
InChI=InChI=1S/C3H8O/c1-3(2)4/h3-4H,1-2H3/i3D
computed SMILES=[H]C(O)(C)C
accession=JP001654
date=2016.01.19 (Created 2008.10.21, modified 2011.05.06)
author=TAJIMA S, GUNMA COLLEGE OF TECHNOLOGY
license=CC BY-NC-SA
exact mass=60.05751
ionization energy=70 eV
ion type=[M]+*
computed spectral entropy=1.6627774069974746
computed normalized entropy=0.564717903397747
SPLASH=splash10-0002-9000000000-f68d78a99d0ee77081c8
submitter=submitter = University of Tokyo Team (Faculty of Engineering, University of Tokyo)
MoNA Rating=3.75

>  <NUM PEAKS>  (6388) 
19

>  <MASS SPECTRAL PEAKS>  (6388) 
15 2.52
19 2.63
20 2.09
27 3.92
28 8.05
29 3.11
30 2.52
31 2.41
32 1.07
39 2.15
40 1.72
41 1.77
42 4.03
43 6.23
44 7.14
45 3.22
46 99.99
47 1.93
59 1.56

$$$$

     RDKit          2D

 11 11  0  0  0  0  0  0  0  0999 V2000
   -3.8981    0.7504    0.0000 C   0  0  0  0  0  0  0  0  0  0  0  0
   -2.5989    1.5002    0.0000 C   0  0  0  0  0  0  0  0  0  0  0  0
   -1.3000   -0.7500    0.0000 C   0  0  0  0  0  0  0  0  0  0  0  0
    0.0000    1.5000    0.0000 C   0  0  0  0  0  0  0  0  0  0  0  0
    0.0000   -1.5000    0.0000 C   0  0  0  0  0  0  0  0  0  0  0  0
    1.3000    0.7500    0.0000 C   0  0  0  0  0  0  0  0  0  0  0  0
   -1.3000    0.7500    0.0000 C   0  0  0  0  0  0  0  0  0  0  0  0
    1.3000   -0.7500    0.0000 C   0  0  0  0  0  0  0  0  0  0  0  0
    2.5989   -1.5002    0.0000 N   0  0  0  0  0  0  0  0  0  0  0  0
    3.8981   -0.7504    0.0000 O   0  0  0  0  0  0  0  0  0  0  0  0
    2.5987   -3.0002    0.0000 O   0  0  0  0  0  0  0  0  0  0  0  0
  2  1  1  0
  5  3  2  0
  6  4  1  0
  7  2  1  0
  7  3  1  0
  7  4  2  0
  8  5  1  0
  8  6  2  0
  9  8  1  0
 10  9  1  0
 11  9  2  0
M  CHG  2   9   1  10  -1
M  END
>  <NAME>  (6389) 
1-ETHYL-4-NITROBENZENE

>  <SYNONYMS>  (6389) 


>  <SPECTRUM TYPE>  (6389) 
MS1

>  <INSTRUMENT TYPE>  (6389) 
EI-B

>  <INSTRUMENT>  (6389) 
HITACHI RMU-7M

>  <ION MODE>  (6389) 
P

>  <INCHIKEY>  (6389) 
RESTWAHJFMZUIZ-UHFFFAOYSA-N

>  <FORMULA>  (6389) 
C8H9NO2

>  <EXACT MASS>  (6389) 
151.063328528

>  <MW>  (6389) 
151

>  <ID>  (6389) 
JP001653

>  <CONTRIBUTOR>  (6389) 
University of Tokyo Team, {Faculty of Engineering, University of Tokyo

>  <COMMENT>  (6389) 
SMILES=CCc(c1)ccc(c1)[N+1]([O-1])=O
InChI=InChI=1S/C8H9NO2/c1-2-7-3-5-8(6-4-7)9(10)11/h3-6H,2H2,1H3
computed SMILES=O=N(=O)C1=CC=C(C=C1)CC
accession=JP001653
date=2016.01.19 (Created 2008.10.21, modified 2011.05.06)
author=TAJIMA S, GUNMA COLLEGE OF TECHNOLOGY
license=CC BY-NC-SA
exact mass=151.06333
ionization energy=70 eV
ion type=[M]+*
computed spectral entropy=3.168797356445371
computed normalized entropy=0.8478002820112099
SPLASH=splash10-0kdi-9600000000-5a59b853e1200cc56f4d
submitter=submitter = University of Tokyo Team (Faculty of Engineering, University of Tokyo)
MoNA Rating=3.75

>  <NUM PEAKS>  (6389) 
42

>  <MASS SPECTRAL PEAKS>  (6389) 
15 1.01
26 1.55
27 22.02
28 5.27
29 3.33
30 19.61
38 3.88
39 23.64
40 2.4
41 3.64
50 16.74
51 30.31
52 7.6
53 8.84
62 5.35
63 18.37
64 4.88
65 11.32
74 5.58
75 5.43
76 5.04
77 85.58
78 34.11
79 61.63
80 3.88
89 16.12
90 10.08
91 10.47
92 2.02
93 11.01
102 3.88
103 35.12
104 18.6
105 84.03
106 22.71
121 11.47
134 11.78
135 3.64
136 25.5
137 2.02
151 99.99
152 9.46

$$$$

     RDKit          2D

 12 12  0  0  0  0  0  0  0  0999 V2000
    0.7500    1.3100    0.0000 C   0  0  0  0  0  0  0  0  0  0  0  0
   -0.7600    1.2900    0.0000 C   0  0  0  0  0  0  0  0  0  0  0  0
    0.7500   -1.2900    0.0000 C   0  0  0  0  0  0  0  0  0  0  0  0
   -0.7300   -1.3000    0.0000 C   0  0  0  0  0  0  0  0  0  0  0  0
    1.4900    0.0200    0.0000 C   0  0  0  0  0  0  0  0  0  0  0  0
   -1.5000   -0.0100    0.0000 C   0  0  0  0  0  0  0  0  0  0  0  0
    2.9900    0.0250    0.0000 N   0  0  0  0  0  0  0  0  0  0  0  0
   -2.9999   -0.0255    0.0000 N   0  0  0  0  0  0  0  0  0  0  0  0
    3.7357    1.3265    0.0000 O   0  0  0  0  0  0  0  0  0  0  0  0
    3.7443   -1.2716    0.0000 O   0  0  0  0  0  0  0  0  0  0  0  0
   -3.7633    1.2657    0.0000 O   0  0  0  0  0  0  0  0  0  0  0  0
   -3.7365   -1.3322    0.0000 O   0  0  0  0  0  0  0  0  0  0  0  0
  2  1  2  0
  4  3  1  0
  5  1  1  0
  5  3  2  0
  6  2  1  0
  6  4  2  0
  7  5  1  0
  8  6  1  0
  9  7  1  0
 10  7  2  0
 11  8  1  0
 12  8  2  0
M  CHG  4   7   1   8   1   9  -1  11  -1
M  END
>  <NAME>  (6390) 
1,4-DINITROBENZENE

>  <SYNONYMS>  (6390) 


>  <SPECTRUM TYPE>  (6390) 
MS1

>  <INSTRUMENT TYPE>  (6390) 
EI-B

>  <INSTRUMENT>  (6390) 
HITACHI RMU-7M

>  <ION MODE>  (6390) 
P

>  <INCHIKEY>  (6390) 
FYFDQJRXFWGIBS-UHFFFAOYSA-N

>  <FORMULA>  (6390) 
C6H4N2O4

>  <EXACT MASS>  (6390) 
168.017106608

>  <MW>  (6390) 
168

>  <ID>  (6390) 
JP001652

>  <CONTRIBUTOR>  (6390) 
University of Tokyo Team, {Faculty of Engineering, University of Tokyo

>  <COMMENT>  (6390) 
SMILES=[O-1][N+1](=O)c(c1)ccc(c1)[N+1]([O-1])=O
InChI=InChI=1S/C6H4N2O4/c9-7(10)5-1-2-6(4-3-5)8(11)12/h1-4H
computed SMILES=O=N(=O)C1=CC=C(C=C1)N(=O)=O
accession=JP001652
date=2016.01.19 (Created 2008.10.21, modified 2011.05.06)
author=TAJIMA S, GUNMA COLLEGE OF TECHNOLOGY
license=CC BY-NC-SA
exact mass=168.01711
ionization energy=70 eV
ion type=[M]+*
computed spectral entropy=2.6560705819790638
computed normalized entropy=0.7596353033096469
SPLASH=splash10-0059-9200000000-de5173d7f39ae3292ad7
submitter=submitter = University of Tokyo Team (Faculty of Engineering, University of Tokyo)
MoNA Rating=3.75

>  <NUM PEAKS>  (6390) 
33

>  <MASS SPECTRAL PEAKS>  (6390) 
26 1.3
27 2.86
28 9.09
30 93.05
37 4.03
38 7.4
39 6.36
44 2.01
46 1.3
49 1.82
50 69.48
51 8.31
52 2.47
53 4.42
61 2.27
62 4.29
63 17.47
64 28.25
65 2.66
73 3.12
74 22.73
75 99.99
76 70.26
77 6.04
91 2.6
92 33.96
93 2.27
122 30.52
123 2.14
138 0.65
152 2.08
168 78.83
169 5.84

$$$$

     RDKit          2D

 12 12  0  0  0  0  0  0  0  0999 V2000
    5.1970    1.5006    0.0000 C   0  0  0  0  0  0  0  0  0  0  0  0
    3.8981    0.7504    0.0000 C   0  0  0  0  0  0  0  0  0  0  0  0
   -1.3000    0.7500    0.0000 C   0  0  0  0  0  0  0  0  0  0  0  0
   -0.0000   -1.5000    0.0000 C   0  0  0  0  0  0  0  0  0  0  0  0
    0.0000    1.5000    0.0000 C   0  0  0  0  0  0  0  0  0  0  0  0
    1.3000   -0.7500    0.0000 C   0  0  0  0  0  0  0  0  0  0  0  0
   -1.3000   -0.7500    0.0000 C   0  0  0  0  0  0  0  0  0  0  0  0
    1.3000    0.7500    0.0000 C   0  0  0  0  0  0  0  0  0  0  0  0
   -2.5989   -1.5002    0.0000 N   0  0  0  0  0  0  0  0  0  0  0  0
   -3.8981   -0.7504    0.0000 O   0  0  0  0  0  0  0  0  0  0  0  0
   -2.5987   -3.0002    0.0000 O   0  0  0  0  0  0  0  0  0  0  0  0
    2.5989    1.5002    0.0000 O   0  0  0  0  0  0  0  0  0  0  0  0
  2  1  1  0
  5  3  2  0
  6  4  1  0
  7  3  1  0
  7  4  2  0
  8  5  1  0
  8  6  2  0
  9  7  1  0
 10  9  1  0
 11  9  2  0
 12  2  1  0
 12  8  1  0
M  CHG  2   9   1  10  -1
M  END
>  <NAME>  (6391) 
1-ETHOXY-4-NITROBENZENE

>  <SYNONYMS>  (6391) 


>  <SPECTRUM TYPE>  (6391) 
MS1

>  <INSTRUMENT TYPE>  (6391) 
EI-B

>  <INSTRUMENT>  (6391) 
HITACHI RMU-7M

>  <ION MODE>  (6391) 
P

>  <INCHIKEY>  (6391) 
NWPKEYHUZKMWKJ-UHFFFAOYSA-N

>  <FORMULA>  (6391) 
C8H9NO3

>  <EXACT MASS>  (6391) 
167.058243148

>  <MW>  (6391) 
167

>  <ID>  (6391) 
JP001651

>  <CONTRIBUTOR>  (6391) 
University of Tokyo Team, {Faculty of Engineering, University of Tokyo

>  <COMMENT>  (6391) 
SMILES=CCOc(c1)ccc(c1)[N+1]([O-1])=O
InChI=InChI=1S/C8H9NO3/c1-2-12-8-5-3-7(4-6-8)9(10)11/h3-6H,2H2,1H3
computed SMILES=O=N(=O)C1=CC=C(OCC)C=C1
accession=JP001651
date=2016.01.19 (Created 2008.10.21, modified 2011.05.06)
author=TAJIMA S, GUNMA COLLEGE OF TECHNOLOGY
license=CC BY-NC-SA
exact mass=167.05824
ionization energy=70 eV
ion type=[M]+*
computed spectral entropy=2.8128471409199585
computed normalized entropy=0.8044733470389562
SPLASH=splash10-014r-9700000000-b86ce4714da069ea1c87
submitter=submitter = University of Tokyo Team (Faculty of Engineering, University of Tokyo)
MoNA Rating=3.75

>  <NUM PEAKS>  (6391) 
33

>  <MASS SPECTRAL PEAKS>  (6391) 
26 2.17
27 16.47
28 4.34
29 43.93
30 6.29
38 5.78
39 23.7
50 11.49
51 4.34
52 2.17
53 6.5
62 3.61
63 14.45
64 10.98
65 53.11
66 3.47
74 3.4
75 7.23
76 7.95
77 4.34
81 14.67
91 2.89
92 5.35
93 31.29
94 2.38
109 33.02
110 2.1
122 1.66
123 6.79
139 99.99
140 6.94
167 94.94
168 9.68

$$$$

     RDKit          2D

  9  9  0  0  0  0  0  0  0  0999 V2000
    2.6027    1.4936    0.0000 C   0  0  0  0  0  0  0  0  0  0  0  0
   -3.9180   -0.7714    0.0000 C   0  0  0  0  0  0  0  0  0  0  0  0
    1.3000   -0.7500    0.0000 C   0  0  0  0  0  0  0  0  0  0  0  0
    0.0300    1.5000    0.0000 C   0  0  0  0  0  0  0  0  0  0  0  0
    0.0300   -1.5000    0.0000 C   0  0  0  0  0  0  0  0  0  0  0  0
   -1.3200    0.7500    0.0000 C   0  0  0  0  0  0  0  0  0  0  0  0
    1.3000    0.7500    0.0000 C   0  0  0  0  0  0  0  0  0  0  0  0
   -1.3200   -0.7500    0.0000 C   0  0  0  0  0  0  0  0  0  0  0  0
   -2.6128   -1.5107    0.0000 O   0  0  0  0  0  0  0  0  0  0  0  0
  5  3  2  0
  6  4  1  0
  7  1  1  0
  7  3  1  0
  7  4  2  0
  8  5  1  0
  8  6  2  0
  9  2  1  0
  9  8  1  0
M  END
>  <NAME>  (6392) 
PARA-METHOXYTOLUENE

>  <SYNONYMS>  (6392) 
PARA-METHYLANISOLE

>  <SPECTRUM TYPE>  (6392) 
MS1

>  <INSTRUMENT TYPE>  (6392) 
EI-B

>  <INSTRUMENT>  (6392) 
HITACHI RMU-7M

>  <ION MODE>  (6392) 
P

>  <INCHIKEY>  (6392) 
CHLICZRVGGXEOD-UHFFFAOYSA-N

>  <FORMULA>  (6392) 
C8H10O

>  <EXACT MASS>  (6392) 
122.07316494

>  <MW>  (6392) 
122

>  <ID>  (6392) 
JP001650

>  <CONTRIBUTOR>  (6392) 
University of Tokyo Team, {Faculty of Engineering, University of Tokyo

>  <COMMENT>  (6392) 
SMILES=COc(c1)ccc(C)c1
InChI=InChI=1S/C8H10O/c1-7-3-5-8(9-2)6-4-7/h3-6H,1-2H3
computed SMILES=O(C1=CC=C(C=C1)C)C
accession=JP001650
license=CC BY-NC-SA
date=2016.01.19 (Created 2008.10.21, modified 2011.05.06)
author=TAJIMA S, GUNMA COLLEGE OF TECHNOLOGY
exact mass=122.07316
ionization energy=70 eV
ion type=[M]+*
computed spectral entropy=2.5827964179090603
computed normalized entropy=0.7593785740970008
SPLASH=splash10-00di-7900000000-7f556bdac6b787d60bd9
submitter=submitter = University of Tokyo Team (Faculty of Engineering, University of Tokyo)
MoNA Rating=3.75

>  <NUM PEAKS>  (6392) 
30

>  <MASS SPECTRAL PEAKS>  (6392) 
15 1.72
27 5.26
28 1.29
38 1.72
39 9.6
41 1.61
50 4.83
51 10.41
52 5.79
53 5.36
61 1.39
62 1.77
63 4.77
64 1.5
65 6.71
75 1.13
77 32.73
78 7.99
79 23.23
80 1.61
89 2.47
90 2.04
91 23.07
92 8.05
93 1.56
107 33.26
108 3
121 50.05
122 99.99
123 8.48

$$$$

     RDKit          2D

  9  9  0  0  0  0  0  0  0  0999 V2000
   -0.3325    2.4400    0.0000 C   0  0  0  0  0  0  0  0  0  0  0  0
   -1.6200   -1.3100    0.0000 C   0  0  0  0  0  0  0  0  0  0  0  0
   -0.3300   -2.0600    0.0000 C   0  0  0  0  0  0  0  0  0  0  0  0
   -1.6200    0.1900    0.0000 C   0  0  0  0  0  0  0  0  0  0  0  0
    0.9700   -1.3100    0.0000 C   0  0  0  0  0  0  0  0  0  0  0  0
    2.2689    0.9402    0.0000 C   0  0  0  0  0  0  0  0  0  0  0  0
   -0.3300    0.9400    0.0000 C   0  0  0  0  0  0  0  0  0  0  0  0
    0.9700    0.1900    0.0000 C   0  0  0  0  0  0  0  0  0  0  0  0
    3.5678    1.6904    0.0000 N   0  0  0  0  0  0  0  0  0  0  0  0
  3  2  2  0
  4  2  1  0
  5  3  1  0
  7  1  1  0
  7  4  2  0
  8  5  2  0
  8  6  1  0
  8  7  1  0
  9  6  3  0
M  END
>  <NAME>  (6393) 
ORTHO-TOLUNITRILE

>  <SYNONYMS>  (6393) 
1-METHYL-2-CYANOBENZENE

>  <SPECTRUM TYPE>  (6393) 
MS1

>  <INSTRUMENT TYPE>  (6393) 
EI-B

>  <INSTRUMENT>  (6393) 
HITACHI RMU-7M

>  <ION MODE>  (6393) 
P

>  <INCHIKEY>  (6393) 
NWPNXBQSRGKSJB-UHFFFAOYSA-N

>  <FORMULA>  (6393) 
C8H7N

>  <EXACT MASS>  (6393) 
117.057849224

>  <MW>  (6393) 
117

>  <ID>  (6393) 
JP001649

>  <CONTRIBUTOR>  (6393) 
University of Tokyo Team, {Faculty of Engineering, University of Tokyo

>  <COMMENT>  (6393) 
SMILES=N#Cc(c1)c(C)ccc1
InChI=InChI=1S/C8H7N/c1-7-4-2-3-5-8(7)6-9/h2-5H,1H3
computed SMILES=N#CC=1C=CC=CC1C
accession=JP001649
date=2016.01.19 (Created 2008.10.21, modified 2011.05.06)
author=TAJIMA S, GUNMA COLLEGE OF TECHNOLOGY
license=CC BY-NC-SA
exact mass=117.05785
ionization energy=70 eV
ion type=[M]+*
computed spectral entropy=2.218449361917622
computed normalized entropy=0.6980527959385564
SPLASH=splash10-014i-7900000000-d67c49567738ed2f481c
submitter=submitter = University of Tokyo Team (Faculty of Engineering, University of Tokyo)
MoNA Rating=3.75

>  <NUM PEAKS>  (6393) 
24

>  <MASS SPECTRAL PEAKS>  (6393) 
27 2.27
37 2.2
38 3.11
39 9.4
50 4.47
51 5.08
52 1.59
58.5 2.12
61 2.12
62 4.02
63 10.01
64 4.55
65 2.12
75 2.35
76 1.97
88 2.5
89 25.47
90 47.99
91 5.23
114 1.06
115 1.44
116 54.44
117 99.99
118 8.49

$$$$

     RDKit          2D

 13 13  0  0  0  0  0  0  0  0999 V2000
   -4.5510    1.8802    0.0000 C   0  0  0  0  0  0  0  0  0  0  0  0
    5.8522    0.3571    0.0000 C   0  0  0  0  0  0  0  0  0  0  0  0
   -3.2482    2.6238    0.0000 C   0  0  0  0  0  0  0  0  0  0  0  0
    1.9442    2.6046    0.0000 C   0  0  0  0  0  0  0  0  0  0  0  0
    0.6306    0.3798    0.0000 C   0  0  0  0  0  0  0  0  0  0  0  0
    3.2287    1.8798    0.0000 C   0  0  0  0  0  0  0  0  0  0  0  0
    1.9551   -0.4144    0.0000 C   0  0  0  0  0  0  0  0  0  0  0  0
    0.6451    1.8546    0.0000 C   0  0  0  0  0  0  0  0  0  0  0  0
    3.2542    0.3356    0.0000 C   0  0  0  0  0  0  0  0  0  0  0  0
   -0.6502    2.6110    0.0000 C   0  0  0  0  0  0  0  0  0  0  0  0
   -0.6428    4.1110    0.0000 O   0  0  0  0  0  0  0  0  0  0  0  0
    4.5594   -0.4036    0.0000 O   0  0  0  0  0  0  0  0  0  0  0  0
   -1.9529    1.8674    0.0000 O   0  0  0  0  0  0  0  0  0  0  0  0
  3  1  1  0
  6  4  2  0
  7  5  1  0
  8  4  1  0
  8  5  2  0
  9  6  1  0
  9  7  2  0
 10  8  1  0
 11 10  2  0
 12  2  1  0
 12  9  1  0
 13  3  1  0
 13 10  1  0
M  END
>  <NAME>  (6394) 
ETHYL PARA-METHOXYBENZOATE

>  <SYNONYMS>  (6394) 
PARA-METHOXYBENZOIC ACID ETHYL ESTER

>  <SPECTRUM TYPE>  (6394) 
MS1

>  <INSTRUMENT TYPE>  (6394) 
EI-B

>  <INSTRUMENT>  (6394) 
HITACHI RMU-7M

>  <ION MODE>  (6394) 
P

>  <INCHIKEY>  (6394) 
FHUODBDRWMIBQP-UHFFFAOYSA-N

>  <FORMULA>  (6394) 
C10H12O3

>  <EXACT MASS>  (6394) 
180.07864424399997

>  <MW>  (6394) 
180

>  <ID>  (6394) 
JP001648

>  <CONTRIBUTOR>  (6394) 
University of Tokyo Team, {Faculty of Engineering, University of Tokyo

>  <COMMENT>  (6394) 
SMILES=CCOC(=O)c(c1)ccc(OC)c1
InChI=InChI=1S/C10H12O3/c1-3-13-10(11)8-4-6-9(12-2)7-5-8/h4-7H,3H2,1-2H3
computed SMILES=O=C(OCC)C1=CC=C(OC)C=C1
accession=JP001648
date=2016.01.19 (Created 2008.10.21, modified 2011.05.06)
author=TAJIMA S, GUNMA COLLEGE OF TECHNOLOGY
license=CC BY-NC-SA
exact mass=180.07864
ionization energy=70 eV
ion type=[M]+*
computed spectral entropy=2.41325821776258
computed normalized entropy=0.7095319521218811
SPLASH=splash10-000i-4900000000-7cf2064b76af6cfd64cc
submitter=submitter = University of Tokyo Team (Faculty of Engineering, University of Tokyo)
MoNA Rating=3.75

>  <NUM PEAKS>  (6394) 
30

>  <MASS SPECTRAL PEAKS>  (6394) 
15 0.76
27 3.46
28 1.59
29 3.94
38 2.14
39 1.94
50 3.73
51 2.35
53 1.38
62 1.31
63 7.12
64 10.24
65 2.42
74 1.24
75 1.31
76 2.49
77 20.06
78 1.94
79 1.59
92 13.42
107 13.97
108 1.87
135 99.99
136 10.86
152 19.36
153 1.52
165 1.94
166 1.52
180 17.01
181 1.66

$$$$

     RDKit          2D

 10  9  0  0  0  0  0  0  0  0999 V2000
   -8.4437    5.6250    0.0000 C   0  0  0  0  0  0  0  0  0  0  0  0
    3.2476    4.8750    0.0000 C   0  0  0  0  0  0  0  0  0  0  0  0
   -7.1447    4.8750    0.0000 C   0  0  0  0  0  0  0  0  0  0  0  0
    1.9486    5.6250    0.0000 C   0  0  0  0  0  0  0  0  0  0  0  0
   -5.8457    5.6250    0.0000 C   0  0  0  0  0  0  0  0  0  0  0  0
    0.6495    4.8750    0.0000 C   0  0  0  0  0  0  0  0  0  0  0  0
   -4.5466    4.8750    0.0000 C   0  0  0  0  0  0  0  0  0  0  0  0
   -0.6495    5.6250    0.0000 C   0  0  0  0  0  0  0  0  0  0  0  0
   -3.2476    5.6250    0.0000 C   0  0  0  0  0  0  0  0  0  0  0  0
   -1.9486    4.8750    0.0000 C   0  0  0  0  0  0  0  0  0  0  0  0
  3  1  1  0
  4  2  1  0
  3  5  2  0
  6  4  1  0
  7  5  1  0
  8  6  1  0
  9  7  1  0
 10  8  1  0
 10  9  1  0
M  END
>  <NAME>  (6395) 
2-DECENE

>  <SYNONYMS>  (6395) 


>  <SPECTRUM TYPE>  (6395) 
MS1

>  <INSTRUMENT TYPE>  (6395) 
EI-B

>  <INSTRUMENT>  (6395) 
VARIAN MAT-44

>  <ION MODE>  (6395) 
P

>  <INCHIKEY>  (6395) 
YKNMBTZOEVIJCM-HWKANZROSA-N

>  <FORMULA>  (6395) 
C10H20

>  <EXACT MASS>  (6395) 
140.15650064

>  <MW>  (6395) 
140

>  <ID>  (6395) 
JP001647

>  <CONTRIBUTOR>  (6395) 
University of Tokyo Team, {Faculty of Engineering, University of Tokyo

>  <COMMENT>  (6395) 
SMILES=CCCCCCCC=CC
InChI=InChI=1S/C10H20/c1-3-5-7-9-10-8-6-4-2/h3,5H,4,6-10H2,1-2H3/b5-3+
computed SMILES=C(=CCCCCCCC)C
accession=JP001647
date=2016.01.19 (Created 2008.10.21, modified 2011.05.06)
author=KOGA M, UNIV. OF OCCUPATIONAL AND ENVIRONMENTAL HEALTH
license=CC BY-NC-SA
exact mass=140.1565
ionization energy=70 eV
ion type=[M]+*
computed spectral entropy=3.1389002645326385
computed normalized entropy=0.8198470265225266
SPLASH=splash10-052f-9000000000-174948192140207f4cb8
submitter=submitter = University of Tokyo Team (Faculty of Engineering, University of Tokyo)
MoNA Rating=3.75

>  <NUM PEAKS>  (6395) 
46

>  <MASS SPECTRAL PEAKS>  (6395) 
30 9.32
31 3.92
32 1.91
39 24.56
40 7.08
41 92.56
42 24.88
43 99.99
44 7.43
45 5.47
53 7.36
54 16.75
55 74
56 38.98
57 82.81
58 12.06
59 2.62
60 2.52
65 1.28
66 2.32
67 18.35
68 16.22
69 37.91
70 43.44
71 24.91
72 8.07
73 3.71
79 3.01
80 1.69
81 12.41
82 16.09
83 25.2
84 12.94
85 9.24
86 1.31
93 1.23
95 6.4
96 7.32
97 12.41
98 5.02
99 1.28
109 2.1
110 2.3
111 3.81
112 1.73
125 1.15

$$$$

     RDKit          2D

 18 17  0  0  0  0  0  0  0  0999 V2000
  -16.2380   10.1250    0.0000 C   0  0  0  0  0  0  0  0  0  0  0  0
    5.8457    9.3750    0.0000 C   0  0  0  0  0  0  0  0  0  0  0  0
  -14.9389    9.3750    0.0000 C   0  0  0  0  0  0  0  0  0  0  0  0
    4.5466   10.1250    0.0000 C   0  0  0  0  0  0  0  0  0  0  0  0
  -13.6399   10.1250    0.0000 C   0  0  0  0  0  0  0  0  0  0  0  0
    3.2476    9.3750    0.0000 C   0  0  0  0  0  0  0  0  0  0  0  0
  -12.3409    9.3750    0.0000 C   0  0  0  0  0  0  0  0  0  0  0  0
    1.9486   10.1250    0.0000 C   0  0  0  0  0  0  0  0  0  0  0  0
  -11.0418   10.1250    0.0000 C   0  0  0  0  0  0  0  0  0  0  0  0
    0.6495    9.3750    0.0000 C   0  0  0  0  0  0  0  0  0  0  0  0
   -9.7428    9.3750    0.0000 C   0  0  0  0  0  0  0  0  0  0  0  0
   -0.6495   10.1250    0.0000 C   0  0  0  0  0  0  0  0  0  0  0  0
   -8.4437   10.1250    0.0000 C   0  0  0  0  0  0  0  0  0  0  0  0
   -1.9486    9.3750    0.0000 C   0  0  0  0  0  0  0  0  0  0  0  0
   -7.1447    9.3750    0.0000 C   0  0  0  0  0  0  0  0  0  0  0  0
   -3.2476   10.1250    0.0000 C   0  0  0  0  0  0  0  0  0  0  0  0
   -5.8457   10.1250    0.0000 C   0  0  0  0  0  0  0  0  0  0  0  0
   -4.5466    9.3750    0.0000 C   0  0  0  0  0  0  0  0  0  0  0  0
  3  1  1  0
  4  2  1  0
  5  3  1  0
  6  4  1  0
  7  5  1  0
  8  6  1  0
  9  7  1  0
 10  8  1  0
 11  9  1  0
 12 10  1  0
 13 11  1  0
 14 12  1  0
 15 13  1  0
 16 14  1  0
 17 15  1  0
 18 16  1  0
 18 17  1  0
M  END
>  <NAME>  (6396) 
N-OCTADECANE

>  <SYNONYMS>  (6396) 


>  <SPECTRUM TYPE>  (6396) 
MS1

>  <INSTRUMENT TYPE>  (6396) 
EI-B

>  <INSTRUMENT>  (6396) 
VARIAN MAT-44

>  <ION MODE>  (6396) 
P

>  <INCHIKEY>  (6396) 
RZJRJXONCZWCBN-UHFFFAOYSA-N

>  <FORMULA>  (6396) 
C18H38

>  <EXACT MASS>  (6396) 
254.29735121599998

>  <MW>  (6396) 
254

>  <ID>  (6396) 
JP001646

>  <CONTRIBUTOR>  (6396) 
University of Tokyo Team, {Faculty of Engineering, University of Tokyo

>  <COMMENT>  (6396) 
SMILES=CCCCCCCCCCCCCCCCCC
cas=593-45-3
InChI=InChI=1S/C18H38/c1-3-5-7-9-11-13-15-17-18-16-14-12-10-8-6-4-2/h3-18H2,1-2H3
computed SMILES=CCCCCCCCCCCCCCCCCC
accession=JP001646
date=2016.01.19 (Created 2008.10.21, modified 2011.05.06)
author=KOGA M, UNIV. OF OCCUPATIONAL AND ENVIRONMENTAL HEALTH
license=CC BY-NC-SA
exact mass=254.29735
ionization energy=70 eV
ion type=[M]+*
computed spectral entropy=2.3893010035677964
computed normalized entropy=0.709560764543041
SPLASH=splash10-0a4l-9000000000-57d32abbd4d744a3ed5a
submitter=submitter = University of Tokyo Team (Faculty of Engineering, University of Tokyo)
MoNA Rating=3.75

>  <NUM PEAKS>  (6396) 
29

>  <MASS SPECTRAL PEAKS>  (6396) 
41 27.65
42 8.82
43 84.53
44 4.92
54 1.56
55 15.93
56 13.67
57 99.99
58 4.29
67 1.17
68 1.25
69 6.64
70 7.5
71 50.23
72 2.81
82 1.4
83 3.59
84 3.67
85 24.92
86 1.48
97 2.1
98 2.18
99 6.87
112 1.4
113 3.2
126 1.01
127 1.95
141 1.25
254 1.17

$$$$

     RDKit          2D

 16 15  0  0  0  0  0  0  0  0999 V2000
    5.1962    8.2500    0.0000 C   0  0  0  0  0  0  0  0  0  0  0  0
  -14.2894    9.0000    0.0000 C   0  0  0  0  0  0  0  0  0  0  0  0
    3.8971    9.0000    0.0000 C   0  0  0  0  0  0  0  0  0  0  0  0
  -12.9904    8.2500    0.0000 C   0  0  0  0  0  0  0  0  0  0  0  0
    2.5981    8.2500    0.0000 C   0  0  0  0  0  0  0  0  0  0  0  0
  -11.6913    9.0000    0.0000 C   0  0  0  0  0  0  0  0  0  0  0  0
    1.2990    9.0000    0.0000 C   0  0  0  0  0  0  0  0  0  0  0  0
  -10.3923    8.2500    0.0000 C   0  0  0  0  0  0  0  0  0  0  0  0
    0.0000    8.2500    0.0000 C   0  0  0  0  0  0  0  0  0  0  0  0
   -9.0933    9.0000    0.0000 C   0  0  0  0  0  0  0  0  0  0  0  0
   -1.2990    9.0000    0.0000 C   0  0  0  0  0  0  0  0  0  0  0  0
   -7.7942    8.2500    0.0000 C   0  0  0  0  0  0  0  0  0  0  0  0
   -2.5981    8.2500    0.0000 C   0  0  0  0  0  0  0  0  0  0  0  0
   -6.4952    9.0000    0.0000 C   0  0  0  0  0  0  0  0  0  0  0  0
   -3.8971    9.0000    0.0000 C   0  0  0  0  0  0  0  0  0  0  0  0
   -5.1962    8.2500    0.0000 C   0  0  0  0  0  0  0  0  0  0  0  0
  3  1  1  0
  4  2  1  0
  5  3  1  0
  6  4  1  0
  7  5  1  0
  8  6  1  0
  9  7  1  0
 10  8  1  0
 11  9  1  0
 12 10  1  0
 13 11  1  0
 14 12  1  0
 15 13  1  0
 16 14  1  0
 16 15  1  0
M  END
>  <NAME>  (6397) 
N-HEXADECANE

>  <SYNONYMS>  (6397) 


>  <SPECTRUM TYPE>  (6397) 
MS1

>  <INSTRUMENT TYPE>  (6397) 
EI-B

>  <INSTRUMENT>  (6397) 
VARIAN MAT-44

>  <ION MODE>  (6397) 
P

>  <INCHIKEY>  (6397) 
DCAYPVUWAIABOU-UHFFFAOYSA-N

>  <FORMULA>  (6397) 
C16H34

>  <EXACT MASS>  (6397) 
226.26605108799998

>  <MW>  (6397) 
226

>  <ID>  (6397) 
JP001645

>  <CONTRIBUTOR>  (6397) 
University of Tokyo Team, {Faculty of Engineering, University of Tokyo

>  <COMMENT>  (6397) 
SMILES=CCCCCCCCCCCCCCCC
cas=544-76-3
InChI=InChI=1S/C16H34/c1-3-5-7-9-11-13-15-16-14-12-10-8-6-4-2/h3-16H2,1-2H3
computed SMILES=CCCCCCCCCCCCCCCC
accession=JP001645
date=2016.01.19 (Created 2008.10.21, modified 2011.05.06)
author=KOGA M, UNIV. OF OCCUPATIONAL AND ENVIRONMENTAL HEALTH
license=CC BY-NC-SA
exact mass=226.26605
ionization energy=70 eV
ion type=[M]+*
computed spectral entropy=2.7038236183475197
computed normalized entropy=0.7487912170142765
SPLASH=splash10-052f-9000000000-8393983fcf59dd400873
submitter=submitter = University of Tokyo Team (Faculty of Engineering, University of Tokyo)
MoNA Rating=3.75

>  <NUM PEAKS>  (6397) 
37

>  <MASS SPECTRAL PEAKS>  (6397) 
40 5.06
41 62.22
42 26.78
43 99.99
44 4.15
53 2.69
54 7.59
55 26.57
56 39.12
57 92.85
58 5.48
68 2.11
72 2.02
82 1.36
83 4.76
84 7.5
85 38.52
86 6.25
97 3.49
98 5.36
99 12.4
100 1.22
111 1.63
112 4.06
113 7.31
126 3.28
127 5.11
140 2.88
141 3.92
154 2.17
155 3.2
168 1.62
169 2.57
183 1.56
225 2.49
226 6.32
227 1.23

$$$$

     RDKit          2D

 12 12  0  0  0  0  0  0  0  0999 V2000
   -2.5989    1.5002    0.0000 C   0  0  0  0  0  0  0  0  0  0  0  0
   -2.5989   -1.5002    0.0000 C   0  0  0  0  0  0  0  0  0  0  0  0
    2.5989    1.5002    0.0000 C   0  0  0  0  0  0  0  0  0  0  0  0
    2.5989   -1.5002    0.0000 C   0  0  0  0  0  0  0  0  0  0  0  0
   -1.3000    0.7500    0.0000 C   0  0  0  0  0  0  0  0  0  0  0  0
   -1.3000   -0.7500    0.0000 C   0  0  0  0  0  0  0  0  0  0  0  0
    1.3000    0.7500    0.0000 C   0  0  0  0  0  0  0  0  0  0  0  0
    1.3000   -0.7500    0.0000 C   0  0  0  0  0  0  0  0  0  0  0  0
    0.0000    1.5000    0.0000 C   0  0  0  0  0  0  0  0  0  0  0  0
   -0.0000   -1.5000    0.0000 C   0  0  0  0  0  0  0  0  0  0  0  0
    0.0000    3.0000    0.0000 O   0  0  0  0  0  0  0  0  0  0  0  0
   -0.0000   -3.0000    0.0000 O   0  0  0  0  0  0  0  0  0  0  0  0
  5  1  1  0
  6  2  1  0
  6  5  2  0
  7  3  1  0
  8  4  1  0
  8  7  2  0
  9  5  1  0
  9  7  1  0
 10  6  1  0
 10  8  1  0
 11  9  2  0
 12 10  2  0
M  END
>  <NAME>  (6398) 
2,3,5,6-TETRAMETHYL-2,5-CYCLOHEXADIENE-1,4-DIONE

>  <SYNONYMS>  (6398) 
TETRAMETHYL-P-BENZOQUINONE

>  <SPECTRUM TYPE>  (6398) 
MS1

>  <INSTRUMENT TYPE>  (6398) 
EI-B

>  <INSTRUMENT>  (6398) 
VARIAN MAT-44

>  <ION MODE>  (6398) 
P

>  <INCHIKEY>  (6398) 
WAMKWBHYPYBEJY-UHFFFAOYSA-N

>  <FORMULA>  (6398) 
C10H12O2

>  <EXACT MASS>  (6398) 
164.083729624

>  <MW>  (6398) 
164

>  <ID>  (6398) 
JP001644

>  <CONTRIBUTOR>  (6398) 
University of Tokyo Team, {Faculty of Engineering, University of Tokyo

>  <COMMENT>  (6398) 
SMILES=Cc(c(C)1)c(=O)c(C)c(C)c(=O)1
cas=527-17-3
InChI=InChI=1S/C10H12O2/c1-5-6(2)10(12)8(4)7(3)9(5)11/h1-4H3
computed SMILES=O=C1C(=C(C(=O)C(=C1C)C)C)C
accession=JP001644
date=2016.01.19 (Created 2008.10.21, modified 2011.05.06)
author=KOGA M, UNIV. OF OCCUPATIONAL AND ENVIRONMENTAL HEALTH
license=CC BY-NC-SA
exact mass=164.08373
ionization energy=70 eV
ion type=[M]+*
computed spectral entropy=3.2143494664269037
computed normalized entropy=0.8021168487492348
SPLASH=splash10-0udr-9300000000-db5bf149b79f4b603dec
submitter=submitter = University of Tokyo Team (Faculty of Engineering, University of Tokyo)
MoNA Rating=3.75

>  <NUM PEAKS>  (6398) 
55

>  <MASS SPECTRAL PEAKS>  (6398) 
30 2.32
32 1.2
37 1.36
38 7.34
39 99.99
40 7.49
41 14.15
42 2.07
43 11.89
44 3.22
45 1.39
49 1.17
50 16.29
51 34.38
52 22.92
53 65.98
54 86.49
55 15.79
62 1.82
63 4.86
64 1.51
65 10.06
66 5.17
67 14.77
68 1.39
74 1.14
77 19.2
78 3.74
79 7.99
80 2.13
81 2.29
82 18.12
83 4.36
91 20.44
92 3.65
93 47.92
94 4.55
103 1.27
105 1.82
107 7.03
108 11.09
109 1.3
110 3.4
117 1.33
119 1.39
120 1.76
121 73.42
122 6.44
135 11.95
136 38.38
137 3.84
149 1.39
163 1.05
164 45.47
165 5.82

$$$$

     RDKit          2D

 14 16  0  0  0  0  0  0  0  0999 V2000
    3.0600    2.2000    0.0000 C   0  0  0  0  0  0  0  0  0  0  0  0
    1.7600    2.9500    0.0000 C   0  0  0  0  0  0  0  0  0  0  0  0
   -3.4300   -0.0500    0.0000 C   0  0  0  0  0  0  0  0  0  0  0  0
    3.0600    0.7000    0.0000 C   0  0  0  0  0  0  0  0  0  0  0  0
    0.4600    2.2000    0.0000 C   0  0  0  0  0  0  0  0  0  0  0  0
   -2.1300    0.7000    0.0000 C   0  0  0  0  0  0  0  0  0  0  0  0
    1.7600   -1.5500    0.0000 C   0  0  0  0  0  0  0  0  0  0  0  0
    0.4600   -2.3000    0.0000 C   0  0  0  0  0  0  0  0  0  0  0  0
   -3.4300   -1.5500    0.0000 C   0  0  0  0  0  0  0  0  0  0  0  0
    1.7600   -0.0500    0.0000 C   0  0  0  0  0  0  0  0  0  0  0  0
    0.4600    0.7000    0.0000 C   0  0  0  0  0  0  0  0  0  0  0  0
   -0.8300   -0.0500    0.0000 C   0  0  0  0  0  0  0  0  0  0  0  0
   -0.8300   -1.5500    0.0000 C   0  0  0  0  0  0  0  0  0  0  0  0
   -2.1300   -2.3000    0.0000 N   0  0  0  0  0  0  0  0  0  0  0  0
  2  1  2  0
  4  1  1  0
  5  2  1  0
  6  3  1  0
  8  7  2  0
  9  3  2  0
 10  4  2  0
 10  7  1  0
 11  5  2  0
 11 10  1  0
 12  6  2  0
 12 11  1  0
 13  8  1  0
 13 12  1  0
 14  9  1  0
 14 13  2  0
M  END
>  <NAME>  (6399) 
BENZO(F)QUINOLINE

>  <SYNONYMS>  (6399) 
BETA-NAPHTHOQUINOLINE

>  <SPECTRUM TYPE>  (6399) 
MS1

>  <INSTRUMENT TYPE>  (6399) 
EI-B

>  <INSTRUMENT>  (6399) 
VARIAN MAT-44

>  <ION MODE>  (6399) 
P

>  <INCHIKEY>  (6399) 
HCAUQPZEWLULFJ-UHFFFAOYSA-N

>  <FORMULA>  (6399) 
C13H9N

>  <EXACT MASS>  (6399) 
179.073499288

>  <MW>  (6399) 
179

>  <ID>  (6399) 
JP001643

>  <CONTRIBUTOR>  (6399) 
University of Tokyo Team, {Faculty of Engineering, University of Tokyo

>  <COMMENT>  (6399) 
SMILES=c(c3)cc(c1)c(c3)c(c2)c(ncc2)c1
InChI=InChI=1S/C13H9N/c1-2-5-11-10(4-1)7-8-13-12(11)6-3-9-14-13/h1-9H
computed SMILES=N1=CC=CC=2C1=CC=C3C=CC=CC32
accession=JP001643
date=2016.01.19 (Created 2008.10.21, modified 2011.05.06)
author=KOGA M, UNIV. OF OCCUPATIONAL AND ENVIRONMENTAL HEALTH
license=CC BY-NC-SA
exact mass=179.0735
ionization energy=70 eV
ion type=[M]+*
computed spectral entropy=3.291370902959984
computed normalized entropy=0.8289997246109986
SPLASH=splash10-004i-9700000000-8e39aee29b54e05a60d5
submitter=submitter = University of Tokyo Team (Faculty of Engineering, University of Tokyo)
MoNA Rating=3.75

>  <NUM PEAKS>  (6399) 
53

>  <MASS SPECTRAL PEAKS>  (6399) 
37 4
38 11.38
39 21.61
40 2.56
41 1.43
49 2.76
50 27.44
51 21.52
52 7.34
61 7.32
62 17.52
63 30.32
64 3.68
65 1.12
73 2.84
74 20.41
75 31.76
76 41.13
77 6.76
78 1.23
85 2.39
86 6.5
87 8.73
88 3.81
89 12.75
90 3.51
97 1
98 5.45
99 5.74
100 3.62
101 2.54
102 2.82
110 1.14
111 1.83
113 1.72
122 1.02
124 1.14
125 3.36
126 7.44
127 2.18
128 1.14
139 1.14
149 2.03
150 13.55
151 23.41
152 16.13
153 4.59
176 1.57
177 6.86
178 31.35
179 99.99
180 15.5
181 1.19

$$$$

     RDKit          2D

 14 16  0  0  0  0  0  0  0  0999 V2000
    3.9000    0.7500    0.0000 C   0  0  0  0  0  0  0  0  0  0  0  0
   -3.9000    0.7500    0.0000 C   0  0  0  0  0  0  0  0  0  0  0  0
    3.9000   -0.7500    0.0000 C   0  0  0  0  0  0  0  0  0  0  0  0
   -3.9000   -0.7500    0.0000 C   0  0  0  0  0  0  0  0  0  0  0  0
    2.6000    1.5000    0.0000 C   0  0  0  0  0  0  0  0  0  0  0  0
   -2.6000    1.5000    0.0000 C   0  0  0  0  0  0  0  0  0  0  0  0
    2.6000   -1.5000    0.0000 C   0  0  0  0  0  0  0  0  0  0  0  0
   -2.6000   -1.5000    0.0000 C   0  0  0  0  0  0  0  0  0  0  0  0
    0.0000    1.5000    0.0000 C   0  0  0  0  0  0  0  0  0  0  0  0
    1.3000    0.7500    0.0000 C   0  0  0  0  0  0  0  0  0  0  0  0
   -1.3000    0.7500    0.0000 C   0  0  0  0  0  0  0  0  0  0  0  0
    1.3000   -0.7500    0.0000 C   0  0  0  0  0  0  0  0  0  0  0  0
   -1.3000   -0.7500    0.0000 C   0  0  0  0  0  0  0  0  0  0  0  0
    0.0000   -1.5000    0.0000 N   0  0  0  0  0  0  0  0  0  0  0  0
  3  1  2  0
  4  2  1  0
  5  1  1  0
  6  2  2  0
  7  3  1  0
  8  4  2  0
 10  5  2  0
 10  9  1  0
 11  6  1  0
 11  9  2  0
 12  7  2  0
 12 10  1  0
 13  8  1  0
 13 11  1  0
 14 12  1  0
 14 13  2  0
M  END
>  <NAME>  (6400) 
ACRIDINE

>  <SYNONYMS>  (6400) 


>  <SPECTRUM TYPE>  (6400) 
MS1

>  <INSTRUMENT TYPE>  (6400) 
EI-B

>  <INSTRUMENT>  (6400) 
VARIAN MAT-44

>  <ION MODE>  (6400) 
P

>  <INCHIKEY>  (6400) 
DZBUGLKDJFMEHC-UHFFFAOYSA-N

>  <FORMULA>  (6400) 
C13H9N

>  <EXACT MASS>  (6400) 
179.073499288

>  <MW>  (6400) 
179

>  <ID>  (6400) 
JP001642

>  <CONTRIBUTOR>  (6400) 
University of Tokyo Team, {Faculty of Engineering, University of Tokyo

>  <COMMENT>  (6400) 
SMILES=c(c3)cc(c1)c(c3)nc(c2)c(ccc2)1
cas=260-94-6
InChI=InChI=1S/C13H9N/c1-3-7-12-10(5-1)9-11-6-2-4-8-13(11)14-12/h1-9H
computed SMILES=N=1C=2C=CC=CC2C=C3C=CC=CC13
accession=JP001642
date=2016.01.19 (Created 2008.10.21, modified 2011.05.06)
author=KOGA M, UNIV. OF OCCUPATIONAL AND ENVIRONMENTAL HEALTH
license=CC BY-NC-SA
exact mass=179.0735
ionization energy=70 eV
ion type=[M]+*
computed spectral entropy=2.9098245639360134
computed normalized entropy=0.7785130471944798
SPLASH=splash10-004i-7900000000-0fc3d679263288777328
submitter=submitter = University of Tokyo Team (Faculty of Engineering, University of Tokyo)
MoNA Rating=3.75

>  <NUM PEAKS>  (6400) 
42

>  <MASS SPECTRAL PEAKS>  (6400) 
32 2.93
38 2.04
39 7.62
43 1.03
44 3.19
50 8.53
51 8.4
52 2.42
61 1.59
62 5.34
63 14.7
64 2
74 5.65
75 15.6
76 18.36
77 4.26
86 1.48
87 2.37
88 3.06
89 36.04
90 6.49
98 1.39
99 1.91
100 1.66
101 1.92
102 1.5
113 1.52
125 2.3
126 3.59
127 2.15
128 1.2
140 1.11
150 4.87
151 11.89
152 9.77
153 4.8
176 1.42
177 7.04
178 24.07
179 99.99
180 14.87
181 1.07

$$$$

     RDKit          2D

 13 14  0  0  0  0  0  0  0  0999 V2000
    3.8977    0.3206    0.0000 C   0  0  0  0  0  0  0  0  0  0  0  0
    3.8982    1.8214    0.0000 C   0  0  0  0  0  0  0  0  0  0  0  0
    2.5982   -0.4303    0.0000 C   0  0  0  0  0  0  0  0  0  0  0  0
    2.5992    2.5714    0.0000 C   0  0  0  0  0  0  0  0  0  0  0  0
    1.2992    0.3197    0.0000 C   0  0  0  0  0  0  0  0  0  0  0  0
    0.0004    4.0706    0.0000 C   0  0  0  0  0  0  0  0  0  0  0  0
   -1.2992    1.8204    0.0000 C   0  0  0  0  0  0  0  0  0  0  0  0
   -1.2997    4.8204    0.0000 C   0  0  0  0  0  0  0  0  0  0  0  0
   -2.5994    2.5702    0.0000 C   0  0  0  0  0  0  0  0  0  0  0  0
    1.2997    1.8206    0.0000 C   0  0  0  0  0  0  0  0  0  0  0  0
    0.0006    2.5706    0.0000 C   0  0  0  0  0  0  0  0  0  0  0  0
   -2.5996    4.0702    0.0000 C   0  0  0  0  0  0  0  0  0  0  0  0
   -3.8986    4.8202    0.0000 N   0  0  0  0  0  0  0  0  0  0  0  0
  2  1  2  0
  3  1  1  0
  4  2  1  0
  5  3  2  0
  8  6  2  0
  9  7  1  0
 10  4  2  0
 10  5  1  0
 11  6  1  0
 11  7  2  0
 11 10  1  0
 12  8  1  0
 12  9  2  0
 13 12  1  0
M  END
>  <NAME>  (6401) 
4-AMINODIPHENYL

>  <SYNONYMS>  (6401) 
(1,1'-DIPHENYL)-4-AMINE

>  <SPECTRUM TYPE>  (6401) 
MS1

>  <INSTRUMENT TYPE>  (6401) 
EI-B

>  <INSTRUMENT>  (6401) 
VARIAN MAT-44

>  <ION MODE>  (6401) 
P

>  <INCHIKEY>  (6401) 
DMVOXQPQNTYEKQ-UHFFFAOYSA-N

>  <FORMULA>  (6401) 
C12H11N

>  <EXACT MASS>  (6401) 
169.089149352

>  <MW>  (6401) 
169

>  <ID>  (6401) 
JP001641

>  <CONTRIBUTOR>  (6401) 
University of Tokyo Team, {Faculty of Engineering, University of Tokyo

>  <COMMENT>  (6401) 
SMILES=Nc(c2)ccc(c2)c(c1)cccc1
cas=92-67-1
InChI=InChI=1S/C12H11N/c13-12-8-6-11(7-9-12)10-4-2-1-3-5-10/h1-9H,13H2
computed SMILES=NC=1C=CC(=CC1)C=2C=CC=CC2
accession=JP001641
date=2016.01.19 (Created 2008.10.21, modified 2011.05.06)
author=KOGA M, UNIV. OF OCCUPATIONAL AND ENVIRONMENTAL HEALTH
license=CC BY-NC-SA
exact mass=169.08915
ionization energy=70 eV
ion type=[M]+*
computed spectral entropy=3.239513226245319
computed normalized entropy=0.7818990788809749
SPLASH=splash10-014i-6900000000-485d158d46307e7e68a3
submitter=submitter = University of Tokyo Team (Faculty of Engineering, University of Tokyo)
MoNA Rating=3.75

>  <NUM PEAKS>  (6401) 
63

>  <MASS SPECTRAL PEAKS>  (6401) 
32 2.57
38 4.22
39 18.23
40 2.72
41 4.87
42 1.23
43 1.25
44 2.83
50 7.03
51 13.03
52 6.87
53 1.57
54 1.73
57 3.17
58 5.08
61 1.2
62 4.51
63 11.96
64 4.11
65 6.55
66 1.91
69 3.56
70 8.23
71 8.1
72 1.1
74 3.41
75 4.51
76 5.45
77 8.76
78 2.04
83 14.27
84 23.58
85 6.08
86 1.1
87 1.96
88 1.83
89 6.4
90 2.28
91 1.65
101 1.23
102 2.57
103 1.25
113 1.88
114 1.94
115 10.78
116 1.99
126 1.36
127 2.28
128 2.01
139 6.84
140 4.48
141 4.56
142 1.25
143 2.88
151 1.67
152 1.78
153 1.02
154 3.56
166 7.34
167 40.39
168 86.35
169 99.99
170 13.43

$$$$

     RDKit          2D

 12 13  0  0  0  0  0  0  0  0999 V2000
   -3.8989    1.5002    0.0000 C   0  0  0  0  0  0  0  0  0  0  0  0
    3.8989   -1.5002    0.0000 C   0  0  0  0  0  0  0  0  0  0  0  0
   -2.6000   -0.7500    0.0000 C   0  0  0  0  0  0  0  0  0  0  0  0
    2.6000    0.7500    0.0000 C   0  0  0  0  0  0  0  0  0  0  0  0
    1.3000    1.5000    0.0000 C   0  0  0  0  0  0  0  0  0  0  0  0
   -1.3000   -1.5000    0.0000 C   0  0  0  0  0  0  0  0  0  0  0  0
   -1.3000    1.5000    0.0000 C   0  0  0  0  0  0  0  0  0  0  0  0
   -2.6000    0.7500    0.0000 C   0  0  0  0  0  0  0  0  0  0  0  0
    2.6000   -0.7500    0.0000 C   0  0  0  0  0  0  0  0  0  0  0  0
   -0.0000    0.7500    0.0000 C   0  0  0  0  0  0  0  0  0  0  0  0
   -0.0000   -0.7500    0.0000 C   0  0  0  0  0  0  0  0  0  0  0  0
    1.3000   -1.5000    0.0000 N   0  0  0  0  0  0  0  0  0  0  0  0
  5  4  2  0
  6  3  2  0
  8  1  1  0
  8  3  1  0
  8  7  2  0
  9  2  1  0
  9  4  1  0
 10  5  1  0
 10  7  1  0
 11  6  1  0
 11 10  2  0
 12  9  2  0
 12 11  1  0
M  END
>  <NAME>  (6402) 
2,6-DIMETHYLQUINOLINE

>  <SYNONYMS>  (6402) 


>  <SPECTRUM TYPE>  (6402) 
MS1

>  <INSTRUMENT TYPE>  (6402) 
EI-B

>  <INSTRUMENT>  (6402) 
VARIAN MAT-44

>  <ION MODE>  (6402) 
P

>  <INCHIKEY>  (6402) 
JJPSZKIOGBRMHK-UHFFFAOYSA-N

>  <FORMULA>  (6402) 
C11H11N

>  <EXACT MASS>  (6402) 
157.089149352

>  <MW>  (6402) 
157

>  <ID>  (6402) 
JP001640

>  <CONTRIBUTOR>  (6402) 
University of Tokyo Team, {Faculty of Engineering, University of Tokyo

>  <COMMENT>  (6402) 
SMILES=Cc(c2)cc(c1)c(c2)nc(C)c1
cas=877-43-0
InChI=InChI=1S/C11H11N/c1-8-3-6-11-10(7-8)5-4-9(2)12-11/h3-7H,1-2H3
computed SMILES=N=1C=2C=CC(=CC2C=CC1C)C
accession=JP001640
date=2016.01.19 (Created 2008.10.21, modified 2011.05.06)
author=KOGA M, UNIV. OF OCCUPATIONAL AND ENVIRONMENTAL HEALTH
license=CC BY-NC-SA
exact mass=157.08915
ionization energy=70 eV
ion type=[M]+*
computed spectral entropy=3.3072806518099487
computed normalized entropy=0.8180160064063005
SPLASH=splash10-0a4i-6900000000-8c0b6f687639f30b6612
submitter=submitter = University of Tokyo Team (Faculty of Engineering, University of Tokyo)
MoNA Rating=3.75

>  <NUM PEAKS>  (6402) 
57

>  <MASS SPECTRAL PEAKS>  (6402) 
32 4.01
37 1.02
38 3.24
39 18.04
40 3.89
41 2.81
42 1.54
43 1.76
44 7.86
50 8.11
51 15.66
52 5.53
53 2.74
57 3.21
58 1.24
61 1.15
62 4.64
63 15.03
64 9.04
65 17.9
66 2.58
70 1.08
71 2.01
74 3.08
75 4.37
76 4.17
77 14.41
78 10.85
79 3.62
87 1.85
88 2.17
89 10.04
90 2.08
91 1.38
101 1.54
102 2.24
103 2.44
104 1.02
113 2.1
114 2.94
115 18
116 7.11
117 1.49
127 4.71
128 6.98
129 5.73
130 3.71
131 1.56
140 4.05
141 4.37
142 14.69
143 4.03
154 4.33
155 2.56
156 45.77
157 99.99
158 12.44

$$$$

     RDKit          2D

 12 13  0  0  0  0  0  0  0  0999 V2000
    1.3000    3.0000    0.0000 C   0  0  0  0  0  0  0  0  0  0  0  0
    3.8989   -1.5002    0.0000 C   0  0  0  0  0  0  0  0  0  0  0  0
   -2.6000    0.7500    0.0000 C   0  0  0  0  0  0  0  0  0  0  0  0
   -2.6000   -0.7500    0.0000 C   0  0  0  0  0  0  0  0  0  0  0  0
   -1.3000    1.5000    0.0000 C   0  0  0  0  0  0  0  0  0  0  0  0
   -1.3000   -1.5000    0.0000 C   0  0  0  0  0  0  0  0  0  0  0  0
    2.6000    0.7500    0.0000 C   0  0  0  0  0  0  0  0  0  0  0  0
    1.3000    1.5000    0.0000 C   0  0  0  0  0  0  0  0  0  0  0  0
    2.6000   -0.7500    0.0000 C   0  0  0  0  0  0  0  0  0  0  0  0
   -0.0000    0.7500    0.0000 C   0  0  0  0  0  0  0  0  0  0  0  0
   -0.0000   -0.7500    0.0000 C   0  0  0  0  0  0  0  0  0  0  0  0
    1.3000   -1.5000    0.0000 N   0  0  0  0  0  0  0  0  0  0  0  0
  4  3  2  0
  5  3  1  0
  6  4  1  0
  8  1  1  0
  8  7  2  0
  9  2  1  0
  9  7  1  0
 10  5  2  0
 10  8  1  0
 11  6  2  0
 11 10  1  0
 12  9  2  0
 12 11  1  0
M  END
>  <NAME>  (6403) 
2,4-DIMETHYLQUINOLINE

>  <SYNONYMS>  (6403) 


>  <SPECTRUM TYPE>  (6403) 
MS1

>  <INSTRUMENT TYPE>  (6403) 
EI-B

>  <INSTRUMENT>  (6403) 
VARIAN MAT-44

>  <ION MODE>  (6403) 
P

>  <INCHIKEY>  (6403) 
ZTNANFDSJRRZRJ-UHFFFAOYSA-N

>  <FORMULA>  (6403) 
C11H11N

>  <EXACT MASS>  (6403) 
157.089149352

>  <MW>  (6403) 
157

>  <ID>  (6403) 
JP001639

>  <CONTRIBUTOR>  (6403) 
University of Tokyo Team, {Faculty of Engineering, University of Tokyo

>  <COMMENT>  (6403) 
SMILES=Cc(c1)nc(c2)c(ccc2)c(C)1
cas=1198-37-4
InChI=InChI=1S/C11H11N/c1-8-7-9(2)12-11-6-4-3-5-10(8)11/h3-7H,1-2H3
computed SMILES=N=1C=2C=CC=CC2C(=CC1C)C
accession=JP001639
date=2016.01.19 (Created 2008.10.21, modified 2011.05.06)
author=KOGA M, UNIV. OF OCCUPATIONAL AND ENVIRONMENTAL HEALTH
license=CC BY-NC-SA
exact mass=157.08915
ionization energy=70 eV
ion type=[M]+*
computed spectral entropy=3.5466223370903904
computed normalized entropy=0.8560238976779123
SPLASH=splash10-0a4i-9600000000-8265b040c82df5bc6739
submitter=submitter = University of Tokyo Team (Faculty of Engineering, University of Tokyo)
MoNA Rating=3.75

>  <NUM PEAKS>  (6403) 
63

>  <MASS SPECTRAL PEAKS>  (6403) 
37 3.54
38 13.04
39 48.79
40 9.8
41 9.1
42 17.72
43 1.42
49 2.73
50 22.06
51 31.97
52 11.44
53 4.46
54 1.16
57 3.68
58 1.62
61 4.08
62 12.6
63 27.3
64 12.33
65 17.92
66 4.89
71 1.4
73 1.53
74 8.9
75 13.62
76 10.41
77 20.45
78 9.86
79 3.94
86 2.6
87 4.38
88 4.69
89 15.31
90 3.63
91 3.06
100 1.16
101 4.37
102 3.74
103 2.76
104 1.31
113 3.11
114 5.31
115 29.05
116 11.31
117 3.54
118 3.62
126 1.16
127 4.46
128 8.14
129 8.37
130 7.24
131 1.37
140 4.5
141 3.03
142 11.04
143 1.61
154 2.65
155 3.28
156 29.72
157 99.99
158 14.01
159 1.14
160 2.29

$$$$

     RDKit          2D

 11 12  0  0  0  0  0  0  0  0999 V2000
    1.3000    3.0000    0.0000 C   0  0  0  0  0  0  0  0  0  0  0  0
   -2.6000    0.7500    0.0000 C   0  0  0  0  0  0  0  0  0  0  0  0
   -2.6000   -0.7500    0.0000 C   0  0  0  0  0  0  0  0  0  0  0  0
   -1.3000    1.5000    0.0000 C   0  0  0  0  0  0  0  0  0  0  0  0
   -1.3000   -1.5000    0.0000 C   0  0  0  0  0  0  0  0  0  0  0  0
    2.6000    0.7500    0.0000 C   0  0  0  0  0  0  0  0  0  0  0  0
    2.6000   -0.7500    0.0000 C   0  0  0  0  0  0  0  0  0  0  0  0
    1.3000    1.5000    0.0000 C   0  0  0  0  0  0  0  0  0  0  0  0
   -0.0000    0.7500    0.0000 C   0  0  0  0  0  0  0  0  0  0  0  0
   -0.0000   -0.7500    0.0000 C   0  0  0  0  0  0  0  0  0  0  0  0
    1.3000   -1.5000    0.0000 N   0  0  0  0  0  0  0  0  0  0  0  0
  3  2  2  0
  4  2  1  0
  5  3  1  0
  7  6  1  0
  8  1  1  0
  8  6  2  0
  9  4  2  0
  9  8  1  0
 10  5  2  0
 10  9  1  0
 11  7  2  0
 11 10  1  0
M  END
>  <NAME>  (6404) 
4-METHYLQUINOLINE

>  <SYNONYMS>  (6404) 
LEPIDINE

>  <SPECTRUM TYPE>  (6404) 
MS1

>  <INSTRUMENT TYPE>  (6404) 
EI-B

>  <INSTRUMENT>  (6404) 
VARIAN MAT-44

>  <ION MODE>  (6404) 
P

>  <INCHIKEY>  (6404) 
MUDSDYNRBDKLGK-UHFFFAOYSA-N

>  <FORMULA>  (6404) 
C10H9N

>  <EXACT MASS>  (6404) 
143.073499288

>  <MW>  (6404) 
143

>  <ID>  (6404) 
JP001638

>  <CONTRIBUTOR>  (6404) 
University of Tokyo Team, {Faculty of Engineering, University of Tokyo

>  <COMMENT>  (6404) 
SMILES=Cc(c1)c(c2)c(ccc2)nc1
cas=491-35-0
InChI=InChI=1S/C10H9N/c1-8-6-7-11-10-5-3-2-4-9(8)10/h2-7H,1H3
computed SMILES=N=1C=CC(=C2C=CC=CC12)C
accession=JP001638
date=2016.01.19 (Created 2008.10.21, modified 2011.05.06)
author=KOGA M, UNIV. OF OCCUPATIONAL AND ENVIRONMENTAL HEALTH
license=CC BY-NC-SA
exact mass=143.0735
ionization energy=70 eV
ion type=[M]+*
computed spectral entropy=3.475910420140461
computed normalized entropy=0.8524533417432011
SPLASH=splash10-0f76-9500000000-6000c29c253b154abc3b
submitter=submitter = University of Tokyo Team (Faculty of Engineering, University of Tokyo)
MoNA Rating=3.75

>  <NUM PEAKS>  (6404) 
59

>  <MASS SPECTRAL PEAKS>  (6404) 
37 9.73
38 20.78
39 49.78
40 7.58
41 4.25
42 1.14
43 1.84
49 5.9
50 33.22
51 37.57
52 12.62
53 3.01
55 1.33
56 1.78
57 13.02
58 13.88
59 1.72
60 1.46
61 7.99
62 18.6
63 28.36
64 10.54
65 10.48
66 1.7
70 3.77
71 6.83
72 1.58
73 3.84
74 11.79
75 12.62
76 10.17
77 13.99
78 3.82
85 1.71
86 3.76
87 6.09
88 6.42
89 21.06
90 7.45
91 2.03
98 1.06
99 1.1
100 1.56
101 5.94
102 3.43
103 2.41
104 7.72
113 3.97
114 8.49
115 49.29
116 18.21
117 9.79
128 4.15
140 2.98
141 6.12
142 38.09
143 99.99
144 14.67
145 1.09

$$$$

     RDKit          2D

 11 12  0  0  0  0  0  0  0  0999 V2000
    3.5364   -1.3745    0.0000 C   0  0  0  0  0  0  0  0  0  0  0  0
   -2.9500    0.8900    0.0000 C   0  0  0  0  0  0  0  0  0  0  0  0
   -2.9500   -0.6100    0.0000 C   0  0  0  0  0  0  0  0  0  0  0  0
   -1.6500    1.6400    0.0000 C   0  0  0  0  0  0  0  0  0  0  0  0
   -1.6500   -1.3600    0.0000 C   0  0  0  0  0  0  0  0  0  0  0  0
    2.2500    0.8900    0.0000 C   0  0  0  0  0  0  0  0  0  0  0  0
    0.9500    1.6400    0.0000 C   0  0  0  0  0  0  0  0  0  0  0  0
    2.2400   -0.6200    0.0000 C   0  0  0  0  0  0  0  0  0  0  0  0
   -0.3600    0.8800    0.0000 C   0  0  0  0  0  0  0  0  0  0  0  0
   -0.3600   -0.6100    0.0000 C   0  0  0  0  0  0  0  0  0  0  0  0
    0.9400   -1.3700    0.0000 N   0  0  0  0  0  0  0  0  0  0  0  0
  3  2  2  0
  4  2  1  0
  5  3  1  0
  7  6  2  0
  8  1  1  0
  8  6  1  0
  9  4  2  0
  9  7  1  0
 10  5  2  0
 10  9  1  0
 11  8  2  0
 11 10  1  0
M  END
>  <NAME>  (6405) 
2-METHYLQUINOLINE

>  <SYNONYMS>  (6405) 
QUINALDINE

>  <SPECTRUM TYPE>  (6405) 
MS1

>  <INSTRUMENT TYPE>  (6405) 
EI-B

>  <INSTRUMENT>  (6405) 
VARIAN MAT-44

>  <ION MODE>  (6405) 
P

>  <INCHIKEY>  (6405) 
SMUQFGGVLNAIOZ-UHFFFAOYSA-N

>  <FORMULA>  (6405) 
C10H9N

>  <EXACT MASS>  (6405) 
143.073499288

>  <MW>  (6405) 
143

>  <ID>  (6405) 
JP001637

>  <CONTRIBUTOR>  (6405) 
University of Tokyo Team, {Faculty of Engineering, University of Tokyo

>  <COMMENT>  (6405) 
SMILES=Cc(c1)nc(c2)c(ccc2)c1
cas=91-63-4
InChI=InChI=1S/C10H9N/c1-8-6-7-9-4-2-3-5-10(9)11-8/h2-7H,1H3
computed SMILES=N=1C=2C=CC=CC2C=CC1C
accession=JP001637
date=2016.01.19 (Created 2008.10.21, modified 2011.05.06)
author=KOGA M, UNIV. OF OCCUPATIONAL AND ENVIRONMENTAL HEALTH
license=CC BY-NC-SA
exact mass=143.0735
ionization energy=70 eV
ion type=[M]+*
computed spectral entropy=3.515385366134107
computed normalized entropy=0.8551430869166412
SPLASH=splash10-0f9f-9500000000-d8165793af7b5d745a0f
submitter=submitter = University of Tokyo Team (Faculty of Engineering, University of Tokyo)
MoNA Rating=3.75

>  <NUM PEAKS>  (6405) 
61

>  <MASS SPECTRAL PEAKS>  (6405) 
37 10.8
38 22.05
39 47.12
40 8.44
41 6.17
42 10.94
43 1.28
44 1.12
45 2.45
49 5.68
50 38.91
51 40.64
52 15.01
53 2.89
57 4.7
58 11.55
59 1.26
60 1.14
61 7.69
62 17.32
63 16.81
64 7.46
65 5.16
66 1.12
70 2.68
71 6.64
72 3.46
73 2.57
74 15.99
75 25.93
76 19.45
77 15.01
78 3.04
85 1.19
86 2.87
87 4.98
88 4.18
89 12.74
90 6.1
91 2.08
98 1.49
99 1.3
100 1.94
101 12.65
102 8.09
103 2.4
104 1.12
113 2.4
114 3.69
115 27.5
116 12.76
117 7.08
127 2.1
128 20.5
129 6.19
135 3.27
140 2.87
141 2.64
142 19.52
143 99.99
144 12.2

$$$$

     RDKit          2D

 10 11  0  0  0  0  0  0  0  0999 V2000
   -2.6000    0.7500    0.0000 C   0  0  0  0  0  0  0  0  0  0  0  0
   -2.6000   -0.7500    0.0000 C   0  0  0  0  0  0  0  0  0  0  0  0
   -1.3000    1.5000    0.0000 C   0  0  0  0  0  0  0  0  0  0  0  0
   -1.3000   -1.5000    0.0000 C   0  0  0  0  0  0  0  0  0  0  0  0
    2.6000    0.7500    0.0000 C   0  0  0  0  0  0  0  0  0  0  0  0
    2.6000   -0.7500    0.0000 C   0  0  0  0  0  0  0  0  0  0  0  0
    0.0000    0.7500    0.0000 C   0  0  0  0  0  0  0  0  0  0  0  0
    0.0000   -0.7500    0.0000 C   0  0  0  0  0  0  0  0  0  0  0  0
    1.3000    1.5000    0.0000 N   0  0  0  0  0  0  0  0  0  0  0  0
    1.3000   -1.5000    0.0000 N   0  0  0  0  0  0  0  0  0  0  0  0
  2  1  2  0
  3  1  1  0
  4  2  1  0
  6  5  1  0
  7  3  2  0
  8  4  2  0
  8  7  1  0
  9  5  2  0
  9  7  1  0
 10  6  2  0
 10  8  1  0
M  END
>  <NAME>  (6406) 
QUINOXALINE

>  <SYNONYMS>  (6406) 
QUINAZINE

>  <SPECTRUM TYPE>  (6406) 
MS1

>  <INSTRUMENT TYPE>  (6406) 
EI-B

>  <INSTRUMENT>  (6406) 
VARIAN MAT-44

>  <ION MODE>  (6406) 
P

>  <INCHIKEY>  (6406) 
XSCHRSMBECNVNS-UHFFFAOYSA-N

>  <FORMULA>  (6406) 
C8H6N2

>  <EXACT MASS>  (6406) 
130.053098192

>  <MW>  (6406) 
130

>  <ID>  (6406) 
JP001636

>  <CONTRIBUTOR>  (6406) 
University of Tokyo Team, {Faculty of Engineering, University of Tokyo

>  <COMMENT>  (6406) 
SMILES=c(c2)cc(n1)c(c2)ncc1
cas=91-19-0
InChI=InChI=1S/C8H6N2/c1-2-4-8-7(3-1)9-5-6-10-8/h1-6H
computed SMILES=N1=CC=NC2=CC=CC=C12
accession=JP001636
date=2016.01.19 (Created 2008.10.21, modified 2011.05.06)
author=KOGA M, UNIV. OF OCCUPATIONAL AND ENVIRONMENTAL HEALTH
license=CC BY-NC-SA
exact mass=130.0531
ionization energy=70 eV
ion type=[M]+*
computed spectral entropy=2.6669948684170364
computed normalized entropy=0.7841341060640484
SPLASH=splash10-0ugi-9500000000-c4b7c01a403433740bfe
submitter=submitter = University of Tokyo Team (Faculty of Engineering, University of Tokyo)
MoNA Rating=3.75

>  <NUM PEAKS>  (6406) 
30

>  <MASS SPECTRAL PEAKS>  (6406) 
32 10.88
37 9.73
38 12.48
39 6.87
40 1.83
44 30.92
49 4.81
50 64.49
51 26.57
52 15.92
53 3.32
61 1.83
62 2.52
63 4.12
64 5.49
65 11.79
73 1.26
74 10.53
75 20.84
76 97.36
77 10.76
78 1.83
80 1.71
102 7.33
103 80.98
104 6.41
128 1.03
129 7.21
130 99.99
131 10.3

$$$$

     RDKit          2D

 10 11  0  0  0  0  0  0  0  0999 V2000
   -2.6000    0.7500    0.0000 C   0  0  0  0  0  0  0  0  0  0  0  0
   -2.6000   -0.7500    0.0000 C   0  0  0  0  0  0  0  0  0  0  0  0
   -1.3000    1.5000    0.0000 C   0  0  0  0  0  0  0  0  0  0  0  0
   -1.3000   -1.5000    0.0000 C   0  0  0  0  0  0  0  0  0  0  0  0
    1.3000    1.5000    0.0000 C   0  0  0  0  0  0  0  0  0  0  0  0
    2.6000    0.7500    0.0000 C   0  0  0  0  0  0  0  0  0  0  0  0
    1.3000   -1.5000    0.0000 C   0  0  0  0  0  0  0  0  0  0  0  0
    0.0000    0.7500    0.0000 C   0  0  0  0  0  0  0  0  0  0  0  0
    0.0000   -0.7500    0.0000 C   0  0  0  0  0  0  0  0  0  0  0  0
    2.6000   -0.7500    0.0000 N   0  0  0  0  0  0  0  0  0  0  0  0
  2  1  2  0
  3  1  1  0
  4  2  1  0
  6  5  2  0
  8  3  2  0
  8  5  1  0
  9  4  2  0
  9  7  1  0
  9  8  1  0
 10  6  1  0
 10  7  2  0
M  END
>  <NAME>  (6407) 
ISOQUINOLINE

>  <SYNONYMS>  (6407) 


>  <SPECTRUM TYPE>  (6407) 
MS1

>  <INSTRUMENT TYPE>  (6407) 
EI-B

>  <INSTRUMENT>  (6407) 
VARIAN MAT-44

>  <ION MODE>  (6407) 
P

>  <INCHIKEY>  (6407) 
AWJUIBRHMBBTKR-UHFFFAOYSA-N

>  <FORMULA>  (6407) 
C9H7N

>  <EXACT MASS>  (6407) 
129.057849224

>  <MW>  (6407) 
129

>  <ID>  (6407) 
JP001635

>  <CONTRIBUTOR>  (6407) 
University of Tokyo Team, {Faculty of Engineering, University of Tokyo

>  <COMMENT>  (6407) 
SMILES=c(c2)cc(c1)c(c2)cnc1
cas=119-65-3
InChI=InChI=1S/C9H7N/c1-2-4-9-7-10-6-5-8(9)3-1/h1-7H
computed SMILES=N=1C=CC=2C=CC=CC2C1
accession=JP001635
date=2016.01.19 (Created 2008.10.21, modified 2011.05.06)
author=KOGA M, UNIV. OF OCCUPATIONAL AND ENVIRONMENTAL HEALTH
license=CC BY-NC-SA
exact mass=129.05785
ionization energy=70 eV
ion type=[M]+*
computed spectral entropy=2.8415531103020313
computed normalized entropy=0.7929504933846561
SPLASH=splash10-0fb9-9700000000-153cb7989d20a5d305fe
submitter=submitter = University of Tokyo Team (Faculty of Engineering, University of Tokyo)
MoNA Rating=3.75

>  <NUM PEAKS>  (6407) 
36

>  <MASS SPECTRAL PEAKS>  (6407) 
32 5.62
37 3.36
38 6.35
39 10.45
40 1.12
43 1.51
44 2.93
49 4.31
50 25.88
51 52.69
52 9.47
53 1.07
61 2.78
62 5.31
63 10.09
64 6.93
65 2.24
73 1.71
74 12.14
75 18.81
76 21.16
77 9.52
78 6.63
79 1.23
87 1.23
89 1.45
98 1.56
99 1.14
100 1.71
101 11.34
102 45.84
103 11.56
127 1.23
128 20.14
129 99.99
130 10.51

$$$$

     RDKit          2D

 10 11  0  0  0  0  0  0  0  0999 V2000
   -2.6000    0.7500    0.0000 C   0  0  0  0  0  0  0  0  0  0  0  0
   -2.6000   -0.7500    0.0000 C   0  0  0  0  0  0  0  0  0  0  0  0
    2.6000    0.7500    0.0000 C   0  0  0  0  0  0  0  0  0  0  0  0
   -1.3000    1.5000    0.0000 C   0  0  0  0  0  0  0  0  0  0  0  0
    1.3000    1.5000    0.0000 C   0  0  0  0  0  0  0  0  0  0  0  0
   -1.3000   -1.5000    0.0000 C   0  0  0  0  0  0  0  0  0  0  0  0
    2.6000   -0.7500    0.0000 C   0  0  0  0  0  0  0  0  0  0  0  0
   -0.0000    0.7500    0.0000 C   0  0  0  0  0  0  0  0  0  0  0  0
   -0.0000   -0.7500    0.0000 C   0  0  0  0  0  0  0  0  0  0  0  0
    1.3000   -1.5000    0.0000 N   0  0  0  0  0  0  0  0  0  0  0  0
  2  1  2  0
  4  1  1  0
  5  3  2  0
  6  2  1  0
  7  3  1  0
  8  4  2  0
  8  5  1  0
  9  6  2  0
  9  8  1  0
 10  7  2  0
 10  9  1  0
M  END
>  <NAME>  (6408) 
QUINOLINE

>  <SYNONYMS>  (6408) 


>  <SPECTRUM TYPE>  (6408) 
MS1

>  <INSTRUMENT TYPE>  (6408) 
EI-B

>  <INSTRUMENT>  (6408) 
VARIAN MAT-44

>  <ION MODE>  (6408) 
P

>  <INCHIKEY>  (6408) 
SMWDFEZZVXVKRB-UHFFFAOYSA-N

>  <FORMULA>  (6408) 
C9H7N

>  <EXACT MASS>  (6408) 
129.057849224

>  <MW>  (6408) 
129

>  <ID>  (6408) 
JP001634

>  <CONTRIBUTOR>  (6408) 
University of Tokyo Team, {Faculty of Engineering, University of Tokyo

>  <COMMENT>  (6408) 
SMILES=c(c2)cc(c1)c(c2)ncc1
cas=91-22-5
InChI=InChI=1S/C9H7N/c1-2-6-9-8(4-1)5-3-7-10-9/h1-7H
computed SMILES=N=1C=CC=C2C=CC=CC12
accession=JP001634
date=2016.01.19 (Created 2008.10.21, modified 2011.05.06)
author=KOGA M, UNIV. OF OCCUPATIONAL AND ENVIRONMENTAL HEALTH
license=CC BY-NC-SA
exact mass=129.05785
ionization energy=70 eV
ion type=[M]+*
computed spectral entropy=2.889896054666374
computed normalized entropy=0.8064408488689138
SPLASH=splash10-0fb9-9700000000-162da149cecb7471177e
submitter=submitter = University of Tokyo Team (Faculty of Engineering, University of Tokyo)
MoNA Rating=3.75

>  <NUM PEAKS>  (6408) 
36

>  <MASS SPECTRAL PEAKS>  (6408) 
32 11.65
37 3.65
38 6.79
39 13.22
40 1.69
43 1.61
44 6.47
49 3.6
50 25.88
51 48.15
52 10.16
53 1.48
61 2.42
62 4.73
63 10.14
64 9.59
65 3.22
73 1.5
74 10.31
75 17.83
76 22.99
77 8.72
78 6.85
79 1.88
87 1.12
98 1.1
99 1.01
100 1.61
101 10.61
102 42.37
103 10.87
106 1.01
127 1.16
128 20
129 99.99
130 10.63

$$$$

     RDKit          2D

  9  9  0  0  0  0  0  0  0  0999 V2000
   -0.0000   -1.5002    0.0000 C   0  0  0  0  0  0  0  0  0  0  0  0
    2.5989    3.0000    0.0000 C   0  0  0  0  0  0  0  0  0  0  0  0
    1.3000    0.7498    0.0000 C   0  0  0  0  0  0  0  0  0  0  0  0
   -1.3000    0.7498    0.0000 C   0  0  0  0  0  0  0  0  0  0  0  0
   -0.0000    2.9998    0.0000 C   0  0  0  0  0  0  0  0  0  0  0  0
   -0.0000   -0.0002    0.0000 C   0  0  0  0  0  0  0  0  0  0  0  0
    1.3000    2.2498    0.0000 C   0  0  0  0  0  0  0  0  0  0  0  0
   -1.3000    2.2498    0.0000 C   0  0  0  0  0  0  0  0  0  0  0  0
   -2.5989    3.0000    0.0000 N   0  0  0  0  0  0  0  0  0  0  0  0
  6  1  1  0
  6  3  2  0
  6  4  1  0
  7  2  1  0
  7  3  1  0
  7  5  2  0
  8  4  2  0
  8  5  1  0
  9  8  1  0
M  END
>  <NAME>  (6409) 
3,5-DIMETHYLANILINE

>  <SYNONYMS>  (6409) 
3,5-XYLIDINE

>  <SPECTRUM TYPE>  (6409) 
MS1

>  <INSTRUMENT TYPE>  (6409) 
EI-B

>  <INSTRUMENT>  (6409) 
VARIAN MAT-44

>  <ION MODE>  (6409) 
P

>  <INCHIKEY>  (6409) 
MKARNSWMMBGSHX-UHFFFAOYSA-N

>  <FORMULA>  (6409) 
C8H11N

>  <EXACT MASS>  (6409) 
121.08914935199999

>  <MW>  (6409) 
121

>  <ID>  (6409) 
JP001633

>  <CONTRIBUTOR>  (6409) 
University of Tokyo Team, {Faculty of Engineering, University of Tokyo

>  <COMMENT>  (6409) 
SMILES=Cc(c1)cc(N)cc(C)1
InChI=InChI=1S/C8H11N/c1-6-3-7(2)5-8(9)4-6/h3-5H,9H2,1-2H3
computed SMILES=NC=1C=C(C=C(C1)C)C
accession=JP001633
date=2016.01.19 (Created 2008.10.21, modified 2011.05.06)
author=KOGA M, UNIV. OF OCCUPATIONAL AND ENVIRONMENTAL HEALTH
license=CC BY-NC-SA
exact mass=121.08915
ion type=[M]+*
ionization energy=70 eV
computed spectral entropy=3.1746800422814463
computed normalized entropy=0.8115187558652912
SPLASH=splash10-05fr-9800000000-f46a48e55a4e2c693af2
submitter=submitter = University of Tokyo Team (Faculty of Engineering, University of Tokyo)
MoNA Rating=3.75

>  <NUM PEAKS>  (6409) 
50

>  <MASS SPECTRAL PEAKS>  (6409) 
30 4.85
37 2.26
38 7.86
39 33.34
40 5.15
41 13.67
42 12.56
46 3.12
47 1.2
49 1.79
50 11.77
51 17.42
52 15.47
53 14.51
54 5.69
58 8.18
59 10.54
60 5.84
61 1.47
62 4.31
63 3.08
64 7.04
65 9.21
66 4.8
67 1.6
74 1.52
75 1.79
76 2.9
77 35.68
78 11.95
79 15.17
80 7.61
89 2.19
90 1.45
91 19.66
92 4.41
93 11.13
94 4.06
102 1.08
103 5.84
104 4.75
105 4.46
106 89.92
107 7.19
117 1.65
118 4.28
119 4.06
120 73.73
121 99.99
122 8.99

$$$$

     RDKit          2D

  9  9  0  0  0  0  0  0  0  0999 V2000
    2.5989    0.0004    0.0000 C   0  0  0  0  0  0  0  0  0  0  0  0
    0.0000    1.5002    0.0000 C   0  0  0  0  0  0  0  0  0  0  0  0
    1.3000   -2.2498    0.0000 C   0  0  0  0  0  0  0  0  0  0  0  0
   -0.0000   -2.9998    0.0000 C   0  0  0  0  0  0  0  0  0  0  0  0
   -1.3000   -0.7498    0.0000 C   0  0  0  0  0  0  0  0  0  0  0  0
    1.3000   -0.7498    0.0000 C   0  0  0  0  0  0  0  0  0  0  0  0
    0.0000    0.0002    0.0000 C   0  0  0  0  0  0  0  0  0  0  0  0
   -1.3000   -2.2498    0.0000 C   0  0  0  0  0  0  0  0  0  0  0  0
   -2.5989   -3.0000    0.0000 N   0  0  0  0  0  0  0  0  0  0  0  0
  4  3  2  0
  6  1  1  0
  6  3  1  0
  7  2  1  0
  7  5  1  0
  7  6  2  0
  8  4  1  0
  8  5  2  0
  9  8  1  0
M  END
>  <NAME>  (6410) 
3,4-DIMETHYLANILINE

>  <SYNONYMS>  (6410) 
3,4-XYLIDINE

>  <SPECTRUM TYPE>  (6410) 
MS1

>  <INSTRUMENT TYPE>  (6410) 
EI-B

>  <INSTRUMENT>  (6410) 
VARIAN MAT-44

>  <ION MODE>  (6410) 
P

>  <INCHIKEY>  (6410) 
DOLQYFPDPKPQSS-UHFFFAOYSA-N

>  <FORMULA>  (6410) 
C8H11N

>  <EXACT MASS>  (6410) 
121.08914935199999

>  <MW>  (6410) 
121

>  <ID>  (6410) 
JP001632

>  <CONTRIBUTOR>  (6410) 
University of Tokyo Team, {Faculty of Engineering, University of Tokyo

>  <COMMENT>  (6410) 
SMILES=Nc(c1)cc(C)c(C)c1
InChI=InChI=1S/C8H11N/c1-6-3-4-8(9)5-7(6)2/h3-5H,9H2,1-2H3
computed SMILES=NC1=CC=C(C(=C1)C)C
accession=JP001632
date=2016.01.19 (Created 2008.10.21, modified 2011.05.06)
author=KOGA M, UNIV. OF OCCUPATIONAL AND ENVIRONMENTAL HEALTH
license=CC BY-NC-SA
exact mass=121.08915
ionization energy=70 eV
ion type=[M]+*
computed spectral entropy=3.22894969778179
computed normalized entropy=0.8057602271957015
SPLASH=splash10-05fr-9800000000-b3c2a0148303510c0102
submitter=submitter = University of Tokyo Team (Faculty of Engineering, University of Tokyo)
MoNA Rating=3.75

>  <NUM PEAKS>  (6410) 
55

>  <MASS SPECTRAL PEAKS>  (6410) 
30 5.47
32 3.69
37 2.04
38 6.92
39 31.48
40 6.32
41 15.94
42 12.91
43 1.8
44 1.97
45 1.38
46 4.28
47 1.34
49 2.17
50 10.74
51 20.32
52 16.63
53 19.74
54 7.05
58 11.62
59 13.86
60 9.44
61 1.91
62 3.8
63 4.37
64 5.51
65 11.37
66 5.27
67 2.81
74 1.66
75 1.82
76 2.7
77 38.29
78 11.2
79 12.85
80 7.49
81 1.2
89 2.37
90 1.55
91 22.14
92 5.03
93 12.47
94 4.28
102 1.23
103 6.56
104 4.63
105 3.38
106 99.97
107 8.17
117 1.97
118 5.53
119 5.42
120 93.89
121 99.99
122 9.07

$$$$

     RDKit          2D

  9  9  0  0  0  0  0  0  0  0999 V2000
   -2.8539    0.1433    0.0000 C   0  0  0  0  0  0  0  0  0  0  0  0
    2.3428    0.1427    0.0000 C   0  0  0  0  0  0  0  0  0  0  0  0
   -0.2548   -2.8581    0.0000 C   0  0  0  0  0  0  0  0  0  0  0  0
   -1.5543   -2.1073    0.0000 C   0  0  0  0  0  0  0  0  0  0  0  0
    1.0443   -2.1081    0.0000 C   0  0  0  0  0  0  0  0  0  0  0  0
   -1.5548   -0.6065    0.0000 C   0  0  0  0  0  0  0  0  0  0  0  0
    1.0438   -0.6073    0.0000 C   0  0  0  0  0  0  0  0  0  0  0  0
   -0.2557    0.1435    0.0000 C   0  0  0  0  0  0  0  0  0  0  0  0
   -0.2555    1.6435    0.0000 N   0  0  0  0  0  0  0  0  0  0  0  0
  4  3  2  0
  5  3  1  0
  6  1  1  0
  6  4  1  0
  7  2  1  0
  7  5  2  0
  8  6  2  0
  8  7  1  0
  9  8  1  0
M  END
>  <NAME>  (6411) 
2,6-DIMETHYLANILINE

>  <SYNONYMS>  (6411) 
2,6-XYLIDINE

>  <SPECTRUM TYPE>  (6411) 
MS1

>  <INSTRUMENT TYPE>  (6411) 
EI-B

>  <INSTRUMENT>  (6411) 
VARIAN MAT-44

>  <ION MODE>  (6411) 
P

>  <INCHIKEY>  (6411) 
UFFBMTHBGFGIHF-UHFFFAOYSA-N

>  <FORMULA>  (6411) 
C8H11N

>  <EXACT MASS>  (6411) 
121.08914935199999

>  <MW>  (6411) 
121

>  <ID>  (6411) 
JP001631

>  <CONTRIBUTOR>  (6411) 
University of Tokyo Team, {Faculty of Engineering, University of Tokyo

>  <COMMENT>  (6411) 
SMILES=Cc(c1)c(N)c(C)cc1
InChI=InChI=1S/C8H11N/c1-6-4-3-5-7(2)8(6)9/h3-5H,9H2,1-2H3
computed SMILES=NC=1C(=CC=CC1C)C
accession=JP001631
date=2016.01.19 (Created 2008.10.21, modified 2011.05.06)
author=KOGA M, UNIV. OF OCCUPATIONAL AND ENVIRONMENTAL HEALTH
license=CC BY-NC-SA
exact mass=121.08915
ionization energy=70 eV
ion type=[M]+*
computed spectral entropy=3.141249175655546
computed normalized entropy=0.8158775975914138
SPLASH=splash10-05i0-8900000000-33c23e2a5227705d5544
submitter=submitter = University of Tokyo Team (Faculty of Engineering, University of Tokyo)
MoNA Rating=3.75

>  <NUM PEAKS>  (6411) 
47

>  <MASS SPECTRAL PEAKS>  (6411) 
30 5.7
37 1.17
38 3.91
39 19.23
41 5.7
42 9.99
46 2.16
50 7.82
51 12.68
52 11.97
53 9.28
54 5.23
58 5.42
59 9.57
60 8.43
61 1.6
62 3.81
63 4.29
64 6.12
65 10.04
66 4.14
67 1.74
74 1.46
75 1.74
76 3.11
77 40.49
78 20.79
79 20.55
80 6.74
89 3.81
90 2.35
91 27.91
92 8.29
93 12.68
94 3.3
102 2.78
103 13.86
104 7.44
105 5.65
106 99.99
107 9.71
117 1.79
118 4.8
119 3.2
120 63.6
121 95.47
122 8.72

$$$$

     RDKit          2D

  9  9  0  0  0  0  0  0  0  0999 V2000
   -2.5989   -1.5002    0.0000 C   0  0  0  0  0  0  0  0  0  0  0  0
    2.5989    1.5002    0.0000 C   0  0  0  0  0  0  0  0  0  0  0  0
   -1.3000    0.7500    0.0000 C   0  0  0  0  0  0  0  0  0  0  0  0
    0.0000    1.5000    0.0000 C   0  0  0  0  0  0  0  0  0  0  0  0
   -0.0000   -1.5000    0.0000 C   0  0  0  0  0  0  0  0  0  0  0  0
   -1.3000   -0.7500    0.0000 C   0  0  0  0  0  0  0  0  0  0  0  0
    1.3000    0.7500    0.0000 C   0  0  0  0  0  0  0  0  0  0  0  0
    1.3000   -0.7500    0.0000 C   0  0  0  0  0  0  0  0  0  0  0  0
    2.5989   -1.5002    0.0000 N   0  0  0  0  0  0  0  0  0  0  0  0
  4  3  2  0
  6  1  1  0
  6  3  1  0
  6  5  2  0
  7  2  1  0
  7  4  1  0
  8  5  1  0
  8  7  2  0
  9  8  1  0
M  END
>  <NAME>  (6412) 
2,5-DIMETHYLANILINE

>  <SYNONYMS>  (6412) 
2,5-XYLIDINE

>  <SPECTRUM TYPE>  (6412) 
MS1

>  <INSTRUMENT TYPE>  (6412) 
EI-B

>  <INSTRUMENT>  (6412) 
VARIAN MAT-44

>  <ION MODE>  (6412) 
P

>  <INCHIKEY>  (6412) 
VOWZNBNDMFLQGM-UHFFFAOYSA-N

>  <FORMULA>  (6412) 
C8H11N

>  <EXACT MASS>  (6412) 
121.08914935199999

>  <MW>  (6412) 
121

>  <ID>  (6412) 
JP001630

>  <CONTRIBUTOR>  (6412) 
University of Tokyo Team, {Faculty of Engineering, University of Tokyo

>  <COMMENT>  (6412) 
SMILES=Cc(c1)cc(N)c(C)c1
InChI=InChI=1S/C8H11N/c1-6-3-4-7(2)8(9)5-6/h3-5H,9H2,1-2H3
computed SMILES=NC1=CC(=CC=C1C)C
accession=JP001630
date=2016.01.19 (Created 2008.10.21, modified 2011.05.06)
author=KOGA M, UNIV. OF OCCUPATIONAL AND ENVIRONMENTAL HEALTH
license=CC BY-NC-SA
exact mass=121.08915
ionization energy=70 eV
ion type=[M]+*
computed spectral entropy=3.5069684702972945
computed normalized entropy=0.8370542887744173
SPLASH=splash10-05i0-9600000000-5da2b91cd08d98c443ea
submitter=submitter = University of Tokyo Team (Faculty of Engineering, University of Tokyo)
MoNA Rating=3.75

>  <NUM PEAKS>  (6412) 
66

>  <MASS SPECTRAL PEAKS>  (6412) 
30 8.82
37 2.78
38 9.41
39 42.18
40 4.02
41 21.97
42 19.37
43 4.44
45 2.13
46 4.56
47 2.31
49 1.54
50 15.34
51 28.61
52 20.02
53 22.15
54 8.47
55 4.38
56 1.71
57 3.43
58 8.94
59 13.8
60 13.03
61 2.9
62 5.33
63 6.57
64 7.52
65 13.98
66 6.22
67 3.9
68 2.36
69 2.36
71 1.36
73 2.6
74 2.42
75 2.54
76 3.96
77 56.81
78 22.92
79 26
80 8.23
81 1.77
83 1.3
87 1
89 5.15
90 3.37
91 42.71
92 11.61
93 20.97
94 5.98
95 1
97 1
102 2.31
103 12.67
104 9.12
105 10.24
106 98.93
107 11.55
108 3.19
116 1.24
117 2.9
118 13.32
119 11.84
120 75.29
121 99.99
122 10.95

$$$$

     RDKit          2D

  9  9  0  0  0  0  0  0  0  0999 V2000
   -2.5989   -1.5002    0.0000 C   0  0  0  0  0  0  0  0  0  0  0  0
    2.5989   -1.5002    0.0000 C   0  0  0  0  0  0  0  0  0  0  0  0
   -1.3000    0.7500    0.0000 C   0  0  0  0  0  0  0  0  0  0  0  0
    0.0000    1.5000    0.0000 C   0  0  0  0  0  0  0  0  0  0  0  0
   -0.0000   -1.5000    0.0000 C   0  0  0  0  0  0  0  0  0  0  0  0
   -1.3000   -0.7500    0.0000 C   0  0  0  0  0  0  0  0  0  0  0  0
    1.3000   -0.7500    0.0000 C   0  0  0  0  0  0  0  0  0  0  0  0
    1.3000    0.7500    0.0000 C   0  0  0  0  0  0  0  0  0  0  0  0
    2.5989    1.5002    0.0000 N   0  0  0  0  0  0  0  0  0  0  0  0
  4  3  2  0
  6  1  1  0
  6  3  1  0
  6  5  2  0
  7  2  1  0
  7  5  1  0
  8  4  1  0
  8  7  2  0
  9  8  1  0
M  END
>  <NAME>  (6413) 
2,4-DIMETHYLANILINE

>  <SYNONYMS>  (6413) 
2,4-XYLIDINE

>  <SPECTRUM TYPE>  (6413) 
MS1

>  <INSTRUMENT TYPE>  (6413) 
EI-B

>  <INSTRUMENT>  (6413) 
VARIAN MAT-44

>  <ION MODE>  (6413) 
P

>  <INCHIKEY>  (6413) 
CZZZABOKJQXEBO-UHFFFAOYSA-N

>  <FORMULA>  (6413) 
C8H11N

>  <EXACT MASS>  (6413) 
121.08914935199999

>  <MW>  (6413) 
121

>  <ID>  (6413) 
JP001629

>  <CONTRIBUTOR>  (6413) 
University of Tokyo Team, {Faculty of Engineering, University of Tokyo

>  <COMMENT>  (6413) 
SMILES=Cc(c1)cc(C)c(N)c1
cas=95-68-1
InChI=InChI=1S/C8H11N/c1-6-3-4-8(9)7(2)5-6/h3-5H,9H2,1-2H3
computed SMILES=NC1=CC=C(C=C1C)C
accession=JP001629
date=2016.01.19 (Created 2008.10.21, modified 2011.05.06)
author=KOGA M, UNIV. OF OCCUPATIONAL AND ENVIRONMENTAL HEALTH
license=CC BY-NC-SA
exact mass=121.08915
ionization energy=70 eV
ion type=[M]+*
computed spectral entropy=3.306996159410972
computed normalized entropy=0.811027784515775
SPLASH=splash10-00di-9700000000-0f928ff652dfde624a17
submitter=submitter = University of Tokyo Team (Faculty of Engineering, University of Tokyo)
MoNA Rating=3.75

>  <NUM PEAKS>  (6413) 
59

>  <MASS SPECTRAL PEAKS>  (6413) 
30 7.35
37 1.93
38 6.54
39 32.2
40 2.39
41 16.46
42 14.88
45 1.62
46 5.05
47 2.11
49 1.39
50 11.9
51 20.16
52 18.67
53 15.74
54 8.07
55 2.88
56 1.3
57 2.34
58 10.23
59 13.93
60 12.08
61 2.39
62 4.37
63 4.78
64 5.63
65 10.19
66 4.73
67 2.84
68 1.21
69 1.03
70 1.03
73 1.66
74 1.71
75 1.84
76 3.11
77 39.73
78 13.57
79 15.74
80 8.61
81 1.8
89 2.75
90 1.84
91 24.17
92 5.72
93 10.59
94 3.24
102 1.89
103 7.8
104 5.32
105 5.41
106 89.58
107 7.75
117 2.66
118 6.13
119 4.23
120 87.68
121 99.99
122 8.7

$$$$

     RDKit          2D

  9  9  0  0  0  0  0  0  0  0999 V2000
    3.5728   -1.3131    0.0000 C   0  0  0  0  0  0  0  0  0  0  0  0
    0.9744   -2.8133    0.0000 C   0  0  0  0  0  0  0  0  0  0  0  0
    0.9737    1.6883    0.0000 C   0  0  0  0  0  0  0  0  0  0  0  0
    2.2732    0.9375    0.0000 C   0  0  0  0  0  0  0  0  0  0  0  0
   -0.3254    0.9383    0.0000 C   0  0  0  0  0  0  0  0  0  0  0  0
    2.2737   -0.5633    0.0000 C   0  0  0  0  0  0  0  0  0  0  0  0
    0.9746   -1.3133    0.0000 C   0  0  0  0  0  0  0  0  0  0  0  0
   -0.3249   -0.5625    0.0000 C   0  0  0  0  0  0  0  0  0  0  0  0
   -1.6239   -1.3125    0.0000 N   0  0  0  0  0  0  0  0  0  0  0  0
  4  3  2  0
  5  3  1  0
  6  1  1  0
  6  4  1  0
  7  2  1  0
  7  6  2  0
  8  5  2  0
  8  7  1  0
  9  8  1  0
M  END
>  <NAME>  (6414) 
2,3-DIMETHYLANILINE

>  <SYNONYMS>  (6414) 
2,3-XYLIDINE

>  <SPECTRUM TYPE>  (6414) 
MS1

>  <INSTRUMENT TYPE>  (6414) 
EI-B

>  <INSTRUMENT>  (6414) 
VARIAN MAT-44

>  <ION MODE>  (6414) 
P

>  <INCHIKEY>  (6414) 
VVAKEQGKZNKUSU-UHFFFAOYSA-N

>  <FORMULA>  (6414) 
C8H11N

>  <EXACT MASS>  (6414) 
121.08914935199999

>  <MW>  (6414) 
121

>  <ID>  (6414) 
JP001628

>  <CONTRIBUTOR>  (6414) 
University of Tokyo Team, {Faculty of Engineering, University of Tokyo

>  <COMMENT>  (6414) 
SMILES=Cc(c1)c(C)c(N)cc1
InChI=InChI=1S/C8H11N/c1-6-4-3-5-8(9)7(6)2/h3-5H,9H2,1-2H3
computed SMILES=NC1=CC=CC(=C1C)C
accession=JP001628
date=2016.01.19 (Created 2008.10.21, modified 2011.05.06)
author=KOGA M, UNIV. OF OCCUPATIONAL AND ENVIRONMENTAL HEALTH
license=CC BY-NC-SA
exact mass=121.08915
ionization energy=70 eV
ion type=[M]+*
computed spectral entropy=3.325910411551691
computed normalized entropy=0.8417376017356268
SPLASH=splash10-05i0-9600000000-17dbf3d71ca63ff691d9
submitter=submitter = University of Tokyo Team (Faculty of Engineering, University of Tokyo)
MoNA Rating=3.75

>  <NUM PEAKS>  (6414) 
52

>  <MASS SPECTRAL PEAKS>  (6414) 
30 7.75
37 2.19
38 7.71
39 32.13
40 3.31
41 13.94
42 18.1
43 2.59
46 4.11
47 1.47
49 1.43
50 10.63
51 18.5
52 17.62
53 17.58
54 7.47
58 10.63
59 12.58
60 9.35
61 2.03
62 4.15
63 4.99
64 5.55
65 9.87
66 4.23
67 2.27
74 1.55
75 1.67
76 2.23
77 38.32
78 19.38
79 21.46
80 12.39
81 1.55
89 2.99
90 1.87
91 21.86
92 5.59
93 10.67
94 3.31
102 2.07
103 12.31
104 6.47
105 3.75
106 99.99
107 8.31
117 2.07
118 6.11
119 5.23
120 44.6
121 81.69
122 7.19

$$$$

     RDKit          2D

  6  6  0  0  0  0  0  0  0  0999 V2000
    1.3000   -0.7500    0.0000 C   0  0  0  0  0  0  0  0  0  0  0  0
    1.3000    0.7500    0.0000 C   0  0  0  0  0  0  0  0  0  0  0  0
   -1.3000   -0.7500    0.0000 C   0  0  0  0  0  0  0  0  0  0  0  0
   -1.3000    0.7500    0.0000 C   0  0  0  0  0  0  0  0  0  0  0  0
   -0.0000   -1.5000    0.0000 N   0  0  0  0  0  0  0  0  0  0  0  0
    0.0000    1.5000    0.0000 N   0  0  0  0  0  0  0  0  0  0  0  0
  2  1  2  0
  4  3  1  0
  5  1  1  0
  5  3  2  0
  6  2  1  0
  6  4  2  0
M  END
>  <NAME>  (6415) 
PYRAZINE

>  <SYNONYMS>  (6415) 
1,4-DIAZINE

>  <SPECTRUM TYPE>  (6415) 
MS1

>  <INSTRUMENT TYPE>  (6415) 
EI-B

>  <INSTRUMENT>  (6415) 
VARIAN MAT-44

>  <ION MODE>  (6415) 
P

>  <INCHIKEY>  (6415) 
KYQCOXFCLRTKLS-UHFFFAOYSA-N

>  <FORMULA>  (6415) 
C4H4N2

>  <EXACT MASS>  (6415) 
80.037448128

>  <MW>  (6415) 
80

>  <ID>  (6415) 
JP001627

>  <CONTRIBUTOR>  (6415) 
University of Tokyo Team, {Faculty of Engineering, University of Tokyo

>  <COMMENT>  (6415) 
SMILES=c(c1)nccn1
cas=290-37-9
InChI=InChI=1S/C4H4N2/c1-2-6-4-3-5-1/h1-4H
computed SMILES=N=1C=CN=CC1
accession=JP001627
date=2016.01.19 (Created 2008.10.21, modified 2011.05.06)
author=KOGA M, UNIV. OF OCCUPATIONAL AND ENVIRONMENTAL HEALTH
license=CC BY-NC-SA
exact mass=80.03745
ionization energy=70 eV
ion type=[M]+*
computed spectral entropy=1.6432445699939888
computed normalized entropy=0.6406538067559606
SPLASH=splash10-0ue9-9000000000-a9ecb71c1f0bcbaaf11b
submitter=submitter = University of Tokyo Team (Faculty of Engineering, University of Tokyo)
MoNA Rating=3.75

>  <NUM PEAKS>  (6415) 
13

>  <MASS SPECTRAL PEAKS>  (6415) 
32 2.07
38 4.57
39 5.27
40 3.86
44 1.01
50 2.56
51 14.63
52 21.78
53 69.69
54 2.73
79 1.96
80 99.99
81 6

$$$$

     RDKit          2D

  6  6  0  0  0  0  0  0  0  0999 V2000
    0.0000    2.3100    0.0000 C   0  0  0  0  0  0  0  0  0  0  0  0
   -0.7500   -1.5000    0.0000 C   0  0  0  0  0  0  0  0  0  0  0  0
    0.7500   -1.5000    0.0000 C   0  0  0  0  0  0  0  0  0  0  0  0
   -1.2100   -0.0700    0.0000 C   0  0  0  0  0  0  0  0  0  0  0  0
    1.2100   -0.0700    0.0000 C   0  0  0  0  0  0  0  0  0  0  0  0
    0.0000    0.8100    0.0000 N   0  0  0  0  0  0  0  0  0  0  0  0
  3  2  1  0
  4  2  2  0
  5  3  2  0
  6  1  1  0
  6  4  1  0
  6  5  1  0
M  END
>  <NAME>  (6416) 
N-METHYLPYRROLE

>  <SYNONYMS>  (6416) 


>  <SPECTRUM TYPE>  (6416) 
MS1

>  <INSTRUMENT TYPE>  (6416) 
EI-B

>  <INSTRUMENT>  (6416) 
VARIAN MAT-44

>  <ION MODE>  (6416) 
P

>  <INCHIKEY>  (6416) 
OXHNLMTVIGZXSG-UHFFFAOYSA-N

>  <FORMULA>  (6416) 
C5H7N

>  <EXACT MASS>  (6416) 
81.057849224

>  <MW>  (6416) 
81

>  <ID>  (6416) 
JP001626

>  <CONTRIBUTOR>  (6416) 
University of Tokyo Team, {Faculty of Engineering, University of Tokyo

>  <COMMENT>  (6416) 
SMILES=Cn(c1)ccc1
cas=96-54-8
InChI=InChI=1S/C5H7N/c1-6-4-2-3-5-6/h2-5H,1H3
computed SMILES=C=1C=CN(C1)C
accession=JP001626
date=2016.01.19 (Created 2008.10.21, modified 2011.05.06)
author=KOGA M, UNIV. OF OCCUPATIONAL AND ENVIRONMENTAL HEALTH
license=CC BY-NC-SA
exact mass=81.05785
ionization energy=70 eV
ion type=[M]+*
computed spectral entropy=2.684294001295443
computed normalized entropy=0.7892202951137273
SPLASH=splash10-001l-9000000000-66817af0d2cc99d62d59
submitter=submitter = University of Tokyo Team (Faculty of Engineering, University of Tokyo)
MoNA Rating=3.75

>  <NUM PEAKS>  (6416) 
30

>  <MASS SPECTRAL PEAKS>  (6416) 
32 6.83
37 5.6
38 10.25
39 44.18
40 16.27
41 18.05
42 54.71
43 2.73
49 1.64
50 4.78
51 5.6
52 11.21
53 56.36
54 22.29
55 29.82
56 2.87
57 3.41
58 2.87
59 1.23
66 3.55
67 2.46
68 3.83
69 4.92
70 1.36
71 1.36
78 13.95
79 4.51
80 74.69
81 99.99
82 6.01

$$$$

     RDKit          2D

 19 21  0  0  0  0  0  0  0  0999 V2000
    3.9000   -0.7500    0.0000 C   0  0  0  0  0  0  0  0  0  0  0  0
    3.9000    0.7500    0.0000 C   0  0  0  0  0  0  0  0  0  0  0  0
   -3.9000   -0.7500    0.0000 C   0  0  0  0  0  0  0  0  0  0  0  0
    2.6000   -1.5000    0.0000 C   0  0  0  0  0  0  0  0  0  0  0  0
    2.6000    1.5000    0.0000 C   0  0  0  0  0  0  0  0  0  0  0  0
   -2.6000   -1.5000    0.0000 C   0  0  0  0  0  0  0  0  0  0  0  0
   -3.9000    0.7500    0.0000 C   0  0  0  0  0  0  0  0  0  0  0  0
    1.3000   -0.7500    0.0000 C   0  0  0  0  0  0  0  0  0  0  0  0
    1.3000    0.7500    0.0000 C   0  0  0  0  0  0  0  0  0  0  0  0
   -1.3000   -0.7500    0.0000 C   0  0  0  0  0  0  0  0  0  0  0  0
   -2.6000    1.5000    0.0000 C   0  0  0  0  0  0  0  0  0  0  0  0
   -1.3000    0.7500    0.0000 C   0  0  0  0  0  0  0  0  0  0  0  0
   -0.0000   -1.5000    0.0000 C   0  0  0  0  0  0  0  0  0  0  0  0
   -0.0000    1.5000    0.0000 C   0  0  0  0  0  0  0  0  0  0  0  0
   -2.6000    3.0000    0.0000 N   0  0  0  0  0  0  0  0  0  0  0  0
   -0.0000   -3.0000    0.0000 O   0  0  0  0  0  0  0  0  0  0  0  0
    0.0000    3.0000    0.0000 O   0  0  0  0  0  0  0  0  0  0  0  0
   -3.8990    3.7500    0.0000 O   0  0  0  0  0  0  0  0  0  0  0  0
   -1.3010    3.7500    0.0000 O   0  0  0  0  0  0  0  0  0  0  0  0
  2  1  2  0
  4  1  1  0
  5  2  1  0
  6  3  1  0
  7  3  2  0
  8  4  2  0
  9  5  2  0
  9  8  1  0
 10  6  2  0
 11  7  1  0
 12 10  1  0
 12 11  2  0
 13  8  1  0
 13 10  1  0
 14  9  1  0
 14 12  1  0
 15 11  1  0
 16 13  2  0
 17 14  2  0
 18 15  1  0
 19 15  2  0
M  CHG  2  15   1  18  -1
M  END
>  <NAME>  (6417) 
1-NITROANTHRAQUINONE

>  <SYNONYMS>  (6417) 


>  <SPECTRUM TYPE>  (6417) 
MS1

>  <INSTRUMENT TYPE>  (6417) 
EI-B

>  <INSTRUMENT>  (6417) 
VARIAN MAT-44

>  <ION MODE>  (6417) 
P

>  <INCHIKEY>  (6417) 
YCANAXVBJKNANM-UHFFFAOYSA-N

>  <FORMULA>  (6417) 
C14H7NO4

>  <EXACT MASS>  (6417) 
253.03750770399998

>  <MW>  (6417) 
253

>  <ID>  (6417) 
JP001625

>  <CONTRIBUTOR>  (6417) 
University of Tokyo Team, {Faculty of Engineering, University of Tokyo

>  <COMMENT>  (6417) 
SMILES=[O-1][N+1](=O)c(c3)c(c(=O)1)c(cc3)c(=O)c(c2)c(ccc2)1
InChI=InChI=1S/C14H7NO4/c16-13-8-4-1-2-5-9(8)14(17)12-10(13)6-3-7-11(12)15(18)19/h1-7H
computed SMILES=O=C1C=2C=CC=CC2C(=O)C=3C1=CC=CC3N(=O)=O
accession=JP001625
date=2016.01.19 (Created 2008.10.21, modified 2011.05.06)
author=KOGA M, UNIV. OF OCCUPATIONAL AND ENVIRONMENTAL HEALTH
license=CC BY-NC-SA
exact mass=253.03751
ionization energy=70 eV
ion type=[M]+*
computed spectral entropy=3.0424225052322584
computed normalized entropy=0.7777107908135332
SPLASH=splash10-0zgi-5950000000-211963c93322a9c6bae9
submitter=submitter = University of Tokyo Team (Faculty of Engineering, University of Tokyo)
MoNA Rating=3.75

>  <NUM PEAKS>  (6417) 
50

>  <MASS SPECTRAL PEAKS>  (6417) 
41 1.58
43 2.19
49 1.28
50 23.84
51 5.14
53 2.19
55 1.28
57 1.21
61 1.21
62 3.86
63 13.32
69 3.1
73 2.72
74 12.03
75 23.69
76 43.83
77 7.26
81 1.13
86 1.96
87 2.42
90 7.04
98 2.8
99 2.95
100 1.21
101 1.28
102 1.51
104 1.81
125 3.7
126 5.6
139 4.92
149 2.42
150 24.6
151 49.65
152 45.95
167 3.02
179 12.11
180 88.11
181 13.39
182 1.05
195 6.05
196 1.05
206 2.57
207 24.9
208 99.99
209 15.21
210 1.43
236 1.28
244 4.46
253 18.39
254 2.8

$$$$

     RDKit          2D

 16 17  0  0  0  0  0  0  0  0999 V2000
   -2.6000    0.7500    0.0000 C   0  0  0  0  0  0  0  0  0  0  0  0
    2.6000    0.7500    0.0000 C   0  0  0  0  0  0  0  0  0  0  0  0
   -1.3000    1.5000    0.0000 C   0  0  0  0  0  0  0  0  0  0  0  0
    1.3000    1.5000    0.0000 C   0  0  0  0  0  0  0  0  0  0  0  0
   -2.6000   -0.7500    0.0000 C   0  0  0  0  0  0  0  0  0  0  0  0
    2.6000   -0.7500    0.0000 C   0  0  0  0  0  0  0  0  0  0  0  0
    0.0000    0.7500    0.0000 C   0  0  0  0  0  0  0  0  0  0  0  0
   -1.3000   -1.5000    0.0000 C   0  0  0  0  0  0  0  0  0  0  0  0
    1.3000   -1.5000    0.0000 C   0  0  0  0  0  0  0  0  0  0  0  0
    0.0000   -0.7500    0.0000 C   0  0  0  0  0  0  0  0  0  0  0  0
   -1.5605   -2.9772    0.0000 N   0  0  0  0  0  0  0  0  0  0  0  0
    1.5605   -2.9772    0.0000 N   0  0  0  0  0  0  0  0  0  0  0  0
   -2.9700   -3.4902    0.0000 O   0  0  0  0  0  0  0  0  0  0  0  0
   -0.4114   -3.9414    0.0000 O   0  0  0  0  0  0  0  0  0  0  0  0
    2.9700   -3.4902    0.0000 O   0  0  0  0  0  0  0  0  0  0  0  0
    0.4114   -3.9414    0.0000 O   0  0  0  0  0  0  0  0  0  0  0  0
  3  1  2  0
  4  2  1  0
  5  1  1  0
  6  2  2  0
  7  3  1  0
  7  4  2  0
  8  5  2  0
  9  6  1  0
 10  7  1  0
 10  8  1  0
 10  9  2  0
 11  8  1  0
 12  9  1  0
 13 11  1  0
 14 11  2  0
 15 12  1  0
 16 12  2  0
M  CHG  4  11   1  12   1  13  -1  15  -1
M  END
>  <NAME>  (6418) 
1,8-DINITRONAPHTHALENE

>  <SYNONYMS>  (6418) 


>  <SPECTRUM TYPE>  (6418) 
MS1

>  <INSTRUMENT TYPE>  (6418) 
EI-B

>  <INSTRUMENT>  (6418) 
VARIAN MAT-44

>  <ION MODE>  (6418) 
P

>  <INCHIKEY>  (6418) 
AVCSMMMOCOTIHF-UHFFFAOYSA-N

>  <FORMULA>  (6418) 
C10H6N2O4

>  <EXACT MASS>  (6418) 
218.032756672

>  <MW>  (6418) 
218

>  <ID>  (6418) 
JP001623

>  <CONTRIBUTOR>  (6418) 
University of Tokyo Team, {Faculty of Engineering, University of Tokyo

>  <COMMENT>  (6418) 
SMILES=[O-1][N+1](=O)c(c2)c(c1cc2)c(ccc1)[N+1]([O-1])=O
cas=602-38-0
InChI=InChI=1S/C10H6N2O4/c13-11(14)8-5-1-3-7-4-2-6-9(10(7)8)12(15)16/h1-6H
computed SMILES=O=N(=O)C=1C=CC=C2C=CC=C(C21)N(=O)=O
accession=JP001623
date=2016.01.19 (Created 2008.10.21, modified 2011.05.06)
author=KOGA M, UNIV. OF OCCUPATIONAL AND ENVIRONMENTAL HEALTH
license=CC BY-NC-SA
exact mass=218.03276
ionization energy=70 eV
ion type=[M]+*
computed spectral entropy=3.4715830748058596
computed normalized entropy=0.8379121858365051
SPLASH=splash10-03xr-5910000000-82f1ddf0bc95d89aed28
submitter=submitter = University of Tokyo Team (Faculty of Engineering, University of Tokyo)
MoNA Rating=3.75

>  <NUM PEAKS>  (6418) 
63

>  <MASS SPECTRAL PEAKS>  (6418) 
43 1.13
46 2.58
50 15.27
51 10.56
52 4.25
53 1.08
55 1.36
61 3.11
62 12.31
63 20.66
64 6.3
65 1.13
73 1.13
74 21.2
75 23.1
76 13.6
77 5.01
78 1.06
85 1.06
86 5.16
87 10.1
88 24.01
89 18.84
90 5.16
91 4.86
98 5.39
99 6.3
100 6.76
101 6.83
102 16.48
103 2.2
104 6.83
105 3.11
113 25.6
114 99.99
115 8.58
116 20.44
117 3.34
118 1.97
119 12.08
120 2.88
122 1.13
125 5.24
126 32.29
128 3.03
129 2.5
130 8.05
132 5.24
142 16.71
143 2.27
144 3.57
146 1.13
156 1.29
158 6.76
159 1.51
160 1.29
171 2.12
172 51.82
173 4.4
188 2.05
217 2.73
218 59.11
219 7.21

$$$$

     RDKit          2D

 16 17  0  0  0  0  0  0  0  0999 V2000
    2.6000   -0.7500    0.0000 C   0  0  0  0  0  0  0  0  0  0  0  0
   -2.6000    0.7500    0.0000 C   0  0  0  0  0  0  0  0  0  0  0  0
    1.3000   -1.5000    0.0000 C   0  0  0  0  0  0  0  0  0  0  0  0
   -1.3000    1.5000    0.0000 C   0  0  0  0  0  0  0  0  0  0  0  0
    2.6000    0.7500    0.0000 C   0  0  0  0  0  0  0  0  0  0  0  0
   -2.6000   -0.7500    0.0000 C   0  0  0  0  0  0  0  0  0  0  0  0
    0.0000   -0.7500    0.0000 C   0  0  0  0  0  0  0  0  0  0  0  0
    0.0000    0.7500    0.0000 C   0  0  0  0  0  0  0  0  0  0  0  0
    1.3000    1.5000    0.0000 C   0  0  0  0  0  0  0  0  0  0  0  0
   -1.3000   -1.5000    0.0000 C   0  0  0  0  0  0  0  0  0  0  0  0
    1.3000    3.0000    0.0000 N   0  0  0  0  0  0  0  0  0  0  0  0
   -1.3000   -3.0000    0.0000 N   0  0  0  0  0  0  0  0  0  0  0  0
    2.5990    3.7500    0.0000 O   0  0  0  0  0  0  0  0  0  0  0  0
    0.0010    3.7500    0.0000 O   0  0  0  0  0  0  0  0  0  0  0  0
   -2.5990   -3.7500    0.0000 O   0  0  0  0  0  0  0  0  0  0  0  0
   -0.0010   -3.7500    0.0000 O   0  0  0  0  0  0  0  0  0  0  0  0
  3  1  2  0
  4  2  2  0
  5  1  1  0
  6  2  1  0
  7  3  1  0
  8  4  1  0
  8  7  2  0
  9  5  2  0
  9  8  1  0
 10  6  2  0
 10  7  1  0
 11  9  1  0
 12 10  1  0
 13 11  1  0
 14 11  2  0
 15 12  1  0
 16 12  2  0
M  CHG  4  11   1  12   1  13  -1  15  -1
M  END
>  <NAME>  (6419) 
1,5-DINITRONAPHTHALENE

>  <SYNONYMS>  (6419) 


>  <SPECTRUM TYPE>  (6419) 
MS1

>  <INSTRUMENT TYPE>  (6419) 
EI-B

>  <INSTRUMENT>  (6419) 
VARIAN MAT-44

>  <ION MODE>  (6419) 
P

>  <INCHIKEY>  (6419) 
ZUTCJXFCHHDFJS-UHFFFAOYSA-N

>  <FORMULA>  (6419) 
C10H6N2O4

>  <EXACT MASS>  (6419) 
218.032756672

>  <MW>  (6419) 
218

>  <ID>  (6419) 
JP001622

>  <CONTRIBUTOR>  (6419) 
University of Tokyo Team, {Faculty of Engineering, University of Tokyo

>  <COMMENT>  (6419) 
SMILES=[O-1][N+1](=O)c(c2)c(c1)c(cc2)c(cc1)[N+1]([O-1])=O
cas=605-71-0
InChI=InChI=1S/C10H6N2O4/c13-11(14)9-5-1-3-7-8(9)4-2-6-10(7)12(15)16/h1-6H
computed SMILES=O=N(=O)C=1C=CC=C2C1C=CC=C2N(=O)=O
accession=JP001622
date=2016.01.19 (Created 2008.10.21, modified 2011.05.06)
author=KOGA M, UNIV. OF OCCUPATIONAL AND ENVIRONMENTAL HEALTH
license=CC BY-NC-SA
exact mass=218.03276
ionization energy=70 eV
ion type=[M]+*
computed spectral entropy=3.722912538557167
computed normalized entropy=0.8545240654482733
SPLASH=splash10-01t9-9700000000-5ee3a1488f1312722390
submitter=submitter = University of Tokyo Team (Faculty of Engineering, University of Tokyo)
MoNA Rating=3.75

>  <NUM PEAKS>  (6419) 
78

>  <MASS SPECTRAL PEAKS>  (6419) 
45 1.4
46 25.89
49 3.1
50 39.19
51 27.06
54 1.11
55 4.15
60 2.63
61 11.01
62 30.34
63 58.11
64 11.59
65 3.98
66 1.05
73 4.97
74 56.79
75 59.98
76 54.07
77 21.2
78 3.69
79 1.11
85 3.92
86 13.88
87 24.42
88 32.8
89 47.8
90 15.64
91 10.66
92 2.4
97 1.93
98 15.52
99 16.93
100 16.98
101 15.11
102 42.7
103 6.15
104 20.44
105 9.13
106 1.52
110 1.11
111 1.75
112 2.1
113 33.91
114 99.99
115 10.95
116 24.01
117 5.09
118 5.79
119 23.72
120 5.38
121 1.34
122 2.69
125 10.54
126 70.41
127 8.72
128 4.1
129 4.56
130 16.46
131 2.34
132 11.13
133 1.81
141 4.62
142 8.08
143 1.52
144 2.75
145 1.05
146 2.1
156 2.4
157 1.64
158 12.59
159 2.63
160 1.4
172 2.16
188 1.23
202 1.34
217 3.51
218 49.38
219 6.38

$$$$

     RDKit          2D

 16 18  0  0  0  0  0  0  0  0999 V2000
   -3.8900   -1.1300    0.0000 C   0  0  0  0  0  0  0  0  0  0  0  0
   -3.0100   -2.3500    0.0000 C   0  0  0  0  0  0  0  0  0  0  0  0
   -3.2800    0.2400    0.0000 C   0  0  0  0  0  0  0  0  0  0  0  0
   -1.5200   -2.1900    0.0000 C   0  0  0  0  0  0  0  0  0  0  0  0
    3.1200   -0.3600    0.0000 C   0  0  0  0  0  0  0  0  0  0  0  0
    1.8200   -1.1100    0.0000 C   0  0  0  0  0  0  0  0  0  0  0  0
   -0.9100    1.6100    0.0000 C   0  0  0  0  0  0  0  0  0  0  0  0
    1.8200    1.8900    0.0000 C   0  0  0  0  0  0  0  0  0  0  0  0
   -1.7900    0.3900    0.0000 C   0  0  0  0  0  0  0  0  0  0  0  0
    0.5200    1.1400    0.0000 C   0  0  0  0  0  0  0  0  0  0  0  0
    3.1200    1.1400    0.0000 C   0  0  0  0  0  0  0  0  0  0  0  0
   -0.9100   -0.8200    0.0000 C   0  0  0  0  0  0  0  0  0  0  0  0
    0.5200   -0.3600    0.0000 C   0  0  0  0  0  0  0  0  0  0  0  0
    4.4189    1.8902    0.0000 N   0  0  0  0  0  0  0  0  0  0  0  0
    5.7181    1.1404    0.0000 O   0  0  0  0  0  0  0  0  0  0  0  0
    4.4187    3.3902    0.0000 O   0  0  0  0  0  0  0  0  0  0  0  0
  2  1  2  0
  3  1  1  0
  4  2  1  0
  6  5  1  0
  9  3  2  0
  9  7  1  0
 10  7  1  0
 10  8  2  0
 11  5  2  0
 11  8  1  0
 12  4  2  0
 12  9  1  0
 13  6  2  0
 13 10  1  0
 13 12  1  0
 14 11  1  0
 15 14  1  0
 16 14  2  0
M  CHG  2  14   1  15  -1
M  END
>  <NAME>  (6420) 
2-NITROFLUORENE

>  <SYNONYMS>  (6420) 


>  <SPECTRUM TYPE>  (6420) 
MS1

>  <INSTRUMENT TYPE>  (6420) 
EI-B

>  <INSTRUMENT>  (6420) 
VARIAN MAT-44

>  <ION MODE>  (6420) 
P

>  <INCHIKEY>  (6420) 
XFOHWECQTFIEIX-UHFFFAOYSA-N

>  <FORMULA>  (6420) 
C13H9NO2

>  <EXACT MASS>  (6420) 
211.063328528

>  <MW>  (6420) 
211

>  <ID>  (6420) 
JP001621

>  <CONTRIBUTOR>  (6420) 
University of Tokyo Team, {Faculty of Engineering, University of Tokyo

>  <COMMENT>  (6420) 
SMILES=[O-1][N+1](=O)c(c3)cc(C1)c(c3)c(c2)c(ccc2)1
InChI=InChI=1S/C13H9NO2/c15-14(16)11-5-6-13-10(8-11)7-9-3-1-2-4-12(9)13/h1-6,8H,7H2
computed SMILES=O=N(=O)C1=CC=C2C=3C=CC=CC3CC2=C1
accession=JP001621
date=2016.01.19 (Created 2008.10.21, modified 2011.05.06)
author=KOGA M, UNIV. OF OCCUPATIONAL AND ENVIRONMENTAL HEALTH
license=CC BY-NC-SA
exact mass=211.06333
ionization energy=70 eV
ion type=[M]+*
computed spectral entropy=2.9080169066507513
computed normalized entropy=0.7595427739243048
SPLASH=splash10-03xr-2920000000-e163cd4eb030988dfa9e
submitter=submitter = University of Tokyo Team (Faculty of Engineering, University of Tokyo)
MoNA Rating=3.75

>  <NUM PEAKS>  (6420) 
46

>  <MASS SPECTRAL PEAKS>  (6420) 
43 1.1
44 1.21
50 3.75
51 4.36
62 4.3
63 10.76
65 1.54
69 4.63
70 3.2
74 3.92
75 3.86
76 2.87
77 1.43
81 4.3
82 6.29
86 2.7
87 4.3
88 1.6
89 3.47
98 1.38
111 1.15
113 2.54
115 7.17
126 1.82
127 1.49
137 2.26
138 1.76
139 9.88
140 1.21
150 1.87
151 4.36
152 11.76
153 8.39
161 1.32
162 5.41
163 32.35
164 48.59
165 99.99
166 14.24
167 1.1
181 6.12
194 30.81
195 5.9
210 2.65
211 73.49
212 10.87

$$$$

     RDKit          2D

 15 17  0  0  0  0  0  0  0  0999 V2000
   -2.6000   -1.2500    0.0000 C   0  0  0  0  0  0  0  0  0  0  0  0
   -2.6000    0.2500    0.0000 C   0  0  0  0  0  0  0  0  0  0  0  0
   -1.3000   -2.0000    0.0000 C   0  0  0  0  0  0  0  0  0  0  0  0
   -1.3000    2.5000    0.0000 C   0  0  0  0  0  0  0  0  0  0  0  0
    1.3000    2.5000    0.0000 C   0  0  0  0  0  0  0  0  0  0  0  0
    2.6000    0.2500    0.0000 C   0  0  0  0  0  0  0  0  0  0  0  0
    2.6000   -1.2500    0.0000 C   0  0  0  0  0  0  0  0  0  0  0  0
   -1.3000    1.0000    0.0000 C   0  0  0  0  0  0  0  0  0  0  0  0
    1.3000    1.0000    0.0000 C   0  0  0  0  0  0  0  0  0  0  0  0
    0.0000   -1.2500    0.0000 C   0  0  0  0  0  0  0  0  0  0  0  0
    1.3000   -2.0000    0.0000 C   0  0  0  0  0  0  0  0  0  0  0  0
    0.0000    0.2500    0.0000 C   0  0  0  0  0  0  0  0  0  0  0  0
    1.3000   -3.5000    0.0000 N   0  0  0  0  0  0  0  0  0  0  0  0
    2.5990   -4.2500    0.0000 O   0  0  0  0  0  0  0  0  0  0  0  0
    0.0010   -4.2500    0.0000 O   0  0  0  0  0  0  0  0  0  0  0  0
  2  1  2  0
  3  1  1  0
  5  4  1  0
  7  6  1  0
  8  2  1  0
  8  4  1  0
  9  5  1  0
  9  6  2  0
 10  3  2  0
 11  7  2  0
 11 10  1  0
 12  8  2  0
 12  9  1  0
 12 10  1  0
 13 11  1  0
 14 13  1  0
 15 13  2  0
M  CHG  2  13   1  14  -1
M  END
>  <NAME>  (6421) 
5-NITROACENAPHTHENE

>  <SYNONYMS>  (6421) 


>  <SPECTRUM TYPE>  (6421) 
MS1

>  <INSTRUMENT TYPE>  (6421) 
EI-B

>  <INSTRUMENT>  (6421) 
VARIAN MAT-44

>  <ION MODE>  (6421) 
P

>  <INCHIKEY>  (6421) 
CUARLQDWYSRQDF-UHFFFAOYSA-N

>  <FORMULA>  (6421) 
C12H9NO2

>  <EXACT MASS>  (6421) 
199.063328528

>  <MW>  (6421) 
199

>  <ID>  (6421) 
JP001620

>  <CONTRIBUTOR>  (6421) 
University of Tokyo Team, {Faculty of Engineering, University of Tokyo

>  <COMMENT>  (6421) 
SMILES=[O-1][N+1](=O)c(c1)c(c3)c(c(cc3)2)c(CC2)c1
InChI=InChI=1S/C12H9NO2/c14-13(15)11-7-6-9-5-4-8-2-1-3-10(11)12(8)9/h1-3,6-7H,4-5H2
computed SMILES=O=N(=O)C1=CC=C2C=3C1=CC=CC3CC2
accession=JP001620
date=2016.01.19 (Created 2008.10.21, modified 2011.05.06)
author=KOGA M, UNIV. OF OCCUPATIONAL AND ENVIRONMENTAL HEALTH
license=CC BY-NC-SA
exact mass=199.06333
ionization energy=70 eV
ion type=[M]+*
computed spectral entropy=3.5049679232663205
computed normalized entropy=0.8396365015155739
SPLASH=splash10-0udi-3900000000-47db36c0747a33d8ab45
submitter=submitter = University of Tokyo Team (Faculty of Engineering, University of Tokyo)
MoNA Rating=3.75

>  <NUM PEAKS>  (6421) 
65

>  <MASS SPECTRAL PEAKS>  (6421) 
40 1.22
43 1.09
46 10.34
49 1.27
50 15.52
51 18.48
52 4.05
53 1.11
61 3.74
62 12.01
63 26.59
64 3.06
65 2.28
73 1.69
74 13.91
75 20.12
76 20.64
77 8.63
78 1.32
85 1.92
86 5.82
87 7.82
88 2.62
89 3.71
91 1.11
98 5.01
99 4.52
100 2.6
101 3.38
102 3.77
110 1.32
111 1.56
113 2.96
114 2.78
115 24.23
116 5.12
122 1.14
125 3.01
126 10.34
127 7.59
128 2.34
129 1.53
138 1.22
139 9.95
140 5.79
141 31.64
142 7.67
143 4.23
144 2
149 2.39
150 18.33
151 40.24
152 99.99
153 41.88
154 6.52
168 3.01
169 24.93
170 5.48
171 2.28
181 1.3
182 13.15
183 3.95
198 10.68
199 49.47
200 8.86

$$$$

     RDKit          2D

 15 16  0  0  0  0  0  0  0  0999 V2000
    3.2505    1.4445    0.0000 C   0  0  0  0  0  0  0  0  0  0  0  0
    3.2510    2.9453    0.0000 C   0  0  0  0  0  0  0  0  0  0  0  0
    1.9510    0.6937    0.0000 C   0  0  0  0  0  0  0  0  0  0  0  0
   -1.9464    5.9389    0.0000 C   0  0  0  0  0  0  0  0  0  0  0  0
    1.9520    3.6953    0.0000 C   0  0  0  0  0  0  0  0  0  0  0  0
    0.6520    1.4437    0.0000 C   0  0  0  0  0  0  0  0  0  0  0  0
   -0.6486    5.1867    0.0000 C   0  0  0  0  0  0  0  0  0  0  0  0
   -3.2422    5.1989    0.0000 C   0  0  0  0  0  0  0  0  0  0  0  0
   -1.9474    2.9458    0.0000 C   0  0  0  0  0  0  0  0  0  0  0  0
    0.6524    2.9445    0.0000 C   0  0  0  0  0  0  0  0  0  0  0  0
   -0.6466    3.6945    0.0000 C   0  0  0  0  0  0  0  0  0  0  0  0
   -3.2452    3.6980    0.0000 C   0  0  0  0  0  0  0  0  0  0  0  0
   -4.5456    2.9504    0.0000 N   0  0  0  0  0  0  0  0  0  0  0  0
   -5.8432    3.7028    0.0000 O   0  0  0  0  0  0  0  0  0  0  0  0
   -4.5483    1.4504    0.0000 O   0  0  0  0  0  0  0  0  0  0  0  0
  2  1  2  0
  3  1  1  0
  5  2  1  0
  6  3  2  0
  7  4  2  0
  8  4  1  0
 10  5  2  0
 10  6  1  0
 11  7  1  0
 11  9  2  0
 11 10  1  0
 12  8  2  0
 12  9  1  0
 13 12  1  0
 14 13  1  0
 15 13  2  0
M  CHG  2  13   1  14  -1
M  END
>  <NAME>  (6422) 
3-NITRODIPHENYL

>  <SYNONYMS>  (6422) 


>  <SPECTRUM TYPE>  (6422) 
MS1

>  <INSTRUMENT TYPE>  (6422) 
EI-B

>  <INSTRUMENT>  (6422) 
VARIAN MAT-44

>  <ION MODE>  (6422) 
P

>  <INCHIKEY>  (6422) 
FYRPEHRWMVMHQM-UHFFFAOYSA-N

>  <FORMULA>  (6422) 
C12H9NO2

>  <EXACT MASS>  (6422) 
199.063328528

>  <MW>  (6422) 
199

>  <ID>  (6422) 
JP001619

>  <CONTRIBUTOR>  (6422) 
University of Tokyo Team, {Faculty of Engineering, University of Tokyo

>  <COMMENT>  (6422) 
SMILES=[O-1][N+1](=O)c(c2)cc(cc2)c(c1)cccc1
InChI=InChI=1S/C12H9NO2/c14-13(15)12-8-4-7-11(9-12)10-5-2-1-3-6-10/h1-9H
computed SMILES=O=N(=O)C1=CC=CC(=C1)C=2C=CC=CC2
accession=JP001619
date=2016.01.19 (Created 2008.10.21, modified 2011.05.06)
author=KOGA M, UNIV. OF OCCUPATIONAL AND ENVIRONMENTAL HEALTH
license=CC BY-NC-SA
exact mass=199.06333
ion type=[M]+*
ionization energy=70 eV
computed spectral entropy=2.764986558479219
computed normalized entropy=0.7397621622183712
SPLASH=splash10-0udj-3900000000-b1df2107ea7960fc450b
submitter=submitter = University of Tokyo Team (Faculty of Engineering, University of Tokyo)
MoNA Rating=3.75

>  <NUM PEAKS>  (6422) 
42

>  <MASS SPECTRAL PEAKS>  (6422) 
40 1.34
43 5.31
44 12.46
50 7.39
51 13.2
52 2.26
58 1.4
62 3.05
63 12.22
64 1.1
74 4.7
75 9.04
76 24.81
77 10.26
78 1.16
86 1.22
87 1.83
89 1.46
98 1.22
99 1.65
100 1.22
101 2.26
102 2.81
115 5.92
125 1.22
126 6.35
127 9.22
128 1.16
139 1.58
141 9.16
142 1.34
150 6.29
151 22.79
152 86
153 62.83
154 7.94
173 1.46
183 1.46
198 2.26
199 99.99
200 13.56
201 1.22

$$$$

     RDKit          2D

 15 16  0  0  0  0  0  0  0  0999 V2000
    3.8757   -1.1784    0.0000 C   0  0  0  0  0  0  0  0  0  0  0  0
    3.8762    0.3224    0.0000 C   0  0  0  0  0  0  0  0  0  0  0  0
    2.5762   -1.9293    0.0000 C   0  0  0  0  0  0  0  0  0  0  0  0
   -2.5905    1.0710    0.0000 C   0  0  0  0  0  0  0  0  0  0  0  0
   -2.5932    2.5460    0.0000 C   0  0  0  0  0  0  0  0  0  0  0  0
    2.5771    1.0724    0.0000 C   0  0  0  0  0  0  0  0  0  0  0  0
    1.2771   -1.1793    0.0000 C   0  0  0  0  0  0  0  0  0  0  0  0
   -1.3046    0.3338    0.0000 C   0  0  0  0  0  0  0  0  0  0  0  0
   -1.3081    3.3197    0.0000 C   0  0  0  0  0  0  0  0  0  0  0  0
    1.2776    0.3216    0.0000 C   0  0  0  0  0  0  0  0  0  0  0  0
   -0.0214    1.0716    0.0000 C   0  0  0  0  0  0  0  0  0  0  0  0
   -0.0241    2.5465    0.0000 C   0  0  0  0  0  0  0  0  0  0  0  0
    1.2811    3.2857    0.0000 N   0  0  0  0  0  0  0  0  0  0  0  0
    1.2935    4.7856    0.0000 O   0  0  0  0  0  0  0  0  0  0  0  0
    2.5739    2.5249    0.0000 O   0  0  0  0  0  0  0  0  0  0  0  0
  2  1  2  0
  3  1  1  0
  5  4  2  0
  6  2  1  0
  7  3  2  0
  8  4  1  0
  9  5  1  0
 10  6  2  0
 10  7  1  0
 11  8  2  0
 11 10  1  0
 12  9  2  0
 12 11  1  0
 13 12  1  0
 14 13  1  0
 15 13  2  0
M  CHG  2  13   1  14  -1
M  END
>  <NAME>  (6423) 
2-NITRODIPHENYL

>  <SYNONYMS>  (6423) 


>  <SPECTRUM TYPE>  (6423) 
MS1

>  <INSTRUMENT TYPE>  (6423) 
EI-B

>  <INSTRUMENT>  (6423) 
VARIAN MAT-44

>  <ION MODE>  (6423) 
P

>  <INCHIKEY>  (6423) 
YOJKKXRJMXIKSR-UHFFFAOYSA-N

>  <FORMULA>  (6423) 
C12H9NO2

>  <EXACT MASS>  (6423) 
199.063328528

>  <MW>  (6423) 
199

>  <ID>  (6423) 
JP001618

>  <CONTRIBUTOR>  (6423) 
University of Tokyo Team, {Faculty of Engineering, University of Tokyo

>  <COMMENT>  (6423) 
SMILES=[O-1][N+1](=O)c(c2)c(ccc2)c(c1)cccc1
InChI=InChI=1S/C12H9NO2/c14-13(15)12-9-5-4-8-11(12)10-6-2-1-3-7-10/h1-9H
computed SMILES=O=N(=O)C=1C=CC=CC1C=2C=CC=CC2
accession=JP001618
date=2016.01.19 (Created 2008.10.21, modified 2011.05.06)
author=KOGA M, UNIV. OF OCCUPATIONAL AND ENVIRONMENTAL HEALTH
license=CC BY-NC-SA
exact mass=199.06333
ionization energy=70 eV
ion type=[M]+*
computed spectral entropy=3.9392097123726115
computed normalized entropy=0.869084003191327
SPLASH=splash10-0udi-6900000000-aa6e6064cecf88ebcf97
submitter=submitter = University of Tokyo Team (Faculty of Engineering, University of Tokyo)
MoNA Rating=3.75

>  <NUM PEAKS>  (6423) 
93

>  <MASS SPECTRAL PEAKS>  (6423) 
40 6.17
41 3.72
43 2.05
44 3.03
46 6.07
49 3.81
50 53.47
51 69.34
52 15.67
53 11.75
54 1.07
55 4.6
57 2.74
58 4.4
59 1.66
61 6.95
62 24.87
63 58.17
64 11.16
65 9.69
66 1.37
68 1.86
69 1.76
70 2.44
72 1.07
73 4.21
74 31.83
75 40.64
76 58.76
77 34.47
78 6.56
79 1.07
81 2.44
85 3.42
86 10.57
87 14.98
88 6.85
89 13.02
90 9.3
91 5.68
92 2.84
98 8.42
99 6.26
100 4.3
101 9.3
102 12.63
103 4.5
104 4.7
110 1.95
111 2.15
113 6.75
114 8.32
115 97.64
116 30.26
117 24.38
118 2.93
122 1.17
125 4.21
126 23.89
127 21.25
128 15.57
129 16.25
130 6.36
138 1.56
139 16.84
140 7.93
141 24.19
142 26.15
143 43.87
144 11.16
145 1.95
146 3.23
149 1.95
150 18.02
151 46.13
152 99.99
153 19.78
154 25.85
155 4.4
156 1.37
166 5.38
167 2.25
168 9.2
169 6.46
170 20.86
171 50.44
172 7.05
181 2.84
182 33.59
183 5.87
198 5.58
199 27.61
200 4.11

$$$$

     RDKit          2D

 13 14  0  0  0  0  0  0  0  0999 V2000
   -2.6000   -0.7500    0.0000 C   0  0  0  0  0  0  0  0  0  0  0  0
   -2.6000    0.7500    0.0000 C   0  0  0  0  0  0  0  0  0  0  0  0
   -1.3000   -1.5000    0.0000 C   0  0  0  0  0  0  0  0  0  0  0  0
   -1.3000    1.5000    0.0000 C   0  0  0  0  0  0  0  0  0  0  0  0
    1.3000   -1.5000    0.0000 C   0  0  0  0  0  0  0  0  0  0  0  0
    2.6000   -0.7500    0.0000 C   0  0  0  0  0  0  0  0  0  0  0  0
    1.3000    1.5000    0.0000 C   0  0  0  0  0  0  0  0  0  0  0  0
    0.0000   -0.7500    0.0000 C   0  0  0  0  0  0  0  0  0  0  0  0
    0.0000    0.7500    0.0000 C   0  0  0  0  0  0  0  0  0  0  0  0
    2.6000    0.7500    0.0000 C   0  0  0  0  0  0  0  0  0  0  0  0
    3.8989    1.5002    0.0000 N   0  0  0  0  0  0  0  0  0  0  0  0
    5.1981    0.7504    0.0000 O   0  0  0  0  0  0  0  0  0  0  0  0
    3.8987    3.0002    0.0000 O   0  0  0  0  0  0  0  0  0  0  0  0
  2  1  2  0
  3  1  1  0
  4  2  1  0
  6  5  2  0
  8  3  2  0
  8  5  1  0
  9  4  2  0
  9  7  1  0
  9  8  1  0
 10  6  1  0
 10  7  2  0
 11 10  1  0
 12 11  1  0
 13 11  2  0
M  CHG  2  11   1  12  -1
M  END
>  <NAME>  (6424) 
2-NITRONAPHTHALENE

>  <SYNONYMS>  (6424) 


>  <SPECTRUM TYPE>  (6424) 
MS1

>  <INSTRUMENT TYPE>  (6424) 
EI-B

>  <INSTRUMENT>  (6424) 
VARIAN MAT-44

>  <ION MODE>  (6424) 
P

>  <INCHIKEY>  (6424) 
ZJYJZEAJZXVAMF-UHFFFAOYSA-N

>  <FORMULA>  (6424) 
C10H7NO2

>  <EXACT MASS>  (6424) 
173.047678464

>  <MW>  (6424) 
173

>  <ID>  (6424) 
JP001617

>  <CONTRIBUTOR>  (6424) 
University of Tokyo Team, {Faculty of Engineering, University of Tokyo

>  <COMMENT>  (6424) 
SMILES=[O-1][N+1](=O)c(c1)cc(c2)c(ccc2)c1
InChI=InChI=1S/C10H7NO2/c12-11(13)10-6-5-8-3-1-2-4-9(8)7-10/h1-7H
computed SMILES=O=N(=O)C=1C=CC=2C=CC=CC2C1
accession=JP001617
date=2016.01.19 (Created 2008.10.21, modified 2011.05.06)
author=KOGA M, UNIV. OF OCCUPATIONAL AND ENVIRONMENTAL HEALTH
license=CC BY-NC-SA
exact mass=173.04768
ionization energy=70 eV
ion type=[M]+*
computed spectral entropy=3.0424387452700574
computed normalized entropy=0.7946523140192775
SPLASH=splash10-004i-8900000000-28b47576cf9472ce38b5
submitter=submitter = University of Tokyo Team (Faculty of Engineering, University of Tokyo)
MoNA Rating=3.75

>  <NUM PEAKS>  (6424) 
46

>  <MASS SPECTRAL PEAKS>  (6424) 
40 1.1
41 1
43 2.61
44 11.67
46 2.81
49 1.81
50 24.94
51 36.51
52 5.43
53 1.81
61 4.12
62 10.56
63 25.25
64 3.92
65 2.91
73 1.6
74 18.81
75 25.45
76 13.48
77 39.13
78 3.11
85 1.1
86 3.62
87 5.63
88 1.91
89 5.13
90 1.2
98 3.72
99 3.21
100 3.01
101 14.18
102 1.6
113 1.3
114 2.61
115 40.24
116 4.12
125 2.81
126 26.05
127 99.99
128 11.46
143 2.61
157 1.4
165 1.1
172 1.5
173 65.79
174 7.54

$$$$

     RDKit          2D

 13 14  0  0  0  0  0  0  0  0999 V2000
   -2.7200   -1.0200    0.0000 C   0  0  0  0  0  0  0  0  0  0  0  0
   -2.7200    0.4800    0.0000 C   0  0  0  0  0  0  0  0  0  0  0  0
    2.4800   -1.0200    0.0000 C   0  0  0  0  0  0  0  0  0  0  0  0
   -1.4200   -1.7700    0.0000 C   0  0  0  0  0  0  0  0  0  0  0  0
    1.1800   -1.7700    0.0000 C   0  0  0  0  0  0  0  0  0  0  0  0
   -1.4200    1.2300    0.0000 C   0  0  0  0  0  0  0  0  0  0  0  0
    2.4800    0.4800    0.0000 C   0  0  0  0  0  0  0  0  0  0  0  0
   -0.1200   -1.0200    0.0000 C   0  0  0  0  0  0  0  0  0  0  0  0
   -0.1200    0.4800    0.0000 C   0  0  0  0  0  0  0  0  0  0  0  0
    1.1800    1.2300    0.0000 C   0  0  0  0  0  0  0  0  0  0  0  0
    1.1800    2.7300    0.0000 N   0  0  0  0  0  0  0  0  0  0  0  0
    2.4790    3.4800    0.0000 O   0  0  0  0  0  0  0  0  0  0  0  0
   -0.1190    3.4800    0.0000 O   0  0  0  0  0  0  0  0  0  0  0  0
  2  1  2  0
  4  1  1  0
  5  3  2  0
  6  2  1  0
  7  3  1  0
  8  4  2  0
  8  5  1  0
  9  6  2  0
  9  8  1  0
 10  7  2  0
 10  9  1  0
 11 10  1  0
 12 11  1  0
 13 11  2  0
M  CHG  2  11   1  12  -1
M  END
>  <NAME>  (6425) 
1-NITRONAPHTHALENE

>  <SYNONYMS>  (6425) 


>  <SPECTRUM TYPE>  (6425) 
MS1

>  <INSTRUMENT TYPE>  (6425) 
EI-B

>  <INSTRUMENT>  (6425) 
VARIAN MAT-44

>  <ION MODE>  (6425) 
P

>  <INCHIKEY>  (6425) 
RJKGJBPXVHTNJL-UHFFFAOYSA-N

>  <FORMULA>  (6425) 
C10H7NO2

>  <EXACT MASS>  (6425) 
173.047678464

>  <MW>  (6425) 
173

>  <ID>  (6425) 
JP001616

>  <CONTRIBUTOR>  (6425) 
University of Tokyo Team, {Faculty of Engineering, University of Tokyo

>  <COMMENT>  (6425) 
SMILES=[O-1][N+1](=O)c(c1)c(c2)c(ccc2)cc1
cas=86-57-7
InChI=InChI=1S/C10H7NO2/c12-11(13)10-7-3-5-8-4-1-2-6-9(8)10/h1-7H
computed SMILES=O=N(=O)C1=CC=CC=2C=CC=CC21
accession=JP001616
date=2016.01.19 (Created 2008.10.21, modified 2011.05.06)
author=KOGA M, UNIV. OF OCCUPATIONAL AND ENVIRONMENTAL HEALTH
license=CC BY-NC-SA
exact mass=173.04768
ionization energy=70 eV
ion type=[M]+*
computed spectral entropy=3.378515936515645
computed normalized entropy=0.8469615062576077
SPLASH=splash10-0fb9-9600000000-bdf73b19a48ec1965ff9
submitter=submitter = University of Tokyo Team (Faculty of Engineering, University of Tokyo)
MoNA Rating=3.75

>  <NUM PEAKS>  (6425) 
54

>  <MASS SPECTRAL PEAKS>  (6425) 
40 2.65
41 1.19
43 2.47
44 1.28
45 1
46 23.55
49 5.77
50 56.27
51 64.16
52 9.34
53 2.56
61 11.82
62 28.13
63 50.96
64 7.79
65 8.15
73 4.94
74 42.07
75 48.48
76 21.99
77 53.07
78 5.31
85 3.11
86 8.79
87 12.37
88 5.59
89 15.03
90 9.25
97 1.19
98 7.88
99 5.86
100 5.95
101 21.81
102 7.42
103 2.47
113 3.11
114 8.52
115 99.99
116 12.09
117 7.51
118 4.85
125 4.3
126 36.57
127 85.88
128 11.73
129 12.28
130 2.65
143 10.99
144 2.19
145 13.01
146 1.28
172 2.93
173 31.89
174 3.75

$$$$

     RDKit          2D

 13 13  0  0  0  0  0  0  0  0999 V2000
   -2.5989   -1.5002    0.0000 C   0  0  0  0  0  0  0  0  0  0  0  0
   -1.3000    0.7500    0.0000 C   0  0  0  0  0  0  0  0  0  0  0  0
    0.0000    1.5000    0.0000 C   0  0  0  0  0  0  0  0  0  0  0  0
   -0.0000   -1.5000    0.0000 C   0  0  0  0  0  0  0  0  0  0  0  0
   -1.3000   -0.7500    0.0000 C   0  0  0  0  0  0  0  0  0  0  0  0
    1.3000    0.7500    0.0000 C   0  0  0  0  0  0  0  0  0  0  0  0
    1.3000   -0.7500    0.0000 C   0  0  0  0  0  0  0  0  0  0  0  0
    2.5989    1.5002    0.0000 N   0  0  0  0  0  0  0  0  0  0  0  0
    2.5989   -1.5002    0.0000 N   0  0  0  0  0  0  0  0  0  0  0  0
    2.5987    3.0002    0.0000 O   0  0  0  0  0  0  0  0  0  0  0  0
    3.8981    0.7504    0.0000 O   0  0  0  0  0  0  0  0  0  0  0  0
    2.5987   -3.0002    0.0000 O   0  0  0  0  0  0  0  0  0  0  0  0
    3.8981   -0.7504    0.0000 O   0  0  0  0  0  0  0  0  0  0  0  0
  3  2  2  0
  5  1  1  0
  5  2  1  0
  5  4  2  0
  6  3  1  0
  7  4  1  0
  7  6  2  0
  8  6  1  0
  9  7  1  0
 10  8  1  0
 11  8  2  0
 12  9  1  0
 13  9  2  0
M  CHG  4   8   1   9   1  10  -1  12  -1
M  END
>  <NAME>  (6426) 
4-METHYL-1,2-DINITROBENZENE

>  <SYNONYMS>  (6426) 
3,4-DINITROTOLUENE

>  <SPECTRUM TYPE>  (6426) 
MS1

>  <INSTRUMENT TYPE>  (6426) 
EI-B

>  <INSTRUMENT>  (6426) 
VARIAN MAT-44

>  <ION MODE>  (6426) 
P

>  <INCHIKEY>  (6426) 
INYDMNPNDHRJQJ-UHFFFAOYSA-N

>  <FORMULA>  (6426) 
C7H6N2O4

>  <EXACT MASS>  (6426) 
182.032756672

>  <MW>  (6426) 
182

>  <ID>  (6426) 
JP001615

>  <CONTRIBUTOR>  (6426) 
University of Tokyo Team, {Faculty of Engineering, University of Tokyo

>  <COMMENT>  (6426) 
SMILES=Cc(c1)cc([N+1]([O-1])=O)c(c1)[N+1]([O-1])=O
cas=610-39-9
InChI=InChI=1S/C7H6N2O4/c1-5-2-3-6(8(10)11)7(4-5)9(12)13/h2-4H,1H3
computed SMILES=O=N(=O)C1=CC=C(C=C1N(=O)=O)C
accession=JP001615
date=2016.01.19 (Created 2008.10.21, modified 2011.05.06)
author=KOGA M, UNIV. OF OCCUPATIONAL AND ENVIRONMENTAL HEALTH
license=CC BY-NC-SA
exact mass=182.03276
ionization energy=70 eV
ion type=[M]+*
computed spectral entropy=3.2747889668262844
computed normalized entropy=0.8287995375800298
SPLASH=splash10-0udi-9000000000-67688fcaa838e0f6deef
submitter=submitter = University of Tokyo Team (Faculty of Engineering, University of Tokyo)
MoNA Rating=3.75

>  <NUM PEAKS>  (6426) 
52

>  <MASS SPECTRAL PEAKS>  (6426) 
40 23.52
41 12.54
42 2.53
43 11.7
44 21.71
45 1.2
46 11.45
49 3.25
50 45.71
51 75.27
52 99.99
53 51.38
54 6.63
55 3.86
56 1.68
61 8.56
62 30.03
63 89.26
64 41.97
65 54.76
66 52.11
67 6.51
68 2.41
74 6.87
75 7.72
76 10.61
77 45.23
78 60.55
79 6.51
80 1.68
85 1.56
86 4.22
87 3.98
88 2.17
89 47.76
90 11.58
91 7.59
92 2.05
94 32.32
95 2.05
105 6.99
106 2.65
108 3.98
134 1.8
135 2.77
136 1.68
152 1.8
165 6.03
166 1.68
181 1.32
182 50.54
183 4.82

$$$$

     RDKit          2D

 13 13  0  0  0  0  0  0  0  0999 V2000
    1.6236    1.3135    0.0000 C   0  0  0  0  0  0  0  0  0  0  0  0
    1.6244   -3.1882    0.0000 C   0  0  0  0  0  0  0  0  0  0  0  0
    0.3248   -2.4373    0.0000 C   0  0  0  0  0  0  0  0  0  0  0  0
    2.9234   -2.4382    0.0000 C   0  0  0  0  0  0  0  0  0  0  0  0
    1.6234   -0.1865    0.0000 C   0  0  0  0  0  0  0  0  0  0  0  0
    0.3244   -0.9365    0.0000 C   0  0  0  0  0  0  0  0  0  0  0  0
    2.9229   -0.9373    0.0000 C   0  0  0  0  0  0  0  0  0  0  0  0
   -0.9748   -0.1867    0.0000 N   0  0  0  0  0  0  0  0  0  0  0  0
    4.2220   -0.1873    0.0000 N   0  0  0  0  0  0  0  0  0  0  0  0
   -2.2737   -0.9369    0.0000 O   0  0  0  0  0  0  0  0  0  0  0  0
   -0.9750    1.3133    0.0000 O   0  0  0  0  0  0  0  0  0  0  0  0
    5.5210   -0.9373    0.0000 O   0  0  0  0  0  0  0  0  0  0  0  0
    4.2220    1.3127    0.0000 O   0  0  0  0  0  0  0  0  0  0  0  0
  3  2  2  0
  4  2  1  0
  5  1  1  0
  6  3  1  0
  6  5  2  0
  7  4  2  0
  7  5  1  0
  8  6  1  0
  9  7  1  0
 10  8  1  0
 11  8  2  0
 12  9  1  0
 13  9  2  0
M  CHG  4   8   1   9   1  10  -1  12  -1
M  END
>  <NAME>  (6427) 
2-METHYL-1,3-DINITROBENZENE

>  <SYNONYMS>  (6427) 
2,6-DINITROTOLUENE

>  <SPECTRUM TYPE>  (6427) 
MS1

>  <INSTRUMENT TYPE>  (6427) 
EI-B

>  <INSTRUMENT>  (6427) 
VARIAN MAT-44

>  <ION MODE>  (6427) 
P

>  <INCHIKEY>  (6427) 
XTRDKALNCIHHNI-UHFFFAOYSA-N

>  <FORMULA>  (6427) 
C7H6N2O4

>  <EXACT MASS>  (6427) 
182.032756672

>  <MW>  (6427) 
182

>  <ID>  (6427) 
JP001614

>  <CONTRIBUTOR>  (6427) 
University of Tokyo Team, {Faculty of Engineering, University of Tokyo

>  <COMMENT>  (6427) 
SMILES=[O-1][N+1](=O)c(c1)c(C)c(cc1)[N+1]([O-1])=O
cas=606-20-2
InChI=InChI=1S/C7H6N2O4/c1-5-6(8(10)11)3-2-4-7(5)9(12)13/h2-4H,1H3
computed SMILES=O=N(=O)C1=CC=CC(=C1C)N(=O)=O
accession=JP001614
date=2016.01.19 (Created 2008.10.21, modified 2011.05.06)
author=KOGA M, UNIV. OF OCCUPATIONAL AND ENVIRONMENTAL HEALTH
license=CC BY-NC-SA
exact mass=182.03276
ionization energy=70 eV
ion type=[M]+*
computed spectral entropy=3.3502374651926887
computed normalized entropy=0.8322844120437176
SPLASH=splash10-0ik9-9100000000-98b3a575488a74c908f0
submitter=submitter = University of Tokyo Team (Faculty of Engineering, University of Tokyo)
MoNA Rating=3.75

>  <NUM PEAKS>  (6427) 
56

>  <MASS SPECTRAL PEAKS>  (6427) 
40 11.27
41 3.42
42 4.7
43 46.01
44 2.14
45 1.27
46 20.39
49 4.64
50 40.26
51 72.16
52 42.47
53 14.29
54 2.49
55 2.03
60 1.74
61 9.93
62 32.82
63 99.99
64 41.89
65 10.51
66 7.03
67 1.56
73 1.74
74 11.09
75 22.42
76 14.11
77 34.04
78 27.71
79 9.41
80 2.38
85 1.62
86 4.12
87 3.89
88 2.96
89 47.64
90 31.66
91 17.43
92 3.89
93 1.27
104 4.35
105 2.49
106 3.07
107 3.89
108 5.34
117 1.1
118 2.44
119 3.13
121 10.05
134 2.49
135 6.62
148 8.25
164 2.2
165 34.28
166 3.25
182 0.87
183 0.11

$$$$

     RDKit          2D

 13 13  0  0  0  0  0  0  0  0999 V2000
   -2.8889    2.8302    0.0000 C   0  0  0  0  0  0  0  0  0  0  0  0
   -0.2900    2.8300    0.0000 C   0  0  0  0  0  0  0  0  0  0  0  0
    1.0100    2.0800    0.0000 C   0  0  0  0  0  0  0  0  0  0  0  0
   -0.2900   -0.1700    0.0000 C   0  0  0  0  0  0  0  0  0  0  0  0
   -1.5900    2.0800    0.0000 C   0  0  0  0  0  0  0  0  0  0  0  0
    1.0100    0.5800    0.0000 C   0  0  0  0  0  0  0  0  0  0  0  0
   -1.5900    0.5800    0.0000 C   0  0  0  0  0  0  0  0  0  0  0  0
    2.3089   -0.1702    0.0000 N   0  0  0  0  0  0  0  0  0  0  0  0
   -2.8889   -0.1702    0.0000 N   0  0  0  0  0  0  0  0  0  0  0  0
    3.6081    0.5796    0.0000 O   0  0  0  0  0  0  0  0  0  0  0  0
    2.3087   -1.6702    0.0000 O   0  0  0  0  0  0  0  0  0  0  0  0
   -4.1881    0.5796    0.0000 O   0  0  0  0  0  0  0  0  0  0  0  0
   -2.8887   -1.6702    0.0000 O   0  0  0  0  0  0  0  0  0  0  0  0
  3  2  2  0
  5  1  1  0
  5  2  1  0
  6  3  1  0
  6  4  2  0
  7  4  1  0
  7  5  2  0
  8  6  1  0
  9  7  1  0
 10  8  1  0
 11  8  2  0
 12  9  1  0
 13  9  2  0
M  CHG  4   8   1   9   1  10  -1  12  -1
M  END
>  <NAME>  (6428) 
1-METHYL-2,4-DINITROBENZENE

>  <SYNONYMS>  (6428) 
2,4-DINITROTOLUENE

>  <SPECTRUM TYPE>  (6428) 
MS1

>  <INSTRUMENT TYPE>  (6428) 
EI-B

>  <INSTRUMENT>  (6428) 
VARIAN MAT-44

>  <ION MODE>  (6428) 
P

>  <INCHIKEY>  (6428) 
RMBFBMJGBANMMK-UHFFFAOYSA-N

>  <FORMULA>  (6428) 
C7H6N2O4

>  <EXACT MASS>  (6428) 
182.032756672

>  <MW>  (6428) 
182

>  <ID>  (6428) 
JP001613

>  <CONTRIBUTOR>  (6428) 
University of Tokyo Team, {Faculty of Engineering, University of Tokyo

>  <COMMENT>  (6428) 
SMILES=[O-1][N+1](=O)c(c1)cc([N+1]([O-1])=O)c(C)c1
cas=121-14-2
InChI=InChI=1S/C7H6N2O4/c1-5-2-3-6(8(10)11)4-7(5)9(12)13/h2-4H,1H3
computed SMILES=O=N(=O)C1=CC=C(C(=C1)N(=O)=O)C
accession=JP001613
date=2016.01.19 (Created 2008.10.21, modified 2011.05.06)
author=KOGA M, UNIV. OF OCCUPATIONAL AND ENVIRONMENTAL HEALTH
license=CC BY-NC-SA
exact mass=182.03276
ionization energy=70 eV
ion type=[M]+*
computed spectral entropy=3.2328311392101314
computed normalized entropy=0.810439726374584
SPLASH=splash10-0j4r-9200000000-e01f15265175513e4134
submitter=submitter = University of Tokyo Team (Faculty of Engineering, University of Tokyo)
MoNA Rating=3.75

>  <NUM PEAKS>  (6428) 
54

>  <MASS SPECTRAL PEAKS>  (6428) 
40 11.2
41 5.2
42 1.5
43 6.8
44 17.3
46 5.8
49 2.1
50 25.4
51 48.7
52 37.2
53 10
54 2
55 2.5
61 6.4
62 23.4
63 99.99
64 32.9
65 10.4
66 7.4
67 1.4
68 1.3
69 2.3
73 1.1
74 6.1
75 6.4
76 4.9
77 21.4
78 26.7
79 9.7
80 5.4
81 1.1
85 1.4
86 3.4
87 3.3
88 2.5
89 91
90 35.3
91 10.6
92 3.5
94 1.2
105 4.4
106 5.6
107 5.5
108 2.3
118 9.7
119 24.7
120 2.4
148 2.3
149 1.5
164 1.5
165 77.9
166 7.3
182 8.9
183 0.87

$$$$

     RDKit          2D

 12 12  0  0  0  0  0  0  0  0999 V2000
    0.7500    1.3100    0.0000 C   0  0  0  0  0  0  0  0  0  0  0  0
   -0.7600    1.2900    0.0000 C   0  0  0  0  0  0  0  0  0  0  0  0
    0.7500   -1.2900    0.0000 C   0  0  0  0  0  0  0  0  0  0  0  0
   -0.7300   -1.3000    0.0000 C   0  0  0  0  0  0  0  0  0  0  0  0
    1.4900    0.0200    0.0000 C   0  0  0  0  0  0  0  0  0  0  0  0
   -1.5000   -0.0100    0.0000 C   0  0  0  0  0  0  0  0  0  0  0  0
    2.9900    0.0250    0.0000 N   0  0  0  0  0  0  0  0  0  0  0  0
   -2.9999   -0.0255    0.0000 N   0  0  0  0  0  0  0  0  0  0  0  0
    3.7357    1.3265    0.0000 O   0  0  0  0  0  0  0  0  0  0  0  0
    3.7443   -1.2716    0.0000 O   0  0  0  0  0  0  0  0  0  0  0  0
   -3.7633    1.2657    0.0000 O   0  0  0  0  0  0  0  0  0  0  0  0
   -3.7365   -1.3322    0.0000 O   0  0  0  0  0  0  0  0  0  0  0  0
  2  1  2  0
  4  3  1  0
  5  1  1  0
  5  3  2  0
  6  2  1  0
  6  4  2  0
  7  5  1  0
  8  6  1  0
  9  7  1  0
 10  7  2  0
 11  8  1  0
 12  8  2  0
M  CHG  4   7   1   8   1   9  -1  11  -1
M  END
>  <NAME>  (6429) 
1,4-DINITROBENZENE

>  <SYNONYMS>  (6429) 


>  <SPECTRUM TYPE>  (6429) 
MS1

>  <INSTRUMENT TYPE>  (6429) 
EI-B

>  <INSTRUMENT>  (6429) 
VARIAN MAT-44

>  <ION MODE>  (6429) 
P

>  <INCHIKEY>  (6429) 
FYFDQJRXFWGIBS-UHFFFAOYSA-N

>  <FORMULA>  (6429) 
C6H4N2O4

>  <EXACT MASS>  (6429) 
168.017106608

>  <MW>  (6429) 
168

>  <ID>  (6429) 
JP001612

>  <CONTRIBUTOR>  (6429) 
University of Tokyo Team, {Faculty of Engineering, University of Tokyo

>  <COMMENT>  (6429) 
cas=100-25-4
SMILES=[O-1][N+1](=O)c(c1)ccc(c1)[N+1]([O-1])=O
InChI=InChI=1S/C6H4N2O4/c9-7(10)5-1-2-6(4-3-5)8(11)12/h1-4H
computed SMILES=O=N(=O)C1=CC=C(C=C1)N(=O)=O
accession=JP001612
date=2016.01.19 (Created 2008.10.21, modified 2011.05.06)
author=KOGA M, UNIV. OF OCCUPATIONAL AND ENVIRONMENTAL HEALTH
license=CC BY-NC-SA
exact mass=168.01711
ionization energy=70 eV
ion type=[M]+*
computed spectral entropy=2.5290538873087516
computed normalized entropy=0.7762366331982752
SPLASH=splash10-0fb9-9100000000-937eb880c67e10deb3cf
submitter=submitter = University of Tokyo Team (Faculty of Engineering, University of Tokyo)
MoNA Rating=3.75

>  <NUM PEAKS>  (6429) 
26

>  <MASS SPECTRAL PEAKS>  (6429) 
40 1.1
43 1.67
44 8.15
45 1.05
46 4.22
49 4.46
50 99.99
51 12.27
52 4.41
53 5.61
54 1.87
61 3.54
62 6.09
63 20.19
64 26.42
65 2.06
73 3.93
74 23.59
75 68.48
76 50.31
77 4.74
92 15.87
93 1.15
122 11.65
168 31.7
169 2.78

$$$$

     RDKit          2D

 12 12  0  0  0  0  0  0  0  0999 V2000
    1.6244   -3.1882    0.0000 C   0  0  0  0  0  0  0  0  0  0  0  0
    0.3248   -2.4373    0.0000 C   0  0  0  0  0  0  0  0  0  0  0  0
    2.9234   -2.4382    0.0000 C   0  0  0  0  0  0  0  0  0  0  0  0
    1.6234   -0.1865    0.0000 C   0  0  0  0  0  0  0  0  0  0  0  0
    0.3244   -0.9365    0.0000 C   0  0  0  0  0  0  0  0  0  0  0  0
    2.9229   -0.9373    0.0000 C   0  0  0  0  0  0  0  0  0  0  0  0
   -0.9748   -0.1867    0.0000 N   0  0  0  0  0  0  0  0  0  0  0  0
    4.2220   -0.1873    0.0000 N   0  0  0  0  0  0  0  0  0  0  0  0
   -2.2737   -0.9369    0.0000 O   0  0  0  0  0  0  0  0  0  0  0  0
   -0.9750    1.3133    0.0000 O   0  0  0  0  0  0  0  0  0  0  0  0
    5.5210   -0.9373    0.0000 O   0  0  0  0  0  0  0  0  0  0  0  0
    4.2220    1.3127    0.0000 O   0  0  0  0  0  0  0  0  0  0  0  0
  2  1  2  0
  3  1  1  0
  5  2  1  0
  5  4  2  0
  6  3  2  0
  6  4  1  0
  7  5  1  0
  8  6  1  0
  9  7  1  0
 10  7  2  0
 11  8  1  0
 12  8  2  0
M  CHG  4   7   1   8   1   9  -1  11  -1
M  END
>  <NAME>  (6430) 
1,3-DINITROBENZENE

>  <SYNONYMS>  (6430) 


>  <SPECTRUM TYPE>  (6430) 
MS1

>  <INSTRUMENT TYPE>  (6430) 
EI-B

>  <INSTRUMENT>  (6430) 
VARIAN MAT-44

>  <ION MODE>  (6430) 
P

>  <INCHIKEY>  (6430) 
WDCYWAQPCXBPJA-UHFFFAOYSA-N

>  <FORMULA>  (6430) 
C6H4N2O4

>  <EXACT MASS>  (6430) 
168.017106608

>  <MW>  (6430) 
168

>  <ID>  (6430) 
JP001611

>  <CONTRIBUTOR>  (6430) 
University of Tokyo Team, {Faculty of Engineering, University of Tokyo

>  <COMMENT>  (6430) 
SMILES=[O-1][N+1](=O)c(c1)cc(cc1)[N+1]([O-1])=O
cas=99-65-0
InChI=InChI=1S/C6H4N2O4/c9-7(10)5-2-1-3-6(4-5)8(11)12/h1-4H
computed SMILES=O=N(=O)C1=CC=CC(=C1)N(=O)=O
accession=JP001611
date=2016.01.19 (Created 2008.10.21, modified 2011.05.06)
author=KOGA M, UNIV. OF OCCUPATIONAL AND ENVIRONMENTAL HEALTH
license=CC BY-NC-SA
exact mass=168.01711
ionization energy=70 eV
ion type=[M]+*
computed spectral entropy=2.520740264882185
computed normalized entropy=0.7736849523841717
SPLASH=splash10-0fb9-9100000000-ce6bfeb5ef2ced4681a2
submitter=submitter = University of Tokyo Team (Faculty of Engineering, University of Tokyo)
MoNA Rating=3.75

>  <NUM PEAKS>  (6430) 
26

>  <MASS SPECTRAL PEAKS>  (6430) 
40 1.26
44 4.74
46 6.05
49 4.84
50 99.99
51 14.87
52 5.04
53 2.52
54 1.36
55 1.66
61 3.17
62 5.04
63 20.32
64 23.75
65 1.76
73 3.53
74 21.78
75 59.7
76 57.63
77 5.39
92 20.32
93 1.56
122 13.16
152 1.15
168 28.24
169 2.37

$$$$

     RDKit          2D

 22 27  0  0  0  0  0  0  0  0999 V2000
   -5.7591   -1.1923    0.0000 C   0  0  0  0  0  0  0  0  0  0  0  0
   -5.1490   -2.5626    0.0000 C   0  0  0  0  0  0  0  0  0  0  0  0
    4.2243   -1.3818    0.0000 C   0  0  0  0  0  0  0  0  0  0  0  0
    4.2243    0.1182    0.0000 C   0  0  0  0  0  0  0  0  0  0  0  0
    2.9252   -2.1318    0.0000 C   0  0  0  0  0  0  0  0  0  0  0  0
   -4.8774    0.0213    0.0000 C   0  0  0  0  0  0  0  0  0  0  0  0
   -3.6572   -2.7194    0.0000 C   0  0  0  0  0  0  0  0  0  0  0  0
    2.9252    2.3682    0.0000 C   0  0  0  0  0  0  0  0  0  0  0  0
    1.6262    3.1182    0.0000 C   0  0  0  0  0  0  0  0  0  0  0  0
   -0.9719    3.1182    0.0000 C   0  0  0  0  0  0  0  0  0  0  0  0
   -2.2709    2.3682    0.0000 C   0  0  0  0  0  0  0  0  0  0  0  0
   -0.1691   -2.3527    0.0000 C   0  0  0  0  0  0  0  0  0  0  0  0
    2.9252    0.8682    0.0000 C   0  0  0  0  0  0  0  0  0  0  0  0
    0.3271    2.3682    0.0000 C   0  0  0  0  0  0  0  0  0  0  0  0
    1.6262   -1.3818    0.0000 C   0  0  0  0  0  0  0  0  0  0  0  0
   -3.3857   -0.1355    0.0000 C   0  0  0  0  0  0  0  0  0  0  0  0
   -2.7756   -1.5058    0.0000 C   0  0  0  0  0  0  0  0  0  0  0  0
   -2.2709    0.8682    0.0000 C   0  0  0  0  0  0  0  0  0  0  0  0
   -1.2838   -1.3490    0.0000 C   0  0  0  0  0  0  0  0  0  0  0  0
    1.6262    0.1182    0.0000 C   0  0  0  0  0  0  0  0  0  0  0  0
    0.3271    0.8682    0.0000 C   0  0  0  0  0  0  0  0  0  0  0  0
   -0.9719    0.1182    0.0000 C   0  0  0  0  0  0  0  0  0  0  0  0
  2  1  2  0
  4  3  2  0
  5  3  1  0
  6  1  1  0
  7  2  1  0
  9  8  2  0
 11 10  1  0
 13  4  1  0
 13  8  1  0
 14  9  1  0
 14 10  2  0
 15  5  2  0
 15 12  1  0
 16  6  2  0
 17  7  2  0
 17 16  1  0
 18 11  2  0
 18 16  1  0
 19 12  2  0
 19 17  1  0
 20 13  2  0
 20 15  1  0
 21 14  1  0
 21 20  1  0
 22 18  1  0
 22 19  1  0
 22 21  2  0
M  END
>  <NAME>  (6431) 
INDENO(1,2,3-CD)PYRENE

>  <SYNONYMS>  (6431) 


>  <SPECTRUM TYPE>  (6431) 
MS1

>  <INSTRUMENT TYPE>  (6431) 
EI-B

>  <INSTRUMENT>  (6431) 
VARIAN MAT-44

>  <ION MODE>  (6431) 
P

>  <INCHIKEY>  (6431) 
SXQBHARYMNFBPS-UHFFFAOYSA-N

>  <FORMULA>  (6431) 
C22H12

>  <EXACT MASS>  (6431) 
276.093900384

>  <MW>  (6431) 
276

>  <ID>  (6431) 
JP001609

>  <CONTRIBUTOR>  (6431) 
University of Tokyo Team, {Faculty of Engineering, University of Tokyo

>  <COMMENT>  (6431) 
SMILES=c(c6)cc(c(c6)5)c(c4)c(c15)c(c3c4)c(c2cc3)c(ccc2)c1
cas=193-39-5
InChI=InChI=1S/C22H12/c1-2-7-17-16(6-1)18-11-10-14-9-8-13-4-3-5-15-12-19(17)22(18)21(14)20(13)15/h1-12H
computed SMILES=C1=CC=C2C(=C1)C3=CC=C4C=CC5=CC=CC=6C=C2C3=C4C56
accession=JP001609
date=2016.01.19 (Created 2008.10.21, modified 2011.05.06)
author=KOGA M, UNIV. OF OCCUPATIONAL AND ENVIRONMENTAL HEALTH
license=CC BY-NC-SA
exact mass=276.0939
ionization energy=70 eV
ion type=[M]+*
computed spectral entropy=3.052692120579059
computed normalized entropy=0.776405773229541
SPLASH=splash10-004r-3980000000-4d0e178850db13903033
submitter=submitter = University of Tokyo Team (Faculty of Engineering, University of Tokyo)
MoNA Rating=3.75

>  <NUM PEAKS>  (6431) 
51

>  <MASS SPECTRAL PEAKS>  (6431) 
45 2.02
54 1.44
55 10.4
56 3.17
57 10.11
59 1.73
60 2.89
63 1.15
67 2.6
68 1.44
69 7.8
70 1.73
71 3.46
73 2.6
81 2.89
82 1.15
83 3.46
84 1.44
85 1.73
87 1.15
91 2.6
92 4.91
95 1.15
97 1.44
98 1.73
99 2.02
111 4.62
112 6.35
113 5.2
123 6.35
124 17.05
125 19.65
126 2.31
135 5.2
136 23.98
137 49.13
138 60.4
139 4.04
224 1.15
246 1.15
248 2.89
249 1.44
250 2.31
252 3.46
272 5.49
273 5.2
274 23.12
275 16.18
276 99.99
277 25.14
278 6.35

$$$$

     RDKit          2D

 20 24  0  0  0  0  0  0  0  0999 V2000
   -4.5924    4.6369    0.0000 C   0  0  0  0  0  0  0  0  0  0  0  0
   -3.8318    5.9543    0.0000 C   0  0  0  0  0  0  0  0  0  0  0  0
    2.2626   -1.4448    0.0000 C   0  0  0  0  0  0  0  0  0  0  0  0
    4.8626    3.0585    0.0000 C   0  0  0  0  0  0  0  0  0  0  0  0
   -3.8104    3.3322    0.0000 C   0  0  0  0  0  0  0  0  0  0  0  0
   -2.3109    5.9295    0.0000 C   0  0  0  0  0  0  0  0  0  0  0  0
    3.5621   -0.6940    0.0000 C   0  0  0  0  0  0  0  0  0  0  0  0
    4.8621    1.5577    0.0000 C   0  0  0  0  0  0  0  0  0  0  0  0
    0.9636   -0.6948    0.0000 C   0  0  0  0  0  0  0  0  0  0  0  0
    3.5636    3.8085    0.0000 C   0  0  0  0  0  0  0  0  0  0  0  0
   -1.7542    2.1659    0.0000 C   0  0  0  0  0  0  0  0  0  0  0  0
   -0.2727    4.7319    0.0000 C   0  0  0  0  0  0  0  0  0  0  0  0
    3.5626    0.8069    0.0000 C   0  0  0  0  0  0  0  0  0  0  0  0
   -2.3079    3.4100    0.0000 C   0  0  0  0  0  0  0  0  0  0  0  0
   -1.6270    4.5893    0.0000 C   0  0  0  0  0  0  0  0  0  0  0  0
    0.9641    0.8060    0.0000 C   0  0  0  0  0  0  0  0  0  0  0  0
    2.2641    3.0577    0.0000 C   0  0  0  0  0  0  0  0  0  0  0  0
   -0.3350    1.5560    0.0000 C   0  0  0  0  0  0  0  0  0  0  0  0
    0.9650    3.8077    0.0000 C   0  0  0  0  0  0  0  0  0  0  0  0
    2.2636    1.5569    0.0000 C   0  0  0  0  0  0  0  0  0  0  0  0
  2  1  2  0
  5  1  1  0
  6  2  1  0
  7  3  2  0
  8  4  2  0
  9  3  1  0
 10  4  1  0
 13  7  1  0
 13  8  1  0
 14  5  2  0
 14 11  1  0
 15  6  2  0
 15 12  1  0
 15 14  1  0
 16  9  2  0
 17 10  2  0
 18 11  2  0
 18 16  1  0
 19 12  2  0
 19 17  1  0
 19 18  1  0
 20 13  2  0
 20 16  1  0
 20 17  1  0
M  END
>  <NAME>  (6432) 
BENZO(K)FLUORANTHENE

>  <SYNONYMS>  (6432) 
8,9-BENZFLUORANTHENE

>  <SPECTRUM TYPE>  (6432) 
MS1

>  <INSTRUMENT TYPE>  (6432) 
EI-B

>  <INSTRUMENT>  (6432) 
VARIAN MAT-44

>  <ION MODE>  (6432) 
P

>  <INCHIKEY>  (6432) 
HAXBIWFMXWRORI-UHFFFAOYSA-N

>  <FORMULA>  (6432) 
C20H12

>  <EXACT MASS>  (6432) 
252.093900384

>  <MW>  (6432) 
252

>  <ID>  (6432) 
JP001608

>  <CONTRIBUTOR>  (6432) 
University of Tokyo Team, {Faculty of Engineering, University of Tokyo

>  <COMMENT>  (6432) 
SMILES=c(c5)cc(c1)c(c5)cc(c32)c1c(c4)c(c(cc4)ccc3)2
cas=207-08-9
InChI=InChI=1S/C20H12/c1-2-6-15-12-19-17-10-4-8-13-7-3-9-16(20(13)17)18(19)11-14(15)5-1/h1-12H
computed SMILES=C=1C=CC=2C=C3C4=CC=CC5=CC=CC(C3=CC2C1)=C54
accession=JP001608
date=2016.01.19 (Created 2008.10.21, modified 2011.05.06)
author=KOGA M, UNIV. OF OCCUPATIONAL AND ENVIRONMENTAL HEALTH
license=CC BY-NC-SA
exact mass=252.0939
ionization energy=70 eV
ion type=[M]+*
computed spectral entropy=2.5575440465533674
computed normalized entropy=0.744773901082959
SPLASH=splash10-0udi-1690000000-bd7ea40b5b2181c94a73
submitter=submitter = University of Tokyo Team (Faculty of Engineering, University of Tokyo)
MoNA Rating=3.75

>  <NUM PEAKS>  (6432) 
31

>  <MASS SPECTRAL PEAKS>  (6432) 
55 3.28
57 3.13
63 1.19
69 4.17
74 1.19
75 1.19
81 1.34
83 1.49
84 2.23
87 1.64
99 2.23
100 4.17
101 1.79
111 3.88
112 14.77
113 17.61
123 2.08
124 13.13
125 26.26
126 35.97
223 1.04
224 3.88
225 1.94
226 2.08
248 5.07
249 4.32
250 22.83
251 10.74
252 99.99
253 21.04
254 1.94

$$$$

     RDKit          2D

 20 24  0  0  0  0  0  0  0  0999 V2000
   -5.1300   -1.3100    0.0000 C   0  0  0  0  0  0  0  0  0  0  0  0
   -5.1300    0.1900    0.0000 C   0  0  0  0  0  0  0  0  0  0  0  0
    5.2600    0.1900    0.0000 C   0  0  0  0  0  0  0  0  0  0  0  0
    5.2600   -1.3100    0.0000 C   0  0  0  0  0  0  0  0  0  0  0  0
    0.0700    3.1900    0.0000 C   0  0  0  0  0  0  0  0  0  0  0  0
   -3.8300   -2.0600    0.0000 C   0  0  0  0  0  0  0  0  0  0  0  0
   -3.8300    0.9400    0.0000 C   0  0  0  0  0  0  0  0  0  0  0  0
    3.9600    0.9400    0.0000 C   0  0  0  0  0  0  0  0  0  0  0  0
    3.9600   -2.0600    0.0000 C   0  0  0  0  0  0  0  0  0  0  0  0
   -1.2300    2.4400    0.0000 C   0  0  0  0  0  0  0  0  0  0  0  0
    1.3600    2.4400    0.0000 C   0  0  0  0  0  0  0  0  0  0  0  0
   -1.2300   -2.0600    0.0000 C   0  0  0  0  0  0  0  0  0  0  0  0
   -2.5300   -1.3100    0.0000 C   0  0  0  0  0  0  0  0  0  0  0  0
   -2.5300    0.1900    0.0000 C   0  0  0  0  0  0  0  0  0  0  0  0
    2.6600    0.1900    0.0000 C   0  0  0  0  0  0  0  0  0  0  0  0
    2.6600   -1.3100    0.0000 C   0  0  0  0  0  0  0  0  0  0  0  0
   -1.2300    0.9400    0.0000 C   0  0  0  0  0  0  0  0  0  0  0  0
    1.3600    0.9400    0.0000 C   0  0  0  0  0  0  0  0  0  0  0  0
    0.0700   -1.3100    0.0000 C   0  0  0  0  0  0  0  0  0  0  0  0
    0.0700    0.1900    0.0000 C   0  0  0  0  0  0  0  0  0  0  0  0
  2  1  2  0
  4  3  2  0
  6  1  1  0
  7  2  1  0
  8  3  1  0
  9  4  1  0
 10  5  1  0
 11  5  2  0
 13  6  2  0
 13 12  1  0
 14  7  2  0
 14 13  1  0
 15  8  2  0
 16  9  2  0
 16 15  1  0
 17 10  2  0
 17 14  1  0
 18 11  1  0
 18 15  1  0
 19 12  2  0
 19 16  1  0
 20 17  1  0
 20 18  2  0
 20 19  1  0
M  END
>  <NAME>  (6433) 
BENZO(B)FLUORANTHENE

>  <SYNONYMS>  (6433) 
2,3-BENZFLUORANTHENE

>  <SPECTRUM TYPE>  (6433) 
MS1

>  <INSTRUMENT TYPE>  (6433) 
EI-B

>  <INSTRUMENT>  (6433) 
VARIAN MAT-44

>  <ION MODE>  (6433) 
P

>  <INCHIKEY>  (6433) 
FTOVXSOBNPWTSH-UHFFFAOYSA-N

>  <FORMULA>  (6433) 
C20H12

>  <EXACT MASS>  (6433) 
252.093900384

>  <MW>  (6433) 
252

>  <ID>  (6433) 
JP001607

>  <CONTRIBUTOR>  (6433) 
University of Tokyo Team, {Faculty of Engineering, University of Tokyo

>  <COMMENT>  (6433) 
SMILES=c(c5)cc(c1)c(c5)c(c4)c(c(cc4)2)c1c(c3)c(ccc3)2
cas=205-99-2
InChI=InChI=1S/C20H12/c1-2-7-14-13(6-1)12-19-16-9-4-3-8-15(16)18-11-5-10-17(14)20(18)19/h1-12H
computed SMILES=C=1C=CC2=C(C1)C=C3C4=CC=CC=C4C5=CC=CC2=C53
accession=JP001607
date=2016.01.19 (Created 2008.10.21, modified 2011.05.06)
author=KOGA M, UNIV. OF OCCUPATIONAL AND ENVIRONMENTAL HEALTH
license=CC BY-NC-SA
exact mass=252.0939
ionization energy=70 eV
ion type=[M]+*
computed spectral entropy=2.8764108778087425
computed normalized entropy=0.7512876187481131
SPLASH=splash10-0ufr-2890000000-a03f6fadc54abc18c617
submitter=submitter = University of Tokyo Team (Faculty of Engineering, University of Tokyo)
MoNA Rating=3.75

>  <NUM PEAKS>  (6433) 
46

>  <MASS SPECTRAL PEAKS>  (6433) 
45 1.72
51 1.23
55 4.19
56 1.48
57 4.19
58 1.97
60 1.23
63 1.48
67 1.23
68 1.23
69 6.17
71 1.23
73 1.23
74 1.48
75 1.72
81 2.22
83 2.71
84 2.71
87 2.46
88 1.23
99 3.45
100 6.66
101 2.22
111 5.67
112 20.74
113 26.91
114 1.23
123 3.2
124 18.02
125 33.58
126 41.72
127 1.23
200 1.72
202 1.72
222 1.23
223 1.23
224 4.69
225 2.71
226 2.71
248 5.43
249 4.19
250 23.45
251 8.64
252 99.99
253 20.49
254 1.72

$$$$

     RDKit          2D

 20 24  0  0  0  0  0  0  0  0999 V2000
   -4.8500   -1.6500    0.0000 C   0  0  0  0  0  0  0  0  0  0  0  0
   -4.8500   -0.1500    0.0000 C   0  0  0  0  0  0  0  0  0  0  0  0
    4.3000    2.1000    0.0000 C   0  0  0  0  0  0  0  0  0  0  0  0
   -3.5500   -2.4000    0.0000 C   0  0  0  0  0  0  0  0  0  0  0  0
    4.3000    0.6000    0.0000 C   0  0  0  0  0  0  0  0  0  0  0  0
    3.0000    2.8500    0.0000 C   0  0  0  0  0  0  0  0  0  0  0  0
   -3.5500    0.6000    0.0000 C   0  0  0  0  0  0  0  0  0  0  0  0
    3.0000   -1.6500    0.0000 C   0  0  0  0  0  0  0  0  0  0  0  0
    1.7000   -2.4000    0.0000 C   0  0  0  0  0  0  0  0  0  0  0  0
    0.4000    2.8500    0.0000 C   0  0  0  0  0  0  0  0  0  0  0  0
   -0.9000    2.1000    0.0000 C   0  0  0  0  0  0  0  0  0  0  0  0
   -0.9000   -2.4000    0.0000 C   0  0  0  0  0  0  0  0  0  0  0  0
    3.0000   -0.1500    0.0000 C   0  0  0  0  0  0  0  0  0  0  0  0
    1.7000    2.1000    0.0000 C   0  0  0  0  0  0  0  0  0  0  0  0
   -2.2000   -1.6500    0.0000 C   0  0  0  0  0  0  0  0  0  0  0  0
    0.4000   -1.6500    0.0000 C   0  0  0  0  0  0  0  0  0  0  0  0
   -2.2000   -0.1500    0.0000 C   0  0  0  0  0  0  0  0  0  0  0  0
   -0.9000    0.6000    0.0000 C   0  0  0  0  0  0  0  0  0  0  0  0
    1.7000    0.6000    0.0000 C   0  0  0  0  0  0  0  0  0  0  0  0
    0.4000   -0.1500    0.0000 C   0  0  0  0  0  0  0  0  0  0  0  0
  2  1  2  0
  4  1  1  0
  5  3  1  0
  6  3  2  0
  7  2  1  0
  9  8  2  0
 11 10  1  0
 13  5  2  0
 13  8  1  0
 14  6  1  0
 14 10  2  0
 15  4  2  0
 15 12  1  0
 16  9  1  0
 16 12  2  0
 17  7  2  0
 17 15  1  0
 18 11  2  0
 18 17  1  0
 19 13  1  0
 19 14  1  0
 20 16  1  0
 20 18  1  0
 20 19  2  0
M  END
>  <NAME>  (6434) 
BENZO(A)PYRENE

>  <SYNONYMS>  (6434) 


>  <SPECTRUM TYPE>  (6434) 
MS1

>  <INSTRUMENT TYPE>  (6434) 
EI-B

>  <INSTRUMENT>  (6434) 
VARIAN MAT-44

>  <ION MODE>  (6434) 
P

>  <INCHIKEY>  (6434) 
FMMWHPNWAFZXNH-UHFFFAOYSA-N

>  <FORMULA>  (6434) 
C20H12

>  <EXACT MASS>  (6434) 
252.093900384

>  <MW>  (6434) 
252

>  <ID>  (6434) 
JP001606

>  <CONTRIBUTOR>  (6434) 
University of Tokyo Team, {Faculty of Engineering, University of Tokyo

>  <COMMENT>  (6434) 
SMILES=c(c5)cc(c4)c(c5)c(c1)c(c34)c(c2cc3)c(ccc2)c1
cas=50-32-8
InChI=InChI=1S/C20H12/c1-2-7-17-15(4-1)12-16-9-8-13-5-3-6-14-10-11-18(17)20(16)19(13)14/h1-12H
computed SMILES=C=1C=CC2=C(C1)C=C3C=CC4=CC=CC=5C=CC2=C3C45
accession=JP001606
date=2016.01.19 (Created 2008.10.21, modified 2011.05.06)
author=KOGA M, UNIV. OF OCCUPATIONAL AND ENVIRONMENTAL HEALTH
license=CC BY-NC-SA
exact mass=252.0939
ionization energy=70 eV
ion type=[M]+*
computed spectral entropy=2.6086429546963417
computed normalized entropy=0.752695250838069
SPLASH=splash10-0udi-0590000000-6a1e4169eaee2450b6aa
submitter=submitter = University of Tokyo Team (Faculty of Engineering, University of Tokyo)
MoNA Rating=3.75

>  <NUM PEAKS>  (6434) 
32

>  <MASS SPECTRAL PEAKS>  (6434) 
63 1.31
74 1.31
84 1.83
87 1.57
99 2.62
100 3.67
101 1.04
111 4.46
112 15.74
113 25.45
123 2.62
124 17.58
125 27.03
126 30.7
127 1.83
198 1.31
200 1.83
222 1.83
223 1.57
224 5.24
225 3.41
226 3.67
227 1.31
228 1.04
247 1.57
248 5.77
249 4.98
250 24.14
251 13.38
252 99.99
253 24.4
254 3.41

$$$$

     RDKit          2D

 20 24  0  0  0  0  0  0  0  0999 V2000
   -3.9000    0.7500    0.0000 C   0  0  0  0  0  0  0  0  0  0  0  0
   -1.3000   -3.7500    0.0000 C   0  0  0  0  0  0  0  0  0  0  0  0
    1.3000    3.7500    0.0000 C   0  0  0  0  0  0  0  0  0  0  0  0
    3.9000   -0.7500    0.0000 C   0  0  0  0  0  0  0  0  0  0  0  0
   -3.9000   -0.7500    0.0000 C   0  0  0  0  0  0  0  0  0  0  0  0
   -2.6000   -3.0000    0.0000 C   0  0  0  0  0  0  0  0  0  0  0  0
    2.6000    3.0000    0.0000 C   0  0  0  0  0  0  0  0  0  0  0  0
    3.9000    0.7500    0.0000 C   0  0  0  0  0  0  0  0  0  0  0  0
   -2.6000    1.5000    0.0000 C   0  0  0  0  0  0  0  0  0  0  0  0
   -0.0000    3.0000    0.0000 C   0  0  0  0  0  0  0  0  0  0  0  0
   -0.0000   -3.0000    0.0000 C   0  0  0  0  0  0  0  0  0  0  0  0
    2.6000   -1.5000    0.0000 C   0  0  0  0  0  0  0  0  0  0  0  0
   -2.6000   -1.5000    0.0000 C   0  0  0  0  0  0  0  0  0  0  0  0
    2.6000    1.5000    0.0000 C   0  0  0  0  0  0  0  0  0  0  0  0
   -1.3000    0.7500    0.0000 C   0  0  0  0  0  0  0  0  0  0  0  0
   -0.0000    1.5000    0.0000 C   0  0  0  0  0  0  0  0  0  0  0  0
   -0.0000   -1.5000    0.0000 C   0  0  0  0  0  0  0  0  0  0  0  0
    1.3000   -0.7500    0.0000 C   0  0  0  0  0  0  0  0  0  0  0  0
   -1.3000   -0.7500    0.0000 C   0  0  0  0  0  0  0  0  0  0  0  0
    1.3000    0.7500    0.0000 C   0  0  0  0  0  0  0  0  0  0  0  0
  5  1  2  0
  6  2  1  0
  7  3  2  0
  8  4  2  0
  9  1  1  0
 10  3  1  0
 11  2  2  0
 12  4  1  0
 13  5  1  0
 13  6  2  0
 14  7  1  0
 14  8  1  0
 15  9  2  0
 16 10  2  0
 16 15  1  0
 17 11  1  0
 18 12  2  0
 18 17  1  0
 19 13  1  0
 19 15  1  0
 19 17  2  0
 20 14  2  0
 20 16  1  0
 20 18  1  0
M  END
>  <NAME>  (6435) 
PERYLENE

>  <SYNONYMS>  (6435) 


>  <SPECTRUM TYPE>  (6435) 
MS1

>  <INSTRUMENT TYPE>  (6435) 
EI-B

>  <INSTRUMENT>  (6435) 
VARIAN MAT-44

>  <ION MODE>  (6435) 
P

>  <INCHIKEY>  (6435) 
CSHWQDPOILHKBI-UHFFFAOYSA-N

>  <FORMULA>  (6435) 
C20H12

>  <EXACT MASS>  (6435) 
252.093900384

>  <MW>  (6435) 
252

>  <ID>  (6435) 
JP001605

>  <CONTRIBUTOR>  (6435) 
University of Tokyo Team, {Faculty of Engineering, University of Tokyo

>  <COMMENT>  (6435) 
SMILES=c(c5)cc(c21)c(c54)c(ccc4)c(c3)c(c(cc3)ccc2)1
cas=198-55-0
InChI=InChI=1S/C20H12/c1-5-13-6-2-11-17-18-12-4-8-14-7-3-10-16(20(14)18)15(9-1)19(13)17/h1-12H
computed SMILES=C1=CC=2C=CC=C3C4=CC=CC5=CC=CC(C(=C1)C23)=C54
accession=JP001605
date=2016.01.19 (Created 2008.10.21, modified 2011.05.06)
author=KOGA M, UNIV. OF OCCUPATIONAL AND ENVIRONMENTAL HEALTH
license=CC BY-NC-SA
exact mass=252.0939
ionization energy=70 eV
ion type=[M]+*
computed spectral entropy=2.333035769765512
computed normalized entropy=0.7341083236183202
SPLASH=splash10-0udi-0590000000-ef668c5347a74018af09
submitter=submitter = University of Tokyo Team (Faculty of Engineering, University of Tokyo)
MoNA Rating=3.75

>  <NUM PEAKS>  (6435) 
24

>  <MASS SPECTRAL PEAKS>  (6435) 
74 1.21
84 1.82
99 1.21
100 1.52
111 3.04
112 8.53
113 8.23
123 3.35
124 17.07
125 31.09
126 28.35
127 1.52
222 1.21
223 1.21
224 2.74
225 2.13
247 1.52
248 6.7
249 5.48
250 27.43
251 12.19
252 99.99
253 19.51
254 2.43

$$$$

     RDKit          2D

 18 21  0  0  0  0  0  0  0  0999 V2000
   -1.3000    3.7500    0.0000 C   0  0  0  0  0  0  0  0  0  0  0  0
   -2.6000    3.0000    0.0000 C   0  0  0  0  0  0  0  0  0  0  0  0
    3.9000    0.7500    0.0000 C   0  0  0  0  0  0  0  0  0  0  0  0
    3.9000   -0.7500    0.0000 C   0  0  0  0  0  0  0  0  0  0  0  0
   -2.6000   -3.0000    0.0000 C   0  0  0  0  0  0  0  0  0  0  0  0
   -1.3000   -3.7500    0.0000 C   0  0  0  0  0  0  0  0  0  0  0  0
   -0.0000    3.0000    0.0000 C   0  0  0  0  0  0  0  0  0  0  0  0
   -2.6000    1.5000    0.0000 C   0  0  0  0  0  0  0  0  0  0  0  0
    2.6000    1.5000    0.0000 C   0  0  0  0  0  0  0  0  0  0  0  0
   -2.6000   -1.5000    0.0000 C   0  0  0  0  0  0  0  0  0  0  0  0
    2.6000   -1.5000    0.0000 C   0  0  0  0  0  0  0  0  0  0  0  0
   -0.0000   -3.0000    0.0000 C   0  0  0  0  0  0  0  0  0  0  0  0
   -0.0000    1.5000    0.0000 C   0  0  0  0  0  0  0  0  0  0  0  0
   -1.3000    0.7500    0.0000 C   0  0  0  0  0  0  0  0  0  0  0  0
    1.3000    0.7500    0.0000 C   0  0  0  0  0  0  0  0  0  0  0  0
   -1.3000   -0.7500    0.0000 C   0  0  0  0  0  0  0  0  0  0  0  0
    1.3000   -0.7500    0.0000 C   0  0  0  0  0  0  0  0  0  0  0  0
   -0.0000   -1.5000    0.0000 C   0  0  0  0  0  0  0  0  0  0  0  0
  2  1  2  0
  4  3  2  0
  6  5  2  0
  7  1  1  0
  8  2  1  0
  9  3  1  0
 10  5  1  0
 11  4  1  0
 12  6  1  0
 13  7  2  0
 14  8  2  0
 14 13  1  0
 15  9  2  0
 15 13  1  0
 16 10  2  0
 16 14  1  0
 17 11  2  0
 17 15  1  0
 18 12  2  0
 18 16  1  0
 18 17  1  0
M  END
>  <NAME>  (6436) 
TRIPHENYLENE

>  <SYNONYMS>  (6436) 
9,10-BENZOPHENANTHRENE

>  <SPECTRUM TYPE>  (6436) 
MS1

>  <INSTRUMENT TYPE>  (6436) 
EI-B

>  <INSTRUMENT>  (6436) 
VARIAN MAT-44

>  <ION MODE>  (6436) 
P

>  <INCHIKEY>  (6436) 
SLGBZMMZGDRARJ-UHFFFAOYSA-N

>  <FORMULA>  (6436) 
C18H12

>  <EXACT MASS>  (6436) 
228.093900384

>  <MW>  (6436) 
228

>  <ID>  (6436) 
JP001604

>  <CONTRIBUTOR>  (6436) 
University of Tokyo Team, {Faculty of Engineering, University of Tokyo

>  <COMMENT>  (6436) 
SMILES=c(c4)cc(c(c4)1)c(c3)c(ccc3)c(c2)c(ccc2)1
cas=217-59-4
InChI=InChI=1S/C18H12/c1-2-8-14-13(7-1)15-9-3-4-11-17(15)18-12-6-5-10-16(14)18/h1-12H
computed SMILES=C=1C=CC=2C(C1)=C3C=CC=CC3=C4C=CC=CC24
accession=JP001604
date=2016.01.19 (Created 2008.10.21, modified 2011.05.06)
author=KOGA M, UNIV. OF OCCUPATIONAL AND ENVIRONMENTAL HEALTH
license=CC BY-NC-SA
exact mass=228.0939
ionization energy=70 eV
ion type=[M]+*
computed spectral entropy=2.678301808805325
computed normalized entropy=0.7595087881993727
SPLASH=splash10-004i-1590000000-51a4cf32f02d8403b2c5
submitter=submitter = University of Tokyo Team (Faculty of Engineering, University of Tokyo)
MoNA Rating=3.75

>  <NUM PEAKS>  (6436) 
34

>  <MASS SPECTRAL PEAKS>  (6436) 
43 2.33
44 1.31
50 1.6
51 1.75
62 1.31
63 2.48
74 2.33
75 3.79
76 2.18
86 1.31
87 5.1
88 6.71
98 1.45
99 4.67
100 12.99
101 14.01
111 2.91
112 18.68
113 36.93
114 22.18
115 1.16
150 1.16
199 1.16
200 4.08
201 2.18
202 3.79
223 1.16
224 6.71
225 6.42
226 28.02
227 18.54
228 99.99
229 19.41
230 2.33

$$$$

     RDKit          2D

 18 21  0  0  0  0  0  0  0  0999 V2000
   -4.8300   -1.3800    0.0000 C   0  0  0  0  0  0  0  0  0  0  0  0
   -4.8300    0.1200    0.0000 C   0  0  0  0  0  0  0  0  0  0  0  0
    4.2600    2.3800    0.0000 C   0  0  0  0  0  0  0  0  0  0  0  0
    2.9600    3.1200    0.0000 C   0  0  0  0  0  0  0  0  0  0  0  0
    4.2600    0.8800    0.0000 C   0  0  0  0  0  0  0  0  0  0  0  0
   -3.5400   -2.1200    0.0000 C   0  0  0  0  0  0  0  0  0  0  0  0
   -3.5400    0.8800    0.0000 C   0  0  0  0  0  0  0  0  0  0  0  0
    1.6600    2.3800    0.0000 C   0  0  0  0  0  0  0  0  0  0  0  0
    2.9600   -1.3800    0.0000 C   0  0  0  0  0  0  0  0  0  0  0  0
    1.6600   -2.1200    0.0000 C   0  0  0  0  0  0  0  0  0  0  0  0
   -0.9400   -2.1200    0.0000 C   0  0  0  0  0  0  0  0  0  0  0  0
   -0.9400    0.8800    0.0000 C   0  0  0  0  0  0  0  0  0  0  0  0
    2.9600    0.1200    0.0000 C   0  0  0  0  0  0  0  0  0  0  0  0
   -2.2400   -1.3800    0.0000 C   0  0  0  0  0  0  0  0  0  0  0  0
   -2.2400    0.1200    0.0000 C   0  0  0  0  0  0  0  0  0  0  0  0
    0.3600   -1.3800    0.0000 C   0  0  0  0  0  0  0  0  0  0  0  0
    1.6600    0.8800    0.0000 C   0  0  0  0  0  0  0  0  0  0  0  0
    0.3600    0.1200    0.0000 C   0  0  0  0  0  0  0  0  0  0  0  0
  2  1  2  0
  4  3  2  0
  5  3  1  0
  6  1  1  0
  7  2  1  0
  8  4  1  0
 10  9  2  0
 13  5  2  0
 13  9  1  0
 14  6  2  0
 14 11  1  0
 15  7  2  0
 15 12  1  0
 15 14  1  0
 16 10  1  0
 16 11  2  0
 17  8  2  0
 17 13  1  0
 18 12  2  0
 18 16  1  0
 18 17  1  0
M  END
>  <NAME>  (6437) 
2,3-BENZPHENANTHRENE

>  <SYNONYMS>  (6437) 


>  <SPECTRUM TYPE>  (6437) 
MS1

>  <INSTRUMENT TYPE>  (6437) 
EI-B

>  <INSTRUMENT>  (6437) 
VARIAN MAT-44

>  <ION MODE>  (6437) 
P

>  <INCHIKEY>  (6437) 
DXBHBZVCASKNBY-UHFFFAOYSA-N

>  <FORMULA>  (6437) 
C18H12

>  <EXACT MASS>  (6437) 
228.093900384

>  <MW>  (6437) 
228

>  <ID>  (6437) 
JP001603

>  <CONTRIBUTOR>  (6437) 
University of Tokyo Team, {Faculty of Engineering, University of Tokyo

>  <COMMENT>  (6437) 
SMILES=c(c4)cc(c3)c(c4)cc(c13)c(c2)c(ccc2)cc1
cas=56-55-3
InChI=InChI=1S/C18H12/c1-2-7-15-12-18-16(11-14(15)6-1)10-9-13-5-3-4-8-17(13)18/h1-12H
computed SMILES=C=1C=CC=2C=C3C(C=CC=4C=CC=CC43)=CC2C1
accession=JP001603
date=2016.01.19 (Created 2008.10.21, modified 2011.05.06)
author=KOGA M, UNIV. OF OCCUPATIONAL AND ENVIRONMENTAL HEALTH
license=CC BY-NC-SA
exact mass=228.0939
ionization energy=70 eV
ion type=[M]+*
computed spectral entropy=2.517857813211861
computed normalized entropy=0.772800248190577
SPLASH=splash10-01t9-1790000000-a4cb0dc693f64e392766
submitter=submitter = University of Tokyo Team (Faculty of Engineering, University of Tokyo)
MoNA Rating=3.75

>  <NUM PEAKS>  (6437) 
26

>  <MASS SPECTRAL PEAKS>  (6437) 
50 1.02
51 1.19
63 2.22
74 1.88
75 4.96
76 4.1
87 4.96
88 10.95
99 4.28
100 17.46
101 23.97
111 2.22
112 17.97
113 38.86
114 47.08
115 1.19
200 2.91
201 1.36
202 3.25
224 6.16
225 5.3
226 25.68
227 10.1
228 99.99
229 19.52
230 1.88

$$$$

     RDKit          2D

 16 19  0  0  0  0  0  0  0  0999 V2000
   -3.9400    0.7500    0.0000 C   0  0  0  0  0  0  0  0  0  0  0  0
   -3.9300   -0.7500    0.0000 C   0  0  0  0  0  0  0  0  0  0  0  0
    2.3300    2.6000    0.0000 C   0  0  0  0  0  0  0  0  0  0  0  0
    2.2500   -2.6300    0.0000 C   0  0  0  0  0  0  0  0  0  0  0  0
    3.1100    1.3100    0.0000 C   0  0  0  0  0  0  0  0  0  0  0  0
    3.0700   -1.3700    0.0000 C   0  0  0  0  0  0  0  0  0  0  0  0
   -2.6500    1.5100    0.0000 C   0  0  0  0  0  0  0  0  0  0  0  0
   -2.6200   -1.4900    0.0000 C   0  0  0  0  0  0  0  0  0  0  0  0
    0.8200    2.5500    0.0000 C   0  0  0  0  0  0  0  0  0  0  0  0
    0.7600   -2.5400    0.0000 C   0  0  0  0  0  0  0  0  0  0  0  0
    2.3900   -0.0100    0.0000 C   0  0  0  0  0  0  0  0  0  0  0  0
   -1.3400    0.7700    0.0000 C   0  0  0  0  0  0  0  0  0  0  0  0
   -1.3400   -0.7300    0.0000 C   0  0  0  0  0  0  0  0  0  0  0  0
    0.1000    1.2300    0.0000 C   0  0  0  0  0  0  0  0  0  0  0  0
    0.0800   -1.2000    0.0000 C   0  0  0  0  0  0  0  0  0  0  0  0
    0.9200    0.0000    0.0000 C   0  0  0  0  0  0  0  0  0  0  0  0
  2  1  2  0
  5  3  2  0
  6  4  2  0
  7  1  1  0
  8  2  1  0
  9  3  1  0
 10  4  1  0
 11  5  1  0
 11  6  1  0
 12  7  2  0
 13  8  2  0
 13 12  1  0
 14  9  2  0
 14 12  1  0
 15 10  2  0
 15 13  1  0
 16 11  2  0
 16 14  1  0
 16 15  1  0
M  END
>  <NAME>  (6438) 
FLUORANTHENE

>  <SYNONYMS>  (6438) 


>  <SPECTRUM TYPE>  (6438) 
MS1

>  <INSTRUMENT TYPE>  (6438) 
EI-B

>  <INSTRUMENT>  (6438) 
VARIAN MAT-44

>  <ION MODE>  (6438) 
P

>  <INCHIKEY>  (6438) 
GVEPBJHOBDJJJI-UHFFFAOYSA-N

>  <FORMULA>  (6438) 
C16H10

>  <EXACT MASS>  (6438) 
202.07825032

>  <MW>  (6438) 
202

>  <ID>  (6438) 
JP001602

>  <CONTRIBUTOR>  (6438) 
University of Tokyo Team, {Faculty of Engineering, University of Tokyo

>  <COMMENT>  (6438) 
SMILES=c(c4)cc(c(c4)1)c(c3)c(c2cc3)c(ccc2)1
cas=206-44-0
InChI=InChI=1S/C16H10/c1-2-8-13-12(7-1)14-9-3-5-11-6-4-10-15(13)16(11)14/h1-10H
computed SMILES=C1=CC=C2C(=C1)C3=CC=CC4=CC=CC2=C43
accession=JP001602
date=2016.01.19 (Created 2008.10.21, modified 2011.05.06)
author=KOGA M, UNIV. OF OCCUPATIONAL AND ENVIRONMENTAL HEALTH
license=CC BY-NC-SA
exact mass=202.07825
ionization energy=70 eV
ion type=[M]+*
computed spectral entropy=2.3861840618471657
computed normalized entropy=0.7160977228620649
SPLASH=splash10-0udi-3590000000-31cd208e75c8bad4729e
submitter=submitter = University of Tokyo Team (Faculty of Engineering, University of Tokyo)
MoNA Rating=3.75

>  <NUM PEAKS>  (6438) 
28

>  <MASS SPECTRAL PEAKS>  (6438) 
43 3.09
50 1.06
51 1.27
62 1.38
63 1.7
67 1.06
74 3.09
75 6.39
76 1.27
86 1.06
87 10.12
88 23.77
98 1.38
99 7.03
100 33.58
101 42.96
102 1.49
150 1.81
174 2.34
175 1.7
176 1.49
198 2.34
199 3.51
200 19.18
201 16.41
202 99.99
203 18.86
204 2.13

$$$$

     RDKit          2D

 16 19  0  0  0  0  0  0  0  0999 V2000
   -3.2500   -1.8800    0.0000 C   0  0  0  0  0  0  0  0  0  0  0  0
    3.2500    1.8800    0.0000 C   0  0  0  0  0  0  0  0  0  0  0  0
   -1.9500   -2.6200    0.0000 C   0  0  0  0  0  0  0  0  0  0  0  0
   -3.2500   -0.3800    0.0000 C   0  0  0  0  0  0  0  0  0  0  0  0
    3.2500    0.3800    0.0000 C   0  0  0  0  0  0  0  0  0  0  0  0
    1.9500    2.6200    0.0000 C   0  0  0  0  0  0  0  0  0  0  0  0
    0.6500   -2.6200    0.0000 C   0  0  0  0  0  0  0  0  0  0  0  0
   -1.9500    1.8800    0.0000 C   0  0  0  0  0  0  0  0  0  0  0  0
    1.9500   -1.8800    0.0000 C   0  0  0  0  0  0  0  0  0  0  0  0
   -0.6500    2.6200    0.0000 C   0  0  0  0  0  0  0  0  0  0  0  0
   -0.6500   -1.8800    0.0000 C   0  0  0  0  0  0  0  0  0  0  0  0
   -1.9500    0.3800    0.0000 C   0  0  0  0  0  0  0  0  0  0  0  0
    1.9500   -0.3800    0.0000 C   0  0  0  0  0  0  0  0  0  0  0  0
    0.6500    1.8800    0.0000 C   0  0  0  0  0  0  0  0  0  0  0  0
   -0.6500   -0.3800    0.0000 C   0  0  0  0  0  0  0  0  0  0  0  0
    0.6500    0.3800    0.0000 C   0  0  0  0  0  0  0  0  0  0  0  0
  3  1  2  0
  4  1  1  0
  5  2  2  0
  6  2  1  0
  9  7  1  0
 10  8  2  0
 11  3  1  0
 11  7  2  0
 12  4  2  0
 12  8  1  0
 13  5  1  0
 13  9  2  0
 14  6  2  0
 14 10  1  0
 15 11  1  0
 15 12  1  0
 16 13  1  0
 16 14  1  0
 16 15  2  0
M  END
>  <NAME>  (6439) 
PYRENE

>  <SYNONYMS>  (6439) 


>  <SPECTRUM TYPE>  (6439) 
MS1

>  <INSTRUMENT TYPE>  (6439) 
EI-B

>  <INSTRUMENT>  (6439) 
VARIAN MAT-44

>  <ION MODE>  (6439) 
P

>  <INCHIKEY>  (6439) 
BBEAQIROQSPTKN-UHFFFAOYSA-N

>  <FORMULA>  (6439) 
C16H10

>  <EXACT MASS>  (6439) 
202.07825032

>  <MW>  (6439) 
202

>  <ID>  (6439) 
JP001601

>  <CONTRIBUTOR>  (6439) 
University of Tokyo Team, {Faculty of Engineering, University of Tokyo

>  <COMMENT>  (6439) 
SMILES=c(c4)cc(c3)c(c41)c(c2c3)c(ccc2)cc1
cas=129-00-0
InChI=InChI=1S/C16H10/c1-3-11-7-9-13-5-2-6-14-10-8-12(4-1)15(11)16(13)14/h1-10H
computed SMILES=C=1C=C2C=CC3=CC=CC=4C=CC(C1)=C2C34
accession=JP001601
date=2016.01.19 (Created 2008.10.21, modified 2011.05.06)
author=KOGA M, UNIV. OF OCCUPATIONAL AND ENVIRONMENTAL HEALTH
license=CC BY-NC-SA
exact mass=202.07825
ionization energy=70 eV
ion type=[M]+*
computed spectral entropy=2.4036732404478838
computed normalized entropy=0.7293058904829686
SPLASH=splash10-0udi-3490000000-a0f4fc47f1f625d9dda5
submitter=submitter = University of Tokyo Team (Faculty of Engineering, University of Tokyo)
MoNA Rating=3.75

>  <NUM PEAKS>  (6439) 
27

>  <MASS SPECTRAL PEAKS>  (6439) 
43 1.12
50 1.74
51 1.63
62 1.94
63 2.66
67 1.43
74 4.6
75 5.42
76 1.12
86 1.84
87 10.33
88 15.55
98 1.94
99 7.67
100 34.49
101 37.76
102 1.33
150 1.74
174 2.45
175 1.63
198 2.96
199 4.4
200 20.67
201 21.39
202 99.99
203 18.11
204 1.63

$$$$

     RDKit          2D

 15 17  0  0  0  0  0  0  0  0999 V2000
   -4.7289   -2.3002    0.0000 C   0  0  0  0  0  0  0  0  0  0  0  0
    3.0600    2.2000    0.0000 C   0  0  0  0  0  0  0  0  0  0  0  0
    1.7600    2.9500    0.0000 C   0  0  0  0  0  0  0  0  0  0  0  0
    3.0600    0.7000    0.0000 C   0  0  0  0  0  0  0  0  0  0  0  0
    0.4600    2.2000    0.0000 C   0  0  0  0  0  0  0  0  0  0  0  0
   -3.4300   -0.0500    0.0000 C   0  0  0  0  0  0  0  0  0  0  0  0
    1.7600   -1.5500    0.0000 C   0  0  0  0  0  0  0  0  0  0  0  0
    0.4600   -2.3000    0.0000 C   0  0  0  0  0  0  0  0  0  0  0  0
   -2.1300    0.7000    0.0000 C   0  0  0  0  0  0  0  0  0  0  0  0
   -2.1300   -2.3000    0.0000 C   0  0  0  0  0  0  0  0  0  0  0  0
   -3.4300   -1.5500    0.0000 C   0  0  0  0  0  0  0  0  0  0  0  0
    1.7600   -0.0500    0.0000 C   0  0  0  0  0  0  0  0  0  0  0  0
   -0.8300   -1.5500    0.0000 C   0  0  0  0  0  0  0  0  0  0  0  0
    0.4600    0.7000    0.0000 C   0  0  0  0  0  0  0  0  0  0  0  0
   -0.8300   -0.0500    0.0000 C   0  0  0  0  0  0  0  0  0  0  0  0
  3  2  2  0
  4  2  1  0
  5  3  1  0
  8  7  2  0
  9  6  1  0
 11  1  1  0
 11  6  2  0
 11 10  1  0
 12  4  2  0
 12  7  1  0
 13  8  1  0
 13 10  2  0
 14  5  2  0
 14 12  1  0
 15  9  2  0
 15 13  1  0
 15 14  1  0
M  END
>  <NAME>  (6440) 
2-METHYLPHENANTHRENE

>  <SYNONYMS>  (6440) 


>  <SPECTRUM TYPE>  (6440) 
MS1

>  <INSTRUMENT TYPE>  (6440) 
EI-B

>  <INSTRUMENT>  (6440) 
VARIAN MAT-44

>  <ION MODE>  (6440) 
P

>  <INCHIKEY>  (6440) 
KANLOADZXMMCQA-UHFFFAOYSA-N

>  <FORMULA>  (6440) 
C15H12

>  <EXACT MASS>  (6440) 
192.093900384

>  <MW>  (6440) 
192

>  <ID>  (6440) 
JP001600

>  <CONTRIBUTOR>  (6440) 
University of Tokyo Team, {Faculty of Engineering, University of Tokyo

>  <COMMENT>  (6440) 
SMILES=Cc(c3)cc(c1)c(c3)c(c2)c(ccc2)c1
cas=2531-84-2
InChI=InChI=1S/C15H12/c1-11-6-9-15-13(10-11)8-7-12-4-2-3-5-14(12)15/h2-10H,1H3
computed SMILES=C=1C=CC2=C(C1)C=CC=3C=C(C=CC32)C
accession=JP001600
date=2016.01.19 (Created 2008.10.21, modified 2011.05.06)
author=KOGA M, UNIV. OF OCCUPATIONAL AND ENVIRONMENTAL HEALTH
license=CC BY-NC-SA
exact mass=192.0939
ionization energy=70 eV
ion type=[M]+*
computed spectral entropy=2.7040969852046506
computed normalized entropy=0.7433767521833899
SPLASH=splash10-0006-4900000000-27ee11fe5bb5a29ccea2
submitter=submitter = University of Tokyo Team (Faculty of Engineering, University of Tokyo)
MoNA Rating=3.75

>  <NUM PEAKS>  (6440) 
38

>  <MASS SPECTRAL PEAKS>  (6440) 
43 1.16
50 1.51
51 2.21
62 1.86
63 5.84
69 2.92
70 2.8
74 1.98
75 2.8
76 1.4
81 5.49
82 18.69
83 6.42
86 1.05
87 1.98
88 2.33
89 1.16
93 2.68
94 16
95 21.02
96 21.37
139 1.16
150 1.28
151 1.16
152 1.4
163 2.68
164 1.75
165 8.41
166 1.16
176 2.21
187 3.27
188 3.38
189 26.86
190 15.42
191 52.45
192 99.99
193 17.64
194 1.28

$$$$

     RDKit          2D

 14 16  0  0  0  0  0  0  0  0999 V2000
    3.9000   -0.7500    0.0000 C   0  0  0  0  0  0  0  0  0  0  0  0
    3.9000    0.7500    0.0000 C   0  0  0  0  0  0  0  0  0  0  0  0
   -3.9000   -0.7500    0.0000 C   0  0  0  0  0  0  0  0  0  0  0  0
   -3.9000    0.7500    0.0000 C   0  0  0  0  0  0  0  0  0  0  0  0
    2.6000   -1.5000    0.0000 C   0  0  0  0  0  0  0  0  0  0  0  0
    2.6000    1.5000    0.0000 C   0  0  0  0  0  0  0  0  0  0  0  0
   -2.6000   -1.5000    0.0000 C   0  0  0  0  0  0  0  0  0  0  0  0
   -2.6000    1.5000    0.0000 C   0  0  0  0  0  0  0  0  0  0  0  0
   -0.0000   -1.5000    0.0000 C   0  0  0  0  0  0  0  0  0  0  0  0
   -0.0000    1.5000    0.0000 C   0  0  0  0  0  0  0  0  0  0  0  0
    1.3000   -0.7500    0.0000 C   0  0  0  0  0  0  0  0  0  0  0  0
    1.3000    0.7500    0.0000 C   0  0  0  0  0  0  0  0  0  0  0  0
   -1.3000   -0.7500    0.0000 C   0  0  0  0  0  0  0  0  0  0  0  0
   -1.3000    0.7500    0.0000 C   0  0  0  0  0  0  0  0  0  0  0  0
  2  1  2  0
  4  3  1  0
  5  1  1  0
  6  2  1  0
  7  3  2  0
  8  4  2  0
 11  5  2  0
 11  9  1  0
 12  6  2  0
 12 10  1  0
 12 11  1  0
 13  7  1  0
 13  9  2  0
 14  8  1  0
 14 10  2  0
 14 13  1  0
M  END
>  <NAME>  (6441) 
ANTHRACENE

>  <SYNONYMS>  (6441) 


>  <SPECTRUM TYPE>  (6441) 
MS1

>  <INSTRUMENT TYPE>  (6441) 
EI-B

>  <INSTRUMENT>  (6441) 
VARIAN MAT-44

>  <ION MODE>  (6441) 
P

>  <INCHIKEY>  (6441) 
MWPLVEDNUUSJAV-UHFFFAOYSA-N

>  <FORMULA>  (6441) 
C14H10

>  <EXACT MASS>  (6441) 
178.07825032

>  <MW>  (6441) 
178

>  <ID>  (6441) 
JP001597

>  <CONTRIBUTOR>  (6441) 
University of Tokyo Team, {Faculty of Engineering, University of Tokyo

>  <COMMENT>  (6441) 
SMILES=c(c3)cc(c1)c(c3)cc(c2)c(ccc2)1
cas=120-12-7
InChI=InChI=1S/C14H10/c1-2-6-12-10-14-8-4-3-7-13(14)9-11(12)5-1/h1-10H
computed SMILES=C=1C=CC=2C=C3C=CC=CC3=CC2C1
accession=JP001597
date=2016.01.19 (Created 2008.10.21, modified 2011.05.06)
author=KOGA M, UNIV. OF OCCUPATIONAL AND ENVIRONMENTAL HEALTH
license=CC BY-NC-SA
exact mass=178.07825
ionization energy=70 eV
ion type=[M]+*
computed spectral entropy=2.529495296215168
computed normalized entropy=0.7858318971713487
SPLASH=splash10-004i-8900000000-4f166b284ab6771751db
submitter=submitter = University of Tokyo Team (Faculty of Engineering, University of Tokyo)
MoNA Rating=3.75

>  <NUM PEAKS>  (6441) 
25

>  <MASS SPECTRAL PEAKS>  (6441) 
50 4.28
51 5.64
61 1.14
62 5.01
63 14.42
74 5.22
75 15.15
76 40.64
77 2.82
86 1.67
87 5.53
88 22.04
89 32.91
98 1.77
99 1.25
126 1.56
150 5.43
151 7.62
152 8.77
174 1.77
175 3.03
176 18.59
177 13.37
178 99.99
179 16.61

$$$$

     RDKit          2D

 14 16  0  0  0  0  0  0  0  0999 V2000
    3.0600    2.2000    0.0000 C   0  0  0  0  0  0  0  0  0  0  0  0
   -3.4300   -1.5500    0.0000 C   0  0  0  0  0  0  0  0  0  0  0  0
    1.7600    2.9500    0.0000 C   0  0  0  0  0  0  0  0  0  0  0  0
   -3.4300   -0.0500    0.0000 C   0  0  0  0  0  0  0  0  0  0  0  0
    3.0600    0.7000    0.0000 C   0  0  0  0  0  0  0  0  0  0  0  0
   -2.1300   -2.3000    0.0000 C   0  0  0  0  0  0  0  0  0  0  0  0
    0.4600    2.2000    0.0000 C   0  0  0  0  0  0  0  0  0  0  0  0
   -2.1300    0.7000    0.0000 C   0  0  0  0  0  0  0  0  0  0  0  0
    1.7600   -1.5500    0.0000 C   0  0  0  0  0  0  0  0  0  0  0  0
    0.4600   -2.3000    0.0000 C   0  0  0  0  0  0  0  0  0  0  0  0
    1.7600   -0.0500    0.0000 C   0  0  0  0  0  0  0  0  0  0  0  0
   -0.8300   -1.5500    0.0000 C   0  0  0  0  0  0  0  0  0  0  0  0
    0.4600    0.7000    0.0000 C   0  0  0  0  0  0  0  0  0  0  0  0
   -0.8300   -0.0500    0.0000 C   0  0  0  0  0  0  0  0  0  0  0  0
  3  1  2  0
  4  2  2  0
  5  1  1  0
  6  2  1  0
  7  3  1  0
  8  4  1  0
 10  9  2  0
 11  5  2  0
 11  9  1  0
 12  6  2  0
 12 10  1  0
 13  7  2  0
 13 11  1  0
 14  8  2  0
 14 12  1  0
 14 13  1  0
M  END
>  <NAME>  (6442) 
PHENANTHRENE

>  <SYNONYMS>  (6442) 


>  <SPECTRUM TYPE>  (6442) 
MS1

>  <INSTRUMENT TYPE>  (6442) 
EI-B

>  <INSTRUMENT>  (6442) 
VARIAN MAT-44

>  <ION MODE>  (6442) 
P

>  <INCHIKEY>  (6442) 
YNPNZTXNASCQKK-UHFFFAOYSA-N

>  <FORMULA>  (6442) 
C14H10

>  <EXACT MASS>  (6442) 
178.07825032

>  <MW>  (6442) 
178

>  <ID>  (6442) 
JP001596

>  <CONTRIBUTOR>  (6442) 
University of Tokyo Team, {Faculty of Engineering, University of Tokyo

>  <COMMENT>  (6442) 
SMILES=c(c3)cc(c1)c(c3)c(c2)c(ccc2)c1
cas=85-01-8
InChI=InChI=1S/C14H10/c1-3-7-13-11(5-1)9-10-12-6-2-4-8-14(12)13/h1-10H
computed SMILES=C=1C=CC2=C(C1)C=CC=3C=CC=CC32
accession=JP001596
date=2016.01.19 (Created 2008.10.21, modified 2011.05.06)
author=KOGA M, UNIV. OF OCCUPATIONAL AND ENVIRONMENTAL HEALTH
license=CC BY-NC-SA
exact mass=178.07825
ionization energy=70 eV
ion type=[M]+*
computed spectral entropy=2.446053170622516
computed normalized entropy=0.750761416083733
SPLASH=splash10-004i-8900000000-cde516a2b6fa8d9f3127
submitter=submitter = University of Tokyo Team (Faculty of Engineering, University of Tokyo)
MoNA Rating=3.75

>  <NUM PEAKS>  (6442) 
26

>  <MASS SPECTRAL PEAKS>  (6442) 
44 1.71
50 2.42
51 3
62 3.14
63 12.71
74 3.57
75 14.14
76 46.28
77 2.42
86 1
87 5.71
88 27.71
89 36
98 1
99 1
139 1.28
150 4.14
151 6.42
152 8.14
168 1.14
174 1.71
175 2.57
176 18.42
177 12.14
178 99.99
179 15.14

$$$$

     RDKit          2D

 13 15  0  0  0  0  0  0  0  0999 V2000
   -3.4600    0.2100    0.0000 C   0  0  0  0  0  0  0  0  0  0  0  0
    2.6700    2.2000    0.0000 C   0  0  0  0  0  0  0  0  0  0  0  0
   -3.4600   -1.2900    0.0000 C   0  0  0  0  0  0  0  0  0  0  0  0
    3.5500    0.9900    0.0000 C   0  0  0  0  0  0  0  0  0  0  0  0
   -2.1600    0.9600    0.0000 C   0  0  0  0  0  0  0  0  0  0  0  0
    1.1800    2.0400    0.0000 C   0  0  0  0  0  0  0  0  0  0  0  0
   -2.1600   -2.0400    0.0000 C   0  0  0  0  0  0  0  0  0  0  0  0
    2.9400   -0.3800    0.0000 C   0  0  0  0  0  0  0  0  0  0  0  0
   -0.8600    0.2100    0.0000 C   0  0  0  0  0  0  0  0  0  0  0  0
    0.5700    0.6700    0.0000 C   0  0  0  0  0  0  0  0  0  0  0  0
   -0.8600   -1.2900    0.0000 C   0  0  0  0  0  0  0  0  0  0  0  0
    1.4500   -0.5400    0.0000 C   0  0  0  0  0  0  0  0  0  0  0  0
    0.5700   -1.7500    0.0000 O   0  0  0  0  0  0  0  0  0  0  0  0
  3  1  2  0
  4  2  2  0
  5  1  1  0
  6  2  1  0
  7  3  1  0
  8  4  1  0
  9  5  2  0
 10  6  2  0
 10  9  1  0
 11  7  2  0
 11  9  1  0
 12  8  2  0
 12 10  1  0
 13 11  1  0
 13 12  1  0
M  END
>  <NAME>  (6443) 
DIBENZOFURAN

>  <SYNONYMS>  (6443) 


>  <SPECTRUM TYPE>  (6443) 
MS1

>  <INSTRUMENT TYPE>  (6443) 
EI-B

>  <INSTRUMENT>  (6443) 
VARIAN MAT-44

>  <ION MODE>  (6443) 
P

>  <INCHIKEY>  (6443) 
TXCDCPKCNAJMEE-UHFFFAOYSA-N

>  <FORMULA>  (6443) 
C12H8O

>  <EXACT MASS>  (6443) 
168.057514876

>  <MW>  (6443) 
168

>  <ID>  (6443) 
JP001595

>  <CONTRIBUTOR>  (6443) 
University of Tokyo Team, {Faculty of Engineering, University of Tokyo

>  <COMMENT>  (6443) 
SMILES=c(c3)cc(o1)c(c3)c(c2)c(ccc2)1
cas=132-64-9
InChI=InChI=1S/C12H8O/c1-3-7-11-9(5-1)10-6-2-4-8-12(10)13-11/h1-8H
computed SMILES=O1C=2C=CC=CC2C=3C=CC=CC13
accession=JP001595
date=2016.01.19 (Created 2008.10.21, modified 2011.05.06)
author=KOGA M, UNIV. OF OCCUPATIONAL AND ENVIRONMENTAL HEALTH
license=CC BY-NC-SA
exact mass=168.05751
ionization energy=70 eV
ion type=[M]+*
computed spectral entropy=2.4600544747756814
computed normalized entropy=0.7464126941932356
SPLASH=splash10-014i-6900000000-0c0a9a11bac54cd997e0
submitter=submitter = University of Tokyo Team (Faculty of Engineering, University of Tokyo)
MoNA Rating=3.75

>  <NUM PEAKS>  (6443) 
27

>  <MASS SPECTRAL PEAKS>  (6443) 
50 5.13
51 5.92
53 1.18
61 1.18
62 6.32
63 13.83
64 1.97
65 1.18
69 16.6
70 14.22
74 5.13
75 4.74
84 29.64
86 3.55
87 2.76
88 3.55
89 5.53
90 1.18
113 3.55
114 3.16
138 1.58
139 28.45
140 5.92
167 1.97
168 99.99
169 14.22
170 1.58

$$$$

     RDKit          2D

 13 15  0  0  0  0  0  0  0  0999 V2000
    3.6900    0.1600    0.0000 C   0  0  0  0  0  0  0  0  0  0  0  0
   -3.6800    0.1600    0.0000 C   0  0  0  0  0  0  0  0  0  0  0  0
    3.2200   -1.2700    0.0000 C   0  0  0  0  0  0  0  0  0  0  0  0
   -3.2200   -1.2700    0.0000 C   0  0  0  0  0  0  0  0  0  0  0  0
    2.6800    1.2700    0.0000 C   0  0  0  0  0  0  0  0  0  0  0  0
   -2.6800    1.2700    0.0000 C   0  0  0  0  0  0  0  0  0  0  0  0
    1.7500   -1.5800    0.0000 C   0  0  0  0  0  0  0  0  0  0  0  0
   -1.7500   -1.5800    0.0000 C   0  0  0  0  0  0  0  0  0  0  0  0
   -0.0000    1.8400    0.0000 C   0  0  0  0  0  0  0  0  0  0  0  0
    1.2100    0.9600    0.0000 C   0  0  0  0  0  0  0  0  0  0  0  0
   -1.2100    0.9600    0.0000 C   0  0  0  0  0  0  0  0  0  0  0  0
    0.7500   -0.4700    0.0000 C   0  0  0  0  0  0  0  0  0  0  0  0
   -0.7500   -0.4700    0.0000 C   0  0  0  0  0  0  0  0  0  0  0  0
  3  1  2  0
  4  2  2  0
  5  1  1  0
  6  2  1  0
  7  3  1  0
  8  4  1  0
 10  5  2  0
 10  9  1  0
 11  6  2  0
 11  9  1  0
 12  7  2  0
 12 10  1  0
 13  8  2  0
 13 11  1  0
 13 12  1  0
M  END
>  <NAME>  (6444) 
FLUORENE

>  <SYNONYMS>  (6444) 


>  <SPECTRUM TYPE>  (6444) 
MS1

>  <INSTRUMENT TYPE>  (6444) 
EI-B

>  <INSTRUMENT>  (6444) 
VARIAN MAT-44

>  <ION MODE>  (6444) 
P

>  <INCHIKEY>  (6444) 
NIHNNTQXNPWCJQ-UHFFFAOYSA-N

>  <FORMULA>  (6444) 
C13H10

>  <EXACT MASS>  (6444) 
166.07825032

>  <MW>  (6444) 
166

>  <ID>  (6444) 
JP001594

>  <CONTRIBUTOR>  (6444) 
University of Tokyo Team, {Faculty of Engineering, University of Tokyo

>  <COMMENT>  (6444) 
SMILES=c(c3)cc(C1)c(c3)c(c2)c(ccc2)1
cas=86-73-7
InChI=InChI=1S/C13H10/c1-3-7-12-10(5-1)9-11-6-2-4-8-13(11)12/h1-8H,9H2
computed SMILES=C=1C=CC2=C(C1)C=3C=CC=CC3C2
accession=JP001594
date=2016.01.19 (Created 2008.10.21, modified 2011.05.06)
author=KOGA M, UNIV. OF OCCUPATIONAL AND ENVIRONMENTAL HEALTH
license=CC BY-NC-SA
exact mass=166.07825
ionization energy=70 eV
ion type=[M]+*
computed spectral entropy=2.725860211170256
computed normalized entropy=0.7389398989794325
SPLASH=splash10-0159-7900000000-247b16c4daf5a17a0cc0
submitter=submitter = University of Tokyo Team (Faculty of Engineering, University of Tokyo)
MoNA Rating=3.75

>  <NUM PEAKS>  (6444) 
40

>  <MASS SPECTRAL PEAKS>  (6444) 
43 1.28
44 1.13
50 4.98
51 7.12
52 1.42
55 2.42
56 1.7
57 1.13
61 1.56
62 6.26
63 14.52
64 1.99
65 2.42
68 1.56
69 10.68
70 11.53
74 4.84
75 3.98
76 2.7
77 1.42
81 15.24
82 60.68
83 35.61
86 3.13
87 4.27
88 1.85
89 4.27
98 1.28
113 1.99
115 5.69
137 1.28
138 1.13
139 6.69
162 2.56
163 15.09
164 15.24
165 88.6
166 99.99
167 15.09
168 2.56

$$$$

     RDKit          2D

 12 13  0  0  0  0  0  0  0  0999 V2000
    3.8989    1.5002    0.0000 C   0  0  0  0  0  0  0  0  0  0  0  0
   -3.8989   -1.5002    0.0000 C   0  0  0  0  0  0  0  0  0  0  0  0
    2.6000   -0.7500    0.0000 C   0  0  0  0  0  0  0  0  0  0  0  0
   -2.6000    0.7500    0.0000 C   0  0  0  0  0  0  0  0  0  0  0  0
    1.3000   -1.5000    0.0000 C   0  0  0  0  0  0  0  0  0  0  0  0
   -1.3000    1.5000    0.0000 C   0  0  0  0  0  0  0  0  0  0  0  0
    1.3000    1.5000    0.0000 C   0  0  0  0  0  0  0  0  0  0  0  0
   -1.3000   -1.5000    0.0000 C   0  0  0  0  0  0  0  0  0  0  0  0
    2.6000    0.7500    0.0000 C   0  0  0  0  0  0  0  0  0  0  0  0
   -2.6000   -0.7500    0.0000 C   0  0  0  0  0  0  0  0  0  0  0  0
    0.0000    0.7500    0.0000 C   0  0  0  0  0  0  0  0  0  0  0  0
    0.0000   -0.7500    0.0000 C   0  0  0  0  0  0  0  0  0  0  0  0
  5  3  2  0
  6  4  1  0
  9  1  1  0
  9  3  1  0
  9  7  2  0
 10  2  1  0
 10  4  2  0
 10  8  1  0
 11  6  2  0
 11  7  1  0
 12  5  1  0
 12  8  2  0
 12 11  1  0
M  END
>  <NAME>  (6445) 
2,6-DIMETHYLNAPHTHALENE

>  <SYNONYMS>  (6445) 


>  <SPECTRUM TYPE>  (6445) 
MS1

>  <INSTRUMENT TYPE>  (6445) 
EI-B

>  <INSTRUMENT>  (6445) 
VARIAN MAT-44

>  <ION MODE>  (6445) 
P

>  <INCHIKEY>  (6445) 
YGYNBBAUIYTWBF-UHFFFAOYSA-N

>  <FORMULA>  (6445) 
C12H12

>  <EXACT MASS>  (6445) 
156.093900384

>  <MW>  (6445) 
156

>  <ID>  (6445) 
JP001593

>  <CONTRIBUTOR>  (6445) 
University of Tokyo Team, {Faculty of Engineering, University of Tokyo

>  <COMMENT>  (6445) 
SMILES=Cc(c2)cc(c1)c(c2)cc(C)c1
cas=581-42-0
InChI=InChI=1S/C12H12/c1-9-3-5-12-8-10(2)4-6-11(12)7-9/h3-8H,1-2H3
computed SMILES=C=1C=C(C=C2C=CC(=CC12)C)C
accession=JP001593
date=2016.01.19 (Created 2008.10.21, modified 2011.05.06)
author=KOGA M, UNIV. OF OCCUPATIONAL AND ENVIRONMENTAL HEALTH
license=CC BY-NC-SA
exact mass=156.0939
ionization energy=70 eV
ion type=[M]+*
computed spectral entropy=2.9853420349913553
computed normalized entropy=0.809281537151349
SPLASH=splash10-0a6r-6900000000-bd5a0ebc7638e9444780
submitter=submitter = University of Tokyo Team (Faculty of Engineering, University of Tokyo)
MoNA Rating=3.75

>  <NUM PEAKS>  (6445) 
40

>  <MASS SPECTRAL PEAKS>  (6445) 
43 1.04
50 7
51 26.67
52 2.98
53 1.49
57 2.08
58 2.98
62 5.06
63 25.03
64 23.69
65 4.76
69 1.63
70 3.72
71 2.53
74 3.87
75 7.45
76 33.08
77 37.55
78 13.85
86 1.19
87 1.78
89 3.42
102 1.78
115 13.85
116 1.34
126 1.63
127 5.81
128 10.13
129 4.91
139 6.7
140 3.42
141 64.67
142 7.74
151 2.98
152 9.68
153 10.73
154 5.36
155 35.91
156 99.99
157 13.11

$$$$

     RDKit          2D

 12 13  0  0  0  0  0  0  0  0999 V2000
    3.8989   -1.5002    0.0000 C   0  0  0  0  0  0  0  0  0  0  0  0
    3.8989    1.5002    0.0000 C   0  0  0  0  0  0  0  0  0  0  0  0
   -2.6000   -0.7500    0.0000 C   0  0  0  0  0  0  0  0  0  0  0  0
   -2.6000    0.7500    0.0000 C   0  0  0  0  0  0  0  0  0  0  0  0
   -1.3000   -1.5000    0.0000 C   0  0  0  0  0  0  0  0  0  0  0  0
   -1.3000    1.5000    0.0000 C   0  0  0  0  0  0  0  0  0  0  0  0
    1.3000   -1.5000    0.0000 C   0  0  0  0  0  0  0  0  0  0  0  0
    1.3000    1.5000    0.0000 C   0  0  0  0  0  0  0  0  0  0  0  0
    2.6000   -0.7500    0.0000 C   0  0  0  0  0  0  0  0  0  0  0  0
    2.6000    0.7500    0.0000 C   0  0  0  0  0  0  0  0  0  0  0  0
    0.0000   -0.7500    0.0000 C   0  0  0  0  0  0  0  0  0  0  0  0
    0.0000    0.7500    0.0000 C   0  0  0  0  0  0  0  0  0  0  0  0
  4  3  2  0
  5  3  1  0
  6  4  1  0
  9  1  1  0
  9  7  2  0
 10  2  1  0
 10  8  2  0
 10  9  1  0
 11  5  2  0
 11  7  1  0
 12  6  2  0
 12  8  1  0
 12 11  1  0
M  END
>  <NAME>  (6446) 
2,3-DIMETHYLNAPHTHALENE

>  <SYNONYMS>  (6446) 


>  <SPECTRUM TYPE>  (6446) 
MS1

>  <INSTRUMENT TYPE>  (6446) 
EI-B

>  <INSTRUMENT>  (6446) 
VARIAN MAT-44

>  <ION MODE>  (6446) 
P

>  <INCHIKEY>  (6446) 
WWGUMAYGTYQSGA-UHFFFAOYSA-N

>  <FORMULA>  (6446) 
C12H12

>  <EXACT MASS>  (6446) 
156.093900384

>  <MW>  (6446) 
156

>  <ID>  (6446) 
JP001592

>  <CONTRIBUTOR>  (6446) 
University of Tokyo Team, {Faculty of Engineering, University of Tokyo

>  <COMMENT>  (6446) 
SMILES=Cc(c1)c(C)cc(c2)c(ccc2)1
cas=581-40-8
InChI=InChI=1S/C12H12/c1-9-7-11-5-3-4-6-12(11)8-10(9)2/h3-8H,1-2H3
computed SMILES=C=1C=CC=2C=C(C(=CC2C1)C)C
accession=JP001592
date=2016.01.19 (Created 2008.10.21, modified 2011.05.06)
author=KOGA M, UNIV. OF OCCUPATIONAL AND ENVIRONMENTAL HEALTH
license=CC BY-NC-SA
exact mass=156.0939
ionization energy=70 eV
ion type=[M]+*
computed spectral entropy=3.2141223591562373
computed normalized entropy=0.8348049715623037
SPLASH=splash10-0a6u-6900000000-7eab7a960bf2588f7c6f
submitter=submitter = University of Tokyo Team (Faculty of Engineering, University of Tokyo)
MoNA Rating=3.75

>  <NUM PEAKS>  (6446) 
47

>  <MASS SPECTRAL PEAKS>  (6446) 
41 1.91
50 13.78
51 34.2
52 5.41
53 2.61
57 2.61
58 4.01
61 1.91
62 10.64
63 33.68
64 18.84
65 7.15
69 2.26
70 5.93
71 2.44
74 8.37
75 11.86
76 31.23
77 24.08
78 13.78
86 2.79
87 4.18
88 1.57
89 6.45
91 1.22
98 1.04
101 1.04
102 3.49
113 1.74
114 1.74
115 30.36
116 3.14
126 2.61
127 8.55
128 16.23
129 6.98
139 7.85
140 5.41
141 71.43
142 12.73
151 3.14
152 10.47
153 10.64
154 5.23
155 26.52
156 99.99
157 13.78

$$$$

     RDKit          2D

 12 13  0  0  0  0  0  0  0  0999 V2000
    3.8989    1.5002    0.0000 C   0  0  0  0  0  0  0  0  0  0  0  0
   -1.3000    3.0000    0.0000 C   0  0  0  0  0  0  0  0  0  0  0  0
   -2.6000   -0.7500    0.0000 C   0  0  0  0  0  0  0  0  0  0  0  0
   -2.6000    0.7500    0.0000 C   0  0  0  0  0  0  0  0  0  0  0  0
   -1.3000   -1.5000    0.0000 C   0  0  0  0  0  0  0  0  0  0  0  0
    2.6000   -0.7500    0.0000 C   0  0  0  0  0  0  0  0  0  0  0  0
    1.3000   -1.5000    0.0000 C   0  0  0  0  0  0  0  0  0  0  0  0
    1.3000    1.5000    0.0000 C   0  0  0  0  0  0  0  0  0  0  0  0
    2.6000    0.7500    0.0000 C   0  0  0  0  0  0  0  0  0  0  0  0
   -1.3000    1.5000    0.0000 C   0  0  0  0  0  0  0  0  0  0  0  0
    0.0000   -0.7500    0.0000 C   0  0  0  0  0  0  0  0  0  0  0  0
    0.0000    0.7500    0.0000 C   0  0  0  0  0  0  0  0  0  0  0  0
  4  3  2  0
  5  3  1  0
  7  6  2  0
  9  1  1  0
  9  6  1  0
  9  8  2  0
 10  2  1  0
 10  4  1  0
 11  5  2  0
 11  7  1  0
 12  8  1  0
 12 10  2  0
 12 11  1  0
M  END
>  <NAME>  (6447) 
1,7-DIMETHYLNAPHTHALENE

>  <SYNONYMS>  (6447) 


>  <SPECTRUM TYPE>  (6447) 
MS1

>  <INSTRUMENT TYPE>  (6447) 
EI-B

>  <INSTRUMENT>  (6447) 
VARIAN MAT-44

>  <ION MODE>  (6447) 
P

>  <INCHIKEY>  (6447) 
SPUWFVKLHHEKGV-UHFFFAOYSA-N

>  <FORMULA>  (6447) 
C12H12

>  <EXACT MASS>  (6447) 
156.093900384

>  <MW>  (6447) 
156

>  <ID>  (6447) 
JP001591

>  <CONTRIBUTOR>  (6447) 
University of Tokyo Team, {Faculty of Engineering, University of Tokyo

>  <COMMENT>  (6447) 
SMILES=Cc(c1)cc(c(C)2)c(ccc2)c1
cas=575-37-1
InChI=InChI=1S/C12H12/c1-9-6-7-11-5-3-4-10(2)12(11)8-9/h3-8H,1-2H3
computed SMILES=C1=CC2=CC=C(C=C2C(=C1)C)C
accession=JP001591
date=2016.01.19 (Created 2008.10.21, modified 2011.05.06)
author=KOGA M, UNIV. OF OCCUPATIONAL AND ENVIRONMENTAL HEALTH
license=CC BY-NC-SA
exact mass=156.0939
ionization energy=70 eV
ion type=[M]+*
computed spectral entropy=3.1938309632954804
computed normalized entropy=0.8006627567353491
SPLASH=splash10-0bvo-7900000000-74d647e492c61f373c1f
submitter=submitter = University of Tokyo Team (Faculty of Engineering, University of Tokyo)
MoNA Rating=3.75

>  <NUM PEAKS>  (6447) 
54

>  <MASS SPECTRAL PEAKS>  (6447) 
45 3.53
50 7.57
51 24.74
52 4.04
53 3.53
55 4.54
56 2.52
59 4.04
60 1.01
61 1.51
62 4.54
63 29.29
64 21.21
65 5.55
67 1.01
69 4.54
70 7.57
71 12.12
74 4.04
75 8.08
76 38.88
77 35.85
78 14.64
79 1.01
83 1.01
85 2.02
86 1.51
87 2.52
88 1.01
89 5.05
91 1.51
101 1.51
102 2.02
103 1.01
113 1.51
114 1.01
115 24.74
116 2.52
126 2.52
127 6.06
128 10.6
129 5.05
139 5.55
140 1.51
141 99.99
142 11.61
150 1.01
151 3.03
152 11.11
153 12.12
154 4.04
155 20.2
156 79.79
157 10.1

$$$$

     RDKit          2D

 12 13  0  0  0  0  0  0  0  0999 V2000
    3.8989    1.5002    0.0000 C   0  0  0  0  0  0  0  0  0  0  0  0
    1.3000    3.0000    0.0000 C   0  0  0  0  0  0  0  0  0  0  0  0
   -2.6000   -0.7500    0.0000 C   0  0  0  0  0  0  0  0  0  0  0  0
   -2.6000    0.7500    0.0000 C   0  0  0  0  0  0  0  0  0  0  0  0
   -1.3000   -1.5000    0.0000 C   0  0  0  0  0  0  0  0  0  0  0  0
   -1.3000    1.5000    0.0000 C   0  0  0  0  0  0  0  0  0  0  0  0
    2.6000   -0.7500    0.0000 C   0  0  0  0  0  0  0  0  0  0  0  0
    1.3000   -1.5000    0.0000 C   0  0  0  0  0  0  0  0  0  0  0  0
    2.6000    0.7500    0.0000 C   0  0  0  0  0  0  0  0  0  0  0  0
    1.3000    1.5000    0.0000 C   0  0  0  0  0  0  0  0  0  0  0  0
    0.0000   -0.7500    0.0000 C   0  0  0  0  0  0  0  0  0  0  0  0
    0.0000    0.7500    0.0000 C   0  0  0  0  0  0  0  0  0  0  0  0
  4  3  2  0
  5  3  1  0
  6  4  1  0
  8  7  2  0
  9  1  1  0
  9  7  1  0
 10  2  1  0
 10  9  2  0
 11  5  2  0
 11  8  1  0
 12  6  2  0
 12 10  1  0
 12 11  1  0
M  END
>  <NAME>  (6448) 
1,2-DIMETHYLNAPHTHALENE

>  <SYNONYMS>  (6448) 


>  <SPECTRUM TYPE>  (6448) 
MS1

>  <INSTRUMENT TYPE>  (6448) 
EI-B

>  <INSTRUMENT>  (6448) 
VARIAN MAT-44

>  <ION MODE>  (6448) 
P

>  <INCHIKEY>  (6448) 
QNLZIZAQLLYXTC-UHFFFAOYSA-N

>  <FORMULA>  (6448) 
C12H12

>  <EXACT MASS>  (6448) 
156.093900384

>  <MW>  (6448) 
156

>  <ID>  (6448) 
JP001590

>  <CONTRIBUTOR>  (6448) 
University of Tokyo Team, {Faculty of Engineering, University of Tokyo

>  <COMMENT>  (6448) 
SMILES=Cc(c1)c(C)c(c2)c(ccc2)c1
cas=573-98-8
InChI=InChI=1S/C12H12/c1-9-7-8-11-5-3-4-6-12(11)10(9)2/h3-8H,1-2H3
computed SMILES=C=1C=CC2=C(C1)C=CC(=C2C)C
accession=JP001590
date=2016.01.19 (Created 2008.10.21, modified 2011.05.06)
author=KOGA M, UNIV. OF OCCUPATIONAL AND ENVIRONMENTAL HEALTH
license=CC BY-NC-SA
exact mass=156.0939
ionization energy=70 eV
ion type=[M]+*
computed spectral entropy=3.2924782940115076
computed normalized entropy=0.8416306063238927
SPLASH=splash10-0pdl-7900000000-a3e1e81ae1e81ac63c5d
submitter=submitter = University of Tokyo Team (Faculty of Engineering, University of Tokyo)
MoNA Rating=3.75

>  <NUM PEAKS>  (6448) 
50

>  <MASS SPECTRAL PEAKS>  (6448) 
41 2.64
49 1.32
50 22.6
51 43.56
52 8.58
53 3.79
57 3.46
58 4.95
61 3.46
62 14.19
63 38.44
64 16.5
65 7.59
69 2.31
70 6.43
71 5.11
74 11.88
75 14.19
76 26.73
77 27.22
78 12.21
86 3.79
87 5.61
88 2.31
89 7.92
91 1.81
98 1.98
99 1.15
101 1.98
102 4.95
113 2.31
114 2.97
115 33.82
116 3.96
126 3.63
127 9.73
128 18.48
129 7.09
139 7.59
140 7.75
141 99.99
142 14.19
143 1.15
151 3.63
152 10.23
153 10.72
154 6.43
155 23.43
156 89.43
157 13.2

$$$$

     RDKit          2D

 12 14  0  0  0  0  0  0  0  0999 V2000
   -2.6000   -1.2500    0.0000 C   0  0  0  0  0  0  0  0  0  0  0  0
    2.6000   -1.2500    0.0000 C   0  0  0  0  0  0  0  0  0  0  0  0
   -1.3000   -2.0000    0.0000 C   0  0  0  0  0  0  0  0  0  0  0  0
    1.3000   -2.0000    0.0000 C   0  0  0  0  0  0  0  0  0  0  0  0
   -2.6000    0.2500    0.0000 C   0  0  0  0  0  0  0  0  0  0  0  0
    2.6000    0.2500    0.0000 C   0  0  0  0  0  0  0  0  0  0  0  0
   -1.3000    2.5000    0.0000 C   0  0  0  0  0  0  0  0  0  0  0  0
    1.3000    2.5000    0.0000 C   0  0  0  0  0  0  0  0  0  0  0  0
    0.0000   -1.2500    0.0000 C   0  0  0  0  0  0  0  0  0  0  0  0
   -1.3000    1.0000    0.0000 C   0  0  0  0  0  0  0  0  0  0  0  0
    1.3000    1.0000    0.0000 C   0  0  0  0  0  0  0  0  0  0  0  0
    0.0000    0.2500    0.0000 C   0  0  0  0  0  0  0  0  0  0  0  0
  3  1  2  0
  4  2  1  0
  5  1  1  0
  6  2  2  0
  8  7  1  0
  9  3  1  0
  9  4  2  0
 10  5  2  0
 10  7  1  0
 11  6  1  0
 11  8  1  0
 12  9  1  0
 12 10  1  0
 12 11  2  0
M  END
>  <NAME>  (6449) 
ACENAPHTHENE

>  <SYNONYMS>  (6449) 
1,2-DIHYDROACENAPHTHYLENE

>  <SPECTRUM TYPE>  (6449) 
MS1

>  <INSTRUMENT TYPE>  (6449) 
EI-B

>  <INSTRUMENT>  (6449) 
VARIAN MAT-44

>  <ION MODE>  (6449) 
P

>  <INCHIKEY>  (6449) 
CWRYPZZKDGJXCA-UHFFFAOYSA-N

>  <FORMULA>  (6449) 
C12H10

>  <EXACT MASS>  (6449) 
154.07825032

>  <MW>  (6449) 
154

>  <ID>  (6449) 
JP001589

>  <CONTRIBUTOR>  (6449) 
University of Tokyo Team, {Faculty of Engineering, University of Tokyo

>  <COMMENT>  (6449) 
SMILES=c(c3)cc(C1)c(c32)c(ccc2)C1
cas=83-32-9
InChI=InChI=1S/C12H10/c1-3-9-4-2-6-11-8-7-10(5-1)12(9)11/h1-6H,7-8H2
computed SMILES=C=1C=C2C=CC=C3C2=C(C1)CC3
accession=JP001589
date=2016.01.19 (Created 2008.10.21, modified 2011.05.06)
author=KOGA M, UNIV. OF OCCUPATIONAL AND ENVIRONMENTAL HEALTH
license=CC BY-NC-SA
exact mass=154.07825
ionization energy=70 eV
ion type=[M]+*
computed spectral entropy=2.603630707520604
computed normalized entropy=0.7446375166506456
SPLASH=splash10-0udi-4900000000-c935620a466205270abe
submitter=submitter = University of Tokyo Team (Faculty of Engineering, University of Tokyo)
MoNA Rating=3.75

>  <NUM PEAKS>  (6449) 
33

>  <MASS SPECTRAL PEAKS>  (6449) 
50 8.27
51 10.58
52 1.69
61 2.16
62 7.18
63 17.33
64 7.18
73 1.47
74 8.18
75 19.76
76 46.22
77 16.49
78 1.31
86 2.62
87 3.41
89 1.28
98 2.8
99 2
100 1.15
101 1.94
102 2.11
115 1.15
125 2.08
126 5.19
127 3.26
128 1.36
149 2.72
150 11.43
151 27.26
152 65.67
153 92.28
154 99.99
155 10.33

$$$$

     RDKit          2D

 12 13  0  0  0  0  0  0  0  0999 V2000
    3.2476   -0.0550    0.0000 C   0  0  0  0  0  0  0  0  0  0  0  0
   -3.2476    3.6950    0.0000 C   0  0  0  0  0  0  0  0  0  0  0  0
    3.2481    1.4458    0.0000 C   0  0  0  0  0  0  0  0  0  0  0  0
    1.9481   -0.8058    0.0000 C   0  0  0  0  0  0  0  0  0  0  0  0
   -3.2481    2.1942    0.0000 C   0  0  0  0  0  0  0  0  0  0  0  0
   -1.9481    4.4458    0.0000 C   0  0  0  0  0  0  0  0  0  0  0  0
    1.9490    2.1958    0.0000 C   0  0  0  0  0  0  0  0  0  0  0  0
    0.6490   -0.0558    0.0000 C   0  0  0  0  0  0  0  0  0  0  0  0
   -1.9490    1.4442    0.0000 C   0  0  0  0  0  0  0  0  0  0  0  0
   -0.6490    3.6958    0.0000 C   0  0  0  0  0  0  0  0  0  0  0  0
    0.6495    1.4450    0.0000 C   0  0  0  0  0  0  0  0  0  0  0  0
   -0.6495    2.1950    0.0000 C   0  0  0  0  0  0  0  0  0  0  0  0
  3  1  2  0
  4  1  1  0
  5  2  2  0
  6  2  1  0
  7  3  1  0
  8  4  2  0
  9  5  1  0
 10  6  2  0
 11  7  2  0
 11  8  1  0
 12  9  2  0
 12 10  1  0
 12 11  1  0
M  END
>  <NAME>  (6450) 
DIPHENYL

>  <SYNONYMS>  (6450) 


>  <SPECTRUM TYPE>  (6450) 
MS1

>  <INSTRUMENT TYPE>  (6450) 
EI-B

>  <INSTRUMENT>  (6450) 
VARIAN MAT-44

>  <ION MODE>  (6450) 
P

>  <INCHIKEY>  (6450) 
ZUOUZKKEUPVFJK-UHFFFAOYSA-N

>  <FORMULA>  (6450) 
C12H10

>  <EXACT MASS>  (6450) 
154.07825032

>  <MW>  (6450) 
154

>  <ID>  (6450) 
JP001588

>  <CONTRIBUTOR>  (6450) 
University of Tokyo Team, {Faculty of Engineering, University of Tokyo

>  <COMMENT>  (6450) 
SMILES=c(c2)ccc(c2)c(c1)cccc1
cas=92-52-4
InChI=InChI=1S/C12H10/c1-3-7-11(8-4-1)12-9-5-2-6-10-12/h1-10H
computed SMILES=C=1C=CC(=CC1)C=2C=CC=CC2
accession=JP001588
date=2016.01.19 (Created 2008.10.21, modified 2011.05.06)
author=KOGA M, UNIV. OF OCCUPATIONAL AND ENVIRONMENTAL HEALTH
license=CC BY-NC-SA
exact mass=154.07825
ionization energy=70 eV
ion type=[M]+*
computed spectral entropy=3.2021290691243047
computed normalized entropy=0.7886156906542545
SPLASH=splash10-0udi-8900000000-e5b4f289ac40ae7f058d
submitter=submitter = University of Tokyo Team (Faculty of Engineering, University of Tokyo)
MoNA Rating=3.75

>  <NUM PEAKS>  (6450) 
58

>  <MASS SPECTRAL PEAKS>  (6450) 
40 1.28
41 5.94
42 1.84
43 10.41
44 2.82
45 2.82
50 8.82
51 16.76
52 3.48
55 5.48
56 2.46
57 5.89
58 1.17
60 4
61 1.84
62 4
63 14.35
64 11.53
65 2.66
67 1.28
68 1.02
69 4.56
70 1.84
71 2.82
73 4.51
74 5.69
75 9.89
76 40.35
77 15.74
78 2.35
81 1.33
83 2.05
84 1.17
85 1.74
86 1.53
87 2.71
88 1.12
89 2.97
97 1.58
98 1.94
99 1.33
101 2
102 4.35
113 1.23
115 5.79
125 1.02
126 3.69
127 3.74
128 4.82
129 1.43
139 1.84
149 1.74
150 3.38
151 10.41
152 30.56
153 47.58
154 99.99
155 13.23

$$$$

     RDKit          2D

 12 14  0  0  0  0  0  0  0  0999 V2000
   -2.6000   -1.2500    0.0000 C   0  0  0  0  0  0  0  0  0  0  0  0
    2.6000   -1.2500    0.0000 C   0  0  0  0  0  0  0  0  0  0  0  0
   -1.3000   -2.0000    0.0000 C   0  0  0  0  0  0  0  0  0  0  0  0
    1.3000   -2.0000    0.0000 C   0  0  0  0  0  0  0  0  0  0  0  0
   -2.6000    0.2500    0.0000 C   0  0  0  0  0  0  0  0  0  0  0  0
    2.6000    0.2500    0.0000 C   0  0  0  0  0  0  0  0  0  0  0  0
   -1.3000    2.5000    0.0000 C   0  0  0  0  0  0  0  0  0  0  0  0
    1.3000    2.5000    0.0000 C   0  0  0  0  0  0  0  0  0  0  0  0
    0.0000   -1.2500    0.0000 C   0  0  0  0  0  0  0  0  0  0  0  0
   -1.3000    1.0000    0.0000 C   0  0  0  0  0  0  0  0  0  0  0  0
    1.3000    1.0000    0.0000 C   0  0  0  0  0  0  0  0  0  0  0  0
    0.0000    0.2500    0.0000 C   0  0  0  0  0  0  0  0  0  0  0  0
  3  1  2  0
  4  2  1  0
  5  1  1  0
  6  2  2  0
  8  7  2  0
  9  3  1  0
  9  4  2  0
 10  5  2  0
 10  7  1  0
 11  6  1  0
 11  8  1  0
 12  9  1  0
 12 10  1  0
 12 11  2  0
M  END
>  <NAME>  (6451) 
ACENAPHTHYLENE

>  <SYNONYMS>  (6451) 


>  <SPECTRUM TYPE>  (6451) 
MS1

>  <INSTRUMENT TYPE>  (6451) 
EI-B

>  <INSTRUMENT>  (6451) 
VARIAN MAT-44

>  <ION MODE>  (6451) 
P

>  <INCHIKEY>  (6451) 
HXGDTGSAIMULJN-UHFFFAOYSA-N

>  <FORMULA>  (6451) 
C12H8

>  <EXACT MASS>  (6451) 
152.062600256

>  <MW>  (6451) 
152

>  <ID>  (6451) 
JP001587

>  <CONTRIBUTOR>  (6451) 
University of Tokyo Team, {Faculty of Engineering, University of Tokyo

>  <COMMENT>  (6451) 
SMILES=c(c3)cc(C=1)c(c32)c(ccc2)C1
cas=208-96-8
InChI=InChI=1S/C12H8/c1-3-9-4-2-6-11-8-7-10(5-1)12(9)11/h1-8H
computed SMILES=C=1C=C2C=CC=C3C=CC(C1)=C23
accession=JP001587
date=2016.01.19 (Created 2008.10.21, modified 2011.05.06)
author=KOGA M, UNIV. OF OCCUPATIONAL AND ENVIRONMENTAL HEALTH
license=CC BY-NC-SA
exact mass=152.0626
ionization energy=70 eV
ion type=[M]+*
computed spectral entropy=2.4587393958783976
computed normalized entropy=0.7160013271648267
SPLASH=splash10-0udi-3900000000-0917b523bb70decb286a
submitter=submitter = University of Tokyo Team (Faculty of Engineering, University of Tokyo)
MoNA Rating=3.75

>  <NUM PEAKS>  (6451) 
31

>  <MASS SPECTRAL PEAKS>  (6451) 
43 2.62
49 1.56
50 4.89
51 3.51
61 2.93
62 9.73
63 10.64
73 2.66
74 9.5
75 22.61
76 20.91
77 1.84
85 1.14
86 2.3
87 1.94
97 1.24
98 3.24
99 2.44
100 1.45
101 1.3
102 1.24
124 1.14
125 3.37
126 3.65
141 1.2
149 10.62
150 25.71
151 78.43
152 99.99
153 17.24
154 3.44

$$$$

     RDKit          2D

 11 12  0  0  0  0  0  0  0  0999 V2000
    3.5389    1.3602    0.0000 C   0  0  0  0  0  0  0  0  0  0  0  0
   -2.9500   -0.8900    0.0000 C   0  0  0  0  0  0  0  0  0  0  0  0
   -2.9500    0.6100    0.0000 C   0  0  0  0  0  0  0  0  0  0  0  0
   -1.6500   -1.6400    0.0000 C   0  0  0  0  0  0  0  0  0  0  0  0
   -1.6500    1.3600    0.0000 C   0  0  0  0  0  0  0  0  0  0  0  0
    2.2400   -0.8900    0.0000 C   0  0  0  0  0  0  0  0  0  0  0  0
    0.9400   -1.6400    0.0000 C   0  0  0  0  0  0  0  0  0  0  0  0
    0.9400    1.3600    0.0000 C   0  0  0  0  0  0  0  0  0  0  0  0
    2.2400    0.6100    0.0000 C   0  0  0  0  0  0  0  0  0  0  0  0
   -0.3500   -0.8900    0.0000 C   0  0  0  0  0  0  0  0  0  0  0  0
   -0.3500    0.6100    0.0000 C   0  0  0  0  0  0  0  0  0  0  0  0
  3  2  2  0
  4  2  1  0
  5  3  1  0
  7  6  2  0
  9  1  1  0
  9  6  1  0
  9  8  2  0
 10  4  2  0
 10  7  1  0
 11  5  2  0
 11  8  1  0
 11 10  1  0
M  END
>  <NAME>  (6452) 
2-METHYLNAPHTHALENE

>  <SYNONYMS>  (6452) 


>  <SPECTRUM TYPE>  (6452) 
MS1

>  <INSTRUMENT TYPE>  (6452) 
EI-B

>  <INSTRUMENT>  (6452) 
VARIAN MAT-44

>  <ION MODE>  (6452) 
P

>  <INCHIKEY>  (6452) 
QIMMUPPBPVKWKM-UHFFFAOYSA-N

>  <FORMULA>  (6452) 
C11H10

>  <EXACT MASS>  (6452) 
142.07825032

>  <MW>  (6452) 
142

>  <ID>  (6452) 
JP001586

>  <CONTRIBUTOR>  (6452) 
University of Tokyo Team, {Faculty of Engineering, University of Tokyo

>  <COMMENT>  (6452) 
SMILES=Cc(c1)cc(c2)c(ccc2)c1
cas=91-57-6
InChI=InChI=1S/C11H10/c1-9-6-7-10-4-2-3-5-11(10)8-9/h2-8H,1H3
computed SMILES=C=1C=CC=2C=C(C=CC2C1)C
accession=JP001586
date=2016.01.19 (Created 2008.10.21, modified 2011.05.06)
author=KOGA M, UNIV. OF OCCUPATIONAL AND ENVIRONMENTAL HEALTH
license=CC BY-NC-SA
exact mass=142.07825
ionization energy=70 eV
ion type=[M]+*
computed spectral entropy=3.263677564006581
computed normalized entropy=0.7761988472011808
SPLASH=splash10-0006-9800000000-1ae0df46161af462c53d
submitter=submitter = University of Tokyo Team (Faculty of Engineering, University of Tokyo)
MoNA Rating=3.75

>  <NUM PEAKS>  (6452) 
67

>  <MASS SPECTRAL PEAKS>  (6452) 
40 8.25
41 9.59
42 14.06
43 55.13
44 13.39
45 4.46
50 4.24
51 5.35
52 1.11
54 1.56
55 8.25
56 5.35
57 21.42
58 18.75
59 3.79
60 3.12
61 2
62 4.01
63 7.58
64 1.56
65 3.34
67 1.78
68 2.45
69 15.17
70 18.75
71 19.41
72 1.33
73 3.12
74 3.12
75 3.12
76 2.67
77 3.57
81 2.45
82 1.56
83 3.34
84 1.56
85 2.23
86 1.33
87 2.67
88 2.23
89 5.35
91 3.57
95 1.11
96 1.11
97 2.9
98 1.78
99 1.78
101 1.56
102 1.11
105 1.33
111 1.11
113 2.45
114 4.24
115 27.67
116 3.12
121 2
126 1.33
127 1.11
128 1.56
129 2.23
135 1.33
138 1.78
139 10.04
140 10.93
141 95.31
142 99.99
143 11.83

$$$$

     RDKit          2D

 11 12  0  0  0  0  0  0  0  0999 V2000
    1.1800    2.7300    0.0000 C   0  0  0  0  0  0  0  0  0  0  0  0
   -2.7200   -1.0200    0.0000 C   0  0  0  0  0  0  0  0  0  0  0  0
   -2.7200    0.4800    0.0000 C   0  0  0  0  0  0  0  0  0  0  0  0
    2.4800   -1.0200    0.0000 C   0  0  0  0  0  0  0  0  0  0  0  0
    2.4800    0.4800    0.0000 C   0  0  0  0  0  0  0  0  0  0  0  0
   -1.4200   -1.7700    0.0000 C   0  0  0  0  0  0  0  0  0  0  0  0
    1.1800   -1.7700    0.0000 C   0  0  0  0  0  0  0  0  0  0  0  0
   -1.4200    1.2300    0.0000 C   0  0  0  0  0  0  0  0  0  0  0  0
    1.1800    1.2300    0.0000 C   0  0  0  0  0  0  0  0  0  0  0  0
   -0.1200   -1.0200    0.0000 C   0  0  0  0  0  0  0  0  0  0  0  0
   -0.1200    0.4800    0.0000 C   0  0  0  0  0  0  0  0  0  0  0  0
  3  2  2  0
  5  4  1  0
  6  2  1  0
  7  4  2  0
  8  3  1  0
  9  1  1  0
  9  5  2  0
 10  6  2  0
 10  7  1  0
 11  8  2  0
 11  9  1  0
 11 10  1  0
M  END
>  <NAME>  (6453) 
1-METHYLNAPHTHALENE

>  <SYNONYMS>  (6453) 


>  <SPECTRUM TYPE>  (6453) 
MS1

>  <INSTRUMENT TYPE>  (6453) 
EI-B

>  <INSTRUMENT>  (6453) 
VARIAN MAT-44

>  <ION MODE>  (6453) 
P

>  <INCHIKEY>  (6453) 
QPUYECUOLPXSFR-UHFFFAOYSA-N

>  <FORMULA>  (6453) 
C11H10

>  <EXACT MASS>  (6453) 
142.07825032

>  <MW>  (6453) 
142

>  <ID>  (6453) 
JP001585

>  <CONTRIBUTOR>  (6453) 
University of Tokyo Team, {Faculty of Engineering, University of Tokyo

>  <COMMENT>  (6453) 
SMILES=Cc(c1)c(c2)c(ccc2)cc1
cas=90-12-0
InChI=InChI=1S/C11H10/c1-9-5-4-7-10-6-2-3-8-11(9)10/h2-8H,1H3
computed SMILES=C=1C=CC2=C(C1)C=CC=C2C
accession=JP001585
date=2016.01.19 (Created 2008.10.21, modified 2011.05.06)
author=KOGA M, UNIV. OF OCCUPATIONAL AND ENVIRONMENTAL HEALTH
license=CC BY-NC-SA
exact mass=142.07825
ionization energy=70 eV
ion type=[M]+*
computed spectral entropy=2.888841566387097
computed normalized entropy=0.7680637768603271
SPLASH=splash10-0006-5900000000-1053593aad42a77aa98b
submitter=submitter = University of Tokyo Team (Faculty of Engineering, University of Tokyo)
MoNA Rating=3.75

>  <NUM PEAKS>  (6453) 
43

>  <MASS SPECTRAL PEAKS>  (6453) 
40 5.17
41 1.36
42 4.19
43 15.51
44 6.04
49 1.07
50 5.07
51 5.75
52 1.17
56 1.26
57 14.34
58 10.63
61 1.75
62 5.46
63 8.39
64 2.14
65 3.6
68 1.17
69 12.78
70 18.73
71 15.9
74 3.6
75 3.41
76 2.63
77 2.43
86 1.85
87 2.43
88 2.63
89 5.75
90 1.56
91 5.85
102 1.26
113 2.43
114 6.63
115 36.39
116 4
126 1.36
138 2.53
139 10.24
140 17.36
141 92.1
142 99.99
143 12

$$$$

     RDKit          2D

 10 11  0  0  0  0  0  0  0  0999 V2000
   -2.7100   -0.0000    0.0000 C   0  0  0  0  0  0  0  0  0  0  0  0
   -2.0600    1.3500    0.0000 C   0  0  0  0  0  0  0  0  0  0  0  0
   -2.0600   -1.3500    0.0000 C   0  0  0  0  0  0  0  0  0  0  0  0
    2.8800   -0.0000    0.0000 C   0  0  0  0  0  0  0  0  0  0  0  0
   -0.6000    1.6900    0.0000 C   0  0  0  0  0  0  0  0  0  0  0  0
   -0.6000   -1.6900    0.0000 C   0  0  0  0  0  0  0  0  0  0  0  0
    2.0000    1.2100    0.0000 C   0  0  0  0  0  0  0  0  0  0  0  0
    2.0000   -1.2100    0.0000 C   0  0  0  0  0  0  0  0  0  0  0  0
    0.5700    0.7500    0.0000 C   0  0  0  0  0  0  0  0  0  0  0  0
    0.5700   -0.7500    0.0000 C   0  0  0  0  0  0  0  0  0  0  0  0
  2  1  2  0
  3  1  1  0
  5  2  1  0
  6  3  2  0
  7  4  2  0
  8  4  1  0
  9  5  2  0
  9  7  1  0
 10  6  1  0
 10  8  2  0
 10  9  1  0
M  END
>  <NAME>  (6454) 
AZULENE

>  <SYNONYMS>  (6454) 


>  <SPECTRUM TYPE>  (6454) 
MS1

>  <INSTRUMENT TYPE>  (6454) 
EI-B

>  <INSTRUMENT>  (6454) 
VARIAN MAT-44

>  <ION MODE>  (6454) 
P

>  <INCHIKEY>  (6454) 
CUFNKYGDVFVPHO-UHFFFAOYSA-N

>  <FORMULA>  (6454) 
C10H8

>  <EXACT MASS>  (6454) 
128.062600256

>  <MW>  (6454) 
128

>  <ID>  (6454) 
JP001584

>  <CONTRIBUTOR>  (6454) 
University of Tokyo Team, {Faculty of Engineering, University of Tokyo

>  <COMMENT>  (6454) 
SMILES=C(=C2)C=CC(=C1)C(=C2)C=C1
cas=275-51-4
InChI=InChI=1S/C10H8/c1-2-5-9-7-4-8-10(9)6-3-1/h1-8H
computed SMILES=C=1C=CC2=CC=CC2=CC1
accession=JP001584
date=2016.01.19 (Created 2008.10.21, modified 2011.05.06)
author=KOGA M, UNIV. OF OCCUPATIONAL AND ENVIRONMENTAL HEALTH
license=CC BY-NC-SA
exact mass=128.0626
ionization energy=70 eV
ion type=[M]+*
computed spectral entropy=2.5936039789069727
computed normalized entropy=0.7783447777551336
SPLASH=splash10-004i-5900000000-9c12163018de963589b1
submitter=submitter = University of Tokyo Team (Faculty of Engineering, University of Tokyo)
MoNA Rating=3.75

>  <NUM PEAKS>  (6454) 
28

>  <MASS SPECTRAL PEAKS>  (6454) 
43 2.36
49 2.96
50 12.93
51 18.92
52 2.76
61 2.6
62 7.04
63 13.66
64 9.33
73 2.26
74 7.49
75 8.04
76 8.63
77 8.01
78 5.35
86 1.66
87 1.78
98 1.74
99 1.1
100 1.71
101 8.45
102 12.75
103 1.34
125 2.64
126 13.63
127 41.56
128 99.99
129 12.1

$$$$

     RDKit          2D

 10 11  0  0  0  0  0  0  0  0999 V2000
   -2.6000   -0.7500    0.0000 C   0  0  0  0  0  0  0  0  0  0  0  0
   -2.6000    0.7500    0.0000 C   0  0  0  0  0  0  0  0  0  0  0  0
    2.6000   -0.7500    0.0000 C   0  0  0  0  0  0  0  0  0  0  0  0
    2.6000    0.7500    0.0000 C   0  0  0  0  0  0  0  0  0  0  0  0
   -1.3000   -1.5000    0.0000 C   0  0  0  0  0  0  0  0  0  0  0  0
   -1.3000    1.5000    0.0000 C   0  0  0  0  0  0  0  0  0  0  0  0
    1.3000   -1.5000    0.0000 C   0  0  0  0  0  0  0  0  0  0  0  0
    1.3000    1.5000    0.0000 C   0  0  0  0  0  0  0  0  0  0  0  0
    0.0000   -0.7500    0.0000 C   0  0  0  0  0  0  0  0  0  0  0  0
    0.0000    0.7500    0.0000 C   0  0  0  0  0  0  0  0  0  0  0  0
  2  1  2  0
  4  3  1  0
  5  1  1  0
  6  2  1  0
  7  3  2  0
  8  4  2  0
  9  5  2  0
  9  7  1  0
 10  6  2  0
 10  8  1  0
 10  9  1  0
M  END
>  <NAME>  (6455) 
NAPHTHALENE

>  <SYNONYMS>  (6455) 


>  <SPECTRUM TYPE>  (6455) 
MS1

>  <INSTRUMENT TYPE>  (6455) 
EI-B

>  <INSTRUMENT>  (6455) 
VARIAN MAT-44

>  <ION MODE>  (6455) 
P

>  <INCHIKEY>  (6455) 
UFWIBTONFRDIAS-UHFFFAOYSA-N

>  <FORMULA>  (6455) 
C10H8

>  <EXACT MASS>  (6455) 
128.062600256

>  <MW>  (6455) 
128

>  <ID>  (6455) 
JP001583

>  <CONTRIBUTOR>  (6455) 
University of Tokyo Team, {Faculty of Engineering, University of Tokyo

>  <COMMENT>  (6455) 
SMILES=c(c2)cc(c1)c(c2)ccc1
cas=91-20-3
InChI=InChI=1S/C10H8/c1-2-6-10-8-4-3-7-9(10)5-1/h1-8H
computed SMILES=C=1C=CC=2C=CC=CC2C1
accession=JP001583
date=2016.01.19 (Created 2008.10.21, modified 2011.05.06)
author=KOGA M, UNIV. OF OCCUPATIONAL AND ENVIRONMENTAL HEALTH
license=CC BY-NC-SA
exact mass=128.0626
ionization energy=70 eV
ion type=[M]+*
computed spectral entropy=2.495480698865127
computed normalized entropy=0.7659320924789224
SPLASH=splash10-004i-4900000000-28274068093bf0319e30
submitter=submitter = University of Tokyo Team (Faculty of Engineering, University of Tokyo)
MoNA Rating=3.75

>  <NUM PEAKS>  (6455) 
26

>  <MASS SPECTRAL PEAKS>  (6455) 
49 2.58
50 12.09
51 18.39
52 2.19
62 2.87
63 8.86
64 17.53
65 9.52
73 2.59
74 7.32
75 7.6
76 6.97
77 7.43
78 4
86 1.69
87 1.41
98 1.65
99 1.06
100 2.27
101 8.67
102 8.03
125 4.12
126 14.74
127 62.97
128 99.99
129 12.74

$$$$

     RDKit          2D

 11 11  0  0  0  0  0  0  0  0999 V2000
   -2.2386    2.7951    0.0000 C   0  0  0  0  0  0  0  0  0  0  0  0
   -3.5376    0.5451    0.0000 C   0  0  0  0  0  0  0  0  0  0  0  0
    2.9576   -1.7049    0.0000 C   0  0  0  0  0  0  0  0  0  0  0  0
    0.3590   -1.7058    0.0000 C   0  0  0  0  0  0  0  0  0  0  0  0
   -0.9400   -0.9558    0.0000 C   0  0  0  0  0  0  0  0  0  0  0  0
    0.3600    1.2959    0.0000 C   0  0  0  0  0  0  0  0  0  0  0  0
   -2.2386    1.2951    0.0000 C   0  0  0  0  0  0  0  0  0  0  0  0
    1.6585   -0.9549    0.0000 C   0  0  0  0  0  0  0  0  0  0  0  0
   -0.9395    0.5451    0.0000 C   0  0  0  0  0  0  0  0  0  0  0  0
    1.6590    0.5459    0.0000 C   0  0  0  0  0  0  0  0  0  0  0  0
    2.9582    1.2957    0.0000 O   0  0  0  0  0  0  0  0  0  0  0  0
  5  4  1  0
  7  1  2  0
  7  2  1  0
  8  3  1  0
  8  4  2  0
  9  5  1  0
  9  6  1  0
  9  7  1  0
 10  6  1  0
 10  8  1  0
 11 10  1  0
M  END
>  <NAME>  (6456) 
CARVEOL(EQUATRIAL)

>  <SYNONYMS>  (6456) 
2-METHYL-5-(1-METHYLETHENYL)-2-CYCLOHEXENE-1-OL(EQUATRIAL)

>  <SPECTRUM TYPE>  (6456) 
MS1

>  <INSTRUMENT TYPE>  (6456) 
EI-B

>  <INSTRUMENT>  (6456) 
HITACHI RMU-6M

>  <ION MODE>  (6456) 
P

>  <INCHIKEY>  (6456) 
BAVONGHXFVOKBV-UHFFFAOYSA-N

>  <FORMULA>  (6456) 
C10H16O

>  <EXACT MASS>  (6456) 
152.120115132

>  <MW>  (6456) 
152

>  <ID>  (6456) 
JP001571

>  <CONTRIBUTOR>  (6456) 
University of Tokyo Team, {Faculty of Engineering, University of Tokyo

>  <COMMENT>  (6456) 
SMILES=CC(=C)C(C1)CC(O)C(C)=C1
InChI=InChI=1S/C10H16O/c1-7(2)9-5-4-8(3)10(11)6-9/h4,9-11H,1,5-6H2,2-3H3
computed SMILES=OC1C(=CCC(C(=C)C)C1)C
accession=JP001571
date=2016.01.19 (Created 2008.10.21, modified 2011.05.06)
author=YAMAMOTO M, DEP. CHEMISTRY, FAC. SCIENCE, NARA WOMEN'S UNIV.
license=CC BY-NC-SA
exact mass=152.12012
ionization energy=70 eV
ion type=[M]+*
computed spectral entropy=3.6664888664770268
computed normalized entropy=0.8751291197574058
SPLASH=splash10-0a5c-9400000000-20e9d5aa724b146ecbe0
submitter=submitter = University of Tokyo Team (Faculty of Engineering, University of Tokyo)
MoNA Rating=3.75

>  <NUM PEAKS>  (6456) 
66

>  <MASS SPECTRAL PEAKS>  (6456) 
27 16.97
28 4.73
29 10.46
31 2.66
38 1.48
39 26.55
40 5.62
41 38.79
42 2.66
43 24.38
44 3.15
45 2.27
50 2.36
51 6.61
52 3.15
53 15.2
54 6.31
55 33.07
56 19.24
57 2.66
63 2.76
65 8.48
66 3.35
67 17.76
68 7.2
69 20.53
70 1.77
71 3.35
72 1.87
77 13.52
78 4.48
79 12.24
80 13.32
81 16.09
82 12.53
83 35.24
84 70.68
85 5.23
91 21.91
92 7.6
93 18.75
94 6.12
95 14.61
96 11.45
97 8.39
103 1.97
105 8.68
106 3.45
107 6.51
108 14.21
109 99.99
110 12.33
111 2.66
115 1.77
117 2.46
119 17.76
120 2.46
121 1.67
123 10.06
124 4.14
134 6.81
135 2.66
137 15.3
138 1.67
152 34.25
153 4.14

$$$$

     RDKit          2D

 11 11  0  0  0  0  0  0  0  0999 V2000
   -2.2386    2.7951    0.0000 C   0  0  0  0  0  0  0  0  0  0  0  0
   -3.5376    0.5451    0.0000 C   0  0  0  0  0  0  0  0  0  0  0  0
    2.9576   -1.7049    0.0000 C   0  0  0  0  0  0  0  0  0  0  0  0
    0.3590   -1.7058    0.0000 C   0  0  0  0  0  0  0  0  0  0  0  0
   -0.9400   -0.9558    0.0000 C   0  0  0  0  0  0  0  0  0  0  0  0
    0.3600    1.2959    0.0000 C   0  0  0  0  0  0  0  0  0  0  0  0
   -2.2386    1.2951    0.0000 C   0  0  0  0  0  0  0  0  0  0  0  0
    1.6585   -0.9549    0.0000 C   0  0  0  0  0  0  0  0  0  0  0  0
   -0.9395    0.5451    0.0000 C   0  0  0  0  0  0  0  0  0  0  0  0
    1.6590    0.5459    0.0000 C   0  0  0  0  0  0  0  0  0  0  0  0
    2.9582    1.2957    0.0000 O   0  0  0  0  0  0  0  0  0  0  0  0
  5  4  1  0
  7  1  2  0
  7  2  1  0
  8  3  1  0
  8  4  2  0
  9  5  1  0
  9  6  1  0
  9  7  1  0
 10  6  1  0
 10  8  1  0
 11 10  1  0
M  END
>  <NAME>  (6457) 
CARVEOL(AXIAL)

>  <SYNONYMS>  (6457) 
2-METHYL-5-(1-METHYLETHENYL)-2-CYCLOHEXENE-1-OL(AXIAL)

>  <SPECTRUM TYPE>  (6457) 
MS1

>  <INSTRUMENT TYPE>  (6457) 
EI-B

>  <INSTRUMENT>  (6457) 
HITACHI RMU-6M

>  <ION MODE>  (6457) 
P

>  <INCHIKEY>  (6457) 
BAVONGHXFVOKBV-UHFFFAOYSA-N

>  <FORMULA>  (6457) 
C10H16O

>  <EXACT MASS>  (6457) 
152.120115132

>  <MW>  (6457) 
152

>  <ID>  (6457) 
JP001570

>  <CONTRIBUTOR>  (6457) 
University of Tokyo Team, {Faculty of Engineering, University of Tokyo

>  <COMMENT>  (6457) 
SMILES=CC(=C)C(C1)CC(O)C(C)=C1
InChI=InChI=1S/C10H16O/c1-7(2)9-5-4-8(3)10(11)6-9/h4,9-11H,1,5-6H2,2-3H3
computed SMILES=OC1C(=CCC(C(=C)C)C1)C
accession=JP001570
date=2016.01.19 (Created 2008.10.21, modified 2011.05.06)
author=YAMAMOTO M, DEP. CHEMISTRY, FAC. SCIENCE, NARA WOMEN'S UNIV.
license=CC BY-NC-SA
exact mass=152.12012
ionization energy=70 eV
ion type=[M]+*
computed spectral entropy=3.7304891124776436
computed normalized entropy=0.8694847634963623
SPLASH=splash10-001i-9300000000-c0df06475a23b1847e64
submitter=submitter = University of Tokyo Team (Faculty of Engineering, University of Tokyo)
MoNA Rating=3.75

>  <NUM PEAKS>  (6457) 
73

>  <MASS SPECTRAL PEAKS>  (6457) 
27 18.02
28 3.3
29 13.04
31 2.65
38 1.37
39 30.03
40 6.13
41 46.83
42 3.97
43 25.05
44 2.99
45 2.37
50 1.95
51 7.41
52 3.49
53 19.03
54 5.62
55 38.88
56 21.3
57 2.96
58 1.31
59 2.85
61 1.76
63 2.49
65 9.23
66 4.33
67 22.9
68 8.59
69 26.65
70 1.7
71 3.52
72 3.02
77 17.02
78 4
79 24.49
80 25.05
81 25.95
82 8.79
83 37.51
84 99.99
85 6.18
91 23.01
92 14.83
93 33.11
94 20.29
95 16.32
96 7.19
97 8.95
103 1.62
105 10.63
106 5.59
107 11.89
108 9.93
109 57.36
110 7.27
111 2.12
115 1.43
117 2.37
119 26.31
120 3.24
121 3.49
123 11.67
124 2.65
133 1.67
134 67.24
135 11.22
136 1.81
137 12.7
138 1.53
150 1.11
151 2.79
152 11.33
153 1.53

$$$$

     RDKit          2D

 11 11  0  0  0  0  0  0  0  0999 V2000
   -2.2386    2.7951    0.0000 C   0  0  0  0  0  0  0  0  0  0  0  0
   -3.5376    0.5451    0.0000 C   0  0  0  0  0  0  0  0  0  0  0  0
    2.9576   -1.7049    0.0000 C   0  0  0  0  0  0  0  0  0  0  0  0
    0.3590   -1.7058    0.0000 C   0  0  0  0  0  0  0  0  0  0  0  0
   -0.9400   -0.9558    0.0000 C   0  0  0  0  0  0  0  0  0  0  0  0
    0.3600    1.2959    0.0000 C   0  0  0  0  0  0  0  0  0  0  0  0
   -2.2386    1.2951    0.0000 C   0  0  0  0  0  0  0  0  0  0  0  0
    1.6585   -0.9549    0.0000 C   0  0  0  0  0  0  0  0  0  0  0  0
   -0.9395    0.5451    0.0000 C   0  0  0  0  0  0  0  0  0  0  0  0
    1.6590    0.5459    0.0000 C   0  0  0  0  0  0  0  0  0  0  0  0
    2.9582    1.2957    0.0000 O   0  0  0  0  0  0  0  0  0  0  0  0
  5  4  1  0
  7  1  2  0
  7  2  1  0
  8  3  1  0
  8  4  1  0
  9  5  1  0
  9  6  1  0
  9  7  1  0
 10  6  1  0
 10  8  1  0
 11 10  1  0
M  END
>  <NAME>  (6458) 
DIHYDROCARVEOL

>  <SYNONYMS>  (6458) 
2-METHYL-5-(1-METHYLETHENYL)CYCROHEXANE-1-OL

>  <SPECTRUM TYPE>  (6458) 
MS1

>  <INSTRUMENT TYPE>  (6458) 
EI-B

>  <INSTRUMENT>  (6458) 
HITACHI RMU-6M

>  <ION MODE>  (6458) 
P

>  <INCHIKEY>  (6458) 
KRCZYMFUWVJCLI-UHFFFAOYSA-N

>  <FORMULA>  (6458) 
C10H18O

>  <EXACT MASS>  (6458) 
154.135765196

>  <MW>  (6458) 
154

>  <ID>  (6458) 
JP001569

>  <CONTRIBUTOR>  (6458) 
University of Tokyo Team, {Faculty of Engineering, University of Tokyo

>  <COMMENT>  (6458) 
SMILES=CC(=C)C(C1)CC(O)C(C)C1
InChI=InChI=1S/C10H18O/c1-7(2)9-5-4-8(3)10(11)6-9/h8-11H,1,4-6H2,2-3H3
computed SMILES=OC1CC(C(=C)C)CCC1C
accession=JP001569
date=2016.01.19 (Created 2008.10.21, modified 2011.05.06)
author=YAMAMOTO M, DEP. CHEMISTRY, FAC. SCIENCE, NARA WOMEN'S UNIV.
license=CC BY-NC-SA
exact mass=154.13577
ionization energy=70 eV
ion type=[M]+*
computed spectral entropy=3.6964909731269286
computed normalized entropy=0.9028285033052404
SPLASH=splash10-05mo-9200000000-165d50d172205331f538
submitter=submitter = University of Tokyo Team (Faculty of Engineering, University of Tokyo)
MoNA Rating=3.75

>  <NUM PEAKS>  (6458) 
60

>  <MASS SPECTRAL PEAKS>  (6458) 
15 3.48
27 33.61
28 6.87
29 34.03
31 8.98
39 48.2
40 11.83
41 99.99
42 12.89
43 50.1
44 3.69
45 6.87
51 7.71
52 4.86
53 36.04
54 8.35
55 65.01
56 17.97
57 19.13
58 20.29
59 8.45
65 9.19
66 15.22
67 59.72
68 55.39
69 54.22
70 23.46
71 21.67
72 11.52
77 15.75
78 3.8
79 63.53
80 23.57
81 75.58
82 25.68
83 20.5
84 13.42
85 4.33
91 13.31
92 34.03
93 97.78
94 53.59
95 31.28
96 20.82
97 34.56
98 6.34
105 5.6
107 79.8
108 21.14
109 5.17
110 5.17
111 18.92
112 3.8
121 80.33
122 8.13
123 3.65
136 86.57
137 11.94
139 6.34
154 7.61

$$$$

     RDKit          2D

 11 11  0  0  0  0  0  0  0  0999 V2000
   -3.5376    0.5451    0.0000 C   0  0  0  0  0  0  0  0  0  0  0  0
   -2.2386    2.7951    0.0000 C   0  0  0  0  0  0  0  0  0  0  0  0
    2.9576   -1.7049    0.0000 C   0  0  0  0  0  0  0  0  0  0  0  0
    0.3590   -1.7058    0.0000 C   0  0  0  0  0  0  0  0  0  0  0  0
   -0.9400   -0.9558    0.0000 C   0  0  0  0  0  0  0  0  0  0  0  0
    0.3600    1.2959    0.0000 C   0  0  0  0  0  0  0  0  0  0  0  0
   -2.2386    1.2951    0.0000 C   0  0  0  0  0  0  0  0  0  0  0  0
    1.6585   -0.9549    0.0000 C   0  0  0  0  0  0  0  0  0  0  0  0
   -0.9395    0.5451    0.0000 C   0  0  0  0  0  0  0  0  0  0  0  0
    1.6590    0.5459    0.0000 C   0  0  0  0  0  0  0  0  0  0  0  0
    2.9582    1.2957    0.0000 O   0  0  0  0  0  0  0  0  0  0  0  0
  5  4  1  0
  7  1  1  0
  7  2  1  0
  8  3  1  0
  8  4  1  0
  9  5  1  0
  9  6  1  0
  9  7  1  0
 10  6  1  0
 10  8  1  0
 11 10  1  0
M  END
>  <NAME>  (6459) 
CARVOMENTHOL

>  <SYNONYMS>  (6459) 
2-METHYL-5-(1-METHYLETHYL)CYCLOHEXANE-1-OL

>  <SPECTRUM TYPE>  (6459) 
MS1

>  <INSTRUMENT TYPE>  (6459) 
EI-B

>  <INSTRUMENT>  (6459) 
HITACHI RMU-6M

>  <ION MODE>  (6459) 
P

>  <INCHIKEY>  (6459) 
ULJXKUJMXIVDOY-UHFFFAOYSA-N

>  <FORMULA>  (6459) 
C10H20O

>  <EXACT MASS>  (6459) 
156.15141526

>  <MW>  (6459) 
156

>  <ID>  (6459) 
JP001568

>  <CONTRIBUTOR>  (6459) 
University of Tokyo Team, {Faculty of Engineering, University of Tokyo

>  <COMMENT>  (6459) 
SMILES=CC(C)C(C1)CC(O)C(C)C1
InChI=InChI=1S/C10H20O/c1-7(2)9-5-4-8(3)10(11)6-9/h7-11H,4-6H2,1-3H3
computed SMILES=OC1CC(CCC1C)C(C)C
accession=JP001568
date=2016.01.19 (Created 2008.10.21, modified 2011.05.06)
author=YAMAMOTO M, DEP. CHEMISTRY, FAC. SCIENCE, NARA WOMEN'S UNIV.
license=CC BY-NC-SA
exact mass=156.15142
ionization energy=70 eV
ion type=[M]+*
computed spectral entropy=3.46584267697879
computed normalized entropy=0.8688534816186924
SPLASH=splash10-0535-9200000000-c18d1eac69a7e6095cf3
submitter=submitter = University of Tokyo Team (Faculty of Engineering, University of Tokyo)
MoNA Rating=3.75

>  <NUM PEAKS>  (6459) 
54

>  <MASS SPECTRAL PEAKS>  (6459) 
27 18.18
28 4.79
29 15.95
31 4.07
39 15.75
40 3.61
41 40.7
42 7.81
43 24.95
44 6.71
45 8.86
51 2.29
53 9.45
54 3.87
55 47.36
56 8.6
57 47.36
58 8.92
59 2.62
65 2.29
67 19.69
68 11.68
69 25.8
70 9.98
71 13.78
72 2.62
77 2.62
79 4.66
80 7.09
81 28.23
82 27.18
83 21.53
84 6.17
85 1.83
93 5.58
94 7.74
95 99.99
96 23.24
97 3.93
99 3.61
100 2.82
109 9.19
110 6.56
111 1.64
112 4.46
113 43.46
114 4.99
121 2.95
123 16.08
124 1.96
137 1.96
138 41.69
139 4.26
156 3.54

$$$$

     RDKit          2D

 23 22  0  0  1  0  0  0  0  0999 V2000
   -6.1704    9.9375    0.0000 C   0  0  0  0  0  0  0  0  0  0  0  0
   -2.2733    6.1875    0.0000 C   0  0  0  0  0  0  0  0  0  0  0  0
    5.5209    7.6875    0.0000 C   0  0  0  0  0  0  0  0  0  0  0  0
  -13.9647    8.4375    0.0000 C   0  0  0  0  0  0  0  0  0  0  0  0
    1.6238    8.4375    0.0000 C   0  0  0  0  0  0  0  0  0  0  0  0
  -10.0675    7.6875    0.0000 C   0  0  0  0  0  0  0  0  0  0  0  0
   -6.1704    8.4375    0.0000 C   0  0  0  0  0  0  0  0  0  0  0  0
   -2.2733    7.6875    0.0000 C   0  0  0  0  0  0  0  0  0  0  0  0
    4.2219    8.4375    0.0000 C   0  0  0  0  0  0  0  0  0  0  0  0
    0.3248    7.6875    0.0000 C   0  0  0  0  0  0  0  0  0  0  0  0
  -11.3666    8.4375    0.0000 C   0  0  0  0  0  0  0  0  0  0  0  0
   -7.4695    7.6875    0.0000 C   0  0  0  0  0  0  0  0  0  0  0  0
   -3.5724    8.4375    0.0000 C   0  0  0  0  0  0  0  0  0  0  0  0
    2.9228    7.6875    0.0000 N   0  0  0  0  0  0  0  0  0  0  0  0
   -8.7685    8.4375    0.0000 N   0  0  0  0  0  0  0  0  0  0  0  0
   -0.9743    8.4375    0.0000 N   0  0  0  0  0  0  0  0  0  0  0  0
   -4.8714    7.6875    0.0000 N   0  0  0  0  0  0  0  0  0  0  0  0
    4.2219    9.9375    0.0000 O   0  0  0  0  0  0  0  0  0  0  0  0
    0.3248    6.1875    0.0000 O   0  0  0  0  0  0  0  0  0  0  0  0
  -11.3666    9.9375    0.0000 O   0  0  0  0  0  0  0  0  0  0  0  0
   -7.4695    6.1875    0.0000 O   0  0  0  0  0  0  0  0  0  0  0  0
   -3.5724    9.9375    0.0000 O   0  0  0  0  0  0  0  0  0  0  0  0
  -12.6656    7.6875    0.0000 O   0  0  0  0  0  0  0  0  0  0  0  0
  7  1  1  6
  8  2  1  6
  9  3  1  0
 10  5  1  0
 11  6  1  0
 12  7  1  0
 13  8  1  0
 14  5  1  0
 14  9  2  3
 15  6  1  0
 15 12  2  3
 16  8  1  0
 16 10  2  3
 17  7  1  0
 17 13  2  3
 18  9  1  0
 19 10  1  0
 20 11  2  0
 21 12  1  0
 22 13  1  0
 23  4  1  0
 23 11  1  0
M  END
>  <NAME>  (6460) 
N-ACETYL-GLYCYL-ALANYL-ALANYL-GLYCINE METHYL ESTER

>  <SYNONYMS>  (6460) 


>  <SPECTRUM TYPE>  (6460) 
MS1

>  <INSTRUMENT TYPE>  (6460) 
EI-B

>  <INSTRUMENT>  (6460) 
HITACHI RMU-6M

>  <ION MODE>  (6460) 
P

>  <INCHIKEY>  (6460) 
QXDJNCUBXZBMIK-JGVFFNPUSA-N

>  <FORMULA>  (6460) 
C13H22N4O6

>  <EXACT MASS>  (6460) 
330.153934424

>  <MW>  (6460) 
330

>  <ID>  (6460) 
JP001567

>  <CONTRIBUTOR>  (6460) 
University of Tokyo Team, {Faculty of Engineering, University of Tokyo

>  <COMMENT>  (6460) 
SMILES=COC(=O)CNC(=O)C([H])(C)NC(=O)C([H])(C)NC(=O)CNC(C)=O
InChI=InChI=1S/C13H22N4O6/c1-7(12(21)15-6-11(20)23-4)17-13(22)8(2)16-10(19)5-14-9(3)18/h7-8H,5-6H2,1-4H3,(H,14,18)(H,15,21)(H,16,19)(H,17,22)/t7-,8+/m0/s1
computed SMILES=O=C(OC)CN=C(O)C(N=C(O)C(N=C(O)CN=C(O)C)C)C
accession=JP001567
date=2016.01.19 (Created 2008.10.21, modified 2011.05.06)
author=YAMAMOTO M, DEP. CHEMISTRY, FAC. SCIENCE, NARA WOMEN'S UNIV.
license=CC BY-NC-SA
exact mass=330.15393
ionization energy=70 eV
ion type=[M]+*
computed spectral entropy=3.4013881249614784
computed normalized entropy=0.7953363742465931
SPLASH=splash10-0006-9310000000-c2e688162c0e6018d43f
submitter=submitter = University of Tokyo Team (Faculty of Engineering, University of Tokyo)
MoNA Rating=3.75

>  <NUM PEAKS>  (6460) 
72

>  <MASS SPECTRAL PEAKS>  (6460) 
14 2.39
15 11.83
26 5.56
27 6.21
28 18.27
29 4.41
30 66.08
31 3.69
38 1.01
39 1.86
41 6.34
42 11.54
43 30.39
44 99.99
45 9.67
54 1.9
55 11.6
56 8.79
58 2.55
59 2.09
60 2.25
67 1.11
69 2.48
70 7.97
71 5.42
72 21.05
73 8.59
74 1.27
81 1.08
83 1.8
84 1.67
85 7.03
86 2.03
87 1.14
88 3.37
89 1.08
90 9.61
91 1.21
97 1.31
98 1.41
99 8.01
100 21.8
101 2.97
111 1.01
113 2.78
114 1.44
115 1.63
116 1.8
117 1.31
120 1.11
127 5.69
128 1.31
129 1.54
141 4.64
142 2.03
143 14.77
144 16.14
145 7.35
149 1.31
155 1.47
169 1.6
171 49.02
172 5.23
187 1.31
214 57.81
215 11.47
216 1.96
242 5.69
258 1.44
299 2.16
330 3.69
331 1.08

$$$$

     RDKit          2D

  9  9  0  0  0  0  0  0  0  0999 V2000
    2.9228   -0.2425    0.0000 C   0  0  0  0  0  0  0  0  0  0  0  0
    2.9233    1.2583    0.0000 C   0  0  0  0  0  0  0  0  0  0  0  0
    1.6233   -0.9933    0.0000 C   0  0  0  0  0  0  0  0  0  0  0  0
    1.6243    2.0083    0.0000 C   0  0  0  0  0  0  0  0  0  0  0  0
    0.3243   -0.2433    0.0000 C   0  0  0  0  0  0  0  0  0  0  0  0
   -0.9743    2.0075    0.0000 C   0  0  0  0  0  0  0  0  0  0  0  0
   -2.2733    1.2575    0.0000 C   0  0  0  0  0  0  0  0  0  0  0  0
    0.3248    1.2575    0.0000 C   0  0  0  0  0  0  0  0  0  0  0  0
   -3.5724    2.0075    0.0000 O   0  0  0  0  0  0  0  0  0  0  0  0
  2  1  2  0
  3  1  1  0
  4  2  1  0
  5  3  2  0
  7  6  1  0
  8  4  2  0
  8  5  1  0
  8  6  1  0
  9  7  1  0
M  END
>  <NAME>  (6461) 
2-PHENYLETHYL ALCOHOL

>  <SYNONYMS>  (6461) 


>  <SPECTRUM TYPE>  (6461) 
MS1

>  <INSTRUMENT TYPE>  (6461) 
EI-B

>  <INSTRUMENT>  (6461) 
HITACHI RMU-6M

>  <ION MODE>  (6461) 
P

>  <INCHIKEY>  (6461) 
WRMNZCZEMHIOCP-UHFFFAOYSA-N

>  <FORMULA>  (6461) 
C8H10O

>  <EXACT MASS>  (6461) 
122.07316494

>  <MW>  (6461) 
122

>  <ID>  (6461) 
JP001564

>  <CONTRIBUTOR>  (6461) 
University of Tokyo Team, {Faculty of Engineering, University of Tokyo

>  <COMMENT>  (6461) 
SMILES=OCCc(c1)cccc1
InChI=InChI=1S/C8H10O/c9-7-6-8-4-2-1-3-5-8/h1-5,9H,6-7H2
computed SMILES=OCCC=1C=CC=CC1
accession=JP001564
date=2016.01.19 (Created 2008.10.21, modified 2011.05.06)
author=YAMAMOTO M, DEP. CHEMISTRY, FAC. SCIENCE, NARA WOMEN'S UNIV.
license=CC BY-NC-SA
exact mass=122.07316
ionization energy=70 eV
ion type=[M]+*
computed spectral entropy=2.2757349698950318
computed normalized entropy=0.6758345820492324
SPLASH=splash10-0006-9100000000-e67375f5607fb09ff117
submitter=submitter = University of Tokyo Team (Faculty of Engineering, University of Tokyo)
MoNA Rating=3.75

>  <NUM PEAKS>  (6461) 
29

>  <MASS SPECTRAL PEAKS>  (6461) 
27 2.56
29 1.36
31 5.02
38 1.58
39 10.71
40 1.15
41 2.63
50 3.49
51 7.55
52 2.08
53 1
62 1.84
63 5.12
64 1.38
65 17.8
66 1.26
74 1.05
77 5.28
78 4.3
79 1.18
89 3.23
90 1.09
91 99.99
92 59.29
93 4.59
103 2.87
104 2.59
122 28.6
123 2.8

$$$$

     RDKit          2D

 10  9  0  0  0  0  0  0  0  0999 V2000
   -8.4437    5.6250    0.0000 C   0  0  0  0  0  0  0  0  0  0  0  0
    3.2476    4.8750    0.0000 C   0  0  0  0  0  0  0  0  0  0  0  0
   -7.1447    4.8750    0.0000 C   0  0  0  0  0  0  0  0  0  0  0  0
    1.9486    5.6250    0.0000 C   0  0  0  0  0  0  0  0  0  0  0  0
   -5.8457    5.6250    0.0000 C   0  0  0  0  0  0  0  0  0  0  0  0
    0.6495    4.8750    0.0000 C   0  0  0  0  0  0  0  0  0  0  0  0
   -4.5466    4.8750    0.0000 C   0  0  0  0  0  0  0  0  0  0  0  0
   -0.6495    5.6250    0.0000 C   0  0  0  0  0  0  0  0  0  0  0  0
   -3.2476    5.6250    0.0000 C   0  0  0  0  0  0  0  0  0  0  0  0
   -1.9486    4.8750    0.0000 C   0  0  0  0  0  0  0  0  0  0  0  0
  3  1  2  0
  4  2  1  0
  5  3  1  0
  6  4  1  0
  7  5  1  0
  8  6  1  0
  9  7  1  0
 10  8  1  0
 10  9  1  0
M  END
>  <NAME>  (6462) 
1-DECENE

>  <SYNONYMS>  (6462) 


>  <SPECTRUM TYPE>  (6462) 
MS1

>  <INSTRUMENT TYPE>  (6462) 
EI-B

>  <INSTRUMENT>  (6462) 
HITACHI RMU-6M

>  <ION MODE>  (6462) 
P

>  <INCHIKEY>  (6462) 
AFFLGGQVNFXPEV-UHFFFAOYSA-N

>  <FORMULA>  (6462) 
C10H20

>  <EXACT MASS>  (6462) 
140.15650064

>  <MW>  (6462) 
140

>  <ID>  (6462) 
JP001563

>  <CONTRIBUTOR>  (6462) 
University of Tokyo Team, {Faculty of Engineering, University of Tokyo

>  <COMMENT>  (6462) 
SMILES=CCCCCCCCC=C
InChI=InChI=1S/C10H20/c1-3-5-7-9-10-8-6-4-2/h3H,1,4-10H2,2H3
computed SMILES=C=CCCCCCCCC
accession=JP001563
date=2016.01.19 (Created 2008.10.21, modified 2011.05.06)
author=YAMAMOTO M, DEP. CHEMISTRY, FAC. SCIENCE, NARA WOMEN'S UNIV.
license=CC BY-NC-SA
exact mass=140.1565
ionization energy=70 eV
ion type=[M]+*
computed spectral entropy=3.060511005509201
computed normalized entropy=0.8087625889774076
SPLASH=splash10-0a4l-9000000000-32ed29477da8126d5818
submitter=submitter = University of Tokyo Team (Faculty of Engineering, University of Tokyo)
MoNA Rating=3.75

>  <NUM PEAKS>  (6462) 
44

>  <MASS SPECTRAL PEAKS>  (6462) 
15 1.56
26 1.54
27 33.53
28 7.47
29 49.33
30 1.4
38 1.04
39 34.48
40 5.53
41 99.99
42 34.78
43 75.15
44 2.75
51 1.92
52 1.23
53 9.11
54 12.91
55 79.78
56 81.72
57 57.46
58 2.57
65 1.44
66 1.04
67 8.73
68 9.35
69 46.79
70 64.85
71 10.03
77 1.04
79 1
81 1.98
82 6.77
83 26.5
84 20.08
85 4.95
96 2.91
97 17.46
98 12.69
99 1.4
110 1.05
111 8.78
112 6.69
140 12.74
141 1.6

$$$$

     RDKit          2D

  8  7  0  0  0  0  0  0  0  0999 V2000
   -6.4952    4.5000    0.0000 C   0  0  0  0  0  0  0  0  0  0  0  0
    2.5981    3.7500    0.0000 C   0  0  0  0  0  0  0  0  0  0  0  0
   -5.1962    3.7500    0.0000 C   0  0  0  0  0  0  0  0  0  0  0  0
    1.2990    4.5000    0.0000 C   0  0  0  0  0  0  0  0  0  0  0  0
   -3.8971    4.5000    0.0000 C   0  0  0  0  0  0  0  0  0  0  0  0
    0.0000    3.7500    0.0000 C   0  0  0  0  0  0  0  0  0  0  0  0
   -2.5981    3.7500    0.0000 C   0  0  0  0  0  0  0  0  0  0  0  0
   -1.2990    4.5000    0.0000 C   0  0  0  0  0  0  0  0  0  0  0  0
  3  1  2  0
  4  2  1  0
  5  3  1  0
  6  4  1  0
  7  5  1  0
  8  6  1  0
  8  7  1  0
M  END
>  <NAME>  (6463) 
1-OCTENE

>  <SYNONYMS>  (6463) 


>  <SPECTRUM TYPE>  (6463) 
MS1

>  <INSTRUMENT TYPE>  (6463) 
EI-B

>  <INSTRUMENT>  (6463) 
HITACHI RMU-6M

>  <ION MODE>  (6463) 
P

>  <INCHIKEY>  (6463) 
KWKAKUADMBZCLK-UHFFFAOYSA-N

>  <FORMULA>  (6463) 
C8H16

>  <EXACT MASS>  (6463) 
112.12520051199999

>  <MW>  (6463) 
112

>  <ID>  (6463) 
JP001562

>  <CONTRIBUTOR>  (6463) 
University of Tokyo Team, {Faculty of Engineering, University of Tokyo

>  <COMMENT>  (6463) 
SMILES=CCCCCCC=C
InChI=InChI=1S/C8H16/c1-3-5-7-8-6-4-2/h3H,1,4-8H2,2H3
computed SMILES=C=CCCCCCC
accession=JP001562
date=2016.01.19 (Created 2008.10.21, modified 2011.05.06)
author=YAMAMOTO M, DEP. CHEMISTRY, FAC. SCIENCE, NARA WOMEN'S UNIV.
license=CC BY-NC-SA
exact mass=112.1252
ionization energy=70 eV
ion type=[M]+*
computed spectral entropy=2.859549804053447
computed normalized entropy=0.8109068213791624
SPLASH=splash10-052f-9000000000-9c549655d7559b3ec197
submitter=submitter = University of Tokyo Team (Faculty of Engineering, University of Tokyo)
MoNA Rating=3.75

>  <NUM PEAKS>  (6463) 
34

>  <MASS SPECTRAL PEAKS>  (6463) 
15 2.16
26 2.63
27 39.72
28 7.83
29 48.1
30 1.2
38 1.67
39 37.27
40 6.18
41 88.79
42 65.52
43 99.99
44 3.5
50 1.29
51 3.12
52 1.46
53 8.79
54 8.79
55 84.02
56 73.19
57 16.22
65 1.28
67 5.09
68 6.52
69 36
70 75.89
71 11.35
82 4.29
83 26.44
84 19.24
85 2.47
97 3.07
112 21.45
113 2.04

$$$$

     RDKit          2D

 12 12  0  0  0  0  0  0  0  0999 V2000
   -3.1900    1.5500    0.0000 C   0  0  0  0  0  0  0  0  0  0  0  0
   -2.4400    0.2500    0.0000 C   0  0  0  0  0  0  0  0  0  0  0  0
   -2.4400    2.8500    0.0000 C   0  0  0  0  0  0  0  0  0  0  0  0
   -0.9400    0.2500    0.0000 C   0  0  0  0  0  0  0  0  0  0  0  0
   -0.9400    2.8500    0.0000 C   0  0  0  0  0  0  0  0  0  0  0  0
   -0.1900   -1.0500    0.0000 C   0  0  0  0  0  0  0  0  0  0  0  0
   -0.1900    4.1500    0.0000 C   0  0  0  0  0  0  0  0  0  0  0  0
    1.3100   -1.0500    0.0000 C   0  0  0  0  0  0  0  0  0  0  0  0
    1.3100    4.1500    0.0000 C   0  0  0  0  0  0  0  0  0  0  0  0
    2.0600    0.2500    0.0000 C   0  0  0  0  0  0  0  0  0  0  0  0
    2.0600    2.8500    0.0000 C   0  0  0  0  0  0  0  0  0  0  0  0
    1.3100    1.5500    0.0000 C   0  0  0  0  0  0  0  0  0  0  0  0
  2  1  1  0
  3  1  1  0
  4  2  1  0
  5  3  1  0
  6  4  1  0
  7  5  1  0
  8  6  1  0
  9  7  1  0
 10  8  1  0
 11  9  1  0
 12 10  1  0
 12 11  1  0
M  END
>  <NAME>  (6464) 
CYCLODODECANE

>  <SYNONYMS>  (6464) 


>  <SPECTRUM TYPE>  (6464) 
MS1

>  <INSTRUMENT TYPE>  (6464) 
EI-B

>  <INSTRUMENT>  (6464) 
HITACHI RMU-6M

>  <ION MODE>  (6464) 
P

>  <INCHIKEY>  (6464) 
DDTBPAQBQHZRDW-UHFFFAOYSA-N

>  <FORMULA>  (6464) 
C12H24

>  <EXACT MASS>  (6464) 
168.187800768

>  <MW>  (6464) 
168

>  <ID>  (6464) 
JP001561

>  <CONTRIBUTOR>  (6464) 
University of Tokyo Team, {Faculty of Engineering, University of Tokyo

>  <COMMENT>  (6464) 
SMILES=C(C1)CCCCCCCCCC1
InChI=InChI=1S/C12H24/c1-2-4-6-8-10-12-11-9-7-5-3-1/h1-12H2
computed SMILES=C1CCCCCCCCCCC1
accession=JP001561
date=2016.01.19 (Created 2008.10.21, modified 2011.05.06)
author=YAMAMOTO M, DEP. CHEMISTRY, FAC. SCIENCE, NARA WOMEN'S UNIV.
license=CC BY-NC-SA
exact mass=168.1878
ionization energy=70 eV
ion type=[M]+*
computed spectral entropy=3.3174694666154387
computed normalized entropy=0.8480189053112082
SPLASH=splash10-0a4l-9100000000-7d09a4bed10ece8916a1
submitter=submitter = University of Tokyo Team (Faculty of Engineering, University of Tokyo)
MoNA Rating=3.75

>  <NUM PEAKS>  (6464) 
50

>  <MASS SPECTRAL PEAKS>  (6464) 
26 1.17
27 22.69
28 7.92
29 37.23
30 1.2
39 23.14
40 4.48
41 90.78
42 31.3
43 56.45
44 2.06
51 1.33
52 1
53 7.98
54 12.65
55 99.99
56 68.23
57 44.6
58 2.34
65 1.34
66 1.53
67 14.14
68 26.68
69 77.64
70 55.96
71 14.58
77 1.13
79 1.41
81 5.82
82 32.09
83 63.39
84 34.96
85 8.36
95 1.84
96 12.9
97 44.95
98 21.89
99 2.87
110 5.55
111 25.48
112 13.08
113 1.58
124 2.33
125 12.3
126 6.94
139 4.42
140 12.23
141 1.71
168 28.71
169 4.5

$$$$

     RDKit          2D

 12 12  0  0  0  0  0  0  0  0999 V2000
   -3.1900    1.5500    0.0000 C   0  0  0  0  0  0  0  0  0  0  0  0
   -2.4400    0.2500    0.0000 C   0  0  0  0  0  0  0  0  0  0  0  0
   -2.4400    2.8500    0.0000 C   0  0  0  0  0  0  0  0  0  0  0  0
   -0.9400    0.2500    0.0000 C   0  0  0  0  0  0  0  0  0  0  0  0
   -0.9400    2.8500    0.0000 C   0  0  0  0  0  0  0  0  0  0  0  0
   -0.1900   -1.0500    0.0000 C   0  0  0  0  0  0  0  0  0  0  0  0
   -0.1900    4.1500    0.0000 C   0  0  0  0  0  0  0  0  0  0  0  0
    1.3100   -1.0500    0.0000 C   0  0  0  0  0  0  0  0  0  0  0  0
    1.3100    4.1500    0.0000 C   0  0  0  0  0  0  0  0  0  0  0  0
    2.0600    0.2500    0.0000 C   0  0  0  0  0  0  0  0  0  0  0  0
    2.0600    2.8500    0.0000 C   0  0  0  0  0  0  0  0  0  0  0  0
    1.3100    1.5500    0.0000 C   0  0  0  0  0  0  0  0  0  0  0  0
  1  2  2  0
  3  1  1  0
  4  2  1  0
  5  3  1  0
  6  4  1  0
  7  5  1  0
  8  6  1  0
  9  7  1  0
 10  8  1  0
 11  9  1  0
 12 10  1  0
 12 11  1  0
M  END
>  <NAME>  (6465) 
CYCLODODECENE

>  <SYNONYMS>  (6465) 


>  <SPECTRUM TYPE>  (6465) 
MS1

>  <INSTRUMENT TYPE>  (6465) 
EI-B

>  <INSTRUMENT>  (6465) 
HITACHI RMU-6M

>  <ION MODE>  (6465) 
P

>  <INCHIKEY>  (6465) 
HYPABJGVBDSCIT-UPHRSURJSA-N

>  <FORMULA>  (6465) 
C12H22

>  <EXACT MASS>  (6465) 
166.172150704

>  <MW>  (6465) 
166

>  <ID>  (6465) 
JP001560

>  <CONTRIBUTOR>  (6465) 
University of Tokyo Team, {Faculty of Engineering, University of Tokyo

>  <COMMENT>  (6465) 
InChI=InChI=1S/C12H22/c1-2-4-6-8-10-12-11-9-7-5-3-1/h1-2H,3-12H2/b2-1-
SMILES=C(C1)CCCCC=CCCCC1
computed SMILES=C1=CCCCCCCCCCC1
accession=JP001560
date=2016.01.19 (Created 2008.10.21, modified 2011.05.06)
author=YAMAMOTO M, DEP. CHEMISTRY, FAC. SCIENCE, NARA WOMEN'S UNIV.
license=CC BY-NC-SA
exact mass=166.17215
ionization energy=70 eV
ion type=[M]+*
computed spectral entropy=3.389705332926833
computed normalized entropy=0.8348117001328571
SPLASH=splash10-067m-9100000000-1b5d9c14de3d8c273242
submitter=submitter = University of Tokyo Team (Faculty of Engineering, University of Tokyo)
MoNA Rating=3.75

>  <NUM PEAKS>  (6465) 
58

>  <MASS SPECTRAL PEAKS>  (6465) 
15 1.05
26 1.39
27 24.3
28 8.05
29 30.41
39 34.65
40 6.29
41 99.99
42 16.41
43 20.39
51 3.2
52 2.23
53 17.45
54 69.53
55 92.4
56 18.33
57 12.04
65 5.38
66 8.92
67 90.63
68 46.12
69 42.89
70 11.7
71 2.25
77 4.69
78 1.77
79 10.17
80 7.48
81 66.58
82 86.29
83 36.17
84 7.34
85 1.64
91 2.82
93 3.36
94 4.57
95 44.35
96 68.28
97 19.7
98 4.15
107 1.44
108 1.85
109 28.14
110 16.48
111 4.83
112 1.7
121 2.1
122 1.31
123 10.86
124 8.98
125 1.8
137 4.56
138 7.61
139 1.3
140 1.44
164 1.18
166 35.06
167 5.13

$$$$

     RDKit          2D

 12 12  0  0  0  0  0  0  0  0999 V2000
   -7.6800    6.0800    0.0000 C   0  0  0  0  0  0  0  0  0  0  0  0
   -3.5900    6.0800    0.0000 C   0  0  0  0  0  0  0  0  0  0  0  0
   -7.6800    4.5800    0.0000 C   0  0  0  0  0  0  0  0  0  0  0  0
   -3.5900    4.5800    0.0000 C   0  0  0  0  0  0  0  0  0  0  0  0
   -6.3800    3.8300    0.0000 C   0  0  0  0  0  0  0  0  0  0  0  0
   -4.8800    3.8300    0.0000 C   0  0  0  0  0  0  0  0  0  0  0  0
   -6.3800    2.3300    0.0000 C   0  0  0  0  0  0  0  0  0  0  0  0
   -4.8800    2.3300    0.0000 C   0  0  0  0  0  0  0  0  0  0  0  0
   -7.6800    1.5800    0.0000 C   0  0  0  0  0  0  0  0  0  0  0  0
   -3.5900    1.5800    0.0000 C   0  0  0  0  0  0  0  0  0  0  0  0
   -7.6800    0.0800    0.0000 C   0  0  0  0  0  0  0  0  0  0  0  0
   -3.5900    0.0800    0.0000 C   0  0  0  0  0  0  0  0  0  0  0  0
  1  2  2  0
  3  1  1  0
  4  2  1  0
  5  3  1  0
  6  4  1  0
  7  5  1  0
  8  6  1  0
  7  9  2  0
  8 10  2  0
 11  9  1  0
 12 10  1  0
 12 11  1  0
M  END
>  <NAME>  (6466) 
1.5.9-CYCLODODECATRIENE

>  <SYNONYMS>  (6466) 


>  <SPECTRUM TYPE>  (6466) 
MS1

>  <INSTRUMENT TYPE>  (6466) 
EI-B

>  <INSTRUMENT>  (6466) 
HITACHI RMU-6M

>  <ION MODE>  (6466) 
P

>  <INCHIKEY>  (6466) 
ZOLLIQAKMYWTBR-RYMQXAEESA-N

>  <FORMULA>  (6466) 
C12H18

>  <EXACT MASS>  (6466) 
162.140850576

>  <MW>  (6466) 
162

>  <ID>  (6466) 
JP001559

>  <CONTRIBUTOR>  (6466) 
University of Tokyo Team, {Faculty of Engineering, University of Tokyo

>  <COMMENT>  (6466) 
SMILES=C(C1)C=CCCC=CCCC=C1
InChI=InChI=1S/C12H18/c1-2-4-6-8-10-12-11-9-7-5-3-1/h1-2,7-10H,3-6,11-12H2/b2-1-,9-7+,10-8+
computed SMILES=C1=CCCC=CCCC=CCC1
accession=JP001559
date=2016.01.19 (Created 2008.10.21, modified 2011.05.06)
author=YAMAMOTO M, DEP. CHEMISTRY, FAC. SCIENCE, NARA WOMEN'S UNIV.
license=CC BY-NC-SA
exact mass=162.14085
ionization energy=70 eV
ion type=[M]+*
computed spectral entropy=3.166213111125113
computed normalized entropy=0.8223614880943335
SPLASH=splash10-0f6x-9100000000-8f14a0290404c1565291
submitter=submitter = University of Tokyo Team (Faculty of Engineering, University of Tokyo)
MoNA Rating=3.75

>  <NUM PEAKS>  (6466) 
47

>  <MASS SPECTRAL PEAKS>  (6466) 
27 16.35
28 7.13
29 5.4
38 1.24
39 37.47
40 4.39
41 33.49
42 2.04
43 1.26
50 1.59
51 5.21
52 3.77
53 14.07
54 99.99
55 9.23
63 1.78
65 8.5
66 13.95
67 50.5
68 4.17
77 11.28
78 9.22
79 51.44
80 38.23
81 8.01
82 1.24
91 99.11
92 9.23
93 34.04
94 9.64
95 6.21
96 1.42
105 7.98
106 6.47
107 6.37
108 7.32
109 1.05
119 14.41
120 8.81
121 1.09
133 14.26
134 12.7
135 1.66
147 3.03
161 1.26
162 16.72
163 2.42

$$$$

     RDKit          2D

  8  8  0  0  0  0  0  0  0  0999 V2000
  -10.4600    6.3600    0.0000 C   0  0  0  0  0  0  0  0  0  0  0  0
  -11.3400    5.1500    0.0000 C   0  0  0  0  0  0  0  0  0  0  0  0
   -9.0300    5.9000    0.0000 C   0  0  0  0  0  0  0  0  0  0  0  0
  -10.4600    3.9300    0.0000 C   0  0  0  0  0  0  0  0  0  0  0  0
   -7.6000    6.3600    0.0000 C   0  0  0  0  0  0  0  0  0  0  0  0
   -9.0300    4.4000    0.0000 C   0  0  0  0  0  0  0  0  0  0  0  0
   -6.7200    5.1500    0.0000 C   0  0  0  0  0  0  0  0  0  0  0  0
   -7.6000    3.9300    0.0000 C   0  0  0  0  0  0  0  0  0  0  0  0
  1  2  2  0
  3  1  1  0
  4  2  1  0
  5  3  1  0
  6  4  1  0
  7  5  1  0
  8  6  1  0
  7  8  2  0
M  END
>  <NAME>  (6467) 
1.5-CYCLOOCTADIENE

>  <SYNONYMS>  (6467) 


>  <SPECTRUM TYPE>  (6467) 
MS1

>  <INSTRUMENT TYPE>  (6467) 
EI-B

>  <INSTRUMENT>  (6467) 
HITACHI RMU-6M

>  <ION MODE>  (6467) 
P

>  <INCHIKEY>  (6467) 
VYXHVRARDIDEHS-QGTKBVGQSA-N

>  <FORMULA>  (6467) 
C8H12

>  <EXACT MASS>  (6467) 
108.093900384

>  <MW>  (6467) 
108

>  <ID>  (6467) 
JP001558

>  <CONTRIBUTOR>  (6467) 
University of Tokyo Team, {Faculty of Engineering, University of Tokyo

>  <COMMENT>  (6467) 
SMILES=C(C1)C=CCCC=C1
InChI=InChI=1S/C8H12/c1-2-4-6-8-7-5-3-1/h1-2,7-8H,3-6H2/b2-1-,8-7-
computed SMILES=C1=CCCC=CCC1
accession=JP001558
date=2016.01.19 (Created 2008.10.21, modified 2011.05.06)
author=YAMAMOTO M, DEP. CHEMISTRY, FAC. SCIENCE, NARA WOMEN'S UNIV.
license=CC BY-NC-SA
exact mass=108.0939
ionization energy=70 eV
ion type=[M]+*
computed spectral entropy=2.7779408274921713
computed normalized entropy=0.794490153004865
SPLASH=splash10-0uxr-9000000000-fcefaab2a2f7d4cd012a
submitter=submitter = University of Tokyo Team (Faculty of Engineering, University of Tokyo)
MoNA Rating=3.75

>  <NUM PEAKS>  (6467) 
33

>  <MASS SPECTRAL PEAKS>  (6467) 
26 2.22
27 20.96
28 7.46
29 2.97
38 2.88
39 47.24
40 4.39
41 23.12
42 1.51
50 4.59
51 9.82
52 5.47
53 13.77
54 99.99
55 5.87
62 1.08
63 2.59
65 8.44
66 19.67
67 82.57
68 5.12
77 12.72
78 5.44
79 35.86
80 42.8
81 3.51
91 8.07
92 1.02
93 13.48
94 1.12
107 1.6
108 11.41
109 1.08

$$$$

     RDKit          2D

  8  8  0  0  0  0  0  0  0  0999 V2000
  -10.8500    6.0400    0.0000 C   0  0  0  0  0  0  0  0  0  0  0  0
  -11.3900    4.6400    0.0000 C   0  0  0  0  0  0  0  0  0  0  0  0
   -9.4800    6.6500    0.0000 C   0  0  0  0  0  0  0  0  0  0  0  0
  -10.7800    3.2700    0.0000 C   0  0  0  0  0  0  0  0  0  0  0  0
   -8.0800    6.1100    0.0000 C   0  0  0  0  0  0  0  0  0  0  0  0
   -9.3800    2.7300    0.0000 C   0  0  0  0  0  0  0  0  0  0  0  0
   -7.4700    4.7400    0.0000 C   0  0  0  0  0  0  0  0  0  0  0  0
   -8.0100    3.3400    0.0000 C   0  0  0  0  0  0  0  0  0  0  0  0
  2  1  1  0
  1  3  2  0
  2  4  2  0
  5  3  1  0
  6  4  1  0
  7  5  1  0
  8  6  1  0
  8  7  1  0
M  END
>  <NAME>  (6468) 
1.3-CYCLOOCTADIENE

>  <SYNONYMS>  (6468) 


>  <SPECTRUM TYPE>  (6468) 
MS1

>  <INSTRUMENT TYPE>  (6468) 
EI-B

>  <INSTRUMENT>  (6468) 
HITACHI RMU-6M

>  <ION MODE>  (6468) 
P

>  <INCHIKEY>  (6468) 
RRKODOZNUZCUBN-CCAGOZQPSA-N

>  <FORMULA>  (6468) 
C8H12

>  <EXACT MASS>  (6468) 
108.093900384

>  <MW>  (6468) 
108

>  <ID>  (6468) 
JP001557

>  <CONTRIBUTOR>  (6468) 
University of Tokyo Team, {Faculty of Engineering, University of Tokyo

>  <COMMENT>  (6468) 
SMILES=C(C1)CC=CC=CC1
InChI=InChI=1S/C8H12/c1-2-4-6-8-7-5-3-1/h1-4H,5-8H2/b3-1-,4-2-
computed SMILES=C=1C=CCCCCC1
accession=JP001557
date=2016.01.19 (Created 2008.10.21, modified 2011.05.06)
author=YAMAMOTO M, DEP. CHEMISTRY, FAC. SCIENCE, NARA WOMEN'S UNIV.
license=CC BY-NC-SA
exact mass=108.0939
ionization energy=70 eV
ion type=[M]+*
computed spectral entropy=2.9454996521212133
computed normalized entropy=0.8284701247751476
SPLASH=splash10-004l-9000000000-b2dc85088642111216e7
submitter=submitter = University of Tokyo Team (Faculty of Engineering, University of Tokyo)
MoNA Rating=3.75

>  <NUM PEAKS>  (6468) 
35

>  <MASS SPECTRAL PEAKS>  (6468) 
26 2.28
27 21.86
28 3.45
29 3.92
38 3.33
39 38.48
40 5.54
41 28.6
42 1.51
50 6.05
51 13.92
52 8.58
53 10.23
54 13.51
55 2.3
62 1.36
63 3.8
65 14.39
66 19.2
67 52.54
68 3.69
74 1.06
77 31.19
78 12.12
79 99.99
80 54.13
81 4.87
91 18.93
92 2.36
93 50.45
94 4.01
105 1.48
107 3.86
108 44.28
109 3.93

$$$$

     RDKit          2D

  8  8  0  0  0  0  0  0  0  0999 V2000
  -10.4600    6.3600    0.0000 C   0  0  0  0  0  0  0  0  0  0  0  0
  -11.3400    5.1500    0.0000 C   0  0  0  0  0  0  0  0  0  0  0  0
   -9.0300    5.9000    0.0000 C   0  0  0  0  0  0  0  0  0  0  0  0
  -10.4600    3.9300    0.0000 C   0  0  0  0  0  0  0  0  0  0  0  0
   -7.6000    6.3600    0.0000 C   0  0  0  0  0  0  0  0  0  0  0  0
   -9.0300    4.4000    0.0000 C   0  0  0  0  0  0  0  0  0  0  0  0
   -6.7200    5.1500    0.0000 C   0  0  0  0  0  0  0  0  0  0  0  0
   -7.6000    3.9300    0.0000 C   0  0  0  0  0  0  0  0  0  0  0  0
  1  2  2  0
  3  1  1  0
  4  2  1  0
  5  3  1  0
  6  4  1  0
  7  5  1  0
  8  6  1  0
  8  7  1  0
M  END
>  <NAME>  (6469) 
CYCLOOCTENE

>  <SYNONYMS>  (6469) 


>  <SPECTRUM TYPE>  (6469) 
MS1

>  <INSTRUMENT TYPE>  (6469) 
EI-B

>  <INSTRUMENT>  (6469) 
HITACHI RMU-6M

>  <ION MODE>  (6469) 
P

>  <INCHIKEY>  (6469) 
URYYVOIYTNXXBN-UPHRSURJSA-N

>  <FORMULA>  (6469) 
C8H14

>  <EXACT MASS>  (6469) 
110.109550448

>  <MW>  (6469) 
110

>  <ID>  (6469) 
JP001556

>  <CONTRIBUTOR>  (6469) 
University of Tokyo Team, {Faculty of Engineering, University of Tokyo

>  <COMMENT>  (6469) 
SMILES=C(C1)CCC=CCC1
InChI=InChI=1S/C8H14/c1-2-4-6-8-7-5-3-1/h1-2H,3-8H2/b2-1-
computed SMILES=C1=CCCCCCC1
accession=JP001556
date=2016.01.19 (Created 2008.10.21, modified 2011.05.06)
author=YAMAMOTO M, DEP. CHEMISTRY, FAC. SCIENCE, NARA WOMEN'S UNIV.
license=CC BY-NC-SA
exact mass=110.10955
ionization energy=70 eV
ion type=[M]+*
computed spectral entropy=2.9568737218370504
computed normalized entropy=0.8015642036064546
SPLASH=splash10-0gc3-9000000000-7e2958cf3e602fe1f7d4
submitter=submitter = University of Tokyo Team (Faculty of Engineering, University of Tokyo)
MoNA Rating=3.75

>  <NUM PEAKS>  (6469) 
40

>  <MASS SPECTRAL PEAKS>  (6469) 
15 1.56
26 2.19
27 27.26
28 6.89
29 11.41
38 2.31
39 42.47
40 8.09
41 74.54
42 7.49
43 4.26
50 2.58
51 6.23
52 3.6
53 18.18
54 81.04
55 24.32
56 10.1
63 1.44
65 5.24
66 6.02
67 99.99
68 39.2
69 16.12
70 2.82
77 4.32
78 1.26
79 6.95
80 3.54
81 45.07
82 67.51
83 5.54
84 1.2
91 1.68
93 1.2
94 17.43
95 1.53
109 1.14
110 36.6
111 3.18

$$$$

     RDKit          2D

  8  8  0  0  0  0  0  0  0  0999 V2000
  -10.4600    6.3600    0.0000 C   0  0  0  0  0  0  0  0  0  0  0  0
  -11.3400    5.1500    0.0000 C   0  0  0  0  0  0  0  0  0  0  0  0
   -9.0300    5.9000    0.0000 C   0  0  0  0  0  0  0  0  0  0  0  0
  -10.4600    3.9300    0.0000 C   0  0  0  0  0  0  0  0  0  0  0  0
   -7.6000    6.3600    0.0000 C   0  0  0  0  0  0  0  0  0  0  0  0
   -9.0300    4.4000    0.0000 C   0  0  0  0  0  0  0  0  0  0  0  0
   -6.7200    5.1500    0.0000 C   0  0  0  0  0  0  0  0  0  0  0  0
   -7.6000    3.9300    0.0000 C   0  0  0  0  0  0  0  0  0  0  0  0
  2  1  1  0
  3  1  1  0
  4  2  1  0
  5  3  1  0
  6  4  1  0
  7  5  1  0
  8  6  1  0
  8  7  1  0
M  END
>  <NAME>  (6470) 
CYCLOOCTANE

>  <SYNONYMS>  (6470) 


>  <SPECTRUM TYPE>  (6470) 
MS1

>  <INSTRUMENT TYPE>  (6470) 
EI-B

>  <INSTRUMENT>  (6470) 
HITACHI RMU-6M

>  <ION MODE>  (6470) 
P

>  <INCHIKEY>  (6470) 
WJTCGQSWYFHTAC-UHFFFAOYSA-N

>  <FORMULA>  (6470) 
C8H16

>  <EXACT MASS>  (6470) 
112.12520051199999

>  <MW>  (6470) 
112

>  <ID>  (6470) 
JP001555

>  <CONTRIBUTOR>  (6470) 
University of Tokyo Team, {Faculty of Engineering, University of Tokyo

>  <COMMENT>  (6470) 
SMILES=C(C1)CCCCCC1
InChI=InChI=1S/C8H16/c1-2-4-6-8-7-5-3-1/h1-8H2
computed SMILES=C1CCCCCCC1
accession=JP001555
date=2016.01.19 (Created 2008.10.21, modified 2011.05.06)
author=YAMAMOTO M, DEP. CHEMISTRY, FAC. SCIENCE, NARA WOMEN'S UNIV.
license=CC BY-NC-SA
exact mass=112.1252
ionization energy=70 eV
ion type=[M]+*
computed spectral entropy=2.956310316643834
computed normalized entropy=0.8315108016190602
SPLASH=splash10-052f-9000000000-3a71cce4bc38b278a56c
submitter=submitter = University of Tokyo Team (Faculty of Engineering, University of Tokyo)
MoNA Rating=3.75

>  <NUM PEAKS>  (6470) 
35

>  <MASS SPECTRAL PEAKS>  (6470) 
15 1.89
26 2.08
27 31.62
28 8.87
29 26.88
38 1.42
39 36.07
40 6.6
41 95.15
42 61.56
43 43.9
44 1.61
50 1.2
51 2.84
52 1.44
53 8.41
54 10.97
55 88.09
56 99.99
57 15.99
65 1.64
67 11.46
68 21.46
69 55.64
70 63.32
71 7.92
79 1.18
81 1.67
82 11.71
83 51.49
84 39.12
85 2.63
97 9.12
112 63.97
113 5.62

$$$$

     RDKit          2D

  7  7  0  0  0  0  0  0  0  0999 V2000
    0.0000    1.5000    0.0000 C   0  0  0  0  0  0  0  0  0  0  0  0
    0.0000    0.0000    0.0000 C   0  0  0  0  0  0  0  0  0  0  0  0
   -1.1727    2.4352    0.0000 C   0  0  0  0  0  0  0  0  0  0  0  0
   -1.1727   -0.9352    0.0000 C   0  0  0  0  0  0  0  0  0  0  0  0
   -2.6351    2.1015    0.0000 C   0  0  0  0  0  0  0  0  0  0  0  0
   -2.6351   -0.6015    0.0000 C   0  0  0  0  0  0  0  0  0  0  0  0
   -3.2860    0.7500    0.0000 C   0  0  0  0  0  0  0  0  0  0  0  0
  2  1  2  0
  3  1  1  0
  4  2  1  0
  5  3  2  0
  6  4  2  0
  7  5  1  0
  7  6  1  0
M  END
>  <NAME>  (6471) 
CYCLOHEPTATRIENE

>  <SYNONYMS>  (6471) 


>  <SPECTRUM TYPE>  (6471) 
MS1

>  <INSTRUMENT TYPE>  (6471) 
EI-B

>  <INSTRUMENT>  (6471) 
HITACHI RMU-6M

>  <ION MODE>  (6471) 
P

>  <INCHIKEY>  (6471) 
CHVJITGCYZJHLR-UHFFFAOYSA-N

>  <FORMULA>  (6471) 
C7H8

>  <EXACT MASS>  (6471) 
92.062600256

>  <MW>  (6471) 
92

>  <ID>  (6471) 
JP001554

>  <CONTRIBUTOR>  (6471) 
University of Tokyo Team, {Faculty of Engineering, University of Tokyo

>  <COMMENT>  (6471) 
SMILES=C(C=1)C=CC=CC1
InChI=InChI=1S/C7H8/c1-2-4-6-7-5-3-1/h1-6H,7H2
computed SMILES=C1=CC=CCC=C1
accession=JP001554
date=2016.01.19 (Created 2008.10.21, modified 2011.05.06)
author=YAMAMOTO M, DEP. CHEMISTRY, FAC. SCIENCE, NARA WOMEN'S UNIV.
license=CC BY-NC-SA
exact mass=92.0626
ionization energy=70 eV
ion type=[M]+*
computed spectral entropy=2.252999427883974
computed normalized entropy=0.6761287973184796
SPLASH=splash10-0006-9000000000-0aef34a2a88c90bb79c6
submitter=submitter = University of Tokyo Team (Faculty of Engineering, University of Tokyo)
MoNA Rating=3.75

>  <NUM PEAKS>  (6471) 
28

>  <MASS SPECTRAL PEAKS>  (6471) 
26 1.15
27 4.27
37 1.96
38 4.48
39 19.16
40 2.9
41 1.94
43 1.19
45 2.54
45.5 1.18
46 1.54
50 4.03
51 6.94
52 2.2
53 1.85
61 2.04
62 4
63 8.94
64 2.03
65 20
66 3.57
77 1.97
79 1.3
89 3.77
90 1.58
91 99.99
92 49.44
93 3.81

$$$$

     RDKit          2D

 12 13  0  0  0  0  0  0  0  0999 V2000
    3.2476   -0.0550    0.0000 C   0  0  0  0  0  0  0  0  0  0  0  0
   -3.2476    3.6950    0.0000 C   0  0  0  0  0  0  0  0  0  0  0  0
    3.2481    1.4458    0.0000 C   0  0  0  0  0  0  0  0  0  0  0  0
    1.9481   -0.8058    0.0000 C   0  0  0  0  0  0  0  0  0  0  0  0
   -3.2481    2.1942    0.0000 C   0  0  0  0  0  0  0  0  0  0  0  0
   -1.9481    4.4458    0.0000 C   0  0  0  0  0  0  0  0  0  0  0  0
    1.9490    2.1958    0.0000 C   0  0  0  0  0  0  0  0  0  0  0  0
    0.6490   -0.0558    0.0000 C   0  0  0  0  0  0  0  0  0  0  0  0
   -1.9490    1.4442    0.0000 C   0  0  0  0  0  0  0  0  0  0  0  0
   -0.6490    3.6958    0.0000 C   0  0  0  0  0  0  0  0  0  0  0  0
    0.6495    1.4450    0.0000 C   0  0  0  0  0  0  0  0  0  0  0  0
   -0.6495    2.1950    0.0000 C   0  0  0  0  0  0  0  0  0  0  0  0
  3  1  2  0
  4  1  1  0
  5  2  1  0
  6  2  1  0
  7  3  1  0
  8  4  2  0
  9  5  1  0
 10  6  1  0
 11  7  2  0
 11  8  1  0
 12  9  1  0
 12 10  1  0
 12 11  1  0
M  END
>  <NAME>  (6472) 
PHENYLCYCLOHEXANE

>  <SYNONYMS>  (6472) 
CYCLOHEXYLBENZENE

>  <SPECTRUM TYPE>  (6472) 
MS1

>  <INSTRUMENT TYPE>  (6472) 
EI-B

>  <INSTRUMENT>  (6472) 
HITACHI RMU-6M

>  <ION MODE>  (6472) 
P

>  <INCHIKEY>  (6472) 
IGARGHRYKHJQSM-UHFFFAOYSA-N

>  <FORMULA>  (6472) 
C12H16

>  <EXACT MASS>  (6472) 
160.125200512

>  <MW>  (6472) 
160

>  <ID>  (6472) 
JP001553

>  <CONTRIBUTOR>  (6472) 
University of Tokyo Team, {Faculty of Engineering, University of Tokyo

>  <COMMENT>  (6472) 
SMILES=C(C2)CCC(C2)c(c1)cccc1
InChI=InChI=1S/C12H16/c1-3-7-11(8-4-1)12-9-5-2-6-10-12/h1,3-4,7-8,12H,2,5-6,9-10H2
computed SMILES=C=1C=CC(=CC1)C2CCCCC2
license=CC BY-NC-SA
accession=JP001553
date=2016.01.19 (Created 2008.10.21, modified 2011.05.06)
author=YAMAMOTO M, DEP. CHEMISTRY, FAC. SCIENCE, NARA WOMEN'S UNIV.
exact mass=160.1252
ionization energy=70 eV
ion type=[M]+*
computed spectral entropy=3.1083560370677628
computed normalized entropy=0.7655214046827534
SPLASH=splash10-0i03-6900000000-40570fe13d98eec15bbb
submitter=submitter = University of Tokyo Team (Faculty of Engineering, University of Tokyo)
MoNA Rating=3.75

>  <NUM PEAKS>  (6472) 
58

>  <MASS SPECTRAL PEAKS>  (6472) 
27 7.44
28 1.73
29 4.41
38 1
39 11.9
40 1.26
41 12.9
42 1
43 1
44 1.05
50 2.88
51 9.02
52 2.99
53 4.32
54 3.46
55 3.98
62 1.26
63 4.51
64 2.15
65 8.91
66 1.21
67 8.12
68 2.78
69 5.19
74 1.05
75 1.42
76 2.1
77 11.22
78 11.69
79 3.99
81 2.15
82 6.29
83 1.21
89 3.04
90 1.05
91 60.7
92 22.07
93 2.05
102 2.99
103 9.33
104 99.99
105 15.25
115 13.27
116 4.72
117 79.46
118 14.68
119 1.99
127 1.47
128 3.1
129 3.2
130 1.68
131 8.23
132 3.04
145 1.47
159 1.21
160 69.76
161 9.96
162 1.05

$$$$

     RDKit          2D

  6  6  0  0  0  0  0  0  0  0999 V2000
   -1.3000    0.7500    0.0000 C   0  0  0  0  0  0  0  0  0  0  0  0
    0.0000    1.5000    0.0000 C   0  0  0  0  0  0  0  0  0  0  0  0
   -1.3000   -0.7500    0.0000 C   0  0  0  0  0  0  0  0  0  0  0  0
    1.3000    0.7500    0.0000 C   0  0  0  0  0  0  0  0  0  0  0  0
   -0.0000   -1.5000    0.0000 C   0  0  0  0  0  0  0  0  0  0  0  0
    1.3000   -0.7500    0.0000 C   0  0  0  0  0  0  0  0  0  0  0  0
  2  1  2  0
  3  1  1  0
  4  2  1  0
  5  3  1  0
  6  4  1  0
  6  5  1  0
M  END
>  <NAME>  (6473) 
CYCLOHEXENE

>  <SYNONYMS>  (6473) 


>  <SPECTRUM TYPE>  (6473) 
MS1

>  <INSTRUMENT TYPE>  (6473) 
EI-B

>  <INSTRUMENT>  (6473) 
HITACHI RMU-6M

>  <ION MODE>  (6473) 
P

>  <INCHIKEY>  (6473) 
HGCIXCUEYOPUTN-UHFFFAOYSA-N

>  <FORMULA>  (6473) 
C6H10

>  <EXACT MASS>  (6473) 
82.07825032

>  <MW>  (6473) 
82

>  <ID>  (6473) 
JP001552

>  <CONTRIBUTOR>  (6473) 
University of Tokyo Team, {Faculty of Engineering, University of Tokyo

>  <COMMENT>  (6473) 
SMILES=C(C1)CC=CC1
InChI=InChI=1S/C6H10/c1-2-4-6-5-3-1/h1-2H,3-6H2
computed SMILES=C1=CCCCC1
accession=JP001552
date=2016.01.19 (Created 2008.10.21, modified 2011.05.06)
author=YAMAMOTO M, DEP. CHEMISTRY, FAC. SCIENCE, NARA WOMEN'S UNIV.
license=CC BY-NC-SA
exact mass=82.07825
ionization energy=70 eV
ion type=[M]+*
computed spectral entropy=2.52451597225991
computed normalized entropy=0.7497161222897516
SPLASH=splash10-0gb9-9000000000-8be3bedc6ca04cf9c466
submitter=submitter = University of Tokyo Team (Faculty of Engineering, University of Tokyo)
MoNA Rating=3.75

>  <NUM PEAKS>  (6473) 
29

>  <MASS SPECTRAL PEAKS>  (6473) 
15 1.2
26 3.29
27 18.01
28 3.69
29 2.79
37 1.28
38 3.16
39 33.65
40 4.6
41 35.69
42 2.79
50 5.23
51 8.04
52 3.88
53 11.71
54 72.01
55 5.15
63 1.38
65 3.88
66 2.58
67 99.99
68 5.88
77 4.97
78 1.43
79 6.77
80 1.04
81 10.72
82 38.65
83 2.59

$$$$

     RDKit          2D

  6  6  0  0  0  0  0  0  0  0999 V2000
   -1.3000    0.7500    0.0000 C   0  0  0  0  0  0  0  0  0  0  0  0
    0.0000    1.5000    0.0000 C   0  0  0  0  0  0  0  0  0  0  0  0
   -1.3000   -0.7500    0.0000 C   0  0  0  0  0  0  0  0  0  0  0  0
    1.3000    0.7500    0.0000 C   0  0  0  0  0  0  0  0  0  0  0  0
   -0.0000   -1.5000    0.0000 C   0  0  0  0  0  0  0  0  0  0  0  0
    1.3000   -0.7500    0.0000 C   0  0  0  0  0  0  0  0  0  0  0  0
  2  1  1  0
  3  1  1  0
  4  2  1  0
  5  3  1  0
  6  4  1  0
  6  5  1  0
M  END
>  <NAME>  (6474) 
CYCLOHEXANE

>  <SYNONYMS>  (6474) 


>  <SPECTRUM TYPE>  (6474) 
MS1

>  <INSTRUMENT TYPE>  (6474) 
EI-B

>  <INSTRUMENT>  (6474) 
HITACHI RMU-6M

>  <ION MODE>  (6474) 
P

>  <INCHIKEY>  (6474) 
XDTMQSROBMDMFD-UHFFFAOYSA-N

>  <FORMULA>  (6474) 
C6H12

>  <EXACT MASS>  (6474) 
84.093900384

>  <MW>  (6474) 
84

>  <ID>  (6474) 
JP001551

>  <CONTRIBUTOR>  (6474) 
University of Tokyo Team, {Faculty of Engineering, University of Tokyo

>  <COMMENT>  (6474) 
SMILES=C(C1)CCCC1
InChI=InChI=1S/C6H12/c1-2-4-6-5-3-1/h1-6H2
computed SMILES=C1CCCCC1
exact mass=84.0939
accession=JP001551
date=2016.01.19 (Created 2008.10.21, modified 2011.05.06)
author=YAMAMOTO M, DEP. CHEMISTRY, FAC. SCIENCE, NARA WOMEN'S UNIV.
license=CC BY-NC-SA
ionization energy=70 eV
ion type=[M]+*
computed spectral entropy=1.2242818746891557
computed normalized entropy=0.3757659910938721
SPLASH=splash10-0a4i-9000000000-fa371e4a0a1a00f32fb2
submitter=submitter = University of Tokyo Team (Faculty of Engineering, University of Tokyo)
MoNA Rating=3.75

>  <NUM PEAKS>  (6474) 
26

>  <MASS SPECTRAL PEAKS>  (6474) 
15 0.1
26 0.19
27 1.54
28 0.71
29 0.8
38 0.16
39 2.13
40 0.49
41 5.34
42 2.46
43 1.11
50 0.18
51 0.29
52 0.12
53 0.47
54 0.61
55 3.44
56 99.99
57 0.46
67 0.33
68 0.23
69 3.02
70 0.16
83 0.59
84 9.89
85 0.66

$$$$

     RDKit          2D

 13 13  0  0  0  0  0  0  0  0999 V2000
   -3.1900    1.5500    0.0000 C   0  0  0  0  0  0  0  0  0  0  0  0
   -2.4400    0.2500    0.0000 C   0  0  0  0  0  0  0  0  0  0  0  0
   -2.4400    2.8500    0.0000 C   0  0  0  0  0  0  0  0  0  0  0  0
   -0.9400    0.2500    0.0000 C   0  0  0  0  0  0  0  0  0  0  0  0
   -0.9400    2.8500    0.0000 C   0  0  0  0  0  0  0  0  0  0  0  0
   -0.1900   -1.0500    0.0000 C   0  0  0  0  0  0  0  0  0  0  0  0
   -0.1900    4.1500    0.0000 C   0  0  0  0  0  0  0  0  0  0  0  0
    1.3100   -1.0500    0.0000 C   0  0  0  0  0  0  0  0  0  0  0  0
    1.3100    4.1500    0.0000 C   0  0  0  0  0  0  0  0  0  0  0  0
    2.0600    0.2500    0.0000 C   0  0  0  0  0  0  0  0  0  0  0  0
    2.0600    2.8500    0.0000 C   0  0  0  0  0  0  0  0  0  0  0  0
    1.3100    1.5500    0.0000 C   0  0  0  0  0  0  0  0  0  0  0  0
   -0.1900    1.5500    0.0000 O   0  0  0  0  0  0  0  0  0  0  0  0
  2  1  1  0
  3  1  1  0
  4  2  1  0
  5  3  1  0
  6  4  1  0
  7  5  1  0
  8  6  1  0
  9  7  1  0
 10  8  1  0
 11  9  1  0
 12 10  1  0
 12 11  1  0
 13 12  1  0
M  END
>  <NAME>  (6475) 
CYCLODODECANOL

>  <SYNONYMS>  (6475) 


>  <SPECTRUM TYPE>  (6475) 
MS1

>  <INSTRUMENT TYPE>  (6475) 
EI-B

>  <INSTRUMENT>  (6475) 
HITACHI RMU-6M

>  <ION MODE>  (6475) 
P

>  <INCHIKEY>  (6475) 
SFVWPXMPRCIVOK-UHFFFAOYSA-N

>  <FORMULA>  (6475) 
C12H24O

>  <EXACT MASS>  (6475) 
184.182715388

>  <MW>  (6475) 
184

>  <ID>  (6475) 
JP001550

>  <CONTRIBUTOR>  (6475) 
University of Tokyo Team, {Faculty of Engineering, University of Tokyo

>  <COMMENT>  (6475) 
SMILES=OC(C1)CCCCCCCCCC1
InChI=InChI=1S/C12H24O/c13-12-10-8-6-4-2-1-3-5-7-9-11-12/h12-13H,1-11H2
computed SMILES=OC1CCCCCCCCCCC1
accession=JP001550
date=2016.01.19 (Created 2008.10.21, modified 2011.05.06)
author=YAMAMOTO M, DEP. CHEMISTRY, FAC. SCIENCE, NARA WOMEN'S UNIV.
license=CC BY-NC-SA
exact mass=184.18272
ionization energy=70 eV
ion type=[M]+*
computed spectral entropy=3.5910414721051938
computed normalized entropy=0.8540556461949751
SPLASH=splash10-067l-9100000000-b7a488ce86cf3c38ed05
submitter=submitter = University of Tokyo Team (Faculty of Engineering, University of Tokyo)
MoNA Rating=3.75

>  <NUM PEAKS>  (6475) 
67

>  <MASS SPECTRAL PEAKS>  (6475) 
15 1.39
27 25.04
28 9.21
29 43.14
30 1.86
31 10.95
39 21.96
40 4.66
41 97.28
42 25.32
43 46.92
44 24.39
45 10.37
51 1.31
53 9.79
54 34.26
55 96.71
56 32.04
57 64.66
58 9.1
59 2.3
65 1.83
66 13.18
67 67.45
68 69.31
69 45.21
70 20.75
71 21.92
72 7.49
73 1.54
77 1.35
79 4.02
80 4.23
81 51
82 99.99
83 36.77
84 12.71
85 13.24
86 2.82
93 1.63
94 2.95
95 37.55
96 58.94
97 21.74
98 10.3
99 4.42
100 1
108 1.35
109 20.39
110 24.04
111 9.98
112 4.68
113 1.8
122 1.07
123 10.65
124 11.64
125 2.37
127 1.04
137 6.02
138 13.88
139 1.97
140 13.51
141 2.39
156 2.67
166 12.71
167 2.05
184 1.3

$$$$

     RDKit          2D

  6  6  0  0  0  0  0  0  0  0999 V2000
    2.0279    0.1311    0.0000 C   0  0  0  0  0  0  0  0  0  0  0  0
    1.2779   -1.1679    0.0000 C   0  0  0  0  0  0  0  0  0  0  0  0
    0.9958    1.2235    0.0000 C   0  0  0  0  0  0  0  0  0  0  0  0
   -0.1745   -0.8836    0.0000 C   0  0  0  0  0  0  0  0  0  0  0  0
   -0.3540    0.6056    0.0000 C   0  0  0  0  0  0  0  0  0  0  0  0
   -1.6625    1.3389    0.0000 O   0  0  0  0  0  0  0  0  0  0  0  0
  2  1  1  0
  3  1  1  0
  4  2  1  0
  5  3  1  0
  5  4  1  0
  6  5  1  0
M  END
>  <NAME>  (6476) 
CYCLOPENTANOL

>  <SYNONYMS>  (6476) 


>  <SPECTRUM TYPE>  (6476) 
MS1

>  <INSTRUMENT TYPE>  (6476) 
EI-B

>  <INSTRUMENT>  (6476) 
HITACHI RMU-6M

>  <ION MODE>  (6476) 
P

>  <INCHIKEY>  (6476) 
XCIXKGXIYUWCLL-UHFFFAOYSA-N

>  <FORMULA>  (6476) 
C5H10O

>  <EXACT MASS>  (6476) 
86.07316494

>  <MW>  (6476) 
86

>  <ID>  (6476) 
JP001549

>  <CONTRIBUTOR>  (6476) 
University of Tokyo Team, {Faculty of Engineering, University of Tokyo

>  <COMMENT>  (6476) 
SMILES=OC(C1)CCC1
InChI=InChI=1S/C5H10O/c6-5-3-1-2-4-5/h5-6H,1-4H2
computed SMILES=OC1CCCC1
accession=JP001549
date=2016.01.19 (Created 2008.10.21, modified 2011.05.06)
author=YAMAMOTO M, DEP. CHEMISTRY, FAC. SCIENCE, NARA WOMEN'S UNIV.
license=CC BY-NC-SA
exact mass=86.07316
ionization energy=70 eV
ion type=[M]+*
computed spectral entropy=2.505459829377958
computed normalized entropy=0.7601892724792001
SPLASH=splash10-0a4i-9000000000-9389121d6ebc5c87496c
submitter=submitter = University of Tokyo Team (Faculty of Engineering, University of Tokyo)
MoNA Rating=3.75

>  <NUM PEAKS>  (6476) 
27

>  <MASS SPECTRAL PEAKS>  (6476) 
15 2.37
26 2.37
27 11.3
28 5.46
29 11.11
30 3.21
31 5.56
38 1.64
39 11.45
40 3.96
41 15.69
42 4.36
43 8.7
44 34.84
45 5.31
51 1
53 2.12
55 2.55
56 1.76
57 99.99
58 13.77
67 5.87
68 6.89
69 2.09
71 3.88
85 1.02
86 12.86

$$$$

     RDKit          2D

 13 13  0  0  0  0  0  0  0  0999 V2000
   -3.1900    1.5500    0.0000 C   0  0  0  0  0  0  0  0  0  0  0  0
   -2.4400    0.2500    0.0000 C   0  0  0  0  0  0  0  0  0  0  0  0
   -2.4400    2.8500    0.0000 C   0  0  0  0  0  0  0  0  0  0  0  0
   -0.9400    0.2500    0.0000 C   0  0  0  0  0  0  0  0  0  0  0  0
   -0.9400    2.8500    0.0000 C   0  0  0  0  0  0  0  0  0  0  0  0
   -0.1900   -1.0500    0.0000 C   0  0  0  0  0  0  0  0  0  0  0  0
   -0.1900    4.1500    0.0000 C   0  0  0  0  0  0  0  0  0  0  0  0
    1.3100   -1.0500    0.0000 C   0  0  0  0  0  0  0  0  0  0  0  0
    1.3100    4.1500    0.0000 C   0  0  0  0  0  0  0  0  0  0  0  0
    2.0600    0.2500    0.0000 C   0  0  0  0  0  0  0  0  0  0  0  0
    2.0600    2.8500    0.0000 C   0  0  0  0  0  0  0  0  0  0  0  0
    1.3100    1.5500    0.0000 C   0  0  0  0  0  0  0  0  0  0  0  0
   -0.1900    1.5500    0.0000 O   0  0  0  0  0  0  0  0  0  0  0  0
  2  1  1  0
  3  1  1  0
  4  2  1  0
  5  3  1  0
  6  4  1  0
  7  5  1  0
  8  6  1  0
  9  7  1  0
 10  8  1  0
 11  9  1  0
 12 10  1  0
 12 11  1  0
 13 12  2  0
M  END
>  <NAME>  (6477) 
CYCLODODECANONE

>  <SYNONYMS>  (6477) 


>  <SPECTRUM TYPE>  (6477) 
MS1

>  <INSTRUMENT TYPE>  (6477) 
EI-B

>  <INSTRUMENT>  (6477) 
HITACHI RMU-6M

>  <ION MODE>  (6477) 
P

>  <INCHIKEY>  (6477) 
SXVPOSFURRDKBO-UHFFFAOYSA-N

>  <FORMULA>  (6477) 
C12H22O

>  <EXACT MASS>  (6477) 
182.167065324

>  <MW>  (6477) 
182

>  <ID>  (6477) 
JP001548

>  <CONTRIBUTOR>  (6477) 
University of Tokyo Team, {Faculty of Engineering, University of Tokyo

>  <COMMENT>  (6477) 
SMILES=O=C(C1)CCCCCCCCCC1
InChI=InChI=1S/C12H22O/c13-12-10-8-6-4-2-1-3-5-7-9-11-12/h1-11H2
computed SMILES=O=C1CCCCCCCCCCC1
accession=JP001548
date=2016.01.19 (Created 2008.10.21, modified 2011.05.06)
author=YAMAMOTO M, DEP. CHEMISTRY, FAC. SCIENCE, NARA WOMEN'S UNIV.
license=CC BY-NC-SA
exact mass=182.16707
ionization energy=70 eV
ion type=[M]+*
computed spectral entropy=3.732896770152939
computed normalized entropy=0.8568157567209624
SPLASH=splash10-0a4l-9100000000-9ec8a117768df777e2ed
submitter=submitter = University of Tokyo Team (Faculty of Engineering, University of Tokyo)
MoNA Rating=3.75

>  <NUM PEAKS>  (6477) 
78

>  <MASS SPECTRAL PEAKS>  (6477) 
15 1.01
26 1.44
27 30.05
28 13.79
29 37.02
30 1.13
31 1.55
39 26.14
40 6.02
41 99.99
42 31.7
43 1.72
44 1.39
51 1.29
52 1.01
53 9.94
54 14.34
55 84.13
56 30.21
57 14.87
58 73.17
59 23.25
60 1.08
65 1.89
66 2.62
67 20.35
68 19.02
69 34.05
70 19.49
71 68.48
72 7.3
77 1.68
78 1.58
79 7.84
80 8.17
81 19.41
82 33.65
83 28.25
84 23.48
85 8.55
86 3.06
91 1.01
93 7.09
94 6.02
95 11.67
96 15.49
97 24.57
98 45.86
99 7.16
100 4.86
107 5.13
108 5.77
109 4.45
110 3.02
111 31.54
112 11.71
113 2.97
114 4.53
121 5.23
122 10.24
123 2.97
124 15.68
125 19.33
126 6.42
127 2.82
135 6.18
136 1.44
138 1.15
139 12.02
140 2.57
141 1.06
149 2.45
153 2.12
154 1.86
165 2.13
167 2.12
182 31.07
183 4.65

$$$$

     RDKit          2D

  7  7  0  0  0  0  0  0  0  0999 V2000
   -1.6700   -0.9600    0.0000 C   0  0  0  0  0  0  0  0  0  0  0  0
   -1.6700    0.5400    0.0000 C   0  0  0  0  0  0  0  0  0  0  0  0
   -0.3700   -1.7100    0.0000 C   0  0  0  0  0  0  0  0  0  0  0  0
   -0.3700    1.2900    0.0000 C   0  0  0  0  0  0  0  0  0  0  0  0
    0.9300   -0.9600    0.0000 C   0  0  0  0  0  0  0  0  0  0  0  0
    0.9300    0.5400    0.0000 C   0  0  0  0  0  0  0  0  0  0  0  0
    2.2289    1.2902    0.0000 O   0  0  0  0  0  0  0  0  0  0  0  0
  2  1  1  0
  3  1  1  0
  4  2  1  0
  5  3  1  0
  6  4  1  0
  6  5  1  0
  7  6  2  0
M  END
>  <NAME>  (6478) 
CYCLOHEXANONE

>  <SYNONYMS>  (6478) 


>  <SPECTRUM TYPE>  (6478) 
MS1

>  <INSTRUMENT TYPE>  (6478) 
EI-B

>  <INSTRUMENT>  (6478) 
HITACHI RMU-6M

>  <ION MODE>  (6478) 
P

>  <INCHIKEY>  (6478) 
JHIVVAPYMSGYDF-UHFFFAOYSA-N

>  <FORMULA>  (6478) 
C6H10O

>  <EXACT MASS>  (6478) 
98.07316494

>  <MW>  (6478) 
98

>  <ID>  (6478) 
JP001547

>  <CONTRIBUTOR>  (6478) 
University of Tokyo Team, {Faculty of Engineering, University of Tokyo

>  <COMMENT>  (6478) 
SMILES=O=C(C1)CCCC1
InChI=InChI=1S/C6H10O/c7-6-4-2-1-3-5-6/h1-5H2
computed SMILES=O=C1CCCCC1
accession=JP001547
date=2016.01.19 (Created 2008.10.21, modified 2011.05.06)
computed normalized entropy=0.7935872725712161
author=YAMAMOTO M, DEP. CHEMISTRY, FAC. SCIENCE, NARA WOMEN'S UNIV.
license=CC BY-NC-SA
exact mass=98.07316
ionization energy=70 eV
ion type=[M]+*
computed spectral entropy=2.725168539651822
SPLASH=splash10-052f-9000000000-88641988de1851f0ca4a
submitter=submitter = University of Tokyo Team (Faculty of Engineering, University of Tokyo)
MoNA Rating=3.75

>  <NUM PEAKS>  (6478) 
31

>  <MASS SPECTRAL PEAKS>  (6478) 
14 1.53
15 3.26
26 4.9
27 26.23
28 10.7
29 9.08
37 1.55
38 3.75
39 27.88
40 7.7
41 38.48
42 64.13
43 12.2
50 2.15
51 2.28
52 1.13
53 3.36
54 8.9
55 99.99
56 10.9
57 1.85
67 1.15
68 1.03
69 32.23
70 24.78
71 2.28
80 6.78
81 10.11
97 3.18
98 45.21
99 3.38

$$$$

     RDKit          2D

  6  6  0  0  0  0  0  0  0  0999 V2000
    2.0279    0.1311    0.0000 C   0  0  0  0  0  0  0  0  0  0  0  0
    1.2779   -1.1679    0.0000 C   0  0  0  0  0  0  0  0  0  0  0  0
    0.9958    1.2235    0.0000 C   0  0  0  0  0  0  0  0  0  0  0  0
   -0.1745   -0.8836    0.0000 C   0  0  0  0  0  0  0  0  0  0  0  0
   -0.3540    0.6056    0.0000 C   0  0  0  0  0  0  0  0  0  0  0  0
   -1.6625    1.3389    0.0000 O   0  0  0  0  0  0  0  0  0  0  0  0
  2  1  1  0
  3  1  1  0
  4  2  1  0
  5  3  1  0
  5  4  1  0
  6  5  2  0
M  END
>  <NAME>  (6479) 
CYCLOPENTANONE

>  <SYNONYMS>  (6479) 


>  <SPECTRUM TYPE>  (6479) 
MS1

>  <INSTRUMENT TYPE>  (6479) 
EI-B

>  <INSTRUMENT>  (6479) 
HITACHI RMU-6M

>  <ION MODE>  (6479) 
P

>  <INCHIKEY>  (6479) 
BGTOWKSIORTVQH-UHFFFAOYSA-N

>  <FORMULA>  (6479) 
C5H8O

>  <EXACT MASS>  (6479) 
84.057514876

>  <MW>  (6479) 
84

>  <ID>  (6479) 
JP001546

>  <CONTRIBUTOR>  (6479) 
University of Tokyo Team, {Faculty of Engineering, University of Tokyo

>  <COMMENT>  (6479) 
SMILES=O=C(C1)CCC1
InChI=InChI=1S/C5H8O/c6-5-3-1-2-4-5/h1-4H2
computed SMILES=O=C1CCCC1
accession=JP001546
date=2016.01.19 (Created 2008.10.21, modified 2011.05.06)
author=YAMAMOTO M, DEP. CHEMISTRY, FAC. SCIENCE, NARA WOMEN'S UNIV.
license=CC BY-NC-SA
exact mass=84.05751
ionization energy=70 eV
ion type=[M]+*
computed spectral entropy=2.3746399452410474
computed normalized entropy=0.7471994094514952
SPLASH=splash10-0a6r-9000000000-b0d14fca06b317eefa20
submitter=submitter = University of Tokyo Team (Faculty of Engineering, University of Tokyo)
MoNA Rating=3.75

>  <NUM PEAKS>  (6479) 
24

>  <MASS SPECTRAL PEAKS>  (6479) 
14 1.7
15 2.32
26 9.67
27 25.66
28 65.24
29 8.31
37 1.8
38 3.01
39 17.19
40 4.17
41 40.44
42 11.78
43 3.82
50 2.71
51 2.56
52 1.05
53 2.74
54 1.51
55 99.99
56 27.09
57 2.13
83 2.05
84 42.39
85 2.72

$$$$

     RDKit          2D

 12 12  0  0  0  0  0  0  0  0999 V2000
   -3.8981   -0.7504    0.0000 C   0  0  0  0  0  0  0  0  0  0  0  0
   -2.5987   -3.0002    0.0000 C   0  0  0  0  0  0  0  0  0  0  0  0
    3.8981    0.7504    0.0000 C   0  0  0  0  0  0  0  0  0  0  0  0
    2.5987    3.0002    0.0000 C   0  0  0  0  0  0  0  0  0  0  0  0
   -1.3000    0.7500    0.0000 C   0  0  0  0  0  0  0  0  0  0  0  0
    0.0000   -1.5000    0.0000 C   0  0  0  0  0  0  0  0  0  0  0  0
    0.0000    1.5000    0.0000 C   0  0  0  0  0  0  0  0  0  0  0  0
    1.3000   -0.7500    0.0000 C   0  0  0  0  0  0  0  0  0  0  0  0
   -2.5989   -1.5002    0.0000 C   0  0  0  0  0  0  0  0  0  0  0  0
    2.5989    1.5002    0.0000 C   0  0  0  0  0  0  0  0  0  0  0  0
   -1.3000   -0.7500    0.0000 C   0  0  0  0  0  0  0  0  0  0  0  0
    1.3000    0.7500    0.0000 C   0  0  0  0  0  0  0  0  0  0  0  0
  7  5  2  0
  8  6  1  0
  9  1  1  0
  9  2  1  0
 10  3  1  0
 10  4  1  0
 11  5  1  0
 11  6  2  0
 11  9  1  0
 12  7  1  0
 12  8  2  0
 12 10  1  0
M  END
>  <NAME>  (6480) 
PARA-DIISOPROPYLBENZENE

>  <SYNONYMS>  (6480) 


>  <SPECTRUM TYPE>  (6480) 
MS1

>  <INSTRUMENT TYPE>  (6480) 
EI-B

>  <INSTRUMENT>  (6480) 
HITACHI RMU-6M

>  <ION MODE>  (6480) 
P

>  <INCHIKEY>  (6480) 
SPPWGCYEYAMHDT-UHFFFAOYSA-N

>  <FORMULA>  (6480) 
C12H18

>  <EXACT MASS>  (6480) 
162.140850576

>  <MW>  (6480) 
162

>  <ID>  (6480) 
JP001545

>  <CONTRIBUTOR>  (6480) 
University of Tokyo Team, {Faculty of Engineering, University of Tokyo

>  <COMMENT>  (6480) 
SMILES=CC(C)c(c1)ccc(C(C)C)c1
InChI=InChI=1S/C12H18/c1-9(2)11-5-7-12(8-6-11)10(3)4/h5-10H,1-4H3
computed SMILES=C=1C=C(C=CC1C(C)C)C(C)C
accession=JP001545
date=2016.01.19 (Created 2008.10.21, modified 2011.05.06)
author=YAMAMOTO M, DEP. CHEMISTRY, FAC. SCIENCE, NARA WOMEN'S UNIV.
license=CC BY-NC-SA
exact mass=162.14085
ionization energy=70 eV
ion type=[M]+*
computed spectral entropy=2.9467865938136875
computed normalized entropy=0.7696689996916196
SPLASH=splash10-0002-4900000000-6e55f07eeef43f87048e
submitter=submitter = University of Tokyo Team (Faculty of Engineering, University of Tokyo)
MoNA Rating=3.75

>  <NUM PEAKS>  (6480) 
46

>  <MASS SPECTRAL PEAKS>  (6480) 
27 5.72
29 1.11
39 5.49
41 11.8
43 22
50 1.26
51 4.55
52 1.16
53 2.31
55 1.57
63 2.31
64 2.35
64.5 1.2
65 4.86
65.5 1.47
66 2.68
77 7.29
78 2.81
79 4.53
89 1.04
91 22.39
92 1.87
102 1.17
103 4.07
104 1.7
105 20.78
106 2.03
115 5.09
116 3.01
117 8.49
118 2.05
119 32.17
120 3.42
127 1.24
128 2.56
129 1.91
131 5.6
132 4.68
133 1.77
145 2.9
146 1.19
147 99.99
148 12.41
161 1.15
162 26.82
163 3.9

$$$$

     RDKit          2D

 11 11  0  0  0  0  0  0  0  0999 V2000
   -3.5281    1.9308    0.0000 C   0  0  0  0  0  0  0  0  0  0  0  0
    0.0342    3.0798    0.0000 C   0  0  0  0  0  0  0  0  0  0  0  0
   -1.8942    3.0798    0.0000 C   0  0  0  0  0  0  0  0  0  0  0  0
   -2.2290    1.1808    0.0000 C   0  0  0  0  0  0  0  0  0  0  0  0
    2.9671   -0.3192    0.0000 C   0  0  0  0  0  0  0  0  0  0  0  0
    2.9676    1.1816    0.0000 C   0  0  0  0  0  0  0  0  0  0  0  0
    1.6676   -1.0701    0.0000 C   0  0  0  0  0  0  0  0  0  0  0  0
    1.6686    1.9316    0.0000 C   0  0  0  0  0  0  0  0  0  0  0  0
    0.3686   -0.3201    0.0000 C   0  0  0  0  0  0  0  0  0  0  0  0
    0.3691    1.1808    0.0000 C   0  0  0  0  0  0  0  0  0  0  0  0
   -0.9300    1.9308    0.0000 C   0  0  0  0  0  0  0  0  0  0  0  0
  4  1  1  0
  6  5  2  0
  7  5  1  0
  8  6  1  0
  9  7  2  0
 10  8  2  0
 10  9  1  0
 11  2  1  0
 11  3  1  0
 11  4  1  0
 11 10  1  0
M  END
>  <NAME>  (6481) 
TERT-PENTYLBENZENE

>  <SYNONYMS>  (6481) 
(1.1-DIMETHYLPROPYL)BENZENE

>  <SPECTRUM TYPE>  (6481) 
MS1

>  <INSTRUMENT TYPE>  (6481) 
EI-B

>  <INSTRUMENT>  (6481) 
HITACHI RMU-6M

>  <ION MODE>  (6481) 
P

>  <INCHIKEY>  (6481) 
QHTJSSMHBLGUHV-UHFFFAOYSA-N

>  <FORMULA>  (6481) 
C11H16

>  <EXACT MASS>  (6481) 
148.125200512

>  <MW>  (6481) 
148

>  <ID>  (6481) 
JP001544

>  <CONTRIBUTOR>  (6481) 
University of Tokyo Team, {Faculty of Engineering, University of Tokyo

>  <COMMENT>  (6481) 
SMILES=CCC(C)(C)c(c1)cccc1
InChI=InChI=1S/C11H16/c1-4-11(2,3)10-8-6-5-7-9-10/h5-9H,4H2,1-3H3
computed SMILES=C=1C=CC(=CC1)C(C)(C)CC
accession=JP001544
ionization energy=70 eV
date=2016.01.19 (Created 2008.10.21, modified 2011.05.06)
author=YAMAMOTO M, DEP. CHEMISTRY, FAC. SCIENCE, NARA WOMEN'S UNIV.
license=CC BY-NC-SA
exact mass=148.1252
ion type=[M]+*
computed spectral entropy=2.5136071266829663
computed normalized entropy=0.7252737072817343
SPLASH=splash10-014l-8900000000-725fcbc7b1c28745e130
submitter=submitter = University of Tokyo Team (Faculty of Engineering, University of Tokyo)
MoNA Rating=3.75

>  <NUM PEAKS>  (6481) 
32

>  <MASS SPECTRAL PEAKS>  (6481) 
27 4.91
29 3.83
39 7.63
41 16.16
43 1.49
50 1.98
51 6.07
52 1.57
53 1.8
55 4.19
63 2.21
65 4.01
75 1.04
76 1.1
77 9.38
78 4.36
79 8.4
91 57.37
92 4.7
102 1.39
103 5.09
104 1.8
105 6.25
115 4.01
116 1.22
117 3.25
118 2.35
119 99.99
120 10.2
133 3.01
148 16.86
149 2.15

$$$$

     RDKit          2D

 10 10  0  0  0  0  0  0  0  0999 V2000
    3.8981    0.7504    0.0000 C   0  0  0  0  0  0  0  0  0  0  0  0
    2.5987    3.0002    0.0000 C   0  0  0  0  0  0  0  0  0  0  0  0
   -2.5989   -1.5002    0.0000 C   0  0  0  0  0  0  0  0  0  0  0  0
   -1.3000    0.7500    0.0000 C   0  0  0  0  0  0  0  0  0  0  0  0
   -0.0000   -1.5000    0.0000 C   0  0  0  0  0  0  0  0  0  0  0  0
    0.0000    1.5000    0.0000 C   0  0  0  0  0  0  0  0  0  0  0  0
    1.3000   -0.7500    0.0000 C   0  0  0  0  0  0  0  0  0  0  0  0
    2.5989    1.5002    0.0000 C   0  0  0  0  0  0  0  0  0  0  0  0
   -1.3000   -0.7500    0.0000 C   0  0  0  0  0  0  0  0  0  0  0  0
    1.3000    0.7500    0.0000 C   0  0  0  0  0  0  0  0  0  0  0  0
  6  4  2  0
  7  5  1  0
  8  1  1  0
  8  2  1  0
  9  3  1  0
  9  4  1  0
  9  5  2  0
 10  6  1  0
 10  7  2  0
 10  8  1  0
M  END
>  <NAME>  (6482) 
1-ISOPROPYL-4-METHYLBENZENE

>  <SYNONYMS>  (6482) 
PARA-CYMENE

>  <SPECTRUM TYPE>  (6482) 
MS1

>  <INSTRUMENT TYPE>  (6482) 
EI-B

>  <INSTRUMENT>  (6482) 
HITACHI RMU-6M

>  <ION MODE>  (6482) 
P

>  <INCHIKEY>  (6482) 
HFPZCAJZSCWRBC-UHFFFAOYSA-N

>  <FORMULA>  (6482) 
C10H14

>  <EXACT MASS>  (6482) 
134.109550448

>  <MW>  (6482) 
134

>  <ID>  (6482) 
JP001543

>  <CONTRIBUTOR>  (6482) 
University of Tokyo Team, {Faculty of Engineering, University of Tokyo

>  <COMMENT>  (6482) 
SMILES=CC(C)c(c1)ccc(C)c1
InChI=InChI=1S/C10H14/c1-8(2)10-6-4-9(3)5-7-10/h4-8H,1-3H3
computed SMILES=C=1C=C(C=CC1C)C(C)C
accession=JP001543
date=2016.01.19 (Created 2008.10.21, modified 2011.05.06)
author=YAMAMOTO M, DEP. CHEMISTRY, FAC. SCIENCE, NARA WOMEN'S UNIV.
license=CC BY-NC-SA
exact mass=134.10955
ionization energy=70 eV
ion type=[M]+*
computed spectral entropy=2.508635083628814
computed normalized entropy=0.7174687998033844
SPLASH=splash10-014i-4900000000-f403355796ccc97b5011
submitter=submitter = University of Tokyo Team (Faculty of Engineering, University of Tokyo)
MoNA Rating=3.75

>  <NUM PEAKS>  (6482) 
33

>  <MASS SPECTRAL PEAKS>  (6482) 
27 3.54
39 7.72
41 8.36
50 1.6
51 4.52
52 1.4
53 1.85
55 1.69
57.5 2.11
58 2.03
58.5 1.81
62 1.02
63 3.23
64 1.35
65 6.68
77 6.63
78 2.35
79 2.68
91 19.27
92 2.15
93 2.87
102 1.1
103 3.28
104 2.57
105 3.28
115 4.86
116 1.53
117 8.63
118 2.14
119 99.99
120 10.48
134 26.06
135 2.9

$$$$

     RDKit          2D

 10 10  0  0  0  0  0  0  0  0999 V2000
    2.0490    0.5210    0.0000 C   0  0  0  0  0  0  0  0  0  0  0  0
    2.5981    2.5700    0.0000 C   0  0  0  0  0  0  0  0  0  0  0  0
    0.5490    3.1190    0.0000 C   0  0  0  0  0  0  0  0  0  0  0  0
   -2.5981   -0.4300    0.0000 C   0  0  0  0  0  0  0  0  0  0  0  0
   -1.2986   -1.1808    0.0000 C   0  0  0  0  0  0  0  0  0  0  0  0
   -2.5986    1.0708    0.0000 C   0  0  0  0  0  0  0  0  0  0  0  0
    0.0005   -0.4308    0.0000 C   0  0  0  0  0  0  0  0  0  0  0  0
   -1.2995    1.8208    0.0000 C   0  0  0  0  0  0  0  0  0  0  0  0
    0.0000    1.0700    0.0000 C   0  0  0  0  0  0  0  0  0  0  0  0
    1.2990    1.8200    0.0000 C   0  0  0  0  0  0  0  0  0  0  0  0
  5  4  2  0
  6  4  1  0
  7  5  1  0
  8  6  2  0
  9  7  2  0
  9  8  1  0
 10  1  1  0
 10  2  1  0
 10  3  1  0
 10  9  1  0
M  END
>  <NAME>  (6483) 
TERT-BUTYLBENZENE

>  <SYNONYMS>  (6483) 


>  <SPECTRUM TYPE>  (6483) 
MS1

>  <INSTRUMENT TYPE>  (6483) 
EI-B

>  <INSTRUMENT>  (6483) 
HITACHI RMU-6M

>  <ION MODE>  (6483) 
P

>  <INCHIKEY>  (6483) 
YTZKOQUCBOVLHL-UHFFFAOYSA-N

>  <FORMULA>  (6483) 
C10H14

>  <EXACT MASS>  (6483) 
134.109550448

>  <MW>  (6483) 
134

>  <ID>  (6483) 
JP001542

>  <CONTRIBUTOR>  (6483) 
University of Tokyo Team, {Faculty of Engineering, University of Tokyo

>  <COMMENT>  (6483) 
SMILES=CC(C)(C)c(c1)cccc1
InChI=InChI=1S/C10H14/c1-10(2,3)9-7-5-4-6-8-9/h4-8H,1-3H3
computed SMILES=C=1C=CC(=CC1)C(C)(C)C
accession=JP001542
date=2016.01.19 (Created 2008.10.21, modified 2011.05.06)
author=YAMAMOTO M, DEP. CHEMISTRY, FAC. SCIENCE, NARA WOMEN'S UNIV.
license=CC BY-NC-SA
exact mass=134.10955
ionization energy=70 eV
ion type=[M]+*
computed spectral entropy=2.6258729170427073
computed normalized entropy=0.7272037140051787
SPLASH=splash10-014l-9800000000-7cd58a1b98cf092cd5c4
submitter=submitter = University of Tokyo Team (Faculty of Engineering, University of Tokyo)
MoNA Rating=3.75

>  <NUM PEAKS>  (6483) 
37

>  <MASS SPECTRAL PEAKS>  (6483) 
27 3.92
29 3.13
39 10.09
41 21.99
50 3.15
51 9.79
52 2.6
53 1.81
55 1.3
57.5 2.89
58 3
58.5 1.3
59.5 1.3
63 2.98
64 1.01
65 5.36
66 1.39
74 1.08
75 1.1
76 1.21
77 11.38
78 4.88
79 10.12
89 1.8
91 55.86
92 4.59
102 1.52
103 5.18
104 1.65
105 2.58
115 3.55
117 2.81
118 1.33
119 99.99
120 10.26
134 28.36
135 3.24

$$$$

     RDKit          2D

 10 10  0  0  0  0  0  0  0  0999 V2000
   -3.5724    2.0075    0.0000 C   0  0  0  0  0  0  0  0  0  0  0  0
   -0.9743    3.5075    0.0000 C   0  0  0  0  0  0  0  0  0  0  0  0
   -2.2733    1.2575    0.0000 C   0  0  0  0  0  0  0  0  0  0  0  0
    2.9228   -0.2425    0.0000 C   0  0  0  0  0  0  0  0  0  0  0  0
    2.9233    1.2583    0.0000 C   0  0  0  0  0  0  0  0  0  0  0  0
    1.6233   -0.9933    0.0000 C   0  0  0  0  0  0  0  0  0  0  0  0
    1.6243    2.0083    0.0000 C   0  0  0  0  0  0  0  0  0  0  0  0
    0.3243   -0.2433    0.0000 C   0  0  0  0  0  0  0  0  0  0  0  0
   -0.9743    2.0075    0.0000 C   0  0  0  0  0  0  0  0  0  0  0  0
    0.3248    1.2575    0.0000 C   0  0  0  0  0  0  0  0  0  0  0  0
  3  1  1  0
  5  4  2  0
  6  4  1  0
  7  5  1  0
  8  6  2  0
  9  2  1  0
  9  3  1  0
 10  7  2  0
 10  8  1  0
 10  9  1  0
M  END
>  <NAME>  (6484) 
SEC-BUTYLBENZENE

>  <SYNONYMS>  (6484) 


>  <SPECTRUM TYPE>  (6484) 
MS1

>  <INSTRUMENT TYPE>  (6484) 
EI-B

>  <INSTRUMENT>  (6484) 
HITACHI RMU-6M

>  <ION MODE>  (6484) 
P

>  <INCHIKEY>  (6484) 
ZJMWRROPUADPEA-UHFFFAOYSA-N

>  <FORMULA>  (6484) 
C10H14

>  <EXACT MASS>  (6484) 
134.109550448

>  <MW>  (6484) 
134

>  <ID>  (6484) 
JP001541

>  <CONTRIBUTOR>  (6484) 
University of Tokyo Team, {Faculty of Engineering, University of Tokyo

>  <COMMENT>  (6484) 
SMILES=CCC(C)c(c1)cccc1
InChI=InChI=1S/C10H14/c1-3-9(2)10-7-5-4-6-8-10/h4-9H,3H2,1-2H3
computed SMILES=C=1C=CC(=CC1)C(C)CC
accession=JP001541
date=2016.01.19 (Created 2008.10.21, modified 2011.05.06)
author=YAMAMOTO M, DEP. CHEMISTRY, FAC. SCIENCE, NARA WOMEN'S UNIV.
license=CC BY-NC-SA
exact mass=134.10955
ionization energy=70 eV
ion type=[M]+*
computed spectral entropy=2.2084201337650478
computed normalized entropy=0.6778252602380337
SPLASH=splash10-0a4i-4900000000-a15050290384b11c433e
submitter=submitter = University of Tokyo Team (Faculty of Engineering, University of Tokyo)
MoNA Rating=3.75

>  <NUM PEAKS>  (6484) 
26

>  <MASS SPECTRAL PEAKS>  (6484) 
27 4.6
29 1.95
39 4.96
41 2.98
50 2.12
51 5.91
52 1.62
53 1.18
63 1.92
65 2.91
77 10.36
78 4.05
79 8.56
89 1.23
91 13.49
92 1.06
102 1
103 5.32
104 2.93
105 99.99
106 8.88
115 1.75
117 1.12
119 2.2
134 19.72
135 2.26

$$$$

     RDKit          2D

 10 10  0  0  0  0  0  0  0  0999 V2000
   -3.8969    2.5696    0.0000 C   0  0  0  0  0  0  0  0  0  0  0  0
   -2.5978    0.3196    0.0000 C   0  0  0  0  0  0  0  0  0  0  0  0
    2.5983    0.3196    0.0000 C   0  0  0  0  0  0  0  0  0  0  0  0
    2.5988    1.8204    0.0000 C   0  0  0  0  0  0  0  0  0  0  0  0
    1.2988   -0.4312    0.0000 C   0  0  0  0  0  0  0  0  0  0  0  0
    1.2998    2.5704    0.0000 C   0  0  0  0  0  0  0  0  0  0  0  0
   -0.0002    0.3188    0.0000 C   0  0  0  0  0  0  0  0  0  0  0  0
   -1.2988    2.5696    0.0000 C   0  0  0  0  0  0  0  0  0  0  0  0
   -2.5978    1.8196    0.0000 C   0  0  0  0  0  0  0  0  0  0  0  0
    0.0002    1.8196    0.0000 C   0  0  0  0  0  0  0  0  0  0  0  0
  4  3  2  0
  5  3  1  0
  6  4  1  0
  7  5  2  0
  9  1  1  0
  9  2  1  0
  9  8  1  0
 10  6  2  0
 10  7  1  0
 10  8  1  0
M  END
>  <NAME>  (6485) 
ISOBUTYLBENZENE

>  <SYNONYMS>  (6485) 


>  <SPECTRUM TYPE>  (6485) 
MS1

>  <INSTRUMENT TYPE>  (6485) 
EI-B

>  <INSTRUMENT>  (6485) 
HITACHI RMU-6M

>  <ION MODE>  (6485) 
P

>  <INCHIKEY>  (6485) 
KXUHSQYYJYAXGZ-UHFFFAOYSA-N

>  <FORMULA>  (6485) 
C10H14

>  <EXACT MASS>  (6485) 
134.109550448

>  <MW>  (6485) 
134

>  <ID>  (6485) 
JP001540

>  <CONTRIBUTOR>  (6485) 
University of Tokyo Team, {Faculty of Engineering, University of Tokyo

>  <COMMENT>  (6485) 
SMILES=CC(C)Cc(c1)cccc1
InChI=InChI=1S/C10H14/c1-9(2)8-10-6-4-3-5-7-10/h3-7,9H,8H2,1-2H3
computed SMILES=C=1C=CC(=CC1)CC(C)C
accession=JP001540
date=2016.01.19 (Created 2008.10.21, modified 2011.05.06)
author=YAMAMOTO M, DEP. CHEMISTRY, FAC. SCIENCE, NARA WOMEN'S UNIV.
license=CC BY-NC-SA
exact mass=134.10955
ionization energy=70 eV
ion type=[M]+*
computed spectral entropy=2.349686881073931
computed normalized entropy=0.6720096667225401
SPLASH=splash10-0006-9100000000-39a73cd7e5f1b1711b45
submitter=submitter = University of Tokyo Team (Faculty of Engineering, University of Tokyo)
MoNA Rating=3.75

>  <NUM PEAKS>  (6485) 
33

>  <MASS SPECTRAL PEAKS>  (6485) 
27 5.43
28 1.04
29 1.42
38 1.06
39 9.71
41 9.05
43 15.22
50 2.01
51 5.45
52 1.53
55 1.06
56 1.75
57.5 1.53
58 1.39
62 1.04
63 3.47
64 1.11
65 12.82
66 1.04
77 3.23
78 3.19
89 2.5
90 1.44
91 99.99
92 63.14
93 4.64
103 1.23
105 1.42
115 2.62
117 1.89
119 1.6
134 28.66
135 3.35

$$$$

     RDKit          2D

 10 10  0  0  0  0  0  0  0  0999 V2000
   -4.8712    2.0071    0.0000 C   0  0  0  0  0  0  0  0  0  0  0  0
   -3.5721    2.7571    0.0000 C   0  0  0  0  0  0  0  0  0  0  0  0
   -2.2731    2.0071    0.0000 C   0  0  0  0  0  0  0  0  0  0  0  0
    2.9231    0.5071    0.0000 C   0  0  0  0  0  0  0  0  0  0  0  0
    2.9236    2.0079    0.0000 C   0  0  0  0  0  0  0  0  0  0  0  0
    1.6236   -0.2437    0.0000 C   0  0  0  0  0  0  0  0  0  0  0  0
   -0.9740    2.7571    0.0000 C   0  0  0  0  0  0  0  0  0  0  0  0
    1.6245    2.7579    0.0000 C   0  0  0  0  0  0  0  0  0  0  0  0
    0.3245    0.5063    0.0000 C   0  0  0  0  0  0  0  0  0  0  0  0
    0.3250    2.0071    0.0000 C   0  0  0  0  0  0  0  0  0  0  0  0
  2  1  1  0
  3  2  1  0
  5  4  2  0
  6  4  1  0
  7  3  1  0
  8  5  1  0
  9  6  2  0
 10  7  1  0
 10  8  2  0
 10  9  1  0
M  END
>  <NAME>  (6486) 
BUTYLBENZENE

>  <SYNONYMS>  (6486) 


>  <SPECTRUM TYPE>  (6486) 
MS1

>  <INSTRUMENT TYPE>  (6486) 
EI-B

>  <INSTRUMENT>  (6486) 
HITACHI RMU-6M

>  <ION MODE>  (6486) 
P

>  <INCHIKEY>  (6486) 
OCKPCBLVNKHBMX-UHFFFAOYSA-N

>  <FORMULA>  (6486) 
C10H14

>  <EXACT MASS>  (6486) 
134.109550448

>  <MW>  (6486) 
134

>  <ID>  (6486) 
JP001539

>  <CONTRIBUTOR>  (6486) 
University of Tokyo Team, {Faculty of Engineering, University of Tokyo

>  <COMMENT>  (6486) 
SMILES=CCCCc(c1)cccc1
InChI=InChI=1S/C10H14/c1-2-3-7-10-8-5-4-6-9-10/h4-6,8-9H,2-3,7H2,1H3
computed SMILES=C=1C=CC(=CC1)CCCC
author=YAMAMOTO M, DEP. CHEMISTRY, FAC. SCIENCE, NARA WOMEN'S UNIV.
accession=JP001539
date=2016.01.19 (Created 2008.10.21, modified 2011.05.06)
license=CC BY-NC-SA
exact mass=134.10955
ionization energy=70 eV
ion type=[M]+*
computed spectral entropy=2.296070532152921
computed normalized entropy=0.6890545058509018
SPLASH=splash10-0006-9100000000-87afb85e61f7e8e6378f
submitter=submitter = University of Tokyo Team (Faculty of Engineering, University of Tokyo)
MoNA Rating=3.75

>  <NUM PEAKS>  (6486) 
28

>  <MASS SPECTRAL PEAKS>  (6486) 
27 5.75
28 1.02
29 2.02
39 7.63
41 4.39
43 2.42
50 2.09
51 6.34
52 1.74
53 1.06
63 3.22
65 11.97
77 6.41
78 6.83
79 3.36
89 2
90 1.25
91 99.99
92 58.04
93 4.67
103 2.68
104 1.79
105 9.73
106 1.25
115 1.46
119 1.18
134 28.28
135 3.24

$$$$

     RDKit          2D

  9  9  0  0  0  0  0  0  0  0999 V2000
   -2.5989   -1.5002    0.0000 C   0  0  0  0  0  0  0  0  0  0  0  0
    2.5989    1.5002    0.0000 C   0  0  0  0  0  0  0  0  0  0  0  0
    2.5989   -1.5002    0.0000 C   0  0  0  0  0  0  0  0  0  0  0  0
   -1.3000    0.7500    0.0000 C   0  0  0  0  0  0  0  0  0  0  0  0
    0.0000    1.5000    0.0000 C   0  0  0  0  0  0  0  0  0  0  0  0
   -0.0000   -1.5000    0.0000 C   0  0  0  0  0  0  0  0  0  0  0  0
   -1.3000   -0.7500    0.0000 C   0  0  0  0  0  0  0  0  0  0  0  0
    1.3000    0.7500    0.0000 C   0  0  0  0  0  0  0  0  0  0  0  0
    1.3000   -0.7500    0.0000 C   0  0  0  0  0  0  0  0  0  0  0  0
  5  4  2  0
  7  1  1  0
  7  4  1  0
  7  6  2  0
  8  2  1  0
  8  5  1  0
  9  3  1  0
  9  6  1  0
  9  8  2  0
M  END
>  <NAME>  (6487) 
1.2.4-TRIMETHYLBENZENE

>  <SYNONYMS>  (6487) 
PSEUDOCUMENE

>  <SPECTRUM TYPE>  (6487) 
MS1

>  <INSTRUMENT TYPE>  (6487) 
EI-B

>  <INSTRUMENT>  (6487) 
HITACHI RMU-6M

>  <ION MODE>  (6487) 
P

>  <INCHIKEY>  (6487) 
GWHJZXXIDMPWGX-UHFFFAOYSA-N

>  <FORMULA>  (6487) 
C9H12

>  <EXACT MASS>  (6487) 
120.093900384

>  <MW>  (6487) 
120

>  <ID>  (6487) 
JP001538

>  <CONTRIBUTOR>  (6487) 
University of Tokyo Team, {Faculty of Engineering, University of Tokyo

>  <COMMENT>  (6487) 
SMILES=Cc(c1)cc(C)c(C)c1
InChI=InChI=1S/C9H12/c1-7-4-5-8(2)9(3)6-7/h4-6H,1-3H3
computed SMILES=C=1C=C(C(=CC1C)C)C
accession=JP001538
date=2016.01.19 (Created 2008.10.21, modified 2011.05.06)
author=YAMAMOTO M, DEP. CHEMISTRY, FAC. SCIENCE, NARA WOMEN'S UNIV.
license=CC BY-NC-SA
exact mass=120.0939
ionization energy=70 eV
ion type=[M]+*
computed spectral entropy=2.5699131513211078
computed normalized entropy=0.7349943067885868
SPLASH=splash10-0ab9-4900000000-cd43d59aff7151b5c417
submitter=submitter = University of Tokyo Team (Faculty of Engineering, University of Tokyo)
MoNA Rating=3.75

>  <NUM PEAKS>  (6487) 
33

>  <MASS SPECTRAL PEAKS>  (6487) 
27 6.15
38 1.11
39 10.29
40 1.29
41 5.26
50 3.14
51 8.21
52 2.87
53 3.61
57.5 1.92
58 2.4
59 2.77
62 1.46
63 4.33
65 5.56
74 1.25
75 1.2
77 12.71
78 4.73
79 8.09
89 1.37
91 10.05
92 1.75
102 1.41
103 6.44
104 3.2
105 99.99
106 9.24
115 3.38
116 3.39
119 15.28
120 60.8
121 6.3

$$$$

     RDKit          2D

  9  9  0  0  0  0  0  0  0  0999 V2000
   -2.9228    0.8825    0.0000 C   0  0  0  0  0  0  0  0  0  0  0  0
   -1.6238    3.1325    0.0000 C   0  0  0  0  0  0  0  0  0  0  0  0
    2.2733   -0.6175    0.0000 C   0  0  0  0  0  0  0  0  0  0  0  0
    2.2738    0.8833    0.0000 C   0  0  0  0  0  0  0  0  0  0  0  0
    0.9738   -1.3683    0.0000 C   0  0  0  0  0  0  0  0  0  0  0  0
    0.9748    1.6333    0.0000 C   0  0  0  0  0  0  0  0  0  0  0  0
   -0.3252   -0.6183    0.0000 C   0  0  0  0  0  0  0  0  0  0  0  0
   -1.6238    1.6325    0.0000 C   0  0  0  0  0  0  0  0  0  0  0  0
   -0.3248    0.8825    0.0000 C   0  0  0  0  0  0  0  0  0  0  0  0
  4  3  2  0
  5  3  1  0
  6  4  1  0
  7  5  2  0
  8  1  1  0
  8  2  1  0
  9  6  2  0
  9  7  1  0
  9  8  1  0
M  END
>  <NAME>  (6488) 
ISOPROPYLBENZENE

>  <SYNONYMS>  (6488) 
CUMENE

>  <SPECTRUM TYPE>  (6488) 
MS1

>  <INSTRUMENT TYPE>  (6488) 
EI-B

>  <INSTRUMENT>  (6488) 
HITACHI RMU-6M

>  <ION MODE>  (6488) 
P

>  <INCHIKEY>  (6488) 
RWGFKTVRMDUZSP-UHFFFAOYSA-N

>  <FORMULA>  (6488) 
C9H12

>  <EXACT MASS>  (6488) 
120.093900384

>  <MW>  (6488) 
120

>  <ID>  (6488) 
JP001537

>  <CONTRIBUTOR>  (6488) 
University of Tokyo Team, {Faculty of Engineering, University of Tokyo

>  <COMMENT>  (6488) 
SMILES=CC(C)c(c1)cccc1
InChI=InChI=1S/C9H12/c1-8(2)9-6-4-3-5-7-9/h3-8H,1-2H3
computed SMILES=C=1C=CC(=CC1)C(C)C
accession=JP001537
date=2016.01.19 (Created 2008.10.21, modified 2011.05.06)
author=YAMAMOTO M, DEP. CHEMISTRY, FAC. SCIENCE, NARA WOMEN'S UNIV.
license=CC BY-NC-SA
exact mass=120.0939
ionization energy=70 eV
ion type=[M]+*
computed spectral entropy=2.352004310489193
computed normalized entropy=0.698484608790265
SPLASH=splash10-0a4i-5900000000-d7826e94822da05cb9c2
submitter=submitter = University of Tokyo Team (Faculty of Engineering, University of Tokyo)
MoNA Rating=3.75

>  <NUM PEAKS>  (6488) 
29

>  <MASS SPECTRAL PEAKS>  (6488) 
27 4.78
39 6.91
41 3.66
50 3.85
51 11.24
52 3.09
52.5 1.1
53 1.45
59 1.23
62 1.19
63 2.88
65 2.73
74 1.15
75 1.1
76 1.19
77 13.98
78 5.87
79 12.36
89 1.05
91 5.92
102 1.35
103 7.56
104 2.82
105 99.99
106 8.97
115 1.11
119 1.1
120 25.63
121 2.74

$$$$

     RDKit          2D

  9  9  0  0  0  0  0  0  0  0999 V2000
   -3.5724    2.0075    0.0000 C   0  0  0  0  0  0  0  0  0  0  0  0
   -2.2733    1.2575    0.0000 C   0  0  0  0  0  0  0  0  0  0  0  0
    2.9228   -0.2425    0.0000 C   0  0  0  0  0  0  0  0  0  0  0  0
    2.9233    1.2583    0.0000 C   0  0  0  0  0  0  0  0  0  0  0  0
    1.6233   -0.9933    0.0000 C   0  0  0  0  0  0  0  0  0  0  0  0
   -0.9743    2.0075    0.0000 C   0  0  0  0  0  0  0  0  0  0  0  0
    1.6243    2.0083    0.0000 C   0  0  0  0  0  0  0  0  0  0  0  0
    0.3243   -0.2433    0.0000 C   0  0  0  0  0  0  0  0  0  0  0  0
    0.3248    1.2575    0.0000 C   0  0  0  0  0  0  0  0  0  0  0  0
  2  1  1  0
  4  3  2  0
  5  3  1  0
  6  2  1  0
  7  4  1  0
  8  5  2  0
  9  6  1  0
  9  7  2  0
  9  8  1  0
M  END
>  <NAME>  (6489) 
PROPYL BENZENE

>  <SYNONYMS>  (6489) 


>  <SPECTRUM TYPE>  (6489) 
MS1

>  <INSTRUMENT TYPE>  (6489) 
EI-B

>  <INSTRUMENT>  (6489) 
HITACHI RMU-6M

>  <ION MODE>  (6489) 
P

>  <INCHIKEY>  (6489) 
ODLMAHJVESYWTB-UHFFFAOYSA-N

>  <FORMULA>  (6489) 
C9H12

>  <EXACT MASS>  (6489) 
120.093900384

>  <MW>  (6489) 
120

>  <ID>  (6489) 
JP001536

>  <CONTRIBUTOR>  (6489) 
University of Tokyo Team, {Faculty of Engineering, University of Tokyo

>  <COMMENT>  (6489) 
SMILES=CCCc(c1)cccc1
InChI=InChI=1S/C9H12/c1-2-6-9-7-4-3-5-8-9/h3-5,7-8H,2,6H2,1H3
computed SMILES=C=1C=CC(=CC1)CCC
accession=JP001536
date=2016.01.19 (Created 2008.10.21, modified 2011.05.06)
author=YAMAMOTO M, DEP. CHEMISTRY, FAC. SCIENCE, NARA WOMEN'S UNIV.
license=CC BY-NC-SA
exact mass=120.0939
ionization energy=70 eV
ion type=[M]+*
computed spectral entropy=1.9504276460965972
computed normalized entropy=0.6510687431299409
SPLASH=splash10-0006-9100000000-47a24ddaa2a5f5cdc82e
submitter=submitter = University of Tokyo Team (Faculty of Engineering, University of Tokyo)
MoNA Rating=3.75

>  <NUM PEAKS>  (6489) 
20

>  <MASS SPECTRAL PEAKS>  (6489) 
27 2.8
39 7.45
41 3.16
50 2.33
51 5.78
52 1.58
62 1.02
63 3.4
65 11.48
77 3.72
78 7.34
79 1.61
89 1.91
91 99.99
92 11.66
103 1.27
105 4.18
115 1.29
120 23.53
121 2.28

$$$$

     RDKit          2D

  8  8  0  0  0  0  0  0  0  0999 V2000
   -2.5989   -1.5002    0.0000 C   0  0  0  0  0  0  0  0  0  0  0  0
    2.5989    1.5002    0.0000 C   0  0  0  0  0  0  0  0  0  0  0  0
   -1.3000    0.7500    0.0000 C   0  0  0  0  0  0  0  0  0  0  0  0
   -0.0000   -1.5000    0.0000 C   0  0  0  0  0  0  0  0  0  0  0  0
    0.0000    1.5000    0.0000 C   0  0  0  0  0  0  0  0  0  0  0  0
    1.3000   -0.7500    0.0000 C   0  0  0  0  0  0  0  0  0  0  0  0
   -1.3000   -0.7500    0.0000 C   0  0  0  0  0  0  0  0  0  0  0  0
    1.3000    0.7500    0.0000 C   0  0  0  0  0  0  0  0  0  0  0  0
  5  3  2  0
  6  4  1  0
  7  1  1  0
  7  3  1  0
  7  4  2  0
  8  2  1  0
  8  5  1  0
  8  6  2  0
M  END
>  <NAME>  (6490) 
PARA-XYLENE

>  <SYNONYMS>  (6490) 
1.4-DIMETHYLBENZENE

>  <SPECTRUM TYPE>  (6490) 
MS1

>  <INSTRUMENT TYPE>  (6490) 
EI-B

>  <INSTRUMENT>  (6490) 
HITACHI RMU-6M

>  <ION MODE>  (6490) 
P

>  <INCHIKEY>  (6490) 
URLKBWYHVLBVBO-UHFFFAOYSA-N

>  <FORMULA>  (6490) 
C8H10

>  <EXACT MASS>  (6490) 
106.07825032

>  <MW>  (6490) 
106

>  <ID>  (6490) 
JP001535

>  <CONTRIBUTOR>  (6490) 
University of Tokyo Team, {Faculty of Engineering, University of Tokyo

>  <COMMENT>  (6490) 
InChI=InChI=1S/C8H10/c1-7-3-5-8(2)6-4-7/h3-6H,1-2H3
SMILES=Cc(c1)ccc(C)c1
computed SMILES=C=1C=C(C=CC1C)C
accession=JP001535
date=2016.01.19 (Created 2008.10.21, modified 2011.05.06)
author=YAMAMOTO M, DEP. CHEMISTRY, FAC. SCIENCE, NARA WOMEN'S UNIV.
license=CC BY-NC-SA
exact mass=106.07825
ionization energy=70 eV
ion type=[M]+*
computed spectral entropy=2.4835762220462687
computed normalized entropy=0.7302064371320174
SPLASH=splash10-052f-9400000000-58e5d57804187b27c6c5
submitter=submitter = University of Tokyo Team (Faculty of Engineering, University of Tokyo)
MoNA Rating=3.75

>  <NUM PEAKS>  (6490) 
30

>  <MASS SPECTRAL PEAKS>  (6490) 
27 7.08
38 2.03
39 12.44
40 1.42
41 2.14
44 1.24
50 5.85
51 14.05
52 5.95
53 4.2
62 2.23
63 5.9
64 1.24
65 7.61
66 1.12
74 1.64
75 1.17
76 1.11
77 14.49
78 7.01
79 8.12
89 2.16
91 99.99
92 8.07
102 1.38
103 6.29
104 3.16
105 29.6
106 69.74
107 6.11

$$$$

     RDKit          2D

  8  8  0  0  0  0  0  0  0  0999 V2000
    1.9446    2.2539    0.0000 C   0  0  0  0  0  0  0  0  0  0  0  0
   -0.6520   -2.2491    0.0000 C   0  0  0  0  0  0  0  0  0  0  0  0
   -1.9467    1.4939    0.0000 C   0  0  0  0  0  0  0  0  0  0  0  0
   -0.6477    2.2439    0.0000 C   0  0  0  0  0  0  0  0  0  0  0  0
   -1.9512    0.0017    0.0000 C   0  0  0  0  0  0  0  0  0  0  0  0
    0.6473    0.0009    0.0000 C   0  0  0  0  0  0  0  0  0  0  0  0
    0.6468    1.5017    0.0000 C   0  0  0  0  0  0  0  0  0  0  0  0
   -0.6517   -0.7491    0.0000 C   0  0  0  0  0  0  0  0  0  0  0  0
  4  3  2  0
  5  3  1  0
  7  1  1  0
  7  4  1  0
  7  6  2  0
  8  2  1  0
  8  5  2  0
  8  6  1  0
M  END
>  <NAME>  (6491) 
META-XYLENE

>  <SYNONYMS>  (6491) 
1,3-DIMETHYLBENZENE

>  <SPECTRUM TYPE>  (6491) 
MS1

>  <INSTRUMENT TYPE>  (6491) 
EI-B

>  <INSTRUMENT>  (6491) 
HITACHI RMU-6M

>  <ION MODE>  (6491) 
P

>  <INCHIKEY>  (6491) 
IVSZLXZYQVIEFR-UHFFFAOYSA-N

>  <FORMULA>  (6491) 
C8H10

>  <EXACT MASS>  (6491) 
106.07825032

>  <MW>  (6491) 
106

>  <ID>  (6491) 
JP001534

>  <CONTRIBUTOR>  (6491) 
University of Tokyo Team, {Faculty of Engineering, University of Tokyo

>  <COMMENT>  (6491) 
SMILES=Cc(c1)cc(C)cc1
InChI=InChI=1S/C8H10/c1-7-4-3-5-8(2)6-7/h3-6H,1-2H3
computed SMILES=C=1C=C(C=C(C1)C)C
accession=JP001534
date=2016.01.19 (Created 2008.10.21, modified 2011.05.06)
author=YAMAMOTO M, DEP. CHEMISTRY, FAC. SCIENCE, NARA WOMEN'S UNIV.
license=CC BY-NC-SA
exact mass=106.07825
ionization energy=70 eV
ion type=[M]+*
computed spectral entropy=2.4822420853244433
computed normalized entropy=0.7228454672406396
SPLASH=splash10-052f-9400000000-df0f65246037f2bfb507
submitter=submitter = University of Tokyo Team (Faculty of Engineering, University of Tokyo)
MoNA Rating=3.75

>  <NUM PEAKS>  (6491) 
31

>  <MASS SPECTRAL PEAKS>  (6491) 
27 6.05
38 2.47
39 13.02
40 1.68
41 2.22
44 1.08
50 4.72
51 11.96
52 6.24
53 3.42
61 1
62 2.35
63 6.14
64 1.36
65 7.62
66 1.05
74 1.59
75 1.19
76 1.08
77 12.88
78 6.88
79 7.42
89 2.3
91 99.99
92 7.67
102 1.33
103 5.54
104 2.67
105 25.88
106 64.68
107 5.28

$$$$

     RDKit          2D

  8  8  0  0  0  0  0  0  0  0999 V2000
   -1.9526    0.7460    0.0000 C   0  0  0  0  0  0  0  0  0  0  0  0
    0.6470    2.2491    0.0000 C   0  0  0  0  0  0  0  0  0  0  0  0
    0.6513   -2.2440    0.0000 C   0  0  0  0  0  0  0  0  0  0  0  0
    1.9458   -1.5018    0.0000 C   0  0  0  0  0  0  0  0  0  0  0  0
   -0.6478   -1.4940    0.0000 C   0  0  0  0  0  0  0  0  0  0  0  0
    1.9463   -0.0009    0.0000 C   0  0  0  0  0  0  0  0  0  0  0  0
   -0.6523   -0.0018    0.0000 C   0  0  0  0  0  0  0  0  0  0  0  0
    0.6472    0.7491    0.0000 C   0  0  0  0  0  0  0  0  0  0  0  0
  4  3  2  0
  5  3  1  0
  6  4  1  0
  7  1  1  0
  7  5  2  0
  8  2  1  0
  8  6  2  0
  8  7  1  0
M  END
>  <NAME>  (6492) 
ORTHO-XYLENE

>  <SYNONYMS>  (6492) 
1,2-DIMETHYLBENZENE

>  <SPECTRUM TYPE>  (6492) 
MS1

>  <INSTRUMENT TYPE>  (6492) 
EI-B

>  <INSTRUMENT>  (6492) 
HITACHI RMU-6M

>  <ION MODE>  (6492) 
P

>  <INCHIKEY>  (6492) 
CTQNGGLPUBDAKN-UHFFFAOYSA-N

>  <FORMULA>  (6492) 
C8H10

>  <EXACT MASS>  (6492) 
106.07825032

>  <MW>  (6492) 
106

>  <ID>  (6492) 
JP001533

>  <CONTRIBUTOR>  (6492) 
University of Tokyo Team, {Faculty of Engineering, University of Tokyo

>  <COMMENT>  (6492) 
SMILES=Cc(c1)c(C)ccc1
InChI=InChI=1S/C8H10/c1-7-5-3-4-6-8(7)2/h3-6H,1-2H3
computed SMILES=C=1C=CC(=C(C1)C)C
accession=JP001533
license=CC BY-NC-SA
date=2016.01.19 (Created 2008.10.21, modified 2011.05.06)
author=YAMAMOTO M, DEP. CHEMISTRY, FAC. SCIENCE, NARA WOMEN'S UNIV.
exact mass=106.07825
ionization energy=70 eV
ion type=[M]+*
computed spectral entropy=2.645980036011615
computed normalized entropy=0.7634684552490315
SPLASH=splash10-052f-9300000000-7444c78cfa46f8a9a90e
submitter=submitter = University of Tokyo Team (Faculty of Engineering, University of Tokyo)
MoNA Rating=3.75

>  <NUM PEAKS>  (6492) 
32

>  <MASS SPECTRAL PEAKS>  (6492) 
26 1.29
27 9.61
37 1.2
38 2.77
39 18.12
40 2.19
41 3.09
50 7.09
51 16.7
52 7.41
53 5.03
61 1.42
62 3.16
63 7.67
64 1.81
65 9.8
66 1.29
74 2.26
75 1.74
76 1.55
77 14.83
78 8.83
79 7.22
89 2.83
90 99.99
92 8.32
102 1.35
103 5.8
104 2.77
105 21.92
106 55.77
107 5.09

$$$$

     RDKit          2D

 10 10  0  0  0  0  0  0  0  0999 V2000
    4.8270    1.2906    0.0000 C   0  0  0  0  0  0  0  0  0  0  0  0
   -1.6700   -0.9600    0.0000 C   0  0  0  0  0  0  0  0  0  0  0  0
   -1.6700    0.5400    0.0000 C   0  0  0  0  0  0  0  0  0  0  0  0
   -0.3700   -1.7100    0.0000 C   0  0  0  0  0  0  0  0  0  0  0  0
   -0.3700    1.2900    0.0000 C   0  0  0  0  0  0  0  0  0  0  0  0
    0.9300   -0.9600    0.0000 C   0  0  0  0  0  0  0  0  0  0  0  0
    3.5281    0.5404    0.0000 C   0  0  0  0  0  0  0  0  0  0  0  0
    0.9300    0.5400    0.0000 C   0  0  0  0  0  0  0  0  0  0  0  0
    3.5283   -0.9596    0.0000 O   0  0  0  0  0  0  0  0  0  0  0  0
    2.2289    1.2902    0.0000 O   0  0  0  0  0  0  0  0  0  0  0  0
  3  2  2  0
  4  2  1  0
  5  3  1  0
  6  4  2  0
  7  1  1  0
  8  5  2  0
  8  6  1  0
  9  7  2  0
 10  7  1  0
 10  8  1  0
M  END
>  <NAME>  (6493) 
PHENYL ACETATE

>  <SYNONYMS>  (6493) 


>  <SPECTRUM TYPE>  (6493) 
MS1

>  <INSTRUMENT TYPE>  (6493) 
EI-B

>  <INSTRUMENT>  (6493) 
HITACHI RMU-6M

>  <ION MODE>  (6493) 
P

>  <INCHIKEY>  (6493) 
IPBVNPXQWQGGJP-UHFFFAOYSA-N

>  <FORMULA>  (6493) 
C8H8O2

>  <EXACT MASS>  (6493) 
136.052429496

>  <MW>  (6493) 
136

>  <ID>  (6493) 
JP001532

>  <CONTRIBUTOR>  (6493) 
University of Tokyo Team, {Faculty of Engineering, University of Tokyo

>  <COMMENT>  (6493) 
SMILES=CC(=O)Oc(c1)cccc1
InChI=InChI=1S/C8H8O2/c1-7(9)10-8-5-3-2-4-6-8/h2-6H,1H3
computed SMILES=O=C(OC=1C=CC=CC1)C
accession=JP001532
date=2016.01.19 (Created 2008.10.21, modified 2011.05.06)
author=YAMAMOTO M, DEP. CHEMISTRY, FAC. SCIENCE, NARA WOMEN'S UNIV.
license=CC BY-NC-SA
exact mass=136.05243
ionization energy=70 eV
ion type=[M]+*
computed spectral entropy=2.099950620419757
computed normalized entropy=0.6697351281183828
SPLASH=splash10-0006-9000000000-46bc16d1beb8d7789c2e
submitter=submitter = University of Tokyo Team (Faculty of Engineering, University of Tokyo)
MoNA Rating=3.75

>  <NUM PEAKS>  (6493) 
23

>  <MASS SPECTRAL PEAKS>  (6493) 
14 1.16
15 5.97
27 1.2
37 1.07
38 3.32
39 13.69
40 2.51
42 1.34
43 30.35
50 2.27
51 3.65
55 1.86
62 1.29
63 3.32
64 1.32
65 9.44
66 11.94
77 2.75
93 1.44
94 99.99
95 7.26
136 14.57
137 1.44

$$$$

     RDKit          2D

 10 10  0  0  0  0  0  0  0  0999 V2000
    4.8270    1.2906    0.0000 C   0  0  0  0  0  0  0  0  0  0  0  0
   -1.6700   -0.9600    0.0000 C   0  0  0  0  0  0  0  0  0  0  0  0
   -1.6700    0.5400    0.0000 C   0  0  0  0  0  0  0  0  0  0  0  0
   -0.3700   -1.7100    0.0000 C   0  0  0  0  0  0  0  0  0  0  0  0
   -0.3700    1.2900    0.0000 C   0  0  0  0  0  0  0  0  0  0  0  0
    0.9300   -0.9600    0.0000 C   0  0  0  0  0  0  0  0  0  0  0  0
    3.5281    0.5404    0.0000 C   0  0  0  0  0  0  0  0  0  0  0  0
    0.9300    0.5400    0.0000 C   0  0  0  0  0  0  0  0  0  0  0  0
    3.5283   -0.9596    0.0000 O   0  0  0  0  0  0  0  0  0  0  0  0
    2.2289    1.2902    0.0000 O   0  0  0  0  0  0  0  0  0  0  0  0
  3  2  1  0
  4  2  1  0
  5  3  1  0
  6  4  1  0
  7  1  1  0
  8  5  1  0
  8  6  1  0
  9  7  2  0
 10  7  1  0
 10  8  1  0
M  END
>  <NAME>  (6494) 
CYCLOHEXYL ACETATE

>  <SYNONYMS>  (6494) 


>  <SPECTRUM TYPE>  (6494) 
MS1

>  <INSTRUMENT TYPE>  (6494) 
EI-B

>  <INSTRUMENT>  (6494) 
HITACHI RMU-6M

>  <ION MODE>  (6494) 
P

>  <INCHIKEY>  (6494) 
YYLLIJHXUHJATK-UHFFFAOYSA-N

>  <FORMULA>  (6494) 
C8H14O2

>  <EXACT MASS>  (6494) 
142.099379688

>  <MW>  (6494) 
142

>  <ID>  (6494) 
JP001531

>  <CONTRIBUTOR>  (6494) 
University of Tokyo Team, {Faculty of Engineering, University of Tokyo

>  <COMMENT>  (6494) 
SMILES=CC(=O)OC(C1)CCCC1
InChI=InChI=1S/C8H14O2/c1-7(9)10-8-5-3-2-4-6-8/h8H,2-6H2,1H3
computed SMILES=O=C(OC1CCCCC1)C
accession=JP001531
date=2016.01.19 (Created 2008.10.21, modified 2011.05.06)
author=YAMAMOTO M, DEP. CHEMISTRY, FAC. SCIENCE, NARA WOMEN'S UNIV.
license=CC BY-NC-SA
exact mass=142.09938
ionization energy=70 eV
ion type=[M]+*
computed spectral entropy=2.626450337319733
computed normalized entropy=0.772213442089678
SPLASH=splash10-0006-9000000000-80d076308eba33206483
submitter=submitter = University of Tokyo Team (Faculty of Engineering, University of Tokyo)
MoNA Rating=3.75

>  <NUM PEAKS>  (6494) 
30

>  <MASS SPECTRAL PEAKS>  (6494) 
15 5.65
27 8.8
28 2.25
29 6.2
31 1.05
39 9.05
40 1.5
41 16.65
42 3
43 99.99
44 4.75
51 1
53 2.65
54 18.7
55 16.1
56 1.9
57 8.05
58 7.35
59 1.65
61 8.85
67 52.15
68 3
71 3.5
72 1.5
79 1.45
81 7.75
82 25.5
83 10.55
99 4.35
100 4.95

$$$$

     RDKit          2D

 12 11  0  0  0  0  0  0  0  0999 V2000
    2.5981    4.5000    0.0000 C   0  0  0  0  0  0  0  0  0  0  0  0
   -1.2990    2.2500    0.0000 C   0  0  0  0  0  0  0  0  0  0  0  0
   -7.7942    4.5000    0.0000 C   0  0  0  0  0  0  0  0  0  0  0  0
    1.2990    5.2500    0.0000 C   0  0  0  0  0  0  0  0  0  0  0  0
   -2.5981    3.0000    0.0000 C   0  0  0  0  0  0  0  0  0  0  0  0
    0.0000    4.5000    0.0000 C   0  0  0  0  0  0  0  0  0  0  0  0
   -1.2990    5.2500    0.0000 C   0  0  0  0  0  0  0  0  0  0  0  0
   -3.8971    5.2500    0.0000 C   0  0  0  0  0  0  0  0  0  0  0  0
   -6.4952    5.2500    0.0000 C   0  0  0  0  0  0  0  0  0  0  0  0
   -2.5981    4.5000    0.0000 C   0  0  0  0  0  0  0  0  0  0  0  0
   -6.4952    6.7500    0.0000 O   0  0  0  0  0  0  0  0  0  0  0  0
   -5.1962    4.5000    0.0000 O   0  0  0  0  0  0  0  0  0  0  0  0
  4  1  1  0
  5  2  1  0
  6  4  1  0
  7  6  1  0
  9  3  1  0
 10  5  1  0
 10  7  1  0
 10  8  1  0
 11  9  2  0
 12  8  1  0
 12  9  1  0
M  END
>  <NAME>  (6495) 
2-ETHYLHEXYL ACETATE

>  <SYNONYMS>  (6495) 


>  <SPECTRUM TYPE>  (6495) 
MS1

>  <INSTRUMENT TYPE>  (6495) 
EI-B

>  <INSTRUMENT>  (6495) 
HITACHI RMU-6M

>  <ION MODE>  (6495) 
P

>  <INCHIKEY>  (6495) 
WOYWLLHHWAMFCB-UHFFFAOYSA-N

>  <FORMULA>  (6495) 
C10H20O2

>  <EXACT MASS>  (6495) 
172.14632988

>  <MW>  (6495) 
172

>  <ID>  (6495) 
JP001530

>  <CONTRIBUTOR>  (6495) 
University of Tokyo Team, {Faculty of Engineering, University of Tokyo

>  <COMMENT>  (6495) 
SMILES=CCCCC(CC)COC(C)=O
InChI=InChI=1S/C10H20O2/c1-4-6-7-10(5-2)8-12-9(3)11/h10H,4-8H2,1-3H3
computed SMILES=O=C(OCC(CC)CCCC)C
accession=JP001530
date=2016.01.19 (Created 2008.10.21, modified 2011.05.06)
author=YAMAMOTO M, DEP. CHEMISTRY, FAC. SCIENCE, NARA WOMEN'S UNIV.
license=CC BY-NC-SA
exact mass=172.14633
ionization energy=70 eV
ion type=[M]+*
computed spectral entropy=2.897774141644809
computed normalized entropy=0.7966200701244078
SPLASH=splash10-0596-9000000000-6e51d4eab674ef388f31
submitter=submitter = University of Tokyo Team (Faculty of Engineering, University of Tokyo)
MoNA Rating=3.75

>  <NUM PEAKS>  (6495) 
38

>  <MASS SPECTRAL PEAKS>  (6495) 
15 6.07
27 11.22
28 2.02
29 16.38
31 1.61
39 7.73
40 1.24
41 32.66
42 10.3
43 99.99
44 2.76
53 2.44
54 2.44
55 37.44
56 27.78
57 52.26
58 2.35
61 9.2
67 1.84
68 2.16
69 14.86
70 93.52
71 12.1
72 1.79
73 10.12
74 17.3
75 2.16
82 4.14
83 25.07
84 14.26
85 1.38
86 6.21
97 2.35
98 2.44
99 1.38
111 2.99
112 28.98
113 2.99

$$$$

     RDKit          2D

 12 11  0  0  0  0  0  0  0  0999 V2000
    3.2476    5.6250    0.0000 C   0  0  0  0  0  0  0  0  0  0  0  0
   -9.7428    5.6250    0.0000 C   0  0  0  0  0  0  0  0  0  0  0  0
    1.9486    6.3750    0.0000 C   0  0  0  0  0  0  0  0  0  0  0  0
    0.6495    5.6250    0.0000 C   0  0  0  0  0  0  0  0  0  0  0  0
   -0.6495    6.3750    0.0000 C   0  0  0  0  0  0  0  0  0  0  0  0
   -1.9486    5.6250    0.0000 C   0  0  0  0  0  0  0  0  0  0  0  0
   -3.2476    6.3750    0.0000 C   0  0  0  0  0  0  0  0  0  0  0  0
   -4.5466    5.6250    0.0000 C   0  0  0  0  0  0  0  0  0  0  0  0
   -5.8457    6.3750    0.0000 C   0  0  0  0  0  0  0  0  0  0  0  0
   -8.4437    6.3750    0.0000 C   0  0  0  0  0  0  0  0  0  0  0  0
   -8.4437    7.8750    0.0000 O   0  0  0  0  0  0  0  0  0  0  0  0
   -7.1447    5.6250    0.0000 O   0  0  0  0  0  0  0  0  0  0  0  0
  3  1  1  0
  4  3  1  0
  5  4  1  0
  6  5  1  0
  7  6  1  0
  8  7  1  0
  9  8  1  0
 10  2  1  0
 11 10  2  0
 12  9  1  0
 12 10  1  0
M  END
>  <NAME>  (6496) 
OCTYL ACETATE

>  <SYNONYMS>  (6496) 


>  <SPECTRUM TYPE>  (6496) 
MS1

>  <INSTRUMENT TYPE>  (6496) 
EI-B

>  <INSTRUMENT>  (6496) 
HITACHI RMU-6M

>  <ION MODE>  (6496) 
P

>  <INCHIKEY>  (6496) 
YLYBTZIQSIBWLI-UHFFFAOYSA-N

>  <FORMULA>  (6496) 
C10H20O2

>  <EXACT MASS>  (6496) 
172.14632988

>  <MW>  (6496) 
172

>  <ID>  (6496) 
JP001529

>  <CONTRIBUTOR>  (6496) 
University of Tokyo Team, {Faculty of Engineering, University of Tokyo

>  <COMMENT>  (6496) 
SMILES=CCCCCCCCOC(C)=O
InChI=InChI=1S/C10H20O2/c1-3-4-5-6-7-8-9-12-10(2)11/h3-9H2,1-2H3
computed SMILES=O=C(OCCCCCCCC)C
accession=JP001529
date=2016.01.19 (Created 2008.10.21, modified 2011.05.06)
author=YAMAMOTO M, DEP. CHEMISTRY, FAC. SCIENCE, NARA WOMEN'S UNIV.
license=CC BY-NC-SA
exact mass=172.14633
ionization energy=70 eV
ion type=[M]+*
computed spectral entropy=3.0038565237220105
computed normalized entropy=0.8257829208224051
SPLASH=splash10-052f-9000000000-ad8f2fb68399e500c0c0
submitter=submitter = University of Tokyo Team (Faculty of Engineering, University of Tokyo)
MoNA Rating=3.75

>  <NUM PEAKS>  (6496) 
38

>  <MASS SPECTRAL PEAKS>  (6496) 
15 5.66
27 11.55
28 3.3
29 17.29
31 1.65
39 7.23
40 1.57
41 34.35
42 23.58
43 99.99
44 3.14
53 1.97
54 3.93
55 36.94
56 46.77
57 16.51
58 3.69
61 36
62 1.18
67 3.3
68 9.04
69 30.5
70 43.86
71 7.78
73 7.07
81 1.18
82 8.72
83 28.85
84 34.98
85 2.75
87 1.41
97 3.14
98 2.51
101 1.73
111 1.57
112 23.34
113 2.36
115 3.77

$$$$

     RDKit          2D

 10  9  0  0  0  0  0  0  0  0999 V2000
    2.5981    4.5000    0.0000 C   0  0  0  0  0  0  0  0  0  0  0  0
   -7.7942    4.5000    0.0000 C   0  0  0  0  0  0  0  0  0  0  0  0
    1.2990    5.2500    0.0000 C   0  0  0  0  0  0  0  0  0  0  0  0
    0.0000    4.5000    0.0000 C   0  0  0  0  0  0  0  0  0  0  0  0
   -1.2990    5.2500    0.0000 C   0  0  0  0  0  0  0  0  0  0  0  0
   -2.5981    4.5000    0.0000 C   0  0  0  0  0  0  0  0  0  0  0  0
   -3.8971    5.2500    0.0000 C   0  0  0  0  0  0  0  0  0  0  0  0
   -6.4952    5.2500    0.0000 C   0  0  0  0  0  0  0  0  0  0  0  0
   -6.4952    6.7500    0.0000 O   0  0  0  0  0  0  0  0  0  0  0  0
   -5.1962    4.5000    0.0000 O   0  0  0  0  0  0  0  0  0  0  0  0
  3  1  1  0
  4  3  1  0
  5  4  1  0
  6  5  1  0
  7  6  1  0
  8  2  1  0
  9  8  2  0
 10  7  1  0
 10  8  1  0
M  END
>  <NAME>  (6497) 
HEXYL ACETATE

>  <SYNONYMS>  (6497) 


>  <SPECTRUM TYPE>  (6497) 
MS1

>  <INSTRUMENT TYPE>  (6497) 
EI-B

>  <INSTRUMENT>  (6497) 
HITACHI RMU-6M

>  <ION MODE>  (6497) 
P

>  <INCHIKEY>  (6497) 
AOGQPLXWSUTHQB-UHFFFAOYSA-N

>  <FORMULA>  (6497) 
C8H16O2

>  <EXACT MASS>  (6497) 
144.115029752

>  <MW>  (6497) 
144

>  <ID>  (6497) 
JP001528

>  <CONTRIBUTOR>  (6497) 
University of Tokyo Team, {Faculty of Engineering, University of Tokyo

>  <COMMENT>  (6497) 
SMILES=CCCCCCOC(C)=O
InChI=InChI=1S/C8H16O2/c1-3-4-5-6-7-10-8(2)9/h3-7H2,1-2H3
computed SMILES=O=C(OCCCCCC)C
accession=JP001528
date=2016.01.19 (Created 2008.10.21, modified 2011.05.06)
author=YAMAMOTO M, DEP. CHEMISTRY, FAC. SCIENCE, NARA WOMEN'S UNIV.
license=CC BY-NC-SA
exact mass=144.11503
ionization energy=70 eV
ion type=[M]+*
computed spectral entropy=2.5547412629112896
computed normalized entropy=0.76668201339688
SPLASH=splash10-052f-9000000000-8bde2be982cc06c303c6
submitter=submitter = University of Tokyo Team (Faculty of Engineering, University of Tokyo)
MoNA Rating=3.75

>  <NUM PEAKS>  (6497) 
28

>  <MASS SPECTRAL PEAKS>  (6497) 
15 6.56
27 10.01
28 3.11
29 9.45
31 1.45
39 6.69
40 1.59
41 20.08
42 21.25
43 99.99
44 2.97
53 1.1
54 2.42
55 26.57
56 56.37
57 3.87
58 3.8
61 29.67
67 1.24
69 17.8
70 1.52
71 1.17
73 10.01
82 1.1
83 4.07
84 35.88
85 2.76
87 1.38

$$$$

     RDKit          2D

  9  8  0  0  0  0  0  0  0  0999 V2000
    2.2733    2.8125    0.0000 C   0  0  0  0  0  0  0  0  0  0  0  0
    0.9743    5.0625    0.0000 C   0  0  0  0  0  0  0  0  0  0  0  0
   -5.5209    2.8125    0.0000 C   0  0  0  0  0  0  0  0  0  0  0  0
   -0.3248    2.8125    0.0000 C   0  0  0  0  0  0  0  0  0  0  0  0
   -1.6238    3.5625    0.0000 C   0  0  0  0  0  0  0  0  0  0  0  0
    0.9743    3.5625    0.0000 C   0  0  0  0  0  0  0  0  0  0  0  0
   -4.2219    3.5625    0.0000 C   0  0  0  0  0  0  0  0  0  0  0  0
   -4.2219    5.0625    0.0000 O   0  0  0  0  0  0  0  0  0  0  0  0
   -2.9228    2.8125    0.0000 O   0  0  0  0  0  0  0  0  0  0  0  0
  5  4  1  0
  6  1  1  0
  6  2  1  0
  6  4  1  0
  7  3  1  0
  8  7  2  0
  9  5  1  0
  9  7  1  0
M  END
>  <NAME>  (6498) 
ISOPENTYL ACETATE

>  <SYNONYMS>  (6498) 


>  <SPECTRUM TYPE>  (6498) 
MS1

>  <INSTRUMENT TYPE>  (6498) 
EI-B

>  <INSTRUMENT>  (6498) 
HITACHI RMU-6M

>  <ION MODE>  (6498) 
P

>  <INCHIKEY>  (6498) 
MLFHJEHSLIIPHL-UHFFFAOYSA-N

>  <FORMULA>  (6498) 
C7H14O2

>  <EXACT MASS>  (6498) 
130.099379688

>  <MW>  (6498) 
130

>  <ID>  (6498) 
JP001527

>  <CONTRIBUTOR>  (6498) 
University of Tokyo Team, {Faculty of Engineering, University of Tokyo

>  <COMMENT>  (6498) 
SMILES=CC(C)CCOC(C)=O
InChI=InChI=1S/C7H14O2/c1-6(2)4-5-9-7(3)8/h6H,4-5H2,1-3H3
computed SMILES=O=C(OCCC(C)C)C
accession=JP001527
date=2016.01.19 (Created 2008.10.21, modified 2011.05.06)
author=YAMAMOTO M, DEP. CHEMISTRY, FAC. SCIENCE, NARA WOMEN'S UNIV.
license=CC BY-NC-SA
exact mass=130.09938
ionization energy=70 eV
ion type=[M]+*
computed spectral entropy=2.3877718958689567
computed normalized entropy=0.7244812146190188
SPLASH=splash10-006x-9000000000-8c50c23b8716d739a931
submitter=submitter = University of Tokyo Team (Faculty of Engineering, University of Tokyo)
MoNA Rating=3.75

>  <NUM PEAKS>  (6498) 
27

>  <MASS SPECTRAL PEAKS>  (6498) 
15 6.35
27 8.24
28 2.21
29 7.84
31 1.41
39 6.31
40 1.01
41 14.07
42 13.71
43 99.99
44 2.89
45 2.21
53 1.29
55 38.55
56 3.22
57 3.82
58 1.81
61 10.85
69 5.59
70 61.91
71 4.74
72 2.01
73 10.69
85 1.21
87 8.04
88 1.41
130 0.68

$$$$

     RDKit          2D

  9  8  0  0  0  0  0  0  0  0999 V2000
   -7.4695    3.9375    0.0000 C   0  0  0  0  0  0  0  0  0  0  0  0
    1.6238    3.1875    0.0000 C   0  0  0  0  0  0  0  0  0  0  0  0
   -6.1704    3.1875    0.0000 C   0  0  0  0  0  0  0  0  0  0  0  0
   -4.8714    3.9375    0.0000 C   0  0  0  0  0  0  0  0  0  0  0  0
   -3.5724    3.1875    0.0000 C   0  0  0  0  0  0  0  0  0  0  0  0
   -2.2733    3.9375    0.0000 C   0  0  0  0  0  0  0  0  0  0  0  0
    0.3248    3.9375    0.0000 C   0  0  0  0  0  0  0  0  0  0  0  0
    0.3248    5.4375    0.0000 O   0  0  0  0  0  0  0  0  0  0  0  0
   -0.9743    3.1875    0.0000 O   0  0  0  0  0  0  0  0  0  0  0  0
  3  1  1  0
  4  3  1  0
  5  4  1  0
  6  5  1  0
  7  2  1  0
  8  7  2  0
  9  6  1  0
  9  7  1  0
M  END
>  <NAME>  (6499) 
PENTYL ACETATE

>  <SYNONYMS>  (6499) 


>  <SPECTRUM TYPE>  (6499) 
MS1

>  <INSTRUMENT TYPE>  (6499) 
EI-B

>  <INSTRUMENT>  (6499) 
HITACHI RMU-6M

>  <ION MODE>  (6499) 
P

>  <INCHIKEY>  (6499) 
PGMYKACGEOXYJE-UHFFFAOYSA-N

>  <FORMULA>  (6499) 
C7H14O2

>  <EXACT MASS>  (6499) 
130.099379688

>  <MW>  (6499) 
130

>  <ID>  (6499) 
JP001526

>  <CONTRIBUTOR>  (6499) 
University of Tokyo Team, {Faculty of Engineering, University of Tokyo

>  <COMMENT>  (6499) 
SMILES=CCCCCOC(C)=O
InChI=InChI=1S/C7H14O2/c1-3-4-5-6-9-7(2)8/h3-6H2,1-2H3
computed SMILES=O=C(OCCCCC)C
accession=JP001526
date=2016.01.19 (Created 2008.10.21, modified 2011.05.06)
author=YAMAMOTO M, DEP. CHEMISTRY, FAC. SCIENCE, NARA WOMEN'S UNIV.
license=CC BY-NC-SA
exact mass=130.09938
ionization energy=70 eV
ion type=[M]+*
computed spectral entropy=2.3421225783062636
computed normalized entropy=0.7369675604424356
SPLASH=splash10-0006-9000000000-1513f6542ad1bd83dd26
submitter=submitter = University of Tokyo Team (Faculty of Engineering, University of Tokyo)
MoNA Rating=3.75

>  <NUM PEAKS>  (6499) 
24

>  <MASS SPECTRAL PEAKS>  (6499) 
15 6.43
27 8.74
28 2.54
29 8.29
31 1.69
39 5.08
40 1.13
41 13.25
42 28.71
43 99.99
44 2.82
45 1.13
55 23.41
56 1.75
57 1.69
58 4.23
61 28.31
69 7.61
70 54.54
71 4.17
73 11
85 1.02
87 1.52
101 1.18

$$$$

     RDKit          2D

  8  7  0  0  0  0  0  0  0  0999 V2000
    1.8983    1.9620    0.0000 C   0  0  0  0  0  0  0  0  0  0  0  0
   -1.2488    4.0111    0.0000 C   0  0  0  0  0  0  0  0  0  0  0  0
   -3.2978    3.4620    0.0000 C   0  0  0  0  0  0  0  0  0  0  0  0
   -2.7488    1.4130    0.0000 C   0  0  0  0  0  0  0  0  0  0  0  0
    0.5993    2.7120    0.0000 C   0  0  0  0  0  0  0  0  0  0  0  0
   -1.9988    2.7120    0.0000 C   0  0  0  0  0  0  0  0  0  0  0  0
    0.5993    4.2120    0.0000 O   0  0  0  0  0  0  0  0  0  0  0  0
   -0.6998    1.9620    0.0000 O   0  0  0  0  0  0  0  0  0  0  0  0
  5  1  1  0
  6  2  1  0
  6  3  1  0
  6  4  1  0
  7  5  2  0
  8  5  1  0
  8  6  1  0
M  END
>  <NAME>  (6500) 
TERT-BUTYL ACETATE

>  <SYNONYMS>  (6500) 


>  <SPECTRUM TYPE>  (6500) 
MS1

>  <INSTRUMENT TYPE>  (6500) 
EI-B

>  <INSTRUMENT>  (6500) 
HITACHI RMU-6M

>  <ION MODE>  (6500) 
P

>  <INCHIKEY>  (6500) 
WMOVHXAZOJBABW-UHFFFAOYSA-N

>  <FORMULA>  (6500) 
C6H12O2

>  <EXACT MASS>  (6500) 
116.083729624

>  <MW>  (6500) 
116

>  <ID>  (6500) 
JP001525

>  <CONTRIBUTOR>  (6500) 
University of Tokyo Team, {Faculty of Engineering, University of Tokyo

>  <COMMENT>  (6500) 
SMILES=CC(=O)OC(C)(C)C
InChI=InChI=1S/C6H12O2/c1-5(7)8-6(2,3)4/h1-4H3
computed SMILES=O=C(OC(C)(C)C)C
accession=JP001525
date=2016.01.19 (Created 2008.10.21, modified 2011.05.06)
author=YAMAMOTO M, DEP. CHEMISTRY, FAC. SCIENCE, NARA WOMEN'S UNIV.
license=CC BY-NC-SA
exact mass=116.08373
ionization energy=70 eV
ion type=[M]+*
computed spectral entropy=2.2659293254961685
computed normalized entropy=0.756385791046668
SPLASH=splash10-052f-9000000000-cfe87856bed7b9706c96
submitter=submitter = University of Tokyo Team (Faculty of Engineering, University of Tokyo)
MoNA Rating=3.75

>  <NUM PEAKS>  (6500) 
20

>  <MASS SPECTRAL PEAKS>  (6500) 
14 1.11
15 9.16
27 10.69
28 2.34
29 17.89
31 3.54
39 8.31
40 1.53
41 32.97
42 2.13
43 99.99
44 2.43
55 2.98
56 38.81
57 52.82
58 2.26
59 35.95
60 1.32
61 2.56
101 16.95

$$$$

     RDKit          2D

  8  7  0  0  0  0  0  0  0  0999 V2000
    1.6238    3.1875    0.0000 C   0  0  0  0  0  0  0  0  0  0  0  0
   -0.9743    1.6875    0.0000 C   0  0  0  0  0  0  0  0  0  0  0  0
   -4.8714    3.9375    0.0000 C   0  0  0  0  0  0  0  0  0  0  0  0
    0.3248    3.9375    0.0000 C   0  0  0  0  0  0  0  0  0  0  0  0
   -0.9743    3.1875    0.0000 C   0  0  0  0  0  0  0  0  0  0  0  0
   -3.5724    3.1875    0.0000 C   0  0  0  0  0  0  0  0  0  0  0  0
   -3.5724    1.6875    0.0000 O   0  0  0  0  0  0  0  0  0  0  0  0
   -2.2733    3.9375    0.0000 O   0  0  0  0  0  0  0  0  0  0  0  0
  4  1  1  0
  5  2  1  0
  5  4  1  0
  6  3  1  0
  7  6  2  0
  8  5  1  0
  8  6  1  0
M  END
>  <NAME>  (6501) 
SEC-BUTYL ACETATE

>  <SYNONYMS>  (6501) 


>  <SPECTRUM TYPE>  (6501) 
MS1

>  <INSTRUMENT TYPE>  (6501) 
EI-B

>  <INSTRUMENT>  (6501) 
HITACHI RMU-6M

>  <ION MODE>  (6501) 
P

>  <INCHIKEY>  (6501) 
DCKVNWZUADLDEH-UHFFFAOYSA-N

>  <FORMULA>  (6501) 
C6H12O2

>  <EXACT MASS>  (6501) 
116.083729624

>  <MW>  (6501) 
116

>  <ID>  (6501) 
JP001524

>  <CONTRIBUTOR>  (6501) 
University of Tokyo Team, {Faculty of Engineering, University of Tokyo

>  <COMMENT>  (6501) 
SMILES=CCC(C)OC(C)=O
InChI=InChI=1S/C6H12O2/c1-4-5(2)8-6(3)7/h5H,4H2,1-3H3
computed SMILES=O=C(OC(C)CC)C
accession=JP001524
date=2016.01.19 (Created 2008.10.21, modified 2011.05.06)
author=YAMAMOTO M, DEP. CHEMISTRY, FAC. SCIENCE, NARA WOMEN'S UNIV.
license=CC BY-NC-SA
exact mass=116.08373
ionization energy=70 eV
ion type=[M]+*
computed spectral entropy=2.022481021121019
computed normalized entropy=0.6751207506008693
SPLASH=splash10-0006-9000000000-fe9fbf0a38e9d2dfce0a
submitter=submitter = University of Tokyo Team (Faculty of Engineering, University of Tokyo)
MoNA Rating=3.75

>  <NUM PEAKS>  (6501) 
20

>  <MASS SPECTRAL PEAKS>  (6501) 
15 4.92
27 5.44
28 2.28
29 8.55
31 1.14
39 3.11
41 11.45
42 1.71
43 99.99
44 2.69
45 3.26
55 2.43
56 20.41
57 6.56
61 4.56
72 1.24
73 5.49
87 16.58
101 3.21
116 0.62

$$$$

     RDKit          2D

  8  7  0  0  0  0  0  0  0  0999 V2000
    0.0000    0.0000    0.0000 C   0  0  0  0  0  0  0  0  0  0  0  0
    1.2990    2.2500    0.0000 C   0  0  0  0  0  0  0  0  0  0  0  0
   -2.5981    6.0000    0.0000 C   0  0  0  0  0  0  0  0  0  0  0  0
   -1.2990    2.2500    0.0000 C   0  0  0  0  0  0  0  0  0  0  0  0
    0.0000    1.5000    0.0000 C   0  0  0  0  0  0  0  0  0  0  0  0
   -2.5981    4.5000    0.0000 C   0  0  0  0  0  0  0  0  0  0  0  0
   -3.8971    3.7500    0.0000 O   0  0  0  0  0  0  0  0  0  0  0  0
   -1.2990    3.7500    0.0000 O   0  0  0  0  0  0  0  0  0  0  0  0
  5  1  1  0
  5  2  1  0
  5  4  1  0
  6  3  1  0
  7  6  2  0
  8  4  1  0
  8  6  1  0
M  END
>  <NAME>  (6502) 
ISOBUTYL ACETATE

>  <SYNONYMS>  (6502) 


>  <SPECTRUM TYPE>  (6502) 
MS1

>  <INSTRUMENT TYPE>  (6502) 
EI-B

>  <INSTRUMENT>  (6502) 
HITACHI RMU-6M

>  <ION MODE>  (6502) 
P

>  <INCHIKEY>  (6502) 
GJRQTCIYDGXPES-UHFFFAOYSA-N

>  <FORMULA>  (6502) 
C6H12O2

>  <EXACT MASS>  (6502) 
116.083729624

>  <MW>  (6502) 
116

>  <ID>  (6502) 
JP001523

>  <CONTRIBUTOR>  (6502) 
University of Tokyo Team, {Faculty of Engineering, University of Tokyo

>  <COMMENT>  (6502) 
SMILES=CC(C)COC(C)=O
InChI=InChI=1S/C6H12O2/c1-5(2)4-8-6(3)7/h5H,4H2,1-3H3
computed SMILES=O=C(OCC(C)C)C
accession=JP001523
date=2016.01.19 (Created 2008.10.21, modified 2011.05.06)
author=YAMAMOTO M, DEP. CHEMISTRY, FAC. SCIENCE, NARA WOMEN'S UNIV.
license=CC BY-NC-SA
exact mass=116.08373
ionization energy=70 eV
ion type=[M]+*
computed spectral entropy=1.9308401889899298
computed normalized entropy=0.6445302893169672
SPLASH=splash10-0006-9000000000-32ed7cd25a7cd585255a
submitter=submitter = University of Tokyo Team (Faculty of Engineering, University of Tokyo)
MoNA Rating=3.75

>  <NUM PEAKS>  (6502) 
20

>  <MASS SPECTRAL PEAKS>  (6502) 
15 4.72
27 4.98
28 1.64
29 4.72
31 1.38
39 4.46
40 1.03
41 11.8
42 1.8
43 99.99
44 2.41
55 2.57
56 35.76
57 4.05
61 3.85
71 3.85
73 17.49
74 1.8
86 2.26
116 0.56

$$$$

     RDKit          2D

  8  7  0  0  0  0  0  0  0  0999 V2000
    1.9486    3.3750    0.0000 C   0  0  0  0  0  0  0  0  0  0  0  0
   -5.8457    3.3750    0.0000 C   0  0  0  0  0  0  0  0  0  0  0  0
    0.6495    4.1250    0.0000 C   0  0  0  0  0  0  0  0  0  0  0  0
   -0.6495    3.3750    0.0000 C   0  0  0  0  0  0  0  0  0  0  0  0
   -1.9486    4.1250    0.0000 C   0  0  0  0  0  0  0  0  0  0  0  0
   -4.5466    4.1250    0.0000 C   0  0  0  0  0  0  0  0  0  0  0  0
   -4.5466    5.6250    0.0000 O   0  0  0  0  0  0  0  0  0  0  0  0
   -3.2476    3.3750    0.0000 O   0  0  0  0  0  0  0  0  0  0  0  0
  3  1  1  0
  4  3  1  0
  5  4  1  0
  6  2  1  0
  7  6  2  0
  8  5  1  0
  8  6  1  0
M  END
>  <NAME>  (6503) 
BUTYL ACETATE

>  <SYNONYMS>  (6503) 


>  <SPECTRUM TYPE>  (6503) 
MS1

>  <INSTRUMENT TYPE>  (6503) 
EI-B

>  <INSTRUMENT>  (6503) 
HITACHI RMU-6M

>  <ION MODE>  (6503) 
P

>  <INCHIKEY>  (6503) 
DKPFZGUDAPQIHT-UHFFFAOYSA-N

>  <FORMULA>  (6503) 
C6H12O2

>  <EXACT MASS>  (6503) 
116.083729624

>  <MW>  (6503) 
116

>  <ID>  (6503) 
JP001522

>  <CONTRIBUTOR>  (6503) 
University of Tokyo Team, {Faculty of Engineering, University of Tokyo

>  <COMMENT>  (6503) 
SMILES=CCCCOC(C)=O
InChI=InChI=1S/C6H12O2/c1-3-4-5-8-6(2)7/h3-5H2,1-2H3
computed SMILES=O=C(OCCCC)C
accession=JP001522
date=2016.01.19 (Created 2008.10.21, modified 2011.05.06)
author=YAMAMOTO M, DEP. CHEMISTRY, FAC. SCIENCE, NARA WOMEN'S UNIV.
license=CC BY-NC-SA
exact mass=116.08373
ionization energy=70 eV
ion type=[M]+*
computed spectral entropy=2.1746477152735904
computed normalized entropy=0.7035321410454609
SPLASH=splash10-0006-9000000000-89d861b5ededa36a4456
submitter=submitter = University of Tokyo Team (Faculty of Engineering, University of Tokyo)
MoNA Rating=3.75

>  <NUM PEAKS>  (6503) 
22

>  <MASS SPECTRAL PEAKS>  (6503) 
15 6.39
26 1.34
27 8.5
28 4
29 8.6
31 2.21
39 4.64
40 1.18
41 16.22
42 2.88
43 99.99
44 3.09
55 8.24
56 45.94
57 4.64
58 2.06
61 15.81
71 2.01
73 15.04
86 1.29
87 1.75
116 0.52

$$$$

     RDKit          2D

  7  6  0  0  0  0  0  0  0  0999 V2000
    1.6238    1.6875    0.0000 C   0  0  0  0  0  0  0  0  0  0  0  0
    0.3248    3.9375    0.0000 C   0  0  0  0  0  0  0  0  0  0  0  0
   -3.5724    1.6875    0.0000 C   0  0  0  0  0  0  0  0  0  0  0  0
    0.3248    2.4375    0.0000 C   0  0  0  0  0  0  0  0  0  0  0  0
   -2.2733    2.4375    0.0000 C   0  0  0  0  0  0  0  0  0  0  0  0
   -2.2733    3.9375    0.0000 O   0  0  0  0  0  0  0  0  0  0  0  0
   -0.9743    1.6875    0.0000 O   0  0  0  0  0  0  0  0  0  0  0  0
  4  1  1  0
  4  2  1  0
  5  3  1  0
  6  5  2  0
  7  4  1  0
  7  5  1  0
M  END
>  <NAME>  (6504) 
ISOPROPYL ACETATE

>  <SYNONYMS>  (6504) 


>  <SPECTRUM TYPE>  (6504) 
MS1

>  <INSTRUMENT TYPE>  (6504) 
EI-B

>  <INSTRUMENT>  (6504) 
HITACHI RMU-6M

>  <ION MODE>  (6504) 
P

>  <INCHIKEY>  (6504) 
JMMWKPVZQRWMSS-UHFFFAOYSA-N

>  <FORMULA>  (6504) 
C5H10O2

>  <EXACT MASS>  (6504) 
102.06807956

>  <MW>  (6504) 
102

>  <ID>  (6504) 
JP001521

>  <CONTRIBUTOR>  (6504) 
University of Tokyo Team, {Faculty of Engineering, University of Tokyo

>  <COMMENT>  (6504) 
SMILES=CC(C)OC(C)=O
InChI=InChI=1S/C5H10O2/c1-4(2)7-5(3)6/h4H,1-3H3
computed SMILES=O=C(OC(C)C)C
accession=JP001521
license=CC BY-NC-SA
date=2016.01.19 (Created 2008.10.21, modified 2011.05.06)
author=YAMAMOTO M, DEP. CHEMISTRY, FAC. SCIENCE, NARA WOMEN'S UNIV.
exact mass=102.06808
ionization energy=70 eV
ion type=[M]+*
computed spectral entropy=1.8478152514555524
computed normalized entropy=0.6664584749384797
SPLASH=splash10-0006-9000000000-cd0710af23181a83e352
submitter=submitter = University of Tokyo Team (Faculty of Engineering, University of Tokyo)
MoNA Rating=3.75

>  <NUM PEAKS>  (6504) 
16

>  <MASS SPECTRAL PEAKS>  (6504) 
14 1.21
15 7.68
27 6.83
29 1.58
31 1.9
39 4.52
40 1.21
41 11.51
42 6.71
43 99.99
44 2.59
45 3.72
59 10.06
61 25.13
87 13.74
102 0.89

$$$$

     RDKit          2D

  7  6  0  0  0  0  0  0  0  0999 V2000
    1.6238    3.1875    0.0000 C   0  0  0  0  0  0  0  0  0  0  0  0
   -4.8714    3.9375    0.0000 C   0  0  0  0  0  0  0  0  0  0  0  0
    0.3248    3.9375    0.0000 C   0  0  0  0  0  0  0  0  0  0  0  0
   -0.9743    3.1875    0.0000 C   0  0  0  0  0  0  0  0  0  0  0  0
   -3.5724    3.1875    0.0000 C   0  0  0  0  0  0  0  0  0  0  0  0
   -3.5724    1.6875    0.0000 O   0  0  0  0  0  0  0  0  0  0  0  0
   -2.2733    3.9375    0.0000 O   0  0  0  0  0  0  0  0  0  0  0  0
  3  1  1  0
  4  3  1  0
  5  2  1  0
  6  5  2  0
  7  4  1  0
  7  5  1  0
M  END
>  <NAME>  (6505) 
PROPYL ACETATE

>  <SYNONYMS>  (6505) 


>  <SPECTRUM TYPE>  (6505) 
MS1

>  <INSTRUMENT TYPE>  (6505) 
EI-B

>  <INSTRUMENT>  (6505) 
HITACHI RMU-6M

>  <ION MODE>  (6505) 
P

>  <INCHIKEY>  (6505) 
YKYONYBAUNKHLG-UHFFFAOYSA-N

>  <FORMULA>  (6505) 
C5H10O2

>  <EXACT MASS>  (6505) 
102.06807956

>  <MW>  (6505) 
102

>  <ID>  (6505) 
JP001520

>  <CONTRIBUTOR>  (6505) 
University of Tokyo Team, {Faculty of Engineering, University of Tokyo

>  <COMMENT>  (6505) 
SMILES=CCCOC(C)=O
InChI=InChI=1S/C5H10O2/c1-3-4-7-5(2)6/h3-4H2,1-2H3
computed SMILES=O=C(OCCC)C
accession=JP001520
date=2016.01.19 (Created 2008.10.21, modified 2011.05.06)
author=YAMAMOTO M, DEP. CHEMISTRY, FAC. SCIENCE, NARA WOMEN'S UNIV.
license=CC BY-NC-SA
exact mass=102.06808
ionization energy=70 eV
ion type=[M]+*
computed spectral entropy=0.48830602808475043
computed normalized entropy=0.1689422915065352
SPLASH=splash10-0006-9000000000-967576e66df0ac7c49a6
submitter=submitter = University of Tokyo Team (Faculty of Engineering, University of Tokyo)
MoNA Rating=3.75

>  <NUM PEAKS>  (6505) 
18

>  <MASS SPECTRAL PEAKS>  (6505) 
14 0.15
15 0.89
26 0.14
27 0.89
28 0.17
29 0.22
31 0.42
39 0.35
41 0.76
42 0.72
43 99.99
44 0.2
57 0.1
59 0.44
61 2.47
72 0.12
73 1.06
102 0.05

$$$$

     RDKit          2D

  6  5  0  0  0  0  0  0  0  0999 V2000
    1.2990    2.2500    0.0000 C   0  0  0  0  0  0  0  0  0  0  0  0
   -3.8971    2.2500    0.0000 C   0  0  0  0  0  0  0  0  0  0  0  0
    0.0000    3.0000    0.0000 C   0  0  0  0  0  0  0  0  0  0  0  0
   -2.5981    3.0000    0.0000 C   0  0  0  0  0  0  0  0  0  0  0  0
   -2.5981    4.5000    0.0000 O   0  0  0  0  0  0  0  0  0  0  0  0
   -1.2990    2.2500    0.0000 O   0  0  0  0  0  0  0  0  0  0  0  0
  3  1  1  0
  4  2  1  0
  5  4  2  0
  6  3  1  0
  6  4  1  0
M  END
>  <NAME>  (6506) 
ETHYL ACETATE

>  <SYNONYMS>  (6506) 


>  <SPECTRUM TYPE>  (6506) 
MS1

>  <INSTRUMENT TYPE>  (6506) 
EI-B

>  <INSTRUMENT>  (6506) 
HITACHI RMU-6M

>  <ION MODE>  (6506) 
P

>  <INCHIKEY>  (6506) 
XEKOWRVHYACXOJ-UHFFFAOYSA-N

>  <FORMULA>  (6506) 
C4H8O2

>  <EXACT MASS>  (6506) 
88.052429496

>  <MW>  (6506) 
88

>  <ID>  (6506) 
JP001519

>  <CONTRIBUTOR>  (6506) 
University of Tokyo Team, {Faculty of Engineering, University of Tokyo

>  <COMMENT>  (6506) 
SMILES=CCOC(C)=O
InChI=InChI=1S/C4H8O2/c1-3-6-4(2)5/h3H2,1-2H3
computed SMILES=O=C(OCC)C
accession=JP001519
date=2016.01.19 (Created 2008.10.21, modified 2011.05.06)
author=YAMAMOTO M, DEP. CHEMISTRY, FAC. SCIENCE, NARA WOMEN'S UNIV.
license=CC BY-NC-SA
exact mass=88.05243
ionization energy=70 eV
ion type=[M]+*
computed spectral entropy=0.541728398397836
computed normalized entropy=0.20004370604996385
SPLASH=splash10-0006-9000000000-f48a6e770df57144ce33
submitter=submitter = University of Tokyo Team (Faculty of Engineering, University of Tokyo)
MoNA Rating=3.75

>  <NUM PEAKS>  (6506) 
15

>  <MASS SPECTRAL PEAKS>  (6506) 
14 0.33
15 1.41
26 0.27
27 1.07
28 0.28
29 1.74
31 0.13
42 0.59
43 99.99
44 0.27
45 1.42
61 1.09
70 0.98
73 0.38
88 0.51

$$$$

     RDKit          2D

  5  4  0  0  0  0  0  0  0  0999 V2000
    0.0000    0.0000    0.0000 C   0  0  0  0  0  0  0  0  0  0  0  0
   -1.2990    3.7500    0.0000 C   0  0  0  0  0  0  0  0  0  0  0  0
    0.0000    1.5000    0.0000 C   0  0  0  0  0  0  0  0  0  0  0  0
    1.2990    2.2500    0.0000 O   0  0  0  0  0  0  0  0  0  0  0  0
   -1.2990    2.2500    0.0000 O   0  0  0  0  0  0  0  0  0  0  0  0
  3  1  1  0
  4  3  2  0
  5  2  1  0
  5  3  1  0
M  END
>  <NAME>  (6507) 
METHYL ACETATE

>  <SYNONYMS>  (6507) 


>  <SPECTRUM TYPE>  (6507) 
MS1

>  <INSTRUMENT TYPE>  (6507) 
EI-B

>  <INSTRUMENT>  (6507) 
HITACHI RMU-6M

>  <ION MODE>  (6507) 
P

>  <INCHIKEY>  (6507) 
KXKVLQRXCPHEJC-UHFFFAOYSA-N

>  <FORMULA>  (6507) 
C3H6O2

>  <EXACT MASS>  (6507) 
74.036779432

>  <MW>  (6507) 
74

>  <ID>  (6507) 
JP001518

>  <CONTRIBUTOR>  (6507) 
University of Tokyo Team, {Faculty of Engineering, University of Tokyo

>  <COMMENT>  (6507) 
SMILES=COC(C)=O
InChI=InChI=1S/C3H6O2/c1-3(4)5-2/h1-2H3
computed SMILES=O=C(OC)C
accession=JP001518
date=2016.01.19 (Created 2008.10.21, modified 2011.05.06)
author=YAMAMOTO M, DEP. CHEMISTRY, FAC. SCIENCE, NARA WOMEN'S UNIV.
license=CC BY-NC-SA
exact mass=74.03678
ionization energy=70 eV
ion type=[M]+*
computed spectral entropy=1.490717032424136
computed normalized entropy=0.5999086656037225
SPLASH=splash10-0006-9000000000-4756b467f06f20361e44
submitter=submitter = University of Tokyo Team (Faculty of Engineering, University of Tokyo)
MoNA Rating=3.75

>  <NUM PEAKS>  (6507) 
12

>  <MASS SPECTRAL PEAKS>  (6507) 
14 5.9
15 36.1
28 1
29 0.75
31 2.6
41 1.1
42 9.5
43 99.99
44 2.6
59 6.8
74 17.7
75 1.1

$$$$

     RDKit          2D

 12 12  0  0  0  0  0  0  0  0999 V2000
   -5.5207    3.1321    0.0000 C   0  0  0  0  0  0  0  0  0  0  0  0
   -4.2216    2.3821    0.0000 C   0  0  0  0  0  0  0  0  0  0  0  0
    3.5726    0.8821    0.0000 C   0  0  0  0  0  0  0  0  0  0  0  0
    3.5731    2.3829    0.0000 C   0  0  0  0  0  0  0  0  0  0  0  0
    2.2731    0.1313    0.0000 C   0  0  0  0  0  0  0  0  0  0  0  0
    2.2740    3.1329    0.0000 C   0  0  0  0  0  0  0  0  0  0  0  0
    0.9740    0.8813    0.0000 C   0  0  0  0  0  0  0  0  0  0  0  0
   -0.3245    3.1321    0.0000 C   0  0  0  0  0  0  0  0  0  0  0  0
    0.9745    2.3821    0.0000 C   0  0  0  0  0  0  0  0  0  0  0  0
   -2.9226    3.1321    0.0000 C   0  0  0  0  0  0  0  0  0  0  0  0
   -2.9226    4.6321    0.0000 O   0  0  0  0  0  0  0  0  0  0  0  0
   -1.6236    2.3821    0.0000 O   0  0  0  0  0  0  0  0  0  0  0  0
  2  1  1  0
  4  3  2  0
  5  3  1  0
  6  4  1  0
  7  5  2  0
  9  6  2  0
  9  7  1  0
  9  8  1  0
 10  2  1  0
 11 10  2  0
 12  8  1  0
 12 10  1  0
M  END
>  <NAME>  (6508) 
BENZYL PROPIONATE

>  <SYNONYMS>  (6508) 


>  <SPECTRUM TYPE>  (6508) 
MS1

>  <INSTRUMENT TYPE>  (6508) 
EI-B

>  <INSTRUMENT>  (6508) 
HITACHI RMU-6M

>  <ION MODE>  (6508) 
P

>  <INCHIKEY>  (6508) 
VHOMAPWVLKRQAZ-UHFFFAOYSA-N

>  <FORMULA>  (6508) 
C10H12O2

>  <EXACT MASS>  (6508) 
164.083729624

>  <MW>  (6508) 
164

>  <ID>  (6508) 
JP001517

>  <CONTRIBUTOR>  (6508) 
University of Tokyo Team, {Faculty of Engineering, University of Tokyo

>  <COMMENT>  (6508) 
SMILES=CCC(=O)OCc(c1)cccc1
InChI=InChI=1S/C10H12O2/c1-2-10(11)12-8-9-6-4-3-5-7-9/h3-7H,2,8H2,1H3
computed SMILES=O=C(OCC=1C=CC=CC1)CC
accession=JP001517
date=2016.01.19 (Created 2008.10.21, modified 2011.05.06)
author=YAMAMOTO M, DEP. CHEMISTRY, FAC. SCIENCE, NARA WOMEN'S UNIV.
license=CC BY-NC-SA
exact mass=164.08373
ionization energy=70 eV
ion type=[M]+*
computed spectral entropy=2.8037353558607507
computed normalized entropy=0.7600506849672062
SPLASH=splash10-0a4l-9400000000-f4b445308e65b99d86be
submitter=submitter = University of Tokyo Team (Faculty of Engineering, University of Tokyo)
MoNA Rating=3.75

>  <NUM PEAKS>  (6508) 
40

>  <MASS SPECTRAL PEAKS>  (6508) 
26 2.27
27 10.67
28 3.53
29 34.11
30 1.26
38 1.64
39 11.43
40 1.04
41 2.96
50 4.19
51 12.11
52 3.34
53 1.29
55 1.17
56 1.32
57 48.43
58 1.98
62 1.61
63 5.86
64 2.02
65 18.35
66 1.27
74 1.2
75 1.11
76 1.7
77 13.97
78 3.87
79 18.35
80 1.83
89 8.75
90 29.55
91 99.99
92 7.77
105 4.94
106 1.14
107 12.65
108 98.65
109 8.22
164 34.62
165 4.06

$$$$

     RDKit          2D

  9  9  0  0  0  0  0  0  0  0999 V2000
    2.2736    0.1321    0.0000 C   0  0  0  0  0  0  0  0  0  0  0  0
    2.2740    1.6329    0.0000 C   0  0  0  0  0  0  0  0  0  0  0  0
    0.9740   -0.6187    0.0000 C   0  0  0  0  0  0  0  0  0  0  0  0
    0.9750    2.3829    0.0000 C   0  0  0  0  0  0  0  0  0  0  0  0
   -0.3250    0.1313    0.0000 C   0  0  0  0  0  0  0  0  0  0  0  0
   -1.6236    2.3821    0.0000 C   0  0  0  0  0  0  0  0  0  0  0  0
   -2.9226    1.6321    0.0000 C   0  0  0  0  0  0  0  0  0  0  0  0
   -0.3245    1.6321    0.0000 C   0  0  0  0  0  0  0  0  0  0  0  0
   -4.2216    0.8821    0.0000 N   0  0  0  0  0  0  0  0  0  0  0  0
  2  1  2  0
  3  1  1  0
  4  2  1  0
  5  3  2  0
  7  6  1  0
  8  4  2  0
  8  5  1  0
  8  6  1  0
  9  7  3  0
M  END
>  <NAME>  (6509) 
BENZYL CYANIDE

>  <SYNONYMS>  (6509) 


>  <SPECTRUM TYPE>  (6509) 
MS1

>  <INSTRUMENT TYPE>  (6509) 
EI-B

>  <INSTRUMENT>  (6509) 
HITACHI RMU-6M

>  <ION MODE>  (6509) 
P

>  <INCHIKEY>  (6509) 
SUSQOBVLVYHIEX-UHFFFAOYSA-N

>  <FORMULA>  (6509) 
C8H7N

>  <EXACT MASS>  (6509) 
117.057849224

>  <MW>  (6509) 
117

>  <ID>  (6509) 
JP001516

>  <CONTRIBUTOR>  (6509) 
University of Tokyo Team, {Faculty of Engineering, University of Tokyo

>  <COMMENT>  (6509) 
SMILES=N#CCc(c1)cccc1
InChI=InChI=1S/C8H7N/c9-7-6-8-4-2-1-3-5-8/h1-5H,6H2
computed SMILES=N#CCC=1C=CC=CC1
accession=JP001516
date=2016.01.19 (Created 2008.10.21, modified 2011.05.06)
author=YAMAMOTO M, DEP. CHEMISTRY, FAC. SCIENCE, NARA WOMEN'S UNIV.
license=CC BY-NC-SA
exact mass=117.05785
ionization energy=70 eV
ion type=[M]+*
computed spectral entropy=2.5551801469543087
computed normalized entropy=0.7440855177377995
SPLASH=splash10-014i-9700000000-5b4046338c3b05b9ed39
submitter=submitter = University of Tokyo Team (Faculty of Engineering, University of Tokyo)
MoNA Rating=3.75

>  <NUM PEAKS>  (6509) 
31

>  <MASS SPECTRAL PEAKS>  (6509) 
26 1.27
28 2.79
37 2.76
38 4.47
39 11.2
40 1.66
41 1.1
49 1.27
50 9.01
51 13.7
52 2.51
58.5 2.96
61 2.51
62 4.98
63 11.06
64 4.28
65 4.87
74 2.48
75 2.12
76 1.78
77 6.64
78 1.21
87 1.49
88 2.42
89 20.09
90 38.95
91 7.69
115 1.16
116 34.22
117 99.99
118 9.2

$$$$

     RDKit          2D

  8  8  0  0  0  0  0  0  0  0999 V2000
    2.2733   -0.6175    0.0000 C   0  0  0  0  0  0  0  0  0  0  0  0
    2.2738    0.8833    0.0000 C   0  0  0  0  0  0  0  0  0  0  0  0
    0.9738   -1.3683    0.0000 C   0  0  0  0  0  0  0  0  0  0  0  0
    0.9748    1.6333    0.0000 C   0  0  0  0  0  0  0  0  0  0  0  0
   -0.3252   -0.6183    0.0000 C   0  0  0  0  0  0  0  0  0  0  0  0
   -1.6238    1.6325    0.0000 C   0  0  0  0  0  0  0  0  0  0  0  0
   -0.3248    0.8825    0.0000 C   0  0  0  0  0  0  0  0  0  0  0  0
   -2.9228    0.8825    0.0000 O   0  0  0  0  0  0  0  0  0  0  0  0
  2  1  2  0
  3  1  1  0
  4  2  1  0
  5  3  2  0
  7  4  2  0
  7  5  1  0
  7  6  1  0
  8  6  1  0
M  END
>  <NAME>  (6510) 
BENZYL ALCOHOL

>  <SYNONYMS>  (6510) 


>  <SPECTRUM TYPE>  (6510) 
MS1

>  <INSTRUMENT TYPE>  (6510) 
EI-B

>  <INSTRUMENT>  (6510) 
HITACHI RMU-6M

>  <ION MODE>  (6510) 
P

>  <INCHIKEY>  (6510) 
WVDDGKGOMKODPV-UHFFFAOYSA-N

>  <FORMULA>  (6510) 
C7H8O

>  <EXACT MASS>  (6510) 
108.057514876

>  <MW>  (6510) 
108

>  <ID>  (6510) 
JP001515

>  <CONTRIBUTOR>  (6510) 
University of Tokyo Team, {Faculty of Engineering, University of Tokyo

>  <COMMENT>  (6510) 
SMILES=OCc(c1)cccc1
InChI=InChI=1S/C7H8O/c8-6-7-4-2-1-3-5-7/h1-5,8H,6H2
computed SMILES=OCC=1C=CC=CC1
accession=JP001515
date=2016.01.19 (Created 2008.10.21, modified 2011.05.06)
author=YAMAMOTO M, DEP. CHEMISTRY, FAC. SCIENCE, NARA WOMEN'S UNIV.
license=CC BY-NC-SA
exact mass=108.05751
ionization energy=70 eV
ion type=[M]+*
computed spectral entropy=2.8337289786011453
computed normalized entropy=0.753410850642444
SPLASH=splash10-056r-9400000000-f70e9531a9225476a41e
submitter=submitter = University of Tokyo Team (Faculty of Engineering, University of Tokyo)
MoNA Rating=3.75

>  <NUM PEAKS>  (6510) 
43

>  <MASS SPECTRAL PEAKS>  (6510) 
26 2.1
27 8.55
28 1.15
29 5.21
31 3.94
37 2.32
38 4.81
39 14.59
40 1.53
41 1.83
43 1.23
44 1.18
49 1.66
50 13.59
51 27.76
52 8.12
53 7.35
53.5 2.73
54 2.08
55 1.15
61 1.5
62 3.25
63 6.97
64 1.86
65 7.95
66 1.01
73 1.12
74 3.99
75 2.65
76 2.32
77 51.45
78 12.16
79 99.99
80 10.85
89 6.42
90 9.04
91 16.86
92 1.75
105 4.12
106 1.15
107 64.08
108 83.32
109 6.56

$$$$

     RDKit          2D

  8  8  0  0  0  0  0  0  0  0999 V2000
    2.2733   -0.6175    0.0000 C   0  0  0  0  0  0  0  0  0  0  0  0
    2.2738    0.8833    0.0000 C   0  0  0  0  0  0  0  0  0  0  0  0
    0.9738   -1.3683    0.0000 C   0  0  0  0  0  0  0  0  0  0  0  0
    0.9748    1.6333    0.0000 C   0  0  0  0  0  0  0  0  0  0  0  0
   -0.3252   -0.6183    0.0000 C   0  0  0  0  0  0  0  0  0  0  0  0
   -1.6238    1.6325    0.0000 C   0  0  0  0  0  0  0  0  0  0  0  0
   -0.3248    0.8825    0.0000 C   0  0  0  0  0  0  0  0  0  0  0  0
   -2.9228    0.8825    0.0000 N   0  0  0  0  0  0  0  0  0  0  0  0
  2  1  2  0
  3  1  1  0
  4  2  1  0
  5  3  2  0
  7  4  2  0
  7  5  1  0
  7  6  1  0
  8  6  1  0
M  END
>  <NAME>  (6511) 
BENZYLAMINE

>  <SYNONYMS>  (6511) 


>  <SPECTRUM TYPE>  (6511) 
MS1

>  <INSTRUMENT TYPE>  (6511) 
EI-B

>  <INSTRUMENT>  (6511) 
HITACHI RMU-6M

>  <ION MODE>  (6511) 
P

>  <INCHIKEY>  (6511) 
WGQKYBSKWIADBV-UHFFFAOYSA-N

>  <FORMULA>  (6511) 
C7H9N

>  <EXACT MASS>  (6511) 
107.073499288

>  <MW>  (6511) 
107

>  <ID>  (6511) 
JP001514

>  <CONTRIBUTOR>  (6511) 
University of Tokyo Team, {Faculty of Engineering, University of Tokyo

>  <COMMENT>  (6511) 
SMILES=NCc(c1)cccc1
InChI=InChI=1S/C7H9N/c8-6-7-4-2-1-3-5-7/h1-5H,6,8H2
computed SMILES=NCC=1C=CC=CC1
accession=JP001514
date=2016.01.19 (Created 2008.10.21, modified 2011.05.06)
author=YAMAMOTO M, DEP. CHEMISTRY, FAC. SCIENCE, NARA WOMEN'S UNIV.
license=CC BY-NC-SA
exact mass=107.0735
ionization energy=70 eV
ion type=[M]+*
computed spectral entropy=2.770830709143522
computed normalized entropy=0.7617223585851614
SPLASH=splash10-0a6r-9600000000-76805d0c1bcba470e1e9
submitter=submitter = University of Tokyo Team (Faculty of Engineering, University of Tokyo)
MoNA Rating=3.75

>  <NUM PEAKS>  (6511) 
38

>  <MASS SPECTRAL PEAKS>  (6511) 
26 1.03
27 4.1
28 29.18
29 6.53
30 39.55
37 1.44
38 2.66
39 9.5
40 1.03
41 1.73
49 1.08
50 9.32
51 18.27
52 6.79
52.5 3.41
53 4.93
53.5 1.76
54 1.44
61 1.03
62 2.06
63 4.9
64 1.47
65 6.3
74 2.51
75 1.81
76 2.27
77 23.94
78 15.69
79 43.52
89 4.1
90 2.4
91 15.2
92 1.6
104 4.91
105 2.09
106 99.99
107 69.82
108 5.73

$$$$

     RDKit          2D

 15 16  0  0  0  0  0  0  0  0999 V2000
    3.8981    1.0699    0.0000 C   0  0  0  0  0  0  0  0  0  0  0  0
   -5.1959    4.8220    0.0000 C   0  0  0  0  0  0  0  0  0  0  0  0
    3.8986    2.5708    0.0000 C   0  0  0  0  0  0  0  0  0  0  0  0
    2.5986    0.3191    0.0000 C   0  0  0  0  0  0  0  0  0  0  0  0
   -3.8967    5.5718    0.0000 C   0  0  0  0  0  0  0  0  0  0  0  0
   -5.1956    3.3212    0.0000 C   0  0  0  0  0  0  0  0  0  0  0  0
    2.5995    3.3208    0.0000 C   0  0  0  0  0  0  0  0  0  0  0  0
    1.2995    1.0691    0.0000 C   0  0  0  0  0  0  0  0  0  0  0  0
   -2.5973    4.8208    0.0000 C   0  0  0  0  0  0  0  0  0  0  0  0
   -3.8962    2.5702    0.0000 C   0  0  0  0  0  0  0  0  0  0  0  0
    1.3000    2.5699    0.0000 C   0  0  0  0  0  0  0  0  0  0  0  0
   -2.5971    3.3199    0.0000 C   0  0  0  0  0  0  0  0  0  0  0  0
    0.0010    3.3199    0.0000 C   0  0  0  0  0  0  0  0  0  0  0  0
    0.0010    4.8199    0.0000 O   0  0  0  0  0  0  0  0  0  0  0  0
   -1.2980    2.5699    0.0000 O   0  0  0  0  0  0  0  0  0  0  0  0
  3  1  2  0
  4  1  1  0
  5  2  2  0
  6  2  1  0
  7  3  1  0
  8  4  2  0
  9  5  1  0
 10  6  2  0
 11  7  2  0
 11  8  1  0
 12  9  2  0
 12 10  1  0
 13 11  1  0
 14 13  2  0
 15 12  1  0
 15 13  1  0
M  END
>  <NAME>  (6512) 
PHENYL BENZOATE

>  <SYNONYMS>  (6512) 


>  <SPECTRUM TYPE>  (6512) 
MS1

>  <INSTRUMENT TYPE>  (6512) 
EI-B

>  <INSTRUMENT>  (6512) 
HITACHI RMU-6M

>  <ION MODE>  (6512) 
P

>  <INCHIKEY>  (6512) 
FCJSHPDYVMKCHI-UHFFFAOYSA-N

>  <FORMULA>  (6512) 
C13H10O2

>  <EXACT MASS>  (6512) 
198.06807956

>  <MW>  (6512) 
198

>  <ID>  (6512) 
JP001513

>  <CONTRIBUTOR>  (6512) 
University of Tokyo Team, {Faculty of Engineering, University of Tokyo

>  <COMMENT>  (6512) 
SMILES=O=C(Oc(c2)cccc2)c(c1)cccc1
InChI=InChI=1S/C13H10O2/c14-13(11-7-3-1-4-8-11)15-12-9-5-2-6-10-12/h1-10H
computed SMILES=O=C(OC=1C=CC=CC1)C=2C=CC=CC2
accession=JP001513
date=2016.01.19 (Created 2008.10.21, modified 2011.05.06)
author=YAMAMOTO M, DEP. CHEMISTRY, FAC. SCIENCE, NARA WOMEN'S UNIV.
license=CC BY-NC-SA
exact mass=198.06808
ionization energy=70 eV
ion type=[M]+*
computed spectral entropy=1.8328938611786907
computed normalized entropy=0.6341377562147272
SPLASH=splash10-0a4i-7900000000-c4339fd58280cab5aaf0
submitter=submitter = University of Tokyo Team (Faculty of Engineering, University of Tokyo)
MoNA Rating=3.75

>  <NUM PEAKS>  (6512) 
18

>  <MASS SPECTRAL PEAKS>  (6512) 
27 1.72
28 1.69
38 1.65
39 8.99
50 5.64
51 18.56
52 1.02
63 1.71
65 4.6
74 1.24
75 1.26
76 2.44
77 48.28
78 3.5
105 99.99
106 7.93
198 8.89
199 1.31

$$$$

     RDKit          2D

 16 17  0  0  0  0  0  0  0  0999 V2000
    3.2481    2.1950    0.0000 C   0  0  0  0  0  0  0  0  0  0  0  0
   -7.1442    2.1950    0.0000 C   0  0  0  0  0  0  0  0  0  0  0  0
    3.2486    3.6958    0.0000 C   0  0  0  0  0  0  0  0  0  0  0  0
    1.9486    1.4442    0.0000 C   0  0  0  0  0  0  0  0  0  0  0  0
   -5.8447    1.4442    0.0000 C   0  0  0  0  0  0  0  0  0  0  0  0
   -7.1447    3.6958    0.0000 C   0  0  0  0  0  0  0  0  0  0  0  0
    1.9495    4.4458    0.0000 C   0  0  0  0  0  0  0  0  0  0  0  0
    0.6495    2.1942    0.0000 C   0  0  0  0  0  0  0  0  0  0  0  0
   -4.5457    2.1942    0.0000 C   0  0  0  0  0  0  0  0  0  0  0  0
   -5.8457    4.4458    0.0000 C   0  0  0  0  0  0  0  0  0  0  0  0
   -0.6490    4.4450    0.0000 C   0  0  0  0  0  0  0  0  0  0  0  0
    0.6500    3.6950    0.0000 C   0  0  0  0  0  0  0  0  0  0  0  0
   -4.5462    3.6950    0.0000 C   0  0  0  0  0  0  0  0  0  0  0  0
   -3.2471    4.4450    0.0000 C   0  0  0  0  0  0  0  0  0  0  0  0
   -3.2471    5.9450    0.0000 O   0  0  0  0  0  0  0  0  0  0  0  0
   -1.9481    3.6950    0.0000 O   0  0  0  0  0  0  0  0  0  0  0  0
  3  1  2  0
  4  1  1  0
  5  2  2  0
  6  2  1  0
  7  3  1  0
  8  4  2  0
  9  5  1  0
 10  6  2  0
 12  7  2  0
 12  8  1  0
 12 11  1  0
 13  9  2  0
 13 10  1  0
 14 13  1  0
 15 14  2  0
 16 11  1  0
 16 14  1  0
M  END
>  <NAME>  (6513) 
BENZYL BENZOATE

>  <SYNONYMS>  (6513) 


>  <SPECTRUM TYPE>  (6513) 
MS1

>  <INSTRUMENT TYPE>  (6513) 
EI-B

>  <INSTRUMENT>  (6513) 
HITACHI RMU-6M

>  <ION MODE>  (6513) 
P

>  <INCHIKEY>  (6513) 
SESFRYSPDFLNCH-UHFFFAOYSA-N

>  <FORMULA>  (6513) 
C14H12O2

>  <EXACT MASS>  (6513) 
212.083729624

>  <MW>  (6513) 
212

>  <ID>  (6513) 
JP001512

>  <CONTRIBUTOR>  (6513) 
University of Tokyo Team, {Faculty of Engineering, University of Tokyo

>  <COMMENT>  (6513) 
SMILES=O=C(OCc(c2)cccc2)c(c1)cccc1
InChI=InChI=1S/C14H12O2/c15-14(13-9-5-2-6-10-13)16-11-12-7-3-1-4-8-12/h1-10H,11H2
computed SMILES=O=C(OCC=1C=CC=CC1)C=2C=CC=CC2
ion type=[M]+*
accession=JP001512
date=2016.01.19 (Created 2008.10.21, modified 2011.05.06)
author=YAMAMOTO M, DEP. CHEMISTRY, FAC. SCIENCE, NARA WOMEN'S UNIV.
license=CC BY-NC-SA
exact mass=212.08373
ionization energy=70 eV
computed spectral entropy=2.432435585168402
computed normalized entropy=0.7299778803313928
SPLASH=splash10-0a4i-9600000000-053d8df1e84bfa72c807
submitter=submitter = University of Tokyo Team (Faculty of Engineering, University of Tokyo)
MoNA Rating=3.75

>  <NUM PEAKS>  (6513) 
28

>  <MASS SPECTRAL PEAKS>  (6513) 
27 8.5
28 1.11
38 1.11
39 6.5
41 1.63
50 4.75
51 16.07
52 2.04
63 3.07
64 1.3
65 11.54
74 1.37
75 1.15
76 1.8
77 31.42
78 3.82
79 6.05
89 4.56
90 8.78
91 49.42
92 4.51
105 99.99
106 9.14
107 7.49
165 1.22
167 5.42
194 5.65
195 1.06

$$$$

     RDKit          2D

 14 14  0  0  0  0  0  0  0  0999 V2000
   -7.4692    4.2571    0.0000 C   0  0  0  0  0  0  0  0  0  0  0  0
   -6.1702    3.5071    0.0000 C   0  0  0  0  0  0  0  0  0  0  0  0
   -4.8712    4.2571    0.0000 C   0  0  0  0  0  0  0  0  0  0  0  0
    4.2221    2.0071    0.0000 C   0  0  0  0  0  0  0  0  0  0  0  0
    4.2226    3.5079    0.0000 C   0  0  0  0  0  0  0  0  0  0  0  0
    2.9226    1.2563    0.0000 C   0  0  0  0  0  0  0  0  0  0  0  0
   -3.5721    3.5071    0.0000 C   0  0  0  0  0  0  0  0  0  0  0  0
    2.9236    4.2579    0.0000 C   0  0  0  0  0  0  0  0  0  0  0  0
    1.6236    2.0063    0.0000 C   0  0  0  0  0  0  0  0  0  0  0  0
   -2.2731    4.2571    0.0000 C   0  0  0  0  0  0  0  0  0  0  0  0
    1.6240    3.5071    0.0000 C   0  0  0  0  0  0  0  0  0  0  0  0
    0.3250    4.2571    0.0000 C   0  0  0  0  0  0  0  0  0  0  0  0
    0.3250    5.7571    0.0000 O   0  0  0  0  0  0  0  0  0  0  0  0
   -0.9740    3.5071    0.0000 O   0  0  0  0  0  0  0  0  0  0  0  0
  2  1  1  0
  3  2  1  0
  5  4  2  0
  6  4  1  0
  7  3  1  0
  8  5  1  0
  9  6  2  0
 10  7  1  0
 11  8  2  0
 11  9  1  0
 12 11  1  0
 13 12  2  0
 14 10  1  0
 14 12  1  0
M  END
>  <NAME>  (6514) 
PENTYL BENZOATE

>  <SYNONYMS>  (6514) 


>  <SPECTRUM TYPE>  (6514) 
MS1

>  <INSTRUMENT TYPE>  (6514) 
EI-B

>  <INSTRUMENT>  (6514) 
HITACHI RMU-6M

>  <ION MODE>  (6514) 
P

>  <INCHIKEY>  (6514) 
QKNZNUNCDJZTCH-UHFFFAOYSA-N

>  <FORMULA>  (6514) 
C12H16O2

>  <EXACT MASS>  (6514) 
192.115029752

>  <MW>  (6514) 
192

>  <ID>  (6514) 
JP001511

>  <CONTRIBUTOR>  (6514) 
University of Tokyo Team, {Faculty of Engineering, University of Tokyo

>  <COMMENT>  (6514) 
SMILES=CCCCCOC(=O)c(c1)cccc1
InChI=InChI=1S/C12H16O2/c1-2-3-7-10-14-12(13)11-8-5-4-6-9-11/h4-6,8-9H,2-3,7,10H2,1H3
computed SMILES=O=C(OCCCCC)C=1C=CC=CC1
accession=JP001511
date=2016.01.19 (Created 2008.10.21, modified 2011.05.06)
author=YAMAMOTO M, DEP. CHEMISTRY, FAC. SCIENCE, NARA WOMEN'S UNIV.
license=CC BY-NC-SA
exact mass=192.11503
ionization energy=70 eV
ion type=[M]+*
computed spectral entropy=2.5514770828070796
computed normalized entropy=0.7577228766435198
SPLASH=splash10-05fr-7900000000-a0692fa23c3ebfaf9f84
submitter=submitter = University of Tokyo Team (Faculty of Engineering, University of Tokyo)
MoNA Rating=3.75

>  <NUM PEAKS>  (6514) 
29

>  <MASS SPECTRAL PEAKS>  (6514) 
27 8.5
28 1.73
29 7.99
39 5.57
40 1.03
41 10.92
42 15.54
43 6.65
50 4.58
51 17.27
52 1.38
55 12.82
69 3.5
70 26.33
71 1.86
74 1.03
75 1.21
76 2.98
77 49.46
78 4.19
79 7.56
105 99.99
106 8.55
107 1.08
122 18.22
123 81.1
124 6.61
135 1.34
192 3.19

$$$$

     RDKit          2D

 15 15  0  0  0  0  0  0  0  0999 V2000
    4.8721    3.8829    0.0000 C   0  0  0  0  0  0  0  0  0  0  0  0
    3.5731    3.1329    0.0000 C   0  0  0  0  0  0  0  0  0  0  0  0
    2.2740    3.8829    0.0000 C   0  0  0  0  0  0  0  0  0  0  0  0
    0.9750    3.1329    0.0000 C   0  0  0  0  0  0  0  0  0  0  0  0
   -8.1183    5.3829    0.0000 C   0  0  0  0  0  0  0  0  0  0  0  0
   -8.1187    3.8821    0.0000 C   0  0  0  0  0  0  0  0  0  0  0  0
   -6.8187    6.1337    0.0000 C   0  0  0  0  0  0  0  0  0  0  0  0
   -0.3240    3.8829    0.0000 C   0  0  0  0  0  0  0  0  0  0  0  0
   -6.8197    3.1321    0.0000 C   0  0  0  0  0  0  0  0  0  0  0  0
   -5.5197    5.3837    0.0000 C   0  0  0  0  0  0  0  0  0  0  0  0
   -1.6231    3.1329    0.0000 C   0  0  0  0  0  0  0  0  0  0  0  0
   -5.5202    3.8829    0.0000 C   0  0  0  0  0  0  0  0  0  0  0  0
   -4.2212    3.1329    0.0000 C   0  0  0  0  0  0  0  0  0  0  0  0
   -4.2212    1.6329    0.0000 O   0  0  0  0  0  0  0  0  0  0  0  0
   -2.9221    3.8829    0.0000 O   0  0  0  0  0  0  0  0  0  0  0  0
  2  1  1  0
  3  2  1  0
  4  3  1  0
  6  5  2  0
  7  5  1  0
  8  4  1  0
  9  6  1  0
 10  7  2  0
 11  8  1  0
 12  9  2  0
 12 10  1  0
 13 12  1  0
 14 13  2  0
 15 11  1  0
 15 13  1  0
M  END
>  <NAME>  (6515) 
HEXYL BENZOATE

>  <SYNONYMS>  (6515) 


>  <SPECTRUM TYPE>  (6515) 
MS1

>  <INSTRUMENT TYPE>  (6515) 
EI-B

>  <INSTRUMENT>  (6515) 
HITACHI RMU-6M

>  <ION MODE>  (6515) 
P

>  <INCHIKEY>  (6515) 
UUGLJVMIFJNVFH-UHFFFAOYSA-N

>  <FORMULA>  (6515) 
C13H18O2

>  <EXACT MASS>  (6515) 
206.130679816

>  <MW>  (6515) 
206

>  <ID>  (6515) 
JP001510

>  <CONTRIBUTOR>  (6515) 
University of Tokyo Team, {Faculty of Engineering, University of Tokyo

>  <COMMENT>  (6515) 
SMILES=CCCCCCOC(=O)c(c1)cccc1
InChI=InChI=1S/C13H18O2/c1-2-3-4-8-11-15-13(14)12-9-6-5-7-10-12/h5-7,9-10H,2-4,8,11H2,1H3
computed SMILES=O=C(OCCCCCC)C=1C=CC=CC1
accession=JP001510
date=2016.01.19 (Created 2008.10.21, modified 2011.05.06)
author=YAMAMOTO M, DEP. CHEMISTRY, FAC. SCIENCE, NARA WOMEN'S UNIV.
license=CC BY-NC-SA
exact mass=206.13068
ionization energy=70 eV
ion type=[M]+*
computed spectral entropy=2.6932538236321872
computed normalized entropy=0.7637488580171035
SPLASH=splash10-0bt9-9800000000-a0160de2555213049374
submitter=submitter = University of Tokyo Team (Faculty of Engineering, University of Tokyo)
MoNA Rating=3.75

>  <NUM PEAKS>  (6515) 
34

>  <MASS SPECTRAL PEAKS>  (6515) 
27 8.95
28 2.34
29 8.99
39 5.55
40 1.02
41 14.72
42 11.19
43 13.45
50 3.97
51 15.55
52 1.32
53 1.19
54 1.76
55 13.97
56 28.24
57 2.2
67 1.06
69 10
70 1.02
74 1.07
75 1.23
76 3.09
77 49.83
78 4.23
79 7.8
83 1.9
84 20.01
85 1.86
105 99.99
106 8.59
112 16.17
113 93.75
114 7.28
206 2.65

$$$$

     RDKit          2D

 12 12  0  0  0  0  0  0  0  0999 V2000
   -5.5207    3.1321    0.0000 C   0  0  0  0  0  0  0  0  0  0  0  0
   -4.2216    2.3821    0.0000 C   0  0  0  0  0  0  0  0  0  0  0  0
    3.5726    0.8821    0.0000 C   0  0  0  0  0  0  0  0  0  0  0  0
    3.5731    2.3829    0.0000 C   0  0  0  0  0  0  0  0  0  0  0  0
    2.2731    0.1313    0.0000 C   0  0  0  0  0  0  0  0  0  0  0  0
    2.2740    3.1329    0.0000 C   0  0  0  0  0  0  0  0  0  0  0  0
    0.9740    0.8813    0.0000 C   0  0  0  0  0  0  0  0  0  0  0  0
   -2.9226    3.1321    0.0000 C   0  0  0  0  0  0  0  0  0  0  0  0
    0.9745    2.3821    0.0000 C   0  0  0  0  0  0  0  0  0  0  0  0
   -0.3245    3.1321    0.0000 C   0  0  0  0  0  0  0  0  0  0  0  0
   -0.3245    4.6321    0.0000 O   0  0  0  0  0  0  0  0  0  0  0  0
   -1.6236    2.3821    0.0000 O   0  0  0  0  0  0  0  0  0  0  0  0
  2  1  1  0
  4  3  2  0
  5  3  1  0
  6  4  1  0
  7  5  2  0
  8  2  1  0
  9  6  2  0
  9  7  1  0
 10  9  1  0
 11 10  2  0
 12  8  1  0
 12 10  1  0
M  END
>  <NAME>  (6516) 
PROPYL BENZOATE

>  <SYNONYMS>  (6516) 


>  <SPECTRUM TYPE>  (6516) 
MS1

>  <INSTRUMENT TYPE>  (6516) 
EI-B

>  <INSTRUMENT>  (6516) 
HITACHI RMU-6M

>  <ION MODE>  (6516) 
P

>  <INCHIKEY>  (6516) 
UDEWPOVQBGFNGE-UHFFFAOYSA-N

>  <FORMULA>  (6516) 
C10H12O2

>  <EXACT MASS>  (6516) 
164.083729624

>  <MW>  (6516) 
164

>  <ID>  (6516) 
JP001509

>  <CONTRIBUTOR>  (6516) 
University of Tokyo Team, {Faculty of Engineering, University of Tokyo

>  <COMMENT>  (6516) 
SMILES=CCCOC(=O)c(c1)cccc1
InChI=InChI=1S/C10H12O2/c1-2-8-12-10(11)9-6-4-3-5-7-9/h3-7H,2,8H2,1H3
computed SMILES=O=C(OCCC)C=1C=CC=CC1
accession=JP001509
date=2016.01.19 (Created 2008.10.21, modified 2011.05.06)
author=YAMAMOTO M, DEP. CHEMISTRY, FAC. SCIENCE, NARA WOMEN'S UNIV.
license=CC BY-NC-SA
exact mass=164.08373
ionization energy=70 eV
ion type=[M]+*
computed spectral entropy=2.2472893971004684
computed normalized entropy=0.7071275431651283
SPLASH=splash10-0ab9-5900000000-9bb9653d1a55e70922dd
submitter=submitter = University of Tokyo Team (Faculty of Engineering, University of Tokyo)
MoNA Rating=3.75

>  <NUM PEAKS>  (6516) 
24

>  <MASS SPECTRAL PEAKS>  (6516) 
27 8.06
28 1.1
29 1.65
39 4.05
41 4.99
42 2.64
43 3.19
50 6.23
51 19.2
52 1.5
59 2.25
74 1.65
75 1.43
76 2.97
77 45.35
79 3.67
105 99.99
106 8.94
107 1.06
122 27.25
123 42.49
124 3.59
135 1.65
164 3.52

$$$$

     RDKit          2D

 15 16  0  0  0  0  0  0  0  0999 V2000
    3.2481    2.1950    0.0000 C   0  0  0  0  0  0  0  0  0  0  0  0
   -7.1442    2.1950    0.0000 C   0  0  0  0  0  0  0  0  0  0  0  0
    3.2486    3.6958    0.0000 C   0  0  0  0  0  0  0  0  0  0  0  0
    1.9486    1.4442    0.0000 C   0  0  0  0  0  0  0  0  0  0  0  0
   -5.8447    1.4442    0.0000 C   0  0  0  0  0  0  0  0  0  0  0  0
   -7.1447    3.6958    0.0000 C   0  0  0  0  0  0  0  0  0  0  0  0
    1.9495    4.4458    0.0000 C   0  0  0  0  0  0  0  0  0  0  0  0
    0.6495    2.1942    0.0000 C   0  0  0  0  0  0  0  0  0  0  0  0
   -4.5457    2.1942    0.0000 C   0  0  0  0  0  0  0  0  0  0  0  0
   -5.8457    4.4458    0.0000 C   0  0  0  0  0  0  0  0  0  0  0  0
   -0.6490    4.4450    0.0000 C   0  0  0  0  0  0  0  0  0  0  0  0
   -3.2471    4.4450    0.0000 C   0  0  0  0  0  0  0  0  0  0  0  0
    0.6500    3.6950    0.0000 C   0  0  0  0  0  0  0  0  0  0  0  0
   -4.5462    3.6950    0.0000 C   0  0  0  0  0  0  0  0  0  0  0  0
   -1.9481    3.6950    0.0000 O   0  0  0  0  0  0  0  0  0  0  0  0
  3  1  2  0
  4  1  1  0
  5  2  2  0
  6  2  1  0
  7  3  1  0
  8  4  2  0
  9  5  1  0
 10  6  2  0
 13  7  2  0
 13  8  1  0
 13 11  1  0
 14  9  2  0
 14 10  1  0
 14 12  1  0
 15 11  1  0
 15 12  1  0
M  END
>  <NAME>  (6517) 
DIBENZYL ETHER

>  <SYNONYMS>  (6517) 


>  <SPECTRUM TYPE>  (6517) 
MS1

>  <INSTRUMENT TYPE>  (6517) 
EI-B

>  <INSTRUMENT>  (6517) 
HITACHI RMU-6M

>  <ION MODE>  (6517) 
P

>  <INCHIKEY>  (6517) 
MHDVGSVTJDSBDK-UHFFFAOYSA-N

>  <FORMULA>  (6517) 
C14H14O

>  <EXACT MASS>  (6517) 
198.104465068

>  <MW>  (6517) 
198

>  <ID>  (6517) 
JP001508

>  <CONTRIBUTOR>  (6517) 
University of Tokyo Team, {Faculty of Engineering, University of Tokyo

>  <COMMENT>  (6517) 
SMILES=c(c2)ccc(c2)COCc(c1)cccc1
InChI=InChI=1S/C14H14O/c1-3-7-13(8-4-1)11-15-12-14-9-5-2-6-10-14/h1-10H,11-12H2
computed SMILES=O(CC=1C=CC=CC1)CC=2C=CC=CC2
accession=JP001508
date=2016.01.19 (Created 2008.10.21, modified 2011.05.06)
author=YAMAMOTO M, DEP. CHEMISTRY, FAC. SCIENCE, NARA WOMEN'S UNIV.
license=CC BY-NC-SA
exact mass=198.10447
ionization energy=70 eV
ion type=[M]+*
computed spectral entropy=2.1840879451730673
computed normalized entropy=0.6626808406997771
SPLASH=splash10-0006-9000000000-5ea065fac34ad8205a2c
submitter=submitter = University of Tokyo Team (Faculty of Engineering, University of Tokyo)
MoNA Rating=3.75

>  <NUM PEAKS>  (6517) 
27

>  <MASS SPECTRAL PEAKS>  (6517) 
27 1.7
29 1
39 7.56
41 2.65
44 1.52
50 2.44
51 7.88
52 2.21
53 1.12
63 3.32
64 1.25
65 15.74
66 1.17
77 11.86
78 2.12
79 16.48
80 1.28
89 3.05
90 2.16
91 72.21
92 99.99
93 7.54
105 2.18
107 14.69
108 1.49
120 1.21
167 1.04

$$$$

     RDKit          2D

 13 14  0  0  0  0  0  0  0  0999 V2000
    6.1271    0.5392    0.0000 C   0  0  0  0  0  0  0  0  0  0  0  0
   -1.6700    0.5404    0.0000 C   0  0  0  0  0  0  0  0  0  0  0  0
    6.1271   -0.9608    0.0000 C   0  0  0  0  0  0  0  0  0  0  0  0
    4.8271    1.2892    0.0000 C   0  0  0  0  0  0  0  0  0  0  0  0
   -0.3710    1.2904    0.0000 C   0  0  0  0  0  0  0  0  0  0  0  0
   -1.6695   -0.9604    0.0000 C   0  0  0  0  0  0  0  0  0  0  0  0
    4.8271   -1.7108    0.0000 C   0  0  0  0  0  0  0  0  0  0  0  0
    3.5271    0.5392    0.0000 C   0  0  0  0  0  0  0  0  0  0  0  0
    0.9286    0.5396    0.0000 C   0  0  0  0  0  0  0  0  0  0  0  0
   -0.3700   -1.7112    0.0000 C   0  0  0  0  0  0  0  0  0  0  0  0
    3.5271   -0.9608    0.0000 C   0  0  0  0  0  0  0  0  0  0  0  0
    0.9290   -0.9612    0.0000 C   0  0  0  0  0  0  0  0  0  0  0  0
    2.2282   -1.7110    0.0000 O   0  0  0  0  0  0  0  0  0  0  0  0
  3  1  2  0
  4  1  1  0
  5  2  2  0
  6  2  1  0
  7  3  1  0
  8  4  2  0
  9  5  1  0
 10  6  2  0
 11  7  2  0
 11  8  1  0
 12  9  2  0
 12 10  1  0
 13 11  1  0
 13 12  1  0
M  END
>  <NAME>  (6518) 
DIPHENYL ETHER

>  <SYNONYMS>  (6518) 


>  <SPECTRUM TYPE>  (6518) 
MS1

>  <INSTRUMENT TYPE>  (6518) 
EI-B

>  <INSTRUMENT>  (6518) 
HITACHI RMU-6M

>  <ION MODE>  (6518) 
P

>  <INCHIKEY>  (6518) 
USIUVYZYUHIAEV-UHFFFAOYSA-N

>  <FORMULA>  (6518) 
C12H10O

>  <EXACT MASS>  (6518) 
170.07316494

>  <MW>  (6518) 
170

>  <ID>  (6518) 
JP001507

>  <CONTRIBUTOR>  (6518) 
University of Tokyo Team, {Faculty of Engineering, University of Tokyo

>  <COMMENT>  (6518) 
SMILES=c(c2)ccc(c2)Oc(c1)cccc1
InChI=InChI=1S/C12H10O/c1-3-7-11(8-4-1)13-12-9-5-2-6-10-12/h1-10H
computed SMILES=O(C=1C=CC=CC1)C=2C=CC=CC2
accession=JP001507
date=2016.01.19 (Created 2008.10.21, modified 2011.05.06)
author=YAMAMOTO M, DEP. CHEMISTRY, FAC. SCIENCE, NARA WOMEN'S UNIV.
license=CC BY-NC-SA
exact mass=170.07316
ionization energy=70 eV
ion type=[M]+*
computed spectral entropy=2.782599115097239
computed normalized entropy=0.7543209664913313
SPLASH=splash10-00dl-6900000000-1b320b4ab1b86a9f7013
submitter=submitter = University of Tokyo Team (Faculty of Engineering, University of Tokyo)
MoNA Rating=3.75

>  <NUM PEAKS>  (6518) 
40

>  <MASS SPECTRAL PEAKS>  (6518) 
27 3.75
28 2.17
38 3.62
39 15.52
40 1.68
50 9.03
51 37.16
52 2.21
55 1.72
57.5 1.64
58 1.2
62 1.6
63 5.22
64 2.34
65 6.97
66 1.14
70 3.82
70.5 1.44
71 5.07
74 2.37
75 1.92
76 2.3
77 37.16
78 2.74
84 1.1
85 3.15
89 1.07
94 4.86
115 11.24
116 2.02
139 2.26
140 1.46
141 36.62
142 26.84
143 3.18
168 2.2
169 15.83
170 99.99
171 13.76
172 1.26

$$$$

     RDKit          2D

 13 12  0  0  0  0  0  0  0  0999 V2000
    3.8971    6.7500    0.0000 C   0  0  0  0  0  0  0  0  0  0  0  0
  -11.6913    6.7500    0.0000 C   0  0  0  0  0  0  0  0  0  0  0  0
    2.5981    7.5000    0.0000 C   0  0  0  0  0  0  0  0  0  0  0  0
  -10.3923    7.5000    0.0000 C   0  0  0  0  0  0  0  0  0  0  0  0
    1.2990    6.7500    0.0000 C   0  0  0  0  0  0  0  0  0  0  0  0
   -9.0933    6.7500    0.0000 C   0  0  0  0  0  0  0  0  0  0  0  0
    0.0000    7.5000    0.0000 C   0  0  0  0  0  0  0  0  0  0  0  0
   -7.7942    7.5000    0.0000 C   0  0  0  0  0  0  0  0  0  0  0  0
   -1.2990    6.7500    0.0000 C   0  0  0  0  0  0  0  0  0  0  0  0
   -6.4952    6.7500    0.0000 C   0  0  0  0  0  0  0  0  0  0  0  0
   -2.5981    7.5000    0.0000 C   0  0  0  0  0  0  0  0  0  0  0  0
   -5.1962    7.5000    0.0000 C   0  0  0  0  0  0  0  0  0  0  0  0
   -3.8971    6.7500    0.0000 O   0  0  0  0  0  0  0  0  0  0  0  0
  3  1  1  0
  4  2  1  0
  5  3  1  0
  6  4  1  0
  7  5  1  0
  8  6  1  0
  9  7  1  0
 10  8  1  0
 11  9  1  0
 12 10  1  0
 13 11  1  0
 13 12  1  0
M  END
>  <NAME>  (6519) 
DIHEXYL ETHER

>  <SYNONYMS>  (6519) 


>  <SPECTRUM TYPE>  (6519) 
MS1

>  <INSTRUMENT TYPE>  (6519) 
EI-B

>  <INSTRUMENT>  (6519) 
HITACHI RMU-6M

>  <ION MODE>  (6519) 
P

>  <INCHIKEY>  (6519) 
BPIUIOXAFBGMNB-UHFFFAOYSA-N

>  <FORMULA>  (6519) 
C12H26O

>  <EXACT MASS>  (6519) 
186.198365452

>  <MW>  (6519) 
186

>  <ID>  (6519) 
JP001506

>  <CONTRIBUTOR>  (6519) 
University of Tokyo Team, {Faculty of Engineering, University of Tokyo

>  <COMMENT>  (6519) 
SMILES=CCCCCCOCCCCCC
InChI=InChI=1S/C12H26O/c1-3-5-7-9-11-13-12-10-8-6-4-2/h3-12H2,1-2H3
computed SMILES=O(CCCCCC)CCCCCC
accession=JP001506
date=2016.01.19 (Created 2008.10.21, modified 2011.05.06)
author=YAMAMOTO M, DEP. CHEMISTRY, FAC. SCIENCE, NARA WOMEN'S UNIV.
license=CC BY-NC-SA
exact mass=186.19837
ionization energy=70 eV
ion type=[M]+*
computed spectral entropy=2.5387015825345927
computed normalized entropy=0.7464140705923795
SPLASH=splash10-052o-9000000000-900a20d47416ce2a0354
submitter=submitter = University of Tokyo Team (Faculty of Engineering, University of Tokyo)
MoNA Rating=3.75

>  <NUM PEAKS>  (6519) 
30

>  <MASS SPECTRAL PEAKS>  (6519) 
27 10.61
28 3.6
29 14.68
31 1.75
39 4.59
40 1.19
41 25.06
42 11.09
43 99.99
44 3.36
45 2.65
53 1.33
54 1.4
55 16.13
56 38.19
57 17.62
67 1.47
69 10.4
70 1.58
71 1.42
73 1.13
82 1.64
83 16.39
84 29.39
85 86.45
86 5.8
101 1.33
103 4.38
115 3.32
186 1.04

$$$$

     RDKit          2D

 11 10  0  0  0  0  0  0  0  0999 V2000
   -6.8200    5.0625    0.0000 C   0  0  0  0  0  0  0  0  0  0  0  0
   -5.5209    2.8125    0.0000 C   0  0  0  0  0  0  0  0  0  0  0  0
    3.5724    5.0625    0.0000 C   0  0  0  0  0  0  0  0  0  0  0  0
    2.2733    2.8125    0.0000 C   0  0  0  0  0  0  0  0  0  0  0  0
   -4.2219    5.0625    0.0000 C   0  0  0  0  0  0  0  0  0  0  0  0
    0.9743    5.0625    0.0000 C   0  0  0  0  0  0  0  0  0  0  0  0
   -2.9228    4.3125    0.0000 C   0  0  0  0  0  0  0  0  0  0  0  0
   -0.3248    4.3125    0.0000 C   0  0  0  0  0  0  0  0  0  0  0  0
   -5.5209    4.3125    0.0000 C   0  0  0  0  0  0  0  0  0  0  0  0
    2.2733    4.3125    0.0000 C   0  0  0  0  0  0  0  0  0  0  0  0
   -1.6238    5.0625    0.0000 O   0  0  0  0  0  0  0  0  0  0  0  0
  7  5  1  0
  8  6  1  0
  9  1  1  0
  9  2  1  0
  9  5  1  0
 10  3  1  0
 10  4  1  0
 10  6  1  0
 11  7  1  0
 11  8  1  0
M  END
>  <NAME>  (6520) 
DIISOPENTYL ETHER

>  <SYNONYMS>  (6520) 


>  <SPECTRUM TYPE>  (6520) 
MS1

>  <INSTRUMENT TYPE>  (6520) 
EI-B

>  <INSTRUMENT>  (6520) 
HITACHI RMU-6M

>  <ION MODE>  (6520) 
P

>  <INCHIKEY>  (6520) 
AQZGPSLYZOOYQP-UHFFFAOYSA-N

>  <FORMULA>  (6520) 
C10H22O

>  <EXACT MASS>  (6520) 
158.167065324

>  <MW>  (6520) 
158

>  <ID>  (6520) 
JP001505

>  <CONTRIBUTOR>  (6520) 
University of Tokyo Team, {Faculty of Engineering, University of Tokyo

>  <COMMENT>  (6520) 
SMILES=CC(C)CCOCCC(C)C
InChI=InChI=1S/C10H22O/c1-9(2)5-7-11-8-6-10(3)4/h9-10H,5-8H2,1-4H3
computed SMILES=O(CCC(C)C)CCC(C)C
ionization energy=70 eV
accession=JP001505
date=2016.01.19 (Created 2008.10.21, modified 2011.05.06)
author=YAMAMOTO M, DEP. CHEMISTRY, FAC. SCIENCE, NARA WOMEN'S UNIV.
license=CC BY-NC-SA
exact mass=158.16707
ion type=[M]+*
computed spectral entropy=2.3976336576216313
computed normalized entropy=0.7448667758781296
SPLASH=splash10-00dl-9000000000-87fe09a32ac64a12c7ef
submitter=submitter = University of Tokyo Team (Faculty of Engineering, University of Tokyo)
MoNA Rating=3.75

>  <NUM PEAKS>  (6520) 
25

>  <MASS SPECTRAL PEAKS>  (6520) 
15 1.06
27 12.59
28 4.65
29 16.62
30 1.19
31 2.45
39 7.44
40 1.47
41 23.7
42 11.43
43 99.99
44 3.54
45 8.69
53 1.83
55 19.12
56 4.37
57 3.33
59 1.66
69 37.82
70 88.82
71 72.91
72 4.22
85 1.04
101 17.87
102 1.21

$$$$

     RDKit          2D

  9  8  0  0  0  0  0  0  0  0999 V2000
    2.2733    2.8125    0.0000 C   0  0  0  0  0  0  0  0  0  0  0  0
    0.9743    5.0625    0.0000 C   0  0  0  0  0  0  0  0  0  0  0  0
   -5.5209    2.8125    0.0000 C   0  0  0  0  0  0  0  0  0  0  0  0
   -4.2219    5.0625    0.0000 C   0  0  0  0  0  0  0  0  0  0  0  0
   -0.3248    2.8125    0.0000 C   0  0  0  0  0  0  0  0  0  0  0  0
   -2.9228    2.8125    0.0000 C   0  0  0  0  0  0  0  0  0  0  0  0
    0.9743    3.5625    0.0000 C   0  0  0  0  0  0  0  0  0  0  0  0
   -4.2219    3.5625    0.0000 C   0  0  0  0  0  0  0  0  0  0  0  0
   -1.6238    3.5625    0.0000 O   0  0  0  0  0  0  0  0  0  0  0  0
  7  1  1  0
  7  2  1  0
  7  5  1  0
  8  3  1  0
  8  4  1  0
  8  6  1  0
  9  5  1  0
  9  6  1  0
M  END
>  <NAME>  (6521) 
DIISOBUTYL ETHER

>  <SYNONYMS>  (6521) 


>  <SPECTRUM TYPE>  (6521) 
MS1

>  <INSTRUMENT TYPE>  (6521) 
EI-B

>  <INSTRUMENT>  (6521) 
HITACHI RMU-6M

>  <ION MODE>  (6521) 
P

>  <INCHIKEY>  (6521) 
SZNYYWIUQFZLLT-UHFFFAOYSA-N

>  <FORMULA>  (6521) 
C8H18O

>  <EXACT MASS>  (6521) 
130.135765196

>  <MW>  (6521) 
130

>  <ID>  (6521) 
JP001503

>  <CONTRIBUTOR>  (6521) 
University of Tokyo Team, {Faculty of Engineering, University of Tokyo

>  <COMMENT>  (6521) 
SMILES=CC(C)COCC(C)C
computed SMILES=O(CC(C)C)CC(C)C
InChI=InChI=1S/C8H18O/c1-7(2)5-9-6-8(3)4/h7-8H,5-6H2,1-4H3
accession=JP001503
date=2016.01.19 (Created 2008.10.21, modified 2011.05.06)
author=YAMAMOTO M, DEP. CHEMISTRY, FAC. SCIENCE, NARA WOMEN'S UNIV.
license=CC BY-NC-SA
exact mass=130.13577
ionization energy=70 eV
ion type=[M]+*
computed spectral entropy=2.0069190099551912
computed normalized entropy=0.659190086789404
SPLASH=splash10-0a4i-9000000000-fd3c9c356f51360f774b
submitter=submitter = University of Tokyo Team (Faculty of Engineering, University of Tokyo)
MoNA Rating=3.75

>  <NUM PEAKS>  (6521) 
21

>  <MASS SPECTRAL PEAKS>  (6521) 
15 1.18
27 7.73
28 1.61
29 18.53
31 1.68
39 6.96
40 1.28
41 27.88
42 3.29
43 4.74
44 1.12
45 2.55
55 2.53
56 5.44
57 99.99
58 4.7
59 1.97
73 1.34
87 10.59
88 1.07
130 4.84

$$$$

     RDKit          2D

  9  8  0  0  0  0  0  0  0  0999 V2000
    2.5981    4.5000    0.0000 C   0  0  0  0  0  0  0  0  0  0  0  0
   -7.7942    4.5000    0.0000 C   0  0  0  0  0  0  0  0  0  0  0  0
    1.2990    5.2500    0.0000 C   0  0  0  0  0  0  0  0  0  0  0  0
   -6.4952    5.2500    0.0000 C   0  0  0  0  0  0  0  0  0  0  0  0
    0.0000    4.5000    0.0000 C   0  0  0  0  0  0  0  0  0  0  0  0
   -5.1962    4.5000    0.0000 C   0  0  0  0  0  0  0  0  0  0  0  0
   -1.2990    5.2500    0.0000 C   0  0  0  0  0  0  0  0  0  0  0  0
   -3.8971    5.2500    0.0000 C   0  0  0  0  0  0  0  0  0  0  0  0
   -2.5981    4.5000    0.0000 O   0  0  0  0  0  0  0  0  0  0  0  0
  3  1  1  0
  4  2  1  0
  5  3  1  0
  6  4  1  0
  7  5  1  0
  8  6  1  0
  9  7  1  0
  9  8  1  0
M  END
>  <NAME>  (6522) 
DIBUTYL ETHER

>  <SYNONYMS>  (6522) 


>  <SPECTRUM TYPE>  (6522) 
MS1

>  <INSTRUMENT TYPE>  (6522) 
EI-B

>  <INSTRUMENT>  (6522) 
HITACHI RMU-6M

>  <ION MODE>  (6522) 
P

>  <INCHIKEY>  (6522) 
DURPTKYDGMDSBL-UHFFFAOYSA-N

>  <FORMULA>  (6522) 
C8H18O

>  <EXACT MASS>  (6522) 
130.135765196

>  <MW>  (6522) 
130

>  <ID>  (6522) 
JP001502

>  <CONTRIBUTOR>  (6522) 
University of Tokyo Team, {Faculty of Engineering, University of Tokyo

>  <COMMENT>  (6522) 
SMILES=CCCCOCCCC
InChI=InChI=1S/C8H18O/c1-3-5-7-9-8-6-4-2/h3-8H2,1-2H3
computed SMILES=O(CCCC)CCCC
accession=JP001502
date=2016.01.19 (Created 2008.10.21, modified 2011.05.06)
author=YAMAMOTO M, DEP. CHEMISTRY, FAC. SCIENCE, NARA WOMEN'S UNIV.
license=CC BY-NC-SA
exact mass=130.13577
ionization energy=70 eV
ion type=[M]+*
computed spectral entropy=2.1261925107901924
computed normalized entropy=0.6983665104403295
SPLASH=splash10-0a4i-9000000000-aea3e7f46a67a0b6417b
submitter=submitter = University of Tokyo Team (Faculty of Engineering, University of Tokyo)
MoNA Rating=3.75

>  <NUM PEAKS>  (6522) 
21

>  <MASS SPECTRAL PEAKS>  (6522) 
15 1.05
27 10.99
28 5.21
29 26.8
30 1.12
31 2.63
39 5.84
41 31.34
42 2.17
43 3.16
44 1.3
45 2.61
55 4.8
56 16.45
57 99.99
58 4.59
73 1.58
87 16.8
88 1.07
101 2.81
130 2.75

$$$$

     RDKit          2D

  7  6  0  0  0  0  0  0  0  0999 V2000
    1.6238    1.6875    0.0000 C   0  0  0  0  0  0  0  0  0  0  0  0
    0.3248    3.9375    0.0000 C   0  0  0  0  0  0  0  0  0  0  0  0
   -3.5724    1.6875    0.0000 C   0  0  0  0  0  0  0  0  0  0  0  0
   -2.2733    3.9375    0.0000 C   0  0  0  0  0  0  0  0  0  0  0  0
    0.3248    2.4375    0.0000 C   0  0  0  0  0  0  0  0  0  0  0  0
   -2.2733    2.4375    0.0000 C   0  0  0  0  0  0  0  0  0  0  0  0
   -0.9743    1.6875    0.0000 O   0  0  0  0  0  0  0  0  0  0  0  0
  5  1  1  0
  5  2  1  0
  6  3  1  0
  6  4  1  0
  7  5  1  0
  7  6  1  0
M  END
>  <NAME>  (6523) 
DIISOPROPYL ETHER

>  <SYNONYMS>  (6523) 


>  <SPECTRUM TYPE>  (6523) 
MS1

>  <INSTRUMENT TYPE>  (6523) 
EI-B

>  <INSTRUMENT>  (6523) 
HITACHI RMU-6M

>  <ION MODE>  (6523) 
P

>  <INCHIKEY>  (6523) 
ZAFNJMIOTHYJRJ-UHFFFAOYSA-N

>  <FORMULA>  (6523) 
C6H14O

>  <EXACT MASS>  (6523) 
102.104465068

>  <MW>  (6523) 
102

>  <ID>  (6523) 
JP001501

>  <CONTRIBUTOR>  (6523) 
University of Tokyo Team, {Faculty of Engineering, University of Tokyo

>  <COMMENT>  (6523) 
SMILES=CC(C)OC(C)C
InChI=InChI=1S/C6H14O/c1-5(2)7-6(3)4/h5-6H,1-4H3
computed SMILES=O(C(C)C)C(C)C
accession=JP001501
date=2016.01.19 (Created 2008.10.21, modified 2011.05.06)
author=YAMAMOTO M, DEP. CHEMISTRY, FAC. SCIENCE, NARA WOMEN'S UNIV.
license=CC BY-NC-SA
exact mass=102.10447
ionization energy=70 eV
ion type=[M]+*
computed spectral entropy=1.9747435693050293
computed normalized entropy=0.6832143871840209
SPLASH=splash10-0005-9000000000-d7172da71aef97ba2242
submitter=submitter = University of Tokyo Team (Faculty of Engineering, University of Tokyo)
MoNA Rating=3.75

>  <NUM PEAKS>  (6523) 
18

>  <MASS SPECTRAL PEAKS>  (6523) 
15 4.87
27 10.81
28 1.08
29 2.2
31 4.1
39 6.97
40 1.15
41 14.85
42 3.28
43 39.6
44 1.73
45 99.99
46 2.45
59 9.93
69 3.8
87 19.48
88 1.23
102 2.34

$$$$

     RDKit          2D

  7  6  0  0  0  0  0  0  0  0999 V2000
    1.9486    3.3750    0.0000 C   0  0  0  0  0  0  0  0  0  0  0  0
   -5.8457    3.3750    0.0000 C   0  0  0  0  0  0  0  0  0  0  0  0
    0.6495    4.1250    0.0000 C   0  0  0  0  0  0  0  0  0  0  0  0
   -4.5466    4.1250    0.0000 C   0  0  0  0  0  0  0  0  0  0  0  0
   -0.6495    3.3750    0.0000 C   0  0  0  0  0  0  0  0  0  0  0  0
   -3.2476    3.3750    0.0000 C   0  0  0  0  0  0  0  0  0  0  0  0
   -1.9486    4.1250    0.0000 O   0  0  0  0  0  0  0  0  0  0  0  0
  3  1  1  0
  4  2  1  0
  5  3  1  0
  6  4  1  0
  7  5  1  0
  7  6  1  0
M  END
>  <NAME>  (6524) 
DIPROPYL ETHER

>  <SYNONYMS>  (6524) 


>  <SPECTRUM TYPE>  (6524) 
MS1

>  <INSTRUMENT TYPE>  (6524) 
EI-B

>  <INSTRUMENT>  (6524) 
HITACHI RMU-6M

>  <ION MODE>  (6524) 
P

>  <INCHIKEY>  (6524) 
POLCUAVZOMRGSN-UHFFFAOYSA-N

>  <FORMULA>  (6524) 
C6H14O

>  <EXACT MASS>  (6524) 
102.104465068

>  <MW>  (6524) 
102

>  <ID>  (6524) 
JP001500

>  <CONTRIBUTOR>  (6524) 
University of Tokyo Team, {Faculty of Engineering, University of Tokyo

>  <COMMENT>  (6524) 
SMILES=CCCOCCC
InChI=InChI=1S/C6H14O/c1-3-5-7-6-4-2/h3-6H2,1-2H3
computed SMILES=O(CCC)CCC
accession=JP001500
date=2016.01.19 (Created 2008.10.21, modified 2011.05.06)
author=YAMAMOTO M, DEP. CHEMISTRY, FAC. SCIENCE, NARA WOMEN'S UNIV.
license=CC BY-NC-SA
exact mass=102.10447
ionization energy=70 eV
ion type=[M]+*
computed spectral entropy=1.9142856945358115
computed normalized entropy=0.6756588587131223
SPLASH=splash10-0006-9000000000-d3d1fdc888b5dd7e2be1
submitter=submitter = University of Tokyo Team (Faculty of Engineering, University of Tokyo)
MoNA Rating=3.75

>  <NUM PEAKS>  (6524) 
17

>  <MASS SPECTRAL PEAKS>  (6524) 
15 1.77
26 1.3
27 15.52
28 2.24
29 3.11
31 6.85
39 6.43
40 1.21
41 19.84
42 4.58
43 99.99
44 3.56
45 1.39
55 4.3
59 3.68
73 19.54
102 8.58

$$$$

     RDKit          2D

  9  8  0  0  0  0  0  0  0  0999 V2000
    1.9486    3.3750    0.0000 C   0  0  0  0  0  0  0  0  0  0  0  0
   -5.8457    3.3750    0.0000 C   0  0  0  0  0  0  0  0  0  0  0  0
   -4.5466    5.6250    0.0000 C   0  0  0  0  0  0  0  0  0  0  0  0
    0.6495    4.1250    0.0000 C   0  0  0  0  0  0  0  0  0  0  0  0
   -3.2476    3.3750    0.0000 C   0  0  0  0  0  0  0  0  0  0  0  0
   -4.5466    4.1250    0.0000 C   0  0  0  0  0  0  0  0  0  0  0  0
   -0.6495    3.3750    0.0000 C   0  0  0  0  0  0  0  0  0  0  0  0
   -0.6495    1.8750    0.0000 O   0  0  0  0  0  0  0  0  0  0  0  0
   -1.9486    4.1250    0.0000 O   0  0  0  0  0  0  0  0  0  0  0  0
  4  1  1  0
  6  2  1  0
  6  3  1  0
  6  5  1  0
  7  4  1  0
  8  7  2  0
  9  5  1  0
  9  7  1  0
M  END
>  <NAME>  (6525) 
ISOBUTYL PROPIONATE

>  <SYNONYMS>  (6525) 


>  <SPECTRUM TYPE>  (6525) 
MS1

>  <INSTRUMENT TYPE>  (6525) 
EI-B

>  <INSTRUMENT>  (6525) 
HITACHI RMU-6M

>  <ION MODE>  (6525) 
P

>  <INCHIKEY>  (6525) 
FZXRXKLUIMKDEL-UHFFFAOYSA-N

>  <FORMULA>  (6525) 
C7H14O2

>  <EXACT MASS>  (6525) 
130.099379688

>  <MW>  (6525) 
130

>  <ID>  (6525) 
JP001497

>  <CONTRIBUTOR>  (6525) 
University of Tokyo Team, {Faculty of Engineering, University of Tokyo

>  <COMMENT>  (6525) 
SMILES=CCC(=O)OCC(C)C
InChI=InChI=1S/C7H14O2/c1-4-7(8)9-5-6(2)3/h6H,4-5H2,1-3H3
computed SMILES=O=C(OCC(C)C)CC
accession=JP001497
date=2016.01.19 (Created 2008.10.21, modified 2011.05.06)
author=YAMAMOTO M, DEP. CHEMISTRY, FAC. SCIENCE, NARA WOMEN'S UNIV.
license=CC BY-NC-SA
exact mass=130.09938
ionization energy=70 eV
ion type=[M]+*
computed spectral entropy=1.9856125611483522
computed normalized entropy=0.6743602347332298
SPLASH=splash10-0a4i-9000000000-696dd19162629b887c12
submitter=submitter = University of Tokyo Team (Faculty of Engineering, University of Tokyo)
MoNA Rating=3.75

>  <NUM PEAKS>  (6525) 
19

>  <MASS SPECTRAL PEAKS>  (6525) 
15 1.09
26 1.27
27 10.69
28 4.15
29 34.47
31 2.55
39 4.22
41 1.51
43 4.43
55 2.29
56 36.1
57 99.99
58 3.78
71 3.75
73 2.86
74 1.72
75 9.32
87 10.42
100 1.36

$$$$

     RDKit          2D

  8  7  0  0  0  0  0  0  0  0999 V2000
    1.6238    3.1875    0.0000 C   0  0  0  0  0  0  0  0  0  0  0  0
   -4.8714    3.9375    0.0000 C   0  0  0  0  0  0  0  0  0  0  0  0
   -3.5724    1.6875    0.0000 C   0  0  0  0  0  0  0  0  0  0  0  0
    0.3248    3.9375    0.0000 C   0  0  0  0  0  0  0  0  0  0  0  0
   -3.5724    3.1875    0.0000 C   0  0  0  0  0  0  0  0  0  0  0  0
   -0.9743    3.1875    0.0000 C   0  0  0  0  0  0  0  0  0  0  0  0
   -0.9743    1.6875    0.0000 O   0  0  0  0  0  0  0  0  0  0  0  0
   -2.2733    3.9375    0.0000 O   0  0  0  0  0  0  0  0  0  0  0  0
  4  1  1  0
  5  2  1  0
  5  3  1  0
  6  4  1  0
  7  6  2  0
  8  5  1  0
  8  6  1  0
M  END
>  <NAME>  (6526) 
ISOPROPYL PROPIONATE

>  <SYNONYMS>  (6526) 


>  <SPECTRUM TYPE>  (6526) 
MS1

>  <INSTRUMENT TYPE>  (6526) 
EI-B

>  <INSTRUMENT>  (6526) 
HITACHI RMU-6M

>  <ION MODE>  (6526) 
P

>  <INCHIKEY>  (6526) 
IJMWOMHMDSDKGK-UHFFFAOYSA-N

>  <FORMULA>  (6526) 
C6H12O2

>  <EXACT MASS>  (6526) 
116.083729624

>  <MW>  (6526) 
116

>  <ID>  (6526) 
JP001496

>  <CONTRIBUTOR>  (6526) 
University of Tokyo Team, {Faculty of Engineering, University of Tokyo

>  <COMMENT>  (6526) 
SMILES=CCC(=O)OC(C)C
InChI=InChI=1S/C6H12O2/c1-4-6(7)8-5(2)3/h5H,4H2,1-3H3
computed SMILES=O=C(OC(C)C)CC
accession=JP001496
date=2016.01.19 (Created 2008.10.21, modified 2011.05.06)
author=YAMAMOTO M, DEP. CHEMISTRY, FAC. SCIENCE, NARA WOMEN'S UNIV.
license=CC BY-NC-SA
exact mass=116.08373
ionization energy=70 eV
ion type=[M]+*
computed spectral entropy=2.304593036757386
computed normalized entropy=0.7159620818400938
SPLASH=splash10-0a6u-9000000000-cd6b579eab50988149da
submitter=submitter = University of Tokyo Team (Faculty of Engineering, University of Tokyo)
MoNA Rating=3.75

>  <NUM PEAKS>  (6526) 
25

>  <MASS SPECTRAL PEAKS>  (6526) 
15 3.49
26 2.18
27 17.53
28 4.51
29 31.36
30 1.05
31 1.57
39 4.95
40 1.07
41 14.61
42 6.25
43 57.07
44 1.94
45 4.01
55 1.01
56 1.44
57 99.99
58 3.72
59 10.91
73 1
74 4.75
75 29.37
76 1.07
101 10.39
116 0.87

$$$$

     RDKit          2D

  8  7  0  0  0  0  0  0  0  0999 V2000
    1.9486    3.3750    0.0000 C   0  0  0  0  0  0  0  0  0  0  0  0
   -5.8457    3.3750    0.0000 C   0  0  0  0  0  0  0  0  0  0  0  0
    0.6495    4.1250    0.0000 C   0  0  0  0  0  0  0  0  0  0  0  0
   -4.5466    4.1250    0.0000 C   0  0  0  0  0  0  0  0  0  0  0  0
   -0.6495    3.3750    0.0000 C   0  0  0  0  0  0  0  0  0  0  0  0
   -3.2476    3.3750    0.0000 C   0  0  0  0  0  0  0  0  0  0  0  0
   -3.2476    1.8750    0.0000 O   0  0  0  0  0  0  0  0  0  0  0  0
   -1.9486    4.1250    0.0000 O   0  0  0  0  0  0  0  0  0  0  0  0
  3  1  1  0
  4  2  1  0
  5  3  1  0
  6  4  1  0
  7  6  2  0
  8  5  1  0
  8  6  1  0
M  END
>  <NAME>  (6527) 
PROPYL PROPIONATE

>  <SYNONYMS>  (6527) 


>  <SPECTRUM TYPE>  (6527) 
MS1

>  <INSTRUMENT TYPE>  (6527) 
EI-B

>  <INSTRUMENT>  (6527) 
HITACHI RMU-6M

>  <ION MODE>  (6527) 
P

>  <INCHIKEY>  (6527) 
MCSINKKTEDDPNK-UHFFFAOYSA-N

>  <FORMULA>  (6527) 
C6H12O2

>  <EXACT MASS>  (6527) 
116.083729624

>  <MW>  (6527) 
116

>  <ID>  (6527) 
JP001495

>  <CONTRIBUTOR>  (6527) 
University of Tokyo Team, {Faculty of Engineering, University of Tokyo

>  <COMMENT>  (6527) 
SMILES=CCCOC(=O)CC
InChI=InChI=1S/C6H12O2/c1-3-5-8-6(7)4-2/h3-5H2,1-2H3
computed SMILES=O=C(OCCC)CC
accession=JP001495
date=2016.01.19 (Created 2008.10.21, modified 2011.05.06)
author=YAMAMOTO M, DEP. CHEMISTRY, FAC. SCIENCE, NARA WOMEN'S UNIV.
license=CC BY-NC-SA
exact mass=116.08373
ionization energy=70 eV
ion type=[M]+*
computed spectral entropy=2.2403419859750806
computed normalized entropy=0.7247852528007251
SPLASH=splash10-056r-9000000000-b0a31f4b7c2db804c2a6
submitter=submitter = University of Tokyo Team (Faculty of Engineering, University of Tokyo)
MoNA Rating=3.75

>  <NUM PEAKS>  (6527) 
22

>  <MASS SPECTRAL PEAKS>  (6527) 
15 1.57
26 2.58
27 18.68
28 5.8
29 37.71
30 1.16
31 5.63
39 3.64
41 10.77
42 9.78
43 23.57
55 1.12
56 1.92
57 99.99
58 3.77
59 5.75
73 1.02
74 3.62
75 44.38
76 1.61
86 1.03
87 8.7

$$$$

     RDKit          2D

  7  6  0  0  0  0  0  0  0  0999 V2000
    1.9486    2.6250    0.0000 C   0  0  0  0  0  0  0  0  0  0  0  0
   -4.5466    3.3750    0.0000 C   0  0  0  0  0  0  0  0  0  0  0  0
    0.6495    3.3750    0.0000 C   0  0  0  0  0  0  0  0  0  0  0  0
   -3.2476    2.6250    0.0000 C   0  0  0  0  0  0  0  0  0  0  0  0
   -0.6495    2.6250    0.0000 C   0  0  0  0  0  0  0  0  0  0  0  0
   -0.6495    1.1250    0.0000 O   0  0  0  0  0  0  0  0  0  0  0  0
   -1.9486    3.3750    0.0000 O   0  0  0  0  0  0  0  0  0  0  0  0
  3  1  1  0
  4  2  1  0
  5  3  1  0
  6  5  2  0
  7  4  1  0
  7  5  1  0
M  END
>  <NAME>  (6528) 
ETHYL PROPIONATE

>  <SYNONYMS>  (6528) 


>  <SPECTRUM TYPE>  (6528) 
MS1

>  <INSTRUMENT TYPE>  (6528) 
EI-B

>  <INSTRUMENT>  (6528) 
HITACHI RMU-6M

>  <ION MODE>  (6528) 
P

>  <INCHIKEY>  (6528) 
FKRCODPIKNYEAC-UHFFFAOYSA-N

>  <FORMULA>  (6528) 
C5H10O2

>  <EXACT MASS>  (6528) 
102.06807956

>  <MW>  (6528) 
102

>  <ID>  (6528) 
JP001494

>  <CONTRIBUTOR>  (6528) 
University of Tokyo Team, {Faculty of Engineering, University of Tokyo

>  <COMMENT>  (6528) 
SMILES=CCOC(=O)CC
InChI=InChI=1S/C5H10O2/c1-3-5(6)7-4-2/h3-4H2,1-2H3
computed SMILES=O=C(OCC)CC
accession=JP001494
date=2016.01.19 (Created 2008.10.21, modified 2011.05.06)
author=YAMAMOTO M, DEP. CHEMISTRY, FAC. SCIENCE, NARA WOMEN'S UNIV.
license=CC BY-NC-SA
exact mass=102.06808
ionization energy=70 eV
ion type=[M]+*
computed spectral entropy=2.1200841249634177
computed normalized entropy=0.6858799764008469
SPLASH=splash10-056r-9000000000-4c782cf1377c63ba500b
submitter=submitter = University of Tokyo Team (Faculty of Engineering, University of Tokyo)
MoNA Rating=3.75

>  <NUM PEAKS>  (6528) 
22

>  <MASS SPECTRAL PEAKS>  (6528) 
15 2.65
26 4.52
27 23.11
28 14.99
29 99.99
30 3.19
31 3.45
41 1.02
42 1.75
43 4.28
45 12.69
55 1.6
56 3.6
57 94.27
58 3.33
73 5.78
74 9.99
75 12.29
84 1.2
87 1.68
102 15.23
103 1

$$$$

     RDKit          2D

  6  5  0  0  0  0  0  0  0  0999 V2000
    1.2990    2.2500    0.0000 C   0  0  0  0  0  0  0  0  0  0  0  0
   -3.8971    2.2500    0.0000 C   0  0  0  0  0  0  0  0  0  0  0  0
    0.0000    3.0000    0.0000 C   0  0  0  0  0  0  0  0  0  0  0  0
   -1.2990    2.2500    0.0000 C   0  0  0  0  0  0  0  0  0  0  0  0
   -1.2990    0.7500    0.0000 O   0  0  0  0  0  0  0  0  0  0  0  0
   -2.5981    3.0000    0.0000 O   0  0  0  0  0  0  0  0  0  0  0  0
  3  1  1  0
  4  3  1  0
  5  4  2  0
  6  2  1  0
  6  4  1  0
M  END
>  <NAME>  (6529) 
METHYL PROPIONATE

>  <SYNONYMS>  (6529) 


>  <SPECTRUM TYPE>  (6529) 
MS1

>  <INSTRUMENT TYPE>  (6529) 
EI-B

>  <INSTRUMENT>  (6529) 
HITACHI RMU-6M

>  <ION MODE>  (6529) 
P

>  <INCHIKEY>  (6529) 
RJUFJBKOKNCXHH-UHFFFAOYSA-N

>  <FORMULA>  (6529) 
C4H8O2

>  <EXACT MASS>  (6529) 
88.052429496

>  <MW>  (6529) 
88

>  <ID>  (6529) 
JP001493

>  <CONTRIBUTOR>  (6529) 
University of Tokyo Team, {Faculty of Engineering, University of Tokyo

>  <COMMENT>  (6529) 
SMILES=CCC(=O)OC
InChI=InChI=1S/C4H8O2/c1-3-4(5)6-2/h3H2,1-2H3
computed SMILES=O=C(OC)CC
ionization energy=70 eV
accession=JP001493
date=2016.01.19 (Created 2008.10.21, modified 2011.05.06)
author=YAMAMOTO M, DEP. CHEMISTRY, FAC. SCIENCE, NARA WOMEN'S UNIV.
license=CC BY-NC-SA
exact mass=88.05243
ion type=[M]+*
computed spectral entropy=2.2122298433141827
computed normalized entropy=0.7266262241668362
SPLASH=splash10-0a6r-9000000000-8b9eac02d4e2e295503e
submitter=submitter = University of Tokyo Team (Faculty of Engineering, University of Tokyo)
MoNA Rating=3.75

>  <NUM PEAKS>  (6529) 
21

>  <MASS SPECTRAL PEAKS>  (6529) 
14 1.97
15 24.1
26 6.55
27 23.36
28 11.18
29 79.76
30 2.15
31 9.71
32 2.78
33 1.15
42 2.29
43 2.02
45 3.12
55 4.21
56 3.21
57 99.99
58 3.71
59 31.93
87 2.57
88 32.75
89 1.74

$$$$

     RDKit          2D

 12 12  0  0  0  0  0  0  0  0999 V2000
   -2.6849    1.7693    0.0000 C   0  0  0  0  0  0  0  0  0  0  0  0
   -3.4349    3.0684    0.0000 H   0  0  0  0  0  0  0  0  0  0  0  0
   -3.9839    1.0193    0.0000 H   0  0  0  0  0  0  0  0  0  0  0  0
   -1.9349    0.4703    0.0000 H   0  0  0  0  0  0  0  0  0  0  0  0
    2.5113    0.2693    0.0000 C   0  0  0  0  0  0  0  0  0  0  0  0
    2.5118    1.7702    0.0000 C   0  0  0  0  0  0  0  0  0  0  0  0
    1.2118   -0.4815    0.0000 C   0  0  0  0  0  0  0  0  0  0  0  0
    1.2127    2.5202    0.0000 C   0  0  0  0  0  0  0  0  0  0  0  0
   -0.0873    0.2685    0.0000 C   0  0  0  0  0  0  0  0  0  0  0  0
   -1.3858    2.5193    0.0000 C   0  0  0  0  0  0  0  0  0  0  0  0
   -0.0868    1.7693    0.0000 C   0  0  0  0  0  0  0  0  0  0  0  0
   -1.3858    4.0193    0.0000 O   0  0  0  0  0  0  0  0  0  0  0  0
  1  2  1  0
  1  3  1  0
  1  4  1  0
  6  5  2  0
  7  5  1  0
  8  6  1  0
  9  7  2  0
 10  1  1  0
 11  8  2  0
 11  9  1  0
 11 10  1  0
 12 10  2  0
M  ISO  3   2   2   3   2   4   2
M  END
>  <NAME>  (6530) 
(2,2,2,-2H3)ACETOPHENONE

>  <SYNONYMS>  (6530) 


>  <SPECTRUM TYPE>  (6530) 
MS1

>  <INSTRUMENT TYPE>  (6530) 
EI-B

>  <INSTRUMENT>  (6530) 
HITACHI RMU-6M

>  <ION MODE>  (6530) 
P

>  <INCHIKEY>  (6530) 
KWOLFJPFCHCOCG-FIBGUPNXSA-N

>  <FORMULA>  (6530) 
C8H8O

>  <EXACT MASS>  (6530) 
123.076345114

>  <MW>  (6530) 
123

>  <ID>  (6530) 
JP001492

>  <CONTRIBUTOR>  (6530) 
University of Tokyo Team, {Faculty of Engineering, University of Tokyo

>  <COMMENT>  (6530) 
SMILES=[2H]C([2H])([2H])C(=O)c(c1)cccc1
InChI=InChI=1S/C8H8O/c1-7(9)8-5-3-2-4-6-8/h2-6H,1H3/i1D3
computed SMILES=[H]C([H])([H])C(=O)C=1C=CC=CC1
accession=JP001492
date=2016.01.19 (Created 2008.10.21, modified 2011.05.06)
author=YAMAMOTO M, DEP. CHEMISTRY, FAC. SCIENCE, NARA WOMEN'S UNIV.
license=CC BY-NC-SA
exact mass=120.05751
ionization energy=70 eV
ion type=[M]+*
computed spectral entropy=2.2144121882476138
computed normalized entropy=0.6796643875974104
SPLASH=splash10-0a6r-9700000000-d60fa0e8b56fa3eac3dd
submitter=submitter = University of Tokyo Team (Faculty of Engineering, University of Tokyo)
MoNA Rating=3.75

>  <NUM PEAKS>  (6530) 
26

>  <MASS SPECTRAL PEAKS>  (6530) 
18 4.6
27 2.4
28 2.35
37 1.18
38 2.17
38.5 1.15
39 2.73
40 1.34
46 18
50 11.09
51 26.69
52 3.16
52.5 1.42
53 1.32
63 1.12
74 3.78
75 2.56
76 3.03
77 80.93
78 6.47
79 2.57
105 99.99
106 8.11
122 1.37
123 45.45
124 4.37

$$$$

     RDKit          2D

  9  9  0  0  0  0  0  0  0  0999 V2000
   -2.9228    0.8825    0.0000 C   0  0  0  0  0  0  0  0  0  0  0  0
    2.2733   -0.6175    0.0000 C   0  0  0  0  0  0  0  0  0  0  0  0
    2.2738    0.8833    0.0000 C   0  0  0  0  0  0  0  0  0  0  0  0
    0.9738   -1.3683    0.0000 C   0  0  0  0  0  0  0  0  0  0  0  0
    0.9748    1.6333    0.0000 C   0  0  0  0  0  0  0  0  0  0  0  0
   -0.3252   -0.6183    0.0000 C   0  0  0  0  0  0  0  0  0  0  0  0
   -1.6238    1.6325    0.0000 C   0  0  0  0  0  0  0  0  0  0  0  0
   -0.3248    0.8825    0.0000 C   0  0  0  0  0  0  0  0  0  0  0  0
   -1.6238    3.1325    0.0000 O   0  0  0  0  0  0  0  0  0  0  0  0
  3  2  2  0
  4  2  1  0
  5  3  1  0
  6  4  2  0
  7  1  1  0
  8  5  2  0
  8  6  1  0
  8  7  1  0
  9  7  2  0
M  END
>  <NAME>  (6531) 
ACETOPHENONE

>  <SYNONYMS>  (6531) 


>  <SPECTRUM TYPE>  (6531) 
MS1

>  <INSTRUMENT TYPE>  (6531) 
EI-B

>  <INSTRUMENT>  (6531) 
HITACHI RMU-6M

>  <ION MODE>  (6531) 
P

>  <INCHIKEY>  (6531) 
KWOLFJPFCHCOCG-UHFFFAOYSA-N

>  <FORMULA>  (6531) 
C8H8O

>  <EXACT MASS>  (6531) 
120.057514876

>  <MW>  (6531) 
120

>  <ID>  (6531) 
JP001491

>  <CONTRIBUTOR>  (6531) 
University of Tokyo Team, {Faculty of Engineering, University of Tokyo

>  <COMMENT>  (6531) 
SMILES=CC(=O)c(c1)cccc1
InChI=InChI=1S/C8H8O/c1-7(9)8-5-3-2-4-6-8/h2-6H,1H3
computed SMILES=O=C(C=1C=CC=CC1)C
accession=JP001491
date=2016.01.19 (Created 2008.10.21, modified 2011.05.06)
author=YAMAMOTO M, DEP. CHEMISTRY, FAC. SCIENCE, NARA WOMEN'S UNIV.
license=CC BY-NC-SA
exact mass=120.05751
ionization energy=70 eV
ion type=[M]+*
computed spectral entropy=2.3101405200378995
computed normalized entropy=0.7009268401195392
SPLASH=splash10-0a6r-9700000000-35041eb32d369a5e3d11
submitter=submitter = University of Tokyo Team (Faculty of Engineering, University of Tokyo)
MoNA Rating=3.75

>  <NUM PEAKS>  (6531) 
27

>  <MASS SPECTRAL PEAKS>  (6531) 
15 3.97
27 2.97
28 2.33
37 1.34
38 2.9
38.5 1.25
39 5.38
42 1.27
43 17.77
49 1.1
50 12.55
51 31.27
52 2.84
52.5 2.55
62 1.76
63 2.97
65 2.23
74 4.17
75 2.65
76 3.26
77 81.64
78 9.37
91 2.06
105 99.99
106 8.12
120 42.55
121 4.73

$$$$

     RDKit          2D

 11 10  0  0  0  0  0  0  0  0999 V2000
    3.2476    5.6250    0.0000 C   0  0  0  0  0  0  0  0  0  0  0  0
    1.9486    6.3750    0.0000 C   0  0  0  0  0  0  0  0  0  0  0  0
    0.6495    5.6250    0.0000 C   0  0  0  0  0  0  0  0  0  0  0  0
   -0.6495    6.3750    0.0000 C   0  0  0  0  0  0  0  0  0  0  0  0
   -1.9486    5.6250    0.0000 C   0  0  0  0  0  0  0  0  0  0  0  0
   -3.2476    6.3750    0.0000 C   0  0  0  0  0  0  0  0  0  0  0  0
   -4.5466    5.6250    0.0000 C   0  0  0  0  0  0  0  0  0  0  0  0
   -5.8457    6.3750    0.0000 C   0  0  0  0  0  0  0  0  0  0  0  0
   -7.1447    5.6250    0.0000 C   0  0  0  0  0  0  0  0  0  0  0  0
   -8.4437    6.3750    0.0000 C   0  0  0  0  0  0  0  0  0  0  0  0
   -9.7428    5.6250    0.0000 O   0  0  0  0  0  0  0  0  0  0  0  0
  2  1  1  0
  3  2  1  0
  4  3  1  0
  5  4  1  0
  6  5  1  0
  7  6  1  0
  8  7  1  0
  9  8  1  0
 10  9  1  0
 11 10  2  0
M  END
>  <NAME>  (6532) 
DECYLALDEHYDE

>  <SYNONYMS>  (6532) 
DECANAL

>  <SPECTRUM TYPE>  (6532) 
MS1

>  <INSTRUMENT TYPE>  (6532) 
EI-B

>  <INSTRUMENT>  (6532) 
HITACHI RMU-6M

>  <ION MODE>  (6532) 
P

>  <INCHIKEY>  (6532) 
KSMVZQYAVGTKIV-UHFFFAOYSA-N

>  <FORMULA>  (6532) 
C10H20O

>  <EXACT MASS>  (6532) 
156.15141526

>  <MW>  (6532) 
156

>  <ID>  (6532) 
JP001485

>  <CONTRIBUTOR>  (6532) 
University of Tokyo Team, {Faculty of Engineering, University of Tokyo

>  <COMMENT>  (6532) 
SMILES=CCCCCCCCCC=O
InChI=InChI=1S/C10H20O/c1-2-3-4-5-6-7-8-9-10-11/h10H,2-9H2,1H3
computed SMILES=O=CCCCCCCCCC
accession=JP001485
date=2016.01.19 (Created 2008.10.21, modified 2011.05.06)
author=YAMAMOTO M, DEP. CHEMISTRY, FAC. SCIENCE, NARA WOMEN'S UNIV.
license=CC BY-NC-SA
exact mass=156.15142
ionization energy=70 eV
ion type=[M]+*
computed spectral entropy=3.3669204274869755
computed normalized entropy=0.852116616257669
SPLASH=splash10-052f-9000000000-7749bc046eaf4c263d51
submitter=submitter = University of Tokyo Team (Faculty of Engineering, University of Tokyo)
MoNA Rating=3.75

>  <NUM PEAKS>  (6532) 
52

>  <MASS SPECTRAL PEAKS>  (6532) 
15 2.8
26 1.97
27 45.73
28 9.74
29 64.07
30 2.18
31 3.03
39 27.08
40 4.92
41 99.99
42 33.85
43 97.86
44 54.46
45 17.91
51 1.47
53 7.21
54 15.49
55 62.98
56 40.49
57 49.25
58 5.24
59 1.3
65 1.21
66 4.97
67 25.59
68 34.4
69 29.14
70 41.81
71 26.32
72 7.38
79 1.88
80 1.39
81 22.03
82 34.5
83 25.61
84 15.79
85 3.97
86 1.52
94 1.09
95 16.35
96 16.17
97 5.44
98 1.09
99 2.56
100 1.27
109 7.74
110 13.56
111 1.79
112 24.29
113 3.06
128 4.97
138 4.77

$$$$

     RDKit          2D

 10  9  0  0  0  0  0  0  0  0999 V2000
   -8.4437    5.6250    0.0000 C   0  0  0  0  0  0  0  0  0  0  0  0
   -7.1447    4.8750    0.0000 C   0  0  0  0  0  0  0  0  0  0  0  0
   -5.8457    5.6250    0.0000 C   0  0  0  0  0  0  0  0  0  0  0  0
   -4.5466    4.8750    0.0000 C   0  0  0  0  0  0  0  0  0  0  0  0
   -3.2476    5.6250    0.0000 C   0  0  0  0  0  0  0  0  0  0  0  0
   -1.9486    4.8750    0.0000 C   0  0  0  0  0  0  0  0  0  0  0  0
   -0.6495    5.6250    0.0000 C   0  0  0  0  0  0  0  0  0  0  0  0
    0.6495    4.8750    0.0000 C   0  0  0  0  0  0  0  0  0  0  0  0
    1.9486    5.6250    0.0000 C   0  0  0  0  0  0  0  0  0  0  0  0
    3.2476    4.8750    0.0000 O   0  0  0  0  0  0  0  0  0  0  0  0
  2  1  1  0
  3  2  1  0
  4  3  1  0
  5  4  1  0
  6  5  1  0
  7  6  1  0
  8  7  1  0
  9  8  1  0
 10  9  2  0
M  END
>  <NAME>  (6533) 
PELARGONALDEHYDE

>  <SYNONYMS>  (6533) 
NONANAL

>  <SPECTRUM TYPE>  (6533) 
MS1

>  <INSTRUMENT TYPE>  (6533) 
EI-B

>  <INSTRUMENT>  (6533) 
HITACHI RMU-6M

>  <ION MODE>  (6533) 
P

>  <INCHIKEY>  (6533) 
GYHFUZHODSMOHU-UHFFFAOYSA-N

>  <FORMULA>  (6533) 
C9H18O

>  <EXACT MASS>  (6533) 
142.135765196

>  <MW>  (6533) 
142

>  <ID>  (6533) 
JP001484

>  <CONTRIBUTOR>  (6533) 
University of Tokyo Team, {Faculty of Engineering, University of Tokyo

>  <COMMENT>  (6533) 
SMILES=CCCCCCCCC=O
InChI=InChI=1S/C9H18O/c1-2-3-4-5-6-7-8-9-10/h9H,2-8H2,1H3
computed SMILES=O=CCCCCCCCC
accession=JP001484
date=2016.01.19 (Created 2008.10.21, modified 2011.05.06)
author=YAMAMOTO M, DEP. CHEMISTRY, FAC. SCIENCE, NARA WOMEN'S UNIV.
license=CC BY-NC-SA
exact mass=142.13577
ionization energy=70 eV
ion type=[M]+*
computed spectral entropy=3.267937329282391
computed normalized entropy=0.8441662729665335
SPLASH=splash10-052f-9000000000-7bfee629e196af9e810a
submitter=submitter = University of Tokyo Team (Faculty of Engineering, University of Tokyo)
MoNA Rating=3.75

>  <NUM PEAKS>  (6533) 
48

>  <MASS SPECTRAL PEAKS>  (6533) 
15 3.84
26 2.69
27 50.16
28 11.64
29 65.25
30 2.3
31 3.38
32 1.27
38 1.19
39 31.64
40 5.45
41 99.99
42 31.62
43 83.46
44 63.68
45 18.49
50 1.12
51 2.19
52 1.04
53 7.26
54 15.05
55 54.68
56 67.01
57 72.11
58 5.64
65 1.56
66 3.8
67 19.29
68 28.63
69 31.92
70 35.25
71 11.51
72 7.41
79 1.65
81 20.47
82 26.22
83 8.74
84 1.81
85 3.19
86 2.76
95 17.55
96 17.72
97 2.12
98 36.04
99 5.19
109 2.03
114 8.05
124 6.76

$$$$

     RDKit          2D

  9  8  0  0  0  0  0  0  0  0999 V2000
    2.5981    4.5000    0.0000 C   0  0  0  0  0  0  0  0  0  0  0  0
    1.2990    5.2500    0.0000 C   0  0  0  0  0  0  0  0  0  0  0  0
    0.0000    4.5000    0.0000 C   0  0  0  0  0  0  0  0  0  0  0  0
   -1.2990    5.2500    0.0000 C   0  0  0  0  0  0  0  0  0  0  0  0
   -2.5981    4.5000    0.0000 C   0  0  0  0  0  0  0  0  0  0  0  0
   -3.8971    5.2500    0.0000 C   0  0  0  0  0  0  0  0  0  0  0  0
   -5.1962    4.5000    0.0000 C   0  0  0  0  0  0  0  0  0  0  0  0
   -6.4952    5.2500    0.0000 C   0  0  0  0  0  0  0  0  0  0  0  0
   -7.7942    4.5000    0.0000 O   0  0  0  0  0  0  0  0  0  0  0  0
  2  1  1  0
  3  2  1  0
  4  3  1  0
  5  4  1  0
  6  5  1  0
  7  6  1  0
  8  7  1  0
  9  8  2  0
M  END
>  <NAME>  (6534) 
OCTYLALDEHYDE

>  <SYNONYMS>  (6534) 
OCTANAL

>  <SPECTRUM TYPE>  (6534) 
MS1

>  <INSTRUMENT TYPE>  (6534) 
EI-B

>  <INSTRUMENT>  (6534) 
HITACHI RMU-6M

>  <ION MODE>  (6534) 
P

>  <INCHIKEY>  (6534) 
NUJGJRNETVAIRJ-UHFFFAOYSA-N

>  <FORMULA>  (6534) 
C8H16O

>  <EXACT MASS>  (6534) 
128.120115132

>  <MW>  (6534) 
128

>  <ID>  (6534) 
JP001483

>  <CONTRIBUTOR>  (6534) 
University of Tokyo Team, {Faculty of Engineering, University of Tokyo

>  <COMMENT>  (6534) 
SMILES=CCCCCCCC=O
InChI=InChI=1S/C8H16O/c1-2-3-4-5-6-7-8-9/h8H,2-7H2,1H3
computed SMILES=O=CCCCCCCC
accession=JP001483
date=2016.01.19 (Created 2008.10.21, modified 2011.05.06)
author=YAMAMOTO M, DEP. CHEMISTRY, FAC. SCIENCE, NARA WOMEN'S UNIV.
license=CC BY-NC-SA
exact mass=128.12012
ionization energy=70 eV
ion type=[M]+*
computed spectral entropy=3.1735802086010456
computed normalized entropy=0.8242749465478901
SPLASH=splash10-052f-9000000000-fe177a98511039e9f7a6
submitter=submitter = University of Tokyo Team (Faculty of Engineering, University of Tokyo)
MoNA Rating=3.75

>  <NUM PEAKS>  (6534) 
47

>  <MASS SPECTRAL PEAKS>  (6534) 
15 3.6
26 2.78
27 52.62
28 10.58
29 59.44
30 2.24
31 2.82
38 1.54
39 30.58
40 5.46
41 88.17
42 43.65
43 99.99
44 79.36
45 21.39
50 1.07
51 2.05
52 1.03
53 6.33
54 8.57
55 54.38
56 61.92
57 45.29
58 5.32
59 1.07
65 1.17
66 3.63
67 17.98
68 22.01
69 26.73
70 2.97
71 9.08
72 8.17
79 1.32
81 19.27
82 21.35
83 2.53
84 52.69
85 16.26
86 2.38
95 6.63
99 2.89
100 11.1
109 1.2
110 12.35
111 1.47
128 1

$$$$

     RDKit          2D

  8  7  0  0  0  0  0  0  0  0999 V2000
   -6.4952    4.5000    0.0000 C   0  0  0  0  0  0  0  0  0  0  0  0
   -5.1962    3.7500    0.0000 C   0  0  0  0  0  0  0  0  0  0  0  0
   -3.8971    4.5000    0.0000 C   0  0  0  0  0  0  0  0  0  0  0  0
   -2.5981    3.7500    0.0000 C   0  0  0  0  0  0  0  0  0  0  0  0
   -1.2990    4.5000    0.0000 C   0  0  0  0  0  0  0  0  0  0  0  0
    0.0000    3.7500    0.0000 C   0  0  0  0  0  0  0  0  0  0  0  0
    1.2990    4.5000    0.0000 C   0  0  0  0  0  0  0  0  0  0  0  0
    2.5981    3.7500    0.0000 O   0  0  0  0  0  0  0  0  0  0  0  0
  2  1  1  0
  3  2  1  0
  4  3  1  0
  5  4  1  0
  6  5  1  0
  7  6  1  0
  8  7  2  0
M  END
>  <NAME>  (6535) 
HEPTYLALDEHYDE

>  <SYNONYMS>  (6535) 
HEPTANAL

>  <SPECTRUM TYPE>  (6535) 
MS1

>  <INSTRUMENT TYPE>  (6535) 
EI-B

>  <INSTRUMENT>  (6535) 
HITACHI RMU-6M

>  <ION MODE>  (6535) 
P

>  <INCHIKEY>  (6535) 
FXHGMKSSBGDXIY-UHFFFAOYSA-N

>  <FORMULA>  (6535) 
C7H14O

>  <EXACT MASS>  (6535) 
114.104465068

>  <MW>  (6535) 
114

>  <ID>  (6535) 
JP001482

>  <CONTRIBUTOR>  (6535) 
University of Tokyo Team, {Faculty of Engineering, University of Tokyo

>  <COMMENT>  (6535) 
SMILES=CCCCCCC=O
InChI=InChI=1S/C7H14O/c1-2-3-4-5-6-7-8/h7H,2-6H2,1H3
computed SMILES=O=CCCCCCC
accession=JP001482
date=2016.01.19 (Created 2008.10.21, modified 2011.05.06)
author=YAMAMOTO M, DEP. CHEMISTRY, FAC. SCIENCE, NARA WOMEN'S UNIV.
license=CC BY-NC-SA
exact mass=114.10447
ionization energy=70 eV
ion type=[M]+*
computed spectral entropy=3.000020814795151
computed normalized entropy=0.8078531292534161
SPLASH=splash10-0006-9000000000-183283cb2427145b7678
submitter=submitter = University of Tokyo Team (Faculty of Engineering, University of Tokyo)
MoNA Rating=3.75

>  <NUM PEAKS>  (6535) 
41

>  <MASS SPECTRAL PEAKS>  (6535) 
15 4.49
26 3.98
27 54.59
28 13.19
29 57.34
30 2.09
31 2.97
38 1.97
39 32.4
40 5.11
41 84.57
42 56.03
43 88.21
44 99.99
45 23.79
50 1.41
51 2.33
53 5.65
54 7.45
55 56.94
56 7.93
57 43.41
58 6.75
65 1.08
66 1.17
67 8.37
68 15.91
69 5.56
70 85.22
71 19.28
72 9.53
81 17.78
82 1.71
83 1.38
85 3.41
86 14.32
87 1.08
95 2.04
96 14.08
97 1.88
114 2.13

$$$$

     RDKit          2D

  7  6  0  0  0  0  0  0  0  0999 V2000
    1.9486    3.3750    0.0000 C   0  0  0  0  0  0  0  0  0  0  0  0
    0.6495    4.1250    0.0000 C   0  0  0  0  0  0  0  0  0  0  0  0
   -0.6495    3.3750    0.0000 C   0  0  0  0  0  0  0  0  0  0  0  0
   -1.9486    4.1250    0.0000 C   0  0  0  0  0  0  0  0  0  0  0  0
   -3.2476    3.3750    0.0000 C   0  0  0  0  0  0  0  0  0  0  0  0
   -4.5466    4.1250    0.0000 C   0  0  0  0  0  0  0  0  0  0  0  0
   -5.8457    3.3750    0.0000 O   0  0  0  0  0  0  0  0  0  0  0  0
  2  1  1  0
  3  2  1  0
  4  3  1  0
  5  4  1  0
  6  5  1  0
  7  6  2  0
M  END
>  <NAME>  (6536) 
HEXYLALDEHYDE

>  <SYNONYMS>  (6536) 
HEXANAL

>  <SPECTRUM TYPE>  (6536) 
MS1

>  <INSTRUMENT TYPE>  (6536) 
EI-B

>  <INSTRUMENT>  (6536) 
HITACHI RMU-6M

>  <ION MODE>  (6536) 
P

>  <INCHIKEY>  (6536) 
JARKCYVAAOWBJS-UHFFFAOYSA-N

>  <FORMULA>  (6536) 
C6H12O

>  <EXACT MASS>  (6536) 
100.088815004

>  <MW>  (6536) 
100

>  <ID>  (6536) 
JP001481

>  <CONTRIBUTOR>  (6536) 
University of Tokyo Team, {Faculty of Engineering, University of Tokyo

>  <COMMENT>  (6536) 
SMILES=CCCCCC=O
InChI=InChI=1S/C6H12O/c1-2-3-4-5-6-7/h6H,2-5H2,1H3
computed SMILES=O=CCCCCC
accession=JP001481
date=2016.01.19 (Created 2008.10.21, modified 2011.05.06)
author=YAMAMOTO M, DEP. CHEMISTRY, FAC. SCIENCE, NARA WOMEN'S UNIV.
license=CC BY-NC-SA
exact mass=100.08882
ionization energy=70 eV
ion type=[M]+*
computed spectral entropy=2.771826324163564
computed normalized entropy=0.7927414070859393
SPLASH=splash10-0006-9000000000-65f52440a5d20229be6c
submitter=submitter = University of Tokyo Team (Faculty of Engineering, University of Tokyo)
MoNA Rating=3.75

>  <NUM PEAKS>  (6536) 
33

>  <MASS SPECTRAL PEAKS>  (6536) 
14 1.12
15 6.05
26 4.46
27 53.64
28 12.21
29 46.32
30 2.39
31 3.42
37 1.26
38 2.81
39 30.27
40 5.12
41 80.63
42 13.22
43 60.75
44 99.99
45 20.53
50 1.44
51 2.04
53 3.81
54 2.92
55 16.06
56 78.8
57 33.88
58 8.31
67 8.72
69 1.59
71 6.16
72 17.03
81 1.58
82 12.64
83 1.44
100 1

$$$$

     RDKit          2D

  6  5  0  0  0  0  0  0  0  0999 V2000
    0.0000    0.0000    0.0000 C   0  0  0  0  0  0  0  0  0  0  0  0
    1.2990    2.2500    0.0000 C   0  0  0  0  0  0  0  0  0  0  0  0
   -1.2990    2.2500    0.0000 C   0  0  0  0  0  0  0  0  0  0  0  0
   -1.2990    3.7500    0.0000 C   0  0  0  0  0  0  0  0  0  0  0  0
    0.0000    1.5000    0.0000 C   0  0  0  0  0  0  0  0  0  0  0  0
   -2.5981    4.5000    0.0000 O   0  0  0  0  0  0  0  0  0  0  0  0
  4  3  1  0
  5  1  1  0
  5  2  1  0
  5  3  1  0
  6  4  2  0
M  END
>  <NAME>  (6537) 
ISOVALERALDEHYDE

>  <SYNONYMS>  (6537) 


>  <SPECTRUM TYPE>  (6537) 
MS1

>  <INSTRUMENT TYPE>  (6537) 
EI-B

>  <INSTRUMENT>  (6537) 
HITACHI RMU-6M

>  <ION MODE>  (6537) 
P

>  <INCHIKEY>  (6537) 
YGHRJJRRZDOVPD-UHFFFAOYSA-N

>  <FORMULA>  (6537) 
C5H10O

>  <EXACT MASS>  (6537) 
86.07316494

>  <MW>  (6537) 
86

>  <ID>  (6537) 
JP001480

>  <CONTRIBUTOR>  (6537) 
University of Tokyo Team, {Faculty of Engineering, University of Tokyo

>  <COMMENT>  (6537) 
SMILES=O=CCC(C)C
InChI=InChI=1S/C5H10O/c1-5(2)3-4-6/h4-5H,3H2,1-2H3
computed SMILES=O=CCC(C)C
accession=JP001480
date=2016.01.19 (Created 2008.10.21, modified 2011.05.06)
author=YAMAMOTO M, DEP. CHEMISTRY, FAC. SCIENCE, NARA WOMEN'S UNIV.
license=CC BY-NC-SA
exact mass=86.07316
ionization energy=70 eV
ion type=[M]+*
computed spectral entropy=2.5969415612877156
computed normalized entropy=0.7635374457505308
SPLASH=splash10-0006-9000000000-3a38c8f6150bf1f43e74
submitter=submitter = University of Tokyo Team (Faculty of Engineering, University of Tokyo)
MoNA Rating=3.75

>  <NUM PEAKS>  (6537) 
30

>  <MASS SPECTRAL PEAKS>  (6537) 
14 1.21
15 6.09
26 2.76
27 38.9
28 3.09
29 36.36
31 1.24
37 1.58
38 3.63
39 28.51
40 4.14
41 74.13
42 15.33
43 64.42
44 99.99
45 12.65
50 1.61
51 1.61
53 3.38
55 3.31
56 2.08
57 20.3
58 42.79
59 1.93
60 3.38
68 1.13
69 1.15
71 17.68
85 1.63
86 7.44

$$$$

     RDKit          2D

  6  5  0  0  0  0  0  0  0  0999 V2000
   -4.5466    3.3750    0.0000 C   0  0  0  0  0  0  0  0  0  0  0  0
   -3.2476    2.6250    0.0000 C   0  0  0  0  0  0  0  0  0  0  0  0
   -1.9486    3.3750    0.0000 C   0  0  0  0  0  0  0  0  0  0  0  0
   -0.6495    2.6250    0.0000 C   0  0  0  0  0  0  0  0  0  0  0  0
    0.6495    3.3750    0.0000 C   0  0  0  0  0  0  0  0  0  0  0  0
    1.9486    2.6250    0.0000 O   0  0  0  0  0  0  0  0  0  0  0  0
  2  1  1  0
  3  2  1  0
  4  3  1  0
  5  4  1  0
  6  5  2  0
M  END
>  <NAME>  (6538) 
VALERALDEHYDE

>  <SYNONYMS>  (6538) 


>  <SPECTRUM TYPE>  (6538) 
MS1

>  <INSTRUMENT TYPE>  (6538) 
EI-B

>  <INSTRUMENT>  (6538) 
HITACHI RMU-6M

>  <ION MODE>  (6538) 
P

>  <INCHIKEY>  (6538) 
HGBOYTHUEUWSSQ-UHFFFAOYSA-N

>  <FORMULA>  (6538) 
C5H10O

>  <EXACT MASS>  (6538) 
86.07316494

>  <MW>  (6538) 
86

>  <ID>  (6538) 
JP001479

>  <CONTRIBUTOR>  (6538) 
University of Tokyo Team, {Faculty of Engineering, University of Tokyo

>  <COMMENT>  (6538) 
InChI=InChI=1S/C5H10O/c1-2-3-4-5-6/h5H,2-4H2,1H3
SMILES=CCCCC=O
computed SMILES=O=CCCCC
accession=JP001479
date=2016.01.19 (Created 2008.10.21, modified 2011.05.06)
author=YAMAMOTO M, DEP. CHEMISTRY, FAC. SCIENCE, NARA WOMEN'S UNIV.
license=CC BY-NC-SA
exact mass=86.07316
ionization energy=70 eV
ion type=[M]+*
computed spectral entropy=2.4499990796133773
computed normalized entropy=0.7519725247617028
SPLASH=splash10-0006-9000000000-6a52391bbc8e88bb10e4
submitter=submitter = University of Tokyo Team (Faculty of Engineering, University of Tokyo)
MoNA Rating=3.75

>  <NUM PEAKS>  (6538) 
26

>  <MASS SPECTRAL PEAKS>  (6538) 
15 2.83
26 3.68
27 27
28 9.75
29 44.5
30 1.6
31 1.77
38 1.84
39 13.23
40 2.26
41 33.7
42 10.56
43 15.95
44 99.99
45 11.58
50 1.18
51 1.15
53 1.7
55 3.93
56 1.92
57 16.85
58 33.78
59 1.4
67 1
71 1.62
86 2.63

$$$$

     RDKit          2D

  5  4  0  0  0  0  0  0  0  0999 V2000
   -0.0000    0.0000    0.0000 C   0  0  0  0  0  0  0  0  0  0  0  0
   -1.2990    2.2500    0.0000 C   0  0  0  0  0  0  0  0  0  0  0  0
    1.2990    2.2500    0.0000 C   0  0  0  0  0  0  0  0  0  0  0  0
    0.0000    1.5000    0.0000 C   0  0  0  0  0  0  0  0  0  0  0  0
    1.2990    3.7500    0.0000 O   0  0  0  0  0  0  0  0  0  0  0  0
  4  1  1  0
  4  2  1  0
  4  3  1  0
  5  3  2  0
M  END
>  <NAME>  (6539) 
ISOBUTYRALDEHYDE

>  <SYNONYMS>  (6539) 


>  <SPECTRUM TYPE>  (6539) 
MS1

>  <INSTRUMENT TYPE>  (6539) 
EI-B

>  <INSTRUMENT>  (6539) 
HITACHI RMU-6M

>  <ION MODE>  (6539) 
P

>  <INCHIKEY>  (6539) 
AMIMRNSIRUDHCM-UHFFFAOYSA-N

>  <FORMULA>  (6539) 
C4H8O

>  <EXACT MASS>  (6539) 
72.057514876

>  <MW>  (6539) 
72

>  <ID>  (6539) 
JP001478

>  <CONTRIBUTOR>  (6539) 
University of Tokyo Team, {Faculty of Engineering, University of Tokyo

>  <COMMENT>  (6539) 
SMILES=O=CC(C)C
InChI=InChI=1S/C4H8O/c1-4(2)3-5/h3-4H,1-2H3
computed SMILES=O=CC(C)C
accession=JP001478
date=2016.01.19 (Created 2008.10.21, modified 2011.05.06)
author=YAMAMOTO M, DEP. CHEMISTRY, FAC. SCIENCE, NARA WOMEN'S UNIV.
license=CC BY-NC-SA
exact mass=72.05751
ionization energy=70 eV
ion type=[M]+*
computed spectral entropy=2.1962654157109753
computed normalized entropy=0.7459028464338323
SPLASH=splash10-002f-9000000000-987cd15323d99af9f551
submitter=submitter = University of Tokyo Team (Faculty of Engineering, University of Tokyo)
MoNA Rating=3.75

>  <NUM PEAKS>  (6539) 
19

>  <MASS SPECTRAL PEAKS>  (6539) 
14 1.19
15 4.58
26 6.51
27 57.71
28 12.64
29 22.31
31 1.52
37 2.95
38 5.11
39 24.19
40 3.11
41 71.52
42 9.14
43 99.99
44 4.13
55 1.57
57 3.21
72 37.06
73 2.59

$$$$

     RDKit          2D

  5  4  0  0  0  0  0  0  0  0999 V2000
   -3.8971    2.2500    0.0000 C   0  0  0  0  0  0  0  0  0  0  0  0
   -2.5981    1.5000    0.0000 C   0  0  0  0  0  0  0  0  0  0  0  0
   -1.2990    2.2500    0.0000 C   0  0  0  0  0  0  0  0  0  0  0  0
    0.0000    1.5000    0.0000 C   0  0  0  0  0  0  0  0  0  0  0  0
    1.2990    2.2500    0.0000 O   0  0  0  0  0  0  0  0  0  0  0  0
  2  1  1  0
  3  2  1  0
  4  3  1  0
  5  4  2  0
M  END
>  <NAME>  (6540) 
BUTYRALDEHYDE

>  <SYNONYMS>  (6540) 


>  <SPECTRUM TYPE>  (6540) 
MS1

>  <INSTRUMENT TYPE>  (6540) 
EI-B

>  <INSTRUMENT>  (6540) 
HITACHI RMU-6M

>  <ION MODE>  (6540) 
P

>  <INCHIKEY>  (6540) 
ZTQSAGDEMFDKMZ-UHFFFAOYSA-N

>  <FORMULA>  (6540) 
C4H8O

>  <EXACT MASS>  (6540) 
72.057514876

>  <MW>  (6540) 
72

>  <ID>  (6540) 
JP001477

>  <CONTRIBUTOR>  (6540) 
University of Tokyo Team, {Faculty of Engineering, University of Tokyo

>  <COMMENT>  (6540) 
SMILES=CCCC=O
InChI=InChI=1S/C4H8O/c1-2-3-4-5/h4H,2-3H2,1H3
computed SMILES=O=CCCC
accession=JP001477
date=2016.01.19 (Created 2008.10.21, modified 2011.05.06)
author=YAMAMOTO M, DEP. CHEMISTRY, FAC. SCIENCE, NARA WOMEN'S UNIV.
license=CC BY-NC-SA
exact mass=72.05751
ionization energy=70 eV
ion type=[M]+*
computed spectral entropy=2.563627797976005
computed normalized entropy=0.7693488770415272
SPLASH=splash10-002f-9000000000-98b59bf5bd3eda9e49fa
submitter=submitter = University of Tokyo Team (Faculty of Engineering, University of Tokyo)
MoNA Rating=3.75

>  <NUM PEAKS>  (6540) 
28

>  <MASS SPECTRAL PEAKS>  (6540) 
14 3.32
15 12.25
25 1.5
26 12.42
27 92.63
28 24.37
29 64.18
30 1.89
31 3
37 4.3
38 7.56
39 36.49
40 4.89
41 74.33
42 10.62
43 77.72
44 99.99
45 3.45
50 1.96
51 1.11
53 1.43
54 2.41
55 1.76
57 25.34
58 1.05
71 6.13
72 58.51
73 3.39

$$$$

     RDKit          2D

  9  9  0  0  0  0  0  0  0  0999 V2000
   -2.9228    0.8825    0.0000 C   0  0  0  0  0  0  0  0  0  0  0  0
    2.2733   -0.6175    0.0000 C   0  0  0  0  0  0  0  0  0  0  0  0
    2.2738    0.8833    0.0000 C   0  0  0  0  0  0  0  0  0  0  0  0
    0.9738   -1.3683    0.0000 C   0  0  0  0  0  0  0  0  0  0  0  0
    0.9748    1.6333    0.0000 C   0  0  0  0  0  0  0  0  0  0  0  0
   -0.3252   -0.6183    0.0000 C   0  0  0  0  0  0  0  0  0  0  0  0
   -1.6238    1.6325    0.0000 C   0  0  0  0  0  0  0  0  0  0  0  0
   -0.3248    0.8825    0.0000 C   0  0  0  0  0  0  0  0  0  0  0  0
   -1.6238    3.1325    0.0000 O   0  0  0  0  0  0  0  0  0  0  0  0
  3  2  2  0
  4  2  1  0
  5  3  1  0
  6  4  2  0
  7  1  1  0
  8  5  2  0
  8  6  1  0
  8  7  1  0
  9  7  1  0
M  END
>  <NAME>  (6541) 
1-PHENYLETHYL ALCOHOL

>  <SYNONYMS>  (6541) 
ALPHA-METHYLBENZYL ALCOHOL

>  <SPECTRUM TYPE>  (6541) 
MS1

>  <INSTRUMENT TYPE>  (6541) 
EI-B

>  <INSTRUMENT>  (6541) 
HITACHI RMU-6M

>  <ION MODE>  (6541) 
P

>  <INCHIKEY>  (6541) 
WAPNOHKVXSQRPX-UHFFFAOYSA-N

>  <FORMULA>  (6541) 
C8H10O

>  <EXACT MASS>  (6541) 
122.07316494

>  <MW>  (6541) 
122

>  <ID>  (6541) 
JP001476

>  <CONTRIBUTOR>  (6541) 
University of Tokyo Team, {Faculty of Engineering, University of Tokyo

>  <COMMENT>  (6541) 
SMILES=CC(O)c(c1)cccc1
InChI=InChI=1S/C8H10O/c1-7(9)8-5-3-2-4-6-8/h2-7,9H,1H3
computed SMILES=OC(C=1C=CC=CC1)C
accession=JP001476
date=2016.01.19 (Created 2008.10.21, modified 2011.05.06)
author=YAMAMOTO M, DEP. CHEMISTRY, FAC. SCIENCE, NARA WOMEN'S UNIV.
license=CC BY-NC-SA
exact mass=122.07316
ionization energy=70 eV
ion type=[M]+*
computed spectral entropy=2.856116755378503
computed normalized entropy=0.7593631467417514
SPLASH=splash10-056r-9400000000-b83cdc9f65e611917295
submitter=submitter = University of Tokyo Team (Faculty of Engineering, University of Tokyo)
MoNA Rating=3.75

>  <NUM PEAKS>  (6541) 
43

>  <MASS SPECTRAL PEAKS>  (6541) 
15 3.57
26 1.35
27 8.46
28 3.13
29 9.47
37 1.23
38 2.73
39 11.39
40 1.26
41 1.49
43 41.69
44 1.65
45 5.76
49 1
50 12.27
51 28.52
52 7.18
53 3.89
53.5 8.8
60 1.21
61 2.18
62 4.91
63 1.15
64 2.87
74 3.99
75 2.79
76 2.77
77 53.05
78 22.05
79 99.99
80 6.87
89 1.45
91 3.11
102 1.41
103 4.71
104 4.01
105 8.68
106 1.27
107 95.93
108 7.78
121 6.41
122 32.59
123 2.97

$$$$

     RDKit          2D

  7  6  0  0  0  0  0  0  0  0999 V2000
   -2.3078    1.1781    0.0000 C   0  0  0  0  0  0  0  0  0  0  0  0
   -0.3794    1.1781    0.0000 C   0  0  0  0  0  0  0  0  0  0  0  0
    1.2545    2.3272    0.0000 C   0  0  0  0  0  0  0  0  0  0  0  0
   -3.9417    2.3272    0.0000 C   0  0  0  0  0  0  0  0  0  0  0  0
   -1.3436    2.3272    0.0000 C   0  0  0  0  0  0  0  0  0  0  0  0
   -0.0445    3.0772    0.0000 O   0  0  0  0  0  0  0  0  0  0  0  0
   -2.6426    3.0772    0.0000 O   0  0  0  0  0  0  0  0  0  0  0  0
  5  1  1  0
  5  2  1  0
  6  3  1  0
  6  5  1  0
  7  4  1  0
  7  5  1  0
M  END
>  <NAME>  (6542) 
2,2-DIMETHOXYPROPANE

>  <SYNONYMS>  (6542) 


>  <SPECTRUM TYPE>  (6542) 
MS1

>  <INSTRUMENT TYPE>  (6542) 
EI-B

>  <INSTRUMENT>  (6542) 
HITACHI RMU-6M

>  <ION MODE>  (6542) 
P

>  <INCHIKEY>  (6542) 
HEWZVZIVELJPQZ-UHFFFAOYSA-N

>  <FORMULA>  (6542) 
C5H12O2

>  <EXACT MASS>  (6542) 
104.083729624

>  <MW>  (6542) 
104

>  <ID>  (6542) 
JP001475

>  <CONTRIBUTOR>  (6542) 
University of Tokyo Team, {Faculty of Engineering, University of Tokyo

>  <COMMENT>  (6542) 
SMILES=COC(C)(C)OC
InChI=InChI=1S/C5H12O2/c1-5(2,6-3)7-4/h1-4H3
computed SMILES=O(C)C(OC)(C)C
accession=JP001475
date=2016.01.19 (Created 2008.10.21, modified 2011.05.06)
author=YAMAMOTO M, DEP. CHEMISTRY, FAC. SCIENCE, NARA WOMEN'S UNIV.
license=CC BY-NC-SA
exact mass=104.08373
ionization energy=70 eV
ion type=[M]+*
computed spectral entropy=2.227019614793626
computed normalized entropy=0.7007494944004152
SPLASH=splash10-00dl-9000000000-63e3ceffdb89cdeea348
submitter=submitter = University of Tokyo Team (Faculty of Engineering, University of Tokyo)
MoNA Rating=3.75

>  <NUM PEAKS>  (6542) 
24

>  <MASS SPECTRAL PEAKS>  (6542) 
14 1.17
15 10.25
26 1.04
27 5.81
28 1.22
29 7.17
31 4.53
32 1.07
33 1.38
39 6.09
40 1.7
41 12.48
42 8.17
43 42.38
44 1.19
45 7.74
47 4.37
55 3.02
57 2.36
72 3.38
73 99.99
74 4.8
89 24.97
90 1.22

$$$$

     RDKit          2D

  6  5  0  0  0  0  0  0  0  0999 V2000
   -1.2990    0.7500    0.0000 C   0  0  0  0  0  0  0  0  0  0  0  0
    1.2990    2.2500    0.0000 C   0  0  0  0  0  0  0  0  0  0  0  0
   -3.8971    2.2500    0.0000 C   0  0  0  0  0  0  0  0  0  0  0  0
   -1.2990    2.2500    0.0000 C   0  0  0  0  0  0  0  0  0  0  0  0
    0.0000    3.0000    0.0000 O   0  0  0  0  0  0  0  0  0  0  0  0
   -2.5981    3.0000    0.0000 O   0  0  0  0  0  0  0  0  0  0  0  0
  4  1  1  0
  5  2  1  0
  5  4  1  0
  6  3  1  0
  6  4  1  0
M  END
>  <NAME>  (6543) 
DIMETHYLACETAL

>  <SYNONYMS>  (6543) 
1.1-DIMETHOXYETHANE

>  <SPECTRUM TYPE>  (6543) 
MS1

>  <INSTRUMENT TYPE>  (6543) 
EI-B

>  <INSTRUMENT>  (6543) 
HITACHI RMU-6M

>  <ION MODE>  (6543) 
P

>  <INCHIKEY>  (6543) 
SPEUIVXLLWOEMJ-UHFFFAOYSA-N

>  <FORMULA>  (6543) 
C4H10O2

>  <EXACT MASS>  (6543) 
90.06807956

>  <MW>  (6543) 
90

>  <ID>  (6543) 
JP001474

>  <CONTRIBUTOR>  (6543) 
University of Tokyo Team, {Faculty of Engineering, University of Tokyo

>  <COMMENT>  (6543) 
SMILES=COC(C)OC
InChI=InChI=1S/C4H10O2/c1-4(5-2)6-3/h4H,1-3H3
computed SMILES=O(C)C(OC)C
accession=JP001474
date=2016.01.19 (Created 2008.10.21, modified 2011.05.06)
author=YAMAMOTO M, DEP. CHEMISTRY, FAC. SCIENCE, NARA WOMEN'S UNIV.
license=CC BY-NC-SA
exact mass=90.06808
ionization energy=70 eV
ion type=[M]+*
computed spectral entropy=2.0360508998475124
computed normalized entropy=0.6796504874022139
SPLASH=splash10-0a4i-9000000000-edf11ab8e0eda3949d7a
submitter=submitter = University of Tokyo Team (Faculty of Engineering, University of Tokyo)
MoNA Rating=3.75

>  <NUM PEAKS>  (6543) 
20

>  <MASS SPECTRAL PEAKS>  (6543) 
14 2.01
15 19.8
26 1.91
27 5.69
28 4.3
29 28.68
30 1.15
31 37.97
32 1.18
33 1.42
41 1.77
42 2.19
43 20.88
44 1.11
45 1.63
47 10.58
58 2.74
59 99.99
60 3.4
89 2.29

$$$$

     RDKit          2D

  6  5  0  0  0  0  0  0  0  0999 V2000
   -4.5466    3.3750    0.0000 C   0  0  0  0  0  0  0  0  0  0  0  0
    1.9486    2.6250    0.0000 C   0  0  0  0  0  0  0  0  0  0  0  0
   -1.9486    3.3750    0.0000 C   0  0  0  0  0  0  0  0  0  0  0  0
   -0.6495    2.6250    0.0000 C   0  0  0  0  0  0  0  0  0  0  0  0
   -3.2476    2.6250    0.0000 O   0  0  0  0  0  0  0  0  0  0  0  0
    0.6495    3.3750    0.0000 O   0  0  0  0  0  0  0  0  0  0  0  0
  4  3  1  0
  5  1  1  0
  5  3  1  0
  6  2  1  0
  6  4  1  0
M  END
>  <NAME>  (6544) 
ETHYLENE GLYCOL DIMETHYL ETHER

>  <SYNONYMS>  (6544) 
1.2-DIMETHOXYETHANE

>  <SPECTRUM TYPE>  (6544) 
MS1

>  <INSTRUMENT TYPE>  (6544) 
EI-B

>  <INSTRUMENT>  (6544) 
HITACHI RMU-6M

>  <ION MODE>  (6544) 
P

>  <INCHIKEY>  (6544) 
XTHFKEDIFFGKHM-UHFFFAOYSA-N

>  <FORMULA>  (6544) 
C4H10O2

>  <EXACT MASS>  (6544) 
90.06807956

>  <MW>  (6544) 
90

>  <ID>  (6544) 
JP001473

>  <CONTRIBUTOR>  (6544) 
University of Tokyo Team, {Faculty of Engineering, University of Tokyo

>  <COMMENT>  (6544) 
SMILES=COCCOC
InChI=InChI=1S/C4H10O2/c1-5-3-4-6-2/h3-4H2,1-2H3
computed SMILES=O(C)CCOC
accession=JP001473
date=2016.01.19 (Created 2008.10.21, modified 2011.05.06)
author=YAMAMOTO M, DEP. CHEMISTRY, FAC. SCIENCE, NARA WOMEN'S UNIV.
license=CC BY-NC-SA
exact mass=90.06808
ionization energy=70 eV
ion type=[M]+*
computed spectral entropy=1.7176988980431422
computed normalized entropy=0.6508759316318306
SPLASH=splash10-0002-9000000000-fb23817a9a7dde12c251
submitter=submitter = University of Tokyo Team (Faculty of Engineering, University of Tokyo)
MoNA Rating=3.75

>  <NUM PEAKS>  (6544) 
14

>  <MASS SPECTRAL PEAKS>  (6544) 
14 1.05
15 15.87
27 3.44
28 4.05
29 15.08
31 6.22
42 1.1
43 4.77
45 99.99
46 2.36
58 6.07
59 2.62
60 11.49
90 7.53

$$$$

     RDKit          2D

  5  4  0  0  0  0  0  0  0  0999 V2000
   -3.8971    2.2500    0.0000 C   0  0  0  0  0  0  0  0  0  0  0  0
    1.2990    2.2500    0.0000 C   0  0  0  0  0  0  0  0  0  0  0  0
   -1.2990    2.2500    0.0000 C   0  0  0  0  0  0  0  0  0  0  0  0
   -2.5981    1.5000    0.0000 O   0  0  0  0  0  0  0  0  0  0  0  0
    0.0000    1.5000    0.0000 O   0  0  0  0  0  0  0  0  0  0  0  0
  4  1  1  0
  4  3  1  0
  5  2  1  0
  5  3  1  0
M  END
>  <NAME>  (6545) 
METHYLAL

>  <SYNONYMS>  (6545) 
DIMETHOXYMETHANE

>  <SPECTRUM TYPE>  (6545) 
MS1

>  <INSTRUMENT TYPE>  (6545) 
EI-B

>  <INSTRUMENT>  (6545) 
HITACHI RMU-6M

>  <ION MODE>  (6545) 
P

>  <INCHIKEY>  (6545) 
NKDDWNXOKDWJAK-UHFFFAOYSA-N

>  <FORMULA>  (6545) 
C3H8O2

>  <EXACT MASS>  (6545) 
76.052429496

>  <MW>  (6545) 
76

>  <ID>  (6545) 
JP001472

>  <CONTRIBUTOR>  (6545) 
University of Tokyo Team, {Faculty of Engineering, University of Tokyo

>  <COMMENT>  (6545) 
SMILES=COCOC
InChI=InChI=1S/C3H8O2/c1-4-3-5-2/h3H2,1-2H3
computed SMILES=O(C)COC
accession=JP001472
date=2016.01.19 (Created 2008.10.21, modified 2011.05.06)
author=YAMAMOTO M, DEP. CHEMISTRY, FAC. SCIENCE, NARA WOMEN'S UNIV.
license=CC BY-NC-SA
exact mass=76.05243
ionization energy=70 eV
ion type=[M]+*
computed spectral entropy=1.6186395416817854
computed normalized entropy=0.6513884703958113
SPLASH=splash10-002b-9000000000-554001e35d7c98419a9c
submitter=submitter = University of Tokyo Team (Faculty of Engineering, University of Tokyo)
MoNA Rating=3.75

>  <NUM PEAKS>  (6545) 
12

>  <MASS SPECTRAL PEAKS>  (6545) 
14 1.67
15 25.63
28 1.23
29 27.59
30 1.42
31 9.14
44 2.02
45 99.99
46 2.38
47 3.74
75 46.05
76 1.67

$$$$

     RDKit          2D

 14 13  0  0  0  0  0  0  0  0999 V2000
    1.7205   -0.6081    0.0000 C   0  0  0  0  0  0  0  0  0  0  0  0
    0.2205    1.9900    0.0000 C   0  0  0  0  0  0  0  0  0  0  0  0
   -0.3286   -0.0591    0.0000 C   0  0  0  0  0  0  0  0  0  0  0  0
    4.3186    2.8719    0.0000 C   0  0  0  0  0  0  0  0  0  0  0  0
    4.8676    4.9209    0.0000 C   0  0  0  0  0  0  0  0  0  0  0  0
    2.8186    5.4700    0.0000 C   0  0  0  0  0  0  0  0  0  0  0  0
    1.7205    5.4700    0.0000 C   0  0  0  0  0  0  0  0  0  0  0  0
   -0.3286    4.9209    0.0000 C   0  0  0  0  0  0  0  0  0  0  0  0
    0.2205    2.8719    0.0000 C   0  0  0  0  0  0  0  0  0  0  0  0
    2.2695    1.4409    0.0000 C   0  0  0  0  0  0  0  0  0  0  0  0
    2.2695    3.4209    0.0000 C   0  0  0  0  0  0  0  0  0  0  0  0
    0.9705    0.6909    0.0000 C   0  0  0  0  0  0  0  0  0  0  0  0
    3.5686    4.1709    0.0000 Si  0  0  0  0  0  4  0  0  0  0  0  0
    0.9705    4.1709    0.0000 Si  0  0  0  0  0  4  0  0  0  0  0  0
 11 10  1  0
 12  1  1  0
 12  2  1  0
 12  3  1  0
 12 10  1  0
 13  4  1  0
 13  5  1  0
 13  6  1  0
 13 11  1  0
 14  7  1  0
 14  8  1  0
 14  9  1  0
 14 11  1  0
M  END
>  <NAME>  (6546) 
3,3-DIMETHYL-1,1-BIS(TRIMETHYLSILYL)BUTANE

>  <SYNONYMS>  (6546) 


>  <SPECTRUM TYPE>  (6546) 
MS1

>  <INSTRUMENT TYPE>  (6546) 
EI-B

>  <INSTRUMENT>  (6546) 
JEOL JMS-D-3000

>  <ION MODE>  (6546) 
P

>  <INCHIKEY>  (6546) 
BTWDZAHAMUXDLR-UHFFFAOYSA-N

>  <FORMULA>  (6546) 
C12H30Si2

>  <EXACT MASS>  (6546) 
230.18860402

>  <MW>  (6546) 
230

>  <ID>  (6546) 
JP001471

>  <CONTRIBUTOR>  (6546) 
University of Tokyo Team, {Faculty of Engineering, University of Tokyo

>  <COMMENT>  (6546) 
SMILES=CC(C)(C)CC([Si](C)(C)C)[Si](C)(C)C
InChI=InChI=1S/C12H30Si2/c1-12(2,3)10-11(13(4,5)6)14(7,8)9/h11H,10H2,1-9H3
computed SMILES=CC(C)(C)CC([Si](C)(C)C)[Si](C)(C)C
accession=JP001471
date=2016.01.19 (Created 2008.10.21, modified 2011.05.06)
author=MASS SPECTROSCOPY SOC. OF JAPAN (MSSJ)
license=CC BY-NC-SA
exact mass=230.1886
ionization energy=70 eV
ion type=[M]+*
computed spectral entropy=2.317207969838341
computed normalized entropy=0.6953978853226223
SPLASH=splash10-00di-9200000000-ee1d6ff6bf080f2e48df
submitter=submitter = University of Tokyo Team (Faculty of Engineering, University of Tokyo)
MoNA Rating=3.75

>  <NUM PEAKS>  (6546) 
28

>  <MASS SPECTRAL PEAKS>  (6546) 
41 2.63
43 2.42
45 9.3
57 2.7
58 1.18
59 9.49
72 1.67
73 99.99
74 8.01
75 3.69
83 1.09
85 53.19
86 5.53
87 2.26
99 4.41
100 2.79
127 4.65
129 1.2
141 16.21
142 5.07
143 1.2
145 5.12
146 1
157 2.77
173 13.58
174 2.65
175 1.11
215 3.58

$$$$

     RDKit          2D

 14 13  0  0  0  0  0  0  0  0999 V2000
    1.7205   -0.6081    0.0000 C   0  0  0  0  0  0  0  0  0  0  0  0
    0.2205    1.9900    0.0000 C   0  0  0  0  0  0  0  0  0  0  0  0
   -0.3286   -0.0591    0.0000 C   0  0  0  0  0  0  0  0  0  0  0  0
    4.3186    2.8719    0.0000 C   0  0  0  0  0  0  0  0  0  0  0  0
    4.8676    4.9209    0.0000 C   0  0  0  0  0  0  0  0  0  0  0  0
    2.8186    5.4700    0.0000 C   0  0  0  0  0  0  0  0  0  0  0  0
    1.7205    5.4700    0.0000 C   0  0  0  0  0  0  0  0  0  0  0  0
   -0.3286    4.9209    0.0000 C   0  0  0  0  0  0  0  0  0  0  0  0
    0.2205    2.8719    0.0000 C   0  0  0  0  0  0  0  0  0  0  0  0
    2.2695    1.4409    0.0000 C   0  0  0  0  0  0  0  0  0  0  0  0
    2.2695    3.4209    0.0000 C   0  0  0  0  0  0  0  0  0  0  0  0
    0.9705    0.6909    0.0000 C   0  0  0  0  0  0  0  0  0  0  0  0
    3.5686    4.1709    0.0000 Si  0  0  0  0  0  4  0  0  0  0  0  0
    0.9705    4.1709    0.0000 Si  0  0  0  0  0  4  0  0  0  0  0  0
 11 10  2  3
 12  1  1  0
 12  2  1  0
 12  3  1  0
 12 10  1  0
 13  4  1  0
 13  5  1  0
 13  6  1  0
 13 11  1  0
 14  7  1  0
 14  8  1  0
 14  9  1  0
 14 11  1  0
M  END
>  <NAME>  (6547) 
1,1-BIS(TRIMETHYLSILYL)-3,3-DIMETHYL-1-BUTENE

>  <SYNONYMS>  (6547) 


>  <SPECTRUM TYPE>  (6547) 
MS1

>  <INSTRUMENT TYPE>  (6547) 
EI-B

>  <INSTRUMENT>  (6547) 
JEOL JMS-D-3000

>  <ION MODE>  (6547) 
P

>  <INCHIKEY>  (6547) 
CLHGWWUIDFQPPX-UHFFFAOYSA-N

>  <FORMULA>  (6547) 
C12H28Si2

>  <EXACT MASS>  (6547) 
228.172953956

>  <MW>  (6547) 
228

>  <ID>  (6547) 
JP001470

>  <CONTRIBUTOR>  (6547) 
University of Tokyo Team, {Faculty of Engineering, University of Tokyo

>  <COMMENT>  (6547) 
SMILES=CC(C)(C)C=C([Si](C)(C)C)[Si](C)(C)C
InChI=InChI=1S/C12H28Si2/c1-12(2,3)10-11(13(4,5)6)14(7,8)9/h10H,1-9H3
computed SMILES=C(=C([Si](C)(C)C)[Si](C)(C)C)C(C)(C)C
accession=JP001470
date=2016.01.19 (Created 2008.10.21, modified 2011.05.06)
author=MASS SPECTROSCOPY SOC. OF JAPAN (MSSJ)
license=CC BY-NC-SA
exact mass=228.17295
ionization energy=70 eV
ion type=[M]+*
computed spectral entropy=2.6397258033591546
computed normalized entropy=0.7485694627455837
SPLASH=splash10-00di-9620000000-b70be0b26afbf3bec1be
submitter=submitter = University of Tokyo Team (Faculty of Engineering, University of Tokyo)
MoNA Rating=3.75

>  <NUM PEAKS>  (6547) 
34

>  <MASS SPECTRAL PEAKS>  (6547) 
41 1.99
43 2.07
45 7.01
57 2.83
59 3.76
67 1.39
73 99.99
74 8.8
75 3.75
83 10.75
84 1.12
85 1.23
97 8.76
98 2.37
99 1.41
109 1.04
123 1.09
125 10.7
126 1.45
139 37.05
140 10.59
141 3.21
154 2.84
155 2.93
171 27.12
172 5.41
173 2.51
185 2.03
213 17.3
214 4.04
215 1.7
228 17.49
229 4.2
230 1.76

$$$$

     RDKit          2D

 13 12  0  0  0  0  0  0  0  0999 V2000
    2.0894    3.5724    0.0000 C   0  0  0  0  0  0  0  0  0  0  0  0
   -0.9598    1.0138    0.0000 C   0  0  0  0  0  0  0  0  0  0  0  0
    1.9328    2.6838    0.0000 C   0  0  0  0  0  0  0  0  0  0  0  0
   -3.6557    5.6214    0.0000 C   0  0  0  0  0  0  0  0  0  0  0  0
   -5.7048    5.0724    0.0000 C   0  0  0  0  0  0  0  0  0  0  0  0
   -5.1557    3.0233    0.0000 C   0  0  0  0  0  0  0  0  0  0  0  0
    0.7904    4.3224    0.0000 C   0  0  0  0  0  0  0  0  0  0  0  0
   -1.4728    2.4233    0.0000 C   0  0  0  0  0  0  0  0  0  0  0  0
    0.4556    2.4233    0.0000 C   0  0  0  0  0  0  0  0  0  0  0  0
   -3.1067    3.5724    0.0000 C   0  0  0  0  0  0  0  0  0  0  0  0
   -1.8077    4.3224    0.0000 C   0  0  0  0  0  0  0  0  0  0  0  0
   -4.4057    4.3224    0.0000 C   0  0  0  0  0  0  0  0  0  0  0  0
   -0.5086    3.5724    0.0000 Si  0  0  0  0  0  4  0  0  0  0  0  0
  7  1  1  0
  8  2  1  0
  9  3  1  0
 10 11  2  0
 12  4  1  0
 12  5  1  0
 12  6  1  0
 12 10  1  0
 13  7  1  0
 13  8  1  0
 13  9  1  0
 13 11  1  0
M  END
>  <NAME>  (6548) 
TRANS-1-TRIETHYLSILYL-3,3-DIMETHYL-1-BUTENE

>  <SYNONYMS>  (6548) 


>  <SPECTRUM TYPE>  (6548) 
MS1

>  <INSTRUMENT TYPE>  (6548) 
EI-B

>  <INSTRUMENT>  (6548) 
JEOL JMS-D-3000

>  <ION MODE>  (6548) 
P

>  <INCHIKEY>  (6548) 
NMCXIZRJYSJQHC-ZHACJKMWSA-N

>  <FORMULA>  (6548) 
C12H26Si

>  <EXACT MASS>  (6548) 
198.180377362

>  <MW>  (6548) 
198

>  <ID>  (6548) 
JP001469

>  <CONTRIBUTOR>  (6548) 
University of Tokyo Team, {Faculty of Engineering, University of Tokyo

>  <COMMENT>  (6548) 
SMILES=CC[Si](CC)(CC)C=CC(C)(C)C
InChI=InChI=1S/C12H26Si/c1-7-13(8-2,9-3)11-10-12(4,5)6/h10-11H,7-9H2,1-6H3/b11-10+
computed SMILES=C(=C[Si](CC)(CC)CC)C(C)(C)C
accession=JP001469
date=2016.01.19 (Created 2008.10.21, modified 2011.05.06)
author=MASS SPECTROSCOPY SOC. OF JAPAN (MSSJ)
license=CC BY-NC-SA
exact mass=198.18038
ionization energy=70 eV
ion type=[M]+*
computed spectral entropy=3.2131461610745204
computed normalized entropy=0.8055048913625047
SPLASH=splash10-06du-9700000000-c036ef77ffe74aef122a
submitter=submitter = University of Tokyo Team (Faculty of Engineering, University of Tokyo)
MoNA Rating=3.75

>  <NUM PEAKS>  (6548) 
54

>  <MASS SPECTRAL PEAKS>  (6548) 
41 9.36
43 11.52
45 18.22
46 1.1
53 2.31
54 1.19
55 10.61
56 3.27
57 12.62
58 8.18
59 62.05
60 5.05
61 2.41
63 2.24
67 2.33
69 6.92
70 2.07
71 12.99
72 1.77
73 33.9
74 2.19
75 1.45
81 2.22
83 6.96
84 1.45
85 25.87
86 3.42
87 33.58
88 3.05
89 1.28
95 3.52
97 7.67
98 1.77
99 29.39
100 3.19
101 8.15
109 1.5
111 7.63
112 1.33
113 28.56
114 3.52
115 4.88
125 1.22
127 8.91
128 1.35
139 5.53
140 1.02
141 68.35
142 9.83
143 2.7
169 99.99
170 16.28
171 4.4
198 2.92

$$$$

     RDKit          2D

 13 12  0  0  0  0  0  0  0  0999 V2000
    2.0894    3.5724    0.0000 C   0  0  0  0  0  0  0  0  0  0  0  0
   -0.9598    1.0138    0.0000 C   0  0  0  0  0  0  0  0  0  0  0  0
    1.9328    2.6838    0.0000 C   0  0  0  0  0  0  0  0  0  0  0  0
   -3.6557    5.6214    0.0000 C   0  0  0  0  0  0  0  0  0  0  0  0
   -5.7048    5.0724    0.0000 C   0  0  0  0  0  0  0  0  0  0  0  0
   -5.1557    3.0233    0.0000 C   0  0  0  0  0  0  0  0  0  0  0  0
    0.7904    4.3224    0.0000 C   0  0  0  0  0  0  0  0  0  0  0  0
   -1.4728    2.4233    0.0000 C   0  0  0  0  0  0  0  0  0  0  0  0
    0.4556    2.4233    0.0000 C   0  0  0  0  0  0  0  0  0  0  0  0
   -3.1067    3.5724    0.0000 C   0  0  0  0  0  0  0  0  0  0  0  0
   -1.8077    4.3224    0.0000 C   0  0  0  0  0  0  0  0  0  0  0  0
   -4.4057    4.3224    0.0000 Si  0  0  0  0  0  4  0  0  0  0  0  0
   -0.5086    3.5724    0.0000 Si  0  0  0  0  0  4  0  0  0  0  0  0
  7  1  1  0
  8  2  1  0
  9  3  1  0
 10 11  2  0
 12  4  1  0
 12  5  1  0
 12  6  1  0
 12 10  1  0
 13  7  1  0
 13  8  1  0
 13  9  1  0
 13 11  1  0
M  END
>  <NAME>  (6549) 
TRANS-1-TRIETHYLSILYL-2-TRIMETHYLSILYLETHYLENE

>  <SYNONYMS>  (6549) 


>  <SPECTRUM TYPE>  (6549) 
MS1

>  <INSTRUMENT TYPE>  (6549) 
EI-B

>  <INSTRUMENT>  (6549) 
JEOL JMS-D-3000

>  <ION MODE>  (6549) 
P

>  <INCHIKEY>  (6549) 
XGAKZDDPVFAGBU-ZHACJKMWSA-N

>  <FORMULA>  (6549) 
C11H26Si2

>  <EXACT MASS>  (6549) 
214.157303892

>  <MW>  (6549) 
214

>  <ID>  (6549) 
JP001468

>  <CONTRIBUTOR>  (6549) 
University of Tokyo Team, {Faculty of Engineering, University of Tokyo

>  <COMMENT>  (6549) 
SMILES=CC[Si](CC)(CC)C=C[Si](C)(C)C
InChI=InChI=1S/C11H26Si2/c1-7-13(8-2,9-3)11-10-12(4,5)6/h10-11H,7-9H2,1-6H3/b11-10+
computed SMILES=C(=C[Si](CC)(CC)CC)[Si](C)(C)C
accession=JP001468
date=2016.01.19 (Created 2008.10.21, modified 2011.05.06)
author=MASS SPECTROSCOPY SOC. OF JAPAN (MSSJ)
license=CC BY-NC-SA
exact mass=214.1573
ionization energy=70 eV
ion type=[M]+*
computed spectral entropy=3.046530056653469
computed normalized entropy=0.7673315018108616
SPLASH=splash10-000i-9800000000-a0e346ff708f2c2794af
submitter=submitter = University of Tokyo Team (Faculty of Engineering, University of Tokyo)
MoNA Rating=3.75

>  <NUM PEAKS>  (6549) 
53

>  <MASS SPECTRAL PEAKS>  (6549) 
43 6.16
45 13.76
53 1.3
55 4.7
56 1.18
57 6.01
58 5.73
59 40.77
60 3.24
61 1.56
69 2.28
71 7.72
72 1.57
73 99.99
74 8.17
75 4.03
83 9.86
84 1.63
85 3.58
86 1.54
87 99.92
88 10.3
89 3.85
95 1.08
97 4.11
99 1.68
101 50.88
102 5.79
103 2.19
111 10.89
112 5.89
113 5.52
114 1.04
115 14.76
116 1.79
126 15.72
127 6.46
128 1.48
129 4.94
140 3.78
141 2.77
155 1.66
157 39.8
158 7.25
159 3.51
171 2.18
185 94.65
186 20.1
187 8.62
188 1.09
199 4.1
214 7.61
215 1.89

$$$$

     RDKit          2D

 10 10  0  0  0  0  0  0  0  0999 V2000
    1.8487   -2.7991    0.0000 C   0  0  0  0  0  0  0  0  0  0  0  0
    3.8978   -2.2504    0.0000 C   0  0  0  0  0  0  0  0  0  0  0  0
    3.3491   -0.2013    0.0000 C   0  0  0  0  0  0  0  0  0  0  0  0
   -1.3000    0.7500    0.0000 C   0  0  0  0  0  0  0  0  0  0  0  0
    0.0000    1.5000    0.0000 C   0  0  0  0  0  0  0  0  0  0  0  0
   -1.3000   -0.7500    0.0000 C   0  0  0  0  0  0  0  0  0  0  0  0
    1.3000    0.7500    0.0000 C   0  0  0  0  0  0  0  0  0  0  0  0
    0.0000   -1.5000    0.0000 C   0  0  0  0  0  0  0  0  0  0  0  0
    1.3000   -0.7500    0.0000 C   0  0  0  0  0  0  0  0  0  0  0  0
    2.5989   -1.5002    0.0000 Si  0  0  0  0  0  4  0  0  0  0  0  0
  5  4  1  0
  6  4  1  0
  7  5  1  0
  8  6  1  0
  9  7  2  0
  9  8  1  0
 10  1  1  0
 10  2  1  0
 10  3  1  0
 10  9  1  0
M  END
>  <NAME>  (6550) 
1-TRIMETHYLSILYLCYCLOHEXENE

>  <SYNONYMS>  (6550) 


>  <SPECTRUM TYPE>  (6550) 
MS1

>  <INSTRUMENT TYPE>  (6550) 
EI-B

>  <INSTRUMENT>  (6550) 
JEOL JMS-D-3000

>  <ION MODE>  (6550) 
P

>  <INCHIKEY>  (6550) 
GCNCLIUGTVEEBJ-UHFFFAOYSA-N

>  <FORMULA>  (6550) 
C9H18Si

>  <EXACT MASS>  (6550) 
154.117777106

>  <MW>  (6550) 
154

>  <ID>  (6550) 
JP001467

>  <CONTRIBUTOR>  (6550) 
University of Tokyo Team, {Faculty of Engineering, University of Tokyo

>  <COMMENT>  (6550) 
SMILES=C(C1)CC=C(C1)[Si](C)(C)C
InChI=InChI=1S/C9H18Si/c1-10(2,3)9-7-5-4-6-8-9/h7H,4-6,8H2,1-3H3
computed SMILES=C1=C(CCCC1)[Si](C)(C)C
accession=JP001467
date=2016.01.19 (Created 2008.10.21, modified 2011.05.06)
author=MASS SPECTROSCOPY SOC. OF JAPAN (MSSJ)
license=CC BY-NC-SA
exact mass=154.11778
ionization energy=70 eV
ion type=[M]+*
computed spectral entropy=2.283156289904261
computed normalized entropy=0.749922635358049
SPLASH=splash10-00di-9200000000-4ece9969fc9d155396a6
submitter=submitter = University of Tokyo Team (Faculty of Engineering, University of Tokyo)
MoNA Rating=3.75

>  <NUM PEAKS>  (6550) 
21

>  <MASS SPECTRAL PEAKS>  (6550) 
43 8.66
45 10.75
55 2.64
59 44.61
60 3.67
73 99.99
74 8.52
75 4.14
77 2.06
79 30.58
80 21.13
81 2.26
83 2.62
85 3.09
95 2.2
97 2.14
111 3.38
135 3.44
139 38.75
140 5.4
154 9.05

$$$$

     RDKit          2D

  9  8  0  0  0  0  0  0  0  0999 V2000
    1.2255   -0.4755    0.0000 C   0  0  0  0  0  0  0  0  0  0  0  0
   -0.2745    2.1226    0.0000 C   0  0  0  0  0  0  0  0  0  0  0  0
   -0.8236    0.0736    0.0000 C   0  0  0  0  0  0  0  0  0  0  0  0
    3.0736    5.3236    0.0000 C   0  0  0  0  0  0  0  0  0  0  0  0
    4.3726    3.0736    0.0000 C   0  0  0  0  0  0  0  0  0  0  0  0
    1.7745    1.5736    0.0000 C   0  0  0  0  0  0  0  0  0  0  0  0
    1.7745    3.0736    0.0000 C   0  0  0  0  0  0  0  0  0  0  0  0
    0.4755    0.8236    0.0000 C   0  0  0  0  0  0  0  0  0  0  0  0
    3.0736    3.8236    0.0000 Si  0  0  0  0  0  4  0  0  0  0  0  0
  6  7  2  0
  8  1  1  0
  8  2  1  0
  8  3  1  0
  8  6  1  0
  9  4  1  0
  9  5  1  0
  9  7  1  0
M  END
>  <NAME>  (6551) 
TRANS-1-DIMETHYLHYDROSILYL-3,3-DIMETHYL-1-BUTENE

>  <SYNONYMS>  (6551) 


>  <SPECTRUM TYPE>  (6551) 
MS1

>  <INSTRUMENT TYPE>  (6551) 
EI-B

>  <INSTRUMENT>  (6551) 
JEOL JMS-D-3000

>  <ION MODE>  (6551) 
P

>  <INCHIKEY>  (6551) 
AQHDHCUGDPHLTD-VOTSOKGWSA-N

>  <FORMULA>  (6551) 
C8H18Si

>  <EXACT MASS>  (6551) 
142.117777106

>  <MW>  (6551) 
142

>  <ID>  (6551) 
JP001466

>  <CONTRIBUTOR>  (6551) 
University of Tokyo Team, {Faculty of Engineering, University of Tokyo

>  <COMMENT>  (6551) 
SMILES=C[SiH](C)C=CC(C)(C)C
InChI=InChI=1S/C8H18Si/c1-8(2,3)6-7-9(4)5/h6-7,9H,1-5H3/b7-6+
computed SMILES=C(=CC(C)(C)C)[SiH](C)C
accession=JP001466
date=2016.01.19 (Created 2008.10.21, modified 2011.05.06)
author=MASS SPECTROSCOPY SOC. OF JAPAN (MSSJ)
license=CC BY-NC-SA
exact mass=142.11778
ionization energy=70 eV
ion type=[M]+*
computed spectral entropy=3.0297582648992822
computed normalized entropy=0.7913403087783575
SPLASH=splash10-0pj0-9200000000-d8fd1786d6dde2f2e8d9
submitter=submitter = University of Tokyo Team (Faculty of Engineering, University of Tokyo)
MoNA Rating=3.75

>  <NUM PEAKS>  (6551) 
46

>  <MASS SPECTRAL PEAKS>  (6551) 
43 17.48
45 7.77
46 1.03
53 3.52
54 1.21
55 15.04
56 3.65
57 7.61
58 15.89
59 99.99
60 8.21
61 3.46
66 1.03
67 14.89
68 1.12
69 6.71
70 1.74
71 5.8
72 30
73 64.84
74 3.59
75 2.68
81 1.87
82 36.77
83 27.47
84 3.46
85 66.84
86 22.57
87 7.08
88 1.15
95 1.62
97 2.18
99 28.34
100 86.2
101 10.77
102 3.15
109 1.31
111 3.02
113 1.74
125 3.21
126 1.46
127 14.73
128 1.77
141 3.15
142 13.14
143 1.87

$$$$

     RDKit          2D

  9  9  0  0  0  0  0  0  0  0999 V2000
    0.4324   -2.7078    0.0000 C   0  0  0  0  0  0  0  0  0  0  0  0
    2.0816   -1.3735    0.0000 C   0  0  0  0  0  0  0  0  0  0  0  0
    0.7473    0.2757    0.0000 C   0  0  0  0  0  0  0  0  0  0  0  0
   -3.1116   -0.0712    0.0000 C   0  0  0  0  0  0  0  0  0  0  0  0
   -3.2774   -1.5641    0.0000 C   0  0  0  0  0  0  0  0  0  0  0  0
   -1.6519    0.2404    0.0000 C   0  0  0  0  0  0  0  0  0  0  0  0
   -1.9016   -2.1670    0.0000 C   0  0  0  0  0  0  0  0  0  0  0  0
   -0.9019   -1.0586    0.0000 C   0  0  0  0  0  0  0  0  0  0  0  0
    0.5899   -1.2160    0.0000 Si  0  0  0  0  0  4  0  0  0  0  0  0
  5  4  1  0
  6  4  1  0
  7  5  1  0
  8  6  2  0
  8  7  1  0
  9  1  1  0
  9  2  1  0
  9  3  1  0
  9  8  1  0
M  END
>  <NAME>  (6552) 
1-TRIMETHYLSILYLCYCLOPENTENE

>  <SYNONYMS>  (6552) 


>  <SPECTRUM TYPE>  (6552) 
MS1

>  <INSTRUMENT TYPE>  (6552) 
EI-B

>  <INSTRUMENT>  (6552) 
JEOL JMS-D-3000

>  <ION MODE>  (6552) 
P

>  <INCHIKEY>  (6552) 
NCRSFPYUKGCMLQ-UHFFFAOYSA-N

>  <FORMULA>  (6552) 
C8H16Si

>  <EXACT MASS>  (6552) 
140.102127042

>  <MW>  (6552) 
140

>  <ID>  (6552) 
JP001465

>  <CONTRIBUTOR>  (6552) 
University of Tokyo Team, {Faculty of Engineering, University of Tokyo

>  <COMMENT>  (6552) 
SMILES=C[Si](C)(C)C(C1)=CCC1
InChI=InChI=1S/C8H16Si/c1-9(2,3)8-6-4-5-7-8/h6H,4-5,7H2,1-3H3
computed SMILES=C1=C(CCC1)[Si](C)(C)C
accession=JP001465
date=2016.01.19 (Created 2008.10.21, modified 2011.05.06)
author=MASS SPECTROSCOPY SOC. OF JAPAN (MSSJ)
license=CC BY-NC-SA
exact mass=140.10213
ionization energy=70 eV
ion type=[M]+*
computed spectral entropy=2.446885474317158
computed normalized entropy=0.6938840930291713
SPLASH=splash10-004j-9600000000-44588662974e31897e89
submitter=submitter = University of Tokyo Team (Faculty of Engineering, University of Tokyo)
MoNA Rating=3.75

>  <NUM PEAKS>  (6552) 
34

>  <MASS SPECTRAL PEAKS>  (6552) 
41 1.16
43 8.66
45 8.71
53 2.3
55 3.33
57 1.18
58 1.78
59 17.82
60 1.46
66 3.34
67 2.81
69 5.58
71 1.56
72 1.52
73 6.82
74 5.6
75 2.88
80 2.39
81 2.08
83 4.69
85 1.1
93 1.14
95 2.41
96 1.03
97 80.39
98 9.37
99 3.53
109 1.75
123 1.13
125 99.99
126 13.49
127 4.35
140 19.05
141 2.7

$$$$

     RDKit          2D

  8  7  0  0  0  0  0  0  0  0999 V2000
    1.1209    2.2500    0.0000 C   0  0  0  0  0  0  0  0  0  0  0  0
   -4.0753    2.2500    0.0000 C   0  0  0  0  0  0  0  0  0  0  0  0
    0.9642    1.3614    0.0000 C   0  0  0  0  0  0  0  0  0  0  0  0
   -2.4414    1.1009    0.0000 C   0  0  0  0  0  0  0  0  0  0  0  0
   -0.1782    3.0000    0.0000 C   0  0  0  0  0  0  0  0  0  0  0  0
   -2.7762    3.0000    0.0000 C   0  0  0  0  0  0  0  0  0  0  0  0
   -0.5130    1.1009    0.0000 C   0  0  0  0  0  0  0  0  0  0  0  0
   -1.4772    2.2500    0.0000 Si  0  0  0  0  0  4  0  0  0  0  0  0
  5  1  1  0
  6  2  1  0
  7  3  1  0
  8  4  1  0
  8  5  1  0
  8  6  1  0
  8  7  1  0
M  END
>  <NAME>  (6553) 
TRIETHYLMETHYLSILANE

>  <SYNONYMS>  (6553) 


>  <SPECTRUM TYPE>  (6553) 
MS1

>  <INSTRUMENT TYPE>  (6553) 
EI-B

>  <INSTRUMENT>  (6553) 
JEOL JMS-D-3000

>  <ION MODE>  (6553) 
P

>  <INCHIKEY>  (6553) 
JCSVHJQZTMYYFL-UHFFFAOYSA-N

>  <FORMULA>  (6553) 
C7H18Si

>  <EXACT MASS>  (6553) 
130.117777106

>  <MW>  (6553) 
130

>  <ID>  (6553) 
JP001464

>  <CONTRIBUTOR>  (6553) 
University of Tokyo Team, {Faculty of Engineering, University of Tokyo

>  <COMMENT>  (6553) 
SMILES=CC[Si](C)(CC)CC
InChI=InChI=1S/C7H18Si/c1-5-8(4,6-2)7-3/h5-7H2,1-4H3
computed SMILES=CC[Si](C)(CC)CC
accession=JP001464
date=2016.01.19 (Created 2008.10.21, modified 2011.05.06)
author=MASS SPECTROSCOPY SOC. OF JAPAN (MSSJ)
license=CC BY-NC-SA
exact mass=130.11778
ionization energy=70 eV
ion type=[M]+*
computed spectral entropy=1.880015083767259
computed normalized entropy=0.6275644523924364
SPLASH=splash10-0fk9-9600000000-10b8aaddbc4dfc367c59
submitter=submitter = University of Tokyo Team (Faculty of Engineering, University of Tokyo)
MoNA Rating=3.75

>  <NUM PEAKS>  (6553) 
20

>  <MASS SPECTRAL PEAKS>  (6553) 
43 2.14
45 21.95
47 1.15
53 1.07
55 2.59
57 3.45
58 1.05
70 1.13
71 3.45
72 4
73 99.99
74 3.68
75 4.79
87 7.15
101 85.6
102 9.28
103 3.94
115 3.41
130 8.84
131 1.36

$$$$

     RDKit          2D

 22 24  0  0  0  0  0  0  0  0999 V2000
    1.7600    4.4500    0.0000 C   0  0  0  0  0  0  0  0  0  0  0  0
   -4.7289    0.7002    0.0000 C   0  0  0  0  0  0  0  0  0  0  0  0
    4.3589    2.9502    0.0000 C   0  0  0  0  0  0  0  0  0  0  0  0
   -4.7289   -2.3002    0.0000 C   0  0  0  0  0  0  0  0  0  0  0  0
    2.2727   -2.9596    0.0000 C   0  0  0  0  0  0  0  0  0  0  0  0
    3.2372   -1.2897    0.0000 C   0  0  0  0  0  0  0  0  0  0  0  0
   -0.5066   -3.4470    0.0000 C   0  0  0  0  0  0  0  0  0  0  0  0
    1.4228   -3.4502    0.0000 C   0  0  0  0  0  0  0  0  0  0  0  0
    0.4600    2.2000    0.0000 C   0  0  0  0  0  0  0  0  0  0  0  0
   -2.1300    0.7000    0.0000 C   0  0  0  0  0  0  0  0  0  0  0  0
    3.0600    0.7000    0.0000 C   0  0  0  0  0  0  0  0  0  0  0  0
   -2.1300   -2.3000    0.0000 C   0  0  0  0  0  0  0  0  0  0  0  0
    1.7600    2.9500    0.0000 C   0  0  0  0  0  0  0  0  0  0  0  0
   -3.4300   -0.0500    0.0000 C   0  0  0  0  0  0  0  0  0  0  0  0
    3.0600    2.2000    0.0000 C   0  0  0  0  0  0  0  0  0  0  0  0
   -3.4300   -1.5500    0.0000 C   0  0  0  0  0  0  0  0  0  0  0  0
    0.4600    0.7000    0.0000 C   0  0  0  0  0  0  0  0  0  0  0  0
   -0.8300   -0.0500    0.0000 C   0  0  0  0  0  0  0  0  0  0  0  0
    1.7600   -0.0500    0.0000 C   0  0  0  0  0  0  0  0  0  0  0  0
   -0.8300   -1.5500    0.0000 C   0  0  0  0  0  0  0  0  0  0  0  0
    1.7600   -1.5500    0.0000 Si  0  0  0  0  0  4  0  0  0  0  0  0
    0.4600   -2.3000    0.0000 Si  0  0  0  0  0  4  0  0  0  0  0  0
 13  1  1  0
 13  9  2  0
 14  2  1  0
 14 10  1  0
 15  3  1  0
 15 11  2  0
 15 13  1  0
 16  4  1  0
 16 12  1  0
 16 14  2  0
 17  9  1  0
 18 10  2  0
 18 17  1  0
 19 11  1  0
 19 17  2  0
 20 12  2  0
 20 18  1  0
 21  5  1  0
 21  6  1  0
 21 19  1  0
 22  7  1  0
 22  8  1  0
 22 20  1  0
 22 21  1  0
M  END
>  <NAME>  (6554) 
(1,2,1',2'-TETRAMETHYLDIBENZO(4,5-C,4',5'-E))-1,1,2,2-TETRAMETHYL-1,2-DISILACYCLOHEXA-3,5-DIENE

>  <SYNONYMS>  (6554) 


>  <SPECTRUM TYPE>  (6554) 
MS1

>  <INSTRUMENT TYPE>  (6554) 
EI-B

>  <INSTRUMENT>  (6554) 
JEOL JMS-D-3000

>  <ION MODE>  (6554) 
P

>  <INCHIKEY>  (6554) 
FUJMQEAHBZWDST-UHFFFAOYSA-N

>  <FORMULA>  (6554) 
C20H28Si2

>  <EXACT MASS>  (6554) 
324.172953956

>  <MW>  (6554) 
324

>  <ID>  (6554) 
JP001463

>  <CONTRIBUTOR>  (6554) 
University of Tokyo Team, {Faculty of Engineering, University of Tokyo

>  <COMMENT>  (6554) 
SMILES=Cc(c(C)3)cc(c21)c(c3)[Si](C)(C)[Si](C)(C)c(cc(C)c(C)c2)1
InChI=InChI=1S/C20H28Si2/c1-13-9-17-18-10-14(2)16(4)12-20(18)22(7,8)21(5,6)19(17)11-15(13)3/h9-12H,1-8H3
computed SMILES=C=1C=2C=3C=C(C(=CC3[Si](C)(C)[Si](C2C=C(C1C)C)(C)C)C)C
accession=JP001463
date=2016.01.19 (Created 2008.10.21, modified 2011.05.06)
author=MASS SPECTROSCOPY SOC. OF JAPAN (MSSJ)
license=CC BY-NC-SA
exact mass=324.17295
ionization energy=70 eV
ion type=[M]+*
computed spectral entropy=2.823501569660391
computed normalized entropy=0.72174973555693
SPLASH=splash10-0udi-1092000000-763f88f2f0d25511f86b
submitter=submitter = University of Tokyo Team (Faculty of Engineering, University of Tokyo)
MoNA Rating=3.75

>  <NUM PEAKS>  (6554) 
50

>  <MASS SPECTRAL PEAKS>  (6554) 
43 2.13
44 21.1
45 2.16
58 2.02
59 1.72
73 4.26
77 1.08
78 2.57
91 3.58
105 1.01
117 2.84
118 2.13
126 1.79
163 3.88
165 1.35
178 1.04
179 1.31
180 1.11
192 1.11
194 1.21
195 1.42
203 1.11
205 1.72
206 2.7
210 3.75
219 1.89
220 1.45
221 4.63
222 1.18
233 1.14
234 1.01
235 3.04
236 2.33
237 1.72
249 1.85
250 2.87
251 99.99
252 25.53
253 6.93
254 1.31
265 1.42
266 12.03
267 2.97
268 1.04
309 6.56
310 2.67
323 1.18
324 21.27
325 9.29
326 2.84

$$$$

     RDKit          2D

 20 23  0  0  0  0  0  0  0  0999 V2000
    1.0039    2.9546    0.0000 C   0  0  0  0  0  0  0  0  0  0  0  0
   -3.0138    5.1839    0.0000 C   0  0  0  0  0  0  0  0  0  0  0  0
   -1.5458    5.4960    0.0000 C   0  0  0  0  0  0  0  0  0  0  0  0
   -3.4769    3.7572    0.0000 C   0  0  0  0  0  0  0  0  0  0  0  0
    3.2200   -1.2700    0.0000 C   0  0  0  0  0  0  0  0  0  0  0  0
   -3.2200   -1.2700    0.0000 C   0  0  0  0  0  0  0  0  0  0  0  0
    3.6900    0.1600    0.0000 C   0  0  0  0  0  0  0  0  0  0  0  0
   -3.6800    0.1600    0.0000 C   0  0  0  0  0  0  0  0  0  0  0  0
   -0.5408    4.3813    0.0000 C   0  0  0  0  0  0  0  0  0  0  0  0
   -2.4719    2.6425    0.0000 C   0  0  0  0  0  0  0  0  0  0  0  0
    1.7500   -1.5800    0.0000 C   0  0  0  0  0  0  0  0  0  0  0  0
   -1.7500   -1.5800    0.0000 C   0  0  0  0  0  0  0  0  0  0  0  0
    2.6800    1.2700    0.0000 C   0  0  0  0  0  0  0  0  0  0  0  0
   -2.6800    1.2700    0.0000 C   0  0  0  0  0  0  0  0  0  0  0  0
   -1.0039    2.9546    0.0000 C   0  0  0  0  0  0  0  0  0  0  0  0
    0.7500   -0.4700    0.0000 C   0  0  0  0  0  0  0  0  0  0  0  0
   -0.7500   -0.4700    0.0000 C   0  0  0  0  0  0  0  0  0  0  0  0
    1.2100    0.9600    0.0000 C   0  0  0  0  0  0  0  0  0  0  0  0
   -1.2100    0.9600    0.0000 C   0  0  0  0  0  0  0  0  0  0  0  0
    0.0000    1.8400    0.0000 Si  0  0  0  0  0  4  0  0  0  0  0  0
  3  2  2  0
  4  2  1  0
  7  5  2  0
  8  6  2  0
  9  3  1  0
 10  4  2  0
 11  5  1  0
 12  6  1  0
 13  7  1  0
 14  8  1  0
 15  9  2  0
 15 10  1  0
 16 11  2  0
 17 12  2  0
 17 16  1  0
 18 13  2  0
 18 16  1  0
 19 14  2  0
 19 17  1  0
 20  1  1  0
 20 15  1  0
 20 18  1  0
 20 19  1  0
M  END
>  <NAME>  (6555) 
9-METHYL-9-PHENYL-9-SILAFLUORENE

>  <SYNONYMS>  (6555) 


>  <SPECTRUM TYPE>  (6555) 
MS1

>  <INSTRUMENT TYPE>  (6555) 
EI-B

>  <INSTRUMENT>  (6555) 
JEOL JMS-D-3000

>  <ION MODE>  (6555) 
P

>  <INCHIKEY>  (6555) 
FWZYOTZZKGUNHT-UHFFFAOYSA-N

>  <FORMULA>  (6555) 
C19H16Si

>  <EXACT MASS>  (6555) 
272.102127042

>  <MW>  (6555) 
272

>  <ID>  (6555) 
JP001462

>  <CONTRIBUTOR>  (6555) 
University of Tokyo Team, {Faculty of Engineering, University of Tokyo

>  <COMMENT>  (6555) 
SMILES=c(c4)ccc(c4)[Si](C)(c21)c(c3)c(ccc3)c(cccc2)1
InChI=InChI=1S/C19H16Si/c1-20(15-9-3-2-4-10-15)18-13-7-5-11-16(18)17-12-6-8-14-19(17)20/h2-14H,1H3
computed SMILES=C=1C=CC(=CC1)[Si]2(C=3C=CC=CC3C=4C=CC=CC42)C
accession=JP001462
date=2016.01.19 (Created 2008.10.21, modified 2011.05.06)
author=MASS SPECTROSCOPY SOC. OF JAPAN (MSSJ)
license=CC BY-NC-SA
exact mass=272.10213
ionization energy=70 eV
ion type=[M]+*
computed spectral entropy=2.5881363010207927
computed normalized entropy=0.6969398343513747
SPLASH=splash10-0a4i-0290000000-24bcd99cd1eee9a1f469
submitter=submitter = University of Tokyo Team (Faculty of Engineering, University of Tokyo)
MoNA Rating=3.75

>  <NUM PEAKS>  (6555) 
41

>  <MASS SPECTRAL PEAKS>  (6555) 
44 1.37
53 3.7
77 1.6
78 1.11
91 1.23
103 1.33
105 2.55
127 1.37
128 2
129 8.51
135 1.11
136 7.01
153 2.16
154 1.45
155 1.54
165 7.39
166 1.58
167 1.23
179 3.48
180 3.72
181 2.57
193 1.52
195 6.77
196 1.31
202 1.27
205 2.97
226 1.33
227 1.07
228 2.87
229 3.2
230 1.17
231 1.25
254 2.79
255 7.54
257 99.99
258 28.31
259 6.4
260 1.03
272 46.56
273 11.91
274 3.16

$$$$

     RDKit          2D

 21 23  0  0  0  0  0  0  0  0999 V2000
   -4.4587    1.6852    0.0000 C   0  0  0  0  0  0  0  0  0  0  0  0
   -4.4587   -0.1852    0.0000 C   0  0  0  0  0  0  0  0  0  0  0  0
   -1.8236   -2.2867    0.0000 C   0  0  0  0  0  0  0  0  0  0  0  0
   -0.0000   -1.8705    0.0000 C   0  0  0  0  0  0  0  0  0  0  0  0
   -4.0975   -0.9352    0.0000 C   0  0  0  0  0  0  0  0  0  0  0  0
   -2.6351   -2.1015    0.0000 C   0  0  0  0  0  0  0  0  0  0  0  0
   -1.7509    4.9682    0.0000 C   0  0  0  0  0  0  0  0  0  0  0  0
    2.5981    1.5000    0.0000 C   0  0  0  0  0  0  0  0  0  0  0  0
   -3.2133    4.6344    0.0000 C   0  0  0  0  0  0  0  0  0  0  0  0
    2.5981   -0.0000    0.0000 C   0  0  0  0  0  0  0  0  0  0  0  0
   -0.7306    3.8686    0.0000 C   0  0  0  0  0  0  0  0  0  0  0  0
    1.2990    2.2500    0.0000 C   0  0  0  0  0  0  0  0  0  0  0  0
   -3.6554    3.2010    0.0000 C   0  0  0  0  0  0  0  0  0  0  0  0
    1.2990   -0.7500    0.0000 C   0  0  0  0  0  0  0  0  0  0  0  0
   -1.1727    2.4352    0.0000 C   0  0  0  0  0  0  0  0  0  0  0  0
    0.0000    1.5000    0.0000 C   0  0  0  0  0  0  0  0  0  0  0  0
   -2.6351    2.1015    0.0000 C   0  0  0  0  0  0  0  0  0  0  0  0
   -0.0000   -0.0000    0.0000 C   0  0  0  0  0  0  0  0  0  0  0  0
   -3.2860    0.7500    0.0000 Si  0  0  0  0  0  4  0  0  0  0  0  0
   -1.1727   -0.9352    0.0000 Si  0  0  0  0  0  4  0  0  0  0  0  0
   -2.6351   -0.6015    0.0000 Si  0  0  0  0  0  4  0  0  0  0  0  0
  9  7  2  0
 10  8  2  0
 11  7  1  0
 12  8  1  0
 13  9  1  0
 14 10  1  0
 15 11  2  0
 16 12  2  0
 16 15  1  0
 17 13  2  0
 17 15  1  0
 18 14  2  0
 18 16  1  0
 19  1  1  0
 19  2  1  0
 19 17  1  0
 20  3  1  0
 20  4  1  0
 20 18  1  0
 21  5  1  0
 21  6  1  0
 21 19  1  0
 21 20  1  0
M  END
>  <NAME>  (6556) 
DIBENZO(D,F)-1,1,2,2,3,3-HEXAMETHYL-1,2,3-TRISILACYCLOHEPTA-4,6-DIENE

>  <SYNONYMS>  (6556) 


>  <SPECTRUM TYPE>  (6556) 
MS1

>  <INSTRUMENT TYPE>  (6556) 
EI-B

>  <INSTRUMENT>  (6556) 
JEOL JMS-D-3000

>  <ION MODE>  (6556) 
P

>  <INCHIKEY>  (6556) 
YFNCLGLQJVKJLI-UHFFFAOYSA-N

>  <FORMULA>  (6556) 
C18H26Si3

>  <EXACT MASS>  (6556) 
326.134230422

>  <MW>  (6556) 
326

>  <ID>  (6556) 
JP001461

>  <CONTRIBUTOR>  (6556) 
University of Tokyo Team, {Faculty of Engineering, University of Tokyo

>  <COMMENT>  (6556) 
SMILES=c(c3)cc(c21)c(c3)[Si](C)(C)[Si](C)(C)[Si](C)(C)c(cccc2)1
InChI=InChI=1S/C18H26Si3/c1-19(2)17-13-9-7-11-15(17)16-12-8-10-14-18(16)20(3,4)21(19,5)6/h7-14H,1-6H3
computed SMILES=C=1C=CC2=C(C1)C=3C=CC=CC3[Si](C)(C)[Si](C)(C)[Si]2(C)C
ion type=[M]+*
accession=JP001461
date=2016.01.19 (Created 2008.10.21, modified 2011.05.06)
author=MASS SPECTROSCOPY SOC. OF JAPAN (MSSJ)
license=CC BY-NC-SA
exact mass=326.13423
ionization energy=70 eV
computed spectral entropy=1.890558174455572
computed normalized entropy=0.6310838225248699
SPLASH=splash10-014i-2900000000-b6e405e69c6a6c2af101
submitter=submitter = University of Tokyo Team (Faculty of Engineering, University of Tokyo)
MoNA Rating=3.75

>  <NUM PEAKS>  (6556) 
20

>  <MASS SPECTRAL PEAKS>  (6556) 
43 2.87
45 3.59
59 2.79
73 32.5
74 2.66
75 1.35
101 6.64
115 1.32
116 99.99
117 16.82
118 9
131 1.02
165 3.66
193 1.07
195 10.88
196 2.25
253 1.89
311 1.03
326 2.73
327 0.99

$$$$

     RDKit          2D

 21 23  0  0  0  0  0  0  0  0999 V2000
    2.0476   -0.0476    0.0000 C   0  0  0  0  0  0  0  0  0  0  0  0
    1.9369    2.0708    0.0000 C   0  0  0  0  0  0  0  0  0  0  0  0
   -0.5382    2.2814    0.0000 C   0  0  0  0  0  0  0  0  0  0  0  0
    0.4673    3.6372    0.0000 C   0  0  0  0  0  0  0  0  0  0  0  0
   -2.7211    2.7842    0.0000 C   0  0  0  0  0  0  0  0  0  0  0  0
   -2.8317    0.6657    0.0000 C   0  0  0  0  0  0  0  0  0  0  0  0
    3.1492   -3.2683    0.0000 C   0  0  0  0  0  0  0  0  0  0  0  0
   -3.2908   -3.2683    0.0000 C   0  0  0  0  0  0  0  0  0  0  0  0
    3.6192   -1.8383    0.0000 C   0  0  0  0  0  0  0  0  0  0  0  0
   -3.7508   -1.8383    0.0000 C   0  0  0  0  0  0  0  0  0  0  0  0
    1.6792   -3.5783    0.0000 C   0  0  0  0  0  0  0  0  0  0  0  0
   -1.8208   -3.5783    0.0000 C   0  0  0  0  0  0  0  0  0  0  0  0
    2.6092   -0.7283    0.0000 C   0  0  0  0  0  0  0  0  0  0  0  0
   -2.7508   -0.7283    0.0000 C   0  0  0  0  0  0  0  0  0  0  0  0
    0.6792   -2.4683    0.0000 C   0  0  0  0  0  0  0  0  0  0  0  0
   -0.8208   -2.4683    0.0000 C   0  0  0  0  0  0  0  0  0  0  0  0
    1.1392   -1.0383    0.0000 C   0  0  0  0  0  0  0  0  0  0  0  0
   -1.2808   -1.0383    0.0000 C   0  0  0  0  0  0  0  0  0  0  0  0
    0.9330    0.9563    0.0000 Si  0  0  0  0  0  4  0  0  0  0  0  0
   -1.7172    1.6696    0.0000 Si  0  0  0  0  0  4  0  0  0  0  0  0
   -0.0708   -0.1583    0.0000 Si  0  0  0  0  0  4  0  0  0  0  0  0
  9  7  2  0
 10  8  2  0
 11  7  1  0
 12  8  1  0
 13  9  1  0
 14 10  1  0
 15 11  2  0
 16 12  2  0
 16 15  1  0
 17 13  2  0
 17 15  1  0
 18 14  2  0
 18 16  1  0
 19  1  1  0
 19  2  1  0
 19  3  1  0
 20  4  1  0
 20  5  1  0
 20  6  1  0
 21 17  1  0
 21 18  1  0
 21 19  1  0
 21 20  1  0
M  END
>  <NAME>  (6557) 
9,9-BIS(TRIMETHYLSILYL)-9-SILAFLUORENE

>  <SYNONYMS>  (6557) 


>  <SPECTRUM TYPE>  (6557) 
MS1

>  <INSTRUMENT TYPE>  (6557) 
EI-B

>  <INSTRUMENT>  (6557) 
JEOL JMS-D-3000

>  <ION MODE>  (6557) 
P

>  <INCHIKEY>  (6557) 
VVLXLOFKPLEEQP-UHFFFAOYSA-N

>  <FORMULA>  (6557) 
C18H26Si3

>  <EXACT MASS>  (6557) 
326.134230422

>  <MW>  (6557) 
326

>  <ID>  (6557) 
JP001460

>  <CONTRIBUTOR>  (6557) 
University of Tokyo Team, {Faculty of Engineering, University of Tokyo

>  <COMMENT>  (6557) 
SMILES=c(c3)cc(c21)c(c3)[Si]([Si](C)(C)C)([Si](C)(C)C)c(cccc2)1
InChI=InChI=1S/C18H26Si3/c1-19(2,3)21(20(4,5)6)17-13-9-7-11-15(17)16-12-8-10-14-18(16)21/h7-14H,1-6H3
computed SMILES=C=1C=CC2=C(C1)C=3C=CC=CC3[Si]2([Si](C)(C)C)[Si](C)(C)C
accession=JP001460
date=2016.01.19 (Created 2008.10.21, modified 2011.05.06)
author=MASS SPECTROSCOPY SOC. OF JAPAN (MSSJ)
license=CC BY-NC-SA
exact mass=326.13423
ionization energy=70 eV
ion type=[M]+*
computed spectral entropy=3.000687413774932
computed normalized entropy=0.7522435233501208
SPLASH=splash10-0uka-5693000000-09500f841c4ac4024fec
submitter=submitter = University of Tokyo Team (Faculty of Engineering, University of Tokyo)
MoNA Rating=3.75

>  <NUM PEAKS>  (6557) 
54

>  <MASS SPECTRAL PEAKS>  (6557) 
43 4.45
44 3.52
45 13.26
53 1.57
59 2.24
73 96.45
74 9.49
75 6.89
78 1.38
115 1.04
116 9.48
117 1.61
129 1.56
131 3.48
153 1.3
154 1.25
155 1.28
165 11.57
166 2.06
167 1.63
168 1.13
169 1.33
179 2.26
180 4.11
181 4.63
182 1.09
193 4.66
194 1.43
195 70.78
196 14.14
197 4.02
221 1.02
223 2.17
237 3.83
238 33.27
239 9.09
240 3.42
251 1.78
252 3.39
253 99.99
254 27.27
255 10.5
256 1.92
267 8.57
268 2.59
269 1.07
309 1.33
311 12.08
312 4
313 1.72
326 40.59
327 14.88
328 6.74
329 1.72

$$$$

     RDKit          2D

 19 21  0  0  0  0  0  0  0  0999 V2000
    4.2209   -2.3872    0.0000 C   0  0  0  0  0  0  0  0  0  0  0  0
   -4.2244   -2.3840    0.0000 C   0  0  0  0  0  0  0  0  0  0  0  0
    5.1569    0.4732    0.0000 C   0  0  0  0  0  0  0  0  0  0  0  0
   -5.1467    0.4742    0.0000 C   0  0  0  0  0  0  0  0  0  0  0  0
    1.0039    2.9546    0.0000 C   0  0  0  0  0  0  0  0  0  0  0  0
   -1.0039    2.9546    0.0000 C   0  0  0  0  0  0  0  0  0  0  0  0
    1.7500   -1.5800    0.0000 C   0  0  0  0  0  0  0  0  0  0  0  0
   -1.7500   -1.5800    0.0000 C   0  0  0  0  0  0  0  0  0  0  0  0
    2.6800    1.2700    0.0000 C   0  0  0  0  0  0  0  0  0  0  0  0
   -2.6800    1.2700    0.0000 C   0  0  0  0  0  0  0  0  0  0  0  0
    3.2200   -1.2700    0.0000 C   0  0  0  0  0  0  0  0  0  0  0  0
   -3.2200   -1.2700    0.0000 C   0  0  0  0  0  0  0  0  0  0  0  0
    3.6900    0.1600    0.0000 C   0  0  0  0  0  0  0  0  0  0  0  0
   -3.6800    0.1600    0.0000 C   0  0  0  0  0  0  0  0  0  0  0  0
    0.7500   -0.4700    0.0000 C   0  0  0  0  0  0  0  0  0  0  0  0
   -0.7500   -0.4700    0.0000 C   0  0  0  0  0  0  0  0  0  0  0  0
    1.2100    0.9600    0.0000 C   0  0  0  0  0  0  0  0  0  0  0  0
   -1.2100    0.9600    0.0000 C   0  0  0  0  0  0  0  0  0  0  0  0
   -0.0000    1.8400    0.0000 Si  0  0  0  0  0  4  0  0  0  0  0  0
 11  1  1  0
 11  7  2  0
 12  2  1  0
 12  8  1  0
 13  3  1  0
 13  9  2  0
 13 11  1  0
 14  4  1  0
 14 10  1  0
 14 12  2  0
 15  7  1  0
 16  8  2  0
 16 15  1  0
 17  9  1  0
 17 15  2  0
 18 10  2  0
 18 16  1  0
 19  5  1  0
 19  6  1  0
 19 17  1  0
 19 18  1  0
M  END
>  <NAME>  (6558) 
2,3,6,7,9,9-HEXAMETHYL-9-SILAFLUORENE

>  <SYNONYMS>  (6558) 


>  <SPECTRUM TYPE>  (6558) 
MS1

>  <INSTRUMENT TYPE>  (6558) 
EI-B

>  <INSTRUMENT>  (6558) 
JEOL JMS-D-3000

>  <ION MODE>  (6558) 
P

>  <INCHIKEY>  (6558) 
VMIACFKGWPODOT-UHFFFAOYSA-N

>  <FORMULA>  (6558) 
C18H22Si

>  <EXACT MASS>  (6558) 
266.149077234

>  <MW>  (6558) 
266

>  <ID>  (6558) 
JP001459

>  <CONTRIBUTOR>  (6558) 
University of Tokyo Team, {Faculty of Engineering, University of Tokyo

>  <COMMENT>  (6558) 
SMILES=Cc(c(C)3)cc(c21)c(c3)[Si](C)(C)c(cc(C)c(C)c2)1
InChI=InChI=1S/C18H22Si/c1-11-7-15-16-8-12(2)14(4)10-18(16)19(5,6)17(15)9-13(11)3/h7-10H,1-6H3
computed SMILES=C=1C=2C=3C=C(C(=CC3[Si](C2C=C(C1C)C)(C)C)C)C
accession=JP001459
date=2016.01.19 (Created 2008.10.21, modified 2011.05.06)
author=MASS SPECTROSCOPY SOC. OF JAPAN (MSSJ)
license=CC BY-NC-SA
exact mass=266.14908
ionization energy=70 eV
ion type=[M]+*
computed spectral entropy=2.5619413148627563
computed normalized entropy=0.6854381410092102
SPLASH=splash10-0uxr-0290000000-3c9d305f7669a736d221
submitter=submitter = University of Tokyo Team (Faculty of Engineering, University of Tokyo)
MoNA Rating=3.75

>  <NUM PEAKS>  (6558) 
42

>  <MASS SPECTRAL PEAKS>  (6558) 
104 2.26
105 1.07
110 1.16
111 1.23
116 1.1
117 1.5
118 15.3
119 2.9
125 4.45
126 14.34
133 3.84
134 1
165 1.4
178 1.43
179 1.43
189 1.41
191 2.2
192 2.05
193 1.89
195 1.21
205 2.76
206 3.84
207 1.3
217 1.01
219 2.24
220 1.55
221 5.31
222 1.38
223 1.31
233 1.19
235 4.04
236 2.07
237 1.53
249 2.2
250 2.7
251 99.99
252 24.3
253 6.21
265 2.69
266 62.12
267 16.04
268 3.71

$$$$

     RDKit          2D

 19 21  0  0  0  0  0  0  0  0999 V2000
   -2.9929   -1.5427    0.0000 C   0  0  0  0  0  0  0  0  0  0  0  0
   -1.3730   -2.4779    0.0000 C   0  0  0  0  0  0  0  0  0  0  0  0
    1.7645   -1.2466    0.0000 C   0  0  0  0  0  0  0  0  0  0  0  0
    2.3158    0.5408    0.0000 C   0  0  0  0  0  0  0  0  0  0  0  0
   -4.4820    2.4438    0.0000 C   0  0  0  0  0  0  0  0  0  0  0  0
    0.6960    4.4760    0.0000 C   0  0  0  0  0  0  0  0  0  0  0  0
   -4.9242    1.0105    0.0000 C   0  0  0  0  0  0  0  0  0  0  0  0
    1.9950    3.7260    0.0000 C   0  0  0  0  0  0  0  0  0  0  0  0
   -3.0197    2.7776    0.0000 C   0  0  0  0  0  0  0  0  0  0  0  0
   -0.6031    3.7260    0.0000 C   0  0  0  0  0  0  0  0  0  0  0  0
   -3.9039   -0.0891    0.0000 C   0  0  0  0  0  0  0  0  0  0  0  0
    1.9950    2.2260    0.0000 C   0  0  0  0  0  0  0  0  0  0  0  0
   -1.9994    1.6780    0.0000 C   0  0  0  0  0  0  0  0  0  0  0  0
   -0.6031    2.2260    0.0000 C   0  0  0  0  0  0  0  0  0  0  0  0
   -2.4415    0.2447    0.0000 C   0  0  0  0  0  0  0  0  0  0  0  0
    0.6960    1.4760    0.0000 C   0  0  0  0  0  0  0  0  0  0  0  0
   -0.1007   -1.1068    0.0000 O   0  0  0  0  0  0  0  0  0  0  0  0
   -1.5965   -0.9947    0.0000 Si  0  0  0  0  0  4  0  0  0  0  0  0
    0.9195   -0.0072    0.0000 Si  0  0  0  0  0  4  0  0  0  0  0  0
  7  5  2  0
  8  6  2  0
  9  5  1  0
 10  6  1  0
 11  7  1  0
 12  8  1  0
 13  9  2  0
 14 10  2  0
 14 13  1  0
 15 11  2  0
 15 13  1  0
 16 12  2  0
 16 14  1  0
 18  1  1  0
 18  2  1  0
 18 15  1  0
 18 17  1  0
 19  3  1  0
 19  4  1  0
 19 16  1  0
 19 17  1  0
M  END
>  <NAME>  (6559) 
DIBENZO(D,F)-1,1,3,3-TETRAMETHYL-1,3-DISILA-2-OXACYCLOHEPTA-4,6-DIENE

>  <SYNONYMS>  (6559) 


>  <SPECTRUM TYPE>  (6559) 
MS1

>  <INSTRUMENT TYPE>  (6559) 
EI-B

>  <INSTRUMENT>  (6559) 
JEOL JMS-D-3000

>  <ION MODE>  (6559) 
P

>  <INCHIKEY>  (6559) 
GRSNFLIGYUYVAI-UHFFFAOYSA-N

>  <FORMULA>  (6559) 
C16H20OSi2

>  <EXACT MASS>  (6559) 
284.10526832

>  <MW>  (6559) 
284

>  <ID>  (6559) 
JP001458

>  <CONTRIBUTOR>  (6559) 
University of Tokyo Team, {Faculty of Engineering, University of Tokyo

>  <COMMENT>  (6559) 
SMILES=c(c3)cc(c21)c(c3)[Si](C)(C)O[Si](C)(C)c(cccc2)1
InChI=InChI=1S/C16H20OSi2/c1-18(2)15-11-7-5-9-13(15)14-10-6-8-12-16(14)19(3,4)17-18/h5-12H,1-4H3
computed SMILES=O1[Si](C=2C=CC=CC2C=3C=CC=CC3[Si]1(C)C)(C)C
accession=JP001458
date=2016.01.19 (Created 2008.10.21, modified 2011.05.06)
author=MASS SPECTROSCOPY SOC. OF JAPAN (MSSJ)
license=CC BY-NC-SA
exact mass=284.10527
ionization energy=70 eV
ion type=[M]+*
computed spectral entropy=2.1840496199736927
computed normalized entropy=0.6785131638506497
SPLASH=splash10-014i-0390000000-7e94ed6fb6f607641e5b
submitter=submitter = University of Tokyo Team (Faculty of Engineering, University of Tokyo)
MoNA Rating=3.75

>  <NUM PEAKS>  (6559) 
25

>  <MASS SPECTRAL PEAKS>  (6559) 
73 1.8
97 1.82
119 1.32
127 5.96
134 5.87
135 1.67
165 8.38
166 1.6
167 1.15
179 1.21
180 1.73
181 2.17
193 2.94
195 20.43
196 4.46
197 1.48
209 1.63
253 1.5
269 99.99
270 29.02
271 10.83
272 1.88
284 19.73
285 5.49
286 1.97

$$$$

     RDKit          2D

 18 20  0  0  0  0  0  0  0  0999 V2000
    0.1107    3.9584    0.0000 C   0  0  0  0  0  0  0  0  0  0  0  0
   -2.0077    4.0691    0.0000 C   0  0  0  0  0  0  0  0  0  0  0  0
   -2.1184    1.9507    0.0000 C   0  0  0  0  0  0  0  0  0  0  0  0
    1.0039    2.9546    0.0000 C   0  0  0  0  0  0  0  0  0  0  0  0
    3.2200   -1.2700    0.0000 C   0  0  0  0  0  0  0  0  0  0  0  0
   -3.2200   -1.2700    0.0000 C   0  0  0  0  0  0  0  0  0  0  0  0
    3.6900    0.1600    0.0000 C   0  0  0  0  0  0  0  0  0  0  0  0
   -3.6800    0.1600    0.0000 C   0  0  0  0  0  0  0  0  0  0  0  0
    1.7500   -1.5800    0.0000 C   0  0  0  0  0  0  0  0  0  0  0  0
   -1.7500   -1.5800    0.0000 C   0  0  0  0  0  0  0  0  0  0  0  0
    2.6800    1.2700    0.0000 C   0  0  0  0  0  0  0  0  0  0  0  0
   -2.6800    1.2700    0.0000 C   0  0  0  0  0  0  0  0  0  0  0  0
    0.7500   -0.4700    0.0000 C   0  0  0  0  0  0  0  0  0  0  0  0
   -0.7500   -0.4700    0.0000 C   0  0  0  0  0  0  0  0  0  0  0  0
    1.2100    0.9600    0.0000 C   0  0  0  0  0  0  0  0  0  0  0  0
   -1.2100    0.9600    0.0000 C   0  0  0  0  0  0  0  0  0  0  0  0
   -1.0039    2.9546    0.0000 Si  0  0  0  0  0  4  0  0  0  0  0  0
   -0.0000    1.8400    0.0000 Si  0  0  0  0  0  4  0  0  0  0  0  0
  7  5  2  0
  8  6  2  0
  9  5  1  0
 10  6  1  0
 11  7  1  0
 12  8  1  0
 13  9  2  0
 14 10  2  0
 14 13  1  0
 15 11  2  0
 15 13  1  0
 16 12  2  0
 16 14  1  0
 17  1  1  0
 17  2  1  0
 17  3  1  0
 18  4  1  0
 18 15  1  0
 18 16  1  0
 18 17  1  0
M  END
>  <NAME>  (6560) 
9-METHYL-9-TRIMETHYLSILYL-9-SILAFLUORENE

>  <SYNONYMS>  (6560) 


>  <SPECTRUM TYPE>  (6560) 
MS1

>  <INSTRUMENT TYPE>  (6560) 
EI-B

>  <INSTRUMENT>  (6560) 
JEOL JMS-D-3000

>  <ION MODE>  (6560) 
P

>  <INCHIKEY>  (6560) 
KYDKAYOCFULJKS-UHFFFAOYSA-N

>  <FORMULA>  (6560) 
C16H20Si2

>  <EXACT MASS>  (6560) 
268.1103537

>  <MW>  (6560) 
268

>  <ID>  (6560) 
JP001457

>  <CONTRIBUTOR>  (6560) 
University of Tokyo Team, {Faculty of Engineering, University of Tokyo

>  <COMMENT>  (6560) 
SMILES=c(c3)cc(c21)c(c3)[Si](C)([Si](C)(C)C)c(cccc2)1
InChI=InChI=1S/C16H20Si2/c1-17(2,3)18(4)15-11-7-5-9-13(15)14-10-6-8-12-16(14)18/h5-12H,1-4H3
computed SMILES=C=1C=CC2=C(C1)C=3C=CC=CC3[Si]2(C)[Si](C)(C)C
accession=JP001457
date=2016.01.19 (Created 2008.10.21, modified 2011.05.06)
author=MASS SPECTROSCOPY SOC. OF JAPAN (MSSJ)
license=CC BY-NC-SA
exact mass=268.11035
ionization energy=70 eV
ion type=[M]+*
computed spectral entropy=2.418707615208098
computed normalized entropy=0.7111341518280491
SPLASH=splash10-0002-3930000000-bc92388fdfed2681bed8
submitter=submitter = University of Tokyo Team (Faculty of Engineering, University of Tokyo)
MoNA Rating=3.75

>  <NUM PEAKS>  (6560) 
30

>  <MASS SPECTRAL PEAKS>  (6560) 
43 1.81
44 2.74
45 5.54
53 1.65
73 43.1
74 3.85
75 2.58
77 1.03
78 2.21
153 1.57
154 1.56
165 13.42
166 2.46
167 2.14
168 1
169 1.17
179 2.56
180 4.81
181 2.19
193 4.91
194 1.71
195 99.99
196 19.62
197 5.39
253 12.64
254 3.24
255 1.31
268 30.87
269 8.88
270 3.39

$$$$

     RDKit          2D

 18 20  0  0  0  0  0  0  0  0999 V2000
    2.2727   -2.9596    0.0000 C   0  0  0  0  0  0  0  0  0  0  0  0
    3.2372   -1.2897    0.0000 C   0  0  0  0  0  0  0  0  0  0  0  0
   -0.5066   -3.4470    0.0000 C   0  0  0  0  0  0  0  0  0  0  0  0
    1.4228   -3.4502    0.0000 C   0  0  0  0  0  0  0  0  0  0  0  0
    1.7600    2.9500    0.0000 C   0  0  0  0  0  0  0  0  0  0  0  0
   -3.4300   -0.0500    0.0000 C   0  0  0  0  0  0  0  0  0  0  0  0
    3.0600    2.2000    0.0000 C   0  0  0  0  0  0  0  0  0  0  0  0
   -3.4300   -1.5500    0.0000 C   0  0  0  0  0  0  0  0  0  0  0  0
    0.4600    2.2000    0.0000 C   0  0  0  0  0  0  0  0  0  0  0  0
   -2.1300    0.7000    0.0000 C   0  0  0  0  0  0  0  0  0  0  0  0
    3.0600    0.7000    0.0000 C   0  0  0  0  0  0  0  0  0  0  0  0
   -2.1300   -2.3000    0.0000 C   0  0  0  0  0  0  0  0  0  0  0  0
    0.4600    0.7000    0.0000 C   0  0  0  0  0  0  0  0  0  0  0  0
   -0.8300   -0.0500    0.0000 C   0  0  0  0  0  0  0  0  0  0  0  0
    1.7600   -0.0500    0.0000 C   0  0  0  0  0  0  0  0  0  0  0  0
   -0.8300   -1.5500    0.0000 C   0  0  0  0  0  0  0  0  0  0  0  0
    1.7600   -1.5500    0.0000 Si  0  0  0  0  0  4  0  0  0  0  0  0
    0.4600   -2.3000    0.0000 Si  0  0  0  0  0  4  0  0  0  0  0  0
  7  5  2  0
  8  6  2  0
  9  5  1  0
 10  6  1  0
 11  7  1  0
 12  8  1  0
 13  9  2  0
 14 10  2  0
 14 13  1  0
 15 11  2  0
 15 13  1  0
 16 12  2  0
 16 14  1  0
 17  1  1  0
 17  2  1  0
 17 15  1  0
 18  3  1  0
 18  4  1  0
 18 16  1  0
 18 17  1  0
M  END
>  <NAME>  (6561) 
DIBENZO(C,E)-1,1,2,2-TETRAMETHYL-1,2-DISILACYCLOHEXA-3,5-DIENE

>  <SYNONYMS>  (6561) 


>  <SPECTRUM TYPE>  (6561) 
MS1

>  <INSTRUMENT TYPE>  (6561) 
EI-B

>  <INSTRUMENT>  (6561) 
JEOL JMS-D-3000

>  <ION MODE>  (6561) 
P

>  <INCHIKEY>  (6561) 
QHXSSKNXFGRFAI-UHFFFAOYSA-N

>  <FORMULA>  (6561) 
C16H20Si2

>  <EXACT MASS>  (6561) 
268.1103537

>  <MW>  (6561) 
268

>  <ID>  (6561) 
JP001456

>  <CONTRIBUTOR>  (6561) 
University of Tokyo Team, {Faculty of Engineering, University of Tokyo

>  <COMMENT>  (6561) 
SMILES=c(c3)cc(c21)c(c3)[Si](C)(C)[Si](C)(C)c(cccc2)1
cas=85590-07-4
InChI=InChI=1S/C16H20Si2/c1-17(2)15-11-7-5-9-13(15)14-10-6-8-12-16(14)18(17,3)4/h5-12H,1-4H3
computed SMILES=C=1C=CC2=C(C1)C=3C=CC=CC3[Si](C)(C)[Si]2(C)C
accession=JP001456
date=2016.01.19 (Created 2008.10.21, modified 2011.05.06)
author=MASS SPECTROSCOPY SOC. OF JAPAN (MSSJ)
license=CC BY-NC-SA
exact mass=268.11035
ionization energy=70 eV
ion type=[M]+*
computed spectral entropy=2.4018207360984216
computed normalized entropy=0.7132788021502908
SPLASH=splash10-0002-3940000000-cc5904c6de4ab9a1386c
submitter=submitter = University of Tokyo Team (Faculty of Engineering, University of Tokyo)
MoNA Rating=3.75

>  <NUM PEAKS>  (6561) 
29

>  <MASS SPECTRAL PEAKS>  (6561) 
43 4.84
45 2.84
53 1.86
58 4.11
59 1.25
73 35.43
74 2.91
75 1.29
153 1.16
165 12.84
166 2.15
167 2.02
179 1.88
180 3.69
181 2.19
193 4.65
194 1.54
195 99.99
196 19.78
197 5.84
237 1.16
251 1
253 17.94
254 4.9
255 1.86
267 1.16
268 30.37
269 8.67
270 3.35

$$$$

     RDKit          2D

 15 17  0  0  0  0  0  0  0  0999 V2000
    1.0039    2.9546    0.0000 C   0  0  0  0  0  0  0  0  0  0  0  0
   -1.0039    2.9546    0.0000 C   0  0  0  0  0  0  0  0  0  0  0  0
    3.2200   -1.2700    0.0000 C   0  0  0  0  0  0  0  0  0  0  0  0
   -3.2200   -1.2700    0.0000 C   0  0  0  0  0  0  0  0  0  0  0  0
    3.6900    0.1600    0.0000 C   0  0  0  0  0  0  0  0  0  0  0  0
   -3.6800    0.1600    0.0000 C   0  0  0  0  0  0  0  0  0  0  0  0
    1.7500   -1.5800    0.0000 C   0  0  0  0  0  0  0  0  0  0  0  0
   -1.7500   -1.5800    0.0000 C   0  0  0  0  0  0  0  0  0  0  0  0
    2.6800    1.2700    0.0000 C   0  0  0  0  0  0  0  0  0  0  0  0
   -2.6800    1.2700    0.0000 C   0  0  0  0  0  0  0  0  0  0  0  0
    0.7500   -0.4700    0.0000 C   0  0  0  0  0  0  0  0  0  0  0  0
   -0.7500   -0.4700    0.0000 C   0  0  0  0  0  0  0  0  0  0  0  0
    1.2100    0.9600    0.0000 C   0  0  0  0  0  0  0  0  0  0  0  0
   -1.2100    0.9600    0.0000 C   0  0  0  0  0  0  0  0  0  0  0  0
   -0.0000    1.8400    0.0000 Si  0  0  0  0  0  4  0  0  0  0  0  0
  5  3  2  0
  6  4  2  0
  7  3  1  0
  8  4  1  0
  9  5  1  0
 10  6  1  0
 11  7  2  0
 12  8  2  0
 12 11  1  0
 13  9  2  0
 13 11  1  0
 14 10  2  0
 14 12  1  0
 15  1  1  0
 15  2  1  0
 15 13  1  0
 15 14  1  0
M  END
>  <NAME>  (6562) 
9,9-DIMETHYL-9-SILAFLUORENE

>  <SYNONYMS>  (6562) 


>  <SPECTRUM TYPE>  (6562) 
MS1

>  <INSTRUMENT TYPE>  (6562) 
EI-B

>  <INSTRUMENT>  (6562) 
JEOL JMS-D-3000

>  <ION MODE>  (6562) 
P

>  <INCHIKEY>  (6562) 
YJQFTKVGILQPMC-UHFFFAOYSA-N

>  <FORMULA>  (6562) 
C14H14Si

>  <EXACT MASS>  (6562) 
210.086476978

>  <MW>  (6562) 
210

>  <ID>  (6562) 
JP001455

>  <CONTRIBUTOR>  (6562) 
University of Tokyo Team, {Faculty of Engineering, University of Tokyo

>  <COMMENT>  (6562) 
SMILES=c(c3)cc(c21)c(c3)[Si](C)(C)c(cccc2)1
cas=13688-68-1
InChI=InChI=1S/C14H14Si/c1-15(2)13-9-5-3-7-11(13)12-8-4-6-10-14(12)15/h3-10H,1-2H3
computed SMILES=C=1C=CC2=C(C1)C=3C=CC=CC3[Si]2(C)C
accession=JP001455
date=2016.01.19 (Created 2008.10.21, modified 2011.05.06)
author=MASS SPECTROSCOPY SOC. OF JAPAN (MSSJ)
license=CC BY-NC-SA
exact mass=210.08648
ionization energy=70 eV
ion type=[M]+*
computed spectral entropy=2.473477895120933
computed normalized entropy=0.7074138555798016
SPLASH=splash10-0002-1920000000-480816ca4b8a4b3bbaf6
submitter=submitter = University of Tokyo Team (Faculty of Engineering, University of Tokyo)
MoNA Rating=3.75

>  <NUM PEAKS>  (6562) 
33

>  <MASS SPECTRAL PEAKS>  (6562) 
43 2.33
53 4.65
77 2.03
78 1.02
91 1.41
97 18.89
98 3.84
103 1.5
104 4.29
105 4.16
115 1.11
129 1.1
152 1.09
153 2.53
154 1.77
155 1.01
165 20.09
166 3.76
167 3.82
169 1.28
179 3.87
180 4.48
181 2.63
191 1.74
192 1.2
193 6.98
194 2.3
195 99.99
196 19.63
197 5.96
210 45.1
211 8.63
212 2.15

$$$$

     RDKit          2D

 18 17  0  0  0  0  0  0  0  0999 V2000
   -4.5883    4.5000    0.0000 C   0  0  0  0  0  0  0  0  0  0  0  0
   -3.2893    6.7500    0.0000 C   0  0  0  0  0  0  0  0  0  0  0  0
   -4.4316    3.6114    0.0000 C   0  0  0  0  0  0  0  0  0  0  0  0
   -2.4414    1.9414    0.0000 C   0  0  0  0  0  0  0  0  0  0  0  0
    1.9069    2.2500    0.0000 C   0  0  0  0  0  0  0  0  0  0  0  0
   -0.6912    2.2500    0.0000 C   0  0  0  0  0  0  0  0  0  0  0  0
    2.5981    6.1700    0.0000 C   0  0  0  0  0  0  0  0  0  0  0  0
    0.1567    7.0586    0.0000 C   0  0  0  0  0  0  0  0  0  0  0  0
   -0.6912    6.7500    0.0000 C   0  0  0  0  0  0  0  0  0  0  0  0
   -1.0261    3.3509    0.0000 C   0  0  0  0  0  0  0  0  0  0  0  0
    2.0850    4.2395    0.0000 C   0  0  0  0  0  0  0  0  0  0  0  0
   -3.2893    5.2500    0.0000 C   0  0  0  0  0  0  0  0  0  0  0  0
   -2.9544    3.3509    0.0000 C   0  0  0  0  0  0  0  0  0  0  0  0
    0.6078    3.0000    0.0000 C   0  0  0  0  0  0  0  0  0  0  0  0
    1.1209    5.9095    0.0000 C   0  0  0  0  0  0  0  0  0  0  0  0
   -0.6912    5.2500    0.0000 N   0  0  0  0  0  0  0  0  0  0  0  0
   -1.9902    4.5000    0.0000 Si  0  0  0  0  0  4  0  0  0  0  0  0
    0.6078    4.5000    0.0000 Si  0  0  0  0  0  4  0  0  0  0  0  0
 12  1  1  0
 12  2  1  0
 13  3  1  0
 13  4  1  0
 14  5  1  0
 14  6  1  0
 15  7  1  0
 15  8  1  0
 16  9  1  0
 17 10  1  0
 17 12  1  0
 17 13  1  0
 17 16  1  0
 18 11  1  0
 18 14  1  0
 18 15  1  0
 18 16  1  0
M  END
>  <NAME>  (6563) 
1,1,3,3-TETRA-ISOPROPYL-1,2,3-TRIMETHYLDISILAZANE

>  <SYNONYMS>  (6563) 


>  <SPECTRUM TYPE>  (6563) 
MS1

>  <INSTRUMENT TYPE>  (6563) 
EI-B

>  <INSTRUMENT>  (6563) 
JEOL JMS-D-3000

>  <ION MODE>  (6563) 
P

>  <INCHIKEY>  (6563) 
PXYIHSZXKDOWDJ-UHFFFAOYSA-N

>  <FORMULA>  (6563) 
C15H37NSi2

>  <EXACT MASS>  (6563) 
287.246453244

>  <MW>  (6563) 
287

>  <ID>  (6563) 
JP001454

>  <CONTRIBUTOR>  (6563) 
University of Tokyo Team, {Faculty of Engineering, University of Tokyo

>  <COMMENT>  (6563) 
SMILES=CC(C)[Si](C)(C(C)C)N(C)[Si](C)(C(C)C)C(C)C
InChI=InChI=1S/C15H37NSi2/c1-12(2)17(10,13(3)4)16(9)18(11,14(5)6)15(7)8/h12-15H,1-11H3
computed SMILES=N(C)([Si](C)(C(C)C)C(C)C)[Si](C)(C(C)C)C(C)C
accession=JP001454
date=2016.01.19 (Created 2008.10.21, modified 2011.05.06)
author=MASS SPECTROSCOPY SOC. OF JAPAN (MSSJ)
license=CC BY-NC-SA
exact mass=287.24645
ionization energy=70 eV
ion type=[M]+*
computed spectral entropy=3.469992258812664
computed normalized entropy=0.7964710052586434
SPLASH=splash10-0zml-8790000000-edb1d304123523cebd45
submitter=submitter = University of Tokyo Team (Faculty of Engineering, University of Tokyo)
MoNA Rating=3.75

>  <NUM PEAKS>  (6563) 
78

>  <MASS SPECTRAL PEAKS>  (6563) 
42 8.73
43 8.57
45 14.51
58 4.82
59 70.08
60 5.34
61 3.45
64 1.87
65 6.09
71 3.41
72 11.71
73 61.61
74 7.12
75 5.67
80 1.56
85 5.52
86 13.01
87 8.59
88 6.68
89 3.23
98 1.11
99 1.92
100 5.46
101 8.64
102 3.74
103 6.44
104 1.61
114 7.03
115 2.64
116 16.88
117 3.89
118 15.08
119 2.53
120 1.28
128 1.04
129 2.73
130 5.37
131 3.12
132 22.39
133 3.59
134 2.03
135 2.38
140 1.1
142 4.11
143 1.08
144 3.92
145 1.41
146 5.78
156 1.3
158 13.93
159 4.99
160 52.44
161 9.04
162 4.49
172 1.76
174 11.65
175 1.7
176 1.15
186 1.72
187 1.32
188 1.19
200 4.82
202 93.61
203 19.45
204 8.53
205 1.39
216 1.46
217 4
218 1.13
228 1.08
230 1.61
244 99.99
245 22.92
246 9.32
247 1.74
272 1.17
275 1.7
287 1.54

$$$$

     RDKit          2D

 15 15  0  0  0  0  0  0  0  0999 V2000
   -2.5476    4.3306    0.0000 C   0  0  0  0  0  0  0  0  0  0  0  0
   -4.5966    3.7816    0.0000 C   0  0  0  0  0  0  0  0  0  0  0  0
   -4.0476    1.7326    0.0000 C   0  0  0  0  0  0  0  0  0  0  0  0
   -0.6995    4.5316    0.0000 C   0  0  0  0  0  0  0  0  0  0  0  0
   -2.9627    1.1325    0.0000 C   0  0  0  0  0  0  0  0  0  0  0  0
   -1.0344    1.1325    0.0000 C   0  0  0  0  0  0  0  0  0  0  0  0
    3.1976    0.7816    0.0000 C   0  0  0  0  0  0  0  0  0  0  0  0
    1.8981    0.0308    0.0000 C   0  0  0  0  0  0  0  0  0  0  0  0
    3.1981    2.2824    0.0000 C   0  0  0  0  0  0  0  0  0  0  0  0
    0.5990    0.7808    0.0000 C   0  0  0  0  0  0  0  0  0  0  0  0
    1.8990    3.0324    0.0000 C   0  0  0  0  0  0  0  0  0  0  0  0
    0.5995    2.2816    0.0000 C   0  0  0  0  0  0  0  0  0  0  0  0
   -3.2976    3.0316    0.0000 C   0  0  0  0  0  0  0  0  0  0  0  0
   -0.6995    3.0316    0.0000 N   0  0  0  0  0  0  0  0  0  0  0  0
   -1.9986    2.2816    0.0000 Si  0  0  0  0  0  4  0  0  0  0  0  0
  8  7  2  0
  9  7  1  0
 10  8  1  0
 11  9  2  0
 12 10  2  0
 12 11  1  0
 13  1  1  0
 13  2  1  0
 13  3  1  0
 14  4  1  0
 14 12  1  0
 15  5  1  0
 15  6  1  0
 15 13  1  0
 15 14  1  0
M  END
>  <NAME>  (6564) 
N-METHYL-N-(TERT-BUTYLDIMETHYLSILYL)ANILINE

>  <SYNONYMS>  (6564) 


>  <SPECTRUM TYPE>  (6564) 
MS1

>  <INSTRUMENT TYPE>  (6564) 
EI-B

>  <INSTRUMENT>  (6564) 
JEOL JMS-D-3000

>  <ION MODE>  (6564) 
P

>  <INCHIKEY>  (6564) 
GRHVMNXJECNYQT-UHFFFAOYSA-N

>  <FORMULA>  (6564) 
C13H23NSi

>  <EXACT MASS>  (6564) 
221.159976266

>  <MW>  (6564) 
221

>  <ID>  (6564) 
JP001453

>  <CONTRIBUTOR>  (6564) 
University of Tokyo Team, {Faculty of Engineering, University of Tokyo

>  <COMMENT>  (6564) 
SMILES=c(c1)ccc(c1)N(C)[Si](C)(C)C(C)(C)C
InChI=InChI=1S/C13H23NSi/c1-13(2,3)15(5,6)14(4)12-10-8-7-9-11-12/h7-11H,1-6H3
computed SMILES=C=1C=CC(=CC1)N(C)[Si](C)(C)C(C)(C)C
accession=JP001453
date=2016.01.19 (Created 2008.10.21, modified 2011.05.06)
author=MASS SPECTROSCOPY SOC. OF JAPAN (MSSJ)
license=CC BY-NC-SA
exact mass=221.15998
ionization energy=70 eV
ion type=[M]+*
computed spectral entropy=2.3538157243383977
computed normalized entropy=0.6731905145233483
SPLASH=splash10-03di-5900000000-0166276c09a798cac291
submitter=submitter = University of Tokyo Team (Faculty of Engineering, University of Tokyo)
MoNA Rating=3.75

>  <NUM PEAKS>  (6564) 
33

>  <MASS SPECTRAL PEAKS>  (6564) 
43 4.74
45 3.74
51 1.71
56 1.06
58 2.65
59 48.4
60 3.92
61 1.67
65 1.08
73 7.74
75 4.25
77 4.65
79 1.01
84 2.38
104 4.84
105 1.96
106 5.4
107 3.44
119 2.66
120 1.41
121 1
134 2.43
135 1.3
148 1.34
149 4.08
150 1.68
162 1.37
164 99.99
165 15.65
166 4.56
206 1.62
221 7.65
222 1.47

$$$$

     RDKit          2D

 15 15  0  0  0  0  0  0  0  0999 V2000
   -0.5490    4.6190    0.0000 C   0  0  0  0  0  0  0  0  0  0  0  0
   -2.5981    4.0700    0.0000 C   0  0  0  0  0  0  0  0  0  0  0  0
   -2.0490    2.0210    0.0000 C   0  0  0  0  0  0  0  0  0  0  0  0
    2.0490    2.0210    0.0000 C   0  0  0  0  0  0  0  0  0  0  0  0
    2.5981    4.0700    0.0000 C   0  0  0  0  0  0  0  0  0  0  0  0
    0.5490    4.6190    0.0000 C   0  0  0  0  0  0  0  0  0  0  0  0
   -0.0000   -1.9300    0.0000 C   0  0  0  0  0  0  0  0  0  0  0  0
   -1.3000   -1.1800    0.0000 C   0  0  0  0  0  0  0  0  0  0  0  0
    1.3000   -1.1800    0.0000 C   0  0  0  0  0  0  0  0  0  0  0  0
   -1.3000    0.3200    0.0000 C   0  0  0  0  0  0  0  0  0  0  0  0
    1.3000    0.3200    0.0000 C   0  0  0  0  0  0  0  0  0  0  0  0
   -0.0000    1.0700    0.0000 C   0  0  0  0  0  0  0  0  0  0  0  0
    0.0000    2.5700    0.0000 N   0  0  0  0  0  0  0  0  0  0  0  0
   -1.2990    3.3200    0.0000 Si  0  0  0  0  0  4  0  0  0  0  0  0
    1.2990    3.3200    0.0000 Si  0  0  0  0  0  4  0  0  0  0  0  0
  8  7  2  0
  9  7  1  0
 10  8  1  0
 11  9  2  0
 12 10  2  0
 12 11  1  0
 13 12  1  0
 14  1  1  0
 14  2  1  0
 14  3  1  0
 14 13  1  0
 15  4  1  0
 15  5  1  0
 15  6  1  0
 15 13  1  0
M  END
>  <NAME>  (6565) 
1,1,1,3,3,3-HEXAMETHYL-2-PHENYLDISILAZANE

>  <SYNONYMS>  (6565) 


>  <SPECTRUM TYPE>  (6565) 
MS1

>  <INSTRUMENT TYPE>  (6565) 
EI-B

>  <INSTRUMENT>  (6565) 
JEOL JMS-D-3000

>  <ION MODE>  (6565) 
P

>  <INCHIKEY>  (6565) 
UUBHRQZKROMHOC-UHFFFAOYSA-N

>  <FORMULA>  (6565) 
C12H23NSi2

>  <EXACT MASS>  (6565) 
237.136902796

>  <MW>  (6565) 
237

>  <ID>  (6565) 
JP001452

>  <CONTRIBUTOR>  (6565) 
University of Tokyo Team, {Faculty of Engineering, University of Tokyo

>  <COMMENT>  (6565) 
SMILES=c(c1)ccc(c1)N([Si](C)(C)C)[Si](C)(C)C
InChI=InChI=1S/C12H23NSi2/c1-14(2,3)13(15(4,5)6)12-10-8-7-9-11-12/h7-11H,1-6H3
computed SMILES=C=1C=CC(=CC1)N([Si](C)(C)C)[Si](C)(C)C
accession=JP001452
date=2016.01.19 (Created 2008.10.21, modified 2011.05.06)
author=MASS SPECTROSCOPY SOC. OF JAPAN (MSSJ)
license=CC BY-NC-SA
exact mass=237.1369
ionization energy=70 eV
ion type=[M]+*
computed spectral entropy=2.147623851883376
computed normalized entropy=0.6757669839872554
SPLASH=splash10-00di-4090000000-272ab92718a4aa3d6e92
submitter=submitter = University of Tokyo Team (Faculty of Engineering, University of Tokyo)
MoNA Rating=3.75

>  <NUM PEAKS>  (6565) 
24

>  <MASS SPECTRAL PEAKS>  (6565) 
43 4.19
45 12.56
59 7.18
73 37.23
74 3
75 4.82
77 1.14
84 1.48
93 1.69
95 1.29
130 1.41
134 1.31
135 1
149 1.77
150 4.28
192 1.08
206 5.97
222 99.99
223 19.34
224 7.85
225 1.12
237 14.28
238 3.94
239 1.13

$$$$

     RDKit          2D

 10  9  0  0  0  0  0  0  0  0999 V2000
    1.4510    1.9868    0.0000 C   0  0  0  0  0  0  0  0  0  0  0  0
    0.1520    4.2368    0.0000 C   0  0  0  0  0  0  0  0  0  0  0  0
   -3.7452    1.9868    0.0000 C   0  0  0  0  0  0  0  0  0  0  0  0
   -2.4461    4.2368    0.0000 C   0  0  0  0  0  0  0  0  0  0  0  0
   -0.6959   -0.5718    0.0000 C   0  0  0  0  0  0  0  0  0  0  0  0
   -2.1113    0.8377    0.0000 C   0  0  0  0  0  0  0  0  0  0  0  0
    0.1520    2.7368    0.0000 C   0  0  0  0  0  0  0  0  0  0  0  0
   -2.4461    2.7368    0.0000 C   0  0  0  0  0  0  0  0  0  0  0  0
   -0.1829    0.8377    0.0000 N   0  0  0  0  0  0  0  0  0  0  0  0
   -1.1471    1.9868    0.0000 Si  0  0  0  0  0  4  0  0  0  0  0  0
  7  1  1  0
  7  2  1  0
  8  3  1  0
  8  4  1  0
  9  5  1  0
 10  6  1  0
 10  7  1  0
 10  8  1  0
 10  9  1  0
M  END
>  <NAME>  (6566) 
DI-ISOPROPYLMETHYL(METHYLAMINO)SILANE

>  <SYNONYMS>  (6566) 


>  <SPECTRUM TYPE>  (6566) 
MS1

>  <INSTRUMENT TYPE>  (6566) 
EI-B

>  <INSTRUMENT>  (6566) 
JEOL JMS-D-3000

>  <ION MODE>  (6566) 
P

>  <INCHIKEY>  (6566) 
AAXLXBDCHSZNOB-UHFFFAOYSA-N

>  <FORMULA>  (6566) 
C8H21NSi

>  <EXACT MASS>  (6566) 
159.144326202

>  <MW>  (6566) 
159

>  <ID>  (6566) 
JP001451

>  <CONTRIBUTOR>  (6566) 
University of Tokyo Team, {Faculty of Engineering, University of Tokyo

>  <COMMENT>  (6566) 
SMILES=CN[Si](C)(C(C)C)C(C)C
InChI=InChI=1S/C8H21NSi/c1-7(2)10(6,9-5)8(3)4/h7-9H,1-6H3
computed SMILES=N(C)[Si](C)(C(C)C)C(C)C
accession=JP001451
date=2016.01.19 (Created 2008.10.21, modified 2011.05.06)
author=MASS SPECTROSCOPY SOC. OF JAPAN (MSSJ)
license=CC BY-NC-SA
exact mass=159.14433
ionization energy=70 eV
ion type=[M]+*
computed spectral entropy=2.240551886962049
computed normalized entropy=0.6960665800314898
SPLASH=splash10-014r-9700000000-51aac1ff0b3d29f38ab9
submitter=submitter = University of Tokyo Team (Faculty of Engineering, University of Tokyo)
MoNA Rating=3.75

>  <NUM PEAKS>  (6566) 
25

>  <MASS SPECTRAL PEAKS>  (6566) 
42 3.85
43 3.48
45 6.42
58 8.33
59 14.8
60 2.36
61 2.1
72 1.15
73 6.23
74 24.6
75 8.75
76 1.55
85 2.43
88 64.03
89 5.19
90 2.31
100 1.34
101 1.22
102 1.17
103 3.3
116 99.99
117 10.86
118 4.16
144 1.62
159 4.76

$$$$

     RDKit          2D

  8  7  0  0  0  0  0  0  0  0999 V2000
   -2.2733    0.5625    0.0000 C   0  0  0  0  0  0  0  0  0  0  0  0
    0.3248    0.5625    0.0000 C   0  0  0  0  0  0  0  0  0  0  0  0
    0.3248    5.0625    0.0000 C   0  0  0  0  0  0  0  0  0  0  0  0
    1.6238    2.8125    0.0000 C   0  0  0  0  0  0  0  0  0  0  0  0
   -2.2733    3.5625    0.0000 C   0  0  0  0  0  0  0  0  0  0  0  0
   -0.9743    1.3125    0.0000 C   0  0  0  0  0  0  0  0  0  0  0  0
    0.3248    3.5625    0.0000 C   0  0  0  0  0  0  0  0  0  0  0  0
   -0.9743    2.8125    0.0000 Si  0  0  0  0  0  4  0  0  0  0  0  0
  6  1  1  0
  6  2  1  0
  7  3  1  0
  7  4  1  0
  8  5  1  0
  8  6  1  0
  8  7  1  0
M  END
>  <NAME>  (6567) 
DI-ISOPROPYLMETHYLSILANE

>  <SYNONYMS>  (6567) 


>  <SPECTRUM TYPE>  (6567) 
MS1

>  <INSTRUMENT TYPE>  (6567) 
EI-B

>  <INSTRUMENT>  (6567) 
JEOL JMS-D-3000

>  <ION MODE>  (6567) 
P

>  <INCHIKEY>  (6567) 
TYZIDFVXYCLNGN-UHFFFAOYSA-N

>  <FORMULA>  (6567) 
C7H18Si

>  <EXACT MASS>  (6567) 
130.117777106

>  <MW>  (6567) 
130

>  <ID>  (6567) 
JP001450

>  <CONTRIBUTOR>  (6567) 
University of Tokyo Team, {Faculty of Engineering, University of Tokyo

>  <COMMENT>  (6567) 
SMILES=CC(C)[SiH](C)C(C)C
InChI=InChI=1S/C7H18Si/c1-6(2)8(5)7(3)4/h6-8H,1-5H3
computed SMILES=CC(C)[SiH](C)C(C)C
accession=JP001450
date=2016.01.19 (Created 2008.10.21, modified 2011.05.06)
author=MASS SPECTROSCOPY SOC. OF JAPAN (MSSJ)
license=CC BY-NC-SA
exact mass=130.11778
ionization energy=70 eV
ion type=[M]+*
computed spectral entropy=1.8491892022243743
computed normalized entropy=0.6669540229286308
SPLASH=splash10-0a4i-9000000000-63cf37bf603a52b2cd22
submitter=submitter = University of Tokyo Team (Faculty of Engineering, University of Tokyo)
MoNA Rating=3.75

>  <NUM PEAKS>  (6567) 
16

>  <MASS SPECTRAL PEAKS>  (6567) 
42 1.21
43 8.69
45 18.31
58 8.42
59 99.99
60 7.81
61 3.88
71 1.74
72 1.06
73 3.41
74 1.06
86 11.35
87 27.59
88 3.02
89 1.02
130 6.17

$$$$

     RDKit          2D

  9  8  0  0  0  0  0  0  0  0999 V2000
   -3.0565    2.7353    0.0000 C   0  0  0  0  0  0  0  0  0  0  0  0
   -1.7574    0.4853    0.0000 C   0  0  0  0  0  0  0  0  0  0  0  0
    2.1397    2.7353    0.0000 C   0  0  0  0  0  0  0  0  0  0  0  0
    0.8406    0.4853    0.0000 C   0  0  0  0  0  0  0  0  0  0  0  0
    0.5058    3.8844    0.0000 C   0  0  0  0  0  0  0  0  0  0  0  0
   -1.7574    1.9853    0.0000 C   0  0  0  0  0  0  0  0  0  0  0  0
    0.8406    1.9853    0.0000 C   0  0  0  0  0  0  0  0  0  0  0  0
   -1.4226    3.8844    0.0000 Cl  0  0  0  0  0  0  0  0  0  0  0  0
   -0.4584    2.7353    0.0000 Si  0  0  0  0  0  4  0  0  0  0  0  0
  6  1  1  0
  6  2  1  0
  7  3  1  0
  7  4  1  0
  9  5  1  0
  9  6  1  0
  9  7  1  0
  9  8  1  0
M  END
>  <NAME>  (6568) 
DI-ISOPROPYLMETHYLCHLOROSILANE

>  <SYNONYMS>  (6568) 


>  <SPECTRUM TYPE>  (6568) 
MS1

>  <INSTRUMENT TYPE>  (6568) 
EI-B

>  <INSTRUMENT>  (6568) 
JEOL JMS-D-3000

>  <ION MODE>  (6568) 
P

>  <INCHIKEY>  (6568) 
XOLPGSHGGPYYQX-UHFFFAOYSA-N

>  <FORMULA>  (6568) 
C7H17ClSi

>  <EXACT MASS>  (6568) 
164.078804754

>  <MW>  (6568) 
164

>  <ID>  (6568) 
JP001449

>  <CONTRIBUTOR>  (6568) 
University of Tokyo Team, {Faculty of Engineering, University of Tokyo

>  <COMMENT>  (6568) 
SMILES=CC(C)[Si](C)(Cl)C(C)C
InChI=InChI=1S/C7H17ClSi/c1-6(2)9(5,8)7(3)4/h6-7H,1-5H3
computed SMILES=Cl[Si](C)(C(C)C)C(C)C
accession=JP001449
date=2016.01.19 (Created 2008.10.21, modified 2011.05.06)
author=MASS SPECTROSCOPY SOC. OF JAPAN (MSSJ)
license=CC BY-NC-SA
exact mass=164.0788
ionization energy=70 eV
ion type=[M]+*
computed spectral entropy=2.3472969803553876
computed normalized entropy=0.704427646378754
SPLASH=splash10-0006-9200000000-156500588f83745168cd
submitter=submitter = University of Tokyo Team (Faculty of Engineering, University of Tokyo)
MoNA Rating=3.75

>  <NUM PEAKS>  (6568) 
28

>  <MASS SPECTRAL PEAKS>  (6568) 
42 2.74
43 4.28
58 1.91
59 2.48
63 6.37
65 4.91
67 1.45
75 2.39
78 4.76
79 17.66
80 2.95
81 5.18
85 1.51
93 99.99
94 8.11
95 35.89
96 2.65
97 1.14
105 2.33
107 1.04
121 33.24
122 3.62
123 11.13
124 1.13
129 1.2
164 6.96
165 1
166 2.47

$$$$

     RDKit          2D

  8  8  0  0  0  0  0  0  0  0999 V2000
   -2.9228    0.8825    0.0000 C   0  0  0  0  0  0  0  0  0  0  0  0
    2.2733   -0.6175    0.0000 C   0  0  0  0  0  0  0  0  0  0  0  0
    0.9738   -1.3683    0.0000 C   0  0  0  0  0  0  0  0  0  0  0  0
    2.2738    0.8833    0.0000 C   0  0  0  0  0  0  0  0  0  0  0  0
   -0.3252   -0.6183    0.0000 C   0  0  0  0  0  0  0  0  0  0  0  0
    0.9748    1.6333    0.0000 C   0  0  0  0  0  0  0  0  0  0  0  0
   -0.3248    0.8825    0.0000 C   0  0  0  0  0  0  0  0  0  0  0  0
   -1.6238    1.6325    0.0000 N   0  0  0  0  0  0  0  0  0  0  0  0
  3  2  2  0
  4  2  1  0
  5  3  1  0
  6  4  2  0
  7  5  2  0
  7  6  1  0
  8  1  1  0
  8  7  1  0
M  END
>  <NAME>  (6569) 
N-METHYLANILINE

>  <SYNONYMS>  (6569) 


>  <SPECTRUM TYPE>  (6569) 
MS1

>  <INSTRUMENT TYPE>  (6569) 
EI-B

>  <INSTRUMENT>  (6569) 
JEOL JMS-D-3000

>  <ION MODE>  (6569) 
P

>  <INCHIKEY>  (6569) 
AFBPFSWMIHJQDM-UHFFFAOYSA-N

>  <FORMULA>  (6569) 
C7H9N

>  <EXACT MASS>  (6569) 
107.073499288

>  <MW>  (6569) 
107

>  <ID>  (6569) 
JP001448

>  <CONTRIBUTOR>  (6569) 
University of Tokyo Team, {Faculty of Engineering, University of Tokyo

>  <COMMENT>  (6569) 
SMILES=CNc(c1)cccc1
InChI=InChI=1S/C7H9N/c1-8-7-5-3-2-4-6-7/h2-6,8H,1H3
computed SMILES=C=1C=CC(=CC1)NC
accession=JP001448
date=2016.01.19 (Created 2008.10.21, modified 2011.05.06)
author=MASS SPECTROSCOPY SOC. OF JAPAN (MSSJ)
license=CC BY-NC-SA
exact mass=107.0735
ionization energy=70 eV
ion type=[M]+*
computed spectral entropy=2.337373345113131
computed normalized entropy=0.717404569765305
SPLASH=splash10-0a4i-5900000000-d3ed18531aab24e7eef1
submitter=submitter = University of Tokyo Team (Faculty of Engineering, University of Tokyo)
MoNA Rating=3.75

>  <NUM PEAKS>  (6569) 
26

>  <MASS SPECTRAL PEAKS>  (6569) 
50 6.51
51 16.23
52 6.74
53 6.44
54 1.19
62 1.51
63 4.09
64 3.49
65 9.9
66 2.31
74 2.67
75 1.74
76 2.5
77 33.58
78 9.38
79 16.18
80 1.57
91 1.95
92 2.24
93 1.02
103 1.26
104 10.3
105 9.28
106 99.99
107 81.08
108 6.53

$$$$

     RDKit          2D

 13 13  0  0  0  0  0  0  0  0999 V2000
    3.2476    1.1250    0.0000 C   0  0  0  0  0  0  0  0  0  0  0  0
   -1.9492    1.1256    0.0000 C   0  0  0  0  0  0  0  0  0  0  0  0
    0.6498   -3.3758    0.0000 C   0  0  0  0  0  0  0  0  0  0  0  0
   -2.6986   -0.5760    0.0000 C   0  0  0  0  0  0  0  0  0  0  0  0
    0.6490    1.1258    0.0000 C   0  0  0  0  0  0  0  0  0  0  0  0
    1.9490   -1.1258    0.0000 C   0  0  0  0  0  0  0  0  0  0  0  0
    1.9486    0.3750    0.0000 C   0  0  0  0  0  0  0  0  0  0  0  0
   -0.6500    0.3758    0.0000 C   0  0  0  0  0  0  0  0  0  0  0  0
    0.6500   -1.8758    0.0000 C   0  0  0  0  0  0  0  0  0  0  0  0
   -0.6495   -1.1250    0.0000 C   0  0  0  0  0  0  0  0  0  0  0  0
   -3.2476   -2.6250    0.0000 Cl  0  0  0  0  0  0  0  0  0  0  0  0
   -1.1986   -3.1740    0.0000 Cl  0  0  0  0  0  0  0  0  0  0  0  0
   -1.9486   -1.8750    0.0000 Si  0  0  0  0  0  4  0  0  0  0  0  0
  7  1  1  0
  7  5  2  0
  7  6  1  0
  8  2  1  0
  8  5  1  0
  9  3  1  0
  9  6  2  0
 10  8  2  0
 10  9  1  0
 13  4  1  0
 13 10  1  0
 13 11  1  0
 13 12  1  0
M  END
>  <NAME>  (6570) 
DICHLOROMESITYLMETHYLSILANE

>  <SYNONYMS>  (6570) 


>  <SPECTRUM TYPE>  (6570) 
MS1

>  <INSTRUMENT TYPE>  (6570) 
EI-B

>  <INSTRUMENT>  (6570) 
JEOL JMS-D-3000

>  <ION MODE>  (6570) 
P

>  <INCHIKEY>  (6570) 
PGCGLGVPISOWIV-UHFFFAOYSA-N

>  <FORMULA>  (6570) 
C10H14Cl2Si

>  <EXACT MASS>  (6570) 
232.024182338

>  <MW>  (6570) 
232

>  <ID>  (6570) 
JP001447

>  <CONTRIBUTOR>  (6570) 
University of Tokyo Team, {Faculty of Engineering, University of Tokyo

>  <COMMENT>  (6570) 
SMILES=Cc(c1)cc(C)c(c(C)1)[Si](C)(Cl)Cl
InChI=InChI=1S/C10H14Cl2Si/c1-7-5-8(2)10(9(3)6-7)13(4,11)12/h5-6H,1-4H3
computed SMILES=Cl[Si](Cl)(C=1C(=CC(=CC1C)C)C)C
accession=JP001447
date=2016.01.19 (Created 2008.10.21, modified 2011.05.06)
author=MASS SPECTROSCOPY SOC. OF JAPAN (MSSJ)
license=CC BY-NC-SA
exact mass=232.02418
ionization energy=70 eV
ion type=[M]+*
computed spectral entropy=3.443297418878469
computed normalized entropy=0.8160424531645116
SPLASH=splash10-0159-3920000000-a7b0540560e6fe1319a6
submitter=submitter = University of Tokyo Team (Faculty of Engineering, University of Tokyo)
MoNA Rating=3.75

>  <NUM PEAKS>  (6570) 
68

>  <MASS SPECTRAL PEAKS>  (6570) 
43 1.26
44 1.42
50 2.31
51 8.39
52 2.95
53 5.86
62 1.18
63 10.41
64 1.26
65 6.51
66 1.12
67 1.15
75 1.44
76 1.39
77 12.11
78 4.45
79 4.18
80 1.11
89 2.04
90 1.05
91 17.78
92 1.9
93 2.2
95 1.54
98 1.09
101 1.45
102 2.07
103 6.09
104 3.33
105 5.28
113 9.3
115 9.02
116 2.73
117 8.42
118 4.06
119 99.99
120 11.82
122 1.77
123 3.67
125 1.47
131 1.15
133 2.65
137 1.02
145 1.86
147 2.26
159 2.4
160 2.02
161 1.77
181 22.84
182 3.81
183 8.87
184 1.36
196 23.43
197 6.15
198 9.39
199 2.85
200 1.08
217 15.62
218 2.44
219 9.93
220 1.51
221 2.05
227 1.36
232 21.46
233 3.87
234 15.83
235 2.55
236 3.06

$$$$

     RDKit          2D

 13 12  0  0  0  0  0  0  0  0999 V2000
    2.0490    3.0000    0.0000 C   0  0  0  0  0  0  0  0  0  0  0  0
    2.0490   -0.0000    0.0000 C   0  0  0  0  0  0  0  0  0  0  0  0
    3.5490    1.5000    0.0000 C   0  0  0  0  0  0  0  0  0  0  0  0
   -1.5000    0.9510    0.0000 C   0  0  0  0  0  0  0  0  0  0  0  0
   -0.9510   -1.0981    0.0000 C   0  0  0  0  0  0  0  0  0  0  0  0
    1.0981   -0.5490    0.0000 C   0  0  0  0  0  0  0  0  0  0  0  0
    1.0981    3.5490    0.0000 C   0  0  0  0  0  0  0  0  0  0  0  0
   -0.9510    4.0981    0.0000 C   0  0  0  0  0  0  0  0  0  0  0  0
   -1.5000    2.0490    0.0000 C   0  0  0  0  0  0  0  0  0  0  0  0
    0.5490    1.5000    0.0000 C   0  0  0  0  0  0  0  0  0  0  0  0
    2.0490    1.5000    0.0000 Si  0  0  0  0  0  4  0  0  0  0  0  0
   -0.2010    0.2010    0.0000 Si  0  0  0  0  0  4  0  0  0  0  0  0
   -0.2010    2.7990    0.0000 Si  0  0  0  0  0  4  0  0  0  0  0  0
 11  1  1  0
 11  2  1  0
 11  3  1  0
 11 10  1  0
 12  4  1  0
 12  5  1  0
 12  6  1  0
 12 10  1  0
 13  7  1  0
 13  8  1  0
 13  9  1  0
 13 10  1  0
M  END
>  <NAME>  (6571) 
TRIS(TRIMETHYLSILYL)METHANE

>  <SYNONYMS>  (6571) 


>  <SPECTRUM TYPE>  (6571) 
MS1

>  <INSTRUMENT TYPE>  (6571) 
EI-B

>  <INSTRUMENT>  (6571) 
JEOL JMS-D-3000

>  <ION MODE>  (6571) 
P

>  <INCHIKEY>  (6571) 
BNZSPXKCIAAEJK-UHFFFAOYSA-N

>  <FORMULA>  (6571) 
C10H28Si3

>  <EXACT MASS>  (6571) 
232.14988048599997

>  <MW>  (6571) 
232

>  <ID>  (6571) 
JP001446

>  <CONTRIBUTOR>  (6571) 
University of Tokyo Team, {Faculty of Engineering, University of Tokyo

>  <COMMENT>  (6571) 
SMILES=C[Si](C)(C)C([Si](C)(C)C)[Si](C)(C)C
InChI=InChI=1S/C10H28Si3/c1-11(2,3)10(12(4,5)6)13(7,8)9/h10H,1-9H3
computed SMILES=C[Si](C)(C)C([Si](C)(C)C)[Si](C)(C)C
accession=JP001446
date=2016.01.19 (Created 2008.10.21, modified 2011.05.06)
author=MASS SPECTROSCOPY SOC. OF JAPAN (MSSJ)
license=CC BY-NC-SA
exact mass=232.14988
ionization energy=70 eV
ion type=[M]+*
computed spectral entropy=2.0416714580741897
computed normalized entropy=0.6815266758307644
SPLASH=splash10-014i-4290000000-6befbea884ab7b2f4b8f
submitter=submitter = University of Tokyo Team (Faculty of Engineering, University of Tokyo)
MoNA Rating=3.75

>  <NUM PEAKS>  (6571) 
20

>  <MASS SPECTRAL PEAKS>  (6571) 
43 2.41
44 1.46
45 8.71
59 10.45
73 34.71
74 2.48
75 1.13
85 1.69
99 1.29
113 2.37
115 1.16
117 1.25
129 24.86
130 4
131 3.03
201 3.51
217 99.99
218 25.24
219 11.54
220 2.03

$$$$

     RDKit          2D

 14 13  0  0  0  0  0  0  0  0999 V2000
    3.0269    1.4642    0.0000 C   0  0  0  0  0  0  0  0  0  0  0  0
    0.4288   -0.0358    0.0000 C   0  0  0  0  0  0  0  0  0  0  0  0
    2.4779   -0.5848    0.0000 C   0  0  0  0  0  0  0  0  0  0  0  0
   -1.0176    4.8630    0.0000 C   0  0  0  0  0  0  0  0  0  0  0  0
   -2.9220    2.7009    0.0000 C   0  0  0  0  0  0  0  0  0  0  0  0
   -1.7052    0.9632    0.0000 C   0  0  0  0  0  0  0  0  0  0  0  0
    2.1946    3.7509    0.0000 C   0  0  0  0  0  0  0  0  0  0  0  0
    0.4569    4.9677    0.0000 C   0  0  0  0  0  0  0  0  0  0  0  0
   -0.7826    3.4904    0.0000 C   0  0  0  0  0  0  0  0  0  0  0  0
    2.3874    2.5263    0.0000 Cl  0  0  0  0  0  0  0  0  0  0  0  0
    1.7279    0.7142    0.0000 Si  0  0  0  0  0  4  0  0  0  0  0  0
   -1.4447    2.4404    0.0000 Si  0  0  0  0  0  4  0  0  0  0  0  0
    0.7174    3.4904    0.0000 Si  0  0  0  0  0  4  0  0  0  0  0  0
    0.9779    2.0132    0.0000 Si  0  0  0  0  0  4  0  0  0  0  0  0
 11  1  1  0
 11  2  1  0
 11  3  1  0
 12  4  1  0
 12  5  1  0
 12  6  1  0
 13  7  1  0
 13  8  1  0
 13  9  1  0
 14 10  1  0
 14 11  1  0
 14 12  1  0
 14 13  1  0
M  END
>  <NAME>  (6572) 
CHLOROTRIS(TRIMETHYLSILYL)SILANE

>  <SYNONYMS>  (6572) 
2-CHLORO-1.1.1.3.3.3-HEXAMETHYL-2-TRIMETHYLSILYLTRISILANE

>  <SPECTRUM TYPE>  (6572) 
MS1

>  <INSTRUMENT TYPE>  (6572) 
EI-B

>  <INSTRUMENT>  (6572) 
JEOL JMS-D-3000

>  <ION MODE>  (6572) 
P

>  <INCHIKEY>  (6572) 
HCOROOJWVHFMRJ-UHFFFAOYSA-N

>  <FORMULA>  (6572) 
C9H27ClSi4

>  <EXACT MASS>  (6572) 
282.087834664

>  <MW>  (6572) 
282

>  <ID>  (6572) 
JP001445

>  <CONTRIBUTOR>  (6572) 
University of Tokyo Team, {Faculty of Engineering, University of Tokyo

>  <COMMENT>  (6572) 
SMILES=C[Si](C)(C)[Si](Cl)([Si](C)(C)C)[Si](C)(C)C
InChI=InChI=1S/C9H27ClSi4/c1-11(2,3)14(10,12(4,5)6)13(7,8)9/h1-9H3
computed SMILES=Cl[Si]([Si](C)(C)C)([Si](C)(C)C)[Si](C)(C)C
accession=JP001445
date=2016.01.19 (Created 2008.10.21, modified 2011.05.06)
author=MASS SPECTROSCOPY SOC. OF JAPAN (MSSJ)
license=CC BY-NC-SA
exact mass=282.08783
ionization energy=70 eV
ion type=[M]+*
computed spectral entropy=3.215448992418551
computed normalized entropy=0.7853391290237304
SPLASH=splash10-00di-4910000000-a2ccab1b10ac48b958ce
submitter=submitter = University of Tokyo Team (Faculty of Engineering, University of Tokyo)
MoNA Rating=3.75

>  <NUM PEAKS>  (6572) 
60

>  <MASS SPECTRAL PEAKS>  (6572) 
43 6.71
44 3.05
45 18.23
46 1.14
55 1.08
59 9.56
69 1.33
71 1.26
73 90.11
74 7.17
75 3.95
85 3
86 2.19
93 2.84
95 1.17
99 5.6
100 5.82
101 5.09
102 1.11
113 3.01
114 7.06
115 15.05
116 12.68
117 3.86
118 1.11
129 24.38
130 4.15
131 22.27
132 3.44
133 1.74
145 2.94
157 2.75
158 1.03
159 44.65
160 9.67
161 5.61
165 1.24
172 1.13
173 8.8
174 99.99
175 23.6
176 12.59
177 2.09
189 3.2
193 2.39
194 3.86
195 1.84
196 1.65
209 2.46
211 1.05
247 1
267 17.02
268 5.12
269 8.45
270 2.31
271 1.12
282 10.54
283 3.43
284 5.27
285 1.42

$$$$

     RDKit          2D

  9  8  0  0  0  0  0  0  0  0999 V2000
    2.0490    4.0981    0.0000 C   0  0  0  0  0  0  0  0  0  0  0  0
    2.0490    1.0981    0.0000 C   0  0  0  0  0  0  0  0  0  0  0  0
    3.5490    2.5981    0.0000 C   0  0  0  0  0  0  0  0  0  0  0  0
   -1.5000    2.0490    0.0000 C   0  0  0  0  0  0  0  0  0  0  0  0
   -0.9510    0.0000    0.0000 C   0  0  0  0  0  0  0  0  0  0  0  0
    1.0981    0.5490    0.0000 C   0  0  0  0  0  0  0  0  0  0  0  0
    0.5490    2.5981    0.0000 C   0  0  0  0  0  0  0  0  0  0  0  0
    2.0490    2.5981    0.0000 Si  0  0  0  0  0  4  0  0  0  0  0  0
   -0.2010    1.2990    0.0000 Si  0  0  0  0  0  4  0  0  0  0  0  0
  8  1  1  0
  8  2  1  0
  8  3  1  0
  8  7  1  0
  9  4  1  0
  9  5  1  0
  9  6  1  0
  9  7  1  0
M  END
>  <NAME>  (6573) 
BIS(TRIMETHYLSILYL)METHANE

>  <SYNONYMS>  (6573) 
1.1.1.3.3.3-HEXAMETHYLDISILMETHYLENE

>  <SPECTRUM TYPE>  (6573) 
MS1

>  <INSTRUMENT TYPE>  (6573) 
EI-B

>  <INSTRUMENT>  (6573) 
JEOL JMS-D-3000

>  <ION MODE>  (6573) 
P

>  <INCHIKEY>  (6573) 
GYIODRUWWNNGPI-UHFFFAOYSA-N

>  <FORMULA>  (6573) 
C7H20Si2

>  <EXACT MASS>  (6573) 
160.1103537

>  <MW>  (6573) 
160

>  <ID>  (6573) 
JP001444

>  <CONTRIBUTOR>  (6573) 
University of Tokyo Team, {Faculty of Engineering, University of Tokyo

>  <COMMENT>  (6573) 
SMILES=C[Si](C)(C)C[Si](C)(C)C
InChI=InChI=1S/C7H20Si2/c1-8(2,3)7-9(4,5)6/h7H2,1-6H3
computed SMILES=C[Si](C)(C)C[Si](C)(C)C
accession=JP001444
date=2016.01.19 (Created 2008.10.21, modified 2011.05.06)
author=MASS SPECTROSCOPY SOC. OF JAPAN (MSSJ)
license=CC BY-NC-SA
exact mass=160.11035
ionization energy=70 eV
ion type=[M]+*
computed spectral entropy=1.860166234986761
computed normalized entropy=0.6109878554147631
SPLASH=splash10-0002-5900000000-ff0b986feaf3c8fce20f
submitter=submitter = University of Tokyo Team (Faculty of Engineering, University of Tokyo)
MoNA Rating=3.75

>  <NUM PEAKS>  (6573) 
21

>  <MASS SPECTRAL PEAKS>  (6573) 
43 3.57
44 1.48
45 8.51
51 1.53
57 1.01
58 1.11
59 7.25
65 6.81
66 1.01
72 1.01
73 37.42
74 3.18
75 1.43
85 1.67
101 1.18
115 1.1
129 4.7
145 99.99
146 14.63
147 6.88
160 0.11

$$$$

     RDKit          2D

 10  9  0  0  0  0  0  0  0  0999 V2000
    1.1618   -0.2377    0.0000 C   0  0  0  0  0  0  0  0  0  0  0  0
   -0.3382    2.3603    0.0000 C   0  0  0  0  0  0  0  0  0  0  0  0
   -0.8873    0.3113    0.0000 C   0  0  0  0  0  0  0  0  0  0  0  0
    3.2108    3.3113    0.0000 C   0  0  0  0  0  0  0  0  0  0  0  0
    1.7108    4.8113    0.0000 C   0  0  0  0  0  0  0  0  0  0  0  0
    0.2108    3.3113    0.0000 C   0  0  0  0  0  0  0  0  0  0  0  0
    1.7108    1.8113    0.0000 C   0  0  0  0  0  0  0  0  0  0  0  0
    3.0099    1.0613    0.0000 Cl  0  0  0  0  0  0  0  0  0  0  0  0
    0.4118    1.0613    0.0000 Si  0  0  0  0  0  4  0  0  0  0  0  0
    1.7108    3.3113    0.0000 Si  0  0  0  0  0  4  0  0  0  0  0  0
  8  7  1  0
  9  1  1  0
  9  2  1  0
  9  3  1  0
  9  7  1  0
 10  4  1  0
 10  5  1  0
 10  6  1  0
 10  7  1  0
M  END
>  <NAME>  (6574) 
CHLOROBIS(TRIMETHYLSILYL)METHANE

>  <SYNONYMS>  (6574) 


>  <SPECTRUM TYPE>  (6574) 
MS1

>  <INSTRUMENT TYPE>  (6574) 
EI-B

>  <INSTRUMENT>  (6574) 
JEOL JMS-D-3000

>  <ION MODE>  (6574) 
P

>  <INCHIKEY>  (6574) 
XNJGZHVYPBNLEB-UHFFFAOYSA-N

>  <FORMULA>  (6574) 
C7H19ClSi2

>  <EXACT MASS>  (6574) 
194.071381348

>  <MW>  (6574) 
194

>  <ID>  (6574) 
JP001443

>  <CONTRIBUTOR>  (6574) 
University of Tokyo Team, {Faculty of Engineering, University of Tokyo

>  <COMMENT>  (6574) 
SMILES=C[Si](C)(C)C(Cl)[Si](C)(C)C
InChI=InChI=1S/C7H19ClSi2/c1-9(2,3)7(8)10(4,5)6/h7H,1-6H3
computed SMILES=ClC([Si](C)(C)C)[Si](C)(C)C
accession=JP001443
date=2016.01.19 (Created 2008.10.21, modified 2011.05.06)
author=MASS SPECTROSCOPY SOC. OF JAPAN (MSSJ)
license=CC BY-NC-SA
exact mass=194.07138
ionization energy=70 eV
ion type=[M]+*
computed spectral entropy=2.174801635103994
computed normalized entropy=0.6675068125589269
SPLASH=splash10-00di-9000000000-88350d0b0348d87bf766
submitter=submitter = University of Tokyo Team (Faculty of Engineering, University of Tokyo)
MoNA Rating=3.75

>  <NUM PEAKS>  (6574) 
26

>  <MASS SPECTRAL PEAKS>  (6574) 
43 6.18
44 1.97
45 8
55 1.24
58 2.13
59 21.74
60 1.46
65 1.75
71 1.53
72 1.55
73 99.99
74 8.51
75 3.66
85 39.38
86 7.65
87 2.67
93 4.56
95 1.57
106 4.95
108 1.78
129 1.19
151 1.15
179 7.1
180 1.23
181 2.91
194 1.5

$$$$

     RDKit          2D

 11 10  0  0  0  0  0  0  0  0999 V2000
    2.0490    4.0981    0.0000 C   0  0  0  0  0  0  0  0  0  0  0  0
    2.0490    1.0981    0.0000 C   0  0  0  0  0  0  0  0  0  0  0  0
    3.5490    2.5981    0.0000 C   0  0  0  0  0  0  0  0  0  0  0  0
   -1.5000    2.0490    0.0000 C   0  0  0  0  0  0  0  0  0  0  0  0
   -0.9510    0.0000    0.0000 C   0  0  0  0  0  0  0  0  0  0  0  0
    1.0981    0.5490    0.0000 C   0  0  0  0  0  0  0  0  0  0  0  0
    0.5490    2.5981    0.0000 C   0  0  0  0  0  0  0  0  0  0  0  0
    0.8095    4.0753    0.0000 Cl  0  0  0  0  0  0  0  0  0  0  0  0
   -0.8605    3.1111    0.0000 Cl  0  0  0  0  0  0  0  0  0  0  0  0
    2.0490    2.5981    0.0000 Si  0  0  0  0  0  4  0  0  0  0  0  0
   -0.2010    1.2990    0.0000 Si  0  0  0  0  0  4  0  0  0  0  0  0
  8  7  1  0
  9  7  1  0
 10  1  1  0
 10  2  1  0
 10  3  1  0
 10  7  1  0
 11  4  1  0
 11  5  1  0
 11  6  1  0
 11  7  1  0
M  END
>  <NAME>  (6575) 
DICHLOROBIS(TRIMETHYLSILYL)METHANE

>  <SYNONYMS>  (6575) 


>  <SPECTRUM TYPE>  (6575) 
MS1

>  <INSTRUMENT TYPE>  (6575) 
EI-B

>  <INSTRUMENT>  (6575) 
JEOL JMS-D-3000

>  <ION MODE>  (6575) 
P

>  <INCHIKEY>  (6575) 
WWPQQMDJOWANKG-UHFFFAOYSA-N

>  <FORMULA>  (6575) 
C7H18Cl2Si2

>  <EXACT MASS>  (6575) 
228.032408996

>  <MW>  (6575) 
228

>  <ID>  (6575) 
JP001442

>  <CONTRIBUTOR>  (6575) 
University of Tokyo Team, {Faculty of Engineering, University of Tokyo

>  <COMMENT>  (6575) 
SMILES=C[Si](C)(C)C(Cl)(Cl)[Si](C)(C)C
InChI=InChI=1S/C7H18Cl2Si2/c1-10(2,3)7(8,9)11(4,5)6/h1-6H3
computed SMILES=ClC(Cl)([Si](C)(C)C)[Si](C)(C)C
accession=JP001442
date=2016.01.19 (Created 2008.10.21, modified 2011.05.06)
author=MASS SPECTROSCOPY SOC. OF JAPAN (MSSJ)
license=CC BY-NC-SA
exact mass=228.03241
ionization energy=70 eV
ion type=[M]+*
computed spectral entropy=2.576183140740125
computed normalized entropy=0.7305501302991527
SPLASH=splash10-00dl-9100000000-fc82bfcb4c0120748e8c
submitter=submitter = University of Tokyo Team (Faculty of Engineering, University of Tokyo)
MoNA Rating=3.75

>  <NUM PEAKS>  (6575) 
34

>  <MASS SPECTRAL PEAKS>  (6575) 
43 10.49
44 2.55
45 12.92
53 1.14
55 1.97
58 2.74
59 25.98
60 1.79
63 3.03
65 5.43
67 1.91
69 1.07
73 99.99
74 8.29
75 3.57
78 2.71
79 6.76
80 1.33
81 2.52
83 2.65
85 47.32
86 3.98
87 1.63
92 1.21
93 47.62
94 3
95 12.46
105 23.87
106 1.99
107 8.16
119 1.22
120 1.02
228 1.59
230 1.19

$$$$

     RDKit          2D

  8  7  0  0  0  0  0  0  0  0999 V2000
    1.6740    0.1005    0.0000 C   0  0  0  0  0  0  0  0  0  0  0  0
   -0.9240    1.6005    0.0000 C   0  0  0  0  0  0  0  0  0  0  0  0
   -0.3750   -0.4486    0.0000 C   0  0  0  0  0  0  0  0  0  0  0  0
    2.4240    1.3995    0.0000 C   0  0  0  0  0  0  0  0  0  0  0  0
    1.8750    3.4486    0.0000 C   0  0  0  0  0  0  0  0  0  0  0  0
   -0.1740    2.8995    0.0000 Cl  0  0  0  0  0  0  0  0  0  0  0  0
    0.3750    0.8505    0.0000 Si  0  0  0  0  0  4  0  0  0  0  0  0
    1.1250    2.1495    0.0000 Si  0  0  0  0  0  4  0  0  0  0  0  0
  7  1  1  0
  7  2  1  0
  7  3  1  0
  8  4  1  0
  8  5  1  0
  8  6  1  0
  8  7  1  0
M  END
>  <NAME>  (6576) 
CHLOROPENTAMETHYLDISILANE

>  <SYNONYMS>  (6576) 


>  <SPECTRUM TYPE>  (6576) 
MS1

>  <INSTRUMENT TYPE>  (6576) 
EI-B

>  <INSTRUMENT>  (6576) 
JEOL JMS-DI-300

>  <ION MODE>  (6576) 
P

>  <INCHIKEY>  (6576) 
GJCAUTWJWBFMFU-UHFFFAOYSA-N

>  <FORMULA>  (6576) 
C5H15ClSi2

>  <EXACT MASS>  (6576) 
166.04008122

>  <MW>  (6576) 
166

>  <ID>  (6576) 
JP001441

>  <CONTRIBUTOR>  (6576) 
University of Tokyo Team, {Faculty of Engineering, University of Tokyo

>  <COMMENT>  (6576) 
SMILES=C[Si](C)(C)[Si](C)(C)Cl
InChI=InChI=1S/C5H15ClSi2/c1-7(2,3)8(4,5)6/h1-5H3
computed SMILES=Cl[Si](C)(C)[Si](C)(C)C
accession=JP001441
date=2016.01.19 (Created 2008.10.21, modified 2011.05.06)
author=MASS SPECTROSCOPY SOC. OF JAPAN (MSSJ)
license=CC BY-NC-SA
exact mass=166.04008
ionization energy=70 eV
ion type=[M]+*
computed spectral entropy=1.8495400776783466
computed normalized entropy=0.6173916454437173
SPLASH=splash10-00di-9000000000-813048c7382a20d37aff
submitter=submitter = University of Tokyo Team (Faculty of Engineering, University of Tokyo)
MoNA Rating=3.75

>  <NUM PEAKS>  (6576) 
20

>  <MASS SPECTRAL PEAKS>  (6576) 
43 7.5
44 6.77
45 8.74
55 1.4
58 3.45
59 2.37
63 1.81
65 2.75
69 1.2
72 3.02
73 99.99
74 8.74
75 3.92
93 3.86
95 1.39
131 4.79
151 4.13
153 1.36
166 4.41
168 1.71

$$$$

     RDKit          2D

 19 21  0  0  0  0  0  0  0  0999 V2000
    6.4971   -5.2506    0.0000 C   0  0  0  0  0  0  0  0  0  0  0  0
   -1.3000   -5.2519    0.0000 C   0  0  0  0  0  0  0  0  0  0  0  0
    2.5975    1.5012    0.0000 C   0  0  0  0  0  0  0  0  0  0  0  0
    5.1971   -6.0006    0.0000 C   0  0  0  0  0  0  0  0  0  0  0  0
    6.4971   -3.7506    0.0000 C   0  0  0  0  0  0  0  0  0  0  0  0
   -1.2995   -3.7510    0.0000 C   0  0  0  0  0  0  0  0  0  0  0  0
   -0.0010   -6.0019    0.0000 C   0  0  0  0  0  0  0  0  0  0  0  0
    3.8970    0.7504    0.0000 C   0  0  0  0  0  0  0  0  0  0  0  0
    1.2984    0.7512    0.0000 C   0  0  0  0  0  0  0  0  0  0  0  0
    3.8971   -5.2506    0.0000 C   0  0  0  0  0  0  0  0  0  0  0  0
    5.1971   -3.0006    0.0000 C   0  0  0  0  0  0  0  0  0  0  0  0
   -0.0000   -3.0002    0.0000 C   0  0  0  0  0  0  0  0  0  0  0  0
    1.2986   -5.2510    0.0000 C   0  0  0  0  0  0  0  0  0  0  0  0
    3.8975   -0.7504    0.0000 C   0  0  0  0  0  0  0  0  0  0  0  0
    1.2989   -0.7496    0.0000 C   0  0  0  0  0  0  0  0  0  0  0  0
    3.8971   -3.7506    0.0000 C   0  0  0  0  0  0  0  0  0  0  0  0
    1.2990   -3.7502    0.0000 C   0  0  0  0  0  0  0  0  0  0  0  0
    2.5984   -1.5004    0.0000 C   0  0  0  0  0  0  0  0  0  0  0  0
    2.5982   -3.0004    0.0000 Si  0  0  0  0  0  4  0  0  0  0  0  0
  4  1  2  0
  5  1  1  0
  6  2  2  0
  7  2  1  0
  8  3  2  0
  9  3  1  0
 10  4  1  0
 11  5  2  0
 12  6  1  0
 13  7  2  0
 14  8  1  0
 15  9  2  0
 16 10  2  0
 16 11  1  0
 17 12  2  0
 17 13  1  0
 18 14  2  0
 18 15  1  0
 19 16  1  0
 19 17  1  0
 19 18  1  0
M  END
>  <NAME>  (6577) 
TRIPHENYLSILANE

>  <SYNONYMS>  (6577) 


>  <SPECTRUM TYPE>  (6577) 
MS1

>  <INSTRUMENT TYPE>  (6577) 
EI-B

>  <INSTRUMENT>  (6577) 
JEOL JMS-D-3000

>  <ION MODE>  (6577) 
P

>  <INCHIKEY>  (6577) 
AKQNYQDSIDKVJZ-UHFFFAOYSA-N

>  <FORMULA>  (6577) 
C18H16Si

>  <EXACT MASS>  (6577) 
260.102127042

>  <MW>  (6577) 
260

>  <ID>  (6577) 
JP001440

>  <CONTRIBUTOR>  (6577) 
University of Tokyo Team, {Faculty of Engineering, University of Tokyo

>  <COMMENT>  (6577) 
SMILES=c(c3)ccc(c3)[SiH](c(c2)cccc2)c(c1)cccc1
InChI=InChI=1S/C18H16Si/c1-4-10-16(11-5-1)19(17-12-6-2-7-13-17)18-14-8-3-9-15-18/h1-15,19H
computed SMILES=C=1C=CC(=CC1)[SiH](C=2C=CC=CC2)C=3C=CC=CC3
accession=JP001440
date=2016.01.19 (Created 2008.10.21, modified 2011.05.06)
author=MASS SPECTROSCOPY SOC. OF JAPAN (MSSJ)
license=CC BY-NC-SA
exact mass=260.10213
ionization energy=70 eV
ion type=[M]+*
computed spectral entropy=2.1856950830258097
computed normalized entropy=0.6970815228814309
SPLASH=splash10-001i-0900000000-a701308cfbdd4e26e15c
submitter=submitter = University of Tokyo Team (Faculty of Engineering, University of Tokyo)
MoNA Rating=3.75

>  <NUM PEAKS>  (6577) 
23

>  <MASS SPECTRAL PEAKS>  (6577) 
51 1.53
53 6.22
77 1.57
78 2.94
79 4.54
91 1.67
103 2.51
104 1.13
105 23.62
106 3.33
107 1.13
129 2.07
154 1.06
155 3.87
179 1.35
180 12.52
181 50.82
182 99.99
183 24.48
184 5.95
259 6.33
260 11.8
261 3.11

$$$$

     RDKit          2D

 16 17  0  0  0  0  0  0  0  0999 V2000
    2.5987   -3.0002    0.0000 C   0  0  0  0  0  0  0  0  0  0  0  0
    5.1970   -1.5006    0.0000 C   0  0  0  0  0  0  0  0  0  0  0  0
   -1.3000    0.7500    0.0000 C   0  0  0  0  0  0  0  0  0  0  0  0
    3.8974    3.7512    0.0000 C   0  0  0  0  0  0  0  0  0  0  0  0
    0.0000    1.5000    0.0000 C   0  0  0  0  0  0  0  0  0  0  0  0
   -1.3000   -0.7500    0.0000 C   0  0  0  0  0  0  0  0  0  0  0  0
    5.1969    3.0004    0.0000 C   0  0  0  0  0  0  0  0  0  0  0  0
    2.5983    3.0012    0.0000 C   0  0  0  0  0  0  0  0  0  0  0  0
    1.3000    0.7500    0.0000 C   0  0  0  0  0  0  0  0  0  0  0  0
   -0.0000   -1.5000    0.0000 C   0  0  0  0  0  0  0  0  0  0  0  0
    5.1974    1.4996    0.0000 C   0  0  0  0  0  0  0  0  0  0  0  0
    2.5988    1.5004    0.0000 C   0  0  0  0  0  0  0  0  0  0  0  0
    1.3000   -0.7500    0.0000 C   0  0  0  0  0  0  0  0  0  0  0  0
    3.8983    0.7496    0.0000 C   0  0  0  0  0  0  0  0  0  0  0  0
    2.5989   -1.5002    0.0000 Si  0  0  0  0  0  4  0  0  0  0  0  0
    3.8981   -0.7504    0.0000 Si  0  0  0  0  0  4  0  0  0  0  0  0
  5  3  2  0
  6  3  1  0
  7  4  2  0
  8  4  1  0
  9  5  1  0
 10  6  2  0
 11  7  1  0
 12  8  2  0
 13  9  2  0
 13 10  1  0
 14 11  2  0
 14 12  1  0
 15  1  1  0
 15 13  1  0
 16  2  1  0
 16 14  1  0
 16 15  1  0
M  END
>  <NAME>  (6578) 
1.2-DIMETHYL-1.2-DIPHENYLDISILANE

>  <SYNONYMS>  (6578) 


>  <SPECTRUM TYPE>  (6578) 
MS1

>  <INSTRUMENT TYPE>  (6578) 
EI-B

>  <INSTRUMENT>  (6578) 
JEOL JMS-D-3000

>  <ION MODE>  (6578) 
P

>  <INCHIKEY>  (6578) 
XHYDSQBIDFZOGB-UHFFFAOYSA-N

>  <FORMULA>  (6578) 
C14H18Si2

>  <EXACT MASS>  (6578) 
242.094703636

>  <MW>  (6578) 
242

>  <ID>  (6578) 
JP001439

>  <CONTRIBUTOR>  (6578) 
University of Tokyo Team, {Faculty of Engineering, University of Tokyo

>  <COMMENT>  (6578) 
SMILES=c(c2)ccc(c2)[SiH](C)[SiH](C)c(c1)cccc1
InChI=InChI=1S/C14H18Si2/c1-15(13-9-5-3-6-10-13)16(2)14-11-7-4-8-12-14/h3-12,15-16H,1-2H3
computed SMILES=C=1C=CC(=CC1)[SiH](C)[SiH](C=2C=CC=CC2)C
accession=JP001439
date=2016.01.19 (Created 2008.10.21, modified 2011.05.06)
author=MASS SPECTROSCOPY SOC. OF JAPAN (MSSJ)
license=CC BY-NC-SA
exact mass=242.0947
ionization energy=70 eV
ion type=[M]+*
computed spectral entropy=2.5670537801635955
computed normalized entropy=0.7163499968189261
SPLASH=splash10-0002-1900000000-360cb1b516e549cdc9be
submitter=submitter = University of Tokyo Team (Faculty of Engineering, University of Tokyo)
MoNA Rating=3.75

>  <NUM PEAKS>  (6578) 
36

>  <MASS SPECTRAL PEAKS>  (6578) 
43 14.09
44 2.38
53 5.29
55 1.03
67 1.27
69 1.76
77 1.11
78 1.95
79 3.71
81 1.3
91 2.02
93 2.81
95 2.95
103 1.23
105 31.67
106 4.46
107 2.48
119 3.71
120 9.63
121 42.71
122 5.99
123 1.88
135 5.44
149 2.84
163 2.61
164 2.65
165 1.64
181 2.25
183 1.53
195 2.05
197 99.99
198 20.18
199 5.34
227 1.62
242 5.86
243 1.54

$$$$

     RDKit          2D

  7  6  0  0  0  0  0  0  0  0999 V2000
   -0.6495    3.3750    0.0000 C   0  0  0  0  0  0  0  0  0  0  0  0
    0.6495    2.6250    0.0000 C   0  0  0  0  0  0  0  0  0  0  0  0
   -1.9486    2.6250    0.0000 C   0  0  0  0  0  0  0  0  0  0  0  0
    1.9486    3.3750    0.0000 C   0  0  0  0  0  0  0  0  0  0  0  0
   -3.2476    3.3750    0.0000 C   0  0  0  0  0  0  0  0  0  0  0  0
    1.9486    4.8750    0.0000 I   0  0  0  0  0  0  0  0  0  0  0  0
   -3.2476    4.8750    0.0000 I   0  0  0  0  0  0  0  0  0  0  0  0
  2  1  1  0
  3  1  1  0
  2  4  2  0
  3  5  2  0
  6  4  1  0
  7  5  1  0
M  END
>  <NAME>  (6579) 
(1Z.4Z)-1.5-DIIODO-1.4-PENTADIENE

>  <SYNONYMS>  (6579) 


>  <SPECTRUM TYPE>  (6579) 
MS1

>  <INSTRUMENT TYPE>  (6579) 
EI-B

>  <INSTRUMENT>  (6579) 
JEOL JMS-D-3000

>  <ION MODE>  (6579) 
P

>  <INCHIKEY>  (6579) 
PSYRQZJSTOQMOF-JVLMNHKTSA-N

>  <FORMULA>  (6579) 
C5H6I2

>  <EXACT MASS>  (6579) 
319.855896192

>  <MW>  (6579) 
320

>  <ID>  (6579) 
JP001438

>  <CONTRIBUTOR>  (6579) 
University of Tokyo Team, {Faculty of Engineering, University of Tokyo

>  <COMMENT>  (6579) 
SMILES=[H]C(CC([H])=C([H])I)=C([H])I
InChI=InChI=1S/C5H6I2/c6-4-2-1-3-5-7/h2-5H,1H2/b4-2-,5-3-
computed SMILES=IC=CCC=CI
accession=JP001438
date=2016.01.19 (Created 2008.10.21, modified 2011.05.06)
author=MASS SPECTROSCOPY SOC. OF JAPAN (MSSJ)
license=CC BY-NC-SA
exact mass=319.85589
ionization energy=70 eV
ion type=[M]+*
computed spectral entropy=1.7785162470215707
computed normalized entropy=0.6414641424296177
SPLASH=splash10-014i-9301000000-cacf2de33d2475d805b9
submitter=submitter = University of Tokyo Team (Faculty of Engineering, University of Tokyo)
MoNA Rating=3.75

>  <NUM PEAKS>  (6579) 
16

>  <MASS SPECTRAL PEAKS>  (6579) 
61 1.02
62 1.61
63 3.15
64 1.48
65 19.93
66 99.99
67 5.83
127 10.73
128 1.14
141 1.44
167 7.22
193 34.05
194 2.04
254 1.18
320 18.45
321 1.21

$$$$

     RDKit          2D

 16 16  0  0  0  0  0  0  0  0999 V2000
   -2.5987   -3.0002    0.0000 C   0  0  0  0  0  0  0  0  0  0  0  0
   -3.8981   -0.7504    0.0000 C   0  0  0  0  0  0  0  0  0  0  0  0
    3.1483   -0.5487    0.0000 C   0  0  0  0  0  0  0  0  0  0  0  0
    5.1972    0.0006    0.0000 C   0  0  0  0  0  0  0  0  0  0  0  0
    4.6479    2.0496    0.0000 C   0  0  0  0  0  0  0  0  0  0  0  0
    3.5629    2.6494    0.0000 C   0  0  0  0  0  0  0  0  0  0  0  0
    1.6346    2.6491    0.0000 C   0  0  0  0  0  0  0  0  0  0  0  0
   -1.3000    0.7500    0.0000 C   0  0  0  0  0  0  0  0  0  0  0  0
   -0.0000   -1.5000    0.0000 C   0  0  0  0  0  0  0  0  0  0  0  0
    0.0000    1.5000    0.0000 C   0  0  0  0  0  0  0  0  0  0  0  0
    1.3000   -0.7500    0.0000 C   0  0  0  0  0  0  0  0  0  0  0  0
   -2.5989   -1.5002    0.0000 C   0  0  0  0  0  0  0  0  0  0  0  0
   -1.3000   -0.7500    0.0000 C   0  0  0  0  0  0  0  0  0  0  0  0
    1.3000    0.7500    0.0000 C   0  0  0  0  0  0  0  0  0  0  0  0
    3.8981    0.7504    0.0000 Si  0  0  0  0  0  4  0  0  0  0  0  0
    2.5989    1.5002    0.0000 Si  0  0  0  0  0  4  0  0  0  0  0  0
 10  8  2  0
 11  9  1  0
 12  1  2  0
 12  2  1  0
 13  8  1  0
 13  9  2  0
 13 12  1  0
 14 10  1  0
 14 11  2  0
 15  3  1  0
 15  4  1  0
 15  5  1  0
 16  6  1  0
 16  7  1  0
 16 14  1  0
 16 15  1  0
M  END
>  <NAME>  (6580) 
PARA-ISOPROPENYLPHENYLPENTAMETHYLDISILANE

>  <SYNONYMS>  (6580) 


>  <SPECTRUM TYPE>  (6580) 
MS1

>  <INSTRUMENT TYPE>  (6580) 
EI-B

>  <INSTRUMENT>  (6580) 
JEOL JMS-D-3000

>  <ION MODE>  (6580) 
P

>  <INCHIKEY>  (6580) 
SYQYMCRKKHGMDB-UHFFFAOYSA-N

>  <FORMULA>  (6580) 
C14H24Si2

>  <EXACT MASS>  (6580) 
248.141653828

>  <MW>  (6580) 
248

>  <ID>  (6580) 
JP001437

>  <CONTRIBUTOR>  (6580) 
University of Tokyo Team, {Faculty of Engineering, University of Tokyo

>  <COMMENT>  (6580) 
SMILES=CC(=C)c(c1)ccc(c1)[Si](C)(C)[Si](C)(C)C
InChI=InChI=1S/C14H24Si2/c1-12(2)13-8-10-14(11-9-13)16(6,7)15(3,4)5/h8-11H,1H2,2-7H3
computed SMILES=C=C(C1=CC=C(C=C1)[Si](C)(C)[Si](C)(C)C)C
accession=JP001437
date=2016.01.19 (Created 2008.10.21, modified 2011.05.06)
author=MASS SPECTROSCOPY SOC. OF JAPAN (MSSJ)
license=CC BY-NC-SA
exact mass=248.14165
ionization energy=70 eV
ion type=[M]+*
computed spectral entropy=2.4457523776466976
computed normalized entropy=0.759815696757063
SPLASH=splash10-00b9-3900000000-51c031e76d81e120761d
submitter=submitter = University of Tokyo Team (Faculty of Engineering, University of Tokyo)
MoNA Rating=3.75

>  <NUM PEAKS>  (6580) 
25

>  <MASS SPECTRAL PEAKS>  (6580) 
51 2.42
58 2.61
59 14.16
60 2.42
73 52.71
74 4.85
75 3.19
78 4.14
91 2.36
105 3.63
119 3.76
131 3.31
135 3.89
143 2.61
145 10.84
159 13.84
160 36.24
161 6.5
174 17.93
175 99.99
176 17.86
177 5.16
233 5.1
234 2.1
248 3.25

$$$$

     RDKit          2D

 16 16  0  0  0  0  0  0  0  0999 V2000
    5.9472    0.2017    0.0000 C   0  0  0  0  0  0  0  0  0  0  0  0
    6.4959    2.2508    0.0000 C   0  0  0  0  0  0  0  0  0  0  0  0
    4.4468    2.7995    0.0000 C   0  0  0  0  0  0  0  0  0  0  0  0
    3.5629    2.6494    0.0000 C   0  0  0  0  0  0  0  0  0  0  0  0
    1.6346    2.6491    0.0000 C   0  0  0  0  0  0  0  0  0  0  0  0
   -1.3000    0.7500    0.0000 C   0  0  0  0  0  0  0  0  0  0  0  0
    0.0000   -1.5000    0.0000 C   0  0  0  0  0  0  0  0  0  0  0  0
    0.0000    1.5000    0.0000 C   0  0  0  0  0  0  0  0  0  0  0  0
    1.3000   -0.7500    0.0000 C   0  0  0  0  0  0  0  0  0  0  0  0
   -2.5989   -1.5002    0.0000 C   0  0  0  0  0  0  0  0  0  0  0  0
   -1.3000   -0.7500    0.0000 C   0  0  0  0  0  0  0  0  0  0  0  0
    1.3000    0.7500    0.0000 C   0  0  0  0  0  0  0  0  0  0  0  0
    5.1970    1.5006    0.0000 C   0  0  0  0  0  0  0  0  0  0  0  0
   -3.8981   -0.7504    0.0000 O   0  0  0  0  0  0  0  0  0  0  0  0
    3.8981    0.7504    0.0000 O   0  0  0  0  0  0  0  0  0  0  0  0
    2.5989    1.5002    0.0000 Si  0  0  0  0  0  4  0  0  0  0  0  0
  8  6  2  0
  9  7  1  0
 11  6  1  0
 11  7  2  0
 11 10  1  0
 12  8  1  0
 12  9  2  0
 13  1  1  0
 13  2  1  0
 13  3  1  0
 14 10  2  0
 15 13  1  0
 16  4  1  0
 16  5  1  0
 16 12  1  0
 16 15  1  0
M  END
>  <NAME>  (6581) 
PARA-(TERT-BUTOXYDIMETHYLSILYL)BENZALDEHYDE

>  <SYNONYMS>  (6581) 


>  <SPECTRUM TYPE>  (6581) 
MS1

>  <INSTRUMENT TYPE>  (6581) 
EI-B

>  <INSTRUMENT>  (6581) 
JEOL JMS-D-3000

>  <ION MODE>  (6581) 
P

>  <INCHIKEY>  (6581) 
ZEPNRRYDCQESKB-UHFFFAOYSA-N

>  <FORMULA>  (6581) 
C13H20O2Si

>  <EXACT MASS>  (6581) 
236.12325641

>  <MW>  (6581) 
236

>  <ID>  (6581) 
JP001436

>  <CONTRIBUTOR>  (6581) 
University of Tokyo Team, {Faculty of Engineering, University of Tokyo

>  <COMMENT>  (6581) 
SMILES=O=Cc(c1)ccc(c1)[Si](C)(C)OC(C)(C)C
InChI=InChI=1S/C13H20O2Si/c1-13(2,3)15-16(4,5)12-8-6-11(10-14)7-9-12/h6-10H,1-5H3
computed SMILES=O=CC1=CC=C(C=C1)[Si](OC(C)(C)C)(C)C
computed normalized entropy=0.7359326322265597
accession=JP001436
date=2016.01.19 (Created 2008.10.21, modified 2011.05.06)
author=MASS SPECTROSCOPY SOC. OF JAPAN (MSSJ)
license=CC BY-NC-SA
exact mass=236.12326
ionization energy=70 eV
ion type=[M]+*
computed spectral entropy=2.962387665400351
SPLASH=splash10-0300-3930000000-5579976c565e2f28567e
submitter=submitter = University of Tokyo Team (Faculty of Engineering, University of Tokyo)
MoNA Rating=3.75

>  <NUM PEAKS>  (6581) 
56

>  <MASS SPECTRAL PEAKS>  (6581) 
41 9.56
43 4.94
45 6.89
47 1.43
51 2.27
53 1.49
55 1.75
56 3.18
57 1.95
59 1.69
61 2.14
65 1.62
67 1.36
75 9.49
76 1.43
77 5.92
78 2.01
79 1.56
81 7.02
83 1.43
85 1.82
89 1.95
91 6.44
92 1.36
93 2.21
94 1.43
103 1.04
105 3.7
106 1.56
107 2.27
110 11.45
111 2.79
115 1.36
117 1.17
119 5
120 1.56
121 2.53
122 3.96
133 4.42
134 3.57
135 3.18
136 1.82
137 2.14
149 1.3
150 2.01
151 1.62
163 52.63
164 10.54
165 99.99
166 18.34
167 5.59
180 1.17
221 71.37
222 16.52
223 5.13
236 0.84

$$$$

     RDKit          2D

 15 16  0  0  0  0  0  0  0  0999 V2000
    0.7593   -3.1013    0.0000 C   0  0  0  0  0  0  0  0  0  0  0  0
    2.6506   -4.0620    0.0000 C   0  0  0  0  0  0  0  0  0  0  0  0
    3.6113   -2.1707    0.0000 C   0  0  0  0  0  0  0  0  0  0  0  0
    3.0195    1.9591    0.0000 C   0  0  0  0  0  0  0  0  0  0  0  0
    1.1124    2.5814    0.0000 C   0  0  0  0  0  0  0  0  0  0  0  0
   -2.3100   -0.7500    0.0000 C   0  0  0  0  0  0  0  0  0  0  0  0
   -2.3100    0.7500    0.0000 C   0  0  0  0  0  0  0  0  0  0  0  0
   -1.0100   -1.5000    0.0000 C   0  0  0  0  0  0  0  0  0  0  0  0
   -1.0100    1.5000    0.0000 C   0  0  0  0  0  0  0  0  0  0  0  0
    0.2900   -0.7500    0.0000 C   0  0  0  0  0  0  0  0  0  0  0  0
    0.2900    0.7500    0.0000 C   0  0  0  0  0  0  0  0  0  0  0  0
    1.7200   -1.2100    0.0000 C   0  0  0  0  0  0  0  0  0  0  0  0
    2.6000    0.0000    0.0000 O   0  0  0  0  0  0  0  0  0  0  0  0
    2.1853   -2.6360    0.0000 Si  0  0  0  0  0  4  0  0  0  0  0  0
    1.7200    1.2100    0.0000 Si  0  0  0  0  0  4  0  0  0  0  0  0
  7  6  2  0
  8  6  1  0
  9  7  1  0
 10  8  2  0
 11  9  2  0
 11 10  1  0
 12 10  1  0
 13 12  1  0
 14  1  1  0
 14  2  1  0
 14  3  1  0
 14 12  1  0
 15  4  1  0
 15  5  1  0
 15 11  1  0
 15 13  1  0
M  END
>  <NAME>  (6582) 
2,2-DIMETHYL-5-TRIMETHYLSILYL-3,4-BENZO-1-OXA-2-SILACYCLOPENT-3-ENE

>  <SYNONYMS>  (6582) 


>  <SPECTRUM TYPE>  (6582) 
MS1

>  <INSTRUMENT TYPE>  (6582) 
EI-B

>  <INSTRUMENT>  (6582) 
JEOL JMS-D-3000

>  <ION MODE>  (6582) 
P

>  <INCHIKEY>  (6582) 
XJKCNSJHPQYYEU-UHFFFAOYSA-N

>  <FORMULA>  (6582) 
C12H20OSi2

>  <EXACT MASS>  (6582) 
236.10526832

>  <MW>  (6582) 
236

>  <ID>  (6582) 
JP001435

>  <CONTRIBUTOR>  (6582) 
University of Tokyo Team, {Faculty of Engineering, University of Tokyo

>  <COMMENT>  (6582) 
SMILES=C[Si](C)(C)C(O1)c(c2)c(ccc2)[Si](C)(C)1
InChI=InChI=1S/C12H20OSi2/c1-14(2,3)12-10-8-6-7-9-11(10)15(4,5)13-12/h6-9,12H,1-5H3
computed SMILES=O1C(C=2C=CC=CC2[Si]1(C)C)[Si](C)(C)C
accession=JP001435
date=2016.01.19 (Created 2008.10.21, modified 2011.05.06)
author=MASS SPECTROSCOPY SOC. OF JAPAN (MSSJ)
license=CC BY-NC-SA
exact mass=236.10527
ionization energy=70 eV
ion type=[M]+*
computed spectral entropy=2.3829439888633703
computed normalized entropy=0.7954462452802439
SPLASH=splash10-03k9-4930000000-698922b9d52d46fd91a3
submitter=submitter = University of Tokyo Team (Faculty of Engineering, University of Tokyo)
MoNA Rating=3.75

>  <NUM PEAKS>  (6582) 
20

>  <MASS SPECTRAL PEAKS>  (6582) 
43 5.19
45 7.5
73 72.3
74 6.36
75 3.72
88 3.71
105 4.09
133 5.47
145 5.65
148 24.14
149 3.69
163 99.99
164 15.67
165 5.38
193 32
194 6.44
221 22.87
222 5.12
236 35.36
237 8.75

$$$$

     RDKit          2D

 15 15  0  0  0  0  0  0  0  0999 V2000
    4.6479   -2.0496    0.0000 C   0  0  0  0  0  0  0  0  0  0  0  0
    5.1972   -0.0006    0.0000 C   0  0  0  0  0  0  0  0  0  0  0  0
    3.1483    0.5487    0.0000 C   0  0  0  0  0  0  0  0  0  0  0  0
    1.6346   -2.6491    0.0000 C   0  0  0  0  0  0  0  0  0  0  0  0
    3.5629   -2.6494    0.0000 C   0  0  0  0  0  0  0  0  0  0  0  0
   -1.3000    0.7500    0.0000 C   0  0  0  0  0  0  0  0  0  0  0  0
    0.0000    1.5000    0.0000 C   0  0  0  0  0  0  0  0  0  0  0  0
   -1.3000   -0.7500    0.0000 C   0  0  0  0  0  0  0  0  0  0  0  0
    1.3000    0.7500    0.0000 C   0  0  0  0  0  0  0  0  0  0  0  0
   -0.0000   -3.0000    0.0000 C   0  0  0  0  0  0  0  0  0  0  0  0
    0.0000   -1.5000    0.0000 C   0  0  0  0  0  0  0  0  0  0  0  0
    1.3000   -0.7500    0.0000 C   0  0  0  0  0  0  0  0  0  0  0  0
   -1.2990   -3.7500    0.0000 O   0  0  0  0  0  0  0  0  0  0  0  0
    3.8981   -0.7504    0.0000 Si  0  0  0  0  0  4  0  0  0  0  0  0
    2.5989   -1.5002    0.0000 Si  0  0  0  0  0  4  0  0  0  0  0  0
  7  6  2  0
  8  6  1  0
  9  7  1  0
 11  8  2  0
 11 10  1  0
 12  9  2  0
 12 11  1  0
 13 10  2  0
 14  1  1  0
 14  2  1  0
 14  3  1  0
 15  4  1  0
 15  5  1  0
 15 12  1  0
 15 14  1  0
M  END
>  <NAME>  (6583) 
ORTHO-(PENTAMETHYLDISILANYL)BENZALDEHYDE

>  <SYNONYMS>  (6583) 


>  <SPECTRUM TYPE>  (6583) 
MS1

>  <INSTRUMENT TYPE>  (6583) 
EI-B

>  <INSTRUMENT>  (6583) 
JEOL JMS-D-3000

>  <ION MODE>  (6583) 
P

>  <INCHIKEY>  (6583) 
WNESRHPOMYTGRC-UHFFFAOYSA-N

>  <FORMULA>  (6583) 
C12H20OSi2

>  <EXACT MASS>  (6583) 
236.10526832

>  <MW>  (6583) 
236

>  <ID>  (6583) 
JP001434

>  <CONTRIBUTOR>  (6583) 
University of Tokyo Team, {Faculty of Engineering, University of Tokyo

>  <COMMENT>  (6583) 
SMILES=O=Cc(c1)c(ccc1)[Si](C)(C)[Si](C)(C)C
InChI=InChI=1S/C12H20OSi2/c1-14(2,3)15(4,5)12-9-7-6-8-11(12)10-13/h6-10H,1-5H3
computed SMILES=O=CC=1C=CC=CC1[Si](C)(C)[Si](C)(C)C
accession=JP001434
date=2016.01.19 (Created 2008.10.21, modified 2011.05.06)
author=MASS SPECTROSCOPY SOC. OF JAPAN (MSSJ)
license=CC BY-NC-SA
exact mass=236.10527
ionization energy=70 eV
ion type=[M]+*
computed spectral entropy=2.4132232694704485
computed normalized entropy=0.7166650604262893
SPLASH=splash10-03di-2910000000-2268e3f52865fd4cc840
submitter=submitter = University of Tokyo Team (Faculty of Engineering, University of Tokyo)
MoNA Rating=3.75

>  <NUM PEAKS>  (6583) 
29

>  <MASS SPECTRAL PEAKS>  (6583) 
43 2.01
53 2.63
61 1.68
73 34.33
74 4.19
77 1.91
89 3.82
91 2.06
93 1.98
103 2.55
105 2.22
107 3.44
117 2.36
119 4.17
121 2.29
146 1.72
148 8.71
161 1.52
163 99.99
164 20.25
179 3.17
193 27.6
194 8.34
195 3.72
219 1.92
221 20.55
222 4.69
223 1.94
236 2

$$$$

     RDKit          2D

 15 15  0  0  0  0  0  0  0  0999 V2000
    3.1483   -0.5487    0.0000 C   0  0  0  0  0  0  0  0  0  0  0  0
    5.1972    0.0006    0.0000 C   0  0  0  0  0  0  0  0  0  0  0  0
    4.6479    2.0496    0.0000 C   0  0  0  0  0  0  0  0  0  0  0  0
    3.5629    2.6494    0.0000 C   0  0  0  0  0  0  0  0  0  0  0  0
    1.6346    2.6491    0.0000 C   0  0  0  0  0  0  0  0  0  0  0  0
   -1.3000    0.7500    0.0000 C   0  0  0  0  0  0  0  0  0  0  0  0
    0.0000   -1.5000    0.0000 C   0  0  0  0  0  0  0  0  0  0  0  0
    0.0000    1.5000    0.0000 C   0  0  0  0  0  0  0  0  0  0  0  0
    1.3000   -0.7500    0.0000 C   0  0  0  0  0  0  0  0  0  0  0  0
   -2.5989   -1.5002    0.0000 C   0  0  0  0  0  0  0  0  0  0  0  0
   -1.3000   -0.7500    0.0000 C   0  0  0  0  0  0  0  0  0  0  0  0
    1.3000    0.7500    0.0000 C   0  0  0  0  0  0  0  0  0  0  0  0
   -3.8981   -0.7504    0.0000 O   0  0  0  0  0  0  0  0  0  0  0  0
    3.8981    0.7504    0.0000 Si  0  0  0  0  0  4  0  0  0  0  0  0
    2.5989    1.5002    0.0000 Si  0  0  0  0  0  4  0  0  0  0  0  0
  8  6  2  0
  9  7  1  0
 11  6  1  0
 11  7  2  0
 11 10  1  0
 12  8  1  0
 12  9  2  0
 13 10  2  0
 14  1  1  0
 14  2  1  0
 14  3  1  0
 15  4  1  0
 15  5  1  0
 15 12  1  0
 15 14  1  0
M  END
>  <NAME>  (6584) 
PARA-(PENTAMETHYLDISILANYL)BENZALDEHYDE

>  <SYNONYMS>  (6584) 


>  <SPECTRUM TYPE>  (6584) 
MS1

>  <INSTRUMENT TYPE>  (6584) 
EI-B

>  <INSTRUMENT>  (6584) 
JEOL JMS-D-3000

>  <ION MODE>  (6584) 
P

>  <INCHIKEY>  (6584) 
NEJCUBIDSVZCHT-UHFFFAOYSA-N

>  <FORMULA>  (6584) 
C12H20OSi2

>  <EXACT MASS>  (6584) 
236.10526832

>  <MW>  (6584) 
236

>  <ID>  (6584) 
JP001433

>  <CONTRIBUTOR>  (6584) 
University of Tokyo Team, {Faculty of Engineering, University of Tokyo

>  <COMMENT>  (6584) 
SMILES=O=Cc(c1)ccc(c1)[Si](C)(C)[Si](C)(C)C
InChI=InChI=1S/C12H20OSi2/c1-14(2,3)15(4,5)12-8-6-11(10-13)7-9-12/h6-10H,1-5H3
computed SMILES=O=CC1=CC=C(C=C1)[Si](C)(C)[Si](C)(C)C
accession=JP001433
date=2016.01.19 (Created 2008.10.21, modified 2011.05.06)
author=MASS SPECTROSCOPY SOC. OF JAPAN (MSSJ)
license=CC BY-NC-SA
exact mass=236.10527
ionization energy=70 eV
ion type=[M]+*
computed spectral entropy=2.4483310018212063
computed normalized entropy=0.7270911513085089
SPLASH=splash10-0229-9830000000-7e2d4566f39f13e1d1e3
submitter=submitter = University of Tokyo Team (Faculty of Engineering, University of Tokyo)
MoNA Rating=3.75

>  <NUM PEAKS>  (6584) 
29

>  <MASS SPECTRAL PEAKS>  (6584) 
43 8.03
44 2.76
45 10.74
53 2.17
59 3.26
73 99.99
74 8.37
75 4.2
91 2.2
105 2.64
107 2.04
117 2.16
119 3.44
131 2.42
133 3.96
134 4.01
135 3.5
147 1.87
148 9.68
149 2.07
163 78.19
164 11.84
165 3.78
193 7.58
221 18.68
222 4.36
236 20.29
237 4.88
238 1.96

$$$$

     RDKit          2D

 14 14  0  0  0  0  0  0  0  0999 V2000
   -2.5987   -3.0002    0.0000 C   0  0  0  0  0  0  0  0  0  0  0  0
   -3.8981   -0.7504    0.0000 C   0  0  0  0  0  0  0  0  0  0  0  0
    5.1970    1.5006    0.0000 C   0  0  0  0  0  0  0  0  0  0  0  0
    3.5629    2.6494    0.0000 C   0  0  0  0  0  0  0  0  0  0  0  0
    1.6346    2.6491    0.0000 C   0  0  0  0  0  0  0  0  0  0  0  0
   -1.3000    0.7500    0.0000 C   0  0  0  0  0  0  0  0  0  0  0  0
    0.0000   -1.5000    0.0000 C   0  0  0  0  0  0  0  0  0  0  0  0
    0.0000    1.5000    0.0000 C   0  0  0  0  0  0  0  0  0  0  0  0
    1.3000   -0.7500    0.0000 C   0  0  0  0  0  0  0  0  0  0  0  0
   -2.5989   -1.5002    0.0000 C   0  0  0  0  0  0  0  0  0  0  0  0
   -1.3000   -0.7500    0.0000 C   0  0  0  0  0  0  0  0  0  0  0  0
    1.3000    0.7500    0.0000 C   0  0  0  0  0  0  0  0  0  0  0  0
    3.8981    0.7504    0.0000 O   0  0  0  0  0  0  0  0  0  0  0  0
    2.5989    1.5002    0.0000 Si  0  0  0  0  0  4  0  0  0  0  0  0
  8  6  2  0
  9  7  1  0
 10  1  2  0
 10  2  1  0
 11  6  1  0
 11  7  2  0
 11 10  1  0
 12  8  1  0
 12  9  2  0
 13  3  1  0
 14  4  1  0
 14  5  1  0
 14 12  1  0
 14 13  1  0
M  END
>  <NAME>  (6585) 
PARA-ISOPROPENYLPHENYLDIMETHYLMETHOXYSILANE

>  <SYNONYMS>  (6585) 


>  <SPECTRUM TYPE>  (6585) 
MS1

>  <INSTRUMENT TYPE>  (6585) 
EI-B

>  <INSTRUMENT>  (6585) 
JEOL JMS-D-3000

>  <ION MODE>  (6585) 
P

>  <INCHIKEY>  (6585) 
IPKWQMUUORAUAI-UHFFFAOYSA-N

>  <FORMULA>  (6585) 
C12H18OSi

>  <EXACT MASS>  (6585) 
206.11269172599998

>  <MW>  (6585) 
206

>  <ID>  (6585) 
JP001432

>  <CONTRIBUTOR>  (6585) 
University of Tokyo Team, {Faculty of Engineering, University of Tokyo

>  <COMMENT>  (6585) 
SMILES=CC(=C)c(c1)ccc(c1)[Si](C)(C)OC
InChI=InChI=1S/C12H18OSi/c1-10(2)11-6-8-12(9-7-11)14(4,5)13-3/h6-9H,1H2,2-5H3
computed SMILES=O(C)[Si](C1=CC=C(C=C1)C(=C)C)(C)C
accession=JP001432
date=2016.01.19 (Created 2008.10.21, modified 2011.05.06)
author=MASS SPECTROSCOPY SOC. OF JAPAN (MSSJ)
license=CC BY-NC-SA
exact mass=206.11269
ionization energy=70 eV
ion type=[M]+*
computed spectral entropy=2.33139204598923
computed normalized entropy=0.7073748309683989
SPLASH=splash10-052f-2910000000-6f60a57cf0854b0f67db
submitter=submitter = University of Tokyo Team (Faculty of Engineering, University of Tokyo)
MoNA Rating=3.75

>  <NUM PEAKS>  (6585) 
27

>  <MASS SPECTRAL PEAKS>  (6585) 
43 6.07
45 3.64
53 1.75
58 1.51
59 17.58
60 1.41
67 1.42
89 4.16
91 2.79
96 2.04
105 2.49
115 3.39
117 1.7
119 2.2
121 1.78
131 7.39
145 4.17
154 1.75
155 26.59
175 2.16
177 4.05
191 99.99
192 18.75
193 5.19
206 23.03
207 4.34
208 1.15

$$$$

     RDKit          2D

 13 13  0  0  0  0  0  0  0  0999 V2000
   -2.5987   -3.0002    0.0000 C   0  0  0  0  0  0  0  0  0  0  0  0
   -3.8981   -0.7504    0.0000 C   0  0  0  0  0  0  0  0  0  0  0  0
    3.3491    0.2013    0.0000 C   0  0  0  0  0  0  0  0  0  0  0  0
    3.8978    2.2504    0.0000 C   0  0  0  0  0  0  0  0  0  0  0  0
    1.8487    2.7991    0.0000 C   0  0  0  0  0  0  0  0  0  0  0  0
   -1.3000    0.7500    0.0000 C   0  0  0  0  0  0  0  0  0  0  0  0
   -0.0000   -1.5000    0.0000 C   0  0  0  0  0  0  0  0  0  0  0  0
    0.0000    1.5000    0.0000 C   0  0  0  0  0  0  0  0  0  0  0  0
    1.3000   -0.7500    0.0000 C   0  0  0  0  0  0  0  0  0  0  0  0
   -2.5989   -1.5002    0.0000 C   0  0  0  0  0  0  0  0  0  0  0  0
   -1.3000   -0.7500    0.0000 C   0  0  0  0  0  0  0  0  0  0  0  0
    1.3000    0.7500    0.0000 C   0  0  0  0  0  0  0  0  0  0  0  0
    2.5989    1.5002    0.0000 Si  0  0  0  0  0  4  0  0  0  0  0  0
  8  6  2  0
  9  7  1  0
 10  1  2  0
 10  2  1  0
 11  6  1  0
 11  7  2  0
 11 10  1  0
 12  8  1  0
 12  9  2  0
 13  3  1  0
 13  4  1  0
 13  5  1  0
 13 12  1  0
M  END
>  <NAME>  (6586) 
PARA-ISOPROPENYLPHENYLTRIMETHYLSILANE

>  <SYNONYMS>  (6586) 


>  <SPECTRUM TYPE>  (6586) 
MS1

>  <INSTRUMENT TYPE>  (6586) 
EI-B

>  <INSTRUMENT>  (6586) 
JEOL JMS-D-3000

>  <ION MODE>  (6586) 
P

>  <INCHIKEY>  (6586) 
IFMXBBNZFOAHBB-UHFFFAOYSA-N

>  <FORMULA>  (6586) 
C12H18Si

>  <EXACT MASS>  (6586) 
190.117777106

>  <MW>  (6586) 
190

>  <ID>  (6586) 
JP001431

>  <CONTRIBUTOR>  (6586) 
University of Tokyo Team, {Faculty of Engineering, University of Tokyo

>  <COMMENT>  (6586) 
SMILES=CC(=C)c(c1)ccc(c1)[Si](C)(C)C
InChI=InChI=1S/C12H18Si/c1-10(2)11-6-8-12(9-7-11)13(3,4)5/h6-9H,1H2,2-5H3
computed SMILES=C=C(C1=CC=C(C=C1)[Si](C)(C)C)C
accession=JP001431
date=2016.01.19 (Created 2008.10.21, modified 2011.05.06)
author=MASS SPECTROSCOPY SOC. OF JAPAN (MSSJ)
license=CC BY-NC-SA
exact mass=190.11778
ionization energy=70 eV
ion type=[M]+*
computed spectral entropy=2.4479987630729396
computed normalized entropy=0.7197461624166632
SPLASH=splash10-004i-1900000000-685c433c0cc2b9392afa
submitter=submitter = University of Tokyo Team (Faculty of Engineering, University of Tokyo)
MoNA Rating=3.75

>  <NUM PEAKS>  (6586) 
30

>  <MASS SPECTRAL PEAKS>  (6586) 
41 2.18
43 12.07
45 3.94
53 3.39
58 3.62
59 7.4
73 4.06
88 1.53
91 2.64
93 2.06
105 3.87
107 1.55
115 3.34
117 1.95
119 3.55
121 2.41
129 1.53
131 3.87
133 1.95
135 2.39
143 1.92
145 5.06
159 3.8
161 11.37
162 1.57
175 99.99
176 19.78
177 5.66
190 16.14
191 3.29

$$$$

     RDKit          2D

 12 12  0  0  0  0  0  0  0  0999 V2000
   -2.5987   -3.0002    0.0000 C   0  0  0  0  0  0  0  0  0  0  0  0
   -3.8981   -0.7504    0.0000 C   0  0  0  0  0  0  0  0  0  0  0  0
    3.8981    0.7504    0.0000 C   0  0  0  0  0  0  0  0  0  0  0  0
    2.5987    3.0002    0.0000 C   0  0  0  0  0  0  0  0  0  0  0  0
   -1.3000    0.7500    0.0000 C   0  0  0  0  0  0  0  0  0  0  0  0
    0.0000   -1.5000    0.0000 C   0  0  0  0  0  0  0  0  0  0  0  0
    0.0000    1.5000    0.0000 C   0  0  0  0  0  0  0  0  0  0  0  0
    1.3000   -0.7500    0.0000 C   0  0  0  0  0  0  0  0  0  0  0  0
   -2.5989   -1.5002    0.0000 C   0  0  0  0  0  0  0  0  0  0  0  0
   -1.3000   -0.7500    0.0000 C   0  0  0  0  0  0  0  0  0  0  0  0
    1.3000    0.7500    0.0000 C   0  0  0  0  0  0  0  0  0  0  0  0
    2.5989    1.5002    0.0000 Si  0  0  0  0  0  4  0  0  0  0  0  0
  7  5  2  0
  8  6  1  0
  9  1  2  0
  9  2  1  0
 10  5  1  0
 10  6  2  0
 10  9  1  0
 11  7  1  0
 11  8  2  0
 12  3  1  0
 12  4  1  0
 12 11  1  0
M  END
>  <NAME>  (6587) 
PARA-ISOPROPENYLPHENYLDIMETHYLSILANE

>  <SYNONYMS>  (6587) 


>  <SPECTRUM TYPE>  (6587) 
MS1

>  <INSTRUMENT TYPE>  (6587) 
EI-B

>  <INSTRUMENT>  (6587) 
JEOL JMS-D-3000

>  <ION MODE>  (6587) 
P

>  <INCHIKEY>  (6587) 
PBKACEYOTGHHBZ-UHFFFAOYSA-N

>  <FORMULA>  (6587) 
C11H16Si

>  <EXACT MASS>  (6587) 
176.102127042

>  <MW>  (6587) 
176

>  <ID>  (6587) 
JP001430

>  <CONTRIBUTOR>  (6587) 
University of Tokyo Team, {Faculty of Engineering, University of Tokyo

>  <COMMENT>  (6587) 
SMILES=CC(=C)c(c1)ccc(c1)[SiH](C)C
InChI=InChI=1S/C11H16Si/c1-9(2)10-5-7-11(8-6-10)12(3)4/h5-8,12H,1H2,2-4H3
computed SMILES=C=C(C1=CC=C(C=C1)[SiH](C)C)C
accession=JP001430
date=2016.01.19 (Created 2008.10.21, modified 2011.05.06)
author=MASS SPECTROSCOPY SOC. OF JAPAN (MSSJ)
license=CC BY-NC-SA
exact mass=176.10213
ionization energy=70 eV
ion type=[M]+*
computed spectral entropy=2.3437879143218168
computed normalized entropy=0.7698376222427881
SPLASH=splash10-03di-1900000000-268555273aac3946b100
submitter=submitter = University of Tokyo Team (Faculty of Engineering, University of Tokyo)
MoNA Rating=3.75

>  <NUM PEAKS>  (6587) 
21

>  <MASS SPECTRAL PEAKS>  (6587) 
43 17.09
53 4.13
58 9.15
98 3.05
108 5.11
115 3.71
119 4.41
121 6.38
131 3.85
133 3.38
135 7.42
145 8.78
159 8.97
160 3.52
161 99.99
162 16.25
163 5.11
175 11.97
176 25.55
177 4.74
178 1.55

$$$$

     RDKit          2D

 13 13  0  0  0  0  0  0  0  0999 V2000
   -3.8981   -0.7504    0.0000 C   0  0  0  0  0  0  0  0  0  0  0  0
    5.1970    1.5006    0.0000 C   0  0  0  0  0  0  0  0  0  0  0  0
    3.5629    2.6494    0.0000 C   0  0  0  0  0  0  0  0  0  0  0  0
    1.6346    2.6491    0.0000 C   0  0  0  0  0  0  0  0  0  0  0  0
   -1.3000    0.7500    0.0000 C   0  0  0  0  0  0  0  0  0  0  0  0
    0.0000   -1.5000    0.0000 C   0  0  0  0  0  0  0  0  0  0  0  0
    0.0000    1.5000    0.0000 C   0  0  0  0  0  0  0  0  0  0  0  0
    1.3000   -0.7500    0.0000 C   0  0  0  0  0  0  0  0  0  0  0  0
   -1.3000   -0.7500    0.0000 C   0  0  0  0  0  0  0  0  0  0  0  0
    1.3000    0.7500    0.0000 C   0  0  0  0  0  0  0  0  0  0  0  0
   -2.5989   -1.5002    0.0000 O   0  0  0  0  0  0  0  0  0  0  0  0
    3.8981    0.7504    0.0000 O   0  0  0  0  0  0  0  0  0  0  0  0
    2.5989    1.5002    0.0000 Si  0  0  0  0  0  4  0  0  0  0  0  0
  7  5  2  0
  8  6  1  0
  9  5  1  0
  9  6  2  0
 10  7  1  0
 10  8  2  0
 11  1  1  0
 11  9  1  0
 12  2  1  0
 13  3  1  0
 13  4  1  0
 13 10  1  0
 13 12  1  0
M  END
>  <NAME>  (6588) 
PARA-METHOXYPHENYLDIMETHYLMETHOXYSILANE

>  <SYNONYMS>  (6588) 


>  <SPECTRUM TYPE>  (6588) 
MS1

>  <INSTRUMENT TYPE>  (6588) 
EI-B

>  <INSTRUMENT>  (6588) 
JEOL JMS-D-3000

>  <ION MODE>  (6588) 
P

>  <INCHIKEY>  (6588) 
NYZIQYZVZFTFBF-UHFFFAOYSA-N

>  <FORMULA>  (6588) 
C10H16O2Si

>  <EXACT MASS>  (6588) 
196.091956282

>  <MW>  (6588) 
196

>  <ID>  (6588) 
JP001429

>  <CONTRIBUTOR>  (6588) 
University of Tokyo Team, {Faculty of Engineering, University of Tokyo

>  <COMMENT>  (6588) 
SMILES=COc(c1)ccc(c1)[Si](C)(C)OC
InChI=InChI=1S/C10H16O2Si/c1-11-9-5-7-10(8-6-9)13(3,4)12-2/h5-8H,1-4H3
computed SMILES=O(C1=CC=C(C=C1)[Si](OC)(C)C)C
accession=JP001429
date=2016.01.19 (Created 2008.10.21, modified 2011.05.06)
author=MASS SPECTROSCOPY SOC. OF JAPAN (MSSJ)
license=CC BY-NC-SA
exact mass=196.09196
ionization energy=70 eV
ion type=[M]+*
computed spectral entropy=2.19549436408704
computed normalized entropy=0.6908298226800862
SPLASH=splash10-001i-1900000000-7953d623468f73ff7e17
submitter=submitter = University of Tokyo Team (Faculty of Engineering, University of Tokyo)
MoNA Rating=3.75

>  <NUM PEAKS>  (6588) 
24

>  <MASS SPECTRAL PEAKS>  (6588) 
43 3.65
45 1.69
59 13.18
75 2.08
76 1.82
77 1.8
89 3.82
90 1.43
91 4.43
93 2.17
105 1.47
108 1.6
121 8.07
122 1.38
135 3.22
151 34.95
152 5.21
153 1.69
165 3.01
181 99.99
182 15.69
183 5.15
196 20.89
197 3.5

$$$$

     RDKit          2D

 12 12  0  0  0  0  0  0  0  0999 V2000
   -3.8981   -0.7504    0.0000 C   0  0  0  0  0  0  0  0  0  0  0  0
    3.3491    0.2013    0.0000 C   0  0  0  0  0  0  0  0  0  0  0  0
    3.8978    2.2504    0.0000 C   0  0  0  0  0  0  0  0  0  0  0  0
    1.8487    2.7991    0.0000 C   0  0  0  0  0  0  0  0  0  0  0  0
   -1.3000    0.7500    0.0000 C   0  0  0  0  0  0  0  0  0  0  0  0
   -0.0000   -1.5000    0.0000 C   0  0  0  0  0  0  0  0  0  0  0  0
    0.0000    1.5000    0.0000 C   0  0  0  0  0  0  0  0  0  0  0  0
    1.3000   -0.7500    0.0000 C   0  0  0  0  0  0  0  0  0  0  0  0
   -1.3000   -0.7500    0.0000 C   0  0  0  0  0  0  0  0  0  0  0  0
    1.3000    0.7500    0.0000 C   0  0  0  0  0  0  0  0  0  0  0  0
   -2.5989   -1.5002    0.0000 O   0  0  0  0  0  0  0  0  0  0  0  0
    2.5989    1.5002    0.0000 Si  0  0  0  0  0  4  0  0  0  0  0  0
  7  5  2  0
  8  6  1  0
  9  5  1  0
  9  6  2  0
 10  7  1  0
 10  8  2  0
 11  1  1  0
 11  9  1  0
 12  2  1  0
 12  3  1  0
 12  4  1  0
 12 10  1  0
M  END
>  <NAME>  (6589) 
PARA-METHOXYPHENYLTRIMETHYLSILANE

>  <SYNONYMS>  (6589) 


>  <SPECTRUM TYPE>  (6589) 
MS1

>  <INSTRUMENT TYPE>  (6589) 
EI-B

>  <INSTRUMENT>  (6589) 
JEOL JMS-D-3000

>  <ION MODE>  (6589) 
P

>  <INCHIKEY>  (6589) 
XYZOPPYWEMJIAD-UHFFFAOYSA-N

>  <FORMULA>  (6589) 
C10H16OSi

>  <EXACT MASS>  (6589) 
180.097041662

>  <MW>  (6589) 
180

>  <ID>  (6589) 
JP001428

>  <CONTRIBUTOR>  (6589) 
University of Tokyo Team, {Faculty of Engineering, University of Tokyo

>  <COMMENT>  (6589) 
SMILES=COc(c1)ccc(c1)[Si](C)(C)C
InChI=InChI=1S/C10H16OSi/c1-11-9-5-7-10(8-6-9)12(2,3)4/h5-8H,1-4H3
computed SMILES=O(C1=CC=C(C=C1)[Si](C)(C)C)C
accession=JP001428
date=2016.01.19 (Created 2008.10.21, modified 2011.05.06)
author=MASS SPECTROSCOPY SOC. OF JAPAN (MSSJ)
license=CC BY-NC-SA
exact mass=180.09704
ionization energy=70 eV
ion type=[M]+*
computed spectral entropy=1.794526568141866
computed normalized entropy=0.5805570758797479
SPLASH=splash10-014i-1900000000-e113f0c131dc7519e86c
submitter=submitter = University of Tokyo Team (Faculty of Engineering, University of Tokyo)
MoNA Rating=3.75

>  <NUM PEAKS>  (6589) 
22

>  <MASS SPECTRAL PEAKS>  (6589) 
43 4.03
45 1.68
53 1.46
58 3.03
74 1.74
79 1.11
86 2.49
87 1.08
98 1.99
108 1.29
109 1.7
119 1.24
121 2.07
122 2.54
135 4.39
149 1.06
150 2.01
165 99.99
166 15.66
167 4.73
180 17.41
181 2.83

$$$$

     RDKit          2D

 11 11  0  0  0  0  0  0  0  0999 V2000
   -3.8981   -0.7504    0.0000 C   0  0  0  0  0  0  0  0  0  0  0  0
    3.8981    0.7504    0.0000 C   0  0  0  0  0  0  0  0  0  0  0  0
    2.5987    3.0002    0.0000 C   0  0  0  0  0  0  0  0  0  0  0  0
   -1.3000    0.7500    0.0000 C   0  0  0  0  0  0  0  0  0  0  0  0
   -0.0000   -1.5000    0.0000 C   0  0  0  0  0  0  0  0  0  0  0  0
    0.0000    1.5000    0.0000 C   0  0  0  0  0  0  0  0  0  0  0  0
    1.3000   -0.7500    0.0000 C   0  0  0  0  0  0  0  0  0  0  0  0
   -1.3000   -0.7500    0.0000 C   0  0  0  0  0  0  0  0  0  0  0  0
    1.3000    0.7500    0.0000 C   0  0  0  0  0  0  0  0  0  0  0  0
   -2.5989   -1.5002    0.0000 O   0  0  0  0  0  0  0  0  0  0  0  0
    2.5989    1.5002    0.0000 Si  0  0  0  0  0  4  0  0  0  0  0  0
  6  4  2  0
  7  5  1  0
  8  4  1  0
  8  5  2  0
  9  6  1  0
  9  7  2  0
 10  1  1  0
 10  8  1  0
 11  2  1  0
 11  3  1  0
 11  9  1  0
M  END
>  <NAME>  (6590) 
PARA-METHOXYPHENYLDIMETHYLSILANE

>  <SYNONYMS>  (6590) 


>  <SPECTRUM TYPE>  (6590) 
MS1

>  <INSTRUMENT TYPE>  (6590) 
EI-B

>  <INSTRUMENT>  (6590) 
JEOL JMS-D-3000

>  <ION MODE>  (6590) 
P

>  <INCHIKEY>  (6590) 
SMCZAFXJZGCLQH-UHFFFAOYSA-N

>  <FORMULA>  (6590) 
C9H14OSi

>  <EXACT MASS>  (6590) 
166.081391598

>  <MW>  (6590) 
166

>  <ID>  (6590) 
JP001427

>  <CONTRIBUTOR>  (6590) 
University of Tokyo Team, {Faculty of Engineering, University of Tokyo

>  <COMMENT>  (6590) 
SMILES=COc(c1)ccc(c1)[SiH](C)C
InChI=InChI=1S/C9H14OSi/c1-10-8-4-6-9(7-5-8)11(2)3/h4-7,11H,1-3H3
computed SMILES=O(C1=CC=C(C=C1)[SiH](C)C)C
accession=JP001427
date=2016.01.19 (Created 2008.10.21, modified 2011.05.06)
author=MASS SPECTROSCOPY SOC. OF JAPAN (MSSJ)
license=CC BY-NC-SA
exact mass=166.08139
ionization energy=70 eV
ion type=[M]+*
computed spectral entropy=2.50003095348797
computed normalized entropy=0.7585420805486816
SPLASH=splash10-0udi-3900000000-fed8b8b93eeb59bf4f72
submitter=submitter = University of Tokyo Team (Faculty of Engineering, University of Tokyo)
MoNA Rating=3.75

>  <NUM PEAKS>  (6590) 
27

>  <MASS SPECTRAL PEAKS>  (6590) 
43 10.83
45 2.11
53 3.97
58 4.09
59 13.42
65 1.92
66 1.89
67 2.12
75 2.82
77 3.94
89 18
90 2.05
91 6.26
93 2.99
105 2.63
108 1.95
121 15.47
122 3
135 6.84
136 2.08
150 2.19
151 99.99
152 14.19
153 4.6
165 16.25
166 23
167 4.51

$$$$

     RDKit          2D

 11 11  0  0  0  0  0  0  0  0999 V2000
   -1.3000    0.3512    0.0000 C   0  0  0  0  0  0  0  0  0  0  0  0
    2.2624    1.4997    0.0000 C   0  0  0  0  0  0  0  0  0  0  0  0
    0.3341    1.5000    0.0000 C   0  0  0  0  0  0  0  0  0  0  0  0
    5.1970   -1.8994    0.0000 C   0  0  0  0  0  0  0  0  0  0  0  0
    3.8970   -2.6494    0.0000 C   0  0  0  0  0  0  0  0  0  0  0  0
    5.1970   -0.3994    0.0000 C   0  0  0  0  0  0  0  0  0  0  0  0
    2.5970   -1.8994    0.0000 C   0  0  0  0  0  0  0  0  0  0  0  0
    3.8970    0.3506    0.0000 C   0  0  0  0  0  0  0  0  0  0  0  0
    2.5970   -0.3994    0.0000 C   0  0  0  0  0  0  0  0  0  0  0  0
   -0.0011   -0.3990    0.0000 O   0  0  0  0  0  0  0  0  0  0  0  0
    1.2981    0.3508    0.0000 Si  0  0  0  0  0  4  0  0  0  0  0  0
  5  4  2  0
  6  4  1  0
  7  5  1  0
  8  6  2  0
  9  7  2  0
  9  8  1  0
 10  1  1  0
 11  2  1  0
 11  3  1  0
 11  9  1  0
 11 10  1  0
M  END
>  <NAME>  (6591) 
PHENYLDIMETHYLMETHOXYSILANE

>  <SYNONYMS>  (6591) 


>  <SPECTRUM TYPE>  (6591) 
MS1

>  <INSTRUMENT TYPE>  (6591) 
EI-B

>  <INSTRUMENT>  (6591) 
JEOL JMS-D-3000

>  <ION MODE>  (6591) 
P

>  <INCHIKEY>  (6591) 
REQXNMOSXYEQLM-UHFFFAOYSA-N

>  <FORMULA>  (6591) 
C9H14OSi

>  <EXACT MASS>  (6591) 
166.081391598

>  <MW>  (6591) 
166

>  <ID>  (6591) 
JP001426

>  <CONTRIBUTOR>  (6591) 
University of Tokyo Team, {Faculty of Engineering, University of Tokyo

>  <COMMENT>  (6591) 
SMILES=CO[Si](C)(C)c(c1)cccc1
InChI=InChI=1S/C9H14OSi/c1-10-11(2,3)9-7-5-4-6-8-9/h4-8H,1-3H3
computed SMILES=O(C)[Si](C=1C=CC=CC1)(C)C
accession=JP001426
date=2016.01.19 (Created 2008.10.21, modified 2011.05.06)
author=MASS SPECTROSCOPY SOC. OF JAPAN (MSSJ)
license=CC BY-NC-SA
exact mass=166.08139
ionization energy=70 eV
ion type=[M]+*
computed spectral entropy=2.2500095484052847
computed normalized entropy=0.6990047677584497
SPLASH=splash10-0udi-2900000000-6b8e829bcd2b3b9aeb7c
submitter=submitter = University of Tokyo Team (Faculty of Engineering, University of Tokyo)
MoNA Rating=3.75

>  <NUM PEAKS>  (6591) 
25

>  <MASS SPECTRAL PEAKS>  (6591) 
42 1.54
43 23.52
45 2.57
51 1.79
53 2.64
58 12.79
66 1.56
77 2.26
79 1.63
95 2.73
98 9.53
100 1.46
101 1.55
108 5.35
109 1.77
119 1.9
121 37.66
122 4.94
123 1.68
135 3.26
151 99.99
152 14.18
153 4.64
166 12.46
167 1.94

$$$$

     RDKit          2D

 12 12  0  0  0  0  0  0  0  0999 V2000
   -3.8981   -0.7504    0.0000 C   0  0  0  0  0  0  0  0  0  0  0  0
    3.3491    0.2013    0.0000 C   0  0  0  0  0  0  0  0  0  0  0  0
    3.8978    2.2504    0.0000 C   0  0  0  0  0  0  0  0  0  0  0  0
   -1.3000    0.7500    0.0000 C   0  0  0  0  0  0  0  0  0  0  0  0
   -0.0000   -1.5000    0.0000 C   0  0  0  0  0  0  0  0  0  0  0  0
    0.0000    1.5000    0.0000 C   0  0  0  0  0  0  0  0  0  0  0  0
    1.3000   -0.7500    0.0000 C   0  0  0  0  0  0  0  0  0  0  0  0
   -1.3000   -0.7500    0.0000 C   0  0  0  0  0  0  0  0  0  0  0  0
    1.3000    0.7500    0.0000 C   0  0  0  0  0  0  0  0  0  0  0  0
    1.8487    2.7991    0.0000 Cl  0  0  0  0  0  0  0  0  0  0  0  0
   -2.5989   -1.5002    0.0000 O   0  0  0  0  0  0  0  0  0  0  0  0
    2.5989    1.5002    0.0000 Si  0  0  0  0  0  4  0  0  0  0  0  0
  6  4  2  0
  7  5  1  0
  8  4  1  0
  8  5  2  0
  9  6  1  0
  9  7  2  0
 11  1  1  0
 11  8  1  0
 12  2  1  0
 12  3  1  0
 12  9  1  0
 12 10  1  0
M  END
>  <NAME>  (6592) 
PARA-METHOXYPHENYLDIMETHYLCHLOROSILANE

>  <SYNONYMS>  (6592) 


>  <SPECTRUM TYPE>  (6592) 
MS1

>  <INSTRUMENT TYPE>  (6592) 
EI-B

>  <INSTRUMENT>  (6592) 
JEOL JMS-D-3000

>  <ION MODE>  (6592) 
P

>  <INCHIKEY>  (6592) 
RTYNSTRFACIKRL-UHFFFAOYSA-N

>  <FORMULA>  (6592) 
C9H13ClOSi

>  <EXACT MASS>  (6592) 
200.042419246

>  <MW>  (6592) 
200

>  <ID>  (6592) 
JP001425

>  <CONTRIBUTOR>  (6592) 
University of Tokyo Team, {Faculty of Engineering, University of Tokyo

>  <COMMENT>  (6592) 
SMILES=COc(c1)ccc(c1)[Si](C)(C)Cl
InChI=InChI=1S/C9H13ClOSi/c1-11-8-4-6-9(7-5-8)12(2,3)10/h4-7H,1-3H3
computed SMILES=Cl[Si](C1=CC=C(OC)C=C1)(C)C
accession=JP001425
date=2016.01.19 (Created 2008.10.21, modified 2011.05.06)
author=MASS SPECTROSCOPY SOC. OF JAPAN (MSSJ)
license=CC BY-NC-SA
exact mass=200.04242
ionization energy=70 eV
ion type=[M]+*
computed spectral entropy=2.2044176093382624
computed normalized entropy=0.7358526757543152
SPLASH=splash10-000i-1920000000-810040d76962c1b6971e
submitter=submitter = University of Tokyo Team (Faculty of Engineering, University of Tokyo)
MoNA Rating=3.75

>  <NUM PEAKS>  (6592) 
20

>  <MASS SPECTRAL PEAKS>  (6592) 
62 8.69
64 5.18
74 5.15
79 2.88
81 2.61
98 5.94
100 3.81
121 5.73
142 3.12
155 3.78
165 3.33
169 2.57
170 2.5
185 99.99
186 14.36
187 37.66
188 4.94
200 28.69
201 4.74
202 10.44

$$$$

     RDKit          2D

  9  9  0  0  0  0  0  0  0  0999 V2000
    3.8981   -0.7504    0.0000 C   0  0  0  0  0  0  0  0  0  0  0  0
    2.5987   -3.0002    0.0000 C   0  0  0  0  0  0  0  0  0  0  0  0
   -1.3000    0.7500    0.0000 C   0  0  0  0  0  0  0  0  0  0  0  0
    0.0000    1.5000    0.0000 C   0  0  0  0  0  0  0  0  0  0  0  0
   -1.3000   -0.7500    0.0000 C   0  0  0  0  0  0  0  0  0  0  0  0
    1.3000    0.7500    0.0000 C   0  0  0  0  0  0  0  0  0  0  0  0
    0.0000   -1.5000    0.0000 C   0  0  0  0  0  0  0  0  0  0  0  0
    1.3000   -0.7500    0.0000 C   0  0  0  0  0  0  0  0  0  0  0  0
    2.5989   -1.5002    0.0000 Si  0  0  0  0  0  4  0  0  0  0  0  0
  4  3  2  0
  5  3  1  0
  6  4  1  0
  7  5  2  0
  8  6  2  0
  8  7  1  0
  9  1  1  0
  9  2  1  0
  9  8  1  0
M  END
>  <NAME>  (6593) 
PHENYLDIMETHYLSILANE

>  <SYNONYMS>  (6593) 


>  <SPECTRUM TYPE>  (6593) 
MS1

>  <INSTRUMENT TYPE>  (6593) 
EI-B

>  <INSTRUMENT>  (6593) 
JEOL JMS-D-3000

>  <ION MODE>  (6593) 
P

>  <INCHIKEY>  (6593) 
ZISUALSZTAEPJH-UHFFFAOYSA-N

>  <FORMULA>  (6593) 
C8H12Si

>  <EXACT MASS>  (6593) 
136.070826914

>  <MW>  (6593) 
136

>  <ID>  (6593) 
JP001424

>  <CONTRIBUTOR>  (6593) 
University of Tokyo Team, {Faculty of Engineering, University of Tokyo

>  <COMMENT>  (6593) 
SMILES=C[SiH](C)c(c1)cccc1
InChI=InChI=1S/C8H12Si/c1-9(2)8-6-4-3-5-7-8/h3-7,9H,1-2H3
computed SMILES=C=1C=CC(=CC1)[SiH](C)C
accession=JP001424
date=2016.01.19 (Created 2008.10.21, modified 2011.05.06)
author=MASS SPECTROSCOPY SOC. OF JAPAN (MSSJ)
license=CC BY-NC-SA
exact mass=136.07083
ionization energy=70 eV
ion type=[M]+*
computed spectral entropy=2.4549762331804588
computed normalized entropy=0.7217976370370833
SPLASH=splash10-00dr-3900000000-3a1a96758db21877ddb4
submitter=submitter = University of Tokyo Team (Faculty of Engineering, University of Tokyo)
MoNA Rating=3.75

>  <NUM PEAKS>  (6593) 
30

>  <MASS SPECTRAL PEAKS>  (6593) 
43 16.7
51 1.77
53 6.85
55 1.61
57 1.56
58 33.31
59 1.71
64 1.34
65 1.56
66 3.23
69 1.77
79 1.73
80 1.3
81 3.55
84 1.44
98 2.77
100 3.27
101 2.84
107 1.36
108 14.87
109 3.41
119 4.05
120 3.92
121 99.99
122 13.21
123 4.09
135 29.6
136 50.95
137 7.53
138 2.38

$$$$

     RDKit          2D

  9  8  0  0  0  0  0  0  0  0999 V2000
    2.0490    4.0981    0.0000 C   0  0  0  0  0  0  0  0  0  0  0  0
    2.0490    1.0981    0.0000 C   0  0  0  0  0  0  0  0  0  0  0  0
    3.5490    2.5981    0.0000 C   0  0  0  0  0  0  0  0  0  0  0  0
   -1.5000    2.0490    0.0000 C   0  0  0  0  0  0  0  0  0  0  0  0
   -0.9510    0.0000    0.0000 C   0  0  0  0  0  0  0  0  0  0  0  0
    1.0981    0.5490    0.0000 C   0  0  0  0  0  0  0  0  0  0  0  0
    2.0490    2.5981    0.0000 C   0  0  0  0  0  0  0  0  0  0  0  0
    0.5490    2.5981    0.0000 O   0  0  0  0  0  0  0  0  0  0  0  0
   -0.2010    1.2990    0.0000 Si  0  0  0  0  0  4  0  0  0  0  0  0
  7  1  1  0
  7  2  1  0
  7  3  1  0
  8  7  1  0
  9  4  1  0
  9  5  1  0
  9  6  1  0
  9  8  1  0
M  END
>  <NAME>  (6594) 
TERT-BUTOXYTRIMETHYLSILANE

>  <SYNONYMS>  (6594) 


>  <SPECTRUM TYPE>  (6594) 
MS1

>  <INSTRUMENT TYPE>  (6594) 
EI-B

>  <INSTRUMENT>  (6594) 
JEOL JMS-D-3000

>  <ION MODE>  (6594) 
P

>  <INCHIKEY>  (6594) 
PGZGBYCKAOEPQZ-UHFFFAOYSA-N

>  <FORMULA>  (6594) 
C7H18OSi

>  <EXACT MASS>  (6594) 
146.112691726

>  <MW>  (6594) 
146

>  <ID>  (6594) 
JP001423

>  <CONTRIBUTOR>  (6594) 
University of Tokyo Team, {Faculty of Engineering, University of Tokyo

>  <COMMENT>  (6594) 
SMILES=CC(C)(C)O[Si](C)(C)C
InChI=InChI=1S/C7H18OSi/c1-7(2,3)8-9(4,5)6/h1-6H3
computed SMILES=O(C(C)(C)C)[Si](C)(C)C
accession=JP001423
date=2016.01.19 (Created 2008.10.21, modified 2011.05.06)
author=MASS SPECTROSCOPY SOC. OF JAPAN (MSSJ)
license=CC BY-NC-SA
exact mass=146.11269
ionization energy=70 eV
ion type=[M]+*
computed spectral entropy=2.190823740516583
computed normalized entropy=0.7901726364762709
SPLASH=splash10-00c0-9100000000-49fbe8838fc4ae1208e7
submitter=submitter = University of Tokyo Team (Faculty of Engineering, University of Tokyo)
MoNA Rating=3.75

>  <NUM PEAKS>  (6594) 
16

>  <MASS SPECTRAL PEAKS>  (6594) 
41 6.77
43 29.37
44 2.82
45 13.55
47 5.64
57 6.77
58 18.64
59 13.55
61 5.93
73 68.64
74 11.58
75 99.99
76 5.64
77 3.67
131 53.1
132 4.8

$$$$

     RDKit          2D

  9  8  0  0  0  0  0  0  0  0999 V2000
    2.0490    4.0981    0.0000 C   0  0  0  0  0  0  0  0  0  0  0  0
    2.0490    1.0981    0.0000 C   0  0  0  0  0  0  0  0  0  0  0  0
    3.5490    2.5981    0.0000 C   0  0  0  0  0  0  0  0  0  0  0  0
   -1.5000    2.0490    0.0000 C   0  0  0  0  0  0  0  0  0  0  0  0
   -0.9510    0.0000    0.0000 C   0  0  0  0  0  0  0  0  0  0  0  0
    1.0981    0.5490    0.0000 C   0  0  0  0  0  0  0  0  0  0  0  0
    0.5490    2.5981    0.0000 O   0  0  0  0  0  0  0  0  0  0  0  0
    2.0490    2.5981    0.0000 Si  0  0  0  0  0  4  0  0  0  0  0  0
   -0.2010    1.2990    0.0000 Si  0  0  0  0  0  4  0  0  0  0  0  0
  8  1  1  0
  8  2  1  0
  8  3  1  0
  8  7  1  0
  9  4  1  0
  9  5  1  0
  9  6  1  0
  9  7  1  0
M  END
>  <NAME>  (6595) 
HEXAMETHYLDISILOXANE

>  <SYNONYMS>  (6595) 


>  <SPECTRUM TYPE>  (6595) 
MS1

>  <INSTRUMENT TYPE>  (6595) 
EI-B

>  <INSTRUMENT>  (6595) 
JEOL JMS-D-3000

>  <ION MODE>  (6595) 
P

>  <INCHIKEY>  (6595) 
UQEAIHBTYFGYIE-UHFFFAOYSA-N

>  <FORMULA>  (6595) 
C6H18OSi2

>  <EXACT MASS>  (6595) 
162.089618256

>  <MW>  (6595) 
162

>  <ID>  (6595) 
JP001422

>  <CONTRIBUTOR>  (6595) 
University of Tokyo Team, {Faculty of Engineering, University of Tokyo

>  <COMMENT>  (6595) 
SMILES=C[Si](C)(C)O[Si](C)(C)C
InChI=InChI=1S/C6H18OSi2/c1-8(2,3)7-9(4,5)6/h1-6H3
computed SMILES=O([Si](C)(C)C)[Si](C)(C)C
accession=JP001422
date=2016.01.19 (Created 2008.10.21, modified 2011.05.06)
author=MASS SPECTROSCOPY SOC. OF JAPAN (MSSJ)
license=CC BY-NC-SA
exact mass=162.08962
ionization energy=70 eV
ion type=[M]+*
computed spectral entropy=1.8977663769347575
computed normalized entropy=0.6445256262271083
SPLASH=splash10-0002-4900000000-2a77aec5b226eab8930d
submitter=submitter = University of Tokyo Team (Faculty of Engineering, University of Tokyo)
MoNA Rating=3.75

>  <NUM PEAKS>  (6595) 
19

>  <MASS SPECTRAL PEAKS>  (6595) 
51 1.42
52 5.05
58 1.84
59 13.02
66 14.42
67 2.04
72 1.17
73 17.83
74 2.99
75 2.15
87 1.48
103 1.22
105 1
117 1.45
131 4.97
133 2.01
147 99.99
148 16.54
149 7.96

$$$$

     RDKit          2D

 14 15  0  0  0  0  0  0  0  0999 V2000
    2.4838    3.1891    0.0000 C   0  0  0  0  0  0  0  0  0  0  0  0
    0.5047    3.9528    0.0000 C   0  0  0  0  0  0  0  0  0  0  0  0
   -0.2591    1.9738    0.0000 C   0  0  0  0  0  0  0  0  0  0  0  0
    3.0195    1.9591    0.0000 C   0  0  0  0  0  0  0  0  0  0  0  0
   -2.3100   -0.7500    0.0000 C   0  0  0  0  0  0  0  0  0  0  0  0
   -2.3100    0.7500    0.0000 C   0  0  0  0  0  0  0  0  0  0  0  0
   -1.0100   -1.5000    0.0000 C   0  0  0  0  0  0  0  0  0  0  0  0
   -1.0100    1.5000    0.0000 C   0  0  0  0  0  0  0  0  0  0  0  0
    1.7200   -1.2100    0.0000 C   0  0  0  0  0  0  0  0  0  0  0  0
    2.6000    0.0000    0.0000 C   0  0  0  0  0  0  0  0  0  0  0  0
    0.2900   -0.7500    0.0000 C   0  0  0  0  0  0  0  0  0  0  0  0
    0.2900    0.7500    0.0000 C   0  0  0  0  0  0  0  0  0  0  0  0
    1.1124    2.5814    0.0000 Si  0  0  0  0  0  4  0  0  0  0  0  0
    1.7200    1.2100    0.0000 Si  0  0  0  0  0  4  0  0  0  0  0  0
  6  5  2  0
  7  5  1  0
  8  6  1  0
 10  9  1  0
 11  7  2  0
 11  9  1  0
 12  8  2  0
 12 11  1  0
 13  1  1  0
 13  2  1  0
 13  3  1  0
 14  4  1  0
 14 10  1  0
 14 12  1  0
 14 13  1  0
M  END
>  <NAME>  (6596) 
1-METHYL-1-TRIMETHYLSILYL-2,3-BENZO-1-SILA-2-CYCLOPENTENE

>  <SYNONYMS>  (6596) 
1-METHYL-1-TRIMETHYLSILYL-1-SILAINDAN

>  <SPECTRUM TYPE>  (6596) 
MS1

>  <INSTRUMENT TYPE>  (6596) 
EI-B

>  <INSTRUMENT>  (6596) 
JEOL JMS-D-3000

>  <ION MODE>  (6596) 
P

>  <INCHIKEY>  (6596) 
WUMUSHPXANMKDT-UHFFFAOYSA-N

>  <FORMULA>  (6596) 
C12H20Si2

>  <EXACT MASS>  (6596) 
220.1103537

>  <MW>  (6596) 
220

>  <ID>  (6596) 
JP001386

>  <CONTRIBUTOR>  (6596) 
University of Tokyo Team, {Faculty of Engineering, University of Tokyo

>  <COMMENT>  (6596) 
SMILES=c(c2)cc(C1)c(c2)[Si](C)(C1)[Si](C)(C)C
InChI=InChI=1S/C12H20Si2/c1-13(2,3)14(4)10-9-11-7-5-6-8-12(11)14/h5-8H,9-10H2,1-4H3
computed SMILES=C=1C=CC2=C(C1)CC[Si]2(C)[Si](C)(C)C
accession=JP001386
date=2016.01.19 (Created 2008.10.21, modified 2011.05.06)
author=MASS SPECTROSCOPY SOC. OF JAPAN (MSSJ)
license=CC BY-NC-SA
exact mass=220.11035
ionization energy=70 eV
ion type=[M]+*
computed spectral entropy=2.5591119552959105
computed normalized entropy=0.7384036253970138
SPLASH=splash10-0002-1910000000-3897ed38ca9578262205
submitter=submitter = University of Tokyo Team (Faculty of Engineering, University of Tokyo)
MoNA Rating=3.75

>  <NUM PEAKS>  (6596) 
32

>  <MASS SPECTRAL PEAKS>  (6596) 
43 7.2
45 6.36
53 2.46
59 3.77
73 20.91
74 1.78
75 1.26
93 1.59
103 1.07
105 6.8
106 1.08
117 1.36
119 4.49
121 3.46
130 1.27
131 5.43
132 2.27
143 3.21
145 38
146 10.67
147 99.99
148 15.15
149 4.83
160 3.95
161 1.76
177 4.84
191 1.14
205 6.06
206 1.48
220 23.13
221 5.55
222 2.27

$$$$

     RDKit          2D

 12 12  0  0  0  0  0  0  0  0999 V2000
   -4.8450    1.2710    0.0000 C   0  0  0  0  0  0  0  0  0  0  0  0
    1.6750   -0.9173    0.0000 C   0  0  0  0  0  0  0  0  0  0  0  0
    2.9739   -0.1624    0.0000 C   0  0  0  0  0  0  0  0  0  0  0  0
    0.3631   -0.1901    0.0000 C   0  0  0  0  0  0  0  0  0  0  0  0
    2.9530    1.3470    0.0000 C   0  0  0  0  0  0  0  0  0  0  0  0
   -0.9543    2.0535    0.0000 C   0  0  0  0  0  0  0  0  0  0  0  0
   -2.2470    1.2927    0.0000 C   0  0  0  0  0  0  0  0  0  0  0  0
    0.3509    1.3144    0.0000 C   0  0  0  0  0  0  0  0  0  0  0  0
    1.6411    2.0742    0.0000 C   0  0  0  0  0  0  0  0  0  0  0  0
    1.6215    3.5741    0.0000 Cl  0  0  0  0  0  0  0  0  0  0  0  0
   -3.5648    3.5318    0.0000 Cl  0  0  0  0  0  0  0  0  0  0  0  0
   -3.5523    2.0318    0.0000 Si  0  0  0  0  0  4  0  0  0  0  0  0
  3  2  2  0
  4  2  1  0
  5  3  1  0
  7  6  1  0
  8  4  2  0
  8  6  1  0
  9  5  2  0
  9  8  1  0
 10  9  1  0
 12  1  1  0
 12  7  1  0
 12 11  1  0
M  END
>  <NAME>  (6597) 
2-CHLORO-4-(ORTHO-CHLOROPHENYL)-2-SILABUTANE

>  <SYNONYMS>  (6597) 


>  <SPECTRUM TYPE>  (6597) 
MS1

>  <INSTRUMENT TYPE>  (6597) 
EI-B

>  <INSTRUMENT>  (6597) 
JEOL JMS-D-3000

>  <ION MODE>  (6597) 
P

>  <INCHIKEY>  (6597) 
HLEZVSOYFMMODO-UHFFFAOYSA-N

>  <FORMULA>  (6597) 
C9H12Cl2Si

>  <EXACT MASS>  (6597) 
218.008532274

>  <MW>  (6597) 
218

>  <ID>  (6597) 
JP001385

>  <CONTRIBUTOR>  (6597) 
University of Tokyo Team, {Faculty of Engineering, University of Tokyo

>  <COMMENT>  (6597) 
SMILES=C[SiH](Cl)CCc(c1)c(Cl)ccc1
InChI=InChI=1S/C9H12Cl2Si/c1-12(11)7-6-8-4-2-3-5-9(8)10/h2-5,12H,6-7H2,1H3
computed SMILES=ClC=1C=CC=CC1CC[SiH](Cl)C
accession=JP001385
date=2016.01.19 (Created 2008.10.21, modified 2011.05.06)
author=MASS SPECTROSCOPY SOC. OF JAPAN (MSSJ)
license=CC BY-NC-SA
exact mass=218.00853
ionization energy=70 eV
ion type=[M]+*
computed spectral entropy=3.69454309299855
computed normalized entropy=0.8294241214882327
SPLASH=splash10-056u-5900000000-a5d0a19a0791ecec31a3
submitter=submitter = University of Tokyo Team (Faculty of Engineering, University of Tokyo)
MoNA Rating=3.75

>  <NUM PEAKS>  (6597) 
86

>  <MASS SPECTRAL PEAKS>  (6597) 
43 5.37
44 1.21
45 1.25
50 3.23
51 8.22
52 1.7
53 1.37
55 1.02
61 1.9
62 1.15
63 10.57
64 1.01
65 4.97
73 1.01
74 1.6
75 5.46
76 3.01
77 23.14
78 19.69
79 22.34
80 3.55
81 7.93
89 6.98
90 2.62
91 99.99
92 9.21
93 1.11
95 1.2
99 3.1
101 3.26
102 5.21
103 30.71
104 14.73
105 55.05
106 12.68
107 1.23
108 3.61
112 2.39
113 11.41
114 1.61
115 7.87
117 1.63
125 39.83
126 3.12
127 13.3
128 1.07
131 4.62
138 3.9
139 4.81
140 2.11
141 3.03
143 1.14
145 2.95
146 3.52
147 11.6
148 1.89
149 1.47
155 32.04
156 4.41
157 12.57
158 1.59
163 1.14
165 4.37
167 12.92
168 2
169 4.34
175 15.34
176 2.01
177 10.6
178 1.35
179 2.74
181 1.14
182 2.58
183 13
184 2.87
185 5.23
189 1.79
191 1.3
203 2.91
205 1.87
217 1.29
218 8.58
219 2.16
220 6.14
221 1.17
222 1.24

$$$$

     RDKit          2D

 10 10  0  0  0  0  0  0  0  0999 V2000
    1.6631   -1.6589    0.0000 C   0  0  0  0  0  0  0  0  0  0  0  0
    2.9619   -0.9039    0.0000 C   0  0  0  0  0  0  0  0  0  0  0  0
    0.3512   -0.9317    0.0000 C   0  0  0  0  0  0  0  0  0  0  0  0
    2.9411    0.6054    0.0000 C   0  0  0  0  0  0  0  0  0  0  0  0
   -0.9662    1.3120    0.0000 C   0  0  0  0  0  0  0  0  0  0  0  0
   -2.2590    0.5512    0.0000 C   0  0  0  0  0  0  0  0  0  0  0  0
    0.3390    0.5729    0.0000 C   0  0  0  0  0  0  0  0  0  0  0  0
    1.6291    1.3327    0.0000 C   0  0  0  0  0  0  0  0  0  0  0  0
   -3.5642    1.2903    0.0000 Cl  0  0  0  0  0  0  0  0  0  0  0  0
    1.6096    2.8325    0.0000 Cl  0  0  0  0  0  0  0  0  0  0  0  0
  2  1  2  0
  3  1  1  0
  4  2  1  0
  6  5  1  0
  7  3  2  0
  7  5  1  0
  8  4  2  0
  8  7  1  0
  9  6  1  0
 10  8  1  0
M  END
>  <NAME>  (6598) 
1-CHLORO-2-(ORTHO-CHLOROPHENYL)-ETHANE

>  <SYNONYMS>  (6598) 
1-CHLORO-2-(2-CHLOROETHYL)BENZENE

>  <SPECTRUM TYPE>  (6598) 
MS1

>  <INSTRUMENT TYPE>  (6598) 
EI-B

>  <INSTRUMENT>  (6598) 
JEOL JMS-D-3000

>  <ION MODE>  (6598) 
P

>  <INCHIKEY>  (6598) 
NFWMXIVUTWWCNO-UHFFFAOYSA-N

>  <FORMULA>  (6598) 
C8H8Cl2

>  <EXACT MASS>  (6598) 
174.000305616

>  <MW>  (6598) 
174

>  <ID>  (6598) 
JP001384

>  <CONTRIBUTOR>  (6598) 
University of Tokyo Team, {Faculty of Engineering, University of Tokyo

>  <COMMENT>  (6598) 
SMILES=ClCCc(c1)c(Cl)ccc1
InChI=InChI=1S/C8H8Cl2/c9-6-5-7-3-1-2-4-8(7)10/h1-4H,5-6H2
computed SMILES=ClC=1C=CC=CC1CCCl
accession=JP001384
date=2016.01.19 (Created 2008.10.21, modified 2011.05.06)
author=MASS SPECTROSCOPY SOC. OF JAPAN (MSSJ)
license=CC BY-NC-SA
exact mass=174.00031
ionization energy=70 eV
ion type=[M]+*
computed spectral entropy=2.0013801047228506
computed normalized entropy=0.668077091664974
SPLASH=splash10-004i-1900000000-1a01410bacc42798666c
submitter=submitter = University of Tokyo Team (Faculty of Engineering, University of Tokyo)
MoNA Rating=3.75

>  <NUM PEAKS>  (6598) 
20

>  <MASS SPECTRAL PEAKS>  (6598) 
50 1.96
51 3.74
63 2.1
75 3.08
77 4.82
89 4.41
90 1.43
99 1.89
101 2.61
102 2.13
103 5.17
125 99.99
126 8.47
127 33.95
128 2.54
138 1.16
139 2.49
174 24.42
175 2.31
176 16.37

$$$$

     RDKit          2D

 10  9  0  0  0  0  0  0  0  0999 V2000
    1.3260   -0.6495    0.0000 C   0  0  0  0  0  0  0  0  0  0  0  0
   -0.1740    1.9486    0.0000 C   0  0  0  0  0  0  0  0  0  0  0  0
   -0.7231   -0.1005    0.0000 C   0  0  0  0  0  0  0  0  0  0  0  0
    3.9240    2.3505    0.0000 C   0  0  0  0  0  0  0  0  0  0  0  0
    4.4731    4.3995    0.0000 C   0  0  0  0  0  0  0  0  0  0  0  0
    2.4240    4.9486    0.0000 C   0  0  0  0  0  0  0  0  0  0  0  0
    1.8750    1.3995    0.0000 C   0  0  0  0  0  0  0  0  0  0  0  0
    1.8750    2.8995    0.0000 C   0  0  0  0  0  0  0  0  0  0  0  0
    0.5760    0.6495    0.0000 C   0  0  0  0  0  0  0  0  0  0  0  0
    3.1740    3.6495    0.0000 Si  0  0  0  0  0  4  0  0  0  0  0  0
  7  8  2  0
  9  1  1  0
  9  2  1  0
  9  3  1  0
  9  7  1  0
 10  4  1  0
 10  5  1  0
 10  6  1  0
 10  8  1  0
M  END
>  <NAME>  (6599) 
(E)-3,3-DIMETHYL-1-TRIMETHYLSILYL-1-BUTENE

>  <SYNONYMS>  (6599) 


>  <SPECTRUM TYPE>  (6599) 
MS1

>  <INSTRUMENT TYPE>  (6599) 
EI-B

>  <INSTRUMENT>  (6599) 
JEOL JMS-D-3000

>  <ION MODE>  (6599) 
P

>  <INCHIKEY>  (6599) 
BRIDLWZGGDIJRM-BQYQJAHWSA-N

>  <FORMULA>  (6599) 
C9H20Si

>  <EXACT MASS>  (6599) 
156.13342717

>  <MW>  (6599) 
156

>  <ID>  (6599) 
JP001383

>  <CONTRIBUTOR>  (6599) 
University of Tokyo Team, {Faculty of Engineering, University of Tokyo

>  <COMMENT>  (6599) 
SMILES=CC(C)(C)C([H])=C([H])[Si](C)(C)C
InChI=InChI=1S/C9H20Si/c1-9(2,3)7-8-10(4,5)6/h7-8H,1-6H3/b8-7+
computed SMILES=C(=C[Si](C)(C)C)C(C)(C)C
accession=JP001383
date=2016.01.19 (Created 2008.10.21, modified 2011.05.06)
author=MASS SPECTROSCOPY SOC. OF JAPAN (MSSJ)
license=CC BY-NC-SA
exact mass=156.13343
ionization energy=70 eV
ion type=[M]+*
computed spectral entropy=2.018898982493211
computed normalized entropy=0.6631250134595382
SPLASH=splash10-00di-9100000000-a1064a27e58482f29652
submitter=submitter = University of Tokyo Team (Faculty of Engineering, University of Tokyo)
MoNA Rating=3.75

>  <NUM PEAKS>  (6599) 
21

>  <MASS SPECTRAL PEAKS>  (6599) 
43 1.88
45 3.64
53 1.03
55 2.22
57 2.55
58 1.35
59 15.17
60 1.69
73 99.99
74 6.78
75 3.57
82 5.66
83 3.02
85 7.72
97 1.14
99 20.7
113 3.98
125 1.21
141 20.3
142 3.11
156 2.32

$$$$

     RDKit          2D

 10  9  0  0  0  0  0  0  0  0999 V2000
    3.0099    1.0613    0.0000 C   0  0  0  0  0  0  0  0  0  0  0  0
    1.1618   -0.2377    0.0000 C   0  0  0  0  0  0  0  0  0  0  0  0
   -0.3382    2.3603    0.0000 C   0  0  0  0  0  0  0  0  0  0  0  0
   -0.8873    0.3113    0.0000 C   0  0  0  0  0  0  0  0  0  0  0  0
    3.2108    3.3113    0.0000 C   0  0  0  0  0  0  0  0  0  0  0  0
    1.7108    4.8113    0.0000 C   0  0  0  0  0  0  0  0  0  0  0  0
    0.2108    3.3113    0.0000 C   0  0  0  0  0  0  0  0  0  0  0  0
    1.7108    1.8113    0.0000 C   0  0  0  0  0  0  0  0  0  0  0  0
    0.4118    1.0613    0.0000 Si  0  0  0  0  0  4  0  0  0  0  0  0
    1.7108    3.3113    0.0000 Si  0  0  0  0  0  4  0  0  0  0  0  0
  8  1  2  0
  9  2  1  0
  9  3  1  0
  9  4  1  0
  9  8  1  0
 10  5  1  0
 10  6  1  0
 10  7  1  0
 10  8  1  0
M  END
>  <NAME>  (6600) 
1,1-BIS(TRIMETHYLSILYL)ETHYLENE

>  <SYNONYMS>  (6600) 


>  <SPECTRUM TYPE>  (6600) 
MS1

>  <INSTRUMENT TYPE>  (6600) 
EI-B

>  <INSTRUMENT>  (6600) 
JEOL JMS-D-3000

>  <ION MODE>  (6600) 
P

>  <INCHIKEY>  (6600) 
CVCQWLSMIOKNLE-UHFFFAOYSA-N

>  <FORMULA>  (6600) 
C8H20Si2

>  <EXACT MASS>  (6600) 
172.1103537

>  <MW>  (6600) 
172

>  <ID>  (6600) 
JP001382

>  <CONTRIBUTOR>  (6600) 
University of Tokyo Team, {Faculty of Engineering, University of Tokyo

>  <COMMENT>  (6600) 
SMILES=C[Si](C)(C)C(=C)[Si](C)(C)C
InChI=InChI=1S/C8H20Si2/c1-8(9(2,3)4)10(5,6)7/h1H2,2-7H3
computed SMILES=C=C([Si](C)(C)C)[Si](C)(C)C
accession=JP001382
date=2016.01.19 (Created 2008.10.21, modified 2011.05.06)
author=MASS SPECTROSCOPY SOC. OF JAPAN (MSSJ)
license=CC BY-NC-SA
exact mass=172.11035
ionization energy=70 eV
ion type=[M]+*
computed spectral entropy=1.9145234021782052
computed normalized entropy=0.6502167019675169
SPLASH=splash10-00di-9200000000-7bc498e66838fd6ea846
submitter=submitter = University of Tokyo Team (Faculty of Engineering, University of Tokyo)
MoNA Rating=3.75

>  <NUM PEAKS>  (6600) 
19

>  <MASS SPECTRAL PEAKS>  (6600) 
43 5.48
45 12.14
55 1.52
58 2.59
59 4.92
69 1.01
73 99.99
74 8.71
75 3.85
83 4.72
84 6.37
85 1.18
98 1.2
99 2.74
157 23.85
158 4.24
159 1.94
172 7.2
173 1.4

$$$$

     RDKit          2D

  9  8  0  0  0  0  0  0  0  0999 V2000
    0.0000    0.0000    0.0000 C   0  0  0  0  0  0  0  0  0  0  0  0
    1.2990    2.2500    0.0000 C   0  0  0  0  0  0  0  0  0  0  0  0
   -1.8481    5.7990    0.0000 C   0  0  0  0  0  0  0  0  0  0  0  0
   -3.8971    5.2500    0.0000 C   0  0  0  0  0  0  0  0  0  0  0  0
   -3.3481    3.2010    0.0000 C   0  0  0  0  0  0  0  0  0  0  0  0
   -1.2990    2.2500    0.0000 C   0  0  0  0  0  0  0  0  0  0  0  0
   -1.2990    3.7500    0.0000 C   0  0  0  0  0  0  0  0  0  0  0  0
    0.0000    1.5000    0.0000 Si  0  0  0  0  0  4  0  0  0  0  0  0
   -2.5981    4.5000    0.0000 Si  0  0  0  0  0  4  0  0  0  0  0  0
  6  7  2  0
  8  1  1  0
  8  2  1  0
  8  6  1  0
  9  3  1  0
  9  4  1  0
  9  5  1  0
  9  7  1  0
M  END
>  <NAME>  (6601) 
(E)-1-DIMETHYLSILYL-2-TRIMETHYLSILYLETHYLENE

>  <SYNONYMS>  (6601) 


>  <SPECTRUM TYPE>  (6601) 
MS1

>  <INSTRUMENT TYPE>  (6601) 
EI-B

>  <INSTRUMENT>  (6601) 
JEOL JMS-D-3000

>  <ION MODE>  (6601) 
P

>  <INCHIKEY>  (6601) 
CREOOXLOBAKASH-VOTSOKGWSA-N

>  <FORMULA>  (6601) 
C7H18Si2

>  <EXACT MASS>  (6601) 
158.094703636

>  <MW>  (6601) 
158

>  <ID>  (6601) 
JP001381

>  <CONTRIBUTOR>  (6601) 
University of Tokyo Team, {Faculty of Engineering, University of Tokyo

>  <COMMENT>  (6601) 
SMILES=C[SiH](C)C([H])=C([H])[Si](C)(C)C
InChI=InChI=1S/C7H18Si2/c1-8(2)6-7-9(3,4)5/h6-8H,1-5H3/b7-6+
computed SMILES=C(=C[Si](C)(C)C)[SiH](C)C
accession=JP001381
date=2016.01.19 (Created 2008.10.21, modified 2011.05.06)
author=MASS SPECTROSCOPY SOC. OF JAPAN (MSSJ)
license=CC BY-NC-SA
exact mass=158.0947
ionization energy=70 eV
ion type=[M]+*
computed spectral entropy=2.321628177525253
computed normalized entropy=0.7125719420625546
SPLASH=splash10-00di-9100000000-c50f40e20ce15b01f16c
submitter=submitter = University of Tokyo Team (Faculty of Engineering, University of Tokyo)
MoNA Rating=3.75

>  <NUM PEAKS>  (6601) 
26

>  <MASS SPECTRAL PEAKS>  (6601) 
43 7.49
45 8.25
53 1.08
55 1.77
58 2.86
59 19.06
60 1.67
69 1.26
73 99.99
74 7.9
75 3.87
83 20.77
84 3.33
85 30.69
86 3.03
87 1.2
99 4.3
116 1.22
117 1.56
127 1.45
143 17.98
144 3.1
145 1.49
158 13.88
159 2.54
160 1.16

$$$$

     RDKit          2D

 10  9  0  0  0  0  0  0  0  0999 V2000
    1.3260   -0.6495    0.0000 C   0  0  0  0  0  0  0  0  0  0  0  0
   -0.1740    1.9486    0.0000 C   0  0  0  0  0  0  0  0  0  0  0  0
   -0.7231   -0.1005    0.0000 C   0  0  0  0  0  0  0  0  0  0  0  0
    3.9240    2.3505    0.0000 C   0  0  0  0  0  0  0  0  0  0  0  0
    4.4731    4.3995    0.0000 C   0  0  0  0  0  0  0  0  0  0  0  0
    1.8750    1.3995    0.0000 C   0  0  0  0  0  0  0  0  0  0  0  0
    1.8750    2.8995    0.0000 C   0  0  0  0  0  0  0  0  0  0  0  0
    2.4240    4.9486    0.0000 Cl  0  0  0  0  0  0  0  0  0  0  0  0
    0.5760    0.6495    0.0000 Si  0  0  0  0  0  4  0  0  0  0  0  0
    3.1740    3.6495    0.0000 Si  0  0  0  0  0  4  0  0  0  0  0  0
  6  7  2  0
  9  1  1  0
  9  2  1  0
  9  3  1  0
  9  6  1  0
 10  4  1  0
 10  5  1  0
 10  7  1  0
 10  8  1  0
M  END
>  <NAME>  (6602) 
(E)-1-CHLORODIMETHYLSILYL-2-TRIMETHYLSILYLETHYLENE

>  <SYNONYMS>  (6602) 


>  <SPECTRUM TYPE>  (6602) 
MS1

>  <INSTRUMENT TYPE>  (6602) 
EI-B

>  <INSTRUMENT>  (6602) 
JEOL JMS-D-3000

>  <ION MODE>  (6602) 
P

>  <INCHIKEY>  (6602) 
WEMBKSMRXMFHPR-VOTSOKGWSA-N

>  <FORMULA>  (6602) 
C7H17ClSi2

>  <EXACT MASS>  (6602) 
192.055731284

>  <MW>  (6602) 
192

>  <ID>  (6602) 
JP001380

>  <CONTRIBUTOR>  (6602) 
University of Tokyo Team, {Faculty of Engineering, University of Tokyo

>  <COMMENT>  (6602) 
SMILES=[H]C([Si](C)(C)C)=C([H])[Si](C)(C)Cl
InChI=InChI=1S/C7H17ClSi2/c1-9(2,3)6-7-10(4,5)8/h6-7H,1-5H3/b7-6+
computed SMILES=Cl[Si](C=C[Si](C)(C)C)(C)C
accession=JP001380
date=2016.01.19 (Created 2008.10.21, modified 2011.05.06)
author=MASS SPECTROSCOPY SOC. OF JAPAN (MSSJ)
license=CC BY-NC-SA
exact mass=192.05573
ionization energy=70 eV
ion type=[M]+*
computed spectral entropy=2.7429081909615323
computed normalized entropy=0.7486998871328576
SPLASH=splash10-00ai-9200000000-7614308a4ce9d0deaa4d
submitter=submitter = University of Tokyo Team (Faculty of Engineering, University of Tokyo)
MoNA Rating=3.75

>  <NUM PEAKS>  (6602) 
39

>  <MASS SPECTRAL PEAKS>  (6602) 
43 10.64
45 6.85
53 2.1
55 3.58
57 1.15
58 8
59 12.26
60 1.76
63 2.68
65 4.49
67 2.95
69 2
72 1.59
73 67.5
74 1.08
75 4.67
81 2.27
83 99.99
84 18.12
85 5.34
93 14.71
94 1.09
95 5.79
97 1.14
98 1.86
99 52.57
100 5.77
101 2.3
157 2.53
159 2
161 2.47
177 45.14
178 7.84
179 18.52
180 2.95
181 1.29
192 7.3
193 1.28
194 2.64

$$$$

     RDKit          2D

  6  5  0  0  0  0  0  0  0  0999 V2000
   -0.0000   -0.0000    0.0000 C   0  0  0  0  0  0  0  0  0  0  0  0
    1.2990    2.2500    0.0000 C   0  0  0  0  0  0  0  0  0  0  0  0
   -2.5981    1.5000    0.0000 C   0  0  0  0  0  0  0  0  0  0  0  0
   -1.2990    3.7500    0.0000 C   0  0  0  0  0  0  0  0  0  0  0  0
   -0.0000    1.5000    0.0000 C   0  0  0  0  0  0  0  0  0  0  0  0
   -1.2990    2.2500    0.0000 C   0  0  0  0  0  0  0  0  0  0  0  0
  5  1  2  0
  5  2  1  0
  6  3  2  0
  6  4  1  0
  6  5  1  0
M  END
>  <NAME>  (6603) 
2,3-DIMETHYL-1,3-BUTADIENE

>  <SYNONYMS>  (6603) 


>  <SPECTRUM TYPE>  (6603) 
MS1

>  <INSTRUMENT TYPE>  (6603) 
EI-B

>  <INSTRUMENT>  (6603) 
JEOL JMS-D-3000

>  <ION MODE>  (6603) 
P

>  <INCHIKEY>  (6603) 
SDJHPPZKZZWAKF-UHFFFAOYSA-N

>  <FORMULA>  (6603) 
C6H10

>  <EXACT MASS>  (6603) 
82.07825032

>  <MW>  (6603) 
82

>  <ID>  (6603) 
JP001378

>  <CONTRIBUTOR>  (6603) 
University of Tokyo Team, {Faculty of Engineering, University of Tokyo

>  <COMMENT>  (6603) 
SMILES=CC(=C)C(C)=C
InChI=InChI=1S/C6H10/c1-5(2)6(3)4/h1,3H2,2,4H3
computed SMILES=C=C(C(=C)C)C
accession=JP001378
date=2016.01.19 (Created 2008.10.21, modified 2011.05.06)
author=MASS SPECTROSCOPY SOC. OF JAPAN (MSSJ)
license=CC BY-NC-SA
exact mass=82.07825
ionization energy=70 eV
ion type=[M]+*
computed spectral entropy=2.2838799921573814
computed normalized entropy=0.8433669328684579
SPLASH=splash10-0gc3-9000000000-f32cda4dd40b68516583
submitter=submitter = University of Tokyo Team (Faculty of Engineering, University of Tokyo)
MoNA Rating=3.75

>  <NUM PEAKS>  (6603) 
15

>  <MASS SPECTRAL PEAKS>  (6603) 
41 63.77
42 15.3
43 9.69
45 8.16
51 10.2
53 16.83
54 30.61
55 10.71
56 9.69
65 13.77
67 99.99
79 8.16
81 13.26
82 66.32
83 9.18

$$$$

     RDKit          2D

 18 18  0  0  0  0  0  0  0  0999 V2000
    1.5000    3.0000    0.0000 C   0  0  0  0  0  0  0  0  0  0  0  0
    0.0000    4.5000    0.0000 C   0  0  0  0  0  0  0  0  0  0  0  0
   -1.5000    3.0000    0.0000 C   0  0  0  0  0  0  0  0  0  0  0  0
    1.8487   -2.7991    0.0000 C   0  0  0  0  0  0  0  0  0  0  0  0
    3.8978   -2.2504    0.0000 C   0  0  0  0  0  0  0  0  0  0  0  0
    3.3491   -0.2013    0.0000 C   0  0  0  0  0  0  0  0  0  0  0  0
   -3.3491   -0.2013    0.0000 C   0  0  0  0  0  0  0  0  0  0  0  0
   -3.8978   -2.2504    0.0000 C   0  0  0  0  0  0  0  0  0  0  0  0
   -1.8487   -2.7991    0.0000 C   0  0  0  0  0  0  0  0  0  0  0  0
    1.3000    0.7500    0.0000 C   0  0  0  0  0  0  0  0  0  0  0  0
   -1.3000    0.7500    0.0000 C   0  0  0  0  0  0  0  0  0  0  0  0
    0.0000   -1.5000    0.0000 C   0  0  0  0  0  0  0  0  0  0  0  0
    0.0000    1.5000    0.0000 C   0  0  0  0  0  0  0  0  0  0  0  0
    1.3000   -0.7500    0.0000 C   0  0  0  0  0  0  0  0  0  0  0  0
   -1.3000   -0.7500    0.0000 C   0  0  0  0  0  0  0  0  0  0  0  0
    0.0000    3.0000    0.0000 C   0  0  0  0  0  0  0  0  0  0  0  0
    2.5989   -1.5002    0.0000 C   0  0  0  0  0  0  0  0  0  0  0  0
   -2.5989   -1.5002    0.0000 C   0  0  0  0  0  0  0  0  0  0  0  0
 13 10  2  0
 13 11  1  0
 14 10  1  0
 14 12  2  0
 15 11  2  0
 15 12  1  0
 16  1  1  0
 16  2  1  0
 16  3  1  0
 16 13  1  0
 17  4  1  0
 17  5  1  0
 17  6  1  0
 17 14  1  0
 18  7  1  0
 18  8  1  0
 18  9  1  0
 18 15  1  0
M  END
>  <NAME>  (6604) 
1,3,5-TRI-TERT-BUTYLBENZENE

>  <SYNONYMS>  (6604) 


>  <SPECTRUM TYPE>  (6604) 
MS1

>  <INSTRUMENT TYPE>  (6604) 
EI-B

>  <INSTRUMENT>  (6604) 
JEOL JMS-D-3000

>  <ION MODE>  (6604) 
P

>  <INCHIKEY>  (6604) 
GUFMBISUSZUUCB-UHFFFAOYSA-N

>  <FORMULA>  (6604) 
C18H30

>  <EXACT MASS>  (6604) 
246.23475095999999

>  <MW>  (6604) 
246

>  <ID>  (6604) 
JP001377

>  <CONTRIBUTOR>  (6604) 
University of Tokyo Team, {Faculty of Engineering, University of Tokyo

>  <COMMENT>  (6604) 
computed SMILES=C=1C(=CC(=CC1C(C)(C)C)C(C)(C)C)C(C)(C)C
SMILES=CC(C)(C)c(c1)cc(cc1C(C)(C)C)C(C)(C)C
InChI=InChI=1S/C18H30/c1-16(2,3)13-10-14(17(4,5)6)12-15(11-13)18(7,8)9/h10-12H,1-9H3
accession=JP001377
date=2016.01.19 (Created 2008.10.21, modified 2011.05.06)
author=MASS SPECTROSCOPY SOC. OF JAPAN (MSSJ)
license=CC BY-NC-SA
exact mass=246.23475
ionization energy=70 eV
ion type=[M]+*
computed spectral entropy=1.9314263353478514
computed normalized entropy=0.6159878482746639
SPLASH=splash10-001i-3190000000-424fee2a2ebac213a9f6
submitter=submitter = University of Tokyo Team (Faculty of Engineering, University of Tokyo)
MoNA Rating=3.75

>  <NUM PEAKS>  (6604) 
23

>  <MASS SPECTRAL PEAKS>  (6604) 
40 4.72
55 1.59
57 47.87
58 2.35
91 1.99
94 4.31
100 1.5
108 6.66
109 1.22
115 1.23
117 1.12
128 1.26
129 1.26
131 1.1
159 1.25
175 2.05
203 1.22
215 2.32
231 99.99
232 19.79
233 2.04
246 17.03
247 3.67

$$$$

     RDKit          2D

 18 18  0  0  0  0  0  0  0  0999 V2000
    1.5000    3.0000    0.0000 C   0  0  0  0  0  0  0  0  0  0  0  0
    0.0000    4.5000    0.0000 C   0  0  0  0  0  0  0  0  0  0  0  0
   -1.5000    3.0000    0.0000 C   0  0  0  0  0  0  0  0  0  0  0  0
   -3.3491   -0.2013    0.0000 C   0  0  0  0  0  0  0  0  0  0  0  0
   -3.8978   -2.2504    0.0000 C   0  0  0  0  0  0  0  0  0  0  0  0
   -1.8487   -2.7991    0.0000 C   0  0  0  0  0  0  0  0  0  0  0  0
    1.8487   -2.7991    0.0000 C   0  0  0  0  0  0  0  0  0  0  0  0
    3.8978   -2.2504    0.0000 C   0  0  0  0  0  0  0  0  0  0  0  0
    3.3491   -0.2013    0.0000 C   0  0  0  0  0  0  0  0  0  0  0  0
   -1.3000    0.7500    0.0000 C   0  0  0  0  0  0  0  0  0  0  0  0
    1.3000    0.7500    0.0000 C   0  0  0  0  0  0  0  0  0  0  0  0
    0.0000   -1.5000    0.0000 C   0  0  0  0  0  0  0  0  0  0  0  0
    0.0000    1.5000    0.0000 C   0  0  0  0  0  0  0  0  0  0  0  0
   -1.3000   -0.7500    0.0000 C   0  0  0  0  0  0  0  0  0  0  0  0
    1.3000   -0.7500    0.0000 C   0  0  0  0  0  0  0  0  0  0  0  0
    0.0000    3.0000    0.0000 C   0  0  0  0  0  0  0  0  0  0  0  0
   -2.5989   -1.5002    0.0000 C   0  0  0  0  0  0  0  0  0  0  0  0
    2.5989   -1.5002    0.0000 Si  0  0  0  0  0  4  0  0  0  0  0  0
 13 10  2  0
 13 11  1  0
 14 10  1  0
 14 12  2  0
 15 11  2  0
 15 12  1  0
 16  1  1  0
 16  2  1  0
 16  3  1  0
 16 13  1  0
 17  4  1  0
 17  5  1  0
 17  6  1  0
 17 14  1  0
 18  7  1  0
 18  8  1  0
 18  9  1  0
 18 15  1  0
M  END
>  <NAME>  (6605) 
(3,5-DI-TERT-BUTYLPHENYL)TRIMETHYLSILANE

>  <SYNONYMS>  (6605) 


>  <SPECTRUM TYPE>  (6605) 
MS1

>  <INSTRUMENT TYPE>  (6605) 
EI-B

>  <INSTRUMENT>  (6605) 
JEOL JMS-D-3000

>  <ION MODE>  (6605) 
P

>  <INCHIKEY>  (6605) 
ZVCPSTJBKOWAOL-UHFFFAOYSA-N

>  <FORMULA>  (6605) 
C17H30Si

>  <EXACT MASS>  (6605) 
262.21167749

>  <MW>  (6605) 
262

>  <ID>  (6605) 
JP001376

>  <CONTRIBUTOR>  (6605) 
University of Tokyo Team, {Faculty of Engineering, University of Tokyo

>  <COMMENT>  (6605) 
SMILES=CC(C)(C)c(c1)cc(cc1C(C)(C)C)[Si](C)(C)C
InChI=InChI=1S/C17H30Si/c1-16(2,3)13-10-14(17(4,5)6)12-15(11-13)18(7,8)9/h10-12H,1-9H3
computed SMILES=C=1C(=CC(=CC1C(C)(C)C)[Si](C)(C)C)C(C)(C)C
accession=JP001376
date=2016.01.19 (Created 2008.10.21, modified 2011.05.06)
author=MASS SPECTROSCOPY SOC. OF JAPAN (MSSJ)
license=CC BY-NC-SA
exact mass=262.21168
ionization energy=70 eV
ion type=[M]+*
computed spectral entropy=1.920061386380238
computed normalized entropy=0.6642956502515118
SPLASH=splash10-0002-2090000000-1a71fda8d38eac52e92e
submitter=submitter = University of Tokyo Team (Faculty of Engineering, University of Tokyo)
MoNA Rating=3.75

>  <NUM PEAKS>  (6605) 
18

>  <MASS SPECTRAL PEAKS>  (6605) 
45 2.32
57 8.6
59 3.56
73 25.28
74 2.14
75 1.18
102 5.54
116 4.6
117 1.12
175 2.6
215 1.24
231 4.16
232 1.46
247 99.99
248 23.88
249 6.33
262 11.88
263 3.09

$$$$

     RDKit          2D

 14 14  0  0  0  0  0  0  0  0999 V2000
   -0.8462    1.9961    0.0000 C   0  0  0  0  0  0  0  0  0  0  0  0
   -2.8943    1.4437    0.0000 C   0  0  0  0  0  0  0  0  0  0  0  0
   -2.3418   -0.6045    0.0000 C   0  0  0  0  0  0  0  0  0  0  0  0
    4.3538   -0.6005    0.0000 C   0  0  0  0  0  0  0  0  0  0  0  0
    4.9032    1.4484    0.0000 C   0  0  0  0  0  0  0  0  0  0  0  0
    2.8542    1.9978    0.0000 C   0  0  0  0  0  0  0  0  0  0  0  0
    1.0098   -2.2942    0.0000 C   0  0  0  0  0  0  0  0  0  0  0  0
   -0.2892   -1.5442    0.0000 C   0  0  0  0  0  0  0  0  0  0  0  0
    2.3044   -1.5520    0.0000 C   0  0  0  0  0  0  0  0  0  0  0  0
    1.0058    0.6988    0.0000 C   0  0  0  0  0  0  0  0  0  0  0  0
   -0.2937   -0.0520    0.0000 C   0  0  0  0  0  0  0  0  0  0  0  0
    2.3048   -0.0512    0.0000 C   0  0  0  0  0  0  0  0  0  0  0  0
   -1.5940    0.6958    0.0000 C   0  0  0  0  0  0  0  0  0  0  0  0
    3.6040    0.6986    0.0000 C   0  0  0  0  0  0  0  0  0  0  0  0
  8  7  2  0
  9  7  1  0
 11  8  1  0
 11 10  2  0
 12  9  2  0
 12 10  1  0
 13  1  1  0
 13  2  1  0
 13  3  1  0
 13 11  1  0
 14  4  1  0
 14  5  1  0
 14  6  1  0
 14 12  1  0
M  END
>  <NAME>  (6606) 
1,3-DI-TERT-BUTYLBENZENE

>  <SYNONYMS>  (6606) 


>  <SPECTRUM TYPE>  (6606) 
MS1

>  <INSTRUMENT TYPE>  (6606) 
EI-B

>  <INSTRUMENT>  (6606) 
JEOL JMS-D-3000

>  <ION MODE>  (6606) 
P

>  <INCHIKEY>  (6606) 
ILNDSSCEZZFNGE-UHFFFAOYSA-N

>  <FORMULA>  (6606) 
C14H22

>  <EXACT MASS>  (6606) 
190.172150704

>  <MW>  (6606) 
190

>  <ID>  (6606) 
JP001375

>  <CONTRIBUTOR>  (6606) 
University of Tokyo Team, {Faculty of Engineering, University of Tokyo

>  <COMMENT>  (6606) 
SMILES=CC(C)(C)c(c1)cc(cc1)C(C)(C)C
InChI=InChI=1S/C14H22/c1-13(2,3)11-8-7-9-12(10-11)14(4,5)6/h7-10H,1-6H3
computed SMILES=C=1C=C(C=C(C1)C(C)(C)C)C(C)(C)C
accession=JP001375
date=2016.01.19 (Created 2008.10.21, modified 2011.05.06)
author=MASS SPECTROSCOPY SOC. OF JAPAN (MSSJ)
license=CC BY-NC-SA
exact mass=190.17215
ionization energy=70 eV
ion type=[M]+*
computed spectral entropy=2.1325486850544877
computed normalized entropy=0.6470431552760253
SPLASH=splash10-004i-4900000000-8003861a59b25e32ed80
submitter=submitter = University of Tokyo Team (Faculty of Engineering, University of Tokyo)
MoNA Rating=3.75

>  <NUM PEAKS>  (6606) 
27

>  <MASS SPECTRAL PEAKS>  (6606) 
40 4.66
55 1.05
57 36.04
58 2.54
64 2.14
65 5.2
66 4.88
77 1.26
79 1.66
80 5.25
91 5.1
103 1.07
105 2.09
115 2.5
116 1.01
117 2.48
119 1.56
128 1.5
129 1.04
145 1.11
147 4.01
159 1.33
175 99.99
176 15.1
177 1.1
190 17.42
191 2.82

$$$$

     RDKit          2D

 14 14  0  0  0  0  0  0  0  0999 V2000
   -3.3491   -0.2013    0.0000 C   0  0  0  0  0  0  0  0  0  0  0  0
   -3.8978   -2.2504    0.0000 C   0  0  0  0  0  0  0  0  0  0  0  0
   -1.8487   -2.7991    0.0000 C   0  0  0  0  0  0  0  0  0  0  0  0
    3.3491    0.2013    0.0000 C   0  0  0  0  0  0  0  0  0  0  0  0
    3.8978    2.2504    0.0000 C   0  0  0  0  0  0  0  0  0  0  0  0
    1.8487    2.7991    0.0000 C   0  0  0  0  0  0  0  0  0  0  0  0
   -1.3000    0.7500    0.0000 C   0  0  0  0  0  0  0  0  0  0  0  0
   -0.0000   -1.5000    0.0000 C   0  0  0  0  0  0  0  0  0  0  0  0
    0.0000    1.5000    0.0000 C   0  0  0  0  0  0  0  0  0  0  0  0
    1.3000   -0.7500    0.0000 C   0  0  0  0  0  0  0  0  0  0  0  0
   -1.3000   -0.7500    0.0000 C   0  0  0  0  0  0  0  0  0  0  0  0
    1.3000    0.7500    0.0000 C   0  0  0  0  0  0  0  0  0  0  0  0
   -2.5989   -1.5002    0.0000 C   0  0  0  0  0  0  0  0  0  0  0  0
    2.5989    1.5002    0.0000 C   0  0  0  0  0  0  0  0  0  0  0  0
  9  7  2  0
 10  8  1  0
 11  7  1  0
 11  8  2  0
 12  9  1  0
 12 10  2  0
 13  1  1  0
 13  2  1  0
 13  3  1  0
 13 11  1  0
 14  4  1  0
 14  5  1  0
 14  6  1  0
 14 12  1  0
M  END
>  <NAME>  (6607) 
1,4-DI-TERT-BUTYLBENZENE

>  <SYNONYMS>  (6607) 


>  <SPECTRUM TYPE>  (6607) 
MS1

>  <INSTRUMENT TYPE>  (6607) 
EI-B

>  <INSTRUMENT>  (6607) 
JEOL JMS-D-3000

>  <ION MODE>  (6607) 
P

>  <INCHIKEY>  (6607) 
OOWNNCMFKFBNOF-UHFFFAOYSA-N

>  <FORMULA>  (6607) 
C14H22

>  <EXACT MASS>  (6607) 
190.172150704

>  <MW>  (6607) 
190

>  <ID>  (6607) 
JP001374

>  <CONTRIBUTOR>  (6607) 
University of Tokyo Team, {Faculty of Engineering, University of Tokyo

>  <COMMENT>  (6607) 
SMILES=CC(C)(C)c(c1)ccc(c1)C(C)(C)C
InChI=InChI=1S/C14H22/c1-13(2,3)11-7-9-12(10-8-11)14(4,5)6/h7-10H,1-6H3
computed SMILES=C=1C=C(C=CC1C(C)(C)C)C(C)(C)C
accession=JP001374
date=2016.01.19 (Created 2008.10.21, modified 2011.05.06)
author=MASS SPECTROSCOPY SOC. OF JAPAN (MSSJ)
license=CC BY-NC-SA
exact mass=190.17215
ionization energy=70 eV
ion type=[M]+*
computed spectral entropy=2.349265219412996
computed normalized entropy=0.6778546563560104
SPLASH=splash10-004i-2900000000-ce4322b3716f2a2f4069
submitter=submitter = University of Tokyo Team (Faculty of Engineering, University of Tokyo)
MoNA Rating=3.75

>  <NUM PEAKS>  (6607) 
32

>  <MASS SPECTRAL PEAKS>  (6607) 
40 4.37
55 1.25
57 21.96
58 1.25
64 2.31
65 5.23
66 3.26
71 1.18
77 1.59
79 2.17
80 5.27
91 5.82
103 1.1
105 2.26
115 2.59
116 1.11
117 4.09
119 1.24
128 1.7
129 1.4
131 1.24
133 1.15
145 5.67
147 2.19
159 2.21
160 8.85
161 1.3
175 99.99
176 14.37
177 1.23
190 15.45
191 2.69

$$$$

     RDKit          2D

 17 17  0  0  0  0  0  0  0  0999 V2000
   -2.6985    0.9238    0.0000 C   0  0  0  0  0  0  0  0  0  0  0  0
   -3.2475   -1.1253    0.0000 C   0  0  0  0  0  0  0  0  0  0  0  0
   -1.1985   -1.6743    0.0000 C   0  0  0  0  0  0  0  0  0  0  0  0
    2.4985   -1.6750    0.0000 C   0  0  0  0  0  0  0  0  0  0  0  0
    4.5474   -1.1257    0.0000 C   0  0  0  0  0  0  0  0  0  0  0  0
    3.9981    0.9233    0.0000 C   0  0  0  0  0  0  0  0  0  0  0  0
    0.6501   -0.3761    0.0000 C   0  0  0  0  0  0  0  0  0  0  0  0
   -0.6499    1.8756    0.0000 C   0  0  0  0  0  0  0  0  0  0  0  0
    1.9486    1.8747    0.0000 C   0  0  0  0  0  0  0  0  0  0  0  0
   -0.6494    0.3747    0.0000 C   0  0  0  0  0  0  0  0  0  0  0  0
    1.9491    0.3739    0.0000 C   0  0  0  0  0  0  0  0  0  0  0  0
    0.6491    2.6256    0.0000 C   0  0  0  0  0  0  0  0  0  0  0  0
   -1.9485   -0.3753    0.0000 C   0  0  0  0  0  0  0  0  0  0  0  0
    3.2483   -0.3759    0.0000 C   0  0  0  0  0  0  0  0  0  0  0  0
    0.6494    4.1256    0.0000 N   0  0  0  0  0  0  0  0  0  0  0  0
   -0.6495    4.8758    0.0000 O   0  0  0  0  0  0  0  0  0  0  0  0
    1.9485    4.8754    0.0000 O   0  0  0  0  0  0  0  0  0  0  0  0
 10  7  2  0
 10  8  1  0
 11  7  1  0
 11  9  2  0
 12  8  2  0
 12  9  1  0
 13  1  1  0
 13  2  1  0
 13  3  1  0
 13 10  1  0
 14  4  1  0
 14  5  1  0
 14  6  1  0
 14 11  1  0
 15 12  1  0
 16 15  1  0
 17 15  2  0
M  CHG  2  15   1  16  -1
M  END
>  <NAME>  (6608) 
3,5-DI-T-BUTYL-NITROBENZENE

>  <SYNONYMS>  (6608) 
1,3-DI-TERT-BUTYL-5-NITROBENZENE

>  <SPECTRUM TYPE>  (6608) 
MS1

>  <INSTRUMENT TYPE>  (6608) 
EI-B

>  <INSTRUMENT>  (6608) 
JEOL JMS-D-3000

>  <ION MODE>  (6608) 
P

>  <INCHIKEY>  (6608) 
LUYJFRAXBOUNPV-UHFFFAOYSA-N

>  <FORMULA>  (6608) 
C14H21NO2

>  <EXACT MASS>  (6608) 
235.157228912

>  <MW>  (6608) 
235

>  <ID>  (6608) 
JP001373

>  <CONTRIBUTOR>  (6608) 
University of Tokyo Team, {Faculty of Engineering, University of Tokyo

>  <COMMENT>  (6608) 
SMILES=[O-1][N+1](=O)c(c1)cc(cc1C(C)(C)C)C(C)(C)C
InChI=InChI=1S/C14H21NO2/c1-13(2,3)10-7-11(14(4,5)6)9-12(8-10)15(16)17/h7-9H,1-6H3
computed SMILES=O=N(=O)C=1C=C(C=C(C1)C(C)(C)C)C(C)(C)C
accession=JP001373
date=2016.01.19 (Created 2008.10.21, modified 2011.05.06)
author=MASS SPECTROSCOPY SOC. OF JAPAN (MSSJ)
license=CC BY-NC-SA
exact mass=235.15723
ionization energy=70 eV
ion type=[M]+*
computed spectral entropy=2.877175570886361
computed normalized entropy=0.7281696032456643
SPLASH=splash10-00di-7590000000-bffbcd520343a7138caf
submitter=submitter = University of Tokyo Team (Faculty of Engineering, University of Tokyo)
MoNA Rating=3.75

>  <NUM PEAKS>  (6608) 
52

>  <MASS SPECTRAL PEAKS>  (6608) 
40 7.68
43 2.41
51 2.79
53 2.78
55 3.92
57 49.58
58 2.39
63 1.71
64 2.38
65 3.04
67 1
71 1.09
75 1.3
77 4.55
78 1.26
79 1.89
88 3.89
89 2.6
91 7.44
102 3.81
103 3.95
105 2.73
115 5.5
116 2.44
117 1.72
118 1.23
127 1.29
128 4.27
129 3.95
130 1.49
131 4.26
132 1.09
133 3
141 1.32
142 1.04
143 1.92
144 1.7
147 1.5
158 1.08
159 4.83
174 1.5
189 1.32
192 12.51
193 1.6
195 3.9
204 1.07
210 1.66
220 99.99
221 15.29
222 1.7
235 10.54
236 2.12

$$$$

     RDKit          2D

 15 15  0  0  0  0  0  0  0  0999 V2000
    1.5000    3.0000    0.0000 C   0  0  0  0  0  0  0  0  0  0  0  0
    0.0000    4.5000    0.0000 C   0  0  0  0  0  0  0  0  0  0  0  0
   -1.5000    3.0000    0.0000 C   0  0  0  0  0  0  0  0  0  0  0  0
   -3.3491   -0.2013    0.0000 C   0  0  0  0  0  0  0  0  0  0  0  0
   -3.8978   -2.2504    0.0000 C   0  0  0  0  0  0  0  0  0  0  0  0
   -1.8487   -2.7991    0.0000 C   0  0  0  0  0  0  0  0  0  0  0  0
   -1.3000    0.7500    0.0000 C   0  0  0  0  0  0  0  0  0  0  0  0
    1.3000    0.7500    0.0000 C   0  0  0  0  0  0  0  0  0  0  0  0
    0.0000   -1.5000    0.0000 C   0  0  0  0  0  0  0  0  0  0  0  0
    0.0000    1.5000    0.0000 C   0  0  0  0  0  0  0  0  0  0  0  0
   -1.3000   -0.7500    0.0000 C   0  0  0  0  0  0  0  0  0  0  0  0
    1.3000   -0.7500    0.0000 C   0  0  0  0  0  0  0  0  0  0  0  0
    0.0000    3.0000    0.0000 C   0  0  0  0  0  0  0  0  0  0  0  0
   -2.5989   -1.5002    0.0000 C   0  0  0  0  0  0  0  0  0  0  0  0
    2.5989   -1.5002    0.0000 Br  0  0  0  0  0  0  0  0  0  0  0  0
 10  7  2  0
 10  8  1  0
 11  7  1  0
 11  9  2  0
 12  8  2  0
 12  9  1  0
 13  1  1  0
 13  2  1  0
 13  3  1  0
 13 10  1  0
 14  4  1  0
 14  5  1  0
 14  6  1  0
 14 11  1  0
 15 12  1  0
M  END
>  <NAME>  (6609) 
1-BROMO-3,5-DI-TERT-BUTYLBENZENE

>  <SYNONYMS>  (6609) 


>  <SPECTRUM TYPE>  (6609) 
MS1

>  <INSTRUMENT TYPE>  (6609) 
EI-B

>  <INSTRUMENT>  (6609) 
JEOL JMS-D-3000

>  <ION MODE>  (6609) 
P

>  <INCHIKEY>  (6609) 
BUOWTUULDKULFI-UHFFFAOYSA-N

>  <FORMULA>  (6609) 
C14H21Br

>  <EXACT MASS>  (6609) 
268.082662772

>  <MW>  (6609) 
268

>  <ID>  (6609) 
JP001372

>  <CONTRIBUTOR>  (6609) 
University of Tokyo Team, {Faculty of Engineering, University of Tokyo

>  <COMMENT>  (6609) 
SMILES=CC(C)(C)c(c1)cc(cc(Br)1)C(C)(C)C
InChI=InChI=1S/C14H21Br/c1-13(2,3)10-7-11(14(4,5)6)9-12(15)8-10/h7-9H,1-6H3
computed SMILES=BrC=1C=C(C=C(C1)C(C)(C)C)C(C)(C)C
accession=JP001372
date=2016.01.19 (Created 2008.10.21, modified 2011.05.06)
author=MASS SPECTROSCOPY SOC. OF JAPAN (MSSJ)
license=CC BY-NC-SA
exact mass=268.08266
ionization energy=70 eV
ion type=[M]+*
computed spectral entropy=2.971092185833989
computed normalized entropy=0.7143966604211078
SPLASH=splash10-0pb9-4290000000-1418068362807f9571c9
submitter=submitter = University of Tokyo Team (Faculty of Engineering, University of Tokyo)
MoNA Rating=3.75

>  <NUM PEAKS>  (6609) 
64

>  <MASS SPECTRAL PEAKS>  (6609) 
50 1.08
51 4.17
52 1.52
53 2.14
55 5.04
56 1.56
57 95.31
58 3.59
63 2.9
64 7.95
65 5.08
70 1.77
71 2.06
75 2.25
76 1.67
77 3.95
78 2.79
79 2.03
89 1.63
91 6.02
92 1.01
97 1.23
98 1.16
102 2.57
103 2.14
104 3.01
105 8.02
106 5.3
115 8.2
116 3.05
117 4.32
118 2.21
119 4.75
120 4.13
127 1.85
128 5.33
129 5.15
130 1.7
131 2.9
132 1.27
133 1.7
141 2.21
142 1.23
143 2.32
144 2.57
158 1.88
159 2.46
169 1.08
171 1.01
189 1.19
197 1.63
209 1.01
225 5.33
227 4.79
239 1.08
253 99.99
254 15.14
255 97.53
256 15.28
257 1.16
268 21.06
269 3.66
270 19.78
271 3.05

$$$$

     RDKit          2D

 11 11  0  0  0  0  0  0  0  0999 V2000
   -3.4349    3.0684    0.0000 C   0  0  0  0  0  0  0  0  0  0  0  0
   -3.9839    1.0193    0.0000 C   0  0  0  0  0  0  0  0  0  0  0  0
   -1.9349    0.4703    0.0000 C   0  0  0  0  0  0  0  0  0  0  0  0
    2.5113    0.2693    0.0000 C   0  0  0  0  0  0  0  0  0  0  0  0
    1.2118   -0.4815    0.0000 C   0  0  0  0  0  0  0  0  0  0  0  0
    2.5118    1.7702    0.0000 C   0  0  0  0  0  0  0  0  0  0  0  0
   -0.0873    0.2685    0.0000 C   0  0  0  0  0  0  0  0  0  0  0  0
    1.2127    2.5202    0.0000 C   0  0  0  0  0  0  0  0  0  0  0  0
   -0.0868    1.7693    0.0000 C   0  0  0  0  0  0  0  0  0  0  0  0
   -2.6849    1.7693    0.0000 C   0  0  0  0  0  0  0  0  0  0  0  0
   -1.3858    2.5193    0.0000 N   0  0  0  0  0  0  0  0  0  0  0  0
  5  4  2  0
  6  4  1  0
  7  5  1  0
  8  6  2  0
  9  7  2  0
  9  8  1  0
 10  1  1  0
 10  2  1  0
 10  3  1  0
 11  9  1  0
 11 10  1  0
M  END
>  <NAME>  (6610) 
N-TERT-BUTYLANILINE

>  <SYNONYMS>  (6610) 


>  <SPECTRUM TYPE>  (6610) 
MS1

>  <INSTRUMENT TYPE>  (6610) 
EI-B

>  <INSTRUMENT>  (6610) 
JEOL JMS-D-3000

>  <ION MODE>  (6610) 
P

>  <INCHIKEY>  (6610) 
ABRWESLGGMHKEA-UHFFFAOYSA-N

>  <FORMULA>  (6610) 
C10H15N

>  <EXACT MASS>  (6610) 
149.12044948

>  <MW>  (6610) 
149

>  <ID>  (6610) 
JP001371

>  <CONTRIBUTOR>  (6610) 
University of Tokyo Team, {Faculty of Engineering, University of Tokyo

>  <COMMENT>  (6610) 
SMILES=CC(C)(C)Nc(c1)cccc1
InChI=InChI=1S/C10H15N/c1-10(2,3)11-9-7-5-4-6-8-9/h4-8,11H,1-3H3
computed SMILES=C=1C=CC(=CC1)NC(C)(C)C
accession=JP001371
date=2016.01.19 (Created 2008.10.21, modified 2011.05.06)
author=MASS SPECTROSCOPY SOC. OF JAPAN (MSSJ)
license=CC BY-NC-SA
exact mass=149.12045
ionization energy=70 eV
ion type=[M]+*
computed spectral entropy=2.6788308723504897
computed normalized entropy=0.7418697785873564
SPLASH=splash10-000x-9500000000-c70a9949471e11cb177d
submitter=submitter = University of Tokyo Team (Faculty of Engineering, University of Tokyo)
MoNA Rating=3.75

>  <NUM PEAKS>  (6610) 
37

>  <MASS SPECTRAL PEAKS>  (6610) 
42 6.9
46 1.19
50 3.14
51 10.98
52 3.47
53 2.86
54 1.97
55 4.18
56 11.46
57 11.04
58 1.22
60 2.33
63 2.58
64 2.14
65 12.92
66 18.44
67 5.26
76 1.24
77 14.05
78 2.34
79 1.28
91 3.98
92 6.44
93 99.99
94 11.57
106 2.3
115 1.57
117 2.77
118 6.75
119 1.84
132 2.38
133 1.93
134 84.35
135 9.16
148 1.34
149 23
150 2.85

$$$$

     RDKit          2D

  9  9  0  0  0  0  0  0  0  0999 V2000
    2.2736    0.1321    0.0000 C   0  0  0  0  0  0  0  0  0  0  0  0
    0.9740   -0.6187    0.0000 C   0  0  0  0  0  0  0  0  0  0  0  0
    2.2740    1.6329    0.0000 C   0  0  0  0  0  0  0  0  0  0  0  0
   -0.3250    0.1313    0.0000 C   0  0  0  0  0  0  0  0  0  0  0  0
    0.9750    2.3829    0.0000 C   0  0  0  0  0  0  0  0  0  0  0  0
   -2.9226    1.6321    0.0000 C   0  0  0  0  0  0  0  0  0  0  0  0
   -0.3245    1.6321    0.0000 C   0  0  0  0  0  0  0  0  0  0  0  0
   -1.6236    2.3821    0.0000 N   0  0  0  0  0  0  0  0  0  0  0  0
   -4.2216    0.8821    0.0000 O   0  0  0  0  0  0  0  0  0  0  0  0
  2  1  2  0
  3  1  1  0
  4  2  1  0
  5  3  2  0
  7  4  2  0
  7  5  1  0
  8  6  2  0
  8  7  1  0
  9  6  2  0
M  END
>  <NAME>  (6611) 
PHENYL ISOCYANATE

>  <SYNONYMS>  (6611) 


>  <SPECTRUM TYPE>  (6611) 
MS1

>  <INSTRUMENT TYPE>  (6611) 
EI-B

>  <INSTRUMENT>  (6611) 
JEOL JMS-D-3000

>  <ION MODE>  (6611) 
P

>  <INCHIKEY>  (6611) 
DGTNSSLYPYDJGL-UHFFFAOYSA-N

>  <FORMULA>  (6611) 
C7H5NO

>  <EXACT MASS>  (6611) 
119.03711378

>  <MW>  (6611) 
119

>  <ID>  (6611) 
JP001370

>  <CONTRIBUTOR>  (6611) 
University of Tokyo Team, {Faculty of Engineering, University of Tokyo

>  <COMMENT>  (6611) 
SMILES=O=C=Nc(c1)cccc1
InChI=InChI=1S/C7H5NO/c9-6-8-7-4-2-1-3-5-7/h1-5H
computed SMILES=O=C=NC=1C=CC=CC1
accession=JP001370
date=2016.01.19 (Created 2008.10.21, modified 2011.05.06)
author=MASS SPECTROSCOPY SOC. OF JAPAN (MSSJ)
license=CC BY-NC-SA
exact mass=119.03711
ionization energy=70 eV
ion type=[M]+*
computed spectral entropy=1.8357772416898661
computed normalized entropy=0.6621166806906975
SPLASH=splash10-014i-9800000000-e9dab12b4b75a24bbf57
submitter=submitter = University of Tokyo Team (Faculty of Engineering, University of Tokyo)
MoNA Rating=3.75

>  <NUM PEAKS>  (6611) 
16

>  <MASS SPECTRAL PEAKS>  (6611) 
45 2.43
50 4.49
51 5.71
52 3.48
59 3.54
61 1.36
62 2.54
63 8.85
64 26.36
65 5.1
77 1.03
90 2.1
91 41.03
92 2.8
119 99.99
120 8.67

$$$$

     RDKit          2D

 30 31  0  0  0  0  0  0  0  0999 V2000
   -3.3819   -1.4421    0.0000 C   0  0  0  0  0  0  0  0  0  0  0  0
   -0.7840   -5.9430    0.0000 C   0  0  0  0  0  0  0  0  0  0  0  0
    1.8149   -1.4415    0.0000 C   0  0  0  0  0  0  0  0  0  0  0  0
    8.5918   -2.7412    0.0000 C   0  0  0  0  0  0  0  0  0  0  0  0
    9.1408   -0.6921    0.0000 C   0  0  0  0  0  0  0  0  0  0  0  0
    7.0918   -0.1431    0.0000 C   0  0  0  0  0  0  0  0  0  0  0  0
    3.7590   -0.0781    0.0000 C   0  0  0  0  0  0  0  0  0  0  0  0
    1.6458   -0.2633    0.0000 C   0  0  0  0  0  0  0  0  0  0  0  0
    1.8310   -2.3765    0.0000 C   0  0  0  0  0  0  0  0  0  0  0  0
    3.7439   -6.4227    0.0000 C   0  0  0  0  0  0  0  0  0  0  0  0
    5.2437   -7.9230    0.0000 C   0  0  0  0  0  0  0  0  0  0  0  0
    6.7439   -6.4232    0.0000 C   0  0  0  0  0  0  0  0  0  0  0  0
   -2.0833   -3.6930    0.0000 C   0  0  0  0  0  0  0  0  0  0  0  0
   -0.7833   -1.4413    0.0000 C   0  0  0  0  0  0  0  0  0  0  0  0
    5.2433   -1.4413    0.0000 C   0  0  0  0  0  0  0  0  0  0  0  0
    6.5433   -3.6930    0.0000 C   0  0  0  0  0  0  0  0  0  0  0  0
   -2.0828   -2.1921    0.0000 C   0  0  0  0  0  0  0  0  0  0  0  0
   -0.7843   -4.4430    0.0000 C   0  0  0  0  0  0  0  0  0  0  0  0
    0.5157   -2.1913    0.0000 C   0  0  0  0  0  0  0  0  0  0  0  0
    6.5428   -2.1921    0.0000 C   0  0  0  0  0  0  0  0  0  0  0  0
    3.9442   -2.1913    0.0000 C   0  0  0  0  0  0  0  0  0  0  0  0
    5.2442   -4.4430    0.0000 C   0  0  0  0  0  0  0  0  0  0  0  0
    0.5152   -3.6921    0.0000 C   0  0  0  0  0  0  0  0  0  0  0  0
    3.9447   -3.6921    0.0000 C   0  0  0  0  0  0  0  0  0  0  0  0
    7.8418   -1.4421    0.0000 C   0  0  0  0  0  0  0  0  0  0  0  0
    2.7950   -1.2273    0.0000 C   0  0  0  0  0  0  0  0  0  0  0  0
    5.2439   -6.4230    0.0000 C   0  0  0  0  0  0  0  0  0  0  0  0
    1.2658   -5.8312    0.0000 F   0  0  0  0  0  0  0  0  0  0  0  0
    3.1941   -5.8312    0.0000 O   0  0  0  0  0  0  0  0  0  0  0  0
    2.2300   -4.6821    0.0000 Si  0  0  0  0  0  4  0  0  0  0  0  0
 17  1  1  0
 17 13  2  0
 17 14  1  0
 18  2  1  0
 18 13  1  0
 19  3  1  0
 19 14  2  0
 20 15  2  0
 20 16  1  0
 21 15  1  0
 22 16  2  0
 23 18  2  0
 23 19  1  0
 24 21  2  0
 24 22  1  0
 25  4  1  0
 25  5  1  0
 25  6  1  0
 25 20  1  0
 26  7  1  0
 26  8  1  0
 26  9  1  0
 26 21  1  0
 27 10  1  0
 27 11  1  0
 27 12  1  0
 27 22  1  0
 30 23  1  0
 30 24  1  0
 30 28  1  0
 30 29  1  0
M  END
>  <NAME>  (6612) 
FLUOROMESITYL(2,4,6-TRI-TERT-BUTYLPHENYL)SILANOL

>  <SYNONYMS>  (6612) 


>  <SPECTRUM TYPE>  (6612) 
MS1

>  <INSTRUMENT TYPE>  (6612) 
EI-B

>  <INSTRUMENT>  (6612) 
JEOL JMS-D-3000

>  <ION MODE>  (6612) 
P

>  <INCHIKEY>  (6612) 
BLFNVIZZHRCALN-UHFFFAOYSA-N

>  <FORMULA>  (6612) 
C27H41FOSi

>  <EXACT MASS>  (6612) 
428.291070682

>  <MW>  (6612) 
428

>  <ID>  (6612) 
JP001369

>  <CONTRIBUTOR>  (6612) 
University of Tokyo Team, {Faculty of Engineering, University of Tokyo

>  <COMMENT>  (6612) 
SMILES=c(c1)(cc(c([Si](O)(F)c(c2C(C)(C)C)c(cc(C(C)(C)C)c2)C(C)(C)C)c1C)C)C
InChI=InChI=1S/C27H41FOSi/c1-17-13-18(2)23(19(3)14-17)30(28,29)24-21(26(7,8)9)15-20(25(4,5)6)16-22(24)27(10,11)12/h13-16,29H,1-12H3
computed SMILES=F[Si](O)(C=1C(=CC(=CC1C)C)C)C=2C(=CC(=CC2C(C)(C)C)C(C)(C)C)C(C)(C)C
accession=JP001369
date=2016.01.19 (Created 2008.10.21, modified 2011.05.06)
author=MASS SPECTROSCOPY SOC. OF JAPAN (MSSJ)
license=CC BY-NC-SA
exact mass=428.29107
ionization energy=70 eV
ion type=[M]+*
computed spectral entropy=3.42278031985205
computed normalized entropy=0.7606500209154033
SPLASH=splash10-053r-5961000000-871c4ef79fa96d2072d8
submitter=submitter = University of Tokyo Team (Faculty of Engineering, University of Tokyo)
MoNA Rating=3.75

>  <NUM PEAKS>  (6612) 
90

>  <MASS SPECTRAL PEAKS>  (6612) 
43 1.47
51 1.47
53 1.86
55 3.37
56 1.82
57 99.99
58 4.92
59 1.16
63 1.31
65 2.13
73 1.08
77 4.49
78 1.55
79 4.49
91 6.43
92 1.12
93 1.27
94 2.09
103 2.79
104 1.51
105 16.43
106 2.09
108 3.21
115 2.63
116 1.74
117 3.68
118 3.44
119 46.55
120 15.85
121 2.05
128 2.01
129 2.44
130 1.35
131 2.28
133 1.04
139 1.12
141 1.58
142 1.2
143 1.66
145 1.35
155 1.2
157 1.08
159 1.62
163 1.08
165 1.78
173 2.01
175 22.71
176 3.72
177 1.2
178 1.12
179 1.12
181 2.17
182 13.06
183 48.56
184 8.13
185 2.71
187 1.55
189 1.24
190 17.17
191 2.82
199 1.47
203 2.24
215 2.48
219 1.16
221 1
229 7.44
231 95.93
232 18.87
233 2.71
237 5.77
238 1.58
244 2.9
245 1.35
246 24.26
247 5.5
259 1.04
275 2.67
293 10.73
294 2.67
295 1
308 1.27
315 5.38
316 1.62
355 1
357 11.55
358 3.64
371 3.25
372 6.16
373 2.09
428 1.47

$$$$

     RDKit          2D

 30 31  0  0  0  0  0  0  0  0999 V2000
   -3.3819   -1.4421    0.0000 C   0  0  0  0  0  0  0  0  0  0  0  0
   -0.7840   -5.9430    0.0000 C   0  0  0  0  0  0  0  0  0  0  0  0
    1.8149   -1.4415    0.0000 C   0  0  0  0  0  0  0  0  0  0  0  0
    8.5918   -2.7412    0.0000 C   0  0  0  0  0  0  0  0  0  0  0  0
    9.1408   -0.6921    0.0000 C   0  0  0  0  0  0  0  0  0  0  0  0
    7.0918   -0.1431    0.0000 C   0  0  0  0  0  0  0  0  0  0  0  0
    3.7590   -0.0781    0.0000 C   0  0  0  0  0  0  0  0  0  0  0  0
    1.6458   -0.2633    0.0000 C   0  0  0  0  0  0  0  0  0  0  0  0
    1.8310   -2.3765    0.0000 C   0  0  0  0  0  0  0  0  0  0  0  0
    3.7439   -6.4227    0.0000 C   0  0  0  0  0  0  0  0  0  0  0  0
    5.2437   -7.9230    0.0000 C   0  0  0  0  0  0  0  0  0  0  0  0
    6.7439   -6.4232    0.0000 C   0  0  0  0  0  0  0  0  0  0  0  0
   -2.0833   -3.6930    0.0000 C   0  0  0  0  0  0  0  0  0  0  0  0
   -0.7833   -1.4413    0.0000 C   0  0  0  0  0  0  0  0  0  0  0  0
    5.2433   -1.4413    0.0000 C   0  0  0  0  0  0  0  0  0  0  0  0
    6.5433   -3.6930    0.0000 C   0  0  0  0  0  0  0  0  0  0  0  0
   -2.0828   -2.1921    0.0000 C   0  0  0  0  0  0  0  0  0  0  0  0
   -0.7843   -4.4430    0.0000 C   0  0  0  0  0  0  0  0  0  0  0  0
    0.5157   -2.1913    0.0000 C   0  0  0  0  0  0  0  0  0  0  0  0
    6.5428   -2.1921    0.0000 C   0  0  0  0  0  0  0  0  0  0  0  0
    3.9442   -2.1913    0.0000 C   0  0  0  0  0  0  0  0  0  0  0  0
    5.2442   -4.4430    0.0000 C   0  0  0  0  0  0  0  0  0  0  0  0
    0.5152   -3.6921    0.0000 C   0  0  0  0  0  0  0  0  0  0  0  0
    3.9447   -3.6921    0.0000 C   0  0  0  0  0  0  0  0  0  0  0  0
    7.8418   -1.4421    0.0000 C   0  0  0  0  0  0  0  0  0  0  0  0
    2.7950   -1.2273    0.0000 C   0  0  0  0  0  0  0  0  0  0  0  0
    5.2439   -6.4230    0.0000 C   0  0  0  0  0  0  0  0  0  0  0  0
    1.2658   -5.8312    0.0000 F   0  0  0  0  0  0  0  0  0  0  0  0
    3.1941   -5.8312    0.0000 F   0  0  0  0  0  0  0  0  0  0  0  0
    2.2300   -4.6821    0.0000 Si  0  0  0  0  0  4  0  0  0  0  0  0
 17  1  1  0
 17 13  2  0
 17 14  1  0
 18  2  1  0
 18 13  1  0
 19  3  1  0
 19 14  2  0
 20 15  2  0
 20 16  1  0
 21 15  1  0
 22 16  2  0
 23 18  2  0
 23 19  1  0
 24 21  2  0
 24 22  1  0
 25  4  1  0
 25  5  1  0
 25  6  1  0
 25 20  1  0
 26  7  1  0
 26  8  1  0
 26  9  1  0
 26 21  1  0
 27 10  1  0
 27 11  1  0
 27 12  1  0
 27 22  1  0
 30 23  1  0
 30 24  1  0
 30 28  1  0
 30 29  1  0
M  END
>  <NAME>  (6613) 
DIFLUOROMESITYL(2,4,6-TRI-TERT-BUTYLPHENYL)SILANE

>  <SYNONYMS>  (6613) 


>  <SPECTRUM TYPE>  (6613) 
MS1

>  <INSTRUMENT TYPE>  (6613) 
EI-B

>  <INSTRUMENT>  (6613) 
JEOL JMS-D-3000

>  <ION MODE>  (6613) 
P

>  <INCHIKEY>  (6613) 
JGNYTBUXBLOFHF-UHFFFAOYSA-N

>  <FORMULA>  (6613) 
C27H40F2Si

>  <EXACT MASS>  (6613) 
430.28673425

>  <MW>  (6613) 
430

>  <ID>  (6613) 
JP001368

>  <CONTRIBUTOR>  (6613) 
University of Tokyo Team, {Faculty of Engineering, University of Tokyo

>  <COMMENT>  (6613) 
SMILES=c(c1)(cc(C)c([Si](F)(F)c(c2C(C)(C)C)c(cc(C(C)(C)C)c2)C(C)(C)C)c1C)C
InChI=InChI=1S/C27H40F2Si/c1-17-13-18(2)23(19(3)14-17)30(28,29)24-21(26(7,8)9)15-20(25(4,5)6)16-22(24)27(10,11)12/h13-16H,1-12H3
computed SMILES=F[Si](F)(C=1C(=CC(=CC1C)C)C)C=2C(=CC(=CC2C(C)(C)C)C(C)(C)C)C(C)(C)C
accession=JP001368
date=2016.01.19 (Created 2008.10.21, modified 2011.05.06)
author=MASS SPECTROSCOPY SOC. OF JAPAN (MSSJ)
license=CC BY-NC-SA
exact mass=430.28673
ionization energy=70 eV
ion type=[M]+*
computed spectral entropy=2.3868446931522076
computed normalized entropy=0.6713392477675747
SPLASH=splash10-0a4i-9217000000-3bebf9cec4bc784a2b77
submitter=submitter = University of Tokyo Team (Faculty of Engineering, University of Tokyo)
MoNA Rating=3.75

>  <NUM PEAKS>  (6613) 
35

>  <MASS SPECTRAL PEAKS>  (6613) 
43 1.36
55 2.25
57 99.99
58 4.46
77 1.06
91 2.5
105 2.36
115 1.11
117 1.41
118 1.03
119 15.75
120 6.53
129 1.31
131 1.15
143 1.06
175 1.09
185 2.32
189 1
200 1.01
229 1.26
231 3.89
239 3.48
261 1.12
295 4.07
303 1.6
315 1.22
317 7.89
318 2.87
359 47.12
360 14.22
361 3.68
373 6.42
374 8.18
375 2.37
430 1.85

$$$$

     RDKit          2D

 26 26  0  0  0  0  0  0  0  0999 V2000
    3.9976    0.7860    0.0000 C   0  0  0  0  0  0  0  0  0  0  0  0
    4.5466    2.8350    0.0000 C   0  0  0  0  0  0  0  0  0  0  0  0
    2.4976    3.3840    0.0000 C   0  0  0  0  0  0  0  0  0  0  0  0
   -1.1994    3.3848    0.0000 C   0  0  0  0  0  0  0  0  0  0  0  0
   -3.2483    2.8354    0.0000 C   0  0  0  0  0  0  0  0  0  0  0  0
   -2.6990    0.7865    0.0000 C   0  0  0  0  0  0  0  0  0  0  0  0
   -0.8502   -2.4156    0.0000 C   0  0  0  0  0  0  0  0  0  0  0  0
    0.6495   -3.9158    0.0000 C   0  0  0  0  0  0  0  0  0  0  0  0
    2.1498   -2.4161    0.0000 C   0  0  0  0  0  0  0  0  0  0  0  0
   -4.2799   -3.3750    0.0000 C   0  0  0  0  0  0  0  0  0  0  0  0
   -2.7799   -4.8750    0.0000 C   0  0  0  0  0  0  0  0  0  0  0  0
   -1.2799   -3.3750    0.0000 C   0  0  0  0  0  0  0  0  0  0  0  0
    0.6490    2.0858    0.0000 C   0  0  0  0  0  0  0  0  0  0  0  0
    1.9490   -0.1658    0.0000 C   0  0  0  0  0  0  0  0  0  0  0  0
   -5.3780   -1.3950    0.0000 C   0  0  0  0  0  0  0  0  0  0  0  0
    1.9486    1.3350    0.0000 C   0  0  0  0  0  0  0  0  0  0  0  0
   -0.6500    1.3358    0.0000 C   0  0  0  0  0  0  0  0  0  0  0  0
    0.6500   -0.9158    0.0000 C   0  0  0  0  0  0  0  0  0  0  0  0
   -0.6495   -0.1650    0.0000 C   0  0  0  0  0  0  0  0  0  0  0  0
    3.2476    2.0850    0.0000 C   0  0  0  0  0  0  0  0  0  0  0  0
   -1.9492    2.0856    0.0000 C   0  0  0  0  0  0  0  0  0  0  0  0
    0.6498   -2.4158    0.0000 C   0  0  0  0  0  0  0  0  0  0  0  0
   -2.7799   -3.3750    0.0000 C   0  0  0  0  0  0  0  0  0  0  0  0
   -6.6771   -0.6450    0.0000 F   0  0  0  0  0  0  0  0  0  0  0  0
   -4.0790   -0.6450    0.0000 O   0  0  0  0  0  0  0  0  0  0  0  0
   -2.7799   -1.3950    0.0000 Si  0  0  0  0  0  4  0  0  0  0  0  0
 16 13  2  0
 16 14  1  0
 17 13  1  0
 18 14  2  0
 19 17  2  0
 19 18  1  0
 20  1  1  0
 20  2  1  0
 20  3  1  0
 20 16  1  0
 21  4  1  0
 21  5  1  0
 21  6  1  0
 21 17  1  0
 22  7  1  0
 22  8  1  0
 22  9  1  0
 22 18  1  0
 23 10  1  0
 23 11  1  0
 23 12  1  0
 24 15  1  0
 25 15  1  0
 26 19  1  0
 26 23  1  0
 26 25  1  0
M  END
>  <NAME>  (6614) 
TERT-BUTYLFLUOROMETHOXY(2,4,6-TRI-TERT-BUTYLPHENYL)SILANE

>  <SYNONYMS>  (6614) 


>  <SPECTRUM TYPE>  (6614) 
MS1

>  <INSTRUMENT TYPE>  (6614) 
EI-B

>  <INSTRUMENT>  (6614) 
JEOL JMS-D-3000

>  <ION MODE>  (6614) 
P

>  <INCHIKEY>  (6614) 
DMIAYICLLVFFMQ-UHFFFAOYSA-N

>  <FORMULA>  (6614) 
C23H41FOSi

>  <EXACT MASS>  (6614) 
380.291070682

>  <MW>  (6614) 
380

>  <ID>  (6614) 
JP001367

>  <CONTRIBUTOR>  (6614) 
University of Tokyo Team, {Faculty of Engineering, University of Tokyo

>  <COMMENT>  (6614) 
SMILES=FCO[SiH](C(C)(C)C)c(c1C(C)(C)C)c(cc(C(C)(C)C)c1)C(C)(C)C
InChI=InChI=1S/C23H41FOSi/c1-20(2,3)16-13-17(21(4,5)6)19(18(14-16)22(7,8)9)26(25-15-24)23(10,11)12/h13-14,26H,15H2,1-12H3
computed SMILES=FCO[SiH](C=1C(=CC(=CC1C(C)(C)C)C(C)(C)C)C(C)(C)C)C(C)(C)C
accession=JP001367
date=2016.01.19 (Created 2008.10.21, modified 2011.05.06)
author=MASS SPECTROSCOPY SOC. OF JAPAN (MSSJ)
license=CC BY-NC-SA
exact mass=380.29107
ionization energy=70 eV
ion type=[M]+*
computed spectral entropy=2.9581466231611495
computed normalized entropy=0.7381833469855448
SPLASH=splash10-052f-9171000000-262e0ac31bdfb4c5460e
submitter=submitter = University of Tokyo Team (Faculty of Engineering, University of Tokyo)
MoNA Rating=3.75

>  <NUM PEAKS>  (6614) 
55

>  <MASS SPECTRAL PEAKS>  (6614) 
43 2.13
44 1.69
55 3.81
56 2.65
57 99.99
58 4.68
59 1.15
63 6.81
77 27.67
78 2.42
79 3.46
91 2.6
93 71.51
94 5.61
95 2.88
105 1.74
115 1.75
117 1.61
119 1.4
128 2.37
129 2.28
131 2.49
135 1.98
141 1.43
142 1.19
143 1.72
155 1.32
157 1.54
159 1.43
173 2.74
175 1.6
199 1.44
211 3.24
215 3.57
229 3.38
231 8.31
232 1.61
235 3.81
251 1.59
253 7.42
267 47.52
268 14.28
269 3.86
271 3.89
272 1.11
275 1.12
291 70.7
292 18.2
293 5.14
309 7.65
310 1.91
323 15.14
324 11.26
325 3.12
380 1.21

$$$$

     RDKit          2D

 11 10  0  0  0  0  0  0  0  0999 V2000
   -3.1974   -0.2880    0.0000 C   0  0  0  0  0  0  0  0  0  0  0  0
    0.1507    1.4130    0.0000 C   0  0  0  0  0  0  0  0  0  0  0  0
    0.6998    3.4620    0.0000 C   0  0  0  0  0  0  0  0  0  0  0  0
   -1.3493    4.0111    0.0000 C   0  0  0  0  0  0  0  0  0  0  0  0
   -2.4474    4.0111    0.0000 C   0  0  0  0  0  0  0  0  0  0  0  0
   -4.4964    3.4620    0.0000 C   0  0  0  0  0  0  0  0  0  0  0  0
   -3.9474    1.4130    0.0000 C   0  0  0  0  0  0  0  0  0  0  0  0
   -1.8983    0.4620    0.0000 C   0  0  0  0  0  0  0  0  0  0  0  0
   -1.8983    1.9620    0.0000 C   0  0  0  0  0  0  0  0  0  0  0  0
   -0.5993    2.7120    0.0000 Si  0  0  0  0  0  4  0  0  0  0  0  0
   -3.1974    2.7120    0.0000 Si  0  0  0  0  0  4  0  0  0  0  0  0
  8  1  1  0
  9  8  2  3
 10  2  1  0
 10  3  1  0
 10  4  1  0
 10  9  1  0
 11  5  1  0
 11  6  1  0
 11  7  1  0
 11  9  1  0
M  END
>  <NAME>  (6615) 
1,1-BIS(TRIMETHYLSILYL)PROPENE

>  <SYNONYMS>  (6615) 


>  <SPECTRUM TYPE>  (6615) 
MS1

>  <INSTRUMENT TYPE>  (6615) 
EI-B

>  <INSTRUMENT>  (6615) 
JEOL JMS-D-3000

>  <ION MODE>  (6615) 
P

>  <INCHIKEY>  (6615) 
XSBNQCZGJKAOHO-UHFFFAOYSA-N

>  <FORMULA>  (6615) 
C9H22Si2

>  <EXACT MASS>  (6615) 
186.126003764

>  <MW>  (6615) 
186

>  <ID>  (6615) 
JP001366

>  <CONTRIBUTOR>  (6615) 
University of Tokyo Team, {Faculty of Engineering, University of Tokyo

>  <COMMENT>  (6615) 
SMILES=CC=C([Si](C)(C)C)[Si](C)(C)C
InChI=InChI=1S/C9H22Si2/c1-8-9(10(2,3)4)11(5,6)7/h8H,1-7H3
computed SMILES=C(=C([Si](C)(C)C)[Si](C)(C)C)C
ionization energy=70 eV
ion type=[M]+*
accession=JP001366
date=2016.01.19 (Created 2008.10.21, modified 2011.05.06)
author=MASS SPECTROSCOPY SOC. OF JAPAN (MSSJ)
license=CC BY-NC-SA
exact mass=186.126
computed spectral entropy=2.243480427789921
computed normalized entropy=0.6969763823933104
SPLASH=splash10-00dj-9100000000-2eabad8f4588931e5ab0
submitter=submitter = University of Tokyo Team (Faculty of Engineering, University of Tokyo)
MoNA Rating=3.75

>  <NUM PEAKS>  (6615) 
25

>  <MASS SPECTRAL PEAKS>  (6615) 
43 5.76
45 16.03
46 1.3
55 1.32
58 2.17
59 4.95
67 1.45
69 1.96
72 1.51
73 99.99
74 7.44
75 3.21
83 7.39
85 2.42
97 55.44
98 13.23
99 4.3
100 1.64
113 2.97
155 1.13
171 23.48
172 4.62
173 2.29
186 8.39
187 1.71

$$$$

     RDKit          2D

  7  6  0  0  0  0  0  0  0  0999 V2000
   -2.5111    2.0993    0.0000 C   0  0  0  0  0  0  0  0  0  0  0  0
   -1.2120   -0.1507    0.0000 C   0  0  0  0  0  0  0  0  0  0  0  0
    0.8370    0.8002    0.0000 C   0  0  0  0  0  0  0  0  0  0  0  0
    1.3861    2.8493    0.0000 C   0  0  0  0  0  0  0  0  0  0  0  0
   -0.6630    3.3983    0.0000 C   0  0  0  0  0  0  0  0  0  0  0  0
   -1.2120    1.3493    0.0000 C   0  0  0  0  0  0  0  0  0  0  0  0
    0.0870    2.0993    0.0000 Si  0  0  0  0  0  4  0  0  0  0  0  0
  6  1  2  0
  6  2  1  0
  7  3  1  0
  7  4  1  0
  7  5  1  0
  7  6  1  0
M  END
>  <NAME>  (6616) 
2-TRIMETHYLSILYLPROPENE

>  <SYNONYMS>  (6616) 


>  <SPECTRUM TYPE>  (6616) 
MS1

>  <INSTRUMENT TYPE>  (6616) 
EI-B

>  <INSTRUMENT>  (6616) 
JEOL JMS-D-3000

>  <ION MODE>  (6616) 
P

>  <INCHIKEY>  (6616) 
IIWSLXWOGWUDPL-UHFFFAOYSA-N

>  <FORMULA>  (6616) 
C6H14Si

>  <EXACT MASS>  (6616) 
114.086476978

>  <MW>  (6616) 
114

>  <ID>  (6616) 
JP001365

>  <CONTRIBUTOR>  (6616) 
University of Tokyo Team, {Faculty of Engineering, University of Tokyo

>  <COMMENT>  (6616) 
SMILES=CC(=C)[Si](C)(C)C
InChI=InChI=1S/C6H14Si/c1-6(2)7(3,4)5/h1H2,2-5H3
computed SMILES=C=C(C)[Si](C)(C)C
accession=JP001365
date=2016.01.19 (Created 2008.10.21, modified 2011.05.06)
author=MASS SPECTROSCOPY SOC. OF JAPAN (MSSJ)
license=CC BY-NC-SA
exact mass=114.08648
ionization energy=70 eV
ion type=[M]+*
computed spectral entropy=2.1890765606242675
computed normalized entropy=0.7082000954874973
SPLASH=splash10-05fs-9000000000-903eb7e64c5f69f32155
submitter=submitter = University of Tokyo Team (Faculty of Engineering, University of Tokyo)
MoNA Rating=3.75

>  <NUM PEAKS>  (6616) 
22

>  <MASS SPECTRAL PEAKS>  (6616) 
42 1.57
43 12.99
45 50.24
46 1.34
53 1.69
55 2.54
57 1.16
58 2.53
59 71.34
60 3.39
67 1.3
72 4.89
73 99.99
74 37.56
75 4.84
83 1.33
86 9.68
99 55.44
100 6.27
101 2.23
114 8.51
115 1.08

$$$$

     RDKit          2D

 23 25  0  0  0  0  0  0  0  0999 V2000
   -2.5522    1.1725    0.0000 C   0  0  0  0  0  0  0  0  0  0  0  0
   -2.9695   -0.7911    0.0000 C   0  0  0  0  0  0  0  0  0  0  0  0
    0.4314   -2.7546    0.0000 C   0  0  0  0  0  0  0  0  0  0  0  0
    1.9232   -1.4114    0.0000 C   0  0  0  0  0  0  0  0  0  0  0  0
   -2.4870   -1.8749    0.0000 C   0  0  0  0  0  0  0  0  0  0  0  0
   -0.7485   -2.8786    0.0000 C   0  0  0  0  0  0  0  0  0  0  0  0
   -1.0262    5.4380    0.0000 C   0  0  0  0  0  0  0  0  0  0  0  0
    4.8542    2.0430    0.0000 C   0  0  0  0  0  0  0  0  0  0  0  0
   -2.2406    4.5562    0.0000 C   0  0  0  0  0  0  0  0  0  0  0  0
    0.3451    4.8280    0.0000 C   0  0  0  0  0  0  0  0  0  0  0  0
    3.6403    2.9255    0.0000 C   0  0  0  0  0  0  0  0  0  0  0  0
    4.6978    0.5503    0.0000 C   0  0  0  0  0  0  0  0  0  0  0  0
   -2.0838    3.0644    0.0000 C   0  0  0  0  0  0  0  0  0  0  0  0
    0.5019    3.3362    0.0000 C   0  0  0  0  0  0  0  0  0  0  0  0
    2.2700    2.3154    0.0000 C   0  0  0  0  0  0  0  0  0  0  0  0
    3.3275   -0.0598    0.0000 C   0  0  0  0  0  0  0  0  0  0  0  0
   -0.7126    2.4544    0.0000 C   0  0  0  0  0  0  0  0  0  0  0  0
    2.1136    0.8227    0.0000 C   0  0  0  0  0  0  0  0  0  0  0  0
   -0.5558    0.9626    0.0000 C   0  0  0  0  0  0  0  0  0  0  0  0
    0.7433    0.2126    0.0000 C   0  0  0  0  0  0  0  0  0  0  0  0
   -1.6705   -0.0411    0.0000 Si  0  0  0  0  0  4  0  0  0  0  0  0
    0.4314   -1.2546    0.0000 Si  0  0  0  0  0  4  0  0  0  0  0  0
   -1.0604   -1.4114    0.0000 Si  0  0  0  0  0  4  0  0  0  0  0  0
  9  7  2  0
 10  7  1  0
 11  8  2  0
 12  8  1  0
 13  9  1  0
 14 10  2  0
 15 11  1  0
 16 12  2  0
 17 13  2  0
 17 14  1  0
 18 15  2  0
 18 16  1  0
 19 17  1  0
 20 18  1  0
 20 19  2  0
 21  1  1  0
 21  2  1  0
 21 19  1  0
 22  3  1  0
 22  4  1  0
 22 20  1  0
 23  5  1  0
 23  6  1  0
 23 21  1  0
 23 22  1  0
M  END
>  <NAME>  (6617) 
1,1,2,2,3,3-HEXAMETHYL-4,5-DIPHENYL-1,2,3-TRISILACYCLOPENT-4-ENE

>  <SYNONYMS>  (6617) 


>  <SPECTRUM TYPE>  (6617) 
MS1

>  <INSTRUMENT TYPE>  (6617) 
EI-B

>  <INSTRUMENT>  (6617) 
JEOL JMS-D-3000

>  <ION MODE>  (6617) 
P

>  <INCHIKEY>  (6617) 
YSFSRQJKMIFGKF-UHFFFAOYSA-N

>  <FORMULA>  (6617) 
C20H28Si3

>  <EXACT MASS>  (6617) 
352.149880486

>  <MW>  (6617) 
352

>  <ID>  (6617) 
JP001364

>  <CONTRIBUTOR>  (6617) 
University of Tokyo Team, {Faculty of Engineering, University of Tokyo

>  <COMMENT>  (6617) 
SMILES=c(c3)ccc(c3)C(=C(c(c2)cccc2)1)[Si](C)(C)[Si](C)(C)[Si](C)(C)1
InChI=InChI=1S/C20H28Si3/c1-21(2)19(17-13-9-7-10-14-17)20(18-15-11-8-12-16-18)22(3,4)23(21,5)6/h7-16H,1-6H3
computed SMILES=C=1C=CC(=CC1)C2=C(C=3C=CC=CC3)[Si](C)(C)[Si](C)(C)[Si]2(C)C
accession=JP001364
date=2016.01.19 (Created 2008.10.21, modified 2011.05.06)
author=MASS SPECTROSCOPY SOC. OF JAPAN (MSSJ)
license=CC BY-NC-SA
exact mass=352.14988
ionization energy=70 eV
ion type=[M]+*
computed spectral entropy=3.5741742386337343
computed normalized entropy=0.8110737349225564
SPLASH=splash10-00di-6932000000-f0fead2e3cb18e0bf037
submitter=submitter = University of Tokyo Team (Faculty of Engineering, University of Tokyo)
MoNA Rating=3.75

>  <NUM PEAKS>  (6617) 
82

>  <MASS SPECTRAL PEAKS>  (6617) 
40 4.81
44 2.8
45 8.06
58 1.36
59 11.76
60 1.06
73 99.99
74 6.64
75 3.33
76 1
77 1
85 1.8
99 4.07
100 1.84
101 5.1
102 1.27
105 5.85
107 1.15
113 1.51
114 1.16
115 5.76
116 23.19
117 6.32
118 2.29
119 1.31
129 5.95
130 1.16
131 4.91
133 1.4
135 25.62
136 3.04
140 1.2
143 1.06
145 2.88
147 1.41
157 1.51
159 9.02
160 1.87
161 1.49
163 7.19
164 1.32
165 1.15
174 5.6
175 2.71
176 2.63
177 4.81
178 25.76
179 5.24
180 1.78
187 1.45
191 2.5
193 2.37
197 5.55
198 1.13
202 4.99
203 1.48
204 1.08
207 1.35
217 7.96
218 1.94
219 1.43
221 3.04
233 1.38
263 2.37
264 2.57
265 1.18
277 2.49
278 1.77
279 12.84
280 3.88
281 1.28
293 3.94
294 1.54
295 5.94
296 1.68
310 2.04
337 5.15
338 1.86
352 31.6
353 12.67
354 5.49
355 1.45

$$$$

     RDKit          2D

 21 23  0  0  0  0  0  0  0  0999 V2000
   -2.3778    0.8705    0.0000 C   0  0  0  0  0  0  0  0  0  0  0  0
   -2.7952   -1.0930    0.0000 C   0  0  0  0  0  0  0  0  0  0  0  0
    0.6057   -3.0565    0.0000 C   0  0  0  0  0  0  0  0  0  0  0  0
    2.0975   -1.7133    0.0000 C   0  0  0  0  0  0  0  0  0  0  0  0
   -0.8518    5.1360    0.0000 C   0  0  0  0  0  0  0  0  0  0  0  0
    5.0286    1.7410    0.0000 C   0  0  0  0  0  0  0  0  0  0  0  0
   -2.0663    4.2542    0.0000 C   0  0  0  0  0  0  0  0  0  0  0  0
    0.5195    4.5260    0.0000 C   0  0  0  0  0  0  0  0  0  0  0  0
    3.8146    2.6235    0.0000 C   0  0  0  0  0  0  0  0  0  0  0  0
    4.8721    0.2483    0.0000 C   0  0  0  0  0  0  0  0  0  0  0  0
   -1.9095    2.7625    0.0000 C   0  0  0  0  0  0  0  0  0  0  0  0
    0.6762    3.0342    0.0000 C   0  0  0  0  0  0  0  0  0  0  0  0
    2.4443    2.0134    0.0000 C   0  0  0  0  0  0  0  0  0  0  0  0
    3.5018   -0.3618    0.0000 C   0  0  0  0  0  0  0  0  0  0  0  0
   -0.5382    2.1525    0.0000 C   0  0  0  0  0  0  0  0  0  0  0  0
    2.2879    0.5208    0.0000 C   0  0  0  0  0  0  0  0  0  0  0  0
   -0.3814    0.6607    0.0000 C   0  0  0  0  0  0  0  0  0  0  0  0
    0.9176   -0.0893    0.0000 C   0  0  0  0  0  0  0  0  0  0  0  0
   -0.8861   -1.7133    0.0000 O   0  0  0  0  0  0  0  0  0  0  0  0
   -1.4962   -0.3430    0.0000 Si  0  0  0  0  0  4  0  0  0  0  0  0
    0.6057   -1.5565    0.0000 Si  0  0  0  0  0  4  0  0  0  0  0  0
  7  5  2  0
  8  5  1  0
  9  6  2  0
 10  6  1  0
 11  7  1  0
 12  8  2  0
 13  9  1  0
 14 10  2  0
 15 11  2  0
 15 12  1  0
 16 13  2  0
 16 14  1  0
 17 15  1  0
 18 16  1  0
 18 17  2  0
 20  1  1  0
 20  2  1  0
 20 17  1  0
 20 19  1  0
 21  3  1  0
 21  4  1  0
 21 18  1  0
 21 19  1  0
M  END
>  <NAME>  (6618) 
2,2,5,5-TETRAMETHYL-3,4-DIPHENYL-1-OXA-2,5-DISILACYCLOPENT-3-ENE

>  <SYNONYMS>  (6618) 


>  <SPECTRUM TYPE>  (6618) 
MS1

>  <INSTRUMENT TYPE>  (6618) 
EI-B

>  <INSTRUMENT>  (6618) 
JEOL JMS-D-3000

>  <ION MODE>  (6618) 
P

>  <INCHIKEY>  (6618) 
KYNANOAHFJKIQU-UHFFFAOYSA-N

>  <FORMULA>  (6618) 
C18H22OSi2

>  <EXACT MASS>  (6618) 
310.12091838399994

>  <MW>  (6618) 
310

>  <ID>  (6618) 
JP001363

>  <CONTRIBUTOR>  (6618) 
University of Tokyo Team, {Faculty of Engineering, University of Tokyo

>  <COMMENT>  (6618) 
SMILES=c(c3)ccc(c3)C([Si](C)(C)1)=C(c(c2)cccc2)[Si](C)(C)O1
InChI=InChI=1S/C18H22OSi2/c1-20(2)17(15-11-7-5-8-12-15)18(21(3,4)19-20)16-13-9-6-10-14-16/h5-14H,1-4H3
computed SMILES=O1[Si](C(C=2C=CC=CC2)=C(C=3C=CC=CC3)[Si]1(C)C)(C)C
accession=JP001363
date=2016.01.19 (Created 2008.10.21, modified 2011.05.06)
author=MASS SPECTROSCOPY SOC. OF JAPAN (MSSJ)
license=CC BY-NC-SA
exact mass=310.12092
ionization energy=70 eV
ion type=[M]+*
computed spectral entropy=2.432467413557142
computed normalized entropy=0.7018617349325783
SPLASH=splash10-01ot-1395000000-4701f17b2e5f959f7a10
submitter=submitter = University of Tokyo Team (Faculty of Engineering, University of Tokyo)
MoNA Rating=3.75

>  <NUM PEAKS>  (6618) 
32

>  <MASS SPECTRAL PEAKS>  (6618) 
45 8.26
59 1.2
73 19.45
74 1.76
75 1.03
105 1.11
117 16.44
118 1.84
119 1.15
131 1.89
148 1.11
155 3.71
156 1.19
159 1.25
176 1.24
178 8.38
179 1.77
193 16.42
194 2.73
195 1.28
219 1.07
221 1.01
233 1.42
293 1.47
295 99.99
296 32.9
297 16.55
298 2.2
310 65.34
311 16.79
312 8.33
313 1.31

$$$$

     RDKit          2D

  6  5  0  0  0  0  0  0  0  0999 V2000
    0.8002    0.0135    0.0000 C   0  0  0  0  0  0  0  0  0  0  0  0
   -0.6998    2.6115    0.0000 C   0  0  0  0  0  0  0  0  0  0  0  0
   -1.2488    0.5625    0.0000 C   0  0  0  0  0  0  0  0  0  0  0  0
    1.3493    2.0625    0.0000 C   0  0  0  0  0  0  0  0  0  0  0  0
    1.3493    3.5625    0.0000 Cl  0  0  0  0  0  0  0  0  0  0  0  0
    0.0502    1.3125    0.0000 Si  0  0  0  0  0  4  0  0  0  0  0  0
  5  4  1  0
  6  1  1  0
  6  2  1  0
  6  3  1  0
  6  4  1  0
M  END
>  <NAME>  (6619) 
(CHLOROMETHYL)TRIMETHYLSILANE

>  <SYNONYMS>  (6619) 


>  <SPECTRUM TYPE>  (6619) 
MS1

>  <INSTRUMENT TYPE>  (6619) 
EI-B

>  <INSTRUMENT>  (6619) 
JEOL JMS-D-3000

>  <ION MODE>  (6619) 
P

>  <INCHIKEY>  (6619) 
OOCUOKHIVGWCTJ-UHFFFAOYSA-N

>  <FORMULA>  (6619) 
C4H11ClSi

>  <EXACT MASS>  (6619) 
122.031854562

>  <MW>  (6619) 
122

>  <ID>  (6619) 
JP001362

>  <CONTRIBUTOR>  (6619) 
University of Tokyo Team, {Faculty of Engineering, University of Tokyo

>  <COMMENT>  (6619) 
SMILES=ClC[Si](C)(C)C
InChI=InChI=1S/C4H11ClSi/c1-6(2,3)4-5/h4H2,1-3H3
computed SMILES=ClC[Si](C)(C)C
accession=JP001362
date=2016.01.19 (Created 2008.10.21, modified 2011.05.06)
author=MASS SPECTROSCOPY SOC. OF JAPAN (MSSJ)
license=CC BY-NC-SA
exact mass=122.03185
ionization energy=70 eV
ion type=[M]+*
computed spectral entropy=1.9037014130064598
computed normalized entropy=0.6354711433368514
SPLASH=splash10-00di-9000000000-743877b6fb9565db1aac
submitter=submitter = University of Tokyo Team (Faculty of Engineering, University of Tokyo)
MoNA Rating=3.75

>  <NUM PEAKS>  (6619) 
20

>  <MASS SPECTRAL PEAKS>  (6619) 
41 1.86
43 5.23
44 1.96
45 12.29
55 1.02
59 2.06
63 3.6
65 3.09
72 1.05
73 99.99
74 8.71
75 3.56
78 1.12
79 34.65
80 2.64
81 11.99
93 1.26
107 6.74
109 2.42
122 0.89

$$$$

     RDKit          2D

  6  5  0  0  0  0  0  0  0  0999 V2000
    0.8002    0.0135    0.0000 C   0  0  0  0  0  0  0  0  0  0  0  0
   -0.6998    2.6115    0.0000 C   0  0  0  0  0  0  0  0  0  0  0  0
    1.3493    2.0625    0.0000 C   0  0  0  0  0  0  0  0  0  0  0  0
    1.3493    3.5625    0.0000 Cl  0  0  0  0  0  0  0  0  0  0  0  0
   -1.2488    0.5625    0.0000 Cl  0  0  0  0  0  0  0  0  0  0  0  0
    0.0502    1.3125    0.0000 Si  0  0  0  0  0  4  0  0  0  0  0  0
  4  3  1  0
  6  1  1  0
  6  2  1  0
  6  3  1  0
  6  5  1  0
M  END
>  <NAME>  (6620) 
CHLORO(CHLOROMETHYL)DIMETHYLSILANE

>  <SYNONYMS>  (6620) 


>  <SPECTRUM TYPE>  (6620) 
MS1

>  <INSTRUMENT TYPE>  (6620) 
EI-B

>  <INSTRUMENT>  (6620) 
JEOL JMS-D-3000

>  <ION MODE>  (6620) 
P

>  <INCHIKEY>  (6620) 
ITKVLPYNJQOCPW-UHFFFAOYSA-N

>  <FORMULA>  (6620) 
C3H8Cl2Si

>  <EXACT MASS>  (6620) 
141.977232146

>  <MW>  (6620) 
142

>  <ID>  (6620) 
JP001361

>  <CONTRIBUTOR>  (6620) 
University of Tokyo Team, {Faculty of Engineering, University of Tokyo

>  <COMMENT>  (6620) 
SMILES=ClC[Si](C)(C)Cl
InChI=InChI=1S/C3H8Cl2Si/c1-6(2,5)3-4/h3H2,1-2H3
computed SMILES=ClC[Si](Cl)(C)C
accession=JP001361
date=2016.01.19 (Created 2008.10.21, modified 2011.05.06)
author=MASS SPECTROSCOPY SOC. OF JAPAN (MSSJ)
license=CC BY-NC-SA
exact mass=141.97723
ionization energy=70 eV
ion type=[M]+*
computed spectral entropy=2.3545754684465
computed normalized entropy=0.6856680960753663
SPLASH=splash10-0007-9100000000-a59f89ba4b3cce46a233
submitter=submitter = University of Tokyo Team (Faculty of Engineering, University of Tokyo)
MoNA Rating=3.75

>  <NUM PEAKS>  (6620) 
31

>  <MASS SPECTRAL PEAKS>  (6620) 
42 1.13
43 2.18
63 10.46
64 1.22
65 13.69
67 3.8
75 2.29
77 1.48
78 2.02
79 13.66
80 1.52
81 5.24
92 1.07
93 99.99
94 7.95
95 37.32
96 2.59
97 1.21
98 1.05
99 14.01
100 1.08
101 9.41
103 1.79
107 4.97
109 1.82
113 1.62
115 1.16
127 2.1
129 1.41
142 2.45
144 1.62

$$$$

     RDKit          2D

 30 34  0  0  0  0  0  0  0  0999 V2000
   -4.3394    4.9068    0.0000 C   0  0  0  0  0  0  0  0  0  0  0  0
    2.9961    2.6768    0.0000 C   0  0  0  0  0  0  0  0  0  0  0  0
   -7.9270   -3.1158    0.0000 C   0  0  0  0  0  0  0  0  0  0  0  0
   -5.7885    0.8792    0.0000 C   0  0  0  0  0  0  0  0  0  0  0  0
   -4.6519    3.4389    0.0000 C   0  0  0  0  0  0  0  0  0  0  0  0
   -2.9122    5.3711    0.0000 C   0  0  0  0  0  0  0  0  0  0  0  0
    1.5282    2.9894    0.0000 C   0  0  0  0  0  0  0  0  0  0  0  0
    3.4604    1.2496    0.0000 C   0  0  0  0  0  0  0  0  0  0  0  0
   -6.9232   -4.2315    0.0000 C   0  0  0  0  0  0  0  0  0  0  0  0
   -7.4637   -1.6883    0.0000 C   0  0  0  0  0  0  0  0  0  0  0  0
   -4.6730    1.8833    0.0000 C   0  0  0  0  0  0  0  0  0  0  0  0
   -5.4764   -0.5880    0.0000 C   0  0  0  0  0  0  0  0  0  0  0  0
   -3.5372    2.4352    0.0000 C   0  0  0  0  0  0  0  0  0  0  0  0
   -1.7975    4.3674    0.0000 C   0  0  0  0  0  0  0  0  0  0  0  0
    0.5245    1.8746    0.0000 C   0  0  0  0  0  0  0  0  0  0  0  0
    2.4567    0.1349    0.0000 C   0  0  0  0  0  0  0  0  0  0  0  0
   -5.4559   -3.9196    0.0000 C   0  0  0  0  0  0  0  0  0  0  0  0
   -5.9965   -1.3764    0.0000 C   0  0  0  0  0  0  0  0  0  0  0  0
   -3.2454    1.4202    0.0000 C   0  0  0  0  0  0  0  0  0  0  0  0
   -4.0488   -1.0511    0.0000 C   0  0  0  0  0  0  0  0  0  0  0  0
    0.2969   -2.1345    0.0000 C   0  0  0  0  0  0  0  0  0  0  0  0
   -1.0021   -2.8845    0.0000 C   0  0  0  0  0  0  0  0  0  0  0  0
   -0.9953    1.8957    0.0000 C   0  0  0  0  0  0  0  0  0  0  0  0
   -2.1100    2.8994    0.0000 C   0  0  0  0  0  0  0  0  0  0  0  0
    0.9887    0.4474    0.0000 C   0  0  0  0  0  0  0  0  0  0  0  0
   -4.9926   -2.4921    0.0000 C   0  0  0  0  0  0  0  0  0  0  0  0
   -2.9333   -0.0470    0.0000 C   0  0  0  0  0  0  0  0  0  0  0  0
   -0.0150   -0.6673    0.0000 C   0  0  0  0  0  0  0  0  0  0  0  0
   -2.1169   -1.8808    0.0000 C   0  0  0  0  0  0  0  0  0  0  0  0
   -1.5067   -0.5105    0.0000 Si  0  0  0  0  0  4  0  0  0  0  0  0
  5  1  2  0
  6  1  1  0
  7  2  2  0
  8  2  1  0
  9  3  2  0
 10  3  1  0
 11  4  2  0
 12  4  1  0
 13  5  1  0
 14  6  2  0
 15  7  1  0
 16  8  2  0
 17  9  1  0
 18 10  2  0
 19 11  1  0
 20 12  2  0
 22 21  1  0
 24 13  2  0
 24 14  1  0
 24 23  1  0
 25 15  2  0
 25 16  1  0
 26 17  2  0
 26 18  1  0
 27 19  2  0
 27 20  1  0
 28 21  2  0
 28 25  1  0
 29 22  2  0
 29 26  1  0
 30 23  1  0
 30 27  1  0
 30 28  1  0
 30 29  1  0
M  END
>  <NAME>  (6621) 
1-BENZYL-1,2,5-TRIPHENYL-1-SILACYCLOPENTA-2,4-DIENE

>  <SYNONYMS>  (6621) 
1-BENZYL-1,2,5-TRIPHENYLSILOLE

>  <SPECTRUM TYPE>  (6621) 
MS1

>  <INSTRUMENT TYPE>  (6621) 
EI-B

>  <INSTRUMENT>  (6621) 
JEOL JMS-D-3000

>  <ION MODE>  (6621) 
P

>  <INCHIKEY>  (6621) 
FKYJOIQFIUOZLC-UHFFFAOYSA-N

>  <FORMULA>  (6621) 
C29H24Si

>  <EXACT MASS>  (6621) 
400.164727298

>  <MW>  (6621) 
400

>  <ID>  (6621) 
JP001360

>  <CONTRIBUTOR>  (6621) 
University of Tokyo Team, {Faculty of Engineering, University of Tokyo

>  <COMMENT>  (6621) 
SMILES=c(c1[Si](C(c(c5)cccc5)=3)(C(c(c4)cccc4)=C([H])C3[H])Cc(c2)cccc2)cccc1
InChI=InChI=1S/C29H24Si/c1-5-13-24(14-6-1)23-30(27-19-11-4-12-20-27)28(25-15-7-2-8-16-25)21-22-29(30)26-17-9-3-10-18-26/h1-22H,23H2
computed SMILES=C=1C=CC(=CC1)C2=CC=C(C=3C=CC=CC3)[Si]2(C=4C=CC=CC4)CC=5C=CC=CC5
accession=JP001360
date=2016.01.19 (Created 2008.10.21, modified 2011.05.06)
author=MASS SPECTROSCOPY SOC. OF JAPAN (MSSJ)
license=CC BY-NC-SA
exact mass=400.16473
ionization energy=70 eV
ion type=[M]+*
computed spectral entropy=2.9459514546917314
computed normalized entropy=0.7138007100923477
SPLASH=splash10-0pb9-2926600000-040a8afa0447d25880ab
submitter=submitter = University of Tokyo Team (Faculty of Engineering, University of Tokyo)
MoNA Rating=3.75

>  <NUM PEAKS>  (6621) 
62

>  <MASS SPECTRAL PEAKS>  (6621) 
42 1.13
43 2.31
44 10.18
51 1.12
53 3.98
55 1.29
56 2.9
57 2.32
65 2.18
69 1.14
77 2.63
78 1.95
79 3.13
91 5.21
102 1.2
103 2.18
105 99.99
106 12.06
107 4.45
115 1.37
129 5.65
130 1.38
131 4.63
161 9.48
162 3.01
165 2.16
178 1.68
179 1.33
180 1.02
181 2.99
183 13.55
184 2.63
191 1.41
202 2.02
203 1.67
204 1.64
205 2.89
206 1.47
207 14.96
208 3.52
209 1.59
215 1.02
217 1.03
220 2.45
231 1.98
233 2.4
245 1.08
259 3.2
283 2.76
284 1.06
296 1.1
307 1.58
309 87.82
310 25.73
311 6.69
312 1.23
322 2.72
325 1.31
400 80.92
401 30.92
402 8.41
403 1.65

$$$$

     RDKit          2D

 19 21  0  0  0  0  0  0  0  0999 V2000
   -3.5362   -0.0577    0.0000 C   0  0  0  0  0  0  0  0  0  0  0  0
   -1.7977   -1.0614    0.0000 C   0  0  0  0  0  0  0  0  0  0  0  0
   -7.1213    2.7118    0.0000 C   0  0  0  0  0  0  0  0  0  0  0  0
    2.3933   -2.7815    0.0000 C   0  0  0  0  0  0  0  0  0  0  0  0
   -6.6580    1.2843    0.0000 C   0  0  0  0  0  0  0  0  0  0  0  0
   -6.1174    3.8274    0.0000 C   0  0  0  0  0  0  0  0  0  0  0  0
    2.8575   -1.3543    0.0000 C   0  0  0  0  0  0  0  0  0  0  0  0
    0.9254   -3.0940    0.0000 C   0  0  0  0  0  0  0  0  0  0  0  0
   -5.1908    0.9724    0.0000 C   0  0  0  0  0  0  0  0  0  0  0  0
   -4.6502    3.5156    0.0000 C   0  0  0  0  0  0  0  0  0  0  0  0
    1.8538   -0.2396    0.0000 C   0  0  0  0  0  0  0  0  0  0  0  0
   -0.0783   -1.9793    0.0000 C   0  0  0  0  0  0  0  0  0  0  0  0
   -1.6050    2.7799    0.0000 C   0  0  0  0  0  0  0  0  0  0  0  0
   -0.3059    2.0299    0.0000 C   0  0  0  0  0  0  0  0  0  0  0  0
   -4.1869    2.0880    0.0000 C   0  0  0  0  0  0  0  0  0  0  0  0
    0.3859   -0.5521    0.0000 C   0  0  0  0  0  0  0  0  0  0  0  0
   -2.7197    1.7762    0.0000 C   0  0  0  0  0  0  0  0  0  0  0  0
   -0.6178    0.5627    0.0000 C   0  0  0  0  0  0  0  0  0  0  0  0
   -2.1096    0.4059    0.0000 Si  0  0  0  0  0  4  0  0  0  0  0  0
  5  3  2  0
  6  3  1  0
  7  4  2  0
  8  4  1  0
  9  5  1  0
 10  6  2  0
 11  7  1  0
 12  8  2  0
 14 13  1  0
 15  9  2  0
 15 10  1  0
 16 11  2  0
 16 12  1  0
 17 13  2  0
 17 15  1  0
 18 14  2  0
 18 16  1  0
 19  1  1  0
 19  2  1  0
 19 17  1  0
 19 18  1  0
M  END
>  <NAME>  (6622) 
1,1-DIMETHYL-2,5DIPHENYL-1-SILACYCLOPENTA-2,4-DIENE

>  <SYNONYMS>  (6622) 
1,1-DIMETHYL-2,5-DIPHENYLSILOLE

>  <SPECTRUM TYPE>  (6622) 
MS1

>  <INSTRUMENT TYPE>  (6622) 
EI-B

>  <INSTRUMENT>  (6622) 
JEOL JMS-D-3000

>  <ION MODE>  (6622) 
P

>  <INCHIKEY>  (6622) 
YCBUIVXZVYHASK-UHFFFAOYSA-N

>  <FORMULA>  (6622) 
C18H18Si

>  <EXACT MASS>  (6622) 
262.117777106

>  <MW>  (6622) 
262

>  <ID>  (6622) 
JP001359

>  <CONTRIBUTOR>  (6622) 
University of Tokyo Team, {Faculty of Engineering, University of Tokyo

>  <COMMENT>  (6622) 
SMILES=c(c3)ccc(c3)C(=C([H])1)[Si](C)(C)C(c(c2)cccc2)=C([H])1
InChI=InChI=1S/C18H18Si/c1-19(2)17(15-9-5-3-6-10-15)13-14-18(19)16-11-7-4-8-12-16/h3-14H,1-2H3
computed SMILES=C=1C=CC(=CC1)C2=CC=C(C=3C=CC=CC3)[Si]2(C)C
accession=JP001359
date=2016.01.19 (Created 2008.10.21, modified 2011.05.06)
author=MASS SPECTROSCOPY SOC. OF JAPAN (MSSJ)
license=CC BY-NC-SA
exact mass=262.11778
ionization energy=70 eV
ion type=[M]+*
computed spectral entropy=3.27278518585205
computed normalized entropy=0.7756319965566826
SPLASH=splash10-03di-1790000000-8671f152938eb56b0f13
submitter=submitter = University of Tokyo Team (Faculty of Engineering, University of Tokyo)
MoNA Rating=3.75

>  <NUM PEAKS>  (6622) 
68

>  <MASS SPECTRAL PEAKS>  (6622) 
43 15.68
44 4.91
45 1.02
51 1.37
53 3.24
58 1.42
59 1.59
67 1.19
69 1.31
77 2.42
91 1.95
92 1.01
93 1.02
102 2.38
103 1.69
105 25.98
106 3.03
107 1.68
115 2.5
116 1.78
117 2.23
119 2.48
120 1.44
121 30.5
122 4.83
123 4.31
124 1.55
129 4.44
130 1.72
131 7.7
132 1.19
143 4.01
144 1.04
145 15.55
146 2.84
147 1.12
158 3.63
159 3.36
160 1.14
167 1.38
169 6.56
170 1.18
171 3.57
183 3.65
184 6.13
185 2.09
197 2.63
202 3.31
203 2.88
204 2.13
205 1.13
207 2.41
215 2.1
217 1.85
218 1.62
219 1.62
220 1.53
221 3.98
234 2.31
245 4.42
246 1.18
247 28.19
248 6.75
249 1.75
262 99.99
263 25.86
264 6.67
265 1.02

$$$$

     RDKit          2D

 22 22  0  0  0  0  0  0  0  0999 V2000
    1.2990   -5.0490    0.0000 C   0  0  0  0  0  0  0  0  0  0  0  0
   -1.2990   -5.0490    0.0000 C   0  0  0  0  0  0  0  0  0  0  0  0
    2.5987    1.7012    0.0000 C   0  0  0  0  0  0  0  0  0  0  0  0
    3.8981   -0.5486    0.0000 C   0  0  0  0  0  0  0  0  0  0  0  0
   -3.8981   -0.5486    0.0000 C   0  0  0  0  0  0  0  0  0  0  0  0
   -2.5987    1.7012    0.0000 C   0  0  0  0  0  0  0  0  0  0  0  0
   -0.5490    3.7500    0.0000 C   0  0  0  0  0  0  0  0  0  0  0  0
   -2.5981    3.2010    0.0000 C   0  0  0  0  0  0  0  0  0  0  0  0
   -2.0490    1.1519    0.0000 C   0  0  0  0  0  0  0  0  0  0  0  0
    1.3000   -2.0490    0.0000 C   0  0  0  0  0  0  0  0  0  0  0  0
   -1.3000   -2.0490    0.0000 C   0  0  0  0  0  0  0  0  0  0  0  0
   -0.0000   -4.2990    0.0000 C   0  0  0  0  0  0  0  0  0  0  0  0
    2.5989    0.2012    0.0000 C   0  0  0  0  0  0  0  0  0  0  0  0
   -2.5989    0.2012    0.0000 C   0  0  0  0  0  0  0  0  0  0  0  0
    0.0000   -2.7990    0.0000 C   0  0  0  0  0  0  0  0  0  0  0  0
    1.3000   -0.5490    0.0000 C   0  0  0  0  0  0  0  0  0  0  0  0
   -1.3000   -0.5490    0.0000 C   0  0  0  0  0  0  0  0  0  0  0  0
    0.0000    0.2010    0.0000 C   0  0  0  0  0  0  0  0  0  0  0  0
   -1.2990    2.4510    0.0000 C   0  0  0  0  0  0  0  0  0  0  0  0
    1.4772    1.4405    0.0000 F   0  0  0  0  0  0  0  0  0  0  0  0
    0.5130    3.1105    0.0000 F   0  0  0  0  0  0  0  0  0  0  0  0
    0.0000    1.7010    0.0000 Si  0  0  0  0  0  4  0  0  0  0  0  0
 12  1  1  0
 12  2  1  0
 13  3  1  0
 13  4  1  0
 14  5  1  0
 14  6  1  0
 15 10  2  0
 15 11  1  0
 15 12  1  0
 16 10  1  0
 16 13  1  0
 17 11  2  0
 17 14  1  0
 18 16  2  0
 18 17  1  0
 19  7  1  0
 19  8  1  0
 19  9  1  0
 22 18  1  0
 22 19  1  0
 22 20  1  0
 22 21  1  0
M  END
>  <NAME>  (6623) 
TERT-BUTYLDIFLUORO(2,4,6-TRIISOPROPYLPHENYL)SILANE

>  <SYNONYMS>  (6623) 


>  <SPECTRUM TYPE>  (6623) 
MS1

>  <INSTRUMENT TYPE>  (6623) 
EI-B

>  <INSTRUMENT>  (6623) 
JEOL JMS-D-3000

>  <ION MODE>  (6623) 
P

>  <INCHIKEY>  (6623) 
UZVOOYYAXOKYBB-UHFFFAOYSA-N

>  <FORMULA>  (6623) 
C19H32F2Si

>  <EXACT MASS>  (6623) 
326.224133994

>  <MW>  (6623) 
326

>  <ID>  (6623) 
JP001358

>  <CONTRIBUTOR>  (6623) 
University of Tokyo Team, {Faculty of Engineering, University of Tokyo

>  <COMMENT>  (6623) 
SMILES=CC(C)c(c1)cc(C(C)C)c(c(C(C)C)1)[Si](F)(F)C(C)(C)C
InChI=InChI=1S/C19H32F2Si/c1-12(2)15-10-16(13(3)4)18(17(11-15)14(5)6)22(20,21)19(7,8)9/h10-14H,1-9H3
computed SMILES=F[Si](F)(C=1C(=CC(=CC1C(C)C)C(C)C)C(C)C)C(C)(C)C
accession=JP001358
date=2016.01.19 (Created 2008.10.21, modified 2011.05.06)
author=MASS SPECTROSCOPY SOC. OF JAPAN (MSSJ)
license=CC BY-NC-SA
exact mass=326.22413
ionization energy=70 eV
ion type=[M]+*
computed spectral entropy=3.6307659112087367
computed normalized entropy=0.795462081090954
SPLASH=splash10-0ftf-4391000000-5cc66460524f8960f346
submitter=submitter = University of Tokyo Team (Faculty of Engineering, University of Tokyo)
MoNA Rating=3.75

>  <NUM PEAKS>  (6623) 
96

>  <MASS SPECTRAL PEAKS>  (6623) 
41 1.02
43 99.99
44 1.46
53 1.75
55 2.75
57 16.73
63 1.1
65 1.49
67 1.28
77 4.03
78 1.18
79 2.07
81 14.37
82 1.15
91 6.84
93 1.02
103 1.94
105 4.43
107 1.78
115 4.24
116 1.83
117 6.87
119 1.91
121 1.73
127 1.65
128 4.72
129 5.9
130 2.33
131 4.48
132 1.04
133 1.49
141 2.38
142 1.99
143 3.98
144 1.33
145 5.37
146 1.04
147 1.86
155 1.41
157 1.83
159 2.85
160 1.18
161 17.02
162 2.33
165 1.36
169 1.07
171 6.61
172 1.04
173 2.57
175 1.78
183 1.52
185 8.13
186 1.6
187 3.56
188 1.15
189 8.91
190 2.38
197 1.46
199 4.51
201 1.02
202 1.83
203 49.34
204 24.13
205 3.51
211 2.22
213 15.73
214 2.91
215 1.18
225 2.38
227 17.75
228 7.68
229 2.17
235 1.15
239 1.78
241 5.01
242 1.28
249 4.03
250 1.02
253 2.49
255 26.67
256 6.19
257 1.75
269 83.84
270 28.46
271 6.79
272 1.33
283 10.57
284 16.97
285 4.06
286 1.12
311 8.44
312 3.72
313 1.6
326 44.56
327 12.25
328 3.17

$$$$

     RDKit          2D

 18 18  0  0  0  0  0  0  0  0999 V2000
   -5.1459    2.4830    0.0000 C   0  0  0  0  0  0  0  0  0  0  0  0
   -0.4988    6.0320    0.0000 C   0  0  0  0  0  0  0  0  0  0  0  0
   -2.5478    5.4830    0.0000 C   0  0  0  0  0  0  0  0  0  0  0  0
   -1.9988    3.4339    0.0000 C   0  0  0  0  0  0  0  0  0  0  0  0
    1.5275    3.7225    0.0000 C   0  0  0  0  0  0  0  0  0  0  0  0
    0.5633    5.3925    0.0000 C   0  0  0  0  0  0  0  0  0  0  0  0
   -3.8469    1.7330    0.0000 C   0  0  0  0  0  0  0  0  0  0  0  0
   -2.5478    2.4830    0.0000 C   0  0  0  0  0  0  0  0  0  0  0  0
    3.9474    0.2330    0.0000 C   0  0  0  0  0  0  0  0  0  0  0  0
    2.6478   -0.5179    0.0000 C   0  0  0  0  0  0  0  0  0  0  0  0
    3.9478    1.7338    0.0000 C   0  0  0  0  0  0  0  0  0  0  0  0
    1.3488    0.2321    0.0000 C   0  0  0  0  0  0  0  0  0  0  0  0
    2.6488    2.4838    0.0000 C   0  0  0  0  0  0  0  0  0  0  0  0
   -1.2488    1.7330    0.0000 C   0  0  0  0  0  0  0  0  0  0  0  0
    1.3493    1.7330    0.0000 C   0  0  0  0  0  0  0  0  0  0  0  0
   -1.2488    4.7330    0.0000 C   0  0  0  0  0  0  0  0  0  0  0  0
    0.0502    2.4830    0.0000 N   0  0  0  0  0  0  0  0  0  0  0  0
    0.0502    3.9830    0.0000 Si  0  0  0  0  0  4  0  0  0  0  0  0
  7  1  1  0
  8  7  1  0
 10  9  2  0
 11  9  1  0
 12 10  1  0
 13 11  2  0
 14  8  1  0
 15 12  2  0
 15 13  1  0
 16  2  1  0
 16  3  1  0
 16  4  1  0
 17 14  1  0
 17 15  1  0
 18  5  1  0
 18  6  1  0
 18 16  1  0
 18 17  1  0
M  END
>  <NAME>  (6624) 
N-BUTYL-N-(TERT-BUTYLDIMETHYLSILYL)ANILINE

>  <SYNONYMS>  (6624) 


>  <SPECTRUM TYPE>  (6624) 
MS1

>  <INSTRUMENT TYPE>  (6624) 
EI-B

>  <INSTRUMENT>  (6624) 
JEOL JMS-D-3000

>  <ION MODE>  (6624) 
P

>  <INCHIKEY>  (6624) 
BJYXUWNDSGJBDX-UHFFFAOYSA-N

>  <FORMULA>  (6624) 
C16H29NSi

>  <EXACT MASS>  (6624) 
263.206926458

>  <MW>  (6624) 
263

>  <ID>  (6624) 
JP001357

>  <CONTRIBUTOR>  (6624) 
University of Tokyo Team, {Faculty of Engineering, University of Tokyo

>  <COMMENT>  (6624) 
SMILES=CCCCN(c(c1)cccc1)[Si](C)(C)C(C)(C)C
InChI=InChI=1S/C16H29NSi/c1-7-8-14-17(15-12-10-9-11-13-15)18(5,6)16(2,3)4/h9-13H,7-8,14H2,1-6H3
computed SMILES=C=1C=CC(=CC1)N(CCCC)[Si](C)(C)C(C)(C)C
accession=JP001357
date=2016.01.19 (Created 2008.10.21, modified 2011.05.06)
author=MASS SPECTROSCOPY SOC. OF JAPAN (MSSJ)
license=CC BY-NC-SA
exact mass=263.20693
ionization energy=70 eV
ion type=[M]+*
computed spectral entropy=3.108924983121347
computed normalized entropy=0.7624516085727038
SPLASH=splash10-0a4i-8690000000-dc0c0891826ffc5ecba0
submitter=submitter = University of Tokyo Team (Faculty of Engineering, University of Tokyo)
MoNA Rating=3.75

>  <NUM PEAKS>  (6624) 
59

>  <MASS SPECTRAL PEAKS>  (6624) 
43 3.47
45 3.44
50 1.46
51 4.5
52 1.3
53 1.26
55 1.93
56 3.6
57 1.87
58 2.6
59 34.53
60 2.73
61 1.5
65 2.03
73 26.21
74 2.43
75 5.21
76 1
77 11.92
78 1.5
79 2.67
83 1.03
84 1.36
85 1.67
91 1.53
92 1.2
93 1.93
99 1.33
104 5.01
105 2.2
106 30.16
107 3.37
115 1.26
117 1.13
118 2.6
119 4.84
120 2.4
121 1.67
132 2.6
133 1.3
134 1.9
135 4.34
136 1.2
146 4.7
147 2
148 4.4
149 7.54
150 4.04
162 1.43
164 9.61
165 1.8
204 1.2
206 99.99
207 18.8
208 5.01
220 4.07
248 1.7
263 7.44
264 1.77

$$$$

     RDKit          2D

 21 21  0  0  0  0  0  0  0  0999 V2000
    1.1086    1.4120    0.0000 C   0  0  0  0  0  0  0  0  0  0  0  0
    1.6576   -0.6370    0.0000 C   0  0  0  0  0  0  0  0  0  0  0  0
   -0.3914   -1.1861    0.0000 C   0  0  0  0  0  0  0  0  0  0  0  0
   -4.7042    3.4220    0.0000 C   0  0  0  0  0  0  0  0  0  0  0  0
   -5.2533    1.3730    0.0000 C   0  0  0  0  0  0  0  0  0  0  0  0
   -3.2042    0.8239    0.0000 C   0  0  0  0  0  0  0  0  0  0  0  0
   -1.4535   -0.5466    0.0000 C   0  0  0  0  0  0  0  0  0  0  0  0
   -2.4177    1.1235    0.0000 C   0  0  0  0  0  0  0  0  0  0  0  0
   -1.2753    4.2620    0.0000 C   0  0  0  0  0  0  0  0  0  0  0  0
   -3.2037    4.2620    0.0000 C   0  0  0  0  0  0  0  0  0  0  0  0
    2.9566    4.6130    0.0000 C   0  0  0  0  0  0  0  0  0  0  0  0
    2.9571    3.1121    0.0000 C   0  0  0  0  0  0  0  0  0  0  0  0
    1.6571    5.3638    0.0000 C   0  0  0  0  0  0  0  0  0  0  0  0
    1.6581    2.3621    0.0000 C   0  0  0  0  0  0  0  0  0  0  0  0
    0.3581    4.6138    0.0000 C   0  0  0  0  0  0  0  0  0  0  0  0
    0.3586    3.1130    0.0000 C   0  0  0  0  0  0  0  0  0  0  0  0
    0.3586    0.1130    0.0000 C   0  0  0  0  0  0  0  0  0  0  0  0
   -3.9542    2.1230    0.0000 C   0  0  0  0  0  0  0  0  0  0  0  0
   -0.9405    2.3630    0.0000 N   0  0  0  0  0  0  0  0  0  0  0  0
   -0.9405    0.8630    0.0000 Si  0  0  0  0  0  4  0  0  0  0  0  0
   -2.2395    3.1130    0.0000 Si  0  0  0  0  0  4  0  0  0  0  0  0
 12 11  2  0
 13 11  1  0
 14 12  1  0
 15 13  2  0
 16 14  2  0
 16 15  1  0
 17  1  1  0
 17  2  1  0
 17  3  1  0
 18  4  1  0
 18  5  1  0
 18  6  1  0
 19 16  1  0
 20  7  1  0
 20  8  1  0
 20 17  1  0
 20 19  1  0
 21  9  1  0
 21 10  1  0
 21 18  1  0
 21 19  1  0
M  END
>  <NAME>  (6625) 
N,N-BIS(TERT-BUTYLDIMETHYLSILYL)ANILINE

>  <SYNONYMS>  (6625) 


>  <SPECTRUM TYPE>  (6625) 
MS1

>  <INSTRUMENT TYPE>  (6625) 
EI-B

>  <INSTRUMENT>  (6625) 
JEOL JMS-D-3000

>  <ION MODE>  (6625) 
P

>  <INCHIKEY>  (6625) 
PUCQSUCIXUFKSK-UHFFFAOYSA-N

>  <FORMULA>  (6625) 
C18H35NSi2

>  <EXACT MASS>  (6625) 
321.23080317999995

>  <MW>  (6625) 
321

>  <ID>  (6625) 
JP001356

>  <CONTRIBUTOR>  (6625) 
University of Tokyo Team, {Faculty of Engineering, University of Tokyo

>  <COMMENT>  (6625) 
SMILES=c(c1)ccc(c1)N([Si](C)(C)C(C)(C)C)[Si](C)(C)C(C)(C)C
InChI=InChI=1S/C18H35NSi2/c1-17(2,3)20(7,8)19(16-14-12-11-13-15-16)21(9,10)18(4,5)6/h11-15H,1-10H3
computed SMILES=C=1C=CC(=CC1)N([Si](C)(C)C(C)(C)C)[Si](C)(C)C(C)(C)C
accession=JP001356
date=2016.01.19 (Created 2008.10.21, modified 2011.05.06)
author=MASS SPECTROSCOPY SOC. OF JAPAN (MSSJ)
license=CC BY-NC-SA
exact mass=321.2308
ionization energy=70 eV
ion type=[M]+*
computed spectral entropy=3.1110798047395596
computed normalized entropy=0.7347665443374292
SPLASH=splash10-0229-6290000000-4d916f0b986e99383db6
submitter=submitter = University of Tokyo Team (Faculty of Engineering, University of Tokyo)
MoNA Rating=3.75

>  <NUM PEAKS>  (6625) 
69

>  <MASS SPECTRAL PEAKS>  (6625) 
43 2.92
45 9.74
46 1.08
50 1.18
51 1.57
52 1.05
53 1.57
55 1.97
56 5.49
57 7.86
58 2.53
59 14.11
60 1.38
65 1.38
66 1.67
70 1.44
73 82.42
74 7.43
75 3.91
77 1.08
84 2.73
85 1.67
86 1.28
91 1.87
93 4.37
95 1.64
97 1.15
99 2.5
100 4.21
103 1.08
105 1.28
107 1.11
113 1.08
119 4.31
120 2.13
121 1.64
130 4.6
131 1.15
132 1.44
134 1.84
135 1.48
146 1.15
148 1.51
149 1.44
150 11.64
151 1.8
160 3.09
162 1.77
176 2.5
178 1.54
190 1.02
192 13.58
193 3.29
194 1.64
206 12.07
207 1.21
208 5.33
222 60.44
223 13.45
224 5.33
225 1.08
248 4.57
249 1.38
264 99.99
265 25.73
266 9.77
267 2.04
306 3.55
307 1.31

$$$$

     RDKit          2D

 14 14  0  0  0  0  0  0  0  0999 V2000
   -2.5476    4.3306    0.0000 C   0  0  0  0  0  0  0  0  0  0  0  0
   -4.5966    3.7816    0.0000 C   0  0  0  0  0  0  0  0  0  0  0  0
   -4.0476    1.7326    0.0000 C   0  0  0  0  0  0  0  0  0  0  0  0
   -2.9627    1.1325    0.0000 C   0  0  0  0  0  0  0  0  0  0  0  0
   -1.0344    1.1325    0.0000 C   0  0  0  0  0  0  0  0  0  0  0  0
    3.1976    0.7816    0.0000 C   0  0  0  0  0  0  0  0  0  0  0  0
    1.8981    0.0308    0.0000 C   0  0  0  0  0  0  0  0  0  0  0  0
    3.1981    2.2824    0.0000 C   0  0  0  0  0  0  0  0  0  0  0  0
    0.5990    0.7808    0.0000 C   0  0  0  0  0  0  0  0  0  0  0  0
    1.8990    3.0324    0.0000 C   0  0  0  0  0  0  0  0  0  0  0  0
    0.5995    2.2816    0.0000 C   0  0  0  0  0  0  0  0  0  0  0  0
   -3.2976    3.0316    0.0000 C   0  0  0  0  0  0  0  0  0  0  0  0
   -0.6995    3.0316    0.0000 N   0  0  0  0  0  0  0  0  0  0  0  0
   -1.9986    2.2816    0.0000 Si  0  0  0  0  0  4  0  0  0  0  0  0
  7  6  2  0
  8  6  1  0
  9  7  1  0
 10  8  2  0
 11  9  2  0
 11 10  1  0
 12  1  1  0
 12  2  1  0
 12  3  1  0
 13 11  1  0
 14  4  1  0
 14  5  1  0
 14 12  1  0
 14 13  1  0
M  END
>  <NAME>  (6626) 
N-(TERT-BUTYLDIMETHYLSILYL)ANILINE

>  <SYNONYMS>  (6626) 


>  <SPECTRUM TYPE>  (6626) 
MS1

>  <INSTRUMENT TYPE>  (6626) 
EI-B

>  <INSTRUMENT>  (6626) 
JEOL JMS-D-3000

>  <ION MODE>  (6626) 
P

>  <INCHIKEY>  (6626) 
UITYJPORVGLJRW-UHFFFAOYSA-N

>  <FORMULA>  (6626) 
C12H21NSi

>  <EXACT MASS>  (6626) 
207.14432620199997

>  <MW>  (6626) 
207

>  <ID>  (6626) 
JP001355

>  <CONTRIBUTOR>  (6626) 
University of Tokyo Team, {Faculty of Engineering, University of Tokyo

>  <COMMENT>  (6626) 
SMILES=c(c1)ccc(c1)N[Si](C)(C)C(C)(C)C
InChI=InChI=1S/C12H21NSi/c1-12(2,3)14(4,5)13-11-9-7-6-8-10-11/h6-10,13H,1-5H3
computed SMILES=C=1C=CC(=CC1)N[Si](C)(C)C(C)(C)C
accession=JP001355
date=2016.01.19 (Created 2008.10.21, modified 2011.05.06)
author=MASS SPECTROSCOPY SOC. OF JAPAN (MSSJ)
license=CC BY-NC-SA
exact mass=207.14433
ionization energy=70 eV
ion type=[M]+*
computed spectral entropy=2.183497358817252
computed normalized entropy=0.6244795186147016
SPLASH=splash10-0udi-2900000000-772214a2368ffad10364
submitter=submitter = University of Tokyo Team (Faculty of Engineering, University of Tokyo)
MoNA Rating=3.75

>  <NUM PEAKS>  (6626) 
33

>  <MASS SPECTRAL PEAKS>  (6626) 
43 2.8
45 1.49
51 1.07
56 1.19
57 1.43
58 1.09
59 2.74
65 1.99
66 2.37
73 2.43
74 1.4
75 2.23
77 2.44
84 2.07
91 1.96
92 1.04
93 6.61
95 1.21
119 1.39
120 4.14
132 1.54
133 1.13
134 4.83
135 1.35
136 1.74
148 1.82
149 1.99
150 99.99
151 14.77
152 4.15
192 1.07
207 11.86
208 2.32

$$$$

     RDKit          2D

 16 16  0  0  0  0  0  0  0  0999 V2000
   -1.9986    5.2816    0.0000 C   0  0  0  0  0  0  0  0  0  0  0  0
   -2.5476    4.3306    0.0000 C   0  0  0  0  0  0  0  0  0  0  0  0
   -4.5966    3.7816    0.0000 C   0  0  0  0  0  0  0  0  0  0  0  0
   -4.0476    1.7326    0.0000 C   0  0  0  0  0  0  0  0  0  0  0  0
   -2.9627    1.1325    0.0000 C   0  0  0  0  0  0  0  0  0  0  0  0
   -1.0344    1.1325    0.0000 C   0  0  0  0  0  0  0  0  0  0  0  0
   -0.6995    4.5316    0.0000 C   0  0  0  0  0  0  0  0  0  0  0  0
    3.1976    0.7816    0.0000 C   0  0  0  0  0  0  0  0  0  0  0  0
    1.8981    0.0308    0.0000 C   0  0  0  0  0  0  0  0  0  0  0  0
    3.1981    2.2824    0.0000 C   0  0  0  0  0  0  0  0  0  0  0  0
    0.5990    0.7808    0.0000 C   0  0  0  0  0  0  0  0  0  0  0  0
    1.8990    3.0324    0.0000 C   0  0  0  0  0  0  0  0  0  0  0  0
    0.5995    2.2816    0.0000 C   0  0  0  0  0  0  0  0  0  0  0  0
   -3.2976    3.0316    0.0000 C   0  0  0  0  0  0  0  0  0  0  0  0
   -0.6995    3.0316    0.0000 N   0  0  0  0  0  0  0  0  0  0  0  0
   -1.9986    2.2816    0.0000 Si  0  0  0  0  0  4  0  0  0  0  0  0
  7  1  1  0
  9  8  2  0
 10  8  1  0
 11  9  1  0
 12 10  2  0
 13 11  2  0
 13 12  1  0
 14  2  1  0
 14  3  1  0
 14  4  1  0
 15  7  1  0
 15 13  1  0
 16  5  1  0
 16  6  1  0
 16 14  1  0
 16 15  1  0
M  END
>  <NAME>  (6627) 
N-(TERT-BUTYLDIMETHYLSILYL)-N-ETHYLANILINE

>  <SYNONYMS>  (6627) 


>  <SPECTRUM TYPE>  (6627) 
MS1

>  <INSTRUMENT TYPE>  (6627) 
EI-B

>  <INSTRUMENT>  (6627) 
JEOL JMS-D-3000

>  <ION MODE>  (6627) 
P

>  <INCHIKEY>  (6627) 
NGNXCQKDIRSRJC-UHFFFAOYSA-N

>  <FORMULA>  (6627) 
C14H25NSi

>  <EXACT MASS>  (6627) 
235.17562633

>  <MW>  (6627) 
235

>  <ID>  (6627) 
JP001354

>  <CONTRIBUTOR>  (6627) 
University of Tokyo Team, {Faculty of Engineering, University of Tokyo

>  <COMMENT>  (6627) 
SMILES=CCN(c(c1)cccc1)[Si](C)(C)C(C)(C)C
InChI=InChI=1S/C14H25NSi/c1-7-15(13-11-9-8-10-12-13)16(5,6)14(2,3)4/h8-12H,7H2,1-6H3
computed SMILES=C=1C=CC(=CC1)N(CC)[Si](C)(C)C(C)(C)C
accession=JP001354
date=2016.01.19 (Created 2008.10.21, modified 2011.05.06)
author=MASS SPECTROSCOPY SOC. OF JAPAN (MSSJ)
license=CC BY-NC-SA
exact mass=235.17563
ionization energy=70 eV
ion type=[M]+*
computed spectral entropy=2.3238432158518334
computed normalized entropy=0.6767186589445212
SPLASH=splash10-004i-3900000000-dfac95c00669196ddeab
submitter=submitter = University of Tokyo Team (Faculty of Engineering, University of Tokyo)
MoNA Rating=3.75

>  <NUM PEAKS>  (6627) 
31

>  <MASS SPECTRAL PEAKS>  (6627) 
43 3.42
45 2.66
51 1.4
57 1.18
58 1.71
59 24.72
60 1.95
73 8.89
74 1
75 2.28
77 4.25
84 1.48
104 1.32
106 3.12
118 7.07
119 3.63
120 7.46
121 4.39
134 1.93
135 2.2
149 2.56
150 2.62
162 1.16
164 1.12
176 1.38
178 99.99
179 16.37
180 4.74
220 1.66
235 5.74
236 1.26

$$$$

     RDKit          2D

 14 15  0  0  0  0  0  0  0  0999 V2000
    0.7001   -2.8466    0.0000 C   0  0  0  0  0  0  0  0  0  0  0  0
    2.1348   -4.1352    0.0000 C   0  0  0  0  0  0  0  0  0  0  0  0
   -2.3100    0.7500    0.0000 C   0  0  0  0  0  0  0  0  0  0  0  0
   -2.3100   -0.7500    0.0000 C   0  0  0  0  0  0  0  0  0  0  0  0
   -1.0100    1.5000    0.0000 C   0  0  0  0  0  0  0  0  0  0  0  0
   -1.0100   -1.5000    0.0000 C   0  0  0  0  0  0  0  0  0  0  0  0
    1.7200    1.2100    0.0000 C   0  0  0  0  0  0  0  0  0  0  0  0
    2.6000   -0.0000    0.0000 C   0  0  0  0  0  0  0  0  0  0  0  0
    3.6529   -2.9461    0.0000 C   0  0  0  0  0  0  0  0  0  0  0  0
    0.2900    0.7500    0.0000 C   0  0  0  0  0  0  0  0  0  0  0  0
    0.2900   -0.7500    0.0000 C   0  0  0  0  0  0  0  0  0  0  0  0
    4.1182   -4.3721    0.0000 Cl  0  0  0  0  0  0  0  0  0  0  0  0
    1.7200   -1.2100    0.0000 N   0  0  0  0  0  0  0  0  0  0  0  0
    2.1853   -2.6360    0.0000 Si  0  0  0  0  0  4  0  0  0  0  0  0
  4  3  2  0
  5  3  1  0
  6  4  1  0
  8  7  1  0
 10  5  2  0
 10  7  1  0
 11  6  2  0
 11 10  1  0
 12  9  1  0
 13  8  1  0
 13 11  1  0
 14  1  1  0
 14  2  1  0
 14  9  1  0
 14 13  1  0
M  END
>  <NAME>  (6628) 
N-(CHLOROMETHYLDIMETHYLSILYL)INDOLINE

>  <SYNONYMS>  (6628) 


>  <SPECTRUM TYPE>  (6628) 
MS1

>  <INSTRUMENT TYPE>  (6628) 
EI-B

>  <INSTRUMENT>  (6628) 
JEOL JMS-D-3000

>  <ION MODE>  (6628) 
P

>  <INCHIKEY>  (6628) 
HXPQWHXZBPQXHD-UHFFFAOYSA-N

>  <FORMULA>  (6628) 
C11H16ClNSi

>  <EXACT MASS>  (6628) 
225.074053722

>  <MW>  (6628) 
225

>  <ID>  (6628) 
JP001353

>  <CONTRIBUTOR>  (6628) 
University of Tokyo Team, {Faculty of Engineering, University of Tokyo

>  <COMMENT>  (6628) 
SMILES=ClC[Si](C)(C)N(C1)c(c2)c(ccc2)C1
InChI=InChI=1S/C11H16ClNSi/c1-14(2,9-12)13-8-7-10-5-3-4-6-11(10)13/h3-6H,7-9H2,1-2H3
computed SMILES=ClC[Si](N1C=2C=CC=CC2CC1)(C)C
accession=JP001353
date=2016.01.19 (Created 2008.10.21, modified 2011.05.06)
author=MASS SPECTROSCOPY SOC. OF JAPAN (MSSJ)
license=CC BY-NC-SA
exact mass=225.07405
ionization energy=70 eV
ion type=[M]+*
computed spectral entropy=3.205926539668842
computed normalized entropy=0.7830133714806131
SPLASH=splash10-014i-9700000000-066af58f7604babd1fad
submitter=submitter = University of Tokyo Team (Faculty of Engineering, University of Tokyo)
MoNA Rating=3.75

>  <NUM PEAKS>  (6628) 
60

>  <MASS SPECTRAL PEAKS>  (6628) 
43 2.33
45 4.51
47 4.35
49 2.23
50 3.84
51 5.26
52 1.45
53 1.02
57 1.58
59 26.72
60 2.31
61 2.93
62 4.46
63 12.87
64 5.18
65 4.94
74 2.17
75 36.63
76 6.29
77 3.38
78 1.29
79 5.34
80 1.37
81 9.19
83 2.31
86 1.02
87 1.88
88 3.01
89 27.15
90 44.91
91 12.68
92 1.47
93 2.55
103 2.39
104 1.96
105 1.26
107 1.23
109 1.12
115 1.66
117 99.99
118 25.8
119 9.48
120 1.42
130 2.12
131 3.14
132 4.3
133 1.98
146 1.1
147 1.1
173 2.31
174 9.08
175 1.69
176 20.48
177 3.27
178 1.1
223 2.44
224 1.26
225 9.11
226 1.88
227 2.87

$$$$

     RDKit          2D

 15 16  0  0  0  0  0  0  0  0999 V2000
    3.6113    2.1707    0.0000 C   0  0  0  0  0  0  0  0  0  0  0  0
    2.6506    4.0620    0.0000 C   0  0  0  0  0  0  0  0  0  0  0  0
    0.7593    3.1013    0.0000 C   0  0  0  0  0  0  0  0  0  0  0  0
    3.7146   -1.0039    0.0000 C   0  0  0  0  0  0  0  0  0  0  0  0
    3.7146    1.0039    0.0000 C   0  0  0  0  0  0  0  0  0  0  0  0
   -2.3100   -0.7500    0.0000 C   0  0  0  0  0  0  0  0  0  0  0  0
   -2.3100    0.7500    0.0000 C   0  0  0  0  0  0  0  0  0  0  0  0
   -1.0100   -1.5000    0.0000 C   0  0  0  0  0  0  0  0  0  0  0  0
   -1.0100    1.5000    0.0000 C   0  0  0  0  0  0  0  0  0  0  0  0
    1.7200   -1.2100    0.0000 C   0  0  0  0  0  0  0  0  0  0  0  0
    0.2900   -0.7500    0.0000 C   0  0  0  0  0  0  0  0  0  0  0  0
    0.2900    0.7500    0.0000 C   0  0  0  0  0  0  0  0  0  0  0  0
    1.7200    1.2100    0.0000 N   0  0  0  0  0  0  0  0  0  0  0  0
    2.1853    2.6360    0.0000 Si  0  0  0  0  0  4  0  0  0  0  0  0
    2.6000    0.0000    0.0000 Si  0  0  0  0  0  4  0  0  0  0  0  0
  7  6  2  0
  8  6  1  0
  9  7  1  0
 11  8  2  0
 11 10  1  0
 12  9  2  0
 12 11  1  0
 13 12  1  0
 14  1  1  0
 14  2  1  0
 14  3  1  0
 14 13  1  0
 15  4  1  0
 15  5  1  0
 15 10  1  0
 15 13  1  0
M  END
>  <NAME>  (6629) 
2,2-DIMETHYL-1-TRIMETHYLSILYL-2-SILAINDOLINE

>  <SYNONYMS>  (6629) 
2,2-DIMETHYL-1-TRIMETHYLSILYL-1-AZA-2-SILAINDAN

>  <SPECTRUM TYPE>  (6629) 
MS1

>  <INSTRUMENT TYPE>  (6629) 
EI-B

>  <INSTRUMENT>  (6629) 
JEOL JMS-D-3000

>  <ION MODE>  (6629) 
P

>  <INCHIKEY>  (6629) 
NEIMZHHLBBODEX-UHFFFAOYSA-N

>  <FORMULA>  (6629) 
C12H21NSi2

>  <EXACT MASS>  (6629) 
235.121252732

>  <MW>  (6629) 
235

>  <ID>  (6629) 
JP001352

>  <CONTRIBUTOR>  (6629) 
University of Tokyo Team, {Faculty of Engineering, University of Tokyo

>  <COMMENT>  (6629) 
SMILES=c(c2)cc(C1)c(c2)N([Si](C)(C)C)[Si](C)(C)1
InChI=InChI=1S/C12H21NSi2/c1-14(2,3)13-12-9-7-6-8-11(12)10-15(13,4)5/h6-9H,10H2,1-5H3
computed SMILES=C=1C=CC2=C(C1)N([Si](C)(C)C)[Si](C)(C)C2
accession=JP001352
date=2016.01.19 (Created 2008.10.21, modified 2011.05.06)
author=MASS SPECTROSCOPY SOC. OF JAPAN (MSSJ)
license=CC BY-NC-SA
exact mass=235.12125
ionization energy=70 eV
ion type=[M]+*
computed spectral entropy=3.2681178115956797
computed normalized entropy=0.7718553626478833
SPLASH=splash10-00di-3390000000-6d151730b14a2816539a
submitter=submitter = University of Tokyo Team (Faculty of Engineering, University of Tokyo)
MoNA Rating=3.75

>  <NUM PEAKS>  (6629) 
69

>  <MASS SPECTRAL PEAKS>  (6629) 
43 5.82
45 9.61
47 2.1
51 1.01
53 1.22
59 9.88
60 1.13
65 1.08
70 2.84
72 1.04
73 24.82
74 3.01
75 19.31
76 2.13
77 3.19
78 1.2
84 1.49
86 1.92
91 1.88
93 1.7
100 3.38
104 2.14
105 3.72
106 1.58
110 3.19
111 1.46
116 1.78
117 2.23
118 1.01
119 2.47
120 1.93
121 1.43
130 1.69
131 2.09
132 3.45
133 2.82
134 2.04
135 1.03
145 1.91
146 4.38
147 14.96
148 7.95
149 3.18
160 8.11
161 1.7
162 3.06
163 2.91
164 1.12
176 1.38
178 1.64
190 2.1
192 5.4
193 1.37
202 1.37
204 2.92
205 2.49
206 2.3
216 1.13
218 3.34
220 99.99
221 23.76
222 12.48
223 2.2
234 1.21
235 57.65
236 15.16
237 5.7
238 3.19
253 3.24

$$$$

     RDKit          2D

 12 13  0  0  0  0  0  0  0  0999 V2000
    2.1853    2.6360    0.0000 C   0  0  0  0  0  0  0  0  0  0  0  0
    3.7146   -1.0039    0.0000 C   0  0  0  0  0  0  0  0  0  0  0  0
    3.7146    1.0039    0.0000 C   0  0  0  0  0  0  0  0  0  0  0  0
   -2.3100   -0.7500    0.0000 C   0  0  0  0  0  0  0  0  0  0  0  0
   -2.3100    0.7500    0.0000 C   0  0  0  0  0  0  0  0  0  0  0  0
   -1.0100   -1.5000    0.0000 C   0  0  0  0  0  0  0  0  0  0  0  0
   -1.0100    1.5000    0.0000 C   0  0  0  0  0  0  0  0  0  0  0  0
    1.7200   -1.2100    0.0000 C   0  0  0  0  0  0  0  0  0  0  0  0
    0.2900   -0.7500    0.0000 C   0  0  0  0  0  0  0  0  0  0  0  0
    0.2900    0.7500    0.0000 C   0  0  0  0  0  0  0  0  0  0  0  0
    1.7200    1.2100    0.0000 N   0  0  0  0  0  0  0  0  0  0  0  0
    2.6000    0.0000    0.0000 Si  0  0  0  0  0  4  0  0  0  0  0  0
  5  4  2  0
  6  4  1  0
  7  5  1  0
  9  6  2  0
  9  8  1  0
 10  7  2  0
 10  9  1  0
 11  1  1  0
 11 10  1  0
 12  2  1  0
 12  3  1  0
 12  8  1  0
 12 11  1  0
M  END
>  <NAME>  (6630) 
1,2,2-TRIMETHYL-2-SILAINDOLINE

>  <SYNONYMS>  (6630) 


>  <SPECTRUM TYPE>  (6630) 
MS1

>  <INSTRUMENT TYPE>  (6630) 
EI-B

>  <INSTRUMENT>  (6630) 
JEOL JMS-D-3000

>  <ION MODE>  (6630) 
P

>  <INCHIKEY>  (6630) 
UOMQNMMLQAXCRY-UHFFFAOYSA-N

>  <FORMULA>  (6630) 
C10H15NSi

>  <EXACT MASS>  (6630) 
177.09737601

>  <MW>  (6630) 
177

>  <ID>  (6630) 
JP001351

>  <CONTRIBUTOR>  (6630) 
University of Tokyo Team, {Faculty of Engineering, University of Tokyo

>  <COMMENT>  (6630) 
SMILES=c(c2)cc(C1)c(c2)N(C)[Si](C)(C)1
InChI=InChI=1S/C10H15NSi/c1-11-10-7-5-4-6-9(10)8-12(11,2)3/h4-7H,8H2,1-3H3
computed SMILES=C=1C=CC2=C(C1)N(C)[Si](C)(C)C2
accession=JP001351
date=2016.01.19 (Created 2008.10.21, modified 2011.05.06)
author=MASS SPECTROSCOPY SOC. OF JAPAN (MSSJ)
license=CC BY-NC-SA
exact mass=177.09738
ionization energy=70 eV
ion type=[M]+*
computed spectral entropy=2.947269001261062
computed normalized entropy=0.745909189909244
SPLASH=splash10-01t9-2900000000-84c40c07d8c9d6c2e9e4
submitter=submitter = University of Tokyo Team (Faculty of Engineering, University of Tokyo)
MoNA Rating=3.75

>  <NUM PEAKS>  (6630) 
52

>  <MASS SPECTRAL PEAKS>  (6630) 
43 9.5
44 11.88
45 3.01
50 1.04
51 3
53 2.91
54 1.84
59 12.63
60 1.12
63 1.68
65 3.58
66 1.01
67 1.73
69 1.06
74 3.91
75 1.52
77 3.23
78 1.99
79 1.83
81 12.96
82 1.71
83 1.07
84 8.31
89 4.76
90 1.37
91 7.78
93 1.99
105 3.07
106 2.53
107 2.57
117 3.49
118 12.86
119 7.9
120 3.25
121 1.68
131 1.29
132 4.39
133 2.38
134 6.19
135 2.25
146 6.35
147 2.91
148 3.33
160 4.29
161 1.99
162 99.96
163 13.69
164 3.83
176 25.21
177 99.99
178 16.22
179 4.06

$$$$

     RDKit          2D

  8  7  0  0  0  0  0  0  0  0999 V2000
    1.6740    0.1005    0.0000 C   0  0  0  0  0  0  0  0  0  0  0  0
   -0.9240    1.6005    0.0000 C   0  0  0  0  0  0  0  0  0  0  0  0
   -0.3750   -0.4486    0.0000 C   0  0  0  0  0  0  0  0  0  0  0  0
    2.4240    1.3995    0.0000 C   0  0  0  0  0  0  0  0  0  0  0  0
    1.8750    3.4486    0.0000 C   0  0  0  0  0  0  0  0  0  0  0  0
    0.3750    0.8505    0.0000 C   0  0  0  0  0  0  0  0  0  0  0  0
   -0.1740    2.8995    0.0000 Cl  0  0  0  0  0  0  0  0  0  0  0  0
    1.1250    2.1495    0.0000 Si  0  0  0  0  0  4  0  0  0  0  0  0
  6  1  1  0
  6  2  1  0
  6  3  1  0
  8  4  1  0
  8  5  1  0
  8  6  1  0
  8  7  1  0
M  END
>  <NAME>  (6631) 
TERT-BUTYLCHLORODIMETHYLSILANE

>  <SYNONYMS>  (6631) 


>  <SPECTRUM TYPE>  (6631) 
MS1

>  <INSTRUMENT TYPE>  (6631) 
EI-B

>  <INSTRUMENT>  (6631) 
JEOL JMS-D-3000

>  <ION MODE>  (6631) 
P

>  <INCHIKEY>  (6631) 
BCNZYOJHNLTNEZ-UHFFFAOYSA-N

>  <FORMULA>  (6631) 
C6H15ClSi

>  <EXACT MASS>  (6631) 
150.06315469

>  <MW>  (6631) 
150

>  <ID>  (6631) 
JP001350

>  <CONTRIBUTOR>  (6631) 
University of Tokyo Team, {Faculty of Engineering, University of Tokyo

>  <COMMENT>  (6631) 
SMILES=CC(C)(C)[Si](C)(C)Cl
InChI=InChI=1S/C6H15ClSi/c1-6(2,3)8(4,5)7/h1-5H3
computed SMILES=Cl[Si](C)(C)C(C)(C)C
accession=JP001350
date=2016.01.19 (Created 2008.10.21, modified 2011.05.06)
author=MASS SPECTROSCOPY SOC. OF JAPAN (MSSJ)
license=CC BY-NC-SA
exact mass=150.06315
ionization energy=70 eV
ion type=[M]+*
computed spectral entropy=2.338023085605538
computed normalized entropy=0.7176039931049221
SPLASH=splash10-0a4l-9000000000-879a4cdb43f8d883781b
submitter=submitter = University of Tokyo Team (Faculty of Engineering, University of Tokyo)
MoNA Rating=3.75

>  <NUM PEAKS>  (6631) 
26

>  <MASS SPECTRAL PEAKS>  (6631) 
42 1.77
43 17.61
45 10.02
55 1.75
56 97.62
57 53.6
58 3.57
59 11.81
61 1.55
63 7.1
65 9.26
67 2.71
70 1.07
73 12.39
74 7.45
78 1.41
79 2.95
92 1.18
93 99.99
94 8.25
95 35.71
96 2.29
99 1.18
135 1.36
150 9.44
152 3.37

$$$$

     RDKit          2D

 15 15  0  0  0  0  0  0  0  0999 V2000
   -1.6764    5.8417    0.0000 C   0  0  0  0  0  0  0  0  0  0  0  0
   -3.6047    5.8417    0.0000 C   0  0  0  0  0  0  0  0  0  0  0  0
   -4.6896    5.2416    0.0000 C   0  0  0  0  0  0  0  0  0  0  0  0
   -5.2386    3.1926    0.0000 C   0  0  0  0  0  0  0  0  0  0  0  0
   -3.1896    2.6436    0.0000 C   0  0  0  0  0  0  0  0  0  0  0  0
    3.8546    0.9426    0.0000 C   0  0  0  0  0  0  0  0  0  0  0  0
    3.8551    2.4434    0.0000 C   0  0  0  0  0  0  0  0  0  0  0  0
    2.5551    0.1918    0.0000 C   0  0  0  0  0  0  0  0  0  0  0  0
    2.5561    3.1934    0.0000 C   0  0  0  0  0  0  0  0  0  0  0  0
    1.2561    0.9418    0.0000 C   0  0  0  0  0  0  0  0  0  0  0  0
   -0.0425    3.1926    0.0000 C   0  0  0  0  0  0  0  0  0  0  0  0
   -1.3415    3.9426    0.0000 C   0  0  0  0  0  0  0  0  0  0  0  0
    1.2566    2.4426    0.0000 C   0  0  0  0  0  0  0  0  0  0  0  0
   -2.6406    4.6926    0.0000 Ge  0  0  0  0  0  4  0  0  0  0  0  0
   -3.9396    3.9426    0.0000 Si  0  0  0  0  0  4  0  0  0  0  0  0
  7  6  2  0
  8  6  1  0
  9  7  1  0
 10  8  2  0
 12 11  3  0
 13  9  2  0
 13 10  1  0
 13 11  1  0
 14  1  1  0
 14  2  1  0
 14 12  1  0
 15  3  1  0
 15  4  1  0
 15  5  1  0
 15 14  1  0
M  END
>  <NAME>  (6632) 
DIMETHYL(PHENYLETHYNYL)TRIMETHYLSILYLGERMANE

>  <SYNONYMS>  (6632) 


>  <SPECTRUM TYPE>  (6632) 
MS1

>  <INSTRUMENT TYPE>  (6632) 
EI-B

>  <INSTRUMENT>  (6632) 
JEOL JMS-D-3000

>  <ION MODE>  (6632) 
P

>  <INCHIKEY>  (6632) 
LBNYGBSLQZPBGK-UHFFFAOYSA-N

>  <FORMULA>  (6632) 
C13H20GeSi

>  <EXACT MASS>  (6632) 
278.05460497

>  <MW>  (6632) 
278

>  <ID>  (6632) 
JP001349

>  <CONTRIBUTOR>  (6632) 
University of Tokyo Team, {Faculty of Engineering, University of Tokyo

>  <COMMENT>  (6632) 
SMILES=c(c1)ccc(c1)C#C[Ge](C)(C)[Si](C)(C)C
InChI=InChI=1S/C13H20GeSi/c1-14(2,15(3,4)5)12-11-13-9-7-6-8-10-13/h6-10H,1-5H3
computed SMILES=C(#C[Ge](C)(C)[Si](C)(C)C)C=1C=CC=CC1
accession=JP001349
date=2016.01.19 (Created 2008.10.21, modified 2011.05.06)
author=MASS SPECTROSCOPY SOC. OF JAPAN (MSSJ)
license=CC BY-NC-SA
exact mass=278.05461
ionization energy=70 eV
ion type=[M]+*
computed spectral entropy=3.3427642019560357
computed normalized entropy=0.8164345113499281
SPLASH=splash10-0bvi-1590000000-30c5448e5e1e5d45b521
submitter=submitter = University of Tokyo Team (Faculty of Engineering, University of Tokyo)
MoNA Rating=3.75

>  <NUM PEAKS>  (6632) 
60

>  <MASS SPECTRAL PEAKS>  (6632) 
45 1.99
73 32.37
74 2.88
75 2.09
85 3.48
87 4.23
88 1.49
89 5.72
91 1.44
100 2.98
102 4.78
103 1.24
104 5.27
105 2.14
106 1.09
119 1.24
131 2.34
135 1.14
145 2.39
147 12.99
149 17.67
150 6.42
151 23.3
152 1.49
153 5.27
159 99.99
160 16.13
161 4.78
171 5.72
173 8.46
174 2.98
175 10.05
177 2.19
188 1.44
189 1.49
190 1.39
201 3.08
203 4.08
204 1.69
205 5.52
207 1.84
233 1.24
245 1.04
247 1.34
259 33.31
260 6.32
261 46.41
262 20.61
263 64.44
264 12.59
265 15.28
266 2.83
274 26.99
275 5.82
276 36.65
277 18.32
278 54.38
279 10.7
280 13.74
281 2.68

$$$$

     RDKit          2D

 15 15  0  0  0  0  0  0  0  0999 V2000
   -4.6896    5.2416    0.0000 C   0  0  0  0  0  0  0  0  0  0  0  0
   -5.2386    3.1926    0.0000 C   0  0  0  0  0  0  0  0  0  0  0  0
   -3.1896    2.6436    0.0000 C   0  0  0  0  0  0  0  0  0  0  0  0
   -1.6764    5.8417    0.0000 C   0  0  0  0  0  0  0  0  0  0  0  0
   -3.6047    5.8417    0.0000 C   0  0  0  0  0  0  0  0  0  0  0  0
    3.8546    0.9426    0.0000 C   0  0  0  0  0  0  0  0  0  0  0  0
    3.8551    2.4434    0.0000 C   0  0  0  0  0  0  0  0  0  0  0  0
    2.5551    0.1918    0.0000 C   0  0  0  0  0  0  0  0  0  0  0  0
    2.5561    3.1934    0.0000 C   0  0  0  0  0  0  0  0  0  0  0  0
    1.2561    0.9418    0.0000 C   0  0  0  0  0  0  0  0  0  0  0  0
   -0.0425    3.1926    0.0000 C   0  0  0  0  0  0  0  0  0  0  0  0
   -1.3415    3.9426    0.0000 C   0  0  0  0  0  0  0  0  0  0  0  0
    1.2566    2.4426    0.0000 C   0  0  0  0  0  0  0  0  0  0  0  0
   -3.9396    3.9426    0.0000 Ge  0  0  0  0  0  4  0  0  0  0  0  0
   -2.6406    4.6926    0.0000 Si  0  0  0  0  0  4  0  0  0  0  0  0
  7  6  2  0
  8  6  1  0
  9  7  1  0
 10  8  2  0
 12 11  3  0
 13  9  2  0
 13 10  1  0
 13 11  1  0
 14  1  1  0
 14  2  1  0
 14  3  1  0
 15  4  1  0
 15  5  1  0
 15 12  1  0
 15 14  1  0
M  END
>  <NAME>  (6633) 
(DIMETHYL(PHENYLETHYNYL)SILYL)TRIMETHYLGERMANE

>  <SYNONYMS>  (6633) 


>  <SPECTRUM TYPE>  (6633) 
MS1

>  <INSTRUMENT TYPE>  (6633) 
EI-B

>  <INSTRUMENT>  (6633) 
JEOL JMS-D-3000

>  <ION MODE>  (6633) 
P

>  <INCHIKEY>  (6633) 
OSGGAEACJZIQGF-UHFFFAOYSA-N

>  <FORMULA>  (6633) 
C13H20GeSi

>  <EXACT MASS>  (6633) 
278.05460497

>  <MW>  (6633) 
278

>  <ID>  (6633) 
JP001348

>  <CONTRIBUTOR>  (6633) 
University of Tokyo Team, {Faculty of Engineering, University of Tokyo

>  <COMMENT>  (6633) 
SMILES=c(c1)ccc(c1)C#C[Si](C)(C)[Ge](C)(C)C
InChI=InChI=1S/C13H20GeSi/c1-14(2,3)15(4,5)12-11-13-9-7-6-8-10-13/h6-10H,1-5H3
computed SMILES=C(#C[Si](C)(C)[Ge](C)(C)C)C=1C=CC=CC1
accession=JP001348
date=2016.01.19 (Created 2008.10.21, modified 2011.05.06)
author=MASS SPECTROSCOPY SOC. OF JAPAN (MSSJ)
license=CC BY-NC-SA
exact mass=278.05461
ionization energy=70 eV
ion type=[M]+*
computed spectral entropy=3.1467772143900397
computed normalized entropy=0.8003348846906181
SPLASH=splash10-0a4i-2940000000-b0cdd6bd73631d1042aa
submitter=submitter = University of Tokyo Team (Faculty of Engineering, University of Tokyo)
MoNA Rating=3.75

>  <NUM PEAKS>  (6633) 
51

>  <MASS SPECTRAL PEAKS>  (6633) 
43 4.69
45 1.68
73 31.13
74 2.53
75 1.1
85 3.3
87 4.74
88 1.43
89 6.16
91 1.41
100 1.42
102 1.94
104 2.47
105 6.47
107 1.01
115 2.86
117 3.81
118 1.22
119 4.87
121 1.16
129 4.11
131 4.79
133 1.3
143 2.49
144 1.2
145 2.24
147 6.54
149 11.25
150 3.9
151 16.68
153 3.21
159 99.99
160 16.24
161 4.56
171 1.3
173 2.09
175 2.48
259 10.35
260 1.85
261 14.71
262 6.42
263 18.94
264 3.43
265 4.6
274 7.23
275 1.49
276 9.51
277 4.69
278 14.84
279 2.61
280 3.11

$$$$

     RDKit          2D

 13 13  0  0  0  0  0  0  0  0999 V2000
   -2.5989    1.5002    0.0000 C   0  0  0  0  0  0  0  0  0  0  0  0
    0.0000    3.0000    0.0000 C   0  0  0  0  0  0  0  0  0  0  0  0
   -2.5989   -1.5002    0.0000 C   0  0  0  0  0  0  0  0  0  0  0  0
    2.5989    1.5002    0.0000 C   0  0  0  0  0  0  0  0  0  0  0  0
   -0.0000   -3.0000    0.0000 C   0  0  0  0  0  0  0  0  0  0  0  0
   -1.3000    0.7500    0.0000 C   0  0  0  0  0  0  0  0  0  0  0  0
    0.0000    1.5000    0.0000 C   0  0  0  0  0  0  0  0  0  0  0  0
   -1.3000   -0.7500    0.0000 C   0  0  0  0  0  0  0  0  0  0  0  0
    1.3000    0.7500    0.0000 C   0  0  0  0  0  0  0  0  0  0  0  0
    0.0000   -1.5000    0.0000 C   0  0  0  0  0  0  0  0  0  0  0  0
    1.3000   -0.7500    0.0000 C   0  0  0  0  0  0  0  0  0  0  0  0
    3.8981   -0.7504    0.0000 Si  0  0  0  0  0  4  0  0  0  0  0  0
    2.5989   -1.5002    0.0000 Si  0  0  0  0  0  4  0  0  0  0  0  0
  6  1  1  0
  7  2  1  0
  7  6  2  0
  8  3  1  0
  8  6  1  0
  9  4  1  0
  9  7  1  0
 10  5  1  0
 10  8  2  0
 11  9  2  0
 11 10  1  0
 13 11  1  0
 13 12  1  0
M  END
>  <NAME>  (6634) 
PENTAMETHYLPHENYLDISILANE

>  <SYNONYMS>  (6634) 


>  <SPECTRUM TYPE>  (6634) 
MS1

>  <INSTRUMENT TYPE>  (6634) 
EI-B

>  <INSTRUMENT>  (6634) 
JEOL JMS-D-3000

>  <ION MODE>  (6634) 
P

>  <INCHIKEY>  (6634) 
DRMCADSYZXWPER-UHFFFAOYSA-N

>  <FORMULA>  (6634) 
C11H20Si2

>  <EXACT MASS>  (6634) 
208.1103537

>  <MW>  (6634) 
208

>  <ID>  (6634) 
JP001347

>  <CONTRIBUTOR>  (6634) 
University of Tokyo Team, {Faculty of Engineering, University of Tokyo

>  <COMMENT>  (6634) 
SMILES=[SiH3][SiH2]c(c(C)1)c(C)c(C)c(C)c(C)1
InChI=InChI=1S/C11H20Si2/c1-6-7(2)9(4)11(13-12)10(5)8(6)3/h13H2,1-5,12H3
computed SMILES=C=1(C(=C(C(=C(C1C)C)[SiH2][SiH3])C)C)C
accession=JP001347
date=2016.01.19 (Created 2008.10.21, modified 2011.05.06)
author=MASS SPECTROSCOPY SOC. OF JAPAN (MSSJ)
license=CC BY-NC-SA
exact mass=208.11035
ionization energy=70 eV
ion type=[M]+*
computed spectral entropy=1.8627259462523498
computed normalized entropy=0.6217931965070105
SPLASH=splash10-000i-1910000000-2c8e33975d7d33e2cd80
submitter=submitter = University of Tokyo Team (Faculty of Engineering, University of Tokyo)
MoNA Rating=3.75

>  <NUM PEAKS>  (6634) 
20

>  <MASS SPECTRAL PEAKS>  (6634) 
43 2.24
45 1.49
73 19.01
74 1.56
105 2.83
107 2.44
119 1.21
120 1.84
134 1.2
135 99.99
136 14.24
137 4.23
177 1.59
179 1.35
191 1.16
193 9.59
194 2.21
208 19.47
209 4.35
210 1.96

$$$$

     RDKit          2D

 13 13  0  0  0  0  0  0  0  0999 V2000
    1.6346   -2.6491    0.0000 C   0  0  0  0  0  0  0  0  0  0  0  0
    3.5629   -2.6494    0.0000 C   0  0  0  0  0  0  0  0  0  0  0  0
    4.6479   -2.0496    0.0000 C   0  0  0  0  0  0  0  0  0  0  0  0
    5.1972   -0.0006    0.0000 C   0  0  0  0  0  0  0  0  0  0  0  0
    3.1483    0.5487    0.0000 C   0  0  0  0  0  0  0  0  0  0  0  0
   -1.3000    0.7500    0.0000 C   0  0  0  0  0  0  0  0  0  0  0  0
    0.0000    1.5000    0.0000 C   0  0  0  0  0  0  0  0  0  0  0  0
   -1.3000   -0.7500    0.0000 C   0  0  0  0  0  0  0  0  0  0  0  0
    1.3000    0.7500    0.0000 C   0  0  0  0  0  0  0  0  0  0  0  0
   -0.0000   -1.5000    0.0000 C   0  0  0  0  0  0  0  0  0  0  0  0
    1.3000   -0.7500    0.0000 C   0  0  0  0  0  0  0  0  0  0  0  0
    2.5989   -1.5002    0.0000 Ge  0  0  0  0  0  4  0  0  0  0  0  0
    3.8981   -0.7504    0.0000 Si  0  0  0  0  0  4  0  0  0  0  0  0
  7  6  2  0
  8  6  1  0
  9  7  1  0
 10  8  2  0
 11  9  2  0
 11 10  1  0
 12  1  1  0
 12  2  1  0
 12 11  1  0
 13  3  1  0
 13  4  1  0
 13  5  1  0
 13 12  1  0
M  END
>  <NAME>  (6635) 
DIMETHYLPHENYL(TRIMETHYLSILYL)GERMANE

>  <SYNONYMS>  (6635) 


>  <SPECTRUM TYPE>  (6635) 
MS1

>  <INSTRUMENT TYPE>  (6635) 
EI-B

>  <INSTRUMENT>  (6635) 
JEOL JMS-D-3000

>  <ION MODE>  (6635) 
P

>  <INCHIKEY>  (6635) 
JVMCSXQIPYOLCJ-UHFFFAOYSA-N

>  <FORMULA>  (6635) 
C11H20GeSi

>  <EXACT MASS>  (6635) 
254.05460497

>  <MW>  (6635) 
254

>  <ID>  (6635) 
JP001346

>  <CONTRIBUTOR>  (6635) 
University of Tokyo Team, {Faculty of Engineering, University of Tokyo

>  <COMMENT>  (6635) 
SMILES=c(c1)ccc(c1)[Ge](C)(C)[Si](C)(C)C
InChI=InChI=1S/C11H20GeSi/c1-12(2,13(3,4)5)11-9-7-6-8-10-11/h6-10H,1-5H3
computed SMILES=C=1C=CC(=CC1)[Ge](C)(C)[Si](C)(C)C
accession=JP001346
date=2016.01.19 (Created 2008.10.21, modified 2011.05.06)
author=MASS SPECTROSCOPY SOC. OF JAPAN (MSSJ)
license=CC BY-NC-SA
exact mass=254.05461
ionization energy=70 eV
ion type=[M]+*
computed spectral entropy=3.035524910827609
computed normalized entropy=0.7759476124285701
SPLASH=splash10-000i-2930000000-964b15387fecaff1ab3d
submitter=submitter = University of Tokyo Team (Faculty of Engineering, University of Tokyo)
MoNA Rating=3.75

>  <NUM PEAKS>  (6635) 
50

>  <MASS SPECTRAL PEAKS>  (6635) 
43 1.15
44 1.09
45 3.91
73 33.44
74 2.18
75 1.66
78 1.28
85 2.18
87 3.33
89 3.27
91 1.09
100 1.34
102 1.47
104 2.88
107 1.73
119 1.02
121 1.02
135 99.99
136 13.28
137 4.87
147 3.46
149 4.23
150 2.31
151 5.39
153 1.54
162 2.63
164 3.78
165 1.66
166 4.49
168 1.02
177 6.16
179 8.47
180 3.78
181 11.29
182 1.21
183 2.75
235 8.08
236 1.92
237 12.32
238 5.07
239 14.76
240 2.63
241 3.27
250 6.41
251 1.41
252 8.27
253 4.55
254 10.71
255 2.37
256 2.82

$$$$

     RDKit          2D

 12 12  0  0  0  0  0  0  0  0999 V2000
    3.3481    2.7710    0.0000 C   0  0  0  0  0  0  0  0  0  0  0  0
    3.8971    4.8200    0.0000 C   0  0  0  0  0  0  0  0  0  0  0  0
    1.8481    5.3690    0.0000 C   0  0  0  0  0  0  0  0  0  0  0  0
   -3.8971    0.3200    0.0000 C   0  0  0  0  0  0  0  0  0  0  0  0
   -2.5976   -0.4308    0.0000 C   0  0  0  0  0  0  0  0  0  0  0  0
   -3.8976    1.8208    0.0000 C   0  0  0  0  0  0  0  0  0  0  0  0
   -1.2986    0.3192    0.0000 C   0  0  0  0  0  0  0  0  0  0  0  0
   -2.5986    2.5708    0.0000 C   0  0  0  0  0  0  0  0  0  0  0  0
    0.0000    2.5700    0.0000 C   0  0  0  0  0  0  0  0  0  0  0  0
    1.2990    3.3200    0.0000 C   0  0  0  0  0  0  0  0  0  0  0  0
   -1.2990    1.8200    0.0000 C   0  0  0  0  0  0  0  0  0  0  0  0
    2.5981    4.0700    0.0000 Si  0  0  0  0  0  4  0  0  0  0  0  0
  5  4  2  0
  6  4  1  0
  7  5  1  0
  8  6  2  0
 10  9  3  0
 11  7  2  0
 11  8  1  0
 11  9  1  0
 12  1  1  0
 12  2  1  0
 12  3  1  0
 12 10  1  0
M  END
>  <NAME>  (6636) 
TRIMETHYL(PHENYLETHYNYL)SILANE

>  <SYNONYMS>  (6636) 


>  <SPECTRUM TYPE>  (6636) 
MS1

>  <INSTRUMENT TYPE>  (6636) 
EI-B

>  <INSTRUMENT>  (6636) 
JEOL JMS-D-3000

>  <ION MODE>  (6636) 
P

>  <INCHIKEY>  (6636) 
UZIXCCMXZQWTPB-UHFFFAOYSA-N

>  <FORMULA>  (6636) 
C11H14Si

>  <EXACT MASS>  (6636) 
174.086476978

>  <MW>  (6636) 
174

>  <ID>  (6636) 
JP001345

>  <CONTRIBUTOR>  (6636) 
University of Tokyo Team, {Faculty of Engineering, University of Tokyo

>  <COMMENT>  (6636) 
SMILES=c(c1)ccc(c1)C#C[Si](C)(C)C
InChI=InChI=1S/C11H14Si/c1-12(2,3)10-9-11-7-5-4-6-8-11/h4-8H,1-3H3
computed SMILES=C(#C[Si](C)(C)C)C=1C=CC=CC1
accession=JP001345
date=2016.01.19 (Created 2008.10.21, modified 2011.05.06)
author=MASS SPECTROSCOPY SOC. OF JAPAN (MSSJ)
license=CC BY-NC-SA
exact mass=174.08648
ionization energy=70 eV
ion type=[M]+*
computed spectral entropy=1.6313459527965977
computed normalized entropy=0.6024060972476136
SPLASH=splash10-0a4i-0900000000-eb85ea523e793e5b1c6a
submitter=submitter = University of Tokyo Team (Faculty of Engineering, University of Tokyo)
MoNA Rating=3.75

>  <NUM PEAKS>  (6636) 
15

>  <MASS SPECTRAL PEAKS>  (6636) 
43 3.67
105 5.25
107 1.07
129 6.37
130 1.18
131 2.99
143 3.79
144 1.18
145 1.47
159 99.99
160 16.33
161 4.51
174 26.82
175 4.52
176 1.23

$$$$

     RDKit          2D

 15 14  0  0  0  0  0  0  0  0999 V2000
    5.0418    3.0405    0.0000 C   0  0  0  0  0  0  0  0  0  0  0  0
    3.3718    4.0047    0.0000 C   0  0  0  0  0  0  0  0  0  0  0  0
    2.3118    4.3396    0.0000 C   0  0  0  0  0  0  0  0  0  0  0  0
    0.6418    5.3037    0.0000 C   0  0  0  0  0  0  0  0  0  0  0  0
    5.6813    1.9785    0.0000 C   0  0  0  0  0  0  0  0  0  0  0  0
    3.0832    0.4785    0.0000 C   0  0  0  0  0  0  0  0  0  0  0  0
    5.1323   -0.0706    0.0000 C   0  0  0  0  0  0  0  0  0  0  0  0
   -0.5977    5.3265    0.0000 C   0  0  0  0  0  0  0  0  0  0  0  0
   -2.0977    3.8265    0.0000 C   0  0  0  0  0  0  0  0  0  0  0  0
   -0.5977    2.3265    0.0000 C   0  0  0  0  0  0  0  0  0  0  0  0
    3.6323    2.5275    0.0000 Ge  0  0  0  0  0  4  0  0  0  0  0  0
    0.9023    3.8265    0.0000 Ge  0  0  0  0  0  4  0  0  0  0  0  0
    1.6523    2.5275    0.0000 O   0  0  0  0  0  0  0  0  0  0  0  0
    4.3823    1.2285    0.0000 Si  0  0  0  0  0  4  0  0  0  0  0  0
   -0.5977    3.8265    0.0000 Si  0  0  0  0  0  4  0  0  0  0  0  0
 11  1  1  0
 11  2  1  0
 12  3  1  0
 12  4  1  0
 13 11  1  0
 13 12  1  0
 14  5  1  0
 14  6  1  0
 14  7  1  0
 14 11  1  0
 15  8  1  0
 15  9  1  0
 15 10  1  0
 15 12  1  0
M  END
>  <NAME>  (6637) 
1,1,3,3-TETRAMETHYL-1,3-BIS(TRIMETHYLSILYL)DIGERMOXANE

>  <SYNONYMS>  (6637) 


>  <SPECTRUM TYPE>  (6637) 
MS1

>  <INSTRUMENT TYPE>  (6637) 
EI-B

>  <INSTRUMENT>  (6637) 
JEOL JMS-D-3000

>  <ION MODE>  (6637) 
P

>  <INCHIKEY>  (6637) 
VWJRZDAXOVPKFT-UHFFFAOYSA-N

>  <FORMULA>  (6637) 
C10H30Ge2OSi2

>  <EXACT MASS>  (6637) 
370.02587423999995

>  <MW>  (6637) 
370

>  <ID>  (6637) 
JP001344

>  <CONTRIBUTOR>  (6637) 
University of Tokyo Team, {Faculty of Engineering, University of Tokyo

>  <COMMENT>  (6637) 
SMILES=C[Si](C)(C)[Ge](C)(C)O[Ge](C)(C)[Si](C)(C)C
InChI=InChI=1S/C10H30Ge2OSi2/c1-11(2,14(5,6)7)13-12(3,4)15(8,9)10/h1-10H3
computed SMILES=O([Ge](C)(C)[Si](C)(C)C)[Ge](C)(C)[Si](C)(C)C
accession=JP001344
date=2016.01.19 (Created 2008.10.21, modified 2011.05.06)
author=MASS SPECTROSCOPY SOC. OF JAPAN (MSSJ)
license=CC BY-NC-SA
exact mass=370.02588
ionization energy=70 eV
ion type=[M]+*
computed spectral entropy=3.9937589142207006
computed normalized entropy=0.8635205168664906
SPLASH=splash10-0kor-5973000000-369f97edd39d4819609f
submitter=submitter = University of Tokyo Team (Faculty of Engineering, University of Tokyo)
MoNA Rating=3.75

>  <NUM PEAKS>  (6637) 
102

>  <MASS SPECTRAL PEAKS>  (6637) 
45 2.62
52 1.5
58 1.03
63 1.68
71 1.5
73 99.99
74 9.28
75 5.06
76 3.56
85 9.28
87 10.78
88 3.75
89 13.69
102 16.88
103 1.59
115 10.78
117 10.6
118 2.9
119 15
121 4.03
145 2.43
147 4.03
149 4.87
150 1.5
151 5.15
153 1.59
158 1.5
159 27.01
160 5.44
161 2.62
162 1.59
171 4.5
173 22.32
174 4.03
175 29.36
176 9.94
177 35.36
178 4.31
179 8.81
180 1.68
181 1.87
185 1.87
187 3.75
188 1.5
189 4.87
190 1.5
191 5.25
192 1.59
193 4.12
200 7.12
201 5.53
202 16.6
203 11.91
204 36.58
205 15.66
206 37.05
207 10.41
208 24.29
209 3.56
229 2.53
231 3.09
232 1.5
233 3.75
247 1.59
259 5.06
260 1.59
261 6.47
262 3
263 8.16
264 2.43
265 1.78
273 1.4
275 3.09
276 1.78
277 3.56
278 1.68
279 2.62
303 1.59
305 3.47
307 1.87
308 1.5
309 1.68
359 1.78
361 3
362 1.87
363 6.47
364 2.62
365 7.31
366 2.9
367 5.34
368 1.87
369 1.87
374 2.53
376 6.56
377 3.56
378 13.03
379 5.06
380 13.22
381 6.09
382 10.03
383 3.09
384 4.31

$$$$

     RDKit          2D

 13 12  0  0  0  0  0  0  0  0999 V2000
    2.0490    3.0000    0.0000 C   0  0  0  0  0  0  0  0  0  0  0  0
    2.0490   -0.0000    0.0000 C   0  0  0  0  0  0  0  0  0  0  0  0
    3.5490    1.5000    0.0000 C   0  0  0  0  0  0  0  0  0  0  0  0
   -1.5000    0.9510    0.0000 C   0  0  0  0  0  0  0  0  0  0  0  0
   -0.9510   -1.0981    0.0000 C   0  0  0  0  0  0  0  0  0  0  0  0
    1.0981   -0.5490    0.0000 C   0  0  0  0  0  0  0  0  0  0  0  0
    1.0981    3.5490    0.0000 C   0  0  0  0  0  0  0  0  0  0  0  0
   -0.9510    4.0981    0.0000 C   0  0  0  0  0  0  0  0  0  0  0  0
   -1.5000    2.0490    0.0000 C   0  0  0  0  0  0  0  0  0  0  0  0
    0.5490    1.5000    0.0000 Si  0  0  0  0  0  4  0  0  0  0  0  0
    2.0490    1.5000    0.0000 Si  0  0  0  0  0  4  0  0  0  0  0  0
   -0.2010    0.2010    0.0000 Si  0  0  0  0  0  4  0  0  0  0  0  0
   -0.2010    2.7990    0.0000 Si  0  0  0  0  0  4  0  0  0  0  0  0
 11  1  1  0
 11  2  1  0
 11  3  1  0
 11 10  1  0
 12  4  1  0
 12  5  1  0
 12  6  1  0
 12 10  1  0
 13  7  1  0
 13  8  1  0
 13  9  1  0
 13 10  1  0
M  END
>  <NAME>  (6638) 
TRIS(TRIMETHYLSILYL)SILANE

>  <SYNONYMS>  (6638) 


>  <SPECTRUM TYPE>  (6638) 
MS1

>  <INSTRUMENT TYPE>  (6638) 
EI-B

>  <INSTRUMENT>  (6638) 
JEOL JMS-D-3000

>  <ION MODE>  (6638) 
P

>  <INCHIKEY>  (6638) 
SQMFULTZZQBFBM-UHFFFAOYSA-N

>  <FORMULA>  (6638) 
C9H28Si4

>  <EXACT MASS>  (6638) 
248.126807016

>  <MW>  (6638) 
248

>  <ID>  (6638) 
JP001341

>  <CONTRIBUTOR>  (6638) 
University of Tokyo Team, {Faculty of Engineering, University of Tokyo

>  <COMMENT>  (6638) 
SMILES=C[Si](C)(C)[SiH]([Si](C)(C)C)[Si](C)(C)C
InChI=InChI=1S/C9H28Si4/c1-11(2,3)10(12(4,5)6)13(7,8)9/h10H,1-9H3
computed SMILES=C[Si](C)(C)[SiH]([Si](C)(C)C)[Si](C)(C)C
accession=JP001341
date=2016.01.19 (Created 2008.10.21, modified 2011.05.06)
author=MASS SPECTROSCOPY SOC. OF JAPAN (MSSJ)
license=CC BY-NC-SA
exact mass=248.12681
ionization energy=70 eV
ion type=[M]+*
computed spectral entropy=3.083283158027008
computed normalized entropy=0.7841861379520612
SPLASH=splash10-00di-2920000000-4c1d76d873b84fcc22fa
submitter=submitter = University of Tokyo Team (Faculty of Engineering, University of Tokyo)
MoNA Rating=3.75

>  <NUM PEAKS>  (6638) 
51

>  <MASS SPECTRAL PEAKS>  (6638) 
44 1.54
45 2.84
59 4.79
73 96.72
74 6.85
75 3.2
86 2.57
99 7.53
100 9.3
101 7.75
102 1.97
103 1.41
113 4.88
114 9.16
115 25.3
116 7.39
117 8.69
118 1.59
129 31.46
130 5.08
131 16.98
132 2.64
133 1.43
143 3.87
144 1.54
145 12.39
146 2.48
147 1.07
157 8.04
158 4.48
159 97.69
160 97.64
161 2.51
162 10.15
163 1.86
171 2.86
172 1.86
173 22.94
174 99.99
175 25.84
176 12.84
177 2.01
187 1.05
233 33.37
234 10.33
235 5.58
236 1.36
248 50.62
249 16.15
250 9.18
251 2.17

$$$$

     RDKit          2D

 10  9  0  0  0  0  0  0  0  0999 V2000
    1.0514   -0.9240    0.0000 C   0  0  0  0  0  0  0  0  0  0  0  0
   -0.4486    1.6740    0.0000 C   0  0  0  0  0  0  0  0  0  0  0  0
   -0.9976   -0.3750    0.0000 C   0  0  0  0  0  0  0  0  0  0  0  0
    4.9486    1.3260    0.0000 C   0  0  0  0  0  0  0  0  0  0  0  0
    5.4976    3.3750    0.0000 C   0  0  0  0  0  0  0  0  0  0  0  0
    3.4486    3.9240    0.0000 C   0  0  0  0  0  0  0  0  0  0  0  0
    1.6005    1.1250    0.0000 C   0  0  0  0  0  0  0  0  0  0  0  0
    2.8995    1.8750    0.0000 C   0  0  0  0  0  0  0  0  0  0  0  0
    0.3014    0.3750    0.0000 C   0  0  0  0  0  0  0  0  0  0  0  0
    4.1986    2.6250    0.0000 Si  0  0  0  0  0  4  0  0  0  0  0  0
  8  7  3  0
  9  1  1  0
  9  2  1  0
  9  3  1  0
  9  7  1  0
 10  4  1  0
 10  5  1  0
 10  6  1  0
 10  8  1  0
M  END
>  <NAME>  (6639) 
3,3-DIMETHYL-1-TRIMETHYLSILYL-1-BUTYNE

>  <SYNONYMS>  (6639) 


>  <SPECTRUM TYPE>  (6639) 
MS1

>  <INSTRUMENT TYPE>  (6639) 
EI-B

>  <INSTRUMENT>  (6639) 
JEOL JMS-D-3000

>  <ION MODE>  (6639) 
P

>  <INCHIKEY>  (6639) 
GKWFJPNWRGGCSB-UHFFFAOYSA-N

>  <FORMULA>  (6639) 
C9H18Si

>  <EXACT MASS>  (6639) 
154.117777106

>  <MW>  (6639) 
154

>  <ID>  (6639) 
JP001340

>  <CONTRIBUTOR>  (6639) 
University of Tokyo Team, {Faculty of Engineering, University of Tokyo

>  <COMMENT>  (6639) 
SMILES=CC(C)(C)C#C[Si](C)(C)C
InChI=InChI=1S/C9H18Si/c1-9(2,3)7-8-10(4,5)6/h1-6H3
computed SMILES=C(#C[Si](C)(C)C)C(C)(C)C
accession=JP001340
date=2016.01.19 (Created 2008.10.21, modified 2011.05.06)
author=MASS SPECTROSCOPY SOC. OF JAPAN (MSSJ)
license=CC BY-NC-SA
exact mass=154.11778
ionization energy=70 eV
ion type=[M]+*
computed spectral entropy=2.066264070984723
computed normalized entropy=0.6589915109674094
SPLASH=splash10-000i-5900000000-8502336b1a5e6e3f0925
submitter=submitter = University of Tokyo Team (Faculty of Engineering, University of Tokyo)
MoNA Rating=3.75

>  <NUM PEAKS>  (6639) 
23

>  <MASS SPECTRAL PEAKS>  (6639) 
43 3.75
45 1.42
53 1.79
55 1.83
61 1.88
62 1.24
67 3.53
69 2.79
73 12.26
81 1.17
83 3.92
95 1.06
97 45.39
98 5.18
99 2.51
109 2.81
123 3.95
124 2.18
139 99.99
140 14.45
141 4.71
154 12.28
155 2.23

$$$$

     RDKit          2D

 10  9  0  0  0  0  0  0  0  0999 V2000
    1.3260   -0.6495    0.0000 C   0  0  0  0  0  0  0  0  0  0  0  0
   -0.1740    1.9486    0.0000 C   0  0  0  0  0  0  0  0  0  0  0  0
   -0.7231   -0.1005    0.0000 C   0  0  0  0  0  0  0  0  0  0  0  0
    3.9240    2.3505    0.0000 C   0  0  0  0  0  0  0  0  0  0  0  0
    4.4731    4.3995    0.0000 C   0  0  0  0  0  0  0  0  0  0  0  0
    2.4240    4.9486    0.0000 C   0  0  0  0  0  0  0  0  0  0  0  0
    1.8750    1.3995    0.0000 C   0  0  0  0  0  0  0  0  0  0  0  0
    1.8750    2.8995    0.0000 C   0  0  0  0  0  0  0  0  0  0  0  0
    0.5760    0.6495    0.0000 Ge  0  0  0  0  0  4  0  0  0  0  0  0
    3.1740    3.6495    0.0000 Si  0  0  0  0  0  4  0  0  0  0  0  0
  7  8  2  0
  9  1  1  0
  9  2  1  0
  9  3  1  0
  9  7  1  0
 10  4  1  0
 10  5  1  0
 10  6  1  0
 10  8  1  0
M  END
>  <NAME>  (6640) 
(E)-1-TRIMETHYLGERMYL-2-TRIMETHYLSILYLETHYLENE

>  <SYNONYMS>  (6640) 


>  <SPECTRUM TYPE>  (6640) 
MS1

>  <INSTRUMENT TYPE>  (6640) 
EI-B

>  <INSTRUMENT>  (6640) 
JEOL JMS-D-3000

>  <ION MODE>  (6640) 
P

>  <INCHIKEY>  (6640) 
VPXZBSSDIIKKIR-BQYQJAHWSA-N

>  <FORMULA>  (6640) 
C8H20GeSi

>  <EXACT MASS>  (6640) 
218.05460496999999

>  <MW>  (6640) 
218

>  <ID>  (6640) 
JP001339

>  <CONTRIBUTOR>  (6640) 
University of Tokyo Team, {Faculty of Engineering, University of Tokyo

>  <COMMENT>  (6640) 
SMILES=C[Si](C)(C)C([H])=C([H])[Ge](C)(C)C
InChI=InChI=1S/C8H20GeSi/c1-9(2,3)7-8-10(4,5)6/h7-8H,1-6H3/b8-7+
computed SMILES=C(=C[Ge](C)(C)C)[Si](C)(C)C
accession=JP001339
date=2016.01.19 (Created 2008.10.21, modified 2011.05.06)
author=MASS SPECTROSCOPY SOC. OF JAPAN (MSSJ)
license=CC BY-NC-SA
exact mass=218.05461
ionization energy=70 eV
ion type=[M]+*
computed spectral entropy=3.2753308021809726
computed normalized entropy=0.8173342846187535
SPLASH=splash10-0v4i-5940000000-1acf6a48f48b8f0ee7f1
submitter=submitter = University of Tokyo Team (Faculty of Engineering, University of Tokyo)
MoNA Rating=3.75

>  <NUM PEAKS>  (6640) 
55

>  <MASS SPECTRAL PEAKS>  (6640) 
43 6.5
45 14.06
53 1.17
55 2.45
58 2.19
59 3.08
67 1.02
69 1.14
73 99.99
74 7.91
75 3.92
83 10.12
84 1.56
85 4.36
87 6.51
88 1.94
89 8.83
91 3.09
93 1.33
94 1.7
97 2.09
99 8.1
100 2.72
101 16.57
102 3.63
103 22.55
104 10.28
105 28.34
106 1.66
107 6.2
115 31.56
116 1.41
117 42.04
118 13.68
119 55
120 2.09
121 11.9
125 2.91
127 4.12
128 1.61
129 5.53
131 1.45
199 29.93
200 3.92
201 42.06
202 17.07
203 57.53
204 7.94
205 14.41
206 1.74
214 3.02
216 4.24
217 1.77
218 5.68
220 1.38

$$$$

     RDKit          2D

 10 10  0  0  0  0  0  0  0  0999 V2000
    1.8487   -2.7991    0.0000 C   0  0  0  0  0  0  0  0  0  0  0  0
    3.8978   -2.2504    0.0000 C   0  0  0  0  0  0  0  0  0  0  0  0
   -1.3000    0.7500    0.0000 C   0  0  0  0  0  0  0  0  0  0  0  0
    0.0000    1.5000    0.0000 C   0  0  0  0  0  0  0  0  0  0  0  0
   -1.3000   -0.7500    0.0000 C   0  0  0  0  0  0  0  0  0  0  0  0
    1.3000    0.7500    0.0000 C   0  0  0  0  0  0  0  0  0  0  0  0
    0.0000   -1.5000    0.0000 C   0  0  0  0  0  0  0  0  0  0  0  0
    1.3000   -0.7500    0.0000 C   0  0  0  0  0  0  0  0  0  0  0  0
    3.3491   -0.2013    0.0000 Cl  0  0  0  0  0  0  0  0  0  0  0  0
    2.5989   -1.5002    0.0000 Ge  0  0  0  0  0  4  0  0  0  0  0  0
  4  3  2  0
  5  3  1  0
  6  4  1  0
  7  5  2  0
  8  6  2  0
  8  7  1  0
 10  1  1  0
 10  2  1  0
 10  8  1  0
 10  9  1  0
M  END
>  <NAME>  (6641) 
CHLORODIMETHYLPHENYLGERMANE

>  <SYNONYMS>  (6641) 


>  <SPECTRUM TYPE>  (6641) 
MS1

>  <INSTRUMENT TYPE>  (6641) 
EI-B

>  <INSTRUMENT>  (6641) 
JEOL JMS-D-3000

>  <ION MODE>  (6641) 
P

>  <INCHIKEY>  (6641) 
QBQSJNDUKDWNNK-UHFFFAOYSA-N

>  <FORMULA>  (6641) 
C8H11ClGe

>  <EXACT MASS>  (6641) 
215.976105832

>  <MW>  (6641) 
216

>  <ID>  (6641) 
JP001338

>  <CONTRIBUTOR>  (6641) 
University of Tokyo Team, {Faculty of Engineering, University of Tokyo

>  <COMMENT>  (6641) 
SMILES=c(c1)ccc(c1)[Ge](C)(C)Cl
InChI=InChI=1S/C8H11ClGe/c1-10(2,9)8-6-4-3-5-7-8/h3-7H,1-2H3
computed SMILES=Cl[Ge](C=1C=CC=CC1)(C)C
accession=JP001338
date=2016.01.19 (Created 2008.10.21, modified 2011.05.06)
author=MASS SPECTROSCOPY SOC. OF JAPAN (MSSJ)
license=CC BY-NC-SA
exact mass=215.97611
ionization energy=70 eV
ion type=[M]+*
computed spectral entropy=3.5679584286641393
computed normalized entropy=0.8263968156571817
SPLASH=splash10-0udj-4960000000-8d50a3ac33a52498a0fb
submitter=submitter = University of Tokyo Team (Faculty of Engineering, University of Tokyo)
MoNA Rating=3.75

>  <NUM PEAKS>  (6641) 
75

>  <MASS SPECTRAL PEAKS>  (6641) 
50 7.69
51 26.76
52 2.4
63 2.89
65 9.27
70 1.11
72 1.42
74 2.23
75 1.57
76 1.08
77 19.25
78 4.56
85 6.76
87 8.69
88 3.08
89 11.25
90 1.03
91 15.44
92 1.49
95 3.76
97 5.13
98 1.68
99 6.53
100 2.75
101 2.01
105 11.31
107 18.6
108 4.65
109 24.84
110 1.85
111 11.28
113 1.95
121 2.81
122 1.85
123 3.8
124 2.55
125 3.28
135 3.27
137 4.13
138 1.38
139 5.13
141 2.11
147 6.16
149 7.54
150 2.66
151 9.47
153 1.95
159 1.13
163 1.37
165 1.28
177 6.36
179 8.6
180 3.16
181 11.25
182 3.11
183 3.43
184 3.43
185 1.8
186 4.24
188 1.8
197 45.77
198 4.06
199 74.21
200 23.39
201 99.99
202 13.51
203 42.37
204 3.32
205 5.74
212 5.17
214 8.36
215 2.66
216 11.11
217 1.63
218 4.88

$$$$

     RDKit          2D

  7  6  0  0  0  0  0  0  0  0999 V2000
   -0.0000   -0.0000    0.0000 C   0  0  0  0  0  0  0  0  0  0  0  0
   -1.8481    0.2010    0.0000 C   0  0  0  0  0  0  0  0  0  0  0  0
   -3.8971    0.7500    0.0000 C   0  0  0  0  0  0  0  0  0  0  0  0
   -3.3481    2.7990    0.0000 C   0  0  0  0  0  0  0  0  0  0  0  0
   -0.0000    1.5000    0.0000 C   0  0  0  0  0  0  0  0  0  0  0  0
   -1.2990    2.2500    0.0000 C   0  0  0  0  0  0  0  0  0  0  0  0
   -2.5981    1.5000    0.0000 Si  0  0  0  0  0  4  0  0  0  0  0  0
  5  1  1  0
  5  6  2  0
  7  2  1  0
  7  3  1  0
  7  4  1  0
  7  6  1  0
M  END
>  <NAME>  (6642) 
(Z)-1-TRIMETHYSILYLPROPENE

>  <SYNONYMS>  (6642) 


>  <SPECTRUM TYPE>  (6642) 
MS1

>  <INSTRUMENT TYPE>  (6642) 
EI-B

>  <INSTRUMENT>  (6642) 
JEOL JMS-D-3000

>  <ION MODE>  (6642) 
P

>  <INCHIKEY>  (6642) 
UDYJJCZCPMQSQG-WAYWQWQTSA-N

>  <FORMULA>  (6642) 
C6H14Si

>  <EXACT MASS>  (6642) 
114.086476978

>  <MW>  (6642) 
114

>  <ID>  (6642) 
JP001337

>  <CONTRIBUTOR>  (6642) 
University of Tokyo Team, {Faculty of Engineering, University of Tokyo

>  <COMMENT>  (6642) 
SMILES=[H]C(C)=C([H])[Si](C)(C)C
InChI=InChI=1S/C6H14Si/c1-5-6-7(2,3)4/h5-6H,1-4H3/b6-5-
computed SMILES=C(=C[Si](C)(C)C)C
accession=JP001337
date=2016.01.19 (Created 2008.10.21, modified 2011.05.06)
author=MASS SPECTROSCOPY SOC. OF JAPAN (MSSJ)
license=CC BY-NC-SA
exact mass=114.08648
ionization energy=70 eV
ion type=[M]+*
computed spectral entropy=1.8114146671807054
computed normalized entropy=0.6393498996398782
SPLASH=splash10-0002-9000000000-07ffa1f0050bcd2ba9e6
submitter=submitter = University of Tokyo Team (Faculty of Engineering, University of Tokyo)
MoNA Rating=3.75

>  <NUM PEAKS>  (6642) 
17

>  <MASS SPECTRAL PEAKS>  (6642) 
43 2.94
46 1.38
57 1.43
58 3.07
59 33.85
60 3.38
61 1.43
67 3.03
73 38.23
75 4.33
78 5.37
82 1.6
83 1.99
99 99.99
100 7.23
101 2.86
114 6.37

$$$$

     RDKit          2D

 14 14  0  0  0  0  0  0  0  0999 V2000
   -9.0942    0.7512    0.0000 C   0  0  0  0  0  0  0  0  0  0  0  0
   -7.7951    1.5010    0.0000 C   0  0  0  0  0  0  0  0  0  0  0  0
   -6.4962    0.7508    0.0000 C   0  0  0  0  0  0  0  0  0  0  0  0
   -1.3000   -0.7500    0.0000 C   0  0  0  0  0  0  0  0  0  0  0  0
    0.0000    1.5000    0.0000 C   0  0  0  0  0  0  0  0  0  0  0  0
    0.0000   -1.5000    0.0000 C   0  0  0  0  0  0  0  0  0  0  0  0
    1.3000    0.7500    0.0000 C   0  0  0  0  0  0  0  0  0  0  0  0
   -5.1970    1.5006    0.0000 C   0  0  0  0  0  0  0  0  0  0  0  0
   -1.3000    0.7500    0.0000 C   0  0  0  0  0  0  0  0  0  0  0  0
    1.3000   -0.7500    0.0000 C   0  0  0  0  0  0  0  0  0  0  0  0
   -2.5989    1.5002    0.0000 C   0  0  0  0  0  0  0  0  0  0  0  0
    2.5989   -1.5002    0.0000 N   0  0  0  0  0  0  0  0  0  0  0  0
   -2.5987    3.0002    0.0000 O   0  0  0  0  0  0  0  0  0  0  0  0
   -3.8981    0.7504    0.0000 O   0  0  0  0  0  0  0  0  0  0  0  0
  2  1  1  0
  3  2  1  0
  6  4  2  0
  7  5  1  0
  8  3  1  0
  9  4  1  0
  9  5  2  0
 10  6  1  0
 10  7  2  0
 11  9  1  0
 12 10  1  0
 13 11  2  0
 14  8  1  0
 14 11  1  0
M  END
>  <NAME>  (6643) 
PARA-AMINOBENZOIC ACID BUTYL ESTER

>  <SYNONYMS>  (6643) 
BUTYL 4-AMINOBENZOATE

>  <SPECTRUM TYPE>  (6643) 
MS1

>  <INSTRUMENT TYPE>  (6643) 
EI-B

>  <INSTRUMENT>  (6643) 
HITACHI RMU-7M

>  <ION MODE>  (6643) 
P

>  <INCHIKEY>  (6643) 
IUWVALYLNVXWKX-UHFFFAOYSA-N

>  <FORMULA>  (6643) 
C11H15NO2

>  <EXACT MASS>  (6643) 
193.11027872

>  <MW>  (6643) 
193

>  <ID>  (6643) 
JP001336

>  <CONTRIBUTOR>  (6643) 
University of Tokyo Team, {Faculty of Engineering, University of Tokyo

>  <COMMENT>  (6643) 
SMILES=CCCCOC(=O)c(c1)ccc(N)c1
InChI=InChI=1S/C11H15NO2/c1-2-3-8-14-11(13)9-4-6-10(12)7-5-9/h4-7H,2-3,8,12H2,1H3
computed SMILES=O=C(OCCCC)C1=CC=C(N)C=C1
accession=JP001336
date=2016.01.19 (Created 2008.10.21, modified 2011.05.06)
author=TAJIMA S, GUNMA COLLEGE OF TECHNOLOGY
license=CC BY-NC-SA
exact mass=193.11028
ionization energy=70 eV
ion type=[M]+*
computed spectral entropy=2.1770676330386616
computed normalized entropy=0.6850317047022163
SPLASH=splash10-00dr-2900000000-906b8d78dc5d3ad39b7d
submitter=submitter = University of Tokyo Team (Faculty of Engineering, University of Tokyo)
MoNA Rating=3.75

>  <NUM PEAKS>  (6643) 
24

>  <MASS SPECTRAL PEAKS>  (6643) 
27 1.64
29 2.34
39 5.07
41 3.98
43 1.56
55 1.72
57 1.56
63 2.18
64 2.42
65 15.83
66 4.13
91 3.28
92 21.06
93 8.19
106 6.16
107 4.06
108 2.26
119 3.82
120 99.99
121 9.2
137 87.6
138 8.11
193 11.7
194 1.48

$$$$

     RDKit          2D

 10 10  0  0  0  0  0  0  0  0999 V2000
    2.2872   -2.0404    0.0000 C   0  0  0  0  0  0  0  0  0  0  0  0
    1.0155   -2.7876    0.0000 C   0  0  0  0  0  0  0  0  0  0  0  0
    2.2741   -0.5582    0.0000 C   0  0  0  0  0  0  0  0  0  0  0  0
   -0.3012   -2.0691    0.0000 C   0  0  0  0  0  0  0  0  0  0  0  0
    0.9894    0.1768    0.0000 C   0  0  0  0  0  0  0  0  0  0  0  0
   -0.2823   -0.5704    0.0000 C   0  0  0  0  0  0  0  0  0  0  0  0
    0.9807    1.6767    0.0000 C   0  0  0  0  0  0  0  0  0  0  0  0
   -1.5794    0.1829    0.0000 N   0  0  0  0  0  0  0  0  0  0  0  0
   -0.3226    2.4192    0.0000 O   0  0  0  0  0  0  0  0  0  0  0  0
    2.2754    2.4342    0.0000 O   0  0  0  0  0  0  0  0  0  0  0  0
  2  1  2  0
  3  1  1  0
  4  2  1  0
  5  3  2  0
  6  4  2  0
  6  5  1  0
  7  5  1  0
  8  6  1  0
  9  7  2  0
 10  7  1  0
M  END
>  <NAME>  (6644) 
ORTH0-AMINOBENZOIC ACID

>  <SYNONYMS>  (6644) 
ANTHRANILIC ACID

>  <SPECTRUM TYPE>  (6644) 
MS1

>  <INSTRUMENT TYPE>  (6644) 
EI-B

>  <INSTRUMENT>  (6644) 
HITACHI RMU-7M

>  <ION MODE>  (6644) 
P

>  <INCHIKEY>  (6644) 
RWZYAGGXGHYGMB-UHFFFAOYSA-N

>  <FORMULA>  (6644) 
C7H7NO2

>  <EXACT MASS>  (6644) 
137.047678464

>  <MW>  (6644) 
137

>  <ID>  (6644) 
JP001335

>  <CONTRIBUTOR>  (6644) 
University of Tokyo Team, {Faculty of Engineering, University of Tokyo

>  <COMMENT>  (6644) 
SMILES=OC(=O)c(c1)c(N)ccc1
InChI=InChI=1S/C7H7NO2/c8-6-4-2-1-3-5(6)7(9)10/h1-4H,8H2,(H,9,10)
computed SMILES=O=C(O)C=1C=CC=CC1N
accession=JP001335
date=2016.01.19 (Created 2008.10.21, modified 2011.05.06)
author=TAJIMA S, GUNMA COLLEGE OF TECHNOLOGY
license=CC BY-NC-SA
exact mass=137.04768
ionization energy=70 eV
ion type=[M]+*
computed spectral entropy=2.803444149960206
computed normalized entropy=0.7763799171793643
SPLASH=splash10-00kf-9400000000-b65ee27505e8c4bcca28
submitter=submitter = University of Tokyo Team (Faculty of Engineering, University of Tokyo)
MoNA Rating=3.75

>  <NUM PEAKS>  (6644) 
37

>  <MASS SPECTRAL PEAKS>  (6644) 
29 2.41
38 3.46
39 10.2
40 2.41
41 7.99
42 2.21
43 5.44
44 10.89
50 2.76
51 2.89
52 4.2
55 5.86
56 3.79
57 5.03
62 2.76
63 7.72
64 10.89
65 21.57
66 25.5
67 3.51
69 4.96
70 4.14
71 2.69
77 3.31
83 4.07
90 2.41
91 12.34
92 72.64
93 77.74
94 5.93
97 4.07
105 2.62
115 3.38
119 99.99
120 13.99
137 49.9
138 4.34

$$$$

     RDKit          2D

  8  8  0  0  0  0  0  0  0  0999 V2000
    2.2649    0.9387    0.0000 C   0  0  0  0  0  0  0  0  0  0  0  0
   -0.3010   -2.0513    0.0000 C   0  0  0  0  0  0  0  0  0  0  0  0
   -1.5839   -1.3236    0.0000 C   0  0  0  0  0  0  0  0  0  0  0  0
    0.9761   -1.2989    0.0000 C   0  0  0  0  0  0  0  0  0  0  0  0
   -1.6201    0.1760    0.0000 C   0  0  0  0  0  0  0  0  0  0  0  0
    0.9702    0.1812    0.0000 C   0  0  0  0  0  0  0  0  0  0  0  0
   -0.3126    0.9089    0.0000 C   0  0  0  0  0  0  0  0  0  0  0  0
   -0.3089    2.4089    0.0000 N   0  0  0  0  0  0  0  0  0  0  0  0
  3  2  2  0
  4  2  1  0
  5  3  1  0
  6  1  1  0
  6  4  2  0
  7  5  2  0
  7  6  1  0
  8  7  1  0
M  END
>  <NAME>  (6645) 
ORTHO-TOLUIDINE

>  <SYNONYMS>  (6645) 
ORTHO-AMINOTOLUENE

>  <SPECTRUM TYPE>  (6645) 
MS1

>  <INSTRUMENT TYPE>  (6645) 
EI-B

>  <INSTRUMENT>  (6645) 
HITACHI RMU-7M

>  <ION MODE>  (6645) 
P

>  <INCHIKEY>  (6645) 
RNVCVTLRINQCPJ-UHFFFAOYSA-N

>  <FORMULA>  (6645) 
C7H9N

>  <EXACT MASS>  (6645) 
107.073499288

>  <MW>  (6645) 
107

>  <ID>  (6645) 
JP001334

>  <CONTRIBUTOR>  (6645) 
University of Tokyo Team, {Faculty of Engineering, University of Tokyo

>  <COMMENT>  (6645) 
SMILES=Cc(c1)c(N)ccc1
InChI=InChI=1S/C7H9N/c1-6-4-2-3-5-7(6)8/h2-5H,8H2,1H3
computed SMILES=NC=1C=CC=CC1C
accession=JP001334
date=2016.01.19 (Created 2008.10.21, modified 2011.05.06)
author=TAJIMA S, GUNMA COLLEGE OF TECHNOLOGY
license=CC BY-NC-SA
exact mass=107.0735
ionization energy=70 eV
ion type=[M]+*
computed spectral entropy=2.3618533998269395
computed normalized entropy=0.6877874782824211
SPLASH=splash10-0a4i-5900000000-2768b43eabd390a64db4
submitter=submitter = University of Tokyo Team (Faculty of Engineering, University of Tokyo)
MoNA Rating=3.75

>  <NUM PEAKS>  (6645) 
31

>  <MASS SPECTRAL PEAKS>  (6645) 
27 3.01
28 4.26
30 2.21
38 2.06
39 6.84
40 1.32
41 2.13
42 1.47
50 3.24
51 6.69
52 5.96
52.5 2.13
53 6.62
53.5 3.38
54 2.21
63 2.94
64 1.54
65 2.94
66 1.47
77 16.1
78 5.73
79 13.9
80 3.9
89 6.03
90 5.15
91 3.31
104 2.79
105 1.99
106 99.99
107 85.44
108 6.18

$$$$

     RDKit          2D

  8  8  0  0  0  0  0  0  0  0999 V2000
   -2.5989    1.5002    0.0000 C   0  0  0  0  0  0  0  0  0  0  0  0
   -1.3000   -0.7500    0.0000 C   0  0  0  0  0  0  0  0  0  0  0  0
    0.0000    1.5000    0.0000 C   0  0  0  0  0  0  0  0  0  0  0  0
    0.0000   -1.5000    0.0000 C   0  0  0  0  0  0  0  0  0  0  0  0
    1.3000    0.7500    0.0000 C   0  0  0  0  0  0  0  0  0  0  0  0
   -1.3000    0.7500    0.0000 C   0  0  0  0  0  0  0  0  0  0  0  0
    1.3000   -0.7500    0.0000 C   0  0  0  0  0  0  0  0  0  0  0  0
    2.5989   -1.5002    0.0000 N   0  0  0  0  0  0  0  0  0  0  0  0
  4  2  2  0
  5  3  1  0
  6  1  1  0
  6  2  1  0
  6  3  2  0
  7  4  1  0
  7  5  2  0
  8  7  1  0
M  END
>  <NAME>  (6646) 
PARA-TOLUIDINE

>  <SYNONYMS>  (6646) 
PARA-AMINOTOLUENE

>  <SPECTRUM TYPE>  (6646) 
MS1

>  <INSTRUMENT TYPE>  (6646) 
EI-B

>  <INSTRUMENT>  (6646) 
HITACHI RMU-7M

>  <ION MODE>  (6646) 
P

>  <INCHIKEY>  (6646) 
RZXMPPFPUUCRFN-UHFFFAOYSA-N

>  <FORMULA>  (6646) 
C7H9N

>  <EXACT MASS>  (6646) 
107.073499288

>  <MW>  (6646) 
107

>  <ID>  (6646) 
JP001333

>  <CONTRIBUTOR>  (6646) 
University of Tokyo Team, {Faculty of Engineering, University of Tokyo

>  <COMMENT>  (6646) 
SMILES=Cc(c1)ccc(N)c1
InChI=InChI=1S/C7H9N/c1-6-2-4-7(8)5-3-6/h2-5H,8H2,1H3
computed SMILES=NC1=CC=C(C=C1)C
accession=JP001333
date=2016.01.19 (Created 2008.10.21, modified 2011.05.06)
author=TAJIMA S, GUNMA COLLEGE OF TECHNOLOGY
license=CC BY-NC-SA
exact mass=107.0735
ionization energy=70 eV
ion type=[M]+*
computed spectral entropy=2.0941633981908128
computed normalized entropy=0.635396557333145
SPLASH=splash10-0a4i-3900000000-d9561648fdef3fb110a3
submitter=submitter = University of Tokyo Team (Faculty of Engineering, University of Tokyo)
MoNA Rating=3.75

>  <NUM PEAKS>  (6646) 
27

>  <MASS SPECTRAL PEAKS>  (6646) 
27 2.5
28 3.11
30 1.01
38 1.15
39 4.26
41 1.62
50 2.43
51 4.8
52 4.93
52.5 1.89
53 5.81
53.5 3.11
54 2.09
63 2.16
65 2.16
66 1.22
77 14.05
78 4.26
79 9.46
80 2.77
89 1.35
91 2.03
104 2.64
105 1.82
106 99.99
107 72.43
108 5.34

$$$$

     RDKit          2D

 12 11  0  0  0  0  0  0  0  0999 V2000
    3.8971    6.0000    0.0000 C   0  0  0  0  0  0  0  0  0  0  0  0
    2.5981    6.7500    0.0000 C   0  0  0  0  0  0  0  0  0  0  0  0
    1.2990    6.0000    0.0000 C   0  0  0  0  0  0  0  0  0  0  0  0
    0.0000    6.7500    0.0000 C   0  0  0  0  0  0  0  0  0  0  0  0
   -1.2990    6.0000    0.0000 C   0  0  0  0  0  0  0  0  0  0  0  0
   -2.5981    6.7500    0.0000 C   0  0  0  0  0  0  0  0  0  0  0  0
   -3.8971    6.0000    0.0000 C   0  0  0  0  0  0  0  0  0  0  0  0
   -5.1962    6.7500    0.0000 C   0  0  0  0  0  0  0  0  0  0  0  0
   -6.4952    6.0000    0.0000 C   0  0  0  0  0  0  0  0  0  0  0  0
   -7.7942    6.7500    0.0000 C   0  0  0  0  0  0  0  0  0  0  0  0
   -9.0933    6.0000    0.0000 C   0  0  0  0  0  0  0  0  0  0  0  0
  -10.3923    6.7500    0.0000 O   0  0  0  0  0  0  0  0  0  0  0  0
  2  1  1  0
  3  2  1  0
  4  3  1  0
  5  4  1  0
  6  5  1  0
  7  6  1  0
  8  7  1  0
  9  8  1  0
 10  9  1  0
 11 10  1  0
 12 11  1  0
M  END
>  <NAME>  (6647) 
1-UNDECANOL

>  <SYNONYMS>  (6647) 
UNDECYL ALCOHOL

>  <SPECTRUM TYPE>  (6647) 
MS1

>  <INSTRUMENT TYPE>  (6647) 
EI-B

>  <INSTRUMENT>  (6647) 
HITACHI RMU-7M

>  <ION MODE>  (6647) 
P

>  <INCHIKEY>  (6647) 
KJIOQYGWTQBHNH-UHFFFAOYSA-N

>  <FORMULA>  (6647) 
C11H24O

>  <EXACT MASS>  (6647) 
172.182715388

>  <MW>  (6647) 
172

>  <ID>  (6647) 
JP001332

>  <CONTRIBUTOR>  (6647) 
University of Tokyo Team, {Faculty of Engineering, University of Tokyo

>  <COMMENT>  (6647) 
SMILES=CCCCCCCCCCCO
InChI=InChI=1S/C11H24O/c1-2-3-4-5-6-7-8-9-10-11-12/h12H,2-11H2,1H3
computed SMILES=OCCCCCCCCCCC
accession=JP001332
date=2016.01.19 (Created 2008.10.21, modified 2011.05.06)
author=TAJIMA S, GUNMA COLLEGE OF TECHNOLOGY
license=CC BY-NC-SA
exact mass=172.18272
ionization energy=70 eV
ion type=[M]+*
computed spectral entropy=3.110516318713696
computed normalized entropy=0.8376076356784407
SPLASH=splash10-0a4l-9000000000-7e5203a4c36f0f292fbf
submitter=submitter = University of Tokyo Team (Faculty of Engineering, University of Tokyo)
MoNA Rating=3.75

>  <NUM PEAKS>  (6647) 
41

>  <MASS SPECTRAL PEAKS>  (6647) 
18 2.37
27 16.43
28 4.95
29 34.72
31 16.86
39 12.12
40 2.58
41 78.48
42 31.64
43 96.84
44 5.74
45 2.8
53 4.23
54 8.03
55 99.99
56 85.22
57 60.98
58 2.94
67 10.33
68 25.9
69 80.2
70 73.24
71 18.58
73 2.15
81 3.66
82 22.31
83 56.6
84 44.62
85 9.76
95 1.43
96 6.38
97 37.16
98 19.01
99 2.15
110 1.51
111 11.55
112 5.88
125 4.66
126 12.7
127 1.43
154 1.51

$$$$

     RDKit          2D

 11 10  0  0  0  0  0  0  0  0999 V2000
    3.2476    5.6250    0.0000 C   0  0  0  0  0  0  0  0  0  0  0  0
    1.9486    6.3750    0.0000 C   0  0  0  0  0  0  0  0  0  0  0  0
    0.6495    5.6250    0.0000 C   0  0  0  0  0  0  0  0  0  0  0  0
   -0.6495    6.3750    0.0000 C   0  0  0  0  0  0  0  0  0  0  0  0
   -1.9486    5.6250    0.0000 C   0  0  0  0  0  0  0  0  0  0  0  0
   -3.2476    6.3750    0.0000 C   0  0  0  0  0  0  0  0  0  0  0  0
   -4.5466    5.6250    0.0000 C   0  0  0  0  0  0  0  0  0  0  0  0
   -5.8457    6.3750    0.0000 C   0  0  0  0  0  0  0  0  0  0  0  0
   -7.1447    5.6250    0.0000 C   0  0  0  0  0  0  0  0  0  0  0  0
   -8.4437    6.3750    0.0000 C   0  0  0  0  0  0  0  0  0  0  0  0
   -9.7428    5.6250    0.0000 O   0  0  0  0  0  0  0  0  0  0  0  0
  2  1  1  0
  3  2  1  0
  4  3  1  0
  5  4  1  0
  6  5  1  0
  7  6  1  0
  8  7  1  0
  9  8  1  0
 10  9  1  0
 11 10  1  0
M  END
>  <NAME>  (6648) 
1-DECANOL

>  <SYNONYMS>  (6648) 
DECYL ALCOHOL

>  <SPECTRUM TYPE>  (6648) 
MS1

>  <INSTRUMENT TYPE>  (6648) 
EI-B

>  <INSTRUMENT>  (6648) 
HITACHI RMU-7M

>  <ION MODE>  (6648) 
P

>  <INCHIKEY>  (6648) 
MWKFXSUHUHTGQN-UHFFFAOYSA-N

>  <FORMULA>  (6648) 
C10H22O

>  <EXACT MASS>  (6648) 
158.167065324

>  <MW>  (6648) 
158

>  <ID>  (6648) 
JP001331

>  <CONTRIBUTOR>  (6648) 
University of Tokyo Team, {Faculty of Engineering, University of Tokyo

>  <COMMENT>  (6648) 
SMILES=CCCCCCCCCCO
InChI=InChI=1S/C10H22O/c1-2-3-4-5-6-7-8-9-10-11/h11H,2-10H2,1H3
computed SMILES=OCCCCCCCCCC
accession=JP001331
date=2016.01.19 (Created 2008.10.21, modified 2011.05.06)
author=TAJIMA S, GUNMA COLLEGE OF TECHNOLOGY
license=CC BY-NC-SA
exact mass=158.16707
ionization energy=70 eV
ion type=[M]+*
computed spectral entropy=3.0415550057141267
computed normalized entropy=0.8361465191914268
SPLASH=splash10-0a4l-9000000000-977ade63abeaf44185e1
submitter=submitter = University of Tokyo Team (Faculty of Engineering, University of Tokyo)
MoNA Rating=3.75

>  <NUM PEAKS>  (6648) 
38

>  <MASS SPECTRAL PEAKS>  (6648) 
18 4.32
27 19.73
28 6.33
29 38.05
31 19.66
39 14
40 2.83
41 83.99
42 37.23
43 96.13
44 6.11
45 3.05
53 4.47
54 7.45
55 99.99
56 89.58
57 47.28
58 2.16
67 8.94
68 23.53
69 69.62
70 83.99
71 16.08
73 2.16
81 2.98
82 17.2
83 51.53
84 35.37
85 6.85
96 3.2
97 22.26
98 11.17
99 1.34
110 1.12
111 9.75
112 16.01
113 1.49
140 1.49

$$$$

     RDKit          2D

 10  9  0  0  0  0  0  0  0  0999 V2000
   -8.4437    5.6250    0.0000 C   0  0  0  0  0  0  0  0  0  0  0  0
   -7.1447    4.8750    0.0000 C   0  0  0  0  0  0  0  0  0  0  0  0
   -5.8457    5.6250    0.0000 C   0  0  0  0  0  0  0  0  0  0  0  0
   -4.5466    4.8750    0.0000 C   0  0  0  0  0  0  0  0  0  0  0  0
   -3.2476    5.6250    0.0000 C   0  0  0  0  0  0  0  0  0  0  0  0
   -1.9486    4.8750    0.0000 C   0  0  0  0  0  0  0  0  0  0  0  0
   -0.6495    5.6250    0.0000 C   0  0  0  0  0  0  0  0  0  0  0  0
    0.6495    4.8750    0.0000 C   0  0  0  0  0  0  0  0  0  0  0  0
    1.9486    5.6250    0.0000 C   0  0  0  0  0  0  0  0  0  0  0  0
    3.2476    4.8750    0.0000 O   0  0  0  0  0  0  0  0  0  0  0  0
  2  1  1  0
  3  2  1  0
  4  3  1  0
  5  4  1  0
  6  5  1  0
  7  6  1  0
  8  7  1  0
  9  8  1  0
 10  9  1  0
M  END
>  <NAME>  (6649) 
1-NONANOL

>  <SYNONYMS>  (6649) 
NONYL ALCOHOL

>  <SPECTRUM TYPE>  (6649) 
MS1

>  <INSTRUMENT TYPE>  (6649) 
EI-B

>  <INSTRUMENT>  (6649) 
HITACHI RMU-7M

>  <ION MODE>  (6649) 
P

>  <INCHIKEY>  (6649) 
ZWRUINPWMLAQRD-UHFFFAOYSA-N

>  <FORMULA>  (6649) 
C9H20O

>  <EXACT MASS>  (6649) 
144.15141526

>  <MW>  (6649) 
144

>  <ID>  (6649) 
JP001330

>  <CONTRIBUTOR>  (6649) 
University of Tokyo Team, {Faculty of Engineering, University of Tokyo

>  <COMMENT>  (6649) 
SMILES=CCCCCCCCCO
InChI=InChI=1S/C9H20O/c1-2-3-4-5-6-7-8-9-10/h10H,2-9H2,1H3
computed SMILES=OCCCCCCCCC
accession=JP001330
date=2016.01.19 (Created 2008.10.21, modified 2011.05.06)
author=TAJIMA S, GUNMA COLLEGE OF TECHNOLOGY
license=CC BY-NC-SA
exact mass=144.15142
ionization energy=70 eV
ion type=[M]+*
computed spectral entropy=2.934042734960771
computed normalized entropy=0.8320314143943455
SPLASH=splash10-0a4l-9000000000-2648d772854ff5198870
submitter=submitter = University of Tokyo Team (Faculty of Engineering, University of Tokyo)
MoNA Rating=3.75

>  <NUM PEAKS>  (6649) 
34

>  <MASS SPECTRAL PEAKS>  (6649) 
18 2.66
27 18.12
28 5.59
29 32.77
31 18.94
39 13.08
40 2.79
41 74.18
42 36.78
43 77.79
44 4.9
45 2.72
53 3.61
54 6.54
55 86.1
56 99.99
57 36.38
58 1.5
67 5.99
68 18.19
69 58.65
70 67.85
71 11.92
73 1.98
81 1.5
82 8.51
83 28.81
84 22.75
85 3.68
96 2.04
97 18.46
98 22.75
99 1.84
126 1.29

$$$$

     RDKit          2D

  8  7  0  0  0  0  0  0  0  0999 V2000
   -6.4952    4.5000    0.0000 C   0  0  0  0  0  0  0  0  0  0  0  0
   -5.1962    3.7500    0.0000 C   0  0  0  0  0  0  0  0  0  0  0  0
   -3.8971    4.5000    0.0000 C   0  0  0  0  0  0  0  0  0  0  0  0
   -2.5981    3.7500    0.0000 C   0  0  0  0  0  0  0  0  0  0  0  0
   -1.2990    4.5000    0.0000 C   0  0  0  0  0  0  0  0  0  0  0  0
    0.0000    3.7500    0.0000 C   0  0  0  0  0  0  0  0  0  0  0  0
    1.2990    4.5000    0.0000 C   0  0  0  0  0  0  0  0  0  0  0  0
    2.5981    3.7500    0.0000 O   0  0  0  0  0  0  0  0  0  0  0  0
  2  1  1  0
  3  2  1  0
  4  3  1  0
  5  4  1  0
  6  5  1  0
  7  6  1  0
  8  7  1  0
M  END
>  <NAME>  (6650) 
1-HEPTANOL

>  <SYNONYMS>  (6650) 
HEPTYL ALCOHOL

>  <SPECTRUM TYPE>  (6650) 
MS1

>  <INSTRUMENT TYPE>  (6650) 
EI-B

>  <INSTRUMENT>  (6650) 
HITACHI RMU-7M

>  <ION MODE>  (6650) 
P

>  <INCHIKEY>  (6650) 
BBMCTIGTTCKYKF-UHFFFAOYSA-N

>  <FORMULA>  (6650) 
C7H16O

>  <EXACT MASS>  (6650) 
116.120115132

>  <MW>  (6650) 
116

>  <ID>  (6650) 
JP001329

>  <CONTRIBUTOR>  (6650) 
University of Tokyo Team, {Faculty of Engineering, University of Tokyo

>  <COMMENT>  (6650) 
SMILES=CCCCCCCO
InChI=InChI=1S/C7H16O/c1-2-3-4-5-6-7-8/h8H,2-7H2,1H3
computed SMILES=OCCCCCCC
accession=JP001329
date=2016.01.19 (Created 2008.10.21, modified 2011.05.06)
author=TAJIMA S, GUNMA COLLEGE OF TECHNOLOGY
license=CC BY-NC-SA
exact mass=116.12012
ionization energy=70 eV
ion type=[M]+*
computed spectral entropy=2.5939110239704903
computed normalized entropy=0.8058437681660802
SPLASH=splash10-0006-9000000000-d5f79579e8c1fb0a32e5
submitter=submitter = University of Tokyo Team (Faculty of Engineering, University of Tokyo)
MoNA Rating=3.75

>  <NUM PEAKS>  (6650) 
25

>  <MASS SPECTRAL PEAKS>  (6650) 
15 1.25
18 3.9
26 2.02
27 38.97
28 13.22
29 52.89
30 1.25
31 43.22
39 25.47
40 4.8
41 99.99
42 55.53
43 70.98
44 6.61
45 3.41
53 2.64
54 2.3
55 27.77
56 27.28
57 8.35
68 2.92
69 11.27
70 20.39
71 1.32
83 1.74

$$$$

     RDKit          2D

 20 20  0  0  0  0  0  0  0  0999 V2000
   -2.9381    6.9356    0.0000 C   0  0  0  0  0  0  0  0  0  0  0  0
   -4.2334    4.6835    0.0000 C   0  0  0  0  0  0  0  0  0  0  0  0
    7.4651    0.9410    0.0000 C   0  0  0  0  0  0  0  0  0  0  0  0
    6.1664   -1.3092    0.0000 C   0  0  0  0  0  0  0  0  0  0  0  0
   -1.6200   -1.3100    0.0000 C   0  0  0  0  0  0  0  0  0  0  0  0
   -0.3300   -2.0600    0.0000 C   0  0  0  0  0  0  0  0  0  0  0  0
   -1.6200    0.1900    0.0000 C   0  0  0  0  0  0  0  0  0  0  0  0
    0.9700   -1.3100    0.0000 C   0  0  0  0  0  0  0  0  0  0  0  0
   -1.6353    4.6878    0.0000 C   0  0  0  0  0  0  0  0  0  0  0  0
    4.8670    0.9406    0.0000 C   0  0  0  0  0  0  0  0  0  0  0  0
   -2.9356    5.4356    0.0000 C   0  0  0  0  0  0  0  0  0  0  0  0
    6.1662    0.1908    0.0000 C   0  0  0  0  0  0  0  0  0  0  0  0
   -0.3300    0.9400    0.0000 C   0  0  0  0  0  0  0  0  0  0  0  0
    0.9700    0.1900    0.0000 C   0  0  0  0  0  0  0  0  0  0  0  0
   -0.3325    2.4400    0.0000 C   0  0  0  0  0  0  0  0  0  0  0  0
    2.2689    0.9402    0.0000 C   0  0  0  0  0  0  0  0  0  0  0  0
    0.9653    3.1922    0.0000 O   0  0  0  0  0  0  0  0  0  0  0  0
    2.2687    2.4402    0.0000 O   0  0  0  0  0  0  0  0  0  0  0  0
   -1.6328    3.1878    0.0000 O   0  0  0  0  0  0  0  0  0  0  0  0
    3.5681    0.1904    0.0000 O   0  0  0  0  0  0  0  0  0  0  0  0
  6  5  2  0
  7  5  1  0
  8  6  1  0
 11  1  1  0
 11  2  1  0
 11  9  1  0
 12  3  1  0
 12  4  1  0
 12 10  1  0
 13  7  2  0
 14  8  2  0
 14 13  1  0
 15 13  1  0
 16 14  1  0
 17 15  2  0
 18 16  2  0
 19  9  1  0
 19 15  1  0
 20 10  1  0
 20 16  1  0
M  END
>  <NAME>  (6651) 
DIISOBUTYL PHTHALATE

>  <SYNONYMS>  (6651) 
PHTHALIC ACID DIISOBUTYL ESTER

>  <SPECTRUM TYPE>  (6651) 
MS1

>  <INSTRUMENT TYPE>  (6651) 
EI-B

>  <INSTRUMENT>  (6651) 
HITACHI RMU-7M

>  <ION MODE>  (6651) 
P

>  <INCHIKEY>  (6651) 
MGWAVDBGNNKXQV-UHFFFAOYSA-N

>  <FORMULA>  (6651) 
C16H22O4

>  <EXACT MASS>  (6651) 
278.151809184

>  <MW>  (6651) 
278

>  <ID>  (6651) 
JP001328

>  <CONTRIBUTOR>  (6651) 
University of Tokyo Team, {Faculty of Engineering, University of Tokyo

>  <COMMENT>  (6651) 
SMILES=CC(C)COC(=O)c(c1)c(ccc1)C(=O)OCC(C)C
InChI=InChI=1S/C16H22O4/c1-11(2)9-19-15(17)13-7-5-6-8-14(13)16(18)20-10-12(3)4/h5-8,11-12H,9-10H2,1-4H3
computed SMILES=O=C(OCC(C)C)C=1C=CC=CC1C(=O)OCC(C)C
accession=JP001328
date=2016.01.19 (Created 2008.10.21, modified 2011.05.06)
author=TAJIMA S, GUNMA COLLEGE OF TECHNOLOGY
license=CC BY-NC-SA
exact mass=278.15181
ionization energy=70 eV
ion type=[M]+*
computed spectral entropy=1.5473212745383393
computed normalized entropy=0.5713783569848744
SPLASH=splash10-0002-2900000000-abec18892ce4da3756e0
submitter=submitter = University of Tokyo Team (Faculty of Engineering, University of Tokyo)
MoNA Rating=3.75

>  <NUM PEAKS>  (6651) 
15

>  <MASS SPECTRAL PEAKS>  (6651) 
29 2.74
41 6.13
56 2.74
57 14.51
65 1.75
76 3.61
93 2.35
104 5.15
105 1.37
121 2.68
149 99.99
150 8.87
167 3.67
205 1.59
223 2.25

$$$$

     RDKit          2D

 10 10  0  0  0  0  0  0  0  0999 V2000
   -1.6700   -0.9600    0.0000 C   0  0  0  0  0  0  0  0  0  0  0  0
   -0.3700   -1.7100    0.0000 C   0  0  0  0  0  0  0  0  0  0  0  0
   -1.6700    0.5400    0.0000 C   0  0  0  0  0  0  0  0  0  0  0  0
    0.9300   -0.9600    0.0000 C   0  0  0  0  0  0  0  0  0  0  0  0
   -0.3700    1.2900    0.0000 C   0  0  0  0  0  0  0  0  0  0  0  0
    0.9300    0.5400    0.0000 C   0  0  0  0  0  0  0  0  0  0  0  0
    2.9791   -0.0087    0.0000 Cl  0  0  0  0  0  0  0  0  0  0  0  0
    3.5278    2.0404    0.0000 O   0  0  0  0  0  0  0  0  0  0  0  0
    1.4787    2.5891    0.0000 O   0  0  0  0  0  0  0  0  0  0  0  0
    2.2289    1.2902    0.0000 S   0  0  0  0  0  0  0  0  0  0  0  0
  2  1  2  0
  3  1  1  0
  4  2  1  0
  5  3  2  0
  6  4  2  0
  6  5  1  0
 10  6  1  0
 10  7  1  0
 10  8  2  0
 10  9  2  0
M  END
>  <NAME>  (6652) 
BENZENESULFONYL CHLORIDE

>  <SYNONYMS>  (6652) 


>  <SPECTRUM TYPE>  (6652) 
MS1

>  <INSTRUMENT TYPE>  (6652) 
EI-B

>  <INSTRUMENT>  (6652) 
HITACHI RMU-7M

>  <ION MODE>  (6652) 
P

>  <INCHIKEY>  (6652) 
CSKNSYBAZOQPLR-UHFFFAOYSA-N

>  <FORMULA>  (6652) 
C6H5ClO2S

>  <EXACT MASS>  (6652) 
175.96987808

>  <MW>  (6652) 
176

>  <ID>  (6652) 
JP001327

>  <CONTRIBUTOR>  (6652) 
University of Tokyo Team, {Faculty of Engineering, University of Tokyo

>  <COMMENT>  (6652) 
SMILES=c(c1)ccc(c1)S(=O)(=O)Cl
InChI=InChI=1S/C6H5ClO2S/c7-10(8,9)6-4-2-1-3-5-6/h1-5H
computed SMILES=O=S(=O)(Cl)C=1C=CC=CC1
accession=JP001327
date=2016.01.19 (Created 2008.10.21, modified 2011.05.06)
author=TAJIMA S, GUNMA COLLEGE OF TECHNOLOGY
license=CC BY-NC-SA
exact mass=175.96988
ionization energy=70 eV
ion type=[M]+*
computed spectral entropy=1.9093002889920905
computed normalized entropy=0.6484428111777703
SPLASH=splash10-004i-9200000000-65e45e0abad3c984d30c
submitter=submitter = University of Tokyo Team (Faculty of Engineering, University of Tokyo)
MoNA Rating=3.75

>  <NUM PEAKS>  (6652) 
19

>  <MASS SPECTRAL PEAKS>  (6652) 
27 1.14
36 5.4
38 2.58
39 2.74
50 11.02
51 28.42
52 1.14
64 1.67
65 1.44
74 2.89
75 1.67
76 1.9
77 99.99
78 7.75
141 36.09
142 2.66
143 1.44
176 8.74
178 2.89

$$$$

     RDKit          2D

 11 12  0  0  0  0  0  0  0  0999 V2000
   -2.7200   -1.0200    0.0000 C   0  0  0  0  0  0  0  0  0  0  0  0
   -2.7200    0.4800    0.0000 C   0  0  0  0  0  0  0  0  0  0  0  0
    2.4800   -1.0200    0.0000 C   0  0  0  0  0  0  0  0  0  0  0  0
   -1.4200   -1.7700    0.0000 C   0  0  0  0  0  0  0  0  0  0  0  0
    1.1800   -1.7700    0.0000 C   0  0  0  0  0  0  0  0  0  0  0  0
   -1.4200    1.2300    0.0000 C   0  0  0  0  0  0  0  0  0  0  0  0
    2.4800    0.4800    0.0000 C   0  0  0  0  0  0  0  0  0  0  0  0
   -0.1200   -1.0200    0.0000 C   0  0  0  0  0  0  0  0  0  0  0  0
   -0.1200    0.4800    0.0000 C   0  0  0  0  0  0  0  0  0  0  0  0
    1.1800    1.2300    0.0000 C   0  0  0  0  0  0  0  0  0  0  0  0
    1.1800    2.7300    0.0000 N   0  0  0  0  0  0  0  0  0  0  0  0
  2  1  2  0
  4  1  1  0
  5  3  2  0
  6  2  1  0
  7  3  1  0
  8  4  2  0
  8  5  1  0
  9  6  2  0
  9  8  1  0
 10  7  2  0
 10  9  1  0
 11 10  1  0
M  END
>  <NAME>  (6653) 
1-NAPHTHYLAMINE

>  <SYNONYMS>  (6653) 
1-AMINONAPHTHALENE

>  <SPECTRUM TYPE>  (6653) 
MS1

>  <INSTRUMENT TYPE>  (6653) 
EI-B

>  <INSTRUMENT>  (6653) 
HITACHI RMU-7M

>  <ION MODE>  (6653) 
P

>  <INCHIKEY>  (6653) 
RUFPHBVGCFYCNW-UHFFFAOYSA-N

>  <FORMULA>  (6653) 
C10H9N

>  <EXACT MASS>  (6653) 
143.073499288

>  <MW>  (6653) 
143

>  <ID>  (6653) 
JP001326

>  <CONTRIBUTOR>  (6653) 
University of Tokyo Team, {Faculty of Engineering, University of Tokyo

>  <COMMENT>  (6653) 
SMILES=Nc(c1)c(c2)c(ccc2)cc1
InChI=InChI=1S/C10H9N/c11-10-7-3-5-8-4-1-2-6-9(8)10/h1-7H,11H2
computed SMILES=NC1=CC=CC=2C=CC=CC12
accession=JP001326
date=2016.01.19 (Created 2008.10.21, modified 2011.05.06)
author=TAJIMA S, GUNMA COLLEGE OF TECHNOLOGY
license=CC BY-NC-SA
exact mass=143.0735
ionization energy=70 eV
ion type=[M]+*
computed spectral entropy=2.137616635235923
computed normalized entropy=0.6348169995044687
SPLASH=splash10-0006-1900000000-580592994b0603f7b390
submitter=submitter = University of Tokyo Team (Faculty of Engineering, University of Tokyo)
MoNA Rating=3.75

>  <NUM PEAKS>  (6653) 
29

>  <MASS SPECTRAL PEAKS>  (6653) 
18 1.81
28 1.19
39 2.33
50 1.04
51 1.5
57.5 1.55
58.5 3.37
62 1.09
63 3.37
65 1.76
70.5 4.15
71.5 7.51
77 1.09
89 3.89
107 1.3
108 1.3
113 1.3
114 2.44
115 35.65
116 19.64
117 3.11
120 1.97
126 1.09
137 1
140 1.81
141 1.14
142 4.97
143 99.99
144 10.67

$$$$

     RDKit          2D

 20 20  0  0  0  0  0  0  0  0999 V2000
   -5.1970   -1.5006    0.0000 C   0  0  0  0  0  0  0  0  0  0  0  0
   -5.9472   -0.2017    0.0000 H   0  0  0  0  0  0  0  0  0  0  0  0
   -6.4959   -2.2508    0.0000 H   0  0  0  0  0  0  0  0  0  0  0  0
   -4.4468   -2.7995    0.0000 H   0  0  0  0  0  0  0  0  0  0  0  0
    5.1970    1.5006    0.0000 C   0  0  0  0  0  0  0  0  0  0  0  0
    5.9472    0.2017    0.0000 H   0  0  0  0  0  0  0  0  0  0  0  0
    6.4959    2.2508    0.0000 H   0  0  0  0  0  0  0  0  0  0  0  0
    4.4468    2.7995    0.0000 H   0  0  0  0  0  0  0  0  0  0  0  0
   -1.3000    0.7500    0.0000 C   0  0  0  0  0  0  0  0  0  0  0  0
   -0.0000   -1.5000    0.0000 C   0  0  0  0  0  0  0  0  0  0  0  0
    0.0000    1.5000    0.0000 C   0  0  0  0  0  0  0  0  0  0  0  0
    1.3000   -0.7500    0.0000 C   0  0  0  0  0  0  0  0  0  0  0  0
   -1.3000   -0.7500    0.0000 C   0  0  0  0  0  0  0  0  0  0  0  0
    1.3000    0.7500    0.0000 C   0  0  0  0  0  0  0  0  0  0  0  0
   -2.5989   -1.5002    0.0000 C   0  0  0  0  0  0  0  0  0  0  0  0
    2.5989    1.5002    0.0000 C   0  0  0  0  0  0  0  0  0  0  0  0
   -2.5987   -3.0002    0.0000 O   0  0  0  0  0  0  0  0  0  0  0  0
    2.5987    3.0002    0.0000 O   0  0  0  0  0  0  0  0  0  0  0  0
   -3.8981   -0.7504    0.0000 O   0  0  0  0  0  0  0  0  0  0  0  0
    3.8981    0.7504    0.0000 O   0  0  0  0  0  0  0  0  0  0  0  0
  1  2  1  0
  1  3  1  0
  1  4  1  0
  5  6  1  0
  5  7  1  0
  5  8  1  0
 11  9  2  0
 12 10  1  0
 13  9  1  0
 13 10  2  0
 14 11  1  0
 14 12  2  0
 15 13  1  0
 16 14  1  0
 17 15  2  0
 18 16  2  0
 19  1  1  0
 19 15  1  0
 20  5  1  0
 20 16  1  0
M  ISO  6   2   2   3   2   4   2   6   2   7   2   8   2
M  END
>  <NAME>  (6654) 
TEREPHTHALIC ACID DIMETHYL ESTER (D6)

>  <SYNONYMS>  (6654) 
DI(2H3)METHYL TEREPHTHALATE

>  <SPECTRUM TYPE>  (6654) 
MS1

>  <INSTRUMENT TYPE>  (6654) 
EI-B

>  <INSTRUMENT>  (6654) 
HITACHI RMU-7M

>  <ION MODE>  (6654) 
P

>  <INCHIKEY>  (6654) 
WOZVHXUHUFLZGK-WFGJKAKNSA-N

>  <FORMULA>  (6654) 
C10H10O4

>  <EXACT MASS>  (6654) 
200.095569276

>  <MW>  (6654) 
200

>  <ID>  (6654) 
JP001325

>  <CONTRIBUTOR>  (6654) 
University of Tokyo Team, {Faculty of Engineering, University of Tokyo

>  <COMMENT>  (6654) 
SMILES=[2H]C([2H])([2H])OC(=O)c(c1)ccc(c1)C(=O)OC([2H])([2H])[2H]
InChI=InChI=1S/C10H10O4/c1-13-9(11)7-3-5-8(6-4-7)10(12)14-2/h3-6H,1-2H3/i1D3,2D3
computed SMILES=[H]C([H])([H])OC(=O)C1=CC=C(C=C1)C(=O)OC([H])([H])[H]
date=2016.01.19 (Created 2008.10.21, modified 2011.05.06)
accession=JP001325
author=TAJIMA S, GUNMA COLLEGE OF TECHNOLOGY
license=CC BY-NC-SA
exact mass=194.05791
ionization energy=70 eV
ion type=[M]+*
computed spectral entropy=2.182682524929932
computed normalized entropy=0.7061315261323957
SPLASH=splash10-014i-2910000000-b66dc699681b5861f86b
submitter=submitter = University of Tokyo Team (Faculty of Engineering, University of Tokyo)
MoNA Rating=3.75

>  <NUM PEAKS>  (6654) 
22

>  <MASS SPECTRAL PEAKS>  (6654) 
18 5.06
50 8.43
52 1.97
62 1.46
66 1.63
74 3.2
75 7.36
76 8.99
78 3.03
92 2.25
103 12.42
104 5.51
119 3.09
120 5.28
138 20.79
139 1.46
165 1.35
166 99.99
167 9.49
182 1.12
200 23.48
201 2.25

$$$$

     RDKit          2D

 20 20  0  0  0  0  0  0  0  0999 V2000
    5.9253    0.6258    0.0000 C   0  0  0  0  0  0  0  0  0  0  0  0
    5.1775   -0.6745    0.0000 H   0  0  0  0  0  0  0  0  0  0  0  0
    7.2256   -0.1220    0.0000 H   0  0  0  0  0  0  0  0  0  0  0  0
    6.6732    1.9261    0.0000 H   0  0  0  0  0  0  0  0  0  0  0  0
   -4.4688    0.6191    0.0000 C   0  0  0  0  0  0  0  0  0  0  0  0
   -5.2186    1.9182    0.0000 H   0  0  0  0  0  0  0  0  0  0  0  0
   -5.7680   -0.1307    0.0000 H   0  0  0  0  0  0  0  0  0  0  0  0
   -3.7190   -0.6801    0.0000 H   0  0  0  0  0  0  0  0  0  0  0  0
    0.7234    3.6115    0.0000 C   0  0  0  0  0  0  0  0  0  0  0  0
    2.0225    2.8615    0.0000 C   0  0  0  0  0  0  0  0  0  0  0  0
   -0.5711    2.8693    0.0000 C   0  0  0  0  0  0  0  0  0  0  0  0
    0.7275    0.6184    0.0000 C   0  0  0  0  0  0  0  0  0  0  0  0
    2.0270    1.3693    0.0000 C   0  0  0  0  0  0  0  0  0  0  0  0
   -0.5716    1.3684    0.0000 C   0  0  0  0  0  0  0  0  0  0  0  0
    3.3273    0.6215    0.0000 C   0  0  0  0  0  0  0  0  0  0  0  0
   -1.8707    0.6187    0.0000 C   0  0  0  0  0  0  0  0  0  0  0  0
    3.3298   -0.8785    0.0000 O   0  0  0  0  0  0  0  0  0  0  0  0
   -1.8710   -0.8813    0.0000 O   0  0  0  0  0  0  0  0  0  0  0  0
    4.6250    1.3736    0.0000 O   0  0  0  0  0  0  0  0  0  0  0  0
   -3.1697    1.3689    0.0000 O   0  0  0  0  0  0  0  0  0  0  0  0
  1  2  1  0
  1  3  1  0
  1  4  1  0
  5  6  1  0
  5  7  1  0
  5  8  1  0
 10  9  2  0
 11  9  1  0
 13 10  1  0
 13 12  2  0
 14 11  2  0
 14 12  1  0
 15 13  1  0
 16 14  1  0
 17 15  2  0
 18 16  2  0
 19  1  1  0
 19 15  1  0
 20  5  1  0
 20 16  1  0
M  ISO  6   2   2   3   2   4   2   6   2   7   2   8   2
M  END
>  <NAME>  (6655) 
ISOPHTHALIC ACID DIMETHYL ESTER (D6)

>  <SYNONYMS>  (6655) 
DI(2H3)METHYL ISOPHTHALATE

>  <SPECTRUM TYPE>  (6655) 
MS1

>  <INSTRUMENT TYPE>  (6655) 
EI-B

>  <INSTRUMENT>  (6655) 
HITACHI RMU-7M

>  <ION MODE>  (6655) 
P

>  <INCHIKEY>  (6655) 
VNGOYPQMJFJDLV-WFGJKAKNSA-N

>  <FORMULA>  (6655) 
C10H10O4

>  <EXACT MASS>  (6655) 
200.095569276

>  <MW>  (6655) 
200

>  <ID>  (6655) 
JP001324

>  <CONTRIBUTOR>  (6655) 
University of Tokyo Team, {Faculty of Engineering, University of Tokyo

>  <COMMENT>  (6655) 
SMILES=[2H]C([2H])([2H])OC(=O)c(c1)cc(cc1)C(=O)OC([2H])([2H])[2H]
InChI=InChI=1S/C10H10O4/c1-13-9(11)7-4-3-5-8(6-7)10(12)14-2/h3-6H,1-2H3/i1D3,2D3
computed SMILES=[H]C([H])([H])OC(=O)C1=CC=CC(=C1)C(=O)OC([H])([H])[H]
accession=JP001324
date=2016.01.19 (Created 2008.10.21, modified 2011.05.06)
author=TAJIMA S, GUNMA COLLEGE OF TECHNOLOGY
license=CC BY-NC-SA
exact mass=194.05791
ionization energy=70 eV
ion type=[M]+*
computed spectral entropy=2.3691655915010075
computed normalized entropy=0.7271624900776302
SPLASH=splash10-014i-3910000000-0b4b1e1dc8c57a2d19ce
submitter=submitter = University of Tokyo Team (Faculty of Engineering, University of Tokyo)
MoNA Rating=3.75

>  <NUM PEAKS>  (6655) 
26

>  <MASS SPECTRAL PEAKS>  (6655) 
18 5.26
50 9.87
51 1.05
52 2.63
62 1.46
66 2.34
74 3.8
75 9.29
76 13.49
77 1.69
78 5.2
79 1.23
92 3.15
103 10.22
104 3.56
110 2.28
119 5.26
120 7.3
138 29.26
139 2.39
165 1.29
166 99.99
167 9.81
199 1.4
200 22.14
201 1.93

$$$$

     RDKit          2D

 20 20  0  0  0  0  0  0  0  0999 V2000
   -1.6353    4.6878    0.0000 C   0  0  0  0  0  0  0  0  0  0  0  0
   -0.1353    4.6903    0.0000 H   0  0  0  0  0  0  0  0  0  0  0  0
   -1.6378    6.1878    0.0000 H   0  0  0  0  0  0  0  0  0  0  0  0
   -3.1353    4.6853    0.0000 H   0  0  0  0  0  0  0  0  0  0  0  0
    4.8670    0.9406    0.0000 C   0  0  0  0  0  0  0  0  0  0  0  0
    5.6172   -0.3583    0.0000 H   0  0  0  0  0  0  0  0  0  0  0  0
    6.1659    1.6908    0.0000 H   0  0  0  0  0  0  0  0  0  0  0  0
    4.1168    2.2395    0.0000 H   0  0  0  0  0  0  0  0  0  0  0  0
   -1.6200   -1.3100    0.0000 C   0  0  0  0  0  0  0  0  0  0  0  0
   -0.3300   -2.0600    0.0000 C   0  0  0  0  0  0  0  0  0  0  0  0
   -1.6200    0.1900    0.0000 C   0  0  0  0  0  0  0  0  0  0  0  0
    0.9700   -1.3100    0.0000 C   0  0  0  0  0  0  0  0  0  0  0  0
   -0.3300    0.9400    0.0000 C   0  0  0  0  0  0  0  0  0  0  0  0
    0.9700    0.1900    0.0000 C   0  0  0  0  0  0  0  0  0  0  0  0
   -0.3325    2.4400    0.0000 C   0  0  0  0  0  0  0  0  0  0  0  0
    2.2689    0.9402    0.0000 C   0  0  0  0  0  0  0  0  0  0  0  0
    0.9653    3.1922    0.0000 O   0  0  0  0  0  0  0  0  0  0  0  0
    2.2687    2.4402    0.0000 O   0  0  0  0  0  0  0  0  0  0  0  0
   -1.6328    3.1878    0.0000 O   0  0  0  0  0  0  0  0  0  0  0  0
    3.5681    0.1904    0.0000 O   0  0  0  0  0  0  0  0  0  0  0  0
  1  2  1  0
  1  3  1  0
  1  4  1  0
  5  6  1  0
  5  7  1  0
  5  8  1  0
 10  9  2  0
 11  9  1  0
 12 10  1  0
 13 11  2  0
 14 12  2  0
 14 13  1  0
 15 13  1  0
 16 14  1  0
 17 15  2  0
 18 16  2  0
 19  1  1  0
 19 15  1  0
 20  5  1  0
 20 16  1  0
M  ISO  6   2   2   3   2   4   2   6   2   7   2   8   2
M  END
>  <NAME>  (6656) 
PHTHALIC ACID DIMETHYL ESTER (D6)

>  <SYNONYMS>  (6656) 
DI(2H3)METHYL PHTHALATE

>  <SPECTRUM TYPE>  (6656) 
MS1

>  <INSTRUMENT TYPE>  (6656) 
EI-B

>  <INSTRUMENT>  (6656) 
HITACHI RMU-7M

>  <ION MODE>  (6656) 
P

>  <INCHIKEY>  (6656) 
NIQCNGHVCWTJSM-WFGJKAKNSA-N

>  <FORMULA>  (6656) 
C10H10O4

>  <EXACT MASS>  (6656) 
200.095569276

>  <MW>  (6656) 
200

>  <ID>  (6656) 
JP001323

>  <CONTRIBUTOR>  (6656) 
University of Tokyo Team, {Faculty of Engineering, University of Tokyo

>  <COMMENT>  (6656) 
SMILES=[2H]C([2H])([2H])OC(=O)c(c1)c(ccc1)C(=O)OC([2H])([2H])[2H]
InChI=InChI=1S/C10H10O4/c1-13-9(11)7-5-3-4-6-8(7)10(12)14-2/h3-6H,1-2H3/i1D3,2D3
computed SMILES=[H]C([H])([H])OC(=O)C=1C=CC=CC1C(=O)OC([H])([H])[H]
accession=JP001323
date=2016.01.19 (Created 2008.10.21, modified 2011.05.06)
author=TAJIMA S, GUNMA COLLEGE OF TECHNOLOGY
license=CC BY-NC-SA
exact mass=194.05791
ionization energy=70 eV
ion type=[M]+*
computed spectral entropy=2.0074792552579845
computed normalized entropy=0.6316693682429533
SPLASH=splash10-014i-4900000000-8f6b7990a7ff0c457426
submitter=submitter = University of Tokyo Team (Faculty of Engineering, University of Tokyo)
MoNA Rating=3.75

>  <NUM PEAKS>  (6656) 
24

>  <MASS SPECTRAL PEAKS>  (6656) 
18 4.38
28 2.46
31 1.64
32 1.31
50 6.13
52 1.15
64 1.7
74 1.64
75 1.7
76 6.3
77 1.1
78 18.07
79 1.42
82 1.37
92 7.12
104 2.46
106 1.37
120 1.1
134 3.89
138 7.72
165 1.1
166 99.99
167 9.42
200 6.79

$$$$

     RDKit          2D

  8  8  0  0  0  0  0  0  0  0999 V2000
   -2.6070    1.5036    0.0000 C   0  0  0  0  0  0  0  0  0  0  0  0
   -0.0127    1.4972    0.0000 C   0  0  0  0  0  0  0  0  0  0  0  0
   -1.3262   -0.7277    0.0000 C   0  0  0  0  0  0  0  0  0  0  0  0
    1.2718    0.7723    0.0000 C   0  0  0  0  0  0  0  0  0  0  0  0
   -0.0017   -1.5218    0.0000 C   0  0  0  0  0  0  0  0  0  0  0  0
   -1.3117    0.7472    0.0000 C   0  0  0  0  0  0  0  0  0  0  0  0
    1.2973   -0.7718    0.0000 C   0  0  0  0  0  0  0  0  0  0  0  0
    2.6025   -1.5111    0.0000 O   0  0  0  0  0  0  0  0  0  0  0  0
  4  2  2  0
  5  3  1  0
  6  1  1  0
  6  2  1  0
  6  3  2  0
  7  4  1  0
  7  5  2  0
  8  7  1  0
M  END
>  <NAME>  (6657) 
PARA-CRESOL

>  <SYNONYMS>  (6657) 


>  <SPECTRUM TYPE>  (6657) 
MS1

>  <INSTRUMENT TYPE>  (6657) 
EI-B

>  <INSTRUMENT>  (6657) 
HITACHI RMU-7M

>  <ION MODE>  (6657) 
P

>  <INCHIKEY>  (6657) 
IWDCLRJOBJJRNH-UHFFFAOYSA-N

>  <FORMULA>  (6657) 
C7H8O

>  <EXACT MASS>  (6657) 
108.057514876

>  <MW>  (6657) 
108

>  <ID>  (6657) 
JP001322

>  <CONTRIBUTOR>  (6657) 
University of Tokyo Team, {Faculty of Engineering, University of Tokyo

>  <COMMENT>  (6657) 
SMILES=Cc(c1)ccc(O)c1
InChI=InChI=1S/C7H8O/c1-6-2-4-7(8)5-3-6/h2-5,8H,1H3
computed SMILES=OC1=CC=C(C=C1)C
accession=JP001322
date=2016.01.19 (Created 2008.10.21, modified 2011.05.06)
author=TAJIMA S, GUNMA COLLEGE OF TECHNOLOGY
license=CC BY-NC-SA
exact mass=108.05751
ionization energy=70 eV
ion type=[M]+*
computed spectral entropy=2.207380674125879
computed normalized entropy=0.6945699449918399
SPLASH=splash10-0a4i-5900000000-b76093f53701327ab25f
submitter=submitter = University of Tokyo Team (Faculty of Engineering, University of Tokyo)
MoNA Rating=3.75

>  <NUM PEAKS>  (6657) 
24

>  <MASS SPECTRAL PEAKS>  (6657) 
27 5.72
38 1.91
39 8.51
41 1.02
50 5.04
51 8.86
52 4.09
53 8.24
54 3.68
55 2.38
62 1.29
63 3.41
65 2.04
77 20.78
78 4.5
79 16.35
80 6.74
81 1.23
89 1.57
90 8.11
91 3.88
107 99.99
108 87.6
109 6.06

$$$$

     RDKit          2D

 13 13  0  0  0  0  0  0  0  0999 V2000
   -7.7951    1.5010    0.0000 C   0  0  0  0  0  0  0  0  0  0  0  0
   -6.4962    0.7508    0.0000 C   0  0  0  0  0  0  0  0  0  0  0  0
   -1.3000   -0.7500    0.0000 C   0  0  0  0  0  0  0  0  0  0  0  0
    0.0000    1.5000    0.0000 C   0  0  0  0  0  0  0  0  0  0  0  0
    0.0000   -1.5000    0.0000 C   0  0  0  0  0  0  0  0  0  0  0  0
    1.3000    0.7500    0.0000 C   0  0  0  0  0  0  0  0  0  0  0  0
   -5.1970    1.5006    0.0000 C   0  0  0  0  0  0  0  0  0  0  0  0
   -1.3000    0.7500    0.0000 C   0  0  0  0  0  0  0  0  0  0  0  0
    1.3000   -0.7500    0.0000 C   0  0  0  0  0  0  0  0  0  0  0  0
   -2.5989    1.5002    0.0000 C   0  0  0  0  0  0  0  0  0  0  0  0
    2.5989   -1.5002    0.0000 N   0  0  0  0  0  0  0  0  0  0  0  0
   -2.5987    3.0002    0.0000 O   0  0  0  0  0  0  0  0  0  0  0  0
   -3.8981    0.7504    0.0000 O   0  0  0  0  0  0  0  0  0  0  0  0
  2  1  1  0
  5  3  2  0
  6  4  1  0
  7  2  1  0
  8  3  1  0
  8  4  2  0
  9  5  1  0
  9  6  2  0
 10  8  1  0
 11  9  1  0
 12 10  2  0
 13  7  1  0
 13 10  1  0
M  END
>  <NAME>  (6658) 
PARA-AMINOBENZOIC ACID PROPYL ESTER

>  <SYNONYMS>  (6658) 


>  <SPECTRUM TYPE>  (6658) 
MS1

>  <INSTRUMENT TYPE>  (6658) 
EI-B

>  <INSTRUMENT>  (6658) 
HITACHI RMU-7M

>  <ION MODE>  (6658) 
P

>  <INCHIKEY>  (6658) 
NBFQYHKHPBMJJV-UHFFFAOYSA-N

>  <FORMULA>  (6658) 
C10H13NO2

>  <EXACT MASS>  (6658) 
179.094628656

>  <MW>  (6658) 
179

>  <ID>  (6658) 
JP001321

>  <CONTRIBUTOR>  (6658) 
University of Tokyo Team, {Faculty of Engineering, University of Tokyo

>  <COMMENT>  (6658) 
SMILES=CCCOC(=O)c(c1)ccc(N)c1
InChI=InChI=1S/C10H13NO2/c1-2-7-13-10(12)8-3-5-9(11)6-4-8/h3-6H,2,7,11H2,1H3
computed SMILES=O=C(OCCC)C1=CC=C(N)C=C1
accession=JP001321
date=2016.01.19 (Created 2008.10.21, modified 2011.05.06)
author=TAJIMA S, GUNMA COLLEGE OF TECHNOLOGY
license=CC BY-NC-SA
exact mass=179.09463
ionization energy=70 eV
ion type=[M]+*
computed spectral entropy=2.0729368464626106
computed normalized entropy=0.6808742221038362
SPLASH=splash10-00di-3900000000-3fde0cf3b4d99f06e7f0
submitter=submitter = University of Tokyo Team (Faculty of Engineering, University of Tokyo)
MoNA Rating=3.75

>  <NUM PEAKS>  (6658) 
21

>  <MASS SPECTRAL PEAKS>  (6658) 
27 2.23
28 1.21
39 5.48
41 3.89
43 1.15
52 1.15
63 1.85
64 2.04
65 18.47
66 2.04
78 1.91
91 2.04
92 21.08
93 2.55
108 3.82
120 99.99
121 9.43
137 46.37
138 3.38
179 24.84
180 2.42

$$$$

     RDKit          2D

 15 16  0  0  0  0  0  0  0  0999 V2000
    3.8981    1.0699    0.0000 C   0  0  0  0  0  0  0  0  0  0  0  0
   -5.1959    4.8220    0.0000 C   0  0  0  0  0  0  0  0  0  0  0  0
    3.8986    2.5708    0.0000 C   0  0  0  0  0  0  0  0  0  0  0  0
    2.5986    0.3191    0.0000 C   0  0  0  0  0  0  0  0  0  0  0  0
   -3.8967    5.5718    0.0000 C   0  0  0  0  0  0  0  0  0  0  0  0
   -5.1956    3.3212    0.0000 C   0  0  0  0  0  0  0  0  0  0  0  0
    2.5995    3.3208    0.0000 C   0  0  0  0  0  0  0  0  0  0  0  0
    1.2995    1.0691    0.0000 C   0  0  0  0  0  0  0  0  0  0  0  0
   -2.5973    4.8208    0.0000 C   0  0  0  0  0  0  0  0  0  0  0  0
   -3.8962    2.5702    0.0000 C   0  0  0  0  0  0  0  0  0  0  0  0
    1.3000    2.5699    0.0000 C   0  0  0  0  0  0  0  0  0  0  0  0
   -2.5971    3.3199    0.0000 C   0  0  0  0  0  0  0  0  0  0  0  0
    0.0010    3.3199    0.0000 C   0  0  0  0  0  0  0  0  0  0  0  0
    0.0010    4.8199    0.0000 O   0  0  0  0  0  0  0  0  0  0  0  0
   -1.2980    2.5699    0.0000 O   0  0  0  0  0  0  0  0  0  0  0  0
  3  1  2  0
  4  1  1  0
  5  2  2  0
  6  2  1  0
  7  3  1  0
  8  4  2  0
  9  5  1  0
 10  6  2  0
 11  7  2  0
 11  8  1  0
 12  9  2  0
 12 10  1  0
 13 11  1  0
 14 13  2  0
 15 12  1  0
 15 13  1  0
M  END
>  <NAME>  (6659) 
BENZOIC ACID PHENYL ESTER

>  <SYNONYMS>  (6659) 
PHENYL BENZOATE

>  <SPECTRUM TYPE>  (6659) 
MS1

>  <INSTRUMENT TYPE>  (6659) 
EI-B

>  <INSTRUMENT>  (6659) 
HITACHI RMU-7M

>  <ION MODE>  (6659) 
P

>  <INCHIKEY>  (6659) 
FCJSHPDYVMKCHI-UHFFFAOYSA-N

>  <FORMULA>  (6659) 
C13H10O2

>  <EXACT MASS>  (6659) 
198.06807956

>  <MW>  (6659) 
198

>  <ID>  (6659) 
JP001320

>  <CONTRIBUTOR>  (6659) 
University of Tokyo Team, {Faculty of Engineering, University of Tokyo

>  <COMMENT>  (6659) 
SMILES=O=C(Oc(c2)cccc2)c(c1)cccc1
InChI=InChI=1S/C13H10O2/c14-13(11-7-3-1-4-8-11)15-12-9-5-2-6-10-12/h1-10H
computed SMILES=O=C(OC=1C=CC=CC1)C=2C=CC=CC2
accession=JP001320
date=2016.01.19 (Created 2008.10.21, modified 2011.05.06)
author=TAJIMA S, GUNMA COLLEGE OF TECHNOLOGY
license=CC BY-NC-SA
exact mass=198.06808
ionization energy=70 eV
ion type=[M]+*
computed spectral entropy=1.314541980362991
computed normalized entropy=0.59827383778706
SPLASH=splash10-0a4i-4900000000-09697e2a85fd3b637811
submitter=submitter = University of Tokyo Team (Faculty of Engineering, University of Tokyo)
MoNA Rating=3.75

>  <NUM PEAKS>  (6659) 
9

>  <MASS SPECTRAL PEAKS>  (6659) 
39 3.44
50 2.58
51 10.93
65 1.72
77 37.01
78 1.98
105 99.99
106 7.06
198 6.37

$$$$

     RDKit          2D

 12 11  0  0  0  0  0  0  0  0999 V2000
    3.2476    5.6250    0.0000 C   0  0  0  0  0  0  0  0  0  0  0  0
   -9.7428    5.6250    0.0000 C   0  0  0  0  0  0  0  0  0  0  0  0
    1.9486    6.3750    0.0000 C   0  0  0  0  0  0  0  0  0  0  0  0
    0.6495    5.6250    0.0000 C   0  0  0  0  0  0  0  0  0  0  0  0
   -0.6495    6.3750    0.0000 C   0  0  0  0  0  0  0  0  0  0  0  0
   -1.9486    5.6250    0.0000 C   0  0  0  0  0  0  0  0  0  0  0  0
   -3.2476    6.3750    0.0000 C   0  0  0  0  0  0  0  0  0  0  0  0
   -4.5466    5.6250    0.0000 C   0  0  0  0  0  0  0  0  0  0  0  0
   -5.8457    6.3750    0.0000 C   0  0  0  0  0  0  0  0  0  0  0  0
   -8.4437    6.3750    0.0000 C   0  0  0  0  0  0  0  0  0  0  0  0
   -8.4437    7.8750    0.0000 O   0  0  0  0  0  0  0  0  0  0  0  0
   -7.1447    5.6250    0.0000 O   0  0  0  0  0  0  0  0  0  0  0  0
  3  1  1  0
  4  3  1  0
  5  4  1  0
  6  5  1  0
  7  6  1  0
  8  7  1  0
  9  8  1  0
 10  2  1  0
 11 10  2  0
 12  9  1  0
 12 10  1  0
M  END
>  <NAME>  (6660) 
ACETIC ACID OCTYL ESTER

>  <SYNONYMS>  (6660) 
OCTYL ACETATE

>  <SPECTRUM TYPE>  (6660) 
MS1

>  <INSTRUMENT TYPE>  (6660) 
EI-B

>  <INSTRUMENT>  (6660) 
HITACHI RMU-7M

>  <ION MODE>  (6660) 
P

>  <INCHIKEY>  (6660) 
YLYBTZIQSIBWLI-UHFFFAOYSA-N

>  <FORMULA>  (6660) 
C10H20O2

>  <EXACT MASS>  (6660) 
172.14632988

>  <MW>  (6660) 
172

>  <ID>  (6660) 
JP001319

>  <CONTRIBUTOR>  (6660) 
University of Tokyo Team, {Faculty of Engineering, University of Tokyo

>  <COMMENT>  (6660) 
SMILES=CCCCCCCCOC(C)=O
InChI=InChI=1S/C10H20O2/c1-3-4-5-6-7-8-9-12-10(2)11/h3-9H2,1-2H3
computed SMILES=O=C(OCCCCCCCC)C
accession=JP001319
date=2016.01.19 (Created 2008.10.21, modified 2011.05.06)
author=TAJIMA S, GUNMA COLLEGE OF TECHNOLOGY
license=CC BY-NC-SA
exact mass=172.14633
ionization energy=70 eV
ion type=[M]+*
computed spectral entropy=2.8093005380631135
computed normalized entropy=0.8259739799900164
SPLASH=splash10-052f-9000000000-a81fd8b1966f2694f866
submitter=submitter = University of Tokyo Team (Faculty of Engineering, University of Tokyo)
MoNA Rating=3.75

>  <NUM PEAKS>  (6660) 
30

>  <MASS SPECTRAL PEAKS>  (6660) 
15 2.5
27 8
28 2.79
29 13.36
39 5.79
41 30.64
42 20.86
43 99.99
44 2.57
53 1.29
54 2.5
55 35.43
56 42.14
57 14.29
58 2.71
61 25.36
67 2.36
68 6.79
69 28
70 38
71 6.86
73 6.21
82 6.36
83 24.21
84 27
85 1.71
97 2.14
98 2.07
112 7.5
116 1.64

$$$$

     RDKit          2D

 11 10  0  0  0  0  0  0  0  0999 V2000
    2.9228    5.4375    0.0000 C   0  0  0  0  0  0  0  0  0  0  0  0
   -8.7685    6.1875    0.0000 C   0  0  0  0  0  0  0  0  0  0  0  0
    1.6238    6.1875    0.0000 C   0  0  0  0  0  0  0  0  0  0  0  0
    0.3248    5.4375    0.0000 C   0  0  0  0  0  0  0  0  0  0  0  0
   -0.9743    6.1875    0.0000 C   0  0  0  0  0  0  0  0  0  0  0  0
   -3.5724    6.1875    0.0000 C   0  0  0  0  0  0  0  0  0  0  0  0
   -4.8714    5.4375    0.0000 C   0  0  0  0  0  0  0  0  0  0  0  0
   -7.4695    5.4375    0.0000 C   0  0  0  0  0  0  0  0  0  0  0  0
   -7.4695    3.9375    0.0000 O   0  0  0  0  0  0  0  0  0  0  0  0
   -2.2733    5.4375    0.0000 O   0  0  0  0  0  0  0  0  0  0  0  0
   -6.1704    6.1875    0.0000 O   0  0  0  0  0  0  0  0  0  0  0  0
  3  1  1  0
  4  3  1  0
  5  4  1  0
  7  6  1  0
  8  2  1  0
  9  8  2  0
 10  5  1  0
 10  6  1  0
 11  7  1  0
 11  8  1  0
M  END
>  <NAME>  (6661) 
2-BUTOXYETHYL ACETATE

>  <SYNONYMS>  (6661) 


>  <SPECTRUM TYPE>  (6661) 
MS1

>  <INSTRUMENT TYPE>  (6661) 
EI-B

>  <INSTRUMENT>  (6661) 
HITACHI RMU-7M

>  <ION MODE>  (6661) 
P

>  <INCHIKEY>  (6661) 
NQBXSWAWVZHKBZ-UHFFFAOYSA-N

>  <FORMULA>  (6661) 
C8H16O3

>  <EXACT MASS>  (6661) 
160.10994437199997

>  <MW>  (6661) 
160

>  <ID>  (6661) 
JP001318

>  <CONTRIBUTOR>  (6661) 
University of Tokyo Team, {Faculty of Engineering, University of Tokyo

>  <COMMENT>  (6661) 
SMILES=CCCCOCCOC(C)=O
InChI=InChI=1S/C8H16O3/c1-3-4-5-10-6-7-11-8(2)9/h3-7H2,1-2H3
computed SMILES=O=C(OCCOCCCC)C
accession=JP001318
date=2016.01.19 (Created 2008.10.21, modified 2011.05.06)
author=TAJIMA S, GUNMA COLLEGE OF TECHNOLOGY
license=CC BY-NC-SA
exact mass=160.10994
ionization energy=70 eV
ion type=[M]+*
computed spectral entropy=2.4374216419147916
computed normalized entropy=0.7669541713357112
SPLASH=splash10-0a4l-9000000000-3086687e37c3d505bd57
submitter=submitter = University of Tokyo Team (Faculty of Engineering, University of Tokyo)
MoNA Rating=3.75

>  <NUM PEAKS>  (6661) 
24

>  <MASS SPECTRAL PEAKS>  (6661) 
15 4.56
27 6.22
28 4.56
29 23.81
31 1.52
39 2.84
41 30.42
42 2.71
43 90.15
44 10.32
45 8.6
55 3.9
56 48.48
57 99.99
58 4.7
61 5.95
70 2.25
71 1.72
73 2.71
74 5.62
85 16.53
87 31.68
88 8.99
100 5.95

$$$$

     RDKit          2D

  7  7  0  0  0  0  0  0  0  0999 V2000
   -1.6700   -0.9600    0.0000 C   0  0  0  0  0  0  0  0  0  0  0  0
   -1.6700    0.5400    0.0000 C   0  0  0  0  0  0  0  0  0  0  0  0
   -0.3700   -1.7100    0.0000 C   0  0  0  0  0  0  0  0  0  0  0  0
   -0.3700    1.2900    0.0000 C   0  0  0  0  0  0  0  0  0  0  0  0
    0.9300   -0.9600    0.0000 C   0  0  0  0  0  0  0  0  0  0  0  0
    0.9300    0.5400    0.0000 C   0  0  0  0  0  0  0  0  0  0  0  0
    2.2289    1.2902    0.0000 O   0  0  0  0  0  0  0  0  0  0  0  0
  2  1  2  0
  3  1  1  0
  4  2  1  0
  5  3  2  0
  6  4  2  0
  6  5  1  0
  7  6  1  0
M  END
>  <NAME>  (6662) 
PHENOL

>  <SYNONYMS>  (6662) 


>  <SPECTRUM TYPE>  (6662) 
MS1

>  <INSTRUMENT TYPE>  (6662) 
EI-B

>  <INSTRUMENT>  (6662) 
HITACHI RMU-7M

>  <ION MODE>  (6662) 
P

>  <INCHIKEY>  (6662) 
ISWSIDIOOBJBQZ-UHFFFAOYSA-N

>  <FORMULA>  (6662) 
C6H6O

>  <EXACT MASS>  (6662) 
94.041864812

>  <MW>  (6662) 
94

>  <ID>  (6662) 
JP001317

>  <CONTRIBUTOR>  (6662) 
University of Tokyo Team, {Faculty of Engineering, University of Tokyo

>  <COMMENT>  (6662) 
SMILES=Oc(c1)cccc1
InChI=InChI=1S/C6H6O/c7-6-4-2-1-3-5-6/h1-5,7H
computed SMILES=OC=1C=CC=CC1
accession=JP001317
date=2016.01.19 (Created 2008.10.21, modified 2011.05.06)
author=TAJIMA S, GUNMA COLLEGE OF TECHNOLOGY
license=CC BY-NC-SA
exact mass=94.04186
ionization energy=70 eV
ion type=[M]+*
computed spectral entropy=2.2156403749959948
computed normalized entropy=0.7167938999313239
SPLASH=splash10-00kf-9000000000-6fb456992902a13931f9
submitter=submitter = University of Tokyo Team (Faculty of Engineering, University of Tokyo)
MoNA Rating=3.75

>  <NUM PEAKS>  (6662) 
22

>  <MASS SPECTRAL PEAKS>  (6662) 
27 2.62
37 3.26
38 7.16
39 24.93
40 14.22
47 2.08
50 5.25
51 5.03
53 2.73
55 8.37
61 1.86
62 2.9
63 5.96
64 2.08
65 26.24
66 37.67
67 2.08
68 1
74 1.69
93 1.64
94 99.99
95 6.07

$$$$

     RDKit          2D

 13 13  0  0  0  0  0  0  0  0999 V2000
   -3.9180    0.7457    0.0000 C   0  0  0  0  0  0  0  0  0  0  0  0
    6.4961    2.2415    0.0000 C   0  0  0  0  0  0  0  0  0  0  0  0
    1.2781    2.2201    0.0000 C   0  0  0  0  0  0  0  0  0  0  0  0
    2.5481   -0.0299    0.0000 C   0  0  0  0  0  0  0  0  0  0  0  0
    2.5481    2.9701    0.0000 C   0  0  0  0  0  0  0  0  0  0  0  0
    3.8981    0.7201    0.0000 C   0  0  0  0  0  0  0  0  0  0  0  0
   -0.0246   -0.0235    0.0000 C   0  0  0  0  0  0  0  0  0  0  0  0
   -2.6227   -0.0107    0.0000 C   0  0  0  0  0  0  0  0  0  0  0  0
    1.2781    0.7201    0.0000 C   0  0  0  0  0  0  0  0  0  0  0  0
    3.8981    2.2201    0.0000 C   0  0  0  0  0  0  0  0  0  0  0  0
   -2.6300   -1.5107    0.0000 O   0  0  0  0  0  0  0  0  0  0  0  0
    5.1909    2.9808    0.0000 O   0  0  0  0  0  0  0  0  0  0  0  0
   -1.3199    0.7329    0.0000 O   0  0  0  0  0  0  0  0  0  0  0  0
  5  3  2  0
  6  4  1  0
  8  1  1  0
  9  3  1  0
  9  4  2  0
  9  7  1  0
 10  5  1  0
 10  6  2  0
 11  8  2  0
 12  2  1  0
 12 10  1  0
 13  7  1  0
 13  8  1  0
M  END
>  <NAME>  (6663) 
ACETIC ACID PARA-METHOXY BENZYL ESTER

>  <SYNONYMS>  (6663) 
4-METHOXYBENZYL ACETATE

>  <SPECTRUM TYPE>  (6663) 
MS1

>  <INSTRUMENT TYPE>  (6663) 
EI-B

>  <INSTRUMENT>  (6663) 
HITACHI RMU-7M

>  <ION MODE>  (6663) 
P

>  <INCHIKEY>  (6663) 
HFNGYHHRRMSKEU-UHFFFAOYSA-N

>  <FORMULA>  (6663) 
C10H12O3

>  <EXACT MASS>  (6663) 
180.07864424399997

>  <MW>  (6663) 
180

>  <ID>  (6663) 
JP001316

>  <CONTRIBUTOR>  (6663) 
University of Tokyo Team, {Faculty of Engineering, University of Tokyo

>  <COMMENT>  (6663) 
SMILES=COc(c1)ccc(COC(C)=O)c1
InChI=InChI=1S/C10H12O3/c1-8(11)13-7-9-3-5-10(12-2)6-4-9/h3-6H,7H2,1-2H3
computed SMILES=O=C(OCC1=CC=C(OC)C=C1)C
accession=JP001316
date=2016.01.19 (Created 2008.10.21, modified 2011.05.06)
author=TAJIMA S, GUNMA COLLEGE OF TECHNOLOGY
license=CC BY-NC-SA
exact mass=180.07864
ionization energy=70 eV
ion type=[M]+*
computed spectral entropy=2.7439515386977447
computed normalized entropy=0.7781256396058424
SPLASH=splash10-00di-4900000000-60ea4405cfb2f971c2dd
submitter=submitter = University of Tokyo Team (Faculty of Engineering, University of Tokyo)
MoNA Rating=3.75

>  <NUM PEAKS>  (6663) 
34

>  <MASS SPECTRAL PEAKS>  (6663) 
15 1.92
28 1.32
39 3.71
43 20.12
50 2.32
51 6.62
52 3.38
63 3.38
64 2.38
65 3.18
66 1.32
77 18.46
78 9.6
79 1.72
89 5.29
90 4.96
91 21.05
92 5.63
94 3.31
105 4.96
106 2.45
107 3.24
109 8.27
119 4.04
120 38.32
121 99.99
122 8.87
135 2.25
137 6.09
138 19.19
139 1.19
163 1.32
180 41.03
181 3.97

$$$$

     RDKit          2D

 11 11  0  0  0  0  0  0  0  0999 V2000
   -4.8712    2.0071    0.0000 C   0  0  0  0  0  0  0  0  0  0  0  0
    2.9231    0.5071    0.0000 C   0  0  0  0  0  0  0  0  0  0  0  0
    2.9236    2.0079    0.0000 C   0  0  0  0  0  0  0  0  0  0  0  0
    1.6236   -0.2437    0.0000 C   0  0  0  0  0  0  0  0  0  0  0  0
    1.6245    2.7579    0.0000 C   0  0  0  0  0  0  0  0  0  0  0  0
    0.3245    0.5063    0.0000 C   0  0  0  0  0  0  0  0  0  0  0  0
   -0.9740    2.7571    0.0000 C   0  0  0  0  0  0  0  0  0  0  0  0
   -3.5721    2.7571    0.0000 C   0  0  0  0  0  0  0  0  0  0  0  0
    0.3250    2.0071    0.0000 C   0  0  0  0  0  0  0  0  0  0  0  0
   -3.5721    4.2571    0.0000 O   0  0  0  0  0  0  0  0  0  0  0  0
   -2.2731    2.0071    0.0000 O   0  0  0  0  0  0  0  0  0  0  0  0
  3  2  2  0
  4  2  1  0
  5  3  1  0
  6  4  2  0
  8  1  1  0
  9  5  2  0
  9  6  1  0
  9  7  1  0
 10  8  2  0
 11  7  1  0
 11  8  1  0
M  END
>  <NAME>  (6664) 
ACETIC ACID BENZYL ESTER

>  <SYNONYMS>  (6664) 
BENZYL ACETATE

>  <SPECTRUM TYPE>  (6664) 
MS1

>  <INSTRUMENT TYPE>  (6664) 
EI-B

>  <INSTRUMENT>  (6664) 
HITACHI RMU-7M

>  <ION MODE>  (6664) 
P

>  <INCHIKEY>  (6664) 
QUKGYYKBILRGFE-UHFFFAOYSA-N

>  <FORMULA>  (6664) 
C9H10O2

>  <EXACT MASS>  (6664) 
150.06807956

>  <MW>  (6664) 
150

>  <ID>  (6664) 
JP001315

>  <CONTRIBUTOR>  (6664) 
University of Tokyo Team, {Faculty of Engineering, University of Tokyo

>  <COMMENT>  (6664) 
SMILES=CC(=O)OCc(c1)cccc1
InChI=InChI=1S/C9H10O2/c1-8(10)11-7-9-5-3-2-4-6-9/h2-6H,7H2,1H3
computed SMILES=O=C(OCC=1C=CC=CC1)C
accession=JP001315
date=2016.01.19 (Created 2008.10.21, modified 2011.05.06)
author=TAJIMA S, GUNMA COLLEGE OF TECHNOLOGY
license=CC BY-NC-SA
exact mass=150.06808
ionization energy=70 eV
ion type=[M]+*
computed spectral entropy=2.690669258591288
computed normalized entropy=0.7835408516015997
SPLASH=splash10-052f-9500000000-87826789a793b8c5d4fd
submitter=submitter = University of Tokyo Team (Faculty of Engineering, University of Tokyo)
MoNA Rating=3.75

>  <NUM PEAKS>  (6664) 
31

>  <MASS SPECTRAL PEAKS>  (6664) 
15 4.51
27 2.08
28 1.71
29 1
38 1.81
39 9.12
41 2.08
43 50.18
44 1.81
45.5 2.08
50 4.51
51 11.82
52 3.07
62 1.81
63 5.6
64 1.81
65 14.44
77 14.8
78 4.15
79 28.25
80 2.71
89 13.36
90 42.33
91 55.32
92 4.33
105 3.25
107 17.42
108 99.99
109 7.85
150 28.25
151 2.71

$$$$

     RDKit          2D

  7  6  0  0  0  0  0  0  0  0999 V2000
    1.6238    1.6875    0.0000 C   0  0  0  0  0  0  0  0  0  0  0  0
    0.3248    3.9375    0.0000 C   0  0  0  0  0  0  0  0  0  0  0  0
   -3.5724    1.6875    0.0000 C   0  0  0  0  0  0  0  0  0  0  0  0
    0.3248    2.4375    0.0000 C   0  0  0  0  0  0  0  0  0  0  0  0
   -2.2733    2.4375    0.0000 C   0  0  0  0  0  0  0  0  0  0  0  0
   -2.2733    3.9375    0.0000 O   0  0  0  0  0  0  0  0  0  0  0  0
   -0.9743    1.6875    0.0000 O   0  0  0  0  0  0  0  0  0  0  0  0
  4  1  2  0
  4  2  1  0
  5  3  1  0
  6  5  2  0
  7  4  1  0
  7  5  1  0
M  END
>  <NAME>  (6665) 
ACETIC ACID ISOPROPENYL ESTER

>  <SYNONYMS>  (6665) 
ISOPROPENYL ACETATE

>  <SPECTRUM TYPE>  (6665) 
MS1

>  <INSTRUMENT TYPE>  (6665) 
EI-B

>  <INSTRUMENT>  (6665) 
HITACHI RMU-7M

>  <ION MODE>  (6665) 
P

>  <INCHIKEY>  (6665) 
HETCEOQFVDFGSY-UHFFFAOYSA-N

>  <FORMULA>  (6665) 
C5H8O2

>  <EXACT MASS>  (6665) 
100.052429496

>  <MW>  (6665) 
100

>  <ID>  (6665) 
JP001314

>  <CONTRIBUTOR>  (6665) 
University of Tokyo Team, {Faculty of Engineering, University of Tokyo

>  <COMMENT>  (6665) 
SMILES=CC(=C)OC(C)=O
InChI=InChI=1S/C5H8O2/c1-4(2)7-5(3)6/h1H2,2-3H3
computed SMILES=O=C(OC(=C)C)C
accession=JP001314
date=2016.01.19 (Created 2008.10.21, modified 2011.05.06)
author=TAJIMA S, GUNMA COLLEGE OF TECHNOLOGY
license=CC BY-NC-SA
exact mass=100.05243
ionization energy=70 eV
ion type=[M]+*
computed spectral entropy=1.5869014915702448
computed normalized entropy=0.5723537280669229
SPLASH=splash10-0006-9000000000-128dcfaeaaf8ba85fe02
submitter=submitter = University of Tokyo Team (Faculty of Engineering, University of Tokyo)
MoNA Rating=3.75

>  <NUM PEAKS>  (6665) 
16

>  <MASS SPECTRAL PEAKS>  (6665) 
14 1.29
15 6.08
27 2.09
28 1.11
29 1.6
38 1.11
39 5.53
40 1
41 7.01
42 3.87
43 99.99
44 2.21
57 2.46
58 16.04
72 7.34
100 4.43

$$$$

     RDKit          2D

 11 11  0  0  0  0  0  0  0  0999 V2000
   -4.5648    2.6125    0.0000 C   0  0  0  0  0  0  0  0  0  0  0  0
    1.9623   -2.6414    0.0000 C   0  0  0  0  0  0  0  0  0  0  0  0
   -1.9705    2.6061    0.0000 C   0  0  0  0  0  0  0  0  0  0  0  0
   -3.2840    0.3812    0.0000 C   0  0  0  0  0  0  0  0  0  0  0  0
   -0.6859    1.8812    0.0000 C   0  0  0  0  0  0  0  0  0  0  0  0
   -1.9595   -0.4129    0.0000 C   0  0  0  0  0  0  0  0  0  0  0  0
   -3.2695    1.8561    0.0000 C   0  0  0  0  0  0  0  0  0  0  0  0
    0.6571   -1.9021    0.0000 C   0  0  0  0  0  0  0  0  0  0  0  0
   -0.6605    0.3371    0.0000 C   0  0  0  0  0  0  0  0  0  0  0  0
   -0.6357   -2.6628    0.0000 O   0  0  0  0  0  0  0  0  0  0  0  0
    0.6447   -0.4022    0.0000 O   0  0  0  0  0  0  0  0  0  0  0  0
  5  3  2  0
  6  4  1  0
  7  1  1  0
  7  3  1  0
  7  4  2  0
  8  2  1  0
  9  5  1  0
  9  6  2  0
 10  8  2  0
 11  8  1  0
 11  9  1  0
M  END
>  <NAME>  (6666) 
ACETIC ACID PARA-TOLYL ESTER

>  <SYNONYMS>  (6666) 
PARA-CRESOL ACETATE

>  <SPECTRUM TYPE>  (6666) 
MS1

>  <INSTRUMENT TYPE>  (6666) 
EI-B

>  <INSTRUMENT>  (6666) 
HITACHI RMU-7M

>  <ION MODE>  (6666) 
P

>  <INCHIKEY>  (6666) 
CDJJKTLOZJAGIZ-UHFFFAOYSA-N

>  <FORMULA>  (6666) 
C9H10O2

>  <EXACT MASS>  (6666) 
150.06807956

>  <MW>  (6666) 
150

>  <ID>  (6666) 
JP001313

>  <CONTRIBUTOR>  (6666) 
University of Tokyo Team, {Faculty of Engineering, University of Tokyo

>  <COMMENT>  (6666) 
SMILES=CC(=O)Oc(c1)ccc(C)c1
InChI=InChI=1S/C9H10O2/c1-7-3-5-9(6-4-7)11-8(2)10/h3-6H,1-2H3
computed SMILES=O=C(OC1=CC=C(C=C1)C)C
accession=JP001313
date=2016.01.19 (Created 2008.10.21, modified 2011.05.06)
author=TAJIMA S, GUNMA COLLEGE OF TECHNOLOGY
license=CC BY-NC-SA
exact mass=150.06808
ionization energy=70 eV
ion type=[M]+*
computed spectral entropy=2.096037604022686
computed normalized entropy=0.6884618677962585
SPLASH=splash10-0a4i-4900000000-1e63cc956c8aa5d2b50e
submitter=submitter = University of Tokyo Team (Faculty of Engineering, University of Tokyo)
MoNA Rating=3.75

>  <NUM PEAKS>  (6666) 
21

>  <MASS SPECTRAL PEAKS>  (6666) 
15 3.36
27 3.56
39 3.71
43 17.35
50 2.22
51 4.45
52 2.74
53 2.97
63 1.48
65 1.63
77 8.9
78 2.67
79 6.23
80 4.15
90 5.04
91 2.52
107 41.51
108 99.99
109 7.56
150 10.16
151 1

$$$$

     RDKit          2D

 11 11  0  0  0  0  0  0  0  0999 V2000
    3.8910    2.2482    0.0000 C   0  0  0  0  0  0  0  0  0  0  0  0
   -3.9051    2.2411    0.0000 C   0  0  0  0  0  0  0  0  0  0  0  0
    1.2969   -0.7445    0.0000 C   0  0  0  0  0  0  0  0  0  0  0  0
    2.5914   -0.0024    0.0000 C   0  0  0  0  0  0  0  0  0  0  0  0
   -0.0022    0.0055    0.0000 C   0  0  0  0  0  0  0  0  0  0  0  0
    1.2928    2.2485    0.0000 C   0  0  0  0  0  0  0  0  0  0  0  0
    2.5919    1.4985    0.0000 C   0  0  0  0  0  0  0  0  0  0  0  0
   -2.6048    1.4933    0.0000 C   0  0  0  0  0  0  0  0  0  0  0  0
   -0.0067    1.4976    0.0000 C   0  0  0  0  0  0  0  0  0  0  0  0
   -2.6023   -0.0067    0.0000 O   0  0  0  0  0  0  0  0  0  0  0  0
   -1.3070    2.2454    0.0000 O   0  0  0  0  0  0  0  0  0  0  0  0
  4  3  2  0
  5  3  1  0
  7  1  1  0
  7  4  1  0
  7  6  2  0
  8  2  1  0
  9  5  2  0
  9  6  1  0
 10  8  2  0
 11  8  1  0
 11  9  1  0
M  END
>  <NAME>  (6667) 
ACETIC ACID META-TOLYL ESTER

>  <SYNONYMS>  (6667) 
META-CRESOL ACETATE

>  <SPECTRUM TYPE>  (6667) 
MS1

>  <INSTRUMENT TYPE>  (6667) 
EI-B

>  <INSTRUMENT>  (6667) 
HITACHI RMU-7M

>  <ION MODE>  (6667) 
P

>  <INCHIKEY>  (6667) 
OTGAHJPFNKQGAE-UHFFFAOYSA-N

>  <FORMULA>  (6667) 
C9H10O2

>  <EXACT MASS>  (6667) 
150.06807956

>  <MW>  (6667) 
150

>  <ID>  (6667) 
JP001312

>  <CONTRIBUTOR>  (6667) 
University of Tokyo Team, {Faculty of Engineering, University of Tokyo

>  <COMMENT>  (6667) 
SMILES=CC(=O)Oc(c1)cc(C)cc1
InChI=InChI=1S/C9H10O2/c1-7-4-3-5-9(6-7)11-8(2)10/h3-6H,1-2H3
computed SMILES=O=C(OC1=CC=CC(=C1)C)C
accession=JP001312
date=2016.01.19 (Created 2008.10.21, modified 2011.05.06)
author=TAJIMA S, GUNMA COLLEGE OF TECHNOLOGY
license=CC BY-NC-SA
exact mass=150.06808
ionization energy=70 eV
ion type=[M]+*
computed spectral entropy=2.2400666934485964
computed normalized entropy=0.7048548618206839
SPLASH=splash10-0a4i-5900000000-7301945c166e8a5a537b
submitter=submitter = University of Tokyo Team (Faculty of Engineering, University of Tokyo)
MoNA Rating=3.75

>  <NUM PEAKS>  (6667) 
24

>  <MASS SPECTRAL PEAKS>  (6667) 
15 3.6
27 2.72
38 1.24
39 5.96
42 1
43 21.37
50 2.07
51 4.37
52 2.42
53 2.95
63 2.13
65 2.13
77 9.45
78 3.01
79 9.45
80 5.25
90 5.9
91 3.31
106 1.12
107 35.3
108 99.99
109 7.56
150 11.45
151 1.24

$$$$

     RDKit          2D

 10 10  0  0  0  0  0  0  0  0999 V2000
    4.8270    1.2906    0.0000 C   0  0  0  0  0  0  0  0  0  0  0  0
   -1.6700   -0.9600    0.0000 C   0  0  0  0  0  0  0  0  0  0  0  0
   -1.6700    0.5400    0.0000 C   0  0  0  0  0  0  0  0  0  0  0  0
   -0.3700   -1.7100    0.0000 C   0  0  0  0  0  0  0  0  0  0  0  0
   -0.3700    1.2900    0.0000 C   0  0  0  0  0  0  0  0  0  0  0  0
    0.9300   -0.9600    0.0000 C   0  0  0  0  0  0  0  0  0  0  0  0
    3.5281    0.5404    0.0000 C   0  0  0  0  0  0  0  0  0  0  0  0
    0.9300    0.5400    0.0000 C   0  0  0  0  0  0  0  0  0  0  0  0
    3.5283   -0.9596    0.0000 O   0  0  0  0  0  0  0  0  0  0  0  0
    2.2289    1.2902    0.0000 O   0  0  0  0  0  0  0  0  0  0  0  0
  3  2  2  0
  4  2  1  0
  5  3  1  0
  6  4  2  0
  7  1  1  0
  8  5  2  0
  8  6  1  0
  9  7  2  0
 10  7  1  0
 10  8  1  0
M  END
>  <NAME>  (6668) 
ACETIC ACID PHENYL ESTER

>  <SYNONYMS>  (6668) 
PHENYL ACETATE

>  <SPECTRUM TYPE>  (6668) 
MS1

>  <INSTRUMENT TYPE>  (6668) 
EI-B

>  <INSTRUMENT>  (6668) 
HITACHI RMU-7M

>  <ION MODE>  (6668) 
P

>  <INCHIKEY>  (6668) 
IPBVNPXQWQGGJP-UHFFFAOYSA-N

>  <FORMULA>  (6668) 
C8H8O2

>  <EXACT MASS>  (6668) 
136.052429496

>  <MW>  (6668) 
136

>  <ID>  (6668) 
JP001311

>  <CONTRIBUTOR>  (6668) 
University of Tokyo Team, {Faculty of Engineering, University of Tokyo

>  <COMMENT>  (6668) 
SMILES=CC(=O)Oc(c1)cccc1
InChI=InChI=1S/C8H8O2/c1-7(9)10-8-5-3-2-4-6-8/h2-6H,1H3
computed SMILES=O=C(OC=1C=CC=CC1)C
accession=JP001311
date=2016.01.19 (Created 2008.10.21, modified 2011.05.06)
author=TAJIMA S, GUNMA COLLEGE OF TECHNOLOGY
license=CC BY-NC-SA
exact mass=136.05243
ionization energy=70 eV
ion type=[M]+*
computed spectral entropy=1.8541462931330748
computed normalized entropy=0.6414905930587509
SPLASH=splash10-0006-9000000000-0b59e893a4f5460e26bb
submitter=submitter = University of Tokyo Team (Faculty of Engineering, University of Tokyo)
MoNA Rating=3.75

>  <NUM PEAKS>  (6668) 
18

>  <MASS SPECTRAL PEAKS>  (6668) 
15 3.34
28 1.48
38 2.31
39 10.15
40 2.25
43 28.47
50 1.86
51 3.08
55 1.74
63 2.31
65 7.71
66 11.31
77 2.25
93 1
94 99.99
95 6.49
136 10.93
137 1

$$$$

     RDKit          2D

 11 11  0  0  0  0  0  0  0  0999 V2000
    1.9489    1.5002    0.0000 C   0  0  0  0  0  0  0  0  0  0  0  0
    3.2476   -3.7504    0.0000 C   0  0  0  0  0  0  0  0  0  0  0  0
   -1.9500    0.7500    0.0000 C   0  0  0  0  0  0  0  0  0  0  0  0
   -1.9500   -0.7500    0.0000 C   0  0  0  0  0  0  0  0  0  0  0  0
   -0.6500    1.5000    0.0000 C   0  0  0  0  0  0  0  0  0  0  0  0
   -0.6500   -1.5000    0.0000 C   0  0  0  0  0  0  0  0  0  0  0  0
    0.6500    0.7500    0.0000 C   0  0  0  0  0  0  0  0  0  0  0  0
    1.9487   -3.0002    0.0000 C   0  0  0  0  0  0  0  0  0  0  0  0
    0.6500   -0.7500    0.0000 C   0  0  0  0  0  0  0  0  0  0  0  0
    0.6495   -3.7500    0.0000 O   0  0  0  0  0  0  0  0  0  0  0  0
    1.9489   -1.5002    0.0000 O   0  0  0  0  0  0  0  0  0  0  0  0
  4  3  2  0
  5  3  1  0
  6  4  1  0
  7  1  1  0
  7  5  2  0
  8  2  1  0
  9  6  2  0
  9  7  1  0
 10  8  2  0
 11  8  1  0
 11  9  1  0
M  END
>  <NAME>  (6669) 
ACETIC ACID ORTHO-TOLYL ESTER

>  <SYNONYMS>  (6669) 
ORTHO-CRESOL ACETATE

>  <SPECTRUM TYPE>  (6669) 
MS1

>  <INSTRUMENT TYPE>  (6669) 
EI-B

>  <INSTRUMENT>  (6669) 
HITACHI RMU-7M

>  <ION MODE>  (6669) 
P

>  <INCHIKEY>  (6669) 
AMZORBZSQRUXNC-UHFFFAOYSA-N

>  <FORMULA>  (6669) 
C9H10O2

>  <EXACT MASS>  (6669) 
150.06807956

>  <MW>  (6669) 
150

>  <ID>  (6669) 
JP001310

>  <CONTRIBUTOR>  (6669) 
University of Tokyo Team, {Faculty of Engineering, University of Tokyo

>  <COMMENT>  (6669) 
SMILES=CC(=O)Oc(c1)c(C)ccc1
InChI=InChI=1S/C9H10O2/c1-7-5-3-4-6-9(7)11-8(2)10/h3-6H,1-2H3
computed SMILES=O=C(OC=1C=CC=CC1C)C
accession=JP001310
date=2016.01.19 (Created 2008.10.21, modified 2011.05.06)
author=TAJIMA S, GUNMA COLLEGE OF TECHNOLOGY
license=CC BY-NC-SA
exact mass=150.06808
ionization energy=70 eV
ion type=[M]+*
computed spectral entropy=2.2293315664461493
computed normalized entropy=0.7109984624179972
SPLASH=splash10-0a4i-5900000000-2f6069670cdd8c182d83
submitter=submitter = University of Tokyo Team (Faculty of Engineering, University of Tokyo)
MoNA Rating=3.75

>  <NUM PEAKS>  (6669) 
23

>  <MASS SPECTRAL PEAKS>  (6669) 
15 1.96
27 2.25
28 1.76
39 4.71
43 23.43
50 2.16
51 4.9
52 2.84
53 2.55
63 1.67
65 1.76
77 10.59
78 3.33
79 8.92
80 6.18
89 1.76
90 9.71
91 3.04
107 33.04
108 99.99
109 7.35
150 10.78
151 1

$$$$

     RDKit          2D

 11 10  0  0  0  0  0  0  0  0999 V2000
    2.9228    5.4375    0.0000 C   0  0  0  0  0  0  0  0  0  0  0  0
   -8.7685    6.1875    0.0000 C   0  0  0  0  0  0  0  0  0  0  0  0
    1.6238    6.1875    0.0000 C   0  0  0  0  0  0  0  0  0  0  0  0
    0.3248    5.4375    0.0000 C   0  0  0  0  0  0  0  0  0  0  0  0
   -0.9743    6.1875    0.0000 C   0  0  0  0  0  0  0  0  0  0  0  0
   -2.2733    5.4375    0.0000 C   0  0  0  0  0  0  0  0  0  0  0  0
   -3.5724    6.1875    0.0000 C   0  0  0  0  0  0  0  0  0  0  0  0
   -4.8714    5.4375    0.0000 C   0  0  0  0  0  0  0  0  0  0  0  0
   -7.4695    5.4375    0.0000 C   0  0  0  0  0  0  0  0  0  0  0  0
   -7.4695    3.9375    0.0000 O   0  0  0  0  0  0  0  0  0  0  0  0
   -6.1704    6.1875    0.0000 O   0  0  0  0  0  0  0  0  0  0  0  0
  3  1  1  0
  4  3  1  0
  5  4  1  0
  6  5  1  0
  7  6  1  0
  8  7  1  0
  9  2  1  0
 10  9  2  0
 11  8  1  0
 11  9  1  0
M  END
>  <NAME>  (6670) 
ACETIC ACID HEPTYL ESTER

>  <SYNONYMS>  (6670) 
HEPTYL ACETATE

>  <SPECTRUM TYPE>  (6670) 
MS1

>  <INSTRUMENT TYPE>  (6670) 
EI-B

>  <INSTRUMENT>  (6670) 
HITACHI RMU-7M

>  <ION MODE>  (6670) 
P

>  <INCHIKEY>  (6670) 
ZCZSIDMEHXZRLG-UHFFFAOYSA-N

>  <FORMULA>  (6670) 
C9H18O2

>  <EXACT MASS>  (6670) 
158.130679816

>  <MW>  (6670) 
158

>  <ID>  (6670) 
JP001309

>  <CONTRIBUTOR>  (6670) 
University of Tokyo Team, {Faculty of Engineering, University of Tokyo

>  <COMMENT>  (6670) 
SMILES=CCCCCCCOC(C)=O
InChI=InChI=1S/C9H18O2/c1-3-4-5-6-7-8-11-9(2)10/h3-8H2,1-2H3
computed SMILES=O=C(OCCCCCCC)C
accession=JP001309
date=2016.01.19 (Created 2008.10.21, modified 2011.05.06)
author=TAJIMA S, GUNMA COLLEGE OF TECHNOLOGY
license=CC BY-NC-SA
exact mass=158.13068
ionization energy=70 eV
ion type=[M]+*
computed spectral entropy=2.608071447982289
computed normalized entropy=0.8004893094929812
SPLASH=splash10-052f-9000000000-853410267495be366ea2
submitter=submitter = University of Tokyo Team (Faculty of Engineering, University of Tokyo)
MoNA Rating=3.75

>  <NUM PEAKS>  (6670) 
26

>  <MASS SPECTRAL PEAKS>  (6670) 
15 3.28
27 8.37
28 3.6
29 12.08
31 1.69
39 5.72
41 26.48
42 18.54
43 99.99
44 3.07
54 3.28
55 29.77
56 46.08
57 13.67
58 3.39
61 21.19
68 4.56
69 19.28
70 35.49
71 2.86
73 6.78
83 3.6
97 1.48
98 9.11
101 1.17
116 1

$$$$

     RDKit          2D

 10  9  0  0  0  0  0  0  0  0999 V2000
    2.5981    4.5000    0.0000 C   0  0  0  0  0  0  0  0  0  0  0  0
   -7.7942    4.5000    0.0000 C   0  0  0  0  0  0  0  0  0  0  0  0
    1.2990    5.2500    0.0000 C   0  0  0  0  0  0  0  0  0  0  0  0
    0.0000    4.5000    0.0000 C   0  0  0  0  0  0  0  0  0  0  0  0
   -1.2990    5.2500    0.0000 C   0  0  0  0  0  0  0  0  0  0  0  0
   -2.5981    4.5000    0.0000 C   0  0  0  0  0  0  0  0  0  0  0  0
   -3.8971    5.2500    0.0000 C   0  0  0  0  0  0  0  0  0  0  0  0
   -6.4952    5.2500    0.0000 C   0  0  0  0  0  0  0  0  0  0  0  0
   -6.4952    6.7500    0.0000 O   0  0  0  0  0  0  0  0  0  0  0  0
   -5.1962    4.5000    0.0000 O   0  0  0  0  0  0  0  0  0  0  0  0
  3  1  1  0
  4  3  1  0
  5  4  1  0
  6  5  1  0
  7  6  1  0
  8  2  1  0
  9  8  2  0
 10  7  1  0
 10  8  1  0
M  END
>  <NAME>  (6671) 
ACETIC ACID HEXYL ESTER

>  <SYNONYMS>  (6671) 
HEXYL ACETATE

>  <SPECTRUM TYPE>  (6671) 
MS1

>  <INSTRUMENT TYPE>  (6671) 
EI-B

>  <INSTRUMENT>  (6671) 
HITACHI RMU-7M

>  <ION MODE>  (6671) 
P

>  <INCHIKEY>  (6671) 
AOGQPLXWSUTHQB-UHFFFAOYSA-N

>  <FORMULA>  (6671) 
C8H16O2

>  <EXACT MASS>  (6671) 
144.115029752

>  <MW>  (6671) 
144

>  <ID>  (6671) 
JP001308

>  <CONTRIBUTOR>  (6671) 
University of Tokyo Team, {Faculty of Engineering, University of Tokyo

>  <COMMENT>  (6671) 
SMILES=CCCCCCOC(C)=O
InChI=InChI=1S/C8H16O2/c1-3-4-5-6-7-10-8(2)9/h3-7H2,1-2H3
computed SMILES=O=C(OCCCCCC)C
accession=JP001308
date=2016.01.19 (Created 2008.10.21, modified 2011.05.06)
author=TAJIMA S, GUNMA COLLEGE OF TECHNOLOGY
license=CC BY-NC-SA
exact mass=144.11503
ionization energy=70 eV
ion type=[M]+*
computed spectral entropy=2.420364100605784
computed normalized entropy=0.7519283850301642
SPLASH=splash10-052f-9000000000-a501dc38f24dd902d772
submitter=submitter = University of Tokyo Team (Faculty of Engineering, University of Tokyo)
MoNA Rating=3.75

>  <NUM PEAKS>  (6671) 
25

>  <MASS SPECTRAL PEAKS>  (6671) 
15 3.69
27 7.13
28 2.77
29 7.38
31 1
39 4.86
40 1.11
41 17.09
42 18.99
43 99.99
44 2.77
54 1.6
55 23.6
56 51.51
57 3.63
58 3.32
61 22.13
69 16.59
70 1.17
71 1.29
73 8.97
83 2.77
84 18.44
85 1.72
101 1.23

$$$$

     RDKit          2D

  9  8  0  0  0  0  0  0  0  0999 V2000
    2.2733    2.8125    0.0000 C   0  0  0  0  0  0  0  0  0  0  0  0
    0.9743    5.0625    0.0000 C   0  0  0  0  0  0  0  0  0  0  0  0
   -5.5209    2.8125    0.0000 C   0  0  0  0  0  0  0  0  0  0  0  0
   -0.3248    2.8125    0.0000 C   0  0  0  0  0  0  0  0  0  0  0  0
   -1.6238    3.5625    0.0000 C   0  0  0  0  0  0  0  0  0  0  0  0
    0.9743    3.5625    0.0000 C   0  0  0  0  0  0  0  0  0  0  0  0
   -4.2219    3.5625    0.0000 C   0  0  0  0  0  0  0  0  0  0  0  0
   -4.2219    5.0625    0.0000 O   0  0  0  0  0  0  0  0  0  0  0  0
   -2.9228    2.8125    0.0000 O   0  0  0  0  0  0  0  0  0  0  0  0
  5  4  1  0
  6  1  1  0
  6  2  1  0
  6  4  1  0
  7  3  1  0
  8  7  2  0
  9  5  1  0
  9  7  1  0
M  END
>  <NAME>  (6672) 
ACETIC ACID ISOPENTYL ESTER

>  <SYNONYMS>  (6672) 
ISOPENTYL ACETATE

>  <SPECTRUM TYPE>  (6672) 
MS1

>  <INSTRUMENT TYPE>  (6672) 
EI-B

>  <INSTRUMENT>  (6672) 
HITACHI RMU-7M

>  <ION MODE>  (6672) 
P

>  <INCHIKEY>  (6672) 
MLFHJEHSLIIPHL-UHFFFAOYSA-N

>  <FORMULA>  (6672) 
C7H14O2

>  <EXACT MASS>  (6672) 
130.099379688

>  <MW>  (6672) 
130

>  <ID>  (6672) 
JP001307

>  <CONTRIBUTOR>  (6672) 
University of Tokyo Team, {Faculty of Engineering, University of Tokyo

>  <COMMENT>  (6672) 
SMILES=CC(C)CCOC(C)=O
InChI=InChI=1S/C7H14O2/c1-6(2)4-5-9-7(3)8/h6H,4-5H2,1-3H3
computed SMILES=O=C(OCCC(C)C)C
accession=JP001307
date=2016.01.19 (Created 2008.10.21, modified 2011.05.06)
author=TAJIMA S, GUNMA COLLEGE OF TECHNOLOGY
license=CC BY-NC-SA
exact mass=130.09938
ionization energy=70 eV
ion type=[M]+*
computed spectral entropy=2.2802479894331134
computed normalized entropy=0.7174982272667996
SPLASH=splash10-0006-9000000000-712ec54497a1b720e6f4
submitter=submitter = University of Tokyo Team (Faculty of Engineering, University of Tokyo)
MoNA Rating=3.75

>  <NUM PEAKS>  (6672) 
24

>  <MASS SPECTRAL PEAKS>  (6672) 
15 3.57
27 5.19
28 2.34
29 6.16
39 4.41
41 11.36
42 12.01
43 99.99
44 2.53
45 1.75
55 33.42
56 4.54
57 2.99
58 1.62
61 9.67
69 3.96
70 43.87
71 3.37
72 1.62
73 10.84
74 1.75
85 1
87 6.04
88 1.17

$$$$

     RDKit          2D

  7  6  0  0  0  0  0  0  0  0999 V2000
    1.6238    3.1875    0.0000 C   0  0  0  0  0  0  0  0  0  0  0  0
   -4.8714    3.9375    0.0000 C   0  0  0  0  0  0  0  0  0  0  0  0
    0.3248    3.9375    0.0000 C   0  0  0  0  0  0  0  0  0  0  0  0
   -0.9743    3.1875    0.0000 C   0  0  0  0  0  0  0  0  0  0  0  0
   -3.5724    3.1875    0.0000 C   0  0  0  0  0  0  0  0  0  0  0  0
   -3.5724    1.6875    0.0000 O   0  0  0  0  0  0  0  0  0  0  0  0
   -2.2733    3.9375    0.0000 O   0  0  0  0  0  0  0  0  0  0  0  0
  3  1  2  0
  4  3  1  0
  5  2  1  0
  6  5  2  0
  7  4  1  0
  7  5  1  0
M  END
>  <NAME>  (6673) 
ACETIC ACID ALLYL ESTER

>  <SYNONYMS>  (6673) 
ALLYL ACETATE

>  <SPECTRUM TYPE>  (6673) 
MS1

>  <INSTRUMENT TYPE>  (6673) 
EI-B

>  <INSTRUMENT>  (6673) 
HITACHI RMU-7M

>  <ION MODE>  (6673) 
P

>  <INCHIKEY>  (6673) 
FWZUNOYOVVKUNF-UHFFFAOYSA-N

>  <FORMULA>  (6673) 
C5H8O2

>  <EXACT MASS>  (6673) 
100.052429496

>  <MW>  (6673) 
100

>  <ID>  (6673) 
JP001306

>  <CONTRIBUTOR>  (6673) 
University of Tokyo Team, {Faculty of Engineering, University of Tokyo

>  <COMMENT>  (6673) 
SMILES=C=CCOC(C)=O
InChI=InChI=1S/C5H8O2/c1-3-4-7-5(2)6/h3H,1,4H2,2H3
computed SMILES=O=C(OCC=C)C
accession=JP001306
date=2016.01.19 (Created 2008.10.21, modified 2011.05.06)
author=TAJIMA S, GUNMA COLLEGE OF TECHNOLOGY
license=CC BY-NC-SA
exact mass=100.05243
ionization energy=70 eV
ion type=[M]+*
computed spectral entropy=1.6127287180983882
computed normalized entropy=0.58166893097494
SPLASH=splash10-0006-9000000000-982e1c585f0b043e8a71
submitter=submitter = University of Tokyo Team (Faculty of Engineering, University of Tokyo)
MoNA Rating=3.75

>  <NUM PEAKS>  (6673) 
16

>  <MASS SPECTRAL PEAKS>  (6673) 
15 4.42
26 1.09
27 2.76
28 1.92
29 2.82
31 1.03
38 1.22
39 9.62
40 2.37
41 10.9
42 2.63
43 99.99
44 2.5
57 7.56
58 10.83
61 2.44

$$$$

     RDKit          2D

  8  7  0  0  0  0  0  0  0  0999 V2000
    1.8983    1.9620    0.0000 C   0  0  0  0  0  0  0  0  0  0  0  0
   -1.2488    4.0111    0.0000 C   0  0  0  0  0  0  0  0  0  0  0  0
   -3.2978    3.4620    0.0000 C   0  0  0  0  0  0  0  0  0  0  0  0
   -2.7488    1.4130    0.0000 C   0  0  0  0  0  0  0  0  0  0  0  0
    0.5993    2.7120    0.0000 C   0  0  0  0  0  0  0  0  0  0  0  0
   -1.9988    2.7120    0.0000 C   0  0  0  0  0  0  0  0  0  0  0  0
    0.5993    4.2120    0.0000 O   0  0  0  0  0  0  0  0  0  0  0  0
   -0.6998    1.9620    0.0000 O   0  0  0  0  0  0  0  0  0  0  0  0
  5  1  1  0
  6  2  1  0
  6  3  1  0
  6  4  1  0
  7  5  2  0
  8  5  1  0
  8  6  1  0
M  END
>  <NAME>  (6674) 
ACETIC ACID TERT-BUTYL ESTER

>  <SYNONYMS>  (6674) 
TERT-BUTYL ACETATE

>  <SPECTRUM TYPE>  (6674) 
MS1

>  <INSTRUMENT TYPE>  (6674) 
EI-B

>  <INSTRUMENT>  (6674) 
HITACHI RMU-7M

>  <ION MODE>  (6674) 
P

>  <INCHIKEY>  (6674) 
WMOVHXAZOJBABW-UHFFFAOYSA-N

>  <FORMULA>  (6674) 
C6H12O2

>  <EXACT MASS>  (6674) 
116.083729624

>  <MW>  (6674) 
116

>  <ID>  (6674) 
JP001305

>  <CONTRIBUTOR>  (6674) 
University of Tokyo Team, {Faculty of Engineering, University of Tokyo

>  <COMMENT>  (6674) 
SMILES=CC(=O)OC(C)(C)C
InChI=InChI=1S/C6H12O2/c1-5(7)8-6(2,3)4/h1-4H3
computed SMILES=O=C(OC(C)(C)C)C
accession=JP001305
date=2016.01.19 (Created 2008.10.21, modified 2011.05.06)
author=TAJIMA S, GUNMA COLLEGE OF TECHNOLOGY
license=CC BY-NC-SA
exact mass=116.08373
ionization energy=70 eV
ion type=[M]+*
computed spectral entropy=2.2388290550550956
computed normalized entropy=0.7353629677070819
SPLASH=splash10-052f-9000000000-278b388e9e9be2c9f2d0
submitter=submitter = University of Tokyo Team (Faculty of Engineering, University of Tokyo)
MoNA Rating=3.75

>  <NUM PEAKS>  (6674) 
21

>  <MASS SPECTRAL PEAKS>  (6674) 
15 5.61
27 4.55
28 2.91
29 16.77
31 3.2
39 7.11
40 1.42
41 35.54
42 2.91
43 99.99
44 2.2
45 1.35
55 3.34
56 39.37
57 49.96
58 2.27
59 35.89
60 1.99
61 2.2
101 15.07
102 1

$$$$

     RDKit          2D

  8  7  0  0  0  0  0  0  0  0999 V2000
    1.6238    3.1875    0.0000 C   0  0  0  0  0  0  0  0  0  0  0  0
   -0.9743    1.6875    0.0000 C   0  0  0  0  0  0  0  0  0  0  0  0
   -4.8714    3.9375    0.0000 C   0  0  0  0  0  0  0  0  0  0  0  0
    0.3248    3.9375    0.0000 C   0  0  0  0  0  0  0  0  0  0  0  0
   -0.9743    3.1875    0.0000 C   0  0  0  0  0  0  0  0  0  0  0  0
   -3.5724    3.1875    0.0000 C   0  0  0  0  0  0  0  0  0  0  0  0
   -3.5724    1.6875    0.0000 O   0  0  0  0  0  0  0  0  0  0  0  0
   -2.2733    3.9375    0.0000 O   0  0  0  0  0  0  0  0  0  0  0  0
  4  1  1  0
  5  2  1  0
  5  4  1  0
  6  3  1  0
  7  6  2  0
  8  5  1  0
  8  6  1  0
M  END
>  <NAME>  (6675) 
ACETIC ACID SEC-BUTYL ESTER

>  <SYNONYMS>  (6675) 
SEC-BUTYL ACETATE

>  <SPECTRUM TYPE>  (6675) 
MS1

>  <INSTRUMENT TYPE>  (6675) 
EI-B

>  <INSTRUMENT>  (6675) 
HITACHI RMU-7M

>  <ION MODE>  (6675) 
P

>  <INCHIKEY>  (6675) 
DCKVNWZUADLDEH-UHFFFAOYSA-N

>  <FORMULA>  (6675) 
C6H12O2

>  <EXACT MASS>  (6675) 
116.083729624

>  <MW>  (6675) 
116

>  <ID>  (6675) 
JP001304

>  <CONTRIBUTOR>  (6675) 
University of Tokyo Team, {Faculty of Engineering, University of Tokyo

>  <COMMENT>  (6675) 
SMILES=CCC(C)OC(C)=O
InChI=InChI=1S/C6H12O2/c1-4-5(2)8-6(3)7/h5H,4H2,1-3H3
computed SMILES=O=C(OC(C)CC)C
accession=JP001304
date=2016.01.19 (Created 2008.10.21, modified 2011.05.06)
author=TAJIMA S, GUNMA COLLEGE OF TECHNOLOGY
license=CC BY-NC-SA
exact mass=116.08373
ionization energy=70 eV
ion type=[M]+*
computed spectral entropy=1.8908916904990503
computed normalized entropy=0.6542036280742609
SPLASH=splash10-0006-9000000000-6b5b933f04a6138fca4a
submitter=submitter = University of Tokyo Team (Faculty of Engineering, University of Tokyo)
MoNA Rating=3.75

>  <NUM PEAKS>  (6675) 
18

>  <MASS SPECTRAL PEAKS>  (6675) 
15 3.04
27 3.65
28 2.17
29 7.31
39 2.37
41 11.64
42 1.83
43 99.99
44 2.44
45 2.84
55 2.64
56 19.62
57 5.95
61 4.19
72 1
73 4.26
87 14.75
101 2.57

$$$$

     RDKit          2D

  8  7  0  0  0  0  0  0  0  0999 V2000
    0.0000    0.0000    0.0000 C   0  0  0  0  0  0  0  0  0  0  0  0
    1.2990    2.2500    0.0000 C   0  0  0  0  0  0  0  0  0  0  0  0
   -2.5981    6.0000    0.0000 C   0  0  0  0  0  0  0  0  0  0  0  0
   -1.2990    2.2500    0.0000 C   0  0  0  0  0  0  0  0  0  0  0  0
    0.0000    1.5000    0.0000 C   0  0  0  0  0  0  0  0  0  0  0  0
   -2.5981    4.5000    0.0000 C   0  0  0  0  0  0  0  0  0  0  0  0
   -3.8971    3.7500    0.0000 O   0  0  0  0  0  0  0  0  0  0  0  0
   -1.2990    3.7500    0.0000 O   0  0  0  0  0  0  0  0  0  0  0  0
  5  1  1  0
  5  2  1  0
  5  4  1  0
  6  3  1  0
  7  6  2  0
  8  4  1  0
  8  6  1  0
M  END
>  <NAME>  (6676) 
ACETIC ACID ISOBUTYL ESTER

>  <SYNONYMS>  (6676) 
ISOBUTYL ACETATE

>  <SPECTRUM TYPE>  (6676) 
MS1

>  <INSTRUMENT TYPE>  (6676) 
EI-B

>  <INSTRUMENT>  (6676) 
HITACHI RMU-7M

>  <ION MODE>  (6676) 
P

>  <INCHIKEY>  (6676) 
GJRQTCIYDGXPES-UHFFFAOYSA-N

>  <FORMULA>  (6676) 
C6H12O2

>  <EXACT MASS>  (6676) 
116.083729624

>  <MW>  (6676) 
116

>  <ID>  (6676) 
JP001303

>  <CONTRIBUTOR>  (6676) 
University of Tokyo Team, {Faculty of Engineering, University of Tokyo

>  <COMMENT>  (6676) 
SMILES=CC(C)COC(C)=O
InChI=InChI=1S/C6H12O2/c1-5(2)4-8-6(3)7/h5H,4H2,1-3H3
computed SMILES=O=C(OCC(C)C)C
accession=JP001303
date=2016.01.19 (Created 2008.10.21, modified 2011.05.06)
author=TAJIMA S, GUNMA COLLEGE OF TECHNOLOGY
license=CC BY-NC-SA
exact mass=116.08373
ionization energy=70 eV
ion type=[M]+*
computed spectral entropy=1.7968623636393521
computed normalized entropy=0.6216717135885825
SPLASH=splash10-0006-9000000000-47909851abe2172156c6
submitter=submitter = University of Tokyo Team (Faculty of Engineering, University of Tokyo)
MoNA Rating=3.75

>  <NUM PEAKS>  (6676) 
18

>  <MASS SPECTRAL PEAKS>  (6676) 
15 3.04
27 3.35
28 1.44
29 3.9
31 1
39 3.16
41 10.59
42 2.23
43 99.99
44 2.35
55 2.42
56 29.93
57 3.22
61 2.79
71 3.16
73 17.35
74 1.8
86 2.04

$$$$

     RDKit          2D

  8  7  0  0  0  0  0  0  0  0999 V2000
    1.9486    3.3750    0.0000 C   0  0  0  0  0  0  0  0  0  0  0  0
   -5.8457    3.3750    0.0000 C   0  0  0  0  0  0  0  0  0  0  0  0
    0.6495    4.1250    0.0000 C   0  0  0  0  0  0  0  0  0  0  0  0
   -0.6495    3.3750    0.0000 C   0  0  0  0  0  0  0  0  0  0  0  0
   -1.9486    4.1250    0.0000 C   0  0  0  0  0  0  0  0  0  0  0  0
   -4.5466    4.1250    0.0000 C   0  0  0  0  0  0  0  0  0  0  0  0
   -4.5466    5.6250    0.0000 O   0  0  0  0  0  0  0  0  0  0  0  0
   -3.2476    3.3750    0.0000 O   0  0  0  0  0  0  0  0  0  0  0  0
  3  1  1  0
  4  3  1  0
  5  4  1  0
  6  2  1  0
  7  6  2  0
  8  5  1  0
  8  6  1  0
M  END
>  <NAME>  (6677) 
ACETIC ACID BUTYL ESTER

>  <SYNONYMS>  (6677) 
BUTYL ACETATE

>  <SPECTRUM TYPE>  (6677) 
MS1

>  <INSTRUMENT TYPE>  (6677) 
EI-B

>  <INSTRUMENT>  (6677) 
HITACHI RMU-7M

>  <ION MODE>  (6677) 
P

>  <INCHIKEY>  (6677) 
DKPFZGUDAPQIHT-UHFFFAOYSA-N

>  <FORMULA>  (6677) 
C6H12O2

>  <EXACT MASS>  (6677) 
116.083729624

>  <MW>  (6677) 
116

>  <ID>  (6677) 
JP001302

>  <CONTRIBUTOR>  (6677) 
University of Tokyo Team, {Faculty of Engineering, University of Tokyo

>  <COMMENT>  (6677) 
SMILES=CCCCOC(C)=O
InChI=InChI=1S/C6H12O2/c1-3-4-5-8-6(2)7/h3-5H2,1-2H3
computed SMILES=O=C(OCCCC)C
accession=JP001302
date=2016.01.19 (Created 2008.10.21, modified 2011.05.06)
author=TAJIMA S, GUNMA COLLEGE OF TECHNOLOGY
license=CC BY-NC-SA
exact mass=116.08373
ionization energy=70 eV
ion type=[M]+*
computed spectral entropy=1.960700254898223
computed normalized entropy=0.6783557338400552
SPLASH=splash10-0006-9000000000-e7000014bd02a2fabf76
submitter=submitter = University of Tokyo Team (Faculty of Engineering, University of Tokyo)
MoNA Rating=3.75

>  <NUM PEAKS>  (6677) 
18

>  <MASS SPECTRAL PEAKS>  (6677) 
15 3.78
27 5.04
28 3.09
29 6.68
31 1.32
39 2.9
41 14.49
42 2.52
43 99.99
44 2.52
55 7.06
56 39.89
57 3.21
58 1.83
61 12.92
71 1.39
73 14.74
87 1.26

$$$$

     RDKit          2D

  7  6  0  0  0  0  0  0  0  0999 V2000
    1.6238    3.1875    0.0000 C   0  0  0  0  0  0  0  0  0  0  0  0
   -4.8714    3.9375    0.0000 C   0  0  0  0  0  0  0  0  0  0  0  0
    0.3248    3.9375    0.0000 C   0  0  0  0  0  0  0  0  0  0  0  0
   -0.9743    3.1875    0.0000 C   0  0  0  0  0  0  0  0  0  0  0  0
   -3.5724    3.1875    0.0000 C   0  0  0  0  0  0  0  0  0  0  0  0
   -3.5724    1.6875    0.0000 O   0  0  0  0  0  0  0  0  0  0  0  0
   -2.2733    3.9375    0.0000 O   0  0  0  0  0  0  0  0  0  0  0  0
  3  1  1  0
  4  3  1  0
  5  2  1  0
  6  5  2  0
  7  4  1  0
  7  5  1  0
M  END
>  <NAME>  (6678) 
ACETIC ACID PROPYL ESTER

>  <SYNONYMS>  (6678) 
PROPYL ACETATE

>  <SPECTRUM TYPE>  (6678) 
MS1

>  <INSTRUMENT TYPE>  (6678) 
EI-B

>  <INSTRUMENT>  (6678) 
HITACHI RMU-7M

>  <ION MODE>  (6678) 
P

>  <INCHIKEY>  (6678) 
YKYONYBAUNKHLG-UHFFFAOYSA-N

>  <FORMULA>  (6678) 
C5H10O2

>  <EXACT MASS>  (6678) 
102.06807956

>  <MW>  (6678) 
102

>  <ID>  (6678) 
JP001301

>  <CONTRIBUTOR>  (6678) 
University of Tokyo Team, {Faculty of Engineering, University of Tokyo

>  <COMMENT>  (6678) 
SMILES=CCCOC(C)=O
InChI=InChI=1S/C5H10O2/c1-3-4-7-5(2)6/h3-4H2,1-2H3
computed SMILES=O=C(OCCC)C
accession=JP001301
date=2016.01.19 (Created 2008.10.21, modified 2011.05.06)
author=TAJIMA S, GUNMA COLLEGE OF TECHNOLOGY
license=CC BY-NC-SA
exact mass=102.06808
ionization energy=70 eV
ion type=[M]+*
computed spectral entropy=1.6906116551822077
computed normalized entropy=0.6242911060120332
SPLASH=splash10-0006-9000000000-d3ec8dd755a3715c491e
submitter=submitter = University of Tokyo Team (Faculty of Engineering, University of Tokyo)
MoNA Rating=3.75

>  <NUM PEAKS>  (6678) 
15

>  <MASS SPECTRAL PEAKS>  (6678) 
15 3.88
27 5.09
28 1.53
29 1.64
31 3.88
39 2.24
41 6.84
42 9.3
43 99.99
44 2.3
57 1.15
59 4.76
61 27.3
72 1.42
73 13.13

$$$$

     RDKit          2D

  7  6  0  0  0  0  0  0  0  0999 V2000
    1.6238    1.6875    0.0000 C   0  0  0  0  0  0  0  0  0  0  0  0
    0.3248    3.9375    0.0000 C   0  0  0  0  0  0  0  0  0  0  0  0
   -3.5724    1.6875    0.0000 C   0  0  0  0  0  0  0  0  0  0  0  0
    0.3248    2.4375    0.0000 C   0  0  0  0  0  0  0  0  0  0  0  0
   -2.2733    2.4375    0.0000 C   0  0  0  0  0  0  0  0  0  0  0  0
   -2.2733    3.9375    0.0000 O   0  0  0  0  0  0  0  0  0  0  0  0
   -0.9743    1.6875    0.0000 O   0  0  0  0  0  0  0  0  0  0  0  0
  4  1  1  0
  4  2  1  0
  5  3  1  0
  6  5  2  0
  7  4  1  0
  7  5  1  0
M  END
>  <NAME>  (6679) 
ACETIC ACID ISOPROPYL ESTER

>  <SYNONYMS>  (6679) 
ISOPROPYL ACETATE

>  <SPECTRUM TYPE>  (6679) 
MS1

>  <INSTRUMENT TYPE>  (6679) 
EI-B

>  <INSTRUMENT>  (6679) 
HITACHI RMU-7M

>  <ION MODE>  (6679) 
P

>  <INCHIKEY>  (6679) 
JMMWKPVZQRWMSS-UHFFFAOYSA-N

>  <FORMULA>  (6679) 
C5H10O2

>  <EXACT MASS>  (6679) 
102.06807956

>  <MW>  (6679) 
102

>  <ID>  (6679) 
JP001300

>  <CONTRIBUTOR>  (6679) 
University of Tokyo Team, {Faculty of Engineering, University of Tokyo

>  <COMMENT>  (6679) 
SMILES=CC(C)OC(C)=O
InChI=InChI=1S/C5H10O2/c1-4(2)7-5(3)6/h4H,1-3H3
computed SMILES=O=C(OC(C)C)C
accession=JP001300
date=2016.01.19 (Created 2008.10.21, modified 2011.05.06)
author=TAJIMA S, GUNMA COLLEGE OF TECHNOLOGY
license=CC BY-NC-SA
exact mass=102.06808
ionization energy=70 eV
ion type=[M]+*
computed spectral entropy=1.7263718176839653
computed normalized entropy=0.6374962387998976
SPLASH=splash10-0006-9000000000-87cf6b7c267ef6f5a0e6
submitter=submitter = University of Tokyo Team (Faculty of Engineering, University of Tokyo)
MoNA Rating=3.75

>  <NUM PEAKS>  (6679) 
15

>  <MASS SPECTRAL PEAKS>  (6679) 
15 4.69
27 5.42
28 1.3
29 1.13
31 1.19
39 3.73
40 1.13
41 11.58
42 7.23
43 99.99
44 2.37
45 3.05
59 9.2
61 20.44
87 10.78

$$$$

     RDKit          2D

  8  8  0  0  0  0  0  0  0  0999 V2000
    0.7500    1.3100    0.0000 C   0  0  0  0  0  0  0  0  0  0  0  0
   -0.7600    1.2900    0.0000 C   0  0  0  0  0  0  0  0  0  0  0  0
    0.7500   -1.2900    0.0000 C   0  0  0  0  0  0  0  0  0  0  0  0
   -0.7300   -1.3000    0.0000 C   0  0  0  0  0  0  0  0  0  0  0  0
    1.4900    0.0200    0.0000 C   0  0  0  0  0  0  0  0  0  0  0  0
   -1.5000   -0.0100    0.0000 C   0  0  0  0  0  0  0  0  0  0  0  0
    2.9900    0.0250    0.0000 N   0  0  0  0  0  0  0  0  0  0  0  0
   -2.9999   -0.0255    0.0000 N   0  0  0  0  0  0  0  0  0  0  0  0
  2  1  2  0
  4  3  1  0
  5  1  1  0
  5  3  2  0
  6  2  1  0
  6  4  2  0
  7  5  1  0
  8  6  1  0
M  END
>  <NAME>  (6680) 
PARA-PHENYLENEDIAMINE

>  <SYNONYMS>  (6680) 
PARA-DIAMINOBENZENE

>  <SPECTRUM TYPE>  (6680) 
MS1

>  <INSTRUMENT TYPE>  (6680) 
EI-B

>  <INSTRUMENT>  (6680) 
HITACHI RMU-7M

>  <ION MODE>  (6680) 
P

>  <INCHIKEY>  (6680) 
CBCKQZAAMUWICA-UHFFFAOYSA-N

>  <FORMULA>  (6680) 
C6H8N2

>  <EXACT MASS>  (6680) 
108.06874825599999

>  <MW>  (6680) 
108

>  <ID>  (6680) 
JP001299

>  <CONTRIBUTOR>  (6680) 
University of Tokyo Team, {Faculty of Engineering, University of Tokyo

>  <COMMENT>  (6680) 
SMILES=Nc(c1)ccc(N)c1
InChI=InChI=1S/C6H8N2/c7-5-1-2-6(8)4-3-5/h1-4H,7-8H2
computed SMILES=NC1=CC=C(N)C=C1
accession=JP001299
date=2016.01.19 (Created 2008.10.21, modified 2011.05.06)
author=TAJIMA S, GUNMA COLLEGE OF TECHNOLOGY
license=CC BY-NC-SA
exact mass=108.06875
ionization energy=70 eV
ion type=[M]+*
computed spectral entropy=2.351750551769452
computed normalized entropy=0.6848454614792449
SPLASH=splash10-0a4i-8900000000-5b42adf83e422cffefb6
submitter=submitter = University of Tokyo Team (Faculty of Engineering, University of Tokyo)
MoNA Rating=3.75

>  <NUM PEAKS>  (6680) 
31

>  <MASS SPECTRAL PEAKS>  (6680) 
27 2.32
28 5.54
38 1.02
39 2.83
40 1.87
41 3.11
42 1.58
50 1.13
51 2.15
52 7.52
53 11.99
53.5 1.41
54 12.1
55 1.81
63 1.98
64 2.26
65 2.21
66 1.3
67 2.49
78 1.02
79 1.81
80 33.88
81 15.27
82 1.47
90 1.19
91 2.83
105 1.07
106 1
107 25.4
108 99.99
109 6.79

$$$$

     RDKit          2D

  8  8  0  0  0  0  0  0  0  0999 V2000
   -1.3000    0.7500    0.0000 C   0  0  0  0  0  0  0  0  0  0  0  0
    0.0000    1.5000    0.0000 C   0  0  0  0  0  0  0  0  0  0  0  0
   -1.3000   -0.7500    0.0000 C   0  0  0  0  0  0  0  0  0  0  0  0
    1.3000   -0.7500    0.0000 C   0  0  0  0  0  0  0  0  0  0  0  0
    1.3000    0.7500    0.0000 C   0  0  0  0  0  0  0  0  0  0  0  0
   -0.0000   -1.5000    0.0000 C   0  0  0  0  0  0  0  0  0  0  0  0
    2.5989    1.5002    0.0000 N   0  0  0  0  0  0  0  0  0  0  0  0
   -0.0000   -3.0000    0.0000 N   0  0  0  0  0  0  0  0  0  0  0  0
  2  1  2  0
  3  1  1  0
  5  2  1  0
  5  4  2  0
  6  3  2  0
  6  4  1  0
  7  5  1  0
  8  6  1  0
M  END
>  <NAME>  (6681) 
META-PHENYLENEDIAMINE

>  <SYNONYMS>  (6681) 
META-DIAMINOBENZENE

>  <SPECTRUM TYPE>  (6681) 
MS1

>  <INSTRUMENT TYPE>  (6681) 
EI-B

>  <INSTRUMENT>  (6681) 
HITACHI RMU-7M

>  <ION MODE>  (6681) 
P

>  <INCHIKEY>  (6681) 
WZCQRUWWHSTZEM-UHFFFAOYSA-N

>  <FORMULA>  (6681) 
C6H8N2

>  <EXACT MASS>  (6681) 
108.06874825599999

>  <MW>  (6681) 
108

>  <ID>  (6681) 
JP001298

>  <CONTRIBUTOR>  (6681) 
University of Tokyo Team, {Faculty of Engineering, University of Tokyo

>  <COMMENT>  (6681) 
SMILES=Nc(c1)cc(N)cc1
InChI=InChI=1S/C6H8N2/c7-5-2-1-3-6(8)4-5/h1-4H,7-8H2
computed SMILES=NC1=CC=CC(N)=C1
accession=JP001298
date=2016.01.19 (Created 2008.10.21, modified 2011.05.06)
author=TAJIMA S, GUNMA COLLEGE OF TECHNOLOGY
license=CC BY-NC-SA
exact mass=108.06875
ionization energy=70 eV
ion type=[M]+*
computed spectral entropy=2.7236619222120715
computed normalized entropy=0.7542851950953303
SPLASH=splash10-0a59-9400000000-30184968c7a5baeb3b5e
submitter=submitter = University of Tokyo Team (Faculty of Engineering, University of Tokyo)
MoNA Rating=3.75

>  <NUM PEAKS>  (6681) 
37

>  <MASS SPECTRAL PEAKS>  (6681) 
26 1.37
27 7.1
28 18.66
29 1.56
30 1.82
37 1.82
38 4.1
39 8.98
40 3.78
41 7.88
42 3.65
43 1.82
44 2.34
50 2.47
51 4.75
52 9.11
53 15.82
54 11.33
55 1.5
62 1.69
63 4.82
64 5.92
65 5.34
66 2.99
67 3.91
68 1.37
78 2.54
79 2.34
80 67.51
81 43.62
82 3.26
90 1.63
91 7.03
92 1.17
107 14
108 99.99
109 7.29

$$$$

     RDKit          2D

  8  8  0  0  0  0  0  0  0  0999 V2000
    0.6513   -2.2440    0.0000 C   0  0  0  0  0  0  0  0  0  0  0  0
    1.9458   -1.5018    0.0000 C   0  0  0  0  0  0  0  0  0  0  0  0
   -0.6478   -1.4940    0.0000 C   0  0  0  0  0  0  0  0  0  0  0  0
    1.9463   -0.0009    0.0000 C   0  0  0  0  0  0  0  0  0  0  0  0
   -0.6523   -0.0018    0.0000 C   0  0  0  0  0  0  0  0  0  0  0  0
    0.6472    0.7491    0.0000 C   0  0  0  0  0  0  0  0  0  0  0  0
   -1.9526    0.7460    0.0000 N   0  0  0  0  0  0  0  0  0  0  0  0
    0.6470    2.2491    0.0000 N   0  0  0  0  0  0  0  0  0  0  0  0
  2  1  2  0
  3  1  1  0
  4  2  1  0
  5  3  2  0
  6  4  2  0
  6  5  1  0
  7  5  1  0
  8  6  1  0
M  END
>  <NAME>  (6682) 
ORTHO-PHENYLENEDIAMINE

>  <SYNONYMS>  (6682) 
ORTHO-DIAMINOBENZENE

>  <SPECTRUM TYPE>  (6682) 
MS1

>  <INSTRUMENT TYPE>  (6682) 
EI-B

>  <INSTRUMENT>  (6682) 
HITACHI RMU-7M

>  <ION MODE>  (6682) 
P

>  <INCHIKEY>  (6682) 
GEYOCULIXLDCMW-UHFFFAOYSA-N

>  <FORMULA>  (6682) 
C6H8N2

>  <EXACT MASS>  (6682) 
108.06874825599999

>  <MW>  (6682) 
108

>  <ID>  (6682) 
JP001297

>  <CONTRIBUTOR>  (6682) 
University of Tokyo Team, {Faculty of Engineering, University of Tokyo

>  <COMMENT>  (6682) 
SMILES=Nc(c1)c(N)ccc1
InChI=InChI=1S/C6H8N2/c7-5-3-1-2-4-6(5)8/h1-4H,7-8H2
computed SMILES=NC=1C=CC=CC1N
accession=JP001297
date=2016.01.19 (Created 2008.10.21, modified 2011.05.06)
author=TAJIMA S, GUNMA COLLEGE OF TECHNOLOGY
license=CC BY-NC-SA
exact mass=108.06875
ionization energy=70 eV
ion type=[M]+*
computed spectral entropy=2.380094554684568
computed normalized entropy=0.7068266867108403
SPLASH=splash10-0a59-9500000000-526ad16a86063d1951a6
submitter=submitter = University of Tokyo Team (Faculty of Engineering, University of Tokyo)
MoNA Rating=3.75

>  <NUM PEAKS>  (6682) 
29

>  <MASS SPECTRAL PEAKS>  (6682) 
27 2.43
28 5
38 1.53
39 3.34
40 1.04
41 2.71
42 1.11
43 1.04
50 2.29
51 4.38
52 8.48
53 13.76
54 8.41
63 5.56
64 6.46
65 4.45
66 2.78
67 3.68
78 2.92
79 2.71
80 78.46
81 37.25
82 2.71
90 1.6
91 5.7
92 1.04
107 22.93
108 99.99
109 7.23

$$$$

     RDKit          2D

 18 18  0  0  0  0  0  0  0  0999 V2000
   -2.9356    5.4356    0.0000 C   0  0  0  0  0  0  0  0  0  0  0  0
   -0.3375    5.4400    0.0000 C   0  0  0  0  0  0  0  0  0  0  0  0
    6.1662    0.1908    0.0000 C   0  0  0  0  0  0  0  0  0  0  0  0
    4.8668    2.4406    0.0000 C   0  0  0  0  0  0  0  0  0  0  0  0
   -1.6200   -1.3100    0.0000 C   0  0  0  0  0  0  0  0  0  0  0  0
   -0.3300   -2.0600    0.0000 C   0  0  0  0  0  0  0  0  0  0  0  0
   -1.6200    0.1900    0.0000 C   0  0  0  0  0  0  0  0  0  0  0  0
    0.9700   -1.3100    0.0000 C   0  0  0  0  0  0  0  0  0  0  0  0
   -1.6353    4.6878    0.0000 C   0  0  0  0  0  0  0  0  0  0  0  0
    4.8670    0.9406    0.0000 C   0  0  0  0  0  0  0  0  0  0  0  0
   -0.3300    0.9400    0.0000 C   0  0  0  0  0  0  0  0  0  0  0  0
    0.9700    0.1900    0.0000 C   0  0  0  0  0  0  0  0  0  0  0  0
   -0.3325    2.4400    0.0000 C   0  0  0  0  0  0  0  0  0  0  0  0
    2.2689    0.9402    0.0000 C   0  0  0  0  0  0  0  0  0  0  0  0
    0.9653    3.1922    0.0000 O   0  0  0  0  0  0  0  0  0  0  0  0
    2.2687    2.4402    0.0000 O   0  0  0  0  0  0  0  0  0  0  0  0
   -1.6328    3.1878    0.0000 O   0  0  0  0  0  0  0  0  0  0  0  0
    3.5681    0.1904    0.0000 O   0  0  0  0  0  0  0  0  0  0  0  0
  6  5  2  0
  7  5  1  0
  8  6  1  0
  9  1  1  0
  9  2  1  0
 10  3  1  0
 10  4  1  0
 11  7  2  0
 12  8  2  0
 12 11  1  0
 13 11  1  0
 14 12  1  0
 15 13  2  0
 16 14  2  0
 17  9  1  0
 17 13  1  0
 18 10  1  0
 18 14  1  0
M  END
>  <NAME>  (6683) 
1,2-BENZENEDICARBOXYLIC ACID DIISOPROPYL ESTER

>  <SYNONYMS>  (6683) 
DIISOPROPYL PHTHALATE

>  <SPECTRUM TYPE>  (6683) 
MS1

>  <INSTRUMENT TYPE>  (6683) 
EI-B

>  <INSTRUMENT>  (6683) 
HITACHI RMU-7M

>  <ION MODE>  (6683) 
P

>  <INCHIKEY>  (6683) 
QWDBCIAVABMJPP-UHFFFAOYSA-N

>  <FORMULA>  (6683) 
C14H18O4

>  <EXACT MASS>  (6683) 
250.120509056

>  <MW>  (6683) 
250

>  <ID>  (6683) 
JP001296

>  <CONTRIBUTOR>  (6683) 
University of Tokyo Team, {Faculty of Engineering, University of Tokyo

>  <COMMENT>  (6683) 
SMILES=CC(C)OC(=O)c(c1)c(ccc1)C(=O)OC(C)C
InChI=InChI=1S/C14H18O4/c1-9(2)17-13(15)11-7-5-6-8-12(11)14(16)18-10(3)4/h5-10H,1-4H3
computed SMILES=O=C(OC(C)C)C=1C=CC=CC1C(=O)OC(C)C
license=CC BY-NC-SA
exact mass=250.12051
accession=JP001296
date=2016.01.19 (Created 2008.10.21, modified 2011.05.06)
author=TAJIMA S, GUNMA COLLEGE OF TECHNOLOGY
ionization energy=70 eV
ion type=[M]+*
computed spectral entropy=1.9625603616191056
computed normalized entropy=0.6175352798867592
SPLASH=splash10-0002-2900000000-2d21a6736a08e037d771
submitter=submitter = University of Tokyo Team (Faculty of Engineering, University of Tokyo)
MoNA Rating=3.75

>  <NUM PEAKS>  (6683) 
24

>  <MASS SPECTRAL PEAKS>  (6683) 
27 3.81
31 1
39 3.33
41 7.26
42 1.81
43 10.47
45 1.27
50 2.12
51 1.03
59 1.81
65 3.15
76 3.15
77 1.15
93 2.12
104 2.42
105 3.21
121 2.72
122 3.63
149 99.99
150 10.59
167 3.87
191 2.84
192 2.36
209 2.96

$$$$

     RDKit          2D

 14 13  0  0  0  0  0  0  0  0999 V2000
    3.8971    6.0000    0.0000 C   0  0  0  0  0  0  0  0  0  0  0  0
  -10.3923    6.7500    0.0000 C   0  0  0  0  0  0  0  0  0  0  0  0
    2.5981    6.7500    0.0000 C   0  0  0  0  0  0  0  0  0  0  0  0
   -9.0933    6.0000    0.0000 C   0  0  0  0  0  0  0  0  0  0  0  0
    1.2990    6.0000    0.0000 C   0  0  0  0  0  0  0  0  0  0  0  0
   -7.7942    6.7500    0.0000 C   0  0  0  0  0  0  0  0  0  0  0  0
    0.0000    6.7500    0.0000 C   0  0  0  0  0  0  0  0  0  0  0  0
   -6.4952    6.0000    0.0000 C   0  0  0  0  0  0  0  0  0  0  0  0
   -2.5981    6.7500    0.0000 C   0  0  0  0  0  0  0  0  0  0  0  0
   -3.8971    6.0000    0.0000 C   0  0  0  0  0  0  0  0  0  0  0  0
   -2.5981    8.2500    0.0000 O   0  0  0  0  0  0  0  0  0  0  0  0
   -3.8971    4.5000    0.0000 O   0  0  0  0  0  0  0  0  0  0  0  0
   -1.2990    6.0000    0.0000 O   0  0  0  0  0  0  0  0  0  0  0  0
   -5.1962    6.7500    0.0000 O   0  0  0  0  0  0  0  0  0  0  0  0
  3  1  1  0
  4  2  1  0
  5  3  1  0
  6  4  1  0
  7  5  1  0
  8  6  1  0
 10  9  1  0
 11  9  2  0
 12 10  2  0
 13  7  1  0
 13  9  1  0
 14  8  1  0
 14 10  1  0
M  END
>  <NAME>  (6684) 
OXALIC ACID DIBUTYL ESTER

>  <SYNONYMS>  (6684) 
ETHANEDIOIC ACID DIBUTYL ESTER

>  <SPECTRUM TYPE>  (6684) 
MS1

>  <INSTRUMENT TYPE>  (6684) 
EI-B

>  <INSTRUMENT>  (6684) 
HITACHI RMU-7M

>  <ION MODE>  (6684) 
P

>  <INCHIKEY>  (6684) 
JKRZOJADNVOXPM-UHFFFAOYSA-N

>  <FORMULA>  (6684) 
C10H18O4

>  <EXACT MASS>  (6684) 
202.120509056

>  <MW>  (6684) 
202

>  <ID>  (6684) 
JP001295

>  <CONTRIBUTOR>  (6684) 
University of Tokyo Team, {Faculty of Engineering, University of Tokyo

>  <COMMENT>  (6684) 
SMILES=CCCCOC(=O)C(=O)OCCCC
InChI=InChI=1S/C10H18O4/c1-3-5-7-13-9(11)10(12)14-8-6-4-2/h3-8H2,1-2H3
computed SMILES=O=C(OCCCC)C(=O)OCCCC
accession=JP001295
date=2016.01.19 (Created 2008.10.21, modified 2011.05.06)
author=TAJIMA S, GUNMA COLLEGE OF TECHNOLOGY
license=CC BY-NC-SA
exact mass=202.12051
ionization energy=70 eV
ion type=[M]+*
computed spectral entropy=1.9521194485891278
computed normalized entropy=0.7040782619256081
SPLASH=splash10-0a4i-9000000000-1cebf8deb4734cf3a291
submitter=submitter = University of Tokyo Team (Faculty of Engineering, University of Tokyo)
MoNA Rating=3.75

>  <NUM PEAKS>  (6684) 
16

>  <MASS SPECTRAL PEAKS>  (6684) 
27 9.09
28 5.31
29 43.19
30 1.3
31 5.49
39 4.72
40 1
41 49.26
42 3.83
43 5.78
44 2.54
55 6.73
56 26.72
57 99.99
58 4.25
73 1

$$$$

     RDKit          2D

  9  9  0  0  0  0  0  0  0  0999 V2000
    2.2733   -0.6175    0.0000 C   0  0  0  0  0  0  0  0  0  0  0  0
    2.2738    0.8833    0.0000 C   0  0  0  0  0  0  0  0  0  0  0  0
    0.9738   -1.3683    0.0000 C   0  0  0  0  0  0  0  0  0  0  0  0
    0.9748    1.6333    0.0000 C   0  0  0  0  0  0  0  0  0  0  0  0
   -0.3252   -0.6183    0.0000 C   0  0  0  0  0  0  0  0  0  0  0  0
   -0.3248    0.8825    0.0000 C   0  0  0  0  0  0  0  0  0  0  0  0
   -1.6238    1.6325    0.0000 C   0  0  0  0  0  0  0  0  0  0  0  0
   -2.9228    0.8825    0.0000 N   0  0  0  0  0  0  0  0  0  0  0  0
   -1.6238    3.1325    0.0000 O   0  0  0  0  0  0  0  0  0  0  0  0
  2  1  2  0
  3  1  1  0
  4  2  1  0
  5  3  2  0
  6  4  2  0
  6  5  1  0
  7  6  1  0
  8  7  2  0
  9  7  1  0
M  END
>  <NAME>  (6685) 
BENZAMIDE

>  <SYNONYMS>  (6685) 


>  <SPECTRUM TYPE>  (6685) 
MS1

>  <INSTRUMENT TYPE>  (6685) 
EI-B

>  <INSTRUMENT>  (6685) 
HITACHI RMU-7M

>  <ION MODE>  (6685) 
P

>  <INCHIKEY>  (6685) 
KXDAEFPNCMNJSK-UHFFFAOYSA-N

>  <FORMULA>  (6685) 
C7H7NO

>  <EXACT MASS>  (6685) 
121.052763844

>  <MW>  (6685) 
121

>  <ID>  (6685) 
JP001294

>  <CONTRIBUTOR>  (6685) 
University of Tokyo Team, {Faculty of Engineering, University of Tokyo

>  <COMMENT>  (6685) 
SMILES=NC(=O)c(c1)cccc1
InChI=InChI=1S/C7H7NO/c8-7(9)6-4-2-1-3-5-6/h1-5H,(H2,8,9)
computed SMILES=N=C(O)C=1C=CC=CC1
accession=JP001294
date=2016.01.19 (Created 2008.10.21, modified 2011.05.06)
author=TAJIMA S, GUNMA COLLEGE OF TECHNOLOGY
license=CC BY-NC-SA
exact mass=121.05276
ionization energy=70 eV
ion type=[M]+*
computed spectral entropy=2.252902576105397
computed normalized entropy=0.7399855386810783
SPLASH=splash10-0kk9-8900000000-a6264ed866860ca71f94
submitter=submitter = University of Tokyo Team (Faculty of Engineering, University of Tokyo)
MoNA Rating=3.75

>  <NUM PEAKS>  (6685) 
21

>  <MASS SPECTRAL PEAKS>  (6685) 
27 2.35
28 19.27
38 1.74
39 3.39
41 1.57
44 4.87
50 11.23
51 24.72
52 3.31
59 4.61
74 3.31
75 2.96
76 12.1
77 87.82
78 8.53
103 25.76
104 2.44
105 99.99
106 6.44
121 68.84
122 4.87

$$$$

     RDKit          2D

  7  6  0  0  0  0  0  0  0  0999 V2000
    1.9486    3.3750    0.0000 C   0  0  0  0  0  0  0  0  0  0  0  0
    0.6495    4.1250    0.0000 C   0  0  0  0  0  0  0  0  0  0  0  0
   -0.6495    3.3750    0.0000 C   0  0  0  0  0  0  0  0  0  0  0  0
   -1.9486    4.1250    0.0000 C   0  0  0  0  0  0  0  0  0  0  0  0
   -3.2476    3.3750    0.0000 C   0  0  0  0  0  0  0  0  0  0  0  0
   -4.5466    4.1250    0.0000 C   0  0  0  0  0  0  0  0  0  0  0  0
   -5.8457    3.3750    0.0000 O   0  0  0  0  0  0  0  0  0  0  0  0
  2  1  1  0
  3  2  1  0
  4  3  1  0
  5  4  1  0
  6  5  1  0
  7  6  1  0
M  END
>  <NAME>  (6686) 
HEXANOL

>  <SYNONYMS>  (6686) 
HEXYL ALCOHOL

>  <SPECTRUM TYPE>  (6686) 
MS1

>  <INSTRUMENT TYPE>  (6686) 
EI-B

>  <INSTRUMENT>  (6686) 
HITACHI RMU-7M

>  <ION MODE>  (6686) 
P

>  <INCHIKEY>  (6686) 
ZSIAUFGUXNUGDI-UHFFFAOYSA-N

>  <FORMULA>  (6686) 
C6H14O

>  <EXACT MASS>  (6686) 
102.104465068

>  <MW>  (6686) 
102

>  <ID>  (6686) 
JP001293

>  <CONTRIBUTOR>  (6686) 
University of Tokyo Team, {Faculty of Engineering, University of Tokyo

>  <COMMENT>  (6686) 
SMILES=CCCCCCO
InChI=InChI=1S/C6H14O/c1-2-3-4-5-6-7/h7H,2-6H2,1H3
computed SMILES=OCCCCCC
ionization energy=70 eV
accession=JP001293
date=2016.01.19 (Created 2008.10.21, modified 2011.05.06)
author=TAJIMA S, GUNMA COLLEGE OF TECHNOLOGY
license=CC BY-NC-SA
exact mass=102.10447
ion type=[M]+*
computed spectral entropy=2.289932560934813
computed normalized entropy=0.8456019611463562
SPLASH=splash10-0a4l-9000000000-35926852ac4ed3ed0959
submitter=submitter = University of Tokyo Team (Faculty of Engineering, University of Tokyo)
MoNA Rating=3.75

>  <NUM PEAKS>  (6686) 
15

>  <MASS SPECTRAL PEAKS>  (6686) 
27 13.65
28 10.63
29 20.47
31 21.65
39 6.82
41 39.63
42 41.21
43 61.29
44 3.02
55 47.9
56 99.99
57 7.74
69 25.59
70 2.36
84 4.2

$$$$

     RDKit          2D

  8  7  0  0  0  0  0  0  0  0999 V2000
   -2.5981    3.7500    0.0000 C   0  0  0  0  0  0  0  0  0  0  0  0
   -1.2990    4.5000    0.0000 C   0  0  0  0  0  0  0  0  0  0  0  0
   -3.8971    4.5000    0.0000 C   0  0  0  0  0  0  0  0  0  0  0  0
    0.0000    3.7500    0.0000 C   0  0  0  0  0  0  0  0  0  0  0  0
   -5.1962    3.7500    0.0000 C   0  0  0  0  0  0  0  0  0  0  0  0
    1.2990    4.5000    0.0000 C   0  0  0  0  0  0  0  0  0  0  0  0
   -6.4952    4.5000    0.0000 N   0  0  0  0  0  0  0  0  0  0  0  0
    2.5981    3.7500    0.0000 N   0  0  0  0  0  0  0  0  0  0  0  0
  2  1  1  0
  3  1  1  0
  4  2  1  0
  5  3  1  0
  6  4  1  0
  7  5  1  0
  8  6  1  0
M  END
>  <NAME>  (6687) 
1,6-DIAMINOHEXANE

>  <SYNONYMS>  (6687) 
HEXAMETHYLENEDIAMINE

>  <SPECTRUM TYPE>  (6687) 
MS1

>  <INSTRUMENT TYPE>  (6687) 
EI-B

>  <INSTRUMENT>  (6687) 
HITACHI RMU-7M

>  <ION MODE>  (6687) 
P

>  <INCHIKEY>  (6687) 
NAQMVNRVTILPCV-UHFFFAOYSA-N

>  <FORMULA>  (6687) 
C6H16N2

>  <EXACT MASS>  (6687) 
116.13134851199999

>  <MW>  (6687) 
116

>  <ID>  (6687) 
JP001292

>  <CONTRIBUTOR>  (6687) 
University of Tokyo Team, {Faculty of Engineering, University of Tokyo

>  <COMMENT>  (6687) 
SMILES=NCCCCCCN
InChI=InChI=1S/C6H16N2/c7-5-3-1-2-4-6-8/h1-8H2
computed SMILES=NCCCCCCN
accession=JP001292
date=2016.01.19 (Created 2008.10.21, modified 2011.05.06)
author=TAJIMA S, GUNMA COLLEGE OF TECHNOLOGY
license=CC BY-NC-SA
exact mass=116.13135
ionization energy=70 eV
ion type=[M]+*
computed spectral entropy=1.9259021759720134
computed normalized entropy=0.6230591151796003
SPLASH=splash10-001i-9000000000-c85b1ab3c5c1532beccc
submitter=submitter = University of Tokyo Team (Faculty of Engineering, University of Tokyo)
MoNA Rating=3.75

>  <NUM PEAKS>  (6687) 
22

>  <MASS SPECTRAL PEAKS>  (6687) 
27 2.48
28 11.63
29 1.65
30 99.99
31 3.06
39 2.07
41 4.63
42 4.47
43 2.48
44 3.47
45 2.98
55 2.48
56 11.99
59 1.82
69 2.07
70 3.56
72 1.49
82 1.57
86 3.47
87 9.26
99 1.24
100 2.07

$$$$

     RDKit          2D

 13 12  0  0  0  0  0  0  0  0999 V2000
    3.5724    4.3125    0.0000 C   0  0  0  0  0  0  0  0  0  0  0  0
   -5.5209    6.5625    0.0000 C   0  0  0  0  0  0  0  0  0  0  0  0
   -1.6238    2.8125    0.0000 C   0  0  0  0  0  0  0  0  0  0  0  0
   -6.8200    4.3125    0.0000 C   0  0  0  0  0  0  0  0  0  0  0  0
    0.9743    4.3125    0.0000 C   0  0  0  0  0  0  0  0  0  0  0  0
   -2.9228    5.0625    0.0000 C   0  0  0  0  0  0  0  0  0  0  0  0
    2.2733    5.0625    0.0000 C   0  0  0  0  0  0  0  0  0  0  0  0
   -5.5209    5.0625    0.0000 C   0  0  0  0  0  0  0  0  0  0  0  0
   -1.6238    4.3125    0.0000 C   0  0  0  0  0  0  0  0  0  0  0  0
   -8.1190    5.0625    0.0000 O   0  0  0  0  0  0  0  0  0  0  0  0
    2.2733    6.5625    0.0000 O   0  0  0  0  0  0  0  0  0  0  0  0
   -0.3248    5.0625    0.0000 O   0  0  0  0  0  0  0  0  0  0  0  0
   -4.2219    4.3125    0.0000 O   0  0  0  0  0  0  0  0  0  0  0  0
  7  1  1  0
  7  5  1  0
  8  2  1  0
  8  4  1  0
  9  3  1  0
  9  6  1  0
 10  4  1  0
 11  7  1  0
 12  5  1  0
 12  9  1  0
 13  6  1  0
 13  8  1  0
M  END
>  <NAME>  (6688) 
1,4,7-TRIMETHYL-3,6-DIOXAOCTANE-1,8-DIOL

>  <SYNONYMS>  (6688) 
TRIPROPYLENE GLYCOL

>  <SPECTRUM TYPE>  (6688) 
MS1

>  <INSTRUMENT TYPE>  (6688) 
EI-B

>  <INSTRUMENT>  (6688) 
HITACHI RMU-7M

>  <ION MODE>  (6688) 
P

>  <INCHIKEY>  (6688) 
LCZVSXRMYJUNFX-UHFFFAOYSA-N

>  <FORMULA>  (6688) 
C9H20O4

>  <EXACT MASS>  (6688) 
192.13615912

>  <MW>  (6688) 
192

>  <ID>  (6688) 
JP001290

>  <CONTRIBUTOR>  (6688) 
University of Tokyo Team, {Faculty of Engineering, University of Tokyo

>  <COMMENT>  (6688) 
SMILES=OCC(C)OCC(C)OCC(C)O
InChI=InChI=1S/C9H20O4/c1-7(11)5-12-9(3)6-13-8(2)4-10/h7-11H,4-6H2,1-3H3
computed SMILES=OCC(OCC(OCC(O)C)C)C
accession=JP001290
date=2016.01.19 (Created 2008.10.21, modified 2011.05.06)
author=TAJIMA S, GUNMA COLLEGE OF TECHNOLOGY
license=CC BY-NC-SA
exact mass=192.13616
ionization energy=70 eV
ion type=[M]+*
computed spectral entropy=1.9114326201116552
computed normalized entropy=0.6491670004493605
SPLASH=splash10-0a4i-9000000000-79aca2cf931627b945ac
submitter=submitter = University of Tokyo Team (Faculty of Engineering, University of Tokyo)
MoNA Rating=3.75

>  <NUM PEAKS>  (6688) 
19

>  <MASS SPECTRAL PEAKS>  (6688) 
15 1.14
27 1.99
28 1.34
29 2.85
31 15.03
39 1.64
41 11.61
42 5.84
43 5.7
45 15.38
57 5.2
58 4.34
59 99.99
60 3.21
72 1
73 1.14
103 9.47
104 1.07
117 4.63

$$$$

     RDKit          2D

 11 10  0  0  0  0  0  0  0  0999 V2000
    3.2476    5.6250    0.0000 C   0  0  0  0  0  0  0  0  0  0  0  0
   -8.4437    6.3750    0.0000 C   0  0  0  0  0  0  0  0  0  0  0  0
   -7.1447    5.6250    0.0000 C   0  0  0  0  0  0  0  0  0  0  0  0
    0.6495    5.6250    0.0000 C   0  0  0  0  0  0  0  0  0  0  0  0
   -0.6495    6.3750    0.0000 C   0  0  0  0  0  0  0  0  0  0  0  0
   -4.5466    5.6250    0.0000 C   0  0  0  0  0  0  0  0  0  0  0  0
   -3.2476    6.3750    0.0000 C   0  0  0  0  0  0  0  0  0  0  0  0
   -9.7428    5.6250    0.0000 O   0  0  0  0  0  0  0  0  0  0  0  0
    1.9486    6.3750    0.0000 O   0  0  0  0  0  0  0  0  0  0  0  0
   -5.8457    6.3750    0.0000 O   0  0  0  0  0  0  0  0  0  0  0  0
   -1.9486    5.6250    0.0000 O   0  0  0  0  0  0  0  0  0  0  0  0
  3  2  1  0
  5  4  1  0
  7  6  1  0
  8  2  1  0
  9  1  1  0
  9  4  1  0
 10  3  1  0
 10  6  1  0
 11  5  1  0
 11  7  1  0
M  END
>  <NAME>  (6689) 
3,6,9-TRIOXADECANE-1-OL

>  <SYNONYMS>  (6689) 
TRIETHYLENE GLYCOL MONOMETHYL ETHER

>  <SPECTRUM TYPE>  (6689) 
MS1

>  <INSTRUMENT TYPE>  (6689) 
EI-B

>  <INSTRUMENT>  (6689) 
HITACHI RMU-7M

>  <ION MODE>  (6689) 
P

>  <INCHIKEY>  (6689) 
JLGLQAWTXXGVEM-UHFFFAOYSA-N

>  <FORMULA>  (6689) 
C7H16O4

>  <EXACT MASS>  (6689) 
164.104858992

>  <MW>  (6689) 
164

>  <ID>  (6689) 
JP001289

>  <CONTRIBUTOR>  (6689) 
University of Tokyo Team, {Faculty of Engineering, University of Tokyo

>  <COMMENT>  (6689) 
SMILES=COCCOCCOCCO
InChI=InChI=1S/C7H16O4/c1-9-4-5-11-7-6-10-3-2-8/h8H,2-7H2,1H3
computed SMILES=OCCOCCOCCOC
accession=JP001289
date=2016.01.19 (Created 2008.10.21, modified 2011.05.06)
author=TAJIMA S, GUNMA COLLEGE OF TECHNOLOGY
license=CC BY-NC-SA
exact mass=164.10486
ionization energy=70 eV
ion type=[M]+*
computed spectral entropy=2.4181295225327957
computed normalized entropy=0.7181220910259343
SPLASH=splash10-0a4j-9000000000-562841fb0856c2a8cd69
submitter=submitter = University of Tokyo Team (Faculty of Engineering, University of Tokyo)
MoNA Rating=3.75

>  <NUM PEAKS>  (6689) 
29

>  <MASS SPECTRAL PEAKS>  (6689) 
15 9.44
19 3.25
26 1.27
27 7.94
28 8.57
29 24.21
30 1.83
31 26.59
33 1.19
41 1.43
42 1.19
43 10.48
44 9.6
45 99.99
46 2.3
57 1.59
58 33.02
59 79.37
60 3.57
73 1.19
75 3.17
87 4.21
88 3.17
89 16.75
90 1.19
101 1.19
102 2.22
103 3.1
119 2.06

$$$$

     RDKit          2D

  9  8  0  0  0  0  0  0  0  0999 V2000
    2.5981    4.5000    0.0000 C   0  0  0  0  0  0  0  0  0  0  0  0
    1.2990    5.2500    0.0000 C   0  0  0  0  0  0  0  0  0  0  0  0
   -6.4952    5.2500    0.0000 C   0  0  0  0  0  0  0  0  0  0  0  0
   -5.1962    4.5000    0.0000 C   0  0  0  0  0  0  0  0  0  0  0  0
   -1.2990    5.2500    0.0000 C   0  0  0  0  0  0  0  0  0  0  0  0
   -2.5981    4.5000    0.0000 C   0  0  0  0  0  0  0  0  0  0  0  0
   -7.7942    4.5000    0.0000 O   0  0  0  0  0  0  0  0  0  0  0  0
    0.0000    4.5000    0.0000 O   0  0  0  0  0  0  0  0  0  0  0  0
   -3.8971    5.2500    0.0000 O   0  0  0  0  0  0  0  0  0  0  0  0
  2  1  1  0
  4  3  1  0
  6  5  1  0
  7  3  1  0
  8  2  1  0
  8  5  1  0
  9  4  1  0
  9  6  1  0
M  END
>  <NAME>  (6690) 
3,6-DIOXAOCTANE-1-OL

>  <SYNONYMS>  (6690) 
DIETHYLENE GLYCOL MONOETHYL ETHER

>  <SPECTRUM TYPE>  (6690) 
MS1

>  <INSTRUMENT TYPE>  (6690) 
EI-B

>  <INSTRUMENT>  (6690) 
HITACHI RMU-7M

>  <ION MODE>  (6690) 
P

>  <INCHIKEY>  (6690) 
XXJWXESWEXIICW-UHFFFAOYSA-N

>  <FORMULA>  (6690) 
C6H14O3

>  <EXACT MASS>  (6690) 
134.094294308

>  <MW>  (6690) 
134

>  <ID>  (6690) 
JP001288

>  <CONTRIBUTOR>  (6690) 
University of Tokyo Team, {Faculty of Engineering, University of Tokyo

>  <COMMENT>  (6690) 
SMILES=CCOCCOCCO
InChI=InChI=1S/C6H14O3/c1-2-8-5-6-9-4-3-7/h7H,2-6H2,1H3
computed SMILES=OCCOCCOCC
accession=JP001288
date=2016.01.19 (Created 2008.10.21, modified 2011.05.06)
author=TAJIMA S, GUNMA COLLEGE OF TECHNOLOGY
license=CC BY-NC-SA
exact mass=134.09429
ionization energy=70 eV
ion type=[M]+*
computed spectral entropy=2.307246358151188
computed normalized entropy=0.7578352287909096
SPLASH=splash10-0002-9000000000-571a681a0c459379a0c7
submitter=submitter = University of Tokyo Team (Faculty of Engineering, University of Tokyo)
MoNA Rating=3.75

>  <NUM PEAKS>  (6690) 
21

>  <MASS SPECTRAL PEAKS>  (6690) 
15 3.47
19 3.91
27 9.33
28 4.1
29 17.28
31 34.87
41 3.15
42 1.01
43 10.21
44 6.56
45 99.99
46 2.46
59 35.31
60 9.27
61 2.46
62 1.45
72 20.18
73 12.17
75 5.04
103 2.46
104 3.28

$$$$

     RDKit          2D

 13 14  0  0  0  0  0  0  0  0999 V2000
    6.1271    0.5392    0.0000 C   0  0  0  0  0  0  0  0  0  0  0  0
   -1.6700    0.5404    0.0000 C   0  0  0  0  0  0  0  0  0  0  0  0
    6.1271   -0.9608    0.0000 C   0  0  0  0  0  0  0  0  0  0  0  0
    4.8271    1.2892    0.0000 C   0  0  0  0  0  0  0  0  0  0  0  0
   -0.3710    1.2904    0.0000 C   0  0  0  0  0  0  0  0  0  0  0  0
   -1.6695   -0.9604    0.0000 C   0  0  0  0  0  0  0  0  0  0  0  0
    4.8271   -1.7108    0.0000 C   0  0  0  0  0  0  0  0  0  0  0  0
    3.5271    0.5392    0.0000 C   0  0  0  0  0  0  0  0  0  0  0  0
    0.9286    0.5396    0.0000 C   0  0  0  0  0  0  0  0  0  0  0  0
   -0.3700   -1.7112    0.0000 C   0  0  0  0  0  0  0  0  0  0  0  0
    3.5271   -0.9608    0.0000 C   0  0  0  0  0  0  0  0  0  0  0  0
    0.9290   -0.9612    0.0000 C   0  0  0  0  0  0  0  0  0  0  0  0
    2.2282   -1.7110    0.0000 O   0  0  0  0  0  0  0  0  0  0  0  0
  3  1  2  0
  4  1  1  0
  5  2  2  0
  6  2  1  0
  7  3  1  0
  8  4  2  0
  9  5  1  0
 10  6  2  0
 11  7  2  0
 11  8  1  0
 12  9  2  0
 12 10  1  0
 13 11  1  0
 13 12  1  0
M  END
>  <NAME>  (6691) 
DIPHENYL ETHER

>  <SYNONYMS>  (6691) 


>  <SPECTRUM TYPE>  (6691) 
MS1

>  <INSTRUMENT TYPE>  (6691) 
EI-B

>  <INSTRUMENT>  (6691) 
HITACHI RMU-7M

>  <ION MODE>  (6691) 
P

>  <INCHIKEY>  (6691) 
USIUVYZYUHIAEV-UHFFFAOYSA-N

>  <FORMULA>  (6691) 
C12H10O

>  <EXACT MASS>  (6691) 
170.07316494

>  <MW>  (6691) 
170

>  <ID>  (6691) 
JP001287

>  <CONTRIBUTOR>  (6691) 
University of Tokyo Team, {Faculty of Engineering, University of Tokyo

>  <COMMENT>  (6691) 
SMILES=c(c2)ccc(c2)Oc(c1)cccc1
InChI=InChI=1S/C12H10O/c1-3-7-11(8-4-1)13-12-9-5-2-6-10-12/h1-10H
computed SMILES=O(C=1C=CC=CC1)C=2C=CC=CC2
accession=JP001287
date=2016.01.19 (Created 2008.10.21, modified 2011.05.06)
author=TAJIMA S, GUNMA COLLEGE OF TECHNOLOGY
license=CC BY-NC-SA
exact mass=170.07316
ionization energy=70 eV
ion type=[M]+*
computed spectral entropy=2.5226418927962326
computed normalized entropy=0.7654025351851014
SPLASH=splash10-0fkc-6900000000-b128f1e4f832b1e51dc2
submitter=submitter = University of Tokyo Team (Faculty of Engineering, University of Tokyo)
MoNA Rating=3.75

>  <NUM PEAKS>  (6691) 
27

>  <MASS SPECTRAL PEAKS>  (6691) 
27 2.27
38 2.48
39 13.82
50 10.58
51 51.3
52 2.16
55 2.16
63 5.18
65 6.48
66 2.16
70 3.78
71 4.32
74 2.38
76 2.05
77 42.66
78 2.7
85 1.98
94 3.89
115 11.34
139 2.81
141 50.86
142 37.8
143 3.56
168 2.05
169 23.22
170 99.99
171 11.88

$$$$

     RDKit          2D

 11 11  0  0  0  0  0  0  0  0999 V2000
   -2.2733   -1.3675    0.0000 C   0  0  0  0  0  0  0  0  0  0  0  0
   -3.5724    0.8825    0.0000 C   0  0  0  0  0  0  0  0  0  0  0  0
   -0.9743   -0.6175    0.0000 C   0  0  0  0  0  0  0  0  0  0  0  0
   -2.2733    1.6325    0.0000 C   0  0  0  0  0  0  0  0  0  0  0  0
    2.9228    3.1325    0.0000 C   0  0  0  0  0  0  0  0  0  0  0  0
    2.9233    1.6317    0.0000 C   0  0  0  0  0  0  0  0  0  0  0  0
    1.6233    3.8833    0.0000 C   0  0  0  0  0  0  0  0  0  0  0  0
    1.6243    0.8817    0.0000 C   0  0  0  0  0  0  0  0  0  0  0  0
    0.3243    3.1333    0.0000 C   0  0  0  0  0  0  0  0  0  0  0  0
    0.3248    1.6325    0.0000 C   0  0  0  0  0  0  0  0  0  0  0  0
   -0.9743    0.8825    0.0000 N   0  0  0  0  0  0  0  0  0  0  0  0
  3  1  1  0
  4  2  1  0
  6  5  2  0
  7  5  1  0
  8  6  1  0
  9  7  2  0
 10  8  2  0
 10  9  1  0
 11  3  1  0
 11  4  1  0
 11 10  1  0
M  END
>  <NAME>  (6692) 
N,N-DIETHYLANILINE

>  <SYNONYMS>  (6692) 


>  <SPECTRUM TYPE>  (6692) 
MS1

>  <INSTRUMENT TYPE>  (6692) 
EI-B

>  <INSTRUMENT>  (6692) 
HITACHI RMU-7M

>  <ION MODE>  (6692) 
P

>  <INCHIKEY>  (6692) 
GGSUCNLOZRCGPQ-UHFFFAOYSA-N

>  <FORMULA>  (6692) 
C10H15N

>  <EXACT MASS>  (6692) 
149.12044948

>  <MW>  (6692) 
149

>  <ID>  (6692) 
JP001286

>  <CONTRIBUTOR>  (6692) 
University of Tokyo Team, {Faculty of Engineering, University of Tokyo

>  <COMMENT>  (6692) 
SMILES=CCN(CC)c(c1)cccc1
InChI=InChI=1S/C10H15N/c1-3-11(4-2)10-8-6-5-7-9-10/h5-9H,3-4H2,1-2H3
computed SMILES=C=1C=CC(=CC1)N(CC)CC
accession=JP001286
date=2016.01.19 (Created 2008.10.21, modified 2011.05.06)
author=TAJIMA S, GUNMA COLLEGE OF TECHNOLOGY
license=CC BY-NC-SA
exact mass=149.12045
ionization energy=70 eV
ion type=[M]+*
computed spectral entropy=2.283157404125078
computed normalized entropy=0.7093027281406743
SPLASH=splash10-001i-2900000000-d2c4f5ccc7dd768ad007
submitter=submitter = University of Tokyo Team (Faculty of Engineering, University of Tokyo)
MoNA Rating=3.75

>  <NUM PEAKS>  (6692) 
25

>  <MASS SPECTRAL PEAKS>  (6692) 
27 3.81
28 2.11
29 4.37
39 2.32
42 1.76
50 1.13
51 8.17
52 1.13
65 2.18
77 22.83
78 3.38
79 6.55
91 3.38
104 7.4
105 3.24
106 47.36
107 3.38
118 2.54
119 2.11
120 4.37
134 99.99
135 9.58
148 2.75
149 28.61
150 2.89

$$$$

     RDKit          2D

 19 19  0  0  0  0  0  0  0  0999 V2000
   -3.8533    2.6915    0.0000 C   0  0  0  0  0  0  0  0  0  0  0  0
   -4.3663    4.1010    0.0000 H   0  0  0  0  0  0  0  0  0  0  0  0
   -5.2628    2.1785    0.0000 H   0  0  0  0  0  0  0  0  0  0  0  0
   -3.3403    1.2819    0.0000 H   0  0  0  0  0  0  0  0  0  0  0  0
   -3.7165    4.7213    0.0000 C   0  0  0  0  0  0  0  0  0  0  0  0
   -2.5674    5.6855    0.0000 H   0  0  0  0  0  0  0  0  0  0  0  0
   -4.6807    5.8703    0.0000 H   0  0  0  0  0  0  0  0  0  0  0  0
   -5.4312    3.7313    0.0000 H   0  0  0  0  0  0  0  0  0  0  0  0
    4.0514    0.9545    0.0000 C   0  0  0  0  0  0  0  0  0  0  0  0
    4.0519    2.4553    0.0000 C   0  0  0  0  0  0  0  0  0  0  0  0
    2.7519    0.2037    0.0000 C   0  0  0  0  0  0  0  0  0  0  0  0
    2.7529    3.2053    0.0000 C   0  0  0  0  0  0  0  0  0  0  0  0
    1.4529    0.9537    0.0000 C   0  0  0  0  0  0  0  0  0  0  0  0
   -2.4438    3.2045    0.0000 C   0  0  0  0  0  0  0  0  0  0  0  0
   -1.4796    4.3536    0.0000 H   0  0  0  0  0  0  0  0  0  0  0  0
    1.4534    2.4545    0.0000 C   0  0  0  0  0  0  0  0  0  0  0  0
    0.1543    3.2045    0.0000 C   0  0  0  0  0  0  0  0  0  0  0  0
    0.1543    4.7045    0.0000 O   0  0  0  0  0  0  0  0  0  0  0  0
   -1.1447    2.4545    0.0000 O   0  0  0  0  0  0  0  0  0  0  0  0
  1  2  1  0
  1  3  1  0
  1  4  1  0
  5  6  1  0
  5  7  1  0
  5  8  1  0
 14 15  1  0
 10  9  2  0
 11  9  1  0
 12 10  1  0
 13 11  2  0
 14  1  1  0
 14  5  1  0
 16 12  2  0
 16 13  1  0
 17 16  1  0
 18 17  2  0
 19 14  1  0
 19 17  1  0
M  ISO  7   2   2   3   2   4   2   6   2   7   2   8   2  15   2
M  END
>  <NAME>  (6693) 
(1,1,1,2,3,3,3-2H7)ISOPROPYL BENZOATE

>  <SYNONYMS>  (6693) 
ISOPROPYL BENZOATE (1,1,1,2,3,3,3-D7)

>  <SPECTRUM TYPE>  (6693) 
MS1

>  <INSTRUMENT TYPE>  (6693) 
EI-B

>  <INSTRUMENT>  (6693) 
HITACHI RMU-7M

>  <ION MODE>  (6693) 
P

>  <INCHIKEY>  (6693) 
FEXQDZTYJVXMOS-UNAVHCQLSA-N

>  <FORMULA>  (6693) 
C10H12O2

>  <EXACT MASS>  (6693) 
171.127666846

>  <MW>  (6693) 
171

>  <ID>  (6693) 
JP001285

>  <CONTRIBUTOR>  (6693) 
University of Tokyo Team, {Faculty of Engineering, University of Tokyo

>  <COMMENT>  (6693) 
SMILES=[2H]C([2H])([2H])C([2H])(C([2H])([2H])[2H])OC(=O)c(c1)cccc1
InChI=InChI=1S/C10H12O2/c1-8(2)12-10(11)9-6-4-3-5-7-9/h3-8H,1-2H3/i1D3,2D3,8D
computed SMILES=[H]C(OC(=O)C=1C=CC=CC1)(C([H])([H])[H])C([H])([H])[H]
accession=JP001285
date=2016.01.19 (Created 2008.10.21, modified 2011.05.06)
author=TAJIMA S, GUNMA COLLEGE OF TECHNOLOGY
license=CC BY-NC-SA
exact mass=164.08373
ionization energy=70 eV
ion type=[M]+*
computed spectral entropy=2.4036210133538503
computed normalized entropy=0.7467268525191613
SPLASH=splash10-0a6r-5900000000-b80a39a2bcb69dca2a09
submitter=submitter = University of Tokyo Team (Faculty of Engineering, University of Tokyo)
MoNA Rating=3.75

>  <NUM PEAKS>  (6693) 
25

>  <MASS SPECTRAL PEAKS>  (6693) 
18 1.87
30 5.13
42 1.68
46 8.19
48 1.87
50 16.07
51 14
66 20.02
76 1.87
77 31.46
78 3.16
79 1.78
81 1.28
105 99.99
106 13.12
107 3.75
122 3.35
123 20.91
124 1.87
125 26.43
126 1.87
152 1.38
153 1.97
171 10.95
172 1.08

$$$$

     RDKit          2D

  5  4  0  0  0  0  0  0  0  0999 V2000
   -3.8971    2.2500    0.0000 C   0  0  0  0  0  0  0  0  0  0  0  0
   -2.5981    1.5000    0.0000 C   0  0  0  0  0  0  0  0  0  0  0  0
   -1.2990    2.2500    0.0000 C   0  0  0  0  0  0  0  0  0  0  0  0
    0.0000    1.5000    0.0000 C   0  0  0  0  0  0  0  0  0  0  0  0
    1.2990    2.2500    0.0000 N   0  0  0  0  0  0  0  0  0  0  0  0
  2  1  1  0
  3  2  1  0
  4  3  1  0
  5  4  1  0
M  END
>  <NAME>  (6694) 
1-BUTANAMINE

>  <SYNONYMS>  (6694) 
BUTYLAMINE

>  <SPECTRUM TYPE>  (6694) 
MS1

>  <INSTRUMENT TYPE>  (6694) 
EI-B

>  <INSTRUMENT>  (6694) 
HITACHI RMU-7M

>  <ION MODE>  (6694) 
P

>  <INCHIKEY>  (6694) 
HQABUPZFAYXKJW-UHFFFAOYSA-N

>  <FORMULA>  (6694) 
C4H11N

>  <EXACT MASS>  (6694) 
73.089149352

>  <MW>  (6694) 
73

>  <ID>  (6694) 
JP001284

>  <CONTRIBUTOR>  (6694) 
University of Tokyo Team, {Faculty of Engineering, University of Tokyo

>  <COMMENT>  (6694) 
SMILES=CCCCN
InChI=InChI=1S/C4H11N/c1-2-3-4-5/h2-5H2,1H3
computed SMILES=NCCCC
accession=JP001284
date=2016.01.19 (Created 2008.10.21, modified 2011.05.06)
author=TAJIMA S, GUNMA COLLEGE OF TECHNOLOGY
license=CC BY-NC-SA
exact mass=73.08915
ionization energy=70 eV
ion type=[M]+*
computed spectral entropy=0.8620232622273405
computed normalized entropy=0.3743719460575738
SPLASH=splash10-001i-9000000000-1879b6b6042c35ccc03f
submitter=submitter = University of Tokyo Team (Faculty of Engineering, University of Tokyo)
MoNA Rating=3.75

>  <NUM PEAKS>  (6694) 
10

>  <MASS SPECTRAL PEAKS>  (6694) 
27 2.14
28 3.6
29 1.76
30 99.99
31 1.45
39 1.15
41 2.98
42 1
44 1.38
73 8.34

$$$$

     RDKit          2D

  7  6  0  0  0  0  0  0  0  0999 V2000
   -3.8971    2.2500    0.0000 C   0  0  0  0  0  0  0  0  0  0  0  0
   -2.5981    1.5000    0.0000 C   0  0  0  0  0  0  0  0  0  0  0  0
   -1.2990    2.2500    0.0000 C   0  0  0  0  0  0  0  0  0  0  0  0
    0.0000    1.5000    0.0000 C   0  0  0  0  0  0  0  0  0  0  0  0
   -1.2990    3.7500    0.0000 O   0  0  0  0  0  0  0  0  0  0  0  0
   -0.0000    0.0000    0.0000 O   0  0  0  0  0  0  0  0  0  0  0  0
    1.2990    2.2500    0.0000 O   0  0  0  0  0  0  0  0  0  0  0  0
  2  1  1  0
  3  2  1  0
  4  3  1  0
  5  3  1  0
  6  4  2  0
  7  4  1  0
M  END
>  <NAME>  (6695) 
DL-2-HYDROXYBUTANOIC ACID

>  <SYNONYMS>  (6695) 
DL-2-HYDROXYBUTYRIC ACID

>  <SPECTRUM TYPE>  (6695) 
MS1

>  <INSTRUMENT TYPE>  (6695) 
EI-B

>  <INSTRUMENT>  (6695) 
HITACHI RMU-7M

>  <ION MODE>  (6695) 
P

>  <INCHIKEY>  (6695) 
AFENDNXGAFYKQO-UHFFFAOYSA-N

>  <FORMULA>  (6695) 
C4H8O3

>  <EXACT MASS>  (6695) 
104.04734411599999

>  <MW>  (6695) 
104

>  <ID>  (6695) 
JP001283

>  <CONTRIBUTOR>  (6695) 
University of Tokyo Team, {Faculty of Engineering, University of Tokyo

>  <COMMENT>  (6695) 
SMILES=CCC(O)C(O)=O
InChI=InChI=1S/C4H8O3/c1-2-3(5)4(6)7/h3,5H,2H2,1H3,(H,6,7)
computed SMILES=O=C(O)C(O)CC
accession=JP001283
date=2016.01.19 (Created 2008.10.21, modified 2011.05.06)
author=TAJIMA S, GUNMA COLLEGE OF TECHNOLOGY
license=CC BY-NC-SA
exact mass=104.04734
ionization energy=70 eV
ion type=[M]+*
computed spectral entropy=2.4162252614266007
computed normalized entropy=0.750642582344889
SPLASH=splash10-0a4i-9000000000-4d935da8e593ec61fd96
submitter=submitter = University of Tokyo Team (Faculty of Engineering, University of Tokyo)
MoNA Rating=3.75

>  <NUM PEAKS>  (6695) 
25

>  <MASS SPECTRAL PEAKS>  (6695) 
15 1.59
19 3.19
26 1.67
27 8.37
28 7.24
29 11.63
30 1.83
31 28.84
39 6.45
40 1.27
41 31.87
42 6.22
43 5.58
44 6.53
45 5.42
55 15.3
56 1.27
57 9.64
58 7.81
59 99.99
60 4.46
70 8.37
76 1.59
92 1.43
105 1

$$$$

     RDKit          2D

 10 10  0  0  0  0  0  0  0  0999 V2000
   -0.3325    2.8100    0.0000 C   0  0  0  0  0  0  0  0  0  0  0  0
   -1.6200   -0.9400    0.0000 C   0  0  0  0  0  0  0  0  0  0  0  0
   -1.6200    0.5600    0.0000 C   0  0  0  0  0  0  0  0  0  0  0  0
   -0.3300   -1.6900    0.0000 C   0  0  0  0  0  0  0  0  0  0  0  0
    0.9700    0.5600    0.0000 C   0  0  0  0  0  0  0  0  0  0  0  0
   -0.3300    1.3100    0.0000 C   0  0  0  0  0  0  0  0  0  0  0  0
    0.9700   -0.9400    0.0000 C   0  0  0  0  0  0  0  0  0  0  0  0
    2.2689   -1.6902    0.0000 C   0  0  0  0  0  0  0  0  0  0  0  0
    2.2687   -3.1902    0.0000 Cl  0  0  0  0  0  0  0  0  0  0  0  0
    3.5681   -0.9404    0.0000 O   0  0  0  0  0  0  0  0  0  0  0  0
  3  2  2  0
  4  2  1  0
  6  1  1  0
  6  3  1  0
  6  5  2  0
  7  4  2  0
  7  5  1  0
  8  7  1  0
  9  8  1  0
 10  8  2  0
M  END
>  <NAME>  (6696) 
META-TOLUOYL CHLORIDE

>  <SYNONYMS>  (6696) 
M-METHYLBENZOYL CHLORIDE

>  <SPECTRUM TYPE>  (6696) 
MS1

>  <INSTRUMENT TYPE>  (6696) 
EI-B

>  <INSTRUMENT>  (6696) 
HITACHI RMU-7M

>  <ION MODE>  (6696) 
P

>  <INCHIKEY>  (6696) 
YHOYYHYBFSYOSQ-UHFFFAOYSA-N

>  <FORMULA>  (6696) 
C8H7ClO

>  <EXACT MASS>  (6696) 
154.018542524

>  <MW>  (6696) 
154

>  <ID>  (6696) 
JP001282

>  <CONTRIBUTOR>  (6696) 
University of Tokyo Team, {Faculty of Engineering, University of Tokyo

>  <COMMENT>  (6696) 
SMILES=Cc(c1)cc(cc1)C(=O)Cl
InChI=InChI=1S/C8H7ClO/c1-6-3-2-4-7(5-6)8(9)10/h2-5H,1H3
computed SMILES=O=C(Cl)C1=CC=CC(=C1)C
accession=JP001282
date=2016.01.19 (Created 2008.10.21, modified 2011.05.06)
author=TAJIMA S, GUNMA COLLEGE OF TECHNOLOGY
license=CC BY-NC-SA
exact mass=154.01854
ionization energy=70 eV
ion type=[M]+*
computed spectral entropy=2.0774903125193243
computed normalized entropy=0.6721002198666665
SPLASH=splash10-014l-9600000000-9ae967ad6ad30004b79c
submitter=submitter = University of Tokyo Team (Faculty of Engineering, University of Tokyo)
MoNA Rating=3.75

>  <NUM PEAKS>  (6696) 
22

>  <MASS SPECTRAL PEAKS>  (6696) 
38 1.83
39 12.2
41 1.65
45 1.74
45.5 3.58
50 4.95
51 4.5
59 2.11
59.5 1.19
61 1.01
62 3.67
63 10.28
64 1.74
65 22.94
89 7.43
90 2.84
91 72.39
92 4.59
119 99.99
120 7.61
154 6.42
156 1.74

$$$$

     RDKit          2D

  5  4  0  0  0  0  0  0  0  0999 V2000
   -0.0000   -0.0000    0.0000 C   0  0  0  0  0  0  0  0  0  0  0  0
   -1.2990    3.7500    0.0000 C   0  0  0  0  0  0  0  0  0  0  0  0
    0.0000    1.5000    0.0000 C   0  0  0  0  0  0  0  0  0  0  0  0
   -1.2990    2.2500    0.0000 C   0  0  0  0  0  0  0  0  0  0  0  0
   -2.5981    1.5000    0.0000 Cl  0  0  0  0  0  0  0  0  0  0  0  0
  3  1  1  0
  4  2  1  0
  4  3  1  0
  5  4  1  0
M  END
>  <NAME>  (6697) 
2-CHLOROBUTANE

>  <SYNONYMS>  (6697) 
SEC-BUTYL CHLORIDE

>  <SPECTRUM TYPE>  (6697) 
MS1

>  <INSTRUMENT TYPE>  (6697) 
EI-B

>  <INSTRUMENT>  (6697) 
HITACHI RMU-7M

>  <ION MODE>  (6697) 
P

>  <INCHIKEY>  (6697) 
BSPCSKHALVHRSR-UHFFFAOYSA-N

>  <FORMULA>  (6697) 
C4H9Cl

>  <EXACT MASS>  (6697) 
92.039277968

>  <MW>  (6697) 
92

>  <ID>  (6697) 
JP001281

>  <CONTRIBUTOR>  (6697) 
University of Tokyo Team, {Faculty of Engineering, University of Tokyo

>  <COMMENT>  (6697) 
SMILES=CCC(C)Cl
InChI=InChI=1S/C4H9Cl/c1-3-4(2)5/h4H,3H2,1-2H3
computed SMILES=ClC(C)CC
accession=JP001281
date=2016.01.19 (Created 2008.10.21, modified 2011.05.06)
author=TAJIMA S, GUNMA COLLEGE OF TECHNOLOGY
license=CC BY-NC-SA
exact mass=92.03928
ionization energy=70 eV
ion type=[M]+*
computed spectral entropy=2.4501388212463824
computed normalized entropy=0.7520154153364217
SPLASH=splash10-0a4i-9000000000-ea730e10deeb522e0b25
submitter=submitter = University of Tokyo Team (Faculty of Engineering, University of Tokyo)
MoNA Rating=3.75

>  <NUM PEAKS>  (6697) 
26

>  <MASS SPECTRAL PEAKS>  (6697) 
15 1.77
26 5.15
27 40.5
28 10.6
29 42.86
38 2.28
39 14.87
40 2.43
41 64.95
42 3.02
43 1.55
45 2.21
49 2.87
50 2.21
51 2.36
53 2.06
55 8.17
56 95.73
57 99.99
58 4.34
62 13.62
63 44.26
64 5.15
65 13.92
77 5.23
79 1.91

$$$$

     RDKit          2D

  8  8  0  0  0  0  0  0  0  0999 V2000
    2.2733   -0.6175    0.0000 C   0  0  0  0  0  0  0  0  0  0  0  0
    2.2738    0.8833    0.0000 C   0  0  0  0  0  0  0  0  0  0  0  0
    0.9738   -1.3683    0.0000 C   0  0  0  0  0  0  0  0  0  0  0  0
    0.9748    1.6333    0.0000 C   0  0  0  0  0  0  0  0  0  0  0  0
   -0.3252   -0.6183    0.0000 C   0  0  0  0  0  0  0  0  0  0  0  0
   -1.6238    1.6325    0.0000 C   0  0  0  0  0  0  0  0  0  0  0  0
   -0.3248    0.8825    0.0000 C   0  0  0  0  0  0  0  0  0  0  0  0
   -2.9228    0.8825    0.0000 O   0  0  0  0  0  0  0  0  0  0  0  0
  2  1  2  0
  3  1  1  0
  4  2  1  0
  5  3  2  0
  7  4  2  0
  7  5  1  0
  7  6  1  0
  8  6  1  0
M  END
>  <NAME>  (6698) 
BENZYL ALCOHOL

>  <SYNONYMS>  (6698) 


>  <SPECTRUM TYPE>  (6698) 
MS1

>  <INSTRUMENT TYPE>  (6698) 
EI-B

>  <INSTRUMENT>  (6698) 
HITACHI RMU-7M

>  <ION MODE>  (6698) 
P

>  <INCHIKEY>  (6698) 
WVDDGKGOMKODPV-UHFFFAOYSA-N

>  <FORMULA>  (6698) 
C7H8O

>  <EXACT MASS>  (6698) 
108.057514876

>  <MW>  (6698) 
108

>  <ID>  (6698) 
JP001280

>  <CONTRIBUTOR>  (6698) 
University of Tokyo Team, {Faculty of Engineering, University of Tokyo

>  <COMMENT>  (6698) 
SMILES=OCc(c1)cccc1
InChI=InChI=1S/C7H8O/c8-6-7-4-2-1-3-5-7/h1-5,8H,6H2
computed SMILES=OCC=1C=CC=CC1
accession=JP001280
date=2016.01.19 (Created 2008.10.21, modified 2011.05.06)
author=TAJIMA S, GUNMA COLLEGE OF TECHNOLOGY
license=CC BY-NC-SA
exact mass=108.05751
ionization energy=70 eV
ion type=[M]+*
computed spectral entropy=2.687771013873617
computed normalized entropy=0.7443456425475483
SPLASH=splash10-056r-9400000000-77cec715500da9c57a84
submitter=submitter = University of Tokyo Team (Faculty of Engineering, University of Tokyo)
MoNA Rating=3.75

>  <NUM PEAKS>  (6698) 
37

>  <MASS SPECTRAL PEAKS>  (6698) 
26 1.19
27 6.14
28 2.57
29 4.01
31 3.26
37 1.63
38 3.26
39 12.47
40 1.13
41 1.13
49 1.13
50 11.34
51 24.69
52 6.58
53 6.52
54 1.19
61 1.19
62 2.57
63 5.64
64 1.25
65 7.27
74 3.07
75 2.07
76 1.57
77 53.88
78 10.71
79 99.99
80 9.09
89 6.27
90 7.64
91 16.73
92 2.13
105 5.33
106 2.51
107 62.41
108 82.46
109 5.95

$$$$

     RDKit          2D

  6  5  0  0  0  0  0  0  0  0999 V2000
    0.0000    0.0000    0.0000 C   0  0  0  0  0  0  0  0  0  0  0  0
   -0.5490    3.5490    0.0000 C   0  0  0  0  0  0  0  0  0  0  0  0
   -2.5981    3.0000    0.0000 C   0  0  0  0  0  0  0  0  0  0  0  0
    0.0000    1.5000    0.0000 C   0  0  0  0  0  0  0  0  0  0  0  0
   -1.2990    2.2500    0.0000 C   0  0  0  0  0  0  0  0  0  0  0  0
   -2.0490    0.9510    0.0000 O   0  0  0  0  0  0  0  0  0  0  0  0
  4  1  1  0
  5  2  1  0
  5  3  1  0
  5  4  1  0
  6  5  1  0
M  END
>  <NAME>  (6699) 
2-METHYL-2-BUTANOL

>  <SYNONYMS>  (6699) 
TERT-PENTYL ALCOHOL

>  <SPECTRUM TYPE>  (6699) 
MS1

>  <INSTRUMENT TYPE>  (6699) 
EI-B

>  <INSTRUMENT>  (6699) 
HITACHI RMU-7M

>  <ION MODE>  (6699) 
P

>  <INCHIKEY>  (6699) 
MSXVEPNJUHWQHW-UHFFFAOYSA-N

>  <FORMULA>  (6699) 
C5H12O

>  <EXACT MASS>  (6699) 
88.088815004

>  <MW>  (6699) 
88

>  <ID>  (6699) 
JP001279

>  <CONTRIBUTOR>  (6699) 
University of Tokyo Team, {Faculty of Engineering, University of Tokyo

>  <COMMENT>  (6699) 
SMILES=CCC(C)(C)O
InChI=InChI=1S/C5H12O/c1-4-5(2,3)6/h6H,4H2,1-3H3
computed SMILES=OC(C)(C)CC
accession=JP001279
date=2016.01.19 (Created 2008.10.21, modified 2011.05.06)
author=TAJIMA S, GUNMA COLLEGE OF TECHNOLOGY
license=CC BY-NC-SA
exact mass=88.08882
ionization energy=70 eV
ion type=[M]+*
computed spectral entropy=2.3360403753195356
computed normalized entropy=0.7450309949391153
SPLASH=splash10-0a4i-9000000000-0821ab0d9a052553bbfa
submitter=submitter = University of Tokyo Team (Faculty of Engineering, University of Tokyo)
MoNA Rating=3.75

>  <NUM PEAKS>  (6699) 
23

>  <MASS SPECTRAL PEAKS>  (6699) 
15 4.56
26 1.43
27 11.21
28 1.98
29 11.86
31 29.25
39 7.17
41 16.68
42 3.78
43 29.38
44 1.43
45 8.01
53 1.69
55 41.76
56 2.08
57 1.95
58 1.43
59 99.99
60 3.26
70 2.02
71 5.15
73 55.24
74 2.48

$$$$

     RDKit          2D

  5  4  0  0  0  0  0  0  0  0999 V2000
    0.0000    0.0000    0.0000 C   0  0  0  0  0  0  0  0  0  0  0  0
    1.2990    2.2500    0.0000 C   0  0  0  0  0  0  0  0  0  0  0  0
   -1.2990    2.2500    0.0000 C   0  0  0  0  0  0  0  0  0  0  0  0
    0.0000    1.5000    0.0000 C   0  0  0  0  0  0  0  0  0  0  0  0
   -1.2990    3.7500    0.0000 O   0  0  0  0  0  0  0  0  0  0  0  0
  4  1  1  0
  4  2  1  0
  4  3  1  0
  5  3  1  0
M  END
>  <NAME>  (6700) 
2-METHYL-1-PROPANOL

>  <SYNONYMS>  (6700) 
ISOBUTYL ALCOHOL

>  <SPECTRUM TYPE>  (6700) 
MS1

>  <INSTRUMENT TYPE>  (6700) 
EI-B

>  <INSTRUMENT>  (6700) 
HITACHI RMU-7M

>  <ION MODE>  (6700) 
P

>  <INCHIKEY>  (6700) 
ZXEKIIBDNHEJCQ-UHFFFAOYSA-N

>  <FORMULA>  (6700) 
C4H10O

>  <EXACT MASS>  (6700) 
74.07316494

>  <MW>  (6700) 
74

>  <ID>  (6700) 
JP001278

>  <CONTRIBUTOR>  (6700) 
University of Tokyo Team, {Faculty of Engineering, University of Tokyo

>  <COMMENT>  (6700) 
SMILES=OCC(C)C
InChI=InChI=1S/C4H10O/c1-4(2)3-5/h4-5H,3H2,1-2H3
computed SMILES=OCC(C)C
accession=JP001278
date=2016.01.19 (Created 2008.10.21, modified 2011.05.06)
author=TAJIMA S, GUNMA COLLEGE OF TECHNOLOGY
license=CC BY-NC-SA
exact mass=74.07316
ionization energy=70 eV
ion type=[M]+*
computed spectral entropy=2.251601871312414
computed normalized entropy=0.7395583108252851
SPLASH=splash10-0006-9000000000-8f50f8925987fafa9f6e
submitter=submitter = University of Tokyo Team (Faculty of Engineering, University of Tokyo)
MoNA Rating=3.75

>  <NUM PEAKS>  (6700) 
21

>  <MASS SPECTRAL PEAKS>  (6700) 
15 1.96
26 1.31
27 25.65
28 1.92
29 11.75
31 42.36
33 58.88
38 1.44
39 10.77
40 2.55
41 56.07
42 58.62
43 99.99
44 3.79
45 1.31
55 4.63
56 3.79
57 3.39
59 3.13
73 1.7
74 7.83

$$$$

     RDKit          2D

  6  5  0  0  0  0  0  0  0  0999 V2000
   -4.5466    3.3750    0.0000 C   0  0  0  0  0  0  0  0  0  0  0  0
   -3.2476    2.6250    0.0000 C   0  0  0  0  0  0  0  0  0  0  0  0
   -1.9486    3.3750    0.0000 C   0  0  0  0  0  0  0  0  0  0  0  0
   -0.6495    2.6250    0.0000 C   0  0  0  0  0  0  0  0  0  0  0  0
    0.6495    3.3750    0.0000 C   0  0  0  0  0  0  0  0  0  0  0  0
    1.9486    2.6250    0.0000 O   0  0  0  0  0  0  0  0  0  0  0  0
  2  1  1  0
  3  2  1  0
  4  3  1  0
  5  4  1  0
  6  5  1  0
M  END
>  <NAME>  (6701) 
1-PENTANOL

>  <SYNONYMS>  (6701) 
PENTYL ALCOHOL

>  <SPECTRUM TYPE>  (6701) 
MS1

>  <INSTRUMENT TYPE>  (6701) 
EI-B

>  <INSTRUMENT>  (6701) 
HITACHI RMU-7M

>  <ION MODE>  (6701) 
P

>  <INCHIKEY>  (6701) 
AMQJEAYHLZJPGS-UHFFFAOYSA-N

>  <FORMULA>  (6701) 
C5H12O

>  <EXACT MASS>  (6701) 
88.088815004

>  <MW>  (6701) 
88

>  <ID>  (6701) 
JP001277

>  <CONTRIBUTOR>  (6701) 
University of Tokyo Team, {Faculty of Engineering, University of Tokyo

>  <COMMENT>  (6701) 
SMILES=CCCCCO
InChI=InChI=1S/C5H12O/c1-2-3-4-5-6/h6H,2-5H2,1H3
computed SMILES=OCCCCC
accession=JP001277
date=2016.01.19 (Created 2008.10.21, modified 2011.05.06)
author=TAJIMA S, GUNMA COLLEGE OF TECHNOLOGY
license=CC BY-NC-SA
exact mass=88.08882
ionization energy=70 eV
ion type=[M]+*
computed spectral entropy=2.5022469347165486
computed normalized entropy=0.777366717717048
SPLASH=splash10-052f-9000000000-a8f61d2d09e6d85a0da6
submitter=submitter = University of Tokyo Team (Faculty of Engineering, University of Tokyo)
MoNA Rating=3.75

>  <NUM PEAKS>  (6701) 
25

>  <MASS SPECTRAL PEAKS>  (6701) 
15 1.49
19 1.49
26 1.26
27 17.11
28 5.91
29 44.19
30 1.57
31 43.88
39 9.81
40 1.96
41 51.73
42 99.99
43 21.98
44 7.06
45 4
53 1.57
54 1.49
55 63.81
56 13.74
57 19.94
58 2.28
60 1.26
69 4.79
70 39.64
71 2.59

$$$$

     RDKit          2D

 19 21  0  0  1  0  0  0  0  0999 V2000
   -5.1981    0.7504    0.0000 C   0  0  0  0  0  0  0  0  0  0  0  0
    6.4968   -3.0006    0.0000 C   0  0  0  0  0  0  0  0  0  0  0  0
    6.4975   -1.4998    0.0000 C   0  0  0  0  0  0  0  0  0  0  0  0
    5.1971   -3.7512    0.0000 C   0  0  0  0  0  0  0  0  0  0  0  0
    5.1986   -0.7496    0.0000 C   0  0  0  0  0  0  0  0  0  0  0  0
    3.8982   -3.0010    0.0000 C   0  0  0  0  0  0  0  0  0  0  0  0
   -2.6000   -0.7500    0.0000 C   0  0  0  0  0  0  0  0  0  0  0  0
   -1.3000   -1.5000    0.0000 C   0  0  0  0  0  0  0  0  0  0  0  0
   -1.3000    1.5000    0.0000 C   0  0  0  0  0  0  0  0  0  0  0  0
    2.6000    0.7500    0.0000 C   0  0  0  0  0  0  0  0  0  0  0  0
    3.8989   -1.5002    0.0000 C   0  0  0  0  0  0  0  0  0  0  0  0
   -2.6000    0.7500    0.0000 C   0  0  0  0  0  0  0  0  0  0  0  0
    0.0000   -0.7500    0.0000 C   0  0  0  0  0  0  0  0  0  0  0  0
    2.6000   -0.7500    0.0000 C   0  0  0  0  0  0  0  0  0  0  0  0
    0.0000    0.7500    0.0000 C   0  0  0  0  0  0  0  0  0  0  0  0
    1.3000   -1.5000    0.0000 C   0  0  0  0  0  0  0  0  0  0  0  0
    1.3000   -3.0000    0.0000 O   0  0  0  0  0  0  0  0  0  0  0  0
   -3.8989    1.5002    0.0000 O   0  0  0  0  0  0  0  0  0  0  0  0
    1.3000    1.5000    0.0000 O   0  0  0  0  0  0  0  0  0  0  0  0
  3  2  2  0
  4  2  1  0
  5  3  1  0
  6  4  2  0
  8  7  2  0
 11  5  2  0
 11  6  1  0
 12  7  1  0
 12  9  2  0
 13  8  1  0
 14 10  1  0
 14 11  1  0
 15  9  1  0
 15 13  2  0
 16 13  1  0
 16 14  1  0
 16 17  1  6
 18  1  1  0
 18 12  1  0
 19 10  1  0
 19 15  1  0
M  END
>  <NAME>  (6702) 
7-METHOXYISOFLAVAN-4ALPHA-OL

>  <SYNONYMS>  (6702) 
7-METHOXY-3-PHENYLCHROMAN-4(S)-OL

>  <SPECTRUM TYPE>  (6702) 
MS1

>  <INSTRUMENT TYPE>  (6702) 
EI-B

>  <INSTRUMENT>  (6702) 
HITACHI RMU-6D

>  <ION MODE>  (6702) 
P

>  <INCHIKEY>  (6702) 
FNCVQDHRTCWUHR-BZSJEYESSA-N

>  <FORMULA>  (6702) 
C16H16O3

>  <EXACT MASS>  (6702) 
256.109944372

>  <MW>  (6702) 
256

>  <ID>  (6702) 
JP001270

>  <CONTRIBUTOR>  (6702) 
University of Tokyo Team, {Faculty of Engineering, University of Tokyo

>  <COMMENT>  (6702) 
SMILES=COc(c3)cc(O2)c(c3)C([H])(O)C(C2)c(c1)cccc1
InChI=InChI=1S/C16H16O3/c1-18-12-7-8-13-15(9-12)19-10-14(16(13)17)11-5-3-2-4-6-11/h2-9,14,16-17H,10H2,1H3/t14?,16-/m1/s1
computed SMILES=OC1C2=CC=C(OC)C=C2OCC1C=3C=CC=CC3
accession=JP001270
date=2016.01.19 (Created 2008.10.21, modified 2011.05.06)
author=SASAKI S, TOYOHASHI UNIV. OF TECH.
license=CC BY-NC-SA
exact mass=256.10994
ionization energy=70 eV
ion type=[M]+*
computed spectral entropy=2.8893049074328045
computed normalized entropy=0.7210044121313042
SPLASH=splash10-000i-1890000000-373601ba82c154e9907f
submitter=submitter = University of Tokyo Team (Faculty of Engineering, University of Tokyo)
MoNA Rating=3.75

>  <NUM PEAKS>  (6702) 
55

>  <MASS SPECTRAL PEAKS>  (6702) 
28 2
39 3
50 2
51 0.5
63 4.7
64 1.3
65 2.7
69 0.4
74 1
75 2.7
76 5
77 0.9
78 1
88 1.7
89 4
91 0.3
102 2
103 1
105 7
115 0.5
118 3
119 7
126 1
127 0.13
128 2
139 4
140 1
141 0.1
146 1
151 2
152 8
153 0.2
160 1.3
161 43
162 7
163 0.27
164 2
165 17.3
166 5.3
167 0.3
176 2
177 3
178 5
179 0.13
194 12
195 5
207 4
210 0.1
222 3.3
223 9
224 2
237 8.9
238 99.99
239 21
240 2

$$$$

     RDKit          2D

 19 21  0  0  1  0  0  0  0  0999 V2000
   -5.1981    0.7504    0.0000 C   0  0  0  0  0  0  0  0  0  0  0  0
    6.4968   -3.0006    0.0000 C   0  0  0  0  0  0  0  0  0  0  0  0
    6.4975   -1.4998    0.0000 C   0  0  0  0  0  0  0  0  0  0  0  0
    5.1971   -3.7512    0.0000 C   0  0  0  0  0  0  0  0  0  0  0  0
    5.1986   -0.7496    0.0000 C   0  0  0  0  0  0  0  0  0  0  0  0
    3.8982   -3.0010    0.0000 C   0  0  0  0  0  0  0  0  0  0  0  0
   -2.6000   -0.7500    0.0000 C   0  0  0  0  0  0  0  0  0  0  0  0
   -1.3000   -1.5000    0.0000 C   0  0  0  0  0  0  0  0  0  0  0  0
   -1.3000    1.5000    0.0000 C   0  0  0  0  0  0  0  0  0  0  0  0
    2.6000    0.7500    0.0000 C   0  0  0  0  0  0  0  0  0  0  0  0
    3.8989   -1.5002    0.0000 C   0  0  0  0  0  0  0  0  0  0  0  0
   -2.6000    0.7500    0.0000 C   0  0  0  0  0  0  0  0  0  0  0  0
    0.0000   -0.7500    0.0000 C   0  0  0  0  0  0  0  0  0  0  0  0
    2.6000   -0.7500    0.0000 C   0  0  0  0  0  0  0  0  0  0  0  0
    0.0000    0.7500    0.0000 C   0  0  0  0  0  0  0  0  0  0  0  0
    1.3000   -1.5000    0.0000 C   0  0  0  0  0  0  0  0  0  0  0  0
    1.3000   -3.0000    0.0000 O   0  0  0  0  0  0  0  0  0  0  0  0
   -3.8989    1.5002    0.0000 O   0  0  0  0  0  0  0  0  0  0  0  0
    1.3000    1.5000    0.0000 O   0  0  0  0  0  0  0  0  0  0  0  0
  3  2  2  0
  4  2  1  0
  5  3  1  0
  6  4  2  0
  8  7  2  0
 11  5  2  0
 11  6  1  0
 12  7  1  0
 12  9  2  0
 13  8  1  0
 14 10  1  0
 14 11  1  0
 15  9  1  0
 15 13  2  0
 16 13  1  0
 16 14  1  0
 16 17  1  1
 18  1  1  0
 18 12  1  0
 19 10  1  0
 19 15  1  0
M  END
>  <NAME>  (6703) 
7-METHOXYISOFLAVAN-4BETA-OL

>  <SYNONYMS>  (6703) 
7-METHOXY-3-PHENYLCHROMAN-4(R)-OL

>  <SPECTRUM TYPE>  (6703) 
MS1

>  <INSTRUMENT TYPE>  (6703) 
EI-B

>  <INSTRUMENT>  (6703) 
HITACHI RMU-6D

>  <ION MODE>  (6703) 
P

>  <INCHIKEY>  (6703) 
FNCVQDHRTCWUHR-WMCAAGNKSA-N

>  <FORMULA>  (6703) 
C16H16O3

>  <EXACT MASS>  (6703) 
256.109944372

>  <MW>  (6703) 
256

>  <ID>  (6703) 
JP001268

>  <CONTRIBUTOR>  (6703) 
University of Tokyo Team, {Faculty of Engineering, University of Tokyo

>  <COMMENT>  (6703) 
SMILES=COc(c3)cc(O2)c(c3)C([H])(O)C(C2)c(c1)cccc1
InChI=InChI=1S/C16H16O3/c1-18-12-7-8-13-15(9-12)19-10-14(16(13)17)11-5-3-2-4-6-11/h2-9,14,16-17H,10H2,1H3/t14?,16-/m0/s1
computed SMILES=OC1C2=CC=C(OC)C=C2OCC1C=3C=CC=CC3
accession=JP001268
date=2016.01.19 (Created 2008.10.21, modified 2011.05.06)
author=SASAKI S, TOYOHASHI UNIV. OF TECH.
license=CC BY-NC-SA
exact mass=256.10994
ionization energy=70 eV
ion type=[M]+*
computed spectral entropy=2.71802367851142
computed normalized entropy=0.6693909190331555
SPLASH=splash10-000i-1590000000-9ff83737ab9ad89f24a5
submitter=submitter = University of Tokyo Team (Faculty of Engineering, University of Tokyo)
MoNA Rating=3.75

>  <NUM PEAKS>  (6703) 
58

>  <MASS SPECTRAL PEAKS>  (6703) 
29 2.7
39 2.7
51 5
62 0.1
63 4
64 1.3
65 2
69 0.33
74 1
75 2
76 4
77 0.8
78 1
87 1
88 2
89 0.4
90 0.7
91 3
92 1
102 0.2
103 1.3
105 6.7
114 5
118 0.2
119 7.3
126 1
127 1.3
128 0.2
139 4
140 1
141 1
146 0.13
151 2
152 7.3
153 2
160 0.2
161 44
162 6
163 2
164 0.17
165 18
166 7
167 2.7
176 0.2
177 3
178 5
179 2
194 1.23
195 5
207 4
210 1
222 0.4
223 10
224 2
237 91
238 99.99
239 17.3
240 1.3

$$$$

     RDKit          2D

 20 22  0  0  1  0  0  0  0  0999 V2000
   -5.1981    0.7504    0.0000 C   0  0  0  0  0  0  0  0  0  0  0  0
    6.4968   -3.0006    0.0000 C   0  0  0  0  0  0  0  0  0  0  0  0
    6.4975   -1.4998    0.0000 C   0  0  0  0  0  0  0  0  0  0  0  0
    5.1971   -3.7512    0.0000 C   0  0  0  0  0  0  0  0  0  0  0  0
    5.1986   -0.7496    0.0000 C   0  0  0  0  0  0  0  0  0  0  0  0
    3.8982   -3.0010    0.0000 C   0  0  0  0  0  0  0  0  0  0  0  0
   -2.6000   -0.7500    0.0000 C   0  0  0  0  0  0  0  0  0  0  0  0
   -1.3000   -1.5000    0.0000 C   0  0  0  0  0  0  0  0  0  0  0  0
   -1.3000    1.5000    0.0000 C   0  0  0  0  0  0  0  0  0  0  0  0
    2.6000    0.7500    0.0000 C   0  0  0  0  0  0  0  0  0  0  0  0
    3.8989   -1.5002    0.0000 C   0  0  0  0  0  0  0  0  0  0  0  0
   -2.6000    0.7500    0.0000 C   0  0  0  0  0  0  0  0  0  0  0  0
    0.0000   -0.7500    0.0000 C   0  0  0  0  0  0  0  0  0  0  0  0
    2.6000   -0.7500    0.0000 C   0  0  0  0  0  0  0  0  0  0  0  0
    0.0000    0.7500    0.0000 C   0  0  0  0  0  0  0  0  0  0  0  0
    1.3000   -1.5000    0.0000 C   0  0  0  0  0  0  0  0  0  0  0  0
    0.3359   -2.6492    0.0000 O   0  0  0  0  0  0  0  0  0  0  0  0
   -3.8989    1.5002    0.0000 O   0  0  0  0  0  0  0  0  0  0  0  0
    1.3000    1.5000    0.0000 O   0  0  0  0  0  0  0  0  0  0  0  0
    2.2641   -2.6492    0.0000 H   0  0  0  0  0  0  0  0  0  0  0  0
  3  2  2  0
  4  2  1  0
  5  3  1  0
  6  4  2  0
  8  7  2  0
 11  5  2  0
 11  6  1  0
 12  7  1  0
 12  9  2  0
 13  8  1  0
 14 10  1  0
 14 11  1  0
 15  9  1  0
 15 13  2  0
 16 13  1  0
 16 14  1  0
 16 17  1  0
 18  1  1  0
 18 12  1  0
 19 10  1  0
 19 15  1  0
 16 20  1  6
M  ISO  1  20   2
M  END
>  <NAME>  (6704) 
4ALPHA-DEUTERO-7-METHOXYISOFLAVAN-4-OL

>  <SYNONYMS>  (6704) 
7-METHOXY-3-PHENYL-4(2H1)CHROMAN-4(R)-OL

>  <SPECTRUM TYPE>  (6704) 
MS1

>  <INSTRUMENT TYPE>  (6704) 
EI-B

>  <INSTRUMENT>  (6704) 
HITACHI RMU-6D

>  <ION MODE>  (6704) 
P

>  <INCHIKEY>  (6704) 
FNCVQDHRTCWUHR-FRSDTZJCSA-N

>  <FORMULA>  (6704) 
C16H16O3

>  <EXACT MASS>  (6704) 
257.116221118

>  <MW>  (6704) 
257

>  <ID>  (6704) 
JP001267

>  <CONTRIBUTOR>  (6704) 
University of Tokyo Team, {Faculty of Engineering, University of Tokyo

>  <COMMENT>  (6704) 
SMILES=COc(c3)cc(O2)c(c3)C([2H])(O)C(C2)c(c1)cccc1
InChI=InChI=1S/C16H16O3/c1-18-12-7-8-13-15(9-12)19-10-14(16(13)17)11-5-3-2-4-6-11/h2-9,14,16-17H,10H2,1H3/t14?,16-/m0/s1/i16D
computed SMILES=[H]C1(O)C2=CC=C(OC)C=C2OCC1C=3C=CC=CC3
accession=JP001267
date=2016.01.19 (Created 2008.10.21, modified 2011.05.06)
author=SASAKI S, TOYOHASHI UNIV. OF TECH.
license=CC BY-NC-SA
exact mass=256.10994
ionization energy=70 eV
ion type=[M]+*
computed spectral entropy=3.0620426457507066
computed normalized entropy=0.7183374623655859
SPLASH=splash10-000i-2890000000-a02519dc7dc49a913393
submitter=submitter = University of Tokyo Team (Faculty of Engineering, University of Tokyo)
MoNA Rating=3.75

>  <NUM PEAKS>  (6704) 
71

>  <MASS SPECTRAL PEAKS>  (6704) 
28 4
31 2.3
39 2
45 0.1
50 1
51 4.6
52 2
63 0.3
64 2
65 2.5
66 1
69 0.33
75 1.7
76 2
77 9
78 0.2
79 1
83 2
89 1.7
90 0.2
91 3
92 1.3
93 1
102 0.15
103 2.3
104 1
105 7
109 0.1
115 2
116 4
119 4.7
120 0.1
127 0.7
128 1
129 1.3
139 0.1
140 3
141 1.7
142 1.3
147 0.15
151 1.5
152 4
153 7
154 0.2
161 1.3
162 48
163 6
164 0.2
165 4.7
166 19
167 5
168 0.3
169 1
176 2
177 3
178 0.5
179 1.7
194 2
195 13
196 0.5
208 4.7
211 1.7
222 1
223 0.3
224 10
225 1
237 14
238 8.1
239 99.99
240 16
241 1.3

$$$$

     RDKit          2D

 20 22  0  0  1  0  0  0  0  0999 V2000
   -5.1981    0.7504    0.0000 C   0  0  0  0  0  0  0  0  0  0  0  0
    6.4968   -3.0006    0.0000 C   0  0  0  0  0  0  0  0  0  0  0  0
    6.4975   -1.4998    0.0000 C   0  0  0  0  0  0  0  0  0  0  0  0
    5.1971   -3.7512    0.0000 C   0  0  0  0  0  0  0  0  0  0  0  0
    5.1986   -0.7496    0.0000 C   0  0  0  0  0  0  0  0  0  0  0  0
    3.8982   -3.0010    0.0000 C   0  0  0  0  0  0  0  0  0  0  0  0
   -2.6000   -0.7500    0.0000 C   0  0  0  0  0  0  0  0  0  0  0  0
   -1.3000   -1.5000    0.0000 C   0  0  0  0  0  0  0  0  0  0  0  0
   -1.3000    1.5000    0.0000 C   0  0  0  0  0  0  0  0  0  0  0  0
    2.6000    0.7500    0.0000 C   0  0  0  0  0  0  0  0  0  0  0  0
    3.8989   -1.5002    0.0000 C   0  0  0  0  0  0  0  0  0  0  0  0
   -2.6000    0.7500    0.0000 C   0  0  0  0  0  0  0  0  0  0  0  0
    0.0000   -0.7500    0.0000 C   0  0  0  0  0  0  0  0  0  0  0  0
    2.6000   -0.7500    0.0000 C   0  0  0  0  0  0  0  0  0  0  0  0
    0.0000    0.7500    0.0000 C   0  0  0  0  0  0  0  0  0  0  0  0
    1.3000   -1.5000    0.0000 C   0  0  0  0  0  0  0  0  0  0  0  0
    0.3359   -2.6492    0.0000 O   0  0  0  0  0  0  0  0  0  0  0  0
   -3.8989    1.5002    0.0000 O   0  0  0  0  0  0  0  0  0  0  0  0
    1.3000    1.5000    0.0000 O   0  0  0  0  0  0  0  0  0  0  0  0
    2.2641   -2.6492    0.0000 H   0  0  0  0  0  0  0  0  0  0  0  0
  3  2  2  0
  4  2  1  0
  5  3  1  0
  6  4  2  0
  8  7  2  0
 11  5  2  0
 11  6  1  0
 12  7  1  0
 12  9  2  0
 13  8  1  0
 14 10  1  0
 14 11  1  0
 15  9  1  0
 15 13  2  0
 16 13  1  0
 16 14  1  0
 16 17  1  0
 18  1  1  0
 18 12  1  0
 19 10  1  0
 19 15  1  0
 16 20  1  1
M  ISO  1  20   2
M  END
>  <NAME>  (6705) 
4BETA-DEUTERO-7-METHOXYISOFLAVAN-4-OL

>  <SYNONYMS>  (6705) 
7-METHOXY-3-PHENYL-4(2H1)CHROMAN-4(S)-OL

>  <SPECTRUM TYPE>  (6705) 
MS1

>  <INSTRUMENT TYPE>  (6705) 
EI-B

>  <INSTRUMENT>  (6705) 
HITACHI RMU-6D

>  <ION MODE>  (6705) 
P

>  <INCHIKEY>  (6705) 
FNCVQDHRTCWUHR-IMRRLIKASA-N

>  <FORMULA>  (6705) 
C16H16O3

>  <EXACT MASS>  (6705) 
257.116221118

>  <MW>  (6705) 
257

>  <ID>  (6705) 
JP001266

>  <CONTRIBUTOR>  (6705) 
University of Tokyo Team, {Faculty of Engineering, University of Tokyo

>  <COMMENT>  (6705) 
SMILES=COc(c3)cc(O2)c(c3)C([2H])(O)C(C2)c(c1)cccc1
InChI=InChI=1S/C16H16O3/c1-18-12-7-8-13-15(9-12)19-10-14(16(13)17)11-5-3-2-4-6-11/h2-9,14,16-17H,10H2,1H3/t14?,16-/m1/s1/i16D
computed SMILES=[H]C1(O)C2=CC=C(OC)C=C2OCC1C=3C=CC=CC3
accession=JP001266
date=2016.01.19 (Created 2008.10.21, modified 2011.05.06)
author=SASAKI S, TOYOHASHI UNIV. OF TECH.
license=CC BY-NC-SA
exact mass=256.10994
ionization energy=70 eV
ion type=[M]+*
computed spectral entropy=2.7990590080136846
computed normalized entropy=0.6680882269214989
SPLASH=splash10-000i-1590000000-2646ff995513167f1185
submitter=submitter = University of Tokyo Team (Faculty of Engineering, University of Tokyo)
MoNA Rating=3.75

>  <NUM PEAKS>  (6705) 
66

>  <MASS SPECTRAL PEAKS>  (6705) 
28 2
39 2
40 1
50 0.1
51 4
52 2
63 3
64 0.2
65 2
66 1
69 3
75 0.13
76 2
77 8
78 2
79 0.1
83 2
90 2
91 3
92 0.1
102 1.3
103 2
104 1
105 0.6
115 2
116 3.7
119 4
120 0.1
127 0.9
128 1
129 1.3
139 0.1
140 3
141 1
147 1.3
151 0.1
152 4
153 6
154 2
161 0.2
162 41
163 5
164 2
165 0.4
166 16
167 4
168 2.3
175 0.1
176 2
177 3
178 4.3
179 0.17
194 2
195 11
196 4
208 0.4
211 1
222 1
223 3
224 0.8
225 1
237 13.3
238 88
239 99.99
240 14
241 1.3

$$$$

     RDKit          2D

 18 20  0  0  0  0  0  0  0  0999 V2000
   -5.1981    0.7504    0.0000 C   0  0  0  0  0  0  0  0  0  0  0  0
    6.4968   -3.0006    0.0000 C   0  0  0  0  0  0  0  0  0  0  0  0
    6.4975   -1.4998    0.0000 C   0  0  0  0  0  0  0  0  0  0  0  0
    5.1971   -3.7512    0.0000 C   0  0  0  0  0  0  0  0  0  0  0  0
    5.1986   -0.7496    0.0000 C   0  0  0  0  0  0  0  0  0  0  0  0
    3.8982   -3.0010    0.0000 C   0  0  0  0  0  0  0  0  0  0  0  0
   -1.3000   -1.5000    0.0000 C   0  0  0  0  0  0  0  0  0  0  0  0
   -2.6000   -0.7500    0.0000 C   0  0  0  0  0  0  0  0  0  0  0  0
    1.3000   -1.5000    0.0000 C   0  0  0  0  0  0  0  0  0  0  0  0
   -1.3000    1.5000    0.0000 C   0  0  0  0  0  0  0  0  0  0  0  0
    2.6000    0.7500    0.0000 C   0  0  0  0  0  0  0  0  0  0  0  0
    3.8989   -1.5002    0.0000 C   0  0  0  0  0  0  0  0  0  0  0  0
    0.0000   -0.7500    0.0000 C   0  0  0  0  0  0  0  0  0  0  0  0
    2.6000   -0.7500    0.0000 C   0  0  0  0  0  0  0  0  0  0  0  0
   -2.6000    0.7500    0.0000 C   0  0  0  0  0  0  0  0  0  0  0  0
    0.0000    0.7500    0.0000 C   0  0  0  0  0  0  0  0  0  0  0  0
   -3.8989    1.5002    0.0000 O   0  0  0  0  0  0  0  0  0  0  0  0
    1.3000    1.5000    0.0000 O   0  0  0  0  0  0  0  0  0  0  0  0
  3  2  2  0
  4  2  1  0
  5  3  1  0
  6  4  2  0
  8  7  2  0
 12  5  2  0
 12  6  1  0
 13  7  1  0
 13  9  1  0
 14  9  2  0
 14 11  1  0
 14 12  1  0
 15  8  1  0
 15 10  2  0
 16 10  1  0
 16 13  2  0
 17  1  1  0
 17 15  1  0
 18 11  1  0
 18 16  1  0
M  END
>  <NAME>  (6706) 
7-METHOXYISOFLOVENE

>  <SYNONYMS>  (6706) 
7-METHOXY-3-PHENYL-2H-CHROMENE

>  <SPECTRUM TYPE>  (6706) 
MS1

>  <INSTRUMENT TYPE>  (6706) 
EI-B

>  <INSTRUMENT>  (6706) 
HITACHI RMU-6D

>  <ION MODE>  (6706) 
P

>  <INCHIKEY>  (6706) 
LSZIRYVRGHKUGG-UHFFFAOYSA-N

>  <FORMULA>  (6706) 
C16H14O2

>  <EXACT MASS>  (6706) 
238.099379688

>  <MW>  (6706) 
238

>  <ID>  (6706) 
JP001264

>  <CONTRIBUTOR>  (6706) 
University of Tokyo Team, {Faculty of Engineering, University of Tokyo

>  <COMMENT>  (6706) 
SMILES=COc(c3)cc(O2)c(c3)C=C(C2)c(c1)cccc1
InChI=InChI=1S/C16H14O2/c1-17-15-8-7-13-9-14(11-18-16(13)10-15)12-5-3-2-4-6-12/h2-10H,11H2,1H3
computed SMILES=O(C=1C=CC=2C=C(C=3C=CC=CC3)COC2C1)C
accession=JP001264
date=2016.01.19 (Created 2008.10.21, modified 2011.05.06)
author=SASAKI S, TOYOHASHI UNIV. OF TECH.
license=CC BY-NC-SA
exact mass=238.09938
ionization energy=70 eV
ion type=[M]+*
computed spectral entropy=3.004790937369948
computed normalized entropy=0.6568263987581935
SPLASH=splash10-000i-2490000000-32ae6261903eccd4295e
submitter=submitter = University of Tokyo Team (Faculty of Engineering, University of Tokyo)
MoNA Rating=3.75

>  <NUM PEAKS>  (6706) 
97

>  <MASS SPECTRAL PEAKS>  (6706) 
15 1.7
18 2
27 1
28 0.2
39 3
41 1.3
42 0.3
43 0.33
44 0.3
45 1
50 2
51 0.6
52 1.3
53 1
55 1
57 0.08
59 0.7
61 1
63 5
64 0.1
65 2.7
69 5
73 0.3
74 0.1
75 2.3
76 5
77 9.3
81 0.03
82 2.3
89 5
90 1
91 0.3
92 1
101 0.3
102 2.7
103 0.13
105 7
113 1
114 0.8
115 0.6
116 0.7
117 1
118 3
119 0.87
126 1.7
127 1.8
128 2
129 0.08
137 0.3
138 0.3
139 4.7
140 0.08
141 1
145 0.3
146 2
149 0.1
150 1
151 3
152 9
153 0.23
154 0.3
155 0.3
160 1.7
161 4.7
162 5
163 2.7
164 2
165 2
166 5
167 3
168 1
176 0.23
177 3.3
178 5.3
179 2
180 0.03
181 0.3
193 0.7
194 14
195 0.5
196 0.7
205 0.7
206 0.7
207 0.5
208 1.3
209 1.3
210 2
211 0.1
221 1
222 4
223 10.7
224 0.2
236 2.3
237 94
238 99.99
239 1.6
240 2

$$$$

     RDKit          2D

 17 19  0  0  0  0  0  0  0  0999 V2000
    6.4968   -3.0006    0.0000 C   0  0  0  0  0  0  0  0  0  0  0  0
    6.4975   -1.4998    0.0000 C   0  0  0  0  0  0  0  0  0  0  0  0
    5.1971   -3.7512    0.0000 C   0  0  0  0  0  0  0  0  0  0  0  0
   -2.6000   -0.7500    0.0000 C   0  0  0  0  0  0  0  0  0  0  0  0
   -2.6000    0.7500    0.0000 C   0  0  0  0  0  0  0  0  0  0  0  0
    5.1986   -0.7496    0.0000 C   0  0  0  0  0  0  0  0  0  0  0  0
    3.8982   -3.0010    0.0000 C   0  0  0  0  0  0  0  0  0  0  0  0
   -1.3000   -1.5000    0.0000 C   0  0  0  0  0  0  0  0  0  0  0  0
   -1.3000    1.5000    0.0000 C   0  0  0  0  0  0  0  0  0  0  0  0
    2.6000    0.7500    0.0000 C   0  0  0  0  0  0  0  0  0  0  0  0
    3.8989   -1.5002    0.0000 C   0  0  0  0  0  0  0  0  0  0  0  0
    0.0000   -0.7500    0.0000 C   0  0  0  0  0  0  0  0  0  0  0  0
    2.6000   -0.7500    0.0000 C   0  0  0  0  0  0  0  0  0  0  0  0
    0.0000    0.7500    0.0000 C   0  0  0  0  0  0  0  0  0  0  0  0
    1.3000   -1.5000    0.0000 C   0  0  0  0  0  0  0  0  0  0  0  0
    1.3000   -3.0000    0.0000 O   0  0  0  0  0  0  0  0  0  0  0  0
    1.3000    1.5000    0.0000 O   0  0  0  0  0  0  0  0  0  0  0  0
  2  1  2  0
  3  1  1  0
  5  4  2  0
  6  2  1  0
  7  3  2  0
  8  4  1  0
  9  5  1  0
 11  6  2  0
 11  7  1  0
 12  8  2  0
 13 10  1  0
 13 11  1  0
 14  9  2  0
 14 12  1  0
 15 12  1  0
 15 13  1  0
 16 15  2  0
 17 10  1  0
 17 14  1  0
M  END
>  <NAME>  (6707) 
ISOFLAVANONE

>  <SYNONYMS>  (6707) 
3-PHENYLCHROMAN-4-ONE

>  <SPECTRUM TYPE>  (6707) 
MS1

>  <INSTRUMENT TYPE>  (6707) 
EI-B

>  <INSTRUMENT>  (6707) 
HITACHI RMU-6D

>  <ION MODE>  (6707) 
P

>  <INCHIKEY>  (6707) 
RTRZOHKLISMNRD-UHFFFAOYSA-N

>  <FORMULA>  (6707) 
C15H12O2

>  <EXACT MASS>  (6707) 
224.083729624

>  <MW>  (6707) 
224

>  <ID>  (6707) 
JP001259

>  <CONTRIBUTOR>  (6707) 
University of Tokyo Team, {Faculty of Engineering, University of Tokyo

>  <COMMENT>  (6707) 
SMILES=c(c3)ccc(c3)C(C1)C(=O)c(c2)c(ccc2)O1
InChI=InChI=1S/C15H12O2/c16-15-12-8-4-5-9-14(12)17-10-13(15)11-6-2-1-3-7-11/h1-9,13H,10H2
computed SMILES=O=C1C=2C=CC=CC2OCC1C=3C=CC=CC3
accession=JP001259
date=2016.01.19 (Created 2008.10.21, modified 2011.05.06)
author=SASAKI S, TOYOHASHI UNIV. OF TECH.
license=CC BY-NC-SA
exact mass=224.08373
ionization energy=70 eV
ion type=[M]+*
computed spectral entropy=1.9705062390562347
computed normalized entropy=0.5542372237475806
SPLASH=splash10-00di-0910000000-efdd68e8dafbf84c1681
submitter=submitter = University of Tokyo Team (Faculty of Engineering, University of Tokyo)
MoNA Rating=3.75

>  <NUM PEAKS>  (6707) 
35

>  <MASS SPECTRAL PEAKS>  (6707) 
89 2.3
90 1
91 3
92 4.8
93 4
94 0.7
101 0.3
102 0.3
103 14.3
104 39
105 3.7
112 0.03
113 0.3
115 1
118 0.3
119 0.03
120 99.99
121 10
122 0.7
139 0.08
146 0.7
147 2.3
151 0.8
163 0.03
164 0.3
165 2
166 0.3
167 0.03
207 0.7
208 0.3
222 0.3
223 0.27
224 31
225 5
226 0.7

$$$$

     RDKit          2D

 19 21  0  0  1  0  0  0  0  0999 V2000
   -5.1981    0.7504    0.0000 C   0  0  0  0  0  0  0  0  0  0  0  0
    6.4968    3.0006    0.0000 C   0  0  0  0  0  0  0  0  0  0  0  0
    5.1971    3.7512    0.0000 C   0  0  0  0  0  0  0  0  0  0  0  0
    6.4975    1.4998    0.0000 C   0  0  0  0  0  0  0  0  0  0  0  0
    3.8982    3.0010    0.0000 C   0  0  0  0  0  0  0  0  0  0  0  0
    5.1986    0.7496    0.0000 C   0  0  0  0  0  0  0  0  0  0  0  0
   -2.6000   -0.7500    0.0000 C   0  0  0  0  0  0  0  0  0  0  0  0
   -1.3000   -1.5000    0.0000 C   0  0  0  0  0  0  0  0  0  0  0  0
   -1.3000    1.5000    0.0000 C   0  0  0  0  0  0  0  0  0  0  0  0
    2.6000   -0.7500    0.0000 C   0  0  0  0  0  0  0  0  0  0  0  0
    3.8989    1.5002    0.0000 C   0  0  0  0  0  0  0  0  0  0  0  0
   -2.6000    0.7500    0.0000 C   0  0  0  0  0  0  0  0  0  0  0  0
    0.0000   -0.7500    0.0000 C   0  0  0  0  0  0  0  0  0  0  0  0
    1.3000   -1.5000    0.0000 C   0  0  0  0  0  0  0  0  0  0  0  0
    2.6000    0.7500    0.0000 C   0  0  0  0  0  0  0  0  0  0  0  0
    0.0000    0.7500    0.0000 C   0  0  0  0  0  0  0  0  0  0  0  0
    1.3000   -3.0000    0.0000 O   0  0  0  0  0  0  0  0  0  0  0  0
   -3.8989    1.5002    0.0000 O   0  0  0  0  0  0  0  0  0  0  0  0
    1.3000    1.5000    0.0000 O   0  0  0  0  0  0  0  0  0  0  0  0
  3  2  2  0
  4  2  1  0
  5  3  1  0
  6  4  2  0
  8  7  2  0
 11  5  2  0
 11  6  1  0
 12  7  1  0
 12  9  2  0
 13  8  1  0
 14 10  1  0
 14 13  1  0
 15 10  1  0
 15 11  1  1
 16  9  1  0
 16 13  2  0
 14 17  1  6
 18  1  1  0
 18 12  1  0
 19 15  1  0
 19 16  1  0
M  END
>  <NAME>  (6708) 
7-METHOXY(TRANS)FLAVAN-4ALPHA-OL

>  <SYNONYMS>  (6708) 
7-METHOXY-TRANS-2-PHENYLCHROMAN-4(S)-OL

>  <SPECTRUM TYPE>  (6708) 
MS1

>  <INSTRUMENT TYPE>  (6708) 
EI-B

>  <INSTRUMENT>  (6708) 
HITACHI RMU-6D

>  <ION MODE>  (6708) 
P

>  <INCHIKEY>  (6708) 
GMKMWNMOLXKFNU-LSDHHAIUSA-N

>  <FORMULA>  (6708) 
C16H16O3

>  <EXACT MASS>  (6708) 
256.109944372

>  <MW>  (6708) 
256

>  <ID>  (6708) 
JP001254

>  <CONTRIBUTOR>  (6708) 
University of Tokyo Team, {Faculty of Engineering, University of Tokyo

>  <COMMENT>  (6708) 
SMILES=COc(c3)cc(O1)c(c3)C([H])(O)CC([H])(c(c2)cccc2)1
InChI=InChI=1S/C16H16O3/c1-18-12-7-8-13-14(17)10-15(19-16(13)9-12)11-5-3-2-4-6-11/h2-9,14-15,17H,10H2,1H3/t14-,15+/m0/s1
computed SMILES=OC1C2=CC=C(OC)C=C2OC(C=3C=CC=CC3)C1
accession=JP001254
date=2016.01.19 (Created 2008.10.21, modified 2011.05.06)
author=SASAKI S, TOYOHASHI UNIV. OF TECH.
license=CC BY-NC-SA
exact mass=256.10994
ionization energy=70 eV
ion type=[M]+*
computed spectral entropy=2.879369224821298
computed normalized entropy=0.7218302182234367
SPLASH=splash10-01p9-3980000000-a6c7cf30d607db4ddb05
submitter=submitter = University of Tokyo Team (Faculty of Engineering, University of Tokyo)
MoNA Rating=3.75

>  <NUM PEAKS>  (6708) 
54

>  <MASS SPECTRAL PEAKS>  (6708) 
28 8
39 4
43 3
44 0.2
50 2
51 6
52 1
63 0.5
64 1.3
65 3
69 4
75 0.2
76 6
77 10.7
78 2
79 0.1
88 1.3
89 6
91 2.3
102 0.2
105 6
115 5.3
118 5
119 0.8
128 1
139 3
140 1
141 0.1
146 2
151 2
152 6
153 0.17
160 2
161 60
162 6
163 0.1
164 1
165 16
166 4
167 0.2
176 2
177 3
178 4
179 0.1
194 12
195 4
207 5
222 0.4
223 10
224 1.3
237 99.99
238 8.8
239 14
240 1.3

$$$$

     RDKit          2D

 19 21  0  0  1  0  0  0  0  0999 V2000
   -5.1981    0.7504    0.0000 C   0  0  0  0  0  0  0  0  0  0  0  0
    6.4968    3.0006    0.0000 C   0  0  0  0  0  0  0  0  0  0  0  0
    5.1971    3.7512    0.0000 C   0  0  0  0  0  0  0  0  0  0  0  0
    6.4975    1.4998    0.0000 C   0  0  0  0  0  0  0  0  0  0  0  0
    3.8982    3.0010    0.0000 C   0  0  0  0  0  0  0  0  0  0  0  0
    5.1986    0.7496    0.0000 C   0  0  0  0  0  0  0  0  0  0  0  0
   -2.6000   -0.7500    0.0000 C   0  0  0  0  0  0  0  0  0  0  0  0
   -1.3000   -1.5000    0.0000 C   0  0  0  0  0  0  0  0  0  0  0  0
   -1.3000    1.5000    0.0000 C   0  0  0  0  0  0  0  0  0  0  0  0
    2.6000   -0.7500    0.0000 C   0  0  0  0  0  0  0  0  0  0  0  0
    3.8989    1.5002    0.0000 C   0  0  0  0  0  0  0  0  0  0  0  0
   -2.6000    0.7500    0.0000 C   0  0  0  0  0  0  0  0  0  0  0  0
    0.0000   -0.7500    0.0000 C   0  0  0  0  0  0  0  0  0  0  0  0
    1.3000   -1.5000    0.0000 C   0  0  0  0  0  0  0  0  0  0  0  0
    2.6000    0.7500    0.0000 C   0  0  0  0  0  0  0  0  0  0  0  0
    0.0000    0.7500    0.0000 C   0  0  0  0  0  0  0  0  0  0  0  0
    1.3000   -3.0000    0.0000 O   0  0  0  0  0  0  0  0  0  0  0  0
   -3.8989    1.5002    0.0000 O   0  0  0  0  0  0  0  0  0  0  0  0
    1.3000    1.5000    0.0000 O   0  0  0  0  0  0  0  0  0  0  0  0
  3  2  2  0
  4  2  1  0
  5  3  1  0
  6  4  2  0
  8  7  2  0
 11  5  2  0
 11  6  1  0
 12  7  1  0
 12  9  2  0
 13  8  1  0
 14 10  1  0
 14 13  1  0
 15 10  1  0
 15 11  1  6
 16  9  1  0
 16 13  2  0
 14 17  1  1
 18  1  1  0
 18 12  1  0
 19 15  1  0
 19 16  1  0
M  END
>  <NAME>  (6709) 
7-METHOXY(TRANS)FLAVAN-4BETA-OL

>  <SYNONYMS>  (6709) 
7-METHOXY-TRANS-2-PHENYLCHROMAN-4(R)-OL

>  <SPECTRUM TYPE>  (6709) 
MS1

>  <INSTRUMENT TYPE>  (6709) 
EI-B

>  <INSTRUMENT>  (6709) 
HITACHI RMU-6D

>  <ION MODE>  (6709) 
P

>  <INCHIKEY>  (6709) 
GMKMWNMOLXKFNU-CABCVRRESA-N

>  <FORMULA>  (6709) 
C16H16O3

>  <EXACT MASS>  (6709) 
256.109944372

>  <MW>  (6709) 
256

>  <ID>  (6709) 
JP001253

>  <CONTRIBUTOR>  (6709) 
University of Tokyo Team, {Faculty of Engineering, University of Tokyo

>  <COMMENT>  (6709) 
SMILES=COc(c3)cc(O1)c(c3)C([H])(O)CC([H])(c(c2)cccc2)1
InChI=InChI=1S/C16H16O3/c1-18-12-7-8-13-14(17)10-15(19-16(13)9-12)11-5-3-2-4-6-11/h2-9,14-15,17H,10H2,1H3/t14-,15+/m1/s1
computed SMILES=OC1C2=CC=C(OC)C=C2OC(C=3C=CC=CC3)C1
accession=JP001253
date=2016.01.19 (Created 2008.10.21, modified 2011.05.06)
author=SASAKI S, TOYOHASHI UNIV. OF TECH.
license=CC BY-NC-SA
exact mass=256.10994
ionization energy=70 eV
ion type=[M]+*
computed spectral entropy=2.8632862389851774
computed normalized entropy=0.6910917525192234
SPLASH=splash10-000i-2690000000-cf33074104c76bb07c7c
submitter=submitter = University of Tokyo Team (Faculty of Engineering, University of Tokyo)
MoNA Rating=3.75

>  <NUM PEAKS>  (6709) 
63

>  <MASS SPECTRAL PEAKS>  (6709) 
28 7
39 4
43 2
50 0.2
51 7
52 1.3
62 1
63 0.6
64 2
65 3
69 4.7
74 0.1
75 2
76 4.7
77 10
78 0.2
79 1
88 2
89 7.3
90 0.13
91 3
92 1
102 2.3
103 0.1
105 7
115 7
118 6.7
119 0.87
126 1
127 1.3
128 2
133 0.1
139 3
140 1
141 1
146 0.3
150 1
151 3
152 8
153 0.2
161 68
162 6.7
163 1.3
164 0.13
165 16.7
166 4
167 3
176 0.3
177 4
178 4.7
179 2
194 1.2
195 4.7
205 1
207 5.3
210 0.13
222 4
223 11
224 2
237 99.99
238 93
239 15
240 2

$$$$

     RDKit          2D

 19 21  0  0  0  0  0  0  0  0999 V2000
    6.4968    3.0006    0.0000 C   0  0  0  0  0  0  0  0  0  0  0  0
    5.1971    3.7512    0.0000 C   0  0  0  0  0  0  0  0  0  0  0  0
    6.4975    1.4998    0.0000 C   0  0  0  0  0  0  0  0  0  0  0  0
   -2.6000   -0.7500    0.0000 C   0  0  0  0  0  0  0  0  0  0  0  0
   -2.6000    0.7500    0.0000 C   0  0  0  0  0  0  0  0  0  0  0  0
    3.8982    3.0010    0.0000 C   0  0  0  0  0  0  0  0  0  0  0  0
    5.1986    0.7496    0.0000 C   0  0  0  0  0  0  0  0  0  0  0  0
   -1.3000   -1.5000    0.0000 C   0  0  0  0  0  0  0  0  0  0  0  0
   -1.3000    1.5000    0.0000 C   0  0  0  0  0  0  0  0  0  0  0  0
    2.6000   -0.7500    0.0000 C   0  0  0  0  0  0  0  0  0  0  0  0
    3.1127   -2.1596    0.0000 H   0  0  0  0  0  0  0  0  0  0  0  0
    4.0772   -0.4897    0.0000 H   0  0  0  0  0  0  0  0  0  0  0  0
    3.8989    1.5002    0.0000 C   0  0  0  0  0  0  0  0  0  0  0  0
    0.0000   -0.7500    0.0000 C   0  0  0  0  0  0  0  0  0  0  0  0
    1.3000   -1.5000    0.0000 C   0  0  0  0  0  0  0  0  0  0  0  0
    0.0000    0.7500    0.0000 C   0  0  0  0  0  0  0  0  0  0  0  0
    2.6000    0.7500    0.0000 C   0  0  0  0  0  0  0  0  0  0  0  0
    1.3000   -3.0000    0.0000 O   0  0  0  0  0  0  0  0  0  0  0  0
    1.3000    1.5000    0.0000 O   0  0  0  0  0  0  0  0  0  0  0  0
 10 11  1  0
 10 12  1  0
  2  1  2  0
  3  1  1  0
  5  4  2  0
  6  2  1  0
  7  3  2  0
  8  4  1  0
  9  5  1  0
 13  6  2  0
 13  7  1  0
 14  8  2  0
 15 10  1  0
 15 14  1  0
 16  9  2  0
 16 14  1  0
 17 10  1  0
 17 13  1  0
 18 15  1  0
 19 16  1  0
 19 17  1  0
M  ISO  2  11   2  12   2
M  END
>  <NAME>  (6710) 
3,3-DIDEUTEROFLAVAN-4-OL

>  <SYNONYMS>  (6710) 
2-PHENYL(3,3-2H2)CHROMAN-4-OL

>  <SPECTRUM TYPE>  (6710) 
MS1

>  <INSTRUMENT TYPE>  (6710) 
EI-B

>  <INSTRUMENT>  (6710) 
HITACHI RMU-6D

>  <ION MODE>  (6710) 
P

>  <INCHIKEY>  (6710) 
YTMFRMLVZQOBDR-KBMKNGFXSA-N

>  <FORMULA>  (6710) 
C15H14O2

>  <EXACT MASS>  (6710) 
228.11193318

>  <MW>  (6710) 
228

>  <ID>  (6710) 
JP001248

>  <CONTRIBUTOR>  (6710) 
University of Tokyo Team, {Faculty of Engineering, University of Tokyo

>  <COMMENT>  (6710) 
SMILES=c(c3)ccc(c3)C(O1)C([2H])([2H])C(O)c(c2)c(ccc2)1
InChI=InChI=1S/C15H14O2/c16-13-10-15(11-6-2-1-3-7-11)17-14-9-5-4-8-12(13)14/h1-9,13,15-16H,10H2/i10D2
computed SMILES=[H]C1([H])C(O)C=2C=CC=CC2OC1C=3C=CC=CC3
accession=JP001248
date=2016.01.19 (Created 2008.10.21, modified 2011.05.06)
author=SASAKI S, TOYOHASHI UNIV. OF TECH.
license=CC BY-NC-SA
exact mass=226.09938
ionization energy=70 eV
ion type=[M]+*
computed spectral entropy=2.033202464954838
computed normalized entropy=0.624046108280611
SPLASH=splash10-0a4i-0940000000-c299d5775caed9fe255a
submitter=submitter = University of Tokyo Team (Faculty of Engineering, University of Tokyo)
MoNA Rating=3.75

>  <NUM PEAKS>  (6710) 
26

>  <MASS SPECTRAL PEAKS>  (6710) 
104 4
105 25
106 99.99
107 1.3
108 1
109 0.3
120 0.5
121 0.6
122 25
123 3
131 1
132 0.5
133 0.3
150 4.3
206 0.3
207 0.5
208 21
209 30
210 7
211 0.1
212 0.3
225 0.3
226 1.3
227 0.43
228 18
229 3.3

$$$$

     RDKit          2D

 12 13  0  0  1  0  0  0  0  0999 V2000
    3.8989    1.5002    0.0000 C   0  0  0  0  0  0  0  0  0  0  0  0
   -2.6000   -0.7500    0.0000 C   0  0  0  0  0  0  0  0  0  0  0  0
   -2.6000    0.7500    0.0000 C   0  0  0  0  0  0  0  0  0  0  0  0
   -1.3000   -1.5000    0.0000 C   0  0  0  0  0  0  0  0  0  0  0  0
   -1.3000    1.5000    0.0000 C   0  0  0  0  0  0  0  0  0  0  0  0
    2.6000   -0.7500    0.0000 C   0  0  0  0  0  0  0  0  0  0  0  0
    2.6000    0.7500    0.0000 C   0  0  0  0  0  0  0  0  0  0  0  0
    0.0000   -0.7500    0.0000 C   0  0  0  0  0  0  0  0  0  0  0  0
    1.3000   -1.5000    0.0000 C   0  0  0  0  0  0  0  0  0  0  0  0
    0.0000    0.7500    0.0000 C   0  0  0  0  0  0  0  0  0  0  0  0
    1.3000   -3.0000    0.0000 O   0  0  0  0  0  0  0  0  0  0  0  0
    1.3000    1.5000    0.0000 O   0  0  0  0  0  0  0  0  0  0  0  0
  3  2  2  0
  4  2  1  0
  5  3  1  0
  7  1  1  1
  7  6  1  0
  8  4  2  0
  9  6  1  0
  9  8  1  0
 10  5  2  0
 10  8  1  0
  9 11  1  6
 12  7  1  0
 12 10  1  0
M  END
>  <NAME>  (6711) 
TRANS-2-METHYLCHROMAN-4-OL

>  <SYNONYMS>  (6711) 


>  <SPECTRUM TYPE>  (6711) 
MS1

>  <INSTRUMENT TYPE>  (6711) 
EI-B

>  <INSTRUMENT>  (6711) 
HITACHI RMU-6D

>  <ION MODE>  (6711) 
P

>  <INCHIKEY>  (6711) 
DWBIZQGILMWHRS-CBAPKCEASA-N

>  <FORMULA>  (6711) 
C10H12O2

>  <EXACT MASS>  (6711) 
164.083729624

>  <MW>  (6711) 
164

>  <ID>  (6711) 
JP001246

>  <CONTRIBUTOR>  (6711) 
University of Tokyo Team, {Faculty of Engineering, University of Tokyo

>  <COMMENT>  (6711) 
SMILES=CC(C1)Oc(c2)c(ccc2)C(O)1
InChI=InChI=1S/C10H12O2/c1-7-6-9(11)8-4-2-3-5-10(8)12-7/h2-5,7,9,11H,6H2,1H3/t7-,9-/m0/s1
computed SMILES=OC1C=2C=CC=CC2OC(C)C1
accession=JP001246
date=2016.01.19 (Created 2008.10.21, modified 2011.05.06)
author=SASAKI S, TOYOHASHI UNIV. OF TECH.
license=CC BY-NC-SA
exact mass=164.08373
ionization energy=70 eV
ion type=[M]+*
computed spectral entropy=3.425854299666234
computed normalized entropy=0.7632282986359781
SPLASH=splash10-00e9-7900000000-64dbe6db6a61b6c2b2a1
submitter=submitter = University of Tokyo Team (Faculty of Engineering, University of Tokyo)
MoNA Rating=3.75

>  <NUM PEAKS>  (6711) 
89

>  <MASS SPECTRAL PEAKS>  (6711) 
15 1
17 0.7
18 3
26 0.1
27 10
28 2
29 3
31 0.1
37 1
38 5
39 35
40 0.6
41 10
42 2
43 6
45 0.13
50 9
51 23
52 5.3
53 0.4
54 0.7
55 5
57 0.7
58 0.07
61 1
62 4.7
63 14
64 0.6
65 30
66 8
67 1
68 0.07
69 1.7
72 0.7
73 0.7
74 0.4
75 5
76 12
77 32
78 0.6
79 3.7
86 0.7
87 0.7
88 0.07
89 5.3
90 2
91 20
92 0.6
93 8
94 10
95 8
96 0.1
101 1
102 4
103 7
104 1.4
105 7
106 0.7
107 7
108 0.07
115 10
116 2
117 4
118 0.27
119 3
120 6.7
121 89.7
122 6
123 20
124 1.3
126 0.7
127 0.2
128 2.3
129 1
130 0.7
131 99.99
132 10
133 0.8
135 1
144 0.1
145 15
146 11.7
147 5
148 0.08
149 0.8
163 6.7
164 49
165 0.6
166 0.7

$$$$

     RDKit          2D

 28 31  0  0  0  0  0  0  0  0999 V2000
   -5.3647   -0.4558    0.0000 C   0  0  0  0  0  0  0  0  0  0  0  0
   -4.4198   -2.1333    0.0000 C   0  0  0  0  0  0  0  0  0  0  0  0
   10.4119    3.0403    0.0000 C   0  0  0  0  0  0  0  0  0  0  0  0
   -1.3166    3.7456    0.0000 C   0  0  0  0  0  0  0  0  0  0  0  0
    5.1940    2.9986    0.0000 C   0  0  0  0  0  0  0  0  0  0  0  0
    6.4727    0.7536    0.0000 C   0  0  0  0  0  0  0  0  0  0  0  0
    6.4611    3.7535    0.0000 C   0  0  0  0  0  0  0  0  0  0  0  0
    7.8198    1.5088    0.0000 C   0  0  0  0  0  0  0  0  0  0  0  0
   -2.5800    1.5000    0.0000 C   0  0  0  0  0  0  0  0  0  0  0  0
   -3.8800    0.7600    0.0000 C   0  0  0  0  0  0  0  0  0  0  0  0
   -0.0000   -1.5000    0.0000 C   0  0  0  0  0  0  0  0  0  0  0  0
    5.1998    1.4986    0.0000 C   0  0  0  0  0  0  0  0  0  0  0  0
    7.8140    3.0088    0.0000 C   0  0  0  0  0  0  0  0  0  0  0  0
   -1.2900    0.7500    0.0000 C   0  0  0  0  0  0  0  0  0  0  0  0
   -1.3000   -0.7500    0.0000 C   0  0  0  0  0  0  0  0  0  0  0  0
    1.2900   -0.7600    0.0000 C   0  0  0  0  0  0  0  0  0  0  0  0
    3.9000    0.7500    0.0000 C   0  0  0  0  0  0  0  0  0  0  0  0
    1.2900    0.7500    0.0000 C   0  0  0  0  0  0  0  0  0  0  0  0
    2.5900    1.5100    0.0000 C   0  0  0  0  0  0  0  0  0  0  0  0
   -0.0100    1.5000    0.0000 C   0  0  0  0  0  0  0  0  0  0  0  0
    3.9000   -0.7600    0.0000 C   0  0  0  0  0  0  0  0  0  0  0  0
   -3.8900   -0.7300    0.0000 C   0  0  0  0  0  0  0  0  0  0  0  0
    2.5875    3.0100    0.0000 O   0  0  0  0  0  0  0  0  0  0  0  0
    5.1977   -1.5124    0.0000 O   0  0  0  0  0  0  0  0  0  0  0  0
    9.1038    3.7745    0.0000 O   0  0  0  0  0  0  0  0  0  0  0  0
   -0.0151    3.0000    0.0000 O   0  0  0  0  0  0  0  0  0  0  0  0
    2.5900   -1.5100    0.0000 O   0  0  0  0  0  0  0  0  0  0  0  0
   -2.6000   -1.5000    0.0000 O   0  0  0  0  0  0  0  0  0  0  0  0
  7  5  2  0
  8  6  1  0
 10  9  2  0
 12  5  1  0
 12  6  2  0
 13  7  1  0
 13  8  2  0
 14  9  1  0
 15 11  1  0
 15 14  2  0
 16 11  2  0
 17 12  1  0
 18 16  1  0
 19 17  2  0
 19 18  1  0
 20 14  1  0
 20 18  2  0
 21 17  1  0
 22  1  1  0
 22  2  1  0
 22 10  1  0
 23 19  1  0
 24 21  2  0
 25  3  1  0
 25 13  1  0
 26  4  1  0
 26 20  1  0
 27 16  1  0
 27 21  1  0
 28 15  1  0
 28 22  1  0
M  END
>  <NAME>  (6712) 
ROBUSTIC ACID

>  <SYNONYMS>  (6712) 


>  <SPECTRUM TYPE>  (6712) 
MS1

>  <INSTRUMENT TYPE>  (6712) 
EI-B

>  <INSTRUMENT>  (6712) 
HITACHI RMU-6D

>  <ION MODE>  (6712) 
P

>  <INCHIKEY>  (6712) 
MBZKDBQDALOSRP-UHFFFAOYSA-N

>  <FORMULA>  (6712) 
C22H20O6

>  <EXACT MASS>  (6712) 
380.12598835999995

>  <MW>  (6712) 
380

>  <ID>  (6712) 
JP001230

>  <CONTRIBUTOR>  (6712) 
University of Tokyo Team, {Faculty of Engineering, University of Tokyo

>  <COMMENT>  (6712) 
SMILES=COc(c4)ccc(c4)C(C(=O)3)=C(O)c(c(O3)1)c(OC)c(C=2)c(OC(C)(C)C2)c1
cas=5307-59-5
InChI=InChI=1S/C22H20O6/c1-22(2)10-9-14-15(28-22)11-16-18(20(14)26-4)19(23)17(21(24)27-16)12-5-7-13(25-3)8-6-12/h5-11,23H,1-4H3
computed SMILES=O=C1OC=2C=C3OC(C=CC3=C(OC)C2C(O)=C1C=4C=CC(OC)=CC4)(C)C
accession=JP001230
date=2016.01.19 (Created 2008.10.21, modified 2011.05.06)
author=SASAKI S, TOYOHASHI UNIV. OF TECH.
license=CC BY-NC-SA
exact mass=380.12599
ionization energy=70 eV
ion type=[M]+*
computed spectral entropy=2.5045280458916626
computed normalized entropy=0.7437802237594678
SPLASH=splash10-0159-1469000000-e858f52a87e1a1831002
submitter=submitter = University of Tokyo Team (Faculty of Engineering, University of Tokyo)
MoNA Rating=3.75

>  <NUM PEAKS>  (6712) 
29

>  <MASS SPECTRAL PEAKS>  (6712) 
77 18
91 10
105 6
115 0.4
120 7
135 7
148 23
162 0.2
165 12
175 13
190 6
201 0.08
202 8
203 13
217 95
233 0.32
294 5
307 6
323 14
337 0.19
350 8
351 6
352 1
365 0.73
366 4
367 3
378 17
380 99.99
382 7

$$$$

     RDKit          2D

 16 15  0  0  0  0  0  0  0  0999 V2000
    1.5269   -0.3014    0.0000 C   0  0  0  0  0  0  0  0  0  0  0  0
    2.2769   -1.6005    0.0000 H   0  0  0  0  0  0  0  0  0  0  0  0
    0.7769    0.9976    0.0000 H   0  0  0  0  0  0  0  0  0  0  0  0
    0.2279   -1.0514    0.0000 H   0  0  0  0  0  0  0  0  0  0  0  0
    6.7231    7.1986    0.0000 C   0  0  0  0  0  0  0  0  0  0  0  0
    7.4731    5.8995    0.0000 H   0  0  0  0  0  0  0  0  0  0  0  0
    8.0221    7.9486    0.0000 H   0  0  0  0  0  0  0  0  0  0  0  0
    5.9731    8.4976    0.0000 H   0  0  0  0  0  0  0  0  0  0  0  0
    4.1250    2.6986    0.0000 C   0  0  0  0  0  0  0  0  0  0  0  0
    4.1250    4.1986    0.0000 C   0  0  0  0  0  0  0  0  0  0  0  0
    2.8260    0.4486    0.0000 C   0  0  0  0  0  0  0  0  0  0  0  0
    5.4240    6.4486    0.0000 C   0  0  0  0  0  0  0  0  0  0  0  0
    4.1250   -0.3014    0.0000 O   0  0  0  0  0  0  0  0  0  0  0  0
    4.1250    7.1986    0.0000 O   0  0  0  0  0  0  0  0  0  0  0  0
    2.8260    1.9486    0.0000 O   0  0  0  0  0  0  0  0  0  0  0  0
    5.4240    4.9486    0.0000 O   0  0  0  0  0  0  0  0  0  0  0  0
  1  2  1  0
  1  3  1  0
  1  4  1  0
  5  6  1  0
  5  7  1  0
  5  8  1  0
 10  9  1  0
 11  1  1  0
 12  5  1  0
 13 11  2  0
 14 12  2  0
 15  9  1  0
 15 11  1  0
 16 10  1  0
 16 12  1  0
M  ISO  6   2   2   3   2   4   2   6   2   7   2   8   2
M  END
>  <NAME>  (6713) 
ETHYLENE GLYCOL DIDEUTEROACETYL ESTER

>  <SYNONYMS>  (6713) 
ETHYLENE DI((2H3)ACETATE)

>  <SPECTRUM TYPE>  (6713) 
MS1

>  <INSTRUMENT TYPE>  (6713) 
EI-B

>  <INSTRUMENT>  (6713) 
HITACHI RMU-6D

>  <ION MODE>  (6713) 
P

>  <INCHIKEY>  (6713) 
JTXMVXSTHSMVQF-WFGJKAKNSA-N

>  <FORMULA>  (6713) 
C6H10O4

>  <EXACT MASS>  (6713) 
152.09556927600002

>  <MW>  (6713) 
152

>  <ID>  (6713) 
JP001229

>  <CONTRIBUTOR>  (6713) 
University of Tokyo Team, {Faculty of Engineering, University of Tokyo

>  <COMMENT>  (6713) 
SMILES=[2H]C([2H])([2H])C(=O)OCCOC(=O)C([2H])([2H])[2H]
InChI=InChI=1S/C6H10O4/c1-5(7)9-3-4-10-6(2)8/h3-4H2,1-2H3/i1D3,2D3
computed SMILES=[H]C([H])([H])C(=O)OCCOC(=O)C([H])([H])[H]
accession=JP001229
date=2016.01.19 (Created 2008.10.21, modified 2011.05.06)
author=SASAKI S, TOYOHASHI UNIV. OF TECH.
license=CC BY-NC-SA
exact mass=146.05791
ionization energy=70 eV
ion type=[M]+*
computed spectral entropy=0.9896758679904061
computed normalized entropy=0.41272689396290574
SPLASH=splash10-0002-9000000000-ce9b675b4670b1a271d0
submitter=submitter = University of Tokyo Team (Faculty of Engineering, University of Tokyo)
MoNA Rating=3.75

>  <NUM PEAKS>  (6713) 
11

>  <MASS SPECTRAL PEAKS>  (6713) 
18 6.6
28 2.4
44 2.2
45 0.42
46 99.99
47 2.2
76 3.4
89 0.52
92 4.2
109 2.8
122 3.4

$$$$

     RDKit          2D

 18 18  0  0  0  0  0  0  0  0999 V2000
    6.3000   -0.9371    0.0000 C   0  0  0  0  0  0  0  0  0  0  0  0
    5.0010    1.3129    0.0000 C   0  0  0  0  0  0  0  0  0  0  0  0
   -0.1952   -3.1871    0.0000 C   0  0  0  0  0  0  0  0  0  0  0  0
   -2.7938   -0.1869    0.0000 C   0  0  0  0  0  0  0  0  0  0  0  0
    1.1040    3.5639    0.0000 C   0  0  0  0  0  0  0  0  0  0  0  0
    2.4034   -3.1880    0.0000 C   0  0  0  0  0  0  0  0  0  0  0  0
    3.7024   -2.4380    0.0000 C   0  0  0  0  0  0  0  0  0  0  0  0
    5.0010   -0.1871    0.0000 C   0  0  0  0  0  0  0  0  0  0  0  0
    1.1039   -2.4371    0.0000 C   0  0  0  0  0  0  0  0  0  0  0  0
   -1.4947   -0.9367    0.0000 C   0  0  0  0  0  0  0  0  0  0  0  0
    1.1038    2.0639    0.0000 C   0  0  0  0  0  0  0  0  0  0  0  0
    3.7020   -0.9371    0.0000 C   0  0  0  0  0  0  0  0  0  0  0  0
    1.1034   -0.9363    0.0000 C   0  0  0  0  0  0  0  0  0  0  0  0
    2.4024   -0.1863    0.0000 C   0  0  0  0  0  0  0  0  0  0  0  0
   -1.4944   -2.4367    0.0000 O   0  0  0  0  0  0  0  0  0  0  0  0
   -0.1954    1.3141    0.0000 O   0  0  0  0  0  0  0  0  0  0  0  0
   -0.1958   -0.1865    0.0000 O   0  0  0  0  0  0  0  0  0  0  0  0
    2.4027    1.3137    0.0000 O   0  0  0  0  0  0  0  0  0  0  0  0
  7  6  1  0
  8  1  1  0
  8  2  1  0
  9  3  1  0
  9  6  1  0
 10  4  1  0
 11  5  1  0
 12  7  1  0
 12  8  1  0
 13  9  1  0
 14 12  1  0
 14 13  1  0
 15 10  2  0
 16 11  2  0
 17 10  1  0
 17 13  1  0
 18 11  1  0
 18 14  1  0
M  END
>  <NAME>  (6714) 
PARA-MENTH-2,3-YLENE DIACETATE

>  <SYNONYMS>  (6714) 


>  <SPECTRUM TYPE>  (6714) 
MS1

>  <INSTRUMENT TYPE>  (6714) 
EI-B

>  <INSTRUMENT>  (6714) 
HITACHI RMU-6D

>  <ION MODE>  (6714) 
P

>  <INCHIKEY>  (6714) 
UQPARNPFQUTRPS-UHFFFAOYSA-N

>  <FORMULA>  (6714) 
C14H24O4

>  <EXACT MASS>  (6714) 
256.167459248

>  <MW>  (6714) 
256

>  <ID>  (6714) 
JP001228

>  <CONTRIBUTOR>  (6714) 
University of Tokyo Team, {Faculty of Engineering, University of Tokyo

>  <COMMENT>  (6714) 
SMILES=CC(=O)OC(C(C)1)C(OC(C)=O)C(C(C)C)CC1
InChI=InChI=1S/C14H24O4/c1-8(2)12-7-6-9(3)13(17-10(4)15)14(12)18-11(5)16/h8-9,12-14H,6-7H2,1-5H3
computed SMILES=O=C(OC1C(OC(=O)C)C(CCC1C)C(C)C)C
accession=JP001228
date=2016.01.19 (Created 2008.10.21, modified 2011.05.06)
author=SASAKI S, TOYOHASHI UNIV. OF TECH.
license=CC BY-NC-SA
exact mass=256.16746
ionization energy=70 eV
ion type=[M]+*
computed spectral entropy=2.677565602027845
computed normalized entropy=0.6844452597320047
SPLASH=splash10-0006-9600000000-56f6818b0ce1050283d5
submitter=submitter = University of Tokyo Team (Faculty of Engineering, University of Tokyo)
MoNA Rating=3.75

>  <NUM PEAKS>  (6714) 
50

>  <MASS SPECTRAL PEAKS>  (6714) 
15 1
17 1.3
27 2
28 0.2
29 2.7
39 1.3
41 10
42 0.2
43 99.99
44 3
54 1.3
55 0.8
56 1.3
57 3.3
67 2.7
68 0.13
69 8
70 2.3
71 4.7
78 0.1
80 2
82 5.3
83 1.3
84 0.3
85 9.3
86 1.3
90 0.7
93 0.53
94 1.7
95 4.3
96 1
97 0.27
105 1
107 1.3
110 49.7
111 1
121 6.7
136 2
137 3
138 0.13
139 17
140 1
153 11
154 3.77
155 4
173 4
174 12
195 0.1
196 5
197 1.3

$$$$

     RDKit          2D

 14 14  0  0  0  0  0  0  0  0999 V2000
   -1.6353    4.6878    0.0000 C   0  0  0  0  0  0  0  0  0  0  0  0
    4.8670    0.9406    0.0000 C   0  0  0  0  0  0  0  0  0  0  0  0
   -1.6200   -1.3100    0.0000 C   0  0  0  0  0  0  0  0  0  0  0  0
   -0.3300   -2.0600    0.0000 C   0  0  0  0  0  0  0  0  0  0  0  0
   -1.6200    0.1900    0.0000 C   0  0  0  0  0  0  0  0  0  0  0  0
    0.9700   -1.3100    0.0000 C   0  0  0  0  0  0  0  0  0  0  0  0
   -1.6328    3.1878    0.0000 C   0  0  0  0  0  0  0  0  0  0  0  0
    3.5681    0.1904    0.0000 C   0  0  0  0  0  0  0  0  0  0  0  0
   -0.3300    0.9400    0.0000 C   0  0  0  0  0  0  0  0  0  0  0  0
    0.9700    0.1900    0.0000 C   0  0  0  0  0  0  0  0  0  0  0  0
   -2.9306    2.4356    0.0000 O   0  0  0  0  0  0  0  0  0  0  0  0
    3.5683   -1.3096    0.0000 O   0  0  0  0  0  0  0  0  0  0  0  0
   -0.3325    2.4400    0.0000 O   0  0  0  0  0  0  0  0  0  0  0  0
    2.2689    0.9402    0.0000 O   0  0  0  0  0  0  0  0  0  0  0  0
  4  3  1  0
  5  3  1  0
  6  4  1  0
  7  1  1  0
  8  2  1  0
  9  5  1  0
 10  6  1  0
 10  9  1  0
 11  7  2  0
 12  8  2  0
 13  7  1  0
 13  9  1  0
 14  8  1  0
 14 10  1  0
M  END
>  <NAME>  (6715) 
1,2-CYCLOHEXYLENE DIACETATE

>  <SYNONYMS>  (6715) 


>  <SPECTRUM TYPE>  (6715) 
MS1

>  <INSTRUMENT TYPE>  (6715) 
EI-B

>  <INSTRUMENT>  (6715) 
HITACHI RMU-6D

>  <ION MODE>  (6715) 
P

>  <INCHIKEY>  (6715) 
NSTPWRQTPXJRSP-UHFFFAOYSA-N

>  <FORMULA>  (6715) 
C10H16O4

>  <EXACT MASS>  (6715) 
200.104858992

>  <MW>  (6715) 
200

>  <ID>  (6715) 
JP001226

>  <CONTRIBUTOR>  (6715) 
University of Tokyo Team, {Faculty of Engineering, University of Tokyo

>  <COMMENT>  (6715) 
SMILES=CC(=O)OC(C1)C(CCC1)OC(C)=O
InChI=InChI=1S/C10H16O4/c1-7(11)13-9-5-3-4-6-10(9)14-8(2)12/h9-10H,3-6H2,1-2H3
computed SMILES=O=C(OC1CCCCC1OC(=O)C)C
accession=JP001226
date=2016.01.19 (Created 2008.10.21, modified 2011.05.06)
author=SASAKI S, TOYOHASHI UNIV. OF TECH.
license=CC BY-NC-SA
exact mass=200.10486
ionization energy=70 eV
ion type=[M]+*
computed spectral entropy=2.5738022796198505
computed normalized entropy=0.7239241376951511
SPLASH=splash10-0007-9200000000-591eb504bfcdbfb1b86b
submitter=submitter = University of Tokyo Team (Faculty of Engineering, University of Tokyo)
MoNA Rating=3.75

>  <NUM PEAKS>  (6715) 
35

>  <MASS SPECTRAL PEAKS>  (6715) 
16 6
18 5.5
19 16
27 0.3
28 4
29 2
39 4
41 0.7
42 2
43 99.99
44 3
55 0.15
57 3
61 4
66 3
68 0.4
69 8
77 5
78 3.5
79 0.2
81 3.5
96 18
97 42
98 0.3
110 1
111 20
112 2
114 1.4
115 6
123 1
131 2
141 7.35
142 7
157 8
158 6.5

$$$$

     RDKit          2D

 14 15  0  0  0  0  0  0  0  0999 V2000
    3.2876    3.5904    0.0000 C   0  0  0  0  0  0  0  0  0  0  0  0
    1.2027   -2.3196    0.0000 C   0  0  0  0  0  0  0  0  0  0  0  0
    2.1672   -0.6497    0.0000 C   0  0  0  0  0  0  0  0  0  0  0  0
   -0.6100    2.8400    0.0000 C   0  0  0  0  0  0  0  0  0  0  0  0
   -1.9100   -0.9100    0.0000 C   0  0  0  0  0  0  0  0  0  0  0  0
   -1.9100    0.5900    0.0000 C   0  0  0  0  0  0  0  0  0  0  0  0
   -1.3600   -0.1500    0.0000 C   0  0  0  0  0  0  0  0  0  0  0  0
    1.9887    2.8402    0.0000 C   0  0  0  0  0  0  0  0  0  0  0  0
   -0.6100   -1.6600    0.0000 C   0  0  0  0  0  0  0  0  0  0  0  0
    0.6900    0.5900    0.0000 C   0  0  0  0  0  0  0  0  0  0  0  0
    0.6900   -0.9100    0.0000 C   0  0  0  0  0  0  0  0  0  0  0  0
   -0.6100    1.3400    0.0000 C   0  0  0  0  0  0  0  0  0  0  0  0
    0.6895    3.5900    0.0000 O   0  0  0  0  0  0  0  0  0  0  0  0
    1.9889    1.3402    0.0000 O   0  0  0  0  0  0  0  0  0  0  0  0
  6  5  1  0
  8  1  1  0
  9  5  1  0
  9  7  1  0
 11  2  1  0
 11  3  1  0
 11  9  1  0
 11 10  1  0
 12  4  1  0
 12  6  1  0
 12  7  1  0
 12 10  1  0
 13  8  2  0
 14  8  1  0
 14 10  1  0
M  END
>  <NAME>  (6716) 
3,3-DIMETHYL-8,9-DINORBORNAN-2-YL ACETATE

>  <SYNONYMS>  (6716) 
1,3,3-TRIMETHYLBICYCLO(2.2.1)HEPT-2-YL ACETATE

>  <SPECTRUM TYPE>  (6716) 
MS1

>  <INSTRUMENT TYPE>  (6716) 
EI-B

>  <INSTRUMENT>  (6716) 
HITACHI RMU-6D

>  <ION MODE>  (6716) 
P

>  <INCHIKEY>  (6716) 
JUWUWIGZUVEFQB-UHFFFAOYSA-N

>  <FORMULA>  (6716) 
C12H20O2

>  <EXACT MASS>  (6716) 
196.14632988

>  <MW>  (6716) 
196

>  <ID>  (6716) 
JP001224

>  <CONTRIBUTOR>  (6716) 
University of Tokyo Team, {Faculty of Engineering, University of Tokyo

>  <COMMENT>  (6716) 
SMILES=CC(=O)OC(C(C)(C)1)C(C)(C2)CC(C2)1
InChI=InChI=1S/C12H20O2/c1-8(13)14-10-11(2,3)9-5-6-12(10,4)7-9/h9-10H,5-7H2,1-4H3
computed SMILES=O=C(OC1C(C)(C)C2CCC1(C)C2)C
accession=JP001224
date=2016.01.19 (Created 2008.10.21, modified 2011.05.06)
author=SASAKI S, TOYOHASHI UNIV. OF TECH.
license=CC BY-NC-SA
exact mass=196.14633
ionization energy=70 eV
ion type=[M]+*
computed spectral entropy=3.087786718702112
computed normalized entropy=0.7317883825438444
SPLASH=splash10-001l-9100000000-63f2f1bf541d7335ffbe
submitter=submitter = University of Tokyo Team (Faculty of Engineering, University of Tokyo)
MoNA Rating=3.75

>  <NUM PEAKS>  (6716) 
68

>  <MASS SPECTRAL PEAKS>  (6716) 
14 0.5
15 2
18 5
26 0.5
27 58.5
28 6
31 12
38 0.7
40 25.5
41 1.5
42 76
43 0.2
44 2
50 0.5
51 0.5
52 0.03
53 6
54 0.3
55 12
56 0.1
57 3
59 1
66 2
67 0.05
68 14
69 1
70 14.5
71 0.05
72 6.5
73 13.5
77 4
78 0.05
79 0.5
80 8
81 42
82 99.99
83 12
85 5
86 5
87 0.15
88 1
91 3
92 4
93 1.2
94 4
95 6
96 0.5
97 0.23
99 1
105 1
107 12
108 0.2
109 8
110 0.5
111 4
114 0.05
115 2
116 3
121 20
122 0.2
123 3
134 4
135 34
136 0.35
137 0.5
138 2
157 1.8
158 3

$$$$

     RDKit          2D

 14 14  0  0  0  0  0  0  0  0999 V2000
   -1.5890   -3.5800    0.0000 C   0  0  0  0  0  0  0  0  0  0  0  0
    1.0090   -3.5800    0.0000 C   0  0  0  0  0  0  0  0  0  0  0  0
   -0.2900    3.1700    0.0000 C   0  0  0  0  0  0  0  0  0  0  0  0
    4.9070   -1.3306    0.0000 C   0  0  0  0  0  0  0  0  0  0  0  0
   -1.5900    0.9200    0.0000 C   0  0  0  0  0  0  0  0  0  0  0  0
   -1.5900   -0.5800    0.0000 C   0  0  0  0  0  0  0  0  0  0  0  0
    1.0100    0.9200    0.0000 C   0  0  0  0  0  0  0  0  0  0  0  0
   -0.2900   -2.8300    0.0000 C   0  0  0  0  0  0  0  0  0  0  0  0
   -0.2900    1.6700    0.0000 C   0  0  0  0  0  0  0  0  0  0  0  0
    3.6081   -0.5804    0.0000 C   0  0  0  0  0  0  0  0  0  0  0  0
   -0.2900   -1.3300    0.0000 C   0  0  0  0  0  0  0  0  0  0  0  0
    1.0100   -0.5800    0.0000 C   0  0  0  0  0  0  0  0  0  0  0  0
    3.6083    0.9196    0.0000 O   0  0  0  0  0  0  0  0  0  0  0  0
    2.3089   -1.3302    0.0000 O   0  0  0  0  0  0  0  0  0  0  0  0
  6  5  1  0
  8  1  1  0
  8  2  1  0
  9  3  1  0
  9  5  1  0
  9  7  1  0
 10  4  1  0
 11  6  1  0
 11  8  2  0
 12  7  1  0
 12 11  1  0
 13 10  2  0
 14 10  1  0
 14 12  1  0
M  END
>  <NAME>  (6717) 
4(8)-PARA-MENTHEN-3-YL ACETATE

>  <SYNONYMS>  (6717) 


>  <SPECTRUM TYPE>  (6717) 
MS1

>  <INSTRUMENT TYPE>  (6717) 
EI-B

>  <INSTRUMENT>  (6717) 
HITACHI RMU-6D

>  <ION MODE>  (6717) 
P

>  <INCHIKEY>  (6717) 
ZAPTZQHAWAYFSW-UHFFFAOYSA-N

>  <FORMULA>  (6717) 
C12H20O2

>  <EXACT MASS>  (6717) 
196.14632988

>  <MW>  (6717) 
196

>  <ID>  (6717) 
JP001222

>  <CONTRIBUTOR>  (6717) 
University of Tokyo Team, {Faculty of Engineering, University of Tokyo

>  <COMMENT>  (6717) 
SMILES=CC(=O)OC(C1)C(CCC(C)1)=C(C)C
InChI=InChI=1S/C12H20O2/c1-8(2)11-6-5-9(3)7-12(11)14-10(4)13/h9,12H,5-7H2,1-4H3
computed SMILES=O=C(OC1C(=C(C)C)CCC(C)C1)C
accession=JP001222
date=2016.01.19 (Created 2008.10.21, modified 2011.05.06)
author=SASAKI S, TOYOHASHI UNIV. OF TECH.
license=CC BY-NC-SA
exact mass=196.14633
ionization energy=70 eV
ion type=[M]+*
computed spectral entropy=3.405926894862564
computed normalized entropy=0.7938373364394113
SPLASH=splash10-004u-9200000000-7fe44a4cee4d40830a9c
submitter=submitter = University of Tokyo Team (Faculty of Engineering, University of Tokyo)
MoNA Rating=3.75

>  <NUM PEAKS>  (6717) 
73

>  <MASS SPECTRAL PEAKS>  (6717) 
13 3
14 12
15 2
16 0.6
17 27
25 3
26 18
27 5.9
28 12
31 22.5
35 1
36 0.2
37 29
38 4
39 28
40 0.3
41 52
42 20
43 8.5
50 0.2
51 12
52 6
53 16
54 0.2
55 17
56 1
57 0.5
58 2.5
59 1
60 8
63 0.5
64 0.3
65 1
66 12
67 5
68 1.4
69 15.5
70 2
71 0.5
72 0.05
73 0.5
74 0.5
77 29
78 0.6
79 99.99
80 13
81 11
82 0.2
89 1
91 30
92 8
93 7
94 24
95 7
96 1
104 0.2
105 2.5
106 13
107 3
108 5.85
109 14
110 1
115 0.5
117 0.05
119 2
120 0.5
121 61
122 0.6
123 1
134 1
135 60
137 0.2
138 2

$$$$

     RDKit          2D

 14 14  0  0  0  0  0  0  0  0999 V2000
   -1.5890   -3.5800    0.0000 C   0  0  0  0  0  0  0  0  0  0  0  0
    1.0090   -3.5800    0.0000 C   0  0  0  0  0  0  0  0  0  0  0  0
   -0.2900    3.1700    0.0000 C   0  0  0  0  0  0  0  0  0  0  0  0
    4.9070   -1.3306    0.0000 C   0  0  0  0  0  0  0  0  0  0  0  0
   -1.5900    0.9200    0.0000 C   0  0  0  0  0  0  0  0  0  0  0  0
   -1.5900   -0.5800    0.0000 C   0  0  0  0  0  0  0  0  0  0  0  0
    1.0100    0.9200    0.0000 C   0  0  0  0  0  0  0  0  0  0  0  0
   -0.2900   -2.8300    0.0000 C   0  0  0  0  0  0  0  0  0  0  0  0
   -0.2900    1.6700    0.0000 C   0  0  0  0  0  0  0  0  0  0  0  0
    3.6081   -0.5804    0.0000 C   0  0  0  0  0  0  0  0  0  0  0  0
   -0.2900   -1.3300    0.0000 C   0  0  0  0  0  0  0  0  0  0  0  0
    1.0100   -0.5800    0.0000 C   0  0  0  0  0  0  0  0  0  0  0  0
    3.6083    0.9196    0.0000 O   0  0  0  0  0  0  0  0  0  0  0  0
    2.3089   -1.3302    0.0000 O   0  0  0  0  0  0  0  0  0  0  0  0
  6  5  1  0
  8  1  1  0
  8  2  1  0
  9  3  1  0
  9  5  1  0
  9  7  1  0
 10  4  1  0
 11  6  2  0
 11  8  1  0
 12  7  1  0
 12 11  1  0
 13 10  2  0
 14 10  1  0
 14 12  1  0
M  END
>  <NAME>  (6718) 
3-PARA-MENTHEN-5-YL ACETATE

>  <SYNONYMS>  (6718) 


>  <SPECTRUM TYPE>  (6718) 
MS1

>  <INSTRUMENT TYPE>  (6718) 
EI-B

>  <INSTRUMENT>  (6718) 
HITACHI RMU-6D

>  <ION MODE>  (6718) 
P

>  <INCHIKEY>  (6718) 
UWINAUQIAJDQEK-UHFFFAOYSA-N

>  <FORMULA>  (6718) 
C12H20O2

>  <EXACT MASS>  (6718) 
196.14632988

>  <MW>  (6718) 
196

>  <ID>  (6718) 
JP001220

>  <CONTRIBUTOR>  (6718) 
University of Tokyo Team, {Faculty of Engineering, University of Tokyo

>  <COMMENT>  (6718) 
SMILES=CC(=O)OC(C1)C(=CCC(C)1)C(C)C
InChI=InChI=1S/C12H20O2/c1-8(2)11-6-5-9(3)7-12(11)14-10(4)13/h6,8-9,12H,5,7H2,1-4H3
computed SMILES=O=C(OC1C(=CCC(C)C1)C(C)C)C
accession=JP001220
date=2016.01.19 (Created 2008.10.21, modified 2011.05.06)
author=SASAKI S, TOYOHASHI UNIV. OF TECH.
license=CC BY-NC-SA
exact mass=196.14633
ionization energy=70 eV
ion type=[M]+*
computed spectral entropy=3.3734774750762537
computed normalized entropy=0.8308151268997321
SPLASH=splash10-0006-9300000000-1e8123d56eb2494a0e82
submitter=submitter = University of Tokyo Team (Faculty of Engineering, University of Tokyo)
MoNA Rating=3.75

>  <NUM PEAKS>  (6718) 
58

>  <MASS SPECTRAL PEAKS>  (6718) 
15 6
17 16
18 45
27 1.8
28 22
29 14
39 14
40 0.15
41 42
42 5
43 99.99
44 0.3
53 10
54 2
55 19
56 0.6
57 8
64 4
65 1
67 2
68 8
69 21
70 4
71 2
78 11
79 2
80 17.5
81 0.4
82 40
83 16
84 8
85 0.05
86 2
87 0.5
91 11
92 0.8
93 53
94 12
95 55
96 1.4
97 6
105 5
107 36.5
108 0.75
109 10
110 2
111 23
112 0.5
121 63
122 7
123 20
137 5.8
138 10
139 33
140 11.5
153 0.1
154 2
196 1.5

$$$$

     RDKit          2D

 14 14  0  0  0  0  0  0  0  0999 V2000
   -1.5890   -3.5800    0.0000 C   0  0  0  0  0  0  0  0  0  0  0  0
    1.0090   -3.5800    0.0000 C   0  0  0  0  0  0  0  0  0  0  0  0
   -0.2900    3.1700    0.0000 C   0  0  0  0  0  0  0  0  0  0  0  0
    4.9070   -1.3306    0.0000 C   0  0  0  0  0  0  0  0  0  0  0  0
   -1.5900    0.9200    0.0000 C   0  0  0  0  0  0  0  0  0  0  0  0
   -1.5900   -0.5800    0.0000 C   0  0  0  0  0  0  0  0  0  0  0  0
    1.0100    0.9200    0.0000 C   0  0  0  0  0  0  0  0  0  0  0  0
   -0.2900   -2.8300    0.0000 C   0  0  0  0  0  0  0  0  0  0  0  0
   -0.2900    1.6700    0.0000 C   0  0  0  0  0  0  0  0  0  0  0  0
    3.6081   -0.5804    0.0000 C   0  0  0  0  0  0  0  0  0  0  0  0
   -0.2900   -1.3300    0.0000 C   0  0  0  0  0  0  0  0  0  0  0  0
    1.0100   -0.5800    0.0000 C   0  0  0  0  0  0  0  0  0  0  0  0
    3.6083    0.9196    0.0000 O   0  0  0  0  0  0  0  0  0  0  0  0
    2.3089   -1.3302    0.0000 O   0  0  0  0  0  0  0  0  0  0  0  0
  6  5  1  0
  8  1  1  0
  8  2  1  0
  9  3  1  0
  9  5  1  0
  9  7  2  0
 10  4  1  0
 11  6  1  0
 11  8  1  0
 12  7  1  0
 12 11  1  0
 13 10  2  0
 14 10  1  0
 14 12  1  0
M  END
>  <NAME>  (6719) 
1-PARA-MENTHEN-3-YL ACETATE

>  <SYNONYMS>  (6719) 


>  <SPECTRUM TYPE>  (6719) 
MS1

>  <INSTRUMENT TYPE>  (6719) 
EI-B

>  <INSTRUMENT>  (6719) 
HITACHI RMU-6D

>  <ION MODE>  (6719) 
P

>  <INCHIKEY>  (6719) 
NADGBBLSBLDJEH-UHFFFAOYSA-N

>  <FORMULA>  (6719) 
C12H20O2

>  <EXACT MASS>  (6719) 
196.14632988

>  <MW>  (6719) 
196

>  <ID>  (6719) 
JP001218

>  <CONTRIBUTOR>  (6719) 
University of Tokyo Team, {Faculty of Engineering, University of Tokyo

>  <COMMENT>  (6719) 
SMILES=CC(=O)OC(C=1)C(CCC(C)1)C(C)C
InChI=InChI=1S/C12H20O2/c1-8(2)11-6-5-9(3)7-12(11)14-10(4)13/h7-8,11-12H,5-6H2,1-4H3
computed SMILES=O=C(OC1C=C(C)CCC1C(C)C)C
accession=JP001218
date=2016.01.19 (Created 2008.10.21, modified 2011.05.06)
author=SASAKI S, TOYOHASHI UNIV. OF TECH.
license=CC BY-NC-SA
exact mass=196.14633
ionization energy=70 eV
ion type=[M]+*
computed spectral entropy=3.4596011606168053
computed normalized entropy=0.8037985220249766
SPLASH=splash10-006t-9300000000-b9ef0d50e24a36ee4c6b
submitter=submitter = University of Tokyo Team (Faculty of Engineering, University of Tokyo)
MoNA Rating=3.75

>  <NUM PEAKS>  (6719) 
74

>  <MASS SPECTRAL PEAKS>  (6719) 
15 4.5
17 1
18 5
27 1.8
28 11
29 14
31 2
40 1.5
41 3
42 50
43 6
44 8.8
45 4
46 2
51 3
52 0.1
53 11
54 7
55 39
56 1.15
57 18
58 2
59 2
61 1
63 0.05
65 4
67 0.5
68 23
69 1.4
70 32
71 7
72 53
73 0.4
77 14
78 13
79 11
80 6.4
81 35
82 15
83 8
84 0.75
85 3
91 12
92 8
93 4.5
94 16
95 99.99
96 30
97 0.6
99 3
100 0.5
105 1
106 0.2
108 10
109 8
110 4
111 0.2
112 5
118 3
120 12
122 3.35
123 3
128 64
136 9
137 0.4
138 64
139 9
140 0.5
141 0.15
154 0.5
155 0.5
156 2.5
157 0.1
158 1.5

$$$$

     RDKit          2D

 16 15  0  0  0  0  0  0  0  0999 V2000
    2.5981    5.2500    0.0000 C   0  0  0  0  0  0  0  0  0  0  0  0
   -9.0933    4.5000    0.0000 C   0  0  0  0  0  0  0  0  0  0  0  0
   -0.3349    7.1491    0.0000 C   0  0  0  0  0  0  0  0  0  0  0  0
   -2.2632    7.1491    0.0000 C   0  0  0  0  0  0  0  0  0  0  0  0
   -6.1603    2.6009    0.0000 C   0  0  0  0  0  0  0  0  0  0  0  0
   -4.2320    2.6009    0.0000 C   0  0  0  0  0  0  0  0  0  0  0  0
   -2.5981    5.2500    0.0000 C   0  0  0  0  0  0  0  0  0  0  0  0
   -3.8971    4.5000    0.0000 C   0  0  0  0  0  0  0  0  0  0  0  0
    1.2990    6.0000    0.0000 C   0  0  0  0  0  0  0  0  0  0  0  0
   -7.7942    3.7500    0.0000 C   0  0  0  0  0  0  0  0  0  0  0  0
   -1.2990    6.0000    0.0000 C   0  0  0  0  0  0  0  0  0  0  0  0
   -5.1962    3.7500    0.0000 C   0  0  0  0  0  0  0  0  0  0  0  0
    1.2990    7.5000    0.0000 O   0  0  0  0  0  0  0  0  0  0  0  0
   -7.7942    2.2500    0.0000 O   0  0  0  0  0  0  0  0  0  0  0  0
    0.0000    5.2500    0.0000 O   0  0  0  0  0  0  0  0  0  0  0  0
   -6.4952    4.5000    0.0000 O   0  0  0  0  0  0  0  0  0  0  0  0
  8  7  3  0
  9  1  1  0
 10  2  1  0
 11  3  1  0
 11  4  1  0
 11  7  1  0
 12  5  1  0
 12  6  1  0
 12  8  1  0
 13  9  2  0
 14 10  2  0
 15  9  1  0
 15 11  1  0
 16 10  1  0
 16 12  1  0
M  END
>  <NAME>  (6720) 
2,5-DIACETOXY-2,5-DIMETHYL-3-HEXYNE

>  <SYNONYMS>  (6720) 
1,1,4,4-TETRAMETHYL-2-BUTYNYLENE DIACETATE

>  <SPECTRUM TYPE>  (6720) 
MS1

>  <INSTRUMENT TYPE>  (6720) 
EI-B

>  <INSTRUMENT>  (6720) 
HITACHI RMU-6D

>  <ION MODE>  (6720) 
P

>  <INCHIKEY>  (6720) 
JTSBDFUPOCMOBR-UHFFFAOYSA-N

>  <FORMULA>  (6720) 
C12H18O4

>  <EXACT MASS>  (6720) 
226.120509056

>  <MW>  (6720) 
226

>  <ID>  (6720) 
JP001216

>  <CONTRIBUTOR>  (6720) 
University of Tokyo Team, {Faculty of Engineering, University of Tokyo

>  <COMMENT>  (6720) 
SMILES=CC(=O)OC(C)(C)C#CC(C)(C)OC(C)=O
InChI=InChI=1S/C12H18O4/c1-9(13)15-11(3,4)7-8-12(5,6)16-10(2)14/h1-6H3
computed SMILES=O=C(OC(C#CC(OC(=O)C)(C)C)(C)C)C
accession=JP001216
date=2016.01.19 (Created 2008.10.21, modified 2011.05.06)
author=SASAKI S, TOYOHASHI UNIV. OF TECH.
license=CC BY-NC-SA
exact mass=226.12051
ionization energy=70 eV
ion type=[M]+*
computed spectral entropy=3.018422795065845
computed normalized entropy=0.7342533229666106
SPLASH=splash10-0006-9600000000-a89708c4f97853614770
submitter=submitter = University of Tokyo Team (Faculty of Engineering, University of Tokyo)
MoNA Rating=3.75

>  <NUM PEAKS>  (6720) 
61

>  <MASS SPECTRAL PEAKS>  (6720) 
14 5
18 4
25 2
26 1.4
27 2.5
30 1
31 1.5
39 0.75
40 1.5
41 16
42 3
43 99.99
44 2
45 1
50 1
51 0.35
52 2.5
53 11
54 1
55 0.15
57 7.5
61 1.5
63 4.5
64 0.2
65 6
66 4
67 11
68 1.8
69 4
76 4.5
77 1.5
78 0.6
79 1
80 27
81 2
82 1.85
83 3
92 8
93 1
94 0.3
96 6
97 1
98 1
99 4.4
100 2
105 1
106 21
107 0.3
108 48
109 5
122 6
123 2
124 18
125 2
126 5
139 0.15
140 74
141 6
163 6
182 1.6
183 2

$$$$

     RDKit          2D

 14 13  0  0  0  0  0  0  0  0999 V2000
    1.3335    2.5304    0.0000 C   0  0  0  0  0  0  0  0  0  0  0  0
   -7.6031    4.1690    0.0000 C   0  0  0  0  0  0  0  0  0  0  0  0
   -6.3041    1.9190    0.0000 C   0  0  0  0  0  0  0  0  0  0  0  0
    1.4902    6.4190    0.0000 C   0  0  0  0  0  0  0  0  0  0  0  0
   -2.0721    2.2699    0.0000 C   0  0  0  0  0  0  0  0  0  0  0  0
   -0.1437    2.2699    0.0000 C   0  0  0  0  0  0  0  0  0  0  0  0
   -3.7060    3.4190    0.0000 C   0  0  0  0  0  0  0  0  0  0  0  0
   -5.0050    4.1690    0.0000 C   0  0  0  0  0  0  0  0  0  0  0  0
   -2.4069    4.1690    0.0000 C   0  0  0  0  0  0  0  0  0  0  0  0
   -6.3041    3.4190    0.0000 C   0  0  0  0  0  0  0  0  0  0  0  0
    0.1911    5.6690    0.0000 C   0  0  0  0  0  0  0  0  0  0  0  0
   -1.1079    3.4190    0.0000 C   0  0  0  0  0  0  0  0  0  0  0  0
   -1.1079    6.4190    0.0000 O   0  0  0  0  0  0  0  0  0  0  0  0
    0.1911    4.1690    0.0000 O   0  0  0  0  0  0  0  0  0  0  0  0
  6  1  2  0
  8  7  1  0
  9  7  1  0
 10  2  1  0
 10  3  1  0
 10  8  2  0
 11  4  1  0
 12  5  1  0
 12  6  1  0
 12  9  1  0
 13 11  2  0
 14 11  1  0
 14 12  1  0
M  END
>  <NAME>  (6721) 
1,5-DIMETHYL-1-VINYL-4-HEXENYL ACETATE

>  <SYNONYMS>  (6721) 


>  <SPECTRUM TYPE>  (6721) 
MS1

>  <INSTRUMENT TYPE>  (6721) 
EI-B

>  <INSTRUMENT>  (6721) 
HITACHI RMU-6D

>  <ION MODE>  (6721) 
P

>  <INCHIKEY>  (6721) 
UWKAYLJWKGQEPM-UHFFFAOYSA-N

>  <FORMULA>  (6721) 
C12H20O2

>  <EXACT MASS>  (6721) 
196.14632988

>  <MW>  (6721) 
196

>  <ID>  (6721) 
JP001214

>  <CONTRIBUTOR>  (6721) 
University of Tokyo Team, {Faculty of Engineering, University of Tokyo

>  <COMMENT>  (6721) 
SMILES=CC(C)=CCCC(C)(C=C)OC(C)=O
InChI=InChI=1S/C12H20O2/c1-6-12(5,14-11(4)13)9-7-8-10(2)3/h6,8H,1,7,9H2,2-5H3
computed SMILES=O=C(OC(C=C)(C)CCC=C(C)C)C
accession=JP001214
date=2016.01.19 (Created 2008.10.21, modified 2011.05.06)
author=SASAKI S, TOYOHASHI UNIV. OF TECH.
license=CC BY-NC-SA
exact mass=196.14633
ionization energy=70 eV
ion type=[M]+*
computed spectral entropy=3.075430109762466
computed normalized entropy=0.7511410100016974
SPLASH=splash10-006x-9100000000-a199bdb794a1711d64d6
submitter=submitter = University of Tokyo Team (Faculty of Engineering, University of Tokyo)
MoNA Rating=3.75

>  <NUM PEAKS>  (6721) 
60

>  <MASS SPECTRAL PEAKS>  (6721) 
15 3.5
17 3
18 1.6
27 1.1
28 12
29 10
39 14
40 0.4
42 4
43 87
44 3
45 0.1
52 2.5
53 1
54 12
55 0.1
56 22
57 1
58 0.5
60 0.2
66 25
67 2
68 1
69 1.6
70 42.5
71 21.5
73 25
78 0.7
79 1
80 13
81 42.5
82 1.4
83 4
84 5
85 2
86 0.25
87 1
90 9
91 17
92 99.99
93 13.5
94 4
95 4
96 0.1
97 1
105 6
106 2
107 1
109 2
110 3
112 4
114 0.2
118 2
120 29.5
121 3
134 1.2
135 3.5
137 1
155 1
196 1

$$$$

     RDKit          2D

 14 13  0  0  0  0  0  0  0  0999 V2000
   -8.7685    6.1875    0.0000 C   0  0  0  0  0  0  0  0  0  0  0  0
   -7.4695    3.9375    0.0000 C   0  0  0  0  0  0  0  0  0  0  0  0
   -2.2733    3.9375    0.0000 C   0  0  0  0  0  0  0  0  0  0  0  0
    4.2219    6.1875    0.0000 C   0  0  0  0  0  0  0  0  0  0  0  0
   -4.8714    5.4375    0.0000 C   0  0  0  0  0  0  0  0  0  0  0  0
   -6.1704    6.1875    0.0000 C   0  0  0  0  0  0  0  0  0  0  0  0
   -3.5724    6.1875    0.0000 C   0  0  0  0  0  0  0  0  0  0  0  0
   -0.9743    6.1875    0.0000 C   0  0  0  0  0  0  0  0  0  0  0  0
    0.3248    5.4375    0.0000 C   0  0  0  0  0  0  0  0  0  0  0  0
   -7.4695    5.4375    0.0000 C   0  0  0  0  0  0  0  0  0  0  0  0
   -2.2733    5.4375    0.0000 C   0  0  0  0  0  0  0  0  0  0  0  0
    2.9228    5.4375    0.0000 C   0  0  0  0  0  0  0  0  0  0  0  0
    2.9228    3.9375    0.0000 O   0  0  0  0  0  0  0  0  0  0  0  0
    1.6238    6.1875    0.0000 O   0  0  0  0  0  0  0  0  0  0  0  0
  6  5  1  0
  7  5  1  0
  9  8  1  0
 10  1  1  0
 10  2  1  0
 10  6  2  0
 11  3  1  0
 11  7  1  0
  8 11  2  0
 12  4  1  0
 13 12  2  0
 14  9  1  0
 14 12  1  0
M  END
>  <NAME>  (6722) 
3,7-DIMETHYL-2,6-OCTADIENYL ACETATE

>  <SYNONYMS>  (6722) 


>  <SPECTRUM TYPE>  (6722) 
MS1

>  <INSTRUMENT TYPE>  (6722) 
EI-B

>  <INSTRUMENT>  (6722) 
HITACHI RMU-6D

>  <ION MODE>  (6722) 
P

>  <INCHIKEY>  (6722) 
HIGQPQRQIQDZMP-DHZHZOJOSA-N

>  <FORMULA>  (6722) 
C12H20O2

>  <EXACT MASS>  (6722) 
196.14632988

>  <MW>  (6722) 
196

>  <ID>  (6722) 
JP001212

>  <CONTRIBUTOR>  (6722) 
University of Tokyo Team, {Faculty of Engineering, University of Tokyo

>  <COMMENT>  (6722) 
SMILES=CC(C)=CCCC(C)=CCOC(C)=O
InChI=InChI=1S/C12H20O2/c1-10(2)6-5-7-11(3)8-9-14-12(4)13/h6,8H,5,7,9H2,1-4H3/b11-8+
computed SMILES=O=C(OCC=C(C)CCC=C(C)C)C
accession=JP001212
date=2016.01.19 (Created 2008.10.21, modified 2011.05.06)
author=SASAKI S, TOYOHASHI UNIV. OF TECH.
license=CC BY-NC-SA
exact mass=196.14633
ionization energy=70 eV
ion type=[M]+*
computed spectral entropy=2.7382055851234393
computed normalized entropy=0.6964209100051474
SPLASH=splash10-014r-9000000000-b468aa66dfd65ee6f636
submitter=submitter = University of Tokyo Team (Faculty of Engineering, University of Tokyo)
MoNA Rating=3.75

>  <NUM PEAKS>  (6722) 
51

>  <MASS SPECTRAL PEAKS>  (6722) 
13 3.5
15 2
16 9
27 0.8
28 6
29 4
35 9
36 0.2
37 56.5
38 3
39 60
40 0.1
51 1.5
52 0.5
53 8
54 0.05
55 4
56 1
57 1
62 0.2
63 1
64 12.5
65 43
66 99.99
67 5
68 1
76 2
78 0.25
79 10
80 4
81 1
82 0.05
83 2
84 6
85 1
91 0.15
92 4
93 11.5
94 4
95 0.1
105 1
107 4
108 1
109 0.1
119 10.5
120 1
121 2.5
125 0.1
133 15
134 2
155 1.5

$$$$

     RDKit          2D

 10  9  0  0  0  0  0  0  0  0999 V2000
    1.6238    3.1875    0.0000 C   0  0  0  0  0  0  0  0  0  0  0  0
    0.3248    0.9375    0.0000 C   0  0  0  0  0  0  0  0  0  0  0  0
   -2.2733    0.9375    0.0000 C   0  0  0  0  0  0  0  0  0  0  0  0
   -4.8714    3.9375    0.0000 C   0  0  0  0  0  0  0  0  0  0  0  0
    0.3248    3.9375    0.0000 C   0  0  0  0  0  0  0  0  0  0  0  0
   -0.9743    1.6875    0.0000 C   0  0  0  0  0  0  0  0  0  0  0  0
   -3.5724    3.1875    0.0000 C   0  0  0  0  0  0  0  0  0  0  0  0
   -0.9743    3.1875    0.0000 C   0  0  0  0  0  0  0  0  0  0  0  0
   -3.5724    1.6875    0.0000 O   0  0  0  0  0  0  0  0  0  0  0  0
   -2.2733    3.9375    0.0000 O   0  0  0  0  0  0  0  0  0  0  0  0
  5  1  2  0
  6  2  1  0
  6  3  1  0
  7  4  1  0
  8  5  1  0
  8  6  1  0
  9  7  2  0
 10  7  1  0
 10  8  1  0
M  END
>  <NAME>  (6723) 
1-ISOPROPYLALLYL ACETATE

>  <SYNONYMS>  (6723) 


>  <SPECTRUM TYPE>  (6723) 
MS1

>  <INSTRUMENT TYPE>  (6723) 
EI-B

>  <INSTRUMENT>  (6723) 
HITACHI RMU-6D

>  <ION MODE>  (6723) 
P

>  <INCHIKEY>  (6723) 
XAKHEXKHMNYRCG-UHFFFAOYSA-N

>  <FORMULA>  (6723) 
C8H14O2

>  <EXACT MASS>  (6723) 
142.099379688

>  <MW>  (6723) 
142

>  <ID>  (6723) 
JP001210

>  <CONTRIBUTOR>  (6723) 
University of Tokyo Team, {Faculty of Engineering, University of Tokyo

>  <COMMENT>  (6723) 
SMILES=C=CC(C(C)C)OC(C)=O
InChI=InChI=1S/C8H14O2/c1-5-8(6(2)3)10-7(4)9/h5-6,8H,1H2,2-4H3
computed SMILES=O=C(OC(C=C)C(C)C)C
accession=JP001210
date=2016.01.19 (Created 2008.10.21, modified 2011.05.06)
author=SASAKI S, TOYOHASHI UNIV. OF TECH.
license=CC BY-NC-SA
exact mass=142.09938
ionization energy=70 eV
ion type=[M]+*
computed spectral entropy=1.7445995938488121
computed normalized entropy=0.573028982224666
SPLASH=splash10-0006-9000000000-edd73f5a91f38aa9c889
submitter=submitter = University of Tokyo Team (Faculty of Engineering, University of Tokyo)
MoNA Rating=3.75

>  <NUM PEAKS>  (6723) 
21

>  <MASS SPECTRAL PEAKS>  (6723) 
15 3
18 1.5
25 5.5
26 0.4
27 2.5
29 1
39 4
41 0.9
43 99.99
44 1
55 6
56 0.1
57 6
58 2
65 8
66 0.2
80 12
81 1
99 16
100 1.35
101 2

$$$$

     RDKit          2D

 12 12  0  0  0  0  0  0  0  0999 V2000
   -5.8454    3.6946    0.0000 C   0  0  0  0  0  0  0  0  0  0  0  0
    3.2478    1.4446    0.0000 C   0  0  0  0  0  0  0  0  0  0  0  0
    3.2483    2.9454    0.0000 C   0  0  0  0  0  0  0  0  0  0  0  0
    1.9483    0.6938    0.0000 C   0  0  0  0  0  0  0  0  0  0  0  0
    1.9493    3.6954    0.0000 C   0  0  0  0  0  0  0  0  0  0  0  0
    0.6493    1.4438    0.0000 C   0  0  0  0  0  0  0  0  0  0  0  0
   -0.6493    3.6946    0.0000 C   0  0  0  0  0  0  0  0  0  0  0  0
   -1.9483    2.9446    0.0000 C   0  0  0  0  0  0  0  0  0  0  0  0
   -4.5464    2.9446    0.0000 C   0  0  0  0  0  0  0  0  0  0  0  0
    0.6498    2.9446    0.0000 C   0  0  0  0  0  0  0  0  0  0  0  0
   -4.5464    1.4446    0.0000 O   0  0  0  0  0  0  0  0  0  0  0  0
   -3.2474    3.6946    0.0000 O   0  0  0  0  0  0  0  0  0  0  0  0
  3  2  2  0
  4  2  1  0
  5  3  1  0
  6  4  2  0
  8  7  1  0
  9  1  1  0
 10  5  2  0
 10  6  1  0
 10  7  1  0
 11  9  2  0
 12  8  1  0
 12  9  1  0
M  END
>  <NAME>  (6724) 
PHENETHYL ACETATE

>  <SYNONYMS>  (6724) 


>  <SPECTRUM TYPE>  (6724) 
MS1

>  <INSTRUMENT TYPE>  (6724) 
EI-B

>  <INSTRUMENT>  (6724) 
HITACHI RMU-6D

>  <ION MODE>  (6724) 
P

>  <INCHIKEY>  (6724) 
MDHYEMXUFSJLGV-UHFFFAOYSA-N

>  <FORMULA>  (6724) 
C10H12O2

>  <EXACT MASS>  (6724) 
164.083729624

>  <MW>  (6724) 
164

>  <ID>  (6724) 
JP001208

>  <CONTRIBUTOR>  (6724) 
University of Tokyo Team, {Faculty of Engineering, University of Tokyo

>  <COMMENT>  (6724) 
SMILES=CC(=O)OCCc(c1)cccc1
InChI=InChI=1S/C10H12O2/c1-9(11)12-8-7-10-5-3-2-4-6-10/h2-6H,7-8H2,1H3
computed SMILES=O=C(OCCC=1C=CC=CC1)C
accession=JP001208
date=2016.01.19 (Created 2008.10.21, modified 2011.05.06)
author=SASAKI S, TOYOHASHI UNIV. OF TECH.
license=CC BY-NC-SA
exact mass=164.08373
ionization energy=70 eV
ion type=[M]+*
computed spectral entropy=2.098882697377752
computed normalized entropy=0.6112086540789645
SPLASH=splash10-0a4l-9700000000-7f41ba98b537cb7cccbb
submitter=submitter = University of Tokyo Team (Faculty of Engineering, University of Tokyo)
MoNA Rating=3.75

>  <NUM PEAKS>  (6724) 
31

>  <MASS SPECTRAL PEAKS>  (6724) 
15 3
17 3.5
18 19.5
27 0.1
28 9
37 1
38 3
41 0.05
42 0.5
43 60
44 1
50 0.1
51 4
52 1
62 1
63 0.15
64 1
65 6
66 1
71 0.1
73 1
75 4
76 4
77 0.2
89 1
91 18.5
92 2.5
93 0.1
103 4.5
105 99.99
106 12.5

$$$$

     RDKit          2D

  9  8  0  0  0  0  0  0  0  0999 V2000
    0.0000    0.0000    0.0000 C   0  0  0  0  0  0  0  0  0  0  0  0
   -1.8481    5.7990    0.0000 C   0  0  0  0  0  0  0  0  0  0  0  0
   -3.8971    5.2500    0.0000 C   0  0  0  0  0  0  0  0  0  0  0  0
   -3.3481    3.2010    0.0000 C   0  0  0  0  0  0  0  0  0  0  0  0
   -1.2990    3.7500    0.0000 C   0  0  0  0  0  0  0  0  0  0  0  0
    0.0000    1.5000    0.0000 C   0  0  0  0  0  0  0  0  0  0  0  0
   -2.5981    4.5000    0.0000 C   0  0  0  0  0  0  0  0  0  0  0  0
    1.2990    2.2500    0.0000 O   0  0  0  0  0  0  0  0  0  0  0  0
   -1.2990    2.2500    0.0000 O   0  0  0  0  0  0  0  0  0  0  0  0
  6  1  1  0
  7  2  1  0
  7  3  1  0
  7  4  1  0
  7  5  1  0
  8  6  2  0
  9  5  1  0
  9  6  1  0
M  END
>  <NAME>  (6725) 
2,2-DIMETHYLPROPYL ACETATE

>  <SYNONYMS>  (6725) 


>  <SPECTRUM TYPE>  (6725) 
MS1

>  <INSTRUMENT TYPE>  (6725) 
EI-B

>  <INSTRUMENT>  (6725) 
HITACHI RMU-6D

>  <ION MODE>  (6725) 
P

>  <INCHIKEY>  (6725) 
QLNYTCSELYEEPV-UHFFFAOYSA-N

>  <FORMULA>  (6725) 
C7H14O2

>  <EXACT MASS>  (6725) 
130.099379688

>  <MW>  (6725) 
130

>  <ID>  (6725) 
JP001206

>  <CONTRIBUTOR>  (6725) 
University of Tokyo Team, {Faculty of Engineering, University of Tokyo

>  <COMMENT>  (6725) 
SMILES=CC(=O)OCC(C)(C)C
InChI=InChI=1S/C7H14O2/c1-6(8)9-5-7(2,3)4/h5H2,1-4H3
computed SMILES=O=C(OCC(C)(C)C)C
accession=JP001206
date=2016.01.19 (Created 2008.10.21, modified 2011.05.06)
author=SASAKI S, TOYOHASHI UNIV. OF TECH.
license=CC BY-NC-SA
exact mass=130.09938
ionization energy=70 eV
ion type=[M]+*
computed spectral entropy=2.2024171618396315
computed normalized entropy=0.6930081362399397
SPLASH=splash10-056u-9000000000-57c7e79400e1883fee9f
submitter=submitter = University of Tokyo Team (Faculty of Engineering, University of Tokyo)
MoNA Rating=3.75

>  <NUM PEAKS>  (6725) 
24

>  <MASS SPECTRAL PEAKS>  (6725) 
14 1.5
15 3.5
18 3
25 0.6
26 99.99
27 13.5
29 20
38 0.55
40 26.5
42 3
43 97.5
44 0.3
54 11.5
55 16.5
57 71.5
58 0.25
66 4
68 3.5
71 5
72 0.25
73 28
98 1.5
115 3.5
129 1

$$$$

     RDKit          2D

  9  8  0  0  0  0  0  0  0  0999 V2000
    2.2733    2.8125    0.0000 C   0  0  0  0  0  0  0  0  0  0  0  0
    0.9743    5.0625    0.0000 C   0  0  0  0  0  0  0  0  0  0  0  0
   -5.5209    2.8125    0.0000 C   0  0  0  0  0  0  0  0  0  0  0  0
   -0.3248    2.8125    0.0000 C   0  0  0  0  0  0  0  0  0  0  0  0
   -1.6238    3.5625    0.0000 C   0  0  0  0  0  0  0  0  0  0  0  0
    0.9743    3.5625    0.0000 C   0  0  0  0  0  0  0  0  0  0  0  0
   -4.2219    3.5625    0.0000 C   0  0  0  0  0  0  0  0  0  0  0  0
   -4.2219    5.0625    0.0000 O   0  0  0  0  0  0  0  0  0  0  0  0
   -2.9228    2.8125    0.0000 O   0  0  0  0  0  0  0  0  0  0  0  0
  5  4  1  0
  6  1  1  0
  6  2  1  0
  6  4  1  0
  7  3  1  0
  8  7  2  0
  9  5  1  0
  9  7  1  0
M  END
>  <NAME>  (6726) 
ISOPENTYL ACETATE

>  <SYNONYMS>  (6726) 


>  <SPECTRUM TYPE>  (6726) 
MS1

>  <INSTRUMENT TYPE>  (6726) 
EI-B

>  <INSTRUMENT>  (6726) 
HITACHI RMU-6D

>  <ION MODE>  (6726) 
P

>  <INCHIKEY>  (6726) 
MLFHJEHSLIIPHL-UHFFFAOYSA-N

>  <FORMULA>  (6726) 
C7H14O2

>  <EXACT MASS>  (6726) 
130.099379688

>  <MW>  (6726) 
130

>  <ID>  (6726) 
JP001204

>  <CONTRIBUTOR>  (6726) 
University of Tokyo Team, {Faculty of Engineering, University of Tokyo

>  <COMMENT>  (6726) 
SMILES=CC(C)CCOC(C)=O
InChI=InChI=1S/C7H14O2/c1-6(2)4-5-9-7(3)8/h6H,4-5H2,1-3H3
computed SMILES=O=C(OCCC(C)C)C
accession=JP001204
date=2016.01.19 (Created 2008.10.21, modified 2011.05.06)
author=SASAKI S, TOYOHASHI UNIV. OF TECH.
license=CC BY-NC-SA
exact mass=130.09938
ionization energy=70 eV
ion type=[M]+*
computed spectral entropy=2.0487593870898166
computed normalized entropy=0.6628053215069586
SPLASH=splash10-00kf-9000000000-b39e66ca9f24f516c159
submitter=submitter = University of Tokyo Team (Faculty of Engineering, University of Tokyo)
MoNA Rating=3.75

>  <NUM PEAKS>  (6726) 
22

>  <MASS SPECTRAL PEAKS>  (6726) 
15 4.5
19 10
24 6.5
25 5.15
43 99.99
55 32.5
56 2.5
57 0.2
58 1
59 1
61 8.5
65 0.25
67 51.5
69 2.5
70 8.5
73 0.2
86 3
87 20.5
89 3
100 0.2
113 2
126 2

$$$$

     RDKit          2D

  8  7  0  0  0  0  0  0  0  0999 V2000
    1.6238    3.1875    0.0000 C   0  0  0  0  0  0  0  0  0  0  0  0
   -0.9743    1.6875    0.0000 C   0  0  0  0  0  0  0  0  0  0  0  0
   -4.8714    3.9375    0.0000 C   0  0  0  0  0  0  0  0  0  0  0  0
    0.3248    3.9375    0.0000 C   0  0  0  0  0  0  0  0  0  0  0  0
   -0.9743    3.1875    0.0000 C   0  0  0  0  0  0  0  0  0  0  0  0
   -3.5724    3.1875    0.0000 C   0  0  0  0  0  0  0  0  0  0  0  0
   -3.5724    1.6875    0.0000 O   0  0  0  0  0  0  0  0  0  0  0  0
   -2.2733    3.9375    0.0000 O   0  0  0  0  0  0  0  0  0  0  0  0
  4  1  1  0
  5  2  1  0
  5  4  1  0
  6  3  1  0
  7  6  2  0
  8  5  1  0
  8  6  1  0
M  END
>  <NAME>  (6727) 
SEC-BUTYL ACETATE

>  <SYNONYMS>  (6727) 


>  <SPECTRUM TYPE>  (6727) 
MS1

>  <INSTRUMENT TYPE>  (6727) 
EI-B

>  <INSTRUMENT>  (6727) 
HITACHI RMU-6D

>  <ION MODE>  (6727) 
P

>  <INCHIKEY>  (6727) 
DCKVNWZUADLDEH-UHFFFAOYSA-N

>  <FORMULA>  (6727) 
C6H12O2

>  <EXACT MASS>  (6727) 
116.083729624

>  <MW>  (6727) 
116

>  <ID>  (6727) 
JP001202

>  <CONTRIBUTOR>  (6727) 
University of Tokyo Team, {Faculty of Engineering, University of Tokyo

>  <COMMENT>  (6727) 
SMILES=CCC(C)OC(C)=O
InChI=InChI=1S/C6H12O2/c1-4-5(2)8-6(3)7/h5H,4H2,1-3H3
computed SMILES=O=C(OC(C)CC)C
accession=JP001202
date=2016.01.19 (Created 2008.10.21, modified 2011.05.06)
author=SASAKI S, TOYOHASHI UNIV. OF TECH.
license=CC BY-NC-SA
exact mass=116.08373
ionization energy=70 eV
ion type=[M]+*
computed spectral entropy=2.05746142370977
computed normalized entropy=0.6656205648273791
SPLASH=splash10-0006-9000000000-90f2f52d6ddf554b8db5
submitter=submitter = University of Tokyo Team (Faculty of Engineering, University of Tokyo)
MoNA Rating=3.75

>  <NUM PEAKS>  (6727) 
22

>  <MASS SPECTRAL PEAKS>  (6727) 
14 5
18 10
25 6.5
26 0.7
27 10.5
29 1
39 4.5
40 0.15
41 14
42 2
43 99.99
44 0.25
45 3.5
55 24.5
56 8
61 0.4
72 1.5
73 6
88 20
89 0.25
101 3
115 1

$$$$

     RDKit          2D

  8  7  0  0  0  0  0  0  0  0999 V2000
    0.0000    0.0000    0.0000 C   0  0  0  0  0  0  0  0  0  0  0  0
    1.2990    2.2500    0.0000 C   0  0  0  0  0  0  0  0  0  0  0  0
   -2.5981    6.0000    0.0000 C   0  0  0  0  0  0  0  0  0  0  0  0
   -1.2990    2.2500    0.0000 C   0  0  0  0  0  0  0  0  0  0  0  0
    0.0000    1.5000    0.0000 C   0  0  0  0  0  0  0  0  0  0  0  0
   -2.5981    4.5000    0.0000 C   0  0  0  0  0  0  0  0  0  0  0  0
   -3.8971    3.7500    0.0000 O   0  0  0  0  0  0  0  0  0  0  0  0
   -1.2990    3.7500    0.0000 O   0  0  0  0  0  0  0  0  0  0  0  0
  5  1  1  0
  5  2  1  0
  5  4  1  0
  6  3  1  0
  7  6  2  0
  8  4  1  0
  8  6  1  0
M  END
>  <NAME>  (6728) 
ISOBUTYL ACETATE

>  <SYNONYMS>  (6728) 


>  <SPECTRUM TYPE>  (6728) 
MS1

>  <INSTRUMENT TYPE>  (6728) 
EI-B

>  <INSTRUMENT>  (6728) 
HITACHI RMU-6D

>  <ION MODE>  (6728) 
P

>  <INCHIKEY>  (6728) 
GJRQTCIYDGXPES-UHFFFAOYSA-N

>  <FORMULA>  (6728) 
C6H12O2

>  <EXACT MASS>  (6728) 
116.083729624

>  <MW>  (6728) 
116

>  <ID>  (6728) 
JP001200

>  <CONTRIBUTOR>  (6728) 
University of Tokyo Team, {Faculty of Engineering, University of Tokyo

>  <COMMENT>  (6728) 
SMILES=CC(C)COC(C)=O
InChI=InChI=1S/C6H12O2/c1-5(2)4-8-6(3)7/h5H,4H2,1-3H3
computed SMILES=O=C(OCC(C)C)C
accession=JP001200
date=2016.01.19 (Created 2008.10.21, modified 2011.05.06)
author=SASAKI S, TOYOHASHI UNIV. OF TECH.
license=CC BY-NC-SA
exact mass=116.08373
ionization energy=70 eV
ion type=[M]+*
computed spectral entropy=2.063326090965974
computed normalized entropy=0.6580545039706102
SPLASH=splash10-0006-9000000000-f217b5e6b92235a1dd71
submitter=submitter = University of Tokyo Team (Faculty of Engineering, University of Tokyo)
MoNA Rating=3.75

>  <NUM PEAKS>  (6728) 
23

>  <MASS SPECTRAL PEAKS>  (6728) 
15 5
17 4
18 19.5
26 0.4
27 7.5
28 4
30 2
31 0.05
39 4
40 2
41 12
43 99.99
44 3
45 2
46 1
55 0.25
56 32.5
57 4.5
61 3
70 0.3
72 19
73 2
87 2

$$$$

     RDKit          2D

  8  7  0  0  0  0  0  0  0  0999 V2000
    1.9486    3.3750    0.0000 C   0  0  0  0  0  0  0  0  0  0  0  0
   -5.8457    3.3750    0.0000 C   0  0  0  0  0  0  0  0  0  0  0  0
    0.6495    4.1250    0.0000 C   0  0  0  0  0  0  0  0  0  0  0  0
   -0.6495    3.3750    0.0000 C   0  0  0  0  0  0  0  0  0  0  0  0
   -1.9486    4.1250    0.0000 C   0  0  0  0  0  0  0  0  0  0  0  0
   -4.5466    4.1250    0.0000 C   0  0  0  0  0  0  0  0  0  0  0  0
   -4.5466    5.6250    0.0000 O   0  0  0  0  0  0  0  0  0  0  0  0
   -3.2476    3.3750    0.0000 O   0  0  0  0  0  0  0  0  0  0  0  0
  3  1  1  0
  4  3  1  0
  5  4  1  0
  6  2  1  0
  7  6  2  0
  8  5  1  0
  8  6  1  0
M  END
>  <NAME>  (6729) 
BUTYL ACETATE

>  <SYNONYMS>  (6729) 


>  <SPECTRUM TYPE>  (6729) 
MS1

>  <INSTRUMENT TYPE>  (6729) 
EI-B

>  <INSTRUMENT>  (6729) 
HITACHI RMU-6D

>  <ION MODE>  (6729) 
P

>  <INCHIKEY>  (6729) 
DKPFZGUDAPQIHT-UHFFFAOYSA-N

>  <FORMULA>  (6729) 
C6H12O2

>  <EXACT MASS>  (6729) 
116.083729624

>  <MW>  (6729) 
116

>  <ID>  (6729) 
JP001198

>  <CONTRIBUTOR>  (6729) 
University of Tokyo Team, {Faculty of Engineering, University of Tokyo

>  <COMMENT>  (6729) 
SMILES=CCCCOC(C)=O
InChI=InChI=1S/C6H12O2/c1-3-4-5-8-6(2)7/h3-5H2,1-2H3
computed SMILES=O=C(OCCCC)C
accession=JP001198
date=2016.01.19 (Created 2008.10.21, modified 2011.05.06)
author=SASAKI S, TOYOHASHI UNIV. OF TECH.
license=CC BY-NC-SA
exact mass=116.08373
ionization energy=70 eV
ion type=[M]+*
computed spectral entropy=2.1338766083536345
computed normalized entropy=0.6549457891905979
SPLASH=splash10-0006-9000000000-130fe9ba3fdc11b38c68
submitter=submitter = University of Tokyo Team (Faculty of Engineering, University of Tokyo)
MoNA Rating=3.75

>  <NUM PEAKS>  (6729) 
26

>  <MASS SPECTRAL PEAKS>  (6729) 
15 6
16 2
17 11
25 0.1
26 7
27 22
28 8
30 0.15
38 0.5
39 7
40 1
41 1.8
42 4
43 99.99
44 3
55 0.65
56 32
57 4
58 2
61 12
72 0.05
73 0.5
74 12
75 0.5
85 0.1
115 1

$$$$

     RDKit          2D

  7  6  0  0  0  0  0  0  0  0999 V2000
    1.6238    1.6875    0.0000 C   0  0  0  0  0  0  0  0  0  0  0  0
    0.3248    3.9375    0.0000 C   0  0  0  0  0  0  0  0  0  0  0  0
   -3.5724    1.6875    0.0000 C   0  0  0  0  0  0  0  0  0  0  0  0
    0.3248    2.4375    0.0000 C   0  0  0  0  0  0  0  0  0  0  0  0
   -2.2733    2.4375    0.0000 C   0  0  0  0  0  0  0  0  0  0  0  0
   -2.2733    3.9375    0.0000 O   0  0  0  0  0  0  0  0  0  0  0  0
   -0.9743    1.6875    0.0000 O   0  0  0  0  0  0  0  0  0  0  0  0
  4  1  1  0
  4  2  1  0
  5  3  1  0
  6  5  2  0
  7  4  1  0
  7  5  1  0
M  END
>  <NAME>  (6730) 
ISOPROPYL ACETATE

>  <SYNONYMS>  (6730) 


>  <SPECTRUM TYPE>  (6730) 
MS1

>  <INSTRUMENT TYPE>  (6730) 
EI-B

>  <INSTRUMENT>  (6730) 
HITACHI RMU-6D

>  <ION MODE>  (6730) 
P

>  <INCHIKEY>  (6730) 
JMMWKPVZQRWMSS-UHFFFAOYSA-N

>  <FORMULA>  (6730) 
C5H10O2

>  <EXACT MASS>  (6730) 
102.06807956

>  <MW>  (6730) 
102

>  <ID>  (6730) 
JP001196

>  <CONTRIBUTOR>  (6730) 
University of Tokyo Team, {Faculty of Engineering, University of Tokyo

>  <COMMENT>  (6730) 
SMILES=CC(C)OC(C)=O
InChI=InChI=1S/C5H10O2/c1-4(2)7-5(3)6/h4H,1-3H3
computed SMILES=O=C(OC(C)C)C
accession=JP001196
date=2016.01.19 (Created 2008.10.21, modified 2011.05.06)
author=SASAKI S, TOYOHASHI UNIV. OF TECH.
license=CC BY-NC-SA
exact mass=102.06808
ionization energy=70 eV
ion type=[M]+*
computed spectral entropy=1.994056688306868
computed normalized entropy=0.6359624834185713
SPLASH=splash10-0006-9000000000-a998f74f45633babc275
submitter=submitter = University of Tokyo Team (Faculty of Engineering, University of Tokyo)
MoNA Rating=3.75

>  <NUM PEAKS>  (6730) 
23

>  <MASS SPECTRAL PEAKS>  (6730) 
14 1
15 7
16 1
17 0.7
26 1
27 8
28 15
29 2
31 0.6
32 1
39 5.5
40 1
41 1.25
42 8
43 99.99
44 8
45 0.4
59 12
60 1
61 22
71 0.1
74 1
87 12

$$$$

     RDKit          2D

  7  6  0  0  0  0  0  0  0  0999 V2000
    1.6238    3.1875    0.0000 C   0  0  0  0  0  0  0  0  0  0  0  0
   -4.8714    3.9375    0.0000 C   0  0  0  0  0  0  0  0  0  0  0  0
    0.3248    3.9375    0.0000 C   0  0  0  0  0  0  0  0  0  0  0  0
   -0.9743    3.1875    0.0000 C   0  0  0  0  0  0  0  0  0  0  0  0
   -3.5724    3.1875    0.0000 C   0  0  0  0  0  0  0  0  0  0  0  0
   -3.5724    1.6875    0.0000 O   0  0  0  0  0  0  0  0  0  0  0  0
   -2.2733    3.9375    0.0000 O   0  0  0  0  0  0  0  0  0  0  0  0
  3  1  1  0
  4  3  1  0
  5  2  1  0
  6  5  2  0
  7  4  1  0
  7  5  1  0
M  END
>  <NAME>  (6731) 
PROPYL ACETATE

>  <SYNONYMS>  (6731) 


>  <SPECTRUM TYPE>  (6731) 
MS1

>  <INSTRUMENT TYPE>  (6731) 
EI-B

>  <INSTRUMENT>  (6731) 
HITACHI RMU-6D

>  <ION MODE>  (6731) 
P

>  <INCHIKEY>  (6731) 
YKYONYBAUNKHLG-UHFFFAOYSA-N

>  <FORMULA>  (6731) 
C5H10O2

>  <EXACT MASS>  (6731) 
102.06807956

>  <MW>  (6731) 
102

>  <ID>  (6731) 
JP001194

>  <CONTRIBUTOR>  (6731) 
University of Tokyo Team, {Faculty of Engineering, University of Tokyo

>  <COMMENT>  (6731) 
SMILES=CCCOC(C)=O
InChI=InChI=1S/C5H10O2/c1-3-4-7-5(2)6/h3-4H2,1-2H3
computed SMILES=O=C(OCCC)C
accession=JP001194
date=2016.01.19 (Created 2008.10.21, modified 2011.05.06)
author=SASAKI S, TOYOHASHI UNIV. OF TECH.
license=CC BY-NC-SA
exact mass=102.06808
ionization energy=70 eV
ion type=[M]+*
computed spectral entropy=2.0159017472654623
computed normalized entropy=0.6621405453568857
SPLASH=splash10-0006-9000000000-2129564a2393ddfe69d6
submitter=submitter = University of Tokyo Team (Faculty of Engineering, University of Tokyo)
MoNA Rating=3.75

>  <NUM PEAKS>  (6731) 
21

>  <MASS SPECTRAL PEAKS>  (6731) 
15 4.5
18 2
26 8
27 0.95
28 7
39 6
41 14
42 0.8
43 99.99
44 3
45 2
55 2.3
56 20
57 3
58 1
61 1.05
70 29
71 2
73 14
88 0.4
90 1

$$$$

     RDKit          2D

 19 22  0  0  1  0  0  0  0  0999 V2000
    1.7613   -0.0171    0.0000 C   0  0  0  0  0  0  0  0  0  0  0  0
   -4.7177    1.4247    0.0000 C   0  0  0  0  0  0  0  0  0  0  0  0
   -1.3697    5.7238    0.0000 C   0  0  0  0  0  0  0  0  0  0  0  0
   -4.7177    4.4247    0.0000 C   0  0  0  0  0  0  0  0  0  0  0  0
   -3.4187    5.1747    0.0000 C   0  0  0  0  0  0  0  0  0  0  0  0
   -0.8206    2.1747    0.0000 C   0  0  0  0  0  0  0  0  0  0  0  0
   -3.4187    0.6747    0.0000 C   0  0  0  0  0  0  0  0  0  0  0  0
    0.2941   -0.3289    0.0000 C   0  0  0  0  0  0  0  0  0  0  0  0
   -0.8206    0.6747    0.0000 C   0  0  0  0  0  0  0  0  0  0  0  0
   -2.1197   -0.0753    0.0000 C   0  0  0  0  0  0  0  0  0  0  0  0
   -4.7177    2.9247    0.0000 C   0  0  0  0  0  0  0  0  0  0  0  0
   -0.3160   -1.6993    0.0000 C   0  0  0  0  0  0  0  0  0  0  0  0
   -3.4187    2.1747    0.0000 C   0  0  0  0  0  0  0  0  0  0  0  0
   -2.1197    4.4247    0.0000 C   0  0  0  0  0  0  0  0  0  0  0  0
   -2.1197    2.9247    0.0000 C   0  0  0  0  0  0  0  0  0  0  0  0
   -6.0168    2.1747    0.0000 O   0  0  0  0  0  0  0  0  0  0  0  0
    0.4340   -2.9983    0.0000 O   0  0  0  0  0  0  0  0  0  0  0  0
   -1.8078   -1.5425    0.0000 O   0  0  0  0  0  0  0  0  0  0  0  0
   -0.8206    3.6747    0.0000 O   0  0  0  0  0  0  0  0  0  0  0  0
  5  4  1  0
  8  1  2  0
  9  6  1  1
  9  8  1  0
 10  7  1  6
 10  9  1  0
 11  4  1  0
 12  8  1  0
 13  2  1  6
 13  7  1  0
 13 11  1  0
 14  3  1  6
 14  5  1  0
 15  6  1  6
 15 13  1  0
 15 14  1  0
 11 16  1  6
 17 12  2  0
 10 18  1  0
 18 12  1  0
 19 14  1  0
 15 19  1  0
M  END
>  <NAME>  (6732) 
1-BETA-HYDROXY-4,5-ALPHA-EPOXY-ALANTOLACTONE

>  <SYNONYMS>  (6732) 
MERIDIANONE

>  <SPECTRUM TYPE>  (6732) 
MS1

>  <INSTRUMENT TYPE>  (6732) 
EI-B

>  <INSTRUMENT>  (6732) 
Unknown

>  <ION MODE>  (6732) 
P

>  <INCHIKEY>  (6732) 
HGCXXEYNHRNBTF-JQRSIXJKSA-N

>  <FORMULA>  (6732) 
C15H20O4

>  <EXACT MASS>  (6732) 
264.13615912

>  <MW>  (6732) 
264

>  <ID>  (6732) 
JP001192

>  <CONTRIBUTOR>  (6732) 
University of Tokyo Team, {Faculty of Engineering, University of Tokyo

>  <COMMENT>  (6732) 
SMILES=O=C(O1)C(=C)C([H])(C2)C([H])1CC(C)(C([H])(O)4)C2(O3)C(C)(CC4)3
InChI=InChI=1S/C15H20O4/c1-8-9-6-15-13(2,7-10(9)18-12(8)17)11(16)4-5-14(15,3)19-15/h9-11,16H,1,4-7H2,2-3H3/t9-,10+,11+,13-,14+,15-/m0/s1
computed SMILES=O=C1OC2CC3(C)C(O)CCC4(OC43CC2C1=C)C
accession=JP001192
date=2016.01.19 (Created 2008.10.21, modified 2011.05.06)
author=NAGAKI M, DEPT. OF GENERAL EDUC., HIROSAKI UNIV.
license=CC BY-NC-SA
exact mass=264.13616
ionization energy=70 eV
ion type=[M]+*
computed spectral entropy=3.3075720114173195
computed normalized entropy=0.825379837046278
SPLASH=splash10-0fka-0090000000-ff3c9ae9aeaf8899b61a
submitter=submitter = University of Tokyo Team (Faculty of Engineering, University of Tokyo)
MoNA Rating=3.75

>  <NUM PEAKS>  (6732) 
55

>  <MASS SPECTRAL PEAKS>  (6732) 
199 14.96
200 13.24
201 7.91
202 84.32
203 17.99
204 14.1
205 6.33
206 57.27
207 15.11
208 5.03
210 3.45
211 3.17
212 11.94
213 3.17
214 7.48
215 4.46
216 20.29
217 17.84
218 8.49
219 16.26
220 79.71
221 68.78
222 13.96
223 2.73
224 4.75
226 1.73
227 11.8
228 2.3
229 5.61
230 27.34
231 15.25
232 7.91
233 3.02
234 44.46
235 9.21
237 1.58
239 1.29
241 2.58
243 2.59
244 2.88
245 9.93
246 5.47
247 8.49
248 99.99
249 16.69
250 2.16
252 2.59
253 1.58
255 1.58
257 2.16
260 1.73
262 3.6
263 11.8
264 4.17
265 1.44

$$$$

     RDKit          2D

 18 20  0  0  1  0  0  0  0  0999 V2000
   -2.2875   -2.9900    0.0000 C   0  0  0  0  0  0  0  0  0  0  0  0
   -0.9882    2.2600    0.0000 C   0  0  0  0  0  0  0  0  0  0  0  0
    2.3977   -2.6048    0.0000 C   0  0  0  0  0  0  0  0  0  0  0  0
   -3.5900    0.7600    0.0000 C   0  0  0  0  0  0  0  0  0  0  0  0
   -3.5900   -0.7400    0.0000 C   0  0  0  0  0  0  0  0  0  0  0  0
   -2.2900    1.5100    0.0000 C   0  0  0  0  0  0  0  0  0  0  0  0
    0.2900   -1.4900    0.0000 C   0  0  0  0  0  0  0  0  0  0  0  0
    0.3000    1.5000    0.0000 C   0  0  0  0  0  0  0  0  0  0  0  0
   -2.2900   -1.4900    0.0000 C   0  0  0  0  0  0  0  0  0  0  0  0
   -1.0000   -0.7400    0.0000 C   0  0  0  0  0  0  0  0  0  0  0  0
    1.5900   -0.7600    0.0000 C   0  0  0  0  0  0  0  0  0  0  0  0
    1.6000    0.7500    0.0000 C   0  0  0  0  0  0  0  0  0  0  0  0
    3.9200   -0.0200    0.0000 C   0  0  0  0  0  0  0  0  0  0  0  0
   -0.9900    0.7600    0.0000 C   0  0  0  0  0  0  0  0  0  0  0  0
    3.0200   -1.2400    0.0000 C   0  0  0  0  0  0  0  0  0  0  0  0
    5.4200   -0.0280    0.0000 O   0  0  0  0  0  0  0  0  0  0  0  0
    4.3129   -2.0005    0.0000 O   0  0  0  0  0  0  0  0  0  0  0  0
    3.0400    1.2000    0.0000 O   0  0  0  0  0  0  0  0  0  0  0  0
  5  4  1  0
  6  4  1  0
  9  1  1  1
  9  5  1  0
 10  7  1  0
 10  9  1  0
 11  7  1  1
 12  8  1  1
 12 11  1  0
 14  2  1  1
 14  6  1  0
 14  8  1  0
 14 10  1  0
 15  3  1  6
 15 11  1  0
 15 13  1  0
 16 13  2  0
 15 17  1  0
 12 18  1  0
 18 13  1  0
M  END
>  <NAME>  (6733) 
3-BETA-HYDROXY-TETRAHYDROALANTOLACTONE

>  <SYNONYMS>  (6733) 


>  <SPECTRUM TYPE>  (6733) 
MS1

>  <INSTRUMENT TYPE>  (6733) 
EI-B

>  <INSTRUMENT>  (6733) 
Unknown

>  <ION MODE>  (6733) 
P

>  <INCHIKEY>  (6733) 
UQPYSUOAPAJVOE-SQGOOWKJSA-N

>  <FORMULA>  (6733) 
C15H24O3

>  <EXACT MASS>  (6733) 
252.17254462799997

>  <MW>  (6733) 
252

>  <ID>  (6733) 
JP001191

>  <CONTRIBUTOR>  (6733) 
University of Tokyo Team, {Faculty of Engineering, University of Tokyo

>  <COMMENT>  (6733) 
SMILES=[H]C(C)(C3)C(C1)C(C)(CC3)CC([H])(O2)C([H])1C(C)(O)C(=O)2
InChI=InChI=1S/C15H24O3/c1-9-5-4-6-14(2)8-12-11(7-10(9)14)15(3,17)13(16)18-12/h9-12,17H,4-8H2,1-3H3/t9-,10?,11-,12+,14+,15-/m0/s1
computed SMILES=O=C1OC2CC3(C)CCCC(C)C3CC2C1(O)C
accession=JP001191
date=2016.01.19 (Created 2008.10.21, modified 2011.05.06)
author=NAGAKI M, DEPT. OF GENERAL EDUC., HIROSAKI UNIV.
license=CC BY-NC-SA
exact mass=252.17254
ionization energy=70 eV
ion type=[M]+*
computed spectral entropy=4.133930729240724
computed normalized entropy=0.8829164601992152
SPLASH=splash10-0aba-3910000000-bd31c658dfbb48b381f5
submitter=submitter = University of Tokyo Team (Faculty of Engineering, University of Tokyo)
MoNA Rating=3.75

>  <NUM PEAKS>  (6733) 
108

>  <MASS SPECTRAL PEAKS>  (6733) 
43 13.64
44 3.58
45 1.61
55 3.58
56 1.61
57 6.7
58 1.38
59 2.08
67 4.39
68 4.5
69 8.32
70 2.77
71 2.31
74 19.88
75 5.54
79 3.35
80 6.7
81 19.53
82 13.35
83 8.44
84 12.25
85 4.39
91 5.31
92 2.08
93 23.81
94 25.66
95 40.69
96 48.32
97 46.12
98 5.55
99 1.61
105 20.69
106 7.63
107 25.54
108 85.2
109 58.84
110 10.75
111 5.66
112 2.77
113 2.42
117 1.5
118 1.96
119 22.08
120 19.19
121 99.99
122 43.69
123 24.97
124 9.48
125 10.75
126 4.62
131 6.35
132 1.84
133 13.52
134 13.17
135 20.57
136 10.98
137 7.05
138 21.5
139 21.73
140 3.23
143 10.63
144 1.5
145 25.08
146 3.23
147 14.56
148 8.78
149 13.52
150 4.85
151 9.94
152 5.08
153 3.69
159 3.35
160 15.72
161 67.39
162 13.41
163 3.93
164 5.2
165 3.93
166 10.17
167 5.08
173 8.43
174 1.38
175 21.04
176 3.12
177 8.43
178 8.55
179 21.61
180 4.85
189 1.61
190 24.39
191 5.66
192 3.81
193 26.93
194 8.44
195 31.56
196 9.82
201 1.38
205 4.85
206 3.12
208 89.94
209 14.1
210 1.38
219 25.08
220 3.35
234 15.95
235 2.65
252 15.26
253 2.66

$$$$

     RDKit          2D

 19 22  0  0  1  0  0  0  0  0999 V2000
   -4.4882    3.3901    0.0000 C   0  0  0  0  0  0  0  0  0  0  0  0
    1.2990    3.7500    0.0000 C   0  0  0  0  0  0  0  0  0  0  0  0
   -0.0000   -1.5000    0.0000 C   0  0  0  0  0  0  0  0  0  0  0  0
   -1.2990    2.2500    0.0000 C   0  0  0  0  0  0  0  0  0  0  0  0
   -1.2990   -0.7500    0.0000 C   0  0  0  0  0  0  0  0  0  0  0  0
   -4.0247    1.9635    0.0000 C   0  0  0  0  0  0  0  0  0  0  0  0
    1.2990    2.2500    0.0000 C   0  0  0  0  0  0  0  0  0  0  0  0
   -2.5981    1.5000    0.0000 C   0  0  0  0  0  0  0  0  0  0  0  0
    0.0000    1.5000    0.0000 C   0  0  0  0  0  0  0  0  0  0  0  0
   -2.5981   -0.0000    0.0000 C   0  0  0  0  0  0  0  0  0  0  0  0
    2.5981    1.5000    0.0000 C   0  0  0  0  0  0  0  0  0  0  0  0
    2.5981   -0.0000    0.0000 C   0  0  0  0  0  0  0  0  0  0  0  0
    1.2990   -0.7500    0.0000 C   0  0  0  0  0  0  0  0  0  0  0  0
   -4.9063    0.7500    0.0000 C   0  0  0  0  0  0  0  0  0  0  0  0
    0.0000    0.0000    0.0000 C   0  0  0  0  0  0  0  0  0  0  0  0
    3.8971    2.2500    0.0000 O   0  0  0  0  0  0  0  0  0  0  0  0
   -6.4063    0.7500    0.0000 O   0  0  0  0  0  0  0  0  0  0  0  0
   -4.0247   -0.4635    0.0000 O   0  0  0  0  0  0  0  0  0  0  0  0
    2.5981   -1.5000    0.0000 O   0  0  0  0  0  0  0  0  0  0  0  0
  6  1  2  0
  7  2  1  1
  8  4  1  1
  8  6  1  0
  9  4  1  1
  9  7  1  0
 10  5  1  1
 10  8  1  0
 11  7  1  0
 12 11  1  0
 13 12  1  0
 14  6  1  0
 15  3  1  1
 15  5  1  0
 15  9  1  0
 15 13  1  0
 16 11  2  0
 17 14  2  0
 10 18  1  0
 18 14  1  0
 12 19  1  6
 13 19  1  6
M  END
>  <NAME>  (6734) 
1-ALPHA-2-ALPHA-EPOXY-3-OXO-5,6-DIHYDROALANTOLACTONE

>  <SYNONYMS>  (6734) 
HIMEYOSHIN

>  <SPECTRUM TYPE>  (6734) 
MS1

>  <INSTRUMENT TYPE>  (6734) 
EI-B

>  <INSTRUMENT>  (6734) 
JEOL JMS-D-100

>  <ION MODE>  (6734) 
P

>  <INCHIKEY>  (6734) 
ILXNJGJFJRUHHW-SVWYSVCKSA-N

>  <FORMULA>  (6734) 
C15H18O4

>  <EXACT MASS>  (6734) 
262.120509056

>  <MW>  (6734) 
262

>  <ID>  (6734) 
JP001189

>  <CONTRIBUTOR>  (6734) 
University of Tokyo Team, {Faculty of Engineering, University of Tokyo

>  <COMMENT>  (6734) 
SMILES=O=C(O1)C(=C)C([H])(C4)C([H])1CC(C)(C([H])43)C([H])(O2)C([H])(C(=O)C([H])(C)3)2
InChI=InChI=1S/C15H18O4/c1-6-8-4-9-7(2)11(16)12-13(19-12)15(9,3)5-10(8)18-14(6)17/h7-10,12-13H,1,4-5H2,2-3H3/t7-,8-,9+,10-,12+,13+,15-/m1/s1
computed SMILES=O=C1OC2CC3(C)C4OC4C(=O)C(C)C3CC2C1=C
accession=JP001189
date=2016.01.19 (Created 2008.10.21, modified 2011.05.06)
author=NAGAKI M, DEPT. OF GENERAL EDUC., HIROSAKI UNIV.
license=CC BY-NC-SA
exact mass=262.12051
ionization energy=70 eV
ion type=[M]+*
computed spectral entropy=4.229510981362533
computed normalized entropy=0.9470662783444661
SPLASH=splash10-0ce9-2950000000-8a601d71efa53085f70f
submitter=submitter = University of Tokyo Team (Faculty of Engineering, University of Tokyo)
MoNA Rating=3.75

>  <NUM PEAKS>  (6734) 
87

>  <MASS SPECTRAL PEAKS>  (6734) 
43 38.6
56 18.18
57 9.09
69 32.39
70 9.09
71 15.91
82 15.91
85 9.66
91 17.05
93 10.8
95 20.45
96 17.05
97 12.5
98 9.66
105 16.47
106 13.64
107 14.21
109 14.77
110 9.66
112 9.66
117 8.52
119 14.77
120 15.91
121 14.77
122 15.91
123 21.59
124 9.09
131 26.14
132 11.36
133 23.86
134 11.36
135 20.45
136 20.45
137 16.48
143 14.44
144 10.23
145 30.68
147 17.05
148 9.09
149 69.32
150 14.77
151 16.47
155 10.23
159 48.86
160 16.47
161 32.95
162 11.36
163 16.47
164 9.66
165 13.64
169 11.36
170 16.47
171 18.18
172 9.66
173 18.18
174 9.66
175 7.95
176 26.14
177 47.73
178 26.14
183 10.23
187 23.86
188 16.48
189 14.2
190 16.48
191 25
192 47.61
198 13.64
199 15.91
201 23.29
203 9.09
204 9.66
205 51.14
206 44.32
211 9.66
215 27.27
216 42.05
217 15.91
219 99.99
220 15.91
223 18.18
233 94.76
244 23.9
246 13.19
247 10.02
262 78.7
263 9.66

$$$$

     RDKit          2D

 25 28  0  0  1  0  0  0  0  0999 V2000
   -7.5923   -3.3728    0.0000 C   0  0  0  0  0  0  0  0  0  0  0  0
    2.2683    2.0011    0.0000 C   0  0  0  0  0  0  0  0  0  0  0  0
   -0.3297    2.0007    0.0000 C   0  0  0  0  0  0  0  0  0  0  0  0
    0.9704   -4.7491    0.0000 C   0  0  0  0  0  0  0  0  0  0  0  0
   -7.7491   -1.8810    0.0000 C   0  0  0  0  0  0  0  0  0  0  0  0
   -4.6044    3.3382    0.0000 C   0  0  0  0  0  0  0  0  0  0  0  0
   -3.3054    2.5882    0.0000 C   0  0  0  0  0  0  0  0  0  0  0  0
    2.2700   -2.4989    0.0000 C   0  0  0  0  0  0  0  0  0  0  0  0
    2.2698   -0.9989    0.0000 C   0  0  0  0  0  0  0  0  0  0  0  0
   -5.7191    2.3345    0.0000 C   0  0  0  0  0  0  0  0  0  0  0  0
   -0.3300   -2.4993    0.0000 C   0  0  0  0  0  0  0  0  0  0  0  0
   -6.5356    0.5007    0.0000 C   0  0  0  0  0  0  0  0  0  0  0  0
    0.9694    1.2509    0.0000 C   0  0  0  0  0  0  0  0  0  0  0  0
    0.9701   -3.2491    0.0000 C   0  0  0  0  0  0  0  0  0  0  0  0
   -6.5356   -0.9993    0.0000 C   0  0  0  0  0  0  0  0  0  0  0  0
    0.9697   -0.2491    0.0000 C   0  0  0  0  0  0  0  0  0  0  0  0
   -0.3302   -0.9993    0.0000 C   0  0  0  0  0  0  0  0  0  0  0  0
   -3.6172    1.1210    0.0000 C   0  0  0  0  0  0  0  0  0  0  0  0
   -5.1090   -1.4628    0.0000 C   0  0  0  0  0  0  0  0  0  0  0  0
   -2.9283   -0.9993    0.0000 C   0  0  0  0  0  0  0  0  0  0  0  0
   -5.1090    0.9642    0.0000 C   0  0  0  0  0  0  0  0  0  0  0  0
   -4.2273   -0.2493    0.0000 C   0  0  0  0  0  0  0  0  0  0  0  0
   -4.6455   -2.8894    0.0000 O   0  0  0  0  0  0  0  0  0  0  0  0
   -2.9283   -2.4993    0.0000 O   0  0  0  0  0  0  0  0  0  0  0  0
   -1.6293   -0.2493    0.0000 O   0  0  0  0  0  0  0  0  0  0  0  0
  5  1  1  0
  7  6  1  0
  9  8  1  0
 10  6  1  0
 13  2  1  0
 13  3  1  0
 14  4  1  1
 14  8  1  0
 14 11  1  0
 15  5  1  6
 15 12  1  0
 16  9  1  0
 16 13  1  0
 17 11  1  0
 17 16  1  0
 18  7  1  6
 19 15  1  0
 21 10  1  6
 21 12  1  0
 21 18  1  0
 22 18  1  0
 22 19  1  0
 22 20  1  0
 22 21  1  0
 19 23  1  1
 24 20  2  0
 17 25  1  1
 25 20  1  0
M  END
>  <NAME>  (6735) 
L-MENTHYL 3-ETHYL-4-HYDROXYTRICYCLO(4.3.0.O(1,5))NONANE-5-CARBOXYLATE

>  <SYNONYMS>  (6735) 


>  <SPECTRUM TYPE>  (6735) 
MS1

>  <INSTRUMENT TYPE>  (6735) 
EI-B

>  <INSTRUMENT>  (6735) 
HITACHI RMU-6L

>  <ION MODE>  (6735) 
P

>  <INCHIKEY>  (6735) 
QWNGCUFGYYKGMH-FHYZNXDSSA-N

>  <FORMULA>  (6735) 
C22H36O3

>  <EXACT MASS>  (6735) 
348.26644501199996

>  <MW>  (6735) 
348

>  <ID>  (6735) 
JP001158

>  <CONTRIBUTOR>  (6735) 
University of Tokyo Team, {Faculty of Engineering, University of Tokyo

>  <COMMENT>  (6735) 
SMILES=CC(C4)CC(C(C4)C(C)C)OC(=O)C(C(O)2)(C31)C(CCC3)(CC(CC)2)1
InChI=InChI=1S/C22H36O3/c1-5-15-12-21-10-6-7-18(21)22(21,19(15)23)20(24)25-17-11-14(4)8-9-16(17)13(2)3/h13-19,23H,5-12H2,1-4H3/t14-,15-,16?,17-,18+,19+,21+,22?/m1/s1
computed SMILES=O=C(OC1CC(C)CCC1C(C)C)C23C(O)C(CC)CC43CCCC24
accession=JP001158
date=2016.01.19 (Created 2008.10.21, modified 2011.05.06)
author=NAKAYAMA M, MASS SPECTROSCOPY SOC. OF JAPAN (MSSJ)
license=CC BY-NC-SA
exact mass=348.26645
ionization energy=70 eV
ion type=[M]+*
computed spectral entropy=3.704601532513923
computed normalized entropy=0.8430184084790174
SPLASH=splash10-0536-9700000000-4da25b25af4072f28966
submitter=submitter = University of Tokyo Team (Faculty of Engineering, University of Tokyo)
MoNA Rating=3.75

>  <NUM PEAKS>  (6735) 
81

>  <MASS SPECTRAL PEAKS>  (6735) 
40 2
41 55
42 3
43 45
44 2
51 2
53 11
54 6
55 74
56 7
57 37
58 2
65 4
66 3
67 22
68 5
69 45
70 3
71 7
77 12
78 3
79 19
80 4
81 36
82 7
83 99.99
84 7
91 20
92 3
93 13
94 4
95 25
96 6
97 17
105 9
107 7
108 6
109 3
117 5
119 16
120 3
121 4
123 8
126 3
131 2
133 2
135 6
136 38
137 11
138 18
139 13
140 2
145 2
147 34
148 5
149 2
150 2
151 2
154 40
155 3
162 2
163 30
164 16
165 38
166 4
174 3
175 8
176 3
191 12
192 98
193 36
194 4
210 3
211 37
212 5
213 1
292 0.3
330 0.3
347 0.1
348 0.2
349 0.1

$$$$

     RDKit          2D

 25 28  0  0  1  0  0  0  0  0999 V2000
   -7.5923   -3.3728    0.0000 C   0  0  0  0  0  0  0  0  0  0  0  0
    2.2683    2.0011    0.0000 C   0  0  0  0  0  0  0  0  0  0  0  0
   -0.3297    2.0007    0.0000 C   0  0  0  0  0  0  0  0  0  0  0  0
    0.9704   -4.7491    0.0000 C   0  0  0  0  0  0  0  0  0  0  0  0
   -7.7491   -1.8810    0.0000 C   0  0  0  0  0  0  0  0  0  0  0  0
   -4.6044    3.3382    0.0000 C   0  0  0  0  0  0  0  0  0  0  0  0
   -3.3054    2.5882    0.0000 C   0  0  0  0  0  0  0  0  0  0  0  0
    2.2700   -2.4989    0.0000 C   0  0  0  0  0  0  0  0  0  0  0  0
    2.2698   -0.9989    0.0000 C   0  0  0  0  0  0  0  0  0  0  0  0
   -5.7191    2.3345    0.0000 C   0  0  0  0  0  0  0  0  0  0  0  0
   -0.3300   -2.4993    0.0000 C   0  0  0  0  0  0  0  0  0  0  0  0
   -6.5356    0.5007    0.0000 C   0  0  0  0  0  0  0  0  0  0  0  0
    0.9694    1.2509    0.0000 C   0  0  0  0  0  0  0  0  0  0  0  0
    0.9701   -3.2491    0.0000 C   0  0  0  0  0  0  0  0  0  0  0  0
   -6.5356   -0.9993    0.0000 C   0  0  0  0  0  0  0  0  0  0  0  0
    0.9697   -0.2491    0.0000 C   0  0  0  0  0  0  0  0  0  0  0  0
   -0.3302   -0.9993    0.0000 C   0  0  0  0  0  0  0  0  0  0  0  0
   -3.6172    1.1210    0.0000 C   0  0  0  0  0  0  0  0  0  0  0  0
   -5.1090   -1.4628    0.0000 C   0  0  0  0  0  0  0  0  0  0  0  0
   -2.9283   -0.9993    0.0000 C   0  0  0  0  0  0  0  0  0  0  0  0
   -5.1090    0.9642    0.0000 C   0  0  0  0  0  0  0  0  0  0  0  0
   -4.2273   -0.2493    0.0000 C   0  0  0  0  0  0  0  0  0  0  0  0
   -4.6455   -2.8894    0.0000 O   0  0  0  0  0  0  0  0  0  0  0  0
   -2.9283   -2.4993    0.0000 O   0  0  0  0  0  0  0  0  0  0  0  0
   -1.6293   -0.2493    0.0000 O   0  0  0  0  0  0  0  0  0  0  0  0
  5  1  1  0
  7  6  1  0
  9  8  1  0
 10  6  1  0
 13  2  1  0
 13  3  1  0
 14  4  1  1
 14  8  1  0
 14 11  1  0
 15  5  1  0
 15 12  1  0
 16  9  1  0
 16 13  1  0
 17 11  1  0
 17 16  1  0
 18  7  1  0
 19 15  1  0
 21 10  1  0
 21 12  1  0
 21 18  1  0
 22 18  1  0
 22 19  1  0
 22 20  1  0
 22 21  1  0
 23 19  2  0
 24 20  2  0
 17 25  1  1
 25 20  1  0
M  END
>  <NAME>  (6736) 
L-MENTHYL 3-ETHYL-4-OXOTRICYCLO(4.3.0.0(1,))NONANE-5-CARBOXYLATE

>  <SYNONYMS>  (6736) 


>  <SPECTRUM TYPE>  (6736) 
MS1

>  <INSTRUMENT TYPE>  (6736) 
EI-B

>  <INSTRUMENT>  (6736) 
HITACHI RMU-6L

>  <ION MODE>  (6736) 
P

>  <INCHIKEY>  (6736) 
QYTWWGBGNCCYSF-UPJDIYRESA-N

>  <FORMULA>  (6736) 
C22H34O3

>  <EXACT MASS>  (6736) 
346.25079494799996

>  <MW>  (6736) 
346

>  <ID>  (6736) 
JP001157

>  <CONTRIBUTOR>  (6736) 
University of Tokyo Team, {Faculty of Engineering, University of Tokyo

>  <COMMENT>  (6736) 
SMILES=CC(C4)CC(C(C4)C(C)C)OC(=O)C(C(=O)2)(C31)C(CCC3)(CC(CC)2)1
InChI=InChI=1S/C22H34O3/c1-5-15-12-21-10-6-7-18(21)22(21,19(15)23)20(24)25-17-11-14(4)8-9-16(17)13(2)3/h13-18H,5-12H2,1-4H3/t14-,15?,16?,17-,18?,21?,22?/m1/s1
computed SMILES=O=C(OC1CC(C)CCC1C(C)C)C23C(=O)C(CC)CC43CCCC24
accession=JP001157
date=2016.01.19 (Created 2008.10.21, modified 2011.05.06)
author=NAKAYAMA M, MASS SPECTROSCOPY SOC. OF JAPAN (MSSJ)
license=CC BY-NC-SA
exact mass=346.25079
ionization energy=70 eV
ion type=[M]+*
computed spectral entropy=3.977347698553187
computed normalized entropy=0.8511648595429868
SPLASH=splash10-0a5c-9610000000-7ee2a7929e776e7517d6
submitter=submitter = University of Tokyo Team (Faculty of Engineering, University of Tokyo)
MoNA Rating=3.75

>  <NUM PEAKS>  (6736) 
107

>  <MASS SPECTRAL PEAKS>  (6736) 
39 12
40 3
41 44
42 7
43 36
44 7
45 2
50 2
51 4
52 3
53 8
54 5
55 62
56 12
57 48
58 3
60 2
63 2
64 2
65 4
66 3
67 26
68 8
69 42
70 7
71 11
73 2
77 16
78 5
79 19
80 13
81 42
82 13
83 89
84 8
85 4
86 2
91 10
92 3
93 17
94 10
95 45
96 11
97 17
98 3
99 3
102 2
103 2
104 2
105 5
106 3
107 8
108 4
109 6
110 3
111 3
113 2
115 2
117 3
119 3
120 4
121 8
122 3
123 19
124 4
125 3
127 2
129 2
131 2
133 3
134 5
135 13
136 6
137 4
138 40
139 22
140 3
141 3
143 2
145 2
147 2
149 7
151 2
152 20
153 3
161 3
162 12
163 10
164 44
165 8
166 2
167 2
175 2
179 2
180 21
181 3
186 2
189 3
190 23
191 99.99
192 5
193 3
208 38
209 52
210 2
346 0.8
347 0.6

$$$$

     RDKit          2D

 25 26  0  0  1  0  0  0  0  0999 V2000
    6.7091    2.3701    0.0000 C   0  0  0  0  0  0  0  0  0  0  0  0
   -1.0853    2.3069    0.0000 C   0  0  0  0  0  0  0  0  0  0  0  0
    1.5127    2.3282    0.0000 C   0  0  0  0  0  0  0  0  0  0  0  0
    0.1582    9.0673    0.0000 C   0  0  0  0  0  0  0  0  0  0  0  0
    8.0021    3.1305    0.0000 C   0  0  0  0  0  0  0  0  0  0  0  0
   12.2430    2.8582    0.0000 C   0  0  0  0  0  0  0  0  0  0  0  0
   12.9562    4.1733    0.0000 C   0  0  0  0  0  0  0  0  0  0  0  0
   10.7578    3.1626    0.0000 C   0  0  0  0  0  0  0  0  0  0  0  0
   11.9444    5.2672    0.0000 C   0  0  0  0  0  0  0  0  0  0  0  0
   -1.1233    6.8067    0.0000 C   0  0  0  0  0  0  0  0  0  0  0  0
   -1.1109    5.3068    0.0000 C   0  0  0  0  0  0  0  0  0  0  0  0
    1.4767    6.8281    0.0000 C   0  0  0  0  0  0  0  0  0  0  0  0
    9.2830    5.3909    0.0000 C   0  0  0  0  0  0  0  0  0  0  0  0
    5.3920    4.6096    0.0000 C   0  0  0  0  0  0  0  0  0  0  0  0
    0.2075    3.0675    0.0000 C   0  0  0  0  0  0  0  0  0  0  0  0
    0.1705    7.5674    0.0000 C   0  0  0  0  0  0  0  0  0  0  0  0
   10.5880    4.6514    0.0000 C   0  0  0  0  0  0  0  0  0  0  0  0
    7.9900    4.6305    0.0000 C   0  0  0  0  0  0  0  0  0  0  0  0
    0.1952    4.5675    0.0000 C   0  0  0  0  0  0  0  0  0  0  0  0
    6.6850    5.3700    0.0000 C   0  0  0  0  0  0  0  0  0  0  0  0
    1.4890    5.3281    0.0000 C   0  0  0  0  0  0  0  0  0  0  0  0
    4.0870    5.3491    0.0000 C   0  0  0  0  0  0  0  0  0  0  0  0
    6.6729    6.8699    0.0000 O   0  0  0  0  0  0  0  0  0  0  0  0
    4.0749    6.8490    0.0000 O   0  0  0  0  0  0  0  0  0  0  0  0
    2.7940    4.5886    0.0000 O   0  0  0  0  0  0  0  0  0  0  0  0
  5  1  1  0
  7  6  1  0
  8  6  1  0
  9  7  1  0
 11 10  1  0
 15  2  1  0
 15  3  1  0
 16  4  1  1
 16 10  1  0
 16 12  1  0
 17  8  2  0
 17  9  1  0
 17 13  1  0
 18  5  1  0
 18 13  1  0
 19 11  1  0
 19 15  1  6
 20 14  1  0
 20 18  1  0
 21 12  1  0
 21 19  1  0
 22 14  1  0
 23 20  2  0
 24 22  2  0
 21 25  1  1
 25 22  1  0
M  END
>  <NAME>  (6737) 
L-MENTHYL 4-(1-CYCLOPENTENYLMETHYL)-3-OXOHEXANOATE

>  <SYNONYMS>  (6737) 


>  <SPECTRUM TYPE>  (6737) 
MS1

>  <INSTRUMENT TYPE>  (6737) 
EI-B

>  <INSTRUMENT>  (6737) 
HITACHI RMU-6L

>  <ION MODE>  (6737) 
P

>  <INCHIKEY>  (6737) 
SFMNHMUJLBEBKS-GSYZTTQLSA-N

>  <FORMULA>  (6737) 
C22H36O3

>  <EXACT MASS>  (6737) 
348.26644501199996

>  <MW>  (6737) 
348

>  <ID>  (6737) 
JP001156

>  <CONTRIBUTOR>  (6737) 
University of Tokyo Team, {Faculty of Engineering, University of Tokyo

>  <COMMENT>  (6737) 
SMILES=CCC(CC(C2)=CCC2)C(=O)CC(=O)OC(C1)C(CCC(C)1)C(C)C
InChI=InChI=1S/C22H36O3/c1-5-18(13-17-8-6-7-9-17)20(23)14-22(24)25-21-12-16(4)10-11-19(21)15(2)3/h8,15-16,18-19,21H,5-7,9-14H2,1-4H3/t16-,18?,19+,21-/m1/s1
computed SMILES=O=C(OC1CC(C)CCC1C(C)C)CC(=O)C(CC2=CCCC2)CC
accession=JP001156
date=2016.01.19 (Created 2008.10.21, modified 2011.05.06)
author=NAKAYAMA M, MASS SPECTROSCOPY SOC. OF JAPAN (MSSJ)
license=CC BY-NC-SA
exact mass=348.26645
ionization energy=70 eV
ion type=[M]+*
computed spectral entropy=3.606637713363643
computed normalized entropy=0.8433292693406312
SPLASH=splash10-001l-9400000000-b823208eccdfb0b6e399
submitter=submitter = University of Tokyo Team (Faculty of Engineering, University of Tokyo)
MoNA Rating=3.75

>  <NUM PEAKS>  (6737) 
72

>  <MASS SPECTRAL PEAKS>  (6737) 
40 2
41 47
42 5
43 33
51 2
53 12
54 4
55 55
56 7
57 31
58 2
65 4
66 3
67 30
68 5
69 43
70 5
71 21
77 8
78 2
79 4
80 17
81 99.99
82 15
83 65
84 7
85 2
87 2
91 5
93 9
94 5
95 28
96 7
97 19
98 2
105 2
107 4
108 3
109 4
110 2
111 2
112 3
121 8
122 15
123 87
124 10
129 12
130 40
131 4
132 3
133 3
135 3
136 2
137 2
138 17
139 12
150 9
151 10
152 3
163 7
164 3
180 18
181 2
191 5
192 33
193 8
210 56
211 8
269 3
330 1
348 2.5
349 0.5

$$$$

     RDKit          2D

 19 19  0  0  1  0  0  0  0  0999 V2000
   -1.5900    0.9215    0.0000 C   0  0  0  0  0  0  0  0  0  0  0  0
   10.1022    3.1700    0.0000 C   0  0  0  0  0  0  0  0  0  0  0  0
    7.5041    3.1700    0.0000 C   0  0  0  0  0  0  0  0  0  0  0  0
    8.8031   -3.5800    0.0000 C   0  0  0  0  0  0  0  0  0  0  0  0
   -0.2911    0.1712    0.0000 C   0  0  0  0  0  0  0  0  0  0  0  0
    1.0081    0.9210    0.0000 C   0  0  0  0  0  0  0  0  0  0  0  0
   10.1031   -1.3300    0.0000 C   0  0  0  0  0  0  0  0  0  0  0  0
   10.1031    0.1700    0.0000 C   0  0  0  0  0  0  0  0  0  0  0  0
    7.5031   -1.3300    0.0000 C   0  0  0  0  0  0  0  0  0  0  0  0
    3.6062    0.9206    0.0000 C   0  0  0  0  0  0  0  0  0  0  0  0
    8.8031    2.4200    0.0000 C   0  0  0  0  0  0  0  0  0  0  0  0
    8.8031   -2.0800    0.0000 C   0  0  0  0  0  0  0  0  0  0  0  0
    2.3070    0.1708    0.0000 C   0  0  0  0  0  0  0  0  0  0  0  0
    8.8031    0.9200    0.0000 C   0  0  0  0  0  0  0  0  0  0  0  0
    7.5031    0.1700    0.0000 C   0  0  0  0  0  0  0  0  0  0  0  0
    4.9051    0.1704    0.0000 C   0  0  0  0  0  0  0  0  0  0  0  0
    2.3068   -1.3292    0.0000 O   0  0  0  0  0  0  0  0  0  0  0  0
    4.9048   -1.3296    0.0000 O   0  0  0  0  0  0  0  0  0  0  0  0
    6.2042    0.9202    0.0000 O   0  0  0  0  0  0  0  0  0  0  0  0
  5  1  1  0
  6  5  1  0
  8  7  1  0
 11  2  1  0
 11  3  1  0
 12  4  1  6
 12  7  1  0
 12  9  1  0
 13  6  1  0
 13 10  1  0
 14  8  1  0
 14 11  1  0
 15  9  1  0
 15 14  1  0
 16 10  1  0
 17 13  2  0
 18 16  2  0
 15 19  1  6
 19 16  1  0
M  END
>  <NAME>  (6738) 
L-MENTHYL 3-OXOHEXANOATE

>  <SYNONYMS>  (6738) 


>  <SPECTRUM TYPE>  (6738) 
MS1

>  <INSTRUMENT TYPE>  (6738) 
EI-B

>  <INSTRUMENT>  (6738) 
HITACHI RMU-6L

>  <ION MODE>  (6738) 
P

>  <INCHIKEY>  (6738) 
VUQAUGNLGQCAEF-JDLVMGNASA-N

>  <FORMULA>  (6738) 
C16H28O3

>  <EXACT MASS>  (6738) 
268.20384475599997

>  <MW>  (6738) 
268

>  <ID>  (6738) 
JP001155

>  <CONTRIBUTOR>  (6738) 
University of Tokyo Team, {Faculty of Engineering, University of Tokyo

>  <COMMENT>  (6738) 
SMILES=CCCC(=O)CC(=O)OC(C1)C(CCC(C)1)C(C)C
InChI=InChI=1S/C16H28O3/c1-5-6-13(17)10-16(18)19-15-9-12(4)7-8-14(15)11(2)3/h11-12,14-15H,5-10H2,1-4H3/t12-,14?,15-/m0/s1
computed SMILES=O=C(OC1CC(C)CCC1C(C)C)CC(=O)CCC
accession=JP001155
date=2016.01.19 (Created 2008.10.21, modified 2011.05.06)
author=NAKAYAMA M, MASS SPECTROSCOPY SOC. OF JAPAN (MSSJ)
license=CC BY-NC-SA
exact mass=268.20384
ionization energy=70 eV
ion type=[M]+*
computed spectral entropy=3.4329979559480384
computed normalized entropy=0.77273631391452
SPLASH=splash10-0536-9200000000-21b063f4e8468de4e087
submitter=submitter = University of Tokyo Team (Faculty of Engineering, University of Tokyo)
MoNA Rating=3.75

>  <NUM PEAKS>  (6738) 
85

>  <MASS SPECTRAL PEAKS>  (6738) 
40 4
41 70
42 13
43 99.99
44 3
45 2
51 1
52 1
53 8
54 8
55 58
56 9
57 35
58 6
59 2
60 1
65 3
66 2
67 19
68 9
69 41
70 6
71 72
72 3
74 1
77 3
78 1
79 6
80 8
81 65
82 26
83 70
84 8
85 3
86 2
87 2
91 2
94 3
95 68
96 20
97 14
98 2
99 1
102 2
105 1
107 1
109 8
110 5
111 3
112 3
113 16
114 1
115 1
121 1
122 1
123 30
124 3
125 1
127 1
128 1
129 3
130 4
131 15
132 2
137 4
138 77
139 24
140 2
141 2
145 6
146 1
149 1
150 1
151 1
152 1
153 1
154 1
155 5
156 1
157 1
170 1
171 1
267 0.4
268 0.9
269 0.1

$$$$

     RDKit          2D

 16 18  0  0  0  0  0  0  0  0999 V2000
    4.5583   -0.5490    0.0000 C   0  0  0  0  0  0  0  0  0  0  0  0
   -2.7120   -2.8974    0.0000 C   0  0  0  0  0  0  0  0  0  0  0  0
    3.8083    0.7500    0.0000 C   0  0  0  0  0  0  0  0  0  0  0  0
   -1.8037    3.1240    0.0000 C   0  0  0  0  0  0  0  0  0  0  0  0
   -2.4138    1.7537    0.0000 C   0  0  0  0  0  0  0  0  0  0  0  0
   -0.3119    2.9672    0.0000 C   0  0  0  0  0  0  0  0  0  0  0  0
    1.4266    1.9635    0.0000 C   0  0  0  0  0  0  0  0  0  0  0  0
    2.3083    0.7500    0.0000 C   0  0  0  0  0  0  0  0  0  0  0  0
   -1.2990    0.7500    0.0000 C   0  0  0  0  0  0  0  0  0  0  0  0
    1.4266   -0.4635    0.0000 C   0  0  0  0  0  0  0  0  0  0  0  0
   -0.6101   -1.3703    0.0000 C   0  0  0  0  0  0  0  0  0  0  0  0
    0.0000    1.5000    0.0000 C   0  0  0  0  0  0  0  0  0  0  0  0
   -0.0000    0.0000    0.0000 C   0  0  0  0  0  0  0  0  0  0  0  0
    1.8901   -1.8901    0.0000 O   0  0  0  0  0  0  0  0  0  0  0  0
    0.2716   -2.5838    0.0000 O   0  0  0  0  0  0  0  0  0  0  0  0
   -2.1019   -1.5271    0.0000 O   0  0  0  0  0  0  0  0  0  0  0  0
  3  1  1  0
  5  4  1  0
  6  4  1  0
  8  3  1  0
  8  7  1  0
  9  5  1  0
 10  8  1  0
 12  6  1  0
 12  7  1  0
 12  9  1  0
 13  9  1  0
 13 10  1  0
 13 11  1  0
 13 12  1  0
 14 10  1  0
 15 11  2  0
 16  2  1  0
 16 11  1  0
M  END
>  <NAME>  (6739) 
METHYL 3-ETHYL-4-HYDROXYTRICYCLO(4.3.0.0(1,5))NONANE-5-CARBOXYLATE

>  <SYNONYMS>  (6739) 


>  <SPECTRUM TYPE>  (6739) 
MS1

>  <INSTRUMENT TYPE>  (6739) 
EI-B

>  <INSTRUMENT>  (6739) 
HITACHI RMU-6L

>  <ION MODE>  (6739) 
P

>  <INCHIKEY>  (6739) 
DGQYWWMBLOMTPO-UHFFFAOYSA-N

>  <FORMULA>  (6739) 
C13H20O3

>  <EXACT MASS>  (6739) 
224.14124449999997

>  <MW>  (6739) 
224

>  <ID>  (6739) 
JP001154

>  <CONTRIBUTOR>  (6739) 
University of Tokyo Team, {Faculty of Engineering, University of Tokyo

>  <COMMENT>  (6739) 
SMILES=CCC(C1)C(O)C(C(=O)OC)(C32)C(CCC3)12
InChI=InChI=1S/C13H20O3/c1-3-8-7-12-6-4-5-9(12)13(12,10(8)14)11(15)16-2/h8-10,14H,3-7H2,1-2H3
computed SMILES=O=C(OC)C12C(O)C(CC)CC32CCCC31
accession=JP001154
date=2016.01.19 (Created 2008.10.21, modified 2011.05.06)
author=NAKAYAMA M, MASS SPECTROSCOPY SOC. OF JAPAN (MSSJ)
license=CC BY-NC-SA
exact mass=224.14124
ionization energy=70 eV
ion type=[M]+*
computed spectral entropy=4.037749760948262
computed normalized entropy=0.886662036998792
SPLASH=splash10-054x-5900000000-918f5467eb90dfe538e3
submitter=submitter = University of Tokyo Team (Faculty of Engineering, University of Tokyo)
MoNA Rating=3.75

>  <NUM PEAKS>  (6739) 
95

>  <MASS SPECTRAL PEAKS>  (6739) 
40 4
41 40
42 3
43 13
45 3
51 7
52 4
53 14
54 3
55 26
56 2
57 17
58 2
59 15
63 3
65 12
66 7
67 20
68 3
69 8
71 5
77 27
78 7
79 31
80 7
81 18
82 3
83 6
85 2
90 2
91 41
92 7
93 32
94 6
95 9
96 2
97 3
103 4
104 2
105 43
106 5
107 14
108 32
109 8
111 2
115 8
116 3
117 26
118 6
119 27
120 4
121 18
122 4
123 4
127 2
128 2
129 2
131 6
132 2
133 7
135 10
136 99.99
137 13
140 21
141 2
144 2
145 12
146 7
147 56
148 7
149 5
150 3
151 3
152 3
153 6
154 2
163 7
164 16
165 48
166 6
168 9
169 4
174 5
175 6
176 4
177 43
178 7
190 10
191 25
192 11
206 18
207 4
223 3
224 14
225 2

$$$$

     RDKit          2D

 18 20  0  0  0  0  0  0  0  0999 V2000
   -2.7120    0.0168    0.0000 C   0  0  0  0  0  0  0  0  0  0  0  0
   -2.7120   -1.0636    0.0000 C   0  0  0  0  0  0  0  0  0  0  0  0
    4.8496    3.1240    0.0000 C   0  0  0  0  0  0  0  0  0  0  0  0
   -1.2854    0.4803    0.0000 C   0  0  0  0  0  0  0  0  0  0  0  0
   -1.2854   -1.5271    0.0000 C   0  0  0  0  0  0  0  0  0  0  0  0
    3.9412   -2.8974    0.0000 C   0  0  0  0  0  0  0  0  0  0  0  0
    4.5513   -1.5271    0.0000 C   0  0  0  0  0  0  0  0  0  0  0  0
    2.4494   -2.7406    0.0000 C   0  0  0  0  0  0  0  0  0  0  0  0
    0.7110   -1.7369    0.0000 C   0  0  0  0  0  0  0  0  0  0  0  0
    3.4366   -0.5234    0.0000 C   0  0  0  0  0  0  0  0  0  0  0  0
    0.7110    0.6901    0.0000 C   0  0  0  0  0  0  0  0  0  0  0  0
    2.7477    1.5969    0.0000 C   0  0  0  0  0  0  0  0  0  0  0  0
   -0.1707   -0.5234    0.0000 C   0  0  0  0  0  0  0  0  0  0  0  0
    2.1376   -1.2734    0.0000 C   0  0  0  0  0  0  0  0  0  0  0  0
    2.1376    0.2266    0.0000 C   0  0  0  0  0  0  0  0  0  0  0  0
    0.2475    2.1167    0.0000 O   0  0  0  0  0  0  0  0  0  0  0  0
    1.8660    2.8104    0.0000 O   0  0  0  0  0  0  0  0  0  0  0  0
    4.2395    1.7537    0.0000 O   0  0  0  0  0  0  0  0  0  0  0  0
  4  1  1  0
  5  2  1  0
  7  6  1  0
  8  6  1  0
 10  7  1  0
 13  4  1  0
 13  5  1  0
 13  9  1  0
 13 11  1  0
 14  8  1  0
 14  9  1  0
 14 10  1  0
 15 10  1  0
 15 11  1  0
 15 12  1  0
 15 14  1  0
 16 11  2  0
 17 12  2  0
 18  3  1  0
 18 12  1  0
M  END
>  <NAME>  (6740) 
METHYL 3,3-DIETHYL-4-OXOTRICYCLO(4.3.0.0(1,5))NONANE-5-CARBOXYLATE

>  <SYNONYMS>  (6740) 


>  <SPECTRUM TYPE>  (6740) 
MS1

>  <INSTRUMENT TYPE>  (6740) 
EI-B

>  <INSTRUMENT>  (6740) 
HITACHI RMU-6L

>  <ION MODE>  (6740) 
P

>  <INCHIKEY>  (6740) 
WCOJHCWNWYBOOQ-UHFFFAOYSA-N

>  <FORMULA>  (6740) 
C15H22O3

>  <EXACT MASS>  (6740) 
250.15689456399997

>  <MW>  (6740) 
250

>  <ID>  (6740) 
JP001153

>  <CONTRIBUTOR>  (6740) 
University of Tokyo Team, {Faculty of Engineering, University of Tokyo

>  <COMMENT>  (6740) 
SMILES=COC(=O)C(C(=O)2)(C31)C(CCC3)(CC(CC)(CC)2)1
InChI=InChI=1S/C15H22O3/c1-4-13(5-2)9-14-8-6-7-10(14)15(14,11(13)16)12(17)18-3/h10H,4-9H2,1-3H3
computed SMILES=O=C(OC)C12C(=O)C(CC)(CC)CC32CCCC13
accession=JP001153
date=2016.01.19 (Created 2008.10.21, modified 2011.05.06)
author=NAKAYAMA M, MASS SPECTROSCOPY SOC. OF JAPAN (MSSJ)
license=CC BY-NC-SA
exact mass=250.15689
ionization energy=70 eV
ion type=[M]+*
computed spectral entropy=4.032415949970645
computed normalized entropy=0.8351603001307151
SPLASH=splash10-014m-9710000000-4f9789ca7562bab7ce39
submitter=submitter = University of Tokyo Team (Faculty of Engineering, University of Tokyo)
MoNA Rating=3.75

>  <NUM PEAKS>  (6740) 
125

>  <MASS SPECTRAL PEAKS>  (6740) 
39 15
40 3
41 30
42 3
43 6
45 2
50 2
51 6
52 3
53 13
54 2
55 28
56 2
57 3
59 8
63 2
64 2
65 9
66 5
67 10
68 2
69 7
70 3
71 2
75 1
76 1
77 24
78 9
79 24
80 4
81 8
82 1
83 33
84 3
85 1
89 1
90 1
91 25
92 6
93 23
94 3
95 4
96 1
97 8
98 77
99 6
101 1
102 1
103 3
104 1
105 11
106 6
107 10
108 4
109 3
110 2
111 2
115 3
116 1
117 4
118 1
119 5
120 3
121 10
122 2
123 3
124 1
125 1
127 1
128 2
129 1
131 3
132 1
133 9
134 10
135 3
136 1
137 3
138 6
139 2
140 1
141 1
143 1
144 1
145 2
146 1
147 5
148 3
149 3
150 1
151 3
152 9
153 2
159 1
160 1
161 15
162 12
163 5
164 1
165 3
166 99.99
167 11
168 2
173 2
175 3
176 1
177 1
179 1
180 1
189 6
190 10
191 6
192 1
193 5
194 1
204 1
206 1
208 2
217 1
218 6
219 11
220 2
221 3
222 19
223 3

$$$$

     RDKit          2D

 16 18  0  0  0  0  0  0  0  0999 V2000
    4.5583   -0.5490    0.0000 C   0  0  0  0  0  0  0  0  0  0  0  0
   -2.7120   -2.8974    0.0000 C   0  0  0  0  0  0  0  0  0  0  0  0
    3.8083    0.7500    0.0000 C   0  0  0  0  0  0  0  0  0  0  0  0
   -1.8037    3.1240    0.0000 C   0  0  0  0  0  0  0  0  0  0  0  0
   -2.4138    1.7537    0.0000 C   0  0  0  0  0  0  0  0  0  0  0  0
   -0.3119    2.9672    0.0000 C   0  0  0  0  0  0  0  0  0  0  0  0
    1.4266    1.9635    0.0000 C   0  0  0  0  0  0  0  0  0  0  0  0
    2.3083    0.7500    0.0000 C   0  0  0  0  0  0  0  0  0  0  0  0
   -1.2990    0.7500    0.0000 C   0  0  0  0  0  0  0  0  0  0  0  0
    1.4266   -0.4635    0.0000 C   0  0  0  0  0  0  0  0  0  0  0  0
   -0.6101   -1.3703    0.0000 C   0  0  0  0  0  0  0  0  0  0  0  0
    0.0000    1.5000    0.0000 C   0  0  0  0  0  0  0  0  0  0  0  0
   -0.0000    0.0000    0.0000 C   0  0  0  0  0  0  0  0  0  0  0  0
    1.8901   -1.8901    0.0000 O   0  0  0  0  0  0  0  0  0  0  0  0
    0.2716   -2.5838    0.0000 O   0  0  0  0  0  0  0  0  0  0  0  0
   -2.1019   -1.5271    0.0000 O   0  0  0  0  0  0  0  0  0  0  0  0
  3  1  1  0
  5  4  1  0
  6  4  1  0
  8  3  1  0
  8  7  1  0
  9  5  1  0
 10  8  1  0
 12  6  1  0
 12  7  1  0
 12  9  1  0
 13  9  1  0
 13 10  1  0
 13 11  1  0
 13 12  1  0
 14 10  2  0
 15 11  2  0
 16  2  1  0
 16 11  1  0
M  END
>  <NAME>  (6741) 
METHYL 3-ETHYL-4-OXOTRICYCLO(4.3.0.0(1,5))NONANE-5-CARBOXYLATE

>  <SYNONYMS>  (6741) 


>  <SPECTRUM TYPE>  (6741) 
MS1

>  <INSTRUMENT TYPE>  (6741) 
EI-B

>  <INSTRUMENT>  (6741) 
HITACHI RMU-6L

>  <ION MODE>  (6741) 
P

>  <INCHIKEY>  (6741) 
CRFJZZJUYVEICX-UHFFFAOYSA-N

>  <FORMULA>  (6741) 
C13H18O3

>  <EXACT MASS>  (6741) 
222.12559443599997

>  <MW>  (6741) 
222

>  <ID>  (6741) 
JP001152

>  <CONTRIBUTOR>  (6741) 
University of Tokyo Team, {Faculty of Engineering, University of Tokyo

>  <COMMENT>  (6741) 
SMILES=CCC(C1)C(=O)C(C(=O)OC)(C32)C(CCC3)12
InChI=InChI=1S/C13H18O3/c1-3-8-7-12-6-4-5-9(12)13(12,10(8)14)11(15)16-2/h8-9H,3-7H2,1-2H3
computed SMILES=O=C(OC)C12C(=O)C(CC)CC32CCCC13
accession=JP001152
date=2016.01.19 (Created 2008.10.21, modified 2011.05.06)
author=NAKAYAMA M, MASS SPECTROSCOPY SOC. OF JAPAN (MSSJ)
license=CC BY-NC-SA
exact mass=222.12559
ionization energy=70 eV
ion type=[M]+*
computed spectral entropy=3.710909510048553
computed normalized entropy=0.9178487395328302
SPLASH=splash10-0006-6900000000-7d015d6c029741ec36a3
submitter=submitter = University of Tokyo Team (Faculty of Engineering, University of Tokyo)
MoNA Rating=3.75

>  <NUM PEAKS>  (6741) 
57

>  <MASS SPECTRAL PEAKS>  (6741) 
40 6
41 28
42 6
43 8
45 6
51 12
52 10
53 16
54 6
55 24
59 13
65 14
66 12
67 18
68 7
69 10
77 32
78 16
79 38
80 10
81 12
83 10
91 30
92 16
93 70
94 12
105 16
106 17
107 15
108 8
119 9
120 12
121 11
122 6
123 8
133 12
134 36
135 15
137 10
138 11
151 9
152 54
153 10
161 11
162 40
163 18
165 13
166 99.99
167 13
190 39
191 39
194 80
195 15
196 5
221 5
222 12
223 4

$$$$

     RDKit          2D

 14 16  0  0  0  0  0  0  0  0999 V2000
    2.8693   -2.4321    0.0000 C   0  0  0  0  0  0  0  0  0  0  0  0
   -3.9931   -0.1619    0.0000 C   0  0  0  0  0  0  0  0  0  0  0  0
   -3.1115   -1.3754    0.0000 C   0  0  0  0  0  0  0  0  0  0  0  0
    0.1188    2.2122    0.0000 C   0  0  0  0  0  0  0  0  0  0  0  0
   -3.1115    1.0517    0.0000 C   0  0  0  0  0  0  0  0  0  0  0  0
   -1.3730    2.0554    0.0000 C   0  0  0  0  0  0  0  0  0  0  0  0
   -1.6849   -0.9119    0.0000 C   0  0  0  0  0  0  0  0  0  0  0  0
    0.7289    0.8418    0.0000 C   0  0  0  0  0  0  0  0  0  0  0  0
    0.4958   -1.3754    0.0000 C   0  0  0  0  0  0  0  0  0  0  0  0
   -1.6849    0.5881    0.0000 C   0  0  0  0  0  0  0  0  0  0  0  0
   -0.3858   -0.1619    0.0000 C   0  0  0  0  0  0  0  0  0  0  0  0
    2.1961    0.5300    0.0000 O   0  0  0  0  0  0  0  0  0  0  0  0
   -0.1143   -2.7457    0.0000 O   0  0  0  0  0  0  0  0  0  0  0  0
    1.9876   -1.2186    0.0000 O   0  0  0  0  0  0  0  0  0  0  0  0
  3  2  1  0
  5  2  1  0
  6  4  1  0
  7  3  1  0
  8  4  1  0
 10  5  1  0
 10  6  1  0
 10  7  1  0
 11  7  1  0
 11  8  1  0
 11  9  1  0
 11 10  1  0
 12  8  2  0
 13  9  2  0
 14  1  1  0
 14  9  1  0
M  END
>  <NAME>  (6742) 
METHYL 4-OXOTRICYCLO(4.3.0.0(1,5))NONANE-5-CARBOXYLATE

>  <SYNONYMS>  (6742) 


>  <SPECTRUM TYPE>  (6742) 
MS1

>  <INSTRUMENT TYPE>  (6742) 
EI-B

>  <INSTRUMENT>  (6742) 
HITACHI RMU-6L

>  <ION MODE>  (6742) 
P

>  <INCHIKEY>  (6742) 
JHOMMICRSSKRMH-UHFFFAOYSA-N

>  <FORMULA>  (6742) 
C11H14O3

>  <EXACT MASS>  (6742) 
194.094294308

>  <MW>  (6742) 
194

>  <ID>  (6742) 
JP001151

>  <CONTRIBUTOR>  (6742) 
University of Tokyo Team, {Faculty of Engineering, University of Tokyo

>  <COMMENT>  (6742) 
SMILES=COC(=O)C(C(=O)2)(C31)C(CCC3)(CC2)1
InChI=InChI=1S/C11H14O3/c1-14-9(13)11-7-3-2-5-10(7,11)6-4-8(11)12/h7H,2-6H2,1H3
computed SMILES=O=C(OC)C12C(=O)CCC32CCCC13
accession=JP001151
date=2016.01.19 (Created 2008.10.21, modified 2011.05.06)
author=NAKAYAMA M, MASS SPECTROSCOPY SOC. OF JAPAN (MSSJ)
license=CC BY-NC-SA
exact mass=194.09429
ionization energy=70 eV
ion type=[M]+*
computed spectral entropy=3.573509179167279
computed normalized entropy=0.8877507988661356
SPLASH=splash10-03dl-8900000000-d1435e053228702ed3ea
submitter=submitter = University of Tokyo Team (Faculty of Engineering, University of Tokyo)
MoNA Rating=3.75

>  <NUM PEAKS>  (6742) 
56

>  <MASS SPECTRAL PEAKS>  (6742) 
40 5
41 21
42 5
43 9
44 5
50 7
51 16
52 11
53 16
54 4
55 21
56 3
59 12
60 3
65 13
66 10
67 12
68 4
77 32
78 17
79 37
80 7
91 47
92 23
93 78
94 12
95 8
105 14
106 20
107 21
108 8
109 4
119 8
120 9
121 8
122 4
133 10
134 25
135 28
136 4
137 8
138 7
139 3
151 7
152 48
153 8
154 4
161 4
162 99.99
163 43
164 4
165 3
166 36
167 4
194 10
195 3

$$$$

     RDKit          2D

 14 14  0  0  0  0  0  0  0  0999 V2000
   -3.0352    3.4078    0.0000 C   0  0  0  0  0  0  0  0  0  0  0  0
    7.7187    0.9378    0.0000 C   0  0  0  0  0  0  0  0  0  0  0  0
    8.4320    2.2529    0.0000 C   0  0  0  0  0  0  0  0  0  0  0  0
    6.2336    1.2423    0.0000 C   0  0  0  0  0  0  0  0  0  0  0  0
    7.4201    3.3468    0.0000 C   0  0  0  0  0  0  0  0  0  0  0  0
    4.7587    3.4706    0.0000 C   0  0  0  0  0  0  0  0  0  0  0  0
    3.4658    2.7101    0.0000 C   0  0  0  0  0  0  0  0  0  0  0  0
    0.8678    2.6892    0.0000 C   0  0  0  0  0  0  0  0  0  0  0  0
    6.0638    2.7310    0.0000 C   0  0  0  0  0  0  0  0  0  0  0  0
    2.1607    3.4496    0.0000 C   0  0  0  0  0  0  0  0  0  0  0  0
   -0.4373    3.4287    0.0000 C   0  0  0  0  0  0  0  0  0  0  0  0
    2.1486    4.9496    0.0000 O   0  0  0  0  0  0  0  0  0  0  0  0
   -0.4493    4.9286    0.0000 O   0  0  0  0  0  0  0  0  0  0  0  0
   -1.7302    2.6682    0.0000 O   0  0  0  0  0  0  0  0  0  0  0  0
  3  2  1  0
  4  2  1  0
  5  3  1  0
  7  6  1  0
  9  4  2  0
  9  5  1  0
  9  6  1  0
 10  7  1  0
 10  8  1  0
 11  8  1  0
 12 10  2  0
 13 11  2  0
 14  1  1  0
 14 11  1  0
M  END
>  <NAME>  (6743) 
METHYL 3-OXO-5-(1-CYCLOPENTENYL)PENTANOATE

>  <SYNONYMS>  (6743) 


>  <SPECTRUM TYPE>  (6743) 
MS1

>  <INSTRUMENT TYPE>  (6743) 
EI-B

>  <INSTRUMENT>  (6743) 
HITACHI RMU-6L

>  <ION MODE>  (6743) 
P

>  <INCHIKEY>  (6743) 
XIEUINFEKFZBLX-UHFFFAOYSA-N

>  <FORMULA>  (6743) 
C11H16O3

>  <EXACT MASS>  (6743) 
196.10994437199997

>  <MW>  (6743) 
196

>  <ID>  (6743) 
JP001150

>  <CONTRIBUTOR>  (6743) 
University of Tokyo Team, {Faculty of Engineering, University of Tokyo

>  <COMMENT>  (6743) 
SMILES=COC(=O)CC(=O)CCC(C1)=CCC1
InChI=InChI=1S/C11H16O3/c1-14-11(13)8-10(12)7-6-9-4-2-3-5-9/h4H,2-3,5-8H2,1H3
computed SMILES=O=C(OC)CC(=O)CCC1=CCCC1
accession=JP001150
date=2016.01.19 (Created 2008.10.21, modified 2011.05.06)
author=NAKAYAMA M, MASS SPECTROSCOPY SOC. OF JAPAN (MSSJ)
license=CC BY-NC-SA
exact mass=196.10994
ionization energy=70 eV
ion type=[M]+*
computed spectral entropy=3.6389013172659217
computed normalized entropy=0.8086789406359144
SPLASH=splash10-003v-9200000000-9cace6806cdfca6bb200
submitter=submitter = University of Tokyo Team (Faculty of Engineering, University of Tokyo)
MoNA Rating=3.75

>  <NUM PEAKS>  (6743) 
90

>  <MASS SPECTRAL PEAKS>  (6743) 
39 49
40 10
41 58
42 15
43 28
44 3
45 3
46 1
47 1
50 3
51 10
52 8
53 31
54 5
55 26
56 3
57 9
59 34
60 1
61 1
62 1
63 3
64 1
65 16
66 14
67 34
68 4
69 49
70 1
71 2
74 9
75 3
77 26
78 9
79 99.99
80 97
81 49
82 3
83 1
84 6
85 3
91 16
92 3
93 16
94 70
95 80
96 8
97 1
98 1
101 24
102 1
103 2
104 5
105 10
106 2
107 4
108 5
109 2
115 1
116 7
117 5
118 5
119 8
120 1
121 5
122 60
123 24
124 3
127 1
129 1
133 1
134 1
135 2
136 4
137 2
138 1
146 1
147 1
148 1
149 1
153 1
159 1
163 1
164 4
165 3
178 26
179 3
184 1
196 17
197 3

$$$$

     RDKit          2D

  7  7  0  0  0  0  0  0  0  0999 V2000
    1.7166   -1.1990    0.0000 C   0  0  0  0  0  0  0  0  0  0  0  0
    2.6877   -0.0610    0.0000 C   0  0  0  0  0  0  0  0  0  0  0  0
    0.3272   -0.5925    0.0000 C   0  0  0  0  0  0  0  0  0  0  0  0
    1.9254    1.2193    0.0000 C   0  0  0  0  0  0  0  0  0  0  0  0
   -0.6521    1.8937    0.0000 C   0  0  0  0  0  0  0  0  0  0  0  0
    0.4707    0.8991    0.0000 C   0  0  0  0  0  0  0  0  0  0  0  0
   -2.0749    1.4187    0.0000 O   0  0  0  0  0  0  0  0  0  0  0  0
  2  1  1  0
  3  1  1  0
  4  2  1  0
  6  3  2  0
  6  4  1  0
  6  5  1  0
  7  5  1  0
M  END
>  <NAME>  (6744) 
1-CYCLOPENTENYLMETHANOL

>  <SYNONYMS>  (6744) 
1-HYDROXYMETHYLCYCLOPENTENE

>  <SPECTRUM TYPE>  (6744) 
MS1

>  <INSTRUMENT TYPE>  (6744) 
EI-B

>  <INSTRUMENT>  (6744) 
HITACHI RMU-6L

>  <ION MODE>  (6744) 
P

>  <INCHIKEY>  (6744) 
WJDFLCXFDSYKID-UHFFFAOYSA-N

>  <FORMULA>  (6744) 
C6H10O

>  <EXACT MASS>  (6744) 
98.07316494

>  <MW>  (6744) 
98

>  <ID>  (6744) 
JP001149

>  <CONTRIBUTOR>  (6744) 
University of Tokyo Team, {Faculty of Engineering, University of Tokyo

>  <COMMENT>  (6744) 
SMILES=OCC(C1)=C([H])CC1
InChI=InChI=1S/C6H10O/c7-5-6-3-1-2-4-6/h3,7H,1-2,4-5H2
computed SMILES=OCC1=CCCC1
accession=JP001149
date=2016.01.19 (Created 2008.10.21, modified 2011.05.06)
author=NAKAYAMA M, MASS SPECTROSCOPY SOC. OF JAPAN (MSSJ)
license=CC BY-NC-SA
exact mass=98.07316
ionization energy=70 eV
ion type=[M]+*
computed spectral entropy=3.148769105852046
computed normalized entropy=0.8479084421395089
SPLASH=splash10-05ur-9000000000-01038d9e4c8274665893
submitter=submitter = University of Tokyo Team (Faculty of Engineering, University of Tokyo)
MoNA Rating=3.75

>  <NUM PEAKS>  (6744) 
41

>  <MASS SPECTRAL PEAKS>  (6744) 
30 15
31 85
32 23
33 5
41 5
42 10
43 3
48 3
49 3
50 10
51 15
52 10
53 18
54 8
55 23
56 8
57 63
58 5
61 3
62 5
63 6
64 3
65 19
66 18
67 99.99
68 10
69 25
70 86
71 6
77 15
78 5
79 21
80 28
81 6
83 26
85 3
95 3
96 2
97 16
98 64
99 6

$$$$

     RDKit          2D

 16 17  0  0  1  0  0  0  0  0999 V2000
   -2.6522   -0.4131    0.0000 C   0  0  0  0  0  0  0  0  0  0  0  0
    6.8373   -2.7383    0.0000 C   0  0  0  0  0  0  0  0  0  0  0  0
    2.3003   -0.0018    0.0000 C   0  0  0  0  0  0  0  0  0  0  0  0
    0.0167    0.2381    0.0000 C   0  0  0  0  0  0  0  0  0  0  0  0
   -2.9987   -4.2801    0.0000 C   0  0  0  0  0  0  0  0  0  0  0  0
   -3.6066   -2.9130    0.0000 C   0  0  0  0  0  0  0  0  0  0  0  0
   -1.5108   -4.1230    0.0000 C   0  0  0  0  0  0  0  0  0  0  0  0
    4.2530   -2.4708    0.0000 C   0  0  0  0  0  0  0  0  0  0  0  0
    2.8837   -3.0830    0.0000 C   0  0  0  0  0  0  0  0  0  0  0  0
   -2.4933   -1.9046    0.0000 C   0  0  0  0  0  0  0  0  0  0  0  0
    5.4679   -3.3506    0.0000 C   0  0  0  0  0  0  0  0  0  0  0  0
   -1.1942   -2.6546    0.0000 C   0  0  0  0  0  0  0  0  0  0  0  0
    1.6688   -2.2032    0.0000 C   0  0  0  0  0  0  0  0  0  0  0  0
    0.1770   -2.0465    0.0000 C   0  0  0  0  0  0  0  0  0  0  0  0
    1.0577   -0.8419    0.0000 C   0  0  0  0  0  0  0  0  0  0  0  0
    5.3135   -4.8426    0.0000 O   0  0  0  0  0  0  0  0  0  0  0  0
  6  5  1  0
  7  5  1  0
  9  8  1  0
 10  1  2  0
 10  6  1  0
 11  2  1  0
 11  8  1  0
 12  7  2  0
 12 10  1  0
 13  9  1  1
 14 12  1  1
 14 13  1  0
 15  3  1  0
 15  4  1  0
 15 13  1  0
 15 14  1  0
 16 11  2  0
M  END
>  <NAME>  (6745) 
TAYLORIONE

>  <SYNONYMS>  (6745) 
1,10-SECOAROMADENDRA1(5),4(15)-DIEN-10-ONE

>  <SPECTRUM TYPE>  (6745) 
MS1

>  <INSTRUMENT TYPE>  (6745) 
EI-B

>  <INSTRUMENT>  (6745) 
HITACHI RMU-6L

>  <ION MODE>  (6745) 
P

>  <INCHIKEY>  (6745) 
CDXNKWAMDXZEKB-UONOGXRCSA-N

>  <FORMULA>  (6745) 
C15H22O

>  <EXACT MASS>  (6745) 
218.167065324

>  <MW>  (6745) 
218

>  <ID>  (6745) 
JP001148

>  <CONTRIBUTOR>  (6745) 
University of Tokyo Team, {Faculty of Engineering, University of Tokyo

>  <COMMENT>  (6745) 
SMILES=CC(=O)CCC([H])(C(C)(C)1)C([H])(C(=C([H])2)C(=C)CC2)1
InChI=InChI=1S/C15H22O/c1-10-6-5-7-12(10)14-13(15(14,3)4)9-8-11(2)16/h7,13-14H,1,5-6,8-9H2,2-4H3/t13-,14+/m0/s1
computed SMILES=O=C(C)CCC1C(C2=CCCC2=C)C1(C)C
accession=JP001148
date=2016.01.19 (Created 2008.10.21, modified 2011.05.06)
author=NAKAYAMA M, MASS SPECTROSCOPY SOC. OF JAPAN (MSSJ)
license=CC BY-NC-SA
exact mass=218.16707
ionization energy=70 eV
ion type=[M]+*
computed spectral entropy=3.9992066306902365
computed normalized entropy=0.8229137871867146
SPLASH=splash10-0007-7900000000-df0d4a57657b47e23247
submitter=submitter = University of Tokyo Team (Faculty of Engineering, University of Tokyo)
MoNA Rating=3.75

>  <NUM PEAKS>  (6745) 
129

>  <MASS SPECTRAL PEAKS>  (6745) 
38 1.5
39 22
40 4
41 41
42 3
43 99.99
44 3
45 2
50 2
51 3
52 4
53 16
54 2
55 21
56 2
57 2
58 2
59 2
62 1
63 4
64 2
65 14
66 3
67 10
68 1
69 9
70 1
71 5
72 1
73 1
75 1
76 1
77 22
78 8
79 18
80 5
81 10
82 2
83 2
84 1
85 2
88 1
89 2
90 1
91 46
92 12
93 18
94 4
95 7
96 1
97 2
98 1
99 1
101 1
102 2
103 7
104 5
105 41
106 9
107 8.5
108 2
109 4
110 1
111 1
113 2
114 1
115 11
116 6
117 28
118 9
119 23
120 6
121 5
122 1
123 3
124 1
125 3
126 1
127 2
128 5
129 7
130 6
131 19
132 10
133 15
134 3
135 2
136 1
137 1
139 3
140 1
141 1
142 1
143 5
144 3
145 83
146 16
147 54
148 9
149 1
150 1
155 1
156 1
157 3
158 2
159 7
160 40
161 13
162 2
163 1
171 1
172 1
173 1
174 2
175 13
176 2
177 1
185 6
186 1
189 1
190 1
200 2
201 1
203 5
204 1
205 2
218 19
219 3.5
220 1

$$$$

     RDKit          2D

 16 17  0  0  0  0  0  0  0  0999 V2000
   -8.2996    0.3125    0.0000 C   0  0  0  0  0  0  0  0  0  0  0  0
   -3.1344   -0.8676    0.0000 C   0  0  0  0  0  0  0  0  0  0  0  0
   -0.8903   -0.3812    0.0000 C   0  0  0  0  0  0  0  0  0  0  0  0
    0.5651    4.8409    0.0000 C   0  0  0  0  0  0  0  0  0  0  0  0
   -0.8106    4.2380    0.0000 C   0  0  0  0  0  0  0  0  0  0  0  0
    1.5649    3.7325    0.0000 C   0  0  0  0  0  0  0  0  0  0  0  0
   -5.7613    0.8667    0.0000 C   0  0  0  0  0  0  0  0  0  0  0  0
   -4.6522    1.8766    0.0000 C   0  0  0  0  0  0  0  0  0  0  0  0
   -7.1904    1.3224    0.0000 C   0  0  0  0  0  0  0  0  0  0  0  0
   -0.6449    2.7451    0.0000 C   0  0  0  0  0  0  0  0  0  0  0  0
   -3.2230    1.4209    0.0000 C   0  0  0  0  0  0  0  0  0  0  0  0
    0.8149    2.4335    0.0000 C   0  0  0  0  0  0  0  0  0  0  0  0
   -1.7571    1.7386    0.0000 C   0  0  0  0  0  0  0  0  0  0  0  0
   -2.2168    0.3191    0.0000 C   0  0  0  0  0  0  0  0  0  0  0  0
   -7.5104    2.7878    0.0000 O   0  0  0  0  0  0  0  0  0  0  0  0
    1.4244    1.0629    0.0000 O   0  0  0  0  0  0  0  0  0  0  0  0
  5  4  1  0
  6  4  1  0
  8  7  1  0
  9  1  1  0
  9  7  1  0
 10  5  2  0
 11  8  1  0
 12  6  1  0
 12 10  1  0
 13 10  1  0
 13 11  1  0
 14  2  1  0
 14  3  1  0
 14 11  1  0
 14 13  1  0
 15  9  1  0
 16 12  2  0
M  END
>  <NAME>  (6746) 
2-(3-(3-HYDROXYBUTYL)-2,2-DIMETHYLCYCLOPROPYL)CYCLOPENT-2-ENE-1-ONE

>  <SYNONYMS>  (6746) 


>  <SPECTRUM TYPE>  (6746) 
MS1

>  <INSTRUMENT TYPE>  (6746) 
EI-B

>  <INSTRUMENT>  (6746) 
HITACHI RMU-6L

>  <ION MODE>  (6746) 
P

>  <INCHIKEY>  (6746) 
IOUIEWFXKAZFEN-UHFFFAOYSA-N

>  <FORMULA>  (6746) 
C14H22O2

>  <EXACT MASS>  (6746) 
222.161979944

>  <MW>  (6746) 
222

>  <ID>  (6746) 
JP001147

>  <CONTRIBUTOR>  (6746) 
University of Tokyo Team, {Faculty of Engineering, University of Tokyo

>  <COMMENT>  (6746) 
SMILES=CC(O)CCC(C(C)(C)1)C(C(=C2)C(=O)CC2)1
InChI=InChI=1S/C14H22O2/c1-9(15)7-8-11-13(14(11,2)3)10-5-4-6-12(10)16/h5,9,11,13,15H,4,6-8H2,1-3H3
computed SMILES=O=C1C(=CCC1)C2C(CCC(O)C)C2(C)C
accession=JP001147
license=CC BY-NC-SA
date=2016.01.19 (Created 2008.10.21, modified 2011.05.06)
author=NAKAYAMA M, MASS SPECTROSCOPY SOC. OF JAPAN (MSSJ)
exact mass=222.16198
ionization energy=70 eV
ion type=[M]+*
computed spectral entropy=3.9441548207520754
computed normalized entropy=0.8701750125308756
SPLASH=splash10-052f-9800000000-04e9f3d9181f631b8df9
submitter=submitter = University of Tokyo Team (Faculty of Engineering, University of Tokyo)
MoNA Rating=3.75

>  <NUM PEAKS>  (6746) 
93

>  <MASS SPECTRAL PEAKS>  (6746) 
40 4.7
41 68.6
42 9.3
43 99.99
44 2.4
45 48.2
51 11.4
52 4.3
53 17.6
54 1.6
55 57.6
56 2.7
57 12.1
59 3.9
61 2.4
63 2.4
65 16
66 4.3
67 17.6
68 5.4
69 39.6
70 2
71 8.2
73 3.1
77 41.2
78 11.8
79 36.9
80 5
81 15.7
82 4.7
83 6.3
85 5
91 64.3
92 16.5
93 25.7
94 5
95 16.9
96 9.8
97 9
99 4.7
103 3.1
104 2
105 44.3
106 38.8
107 87.5
108 12.9
109 22.3
111 3.9
115 2.4
117 7.8
118 4.3
119 53.3
120 28.2
121 37.6
122 6.3
123 12.2
124 1.6
125 2
129 3.1
130 1
131 11
132 2
133 34.5
134 12.9
135 19.2
136 7.5
137 13.3
139 1
143 1.6
145 3.1
146 2
147 31.4
148 21.6
149 16.7
150 4.7
151 2.7
161 23.9
162 35.3
163 11.2
164 7.8
165 5
171 2
175 6.7
176 2
177 1.6
179 23.5
180 2.4
189 8.2
203 1
204 9
205 1.6
222 3.5
223 0.5

$$$$

     RDKit          2D

 16 17  0  0  0  0  0  0  0  0999 V2000
    3.8989   -1.5002    0.0000 C   0  0  0  0  0  0  0  0  0  0  0  0
   -5.1981    0.7504    0.0000 C   0  0  0  0  0  0  0  0  0  0  0  0
    2.5990   -3.7500    0.0000 C   0  0  0  0  0  0  0  0  0  0  0  0
   -2.6000   -0.7500    0.0000 C   0  0  0  0  0  0  0  0  0  0  0  0
   -1.3000   -1.5000    0.0000 C   0  0  0  0  0  0  0  0  0  0  0  0
   -1.3000    1.5000    0.0000 C   0  0  0  0  0  0  0  0  0  0  0  0
    2.6000   -0.7500    0.0000 C   0  0  0  0  0  0  0  0  0  0  0  0
   -2.6000    0.7500    0.0000 C   0  0  0  0  0  0  0  0  0  0  0  0
    0.0000   -0.7500    0.0000 C   0  0  0  0  0  0  0  0  0  0  0  0
    0.0000    0.7500    0.0000 C   0  0  0  0  0  0  0  0  0  0  0  0
    1.3000   -1.5000    0.0000 C   0  0  0  0  0  0  0  0  0  0  0  0
    2.6000    0.7500    0.0000 C   0  0  0  0  0  0  0  0  0  0  0  0
    3.8989    1.5002    0.0000 O   0  0  0  0  0  0  0  0  0  0  0  0
   -3.8989    1.5002    0.0000 O   0  0  0  0  0  0  0  0  0  0  0  0
    1.3000   -3.0000    0.0000 O   0  0  0  0  0  0  0  0  0  0  0  0
    1.3000    1.5000    0.0000 O   0  0  0  0  0  0  0  0  0  0  0  0
  5  4  2  0
  7  1  1  0
  8  4  1  0
  8  6  2  0
  9  5  1  0
 10  6  1  0
 10  9  2  0
 11  7  2  0
 11  9  1  0
 12  7  1  0
 13 12  2  0
 14  2  1  0
 14  8  1  0
 15  3  1  0
 15 11  1  0
 16 10  1  0
 16 12  1  0
M  END
>  <NAME>  (6747) 
4,7-DIMETHOXY-3-METHYLCOUMARIN

>  <SYNONYMS>  (6747) 


>  <SPECTRUM TYPE>  (6747) 
MS1

>  <INSTRUMENT TYPE>  (6747) 
EI-B

>  <INSTRUMENT>  (6747) 
HITACHI RMU-7L

>  <ION MODE>  (6747) 
P

>  <INCHIKEY>  (6747) 
RTHGEQXOKQQJIL-UHFFFAOYSA-N

>  <FORMULA>  (6747) 
C12H12O4

>  <EXACT MASS>  (6747) 
220.073558864

>  <MW>  (6747) 
220

>  <ID>  (6747) 
JP001142

>  <CONTRIBUTOR>  (6747) 
University of Tokyo Team, {Faculty of Engineering, University of Tokyo

>  <COMMENT>  (6747) 
SMILES=COc(c2)cc(O1)c(c2)C(OC)=C(C)C(=O)1
InChI=InChI=1S/C12H12O4/c1-7-11(15-3)9-5-4-8(14-2)6-10(9)16-12(7)13/h4-6H,1-3H3
computed SMILES=O=C1OC=2C=C(OC)C=CC2C(OC)=C1C
accession=JP001142
date=2016.01.19 (Created 2008.10.21, modified 2011.05.06)
author=NAKAYAMA M, MASS SPECTROSCOPY SOC. OF JAPAN (MSSJ)
license=CC BY-NC-SA
exact mass=220.07356
ionization energy=70 eV
ion type=[M]+*
computed spectral entropy=2.9933098399111095
computed normalized entropy=0.7613027940501708
SPLASH=splash10-00di-2890000000-8d531b97bdd75c41d177
submitter=submitter = University of Tokyo Team (Faculty of Engineering, University of Tokyo)
MoNA Rating=3.75

>  <NUM PEAKS>  (6747) 
51

>  <MASS SPECTRAL PEAKS>  (6747) 
17 1.4
18 4.1
27 1.9
28 1.4
32 1
39 3.3
43 4.6
51 3.7
55 1.4
63 4.7
65 3.3
75 1.4
76 1.9
77 2.8
78 1.9
79 2.3
89 2.8
90 2.8
91 3.3
92 1.4
106 1.9
110 1.4
121 7
133 2.8
134 1.4
135 2.4
145 1.9
147 3.7
148 1.9
149 1.4
150 1.4
151 10.7
161 3.3
162 4.2
163 1.9
175 2.3
176 1.9
177 50.5
178 5.6
189 1
190 9.3
191 14.5
192 23.4
193 3.3
202 2.8
205 21.5
206 3.3
219 10.7
220 99.99
221 18.7
222 3.7

$$$$

     RDKit          2D

 15 16  0  0  0  0  0  0  0  0999 V2000
    3.8989   -1.5002    0.0000 C   0  0  0  0  0  0  0  0  0  0  0  0
   -5.1981    0.7504    0.0000 C   0  0  0  0  0  0  0  0  0  0  0  0
   -2.6000   -0.7500    0.0000 C   0  0  0  0  0  0  0  0  0  0  0  0
   -1.3000   -1.5000    0.0000 C   0  0  0  0  0  0  0  0  0  0  0  0
   -1.3000    1.5000    0.0000 C   0  0  0  0  0  0  0  0  0  0  0  0
    2.6000   -0.7500    0.0000 C   0  0  0  0  0  0  0  0  0  0  0  0
   -2.6000    0.7500    0.0000 C   0  0  0  0  0  0  0  0  0  0  0  0
    0.0000   -0.7500    0.0000 C   0  0  0  0  0  0  0  0  0  0  0  0
    0.0000    0.7500    0.0000 C   0  0  0  0  0  0  0  0  0  0  0  0
    1.3000   -1.5000    0.0000 C   0  0  0  0  0  0  0  0  0  0  0  0
    2.6000    0.7500    0.0000 C   0  0  0  0  0  0  0  0  0  0  0  0
    1.3000   -3.0000    0.0000 O   0  0  0  0  0  0  0  0  0  0  0  0
    3.8989    1.5002    0.0000 O   0  0  0  0  0  0  0  0  0  0  0  0
   -3.8989    1.5002    0.0000 O   0  0  0  0  0  0  0  0  0  0  0  0
    1.3000    1.5000    0.0000 O   0  0  0  0  0  0  0  0  0  0  0  0
  4  3  2  0
  6  1  1  0
  7  3  1  0
  7  5  2  0
  8  4  1  0
  9  5  1  0
  9  8  2  0
 10  6  2  0
 10  8  1  0
 11  6  1  0
 12 10  1  0
 13 11  2  0
 14  2  1  0
 14  7  1  0
 15  9  1  0
 15 11  1  0
M  END
>  <NAME>  (6748) 
4-HYDROXY-7-METHOXY-3-METHYLCOUMARINE

>  <SYNONYMS>  (6748) 


>  <SPECTRUM TYPE>  (6748) 
MS1

>  <INSTRUMENT TYPE>  (6748) 
EI-B

>  <INSTRUMENT>  (6748) 
HITACHI RMU-7L

>  <ION MODE>  (6748) 
P

>  <INCHIKEY>  (6748) 
UOJHKPDAGSUGJI-UHFFFAOYSA-N

>  <FORMULA>  (6748) 
C11H10O4

>  <EXACT MASS>  (6748) 
206.0579088

>  <MW>  (6748) 
206

>  <ID>  (6748) 
JP001141

>  <CONTRIBUTOR>  (6748) 
University of Tokyo Team, {Faculty of Engineering, University of Tokyo

>  <COMMENT>  (6748) 
SMILES=COc(c2)cc(O1)c(c2)C(O)=C(C)C(=O)1
InChI=InChI=1S/C11H10O4/c1-6-10(12)8-4-3-7(14-2)5-9(8)15-11(6)13/h3-5,12H,1-2H3
computed SMILES=O=C1OC=2C=C(OC)C=CC2C(O)=C1C
accession=JP001141
date=2016.01.19 (Created 2008.10.21, modified 2011.05.06)
author=NAKAYAMA M, MASS SPECTROSCOPY SOC. OF JAPAN (MSSJ)
license=CC BY-NC-SA
exact mass=206.05791
ionization energy=70 eV
ion type=[M]+*
computed spectral entropy=2.4288911011735204
computed normalized entropy=0.6584360186844156
SPLASH=splash10-0zfr-2940000000-dcc37abe3b0441123e25
submitter=submitter = University of Tokyo Team (Faculty of Engineering, University of Tokyo)
MoNA Rating=3.75

>  <NUM PEAKS>  (6748) 
40

>  <MASS SPECTRAL PEAKS>  (6748) 
18 1.1
27 4.2
28 2.8
29 1.1
32 1.7
39 5.6
41 1.7
43 2.2
50 2.8
51 3.9
52 2.2
53 2.2
55 2.8
62 2.2
63 5.6
64 2.2
65 2.2
77 2.8
79 5.6
90 1.2
91 2.2
92 1.1
95 2.2
106 2.2
108 3.9
120 1.1
122 10.6
123 1.7
134 2.2
135 2.2
150 78.2
151 97.2
152 7.8
163 6.1
177 3.9
178 10.6
179 1.1
206 99.99
207 11.2
208 0.6

$$$$

     RDKit          2D

 14 15  0  0  0  0  0  0  0  0999 V2000
   -3.8989   -1.5002    0.0000 C   0  0  0  0  0  0  0  0  0  0  0  0
   -5.1981    0.7504    0.0000 C   0  0  0  0  0  0  0  0  0  0  0  0
    1.3000   -1.5000    0.0000 C   0  0  0  0  0  0  0  0  0  0  0  0
    2.6000   -0.7500    0.0000 C   0  0  0  0  0  0  0  0  0  0  0  0
   -1.3000   -1.5000    0.0000 C   0  0  0  0  0  0  0  0  0  0  0  0
   -1.3000    1.5000    0.0000 C   0  0  0  0  0  0  0  0  0  0  0  0
   -2.6000   -0.7500    0.0000 C   0  0  0  0  0  0  0  0  0  0  0  0
    0.0000   -0.7500    0.0000 C   0  0  0  0  0  0  0  0  0  0  0  0
   -2.6000    0.7500    0.0000 C   0  0  0  0  0  0  0  0  0  0  0  0
    0.0000    0.7500    0.0000 C   0  0  0  0  0  0  0  0  0  0  0  0
    2.6000    0.7500    0.0000 C   0  0  0  0  0  0  0  0  0  0  0  0
    3.8989    1.5002    0.0000 O   0  0  0  0  0  0  0  0  0  0  0  0
   -3.8989    1.5002    0.0000 O   0  0  0  0  0  0  0  0  0  0  0  0
    1.3000    1.5000    0.0000 O   0  0  0  0  0  0  0  0  0  0  0  0
  4  3  2  0
  7  1  1  0
  7  5  1  0
  8  3  1  0
  8  5  2  0
  9  6  1  0
  9  7  2  0
 10  6  2  0
 10  8  1  0
 11  4  1  0
 12 11  2  0
 13  2  1  0
 13  9  1  0
 14 10  1  0
 14 11  1  0
M  END
>  <NAME>  (6749) 
7-METHOXY-6-METHYLCOUMARIN

>  <SYNONYMS>  (6749) 


>  <SPECTRUM TYPE>  (6749) 
MS1

>  <INSTRUMENT TYPE>  (6749) 
EI-B

>  <INSTRUMENT>  (6749) 
HITACHI RMU-7L

>  <ION MODE>  (6749) 
P

>  <INCHIKEY>  (6749) 
XROAZTOPXRDRAO-UHFFFAOYSA-N

>  <FORMULA>  (6749) 
C11H10O3

>  <EXACT MASS>  (6749) 
190.06299417999998

>  <MW>  (6749) 
190

>  <ID>  (6749) 
JP001140

>  <CONTRIBUTOR>  (6749) 
University of Tokyo Team, {Faculty of Engineering, University of Tokyo

>  <COMMENT>  (6749) 
SMILES=COc(c1)c(C)cc(C=2)c(OC(=O)C2)1
InChI=InChI=1S/C11H10O3/c1-7-5-8-3-4-11(12)14-10(8)6-9(7)13-2/h3-6H,1-2H3
computed SMILES=O=C1OC=2C=C(OC)C(=CC2C=C1)C
ion type=[M]+*
accession=JP001140
date=2016.01.19 (Created 2008.10.21, modified 2011.05.06)
author=NAKAYAMA M, MASS SPECTROSCOPY SOC. OF JAPAN (MSSJ)
license=CC BY-NC-SA
exact mass=190.06299
ionization energy=70 eV
computed spectral entropy=3.3257773563682704
computed normalized entropy=0.7938070225709529
SPLASH=splash10-01oy-8900000000-ca2e5b9ca6816091d2db
submitter=submitter = University of Tokyo Team (Faculty of Engineering, University of Tokyo)
MoNA Rating=3.75

>  <NUM PEAKS>  (6749) 
66

>  <MASS SPECTRAL PEAKS>  (6749) 
15 5
17 1.7
18 14.4
27 6.1
28 8.8
29 5.6
31 1.1
32 1.1
38 3.3
39 16.6
40 1.1
41 14.4
43 6.1
44 1.2
50 13.3
51 32
52 8.3
53 5.5
55 5.5
57 3.9
62 7.2
63 10.5
64 2.8
65 22.1
66 1.1
67 5.5
68 1.1
69 7.2
70 1.1
74 6.1
75 3.9
76 7.2
77 21
78 4.4
79 3.3
81 1.7
82 1.1
86 1.1
87 1.7
89 8.8
90 7.2
91 30.4
92 2.8
93 1.1
101 1.1
102 5.5
103 7.2
104 2.2
105 1.7
118 2.2
119 9.9
131 8.3
132 1.1
133 1.7
134 1.1
146 1.1
147 96.1
148 11.1
159 1.7
162 99.99
163 8.8
175 5.5
189 1.1
190 70.7
191 7.7
192 0.6

$$$$

     RDKit          2D

 16 17  0  0  0  0  0  0  0  0999 V2000
   -3.8989   -1.5002    0.0000 C   0  0  0  0  0  0  0  0  0  0  0  0
   -6.4970    1.5006    0.0000 C   0  0  0  0  0  0  0  0  0  0  0  0
    1.3000   -1.5000    0.0000 C   0  0  0  0  0  0  0  0  0  0  0  0
    2.6000   -0.7500    0.0000 C   0  0  0  0  0  0  0  0  0  0  0  0
   -1.3000   -1.5000    0.0000 C   0  0  0  0  0  0  0  0  0  0  0  0
   -1.3000    1.5000    0.0000 C   0  0  0  0  0  0  0  0  0  0  0  0
   -2.6000   -0.7500    0.0000 C   0  0  0  0  0  0  0  0  0  0  0  0
   -5.1981    0.7504    0.0000 C   0  0  0  0  0  0  0  0  0  0  0  0
    0.0000   -0.7500    0.0000 C   0  0  0  0  0  0  0  0  0  0  0  0
   -2.6000    0.7500    0.0000 C   0  0  0  0  0  0  0  0  0  0  0  0
    0.0000    0.7500    0.0000 C   0  0  0  0  0  0  0  0  0  0  0  0
    2.6000    0.7500    0.0000 C   0  0  0  0  0  0  0  0  0  0  0  0
   -5.1983   -0.7496    0.0000 O   0  0  0  0  0  0  0  0  0  0  0  0
    3.8989    1.5002    0.0000 O   0  0  0  0  0  0  0  0  0  0  0  0
   -3.8989    1.5002    0.0000 O   0  0  0  0  0  0  0  0  0  0  0  0
    1.3000    1.5000    0.0000 O   0  0  0  0  0  0  0  0  0  0  0  0
  4  3  2  0
  7  1  1  0
  7  5  1  0
  8  2  1  0
  9  3  1  0
  9  5  2  0
 10  6  1  0
 10  7  2  0
 11  6  2  0
 11  9  1  0
 12  4  1  0
 13  8  2  0
 14 12  2  0
 15  8  1  0
 15 10  1  0
 16 11  1  0
 16 12  1  0
M  END
>  <NAME>  (6750) 
7-ACETOXY-6-METHYLCOUMARIN

>  <SYNONYMS>  (6750) 


>  <SPECTRUM TYPE>  (6750) 
MS1

>  <INSTRUMENT TYPE>  (6750) 
EI-B

>  <INSTRUMENT>  (6750) 
HITACHI RMU-7L

>  <ION MODE>  (6750) 
P

>  <INCHIKEY>  (6750) 
AYHSRSLMDCLHKM-UHFFFAOYSA-N

>  <FORMULA>  (6750) 
C12H10O4

>  <EXACT MASS>  (6750) 
218.0579088

>  <MW>  (6750) 
218

>  <ID>  (6750) 
JP001139

>  <CONTRIBUTOR>  (6750) 
University of Tokyo Team, {Faculty of Engineering, University of Tokyo

>  <COMMENT>  (6750) 
SMILES=CC(=O)Oc(c1)c(C)cc(C=2)c(OC(=O)C2)1
InChI=InChI=1S/C12H10O4/c1-7-5-9-3-4-12(14)16-11(9)6-10(7)15-8(2)13/h3-6H,1-2H3
computed SMILES=O=C1OC=2C=C(OC(=O)C)C(=CC2C=C1)C
accession=JP001139
date=2016.01.19 (Created 2008.10.21, modified 2011.05.06)
author=NAKAYAMA M, MASS SPECTROSCOPY SOC. OF JAPAN (MSSJ)
license=CC BY-NC-SA
exact mass=218.05791
ionization energy=70 eV
ion type=[M]+*
computed spectral entropy=2.3546653623548135
computed normalized entropy=0.7066389098161948
SPLASH=splash10-004i-4900000000-5ca6ccc237b7bb9adcce
submitter=submitter = University of Tokyo Team (Faculty of Engineering, University of Tokyo)
MoNA Rating=3.75

>  <NUM PEAKS>  (6750) 
28

>  <MASS SPECTRAL PEAKS>  (6750) 
18 1
27 1.6
28 3.6
39 5.2
41 1.5
43 38.5
50 1
51 8.3
52 2.1
53 2.6
63 2.6
64 1
65 8.3
76 2.1
77 4.2
78 1
79 1
91 10.4
119 4.7
120 1.6
147 9.9
148 47.4
149 3.2
175 3.6
176 99.99
177 10.4
218 14.1
219 2.1

$$$$

     RDKit          2D

 13 14  0  0  0  0  0  0  0  0999 V2000
   -3.8989   -1.5002    0.0000 C   0  0  0  0  0  0  0  0  0  0  0  0
    1.3000   -1.5000    0.0000 C   0  0  0  0  0  0  0  0  0  0  0  0
    2.6000   -0.7500    0.0000 C   0  0  0  0  0  0  0  0  0  0  0  0
   -1.3000   -1.5000    0.0000 C   0  0  0  0  0  0  0  0  0  0  0  0
   -1.3000    1.5000    0.0000 C   0  0  0  0  0  0  0  0  0  0  0  0
   -2.6000   -0.7500    0.0000 C   0  0  0  0  0  0  0  0  0  0  0  0
    0.0000   -0.7500    0.0000 C   0  0  0  0  0  0  0  0  0  0  0  0
   -2.6000    0.7500    0.0000 C   0  0  0  0  0  0  0  0  0  0  0  0
    0.0000    0.7500    0.0000 C   0  0  0  0  0  0  0  0  0  0  0  0
    2.6000    0.7500    0.0000 C   0  0  0  0  0  0  0  0  0  0  0  0
   -3.8989    1.5002    0.0000 O   0  0  0  0  0  0  0  0  0  0  0  0
    3.8989    1.5002    0.0000 O   0  0  0  0  0  0  0  0  0  0  0  0
    1.3000    1.5000    0.0000 O   0  0  0  0  0  0  0  0  0  0  0  0
  3  2  2  0
  6  1  1  0
  6  4  1  0
  7  2  1  0
  7  4  2  0
  8  5  1  0
  8  6  2  0
  9  5  2  0
  9  7  1  0
 10  3  1  0
 11  8  1  0
 12 10  2  0
 13  9  1  0
 13 10  1  0
M  END
>  <NAME>  (6751) 
7-HYDROXY-6-METHYLCOUMARIN

>  <SYNONYMS>  (6751) 


>  <SPECTRUM TYPE>  (6751) 
MS1

>  <INSTRUMENT TYPE>  (6751) 
EI-B

>  <INSTRUMENT>  (6751) 
HITACHI RMU-7L

>  <ION MODE>  (6751) 
P

>  <INCHIKEY>  (6751) 
QWQWBHZHRMHXOC-UHFFFAOYSA-N

>  <FORMULA>  (6751) 
C10H8O3

>  <EXACT MASS>  (6751) 
176.04734411599998

>  <MW>  (6751) 
176

>  <ID>  (6751) 
JP001138

>  <CONTRIBUTOR>  (6751) 
University of Tokyo Team, {Faculty of Engineering, University of Tokyo

>  <COMMENT>  (6751) 
SMILES=O=C(C=2)Oc(c1)c(C2)cc(C)c(O)1
InChI=InChI=1S/C10H8O3/c1-6-4-7-2-3-10(12)13-9(7)5-8(6)11/h2-5,11H,1H3
computed SMILES=O=C1OC=2C=C(O)C(=CC2C=C1)C
accession=JP001138
date=2016.01.19 (Created 2008.10.21, modified 2011.05.06)
author=NAKAYAMA M, MASS SPECTROSCOPY SOC. OF JAPAN (MSSJ)
license=CC BY-NC-SA
exact mass=176.04734
ionization energy=70 eV
ion type=[M]+*
computed spectral entropy=3.0400098011888432
computed normalized entropy=0.781127998809371
SPLASH=splash10-002b-7900000000-14647595b20b9b27acdd
submitter=submitter = University of Tokyo Team (Faculty of Engineering, University of Tokyo)
MoNA Rating=3.75

>  <NUM PEAKS>  (6751) 
49

>  <MASS SPECTRAL PEAKS>  (6751) 
17 1.5
18 13.5
26 2.3
27 7.5
28 9
29 3
32 1.5
37 1.5
38 5.3
39 18.8
40 2.3
41 4.5
42 2.3
49 1.5
50 10.5
51 33.1
52 7.5
53 5.3
55 3.1
61 1.5
62 3
63 6
65 13.5
66 3.8
76 1.5
77 7.5
78 3
79 4.6
88 3.8
89 3
90 2.3
91 18.8
92 3.8
94 1.5
103 0.8
105 0.8
106 0.8
118 1.5
119 6.8
120 6.8
130 1.5
131 3.8
147 36.1
148 64.7
149 6
175 3.8
176 99.99
177 7.5
178 0.8

$$$$

     RDKit          2D

 14 15  0  0  0  0  0  0  0  0999 V2000
    1.1801   -3.0200    0.0000 C   0  0  0  0  0  0  0  0  0  0  0  0
   -5.2881    0.7636    0.0000 C   0  0  0  0  0  0  0  0  0  0  0  0
   -2.6900   -0.7400    0.0000 C   0  0  0  0  0  0  0  0  0  0  0  0
   -1.4000   -1.5100    0.0000 C   0  0  0  0  0  0  0  0  0  0  0  0
    2.5200   -0.7600    0.0000 C   0  0  0  0  0  0  0  0  0  0  0  0
   -1.4000    1.5000    0.0000 C   0  0  0  0  0  0  0  0  0  0  0  0
    1.1900   -1.5200    0.0000 C   0  0  0  0  0  0  0  0  0  0  0  0
   -2.6900    0.7600    0.0000 C   0  0  0  0  0  0  0  0  0  0  0  0
   -0.1000   -0.7600    0.0000 C   0  0  0  0  0  0  0  0  0  0  0  0
   -0.1000    0.7600    0.0000 C   0  0  0  0  0  0  0  0  0  0  0  0
    2.5200    0.7600    0.0000 C   0  0  0  0  0  0  0  0  0  0  0  0
    3.8174    1.5129    0.0000 O   0  0  0  0  0  0  0  0  0  0  0  0
   -3.9880    1.5118    0.0000 O   0  0  0  0  0  0  0  0  0  0  0  0
    1.1900    1.5200    0.0000 O   0  0  0  0  0  0  0  0  0  0  0  0
  4  3  2  0
  7  1  1  0
  7  5  2  0
  8  3  1  0
  8  6  2  0
  9  4  1  0
  9  7  1  0
 10  6  1  0
 10  9  2  0
 11  5  1  0
 12 11  2  0
 13  2  1  0
 13  8  1  0
 14 10  1  0
 14 11  1  0
M  END
>  <NAME>  (6752) 
7-METHOXY-4-METHYLCOUMARIN

>  <SYNONYMS>  (6752) 


>  <SPECTRUM TYPE>  (6752) 
MS1

>  <INSTRUMENT TYPE>  (6752) 
EI-B

>  <INSTRUMENT>  (6752) 
HITACHI RMU-7L

>  <ION MODE>  (6752) 
P

>  <INCHIKEY>  (6752) 
UDFPKNSWSYBIHO-UHFFFAOYSA-N

>  <FORMULA>  (6752) 
C11H10O3

>  <EXACT MASS>  (6752) 
190.06299417999998

>  <MW>  (6752) 
190

>  <ID>  (6752) 
JP001137

>  <CONTRIBUTOR>  (6752) 
University of Tokyo Team, {Faculty of Engineering, University of Tokyo

>  <COMMENT>  (6752) 
SMILES=COc(c2)cc(O1)c(c2)C(C)=CC(=O)1
InChI=InChI=1S/C11H10O3/c1-7-5-11(12)14-10-6-8(13-2)3-4-9(7)10/h3-6H,1-2H3
computed SMILES=O=C1OC=2C=C(OC)C=CC2C(=C1)C
accession=JP001137
date=2016.01.19 (Created 2008.10.21, modified 2011.05.06)
author=NAKAYAMA M, MASS SPECTROSCOPY SOC. OF JAPAN (MSSJ)
license=CC BY-NC-SA
exact mass=190.06299
ionization energy=70 eV
ion type=[M]+*
computed spectral entropy=2.329955949561593
computed normalized entropy=0.6722831787844492
SPLASH=splash10-0007-1900000000-b85b901e25734ab436ef
submitter=submitter = University of Tokyo Team (Faculty of Engineering, University of Tokyo)
MoNA Rating=3.75

>  <NUM PEAKS>  (6752) 
32

>  <MASS SPECTRAL PEAKS>  (6752) 
18 4.5
28 1.8
39 3.2
41 3.2
50 2.3
51 6.3
52 1.8
62 2.3
63 2.7
64 1.8
65 7.2
77 6.8
78 0.9
80 0.9
81 0.9
89 3.2
91 11.7
92 0.9
103 2.3
118 0.9
119 3.6
131 0.9
141 2.3
146 1.4
147 73.4
148 4.1
161 9
162 62.2
163 9
190 99.99
191 14
192 0.9

$$$$

     RDKit          2D

 16 17  0  0  0  0  0  0  0  0999 V2000
    1.1801   -3.0200    0.0000 C   0  0  0  0  0  0  0  0  0  0  0  0
   -6.5861    1.5154    0.0000 C   0  0  0  0  0  0  0  0  0  0  0  0
   -2.6900   -0.7400    0.0000 C   0  0  0  0  0  0  0  0  0  0  0  0
   -1.4000   -1.5100    0.0000 C   0  0  0  0  0  0  0  0  0  0  0  0
    2.5200   -0.7600    0.0000 C   0  0  0  0  0  0  0  0  0  0  0  0
   -1.4000    1.5000    0.0000 C   0  0  0  0  0  0  0  0  0  0  0  0
    1.1900   -1.5200    0.0000 C   0  0  0  0  0  0  0  0  0  0  0  0
   -5.2881    0.7636    0.0000 C   0  0  0  0  0  0  0  0  0  0  0  0
   -2.6900    0.7600    0.0000 C   0  0  0  0  0  0  0  0  0  0  0  0
   -0.1000   -0.7600    0.0000 C   0  0  0  0  0  0  0  0  0  0  0  0
   -0.1000    0.7600    0.0000 C   0  0  0  0  0  0  0  0  0  0  0  0
    2.5200    0.7600    0.0000 C   0  0  0  0  0  0  0  0  0  0  0  0
   -5.2902   -0.7364    0.0000 O   0  0  0  0  0  0  0  0  0  0  0  0
    3.8174    1.5129    0.0000 O   0  0  0  0  0  0  0  0  0  0  0  0
   -3.9880    1.5118    0.0000 O   0  0  0  0  0  0  0  0  0  0  0  0
    1.1900    1.5200    0.0000 O   0  0  0  0  0  0  0  0  0  0  0  0
  4  3  2  0
  7  1  1  0
  7  5  2  0
  8  2  1  0
  9  3  1  0
  9  6  2  0
 10  4  1  0
 10  7  1  0
 11  6  1  0
 11 10  2  0
 12  5  1  0
 13  8  2  0
 14 12  2  0
 15  8  1  0
 15  9  1  0
 16 11  1  0
 16 12  1  0
M  END
>  <NAME>  (6753) 
7-ACETOXY-4-METHYLCOUMARIN

>  <SYNONYMS>  (6753) 


>  <SPECTRUM TYPE>  (6753) 
MS1

>  <INSTRUMENT TYPE>  (6753) 
EI-B

>  <INSTRUMENT>  (6753) 
HITACHI RMU-7L

>  <ION MODE>  (6753) 
P

>  <INCHIKEY>  (6753) 
HXVZGASCDAGAPS-UHFFFAOYSA-N

>  <FORMULA>  (6753) 
C12H10O4

>  <EXACT MASS>  (6753) 
218.0579088

>  <MW>  (6753) 
218

>  <ID>  (6753) 
JP001136

>  <CONTRIBUTOR>  (6753) 
University of Tokyo Team, {Faculty of Engineering, University of Tokyo

>  <COMMENT>  (6753) 
SMILES=CC(=O)Oc(c2)cc(O1)c(c2)C(C)=CC(=O)1
InChI=InChI=1S/C12H10O4/c1-7-5-12(14)16-11-6-9(15-8(2)13)3-4-10(7)11/h3-6H,1-2H3
computed SMILES=O=C1OC=2C=C(OC(=O)C)C=CC2C(=C1)C
accession=JP001136
date=2016.01.19 (Created 2008.10.21, modified 2011.05.06)
author=NAKAYAMA M, MASS SPECTROSCOPY SOC. OF JAPAN (MSSJ)
license=CC BY-NC-SA
exact mass=218.05791
ionization energy=70 eV
ion type=[M]+*
computed spectral entropy=2.2639748043774333
computed normalized entropy=0.6723421162513444
SPLASH=splash10-004j-2900000000-f75610fc78ca3d32dd79
submitter=submitter = University of Tokyo Team (Faculty of Engineering, University of Tokyo)
MoNA Rating=3.75

>  <NUM PEAKS>  (6753) 
29

>  <MASS SPECTRAL PEAKS>  (6753) 
15 2.9
28 2.9
32 1
39 4
42 1
43 18.3
50 2
51 2.4
52 1.5
53 1.5
63 1.5
65 6.4
76 1.5
77 2.4
89 1.5
91 8.9
103 1
105 1
119 3.5
120 3
147 14.6
148 70.8
149 7.9
175 1
176 99.99
177 11.9
178 1
218 18.3
219 2.5

$$$$

     RDKit          2D

 13 14  0  0  0  0  0  0  0  0999 V2000
    1.1801   -3.0200    0.0000 C   0  0  0  0  0  0  0  0  0  0  0  0
   -2.6900   -0.7400    0.0000 C   0  0  0  0  0  0  0  0  0  0  0  0
   -1.4000   -1.5100    0.0000 C   0  0  0  0  0  0  0  0  0  0  0  0
    2.5200   -0.7600    0.0000 C   0  0  0  0  0  0  0  0  0  0  0  0
   -1.4000    1.5000    0.0000 C   0  0  0  0  0  0  0  0  0  0  0  0
    1.1900   -1.5200    0.0000 C   0  0  0  0  0  0  0  0  0  0  0  0
   -2.6900    0.7600    0.0000 C   0  0  0  0  0  0  0  0  0  0  0  0
   -0.1000   -0.7600    0.0000 C   0  0  0  0  0  0  0  0  0  0  0  0
   -0.1000    0.7600    0.0000 C   0  0  0  0  0  0  0  0  0  0  0  0
    2.5200    0.7600    0.0000 C   0  0  0  0  0  0  0  0  0  0  0  0
   -3.9880    1.5118    0.0000 O   0  0  0  0  0  0  0  0  0  0  0  0
    3.8174    1.5129    0.0000 O   0  0  0  0  0  0  0  0  0  0  0  0
    1.1900    1.5200    0.0000 O   0  0  0  0  0  0  0  0  0  0  0  0
  3  2  2  0
  6  1  1  0
  6  4  2  0
  7  2  1  0
  7  5  2  0
  8  3  1  0
  8  6  1  0
  9  5  1  0
  9  8  2  0
 10  4  1  0
 11  7  1  0
 12 10  2  0
 13  9  1  0
 13 10  1  0
M  END
>  <NAME>  (6754) 
7-HYDROXY-4-METHYLCOUMARIN

>  <SYNONYMS>  (6754) 


>  <SPECTRUM TYPE>  (6754) 
MS1

>  <INSTRUMENT TYPE>  (6754) 
EI-B

>  <INSTRUMENT>  (6754) 
HITACHI RMU-7L

>  <ION MODE>  (6754) 
P

>  <INCHIKEY>  (6754) 
HSHNITRMYYLLCV-UHFFFAOYSA-N

>  <FORMULA>  (6754) 
C10H8O3

>  <EXACT MASS>  (6754) 
176.04734411599998

>  <MW>  (6754) 
176

>  <ID>  (6754) 
JP001135

>  <CONTRIBUTOR>  (6754) 
University of Tokyo Team, {Faculty of Engineering, University of Tokyo

>  <COMMENT>  (6754) 
SMILES=Oc(c2)cc(O1)c(c2)C(C)=CC(=O)1
InChI=InChI=1S/C10H8O3/c1-6-4-10(12)13-9-5-7(11)2-3-8(6)9/h2-5,11H,1H3
computed SMILES=O=C1OC=2C=C(O)C=CC2C(=C1)C
accession=JP001135
date=2016.01.19 (Created 2008.10.21, modified 2011.05.06)
author=NAKAYAMA M, MASS SPECTROSCOPY SOC. OF JAPAN (MSSJ)
license=CC BY-NC-SA
exact mass=176.04734
ionization energy=70 eV
ion type=[M]+*
computed spectral entropy=2.6068736335546747
computed normalized entropy=0.701985470250535
SPLASH=splash10-002b-3900000000-9efd3962e332f4fe7d26
submitter=submitter = University of Tokyo Team (Faculty of Engineering, University of Tokyo)
MoNA Rating=3.75

>  <NUM PEAKS>  (6754) 
41

>  <MASS SPECTRAL PEAKS>  (6754) 
17 2.2
18 9.4
26 1.3
27 3.5
32 1.3
39 9
41 1.7
43 2.2
50 4.3
51 8.6
52 3
53 2.6
55 1.7
61 1.3
62 2.6
63 6
64 1.3
65 8.6
66 1
67 1
75 3
77 4.3
78 2.2
79 2.2
89 1.7
90 1.3
91 12
92 1
94 1.3
102 1
105 1.3
118 1
119 5.6
120 9.4
131 1.3
147 44.6
148 72.5
149 8.6
176 99.99
177 11.2
178 0.8

$$$$

     RDKit          2D

 13 14  0  0  0  0  0  0  0  0999 V2000
   -5.1981    0.5004    0.0000 C   0  0  0  0  0  0  0  0  0  0  0  0
   -1.3000   -1.7500    0.0000 C   0  0  0  0  0  0  0  0  0  0  0  0
    1.3000   -1.7500    0.0000 C   0  0  0  0  0  0  0  0  0  0  0  0
   -2.6000   -1.0000    0.0000 C   0  0  0  0  0  0  0  0  0  0  0  0
    2.6000   -1.0000    0.0000 C   0  0  0  0  0  0  0  0  0  0  0  0
   -1.3000    1.2500    0.0000 C   0  0  0  0  0  0  0  0  0  0  0  0
    0.0000   -1.0000    0.0000 C   0  0  0  0  0  0  0  0  0  0  0  0
   -2.6000    0.5000    0.0000 C   0  0  0  0  0  0  0  0  0  0  0  0
    0.0000    0.5000    0.0000 C   0  0  0  0  0  0  0  0  0  0  0  0
    2.6000    0.5000    0.0000 C   0  0  0  0  0  0  0  0  0  0  0  0
    3.8989    1.2502    0.0000 O   0  0  0  0  0  0  0  0  0  0  0  0
   -3.8989    1.2502    0.0000 O   0  0  0  0  0  0  0  0  0  0  0  0
    1.3000    1.2500    0.0000 O   0  0  0  0  0  0  0  0  0  0  0  0
  4  2  2  0
  5  3  2  0
  7  2  1  0
  7  3  1  0
  8  4  1  0
  8  6  2  0
  9  6  1  0
  9  7  2  0
 10  5  1  0
 11 10  2  0
 12  1  1  0
 12  8  1  0
 13  9  1  0
 13 10  1  0
M  END
>  <NAME>  (6755) 
7-METHOXYCOUMARIN

>  <SYNONYMS>  (6755) 


>  <SPECTRUM TYPE>  (6755) 
MS1

>  <INSTRUMENT TYPE>  (6755) 
EI-B

>  <INSTRUMENT>  (6755) 
HITACHI RMU-7L

>  <ION MODE>  (6755) 
P

>  <INCHIKEY>  (6755) 
LIIALPBMIOVAHH-UHFFFAOYSA-N

>  <FORMULA>  (6755) 
C10H8O3

>  <EXACT MASS>  (6755) 
176.04734411599998

>  <MW>  (6755) 
176

>  <ID>  (6755) 
JP001134

>  <CONTRIBUTOR>  (6755) 
University of Tokyo Team, {Faculty of Engineering, University of Tokyo

>  <COMMENT>  (6755) 
SMILES=COc(c1)cc(O2)c(C=CC(=O)2)c1
InChI=InChI=1S/C10H8O3/c1-12-8-4-2-7-3-5-10(11)13-9(7)6-8/h2-6H,1H3
computed SMILES=O=C1OC=2C=C(OC)C=CC2C=C1
accession=JP001134
date=2016.01.19 (Created 2008.10.21, modified 2011.05.06)
author=NAKAYAMA M, MASS SPECTROSCOPY SOC. OF JAPAN (MSSJ)
license=CC BY-NC-SA
exact mass=176.04734
ionization energy=70 eV
ion type=[M]+*
computed spectral entropy=2.7954932664077803
computed normalized entropy=0.7343685640426846
SPLASH=splash10-005a-5900000000-a51cb4413d70fe3ecdcc
submitter=submitter = University of Tokyo Team (Faculty of Engineering, University of Tokyo)
MoNA Rating=3.75

>  <NUM PEAKS>  (6755) 
45

>  <MASS SPECTRAL PEAKS>  (6755) 
18 7
26 1.7
27 7.8
29 1.6
31 1
32 1
37 1.2
38 8.7
39 10.3
41 1.7
42 1
50 11.6
51 36.4
52 1.7
53 2.9
59 1.7
61 3.7
62 12
63 22.7
64 3.3
65 1.2
74 2.5
75 2.1
76 8.3
77 25.6
78 1.7
79 2.9
86 1.7
87 2.1
88 2.5
89 10.7
90 3.3
91 5.4
105 11.2
118 1.7
119 2.5
120 3.3
133 97.1
134 7.4
145 1.2
147 1.7
148 93.4
149 9.9
176 99.99
177 9.5

$$$$

     RDKit          2D

 12 13  0  0  0  0  0  0  0  0999 V2000
   -1.3000   -1.7500    0.0000 C   0  0  0  0  0  0  0  0  0  0  0  0
    1.3000   -1.7500    0.0000 C   0  0  0  0  0  0  0  0  0  0  0  0
   -2.6000   -1.0000    0.0000 C   0  0  0  0  0  0  0  0  0  0  0  0
    2.6000   -1.0000    0.0000 C   0  0  0  0  0  0  0  0  0  0  0  0
   -1.3000    1.2500    0.0000 C   0  0  0  0  0  0  0  0  0  0  0  0
    0.0000   -1.0000    0.0000 C   0  0  0  0  0  0  0  0  0  0  0  0
   -2.6000    0.5000    0.0000 C   0  0  0  0  0  0  0  0  0  0  0  0
    0.0000    0.5000    0.0000 C   0  0  0  0  0  0  0  0  0  0  0  0
    2.6000    0.5000    0.0000 C   0  0  0  0  0  0  0  0  0  0  0  0
   -3.8989    1.2502    0.0000 O   0  0  0  0  0  0  0  0  0  0  0  0
    3.8989    1.2502    0.0000 O   0  0  0  0  0  0  0  0  0  0  0  0
    1.3000    1.2500    0.0000 O   0  0  0  0  0  0  0  0  0  0  0  0
  3  1  2  0
  4  2  2  0
  6  1  1  0
  6  2  1  0
  7  3  1  0
  7  5  2  0
  8  5  1  0
  8  6  2  0
  9  4  1  0
 10  7  1  0
 11  9  2  0
 12  8  1  0
 12  9  1  0
M  END
>  <NAME>  (6756) 
UMBELLIFERONE

>  <SYNONYMS>  (6756) 
7-HYDROXYCOUMARIN

>  <SPECTRUM TYPE>  (6756) 
MS1

>  <INSTRUMENT TYPE>  (6756) 
EI-B

>  <INSTRUMENT>  (6756) 
HITACHI RMU-7L

>  <ION MODE>  (6756) 
P

>  <INCHIKEY>  (6756) 
ORHBXUUXSCNDEV-UHFFFAOYSA-N

>  <FORMULA>  (6756) 
C9H6O3

>  <EXACT MASS>  (6756) 
162.03169405199998

>  <MW>  (6756) 
162

>  <ID>  (6756) 
JP001133

>  <CONTRIBUTOR>  (6756) 
University of Tokyo Team, {Faculty of Engineering, University of Tokyo

>  <COMMENT>  (6756) 
SMILES=O=C(C=2)Oc(c1)c(C2)ccc(O)1
InChI=InChI=1S/C9H6O3/c10-7-3-1-6-2-4-9(11)12-8(6)5-7/h1-5,10H
computed SMILES=O=C1OC=2C=C(O)C=CC2C=C1
accession=JP001133
date=2016.01.19 (Created 2008.10.21, modified 2011.05.06)
author=NAKAYAMA M, MASS SPECTROSCOPY SOC. OF JAPAN (MSSJ)
license=CC BY-NC-SA
exact mass=162.03169
ionization energy=70 eV
ion type=[M]+*
computed spectral entropy=2.8918355990712357
computed normalized entropy=0.7949875197701862
SPLASH=splash10-03gi-9700000000-61b0cf13acd34fc7ef62
submitter=submitter = University of Tokyo Team (Faculty of Engineering, University of Tokyo)
MoNA Rating=3.75

>  <NUM PEAKS>  (6756) 
38

>  <MASS SPECTRAL PEAKS>  (6756) 
17 1.3
18 3.8
27 5.1
28 9.1
29 3.8
31 1.3
37 2.6
38 14.1
39 14.1
41 2.6
42 2.6
49 2.6
50 14.1
51 33.3
52 14.1
53 6.4
55 3.8
61 5.1
62 12.8
63 20.5
64 3.8
65 10.3
66 1.3
67 25.6
74 1.3
77 23.1
78 42.3
79 1.3
80 1.3
87 1.3
105 28.2
106 7.7
108 1.3
133 3.8
134 91
135 6.4
162 99.99
163 6.4

$$$$

     RDKit          2D

 11 12  0  0  0  0  0  0  0  0999 V2000
   -2.9400   -0.8900    0.0000 C   0  0  0  0  0  0  0  0  0  0  0  0
   -2.9400    0.6100    0.0000 C   0  0  0  0  0  0  0  0  0  0  0  0
   -1.6400   -1.6400    0.0000 C   0  0  0  0  0  0  0  0  0  0  0  0
   -1.6400    1.3700    0.0000 C   0  0  0  0  0  0  0  0  0  0  0  0
    0.9500   -1.6200    0.0000 C   0  0  0  0  0  0  0  0  0  0  0  0
    2.2300   -0.8800    0.0000 C   0  0  0  0  0  0  0  0  0  0  0  0
   -0.3600   -0.8700    0.0000 C   0  0  0  0  0  0  0  0  0  0  0  0
   -0.3600    0.5900    0.0000 C   0  0  0  0  0  0  0  0  0  0  0  0
    2.2300    0.6000    0.0000 C   0  0  0  0  0  0  0  0  0  0  0  0
    3.5314    1.3458    0.0000 O   0  0  0  0  0  0  0  0  0  0  0  0
    0.9500    1.3500    0.0000 O   0  0  0  0  0  0  0  0  0  0  0  0
  2  1  2  0
  3  1  1  0
  4  2  1  0
  6  5  2  0
  7  3  2  0
  7  5  1  0
  8  4  2  0
  8  7  1  0
  9  6  1  0
 10  9  2  0
 11  8  1  0
 11  9  1  0
M  END
>  <NAME>  (6757) 
COUMARIN

>  <SYNONYMS>  (6757) 


>  <SPECTRUM TYPE>  (6757) 
MS1

>  <INSTRUMENT TYPE>  (6757) 
EI-B

>  <INSTRUMENT>  (6757) 
HITACHI RMU-7L

>  <ION MODE>  (6757) 
P

>  <INCHIKEY>  (6757) 
ZYGHJZDHTFUPRJ-UHFFFAOYSA-N

>  <FORMULA>  (6757) 
C9H6O2

>  <EXACT MASS>  (6757) 
146.036779432

>  <MW>  (6757) 
146

>  <ID>  (6757) 
JP001132

>  <CONTRIBUTOR>  (6757) 
University of Tokyo Team, {Faculty of Engineering, University of Tokyo

>  <COMMENT>  (6757) 
SMILES=O=C(C=1)Oc(c2)c(ccc2)C1
InChI=InChI=1S/C9H6O2/c10-9-6-5-7-3-1-2-4-8(7)11-9/h1-6H
computed SMILES=O=C1OC=2C=CC=CC2C=C1
accession=JP001132
date=2016.01.19 (Created 2008.10.21, modified 2011.05.06)
author=NAKAYAMA M, MASS SPECTROSCOPY SOC. OF JAPAN (MSSJ)
license=CC BY-NC-SA
exact mass=146.03678
ionization energy=70 eV
ion type=[M]+*
computed spectral entropy=2.535542745762815
computed normalized entropy=0.7383669754072266
SPLASH=splash10-00kb-8900000000-89e86d11a0dc2841af42
submitter=submitter = University of Tokyo Team (Faculty of Engineering, University of Tokyo)
MoNA Rating=3.75

>  <NUM PEAKS>  (6757) 
31

>  <MASS SPECTRAL PEAKS>  (6757) 
17 2.3
18 8.1
26 1.7
27 4.7
31 2.3
32 1.2
37 2.3
38 9.3
39 14.5
49 1.2
50 7
51 8.1
53 1.2
59 7
61 4.1
62 10.5
63 26.7
64 8.1
74 1.2
75 2.3
76 1.2
86 1.7
87 1.7
89 27.3
90 37.8
91 2.9
92 2.3
118 88.9
119 6.4
146 99.99
147 11.1

$$$$

     RDKit          2D

 25 28  0  0  0  0  0  0  0  0999 V2000
    4.0772    0.4897    0.0000 C   0  0  0  0  0  0  0  0  0  0  0  0
    3.1127    2.1596    0.0000 C   0  0  0  0  0  0  0  0  0  0  0  0
   -2.6000    0.7500    0.0000 C   0  0  0  0  0  0  0  0  0  0  0  0
   -1.3000    1.5000    0.0000 C   0  0  0  0  0  0  0  0  0  0  0  0
    1.3000   -1.5000    0.0000 C   0  0  0  0  0  0  0  0  0  0  0  0
    2.6000   -0.7500    0.0000 C   0  0  0  0  0  0  0  0  0  0  0  0
   -1.3000   -1.5000    0.0000 C   0  0  0  0  0  0  0  0  0  0  0  0
   -6.4975   -6.0044    0.0000 C   0  0  0  0  0  0  0  0  0  0  0  0
   -7.7968   -3.7540    0.0000 C   0  0  0  0  0  0  0  0  0  0  0  0
   -5.1982   -0.7506    0.0000 C   0  0  0  0  0  0  0  0  0  0  0  0
   -2.6000   -0.7500    0.0000 C   0  0  0  0  0  0  0  0  0  0  0  0
    0.0000   -0.7500    0.0000 C   0  0  0  0  0  0  0  0  0  0  0  0
   -7.7968   -5.2548    0.0000 C   0  0  0  0  0  0  0  0  0  0  0  0
   -3.8989   -1.5002    0.0000 C   0  0  0  0  0  0  0  0  0  0  0  0
   -5.1982   -5.2531    0.0000 C   0  0  0  0  0  0  0  0  0  0  0  0
    0.0000    0.7500    0.0000 C   0  0  0  0  0  0  0  0  0  0  0  0
   -6.4975   -3.0027    0.0000 C   0  0  0  0  0  0  0  0  0  0  0  0
   -5.1982   -3.7523    0.0000 C   0  0  0  0  0  0  0  0  0  0  0  0
   -3.8989   -3.0010    0.0000 C   0  0  0  0  0  0  0  0  0  0  0  0
    2.6000    0.7500    0.0000 C   0  0  0  0  0  0  0  0  0  0  0  0
   -9.0957   -6.0050    0.0000 O   0  0  0  0  0  0  0  0  0  0  0  0
   -3.8989   -6.0027    0.0000 O   0  0  0  0  0  0  0  0  0  0  0  0
   -2.5996   -3.7506    0.0000 O   0  0  0  0  0  0  0  0  0  0  0  0
   -6.4975   -1.5019    0.0000 O   0  0  0  0  0  0  0  0  0  0  0  0
    1.3000    1.5000    0.0000 O   0  0  0  0  0  0  0  0  0  0  0  0
  4  3  2  0
  6  5  1  0
 11  3  1  0
 11  7  2  0
 12  5  1  0
 12  7  1  0
 13  8  2  0
 13  9  1  0
 14 10  2  0
 14 11  1  0
 15  8  1  0
 16  4  1  0
 16 12  2  0
 17  9  2  0
 18 15  2  0
 18 17  1  0
 19 14  1  0
 19 18  1  0
 20  1  1  0
 20  2  1  0
 20  6  1  0
 21 13  1  0
 22 15  1  0
 23 19  2  0
 24 10  1  0
 24 17  1  0
 25 16  1  0
 25 20  1  0
M  END
>  <NAME>  (6758) 
2',3'-DIHYDRO-5,7-DIHYDROXY-2',2'-DIMETHYL-3,6'-BI(4H-1-BENZOPYRAN)-4-ONE

>  <SYNONYMS>  (6758) 


>  <SPECTRUM TYPE>  (6758) 
MS1

>  <INSTRUMENT TYPE>  (6758) 
EI-B

>  <INSTRUMENT>  (6758) 
HITACHI RMS-4

>  <ION MODE>  (6758) 
P

>  <INCHIKEY>  (6758) 
VEFSEOVEILGQAE-UHFFFAOYSA-N

>  <FORMULA>  (6758) 
C20H18O5

>  <EXACT MASS>  (6758) 
338.115423676

>  <MW>  (6758) 
338

>  <ID>  (6758) 
JP001124

>  <CONTRIBUTOR>  (6758) 
University of Tokyo Team, {Faculty of Engineering, University of Tokyo

>  <COMMENT>  (6758) 
SMILES=Oc(c4)cc(O3)c(c(O)4)C(=O)C(=C([H])3)c(c2)cc(C1)c(c2)OC(C)(C)C1
InChI=InChI=1S/C20H18O5/c1-20(2)6-5-12-7-11(3-4-16(12)25-20)14-10-24-17-9-13(21)8-15(22)18(17)19(14)23/h3-4,7-10,21-22H,5-6H2,1-2H3
computed SMILES=O=C1C(=COC=2C=C(O)C=C(O)C12)C=3C=CC=4OC(C)(C)CCC4C3
accession=JP001124
date=2016.01.19 (Created 2008.10.21, modified 2011.05.06)
author=NAKAYAMA M, MASS SPECTROSCOPY SOC. OF JAPAN (MSSJ)
license=CC BY-NC-SA
exact mass=338.11542
ionization energy=70 eV
ion type=[M]+*
computed spectral entropy=4.0624292590280024
computed normalized entropy=0.898412030948864
SPLASH=splash10-0ugi-9221000000-8a0aac3e99d246bb8407
submitter=submitter = University of Tokyo Team (Faculty of Engineering, University of Tokyo)
MoNA Rating=3.75

>  <NUM PEAKS>  (6758) 
92

>  <MASS SPECTRAL PEAKS>  (6758) 
41 68
42 13
43 33
44 8
45 8
47 8
48 8
49 18
50 89
51 75
52 62
53 18
54 8
55 25
56 15
57 15
58 8
61 8
62 10
63 30
64 8
65 15
67 9
68 8
69 15
70 5
71 5
73 8
74 22
75 12
76 31
77 68
78 90
79 31
80 4
81 9
82 6
83 7
85 6
89 6
91 15
92 7
93 9
95 6
96 6
102 6
103 5
104 11
105 11
107 5
109 10
115 10
117 10
119 9
121 6
122 5
123 6
127 6
128 6
129 6
131 11
133 8
139 11
141 10
149 48
150 10
152 10
153 17
154 5
155 5
169 5
205 12
223 8
253 30
254 13
255 11
265 5
269 14
281 5
282 39
283 78
284 18
295 14
296 7
306 6
309 15
310 6
321 8
323 16
337 8
338 99.99
339 25

$$$$

     RDKit          2D

 25 27  0  0  0  0  0  0  0  0999 V2000
    7.7970   -8.2502    0.0000 C   0  0  0  0  0  0  0  0  0  0  0  0
    5.1989   -8.2502    0.0000 C   0  0  0  0  0  0  0  0  0  0  0  0
    6.4980   -6.0002    0.0000 C   0  0  0  0  0  0  0  0  0  0  0  0
    5.1989   -5.2502    0.0000 C   0  0  0  0  0  0  0  0  0  0  0  0
    5.1989   -0.7502    0.0000 C   0  0  0  0  0  0  0  0  0  0  0  0
    6.4989   -1.5002    0.0000 C   0  0  0  0  0  0  0  0  0  0  0  0
    3.8989   -3.0002    0.0000 C   0  0  0  0  0  0  0  0  0  0  0  0
   -2.6000   -0.7500    0.0000 C   0  0  0  0  0  0  0  0  0  0  0  0
   -1.3000    1.5000    0.0000 C   0  0  0  0  0  0  0  0  0  0  0  0
    2.6000    0.7500    0.0000 C   0  0  0  0  0  0  0  0  0  0  0  0
    6.4980   -7.5002    0.0000 C   0  0  0  0  0  0  0  0  0  0  0  0
    3.8989   -1.5002    0.0000 C   0  0  0  0  0  0  0  0  0  0  0  0
    5.1989   -3.7502    0.0000 C   0  0  0  0  0  0  0  0  0  0  0  0
   -2.6000    0.7500    0.0000 C   0  0  0  0  0  0  0  0  0  0  0  0
    2.6000   -0.7500    0.0000 C   0  0  0  0  0  0  0  0  0  0  0  0
    6.4989   -3.0002    0.0000 C   0  0  0  0  0  0  0  0  0  0  0  0
   -1.3000   -1.5000    0.0000 C   0  0  0  0  0  0  0  0  0  0  0  0
    0.0000    0.7500    0.0000 C   0  0  0  0  0  0  0  0  0  0  0  0
    0.0000   -0.7500    0.0000 C   0  0  0  0  0  0  0  0  0  0  0  0
    1.3000   -1.5000    0.0000 C   0  0  0  0  0  0  0  0  0  0  0  0
   -3.8989    1.5002    0.0000 O   0  0  0  0  0  0  0  0  0  0  0  0
    7.7978   -3.7504    0.0000 O   0  0  0  0  0  0  0  0  0  0  0  0
   -1.3000   -3.0000    0.0000 O   0  0  0  0  0  0  0  0  0  0  0  0
    1.3000   -3.0000    0.0000 O   0  0  0  0  0  0  0  0  0  0  0  0
    1.3000    1.5000    0.0000 O   0  0  0  0  0  0  0  0  0  0  0  0
  4  3  1  0
  6  5  2  0
 11  1  1  0
 11  2  1  0
 11  3  2  0
 12  5  1  0
 12  7  2  0
 13  4  1  0
 13  7  1  0
 14  8  2  0
 14  9  1  0
 15 10  2  0
 15 12  1  0
 16  6  1  0
 16 13  2  0
 17  8  1  0
 18  9  2  0
 19 17  2  0
 19 18  1  0
 20 15  1  0
 20 19  1  0
 21 14  1  0
 22 16  1  0
 23 17  1  0
 24 20  2  0
 25 10  1  0
 25 18  1  0
M  END
>  <NAME>  (6759) 
4',5,7-TRIHYDROXY-3'-(3-METHYL-2-BUTENYL)ISOFLAVONE

>  <SYNONYMS>  (6759) 


>  <SPECTRUM TYPE>  (6759) 
MS1

>  <INSTRUMENT TYPE>  (6759) 
EI-B

>  <INSTRUMENT>  (6759) 
HITACHI RMS-4

>  <ION MODE>  (6759) 
P

>  <INCHIKEY>  (6759) 
SWDSVBNAMCDHTF-UHFFFAOYSA-N

>  <FORMULA>  (6759) 
C20H18O5

>  <EXACT MASS>  (6759) 
338.115423676

>  <MW>  (6759) 
338

>  <ID>  (6759) 
JP001123

>  <CONTRIBUTOR>  (6759) 
University of Tokyo Team, {Faculty of Engineering, University of Tokyo

>  <COMMENT>  (6759) 
SMILES=CC(C)=CCc(c(O)3)cc(cc3)C(=C1)C(=O)c(c(O)2)c(cc(O)c2)O1
InChI=InChI=1S/C20H18O5/c1-11(2)3-4-13-7-12(5-6-16(13)22)15-10-25-18-9-14(21)8-17(23)19(18)20(15)24/h3,5-10,21-23H,4H2,1-2H3
computed SMILES=O=C1C(=COC=2C=C(O)C=C(O)C12)C=3C=CC(O)=C(C3)CC=C(C)C
accession=JP001123
date=2016.01.19 (Created 2008.10.21, modified 2011.05.06)
author=NAKAYAMA M, MASS SPECTROSCOPY SOC. OF JAPAN (MSSJ)
license=CC BY-NC-SA
exact mass=338.11542
ionization energy=70 eV
ion type=[M]+*
computed spectral entropy=3.99508601344511
computed normalized entropy=0.9372240301136712
SPLASH=splash10-0uel-9653000000-9e7c1c95ff1fcbcaec3b
submitter=submitter = University of Tokyo Team (Faculty of Engineering, University of Tokyo)
MoNA Rating=3.75

>  <NUM PEAKS>  (6759) 
71

>  <MASS SPECTRAL PEAKS>  (6759) 
41 35
42 12
43 48
45 12
50 20
51 23
52 14
53 17
55 30
57 23
63 15
65 15
69 26
71 12
76 12
77 33
78 21
79 12
81 12
83 12
89 9
91 15
93 9
95 9
96 15
97 9
102 9
103 13
104 9
105 13
107 9
108 9
109 9
111 9
115 25
123 9
124 21
127 9
128 15
131 17
133 9
139 13
141 15
152 21
153 63
154 11
155 9
165 8
169 7
181 8
185 7
197 8
253 40
254 19
255 15
269 13
270 8
282 20
283 93
284 19
295 25
296 11
297 8
305 7
309 20
321 10
323 23
337 11
338 99.99
339 25
340 5

$$$$

     RDKit          2D

 31 35  0  0  0  0  0  0  0  0999 V2000
    4.0772    0.4897    0.0000 C   0  0  0  0  0  0  0  0  0  0  0  0
    3.1127    2.1596    0.0000 C   0  0  0  0  0  0  0  0  0  0  0  0
  -15.5937    5.2512    0.0000 C   0  0  0  0  0  0  0  0  0  0  0  0
  -15.5945    3.7504    0.0000 C   0  0  0  0  0  0  0  0  0  0  0  0
  -14.2941    6.0019    0.0000 C   0  0  0  0  0  0  0  0  0  0  0  0
  -14.2956    3.0002    0.0000 C   0  0  0  0  0  0  0  0  0  0  0  0
  -12.9952    5.2517    0.0000 C   0  0  0  0  0  0  0  0  0  0  0  0
   -1.3000   -1.5000    0.0000 C   0  0  0  0  0  0  0  0  0  0  0  0
   -2.6000   -0.7500    0.0000 C   0  0  0  0  0  0  0  0  0  0  0  0
   -9.0989    1.5002    0.0000 C   0  0  0  0  0  0  0  0  0  0  0  0
   -7.7989    0.7502    0.0000 C   0  0  0  0  0  0  0  0  0  0  0  0
    1.3000   -1.5000    0.0000 C   0  0  0  0  0  0  0  0  0  0  0  0
    2.6000   -0.7500    0.0000 C   0  0  0  0  0  0  0  0  0  0  0  0
   -1.3000    1.5000    0.0000 C   0  0  0  0  0  0  0  0  0  0  0  0
   -7.7989    3.7502    0.0000 C   0  0  0  0  0  0  0  0  0  0  0  0
  -11.6970    3.0006    0.0000 C   0  0  0  0  0  0  0  0  0  0  0  0
   -3.8989    3.0002    0.0000 C   0  0  0  0  0  0  0  0  0  0  0  0
  -12.9959    3.7508    0.0000 C   0  0  0  0  0  0  0  0  0  0  0  0
    0.0000   -0.7500    0.0000 C   0  0  0  0  0  0  0  0  0  0  0  0
   -2.6000    0.7500    0.0000 C   0  0  0  0  0  0  0  0  0  0  0  0
   -9.0989    3.0002    0.0000 C   0  0  0  0  0  0  0  0  0  0  0  0
   -6.4989    1.5002    0.0000 C   0  0  0  0  0  0  0  0  0  0  0  0
   -3.8989    1.5002    0.0000 C   0  0  0  0  0  0  0  0  0  0  0  0
    0.0000    0.7500    0.0000 C   0  0  0  0  0  0  0  0  0  0  0  0
   -6.4989    3.0002    0.0000 C   0  0  0  0  0  0  0  0  0  0  0  0
   -5.1989    0.7502    0.0000 C   0  0  0  0  0  0  0  0  0  0  0  0
    2.6000    0.7500    0.0000 C   0  0  0  0  0  0  0  0  0  0  0  0
   -5.1989   -0.7498    0.0000 O   0  0  0  0  0  0  0  0  0  0  0  0
  -10.3978    3.7504    0.0000 O   0  0  0  0  0  0  0  0  0  0  0  0
   -5.1989    3.7502    0.0000 O   0  0  0  0  0  0  0  0  0  0  0  0
    1.3000    1.5000    0.0000 O   0  0  0  0  0  0  0  0  0  0  0  0
  4  3  2  0
  5  3  1  0
  6  4  1  0
  7  5  2  0
  9  8  2  0
 11 10  2  0
 13 12  1  0
 18  6  2  0
 18  7  1  0
 18 16  1  0
 19  8  1  0
 19 12  1  0
 20  9  1  0
 20 14  2  0
 21 10  1  0
 21 15  2  0
 22 11  1  0
 23 17  2  0
 23 20  1  0
 24 14  1  0
 24 19  2  0
 25 15  1  0
 25 22  2  0
 26 22  1  0
 26 23  1  0
 27  1  1  0
 27  2  1  0
 27 13  1  0
 28 26  2  0
 29 16  1  0
 29 21  1  0
 30 17  1  0
 30 25  1  0
 31 24  1  0
 31 27  1  0
M  END
>  <NAME>  (6760) 
7-BENZYLOXY-2',3'-DIHYDRO-2',2'-DIMETHYL-O,6'-BI(4H-1-BENZOPYRAN)-4-ONE

>  <SYNONYMS>  (6760) 
7-BENZYLOXYISONEOBAVAISOFLAVONE

>  <SPECTRUM TYPE>  (6760) 
MS1

>  <INSTRUMENT TYPE>  (6760) 
EI-B

>  <INSTRUMENT>  (6760) 
HITACHI RMS-4

>  <ION MODE>  (6760) 
P

>  <INCHIKEY>  (6760) 
NVODLKVRPZHUMH-UHFFFAOYSA-N

>  <FORMULA>  (6760) 
C27H24O4

>  <EXACT MASS>  (6760) 
412.167459248

>  <MW>  (6760) 
412

>  <ID>  (6760) 
JP001122

>  <CONTRIBUTOR>  (6760) 
University of Tokyo Team, {Faculty of Engineering, University of Tokyo

>  <COMMENT>  (6760) 
SMILES=c(c23)cc(cc(OC=C(c(c4)cc(O5)c(CCC5(C)C)c4)C3=O)2)OCc(c1)cccc1
InChI=InChI=1S/C27H24O4/c1-27(2)13-12-19-8-9-20(14-24(19)31-27)23-17-30-25-15-21(10-11-22(25)26(23)28)29-16-18-6-4-3-5-7-18/h3-11,14-15,17H,12-13,16H2,1-2H3
computed SMILES=O=C1C(=COC2=CC(OCC=3C=CC=CC3)=CC=C21)C=4C=CC5=C(OC(C)(C)CC5)C4
accession=JP001122
date=2016.01.19 (Created 2008.10.21, modified 2011.05.06)
author=NAKAYAMA M, MASS SPECTROSCOPY SOC. OF JAPAN (MSSJ)
license=CC BY-NC-SA
exact mass=412.16746
ion type=[M]+*
ionization energy=70 eV
computed spectral entropy=2.7362114213532287
computed normalized entropy=0.7106770192752947
SPLASH=splash10-01ox-9112400000-ef581d6354699d377bb8
submitter=submitter = University of Tokyo Team (Faculty of Engineering, University of Tokyo)
MoNA Rating=3.75

>  <NUM PEAKS>  (6760) 
47

>  <MASS SPECTRAL PEAKS>  (6760) 
51 1.2
55 1.7
63 2.9
65 8.3
69 2.9
77 2.1
79 1.2
89 1.2
91 99.99
92 9.9
102 1
103 1
107 1.7
115 2.5
119 1.7
131 2.5
137 1.7
149 1.7
151 1.2
152 3.3
153 1.7
165 1.2
181 1.2
209 1.7
210 1.2
227 1.2
237 2.5
238 2.3
253 2.9
265 4.1
266 5.8
267 2.1
279 1.7
321 6.6
322 2.1
356 2.1
357 10.4
358 3.3
369 2.9
383 5
384 1.7
395 2.5
397 3.3
411 2.5
412 43.5
413 15.7
414 2.5

$$$$

     RDKit          2D

 24 27  0  0  0  0  0  0  0  0999 V2000
    4.0772    0.4897    0.0000 C   0  0  0  0  0  0  0  0  0  0  0  0
    3.1127    2.1596    0.0000 C   0  0  0  0  0  0  0  0  0  0  0  0
   -2.6000    0.7500    0.0000 C   0  0  0  0  0  0  0  0  0  0  0  0
   -6.4975   -6.0044    0.0000 C   0  0  0  0  0  0  0  0  0  0  0  0
   -5.1982   -5.2531    0.0000 C   0  0  0  0  0  0  0  0  0  0  0  0
   -1.3000    1.5000    0.0000 C   0  0  0  0  0  0  0  0  0  0  0  0
    1.3000   -1.5000    0.0000 C   0  0  0  0  0  0  0  0  0  0  0  0
    2.6000   -0.7500    0.0000 C   0  0  0  0  0  0  0  0  0  0  0  0
   -1.3000   -1.5000    0.0000 C   0  0  0  0  0  0  0  0  0  0  0  0
   -7.7968   -3.7540    0.0000 C   0  0  0  0  0  0  0  0  0  0  0  0
   -5.1982   -0.7506    0.0000 C   0  0  0  0  0  0  0  0  0  0  0  0
   -2.6000   -0.7500    0.0000 C   0  0  0  0  0  0  0  0  0  0  0  0
    0.0000   -0.7500    0.0000 C   0  0  0  0  0  0  0  0  0  0  0  0
   -7.7968   -5.2548    0.0000 C   0  0  0  0  0  0  0  0  0  0  0  0
   -5.1982   -3.7523    0.0000 C   0  0  0  0  0  0  0  0  0  0  0  0
   -3.8989   -1.5002    0.0000 C   0  0  0  0  0  0  0  0  0  0  0  0
    0.0000    0.7500    0.0000 C   0  0  0  0  0  0  0  0  0  0  0  0
   -6.4975   -3.0027    0.0000 C   0  0  0  0  0  0  0  0  0  0  0  0
   -3.8989   -3.0010    0.0000 C   0  0  0  0  0  0  0  0  0  0  0  0
    2.6000    0.7500    0.0000 C   0  0  0  0  0  0  0  0  0  0  0  0
   -9.0957   -6.0050    0.0000 O   0  0  0  0  0  0  0  0  0  0  0  0
   -2.5996   -3.7506    0.0000 O   0  0  0  0  0  0  0  0  0  0  0  0
   -6.4975   -1.5019    0.0000 O   0  0  0  0  0  0  0  0  0  0  0  0
    1.3000    1.5000    0.0000 O   0  0  0  0  0  0  0  0  0  0  0  0
  5  4  2  0
  6  3  2  0
  8  7  1  0
 12  3  1  0
 12  9  2  0
 13  7  1  0
 13  9  1  0
 14  4  1  0
 14 10  2  0
 15  5  1  0
 16 11  2  0
 16 12  1  0
 17  6  1  0
 17 13  2  0
 18 10  1  0
 18 15  2  0
 19 15  1  0
 19 16  1  0
 20  1  1  0
 20  2  1  0
 20  8  1  0
 21 14  1  0
 22 19  2  0
 23 11  1  0
 23 18  1  0
 24 17  1  0
 24 20  1  0
M  END
>  <NAME>  (6761) 
ISONEOBAVAISOFLAVONE

>  <SYNONYMS>  (6761) 
2',3'-DIHYDRO-7-HYDROXY-2',2'-DIMETHYL-3,6'-BI(4H-1-BENZOPYRAN)-4-ONE

>  <SPECTRUM TYPE>  (6761) 
MS1

>  <INSTRUMENT TYPE>  (6761) 
EI-B

>  <INSTRUMENT>  (6761) 
HITACHI RMU-7L

>  <ION MODE>  (6761) 
P

>  <INCHIKEY>  (6761) 
XYQGRDVFZGPOQG-UHFFFAOYSA-N

>  <FORMULA>  (6761) 
C20H18O4

>  <EXACT MASS>  (6761) 
322.120509056

>  <MW>  (6761) 
322

>  <ID>  (6761) 
JP001121

>  <CONTRIBUTOR>  (6761) 
University of Tokyo Team, {Faculty of Engineering, University of Tokyo

>  <COMMENT>  (6761) 
SMILES=Oc(c4)cc(O3)c(c4)C(=O)C(=C([H])3)c(c2)cc(C1)c(c2)OC(C)(C)C1
InChI=InChI=1S/C20H18O4/c1-20(2)8-7-13-9-12(3-6-17(13)24-20)16-11-23-18-10-14(21)4-5-15(18)19(16)22/h3-6,9-11,21H,7-8H2,1-2H3
computed SMILES=O=C1C2=CC=C(O)C=C2OC=C1C=3C=CC=4OC(C)(C)CCC4C3
accession=JP001121
date=2016.01.19 (Created 2008.10.21, modified 2011.05.06)
author=NAKAYAMA M, MASS SPECTROSCOPY SOC. OF JAPAN (MSSJ)
license=CC BY-NC-SA
exact mass=322.12051
ionization energy=70 eV
ion type=[M]+*
computed spectral entropy=2.148101781259516
computed normalized entropy=0.7295453553150677
SPLASH=splash10-00xr-0279000000-71d6025bffb3860e644e
submitter=submitter = University of Tokyo Team (Faculty of Engineering, University of Tokyo)
MoNA Rating=3.75

>  <NUM PEAKS>  (6761) 
19

>  <MASS SPECTRAL PEAKS>  (6761) 
63 1.1
77 1.7
95 0.8
131 6.7
137 31.7
146 1.1
237 18.3
238 3.3
239 1.7
266 6.7
267 56.7
268 11.1
279 7.2
293 10.1
305 2.8
307 11.1
321 2.8
322 99.99
323 15

$$$$

     RDKit          2D

 32 35  0  0  0  0  0  0  0  0999 V2000
    7.7970   -8.2502    0.0000 C   0  0  0  0  0  0  0  0  0  0  0  0
    5.1989   -8.2502    0.0000 C   0  0  0  0  0  0  0  0  0  0  0  0
   -9.0948    3.0010    0.0000 C   0  0  0  0  0  0  0  0  0  0  0  0
   -9.0956    1.5002    0.0000 C   0  0  0  0  0  0  0  0  0  0  0  0
   -7.7952    3.7517    0.0000 C   0  0  0  0  0  0  0  0  0  0  0  0
   -7.7966    0.7500    0.0000 C   0  0  0  0  0  0  0  0  0  0  0  0
   -6.4963    3.0015    0.0000 C   0  0  0  0  0  0  0  0  0  0  0  0
    6.4980   -6.0002    0.0000 C   0  0  0  0  0  0  0  0  0  0  0  0
    5.1989   -5.2502    0.0000 C   0  0  0  0  0  0  0  0  0  0  0  0
    5.1989   -0.7502    0.0000 C   0  0  0  0  0  0  0  0  0  0  0  0
   -2.6000   -0.7500    0.0000 C   0  0  0  0  0  0  0  0  0  0  0  0
   -1.3000   -1.5000    0.0000 C   0  0  0  0  0  0  0  0  0  0  0  0
    6.4989   -1.5002    0.0000 C   0  0  0  0  0  0  0  0  0  0  0  0
    3.8989   -3.0002    0.0000 C   0  0  0  0  0  0  0  0  0  0  0  0
   -1.3000    1.5000    0.0000 C   0  0  0  0  0  0  0  0  0  0  0  0
    2.6000    0.7500    0.0000 C   0  0  0  0  0  0  0  0  0  0  0  0
    6.4980   -7.5002    0.0000 C   0  0  0  0  0  0  0  0  0  0  0  0
   -6.4970    1.5006    0.0000 C   0  0  0  0  0  0  0  0  0  0  0  0
    3.8989   -1.5002    0.0000 C   0  0  0  0  0  0  0  0  0  0  0  0
    5.1989   -3.7502    0.0000 C   0  0  0  0  0  0  0  0  0  0  0  0
   -2.6000    0.7500    0.0000 C   0  0  0  0  0  0  0  0  0  0  0  0
    0.0000   -0.7500    0.0000 C   0  0  0  0  0  0  0  0  0  0  0  0
    2.6000   -0.7500    0.0000 C   0  0  0  0  0  0  0  0  0  0  0  0
    6.4989   -3.0002    0.0000 C   0  0  0  0  0  0  0  0  0  0  0  0
    0.0000    0.7500    0.0000 C   0  0  0  0  0  0  0  0  0  0  0  0
    1.3000   -1.5000    0.0000 C   0  0  0  0  0  0  0  0  0  0  0  0
   -5.1981    0.7504    0.0000 C   0  0  0  0  0  0  0  0  0  0  0  0
    7.7978   -3.7504    0.0000 O   0  0  0  0  0  0  0  0  0  0  0  0
    1.3000   -3.0000    0.0000 O   0  0  0  0  0  0  0  0  0  0  0  0
   -5.1983   -0.7496    0.0000 O   0  0  0  0  0  0  0  0  0  0  0  0
    1.3000    1.5000    0.0000 O   0  0  0  0  0  0  0  0  0  0  0  0
   -3.8989    1.5002    0.0000 O   0  0  0  0  0  0  0  0  0  0  0  0
  4  3  2  0
  5  3  1  0
  6  4  1  0
  7  5  2  0
  9  8  1  0
 12 11  2  0
 13 10  2  0
 17  1  1  0
 17  2  1  0
 17  8  2  0
 18  6  2  0
 18  7  1  0
 19 10  1  0
 19 14  2  0
 20  9  1  0
 20 14  1  0
 21 11  1  0
 21 15  2  0
 22 12  1  0
 23 16  2  0
 23 19  1  0
 24 13  1  0
 24 20  2  0
 25 15  1  0
 25 22  2  0
 26 22  1  0
 26 23  1  0
 27 18  1  0
 28 24  1  0
 29 26  2  0
 30 27  2  0
 31 16  1  0
 31 25  1  0
 32 21  1  0
 32 27  1  0
M  END
>  <NAME>  (6762) 
7-BENZOYLNEOBAVAISOFLAVONE

>  <SYNONYMS>  (6762) 
7-BENZOYLOXY-4'-HYDROXY-3'-(3-METHYL-2-BUTENYL)ISOFLAVONE

>  <SPECTRUM TYPE>  (6762) 
MS1

>  <INSTRUMENT TYPE>  (6762) 
EI-B

>  <INSTRUMENT>  (6762) 
HITACHI RMS-4

>  <ION MODE>  (6762) 
P

>  <INCHIKEY>  (6762) 
YCNLHISKOPZIFS-UHFFFAOYSA-N

>  <FORMULA>  (6762) 
C27H22O5

>  <EXACT MASS>  (6762) 
426.146723804

>  <MW>  (6762) 
426

>  <ID>  (6762) 
JP001120

>  <CONTRIBUTOR>  (6762) 
University of Tokyo Team, {Faculty of Engineering, University of Tokyo

>  <COMMENT>  (6762) 
SMILES=c(c(CC=C(C)C)1)c(C(=C4)C(c(c2)c(O4)cc(OC(=O)c(c3)cccc3)c2)=O)ccc1O
InChI=InChI=1S/C27H22O5/c1-17(2)8-9-20-14-19(10-13-24(20)28)23-16-31-25-15-21(11-12-22(25)26(23)29)32-27(30)18-6-4-3-5-7-18/h3-8,10-16,28H,9H2,1-2H3
computed SMILES=O=C(OC1=CC=C2C(OC=C(C2=O)C=3C=CC(O)=C(C3)CC=C(C)C)=C1)C=4C=CC=CC4
accession=JP001120
date=2016.01.19 (Created 2008.10.21, modified 2011.05.06)
author=NAKAYAMA M, MASS SPECTROSCOPY SOC. OF JAPAN (MSSJ)
license=CC BY-NC-SA
exact mass=426.14672
ionization energy=70 eV
ion type=[M]+*
computed spectral entropy=1.4936961331554197
computed normalized entropy=0.6229196704709541
SPLASH=splash10-0a4i-3900000000-8122e77fcfe721009150
submitter=submitter = University of Tokyo Team (Faculty of Engineering, University of Tokyo)
MoNA Rating=3.75

>  <NUM PEAKS>  (6762) 
11

>  <MASS SPECTRAL PEAKS>  (6762) 
51 2.7
70 6.7
77 50.6
95 2.4
105 99.99
106 10.6
133 44.3
321 0.8
371 0.8
425 3.1
426 1

$$$$

     RDKit          2D

 18 18  0  0  0  0  0  0  0  0999 V2000
    7.4125   -2.2267    0.0000 C   0  0  0  0  0  0  0  0  0  0  0  0
   -4.8347    2.0532    0.0000 C   0  0  0  0  0  0  0  0  0  0  0  0
   -6.8864    1.5142    0.0000 C   0  0  0  0  0  0  0  0  0  0  0  0
   -6.3475   -0.5375    0.0000 C   0  0  0  0  0  0  0  0  0  0  0  0
    6.1073   -1.4875    0.0000 C   0  0  0  0  0  0  0  0  0  0  0  0
    4.8145   -2.2482    0.0000 C   0  0  0  0  0  0  0  0  0  0  0  0
   -0.3987    0.7386    0.0000 C   0  0  0  0  0  0  0  0  0  0  0  0
   -1.7122   -1.4862    0.0000 C   0  0  0  0  0  0  0  0  0  0  0  0
    0.8858    0.0138    0.0000 C   0  0  0  0  0  0  0  0  0  0  0  0
   -0.3877   -2.2803    0.0000 C   0  0  0  0  0  0  0  0  0  0  0  0
    3.5093   -1.5089    0.0000 C   0  0  0  0  0  0  0  0  0  0  0  0
   -1.6977   -0.0114    0.0000 C   0  0  0  0  0  0  0  0  0  0  0  0
    0.9113   -1.5303    0.0000 C   0  0  0  0  0  0  0  0  0  0  0  0
   -2.9930    0.7450    0.0000 C   0  0  0  0  0  0  0  0  0  0  0  0
   -2.9857    2.2450    0.0000 O   0  0  0  0  0  0  0  0  0  0  0  0
    2.2165   -2.2696    0.0000 O   0  0  0  0  0  0  0  0  0  0  0  0
   -4.2958    0.0014    0.0000 O   0  0  0  0  0  0  0  0  0  0  0  0
   -5.5911    0.7578    0.0000 Si  0  0  0  0  0  4  0  0  0  0  0  0
  5  1  1  0
  6  5  1  0
  9  7  2  0
 10  8  1  0
 11  6  1  0
 12  7  1  0
 12  8  2  0
 13  9  1  0
 13 10  2  0
 14 12  1  0
 15 14  2  0
 16 11  1  0
 16 13  1  0
 17 14  1  0
 18  2  1  0
 18  3  1  0
 18  4  1  0
 18 17  1  0
M  END
>  <NAME>  (6763) 
4-BUTOXYBENZOIC ACID TRIMETHYLSILYL ESTER

>  <SYNONYMS>  (6763) 
TRIMETHYLSILYL 4-BUTOXYBENZOATE

>  <SPECTRUM TYPE>  (6763) 
MS1

>  <INSTRUMENT TYPE>  (6763) 
EI-B

>  <INSTRUMENT>  (6763) 
JEOL JMS-01-SG

>  <ION MODE>  (6763) 
P

>  <INCHIKEY>  (6763) 
SJNBPQNORONGJJ-UHFFFAOYSA-N

>  <FORMULA>  (6763) 
C14H22O3Si

>  <EXACT MASS>  (6763) 
266.133821094

>  <MW>  (6763) 
266

>  <ID>  (6763) 
JP001117

>  <CONTRIBUTOR>  (6763) 
University of Tokyo Team, {Faculty of Engineering, University of Tokyo

>  <COMMENT>  (6763) 
SMILES=CCCCOc(c1)ccc(c1)C(=O)O[Si](C)(C)C
InChI=InChI=1S/C14H22O3Si/c1-5-6-11-16-13-9-7-12(8-10-13)14(15)17-18(2,3)4/h7-10H,5-6,11H2,1-4H3
computed SMILES=O=C(O[Si](C)(C)C)C1=CC=C(OCCCC)C=C1
accession=JP001117
date=2016.01.19 (Created 2008.10.21, modified 2011.05.06)
author=KOGA M, UNIV. OF OCCUPATIONAL AND ENVIRONMENTAL HEALTH
license=CC BY-NC-SA
exact mass=266.13382
ionization energy=70 eV
ion type=[M]+*
computed spectral entropy=2.360266968975177
computed normalized entropy=0.8165963297029866
SPLASH=splash10-0002-3940000000-e57dab3b63b62ac25a37
submitter=submitter = University of Tokyo Team (Faculty of Engineering, University of Tokyo)
MoNA Rating=3.75

>  <NUM PEAKS>  (6763) 
18

>  <MASS SPECTRAL PEAKS>  (6763) 
57 3.2
65 5.8
73 14.1
75 2.32
77 18
92 5.1
93 10.3
121 4.9
122 5.1
151 34.8
177 10.9
195 99.99
196 12.9
207 34.8
208 4.5
251 7.61
252 12.9
266 22.5

$$$$

     RDKit          2D

 18 18  0  0  0  0  0  0  0  0999 V2000
   -7.7951   -1.5010    0.0000 C   0  0  0  0  0  0  0  0  0  0  0  0
    5.9472    0.2017    0.0000 C   0  0  0  0  0  0  0  0  0  0  0  0
    6.4959    2.2508    0.0000 C   0  0  0  0  0  0  0  0  0  0  0  0
    4.4468    2.7995    0.0000 C   0  0  0  0  0  0  0  0  0  0  0  0
   -6.4962   -0.7508    0.0000 C   0  0  0  0  0  0  0  0  0  0  0  0
   -5.1970   -1.5006    0.0000 C   0  0  0  0  0  0  0  0  0  0  0  0
   -3.8981   -0.7504    0.0000 C   0  0  0  0  0  0  0  0  0  0  0  0
   -2.5989   -1.5002    0.0000 C   0  0  0  0  0  0  0  0  0  0  0  0
   -1.3000    0.7500    0.0000 C   0  0  0  0  0  0  0  0  0  0  0  0
   -0.0000   -1.5000    0.0000 C   0  0  0  0  0  0  0  0  0  0  0  0
    0.0000    1.5000    0.0000 C   0  0  0  0  0  0  0  0  0  0  0  0
    1.3000   -0.7500    0.0000 C   0  0  0  0  0  0  0  0  0  0  0  0
   -1.3000   -0.7500    0.0000 C   0  0  0  0  0  0  0  0  0  0  0  0
    1.3000    0.7500    0.0000 C   0  0  0  0  0  0  0  0  0  0  0  0
    2.5989    1.5002    0.0000 C   0  0  0  0  0  0  0  0  0  0  0  0
    2.5987    3.0002    0.0000 O   0  0  0  0  0  0  0  0  0  0  0  0
    3.8981    0.7504    0.0000 O   0  0  0  0  0  0  0  0  0  0  0  0
    5.1970    1.5006    0.0000 Si  0  0  0  0  0  4  0  0  0  0  0  0
  5  1  1  0
  6  5  1  0
  7  6  1  0
  8  7  1  0
 11  9  2  0
 12 10  1  0
 13  8  1  0
 13  9  1  0
 13 10  2  0
 14 11  1  0
 14 12  2  0
 15 14  1  0
 16 15  2  0
 17 15  1  0
 18  2  1  0
 18  3  1  0
 18  4  1  0
 18 17  1  0
M  END
>  <NAME>  (6764) 
PARA-N-AMYLBENZOIC ACID TRIMETHYLSILYL ESTER

>  <SYNONYMS>  (6764) 
TRIMETHYLSILYL 4-PENTYLBENZOATE

>  <SPECTRUM TYPE>  (6764) 
MS1

>  <INSTRUMENT TYPE>  (6764) 
EI-B

>  <INSTRUMENT>  (6764) 
JEOL JMS-01-SG

>  <ION MODE>  (6764) 
P

>  <INCHIKEY>  (6764) 
JKDYEPCDZXAYSI-UHFFFAOYSA-N

>  <FORMULA>  (6764) 
C15H24O2Si

>  <EXACT MASS>  (6764) 
264.154556538

>  <MW>  (6764) 
264

>  <ID>  (6764) 
JP001116

>  <CONTRIBUTOR>  (6764) 
University of Tokyo Team, {Faculty of Engineering, University of Tokyo

>  <COMMENT>  (6764) 
SMILES=CCCCCc(c1)ccc(c1)C(=O)O[Si](C)(C)C
InChI=InChI=1S/C15H24O2Si/c1-5-6-7-8-13-9-11-14(12-10-13)15(16)17-18(2,3)4/h9-12H,5-8H2,1-4H3
computed SMILES=O=C(O[Si](C)(C)C)C1=CC=C(C=C1)CCCCC
accession=JP001116
date=2016.01.19 (Created 2008.10.21, modified 2011.05.06)
license=CC BY-NC-SA
author=KOGA M, UNIV. OF OCCUPATIONAL AND ENVIRONMENTAL HEALTH
exact mass=264.15456
ionization energy=70 eV
ion type=[M]+*
computed spectral entropy=2.054579139641583
computed normalized entropy=0.725176289301289
SPLASH=splash10-0002-3190000000-94d111fc3991dcfcb548
submitter=submitter = University of Tokyo Team (Faculty of Engineering, University of Tokyo)
MoNA Rating=3.75

>  <NUM PEAKS>  (6764) 
17

>  <MASS SPECTRAL PEAKS>  (6764) 
43 7.7
45 7.7
73 12.9
77 0.9
90 10.9
91 19.3
118 8.3
175 4.83
176 3.8
193 5.8
205 48.3
206 0.58
207 3.8
249 99.99
250 16.7
251 0.38
264 3.8

$$$$

     RDKit          2D

 17 17  0  0  0  0  0  0  0  0999 V2000
    3.5571   -1.9933    0.0000 C   0  0  0  0  0  0  0  0  0  0  0  0
    4.8566    1.7571    0.0000 C   0  0  0  0  0  0  0  0  0  0  0  0
   -3.4871    3.8057    0.0000 C   0  0  0  0  0  0  0  0  0  0  0  0
   -5.5362    3.2567    0.0000 C   0  0  0  0  0  0  0  0  0  0  0  0
   -4.9871    1.2076    0.0000 C   0  0  0  0  0  0  0  0  0  0  0  0
   -0.3405    0.2558    0.0000 C   0  0  0  0  0  0  0  0  0  0  0  0
    0.9585   -0.4942    0.0000 C   0  0  0  0  0  0  0  0  0  0  0  0
    0.9595    2.5075    0.0000 C   0  0  0  0  0  0  0  0  0  0  0  0
   -0.3400    1.7567    0.0000 C   0  0  0  0  0  0  0  0  0  0  0  0
    2.2580    0.2567    0.0000 C   0  0  0  0  0  0  0  0  0  0  0  0
    2.2585    1.7575    0.0000 C   0  0  0  0  0  0  0  0  0  0  0  0
   -1.6391    2.5067    0.0000 C   0  0  0  0  0  0  0  0  0  0  0  0
   -1.6391    4.0067    0.0000 O   0  0  0  0  0  0  0  0  0  0  0  0
    3.5571   -0.4933    0.0000 O   0  0  0  0  0  0  0  0  0  0  0  0
    3.5577    2.5073    0.0000 O   0  0  0  0  0  0  0  0  0  0  0  0
   -2.9381    1.7567    0.0000 O   0  0  0  0  0  0  0  0  0  0  0  0
   -4.2371    2.5067    0.0000 Si  0  0  0  0  0  4  0  0  0  0  0  0
  7  6  2  0
  9  6  1  0
  9  8  2  0
 10  7  1  0
 11  8  1  0
 11 10  2  0
 12  9  1  0
 13 12  2  0
 14  1  1  0
 14 10  1  0
 15  2  1  0
 15 11  1  0
 16 12  1  0
 17  3  1  0
 17  4  1  0
 17  5  1  0
 17 16  1  0
M  END
>  <NAME>  (6765) 
3,4-DIMETHOXYBENZOIC ACID TRIMETHYLSILYL ESTER

>  <SYNONYMS>  (6765) 
TRIMETHYLSILYL 3,4-DIMETHOXYBENZOATE

>  <SPECTRUM TYPE>  (6765) 
MS1

>  <INSTRUMENT TYPE>  (6765) 
EI-B

>  <INSTRUMENT>  (6765) 
JEOL JMS-01-SG

>  <ION MODE>  (6765) 
P

>  <INCHIKEY>  (6765) 
JZIXRRXJQVBHJP-UHFFFAOYSA-N

>  <FORMULA>  (6765) 
C12H18O4Si

>  <EXACT MASS>  (6765) 
254.09743558600002

>  <MW>  (6765) 
254

>  <ID>  (6765) 
JP001115

>  <CONTRIBUTOR>  (6765) 
University of Tokyo Team, {Faculty of Engineering, University of Tokyo

>  <COMMENT>  (6765) 
SMILES=COc(c1)c(OC)cc(c1)C(=O)O[Si](C)(C)C
InChI=InChI=1S/C12H18O4Si/c1-14-10-7-6-9(8-11(10)15-2)12(13)16-17(3,4)5/h6-8H,1-5H3
computed SMILES=O=C(O[Si](C)(C)C)C1=CC=C(OC)C(OC)=C1
ionization energy=70 eV
accession=JP001115
date=2016.01.19 (Created 2008.10.21, modified 2011.05.06)
author=KOGA M, UNIV. OF OCCUPATIONAL AND ENVIRONMENTAL HEALTH
license=CC BY-NC-SA
exact mass=254.09744
ion type=[M]+*
computed spectral entropy=1.9379123727241936
computed normalized entropy=0.7798733094820791
SPLASH=splash10-00kk-2950000000-d9b7cc7fdc185e89c1fa
submitter=submitter = University of Tokyo Team (Faculty of Engineering, University of Tokyo)
MoNA Rating=3.75

>  <NUM PEAKS>  (6765) 
12

>  <MASS SPECTRAL PEAKS>  (6765) 
73 11
75 14.9
77 20.1
79 0.9
137 12.3
165 90.9
195 99.99
196 1.42
239 75.9
240 11
254 35
255 6.4

$$$$

     RDKit          2D

 18 17  0  0  0  0  0  0  0  0999 V2000
   -1.3457    3.1740    0.0000 C   0  0  0  0  0  0  0  0  0  0  0  0
    0.1543    5.7721    0.0000 C   0  0  0  0  0  0  0  0  0  0  0  0
   -1.8947    5.2231    0.0000 C   0  0  0  0  0  0  0  0  0  0  0  0
   10.3457    2.4240    0.0000 C   0  0  0  0  0  0  0  0  0  0  0  0
   12.3947    2.9731    0.0000 C   0  0  0  0  0  0  0  0  0  0  0  0
   11.8457    5.0221    0.0000 C   0  0  0  0  0  0  0  0  0  0  0  0
    4.6005    4.4731    0.0000 C   0  0  0  0  0  0  0  0  0  0  0  0
    5.8995    3.7231    0.0000 C   0  0  0  0  0  0  0  0  0  0  0  0
    3.3014    3.7231    0.0000 C   0  0  0  0  0  0  0  0  0  0  0  0
    7.1986    4.4731    0.0000 C   0  0  0  0  0  0  0  0  0  0  0  0
    2.0024    4.4731    0.0000 C   0  0  0  0  0  0  0  0  0  0  0  0
    8.4976    3.7231    0.0000 C   0  0  0  0  0  0  0  0  0  0  0  0
    2.0024    5.9731    0.0000 O   0  0  0  0  0  0  0  0  0  0  0  0
    8.4976    2.2231    0.0000 O   0  0  0  0  0  0  0  0  0  0  0  0
    0.7034    3.7231    0.0000 O   0  0  0  0  0  0  0  0  0  0  0  0
    9.7966    4.4731    0.0000 O   0  0  0  0  0  0  0  0  0  0  0  0
   -0.5957    4.4731    0.0000 Si  0  0  0  0  0  4  0  0  0  0  0  0
   11.0957    3.7231    0.0000 Si  0  0  0  0  0  4  0  0  0  0  0  0
  8  7  1  0
  9  7  1  0
 10  8  1  0
 11  9  1  0
 12 10  1  0
 13 11  2  0
 14 12  2  0
 15 11  1  0
 16 12  1  0
 17  1  1  0
 17  2  1  0
 17  3  1  0
 17 15  1  0
 18  4  1  0
 18  5  1  0
 18  6  1  0
 18 16  1  0
M  END
>  <NAME>  (6766) 
HEXANEDIOIC ACID BIS(TRIMETHYLSILYL) ESTER

>  <SYNONYMS>  (6766) 
DI(TRIMETHYLSILYL) ADIPATE

>  <SPECTRUM TYPE>  (6766) 
MS1

>  <INSTRUMENT TYPE>  (6766) 
EI-B

>  <INSTRUMENT>  (6766) 
JEOL JMS-01-SG

>  <ION MODE>  (6766) 
P

>  <INCHIKEY>  (6766) 
DVGSOFSBBKDKRU-UHFFFAOYSA-N

>  <FORMULA>  (6766) 
C12H26O4Si2

>  <EXACT MASS>  (6766) 
290.13696237199997

>  <MW>  (6766) 
290

>  <ID>  (6766) 
JP001113

>  <CONTRIBUTOR>  (6766) 
University of Tokyo Team, {Faculty of Engineering, University of Tokyo

>  <COMMENT>  (6766) 
SMILES=O=C(CCCCC(=O)O[Si](C)(C)C)O[Si](C)(C)C
InChI=InChI=1S/C12H26O4Si2/c1-17(2,3)15-11(13)9-7-8-10-12(14)16-18(4,5)6/h7-10H2,1-6H3
computed SMILES=O=C(O[Si](C)(C)C)CCCCC(=O)O[Si](C)(C)C
accession=JP001113
date=2016.01.19 (Created 2008.10.21, modified 2011.05.06)
author=KOGA M, UNIV. OF OCCUPATIONAL AND ENVIRONMENTAL HEALTH
license=CC BY-NC-SA
exact mass=290.13696
ionization energy=70 eV
ion type=[M]+*
computed spectral entropy=2.5445592891293765
computed normalized entropy=0.8641915513052105
SPLASH=splash10-00fr-9410000000-04fa750756439db22706
submitter=submitter = University of Tokyo Team (Faculty of Engineering, University of Tokyo)
MoNA Rating=3.75

>  <NUM PEAKS>  (6766) 
19

>  <MASS SPECTRAL PEAKS>  (6766) 
45 9
47 12.6
55 29.7
73 99.99
74 10.6
75 68.5
83 23
111 8.93
117 15.9
129 11.3
141 44.3
147 5.38
149 12.4
159 18.1
172 20.8
185 1.68
217 10.4
275 33.9
276 5.9

$$$$

     RDKit          2D

 17 16  0  0  0  0  0  0  0  0999 V2000
   -1.4094    2.7353    0.0000 C   0  0  0  0  0  0  0  0  0  0  0  0
    0.0906    5.3334    0.0000 C   0  0  0  0  0  0  0  0  0  0  0  0
   -1.9584    4.7844    0.0000 C   0  0  0  0  0  0  0  0  0  0  0  0
   10.4829    2.7353    0.0000 C   0  0  0  0  0  0  0  0  0  0  0  0
   11.0320    4.7844    0.0000 C   0  0  0  0  0  0  0  0  0  0  0  0
    8.9829    5.3334    0.0000 C   0  0  0  0  0  0  0  0  0  0  0  0
    4.5368    4.0344    0.0000 C   0  0  0  0  0  0  0  0  0  0  0  0
    3.2377    3.2844    0.0000 C   0  0  0  0  0  0  0  0  0  0  0  0
    5.8358    3.2844    0.0000 C   0  0  0  0  0  0  0  0  0  0  0  0
    1.9387    4.0344    0.0000 C   0  0  0  0  0  0  0  0  0  0  0  0
    7.1349    4.0344    0.0000 C   0  0  0  0  0  0  0  0  0  0  0  0
    1.9387    5.5344    0.0000 O   0  0  0  0  0  0  0  0  0  0  0  0
    7.1349    5.5344    0.0000 O   0  0  0  0  0  0  0  0  0  0  0  0
    0.6397    3.2844    0.0000 O   0  0  0  0  0  0  0  0  0  0  0  0
    8.4339    3.2844    0.0000 O   0  0  0  0  0  0  0  0  0  0  0  0
   -0.6594    4.0344    0.0000 Si  0  0  0  0  0  4  0  0  0  0  0  0
    9.7329    4.0344    0.0000 Si  0  0  0  0  0  4  0  0  0  0  0  0
  8  7  1  0
  9  7  1  0
 10  8  1  0
 11  9  1  0
 12 10  2  0
 13 11  2  0
 14 10  1  0
 15 11  1  0
 16  1  1  0
 16  2  1  0
 16  3  1  0
 16 14  1  0
 17  4  1  0
 17  5  1  0
 17  6  1  0
 17 15  1  0
M  END
>  <NAME>  (6767) 
PENTANEDIOIC ACID BIS(TRIMETHYLSILYL) ESTER

>  <SYNONYMS>  (6767) 
DI(TRIMETHYLSILYL) GLUTARATE

>  <SPECTRUM TYPE>  (6767) 
MS1

>  <INSTRUMENT TYPE>  (6767) 
EI-B

>  <INSTRUMENT>  (6767) 
JEOL JMS-01-SG

>  <ION MODE>  (6767) 
P

>  <INCHIKEY>  (6767) 
UWZGPXOJVOOLSG-UHFFFAOYSA-N

>  <FORMULA>  (6767) 
C11H24O4Si2

>  <EXACT MASS>  (6767) 
276.12131230800003

>  <MW>  (6767) 
276

>  <ID>  (6767) 
JP001112

>  <CONTRIBUTOR>  (6767) 
University of Tokyo Team, {Faculty of Engineering, University of Tokyo

>  <COMMENT>  (6767) 
SMILES=O=C(CCCC(=O)O[Si](C)(C)C)O[Si](C)(C)C
InChI=InChI=1S/C11H24O4Si2/c1-16(2,3)14-10(12)8-7-9-11(13)15-17(4,5)6/h7-9H2,1-6H3
computed SMILES=O=C(O[Si](C)(C)C)CCCC(=O)O[Si](C)(C)C
accession=JP001112
date=2016.01.19 (Created 2008.10.21, modified 2011.05.06)
author=KOGA M, UNIV. OF OCCUPATIONAL AND ENVIRONMENTAL HEALTH
license=CC BY-NC-SA
exact mass=276.12131
ionization energy=70 eV
ion type=[M]+*
computed spectral entropy=2.268544430221297
computed normalized entropy=0.8182044498791361
SPLASH=splash10-0002-9820000000-c555698fdca408b9ae89
submitter=submitter = University of Tokyo Team (Faculty of Engineering, University of Tokyo)
MoNA Rating=3.75

>  <NUM PEAKS>  (6767) 
16

>  <MASS SPECTRAL PEAKS>  (6767) 
43 7.5
45 14.1
55 46.6
73 8.83
74 9.3
75 40.5
97 14.4
129 1.19
147 99.99
148 20.2
149 16.6
158 2.22
204 7.7
233 8
261 21.9
262 4.7

$$$$

     RDKit          2D

 16 15  0  0  0  0  0  0  0  0999 V2000
    2.2769   -1.6005    0.0000 C   0  0  0  0  0  0  0  0  0  0  0  0
    0.7769    0.9976    0.0000 C   0  0  0  0  0  0  0  0  0  0  0  0
    0.2279   -1.0514    0.0000 C   0  0  0  0  0  0  0  0  0  0  0  0
    7.4731    5.8995    0.0000 C   0  0  0  0  0  0  0  0  0  0  0  0
    8.0221    7.9486    0.0000 C   0  0  0  0  0  0  0  0  0  0  0  0
    5.9731    8.4976    0.0000 C   0  0  0  0  0  0  0  0  0  0  0  0
    4.1250    2.6986    0.0000 C   0  0  0  0  0  0  0  0  0  0  0  0
    4.1250    4.1986    0.0000 C   0  0  0  0  0  0  0  0  0  0  0  0
    2.8260    1.9486    0.0000 C   0  0  0  0  0  0  0  0  0  0  0  0
    5.4240    4.9486    0.0000 C   0  0  0  0  0  0  0  0  0  0  0  0
    1.5269    2.6986    0.0000 O   0  0  0  0  0  0  0  0  0  0  0  0
    6.7231    4.1986    0.0000 O   0  0  0  0  0  0  0  0  0  0  0  0
    2.8260    0.4486    0.0000 O   0  0  0  0  0  0  0  0  0  0  0  0
    5.4240    6.4486    0.0000 O   0  0  0  0  0  0  0  0  0  0  0  0
    1.5269   -0.3014    0.0000 Si  0  0  0  0  0  4  0  0  0  0  0  0
    6.7231    7.1986    0.0000 Si  0  0  0  0  0  4  0  0  0  0  0  0
  8  7  1  0
  9  7  1  0
 10  8  1  0
 11  9  2  0
 12 10  2  0
 13  9  1  0
 14 10  1  0
 15  1  1  0
 15  2  1  0
 15  3  1  0
 15 13  1  0
 16  4  1  0
 16  5  1  0
 16  6  1  0
 16 14  1  0
M  END
>  <NAME>  (6768) 
BUTANEDIOIC ACID BIS(TRIMETHYLSILYL) ESTER

>  <SYNONYMS>  (6768) 
DI(TRIMETHYLSILYL) SUCCINATE

>  <SPECTRUM TYPE>  (6768) 
MS1

>  <INSTRUMENT TYPE>  (6768) 
EI-B

>  <INSTRUMENT>  (6768) 
JEOL JMS-01-SG

>  <ION MODE>  (6768) 
P

>  <INCHIKEY>  (6768) 
QUUDZINXVRFXLB-UHFFFAOYSA-N

>  <FORMULA>  (6768) 
C10H22O4Si2

>  <EXACT MASS>  (6768) 
262.105662244

>  <MW>  (6768) 
262

>  <ID>  (6768) 
JP001111

>  <CONTRIBUTOR>  (6768) 
University of Tokyo Team, {Faculty of Engineering, University of Tokyo

>  <COMMENT>  (6768) 
SMILES=O=C(CCC(=O)O[Si](C)(C)C)O[Si](C)(C)C
InChI=InChI=1S/C10H22O4Si2/c1-15(2,3)13-9(11)7-8-10(12)14-16(4,5)6/h7-8H2,1-6H3
computed SMILES=O=C(O[Si](C)(C)C)CCC(=O)O[Si](C)(C)C
accession=JP001111
date=2016.01.19 (Created 2008.10.21, modified 2011.05.06)
author=KOGA M, UNIV. OF OCCUPATIONAL AND ENVIRONMENTAL HEALTH
license=CC BY-NC-SA
exact mass=262.10566
ionization energy=70 eV
ion type=[M]+*
computed spectral entropy=1.9729873607575883
computed normalized entropy=0.7939885230400561
SPLASH=splash10-0002-7910000000-dd633a7d4c5f6c8a6f29
submitter=submitter = University of Tokyo Team (Faculty of Engineering, University of Tokyo)
MoNA Rating=3.75

>  <NUM PEAKS>  (6768) 
12

>  <MASS SPECTRAL PEAKS>  (6768) 
45 18
55 17.5
56 13
73 1.65
74 11.6
75 44
147 99.99
148 3.64
149 19.9
172 7.1
247 21.3
248 4

$$$$

     RDKit          2D

 15 14  0  0  0  0  0  0  0  0999 V2000
   -1.2353    2.0858    0.0000 C   0  0  0  0  0  0  0  0  0  0  0  0
    0.2647    4.6839    0.0000 C   0  0  0  0  0  0  0  0  0  0  0  0
   -1.7844    4.1349    0.0000 C   0  0  0  0  0  0  0  0  0  0  0  0
    8.0589    2.0858    0.0000 C   0  0  0  0  0  0  0  0  0  0  0  0
    8.6079    4.1349    0.0000 C   0  0  0  0  0  0  0  0  0  0  0  0
    6.5589    4.6839    0.0000 C   0  0  0  0  0  0  0  0  0  0  0  0
    3.4118    2.6349    0.0000 C   0  0  0  0  0  0  0  0  0  0  0  0
    2.1127    3.3849    0.0000 C   0  0  0  0  0  0  0  0  0  0  0  0
    4.7108    3.3849    0.0000 C   0  0  0  0  0  0  0  0  0  0  0  0
    2.1127    4.8849    0.0000 O   0  0  0  0  0  0  0  0  0  0  0  0
    4.7108    4.8849    0.0000 O   0  0  0  0  0  0  0  0  0  0  0  0
    0.8137    2.6349    0.0000 O   0  0  0  0  0  0  0  0  0  0  0  0
    6.0099    2.6349    0.0000 O   0  0  0  0  0  0  0  0  0  0  0  0
   -0.4853    3.3849    0.0000 Si  0  0  0  0  0  4  0  0  0  0  0  0
    7.3089    3.3849    0.0000 Si  0  0  0  0  0  4  0  0  0  0  0  0
  8  7  1  0
  9  7  1  0
 10  8  2  0
 11  9  2  0
 12  8  1  0
 13  9  1  0
 14  1  1  0
 14  2  1  0
 14  3  1  0
 14 12  1  0
 15  4  1  0
 15  5  1  0
 15  6  1  0
 15 13  1  0
M  END
>  <NAME>  (6769) 
PROPANEDIOIC ACID BIS(TRIMETHYLSILYL) ESTER

>  <SYNONYMS>  (6769) 
DI(TRIMETHYLSILYL) MALONATE

>  <SPECTRUM TYPE>  (6769) 
MS1

>  <INSTRUMENT TYPE>  (6769) 
EI-B

>  <INSTRUMENT>  (6769) 
JEOL JMS-01-SG

>  <ION MODE>  (6769) 
P

>  <INCHIKEY>  (6769) 
ATCKJLDGNXGLAO-UHFFFAOYSA-N

>  <FORMULA>  (6769) 
C9H20O4Si2

>  <EXACT MASS>  (6769) 
248.09001218

>  <MW>  (6769) 
248

>  <ID>  (6769) 
JP001110

>  <CONTRIBUTOR>  (6769) 
University of Tokyo Team, {Faculty of Engineering, University of Tokyo

>  <COMMENT>  (6769) 
SMILES=O=C(CC(=O)O[Si](C)(C)C)O[Si](C)(C)C
InChI=InChI=1S/C9H20O4Si2/c1-14(2,3)12-8(10)7-9(11)13-15(4,5)6/h7H2,1-6H3
computed SMILES=O=C(O[Si](C)(C)C)CC(=O)O[Si](C)(C)C
accession=JP001110
date=2016.01.19 (Created 2008.10.21, modified 2011.05.06)
author=KOGA M, UNIV. OF OCCUPATIONAL AND ENVIRONMENTAL HEALTH
license=CC BY-NC-SA
exact mass=248.09001
ionization energy=70 eV
ion type=[M]+*
computed spectral entropy=1.8975312846977386
computed normalized entropy=0.7397928848683686
SPLASH=splash10-00dj-9800000000-3cee22cf8fd191bedf2c
submitter=submitter = University of Tokyo Team (Faculty of Engineering, University of Tokyo)
MoNA Rating=3.75

>  <NUM PEAKS>  (6769) 
13

>  <MASS SPECTRAL PEAKS>  (6769) 
44 10.9
45 14.5
73 98.1
74 1
75 39.5
130 26.3
147 99.99
148 1.54
149 8.6
174 18.1
202 14
217 0.31
233 3.6

$$$$

     RDKit          2D

 16 15  0  0  0  0  0  0  0  0999 V2000
  -10.3053    6.5993    0.0000 C   0  0  0  0  0  0  0  0  0  0  0  0
   -9.0062    4.3493    0.0000 C   0  0  0  0  0  0  0  0  0  0  0  0
    3.4351    5.3002    0.0000 C   0  0  0  0  0  0  0  0  0  0  0  0
    3.9841    7.3493    0.0000 C   0  0  0  0  0  0  0  0  0  0  0  0
    1.9351    7.8983    0.0000 C   0  0  0  0  0  0  0  0  0  0  0  0
   -5.1091    6.5993    0.0000 C   0  0  0  0  0  0  0  0  0  0  0  0
   -3.8101    5.8493    0.0000 C   0  0  0  0  0  0  0  0  0  0  0  0
   -6.4082    5.8493    0.0000 C   0  0  0  0  0  0  0  0  0  0  0  0
   -2.5111    6.5993    0.0000 C   0  0  0  0  0  0  0  0  0  0  0  0
   -7.7072    6.5993    0.0000 C   0  0  0  0  0  0  0  0  0  0  0  0
   -1.2120    5.8493    0.0000 C   0  0  0  0  0  0  0  0  0  0  0  0
   -9.0062    5.8493    0.0000 C   0  0  0  0  0  0  0  0  0  0  0  0
    0.0870    6.5993    0.0000 C   0  0  0  0  0  0  0  0  0  0  0  0
    0.0870    8.0993    0.0000 O   0  0  0  0  0  0  0  0  0  0  0  0
    1.3861    5.8493    0.0000 O   0  0  0  0  0  0  0  0  0  0  0  0
    2.6851    6.5993    0.0000 Si  0  0  0  0  0  4  0  0  0  0  0  0
  7  6  1  0
  8  6  1  0
  9  7  1  0
 10  8  1  0
 11  9  1  0
 12  1  1  0
 12  2  1  0
 12 10  1  0
 13 11  1  0
 14 13  2  0
 15 13  1  0
 16  3  1  0
 16  4  1  0
 16  5  1  0
 16 15  1  0
M  END
>  <NAME>  (6770) 
8-METHYLNONANOIC ACID TRIMETHYLSILYL ESTER

>  <SYNONYMS>  (6770) 
TRIMETHYLSILYL 8-METHYLNONANOATE

>  <SPECTRUM TYPE>  (6770) 
MS1

>  <INSTRUMENT TYPE>  (6770) 
EI-B

>  <INSTRUMENT>  (6770) 
JEOL JMS-01-SG

>  <ION MODE>  (6770) 
P

>  <INCHIKEY>  (6770) 
RPEGLTSXQCBJRY-UHFFFAOYSA-N

>  <FORMULA>  (6770) 
C13H28O2Si

>  <EXACT MASS>  (6770) 
244.185856666

>  <MW>  (6770) 
244

>  <ID>  (6770) 
JP001109

>  <CONTRIBUTOR>  (6770) 
University of Tokyo Team, {Faculty of Engineering, University of Tokyo

>  <COMMENT>  (6770) 
SMILES=CC(C)CCCCCCC(=O)O[Si](C)(C)C
InChI=InChI=1S/C13H28O2Si/c1-12(2)10-8-6-7-9-11-13(14)15-16(3,4)5/h12H,6-11H2,1-5H3
computed SMILES=O=C(O[Si](C)(C)C)CCCCCCC(C)C
accession=JP001109
date=2016.01.19 (Created 2008.10.21, modified 2011.05.06)
author=KOGA M, UNIV. OF OCCUPATIONAL AND ENVIRONMENTAL HEALTH
license=CC BY-NC-SA
exact mass=244.18586
ionization energy=70 eV
ion type=[M]+*
computed spectral entropy=2.783402705126768
computed normalized entropy=0.8031202558966627
SPLASH=splash10-00b9-9440000000-f462a4b55dbc93e9f19d
submitter=submitter = University of Tokyo Team (Faculty of Engineering, University of Tokyo)
MoNA Rating=3.75

>  <NUM PEAKS>  (6770) 
32

>  <MASS SPECTRAL PEAKS>  (6770) 
43 26.5
45 12.1
47 5.9
55 1.08
56 5.5
58 5.3
61 5.1
69 1.14
71 5.1
73 99.99
74 8.9
75 8.12
76 6.1
77 11.9
81 11.4
83 0.61
95 6.3
97 5.3
116 4.8
117 7.63
118 8.2
129 31.2
130 4.6
131 2.08
132 22.9
133 5.3
145 17.2
185 0.51
201 8.7
229 79.3
230 14.4
231 4.8

$$$$

     RDKit          2D

 15 15  0  0  0  0  0  0  0  0999 V2000
   -4.4962    5.4556    0.0000 C   0  0  0  0  0  0  0  0  0  0  0  0
   -6.5452    4.9066    0.0000 C   0  0  0  0  0  0  0  0  0  0  0  0
   -5.9962    2.8576    0.0000 C   0  0  0  0  0  0  0  0  0  0  0  0
    3.8471    1.9066    0.0000 C   0  0  0  0  0  0  0  0  0  0  0  0
    3.8476    3.4074    0.0000 C   0  0  0  0  0  0  0  0  0  0  0  0
    2.5476    1.1558    0.0000 C   0  0  0  0  0  0  0  0  0  0  0  0
    2.5486    4.1574    0.0000 C   0  0  0  0  0  0  0  0  0  0  0  0
    1.2486    1.9058    0.0000 C   0  0  0  0  0  0  0  0  0  0  0  0
   -0.0500    4.1566    0.0000 C   0  0  0  0  0  0  0  0  0  0  0  0
   -1.3490    3.4066    0.0000 C   0  0  0  0  0  0  0  0  0  0  0  0
    1.2490    3.4066    0.0000 C   0  0  0  0  0  0  0  0  0  0  0  0
   -2.6481    4.1566    0.0000 C   0  0  0  0  0  0  0  0  0  0  0  0
   -2.6481    5.6566    0.0000 O   0  0  0  0  0  0  0  0  0  0  0  0
   -3.9471    3.4066    0.0000 O   0  0  0  0  0  0  0  0  0  0  0  0
   -5.2462    4.1566    0.0000 Si  0  0  0  0  0  4  0  0  0  0  0  0
  5  4  2  0
  6  4  1  0
  7  5  1  0
  8  6  2  0
 10  9  1  0
 11  7  2  0
 11  8  1  0
 11  9  1  0
 12 10  1  0
 13 12  2  0
 14 12  1  0
 15  1  1  0
 15  2  1  0
 15  3  1  0
 15 14  1  0
M  END
>  <NAME>  (6771) 
BETA-PHENYLPROPIONIC ACID TRIMETHYLSILYL ESTER

>  <SYNONYMS>  (6771) 
TRIMETHYLSILYL 3-PHENYLPROPIONATE

>  <SPECTRUM TYPE>  (6771) 
MS1

>  <INSTRUMENT TYPE>  (6771) 
EI-B

>  <INSTRUMENT>  (6771) 
JEOL JMS-01-SG

>  <ION MODE>  (6771) 
P

>  <INCHIKEY>  (6771) 
GRONVOGSDOJOMG-UHFFFAOYSA-N

>  <FORMULA>  (6771) 
C12H18O2Si

>  <EXACT MASS>  (6771) 
222.107606346

>  <MW>  (6771) 
222

>  <ID>  (6771) 
JP001108

>  <CONTRIBUTOR>  (6771) 
University of Tokyo Team, {Faculty of Engineering, University of Tokyo

>  <COMMENT>  (6771) 
SMILES=O=C(CCc(c1)cccc1)O[Si](C)(C)C
InChI=InChI=1S/C12H18O2Si/c1-15(2,3)14-12(13)10-9-11-7-5-4-6-8-11/h4-8H,9-10H2,1-3H3
computed SMILES=O=C(O[Si](C)(C)C)CCC=1C=CC=CC1
accession=JP001108
date=2016.01.19 (Created 2008.10.21, modified 2011.05.06)
author=KOGA M, UNIV. OF OCCUPATIONAL AND ENVIRONMENTAL HEALTH
license=CC BY-NC-SA
exact mass=222.10761
ionization energy=70 eV
ion type=[M]+*
computed spectral entropy=2.263836090210078
computed normalized entropy=0.8578199741269421
SPLASH=splash10-004j-9000000000-2dd07490f3ed7d63d1bf
submitter=submitter = University of Tokyo Team (Faculty of Engineering, University of Tokyo)
MoNA Rating=3.75

>  <NUM PEAKS>  (6771) 
14

>  <MASS SPECTRAL PEAKS>  (6771) 
44 16.5
45 60.9
47 42.1
51 0.22
65 18
73 50.3
75 99.99
77 3.15
78 17.2
85 15.7
91 31.5
104 6.99
105 17.2
207 20.3

$$$$

     RDKit          2D

 15 15  0  0  0  0  0  0  0  0999 V2000
   -0.7363    5.1443    0.0000 C   0  0  0  0  0  0  0  0  0  0  0  0
   -5.3834    4.1934    0.0000 C   0  0  0  0  0  0  0  0  0  0  0  0
   -5.9324    2.1443    0.0000 C   0  0  0  0  0  0  0  0  0  0  0  0
   -3.8834    1.5953    0.0000 C   0  0  0  0  0  0  0  0  0  0  0  0
    3.1608    1.3943    0.0000 C   0  0  0  0  0  0  0  0  0  0  0  0
    3.1613    2.8952    0.0000 C   0  0  0  0  0  0  0  0  0  0  0  0
    1.8613    0.6435    0.0000 C   0  0  0  0  0  0  0  0  0  0  0  0
    1.8623    3.6452    0.0000 C   0  0  0  0  0  0  0  0  0  0  0  0
    0.5623    1.3935    0.0000 C   0  0  0  0  0  0  0  0  0  0  0  0
   -0.7363    3.6443    0.0000 C   0  0  0  0  0  0  0  0  0  0  0  0
    0.5627    2.8943    0.0000 C   0  0  0  0  0  0  0  0  0  0  0  0
   -2.0353    2.8943    0.0000 C   0  0  0  0  0  0  0  0  0  0  0  0
   -2.0353    1.3943    0.0000 O   0  0  0  0  0  0  0  0  0  0  0  0
   -3.3344    3.6443    0.0000 O   0  0  0  0  0  0  0  0  0  0  0  0
   -4.6334    2.8943    0.0000 Si  0  0  0  0  0  4  0  0  0  0  0  0
  6  5  2  0
  7  5  1  0
  8  6  1  0
  9  7  2  0
 10  1  1  0
 11  8  2  0
 11  9  1  0
 11 10  1  0
 12 10  1  0
 13 12  2  0
 14 12  1  0
 15  2  1  0
 15  3  1  0
 15  4  1  0
 15 14  1  0
M  END
>  <NAME>  (6772) 
DL-ALPHA-PHENYLPROPIONIC ACID TRIMETHYLSILYL ESTER

>  <SYNONYMS>  (6772) 
TRIMETHYLSILYL DL-ALPHA-PHENYLPROPIONATE

>  <SPECTRUM TYPE>  (6772) 
MS1

>  <INSTRUMENT TYPE>  (6772) 
EI-B

>  <INSTRUMENT>  (6772) 
JEOL JMS-01-SG

>  <ION MODE>  (6772) 
P

>  <INCHIKEY>  (6772) 
OMYJQVPBIWDUAO-UHFFFAOYSA-N

>  <FORMULA>  (6772) 
C12H18O2Si

>  <EXACT MASS>  (6772) 
222.107606346

>  <MW>  (6772) 
222

>  <ID>  (6772) 
JP001106

>  <CONTRIBUTOR>  (6772) 
University of Tokyo Team, {Faculty of Engineering, University of Tokyo

>  <COMMENT>  (6772) 
SMILES=c(c1)ccc(c1)C(C)C(=O)O[Si](C)(C)C
InChI=InChI=1S/C12H18O2Si/c1-10(11-8-6-5-7-9-11)12(13)14-15(2,3)4/h5-10H,1-4H3
computed SMILES=O=C(O[Si](C)(C)C)C(C=1C=CC=CC1)C
accession=JP001106
date=2016.01.19 (Created 2008.10.21, modified 2011.05.06)
author=KOGA M, UNIV. OF OCCUPATIONAL AND ENVIRONMENTAL HEALTH
license=CC BY-NC-SA
exact mass=222.10761
ionization energy=70 eV
ion type=[M]+*
computed spectral entropy=1.8111902025598512
computed normalized entropy=0.6266288056586102
SPLASH=splash10-00di-9100000000-71ff7a6f623ea87de317
submitter=submitter = University of Tokyo Team (Faculty of Engineering, University of Tokyo)
MoNA Rating=3.75

>  <NUM PEAKS>  (6772) 
18

>  <MASS SPECTRAL PEAKS>  (6772) 
44 3.5
45 5.9
47 1.8
51 0.16
73 99.99
74 9.4
75 24.3
77 1.11
79 3.5
103 3.5
104 3.5
105 0.68
117 1.6
147 4.7
178 17.2
179 0.23
207 13.4
208 1.6

$$$$

     RDKit          2D

 13 13  0  0  0  0  0  0  0  0999 V2000
   -2.5476    4.3306    0.0000 C   0  0  0  0  0  0  0  0  0  0  0  0
   -4.5966    3.7816    0.0000 C   0  0  0  0  0  0  0  0  0  0  0  0
   -4.0476    1.7326    0.0000 C   0  0  0  0  0  0  0  0  0  0  0  0
    3.1976    0.7816    0.0000 C   0  0  0  0  0  0  0  0  0  0  0  0
    3.1981    2.2824    0.0000 C   0  0  0  0  0  0  0  0  0  0  0  0
    1.8981    0.0308    0.0000 C   0  0  0  0  0  0  0  0  0  0  0  0
    1.8990    3.0324    0.0000 C   0  0  0  0  0  0  0  0  0  0  0  0
    0.5990    0.7808    0.0000 C   0  0  0  0  0  0  0  0  0  0  0  0
    0.5995    2.2816    0.0000 C   0  0  0  0  0  0  0  0  0  0  0  0
   -0.6995    3.0316    0.0000 C   0  0  0  0  0  0  0  0  0  0  0  0
   -0.6995    4.5316    0.0000 O   0  0  0  0  0  0  0  0  0  0  0  0
   -1.9986    2.2816    0.0000 O   0  0  0  0  0  0  0  0  0  0  0  0
   -3.2976    3.0316    0.0000 Si  0  0  0  0  0  4  0  0  0  0  0  0
  5  4  2  0
  6  4  1  0
  7  5  1  0
  8  6  1  0
  9  7  1  0
  9  8  1  0
 10  9  1  0
 11 10  2  0
 12 10  1  0
 13  1  1  0
 13  2  1  0
 13  3  1  0
 13 12  1  0
M  END
>  <NAME>  (6773) 
CYCLOHEXENE-4-CARBOXYLIC ACID TRIMETHYLSILYL ESTER

>  <SYNONYMS>  (6773) 
TRIMETHYLSILYL CYCLOHEXENE-4-CARBOXYLATE

>  <SPECTRUM TYPE>  (6773) 
MS1

>  <INSTRUMENT TYPE>  (6773) 
EI-B

>  <INSTRUMENT>  (6773) 
JEOL JMS-01-SG

>  <ION MODE>  (6773) 
P

>  <INCHIKEY>  (6773) 
BFVIGVPKTFVFNX-UHFFFAOYSA-N

>  <FORMULA>  (6773) 
C10H18O2Si

>  <EXACT MASS>  (6773) 
198.107606346

>  <MW>  (6773) 
198

>  <ID>  (6773) 
JP001105

>  <CONTRIBUTOR>  (6773) 
University of Tokyo Team, {Faculty of Engineering, University of Tokyo

>  <COMMENT>  (6773) 
SMILES=C(C1)=CCC(C1)C(=O)O[Si](C)(C)C
InChI=InChI=1S/C10H18O2Si/c1-13(2,3)12-10(11)9-7-5-4-6-8-9/h4-5,9H,6-8H2,1-3H3
computed SMILES=O=C(O[Si](C)(C)C)C1CC=CCC1
accession=JP001105
date=2016.01.19 (Created 2008.10.21, modified 2011.05.06)
author=KOGA M, UNIV. OF OCCUPATIONAL AND ENVIRONMENTAL HEALTH
license=CC BY-NC-SA
exact mass=198.10761
ionization energy=70 eV
ion type=[M]+*
computed spectral entropy=2.4205455279609733
computed normalized entropy=0.6984218058870508
SPLASH=splash10-00di-9200000000-67c5ceb8c0082d44b131
submitter=submitter = University of Tokyo Team (Faculty of Engineering, University of Tokyo)
MoNA Rating=3.75

>  <NUM PEAKS>  (6773) 
32

>  <MASS SPECTRAL PEAKS>  (6773) 
44 2.7
45 9.8
47 4.5
51 0.17
53 2.9
55 2.1
57 3.2
58 0.32
59 4.3
61 2.7
66 1.6
72 0.16
73 99.99
74 9.8
75 37.3
76 0.23
77 8.2
78 1.7
79 11.7
80 4.66
81 5.8
107 1.6
108 7.6
117 0.68
129 9.6
131 1.7
147 1.4
154 0.45
158 1.6
183 20.5
184 3.6
198 3.2

$$$$

     RDKit          2D

 16 16  0  0  0  0  0  0  0  0999 V2000
    3.2476   -3.7504    0.0000 C   0  0  0  0  0  0  0  0  0  0  0  0
    3.9978    2.4515    0.0000 C   0  0  0  0  0  0  0  0  0  0  0  0
    4.5465    4.5006    0.0000 C   0  0  0  0  0  0  0  0  0  0  0  0
    2.4974    5.0493    0.0000 C   0  0  0  0  0  0  0  0  0  0  0  0
    1.9487   -3.0002    0.0000 C   0  0  0  0  0  0  0  0  0  0  0  0
   -1.9500    0.7500    0.0000 C   0  0  0  0  0  0  0  0  0  0  0  0
   -1.9500   -0.7500    0.0000 C   0  0  0  0  0  0  0  0  0  0  0  0
   -0.6500    1.5000    0.0000 C   0  0  0  0  0  0  0  0  0  0  0  0
   -0.6500   -1.5000    0.0000 C   0  0  0  0  0  0  0  0  0  0  0  0
    0.6500    0.7500    0.0000 C   0  0  0  0  0  0  0  0  0  0  0  0
    0.6500   -0.7500    0.0000 C   0  0  0  0  0  0  0  0  0  0  0  0
    1.9489    1.5002    0.0000 C   0  0  0  0  0  0  0  0  0  0  0  0
    3.2481    0.7504    0.0000 O   0  0  0  0  0  0  0  0  0  0  0  0
    1.9489   -1.5002    0.0000 O   0  0  0  0  0  0  0  0  0  0  0  0
    1.9487    3.0002    0.0000 O   0  0  0  0  0  0  0  0  0  0  0  0
    3.2476    3.7504    0.0000 Si  0  0  0  0  0  4  0  0  0  0  0  0
  5  1  1  0
  7  6  2  0
  8  6  1  0
  9  7  1  0
 10  8  2  0
 11  9  2  0
 11 10  1  0
 12 10  1  0
 13 12  2  0
 14  5  1  0
 14 11  1  0
 15 12  1  0
 16  2  1  0
 16  3  1  0
 16  4  1  0
 16 15  1  0
M  END
>  <NAME>  (6774) 
ORTHO-ETHOXYBENZOIC ACID TRIMETHYLSILYL ESTER

>  <SYNONYMS>  (6774) 
TRIMETHYLSILYL 2-ETHOXYBENZOATE

>  <SPECTRUM TYPE>  (6774) 
MS1

>  <INSTRUMENT TYPE>  (6774) 
EI-B

>  <INSTRUMENT>  (6774) 
JEOL JMS-01-SG

>  <ION MODE>  (6774) 
P

>  <INCHIKEY>  (6774) 
LPNQWYXWIIDKLT-UHFFFAOYSA-N

>  <FORMULA>  (6774) 
C12H18O3Si

>  <EXACT MASS>  (6774) 
238.102520966

>  <MW>  (6774) 
238

>  <ID>  (6774) 
JP001104

>  <CONTRIBUTOR>  (6774) 
University of Tokyo Team, {Faculty of Engineering, University of Tokyo

>  <COMMENT>  (6774) 
SMILES=CCOc(c1)c(ccc1)C(=O)O[Si](C)(C)C
InChI=InChI=1S/C12H18O3Si/c1-5-14-11-9-7-6-8-10(11)12(13)15-16(2,3)4/h6-9H,5H2,1-4H3
computed SMILES=O=C(O[Si](C)(C)C)C=1C=CC=CC1OCC
accession=JP001104
date=2016.01.19 (Created 2008.10.21, modified 2011.05.06)
author=KOGA M, UNIV. OF OCCUPATIONAL AND ENVIRONMENTAL HEALTH
license=CC BY-NC-SA
exact mass=238.10252
ionization energy=70 eV
ion type=[M]+*
computed spectral entropy=3.1555161186376965
computed normalized entropy=0.8738819865132178
SPLASH=splash10-009t-2900000000-4484158df784b8be5ae2
submitter=submitter = University of Tokyo Team (Faculty of Engineering, University of Tokyo)
MoNA Rating=3.75

>  <NUM PEAKS>  (6774) 
37

>  <MASS SPECTRAL PEAKS>  (6774) 
43 7.9
45 24.7
51 8.5
63 0.91
64 13.7
65 30.5
73 41.8
75 5.16
76 10
77 20.4
91 22.9
92 2.69
93 26.2
105 51
120 69.1
121 6.33
133 96
134 11.3
135 63.3
136 0.88
148 64.2
149 20.4
151 71.2
152 1.03
153 20.7
163 17.7
177 65.7
178 0.82
179 60.5
180 11.6
193 7.9
195 99.99
196 15.5
220 7.6
223 45.2
224 0.82
238 16.5

$$$$

     RDKit          2D

 20 21  0  0  0  0  0  0  0  0999 V2000
   -4.7340    3.0686    0.0000 C   0  0  0  0  0  0  0  0  0  0  0  0
   -5.2831    1.0196    0.0000 C   0  0  0  0  0  0  0  0  0  0  0  0
   -3.2340    0.4705    0.0000 C   0  0  0  0  0  0  0  0  0  0  0  0
    3.8102    0.2696    0.0000 C   0  0  0  0  0  0  0  0  0  0  0  0
   -0.0869    7.0196    0.0000 C   0  0  0  0  0  0  0  0  0  0  0  0
    3.8107    1.7704    0.0000 C   0  0  0  0  0  0  0  0  0  0  0  0
    2.5107   -0.4813    0.0000 C   0  0  0  0  0  0  0  0  0  0  0  0
   -1.3869    6.2696    0.0000 C   0  0  0  0  0  0  0  0  0  0  0  0
    1.2131    6.2696    0.0000 C   0  0  0  0  0  0  0  0  0  0  0  0
    2.5117    2.5204    0.0000 C   0  0  0  0  0  0  0  0  0  0  0  0
    1.2117    0.2687    0.0000 C   0  0  0  0  0  0  0  0  0  0  0  0
   -1.3869    4.7696    0.0000 C   0  0  0  0  0  0  0  0  0  0  0  0
    1.2131    4.7696    0.0000 C   0  0  0  0  0  0  0  0  0  0  0  0
    1.2121    1.7696    0.0000 C   0  0  0  0  0  0  0  0  0  0  0  0
   -0.0869    4.0196    0.0000 C   0  0  0  0  0  0  0  0  0  0  0  0
   -0.0869    2.5196    0.0000 C   0  0  0  0  0  0  0  0  0  0  0  0
   -1.3859    1.7696    0.0000 C   0  0  0  0  0  0  0  0  0  0  0  0
   -1.3859    0.2696    0.0000 O   0  0  0  0  0  0  0  0  0  0  0  0
   -2.6850    2.5196    0.0000 O   0  0  0  0  0  0  0  0  0  0  0  0
   -3.9840    1.7696    0.0000 Si  0  0  0  0  0  4  0  0  0  0  0  0
  6  4  2  0
  7  4  1  0
  8  5  2  0
  9  5  1  0
 10  6  1  0
 11  7  2  0
 12  8  1  0
 13  9  2  0
 14 10  2  0
 14 11  1  0
 15 12  2  0
 15 13  1  0
 16 14  1  0
 16 15  1  0
 17 16  1  0
 18 17  2  0
 19 17  1  0
 20  1  1  0
 20  2  1  0
 20  3  1  0
 20 19  1  0
M  END
>  <NAME>  (6775) 
DIPHENYLACETIC ACID TRIMETHYLSILYL ESTER

>  <SYNONYMS>  (6775) 
TRIMETHYLSILYL DIPHENYLACETATE

>  <SPECTRUM TYPE>  (6775) 
MS1

>  <INSTRUMENT TYPE>  (6775) 
EI-B

>  <INSTRUMENT>  (6775) 
JEOL JMS-01-SG

>  <ION MODE>  (6775) 
P

>  <INCHIKEY>  (6775) 
QSBLMZZLVMXTHB-UHFFFAOYSA-N

>  <FORMULA>  (6775) 
C17H20O2Si

>  <EXACT MASS>  (6775) 
284.12325641

>  <MW>  (6775) 
284

>  <ID>  (6775) 
JP001102

>  <CONTRIBUTOR>  (6775) 
University of Tokyo Team, {Faculty of Engineering, University of Tokyo

>  <COMMENT>  (6775) 
SMILES=c(c2)ccc(c2)C(c(c1)cccc1)C(=O)O[Si](C)(C)C
InChI=InChI=1S/C17H20O2Si/c1-20(2,3)19-17(18)16(14-10-6-4-7-11-14)15-12-8-5-9-13-15/h4-13,16H,1-3H3
computed SMILES=O=C(O[Si](C)(C)C)C(C=1C=CC=CC1)C=2C=CC=CC2
accession=JP001102
date=2016.01.19 (Created 2008.10.21, modified 2011.05.06)
author=KOGA M, UNIV. OF OCCUPATIONAL AND ENVIRONMENTAL HEALTH
license=CC BY-NC-SA
exact mass=284.12326
ionization energy=70 eV
ion type=[M]+*
computed spectral entropy=2.0114837924885913
computed normalized entropy=0.6831467069689571
SPLASH=splash10-00di-9100000000-7bc2d4a2a654f0340574
submitter=submitter = University of Tokyo Team (Faculty of Engineering, University of Tokyo)
MoNA Rating=3.75

>  <NUM PEAKS>  (6775) 
19

>  <MASS SPECTRAL PEAKS>  (6775) 
43 2.1
44 21.3
45 12.4
47 0.28
51 5.6
73 99.99
74 8.2
75 2.23
76 3.2
77 15
78 2.3
105 1.87
152 4.4
165 8.2
166 3
167 0.63
182 7.5
240 7.2
269 3

$$$$

     RDKit          2D

 19 20  0  0  0  0  0  0  0  0999 V2000
   -4.7875    3.1612    0.0000 C   0  0  0  0  0  0  0  0  0  0  0  0
   -5.3365    1.1122    0.0000 C   0  0  0  0  0  0  0  0  0  0  0  0
   -3.2875    0.5631    0.0000 C   0  0  0  0  0  0  0  0  0  0  0  0
    3.7567    0.3622    0.0000 C   0  0  0  0  0  0  0  0  0  0  0  0
    3.7572    1.8630    0.0000 C   0  0  0  0  0  0  0  0  0  0  0  0
    2.4572   -0.3887    0.0000 C   0  0  0  0  0  0  0  0  0  0  0  0
    0.6039    6.4361    0.0000 C   0  0  0  0  0  0  0  0  0  0  0  0
   -0.8919    6.4083    0.0000 C   0  0  0  0  0  0  0  0  0  0  0  0
    2.4582    2.6130    0.0000 C   0  0  0  0  0  0  0  0  0  0  0  0
    1.1582    0.3613    0.0000 C   0  0  0  0  0  0  0  0  0  0  0  0
    1.0712    4.9939    0.0000 C   0  0  0  0  0  0  0  0  0  0  0  0
   -1.3448    4.9887    0.0000 C   0  0  0  0  0  0  0  0  0  0  0  0
    1.1587    1.8622    0.0000 C   0  0  0  0  0  0  0  0  0  0  0  0
   -0.1404    4.1122    0.0000 C   0  0  0  0  0  0  0  0  0  0  0  0
   -0.1404    2.6122    0.0000 C   0  0  0  0  0  0  0  0  0  0  0  0
   -1.4394    1.8622    0.0000 C   0  0  0  0  0  0  0  0  0  0  0  0
   -1.4394    0.3622    0.0000 O   0  0  0  0  0  0  0  0  0  0  0  0
   -2.7384    2.6122    0.0000 O   0  0  0  0  0  0  0  0  0  0  0  0
   -4.0375    1.8622    0.0000 Si  0  0  0  0  0  4  0  0  0  0  0  0
  5  4  2  0
  6  4  1  0
  8  7  1  0
  9  5  1  0
 10  6  2  0
 11  7  1  0
 12  8  1  0
 13  9  2  0
 13 10  1  0
 14 11  1  0
 14 12  1  0
 15 13  1  0
 15 14  1  0
 16 15  1  0
 17 16  2  0
 18 16  1  0
 19  1  1  0
 19  2  1  0
 19  3  1  0
 19 18  1  0
M  END
>  <NAME>  (6776) 
ALPHA-CYCLOPENTYLPHENYLACETIC ACID TRIMETHYLSILYL ESTER

>  <SYNONYMS>  (6776) 
TRIMETHYLSILYL ALPHA-CYCLOPENTYL-ALPHA-PHENYLACETATE

>  <SPECTRUM TYPE>  (6776) 
MS1

>  <INSTRUMENT TYPE>  (6776) 
EI-B

>  <INSTRUMENT>  (6776) 
JEOL JMS-01-SG

>  <ION MODE>  (6776) 
P

>  <INCHIKEY>  (6776) 
LLMWGMYFEFHAIY-UHFFFAOYSA-N

>  <FORMULA>  (6776) 
C16H24O2Si

>  <EXACT MASS>  (6776) 
276.154556538

>  <MW>  (6776) 
276

>  <ID>  (6776) 
JP001101

>  <CONTRIBUTOR>  (6776) 
University of Tokyo Team, {Faculty of Engineering, University of Tokyo

>  <COMMENT>  (6776) 
SMILES=c(c2)ccc(c2)C(C(C1)CCC1)C(=O)O[Si](C)(C)C
InChI=InChI=1S/C16H24O2Si/c1-19(2,3)18-16(17)15(14-11-7-8-12-14)13-9-5-4-6-10-13/h4-6,9-10,14-15H,7-8,11-12H2,1-3H3
computed SMILES=O=C(O[Si](C)(C)C)C(C=1C=CC=CC1)C2CCCC2
accession=JP001101
date=2016.01.19 (Created 2008.10.21, modified 2011.05.06)
author=KOGA M, UNIV. OF OCCUPATIONAL AND ENVIRONMENTAL HEALTH
license=CC BY-NC-SA
exact mass=276.15456
ionization energy=70 eV
ion type=[M]+*
computed spectral entropy=2.0741790078730498
computed normalized entropy=0.7481019421436098
SPLASH=splash10-05fr-9410000000-1a009d85dbde8dc61b1b
submitter=submitter = University of Tokyo Team (Faculty of Engineering, University of Tokyo)
MoNA Rating=3.75

>  <NUM PEAKS>  (6776) 
16

>  <MASS SPECTRAL PEAKS>  (6776) 
45 9.9
67 6.5
73 99.99
74 1.7
75 22.7
77 6.1
91 24.3
115 0.55
117 8.5
118 12.2
158 67.9
159 0.99
208 12.2
232 9.3
261 10.2
262 2.3

$$$$

     RDKit          2D

 16 16  0  0  0  0  0  0  0  0999 V2000
   -2.5989   -1.5002    0.0000 C   0  0  0  0  0  0  0  0  0  0  0  0
    8.5453    0.2021    0.0000 C   0  0  0  0  0  0  0  0  0  0  0  0
    9.0940    2.2512    0.0000 C   0  0  0  0  0  0  0  0  0  0  0  0
    7.0449    2.8000    0.0000 C   0  0  0  0  0  0  0  0  0  0  0  0
   -1.3000    0.7500    0.0000 C   0  0  0  0  0  0  0  0  0  0  0  0
    0.0000   -1.5000    0.0000 C   0  0  0  0  0  0  0  0  0  0  0  0
    0.0000    1.5000    0.0000 C   0  0  0  0  0  0  0  0  0  0  0  0
    1.3000   -0.7500    0.0000 C   0  0  0  0  0  0  0  0  0  0  0  0
    2.5989    1.5002    0.0000 C   0  0  0  0  0  0  0  0  0  0  0  0
    3.8981    0.7504    0.0000 C   0  0  0  0  0  0  0  0  0  0  0  0
   -1.3000   -0.7500    0.0000 C   0  0  0  0  0  0  0  0  0  0  0  0
    1.3000    0.7500    0.0000 C   0  0  0  0  0  0  0  0  0  0  0  0
    5.1970    1.5006    0.0000 C   0  0  0  0  0  0  0  0  0  0  0  0
    5.1968    3.0006    0.0000 O   0  0  0  0  0  0  0  0  0  0  0  0
    6.4962    0.7508    0.0000 O   0  0  0  0  0  0  0  0  0  0  0  0
    7.7951    1.5010    0.0000 Si  0  0  0  0  0  4  0  0  0  0  0  0
  7  5  2  0
  8  6  1  0
  9 10  2  0
 11  1  1  0
 11  5  1  0
 11  6  2  0
 12  7  1  0
 12  8  2  0
 12  9  1  0
 13 10  1  0
 14 13  2  0
 15 13  1  0
 16  2  1  0
 16  3  1  0
 16  4  1  0
 16 15  1  0
M  END
>  <NAME>  (6777) 
PARA-METHYLCINNAMIC ACID TRIMETHYLSILYL ESTER

>  <SYNONYMS>  (6777) 
TRIMETHYLSILYL PARA-METHYLCINNAMATE

>  <SPECTRUM TYPE>  (6777) 
MS1

>  <INSTRUMENT TYPE>  (6777) 
EI-B

>  <INSTRUMENT>  (6777) 
JEOL JMS-01-SG

>  <ION MODE>  (6777) 
P

>  <INCHIKEY>  (6777) 
FXVQMFXMBNRJBF-MDZDMXLPSA-N

>  <FORMULA>  (6777) 
C13H18O2Si

>  <EXACT MASS>  (6777) 
234.107606346

>  <MW>  (6777) 
234

>  <ID>  (6777) 
JP001100

>  <CONTRIBUTOR>  (6777) 
University of Tokyo Team, {Faculty of Engineering, University of Tokyo

>  <COMMENT>  (6777) 
SMILES=Cc(c1)ccc(c1)C=CC(=O)O[Si](C)(C)C
InChI=InChI=1S/C13H18O2Si/c1-11-5-7-12(8-6-11)9-10-13(14)15-16(2,3)4/h5-10H,1-4H3/b10-9+
computed SMILES=O=C(O[Si](C)(C)C)C=CC1=CC=C(C=C1)C
accession=JP001100
date=2016.01.19 (Created 2008.10.21, modified 2011.05.06)
author=KOGA M, UNIV. OF OCCUPATIONAL AND ENVIRONMENTAL HEALTH
license=CC BY-NC-SA
exact mass=234.10761
ionization energy=70 eV
ion type=[M]+*
computed spectral entropy=2.3480027355625435
computed normalized entropy=0.8123531961409701
SPLASH=splash10-016s-1950000000-6808e4bd4ae4891486cd
submitter=submitter = University of Tokyo Team (Faculty of Engineering, University of Tokyo)
MoNA Rating=3.75

>  <NUM PEAKS>  (6777) 
18

>  <MASS SPECTRAL PEAKS>  (6777) 
45 7.5
47 8.1
73 15.1
75 4.06
77 9.3
91 15.1
105 7.5
115 4.12
117 27.9
145 98.2
146 6.9
149 1.91
159 24.4
175 80.8
176 14.5
219 99.99
220 18
234 32.5

$$$$

     RDKit          2D

 15 15  0  0  0  0  0  0  0  0999 V2000
   -2.5989   -1.5002    0.0000 C   0  0  0  0  0  0  0  0  0  0  0  0
    5.7464   -0.5483    0.0000 C   0  0  0  0  0  0  0  0  0  0  0  0
    7.7953    0.0010    0.0000 C   0  0  0  0  0  0  0  0  0  0  0  0
    7.2459    2.0500    0.0000 C   0  0  0  0  0  0  0  0  0  0  0  0
   -1.3000    0.7500    0.0000 C   0  0  0  0  0  0  0  0  0  0  0  0
    0.0000   -1.5000    0.0000 C   0  0  0  0  0  0  0  0  0  0  0  0
    0.0000    1.5000    0.0000 C   0  0  0  0  0  0  0  0  0  0  0  0
    1.3000   -0.7500    0.0000 C   0  0  0  0  0  0  0  0  0  0  0  0
    2.5989    1.5002    0.0000 C   0  0  0  0  0  0  0  0  0  0  0  0
   -1.3000   -0.7500    0.0000 C   0  0  0  0  0  0  0  0  0  0  0  0
    1.3000    0.7500    0.0000 C   0  0  0  0  0  0  0  0  0  0  0  0
    3.8981    0.7504    0.0000 C   0  0  0  0  0  0  0  0  0  0  0  0
    3.8983   -0.7496    0.0000 O   0  0  0  0  0  0  0  0  0  0  0  0
    5.1970    1.5006    0.0000 O   0  0  0  0  0  0  0  0  0  0  0  0
    6.4962    0.7508    0.0000 Si  0  0  0  0  0  4  0  0  0  0  0  0
  7  5  2  0
  8  6  1  0
 10  1  1  0
 10  5  1  0
 10  6  2  0
 11  7  1  0
 11  8  2  0
 11  9  1  0
 12  9  1  0
 13 12  2  0
 14 12  1  0
 15  2  1  0
 15  3  1  0
 15  4  1  0
 15 14  1  0
M  END
>  <NAME>  (6778) 
PARA-TOLYLACETIC ACID TRIMETHYLSILYL ESTER

>  <SYNONYMS>  (6778) 
TRIMETHYLSILYL PARA-TOLYLACETATE

>  <SPECTRUM TYPE>  (6778) 
MS1

>  <INSTRUMENT TYPE>  (6778) 
EI-B

>  <INSTRUMENT>  (6778) 
JEOL JMS-01-SG

>  <ION MODE>  (6778) 
P

>  <INCHIKEY>  (6778) 
LXJDXPPJXKOURQ-UHFFFAOYSA-N

>  <FORMULA>  (6778) 
C12H18O2Si

>  <EXACT MASS>  (6778) 
222.107606346

>  <MW>  (6778) 
222

>  <ID>  (6778) 
JP001099

>  <CONTRIBUTOR>  (6778) 
University of Tokyo Team, {Faculty of Engineering, University of Tokyo

>  <COMMENT>  (6778) 
SMILES=Cc(c1)ccc(c1)CC(=O)O[Si](C)(C)C
InChI=InChI=1S/C12H18O2Si/c1-10-5-7-11(8-6-10)9-12(13)14-15(2,3)4/h5-8H,9H2,1-4H3
computed SMILES=O=C(O[Si](C)(C)C)CC1=CC=C(C=C1)C
accession=JP001099
date=2016.01.19 (Created 2008.10.21, modified 2011.05.06)
author=KOGA M, UNIV. OF OCCUPATIONAL AND ENVIRONMENTAL HEALTH
license=CC BY-NC-SA
exact mass=222.10761
ionization energy=70 eV
ion type=[M]+*
computed spectral entropy=1.8147184871686872
computed normalized entropy=0.6545213405119468
SPLASH=splash10-00di-9100000000-75dc4d1fbc46b5e88f82
submitter=submitter = University of Tokyo Team (Faculty of Engineering, University of Tokyo)
MoNA Rating=3.75

>  <NUM PEAKS>  (6778) 
16

>  <MASS SPECTRAL PEAKS>  (6778) 
43 3.9
45 18
73 99.99
74 0.78
75 23.1
77 10.9
78 3.1
79 0.31
103 3.1
104 2.7
105 5.8
151 0.39
178 10.9
179 4.7
207 7
222 2.7

$$$$

     RDKit          2D

 13 13  0  0  0  0  0  0  0  0999 V2000
   -2.5476    4.3306    0.0000 C   0  0  0  0  0  0  0  0  0  0  0  0
   -4.5966    3.7816    0.0000 C   0  0  0  0  0  0  0  0  0  0  0  0
   -4.0476    1.7326    0.0000 C   0  0  0  0  0  0  0  0  0  0  0  0
    3.1976    0.7816    0.0000 C   0  0  0  0  0  0  0  0  0  0  0  0
    3.1981    2.2824    0.0000 C   0  0  0  0  0  0  0  0  0  0  0  0
    1.8981    0.0308    0.0000 C   0  0  0  0  0  0  0  0  0  0  0  0
    1.8990    3.0324    0.0000 C   0  0  0  0  0  0  0  0  0  0  0  0
    0.5990    0.7808    0.0000 C   0  0  0  0  0  0  0  0  0  0  0  0
    0.5995    2.2816    0.0000 C   0  0  0  0  0  0  0  0  0  0  0  0
   -0.6995    3.0316    0.0000 C   0  0  0  0  0  0  0  0  0  0  0  0
   -0.6995    4.5316    0.0000 O   0  0  0  0  0  0  0  0  0  0  0  0
   -1.9986    2.2816    0.0000 O   0  0  0  0  0  0  0  0  0  0  0  0
   -3.2976    3.0316    0.0000 Si  0  0  0  0  0  4  0  0  0  0  0  0
  5  4  1  0
  6  4  1  0
  7  5  1  0
  8  6  1  0
  9  7  1  0
  9  8  1  0
 10  9  1  0
 11 10  2  0
 12 10  1  0
 13  1  1  0
 13  2  1  0
 13  3  1  0
 13 12  1  0
M  END
>  <NAME>  (6779) 
CYCLOHEXANECARBOXYLIC ACID TRIMETHYLSILYLESTER

>  <SYNONYMS>  (6779) 
TRIMETHYLSILYL CYCLOHEXANECARBOXYLATE

>  <SPECTRUM TYPE>  (6779) 
MS1

>  <INSTRUMENT TYPE>  (6779) 
EI-B

>  <INSTRUMENT>  (6779) 
JEOL JMS-01-SG

>  <ION MODE>  (6779) 
P

>  <INCHIKEY>  (6779) 
PYJUBHQOZUNCIC-UHFFFAOYSA-N

>  <FORMULA>  (6779) 
C10H20O2Si

>  <EXACT MASS>  (6779) 
200.12325641

>  <MW>  (6779) 
200

>  <ID>  (6779) 
JP001098

>  <CONTRIBUTOR>  (6779) 
University of Tokyo Team, {Faculty of Engineering, University of Tokyo

>  <COMMENT>  (6779) 
SMILES=C(C1)CCC(C1)C(=O)O[Si](C)(C)C
InChI=InChI=1S/C10H20O2Si/c1-13(2,3)12-10(11)9-7-5-4-6-8-9/h9H,4-8H2,1-3H3
computed SMILES=O=C(O[Si](C)(C)C)C1CCCCC1
accession=JP001098
date=2016.01.19 (Created 2008.10.21, modified 2011.05.06)
author=KOGA M, UNIV. OF OCCUPATIONAL AND ENVIRONMENTAL HEALTH
license=CC BY-NC-SA
exact mass=200.12326
ionization energy=70 eV
ion type=[M]+*
computed spectral entropy=1.719808273336416
computed normalized entropy=0.7172157570206894
SPLASH=splash10-00di-9100000000-20f75081ee87ca9e816a
submitter=submitter = University of Tokyo Team (Faculty of Engineering, University of Tokyo)
MoNA Rating=3.75

>  <NUM PEAKS>  (6779) 
11

>  <MASS SPECTRAL PEAKS>  (6779) 
45 23.1
55 8.4
57 6.2
58 0.64
73 99.99
74 7.9
75 41.3
77 0.57
117 6.9
185 24.9
186 5.9

$$$$

     RDKit          2D

 17 17  0  0  0  0  0  0  0  0999 V2000
   -6.4962   -0.7508    0.0000 C   0  0  0  0  0  0  0  0  0  0  0  0
    5.9472    0.2017    0.0000 C   0  0  0  0  0  0  0  0  0  0  0  0
    6.4959    2.2508    0.0000 C   0  0  0  0  0  0  0  0  0  0  0  0
    4.4468    2.7995    0.0000 C   0  0  0  0  0  0  0  0  0  0  0  0
   -5.1970   -1.5006    0.0000 C   0  0  0  0  0  0  0  0  0  0  0  0
   -3.8981   -0.7504    0.0000 C   0  0  0  0  0  0  0  0  0  0  0  0
   -2.5989   -1.5002    0.0000 C   0  0  0  0  0  0  0  0  0  0  0  0
   -1.3000    0.7500    0.0000 C   0  0  0  0  0  0  0  0  0  0  0  0
   -0.0000   -1.5000    0.0000 C   0  0  0  0  0  0  0  0  0  0  0  0
    0.0000    1.5000    0.0000 C   0  0  0  0  0  0  0  0  0  0  0  0
    1.3000   -0.7500    0.0000 C   0  0  0  0  0  0  0  0  0  0  0  0
   -1.3000   -0.7500    0.0000 C   0  0  0  0  0  0  0  0  0  0  0  0
    1.3000    0.7500    0.0000 C   0  0  0  0  0  0  0  0  0  0  0  0
    2.5989    1.5002    0.0000 C   0  0  0  0  0  0  0  0  0  0  0  0
    2.5987    3.0002    0.0000 O   0  0  0  0  0  0  0  0  0  0  0  0
    3.8981    0.7504    0.0000 O   0  0  0  0  0  0  0  0  0  0  0  0
    5.1970    1.5006    0.0000 Si  0  0  0  0  0  4  0  0  0  0  0  0
  5  1  1  0
  6  5  1  0
  7  6  1  0
 10  8  2  0
 11  9  1  0
 12  7  1  0
 12  8  1  0
 12  9  2  0
 13 10  1  0
 13 11  2  0
 14 13  1  0
 15 14  2  0
 16 14  1  0
 17  2  1  0
 17  3  1  0
 17  4  1  0
 17 16  1  0
M  END
>  <NAME>  (6780) 
PARA-BUTYLBENZOIC ACID TRIMETHYLSILYL ESTER

>  <SYNONYMS>  (6780) 
TRIMETHYLSILYL 4-BUTYLBENZOATE

>  <SPECTRUM TYPE>  (6780) 
MS1

>  <INSTRUMENT TYPE>  (6780) 
EI-B

>  <INSTRUMENT>  (6780) 
JEOL JMS-01-SG

>  <ION MODE>  (6780) 
P

>  <INCHIKEY>  (6780) 
QCIYBSTWFOLQPL-UHFFFAOYSA-N

>  <FORMULA>  (6780) 
C14H22O2Si

>  <EXACT MASS>  (6780) 
250.138906474

>  <MW>  (6780) 
250

>  <ID>  (6780) 
JP001097

>  <CONTRIBUTOR>  (6780) 
University of Tokyo Team, {Faculty of Engineering, University of Tokyo

>  <COMMENT>  (6780) 
SMILES=CCCCc(c1)ccc(c1)C(=O)O[Si](C)(C)C
InChI=InChI=1S/C14H22O2Si/c1-5-6-7-12-8-10-13(11-9-12)14(15)16-17(2,3)4/h8-11H,5-7H2,1-4H3
computed SMILES=O=C(O[Si](C)(C)C)C1=CC=C(C=C1)CCCC
ionization energy=70 eV
accession=JP001097
license=CC BY-NC-SA
date=2016.01.19 (Created 2008.10.21, modified 2011.05.06)
author=KOGA M, UNIV. OF OCCUPATIONAL AND ENVIRONMENTAL HEALTH
exact mass=250.13891
ion type=[M]+*
computed spectral entropy=2.676427676818213
computed normalized entropy=0.8120631528898911
SPLASH=splash10-01pc-7960000000-71d82bd795ea9c7553da
submitter=submitter = University of Tokyo Team (Faculty of Engineering, University of Tokyo)
MoNA Rating=3.75

>  <NUM PEAKS>  (6780) 
27

>  <MASS SPECTRAL PEAKS>  (6780) 
45 34.8
47 11.6
51 6
55 0.73
65 8.9
73 27.4
75 12.3
77 2.19
78 5.4
89 9.6
90 27.1
91 4.51
92 6
103 7.3
105 6
118 1.61
133 7
148 6.1
161 77.6
162 0.96
191 61.6
192 14.4
193 13
235 99.99
236 19.7
237 6.1
250 7

$$$$

     RDKit          2D

 28 28  0  0  1  0  0  0  0  0999 V2000
   -4.6479   -1.7496    0.0000 C   0  0  0  0  0  0  0  0  0  0  0  0
   -5.1972    0.2994    0.0000 C   0  0  0  0  0  0  0  0  0  0  0  0
   -3.1483    0.8487    0.0000 C   0  0  0  0  0  0  0  0  0  0  0  0
    4.6479   -1.7496    0.0000 C   0  0  0  0  0  0  0  0  0  0  0  0
    5.1972    0.2994    0.0000 C   0  0  0  0  0  0  0  0  0  0  0  0
    3.1483    0.8487    0.0000 C   0  0  0  0  0  0  0  0  0  0  0  0
   -2.0490   -2.1510    0.0000 C   0  0  0  0  0  0  0  0  0  0  0  0
   -2.5981   -4.2000    0.0000 C   0  0  0  0  0  0  0  0  0  0  0  0
   -0.5490   -4.7490    0.0000 C   0  0  0  0  0  0  0  0  0  0  0  0
    0.2010    5.5500    0.0000 C   0  0  0  0  0  0  0  0  0  0  0  0
   -1.2990    7.0500    0.0000 C   0  0  0  0  0  0  0  0  0  0  0  0
   -2.7990    5.5500    0.0000 C   0  0  0  0  0  0  0  0  0  0  0  0
   -1.3000    1.0500    0.0000 C   0  0  0  0  0  0  0  0  0  0  0  0
    1.3000    1.0500    0.0000 C   0  0  0  0  0  0  0  0  0  0  0  0
    0.0000    1.8000    0.0000 C   0  0  0  0  0  0  0  0  0  0  0  0
   -1.3000   -0.4500    0.0000 C   0  0  0  0  0  0  0  0  0  0  0  0
    1.3000   -0.4500    0.0000 C   0  0  0  0  0  0  0  0  0  0  0  0
    0.0000   -1.2000    0.0000 C   0  0  0  0  0  0  0  0  0  0  0  0
    0.0000    3.3000    0.0000 C   0  0  0  0  0  0  0  0  0  0  0  0
    1.2990    4.0500    0.0000 O   0  0  0  0  0  0  0  0  0  0  0  0
   -2.5989   -1.2002    0.0000 O   0  0  0  0  0  0  0  0  0  0  0  0
    2.5989   -1.2002    0.0000 O   0  0  0  0  0  0  0  0  0  0  0  0
   -0.0000   -2.7000    0.0000 O   0  0  0  0  0  0  0  0  0  0  0  0
   -1.2990    4.0500    0.0000 O   0  0  0  0  0  0  0  0  0  0  0  0
   -3.8981   -0.4504    0.0000 Si  0  0  0  0  0  4  0  0  0  0  0  0
    3.8981   -0.4504    0.0000 Si  0  0  0  0  0  4  0  0  0  0  0  0
   -1.2990   -3.4500    0.0000 Si  0  0  0  0  0  4  0  0  0  0  0  0
   -1.2990    5.5500    0.0000 Si  0  0  0  0  0  4  0  0  0  0  0  0
 15 13  2  0
 15 14  1  0
 16 13  1  0
 17 14  1  0
 18 16  1  0
 18 17  1  0
 19 15  1  0
 20 19  2  0
 16 21  1  1
 17 22  1  6
 18 23  1  1
 24 19  1  0
 25  1  1  0
 25  2  1  0
 25  3  1  0
 25 21  1  0
 26  4  1  0
 26  5  1  0
 26  6  1  0
 26 22  1  0
 27  7  1  0
 27  8  1  0
 27  9  1  0
 27 23  1  0
 28 10  1  0
 28 11  1  0
 28 12  1  0
 28 24  1  0
M  END
>  <NAME>  (6781) 
3ALPHA,4ALPHA,5BETA-TRI(TRIMETHYLSILYLOXY)-1-CYCLOHEXENE-1-CARBOXYLIC ACID TRIMETHYLSILYL ESTER

>  <SYNONYMS>  (6781) 
TRIMETHYLSILYL 3ALPHA,4ALPHA,5BETA-TRI(TRIMETHYLSILOXY)-1-CYCLOHEXENE-1-CARBOXYLATE

>  <SPECTRUM TYPE>  (6781) 
MS1

>  <INSTRUMENT TYPE>  (6781) 
EI-B

>  <INSTRUMENT>  (6781) 
JEOL JMS-01-SG

>  <ION MODE>  (6781) 
P

>  <INCHIKEY>  (6781) 
LMFAUEGOCMAFIW-BZSNNMDCSA-N

>  <FORMULA>  (6781) 
C19H42O5Si4

>  <EXACT MASS>  (6781) 
462.210930564

>  <MW>  (6781) 
462

>  <ID>  (6781) 
JP001096

>  <CONTRIBUTOR>  (6781) 
University of Tokyo Team, {Faculty of Engineering, University of Tokyo

>  <COMMENT>  (6781) 
SMILES=C[Si](C)(C)OC(=O)C(C1)=CC(O[Si](C)(C)C)C(O[Si](C)(C)C)C(O[Si](C)(C)C)1
InChI=InChI=1S/C19H42O5Si4/c1-25(2,3)21-16-13-15(19(20)24-28(10,11)12)14-17(22-26(4,5)6)18(16)23-27(7,8)9/h13,16-18H,14H2,1-12H3/t16-,17-,18-/m0/s1
computed SMILES=O=C(O[Si](C)(C)C)C1=CC(O[Si](C)(C)C)C(O[Si](C)(C)C)C(O[Si](C)(C)C)C1
accession=JP001096
date=2016.01.19 (Created 2008.10.21, modified 2011.05.06)
author=KOGA M, UNIV. OF OCCUPATIONAL AND ENVIRONMENTAL HEALTH
license=CC BY-NC-SA
exact mass=462.21093
ionization energy=70 eV
ion type=[M]+*
computed spectral entropy=2.5161820972299003
computed normalized entropy=0.8140237913899083
SPLASH=splash10-052b-4980000000-3d3f2102d2032dcab880
submitter=submitter = University of Tokyo Team (Faculty of Engineering, University of Tokyo)
MoNA Rating=3.75

>  <NUM PEAKS>  (6781) 
22

>  <MASS SPECTRAL PEAKS>  (6781) 
45 38.3
73 15
74 33.5
75 3.15
103 6.8
133 17.1
147 99.99
148 1.5
149 9.5
189 24.6
191 10.9
193 0.82
204 7.5
205 73.9
206 32.1
254 1.43
255 22.6
282 9.5
283 6.1
357 1.3
372 11.6
373 4.7

$$$$

     RDKit          2D

 16 16  0  0  0  0  0  0  0  0999 V2000
   -2.0353    5.8943    0.0000 C   0  0  0  0  0  0  0  0  0  0  0  0
   -5.3834    4.1934    0.0000 C   0  0  0  0  0  0  0  0  0  0  0  0
   -5.9324    2.1443    0.0000 C   0  0  0  0  0  0  0  0  0  0  0  0
   -3.8834    1.5953    0.0000 C   0  0  0  0  0  0  0  0  0  0  0  0
   -0.7363    5.1443    0.0000 C   0  0  0  0  0  0  0  0  0  0  0  0
    3.1608    1.3943    0.0000 C   0  0  0  0  0  0  0  0  0  0  0  0
    3.1613    2.8952    0.0000 C   0  0  0  0  0  0  0  0  0  0  0  0
    1.8613    0.6435    0.0000 C   0  0  0  0  0  0  0  0  0  0  0  0
    1.8623    3.6452    0.0000 C   0  0  0  0  0  0  0  0  0  0  0  0
    0.5623    1.3935    0.0000 C   0  0  0  0  0  0  0  0  0  0  0  0
    0.5627    2.8943    0.0000 C   0  0  0  0  0  0  0  0  0  0  0  0
   -0.7363    3.6443    0.0000 C   0  0  0  0  0  0  0  0  0  0  0  0
   -2.0353    2.8943    0.0000 C   0  0  0  0  0  0  0  0  0  0  0  0
   -2.0353    1.3943    0.0000 O   0  0  0  0  0  0  0  0  0  0  0  0
   -3.3344    3.6443    0.0000 O   0  0  0  0  0  0  0  0  0  0  0  0
   -4.6334    2.8943    0.0000 Si  0  0  0  0  0  4  0  0  0  0  0  0
  5  1  1  0
  7  6  2  0
  8  6  1  0
  9  7  1  0
 10  8  2  0
 11  9  2  0
 11 10  1  0
 12  5  1  0
 12 11  1  0
 13 12  1  0
 14 13  2  0
 15 13  1  0
 16  2  1  0
 16  3  1  0
 16  4  1  0
 16 15  1  0
M  END
>  <NAME>  (6782) 
ALPHA-ETHY-ALPHA-PHENYLACETIC ACID TRIMETHYLSILYL ESTER

>  <SYNONYMS>  (6782) 
TRIMETHYLSILYL 2-PHENYLBUTYRATE

>  <SPECTRUM TYPE>  (6782) 
MS1

>  <INSTRUMENT TYPE>  (6782) 
EI-B

>  <INSTRUMENT>  (6782) 
JEOL JMS-01-SG

>  <ION MODE>  (6782) 
P

>  <INCHIKEY>  (6782) 
VYKUZPWIVBWKQA-UHFFFAOYSA-N

>  <FORMULA>  (6782) 
C13H20O2Si

>  <EXACT MASS>  (6782) 
236.12325641

>  <MW>  (6782) 
236

>  <ID>  (6782) 
JP001094

>  <CONTRIBUTOR>  (6782) 
University of Tokyo Team, {Faculty of Engineering, University of Tokyo

>  <COMMENT>  (6782) 
SMILES=CCC(c(c1)cccc1)C(=O)O[Si](C)(C)C
InChI=InChI=1S/C13H20O2Si/c1-5-12(11-9-7-6-8-10-11)13(14)15-16(2,3)4/h6-10,12H,5H2,1-4H3
computed SMILES=O=C(O[Si](C)(C)C)C(C=1C=CC=CC1)CC
accession=JP001094
date=2016.01.19 (Created 2008.10.21, modified 2011.05.06)
author=KOGA M, UNIV. OF OCCUPATIONAL AND ENVIRONMENTAL HEALTH
license=CC BY-NC-SA
exact mass=236.12326
ionization energy=70 eV
ion type=[M]+*
computed spectral entropy=2.404750888330594
computed normalized entropy=0.747077867916529
SPLASH=splash10-00vl-9500000000-e420e57c1e37a418a5da
submitter=submitter = University of Tokyo Team (Faculty of Engineering, University of Tokyo)
MoNA Rating=3.75

>  <NUM PEAKS>  (6782) 
25

>  <MASS SPECTRAL PEAKS>  (6782) 
43 4.3
44 4.3
45 25
47 1.25
51 5
61 4.3
73 91.8
74 3.68
75 87.5
76 5
77 36.2
78 0.43
89 4.3
90 5
91 38.7
115 0.5
117 23.1
118 99.99
119 7.5
147 0.31
148 5
192 39.3
193 5
221 3.56
222 4.3

$$$$

     RDKit          2D

 14 14  0  0  0  0  0  0  0  0999 V2000
   -5.3834    4.1934    0.0000 C   0  0  0  0  0  0  0  0  0  0  0  0
   -5.9324    2.1443    0.0000 C   0  0  0  0  0  0  0  0  0  0  0  0
   -3.8834    1.5953    0.0000 C   0  0  0  0  0  0  0  0  0  0  0  0
    3.1608    1.3943    0.0000 C   0  0  0  0  0  0  0  0  0  0  0  0
    3.1613    2.8952    0.0000 C   0  0  0  0  0  0  0  0  0  0  0  0
    1.8613    0.6435    0.0000 C   0  0  0  0  0  0  0  0  0  0  0  0
    1.8623    3.6452    0.0000 C   0  0  0  0  0  0  0  0  0  0  0  0
    0.5623    1.3935    0.0000 C   0  0  0  0  0  0  0  0  0  0  0  0
   -0.7363    3.6443    0.0000 C   0  0  0  0  0  0  0  0  0  0  0  0
    0.5627    2.8943    0.0000 C   0  0  0  0  0  0  0  0  0  0  0  0
   -2.0353    2.8943    0.0000 C   0  0  0  0  0  0  0  0  0  0  0  0
   -2.0353    1.3943    0.0000 O   0  0  0  0  0  0  0  0  0  0  0  0
   -3.3344    3.6443    0.0000 O   0  0  0  0  0  0  0  0  0  0  0  0
   -4.6334    2.8943    0.0000 Si  0  0  0  0  0  4  0  0  0  0  0  0
  5  4  1  0
  6  4  1  0
  7  5  1  0
  8  6  1  0
 10  7  1  0
 10  8  1  0
 10  9  1  0
 11  9  1  0
 12 11  2  0
 13 11  1  0
 14  1  1  0
 14  2  1  0
 14  3  1  0
 14 13  1  0
M  END
>  <NAME>  (6783) 
CYCLOHEXYLACETIC ACID TRIMETHYLSILYL ESTER

>  <SYNONYMS>  (6783) 
TRIMETHYLSILYL CYCLOHEXANEACETATE

>  <SPECTRUM TYPE>  (6783) 
MS1

>  <INSTRUMENT TYPE>  (6783) 
EI-B

>  <INSTRUMENT>  (6783) 
JEOL JMS-01-SG

>  <ION MODE>  (6783) 
P

>  <INCHIKEY>  (6783) 
YKJZHLWHFWFOOE-UHFFFAOYSA-N

>  <FORMULA>  (6783) 
C11H22O2Si

>  <EXACT MASS>  (6783) 
214.13890647399998

>  <MW>  (6783) 
214

>  <ID>  (6783) 
JP001093

>  <CONTRIBUTOR>  (6783) 
University of Tokyo Team, {Faculty of Engineering, University of Tokyo

>  <COMMENT>  (6783) 
SMILES=O=C(CC(C1)CCCC1)O[Si](C)(C)C
InChI=InChI=1S/C11H22O2Si/c1-14(2,3)13-11(12)9-10-7-5-4-6-8-10/h10H,4-9H2,1-3H3
computed SMILES=O=C(O[Si](C)(C)C)CC1CCCCC1
accession=JP001093
date=2016.01.19 (Created 2008.10.21, modified 2011.05.06)
author=KOGA M, UNIV. OF OCCUPATIONAL AND ENVIRONMENTAL HEALTH
license=CC BY-NC-SA
exact mass=214.13891
ionization energy=70 eV
ion type=[M]+*
computed spectral entropy=2.606466781376729
computed normalized entropy=0.7663379947984542
SPLASH=splash10-014i-6900000000-1f48680799597aa413b2
submitter=submitter = University of Tokyo Team (Faculty of Engineering, University of Tokyo)
MoNA Rating=3.75

>  <NUM PEAKS>  (6783) 
30

>  <MASS SPECTRAL PEAKS>  (6783) 
43 5.2
44 4.9
45 9.8
47 0.8
55 12.1
59 4.3
61 4.6
67 0.43
72 5.4
73 45.3
74 6
75 7.02
76 5.7
77 15.8
79 9.8
81 0.6
83 2
107 4.3
116 4.6
117 99.99
118 9.5
119 4.9
131 7.8
132 3.41
133 8.3
147 1.7
148 2
155 0.2
199 36.4
200 6.3

$$$$

     RDKit          2D

 17 17  0  0  0  0  0  0  0  0999 V2000
   -4.7795    3.5092    0.0000 C   0  0  0  0  0  0  0  0  0  0  0  0
    6.1626   -0.0656    0.0000 C   0  0  0  0  0  0  0  0  0  0  0  0
    8.2143    0.4733    0.0000 C   0  0  0  0  0  0  0  0  0  0  0  0
    7.6753    2.5250    0.0000 C   0  0  0  0  0  0  0  0  0  0  0  0
   -0.8715    1.2617    0.0000 C   0  0  0  0  0  0  0  0  0  0  0  0
    0.4421    3.4865    0.0000 C   0  0  0  0  0  0  0  0  0  0  0  0
    1.7229    1.2553    0.0000 C   0  0  0  0  0  0  0  0  0  0  0  0
   -2.1560    1.9865    0.0000 C   0  0  0  0  0  0  0  0  0  0  0  0
   -0.8825    4.2807    0.0000 C   0  0  0  0  0  0  0  0  0  0  0  0
    3.0256    1.9989    0.0000 C   0  0  0  0  0  0  0  0  0  0  0  0
    0.4275    2.0117    0.0000 C   0  0  0  0  0  0  0  0  0  0  0  0
   -2.1815    3.5307    0.0000 C   0  0  0  0  0  0  0  0  0  0  0  0
    4.3209    1.2425    0.0000 C   0  0  0  0  0  0  0  0  0  0  0  0
    4.3135   -0.2575    0.0000 O   0  0  0  0  0  0  0  0  0  0  0  0
   -3.4867    4.2699    0.0000 O   0  0  0  0  0  0  0  0  0  0  0  0
    5.6236    1.9861    0.0000 O   0  0  0  0  0  0  0  0  0  0  0  0
    6.9190    1.2297    0.0000 Si  0  0  0  0  0  4  0  0  0  0  0  0
  8  5  2  0
  9  6  1  0
  7 10  2  0
 11  5  1  0
 11  6  2  0
 11  7  1  0
 12  8  1  0
 12  9  2  0
 13 10  1  0
 14 13  2  0
 15  1  1  0
 15 12  1  0
 16 13  1  0
 17  2  1  0
 17  3  1  0
 17  4  1  0
 17 16  1  0
M  END
>  <NAME>  (6784) 
PARA-METHOXYCINNAMIC ACID TRIMETHYLSILYL ESTER

>  <SYNONYMS>  (6784) 
TRIMETHYLSILYL 4-METHOXYCINNAMATE

>  <SPECTRUM TYPE>  (6784) 
MS1

>  <INSTRUMENT TYPE>  (6784) 
EI-B

>  <INSTRUMENT>  (6784) 
JEOL JMS-01-SG

>  <ION MODE>  (6784) 
P

>  <INCHIKEY>  (6784) 
YQVAQSPGNGFHAH-JXMROGBWSA-N

>  <FORMULA>  (6784) 
C13H18O3Si

>  <EXACT MASS>  (6784) 
250.102520966

>  <MW>  (6784) 
250

>  <ID>  (6784) 
JP001092

>  <CONTRIBUTOR>  (6784) 
University of Tokyo Team, {Faculty of Engineering, University of Tokyo

>  <COMMENT>  (6784) 
SMILES=COc(c1)ccc(c1)C=CC(=O)O[Si](C)(C)C
InChI=InChI=1S/C13H18O3Si/c1-15-12-8-5-11(6-9-12)7-10-13(14)16-17(2,3)4/h5-10H,1-4H3/b10-7+
computed SMILES=O=C(O[Si](C)(C)C)C=CC1=CC=C(OC)C=C1
accession=JP001092
date=2016.01.19 (Created 2008.10.21, modified 2011.05.06)
author=KOGA M, UNIV. OF OCCUPATIONAL AND ENVIRONMENTAL HEALTH
license=CC BY-NC-SA
exact mass=250.10252
ionization energy=70 eV
ion type=[M]+*
computed spectral entropy=2.2879009906638816
computed normalized entropy=0.8251858533189321
SPLASH=splash10-03du-2940000000-719ec2dde6cbd77d0022
submitter=submitter = University of Tokyo Team (Faculty of Engineering, University of Tokyo)
MoNA Rating=3.75

>  <NUM PEAKS>  (6784) 
16

>  <MASS SPECTRAL PEAKS>  (6784) 
73 14.4
75 22.3
77 18.8
90 0.69
118 8.8
121 19.4
133 24.8
161 99.99
162 9.4
165 5.9
191 58.4
192 0.81
235 60.3
236 8.8
250 31.7
251 5

$$$$

     RDKit          2D

 13 13  0  0  0  0  0  0  0  0999 V2000
   -1.2226    4.5396    0.0000 C   0  0  0  0  0  0  0  0  0  0  0  0
   -2.1704    2.6418    0.0000 C   0  0  0  0  0  0  0  0  0  0  0  0
   -0.2726    1.6940    0.0000 C   0  0  0  0  0  0  0  0  0  0  0  0
    5.5895   -0.0207    0.0000 C   0  0  0  0  0  0  0  0  0  0  0  0
    6.5606    1.1173    0.0000 C   0  0  0  0  0  0  0  0  0  0  0  0
    4.2001    0.5859    0.0000 C   0  0  0  0  0  0  0  0  0  0  0  0
    5.7983    2.3977    0.0000 C   0  0  0  0  0  0  0  0  0  0  0  0
    3.2208    3.0721    0.0000 C   0  0  0  0  0  0  0  0  0  0  0  0
    4.3435    2.0774    0.0000 C   0  0  0  0  0  0  0  0  0  0  0  0
    1.7980    2.5971    0.0000 C   0  0  0  0  0  0  0  0  0  0  0  0
    1.4979    1.1274    0.0000 O   0  0  0  0  0  0  0  0  0  0  0  0
    0.6752    3.5918    0.0000 O   0  0  0  0  0  0  0  0  0  0  0  0
   -0.7476    3.1168    0.0000 Si  0  0  0  0  0  4  0  0  0  0  0  0
  5  4  1  0
  6  4  1  0
  7  5  1  0
  9  6  1  0
  9  7  1  0
  9  8  1  0
 10  8  1  0
 11 10  2  0
 12 10  1  0
 13  1  1  0
 13  2  1  0
 13  3  1  0
 13 12  1  0
M  END
>  <NAME>  (6785) 
CYCLOPENTYLACETIC ACID TRIMETHYLSILYL ESTER

>  <SYNONYMS>  (6785) 
TRIMETHYLSILYL CYCLOPENTANECARBOXYLATE

>  <SPECTRUM TYPE>  (6785) 
MS1

>  <INSTRUMENT TYPE>  (6785) 
EI-B

>  <INSTRUMENT>  (6785) 
JEOL JMS-01-SG

>  <ION MODE>  (6785) 
P

>  <INCHIKEY>  (6785) 
MPPGRILZFNBLIQ-UHFFFAOYSA-N

>  <FORMULA>  (6785) 
C10H20O2Si

>  <EXACT MASS>  (6785) 
200.12325641

>  <MW>  (6785) 
200

>  <ID>  (6785) 
JP001091

>  <CONTRIBUTOR>  (6785) 
University of Tokyo Team, {Faculty of Engineering, University of Tokyo

>  <COMMENT>  (6785) 
SMILES=O=C(CC(C1)CCC1)O[Si](C)(C)C
InChI=InChI=1S/C10H20O2Si/c1-13(2,3)12-10(11)8-9-6-4-5-7-9/h9H,4-8H2,1-3H3
computed SMILES=O=C(O[Si](C)(C)C)CC1CCCC1
accession=JP001091
date=2016.01.19 (Created 2008.10.21, modified 2011.05.06)
author=KOGA M, UNIV. OF OCCUPATIONAL AND ENVIRONMENTAL HEALTH
license=CC BY-NC-SA
exact mass=200.12326
ionization energy=70 eV
ion type=[M]+*
computed spectral entropy=2.139710169924967
computed normalized entropy=0.7717373127726078
SPLASH=splash10-00vr-9600000000-e54817d7f3770943d7a1
submitter=submitter = University of Tokyo Team (Faculty of Engineering, University of Tokyo)
MoNA Rating=3.75

>  <NUM PEAKS>  (6785) 
16

>  <MASS SPECTRAL PEAKS>  (6785) 
43 11.1
44 4.1
45 20.1
58 0.98
73 98.3
74 10.2
75 99.99
76 0.9
77 16.8
93 9.8
117 72.4
118 0.86
132 16.8
167 10.2
185 92.1
186 16

$$$$

     RDKit          2D

 17 16  0  0  0  0  0  0  0  0999 V2000
    4.1349    7.6373    0.0000 C   0  0  0  0  0  0  0  0  0  0  0  0
  -12.2036    8.9363    0.0000 C   0  0  0  0  0  0  0  0  0  0  0  0
  -12.7526    6.8873    0.0000 C   0  0  0  0  0  0  0  0  0  0  0  0
  -10.7036    6.3382    0.0000 C   0  0  0  0  0  0  0  0  0  0  0  0
    2.8358    8.3873    0.0000 C   0  0  0  0  0  0  0  0  0  0  0  0
    1.5368    7.6373    0.0000 C   0  0  0  0  0  0  0  0  0  0  0  0
    0.2377    8.3873    0.0000 C   0  0  0  0  0  0  0  0  0  0  0  0
   -1.0613    7.6373    0.0000 C   0  0  0  0  0  0  0  0  0  0  0  0
   -2.3603    8.3873    0.0000 C   0  0  0  0  0  0  0  0  0  0  0  0
   -3.6594    7.6373    0.0000 C   0  0  0  0  0  0  0  0  0  0  0  0
   -4.9584    8.3873    0.0000 C   0  0  0  0  0  0  0  0  0  0  0  0
   -6.2575    7.6373    0.0000 C   0  0  0  0  0  0  0  0  0  0  0  0
   -7.5565    8.3873    0.0000 C   0  0  0  0  0  0  0  0  0  0  0  0
   -8.8555    7.6373    0.0000 C   0  0  0  0  0  0  0  0  0  0  0  0
   -8.8555    6.1373    0.0000 O   0  0  0  0  0  0  0  0  0  0  0  0
  -10.1546    8.3873    0.0000 O   0  0  0  0  0  0  0  0  0  0  0  0
  -11.4536    7.6373    0.0000 Si  0  0  0  0  0  4  0  0  0  0  0  0
  5  1  2  0
  6  5  1  0
  7  6  1  0
  8  7  1  0
  9  8  1  0
 10  9  1  0
 11 10  1  0
 12 11  1  0
 13 12  1  0
 14 13  1  0
 15 14  2  0
 16 14  1  0
 17  2  1  0
 17  3  1  0
 17  4  1  0
 17 16  1  0
M  END
>  <NAME>  (6786) 
10-UNDECENOIC ACID TRIMETHYLSILYL ESTER

>  <SYNONYMS>  (6786) 
TRIMETHYLSILYL 10-UNDECENOATE

>  <SPECTRUM TYPE>  (6786) 
MS1

>  <INSTRUMENT TYPE>  (6786) 
EI-B

>  <INSTRUMENT>  (6786) 
JEOL JMS-01-SG

>  <ION MODE>  (6786) 
P

>  <INCHIKEY>  (6786) 
VMXRWOBZWPBJEY-UHFFFAOYSA-N

>  <FORMULA>  (6786) 
C14H28O2Si

>  <EXACT MASS>  (6786) 
256.185856666

>  <MW>  (6786) 
256

>  <ID>  (6786) 
JP001090

>  <CONTRIBUTOR>  (6786) 
University of Tokyo Team, {Faculty of Engineering, University of Tokyo

>  <COMMENT>  (6786) 
SMILES=C=CCCCCCCCCC(=O)O[Si](C)(C)C
InChI=InChI=1S/C14H28O2Si/c1-5-6-7-8-9-10-11-12-13-14(15)16-17(2,3)4/h5H,1,6-13H2,2-4H3
computed SMILES=O=C(O[Si](C)(C)C)CCCCCCCCC=C
accession=JP001090
date=2016.01.19 (Created 2008.10.21, modified 2011.05.06)
author=KOGA M, UNIV. OF OCCUPATIONAL AND ENVIRONMENTAL HEALTH
license=CC BY-NC-SA
exact mass=256.18586
ionization energy=70 eV
ion type=[M]+*
computed spectral entropy=2.6711245539120245
computed normalized entropy=0.7639407342770683
SPLASH=splash10-00b9-9400000000-fcef3116190d971a2469
submitter=submitter = University of Tokyo Team (Faculty of Engineering, University of Tokyo)
MoNA Rating=3.75

>  <NUM PEAKS>  (6786) 
33

>  <MASS SPECTRAL PEAKS>  (6786) 
44 4.2
45 10
47 6.3
55 2.36
61 6.3
67 9.4
69 8.4
72 0.52
73 99.99
74 10
75 98.4
76 0.63
77 18.9
81 9.4
82 5.7
83 0.57
84 7.8
95 5.7
96 7.8
97 0.57
98 6.3
116 5.2
117 73.1
118 0.57
124 6.3
129 31
131 20.5
132 1.89
145 14.2
147 8.4
166 3.6
241 5.36
242 5.7

$$$$

     RDKit          2D

 21 23  0  0  0  0  0  0  0  0999 V2000
    0.2010    5.2500    0.0000 C   0  0  0  0  0  0  0  0  0  0  0  0
   -1.2990    6.7500    0.0000 C   0  0  0  0  0  0  0  0  0  0  0  0
   -2.7990    5.2500    0.0000 C   0  0  0  0  0  0  0  0  0  0  0  0
    3.9000   -0.7500    0.0000 C   0  0  0  0  0  0  0  0  0  0  0  0
   -3.9000   -0.7500    0.0000 C   0  0  0  0  0  0  0  0  0  0  0  0
    3.9000    0.7500    0.0000 C   0  0  0  0  0  0  0  0  0  0  0  0
   -3.9000    0.7500    0.0000 C   0  0  0  0  0  0  0  0  0  0  0  0
    2.6000   -1.5000    0.0000 C   0  0  0  0  0  0  0  0  0  0  0  0
   -2.6000   -1.5000    0.0000 C   0  0  0  0  0  0  0  0  0  0  0  0
    2.6000    1.5000    0.0000 C   0  0  0  0  0  0  0  0  0  0  0  0
   -2.6000    1.5000    0.0000 C   0  0  0  0  0  0  0  0  0  0  0  0
   -0.0000   -1.5000    0.0000 C   0  0  0  0  0  0  0  0  0  0  0  0
    1.3000   -0.7500    0.0000 C   0  0  0  0  0  0  0  0  0  0  0  0
   -1.3000   -0.7500    0.0000 C   0  0  0  0  0  0  0  0  0  0  0  0
    1.3000    0.7500    0.0000 C   0  0  0  0  0  0  0  0  0  0  0  0
   -1.3000    0.7500    0.0000 C   0  0  0  0  0  0  0  0  0  0  0  0
   -0.0000    1.5000    0.0000 C   0  0  0  0  0  0  0  0  0  0  0  0
    0.0000    3.0000    0.0000 C   0  0  0  0  0  0  0  0  0  0  0  0
    1.2990    3.7500    0.0000 O   0  0  0  0  0  0  0  0  0  0  0  0
   -1.2990    3.7500    0.0000 O   0  0  0  0  0  0  0  0  0  0  0  0
   -1.2990    5.2500    0.0000 Si  0  0  0  0  0  4  0  0  0  0  0  0
  6  4  2  0
  7  5  1  0
  8  4  1  0
  9  5  2  0
 10  6  1  0
 11  7  2  0
 13  8  2  0
 13 12  1  0
 14  9  1  0
 14 12  2  0
 15 10  2  0
 15 13  1  0
 16 11  1  0
 16 14  1  0
 17 15  1  0
 17 16  2  0
 18 17  1  0
 19 18  2  0
 20 18  1  0
 21  1  1  0
 21  2  1  0
 21  3  1  0
 21 20  1  0
M  END
>  <NAME>  (6787) 
ANTHRACENE-9-CARBOXYLIC ACID TRIMETHYLSILYL ESTER

>  <SYNONYMS>  (6787) 
TRIMETHYLSILYL 9-ANTHRACENECARBOXYLATE

>  <SPECTRUM TYPE>  (6787) 
MS1

>  <INSTRUMENT TYPE>  (6787) 
EI-B

>  <INSTRUMENT>  (6787) 
JEOL JMS-01-SG

>  <ION MODE>  (6787) 
P

>  <INCHIKEY>  (6787) 
JTUMBWFAVUSXJY-UHFFFAOYSA-N

>  <FORMULA>  (6787) 
C18H18O2Si

>  <EXACT MASS>  (6787) 
294.107606346

>  <MW>  (6787) 
294

>  <ID>  (6787) 
JP001089

>  <CONTRIBUTOR>  (6787) 
University of Tokyo Team, {Faculty of Engineering, University of Tokyo

>  <COMMENT>  (6787) 
SMILES=C[Si](C)(C)OC(=O)c(c21)c(c3)c(ccc3)cc(cccc2)1
InChI=InChI=1S/C18H18O2Si/c1-21(2,3)20-18(19)17-15-10-6-4-8-13(15)12-14-9-5-7-11-16(14)17/h4-12H,1-3H3
computed SMILES=O=C(O[Si](C)(C)C)C=1C=2C=CC=CC2C=C3C=CC=CC31
accession=JP001089
date=2016.01.19 (Created 2008.10.21, modified 2011.05.06)
author=KOGA M, UNIV. OF OCCUPATIONAL AND ENVIRONMENTAL HEALTH
license=CC BY-NC-SA
exact mass=294.10761
ionization energy=70 eV
ion type=[M]+*
computed spectral entropy=2.659753027569766
computed normalized entropy=0.8878473724270308
SPLASH=splash10-004i-2690000000-5da2f1a3f2ee73044e2a
submitter=submitter = University of Tokyo Team (Faculty of Engineering, University of Tokyo)
MoNA Rating=3.75

>  <NUM PEAKS>  (6787) 
20

>  <MASS SPECTRAL PEAKS>  (6787) 
45 26
73 37.8
75 23.9
88 1.91
140 17.4
150 15.8
151 33.3
175 1.09
176 96.7
177 41
178 35.7
191 0.6
206 59.7
235 34.9
236 7
279 99.99
280 21.9
293 34.1
294 52.8
295 13.4

$$$$

     RDKit          2D

 20 22  0  0  0  0  0  0  0  0999 V2000
    0.2010    5.5900    0.0000 C   0  0  0  0  0  0  0  0  0  0  0  0
   -1.2990    7.0900    0.0000 C   0  0  0  0  0  0  0  0  0  0  0  0
   -2.7990    5.5900    0.0000 C   0  0  0  0  0  0  0  0  0  0  0  0
    3.2200   -1.2700    0.0000 C   0  0  0  0  0  0  0  0  0  0  0  0
   -3.2200   -1.2700    0.0000 C   0  0  0  0  0  0  0  0  0  0  0  0
    3.6900    0.1600    0.0000 C   0  0  0  0  0  0  0  0  0  0  0  0
   -3.6800    0.1600    0.0000 C   0  0  0  0  0  0  0  0  0  0  0  0
    1.7500   -1.5800    0.0000 C   0  0  0  0  0  0  0  0  0  0  0  0
   -1.7500   -1.5800    0.0000 C   0  0  0  0  0  0  0  0  0  0  0  0
    2.6800    1.2700    0.0000 C   0  0  0  0  0  0  0  0  0  0  0  0
   -2.6800    1.2700    0.0000 C   0  0  0  0  0  0  0  0  0  0  0  0
    0.7500   -0.4700    0.0000 C   0  0  0  0  0  0  0  0  0  0  0  0
   -0.7500   -0.4700    0.0000 C   0  0  0  0  0  0  0  0  0  0  0  0
    1.2100    0.9600    0.0000 C   0  0  0  0  0  0  0  0  0  0  0  0
   -1.2100    0.9600    0.0000 C   0  0  0  0  0  0  0  0  0  0  0  0
   -0.0000    1.8400    0.0000 C   0  0  0  0  0  0  0  0  0  0  0  0
    0.0000    3.3400    0.0000 C   0  0  0  0  0  0  0  0  0  0  0  0
    1.2990    4.0900    0.0000 O   0  0  0  0  0  0  0  0  0  0  0  0
   -1.2990    4.0900    0.0000 O   0  0  0  0  0  0  0  0  0  0  0  0
   -1.2990    5.5900    0.0000 Si  0  0  0  0  0  4  0  0  0  0  0  0
  6  4  2  0
  7  5  2  0
  8  4  1  0
  9  5  1  0
 10  6  1  0
 11  7  1  0
 12  8  2  0
 13  9  2  0
 13 12  1  0
 14 10  2  0
 14 12  1  0
 15 11  2  0
 15 13  1  0
 16 14  1  0
 16 15  1  0
 17 16  1  0
 18 17  2  0
 19 17  1  0
 20  1  1  0
 20  2  1  0
 20  3  1  0
 20 19  1  0
M  END
>  <NAME>  (6788) 
9-FLUORENECARBOXYLIC ACID TRIMETHYLSILYL ESTER

>  <SYNONYMS>  (6788) 
TRIMETHYLSILYL 9-FLUORENECARBOXYLATE

>  <SPECTRUM TYPE>  (6788) 
MS1

>  <INSTRUMENT TYPE>  (6788) 
EI-B

>  <INSTRUMENT>  (6788) 
JEOL JMS-01-SG

>  <ION MODE>  (6788) 
P

>  <INCHIKEY>  (6788) 
XYXUFGRMSJQXCQ-UHFFFAOYSA-N

>  <FORMULA>  (6788) 
C17H18O2Si

>  <EXACT MASS>  (6788) 
282.107606346

>  <MW>  (6788) 
282

>  <ID>  (6788) 
JP001088

>  <CONTRIBUTOR>  (6788) 
University of Tokyo Team, {Faculty of Engineering, University of Tokyo

>  <COMMENT>  (6788) 
SMILES=C[Si](C)(C)OC(=O)C(c21)c(c3)c(ccc3)c(cccc2)1
InChI=InChI=1S/C17H18O2Si/c1-20(2,3)19-17(18)16-14-10-6-4-8-12(14)13-9-5-7-11-15(13)16/h4-11,16H,1-3H3
computed SMILES=O=C(O[Si](C)(C)C)C1C=2C=CC=CC2C=3C=CC=CC31
accession=JP001088
date=2016.01.19 (Created 2008.10.21, modified 2011.05.06)
author=KOGA M, UNIV. OF OCCUPATIONAL AND ENVIRONMENTAL HEALTH
license=CC BY-NC-SA
exact mass=282.10761
ionization energy=70 eV
ion type=[M]+*
computed spectral entropy=2.476225546290445
computed normalized entropy=0.7144876631511577
SPLASH=splash10-00di-9200000000-4050903235737411937d
submitter=submitter = University of Tokyo Team (Faculty of Engineering, University of Tokyo)
MoNA Rating=3.75

>  <NUM PEAKS>  (6788) 
32

>  <MASS SPECTRAL PEAKS>  (6788) 
43 2
44 10.4
45 12.6
49 0.47
61 2.7
63 4
70 2.7
73 99.99
74 8.9
75 18.2
77 17.4
79 0.28
82 3.2
91 2.5
92 2.5
93 0.44
95 2.9
104 2.8
115 2.6
117 0.27
152 2.9
163 6.5
164 8.7
165 2.16
166 9.9
167 3
180 3.4
192 0.32
238 5.2
239 2.6
267 2.7
282 2.4

$$$$

     RDKit          2D

 15 15  0  0  0  0  0  0  0  0999 V2000
    4.4586    3.6002    0.0000 C   0  0  0  0  0  0  0  0  0  0  0  0
   -1.2873    2.6490    0.0000 C   0  0  0  0  0  0  0  0  0  0  0  0
   -3.3362    2.0996    0.0000 C   0  0  0  0  0  0  0  0  0  0  0  0
   -2.7869    0.0507    0.0000 C   0  0  0  0  0  0  0  0  0  0  0  0
    3.1602   -1.6512    0.0000 C   0  0  0  0  0  0  0  0  0  0  0  0
    4.4592   -0.9012    0.0000 C   0  0  0  0  0  0  0  0  0  0  0  0
    1.8606   -0.9004    0.0000 C   0  0  0  0  0  0  0  0  0  0  0  0
    4.4587    0.5996    0.0000 C   0  0  0  0  0  0  0  0  0  0  0  0
    1.8602    0.6004    0.0000 C   0  0  0  0  0  0  0  0  0  0  0  0
    3.1592    1.3504    0.0000 C   0  0  0  0  0  0  0  0  0  0  0  0
    0.5610    1.3502    0.0000 C   0  0  0  0  0  0  0  0  0  0  0  0
    0.5608    2.8502    0.0000 O   0  0  0  0  0  0  0  0  0  0  0  0
    3.1594    2.8504    0.0000 O   0  0  0  0  0  0  0  0  0  0  0  0
   -0.7379    0.6000    0.0000 O   0  0  0  0  0  0  0  0  0  0  0  0
   -2.0371    1.3498    0.0000 Si  0  0  0  0  0  4  0  0  0  0  0  0
  6  5  2  0
  7  5  1  0
  8  6  1  0
  9  7  2  0
 10  8  2  0
 10  9  1  0
 11  9  1  0
 12 11  2  0
 13  1  1  0
 13 10  1  0
 14 11  1  0
 15  2  1  0
 15  3  1  0
 15  4  1  0
 15 14  1  0
M  END
>  <NAME>  (6789) 
ORTHO-METHOXYBENZOIC ACID TRIMETHYLSILYL ESTER

>  <SYNONYMS>  (6789) 
TRIMETHYLSILYL 2-METHOXYBENZOATE

>  <SPECTRUM TYPE>  (6789) 
MS1

>  <INSTRUMENT TYPE>  (6789) 
EI-B

>  <INSTRUMENT>  (6789) 
JEOL JMS-01-SG

>  <ION MODE>  (6789) 
P

>  <INCHIKEY>  (6789) 
LWBFIZBQVRDUMY-UHFFFAOYSA-N

>  <FORMULA>  (6789) 
C11H16O3Si

>  <EXACT MASS>  (6789) 
224.086870902

>  <MW>  (6789) 
224

>  <ID>  (6789) 
JP001087

>  <CONTRIBUTOR>  (6789) 
University of Tokyo Team, {Faculty of Engineering, University of Tokyo

>  <COMMENT>  (6789) 
SMILES=COc(c1)c(ccc1)C(=O)O[Si](C)(C)C
InChI=InChI=1S/C11H16O3Si/c1-13-10-8-6-5-7-9(10)11(12)14-15(2,3)4/h5-8H,1-4H3
computed SMILES=O=C(O[Si](C)(C)C)C=1C=CC=CC1OC
accession=JP001087
date=2016.01.19 (Created 2008.10.21, modified 2011.05.06)
author=KOGA M, UNIV. OF OCCUPATIONAL AND ENVIRONMENTAL HEALTH
license=CC BY-NC-SA
exact mass=224.08687
ionization energy=70 eV
ion type=[M]+*
computed spectral entropy=2.9237865824771405
computed normalized entropy=0.8158981807242235
SPLASH=splash10-057i-9830000000-7c5c591325987a581d23
submitter=submitter = University of Tokyo Team (Faculty of Engineering, University of Tokyo)
MoNA Rating=3.75

>  <NUM PEAKS>  (6789) 
36

>  <MASS SPECTRAL PEAKS>  (6789) 
43 5.4
44 4.8
45 22.7
47 1.51
49 3.7
51 5.4
59 8.6
63 0.54
64 11.8
73 26.4
75 29.7
76 0.48
77 99.99
78 9.7
79 9.1
91 2.27
92 34
104 10.2
105 25.9
106 0.54
120 3.7
133 4.3
134 92.9
135 3.18
136 41
137 5.4
147 14.5
149 1.29
150 5.4
165 31.3
179 23.2
194 1.24
209 76.2
210 10.8
224 23.7
225 3.7

$$$$

     RDKit          2D

 33 33  0  0  0  0  0  0  0  0999 V2000
   -8.1546    1.7841    0.0000 C   0  0  0  0  0  0  0  0  0  0  0  0
   -8.7036   -0.2650    0.0000 C   0  0  0  0  0  0  0  0  0  0  0  0
   -6.6546   -0.8140    0.0000 C   0  0  0  0  0  0  0  0  0  0  0  0
    2.1994    5.3287    0.0000 C   0  0  0  0  0  0  0  0  0  0  0  0
    1.4383    7.3088    0.0000 C   0  0  0  0  0  0  0  0  0  0  0  0
   -0.5418    6.5477    0.0000 C   0  0  0  0  0  0  0  0  0  0  0  0
   -1.5394   -3.0762    0.0000 C   0  0  0  0  0  0  0  0  0  0  0  0
    0.2426   -4.2272    0.0000 C   0  0  0  0  0  0  0  0  0  0  0  0
    1.3935   -2.4452    0.0000 C   0  0  0  0  0  0  0  0  0  0  0  0
    2.5763    1.1470    0.0000 C   0  0  0  0  0  0  0  0  0  0  0  0
    4.2254    2.4813    0.0000 C   0  0  0  0  0  0  0  0  0  0  0  0
    2.8912    4.1305    0.0000 C   0  0  0  0  0  0  0  0  0  0  0  0
   -3.3417    2.7279    0.0000 C   0  0  0  0  0  0  0  0  0  0  0  0
   -3.5075    1.2350    0.0000 C   0  0  0  0  0  0  0  0  0  0  0  0
   -1.8819    3.0396    0.0000 C   0  0  0  0  0  0  0  0  0  0  0  0
   -2.1317    0.6321    0.0000 C   0  0  0  0  0  0  0  0  0  0  0  0
   -1.1319    1.7405    0.0000 C   0  0  0  0  0  0  0  0  0  0  0  0
   -4.8065    0.4850    0.0000 C   0  0  0  0  0  0  0  0  0  0  0  0
   -1.2724    4.4101    0.0000 C   0  0  0  0  0  0  0  0  0  0  0  0
   -1.8162   -0.8343    0.0000 C   0  0  0  0  0  0  0  0  0  0  0  0
    0.3598    1.5831    0.0000 C   0  0  0  0  0  0  0  0  0  0  0  0
   -4.8065   -1.0150    0.0000 O   0  0  0  0  0  0  0  0  0  0  0  0
   -2.1546    5.6233    0.0000 O   0  0  0  0  0  0  0  0  0  0  0  0
   -2.9284   -1.8408    0.0000 O   0  0  0  0  0  0  0  0  0  0  0  0
    0.9693    0.2125    0.0000 O   0  0  0  0  0  0  0  0  0  0  0  0
   -6.1055    1.2350    0.0000 O   0  0  0  0  0  0  0  0  0  0  0  0
    0.2193    4.5676    0.0000 O   0  0  0  0  0  0  0  0  0  0  0  0
   -0.3884   -1.2943    0.0000 O   0  0  0  0  0  0  0  0  0  0  0  0
    1.2420    2.7962    0.0000 O   0  0  0  0  0  0  0  0  0  0  0  0
   -7.4046    0.4850    0.0000 Si  0  0  0  0  0  4  0  0  0  0  0  0
    0.8288    5.9382    0.0000 Si  0  0  0  0  0  4  0  0  0  0  0  0
   -0.0729   -2.7607    0.0000 Si  0  0  0  0  0  4  0  0  0  0  0  0
    2.7337    2.6387    0.0000 Si  0  0  0  0  0  4  0  0  0  0  0  0
 14 13  1  0
 15 13  1  0
 16 14  1  0
 17 15  1  0
 17 16  1  0
 18 14  1  0
 19 15  1  0
 20 16  1  0
 21 17  1  0
 22 18  2  0
 23 19  2  0
 24 20  2  0
 25 21  2  0
 26 18  1  0
 27 19  1  0
 28 20  1  0
 29 21  1  0
 30  1  1  0
 30  2  1  0
 30  3  1  0
 30 26  1  0
 31  4  1  0
 31  5  1  0
 31  6  1  0
 31 27  1  0
 32  7  1  0
 32  8  1  0
 32  9  1  0
 32 28  1  0
 33 10  1  0
 33 11  1  0
 33 12  1  0
 33 29  1  0
M  END
>  <NAME>  (6790) 
1,2,3,4-CYCLOPENTANETETRACARBOXYLIC ACID TETRA(TRIMETHYLSILYL) ESTER

>  <SYNONYMS>  (6790) 
TETRA(TRIMETHYLSILYL) 1,2,3,4-CYCLOPENTANETETRACARBOXYLATE

>  <SPECTRUM TYPE>  (6790) 
MS1

>  <INSTRUMENT TYPE>  (6790) 
EI-B

>  <INSTRUMENT>  (6790) 
JEOL JMS-01-SG

>  <ION MODE>  (6790) 
P

>  <INCHIKEY>  (6790) 
ZZWJSMOLYCPOFX-UHFFFAOYSA-N

>  <FORMULA>  (6790) 
C21H42O8Si4

>  <EXACT MASS>  (6790) 
534.195674424

>  <MW>  (6790) 
534

>  <ID>  (6790) 
JP001086

>  <CONTRIBUTOR>  (6790) 
University of Tokyo Team, {Faculty of Engineering, University of Tokyo

>  <COMMENT>  (6790) 
SMILES=C[Si](C)(C)OC(=O)C(C1)C(C(=O)O[Si](C)(C)C)C(C(=O)O[Si](C)(C)C)C(C(=O)O[Si](C)(C)C)1
InChI=InChI=1S/C21H42O8Si4/c1-30(2,3)26-18(22)14-13-15(19(23)27-31(4,5)6)17(21(25)29-33(10,11)12)16(14)20(24)28-32(7,8)9/h14-17H,13H2,1-12H3
computed SMILES=O=C(O[Si](C)(C)C)C1CC(C(=O)O[Si](C)(C)C)C(C(=O)O[Si](C)(C)C)C1C(=O)O[Si](C)(C)C
accession=JP001086
date=2016.01.19 (Created 2008.10.21, modified 2011.05.06)
author=KOGA M, UNIV. OF OCCUPATIONAL AND ENVIRONMENTAL HEALTH
license=CC BY-NC-SA
exact mass=534.19567
ionization energy=70 eV
ion type=[M]+*
computed spectral entropy=2.593448803555086
computed normalized entropy=0.7960012152156758
SPLASH=splash10-0095-9201000000-17a0d05f0e475ef24937
submitter=submitter = University of Tokyo Team (Faculty of Engineering, University of Tokyo)
MoNA Rating=3.75

>  <NUM PEAKS>  (6790) 
26

>  <MASS SPECTRAL PEAKS>  (6790) 
43 6.8
44 66.6
45 41.6
47 0.98
55 8.3
57 7.5
73 99.99
74 0.98
75 65.9
76 8.3
77 31
78 0.9
93 38.6
95 8.3
147 87.1
148 0.83
149 7.5
217 7.5
221 9
255 1.13
283 12.1
327 8.3
333 8.3
357 1.13
373 28
374 8.3

$$$$

     RDKit          2D

 33 34  0  0  0  0  0  0  0  0999 V2000
    5.2198    3.1698    0.0000 C   0  0  0  0  0  0  0  0  0  0  0  0
   11.5130   -1.5212    0.0000 C   0  0  0  0  0  0  0  0  0  0  0  0
   12.0451    0.5323    0.0000 C   0  0  0  0  0  0  0  0  0  0  0  0
    9.9916    1.0644    0.0000 C   0  0  0  0  0  0  0  0  0  0  0  0
    2.3007    7.5524    0.0000 C   0  0  0  0  0  0  0  0  0  0  0  0
    1.3884    9.4676    0.0000 C   0  0  0  0  0  0  0  0  0  0  0  0
   -0.5267    8.5552    0.0000 C   0  0  0  0  0  0  0  0  0  0  0  0
   -2.9925    2.6102    0.0000 C   0  0  0  0  0  0  0  0  0  0  0  0
   -3.5516    0.5639    0.0000 C   0  0  0  0  0  0  0  0  0  0  0  0
   -1.5053    0.0048    0.0000 C   0  0  0  0  0  0  0  0  0  0  0  0
    6.8443    2.0191    0.0000 C   0  0  0  0  0  0  0  0  0  0  0  0
    5.5307   -0.2057    0.0000 C   0  0  0  0  0  0  0  0  0  0  0  0
    1.8142    2.9188    0.0000 C   0  0  0  0  0  0  0  0  0  0  0  0
    3.8095    4.5602    0.0000 C   0  0  0  0  0  0  0  0  0  0  0  0
    8.1288    1.2943    0.0000 C   0  0  0  0  0  0  0  0  0  0  0  0
    6.8553   -0.9999    0.0000 C   0  0  0  0  0  0  0  0  0  0  0  0
    0.8551    4.0393    0.0000 C   0  0  0  0  0  0  0  0  0  0  0  0
    2.8365    5.7595    0.0000 C   0  0  0  0  0  0  0  0  0  0  0  0
    1.6519    2.0383    0.0000 C   0  0  0  0  0  0  0  0  0  0  0  0
    2.9472    1.2819    0.0000 C   0  0  0  0  0  0  0  0  0  0  0  0
    5.5453    1.2691    0.0000 C   0  0  0  0  0  0  0  0  0  0  0  0
    3.2914    3.1793    0.0000 C   0  0  0  0  0  0  0  0  0  0  0  0
    8.1543   -0.2499    0.0000 C   0  0  0  0  0  0  0  0  0  0  0  0
    1.3592    5.4990    0.0000 C   0  0  0  0  0  0  0  0  0  0  0  0
    0.3492    1.2947    0.0000 C   0  0  0  0  0  0  0  0  0  0  0  0
    4.2499    2.0255    0.0000 C   0  0  0  0  0  0  0  0  0  0  0  0
    0.3418   -0.2053    0.0000 O   0  0  0  0  0  0  0  0  0  0  0  0
    9.4595   -0.9891    0.0000 O   0  0  0  0  0  0  0  0  0  0  0  0
    0.3856    6.6401    0.0000 O   0  0  0  0  0  0  0  0  0  0  0  0
   -0.9462    2.0511    0.0000 O   0  0  0  0  0  0  0  0  0  0  0  0
   10.7523   -0.2284    0.0000 Si  0  0  0  0  0  4  0  0  0  0  0  0
    0.8870    8.0538    0.0000 Si  0  0  0  0  0  4  0  0  0  0  0  0
   -2.2489    1.3075    0.0000 Si  0  0  0  0  0  4  0  0  0  0  0  0
 15 11  2  0
 16 12  1  0
 17 13  2  0
 18 14  1  0
 20 19  1  0
 21 11  1  0
 21 12  2  0
 22 13  1  0
 22 14  2  0
 23 15  1  0
 23 16  2  0
 24 17  1  0
 24 18  2  0
 25 19  1  0
 26  1  1  0
 26 20  1  0
 26 21  1  0
 26 22  1  0
 27 25  2  0
 28 23  1  0
 29 24  1  0
 30 25  1  0
 31  2  1  0
 31  3  1  0
 31  4  1  0
 31 28  1  0
 32  5  1  0
 32  6  1  0
 32  7  1  0
 32 29  1  0
 33  8  1  0
 33  9  1  0
 33 10  1  0
 33 30  1  0
M  END
>  <NAME>  (6791) 
4,4-BIS(PARA-(TRIMETHYLSILYL)OXY-PHENYL)-VALERIC ACID TRIMETHYLSILYL ESTER

>  <SYNONYMS>  (6791) 
TRIMETHYLSILYL 4,4-BIS(PARA-TRIMETHYLSILOXYPHENYL)PENTANOATE

>  <SPECTRUM TYPE>  (6791) 
MS1

>  <INSTRUMENT TYPE>  (6791) 
EI-B

>  <INSTRUMENT>  (6791) 
JEOL JMS-01-SG

>  <ION MODE>  (6791) 
P

>  <INCHIKEY>  (6791) 
HPGZDRRKNPSYSR-UHFFFAOYSA-N

>  <FORMULA>  (6791) 
C26H42O4Si3

>  <EXACT MASS>  (6791) 
502.239089414

>  <MW>  (6791) 
502

>  <ID>  (6791) 
JP001085

>  <CONTRIBUTOR>  (6791) 
University of Tokyo Team, {Faculty of Engineering, University of Tokyo

>  <COMMENT>  (6791) 
SMILES=c(O[Si](C)(C)C)(c2)ccc(c2)C(CCC(=O)O[Si](C)(C)C)(c(c1)ccc(O[Si](C)(C)C)c1)C
InChI=InChI=1S/C26H42O4Si3/c1-26(20-19-25(27)30-33(8,9)10,21-11-15-23(16-12-21)28-31(2,3)4)22-13-17-24(18-14-22)29-32(5,6)7/h11-18H,19-20H2,1-10H3
computed SMILES=O=C(O[Si](C)(C)C)CCC(C1=CC=C(O[Si](C)(C)C)C=C1)(C2=CC=C(O[Si](C)(C)C)C=C2)C
accession=JP001085
date=2016.01.19 (Created 2008.10.21, modified 2011.05.06)
author=KOGA M, UNIV. OF OCCUPATIONAL AND ENVIRONMENTAL HEALTH
license=CC BY-NC-SA
exact mass=502.23909
ionization energy=70 eV
ion type=[M]+*
computed spectral entropy=1.8065734036070524
computed normalized entropy=0.6671122281528439
SPLASH=splash10-0a4i-3009000000-6228a9a7bd937e9eb574
submitter=submitter = University of Tokyo Team (Faculty of Engineering, University of Tokyo)
MoNA Rating=3.75

>  <NUM PEAKS>  (6791) 
15

>  <MASS SPECTRAL PEAKS>  (6791) 
44 20.4
45 4.2
73 23.8
74 0.3
75 4
135 3.1
191 7
193 0.35
219 2.7
321 6.2
357 99.99
358 3.95
359 19.1
369 3.1
487 5

$$$$

     RDKit          2D

 33 32  0  0  0  0  0  0  0  0999 V2000
    7.7942   14.2500    0.0000 C   0  0  0  0  0  0  0  0  0  0  0  0
  -20.2356   13.2990    0.0000 C   0  0  0  0  0  0  0  0  0  0  0  0
  -20.7846   11.2500    0.0000 C   0  0  0  0  0  0  0  0  0  0  0  0
  -18.7356   10.7010    0.0000 C   0  0  0  0  0  0  0  0  0  0  0  0
  -21.3336   16.2990    0.0000 C   0  0  0  0  0  0  0  0  0  0  0  0
  -23.3827   15.7500    0.0000 C   0  0  0  0  0  0  0  0  0  0  0  0
  -22.8336   13.7010    0.0000 C   0  0  0  0  0  0  0  0  0  0  0  0
    6.4952   15.0000    0.0000 C   0  0  0  0  0  0  0  0  0  0  0  0
    5.1962   14.2500    0.0000 C   0  0  0  0  0  0  0  0  0  0  0  0
    3.8971   15.0000    0.0000 C   0  0  0  0  0  0  0  0  0  0  0  0
    2.5981   14.2500    0.0000 C   0  0  0  0  0  0  0  0  0  0  0  0
    1.2990   15.0000    0.0000 C   0  0  0  0  0  0  0  0  0  0  0  0
    0.0000   14.2500    0.0000 C   0  0  0  0  0  0  0  0  0  0  0  0
   -1.2990   15.0000    0.0000 C   0  0  0  0  0  0  0  0  0  0  0  0
   -2.5981   14.2500    0.0000 C   0  0  0  0  0  0  0  0  0  0  0  0
   -3.8971   15.0000    0.0000 C   0  0  0  0  0  0  0  0  0  0  0  0
   -5.1962   14.2500    0.0000 C   0  0  0  0  0  0  0  0  0  0  0  0
   -6.4952   15.0000    0.0000 C   0  0  0  0  0  0  0  0  0  0  0  0
   -7.7942   14.2500    0.0000 C   0  0  0  0  0  0  0  0  0  0  0  0
   -9.0933   15.0000    0.0000 C   0  0  0  0  0  0  0  0  0  0  0  0
  -10.3923   14.2500    0.0000 C   0  0  0  0  0  0  0  0  0  0  0  0
  -11.6913   15.0000    0.0000 C   0  0  0  0  0  0  0  0  0  0  0  0
  -12.9904   14.2500    0.0000 C   0  0  0  0  0  0  0  0  0  0  0  0
  -14.2894   15.0000    0.0000 C   0  0  0  0  0  0  0  0  0  0  0  0
  -15.5885   14.2500    0.0000 C   0  0  0  0  0  0  0  0  0  0  0  0
  -16.8875   15.0000    0.0000 C   0  0  0  0  0  0  0  0  0  0  0  0
  -18.1865   14.2500    0.0000 C   0  0  0  0  0  0  0  0  0  0  0  0
  -19.4856   15.0000    0.0000 C   0  0  0  0  0  0  0  0  0  0  0  0
  -19.4856   16.5000    0.0000 O   0  0  0  0  0  0  0  0  0  0  0  0
  -18.1865   12.7500    0.0000 O   0  0  0  0  0  0  0  0  0  0  0  0
  -20.7846   14.2500    0.0000 O   0  0  0  0  0  0  0  0  0  0  0  0
  -19.4856   12.0000    0.0000 Si  0  0  0  0  0  4  0  0  0  0  0  0
  -22.0836   15.0000    0.0000 Si  0  0  0  0  0  4  0  0  0  0  0  0
  8  1  1  0
  9  8  1  0
 10  9  1  0
 11 10  1  0
 12 11  1  0
 13 12  1  0
 14 13  1  0
 15 14  1  0
 16 15  1  0
 17 16  1  0
 18 17  1  0
 19 18  1  0
 20 19  1  0
 21 20  1  0
 22 21  1  0
 23 22  1  0
 24 23  1  0
 25 24  1  0
 26 25  1  0
 27 26  1  0
 28 27  1  0
 29 28  2  0
 30 27  1  0
 31 28  1  0
 32  2  1  0
 32  3  1  0
 32  4  1  0
 32 30  1  0
 33  5  1  0
 33  6  1  0
 33  7  1  0
 33 31  1  0
M  END
>  <NAME>  (6792) 
2-(TRIMETHYLSILYL)OXY-DOCOSANOIC ACID TRIMETHYLSILYL ESTER

>  <SYNONYMS>  (6792) 
TRIMETHYLSILYL 2-TRIMETHYLSILOXYDOCOSANOATE

>  <SPECTRUM TYPE>  (6792) 
MS1

>  <INSTRUMENT TYPE>  (6792) 
EI-B

>  <INSTRUMENT>  (6792) 
JEOL JMS-01-SG

>  <ION MODE>  (6792) 
P

>  <INCHIKEY>  (6792) 
RSDJSUMKDHUJPY-UHFFFAOYSA-N

>  <FORMULA>  (6792) 
C28H60O3Si2

>  <EXACT MASS>  (6792) 
500.40809884

>  <MW>  (6792) 
500

>  <ID>  (6792) 
JP001084

>  <CONTRIBUTOR>  (6792) 
University of Tokyo Team, {Faculty of Engineering, University of Tokyo

>  <COMMENT>  (6792) 
computed SMILES=O=C(O[Si](C)(C)C)C(O[Si](C)(C)C)CCCCCCCCCCCCCCCCCCCC
SMILES=C[Si](C)(C)OC(=O)C(CCCCCCCCCCCCCCCCCCCC)O[Si](C)(C)C
InChI=InChI=1S/C28H60O3Si2/c1-8-9-10-11-12-13-14-15-16-17-18-19-20-21-22-23-24-25-26-27(30-32(2,3)4)28(29)31-33(5,6)7/h27H,8-26H2,1-7H3
accession=JP001084
date=2016.01.19 (Created 2008.10.21, modified 2011.05.06)
author=KOGA M, UNIV. OF OCCUPATIONAL AND ENVIRONMENTAL HEALTH
license=CC BY-NC-SA
exact mass=500.4081
ionization energy=70 eV
ion type=[M]+*
computed spectral entropy=2.749894942272376
computed normalized entropy=0.8166478625916933
SPLASH=splash10-001i-9407000000-4ec6dcdafcd1e6c52c76
submitter=submitter = University of Tokyo Team (Faculty of Engineering, University of Tokyo)
MoNA Rating=3.75

>  <NUM PEAKS>  (6792) 
29

>  <MASS SPECTRAL PEAKS>  (6792) 
43 12.2
44 1.6
55 14.4
57 2.58
67 5
69 15.2
71 15.2
73 5.67
75 22
77 2.1
81 5
82 0.5
83 23.3
85 11
91 9.7
95 0.88
96 4.6
97 23.7
103 19.9
111 1.39
129 13.9
147 37.7
148 5
149 0.5
383 99.99
384 29.2
385 7.2
457 0.46
485 5.5

$$$$

     RDKit          2D

 29 29  0  0  0  0  0  0  0  0999 V2000
   -4.3873    5.4205    0.0000 C   0  0  0  0  0  0  0  0  0  0  0  0
   -2.8873    6.9205    0.0000 C   0  0  0  0  0  0  0  0  0  0  0  0
   -1.3873    5.4205    0.0000 C   0  0  0  0  0  0  0  0  0  0  0  0
   -1.3881   -0.5804    0.0000 C   0  0  0  0  0  0  0  0  0  0  0  0
   -2.8883   -2.0802    0.0000 C   0  0  0  0  0  0  0  0  0  0  0  0
   -4.3881   -0.5799    0.0000 C   0  0  0  0  0  0  0  0  0  0  0  0
    2.8579   -2.6286    0.0000 C   0  0  0  0  0  0  0  0  0  0  0  0
    4.9070   -2.0795    0.0000 C   0  0  0  0  0  0  0  0  0  0  0  0
    4.3579   -0.0305    0.0000 C   0  0  0  0  0  0  0  0  0  0  0  0
    6.9560    0.3714    0.0000 C   0  0  0  0  0  0  0  0  0  0  0  0
    7.5050    2.4205    0.0000 C   0  0  0  0  0  0  0  0  0  0  0  0
    5.4560    2.9695    0.0000 C   0  0  0  0  0  0  0  0  0  0  0  0
    1.0103    3.1713    0.0000 C   0  0  0  0  0  0  0  0  0  0  0  0
   -0.2887    3.9213    0.0000 C   0  0  0  0  0  0  0  0  0  0  0  0
   -0.2897    0.9196    0.0000 C   0  0  0  0  0  0  0  0  0  0  0  0
    1.0098    1.6705    0.0000 C   0  0  0  0  0  0  0  0  0  0  0  0
   -1.5882    3.1705    0.0000 C   0  0  0  0  0  0  0  0  0  0  0  0
   -1.5887    1.6696    0.0000 C   0  0  0  0  0  0  0  0  0  0  0  0
    2.3089    0.9205    0.0000 C   0  0  0  0  0  0  0  0  0  0  0  0
    3.6079    1.6705    0.0000 C   0  0  0  0  0  0  0  0  0  0  0  0
    3.6079    3.1705    0.0000 O   0  0  0  0  0  0  0  0  0  0  0  0
   -2.8873    3.9205    0.0000 O   0  0  0  0  0  0  0  0  0  0  0  0
   -2.8879    0.9198    0.0000 O   0  0  0  0  0  0  0  0  0  0  0  0
    2.3089   -0.5795    0.0000 O   0  0  0  0  0  0  0  0  0  0  0  0
    4.9070    0.9205    0.0000 O   0  0  0  0  0  0  0  0  0  0  0  0
   -2.8873    5.4205    0.0000 Si  0  0  0  0  0  4  0  0  0  0  0  0
   -2.8881   -0.5802    0.0000 Si  0  0  0  0  0  4  0  0  0  0  0  0
    3.6079   -1.3295    0.0000 Si  0  0  0  0  0  4  0  0  0  0  0  0
    6.2060    1.6705    0.0000 Si  0  0  0  0  0  4  0  0  0  0  0  0
 14 13  2  0
 16 13  1  0
 16 15  2  0
 17 14  1  0
 18 15  1  0
 18 17  2  0
 19 16  1  0
 20 19  1  0
 21 20  2  0
 22 17  1  0
 23 18  1  0
 24 19  1  0
 25 20  1  0
 26  1  1  0
 26  2  1  0
 26  3  1  0
 26 22  1  0
 27  4  1  0
 27  5  1  0
 27  6  1  0
 27 23  1  0
 28  7  1  0
 28  8  1  0
 28  9  1  0
 28 24  1  0
 29 10  1  0
 29 11  1  0
 29 12  1  0
 29 25  1  0
M  END
>  <NAME>  (6793) 
DL-ALPHA,3,4-TRI(TRIMETHYLSILYL)OXY-PHENYLACETIC ACID TRIMETHYLSILYL ESTER

>  <SYNONYMS>  (6793) 
TRIMETHYLSILYL DL-ALPHA-(3,4-DI(TRIMETHYLSILOXY)PHENYL)-ALPHA-TRIMETHYLSILOXYACETATE

>  <SPECTRUM TYPE>  (6793) 
MS1

>  <INSTRUMENT TYPE>  (6793) 
EI-B

>  <INSTRUMENT>  (6793) 
JEOL JMS-01-SG

>  <ION MODE>  (6793) 
P

>  <INCHIKEY>  (6793) 
MDAKQGIALDYWHV-UHFFFAOYSA-N

>  <FORMULA>  (6793) 
C20H40O5Si4

>  <EXACT MASS>  (6793) 
472.19528049999997

>  <MW>  (6793) 
472

>  <ID>  (6793) 
JP001083

>  <CONTRIBUTOR>  (6793) 
University of Tokyo Team, {Faculty of Engineering, University of Tokyo

>  <COMMENT>  (6793) 
SMILES=C[Si](C)(C)OC(=O)C(O[Si](C)(C)C)c(c1)cc(O[Si](C)(C)C)c(c1)O[Si](C)(C)C
InChI=InChI=1S/C20H40O5Si4/c1-26(2,3)22-17-14-13-16(15-18(17)23-27(4,5)6)19(24-28(7,8)9)20(21)25-29(10,11)12/h13-15,19H,1-12H3
computed SMILES=O=C(O[Si](C)(C)C)C(O[Si](C)(C)C)C1=CC=C(O[Si](C)(C)C)C(O[Si](C)(C)C)=C1
accession=JP001083
date=2016.01.19 (Created 2008.10.21, modified 2011.05.06)
author=KOGA M, UNIV. OF OCCUPATIONAL AND ENVIRONMENTAL HEALTH
license=CC BY-NC-SA
exact mass=472.19528
ionization energy=70 eV
ion type=[M]+*
computed spectral entropy=1.7836903686536363
computed normalized entropy=0.7438566600000215
SPLASH=splash10-0a4i-2009000000-1e4170547e90b786418a
submitter=submitter = University of Tokyo Team (Faculty of Engineering, University of Tokyo)
MoNA Rating=3.75

>  <NUM PEAKS>  (6793) 
11

>  <MASS SPECTRAL PEAKS>  (6793) 
45 16.4
73 39.1
147 10.2
267 0.71
355 99.99
356 55.1
357 36.5
358 0.59
429 9.6
430 3.9
457 3.3

$$$$

     RDKit          2D

 15 15  0  0  0  0  0  0  0  0999 V2000
    5.9472    0.2017    0.0000 C   0  0  0  0  0  0  0  0  0  0  0  0
    6.4959    2.2508    0.0000 C   0  0  0  0  0  0  0  0  0  0  0  0
    4.4468    2.7995    0.0000 C   0  0  0  0  0  0  0  0  0  0  0  0
   -1.3000    0.7500    0.0000 C   0  0  0  0  0  0  0  0  0  0  0  0
   -0.0000   -1.5000    0.0000 C   0  0  0  0  0  0  0  0  0  0  0  0
    0.0000    1.5000    0.0000 C   0  0  0  0  0  0  0  0  0  0  0  0
    1.3000   -0.7500    0.0000 C   0  0  0  0  0  0  0  0  0  0  0  0
   -2.5989   -1.5002    0.0000 C   0  0  0  0  0  0  0  0  0  0  0  0
   -1.3000   -0.7500    0.0000 C   0  0  0  0  0  0  0  0  0  0  0  0
    1.3000    0.7500    0.0000 C   0  0  0  0  0  0  0  0  0  0  0  0
    2.5989    1.5002    0.0000 C   0  0  0  0  0  0  0  0  0  0  0  0
   -3.8981   -0.7504    0.0000 O   0  0  0  0  0  0  0  0  0  0  0  0
    2.5987    3.0002    0.0000 O   0  0  0  0  0  0  0  0  0  0  0  0
    3.8981    0.7504    0.0000 O   0  0  0  0  0  0  0  0  0  0  0  0
    5.1970    1.5006    0.0000 Si  0  0  0  0  0  4  0  0  0  0  0  0
  6  4  2  0
  7  5  1  0
  9  4  1  0
  9  5  2  0
  9  8  1  0
 10  6  1  0
 10  7  2  0
 11 10  1  0
 12  8  2  0
 13 11  2  0
 14 11  1  0
 15  1  1  0
 15  2  1  0
 15  3  1  0
 15 14  1  0
M  END
>  <NAME>  (6794) 
BENZALDEHYDE-PARA-CARBOXYLIC ACID TRIMETHYLSILYL ESTER

>  <SYNONYMS>  (6794) 
TRIMETHYLSILYL 3-FORMYLBENZOATE

>  <SPECTRUM TYPE>  (6794) 
MS1

>  <INSTRUMENT TYPE>  (6794) 
EI-B

>  <INSTRUMENT>  (6794) 
JEOL JMS-01-SG

>  <ION MODE>  (6794) 
P

>  <INCHIKEY>  (6794) 
LLLSJLOFPKECPD-UHFFFAOYSA-N

>  <FORMULA>  (6794) 
C11H14O3Si

>  <EXACT MASS>  (6794) 
222.071220838

>  <MW>  (6794) 
222

>  <ID>  (6794) 
JP001082

>  <CONTRIBUTOR>  (6794) 
University of Tokyo Team, {Faculty of Engineering, University of Tokyo

>  <COMMENT>  (6794) 
SMILES=O=Cc(c1)ccc(c1)C(=O)O[Si](C)(C)C
InChI=InChI=1S/C11H14O3Si/c1-15(2,3)14-11(13)10-6-4-9(8-12)5-7-10/h4-8H,1-3H3
computed SMILES=O=CC1=CC=C(C=C1)C(=O)O[Si](C)(C)C
accession=JP001082
date=2016.01.19 (Created 2008.10.21, modified 2011.05.06)
author=KOGA M, UNIV. OF OCCUPATIONAL AND ENVIRONMENTAL HEALTH
license=CC BY-NC-SA
exact mass=222.07122
ionization energy=70 eV
ion type=[M]+*
computed spectral entropy=2.414557378316777
computed normalized entropy=0.7811466243996227
SPLASH=splash10-0bu0-4940000000-3657816e0cd51fefff4f
submitter=submitter = University of Tokyo Team (Faculty of Engineering, University of Tokyo)
MoNA Rating=3.75

>  <NUM PEAKS>  (6794) 
22

>  <MASS SPECTRAL PEAKS>  (6794) 
45 9
47 7
50 9
51 2.1
73 20
74 5.5
75 16.5
76 1.4
77 35
89 10
103 14
104 0.8
105 35
133 96.5
134 10.4
135 0.5
163 68
164 10
207 99.99
208 1.75
209 6
222 10

$$$$

     RDKit          2D

 30 29  0  0  0  0  0  0  0  0999 V2000
   -2.3899    7.0712    0.0000 C   0  0  0  0  0  0  0  0  0  0  0  0
   -0.8899    9.6692    0.0000 C   0  0  0  0  0  0  0  0  0  0  0  0
   -2.9389    9.1202    0.0000 C   0  0  0  0  0  0  0  0  0  0  0  0
   24.8899    6.3212    0.0000 C   0  0  0  0  0  0  0  0  0  0  0  0
   26.9389    6.8702    0.0000 C   0  0  0  0  0  0  0  0  0  0  0  0
   26.3899    8.9192    0.0000 C   0  0  0  0  0  0  0  0  0  0  0  0
   11.3505    8.3702    0.0000 C   0  0  0  0  0  0  0  0  0  0  0  0
   12.6495    7.6202    0.0000 C   0  0  0  0  0  0  0  0  0  0  0  0
   10.0514    7.6202    0.0000 C   0  0  0  0  0  0  0  0  0  0  0  0
   13.9486    8.3702    0.0000 C   0  0  0  0  0  0  0  0  0  0  0  0
    8.7524    8.3702    0.0000 C   0  0  0  0  0  0  0  0  0  0  0  0
   15.2476    7.6202    0.0000 C   0  0  0  0  0  0  0  0  0  0  0  0
    7.4534    7.6202    0.0000 C   0  0  0  0  0  0  0  0  0  0  0  0
   16.5466    8.3702    0.0000 C   0  0  0  0  0  0  0  0  0  0  0  0
    6.1543    8.3702    0.0000 C   0  0  0  0  0  0  0  0  0  0  0  0
   17.8457    7.6202    0.0000 C   0  0  0  0  0  0  0  0  0  0  0  0
    4.8553    7.6202    0.0000 C   0  0  0  0  0  0  0  0  0  0  0  0
   19.1447    8.3702    0.0000 C   0  0  0  0  0  0  0  0  0  0  0  0
    3.5563    8.3702    0.0000 C   0  0  0  0  0  0  0  0  0  0  0  0
   20.4437    7.6202    0.0000 C   0  0  0  0  0  0  0  0  0  0  0  0
    2.2572    7.6202    0.0000 C   0  0  0  0  0  0  0  0  0  0  0  0
   21.7428    8.3702    0.0000 C   0  0  0  0  0  0  0  0  0  0  0  0
    0.9582    8.3702    0.0000 C   0  0  0  0  0  0  0  0  0  0  0  0
   23.0418    7.6202    0.0000 C   0  0  0  0  0  0  0  0  0  0  0  0
    0.9582    9.8702    0.0000 O   0  0  0  0  0  0  0  0  0  0  0  0
   23.0418    6.1202    0.0000 O   0  0  0  0  0  0  0  0  0  0  0  0
   -0.3409    7.6202    0.0000 O   0  0  0  0  0  0  0  0  0  0  0  0
   24.3409    8.3702    0.0000 O   0  0  0  0  0  0  0  0  0  0  0  0
   -1.6399    8.3702    0.0000 Si  0  0  0  0  0  4  0  0  0  0  0  0
   25.6399    7.6202    0.0000 Si  0  0  0  0  0  4  0  0  0  0  0  0
  8  7  1  0
  9  7  1  0
 10  8  1  0
 11  9  1  0
 12 10  1  0
 13 11  1  0
 14 12  1  0
 15 13  1  0
 16 14  1  0
 17 15  1  0
 18 16  1  0
 19 17  1  0
 20 18  1  0
 21 19  1  0
 22 20  1  0
 23 21  1  0
 24 22  1  0
 25 23  2  0
 26 24  2  0
 27 23  1  0
 28 24  1  0
 29  1  1  0
 29  2  1  0
 29  3  1  0
 29 27  1  0
 30  4  1  0
 30  5  1  0
 30  6  1  0
 30 28  1  0
M  END
>  <NAME>  (6795) 
OCTADECANEDIOIC ACID BIS(TRIMETHYLSILYL) ESTER

>  <SYNONYMS>  (6795) 
DI(TRIMETHYLSILYL) OCTADECANEDIOATE

>  <SPECTRUM TYPE>  (6795) 
MS1

>  <INSTRUMENT TYPE>  (6795) 
EI-B

>  <INSTRUMENT>  (6795) 
JEOL JMS-01-SG

>  <ION MODE>  (6795) 
P

>  <INCHIKEY>  (6795) 
VDMOBMJETWUJLJ-UHFFFAOYSA-N

>  <FORMULA>  (6795) 
C24H50O4Si2

>  <EXACT MASS>  (6795) 
458.32476313999996

>  <MW>  (6795) 
458

>  <ID>  (6795) 
JP001081

>  <CONTRIBUTOR>  (6795) 
University of Tokyo Team, {Faculty of Engineering, University of Tokyo

>  <COMMENT>  (6795) 
SMILES=C(CCCCCCCCC(=O)O[Si](C)(C)C)CCCCCCCC(=O)O[Si](C)(C)C
InChI=InChI=1S/C24H50O4Si2/c1-29(2,3)27-23(25)21-19-17-15-13-11-9-7-8-10-12-14-16-18-20-22-24(26)28-30(4,5)6/h7-22H2,1-6H3
computed SMILES=O=C(O[Si](C)(C)C)CCCCCCCCCCCCCCCCC(=O)O[Si](C)(C)C
accession=JP001081
date=2016.01.19 (Created 2008.10.21, modified 2011.05.06)
author=KOGA M, UNIV. OF OCCUPATIONAL AND ENVIRONMENTAL HEALTH
license=CC BY-NC-SA
exact mass=458.32476
ionization energy=70 eV
ion type=[M]+*
computed spectral entropy=2.605973539852796
computed normalized entropy=0.8430727106389274
SPLASH=splash10-00vi-9220000000-4b2cbc1de56492fa8f90
submitter=submitter = University of Tokyo Team (Faculty of Engineering, University of Tokyo)
MoNA Rating=3.75

>  <NUM PEAKS>  (6795) 
22

>  <MASS SPECTRAL PEAKS>  (6795) 
45 11.9
47 10.5
55 35.9
67 1.05
69 15.4
73 94.3
75 99.99
77 1.54
81 14
83 13.3
95 21.8
97 1.05
117 32.3
129 28.1
147 16.9
149 1.76
204 57
217 42.9
327 16.1
443 5.28
444 16.9
445 7.7

$$$$

     RDKit          2D

 26 25  0  0  0  0  0  0  0  0999 V2000
    6.8236    4.7745    0.0000 C   0  0  0  0  0  0  0  0  0  0  0  0
    7.3726    6.8236    0.0000 C   0  0  0  0  0  0  0  0  0  0  0  0
    5.3236    7.3726    0.0000 C   0  0  0  0  0  0  0  0  0  0  0  0
    1.4264    2.1226    0.0000 C   0  0  0  0  0  0  0  0  0  0  0  0
    0.8774    0.0736    0.0000 C   0  0  0  0  0  0  0  0  0  0  0  0
    2.9264   -0.4755    0.0000 C   0  0  0  0  0  0  0  0  0  0  0  0
    9.4216    4.3726    0.0000 C   0  0  0  0  0  0  0  0  0  0  0  0
    7.9216    1.7745    0.0000 C   0  0  0  0  0  0  0  0  0  0  0  0
    9.9707    2.3236    0.0000 C   0  0  0  0  0  0  0  0  0  0  0  0
    0.3284    5.1226    0.0000 C   0  0  0  0  0  0  0  0  0  0  0  0
   -1.7207    4.5736    0.0000 C   0  0  0  0  0  0  0  0  0  0  0  0
   -1.1716    2.5245    0.0000 C   0  0  0  0  0  0  0  0  0  0  0  0
    4.7745    3.8236    0.0000 C   0  0  0  0  0  0  0  0  0  0  0  0
    3.4755    3.0736    0.0000 C   0  0  0  0  0  0  0  0  0  0  0  0
    6.0736    3.0736    0.0000 C   0  0  0  0  0  0  0  0  0  0  0  0
    2.1764    3.8236    0.0000 C   0  0  0  0  0  0  0  0  0  0  0  0
    6.0736    1.5736    0.0000 O   0  0  0  0  0  0  0  0  0  0  0  0
    2.1764    5.3236    0.0000 O   0  0  0  0  0  0  0  0  0  0  0  0
    4.7745    5.3236    0.0000 O   0  0  0  0  0  0  0  0  0  0  0  0
    3.4755    1.5736    0.0000 O   0  0  0  0  0  0  0  0  0  0  0  0
    7.3726    3.8236    0.0000 O   0  0  0  0  0  0  0  0  0  0  0  0
    0.8774    3.0736    0.0000 O   0  0  0  0  0  0  0  0  0  0  0  0
    6.0736    6.0736    0.0000 Si  0  0  0  0  0  4  0  0  0  0  0  0
    2.1764    0.8236    0.0000 Si  0  0  0  0  0  4  0  0  0  0  0  0
    8.6716    3.0736    0.0000 Si  0  0  0  0  0  4  0  0  0  0  0  0
   -0.4216    3.8236    0.0000 Si  0  0  0  0  0  4  0  0  0  0  0  0
 14 13  1  0
 15 13  1  0
 16 14  1  0
 17 15  2  0
 18 16  2  0
 19 13  1  0
 20 14  1  0
 21 15  1  0
 22 16  1  0
 23  1  1  0
 23  2  1  0
 23  3  1  0
 23 19  1  0
 24  4  1  0
 24  5  1  0
 24  6  1  0
 24 20  1  0
 25  7  1  0
 25  8  1  0
 25  9  1  0
 25 21  1  0
 26 10  1  0
 26 11  1  0
 26 12  1  0
 26 22  1  0
M  END
>  <NAME>  (6796) 
2,3-BIS(TRIMETHYLSILYL)OXY-BUTANEDIOIC ACID BIS(TRIMETHYLSILYL) ESTER

>  <SYNONYMS>  (6796) 
DI(TRIMETHYLSILYL) 2,3-BIS(TRIMETHYLSILOXY)SUCCINATE

>  <SPECTRUM TYPE>  (6796) 
MS1

>  <INSTRUMENT TYPE>  (6796) 
EI-B

>  <INSTRUMENT>  (6796) 
JEOL JMS-01-SG

>  <ION MODE>  (6796) 
P

>  <INCHIKEY>  (6796) 
LPQBQHQEJJCWBZ-UHFFFAOYSA-N

>  <FORMULA>  (6796) 
C16H38O6Si4

>  <EXACT MASS>  (6796) 
438.17454505599994

>  <MW>  (6796) 
438

>  <ID>  (6796) 
JP001079

>  <CONTRIBUTOR>  (6796) 
University of Tokyo Team, {Faculty of Engineering, University of Tokyo

>  <COMMENT>  (6796) 
SMILES=C[Si](C)(C)OC(=O)C(O[Si](C)(C)C)C(O[Si](C)(C)C)C(=O)O[Si](C)(C)C
InChI=InChI=1S/C16H38O6Si4/c1-23(2,3)19-13(15(17)21-25(7,8)9)14(20-24(4,5)6)16(18)22-26(10,11)12/h13-14H,1-12H3
computed SMILES=O=C(O[Si](C)(C)C)C(O[Si](C)(C)C)C(O[Si](C)(C)C)C(=O)O[Si](C)(C)C
accession=JP001079
date=2016.01.19 (Created 2008.10.21, modified 2011.05.06)
author=KOGA M, UNIV. OF OCCUPATIONAL AND ENVIRONMENTAL HEALTH
license=CC BY-NC-SA
exact mass=438.17455
ionization energy=70 eV
ion type=[M]+*
computed spectral entropy=3.100877040989646
computed normalized entropy=0.8464104989923
SPLASH=splash10-00r7-6791100000-cb38ff5d9b9682d3269c
submitter=submitter = University of Tokyo Team (Faculty of Engineering, University of Tokyo)
MoNA Rating=3.75

>  <NUM PEAKS>  (6796) 
39

>  <MASS SPECTRAL PEAKS>  (6796) 
44 7.4
45 32.2
47 6.2
59 0.55
72 5.1
73 53.5
74 34.2
75 3.03
77 17.3
102 21.2
103 5.9
117 0.51
130 9.8
131 9.4
133 18.8
143 2.4
148 31.8
149 18.5
171 6.6
175 0.98
189 57.8
190 10.6
191 9.4
217 0.94
219 68.8
220 10.6
221 18.8
263 0.66
277 9.8
292 99.99
293 26.7
294 1.18
305 22
306 5.1
333 12.5
351 0.51
423 25.1
424 9
425 3.5

$$$$

     RDKit          2D

 28 27  0  0  0  0  0  0  0  0999 V2000
   23.9659    8.2697    0.0000 C   0  0  0  0  0  0  0  0  0  0  0  0
   22.4659    5.6716    0.0000 C   0  0  0  0  0  0  0  0  0  0  0  0
   24.5149    6.2207    0.0000 C   0  0  0  0  0  0  0  0  0  0  0  0
   -0.7159    9.0197    0.0000 C   0  0  0  0  0  0  0  0  0  0  0  0
   -2.7649    8.4707    0.0000 C   0  0  0  0  0  0  0  0  0  0  0  0
   -2.2159    6.4216    0.0000 C   0  0  0  0  0  0  0  0  0  0  0  0
   11.5245    7.7207    0.0000 C   0  0  0  0  0  0  0  0  0  0  0  0
   10.2255    6.9707    0.0000 C   0  0  0  0  0  0  0  0  0  0  0  0
   12.8236    6.9707    0.0000 C   0  0  0  0  0  0  0  0  0  0  0  0
    8.9264    7.7207    0.0000 C   0  0  0  0  0  0  0  0  0  0  0  0
   14.1226    7.7207    0.0000 C   0  0  0  0  0  0  0  0  0  0  0  0
    7.6274    6.9707    0.0000 C   0  0  0  0  0  0  0  0  0  0  0  0
   15.4216    6.9707    0.0000 C   0  0  0  0  0  0  0  0  0  0  0  0
    6.3284    7.7207    0.0000 C   0  0  0  0  0  0  0  0  0  0  0  0
   16.7207    7.7207    0.0000 C   0  0  0  0  0  0  0  0  0  0  0  0
    5.0293    6.9707    0.0000 C   0  0  0  0  0  0  0  0  0  0  0  0
   18.0197    6.9707    0.0000 C   0  0  0  0  0  0  0  0  0  0  0  0
    3.7303    7.7207    0.0000 C   0  0  0  0  0  0  0  0  0  0  0  0
   19.3187    7.7207    0.0000 C   0  0  0  0  0  0  0  0  0  0  0  0
    2.4313    6.9707    0.0000 C   0  0  0  0  0  0  0  0  0  0  0  0
   20.6178    6.9707    0.0000 C   0  0  0  0  0  0  0  0  0  0  0  0
    1.1322    7.7207    0.0000 C   0  0  0  0  0  0  0  0  0  0  0  0
   20.6178    5.4707    0.0000 O   0  0  0  0  0  0  0  0  0  0  0  0
    1.1322    9.2207    0.0000 O   0  0  0  0  0  0  0  0  0  0  0  0
   21.9168    7.7207    0.0000 O   0  0  0  0  0  0  0  0  0  0  0  0
   -0.1668    6.9707    0.0000 O   0  0  0  0  0  0  0  0  0  0  0  0
   23.2159    6.9707    0.0000 Si  0  0  0  0  0  4  0  0  0  0  0  0
   -1.4659    7.7207    0.0000 Si  0  0  0  0  0  4  0  0  0  0  0  0
  8  7  1  0
  9  7  1  0
 10  8  1  0
 11  9  1  0
 12 10  1  0
 13 11  1  0
 14 12  1  0
 15 13  1  0
 16 14  1  0
 17 15  1  0
 18 16  1  0
 19 17  1  0
 20 18  1  0
 21 19  1  0
 22 20  1  0
 23 21  2  0
 24 22  2  0
 25 21  1  0
 26 22  1  0
 27  1  1  0
 27  2  1  0
 27  3  1  0
 27 25  1  0
 28  4  1  0
 28  5  1  0
 28  6  1  0
 28 26  1  0
M  END
>  <NAME>  (6797) 
HEXADECANEDIOIC ACID BIS(TRIMETHYLSILYL) ESTER

>  <SYNONYMS>  (6797) 
DI(TRIMETHYLSILYL) HEXADECANEDIOATE

>  <SPECTRUM TYPE>  (6797) 
MS1

>  <INSTRUMENT TYPE>  (6797) 
EI-B

>  <INSTRUMENT>  (6797) 
JEOL JMS-01-SG

>  <ION MODE>  (6797) 
P

>  <INCHIKEY>  (6797) 
YANZXOCRRABPGY-UHFFFAOYSA-N

>  <FORMULA>  (6797) 
C22H46O4Si2

>  <EXACT MASS>  (6797) 
430.29346301199996

>  <MW>  (6797) 
430

>  <ID>  (6797) 
JP001078

>  <CONTRIBUTOR>  (6797) 
University of Tokyo Team, {Faculty of Engineering, University of Tokyo

>  <COMMENT>  (6797) 
SMILES=C(CCCCCCCC(=O)O[Si](C)(C)C)CCCCCCC(=O)O[Si](C)(C)C
InChI=InChI=1S/C22H46O4Si2/c1-27(2,3)25-21(23)19-17-15-13-11-9-7-8-10-12-14-16-18-20-22(24)26-28(4,5)6/h7-20H2,1-6H3
computed SMILES=O=C(O[Si](C)(C)C)CCCCCCCCCCCCCCC(=O)O[Si](C)(C)C
accession=JP001078
date=2016.01.19 (Created 2008.10.21, modified 2011.05.06)
author=KOGA M, UNIV. OF OCCUPATIONAL AND ENVIRONMENTAL HEALTH
license=CC BY-NC-SA
exact mass=430.29346
ionization energy=70 eV
ion type=[M]+*
computed spectral entropy=2.4692647607394047
computed normalized entropy=0.8242608268228153
SPLASH=splash10-01di-9220200000-e0dc85c93c78115e3a1b
submitter=submitter = University of Tokyo Team (Faculty of Engineering, University of Tokyo)
MoNA Rating=3.75

>  <NUM PEAKS>  (6797) 
20

>  <MASS SPECTRAL PEAKS>  (6797) 
45 9.8
55 25
67 9.3
69 1.43
73 99.99
75 79.7
81 11.7
83 1.11
95 11.4
117 27.9
129 24.7
147 1.25
149 15.1
204 33.5
217 32.1
299 1.51
399 4.7
415 41.2
416 13.8
417 4.5

$$$$

     RDKit          2D

 27 26  0  0  0  0  0  0  0  0999 V2000
  -20.9353   13.4130    0.0000 C   0  0  0  0  0  0  0  0  0  0  0  0
  -19.6363   11.1630    0.0000 C   0  0  0  0  0  0  0  0  0  0  0  0
    5.5945   11.3639    0.0000 C   0  0  0  0  0  0  0  0  0  0  0  0
    7.6435   11.9130    0.0000 C   0  0  0  0  0  0  0  0  0  0  0  0
    7.0945   13.9620    0.0000 C   0  0  0  0  0  0  0  0  0  0  0  0
   -7.9450   13.4130    0.0000 C   0  0  0  0  0  0  0  0  0  0  0  0
   -9.2440   12.6630    0.0000 C   0  0  0  0  0  0  0  0  0  0  0  0
   -6.6459   12.6630    0.0000 C   0  0  0  0  0  0  0  0  0  0  0  0
  -10.5430   13.4130    0.0000 C   0  0  0  0  0  0  0  0  0  0  0  0
   -5.3469   13.4130    0.0000 C   0  0  0  0  0  0  0  0  0  0  0  0
  -11.8421   12.6630    0.0000 C   0  0  0  0  0  0  0  0  0  0  0  0
   -4.0478   12.6630    0.0000 C   0  0  0  0  0  0  0  0  0  0  0  0
  -13.1411   13.4130    0.0000 C   0  0  0  0  0  0  0  0  0  0  0  0
   -2.7488   13.4130    0.0000 C   0  0  0  0  0  0  0  0  0  0  0  0
  -14.4401   12.6630    0.0000 C   0  0  0  0  0  0  0  0  0  0  0  0
   -1.4498   12.6630    0.0000 C   0  0  0  0  0  0  0  0  0  0  0  0
  -15.7392   13.4130    0.0000 C   0  0  0  0  0  0  0  0  0  0  0  0
   -0.1507   13.4130    0.0000 C   0  0  0  0  0  0  0  0  0  0  0  0
  -17.0382   12.6630    0.0000 C   0  0  0  0  0  0  0  0  0  0  0  0
    1.1483   12.6630    0.0000 C   0  0  0  0  0  0  0  0  0  0  0  0
  -18.3373   13.4130    0.0000 C   0  0  0  0  0  0  0  0  0  0  0  0
    2.4474   13.4130    0.0000 C   0  0  0  0  0  0  0  0  0  0  0  0
  -19.6363   12.6630    0.0000 C   0  0  0  0  0  0  0  0  0  0  0  0
    3.7464   12.6630    0.0000 C   0  0  0  0  0  0  0  0  0  0  0  0
    3.7464   11.1630    0.0000 O   0  0  0  0  0  0  0  0  0  0  0  0
    5.0454   13.4130    0.0000 O   0  0  0  0  0  0  0  0  0  0  0  0
    6.3445   12.6630    0.0000 Si  0  0  0  0  0  4  0  0  0  0  0  0
  7  6  1  0
  8  6  1  0
  9  7  1  0
 10  8  1  0
 11  9  1  0
 12 10  1  0
 13 11  1  0
 14 12  1  0
 15 13  1  0
 16 14  1  0
 17 15  1  0
 18 16  1  0
 19 17  1  0
 20 18  1  0
 21 19  1  0
 22 20  1  0
 23  1  1  0
 23  2  1  0
 23 21  1  0
 24 22  1  0
 25 24  2  0
 26 24  1  0
 27  3  1  0
 27  4  1  0
 27  5  1  0
 27 26  1  0
M  END
>  <NAME>  (6798) 
19-METHYLEICOSANOIC ACID TRIMETHYLSILYL ESTER

>  <SYNONYMS>  (6798) 
TRIMETHYLSILYL 19-METHYLEICOSANOATE

>  <SPECTRUM TYPE>  (6798) 
MS1

>  <INSTRUMENT TYPE>  (6798) 
EI-B

>  <INSTRUMENT>  (6798) 
JEOL JMS-01-SG

>  <ION MODE>  (6798) 
P

>  <INCHIKEY>  (6798) 
WECMMLXJSWEMQD-UHFFFAOYSA-N

>  <FORMULA>  (6798) 
C24H50O2Si

>  <EXACT MASS>  (6798) 
398.35800737

>  <MW>  (6798) 
398

>  <ID>  (6798) 
JP001074

>  <CONTRIBUTOR>  (6798) 
University of Tokyo Team, {Faculty of Engineering, University of Tokyo

>  <COMMENT>  (6798) 
SMILES=CC(C)CCCCCCCCCCCCCCCCCC(=O)O[Si](C)(C)C
InChI=InChI=1S/C24H50O2Si/c1-23(2)21-19-17-15-13-11-9-7-6-8-10-12-14-16-18-20-22-24(25)26-27(3,4)5/h23H,6-22H2,1-5H3
computed SMILES=O=C(O[Si](C)(C)C)CCCCCCCCCCCCCCCCCC(C)C
accession=JP001074
date=2016.01.19 (Created 2008.10.21, modified 2011.05.06)
author=KOGA M, UNIV. OF OCCUPATIONAL AND ENVIRONMENTAL HEALTH
license=CC BY-NC-SA
exact mass=398.35801
ionization energy=70 eV
ion type=[M]+*
computed spectral entropy=2.5882158201303707
computed normalized entropy=0.804074453613428
SPLASH=splash10-01di-9500000000-37428e5544427a6ca4eb
submitter=submitter = University of Tokyo Team (Faculty of Engineering, University of Tokyo)
MoNA Rating=3.75

>  <NUM PEAKS>  (6798) 
25

>  <MASS SPECTRAL PEAKS>  (6798) 
43 44
55 26.3
56 6.5
57 2.1
67 6.8
69 16.5
71 6.8
73 99.99
74 8.2
75 70.1
77 5.9
81 0.76
83 10.6
95 7.3
97 7.6
98 0.59
117 91.7
118 7.8
129 35.7
131 3.49
133 7.9
145 34.6
201 6.8
383 4.79
384 13.9

$$$$

     RDKit          2D

 25 25  0  0  0  0  0  0  0  0999 V2000
    5.7937   -2.3182    0.0000 C   0  0  0  0  0  0  0  0  0  0  0  0
    4.2937   -3.8182    0.0000 C   0  0  0  0  0  0  0  0  0  0  0  0
    2.7937   -2.3182    0.0000 C   0  0  0  0  0  0  0  0  0  0  0  0
    2.7945    3.6827    0.0000 C   0  0  0  0  0  0  0  0  0  0  0  0
    4.2948    5.1824    0.0000 C   0  0  0  0  0  0  0  0  0  0  0  0
    5.7945    3.6822    0.0000 C   0  0  0  0  0  0  0  0  0  0  0  0
   -5.3486    3.4808    0.0000 C   0  0  0  0  0  0  0  0  0  0  0  0
   -7.3977    2.9318    0.0000 C   0  0  0  0  0  0  0  0  0  0  0  0
   -6.8486    0.8828    0.0000 C   0  0  0  0  0  0  0  0  0  0  0  0
    0.3961   -0.0690    0.0000 C   0  0  0  0  0  0  0  0  0  0  0  0
   -0.9025    2.1818    0.0000 C   0  0  0  0  0  0  0  0  0  0  0  0
    1.6951   -0.8190    0.0000 C   0  0  0  0  0  0  0  0  0  0  0  0
   -2.2015    1.4318    0.0000 C   0  0  0  0  0  0  0  0  0  0  0  0
    1.6961    2.1826    0.0000 C   0  0  0  0  0  0  0  0  0  0  0  0
    0.3966    1.4318    0.0000 C   0  0  0  0  0  0  0  0  0  0  0  0
    2.9946   -0.0682    0.0000 C   0  0  0  0  0  0  0  0  0  0  0  0
    2.9951    1.4326    0.0000 C   0  0  0  0  0  0  0  0  0  0  0  0
   -3.5005    2.1818    0.0000 C   0  0  0  0  0  0  0  0  0  0  0  0
   -3.5005    3.6818    0.0000 O   0  0  0  0  0  0  0  0  0  0  0  0
    4.2937   -0.8182    0.0000 O   0  0  0  0  0  0  0  0  0  0  0  0
    4.2943    2.1824    0.0000 O   0  0  0  0  0  0  0  0  0  0  0  0
   -4.7996    1.4318    0.0000 O   0  0  0  0  0  0  0  0  0  0  0  0
    4.2937   -2.3182    0.0000 Si  0  0  0  0  0  4  0  0  0  0  0  0
    4.2945    3.6824    0.0000 Si  0  0  0  0  0  4  0  0  0  0  0  0
   -6.0986    2.1818    0.0000 Si  0  0  0  0  0  4  0  0  0  0  0  0
 12 10  2  0
 11 13  2  0
 15 10  1  0
 15 11  1  0
 15 14  2  0
 16 12  1  0
 17 14  1  0
 17 16  2  0
 18 13  1  0
 19 18  2  0
 20 16  1  0
 21 17  1  0
 22 18  1  0
 23  1  1  0
 23  2  1  0
 23  3  1  0
 23 20  1  0
 24  4  1  0
 24  5  1  0
 24  6  1  0
 24 21  1  0
 25  7  1  0
 25  8  1  0
 25  9  1  0
 25 22  1  0
M  END
>  <NAME>  (6799) 
3,4-BIS(TRIMETHYLSILYL)OXY-CINNAMIC ACID TRIMETHYLSILYL ESTER

>  <SYNONYMS>  (6799) 
TRIMETHYLSILYL 3,4-BIS(TRIMETHYLSILOXY)CINNAMATE

>  <SPECTRUM TYPE>  (6799) 
MS1

>  <INSTRUMENT TYPE>  (6799) 
EI-B

>  <INSTRUMENT>  (6799) 
JEOL JMS-01-SG

>  <ION MODE>  (6799) 
P

>  <INCHIKEY>  (6799) 
MBIYCWDFSLHMSI-ACCUITESSA-N

>  <FORMULA>  (6799) 
C18H32O4Si3

>  <EXACT MASS>  (6799) 
396.160839094

>  <MW>  (6799) 
396

>  <ID>  (6799) 
JP001072

>  <CONTRIBUTOR>  (6799) 
University of Tokyo Team, {Faculty of Engineering, University of Tokyo

>  <COMMENT>  (6799) 
SMILES=O=C(C=Cc(c1)cc(O[Si](C)(C)C)c(c1)O[Si](C)(C)C)O[Si](C)(C)C
InChI=InChI=1S/C18H32O4Si3/c1-23(2,3)20-16-12-10-15(14-17(16)21-24(4,5)6)11-13-18(19)22-25(7,8)9/h10-14H,1-9H3/b13-11+
computed SMILES=O=C(O[Si](C)(C)C)C=CC1=CC=C(O[Si](C)(C)C)C(O[Si](C)(C)C)=C1
accession=JP001072
date=2016.01.19 (Created 2008.10.21, modified 2011.05.06)
author=KOGA M, UNIV. OF OCCUPATIONAL AND ENVIRONMENTAL HEALTH
license=CC BY-NC-SA
exact mass=396.16084
ionization energy=70 eV
ion type=[M]+*
computed spectral entropy=1.949717907221653
computed normalized entropy=0.7032120889702718
SPLASH=splash10-00xs-9063000000-9f266cfae4257f60b8a5
submitter=submitter = University of Tokyo Team (Faculty of Engineering, University of Tokyo)
MoNA Rating=3.75

>  <NUM PEAKS>  (6799) 
16

>  <MASS SPECTRAL PEAKS>  (6799) 
45 39.6
73 99.99
74 6.9
75 1.53
147 3.9
191 9.4
219 91.5
220 1.28
221 3.9
249 5.9
307 6.9
381 0.94
382 3.4
396 37.6
397 12.8
398 3.9

$$$$

     RDKit          2D

 24 23  0  0  0  0  0  0  0  0999 V2000
    2.9130   -1.5772    0.0000 C   0  0  0  0  0  0  0  0  0  0  0  0
    1.4130    1.0209    0.0000 C   0  0  0  0  0  0  0  0  0  0  0  0
    0.8639   -1.0281    0.0000 C   0  0  0  0  0  0  0  0  0  0  0  0
    8.8591    8.7219    0.0000 C   0  0  0  0  0  0  0  0  0  0  0  0
    7.3591   10.2219    0.0000 C   0  0  0  0  0  0  0  0  0  0  0  0
    5.8591    8.7219    0.0000 C   0  0  0  0  0  0  0  0  0  0  0  0
    2.9130    8.5209    0.0000 C   0  0  0  0  0  0  0  0  0  0  0  0
    0.8639    7.9719    0.0000 C   0  0  0  0  0  0  0  0  0  0  0  0
    1.4130    5.9228    0.0000 C   0  0  0  0  0  0  0  0  0  0  0  0
    4.7611    2.7219    0.0000 C   0  0  0  0  0  0  0  0  0  0  0  0
    6.0601    4.9719    0.0000 C   0  0  0  0  0  0  0  0  0  0  0  0
    4.7611    4.2219    0.0000 C   0  0  0  0  0  0  0  0  0  0  0  0
    3.4620    1.9719    0.0000 C   0  0  0  0  0  0  0  0  0  0  0  0
    6.0601    6.4719    0.0000 C   0  0  0  0  0  0  0  0  0  0  0  0
    3.4620    4.9719    0.0000 C   0  0  0  0  0  0  0  0  0  0  0  0
    2.1630    2.7219    0.0000 O   0  0  0  0  0  0  0  0  0  0  0  0
    4.7611    7.2219    0.0000 O   0  0  0  0  0  0  0  0  0  0  0  0
    2.1630    4.2219    0.0000 O   0  0  0  0  0  0  0  0  0  0  0  0
    3.4620    0.4719    0.0000 O   0  0  0  0  0  0  0  0  0  0  0  0
    7.3591    7.2219    0.0000 O   0  0  0  0  0  0  0  0  0  0  0  0
    3.4620    6.4719    0.0000 O   0  0  0  0  0  0  0  0  0  0  0  0
    2.1630   -0.2781    0.0000 Si  0  0  0  0  0  4  0  0  0  0  0  0
    7.3591    8.7219    0.0000 Si  0  0  0  0  0  4  0  0  0  0  0  0
    2.1630    7.2219    0.0000 Si  0  0  0  0  0  4  0  0  0  0  0  0
 12 10  1  0
 12 11  1  0
 13 10  1  0
 14 11  1  0
 15 12  1  0
 16 13  2  0
 17 14  2  0
 18 15  2  0
 19 13  1  0
 20 14  1  0
 21 15  1  0
 22  1  1  0
 22  2  1  0
 22  3  1  0
 22 19  1  0
 23  4  1  0
 23  5  1  0
 23  6  1  0
 23 20  1  0
 24  7  1  0
 24  8  1  0
 24  9  1  0
 24 21  1  0
M  END
>  <NAME>  (6800) 
1,2,3-PROPANETRICARBOXYLIC ACID TRIS(TRIMETHYLSILYL) ESTER

>  <SYNONYMS>  (6800) 
TRI(TRIMETHYLSILYL) 1,2,3-PROPANETRICARBOXYLATE

>  <SPECTRUM TYPE>  (6800) 
MS1

>  <INSTRUMENT TYPE>  (6800) 
EI-B

>  <INSTRUMENT>  (6800) 
JEOL JMS-01-SG

>  <ION MODE>  (6800) 
P

>  <INCHIKEY>  (6800) 
VEXAYJWEIRRBOE-UHFFFAOYSA-N

>  <FORMULA>  (6800) 
C15H32O6Si3

>  <EXACT MASS>  (6800) 
392.150668334

>  <MW>  (6800) 
392

>  <ID>  (6800) 
JP001071

>  <CONTRIBUTOR>  (6800) 
University of Tokyo Team, {Faculty of Engineering, University of Tokyo

>  <COMMENT>  (6800) 
SMILES=O=C(O[Si](C)(C)C)CC(CC(=O)O[Si](C)(C)C)C(=O)O[Si](C)(C)C
InChI=InChI=1S/C15H32O6Si3/c1-22(2,3)19-13(16)10-12(15(18)21-24(7,8)9)11-14(17)20-23(4,5)6/h12H,10-11H2,1-9H3
computed SMILES=O=C(O[Si](C)(C)C)CC(C(=O)O[Si](C)(C)C)CC(=O)O[Si](C)(C)C
accession=JP001071
date=2016.01.19 (Created 2008.10.21, modified 2011.05.06)
author=KOGA M, UNIV. OF OCCUPATIONAL AND ENVIRONMENTAL HEALTH
license=CC BY-NC-SA
exact mass=392.15067
ionization energy=70 eV
ion type=[M]+*
computed spectral entropy=2.5894404938701046
computed normalized entropy=0.8147881162814044
SPLASH=splash10-00b9-9100000000-a5b0260da9b7aab55cae
submitter=submitter = University of Tokyo Team (Faculty of Engineering, University of Tokyo)
MoNA Rating=3.75

>  <NUM PEAKS>  (6800) 
24

>  <MASS SPECTRAL PEAKS>  (6800) 
43 8.1
45 30.8
47 8.8
49 0.88
55 20.7
69 15
73 99.99
74 0.88
75 42.1
77 71.6
78 6.9
93 0.69
95 8.8
133 6.9
141 6.9
147 8.3
148 10
149 10
184 6.9
185 2.38
215 6.9
217 18.8
377 27.6
378 6.9

$$$$

     RDKit          2D

 24 23  0  0  0  0  0  0  0  0999 V2000
    2.9130   -1.5772    0.0000 C   0  0  0  0  0  0  0  0  0  0  0  0
    1.4130    1.0209    0.0000 C   0  0  0  0  0  0  0  0  0  0  0  0
    0.8639   -1.0281    0.0000 C   0  0  0  0  0  0  0  0  0  0  0  0
    8.8591    8.7219    0.0000 C   0  0  0  0  0  0  0  0  0  0  0  0
    7.3591   10.2219    0.0000 C   0  0  0  0  0  0  0  0  0  0  0  0
    5.8591    8.7219    0.0000 C   0  0  0  0  0  0  0  0  0  0  0  0
    2.9130    8.5209    0.0000 C   0  0  0  0  0  0  0  0  0  0  0  0
    0.8639    7.9719    0.0000 C   0  0  0  0  0  0  0  0  0  0  0  0
    1.4130    5.9228    0.0000 C   0  0  0  0  0  0  0  0  0  0  0  0
    4.7611    2.7219    0.0000 C   0  0  0  0  0  0  0  0  0  0  0  0
    6.0601    4.9719    0.0000 C   0  0  0  0  0  0  0  0  0  0  0  0
    4.7611    4.2219    0.0000 C   0  0  0  0  0  0  0  0  0  0  0  0
    3.4620    1.9719    0.0000 C   0  0  0  0  0  0  0  0  0  0  0  0
    6.0601    6.4719    0.0000 C   0  0  0  0  0  0  0  0  0  0  0  0
    3.4620    4.9719    0.0000 C   0  0  0  0  0  0  0  0  0  0  0  0
    2.1630    2.7219    0.0000 O   0  0  0  0  0  0  0  0  0  0  0  0
    4.7611    7.2219    0.0000 O   0  0  0  0  0  0  0  0  0  0  0  0
    2.1630    4.2219    0.0000 O   0  0  0  0  0  0  0  0  0  0  0  0
    3.4620    0.4719    0.0000 O   0  0  0  0  0  0  0  0  0  0  0  0
    7.3591    7.2219    0.0000 O   0  0  0  0  0  0  0  0  0  0  0  0
    3.4620    6.4719    0.0000 O   0  0  0  0  0  0  0  0  0  0  0  0
    2.1630   -0.2781    0.0000 Si  0  0  0  0  0  4  0  0  0  0  0  0
    7.3591    8.7219    0.0000 Si  0  0  0  0  0  4  0  0  0  0  0  0
    2.1630    7.2219    0.0000 Si  0  0  0  0  0  4  0  0  0  0  0  0
 10 12  2  0
 12 11  1  0
 13 10  1  0
 14 11  1  0
 15 12  1  0
 16 13  2  0
 17 14  2  0
 18 15  2  0
 19 13  1  0
 20 14  1  0
 21 15  1  0
 22  1  1  0
 22  2  1  0
 22  3  1  0
 22 19  1  0
 23  4  1  0
 23  5  1  0
 23  6  1  0
 23 20  1  0
 24  7  1  0
 24  8  1  0
 24  9  1  0
 24 21  1  0
M  END
>  <NAME>  (6801) 
CIS-1-PROPENE-1,2,3-TRICARBOXYLIC ACID TRI(TRIMETHYLSILYL) ESTER

>  <SYNONYMS>  (6801) 
TRI(TRIMETHYLSILYL) CIS-1-PROPENE-1,2,3-TRICARBOXYLATE

>  <SPECTRUM TYPE>  (6801) 
MS1

>  <INSTRUMENT TYPE>  (6801) 
EI-B

>  <INSTRUMENT>  (6801) 
JEOL JMS-01-SG

>  <ION MODE>  (6801) 
P

>  <INCHIKEY>  (6801) 
RHDPKJMZPKZKTA-BENRWUELSA-N

>  <FORMULA>  (6801) 
C15H30O6Si3

>  <EXACT MASS>  (6801) 
390.13501826999993

>  <MW>  (6801) 
390

>  <ID>  (6801) 
JP001070

>  <CONTRIBUTOR>  (6801) 
University of Tokyo Team, {Faculty of Engineering, University of Tokyo

>  <COMMENT>  (6801) 
SMILES=O=C(O[Si](C)(C)C)CC(=CC(=O)O[Si](C)(C)C)C(=O)O[Si](C)(C)C
InChI=InChI=1S/C15H30O6Si3/c1-22(2,3)19-13(16)10-12(15(18)21-24(7,8)9)11-14(17)20-23(4,5)6/h10H,11H2,1-9H3/b12-10-
computed SMILES=O=C(O[Si](C)(C)C)C=C(C(=O)O[Si](C)(C)C)CC(=O)O[Si](C)(C)C
accession=JP001070
date=2016.01.19 (Created 2008.10.21, modified 2011.05.06)
author=KOGA M, UNIV. OF OCCUPATIONAL AND ENVIRONMENTAL HEALTH
license=CC BY-NC-SA
exact mass=390.13502
ionization energy=70 eV
ion type=[M]+*
computed spectral entropy=2.275029727649622
computed normalized entropy=0.8205435264887696
SPLASH=splash10-0092-9320000000-16612049a672bbd2b30b
submitter=submitter = University of Tokyo Team (Faculty of Engineering, University of Tokyo)
MoNA Rating=3.75

>  <NUM PEAKS>  (6801) 
16

>  <MASS SPECTRAL PEAKS>  (6801) 
44 24.7
45 18.9
47 17.1
67 1.1
73 99.99
74 10.1
75 69.1
77 2.55
93 13.6
147 95.5
148 15.4
211 2.01
229 43.1
285 19.3
375 20.2
376 6.1

$$$$

     RDKit          2D

 24 23  0  0  0  0  0  0  0  0999 V2000
   -2.0957    2.7721    0.0000 C   0  0  0  0  0  0  0  0  0  0  0  0
   -0.5957    5.3702    0.0000 C   0  0  0  0  0  0  0  0  0  0  0  0
   -2.6447    4.8212    0.0000 C   0  0  0  0  0  0  0  0  0  0  0  0
    5.6986    9.8702    0.0000 C   0  0  0  0  0  0  0  0  0  0  0  0
    7.7476    9.3212    0.0000 C   0  0  0  0  0  0  0  0  0  0  0  0
    7.1986    7.2721    0.0000 C   0  0  0  0  0  0  0  0  0  0  0  0
    8.4976    4.6202    0.0000 C   0  0  0  0  0  0  0  0  0  0  0  0
    9.0466    2.5712    0.0000 C   0  0  0  0  0  0  0  0  0  0  0  0
    6.9976    2.0221    0.0000 C   0  0  0  0  0  0  0  0  0  0  0  0
    2.5514    3.3212    0.0000 C   0  0  0  0  0  0  0  0  0  0  0  0
    3.8505    5.5712    0.0000 C   0  0  0  0  0  0  0  0  0  0  0  0
    3.8505    4.0712    0.0000 C   0  0  0  0  0  0  0  0  0  0  0  0
    1.2524    4.0712    0.0000 C   0  0  0  0  0  0  0  0  0  0  0  0
    5.1495    6.3212    0.0000 C   0  0  0  0  0  0  0  0  0  0  0  0
    5.1495    3.3212    0.0000 C   0  0  0  0  0  0  0  0  0  0  0  0
    1.2524    5.5712    0.0000 O   0  0  0  0  0  0  0  0  0  0  0  0
    6.4486    5.5712    0.0000 O   0  0  0  0  0  0  0  0  0  0  0  0
    5.1495    1.8212    0.0000 O   0  0  0  0  0  0  0  0  0  0  0  0
   -0.0466    3.3212    0.0000 O   0  0  0  0  0  0  0  0  0  0  0  0
    5.1495    7.8212    0.0000 O   0  0  0  0  0  0  0  0  0  0  0  0
    6.4486    4.0712    0.0000 O   0  0  0  0  0  0  0  0  0  0  0  0
   -1.3457    4.0712    0.0000 Si  0  0  0  0  0  4  0  0  0  0  0  0
    6.4486    8.5712    0.0000 Si  0  0  0  0  0  4  0  0  0  0  0  0
    7.7476    3.3212    0.0000 Si  0  0  0  0  0  4  0  0  0  0  0  0
 10 12  2  0
 12 11  1  0
 13 10  1  0
 14 11  1  0
 15 12  1  0
 16 13  2  0
 17 14  2  0
 18 15  2  0
 19 13  1  0
 20 14  1  0
 21 15  1  0
 22  1  1  0
 22  2  1  0
 22  3  1  0
 22 19  1  0
 23  4  1  0
 23  5  1  0
 23  6  1  0
 23 20  1  0
 24  7  1  0
 24  8  1  0
 24  9  1  0
 24 21  1  0
M  END
>  <NAME>  (6802) 
TRANS-1-PROPENE-1,2,3-TRICARBOXYLIC ACID TRI(TRIMETHYLSILYL) ESTER

>  <SYNONYMS>  (6802) 
TRI(TRIMETHYLSILYL) TRANS-1-PROPENE-1,2,3-TRICARBOXYLATE

>  <SPECTRUM TYPE>  (6802) 
MS1

>  <INSTRUMENT TYPE>  (6802) 
EI-B

>  <INSTRUMENT>  (6802) 
JEOL JMS-01-SG

>  <ION MODE>  (6802) 
P

>  <INCHIKEY>  (6802) 
RHDPKJMZPKZKTA-ZRDIBKRKSA-N

>  <FORMULA>  (6802) 
C15H30O6Si3

>  <EXACT MASS>  (6802) 
390.13501826999993

>  <MW>  (6802) 
390

>  <ID>  (6802) 
JP001069

>  <CONTRIBUTOR>  (6802) 
University of Tokyo Team, {Faculty of Engineering, University of Tokyo

>  <COMMENT>  (6802) 
SMILES=O=C(O[Si](C)(C)C)CC(=CC(=O)O[Si](C)(C)C)C(=O)O[Si](C)(C)C
InChI=InChI=1S/C15H30O6Si3/c1-22(2,3)19-13(16)10-12(15(18)21-24(7,8)9)11-14(17)20-23(4,5)6/h10H,11H2,1-9H3/b12-10+
computed SMILES=O=C(O[Si](C)(C)C)C=C(C(=O)O[Si](C)(C)C)CC(=O)O[Si](C)(C)C
accession=JP001069
date=2016.01.19 (Created 2008.10.21, modified 2011.05.06)
author=KOGA M, UNIV. OF OCCUPATIONAL AND ENVIRONMENTAL HEALTH
license=CC BY-NC-SA
exact mass=390.13502
ionization energy=70 eV
ion type=[M]+*
computed spectral entropy=2.7498807204604585
computed normalized entropy=0.7934478556888946
SPLASH=splash10-004m-9000000000-3bb1f7d69a4a78f5fcba
submitter=submitter = University of Tokyo Team (Faculty of Engineering, University of Tokyo)
MoNA Rating=3.75

>  <NUM PEAKS>  (6802) 
32

>  <MASS SPECTRAL PEAKS>  (6802) 
43 18.5
44 35.5
45 42.9
47 2.12
49 14.2
59 4.6
61 5.2
63 0.54
65 4.8
66 4.6
67 7.2
73 7.2
74 7.6
75 99.99
76 6.2
77 9.37
78 5.4
79 5.2
81 4.2
92 0.46
93 11.9
95 7
97 6.6
117 0.5
131 4.6
133 4.4
141 4.6
147 3.08
148 5.4
149 5
211 5
229 5.2

$$$$

     RDKit          2D

 25 24  0  0  0  0  0  0  0  0999 V2000
   19.9046    7.8579    0.0000 C   0  0  0  0  0  0  0  0  0  0  0  0
   18.4046    5.2599    0.0000 C   0  0  0  0  0  0  0  0  0  0  0  0
   20.4536    5.8089    0.0000 C   0  0  0  0  0  0  0  0  0  0  0  0
   -2.3800    7.8579    0.0000 C   0  0  0  0  0  0  0  0  0  0  0  0
   -2.9291    5.8089    0.0000 C   0  0  0  0  0  0  0  0  0  0  0  0
   -0.8800    5.2599    0.0000 C   0  0  0  0  0  0  0  0  0  0  0  0
    8.7623    6.5589    0.0000 C   0  0  0  0  0  0  0  0  0  0  0  0
   10.0613    7.3089    0.0000 C   0  0  0  0  0  0  0  0  0  0  0  0
    7.4632    7.3089    0.0000 C   0  0  0  0  0  0  0  0  0  0  0  0
   11.3603    6.5589    0.0000 C   0  0  0  0  0  0  0  0  0  0  0  0
    6.1642    6.5589    0.0000 C   0  0  0  0  0  0  0  0  0  0  0  0
   12.6594    7.3089    0.0000 C   0  0  0  0  0  0  0  0  0  0  0  0
    4.8651    7.3089    0.0000 C   0  0  0  0  0  0  0  0  0  0  0  0
   13.9584    6.5589    0.0000 C   0  0  0  0  0  0  0  0  0  0  0  0
    3.5661    6.5589    0.0000 C   0  0  0  0  0  0  0  0  0  0  0  0
   15.2575    7.3089    0.0000 C   0  0  0  0  0  0  0  0  0  0  0  0
    2.2671    7.3089    0.0000 C   0  0  0  0  0  0  0  0  0  0  0  0
   16.5565    6.5589    0.0000 C   0  0  0  0  0  0  0  0  0  0  0  0
    0.9680    6.5589    0.0000 C   0  0  0  0  0  0  0  0  0  0  0  0
   16.5565    5.0589    0.0000 O   0  0  0  0  0  0  0  0  0  0  0  0
    0.9680    5.0589    0.0000 O   0  0  0  0  0  0  0  0  0  0  0  0
   17.8555    7.3089    0.0000 O   0  0  0  0  0  0  0  0  0  0  0  0
   -0.3310    7.3089    0.0000 O   0  0  0  0  0  0  0  0  0  0  0  0
   19.1546    6.5589    0.0000 Si  0  0  0  0  0  4  0  0  0  0  0  0
   -1.6300    6.5589    0.0000 Si  0  0  0  0  0  4  0  0  0  0  0  0
  8  7  1  0
  9  7  1  0
 10  8  1  0
 11  9  1  0
 12 10  1  0
 13 11  1  0
 14 12  1  0
 15 13  1  0
 16 14  1  0
 17 15  1  0
 18 16  1  0
 19 17  1  0
 20 18  2  0
 21 19  2  0
 22 18  1  0
 23 19  1  0
 24  1  1  0
 24  2  1  0
 24  3  1  0
 24 22  1  0
 25  4  1  0
 25  5  1  0
 25  6  1  0
 25 23  1  0
M  END
>  <NAME>  (6803) 
TRIDECANEDIOIC ACID BIS(TRIMETHYLSILYL) ESTER

>  <SYNONYMS>  (6803) 
DI(TRIMETHYLSILYL) TRIDECANEDIOATE

>  <SPECTRUM TYPE>  (6803) 
MS1

>  <INSTRUMENT TYPE>  (6803) 
EI-B

>  <INSTRUMENT>  (6803) 
JEOL JMS-01-SG

>  <ION MODE>  (6803) 
P

>  <INCHIKEY>  (6803) 
QMAWNDBFLCEGKZ-UHFFFAOYSA-N

>  <FORMULA>  (6803) 
C19H40O4Si2

>  <EXACT MASS>  (6803) 
388.24651282

>  <MW>  (6803) 
388

>  <ID>  (6803) 
JP001068

>  <CONTRIBUTOR>  (6803) 
University of Tokyo Team, {Faculty of Engineering, University of Tokyo

>  <COMMENT>  (6803) 
SMILES=C(CCCCCC(=O)O[Si](C)(C)C)CCCCCC(=O)O[Si](C)(C)C
InChI=InChI=1S/C19H40O4Si2/c1-24(2,3)22-18(20)16-14-12-10-8-7-9-11-13-15-17-19(21)23-25(4,5)6/h7-17H2,1-6H3
computed SMILES=O=C(O[Si](C)(C)C)CCCCCCCCCCCC(=O)O[Si](C)(C)C
accession=JP001068
date=2016.01.19 (Created 2008.10.21, modified 2011.05.06)
author=KOGA M, UNIV. OF OCCUPATIONAL AND ENVIRONMENTAL HEALTH
license=CC BY-NC-SA
exact mass=388.24651
ionization energy=70 eV
ion type=[M]+*
computed spectral entropy=2.487008331075832
computed normalized entropy=0.8446459066303675
SPLASH=splash10-00fr-9211000000-b2de9157431d1d188ae5
submitter=submitter = University of Tokyo Team (Faculty of Engineering, University of Tokyo)
MoNA Rating=3.75

>  <NUM PEAKS>  (6803) 
19

>  <MASS SPECTRAL PEAKS>  (6803) 
45 10
55 28.9
69 12.1
73 99.99
75 79.2
81 14.4
83 15.3
95 1.16
97 10.7
117 27.9
129 24.7
147 1.46
149 20.7
204 18.1
217 22.1
257 1.65
373 39.6
374 12.1
375 3.4

$$$$

     RDKit          2D

 26 27  0  0  0  0  0  0  0  0999 V2000
   -6.2797    3.7383    0.0000 C   0  0  0  0  0  0  0  0  0  0  0  0
   -6.8284    1.6892    0.0000 C   0  0  0  0  0  0  0  0  0  0  0  0
   -4.7793    1.1405    0.0000 C   0  0  0  0  0  0  0  0  0  0  0  0
    5.6172   -0.3583    0.0000 C   0  0  0  0  0  0  0  0  0  0  0  0
    6.1659    1.6908    0.0000 C   0  0  0  0  0  0  0  0  0  0  0  0
    4.1168    2.2395    0.0000 C   0  0  0  0  0  0  0  0  0  0  0  0
    0.9575    4.6900    0.0000 C   0  0  0  0  0  0  0  0  0  0  0  0
   -1.6200   -1.3100    0.0000 C   0  0  0  0  0  0  0  0  0  0  0  0
   -0.3325    5.4400    0.0000 C   0  0  0  0  0  0  0  0  0  0  0  0
   -0.3300   -2.0600    0.0000 C   0  0  0  0  0  0  0  0  0  0  0  0
    0.9575    3.1900    0.0000 C   0  0  0  0  0  0  0  0  0  0  0  0
   -1.6200    0.1900    0.0000 C   0  0  0  0  0  0  0  0  0  0  0  0
   -1.6325    4.6900    0.0000 C   0  0  0  0  0  0  0  0  0  0  0  0
    0.9700   -1.3100    0.0000 C   0  0  0  0  0  0  0  0  0  0  0  0
   -0.3325    2.4400    0.0000 C   0  0  0  0  0  0  0  0  0  0  0  0
   -0.3300    0.9400    0.0000 C   0  0  0  0  0  0  0  0  0  0  0  0
   -1.6325    3.1900    0.0000 C   0  0  0  0  0  0  0  0  0  0  0  0
    0.9700    0.1900    0.0000 C   0  0  0  0  0  0  0  0  0  0  0  0
   -2.9314    2.4398    0.0000 C   0  0  0  0  0  0  0  0  0  0  0  0
    2.2689    0.9402    0.0000 C   0  0  0  0  0  0  0  0  0  0  0  0
   -2.9312    0.9398    0.0000 O   0  0  0  0  0  0  0  0  0  0  0  0
    2.2687    2.4402    0.0000 O   0  0  0  0  0  0  0  0  0  0  0  0
   -4.2306    3.1896    0.0000 O   0  0  0  0  0  0  0  0  0  0  0  0
    3.5681    0.1904    0.0000 O   0  0  0  0  0  0  0  0  0  0  0  0
   -5.5295    2.4394    0.0000 Si  0  0  0  0  0  4  0  0  0  0  0  0
    4.8670    0.9406    0.0000 Si  0  0  0  0  0  4  0  0  0  0  0  0
  9  7  2  0
 10  8  2  0
 11  7  1  0
 12  8  1  0
 13  9  1  0
 14 10  1  0
 15 11  2  0
 16 12  2  0
 16 15  1  0
 17 13  2  0
 17 15  1  0
 18 14  2  0
 18 16  1  0
 19 17  1  0
 20 18  1  0
 21 19  2  0
 22 20  2  0
 23 19  1  0
 24 20  1  0
 25  1  1  0
 25  2  1  0
 25  3  1  0
 25 23  1  0
 26  4  1  0
 26  5  1  0
 26  6  1  0
 26 24  1  0
M  END
>  <NAME>  (6804) 
2,2'-BIPHENYLDICARBOXYLIC ACID BIS(TRIMETHYLSILYL) ESTER

>  <SYNONYMS>  (6804) 
DI(TRIMETHYLSILYL) BIPHENYL-2,2'-DICARBOXYLATE

>  <SPECTRUM TYPE>  (6804) 
MS1

>  <INSTRUMENT TYPE>  (6804) 
EI-B

>  <INSTRUMENT>  (6804) 
JEOL JMS-01-SG

>  <ION MODE>  (6804) 
P

>  <INCHIKEY>  (6804) 
WEMHCCRHWUYMOB-UHFFFAOYSA-N

>  <FORMULA>  (6804) 
C20H26O4Si2

>  <EXACT MASS>  (6804) 
386.13696237199997

>  <MW>  (6804) 
386

>  <ID>  (6804) 
JP001067

>  <CONTRIBUTOR>  (6804) 
University of Tokyo Team, {Faculty of Engineering, University of Tokyo

>  <COMMENT>  (6804) 
SMILES=C[Si](C)(C)OC(=O)c(c2)c(ccc2)c(c1)c(ccc1)C(=O)O[Si](C)(C)C
InChI=InChI=1S/C20H26O4Si2/c1-25(2,3)23-19(21)17-13-9-7-11-15(17)16-12-8-10-14-18(16)20(22)24-26(4,5)6/h7-14H,1-6H3
computed SMILES=O=C(O[Si](C)(C)C)C=1C=CC=CC1C=2C=CC=CC2C(=O)O[Si](C)(C)C
accession=JP001067
date=2016.01.19 (Created 2008.10.21, modified 2011.05.06)
author=KOGA M, UNIV. OF OCCUPATIONAL AND ENVIRONMENTAL HEALTH
license=CC BY-NC-SA
exact mass=386.13696
ionization energy=70 eV
ion type=[M]+*
computed spectral entropy=3.3058524438278485
computed normalized entropy=0.8684385476021836
SPLASH=splash10-00fs-4931000000-0b3544d9a8e52018a695
submitter=submitter = University of Tokyo Team (Faculty of Engineering, University of Tokyo)
MoNA Rating=3.75

>  <NUM PEAKS>  (6804) 
45

>  <MASS SPECTRAL PEAKS>  (6804) 
45 65.1
47 9
63 11
72 1.06
73 40.1
74 46.3
75 34.4
76 5.12
77 6.1
104 20
119 29
127 0.86
131 15.5
133 32.3
139 9
147 2.82
148 85.2
149 45
150 15.9
151 2.45
152 22.9
153 7.3
156 19.6
164 4.67
165 20.9
178 99.99
179 25.8
180 2.09
181 11
195 10.6
211 12.2
237 0.69
251 7.7
253 29.5
254 6.9
267 1.02
269 45.4
270 10.2
271 84
272 1.06
327 38.1
328 9.4
371 50.8
372 1.43
373 6.1

$$$$

     RDKit          2D

 24 24  0  0  0  0  0  0  0  0999 V2000
   -2.3390   -2.6210    0.0000 C   0  0  0  0  0  0  0  0  0  0  0  0
   -2.8881   -4.6700    0.0000 C   0  0  0  0  0  0  0  0  0  0  0  0
   -0.8390   -5.2190    0.0000 C   0  0  0  0  0  0  0  0  0  0  0  0
   -0.8390    4.8790    0.0000 C   0  0  0  0  0  0  0  0  0  0  0  0
   -2.8881    4.3300    0.0000 C   0  0  0  0  0  0  0  0  0  0  0  0
   -2.3390    2.2810    0.0000 C   0  0  0  0  0  0  0  0  0  0  0  0
    5.4564   -0.7183    0.0000 C   0  0  0  0  0  0  0  0  0  0  0  0
    7.5053   -0.1690    0.0000 C   0  0  0  0  0  0  0  0  0  0  0  0
    6.9559    1.8800    0.0000 C   0  0  0  0  0  0  0  0  0  0  0  0
   -1.5900   -0.9200    0.0000 C   0  0  0  0  0  0  0  0  0  0  0  0
   -1.5900    0.5800    0.0000 C   0  0  0  0  0  0  0  0  0  0  0  0
    1.0100   -0.9200    0.0000 C   0  0  0  0  0  0  0  0  0  0  0  0
    2.3089    1.3302    0.0000 C   0  0  0  0  0  0  0  0  0  0  0  0
    1.0100    0.5800    0.0000 C   0  0  0  0  0  0  0  0  0  0  0  0
   -0.2900   -1.6700    0.0000 C   0  0  0  0  0  0  0  0  0  0  0  0
   -0.2900    1.3300    0.0000 C   0  0  0  0  0  0  0  0  0  0  0  0
    3.6081    0.5804    0.0000 C   0  0  0  0  0  0  0  0  0  0  0  0
    3.6083   -0.9196    0.0000 O   0  0  0  0  0  0  0  0  0  0  0  0
   -0.2900   -3.1700    0.0000 O   0  0  0  0  0  0  0  0  0  0  0  0
   -0.2900    2.8300    0.0000 O   0  0  0  0  0  0  0  0  0  0  0  0
    4.9070    1.3306    0.0000 O   0  0  0  0  0  0  0  0  0  0  0  0
   -1.5890   -3.9200    0.0000 Si  0  0  0  0  0  4  0  0  0  0  0  0
   -1.5890    3.5800    0.0000 Si  0  0  0  0  0  4  0  0  0  0  0  0
    6.2062    0.5808    0.0000 Si  0  0  0  0  0  4  0  0  0  0  0  0
 11 10  2  0
 14 12  1  0
 14 13  1  0
 15 10  1  0
 15 12  2  0
 16 11  1  0
 16 14  2  0
 17 13  1  0
 18 17  2  0
 19 15  1  0
 20 16  1  0
 21 17  1  0
 22  1  1  0
 22  2  1  0
 22  3  1  0
 22 19  1  0
 23  4  1  0
 23  5  1  0
 23  6  1  0
 23 20  1  0
 24  7  1  0
 24  8  1  0
 24  9  1  0
 24 21  1  0
M  END
>  <NAME>  (6805) 
2,5-BIS(TRIMETHYLSILYL)OXY-PHENYLACETIC ACID TRIMETHYLSILYL ESTER

>  <SYNONYMS>  (6805) 
TRIMETHYLSILYL 2,5-BIS(TRIMETHYLSILOXY)PHENYLACETATE

>  <SPECTRUM TYPE>  (6805) 
MS1

>  <INSTRUMENT TYPE>  (6805) 
EI-B

>  <INSTRUMENT>  (6805) 
JEOL JMS-01-SG

>  <ION MODE>  (6805) 
P

>  <INCHIKEY>  (6805) 
NLTJSNRUCPSKFR-UHFFFAOYSA-N

>  <FORMULA>  (6805) 
C17H32O4Si3

>  <EXACT MASS>  (6805) 
384.160839094

>  <MW>  (6805) 
384

>  <ID>  (6805) 
JP001066

>  <CONTRIBUTOR>  (6805) 
University of Tokyo Team, {Faculty of Engineering, University of Tokyo

>  <COMMENT>  (6805) 
SMILES=O=C(O[Si](C)(C)C)Cc(c1)c(ccc(O[Si](C)(C)C)1)O[Si](C)(C)C
InChI=InChI=1S/C17H32O4Si3/c1-22(2,3)19-15-10-11-16(20-23(4,5)6)14(12-15)13-17(18)21-24(7,8)9/h10-12H,13H2,1-9H3
computed SMILES=O=C(O[Si](C)(C)C)CC1=CC(O[Si](C)(C)C)=CC=C1O[Si](C)(C)C
accession=JP001066
date=2016.01.19 (Created 2008.10.21, modified 2011.05.06)
author=KOGA M, UNIV. OF OCCUPATIONAL AND ENVIRONMENTAL HEALTH
license=CC BY-NC-SA
exact mass=384.16084
ionization energy=70 eV
ion type=[M]+*
computed spectral entropy=2.152557810443486
computed normalized entropy=0.7597584611689501
SPLASH=splash10-00di-9115000000-7c0d44de143ef3494e67
submitter=submitter = University of Tokyo Team (Faculty of Engineering, University of Tokyo)
MoNA Rating=3.75

>  <NUM PEAKS>  (6805) 
17

>  <MASS SPECTRAL PEAKS>  (6805) 
45 14.6
47 5.2
73 99.99
74 0.73
75 23.9
77 6.5
147 24.3
194 0.93
237 11.7
252 16.6
341 30.8
342 0.77
343 4
369 4
384 39.4
385 1.09
386 5.2

$$$$

     RDKit          2D

 24 24  0  0  0  0  0  0  0  0999 V2000
   -4.3873    5.4205    0.0000 C   0  0  0  0  0  0  0  0  0  0  0  0
   -2.8873    6.9205    0.0000 C   0  0  0  0  0  0  0  0  0  0  0  0
   -1.3873    5.4205    0.0000 C   0  0  0  0  0  0  0  0  0  0  0  0
   -1.3881   -0.5804    0.0000 C   0  0  0  0  0  0  0  0  0  0  0  0
   -2.8883   -2.0802    0.0000 C   0  0  0  0  0  0  0  0  0  0  0  0
   -4.3881   -0.5799    0.0000 C   0  0  0  0  0  0  0  0  0  0  0  0
    6.9560    0.3714    0.0000 C   0  0  0  0  0  0  0  0  0  0  0  0
    7.5050    2.4205    0.0000 C   0  0  0  0  0  0  0  0  0  0  0  0
    5.4560    2.9695    0.0000 C   0  0  0  0  0  0  0  0  0  0  0  0
    1.0103    3.1713    0.0000 C   0  0  0  0  0  0  0  0  0  0  0  0
   -0.2887    3.9213    0.0000 C   0  0  0  0  0  0  0  0  0  0  0  0
   -0.2897    0.9196    0.0000 C   0  0  0  0  0  0  0  0  0  0  0  0
    2.3089    0.9205    0.0000 C   0  0  0  0  0  0  0  0  0  0  0  0
    1.0098    1.6705    0.0000 C   0  0  0  0  0  0  0  0  0  0  0  0
   -1.5882    3.1705    0.0000 C   0  0  0  0  0  0  0  0  0  0  0  0
   -1.5887    1.6696    0.0000 C   0  0  0  0  0  0  0  0  0  0  0  0
    3.6079    1.6705    0.0000 C   0  0  0  0  0  0  0  0  0  0  0  0
    3.6079    3.1705    0.0000 O   0  0  0  0  0  0  0  0  0  0  0  0
   -2.8873    3.9205    0.0000 O   0  0  0  0  0  0  0  0  0  0  0  0
   -2.8879    0.9198    0.0000 O   0  0  0  0  0  0  0  0  0  0  0  0
    4.9070    0.9205    0.0000 O   0  0  0  0  0  0  0  0  0  0  0  0
   -2.8873    5.4205    0.0000 Si  0  0  0  0  0  4  0  0  0  0  0  0
   -2.8881   -0.5802    0.0000 Si  0  0  0  0  0  4  0  0  0  0  0  0
    6.2060    1.6705    0.0000 Si  0  0  0  0  0  4  0  0  0  0  0  0
 11 10  2  0
 14 10  1  0
 14 12  2  0
 14 13  1  0
 15 11  1  0
 16 12  1  0
 16 15  2  0
 17 13  1  0
 18 17  2  0
 19 15  1  0
 20 16  1  0
 21 17  1  0
 22  1  1  0
 22  2  1  0
 22  3  1  0
 22 19  1  0
 23  4  1  0
 23  5  1  0
 23  6  1  0
 23 20  1  0
 24  7  1  0
 24  8  1  0
 24  9  1  0
 24 21  1  0
M  END
>  <NAME>  (6806) 
3,4-BIS(TRIMETHYLSILYL)OXY-PHENYLACETIC ACID TRIMETHYLSILYL ESTER

>  <SYNONYMS>  (6806) 
TRIMETHYLSILYL 3,4-BIS(TRIMETHYLSILOXY)PHENYLACETATE

>  <SPECTRUM TYPE>  (6806) 
MS1

>  <INSTRUMENT TYPE>  (6806) 
EI-B

>  <INSTRUMENT>  (6806) 
JEOL JMS-01-SG

>  <ION MODE>  (6806) 
P

>  <INCHIKEY>  (6806) 
RYYDTJQPEUISHG-UHFFFAOYSA-N

>  <FORMULA>  (6806) 
C17H32O4Si3

>  <EXACT MASS>  (6806) 
384.160839094

>  <MW>  (6806) 
384

>  <ID>  (6806) 
JP001065

>  <CONTRIBUTOR>  (6806) 
University of Tokyo Team, {Faculty of Engineering, University of Tokyo

>  <COMMENT>  (6806) 
SMILES=O=C(O[Si](C)(C)C)Cc(c1)cc(O[Si](C)(C)C)c(c1)O[Si](C)(C)C
InChI=InChI=1S/C17H32O4Si3/c1-22(2,3)19-15-11-10-14(12-16(15)20-23(4,5)6)13-17(18)21-24(7,8)9/h10-12H,13H2,1-9H3
computed SMILES=O=C(O[Si](C)(C)C)CC1=CC=C(O[Si](C)(C)C)C(O[Si](C)(C)C)=C1
accession=JP001065
date=2016.01.19 (Created 2008.10.21, modified 2011.05.06)
author=KOGA M, UNIV. OF OCCUPATIONAL AND ENVIRONMENTAL HEALTH
license=CC BY-NC-SA
exact mass=384.16084
ionization energy=70 eV
ion type=[M]+*
computed spectral entropy=1.991561559566914
computed normalized entropy=0.7546488426824963
SPLASH=splash10-00di-9322000000-b440b7bb3df48685d539
submitter=submitter = University of Tokyo Team (Faculty of Engineering, University of Tokyo)
MoNA Rating=3.75

>  <NUM PEAKS>  (6806) 
14

>  <MASS SPECTRAL PEAKS>  (6806) 
45 29.4
73 99.99
74 8.5
75 1.44
77 5.8
179 49.5
180 7.4
237 1.21
267 32
268 7.9
340 3.3
369 0.71
384 29.4
385 9.8

$$$$

     RDKit          2D

 24 24  0  0  0  0  0  0  0  0999 V2000
    7.4346   -1.4102    0.0000 C   0  0  0  0  0  0  0  0  0  0  0  0
    7.9668    0.6433    0.0000 C   0  0  0  0  0  0  0  0  0  0  0  0
    5.9133    1.1754    0.0000 C   0  0  0  0  0  0  0  0  0  0  0  0
   -0.3600    5.6883    0.0000 C   0  0  0  0  0  0  0  0  0  0  0  0
   -2.4117    5.1493    0.0000 C   0  0  0  0  0  0  0  0  0  0  0  0
   -1.8727    3.0976    0.0000 C   0  0  0  0  0  0  0  0  0  0  0  0
   -4.4728    2.7085    0.0000 C   0  0  0  0  0  0  0  0  0  0  0  0
   -5.0319    0.6622    0.0000 C   0  0  0  0  0  0  0  0  0  0  0  0
   -2.9856    0.1030    0.0000 C   0  0  0  0  0  0  0  0  0  0  0  0
    2.7660    2.1302    0.0000 C   0  0  0  0  0  0  0  0  0  0  0  0
    1.4524   -0.0947    0.0000 C   0  0  0  0  0  0  0  0  0  0  0  0
    4.0505    1.4053    0.0000 C   0  0  0  0  0  0  0  0  0  0  0  0
    2.7769   -0.8888    0.0000 C   0  0  0  0  0  0  0  0  0  0  0  0
    1.4669    1.3802    0.0000 C   0  0  0  0  0  0  0  0  0  0  0  0
    4.0760   -0.1388    0.0000 C   0  0  0  0  0  0  0  0  0  0  0  0
    0.1716    2.1366    0.0000 C   0  0  0  0  0  0  0  0  0  0  0  0
   -1.1311    1.3930    0.0000 C   0  0  0  0  0  0  0  0  0  0  0  0
   -1.1385   -0.1070    0.0000 O   0  0  0  0  0  0  0  0  0  0  0  0
    5.3811   -0.8781    0.0000 O   0  0  0  0  0  0  0  0  0  0  0  0
    0.1790    3.6365    0.0000 O   0  0  0  0  0  0  0  0  0  0  0  0
   -2.4265    2.1493    0.0000 O   0  0  0  0  0  0  0  0  0  0  0  0
    6.6740   -0.1174    0.0000 Si  0  0  0  0  0  4  0  0  0  0  0  0
   -1.1164    4.3929    0.0000 Si  0  0  0  0  0  4  0  0  0  0  0  0
   -3.7292    1.4058    0.0000 Si  0  0  0  0  0  4  0  0  0  0  0  0
 12 10  2  0
 13 11  1  0
 14 10  1  0
 14 11  2  0
 15 12  1  0
 15 13  2  0
 16 14  1  0
 17 16  1  0
 18 17  2  0
 19 15  1  0
 20 16  1  0
 21 17  1  0
 22  1  1  0
 22  2  1  0
 22  3  1  0
 22 19  1  0
 23  4  1  0
 23  5  1  0
 23  6  1  0
 23 20  1  0
 24  7  1  0
 24  8  1  0
 24  9  1  0
 24 21  1  0
M  END
>  <NAME>  (6807) 
DL-PARA-ALPHA-BIS(TRIMETHYLSILYL)OXY-PHENYLACETIC ACID TRIMETHYLSILYL ESTER

>  <SYNONYMS>  (6807) 
TRIMETHYLSILYL ALPHA-TRIMETHYLSILOXY-ALPHA-(4-TRIMETHYLSILOXYPHENYL)ACETATE

>  <SPECTRUM TYPE>  (6807) 
MS1

>  <INSTRUMENT TYPE>  (6807) 
EI-B

>  <INSTRUMENT>  (6807) 
JEOL JMS-01-SG

>  <ION MODE>  (6807) 
P

>  <INCHIKEY>  (6807) 
YPRXSYQBVBCYJZ-UHFFFAOYSA-N

>  <FORMULA>  (6807) 
C17H32O4Si3

>  <EXACT MASS>  (6807) 
384.160839094

>  <MW>  (6807) 
384

>  <ID>  (6807) 
JP001064

>  <CONTRIBUTOR>  (6807) 
University of Tokyo Team, {Faculty of Engineering, University of Tokyo

>  <COMMENT>  (6807) 
SMILES=C[Si](C)(C)Oc(c1)ccc(c1)C(O[Si](C)(C)C)C(=O)O[Si](C)(C)C
InChI=InChI=1S/C17H32O4Si3/c1-22(2,3)19-15-12-10-14(11-13-15)16(20-23(4,5)6)17(18)21-24(7,8)9/h10-13,16H,1-9H3
computed SMILES=O=C(O[Si](C)(C)C)C(O[Si](C)(C)C)C1=CC=C(O[Si](C)(C)C)C=C1
accession=JP001064
date=2016.01.19 (Created 2008.10.21, modified 2011.05.06)
author=KOGA M, UNIV. OF OCCUPATIONAL AND ENVIRONMENTAL HEALTH
license=CC BY-NC-SA
exact mass=384.16084
ionization energy=70 eV
ion type=[M]+*
computed spectral entropy=1.4989485668854454
computed normalized entropy=0.6509850912551363
SPLASH=splash10-01b9-7190000000-9e5c412c5839d9736824
submitter=submitter = University of Tokyo Team (Faculty of Engineering, University of Tokyo)
MoNA Rating=3.75

>  <NUM PEAKS>  (6807) 
10

>  <MASS SPECTRAL PEAKS>  (6807) 
45 9.4
73 73.9
74 6
75 0.96
148 13.1
193 6.4
267 99.99
268 2.26
269 8.5
341 5

$$$$

     RDKit          2D

 26 25  0  0  0  0  0  0  0  0999 V2000
  -20.0481   12.2243    0.0000 C   0  0  0  0  0  0  0  0  0  0  0  0
  -18.7490    9.9743    0.0000 C   0  0  0  0  0  0  0  0  0  0  0  0
    6.6827   10.9252    0.0000 C   0  0  0  0  0  0  0  0  0  0  0  0
    7.2317   12.9743    0.0000 C   0  0  0  0  0  0  0  0  0  0  0  0
    5.1827   13.5233    0.0000 C   0  0  0  0  0  0  0  0  0  0  0  0
   -8.3567   11.4743    0.0000 C   0  0  0  0  0  0  0  0  0  0  0  0
   -7.0577   12.2243    0.0000 C   0  0  0  0  0  0  0  0  0  0  0  0
   -9.6558   12.2243    0.0000 C   0  0  0  0  0  0  0  0  0  0  0  0
   -5.7587   11.4743    0.0000 C   0  0  0  0  0  0  0  0  0  0  0  0
  -10.9548   11.4743    0.0000 C   0  0  0  0  0  0  0  0  0  0  0  0
   -4.4596   12.2243    0.0000 C   0  0  0  0  0  0  0  0  0  0  0  0
  -12.2538   12.2243    0.0000 C   0  0  0  0  0  0  0  0  0  0  0  0
   -3.1606   11.4743    0.0000 C   0  0  0  0  0  0  0  0  0  0  0  0
  -13.5529   11.4743    0.0000 C   0  0  0  0  0  0  0  0  0  0  0  0
   -1.8615   12.2243    0.0000 C   0  0  0  0  0  0  0  0  0  0  0  0
  -14.8519   12.2243    0.0000 C   0  0  0  0  0  0  0  0  0  0  0  0
   -0.5625   11.4743    0.0000 C   0  0  0  0  0  0  0  0  0  0  0  0
  -16.1510   11.4743    0.0000 C   0  0  0  0  0  0  0  0  0  0  0  0
    0.7365   12.2243    0.0000 C   0  0  0  0  0  0  0  0  0  0  0  0
  -17.4500   12.2243    0.0000 C   0  0  0  0  0  0  0  0  0  0  0  0
    2.0356   11.4743    0.0000 C   0  0  0  0  0  0  0  0  0  0  0  0
  -18.7490   11.4743    0.0000 C   0  0  0  0  0  0  0  0  0  0  0  0
    3.3346   12.2243    0.0000 C   0  0  0  0  0  0  0  0  0  0  0  0
    3.3346   13.7243    0.0000 O   0  0  0  0  0  0  0  0  0  0  0  0
    4.6337   11.4743    0.0000 O   0  0  0  0  0  0  0  0  0  0  0  0
    5.9327   12.2243    0.0000 Si  0  0  0  0  0  4  0  0  0  0  0  0
  7  6  1  0
  8  6  1  0
  9  7  1  0
 10  8  1  0
 11  9  1  0
 12 10  1  0
 13 11  1  0
 14 12  1  0
 15 13  1  0
 16 14  1  0
 17 15  1  0
 18 16  1  0
 19 17  1  0
 20 18  1  0
 21 19  1  0
 22  1  1  0
 22  2  1  0
 22 20  1  0
 23 21  1  0
 24 23  2  0
 25 23  1  0
 26  3  1  0
 26  4  1  0
 26  5  1  0
 26 25  1  0
M  END
>  <NAME>  (6808) 
18-METHYLNONADECANOIC ACID TRIMETHYLSILYLESTER

>  <SYNONYMS>  (6808) 
TRIMETHYLSILYL 18-METHYLNONADECANOATE

>  <SPECTRUM TYPE>  (6808) 
MS1

>  <INSTRUMENT TYPE>  (6808) 
EI-B

>  <INSTRUMENT>  (6808) 
JEOL JMS-01-SG

>  <ION MODE>  (6808) 
P

>  <INCHIKEY>  (6808) 
UHFRRFHGAYNJOT-UHFFFAOYSA-N

>  <FORMULA>  (6808) 
C23H48O2Si

>  <EXACT MASS>  (6808) 
384.342357306

>  <MW>  (6808) 
384

>  <ID>  (6808) 
JP001063

>  <CONTRIBUTOR>  (6808) 
University of Tokyo Team, {Faculty of Engineering, University of Tokyo

>  <COMMENT>  (6808) 
SMILES=CC(C)CCCCCCCCCCCCCCCCC(=O)O[Si](C)(C)C
InChI=InChI=1S/C23H48O2Si/c1-22(2)20-18-16-14-12-10-8-6-7-9-11-13-15-17-19-21-23(24)25-26(3,4)5/h22H,6-21H2,1-5H3
computed SMILES=O=C(O[Si](C)(C)C)CCCCCCCCCCCCCCCCC(C)C
accession=JP001063
date=2016.01.19 (Created 2008.10.21, modified 2011.05.06)
author=KOGA M, UNIV. OF OCCUPATIONAL AND ENVIRONMENTAL HEALTH
license=CC BY-NC-SA
exact mass=384.34236
ionization energy=70 eV
ion type=[M]+*
computed spectral entropy=2.8788278280183706
computed normalized entropy=0.7607514703319843
SPLASH=splash10-01di-9500000000-a348f3919f0dc4b9e0a9
submitter=submitter = University of Tokyo Team (Faculty of Engineering, University of Tokyo)
MoNA Rating=3.75

>  <NUM PEAKS>  (6808) 
44

>  <MASS SPECTRAL PEAKS>  (6808) 
43 33.7
45 4.9
47 3.6
55 2.68
56 6.6
57 21.4
61 4.1
67 0.73
69 17.9
71 6.8
73 99.99
74 0.91
75 75.6
76 4.9
77 5.1
81 0.73
83 10.5
84 3.6
85 3.2
95 0.71
97 7.6
98 6.1
109 3.2
111 0.44
116 4.1
117 92.6
118 8.3
119 0.34
129 30.5
130 4.4
131 11.5
132 4.18
133 9.1
134 2.7
143 2.9
145 3.17
146 4.4
159 2.9
185 2.7
187 0.24
201 6.1
369 22.4
370 6.8
384 2.2

$$$$

     RDKit          2D

 23 22  0  0  0  0  0  0  0  0999 V2000
    5.5010    5.1834    0.0000 C   0  0  0  0  0  0  0  0  0  0  0  0
   -1.4094    2.7353    0.0000 C   0  0  0  0  0  0  0  0  0  0  0  0
    0.0906    5.3334    0.0000 C   0  0  0  0  0  0  0  0  0  0  0  0
   -1.9584    4.7844    0.0000 C   0  0  0  0  0  0  0  0  0  0  0  0
   10.4829    2.7353    0.0000 C   0  0  0  0  0  0  0  0  0  0  0  0
   11.0320    4.7844    0.0000 C   0  0  0  0  0  0  0  0  0  0  0  0
    8.9829    5.3334    0.0000 C   0  0  0  0  0  0  0  0  0  0  0  0
    5.4952    6.0799    0.0000 C   0  0  0  0  0  0  0  0  0  0  0  0
    4.5987    8.0025    0.0000 C   0  0  0  0  0  0  0  0  0  0  0  0
    2.6761    7.1060    0.0000 C   0  0  0  0  0  0  0  0  0  0  0  0
    3.2377    3.2844    0.0000 C   0  0  0  0  0  0  0  0  0  0  0  0
    5.8358    3.2844    0.0000 C   0  0  0  0  0  0  0  0  0  0  0  0
    1.9387    4.0344    0.0000 C   0  0  0  0  0  0  0  0  0  0  0  0
    7.1349    4.0344    0.0000 C   0  0  0  0  0  0  0  0  0  0  0  0
    4.5368    4.0344    0.0000 C   0  0  0  0  0  0  0  0  0  0  0  0
    1.9387    5.5344    0.0000 O   0  0  0  0  0  0  0  0  0  0  0  0
    7.1349    5.5344    0.0000 O   0  0  0  0  0  0  0  0  0  0  0  0
    0.6397    3.2844    0.0000 O   0  0  0  0  0  0  0  0  0  0  0  0
    8.4339    3.2844    0.0000 O   0  0  0  0  0  0  0  0  0  0  0  0
    3.5726    5.1834    0.0000 O   0  0  0  0  0  0  0  0  0  0  0  0
   -0.6594    4.0344    0.0000 Si  0  0  0  0  0  4  0  0  0  0  0  0
    9.7329    4.0344    0.0000 Si  0  0  0  0  0  4  0  0  0  0  0  0
    4.0856    6.5930    0.0000 Si  0  0  0  0  0  4  0  0  0  0  0  0
 13 11  1  0
 14 12  1  0
 15  1  1  0
 15 11  1  0
 15 12  1  0
 16 13  2  0
 17 14  2  0
 18 13  1  0
 19 14  1  0
 20 15  1  0
 21  2  1  0
 21  3  1  0
 21  4  1  0
 21 18  1  0
 22  5  1  0
 22  6  1  0
 22  7  1  0
 22 19  1  0
 23  8  1  0
 23  9  1  0
 23 10  1  0
 23 20  1  0
M  END
>  <NAME>  (6809) 
3-METHYL-3-(TRIMETHYLSILYL)OXYGLUTARIC ACID BIS(TRIMETHYLSILYL) ESTER

>  <SYNONYMS>  (6809) 
DI(TRIMETHYLSILYL) 3-METHYL-3-TRIMETHYLSILOXYPENTANEDIOATE

>  <SPECTRUM TYPE>  (6809) 
MS1

>  <INSTRUMENT TYPE>  (6809) 
EI-B

>  <INSTRUMENT>  (6809) 
JEOL JMS-01-SG

>  <ION MODE>  (6809) 
P

>  <INCHIKEY>  (6809) 
SWDDFRVEZJUJJD-UHFFFAOYSA-N

>  <FORMULA>  (6809) 
C15H34O5Si3

>  <EXACT MASS>  (6809) 
378.17140377799996

>  <MW>  (6809) 
378

>  <ID>  (6809) 
JP001062

>  <CONTRIBUTOR>  (6809) 
University of Tokyo Team, {Faculty of Engineering, University of Tokyo

>  <COMMENT>  (6809) 
SMILES=O=C(O[Si](C)(C)C)CC(C)(CC(=O)O[Si](C)(C)C)O[Si](C)(C)C
InChI=InChI=1S/C15H34O5Si3/c1-15(20-23(8,9)10,11-13(16)18-21(2,3)4)12-14(17)19-22(5,6)7/h11-12H2,1-10H3
computed SMILES=O=C(O[Si](C)(C)C)CC(O[Si](C)(C)C)(C)CC(=O)O[Si](C)(C)C
accession=JP001062
date=2016.01.19 (Created 2008.10.21, modified 2011.05.06)
author=KOGA M, UNIV. OF OCCUPATIONAL AND ENVIRONMENTAL HEALTH
license=CC BY-NC-SA
exact mass=378.1714
ionization energy=70 eV
ion type=[M]+*
computed spectral entropy=2.5700136565484044
computed normalized entropy=0.8196518569519431
SPLASH=splash10-00dj-9620000000-873e16d7029f10b64b9e
submitter=submitter = University of Tokyo Team (Faculty of Engineering, University of Tokyo)
MoNA Rating=3.75

>  <NUM PEAKS>  (6809) 
23

>  <MASS SPECTRAL PEAKS>  (6809) 
43 5.2
45 10.4
55 7
73 99.99
74 10
75 29.7
83 5.5
85 0.53
109 15.5
115 20.9
117 7.2
133 0.55
147 48
148 7.5
149 7.8
183 0.69
199 21.7
203 10
231 17.8
247 3.34
248 7.2
273 15.4
363 8.9

$$$$

     RDKit          2D

 24 23  0  0  0  0  0  0  0  0999 V2000
   19.1178    6.9707    0.0000 C   0  0  0  0  0  0  0  0  0  0  0  0
   17.6178    4.3726    0.0000 C   0  0  0  0  0  0  0  0  0  0  0  0
   19.6668    4.9216    0.0000 C   0  0  0  0  0  0  0  0  0  0  0  0
   -0.3678    7.7207    0.0000 C   0  0  0  0  0  0  0  0  0  0  0  0
   -2.4168    7.1716    0.0000 C   0  0  0  0  0  0  0  0  0  0  0  0
   -1.8678    5.1226    0.0000 C   0  0  0  0  0  0  0  0  0  0  0  0
    9.2745    6.4216    0.0000 C   0  0  0  0  0  0  0  0  0  0  0  0
    7.9755    5.6716    0.0000 C   0  0  0  0  0  0  0  0  0  0  0  0
   10.5736    5.6716    0.0000 C   0  0  0  0  0  0  0  0  0  0  0  0
    6.6764    6.4216    0.0000 C   0  0  0  0  0  0  0  0  0  0  0  0
   11.8726    6.4216    0.0000 C   0  0  0  0  0  0  0  0  0  0  0  0
    5.3774    5.6716    0.0000 C   0  0  0  0  0  0  0  0  0  0  0  0
   13.1716    5.6716    0.0000 C   0  0  0  0  0  0  0  0  0  0  0  0
    4.0784    6.4216    0.0000 C   0  0  0  0  0  0  0  0  0  0  0  0
   14.4707    6.4216    0.0000 C   0  0  0  0  0  0  0  0  0  0  0  0
    2.7793    5.6716    0.0000 C   0  0  0  0  0  0  0  0  0  0  0  0
   15.7697    5.6716    0.0000 C   0  0  0  0  0  0  0  0  0  0  0  0
    1.4803    6.4216    0.0000 C   0  0  0  0  0  0  0  0  0  0  0  0
   15.7697    4.1716    0.0000 O   0  0  0  0  0  0  0  0  0  0  0  0
    1.4803    7.9216    0.0000 O   0  0  0  0  0  0  0  0  0  0  0  0
   17.0687    6.4216    0.0000 O   0  0  0  0  0  0  0  0  0  0  0  0
    0.1813    5.6716    0.0000 O   0  0  0  0  0  0  0  0  0  0  0  0
   18.3678    5.6716    0.0000 Si  0  0  0  0  0  4  0  0  0  0  0  0
   -1.1178    6.4216    0.0000 Si  0  0  0  0  0  4  0  0  0  0  0  0
  8  7  1  0
  9  7  1  0
 10  8  1  0
 11  9  1  0
 12 10  1  0
 13 11  1  0
 14 12  1  0
 15 13  1  0
 16 14  1  0
 17 15  1  0
 18 16  1  0
 19 17  2  0
 20 18  2  0
 21 17  1  0
 22 18  1  0
 23  1  1  0
 23  2  1  0
 23  3  1  0
 23 21  1  0
 24  4  1  0
 24  5  1  0
 24  6  1  0
 24 22  1  0
M  END
>  <NAME>  (6810) 
DODECANEDIOIC ACID BIS(TRIMETHYLSILYL) EST

>  <SYNONYMS>  (6810) 
ERDI(TRIMETHYLSILYL) DODECANEDIOATE

>  <SPECTRUM TYPE>  (6810) 
MS1

>  <INSTRUMENT TYPE>  (6810) 
EI-B

>  <INSTRUMENT>  (6810) 
JEOL JMS-01-SG

>  <ION MODE>  (6810) 
P

>  <INCHIKEY>  (6810) 
RJYFZCUYOIINDS-UHFFFAOYSA-N

>  <FORMULA>  (6810) 
C18H38O4Si2

>  <EXACT MASS>  (6810) 
374.23086275599996

>  <MW>  (6810) 
374

>  <ID>  (6810) 
JP001060

>  <CONTRIBUTOR>  (6810) 
University of Tokyo Team, {Faculty of Engineering, University of Tokyo

>  <COMMENT>  (6810) 
SMILES=C(CCCCCC(=O)O[Si](C)(C)C)CCCCC(=O)O[Si](C)(C)C
InChI=InChI=1S/C18H38O4Si2/c1-23(2,3)21-17(19)15-13-11-9-7-8-10-12-14-16-18(20)22-24(4,5)6/h7-16H2,1-6H3
computed SMILES=O=C(O[Si](C)(C)C)CCCCCCCCCCC(=O)O[Si](C)(C)C
accession=JP001060
date=2016.01.19 (Created 2008.10.21, modified 2011.05.06)
author=KOGA M, UNIV. OF OCCUPATIONAL AND ENVIRONMENTAL HEALTH
license=CC BY-NC-SA
exact mass=374.23086
ionization energy=70 eV
ion type=[M]+*
computed spectral entropy=2.308672925062153
computed normalized entropy=0.8148602469014578
SPLASH=splash10-00b9-9210000000-427a20ce9b1d3b87e51f
submitter=submitter = University of Tokyo Team (Faculty of Engineering, University of Tokyo)
MoNA Rating=3.75

>  <NUM PEAKS>  (6810) 
17

>  <MASS SPECTRAL PEAKS>  (6810) 
45 12.5
55 31.1
67 10.9
73 99.99
74 10.5
75 85.3
81 13.2
83 1.55
117 26.7
129 23.3
147 14.6
149 1.89
204 10.7
217 16
243 13.5
359 2.56
360 7

$$$$

     RDKit          2D

 26 28  0  0  1  0  0  0  0  0999 V2000
    4.4724    4.5780    0.0000 C   0  0  0  0  0  0  0  0  0  0  0  0
    5.7681    2.3261    0.0000 C   0  0  0  0  0  0  0  0  0  0  0  0
   -0.7200    1.5800    0.0000 C   0  0  0  0  0  0  0  0  0  0  0  0
   -2.9841   -3.3192    0.0000 C   0  0  0  0  0  0  0  0  0  0  0  0
    0.5441   -4.9138    0.0000 C   0  0  0  0  0  0  0  0  0  0  0  0
    0.3590   -7.0270    0.0000 C   0  0  0  0  0  0  0  0  0  0  0  0
   -1.7542   -6.8419    0.0000 C   0  0  0  0  0  0  0  0  0  0  0  0
   -3.3200    0.0800    0.0000 C   0  0  0  0  0  0  0  0  0  0  0  0
    1.8800    3.0800    0.0000 C   0  0  0  0  0  0  0  0  0  0  0  0
    1.8800   -1.4200    0.0000 C   0  0  0  0  0  0  0  0  0  0  0  0
    0.5800    2.3300    0.0000 C   0  0  0  0  0  0  0  0  0  0  0  0
    0.5800   -2.1700    0.0000 C   0  0  0  0  0  0  0  0  0  0  0  0
   -2.0200    0.8300    0.0000 C   0  0  0  0  0  0  0  0  0  0  0  0
   -3.3200   -1.4200    0.0000 C   0  0  0  0  0  0  0  0  0  0  0  0
    3.1700    0.8300    0.0000 C   0  0  0  0  0  0  0  0  0  0  0  0
    4.4702    3.0780    0.0000 C   0  0  0  0  0  0  0  0  0  0  0  0
    3.1700    2.3300    0.0000 C   0  0  0  0  0  0  0  0  0  0  0  0
    1.8800    0.0800    0.0000 C   0  0  0  0  0  0  0  0  0  0  0  0
    0.5800    0.8300    0.0000 C   0  0  0  0  0  0  0  0  0  0  0  0
   -0.7200   -1.4200    0.0000 C   0  0  0  0  0  0  0  0  0  0  0  0
   -1.0559   -3.3192    0.0000 C   0  0  0  0  0  0  0  0  0  0  0  0
   -0.7200    0.0800    0.0000 C   0  0  0  0  0  0  0  0  0  0  0  0
   -2.0200   -2.1700    0.0000 C   0  0  0  0  0  0  0  0  0  0  0  0
    0.4213   -3.0589    0.0000 O   0  0  0  0  0  0  0  0  0  0  0  0
   -1.5691   -4.7287    0.0000 O   0  0  0  0  0  0  0  0  0  0  0  0
   -0.6051   -5.8778    0.0000 Si  0  0  0  0  0  4  0  0  0  0  0  0
 11  9  1  0
 12 10  1  0
 13  8  1  0
 14  8  1  0
 16  1  1  0
 16  2  1  0
 17  9  1  0
 17 15  2  0
 17 16  1  0
 18 10  2  0
 18 15  1  0
 19 11  1  1
 19 18  1  0
 20 12  1  1
 22  3  1  1
 22 13  1  0
 22 19  1  0
 22 20  1  0
 23  4  1  1
 23 14  1  0
 23 20  1  0
 23 21  1  0
 24 21  2  0
 25 21  1  0
 26  5  1  0
 26  6  1  0
 26  7  1  0
 26 25  1  0
M  END
>  <NAME>  (6811) 
ABIETIC ACID TRIMETHYLSILYL ESTER

>  <SYNONYMS>  (6811) 
TRIMETHYLSILYL 7-ISOPROPYL-1,4A-DIMETHYL-1,2,3,4,4A,4B,5,6,10,10A-DECAHYDROPHENANTHRENE-1-CARBOXYLATE

>  <SPECTRUM TYPE>  (6811) 
MS1

>  <INSTRUMENT TYPE>  (6811) 
EI-B

>  <INSTRUMENT>  (6811) 
JEOL JMS-01-SG

>  <ION MODE>  (6811) 
P

>  <INCHIKEY>  (6811) 
RXWFRYPIQODUHW-KKSHJYNMSA-N

>  <FORMULA>  (6811) 
C23H38O2Si

>  <EXACT MASS>  (6811) 
374.264106986

>  <MW>  (6811) 
374

>  <ID>  (6811) 
JP001059

>  <CONTRIBUTOR>  (6811) 
University of Tokyo Team, {Faculty of Engineering, University of Tokyo

>  <COMMENT>  (6811) 
SMILES=CC(C)C(C3)=CC(=C2)C([H])(C3)C(C)(C1)C([H])(C2)C(C)(CC1)C(=O)O[Si](C)(C)C
InChI=InChI=1S/C23H38O2Si/c1-16(2)17-9-11-19-18(15-17)10-12-20-22(19,3)13-8-14-23(20,4)21(24)25-26(5,6)7/h10,15-16,19-20H,8-9,11-14H2,1-7H3/t19-,20+,22+,23+/m0/s1
computed SMILES=O=C(O[Si](C)(C)C)C1(C)CCCC2(C)C3C(C=C(CC3)C(C)C)=CCC12
accession=JP001059
date=2016.01.19 (Created 2008.10.21, modified 2011.05.06)
author=KOGA M, UNIV. OF OCCUPATIONAL AND ENVIRONMENTAL HEALTH
license=CC BY-NC-SA
exact mass=374.26411
ionization energy=70 eV
ion type=[M]+*
computed spectral entropy=3.286783818077492
computed normalized entropy=0.8793671334672543
SPLASH=splash10-0076-9880000000-24b5fd6530a234689cb4
submitter=submitter = University of Tokyo Team (Faculty of Engineering, University of Tokyo)
MoNA Rating=3.75

>  <NUM PEAKS>  (6811) 
42

>  <MASS SPECTRAL PEAKS>  (6811) 
43 39.6
45 15.9
55 13.6
67 1.06
69 23.6
73 89.3
75 26.6
79 1.3
81 17.1
91 17.1
93 18.3
103 1.3
105 24.2
107 14.2
109 17.7
115 1.53
117 22.4
119 10.6
129 13.6
131 2.42
133 19.5
141 14.2
143 26.6
159 1.42
173 18.9
185 36
186 11.8
193 1.12
213 23.6
237 16.5
239 99.99
240 2.13
241 34.9
243 42
255 18.9
256 6.44
257 18.3
357 5.9
359 5.9
361 0.41
372 4.1
374 5.9

$$$$

     RDKit          2D

 24 23  0  0  0  0  0  0  0  0999 V2000
   19.1178    6.9707    0.0000 C   0  0  0  0  0  0  0  0  0  0  0  0
   17.6178    4.3726    0.0000 C   0  0  0  0  0  0  0  0  0  0  0  0
   19.6668    4.9216    0.0000 C   0  0  0  0  0  0  0  0  0  0  0  0
   -0.3678    7.7207    0.0000 C   0  0  0  0  0  0  0  0  0  0  0  0
   -2.4168    7.1716    0.0000 C   0  0  0  0  0  0  0  0  0  0  0  0
   -1.8678    5.1226    0.0000 C   0  0  0  0  0  0  0  0  0  0  0  0
    9.2745    6.4216    0.0000 C   0  0  0  0  0  0  0  0  0  0  0  0
    7.9755    5.6716    0.0000 C   0  0  0  0  0  0  0  0  0  0  0  0
   10.5736    5.6716    0.0000 C   0  0  0  0  0  0  0  0  0  0  0  0
    6.6764    6.4216    0.0000 C   0  0  0  0  0  0  0  0  0  0  0  0
   11.8726    6.4216    0.0000 C   0  0  0  0  0  0  0  0  0  0  0  0
    5.3774    5.6716    0.0000 C   0  0  0  0  0  0  0  0  0  0  0  0
   13.1716    5.6716    0.0000 C   0  0  0  0  0  0  0  0  0  0  0  0
    4.0784    6.4216    0.0000 C   0  0  0  0  0  0  0  0  0  0  0  0
   14.4707    6.4216    0.0000 C   0  0  0  0  0  0  0  0  0  0  0  0
    2.7793    5.6716    0.0000 C   0  0  0  0  0  0  0  0  0  0  0  0
   15.7697    5.6716    0.0000 C   0  0  0  0  0  0  0  0  0  0  0  0
    1.4803    6.4216    0.0000 C   0  0  0  0  0  0  0  0  0  0  0  0
   15.7697    4.1716    0.0000 O   0  0  0  0  0  0  0  0  0  0  0  0
    1.4803    7.9216    0.0000 O   0  0  0  0  0  0  0  0  0  0  0  0
   17.0687    6.4216    0.0000 O   0  0  0  0  0  0  0  0  0  0  0  0
    0.1813    5.6716    0.0000 O   0  0  0  0  0  0  0  0  0  0  0  0
   18.3678    5.6716    0.0000 Si  0  0  0  0  0  4  0  0  0  0  0  0
   -1.1178    6.4216    0.0000 Si  0  0  0  0  0  4  0  0  0  0  0  0
  8  7  1  0
  9  7  1  0
 10  8  1  0
 11  9  1  0
 12 10  1  0
 13 11  1  0
 14 12  1  0
 13 15  2  0
 16 14  1  0
 17 15  1  0
 18 16  1  0
 19 17  2  0
 20 18  2  0
 21 17  1  0
 22 18  1  0
 23  1  1  0
 23  2  1  0
 23  3  1  0
 23 21  1  0
 24  4  1  0
 24  5  1  0
 24  6  1  0
 24 22  1  0
M  END
>  <NAME>  (6812) 
1-DECENE-1,10-DICARBOXYLIC ACID BIS(TRIMETHYLSILYL) ESTER

>  <SYNONYMS>  (6812) 
DI(TRIMETHYLSILYL) 2-DODECENEDIOATE

>  <SPECTRUM TYPE>  (6812) 
MS1

>  <INSTRUMENT TYPE>  (6812) 
EI-B

>  <INSTRUMENT>  (6812) 
JEOL JMS-01-SG

>  <ION MODE>  (6812) 
P

>  <INCHIKEY>  (6812) 
XUSCELGAZUEVPT-FYWRMAATSA-N

>  <FORMULA>  (6812) 
C18H36O4Si2

>  <EXACT MASS>  (6812) 
372.215212692

>  <MW>  (6812) 
372

>  <ID>  (6812) 
JP001058

>  <CONTRIBUTOR>  (6812) 
University of Tokyo Team, {Faculty of Engineering, University of Tokyo

>  <COMMENT>  (6812) 
SMILES=C(CCCC=CC(=O)O[Si](C)(C)C)CCCCC(=O)O[Si](C)(C)C
InChI=InChI=1S/C18H36O4Si2/c1-23(2,3)21-17(19)15-13-11-9-7-8-10-12-14-16-18(20)22-24(4,5)6/h13,15H,7-12,14,16H2,1-6H3/b15-13+
computed SMILES=O=C(O[Si](C)(C)C)C=CCCCCCCCCC(=O)O[Si](C)(C)C
accession=JP001058
date=2016.01.19 (Created 2008.10.21, modified 2011.05.06)
author=KOGA M, UNIV. OF OCCUPATIONAL AND ENVIRONMENTAL HEALTH
license=CC BY-NC-SA
exact mass=372.21521
ionization energy=70 eV
ion type=[M]+*
computed spectral entropy=2.8839618948611503
computed normalized entropy=0.8321355047657839
SPLASH=splash10-004i-9400000000-bfacb6d0bffcb541bbd9
submitter=submitter = University of Tokyo Team (Faculty of Engineering, University of Tokyo)
MoNA Rating=3.75

>  <NUM PEAKS>  (6812) 
32

>  <MASS SPECTRAL PEAKS>  (6812) 
43 10.3
47 20.4
49 12.6
55 1.97
67 17.8
69 9.3
73 99.99
74 1.13
75 86.2
76 8.2
77 95
79 0.99
81 34.2
82 9.5
95 17.8
97 0.84
117 25.6
129 27.5
132 9.1
145 1.01
147 40
149 15.7
155 13.4
164 3.79
165 18
192 40.4
193 7.8
239 1.6
240 4.5
313 13.6
357 9
358 5.1

$$$$

     RDKit          2D

 25 26  0  0  0  0  0  0  0  0999 V2000
   -2.3208    6.9524    0.0000 C   0  0  0  0  0  0  0  0  0  0  0  0
   -4.3698    6.4034    0.0000 C   0  0  0  0  0  0  0  0  0  0  0  0
   -3.8208    4.3543    0.0000 C   0  0  0  0  0  0  0  0  0  0  0  0
    1.0045    2.9138    0.0000 C   0  0  0  0  0  0  0  0  0  0  0  0
    2.9947    4.5838    0.0000 C   0  0  0  0  0  0  0  0  0  0  0  0
    1.2571    5.8006    0.0000 C   0  0  0  0  0  0  0  0  0  0  0  0
   -0.4727   -1.8466    0.0000 C   0  0  0  0  0  0  0  0  0  0  0  0
    4.4316    1.7886    0.0000 C   0  0  0  0  0  0  0  0  0  0  0  0
    0.8273   -1.0966    0.0000 C   0  0  0  0  0  0  0  0  0  0  0  0
   -1.7727   -1.0966    0.0000 C   0  0  0  0  0  0  0  0  0  0  0  0
    3.9188    3.1991    0.0000 C   0  0  0  0  0  0  0  0  0  0  0  0
    3.4673    0.6386    0.0000 C   0  0  0  0  0  0  0  0  0  0  0  0
    0.8273    0.4034    0.0000 C   0  0  0  0  0  0  0  0  0  0  0  0
   -1.7727    0.4034    0.0000 C   0  0  0  0  0  0  0  0  0  0  0  0
    2.4416    3.4595    0.0000 C   0  0  0  0  0  0  0  0  0  0  0  0
    1.9901    0.8990    0.0000 C   0  0  0  0  0  0  0  0  0  0  0  0
   -0.4727    1.1534    0.0000 C   0  0  0  0  0  0  0  0  0  0  0  0
    1.4772    2.3095    0.0000 C   0  0  0  0  0  0  0  0  0  0  0  0
   -1.7717    3.4034    0.0000 C   0  0  0  0  0  0  0  0  0  0  0  0
   -0.4727    2.6534    0.0000 C   0  0  0  0  0  0  0  0  0  0  0  0
   -3.0708    2.6534    0.0000 O   0  0  0  0  0  0  0  0  0  0  0  0
   -1.7717    4.9034    0.0000 O   0  0  0  0  0  0  0  0  0  0  0  0
    0.0403    4.0629    0.0000 O   0  0  0  0  0  0  0  0  0  0  0  0
   -3.0708    5.6534    0.0000 Si  0  0  0  0  0  4  0  0  0  0  0  0
    1.5175    4.3234    0.0000 Si  0  0  0  0  0  4  0  0  0  0  0  0
  9  7  2  0
 10  7  1  0
 11  8  2  0
 12  8  1  0
 13  9  1  0
 14 10  2  0
 15 11  1  0
 16 12  2  0
 17 13  2  0
 17 14  1  0
 18 15  2  0
 18 16  1  0
 20 17  1  0
 20 18  1  0
 20 19  1  0
 21 19  2  0
 22 19  1  0
 23 20  1  0
 24  1  1  0
 24  2  1  0
 24  3  1  0
 24 22  1  0
 25  4  1  0
 25  5  1  0
 25  6  1  0
 25 23  1  0
M  END
>  <NAME>  (6813) 
ALPHA-(TRIMETHYLSILYL)OXY-DIPHENYLACETIC ACID TRIMETHYLSILYL ESTER

>  <SYNONYMS>  (6813) 
TRIMETHYLSILYL ALPHA,ALPHA-DIPHENYL-ALPHA-TRIMETHYLSILOXYACETATE

>  <SPECTRUM TYPE>  (6813) 
MS1

>  <INSTRUMENT TYPE>  (6813) 
EI-B

>  <INSTRUMENT>  (6813) 
JEOL JMS-01-SG

>  <ION MODE>  (6813) 
P

>  <INCHIKEY>  (6813) 
HDZAYJSSMMEYNX-UHFFFAOYSA-N

>  <FORMULA>  (6813) 
C20H28O3Si2

>  <EXACT MASS>  (6813) 
372.157697816

>  <MW>  (6813) 
372

>  <ID>  (6813) 
JP001057

>  <CONTRIBUTOR>  (6813) 
University of Tokyo Team, {Faculty of Engineering, University of Tokyo

>  <COMMENT>  (6813) 
SMILES=C[Si](C)(C)OC(=O)C(O[Si](C)(C)C)(c(c2)cccc2)c(c1)cccc1
InChI=InChI=1S/C20H28O3Si2/c1-24(2,3)22-19(21)20(23-25(4,5)6,17-13-9-7-10-14-17)18-15-11-8-12-16-18/h7-16H,1-6H3
computed SMILES=O=C(O[Si](C)(C)C)C(O[Si](C)(C)C)(C=1C=CC=CC1)C=2C=CC=CC2
accession=JP001057
date=2016.01.19 (Created 2008.10.21, modified 2011.05.06)
author=KOGA M, UNIV. OF OCCUPATIONAL AND ENVIRONMENTAL HEALTH
license=CC BY-NC-SA
exact mass=372.1577
ionization energy=70 eV
ion type=[M]+*
computed spectral entropy=1.8884626069230097
computed normalized entropy=0.6811189094780175
SPLASH=splash10-0ab9-9180000000-f4070e0cdcd70849f979
submitter=submitter = University of Tokyo Team (Faculty of Engineering, University of Tokyo)
MoNA Rating=3.75

>  <NUM PEAKS>  (6813) 
16

>  <MASS SPECTRAL PEAKS>  (6813) 
43 7.5
45 19.7
73 85.6
74 0.35
75 10
77 10.4
105 8.2
147 1.79
148 1.7
165 6.8
166 2.1
239 0.17
255 99.99
256 22.3
257 5
329 5.3

$$$$

     RDKit          2D

 23 23  0  0  0  0  0  0  0  0999 V2000
    2.1442   -3.4432    0.0000 C   0  0  0  0  0  0  0  0  0  0  0  0
    3.6442   -4.9432    0.0000 C   0  0  0  0  0  0  0  0  0  0  0  0
    5.1442   -3.4432    0.0000 C   0  0  0  0  0  0  0  0  0  0  0  0
    5.1450    2.5572    0.0000 C   0  0  0  0  0  0  0  0  0  0  0  0
    3.6452    4.0574    0.0000 C   0  0  0  0  0  0  0  0  0  0  0  0
    2.1450    2.5577    0.0000 C   0  0  0  0  0  0  0  0  0  0  0  0
   -3.4001    2.3558    0.0000 C   0  0  0  0  0  0  0  0  0  0  0  0
   -5.4491    1.8068    0.0000 C   0  0  0  0  0  0  0  0  0  0  0  0
   -4.9001   -0.2422    0.0000 C   0  0  0  0  0  0  0  0  0  0  0  0
   -0.2534   -1.1940    0.0000 C   0  0  0  0  0  0  0  0  0  0  0  0
    1.0456   -1.9440    0.0000 C   0  0  0  0  0  0  0  0  0  0  0  0
    1.0466    1.0576    0.0000 C   0  0  0  0  0  0  0  0  0  0  0  0
   -0.2530    0.3068    0.0000 C   0  0  0  0  0  0  0  0  0  0  0  0
    2.3451   -1.1932    0.0000 C   0  0  0  0  0  0  0  0  0  0  0  0
    2.3456    0.3076    0.0000 C   0  0  0  0  0  0  0  0  0  0  0  0
   -1.5520    1.0568    0.0000 C   0  0  0  0  0  0  0  0  0  0  0  0
   -1.5520    2.5568    0.0000 O   0  0  0  0  0  0  0  0  0  0  0  0
    3.6442   -1.9432    0.0000 O   0  0  0  0  0  0  0  0  0  0  0  0
    3.6448    1.0574    0.0000 O   0  0  0  0  0  0  0  0  0  0  0  0
   -2.8510    0.3068    0.0000 O   0  0  0  0  0  0  0  0  0  0  0  0
    3.6442   -3.4432    0.0000 Si  0  0  0  0  0  4  0  0  0  0  0  0
    3.6450    2.5574    0.0000 Si  0  0  0  0  0  4  0  0  0  0  0  0
   -4.1501    1.0568    0.0000 Si  0  0  0  0  0  4  0  0  0  0  0  0
 11 10  2  0
 13 10  1  0
 13 12  2  0
 14 11  1  0
 15 12  1  0
 15 14  2  0
 16 13  1  0
 17 16  2  0
 18 14  1  0
 19 15  1  0
 20 16  1  0
 21  1  1  0
 21  2  1  0
 21  3  1  0
 21 18  1  0
 22  4  1  0
 22  5  1  0
 22  6  1  0
 22 19  1  0
 23  7  1  0
 23  8  1  0
 23  9  1  0
 23 20  1  0
M  END
>  <NAME>  (6814) 
3,4-BIS(TRIMETHYLSILYL)OXY-BENZOIC ACID TRIMETHYLSILYL ESTER

>  <SYNONYMS>  (6814) 
TRIMETHYLSILYL 3,4-BIS(TRIMETHYLSILOXY)BENZOATE

>  <SPECTRUM TYPE>  (6814) 
MS1

>  <INSTRUMENT TYPE>  (6814) 
EI-B

>  <INSTRUMENT>  (6814) 
JEOL JMS-01-SG

>  <ION MODE>  (6814) 
P

>  <INCHIKEY>  (6814) 
DVAGRNBRUDZPDF-UHFFFAOYSA-N

>  <FORMULA>  (6814) 
C16H30O4Si3

>  <EXACT MASS>  (6814) 
370.14518903

>  <MW>  (6814) 
370

>  <ID>  (6814) 
JP001056

>  <CONTRIBUTOR>  (6814) 
University of Tokyo Team, {Faculty of Engineering, University of Tokyo

>  <COMMENT>  (6814) 
SMILES=C[Si](C)(C)OC(=O)c(c1)cc(O[Si](C)(C)C)c(c1)O[Si](C)(C)C
InChI=InChI=1S/C16H30O4Si3/c1-21(2,3)18-14-11-10-13(16(17)20-23(7,8)9)12-15(14)19-22(4,5)6/h10-12H,1-9H3
computed SMILES=O=C(O[Si](C)(C)C)C1=CC=C(O[Si](C)(C)C)C(O[Si](C)(C)C)=C1
accession=JP001056
date=2016.01.19 (Created 2008.10.21, modified 2011.05.06)
author=KOGA M, UNIV. OF OCCUPATIONAL AND ENVIRONMENTAL HEALTH
license=CC BY-NC-SA
exact mass=370.14519
ionization energy=70 eV
ion type=[M]+*
computed spectral entropy=2.4641924383861102
computed normalized entropy=0.7175892895487838
SPLASH=splash10-00di-9115000000-c974a45e00f795d09fbf
submitter=submitter = University of Tokyo Team (Faculty of Engineering, University of Tokyo)
MoNA Rating=3.75

>  <NUM PEAKS>  (6814) 
31

>  <MASS SPECTRAL PEAKS>  (6814) 
43 2.5
44 2.5
45 22.8
47 0.28
59 2.5
73 99.99
74 7.8
75 1.03
77 1.8
133 2.8
137 4.3
147 0.43
165 5.9
179 2.5
193 6.5
194 1.41
195 5.6
207 2.1
223 5.6
267 0.25
281 6.5
282 2.1
311 16.6
312 0.34
313 2.1
355 22.2
356 6.8
357 0.25
370 29.4
371 9.7
372 3.1

$$$$

     RDKit          2D

 23 23  0  0  0  0  0  0  0  0999 V2000
    3.1483   -1.2187    0.0000 C   0  0  0  0  0  0  0  0  0  0  0  0
    5.1972   -0.6694    0.0000 C   0  0  0  0  0  0  0  0  0  0  0  0
    4.6479    1.3796    0.0000 C   0  0  0  0  0  0  0  0  0  0  0  0
   -0.5490    4.3790    0.0000 C   0  0  0  0  0  0  0  0  0  0  0  0
   -2.5981    3.8300    0.0000 C   0  0  0  0  0  0  0  0  0  0  0  0
   -2.0490    1.7810    0.0000 C   0  0  0  0  0  0  0  0  0  0  0  0
   -4.4468    2.1295    0.0000 C   0  0  0  0  0  0  0  0  0  0  0  0
   -6.4959    1.5808    0.0000 C   0  0  0  0  0  0  0  0  0  0  0  0
   -5.9472   -0.4683    0.0000 C   0  0  0  0  0  0  0  0  0  0  0  0
   -0.0000   -2.1700    0.0000 C   0  0  0  0  0  0  0  0  0  0  0  0
   -1.3000   -1.4200    0.0000 C   0  0  0  0  0  0  0  0  0  0  0  0
    1.3000   -1.4200    0.0000 C   0  0  0  0  0  0  0  0  0  0  0  0
   -1.3000    0.0800    0.0000 C   0  0  0  0  0  0  0  0  0  0  0  0
    1.3000    0.0800    0.0000 C   0  0  0  0  0  0  0  0  0  0  0  0
   -0.0000    0.8300    0.0000 C   0  0  0  0  0  0  0  0  0  0  0  0
   -2.5989    0.8302    0.0000 C   0  0  0  0  0  0  0  0  0  0  0  0
   -2.5987    2.3302    0.0000 O   0  0  0  0  0  0  0  0  0  0  0  0
    2.5989    0.8302    0.0000 O   0  0  0  0  0  0  0  0  0  0  0  0
    0.0000    2.3300    0.0000 O   0  0  0  0  0  0  0  0  0  0  0  0
   -3.8981    0.0804    0.0000 O   0  0  0  0  0  0  0  0  0  0  0  0
    3.8981    0.0804    0.0000 Si  0  0  0  0  0  4  0  0  0  0  0  0
   -1.2990    3.0800    0.0000 Si  0  0  0  0  0  4  0  0  0  0  0  0
   -5.1970    0.8306    0.0000 Si  0  0  0  0  0  4  0  0  0  0  0  0
 11 10  2  0
 12 10  1  0
 13 11  1  0
 14 12  2  0
 15 13  2  0
 15 14  1  0
 16 13  1  0
 17 16  2  0
 18 14  1  0
 19 15  1  0
 20 16  1  0
 21  1  1  0
 21  2  1  0
 21  3  1  0
 21 18  1  0
 22  4  1  0
 22  5  1  0
 22  6  1  0
 22 19  1  0
 23  7  1  0
 23  8  1  0
 23  9  1  0
 23 20  1  0
M  END
>  <NAME>  (6815) 
2,3-BIS(TRIMETHYLSILYL)OXY-BENZOIC ACID TRIMETHYLSILYL ESTER

>  <SYNONYMS>  (6815) 
TRIMETHYLSILYL 2,3-BIS(TRIMETHYLSILOXY)BENZOATE

>  <SPECTRUM TYPE>  (6815) 
MS1

>  <INSTRUMENT TYPE>  (6815) 
EI-B

>  <INSTRUMENT>  (6815) 
JEOL JMS-01-SG

>  <ION MODE>  (6815) 
P

>  <INCHIKEY>  (6815) 
IPIPJXIWUUYKNS-UHFFFAOYSA-N

>  <FORMULA>  (6815) 
C16H30O4Si3

>  <EXACT MASS>  (6815) 
370.14518903

>  <MW>  (6815) 
370

>  <ID>  (6815) 
JP001055

>  <CONTRIBUTOR>  (6815) 
University of Tokyo Team, {Faculty of Engineering, University of Tokyo

>  <COMMENT>  (6815) 
SMILES=C[Si](C)(C)OC(=O)c(c1)c(O[Si](C)(C)C)c(cc1)O[Si](C)(C)C
InChI=InChI=1S/C16H30O4Si3/c1-21(2,3)18-14-12-10-11-13(15(14)19-22(4,5)6)16(17)20-23(7,8)9/h10-12H,1-9H3
computed SMILES=O=C(O[Si](C)(C)C)C=1C=CC=C(O[Si](C)(C)C)C1O[Si](C)(C)C
accession=JP001055
date=2016.01.19 (Created 2008.10.21, modified 2011.05.06)
author=KOGA M, UNIV. OF OCCUPATIONAL AND ENVIRONMENTAL HEALTH
license=CC BY-NC-SA
exact mass=370.14519
ionization energy=70 eV
ion type=[M]+*
computed spectral entropy=1.951903280788115
computed normalized entropy=0.7609909626909214
SPLASH=splash10-00di-9100000000-8433019282588bea0b22
submitter=submitter = University of Tokyo Team (Faculty of Engineering, University of Tokyo)
MoNA Rating=3.75

>  <NUM PEAKS>  (6815) 
13

>  <MASS SPECTRAL PEAKS>  (6815) 
44 2.4
45 25
47 11.8
49 0.9
73 99.99
74 10
75 22.2
77 3.22
78 8.3
147 11.1
193 25
355 3.81
356 11.8

$$$$

     RDKit          2D

 18 18  0  0  0  0  0  0  0  0999 V2000
    7.5043    3.5800    0.0000 C   0  0  0  0  0  0  0  0  0  0  0  0
    7.5043   -3.9200    0.0000 C   0  0  0  0  0  0  0  0  0  0  0  0
    0.4590    0.3783    0.0000 C   0  0  0  0  0  0  0  0  0  0  0  0
   -1.5900   -0.1710    0.0000 C   0  0  0  0  0  0  0  0  0  0  0  0
   -1.0406   -2.2200    0.0000 C   0  0  0  0  0  0  0  0  0  0  0  0
    7.5053    0.5800    0.0000 C   0  0  0  0  0  0  0  0  0  0  0  0
    7.5053   -0.9200    0.0000 C   0  0  0  0  0  0  0  0  0  0  0  0
    4.9053    0.5800    0.0000 C   0  0  0  0  0  0  0  0  0  0  0  0
    3.6064   -1.6702    0.0000 C   0  0  0  0  0  0  0  0  0  0  0  0
    4.9053   -0.9200    0.0000 C   0  0  0  0  0  0  0  0  0  0  0  0
    6.2053    1.3300    0.0000 C   0  0  0  0  0  0  0  0  0  0  0  0
    6.2053   -1.6700    0.0000 C   0  0  0  0  0  0  0  0  0  0  0  0
    2.3072   -0.9204    0.0000 C   0  0  0  0  0  0  0  0  0  0  0  0
    2.3070    0.5796    0.0000 O   0  0  0  0  0  0  0  0  0  0  0  0
    6.2053    2.8300    0.0000 O   0  0  0  0  0  0  0  0  0  0  0  0
    6.2053   -3.1700    0.0000 O   0  0  0  0  0  0  0  0  0  0  0  0
    1.0083   -1.6706    0.0000 O   0  0  0  0  0  0  0  0  0  0  0  0
   -0.2908   -0.9208    0.0000 Si  0  0  0  0  0  4  0  0  0  0  0  0
  7  6  2  0
 10  8  1  0
 10  9  1  0
 11  6  1  0
 11  8  2  0
 12  7  1  0
 12 10  2  0
 13  9  1  0
 14 13  2  0
 15  1  1  0
 15 11  1  0
 16  2  1  0
 16 12  1  0
 17 13  1  0
 18  3  1  0
 18  4  1  0
 18  5  1  0
 18 17  1  0
M  END
>  <NAME>  (6816) 
2,5-DIMETHOXYPHENYLACETIC ACID TRIMETHYLSILYL ESTER

>  <SYNONYMS>  (6816) 
TRIMETHYLSILYL 2,5-DIMETHOXYPHENYLACETATE

>  <SPECTRUM TYPE>  (6816) 
MS1

>  <INSTRUMENT TYPE>  (6816) 
EI-B

>  <INSTRUMENT>  (6816) 
JEOL JMS-01-SG

>  <ION MODE>  (6816) 
P

>  <INCHIKEY>  (6816) 
ZPSFULASMKZAKO-UHFFFAOYSA-N

>  <FORMULA>  (6816) 
C13H20O4Si

>  <EXACT MASS>  (6816) 
268.11308565

>  <MW>  (6816) 
268

>  <ID>  (6816) 
JP001054

>  <CONTRIBUTOR>  (6816) 
University of Tokyo Team, {Faculty of Engineering, University of Tokyo

>  <COMMENT>  (6816) 
SMILES=COc(c1)cc(CC(=O)O[Si](C)(C)C)c(OC)c1
InChI=InChI=1S/C13H20O4Si/c1-15-11-6-7-12(16-2)10(8-11)9-13(14)17-18(3,4)5/h6-8H,9H2,1-5H3
computed SMILES=O=C(O[Si](C)(C)C)CC1=CC(OC)=CC=C1OC
accession=JP001054
date=2016.01.19 (Created 2008.10.21, modified 2011.05.06)
author=KOGA M, UNIV. OF OCCUPATIONAL AND ENVIRONMENTAL HEALTH
license=CC BY-NC-SA
exact mass=268.11309
ionization energy=70 eV
ion type=[M]+*
computed spectral entropy=2.5610119732270675
computed normalized entropy=0.7529736401171485
SPLASH=splash10-00di-9260000000-48c4840500464832f833
submitter=submitter = University of Tokyo Team (Faculty of Engineering, University of Tokyo)
MoNA Rating=3.75

>  <NUM PEAKS>  (6816) 
30

>  <MASS SPECTRAL PEAKS>  (6816) 
45 7.6
47 2.9
65 3.4
73 99.99
74 5.9
75 28.2
77 11.1
78 0.38
89 3.8
91 5.5
121 7.2
134 0.34
135 6.4
151 4.2
163 4.2
178 0.25
179 5.9
193 5.9
194 12.3
195 0.34
207 2.9
209 43.5
210 10.2
211 0.29
224 2.5
238 12.8
239 2.9
253 0.76
268 32.9
269 6.4

$$$$

     RDKit          2D

 15 15  0  0  0  0  0  0  0  0999 V2000
   -2.5989   -1.5002    0.0000 C   0  0  0  0  0  0  0  0  0  0  0  0
    2.5989    1.5002    0.0000 C   0  0  0  0  0  0  0  0  0  0  0  0
    4.4468   -2.7995    0.0000 C   0  0  0  0  0  0  0  0  0  0  0  0
    6.4959   -2.2508    0.0000 C   0  0  0  0  0  0  0  0  0  0  0  0
    5.9472   -0.2017    0.0000 C   0  0  0  0  0  0  0  0  0  0  0  0
   -1.3000    0.7500    0.0000 C   0  0  0  0  0  0  0  0  0  0  0  0
    0.0000    1.5000    0.0000 C   0  0  0  0  0  0  0  0  0  0  0  0
    0.0000   -1.5000    0.0000 C   0  0  0  0  0  0  0  0  0  0  0  0
   -1.3000   -0.7500    0.0000 C   0  0  0  0  0  0  0  0  0  0  0  0
    1.3000    0.7500    0.0000 C   0  0  0  0  0  0  0  0  0  0  0  0
    1.3000   -0.7500    0.0000 C   0  0  0  0  0  0  0  0  0  0  0  0
    2.5989   -1.5002    0.0000 C   0  0  0  0  0  0  0  0  0  0  0  0
    2.5987   -3.0002    0.0000 O   0  0  0  0  0  0  0  0  0  0  0  0
    3.8981   -0.7504    0.0000 O   0  0  0  0  0  0  0  0  0  0  0  0
    5.1970   -1.5006    0.0000 Si  0  0  0  0  0  4  0  0  0  0  0  0
  7  6  2  0
  9  1  1  0
  9  6  1  0
  9  8  2  0
 10  2  1  0
 10  7  1  0
 11  8  1  0
 11 10  2  0
 12 11  1  0
 13 12  2  0
 14 12  1  0
 15  3  1  0
 15  4  1  0
 15  5  1  0
 15 14  1  0
M  END
>  <NAME>  (6817) 
2,5-DIMETHYLBENZOIC ACID TRIMETHYLSILYL ESTER

>  <SYNONYMS>  (6817) 
TRIMETHYLSILYL 2,5-DIMETHYLBENZOATE

>  <SPECTRUM TYPE>  (6817) 
MS1

>  <INSTRUMENT TYPE>  (6817) 
EI-B

>  <INSTRUMENT>  (6817) 
JEOL JMS-01-SG

>  <ION MODE>  (6817) 
P

>  <INCHIKEY>  (6817) 
DDDBDWYEBRVNBB-UHFFFAOYSA-N

>  <FORMULA>  (6817) 
C12H18O2Si

>  <EXACT MASS>  (6817) 
222.107606346

>  <MW>  (6817) 
222

>  <ID>  (6817) 
JP001053

>  <CONTRIBUTOR>  (6817) 
University of Tokyo Team, {Faculty of Engineering, University of Tokyo

>  <COMMENT>  (6817) 
SMILES=Cc(c1)cc(c(C)c1)C(=O)O[Si](C)(C)C
InChI=InChI=1S/C12H18O2Si/c1-9-6-7-10(2)11(8-9)12(13)14-15(3,4)5/h6-8H,1-5H3
computed SMILES=O=C(O[Si](C)(C)C)C1=CC(=CC=C1C)C
accession=JP001053
date=2016.01.19 (Created 2008.10.21, modified 2011.05.06)
author=KOGA M, UNIV. OF OCCUPATIONAL AND ENVIRONMENTAL HEALTH
license=CC BY-NC-SA
exact mass=222.10761
ionization energy=70 eV
ion type=[M]+*
computed spectral entropy=2.100866676548343
computed normalized entropy=0.7757857205502557
SPLASH=splash10-001i-2930000000-fbb84a0894282bff8f5a
submitter=submitter = University of Tokyo Team (Faculty of Engineering, University of Tokyo)
MoNA Rating=3.75

>  <NUM PEAKS>  (6817) 
15

>  <MASS SPECTRAL PEAKS>  (6817) 
73 11.7
75 4.9
77 23.5
79 1.27
96 11.7
103 10.7
104 14.7
105 2.84
132 55.8
133 99.99
134 4.9
163 3.72
207 62.7
208 4.9
222 15.6

$$$$

     RDKit          2D

 23 22  0  0  0  0  0  0  0  0999 V2000
    4.5466    8.6250    0.0000 C   0  0  0  0  0  0  0  0  0  0  0  0
  -10.4928    7.6740    0.0000 C   0  0  0  0  0  0  0  0  0  0  0  0
  -11.0418    5.6250    0.0000 C   0  0  0  0  0  0  0  0  0  0  0  0
   -8.9928    5.0760    0.0000 C   0  0  0  0  0  0  0  0  0  0  0  0
  -11.5909   10.6740    0.0000 C   0  0  0  0  0  0  0  0  0  0  0  0
  -13.6399   10.1250    0.0000 C   0  0  0  0  0  0  0  0  0  0  0  0
  -13.0909    8.0760    0.0000 C   0  0  0  0  0  0  0  0  0  0  0  0
    3.2476    9.3750    0.0000 C   0  0  0  0  0  0  0  0  0  0  0  0
    1.9486    8.6250    0.0000 C   0  0  0  0  0  0  0  0  0  0  0  0
    0.6495    9.3750    0.0000 C   0  0  0  0  0  0  0  0  0  0  0  0
   -0.6495    8.6250    0.0000 C   0  0  0  0  0  0  0  0  0  0  0  0
   -1.9486    9.3750    0.0000 C   0  0  0  0  0  0  0  0  0  0  0  0
   -3.2476    8.6250    0.0000 C   0  0  0  0  0  0  0  0  0  0  0  0
   -4.5466    9.3750    0.0000 C   0  0  0  0  0  0  0  0  0  0  0  0
   -5.8457    8.6250    0.0000 C   0  0  0  0  0  0  0  0  0  0  0  0
   -7.1447    9.3750    0.0000 C   0  0  0  0  0  0  0  0  0  0  0  0
   -8.4437    8.6250    0.0000 C   0  0  0  0  0  0  0  0  0  0  0  0
   -9.7428    9.3750    0.0000 C   0  0  0  0  0  0  0  0  0  0  0  0
   -9.7428   10.8750    0.0000 O   0  0  0  0  0  0  0  0  0  0  0  0
   -8.4437    7.1250    0.0000 O   0  0  0  0  0  0  0  0  0  0  0  0
  -11.0418    8.6250    0.0000 O   0  0  0  0  0  0  0  0  0  0  0  0
   -9.7428    6.3750    0.0000 Si  0  0  0  0  0  4  0  0  0  0  0  0
  -12.3409    9.3750    0.0000 Si  0  0  0  0  0  4  0  0  0  0  0  0
  8  1  1  0
  9  8  1  0
 10  9  1  0
 11 10  1  0
 12 11  1  0
 13 12  1  0
 14 13  1  0
 15 14  1  0
 16 15  1  0
 17 16  1  0
 18 17  1  0
 19 18  2  0
 20 17  1  0
 21 18  1  0
 22  2  1  0
 22  3  1  0
 22  4  1  0
 22 20  1  0
 23  5  1  0
 23  6  1  0
 23  7  1  0
 23 21  1  0
M  END
>  <NAME>  (6818) 
2-(TRIMETHYLSILYL)OXYDODECANOIC ACID TRIMETHYLSILYL ESTER

>  <SYNONYMS>  (6818) 
TRIMETHYLSILYL 2-TRIMETHYLSILOXYDODECANOATE

>  <SPECTRUM TYPE>  (6818) 
MS1

>  <INSTRUMENT TYPE>  (6818) 
EI-B

>  <INSTRUMENT>  (6818) 
JEOL JMS-01-SG

>  <ION MODE>  (6818) 
P

>  <INCHIKEY>  (6818) 
YLQUHHPRDMSJTR-UHFFFAOYSA-N

>  <FORMULA>  (6818) 
C18H40O3Si2

>  <EXACT MASS>  (6818) 
360.2515982

>  <MW>  (6818) 
360

>  <ID>  (6818) 
JP001052

>  <CONTRIBUTOR>  (6818) 
University of Tokyo Team, {Faculty of Engineering, University of Tokyo

>  <COMMENT>  (6818) 
SMILES=CCCCCCCCCCC(O[Si](C)(C)C)C(=O)O[Si](C)(C)C
InChI=InChI=1S/C18H40O3Si2/c1-8-9-10-11-12-13-14-15-16-17(20-22(2,3)4)18(19)21-23(5,6)7/h17H,8-16H2,1-7H3
computed SMILES=O=C(O[Si](C)(C)C)C(O[Si](C)(C)C)CCCCCCCCCC
accession=JP001052
date=2016.01.19 (Created 2008.10.21, modified 2011.05.06)
author=KOGA M, UNIV. OF OCCUPATIONAL AND ENVIRONMENTAL HEALTH
license=CC BY-NC-SA
exact mass=360.2516
ionization energy=70 eV
ion type=[M]+*
computed spectral entropy=2.948988572778181
computed normalized entropy=0.8670442323276806
SPLASH=splash10-00dm-9120000000-3afa02b2982fcd4d40c9
submitter=submitter = University of Tokyo Team (Faculty of Engineering, University of Tokyo)
MoNA Rating=3.75

>  <NUM PEAKS>  (6818) 
30

>  <MASS SPECTRAL PEAKS>  (6818) 
43 13.3
45 14
47 15.9
55 1.84
57 12.1
59 15.2
67 14.6
69 2.35
70 14.6
71 11.4
73 99.99
75 2.54
77 22.2
81 14.6
82 14
83 3.75
91 14.6
95 15.9
97 37.5
103 3.43
111 19.1
115 14.6
129 13.3
147 4.07
148 14.6
221 14
243 61.1
244 1.46
282 3.8
355 3.8

$$$$

     RDKit          2D

 23 22  0  0  0  0  0  0  0  0999 V2000
   17.4805    7.2084    0.0000 C   0  0  0  0  0  0  0  0  0  0  0  0
   15.9805    4.6103    0.0000 C   0  0  0  0  0  0  0  0  0  0  0  0
   18.0296    5.1594    0.0000 C   0  0  0  0  0  0  0  0  0  0  0  0
   -2.2060    7.2084    0.0000 C   0  0  0  0  0  0  0  0  0  0  0  0
   -2.7550    5.1594    0.0000 C   0  0  0  0  0  0  0  0  0  0  0  0
   -0.7060    4.6103    0.0000 C   0  0  0  0  0  0  0  0  0  0  0  0
    7.6373    6.6594    0.0000 C   0  0  0  0  0  0  0  0  0  0  0  0
    8.9363    5.9094    0.0000 C   0  0  0  0  0  0  0  0  0  0  0  0
    6.3382    5.9094    0.0000 C   0  0  0  0  0  0  0  0  0  0  0  0
   10.2353    6.6594    0.0000 C   0  0  0  0  0  0  0  0  0  0  0  0
    5.0392    6.6594    0.0000 C   0  0  0  0  0  0  0  0  0  0  0  0
   11.5344    5.9094    0.0000 C   0  0  0  0  0  0  0  0  0  0  0  0
    3.7401    5.9094    0.0000 C   0  0  0  0  0  0  0  0  0  0  0  0
   12.8334    6.6594    0.0000 C   0  0  0  0  0  0  0  0  0  0  0  0
    2.4411    6.6594    0.0000 C   0  0  0  0  0  0  0  0  0  0  0  0
   14.1325    5.9094    0.0000 C   0  0  0  0  0  0  0  0  0  0  0  0
    1.1421    5.9094    0.0000 C   0  0  0  0  0  0  0  0  0  0  0  0
   14.1325    4.4094    0.0000 O   0  0  0  0  0  0  0  0  0  0  0  0
    1.1421    4.4094    0.0000 O   0  0  0  0  0  0  0  0  0  0  0  0
   15.4315    6.6594    0.0000 O   0  0  0  0  0  0  0  0  0  0  0  0
   -0.1570    6.6594    0.0000 O   0  0  0  0  0  0  0  0  0  0  0  0
   16.7305    5.9094    0.0000 Si  0  0  0  0  0  4  0  0  0  0  0  0
   -1.4560    5.9094    0.0000 Si  0  0  0  0  0  4  0  0  0  0  0  0
  8  7  1  0
  9  7  1  0
 10  8  1  0
 11  9  1  0
 12 10  1  0
 13 11  1  0
 14 12  1  0
 15 13  1  0
 16 14  1  0
 17 15  1  0
 18 16  2  0
 19 17  2  0
 20 16  1  0
 21 17  1  0
 22  1  1  0
 22  2  1  0
 22  3  1  0
 22 20  1  0
 23  4  1  0
 23  5  1  0
 23  6  1  0
 23 21  1  0
M  END
>  <NAME>  (6819) 
UNDECANEDIOIC ACID BIS(TRIMETHYLSILYL) ESTER

>  <SYNONYMS>  (6819) 
DI(TRIMETHYLSILYL) UNDECANEDIOATE

>  <SPECTRUM TYPE>  (6819) 
MS1

>  <INSTRUMENT TYPE>  (6819) 
EI-B

>  <INSTRUMENT>  (6819) 
JEOL JMS-01-SG

>  <ION MODE>  (6819) 
P

>  <INCHIKEY>  (6819) 
WANRKRMIBVTYBU-UHFFFAOYSA-N

>  <FORMULA>  (6819) 
C17H36O4Si2

>  <EXACT MASS>  (6819) 
360.215212692

>  <MW>  (6819) 
360

>  <ID>  (6819) 
JP001051

>  <CONTRIBUTOR>  (6819) 
University of Tokyo Team, {Faculty of Engineering, University of Tokyo

>  <COMMENT>  (6819) 
SMILES=C(CCCCC(=O)O[Si](C)(C)C)CCCCC(=O)O[Si](C)(C)C
InChI=InChI=1S/C17H36O4Si2/c1-22(2,3)20-16(18)14-12-10-8-7-9-11-13-15-17(19)21-23(4,5)6/h7-15H2,1-6H3
computed SMILES=O=C(O[Si](C)(C)C)CCCCCCCCCC(=O)O[Si](C)(C)C
accession=JP001051
date=2016.01.19 (Created 2008.10.21, modified 2011.05.06)
author=KOGA M, UNIV. OF OCCUPATIONAL AND ENVIRONMENTAL HEALTH
license=CC BY-NC-SA
exact mass=360.21521
ionization energy=70 eV
ion type=[M]+*
computed spectral entropy=2.5406721044656297
computed normalized entropy=0.8345059550178408
SPLASH=splash10-00xs-9312000000-3ab60e56d16e37638dc1
submitter=submitter = University of Tokyo Team (Faculty of Engineering, University of Tokyo)
MoNA Rating=3.75

>  <NUM PEAKS>  (6819) 
21

>  <MASS SPECTRAL PEAKS>  (6819) 
43 9.8
45 14.3
55 30.5
67 0.98
69 19.2
73 99.99
74 10.1
75 7.85
83 8.4
94 8.4
117 25.4
129 2.07
135 10.1
147 16.2
149 18.5
204 1.01
217 16.7
229 19.5
345 42.1
346 1.27
347 3.7

$$$$

     RDKit          2D

 24 25  0  0  0  0  0  0  0  0999 V2000
    0.7702   -0.4339    0.0000 C   0  0  0  0  0  0  0  0  0  0  0  0
    1.2906    1.6226    0.0000 C   0  0  0  0  0  0  0  0  0  0  0  0
   -0.7659    2.1430    0.0000 C   0  0  0  0  0  0  0  0  0  0  0  0
    4.7005   -2.6757    0.0000 C   0  0  0  0  0  0  0  0  0  0  0  0
    5.2452   -0.6256    0.0000 C   0  0  0  0  0  0  0  0  0  0  0  0
    3.1950   -0.0808    0.0000 C   0  0  0  0  0  0  0  0  0  0  0  0
   -6.4661    0.0614    0.0000 C   0  0  0  0  0  0  0  0  0  0  0  0
   -6.4597   -1.4394    0.0000 C   0  0  0  0  0  0  0  0  0  0  0  0
   -5.1699    0.8181    0.0000 C   0  0  0  0  0  0  0  0  0  0  0  0
   -1.2770   -4.3736    0.0000 C   0  0  0  0  0  0  0  0  0  0  0  0
   -5.1573   -2.1835    0.0000 C   0  0  0  0  0  0  0  0  0  0  0  0
   -3.8675    0.0740    0.0000 C   0  0  0  0  0  0  0  0  0  0  0  0
   -2.5546   -3.6512    0.0000 C   0  0  0  0  0  0  0  0  0  0  0  0
    0.0257   -3.6563    0.0000 C   0  0  0  0  0  0  0  0  0  0  0  0
   -3.8612   -1.4268    0.0000 C   0  0  0  0  0  0  0  0  0  0  0  0
   -2.5588   -2.1709    0.0000 C   0  0  0  0  0  0  0  0  0  0  0  0
    0.0522   -2.1365    0.0000 C   0  0  0  0  0  0  0  0  0  0  0  0
   -1.2654   -1.4134    0.0000 C   0  0  0  0  0  0  0  0  0  0  0  0
    1.3497   -1.3838    0.0000 C   0  0  0  0  0  0  0  0  0  0  0  0
    1.3465    0.1162    0.0000 O   0  0  0  0  0  0  0  0  0  0  0  0
   -1.2863    0.0865    0.0000 O   0  0  0  0  0  0  0  0  0  0  0  0
    2.6503   -2.1310    0.0000 O   0  0  0  0  0  0  0  0  0  0  0  0
    0.0021    0.8545    0.0000 Si  0  0  0  0  0  4  0  0  0  0  0  0
    3.9477   -1.3783    0.0000 Si  0  0  0  0  0  4  0  0  0  0  0  0
  8  7  2  0
  9  7  1  0
 11  8  1  0
 12  9  2  0
 13 10  2  0
 14 10  1  0
 15 11  2  0
 15 12  1  0
 16 13  1  0
 16 15  1  0
 17 14  2  0
 18 16  2  0
 18 17  1  0
 19 17  1  0
 20 19  2  0
 21 18  1  0
 22 19  1  0
 23  1  1  0
 23  2  1  0
 23  3  1  0
 23 21  1  0
 24  4  1  0
 24  5  1  0
 24  6  1  0
 24 22  1  0
M  END
>  <NAME>  (6820) 
3-PHENYL-2-(TRIMETHYLSILYL)OXYBENZOIC ACIDTRIMETHYLSILYL ESTER

>  <SYNONYMS>  (6820) 
TRIMETHYLSILYL 3-PHENYL-2-TRIMETHYLSILOXYBENZOATE

>  <SPECTRUM TYPE>  (6820) 
MS1

>  <INSTRUMENT TYPE>  (6820) 
EI-B

>  <INSTRUMENT>  (6820) 
JEOL JMS-01-SG

>  <ION MODE>  (6820) 
P

>  <INCHIKEY>  (6820) 
DUSFUWDBRHTRHV-UHFFFAOYSA-N

>  <FORMULA>  (6820) 
C19H26O3Si2

>  <EXACT MASS>  (6820) 
358.14204775199994

>  <MW>  (6820) 
358

>  <ID>  (6820) 
JP001050

>  <CONTRIBUTOR>  (6820) 
University of Tokyo Team, {Faculty of Engineering, University of Tokyo

>  <COMMENT>  (6820) 
SMILES=c(c2)ccc(c2)c(c1)c(O[Si](C)(C)C)c(cc1)C(=O)O[Si](C)(C)C
InChI=InChI=1S/C19H26O3Si2/c1-23(2,3)21-18-16(15-11-8-7-9-12-15)13-10-14-17(18)19(20)22-24(4,5)6/h7-14H,1-6H3
computed SMILES=O=C(O[Si](C)(C)C)C1=CC=CC(C=2C=CC=CC2)=C1O[Si](C)(C)C
accession=JP001050
date=2016.01.19 (Created 2008.10.21, modified 2011.05.06)
author=KOGA M, UNIV. OF OCCUPATIONAL AND ENVIRONMENTAL HEALTH
license=CC BY-NC-SA
exact mass=358.14205
ionization energy=70 eV
ion type=[M]+*
computed spectral entropy=1.7365526137021636
computed normalized entropy=0.6129268794195356
SPLASH=splash10-00dl-9106000000-9f944a06ae9f254f3d84
submitter=submitter = University of Tokyo Team (Faculty of Engineering, University of Tokyo)
MoNA Rating=3.75

>  <NUM PEAKS>  (6820) 
17

>  <MASS SPECTRAL PEAKS>  (6820) 
45 18
73 99.99
74 7.4
75 0.82
133 3.1
139 3.5
147 5.4
149 0.58
152 3.1
165 3.5
211 8.2
269 0.39
285 3.1
309 3.1
343 84.7
344 2.35
345 7.4

$$$$

     RDKit          2D

 21 20  0  0  0  0  0  0  0  0999 V2000
    1.7010    3.1471    0.0000 C   0  0  0  0  0  0  0  0  0  0  0  0
    1.1519    1.0981    0.0000 C   0  0  0  0  0  0  0  0  0  0  0  0
    3.2010    0.5490    0.0000 C   0  0  0  0  0  0  0  0  0  0  0  0
    9.6962    5.3971    0.0000 C   0  0  0  0  0  0  0  0  0  0  0  0
    8.1962    2.7990    0.0000 C   0  0  0  0  0  0  0  0  0  0  0  0
   10.2452    3.3481    0.0000 C   0  0  0  0  0  0  0  0  0  0  0  0
    0.6029    6.1471    0.0000 C   0  0  0  0  0  0  0  0  0  0  0  0
   -1.4462    5.5981    0.0000 C   0  0  0  0  0  0  0  0  0  0  0  0
   -0.8971    3.5490    0.0000 C   0  0  0  0  0  0  0  0  0  0  0  0
    5.0490    4.8481    0.0000 C   0  0  0  0  0  0  0  0  0  0  0  0
    3.7500    4.0981    0.0000 C   0  0  0  0  0  0  0  0  0  0  0  0
    6.3481    4.0981    0.0000 C   0  0  0  0  0  0  0  0  0  0  0  0
    2.4510    4.8481    0.0000 C   0  0  0  0  0  0  0  0  0  0  0  0
    6.3481    2.5981    0.0000 O   0  0  0  0  0  0  0  0  0  0  0  0
    2.4510    6.3481    0.0000 O   0  0  0  0  0  0  0  0  0  0  0  0
    3.7500    2.5981    0.0000 O   0  0  0  0  0  0  0  0  0  0  0  0
    7.6471    4.8481    0.0000 O   0  0  0  0  0  0  0  0  0  0  0  0
    1.1519    4.0981    0.0000 O   0  0  0  0  0  0  0  0  0  0  0  0
    2.4510    1.8481    0.0000 Si  0  0  0  0  0  4  0  0  0  0  0  0
    8.9462    4.0981    0.0000 Si  0  0  0  0  0  4  0  0  0  0  0  0
   -0.1471    4.8481    0.0000 Si  0  0  0  0  0  4  0  0  0  0  0  0
 11 10  1  0
 12 10  1  0
 13 11  1  0
 14 12  2  0
 15 13  2  0
 16 11  1  0
 17 12  1  0
 18 13  1  0
 19  1  1  0
 19  2  1  0
 19  3  1  0
 19 16  1  0
 20  4  1  0
 20  5  1  0
 20  6  1  0
 20 17  1  0
 21  7  1  0
 21  8  1  0
 21  9  1  0
 21 18  1  0
M  END
>  <NAME>  (6821) 
2-(TRIMETHYLSILYL)OXYBUTANEDIOIC ACID BIS(TRIMETHYLSILYL) ESTER

>  <SYNONYMS>  (6821) 
DI(TRIMETHYLSILYL) 2-TRIMETHYLSILOXYBUTANEDIOATE

>  <SPECTRUM TYPE>  (6821) 
MS1

>  <INSTRUMENT TYPE>  (6821) 
EI-B

>  <INSTRUMENT>  (6821) 
JEOL JMS-01-SG

>  <ION MODE>  (6821) 
P

>  <INCHIKEY>  (6821) 
QCOBWZRPFJZHGU-UHFFFAOYSA-N

>  <FORMULA>  (6821) 
C13H30O5Si3

>  <EXACT MASS>  (6821) 
350.14010364999996

>  <MW>  (6821) 
350

>  <ID>  (6821) 
JP001048

>  <CONTRIBUTOR>  (6821) 
University of Tokyo Team, {Faculty of Engineering, University of Tokyo

>  <COMMENT>  (6821) 
SMILES=O=C(O[Si](C)(C)C)CC(O[Si](C)(C)C)C(=O)O[Si](C)(C)C
InChI=InChI=1S/C13H30O5Si3/c1-19(2,3)16-11(13(15)18-21(7,8)9)10-12(14)17-20(4,5)6/h11H,10H2,1-9H3
computed SMILES=O=C(O[Si](C)(C)C)CC(O[Si](C)(C)C)C(=O)O[Si](C)(C)C
accession=JP001048
date=2016.01.19 (Created 2008.10.21, modified 2011.05.06)
author=KOGA M, UNIV. OF OCCUPATIONAL AND ENVIRONMENTAL HEALTH
license=CC BY-NC-SA
exact mass=350.1401
ionization energy=70 eV
ion type=[M]+*
computed spectral entropy=2.6855194480886317
computed normalized entropy=0.7680576692253142
SPLASH=splash10-00di-9200000000-29d1b68c4f492895d186
submitter=submitter = University of Tokyo Team (Faculty of Engineering, University of Tokyo)
MoNA Rating=3.75

>  <NUM PEAKS>  (6821) 
33

>  <MASS SPECTRAL PEAKS>  (6821) 
43 3.7
44 3.9
45 12.3
47 0.77
49 4.8
55 13.4
59 6.5
72 0.33
73 99.99
74 9
75 17.4
77 3.36
78 3.5
93 7.3
95 3.1
101 0.75
117 4.8
131 4.2
133 12.1
147 4.89
148 10.5
149 7.9
175 6.9
189 0.75
190 5.8
191 3.7
217 5.6
233 1.38
234 2.3
245 7.7
247 3.7
307 0.23
335 2.5

$$$$

     RDKit          2D

 22 21  0  0  0  0  0  0  0  0999 V2000
   16.6937    6.3212    0.0000 C   0  0  0  0  0  0  0  0  0  0  0  0
   15.1937    3.7231    0.0000 C   0  0  0  0  0  0  0  0  0  0  0  0
   17.2428    4.2721    0.0000 C   0  0  0  0  0  0  0  0  0  0  0  0
   -0.1937    7.0712    0.0000 C   0  0  0  0  0  0  0  0  0  0  0  0
   -2.2428    6.5221    0.0000 C   0  0  0  0  0  0  0  0  0  0  0  0
   -1.6937    4.4731    0.0000 C   0  0  0  0  0  0  0  0  0  0  0  0
    8.1495    5.0221    0.0000 C   0  0  0  0  0  0  0  0  0  0  0  0
    6.8505    5.7721    0.0000 C   0  0  0  0  0  0  0  0  0  0  0  0
    9.4486    5.7721    0.0000 C   0  0  0  0  0  0  0  0  0  0  0  0
    5.5514    5.0221    0.0000 C   0  0  0  0  0  0  0  0  0  0  0  0
   10.7476    5.0221    0.0000 C   0  0  0  0  0  0  0  0  0  0  0  0
    4.2524    5.7721    0.0000 C   0  0  0  0  0  0  0  0  0  0  0  0
   12.0466    5.7721    0.0000 C   0  0  0  0  0  0  0  0  0  0  0  0
    2.9534    5.0221    0.0000 C   0  0  0  0  0  0  0  0  0  0  0  0
   13.3457    5.0221    0.0000 C   0  0  0  0  0  0  0  0  0  0  0  0
    1.6543    5.7721    0.0000 C   0  0  0  0  0  0  0  0  0  0  0  0
   13.3457    3.5221    0.0000 O   0  0  0  0  0  0  0  0  0  0  0  0
    1.6543    7.2721    0.0000 O   0  0  0  0  0  0  0  0  0  0  0  0
   14.6447    5.7721    0.0000 O   0  0  0  0  0  0  0  0  0  0  0  0
    0.3553    5.0221    0.0000 O   0  0  0  0  0  0  0  0  0  0  0  0
   15.9437    5.0221    0.0000 Si  0  0  0  0  0  4  0  0  0  0  0  0
   -0.9437    5.7721    0.0000 Si  0  0  0  0  0  4  0  0  0  0  0  0
  8  7  1  0
  9  7  1  0
 10  8  1  0
 11  9  1  0
 12 10  1  0
 13 11  1  0
 14 12  1  0
 15 13  1  0
 16 14  1  0
 17 15  2  0
 18 16  2  0
 19 15  1  0
 20 16  1  0
 21  1  1  0
 21  2  1  0
 21  3  1  0
 21 19  1  0
 22  4  1  0
 22  5  1  0
 22  6  1  0
 22 20  1  0
M  END
>  <NAME>  (6822) 
DECANEDIOIC ACID BIS(TRIMETHYLSILYL) ESTER

>  <SYNONYMS>  (6822) 
DI(TRIMETHYLSILYL) DECANEDIOATE

>  <SPECTRUM TYPE>  (6822) 
MS1

>  <INSTRUMENT TYPE>  (6822) 
EI-B

>  <INSTRUMENT>  (6822) 
JEOL JMS-01-SG

>  <ION MODE>  (6822) 
P

>  <INCHIKEY>  (6822) 
BDACUOPQFMCPLO-UHFFFAOYSA-N

>  <FORMULA>  (6822) 
C16H34O4Si2

>  <EXACT MASS>  (6822) 
346.19956262799997

>  <MW>  (6822) 
346

>  <ID>  (6822) 
JP001047

>  <CONTRIBUTOR>  (6822) 
University of Tokyo Team, {Faculty of Engineering, University of Tokyo

>  <COMMENT>  (6822) 
SMILES=C(CCCCC(=O)O[Si](C)(C)C)CCCC(=O)O[Si](C)(C)C
InChI=InChI=1S/C16H34O4Si2/c1-21(2,3)19-15(17)13-11-9-7-8-10-12-14-16(18)20-22(4,5)6/h7-14H2,1-6H3
computed SMILES=O=C(O[Si](C)(C)C)CCCCCCCCC(=O)O[Si](C)(C)C
accession=JP001047
date=2016.01.19 (Created 2008.10.21, modified 2011.05.06)
author=KOGA M, UNIV. OF OCCUPATIONAL AND ENVIRONMENTAL HEALTH
license=CC BY-NC-SA
exact mass=346.19956
ionization energy=70 eV
ion type=[M]+*
computed spectral entropy=2.730542304243025
computed normalized entropy=0.8591869269703574
SPLASH=splash10-00us-9524000000-26ae5bb74fad073c6743
submitter=submitter = University of Tokyo Team (Faculty of Engineering, University of Tokyo)
MoNA Rating=3.75

>  <NUM PEAKS>  (6822) 
24

>  <MASS SPECTRAL PEAKS>  (6822) 
47 8.6
55 27
69 18.6
73 99.99
74 9.9
75 63.6
81 8
97 1.47
117 28.2
121 13.1
125 15.4
129 2.54
138 8
147 30.2
149 31.5
166 0.9
185 14.7
204 20.2
215 44.6
217 2.73
315 14.4
331 82.6
332 22.1
333 6.4

$$$$

     RDKit          2D

 22 22  0  0  0  0  0  0  0  0999 V2000
   -1.7792   -1.1452    0.0000 C   0  0  0  0  0  0  0  0  0  0  0  0
   -0.1554   -2.3260    0.0000 C   0  0  0  0  0  0  0  0  0  0  0  0
   -1.5265    1.8822    0.0000 C   0  0  0  0  0  0  0  0  0  0  0  0
    3.2312   -3.9852    0.0000 C   0  0  0  0  0  0  0  0  0  0  0  0
    5.3266   -4.3161    0.0000 C   0  0  0  0  0  0  0  0  0  0  0  0
    5.6575   -2.2208    0.0000 C   0  0  0  0  0  0  0  0  0  0  0  0
   -5.7757    1.4156    0.0000 C   0  0  0  0  0  0  0  0  0  0  0  0
   -6.5332   -0.5659    0.0000 C   0  0  0  0  0  0  0  0  0  0  0  0
   -4.5517   -1.3234    0.0000 C   0  0  0  0  0  0  0  0  0  0  0  0
    1.6482    0.5858    0.0000 C   0  0  0  0  0  0  0  0  0  0  0  0
    0.4382    1.4758    0.0000 C   0  0  0  0  0  0  0  0  0  0  0  0
    1.1882   -0.8342    0.0000 C   0  0  0  0  0  0  0  0  0  0  0  0
    2.0704   -2.0473    0.0000 C   0  0  0  0  0  0  0  0  0  0  0  0
   -2.5795   -0.2220    0.0000 C   0  0  0  0  0  0  0  0  0  0  0  0
   -0.3118   -0.8342    0.0000 C   0  0  0  0  0  0  0  0  0  0  0  0
   -0.7718    0.5858    0.0000 C   0  0  0  0  0  0  0  0  0  0  0  0
    1.4609   -3.4179    0.0000 O   0  0  0  0  0  0  0  0  0  0  0  0
   -2.7342   -1.7140    0.0000 O   0  0  0  0  0  0  0  0  0  0  0  0
    3.5622   -1.8899    0.0000 O   0  0  0  0  0  0  0  0  0  0  0  0
   -3.7942    0.6580    0.0000 O   0  0  0  0  0  0  0  0  0  0  0  0
    4.4444   -3.1030    0.0000 Si  0  0  0  0  0  4  0  0  0  0  0  0
   -5.1637    0.0461    0.0000 Si  0  0  0  0  0  4  0  0  0  0  0  0
 11 10  1  0
 12 10  1  0
 13 12  1  0
 15  1  1  0
 15  2  1  0
 15 12  1  0
 16  3  1  0
 16 11  1  0
 16 14  1  0
 16 15  1  0
 17 13  2  0
 18 14  2  0
 19 13  1  0
 20 14  1  0
 21  4  1  0
 21  5  1  0
 21  6  1  0
 21 19  1  0
 22  7  1  0
 22  8  1  0
 22  9  1  0
 22 20  1  0
M  END
>  <NAME>  (6823) 
CAMPHORIC ACID BIS(TRIMETHYLSILYL) ESTER

>  <SYNONYMS>  (6823) 
DI(TRIMETHYLSILYL) 1,2,2-TRIMETHYL-1,3-CYCLOPENTANEDICARBOXYLATE

>  <SPECTRUM TYPE>  (6823) 
MS1

>  <INSTRUMENT TYPE>  (6823) 
EI-B

>  <INSTRUMENT>  (6823) 
JEOL JMS-01-SG

>  <ION MODE>  (6823) 
P

>  <INCHIKEY>  (6823) 
CFIGMGJVGDCELR-UHFFFAOYSA-N

>  <FORMULA>  (6823) 
C16H32O4Si2

>  <EXACT MASS>  (6823) 
344.183912564

>  <MW>  (6823) 
344

>  <ID>  (6823) 
JP001046

>  <CONTRIBUTOR>  (6823) 
University of Tokyo Team, {Faculty of Engineering, University of Tokyo

>  <COMMENT>  (6823) 
SMILES=C[Si](C)(C)OC(=O)C(C1)C(C)(C)C(C)(C1)C(=O)O[Si](C)(C)C
InChI=InChI=1S/C16H32O4Si2/c1-15(2)12(13(17)19-21(4,5)6)10-11-16(15,3)14(18)20-22(7,8)9/h12H,10-11H2,1-9H3
computed SMILES=O=C(O[Si](C)(C)C)C1CCC(C(=O)O[Si](C)(C)C)(C)C1(C)C
accession=JP001046
date=2016.01.19 (Created 2008.10.21, modified 2011.05.06)
author=KOGA M, UNIV. OF OCCUPATIONAL AND ENVIRONMENTAL HEALTH
license=CC BY-NC-SA
exact mass=344.18391
ionization energy=70 eV
ion type=[M]+*
computed spectral entropy=2.270363424172532
computed normalized entropy=0.8188605132673495
SPLASH=splash10-00fr-9300000000-7944925d91f9078bfe03
submitter=submitter = University of Tokyo Team (Faculty of Engineering, University of Tokyo)
MoNA Rating=3.75

>  <NUM PEAKS>  (6823) 
16

>  <MASS SPECTRAL PEAKS>  (6823) 
45 9.2
55 12.9
69 25.9
73 99.99
74 7
75 24
77 10
108 3.11
109 31.1
137 18.8
138 10
148 3.88
198 6.2
226 10.7
329 11.8
330 2.5

$$$$

     RDKit          2D

 22 22  0  0  0  0  0  0  0  0999 V2000
    1.9854   -2.9387    0.0000 C   0  0  0  0  0  0  0  0  0  0  0  0
    4.5841    1.5623    0.0000 C   0  0  0  0  0  0  0  0  0  0  0  0
    5.3336   -1.2371    0.0000 C   0  0  0  0  0  0  0  0  0  0  0  0
    5.8827    0.8119    0.0000 C   0  0  0  0  0  0  0  0  0  0  0  0
    3.8336    1.3609    0.0000 C   0  0  0  0  0  0  0  0  0  0  0  0
   -3.7596    3.6109    0.0000 C   0  0  0  0  0  0  0  0  0  0  0  0
   -5.8087    3.0619    0.0000 C   0  0  0  0  0  0  0  0  0  0  0  0
   -5.2596    1.0129    0.0000 C   0  0  0  0  0  0  0  0  0  0  0  0
   -0.6130    0.0611    0.0000 C   0  0  0  0  0  0  0  0  0  0  0  0
    0.6870    2.3127    0.0000 C   0  0  0  0  0  0  0  0  0  0  0  0
   -0.6125    1.5619    0.0000 C   0  0  0  0  0  0  0  0  0  0  0  0
    0.6860   -0.6889    0.0000 C   0  0  0  0  0  0  0  0  0  0  0  0
    1.9860    1.5627    0.0000 C   0  0  0  0  0  0  0  0  0  0  0  0
    1.9855    0.0619    0.0000 C   0  0  0  0  0  0  0  0  0  0  0  0
   -1.9116    2.3119    0.0000 C   0  0  0  0  0  0  0  0  0  0  0  0
   -1.9116    3.8119    0.0000 O   0  0  0  0  0  0  0  0  0  0  0  0
    0.6863   -2.1889    0.0000 O   0  0  0  0  0  0  0  0  0  0  0  0
    3.2852    2.3125    0.0000 O   0  0  0  0  0  0  0  0  0  0  0  0
    3.2846   -0.6881    0.0000 O   0  0  0  0  0  0  0  0  0  0  0  0
   -3.2106    1.5619    0.0000 O   0  0  0  0  0  0  0  0  0  0  0  0
    4.5836    0.0619    0.0000 Si  0  0  0  0  0  4  0  0  0  0  0  0
   -4.5096    2.3119    0.0000 Si  0  0  0  0  0  4  0  0  0  0  0  0
 11  9  2  0
 11 10  1  0
 12  9  1  0
 13 10  2  0
 14 12  2  0
 14 13  1  0
 15 11  1  0
 16 15  2  0
 17  1  1  0
 17 12  1  0
 18  2  1  0
 18 13  1  0
 19 14  1  0
 20 15  1  0
 21  3  1  0
 21  4  1  0
 21  5  1  0
 21 19  1  0
 22  6  1  0
 22  7  1  0
 22  8  1  0
 22 20  1  0
M  END
>  <NAME>  (6824) 
3,5-DIMETHOXY-4-(TRIMETHYLSILYL)OXYBENZOICACID TRIMETHYLSILYL ESTR

>  <SYNONYMS>  (6824) 
TRIMETHYLSILYL 3,5-DIMETHOXY-4-TRIMETHYLSILOXYBENZOATE

>  <SPECTRUM TYPE>  (6824) 
MS1

>  <INSTRUMENT TYPE>  (6824) 
EI-B

>  <INSTRUMENT>  (6824) 
JEOL JMS-01-SG

>  <ION MODE>  (6824) 
P

>  <INCHIKEY>  (6824) 
KWOFGVXBWXVAJU-UHFFFAOYSA-N

>  <FORMULA>  (6824) 
C15H26O5Si2

>  <EXACT MASS>  (6824) 
342.131876992

>  <MW>  (6824) 
342

>  <ID>  (6824) 
JP001045

>  <CONTRIBUTOR>  (6824) 
University of Tokyo Team, {Faculty of Engineering, University of Tokyo

>  <COMMENT>  (6824) 
SMILES=COc(c1)c(O[Si](C)(C)C)c(OC)cc1C(=O)O[Si](C)(C)C
InChI=InChI=1S/C15H26O5Si2/c1-17-12-9-11(15(16)20-22(6,7)8)10-13(18-2)14(12)19-21(3,4)5/h9-10H,1-8H3
computed SMILES=O=C(O[Si](C)(C)C)C1=CC(OC)=C(O[Si](C)(C)C)C(OC)=C1
accession=JP001045
date=2016.01.19 (Created 2008.10.21, modified 2011.05.06)
author=KOGA M, UNIV. OF OCCUPATIONAL AND ENVIRONMENTAL HEALTH
license=CC BY-NC-SA
exact mass=342.13188
ionization energy=70 eV
ion type=[M]+*
computed spectral entropy=2.757537080905967
computed normalized entropy=0.827541368630156
SPLASH=splash10-0095-4169000000-ceffc22b3a4652d6ec7c
submitter=submitter = University of Tokyo Team (Faculty of Engineering, University of Tokyo)
MoNA Rating=3.75

>  <NUM PEAKS>  (6824) 
28

>  <MASS SPECTRAL PEAKS>  (6824) 
45 15
59 9.7
73 72.5
75 1.59
77 13.2
89 9.1
137 6.4
142 3
149 17.9
156 8.2
179 6.1
195 0.73
223 16.5
253 40.4
254 9.1
283 2.21
297 66.6
298 16.5
299 7.6
312 7.9
313 20
314 6.1
327 99.99
328 2.65
329 10.6
342 59.8
343 15.9
344 4.4

$$$$

     RDKit          2D

 22 22  0  0  0  0  0  0  0  0999 V2000
    4.9436    2.5573    0.0000 C   0  0  0  0  0  0  0  0  0  0  0  0
    5.6931   -0.2421    0.0000 C   0  0  0  0  0  0  0  0  0  0  0  0
    6.2422    1.8069    0.0000 C   0  0  0  0  0  0  0  0  0  0  0  0
    4.1931    2.3559    0.0000 C   0  0  0  0  0  0  0  0  0  0  0  0
   -5.9982    4.6059    0.0000 C   0  0  0  0  0  0  0  0  0  0  0  0
   -8.0472    4.0569    0.0000 C   0  0  0  0  0  0  0  0  0  0  0  0
   -7.4982    2.0079    0.0000 C   0  0  0  0  0  0  0  0  0  0  0  0
   -0.2535    1.0561    0.0000 C   0  0  0  0  0  0  0  0  0  0  0  0
   -1.5520    3.3069    0.0000 C   0  0  0  0  0  0  0  0  0  0  0  0
    1.0455    0.3061    0.0000 C   0  0  0  0  0  0  0  0  0  0  0  0
   -2.8511    2.5569    0.0000 C   0  0  0  0  0  0  0  0  0  0  0  0
    1.0465    3.3077    0.0000 C   0  0  0  0  0  0  0  0  0  0  0  0
   -0.2530    2.5569    0.0000 C   0  0  0  0  0  0  0  0  0  0  0  0
    2.3451    1.0569    0.0000 C   0  0  0  0  0  0  0  0  0  0  0  0
    2.3455    2.5577    0.0000 C   0  0  0  0  0  0  0  0  0  0  0  0
   -4.1501    3.3069    0.0000 C   0  0  0  0  0  0  0  0  0  0  0  0
   -4.1501    4.8069    0.0000 O   0  0  0  0  0  0  0  0  0  0  0  0
    3.6447    3.3075    0.0000 O   0  0  0  0  0  0  0  0  0  0  0  0
    3.6441    0.3069    0.0000 O   0  0  0  0  0  0  0  0  0  0  0  0
   -5.4492    2.5569    0.0000 O   0  0  0  0  0  0  0  0  0  0  0  0
    4.9431    1.0569    0.0000 Si  0  0  0  0  0  4  0  0  0  0  0  0
   -6.7482    3.3069    0.0000 Si  0  0  0  0  0  4  0  0  0  0  0  0
 10  8  2  0
  9 11  2  0
 13  8  1  0
 13  9  1  0
 13 12  2  0
 14 10  1  0
 15 12  1  0
 15 14  2  0
 16 11  1  0
 17 16  2  0
 18  1  1  0
 18 15  1  0
 19 14  1  0
 20 16  1  0
 21  2  1  0
 21  3  1  0
 21  4  1  0
 21 19  1  0
 22  5  1  0
 22  6  1  0
 22  7  1  0
 22 20  1  0
M  END
>  <NAME>  (6825) 
3-METHOXY-4-(TRIMETHYLSILYL)OXYCINNAMIC ACID TRIMETHYLSILYL ESTER

>  <SYNONYMS>  (6825) 
TRIMETHYLSILYL 3-METHOXY-4-TRIMETHYLSILOXYCINNAMATE

>  <SPECTRUM TYPE>  (6825) 
MS1

>  <INSTRUMENT TYPE>  (6825) 
EI-B

>  <INSTRUMENT>  (6825) 
JEOL JMS-01-SG

>  <ION MODE>  (6825) 
P

>  <INCHIKEY>  (6825) 
UQBSUVIBJIXFQT-PKNBQFBNSA-N

>  <FORMULA>  (6825) 
C16H26O4Si2

>  <EXACT MASS>  (6825) 
338.13696237199997

>  <MW>  (6825) 
338

>  <ID>  (6825) 
JP001044

>  <CONTRIBUTOR>  (6825) 
University of Tokyo Team, {Faculty of Engineering, University of Tokyo

>  <COMMENT>  (6825) 
SMILES=COc(c1)c(ccc(C=CC(=O)O[Si](C)(C)C)1)O[Si](C)(C)C
InChI=InChI=1S/C16H26O4Si2/c1-18-15-12-13(8-10-14(15)19-21(2,3)4)9-11-16(17)20-22(5,6)7/h8-12H,1-7H3/b11-9+
computed SMILES=O=C(O[Si](C)(C)C)C=CC1=CC=C(O[Si](C)(C)C)C(OC)=C1
accession=JP001044
date=2016.01.19 (Created 2008.10.21, modified 2011.05.06)
author=KOGA M, UNIV. OF OCCUPATIONAL AND ENVIRONMENTAL HEALTH
license=CC BY-NC-SA
exact mass=338.13696
ionization energy=70 eV
ion type=[M]+*
computed spectral entropy=2.9081301768713206
computed normalized entropy=0.8179593464762043
SPLASH=splash10-00di-9247000000-338e1064028745b35814
submitter=submitter = University of Tokyo Team (Faculty of Engineering, University of Tokyo)
MoNA Rating=3.75

>  <NUM PEAKS>  (6825) 
35

>  <MASS SPECTRAL PEAKS>  (6825) 
45 23.5
47 5.4
59 10.4
73 99.99
74 8.1
75 23.1
77 6.5
89 0.92
117 6.9
139 3.8
145 7.3
147 0.88
154 6.1
175 6.5
179 10
190 0.5
191 8.8
192 5.4
218 5
219 1.54
249 41.6
250 8.8
251 3
279 1.23
293 29.3
294 6.9
308 37.4
309 1
310 4.2
323 37.8
324 10.8
325 0.42
338 43.2
339 11.9
340 4.2

$$$$

     RDKit          2D

 22 22  0  0  0  0  0  0  0  0999 V2000
    2.9731    6.6214    0.0000 C   0  0  0  0  0  0  0  0  0  0  0  0
    3.5221    8.6705    0.0000 C   0  0  0  0  0  0  0  0  0  0  0  0
    1.4731    9.2195    0.0000 C   0  0  0  0  0  0  0  0  0  0  0  0
    1.4731   -0.8786    0.0000 C   0  0  0  0  0  0  0  0  0  0  0  0
    3.5221   -0.3295    0.0000 C   0  0  0  0  0  0  0  0  0  0  0  0
    2.9731    1.7195    0.0000 C   0  0  0  0  0  0  0  0  0  0  0  0
   -4.2721    1.1705    0.0000 C   0  0  0  0  0  0  0  0  0  0  0  0
   -2.9726    0.4196    0.0000 C   0  0  0  0  0  0  0  0  0  0  0  0
   -4.2726    2.6713    0.0000 C   0  0  0  0  0  0  0  0  0  0  0  0
   -1.6736    1.1696    0.0000 C   0  0  0  0  0  0  0  0  0  0  0  0
   -2.9736    3.4213    0.0000 C   0  0  0  0  0  0  0  0  0  0  0  0
   -0.3750    4.9205    0.0000 C   0  0  0  0  0  0  0  0  0  0  0  0
   -1.6740    2.6705    0.0000 C   0  0  0  0  0  0  0  0  0  0  0  0
   -0.3750    3.4205    0.0000 C   0  0  0  0  0  0  0  0  0  0  0  0
    0.9240    5.6705    0.0000 C   0  0  0  0  0  0  0  0  0  0  0  0
    0.9240    2.6705    0.0000 C   0  0  0  0  0  0  0  0  0  0  0  0
    2.2231    4.9205    0.0000 O   0  0  0  0  0  0  0  0  0  0  0  0
    2.2231    3.4205    0.0000 O   0  0  0  0  0  0  0  0  0  0  0  0
    0.9240    7.1705    0.0000 O   0  0  0  0  0  0  0  0  0  0  0  0
    0.9240    1.1705    0.0000 O   0  0  0  0  0  0  0  0  0  0  0  0
    2.2231    7.9205    0.0000 Si  0  0  0  0  0  4  0  0  0  0  0  0
    2.2231    0.4205    0.0000 Si  0  0  0  0  0  4  0  0  0  0  0  0
  8  7  2  0
  9  7  1  0
 10  8  1  0
 11  9  2  0
 13 10  2  0
 13 11  1  0
 14 12  1  0
 14 13  1  0
 15 12  1  0
 16 14  1  0
 17 15  2  0
 18 16  2  0
 19 15  1  0
 20 16  1  0
 21  1  1  0
 21  2  1  0
 21  3  1  0
 21 19  1  0
 22  4  1  0
 22  5  1  0
 22  6  1  0
 22 20  1  0
M  END
>  <NAME>  (6826) 
2-PHENYLBUTANEDIOIC ACID BIS(TRIMETHYLSILYL) ESTER

>  <SYNONYMS>  (6826) 
DI(TRIMETHYLSILYL) 2-PHENYLSUCCINATE

>  <SPECTRUM TYPE>  (6826) 
MS1

>  <INSTRUMENT TYPE>  (6826) 
EI-B

>  <INSTRUMENT>  (6826) 
JEOL JMS-01-SG

>  <ION MODE>  (6826) 
P

>  <INCHIKEY>  (6826) 
QSFAPKMHJXZWEF-UHFFFAOYSA-N

>  <FORMULA>  (6826) 
C16H26O4Si2

>  <EXACT MASS>  (6826) 
338.13696237199997

>  <MW>  (6826) 
338

>  <ID>  (6826) 
JP001043

>  <CONTRIBUTOR>  (6826) 
University of Tokyo Team, {Faculty of Engineering, University of Tokyo

>  <COMMENT>  (6826) 
SMILES=O=C(O[Si](C)(C)C)CC(c(c1)cccc1)C(=O)O[Si](C)(C)C
InChI=InChI=1S/C16H26O4Si2/c1-21(2,3)19-15(17)12-14(13-10-8-7-9-11-13)16(18)20-22(4,5)6/h7-11,14H,12H2,1-6H3
computed SMILES=O=C(O[Si](C)(C)C)CC(C(=O)O[Si](C)(C)C)C=1C=CC=CC1
accession=JP001043
date=2016.01.19 (Created 2008.10.21, modified 2011.05.06)
author=KOGA M, UNIV. OF OCCUPATIONAL AND ENVIRONMENTAL HEALTH
license=CC BY-NC-SA
exact mass=338.13696
ionization energy=70 eV
ion type=[M]+*
computed spectral entropy=2.196867243327128
computed normalized entropy=0.7923523693598638
SPLASH=splash10-006t-6920000000-5fa54c78afcd52c3ed1f
submitter=submitter = University of Tokyo Team (Faculty of Engineering, University of Tokyo)
MoNA Rating=3.75

>  <NUM PEAKS>  (6826) 
16

>  <MASS SPECTRAL PEAKS>  (6826) 
45 12.3
73 97.4
75 26.4
77 2.3
103 11.1
104 31.6
131 11.9
132 1.15
147 99.99
148 15.3
190 15.3
205 0.89
248 11.5
294 27.3
295 8.1
323 8.9

$$$$

     RDKit          2D

 22 22  0  0  0  0  0  0  0  0999 V2000
   -0.0998    0.1464    0.0000 C   0  0  0  0  0  0  0  0  0  0  0  0
    1.9493    0.6954    0.0000 C   0  0  0  0  0  0  0  0  0  0  0  0
    1.4002    2.7445    0.0000 C   0  0  0  0  0  0  0  0  0  0  0  0
   -0.4478    5.9454    0.0000 C   0  0  0  0  0  0  0  0  0  0  0  0
   -1.9478    7.4454    0.0000 C   0  0  0  0  0  0  0  0  0  0  0  0
   -3.4478    5.9454    0.0000 C   0  0  0  0  0  0  0  0  0  0  0  0
   -8.4430    3.6954    0.0000 C   0  0  0  0  0  0  0  0  0  0  0  0
   -8.4435    2.1946    0.0000 C   0  0  0  0  0  0  0  0  0  0  0  0
   -7.1435    4.4462    0.0000 C   0  0  0  0  0  0  0  0  0  0  0  0
   -7.1445    1.4446    0.0000 C   0  0  0  0  0  0  0  0  0  0  0  0
   -5.8445    3.6962    0.0000 C   0  0  0  0  0  0  0  0  0  0  0  0
   -4.5459    1.4454    0.0000 C   0  0  0  0  0  0  0  0  0  0  0  0
   -5.8450    2.1954    0.0000 C   0  0  0  0  0  0  0  0  0  0  0  0
   -3.2469    2.1954    0.0000 C   0  0  0  0  0  0  0  0  0  0  0  0
   -1.9478    1.4454    0.0000 C   0  0  0  0  0  0  0  0  0  0  0  0
   -3.2469    3.6954    0.0000 C   0  0  0  0  0  0  0  0  0  0  0  0
   -1.9478   -0.0546    0.0000 O   0  0  0  0  0  0  0  0  0  0  0  0
   -4.5459    4.4454    0.0000 O   0  0  0  0  0  0  0  0  0  0  0  0
   -0.6488    2.1954    0.0000 O   0  0  0  0  0  0  0  0  0  0  0  0
   -1.9478    4.4454    0.0000 O   0  0  0  0  0  0  0  0  0  0  0  0
    0.6502    1.4454    0.0000 Si  0  0  0  0  0  4  0  0  0  0  0  0
   -1.9478    5.9454    0.0000 Si  0  0  0  0  0  4  0  0  0  0  0  0
  8  7  2  0
  9  7  1  0
 10  8  1  0
 11  9  2  0
 13 10  2  0
 13 11  1  0
 13 12  1  0
 14 12  1  0
 15 14  1  0
 16 14  1  0
 17 15  2  0
 18 16  2  0
 19 15  1  0
 20 16  1  0
 21  1  1  0
 21  2  1  0
 21  3  1  0
 21 19  1  0
 22  4  1  0
 22  5  1  0
 22  6  1  0
 22 20  1  0
M  END
>  <NAME>  (6827) 
BENZYLMALONIC ACID BIS(TRIMETHYLSILYL) ESTER

>  <SYNONYMS>  (6827) 
DI(TRIMETHYLSILYL) BENZYLMALONATE

>  <SPECTRUM TYPE>  (6827) 
MS1

>  <INSTRUMENT TYPE>  (6827) 
EI-B

>  <INSTRUMENT>  (6827) 
JEOL JMS-01-SG

>  <ION MODE>  (6827) 
P

>  <INCHIKEY>  (6827) 
AKZYXWZPWVNMMW-UHFFFAOYSA-N

>  <FORMULA>  (6827) 
C16H26O4Si2

>  <EXACT MASS>  (6827) 
338.13696237199997

>  <MW>  (6827) 
338

>  <ID>  (6827) 
JP001042

>  <CONTRIBUTOR>  (6827) 
University of Tokyo Team, {Faculty of Engineering, University of Tokyo

>  <COMMENT>  (6827) 
SMILES=c(c1)ccc(c1)CC(C(=O)O[Si](C)(C)C)C(=O)O[Si](C)(C)C
InChI=InChI=1S/C16H26O4Si2/c1-21(2,3)19-15(17)14(16(18)20-22(4,5)6)12-13-10-8-7-9-11-13/h7-11,14H,12H2,1-6H3
computed SMILES=O=C(O[Si](C)(C)C)C(C(=O)O[Si](C)(C)C)CC=1C=CC=CC1
ion type=[M]+*
accession=JP001042
date=2016.01.19 (Created 2008.10.21, modified 2011.05.06)
author=KOGA M, UNIV. OF OCCUPATIONAL AND ENVIRONMENTAL HEALTH
license=CC BY-NC-SA
exact mass=338.13696
ionization energy=70 eV
computed spectral entropy=2.530409650917455
computed normalized entropy=0.8311351624688955
SPLASH=splash10-004i-9200000000-4bfc829390bd732a19ac
submitter=submitter = University of Tokyo Team (Faculty of Engineering, University of Tokyo)
MoNA Rating=3.75

>  <NUM PEAKS>  (6827) 
21

>  <MASS SPECTRAL PEAKS>  (6827) 
43 12.9
44 25.5
45 30.1
47 2.23
49 11.4
51 12.4
73 33.3
75 99.99
76 10.4
77 67.5
78 11.6
91 1.19
93 12.4
103 14.8
104 24.4
131 2.02
132 13.6
147 17.5
161 5.3
205 0.77
207 3.8

$$$$

     RDKit          2D

 21 20  0  0  0  0  0  0  0  0999 V2000
   15.0565    6.5589    0.0000 C   0  0  0  0  0  0  0  0  0  0  0  0
   13.5565    3.9608    0.0000 C   0  0  0  0  0  0  0  0  0  0  0  0
   15.6055    4.5099    0.0000 C   0  0  0  0  0  0  0  0  0  0  0  0
   -2.0320    6.5589    0.0000 C   0  0  0  0  0  0  0  0  0  0  0  0
   -2.5810    4.5099    0.0000 C   0  0  0  0  0  0  0  0  0  0  0  0
   -0.5320    3.9608    0.0000 C   0  0  0  0  0  0  0  0  0  0  0  0
    6.5123    5.2599    0.0000 C   0  0  0  0  0  0  0  0  0  0  0  0
    7.8113    6.0099    0.0000 C   0  0  0  0  0  0  0  0  0  0  0  0
    5.2132    6.0099    0.0000 C   0  0  0  0  0  0  0  0  0  0  0  0
    9.1103    5.2599    0.0000 C   0  0  0  0  0  0  0  0  0  0  0  0
    3.9142    5.2599    0.0000 C   0  0  0  0  0  0  0  0  0  0  0  0
   10.4094    6.0099    0.0000 C   0  0  0  0  0  0  0  0  0  0  0  0
    2.6151    6.0099    0.0000 C   0  0  0  0  0  0  0  0  0  0  0  0
   11.7084    5.2599    0.0000 C   0  0  0  0  0  0  0  0  0  0  0  0
    1.3161    5.2599    0.0000 C   0  0  0  0  0  0  0  0  0  0  0  0
   11.7084    3.7599    0.0000 O   0  0  0  0  0  0  0  0  0  0  0  0
    1.3161    3.7599    0.0000 O   0  0  0  0  0  0  0  0  0  0  0  0
   13.0075    6.0099    0.0000 O   0  0  0  0  0  0  0  0  0  0  0  0
    0.0171    6.0099    0.0000 O   0  0  0  0  0  0  0  0  0  0  0  0
   14.3065    5.2599    0.0000 Si  0  0  0  0  0  4  0  0  0  0  0  0
   -1.2820    5.2599    0.0000 Si  0  0  0  0  0  4  0  0  0  0  0  0
  8  7  1  0
  9  7  1  0
 10  8  1  0
 11  9  1  0
 12 10  1  0
 13 11  1  0
 14 12  1  0
 15 13  1  0
 16 14  2  0
 17 15  2  0
 18 14  1  0
 19 15  1  0
 20  1  1  0
 20  2  1  0
 20  3  1  0
 20 18  1  0
 21  4  1  0
 21  5  1  0
 21  6  1  0
 21 19  1  0
M  END
>  <NAME>  (6828) 
NONANEDIOIC ACID BIS(TRIMETHYLSILYL) ESTER

>  <SYNONYMS>  (6828) 
DI(TRIMETHYLSILYL) NONANEDIOATE

>  <SPECTRUM TYPE>  (6828) 
MS1

>  <INSTRUMENT TYPE>  (6828) 
EI-B

>  <INSTRUMENT>  (6828) 
JEOL JMS-01-SG

>  <ION MODE>  (6828) 
P

>  <INCHIKEY>  (6828) 
UGESQDAUQLNVHU-UHFFFAOYSA-N

>  <FORMULA>  (6828) 
C15H32O4Si2

>  <EXACT MASS>  (6828) 
332.18391256399997

>  <MW>  (6828) 
332

>  <ID>  (6828) 
JP001041

>  <CONTRIBUTOR>  (6828) 
University of Tokyo Team, {Faculty of Engineering, University of Tokyo

>  <COMMENT>  (6828) 
SMILES=C(CCCC(=O)O[Si](C)(C)C)CCCC(=O)O[Si](C)(C)C
InChI=InChI=1S/C15H32O4Si2/c1-20(2,3)18-14(16)12-10-8-7-9-11-13-15(17)19-21(4,5)6/h7-13H2,1-6H3
computed SMILES=O=C(O[Si](C)(C)C)CCCCCCCC(=O)O[Si](C)(C)C
accession=JP001041
date=2016.01.19 (Created 2008.10.21, modified 2011.05.06)
author=KOGA M, UNIV. OF OCCUPATIONAL AND ENVIRONMENTAL HEALTH
license=CC BY-NC-SA
exact mass=332.18391
ionization energy=70 eV
ion type=[M]+*
computed spectral entropy=2.6611925767496474
computed normalized entropy=0.8609369223830456
SPLASH=splash10-0g6r-9431000000-6a3111d8305aafff5dc0
submitter=submitter = University of Tokyo Team (Faculty of Engineering, University of Tokyo)
MoNA Rating=3.75

>  <NUM PEAKS>  (6828) 
22

>  <MASS SPECTRAL PEAKS>  (6828) 
45 11
55 28.2
67 11
73 99.99
75 66.1
81 9.3
83 15.9
97 1.34
111 12.5
117 28.9
129 25.9
147 3.23
152 27
153 11.2
171 11.4
183 1
201 43.8
204 23.6
217 18.9
273 0.74
317 20.8
318 8.2

$$$$

     RDKit          2D

 22 23  0  0  0  0  0  0  0  0999 V2000
    5.3987    3.0004    0.0000 C   0  0  0  0  0  0  0  0  0  0  0  0
    3.8984    4.5002    0.0000 C   0  0  0  0  0  0  0  0  0  0  0  0
    2.3987    3.0000    0.0000 C   0  0  0  0  0  0  0  0  0  0  0  0
    5.7468   -2.7995    0.0000 C   0  0  0  0  0  0  0  0  0  0  0  0
    7.7959   -2.2508    0.0000 C   0  0  0  0  0  0  0  0  0  0  0  0
    7.2472   -0.2017    0.0000 C   0  0  0  0  0  0  0  0  0  0  0  0
   -2.6000   -0.7500    0.0000 C   0  0  0  0  0  0  0  0  0  0  0  0
   -2.6000    0.7500    0.0000 C   0  0  0  0  0  0  0  0  0  0  0  0
   -1.3000   -1.5000    0.0000 C   0  0  0  0  0  0  0  0  0  0  0  0
   -1.3000    1.5000    0.0000 C   0  0  0  0  0  0  0  0  0  0  0  0
    1.3000   -1.5000    0.0000 C   0  0  0  0  0  0  0  0  0  0  0  0
    1.3000    1.5000    0.0000 C   0  0  0  0  0  0  0  0  0  0  0  0
    0.0000   -0.7500    0.0000 C   0  0  0  0  0  0  0  0  0  0  0  0
    0.0000    0.7500    0.0000 C   0  0  0  0  0  0  0  0  0  0  0  0
    2.6000   -0.7500    0.0000 C   0  0  0  0  0  0  0  0  0  0  0  0
    2.6000    0.7500    0.0000 C   0  0  0  0  0  0  0  0  0  0  0  0
    3.8989   -1.5002    0.0000 C   0  0  0  0  0  0  0  0  0  0  0  0
    3.8987   -3.0002    0.0000 O   0  0  0  0  0  0  0  0  0  0  0  0
    3.8989    1.5002    0.0000 O   0  0  0  0  0  0  0  0  0  0  0  0
    5.1981   -0.7504    0.0000 O   0  0  0  0  0  0  0  0  0  0  0  0
    3.8987    3.0002    0.0000 Si  0  0  0  0  0  4  0  0  0  0  0  0
    6.4970   -1.5006    0.0000 Si  0  0  0  0  0  4  0  0  0  0  0  0
  8  7  2  0
  9  7  1  0
 10  8  1  0
 13  9  2  0
 13 11  1  0
 14 10  2  0
 14 12  1  0
 14 13  1  0
 15 11  2  0
 16 12  2  0
 16 15  1  0
 17 15  1  0
 18 17  2  0
 19 16  1  0
 20 17  1  0
 21  1  1  0
 21  2  1  0
 21  3  1  0
 21 19  1  0
 22  4  1  0
 22  5  1  0
 22  6  1  0
 22 20  1  0
M  END
>  <NAME>  (6829) 
3-(TRIMETHYLSILYL)OXY-2-NAPHTHOIC ACID TRIMETHYLSILYL ESTER

>  <SYNONYMS>  (6829) 
TRIMETHYLSILYL 3-TRIMETHYLSILOXY-2-NAPHTHOATE

>  <SPECTRUM TYPE>  (6829) 
MS1

>  <INSTRUMENT TYPE>  (6829) 
EI-B

>  <INSTRUMENT>  (6829) 
JEOL JMS-01-SG

>  <ION MODE>  (6829) 
P

>  <INCHIKEY>  (6829) 
SGSKFENRYUZSIQ-UHFFFAOYSA-N

>  <FORMULA>  (6829) 
C17H24O3Si2

>  <EXACT MASS>  (6829) 
332.126397688

>  <MW>  (6829) 
332

>  <ID>  (6829) 
JP001040

>  <CONTRIBUTOR>  (6829) 
University of Tokyo Team, {Faculty of Engineering, University of Tokyo

>  <COMMENT>  (6829) 
SMILES=C[Si](C)(C)OC(=O)c(c1)c(O[Si](C)(C)C)cc(c2)c(ccc2)1
InChI=InChI=1S/C17H24O3Si2/c1-21(2,3)19-16-12-14-10-8-7-9-13(14)11-15(16)17(18)20-22(4,5)6/h7-12H,1-6H3
computed SMILES=O=C(O[Si](C)(C)C)C1=CC=2C=CC=CC2C=C1O[Si](C)(C)C
accession=JP001040
date=2016.01.19 (Created 2008.10.21, modified 2011.05.06)
author=KOGA M, UNIV. OF OCCUPATIONAL AND ENVIRONMENTAL HEALTH
license=CC BY-NC-SA
exact mass=332.1264
ionization energy=70 eV
ion type=[M]+*
computed spectral entropy=2.011378738892038
computed normalized entropy=0.7427405659146872
SPLASH=splash10-00xr-9215000000-b825f2d7c282ee8b6cde
submitter=submitter = University of Tokyo Team (Faculty of Engineering, University of Tokyo)
MoNA Rating=3.75

>  <NUM PEAKS>  (6829) 
15

>  <MASS SPECTRAL PEAKS>  (6829) 
73 99.99
74 7.3
75 17
77 1.11
115 7.1
141 12.2
149 12.7
185 0.89
243 8.9
259 11.5
260 6.3
299 0.71
317 58.6
318 13.3
319 8

$$$$

     RDKit          2D

 21 20  0  0  0  0  0  0  0  0999 V2000
    1.8195   -0.6684    0.0000 C   0  0  0  0  0  0  0  0  0  0  0  0
    7.7181    2.7372    0.0000 C   0  0  0  0  0  0  0  0  0  0  0  0
   -0.0000    0.0000    0.0000 C   0  0  0  0  0  0  0  0  0  0  0  0
    0.0000    3.0000    0.0000 C   0  0  0  0  0  0  0  0  0  0  0  0
   -1.5000    1.5000    0.0000 C   0  0  0  0  0  0  0  0  0  0  0  0
    8.0490    4.6471    0.0000 C   0  0  0  0  0  0  0  0  0  0  0  0
    7.5000    6.6962    0.0000 C   0  0  0  0  0  0  0  0  0  0  0  0
    5.4510    6.1471    0.0000 C   0  0  0  0  0  0  0  0  0  0  0  0
    2.0800    0.8088    0.0000 C   0  0  0  0  0  0  0  0  0  0  0  0
    6.3086    3.2502    0.0000 C   0  0  0  0  0  0  0  0  0  0  0  0
    3.4895    1.3218    0.0000 C   0  0  0  0  0  0  0  0  0  0  0  0
    5.1595    2.2860    0.0000 C   0  0  0  0  0  0  0  0  0  0  0  0
    2.2500    2.7990    0.0000 C   0  0  0  0  0  0  0  0  0  0  0  0
    4.5000    4.0981    0.0000 C   0  0  0  0  0  0  0  0  0  0  0  0
    3.7500    2.7990    0.0000 C   0  0  0  0  0  0  0  0  0  0  0  0
    1.5000    4.0981    0.0000 O   0  0  0  0  0  0  0  0  0  0  0  0
    3.7500    5.3971    0.0000 O   0  0  0  0  0  0  0  0  0  0  0  0
    1.5000    1.5000    0.0000 O   0  0  0  0  0  0  0  0  0  0  0  0
    6.0000    4.0981    0.0000 O   0  0  0  0  0  0  0  0  0  0  0  0
   -0.0000    1.5000    0.0000 Si  0  0  0  0  0  4  0  0  0  0  0  0
    6.7500    5.3971    0.0000 Si  0  0  0  0  0  4  0  0  0  0  0  0
  9  1  1  0
 10  2  1  0
 11  9  1  0
 12 10  1  0
 15 11  1  0
 15 12  1  0
 15 13  1  0
 15 14  1  0
 16 13  2  0
 17 14  2  0
 18 13  1  0
 19 14  1  0
 20  3  1  0
 20  4  1  0
 20  5  1  0
 20 18  1  0
 21  6  1  0
 21  7  1  0
 21  8  1  0
 21 19  1  0
M  END
>  <NAME>  (6830) 
HEPTANE-4,4-DICARBOXYLIC ACID BIS(TRIMETHYLSILYL) ESTER

>  <SYNONYMS>  (6830) 
DI(TRIMETHYLSILYL) 4,4-HEPTANEDICARBOXYLATE

>  <SPECTRUM TYPE>  (6830) 
MS1

>  <INSTRUMENT TYPE>  (6830) 
EI-B

>  <INSTRUMENT>  (6830) 
JEOL JMS-01-SG

>  <ION MODE>  (6830) 
P

>  <INCHIKEY>  (6830) 
DWLIUIJNJMCHOA-UHFFFAOYSA-N

>  <FORMULA>  (6830) 
C15H32O4Si2

>  <EXACT MASS>  (6830) 
332.183912564

>  <MW>  (6830) 
332

>  <ID>  (6830) 
JP001039

>  <CONTRIBUTOR>  (6830) 
University of Tokyo Team, {Faculty of Engineering, University of Tokyo

>  <COMMENT>  (6830) 
SMILES=CCCC(CCC)(C(=O)O[Si](C)(C)C)C(=O)O[Si](C)(C)C
InChI=InChI=1S/C15H32O4Si2/c1-9-11-15(12-10-2,13(16)18-20(3,4)5)14(17)19-21(6,7)8/h9-12H2,1-8H3
computed SMILES=O=C(O[Si](C)(C)C)C(C(=O)O[Si](C)(C)C)(CCC)CCC
accession=JP001039
date=2016.01.19 (Created 2008.10.21, modified 2011.05.06)
author=KOGA M, UNIV. OF OCCUPATIONAL AND ENVIRONMENTAL HEALTH
license=CC BY-NC-SA
exact mass=332.18391
ionization energy=70 eV
ion type=[M]+*
computed spectral entropy=2.1847775885202294
computed normalized entropy=0.8278628751269843
SPLASH=splash10-0002-9510000000-2402664434fca0bbb6dc
submitter=submitter = University of Tokyo Team (Faculty of Engineering, University of Tokyo)
MoNA Rating=3.75

>  <NUM PEAKS>  (6830) 
14

>  <MASS SPECTRAL PEAKS>  (6830) 
44 12.7
45 20.5
55 10.4
69 1.94
73 79.3
75 20.1
97 83.1
147 99.99
148 14.6
171 16.1
199 10.3
259 5.04
260 15.8
261 25.7

$$$$

     RDKit          2D

 21 21  0  0  0  0  0  0  0  0999 V2000
   -6.0399   -4.0403    0.0000 C   0  0  0  0  0  0  0  0  0  0  0  0
   -5.0779   -5.9309    0.0000 C   0  0  0  0  0  0  0  0  0  0  0  0
   -3.1872   -4.9690    0.0000 C   0  0  0  0  0  0  0  0  0  0  0  0
    1.6925   -6.6048    0.0000 C   0  0  0  0  0  0  0  0  0  0  0  0
    3.6731   -5.8452    0.0000 C   0  0  0  0  0  0  0  0  0  0  0  0
    2.9135   -3.8645    0.0000 C   0  0  0  0  0  0  0  0  0  0  0  0
    1.2100    0.3900    0.0000 C   0  0  0  0  0  0  0  0  0  0  0  0
    0.0000    1.2800    0.0000 C   0  0  0  0  0  0  0  0  0  0  0  0
    0.7500   -1.0300    0.0000 C   0  0  0  0  0  0  0  0  0  0  0  0
   -1.2100    0.3900    0.0000 C   0  0  0  0  0  0  0  0  0  0  0  0
   -2.2174   -1.3410    0.0000 C   0  0  0  0  0  0  0  0  0  0  0  0
   -0.5936   -2.5218    0.0000 C   0  0  0  0  0  0  0  0  0  0  0  0
   -2.6818   -2.7673    0.0000 C   0  0  0  0  0  0  0  0  0  0  0  0
    0.7765   -3.1323    0.0000 C   0  0  0  0  0  0  0  0  0  0  0  0
   -0.7500   -1.0300    0.0000 C   0  0  0  0  0  0  0  0  0  0  0  0
   -1.6787   -3.8826    0.0000 O   0  0  0  0  0  0  0  0  0  0  0  0
    1.9903   -2.2510    0.0000 O   0  0  0  0  0  0  0  0  0  0  0  0
   -4.1492   -3.0783    0.0000 O   0  0  0  0  0  0  0  0  0  0  0  0
    0.9328   -4.6242    0.0000 O   0  0  0  0  0  0  0  0  0  0  0  0
   -4.6135   -4.5046    0.0000 Si  0  0  0  0  0  4  0  0  0  0  0  0
    2.3030   -5.2347    0.0000 Si  0  0  0  0  0  4  0  0  0  0  0  0
  8  7  1  0
  9  7  1  0
 10  8  1  0
 13 11  1  0
 14 12  1  0
 15  9  1  0
 15 10  1  0
 15 11  1  0
 15 12  1  0
 16 13  2  0
 17 14  2  0
 18 13  1  0
 19 14  1  0
 20  1  1  0
 20  2  1  0
 20  3  1  0
 20 18  1  0
 21  4  1  0
 21  5  1  0
 21  6  1  0
 21 19  1  0
M  END
>  <NAME>  (6831) 
1,1-CYCLOPENTANEDIACETIC ACID BIS(TRIMETHYLSILYL) ESTER

>  <SYNONYMS>  (6831) 
DI(TRIMETHYLSILYL) 1,1-CYCLOPENTANEDIACETATE

>  <SPECTRUM TYPE>  (6831) 
MS1

>  <INSTRUMENT TYPE>  (6831) 
EI-B

>  <INSTRUMENT>  (6831) 
JEOL JMS-01-SG

>  <ION MODE>  (6831) 
P

>  <INCHIKEY>  (6831) 
FWYIOQBWIAFANE-UHFFFAOYSA-N

>  <FORMULA>  (6831) 
C15H30O4Si2

>  <EXACT MASS>  (6831) 
330.16826249999997

>  <MW>  (6831) 
330

>  <ID>  (6831) 
JP001038

>  <CONTRIBUTOR>  (6831) 
University of Tokyo Team, {Faculty of Engineering, University of Tokyo

>  <COMMENT>  (6831) 
SMILES=O=C(O[Si](C)(C)C)CC(C1)(CCC1)CC(=O)O[Si](C)(C)C
InChI=InChI=1S/C15H30O4Si2/c1-20(2,3)18-13(16)11-15(9-7-8-10-15)12-14(17)19-21(4,5)6/h7-12H2,1-6H3
computed SMILES=O=C(O[Si](C)(C)C)CC1(CC(=O)O[Si](C)(C)C)CCCC1
accession=JP001038
date=2016.01.19 (Created 2008.10.21, modified 2011.05.06)
author=KOGA M, UNIV. OF OCCUPATIONAL AND ENVIRONMENTAL HEALTH
license=CC BY-NC-SA
exact mass=330.16826
ionization energy=70 eV
ion type=[M]+*
computed spectral entropy=2.3410555693807416
computed normalized entropy=0.8099496415937659
SPLASH=splash10-00di-9300000000-1caa8fd0b2852e524e47
submitter=submitter = University of Tokyo Team (Faculty of Engineering, University of Tokyo)
MoNA Rating=3.75

>  <NUM PEAKS>  (6831) 
18

>  <MASS SPECTRAL PEAKS>  (6831) 
43 9.4
45 21
67 5.1
73 99.99
74 7.2
75 30
77 18
81 1.28
95 6
109 43.3
117 14.1
147 3.21
170 10.3
183 5.5
198 7.2
199 2.06
212 13.7
315 15

$$$$

     RDKit          2D

 22 21  0  0  0  0  0  0  0  0999 V2000
    5.4339    9.8873    0.0000 C   0  0  0  0  0  0  0  0  0  0  0  0
  -11.4536   12.1373    0.0000 C   0  0  0  0  0  0  0  0  0  0  0  0
  -16.1007   11.1863    0.0000 C   0  0  0  0  0  0  0  0  0  0  0  0
  -16.6498    9.1373    0.0000 C   0  0  0  0  0  0  0  0  0  0  0  0
  -14.6007    8.5882    0.0000 C   0  0  0  0  0  0  0  0  0  0  0  0
    4.1349   10.6373    0.0000 C   0  0  0  0  0  0  0  0  0  0  0  0
    2.8358    9.8873    0.0000 C   0  0  0  0  0  0  0  0  0  0  0  0
    1.5368   10.6373    0.0000 C   0  0  0  0  0  0  0  0  0  0  0  0
    0.2377    9.8873    0.0000 C   0  0  0  0  0  0  0  0  0  0  0  0
   -1.0613   10.6373    0.0000 C   0  0  0  0  0  0  0  0  0  0  0  0
   -2.3603    9.8873    0.0000 C   0  0  0  0  0  0  0  0  0  0  0  0
   -3.6594   10.6373    0.0000 C   0  0  0  0  0  0  0  0  0  0  0  0
   -4.9584    9.8873    0.0000 C   0  0  0  0  0  0  0  0  0  0  0  0
   -6.2575   10.6373    0.0000 C   0  0  0  0  0  0  0  0  0  0  0  0
   -7.5565    9.8873    0.0000 C   0  0  0  0  0  0  0  0  0  0  0  0
   -8.8555   10.6373    0.0000 C   0  0  0  0  0  0  0  0  0  0  0  0
  -10.1546    9.8873    0.0000 C   0  0  0  0  0  0  0  0  0  0  0  0
  -11.4536   10.6373    0.0000 C   0  0  0  0  0  0  0  0  0  0  0  0
  -12.7526    9.8873    0.0000 C   0  0  0  0  0  0  0  0  0  0  0  0
  -12.7526    8.3873    0.0000 O   0  0  0  0  0  0  0  0  0  0  0  0
  -14.0517   10.6373    0.0000 O   0  0  0  0  0  0  0  0  0  0  0  0
  -15.3507    9.8873    0.0000 Si  0  0  0  0  0  4  0  0  0  0  0  0
  6  1  1  0
  7  6  1  0
  8  7  1  0
  9  8  1  0
 10  9  1  0
 11 10  1  0
 12 11  1  0
 13 12  1  0
 14 13  1  0
 15 14  1  0
 16 15  1  0
 17 16  1  0
 18  2  1  0
 18 17  1  0
 19 18  1  0
 20 19  2  0
 21 19  1  0
 22  3  1  0
 22  4  1  0
 22  5  1  0
 22 21  1  0
M  END
>  <NAME>  (6832) 
2-METHYLPENTADECANOIC ACID TRIMETHYLSILYLESTER

>  <SYNONYMS>  (6832) 
TRIMETHYLSILYL 2-METHYLPENTADECANOATE

>  <SPECTRUM TYPE>  (6832) 
MS1

>  <INSTRUMENT TYPE>  (6832) 
EI-B

>  <INSTRUMENT>  (6832) 
JEOL JMS-01-SG

>  <ION MODE>  (6832) 
P

>  <INCHIKEY>  (6832) 
VTUHRCMSKKPSFY-UHFFFAOYSA-N

>  <FORMULA>  (6832) 
C19H40O2Si

>  <EXACT MASS>  (6832) 
328.27975705

>  <MW>  (6832) 
328

>  <ID>  (6832) 
JP001037

>  <CONTRIBUTOR>  (6832) 
University of Tokyo Team, {Faculty of Engineering, University of Tokyo

>  <COMMENT>  (6832) 
SMILES=CCCCCCCCCCCCCC(C)C(=O)O[Si](C)(C)C
InChI=InChI=1S/C19H40O2Si/c1-6-7-8-9-10-11-12-13-14-15-16-17-18(2)19(20)21-22(3,4)5/h18H,6-17H2,1-5H3
computed SMILES=O=C(O[Si](C)(C)C)C(C)CCCCCCCCCCCCC
accession=JP001037
date=2016.01.19 (Created 2008.10.21, modified 2011.05.06)
author=KOGA M, UNIV. OF OCCUPATIONAL AND ENVIRONMENTAL HEALTH
license=CC BY-NC-SA
exact mass=328.27976
ionization energy=70 eV
ion type=[M]+*
computed spectral entropy=2.767522986155522
computed normalized entropy=0.7915106538464878
SPLASH=splash10-00vi-9400000000-dff11f6f17320f8bd3d6
submitter=submitter = University of Tokyo Team (Faculty of Engineering, University of Tokyo)
MoNA Rating=3.75

>  <NUM PEAKS>  (6832) 
33

>  <MASS SPECTRAL PEAKS>  (6832) 
43 19.9
44 3.3
45 6.1
47 0.52
55 21.8
56 6.1
57 13.2
61 0.56
67 6.1
69 13.7
71 4.7
73 99.99
74 9.4
75 68.7
76 6.6
77 0.99
81 7.1
83 9
95 6.6
97 6.1
98 5.6
116 4.7
117 82.9
118 0.75
129 32.7
130 5.2
131 14.6
132 3.69
133 6.6
145 24.1
201 4.2
313 2.13
314 5.6

$$$$

     RDKit          2D

 21 21  0  0  0  0  0  0  0  0999 V2000
    4.2573    2.0451    0.0000 C   0  0  0  0  0  0  0  0  0  0  0  0
    5.0068   -0.7544    0.0000 C   0  0  0  0  0  0  0  0  0  0  0  0
    5.5559    1.2946    0.0000 C   0  0  0  0  0  0  0  0  0  0  0  0
    3.5068    1.8437    0.0000 C   0  0  0  0  0  0  0  0  0  0  0  0
   -6.8855    3.3437    0.0000 C   0  0  0  0  0  0  0  0  0  0  0  0
   -7.4345    1.2946    0.0000 C   0  0  0  0  0  0  0  0  0  0  0  0
   -5.3855    0.7456    0.0000 C   0  0  0  0  0  0  0  0  0  0  0  0
   -0.9398    0.5438    0.0000 C   0  0  0  0  0  0  0  0  0  0  0  0
    0.3592   -0.2062    0.0000 C   0  0  0  0  0  0  0  0  0  0  0  0
    0.3602    2.7955    0.0000 C   0  0  0  0  0  0  0  0  0  0  0  0
   -2.2383    2.7946    0.0000 C   0  0  0  0  0  0  0  0  0  0  0  0
   -0.9393    2.0446    0.0000 C   0  0  0  0  0  0  0  0  0  0  0  0
    1.6588    0.5446    0.0000 C   0  0  0  0  0  0  0  0  0  0  0  0
    1.6592    2.0455    0.0000 C   0  0  0  0  0  0  0  0  0  0  0  0
   -3.5374    2.0446    0.0000 C   0  0  0  0  0  0  0  0  0  0  0  0
   -3.5374    0.5446    0.0000 O   0  0  0  0  0  0  0  0  0  0  0  0
    2.9584    2.7953    0.0000 O   0  0  0  0  0  0  0  0  0  0  0  0
    2.9578   -0.2054    0.0000 O   0  0  0  0  0  0  0  0  0  0  0  0
   -4.8364    2.7946    0.0000 O   0  0  0  0  0  0  0  0  0  0  0  0
    4.2568    0.5446    0.0000 Si  0  0  0  0  0  4  0  0  0  0  0  0
   -6.1355    2.0446    0.0000 Si  0  0  0  0  0  4  0  0  0  0  0  0
  9  8  2  0
 12  8  1  0
 12 10  2  0
 12 11  1  0
 13  9  1  0
 14 10  1  0
 14 13  2  0
 15 11  1  0
 16 15  2  0
 17  1  1  0
 17 14  1  0
 18 13  1  0
 19 15  1  0
 20  2  1  0
 20  3  1  0
 20  4  1  0
 20 18  1  0
 21  5  1  0
 21  6  1  0
 21  7  1  0
 21 19  1  0
M  END
>  <NAME>  (6833) 
3-METHOXY-4-(TRIMETHYLSILYL)OXYPHENYLACETIC ACID TRIMETHYLSILYL ESTER

>  <SYNONYMS>  (6833) 
TRIMETHYLSILYL (3-METHOXY-4-TRIMETHYLSILOXY)PHENYLACETATE

>  <SPECTRUM TYPE>  (6833) 
MS1

>  <INSTRUMENT TYPE>  (6833) 
EI-B

>  <INSTRUMENT>  (6833) 
JEOL JMS-01-SG

>  <ION MODE>  (6833) 
P

>  <INCHIKEY>  (6833) 
PPAQHWGGSXMRBE-UHFFFAOYSA-N

>  <FORMULA>  (6833) 
C15H26O4Si2

>  <EXACT MASS>  (6833) 
326.13696237199997

>  <MW>  (6833) 
326

>  <ID>  (6833) 
JP001036

>  <CONTRIBUTOR>  (6833) 
University of Tokyo Team, {Faculty of Engineering, University of Tokyo

>  <COMMENT>  (6833) 
SMILES=COc(c1)c(ccc(CC(=O)O[Si](C)(C)C)1)O[Si](C)(C)C
InChI=InChI=1S/C15H26O4Si2/c1-17-14-10-12(11-15(16)19-21(5,6)7)8-9-13(14)18-20(2,3)4/h8-10H,11H2,1-7H3
computed SMILES=O=C(O[Si](C)(C)C)CC1=CC=C(O[Si](C)(C)C)C(OC)=C1
accession=JP001036
date=2016.01.19 (Created 2008.10.21, modified 2011.05.06)
author=KOGA M, UNIV. OF OCCUPATIONAL AND ENVIRONMENTAL HEALTH
license=CC BY-NC-SA
exact mass=326.13696
ionization energy=70 eV
ion type=[M]+*
computed spectral entropy=2.650888438554383
computed normalized entropy=0.7648847208504592
SPLASH=splash10-00fr-9010000000-127b61c6040044e4d61a
submitter=submitter = University of Tokyo Team (Faculty of Engineering, University of Tokyo)
MoNA Rating=3.75

>  <NUM PEAKS>  (6833) 
32

>  <MASS SPECTRAL PEAKS>  (6833) 
43 5.2
44 9
45 27.4
47 0.74
49 5
51 4.8
59 5.6
63 0.46
65 4.6
71 4.4
73 99.99
74 0.88
75 30.2
76 4.8
77 28.8
78 0.28
79 4.6
91 2.2
93 4.8
105 0.46
107 4.6
147 4.4
149 4.6
163 0.46
179 11.2
206 4.4
209 15.8
210 0.46
267 7.8
296 5
311 7.6
326 10.2

$$$$

     RDKit          2D

 21 21  0  0  0  0  0  0  0  0999 V2000
   -1.8481    6.8690    0.0000 C   0  0  0  0  0  0  0  0  0  0  0  0
   -3.8971    6.3200    0.0000 C   0  0  0  0  0  0  0  0  0  0  0  0
   -3.3481    4.2710    0.0000 C   0  0  0  0  0  0  0  0  0  0  0  0
    3.3481    4.2710    0.0000 C   0  0  0  0  0  0  0  0  0  0  0  0
    3.8971    6.3200    0.0000 C   0  0  0  0  0  0  0  0  0  0  0  0
    1.8481    6.8690    0.0000 C   0  0  0  0  0  0  0  0  0  0  0  0
    0.0000   -1.9300    0.0000 C   0  0  0  0  0  0  0  0  0  0  0  0
    1.3000   -1.1800    0.0000 C   0  0  0  0  0  0  0  0  0  0  0  0
   -1.3000   -1.1800    0.0000 C   0  0  0  0  0  0  0  0  0  0  0  0
    1.3000    0.3200    0.0000 C   0  0  0  0  0  0  0  0  0  0  0  0
   -1.3000    0.3200    0.0000 C   0  0  0  0  0  0  0  0  0  0  0  0
    0.0000    1.0700    0.0000 C   0  0  0  0  0  0  0  0  0  0  0  0
    0.0000    2.5700    0.0000 C   0  0  0  0  0  0  0  0  0  0  0  0
   -1.2990    3.3200    0.0000 C   0  0  0  0  0  0  0  0  0  0  0  0
    1.2990    3.3200    0.0000 C   0  0  0  0  0  0  0  0  0  0  0  0
   -2.5981    2.5700    0.0000 O   0  0  0  0  0  0  0  0  0  0  0  0
    2.5981    2.5700    0.0000 O   0  0  0  0  0  0  0  0  0  0  0  0
   -1.2990    4.8200    0.0000 O   0  0  0  0  0  0  0  0  0  0  0  0
    1.2990    4.8200    0.0000 O   0  0  0  0  0  0  0  0  0  0  0  0
   -2.5981    5.5700    0.0000 Si  0  0  0  0  0  4  0  0  0  0  0  0
    2.5981    5.5700    0.0000 Si  0  0  0  0  0  4  0  0  0  0  0  0
  8  7  2  0
  9  7  1  0
 10  8  1  0
 11  9  2  0
 12 10  2  0
 12 11  1  0
 13 12  1  0
 14 13  1  0
 15 13  1  0
 16 14  2  0
 17 15  2  0
 18 14  1  0
 19 15  1  0
 20  1  1  0
 20  2  1  0
 20  3  1  0
 20 18  1  0
 21  4  1  0
 21  5  1  0
 21  6  1  0
 21 19  1  0
M  END
>  <NAME>  (6834) 
PHENYL-MALONIC ACID BIS(TRIMETHYLSILYL) ESTER

>  <SYNONYMS>  (6834) 
DI(TRIMETHYLSILYL) PHENYLMALONATE

>  <SPECTRUM TYPE>  (6834) 
MS1

>  <INSTRUMENT TYPE>  (6834) 
EI-B

>  <INSTRUMENT>  (6834) 
JEOL JMS-01-SG

>  <ION MODE>  (6834) 
P

>  <INCHIKEY>  (6834) 
AIZHQFQKWQSRKR-UHFFFAOYSA-N

>  <FORMULA>  (6834) 
C15H24O4Si2

>  <EXACT MASS>  (6834) 
324.12131230800003

>  <MW>  (6834) 
324

>  <ID>  (6834) 
JP001035

>  <CONTRIBUTOR>  (6834) 
University of Tokyo Team, {Faculty of Engineering, University of Tokyo

>  <COMMENT>  (6834) 
SMILES=c(c1)ccc(c1)C(C(=O)O[Si](C)(C)C)C(=O)O[Si](C)(C)C
InChI=InChI=1S/C15H24O4Si2/c1-20(2,3)18-14(16)13(12-10-8-7-9-11-12)15(17)19-21(4,5)6/h7-11,13H,1-6H3
computed SMILES=O=C(O[Si](C)(C)C)C(C(=O)O[Si](C)(C)C)C=1C=CC=CC1
accession=JP001035
date=2016.01.19 (Created 2008.10.21, modified 2011.05.06)
author=KOGA M, UNIV. OF OCCUPATIONAL AND ENVIRONMENTAL HEALTH
license=CC BY-NC-SA
exact mass=324.12131
ionization energy=70 eV
ion type=[M]+*
computed spectral entropy=2.7338747407974395
computed normalized entropy=0.7961225764693337
SPLASH=splash10-00dj-9220000000-12f638bd72ab80dc58e5
submitter=submitter = University of Tokyo Team (Faculty of Engineering, University of Tokyo)
MoNA Rating=3.75

>  <NUM PEAKS>  (6834) 
31

>  <MASS SPECTRAL PEAKS>  (6834) 
43 27.1
44 4.7
45 25
47 0.43
73 99.99
74 8.2
75 24.6
77 1.2
89 8.2
90 12
117 4.3
118 1.51
119 4.3
133 6.4
145 17.3
147 7.1
148 11.8
149 7.2
163 4.1
206 1.42
207 7.2
234 18.6
235 2.4
265 3.95
266 9.7
267 2.2
279 4.7
281 0.99
282 1.6
309 9.1
310 1.4

$$$$

     RDKit          2D

 19 18  0  0  0  0  0  0  0  0999 V2000
   -0.9608    2.0123    0.0000 C   0  0  0  0  0  0  0  0  0  0  0  0
    0.5392    4.6103    0.0000 C   0  0  0  0  0  0  0  0  0  0  0  0
   -1.5099    4.0613    0.0000 C   0  0  0  0  0  0  0  0  0  0  0  0
    1.6373    1.6103    0.0000 C   0  0  0  0  0  0  0  0  0  0  0  0
    1.0882   -0.4387    0.0000 C   0  0  0  0  0  0  0  0  0  0  0  0
    3.1373   -0.9877    0.0000 C   0  0  0  0  0  0  0  0  0  0  0  0
    8.3334    2.0123    0.0000 C   0  0  0  0  0  0  0  0  0  0  0  0
    8.8825    4.0613    0.0000 C   0  0  0  0  0  0  0  0  0  0  0  0
    6.8334    4.6103    0.0000 C   0  0  0  0  0  0  0  0  0  0  0  0
    2.3873    3.3113    0.0000 C   0  0  0  0  0  0  0  0  0  0  0  0
    3.6863    2.5613    0.0000 C   0  0  0  0  0  0  0  0  0  0  0  0
    4.9853    3.3113    0.0000 C   0  0  0  0  0  0  0  0  0  0  0  0
    4.9853    4.8113    0.0000 O   0  0  0  0  0  0  0  0  0  0  0  0
    1.0882    2.5613    0.0000 O   0  0  0  0  0  0  0  0  0  0  0  0
    3.6863    1.0613    0.0000 O   0  0  0  0  0  0  0  0  0  0  0  0
    6.2844    2.5613    0.0000 O   0  0  0  0  0  0  0  0  0  0  0  0
   -0.2108    3.3113    0.0000 Si  0  0  0  0  0  4  0  0  0  0  0  0
    2.3873    0.3113    0.0000 Si  0  0  0  0  0  4  0  0  0  0  0  0
    7.5834    3.3113    0.0000 Si  0  0  0  0  0  4  0  0  0  0  0  0
 11 10  1  0
 12 11  1  0
 13 12  2  0
 14 10  1  0
 15 11  1  0
 16 12  1  0
 17  1  1  0
 17  2  1  0
 17  3  1  0
 17 14  1  0
 18  4  1  0
 18  5  1  0
 18  6  1  0
 18 15  1  0
 19  7  1  0
 19  8  1  0
 19  9  1  0
 19 16  1  0
M  END
>  <NAME>  (6835) 
DL-2,3-BIS(TRIMETHYLSILYL)OXY-PROPIONIC ACID TRIMETHYLSILYL ESTER

>  <SYNONYMS>  (6835) 
TRIMETHYLSILYL DL-2,3-BIS(TRIMETHYLSILOXY)PROPIONATE

>  <SPECTRUM TYPE>  (6835) 
MS1

>  <INSTRUMENT TYPE>  (6835) 
EI-B

>  <INSTRUMENT>  (6835) 
JEOL JMS-01-SG

>  <ION MODE>  (6835) 
P

>  <INCHIKEY>  (6835) 
VTLZEKUPFUIGJQ-UHFFFAOYSA-N

>  <FORMULA>  (6835) 
C12H30O4Si3

>  <EXACT MASS>  (6835) 
322.14518903

>  <MW>  (6835) 
322

>  <ID>  (6835) 
JP001034

>  <CONTRIBUTOR>  (6835) 
University of Tokyo Team, {Faculty of Engineering, University of Tokyo

>  <COMMENT>  (6835) 
SMILES=C[Si](C)(C)OCC(O[Si](C)(C)C)C(=O)O[Si](C)(C)C
InChI=InChI=1S/C12H30O4Si3/c1-17(2,3)14-10-11(15-18(4,5)6)12(13)16-19(7,8)9/h11H,10H2,1-9H3
computed SMILES=O=C(O[Si](C)(C)C)C(O[Si](C)(C)C)CO[Si](C)(C)C
accession=JP001034
date=2016.01.19 (Created 2008.10.21, modified 2011.05.06)
author=KOGA M, UNIV. OF OCCUPATIONAL AND ENVIRONMENTAL HEALTH
license=CC BY-NC-SA
exact mass=322.14519
ionization energy=70 eV
ion type=[M]+*
computed spectral entropy=2.659548234288274
computed normalized entropy=0.7898172208703614
SPLASH=splash10-000g-2950000000-b62cb5fdc067f2f7be80
submitter=submitter = University of Tokyo Team (Faculty of Engineering, University of Tokyo)
MoNA Rating=3.75

>  <NUM PEAKS>  (6835) 
29

>  <MASS SPECTRAL PEAKS>  (6835) 
45 22.2
58 6.8
70 6
73 5.75
74 7
75 12.1
77 8.8
102 1.59
103 19.1
116 6
117 13.1
130 0.88
131 6.3
133 20.2
147 99.99
148 1.51
149 10.6
175 6
189 87.1
190 1.91
191 11.1
205 37.6
206 6.8
217 0.78
292 99.2
293 27.7
294 13.8
307 2.29
308 6

$$$$

     RDKit          2D

 20 19  0  0  0  0  0  0  0  0999 V2000
   14.2697    5.6716    0.0000 C   0  0  0  0  0  0  0  0  0  0  0  0
   12.7697    3.0736    0.0000 C   0  0  0  0  0  0  0  0  0  0  0  0
   14.8187    3.6226    0.0000 C   0  0  0  0  0  0  0  0  0  0  0  0
   -0.0197    6.4216    0.0000 C   0  0  0  0  0  0  0  0  0  0  0  0
   -2.0687    5.8726    0.0000 C   0  0  0  0  0  0  0  0  0  0  0  0
   -1.5197    3.8236    0.0000 C   0  0  0  0  0  0  0  0  0  0  0  0
    7.0245    5.1226    0.0000 C   0  0  0  0  0  0  0  0  0  0  0  0
    5.7255    4.3726    0.0000 C   0  0  0  0  0  0  0  0  0  0  0  0
    8.3236    4.3726    0.0000 C   0  0  0  0  0  0  0  0  0  0  0  0
    4.4264    5.1226    0.0000 C   0  0  0  0  0  0  0  0  0  0  0  0
    9.6226    5.1226    0.0000 C   0  0  0  0  0  0  0  0  0  0  0  0
    3.1274    4.3726    0.0000 C   0  0  0  0  0  0  0  0  0  0  0  0
   10.9216    4.3726    0.0000 C   0  0  0  0  0  0  0  0  0  0  0  0
    1.8284    5.1226    0.0000 C   0  0  0  0  0  0  0  0  0  0  0  0
   10.9216    2.8726    0.0000 O   0  0  0  0  0  0  0  0  0  0  0  0
    1.8284    6.6226    0.0000 O   0  0  0  0  0  0  0  0  0  0  0  0
   12.2207    5.1226    0.0000 O   0  0  0  0  0  0  0  0  0  0  0  0
    0.5293    4.3726    0.0000 O   0  0  0  0  0  0  0  0  0  0  0  0
   13.5197    4.3726    0.0000 Si  0  0  0  0  0  4  0  0  0  0  0  0
   -0.7697    5.1226    0.0000 Si  0  0  0  0  0  4  0  0  0  0  0  0
  8  7  1  0
  9  7  1  0
 10  8  1  0
 11  9  1  0
 12 10  1  0
 13 11  1  0
 14 12  1  0
 15 13  2  0
 16 14  2  0
 17 13  1  0
 18 14  1  0
 19  1  1  0
 19  2  1  0
 19  3  1  0
 19 17  1  0
 20  4  1  0
 20  5  1  0
 20  6  1  0
 20 18  1  0
M  END
>  <NAME>  (6836) 
OCTANEDIOIC ACID BIS(TRIMETHYLSILYL) ESTER

>  <SYNONYMS>  (6836) 
DI(TRIMETHYLSILYL) OCTANEDIOATE

>  <SPECTRUM TYPE>  (6836) 
MS1

>  <INSTRUMENT TYPE>  (6836) 
EI-B

>  <INSTRUMENT>  (6836) 
JEOL JMS-01-SG

>  <ION MODE>  (6836) 
P

>  <INCHIKEY>  (6836) 
LWDVKORSFQXPHL-UHFFFAOYSA-N

>  <FORMULA>  (6836) 
C14H30O4Si2

>  <EXACT MASS>  (6836) 
318.16826249999997

>  <MW>  (6836) 
318

>  <ID>  (6836) 
JP001033

>  <CONTRIBUTOR>  (6836) 
University of Tokyo Team, {Faculty of Engineering, University of Tokyo

>  <COMMENT>  (6836) 
SMILES=O=C(CCCCCCC(=O)O[Si](C)(C)C)O[Si](C)(C)C
InChI=InChI=1S/C14H30O4Si2/c1-19(2,3)17-13(15)11-9-7-8-10-12-14(16)18-20(4,5)6/h7-12H2,1-6H3
computed SMILES=O=C(O[Si](C)(C)C)CCCCCCC(=O)O[Si](C)(C)C
accession=JP001033
date=2016.01.19 (Created 2008.10.21, modified 2011.05.06)
author=KOGA M, UNIV. OF OCCUPATIONAL AND ENVIRONMENTAL HEALTH
license=CC BY-NC-SA
exact mass=318.16826
ionization energy=70 eV
ion type=[M]+*
computed spectral entropy=2.8773796635142044
computed normalized entropy=0.8635063228345834
SPLASH=splash10-0fia-9602000000-2a4e63e7573011fdd3c5
submitter=submitter = University of Tokyo Team (Faculty of Engineering, University of Tokyo)
MoNA Rating=3.75

>  <NUM PEAKS>  (6836) 
28

>  <MASS SPECTRAL PEAKS>  (6836) 
43 10.6
45 12.4
55 32.5
69 1.09
73 99.99
74 13
75 77.2
76 0.88
83 22.7
93 13.9
95 18.3
97 1.59
111 10.6
117 22.7
129 28.4
138 1.83
139 33.1
147 36
149 29.5
169 4.67
185 13.9
187 49.4
204 11.2
217 2.48
259 5.9
303 54.7
304 13
305 5.6

$$$$

     RDKit          2D

 20 20  0  0  0  0  0  0  0  0999 V2000
    0.3460    5.2495    0.0000 C   0  0  0  0  0  0  0  0  0  0  0  0
   -1.6986    4.6840    0.0000 C   0  0  0  0  0  0  0  0  0  0  0  0
   -1.1331    2.6394    0.0000 C   0  0  0  0  0  0  0  0  0  0  0  0
    6.8800    0.4539    0.0000 C   0  0  0  0  0  0  0  0  0  0  0  0
    7.4125    2.5073    0.0000 C   0  0  0  0  0  0  0  0  0  0  0  0
    5.3591    3.0398    0.0000 C   0  0  0  0  0  0  0  0  0  0  0  0
    1.5152   -2.8643    0.0000 C   0  0  0  0  0  0  0  0  0  0  0  0
    3.0107   -2.8245    0.0000 C   0  0  0  0  0  0  0  0  0  0  0  0
    1.0363   -1.4259    0.0000 C   0  0  0  0  0  0  0  0  0  0  0  0
    3.4521   -1.4012    0.0000 C   0  0  0  0  0  0  0  0  0  0  0  0
    2.2407   -0.5345    0.0000 C   0  0  0  0  0  0  0  0  0  0  0  0
    2.2286    0.9655    0.0000 C   0  0  0  0  0  0  0  0  0  0  0  0
    0.9236    1.7050    0.0000 C   0  0  0  0  0  0  0  0  0  0  0  0
    3.5216    1.7259    0.0000 C   0  0  0  0  0  0  0  0  0  0  0  0
   -0.3694    0.9446    0.0000 O   0  0  0  0  0  0  0  0  0  0  0  0
    3.5095    3.2259    0.0000 O   0  0  0  0  0  0  0  0  0  0  0  0
    0.9115    3.2049    0.0000 O   0  0  0  0  0  0  0  0  0  0  0  0
    4.8266    0.9864    0.0000 O   0  0  0  0  0  0  0  0  0  0  0  0
   -0.3935    3.9445    0.0000 Si  0  0  0  0  0  4  0  0  0  0  0  0
    6.1196    1.7469    0.0000 Si  0  0  0  0  0  4  0  0  0  0  0  0
  8  7  1  0
  9  7  1  0
 10  8  1  0
 11  9  1  0
 11 10  1  0
 12 11  1  0
 13 12  1  0
 14 12  1  0
 15 13  2  0
 16 14  2  0
 17 13  1  0
 18 14  1  0
 19  1  1  0
 19  2  1  0
 19  3  1  0
 19 17  1  0
 20  4  1  0
 20  5  1  0
 20  6  1  0
 20 18  1  0
M  END
>  <NAME>  (6837) 
CYCLOPENTYLMALONIC ACID BIS(TRIMETHYLSILYL) ESTER

>  <SYNONYMS>  (6837) 
DI(TRIMETHYLSILYL) CYCLOPENTYLMALONATE

>  <SPECTRUM TYPE>  (6837) 
MS1

>  <INSTRUMENT TYPE>  (6837) 
EI-B

>  <INSTRUMENT>  (6837) 
JEOL JMS-01-SG

>  <ION MODE>  (6837) 
P

>  <INCHIKEY>  (6837) 
UPRVYQOMRQKYCY-UHFFFAOYSA-N

>  <FORMULA>  (6837) 
C14H28O4Si2

>  <EXACT MASS>  (6837) 
316.152612436

>  <MW>  (6837) 
316

>  <ID>  (6837) 
JP001032

>  <CONTRIBUTOR>  (6837) 
University of Tokyo Team, {Faculty of Engineering, University of Tokyo

>  <COMMENT>  (6837) 
SMILES=C[Si](C)(C)OC(=O)C(C(C1)CCC1)C(=O)O[Si](C)(C)C
InChI=InChI=1S/C14H28O4Si2/c1-19(2,3)17-13(15)12(11-9-7-8-10-11)14(16)18-20(4,5)6/h11-12H,7-10H2,1-6H3
computed SMILES=O=C(O[Si](C)(C)C)C(C(=O)O[Si](C)(C)C)C1CCCC1
accession=JP001032
date=2016.01.19 (Created 2008.10.21, modified 2011.05.06)
author=KOGA M, UNIV. OF OCCUPATIONAL AND ENVIRONMENTAL HEALTH
license=CC BY-NC-SA
exact mass=316.15261
ionization energy=70 eV
ion type=[M]+*
computed spectral entropy=2.3817784263657575
computed normalized entropy=0.7950571709601177
SPLASH=splash10-0002-4941000000-da23c147b325535eec80
submitter=submitter = University of Tokyo Team (Faculty of Engineering, University of Tokyo)
MoNA Rating=3.75

>  <NUM PEAKS>  (6837) 
20

>  <MASS SPECTRAL PEAKS>  (6837) 
43 3.6
44 11.9
45 6.7
73 2.9
75 17.4
77 4.2
81 14.3
143 1.19
147 99.99
148 16.5
149 13.7
204 1.46
217 7.3
233 12.8
243 16.8
248 2.29
249 7.3
257 7.3
272 7
301 14.6

$$$$

     RDKit          2D

 18 17  0  0  0  0  0  0  0  0999 V2000
   -1.3457    3.1740    0.0000 C   0  0  0  0  0  0  0  0  0  0  0  0
    0.1543    5.7721    0.0000 C   0  0  0  0  0  0  0  0  0  0  0  0
   -1.8947    5.2231    0.0000 C   0  0  0  0  0  0  0  0  0  0  0  0
   10.3457    2.4240    0.0000 C   0  0  0  0  0  0  0  0  0  0  0  0
   12.3947    2.9731    0.0000 C   0  0  0  0  0  0  0  0  0  0  0  0
   11.8457    5.0221    0.0000 C   0  0  0  0  0  0  0  0  0  0  0  0
    4.6005    4.4731    0.0000 C   0  0  0  0  0  0  0  0  0  0  0  0
    5.8995    3.7231    0.0000 C   0  0  0  0  0  0  0  0  0  0  0  0
    3.3014    3.7231    0.0000 C   0  0  0  0  0  0  0  0  0  0  0  0
    7.1986    4.4731    0.0000 C   0  0  0  0  0  0  0  0  0  0  0  0
    2.0024    4.4731    0.0000 C   0  0  0  0  0  0  0  0  0  0  0  0
    8.4976    3.7231    0.0000 C   0  0  0  0  0  0  0  0  0  0  0  0
    2.0024    5.9731    0.0000 O   0  0  0  0  0  0  0  0  0  0  0  0
    8.4976    2.2231    0.0000 O   0  0  0  0  0  0  0  0  0  0  0  0
    0.7034    3.7231    0.0000 O   0  0  0  0  0  0  0  0  0  0  0  0
    9.7966    4.4731    0.0000 O   0  0  0  0  0  0  0  0  0  0  0  0
   -0.5957    4.4731    0.0000 Si  0  0  0  0  0  4  0  0  0  0  0  0
   11.0957    3.7231    0.0000 Si  0  0  0  0  0  4  0  0  0  0  0  0
  7  8  2  0
  9  7  1  0
 10  8  1  0
 11  9  1  0
 12 10  1  0
 13 11  2  0
 14 12  2  0
 15 11  1  0
 16 12  1  0
 17  1  1  0
 17  2  1  0
 17  3  1  0
 17 15  1  0
 18  4  1  0
 18  5  1  0
 18  6  1  0
 18 16  1  0
M  END
>  <NAME>  (6838) 
TRANS-2-BUTENE-1,4-DICARBOXYLIC ACID BIS(TRIMETHYLSILYL) ESTER

>  <SYNONYMS>  (6838) 
DI(TRIMETHYLSILYL) TRANS-3-HEXENEDIOATE

>  <SPECTRUM TYPE>  (6838) 
MS1

>  <INSTRUMENT TYPE>  (6838) 
EI-B

>  <INSTRUMENT>  (6838) 
JEOL JMS-01-SG

>  <ION MODE>  (6838) 
P

>  <INCHIKEY>  (6838) 
ZHDWBZJDVFQQQO-BQYQJAHWSA-N

>  <FORMULA>  (6838) 
C12H24O4Si2

>  <EXACT MASS>  (6838) 
288.121312308

>  <MW>  (6838) 
288

>  <ID>  (6838) 
JP001030

>  <CONTRIBUTOR>  (6838) 
University of Tokyo Team, {Faculty of Engineering, University of Tokyo

>  <COMMENT>  (6838) 
SMILES=O=C(CC=CCC(=O)O[Si](C)(C)C)O[Si](C)(C)C
InChI=InChI=1S/C12H24O4Si2/c1-17(2,3)15-11(13)9-7-8-10-12(14)16-18(4,5)6/h7-8H,9-10H2,1-6H3/b8-7+
computed SMILES=O=C(O[Si](C)(C)C)CC=CCC(=O)O[Si](C)(C)C
accession=JP001030
date=2016.01.19 (Created 2008.10.21, modified 2011.05.06)
author=KOGA M, UNIV. OF OCCUPATIONAL AND ENVIRONMENTAL HEALTH
license=CC BY-NC-SA
exact mass=288.12131
ionization energy=70 eV
ion type=[M]+*
computed spectral entropy=2.067219023159201
computed normalized entropy=0.8319101336605806
SPLASH=splash10-00fs-9200000000-1703356353df764b9728
submitter=submitter = University of Tokyo Team (Faculty of Engineering, University of Tokyo)
MoNA Rating=3.75

>  <NUM PEAKS>  (6838) 
12

>  <MASS SPECTRAL PEAKS>  (6838) 
45 17.9
47 17
54 11.1
73 99.99
74 11.1
75 47
77 30.7
82 1.88
93 9.4
147 61.5
244 8.5
273 12.8

$$$$

     RDKit          2D

 16 16  0  0  0  0  0  0  0  0999 V2000
   -2.0353    5.8943    0.0000 C   0  0  0  0  0  0  0  0  0  0  0  0
   -5.3834    4.1934    0.0000 C   0  0  0  0  0  0  0  0  0  0  0  0
   -5.9324    2.1443    0.0000 C   0  0  0  0  0  0  0  0  0  0  0  0
   -3.8834    1.5953    0.0000 C   0  0  0  0  0  0  0  0  0  0  0  0
   -0.7363    5.1443    0.0000 C   0  0  0  0  0  0  0  0  0  0  0  0
    3.1608    1.3943    0.0000 C   0  0  0  0  0  0  0  0  0  0  0  0
    3.1613    2.8952    0.0000 C   0  0  0  0  0  0  0  0  0  0  0  0
    1.8613    0.6435    0.0000 C   0  0  0  0  0  0  0  0  0  0  0  0
    1.8623    3.6452    0.0000 C   0  0  0  0  0  0  0  0  0  0  0  0
    0.5623    1.3935    0.0000 C   0  0  0  0  0  0  0  0  0  0  0  0
    0.5627    2.8943    0.0000 C   0  0  0  0  0  0  0  0  0  0  0  0
   -0.7363    3.6443    0.0000 C   0  0  0  0  0  0  0  0  0  0  0  0
   -2.0353    2.8943    0.0000 C   0  0  0  0  0  0  0  0  0  0  0  0
   -2.0353    1.3943    0.0000 O   0  0  0  0  0  0  0  0  0  0  0  0
   -3.3344    3.6443    0.0000 O   0  0  0  0  0  0  0  0  0  0  0  0
   -4.6334    2.8943    0.0000 Si  0  0  0  0  0  4  0  0  0  0  0  0
  5  1  1  0
  7  6  2  0
  8  6  1  0
  9  7  1  0
 10  8  2  0
 11  9  2  0
 11 10  1  0
 12  5  1  0
 12 11  1  0
 13 12  1  0
 14 13  2  0
 15 13  1  0
 16  2  1  0
 16  3  1  0
 16  4  1  0
 16 15  1  0
M  END
>  <NAME>  (6839) 
ALPHA-PHENYLBUTYRIC ACID TRIMETHYLSILYL ESTER

>  <SYNONYMS>  (6839) 
TRIMETHYLSILYL 2-PHENYLBUTYRATE

>  <SPECTRUM TYPE>  (6839) 
MS1

>  <INSTRUMENT TYPE>  (6839) 
EI-B

>  <INSTRUMENT>  (6839) 
JEOL JMS-01-SG

>  <ION MODE>  (6839) 
P

>  <INCHIKEY>  (6839) 
VYKUZPWIVBWKQA-UHFFFAOYSA-N

>  <FORMULA>  (6839) 
C13H20O2Si

>  <EXACT MASS>  (6839) 
236.12325641

>  <MW>  (6839) 
236

>  <ID>  (6839) 
JP001029

>  <CONTRIBUTOR>  (6839) 
University of Tokyo Team, {Faculty of Engineering, University of Tokyo

>  <COMMENT>  (6839) 
SMILES=CCC(c(c1)cccc1)C(=O)O[Si](C)(C)C
InChI=InChI=1S/C13H20O2Si/c1-5-12(11-9-7-6-8-10-11)13(14)15-16(2,3)4/h6-10,12H,5H2,1-4H3
computed SMILES=O=C(O[Si](C)(C)C)C(C=1C=CC=CC1)CC
accession=JP001029
date=2016.01.19 (Created 2008.10.21, modified 2011.05.06)
author=KOGA M, UNIV. OF OCCUPATIONAL AND ENVIRONMENTAL HEALTH
license=CC BY-NC-SA
exact mass=236.12326
ionization energy=70 eV
ion type=[M]+*
computed spectral entropy=2.0915478159349985
computed normalized entropy=0.6581222117644268
SPLASH=splash10-00di-9200000000-b25f329bfc8f050a0af4
submitter=submitter = University of Tokyo Team (Faculty of Engineering, University of Tokyo)
MoNA Rating=3.75

>  <NUM PEAKS>  (6839) 
24

>  <MASS SPECTRAL PEAKS>  (6839) 
44 1.5
45 8.2
47 4.1
51 0.23
61 2.5
65 2.1
72 1.9
73 99.99
74 13.1
75 34.4
76 2.7
77 0.68
78 2.1
89 2.1
90 2.3
91 1.4
103 2.1
105 2.1
115 2.5
117 0.6
118 29.3
119 4.1
192 8.4
221 7.2

$$$$

     RDKit          2D

 20 20  0  0  0  0  0  0  0  0999 V2000
    4.2941    1.4323    0.0000 C   0  0  0  0  0  0  0  0  0  0  0  0
    1.4946   -2.3181    0.0000 C   0  0  0  0  0  0  0  0  0  0  0  0
    2.9946   -3.8181    0.0000 C   0  0  0  0  0  0  0  0  0  0  0  0
    4.4946   -2.3181    0.0000 C   0  0  0  0  0  0  0  0  0  0  0  0
   -4.0496    3.4809    0.0000 C   0  0  0  0  0  0  0  0  0  0  0  0
   -6.0987    2.9319    0.0000 C   0  0  0  0  0  0  0  0  0  0  0  0
   -5.5496    0.8829    0.0000 C   0  0  0  0  0  0  0  0  0  0  0  0
   -0.9030   -0.0689    0.0000 C   0  0  0  0  0  0  0  0  0  0  0  0
    0.3960   -0.8189    0.0000 C   0  0  0  0  0  0  0  0  0  0  0  0
    0.3970    2.1827    0.0000 C   0  0  0  0  0  0  0  0  0  0  0  0
   -0.9025    1.4319    0.0000 C   0  0  0  0  0  0  0  0  0  0  0  0
    1.6955   -0.0681    0.0000 C   0  0  0  0  0  0  0  0  0  0  0  0
    1.6960    1.4327    0.0000 C   0  0  0  0  0  0  0  0  0  0  0  0
   -2.2016    2.1819    0.0000 C   0  0  0  0  0  0  0  0  0  0  0  0
   -2.2016    3.6819    0.0000 O   0  0  0  0  0  0  0  0  0  0  0  0
    2.9952    2.1825    0.0000 O   0  0  0  0  0  0  0  0  0  0  0  0
    2.9946   -0.8181    0.0000 O   0  0  0  0  0  0  0  0  0  0  0  0
   -3.5006    1.4319    0.0000 O   0  0  0  0  0  0  0  0  0  0  0  0
    2.9946   -2.3181    0.0000 Si  0  0  0  0  0  4  0  0  0  0  0  0
   -4.7996    2.1819    0.0000 Si  0  0  0  0  0  4  0  0  0  0  0  0
  9  8  2  0
 11  8  1  0
 11 10  2  0
 12  9  1  0
 13 10  1  0
 13 12  2  0
 14 11  1  0
 15 14  2  0
 16  1  1  0
 16 13  1  0
 17 12  1  0
 18 14  1  0
 19  2  1  0
 19  3  1  0
 19  4  1  0
 19 17  1  0
 20  5  1  0
 20  6  1  0
 20  7  1  0
 20 18  1  0
M  END
>  <NAME>  (6840) 
3-METHOXY-4-(TRIMETHYLSILYL)OXYBENZOIC ACID TRIMETHYLSILYL ESTER

>  <SYNONYMS>  (6840) 
TRIMETHYLSILYL 3-METHOXY-4-TRIMETHYLSILOXYBENZOATE

>  <SPECTRUM TYPE>  (6840) 
MS1

>  <INSTRUMENT TYPE>  (6840) 
EI-B

>  <INSTRUMENT>  (6840) 
JEOL JMS-01-SG

>  <ION MODE>  (6840) 
P

>  <INCHIKEY>  (6840) 
UQZKEPFYTGMPKU-UHFFFAOYSA-N

>  <FORMULA>  (6840) 
C14H24O4Si2

>  <EXACT MASS>  (6840) 
312.12131230800003

>  <MW>  (6840) 
312

>  <ID>  (6840) 
JP001027

>  <CONTRIBUTOR>  (6840) 
University of Tokyo Team, {Faculty of Engineering, University of Tokyo

>  <COMMENT>  (6840) 
SMILES=COc(c1)c(ccc1C(=O)O[Si](C)(C)C)O[Si](C)(C)C
InChI=InChI=1S/C14H24O4Si2/c1-16-13-10-11(14(15)18-20(5,6)7)8-9-12(13)17-19(2,3)4/h8-10H,1-7H3
computed SMILES=O=C(O[Si](C)(C)C)C1=CC=C(O[Si](C)(C)C)C(OC)=C1
accession=JP001027
date=2016.01.19 (Created 2008.10.21, modified 2011.05.06)
author=KOGA M, UNIV. OF OCCUPATIONAL AND ENVIRONMENTAL HEALTH
license=CC BY-NC-SA
exact mass=312.12131
ionization energy=70 eV
ion type=[M]+*
computed spectral entropy=2.785869313274204
computed normalized entropy=0.8273313227977935
SPLASH=splash10-02ft-2291000000-ab9d487438709c9dba71
submitter=submitter = University of Tokyo Team (Faculty of Engineering, University of Tokyo)
MoNA Rating=3.75

>  <NUM PEAKS>  (6840) 
29

>  <MASS SPECTRAL PEAKS>  (6840) 
45 12.9
59 9.5
73 58.4
75 0.95
77 13.4
89 5
126 26.9
134 0.84
141 7.3
147 13.4
148 7.8
149 0.61
165 7.8
193 15.7
223 51.1
224 0.84
253 41
254 8.4
267 61.2
268 1.23
269 5.6
282 39.8
283 8.9
297 99.99
298 21.9
299 9.5
312 62.9
313 1.46
314 5.6

$$$$

     RDKit          2D

 20 20  0  0  0  0  0  0  0  0999 V2000
   -4.7341    3.0688    0.0000 C   0  0  0  0  0  0  0  0  0  0  0  0
   -5.2832    1.0198    0.0000 C   0  0  0  0  0  0  0  0  0  0  0  0
   -3.2341    0.4707    0.0000 C   0  0  0  0  0  0  0  0  0  0  0  0
    0.1139    6.2698    0.0000 C   0  0  0  0  0  0  0  0  0  0  0  0
   -1.3861    7.7698    0.0000 C   0  0  0  0  0  0  0  0  0  0  0  0
   -2.8861    6.2698    0.0000 C   0  0  0  0  0  0  0  0  0  0  0  0
    3.8101    0.2698    0.0000 C   0  0  0  0  0  0  0  0  0  0  0  0
    3.8106    1.7706    0.0000 C   0  0  0  0  0  0  0  0  0  0  0  0
    2.5106   -0.4811    0.0000 C   0  0  0  0  0  0  0  0  0  0  0  0
    2.5115    2.5206    0.0000 C   0  0  0  0  0  0  0  0  0  0  0  0
    1.2115    0.2689    0.0000 C   0  0  0  0  0  0  0  0  0  0  0  0
   -1.3861    1.7698    0.0000 C   0  0  0  0  0  0  0  0  0  0  0  0
    1.2120    1.7698    0.0000 C   0  0  0  0  0  0  0  0  0  0  0  0
   -0.0870    2.5198    0.0000 C   0  0  0  0  0  0  0  0  0  0  0  0
   -0.0870    4.0198    0.0000 C   0  0  0  0  0  0  0  0  0  0  0  0
    1.2120    4.7698    0.0000 O   0  0  0  0  0  0  0  0  0  0  0  0
   -2.6851    2.5198    0.0000 O   0  0  0  0  0  0  0  0  0  0  0  0
   -1.3861    4.7698    0.0000 O   0  0  0  0  0  0  0  0  0  0  0  0
   -3.9841    1.7698    0.0000 Si  0  0  0  0  0  4  0  0  0  0  0  0
   -1.3861    6.2698    0.0000 Si  0  0  0  0  0  4  0  0  0  0  0  0
  8  7  2  0
  9  7  1  0
 10  8  1  0
 11  9  2  0
 13 10  2  0
 13 11  1  0
 14 12  1  0
 14 13  1  0
 15 14  1  0
 16 15  2  0
 17 12  1  0
 18 15  1  0
 19  1  1  0
 19  2  1  0
 19  3  1  0
 19 17  1  0
 20  4  1  0
 20  5  1  0
 20  6  1  0
 20 18  1  0
M  END
>  <NAME>  (6841) 
DL-ALPHA-PHENYL-BETA-(TRIMETHYLSILYL)OXY-PROPIONIC ACID TRIMETHYLSILYL ESTER

>  <SYNONYMS>  (6841) 
TRIMETHYLSILYL DL-ALPHA-PHENYL-BETA-TRIMETHYLSILOXYPROPIONATE

>  <SPECTRUM TYPE>  (6841) 
MS1

>  <INSTRUMENT TYPE>  (6841) 
EI-B

>  <INSTRUMENT>  (6841) 
JEOL JMS-01-SG

>  <ION MODE>  (6841) 
P

>  <INCHIKEY>  (6841) 
PASLIDCFUAELRD-UHFFFAOYSA-N

>  <FORMULA>  (6841) 
C15H26O3Si2

>  <EXACT MASS>  (6841) 
310.142047752

>  <MW>  (6841) 
310

>  <ID>  (6841) 
JP001026

>  <CONTRIBUTOR>  (6841) 
University of Tokyo Team, {Faculty of Engineering, University of Tokyo

>  <COMMENT>  (6841) 
SMILES=c(c1)ccc(c1)C(CO[Si](C)(C)C)C(=O)O[Si](C)(C)C
InChI=InChI=1S/C15H26O3Si2/c1-19(2,3)17-12-14(13-10-8-7-9-11-13)15(16)18-20(4,5)6/h7-11,14H,12H2,1-6H3
computed SMILES=O=C(O[Si](C)(C)C)C(C=1C=CC=CC1)CO[Si](C)(C)C
accession=JP001026
date=2016.01.19 (Created 2008.10.21, modified 2011.05.06)
author=KOGA M, UNIV. OF OCCUPATIONAL AND ENVIRONMENTAL HEALTH
license=CC BY-NC-SA
exact mass=310.14205
ionization energy=70 eV
ion type=[M]+*
computed spectral entropy=2.0779935412978436
computed normalized entropy=0.7673393722361848
SPLASH=splash10-0fk9-9830000000-2e81bdd085f704d4818a
submitter=submitter = University of Tokyo Team (Faculty of Engineering, University of Tokyo)
MoNA Rating=3.75

>  <NUM PEAKS>  (6841) 
15

>  <MASS SPECTRAL PEAKS>  (6841) 
45 8.5
73 99.99
75 19.3
97 0.81
103 45.4
104 23.6
118 43.7
147 5.23
148 8.1
205 3.4
220 3.4
267 0.38
280 33
281 8.5
295 3.8

$$$$

     RDKit          2D

 20 20  0  0  0  0  0  0  0  0999 V2000
    2.8593    4.5686    0.0000 C   0  0  0  0  0  0  0  0  0  0  0  0
    4.9083    4.0196    0.0000 C   0  0  0  0  0  0  0  0  0  0  0  0
    4.3593    1.9705    0.0000 C   0  0  0  0  0  0  0  0  0  0  0  0
   -3.4350    4.5686    0.0000 C   0  0  0  0  0  0  0  0  0  0  0  0
   -5.4840    4.0196    0.0000 C   0  0  0  0  0  0  0  0  0  0  0  0
   -4.9350    1.9705    0.0000 C   0  0  0  0  0  0  0  0  0  0  0  0
    1.0112    7.7696    0.0000 C   0  0  0  0  0  0  0  0  0  0  0  0
    2.3112    7.0196    0.0000 C   0  0  0  0  0  0  0  0  0  0  0  0
   -0.2888    7.0196    0.0000 C   0  0  0  0  0  0  0  0  0  0  0  0
    2.3112    5.5196    0.0000 C   0  0  0  0  0  0  0  0  0  0  0  0
   -0.2888    5.5196    0.0000 C   0  0  0  0  0  0  0  0  0  0  0  0
   -0.2879    2.5196    0.0000 C   0  0  0  0  0  0  0  0  0  0  0  0
    1.0112    4.7696    0.0000 C   0  0  0  0  0  0  0  0  0  0  0  0
    1.0112    3.2696    0.0000 C   0  0  0  0  0  0  0  0  0  0  0  0
   -1.5869    3.2696    0.0000 C   0  0  0  0  0  0  0  0  0  0  0  0
   -1.5869    4.7696    0.0000 O   0  0  0  0  0  0  0  0  0  0  0  0
    2.3102    2.5196    0.0000 O   0  0  0  0  0  0  0  0  0  0  0  0
   -2.8859    2.5196    0.0000 O   0  0  0  0  0  0  0  0  0  0  0  0
    3.6093    3.2696    0.0000 Si  0  0  0  0  0  4  0  0  0  0  0  0
   -4.1850    3.2696    0.0000 Si  0  0  0  0  0  4  0  0  0  0  0  0
  8  7  2  0
  9  7  1  0
 10  8  1  0
 11  9  2  0
 13 10  2  0
 13 11  1  0
 12 14  2  0
 14 13  1  0
 15 12  1  0
 16 15  2  0
 17 14  1  0
 18 15  1  0
 19  1  1  0
 19  2  1  0
 19  3  1  0
 19 17  1  0
 20  4  1  0
 20  5  1  0
 20  6  1  0
 20 18  1  0
M  END
>  <NAME>  (6842) 
BETA-(TRIMETHYLSILYL)OXY-CINNAMIC ACID TRIMETHYLSILYL ESTER

>  <SYNONYMS>  (6842) 
TRIMETHYLSILYL BETA-TRIMETHYLSILOXYCINNAMATE

>  <SPECTRUM TYPE>  (6842) 
MS1

>  <INSTRUMENT TYPE>  (6842) 
EI-B

>  <INSTRUMENT>  (6842) 
JEOL JMS-01-SG

>  <ION MODE>  (6842) 
P

>  <INCHIKEY>  (6842) 
KBQOSPPQSQZAEJ-WYMLVPIESA-N

>  <FORMULA>  (6842) 
C15H24O3Si2

>  <EXACT MASS>  (6842) 
308.126397688

>  <MW>  (6842) 
308

>  <ID>  (6842) 
JP001025

>  <CONTRIBUTOR>  (6842) 
University of Tokyo Team, {Faculty of Engineering, University of Tokyo

>  <COMMENT>  (6842) 
SMILES=O=C(O[Si](C)(C)C)C=C(O[Si](C)(C)C)c(c1)cccc1
InChI=InChI=1S/C15H24O3Si2/c1-19(2,3)17-14(13-10-8-7-9-11-13)12-15(16)18-20(4,5)6/h7-12H,1-6H3/b14-12+
computed SMILES=O=C(O[Si](C)(C)C)C=C(O[Si](C)(C)C)C=1C=CC=CC1
accession=JP001025
date=2016.01.19 (Created 2008.10.21, modified 2011.05.06)
license=CC BY-NC-SA
author=KOGA M, UNIV. OF OCCUPATIONAL AND ENVIRONMENTAL HEALTH
exact mass=308.1264
ionization energy=70 eV
ion type=[M]+*
computed spectral entropy=1.7107990731202793
computed normalized entropy=0.5918958585332742
SPLASH=splash10-0002-2920000000-a5852df4b73f535e5e16
submitter=submitter = University of Tokyo Team (Faculty of Engineering, University of Tokyo)
MoNA Rating=3.75

>  <NUM PEAKS>  (6842) 
18

>  <MASS SPECTRAL PEAKS>  (6842) 
45 7.9
73 26.2
74 2.1
75 0.16
77 1.3
90 2
118 2.1
131 0.21
133 2.1
147 99.99
148 18.5
149 0.81
237 1.9
265 1.9
293 29.2
294 0.71
295 3
308 2.1

$$$$

     RDKit          2D

 20 20  0  0  0  0  0  0  0  0999 V2000
    7.6878   -1.0100    0.0000 C   0  0  0  0  0  0  0  0  0  0  0  0
    8.2199    1.0435    0.0000 C   0  0  0  0  0  0  0  0  0  0  0  0
    6.1664    1.5756    0.0000 C   0  0  0  0  0  0  0  0  0  0  0  0
   -4.0149    3.8576    0.0000 C   0  0  0  0  0  0  0  0  0  0  0  0
   -6.0666    3.3187    0.0000 C   0  0  0  0  0  0  0  0  0  0  0  0
   -5.5277    1.2670    0.0000 C   0  0  0  0  0  0  0  0  0  0  0  0
    3.0191    2.5303    0.0000 C   0  0  0  0  0  0  0  0  0  0  0  0
    1.7056    0.3055    0.0000 C   0  0  0  0  0  0  0  0  0  0  0  0
    0.4248    2.5367    0.0000 C   0  0  0  0  0  0  0  0  0  0  0  0
    4.3037    1.8055    0.0000 C   0  0  0  0  0  0  0  0  0  0  0  0
    3.0301   -0.4887    0.0000 C   0  0  0  0  0  0  0  0  0  0  0  0
   -0.8779    1.7931    0.0000 C   0  0  0  0  0  0  0  0  0  0  0  0
    1.7201    1.7803    0.0000 C   0  0  0  0  0  0  0  0  0  0  0  0
    4.3291    0.2613    0.0000 C   0  0  0  0  0  0  0  0  0  0  0  0
   -2.1733    2.5495    0.0000 C   0  0  0  0  0  0  0  0  0  0  0  0
   -2.1659    4.0495    0.0000 O   0  0  0  0  0  0  0  0  0  0  0  0
    5.6343   -0.4779    0.0000 O   0  0  0  0  0  0  0  0  0  0  0  0
   -3.4760    1.8059    0.0000 O   0  0  0  0  0  0  0  0  0  0  0  0
    6.9271    0.2828    0.0000 Si  0  0  0  0  0  4  0  0  0  0  0  0
   -4.7713    2.5623    0.0000 Si  0  0  0  0  0  4  0  0  0  0  0  0
 10  7  2  0
 11  8  1  0
  9 12  2  0
 13  7  1  0
 13  8  2  0
 13  9  1  0
 14 10  1  0
 14 11  2  0
 15 12  1  0
 16 15  2  0
 17 14  1  0
 18 15  1  0
 19  1  1  0
 19  2  1  0
 19  3  1  0
 19 17  1  0
 20  4  1  0
 20  5  1  0
 20  6  1  0
 20 18  1  0
M  END
>  <NAME>  (6843) 
4-(TRIMETHYLSILYL)OXY-CINNAMIC ACID TRIMETHYLSILYL ESTER

>  <SYNONYMS>  (6843) 
TRIMETHYLSILYL 4-TRIMETHYLSILOXYCINNAMATE

>  <SPECTRUM TYPE>  (6843) 
MS1

>  <INSTRUMENT TYPE>  (6843) 
EI-B

>  <INSTRUMENT>  (6843) 
JEOL JMS-01-SG

>  <ION MODE>  (6843) 
P

>  <INCHIKEY>  (6843) 
RKLSIGFDXPECDB-FMIVXFBMSA-N

>  <FORMULA>  (6843) 
C15H24O3Si2

>  <EXACT MASS>  (6843) 
308.126397688

>  <MW>  (6843) 
308

>  <ID>  (6843) 
JP001024

>  <CONTRIBUTOR>  (6843) 
University of Tokyo Team, {Faculty of Engineering, University of Tokyo

>  <COMMENT>  (6843) 
SMILES=O=C(C=Cc(c1)ccc(c1)O[Si](C)(C)C)O[Si](C)(C)C
InChI=InChI=1S/C15H24O3Si2/c1-19(2,3)17-14-10-7-13(8-11-14)9-12-15(16)18-20(4,5)6/h7-12H,1-6H3/b12-9+
computed SMILES=O=C(O[Si](C)(C)C)C=CC1=CC=C(O[Si](C)(C)C)C=C1
accession=JP001024
date=2016.01.19 (Created 2008.10.21, modified 2011.05.06)
author=KOGA M, UNIV. OF OCCUPATIONAL AND ENVIRONMENTAL HEALTH
license=CC BY-NC-SA
exact mass=308.1264
ionization energy=70 eV
ion type=[M]+*
computed spectral entropy=2.525187598904858
computed normalized entropy=0.7750499622820594
SPLASH=splash10-00xv-3190000000-f6833b83d397a6498e3b
submitter=submitter = University of Tokyo Team (Faculty of Engineering, University of Tokyo)
MoNA Rating=3.75

>  <NUM PEAKS>  (6843) 
26

>  <MASS SPECTRAL PEAKS>  (6843) 
45 13.5
73 99.99
74 8.5
75 1.15
115 6
139 10.5
147 9.5
175 0.65
179 21.5
191 8
192 6.5
203 0.9
219 97
220 18.5
221 5.5
223 0.6
233 6.5
249 56
250 14
251 0.55
293 86
294 21
295 8
308 5.15
309 15
310 6

$$$$

     RDKit          2D

 19 18  0  0  0  0  0  0  0  0999 V2000
   -1.5834    3.3849    0.0000 C   0  0  0  0  0  0  0  0  0  0  0  0
   -0.0834    5.9829    0.0000 C   0  0  0  0  0  0  0  0  0  0  0  0
   -2.1325    5.4339    0.0000 C   0  0  0  0  0  0  0  0  0  0  0  0
   12.9070    3.3849    0.0000 C   0  0  0  0  0  0  0  0  0  0  0  0
   13.4560    5.4339    0.0000 C   0  0  0  0  0  0  0  0  0  0  0  0
   11.4070    5.9829    0.0000 C   0  0  0  0  0  0  0  0  0  0  0  0
    5.6618    3.9339    0.0000 C   0  0  0  0  0  0  0  0  0  0  0  0
    4.3627    4.6839    0.0000 C   0  0  0  0  0  0  0  0  0  0  0  0
    6.9608    4.6839    0.0000 C   0  0  0  0  0  0  0  0  0  0  0  0
    3.0637    3.9339    0.0000 C   0  0  0  0  0  0  0  0  0  0  0  0
    8.2599    3.9339    0.0000 C   0  0  0  0  0  0  0  0  0  0  0  0
    1.7647    4.6839    0.0000 C   0  0  0  0  0  0  0  0  0  0  0  0
    9.5589    4.6839    0.0000 C   0  0  0  0  0  0  0  0  0  0  0  0
    1.7647    6.1839    0.0000 O   0  0  0  0  0  0  0  0  0  0  0  0
    9.5589    6.1839    0.0000 O   0  0  0  0  0  0  0  0  0  0  0  0
    0.4656    3.9339    0.0000 O   0  0  0  0  0  0  0  0  0  0  0  0
   10.8579    3.9339    0.0000 O   0  0  0  0  0  0  0  0  0  0  0  0
   -0.8334    4.6839    0.0000 Si  0  0  0  0  0  4  0  0  0  0  0  0
   12.1570    4.6839    0.0000 Si  0  0  0  0  0  4  0  0  0  0  0  0
  8  7  1  0
  9  7  1  0
 10  8  1  0
 11  9  1  0
 12 10  1  0
 13 11  1  0
 14 12  2  0
 15 13  2  0
 16 12  1  0
 17 13  1  0
 18  1  1  0
 18  2  1  0
 18  3  1  0
 18 16  1  0
 19  4  1  0
 19  5  1  0
 19  6  1  0
 19 17  1  0
M  END
>  <NAME>  (6844) 
HEPTANEDIOIC ACID BIS(TRIMETHYLSILYL)ESTER

>  <SYNONYMS>  (6844) 
DI(TRIMETHYLSILYL) HEPTANEDIOATE

>  <SPECTRUM TYPE>  (6844) 
MS1

>  <INSTRUMENT TYPE>  (6844) 
EI-B

>  <INSTRUMENT>  (6844) 
JEOL JMS-01-SG

>  <ION MODE>  (6844) 
P

>  <INCHIKEY>  (6844) 
VOLKRTUGJXKFMI-UHFFFAOYSA-N

>  <FORMULA>  (6844) 
C13H28O4Si2

>  <EXACT MASS>  (6844) 
304.152612436

>  <MW>  (6844) 
304

>  <ID>  (6844) 
JP001023

>  <CONTRIBUTOR>  (6844) 
University of Tokyo Team, {Faculty of Engineering, University of Tokyo

>  <COMMENT>  (6844) 
SMILES=O=C(CCCCCC(=O)O[Si](C)(C)C)O[Si](C)(C)C
InChI=InChI=1S/C13H28O4Si2/c1-18(2,3)16-12(14)10-8-7-9-11-13(15)17-19(4,5)6/h7-11H2,1-6H3
computed SMILES=O=C(O[Si](C)(C)C)CCCCCC(=O)O[Si](C)(C)C
accession=JP001023
date=2016.01.19 (Created 2008.10.21, modified 2011.05.06)
author=KOGA M, UNIV. OF OCCUPATIONAL AND ENVIRONMENTAL HEALTH
license=CC BY-NC-SA
exact mass=304.15261
ionization energy=70 eV
ion type=[M]+*
computed spectral entropy=2.8233658307054723
computed normalized entropy=0.8384668212287167
SPLASH=splash10-05i1-7920000000-422ad7fdc670c6f5ffbf
submitter=submitter = University of Tokyo Team (Faculty of Engineering, University of Tokyo)
MoNA Rating=3.75

>  <NUM PEAKS>  (6844) 
29

>  <MASS SPECTRAL PEAKS>  (6844) 
43 9.8
45 11.7
55 28.4
69 2.39
73 99.99
74 11.9
75 73
81 1.17
83 9.1
97 23.9
116 9.4
117 2.08
125 63.1
129 19.1
147 57.3
148 1.11
149 20.6
155 82.9
156 13
157 1
171 11.7
173 37.3
186 14.2
199 1.21
204 10
217 21.6
289 47.8
290 1.11
291 4.9

$$$$

     RDKit          2D

 19 19  0  0  0  0  0  0  0  0999 V2000
   -2.7132   -5.1809    0.0000 C   0  0  0  0  0  0  0  0  0  0  0  0
   -0.6641    1.3690    0.0000 C   0  0  0  0  0  0  0  0  0  0  0  0
   -2.7132    0.8203    0.0000 C   0  0  0  0  0  0  0  0  0  0  0  0
   -2.1645   -1.2288    0.0000 C   0  0  0  0  0  0  0  0  0  0  0  0
    5.8310   -3.4800    0.0000 C   0  0  0  0  0  0  0  0  0  0  0  0
    6.3800   -1.4309    0.0000 C   0  0  0  0  0  0  0  0  0  0  0  0
    4.3310   -0.8819    0.0000 C   0  0  0  0  0  0  0  0  0  0  0  0
   -0.1147   -5.1818    0.0000 C   0  0  0  0  0  0  0  0  0  0  0  0
    1.1844   -4.4318    0.0000 C   0  0  0  0  0  0  0  0  0  0  0  0
   -1.4147   -2.9301    0.0000 C   0  0  0  0  0  0  0  0  0  0  0  0
   -1.4142   -4.4309    0.0000 C   0  0  0  0  0  0  0  0  0  0  0  0
    1.1839   -2.9309    0.0000 C   0  0  0  0  0  0  0  0  0  0  0  0
   -0.1156   -2.1801    0.0000 C   0  0  0  0  0  0  0  0  0  0  0  0
    2.4829   -2.1809    0.0000 C   0  0  0  0  0  0  0  0  0  0  0  0
    2.4829   -0.6809    0.0000 O   0  0  0  0  0  0  0  0  0  0  0  0
   -0.1154   -0.6801    0.0000 O   0  0  0  0  0  0  0  0  0  0  0  0
    3.7820   -2.9309    0.0000 O   0  0  0  0  0  0  0  0  0  0  0  0
   -1.4143    0.0701    0.0000 Si  0  0  0  0  0  4  0  0  0  0  0  0
    5.0810   -2.1809    0.0000 Si  0  0  0  0  0  4  0  0  0  0  0  0
  9  8  2  0
 11  1  1  0
 11  8  1  0
 11 10  2  0
 12  9  1  0
 13 10  1  0
 13 12  2  0
 14 12  1  0
 15 14  2  0
 16 13  1  0
 17 14  1  0
 18  2  1  0
 18  3  1  0
 18  4  1  0
 18 16  1  0
 19  5  1  0
 19  6  1  0
 19  7  1  0
 19 17  1  0
M  END
>  <NAME>  (6845) 
4-METHYL-2-(TRIMETHYLSILYL)OXYBENZOIC ACIDTRIMETHYLSILYL ESTER

>  <SYNONYMS>  (6845) 
TRIMETHYLSILYL 4-METHYL-2-TRIMETHYLSILOXYBENZOATE

>  <SPECTRUM TYPE>  (6845) 
MS1

>  <INSTRUMENT TYPE>  (6845) 
EI-B

>  <INSTRUMENT>  (6845) 
JEOL JMS-01-SG

>  <ION MODE>  (6845) 
P

>  <INCHIKEY>  (6845) 
WMMUZRDZZSRQEF-UHFFFAOYSA-N

>  <FORMULA>  (6845) 
C14H24O3Si2

>  <EXACT MASS>  (6845) 
296.126397688

>  <MW>  (6845) 
296

>  <ID>  (6845) 
JP001021

>  <CONTRIBUTOR>  (6845) 
University of Tokyo Team, {Faculty of Engineering, University of Tokyo

>  <COMMENT>  (6845) 
SMILES=Cc(c1)cc(O[Si](C)(C)C)c(c1)C(=O)O[Si](C)(C)C
InChI=InChI=1S/C14H24O3Si2/c1-11-8-9-12(14(15)17-19(5,6)7)13(10-11)16-18(2,3)4/h8-10H,1-7H3
computed SMILES=O=C(O[Si](C)(C)C)C1=CC=C(C=C1O[Si](C)(C)C)C
accession=JP001021
date=2016.01.19 (Created 2008.10.21, modified 2011.05.06)
author=KOGA M, UNIV. OF OCCUPATIONAL AND ENVIRONMENTAL HEALTH
license=CC BY-NC-SA
exact mass=296.1264
ionization energy=70 eV
ion type=[M]+*
computed spectral entropy=1.979910128060666
computed normalized entropy=0.7502338451849062
SPLASH=splash10-00di-9240000000-e9808a7e02b9fd39b4ba
submitter=submitter = University of Tokyo Team (Faculty of Engineering, University of Tokyo)
MoNA Rating=3.75

>  <NUM PEAKS>  (6845) 
14

>  <MASS SPECTRAL PEAKS>  (6845) 
43 5.6
73 99.99
74 8.3
75 1.27
77 5.9
105 7.8
133 6.7
147 0.54
149 20.2
207 15.1
223 13.5
281 8.56
282 21
283 8.6

$$$$

     RDKit          2D

 19 19  0  0  0  0  0  0  0  0999 V2000
   -6.3900   -1.4488    0.0000 C   0  0  0  0  0  0  0  0  0  0  0  0
   -4.4550    2.1400    0.0000 C   0  0  0  0  0  0  0  0  0  0  0  0
   -6.4858    1.5269    0.0000 C   0  0  0  0  0  0  0  0  0  0  0  0
   -5.8727   -0.5039    0.0000 C   0  0  0  0  0  0  0  0  0  0  0  0
    2.1921   -2.5481    0.0000 C   0  0  0  0  0  0  0  0  0  0  0  0
    2.7010   -0.4887    0.0000 C   0  0  0  0  0  0  0  0  0  0  0  0
    0.6416    0.0202    0.0000 C   0  0  0  0  0  0  0  0  0  0  0  0
   -3.7548   -4.3500    0.0000 C   0  0  0  0  0  0  0  0  0  0  0  0
   -5.0448   -3.6500    0.0000 C   0  0  0  0  0  0  0  0  0  0  0  0
   -2.4648   -3.6100    0.0000 C   0  0  0  0  0  0  0  0  0  0  0  0
   -5.0748   -2.1700    0.0000 C   0  0  0  0  0  0  0  0  0  0  0  0
   -2.4648   -2.0900    0.0000 C   0  0  0  0  0  0  0  0  0  0  0  0
   -3.7948   -1.3900    0.0000 C   0  0  0  0  0  0  0  0  0  0  0  0
   -1.1807   -1.3148    0.0000 C   0  0  0  0  0  0  0  0  0  0  0  0
   -1.2100    0.1849    0.0000 O   0  0  0  0  0  0  0  0  0  0  0  0
   -3.8419    0.1092    0.0000 O   0  0  0  0  0  0  0  0  0  0  0  0
    0.1327   -2.0392    0.0000 O   0  0  0  0  0  0  0  0  0  0  0  0
   -5.1639    0.8181    0.0000 Si  0  0  0  0  0  4  0  0  0  0  0  0
    1.4169   -1.2640    0.0000 Si  0  0  0  0  0  4  0  0  0  0  0  0
  9  8  2  0
 10  8  1  0
 11  1  1  0
 11  9  1  0
 12 10  2  0
 13 11  2  0
 13 12  1  0
 14 12  1  0
 15 14  2  0
 16 13  1  0
 17 14  1  0
 18  2  1  0
 18  3  1  0
 18  4  1  0
 18 16  1  0
 19  5  1  0
 19  6  1  0
 19  7  1  0
 19 17  1  0
M  END
>  <NAME>  (6846) 
3-METHYL-2-(TRIMETHYLSILYL)OXYBENZOIC ACIDTRIMETHYLSILYL ESTER

>  <SYNONYMS>  (6846) 
TRIMETHYLSILYL 3-METHYL-2-TRIMETHYLSILOXYBENZOATE

>  <SPECTRUM TYPE>  (6846) 
MS1

>  <INSTRUMENT TYPE>  (6846) 
EI-B

>  <INSTRUMENT>  (6846) 
JEOL JMS-01-SG

>  <ION MODE>  (6846) 
P

>  <INCHIKEY>  (6846) 
MMUCIJOPDDWEJV-UHFFFAOYSA-N

>  <FORMULA>  (6846) 
C14H24O3Si2

>  <EXACT MASS>  (6846) 
296.126397688

>  <MW>  (6846) 
296

>  <ID>  (6846) 
JP001020

>  <CONTRIBUTOR>  (6846) 
University of Tokyo Team, {Faculty of Engineering, University of Tokyo

>  <COMMENT>  (6846) 
SMILES=Cc(c1)c(O[Si](C)(C)C)c(cc1)C(=O)O[Si](C)(C)C
InChI=InChI=1S/C14H24O3Si2/c1-11-9-8-10-12(13(11)16-18(2,3)4)14(15)17-19(5,6)7/h8-10H,1-7H3
computed SMILES=O=C(O[Si](C)(C)C)C1=CC=CC(=C1O[Si](C)(C)C)C
accession=JP001020
date=2016.01.19 (Created 2008.10.21, modified 2011.05.06)
author=KOGA M, UNIV. OF OCCUPATIONAL AND ENVIRONMENTAL HEALTH
license=CC BY-NC-SA
exact mass=296.1264
ionization energy=70 eV
ion type=[M]+*
computed spectral entropy=2.4379481902537914
computed normalized entropy=0.7316322220947977
SPLASH=splash10-00ea-9350000000-7615202b99b602f70ddb
submitter=submitter = University of Tokyo Team (Faculty of Engineering, University of Tokyo)
MoNA Rating=3.75

>  <NUM PEAKS>  (6846) 
28

>  <MASS SPECTRAL PEAKS>  (6846) 
43 3.7
45 19
47 5
51 0.31
59 3.1
73 99.99
74 8.2
75 1.13
77 10
78 3.1
79 2.6
91 0.37
105 7.1
106 3.1
133 5
134 0.34
135 2.9
147 10.8
149 24.6
150 0.34
193 3.1
207 4.2
208 12.1
209 0.31
223 7.6
281 56.8
282 13.7
283 5.8

$$$$

     RDKit          2D

 19 19  0  0  0  0  0  0  0  0999 V2000
   -0.9106    6.5443    0.0000 C   0  0  0  0  0  0  0  0  0  0  0  0
   -2.9596    5.9952    0.0000 C   0  0  0  0  0  0  0  0  0  0  0  0
   -2.4106    3.9462    0.0000 C   0  0  0  0  0  0  0  0  0  0  0  0
   -5.0087    3.5443    0.0000 C   0  0  0  0  0  0  0  0  0  0  0  0
   -5.5577    1.4952    0.0000 C   0  0  0  0  0  0  0  0  0  0  0  0
   -3.5087    0.9462    0.0000 C   0  0  0  0  0  0  0  0  0  0  0  0
    3.5356    0.7452    0.0000 C   0  0  0  0  0  0  0  0  0  0  0  0
    3.5361    2.2461    0.0000 C   0  0  0  0  0  0  0  0  0  0  0  0
    2.2361   -0.0056    0.0000 C   0  0  0  0  0  0  0  0  0  0  0  0
    2.2370    2.9961    0.0000 C   0  0  0  0  0  0  0  0  0  0  0  0
    0.9370    0.7444    0.0000 C   0  0  0  0  0  0  0  0  0  0  0  0
    0.9375    2.2452    0.0000 C   0  0  0  0  0  0  0  0  0  0  0  0
   -0.3615    2.9952    0.0000 C   0  0  0  0  0  0  0  0  0  0  0  0
   -1.6606    2.2452    0.0000 C   0  0  0  0  0  0  0  0  0  0  0  0
   -1.6606    0.7452    0.0000 O   0  0  0  0  0  0  0  0  0  0  0  0
   -0.3615    4.4952    0.0000 O   0  0  0  0  0  0  0  0  0  0  0  0
   -2.9596    2.9952    0.0000 O   0  0  0  0  0  0  0  0  0  0  0  0
   -1.6606    5.2452    0.0000 Si  0  0  0  0  0  4  0  0  0  0  0  0
   -4.2587    2.2452    0.0000 Si  0  0  0  0  0  4  0  0  0  0  0  0
  8  7  2  0
  9  7  1  0
 10  8  1  0
 11  9  2  0
 12 10  2  0
 12 11  1  0
 13 12  1  0
 14 13  1  0
 15 14  2  0
 16 13  1  0
 17 14  1  0
 18  1  1  0
 18  2  1  0
 18  3  1  0
 18 16  1  0
 19  4  1  0
 19  5  1  0
 19  6  1  0
 19 17  1  0
M  END
>  <NAME>  (6847) 
ALPHA-(TRIMETHYLSILYL)OXY-PHENYLACETIC ACID TRIMETHYLSILYL ESTER

>  <SYNONYMS>  (6847) 
TRIMETHYLSILYL ALPHA-PHENYL-ALPHA-TRIMETHYLSILOXYACETATE

>  <SPECTRUM TYPE>  (6847) 
MS1

>  <INSTRUMENT TYPE>  (6847) 
EI-B

>  <INSTRUMENT>  (6847) 
JEOL JMS-01-SG

>  <ION MODE>  (6847) 
P

>  <INCHIKEY>  (6847) 
QGQNCTUAZAEYNK-UHFFFAOYSA-N

>  <FORMULA>  (6847) 
C14H24O3Si2

>  <EXACT MASS>  (6847) 
296.126397688

>  <MW>  (6847) 
296

>  <ID>  (6847) 
JP001019

>  <CONTRIBUTOR>  (6847) 
University of Tokyo Team, {Faculty of Engineering, University of Tokyo

>  <COMMENT>  (6847) 
SMILES=c(c1)ccc(c1)C(O[Si](C)(C)C)C(=O)O[Si](C)(C)C
InChI=InChI=1S/C14H24O3Si2/c1-18(2,3)16-13(12-10-8-7-9-11-12)14(15)17-19(4,5)6/h7-11,13H,1-6H3
computed SMILES=O=C(O[Si](C)(C)C)C(O[Si](C)(C)C)C=1C=CC=CC1
accession=JP001019
license=CC BY-NC-SA
date=2016.01.19 (Created 2008.10.21, modified 2011.05.06)
author=KOGA M, UNIV. OF OCCUPATIONAL AND ENVIRONMENTAL HEALTH
exact mass=296.1264
ionization energy=70 eV
ion type=[M]+*
computed spectral entropy=1.6875574556115958
computed normalized entropy=0.6579301266523746
SPLASH=splash10-00b9-9700000000-3cb0740842e9dae2707d
submitter=submitter = University of Tokyo Team (Faculty of Engineering, University of Tokyo)
MoNA Rating=3.75

>  <NUM PEAKS>  (6847) 
13

>  <MASS SPECTRAL PEAKS>  (6847) 
44 4.4
45 12.9
73 99.99
74 0.96
75 14.1
77 8.7
105 5.6
147 3.58
148 5.4
149 5.6
179 91.2
180 1.93
253 8

$$$$

     RDKit          2D

 18 19  0  0  0  0  0  0  0  0999 V2000
    4.5281    4.4310    0.0000 C   0  0  0  0  0  0  0  0  0  0  0  0
    5.0771    6.4800    0.0000 C   0  0  0  0  0  0  0  0  0  0  0  0
    3.0281    7.0290    0.0000 C   0  0  0  0  0  0  0  0  0  0  0  0
   -2.7200   -1.0200    0.0000 C   0  0  0  0  0  0  0  0  0  0  0  0
   -2.7200    0.4800    0.0000 C   0  0  0  0  0  0  0  0  0  0  0  0
    2.4800   -1.0200    0.0000 C   0  0  0  0  0  0  0  0  0  0  0  0
   -1.4200   -1.7700    0.0000 C   0  0  0  0  0  0  0  0  0  0  0  0
    1.1800   -1.7700    0.0000 C   0  0  0  0  0  0  0  0  0  0  0  0
    2.4800    0.4800    0.0000 C   0  0  0  0  0  0  0  0  0  0  0  0
   -1.4200    1.2300    0.0000 C   0  0  0  0  0  0  0  0  0  0  0  0
    1.1800    2.7300    0.0000 C   0  0  0  0  0  0  0  0  0  0  0  0
   -0.1200   -1.0200    0.0000 C   0  0  0  0  0  0  0  0  0  0  0  0
    1.1800    1.2300    0.0000 C   0  0  0  0  0  0  0  0  0  0  0  0
   -0.1200    0.4800    0.0000 C   0  0  0  0  0  0  0  0  0  0  0  0
    2.4790    3.4800    0.0000 C   0  0  0  0  0  0  0  0  0  0  0  0
    3.7781    2.7300    0.0000 O   0  0  0  0  0  0  0  0  0  0  0  0
    2.4790    4.9800    0.0000 O   0  0  0  0  0  0  0  0  0  0  0  0
    3.7781    5.7300    0.0000 Si  0  0  0  0  0  4  0  0  0  0  0  0
  5  4  2  0
  7  4  1  0
  8  6  2  0
  9  6  1  0
 10  5  1  0
 12  7  2  0
 12  8  1  0
 13  9  2  0
 13 11  1  0
 14 10  2  0
 14 12  1  0
 14 13  1  0
 15 11  1  0
 16 15  2  0
 17 15  1  0
 18  1  1  0
 18  2  1  0
 18  3  1  0
 18 17  1  0
M  END
>  <NAME>  (6848) 
ALPHA-NAPHTHALENEACETIC ACID TRIMETHYLSILYL ESTER

>  <SYNONYMS>  (6848) 
TRIMETHYLSILYL ALPHA-NAPHTHALENEACETATE

>  <SPECTRUM TYPE>  (6848) 
MS1

>  <INSTRUMENT TYPE>  (6848) 
EI-B

>  <INSTRUMENT>  (6848) 
JEOL JMS-01-SG

>  <ION MODE>  (6848) 
P

>  <INCHIKEY>  (6848) 
FUAQQDROLSPOHA-UHFFFAOYSA-N

>  <FORMULA>  (6848) 
C15H18O2Si

>  <EXACT MASS>  (6848) 
258.107606346

>  <MW>  (6848) 
258

>  <ID>  (6848) 
JP001018

>  <CONTRIBUTOR>  (6848) 
University of Tokyo Team, {Faculty of Engineering, University of Tokyo

>  <COMMENT>  (6848) 
SMILES=O=C(O[Si](C)(C)C)Cc(c1)c(c2)c(ccc2)cc1
InChI=InChI=1S/C15H18O2Si/c1-18(2,3)17-15(16)11-13-9-6-8-12-7-4-5-10-14(12)13/h4-10H,11H2,1-3H3
computed SMILES=O=C(O[Si](C)(C)C)CC1=CC=CC=2C=CC=CC21
accession=JP001018
date=2016.01.19 (Created 2008.10.21, modified 2011.05.06)
author=KOGA M, UNIV. OF OCCUPATIONAL AND ENVIRONMENTAL HEALTH
license=CC BY-NC-SA
exact mass=258.10761
ionization energy=70 eV
ion type=[M]+*
computed spectral entropy=1.5184891641242972
computed normalized entropy=0.6110849935766589
SPLASH=splash10-00di-9010000000-187459ff1d4b9d9432a2
submitter=submitter = University of Tokyo Team (Faculty of Engineering, University of Tokyo)
MoNA Rating=3.75

>  <NUM PEAKS>  (6848) 
12

>  <MASS SPECTRAL PEAKS>  (6848) 
45 6.2
73 99.99
74 9.7
75 2.11
77 5.1
115 8.6
139 4
141 1.02
214 9.7
243 5.4
258 8.1
259 1.8

$$$$

     RDKit          2D

  9  8  0  0  0  0  0  0  0  0999 V2000
    2.5981    4.5000    0.0000 C   0  0  0  0  0  0  0  0  0  0  0  0
   -7.7942    4.5000    0.0000 C   0  0  0  0  0  0  0  0  0  0  0  0
    0.0000    4.5000    0.0000 C   0  0  0  0  0  0  0  0  0  0  0  0
   -5.1962    4.5000    0.0000 C   0  0  0  0  0  0  0  0  0  0  0  0
   -1.2990    5.2500    0.0000 C   0  0  0  0  0  0  0  0  0  0  0  0
   -3.8971    5.2500    0.0000 C   0  0  0  0  0  0  0  0  0  0  0  0
    1.2990    5.2500    0.0000 O   0  0  0  0  0  0  0  0  0  0  0  0
   -6.4952    5.2500    0.0000 O   0  0  0  0  0  0  0  0  0  0  0  0
   -2.5981    4.5000    0.0000 O   0  0  0  0  0  0  0  0  0  0  0  0
  5  3  1  0
  6  4  1  0
  7  1  1  0
  7  3  1  0
  8  2  1  0
  8  4  1  0
  9  5  1  0
  9  6  1  0
M  END
>  <NAME>  (6849) 
DIETHYLENE GLYCOL DIMETHYL ETHER

>  <SYNONYMS>  (6849) 
BIS(2-METHOXYETHYL) ETHER

>  <SPECTRUM TYPE>  (6849) 
MS1

>  <INSTRUMENT TYPE>  (6849) 
EI-B

>  <INSTRUMENT>  (6849) 
HITACHI RMU-7M

>  <ION MODE>  (6849) 
P

>  <INCHIKEY>  (6849) 
SBZXBUIDTXKZTM-UHFFFAOYSA-N

>  <FORMULA>  (6849) 
C6H14O3

>  <EXACT MASS>  (6849) 
134.09429430799997

>  <MW>  (6849) 
134

>  <ID>  (6849) 
JP001017

>  <CONTRIBUTOR>  (6849) 
University of Tokyo Team, {Faculty of Engineering, University of Tokyo

>  <COMMENT>  (6849) 
SMILES=COCCOCCOC
InChI=InChI=1S/C6H14O3/c1-7-3-5-9-6-4-8-2/h3-6H2,1-2H3
computed SMILES=O(C)CCOCCOC
accession=JP001017
date=2016.01.19 (Created 2008.10.21, modified 2011.05.06)
author=TAJIMA S, GUNMA COLLEGE OF TECHNOLOGY
license=CC BY-NC-SA
exact mass=134.09429
ionization energy=70 eV
ion type=[M]+*
computed spectral entropy=1.9895796120054612
computed normalized entropy=0.753897836806568
SPLASH=splash10-0a4i-9000000000-4aa5ed54afd7d61b42e3
submitter=submitter = University of Tokyo Team (Faculty of Engineering, University of Tokyo)
MoNA Rating=3.75

>  <NUM PEAKS>  (6849) 
14

>  <MASS SPECTRAL PEAKS>  (6849) 
15 10.12
27 3.12
28 2.47
29 27.25
31 29.72
41 1.71
43 8.24
45 28.25
58 40.32
59 99.99
60 3.35
87 1.71
89 19.54
90 0.88

$$$$

     RDKit          2D

  9  8  0  0  0  0  0  0  0  0999 V2000
    2.5981    4.5000    0.0000 C   0  0  0  0  0  0  0  0  0  0  0  0
   -7.7942    4.5000    0.0000 C   0  0  0  0  0  0  0  0  0  0  0  0
    0.0000    4.5000    0.0000 C   0  0  0  0  0  0  0  0  0  0  0  0
   -5.1962    4.5000    0.0000 C   0  0  0  0  0  0  0  0  0  0  0  0
   -1.2990    5.2500    0.0000 C   0  0  0  0  0  0  0  0  0  0  0  0
   -3.8971    5.2500    0.0000 C   0  0  0  0  0  0  0  0  0  0  0  0
    1.2990    5.2500    0.0000 O   0  0  0  0  0  0  0  0  0  0  0  0
   -6.4952    5.2500    0.0000 O   0  0  0  0  0  0  0  0  0  0  0  0
   -2.5981    4.5000    0.0000 O   0  0  0  0  0  0  0  0  0  0  0  0
  5  3  1  0
  6  4  1  0
  7  1  1  0
  7  3  1  0
  8  2  1  0
  8  4  1  0
  9  5  1  0
  9  6  1  0
M  END
>  <NAME>  (6850) 
DIETHYLENE GLYCOL DIMETHYL ETHER

>  <SYNONYMS>  (6850) 
BIS(2-METHOXYETHYL) ETHER

>  <SPECTRUM TYPE>  (6850) 
MS1

>  <INSTRUMENT TYPE>  (6850) 
EI-B

>  <INSTRUMENT>  (6850) 
HITACHI RMU-7M

>  <ION MODE>  (6850) 
P

>  <INCHIKEY>  (6850) 
SBZXBUIDTXKZTM-UHFFFAOYSA-N

>  <FORMULA>  (6850) 
C6H14O3

>  <EXACT MASS>  (6850) 
134.094294308

>  <MW>  (6850) 
134

>  <ID>  (6850) 
JP001016

>  <CONTRIBUTOR>  (6850) 
University of Tokyo Team, {Faculty of Engineering, University of Tokyo

>  <COMMENT>  (6850) 
SMILES=COCCOCCOC
InChI=InChI=1S/C6H14O3/c1-7-3-5-9-6-4-8-2/h3-6H2,1-2H3
computed SMILES=O(C)CCOCCOC
computed spectral entropy=1.9895796120054612
accession=JP001016
date=2016.01.19 (Created 2008.10.21, modified 2011.05.06)
author=TAJIMA S, GUNMA COLLEGE OF TECHNOLOGY
license=CC BY-NC-SA
exact mass=134.09429
ionization energy=70 eV
ion type=[M]+*
computed normalized entropy=0.753897836806568
SPLASH=splash10-0a4i-9000000000-4aa5ed54afd7d61b42e3
submitter=submitter = University of Tokyo Team (Faculty of Engineering, University of Tokyo)
MoNA Rating=3.75

>  <NUM PEAKS>  (6850) 
14

>  <MASS SPECTRAL PEAKS>  (6850) 
15 10.12
27 3.12
28 2.47
29 27.25
31 29.72
41 1.71
43 8.24
45 28.25
58 40.32
59 99.99
60 3.35
87 1.71
89 19.54
90 0.88

$$$$

     RDKit          2D

  6  5  0  0  0  0  0  0  0  0999 V2000
   -1.2990    1.5000    0.0000 C   0  0  0  0  0  0  0  0  0  0  0  0
    0.0000    3.7500    0.0000 C   0  0  0  0  0  0  0  0  0  0  0  0
    0.0000    2.2500    0.0000 C   0  0  0  0  0  0  0  0  0  0  0  0
    1.2990    1.5000    0.0000 C   0  0  0  0  0  0  0  0  0  0  0  0
    2.5981    2.2500    0.0000 Cl  0  0  0  0  0  0  0  0  0  0  0  0
    1.2990   -0.0000    0.0000 O   0  0  0  0  0  0  0  0  0  0  0  0
  3  1  2  0
  3  2  1  0
  4  3  1  0
  5  4  1  0
  6  4  2  0
M  END
>  <NAME>  (6851) 
METHACRYLOYL CHLORIDE

>  <SYNONYMS>  (6851) 


>  <SPECTRUM TYPE>  (6851) 
MS1

>  <INSTRUMENT TYPE>  (6851) 
EI-B

>  <INSTRUMENT>  (6851) 
HITACHI RMU-7M

>  <ION MODE>  (6851) 
P

>  <INCHIKEY>  (6851) 
VHRYZQNGTZXDNX-UHFFFAOYSA-N

>  <FORMULA>  (6851) 
C4H5ClO

>  <EXACT MASS>  (6851) 
104.00289246

>  <MW>  (6851) 
104

>  <ID>  (6851) 
JP001015

>  <CONTRIBUTOR>  (6851) 
University of Tokyo Team, {Faculty of Engineering, University of Tokyo

>  <COMMENT>  (6851) 
SMILES=CC(=C)C(=O)Cl
InChI=InChI=1S/C4H5ClO/c1-3(2)4(5)6/h1H2,2H3
computed SMILES=O=C(Cl)C(=C)C
accession=JP001015
date=2016.01.19 (Created 2008.10.21, modified 2011.05.06)
author=TAJIMA S, GUNMA COLLEGE OF TECHNOLOGY
license=CC BY-NC-SA
exact mass=104.00289
ionization energy=70 eV
ion type=[M]+*
computed spectral entropy=2.176409389327633
computed normalized entropy=0.6680002768270591
SPLASH=splash10-014u-9000000000-86d3bce1beb00dfb7e7d
submitter=submitter = University of Tokyo Team (Faculty of Engineering, University of Tokyo)
MoNA Rating=3.75

>  <NUM PEAKS>  (6851) 
26

>  <MASS SPECTRAL PEAKS>  (6851) 
15 2.46
26 4.73
27 4.67
35 2.21
36 3.34
37 7.69
38 11.6
39 58.64
40 9.02
41 76.04
42 3.34
43 3.97
49 1.77
50 1.26
51 1.39
53 3.4
55 1.26
63 3.66
69 99.99
70 4.35
76 7.69
77 3.47
78 2.52
79 1.77
81 2.59
89 1.2

$$$$

     RDKit          2D

 12 12  0  0  0  0  0  0  0  0999 V2000
   -6.4962   -0.7508    0.0000 C   0  0  0  0  0  0  0  0  0  0  0  0
   -5.1970   -1.5006    0.0000 C   0  0  0  0  0  0  0  0  0  0  0  0
   -1.3000    0.7500    0.0000 C   0  0  0  0  0  0  0  0  0  0  0  0
   -0.0000   -1.5000    0.0000 C   0  0  0  0  0  0  0  0  0  0  0  0
    0.0000    1.5000    0.0000 C   0  0  0  0  0  0  0  0  0  0  0  0
    1.3000   -0.7500    0.0000 C   0  0  0  0  0  0  0  0  0  0  0  0
   -1.3000   -0.7500    0.0000 C   0  0  0  0  0  0  0  0  0  0  0  0
    1.3000    0.7500    0.0000 C   0  0  0  0  0  0  0  0  0  0  0  0
   -2.5989   -1.5002    0.0000 C   0  0  0  0  0  0  0  0  0  0  0  0
    2.5989    1.5002    0.0000 I   0  0  0  0  0  0  0  0  0  0  0  0
   -2.5987   -3.0002    0.0000 O   0  0  0  0  0  0  0  0  0  0  0  0
   -3.8981   -0.7504    0.0000 O   0  0  0  0  0  0  0  0  0  0  0  0
  2  1  1  0
  5  3  2  0
  6  4  1  0
  7  3  1  0
  7  4  2  0
  8  5  1  0
  8  6  2  0
  9  7  1  0
 10  8  1  0
 11  9  2  0
 12  2  1  0
 12  9  1  0
M  END
>  <NAME>  (6852) 
PARA-IODOBENZOIC ACID ETHYL ESTER

>  <SYNONYMS>  (6852) 
ETHYL PARA-IODOBENZOATE

>  <SPECTRUM TYPE>  (6852) 
MS1

>  <INSTRUMENT TYPE>  (6852) 
EI-B

>  <INSTRUMENT>  (6852) 
HITACHI RMU-7M

>  <ION MODE>  (6852) 
P

>  <INCHIKEY>  (6852) 
YCBJOQUNPLTBGG-UHFFFAOYSA-N

>  <FORMULA>  (6852) 
C9H9IO2

>  <EXACT MASS>  (6852) 
275.96472752799997

>  <MW>  (6852) 
276

>  <ID>  (6852) 
JP001014

>  <CONTRIBUTOR>  (6852) 
University of Tokyo Team, {Faculty of Engineering, University of Tokyo

>  <COMMENT>  (6852) 
SMILES=CCOC(=O)c(c1)ccc(I)c1
InChI=InChI=1S/C9H9IO2/c1-2-12-9(11)7-3-5-8(10)6-4-7/h3-6H,2H2,1H3
computed SMILES=O=C(OCC)C1=CC=C(I)C=C1
ion type=[M]+*
accession=JP001014
date=2016.01.19 (Created 2008.10.21, modified 2011.05.06)
author=TAJIMA S, GUNMA COLLEGE OF TECHNOLOGY
license=CC BY-NC-SA
exact mass=275.96472
ionization energy=70 eV
computed spectral entropy=2.6269974474873883
computed normalized entropy=0.7801504768584412
SPLASH=splash10-0fai-5190000000-b7b7daf8876009dafbf8
submitter=submitter = University of Tokyo Team (Faculty of Engineering, University of Tokyo)
MoNA Rating=3.75

>  <NUM PEAKS>  (6852) 
29

>  <MASS SPECTRAL PEAKS>  (6852) 
27 6.09
28 1
29 10.34
38 1.72
39 1.72
45 4.02
50 27.52
51 4.02
65 7.41
73 1.72
74 10.63
75 11.38
76 45.29
77 5.46
103 3.45
104 10.57
105 2.3
121 2.93
127 1.95
128 1.61
149 5.63
203 22.07
204 1.67
231 99.99
232 11.49
248 38.79
249 2.82
276 40.4
277 3.97

$$$$

     RDKit          2D

  2  1  0  0  0  0  0  0  0  0999 V2000
    0.0000    0.0000    0.0000 C   0  0  0  0  0  0  0  0  0  0  0  0
    1.5000    0.0000    0.0000 I   0  0  0  0  0  0  0  0  0  0  0  0
  2  1  1  0
M  END
>  <NAME>  (6853) 
IODO METHANE

>  <SYNONYMS>  (6853) 
METHYL IODIDE

>  <SPECTRUM TYPE>  (6853) 
MS1

>  <INSTRUMENT TYPE>  (6853) 
EI-B

>  <INSTRUMENT>  (6853) 
HITACHI RMU-7M

>  <ION MODE>  (6853) 
P

>  <INCHIKEY>  (6853) 
INQOMBQAUSQDDS-UHFFFAOYSA-N

>  <FORMULA>  (6853) 
CH3I

>  <EXACT MASS>  (6853) 
141.927948096

>  <MW>  (6853) 
142

>  <ID>  (6853) 
JP001013

>  <CONTRIBUTOR>  (6853) 
University of Tokyo Team, {Faculty of Engineering, University of Tokyo

>  <COMMENT>  (6853) 
SMILES=CI
InChI=InChI=1S/CH3I/c1-2/h1H3
computed SMILES=IC
accession=JP001013
date=2016.01.19 (Created 2008.10.21, modified 2011.05.06)
author=TAJIMA S, GUNMA COLLEGE OF TECHNOLOGY
license=CC BY-NC-SA
exact mass=141.92794
ionization energy=70 eV
ion type=[M]+*
computed spectral entropy=1.0275838692129733
computed normalized entropy=0.5280736470344417
SPLASH=splash10-0006-0900000000-eac8542af718ba7aecfe
submitter=submitter = University of Tokyo Team (Faculty of Engineering, University of Tokyo)
MoNA Rating=3.75

>  <NUM PEAKS>  (6853) 
7

>  <MASS SPECTRAL PEAKS>  (6853) 
127 18.41
128 2.5
139 3.43
140 3.31
141 13.86
142 99.99
143 1.19

$$$$

     RDKit          2D

 18 18  0  0  0  0  0  0  0  0999 V2000
   -2.9381    6.9356    0.0000 C   0  0  0  0  0  0  0  0  0  0  0  0
    7.4651    0.9410    0.0000 C   0  0  0  0  0  0  0  0  0  0  0  0
   -2.9356    5.4356    0.0000 C   0  0  0  0  0  0  0  0  0  0  0  0
    6.1662    0.1908    0.0000 C   0  0  0  0  0  0  0  0  0  0  0  0
   -1.6200   -1.3100    0.0000 C   0  0  0  0  0  0  0  0  0  0  0  0
   -0.3300   -2.0600    0.0000 C   0  0  0  0  0  0  0  0  0  0  0  0
   -1.6200    0.1900    0.0000 C   0  0  0  0  0  0  0  0  0  0  0  0
    0.9700   -1.3100    0.0000 C   0  0  0  0  0  0  0  0  0  0  0  0
   -1.6353    4.6878    0.0000 C   0  0  0  0  0  0  0  0  0  0  0  0
    4.8670    0.9406    0.0000 C   0  0  0  0  0  0  0  0  0  0  0  0
   -0.3300    0.9400    0.0000 C   0  0  0  0  0  0  0  0  0  0  0  0
    0.9700    0.1900    0.0000 C   0  0  0  0  0  0  0  0  0  0  0  0
   -0.3325    2.4400    0.0000 C   0  0  0  0  0  0  0  0  0  0  0  0
    2.2689    0.9402    0.0000 C   0  0  0  0  0  0  0  0  0  0  0  0
    0.9653    3.1922    0.0000 O   0  0  0  0  0  0  0  0  0  0  0  0
    2.2687    2.4402    0.0000 O   0  0  0  0  0  0  0  0  0  0  0  0
   -1.6328    3.1878    0.0000 O   0  0  0  0  0  0  0  0  0  0  0  0
    3.5681    0.1904    0.0000 O   0  0  0  0  0  0  0  0  0  0  0  0
  3  1  1  0
  4  2  1  0
  6  5  2  0
  7  5  1  0
  8  6  1  0
  9  3  1  0
 10  4  1  0
 11  7  2  0
 12  8  2  0
 12 11  1  0
 13 11  1  0
 14 12  1  0
 15 13  2  0
 16 14  2  0
 17  9  1  0
 17 13  1  0
 18 10  1  0
 18 14  1  0
M  END
>  <NAME>  (6854) 
PHTHALIC ACID DIPROPYL ESTER

>  <SYNONYMS>  (6854) 
DIPROPYL PHTHALATE

>  <SPECTRUM TYPE>  (6854) 
MS1

>  <INSTRUMENT TYPE>  (6854) 
EI-B

>  <INSTRUMENT>  (6854) 
HITACHI RMU-7M

>  <ION MODE>  (6854) 
P

>  <INCHIKEY>  (6854) 
MQHNKCZKNAJROC-UHFFFAOYSA-N

>  <FORMULA>  (6854) 
C14H18O4

>  <EXACT MASS>  (6854) 
250.120509056

>  <MW>  (6854) 
250

>  <ID>  (6854) 
JP001012

>  <CONTRIBUTOR>  (6854) 
University of Tokyo Team, {Faculty of Engineering, University of Tokyo

>  <COMMENT>  (6854) 
SMILES=CCCOC(=O)c(c1)c(ccc1)C(=O)OCCC
InChI=InChI=1S/C14H18O4/c1-3-9-17-13(15)11-7-5-6-8-12(11)14(16)18-10-4-2/h5-8H,3-4,9-10H2,1-2H3
computed SMILES=O=C(OCCC)C=1C=CC=CC1C(=O)OCCC
accession=JP001012
date=2016.01.19 (Created 2008.10.21, modified 2011.05.06)
license=CC BY-NC-SA
author=TAJIMA S, GUNMA COLLEGE OF TECHNOLOGY
exact mass=250.12051
ionization energy=70 eV
ion type=[M]+*
computed spectral entropy=1.8883302857270938
computed normalized entropy=0.6022432687433676
SPLASH=splash10-0002-2900000000-bf0ca540c11ac034703b
submitter=submitter = University of Tokyo Team (Faculty of Engineering, University of Tokyo)
MoNA Rating=3.75

>  <NUM PEAKS>  (6854) 
23

>  <MASS SPECTRAL PEAKS>  (6854) 
27 3.39
29 1.29
31 1.54
39 1.85
41 5.73
42 1.91
43 9.25
50 1.23
65 2.77
76 3.02
77 1.85
93 3.33
104 3.08
105 4.07
121 2.96
122 2.16
123 1.23
149 99.99
150 8.82
151 1.11
191 6.23
192 1
209 4.5

$$$$

     RDKit          2D

  8  7  0  0  0  0  0  0  0  0999 V2000
    1.9486    2.6250    0.0000 C   0  0  0  0  0  0  0  0  0  0  0  0
   -4.5466    3.3750    0.0000 C   0  0  0  0  0  0  0  0  0  0  0  0
   -0.6495    2.6250    0.0000 C   0  0  0  0  0  0  0  0  0  0  0  0
   -1.9486    3.3750    0.0000 C   0  0  0  0  0  0  0  0  0  0  0  0
   -0.6495    1.1250    0.0000 O   0  0  0  0  0  0  0  0  0  0  0  0
   -1.9486    4.8750    0.0000 O   0  0  0  0  0  0  0  0  0  0  0  0
    0.6495    3.3750    0.0000 O   0  0  0  0  0  0  0  0  0  0  0  0
   -3.2476    2.6250    0.0000 O   0  0  0  0  0  0  0  0  0  0  0  0
  4  3  1  0
  5  3  2  0
  6  4  2  0
  7  1  1  0
  7  3  1  0
  8  2  1  0
  8  4  1  0
M  END
>  <NAME>  (6855) 
DIMETHYL OXALATE

>  <SYNONYMS>  (6855) 


>  <SPECTRUM TYPE>  (6855) 
MS1

>  <INSTRUMENT TYPE>  (6855) 
EI-B

>  <INSTRUMENT>  (6855) 
HITACHI RMU-7M

>  <ION MODE>  (6855) 
P

>  <INCHIKEY>  (6855) 
LOMVENUNSWAXEN-UHFFFAOYSA-N

>  <FORMULA>  (6855) 
C4H6O4

>  <EXACT MASS>  (6855) 
118.026608672

>  <MW>  (6855) 
118

>  <ID>  (6855) 
JP001011

>  <CONTRIBUTOR>  (6855) 
University of Tokyo Team, {Faculty of Engineering, University of Tokyo

>  <COMMENT>  (6855) 
SMILES=COC(=O)C(=O)OC
InChI=InChI=1S/C4H6O4/c1-7-3(5)4(6)8-2/h1-2H3
computed SMILES=O=C(OC)C(=O)OC
accession=JP001011
date=2016.01.19 (Created 2008.10.21, modified 2011.05.06)
author=TAJIMA S, GUNMA COLLEGE OF TECHNOLOGY
license=CC BY-NC-SA
exact mass=118.02661
ionization energy=70 eV
ion type=[M]+*
computed spectral entropy=1.5810703149666812
computed normalized entropy=0.6164138525258935
SPLASH=splash10-0aor-9000000000-879de619ee069c462e70
submitter=submitter = University of Tokyo Team (Faculty of Engineering, University of Tokyo)
MoNA Rating=3.75

>  <NUM PEAKS>  (6855) 
13

>  <MASS SPECTRAL PEAKS>  (6855) 
14 1.21
15 99.1
28 5.05
29 14.24
30 2.53
31 5.45
33 1.01
43 3.74
44 3.03
45 34.65
59 99.99
60 3.13
118 1.82

$$$$

     RDKit          2D

 14 15  0  0  0  0  0  0  0  0999 V2000
    2.5986    1.0700    0.0000 C   0  0  0  0  0  0  0  0  0  0  0  0
   -5.1957    1.0700    0.0000 C   0  0  0  0  0  0  0  0  0  0  0  0
    2.5990    2.5708    0.0000 C   0  0  0  0  0  0  0  0  0  0  0  0
    1.2990    0.3192    0.0000 C   0  0  0  0  0  0  0  0  0  0  0  0
   -3.8962    0.3192    0.0000 C   0  0  0  0  0  0  0  0  0  0  0  0
   -5.1962    2.5708    0.0000 C   0  0  0  0  0  0  0  0  0  0  0  0
    1.3000    3.3208    0.0000 C   0  0  0  0  0  0  0  0  0  0  0  0
    0.0000    1.0692    0.0000 C   0  0  0  0  0  0  0  0  0  0  0  0
   -2.5971    1.0692    0.0000 C   0  0  0  0  0  0  0  0  0  0  0  0
   -3.8971    3.3208    0.0000 C   0  0  0  0  0  0  0  0  0  0  0  0
    0.0005    2.5700    0.0000 C   0  0  0  0  0  0  0  0  0  0  0  0
   -2.5976    2.5700    0.0000 C   0  0  0  0  0  0  0  0  0  0  0  0
   -1.2986    3.3200    0.0000 C   0  0  0  0  0  0  0  0  0  0  0  0
   -1.2986    4.8200    0.0000 O   0  0  0  0  0  0  0  0  0  0  0  0
  3  1  2  0
  4  1  1  0
  5  2  2  0
  6  2  1  0
  7  3  1  0
  8  4  2  0
  9  5  1  0
 10  6  2  0
 11  7  2  0
 11  8  1  0
 12  9  2  0
 12 10  1  0
 13 11  1  0
 13 12  1  0
 14 13  2  0
M  END
>  <NAME>  (6856) 
BENZOPHENONE

>  <SYNONYMS>  (6856) 
DIPHENYL KETONE

>  <SPECTRUM TYPE>  (6856) 
MS1

>  <INSTRUMENT TYPE>  (6856) 
EI-B

>  <INSTRUMENT>  (6856) 
HITACHI RMU-7M

>  <ION MODE>  (6856) 
P

>  <INCHIKEY>  (6856) 
RWCCWEUUXYIKHB-UHFFFAOYSA-N

>  <FORMULA>  (6856) 
C13H10O

>  <EXACT MASS>  (6856) 
182.07316494

>  <MW>  (6856) 
182

>  <ID>  (6856) 
JP001010

>  <CONTRIBUTOR>  (6856) 
University of Tokyo Team, {Faculty of Engineering, University of Tokyo

>  <COMMENT>  (6856) 
SMILES=c(c2)ccc(c2)C(=O)c(c1)cccc1
InChI=InChI=1S/C13H10O/c14-13(11-7-3-1-4-8-11)12-9-5-2-6-10-12/h1-10H
computed SMILES=O=C(C=1C=CC=CC1)C=2C=CC=CC2
accession=JP001010
date=2016.01.19 (Created 2008.10.21, modified 2011.05.06)
author=TAJIMA S, GUNMA COLLEGE OF TECHNOLOGY
license=CC BY-NC-SA
exact mass=182.07316
ionization energy=70 eV
ion type=[M]+*
computed spectral entropy=1.7760369200466763
computed normalized entropy=0.6558360400127764
SPLASH=splash10-0a6r-6900000000-b948527870febd59c85e
submitter=submitter = University of Tokyo Team (Faculty of Engineering, University of Tokyo)
MoNA Rating=3.75

>  <NUM PEAKS>  (6856) 
15

>  <MASS SPECTRAL PEAKS>  (6856) 
27 1.21
39 1
44 2.02
50 5.06
51 18.49
74 1.89
75 2.16
76 3.98
77 62.42
78 3.58
105 99.99
106 7.29
181 3.91
182 31.71
183 3.98

$$$$

     RDKit          2D

 10 10  0  0  0  0  0  0  0  0999 V2000
   -0.3238    1.6700    0.0000 C   0  0  0  0  0  0  0  0  0  0  0  0
    0.9712   -0.5730    0.0000 C   0  0  0  0  0  0  0  0  0  0  0  0
   -1.6229    0.9200    0.0000 C   0  0  0  0  0  0  0  0  0  0  0  0
   -0.3279   -1.3230    0.0000 C   0  0  0  0  0  0  0  0  0  0  0  0
    0.9657    0.9365    0.0000 C   0  0  0  0  0  0  0  0  0  0  0  0
   -1.6410   -0.5685    0.0000 C   0  0  0  0  0  0  0  0  0  0  0  0
    2.2610    1.6930    0.0000 C   0  0  0  0  0  0  0  0  0  0  0  0
   -2.9438   -1.3119    0.0000 Cl  0  0  0  0  0  0  0  0  0  0  0  0
    3.5637    0.9495    0.0000 O   0  0  0  0  0  0  0  0  0  0  0  0
    2.2534    3.1930    0.0000 O   0  0  0  0  0  0  0  0  0  0  0  0
  3  1  2  0
  4  2  1  0
  5  1  1  0
  5  2  2  0
  6  3  1  0
  6  4  2  0
  7  5  1  0
  8  6  1  0
  9  7  1  0
 10  7  2  0
M  END
>  <NAME>  (6857) 
PARA-CHLOROBENZOIC ACID

>  <SYNONYMS>  (6857) 


>  <SPECTRUM TYPE>  (6857) 
MS1

>  <INSTRUMENT TYPE>  (6857) 
EI-B

>  <INSTRUMENT>  (6857) 
HITACHI RMU-7M

>  <ION MODE>  (6857) 
P

>  <INCHIKEY>  (6857) 
XRHGYUZYPHTUJZ-UHFFFAOYSA-N

>  <FORMULA>  (6857) 
C7H5ClO2

>  <EXACT MASS>  (6857) 
155.99780708

>  <MW>  (6857) 
156

>  <ID>  (6857) 
JP001009

>  <CONTRIBUTOR>  (6857) 
University of Tokyo Team, {Faculty of Engineering, University of Tokyo

>  <COMMENT>  (6857) 
SMILES=OC(=O)c(c1)ccc(Cl)c1
InChI=InChI=1S/C7H5ClO2/c8-6-3-1-5(2-4-6)7(9)10/h1-4H,(H,9,10)
computed SMILES=O=C(O)C1=CC=C(Cl)C=C1
accession=JP001009
date=2016.01.19 (Created 2008.10.21, modified 2011.05.06)
author=TAJIMA S, GUNMA COLLEGE OF TECHNOLOGY
license=CC BY-NC-SA
exact mass=155.99781
ionization energy=70 eV
ion type=[M]+*
computed spectral entropy=2.76994524213473
computed normalized entropy=0.7410888401117984
SPLASH=splash10-06ri-3900000000-6cb8a1e870e9cbb239fd
submitter=submitter = University of Tokyo Team (Faculty of Engineering, University of Tokyo)
MoNA Rating=3.75

>  <NUM PEAKS>  (6857) 
42

>  <MASS SPECTRAL PEAKS>  (6857) 
27 1
37 3.17
37.5 1.67
38 5.81
39 3.12
40 1.94
43 1.18
45 1.83
49 2.15
50 18.18
51 8.93
55 1.24
55.5 1.51
57 1.08
61 1.61
63 1.4
64 2.47
65 3.93
69.5 1.4
73 3.71
74 11.19
75 27.6
76 6.46
77 6.78
84 1.08
85 2.69
110 1.56
111 48.41
112 3.77
113 15.6
114 1
128 2.1
130 1.24
139 99.99
140 8.28
141 33.89
142 3.12
155 1.24
156 67.13
157 4.9
158 21.89
159 1.51

$$$$

     RDKit          2D

 10 10  0  0  0  0  0  0  0  0999 V2000
    1.3013    2.6340    0.0000 C   0  0  0  0  0  0  0  0  0  0  0  0
    0.0013    1.8740    0.0000 C   0  0  0  0  0  0  0  0  0  0  0  0
    2.6013    1.8740    0.0000 C   0  0  0  0  0  0  0  0  0  0  0  0
    1.3013   -0.3660    0.0000 C   0  0  0  0  0  0  0  0  0  0  0  0
    0.0013    0.3740    0.0000 C   0  0  0  0  0  0  0  0  0  0  0  0
    2.6013    0.3740    0.0000 C   0  0  0  0  0  0  0  0  0  0  0  0
   -1.2954   -0.3800    0.0000 C   0  0  0  0  0  0  0  0  0  0  0  0
    3.8981   -0.3800    0.0000 Cl  0  0  0  0  0  0  0  0  0  0  0  0
   -1.2908   -1.8800    0.0000 O   0  0  0  0  0  0  0  0  0  0  0  0
   -2.5967    0.3660    0.0000 O   0  0  0  0  0  0  0  0  0  0  0  0
  2  1  2  0
  3  1  1  0
  5  2  1  0
  5  4  2  0
  6  3  2  0
  6  4  1  0
  7  5  1  0
  8  6  1  0
  9  7  2  0
 10  7  1  0
M  END
>  <NAME>  (6858) 
META-CHLOROBENZOIC ACID

>  <SYNONYMS>  (6858) 


>  <SPECTRUM TYPE>  (6858) 
MS1

>  <INSTRUMENT TYPE>  (6858) 
EI-B

>  <INSTRUMENT>  (6858) 
HITACHI RMU-7M

>  <ION MODE>  (6858) 
P

>  <INCHIKEY>  (6858) 
LULAYUGMBFYYEX-UHFFFAOYSA-N

>  <FORMULA>  (6858) 
C7H5ClO2

>  <EXACT MASS>  (6858) 
155.99780708

>  <MW>  (6858) 
156

>  <ID>  (6858) 
JP001008

>  <CONTRIBUTOR>  (6858) 
University of Tokyo Team, {Faculty of Engineering, University of Tokyo

>  <COMMENT>  (6858) 
SMILES=OC(=O)c(c1)cc(Cl)cc1
InChI=InChI=1S/C7H5ClO2/c8-6-3-1-2-5(4-6)7(9)10/h1-4H,(H,9,10)
computed SMILES=O=C(O)C=1C=CC=C(Cl)C1
accession=JP001008
date=2016.01.19 (Created 2008.10.21, modified 2011.05.06)
author=TAJIMA S, GUNMA COLLEGE OF TECHNOLOGY
license=CC BY-NC-SA
exact mass=155.99781
ionization energy=70 eV
ion type=[M]+*
computed spectral entropy=2.7726013949300228
computed normalized entropy=0.7516107342130532
SPLASH=splash10-0bti-3900000000-ff604323020f2ae9a71a
submitter=submitter = University of Tokyo Team (Faculty of Engineering, University of Tokyo)
MoNA Rating=3.75

>  <NUM PEAKS>  (6858) 
40

>  <MASS SPECTRAL PEAKS>  (6858) 
27 1.19
37 3.46
37.5 2.51
38 6.69
39 3.58
45 2.57
49 2.27
50 17.56
51 9.98
55.5 2.51
61 1.79
63 1.79
64 2.69
65 4.66
69.5 2.39
73 3.46
74 9.74
75 27.3
76 7.41
77 9.02
84 1.37
85 2.93
110 2.09
111 52.09
112 4.42
113 16.31
114 1.14
121 1.55
123 1.02
128 2.09
130 1.79
139 99.99
140 8.24
141 32.44
142 2.39
155 1.19
156 81.96
157 6.33
158 26.11
159 1.85

$$$$

     RDKit          2D

 10 10  0  0  0  0  0  0  0  0999 V2000
    2.2395    2.4655    0.0000 C   0  0  0  0  0  0  0  0  0  0  0  0
    0.9362    3.2129    0.0000 C   0  0  0  0  0  0  0  0  0  0  0  0
    2.2656    0.9657    0.0000 C   0  0  0  0  0  0  0  0  0  0  0  0
   -0.3605    2.4401    0.0000 C   0  0  0  0  0  0  0  0  0  0  0  0
    0.9688    0.2030    0.0000 C   0  0  0  0  0  0  0  0  0  0  0  0
   -0.3343    0.9403    0.0000 C   0  0  0  0  0  0  0  0  0  0  0  0
    0.9813   -1.2970    0.0000 C   0  0  0  0  0  0  0  0  0  0  0  0
   -1.6234    0.1735    0.0000 Cl  0  0  0  0  0  0  0  0  0  0  0  0
   -0.3114   -2.0578    0.0000 O   0  0  0  0  0  0  0  0  0  0  0  0
    2.2865   -2.0361    0.0000 O   0  0  0  0  0  0  0  0  0  0  0  0
  2  1  2  0
  3  1  1  0
  4  2  1  0
  5  3  2  0
  6  4  2  0
  6  5  1  0
  7  5  1  0
  8  6  1  0
  9  7  2  0
 10  7  1  0
M  END
>  <NAME>  (6859) 
ORTHO-CHLOROBENZOIC ACID

>  <SYNONYMS>  (6859) 


>  <SPECTRUM TYPE>  (6859) 
MS1

>  <INSTRUMENT TYPE>  (6859) 
EI-B

>  <INSTRUMENT>  (6859) 
HITACHI RMU-7M

>  <ION MODE>  (6859) 
P

>  <INCHIKEY>  (6859) 
IKCLCGXPQILATA-UHFFFAOYSA-N

>  <FORMULA>  (6859) 
C7H5ClO2

>  <EXACT MASS>  (6859) 
155.99780708

>  <MW>  (6859) 
156

>  <ID>  (6859) 
JP001007

>  <CONTRIBUTOR>  (6859) 
University of Tokyo Team, {Faculty of Engineering, University of Tokyo

>  <COMMENT>  (6859) 
SMILES=OC(=O)c(c1)c(Cl)ccc1
InChI=InChI=1S/C7H5ClO2/c8-6-4-2-1-3-5(6)7(9)10/h1-4H,(H,9,10)
computed SMILES=O=C(O)C=1C=CC=CC1Cl
accession=JP001007
date=2016.01.19 (Created 2008.10.21, modified 2011.05.06)
author=TAJIMA S, GUNMA COLLEGE OF TECHNOLOGY
license=CC BY-NC-SA
exact mass=155.99781
ionization energy=70 eV
ion type=[M]+*
computed spectral entropy=3.0573351173686465
computed normalized entropy=0.7897639799002911
SPLASH=splash10-052u-5900000000-7b57c648887a7aae41a8
submitter=submitter = University of Tokyo Team (Faculty of Engineering, University of Tokyo)
MoNA Rating=3.75

>  <NUM PEAKS>  (6859) 
48

>  <MASS SPECTRAL PEAKS>  (6859) 
27 2.14
28 2.47
29 1.26
37 4.18
37.5 2.25
38 6.98
39 5.82
41 1.54
43 1.92
44 1.59
45 3.3
49 2.75
50 22.69
51 12.2
55 1.65
55.5 1.87
57 1.92
61 1.81
62 1.21
63 2.69
64 3.3
65 4.07
69 1.81
69.5 1.87
70 1.59
73 3.19
74 10.44
75 30.93
76 15.16
77 9.23
84 1.54
85 2.75
92 1.65
95 14.51
111 37.36
112 4.12
113 11.87
123 19.4
128 2.31
130 2.2
139 99.99
140 22.42
141 35.33
142 2.86
156 64.29
157 4.95
158 20.6
159 1.48

$$$$

     RDKit          2D

 10 10  0  0  0  0  0  0  0  0999 V2000
    1.3000   -0.7500    0.0000 C   0  0  0  0  0  0  0  0  0  0  0  0
    0.0000    1.5000    0.0000 C   0  0  0  0  0  0  0  0  0  0  0  0
   -0.0000   -1.5000    0.0000 C   0  0  0  0  0  0  0  0  0  0  0  0
   -1.3000    0.7500    0.0000 C   0  0  0  0  0  0  0  0  0  0  0  0
    1.3000    0.7500    0.0000 C   0  0  0  0  0  0  0  0  0  0  0  0
   -1.3000   -0.7500    0.0000 C   0  0  0  0  0  0  0  0  0  0  0  0
    2.5989    1.5002    0.0000 C   0  0  0  0  0  0  0  0  0  0  0  0
   -2.5989   -1.5002    0.0000 F   0  0  0  0  0  0  0  0  0  0  0  0
    3.8981    0.7504    0.0000 O   0  0  0  0  0  0  0  0  0  0  0  0
    2.5987    3.0002    0.0000 O   0  0  0  0  0  0  0  0  0  0  0  0
  3  1  2  0
  4  2  1  0
  5  1  1  0
  5  2  2  0
  6  3  1  0
  6  4  2  0
  7  5  1  0
  8  6  1  0
  9  7  1  0
 10  7  2  0
M  END
>  <NAME>  (6860) 
PARA-FLUOROBENZOIC ACID

>  <SYNONYMS>  (6860) 


>  <SPECTRUM TYPE>  (6860) 
MS1

>  <INSTRUMENT TYPE>  (6860) 
EI-B

>  <INSTRUMENT>  (6860) 
HITACHI RMU-7M

>  <ION MODE>  (6860) 
P

>  <INCHIKEY>  (6860) 
BBYDXOIZLAWGSL-UHFFFAOYSA-N

>  <FORMULA>  (6860) 
C7H5FO2

>  <EXACT MASS>  (6860) 
140.02735762

>  <MW>  (6860) 
140

>  <ID>  (6860) 
JP001006

>  <CONTRIBUTOR>  (6860) 
University of Tokyo Team, {Faculty of Engineering, University of Tokyo

>  <COMMENT>  (6860) 
SMILES=OC(=O)c(c1)ccc(F)c1
InChI=InChI=1S/C7H5FO2/c8-6-3-1-5(2-4-6)7(9)10/h1-4H,(H,9,10)
computed SMILES=O=C(O)C1=CC=C(F)C=C1
accession=JP001006
date=2016.01.19 (Created 2008.10.21, modified 2011.05.06)
author=TAJIMA S, GUNMA COLLEGE OF TECHNOLOGY
license=CC BY-NC-SA
exact mass=140.02736
ionization energy=70 eV
ion type=[M]+*
computed spectral entropy=2.3066666513138427
computed normalized entropy=0.6717167286765352
SPLASH=splash10-00dm-8900000000-6424b0b84f9881cdbb73
submitter=submitter = University of Tokyo Team (Faculty of Engineering, University of Tokyo)
MoNA Rating=3.75

>  <NUM PEAKS>  (6860) 
31

>  <MASS SPECTRAL PEAKS>  (6860) 
28 5.23
31 1.31
37 2.24
38 1.74
39 2.24
45 2.62
47.5 1.04
49 1.25
50 10.91
51 4.36
56 1.53
57 2.89
61 1.36
61.5 1.09
62 1.53
63 2.02
68 3.92
69 5.83
70 3.82
73 1.53
74 7.09
75 27.7
76 2.51
83 2.07
94 1.31
95 76.12
96 6.54
123 99.99
124 7.31
140 69.85
141 5.89

$$$$

     RDKit          2D

 12 12  0  0  0  0  0  0  0  0999 V2000
   -4.8803    1.6781    0.0000 C   0  0  0  0  0  0  0  0  0  0  0  0
   -3.5825    2.4302    0.0000 C   0  0  0  0  0  0  0  0  0  0  0  0
    1.6194   -0.5554    0.0000 C   0  0  0  0  0  0  0  0  0  0  0  0
    0.3204    0.1946    0.0000 C   0  0  0  0  0  0  0  0  0  0  0  0
    2.9139    0.1868    0.0000 C   0  0  0  0  0  0  0  0  0  0  0  0
    1.6154    2.4376    0.0000 C   0  0  0  0  0  0  0  0  0  0  0  0
    0.3159    1.6868    0.0000 C   0  0  0  0  0  0  0  0  0  0  0  0
    2.9144    1.6876    0.0000 C   0  0  0  0  0  0  0  0  0  0  0  0
   -0.9844    2.4346    0.0000 C   0  0  0  0  0  0  0  0  0  0  0  0
    4.2136    2.4374    0.0000 F   0  0  0  0  0  0  0  0  0  0  0  0
   -0.9869    3.9346    0.0000 O   0  0  0  0  0  0  0  0  0  0  0  0
   -2.2822    1.6824    0.0000 O   0  0  0  0  0  0  0  0  0  0  0  0
  2  1  1  0
  4  3  2  0
  5  3  1  0
  7  4  1  0
  7  6  2  0
  8  5  2  0
  8  6  1  0
  9  7  1  0
 10  8  1  0
 11  9  2  0
 12  2  1  0
 12  9  1  0
M  END
>  <NAME>  (6861) 
META-FLUOROBENZOIC ACID ETHYL ESTER

>  <SYNONYMS>  (6861) 
ETHYL META-FLUOROBENZOATE

>  <SPECTRUM TYPE>  (6861) 
MS1

>  <INSTRUMENT TYPE>  (6861) 
EI-B

>  <INSTRUMENT>  (6861) 
Unknown

>  <ION MODE>  (6861) 
P

>  <INCHIKEY>  (6861) 
SMMIKBXLEWTSJD-UHFFFAOYSA-N

>  <FORMULA>  (6861) 
C9H9FO2

>  <EXACT MASS>  (6861) 
168.058657748

>  <MW>  (6861) 
168

>  <ID>  (6861) 
JP001005

>  <CONTRIBUTOR>  (6861) 
University of Tokyo Team, {Faculty of Engineering, University of Tokyo

>  <COMMENT>  (6861) 
SMILES=CCOC(=O)c(c1)cc(F)cc1
InChI=InChI=1S/C9H9FO2/c1-2-12-9(11)7-4-3-5-8(10)6-7/h3-6H,2H2,1H3
computed SMILES=O=C(OCC)C=1C=CC=C(F)C1
accession=JP001005
date=2016.01.19 (Created 2008.10.21, modified 2011.05.06)
author=TAJIMA S, GUNMA COLLEGE OF TECHNOLOGY
license=CC BY-NC-SA
exact mass=168.05866
ionization energy=70 eV
ion type=[M]+*
computed spectral entropy=2.172989800728526
computed normalized entropy=0.7029957800701326
SPLASH=splash10-00di-6900000000-9a5de1c782e7fc6a8261
submitter=submitter = University of Tokyo Team (Faculty of Engineering, University of Tokyo)
MoNA Rating=3.75

>  <NUM PEAKS>  (6861) 
22

>  <MASS SPECTRAL PEAKS>  (6861) 
27 6.62
28 2.77
29 9.8
45 7.76
50 3.88
51 2.48
68 1.34
69 2.86
74 1.65
75 15.78
76 1.27
94 2.67
95 48.54
96 4.71
123 99.99
124 9.16
140 33.84
141 2.54
150 2.04
153 1.78
168 10.31
169 0.76

$$$$

     RDKit          2D

 10 10  0  0  0  0  0  0  0  0999 V2000
    0.9737   -1.6804    0.0000 C   0  0  0  0  0  0  0  0  0  0  0  0
   -0.3254   -0.9304    0.0000 C   0  0  0  0  0  0  0  0  0  0  0  0
    2.2682   -0.9382    0.0000 C   0  0  0  0  0  0  0  0  0  0  0  0
    0.9696    1.3126    0.0000 C   0  0  0  0  0  0  0  0  0  0  0  0
   -0.3299    0.5618    0.0000 C   0  0  0  0  0  0  0  0  0  0  0  0
    2.2687    0.5626    0.0000 C   0  0  0  0  0  0  0  0  0  0  0  0
   -1.6302    1.3096    0.0000 C   0  0  0  0  0  0  0  0  0  0  0  0
    3.5678    1.3124    0.0000 F   0  0  0  0  0  0  0  0  0  0  0  0
   -1.6327    2.8096    0.0000 O   0  0  0  0  0  0  0  0  0  0  0  0
   -2.9280    0.5574    0.0000 O   0  0  0  0  0  0  0  0  0  0  0  0
  2  1  2  0
  3  1  1  0
  5  2  1  0
  5  4  2  0
  6  3  2  0
  6  4  1  0
  7  5  1  0
  8  6  1  0
  9  7  2  0
 10  7  1  0
M  END
>  <NAME>  (6862) 
META-FLUOROBENZOIC ACID

>  <SYNONYMS>  (6862) 


>  <SPECTRUM TYPE>  (6862) 
MS1

>  <INSTRUMENT TYPE>  (6862) 
EI-B

>  <INSTRUMENT>  (6862) 
HITACHI RMU-7M

>  <ION MODE>  (6862) 
P

>  <INCHIKEY>  (6862) 
MXNBDFWNYRNIBH-UHFFFAOYSA-N

>  <FORMULA>  (6862) 
C7H5FO2

>  <EXACT MASS>  (6862) 
140.02735762

>  <MW>  (6862) 
140

>  <ID>  (6862) 
JP001004

>  <CONTRIBUTOR>  (6862) 
University of Tokyo Team, {Faculty of Engineering, University of Tokyo

>  <COMMENT>  (6862) 
SMILES=OC(=O)c(c1)cc(F)cc1
InChI=InChI=1S/C7H5FO2/c8-6-3-1-2-5(4-6)7(9)10/h1-4H,(H,9,10)
computed SMILES=O=C(O)C=1C=CC=C(F)C1
accession=JP001004
date=2016.01.19 (Created 2008.10.21, modified 2011.05.06)
author=TAJIMA S, GUNMA COLLEGE OF TECHNOLOGY
license=CC BY-NC-SA
exact mass=140.02736
ionization energy=70 eV
ion type=[M]+*
computed spectral entropy=2.499735666512251
computed normalized entropy=0.703091687024605
SPLASH=splash10-00dm-9800000000-bcd947f71235a27b2fc8
submitter=submitter = University of Tokyo Team (Faculty of Engineering, University of Tokyo)
MoNA Rating=3.75

>  <NUM PEAKS>  (6862) 
35

>  <MASS SPECTRAL PEAKS>  (6862) 
27 1
28 2.77
31 2.09
37 2.72
38 2.56
39 3.55
45 4.29
47.5 2.25
49 1.88
50 13.23
51 5.85
56 2.14
57 4.08
61 1.83
61.5 2.14
62 2.09
63 2.61
68 4.81
69 6.69
70 5.91
73 1.57
74 6.38
75 25.35
76 3.03
83 2.14
92 1.46
93 1.57
94 5.75
95 72.66
96 8.52
112 2.2
123 99.99
124 7.42
140 78.25
141 5.91

$$$$

     RDKit          2D

 10 10  0  0  0  0  0  0  0  0999 V2000
    2.9118   -0.1743    0.0000 C   0  0  0  0  0  0  0  0  0  0  0  0
    2.9163    1.3179    0.0000 C   0  0  0  0  0  0  0  0  0  0  0  0
    1.6128   -0.9243    0.0000 C   0  0  0  0  0  0  0  0  0  0  0  0
    1.6168    2.0687    0.0000 C   0  0  0  0  0  0  0  0  0  0  0  0
    0.3183   -0.1821    0.0000 C   0  0  0  0  0  0  0  0  0  0  0  0
    0.3178    1.3187    0.0000 C   0  0  0  0  0  0  0  0  0  0  0  0
   -0.9795   -0.9343    0.0000 C   0  0  0  0  0  0  0  0  0  0  0  0
   -0.9814    2.0685    0.0000 F   0  0  0  0  0  0  0  0  0  0  0  0
   -2.2798   -0.1865    0.0000 O   0  0  0  0  0  0  0  0  0  0  0  0
   -0.9770   -2.4343    0.0000 O   0  0  0  0  0  0  0  0  0  0  0  0
  2  1  2  0
  3  1  1  0
  4  2  1  0
  5  3  2  0
  6  4  2  0
  6  5  1  0
  7  5  1  0
  8  6  1  0
  9  7  2  0
 10  7  1  0
M  END
>  <NAME>  (6863) 
ORTHO-FLUOROBENZOIC ACID

>  <SYNONYMS>  (6863) 


>  <SPECTRUM TYPE>  (6863) 
MS1

>  <INSTRUMENT TYPE>  (6863) 
EI-B

>  <INSTRUMENT>  (6863) 
HITACHI RMU-7M

>  <ION MODE>  (6863) 
P

>  <INCHIKEY>  (6863) 
NSTREUWFTAOOKS-UHFFFAOYSA-N

>  <FORMULA>  (6863) 
C7H5FO2

>  <EXACT MASS>  (6863) 
140.02735762

>  <MW>  (6863) 
140

>  <ID>  (6863) 
JP001003

>  <CONTRIBUTOR>  (6863) 
University of Tokyo Team, {Faculty of Engineering, University of Tokyo

>  <COMMENT>  (6863) 
SMILES=OC(=O)c(c1)c(F)ccc1
InChI=InChI=1S/C7H5FO2/c8-6-4-2-1-3-5(6)7(9)10/h1-4H,(H,9,10)
computed SMILES=O=C(O)C=1C=CC=CC1F
accession=JP001003
date=2016.01.19 (Created 2008.10.21, modified 2011.05.06)
author=TAJIMA S, GUNMA COLLEGE OF TECHNOLOGY
license=CC BY-NC-SA
exact mass=140.02736
ionization energy=70 eV
ion type=[M]+*
computed spectral entropy=2.464907083215418
computed normalized entropy=0.7049626062245963
SPLASH=splash10-00dl-7900000000-5f127250a62e47ac459c
submitter=submitter = University of Tokyo Team (Faculty of Engineering, University of Tokyo)
MoNA Rating=3.75

>  <NUM PEAKS>  (6863) 
33

>  <MASS SPECTRAL PEAKS>  (6863) 
27 1.06
31 1.41
37 2.18
38 2.04
39 3.38
45 3.03
50 11.62
51 4.79
56 1.97
57 2.82
61 1.41
61.5 2.18
62 1.55
63 2.75
64 2.18
65 1.27
68 4.23
69 5.49
70 4.79
74 5.49
75 20.99
76 6.13
92 3.38
93 2.04
94 3.73
95 46.55
96 5.7
112 1.41
120 2.11
123 99.99
124 7.54
140 69.01
141 7.04

$$$$

     RDKit          2D

 12 12  0  0  0  0  0  0  0  0999 V2000
   -4.8803    1.6781    0.0000 C   0  0  0  0  0  0  0  0  0  0  0  0
   -3.5825    2.4302    0.0000 C   0  0  0  0  0  0  0  0  0  0  0  0
    1.6194   -0.5554    0.0000 C   0  0  0  0  0  0  0  0  0  0  0  0
    0.3204    0.1946    0.0000 C   0  0  0  0  0  0  0  0  0  0  0  0
    2.9139    0.1868    0.0000 C   0  0  0  0  0  0  0  0  0  0  0  0
    1.6154    2.4376    0.0000 C   0  0  0  0  0  0  0  0  0  0  0  0
    0.3159    1.6868    0.0000 C   0  0  0  0  0  0  0  0  0  0  0  0
    2.9144    1.6876    0.0000 C   0  0  0  0  0  0  0  0  0  0  0  0
   -0.9844    2.4346    0.0000 C   0  0  0  0  0  0  0  0  0  0  0  0
    4.2136    2.4374    0.0000 N   0  0  0  0  0  0  0  0  0  0  0  0
   -0.9869    3.9346    0.0000 O   0  0  0  0  0  0  0  0  0  0  0  0
   -2.2822    1.6824    0.0000 O   0  0  0  0  0  0  0  0  0  0  0  0
  2  1  1  0
  4  3  2  0
  5  3  1  0
  7  4  1  0
  7  6  2  0
  8  5  2  0
  8  6  1  0
  9  7  1  0
 10  8  1  0
 11  9  2  0
 12  2  1  0
 12  9  1  0
M  END
>  <NAME>  (6864) 
META-AMINOBENZOIC ACID ETHYL ESTER

>  <SYNONYMS>  (6864) 
ETHYL META-AMINOBENZOATE

>  <SPECTRUM TYPE>  (6864) 
MS1

>  <INSTRUMENT TYPE>  (6864) 
EI-B

>  <INSTRUMENT>  (6864) 
HITACHI RMU-7M

>  <ION MODE>  (6864) 
P

>  <INCHIKEY>  (6864) 
ZMCBYSBVJIMENC-UHFFFAOYSA-N

>  <FORMULA>  (6864) 
C9H11NO2

>  <EXACT MASS>  (6864) 
165.078978592

>  <MW>  (6864) 
165

>  <ID>  (6864) 
JP001002

>  <CONTRIBUTOR>  (6864) 
University of Tokyo Team, {Faculty of Engineering, University of Tokyo

>  <COMMENT>  (6864) 
SMILES=CCOC(=O)c(c1)cc(N)cc1
InChI=InChI=1S/C9H11NO2/c1-2-12-9(11)7-4-3-5-8(10)6-7/h3-6H,2,10H2,1H3
computed SMILES=O=C(OCC)C=1C=CC=C(N)C1
accession=JP001002
date=2016.01.19 (Created 2008.10.21, modified 2011.05.06)
author=TAJIMA S, GUNMA COLLEGE OF TECHNOLOGY
license=CC BY-NC-SA
exact mass=165.07898
ionization energy=70 eV
ion type=[M]+*
computed spectral entropy=2.5799315958000877
computed normalized entropy=0.7444109038187072
SPLASH=splash10-01bc-8900000000-bf2dac372aedc49840de
submitter=submitter = University of Tokyo Team (Faculty of Engineering, University of Tokyo)
MoNA Rating=3.75

>  <NUM PEAKS>  (6864) 
32

>  <MASS SPECTRAL PEAKS>  (6864) 
27 6.13
28 4.53
29 6.33
38 2.72
39 14.85
40 1.43
41 4.5
42 1.36
43 1.36
46 3.27
50 1.23
51 1.23
52 3.41
60 4.09
62 1.5
63 6.06
64 6.13
65 42.44
66 7.08
91 7.36
92 78.54
93 36.99
94 2.59
109 1.7
119 1.98
120 99.99
121 16.42
137 30.99
138 2.25
150 4.29
165 80.52
166 8.04

$$$$

     RDKit          2D

 12 12  0  0  0  0  0  0  0  0999 V2000
   -2.5989    0.7492    0.0000 C   0  0  0  0  0  0  0  0  0  0  0  0
   -1.2998   -0.0006    0.0000 C   0  0  0  0  0  0  0  0  0  0  0  0
    2.5972    2.2500    0.0000 C   0  0  0  0  0  0  0  0  0  0  0  0
    3.8972   -0.0000    0.0000 C   0  0  0  0  0  0  0  0  0  0  0  0
    3.8972    3.0000    0.0000 C   0  0  0  0  0  0  0  0  0  0  0  0
    5.1972    0.7500    0.0000 C   0  0  0  0  0  0  0  0  0  0  0  0
    2.5972    0.7500    0.0000 C   0  0  0  0  0  0  0  0  0  0  0  0
    5.1972    2.2500    0.0000 C   0  0  0  0  0  0  0  0  0  0  0  0
    1.2983   -0.0002    0.0000 C   0  0  0  0  0  0  0  0  0  0  0  0
    6.4962    3.0002    0.0000 F   0  0  0  0  0  0  0  0  0  0  0  0
    1.2986   -1.5002    0.0000 O   0  0  0  0  0  0  0  0  0  0  0  0
   -0.0008    0.7496    0.0000 O   0  0  0  0  0  0  0  0  0  0  0  0
  2  1  1  0
  5  3  2  0
  6  4  1  0
  7  3  1  0
  7  4  2  0
  8  5  1  0
  8  6  2  0
  9  7  1  0
 10  8  1  0
 11  9  2  0
 12  2  1  0
 12  9  1  0
M  END
>  <NAME>  (6865) 
PARA-FLUOROBENZOIC ACID ETHYL ESTER

>  <SYNONYMS>  (6865) 
ETHYL PARA-FLUOROBENZOATE

>  <SPECTRUM TYPE>  (6865) 
MS1

>  <INSTRUMENT TYPE>  (6865) 
EI-B

>  <INSTRUMENT>  (6865) 
HITACHI RMU-7M

>  <ION MODE>  (6865) 
P

>  <INCHIKEY>  (6865) 
UMPRJGKLMUDRHL-UHFFFAOYSA-N

>  <FORMULA>  (6865) 
C9H9FO2

>  <EXACT MASS>  (6865) 
168.058657748

>  <MW>  (6865) 
168

>  <ID>  (6865) 
JP001001

>  <CONTRIBUTOR>  (6865) 
University of Tokyo Team, {Faculty of Engineering, University of Tokyo

>  <COMMENT>  (6865) 
SMILES=CCOC(=O)c(c1)ccc(F)c1
InChI=InChI=1S/C9H9FO2/c1-2-12-9(11)7-3-5-8(10)6-4-7/h3-6H,2H2,1H3
computed SMILES=O=C(OCC)C1=CC=C(F)C=C1
accession=JP001001
date=2016.01.19 (Created 2008.10.21, modified 2011.05.06)
author=TAJIMA S, GUNMA COLLEGE OF TECHNOLOGY
license=CC BY-NC-SA
exact mass=168.05866
ionization energy=70 eV
ion type=[M]+*
computed spectral entropy=2.0932433997786215
computed normalized entropy=0.6675960010209506
SPLASH=splash10-00di-5900000000-77d87ae4890959208fbc
submitter=submitter = University of Tokyo Team (Faculty of Engineering, University of Tokyo)
MoNA Rating=3.75

>  <NUM PEAKS>  (6865) 
23

>  <MASS SPECTRAL PEAKS>  (6865) 
27 3
28 10.38
29 3.83
32 2.11
45 3.33
50 2.89
51 1.78
68 1.16
69 2.22
74 1.16
75 13.21
76 1.11
94 2.22
95 36.63
96 2.83
123 99.99
124 9.04
140 27.75
141 2.66
153 1.17
167 1.11
168 8.27
169 1.11

$$$$

     RDKit          2D

 16 16  0  0  0  0  0  0  0  0999 V2000
   -7.7951    1.5010    0.0000 C   0  0  0  0  0  0  0  0  0  0  0  0
   -6.4964   -0.7492    0.0000 C   0  0  0  0  0  0  0  0  0  0  0  0
   -1.3000   -0.7500    0.0000 C   0  0  0  0  0  0  0  0  0  0  0  0
    0.0000    1.5000    0.0000 C   0  0  0  0  0  0  0  0  0  0  0  0
    0.0000   -1.5000    0.0000 C   0  0  0  0  0  0  0  0  0  0  0  0
    1.3000    0.7500    0.0000 C   0  0  0  0  0  0  0  0  0  0  0  0
   -5.1970    1.5006    0.0000 C   0  0  0  0  0  0  0  0  0  0  0  0
   -6.4962    0.7508    0.0000 C   0  0  0  0  0  0  0  0  0  0  0  0
   -1.3000    0.7500    0.0000 C   0  0  0  0  0  0  0  0  0  0  0  0
    1.3000   -0.7500    0.0000 C   0  0  0  0  0  0  0  0  0  0  0  0
   -2.5989    1.5002    0.0000 C   0  0  0  0  0  0  0  0  0  0  0  0
    2.5989   -1.5002    0.0000 N   0  0  0  0  0  0  0  0  0  0  0  0
   -2.5987    3.0002    0.0000 O   0  0  0  0  0  0  0  0  0  0  0  0
    3.8981   -0.7504    0.0000 O   0  0  0  0  0  0  0  0  0  0  0  0
    2.5987   -3.0002    0.0000 O   0  0  0  0  0  0  0  0  0  0  0  0
   -3.8981    0.7504    0.0000 O   0  0  0  0  0  0  0  0  0  0  0  0
  5  3  2  0
  6  4  1  0
  8  1  1  0
  8  2  1  0
  8  7  1  0
  9  3  1  0
  9  4  2  0
 10  5  1  0
 10  6  2  0
 11  9  1  0
 12 10  1  0
 13 11  2  0
 14 12  1  0
 15 12  2  0
 16  7  1  0
 16 11  1  0
M  CHG  2  12   1  14  -1
M  END
>  <NAME>  (6866) 
PARA-NITROBENZOIC ACID ISOBUTYL ESTER

>  <SYNONYMS>  (6866) 
ISOBUTYL PARA-NITROBENZOATE

>  <SPECTRUM TYPE>  (6866) 
MS1

>  <INSTRUMENT TYPE>  (6866) 
EI-B

>  <INSTRUMENT>  (6866) 
HITACHI RMU-7M

>  <ION MODE>  (6866) 
P

>  <INCHIKEY>  (6866) 
DCZWILGYHRWANR-UHFFFAOYSA-N

>  <FORMULA>  (6866) 
C11H13NO4

>  <EXACT MASS>  (6866) 
223.08445789599998

>  <MW>  (6866) 
223

>  <ID>  (6866) 
JP001000

>  <CONTRIBUTOR>  (6866) 
University of Tokyo Team, {Faculty of Engineering, University of Tokyo

>  <COMMENT>  (6866) 
SMILES=CC(C)COC(=O)c(c1)ccc(c1)[N+1]([O-1])=O
InChI=InChI=1S/C11H13NO4/c1-8(2)7-16-11(13)9-3-5-10(6-4-9)12(14)15/h3-6,8H,7H2,1-2H3
computed SMILES=O=C(OCC(C)C)C1=CC=C(C=C1)N(=O)=O
accession=JP001000
date=2016.01.19 (Created 2008.10.21, modified 2011.05.06)
author=TAJIMA S, GUNMA COLLEGE OF TECHNOLOGY
license=CC BY-NC-SA
exact mass=223.08446
ionization energy=70 eV
ion type=[M]+*
computed spectral entropy=2.6623558142584023
computed normalized entropy=0.7614328776517149
SPLASH=splash10-0zfr-9500000000-86bdfe4a4f48df333fd7
submitter=submitter = University of Tokyo Team (Faculty of Engineering, University of Tokyo)
MoNA Rating=3.75

>  <NUM PEAKS>  (6866) 
33

>  <MASS SPECTRAL PEAKS>  (6866) 
27 3.54
28 1.81
29 7.24
39 5.67
41 18.5
42 2.36
43 7.56
50 10.63
51 1.81
55 4.09
56 99.99
57 9.45
63 1.57
64 2.91
65 6.85
73 2.36
74 2.99
75 7.87
76 24.65
77 2.36
92 13.94
93 2.36
103 1.73
104 27
105 2.36
120 13.23
121 5.67
122 1.26
134 3.86
150 80
151 11.18
152 1.57
168 3.78

$$$$

     RDKit          2D

 15 15  0  0  0  0  0  0  0  0999 V2000
   -3.8978   -0.7512    0.0000 C   0  0  0  0  0  0  0  0  0  0  0  0
   -2.5992    1.4990    0.0000 C   0  0  0  0  0  0  0  0  0  0  0  0
    5.1972   -0.0002    0.0000 C   0  0  0  0  0  0  0  0  0  0  0  0
    3.8972    2.2498    0.0000 C   0  0  0  0  0  0  0  0  0  0  0  0
    3.8972   -0.7502    0.0000 C   0  0  0  0  0  0  0  0  0  0  0  0
    2.5972    1.4998    0.0000 C   0  0  0  0  0  0  0  0  0  0  0  0
    6.4962    2.2500    0.0000 C   0  0  0  0  0  0  0  0  0  0  0  0
   -1.2998   -0.7508    0.0000 C   0  0  0  0  0  0  0  0  0  0  0  0
   -2.5989   -0.0010    0.0000 C   0  0  0  0  0  0  0  0  0  0  0  0
    5.1972    1.4998    0.0000 C   0  0  0  0  0  0  0  0  0  0  0  0
    2.5972   -0.0002    0.0000 C   0  0  0  0  0  0  0  0  0  0  0  0
    1.2983   -0.7504    0.0000 C   0  0  0  0  0  0  0  0  0  0  0  0
    7.7951    3.0002    0.0000 N   0  0  0  0  0  0  0  0  0  0  0  0
    1.2986   -2.2504    0.0000 O   0  0  0  0  0  0  0  0  0  0  0  0
   -0.0008   -0.0006    0.0000 O   0  0  0  0  0  0  0  0  0  0  0  0
  5  3  2  0
  6  4  1  0
  9  1  1  0
  9  2  1  0
  9  8  1  0
 10  3  1  0
 10  4  2  0
 10  7  1  0
 11  5  1  0
 11  6  2  0
 12 11  1  0
 13  7  3  0
 14 12  2  0
 15  8  1  0
 15 12  1  0
M  END
>  <NAME>  (6867) 
PARA-CYANOBENZOIC ACID ISOBUTYL ESTER

>  <SYNONYMS>  (6867) 
ISOBUTYL PARA-CYANOBENZOATE

>  <SPECTRUM TYPE>  (6867) 
MS1

>  <INSTRUMENT TYPE>  (6867) 
EI-B

>  <INSTRUMENT>  (6867) 
HITACHI RMU-7M

>  <ION MODE>  (6867) 
P

>  <INCHIKEY>  (6867) 
RYFXHNFLVQQUPO-UHFFFAOYSA-N

>  <FORMULA>  (6867) 
C12H13NO2

>  <EXACT MASS>  (6867) 
203.094628656

>  <MW>  (6867) 
203

>  <ID>  (6867) 
JP000999

>  <CONTRIBUTOR>  (6867) 
University of Tokyo Team, {Faculty of Engineering, University of Tokyo

>  <COMMENT>  (6867) 
SMILES=N#Cc(c1)ccc(c1)C(=O)OCC(C)C
InChI=InChI=1S/C12H13NO2/c1-9(2)8-15-12(14)11-5-3-10(7-13)4-6-11/h3-6,9H,8H2,1-2H3
computed SMILES=N#CC1=CC=C(C=C1)C(=O)OCC(C)C
accession=JP000999
date=2016.01.19 (Created 2008.10.21, modified 2011.05.06)
author=TAJIMA S, GUNMA COLLEGE OF TECHNOLOGY
license=CC BY-NC-SA
exact mass=203.09463
ionization energy=70 eV
ion type=[M]+*
computed spectral entropy=2.2601046837236236
computed normalized entropy=0.6857453131360947
SPLASH=splash10-053r-8900000000-d71280c8ff88dd9363fd
submitter=submitter = University of Tokyo Team (Faculty of Engineering, University of Tokyo)
MoNA Rating=3.75

>  <NUM PEAKS>  (6867) 
27

>  <MASS SPECTRAL PEAKS>  (6867) 
27 4.36
28 1.06
29 4.79
31 1.06
39 4.31
41 13.15
42 2.45
43 6.33
50 3.19
51 5.32
52 1.06
55 2.77
56 80.95
57 6.28
73 2.24
74 1.17
75 8.04
76 5.38
101 1.01
102 34.59
103 5.85
104 1.33
130 99.99
131 9.58
135 1.06
148 10.22
149 1.54

$$$$

     RDKit          2D

 11 11  0  0  0  0  0  0  0  0999 V2000
   -1.3000    0.7500    0.0000 C   0  0  0  0  0  0  0  0  0  0  0  0
   -0.0000   -1.5000    0.0000 C   0  0  0  0  0  0  0  0  0  0  0  0
    0.0000    1.5000    0.0000 C   0  0  0  0  0  0  0  0  0  0  0  0
    1.3000   -0.7500    0.0000 C   0  0  0  0  0  0  0  0  0  0  0  0
   -2.5989   -1.5002    0.0000 C   0  0  0  0  0  0  0  0  0  0  0  0
   -1.3000   -0.7500    0.0000 C   0  0  0  0  0  0  0  0  0  0  0  0
    1.3000    0.7500    0.0000 C   0  0  0  0  0  0  0  0  0  0  0  0
    2.5989    1.5002    0.0000 C   0  0  0  0  0  0  0  0  0  0  0  0
   -3.8978   -2.2504    0.0000 N   0  0  0  0  0  0  0  0  0  0  0  0
    3.8981    0.7504    0.0000 O   0  0  0  0  0  0  0  0  0  0  0  0
    2.5987    3.0002    0.0000 O   0  0  0  0  0  0  0  0  0  0  0  0
  3  1  2  0
  4  2  1  0
  6  1  1  0
  6  2  2  0
  6  5  1  0
  7  3  1  0
  7  4  2  0
  8  7  1  0
  9  5  3  0
 10  8  1  0
 11  8  2  0
M  END
>  <NAME>  (6868) 
PARA-CYANOBENZOIC ACID

>  <SYNONYMS>  (6868) 


>  <SPECTRUM TYPE>  (6868) 
MS1

>  <INSTRUMENT TYPE>  (6868) 
EI-B

>  <INSTRUMENT>  (6868) 
HITACHI RMU-7M

>  <ION MODE>  (6868) 
P

>  <INCHIKEY>  (6868) 
ADCUEPOHPCPMCE-UHFFFAOYSA-N

>  <FORMULA>  (6868) 
C8H5NO2

>  <EXACT MASS>  (6868) 
147.0320284

>  <MW>  (6868) 
147

>  <ID>  (6868) 
JP000998

>  <CONTRIBUTOR>  (6868) 
University of Tokyo Team, {Faculty of Engineering, University of Tokyo

>  <COMMENT>  (6868) 
SMILES=N#Cc(c1)ccc(c1)C(O)=O
InChI=InChI=1S/C8H5NO2/c9-5-6-1-3-7(4-2-6)8(10)11/h1-4H,(H,10,11)
computed SMILES=N#CC1=CC=C(C=C1)C(=O)O
accession=JP000998
date=2016.01.19 (Created 2008.10.21, modified 2011.05.06)
author=TAJIMA S, GUNMA COLLEGE OF TECHNOLOGY
license=CC BY-NC-SA
exact mass=147.03203
ionization energy=70 eV
ion type=[M]+*
computed spectral entropy=2.30209294302515
computed normalized entropy=0.7151853840523379
SPLASH=splash10-0f8a-3900000000-418d21ad5a0f6a34519d
submitter=submitter = University of Tokyo Team (Faculty of Engineering, University of Tokyo)
MoNA Rating=3.75

>  <NUM PEAKS>  (6868) 
25

>  <MASS SPECTRAL PEAKS>  (6868) 
27 2.2
28 4.62
37 1.81
38 1.98
39 2.86
45 2.58
50 14.45
51 12.42
52 2.69
63 2.03
64 1.37
65 2.64
74 3.57
75 17.03
76 14.78
77 1.15
101 1.43
102 51.87
103 5.16
119 3.02
120 3.57
130 99.99
131 8.24
147 55.27
148 4.4

$$$$

     RDKit          2D

 15 15  0  0  0  0  0  0  0  0999 V2000
   -4.5417    2.6398    0.0000 C   0  0  0  0  0  0  0  0  0  0  0  0
   -3.2538    0.3834    0.0000 C   0  0  0  0  0  0  0  0  0  0  0  0
    7.1567    0.3603    0.0000 C   0  0  0  0  0  0  0  0  0  0  0  0
    3.2487    2.6078    0.0000 C   0  0  0  0  0  0  0  0  0  0  0  0
    1.9352    0.3830    0.0000 C   0  0  0  0  0  0  0  0  0  0  0  0
    4.5332    1.8830    0.0000 C   0  0  0  0  0  0  0  0  0  0  0  0
    3.2597   -0.4112    0.0000 C   0  0  0  0  0  0  0  0  0  0  0  0
   -1.9437    2.6270    0.0000 C   0  0  0  0  0  0  0  0  0  0  0  0
   -3.2464    1.8834    0.0000 C   0  0  0  0  0  0  0  0  0  0  0  0
    1.9497    1.8578    0.0000 C   0  0  0  0  0  0  0  0  0  0  0  0
    4.5587    0.3388    0.0000 C   0  0  0  0  0  0  0  0  0  0  0  0
    0.6544    2.6142    0.0000 C   0  0  0  0  0  0  0  0  0  0  0  0
    0.6617    4.1142    0.0000 O   0  0  0  0  0  0  0  0  0  0  0  0
    5.8639   -0.4004    0.0000 O   0  0  0  0  0  0  0  0  0  0  0  0
   -0.6484    1.8706    0.0000 O   0  0  0  0  0  0  0  0  0  0  0  0
  6  4  2  0
  7  5  1  0
  9  1  1  0
  9  2  1  0
  9  8  1  0
 10  4  1  0
 10  5  2  0
 11  6  1  0
 11  7  2  0
 12 10  1  0
 13 12  2  0
 14  3  1  0
 14 11  1  0
 15  8  1  0
 15 12  1  0
M  END
>  <NAME>  (6869) 
PARA-METHOXYBENZOIC ACID ISOBUTYL ESTER

>  <SYNONYMS>  (6869) 
ISOBUTYL PARA-METHOXYBENZOATE

>  <SPECTRUM TYPE>  (6869) 
MS1

>  <INSTRUMENT TYPE>  (6869) 
EI-B

>  <INSTRUMENT>  (6869) 
HITACHI RMU-7M

>  <ION MODE>  (6869) 
P

>  <INCHIKEY>  (6869) 
HQYSDZUOGBUYJA-UHFFFAOYSA-N

>  <FORMULA>  (6869) 
C12H16O3

>  <EXACT MASS>  (6869) 
208.109944372

>  <MW>  (6869) 
208

>  <ID>  (6869) 
JP000997

>  <CONTRIBUTOR>  (6869) 
University of Tokyo Team, {Faculty of Engineering, University of Tokyo

>  <COMMENT>  (6869) 
SMILES=COc(c1)ccc(c1)C(=O)OCC(C)C
InChI=InChI=1S/C12H16O3/c1-9(2)8-15-12(13)10-4-6-11(14-3)7-5-10/h4-7,9H,8H2,1-3H3
computed SMILES=O=C(OCC(C)C)C1=CC=C(OC)C=C1
accession=JP000997
date=2016.01.19 (Created 2008.10.21, modified 2011.05.06)
author=TAJIMA S, GUNMA COLLEGE OF TECHNOLOGY
license=CC BY-NC-SA
exact mass=208.10994
ionization energy=70 eV
ion type=[M]+*
computed spectral entropy=2.1798205951820058
computed normalized entropy=0.6541677104528597
SPLASH=splash10-0f79-3900000000-e7e6d59561043f2affd8
submitter=submitter = University of Tokyo Team (Faculty of Engineering, University of Tokyo)
MoNA Rating=3.75

>  <NUM PEAKS>  (6869) 
28

>  <MASS SPECTRAL PEAKS>  (6869) 
27 2.49
28 2.18
29 4.98
39 2.8
41 5.91
42 1.24
43 2.8
50 1.87
51 1.24
56 2.18
57 2.05
63 2.99
64 5.47
65 1.37
76 1.87
77 13.81
78 1.37
92 8.71
93 1
107 8.21
108 1.06
135 99.99
136 9.64
137 1.12
152 68.41
153 9.2
208 4.29
209 0.62

$$$$

     RDKit          2D

  9  9  0  0  0  0  0  0  0  0999 V2000
   -2.9228    0.8825    0.0000 C   0  0  0  0  0  0  0  0  0  0  0  0
    2.2733   -0.6175    0.0000 C   0  0  0  0  0  0  0  0  0  0  0  0
    2.2738    0.8833    0.0000 C   0  0  0  0  0  0  0  0  0  0  0  0
    0.9738   -1.3683    0.0000 C   0  0  0  0  0  0  0  0  0  0  0  0
    0.9748    1.6333    0.0000 C   0  0  0  0  0  0  0  0  0  0  0  0
   -0.3252   -0.6183    0.0000 C   0  0  0  0  0  0  0  0  0  0  0  0
   -1.6238    1.6325    0.0000 C   0  0  0  0  0  0  0  0  0  0  0  0
   -0.3248    0.8825    0.0000 C   0  0  0  0  0  0  0  0  0  0  0  0
   -1.6238    3.1325    0.0000 O   0  0  0  0  0  0  0  0  0  0  0  0
  3  2  2  0
  4  2  1  0
  5  3  1  0
  6  4  2  0
  7  1  1  0
  8  5  2  0
  8  6  1  0
  8  7  1  0
  9  7  1  0
M  END
>  <NAME>  (6870) 
DL-ALPHA-PHENYLETHYL ALCOHOL

>  <SYNONYMS>  (6870) 


>  <SPECTRUM TYPE>  (6870) 
MS1

>  <INSTRUMENT TYPE>  (6870) 
EI-B

>  <INSTRUMENT>  (6870) 
HITACHI RMU-7M

>  <ION MODE>  (6870) 
P

>  <INCHIKEY>  (6870) 
WAPNOHKVXSQRPX-UHFFFAOYSA-N

>  <FORMULA>  (6870) 
C8H10O

>  <EXACT MASS>  (6870) 
122.07316494

>  <MW>  (6870) 
122

>  <ID>  (6870) 
JP000996

>  <CONTRIBUTOR>  (6870) 
University of Tokyo Team, {Faculty of Engineering, University of Tokyo

>  <COMMENT>  (6870) 
SMILES=CC(O)c(c1)cccc1
InChI=InChI=1S/C8H10O/c1-7(9)8-5-3-2-4-6-8/h2-7,9H,1H3
computed SMILES=OC(C=1C=CC=CC1)C
accession=JP000996
date=2016.01.19 (Created 2008.10.21, modified 2011.05.06)
author=TAJIMA S, GUNMA COLLEGE OF TECHNOLOGY
license=CC BY-NC-SA
exact mass=122.07316
ionization energy=70 eV
ion type=[M]+*
computed spectral entropy=2.5890747570992065
computed normalized entropy=0.761224494367314
SPLASH=splash10-056r-9500000000-61e44f8631f9ac4d265a
submitter=submitter = University of Tokyo Team (Faculty of Engineering, University of Tokyo)
MoNA Rating=3.75

>  <NUM PEAKS>  (6870) 
30

>  <MASS SPECTRAL PEAKS>  (6870) 
15 1.86
27 4.87
28 3.54
29 1.95
39 6.38
43 34.37
45 4.52
50 7
51 19.49
52 4.34
53 2.66
53.5 9.92
63 2.48
65 1.51
74 2.21
75 2.04
76 1.77
77 39.86
78 19.57
79 76.97
80 4.61
91 1.95
103 4.34
104 4.52
105 8.68
107 99.99
108 7.53
121 5.14
122 24.8
123 2.39

$$$$

     RDKit          2D

 14 15  0  0  0  0  0  0  0  0999 V2000
    2.5986    1.0700    0.0000 C   0  0  0  0  0  0  0  0  0  0  0  0
   -5.1957    1.0700    0.0000 C   0  0  0  0  0  0  0  0  0  0  0  0
    2.5990    2.5708    0.0000 C   0  0  0  0  0  0  0  0  0  0  0  0
    1.2990    0.3192    0.0000 C   0  0  0  0  0  0  0  0  0  0  0  0
   -3.8962    0.3192    0.0000 C   0  0  0  0  0  0  0  0  0  0  0  0
   -5.1962    2.5708    0.0000 C   0  0  0  0  0  0  0  0  0  0  0  0
    1.3000    3.3208    0.0000 C   0  0  0  0  0  0  0  0  0  0  0  0
    0.0000    1.0692    0.0000 C   0  0  0  0  0  0  0  0  0  0  0  0
   -2.5971    1.0692    0.0000 C   0  0  0  0  0  0  0  0  0  0  0  0
   -3.8971    3.3208    0.0000 C   0  0  0  0  0  0  0  0  0  0  0  0
    0.0005    2.5700    0.0000 C   0  0  0  0  0  0  0  0  0  0  0  0
   -2.5976    2.5700    0.0000 C   0  0  0  0  0  0  0  0  0  0  0  0
   -1.2986    3.3200    0.0000 C   0  0  0  0  0  0  0  0  0  0  0  0
   -1.2986    4.8200    0.0000 O   0  0  0  0  0  0  0  0  0  0  0  0
  3  1  2  0
  4  1  1  0
  5  2  2  0
  6  2  1  0
  7  3  1  0
  8  4  2  0
  9  5  1  0
 10  6  2  0
 11  7  2  0
 11  8  1  0
 12  9  2  0
 12 10  1  0
 13 11  1  0
 13 12  1  0
 14 13  1  0
M  END
>  <NAME>  (6871) 
BENZHYDROL

>  <SYNONYMS>  (6871) 
DI-PHENYLMETHYL ALCOHOL

>  <SPECTRUM TYPE>  (6871) 
MS1

>  <INSTRUMENT TYPE>  (6871) 
EI-B

>  <INSTRUMENT>  (6871) 
HITACHI RMU-7M

>  <ION MODE>  (6871) 
P

>  <INCHIKEY>  (6871) 
QILSFLSDHQAZET-UHFFFAOYSA-N

>  <FORMULA>  (6871) 
C13H12O

>  <EXACT MASS>  (6871) 
184.088815004

>  <MW>  (6871) 
184

>  <ID>  (6871) 
JP000995

>  <CONTRIBUTOR>  (6871) 
University of Tokyo Team, {Faculty of Engineering, University of Tokyo

>  <COMMENT>  (6871) 
SMILES=c(c2)ccc(c2)C(O)c(c1)cccc1
InChI=InChI=1S/C13H12O/c14-13(11-7-3-1-4-8-11)12-9-5-2-6-10-12/h1-10,13-14H
computed SMILES=OC(C=1C=CC=CC1)C=2C=CC=CC2
exact mass=184.08882
accession=JP000995
date=2016.01.19 (Created 2008.10.21, modified 2011.05.06)
author=TAJIMA S, GUNMA COLLEGE OF TECHNOLOGY
license=CC BY-NC-SA
ionization energy=70 eV
ion type=[M]+*
computed spectral entropy=2.452667183306353
computed normalized entropy=0.7283788853550789
SPLASH=splash10-0a6r-6900000000-22e1ecfc67526e625625
submitter=submitter = University of Tokyo Team (Faculty of Engineering, University of Tokyo)
MoNA Rating=3.75

>  <NUM PEAKS>  (6871) 
29

>  <MASS SPECTRAL PEAKS>  (6871) 
27 1.46
39 2.48
50 2.63
51 11.09
52 2.19
63 1.82
75 1.46
76 2.19
77 35.77
78 43.72
79 25.55
82 1.61
82.5 2.19
83 1.61
105 99.99
106 10.22
107 12.63
115 1.17
152 2.92
153 1.46
155 1.61
165 7.59
166 2.55
167 3.5
168 1.46
182 1.09
183 15.55
184 29.49
185 3.65

$$$$

     RDKit          2D

  9  9  0  0  0  0  0  0  0  0999 V2000
    2.9228   -0.2425    0.0000 C   0  0  0  0  0  0  0  0  0  0  0  0
    2.9233    1.2583    0.0000 C   0  0  0  0  0  0  0  0  0  0  0  0
    1.6233   -0.9933    0.0000 C   0  0  0  0  0  0  0  0  0  0  0  0
    1.6243    2.0083    0.0000 C   0  0  0  0  0  0  0  0  0  0  0  0
    0.3243   -0.2433    0.0000 C   0  0  0  0  0  0  0  0  0  0  0  0
   -0.9743    2.0075    0.0000 C   0  0  0  0  0  0  0  0  0  0  0  0
   -2.2733    1.2575    0.0000 C   0  0  0  0  0  0  0  0  0  0  0  0
    0.3248    1.2575    0.0000 C   0  0  0  0  0  0  0  0  0  0  0  0
   -3.5724    2.0075    0.0000 O   0  0  0  0  0  0  0  0  0  0  0  0
  2  1  2  0
  3  1  1  0
  4  2  1  0
  5  3  2  0
  7  6  1  0
  8  4  2  0
  8  5  1  0
  8  6  1  0
  9  7  1  0
M  END
>  <NAME>  (6872) 
2-PHENYLETHANOL

>  <SYNONYMS>  (6872) 
BETA-PHENYLETHYL ALCOHOL

>  <SPECTRUM TYPE>  (6872) 
MS1

>  <INSTRUMENT TYPE>  (6872) 
EI-B

>  <INSTRUMENT>  (6872) 
HITACHI RMU-7M

>  <ION MODE>  (6872) 
P

>  <INCHIKEY>  (6872) 
WRMNZCZEMHIOCP-UHFFFAOYSA-N

>  <FORMULA>  (6872) 
C8H10O

>  <EXACT MASS>  (6872) 
122.07316494

>  <MW>  (6872) 
122

>  <ID>  (6872) 
JP000994

>  <CONTRIBUTOR>  (6872) 
University of Tokyo Team, {Faculty of Engineering, University of Tokyo

>  <COMMENT>  (6872) 
SMILES=OCCc(c1)cccc1
InChI=InChI=1S/C8H10O/c9-7-6-8-4-2-1-3-5-8/h1-5,9H,6-7H2
computed SMILES=OCCC=1C=CC=CC1
accession=JP000994
date=2016.01.19 (Created 2008.10.21, modified 2011.05.06)
author=TAJIMA S, GUNMA COLLEGE OF TECHNOLOGY
license=CC BY-NC-SA
exact mass=122.07316
ionization energy=70 eV
ion type=[M]+*
computed spectral entropy=1.973039829648161
computed normalized entropy=0.6586168754350811
SPLASH=splash10-0006-9100000000-850cab93c17d62d7ae48
submitter=submitter = University of Tokyo Team (Faculty of Engineering, University of Tokyo)
MoNA Rating=3.75

>  <NUM PEAKS>  (6872) 
20

>  <MASS SPECTRAL PEAKS>  (6872) 
27 1.83
28 2.57
31 4.86
39 8.62
41 2.57
50 2.29
51 6.32
52 1.37
63 3.48
65 17.42
77 4.12
78 3.67
89 1.83
91 99.99
92 61.87
93 4.12
103 1.83
104 1.28
122 21.72
123 1.65

$$$$

     RDKit          2D

 15 14  0  0  0  0  0  0  0  0999 V2000
   -4.2219    0.1875    0.0000 C   0  0  0  0  0  0  0  0  0  0  0  0
   -1.6238    0.1875    0.0000 C   0  0  0  0  0  0  0  0  0  0  0  0
   -0.3248    5.4375    0.0000 C   0  0  0  0  0  0  0  0  0  0  0  0
    0.4252    4.1385    0.0000 H   0  0  0  0  0  0  0  0  0  0  0  0
    0.9743    6.1875    0.0000 H   0  0  0  0  0  0  0  0  0  0  0  0
   -1.0748    6.7365    0.0000 H   0  0  0  0  0  0  0  0  0  0  0  0
   -2.9228    5.4375    0.0000 C   0  0  0  0  0  0  0  0  0  0  0  0
   -2.1728    6.7365    0.0000 H   0  0  0  0  0  0  0  0  0  0  0  0
   -4.2219    6.1875    0.0000 H   0  0  0  0  0  0  0  0  0  0  0  0
   -3.6728    4.1385    0.0000 H   0  0  0  0  0  0  0  0  0  0  0  0
   -2.9228    0.9375    0.0000 C   0  0  0  0  0  0  0  0  0  0  0  0
   -1.6238    4.6875    0.0000 C   0  0  0  0  0  0  0  0  0  0  0  0
   -2.9228    2.4375    0.0000 C   0  0  0  0  0  0  0  0  0  0  0  0
   -4.2219    3.1875    0.0000 O   0  0  0  0  0  0  0  0  0  0  0  0
   -1.6238    3.1875    0.0000 O   0  0  0  0  0  0  0  0  0  0  0  0
  3  4  1  0
  3  5  1  0
  3  6  1  0
  7  8  1  0
  7  9  1  0
  7 10  1  0
 11  1  2  0
 11  2  1  0
 12  3  1  0
 12  7  1  0
 13 11  1  0
 14 13  2  0
 15 12  1  0
 15 13  1  0
M  ISO  6   4   2   5   2   6   2   8   2   9   2  10   2
M  END
>  <NAME>  (6873) 
METHACRYLIC ACID ISOPROPYL ESTER-D6

>  <SYNONYMS>  (6873) 
ISOPROPYL METHACRYLATE-D6

>  <SPECTRUM TYPE>  (6873) 
MS1

>  <INSTRUMENT TYPE>  (6873) 
EI-B

>  <INSTRUMENT>  (6873) 
HITACHI RMU-5B

>  <ION MODE>  (6873) 
P

>  <INCHIKEY>  (6873) 
BOQSSGDQNWEFSX-LIJFRPJRSA-N

>  <FORMULA>  (6873) 
C7H12O2

>  <EXACT MASS>  (6873) 
134.12139009999999

>  <MW>  (6873) 
134

>  <ID>  (6873) 
JP000993

>  <CONTRIBUTOR>  (6873) 
University of Tokyo Team, {Faculty of Engineering, University of Tokyo

>  <COMMENT>  (6873) 
SMILES=[2H]C([2H])([2H])C([H])(C([2H])([2H])[2H])OC(=O)C(C)=C
InChI=InChI=1S/C7H12O2/c1-5(2)7(8)9-6(3)4/h6H,1H2,2-4H3/i3D3,4D3
computed SMILES=[H]C([H])([H])C(OC(=O)C(=C)C)C([H])([H])[H]
accession=JP000993
date=2016.01.19 (Created 2008.10.21, modified 2011.05.06)
author=TAJIMA S, GUNMA COLLEGE OF TECHNOLOGY
license=CC BY-NC-SA
exact mass=128.08373
ionization energy=70 eV
ion type=[M]+*
computed spectral entropy=2.7806154738219906
computed normalized entropy=0.7952551009658806
SPLASH=splash10-00kn-9000000000-af2134a62cd578e2fd10
submitter=submitter = University of Tokyo Team (Faculty of Engineering, University of Tokyo)
MoNA Rating=3.75

>  <NUM PEAKS>  (6873) 
33

>  <MASS SPECTRAL PEAKS>  (6873) 
15 4.94
18 11.92
26 2.38
27 3.49
29 18.91
30 17.89
31 1.96
33 2.9
37 2.47
38 5.88
39 46.25
40 10.99
41 86.46
42 13.46
43 5.2
44 2.98
45 19.59
46 18.48
47 10.22
48 10.22
49 99.99
50 2.81
65 17.89
69 75.21
70 7.84
71 2.81
72 1.87
87 5.96
88 4.6
89 31.35
90 1.87
116 1.87
134 2.07

$$$$

     RDKit          2D

 10  9  0  0  0  0  0  0  0  0999 V2000
   -4.4596    3.2243    0.0000 C   0  0  0  0  0  0  0  0  0  0  0  0
   -3.1606    0.9743    0.0000 C   0  0  0  0  0  0  0  0  0  0  0  0
    1.4865    1.9252    0.0000 C   0  0  0  0  0  0  0  0  0  0  0  0
   -0.0135    4.5233    0.0000 C   0  0  0  0  0  0  0  0  0  0  0  0
   -3.1606    2.4743    0.0000 C   0  0  0  0  0  0  0  0  0  0  0  0
    0.7365    3.2243    0.0000 C   0  0  0  0  0  0  0  0  0  0  0  0
    2.0356    3.9743    0.0000 H   0  0  0  0  0  0  0  0  0  0  0  0
   -1.8615    3.2243    0.0000 C   0  0  0  0  0  0  0  0  0  0  0  0
   -1.8615    4.7243    0.0000 O   0  0  0  0  0  0  0  0  0  0  0  0
   -0.5625    2.4743    0.0000 O   0  0  0  0  0  0  0  0  0  0  0  0
  6  7  1  0
  5  1  2  0
  5  2  1  0
  6  3  1  0
  6  4  1  0
  8  5  1  0
  9  8  2  0
 10  6  1  0
 10  8  1  0
M  ISO  1   7   2
M  END
>  <NAME>  (6874) 
METHACRYLIC ACID ISOPROPYL ESTER-D1

>  <SYNONYMS>  (6874) 
ISOPROPYL METHACRYLATE-D1

>  <SPECTRUM TYPE>  (6874) 
MS1

>  <INSTRUMENT TYPE>  (6874) 
EI-B

>  <INSTRUMENT>  (6874) 
HITACHI RMU-5B

>  <ION MODE>  (6874) 
P

>  <INCHIKEY>  (6874) 
BOQSSGDQNWEFSX-RAMDWTOOSA-N

>  <FORMULA>  (6874) 
C7H12O2

>  <EXACT MASS>  (6874) 
129.09000637

>  <MW>  (6874) 
129

>  <ID>  (6874) 
JP000992

>  <CONTRIBUTOR>  (6874) 
University of Tokyo Team, {Faculty of Engineering, University of Tokyo

>  <COMMENT>  (6874) 
SMILES=CC(=C)C(=O)OC([2H])(C)C
InChI=InChI=1S/C7H12O2/c1-5(2)7(8)9-6(3)4/h6H,1H2,2-4H3/i6D
computed SMILES=[H]C(OC(=O)C(=C)C)(C)C
accession=JP000992
date=2016.01.19 (Created 2008.10.21, modified 2011.05.06)
author=TAJIMA S, GUNMA COLLEGE OF TECHNOLOGY
license=CC BY-NC-SA
exact mass=128.08373
ionization energy=70 eV
ion type=[M]+*
computed spectral entropy=2.4781438284992685
computed normalized entropy=0.7286092368118332
SPLASH=splash10-0006-9000000000-3cb627ffb390219031de
submitter=submitter = University of Tokyo Team (Faculty of Engineering, University of Tokyo)
MoNA Rating=3.75

>  <NUM PEAKS>  (6874) 
30

>  <MASS SPECTRAL PEAKS>  (6874) 
15 1.75
27 1.16
28 5.58
29 9.19
30 1.22
31 1.45
33 2.04
37 1.4
38 3.49
39 39.27
40 14.54
41 88.37
42 29.9
43 16.87
44 99.99
45 3.2
46 5.81
58 1.16
59 4.94
60 14.53
68 1.74
69 99.94
70 5.99
71 3.55
84 1.74
86 4.53
87 45.93
88 3.37
114 3.55
129 3.08

$$$$

     RDKit          2D

 16 15  0  0  0  0  0  0  0  0999 V2000
    0.8967    7.6277    0.0000 C   0  0  0  0  0  0  0  0  0  0  0  0
    2.1958    5.3777    0.0000 C   0  0  0  0  0  0  0  0  0  0  0  0
   -3.0004    3.8777    0.0000 C   0  0  0  0  0  0  0  0  0  0  0  0
   -2.2504    5.1768    0.0000 H   0  0  0  0  0  0  0  0  0  0  0  0
   -4.2994    4.6277    0.0000 H   0  0  0  0  0  0  0  0  0  0  0  0
   -3.7504    2.5787    0.0000 H   0  0  0  0  0  0  0  0  0  0  0  0
   -0.7372    1.9787    0.0000 C   0  0  0  0  0  0  0  0  0  0  0  0
   -1.8862    1.0145    0.0000 H   0  0  0  0  0  0  0  0  0  0  0  0
    0.2270    0.8296    0.0000 H   0  0  0  0  0  0  0  0  0  0  0  0
    0.4119    2.9428    0.0000 H   0  0  0  0  0  0  0  0  0  0  0  0
    0.8967    6.1277    0.0000 C   0  0  0  0  0  0  0  0  0  0  0  0
   -1.7013    3.1277    0.0000 C   0  0  0  0  0  0  0  0  0  0  0  0
   -2.6655    1.9787    0.0000 H   0  0  0  0  0  0  0  0  0  0  0  0
   -0.4023    5.3777    0.0000 C   0  0  0  0  0  0  0  0  0  0  0  0
   -1.7013    6.1277    0.0000 O   0  0  0  0  0  0  0  0  0  0  0  0
   -0.4023    3.8777    0.0000 O   0  0  0  0  0  0  0  0  0  0  0  0
  3  4  1  0
  3  5  1  0
  3  6  1  0
  7  8  1  0
  7  9  1  0
  7 10  1  0
 12 13  1  0
 11  1  2  0
 11  2  1  0
 12  3  1  0
 12  7  1  0
 14 11  1  0
 15 14  2  0
 16 12  1  0
 16 14  1  0
M  ISO  7   4   2   5   2   6   2   8   2   9   2  10   2  13   2
M  END
>  <NAME>  (6875) 
METHACRYLIC ACID ISOPROPYL ESTER-D7

>  <SYNONYMS>  (6875) 
ISOPROPYL METHACRYLATE-D7

>  <SPECTRUM TYPE>  (6875) 
MS1

>  <INSTRUMENT TYPE>  (6875) 
EI-B

>  <INSTRUMENT>  (6875) 
HITACHI RMU-5B

>  <ION MODE>  (6875) 
P

>  <INCHIKEY>  (6875) 
BOQSSGDQNWEFSX-XHTSFSSMSA-N

>  <FORMULA>  (6875) 
C7H12O2

>  <EXACT MASS>  (6875) 
135.127666846

>  <MW>  (6875) 
135

>  <ID>  (6875) 
JP000991

>  <CONTRIBUTOR>  (6875) 
University of Tokyo Team, {Faculty of Engineering, University of Tokyo

>  <COMMENT>  (6875) 
SMILES=[2H]C([2H])([2H])C([2H])(C([2H])([2H])[2H])OC(=O)C(C)=C
InChI=InChI=1S/C7H12O2/c1-5(2)7(8)9-6(3)4/h6H,1H2,2-4H3/i3D3,4D3,6D
computed SMILES=[H]C(OC(=O)C(=C)C)(C([H])([H])[H])C([H])([H])[H]
accession=JP000991
date=2016.01.19 (Created 2008.10.21, modified 2011.05.06)
author=TAJIMA S, GUNMA COLLEGE OF TECHNOLOGY
license=CC BY-NC-SA
exact mass=128.08373
ionization energy=70 eV
ion type=[M]+*
computed spectral entropy=2.6584341162036305
computed normalized entropy=0.7477282308866137
SPLASH=splash10-0frf-9000000000-ed3bd461435f3053c69c
submitter=submitter = University of Tokyo Team (Faculty of Engineering, University of Tokyo)
MoNA Rating=3.75

>  <NUM PEAKS>  (6875) 
35

>  <MASS SPECTRAL PEAKS>  (6875) 
15 0.88
18 4.23
26 1.15
27 1.23
28 1.59
30 26.28
37 1.76
38 4.76
39 41.09
40 10.49
41 76.72
42 14.11
43 4.32
44 2.82
45 1.59
46 32.54
47 1.59
48 10.49
49 8.73
50 99.99
51 2.91
59 1.59
61 2.03
65 3
66 11.73
69 79.72
70 3.97
71 4.23
72 2.03
87 4.76
88 2.29
89 32.98
90 2.82
117 2.56
135 5.11

$$$$

     RDKit          2D

 13 13  0  0  1  0  0  0  0  0999 V2000
   -2.6089    1.7702    0.0000 C   0  0  0  0  0  0  0  0  0  0  0  0
    3.9081   -0.4716    0.0000 C   0  0  0  0  0  0  0  0  0  0  0  0
    2.6013    3.2745    0.0000 C   0  0  0  0  0  0  0  0  0  0  0  0
   -1.3100    1.0200    0.0000 C   0  0  0  0  0  0  0  0  0  0  0  0
   -1.3100   -0.4700    0.0000 C   0  0  0  0  0  0  0  0  0  0  0  0
   -0.0100   -1.2300    0.0000 C   0  0  0  0  0  0  0  0  0  0  0  0
    1.3100   -0.4700    0.0000 C   0  0  0  0  0  0  0  0  0  0  0  0
    1.3100    1.0200    0.0000 C   0  0  0  0  0  0  0  0  0  0  0  0
   -2.6111   -1.2165    0.0000 O   0  0  0  0  0  0  0  0  0  0  0  0
   -0.0150   -2.7300    0.0000 O   0  0  0  0  0  0  0  0  0  0  0  0
    2.6086   -1.2208    0.0000 O   0  0  0  0  0  0  0  0  0  0  0  0
    2.6064    1.7745    0.0000 O   0  0  0  0  0  0  0  0  0  0  0  0
   -0.0100    1.7700    0.0000 O   0  0  0  0  0  0  0  0  0  0  0  0
  4  1  1  1
  5  4  1  0
  6  5  1  0
  7  6  1  0
  8  7  1  0
  5  9  1  1
  6 10  1  1
 11  2  1  0
  7 11  1  6
 12  3  1  0
  8 12  1  6
 13  4  1  0
 13  8  1  0
M  END
>  <NAME>  (6876) 
METHYL-2-O-METHYLFUCOSIDE

>  <SYNONYMS>  (6876) 


>  <SPECTRUM TYPE>  (6876) 
MS1

>  <INSTRUMENT TYPE>  (6876) 
EI-B

>  <INSTRUMENT>  (6876) 
SHIMADZU LKB-9000

>  <ION MODE>  (6876) 
P

>  <INCHIKEY>  (6876) 
ZIRPXMSHWUAJJI-HNEXDWKRSA-N

>  <FORMULA>  (6876) 
C8H16O5

>  <EXACT MASS>  (6876) 
192.099773612

>  <MW>  (6876) 
192

>  <ID>  (6876) 
JP000985

>  <CONTRIBUTOR>  (6876) 
University of Tokyo Team, {Faculty of Engineering, University of Tokyo

>  <COMMENT>  (6876) 
SMILES=COC(O1)C(OC)C(O)C(O)C(C)1
InChI=InChI=1S/C8H16O5/c1-4-5(9)6(10)7(11-2)8(12-3)13-4/h4-10H,1-3H3/t4-,5+,6+,7-,8+/m1/s1
computed SMILES=OC1C(O)C(OC)C(OC)OC1C
accession=JP000985
date=2016.01.19 (Created 2008.10.21, modified 2011.05.06)
author=HORI T, DEPT. OF CHEMISTRY, FAC. OF LIBERAL ARTS AND EDUCATION, SHIGA UNIV.
license=CC BY-NC-SA
exact mass=192.09977
ionization energy=70 eV
ion type=[M]+*
computed spectral entropy=2.9292345849614554
computed normalized entropy=0.8174184747642103
SPLASH=splash10-00dr-9000000000-4a44f1f007be3b782597
submitter=submitter = University of Tokyo Team (Faculty of Engineering, University of Tokyo)
MoNA Rating=3.75

>  <NUM PEAKS>  (6876) 
36

>  <MASS SPECTRAL PEAKS>  (6876) 
41 10
42 6
43 17
44 2
45 31
53 2
55 8
56 2.5
57 16
58 9
59 14
60 3
61 10
69 4
70 1.5
71 17.5
72 5
73 12.5
74 99.99
75 18
83 3
85 15
86 2
87 36.5
88 31
89 5
99 3
101 13.5
102 1.5
111 1
114 1.5
115 1.5
116 1.5
117 7
130 4
161 2

$$$$

     RDKit          2D

 15 15  0  0  1  0  0  0  0  0999 V2000
   -3.9076    4.0204    0.0000 C   0  0  0  0  0  0  0  0  0  0  0  0
   -2.6151   -2.7165    0.0000 C   0  0  0  0  0  0  0  0  0  0  0  0
    3.9081    1.0290    0.0000 C   0  0  0  0  0  0  0  0  0  0  0  0
   -2.6089    1.7702    0.0000 C   0  0  0  0  0  0  0  0  0  0  0  0
   -1.3100    1.0200    0.0000 C   0  0  0  0  0  0  0  0  0  0  0  0
   -0.0100   -1.2300    0.0000 C   0  0  0  0  0  0  0  0  0  0  0  0
    1.3100   -0.4700    0.0000 C   0  0  0  0  0  0  0  0  0  0  0  0
   -1.3100   -0.4700    0.0000 C   0  0  0  0  0  0  0  0  0  0  0  0
    1.3100    1.0200    0.0000 C   0  0  0  0  0  0  0  0  0  0  0  0
   -0.0150   -2.7300    0.0000 O   0  0  0  0  0  0  0  0  0  0  0  0
    2.6086   -1.2208    0.0000 O   0  0  0  0  0  0  0  0  0  0  0  0
   -2.6087    3.2702    0.0000 O   0  0  0  0  0  0  0  0  0  0  0  0
   -2.6111   -1.2165    0.0000 O   0  0  0  0  0  0  0  0  0  0  0  0
    2.6064    1.7745    0.0000 O   0  0  0  0  0  0  0  0  0  0  0  0
   -0.0100    1.7700    0.0000 O   0  0  0  0  0  0  0  0  0  0  0  0
  5  4  1  1
  7  6  1  0
  8  5  1  0
  8  6  1  0
  9  7  1  0
  6 10  1  1
  7 11  1  1
 12  1  1  0
 12  4  1  0
 13  2  1  0
  8 13  1  6
 14  3  1  0
  9 14  1  6
 15  5  1  0
 15  9  1  0
M  END
>  <NAME>  (6877) 
METHYL-4,6-DI-O-METHYLMANNOSIDE

>  <SYNONYMS>  (6877) 


>  <SPECTRUM TYPE>  (6877) 
MS1

>  <INSTRUMENT TYPE>  (6877) 
EI-B

>  <INSTRUMENT>  (6877) 
SHIMADZU LKB-9000

>  <ION MODE>  (6877) 
P

>  <INCHIKEY>  (6877) 
UKSOTSKNRMTYIO-ZEBDFXRSSA-N

>  <FORMULA>  (6877) 
C9H18O6

>  <EXACT MASS>  (6877) 
222.11033829599998

>  <MW>  (6877) 
222

>  <ID>  (6877) 
JP000984

>  <CONTRIBUTOR>  (6877) 
University of Tokyo Team, {Faculty of Engineering, University of Tokyo

>  <COMMENT>  (6877) 
SMILES=COCC(O1)C(OC)C(O)C(O)C(OC)1
InChI=InChI=1S/C9H18O6/c1-12-4-5-8(13-2)6(10)7(11)9(14-3)15-5/h5-11H,4H2,1-3H3/t5-,6-,7+,8-,9+/m1/s1
computed SMILES=OC1C(OC)OC(COC)C(OC)C1O
accession=JP000984
date=2016.01.19 (Created 2008.10.21, modified 2011.05.06)
author=HORI T, DEPT. OF CHEMISTRY, FAC. OF LIBERAL ARTS AND EDUCATION, SHIGA UNIV.
license=CC BY-NC-SA
exact mass=222.11034
ionization energy=70 eV
ion type=[M]+*
computed spectral entropy=3.0917822679660882
computed normalized entropy=0.7944308912379806
SPLASH=splash10-00dj-9100000000-ddb95e88f1caebf0b63f
submitter=submitter = University of Tokyo Team (Faculty of Engineering, University of Tokyo)
MoNA Rating=3.75

>  <NUM PEAKS>  (6877) 
49

>  <MASS SPECTRAL PEAKS>  (6877) 
41 21
42 8
43 14
44 4
45 98
53 3
55 6
56 4
57 10
58 12
59 20
60 15
61 8
69 10
70 6
71 99.99
72 14
73 14
74 95
75 40
76 1.5
81 2
85 10
86 2
87 74
88 16
89 6
97 1
99 10
100 2
101 20
102 26
103 6
105 1
111 2.5
112 2.5
113 2.5
115 2
116 2
117 4.5
118 4
119 3
127 4
130 3
131 3
145 2
147 1.5
149 16
159 2.5

$$$$

     RDKit          2D

 16 16  0  0  1  0  0  0  0  0999 V2000
   -3.9076    4.0204    0.0000 C   0  0  0  0  0  0  0  0  0  0  0  0
   -2.6151   -2.7165    0.0000 C   0  0  0  0  0  0  0  0  0  0  0  0
    1.2816   -3.4843    0.0000 C   0  0  0  0  0  0  0  0  0  0  0  0
    3.9081    1.0290    0.0000 C   0  0  0  0  0  0  0  0  0  0  0  0
   -2.6089    1.7702    0.0000 C   0  0  0  0  0  0  0  0  0  0  0  0
   -1.3100    1.0200    0.0000 C   0  0  0  0  0  0  0  0  0  0  0  0
    1.3100   -0.4700    0.0000 C   0  0  0  0  0  0  0  0  0  0  0  0
   -1.3100   -0.4700    0.0000 C   0  0  0  0  0  0  0  0  0  0  0  0
   -0.0100   -1.2300    0.0000 C   0  0  0  0  0  0  0  0  0  0  0  0
    1.3100    1.0200    0.0000 C   0  0  0  0  0  0  0  0  0  0  0  0
    2.6086   -1.2208    0.0000 O   0  0  0  0  0  0  0  0  0  0  0  0
   -2.6087    3.2702    0.0000 O   0  0  0  0  0  0  0  0  0  0  0  0
   -2.6111   -1.2165    0.0000 O   0  0  0  0  0  0  0  0  0  0  0  0
   -0.0150   -2.7300    0.0000 O   0  0  0  0  0  0  0  0  0  0  0  0
    2.6064    1.7745    0.0000 O   0  0  0  0  0  0  0  0  0  0  0  0
   -0.0100    1.7700    0.0000 O   0  0  0  0  0  0  0  0  0  0  0  0
  6  5  1  1
  8  6  1  0
  9  7  1  0
  9  8  1  0
 10  7  1  0
  7 11  1  1
 12  1  1  0
 12  5  1  0
 13  2  1  0
  8 13  1  6
 14  3  1  0
  9 14  1  1
 15  4  1  0
 10 15  1  6
 16  6  1  0
 16 10  1  0
M  END
>  <NAME>  (6878) 
METHYL-3,4,6-TRI-O-METHYLMANNOSIDE

>  <SYNONYMS>  (6878) 


>  <SPECTRUM TYPE>  (6878) 
MS1

>  <INSTRUMENT TYPE>  (6878) 
EI-B

>  <INSTRUMENT>  (6878) 
SHIMADZU LKB-9000

>  <ION MODE>  (6878) 
P

>  <INCHIKEY>  (6878) 
MJCQVUQCEVACLB-ZOZBQHSOSA-N

>  <FORMULA>  (6878) 
C10H20O6

>  <EXACT MASS>  (6878) 
236.12598835999998

>  <MW>  (6878) 
236

>  <ID>  (6878) 
JP000983

>  <CONTRIBUTOR>  (6878) 
University of Tokyo Team, {Faculty of Engineering, University of Tokyo

>  <COMMENT>  (6878) 
SMILES=COCC(O1)C(OC)C(OC)C(O)C(OC)1
InChI=InChI=1S/C10H20O6/c1-12-5-6-8(13-2)9(14-3)7(11)10(15-4)16-6/h6-11H,5H2,1-4H3/t6-,7+,8-,9-,10+/m1/s1
computed SMILES=OC1C(OC)OC(COC)C(OC)C1OC
accession=JP000983
date=2016.01.19 (Created 2008.10.21, modified 2011.05.06)
author=HORI T, DEPT. OF CHEMISTRY, FAC. OF LIBERAL ARTS AND EDUCATION, SHIGA UNIV.
license=CC BY-NC-SA
exact mass=236.12599
ionization energy=70 eV
ion type=[M]+*
computed spectral entropy=3.222520353732557
computed normalized entropy=0.7870662336204594
SPLASH=splash10-00g0-9100000000-8e2a689b79c3cf5e0aad
submitter=submitter = University of Tokyo Team (Faculty of Engineering, University of Tokyo)
MoNA Rating=3.75

>  <NUM PEAKS>  (6878) 
60

>  <MASS SPECTRAL PEAKS>  (6878) 
41 22
42 5.5
43 14
44 5
45 76
46 1
47 2
53 5
54 1.5
55 8
56 3
57 9
58 14
59 20
60 1.5
61 3
67 1
68 4
69 8
70 1
71 99.99
72 10
73 17
74 61
75 98
76 2
81 3.5
82 1.5
83 3
84 4
85 12
86 1.5
87 34
88 68
89 28
97 1.5
99 11
100 2
101 38
102 13
103 2
111 4
112 4
113 1.5
114 1
115 8
116 1
117 7
118 1
127 15
130 2
131 4
141 1.5
143 1.5
144 1
149 2
159 6
161 18
172 2
173 2

$$$$

     RDKit          2D

 13 13  0  0  1  0  0  0  0  0999 V2000
   -4.1581   -0.3004    0.0000 C   0  0  0  0  0  0  0  0  0  0  0  0
    1.0390   -3.3000    0.0000 C   0  0  0  0  0  0  0  0  0  0  0  0
    2.3387    3.4502    0.0000 C   0  0  0  0  0  0  0  0  0  0  0  0
   -1.5600    1.2000    0.0000 C   0  0  0  0  0  0  0  0  0  0  0  0
   -1.5600   -0.3000    0.0000 C   0  0  0  0  0  0  0  0  0  0  0  0
    1.0400   -0.3000    0.0000 C   0  0  0  0  0  0  0  0  0  0  0  0
   -0.2600   -1.0500    0.0000 C   0  0  0  0  0  0  0  0  0  0  0  0
    1.0400    1.2000    0.0000 C   0  0  0  0  0  0  0  0  0  0  0  0
    2.3389   -1.0502    0.0000 O   0  0  0  0  0  0  0  0  0  0  0  0
   -2.8589   -1.0502    0.0000 O   0  0  0  0  0  0  0  0  0  0  0  0
   -0.2600   -2.5500    0.0000 O   0  0  0  0  0  0  0  0  0  0  0  0
    2.3389    1.9502    0.0000 O   0  0  0  0  0  0  0  0  0  0  0  0
   -0.2600    1.9500    0.0000 O   0  0  0  0  0  0  0  0  0  0  0  0
  5  4  1  0
  7  5  1  0
  7  6  1  0
  8  6  1  0
  6  9  1  6
 10  1  1  0
  5 10  1  6
 11  2  1  0
  7 11  1  1
 12  3  1  0
 12  8  1  0
 13  4  1  0
 13  8  1  0
M  END
>  <NAME>  (6879) 
METHYL-3,4-DI-O-METHYLXYLOSIDE

>  <SYNONYMS>  (6879) 


>  <SPECTRUM TYPE>  (6879) 
MS1

>  <INSTRUMENT TYPE>  (6879) 
EI-B

>  <INSTRUMENT>  (6879) 
SHIMADZU LKB-9000

>  <ION MODE>  (6879) 
P

>  <INCHIKEY>  (6879) 
VXOPRCAXQLGBIS-HBFKVTOISA-N

>  <FORMULA>  (6879) 
C8H16O5

>  <EXACT MASS>  (6879) 
192.09977361199998

>  <MW>  (6879) 
192

>  <ID>  (6879) 
JP000982

>  <CONTRIBUTOR>  (6879) 
University of Tokyo Team, {Faculty of Engineering, University of Tokyo

>  <COMMENT>  (6879) 
SMILES=COC(C1)C(OC)C(O)C(OC)O1
InChI=InChI=1S/C8H16O5/c1-10-5-4-13-8(12-3)6(9)7(5)11-2/h5-9H,4H2,1-3H3/t5-,6-,7+,8?/m1/s1
computed SMILES=OC1C(OC)OCC(OC)C1OC
accession=JP000982
date=2016.01.19 (Created 2008.10.21, modified 2011.05.06)
author=HORI T, DEPT. OF CHEMISTRY, FAC. OF LIBERAL ARTS AND EDUCATION, SHIGA UNIV.
license=CC BY-NC-SA
exact mass=192.09977
ionization energy=70 eV
ion type=[M]+*
computed spectral entropy=3.0246913677372143
computed normalized entropy=0.8041825148086978
SPLASH=splash10-05i9-9000000000-b983cf373e93d4f33bd8
submitter=submitter = University of Tokyo Team (Faculty of Engineering, University of Tokyo)
MoNA Rating=3.75

>  <NUM PEAKS>  (6879) 
43

>  <MASS SPECTRAL PEAKS>  (6879) 
41 24
42 8
43 18.5
44 4
45 36
47 2
53 1
54 0.5
55 10
56 5.5
57 10
58 39
59 30
60 2
61 4
68 8
69 16.5
70 4
71 34.5
72 6
73 12
74 99.99
75 68
76 3
83 2
85 5
87 56.5
88 22
89 3
97 2
99 4
100 8.5
101 16
102 1
114 2
115 1
128 2
129 2
130 3
131 1
160 1
161 13
162 1

$$$$

     RDKit          2D

 20 20  0  0  0  0  0  0  0  0999 V2000
   -5.1109    4.0281    0.0000 C   0  0  0  0  0  0  0  0  0  0  0  0
   -7.1600    3.4791    0.0000 C   0  0  0  0  0  0  0  0  0  0  0  0
   -6.6109    1.4301    0.0000 C   0  0  0  0  0  0  0  0  0  0  0  0
    1.9328   -0.2717    0.0000 C   0  0  0  0  0  0  0  0  0  0  0  0
    0.6338    0.4783    0.0000 C   0  0  0  0  0  0  0  0  0  0  0  0
   -1.9638    1.9791    0.0000 C   0  0  0  0  0  0  0  0  0  0  0  0
   -3.2628    2.7291    0.0000 C   0  0  0  0  0  0  0  0  0  0  0  0
    3.2328    1.9799    0.0000 C   0  0  0  0  0  0  0  0  0  0  0  0
    3.2324    0.4791    0.0000 C   0  0  0  0  0  0  0  0  0  0  0  0
    0.6343    1.9791    0.0000 C   0  0  0  0  0  0  0  0  0  0  0  0
    1.9338    2.7299    0.0000 C   0  0  0  0  0  0  0  0  0  0  0  0
   -0.6648    2.7291    0.0000 N   0  0  0  0  0  0  0  0  0  0  0  0
    4.5314   -0.2709    0.0000 N   0  0  0  0  0  0  0  0  0  0  0  0
    1.9336    4.2299    0.0000 N   0  0  0  0  0  0  0  0  0  0  0  0
    5.8304    0.4791    0.0000 O   0  0  0  0  0  0  0  0  0  0  0  0
    4.5314   -1.7709    0.0000 O   0  0  0  0  0  0  0  0  0  0  0  0
    3.2325    4.9801    0.0000 O   0  0  0  0  0  0  0  0  0  0  0  0
    0.6344    4.9797    0.0000 O   0  0  0  0  0  0  0  0  0  0  0  0
   -4.5619    1.9791    0.0000 O   0  0  0  0  0  0  0  0  0  0  0  0
   -5.8609    2.7291    0.0000 Si  0  0  0  0  0  4  0  0  0  0  0  0
  5  4  2  0
  7  6  1  0
  9  4  1  0
  9  8  2  0
 10  5  1  0
 11  8  1  0
 11 10  2  0
 12  6  1  0
 12 10  1  0
 13  9  1  0
 14 11  1  0
 15 13  1  0
 16 13  2  0
 17 14  1  0
 18 14  2  0
 19  7  1  0
 20  1  1  0
 20  2  1  0
 20  3  1  0
 20 19  1  0
M  CHG  4  13   1  14   1  15  -1  17  -1
M  END
>  <NAME>  (6880) 
N-2,4-DINITROPHENYL-O-TRIMETHYLSILYL-ETHANOLAMINE

>  <SYNONYMS>  (6880) 
N-(2,4-DINITROPHENYL)-2-TRIMETHYLSILYLOXYETHYLAMINE

>  <SPECTRUM TYPE>  (6880) 
MS1

>  <INSTRUMENT TYPE>  (6880) 
EI-B

>  <INSTRUMENT>  (6880) 
SHIMADZU LKB-9000

>  <ION MODE>  (6880) 
P

>  <INCHIKEY>  (6880) 
PPBSFFPMABCFSN-UHFFFAOYSA-N

>  <FORMULA>  (6880) 
C11H17N3O5Si

>  <EXACT MASS>  (6880) 
299.093747174

>  <MW>  (6880) 
299

>  <ID>  (6880) 
JP000979

>  <CONTRIBUTOR>  (6880) 
University of Tokyo Team, {Faculty of Engineering, University of Tokyo

>  <COMMENT>  (6880) 
SMILES=[O-1][N+1](=O)c(c1)cc([N+1]([O-1])=O)c(NCCO[Si](C)(C)C)c1
InChI=InChI=1S/C11H17N3O5Si/c1-20(2,3)19-7-6-12-10-5-4-9(13(15)16)8-11(10)14(17)18/h4-5,8,12H,6-7H2,1-3H3
computed SMILES=O=N(=O)C1=CC=C(NCCO[Si](C)(C)C)C(=C1)N(=O)=O
ion type=[M]+*
accession=JP000979
date=2016.01.19 (Created 2008.10.21, modified 2011.05.06)
author=HORI T, DEPT. OF CHEMISTRY, FAC. OF LIBERAL ARTS AND EDUCATION, SHIGA UNIV.
license=CC BY-NC-SA
exact mass=299.09375
ionization energy=70 eV
computed spectral entropy=2.406366646253624
computed normalized entropy=0.8032649203991877
SPLASH=splash10-0fmi-9710000000-cb589807fac06503f140
submitter=submitter = University of Tokyo Team (Faculty of Engineering, University of Tokyo)
MoNA Rating=3.75

>  <NUM PEAKS>  (6880) 
20

>  <MASS SPECTRAL PEAKS>  (6880) 
59 5.5
61 4.5
73 99.99
74 9
75 44
103 50
104 9
105 7.5
117 13.5
133 6
150 6
166 9
179 16.5
180 6
196 18
197 3
241 3
269 4.5
284 6
299 12

$$$$

     RDKit          2D

 37 37  0  0  0  0  0  0  0  0999 V2000
    2.6013    3.2745    0.0000 C   0  0  0  0  0  0  0  0  0  0  0  0
   -4.1151   -2.7124    0.0000 C   0  0  0  0  0  0  0  0  0  0  0  0
   -2.6192   -4.2165    0.0000 C   0  0  0  0  0  0  0  0  0  0  0  0
   -1.1151   -2.7205    0.0000 C   0  0  0  0  0  0  0  0  0  0  0  0
    0.5273   -4.7808    0.0000 C   0  0  0  0  0  0  0  0  0  0  0  0
    2.5781   -4.2386    0.0000 C   0  0  0  0  0  0  0  0  0  0  0  0
    2.0359   -2.1877    0.0000 C   0  0  0  0  0  0  0  0  0  0  0  0
    4.6573   -1.7710    0.0000 C   0  0  0  0  0  0  0  0  0  0  0  0
    5.2076    0.2777    0.0000 C   0  0  0  0  0  0  0  0  0  0  0  0
    3.1589    0.8279    0.0000 C   0  0  0  0  0  0  0  0  0  0  0  0
   -7.0549    3.0700    0.0000 C   0  0  0  0  0  0  0  0  0  0  0  0
   -9.1040    2.5212    0.0000 C   0  0  0  0  0  0  0  0  0  0  0  0
   -8.5553    0.4721    0.0000 C   0  0  0  0  0  0  0  0  0  0  0  0
   -7.0672    4.8426    0.0000 C   0  0  0  0  0  0  0  0  0  0  0  0
   -5.1445    5.7388    0.0000 C   0  0  0  0  0  0  0  0  0  0  0  0
   -4.2483    3.8160    0.0000 C   0  0  0  0  0  0  0  0  0  0  0  0
   -2.6089    1.7702    0.0000 C   0  0  0  0  0  0  0  0  0  0  0  0
   -1.3100    1.0200    0.0000 C   0  0  0  0  0  0  0  0  0  0  0  0
   -1.3100   -0.4700    0.0000 C   0  0  0  0  0  0  0  0  0  0  0  0
   -0.0100   -1.2300    0.0000 C   0  0  0  0  0  0  0  0  0  0  0  0
    1.3100   -0.4700    0.0000 C   0  0  0  0  0  0  0  0  0  0  0  0
    1.3100    1.0200    0.0000 C   0  0  0  0  0  0  0  0  0  0  0  0
   -4.2426    2.9195    0.0000 O   0  0  0  0  0  0  0  0  0  0  0  0
    2.6064    1.7745    0.0000 O   0  0  0  0  0  0  0  0  0  0  0  0
   -3.9081    1.0204    0.0000 O   0  0  0  0  0  0  0  0  0  0  0  0
   -0.0100    1.7700    0.0000 O   0  0  0  0  0  0  0  0  0  0  0  0
   -2.6111   -1.2165    0.0000 O   0  0  0  0  0  0  0  0  0  0  0  0
   -0.0150   -2.7300    0.0000 O   0  0  0  0  0  0  0  0  0  0  0  0
    2.6086   -1.2208    0.0000 O   0  0  0  0  0  0  0  0  0  0  0  0
   -6.5062    1.0208    0.0000 O   0  0  0  0  0  0  0  0  0  0  0  0
   -6.1710    2.9198    0.0000 O   0  0  0  0  0  0  0  0  0  0  0  0
   -5.2070    1.7706    0.0000 P   0  0  0  0  0  0  0  0  0  0  0  0
   -2.6151   -2.7165    0.0000 Si  0  0  0  0  0  4  0  0  0  0  0  0
    1.2816   -3.4843    0.0000 Si  0  0  0  0  0  4  0  0  0  0  0  0
    3.9081   -0.4716    0.0000 Si  0  0  0  0  0  4  0  0  0  0  0  0
   -7.8051    1.7710    0.0000 Si  0  0  0  0  0  4  0  0  0  0  0  0
   -5.6577    4.3293    0.0000 Si  0  0  0  0  0  4  0  0  0  0  0  0
 18 17  1  0
 19 18  1  0
 20 19  1  0
 21 20  1  0
 22 21  1  0
 24  1  1  0
 24 22  1  0
 25 17  1  0
 26 18  1  0
 26 22  1  0
 27 19  1  0
 28 20  1  0
 29 21  1  0
 32 23  2  0
 32 25  1  0
 32 30  1  0
 32 31  1  0
 33  2  1  0
 33  3  1  0
 33  4  1  0
 33 27  1  0
 34  5  1  0
 34  6  1  0
 34  7  1  0
 34 28  1  0
 35  8  1  0
 35  9  1  0
 35 10  1  0
 35 29  1  0
 36 11  1  0
 36 12  1  0
 36 13  1  0
 36 30  1  0
 37 14  1  0
 37 15  1  0
 37 16  1  0
 37 31  1  0
M  END
>  <NAME>  (6881) 
PENTAKIS(TRIMETHYLSILYL)-METHYL-6-PHOSPHOMANNOSIDE

>  <SYNONYMS>  (6881) 


>  <SPECTRUM TYPE>  (6881) 
MS1

>  <INSTRUMENT TYPE>  (6881) 
EI-B

>  <INSTRUMENT>  (6881) 
SHIMADZU LKB-9000

>  <ION MODE>  (6881) 
P

>  <INCHIKEY>  (6881) 
RJXOEHNQWFJEQZ-UHFFFAOYSA-N

>  <FORMULA>  (6881) 
C22H55O9PSi5

>  <EXACT MASS>  (6881) 
634.24300262

>  <MW>  (6881) 
634

>  <ID>  (6881) 
JP000978

>  <CONTRIBUTOR>  (6881) 
University of Tokyo Team, {Faculty of Engineering, University of Tokyo

>  <COMMENT>  (6881) 
SMILES=COC(O1)C([H])(O[Si](C)(C)C)C(O[Si](C)(C)C)C(O[Si](C)(C)C)C(COP(=O)(O[Si](C)(C)C)O[Si](C)(C)C)1
InChI=InChI=1S/C22H55O9PSi5/c1-24-22-21(29-35(8,9)10)20(28-34(5,6)7)19(27-33(2,3)4)18(26-22)17-25-32(23,30-36(11,12)13)31-37(14,15)16/h18-22H,17H2,1-16H3
computed SMILES=O=P(OCC1OC(OC)C(O[Si](C)(C)C)C(O[Si](C)(C)C)C1O[Si](C)(C)C)(O[Si](C)(C)C)O[Si](C)(C)C
accession=JP000978
date=2016.01.19 (Created 2008.10.21, modified 2011.05.06)
author=HORI T, DEPT. OF CHEMISTRY, FAC. OF LIBERAL ARTS AND EDUCATION, SHIGA UNIV.
license=CC BY-NC-SA
exact mass=634.243
ionization energy=70 eV
ion type=[M]+*
computed spectral entropy=2.1079199017371955
computed normalized entropy=0.8218173569802363
SPLASH=splash10-00di-9485000000-e80d4fc65964733dc4b7
submitter=submitter = University of Tokyo Team (Faculty of Engineering, University of Tokyo)
MoNA Rating=3.75

>  <NUM PEAKS>  (6881) 
13

>  <MASS SPECTRAL PEAKS>  (6881) 
73 99.99
129 30
147 20
204 50
217 15
287 5
299 25
315 15
357 5
370 15
387 25
529 1
619 3

$$$$

     RDKit          2D

  3  2  0  0  0  0  0  0  0  0999 V2000
   -1.2990    0.0000    0.0000 C   0  0  0  0  0  0  0  0  0  0  0  0
   -0.0000    0.7500    0.0000 C   0  0  0  0  0  0  0  0  0  0  0  0
    0.0000    2.2500    0.0000 Cl  0  0  0  0  0  0  0  0  0  0  0  0
  2  1  2  0
  3  2  1  0
M  END
>  <NAME>  (6882) 
CHLOROETHYLENE

>  <SYNONYMS>  (6882) 
VINYL CHLORIDE

>  <SPECTRUM TYPE>  (6882) 
MS1

>  <INSTRUMENT TYPE>  (6882) 
EI-B

>  <INSTRUMENT>  (6882) 
JEOL JMS-01-SG

>  <ION MODE>  (6882) 
P

>  <INCHIKEY>  (6882) 
BZHJMEDXRYGGRV-UHFFFAOYSA-N

>  <FORMULA>  (6882) 
C2H3Cl

>  <EXACT MASS>  (6882) 
61.992327775999996

>  <MW>  (6882) 
62

>  <ID>  (6882) 
JP000977

>  <CONTRIBUTOR>  (6882) 
University of Tokyo Team, {Faculty of Engineering, University of Tokyo

>  <COMMENT>  (6882) 
SMILES=C=CCl
cas=75-01-4
InChI=InChI=1S/C2H3Cl/c1-2-3/h2H,1H2
computed SMILES=ClC=C
accession=JP000977
date=2016.01.19 (Created 2008.10.21, modified 2011.05.06)
author=KOGA M, UNIV. OF OCCUPATIONAL AND ENVIRONMENTAL HEALTH
license=CC BY-NC-SA
exact mass=61.99233
ionization energy=70 eV
ion type=[M]+*
computed spectral entropy=1.8374334294456673
computed normalized entropy=0.6627140241562164
SPLASH=splash10-03di-9000000000-6b0b48d1f48056c738a2
submitter=submitter = University of Tokyo Team (Faculty of Engineering, University of Tokyo)
MoNA Rating=3.75

>  <NUM PEAKS>  (6882) 
16

>  <MASS SPECTRAL PEAKS>  (6882) 
24 2.4
25 10.3
26 24.2
27 7.64
28 2.3
35 7.3
36 2.7
37 0.26
47 4.8
49 1.7
59 2
60 0.65
61 8.4
62 99.99
63 5
64 30.8

$$$$

     RDKit          2D

 14 14  0  0  0  0  0  0  0  0999 V2000
    2.3389    1.6502    0.0000 C   0  0  0  0  0  0  0  0  0  0  0  0
   -0.2600    1.6500    0.0000 C   0  0  0  0  0  0  0  0  0  0  0  0
   -1.5600   -0.6000    0.0000 C   0  0  0  0  0  0  0  0  0  0  0  0
    1.0400    0.9000    0.0000 C   0  0  0  0  0  0  0  0  0  0  0  0
   -1.5600    0.9000    0.0000 C   0  0  0  0  0  0  0  0  0  0  0  0
   -0.2600   -1.3500    0.0000 C   0  0  0  0  0  0  0  0  0  0  0  0
    1.0400   -0.6000    0.0000 C   0  0  0  0  0  0  0  0  0  0  0  0
   -2.8589    1.6502    0.0000 N   0  0  0  0  0  0  0  0  0  0  0  0
   -0.2600   -2.8500    0.0000 N   0  0  0  0  0  0  0  0  0  0  0  0
    2.3389   -1.3502    0.0000 O   0  0  0  0  0  0  0  0  0  0  0  0
   -4.1581    0.9004    0.0000 O   0  0  0  0  0  0  0  0  0  0  0  0
   -2.8587    3.1502    0.0000 O   0  0  0  0  0  0  0  0  0  0  0  0
    1.0390   -3.6000    0.0000 O   0  0  0  0  0  0  0  0  0  0  0  0
   -1.5590   -3.6000    0.0000 O   0  0  0  0  0  0  0  0  0  0  0  0
  4  1  1  0
  4  2  2  0
  5  2  1  0
  5  3  2  0
  6  3  1  0
  7  4  1  0
  7  6  2  0
  8  5  1  0
  9  6  1  0
 10  7  1  0
 11  8  1  0
 12  8  2  0
 13  9  1  0
 14  9  2  0
M  CHG  4   8   1   9   1  11  -1  13  -1
M  END
>  <NAME>  (6883) 
4,6-DINITRO-ORTHO-CRESOL

>  <SYNONYMS>  (6883) 


>  <SPECTRUM TYPE>  (6883) 
MS1

>  <INSTRUMENT TYPE>  (6883) 
EI-B

>  <INSTRUMENT>  (6883) 
JEOL JMS-01-SG

>  <ION MODE>  (6883) 
P

>  <INCHIKEY>  (6883) 
ZXVONLUNISGICL-UHFFFAOYSA-N

>  <FORMULA>  (6883) 
C7H6N2O5

>  <EXACT MASS>  (6883) 
198.02767129199998

>  <MW>  (6883) 
198

>  <ID>  (6883) 
JP000976

>  <CONTRIBUTOR>  (6883) 
University of Tokyo Team, {Faculty of Engineering, University of Tokyo

>  <COMMENT>  (6883) 
SMILES=[O-1][N+1](=O)c(c1)cc([N+1]([O-1])=O)c(O)c(C)1
cas=534-52-1
InChI=InChI=1S/C7H6N2O5/c1-4-2-5(8(11)12)3-6(7(4)10)9(13)14/h2-3,10H,1H3
computed SMILES=O=N(=O)C=1C=C(C(O)=C(C1)C)N(=O)=O
accession=JP000976
date=2016.01.19 (Created 2008.10.21, modified 2011.05.06)
author=KOGA M, UNIV. OF OCCUPATIONAL AND ENVIRONMENTAL HEALTH
license=CC BY-NC-SA
exact mass=198.02767
ionization energy=70 eV
ion type=[M]+*
computed spectral entropy=3.00977465653915
computed normalized entropy=0.8274098603799233
SPLASH=splash10-0f6t-9600000000-f2c55979371950d98009
submitter=submitter = University of Tokyo Team (Faculty of Engineering, University of Tokyo)
MoNA Rating=3.75

>  <NUM PEAKS>  (6883) 
38

>  <MASS SPECTRAL PEAKS>  (6883) 
43 5.2
46 3.8
50 24.2
51 5.23
52 24.2
53 41.9
54 3.2
55 0.41
61 2.9
62 7.9
63 11.4
64 0.71
65 18.1
66 13.9
67 21.3
68 0.39
69 5.3
74 10.9
75 8.2
76 1.04
77 24.7
78 10.2
79 6.5
80 0.27
93 17.2
94 4
104 4
105 4.45
106 22.2
107 8.7
121 41.5
122 0.39
134 2.9
152 5.3
168 12.8
182 0.22
198 99.99
199 8.5

$$$$

     RDKit          2D

  9  9  0  0  0  0  0  0  0  0999 V2000
    2.2733   -0.6175    0.0000 C   0  0  0  0  0  0  0  0  0  0  0  0
    0.9738   -1.3683    0.0000 C   0  0  0  0  0  0  0  0  0  0  0  0
    2.2738    0.8833    0.0000 C   0  0  0  0  0  0  0  0  0  0  0  0
   -0.3252   -0.6183    0.0000 C   0  0  0  0  0  0  0  0  0  0  0  0
    0.9748    1.6333    0.0000 C   0  0  0  0  0  0  0  0  0  0  0  0
   -0.3248    0.8825    0.0000 C   0  0  0  0  0  0  0  0  0  0  0  0
   -1.6238    1.6325    0.0000 N   0  0  0  0  0  0  0  0  0  0  0  0
   -2.9228    0.8825    0.0000 O   0  0  0  0  0  0  0  0  0  0  0  0
   -1.6238    3.1325    0.0000 O   0  0  0  0  0  0  0  0  0  0  0  0
  2  1  2  0
  3  1  1  0
  4  2  1  0
  5  3  2  0
  6  4  2  0
  6  5  1  0
  7  6  1  0
  8  7  1  0
  9  7  2  0
M  CHG  2   7   1   8  -1
M  END
>  <NAME>  (6884) 
NITROBENZENE

>  <SYNONYMS>  (6884) 


>  <SPECTRUM TYPE>  (6884) 
MS1

>  <INSTRUMENT TYPE>  (6884) 
EI-B

>  <INSTRUMENT>  (6884) 
JEOL JMS-01-SG

>  <ION MODE>  (6884) 
P

>  <INCHIKEY>  (6884) 
LQNUZADURLCDLV-UHFFFAOYSA-N

>  <FORMULA>  (6884) 
C6H5NO2

>  <EXACT MASS>  (6884) 
123.0320284

>  <MW>  (6884) 
123

>  <ID>  (6884) 
JP000975

>  <CONTRIBUTOR>  (6884) 
University of Tokyo Team, {Faculty of Engineering, University of Tokyo

>  <COMMENT>  (6884) 
SMILES=[O-1][N+1](=O)c(c1)cccc1
cas=98-95-3
InChI=InChI=1S/C6H5NO2/c8-7(9)6-4-2-1-3-5-6/h1-5H
computed SMILES=O=N(=O)C=1C=CC=CC1
accession=JP000975
date=2016.01.19 (Created 2008.10.21, modified 2011.05.06)
author=KOGA M, UNIV. OF OCCUPATIONAL AND ENVIRONMENTAL HEALTH
license=CC BY-NC-SA
exact mass=123.03203
ionization energy=70 eV
ion type=[M]+*
computed spectral entropy=1.7956412018570762
computed normalized entropy=0.7000688713925235
SPLASH=splash10-0fb9-9000000000-cb5343370bc7b8d5540d
submitter=submitter = University of Tokyo Team (Faculty of Engineering, University of Tokyo)
MoNA Rating=3.75

>  <NUM PEAKS>  (6884) 
13

>  <MASS SPECTRAL PEAKS>  (6884) 
50 16.1
51 43.8
52 2.5
63 0.21
65 14
74 7.9
75 4.6
76 0.37
77 99.99
78 6.7
93 14.8
123 7.56
124 5.4

$$$$

     RDKit          2D

 11 11  0  0  0  0  0  0  0  0999 V2000
    1.2100    0.3900    0.0000 C   0  0  0  0  0  0  0  0  0  0  0  0
    0.0000    1.2800    0.0000 C   0  0  0  0  0  0  0  0  0  0  0  0
    0.7500   -1.0300    0.0000 C   0  0  0  0  0  0  0  0  0  0  0  0
   -1.2100    0.3900    0.0000 C   0  0  0  0  0  0  0  0  0  0  0  0
   -0.7500   -1.0300    0.0000 C   0  0  0  0  0  0  0  0  0  0  0  0
    2.6377    0.8500    0.0000 Cl  0  0  0  0  0  0  0  0  0  0  0  0
    0.0000    2.7800    0.0000 Cl  0  0  0  0  0  0  0  0  0  0  0  0
    1.6322   -2.2431    0.0000 Cl  0  0  0  0  0  0  0  0  0  0  0  0
   -2.6377    0.8500    0.0000 Cl  0  0  0  0  0  0  0  0  0  0  0  0
   -2.2174   -1.3410    0.0000 Cl  0  0  0  0  0  0  0  0  0  0  0  0
   -0.5936   -2.5218    0.0000 Cl  0  0  0  0  0  0  0  0  0  0  0  0
  2  1  1  0
  3  1  2  0
  4  2  2  0
  5  3  1  0
  5  4  1  0
  6  1  1  0
  7  2  1  0
  8  3  1  0
  9  4  1  0
 10  5  1  0
 11  5  1  0
M  END
>  <NAME>  (6885) 
1,2,3,4,5,5-HEXACHLORO-1,3-CYCLOPENTADIENE

>  <SYNONYMS>  (6885) 


>  <SPECTRUM TYPE>  (6885) 
MS1

>  <INSTRUMENT TYPE>  (6885) 
EI-B

>  <INSTRUMENT>  (6885) 
JEOL JMS-01-SG

>  <ION MODE>  (6885) 
P

>  <INCHIKEY>  (6885) 
VUNCWTMEJYMOOR-UHFFFAOYSA-N

>  <FORMULA>  (6885) 
C5Cl6

>  <EXACT MASS>  (6885) 
269.81311608

>  <MW>  (6885) 
270

>  <ID>  (6885) 
JP000974

>  <CONTRIBUTOR>  (6885) 
University of Tokyo Team, {Faculty of Engineering, University of Tokyo

>  <COMMENT>  (6885) 
SMILES=ClC(C(Cl)=1)=C(Cl)C(Cl)(Cl)C(Cl)1
cas=77-47-4
InChI=InChI=1S/C5Cl6/c6-1-2(7)4(9)5(10,11)3(1)8
computed SMILES=ClC=1C(Cl)=C(Cl)C(Cl)(Cl)C1Cl
exact mass=269.81312
accession=JP000974
date=2016.01.19 (Created 2008.10.21, modified 2011.05.06)
author=KOGA M, UNIV. OF OCCUPATIONAL AND ENVIRONMENTAL HEALTH
license=CC BY-NC-SA
ionization energy=70 eV
ion type=[M]+*
computed spectral entropy=3.073715503606714
computed normalized entropy=0.7817527506877168
SPLASH=splash10-000i-2290000000-54dcd500e27687551135
submitter=submitter = University of Tokyo Team (Faculty of Engineering, University of Tokyo)
MoNA Rating=3.75

>  <NUM PEAKS>  (6885) 
51

>  <MASS SPECTRAL PEAKS>  (6885) 
47 7.3
49 3.3
59 3.3
60 1.69
61 4.6
65 5.9
66 5.3
71 0.75
83 6.8
84 2.6
85 3.1
94 0.29
95 28.4
96 5.1
97 9
100 0.44
101 6.2
102 2.9
106 7
108 0.46
117 10.5
119 13.8
121 4.4
130 2.26
131 3.1
132 12.7
134 2.4
141 1.38
143 14.5
145 4.2
165 14.5
167 1.34
169 5.9
201 8.4
202 2.2
203 1.21
205 6.2
207 2.4
235 73
236 0.51
237 99.99
238 9.2
239 69.7
240 0.53
241 22.2
242 2.2
243 3.3
270 0.97
272 17.8
274 12.5
276 5.9

$$$$

     RDKit          2D

 10  9  0  0  0  0  0  0  0  0999 V2000
   -1.2990    2.2500    0.0000 C   0  0  0  0  0  0  0  0  0  0  0  0
   -1.2990    3.7500    0.0000 C   0  0  0  0  0  0  0  0  0  0  0  0
    0.0000    1.5000    0.0000 C   0  0  0  0  0  0  0  0  0  0  0  0
   -2.5981    4.5000    0.0000 C   0  0  0  0  0  0  0  0  0  0  0  0
   -2.5981    1.5000    0.0000 Cl  0  0  0  0  0  0  0  0  0  0  0  0
    0.0000    4.5000    0.0000 Cl  0  0  0  0  0  0  0  0  0  0  0  0
    0.0000    0.0000    0.0000 Cl  0  0  0  0  0  0  0  0  0  0  0  0
    1.2990    2.2500    0.0000 Cl  0  0  0  0  0  0  0  0  0  0  0  0
   -2.5981    6.0000    0.0000 Cl  0  0  0  0  0  0  0  0  0  0  0  0
   -3.8971    3.7500    0.0000 Cl  0  0  0  0  0  0  0  0  0  0  0  0
  2  1  1  0
  3  1  2  0
  4  2  2  0
  5  1  1  0
  6  2  1  0
  7  3  1  0
  8  3  1  0
  9  4  1  0
 10  4  1  0
M  END
>  <NAME>  (6886) 
1,1,2,3,4,4-HEXACHLORO-1,3-BUTADIENE

>  <SYNONYMS>  (6886) 


>  <SPECTRUM TYPE>  (6886) 
MS1

>  <INSTRUMENT TYPE>  (6886) 
EI-B

>  <INSTRUMENT>  (6886) 
JEOL JMS-01-SG

>  <ION MODE>  (6886) 
P

>  <INCHIKEY>  (6886) 
RWNKSTSCBHKHTB-UHFFFAOYSA-N

>  <FORMULA>  (6886) 
C4Cl6

>  <EXACT MASS>  (6886) 
257.81311608

>  <MW>  (6886) 
258

>  <ID>  (6886) 
JP000973

>  <CONTRIBUTOR>  (6886) 
University of Tokyo Team, {Faculty of Engineering, University of Tokyo

>  <COMMENT>  (6886) 
SMILES=ClC(Cl)=C(Cl)C(Cl)=C(Cl)Cl
cas=87-68-3
InChI=InChI=1S/C4Cl6/c5-1(3(7)8)2(6)4(9)10
computed SMILES=ClC(Cl)=C(Cl)C(Cl)=C(Cl)Cl
accession=JP000973
date=2016.01.19 (Created 2008.10.21, modified 2011.05.06)
author=KOGA M, UNIV. OF OCCUPATIONAL AND ENVIRONMENTAL HEALTH
license=CC BY-NC-SA
exact mass=257.81312
ionization energy=70 eV
ion type=[M]+*
computed spectral entropy=3.2147474281307593
computed normalized entropy=0.8304263764843414
SPLASH=splash10-004i-3790000000-0aab7381eb2bf932ea24
submitter=submitter = University of Tokyo Team (Faculty of Engineering, University of Tokyo)
MoNA Rating=3.75

>  <NUM PEAKS>  (6886) 
48

>  <MASS SPECTRAL PEAKS>  (6886) 
47 13.1
48 4
49 6.6
71 0.85
73 4
82 5.4
83 19.1
84 0.51
85 7.7
94 10.8
95 6.6
96 0.68
106 6.6
108 6
117 2.8
118 3.48
119 4.3
120 21.4
121 2.3
122 0.37
129 3.1
130 2.6
131 2.6
141 2.11
143 21.9
145 8.5
153 16.2
155 1.71
157 5.4
166 2.3
188 37.9
190 4.59
191 2.8
192 21.1
194 4.6
223 6.72
224 3.1
225 99.99
226 4.3
227 6.41
228 3.1
229 20.5
231 3.7
258 2.08
260 33.6
262 23.6
264 10.8
266 3.1

$$$$

     RDKit          2D

 17 19  0  0  0  0  0  0  0  0999 V2000
    1.1329    1.9275    0.0000 C   0  0  0  0  0  0  0  0  0  0  0  0
    2.0129    0.7175    0.0000 C   0  0  0  0  0  0  0  0  0  0  0  0
   -0.2971    1.4675    0.0000 C   0  0  0  0  0  0  0  0  0  0  0  0
    1.1329   -0.5025    0.0000 C   0  0  0  0  0  0  0  0  0  0  0  0
   -0.2971   -0.0325    0.0000 C   0  0  0  0  0  0  0  0  0  0  0  0
   -2.8971    1.4675    0.0000 C   0  0  0  0  0  0  0  0  0  0  0  0
   -2.8971   -0.0325    0.0000 C   0  0  0  0  0  0  0  0  0  0  0  0
   -1.5971    2.2175    0.0000 C   0  0  0  0  0  0  0  0  0  0  0  0
   -1.5971   -0.7825    0.0000 C   0  0  0  0  0  0  0  0  0  0  0  0
   -0.9771    0.6475    0.0000 C   0  0  0  0  0  0  0  0  0  0  0  0
    1.5964   -1.9291    0.0000 Cl  0  0  0  0  0  0  0  0  0  0  0  0
   -4.1961    2.2177    0.0000 Cl  0  0  0  0  0  0  0  0  0  0  0  0
   -4.1961   -0.7828    0.0000 Cl  0  0  0  0  0  0  0  0  0  0  0  0
   -1.5971    3.7175    0.0000 Cl  0  0  0  0  0  0  0  0  0  0  0  0
   -1.5971   -2.2825    0.0000 Cl  0  0  0  0  0  0  0  0  0  0  0  0
    0.3103   -1.4488    0.0000 Cl  0  0  0  0  0  0  0  0  0  0  0  0
    0.4607    1.0748    0.0000 Cl  0  0  0  0  0  0  0  0  0  0  0  0
  2  1  2  0
  3  1  1  0
  4  2  1  0
  5  3  1  0
  5  4  1  0
  7  6  2  0
  8  3  1  0
  8  6  1  0
  9  5  1  0
  9  7  1  0
 10  8  1  0
 10  9  1  0
 11  4  1  0
 12  6  1  0
 13  7  1  0
 14  8  1  0
 15  9  1  0
 16 10  1  0
 17 10  1  0
M  END
>  <NAME>  (6887) 
1,4,5,6,7,8,8-HEPTACHLORO-3A,4,7,7A-TETRAHYDRO-4,7-METHANOINDENE

>  <SYNONYMS>  (6887) 
HEPTACHLOR

>  <SPECTRUM TYPE>  (6887) 
MS1

>  <INSTRUMENT TYPE>  (6887) 
EI-B

>  <INSTRUMENT>  (6887) 
JEOL JMS-01-SG

>  <ION MODE>  (6887) 
P

>  <INCHIKEY>  (6887) 
FRCCEHPWNOQAEU-UHFFFAOYSA-N

>  <FORMULA>  (6887) 
C10H5Cl7

>  <EXACT MASS>  (6887) 
369.82109391999995

>  <MW>  (6887) 
370

>  <ID>  (6887) 
JP000972

>  <CONTRIBUTOR>  (6887) 
University of Tokyo Team, {Faculty of Engineering, University of Tokyo

>  <COMMENT>  (6887) 
SMILES=[H]C(=C([H])3)C(Cl)C(C31)C(Cl)(C(Cl)=2)C(Cl)(Cl)C(Cl)(C(Cl)2)1
cas=76-44-8
InChI=InChI=1S/C10H5Cl7/c11-4-2-1-3-5(4)9(15)7(13)6(12)8(3,14)10(9,16)17/h1-5H
computed SMILES=ClC1=C(Cl)C2(Cl)C3C(Cl)C=CC3C1(Cl)C2(Cl)Cl
accession=JP000972
date=2016.01.19 (Created 2008.10.21, modified 2011.05.06)
author=KOGA M, UNIV. OF OCCUPATIONAL AND ENVIRONMENTAL HEALTH
license=CC BY-NC-SA
exact mass=369.82109
ionization energy=70 eV
ion type=[M]+*
computed spectral entropy=3.7867146769341766
computed normalized entropy=0.8258978268766582
SPLASH=splash10-0uk9-4960000000-c6b20243c40e209f4664
submitter=submitter = University of Tokyo Team (Faculty of Engineering, University of Tokyo)
MoNA Rating=3.75

>  <NUM PEAKS>  (6887) 
98

>  <MASS SPECTRAL PEAKS>  (6887) 
49 3.9
50 6
51 5.9
60 0.24
61 7.1
62 6.3
63 9.7
64 0.38
65 47.8
66 7.3
72 2.2
73 1.03
74 7.2
75 8.2
83 2.4
85 0.79
86 5.1
87 2.5
95 3
96 0.43
97 11
98 10.4
99 10.5
100 99.99
101 7.4
102 34.1
103 3
106 0.21
107 2.9
108 6.6
109 5.9
110 0.3
111 3.4
114 4.4
115 6.5
116 0.41
117 5.7
119 6.1
120 5.8
121 0.42
122 3
123 3.6
124 2.2
130 0.32
132 10.6
133 12.5
134 8.7
135 1.77
136 3.8
137 10.3
141 5.2
143 0.62
145 3
151 2.3
159 3.4
160 0.86
161 2.1
162 3.1
165 2.5
167 0.37
169 4.5
171 2.7
183 2.5
194 0.88
195 4.2
196 5.1
197 2.3
217 0.24
219 2.4
230 9
231 2.4
232 0.78
235 15.5
236 7.3
238 11.9
239 1.42
240 7
241 4.8
242 2.5
264 0.58
265 3
266 7.5
267 2.9
268 0.35
270 28.5
272 52.8
274 45
275 0.23
276 15.9
278 4.5
335 5.2
337 0.88
339 5.8
341 3
370 2.2
372 0.36
374 3.5
376 2.2

$$$$

     RDKit          2D

  5  4  0  0  0  0  0  0  0  0999 V2000
    0.0000    1.5000    0.0000 C   0  0  0  0  0  0  0  0  0  0  0  0
   -1.2990    0.7500    0.0000 Cl  0  0  0  0  0  0  0  0  0  0  0  0
    0.7500    0.2010    0.0000 Cl  0  0  0  0  0  0  0  0  0  0  0  0
    1.2990    2.2500    0.0000 Cl  0  0  0  0  0  0  0  0  0  0  0  0
   -0.7500    2.7990    0.0000 F   0  0  0  0  0  0  0  0  0  0  0  0
  2  1  1  0
  3  1  1  0
  4  1  1  0
  5  1  1  0
M  END
>  <NAME>  (6888) 
TRICHLOROFLUOROMETHANE

>  <SYNONYMS>  (6888) 


>  <SPECTRUM TYPE>  (6888) 
MS1

>  <INSTRUMENT TYPE>  (6888) 
EI-B

>  <INSTRUMENT>  (6888) 
JEOL JMS-01-SG

>  <ION MODE>  (6888) 
P

>  <INCHIKEY>  (6888) 
CYRMSUTZVYGINF-UHFFFAOYSA-N

>  <FORMULA>  (6888) 
CCl3F

>  <EXACT MASS>  (6888) 
135.90496126

>  <MW>  (6888) 
136

>  <ID>  (6888) 
JP000971

>  <CONTRIBUTOR>  (6888) 
University of Tokyo Team, {Faculty of Engineering, University of Tokyo

>  <COMMENT>  (6888) 
SMILES=FC(Cl)(Cl)Cl
cas=75-69-4
InChI=InChI=1S/CCl3F/c2-1(3,4)5
computed SMILES=FC(Cl)(Cl)Cl
accession=JP000971
date=2016.01.19 (Created 2008.10.21, modified 2011.05.06)
author=KOGA M, UNIV. OF OCCUPATIONAL AND ENVIRONMENTAL HEALTH
license=CC BY-NC-SA
exact mass=135.90496
ionization energy=70 eV
ion type=[M]+*
computed spectral entropy=1.6762313136080556
computed normalized entropy=0.6745651043877496
SPLASH=splash10-0udi-3900000000-60273cc56dd64fe65e4d
submitter=submitter = University of Tokyo Team (Faculty of Engineering, University of Tokyo)
MoNA Rating=3.75

>  <NUM PEAKS>  (6888) 
12

>  <MASS SPECTRAL PEAKS>  (6888) 
31 9.3
35 12.8
37 4.5
47 1.09
49 3.9
66 17.6
68 6
82 0.41
84 2.5
101 99.99
103 59.1
105 11

$$$$

     RDKit          2D

  3  2  0  0  0  0  0  0  0  0999 V2000
   -0.0000    0.7500    0.0000 C   0  0  0  0  0  0  0  0  0  0  0  0
   -1.2990    0.0000    0.0000 Cl  0  0  0  0  0  0  0  0  0  0  0  0
    0.0000    2.2500    0.0000 Cl  0  0  0  0  0  0  0  0  0  0  0  0
  2  1  1  0
  3  1  1  0
M  END
>  <NAME>  (6889) 
DICHLOROMETHANE

>  <SYNONYMS>  (6889) 


>  <SPECTRUM TYPE>  (6889) 
MS1

>  <INSTRUMENT TYPE>  (6889) 
EI-B

>  <INSTRUMENT>  (6889) 
JEOL JMS-01-SG

>  <ION MODE>  (6889) 
P

>  <INCHIKEY>  (6889) 
YMWUJEATGCHHMB-UHFFFAOYSA-N

>  <FORMULA>  (6889) 
CH2Cl2

>  <EXACT MASS>  (6889) 
83.953355424

>  <MW>  (6889) 
84

>  <ID>  (6889) 
JP000970

>  <CONTRIBUTOR>  (6889) 
University of Tokyo Team, {Faculty of Engineering, University of Tokyo

>  <COMMENT>  (6889) 
SMILES=ClCCl
cas=75-09-2
InChI=InChI=1S/CH2Cl2/c2-1-3/h1H2
computed SMILES=ClCCl
accession=JP000970
date=2016.01.19 (Created 2008.10.21, modified 2011.05.06)
author=KOGA M, UNIV. OF OCCUPATIONAL AND ENVIRONMENTAL HEALTH
license=CC BY-NC-SA
exact mass=83.95336
ionization energy=70 eV
ion type=[M]+*
computed spectral entropy=1.9051955233530287
computed normalized entropy=0.6724504271271801
SPLASH=splash10-0002-9000000000-fea8e21d8ce299fd6c73
submitter=submitter = University of Tokyo Team (Faculty of Engineering, University of Tokyo)
MoNA Rating=3.75

>  <NUM PEAKS>  (6889) 
17

>  <MASS SPECTRAL PEAKS>  (6889) 
31 2.1
32 2.2
35 14.6
36 0.42
37 5.4
41 3.2
42 2.5
44 0.28
47 22
48 9.6
49 99.99
50 0.43
51 28.4
84 60.1
85 2.3
86 3.83
88 5.8

$$$$

     RDKit          2D

  2  1  0  0  0  0  0  0  0  0999 V2000
    0.0000    0.0000    0.0000 C   0  0  0  0  0  0  0  0  0  0  0  0
    1.5000    0.0000    0.0000 Cl  0  0  0  0  0  0  0  0  0  0  0  0
  2  1  1  0
M  END
>  <NAME>  (6890) 
CHLOROMETHANE

>  <SYNONYMS>  (6890) 


>  <SPECTRUM TYPE>  (6890) 
MS1

>  <INSTRUMENT TYPE>  (6890) 
EI-B

>  <INSTRUMENT>  (6890) 
JEOL JMS-01-SG

>  <ION MODE>  (6890) 
P

>  <INCHIKEY>  (6890) 
NEHMKBQYUWJMIP-UHFFFAOYSA-N

>  <FORMULA>  (6890) 
CH3Cl

>  <EXACT MASS>  (6890) 
49.992327775999996

>  <MW>  (6890) 
50

>  <ID>  (6890) 
JP000969

>  <CONTRIBUTOR>  (6890) 
University of Tokyo Team, {Faculty of Engineering, University of Tokyo

>  <COMMENT>  (6890) 
SMILES=CCl
cas=74-87-3
InChI=InChI=1S/CH3Cl/c1-2/h1H3
computed SMILES=ClC
accession=JP000969
date=2016.01.19 (Created 2008.10.21, modified 2011.05.06)
author=KOGA M, UNIV. OF OCCUPATIONAL AND ENVIRONMENTAL HEALTH
license=CC BY-NC-SA
exact mass=49.99233
ionization energy=70 eV
ion type=[M]+*
computed spectral entropy=1.3436184127264288
computed normalized entropy=0.6461438736291731
SPLASH=splash10-0udi-9000000000-f4883c753908aef32411
submitter=submitter = University of Tokyo Team (Faculty of Engineering, University of Tokyo)
MoNA Rating=3.75

>  <NUM PEAKS>  (6890) 
8

>  <MASS SPECTRAL PEAKS>  (6890) 
35 8.4
37 3
47 11.9
48 0.5
49 13.3
50 99.99
51 4.6
52 34.2

$$$$

     RDKit          2D

  2  1  0  0  0  0  0  0  0  0999 V2000
    0.0000    0.0000    0.0000 C   0  0  0  0  0  0  0  0  0  0  0  0
    1.5000    0.0000    0.0000 Br  0  0  0  0  0  0  0  0  0  0  0  0
  2  1  1  0
M  END
>  <NAME>  (6891) 
BROMOMETHANE

>  <SYNONYMS>  (6891) 


>  <SPECTRUM TYPE>  (6891) 
MS1

>  <INSTRUMENT TYPE>  (6891) 
EI-B

>  <INSTRUMENT>  (6891) 
JEOL JMS-01-SG

>  <ION MODE>  (6891) 
P

>  <INCHIKEY>  (6891) 
GZUXJHMPEANEGY-UHFFFAOYSA-N

>  <FORMULA>  (6891) 
CH3Br

>  <EXACT MASS>  (6891) 
93.941812196

>  <MW>  (6891) 
94

>  <ID>  (6891) 
JP000968

>  <CONTRIBUTOR>  (6891) 
University of Tokyo Team, {Faculty of Engineering, University of Tokyo

>  <COMMENT>  (6891) 
SMILES=CBr
cas=74-83-9
InChI=InChI=1S/CH3Br/c1-2/h1H3
computed SMILES=BrC
accession=JP000968
date=2016.01.19 (Created 2008.10.21, modified 2011.05.06)
author=KOGA M, UNIV. OF OCCUPATIONAL AND ENVIRONMENTAL HEALTH
license=CC BY-NC-SA
exact mass=93.94181
ionization energy=70 eV
ion type=[M]+*
computed spectral entropy=1.7037606549275177
computed normalized entropy=0.7399338509188913
SPLASH=splash10-0007-9000000000-745f8b23626d21db04f3
submitter=submitter = University of Tokyo Team (Faculty of Engineering, University of Tokyo)
MoNA Rating=3.75

>  <NUM PEAKS>  (6891) 
10

>  <MASS SPECTRAL PEAKS>  (6891) 
79 21.3
80 4.3
81 20.5
82 0.39
91 9
92 4.3
93 21.6
94 99.99
95 14.1
96 89.3

$$$$

     RDKit          2D

  5  4  0  0  0  0  0  0  0  0999 V2000
    0.0000    1.5000    0.0000 C   0  0  0  0  0  0  0  0  0  0  0  0
   -1.2990    0.7500    0.0000 Cl  0  0  0  0  0  0  0  0  0  0  0  0
    0.7500    0.2010    0.0000 Cl  0  0  0  0  0  0  0  0  0  0  0  0
    1.2990    2.2500    0.0000 F   0  0  0  0  0  0  0  0  0  0  0  0
   -0.7500    2.7990    0.0000 F   0  0  0  0  0  0  0  0  0  0  0  0
  2  1  1  0
  3  1  1  0
  4  1  1  0
  5  1  1  0
M  END
>  <NAME>  (6892) 
DICHLORODIFLUOROMETHANE

>  <SYNONYMS>  (6892) 


>  <SPECTRUM TYPE>  (6892) 
MS1

>  <INSTRUMENT TYPE>  (6892) 
EI-B

>  <INSTRUMENT>  (6892) 
JEOL JMS-01-SG

>  <ION MODE>  (6892) 
P

>  <INCHIKEY>  (6892) 
PXBRQCKWGAHEHS-UHFFFAOYSA-N

>  <FORMULA>  (6892) 
CCl2F2

>  <EXACT MASS>  (6892) 
119.9345118

>  <MW>  (6892) 
120

>  <ID>  (6892) 
JP000967

>  <CONTRIBUTOR>  (6892) 
University of Tokyo Team, {Faculty of Engineering, University of Tokyo

>  <COMMENT>  (6892) 
SMILES=FC(F)(Cl)Cl
cas=75-71-8
InChI=InChI=1S/CCl2F2/c2-1(3,4)5
computed SMILES=FC(F)(Cl)Cl
accession=JP000967
date=2016.01.19 (Created 2008.10.21, modified 2011.05.06)
author=KOGA M, UNIV. OF OCCUPATIONAL AND ENVIRONMENTAL HEALTH
license=CC BY-NC-SA
exact mass=119.93451
ionization energy=70 eV
ion type=[M]+*
computed spectral entropy=1.7750502785813813
computed normalized entropy=0.7143327813673884
SPLASH=splash10-000i-9000000000-7ce8490add18c2d34cdb
submitter=submitter = University of Tokyo Team (Faculty of Engineering, University of Tokyo)
MoNA Rating=3.75

>  <NUM PEAKS>  (6892) 
12

>  <MASS SPECTRAL PEAKS>  (6892) 
31 16.3
35 22
37 6.7
47 0.87
49 2.2
50 24.6
66 6.8
68 0.21
85 99.99
87 30.9
101 7.6
103 4.3

$$$$

     RDKit          2D

 14 15  0  0  0  0  0  0  0  0999 V2000
   -1.6700   -0.9600    0.0000 C   0  0  0  0  0  0  0  0  0  0  0  0
   -1.6700    0.5400    0.0000 C   0  0  0  0  0  0  0  0  0  0  0  0
   -0.3700   -1.7100    0.0000 C   0  0  0  0  0  0  0  0  0  0  0  0
   -0.3700    1.2900    0.0000 C   0  0  0  0  0  0  0  0  0  0  0  0
    0.9300   -0.9600    0.0000 C   0  0  0  0  0  0  0  0  0  0  0  0
    4.8281   -1.7112    0.0000 C   0  0  0  0  0  0  0  0  0  0  0  0
    6.1266    0.5396    0.0000 C   0  0  0  0  0  0  0  0  0  0  0  0
    3.5286   -0.9604    0.0000 C   0  0  0  0  0  0  0  0  0  0  0  0
    4.8271    1.2904    0.0000 C   0  0  0  0  0  0  0  0  0  0  0  0
    6.1271   -0.9612    0.0000 C   0  0  0  0  0  0  0  0  0  0  0  0
    0.9300    0.5400    0.0000 C   0  0  0  0  0  0  0  0  0  0  0  0
    3.5281    0.5404    0.0000 C   0  0  0  0  0  0  0  0  0  0  0  0
    7.4263   -1.7110    0.0000 Cl  0  0  0  0  0  0  0  0  0  0  0  0
    2.2289    1.2902    0.0000 O   0  0  0  0  0  0  0  0  0  0  0  0
  2  1  2  0
  3  1  1  0
  4  2  1  0
  5  3  2  0
  8  6  2  0
  9  7  1  0
 10  6  1  0
 10  7  2  0
 11  4  2  0
 11  5  1  0
 12  8  1  0
 12  9  2  0
 13 10  1  0
 14 11  1  0
 14 12  1  0
M  END
>  <NAME>  (6893) 
4-CHLOROPHENYL PHENYL ETHER

>  <SYNONYMS>  (6893) 


>  <SPECTRUM TYPE>  (6893) 
MS1

>  <INSTRUMENT TYPE>  (6893) 
EI-B

>  <INSTRUMENT>  (6893) 
JEOL JMS-01-SG

>  <ION MODE>  (6893) 
P

>  <INCHIKEY>  (6893) 
PGPNJCAMHOJTEF-UHFFFAOYSA-N

>  <FORMULA>  (6893) 
C12H9ClO

>  <EXACT MASS>  (6893) 
204.034192588

>  <MW>  (6893) 
204

>  <ID>  (6893) 
JP000965

>  <CONTRIBUTOR>  (6893) 
University of Tokyo Team, {Faculty of Engineering, University of Tokyo

>  <COMMENT>  (6893) 
SMILES=Clc(c2)ccc(c2)Oc(c1)cccc1
cas=7005-72-3
InChI=InChI=1S/C12H9ClO/c13-10-6-8-12(9-7-10)14-11-4-2-1-3-5-11/h1-9H
computed SMILES=ClC1=CC=C(OC=2C=CC=CC2)C=C1
accession=JP000965
date=2016.01.19 (Created 2008.10.21, modified 2011.05.06)
author=KOGA M, UNIV. OF OCCUPATIONAL AND ENVIRONMENTAL HEALTH
license=CC BY-NC-SA
exact mass=204.03419
ionization energy=70 eV
ion type=[M]+*
computed spectral entropy=2.586957457828526
computed normalized entropy=0.7464381390799869
SPLASH=splash10-0udi-4590000000-3b9a6537774326d15431
submitter=submitter = University of Tokyo Team (Faculty of Engineering, University of Tokyo)
MoNA Rating=3.75

>  <NUM PEAKS>  (6893) 
32

>  <MASS SPECTRAL PEAKS>  (6893) 
50 10.3
51 20.3
62 3.2
63 0.9
64 2.4
65 5.3
70 5.1
73 0.48
74 5.3
75 12.7
76 2.9
77 2.87
78 2.2
84 3.8
99 6.1
101 0.22
111 3.2
115 12.7
128 3.4
139 0.7
140 2.2
141 50
142 7.2
168 0.75
169 11.5
175 2.7
176 6.4
178 0.26
204 99.99
205 12
206 36.9
207 4.7

$$$$

     RDKit          2D

 14 15  0  0  0  0  0  0  0  0999 V2000
   -1.6700   -0.9600    0.0000 C   0  0  0  0  0  0  0  0  0  0  0  0
   -1.6700    0.5400    0.0000 C   0  0  0  0  0  0  0  0  0  0  0  0
   -0.3700   -1.7100    0.0000 C   0  0  0  0  0  0  0  0  0  0  0  0
   -0.3700    1.2900    0.0000 C   0  0  0  0  0  0  0  0  0  0  0  0
    0.9300   -0.9600    0.0000 C   0  0  0  0  0  0  0  0  0  0  0  0
    4.8281   -1.7112    0.0000 C   0  0  0  0  0  0  0  0  0  0  0  0
    6.1266    0.5396    0.0000 C   0  0  0  0  0  0  0  0  0  0  0  0
    3.5286   -0.9604    0.0000 C   0  0  0  0  0  0  0  0  0  0  0  0
    4.8271    1.2904    0.0000 C   0  0  0  0  0  0  0  0  0  0  0  0
    6.1271   -0.9612    0.0000 C   0  0  0  0  0  0  0  0  0  0  0  0
    0.9300    0.5400    0.0000 C   0  0  0  0  0  0  0  0  0  0  0  0
    3.5281    0.5404    0.0000 C   0  0  0  0  0  0  0  0  0  0  0  0
    7.4263   -1.7110    0.0000 Br  0  0  0  0  0  0  0  0  0  0  0  0
    2.2289    1.2902    0.0000 O   0  0  0  0  0  0  0  0  0  0  0  0
  2  1  2  0
  3  1  1  0
  4  2  1  0
  5  3  2  0
  8  6  2  0
  9  7  1  0
 10  6  1  0
 10  7  2  0
 11  4  2  0
 11  5  1  0
 12  8  1  0
 12  9  2  0
 13 10  1  0
 14 11  1  0
 14 12  1  0
M  END
>  <NAME>  (6894) 
4-BROMOPHENYL PHENYL ETHER

>  <SYNONYMS>  (6894) 


>  <SPECTRUM TYPE>  (6894) 
MS1

>  <INSTRUMENT TYPE>  (6894) 
EI-B

>  <INSTRUMENT>  (6894) 
JEOL JMS-01-SG

>  <ION MODE>  (6894) 
P

>  <INCHIKEY>  (6894) 
JDUYPUMQALQRCN-UHFFFAOYSA-N

>  <FORMULA>  (6894) 
C12H9BrO

>  <EXACT MASS>  (6894) 
247.983677008

>  <MW>  (6894) 
248

>  <ID>  (6894) 
JP000964

>  <CONTRIBUTOR>  (6894) 
University of Tokyo Team, {Faculty of Engineering, University of Tokyo

>  <COMMENT>  (6894) 
SMILES=c(c2)ccc(c2)Oc(c1)ccc(Br)c1
cas=101-55-3
InChI=InChI=1S/C12H9BrO/c13-10-6-8-12(9-7-10)14-11-4-2-1-3-5-11/h1-9H
computed SMILES=BrC1=CC=C(OC=2C=CC=CC2)C=C1
accession=JP000964
date=2016.01.19 (Created 2008.10.21, modified 2011.05.06)
author=KOGA M, UNIV. OF OCCUPATIONAL AND ENVIRONMENTAL HEALTH
license=CC BY-NC-SA
exact mass=247.98368
ionization energy=70 eV
ion type=[M]+*
computed spectral entropy=2.875258895696999
computed normalized entropy=0.774256926767739
SPLASH=splash10-0f95-9550000000-8818bfd4d6daeeeafd34
submitter=submitter = University of Tokyo Team (Faculty of Engineering, University of Tokyo)
MoNA Rating=3.75

>  <NUM PEAKS>  (6894) 
41

>  <MASS SPECTRAL PEAKS>  (6894) 
50 24.4
51 37.3
52 2.4
61 0.21
62 6.5
63 22.5
64 9.2
65 0.92
66 2.9
70 5.5
74 10.1
75 1.68
76 17.6
77 58.5
78 4.3
89 0.21
92 3.3
93 2.1
94 3.3
115 2.93
116 3.2
117 3.2
119 2.7
139 1.31
140 3.9
141 69.5
142 8.7
143 0.74
145 6.7
155 4
157 4
168 1.46
169 12.5
172 4.5
174 4.3
220 0.48
222 4.6
248 99.99
249 14
250 8.86
251 13.5

$$$$

     RDKit          2D

  9  8  0  0  0  0  0  0  0  0999 V2000
    2.0490    4.0981    0.0000 C   0  0  0  0  0  0  0  0  0  0  0  0
    2.0490    1.0981    0.0000 C   0  0  0  0  0  0  0  0  0  0  0  0
   -1.5000    2.0490    0.0000 C   0  0  0  0  0  0  0  0  0  0  0  0
   -0.9510    0.0000    0.0000 C   0  0  0  0  0  0  0  0  0  0  0  0
    2.0490    2.5981    0.0000 C   0  0  0  0  0  0  0  0  0  0  0  0
   -0.2010    1.2990    0.0000 C   0  0  0  0  0  0  0  0  0  0  0  0
    3.5490    2.5981    0.0000 Cl  0  0  0  0  0  0  0  0  0  0  0  0
    1.0981    0.5490    0.0000 Cl  0  0  0  0  0  0  0  0  0  0  0  0
    0.5490    2.5981    0.0000 O   0  0  0  0  0  0  0  0  0  0  0  0
  5  1  1  0
  5  2  1  0
  6  3  1  0
  6  4  1  0
  7  5  1  0
  8  6  1  0
  9  5  1  0
  9  6  1  0
M  END
>  <NAME>  (6895) 
2,2'-OXYBIS(2-CHLORO)PROPANE

>  <SYNONYMS>  (6895) 
BIS(2-CHLORO-2-PROPYL) ETHER

>  <SPECTRUM TYPE>  (6895) 
MS1

>  <INSTRUMENT TYPE>  (6895) 
EI-B

>  <INSTRUMENT>  (6895) 
JEOL JMS-01-SG

>  <ION MODE>  (6895) 
P

>  <INCHIKEY>  (6895) 
BULHJTXRZFEUDQ-UHFFFAOYSA-N

>  <FORMULA>  (6895) 
C6H12Cl2O

>  <EXACT MASS>  (6895) 
170.026520364

>  <MW>  (6895) 
170

>  <ID>  (6895) 
JP000963

>  <CONTRIBUTOR>  (6895) 
University of Tokyo Team, {Faculty of Engineering, University of Tokyo

>  <COMMENT>  (6895) 
SMILES=CC(C)(Cl)OC(C)(C)Cl
cas=39638-32-9
InChI=InChI=1S/C6H12Cl2O/c1-5(2,7)9-6(3,4)8/h1-4H3
computed SMILES=ClC(OC(Cl)(C)C)(C)C
accession=JP000963
date=2016.01.19 (Created 2008.10.21, modified 2011.05.06)
author=KOGA M, UNIV. OF OCCUPATIONAL AND ENVIRONMENTAL HEALTH
license=CC BY-NC-SA
exact mass=170.02652
ionization energy=70 eV
ion type=[M]+*
computed spectral entropy=2.121280293603992
computed normalized entropy=0.696753049778869
SPLASH=splash10-006w-9400000000-3c810548cdc38782d29b
submitter=submitter = University of Tokyo Team (Faculty of Engineering, University of Tokyo)
MoNA Rating=3.75

>  <NUM PEAKS>  (6895) 
21

>  <MASS SPECTRAL PEAKS>  (6895) 
41 64.1
42 8.3
43 10.5
45 99.99
46 2
49 11.1
51 3.5
57 0.21
59 2.5
71 3.5
76 2.2
77 2.64
79 18.3
81 3.2
89 2.1
93 0.24
107 10.7
109 3
121 69.1
122 0.37
123 24

$$$$

     RDKit          2D

  9  8  0  0  0  0  0  0  0  0999 V2000
    1.2990    5.2500    0.0000 C   0  0  0  0  0  0  0  0  0  0  0  0
   -6.4952    5.2500    0.0000 C   0  0  0  0  0  0  0  0  0  0  0  0
    0.0000    4.5000    0.0000 C   0  0  0  0  0  0  0  0  0  0  0  0
   -5.1962    4.5000    0.0000 C   0  0  0  0  0  0  0  0  0  0  0  0
   -2.5981    4.5000    0.0000 C   0  0  0  0  0  0  0  0  0  0  0  0
    2.5981    4.5000    0.0000 Cl  0  0  0  0  0  0  0  0  0  0  0  0
   -7.7942    4.5000    0.0000 Cl  0  0  0  0  0  0  0  0  0  0  0  0
   -1.2990    5.2500    0.0000 O   0  0  0  0  0  0  0  0  0  0  0  0
   -3.8971    5.2500    0.0000 O   0  0  0  0  0  0  0  0  0  0  0  0
  3  1  1  0
  4  2  1  0
  6  1  1  0
  7  2  1  0
  8  3  1  0
  8  5  1  0
  9  4  1  0
  9  5  1  0
M  END
>  <NAME>  (6896) 
BIS(2-CHLOROETHOXY)METHANE

>  <SYNONYMS>  (6896) 


>  <SPECTRUM TYPE>  (6896) 
MS1

>  <INSTRUMENT TYPE>  (6896) 
EI-B

>  <INSTRUMENT>  (6896) 
JEOL JMS-01-SG

>  <ION MODE>  (6896) 
P

>  <INCHIKEY>  (6896) 
NLXGURFLBLRZRO-UHFFFAOYSA-N

>  <FORMULA>  (6896) 
C5H10Cl2O2

>  <EXACT MASS>  (6896) 
172.00578492

>  <MW>  (6896) 
172

>  <ID>  (6896) 
JP000962

>  <CONTRIBUTOR>  (6896) 
University of Tokyo Team, {Faculty of Engineering, University of Tokyo

>  <COMMENT>  (6896) 
SMILES=ClCCOCOCCCl
cas=111-91-1
InChI=InChI=1S/C5H10Cl2O2/c6-1-3-8-5-9-4-2-7/h1-5H2
computed SMILES=ClCCOCOCCCl
accession=JP000962
date=2016.01.19 (Created 2008.10.21, modified 2011.05.06)
author=KOGA M, UNIV. OF OCCUPATIONAL AND ENVIRONMENTAL HEALTH
license=CC BY-NC-SA
exact mass=172.00578
ionization energy=70 eV
ion type=[M]+*
computed spectral entropy=1.8503500923261527
computed normalized entropy=0.6832776185511765
SPLASH=splash10-01ox-9100000000-c31715bf440cf579c172
submitter=submitter = University of Tokyo Team (Faculty of Engineering, University of Tokyo)
MoNA Rating=3.75

>  <NUM PEAKS>  (6896) 
15

>  <MASS SPECTRAL PEAKS>  (6896) 
43 2.8
44 3.8
49 4.5
61 0.21
62 3.2
63 68.7
65 22.1
93 99.99
94 3.4
95 30.4
96 2.1
106 0.49
123 24.9
125 7.2
171 3

$$$$

     RDKit          2D

  8  8  0  0  0  0  0  0  0  0999 V2000
   -2.9228    0.8825    0.0000 C   0  0  0  0  0  0  0  0  0  0  0  0
   -1.6238    1.6325    0.0000 C   0  0  0  0  0  0  0  0  0  0  0  0
    2.2733   -0.6175    0.0000 C   0  0  0  0  0  0  0  0  0  0  0  0
    2.2738    0.8833    0.0000 C   0  0  0  0  0  0  0  0  0  0  0  0
    0.9738   -1.3683    0.0000 C   0  0  0  0  0  0  0  0  0  0  0  0
    0.9748    1.6333    0.0000 C   0  0  0  0  0  0  0  0  0  0  0  0
   -0.3252   -0.6183    0.0000 C   0  0  0  0  0  0  0  0  0  0  0  0
   -0.3248    0.8825    0.0000 C   0  0  0  0  0  0  0  0  0  0  0  0
  2  1  1  0
  4  3  2  0
  5  3  1  0
  6  4  1  0
  7  5  2  0
  8  2  1  0
  8  6  2  0
  8  7  1  0
M  END
>  <NAME>  (6897) 
ETHYLBENZENE

>  <SYNONYMS>  (6897) 


>  <SPECTRUM TYPE>  (6897) 
MS1

>  <INSTRUMENT TYPE>  (6897) 
EI-B

>  <INSTRUMENT>  (6897) 
JEOL JMS-01-SG

>  <ION MODE>  (6897) 
P

>  <INCHIKEY>  (6897) 
YNQLUTRBYVCPMQ-UHFFFAOYSA-N

>  <FORMULA>  (6897) 
C8H10

>  <EXACT MASS>  (6897) 
106.07825032

>  <MW>  (6897) 
106

>  <ID>  (6897) 
JP000961

>  <CONTRIBUTOR>  (6897) 
University of Tokyo Team, {Faculty of Engineering, University of Tokyo

>  <COMMENT>  (6897) 
SMILES=CCc(c1)cccc1
cas=100-41-4
InChI=InChI=1S/C8H10/c1-2-8-6-4-3-5-7-8/h3-7H,2H2,1H3
computed SMILES=C=1C=CC(=CC1)CC
accession=JP000961
date=2016.01.19 (Created 2008.10.21, modified 2011.05.06)
author=KOGA M, UNIV. OF OCCUPATIONAL AND ENVIRONMENTAL HEALTH
license=CC BY-NC-SA
exact mass=106.07825
ionization energy=70 eV
ion type=[M]+*
computed spectral entropy=1.7981455440143332
computed normalized entropy=0.6346664813599914
SPLASH=splash10-0006-9000000000-e311097b1353d1f46e6e
submitter=submitter = University of Tokyo Team (Faculty of Engineering, University of Tokyo)
MoNA Rating=3.75

>  <NUM PEAKS>  (6897) 
17

>  <MASS SPECTRAL PEAKS>  (6897) 
39 6.5
50 5.3
51 10.7
52 0.35
62 2
63 4.9
65 10.9
77 0.92
78 8
79 4.2
89 2.8
91 99.99
92 7.6
103 3.1
105 4.5
106 2.73
107 2.5

$$$$

     RDKit          2D

 19 23  0  0  1  0  0  0  0  0999 V2000
   -3.5977    0.7598    0.0000 C   0  0  0  0  0  0  0  0  0  0  0  0
   -4.0177    2.2698    0.0000 C   0  0  0  0  0  0  0  0  0  0  0  0
   -4.0177   -0.7302    0.0000 C   0  0  0  0  0  0  0  0  0  0  0  0
   -2.7177    1.5198    0.0000 C   0  0  0  0  0  0  0  0  0  0  0  0
   -2.7177    0.0198    0.0000 C   0  0  0  0  0  0  0  0  0  0  0  0
   -5.3177    1.5198    0.0000 C   0  0  0  0  0  0  0  0  0  0  0  0
   -5.3177    0.0198    0.0000 C   0  0  0  0  0  0  0  0  0  0  0  0
   -0.1177    1.5198    0.0000 C   0  0  0  0  0  0  0  0  0  0  0  0
   -0.1177    0.0198    0.0000 C   0  0  0  0  0  0  0  0  0  0  0  0
   -1.4177    2.2698    0.0000 C   0  0  0  0  0  0  0  0  0  0  0  0
   -1.4177   -0.7302    0.0000 C   0  0  0  0  0  0  0  0  0  0  0  0
   -0.9077    0.7798    0.0000 C   0  0  0  0  0  0  0  0  0  0  0  0
    1.5968    2.5101    0.0000 Cl  0  0  0  0  0  0  0  0  0  0  0  0
    1.5968   -0.9705    0.0000 Cl  0  0  0  0  0  0  0  0  0  0  0  0
   -1.4177    3.7698    0.0000 Cl  0  0  0  0  0  0  0  0  0  0  0  0
   -1.4177   -2.2302    0.0000 Cl  0  0  0  0  0  0  0  0  0  0  0  0
    0.2814   -1.9090    0.0000 Cl  0  0  0  0  0  0  0  0  0  0  0  0
    2.0141    1.1063    0.0000 Cl  0  0  0  0  0  0  0  0  0  0  0  0
   -6.6177    0.7698    0.0000 O   0  0  0  0  0  0  0  0  0  0  0  0
  2  1  1  1
  3  1  1  1
  4  2  1  0
  5  3  1  0
  5  4  1  0
  6  2  1  0
  7  3  1  0
  7  6  1  0
  9  8  2  0
  4 10  1  6
 10  8  1  0
  5 11  1  6
 11  9  1  0
 12 10  1  0
 12 11  1  0
 13  8  1  0
 14  9  1  0
 10 15  1  1
 11 16  1  1
 17 12  1  0
 18 12  1  0
  6 19  1  1
  7 19  1  1
M  END
>  <NAME>  (6898) 
1,2,3,4,10,10-HEXACHLORO-6,7-EPOXY-1,4,4A,5,6,7,8,8A-OCTAHYDRO-ENDO,ENDO-,1,4:5,8-DIMETHANONAPHTHALENE

>  <SYNONYMS>  (6898) 
ENDRIN

>  <SPECTRUM TYPE>  (6898) 
MS1

>  <INSTRUMENT TYPE>  (6898) 
EI-B

>  <INSTRUMENT>  (6898) 
JEOL JMS-01-SG

>  <ION MODE>  (6898) 
P

>  <INCHIKEY>  (6898) 
DFBKLUNHFCTMDC-GKRDHZSOSA-N

>  <FORMULA>  (6898) 
C12H8Cl6O

>  <EXACT MASS>  (6898) 
377.870630956

>  <MW>  (6898) 
378

>  <ID>  (6898) 
JP000960

>  <CONTRIBUTOR>  (6898) 
University of Tokyo Team, {Faculty of Engineering, University of Tokyo

>  <COMMENT>  (6898) 
SMILES=ClC(=C(Cl)1)C(Cl)(C(Cl)(Cl)2)C([H])(C([H])54)C([H])(C([H])(C5)C([H])(O3)C([H])34)C(Cl)12
cas=72-20-8
InChI=InChI=1S/C12H8Cl6O/c13-8-9(14)11(16)5-3-1-2(6-7(3)19-6)4(5)10(8,15)12(11,17)18/h2-7H,1H2/t2-,3+,4-,5+,6-,7+,10-,11+
computed SMILES=ClC1=C(Cl)C2(Cl)C3C4CC(C5OC54)C3C1(Cl)C2(Cl)Cl
accession=JP000960
date=2016.01.19 (Created 2008.10.21, modified 2011.05.06)
author=KOGA M, UNIV. OF OCCUPATIONAL AND ENVIRONMENTAL HEALTH
license=CC BY-NC-SA
exact mass=377.87063
ionization energy=70 eV
ion type=[M]+*
computed spectral entropy=4.800208547093479
computed normalized entropy=0.8907301271450933
SPLASH=splash10-014i-9853000000-1dea6686531cd948b9c7
submitter=submitter = University of Tokyo Team (Faculty of Engineering, University of Tokyo)
MoNA Rating=3.75

>  <NUM PEAKS>  (6898) 
219

>  <MASS SPECTRAL PEAKS>  (6898) 
50 11.9
51 17.4
52 3.3
53 0.71
54 2.2
55 18.2
56 3
57 0.42
60 3.5
61 6.5
62 10.3
63 1.99
64 2.5
65 17.1
66 23.8
67 99.99
68 10.9
69 9.2
71 2.6
72 0.44
73 28.9
74 17.1
75 26.5
76 0.44
77 24.6
78 4.8
79 18.3
80 0.36
81 6.1
82 5.4
83 55.6
84 0.76
85 45.7
86 15.7
87 20.4
88 0.49
89 6.3
91 4.9
93 2.4
94 0.36
95 7.7
96 8.5
97 9.6
98 1.63
99 16.3
100 5.6
101 19.1
102 0.7
103 10.4
104 11.5
105 9.2
106 0.48
107 13.2
108 11.2
109 16.4
110 0.59
111 16.6
112 5.2
113 20.6
114 0.49
115 8.7
117 4.2
118 3.2
119 0.57
120 4.8
121 8.4
122 8.9
123 1.04
124 3.2
125 4.7
126 4.8
127 0.39
128 2.1
129 4.5
131 4.1
132 0.22
133 12.4
134 3.7
135 9.5
136 0.72
137 12.3
138 9.4
139 24.6
140 0.62
141 5
143 5.6
145 7.3
146 0.48
147 22.5
148 6.9
149 28.2
150 0.4
151 5.6
155 2.2
157 3.9
159 0.74
160 3.8
161 5.3
162 5.6
163 0.41
164 3.2
167 5.5
168 2.6
169 0.75
170 7.3
171 7.2
172 6.2
173 1.91
174 6.7
175 16.2
176 3.5
177 0.65
178 2.8
179 2.9
180 7.2
181 0.84
182 9.5
183 14
184 5.1
185 1.2
186 2.5
187 5.4
191 4.4
193 1.24
194 5.2
195 11.3
196 9.6
197 0.78
198 6.8
199 3.3
201 2.7
203 0.36
204 3.2
205 3.6
206 5.9
207 3.16
208 11.9
209 28.2
210 9.1
211 1.69
212 3.9
213 4.9
214 6
215 0.47
216 7.2
217 12
218 5.3
219 1.13
220 3.4
221 6
223 2.4
227 0.27
229 3.6
230 3.2
231 3.6
232 0.35
236 2.4
237 2.8
238 2.9
239 0.26
241 3.2
242 2.4
243 18
244 0.95
245 21.5
246 10.1
247 8.5
248 2.51
249 5.4
250 36.1
251 7.6
252 2.28
253 7
254 9.4
255 3.8
256 0.32
257 2
258 2.9
259 2.2
261 0.26
263 3.5
265 3.9
267 3.4
271 0.28
273 3.1
275 2.5
277 3.5
278 0.59
279 17.3
280 7.8
281 25.5
282 0.76
283 12.7
284 2.8
285 3.7
307 0.45
309 5.6
311 4.5
313 3
315 3.33
316 5.5
317 50.8
318 7
319 3.37
320 9.1
323 2.1
343 21.7
344 0.51
345 35.6
346 5.9
347 24.5
348 0.3
349 7.1
350 2.8
352 2.8
354 0.22
378 2.8
380 6
382 4.8

$$$$

     RDKit          2D

 16 17  0  0  0  0  0  0  0  0999 V2000
   -1.3000    0.7500    0.0000 C   0  0  0  0  0  0  0  0  0  0  0  0
   -2.5989   -3.0002    0.0000 C   0  0  0  0  0  0  0  0  0  0  0  0
    0.0000    1.5000    0.0000 C   0  0  0  0  0  0  0  0  0  0  0  0
   -3.8989   -3.7502    0.0000 C   0  0  0  0  0  0  0  0  0  0  0  0
   -0.0000   -1.5000    0.0000 C   0  0  0  0  0  0  0  0  0  0  0  0
   -3.8989   -0.7502    0.0000 C   0  0  0  0  0  0  0  0  0  0  0  0
   -1.3000   -0.7500    0.0000 C   0  0  0  0  0  0  0  0  0  0  0  0
   -2.5989   -1.5002    0.0000 C   0  0  0  0  0  0  0  0  0  0  0  0
    1.3000   -0.7500    0.0000 C   0  0  0  0  0  0  0  0  0  0  0  0
   -5.1989   -1.5002    0.0000 C   0  0  0  0  0  0  0  0  0  0  0  0
    1.3000    0.7500    0.0000 C   0  0  0  0  0  0  0  0  0  0  0  0
   -5.1989   -3.0002    0.0000 C   0  0  0  0  0  0  0  0  0  0  0  0
    2.5989   -1.5002    0.0000 Cl  0  0  0  0  0  0  0  0  0  0  0  0
   -6.4978   -0.7500    0.0000 Cl  0  0  0  0  0  0  0  0  0  0  0  0
    2.5989    1.5002    0.0000 N   0  0  0  0  0  0  0  0  0  0  0  0
   -6.4978   -3.7504    0.0000 N   0  0  0  0  0  0  0  0  0  0  0  0
  3  1  2  0
  4  2  2  0
  7  1  1  0
  7  5  2  0
  8  2  1  0
  8  6  2  0
  8  7  1  0
  9  5  1  0
 10  6  1  0
 11  3  1  0
 11  9  2  0
 12  4  1  0
 12 10  2  0
 13  9  1  0
 14 10  1  0
 15 11  1  0
 16 12  1  0
M  END
>  <NAME>  (6899) 
3,3'-DICHLOROBENZIDINE

>  <SYNONYMS>  (6899) 
4,4'-DIAMINO-3,3'-DICHLOROBIPHENYL

>  <SPECTRUM TYPE>  (6899) 
MS1

>  <INSTRUMENT TYPE>  (6899) 
EI-B

>  <INSTRUMENT>  (6899) 
JEOL JMS-01-SG

>  <ION MODE>  (6899) 
P

>  <INCHIKEY>  (6899) 
HUWXDEQWWKGHRV-UHFFFAOYSA-N

>  <FORMULA>  (6899) 
C12H10Cl2N2

>  <EXACT MASS>  (6899) 
252.02210368

>  <MW>  (6899) 
252

>  <ID>  (6899) 
JP000959

>  <CONTRIBUTOR>  (6899) 
University of Tokyo Team, {Faculty of Engineering, University of Tokyo

>  <COMMENT>  (6899) 
SMILES=Nc(c2)c(Cl)cc(c2)c(c1)cc(Cl)c(N)c1
cas=91-94-1
InChI=InChI=1S/C12H10Cl2N2/c13-9-5-7(1-3-11(9)15)8-2-4-12(16)10(14)6-8/h1-6H,15-16H2
computed SMILES=ClC=1C=C(C=CC1N)C2=CC=C(N)C(Cl)=C2
accession=JP000959
date=2016.01.19 (Created 2008.10.21, modified 2011.05.06)
author=KOGA M, UNIV. OF OCCUPATIONAL AND ENVIRONMENTAL HEALTH
license=CC BY-NC-SA
exact mass=252.0221
ionization energy=70 eV
ion type=[M]+*
computed spectral entropy=3.070916998140574
computed normalized entropy=0.7470229200910132
SPLASH=splash10-0udi-2490000000-f4b5d329208c866ae89e
submitter=submitter = University of Tokyo Team (Faculty of Engineering, University of Tokyo)
MoNA Rating=3.75

>  <NUM PEAKS>  (6899) 
61

>  <MASS SPECTRAL PEAKS>  (6899) 
50 2.6
51 3.5
52 4.1
54 0.2
55 2.6
62 2.3
63 7.6
64 0.23
65 2.6
73 2.3
74 3.5
75 0.47
76 5
77 9.6
78 2
82 0.23
87 2.3
89 2.3
90 3.5
91 1.26
94 2.3
95 2.6
98 2.3
99 0.23
100 2.3
101 3.8
102 2.9
108 0.56
109 3.8
117 4.4
125 2.6
126 1.73
127 15.5
128 4.7
129 2
130 0.2
131 2
151 2.3
152 4.4
153 0.47
154 13.7
155 4.1
164 4.4
165 0.23
179 2.6
181 10.8
182 9.9
183 0.23
188 2.9
190 4.1
215 5
216 0.58
217 4.7
224 2.3
226 2
251 0.61
252 99.99
253 17.8
254 59.1
255 0.88
256 9.6

$$$$

     RDKit          2D

  5  4  0  0  0  0  0  0  0  0999 V2000
    0.0000    1.5000    0.0000 C   0  0  0  0  0  0  0  0  0  0  0  0
   -1.2990    2.2500    0.0000 C   0  0  0  0  0  0  0  0  0  0  0  0
   -0.0000   -0.0000    0.0000 Cl  0  0  0  0  0  0  0  0  0  0  0  0
   -1.2990    3.7500    0.0000 Cl  0  0  0  0  0  0  0  0  0  0  0  0
   -2.5981    1.5000    0.0000 Cl  0  0  0  0  0  0  0  0  0  0  0  0
  2  1  1  0
  3  1  1  0
  4  2  1  0
  5  2  1  0
M  END
>  <NAME>  (6900) 
1,1,2-TRICHLOROETHANE

>  <SYNONYMS>  (6900) 


>  <SPECTRUM TYPE>  (6900) 
MS1

>  <INSTRUMENT TYPE>  (6900) 
EI-B

>  <INSTRUMENT>  (6900) 
JEOL JMS-01-SG

>  <ION MODE>  (6900) 
P

>  <INCHIKEY>  (6900) 
UBOXGVDOUJQMTN-UHFFFAOYSA-N

>  <FORMULA>  (6900) 
C2H3Cl3

>  <EXACT MASS>  (6900) 
131.930033136

>  <MW>  (6900) 
132

>  <ID>  (6900) 
JP000958

>  <CONTRIBUTOR>  (6900) 
University of Tokyo Team, {Faculty of Engineering, University of Tokyo

>  <COMMENT>  (6900) 
SMILES=ClCC(Cl)Cl
cas=79-00-5
InChI=InChI=1S/C2H3Cl3/c3-1-2(4)5/h2H,1H2
computed SMILES=ClCC(Cl)Cl
accession=JP000958
date=2016.01.19 (Created 2008.10.21, modified 2011.05.06)
author=KOGA M, UNIV. OF OCCUPATIONAL AND ENVIRONMENTAL HEALTH
license=CC BY-NC-SA
exact mass=131.93003
ionization energy=70 eV
ion type=[M]+*
computed spectral entropy=2.473915995194802
computed normalized entropy=0.7593132880884852
SPLASH=splash10-0002-9000000000-b36dd60ff3a07b029065
submitter=submitter = University of Tokyo Team (Faculty of Engineering, University of Tokyo)
MoNA Rating=3.75

>  <NUM PEAKS>  (6900) 
26

>  <MASS SPECTRAL PEAKS>  (6900) 
25 2.9
26 10.2
27 7.8
35 0.75
36 2.3
37 2.6
47 4.1
48 0.32
49 7.8
60 9.3
61 54.7
62 0.96
63 17.7
83 76
85 53
87 0.78
95 5
96 28.3
97 99.99
98 2.06
99 61.7
100 4.4
101 9.8
132 1.57
134 15.8
136 4.9

$$$$

     RDKit          2D

  5  4  0  0  0  0  0  0  0  0999 V2000
   -1.2990    0.7500    0.0000 C   0  0  0  0  0  0  0  0  0  0  0  0
    0.0000    1.5000    0.0000 C   0  0  0  0  0  0  0  0  0  0  0  0
    0.7500    0.2010    0.0000 Cl  0  0  0  0  0  0  0  0  0  0  0  0
    1.2990    2.2500    0.0000 Cl  0  0  0  0  0  0  0  0  0  0  0  0
   -0.7500    2.7990    0.0000 Cl  0  0  0  0  0  0  0  0  0  0  0  0
  2  1  1  0
  3  2  1  0
  4  2  1  0
  5  2  1  0
M  END
>  <NAME>  (6901) 
1,1,1-TRICHLOROETHANE

>  <SYNONYMS>  (6901) 


>  <SPECTRUM TYPE>  (6901) 
MS1

>  <INSTRUMENT TYPE>  (6901) 
EI-B

>  <INSTRUMENT>  (6901) 
JEOL JMS-01-SG

>  <ION MODE>  (6901) 
P

>  <INCHIKEY>  (6901) 
UOCLXMDMGBRAIB-UHFFFAOYSA-N

>  <FORMULA>  (6901) 
C2H3Cl3

>  <EXACT MASS>  (6901) 
131.930033136

>  <MW>  (6901) 
132

>  <ID>  (6901) 
JP000957

>  <CONTRIBUTOR>  (6901) 
University of Tokyo Team, {Faculty of Engineering, University of Tokyo

>  <COMMENT>  (6901) 
SMILES=CC(Cl)(Cl)Cl
cas=71-55-6
InChI=InChI=1S/C2H3Cl3/c1-2(3,4)5/h1H3
computed SMILES=ClC(Cl)(Cl)C
accession=JP000957
date=2016.01.19 (Created 2008.10.21, modified 2011.05.06)
author=KOGA M, UNIV. OF OCCUPATIONAL AND ENVIRONMENTAL HEALTH
license=CC BY-NC-SA
exact mass=131.93003
ionization energy=70 eV
ion type=[M]+*
computed spectral entropy=2.054795874071044
computed normalized entropy=0.6978564978285775
SPLASH=splash10-0002-9000000000-acdd1de2f2f494cc9f33
submitter=submitter = University of Tokyo Team (Faculty of Engineering, University of Tokyo)
MoNA Rating=3.75

>  <NUM PEAKS>  (6901) 
19

>  <MASS SPECTRAL PEAKS>  (6901) 
25 3.7
26 11.8
27 7.5
35 0.87
36 2.7
37 3.3
47 3.8
60 0.96
61 51.2
62 6.9
63 16.3
82 0.23
97 99.99
98 3.2
99 60.9
101 1.02
117 10.7
119 10.2
121 3.3

$$$$

     RDKit          2D

  6  5  0  0  0  0  0  0  0  0999 V2000
   -0.0000    1.5000    0.0000 C   0  0  0  0  0  0  0  0  0  0  0  0
   -1.2990    2.2500    0.0000 C   0  0  0  0  0  0  0  0  0  0  0  0
   -0.0000   -0.0000    0.0000 Cl  0  0  0  0  0  0  0  0  0  0  0  0
    1.2990    2.2500    0.0000 Cl  0  0  0  0  0  0  0  0  0  0  0  0
   -1.2990    3.7500    0.0000 Cl  0  0  0  0  0  0  0  0  0  0  0  0
   -2.5981    1.5000    0.0000 Cl  0  0  0  0  0  0  0  0  0  0  0  0
  2  1  1  0
  3  1  1  0
  4  1  1  0
  5  2  1  0
  6  2  1  0
M  END
>  <NAME>  (6902) 
1,1,2,2,-TETRACHLOROETHANE

>  <SYNONYMS>  (6902) 


>  <SPECTRUM TYPE>  (6902) 
MS1

>  <INSTRUMENT TYPE>  (6902) 
EI-B

>  <INSTRUMENT>  (6902) 
JEOL JMS-01-SG

>  <ION MODE>  (6902) 
P

>  <INCHIKEY>  (6902) 
QPFMBZIOSGYJDE-UHFFFAOYSA-N

>  <FORMULA>  (6902) 
C2H2Cl4

>  <EXACT MASS>  (6902) 
165.891060784

>  <MW>  (6902) 
166

>  <ID>  (6902) 
JP000956

>  <CONTRIBUTOR>  (6902) 
University of Tokyo Team, {Faculty of Engineering, University of Tokyo

>  <COMMENT>  (6902) 
SMILES=ClC(Cl)C(Cl)Cl
cas=79-34-5
InChI=InChI=1S/C2H2Cl4/c3-1(4)2(5)6/h1-2H
computed SMILES=ClC(Cl)C(Cl)Cl
accession=JP000956
date=2016.01.19 (Created 2008.10.21, modified 2011.05.06)
author=KOGA M, UNIV. OF OCCUPATIONAL AND ENVIRONMENTAL HEALTH
license=CC BY-NC-SA
exact mass=165.89106
ionization energy=70 eV
ion type=[M]+*
computed spectral entropy=2.2940969016961037
computed normalized entropy=0.7041218315431566
SPLASH=splash10-001r-9100000000-4cc746f789afd4c17dca
submitter=submitter = University of Tokyo Team (Faculty of Engineering, University of Tokyo)
MoNA Rating=3.75

>  <NUM PEAKS>  (6902) 
26

>  <MASS SPECTRAL PEAKS>  (6902) 
35 8.4
36 2.6
37 2.8
45 0.2
47 5.4
48 4.1
49 2.5
60 1.41
61 11.9
62 4.6
63 3.8
83 99.99
85 66.3
87 9.8
95 15.6
96 1.11
97 10.8
98 6
130 2.6
131 0.87
132 2.9
133 8.4
135 2.6
166 0.77
168 9.9
170 4.1

$$$$

     RDKit          2D

  8  7  0  0  0  0  0  0  0  0999 V2000
    0.3750    0.8505    0.0000 C   0  0  0  0  0  0  0  0  0  0  0  0
    1.1250    2.1495    0.0000 C   0  0  0  0  0  0  0  0  0  0  0  0
    1.6740    0.1005    0.0000 Cl  0  0  0  0  0  0  0  0  0  0  0  0
   -0.9240    1.6005    0.0000 Cl  0  0  0  0  0  0  0  0  0  0  0  0
   -0.3750   -0.4486    0.0000 Cl  0  0  0  0  0  0  0  0  0  0  0  0
    2.4240    1.3995    0.0000 Cl  0  0  0  0  0  0  0  0  0  0  0  0
    1.8750    3.4486    0.0000 Cl  0  0  0  0  0  0  0  0  0  0  0  0
   -0.1740    2.8995    0.0000 Cl  0  0  0  0  0  0  0  0  0  0  0  0
  2  1  1  0
  3  1  1  0
  4  1  1  0
  5  1  1  0
  6  2  1  0
  7  2  1  0
  8  2  1  0
M  END
>  <NAME>  (6903) 
HEXACHLOROETHANE

>  <SYNONYMS>  (6903) 


>  <SPECTRUM TYPE>  (6903) 
MS1

>  <INSTRUMENT TYPE>  (6903) 
EI-B

>  <INSTRUMENT>  (6903) 
JEOL JMS-01-SG

>  <ION MODE>  (6903) 
P

>  <INCHIKEY>  (6903) 
VHHHONWQHHHLTI-UHFFFAOYSA-N

>  <FORMULA>  (6903) 
C2Cl6

>  <EXACT MASS>  (6903) 
233.81311608

>  <MW>  (6903) 
234

>  <ID>  (6903) 
JP000955

>  <CONTRIBUTOR>  (6903) 
University of Tokyo Team, {Faculty of Engineering, University of Tokyo

>  <COMMENT>  (6903) 
SMILES=ClC(Cl)(Cl)C(Cl)(Cl)Cl
cas=67-72-1
InChI=InChI=1S/C2Cl6/c3-1(4,5)2(6,7)8
computed SMILES=ClC(Cl)(Cl)C(Cl)(Cl)Cl
accession=JP000955
date=2016.01.19 (Created 2008.10.21, modified 2011.05.06)
author=KOGA M, UNIV. OF OCCUPATIONAL AND ENVIRONMENTAL HEALTH
license=CC BY-NC-SA
exact mass=233.81312
ionization energy=70 eV
ion type=[M]+*
computed spectral entropy=2.663416268348276
computed normalized entropy=0.8274367863995907
SPLASH=splash10-014j-4920000000-137222e716f44e0cd526
submitter=submitter = University of Tokyo Team (Faculty of Engineering, University of Tokyo)
MoNA Rating=3.75

>  <NUM PEAKS>  (6903) 
25

>  <MASS SPECTRAL PEAKS>  (6903) 
47 30.4
49 9.9
59 14
61 0.44
82 21.7
83 8.2
84 13.7
94 3.05
96 17.9
98 3
117 99.99
119 8.3
121 28.6
123 3.1
129 10.1
131 0.94
133 3.1
164 23.1
166 32.3
168 1.57
170 3.1
199 34.7
201 57.8
203 3.75
205 11.6

$$$$

     RDKit          2D

  4  3  0  0  0  0  0  0  0  0999 V2000
   -1.2990    1.5000    0.0000 C   0  0  0  0  0  0  0  0  0  0  0  0
    0.0000    2.2500    0.0000 C   0  0  0  0  0  0  0  0  0  0  0  0
   -2.5981    2.2500    0.0000 Cl  0  0  0  0  0  0  0  0  0  0  0  0
    1.2990    1.5000    0.0000 Cl  0  0  0  0  0  0  0  0  0  0  0  0
  2  1  1  0
  3  1  1  0
  4  2  1  0
M  END
>  <NAME>  (6904) 
1,2-DICHLOROETHANE

>  <SYNONYMS>  (6904) 


>  <SPECTRUM TYPE>  (6904) 
MS1

>  <INSTRUMENT TYPE>  (6904) 
EI-B

>  <INSTRUMENT>  (6904) 
JEOL JMS-01-SG

>  <ION MODE>  (6904) 
P

>  <INCHIKEY>  (6904) 
WSLDOOZREJYCGB-UHFFFAOYSA-N

>  <FORMULA>  (6904) 
C2H4Cl2

>  <EXACT MASS>  (6904) 
97.969005488

>  <MW>  (6904) 
98

>  <ID>  (6904) 
JP000954

>  <CONTRIBUTOR>  (6904) 
University of Tokyo Team, {Faculty of Engineering, University of Tokyo

>  <COMMENT>  (6904) 
SMILES=ClCCCl
cas=107-06-2
InChI=InChI=1S/C2H4Cl2/c3-1-2-4/h1-2H2
computed SMILES=ClCCCl
accession=JP000954
date=2016.01.19 (Created 2008.10.21, modified 2011.05.06)
author=KOGA M, UNIV. OF OCCUPATIONAL AND ENVIRONMENTAL HEALTH
license=CC BY-NC-SA
exact mass=97.96901
ionization energy=70 eV
ion type=[M]+*
computed spectral entropy=2.013273693183591
computed normalized entropy=0.6965448951968056
SPLASH=splash10-03di-9000000000-9bbb890df5219b043356
submitter=submitter = University of Tokyo Team (Faculty of Engineering, University of Tokyo)
MoNA Rating=3.75

>  <NUM PEAKS>  (6904) 
18

>  <MASS SPECTRAL PEAKS>  (6904) 
25 3
26 13.1
27 39.8
28 0.33
35 4.2
36 2.6
47 2.1
48 0.22
49 24.9
51 7.8
60 3.2
61 0.88
62 99.99
63 12.5
64 31.1
65 0.32
98 7.3
100 4.5

$$$$

     RDKit          2D

  4  3  0  0  0  0  0  0  0  0999 V2000
    0.9743    0.5625    0.0000 C   0  0  0  0  0  0  0  0  0  0  0  0
   -0.3248    1.3125    0.0000 C   0  0  0  0  0  0  0  0  0  0  0  0
   -1.6238    0.5625    0.0000 Cl  0  0  0  0  0  0  0  0  0  0  0  0
   -0.3248    2.8125    0.0000 Cl  0  0  0  0  0  0  0  0  0  0  0  0
  2  1  1  0
  3  2  1  0
  4  2  1  0
M  END
>  <NAME>  (6905) 
1,1-DICHLOROETHANE

>  <SYNONYMS>  (6905) 


>  <SPECTRUM TYPE>  (6905) 
MS1

>  <INSTRUMENT TYPE>  (6905) 
EI-B

>  <INSTRUMENT>  (6905) 
JEOL JMS-01-SG

>  <ION MODE>  (6905) 
P

>  <INCHIKEY>  (6905) 
SCYULBFZEHDVBN-UHFFFAOYSA-N

>  <FORMULA>  (6905) 
C2H4Cl2

>  <EXACT MASS>  (6905) 
97.969005488

>  <MW>  (6905) 
98

>  <ID>  (6905) 
JP000953

>  <CONTRIBUTOR>  (6905) 
University of Tokyo Team, {Faculty of Engineering, University of Tokyo

>  <COMMENT>  (6905) 
SMILES=CC(Cl)Cl
cas=75-34-3
InChI=InChI=1S/C2H4Cl2/c1-2(3)4/h2H,1H3
computed SMILES=ClC(Cl)C
accession=JP000953
date=2016.01.19 (Created 2008.10.21, modified 2011.05.06)
author=KOGA M, UNIV. OF OCCUPATIONAL AND ENVIRONMENTAL HEALTH
license=CC BY-NC-SA
exact mass=97.96901
ionization energy=70 eV
ion type=[M]+*
computed spectral entropy=2.026610410677775
computed normalized entropy=0.7011590827862567
SPLASH=splash10-03fr-9000000000-3f6cecc18b30923c43a7
submitter=submitter = University of Tokyo Team (Faculty of Engineering, University of Tokyo)
MoNA Rating=3.75

>  <NUM PEAKS>  (6905) 
18

>  <MASS SPECTRAL PEAKS>  (6905) 
25 3.1
26 13.2
27 42.8
28 0.37
35 5.8
36 2.9
37 2.4
47 0.29
60 3.5
61 8.9
62 8.4
63 99.99
64 4.2
65 31.4
83 12.9
85 0.83
98 6.8
100 3.6

$$$$

     RDKit          2D

  3  2  0  0  0  0  0  0  0  0999 V2000
   -1.2990    0.0000    0.0000 C   0  0  0  0  0  0  0  0  0  0  0  0
   -0.0000    0.7500    0.0000 C   0  0  0  0  0  0  0  0  0  0  0  0
    0.0000    2.2500    0.0000 Cl  0  0  0  0  0  0  0  0  0  0  0  0
  2  1  1  0
  3  2  1  0
M  END
>  <NAME>  (6906) 
CHLOROETHANE

>  <SYNONYMS>  (6906) 


>  <SPECTRUM TYPE>  (6906) 
MS1

>  <INSTRUMENT TYPE>  (6906) 
EI-B

>  <INSTRUMENT>  (6906) 
JEOL JMS-01-SG

>  <ION MODE>  (6906) 
P

>  <INCHIKEY>  (6906) 
HRYZWHHZPQKTII-UHFFFAOYSA-N

>  <FORMULA>  (6906) 
C2H5Cl

>  <EXACT MASS>  (6906) 
64.00797784

>  <MW>  (6906) 
64

>  <ID>  (6906) 
JP000952

>  <CONTRIBUTOR>  (6906) 
University of Tokyo Team, {Faculty of Engineering, University of Tokyo

>  <COMMENT>  (6906) 
SMILES=CCCl
cas=75-00-3
InChI=InChI=1S/C2H5Cl/c1-2-3/h2H2,1H3
computed SMILES=ClCC
accession=JP000952
date=2016.01.19 (Created 2008.10.21, modified 2011.05.06)
author=KOGA M, UNIV. OF OCCUPATIONAL AND ENVIRONMENTAL HEALTH
license=CC BY-NC-SA
exact mass=64.00798
ionization energy=70 eV
ion type=[M]+*
computed spectral entropy=2.157224391967576
computed normalized entropy=0.7326436062119644
SPLASH=splash10-004i-9000000000-189a942366091e0718c5
submitter=submitter = University of Tokyo Team (Faculty of Engineering, University of Tokyo)
MoNA Rating=3.75

>  <NUM PEAKS>  (6906) 
19

>  <MASS SPECTRAL PEAKS>  (6906) 
25 7.6
26 39.8
27 82.7
28 8.49
29 78.1
35 7.6
36 4.4
37 0.31
47 4.3
48 4.1
49 27
51 0.88
60 3.8
61 4
62 3.7
63 0.63
64 99.99
65 4.2
66 35

$$$$

     RDKit          2D

  9  9  0  0  0  0  0  0  0  0999 V2000
   -1.3000    0.7500    0.0000 C   0  0  0  0  0  0  0  0  0  0  0  0
    0.0000    1.5000    0.0000 C   0  0  0  0  0  0  0  0  0  0  0  0
   -0.0000   -1.5000    0.0000 C   0  0  0  0  0  0  0  0  0  0  0  0
   -1.3000   -0.7500    0.0000 C   0  0  0  0  0  0  0  0  0  0  0  0
    1.3000    0.7500    0.0000 C   0  0  0  0  0  0  0  0  0  0  0  0
    1.3000   -0.7500    0.0000 C   0  0  0  0  0  0  0  0  0  0  0  0
   -2.5989   -1.5002    0.0000 Cl  0  0  0  0  0  0  0  0  0  0  0  0
    2.5989    1.5002    0.0000 Cl  0  0  0  0  0  0  0  0  0  0  0  0
    2.5989   -1.5002    0.0000 Cl  0  0  0  0  0  0  0  0  0  0  0  0
  2  1  2  0
  4  1  1  0
  4  3  2  0
  5  2  1  0
  6  3  1  0
  6  5  2  0
  7  4  1  0
  8  5  1  0
  9  6  1  0
M  END
>  <NAME>  (6907) 
1,2,4-TRICHLOROBENZENE

>  <SYNONYMS>  (6907) 


>  <SPECTRUM TYPE>  (6907) 
MS1

>  <INSTRUMENT TYPE>  (6907) 
EI-B

>  <INSTRUMENT>  (6907) 
JEOL JMS-01-SG

>  <ION MODE>  (6907) 
P

>  <INCHIKEY>  (6907) 
PBKONEOXTCPAFI-UHFFFAOYSA-N

>  <FORMULA>  (6907) 
C6H3Cl3

>  <EXACT MASS>  (6907) 
179.930033136

>  <MW>  (6907) 
180

>  <ID>  (6907) 
JP000951

>  <CONTRIBUTOR>  (6907) 
University of Tokyo Team, {Faculty of Engineering, University of Tokyo

>  <COMMENT>  (6907) 
SMILES=Clc(c1)cc(Cl)c(Cl)c1
cas=120-82-1
InChI=InChI=1S/C6H3Cl3/c7-4-1-2-5(8)6(9)3-4/h1-3H
computed SMILES=ClC1=CC=C(Cl)C(Cl)=C1
accession=JP000951
date=2016.01.19 (Created 2008.10.21, modified 2011.05.06)
author=KOGA M, UNIV. OF OCCUPATIONAL AND ENVIRONMENTAL HEALTH
license=CC BY-NC-SA
exact mass=179.93003
ionization energy=70 eV
ion type=[M]+*
computed spectral entropy=2.4078292311928444
computed normalized entropy=0.7150631702004383
SPLASH=splash10-001i-2900000000-c9cb3f8f606230da9665
submitter=submitter = University of Tokyo Team (Faculty of Engineering, University of Tokyo)
MoNA Rating=3.75

>  <NUM PEAKS>  (6907) 
29

>  <MASS SPECTRAL PEAKS>  (6907) 
49 3.8
50 6.2
60 2.3
61 0.23
72 6.5
73 11.4
74 21.6
75 1.28
84 8.4
85 3.8
86 2.9
90 0.42
91 4.7
108 3.4
109 22.1
110 0.52
111 7.4
144 3
145 29
146 0.36
147 17.1
149 2.8
180 99.99
181 0.63
182 96.3
183 6.1
184 30.2
185 0.21
186 3

$$$$

     RDKit          2D

 12 12  0  0  0  0  0  0  0  0999 V2000
   -1.3000   -0.7500    0.0000 C   0  0  0  0  0  0  0  0  0  0  0  0
   -0.0000   -1.5000    0.0000 C   0  0  0  0  0  0  0  0  0  0  0  0
   -1.3000    0.7500    0.0000 C   0  0  0  0  0  0  0  0  0  0  0  0
    1.3000   -0.7500    0.0000 C   0  0  0  0  0  0  0  0  0  0  0  0
    0.0000    1.5000    0.0000 C   0  0  0  0  0  0  0  0  0  0  0  0
    1.3000    0.7500    0.0000 C   0  0  0  0  0  0  0  0  0  0  0  0
   -2.5989   -1.5002    0.0000 Cl  0  0  0  0  0  0  0  0  0  0  0  0
   -0.0000   -3.0000    0.0000 Cl  0  0  0  0  0  0  0  0  0  0  0  0
   -2.5989    1.5002    0.0000 Cl  0  0  0  0  0  0  0  0  0  0  0  0
    2.5989   -1.5002    0.0000 Cl  0  0  0  0  0  0  0  0  0  0  0  0
    0.0000    3.0000    0.0000 Cl  0  0  0  0  0  0  0  0  0  0  0  0
    2.5989    1.5002    0.0000 Cl  0  0  0  0  0  0  0  0  0  0  0  0
  2  1  2  0
  3  1  1  0
  4  2  1  0
  5  3  2  0
  6  4  2  0
  6  5  1  0
  7  1  1  0
  8  2  1  0
  9  3  1  0
 10  4  1  0
 11  5  1  0
 12  6  1  0
M  END
>  <NAME>  (6908) 
HEXACHLOROBENZENE

>  <SYNONYMS>  (6908) 


>  <SPECTRUM TYPE>  (6908) 
MS1

>  <INSTRUMENT TYPE>  (6908) 
EI-B

>  <INSTRUMENT>  (6908) 
JEOL JMS-01-SG

>  <ION MODE>  (6908) 
P

>  <INCHIKEY>  (6908) 
CKAPSXZOOQJIBF-UHFFFAOYSA-N

>  <FORMULA>  (6908) 
C6Cl6

>  <EXACT MASS>  (6908) 
281.81311608

>  <MW>  (6908) 
282

>  <ID>  (6908) 
JP000950

>  <CONTRIBUTOR>  (6908) 
University of Tokyo Team, {Faculty of Engineering, University of Tokyo

>  <COMMENT>  (6908) 
SMILES=Clc(c(Cl)1)c(Cl)c(Cl)c(Cl)c(Cl)1
cas=118-74-1
InChI=InChI=1S/C6Cl6/c7-1-2(8)4(10)6(12)5(11)3(1)9
computed SMILES=ClC=1C(Cl)=C(Cl)C(Cl)=C(Cl)C1Cl
accession=JP000950
date=2016.01.19 (Created 2008.10.21, modified 2011.05.06)
author=KOGA M, UNIV. OF OCCUPATIONAL AND ENVIRONMENTAL HEALTH
license=CC BY-NC-SA
exact mass=281.81312
ionization energy=70 eV
ion type=[M]+*
computed spectral entropy=2.914762151606492
computed normalized entropy=0.7848944625957568
SPLASH=splash10-001r-0390000000-97dc8f4d1e5fb325407e
submitter=submitter = University of Tokyo Team (Faculty of Engineering, University of Tokyo)
MoNA Rating=3.75

>  <NUM PEAKS>  (6908) 
41

>  <MASS SPECTRAL PEAKS>  (6908) 
47 4.7
49 3
60 5.8
71 1.35
72 6.6
73 4.4
83 3.3
95 0.77
97 3
106 10.7
107 25.6
108 0.8
109 7.4
118 8.5
120 5.5
123 0.23
130 3
141 5.8
142 35.3
143 1.21
144 22.6
145 2.5
146 3
177 1.21
179 11.8
181 3.9
212 13.2
214 1.93
216 9.9
247 17.6
249 28.1
251 1.85
253 5.2
282 50.7
284 99.99
285 0.61
286 83.7
287 5.2
288 32.8
289 0.22
290 8.8

$$$$

     RDKit          2D

  7  7  0  0  0  0  0  0  0  0999 V2000
    0.0000    2.5700    0.0000 C   0  0  0  0  0  0  0  0  0  0  0  0
    1.3000    1.8200    0.0000 C   0  0  0  0  0  0  0  0  0  0  0  0
   -1.3000    1.8200    0.0000 C   0  0  0  0  0  0  0  0  0  0  0  0
    1.3000    0.3200    0.0000 C   0  0  0  0  0  0  0  0  0  0  0  0
   -1.3000    0.3200    0.0000 C   0  0  0  0  0  0  0  0  0  0  0  0
   -0.0000   -0.4300    0.0000 C   0  0  0  0  0  0  0  0  0  0  0  0
   -0.0000   -1.9300    0.0000 Cl  0  0  0  0  0  0  0  0  0  0  0  0
  2  1  2  0
  3  1  1  0
  4  2  1  0
  5  3  2  0
  6  4  2  0
  6  5  1  0
  7  6  1  0
M  END
>  <NAME>  (6909) 
CHLOROBENZENE

>  <SYNONYMS>  (6909) 


>  <SPECTRUM TYPE>  (6909) 
MS1

>  <INSTRUMENT TYPE>  (6909) 
EI-B

>  <INSTRUMENT>  (6909) 
JEOL JMS-01-SG

>  <ION MODE>  (6909) 
P

>  <INCHIKEY>  (6909) 
MVPPADPHJFYWMZ-UHFFFAOYSA-N

>  <FORMULA>  (6909) 
C6H5Cl

>  <EXACT MASS>  (6909) 
112.00797784

>  <MW>  (6909) 
112

>  <ID>  (6909) 
JP000949

>  <CONTRIBUTOR>  (6909) 
University of Tokyo Team, {Faculty of Engineering, University of Tokyo

>  <COMMENT>  (6909) 
SMILES=Clc(c1)cccc1
cas=108-90-7
InChI=InChI=1S/C6H5Cl/c7-6-4-2-1-3-5-6/h1-5H
computed SMILES=ClC=1C=CC=CC1
accession=JP000949
date=2016.01.19 (Created 2008.10.21, modified 2011.05.06)
author=KOGA M, UNIV. OF OCCUPATIONAL AND ENVIRONMENTAL HEALTH
license=CC BY-NC-SA
exact mass=112.00798
ionization energy=70 eV
ion type=[M]+*
computed spectral entropy=2.11139827461887
computed normalized entropy=0.7170799902997478
SPLASH=splash10-03fr-9700000000-82e784dca91e262a7e4d
submitter=submitter = University of Tokyo Team (Faculty of Engineering, University of Tokyo)
MoNA Rating=3.75

>  <NUM PEAKS>  (6909) 
19

>  <MASS SPECTRAL PEAKS>  (6909) 
37 5.2
38 7.3
39 2.6
45 1.19
49 4.6
50 25
51 25.8
56 0.31
61 2.2
73 6.1
74 11.4
75 0.97
76 6.2
77 67.6
78 4.4
89 0.32
112 99.99
113 7
114 31.4

$$$$

     RDKit          2D

  4  3  0  0  0  0  0  0  0  0999 V2000
    0.0000    0.0000    0.0000 C   0  0  0  0  0  0  0  0  0  0  0  0
    0.0000    1.5000    0.0000 C   0  0  0  0  0  0  0  0  0  0  0  0
   -1.2990    2.2500    0.0000 C   0  0  0  0  0  0  0  0  0  0  0  0
   -2.5981    3.0000    0.0000 N   0  0  0  0  0  0  0  0  0  0  0  0
  2  1  2  0
  3  2  1  0
  4  3  3  0
M  END
>  <NAME>  (6910) 
ACRYLONITRILE

>  <SYNONYMS>  (6910) 
2-PROPENENITRILE

>  <SPECTRUM TYPE>  (6910) 
MS1

>  <INSTRUMENT TYPE>  (6910) 
EI-B

>  <INSTRUMENT>  (6910) 
JEOL JMS-01-SG

>  <ION MODE>  (6910) 
P

>  <INCHIKEY>  (6910) 
NLHHRLWOUZZQLW-UHFFFAOYSA-N

>  <FORMULA>  (6910) 
C3H3N

>  <EXACT MASS>  (6910) 
53.026549096

>  <MW>  (6910) 
53

>  <ID>  (6910) 
JP000948

>  <CONTRIBUTOR>  (6910) 
University of Tokyo Team, {Faculty of Engineering, University of Tokyo

>  <COMMENT>  (6910) 
SMILES=C=CC#N
cas=107-13-1
InChI=InChI=1S/C3H3N/c1-2-3-4/h2H,1H2
computed SMILES=N#CC=C
accession=JP000948
date=2016.01.19 (Created 2008.10.21, modified 2011.05.06)
author=KOGA M, UNIV. OF OCCUPATIONAL AND ENVIRONMENTAL HEALTH
license=CC BY-NC-SA
exact mass=53.02655
ionization energy=70 eV
ion type=[M]+*
computed spectral entropy=1.7629395282026452
computed normalized entropy=0.6680186551535278
SPLASH=splash10-0ufr-9000000000-6f90e7d1a86b1f47b939
submitter=submitter = University of Tokyo Team (Faculty of Engineering, University of Tokyo)
MoNA Rating=3.75

>  <NUM PEAKS>  (6910) 
14

>  <MASS SPECTRAL PEAKS>  (6910) 
24 3.7
25 10.2
26 78.5
27 1.6
28 4.4
36 3.6
37 6.2
38 0.98
39 3
50 9.1
51 33.5
52 7.96
53 99.99
54 3.2

$$$$

     RDKit          2D

  4  3  0  0  0  0  0  0  0  0999 V2000
   -2.5981    2.2500    0.0000 C   0  0  0  0  0  0  0  0  0  0  0  0
   -1.2990    1.5000    0.0000 C   0  0  0  0  0  0  0  0  0  0  0  0
    0.0000    2.2500    0.0000 C   0  0  0  0  0  0  0  0  0  0  0  0
    1.2990    1.5000    0.0000 O   0  0  0  0  0  0  0  0  0  0  0  0
  2  1  2  0
  3  2  1  0
  4  3  2  0
M  END
>  <NAME>  (6911) 
ACROLEIN

>  <SYNONYMS>  (6911) 
2-PROPENAL

>  <SPECTRUM TYPE>  (6911) 
MS1

>  <INSTRUMENT TYPE>  (6911) 
EI-B

>  <INSTRUMENT>  (6911) 
JEOL JMS-01-SG

>  <ION MODE>  (6911) 
P

>  <INCHIKEY>  (6911) 
HGINCPLSRVDWNT-UHFFFAOYSA-N

>  <FORMULA>  (6911) 
C3H4O

>  <EXACT MASS>  (6911) 
56.026214748

>  <MW>  (6911) 
56

>  <ID>  (6911) 
JP000947

>  <CONTRIBUTOR>  (6911) 
University of Tokyo Team, {Faculty of Engineering, University of Tokyo

>  <COMMENT>  (6911) 
SMILES=C=CC=O
cas=107-02-8
InChI=InChI=1S/C3H4O/c1-2-3-4/h2-3H,1H2
computed SMILES=O=CC=C
computed normalized entropy=0.7090179435559777
accession=JP000947
date=2016.01.19 (Created 2008.10.21, modified 2011.05.06)
author=KOGA M, UNIV. OF OCCUPATIONAL AND ENVIRONMENTAL HEALTH
license=CC BY-NC-SA
exact mass=56.02621
ionization energy=70 eV
ion type=[M]+*
computed spectral entropy=1.9200561846318407
SPLASH=splash10-0a4i-9000000000-f6aba25388da7855f3eb
submitter=submitter = University of Tokyo Team (Faculty of Engineering, University of Tokyo)
MoNA Rating=3.75

>  <NUM PEAKS>  (6911) 
15

>  <MASS SPECTRAL PEAKS>  (6911) 
24 2.1
25 8.3
26 44.5
27 6.62
28 3.3
29 37.7
36 4
37 1.13
38 9.3
39 7.1
52 2.6
53 0.86
55 64.9
56 99.99
57 5.3

$$$$

     RDKit          2D

 10 10  0  0  0  0  0  0  0  0999 V2000
    0.1783   -2.1596    0.0000 C   0  0  0  0  0  0  0  0  0  0  0  0
   -1.6344    3.0000    0.0000 C   0  0  0  0  0  0  0  0  0  0  0  0
   -2.5989    1.3300    0.0000 C   0  0  0  0  0  0  0  0  0  0  0  0
    1.4783    0.0904    0.0000 C   0  0  0  0  0  0  0  0  0  0  0  0
   -1.1217    0.0904    0.0000 C   0  0  0  0  0  0  0  0  0  0  0  0
    0.1783    2.3404    0.0000 C   0  0  0  0  0  0  0  0  0  0  0  0
    0.1783   -0.6596    0.0000 C   0  0  0  0  0  0  0  0  0  0  0  0
    1.4783    1.5904    0.0000 C   0  0  0  0  0  0  0  0  0  0  0  0
   -1.1217    1.5904    0.0000 C   0  0  0  0  0  0  0  0  0  0  0  0
    2.7772    2.3406    0.0000 O   0  0  0  0  0  0  0  0  0  0  0  0
  7  1  1  0
  7  4  2  0
  7  5  1  0
  8  4  1  0
  8  6  1  0
  9  2  1  0
  9  3  1  0
  9  5  1  0
  9  6  1  0
 10  8  2  0
M  END
>  <NAME>  (6912) 
3,5,5-TRIMETHYL-2-CYCLOHEXEN-1-ONE

>  <SYNONYMS>  (6912) 
ISOPHORONE

>  <SPECTRUM TYPE>  (6912) 
MS1

>  <INSTRUMENT TYPE>  (6912) 
EI-B

>  <INSTRUMENT>  (6912) 
JEOL JMS-01-SG

>  <ION MODE>  (6912) 
P

>  <INCHIKEY>  (6912) 
HJOVHMDZYOCNQW-UHFFFAOYSA-N

>  <FORMULA>  (6912) 
C9H14O

>  <EXACT MASS>  (6912) 
138.104465068

>  <MW>  (6912) 
138

>  <ID>  (6912) 
JP000946

>  <CONTRIBUTOR>  (6912) 
University of Tokyo Team, {Faculty of Engineering, University of Tokyo

>  <COMMENT>  (6912) 
SMILES=CC(=C1)CC(C)(C)CC(=O)1
cas=78-59-1
InChI=InChI=1S/C9H14O/c1-7-4-8(10)6-9(2,3)5-7/h4H,5-6H2,1-3H3
computed SMILES=O=C1C=C(C)CC(C)(C)C1
accession=JP000946
date=2016.01.19 (Created 2008.10.21, modified 2011.05.06)
author=KOGA M, UNIV. OF OCCUPATIONAL AND ENVIRONMENTAL HEALTH
license=CC BY-NC-SA
exact mass=138.10447
ionization energy=70 eV
ion type=[M]+*
computed spectral entropy=1.4143269211475296
computed normalized entropy=0.5898201381818456
SPLASH=splash10-001i-9000000000-8ed7b012531653c3a41e
submitter=submitter = University of Tokyo Team (Faculty of Engineering, University of Tokyo)
MoNA Rating=3.75

>  <NUM PEAKS>  (6912) 
11

>  <MASS SPECTRAL PEAKS>  (6912) 
51 2.9
53 6.9
54 14.8
55 0.53
67 5.3
77 2.9
79 2.7
82 99.99
83 5.3
95 4.8
138 12.2

$$$$

     RDKit          2D

 13 13  0  0  0  0  0  0  0  0999 V2000
    1.6236    1.3135    0.0000 C   0  0  0  0  0  0  0  0  0  0  0  0
    1.6244   -3.1882    0.0000 C   0  0  0  0  0  0  0  0  0  0  0  0
    0.3248   -2.4373    0.0000 C   0  0  0  0  0  0  0  0  0  0  0  0
    2.9234   -2.4382    0.0000 C   0  0  0  0  0  0  0  0  0  0  0  0
    1.6234   -0.1865    0.0000 C   0  0  0  0  0  0  0  0  0  0  0  0
    0.3244   -0.9365    0.0000 C   0  0  0  0  0  0  0  0  0  0  0  0
    2.9229   -0.9373    0.0000 C   0  0  0  0  0  0  0  0  0  0  0  0
   -0.9748   -0.1867    0.0000 N   0  0  0  0  0  0  0  0  0  0  0  0
    4.2220   -0.1873    0.0000 N   0  0  0  0  0  0  0  0  0  0  0  0
   -2.2737   -0.9369    0.0000 O   0  0  0  0  0  0  0  0  0  0  0  0
   -0.9750    1.3133    0.0000 O   0  0  0  0  0  0  0  0  0  0  0  0
    5.5210   -0.9373    0.0000 O   0  0  0  0  0  0  0  0  0  0  0  0
    4.2220    1.3127    0.0000 O   0  0  0  0  0  0  0  0  0  0  0  0
  3  2  2  0
  4  2  1  0
  5  1  1  0
  6  3  1  0
  6  5  2  0
  7  4  2  0
  7  5  1  0
  8  6  1  0
  9  7  1  0
 10  8  1  0
 11  8  2  0
 12  9  1  0
 13  9  2  0
M  CHG  4   8   1   9   1  10  -1  12  -1
M  END
>  <NAME>  (6913) 
2,6-DINITROTOLUENE

>  <SYNONYMS>  (6913) 


>  <SPECTRUM TYPE>  (6913) 
MS1

>  <INSTRUMENT TYPE>  (6913) 
EI-B

>  <INSTRUMENT>  (6913) 
JEOL JMS-01-SG

>  <ION MODE>  (6913) 
P

>  <INCHIKEY>  (6913) 
XTRDKALNCIHHNI-UHFFFAOYSA-N

>  <FORMULA>  (6913) 
C7H6N2O4

>  <EXACT MASS>  (6913) 
182.032756672

>  <MW>  (6913) 
182

>  <ID>  (6913) 
JP000945

>  <CONTRIBUTOR>  (6913) 
University of Tokyo Team, {Faculty of Engineering, University of Tokyo

>  <COMMENT>  (6913) 
SMILES=[O-1][N+1](=O)c(c1)c(C)c(cc1)[N+1]([O-1])=O
cas=606-20-2
InChI=InChI=1S/C7H6N2O4/c1-5-6(8(10)11)3-2-4-7(5)9(12)13/h2-4H,1H3
computed SMILES=O=N(=O)C1=CC=CC(=C1C)N(=O)=O
accession=JP000945
date=2016.01.19 (Created 2008.10.21, modified 2011.05.06)
author=KOGA M, UNIV. OF OCCUPATIONAL AND ENVIRONMENTAL HEALTH
license=CC BY-NC-SA
exact mass=182.03276
ionization energy=70 eV
ion type=[M]+*
computed spectral entropy=3.045574899613559
computed normalized entropy=0.8097348734266848
SPLASH=splash10-014i-9700000000-4d618a3a2f517ba87258
submitter=submitter = University of Tokyo Team (Faculty of Engineering, University of Tokyo)
MoNA Rating=3.75

>  <NUM PEAKS>  (6913) 
43

>  <MASS SPECTRAL PEAKS>  (6913) 
43 11.6
46 2.2
50 22.2
52 1.31
53 5.1
61 4.3
62 13.1
63 4.77
64 21
65 5.7
66 3.9
74 0.66
75 14.8
76 9.3
77 23.9
78 2.08
79 9.4
80 2.6
86 2.6
87 0.34
89 41.7
90 30.4
91 18.2
92 0.49
93 2.5
104 8.5
105 3.2
106 0.48
107 5.6
108 6.9
117 2.2
118 0.43
119 4.5
121 18.7
122 2
134 0.63
135 13.4
148 17
149 2.6
152 0.34
165 99.99
166 9.7
182 2.5

$$$$

     RDKit          2D

 13 13  0  0  0  0  0  0  0  0999 V2000
   -2.8889    2.8302    0.0000 C   0  0  0  0  0  0  0  0  0  0  0  0
   -0.2900    2.8300    0.0000 C   0  0  0  0  0  0  0  0  0  0  0  0
    1.0100    2.0800    0.0000 C   0  0  0  0  0  0  0  0  0  0  0  0
   -0.2900   -0.1700    0.0000 C   0  0  0  0  0  0  0  0  0  0  0  0
   -1.5900    2.0800    0.0000 C   0  0  0  0  0  0  0  0  0  0  0  0
    1.0100    0.5800    0.0000 C   0  0  0  0  0  0  0  0  0  0  0  0
   -1.5900    0.5800    0.0000 C   0  0  0  0  0  0  0  0  0  0  0  0
    2.3089   -0.1702    0.0000 N   0  0  0  0  0  0  0  0  0  0  0  0
   -2.8889   -0.1702    0.0000 N   0  0  0  0  0  0  0  0  0  0  0  0
    3.6081    0.5796    0.0000 O   0  0  0  0  0  0  0  0  0  0  0  0
    2.3087   -1.6702    0.0000 O   0  0  0  0  0  0  0  0  0  0  0  0
   -4.1881    0.5796    0.0000 O   0  0  0  0  0  0  0  0  0  0  0  0
   -2.8887   -1.6702    0.0000 O   0  0  0  0  0  0  0  0  0  0  0  0
  3  2  2  0
  5  1  1  0
  5  2  1  0
  6  3  1  0
  6  4  2  0
  7  4  1  0
  7  5  2  0
  8  6  1  0
  9  7  1  0
 10  8  1  0
 11  8  2  0
 12  9  1  0
 13  9  2  0
M  CHG  4   8   1   9   1  10  -1  12  -1
M  END
>  <NAME>  (6914) 
2,4-DINITROTOLUENE

>  <SYNONYMS>  (6914) 


>  <SPECTRUM TYPE>  (6914) 
MS1

>  <INSTRUMENT TYPE>  (6914) 
EI-B

>  <INSTRUMENT>  (6914) 
JEOL JMS-01-SG

>  <ION MODE>  (6914) 
P

>  <INCHIKEY>  (6914) 
RMBFBMJGBANMMK-UHFFFAOYSA-N

>  <FORMULA>  (6914) 
C7H6N2O4

>  <EXACT MASS>  (6914) 
182.032756672

>  <MW>  (6914) 
182

>  <ID>  (6914) 
JP000944

>  <CONTRIBUTOR>  (6914) 
University of Tokyo Team, {Faculty of Engineering, University of Tokyo

>  <COMMENT>  (6914) 
SMILES=[O-1][N+1](=O)c(c1)cc([N+1]([O-1])=O)c(C)c1
cas=121-14-2
InChI=InChI=1S/C7H6N2O4/c1-5-2-3-6(8(10)11)4-7(5)9(12)13/h2-4H,1H3
computed SMILES=O=N(=O)C1=CC=C(C(=C1)N(=O)=O)C
accession=JP000944
date=2016.01.19 (Created 2008.10.21, modified 2011.05.06)
author=KOGA M, UNIV. OF OCCUPATIONAL AND ENVIRONMENTAL HEALTH
license=CC BY-NC-SA
exact mass=182.03276
ionization energy=70 eV
ion type=[M]+*
computed spectral entropy=2.666926920618703
computed normalized entropy=0.7501169715297773
SPLASH=splash10-02ti-9500000000-e27e94d7a75e2a92b2b6
submitter=submitter = University of Tokyo Team (Faculty of Engineering, University of Tokyo)
MoNA Rating=3.75

>  <NUM PEAKS>  (6914) 
35

>  <MASS SPECTRAL PEAKS>  (6914) 
40 3
46 2.2
50 10.1
51 1.71
52 14.5
53 4.1
61 3.9
62 1.41
63 55
64 17.1
65 5.2
66 0.39
74 4.1
75 4.8
76 3
77 1.28
78 19.4
79 6.3
80 4.7
86 0.22
87 1.9
89 63.3
90 22.1
91 0.72
92 1.8
105 4.6
106 4.8
107 0.53
108 2.2
118 8.9
119 19.5
148 0.22
165 99.99
166 8.9
182 7.8

$$$$

     RDKit          2D

  5  4  0  0  0  0  0  0  0  0999 V2000
   -1.2990    2.2500    0.0000 C   0  0  0  0  0  0  0  0  0  0  0  0
   -2.5981    1.5000    0.0000 C   0  0  0  0  0  0  0  0  0  0  0  0
    0.0000    1.5000    0.0000 C   0  0  0  0  0  0  0  0  0  0  0  0
   -3.8971    2.2500    0.0000 Cl  0  0  0  0  0  0  0  0  0  0  0  0
    1.2990    2.2500    0.0000 Cl  0  0  0  0  0  0  0  0  0  0  0  0
  1  2  2  0
  3  1  1  0
  4  2  1  0
  5  3  1  0
M  END
>  <NAME>  (6915) 
1,3-DICHLOROPROPENE

>  <SYNONYMS>  (6915) 


>  <SPECTRUM TYPE>  (6915) 
MS1

>  <INSTRUMENT TYPE>  (6915) 
EI-B

>  <INSTRUMENT>  (6915) 
JEOL JMS-01-SG

>  <ION MODE>  (6915) 
P

>  <INCHIKEY>  (6915) 
UOORRWUZONOOLO-OWOJBTEDSA-N

>  <FORMULA>  (6915) 
C3H4Cl2

>  <EXACT MASS>  (6915) 
109.969005488

>  <MW>  (6915) 
110

>  <ID>  (6915) 
JP000943

>  <CONTRIBUTOR>  (6915) 
University of Tokyo Team, {Faculty of Engineering, University of Tokyo

>  <COMMENT>  (6915) 
SMILES=ClCC=CCl
cas=542-75-6
InChI=InChI=1S/C3H4Cl2/c4-2-1-3-5/h1-2H,3H2/b2-1+
computed SMILES=ClC=CCCl
accession=JP000943
date=2016.01.19 (Created 2008.10.21, modified 2011.05.06)
author=KOGA M, UNIV. OF OCCUPATIONAL AND ENVIRONMENTAL HEALTH
license=CC BY-NC-SA
exact mass=109.96901
ionization energy=70 eV
ion type=[M]+*
computed spectral entropy=1.9968337545891546
computed normalized entropy=0.7047947020221057
SPLASH=splash10-004i-9000000000-355c6cbb69f7195b26e7
submitter=submitter = University of Tokyo Team (Faculty of Engineering, University of Tokyo)
MoNA Rating=3.75

>  <NUM PEAKS>  (6915) 
17

>  <MASS SPECTRAL PEAKS>  (6915) 
35 3.2
36 4.7
37 12
38 1.39
39 50.5
40 2.2
47 3.6
48 0.34
49 21
51 6.5
73 6.3
75 99.99
76 2.7
77 28.6
83 2.8
110 1.98
112 12.4

$$$$

     RDKit          2D

  5  4  0  0  0  0  0  0  0  0999 V2000
    0.0000    0.0000    0.0000 C   0  0  0  0  0  0  0  0  0  0  0  0
   -1.2990    2.2500    0.0000 C   0  0  0  0  0  0  0  0  0  0  0  0
    0.0000    1.5000    0.0000 C   0  0  0  0  0  0  0  0  0  0  0  0
   -1.2990    3.7500    0.0000 Cl  0  0  0  0  0  0  0  0  0  0  0  0
    1.2990    2.2500    0.0000 Cl  0  0  0  0  0  0  0  0  0  0  0  0
  3  1  1  0
  3  2  1  0
  4  2  1  0
  5  3  1  0
M  END
>  <NAME>  (6916) 
1,2-DICHLOROPROPANE

>  <SYNONYMS>  (6916) 


>  <SPECTRUM TYPE>  (6916) 
MS1

>  <INSTRUMENT TYPE>  (6916) 
EI-B

>  <INSTRUMENT>  (6916) 
JEOL JMS-01-SG

>  <ION MODE>  (6916) 
P

>  <INCHIKEY>  (6916) 
KNKRKFALVUDBJE-UHFFFAOYSA-N

>  <FORMULA>  (6916) 
C3H6Cl2

>  <EXACT MASS>  (6916) 
111.98465555199999

>  <MW>  (6916) 
112

>  <ID>  (6916) 
JP000942

>  <CONTRIBUTOR>  (6916) 
University of Tokyo Team, {Faculty of Engineering, University of Tokyo

>  <COMMENT>  (6916) 
SMILES=CC(Cl)CCl
cas=78-87-5
InChI=InChI=1S/C3H6Cl2/c1-3(5)2-4/h3H,2H2,1H3
computed SMILES=ClCC(Cl)C
accession=JP000942
date=2016.01.19 (Created 2008.10.21, modified 2011.05.06)
author=KOGA M, UNIV. OF OCCUPATIONAL AND ENVIRONMENTAL HEALTH
license=CC BY-NC-SA
exact mass=111.98466
ionization energy=70 eV
ion type=[M]+*
computed spectral entropy=2.538609236490481
computed normalized entropy=0.7702472360436139
SPLASH=splash10-03di-9000000000-bad4a570768fedc57170
submitter=submitter = University of Tokyo Team (Faculty of Engineering, University of Tokyo)
MoNA Rating=3.75

>  <NUM PEAKS>  (6916) 
27

>  <MASS SPECTRAL PEAKS>  (6916) 
35 4
36 5.8
37 12
38 1.64
39 54.7
40 8.2
41 71.2
42 0.51
47 2.7
48 2
49 18.1
51 0.58
60 2.2
61 16.2
62 78.1
63 99.99
64 26.1
65 30.6
75 4.2
76 6.38
77 12.8
78 21.2
79 3.6
97 0.51
99 3.4
112 5.9
114 2.8

$$$$

     RDKit          2D

  4  3  0  0  0  0  0  0  0  0999 V2000
    0.9743    0.5625    0.0000 C   0  0  0  0  0  0  0  0  0  0  0  0
   -0.3248    1.3125    0.0000 C   0  0  0  0  0  0  0  0  0  0  0  0
   -1.6238    0.5625    0.0000 Cl  0  0  0  0  0  0  0  0  0  0  0  0
   -0.3248    2.8125    0.0000 Cl  0  0  0  0  0  0  0  0  0  0  0  0
  2  1  2  0
  3  2  1  0
  4  2  1  0
M  END
>  <NAME>  (6917) 
1,1-DICHLOROETHYLENE

>  <SYNONYMS>  (6917) 


>  <SPECTRUM TYPE>  (6917) 
MS1

>  <INSTRUMENT TYPE>  (6917) 
EI-B

>  <INSTRUMENT>  (6917) 
JEOL JMS-01-SG

>  <ION MODE>  (6917) 
P

>  <INCHIKEY>  (6917) 
LGXVIGDEPROXKC-UHFFFAOYSA-N

>  <FORMULA>  (6917) 
C2H2Cl2

>  <EXACT MASS>  (6917) 
95.953355424

>  <MW>  (6917) 
96

>  <ID>  (6917) 
JP000941

>  <CONTRIBUTOR>  (6917) 
University of Tokyo Team, {Faculty of Engineering, University of Tokyo

>  <COMMENT>  (6917) 
SMILES=C=C(Cl)Cl
cas=75-35-4
InChI=InChI=1S/C2H2Cl2/c1-2(3)4/h1H2
computed SMILES=ClC(Cl)=C
accession=JP000941
date=2016.01.19 (Created 2008.10.21, modified 2011.05.06)
author=KOGA M, UNIV. OF OCCUPATIONAL AND ENVIRONMENTAL HEALTH
license=CC BY-NC-SA
exact mass=95.95336
ionization energy=70 eV
ion type=[M]+*
computed spectral entropy=1.7739215108572117
computed normalized entropy=0.6916009884159332
SPLASH=splash10-03di-9000000000-0d5a050d03ed2131a00d
submitter=submitter = University of Tokyo Team (Faculty of Engineering, University of Tokyo)
MoNA Rating=3.75

>  <NUM PEAKS>  (6917) 
13

>  <MASS SPECTRAL PEAKS>  (6917) 
35 9.2
36 2.3
37 3.5
47 0.6
49 2.8
59 3.9
60 18.9
61 99.99
62 8.4
63 31.9
96 44.3
98 2.89
100 4.1

$$$$

     RDKit          2D

 19 20  0  0  0  0  0  0  0  0999 V2000
   -0.6600    1.1538    0.0000 C   0  0  0  0  0  0  0  0  0  0  0  0
    0.6350    3.3968    0.0000 C   0  0  0  0  0  0  0  0  0  0  0  0
   -4.5570    3.3577    0.0000 C   0  0  0  0  0  0  0  0  0  0  0  0
   -3.2620    1.1147    0.0000 C   0  0  0  0  0  0  0  0  0  0  0  0
    0.6391    0.4038    0.0000 C   0  0  0  0  0  0  0  0  0  0  0  0
    1.9341    2.6468    0.0000 C   0  0  0  0  0  0  0  0  0  0  0  0
   -5.8561    2.6077    0.0000 C   0  0  0  0  0  0  0  0  0  0  0  0
   -4.5611    0.3647    0.0000 C   0  0  0  0  0  0  0  0  0  0  0  0
   -0.6695    2.6373    0.0000 C   0  0  0  0  0  0  0  0  0  0  0  0
   -3.2675    2.6242    0.0000 C   0  0  0  0  0  0  0  0  0  0  0  0
    1.9373    1.1323    0.0000 C   0  0  0  0  0  0  0  0  0  0  0  0
   -5.8743    1.1192    0.0000 C   0  0  0  0  0  0  0  0  0  0  0  0
   -1.9723    3.3807    0.0000 C   0  0  0  0  0  0  0  0  0  0  0  0
   -1.9798    4.8807    0.0000 C   0  0  0  0  0  0  0  0  0  0  0  0
    3.2325    0.3757    0.0000 Cl  0  0  0  0  0  0  0  0  0  0  0  0
   -7.1771    0.3758    0.0000 Cl  0  0  0  0  0  0  0  0  0  0  0  0
   -0.4798    4.8883    0.0000 Cl  0  0  0  0  0  0  0  0  0  0  0  0
   -1.9873    6.3807    0.0000 Cl  0  0  0  0  0  0  0  0  0  0  0  0
   -3.4798    4.8732    0.0000 Cl  0  0  0  0  0  0  0  0  0  0  0  0
  5  1  2  0
  6  2  1  0
  7  3  2  0
  8  4  1  0
  9  1  1  0
  9  2  2  0
 10  3  1  0
 10  4  2  0
 11  5  1  0
 11  6  2  0
 12  7  1  0
 12  8  2  0
 13  9  1  0
 13 10  1  0
 14 13  1  0
 15 11  1  0
 16 12  1  0
 17 14  1  0
 18 14  1  0
 19 14  1  0
M  END
>  <NAME>  (6918) 
1,1,1-TRICHLORO-2,2-BIS(PARA-CHLOROPHNYL)ETHANE

>  <SYNONYMS>  (6918) 
4,4'-DDT

>  <SPECTRUM TYPE>  (6918) 
MS1

>  <INSTRUMENT TYPE>  (6918) 
EI-B

>  <INSTRUMENT>  (6918) 
JEOL JMS-01-SG

>  <ION MODE>  (6918) 
P

>  <INCHIKEY>  (6918) 
YVGGHNCTFXOJCH-UHFFFAOYSA-N

>  <FORMULA>  (6918) 
C14H9Cl5

>  <EXACT MASS>  (6918) 
351.914688688

>  <MW>  (6918) 
352

>  <ID>  (6918) 
JP000940

>  <CONTRIBUTOR>  (6918) 
University of Tokyo Team, {Faculty of Engineering, University of Tokyo

>  <COMMENT>  (6918) 
SMILES=Clc(c2)ccc(c2)C(c(c1)ccc(Cl)c1)C(Cl)(Cl)Cl
cas=50-29-3
InChI=InChI=1S/C14H9Cl5/c15-11-5-1-9(2-6-11)13(14(17,18)19)10-3-7-12(16)8-4-10/h1-8,13H
computed SMILES=ClC1=CC=C(C=C1)C(C2=CC=C(Cl)C=C2)C(Cl)(Cl)Cl
accession=JP000940
date=2016.01.19 (Created 2008.10.21, modified 2011.05.06)
author=KOGA M, UNIV. OF OCCUPATIONAL AND ENVIRONMENTAL HEALTH
license=CC BY-NC-SA
exact mass=351.91469
ionization energy=70 eV
ion type=[M]+*
computed spectral entropy=3.2213135224612266
computed normalized entropy=0.7836079697154674
SPLASH=splash10-000i-3390000000-676266969a9e4afcfeb3
submitter=submitter = University of Tokyo Team (Faculty of Engineering, University of Tokyo)
MoNA Rating=3.75

>  <NUM PEAKS>  (6918) 
61

>  <MASS SPECTRAL PEAKS>  (6918) 
50 8.8
51 6.9
62 3.4
63 0.58
73 3.8
74 8.4
75 17.6
76 0.29
82 8.3
85 2.7
86 3.2
87 0.67
88 9.9
89 2.2
93 2.1
98 0.26
99 6.6
100 3.7
101 4.2
105 0.63
106 4.6
110 2.4
111 3.4
113 0.23
123 6
124 3.3
135 3.2
136 0.85
137 2.6
138 3.5
139 2
150 0.24
151 2.2
163 7.7
164 7.4
165 5.38
166 8
171 2.2
173 2.1
174 0.28
175 2.9
176 13.3
177 3
199 1.19
200 7.3
201 5.4
202 2.3
210 0.2
212 11
213 2.4
214 3.9
235 99.99
236 12.5
237 56.6
238 8.9
239 0.98
246 5.3
247 2.3
248 4
282 0.33
284 3.2

$$$$

     RDKit          2D

 18 19  0  0  0  0  0  0  0  0999 V2000
   -0.6581    1.1505    0.0000 C   0  0  0  0  0  0  0  0  0  0  0  0
    0.6369    3.3935    0.0000 C   0  0  0  0  0  0  0  0  0  0  0  0
   -4.5552    3.3545    0.0000 C   0  0  0  0  0  0  0  0  0  0  0  0
   -3.2602    1.1115    0.0000 C   0  0  0  0  0  0  0  0  0  0  0  0
    0.6410    0.4005    0.0000 C   0  0  0  0  0  0  0  0  0  0  0  0
    1.9360    2.6435    0.0000 C   0  0  0  0  0  0  0  0  0  0  0  0
   -5.8542    2.6045    0.0000 C   0  0  0  0  0  0  0  0  0  0  0  0
   -4.5592    0.3615    0.0000 C   0  0  0  0  0  0  0  0  0  0  0  0
   -0.6676    2.6340    0.0000 C   0  0  0  0  0  0  0  0  0  0  0  0
   -3.2656    2.6210    0.0000 C   0  0  0  0  0  0  0  0  0  0  0  0
    1.9391    1.1290    0.0000 C   0  0  0  0  0  0  0  0  0  0  0  0
   -5.8724    1.1160    0.0000 C   0  0  0  0  0  0  0  0  0  0  0  0
   -1.9704    3.3775    0.0000 C   0  0  0  0  0  0  0  0  0  0  0  0
   -1.9779    4.8775    0.0000 C   0  0  0  0  0  0  0  0  0  0  0  0
    3.2344    0.3725    0.0000 Cl  0  0  0  0  0  0  0  0  0  0  0  0
   -7.1752    0.3725    0.0000 Cl  0  0  0  0  0  0  0  0  0  0  0  0
   -3.2807    5.6209    0.0000 Cl  0  0  0  0  0  0  0  0  0  0  0  0
   -0.6827    5.6340    0.0000 Cl  0  0  0  0  0  0  0  0  0  0  0  0
  5  1  2  0
  6  2  1  0
  7  3  2  0
  8  4  1  0
  9  1  1  0
  9  2  2  0
 10  3  1  0
 10  4  2  0
 11  5  1  0
 11  6  2  0
 12  7  1  0
 12  8  2  0
 13  9  1  0
 13 10  1  0
 14 13  2  0
 15 11  1  0
 16 12  1  0
 17 14  1  0
 18 14  1  0
M  END
>  <NAME>  (6919) 
1,1-DICHLORO-2,2-BIS(PARA-CHLOROPHENYL)ETYLENE

>  <SYNONYMS>  (6919) 
4,4'-DDE

>  <SPECTRUM TYPE>  (6919) 
MS1

>  <INSTRUMENT TYPE>  (6919) 
EI-B

>  <INSTRUMENT>  (6919) 
JEOL JMS-01-SG

>  <ION MODE>  (6919) 
P

>  <INCHIKEY>  (6919) 
UCNVFOCBFJOQAL-UHFFFAOYSA-N

>  <FORMULA>  (6919) 
C14H8Cl4

>  <EXACT MASS>  (6919) 
315.938010976

>  <MW>  (6919) 
316

>  <ID>  (6919) 
JP000939

>  <CONTRIBUTOR>  (6919) 
University of Tokyo Team, {Faculty of Engineering, University of Tokyo

>  <COMMENT>  (6919) 
SMILES=Clc(c2)ccc(c2)C(=C(Cl)Cl)c(c1)ccc(Cl)c1
cas=72-55-9
InChI=InChI=1S/C14H8Cl4/c15-11-5-1-9(2-6-11)13(14(17)18)10-3-7-12(16)8-4-10/h1-8H
computed SMILES=ClC(Cl)=C(C1=CC=C(Cl)C=C1)C2=CC=C(Cl)C=C2
accession=JP000939
date=2016.01.19 (Created 2008.10.21, modified 2011.05.06)
author=KOGA M, UNIV. OF OCCUPATIONAL AND ENVIRONMENTAL HEALTH
license=CC BY-NC-SA
exact mass=315.93801
ionization energy=70 eV
ion type=[M]+*
computed spectral entropy=3.337959387064701
computed normalized entropy=0.8152609865480176
SPLASH=splash10-0002-4895000000-b3aea297f02896886625
submitter=submitter = University of Tokyo Team (Faculty of Engineering, University of Tokyo)
MoNA Rating=3.75

>  <NUM PEAKS>  (6919) 
60

>  <MASS SPECTRAL PEAKS>  (6919) 
50 13.2
61 3.3
62 3.3
63 0.24
74 14.9
75 23.8
76 2.6
86 0.38
87 22.3
88 14.4
92 4.6
93 0.37
98 7.2
99 12.7
105 40.4
106 1.1
110 8.2
111 6
122 15.5
123 2.15
124 8.8
125 4.9
126 2.7
134 0.24
135 2.8
137 2.8
140 11.8
141 0.89
142 3.1
149 2.3
150 8
160 0.42
163 3.8
170 4
172 5.4
174 1.48
175 12.4
176 57
177 6.2
210 2.09
211 4.6
212 6
233 2.8
246 99.99
247 14
248 72.6
249 9.8
250 1.02
280 3.4
282 5.8
283 5.5
284 0.23
285 2.4
316 57.1
317 8.3
318 7.68
319 9.5
320 35
321 4.8
322 8.1

$$$$

     RDKit          2D

 18 19  0  0  0  0  0  0  0  0999 V2000
   -0.6581    1.1505    0.0000 C   0  0  0  0  0  0  0  0  0  0  0  0
    0.6369    3.3935    0.0000 C   0  0  0  0  0  0  0  0  0  0  0  0
   -4.5552    3.3545    0.0000 C   0  0  0  0  0  0  0  0  0  0  0  0
   -3.2602    1.1115    0.0000 C   0  0  0  0  0  0  0  0  0  0  0  0
    0.6410    0.4005    0.0000 C   0  0  0  0  0  0  0  0  0  0  0  0
    1.9360    2.6435    0.0000 C   0  0  0  0  0  0  0  0  0  0  0  0
   -5.8542    2.6045    0.0000 C   0  0  0  0  0  0  0  0  0  0  0  0
   -4.5592    0.3615    0.0000 C   0  0  0  0  0  0  0  0  0  0  0  0
   -0.6676    2.6340    0.0000 C   0  0  0  0  0  0  0  0  0  0  0  0
   -3.2656    2.6210    0.0000 C   0  0  0  0  0  0  0  0  0  0  0  0
    1.9391    1.1290    0.0000 C   0  0  0  0  0  0  0  0  0  0  0  0
   -5.8724    1.1160    0.0000 C   0  0  0  0  0  0  0  0  0  0  0  0
   -1.9704    3.3775    0.0000 C   0  0  0  0  0  0  0  0  0  0  0  0
   -1.9779    4.8775    0.0000 C   0  0  0  0  0  0  0  0  0  0  0  0
    3.2344    0.3725    0.0000 Cl  0  0  0  0  0  0  0  0  0  0  0  0
   -7.1752    0.3725    0.0000 Cl  0  0  0  0  0  0  0  0  0  0  0  0
   -3.2807    5.6209    0.0000 Cl  0  0  0  0  0  0  0  0  0  0  0  0
   -0.6827    5.6340    0.0000 Cl  0  0  0  0  0  0  0  0  0  0  0  0
  5  1  2  0
  6  2  1  0
  7  3  2  0
  8  4  1  0
  9  1  1  0
  9  2  2  0
 10  3  1  0
 10  4  2  0
 11  5  1  0
 11  6  2  0
 12  7  1  0
 12  8  2  0
 13  9  1  0
 13 10  1  0
 14 13  1  0
 15 11  1  0
 16 12  1  0
 17 14  1  0
 18 14  1  0
M  END
>  <NAME>  (6920) 
1,1-DICHLORO-2,2-BIS(PARA-CHLOROPHENYL)ETHANE

>  <SYNONYMS>  (6920) 
4,4'-DDD

>  <SPECTRUM TYPE>  (6920) 
MS1

>  <INSTRUMENT TYPE>  (6920) 
EI-B

>  <INSTRUMENT>  (6920) 
JEOL JMS-01-SG

>  <ION MODE>  (6920) 
P

>  <INCHIKEY>  (6920) 
AHJKRLASYNVKDZ-UHFFFAOYSA-N

>  <FORMULA>  (6920) 
C14H10Cl4

>  <EXACT MASS>  (6920) 
317.95366104

>  <MW>  (6920) 
318

>  <ID>  (6920) 
JP000938

>  <CONTRIBUTOR>  (6920) 
University of Tokyo Team, {Faculty of Engineering, University of Tokyo

>  <COMMENT>  (6920) 
SMILES=Clc(c2)ccc(c2)C(C(Cl)Cl)c(c1)ccc(Cl)c1
cas=72-54-8
InChI=InChI=1S/C14H10Cl4/c15-11-5-1-9(2-6-11)13(14(17)18)10-3-7-12(16)8-4-10/h1-8,13-14H
computed SMILES=ClC1=CC=C(C=C1)C(C2=CC=C(Cl)C=C2)C(Cl)Cl
accession=JP000938
date=2016.01.19 (Created 2008.10.21, modified 2011.05.06)
author=KOGA M, UNIV. OF OCCUPATIONAL AND ENVIRONMENTAL HEALTH
license=CC BY-NC-SA
exact mass=317.95366
ionization energy=70 eV
ion type=[M]+*
computed spectral entropy=3.0198742467524724
computed normalized entropy=0.7606176856780955
SPLASH=splash10-000i-3690000000-3105d9bda69f6226e551
submitter=submitter = University of Tokyo Team (Faculty of Engineering, University of Tokyo)
MoNA Rating=3.75

>  <NUM PEAKS>  (6920) 
53

>  <MASS SPECTRAL PEAKS>  (6920) 
50 9.2
51 9.2
62 3.6
63 0.69
67 3.4
73 2.6
74 6.8
75 2.12
76 4.6
77 2.8
82 10.2
83 0.58
85 3.9
86 2.7
87 5.3
88 1.23
89 3.1
93 2.3
98 2
99 0.55
100 4.8
101 9.6
102 5.6
106 0.41
111 2.8
136 6
137 5.5
138 0.3
139 3.3
150 2.2
151 2.9
163 0.76
164 7.8
165 58.4
166 8.3
174 0.23
175 2.4
176 9.2
177 4.3
178 0.75
199 13.5
200 8
201 5.5
202 0.22
212 5.8
214 2.1
235 99.99
236 1.22
237 57
238 9.1
239 10
318 0.26
320 3.5

$$$$

     RDKit          2D

  4  3  0  0  0  0  0  0  0  0999 V2000
   -0.3248    1.3125    0.0000 C   0  0  0  0  0  0  0  0  0  0  0  0
    0.9743    0.5625    0.0000 Cl  0  0  0  0  0  0  0  0  0  0  0  0
   -1.6238    0.5625    0.0000 Cl  0  0  0  0  0  0  0  0  0  0  0  0
   -0.3248    2.8125    0.0000 Cl  0  0  0  0  0  0  0  0  0  0  0  0
  2  1  1  0
  3  1  1  0
  4  1  1  0
M  END
>  <NAME>  (6921) 
CHLOROFORM

>  <SYNONYMS>  (6921) 


>  <SPECTRUM TYPE>  (6921) 
MS1

>  <INSTRUMENT TYPE>  (6921) 
EI-B

>  <INSTRUMENT>  (6921) 
JEOL JMS-01-SG

>  <ION MODE>  (6921) 
P

>  <INCHIKEY>  (6921) 
HEDRZPFGACZZDS-UHFFFAOYSA-N

>  <FORMULA>  (6921) 
CHCl3

>  <EXACT MASS>  (6921) 
117.91438307199999

>  <MW>  (6921) 
118

>  <ID>  (6921) 
JP000937

>  <CONTRIBUTOR>  (6921) 
University of Tokyo Team, {Faculty of Engineering, University of Tokyo

>  <COMMENT>  (6921) 
SMILES=ClC(Cl)Cl
cas=67-66-3
InChI=InChI=1S/CHCl3/c2-1(3)4/h1H
computed SMILES=ClC(Cl)Cl
ion type=[M]+*
accession=JP000937
date=2016.01.19 (Created 2008.10.21, modified 2011.05.06)
author=KOGA M, UNIV. OF OCCUPATIONAL AND ENVIRONMENTAL HEALTH
license=CC BY-NC-SA
exact mass=117.91438
ionization energy=70 eV
computed spectral entropy=1.6548533600525148
computed normalized entropy=0.6659619829958999
SPLASH=splash10-001r-9000000000-d2165f9bfa5b3898f4d5
submitter=submitter = University of Tokyo Team (Faculty of Engineering, University of Tokyo)
MoNA Rating=3.75

>  <NUM PEAKS>  (6921) 
12

>  <MASS SPECTRAL PEAKS>  (6921) 
35 14.4
36 2.5
37 4.8
47 2.97
48 11.9
49 10.5
50 3.9
82 0.44
83 99.99
84 3.8
85 64.7
87 9.5

$$$$

     RDKit          2D

  9  9  0  0  0  0  0  0  0  0999 V2000
    2.5989   -1.5002    0.0000 C   0  0  0  0  0  0  0  0  0  0  0  0
   -1.3000    0.7500    0.0000 C   0  0  0  0  0  0  0  0  0  0  0  0
    0.0000    1.5000    0.0000 C   0  0  0  0  0  0  0  0  0  0  0  0
   -0.0000   -1.5000    0.0000 C   0  0  0  0  0  0  0  0  0  0  0  0
    1.3000   -0.7500    0.0000 C   0  0  0  0  0  0  0  0  0  0  0  0
   -1.3000   -0.7500    0.0000 C   0  0  0  0  0  0  0  0  0  0  0  0
    1.3000    0.7500    0.0000 C   0  0  0  0  0  0  0  0  0  0  0  0
    2.5989    1.5002    0.0000 Cl  0  0  0  0  0  0  0  0  0  0  0  0
   -2.5989   -1.5002    0.0000 O   0  0  0  0  0  0  0  0  0  0  0  0
  3  2  2  0
  5  1  1  0
  5  4  1  0
  6  2  1  0
  6  4  2  0
  7  3  1  0
  7  5  2  0
  8  7  1  0
  9  6  1  0
M  END
>  <NAME>  (6922) 
4-CHLORO-META-CRESOL

>  <SYNONYMS>  (6922) 


>  <SPECTRUM TYPE>  (6922) 
MS1

>  <INSTRUMENT TYPE>  (6922) 
EI-B

>  <INSTRUMENT>  (6922) 
JEOL JMS-01-SG

>  <ION MODE>  (6922) 
P

>  <INCHIKEY>  (6922) 
CFKMVGJGLGKFKI-UHFFFAOYSA-N

>  <FORMULA>  (6922) 
C7H7ClO

>  <EXACT MASS>  (6922) 
142.018542524

>  <MW>  (6922) 
142

>  <ID>  (6922) 
JP000936

>  <CONTRIBUTOR>  (6922) 
University of Tokyo Team, {Faculty of Engineering, University of Tokyo

>  <COMMENT>  (6922) 
SMILES=Oc(c1)cc(C)c(Cl)c1
cas=59-50-7
InChI=InChI=1S/C7H7ClO/c1-5-4-6(9)2-3-7(5)8/h2-4,9H,1H3
computed SMILES=ClC1=CC=C(O)C=C1C
accession=JP000936
date=2016.01.19 (Created 2008.10.21, modified 2011.05.06)
author=KOGA M, UNIV. OF OCCUPATIONAL AND ENVIRONMENTAL HEALTH
license=CC BY-NC-SA
exact mass=142.01854
ionization energy=70 eV
ion type=[M]+*
computed spectral entropy=2.250941534155178
computed normalized entropy=0.7082767172350684
SPLASH=splash10-052f-3900000000-8cf263e1d6fb0ce457d9
submitter=submitter = University of Tokyo Team (Faculty of Engineering, University of Tokyo)
MoNA Rating=3.75

>  <NUM PEAKS>  (6922) 
24

>  <MASS SPECTRAL PEAKS>  (6922) 
50 8.5
51 17.4
52 3.6
53 0.77
61 2.9
62 4.9
63 7.3
71 0.22
73 3.9
74 3.1
75 4.1
77 4.37
78 12.1
79 11.8
89 2.6
105 0.63
107 99.99
108 8.3
113 3.4
141 0.78
142 76.4
143 9
144 24.8
145 2.2

$$$$

     RDKit          2D

 11 12  0  0  0  0  0  0  0  0999 V2000
   -2.6000   -0.7500    0.0000 C   0  0  0  0  0  0  0  0  0  0  0  0
   -2.6000    0.7500    0.0000 C   0  0  0  0  0  0  0  0  0  0  0  0
   -1.3000   -1.5000    0.0000 C   0  0  0  0  0  0  0  0  0  0  0  0
   -1.3000    1.5000    0.0000 C   0  0  0  0  0  0  0  0  0  0  0  0
    1.3000   -1.5000    0.0000 C   0  0  0  0  0  0  0  0  0  0  0  0
    2.6000   -0.7500    0.0000 C   0  0  0  0  0  0  0  0  0  0  0  0
    1.3000    1.5000    0.0000 C   0  0  0  0  0  0  0  0  0  0  0  0
    0.0000   -0.7500    0.0000 C   0  0  0  0  0  0  0  0  0  0  0  0
    0.0000    0.7500    0.0000 C   0  0  0  0  0  0  0  0  0  0  0  0
    2.6000    0.7500    0.0000 C   0  0  0  0  0  0  0  0  0  0  0  0
    3.8989    1.5002    0.0000 Cl  0  0  0  0  0  0  0  0  0  0  0  0
  2  1  2  0
  3  1  1  0
  4  2  1  0
  6  5  2  0
  8  3  2  0
  8  5  1  0
  9  4  2  0
  9  7  1  0
  9  8  1  0
 10  6  1  0
 10  7  2  0
 11 10  1  0
M  END
>  <NAME>  (6923) 
2-CHLORONAPHTHALENE

>  <SYNONYMS>  (6923) 


>  <SPECTRUM TYPE>  (6923) 
MS1

>  <INSTRUMENT TYPE>  (6923) 
EI-B

>  <INSTRUMENT>  (6923) 
JEOL JMS-01-SG

>  <ION MODE>  (6923) 
P

>  <INCHIKEY>  (6923) 
CGYGETOMCSJHJU-UHFFFAOYSA-N

>  <FORMULA>  (6923) 
C10H7Cl

>  <EXACT MASS>  (6923) 
162.023627904

>  <MW>  (6923) 
162

>  <ID>  (6923) 
JP000935

>  <CONTRIBUTOR>  (6923) 
University of Tokyo Team, {Faculty of Engineering, University of Tokyo

>  <COMMENT>  (6923) 
SMILES=Clc(c1)cc(c2)c(ccc2)c1
cas=91-58-7
InChI=InChI=1S/C10H7Cl/c11-10-6-5-8-3-1-2-4-9(8)7-10/h1-7H
computed SMILES=ClC=1C=CC=2C=CC=CC2C1
accession=JP000935
date=2016.01.19 (Created 2008.10.21, modified 2011.05.06)
author=KOGA M, UNIV. OF OCCUPATIONAL AND ENVIRONMENTAL HEALTH
license=CC BY-NC-SA
exact mass=162.02363
ionization energy=70 eV
ion type=[M]+*
computed spectral entropy=2.159873639744808
computed normalized entropy=0.6796214774966025
SPLASH=splash10-03di-2900000000-ed06c8c14948b09f9d31
submitter=submitter = University of Tokyo Team (Faculty of Engineering, University of Tokyo)
MoNA Rating=3.75

>  <NUM PEAKS>  (6923) 
24

>  <MASS SPECTRAL PEAKS>  (6923) 
50 4.3
51 4.1
61 2.2
62 0.38
63 8.2
68 2.6
74 6.2
75 0.78
76 2.8
77 5.3
81 6.8
82 0.29
87 2.2
98 2.5
99 2.4
101 0.38
125 2.1
126 17.2
127 33.4
128 0.35
162 99.99
163 10.7
164 28.8
165 3.2

$$$$

     RDKit          2D

  6  5  0  0  0  0  0  0  0  0999 V2000
   -4.5466    3.3750    0.0000 C   0  0  0  0  0  0  0  0  0  0  0  0
   -3.2476    2.6250    0.0000 C   0  0  0  0  0  0  0  0  0  0  0  0
    0.6495    3.3750    0.0000 C   0  0  0  0  0  0  0  0  0  0  0  0
   -0.6495    2.6250    0.0000 C   0  0  0  0  0  0  0  0  0  0  0  0
    1.9486    2.6250    0.0000 Cl  0  0  0  0  0  0  0  0  0  0  0  0
   -1.9486    3.3750    0.0000 O   0  0  0  0  0  0  0  0  0  0  0  0
  2  1  2  0
  4  3  1  0
  5  3  1  0
  6  2  1  0
  6  4  1  0
M  END
>  <NAME>  (6924) 
2-CHLOROETHYL VINYL ETHER

>  <SYNONYMS>  (6924) 


>  <SPECTRUM TYPE>  (6924) 
MS1

>  <INSTRUMENT TYPE>  (6924) 
EI-B

>  <INSTRUMENT>  (6924) 
JEOL JMS-01-SG

>  <ION MODE>  (6924) 
P

>  <INCHIKEY>  (6924) 
DNJRKFKAFWSXSE-UHFFFAOYSA-N

>  <FORMULA>  (6924) 
C4H7ClO

>  <EXACT MASS>  (6924) 
106.018542524

>  <MW>  (6924) 
106

>  <ID>  (6924) 
JP000934

>  <CONTRIBUTOR>  (6924) 
University of Tokyo Team, {Faculty of Engineering, University of Tokyo

>  <COMMENT>  (6924) 
SMILES=C=COCCCl
cas=110-75-8
InChI=InChI=1S/C4H7ClO/c1-2-6-4-3-5/h2H,1,3-4H2
computed SMILES=ClCCOC=C
accession=JP000934
date=2016.01.19 (Created 2008.10.21, modified 2011.05.06)
author=KOGA M, UNIV. OF OCCUPATIONAL AND ENVIRONMENTAL HEALTH
license=CC BY-NC-SA
exact mass=106.01854
ionization energy=70 eV
ion type=[M]+*
computed spectral entropy=2.2617696732876023
computed normalized entropy=0.7317174407715636
SPLASH=splash10-01ox-9000000000-5f1c4b8ea30bbf7cf0ff
submitter=submitter = University of Tokyo Team (Faculty of Engineering, University of Tokyo)
MoNA Rating=3.75

>  <NUM PEAKS>  (6924) 
22

>  <MASS SPECTRAL PEAKS>  (6924) 
36 4.5
37 2.1
38 2.6
39 0.39
41 7.2
42 24.6
43 98.7
44 7.21
45 12.1
48 2.2
49 12.8
50 0.31
51 4.1
57 21.8
61 3.3
62 2.42
63 99.99
64 9.3
65 33.4
79 0.28
106 25.2
108 8.4

$$$$

     RDKit          2D

  5  4  0  0  0  0  0  0  0  0999 V2000
   -2.5981    1.5000    0.0000 C   0  0  0  0  0  0  0  0  0  0  0  0
    0.0000    1.5000    0.0000 C   0  0  0  0  0  0  0  0  0  0  0  0
   -3.8971    2.2500    0.0000 Cl  0  0  0  0  0  0  0  0  0  0  0  0
    1.2990    2.2500    0.0000 Cl  0  0  0  0  0  0  0  0  0  0  0  0
   -1.2990    2.2500    0.0000 O   0  0  0  0  0  0  0  0  0  0  0  0
  3  1  1  0
  4  2  1  0
  5  1  1  0
  5  2  1  0
M  END
>  <NAME>  (6925) 
BIS(CHLOROMETHYL) ETHER

>  <SYNONYMS>  (6925) 


>  <SPECTRUM TYPE>  (6925) 
MS1

>  <INSTRUMENT TYPE>  (6925) 
EI-B

>  <INSTRUMENT>  (6925) 
JEOL JMS-01-SG

>  <ION MODE>  (6925) 
P

>  <INCHIKEY>  (6925) 
HRQGCQVOJVTVLU-UHFFFAOYSA-N

>  <FORMULA>  (6925) 
C2H4Cl2O

>  <EXACT MASS>  (6925) 
113.963920108

>  <MW>  (6925) 
114

>  <ID>  (6925) 
JP000933

>  <CONTRIBUTOR>  (6925) 
University of Tokyo Team, {Faculty of Engineering, University of Tokyo

>  <COMMENT>  (6925) 
SMILES=ClCOCCl
cas=542-88-1
InChI=InChI=1S/C2H4Cl2O/c3-1-5-2-4/h1-2H2
computed SMILES=ClCOCCl
accession=JP000933
date=2016.01.19 (Created 2008.10.21, modified 2011.05.06)
author=KOGA M, UNIV. OF OCCUPATIONAL AND ENVIRONMENTAL HEALTH
license=CC BY-NC-SA
exact mass=113.96392
ionization energy=70 eV
ion type=[M]+*
computed spectral entropy=1.4314773020327745
computed normalized entropy=0.6216826932425885
SPLASH=splash10-004i-9000000000-d5d941f685485b075d8d
submitter=submitter = University of Tokyo Team (Faculty of Engineering, University of Tokyo)
MoNA Rating=3.75

>  <NUM PEAKS>  (6925) 
10

>  <MASS SPECTRAL PEAKS>  (6925) 
29 9.3
35 2.8
48 2.9
49 3.78
50 1.9
51 11.9
78 5.6
79 99.99
80 3.7
81 33.2

$$$$

     RDKit          2D

  7  6  0  0  0  0  0  0  0  0999 V2000
    0.6495    4.1250    0.0000 C   0  0  0  0  0  0  0  0  0  0  0  0
   -4.5466    4.1250    0.0000 C   0  0  0  0  0  0  0  0  0  0  0  0
   -0.6495    3.3750    0.0000 C   0  0  0  0  0  0  0  0  0  0  0  0
   -3.2476    3.3750    0.0000 C   0  0  0  0  0  0  0  0  0  0  0  0
    1.9486    3.3750    0.0000 Cl  0  0  0  0  0  0  0  0  0  0  0  0
   -5.8457    3.3750    0.0000 Cl  0  0  0  0  0  0  0  0  0  0  0  0
   -1.9486    4.1250    0.0000 O   0  0  0  0  0  0  0  0  0  0  0  0
  3  1  1  0
  4  2  1  0
  5  1  1  0
  6  2  1  0
  7  3  1  0
  7  4  1  0
M  END
>  <NAME>  (6926) 
BIS(2-CHLOROETHYL) ETHER

>  <SYNONYMS>  (6926) 


>  <SPECTRUM TYPE>  (6926) 
MS1

>  <INSTRUMENT TYPE>  (6926) 
EI-B

>  <INSTRUMENT>  (6926) 
JEOL JMS-01-SG

>  <ION MODE>  (6926) 
P

>  <INCHIKEY>  (6926) 
ZNSMNVMLTJELDZ-UHFFFAOYSA-N

>  <FORMULA>  (6926) 
C4H8Cl2O

>  <EXACT MASS>  (6926) 
141.995220236

>  <MW>  (6926) 
142

>  <ID>  (6926) 
JP000932

>  <CONTRIBUTOR>  (6926) 
University of Tokyo Team, {Faculty of Engineering, University of Tokyo

>  <COMMENT>  (6926) 
SMILES=ClCCOCCCl
cas=111-44-4
InChI=InChI=1S/C4H8Cl2O/c5-1-3-7-4-2-6/h1-4H2
computed SMILES=ClCCOCCCl
accession=JP000932
date=2016.01.19 (Created 2008.10.21, modified 2011.05.06)
author=KOGA M, UNIV. OF OCCUPATIONAL AND ENVIRONMENTAL HEALTH
license=CC BY-NC-SA
exact mass=141.99522
ionization energy=70 eV
ion type=[M]+*
computed spectral entropy=1.3987703209984976
computed normalized entropy=0.5833325320192642
SPLASH=splash10-0006-9000000000-76807c1eb7df7b045809
submitter=submitter = University of Tokyo Team (Faculty of Engineering, University of Tokyo)
MoNA Rating=3.75

>  <NUM PEAKS>  (6926) 
11

>  <MASS SPECTRAL PEAKS>  (6926) 
43 2.2
49 5.4
62 2.4
63 5.78
64 2
65 16.6
93 99.99
94 0.38
95 34.4
106 3
142 2.9

$$$$

     RDKit          2D

 12 12  0  0  0  0  0  0  0  0999 V2000
   -1.3000    0.7500    0.0000 C   0  0  0  0  0  0  0  0  0  0  0  0
    0.0000    1.5000    0.0000 C   0  0  0  0  0  0  0  0  0  0  0  0
   -1.3000   -0.7500    0.0000 C   0  0  0  0  0  0  0  0  0  0  0  0
    1.3000    0.7500    0.0000 C   0  0  0  0  0  0  0  0  0  0  0  0
   -0.0000   -1.5000    0.0000 C   0  0  0  0  0  0  0  0  0  0  0  0
    1.3000   -0.7500    0.0000 C   0  0  0  0  0  0  0  0  0  0  0  0
   -2.5989    1.5002    0.0000 Cl  0  0  0  0  0  0  0  0  0  0  0  0
    0.0000    3.0000    0.0000 Cl  0  0  0  0  0  0  0  0  0  0  0  0
   -2.5989   -1.5002    0.0000 Cl  0  0  0  0  0  0  0  0  0  0  0  0
    2.5989    1.5002    0.0000 Cl  0  0  0  0  0  0  0  0  0  0  0  0
   -0.0000   -3.0000    0.0000 Cl  0  0  0  0  0  0  0  0  0  0  0  0
    2.5989   -1.5002    0.0000 O   0  0  0  0  0  0  0  0  0  0  0  0
  2  1  2  0
  3  1  1  0
  4  2  1  0
  5  3  2  0
  6  4  2  0
  6  5  1  0
  7  1  1  0
  8  2  1  0
  9  3  1  0
 10  4  1  0
 11  5  1  0
 12  6  1  0
M  END
>  <NAME>  (6927) 
PENTACHLOROPHENOL

>  <SYNONYMS>  (6927) 


>  <SPECTRUM TYPE>  (6927) 
MS1

>  <INSTRUMENT TYPE>  (6927) 
EI-B

>  <INSTRUMENT>  (6927) 
JEOL JMS-01-SG

>  <ION MODE>  (6927) 
P

>  <INCHIKEY>  (6927) 
IZUPBVBPLAPZRR-UHFFFAOYSA-N

>  <FORMULA>  (6927) 
C6HCl5O

>  <EXACT MASS>  (6927) 
263.847003052

>  <MW>  (6927) 
264

>  <ID>  (6927) 
JP000931

>  <CONTRIBUTOR>  (6927) 
University of Tokyo Team, {Faculty of Engineering, University of Tokyo

>  <COMMENT>  (6927) 
SMILES=Oc(c(Cl)1)c(Cl)c(Cl)c(Cl)c(Cl)1
cas=87-86-5
InChI=InChI=1S/C6HCl5O/c7-1-2(8)4(10)6(12)5(11)3(1)9/h12H
computed SMILES=ClC=1C(Cl)=C(Cl)C(O)=C(Cl)C1Cl
accession=JP000931
date=2016.01.19 (Created 2008.10.21, modified 2011.05.06)
author=KOGA M, UNIV. OF OCCUPATIONAL AND ENVIRONMENTAL HEALTH
license=CC BY-NC-SA
exact mass=263.847
ionization energy=70 eV
ion type=[M]+*
computed spectral entropy=3.5300043209408276
computed normalized entropy=0.8126524966291945
SPLASH=splash10-014i-3590000000-e28db0931c3a64c5acdc
submitter=submitter = University of Tokyo Team (Faculty of Engineering, University of Tokyo)
MoNA Rating=3.75

>  <NUM PEAKS>  (6927) 
77

>  <MASS SPECTRAL PEAKS>  (6927) 
45 4
47 9.2
48 3.1
49 0.43
59 2.2
60 27.1
61 9.8
63 0.29
65 18.2
66 7.7
70 2.9
71 1.1
72 5.2
73 9.4
81 2.6
84 0.58
87 6.2
89 3.1
93 4.1
95 3.81
96 10.9
97 11.8
98 4.5
100 1.33
101 13
102 6.5
103 3.9
106 0.57
107 8.7
108 4.3
109 4.8
111 0.37
114 5.8
115 6.3
116 2.2
118 0.35
119 2.6
120 3.3
124 4.2
130 2.26
131 8.9
132 17.1
133 12.3
134 0.65
135 2.2
141 4.9
142 3.3
143 0.76
158 2.6
165 45.5
167 38.7
168 0.42
169 12.8
171 2.2
194 2.7
196 0.29
200 16.8
201 4.8
202 22.3
203 0.81
204 12.6
205 3.7
206 3.8
228 1.23
230 16.8
232 7.8
234 2.2
237 0.43
253 2.8
264 72
265 6.2
266 99.99
267 9.2
268 73.8
269 5.2
270 2.58
272 3.2

$$$$

     RDKit          2D

 14 15  0  0  0  0  0  0  0  0999 V2000
   -1.3000   -0.7500    0.0000 C   0  0  0  0  0  0  0  0  0  0  0  0
    0.0000    1.5000    0.0000 C   0  0  0  0  0  0  0  0  0  0  0  0
   -2.5989    3.0002    0.0000 C   0  0  0  0  0  0  0  0  0  0  0  0
   -3.8989    0.7502    0.0000 C   0  0  0  0  0  0  0  0  0  0  0  0
    0.0000   -1.5000    0.0000 C   0  0  0  0  0  0  0  0  0  0  0  0
    1.3000    0.7500    0.0000 C   0  0  0  0  0  0  0  0  0  0  0  0
   -3.8989    3.7502    0.0000 C   0  0  0  0  0  0  0  0  0  0  0  0
   -5.1989    1.5002    0.0000 C   0  0  0  0  0  0  0  0  0  0  0  0
   -1.3000    0.7500    0.0000 C   0  0  0  0  0  0  0  0  0  0  0  0
   -2.5989    1.5002    0.0000 C   0  0  0  0  0  0  0  0  0  0  0  0
    1.3000   -0.7500    0.0000 C   0  0  0  0  0  0  0  0  0  0  0  0
   -5.1989    3.0002    0.0000 C   0  0  0  0  0  0  0  0  0  0  0  0
    2.5989   -1.5002    0.0000 N   0  0  0  0  0  0  0  0  0  0  0  0
   -6.4978    3.7504    0.0000 N   0  0  0  0  0  0  0  0  0  0  0  0
  5  1  2  0
  6  2  1  0
  7  3  2  0
  8  4  1  0
  9  1  1  0
  9  2  2  0
 10  3  1  0
 10  4  2  0
 10  9  1  0
 11  5  1  0
 11  6  2  0
 12  7  1  0
 12  8  2  0
 13 11  1  0
 14 12  1  0
M  END
>  <NAME>  (6928) 
(1,1'-BIPHENYL)-4,4'-DIAMINE

>  <SYNONYMS>  (6928) 
BENZIDINE

>  <SPECTRUM TYPE>  (6928) 
MS1

>  <INSTRUMENT TYPE>  (6928) 
EI-B

>  <INSTRUMENT>  (6928) 
JEOL JMS-01-SG

>  <ION MODE>  (6928) 
P

>  <INCHIKEY>  (6928) 
HFACYLZERDEVSX-UHFFFAOYSA-N

>  <FORMULA>  (6928) 
C12H12N2

>  <EXACT MASS>  (6928) 
184.100048384

>  <MW>  (6928) 
184

>  <ID>  (6928) 
JP000930

>  <CONTRIBUTOR>  (6928) 
University of Tokyo Team, {Faculty of Engineering, University of Tokyo

>  <COMMENT>  (6928) 
SMILES=Nc(c2)ccc(c2)c(c1)ccc(N)c1
cas=92-87-5
InChI=InChI=1S/C12H12N2/c13-11-5-1-9(2-6-11)10-3-7-12(14)8-4-10/h1-8H,13-14H2
computed SMILES=NC=1C=CC(=CC1)C2=CC=C(N)C=C2
accession=JP000930
date=2016.01.19 (Created 2008.10.21, modified 2011.05.06)
author=KOGA M, UNIV. OF OCCUPATIONAL AND ENVIRONMENTAL HEALTH
license=CC BY-NC-SA
exact mass=184.10005
ionization energy=70 eV
ion type=[M]+*
computed spectral entropy=2.1429146927222398
computed normalized entropy=0.636390385911192
SPLASH=splash10-001i-1900000000-46465bd7171400dfc550
submitter=submitter = University of Tokyo Team (Faculty of Engineering, University of Tokyo)
MoNA Rating=3.75

>  <NUM PEAKS>  (6928) 
29

>  <MASS SPECTRAL PEAKS>  (6928) 
41 2.1
43 1.8
51 2.1
52 0.22
63 2.4
65 3
77 3.4
78 0.33
91 5.9
92 6.7
93 2.8
115 0.23
117 3.7
127 3.1
128 3.9
129 0.22
130 4.5
139 2.4
154 2.5
156 0.64
157 2.1
166 4.9
167 5.3
168 0.2
181 2.2
182 3.3
183 12.3
184 99.99
185 12.8

$$$$

     RDKit          2D

  5  4  0  0  0  0  0  0  0  0999 V2000
    0.0000    1.5000    0.0000 C   0  0  0  0  0  0  0  0  0  0  0  0
   -1.2990    0.7500    0.0000 Cl  0  0  0  0  0  0  0  0  0  0  0  0
    0.7500    0.2010    0.0000 Cl  0  0  0  0  0  0  0  0  0  0  0  0
    1.2990    2.2500    0.0000 Cl  0  0  0  0  0  0  0  0  0  0  0  0
   -0.7500    2.7990    0.0000 Cl  0  0  0  0  0  0  0  0  0  0  0  0
  2  1  1  0
  3  1  1  0
  4  1  1  0
  5  1  1  0
M  END
>  <NAME>  (6929) 
TETRACHLOROMETHANE

>  <SYNONYMS>  (6929) 
CARBON TETRACHLORIDE

>  <SPECTRUM TYPE>  (6929) 
MS1

>  <INSTRUMENT TYPE>  (6929) 
EI-B

>  <INSTRUMENT>  (6929) 
JEOL JMS-01-SG

>  <ION MODE>  (6929) 
P

>  <INCHIKEY>  (6929) 
VZGDMQKNWNREIO-UHFFFAOYSA-N

>  <FORMULA>  (6929) 
CCl4

>  <EXACT MASS>  (6929) 
151.87541072

>  <MW>  (6929) 
152

>  <ID>  (6929) 
JP000929

>  <CONTRIBUTOR>  (6929) 
University of Tokyo Team, {Faculty of Engineering, University of Tokyo

>  <COMMENT>  (6929) 
computed SMILES=ClC(Cl)(Cl)Cl
SMILES=ClC(Cl)(Cl)Cl
cas=56-23-5
InChI=InChI=1S/CCl4/c2-1(3,4)5
accession=JP000929
date=2016.01.19 (Created 2008.10.21, modified 2011.05.06)
author=KOGA M, UNIV. OF OCCUPATIONAL AND ENVIRONMENTAL HEALTH
license=CC BY-NC-SA
exact mass=151.87541
ionization energy=70 eV
ion type=[M]+*
computed spectral entropy=1.8461968728250833
computed normalized entropy=0.7699238969142096
SPLASH=splash10-014i-3900000000-15e3b1fb84a75b2a20ee
submitter=submitter = University of Tokyo Team (Faculty of Engineering, University of Tokyo)
MoNA Rating=3.75

>  <NUM PEAKS>  (6929) 
11

>  <MASS SPECTRAL PEAKS>  (6929) 
35 18.9
37 6.2
47 24.3
49 0.86
82 28.1
84 17.9
86 2.6
117 99.99
119 92.8
121 30.1
123 3.1

$$$$

     RDKit          2D

 14 13  0  0  0  0  0  0  0  0999 V2000
    4.5466    7.1250    0.0000 C   0  0  0  0  0  0  0  0  0  0  0  0
  -12.3409    7.8750    0.0000 C   0  0  0  0  0  0  0  0  0  0  0  0
    3.2476    7.8750    0.0000 C   0  0  0  0  0  0  0  0  0  0  0  0
  -11.0418    7.1250    0.0000 C   0  0  0  0  0  0  0  0  0  0  0  0
    1.9486    7.1250    0.0000 C   0  0  0  0  0  0  0  0  0  0  0  0
   -9.7428    7.8750    0.0000 C   0  0  0  0  0  0  0  0  0  0  0  0
    0.6495    7.8750    0.0000 C   0  0  0  0  0  0  0  0  0  0  0  0
   -8.4437    7.1250    0.0000 C   0  0  0  0  0  0  0  0  0  0  0  0
   -0.6495    7.1250    0.0000 C   0  0  0  0  0  0  0  0  0  0  0  0
   -7.1447    7.8750    0.0000 C   0  0  0  0  0  0  0  0  0  0  0  0
   -1.9486    7.8750    0.0000 C   0  0  0  0  0  0  0  0  0  0  0  0
   -5.8457    7.1250    0.0000 C   0  0  0  0  0  0  0  0  0  0  0  0
   -3.2476    7.1250    0.0000 C   0  0  0  0  0  0  0  0  0  0  0  0
   -4.5466    7.8750    0.0000 C   0  0  0  0  0  0  0  0  0  0  0  0
  3  1  2  0
  4  2  1  0
  5  3  1  0
  6  4  1  0
  7  5  1  0
  8  6  1  0
  9  7  1  0
 10  8  1  0
 11  9  1  0
 12 10  1  0
 13 11  1  0
 14 12  1  0
 14 13  1  0
M  END
>  <NAME>  (6930) 
1-TETRADECENE

>  <SYNONYMS>  (6930) 


>  <SPECTRUM TYPE>  (6930) 
MS1

>  <INSTRUMENT TYPE>  (6930) 
EI-B

>  <INSTRUMENT>  (6930) 
VARIAN MAT-44

>  <ION MODE>  (6930) 
P

>  <INCHIKEY>  (6930) 
HFDVRLIODXPAHB-UHFFFAOYSA-N

>  <FORMULA>  (6930) 
C14H28

>  <EXACT MASS>  (6930) 
196.219100896

>  <MW>  (6930) 
196

>  <ID>  (6930) 
JP000928

>  <CONTRIBUTOR>  (6930) 
University of Tokyo Team, {Faculty of Engineering, University of Tokyo

>  <COMMENT>  (6930) 
SMILES=CCCCCCCCCCCCC=C
InChI=InChI=1S/C14H28/c1-3-5-7-9-11-13-14-12-10-8-6-4-2/h3H,1,4-14H2,2H3
computed SMILES=C=CCCCCCCCCCCCC
accession=JP000928
date=2016.01.19 (Created 2008.10.21, modified 2011.05.06)
author=KOGA M, UNIV. OF OCCUPATIONAL AND ENVIRONMENTAL HEALTH
license=CC BY-NC-SA
exact mass=196.2191
ionization energy=70 eV
ion type=[M]+*
computed spectral entropy=2.9966273069728007
computed normalized entropy=0.8123408054526917
SPLASH=splash10-052f-9000000000-c164fdcba229cacaea87
submitter=submitter = University of Tokyo Team (Faculty of Engineering, University of Tokyo)
MoNA Rating=3.75

>  <NUM PEAKS>  (6930) 
40

>  <MASS SPECTRAL PEAKS>  (6930) 
30 7.19
32 6.69
33 2.18
39 15.47
40 4.65
41 94.87
42 24.51
43 99.99
44 6.96
53 5.87
54 12.4
55 74.63
56 58.17
57 67.46
58 3.06
66 1.32
67 10.94
68 10.13
69 51.72
70 46.29
71 22.05
72 1.23
79 1.07
81 4.52
82 11.97
83 40.66
84 20.28
85 8.4
95 1.32
96 4.81
97 24.75
98 8.63
99 1.43
110 2.13
111 9.94
112 4.15
125 3.77
126 2.26
139 1.15
196 1.84

$$$$

     RDKit          2D

 12 11  0  0  0  0  0  0  0  0999 V2000
  -11.0418    5.6250    0.0000 C   0  0  0  0  0  0  0  0  0  0  0  0
   -3.2476    5.6250    0.0000 C   0  0  0  0  0  0  0  0  0  0  0  0
   -1.9486    4.8750    0.0000 C   0  0  0  0  0  0  0  0  0  0  0  0
   -4.5466    4.8750    0.0000 C   0  0  0  0  0  0  0  0  0  0  0  0
   -0.6495    5.6250    0.0000 C   0  0  0  0  0  0  0  0  0  0  0  0
   -5.8457    5.6250    0.0000 C   0  0  0  0  0  0  0  0  0  0  0  0
    0.6495    4.8750    0.0000 C   0  0  0  0  0  0  0  0  0  0  0  0
   -7.1447    4.8750    0.0000 C   0  0  0  0  0  0  0  0  0  0  0  0
    1.9486    5.6250    0.0000 C   0  0  0  0  0  0  0  0  0  0  0  0
   -8.4437    5.6250    0.0000 C   0  0  0  0  0  0  0  0  0  0  0  0
    3.2476    6.3750    0.0000 N   0  0  0  0  0  0  0  0  0  0  0  0
   -9.7428    4.8750    0.0000 S   0  0  0  0  0  0  0  0  0  0  0  0
  3  2  1  0
  4  2  1  0
  5  3  1  0
  6  4  1  0
  7  5  1  0
  8  6  1  0
  9  7  1  0
 10  8  1  0
 11  9  3  0
 12  1  1  0
 12 10  1  0
M  END
>  <NAME>  (6931) 
9-METHYLTHIONONANENITRILE

>  <SYNONYMS>  (6931) 


>  <SPECTRUM TYPE>  (6931) 
MS1

>  <INSTRUMENT TYPE>  (6931) 
EI-B

>  <INSTRUMENT>  (6931) 
SHIMADZU LKB-9000B

>  <ION MODE>  (6931) 
P

>  <INCHIKEY>  (6931) 
KQKRRHTVZQEXBX-UHFFFAOYSA-N

>  <FORMULA>  (6931) 
C10H19NS

>  <EXACT MASS>  (6931) 
185.123820608

>  <MW>  (6931) 
185

>  <ID>  (6931) 
JP000927

>  <CONTRIBUTOR>  (6931) 
University of Tokyo Team, {Faculty of Engineering, University of Tokyo

>  <COMMENT>  (6931) 
SMILES=N#CCCCCCCCCSC
InChI=InChI=1S/C10H19NS/c1-12-10-8-6-4-2-3-5-7-9-11/h2-8,10H2,1H3
computed SMILES=N#CCCCCCCCCSC
accession=JP000927
date=2016.01.19 (Created 2008.10.21, modified 2011.05.06)
author=KAMEOKA H, DEPT. OF APPLIED CHEMISTRY, FAC. OF SCI. AND ENGINEERING, KINKI UNIV.
license=CC BY-NC-SA
exact mass=185.12382
ionization energy=70 eV
ion type=[M]+*
computed spectral entropy=2.6699420811812455
computed normalized entropy=0.8401185831672744
SPLASH=splash10-03ea-9200000000-67ed2376446a82b0f7bb
submitter=submitter = University of Tokyo Team (Faculty of Engineering, University of Tokyo)
MoNA Rating=3.75

>  <NUM PEAKS>  (6931) 
24

>  <MASS SPECTRAL PEAKS>  (6931) 
41 10.5
48 7
55 41.5
61 99.99
62 13
63 10.5
69 25
75 1.45
81 18.5
82 23.5
83 33
94 1.8
95 12.5
96 99
97 19.5
108 2
109 9
110 35
122 11.5
138 4.3
170 11.5
185 40
186 7.5
187 2

$$$$

     RDKit          2D

 11 10  0  0  0  0  0  0  0  0999 V2000
   -9.0933    6.7500    0.0000 C   0  0  0  0  0  0  0  0  0  0  0  0
   -1.2990    6.7500    0.0000 C   0  0  0  0  0  0  0  0  0  0  0  0
   -2.5981    6.0000    0.0000 C   0  0  0  0  0  0  0  0  0  0  0  0
    0.0000    6.0000    0.0000 C   0  0  0  0  0  0  0  0  0  0  0  0
   -3.8971    6.7500    0.0000 C   0  0  0  0  0  0  0  0  0  0  0  0
    1.2990    6.7500    0.0000 C   0  0  0  0  0  0  0  0  0  0  0  0
   -5.1962    6.0000    0.0000 C   0  0  0  0  0  0  0  0  0  0  0  0
    2.5981    6.0000    0.0000 C   0  0  0  0  0  0  0  0  0  0  0  0
   -6.4952    6.7500    0.0000 C   0  0  0  0  0  0  0  0  0  0  0  0
    3.8971    5.2500    0.0000 N   0  0  0  0  0  0  0  0  0  0  0  0
   -7.7942    6.0000    0.0000 S   0  0  0  0  0  0  0  0  0  0  0  0
  3  2  1  0
  4  2  1  0
  5  3  1  0
  6  4  1  0
  7  5  1  0
  8  6  1  0
  9  7  1  0
 10  8  3  0
 11  1  1  0
 11  9  1  0
M  END
>  <NAME>  (6932) 
8-METHYLTHIOOCTANENITRILE

>  <SYNONYMS>  (6932) 


>  <SPECTRUM TYPE>  (6932) 
MS1

>  <INSTRUMENT TYPE>  (6932) 
EI-B

>  <INSTRUMENT>  (6932) 
SHIMADZU LKB-9000B

>  <ION MODE>  (6932) 
P

>  <INCHIKEY>  (6932) 
BWZCPICNIWWLFX-UHFFFAOYSA-N

>  <FORMULA>  (6932) 
C9H17NS

>  <EXACT MASS>  (6932) 
171.108170544

>  <MW>  (6932) 
171

>  <ID>  (6932) 
JP000926

>  <CONTRIBUTOR>  (6932) 
University of Tokyo Team, {Faculty of Engineering, University of Tokyo

>  <COMMENT>  (6932) 
SMILES=N#CCCCCCCCSC
InChI=InChI=1S/C9H17NS/c1-11-9-7-5-3-2-4-6-8-10/h2-7,9H2,1H3
computed SMILES=N#CCCCCCCCSC
accession=JP000926
date=2016.01.19 (Created 2008.10.21, modified 2011.05.06)
author=KAMEOKA H, DEPT. OF APPLIED CHEMISTRY, FAC. OF SCI. AND ENGINEERING, KINKI UNIV.
license=CC BY-NC-SA
exact mass=171.10817
ionization energy=70 eV
ion type=[M]+*
computed spectral entropy=2.6155630106483585
computed normalized entropy=0.8591045276066929
SPLASH=splash10-08mj-9300000000-b7f4cd2ba8c288de6d19
submitter=submitter = University of Tokyo Team (Faculty of Engineering, University of Tokyo)
MoNA Rating=3.75

>  <NUM PEAKS>  (6932) 
21

>  <MASS SPECTRAL PEAKS>  (6932) 
41 11.5
48 10.5
55 55.5
61 99.99
69 21.5
75 16.5
82 17.5
83 3.6
84 26.5
94 27
95 18.5
96 9.9
97 33.5
110 14.5
124 32
125 0.3
126 2
156 20.5
171 54
172 0.95
173 3

$$$$

     RDKit          2D

 11 11  0  0  0  0  0  0  0  0999 V2000
   -5.5202    3.1329    0.0000 C   0  0  0  0  0  0  0  0  0  0  0  0
   -5.5207    1.6321    0.0000 C   0  0  0  0  0  0  0  0  0  0  0  0
   -4.2207    3.8837    0.0000 C   0  0  0  0  0  0  0  0  0  0  0  0
   -4.2216    0.8821    0.0000 C   0  0  0  0  0  0  0  0  0  0  0  0
   -2.9216    3.1337    0.0000 C   0  0  0  0  0  0  0  0  0  0  0  0
   -1.6231    0.8829    0.0000 C   0  0  0  0  0  0  0  0  0  0  0  0
   -0.3240    1.6329    0.0000 C   0  0  0  0  0  0  0  0  0  0  0  0
    2.2740    1.6329    0.0000 C   0  0  0  0  0  0  0  0  0  0  0  0
   -2.9221    1.6329    0.0000 C   0  0  0  0  0  0  0  0  0  0  0  0
    0.9750    0.8829    0.0000 N   0  0  0  0  0  0  0  0  0  0  0  0
    3.5731    2.3829    0.0000 S   0  0  0  0  0  0  0  0  0  0  0  0
  2  1  2  0
  3  1  1  0
  4  2  1  0
  5  3  2  0
  7  6  1  0
  9  4  2  0
  9  5  1  0
  9  6  1  0
 10  7  1  0
 10  8  2  0
 11  8  2  0
M  END
>  <NAME>  (6933) 
2-PHENYLETHYL ISOTHIOCYANATE

>  <SYNONYMS>  (6933) 


>  <SPECTRUM TYPE>  (6933) 
MS1

>  <INSTRUMENT TYPE>  (6933) 
EI-B

>  <INSTRUMENT>  (6933) 
SHIMADZU LKB-9000B

>  <ION MODE>  (6933) 
P

>  <INCHIKEY>  (6933) 
IZJDOKYDEWTZSO-UHFFFAOYSA-N

>  <FORMULA>  (6933) 
C9H9NS

>  <EXACT MASS>  (6933) 
163.045570288

>  <MW>  (6933) 
163

>  <ID>  (6933) 
JP000925

>  <CONTRIBUTOR>  (6933) 
University of Tokyo Team, {Faculty of Engineering, University of Tokyo

>  <COMMENT>  (6933) 
SMILES=S=C=NCCc(c1)cccc1
InChI=InChI=1S/C9H9NS/c11-8-10-7-6-9-4-2-1-3-5-9/h1-5H,6-7H2
computed SMILES=S=C=NCCC=1C=CC=CC1
accession=JP000925
date=2016.01.19 (Created 2008.10.21, modified 2011.05.06)
author=KAMEOKA H, DEPT. OF APPLIED CHEMISTRY, FAC. OF SCI. AND ENGINEERING, KINKI UNIV.
license=CC BY-NC-SA
exact mass=163.04557
ionization energy=70 eV
ion type=[M]+*
computed spectral entropy=2.736177365191009
computed normalized entropy=0.8500412920722233
SPLASH=splash10-0lxx-9600000000-1487c40cb717ac50d540
submitter=submitter = University of Tokyo Team (Faculty of Engineering, University of Tokyo)
MoNA Rating=3.75

>  <NUM PEAKS>  (6933) 
25

>  <MASS SPECTRAL PEAKS>  (6933) 
39 9.1
50 14.1
51 29.3
58 0.61
63 27.3
65 45.5
72 47.5
77 5.25
78 30.3
79 40.4
89 22.2
90 0.91
91 91.9
92 54.6
101 3
102 1.01
103 44.4
104 23.2
105 75.8
106 1.41
128 6.1
135 9.1
163 99.99
164 3.33
165 15.2

$$$$

     RDKit          2D

 10  9  0  0  0  0  0  0  0  0999 V2000
    2.5981    5.2500    0.0000 C   0  0  0  0  0  0  0  0  0  0  0  0
   -3.8971    6.0000    0.0000 C   0  0  0  0  0  0  0  0  0  0  0  0
   -5.1962    5.2500    0.0000 C   0  0  0  0  0  0  0  0  0  0  0  0
   -2.5981    5.2500    0.0000 C   0  0  0  0  0  0  0  0  0  0  0  0
   -6.4952    6.0000    0.0000 C   0  0  0  0  0  0  0  0  0  0  0  0
   -1.2990    6.0000    0.0000 C   0  0  0  0  0  0  0  0  0  0  0  0
   -7.7942    5.2500    0.0000 C   0  0  0  0  0  0  0  0  0  0  0  0
    0.0000    5.2500    0.0000 C   0  0  0  0  0  0  0  0  0  0  0  0
   -9.0933    4.5000    0.0000 N   0  0  0  0  0  0  0  0  0  0  0  0
    1.2990    6.0000    0.0000 S   0  0  0  0  0  0  0  0  0  0  0  0
  3  2  1  0
  4  2  1  0
  5  3  1  0
  6  4  1  0
  7  5  1  0
  8  6  1  0
  9  7  3  0
 10  1  1  0
 10  8  1  0
M  END
>  <NAME>  (6934) 
7-METHYLTHIOHEPTANENITRILE

>  <SYNONYMS>  (6934) 


>  <SPECTRUM TYPE>  (6934) 
MS1

>  <INSTRUMENT TYPE>  (6934) 
EI-B

>  <INSTRUMENT>  (6934) 
SHIMADZU LKB-9000B

>  <ION MODE>  (6934) 
P

>  <INCHIKEY>  (6934) 
MAMGGQVRQMBXMB-UHFFFAOYSA-N

>  <FORMULA>  (6934) 
C8H15NS

>  <EXACT MASS>  (6934) 
157.09252048

>  <MW>  (6934) 
157

>  <ID>  (6934) 
JP000924

>  <CONTRIBUTOR>  (6934) 
University of Tokyo Team, {Faculty of Engineering, University of Tokyo

>  <COMMENT>  (6934) 
SMILES=N#CCCCCCCSC
InChI=InChI=1S/C8H15NS/c1-10-8-6-4-2-3-5-7-9/h2-6,8H2,1H3
computed SMILES=N#CCCCCCCSC
accession=JP000924
date=2016.01.19 (Created 2008.10.21, modified 2011.05.06)
author=KAMEOKA H, DEPT. OF APPLIED CHEMISTRY, FAC. OF SCI. AND ENGINEERING, KINKI UNIV.
license=CC BY-NC-SA
exact mass=157.09252
ionization energy=70 eV
ion type=[M]+*
computed spectral entropy=1.943319637093152
computed normalized entropy=0.7176084240617832
SPLASH=splash10-03e9-9000000000-6a5898b538c7fbb464ae
submitter=submitter = University of Tokyo Team (Faculty of Engineering, University of Tokyo)
MoNA Rating=3.75

>  <NUM PEAKS>  (6934) 
15

>  <MASS SPECTRAL PEAKS>  (6934) 
41 11
55 16.5
61 99.99
62 0.8
63 5.5
69 32.5
81 11
82 4.35
83 99
96 18.5
110 14
142 0.25
157 13.5
158 1.5
159 1

$$$$

     RDKit          2D

  9  8  0  0  0  0  0  0  0  0999 V2000
    3.2476    4.1250    0.0000 C   0  0  0  0  0  0  0  0  0  0  0  0
   -3.2476    4.8750    0.0000 C   0  0  0  0  0  0  0  0  0  0  0  0
   -1.9486    4.1250    0.0000 C   0  0  0  0  0  0  0  0  0  0  0  0
   -4.5466    4.1250    0.0000 C   0  0  0  0  0  0  0  0  0  0  0  0
   -0.6495    4.8750    0.0000 C   0  0  0  0  0  0  0  0  0  0  0  0
   -5.8457    4.8750    0.0000 C   0  0  0  0  0  0  0  0  0  0  0  0
    0.6495    4.1250    0.0000 C   0  0  0  0  0  0  0  0  0  0  0  0
   -7.1447    5.6250    0.0000 N   0  0  0  0  0  0  0  0  0  0  0  0
    1.9486    4.8750    0.0000 S   0  0  0  0  0  0  0  0  0  0  0  0
  3  2  1  0
  4  2  1  0
  5  3  1  0
  6  4  1  0
  7  5  1  0
  8  6  3  0
  9  1  1  0
  9  7  1  0
M  END
>  <NAME>  (6935) 
6-METHYLTHIOHEXANENITRILE

>  <SYNONYMS>  (6935) 


>  <SPECTRUM TYPE>  (6935) 
MS1

>  <INSTRUMENT TYPE>  (6935) 
EI-B

>  <INSTRUMENT>  (6935) 
SHIMADZU LKB-9000B

>  <ION MODE>  (6935) 
P

>  <INCHIKEY>  (6935) 
ULSCBSNSXYDREI-UHFFFAOYSA-N

>  <FORMULA>  (6935) 
C7H13NS

>  <EXACT MASS>  (6935) 
143.076870416

>  <MW>  (6935) 
143

>  <ID>  (6935) 
JP000923

>  <CONTRIBUTOR>  (6935) 
University of Tokyo Team, {Faculty of Engineering, University of Tokyo

>  <COMMENT>  (6935) 
SMILES=N#CCCCCCSC
InChI=InChI=1S/C7H13NS/c1-9-7-5-3-2-4-6-8/h2-5,7H2,1H3
computed SMILES=N#CCCCCCSC
accession=JP000923
date=2016.01.19 (Created 2008.10.21, modified 2011.05.06)
author=KAMEOKA H, DEPT. OF APPLIED CHEMISTRY, FAC. OF SCI. AND ENGINEERING, KINKI UNIV.
license=CC BY-NC-SA
exact mass=143.07687
ionization energy=70 eV
ion type=[M]+*
computed spectral entropy=2.4648368281534325
computed normalized entropy=0.8227827466134916
SPLASH=splash10-01ox-9100000000-1b714c059fb8b0326888
submitter=submitter = University of Tokyo Team (Faculty of Engineering, University of Tokyo)
MoNA Rating=3.75

>  <NUM PEAKS>  (6935) 
20

>  <MASS SPECTRAL PEAKS>  (6935) 
32 22.5
39 21
41 52
45 2
48 21
55 37.5
61 99.99
62 1.15
63 6
69 26
73 6.5
75 1
82 13.5
85 6
96 27.5
97 1.9
128 7.5
143 54.5
144 8.5
145 5

$$$$

     RDKit          2D

 10 10  0  0  0  0  0  0  0  0999 V2000
   -3.5724    4.2575    0.0000 C   0  0  0  0  0  0  0  0  0  0  0  0
   -3.5728    2.7567    0.0000 C   0  0  0  0  0  0  0  0  0  0  0  0
   -2.2728    5.0083    0.0000 C   0  0  0  0  0  0  0  0  0  0  0  0
    1.6238    2.7575    0.0000 C   0  0  0  0  0  0  0  0  0  0  0  0
   -2.2738    2.0067    0.0000 C   0  0  0  0  0  0  0  0  0  0  0  0
   -0.9738    4.2583    0.0000 C   0  0  0  0  0  0  0  0  0  0  0  0
    0.3248    2.0075    0.0000 C   0  0  0  0  0  0  0  0  0  0  0  0
    2.9228    2.0075    0.0000 C   0  0  0  0  0  0  0  0  0  0  0  0
   -0.9743    2.7575    0.0000 C   0  0  0  0  0  0  0  0  0  0  0  0
    4.2219    1.2575    0.0000 N   0  0  0  0  0  0  0  0  0  0  0  0
  2  1  2  0
  3  1  1  0
  5  2  1  0
  6  3  2  0
  7  4  1  0
  8  4  1  0
  9  5  2  0
  9  6  1  0
  9  7  1  0
 10  8  3  0
M  END
>  <NAME>  (6936) 
3-PHENYLPROPIONONITRILE

>  <SYNONYMS>  (6936) 


>  <SPECTRUM TYPE>  (6936) 
MS1

>  <INSTRUMENT TYPE>  (6936) 
EI-B

>  <INSTRUMENT>  (6936) 
SHIMADZU LKB-9000B

>  <ION MODE>  (6936) 
P

>  <INCHIKEY>  (6936) 
ACRWYXSKEHUQDB-UHFFFAOYSA-N

>  <FORMULA>  (6936) 
C9H9N

>  <EXACT MASS>  (6936) 
131.073499288

>  <MW>  (6936) 
131

>  <ID>  (6936) 
JP000922

>  <CONTRIBUTOR>  (6936) 
University of Tokyo Team, {Faculty of Engineering, University of Tokyo

>  <COMMENT>  (6936) 
SMILES=N#CCCc(c1)cccc1
InChI=InChI=1S/C9H9N/c10-8-4-7-9-5-2-1-3-6-9/h1-3,5-6H,4,7H2
computed SMILES=N#CCCC=1C=CC=CC1
accession=JP000922
date=2016.01.19 (Created 2008.10.21, modified 2011.05.06)
author=KAMEOKA H, DEPT. OF APPLIED CHEMISTRY, FAC. OF SCI. AND ENGINEERING, KINKI UNIV.
license=CC BY-NC-SA
exact mass=131.0735
ionization energy=70 eV
ion type=[M]+*
computed spectral entropy=1.693946298896206
computed normalized entropy=0.7064304759729358
SPLASH=splash10-0006-9200000000-c15196ced049b8e3681a
submitter=submitter = University of Tokyo Team (Faculty of Engineering, University of Tokyo)
MoNA Rating=3.75

>  <NUM PEAKS>  (6936) 
11

>  <MASS SPECTRAL PEAKS>  (6936) 
39 13.4
50 9.6
51 13.5
63 0.58
65 17.3
77 7.7
91 99.99
92 1.15
103 3.9
131 30.8
132 5.8

$$$$

     RDKit          2D

  8  7  0  0  0  0  0  0  0  0999 V2000
    1.9486    4.1250    0.0000 C   0  0  0  0  0  0  0  0  0  0  0  0
   -3.2476    4.1250    0.0000 C   0  0  0  0  0  0  0  0  0  0  0  0
   -4.5466    4.8750    0.0000 C   0  0  0  0  0  0  0  0  0  0  0  0
   -1.9486    4.8750    0.0000 C   0  0  0  0  0  0  0  0  0  0  0  0
   -5.8457    4.1250    0.0000 C   0  0  0  0  0  0  0  0  0  0  0  0
   -0.6495    4.1250    0.0000 C   0  0  0  0  0  0  0  0  0  0  0  0
   -7.1447    3.3750    0.0000 N   0  0  0  0  0  0  0  0  0  0  0  0
    0.6495    4.8750    0.0000 S   0  0  0  0  0  0  0  0  0  0  0  0
  3  2  1  0
  4  2  1  0
  5  3  1  0
  6  4  1  0
  7  5  3  0
  8  1  1  0
  8  6  1  0
M  END
>  <NAME>  (6937) 
5-METHYLTHIOPENTANENITRILE

>  <SYNONYMS>  (6937) 


>  <SPECTRUM TYPE>  (6937) 
MS1

>  <INSTRUMENT TYPE>  (6937) 
EI-B

>  <INSTRUMENT>  (6937) 
SHIMADZU LKB-9000B

>  <ION MODE>  (6937) 
P

>  <INCHIKEY>  (6937) 
XPUDGEZWSNPCMM-UHFFFAOYSA-N

>  <FORMULA>  (6937) 
C6H11NS

>  <EXACT MASS>  (6937) 
129.061220352

>  <MW>  (6937) 
129

>  <ID>  (6937) 
JP000921

>  <CONTRIBUTOR>  (6937) 
University of Tokyo Team, {Faculty of Engineering, University of Tokyo

>  <COMMENT>  (6937) 
SMILES=N#CCCCCSC
InChI=InChI=1S/C6H11NS/c1-8-6-4-2-3-5-7/h2-4,6H2,1H3
computed SMILES=N#CCCCCSC
accession=JP000921
date=2016.01.19 (Created 2008.10.21, modified 2011.05.06)
author=KAMEOKA H, DEPT. OF APPLIED CHEMISTRY, FAC. OF SCI. AND ENGINEERING, KINKI UNIV.
license=CC BY-NC-SA
exact mass=129.06122
ionization energy=70 eV
ion type=[M]+*
computed spectral entropy=2.703679354228883
computed normalized entropy=0.8622817227642993
SPLASH=splash10-03gi-9100000000-c83faf1b967891a0cc4b
submitter=submitter = University of Tokyo Team (Faculty of Engineering, University of Tokyo)
MoNA Rating=3.75

>  <NUM PEAKS>  (6937) 
23

>  <MASS SPECTRAL PEAKS>  (6937) 
32 24
35 15.5
39 21
41 2.4
45 20
46 15
47 20
48 2.5
53 10
54 20
55 29.5
61 99.99
62 9.5
63 10
73 9.5
75 1.05
82 43
83 20.5
87 16.5
114 0.12
129 55
130 8
131 7

$$$$

     RDKit          2D

  8  7  0  0  0  0  0  0  0  0999 V2000
    1.9486    4.1250    0.0000 C   0  0  0  0  0  0  0  0  0  0  0  0
    0.6495    4.8750    0.0000 C   0  0  0  0  0  0  0  0  0  0  0  0
   -0.6495    4.1250    0.0000 C   0  0  0  0  0  0  0  0  0  0  0  0
   -1.9486    4.8750    0.0000 C   0  0  0  0  0  0  0  0  0  0  0  0
   -3.2476    4.1250    0.0000 C   0  0  0  0  0  0  0  0  0  0  0  0
   -5.8457    4.1250    0.0000 C   0  0  0  0  0  0  0  0  0  0  0  0
   -4.5466    4.8750    0.0000 N   0  0  0  0  0  0  0  0  0  0  0  0
   -7.1447    3.3750    0.0000 S   0  0  0  0  0  0  0  0  0  0  0  0
  2  1  2  0
  3  2  1  0
  4  3  1  0
  5  4  1  0
  7  5  1  0
  7  6  2  0
  8  6  2  0
M  END
>  <NAME>  (6938) 
4-PENTENYL ISOTHIOCYANATE

>  <SYNONYMS>  (6938) 


>  <SPECTRUM TYPE>  (6938) 
MS1

>  <INSTRUMENT TYPE>  (6938) 
EI-B

>  <INSTRUMENT>  (6938) 
SHIMADZU LKB-9000B

>  <ION MODE>  (6938) 
P

>  <INCHIKEY>  (6938) 
DBISBKDNOKIADM-UHFFFAOYSA-N

>  <FORMULA>  (6938) 
C6H9NS

>  <EXACT MASS>  (6938) 
127.045570288

>  <MW>  (6938) 
127

>  <ID>  (6938) 
JP000920

>  <CONTRIBUTOR>  (6938) 
University of Tokyo Team, {Faculty of Engineering, University of Tokyo

>  <COMMENT>  (6938) 
SMILES=C=CCCCN=C=S
InChI=InChI=1S/C6H9NS/c1-2-3-4-5-7-6-8/h2H,1,3-5H2
computed SMILES=S=C=NCCCC=C
accession=JP000920
date=2016.01.19 (Created 2008.10.21, modified 2011.05.06)
author=KAMEOKA H, DEPT. OF APPLIED CHEMISTRY, FAC. OF SCI. AND ENGINEERING, KINKI UNIV.
license=CC BY-NC-SA
exact mass=127.04557
ionization energy=70 eV
ion type=[M]+*
computed spectral entropy=2.537273998170783
computed normalized entropy=0.8469628680004454
SPLASH=splash10-0076-9100000000-b80ff5278e20ade2da97
submitter=submitter = University of Tokyo Team (Faculty of Engineering, University of Tokyo)
MoNA Rating=3.75

>  <NUM PEAKS>  (6938) 
20

>  <MASS SPECTRAL PEAKS>  (6938) 
39 53.2
41 99.99
42 12.8
45 1.49
53 23.4
55 19.2
58 10.6
59 0.85
60 12.8
67 34
68 14.9
69 1.06
70 34
72 25.5
85 21.3
99 1.7
126 14.9
127 17
128 6
129 7.5

$$$$

     RDKit          2D

  7  6  0  0  0  0  0  0  0  0999 V2000
    2.5981    3.0000    0.0000 C   0  0  0  0  0  0  0  0  0  0  0  0
    1.2990    3.7500    0.0000 C   0  0  0  0  0  0  0  0  0  0  0  0
    0.0000    3.0000    0.0000 C   0  0  0  0  0  0  0  0  0  0  0  0
   -1.2990    3.7500    0.0000 C   0  0  0  0  0  0  0  0  0  0  0  0
   -3.8971    3.7500    0.0000 C   0  0  0  0  0  0  0  0  0  0  0  0
   -2.5981    3.0000    0.0000 N   0  0  0  0  0  0  0  0  0  0  0  0
   -5.1962    4.5000    0.0000 S   0  0  0  0  0  0  0  0  0  0  0  0
  2  1  2  0
  3  2  1  0
  4  3  1  0
  6  4  1  0
  6  5  2  0
  7  5  2  0
M  END
>  <NAME>  (6939) 
3-BUTENYL ISOTHIOCYANATE

>  <SYNONYMS>  (6939) 


>  <SPECTRUM TYPE>  (6939) 
MS1

>  <INSTRUMENT TYPE>  (6939) 
EI-B

>  <INSTRUMENT>  (6939) 
SHIMADZU LKB-9000B

>  <ION MODE>  (6939) 
P

>  <INCHIKEY>  (6939) 
SKIHGKNFJKJXPX-UHFFFAOYSA-N

>  <FORMULA>  (6939) 
C5H7NS

>  <EXACT MASS>  (6939) 
113.029920224

>  <MW>  (6939) 
113

>  <ID>  (6939) 
JP000919

>  <CONTRIBUTOR>  (6939) 
University of Tokyo Team, {Faculty of Engineering, University of Tokyo

>  <COMMENT>  (6939) 
SMILES=C=CCCN=C=S
InChI=InChI=1S/C5H7NS/c1-2-3-4-6-5-7/h2H,1,3-4H2
computed SMILES=S=C=NCCC=C
accession=JP000919
date=2016.01.19 (Created 2008.10.21, modified 2011.05.06)
license=CC BY-NC-SA
author=KAMEOKA H, DEPT. OF APPLIED CHEMISTRY, FAC. OF SCI. AND ENGINEERING, KINKI UNIV.
exact mass=113.02992
ionization energy=70 eV
ion type=[M]+*
computed spectral entropy=2.178666400279756
computed normalized entropy=0.8045147757574849
SPLASH=splash10-05fr-9200000000-1a40200ada4e3470682d
submitter=submitter = University of Tokyo Team (Faculty of Engineering, University of Tokyo)
MoNA Rating=3.75

>  <NUM PEAKS>  (6939) 
15

>  <MASS SPECTRAL PEAKS>  (6939) 
39 49.1
41 28.3
51 13.2
53 1.89
55 49.1
58 7.6
59 11.3
60 0.94
72 99.99
73 9.4
74 17
85 1.51
113 50.9
114 9.4
115 7.7

$$$$

     RDKit          2D

  6  5  0  0  0  0  0  0  0  0999 V2000
    1.2990    3.0000    0.0000 C   0  0  0  0  0  0  0  0  0  0  0  0
    0.0000    3.7500    0.0000 C   0  0  0  0  0  0  0  0  0  0  0  0
   -1.2990    3.0000    0.0000 C   0  0  0  0  0  0  0  0  0  0  0  0
   -2.5981    3.7500    0.0000 C   0  0  0  0  0  0  0  0  0  0  0  0
   -3.8971    3.0000    0.0000 C   0  0  0  0  0  0  0  0  0  0  0  0
   -5.1962    2.2500    0.0000 N   0  0  0  0  0  0  0  0  0  0  0  0
  2  1  2  0
  3  2  1  0
  4  3  1  0
  5  4  1  0
  6  5  3  0
M  END
>  <NAME>  (6940) 
4-PENTENENITRILE

>  <SYNONYMS>  (6940) 


>  <SPECTRUM TYPE>  (6940) 
MS1

>  <INSTRUMENT TYPE>  (6940) 
EI-B

>  <INSTRUMENT>  (6940) 
SHIMADZU LKB-9000B

>  <ION MODE>  (6940) 
P

>  <INCHIKEY>  (6940) 
CFEYBLWMNFZOPB-UHFFFAOYSA-N

>  <FORMULA>  (6940) 
C5H7N

>  <EXACT MASS>  (6940) 
81.057849224

>  <MW>  (6940) 
81

>  <ID>  (6940) 
JP000918

>  <CONTRIBUTOR>  (6940) 
University of Tokyo Team, {Faculty of Engineering, University of Tokyo

>  <COMMENT>  (6940) 
SMILES=C=CCCC#N
InChI=InChI=1S/C5H7N/c1-2-3-4-5-6/h2H,1,3-4H2
computed SMILES=N#CCCC=C
accession=JP000918
date=2016.01.19 (Created 2008.10.21, modified 2011.05.06)
author=KAMEOKA H, DEPT. OF APPLIED CHEMISTRY, FAC. OF SCI. AND ENGINEERING, KINKI UNIV.
license=CC BY-NC-SA
exact mass=81.05785
ionization energy=70 eV
ion type=[M]+*
computed spectral entropy=1.9372972380287365
computed normalized entropy=0.8413575002822908
SPLASH=splash10-0f7x-9000000000-dae056a0485d22dde566
submitter=submitter = University of Tokyo Team (Faculty of Engineering, University of Tokyo)
MoNA Rating=3.75

>  <NUM PEAKS>  (6940) 
10

>  <MASS SPECTRAL PEAKS>  (6940) 
39 80
40 23
41 99.99
50 2
51 26
52 26
53 40
54 7.4
81 63
82 6

$$$$

     RDKit          2D

  6  5  0  0  0  0  0  0  0  0999 V2000
   -4.5466    3.3750    0.0000 C   0  0  0  0  0  0  0  0  0  0  0  0
    1.9486    2.6250    0.0000 C   0  0  0  0  0  0  0  0  0  0  0  0
   -3.2476    2.6250    0.0000 S   0  0  0  0  0  0  0  0  0  0  0  0
    0.6495    3.3750    0.0000 S   0  0  0  0  0  0  0  0  0  0  0  0
   -1.9486    3.3750    0.0000 S   0  0  0  0  0  0  0  0  0  0  0  0
   -0.6495    2.6250    0.0000 S   0  0  0  0  0  0  0  0  0  0  0  0
  3  1  1  0
  4  2  1  0
  5  3  1  0
  6  4  1  0
  6  5  1  0
M  END
>  <NAME>  (6941) 
DIMETHYL TETRASULFIDE

>  <SYNONYMS>  (6941) 


>  <SPECTRUM TYPE>  (6941) 
MS1

>  <INSTRUMENT TYPE>  (6941) 
EI-B

>  <INSTRUMENT>  (6941) 
SHIMADZU LKB-9000B

>  <ION MODE>  (6941) 
P

>  <INCHIKEY>  (6941) 
NPNIZCVKXVRCHF-UHFFFAOYSA-N

>  <FORMULA>  (6941) 
C2H6S4

>  <EXACT MASS>  (6941) 
157.935234192

>  <MW>  (6941) 
158

>  <ID>  (6941) 
JP000917

>  <CONTRIBUTOR>  (6941) 
University of Tokyo Team, {Faculty of Engineering, University of Tokyo

>  <COMMENT>  (6941) 
SMILES=CSSSSC
InChI=InChI=1S/C2H6S4/c1-3-5-6-4-2/h1-2H3
computed SMILES=S(SSC)SC
accession=JP000917
date=2016.01.19 (Created 2008.10.21, modified 2011.05.06)
author=KAMEOKA H, DEPT. OF APPLIED CHEMISTRY, FAC. OF SCI. AND ENGINEERING, KINKI UNIV.
license=CC BY-NC-SA
exact mass=157.93523
ionization energy=70 eV
ion type=[M]+*
computed spectral entropy=2.3983923079582183
computed normalized entropy=0.7759169743373935
SPLASH=splash10-004j-9200000000-d2c11999acc2236bfc1b
submitter=submitter = University of Tokyo Team (Faculty of Engineering, University of Tokyo)
MoNA Rating=3.75

>  <NUM PEAKS>  (6941) 
22

>  <MASS SPECTRAL PEAKS>  (6941) 
45 31.2
46 15.6
47 24.8
48 0.57
61 13.9
64 26.6
65 2
66 0.46
79 99.99
80 16.1
81 10.2
94 5.5
95 2.2
96 5.8
111 10.2
112 0.2
126 43.1
127 2.3
128 5.7
158 4.42
159 2.3
160 7.9

$$$$

     RDKit          2D

  8  7  0  0  0  0  0  0  0  0999 V2000
   -6.4952    4.5000    0.0000 C   0  0  0  0  0  0  0  0  0  0  0  0
    2.5981    3.7500    0.0000 C   0  0  0  0  0  0  0  0  0  0  0  0
   -5.1962    3.7500    0.0000 C   0  0  0  0  0  0  0  0  0  0  0  0
   -3.8971    4.5000    0.0000 C   0  0  0  0  0  0  0  0  0  0  0  0
   -2.5981    3.7500    0.0000 C   0  0  0  0  0  0  0  0  0  0  0  0
   -1.2990    4.5000    0.0000 C   0  0  0  0  0  0  0  0  0  0  0  0
    1.2990    4.5000    0.0000 S   0  0  0  0  0  0  0  0  0  0  0  0
    0.0000    3.7500    0.0000 S   0  0  0  0  0  0  0  0  0  0  0  0
  3  1  1  0
  4  3  1  0
  5  4  1  0
  6  5  1  0
  7  2  1  0
  8  6  1  0
  8  7  1  0
M  END
>  <NAME>  (6942) 
METHYL PENTYL DISULFIDE

>  <SYNONYMS>  (6942) 


>  <SPECTRUM TYPE>  (6942) 
MS1

>  <INSTRUMENT TYPE>  (6942) 
EI-B

>  <INSTRUMENT>  (6942) 
SHIMADZU LKB-9000B

>  <ION MODE>  (6942) 
P

>  <INCHIKEY>  (6942) 
VDJXDNLYBDHPHP-UHFFFAOYSA-N

>  <FORMULA>  (6942) 
C6H14S2

>  <EXACT MASS>  (6942) 
150.053692448

>  <MW>  (6942) 
150

>  <ID>  (6942) 
JP000916

>  <CONTRIBUTOR>  (6942) 
University of Tokyo Team, {Faculty of Engineering, University of Tokyo

>  <COMMENT>  (6942) 
SMILES=CCCCCSSC
InChI=InChI=1S/C6H14S2/c1-3-4-5-6-8-7-2/h3-6H2,1-2H3
computed SMILES=S(SCCCCC)C
accession=JP000916
date=2016.01.19 (Created 2008.10.21, modified 2011.05.06)
author=KAMEOKA H, DEPT. OF APPLIED CHEMISTRY, FAC. OF SCI. AND ENGINEERING, KINKI UNIV.
license=CC BY-NC-SA
exact mass=150.05369
ionization energy=70 eV
ion type=[M]+*
computed spectral entropy=1.9671551127885758
computed normalized entropy=0.7916414537972296
SPLASH=splash10-007o-9400000000-793ea6fa0781fadaeedb
submitter=submitter = University of Tokyo Team (Faculty of Engineering, University of Tokyo)
MoNA Rating=3.75

>  <NUM PEAKS>  (6942) 
12

>  <MASS SPECTRAL PEAKS>  (6942) 
41 9.5
43 99.99
47 20
61 1.27
79 16.4
80 70.9
94 21.8
108 1.82
122 61.8
150 41.8
151 5.5
152 3.6

$$$$

     RDKit          2D

  7  6  0  0  0  0  0  0  0  0999 V2000
    1.9486    3.3750    0.0000 C   0  0  0  0  0  0  0  0  0  0  0  0
    0.6495    4.1250    0.0000 C   0  0  0  0  0  0  0  0  0  0  0  0
   -0.6495    3.3750    0.0000 C   0  0  0  0  0  0  0  0  0  0  0  0
   -1.9486    4.1250    0.0000 C   0  0  0  0  0  0  0  0  0  0  0  0
   -3.2476    3.3750    0.0000 C   0  0  0  0  0  0  0  0  0  0  0  0
   -5.8457    3.3750    0.0000 S   0  0  0  0  0  0  0  0  0  0  0  0
   -4.5466    4.1250    0.0000 S   0  0  0  0  0  0  0  0  0  0  0  0
  2  1  1  0
  3  2  1  0
  4  3  1  0
  5  4  1  0
  7  5  1  0
  7  6  1  0
M  END
>  <NAME>  (6943) 
PENTYL HYDRODISULFIDE

>  <SYNONYMS>  (6943) 


>  <SPECTRUM TYPE>  (6943) 
MS1

>  <INSTRUMENT TYPE>  (6943) 
EI-B

>  <INSTRUMENT>  (6943) 
SHIMADZU LKB-9000B

>  <ION MODE>  (6943) 
P

>  <INCHIKEY>  (6943) 
DPLYGYOSWLFGGY-UHFFFAOYSA-N

>  <FORMULA>  (6943) 
C5H12S2

>  <EXACT MASS>  (6943) 
136.038042384

>  <MW>  (6943) 
136

>  <ID>  (6943) 
JP000915

>  <CONTRIBUTOR>  (6943) 
University of Tokyo Team, {Faculty of Engineering, University of Tokyo

>  <COMMENT>  (6943) 
SMILES=CCCCCSS
InChI=InChI=1S/C5H12S2/c1-2-3-4-5-7-6/h6H,2-5H2,1H3
computed SMILES=SSCCCCC
accession=JP000915
date=2016.01.19 (Created 2008.10.21, modified 2011.05.06)
author=KAMEOKA H, DEPT. OF APPLIED CHEMISTRY, FAC. OF SCI. AND ENGINEERING, KINKI UNIV.
license=CC BY-NC-SA
exact mass=136.03804
ionization energy=70 eV
ion type=[M]+*
computed spectral entropy=1.4903464414524052
computed normalized entropy=0.716705140096633
SPLASH=splash10-00dr-9800000000-d326095cea1b84498082
submitter=submitter = University of Tokyo Team (Faculty of Engineering, University of Tokyo)
MoNA Rating=3.75

>  <NUM PEAKS>  (6943) 
8

>  <MASS SPECTRAL PEAKS>  (6943) 
55 12
70 7.2
71 99.99
72 0.72
103 26.5
136 74.7
137 7.2
138 10.8

$$$$

     RDKit          2D

  5  4  0  0  0  0  0  0  0  0999 V2000
   -3.8971    2.2500    0.0000 C   0  0  0  0  0  0  0  0  0  0  0  0
    1.2990    2.2500    0.0000 C   0  0  0  0  0  0  0  0  0  0  0  0
   -2.5981    1.5000    0.0000 S   0  0  0  0  0  0  0  0  0  0  0  0
    0.0000    1.5000    0.0000 S   0  0  0  0  0  0  0  0  0  0  0  0
   -1.2990    2.2500    0.0000 S   0  0  0  0  0  0  0  0  0  0  0  0
  3  1  1  0
  4  2  1  0
  5  3  1  0
  5  4  1  0
M  END
>  <NAME>  (6944) 
DIMETHYL TRISULFIDE

>  <SYNONYMS>  (6944) 


>  <SPECTRUM TYPE>  (6944) 
MS1

>  <INSTRUMENT TYPE>  (6944) 
EI-B

>  <INSTRUMENT>  (6944) 
SHIMADZU LKB-9000B

>  <ION MODE>  (6944) 
P

>  <INCHIKEY>  (6944) 
YWHLKYXPLRWGSE-UHFFFAOYSA-N

>  <FORMULA>  (6944) 
C2H6S3

>  <EXACT MASS>  (6944) 
125.963163192

>  <MW>  (6944) 
126

>  <ID>  (6944) 
JP000914

>  <CONTRIBUTOR>  (6944) 
University of Tokyo Team, {Faculty of Engineering, University of Tokyo

>  <COMMENT>  (6944) 
SMILES=CSSSC
InChI=InChI=1S/C2H6S3/c1-3-5-4-2/h1-2H3
computed SMILES=S(SC)SC
accession=JP000914
ionization energy=70 eV
date=2016.01.19 (Created 2008.10.21, modified 2011.05.06)
author=KAMEOKA H, DEPT. OF APPLIED CHEMISTRY, FAC. OF SCI. AND ENGINEERING, KINKI UNIV.
license=CC BY-NC-SA
exact mass=125.96316
ion type=[M]+*
computed spectral entropy=2.007791952003584
computed normalized entropy=0.7086624649060476
SPLASH=splash10-004i-8900000000-51e17f5b584d2fdfd191
submitter=submitter = University of Tokyo Team (Faculty of Engineering, University of Tokyo)
MoNA Rating=3.75

>  <NUM PEAKS>  (6944) 
17

>  <MASS SPECTRAL PEAKS>  (6944) 
45 14.9
46 4.6
47 19.4
48 0.1
61 11
62 0.8
64 7.6
78 0.95
79 39.1
80 16.5
81 4.2
82 0.1
111 14.8
113 1.9
126 99.99
127 0.48
128 13.3

$$$$

     RDKit          2D

  6  5  0  0  0  0  0  0  0  0999 V2000
   -4.5466    3.3750    0.0000 C   0  0  0  0  0  0  0  0  0  0  0  0
    1.9486    2.6250    0.0000 C   0  0  0  0  0  0  0  0  0  0  0  0
   -3.2476    2.6250    0.0000 C   0  0  0  0  0  0  0  0  0  0  0  0
   -1.9486    3.3750    0.0000 C   0  0  0  0  0  0  0  0  0  0  0  0
    0.6495    3.3750    0.0000 S   0  0  0  0  0  0  0  0  0  0  0  0
   -0.6495    2.6250    0.0000 S   0  0  0  0  0  0  0  0  0  0  0  0
  3  1  2  0
  4  3  1  0
  5  2  1  0
  6  4  1  0
  6  5  1  0
M  END
>  <NAME>  (6945) 
ALLYL METHYL DISULFIDE

>  <SYNONYMS>  (6945) 


>  <SPECTRUM TYPE>  (6945) 
MS1

>  <INSTRUMENT TYPE>  (6945) 
EI-B

>  <INSTRUMENT>  (6945) 
SHIMADZU LKB-9000B

>  <ION MODE>  (6945) 
P

>  <INCHIKEY>  (6945) 
XNZOTQPMYMCTBZ-UHFFFAOYSA-N

>  <FORMULA>  (6945) 
C4H8S2

>  <EXACT MASS>  (6945) 
120.006742256

>  <MW>  (6945) 
120

>  <ID>  (6945) 
JP000913

>  <CONTRIBUTOR>  (6945) 
University of Tokyo Team, {Faculty of Engineering, University of Tokyo

>  <COMMENT>  (6945) 
SMILES=C=CCSSC
InChI=InChI=1S/C4H8S2/c1-3-4-6-5-2/h3H,1,4H2,2H3
computed SMILES=S(SCC=C)C
accession=JP000913
date=2016.01.19 (Created 2008.10.21, modified 2011.05.06)
author=KAMEOKA H, DEPT. OF APPLIED CHEMISTRY, FAC. OF SCI. AND ENGINEERING, KINKI UNIV.
license=CC BY-NC-SA
exact mass=120.00674
ionization energy=70 eV
ion type=[M]+*
computed spectral entropy=1.8092750613823882
computed normalized entropy=0.6144719161049101
SPLASH=splash10-006x-9400000000-b22656c2fc50d291c433
submitter=submitter = University of Tokyo Team (Faculty of Engineering, University of Tokyo)
MoNA Rating=3.75

>  <NUM PEAKS>  (6945) 
19

>  <MASS SPECTRAL PEAKS>  (6945) 
39 9.6
41 99.99
42 3.6
43 0.25
45 8.1
57 6
64 1.5
70 0.16
71 4.3
72 2.9
73 8.7
74 0.27
79 5.2
80 5
85 2.6
87 0.3
120 71.6
121 4.5
122 6.3

$$$$

     RDKit          2D

 16 16  0  0  0  0  0  0  0  0999 V2000
    0.0000    3.0000    0.0000 C   0  0  0  0  0  0  0  0  0  0  0  0
   -3.3491   -0.2013    0.0000 C   0  0  0  0  0  0  0  0  0  0  0  0
   -3.8978   -2.2504    0.0000 C   0  0  0  0  0  0  0  0  0  0  0  0
   -1.8487   -2.7991    0.0000 C   0  0  0  0  0  0  0  0  0  0  0  0
    1.8487   -2.7991    0.0000 C   0  0  0  0  0  0  0  0  0  0  0  0
    3.8978   -2.2504    0.0000 C   0  0  0  0  0  0  0  0  0  0  0  0
    3.3491   -0.2013    0.0000 C   0  0  0  0  0  0  0  0  0  0  0  0
   -1.3000    0.7500    0.0000 C   0  0  0  0  0  0  0  0  0  0  0  0
    1.3000    0.7500    0.0000 C   0  0  0  0  0  0  0  0  0  0  0  0
    0.0000    1.5000    0.0000 C   0  0  0  0  0  0  0  0  0  0  0  0
   -1.3000   -0.7500    0.0000 C   0  0  0  0  0  0  0  0  0  0  0  0
    1.3000   -0.7500    0.0000 C   0  0  0  0  0  0  0  0  0  0  0  0
    0.0000   -1.5000    0.0000 C   0  0  0  0  0  0  0  0  0  0  0  0
   -2.5989   -1.5002    0.0000 C   0  0  0  0  0  0  0  0  0  0  0  0
    2.5989   -1.5002    0.0000 C   0  0  0  0  0  0  0  0  0  0  0  0
   -0.0000   -3.0000    0.0000 O   0  0  0  0  0  0  0  0  0  0  0  0
 10  1  1  0
 10  8  2  0
 10  9  1  0
 11  8  1  0
 12  9  2  0
 13 11  2  0
 13 12  1  0
 14  2  1  0
 14  3  1  0
 14  4  1  0
 14 11  1  0
 15  5  1  0
 15  6  1  0
 15  7  1  0
 15 12  1  0
 16 13  1  0
M  END
>  <NAME>  (6946) 
2,6-DI-TERT-BUTYL-4-METHYLPHENOL

>  <SYNONYMS>  (6946) 


>  <SPECTRUM TYPE>  (6946) 
MS1

>  <INSTRUMENT TYPE>  (6946) 
EI-B

>  <INSTRUMENT>  (6946) 
SHIMADZU LKB-9000B

>  <ION MODE>  (6946) 
P

>  <INCHIKEY>  (6946) 
NLZUEZXRPGMBCV-UHFFFAOYSA-N

>  <FORMULA>  (6946) 
C15H24O

>  <EXACT MASS>  (6946) 
220.182715388

>  <MW>  (6946) 
220

>  <ID>  (6946) 
JP000912

>  <CONTRIBUTOR>  (6946) 
University of Tokyo Team, {Faculty of Engineering, University of Tokyo

>  <COMMENT>  (6946) 
SMILES=Cc(c1)cc(C(C)(C)C)c(O)c1C(C)(C)C
InChI=InChI=1S/C15H24O/c1-10-8-11(14(2,3)4)13(16)12(9-10)15(5,6)7/h8-9,16H,1-7H3
computed SMILES=OC=1C(=CC(=CC1C(C)(C)C)C)C(C)(C)C
accession=JP000912
date=2016.01.19 (Created 2008.10.21, modified 2011.05.06)
author=KAMEOKA H, DEPT. OF APPLIED CHEMISTRY, FAC. OF SCI. AND ENGINEERING, KINKI UNIV.
license=CC BY-NC-SA
exact mass=220.18272
ionization energy=70 eV
ion type=[M]+*
computed spectral entropy=1.5548944090371901
computed normalized entropy=0.5891855366642885
SPLASH=splash10-0a4i-2190000000-9fbadde6214d71846540
submitter=submitter = University of Tokyo Team (Faculty of Engineering, University of Tokyo)
MoNA Rating=3.75

>  <NUM PEAKS>  (6946) 
14

>  <MASS SPECTRAL PEAKS>  (6946) 
41 4
55 6
57 24
69 0.2
105 4
119 2
131 2
145 1
177 4
189 2
205 99.99
206 1.52
220 28
221 4

$$$$

     RDKit          2D

 13 13  0  0  0  0  0  0  0  0999 V2000
    4.0110   -3.7906    0.0000 C   0  0  0  0  0  0  0  0  0  0  0  0
   -5.1343    1.4111    0.0000 C   0  0  0  0  0  0  0  0  0  0  0  0
    2.5833   -4.2506    0.0000 C   0  0  0  0  0  0  0  0  0  0  0  0
    1.4711   -3.2441    0.0000 C   0  0  0  0  0  0  0  0  0  0  0  0
    0.0433   -3.7041    0.0000 C   0  0  0  0  0  0  0  0  0  0  0  0
   -1.0689   -2.6976    0.0000 C   0  0  0  0  0  0  0  0  0  0  0  0
   -2.4966   -3.1576    0.0000 C   0  0  0  0  0  0  0  0  0  0  0  0
   -5.8186   -1.1637    0.0000 C   0  0  0  0  0  0  0  0  0  0  0  0
   -4.8188   -0.0554    0.0000 C   0  0  0  0  0  0  0  0  0  0  0  0
   -5.0686   -2.4628    0.0000 C   0  0  0  0  0  0  0  0  0  0  0  0
   -3.6088   -2.1511    0.0000 C   0  0  0  0  0  0  0  0  0  0  0  0
   -5.6781   -3.8334    0.0000 O   0  0  0  0  0  0  0  0  0  0  0  0
   -3.4431   -0.6583    0.0000 O   0  0  0  0  0  0  0  0  0  0  0  0
  3  1  1  0
  4  3  1  0
  5  4  1  0
  6  5  1  0
  7  6  1  0
  9  2  1  0
  9  8  2  0
 10  8  1  0
 11  7  1  0
 11 10  1  0
 12 10  2  0
 13  9  1  0
 13 11  1  0
M  END
>  <NAME>  (6947) 
2,3-DIHYDRO-2-HEXYL-5-METHYLFURAN-3-ONE

>  <SYNONYMS>  (6947) 


>  <SPECTRUM TYPE>  (6947) 
MS1

>  <INSTRUMENT TYPE>  (6947) 
EI-B

>  <INSTRUMENT>  (6947) 
SHIMADZU LKB-9000B

>  <ION MODE>  (6947) 
P

>  <INCHIKEY>  (6947) 
AAUWBAWSKVOBFL-UHFFFAOYSA-N

>  <FORMULA>  (6947) 
C11H18O2

>  <EXACT MASS>  (6947) 
182.130679816

>  <MW>  (6947) 
182

>  <ID>  (6947) 
JP000911

>  <CONTRIBUTOR>  (6947) 
University of Tokyo Team, {Faculty of Engineering, University of Tokyo

>  <COMMENT>  (6947) 
SMILES=CCCCCCC(O1)C(=O)C=C(C)1
InChI=InChI=1S/C11H18O2/c1-3-4-5-6-7-11-10(12)8-9(2)13-11/h8,11H,3-7H2,1-2H3
computed SMILES=O=C1C=C(OC1CCCCCC)C
accession=JP000911
date=2016.01.19 (Created 2008.10.21, modified 2011.05.06)
author=KAMEOKA H, DEPT. OF APPLIED CHEMISTRY, FAC. OF SCI. AND ENGINEERING, KINKI UNIV.
license=CC BY-NC-SA
exact mass=182.13068
ionization energy=70 eV
ion type=[M]+*
computed spectral entropy=2.218487901643277
computed normalized entropy=0.7405494547119096
SPLASH=splash10-01ot-9200000000-4ff289414ebf1926a506
submitter=submitter = University of Tokyo Team (Faculty of Engineering, University of Tokyo)
MoNA Rating=3.75

>  <NUM PEAKS>  (6947) 
20

>  <MASS SPECTRAL PEAKS>  (6947) 
39 20.3
40 20
41 25.8
42 0.62
43 2.2
55 10.6
56 4.1
57 0.6
67 2.6
68 17
69 7.6
70 0.2
71 4.6
85 6.4
97 5.4
98 99.99
99 5.8
111 52.2
112 4
182 4

$$$$

     RDKit          2D

 11 12  0  0  0  0  0  0  0  0999 V2000
   -0.6759    1.4813    0.0000 C   0  0  0  0  0  0  0  0  0  0  0  0
   -0.6759   -2.3013    0.0000 C   0  0  0  0  0  0  0  0  0  0  0  0
    2.4475    2.5900    0.0000 C   0  0  0  0  0  0  0  0  0  0  0  0
    1.1450   -1.1600    0.0000 C   0  0  0  0  0  0  0  0  0  0  0  0
    1.1450    0.3400    0.0000 C   0  0  0  0  0  0  0  0  0  0  0  0
    3.7350   -1.1600    0.0000 C   0  0  0  0  0  0  0  0  0  0  0  0
    2.4450   -1.9100    0.0000 C   0  0  0  0  0  0  0  0  0  0  0  0
    3.7350    0.3400    0.0000 C   0  0  0  0  0  0  0  0  0  0  0  0
    1.5750   -0.4100    0.0000 C   0  0  0  0  0  0  0  0  0  0  0  0
    2.4450    1.0900    0.0000 C   0  0  0  0  0  0  0  0  0  0  0  0
    5.0352    1.0880    0.0000 O   0  0  0  0  0  0  0  0  0  0  0  0
  5  4  1  0
  7  4  1  0
  7  6  1  0
  8  6  1  0
  9  1  1  0
  9  2  1  0
  9  7  1  0
 10  3  1  0
 10  5  1  0
 10  8  1  0
 10  9  1  0
 11  8  2  0
M  END
>  <NAME>  (6948) 
CAMPHOR

>  <SYNONYMS>  (6948) 
2-OXOBORNANE

>  <SPECTRUM TYPE>  (6948) 
MS1

>  <INSTRUMENT TYPE>  (6948) 
EI-B

>  <INSTRUMENT>  (6948) 
SHIMADZU LKB-9000B

>  <ION MODE>  (6948) 
P

>  <INCHIKEY>  (6948) 
DSSYKIVIOFKYAU-UHFFFAOYSA-N

>  <FORMULA>  (6948) 
C10H16O

>  <EXACT MASS>  (6948) 
152.120115132

>  <MW>  (6948) 
152

>  <ID>  (6948) 
JP000910

>  <CONTRIBUTOR>  (6948) 
University of Tokyo Team, {Faculty of Engineering, University of Tokyo

>  <COMMENT>  (6948) 
SMILES=O=C(C1)C(C)(C2)C(C)(C)C(C2)1
InChI=InChI=1S/C10H16O/c1-9(2)7-4-5-10(9,3)8(11)6-7/h7H,4-6H2,1-3H3
computed SMILES=O=C1CC2CCC1(C)C2(C)C
accession=JP000910
date=2016.01.19 (Created 2008.10.21, modified 2011.05.06)
author=KAMEOKA H, DEPT. OF APPLIED CHEMISTRY, FAC. OF SCI. AND ENGINEERING, KINKI UNIV.
license=CC BY-NC-SA
exact mass=152.12012
ionization energy=70 eV
ion type=[M]+*
computed spectral entropy=2.2417635490144625
computed normalized entropy=0.849456176589117
SPLASH=splash10-05mn-9100000000-1fee5995ad259c69d84a
submitter=submitter = University of Tokyo Team (Faculty of Engineering, University of Tokyo)
MoNA Rating=3.75

>  <NUM PEAKS>  (6948) 
14

>  <MASS SPECTRAL PEAKS>  (6948) 
41 24
43 28
55 40
57 0.8
67 6
69 52
80 10
81 6.8
83 36
95 99.99
108 28
109 2.6
110 14
152 22

$$$$

     RDKit          2D

 11 11  0  0  0  0  0  0  0  0999 V2000
   -3.5376    0.5451    0.0000 C   0  0  0  0  0  0  0  0  0  0  0  0
   -2.2386    2.7951    0.0000 C   0  0  0  0  0  0  0  0  0  0  0  0
    2.9576   -1.7049    0.0000 C   0  0  0  0  0  0  0  0  0  0  0  0
    0.3590   -1.7058    0.0000 C   0  0  0  0  0  0  0  0  0  0  0  0
   -0.9400   -0.9558    0.0000 C   0  0  0  0  0  0  0  0  0  0  0  0
    0.3600    1.2959    0.0000 C   0  0  0  0  0  0  0  0  0  0  0  0
   -2.2386    1.2951    0.0000 C   0  0  0  0  0  0  0  0  0  0  0  0
    1.6585   -0.9549    0.0000 C   0  0  0  0  0  0  0  0  0  0  0  0
   -0.9395    0.5451    0.0000 C   0  0  0  0  0  0  0  0  0  0  0  0
    1.6590    0.5459    0.0000 C   0  0  0  0  0  0  0  0  0  0  0  0
    2.9582    1.2957    0.0000 O   0  0  0  0  0  0  0  0  0  0  0  0
  5  4  2  0
  7  1  1  0
  7  2  1  0
  8  3  1  0
  8  4  1  0
  9  5  1  0
  9  6  2  0
  9  7  1  0
 10  6  1  0
 10  8  2  0
 11 10  1  0
M  END
>  <NAME>  (6949) 
CARVACROL

>  <SYNONYMS>  (6949) 
5-ISOPROPYL-2-METHYLPHENOL

>  <SPECTRUM TYPE>  (6949) 
MS1

>  <INSTRUMENT TYPE>  (6949) 
EI-B

>  <INSTRUMENT>  (6949) 
SHIMADZU LKB-9000B

>  <ION MODE>  (6949) 
P

>  <INCHIKEY>  (6949) 
RECUKUPTGUEGMW-UHFFFAOYSA-N

>  <FORMULA>  (6949) 
C10H14O

>  <EXACT MASS>  (6949) 
150.104465068

>  <MW>  (6949) 
150

>  <ID>  (6949) 
JP000909

>  <CONTRIBUTOR>  (6949) 
University of Tokyo Team, {Faculty of Engineering, University of Tokyo

>  <COMMENT>  (6949) 
SMILES=CC(C)c(c1)cc(O)c(C)c1
InChI=InChI=1S/C10H14O/c1-7(2)9-5-4-8(3)10(11)6-9/h4-7,11H,1-3H3
computed SMILES=OC1=CC(=CC=C1C)C(C)C
accession=JP000909
date=2016.01.19 (Created 2008.10.21, modified 2011.05.06)
author=KAMEOKA H, DEPT. OF APPLIED CHEMISTRY, FAC. OF SCI. AND ENGINEERING, KINKI UNIV.
license=CC BY-NC-SA
exact mass=150.10447
ionization energy=70 eV
ion type=[M]+*
computed spectral entropy=1.6802693815483691
computed normalized entropy=0.6060290760293494
SPLASH=splash10-000i-1900000000-ef32f1d484b3c21ba134
submitter=submitter = University of Tokyo Team (Faculty of Engineering, University of Tokyo)
MoNA Rating=3.75

>  <NUM PEAKS>  (6949) 
16

>  <MASS SPECTRAL PEAKS>  (6949) 
41 2
43 1.2
74 4
77 0.32
79 3.6
87 2.4
91 16.4
105 0.2
107 8
115 2.8
117 6
121 0.12
135 99.99
136 8
150 35.6
151 4

$$$$

     RDKit          2D

 11 11  0  0  0  0  0  0  0  0999 V2000
   -3.5376   -0.2051    0.0000 C   0  0  0  0  0  0  0  0  0  0  0  0
   -2.2386   -2.4551    0.0000 C   0  0  0  0  0  0  0  0  0  0  0  0
    2.9576    2.0449    0.0000 C   0  0  0  0  0  0  0  0  0  0  0  0
    0.3590    2.0458    0.0000 C   0  0  0  0  0  0  0  0  0  0  0  0
   -0.9400    1.2958    0.0000 C   0  0  0  0  0  0  0  0  0  0  0  0
    1.6590   -0.2059    0.0000 C   0  0  0  0  0  0  0  0  0  0  0  0
   -2.2386   -0.9551    0.0000 C   0  0  0  0  0  0  0  0  0  0  0  0
    1.6585    1.2949    0.0000 C   0  0  0  0  0  0  0  0  0  0  0  0
   -0.9395   -0.2051    0.0000 C   0  0  0  0  0  0  0  0  0  0  0  0
    0.3600   -0.9559    0.0000 C   0  0  0  0  0  0  0  0  0  0  0  0
    0.3597   -2.4559    0.0000 O   0  0  0  0  0  0  0  0  0  0  0  0
  5  4  2  0
  7  1  1  0
  7  2  1  0
  8  3  1  0
  8  4  1  0
  8  6  2  0
  9  5  1  0
  9  7  1  0
 10  6  1  0
 10  9  2  0
 11 10  1  0
M  END
>  <NAME>  (6950) 
THYMOL

>  <SYNONYMS>  (6950) 
2-ISOPROPYL-5-METHYLPHENOL

>  <SPECTRUM TYPE>  (6950) 
MS1

>  <INSTRUMENT TYPE>  (6950) 
EI-B

>  <INSTRUMENT>  (6950) 
SHIMADZU LKB-9000B

>  <ION MODE>  (6950) 
P

>  <INCHIKEY>  (6950) 
MGSRCZKZVOBKFT-UHFFFAOYSA-N

>  <FORMULA>  (6950) 
C10H14O

>  <EXACT MASS>  (6950) 
150.104465068

>  <MW>  (6950) 
150

>  <ID>  (6950) 
JP000908

>  <CONTRIBUTOR>  (6950) 
University of Tokyo Team, {Faculty of Engineering, University of Tokyo

>  <COMMENT>  (6950) 
SMILES=CC(C)c(c1)c(O)cc(C)c1
InChI=InChI=1S/C10H14O/c1-7(2)9-5-4-8(3)6-10(9)11/h4-7,11H,1-3H3
computed SMILES=OC1=CC(=CC=C1C(C)C)C
accession=JP000908
date=2016.01.19 (Created 2008.10.21, modified 2011.05.06)
author=KAMEOKA H, DEPT. OF APPLIED CHEMISTRY, FAC. OF SCI. AND ENGINEERING, KINKI UNIV.
license=CC BY-NC-SA
exact mass=150.10447
ionization energy=70 eV
ion type=[M]+*
computed spectral entropy=1.14671244754307
computed normalized entropy=0.44707020986875984
SPLASH=splash10-000i-0900000000-333dc57384e65e3b4cfa
submitter=submitter = University of Tokyo Team (Faculty of Engineering, University of Tokyo)
MoNA Rating=3.75

>  <NUM PEAKS>  (6950) 
13

>  <MASS SPECTRAL PEAKS>  (6950) 
41 2
77 2
79 1.2
91 1.24
105 1.2
107 4
115 7.6
117 0.72
121 1.2
135 99.99
136 8
150 2.8
151 3.2

$$$$

     RDKit          2D

  9  9  0  0  0  0  0  0  0  0999 V2000
   -4.4201   -1.5763    0.0000 C   0  0  0  0  0  0  0  0  0  0  0  0
    3.1201    0.5774    0.0000 C   0  0  0  0  0  0  0  0  0  0  0  0
   -2.9283   -1.7338    0.0000 C   0  0  0  0  0  0  0  0  0  0  0  0
   -2.0461   -0.5207    0.0000 C   0  0  0  0  0  0  0  0  0  0  0  0
    0.1956   -1.9771    0.0000 C   0  0  0  0  0  0  0  0  0  0  0  0
    0.4453    0.4303    0.0000 C   0  0  0  0  0  0  0  0  0  0  0  0
   -0.5544   -0.6781    0.0000 C   0  0  0  0  0  0  0  0  0  0  0  0
    1.6553   -1.6655    0.0000 N   0  0  0  0  0  0  0  0  0  0  0  0
    1.8211   -0.1726    0.0000 N   0  0  0  0  0  0  0  0  0  0  0  0
  3  1  1  0
  4  3  1  0
  7  4  1  0
  7  5  1  0
  7  6  1  0
  8  5  2  0
  9  2  1  0
  9  6  1  0
  9  8  1  0
M  END
>  <NAME>  (6951) 
1-METHYL-4-PROPYL-2-PYRAZOLINE

>  <SYNONYMS>  (6951) 


>  <SPECTRUM TYPE>  (6951) 
MS1

>  <INSTRUMENT TYPE>  (6951) 
EI-B

>  <INSTRUMENT>  (6951) 
SHIMADZU LKB-2091

>  <ION MODE>  (6951) 
P

>  <INCHIKEY>  (6951) 
SUETXQJIPUGALV-UHFFFAOYSA-N

>  <FORMULA>  (6951) 
C7H14N2

>  <EXACT MASS>  (6951) 
126.115698448

>  <MW>  (6951) 
126

>  <ID>  (6951) 
JP000907

>  <CONTRIBUTOR>  (6951) 
University of Tokyo Team, {Faculty of Engineering, University of Tokyo

>  <COMMENT>  (6951) 
SMILES=CCCC(C1)C([H])=NN(C)1
InChI=InChI=1S/C7H14N2/c1-3-4-7-5-8-9(2)6-7/h5,7H,3-4,6H2,1-2H3
computed SMILES=N1=CC(CN1C)CCC
accession=JP000907
date=2016.01.19 (Created 2008.10.21, modified 2011.05.06)
author=SASAKI S, TOYOHASHI UNIV. OF TECH.
license=CC BY-NC-SA
exact mass=126.1157
ionization energy=70 eV
ion type=[M]+*
computed spectral entropy=2.2285358869371756
computed normalized entropy=0.6218847800752233
SPLASH=splash10-001i-9100000000-a2c09fd82ce642f33382
submitter=submitter = University of Tokyo Team (Faculty of Engineering, University of Tokyo)
MoNA Rating=3.75

>  <NUM PEAKS>  (6951) 
36

>  <MASS SPECTRAL PEAKS>  (6951) 
26 0.8
27 7.2
28 9
29 0.35
30 2
38 0.6
39 5.8
40 0.16
41 9.2
42 31.8
43 10.1
44 0.3
51 0.5
52 0.6
53 1.1
54 0.2
55 3.2
56 15.8
57 1.5
66 0.07
67 0.7
68 1.7
69 2
70 0.09
81 1.5
82 0.3
83 99.99
84 0.9
85 5
95 1.4
96 0.5
97 0.32
98 0.3
125 2.5
126 20.7
127 1.9

$$$$

     RDKit          2D

  9  9  0  0  0  0  0  0  0  0999 V2000
   -4.4201   -1.5763    0.0000 C   0  0  0  0  0  0  0  0  0  0  0  0
    3.1201    0.5774    0.0000 C   0  0  0  0  0  0  0  0  0  0  0  0
   -2.9283   -1.7338    0.0000 C   0  0  0  0  0  0  0  0  0  0  0  0
   -2.0461   -0.5207    0.0000 C   0  0  0  0  0  0  0  0  0  0  0  0
    0.1956   -1.9771    0.0000 C   0  0  0  0  0  0  0  0  0  0  0  0
    0.4453    0.4303    0.0000 C   0  0  0  0  0  0  0  0  0  0  0  0
   -0.5544   -0.6781    0.0000 C   0  0  0  0  0  0  0  0  0  0  0  0
    1.6553   -1.6655    0.0000 N   0  0  0  0  0  0  0  0  0  0  0  0
    1.8211   -0.1726    0.0000 N   0  0  0  0  0  0  0  0  0  0  0  0
  3  1  1  0
  4  3  1  0
  7  4  1  0
  7  5  1  0
  7  6  1  0
  8  5  2  0
  9  2  1  0
  9  6  1  0
  9  8  1  0
M  END
>  <NAME>  (6952) 
1-METHYL-4-PROPYL-2-PYRAZOLINE

>  <SYNONYMS>  (6952) 


>  <SPECTRUM TYPE>  (6952) 
MS1

>  <INSTRUMENT TYPE>  (6952) 
EI-B

>  <INSTRUMENT>  (6952) 
SHIMADZU LKB-2091

>  <ION MODE>  (6952) 
P

>  <INCHIKEY>  (6952) 
SUETXQJIPUGALV-UHFFFAOYSA-N

>  <FORMULA>  (6952) 
C7H14N2

>  <EXACT MASS>  (6952) 
126.115698448

>  <MW>  (6952) 
126

>  <ID>  (6952) 
JP000906

>  <CONTRIBUTOR>  (6952) 
University of Tokyo Team, {Faculty of Engineering, University of Tokyo

>  <COMMENT>  (6952) 
SMILES=CCCC(C1)C([H])=NN(C)1
InChI=InChI=1S/C7H14N2/c1-3-4-7-5-8-9(2)6-7/h5,7H,3-4,6H2,1-2H3
computed SMILES=N1=CC(CN1C)CCC
accession=JP000906
date=2016.01.19 (Created 2008.10.21, modified 2011.05.06)
author=SASAKI S, TOYOHASHI UNIV. OF TECH.
license=CC BY-NC-SA
exact mass=126.1157
ionization energy=70 eV
ion type=[M]+*
computed spectral entropy=2.2285358869371756
computed normalized entropy=0.6218847800752233
SPLASH=splash10-001i-9100000000-a2c09fd82ce642f33382
submitter=submitter = University of Tokyo Team (Faculty of Engineering, University of Tokyo)
MoNA Rating=3.75

>  <NUM PEAKS>  (6952) 
36

>  <MASS SPECTRAL PEAKS>  (6952) 
26 0.8
27 7.2
28 9
29 0.35
30 2
38 0.6
39 5.8
40 0.16
41 9.2
42 31.8
43 10.1
44 0.3
51 0.5
52 0.6
53 1.1
54 0.2
55 3.2
56 15.8
57 1.5
66 0.07
67 0.7
68 1.7
69 2
70 0.09
81 1.5
82 0.3
83 99.99
84 0.9
85 5
95 1.4
96 0.5
97 0.32
98 0.3
125 2.5
126 20.7
127 1.9

$$$$

     RDKit          2D

  9  9  0  0  0  0  0  0  0  0999 V2000
   -3.7156    1.9424    0.0000 C   0  0  0  0  0  0  0  0  0  0  0  0
    4.0488    0.8444    0.0000 C   0  0  0  0  0  0  0  0  0  0  0  0
   -2.4165    1.1924    0.0000 C   0  0  0  0  0  0  0  0  0  0  0  0
    1.8070   -0.6121    0.0000 C   0  0  0  0  0  0  0  0  0  0  0  0
   -1.1175    1.9424    0.0000 C   0  0  0  0  0  0  0  0  0  0  0  0
    0.3473   -0.3004    0.0000 C   0  0  0  0  0  0  0  0  0  0  0  0
    2.5570    0.6870    0.0000 C   0  0  0  0  0  0  0  0  0  0  0  0
    1.5573    1.7953    0.0000 N   0  0  0  0  0  0  0  0  0  0  0  0
    0.1815    1.1924    0.0000 N   0  0  0  0  0  0  0  0  0  0  0  0
  3  1  1  0
  5  3  1  0
  6  4  1  0
  7  2  1  0
  7  4  1  0
  8  7  2  0
  9  5  1  0
  9  6  1  0
  9  8  1  0
M  END
>  <NAME>  (6953) 
3-METHYL-1-PROPYL-2-PYRAZOLINE

>  <SYNONYMS>  (6953) 


>  <SPECTRUM TYPE>  (6953) 
MS1

>  <INSTRUMENT TYPE>  (6953) 
EI-B

>  <INSTRUMENT>  (6953) 
SHIMADZU LKB-2091

>  <ION MODE>  (6953) 
P

>  <INCHIKEY>  (6953) 
XXCCMDLLIVHSJT-UHFFFAOYSA-N

>  <FORMULA>  (6953) 
C7H14N2

>  <EXACT MASS>  (6953) 
126.11569844799999

>  <MW>  (6953) 
126

>  <ID>  (6953) 
JP000905

>  <CONTRIBUTOR>  (6953) 
University of Tokyo Team, {Faculty of Engineering, University of Tokyo

>  <COMMENT>  (6953) 
SMILES=CCCN(C1)N=C(C)C1
InChI=InChI=1S/C7H14N2/c1-3-5-9-6-4-7(2)8-9/h3-6H2,1-2H3
computed SMILES=N1=C(C)CCN1CCC
accession=JP000905
date=2016.01.19 (Created 2008.10.21, modified 2011.05.06)
author=SASAKI S, TOYOHASHI UNIV. OF TECH.
license=CC BY-NC-SA
exact mass=126.1157
ionization energy=70 eV
ion type=[M]+*
computed spectral entropy=2.11257208236607
computed normalized entropy=0.615195094380908
SPLASH=splash10-0002-9100000000-b8e38d463b5001cc6714
submitter=submitter = University of Tokyo Team (Faculty of Engineering, University of Tokyo)
MoNA Rating=3.75

>  <NUM PEAKS>  (6953) 
31

>  <MASS SPECTRAL PEAKS>  (6953) 
26 1.3
27 9.3
28 3.5
29 0.38
30 1.8
39 4
41 8.8
42 3.33
43 2.7
52 0.5
53 0.9
54 0.27
55 2.2
56 7
57 0.7
58 0.04
68 3.3
69 20
70 1.3
81 0.05
82 0.7
83 5
84 0.9
95 0.17
96 1.5
97 99.99
98 7.3
124 0.05
125 1.3
126 21.5
127 1.8

$$$$

     RDKit          2D

  9  9  0  0  0  0  0  0  0  0999 V2000
   -3.0661    0.8174    0.0000 C   0  0  0  0  0  0  0  0  0  0  0  0
   -1.7670    3.0674    0.0000 C   0  0  0  0  0  0  0  0  0  0  0  0
    3.3992    0.4694    0.0000 C   0  0  0  0  0  0  0  0  0  0  0  0
    1.1575   -0.9871    0.0000 C   0  0  0  0  0  0  0  0  0  0  0  0
   -0.3022   -0.6754    0.0000 C   0  0  0  0  0  0  0  0  0  0  0  0
   -1.7670    1.5674    0.0000 C   0  0  0  0  0  0  0  0  0  0  0  0
    1.9075    0.3120    0.0000 C   0  0  0  0  0  0  0  0  0  0  0  0
    0.9078    1.4203    0.0000 N   0  0  0  0  0  0  0  0  0  0  0  0
   -0.4680    0.8174    0.0000 N   0  0  0  0  0  0  0  0  0  0  0  0
  5  4  1  0
  6  1  1  0
  6  2  1  0
  7  3  1  0
  7  4  1  0
  8  7  2  0
  9  5  1  0
  9  6  1  0
  9  8  1  0
M  END
>  <NAME>  (6954) 
1-ISOPROPYL-3-METHYL-2-PYRAZOLINE

>  <SYNONYMS>  (6954) 


>  <SPECTRUM TYPE>  (6954) 
MS1

>  <INSTRUMENT TYPE>  (6954) 
EI-B

>  <INSTRUMENT>  (6954) 
SHIMADZU LKB-2091

>  <ION MODE>  (6954) 
P

>  <INCHIKEY>  (6954) 
CKWZASMUQGBSSE-UHFFFAOYSA-N

>  <FORMULA>  (6954) 
C7H14N2

>  <EXACT MASS>  (6954) 
126.11569844799999

>  <MW>  (6954) 
126

>  <ID>  (6954) 
JP000904

>  <CONTRIBUTOR>  (6954) 
University of Tokyo Team, {Faculty of Engineering, University of Tokyo

>  <COMMENT>  (6954) 
SMILES=CC(C)N(C1)N=C(C)C1
InChI=InChI=1S/C7H14N2/c1-6(2)9-5-4-7(3)8-9/h6H,4-5H2,1-3H3
computed SMILES=N1=C(C)CCN1C(C)C
accession=JP000904
date=2016.01.19 (Created 2008.10.21, modified 2011.05.06)
author=SASAKI S, TOYOHASHI UNIV. OF TECH.
license=CC BY-NC-SA
exact mass=126.1157
ionization energy=70 eV
ion type=[M]+*
computed spectral entropy=2.3046778072584355
computed normalized entropy=0.6649894486757191
SPLASH=splash10-03di-6900000000-9c071a21da0f81ab40a2
submitter=submitter = University of Tokyo Team (Faculty of Engineering, University of Tokyo)
MoNA Rating=3.75

>  <NUM PEAKS>  (6954) 
32

>  <MASS SPECTRAL PEAKS>  (6954) 
26 1.5
27 6.4
28 11.9
29 0.43
30 2.4
39 5.5
40 1.9
41 1.07
42 33.3
43 6.7
44 2.4
45 0.13
53 1.2
54 3.6
55 3.1
56 1.53
57 1.6
58 1.4
68 3.1
69 0.33
70 3.6
71 1.4
82 1.6
83 2.38
84 4.5
100 1.4
109 1.1
111 99.99
112 8.6
125 2.2
126 23.8
127 2.4

$$$$

     RDKit          2D

  9  9  0  0  0  0  0  0  0  0999 V2000
    3.1044    0.5479    0.0000 C   0  0  0  0  0  0  0  0  0  0  0  0
   -2.6880   -2.2503    0.0000 C   0  0  0  0  0  0  0  0  0  0  0  0
    1.8478   -1.1377    0.0000 C   0  0  0  0  0  0  0  0  0  0  0  0
    1.6370    0.8589    0.0000 C   0  0  0  0  0  0  0  0  0  0  0  0
   -0.1160   -1.5554    0.0000 C   0  0  0  0  0  0  0  0  0  0  0  0
   -1.5758   -1.2438    0.0000 C   0  0  0  0  0  0  0  0  0  0  0  0
    0.6340   -0.2564    0.0000 C   0  0  0  0  0  0  0  0  0  0  0  0
   -1.7415    0.2491    0.0000 N   0  0  0  0  0  0  0  0  0  0  0  0
   -0.3658    0.8520    0.0000 N   0  0  0  0  0  0  0  0  0  0  0  0
  4  1  1  0
  6  2  1  0
  6  5  1  0
  7  3  1  0
  7  4  1  0
  7  5  1  0
  8  6  2  0
  9  7  1  0
  9  8  1  0
M  END
>  <NAME>  (6955) 
5-ETHYL-3,5-DIMETHYL-2-PYRAZOLINE

>  <SYNONYMS>  (6955) 


>  <SPECTRUM TYPE>  (6955) 
MS1

>  <INSTRUMENT TYPE>  (6955) 
EI-B

>  <INSTRUMENT>  (6955) 
SHIMADZU LKB-2091

>  <ION MODE>  (6955) 
P

>  <INCHIKEY>  (6955) 
DKISPJYYXPWNTG-UHFFFAOYSA-N

>  <FORMULA>  (6955) 
C7H14N2

>  <EXACT MASS>  (6955) 
126.11569844799999

>  <MW>  (6955) 
126

>  <ID>  (6955) 
JP000903

>  <CONTRIBUTOR>  (6955) 
University of Tokyo Team, {Faculty of Engineering, University of Tokyo

>  <COMMENT>  (6955) 
SMILES=CCC(C)(N1)CC(C)=N1
InChI=InChI=1S/C7H14N2/c1-4-7(3)5-6(2)8-9-7/h9H,4-5H2,1-3H3
computed SMILES=N=1NC(C)(CC1C)CC
accession=JP000903
date=2016.01.19 (Created 2008.10.21, modified 2011.05.06)
author=SASAKI S, TOYOHASHI UNIV. OF TECH.
license=CC BY-NC-SA
exact mass=126.1157
ionization energy=70 eV
ion type=[M]+*
computed spectral entropy=2.644898133452418
computed normalized entropy=0.7076329380516951
SPLASH=splash10-0002-9100000000-ccf60ad9b398575505ff
submitter=submitter = University of Tokyo Team (Faculty of Engineering, University of Tokyo)
MoNA Rating=3.75

>  <NUM PEAKS>  (6955) 
42

>  <MASS SPECTRAL PEAKS>  (6955) 
26 2.1
27 14.2
28 21.4
29 1.29
30 6.9
31 1
39 12
40 0.28
41 15.7
42 21.4
43 5
44 0.11
51 1.4
52 0.9
53 3.6
54 0.36
55 4.6
56 30
57 7
65 0.09
66 0.6
67 2
68 1.1
69 0.09
70 4.2
71 0.8
79 0.5
80 0.05
81 1.6
82 1.7
83 11.3
84 0.21
95 2.4
96 2.6
97 99.99
98 0.72
99 1.1
109 0.7
111 12.9
112 0.25
126 14.3
127 3.5

$$$$

     RDKit          2D

  9  9  0  0  0  0  0  0  0  0999 V2000
   -3.7499   -0.1565    0.0000 C   0  0  0  0  0  0  0  0  0  0  0  0
   -1.6322   -2.2431    0.0000 C   0  0  0  0  0  0  0  0  0  0  0  0
    0.0000    2.7800    0.0000 C   0  0  0  0  0  0  0  0  0  0  0  0
   -2.6377    0.8500    0.0000 C   0  0  0  0  0  0  0  0  0  0  0  0
    0.7500   -1.0300    0.0000 C   0  0  0  0  0  0  0  0  0  0  0  0
   -0.7500   -1.0300    0.0000 C   0  0  0  0  0  0  0  0  0  0  0  0
   -1.2100    0.3900    0.0000 C   0  0  0  0  0  0  0  0  0  0  0  0
    1.2100    0.3900    0.0000 N   0  0  0  0  0  0  0  0  0  0  0  0
    0.0000    1.2800    0.0000 N   0  0  0  0  0  0  0  0  0  0  0  0
  4  1  1  0
  6  2  1  0
  6  5  1  0
  7  4  1  0
  7  6  1  0
  8  5  2  0
  9  3  1  0
  9  7  1  0
  9  8  1  0
M  END
>  <NAME>  (6956) 
5-ETHYL-1,4-DIMETHYL-2-PYRAZOLINE

>  <SYNONYMS>  (6956) 


>  <SPECTRUM TYPE>  (6956) 
MS1

>  <INSTRUMENT TYPE>  (6956) 
EI-B

>  <INSTRUMENT>  (6956) 
SHIMADZU LKB-2091

>  <ION MODE>  (6956) 
P

>  <INCHIKEY>  (6956) 
LSAFIEKJCBNDJB-UHFFFAOYSA-N

>  <FORMULA>  (6956) 
C7H14N2

>  <EXACT MASS>  (6956) 
126.11569844799999

>  <MW>  (6956) 
126

>  <ID>  (6956) 
JP000902

>  <CONTRIBUTOR>  (6956) 
University of Tokyo Team, {Faculty of Engineering, University of Tokyo

>  <COMMENT>  (6956) 
SMILES=CCC(C(C)1)N(C)N=C1
InChI=InChI=1S/C7H14N2/c1-4-7-6(2)5-8-9(7)3/h5-7H,4H2,1-3H3
computed SMILES=N1=CC(C)C(N1C)CC
accession=JP000902
date=2016.01.19 (Created 2008.10.21, modified 2011.05.06)
author=SASAKI S, TOYOHASHI UNIV. OF TECH.
license=CC BY-NC-SA
exact mass=126.1157
ionization energy=70 eV
ion type=[M]+*
computed spectral entropy=2.006375783503284
computed normalized entropy=0.5556414828699451
SPLASH=splash10-0002-9000000000-79f9e4a0011fcce73a10
submitter=submitter = University of Tokyo Team (Faculty of Engineering, University of Tokyo)
MoNA Rating=3.75

>  <NUM PEAKS>  (6956) 
37

>  <MASS SPECTRAL PEAKS>  (6956) 
26 0.6
27 4.5
28 11.4
29 0.39
30 3.6
38 0.4
39 4.5
40 0.04
41 6.1
42 15.2
43 2.8
44 0.05
51 0.4
52 0.4
53 1.4
54 0.15
55 2.2
56 18.1
57 1.3
67 0.06
68 1.8
69 0.7
70 3.9
71 0.05
80 0.4
81 1
82 1.8
83 0.18
95 2
96 0.8
97 99.99
98 0.63
109 0.5
111 0.8
125 0.5
126 1.36
127 1.3

$$$$

     RDKit          2D

  9  9  0  0  0  0  0  0  0  0999 V2000
    2.6377   -2.2431    0.0000 C   0  0  0  0  0  0  0  0  0  0  0  0
    1.3167    2.3164    0.0000 C   0  0  0  0  0  0  0  0  0  0  0  0
   -2.9533   -0.7767    0.0000 C   0  0  0  0  0  0  0  0  0  0  0  0
    2.3222   -0.7767    0.0000 C   0  0  0  0  0  0  0  0  0  0  0  0
   -1.0655    1.1033    0.0000 C   0  0  0  0  0  0  0  0  0  0  0  0
    0.4345    1.1033    0.0000 C   0  0  0  0  0  0  0  0  0  0  0  0
    0.8945   -0.3167    0.0000 C   0  0  0  0  0  0  0  0  0  0  0  0
   -0.3155   -1.2067    0.0000 N   0  0  0  0  0  0  0  0  0  0  0  0
   -1.5255   -0.3167    0.0000 N   0  0  0  0  0  0  0  0  0  0  0  0
  4  1  1  0
  6  2  1  0
  6  5  1  0
  7  4  1  0
  7  6  1  0
  8  7  2  0
  9  3  1  0
  9  5  1  0
  9  8  1  0
M  END
>  <NAME>  (6957) 
3-ETHYL-1,4-DIMETHYL-2-PYRAZOLINE

>  <SYNONYMS>  (6957) 


>  <SPECTRUM TYPE>  (6957) 
MS1

>  <INSTRUMENT TYPE>  (6957) 
EI-B

>  <INSTRUMENT>  (6957) 
SHIMADZU LKB-2091

>  <ION MODE>  (6957) 
P

>  <INCHIKEY>  (6957) 
VEXJHDVLCQKJJU-UHFFFAOYSA-N

>  <FORMULA>  (6957) 
C7H14N2

>  <EXACT MASS>  (6957) 
126.115698448

>  <MW>  (6957) 
126

>  <ID>  (6957) 
JP000901

>  <CONTRIBUTOR>  (6957) 
University of Tokyo Team, {Faculty of Engineering, University of Tokyo

>  <COMMENT>  (6957) 
SMILES=CCC(=N1)C(C)CN(C)1
InChI=InChI=1S/C7H14N2/c1-4-7-6(2)5-9(3)8-7/h6H,4-5H2,1-3H3
computed SMILES=N1=C(CC)C(C)CN1C
accession=JP000901
date=2016.01.19 (Created 2008.10.21, modified 2011.05.06)
author=SASAKI S, TOYOHASHI UNIV. OF TECH.
license=CC BY-NC-SA
exact mass=126.1157
ionization energy=70 eV
ion type=[M]+*
computed spectral entropy=2.7058075674430264
computed normalized entropy=0.7493406476974165
SPLASH=splash10-03dl-9600000000-f8e254bac35dbdd4c20e
submitter=submitter = University of Tokyo Team (Faculty of Engineering, University of Tokyo)
MoNA Rating=3.75

>  <NUM PEAKS>  (6957) 
37

>  <MASS SPECTRAL PEAKS>  (6957) 
26 1.7
27 10.4
28 16.1
29 0.88
30 4.4
39 9.4
40 2.1
41 1.66
42 30.1
43 20.3
44 5.2
51 0.09
52 1.2
53 2.4
54 6.2
55 1.4
56 17.1
57 1.7
67 2.1
68 0.78
69 3
70 2.6
81 1.4
82 0.44
83 30.6
84 6
95 3.2
96 0.35
97 11.9
98 1
109 2.5
110 0.16
111 99.99
112 7.3
125 20.8
126 5.19
127 4.7

$$$$

     RDKit          2D

  8  8  0  0  0  0  0  0  0  0999 V2000
   -1.4605    2.3426    0.0000 C   0  0  0  0  0  0  0  0  0  0  0  0
   -0.3483    1.3361    0.0000 C   0  0  0  0  0  0  0  0  0  0  0  0
    4.4015   -0.1978    0.0000 C   0  0  0  0  0  0  0  0  0  0  0  0
    3.4017   -1.3062    0.0000 C   0  0  0  0  0  0  0  0  0  0  0  0
    1.0795    1.7961    0.0000 C   0  0  0  0  0  0  0  0  0  0  0  0
    3.6515    1.1012    0.0000 C   0  0  0  0  0  0  0  0  0  0  0  0
    2.0259   -0.7033    0.0000 N   0  0  0  0  0  0  0  0  0  0  0  0
    2.1917    0.7896    0.0000 N   0  0  0  0  0  0  0  0  0  0  0  0
  2  1  2  0
  4  3  1  0
  5  2  1  0
  6  3  1  0
  7  4  2  0
  8  5  1  0
  8  6  1  0
  8  7  1  0
M  END
>  <NAME>  (6958) 
1-ALLYL-2-PYRAZOLINE

>  <SYNONYMS>  (6958) 


>  <SPECTRUM TYPE>  (6958) 
MS1

>  <INSTRUMENT TYPE>  (6958) 
EI-B

>  <INSTRUMENT>  (6958) 
SHIMADZU LKB-2091

>  <ION MODE>  (6958) 
P

>  <INCHIKEY>  (6958) 
ZWAMZBCFMBMWPU-UHFFFAOYSA-N

>  <FORMULA>  (6958) 
C6H10N2

>  <EXACT MASS>  (6958) 
110.08439831999999

>  <MW>  (6958) 
110

>  <ID>  (6958) 
JP000900

>  <CONTRIBUTOR>  (6958) 
University of Tokyo Team, {Faculty of Engineering, University of Tokyo

>  <COMMENT>  (6958) 
SMILES=C=CCN(C1)N=C([H])C1
InChI=InChI=1S/C6H10N2/c1-2-5-8-6-3-4-7-8/h2,4H,1,3,5-6H2
computed SMILES=N1=CCCN1CC=C
accession=JP000900
date=2016.01.19 (Created 2008.10.21, modified 2011.05.06)
author=SASAKI S, TOYOHASHI UNIV. OF TECH.
license=CC BY-NC-SA
exact mass=110.0844
ionization energy=70 eV
ion type=[M]+*
computed spectral entropy=2.385415931190142
computed normalized entropy=0.7321501690796167
SPLASH=splash10-001l-9100000000-79fcd27bc25999ec3f70
submitter=submitter = University of Tokyo Team (Faculty of Engineering, University of Tokyo)
MoNA Rating=3.75

>  <NUM PEAKS>  (6958) 
26

>  <MASS SPECTRAL PEAKS>  (6958) 
29 3.2
30 3.6
38 2.7
39 2.57
40 4.9
41 50
42 26.6
43 0.43
44 3.3
52 1.9
53 1.6
54 1.58
55 19.1
56 8.3
57 7.5
67 0.67
68 10
69 20
70 1.8
81 1
82 9.2
83 99.99
84 4.2
109 1.75
110 41.5
111 3.3

$$$$

     RDKit          2D

  8  8  0  0  0  0  0  0  0  0999 V2000
   -1.8887   -2.1234    0.0000 C   0  0  0  0  0  0  0  0  0  0  0  0
   -0.3969   -1.9659    0.0000 C   0  0  0  0  0  0  0  0  0  0  0  0
    0.2126   -0.5953    0.0000 C   0  0  0  0  0  0  0  0  0  0  0  0
    2.4543    0.8612    0.0000 C   0  0  0  0  0  0  0  0  0  0  0  0
    3.9140    0.5495    0.0000 C   0  0  0  0  0  0  0  0  0  0  0  0
    1.7043   -0.4379    0.0000 C   0  0  0  0  0  0  0  0  0  0  0  0
    4.0798   -0.9434    0.0000 N   0  0  0  0  0  0  0  0  0  0  0  0
    2.7040   -1.5462    0.0000 N   0  0  0  0  0  0  0  0  0  0  0  0
  2  1  1  0
  3  2  1  0
  5  4  1  0
  6  3  1  0
  6  4  1  0
  7  5  2  0
  8  6  1  0
  8  7  1  0
M  END
>  <NAME>  (6959) 
5-PROPYL-2-PYRAZOLINE

>  <SYNONYMS>  (6959) 


>  <SPECTRUM TYPE>  (6959) 
MS1

>  <INSTRUMENT TYPE>  (6959) 
EI-B

>  <INSTRUMENT>  (6959) 
SHIMADZU LKB-2091

>  <ION MODE>  (6959) 
P

>  <INCHIKEY>  (6959) 
YJMMTFQSMKYWSB-UHFFFAOYSA-N

>  <FORMULA>  (6959) 
C6H12N2

>  <EXACT MASS>  (6959) 
112.10004838399999

>  <MW>  (6959) 
112

>  <ID>  (6959) 
JP000899

>  <CONTRIBUTOR>  (6959) 
University of Tokyo Team, {Faculty of Engineering, University of Tokyo

>  <COMMENT>  (6959) 
SMILES=CCCC(C1)NN=C1
InChI=InChI=1S/C6H12N2/c1-2-3-6-4-5-7-8-6/h5-6,8H,2-4H2,1H3
computed SMILES=N1=CCC(N1)CCC
accession=JP000899
date=2016.01.19 (Created 2008.10.21, modified 2011.05.06)
author=SASAKI S, TOYOHASHI UNIV. OF TECH.
license=CC BY-NC-SA
exact mass=112.10005
ionization energy=70 eV
ion type=[M]+*
computed spectral entropy=1.2945623454976634
computed normalized entropy=0.43966349945012245
SPLASH=splash10-014i-9000000000-b8b5faace7e3b380e8a8
submitter=submitter = University of Tokyo Team (Faculty of Engineering, University of Tokyo)
MoNA Rating=3.75

>  <NUM PEAKS>  (6959) 
19

>  <MASS SPECTRAL PEAKS>  (6959) 
26 0.7
27 5.2
28 3.2
29 0.17
30 0.7
39 3.6
41 5
42 2.16
43 3.2
53 0.6
54 0.6
55 0.07
56 0.9
68 3.2
69 99.99
70 0.41
83 0.7
112 9.2
113 0.8

$$$$

     RDKit          2D

  8  8  0  0  0  0  0  0  0  0999 V2000
   -3.3855   -1.3124    0.0000 C   0  0  0  0  0  0  0  0  0  0  0  0
    2.6630    0.9987    0.0000 C   0  0  0  0  0  0  0  0  0  0  0  0
   -2.5033   -0.0993    0.0000 C   0  0  0  0  0  0  0  0  0  0  0  0
   -0.2615   -1.5558    0.0000 C   0  0  0  0  0  0  0  0  0  0  0  0
   -0.0118    0.8516    0.0000 C   0  0  0  0  0  0  0  0  0  0  0  0
   -1.0115   -0.2567    0.0000 C   0  0  0  0  0  0  0  0  0  0  0  0
    1.1982   -1.2441    0.0000 N   0  0  0  0  0  0  0  0  0  0  0  0
    1.3640    0.2487    0.0000 N   0  0  0  0  0  0  0  0  0  0  0  0
  3  1  1  0
  6  3  1  0
  6  4  1  0
  6  5  1  0
  7  4  2  0
  8  2  1  0
  8  5  1  0
  8  7  1  0
M  END
>  <NAME>  (6960) 
4-ETHYL-1-METHYL-2-PYRAZOLINE

>  <SYNONYMS>  (6960) 


>  <SPECTRUM TYPE>  (6960) 
MS1

>  <INSTRUMENT TYPE>  (6960) 
EI-B

>  <INSTRUMENT>  (6960) 
SHIMADZU LKB-2091

>  <ION MODE>  (6960) 
P

>  <INCHIKEY>  (6960) 
DHEAFGCWGYSLFH-UHFFFAOYSA-N

>  <FORMULA>  (6960) 
C6H12N2

>  <EXACT MASS>  (6960) 
112.10004838399999

>  <MW>  (6960) 
112

>  <ID>  (6960) 
JP000898

>  <CONTRIBUTOR>  (6960) 
University of Tokyo Team, {Faculty of Engineering, University of Tokyo

>  <COMMENT>  (6960) 
SMILES=CCC(C=1)CN(C)N1
InChI=InChI=1S/C6H12N2/c1-3-6-4-7-8(2)5-6/h4,6H,3,5H2,1-2H3
computed SMILES=N1=CC(CN1C)CC
accession=JP000898
date=2016.01.19 (Created 2008.10.21, modified 2011.05.06)
author=SASAKI S, TOYOHASHI UNIV. OF TECH.
license=CC BY-NC-SA
exact mass=112.10005
ionization energy=70 eV
ion type=[M]+*
computed spectral entropy=2.2352265530275073
computed normalized entropy=0.6338621753006403
SPLASH=splash10-001l-9100000000-976c2d676558d9b240f2
submitter=submitter = University of Tokyo Team (Faculty of Engineering, University of Tokyo)
MoNA Rating=3.75

>  <NUM PEAKS>  (6960) 
34

>  <MASS SPECTRAL PEAKS>  (6960) 
26 1.3
27 8
28 17.8
29 0.56
30 2.6
38 1
39 7.2
40 0.24
41 9.3
42 47
43 10.3
44 0.34
51 0.6
52 0.8
53 1.2
54 0.24
55 2.5
56 21.5
57 1.6
66 0.08
67 0.7
68 2.4
69 1.1
70 0.09
81 1.6
82 2.1
83 99.99
84 0.58
95 1.3
96 0.6
97 1.2
111 0.34
112 28.6
113 2.6

$$$$

     RDKit          2D

  8  8  0  0  0  0  0  0  0  0999 V2000
   -2.6377    0.8500    0.0000 C   0  0  0  0  0  0  0  0  0  0  0  0
    0.5936   -2.5218    0.0000 C   0  0  0  0  0  0  0  0  0  0  0  0
    2.2174   -1.3410    0.0000 C   0  0  0  0  0  0  0  0  0  0  0  0
   -0.7500   -1.0300    0.0000 C   0  0  0  0  0  0  0  0  0  0  0  0
   -1.2100    0.3900    0.0000 C   0  0  0  0  0  0  0  0  0  0  0  0
    0.7500   -1.0300    0.0000 C   0  0  0  0  0  0  0  0  0  0  0  0
    0.0000    1.2800    0.0000 N   0  0  0  0  0  0  0  0  0  0  0  0
    1.2100    0.3900    0.0000 N   0  0  0  0  0  0  0  0  0  0  0  0
  5  1  1  0
  5  4  1  0
  6  2  1  0
  6  3  1  0
  6  4  1  0
  7  5  2  0
  8  6  1  0
  8  7  1  0
M  END
>  <NAME>  (6961) 
3,5,5-TRIMETHYL-2-PYRAZOLINE

>  <SYNONYMS>  (6961) 


>  <SPECTRUM TYPE>  (6961) 
MS1

>  <INSTRUMENT TYPE>  (6961) 
EI-B

>  <INSTRUMENT>  (6961) 
SHIMADZU LKB-2091

>  <ION MODE>  (6961) 
P

>  <INCHIKEY>  (6961) 
MEVTUZFUVAZEPY-UHFFFAOYSA-N

>  <FORMULA>  (6961) 
C6H12N2

>  <EXACT MASS>  (6961) 
112.10004838399999

>  <MW>  (6961) 
112

>  <ID>  (6961) 
JP000897

>  <CONTRIBUTOR>  (6961) 
University of Tokyo Team, {Faculty of Engineering, University of Tokyo

>  <COMMENT>  (6961) 
SMILES=CC(=N1)CC(C)(C)N1
InChI=InChI=1S/C6H12N2/c1-5-4-6(2,3)8-7-5/h8H,4H2,1-3H3
computed SMILES=N=1NC(C)(C)CC1C
accession=JP000897
date=2016.01.19 (Created 2008.10.21, modified 2011.05.06)
author=SASAKI S, TOYOHASHI UNIV. OF TECH.
license=CC BY-NC-SA
exact mass=112.10005
ionization energy=70 eV
ion type=[M]+*
computed spectral entropy=2.2648312551315297
computed normalized entropy=0.6422574320809279
SPLASH=splash10-0002-9000000000-553364374fb26393499b
submitter=submitter = University of Tokyo Team (Faculty of Engineering, University of Tokyo)
MoNA Rating=3.75

>  <NUM PEAKS>  (6961) 
34

>  <MASS SPECTRAL PEAKS>  (6961) 
26 1.5
27 8.2
28 15.7
29 0.62
30 5.1
38 0.9
39 10.3
40 0.22
41 11.5
42 14
43 3.1
44 0.04
51 1
52 0.6
53 2.4
54 0.31
55 3.1
56 41.9
57 3.5
58 0.06
67 1.4
68 0.7
69 0.5
70 0.4
80 0.6
81 1.1
83 1.9
95 0.17
96 1.3
97 99.99
98 6.2
111 0.05
112 23.5
113 2.4

$$$$

     RDKit          2D

  8  8  0  0  0  0  0  0  0  0999 V2000
   -1.4636    1.3774    0.0000 C   0  0  0  0  0  0  0  0  0  0  0  0
    1.7179    0.7016    0.0000 C   0  0  0  0  0  0  0  0  0  0  0  0
   -3.0958   -1.4497    0.0000 C   0  0  0  0  0  0  0  0  0  0  0  0
   -0.8541    0.0068    0.0000 C   0  0  0  0  0  0  0  0  0  0  0  0
    0.6057   -0.3049    0.0000 C   0  0  0  0  0  0  0  0  0  0  0  0
   -1.6041   -1.2923    0.0000 C   0  0  0  0  0  0  0  0  0  0  0  0
    0.7714   -1.7978    0.0000 N   0  0  0  0  0  0  0  0  0  0  0  0
   -0.6043   -2.4006    0.0000 N   0  0  0  0  0  0  0  0  0  0  0  0
  4  1  1  0
  5  2  1  0
  5  4  1  0
  6  3  1  0
  6  4  1  0
  7  5  1  0
  8  6  2  0
  8  7  1  0
M  END
>  <NAME>  (6962) 
3,4,5-TRIMETHYL-2-PYRAZOLINE

>  <SYNONYMS>  (6962) 


>  <SPECTRUM TYPE>  (6962) 
MS1

>  <INSTRUMENT TYPE>  (6962) 
EI-B

>  <INSTRUMENT>  (6962) 
SHIMADZU LKB-2091

>  <ION MODE>  (6962) 
P

>  <INCHIKEY>  (6962) 
NBUOBRBXCTZHFM-UHFFFAOYSA-N

>  <FORMULA>  (6962) 
C6H12N2

>  <EXACT MASS>  (6962) 
112.10004838399999

>  <MW>  (6962) 
112

>  <ID>  (6962) 
JP000896

>  <CONTRIBUTOR>  (6962) 
University of Tokyo Team, {Faculty of Engineering, University of Tokyo

>  <COMMENT>  (6962) 
SMILES=CC(N1)C(C)C(C)=N1
InChI=InChI=1S/C6H12N2/c1-4-5(2)7-8-6(4)3/h4-5,7H,1-3H3
computed SMILES=N=1NC(C)C(C1C)C
accession=JP000896
date=2016.01.19 (Created 2008.10.21, modified 2011.05.06)
author=SASAKI S, TOYOHASHI UNIV. OF TECH.
license=CC BY-NC-SA
exact mass=112.10005
ionization energy=70 eV
ion type=[M]+*
computed spectral entropy=2.4652984608766992
computed normalized entropy=0.7248325175623636
SPLASH=splash10-0002-9100000000-c6719480b41777ca674e
submitter=submitter = University of Tokyo Team (Faculty of Engineering, University of Tokyo)
MoNA Rating=3.75

>  <NUM PEAKS>  (6962) 
30

>  <MASS SPECTRAL PEAKS>  (6962) 
26 2.4
27 13
28 17
29 0.8
30 5.2
39 8
41 12.5
42 3.15
43 5.9
44 3.1
53 2.9
54 0.37
55 4.8
56 24
57 2.1
67 0.14
68 11
69 17
70 6.2
81 0.14
82 2.2
83 1.8
95 1.9
96 0.19
97 99.99
98 5.6
109 0.8
111 0.48
112 30
113 2.4

$$$$

     RDKit          2D

  8  8  0  0  0  0  0  0  0  0999 V2000
   -1.6322   -2.2431    0.0000 C   0  0  0  0  0  0  0  0  0  0  0  0
   -2.6377    0.8500    0.0000 C   0  0  0  0  0  0  0  0  0  0  0  0
    0.0000    2.7800    0.0000 C   0  0  0  0  0  0  0  0  0  0  0  0
    0.7500   -1.0300    0.0000 C   0  0  0  0  0  0  0  0  0  0  0  0
   -0.7500   -1.0300    0.0000 C   0  0  0  0  0  0  0  0  0  0  0  0
   -1.2100    0.3900    0.0000 C   0  0  0  0  0  0  0  0  0  0  0  0
    1.2100    0.3900    0.0000 N   0  0  0  0  0  0  0  0  0  0  0  0
    0.0000    1.2800    0.0000 N   0  0  0  0  0  0  0  0  0  0  0  0
  5  1  1  0
  5  4  1  0
  6  2  1  0
  6  5  1  0
  7  4  2  0
  8  3  1  0
  8  6  1  0
  8  7  1  0
M  END
>  <NAME>  (6963) 
1,4,5-TRIMETHYL-2-PYRAZOLINE

>  <SYNONYMS>  (6963) 


>  <SPECTRUM TYPE>  (6963) 
MS1

>  <INSTRUMENT TYPE>  (6963) 
EI-B

>  <INSTRUMENT>  (6963) 
SHIMADZU LKB-2091

>  <ION MODE>  (6963) 
P

>  <INCHIKEY>  (6963) 
QZXPNIFNBFPOML-UHFFFAOYSA-N

>  <FORMULA>  (6963) 
C6H12N2

>  <EXACT MASS>  (6963) 
112.10004838399999

>  <MW>  (6963) 
112

>  <ID>  (6963) 
JP000895

>  <CONTRIBUTOR>  (6963) 
University of Tokyo Team, {Faculty of Engineering, University of Tokyo

>  <COMMENT>  (6963) 
SMILES=[H]C(=N1)C(C)C(C)N(C)1
InChI=InChI=1S/C6H12N2/c1-5-4-7-8(3)6(5)2/h4-6H,1-3H3
computed SMILES=N1=CC(C)C(N1C)C
accession=JP000895
date=2016.01.19 (Created 2008.10.21, modified 2011.05.06)
author=SASAKI S, TOYOHASHI UNIV. OF TECH.
license=CC BY-NC-SA
exact mass=112.10005
ionization energy=70 eV
ion type=[M]+*
computed spectral entropy=2.410376130663462
computed normalized entropy=0.6779578508141064
SPLASH=splash10-052b-9000000000-b37a27c1dacffafdae4b
submitter=submitter = University of Tokyo Team (Faculty of Engineering, University of Tokyo)
MoNA Rating=3.75

>  <NUM PEAKS>  (6963) 
35

>  <MASS SPECTRAL PEAKS>  (6963) 
26 2.1
27 10.4
28 25
29 0.75
30 9.6
38 0.8
39 8.3
40 0.17
41 15
42 25.4
43 6.7
44 0.12
51 1
52 1
53 3.1
54 0.33
55 4.6
56 50
57 5
58 0.14
67 0.8
68 1.9
69 1.9
70 0.5
80 0.5
81 1.2
82 2.4
83 0.08
95 2.2
96 0.9
97 99.99
98 0.62
111 4.2
112 25
113 2

$$$$

     RDKit          2D

  8  8  0  0  0  0  0  0  0  0999 V2000
   -1.6322   -2.2431    0.0000 C   0  0  0  0  0  0  0  0  0  0  0  0
   -2.6377    0.8500    0.0000 C   0  0  0  0  0  0  0  0  0  0  0  0
    2.6377    0.8500    0.0000 C   0  0  0  0  0  0  0  0  0  0  0  0
    0.7500   -1.0300    0.0000 C   0  0  0  0  0  0  0  0  0  0  0  0
   -0.7500   -1.0300    0.0000 C   0  0  0  0  0  0  0  0  0  0  0  0
   -1.2100    0.3900    0.0000 C   0  0  0  0  0  0  0  0  0  0  0  0
    0.0000    1.2800    0.0000 N   0  0  0  0  0  0  0  0  0  0  0  0
    1.2100    0.3900    0.0000 N   0  0  0  0  0  0  0  0  0  0  0  0
  5  1  1  0
  5  4  1  0
  6  2  1  0
  6  5  1  0
  7  6  2  0
  8  3  1  0
  8  4  1  0
  8  7  1  0
M  END
>  <NAME>  (6964) 
1,3,4-TRIMETHYL-2-PYRAZOLINE

>  <SYNONYMS>  (6964) 


>  <SPECTRUM TYPE>  (6964) 
MS1

>  <INSTRUMENT TYPE>  (6964) 
EI-B

>  <INSTRUMENT>  (6964) 
SHIMADZU LKB-2091

>  <ION MODE>  (6964) 
P

>  <INCHIKEY>  (6964) 
UWCOGVAFZZBWAT-UHFFFAOYSA-N

>  <FORMULA>  (6964) 
C6H12N2

>  <EXACT MASS>  (6964) 
112.10004838399999

>  <MW>  (6964) 
112

>  <ID>  (6964) 
JP000894

>  <CONTRIBUTOR>  (6964) 
University of Tokyo Team, {Faculty of Engineering, University of Tokyo

>  <COMMENT>  (6964) 
SMILES=CN(C1)N=C(C)C(C)1
InChI=InChI=1S/C6H12N2/c1-5-4-8(3)7-6(5)2/h5H,4H2,1-3H3
computed SMILES=N1=C(C)C(C)CN1C
accession=JP000894
date=2016.01.19 (Created 2008.10.21, modified 2011.05.06)
author=SASAKI S, TOYOHASHI UNIV. OF TECH.
license=CC BY-NC-SA
exact mass=112.10005
ionization energy=70 eV
ion type=[M]+*
computed spectral entropy=2.5166443846777606
computed normalized entropy=0.6969541943518891
SPLASH=splash10-0005-9100000000-a97ca73759cbb7b0601f
submitter=submitter = University of Tokyo Team (Faculty of Engineering, University of Tokyo)
MoNA Rating=3.75

>  <NUM PEAKS>  (6964) 
37

>  <MASS SPECTRAL PEAKS>  (6964) 
26 1.8
27 8.1
28 18.7
29 0.44
30 7.8
38 1
39 9.4
40 0.28
41 17.8
42 62.5
43 14.1
44 0.3
51 1
52 1
53 3.1
54 0.31
55 2.6
56 26
57 1.4
66 0.05
67 1.1
68 10.8
69 8.8
70 1.37
71 1
80 0.4
81 1
82 0.23
95 2.8
96 1.7
97 99.99
98 0.63
109 1.4
110 2.3
111 43.8
112 7.34
113 5.3

$$$$

     RDKit          2D

  7  7  0  0  0  0  0  0  0  0999 V2000
   -1.5157   -1.5562    0.0000 C   0  0  0  0  0  0  0  0  0  0  0  0
   -0.9062   -0.1856    0.0000 C   0  0  0  0  0  0  0  0  0  0  0  0
    1.3355    1.2709    0.0000 C   0  0  0  0  0  0  0  0  0  0  0  0
    2.7952    0.9593    0.0000 C   0  0  0  0  0  0  0  0  0  0  0  0
    0.5855   -0.0281    0.0000 C   0  0  0  0  0  0  0  0  0  0  0  0
    2.9610   -0.5336    0.0000 N   0  0  0  0  0  0  0  0  0  0  0  0
    1.5852   -1.1365    0.0000 N   0  0  0  0  0  0  0  0  0  0  0  0
  2  1  1  0
  4  3  1  0
  5  2  1  0
  5  3  1  0
  6  4  1  0
  7  5  2  0
  7  6  1  0
M  END
>  <NAME>  (6965) 
3-ETHYL-2-PYRAZOLINE

>  <SYNONYMS>  (6965) 


>  <SPECTRUM TYPE>  (6965) 
MS1

>  <INSTRUMENT TYPE>  (6965) 
EI-B

>  <INSTRUMENT>  (6965) 
SHIMADZU LKB-2091

>  <ION MODE>  (6965) 
P

>  <INCHIKEY>  (6965) 
WYAQEFBMDQTMID-UHFFFAOYSA-N

>  <FORMULA>  (6965) 
C5H10N2

>  <EXACT MASS>  (6965) 
98.08439831999999

>  <MW>  (6965) 
98

>  <ID>  (6965) 
JP000893

>  <CONTRIBUTOR>  (6965) 
University of Tokyo Team, {Faculty of Engineering, University of Tokyo

>  <COMMENT>  (6965) 
SMILES=CCC(C1)=NNC1
InChI=InChI=1S/C5H10N2/c1-2-5-3-4-6-7-5/h6H,2-4H2,1H3
computed SMILES=N=1NCCC1CC
accession=JP000893
date=2016.01.19 (Created 2008.10.21, modified 2011.05.06)
author=SASAKI S, TOYOHASHI UNIV. OF TECH.
license=CC BY-NC-SA
exact mass=98.0844
ionization energy=70 eV
ion type=[M]+*
computed spectral entropy=2.6837238554474085
computed normalized entropy=0.7743590194738771
SPLASH=splash10-0035-9000000000-1e8df536c8deec3eb447
submitter=submitter = University of Tokyo Team (Faculty of Engineering, University of Tokyo)
MoNA Rating=3.75

>  <NUM PEAKS>  (6965) 
32

>  <MASS SPECTRAL PEAKS>  (6965) 
26 4.1
27 23.1
28 38.5
29 2.02
30 9.6
38 2.6
39 17.3
40 0.38
41 50
42 41.3
43 8.6
44 0.21
51 1.9
52 2.1
53 5.7
54 1.06
55 12.5
56 7.7
57 3.3
67 0.23
68 5.4
69 34.6
70 12.5
81 0.35
82 3.2
83 99.99
84 5.3
95 0.36
96 2.2
97 36.5
98 70.2
99 4.4

$$$$

     RDKit          2D

  7  7  0  0  0  0  0  0  0  0999 V2000
    2.1949   -1.4935    0.0000 C   0  0  0  0  0  0  0  0  0  0  0  0
    1.9842    0.5032    0.0000 C   0  0  0  0  0  0  0  0  0  0  0  0
    0.2311   -1.9112    0.0000 C   0  0  0  0  0  0  0  0  0  0  0  0
   -1.2286   -1.5996    0.0000 C   0  0  0  0  0  0  0  0  0  0  0  0
    0.9811   -0.6122    0.0000 C   0  0  0  0  0  0  0  0  0  0  0  0
   -1.3944   -0.1067    0.0000 N   0  0  0  0  0  0  0  0  0  0  0  0
   -0.0186    0.4962    0.0000 N   0  0  0  0  0  0  0  0  0  0  0  0
  4  3  1  0
  5  1  1  0
  5  2  1  0
  5  3  1  0
  6  4  2  0
  7  5  1  0
  7  6  1  0
M  END
>  <NAME>  (6966) 
5,5-DIMETHYL-2-PYRAZOLINE

>  <SYNONYMS>  (6966) 


>  <SPECTRUM TYPE>  (6966) 
MS1

>  <INSTRUMENT TYPE>  (6966) 
EI-B

>  <INSTRUMENT>  (6966) 
SHIMADZU LKB-2091

>  <ION MODE>  (6966) 
P

>  <INCHIKEY>  (6966) 
FLYZAKYDSFYRRD-UHFFFAOYSA-N

>  <FORMULA>  (6966) 
C5H10N2

>  <EXACT MASS>  (6966) 
98.08439831999999

>  <MW>  (6966) 
98

>  <ID>  (6966) 
JP000892

>  <CONTRIBUTOR>  (6966) 
University of Tokyo Team, {Faculty of Engineering, University of Tokyo

>  <COMMENT>  (6966) 
SMILES=CC(C)(C1)NN=C1
InChI=InChI=1S/C5H10N2/c1-5(2)3-4-6-7-5/h4,7H,3H2,1-2H3
computed SMILES=N1=CCC(N1)(C)C
accession=JP000892
date=2016.01.19 (Created 2008.10.21, modified 2011.05.06)
author=SASAKI S, TOYOHASHI UNIV. OF TECH.
license=CC BY-NC-SA
exact mass=98.0844
ionization energy=70 eV
ion type=[M]+*
computed spectral entropy=2.257988459086489
computed normalized entropy=0.6638804531782323
SPLASH=splash10-001l-9000000000-ee3a443e49a2b7cc05b3
submitter=submitter = University of Tokyo Team (Faculty of Engineering, University of Tokyo)
MoNA Rating=3.75

>  <NUM PEAKS>  (6966) 
30

>  <MASS SPECTRAL PEAKS>  (6966) 
26 1.9
27 10
28 24.4
29 0.65
30 3.6
38 1.5
39 11
40 0.32
41 16.6
42 50
43 7.5
50 0.09
51 1.3
52 0.8
53 2.6
54 0.26
55 1.9
56 23.4
57 2.4
58 0.07
66 0.9
67 1
68 1.2
81 0.19
82 0.5
83 99.99
84 5.2
97 0.06
98 30.1
99 2.6

$$$$

     RDKit          2D

  7  7  0  0  0  0  0  0  0  0999 V2000
   -2.6986   -0.5670    0.0000 C   0  0  0  0  0  0  0  0  0  0  0  0
   -0.5227    1.8503    0.0000 C   0  0  0  0  0  0  0  0  0  0  0  0
   -0.4569   -2.0235    0.0000 C   0  0  0  0  0  0  0  0  0  0  0  0
   -1.2069   -0.7245    0.0000 C   0  0  0  0  0  0  0  0  0  0  0  0
   -0.2071    0.3839    0.0000 C   0  0  0  0  0  0  0  0  0  0  0  0
    1.0029   -1.7119    0.0000 N   0  0  0  0  0  0  0  0  0  0  0  0
    1.1686   -0.2190    0.0000 N   0  0  0  0  0  0  0  0  0  0  0  0
  4  1  1  0
  4  3  1  0
  5  2  1  0
  5  4  1  0
  6  3  2  0
  7  5  1  0
  7  6  1  0
M  END
>  <NAME>  (6967) 
4,5-DIMETHYL-2-PYRAZOLINE

>  <SYNONYMS>  (6967) 


>  <SPECTRUM TYPE>  (6967) 
MS1

>  <INSTRUMENT TYPE>  (6967) 
EI-B

>  <INSTRUMENT>  (6967) 
SHIMADZU LKB-2091

>  <ION MODE>  (6967) 
P

>  <INCHIKEY>  (6967) 
SOAGQMUXRXXXPM-UHFFFAOYSA-N

>  <FORMULA>  (6967) 
C5H10N2

>  <EXACT MASS>  (6967) 
98.08439831999999

>  <MW>  (6967) 
98

>  <ID>  (6967) 
JP000891

>  <CONTRIBUTOR>  (6967) 
University of Tokyo Team, {Faculty of Engineering, University of Tokyo

>  <COMMENT>  (6967) 
SMILES=CC(C=1)C(C)NN1
InChI=InChI=1S/C5H10N2/c1-4-3-6-7-5(4)2/h3-5,7H,1-2H3
computed SMILES=N1=CC(C)C(N1)C
accession=JP000891
date=2016.01.19 (Created 2008.10.21, modified 2011.05.06)
author=SASAKI S, TOYOHASHI UNIV. OF TECH.
license=CC BY-NC-SA
exact mass=98.0844
ionization energy=70 eV
ion type=[M]+*
computed spectral entropy=2.347215265737081
computed normalized entropy=0.6772631647555515
SPLASH=splash10-003u-9000000000-b3d0cad97ebacedfab08
submitter=submitter = University of Tokyo Team (Faculty of Engineering, University of Tokyo)
MoNA Rating=3.75

>  <NUM PEAKS>  (6967) 
32

>  <MASS SPECTRAL PEAKS>  (6967) 
26 3.2
27 12.1
28 44.1
29 0.78
30 3.5
38 1.2
39 8.8
40 0.15
41 14.4
42 44.1
43 8.8
44 1.15
51 1.2
52 1.2
53 2.4
54 0.5
55 2.6
56 26
57 1.7
66 0.06
67 0.7
68 1.4
69 4.1
70 0.22
81 1.7
82 0.9
83 99.99
84 0.52
95 0.4
97 5.6
98 47.1
99 2.9

$$$$

     RDKit          2D

  7  7  0  0  0  0  0  0  0  0999 V2000
   -1.2709   -0.3961    0.0000 C   0  0  0  0  0  0  0  0  0  0  0  0
    0.9051   -2.8135    0.0000 C   0  0  0  0  0  0  0  0  0  0  0  0
    0.9708    1.0604    0.0000 C   0  0  0  0  0  0  0  0  0  0  0  0
    2.4306    0.7488    0.0000 C   0  0  0  0  0  0  0  0  0  0  0  0
    0.2208   -0.2386    0.0000 C   0  0  0  0  0  0  0  0  0  0  0  0
    2.5964   -0.7441    0.0000 N   0  0  0  0  0  0  0  0  0  0  0  0
    1.2206   -1.3470    0.0000 N   0  0  0  0  0  0  0  0  0  0  0  0
  4  3  1  0
  5  1  1  0
  5  3  1  0
  6  4  2  0
  7  2  1  0
  7  5  1  0
  7  6  1  0
M  END
>  <NAME>  (6968) 
1,5-DIMETHYL-2-PYRAZOLINE

>  <SYNONYMS>  (6968) 


>  <SPECTRUM TYPE>  (6968) 
MS1

>  <INSTRUMENT TYPE>  (6968) 
EI-B

>  <INSTRUMENT>  (6968) 
SHIMADZU LKB-2091

>  <ION MODE>  (6968) 
P

>  <INCHIKEY>  (6968) 
YTDZUPBPWJAQDV-UHFFFAOYSA-N

>  <FORMULA>  (6968) 
C5H10N2

>  <EXACT MASS>  (6968) 
98.08439831999999

>  <MW>  (6968) 
98

>  <ID>  (6968) 
JP000890

>  <CONTRIBUTOR>  (6968) 
University of Tokyo Team, {Faculty of Engineering, University of Tokyo

>  <COMMENT>  (6968) 
SMILES=[H]C(C1)=NN(C)C(C)1
InChI=InChI=1S/C5H10N2/c1-5-3-4-6-7(5)2/h4-5H,3H2,1-2H3
computed SMILES=N1=CCC(N1C)C
accession=JP000890
date=2016.01.19 (Created 2008.10.21, modified 2011.05.06)
author=SASAKI S, TOYOHASHI UNIV. OF TECH.
license=CC BY-NC-SA
exact mass=98.0844
ionization energy=70 eV
ion type=[M]+*
computed spectral entropy=2.1829137120444826
computed normalized entropy=0.619027378739753
SPLASH=splash10-001l-9000000000-9b14009eafd0917baa36
submitter=submitter = University of Tokyo Team (Faculty of Engineering, University of Tokyo)
MoNA Rating=3.75

>  <NUM PEAKS>  (6968) 
34

>  <MASS SPECTRAL PEAKS>  (6968) 
26 2.9
27 14
28 13.5
29 0.88
30 5.7
37 0.7
38 1.8
39 0.92
40 3.1
41 8.2
42 72.5
43 0.59
44 0.6
45 0.9
50 0.7
51 0.11
52 1.3
53 2.2
54 3.5
55 0.61
56 47
57 2.5
65 0.8
67 0.2
68 0.6
69 0.6
81 1.4
82 0.1
83 99.99
84 5.2
95 0.5
97 0.39
98 35.3
99 2.2

$$$$

     RDKit          2D

  6  6  0  0  0  0  0  0  0  0999 V2000
   -2.0250   -0.8315    0.0000 C   0  0  0  0  0  0  0  0  0  0  0  0
    0.2167    0.6250    0.0000 C   0  0  0  0  0  0  0  0  0  0  0  0
    1.6765    0.3134    0.0000 C   0  0  0  0  0  0  0  0  0  0  0  0
   -0.5333   -0.6740    0.0000 C   0  0  0  0  0  0  0  0  0  0  0  0
    1.8422   -1.1795    0.0000 N   0  0  0  0  0  0  0  0  0  0  0  0
    0.4665   -1.7824    0.0000 N   0  0  0  0  0  0  0  0  0  0  0  0
  3  2  1  0
  4  1  1  0
  4  2  1  0
  5  3  2  0
  6  4  1  0
  6  5  1  0
M  END
>  <NAME>  (6969) 
5-METHYL-2-PYRAZOLINE

>  <SYNONYMS>  (6969) 


>  <SPECTRUM TYPE>  (6969) 
MS1

>  <INSTRUMENT TYPE>  (6969) 
EI-B

>  <INSTRUMENT>  (6969) 
SHIMADZU LKB-2091

>  <ION MODE>  (6969) 
P

>  <INCHIKEY>  (6969) 
KDTSAMBCRXSULF-UHFFFAOYSA-N

>  <FORMULA>  (6969) 
C4H8N2

>  <EXACT MASS>  (6969) 
84.06874825599999

>  <MW>  (6969) 
84

>  <ID>  (6969) 
JP000889

>  <CONTRIBUTOR>  (6969) 
University of Tokyo Team, {Faculty of Engineering, University of Tokyo

>  <COMMENT>  (6969) 
SMILES=CC(C1)NN=C1
InChI=InChI=1S/C4H8N2/c1-4-2-3-5-6-4/h3-4,6H,2H2,1H3
computed SMILES=N1=CCC(N1)C
accession=JP000889
date=2016.01.19 (Created 2008.10.21, modified 2011.05.06)
author=SASAKI S, TOYOHASHI UNIV. OF TECH.
license=CC BY-NC-SA
exact mass=84.06875
ionization energy=70 eV
ion type=[M]+*
computed spectral entropy=2.1143327041244877
computed normalized entropy=0.6568543861772178
SPLASH=splash10-014l-9000000000-294c5107dcb60f35fe1d
submitter=submitter = University of Tokyo Team (Faculty of Engineering, University of Tokyo)
MoNA Rating=3.75

>  <NUM PEAKS>  (6969) 
25

>  <MASS SPECTRAL PEAKS>  (6969) 
26 4.3
27 15.7
28 21.5
29 0.91
30 2.5
38 1.7
39 8.6
40 0.43
41 11
42 76.1
43 8.6
44 0.21
50 1.3
51 1.5
52 1.1
53 0.23
54 1.6
55 2.8
56 6.7
68 0.14
69 99.99
70 4.8
83 7.2
84 4.76
85 5.2

$$$$

     RDKit          2D

  6  6  0  0  0  0  0  0  0  0999 V2000
   -2.0250   -0.8315    0.0000 C   0  0  0  0  0  0  0  0  0  0  0  0
    0.2167    0.6250    0.0000 C   0  0  0  0  0  0  0  0  0  0  0  0
    1.6765    0.3134    0.0000 C   0  0  0  0  0  0  0  0  0  0  0  0
   -0.5333   -0.6740    0.0000 C   0  0  0  0  0  0  0  0  0  0  0  0
    1.8422   -1.1795    0.0000 N   0  0  0  0  0  0  0  0  0  0  0  0
    0.4665   -1.7824    0.0000 N   0  0  0  0  0  0  0  0  0  0  0  0
  3  2  1  0
  4  1  1  0
  4  2  1  0
  5  3  1  0
  6  4  2  0
  6  5  1  0
M  END
>  <NAME>  (6970) 
3-METHYL-2-PYRAZOLINE

>  <SYNONYMS>  (6970) 


>  <SPECTRUM TYPE>  (6970) 
MS1

>  <INSTRUMENT TYPE>  (6970) 
EI-B

>  <INSTRUMENT>  (6970) 
SHIMADZU LKB-2091

>  <ION MODE>  (6970) 
P

>  <INCHIKEY>  (6970) 
MWCHLFKQTXSQJV-UHFFFAOYSA-N

>  <FORMULA>  (6970) 
C4H8N2

>  <EXACT MASS>  (6970) 
84.06874825599999

>  <MW>  (6970) 
84

>  <ID>  (6970) 
JP000888

>  <CONTRIBUTOR>  (6970) 
University of Tokyo Team, {Faculty of Engineering, University of Tokyo

>  <COMMENT>  (6970) 
SMILES=CC(C1)=NNC1
InChI=InChI=1S/C4H8N2/c1-4-2-3-5-6-4/h5H,2-3H2,1H3
computed SMILES=N=1NCCC1C
accession=JP000888
date=2016.01.19 (Created 2008.10.21, modified 2011.05.06)
author=SASAKI S, TOYOHASHI UNIV. OF TECH.
license=CC BY-NC-SA
exact mass=84.06875
ionization energy=70 eV
ion type=[M]+*
computed spectral entropy=2.305321611772566
computed normalized entropy=0.7075670057255271
SPLASH=splash10-001i-9000000000-0e65ffa0c8d5d368a80b
submitter=submitter = University of Tokyo Team (Faculty of Engineering, University of Tokyo)
MoNA Rating=3.75

>  <NUM PEAKS>  (6970) 
26

>  <MASS SPECTRAL PEAKS>  (6970) 
26 6.8
27 21.9
28 28
29 1.37
30 3.3
38 1.7
39 9.6
40 0.38
41 10.6
42 45.1
43 5.5
50 0.17
51 2.2
52 1.6
53 0.4
54 1.98
55 17.8
56 45.8
57 2.2
69 0.62
70 0.5
81 2.5
82 2.9
83 99.99
84 84.2
85 5.1

$$$$

     RDKit          2D

 15 14  0  0  0  0  0  0  0  0999 V2000
    1.9486    4.8750    0.0000 C   0  0  0  0  0  0  0  0  0  0  0  0
   -8.4437    4.8750    0.0000 C   0  0  0  0  0  0  0  0  0  0  0  0
   -0.6495   -1.1250    0.0000 C   0  0  0  0  0  0  0  0  0  0  0  0
    0.6495    1.1250    0.0000 C   0  0  0  0  0  0  0  0  0  0  0  0
    0.6495    5.6250    0.0000 C   0  0  0  0  0  0  0  0  0  0  0  0
   -7.1447    5.6250    0.0000 C   0  0  0  0  0  0  0  0  0  0  0  0
   -0.6495    4.8750    0.0000 C   0  0  0  0  0  0  0  0  0  0  0  0
   -5.8457    4.8750    0.0000 C   0  0  0  0  0  0  0  0  0  0  0  0
   -1.9486    1.1250    0.0000 C   0  0  0  0  0  0  0  0  0  0  0  0
   -1.9486    2.6250    0.0000 C   0  0  0  0  0  0  0  0  0  0  0  0
   -1.9486    5.6250    0.0000 C   0  0  0  0  0  0  0  0  0  0  0  0
   -4.5466    5.6250    0.0000 C   0  0  0  0  0  0  0  0  0  0  0  0
   -0.6495    0.3750    0.0000 C   0  0  0  0  0  0  0  0  0  0  0  0
   -3.2476    3.3750    0.0000 N   0  0  0  0  0  0  0  0  0  0  0  0
   -3.2476    4.8750    0.0000 N   0  0  0  0  0  0  0  0  0  0  0  0
  5  1  1  0
  6  2  1  0
  7  5  1  0
  8  6  1  0
 10  9  1  0
 11  7  1  0
 12  8  1  0
 13  3  1  0
 13  4  1  0
 13  9  2  0
 10 14  2  0
 15 11  1  0
 15 12  1  0
 15 14  1  0
M  END
>  <NAME>  (6971) 
DI-N-BUTYLHYDRAZONE BETA.BETA-DIMETHYLACRYLALDEHYDE

>  <SYNONYMS>  (6971) 
3-METHYL-2-BUTENAL DIBUTYLHYDRAZONE

>  <SPECTRUM TYPE>  (6971) 
MS1

>  <INSTRUMENT TYPE>  (6971) 
EI-B

>  <INSTRUMENT>  (6971) 
SHIMADZU LKB-2091

>  <ION MODE>  (6971) 
P

>  <INCHIKEY>  (6971) 
YRNUSWNJDPYSFU-GXDHUFHOSA-N

>  <FORMULA>  (6971) 
C13H26N2

>  <EXACT MASS>  (6971) 
210.20959883199998

>  <MW>  (6971) 
210

>  <ID>  (6971) 
JP000887

>  <CONTRIBUTOR>  (6971) 
University of Tokyo Team, {Faculty of Engineering, University of Tokyo

>  <COMMENT>  (6971) 
SMILES=CCCCN(CCCC)N=CC=C(C)C
InChI=InChI=1S/C13H26N2/c1-5-7-11-15(12-8-6-2)14-10-9-13(3)4/h9-10H,5-8,11-12H2,1-4H3/b14-10+
computed SMILES=N(=CC=C(C)C)N(CCCC)CCCC
accession=JP000887
date=2016.01.19 (Created 2008.10.21, modified 2011.05.06)
author=SASAKI S, TOYOHASHI UNIV. OF TECH.
license=CC BY-NC-SA
exact mass=210.2096
ionization energy=70 eV
ion type=[M]+*
computed spectral entropy=2.9126981279647897
computed normalized entropy=0.7524016757997516
SPLASH=splash10-014i-8920000000-516511cb384da800aecc
submitter=submitter = University of Tokyo Team (Faculty of Engineering, University of Tokyo)
MoNA Rating=3.75

>  <NUM PEAKS>  (6971) 
48

>  <MASS SPECTRAL PEAKS>  (6971) 
28 3.3
29 17.6
30 8.5
39 0.45
40 1.3
41 15.2
42 7.6
43 0.74
44 5.9
53 3.9
54 1.3
55 1.41
56 3.3
57 11.1
58 0.8
65 0.09
67 5.9
68 3
69 22.8
70 0.41
72 1.4
80 2.1
81 2
82 1.63
83 5.2
84 9.3
86 8.2
94 0.3
95 1
96 5.2
97 3.9
101 0.24
109 1
110 1.2
111 15.9
112 0.18
124 1.3
125 24.7
126 3.9
128 0.19
138 3.3
139 1.4
153 1.9
167 99.99
168 12.6
209 1.8
210 44.5
211 7.6

$$$$

     RDKit          2D

 13 12  0  0  0  0  0  0  0  0999 V2000
    3.2476    3.3750    0.0000 C   0  0  0  0  0  0  0  0  0  0  0  0
    0.6495    7.8750    0.0000 C   0  0  0  0  0  0  0  0  0  0  0  0
   -7.1447    3.3750    0.0000 C   0  0  0  0  0  0  0  0  0  0  0  0
   -5.8457    5.6250    0.0000 C   0  0  0  0  0  0  0  0  0  0  0  0
    1.9486    4.1250    0.0000 C   0  0  0  0  0  0  0  0  0  0  0  0
    0.6495    6.3750    0.0000 C   0  0  0  0  0  0  0  0  0  0  0  0
   -4.5466    3.3750    0.0000 C   0  0  0  0  0  0  0  0  0  0  0  0
   -3.2476    4.1250    0.0000 C   0  0  0  0  0  0  0  0  0  0  0  0
    0.6495    3.3750    0.0000 C   0  0  0  0  0  0  0  0  0  0  0  0
   -0.6495    5.6250    0.0000 C   0  0  0  0  0  0  0  0  0  0  0  0
   -5.8457    4.1250    0.0000 C   0  0  0  0  0  0  0  0  0  0  0  0
   -1.9486    3.3750    0.0000 N   0  0  0  0  0  0  0  0  0  0  0  0
   -0.6495    4.1250    0.0000 N   0  0  0  0  0  0  0  0  0  0  0  0
  5  1  1  0
  6  2  1  0
  8  7  1  0
  9  5  1  0
 10  6  1  0
 11  3  1  0
 11  4  1  0
 11  7  2  0
  8 12  2  0
 13  9  1  0
 13 10  1  0
 13 12  1  0
M  END
>  <NAME>  (6972) 
DI-N-PROPYLHYDRAZONE BETA.BETA-DIMETHYLACRYLALDEHYDE

>  <SYNONYMS>  (6972) 
3-METHYL-2-BUTENAL DIPROPYLHYDRAZONE

>  <SPECTRUM TYPE>  (6972) 
MS1

>  <INSTRUMENT TYPE>  (6972) 
EI-B

>  <INSTRUMENT>  (6972) 
SHIMADZU LKB-2091

>  <ION MODE>  (6972) 
P

>  <INCHIKEY>  (6972) 
FTMKRAVFLAKCFZ-XYOKQWHBSA-N

>  <FORMULA>  (6972) 
C11H22N2

>  <EXACT MASS>  (6972) 
182.17829870399999

>  <MW>  (6972) 
182

>  <ID>  (6972) 
JP000886

>  <CONTRIBUTOR>  (6972) 
University of Tokyo Team, {Faculty of Engineering, University of Tokyo

>  <COMMENT>  (6972) 
SMILES=CCCN(CCC)N=CC=C(C)C
InChI=InChI=1S/C11H22N2/c1-5-9-13(10-6-2)12-8-7-11(3)4/h7-8H,5-6,9-10H2,1-4H3/b12-8+
computed SMILES=N(=CC=C(C)C)N(CCC)CCC
accession=JP000886
date=2016.01.19 (Created 2008.10.21, modified 2011.05.06)
author=SASAKI S, TOYOHASHI UNIV. OF TECH.
license=CC BY-NC-SA
exact mass=182.1783
ionization energy=70 eV
ion type=[M]+*
computed spectral entropy=3.0499151240730806
computed normalized entropy=0.7966050638406317
SPLASH=splash10-0f89-9600000000-97bbcb14a6976615905b
submitter=submitter = University of Tokyo Team (Faculty of Engineering, University of Tokyo)
MoNA Rating=3.75

>  <NUM PEAKS>  (6972) 
46

>  <MASS SPECTRAL PEAKS>  (6972) 
28 12.4
29 14.6
30 26
39 1.39
40 4.4
41 34.7
42 19.6
43 4.13
44 5.4
51 1.2
53 10
54 0.33
55 30.4
56 9.6
57 2.4
58 0.72
65 2.6
67 13.9
68 6.1
69 4.13
70 13.2
71 1.5
72 26
73 0.22
80 5
81 4.6
82 30.4
83 0.74
84 6.3
87 2
94 4.9
95 0.24
96 3.6
97 8.1
98 2.4
100 0.33
109 2
110 3
111 54.2
112 0.63
124 5.4
125 3
153 99.99
154 1.24
182 56.4
183 10

$$$$

     RDKit          2D

 12 11  0  0  0  0  0  0  0  0999 V2000
   -7.4695    3.9375    0.0000 C   0  0  0  0  0  0  0  0  0  0  0  0
   -6.1704    6.1875    0.0000 C   0  0  0  0  0  0  0  0  0  0  0  0
    1.6238    3.1875    0.0000 C   0  0  0  0  0  0  0  0  0  0  0  0
    0.3248    5.4375    0.0000 C   0  0  0  0  0  0  0  0  0  0  0  0
   -0.9743    1.6875    0.0000 C   0  0  0  0  0  0  0  0  0  0  0  0
   -6.1704    3.1875    0.0000 C   0  0  0  0  0  0  0  0  0  0  0  0
   -4.8714    5.4375    0.0000 C   0  0  0  0  0  0  0  0  0  0  0  0
   -2.2733    3.9375    0.0000 C   0  0  0  0  0  0  0  0  0  0  0  0
    0.3248    3.9375    0.0000 C   0  0  0  0  0  0  0  0  0  0  0  0
   -0.9743    3.1875    0.0000 C   0  0  0  0  0  0  0  0  0  0  0  0
   -3.5724    3.1875    0.0000 N   0  0  0  0  0  0  0  0  0  0  0  0
   -4.8714    3.9375    0.0000 N   0  0  0  0  0  0  0  0  0  0  0  0
  6  1  1  0
  7  2  1  0
  9  3  1  0
  9  4  1  0
 10  5  2  0
 10  8  1  0
 10  9  1  0
  8 11  2  0
 12  6  1  0
 12  7  1  0
 12 11  1  0
M  END
>  <NAME>  (6973) 
DIETHYLHYDRAZONE ALPHA-ISOPROPYLACRYLALDEHYDE

>  <SYNONYMS>  (6973) 
2-ISOPROPYL-2-PROPENAL DIETHYLHYDRAZONE

>  <SPECTRUM TYPE>  (6973) 
MS1

>  <INSTRUMENT TYPE>  (6973) 
EI-B

>  <INSTRUMENT>  (6973) 
SHIMADZU LKB-2091

>  <ION MODE>  (6973) 
P

>  <INCHIKEY>  (6973) 
WQOIIQRGAJMOOT-DHZHZOJOSA-N

>  <FORMULA>  (6973) 
C10H20N2

>  <EXACT MASS>  (6973) 
168.16264864

>  <MW>  (6973) 
168

>  <ID>  (6973) 
JP000885

>  <CONTRIBUTOR>  (6973) 
University of Tokyo Team, {Faculty of Engineering, University of Tokyo

>  <COMMENT>  (6973) 
SMILES=CCN(CC)N=CC(=C)C(C)C
InChI=InChI=1S/C10H20N2/c1-6-12(7-2)11-8-10(5)9(3)4/h8-9H,5-7H2,1-4H3/b11-8+
computed SMILES=N(=CC(=C)C(C)C)N(CC)CC
accession=JP000885
date=2016.01.19 (Created 2008.10.21, modified 2011.05.06)
author=SASAKI S, TOYOHASHI UNIV. OF TECH.
license=CC BY-NC-SA
exact mass=168.16265
ionization energy=70 eV
ion type=[M]+*
computed spectral entropy=3.370022771692537
computed normalized entropy=0.8230921263411068
SPLASH=splash10-00ke-9300000000-8e9997f1983eca61ad2e
submitter=submitter = University of Tokyo Team (Faculty of Engineering, University of Tokyo)
MoNA Rating=3.75

>  <NUM PEAKS>  (6973) 
60

>  <MASS SPECTRAL PEAKS>  (6973) 
30 27.2
39 17.2
40 3.9
41 5.43
42 35.7
43 27.2
44 31.5
52 0.19
53 10
54 6.4
55 12.2
56 2.93
57 8.6
58 48
59 5
65 0.28
67 10
68 6.4
69 39.3
70 1
71 4.6
72 19.3
73 3.8
74 0.57
77 1.3
79 3.1
80 5.7
81 1.36
82 9.3
83 6.4
84 6.4
85 0.26
86 3.2
87 6.4
93 1.2
94 0.86
95 11.4
96 32.1
97 99.99
98 1.07
99 1.9
108 3.4
109 7.2
110 0.72
111 20.7
112 10
122 6.4
123 0.86
124 11.4
125 1.6
136 1.6
137 0.14
138 6.8
139 64.2
140 7.9
153 4.65
154 5.7
167 1.9
168 57.9
169 7.9

$$$$

     RDKit          2D

 12 11  0  0  0  0  0  0  0  0999 V2000
    2.2733    5.0625    0.0000 C   0  0  0  0  0  0  0  0  0  0  0  0
   -8.1190    5.0625    0.0000 C   0  0  0  0  0  0  0  0  0  0  0  0
   -6.8200    2.8125    0.0000 C   0  0  0  0  0  0  0  0  0  0  0  0
   -1.6238    7.3125    0.0000 C   0  0  0  0  0  0  0  0  0  0  0  0
    0.9743    5.8125    0.0000 C   0  0  0  0  0  0  0  0  0  0  0  0
   -6.8200    5.8125    0.0000 C   0  0  0  0  0  0  0  0  0  0  0  0
   -5.5209    3.5625    0.0000 C   0  0  0  0  0  0  0  0  0  0  0  0
   -0.3248    5.0625    0.0000 C   0  0  0  0  0  0  0  0  0  0  0  0
   -2.9228    5.0625    0.0000 C   0  0  0  0  0  0  0  0  0  0  0  0
   -1.6238    5.8125    0.0000 C   0  0  0  0  0  0  0  0  0  0  0  0
   -4.2219    5.8125    0.0000 N   0  0  0  0  0  0  0  0  0  0  0  0
   -5.5209    5.0625    0.0000 N   0  0  0  0  0  0  0  0  0  0  0  0
  5  1  1  0
  6  2  1  0
  7  3  1  0
  8  5  1  0
 10  4  2  0
 10  8  1  0
 10  9  1  0
 11  9  2  3
 12  6  1  0
 12  7  1  0
 12 11  1  0
M  END
>  <NAME>  (6974) 
DIETHYLHYDRAZONE ALPHA-PROPYLACRYLALDEHYDE

>  <SYNONYMS>  (6974) 
2-PROPYL-2-PROPENAL DIETHYLHYDRAZONE

>  <SPECTRUM TYPE>  (6974) 
MS1

>  <INSTRUMENT TYPE>  (6974) 
EI-B

>  <INSTRUMENT>  (6974) 
SHIMADZU LKB-2091

>  <ION MODE>  (6974) 
P

>  <INCHIKEY>  (6974) 
OKCMQBMWYJSETE-UHFFFAOYSA-N

>  <FORMULA>  (6974) 
C10H20N2

>  <EXACT MASS>  (6974) 
168.16264864

>  <MW>  (6974) 
168

>  <ID>  (6974) 
JP000884

>  <CONTRIBUTOR>  (6974) 
University of Tokyo Team, {Faculty of Engineering, University of Tokyo

>  <COMMENT>  (6974) 
SMILES=CCCC(=C)C=NN(CC)CC
InChI=InChI=1S/C10H20N2/c1-5-8-10(4)9-11-12(6-2)7-3/h9H,4-8H2,1-3H3
computed SMILES=N(=CC(=C)CCC)N(CC)CC
computed InChI=InChI=1S/C10H20N2/c1-5-8-10(4)9-11-12(6-2)7-3/h9H,4-8H2,1-3H3/b11-9+
accession=JP000884
date=2016.01.19 (Created 2008.10.21, modified 2011.05.06)
author=SASAKI S, TOYOHASHI UNIV. OF TECH.
license=CC BY-NC-SA
exact mass=168.16265
ionization energy=70 eV
ion type=[M]+*
computed spectral entropy=3.4135729216709265
computed normalized entropy=0.8337287860839678
SPLASH=splash10-002u-9500000000-20c7ad8d899b8d52b910
submitter=submitter = University of Tokyo Team (Faculty of Engineering, University of Tokyo)
MoNA Rating=3.75

>  <NUM PEAKS>  (6974) 
60

>  <MASS SPECTRAL PEAKS>  (6974) 
27 15
28 26.9
29 36.4
30 2.76
31 1.1
39 14.5
40 4.4
41 4.36
42 32.7
43 17.1
44 27.6
45 0.11
51 1.9
52 2
53 9.1
54 0.58
55 12
56 25.8
57 4.4
58 3.13
59 5.8
67 8.4
68 7.3
69 2.54
70 9.4
71 4
72 12
73 0.16
74 1.6
79 2.9
80 5.4
81 0.98
82 7.6
83 5.8
84 6.2
85 0.33
86 1.4
87 8
94 4.5
95 0.58
96 22.5
97 26.5
98 4.4
108 0.4
109 8.4
110 6.2
111 20.4
112 0.29
123 2.5
124 3.6
125 9.8
126 0.17
138 1.8
139 99.99
140 11.6
153 2.91
154 3.6
167 1.4
168 38.2
169 5.8

$$$$

     RDKit          2D

 12 11  0  0  0  0  0  0  0  0999 V2000
   -7.4695    3.9375    0.0000 C   0  0  0  0  0  0  0  0  0  0  0  0
   -6.1704    6.1875    0.0000 C   0  0  0  0  0  0  0  0  0  0  0  0
    1.6238    3.1875    0.0000 C   0  0  0  0  0  0  0  0  0  0  0  0
    0.3248    5.4375    0.0000 C   0  0  0  0  0  0  0  0  0  0  0  0
   -0.9743    1.6875    0.0000 C   0  0  0  0  0  0  0  0  0  0  0  0
   -6.1704    3.1875    0.0000 C   0  0  0  0  0  0  0  0  0  0  0  0
   -4.8714    5.4375    0.0000 C   0  0  0  0  0  0  0  0  0  0  0  0
   -2.2733    3.9375    0.0000 C   0  0  0  0  0  0  0  0  0  0  0  0
    0.3248    3.9375    0.0000 C   0  0  0  0  0  0  0  0  0  0  0  0
   -0.9743    3.1875    0.0000 C   0  0  0  0  0  0  0  0  0  0  0  0
   -3.5724    3.1875    0.0000 N   0  0  0  0  0  0  0  0  0  0  0  0
   -4.8714    3.9375    0.0000 N   0  0  0  0  0  0  0  0  0  0  0  0
  6  1  1  0
  7  2  1  0
  9  3  1  0
  9  4  1  0
 10  5  1  0
 10  8  1  0
 10  9  2  0
  8 11  2  0
 12  6  1  0
 12  7  1  0
 12 11  1  0
M  END
>  <NAME>  (6975) 
DIETHYLHYDRAZONE TRIMETHYLACRYLALDEHYDE

>  <SYNONYMS>  (6975) 
2,3-DIMETHYL-2-BUTENAL DIETHYLHYDRAZONE

>  <SPECTRUM TYPE>  (6975) 
MS1

>  <INSTRUMENT TYPE>  (6975) 
EI-B

>  <INSTRUMENT>  (6975) 
SHIMADZU LKB-2091

>  <ION MODE>  (6975) 
P

>  <INCHIKEY>  (6975) 
MJRKGYWACUZMMJ-DHZHZOJOSA-N

>  <FORMULA>  (6975) 
C10H20N2

>  <EXACT MASS>  (6975) 
168.16264864

>  <MW>  (6975) 
168

>  <ID>  (6975) 
JP000883

>  <CONTRIBUTOR>  (6975) 
University of Tokyo Team, {Faculty of Engineering, University of Tokyo

>  <COMMENT>  (6975) 
SMILES=CCN(CC)N=CC(C)=C(C)C
InChI=InChI=1S/C10H20N2/c1-6-12(7-2)11-8-10(5)9(3)4/h8H,6-7H2,1-5H3/b11-8+
computed SMILES=N(=CC(=C(C)C)C)N(CC)CC
accession=JP000883
author=SASAKI S, TOYOHASHI UNIV. OF TECH.
date=2016.01.19 (Created 2008.10.21, modified 2011.05.06)
license=CC BY-NC-SA
exact mass=168.16265
ionization energy=70 eV
ion type=[M]+*
computed spectral entropy=3.396073102514404
computed normalized entropy=0.8294546418612293
SPLASH=splash10-05mo-9300000000-9aa6db1e39570bfc4284
submitter=submitter = University of Tokyo Team (Faculty of Engineering, University of Tokyo)
MoNA Rating=3.75

>  <NUM PEAKS>  (6975) 
60

>  <MASS SPECTRAL PEAKS>  (6975) 
29 42
30 30.9
31 2.5
39 2.1
40 3.7
41 99.99
42 40.7
43 1.85
44 39.5
51 3.4
52 2.8
53 1.6
54 6.7
55 16.7
56 30.9
57 1.85
58 96.2
59 7.8
65 4.4
67 2.1
68 7.9
69 37
70 14.8
71 0.44
72 33.3
73 4.9
74 11.1
79 0.76
80 8.4
81 34.6
82 9.3
83 0.56
84 18.6
85 4.2
86 6.2
87 0.85
94 18.5
95 19.7
96 82.7
97 4.07
98 8
108 4.1
109 5.8
110 0.99
111 25.9
112 17.3
113 0.6
122 0.42
123 4.8
124 11.1
125 6.9
136 0.27
137 2.7
138 9.9
139 48.1
140 0.53
154 3.4
155 33.3
168 83.9
169 9.9

$$$$

     RDKit          2D

 12 11  0  0  0  0  0  0  0  0999 V2000
    2.2733    5.0625    0.0000 C   0  0  0  0  0  0  0  0  0  0  0  0
   -8.1190    5.0625    0.0000 C   0  0  0  0  0  0  0  0  0  0  0  0
   -6.8200    2.8125    0.0000 C   0  0  0  0  0  0  0  0  0  0  0  0
   -1.6238    7.3125    0.0000 C   0  0  0  0  0  0  0  0  0  0  0  0
    0.9743    5.8125    0.0000 C   0  0  0  0  0  0  0  0  0  0  0  0
   -6.8200    5.8125    0.0000 C   0  0  0  0  0  0  0  0  0  0  0  0
   -5.5209    3.5625    0.0000 C   0  0  0  0  0  0  0  0  0  0  0  0
   -0.3248    5.0625    0.0000 C   0  0  0  0  0  0  0  0  0  0  0  0
   -2.9228    5.0625    0.0000 C   0  0  0  0  0  0  0  0  0  0  0  0
   -1.6238    5.8125    0.0000 C   0  0  0  0  0  0  0  0  0  0  0  0
   -4.2219    5.8125    0.0000 N   0  0  0  0  0  0  0  0  0  0  0  0
   -5.5209    5.0625    0.0000 N   0  0  0  0  0  0  0  0  0  0  0  0
  5  1  1  0
  6  2  1  0
  7  3  1  0
  8  5  1  0
 10  4  1  0
  8 10  2  0
 10  9  1  0
  9 11  2  0
 12  6  1  0
 12  7  1  0
 12 11  1  0
M  END
>  <NAME>  (6976) 
DIETHYLHYDRAZONE ALPHA-METHYL-BETA-ETHYLACRYLALDEHYDE

>  <SYNONYMS>  (6976) 
2-METHYL-2-PENTENAL DIETHYLHYDRAZONE

>  <SPECTRUM TYPE>  (6976) 
MS1

>  <INSTRUMENT TYPE>  (6976) 
EI-B

>  <INSTRUMENT>  (6976) 
SHIMADZU LKB-2091

>  <ION MODE>  (6976) 
P

>  <INCHIKEY>  (6976) 
UNYHHDLZDYMYLQ-GFULKKFKSA-N

>  <FORMULA>  (6976) 
C10H20N2

>  <EXACT MASS>  (6976) 
168.16264864

>  <MW>  (6976) 
168

>  <ID>  (6976) 
JP000882

>  <CONTRIBUTOR>  (6976) 
University of Tokyo Team, {Faculty of Engineering, University of Tokyo

>  <COMMENT>  (6976) 
SMILES=CCC=C(C)C=NN(CC)CC
InChI=InChI=1S/C10H20N2/c1-5-8-10(4)9-11-12(6-2)7-3/h8-9H,5-7H2,1-4H3/b10-8+,11-9+
computed SMILES=N(=CC(=CCC)C)N(CC)CC
accession=JP000882
date=2016.01.19 (Created 2008.10.21, modified 2011.05.06)
author=SASAKI S, TOYOHASHI UNIV. OF TECH.
license=CC BY-NC-SA
exact mass=168.16265
ionization energy=70 eV
ion type=[M]+*
computed spectral entropy=3.3315902988015305
computed normalized entropy=0.8431750952577624
SPLASH=splash10-05my-9300000000-c66e7fd68e5314bc1895
submitter=submitter = University of Tokyo Team (Faculty of Engineering, University of Tokyo)
MoNA Rating=3.75

>  <NUM PEAKS>  (6976) 
52

>  <MASS SPECTRAL PEAKS>  (6976) 
28 28.9
29 56.7
30 33.3
39 2.56
40 6.4
41 85.6
42 54.4
43 0.89
53 18.9
54 7.8
55 23.3
56 3.56
57 7.4
58 75.6
59 11.1
65 0.51
67 18.9
68 7.8
69 20
70 1.67
71 4.8
72 35.6
73 4.8
74 0.78
79 8.3
80 7.8
81 31.1
82 2
83 20
84 22.2
85 11.1
94 1.56
95 17.8
96 99.99
97 23.3
98 0.89
108 9
109 8.9
110 9
111 2.56
112 9.4
113 6.6
124 8.9
125 0.94
138 6.7
139 88.9
140 10
153 5.56
154 6.3
167 3
168 83.3
169 8.6

$$$$

     RDKit          2D

 11 10  0  0  0  0  0  0  0  0999 V2000
   -6.4952    4.5000    0.0000 C   0  0  0  0  0  0  0  0  0  0  0  0
   -5.1962    2.2500    0.0000 C   0  0  0  0  0  0  0  0  0  0  0  0
    2.5981    3.7500    0.0000 C   0  0  0  0  0  0  0  0  0  0  0  0
    1.2990    6.0000    0.0000 C   0  0  0  0  0  0  0  0  0  0  0  0
   -3.8971    6.0000    0.0000 C   0  0  0  0  0  0  0  0  0  0  0  0
   -2.5981    3.7500    0.0000 C   0  0  0  0  0  0  0  0  0  0  0  0
   -5.1962    3.7500    0.0000 C   0  0  0  0  0  0  0  0  0  0  0  0
    1.2990    4.5000    0.0000 C   0  0  0  0  0  0  0  0  0  0  0  0
   -3.8971    4.5000    0.0000 C   0  0  0  0  0  0  0  0  0  0  0  0
   -1.2990    4.5000    0.0000 N   0  0  0  0  0  0  0  0  0  0  0  0
    0.0000    3.7500    0.0000 N   0  0  0  0  0  0  0  0  0  0  0  0
  7  1  1  0
  7  2  1  0
  8  3  1  0
  8  4  1  0
  9  5  2  0
  9  6  1  0
  9  7  1  0
  6 10  2  0
 11  8  1  0
 11 10  1  0
M  END
>  <NAME>  (6977) 
ISOPROPYLHYDRAZONE ALPHA-ISOPROPYLACRYLALDEHYDE

>  <SYNONYMS>  (6977) 
2-ISOPROPYL-2-PROPENAL ISOPROPYLHYDRAZONE

>  <SPECTRUM TYPE>  (6977) 
MS1

>  <INSTRUMENT TYPE>  (6977) 
EI-B

>  <INSTRUMENT>  (6977) 
SHIMADZU LKB-2091

>  <ION MODE>  (6977) 
P

>  <INCHIKEY>  (6977) 
OATICRMJGGIIEI-UXBLZVDNSA-N

>  <FORMULA>  (6977) 
C9H18N2

>  <EXACT MASS>  (6977) 
154.146998576

>  <MW>  (6977) 
154

>  <ID>  (6977) 
JP000881

>  <CONTRIBUTOR>  (6977) 
University of Tokyo Team, {Faculty of Engineering, University of Tokyo

>  <COMMENT>  (6977) 
SMILES=CC(C)NN=CC(=C)C(C)C
InChI=InChI=1S/C9H18N2/c1-7(2)9(5)6-10-11-8(3)4/h6-8,11H,5H2,1-4H3/b10-6+
computed SMILES=N(=CC(=C)C(C)C)NC(C)C
accession=JP000881
date=2016.01.19 (Created 2008.10.21, modified 2011.05.06)
author=SASAKI S, TOYOHASHI UNIV. OF TECH.
license=CC BY-NC-SA
exact mass=154.147
ionization energy=70 eV
ion type=[M]+*
computed spectral entropy=2.7127818728105044
computed normalized entropy=0.7404766549176021
SPLASH=splash10-014l-9200000000-9d7190b83b8d28c1f29b
submitter=submitter = University of Tokyo Team (Faculty of Engineering, University of Tokyo)
MoNA Rating=3.75

>  <NUM PEAKS>  (6977) 
39

>  <MASS SPECTRAL PEAKS>  (6977) 
27 13.7
28 3.2
29 3.7
30 0.39
39 10
40 2.2
41 32.6
42 1.74
43 24.2
44 22.1
53 3.9
54 0.28
55 22.9
56 5.8
57 1.7
58 0.37
67 4.2
68 2.9
69 99.99
70 0.58
71 1.2
80 1.5
81 3.1
82 0.18
83 4.2
84 1.4
94 2.2
95 0.39
96 7.9
97 7.1
98 1.4
110 0.12
111 23.1
112 1.8
139 35.8
140 0.37
153 1.4
154 18.7
155 2.1

$$$$

     RDKit          2D

 11 10  0  0  0  0  0  0  0  0999 V2000
    2.5981    4.5000    0.0000 C   0  0  0  0  0  0  0  0  0  0  0  0
   -7.7942    4.5000    0.0000 C   0  0  0  0  0  0  0  0  0  0  0  0
   -6.4952    6.7500    0.0000 C   0  0  0  0  0  0  0  0  0  0  0  0
   -1.2990    6.7500    0.0000 C   0  0  0  0  0  0  0  0  0  0  0  0
    1.2990    5.2500    0.0000 C   0  0  0  0  0  0  0  0  0  0  0  0
    0.0000    4.5000    0.0000 C   0  0  0  0  0  0  0  0  0  0  0  0
   -2.5981    4.5000    0.0000 C   0  0  0  0  0  0  0  0  0  0  0  0
   -6.4952    5.2500    0.0000 C   0  0  0  0  0  0  0  0  0  0  0  0
   -1.2990    5.2500    0.0000 C   0  0  0  0  0  0  0  0  0  0  0  0
   -3.8971    5.2500    0.0000 N   0  0  0  0  0  0  0  0  0  0  0  0
   -5.1962    4.5000    0.0000 N   0  0  0  0  0  0  0  0  0  0  0  0
  5  1  1  0
  6  5  1  0
  8  2  1  0
  8  3  1  0
  9  4  2  0
  9  6  1  0
  9  7  1  0
 10  7  2  3
 11  8  1  0
 11 10  1  0
M  END
>  <NAME>  (6978) 
ISOPROPYLHYDRAZONE ALPHA-PROPYLACRYLALDEHYDE

>  <SYNONYMS>  (6978) 
2-PROPYL-2-PROPENAL ISOPROPYLHYDRAZONE

>  <SPECTRUM TYPE>  (6978) 
MS1

>  <INSTRUMENT TYPE>  (6978) 
EI-B

>  <INSTRUMENT>  (6978) 
SHIMADZU LKB-2091

>  <ION MODE>  (6978) 
P

>  <INCHIKEY>  (6978) 
IMGUGCJNSIIXAW-UHFFFAOYSA-N

>  <FORMULA>  (6978) 
C9H18N2

>  <EXACT MASS>  (6978) 
154.146998576

>  <MW>  (6978) 
154

>  <ID>  (6978) 
JP000880

>  <CONTRIBUTOR>  (6978) 
University of Tokyo Team, {Faculty of Engineering, University of Tokyo

>  <COMMENT>  (6978) 
SMILES=CCCC(=C)C=NNC(C)C
InChI=InChI=1S/C9H18N2/c1-5-6-9(4)7-10-11-8(2)3/h7-8,11H,4-6H2,1-3H3
computed SMILES=N(=CC(=C)CCC)NC(C)C
computed InChI=InChI=1S/C9H18N2/c1-5-6-9(4)7-10-11-8(2)3/h7-8,11H,4-6H2,1-3H3/b10-7+
accession=JP000880
date=2016.01.19 (Created 2008.10.21, modified 2011.05.06)
author=SASAKI S, TOYOHASHI UNIV. OF TECH.
license=CC BY-NC-SA
exact mass=154.147
ionization energy=70 eV
ion type=[M]+*
computed spectral entropy=2.9180274194608455
computed normalized entropy=0.766557956557086
SPLASH=splash10-06tf-9300000000-b4ad5fbf40c9767c84dc
submitter=submitter = University of Tokyo Team (Faculty of Engineering, University of Tokyo)
MoNA Rating=3.75

>  <NUM PEAKS>  (6978) 
45

>  <MASS SPECTRAL PEAKS>  (6978) 
27 25.4
28 69.2
29 9.6
30 0.85
31 2.8
39 18.5
40 4.8
41 6.48
42 24.6
43 34.6
44 52.3
45 0.15
51 1.5
52 1.7
53 7.7
54 0.62
55 77
56 10
57 2.3
58 0.69
65 1.7
67 8.5
68 3.9
69 3.89
70 4.8
73 1.9
79 2.2
80 0.28
81 10.8
82 4.8
83 15.4
84 0.27
94 3.4
95 3
96 12.3
97 0.48
110 3.8
111 99.99
112 6.9
125 0.48
139 27.7
140 2.7
153 2.3
154 2.93
155 3.8

$$$$

     RDKit          2D

 11 10  0  0  0  0  0  0  0  0999 V2000
    2.2733    4.3125    0.0000 C   0  0  0  0  0  0  0  0  0  0  0  0
   -6.8200    5.0625    0.0000 C   0  0  0  0  0  0  0  0  0  0  0  0
   -5.5209    2.8125    0.0000 C   0  0  0  0  0  0  0  0  0  0  0  0
   -0.3248    2.8125    0.0000 C   0  0  0  0  0  0  0  0  0  0  0  0
   -1.6238    6.5625    0.0000 C   0  0  0  0  0  0  0  0  0  0  0  0
    0.9743    5.0625    0.0000 C   0  0  0  0  0  0  0  0  0  0  0  0
   -5.5209    4.3125    0.0000 C   0  0  0  0  0  0  0  0  0  0  0  0
   -0.3248    4.3125    0.0000 C   0  0  0  0  0  0  0  0  0  0  0  0
   -1.6238    5.0625    0.0000 C   0  0  0  0  0  0  0  0  0  0  0  0
   -4.2219    5.0625    0.0000 N   0  0  0  0  0  0  0  0  0  0  0  0
   -2.9228    4.3125    0.0000 N   0  0  0  0  0  0  0  0  0  0  0  0
  6  1  1  0
  7  2  1  0
  7  3  1  0
  8  4  1  0
  6  8  2  0
  9  5  1  0
  9  8  1  0
 10  7  1  0
  9 11  2  0
 11 10  1  0
M  END
>  <NAME>  (6979) 
ISOPROPYLHYDRAZONE METHYL-SEC-BUTENYLKETONE

>  <SYNONYMS>  (6979) 
3-METHYL-3-PENTEN-2-ONE ISOPROPYLHYDRAZONE

>  <SPECTRUM TYPE>  (6979) 
MS1

>  <INSTRUMENT TYPE>  (6979) 
EI-B

>  <INSTRUMENT>  (6979) 
SHIMADZU LKB-2091

>  <ION MODE>  (6979) 
P

>  <INCHIKEY>  (6979) 
ZMWUOVWPBZTVIZ-ZOIFJEAISA-N

>  <FORMULA>  (6979) 
C9H18N2

>  <EXACT MASS>  (6979) 
154.146998576

>  <MW>  (6979) 
154

>  <ID>  (6979) 
JP000879

>  <CONTRIBUTOR>  (6979) 
University of Tokyo Team, {Faculty of Engineering, University of Tokyo

>  <COMMENT>  (6979) 
SMILES=CC=C(C)C(C)=NNC(C)C
InChI=InChI=1S/C9H18N2/c1-6-8(4)9(5)11-10-7(2)3/h6-7,10H,1-5H3/b8-6+,11-9+
computed SMILES=N(NC(C)C)=C(C(=CC)C)C
accession=JP000879
date=2016.01.19 (Created 2008.10.21, modified 2011.05.06)
author=SASAKI S, TOYOHASHI UNIV. OF TECH.
license=CC BY-NC-SA
exact mass=154.147
ionization energy=70 eV
ion type=[M]+*
computed spectral entropy=2.79300268991345
computed normalized entropy=0.7380715450619458
SPLASH=splash10-052f-9000000000-eb20f1c6ec08260fcc7a
submitter=submitter = University of Tokyo Team (Faculty of Engineering, University of Tokyo)
MoNA Rating=3.75

>  <NUM PEAKS>  (6979) 
44

>  <MASS SPECTRAL PEAKS>  (6979) 
26 1.3
27 36.1
28 13.6
29 2.14
30 17.5
31 1.1
39 17.1
40 0.3
41 31.5
42 99.99
43 21.1
44 1
51 1.9
52 1.3
53 10
54 0.5
55 60.9
56 71.6
57 2.4
58 0.54
65 1.8
67 6.8
68 1.7
69 0.21
70 10.8
77 1
79 1.4
80 0.12
81 4.5
82 1.6
83 4.2
84 0.16
94 2.7
95 2.4
96 10.7
97 0.79
98 1.1
109 1.6
110 3.2
111 8.95
112 7.5
139 4.7
154 16.4
155 1.9

$$$$

     RDKit          2D

 11 10  0  0  0  0  0  0  0  0999 V2000
   -6.4952    4.5000    0.0000 C   0  0  0  0  0  0  0  0  0  0  0  0
    2.5981    3.7500    0.0000 C   0  0  0  0  0  0  0  0  0  0  0  0
    1.2990    1.5000    0.0000 C   0  0  0  0  0  0  0  0  0  0  0  0
   -3.8971    6.0000    0.0000 C   0  0  0  0  0  0  0  0  0  0  0  0
   -5.1962    3.7500    0.0000 C   0  0  0  0  0  0  0  0  0  0  0  0
    1.2990    4.5000    0.0000 C   0  0  0  0  0  0  0  0  0  0  0  0
   -0.0000    2.2500    0.0000 C   0  0  0  0  0  0  0  0  0  0  0  0
   -2.5981    3.7500    0.0000 C   0  0  0  0  0  0  0  0  0  0  0  0
   -3.8971    4.5000    0.0000 C   0  0  0  0  0  0  0  0  0  0  0  0
   -1.2990    4.5000    0.0000 N   0  0  0  0  0  0  0  0  0  0  0  0
    0.0000    3.7500    0.0000 N   0  0  0  0  0  0  0  0  0  0  0  0
  5  1  1  0
  6  2  1  0
  7  3  1  0
  9  4  2  0
  9  5  1  0
  9  8  1  0
 10  8  2  3
 11  6  1  0
 11  7  1  0
 11 10  1  0
M  END
>  <NAME>  (6980) 
DIETHYLHYDRAZONE ALPHA-ETHYLACRYLALDEHYDE

>  <SYNONYMS>  (6980) 
2-ETHYL-2-PROPENAL DIETHYLHYDRAZONE

>  <SPECTRUM TYPE>  (6980) 
MS1

>  <INSTRUMENT TYPE>  (6980) 
EI-B

>  <INSTRUMENT>  (6980) 
SHIMADZU LKB-2091

>  <ION MODE>  (6980) 
P

>  <INCHIKEY>  (6980) 
OMRAIPQMRLJSRZ-UHFFFAOYSA-N

>  <FORMULA>  (6980) 
C9H18N2

>  <EXACT MASS>  (6980) 
154.146998576

>  <MW>  (6980) 
154

>  <ID>  (6980) 
JP000878

>  <CONTRIBUTOR>  (6980) 
University of Tokyo Team, {Faculty of Engineering, University of Tokyo

>  <COMMENT>  (6980) 
SMILES=CCC(=C)C=NN(CC)CC
InChI=InChI=1S/C9H18N2/c1-5-9(4)8-10-11(6-2)7-3/h8H,4-7H2,1-3H3
computed SMILES=N(=CC(=C)CC)N(CC)CC
computed InChI=InChI=1S/C9H18N2/c1-5-9(4)8-10-11(6-2)7-3/h8H,4-7H2,1-3H3/b10-8+
accession=JP000878
date=2016.01.19 (Created 2008.10.21, modified 2011.05.06)
author=SASAKI S, TOYOHASHI UNIV. OF TECH.
license=CC BY-NC-SA
exact mass=154.147
ionization energy=70 eV
ion type=[M]+*
computed spectral entropy=3.217920806526977
computed normalized entropy=0.8184291744131362
SPLASH=splash10-004i-9400000000-63cdb4c654bff670dc04
submitter=submitter = University of Tokyo Team (Faculty of Engineering, University of Tokyo)
MoNA Rating=3.75

>  <NUM PEAKS>  (6980) 
51

>  <MASS SPECTRAL PEAKS>  (6980) 
28 29.6
29 59.2
30 31.5
31 0.16
38 1.5
39 18.9
40 6.7
41 2.4
42 37
43 7.8
44 30.7
45 0.18
51 2.6
52 2.4
53 13.7
54 0.59
55 30.4
56 33.3
57 4.1
58 3.41
59 4.8
65 2.1
67 12.2
68 0.59
69 31.5
70 9.6
71 4.8
72 0.81
73 1.6
80 3.7
81 5.9
82 1.96
83 6.7
84 7.8
94 11.8
95 0.56
96 4.8
97 33.3
98 3.3
109 0.48
110 7.8
111 17.4
112 3
124 0.17
125 99.99
126 9.6
139 40.7
140 0.46
153 1.8
154 55.6
155 5.6

$$$$

     RDKit          2D

 11 10  0  0  0  0  0  0  0  0999 V2000
   -7.7942    3.0000    0.0000 C   0  0  0  0  0  0  0  0  0  0  0  0
    0.0000    1.5000    0.0000 C   0  0  0  0  0  0  0  0  0  0  0  0
   -1.2990    3.7500    0.0000 C   0  0  0  0  0  0  0  0  0  0  0  0
   -6.4952   -0.7500    0.0000 C   0  0  0  0  0  0  0  0  0  0  0  0
   -7.7942    1.5000    0.0000 C   0  0  0  0  0  0  0  0  0  0  0  0
   -1.2990    0.7500    0.0000 C   0  0  0  0  0  0  0  0  0  0  0  0
   -2.5981    3.0000    0.0000 C   0  0  0  0  0  0  0  0  0  0  0  0
   -5.1962    1.5000    0.0000 C   0  0  0  0  0  0  0  0  0  0  0  0
   -6.4952    0.7500    0.0000 C   0  0  0  0  0  0  0  0  0  0  0  0
   -3.8971    0.7500    0.0000 N   0  0  0  0  0  0  0  0  0  0  0  0
   -2.5981    1.5000    0.0000 N   0  0  0  0  0  0  0  0  0  0  0  0
  5  1  1  0
  6  2  1  0
  7  3  1  0
  9  4  1  0
  5  9  2  0
  9  8  1  0
  8 10  2  0
 11  6  1  0
 11  7  1  0
 11 10  1  0
M  END
>  <NAME>  (6981) 
DIETHYLHYDRAZONE ALPHA,BETA-DIMETHYLACRYLALDEHYDE

>  <SYNONYMS>  (6981) 
2-METHYL-2-BUTENAL DIETHYLHYDRAZONE

>  <SPECTRUM TYPE>  (6981) 
MS1

>  <INSTRUMENT TYPE>  (6981) 
EI-B

>  <INSTRUMENT>  (6981) 
SHIMADZU LKB-2091

>  <ION MODE>  (6981) 
P

>  <INCHIKEY>  (6981) 
GJHYEYLGKWDLMY-APQBBXBWSA-N

>  <FORMULA>  (6981) 
C9H18N2

>  <EXACT MASS>  (6981) 
154.146998576

>  <MW>  (6981) 
154

>  <ID>  (6981) 
JP000877

>  <CONTRIBUTOR>  (6981) 
University of Tokyo Team, {Faculty of Engineering, University of Tokyo

>  <COMMENT>  (6981) 
SMILES=CC=C(C)C=NN(CC)CC
InChI=InChI=1S/C9H18N2/c1-5-9(4)8-10-11(6-2)7-3/h5,8H,6-7H2,1-4H3/b9-5-,10-8+
computed SMILES=N(=CC(=CC)C)N(CC)CC
accession=JP000877
date=2016.01.19 (Created 2008.10.21, modified 2011.05.06)
author=SASAKI S, TOYOHASHI UNIV. OF TECH.
license=CC BY-NC-SA
exact mass=154.147
ionization energy=70 eV
ion type=[M]+*
computed spectral entropy=3.2884601908010147
computed normalized entropy=0.8133609922196973
SPLASH=splash10-056u-9300000000-d9b8d6e45b547ba1ef60
submitter=submitter = University of Tokyo Team (Faculty of Engineering, University of Tokyo)
MoNA Rating=3.75

>  <NUM PEAKS>  (6981) 
57

>  <MASS SPECTRAL PEAKS>  (6981) 
26 4.2
27 50
28 56
29 8.35
30 50
39 32.1
40 8.4
41 4.29
42 61
43 11.7
44 44
45 0.17
46 1.7
51 3.9
52 3.2
53 2.84
54 8.9
55 66.7
56 5.6
57 0.72
58 94.5
59 8.3
65 5
66 0.23
67 28.4
68 6.7
69 10
70 2.17
71 5.6
72 24
73 2.8
74 0.33
77 2.8
80 6.7
81 10
82 6.1
83 14
84 11.1
85 2
94 1.39
95 10
96 13.9
97 50
98 0.72
109 5.6
110 7.2
111 21.7
112 0.39
124 3.3
125 99.99
126 8.9
139 6.67
140 6.7
153 3.9
154 94.5
155 1.1
156 0.6

$$$$

     RDKit          2D

 10  9  0  0  0  0  0  0  0  0999 V2000
   -6.4952    4.5000    0.0000 C   0  0  0  0  0  0  0  0  0  0  0  0
    2.5981    3.7500    0.0000 C   0  0  0  0  0  0  0  0  0  0  0  0
    1.2990    1.5000    0.0000 C   0  0  0  0  0  0  0  0  0  0  0  0
   -5.1962    3.7500    0.0000 C   0  0  0  0  0  0  0  0  0  0  0  0
    1.2990    4.5000    0.0000 C   0  0  0  0  0  0  0  0  0  0  0  0
   -0.0000    2.2500    0.0000 C   0  0  0  0  0  0  0  0  0  0  0  0
   -3.8971    4.5000    0.0000 C   0  0  0  0  0  0  0  0  0  0  0  0
   -2.5981    3.7500    0.0000 C   0  0  0  0  0  0  0  0  0  0  0  0
   -1.2990    4.5000    0.0000 N   0  0  0  0  0  0  0  0  0  0  0  0
    0.0000    3.7500    0.0000 N   0  0  0  0  0  0  0  0  0  0  0  0
  4  1  1  0
  5  2  1  0
  6  3  1  0
  4  7  2  0
  8  7  1  0
  8  9  2  0
 10  5  1  0
 10  6  1  0
 10  9  1  0
M  END
>  <NAME>  (6982) 
DIETHYLHYDRAZONE BETA-METHYLACRYLALDEHYDE

>  <SYNONYMS>  (6982) 
2-BUTENAL DIETHYLHYDRAZONE

>  <SPECTRUM TYPE>  (6982) 
MS1

>  <INSTRUMENT TYPE>  (6982) 
EI-B

>  <INSTRUMENT>  (6982) 
SHIMADZU LKB-2091

>  <ION MODE>  (6982) 
P

>  <INCHIKEY>  (6982) 
DJLGQXBRZAYBJR-NUXDXBQRSA-N

>  <FORMULA>  (6982) 
C8H16N2

>  <EXACT MASS>  (6982) 
140.131348512

>  <MW>  (6982) 
140

>  <ID>  (6982) 
JP000876

>  <CONTRIBUTOR>  (6982) 
University of Tokyo Team, {Faculty of Engineering, University of Tokyo

>  <COMMENT>  (6982) 
SMILES=CC=CC=NN(CC)CC
InChI=InChI=1S/C8H16N2/c1-4-7-8-9-10(5-2)6-3/h4,7-8H,5-6H2,1-3H3/b7-4+,9-8+
computed SMILES=N(=CC=CC)N(CC)CC
accession=JP000876
date=2016.01.19 (Created 2008.10.21, modified 2011.05.06)
author=SASAKI S, TOYOHASHI UNIV. OF TECH.
license=CC BY-NC-SA
exact mass=140.13135
ionization energy=70 eV
ion type=[M]+*
computed spectral entropy=3.0490449284028243
computed normalized entropy=0.8057325935977879
SPLASH=splash10-004l-9400000000-fc8bc7ffe7015b59f806
submitter=submitter = University of Tokyo Team (Faculty of Engineering, University of Tokyo)
MoNA Rating=3.75

>  <NUM PEAKS>  (6982) 
44

>  <MASS SPECTRAL PEAKS>  (6982) 
26 2.8
27 26.9
28 53.8
29 2
30 31.5
39 24.6
40 5.5
41 3.85
42 33.8
43 6.5
44 21.1
51 0.18
52 1.8
53 10
54 8.1
55 0.77
56 29.6
57 3.9
58 33.1
59 0.21
67 3.7
68 26.9
69 11.5
70 1.46
71 3.2
72 7.7
80 6.9
81 0.43
82 10.8
83 20.8
84 5
94 0.19
95 5.8
96 27.7
97 4.1
110 0.36
111 17.7
112 2
125 99.99
126 0.61
139 3.1
140 92.3
141 7.3
142 0.5

$$$$

     RDKit          2D

 10  9  0  0  0  0  0  0  0  0999 V2000
    1.9486    3.3750    0.0000 C   0  0  0  0  0  0  0  0  0  0  0  0
    0.6495    1.1250    0.0000 C   0  0  0  0  0  0  0  0  0  0  0  0
   -4.5466    5.6250    0.0000 C   0  0  0  0  0  0  0  0  0  0  0  0
   -5.8457    3.3750    0.0000 C   0  0  0  0  0  0  0  0  0  0  0  0
    0.6495    4.1250    0.0000 C   0  0  0  0  0  0  0  0  0  0  0  0
   -0.6495    1.8750    0.0000 C   0  0  0  0  0  0  0  0  0  0  0  0
   -3.2476    3.3750    0.0000 C   0  0  0  0  0  0  0  0  0  0  0  0
   -4.5466    4.1250    0.0000 C   0  0  0  0  0  0  0  0  0  0  0  0
   -1.9486    4.1250    0.0000 N   0  0  0  0  0  0  0  0  0  0  0  0
   -0.6495    3.3750    0.0000 N   0  0  0  0  0  0  0  0  0  0  0  0
  5  1  1  0
  6  2  1  0
  8  3  2  0
  8  4  1  0
  8  7  1  0
  7  9  2  0
 10  5  1  0
 10  6  1  0
 10  9  1  0
M  END
>  <NAME>  (6983) 
DIETHYLHYDRAZONE ALPHA-METHYLACRYLALDEHYDE

>  <SYNONYMS>  (6983) 
2-METHYL-2-PROPENAL DIETHYLHYDRAZONE

>  <SPECTRUM TYPE>  (6983) 
MS1

>  <INSTRUMENT TYPE>  (6983) 
EI-B

>  <INSTRUMENT>  (6983) 
SHIMADZU LKB-2091

>  <ION MODE>  (6983) 
P

>  <INCHIKEY>  (6983) 
PYAFLBXZPSGUKT-VQHVLOKHSA-N

>  <FORMULA>  (6983) 
C8H16N2

>  <EXACT MASS>  (6983) 
140.131348512

>  <MW>  (6983) 
140

>  <ID>  (6983) 
JP000875

>  <CONTRIBUTOR>  (6983) 
University of Tokyo Team, {Faculty of Engineering, University of Tokyo

>  <COMMENT>  (6983) 
SMILES=CCN(CC)N=CC(C)=C
InChI=InChI=1S/C8H16N2/c1-5-10(6-2)9-7-8(3)4/h7H,3,5-6H2,1-2,4H3/b9-7+
computed SMILES=N(=CC(=C)C)N(CC)CC
accession=JP000875
date=2016.01.19 (Created 2008.10.21, modified 2011.05.06)
author=SASAKI S, TOYOHASHI UNIV. OF TECH.
license=CC BY-NC-SA
exact mass=140.13135
ionization energy=70 eV
ion type=[M]+*
computed spectral entropy=3.115875400356853
computed normalized entropy=0.8048859750700736
SPLASH=splash10-01r6-9400000000-a609ad37cb78f5b4fcdd
submitter=submitter = University of Tokyo Team (Faculty of Engineering, University of Tokyo)
MoNA Rating=3.75

>  <NUM PEAKS>  (6983) 
48

>  <MASS SPECTRAL PEAKS>  (6983) 
27 21.6
28 32.5
29 35.1
30 2.43
38 1.5
39 24.3
40 3.5
41 2.97
42 35.1
43 8.4
44 21.6
50 0.08
51 2.2
52 2.2
53 10
54 0.65
55 8.2
56 32.5
57 4.3
58 2.03
59 2.4
67 2.4
68 9.7
69 0.68
70 16.2
71 4
72 3.5
73 0.08
80 10
81 7
82 15.1
83 4.05
84 4
94 0.9
95 3
96 0.43
97 27
98 3.8
99 1
109 0.24
110 3.5
111 99.99
112 8.9
125 4.32
126 4.3
139 2.3
140 56.9
141 8.1

$$$$

     RDKit          2D

  9  8  0  0  0  0  0  0  0  0999 V2000
   -7.4695    3.9375    0.0000 C   0  0  0  0  0  0  0  0  0  0  0  0
    1.6238    3.1875    0.0000 C   0  0  0  0  0  0  0  0  0  0  0  0
    0.3248    5.4375    0.0000 C   0  0  0  0  0  0  0  0  0  0  0  0
   -6.1704    3.1875    0.0000 C   0  0  0  0  0  0  0  0  0  0  0  0
   -4.8714    3.9375    0.0000 C   0  0  0  0  0  0  0  0  0  0  0  0
   -3.5724    3.1875    0.0000 C   0  0  0  0  0  0  0  0  0  0  0  0
    0.3248    3.9375    0.0000 C   0  0  0  0  0  0  0  0  0  0  0  0
   -2.2733    3.9375    0.0000 N   0  0  0  0  0  0  0  0  0  0  0  0
   -0.9743    3.1875    0.0000 N   0  0  0  0  0  0  0  0  0  0  0  0
  4  1  1  0
  4  5  2  0
  6  5  1  0
  7  2  1  0
  7  3  1  0
  6  8  2  0
  9  7  1  0
  9  8  1  0
M  END
>  <NAME>  (6984) 
ISOPROPYLHYDRAZONE CROTONE ALDEHYDE

>  <SYNONYMS>  (6984) 
2-BUTENAL ISOPROPYLHYDRAZONE

>  <SPECTRUM TYPE>  (6984) 
MS1

>  <INSTRUMENT TYPE>  (6984) 
EI-B

>  <INSTRUMENT>  (6984) 
SHIMADZU LKB-2091

>  <ION MODE>  (6984) 
P

>  <INCHIKEY>  (6984) 
VFPIMXUWBJRDMY-DVBIZMGNSA-N

>  <FORMULA>  (6984) 
C7H14N2

>  <EXACT MASS>  (6984) 
126.115698448

>  <MW>  (6984) 
126

>  <ID>  (6984) 
JP000874

>  <CONTRIBUTOR>  (6984) 
University of Tokyo Team, {Faculty of Engineering, University of Tokyo

>  <COMMENT>  (6984) 
SMILES=CC=CC=NNC(C)C
InChI=InChI=1S/C7H14N2/c1-4-5-6-8-9-7(2)3/h4-7,9H,1-3H3/b5-4+,8-6+
computed SMILES=N(=CC=CC)NC(C)C
accession=JP000874
date=2016.01.19 (Created 2008.10.21, modified 2011.05.06)
author=SASAKI S, TOYOHASHI UNIV. OF TECH.
license=CC BY-NC-SA
exact mass=126.1157
ionization energy=70 eV
ion type=[M]+*
computed spectral entropy=2.744951208175092
computed normalized entropy=0.8070543694331678
SPLASH=splash10-01r6-9300000000-4181488a212155c6a426
submitter=submitter = University of Tokyo Team (Faculty of Engineering, University of Tokyo)
MoNA Rating=3.75

>  <NUM PEAKS>  (6984) 
30

>  <MASS SPECTRAL PEAKS>  (6984) 
26 29.5
27 29.5
28 18
29 0.98
30 8.4
39 32.8
40 5.1
41 6.07
42 36.1
43 27
44 86.9
45 0.25
53 7.9
54 4.9
55 13.1
56 2.13
57 3.6
58 6.4
67 6.2
68 2.95
69 27.9
70 6.6
81 2.3
82 0.9
83 55.9
84 4.6
111 99.99
112 0.72
126 59.9
127 5.1

$$$$

     RDKit          2D

  9  8  0  0  0  0  0  0  0  0999 V2000
    2.2733    2.0625    0.0000 C   0  0  0  0  0  0  0  0  0  0  0  0
    0.9743    4.3125    0.0000 C   0  0  0  0  0  0  0  0  0  0  0  0
   -0.3248    0.5625    0.0000 C   0  0  0  0  0  0  0  0  0  0  0  0
   -2.9228    5.0625    0.0000 C   0  0  0  0  0  0  0  0  0  0  0  0
   -0.3248    5.0625    0.0000 C   0  0  0  0  0  0  0  0  0  0  0  0
    0.9743    2.8125    0.0000 C   0  0  0  0  0  0  0  0  0  0  0  0
   -0.3248    2.0625    0.0000 C   0  0  0  0  0  0  0  0  0  0  0  0
   -1.6238    2.8125    0.0000 N   0  0  0  0  0  0  0  0  0  0  0  0
   -1.6238    4.3125    0.0000 N   0  0  0  0  0  0  0  0  0  0  0  0
  6  1  2  0
  6  2  1  0
  7  3  1  0
  7  6  1  0
  7  8  2  0
  9  4  1  0
  9  5  1  0
  9  8  1  0
M  END
>  <NAME>  (6985) 
DIMETHYLHYDRAZONE METHYLISOPROPENYLKETONE

>  <SYNONYMS>  (6985) 
3-METHYL-3-BUTEN-2-ONE DIMETHYLHYDRAZONE

>  <SPECTRUM TYPE>  (6985) 
MS1

>  <INSTRUMENT TYPE>  (6985) 
EI-B

>  <INSTRUMENT>  (6985) 
SHIMADZU LKB-2091

>  <ION MODE>  (6985) 
P

>  <INCHIKEY>  (6985) 
JLTPVBBSSSBMDA-FPLPWBNLSA-N

>  <FORMULA>  (6985) 
C7H14N2

>  <EXACT MASS>  (6985) 
126.11569844799999

>  <MW>  (6985) 
126

>  <ID>  (6985) 
JP000873

>  <CONTRIBUTOR>  (6985) 
University of Tokyo Team, {Faculty of Engineering, University of Tokyo

>  <COMMENT>  (6985) 
SMILES=CN(C)N=C(C)C(C)=C
InChI=InChI=1S/C7H14N2/c1-6(2)7(3)8-9(4)5/h1H2,2-5H3/b8-7-
computed SMILES=N(=C(C(=C)C)C)N(C)C
accession=JP000873
date=2016.01.19 (Created 2008.10.21, modified 2011.05.06)
author=SASAKI S, TOYOHASHI UNIV. OF TECH.
license=CC BY-NC-SA
exact mass=126.1157
ionization energy=70 eV
ion type=[M]+*
computed spectral entropy=2.7627572435347885
computed normalized entropy=0.7216025105062768
SPLASH=splash10-03fu-9600000000-3141612566cd46eb94a8
submitter=submitter = University of Tokyo Team (Faculty of Engineering, University of Tokyo)
MoNA Rating=3.75

>  <NUM PEAKS>  (6985) 
46

>  <MASS SPECTRAL PEAKS>  (6985) 
28 13.1
29 2.5
30 18
38 0.16
39 14.7
40 4.9
41 21.3
42 6.56
43 21.3
44 36.1
45 10.7
50 0.07
51 1.5
52 1.1
53 5.9
54 0.18
55 3.4
56 5.6
57 1.5
58 1.25
59 2.1
65 1
66 0.8
67 0.46
68 4.1
69 1.6
70 18
71 0.21
72 1.5
80 0.4
81 0.9
82 0.28
83 1.3
84 2.3
85 0.8
94 0.06
95 4.1
96 4.4
97 0.7
109 0.18
110 1
111 99.99
112 8.9
125 0.3
126 42.6
127 5.4

$$$$

     RDKit          2D

  9  8  0  0  0  0  0  0  0  0999 V2000
    2.2733    2.8125    0.0000 C   0  0  0  0  0  0  0  0  0  0  0  0
    0.9743    5.0625    0.0000 C   0  0  0  0  0  0  0  0  0  0  0  0
   -5.5209    2.8125    0.0000 C   0  0  0  0  0  0  0  0  0  0  0  0
   -4.2219    5.0625    0.0000 C   0  0  0  0  0  0  0  0  0  0  0  0
   -0.3248    2.8125    0.0000 C   0  0  0  0  0  0  0  0  0  0  0  0
   -1.6238    3.5625    0.0000 C   0  0  0  0  0  0  0  0  0  0  0  0
    0.9743    3.5625    0.0000 C   0  0  0  0  0  0  0  0  0  0  0  0
   -2.9228    2.8125    0.0000 N   0  0  0  0  0  0  0  0  0  0  0  0
   -4.2219    3.5625    0.0000 N   0  0  0  0  0  0  0  0  0  0  0  0
  6  5  1  0
  7  1  1  0
  7  2  1  0
  7  5  2  0
  6  8  2  0
  9  3  1  0
  9  4  1  0
  9  8  1  0
M  END
>  <NAME>  (6986) 
DIMETHYLHYDRAZONE BETA.BETA-DIMETHYLACRYLALDEHYDE

>  <SYNONYMS>  (6986) 
3-METHYL-2-BUTENAL DIMETHYLHYDRAZONE

>  <SPECTRUM TYPE>  (6986) 
MS1

>  <INSTRUMENT TYPE>  (6986) 
EI-B

>  <INSTRUMENT>  (6986) 
SHIMADZU LKB-2091

>  <ION MODE>  (6986) 
P

>  <INCHIKEY>  (6986) 
KZFYEQGUCXROPI-SOFGYWHQSA-N

>  <FORMULA>  (6986) 
C7H14N2

>  <EXACT MASS>  (6986) 
126.11569844799999

>  <MW>  (6986) 
126

>  <ID>  (6986) 
JP000872

>  <CONTRIBUTOR>  (6986) 
University of Tokyo Team, {Faculty of Engineering, University of Tokyo

>  <COMMENT>  (6986) 
SMILES=CC(C)=CC=NN(C)C
InChI=InChI=1S/C7H14N2/c1-7(2)5-6-8-9(3)4/h5-6H,1-4H3/b8-6+
computed SMILES=N(=CC=C(C)C)N(C)C
accession=JP000872
date=2016.01.19 (Created 2008.10.21, modified 2011.05.06)
author=SASAKI S, TOYOHASHI UNIV. OF TECH.
license=CC BY-NC-SA
exact mass=126.1157
ionization energy=70 eV
ion type=[M]+*
computed spectral entropy=3.274375780654779
computed normalized entropy=0.8370032016967701
SPLASH=splash10-0036-9100000000-3b0ee1965f90cb8e9eef
submitter=submitter = University of Tokyo Team (Faculty of Engineering, University of Tokyo)
MoNA Rating=3.75

>  <NUM PEAKS>  (6986) 
50

>  <MASS SPECTRAL PEAKS>  (6986) 
26 9
27 24.5
28 67.8
29 2.2
30 23.7
38 3.6
39 30.5
40 0.68
41 35.6
42 74.6
43 63.6
44 8.3
45 23.7
46 16.9
51 5.2
52 0.32
53 20.3
54 6.3
55 39
56 1.86
57 5.4
58 27.1
59 15.2
63 0.68
65 4.4
66 3
67 30.5
68 2.2
69 3.9
70 12.7
71 6.4
80 2.37
81 22
82 57.6
83 54.2
84 5.68
85 3.7
94 7.4
95 6.9
96 2.54
97 5.4
98 6.4
108 3.6
109 0.34
110 2.7
111 20.3
112 1
125 0.27
126 99.99
127 8.5

$$$$

     RDKit          2D

  9  8  0  0  0  0  0  0  0  0999 V2000
   -6.4952    3.7500    0.0000 C   0  0  0  0  0  0  0  0  0  0  0  0
   -5.1962    0.0000    0.0000 C   0  0  0  0  0  0  0  0  0  0  0  0
    0.0000    1.5000    0.0000 C   0  0  0  0  0  0  0  0  0  0  0  0
   -1.2990    3.7500    0.0000 C   0  0  0  0  0  0  0  0  0  0  0  0
   -6.4952    2.2500    0.0000 C   0  0  0  0  0  0  0  0  0  0  0  0
   -3.8971    2.2500    0.0000 C   0  0  0  0  0  0  0  0  0  0  0  0
   -5.1962    1.5000    0.0000 C   0  0  0  0  0  0  0  0  0  0  0  0
   -2.5981    1.5000    0.0000 N   0  0  0  0  0  0  0  0  0  0  0  0
   -1.2990    2.2500    0.0000 N   0  0  0  0  0  0  0  0  0  0  0  0
  5  1  1  0
  7  2  1  0
  5  7  2  0
  7  6  1  0
  6  8  2  0
  9  3  1  0
  9  4  1  0
  9  8  1  0
M  END
>  <NAME>  (6987) 
DIMETHYLHYDRAZONE TIGLYLALDEHYDE

>  <SYNONYMS>  (6987) 
2-METHYL-2-BUTENAL DIMETHYLHYDRAZONE

>  <SPECTRUM TYPE>  (6987) 
MS1

>  <INSTRUMENT TYPE>  (6987) 
EI-B

>  <INSTRUMENT>  (6987) 
SHIMADZU LKB-2091

>  <ION MODE>  (6987) 
P

>  <INCHIKEY>  (6987) 
OQGHKNMZJCKZBC-CGXWXWIYSA-N

>  <FORMULA>  (6987) 
C7H14N2

>  <EXACT MASS>  (6987) 
126.115698448

>  <MW>  (6987) 
126

>  <ID>  (6987) 
JP000871

>  <CONTRIBUTOR>  (6987) 
University of Tokyo Team, {Faculty of Engineering, University of Tokyo

>  <COMMENT>  (6987) 
SMILES=CC=C(C)C=NN(C)C
InChI=InChI=1S/C7H14N2/c1-5-7(2)6-8-9(3)4/h5-6H,1-4H3/b7-5-,8-6+
computed SMILES=N(=CC(=CC)C)N(C)C
accession=JP000871
date=2016.01.19 (Created 2008.10.21, modified 2011.05.06)
author=SASAKI S, TOYOHASHI UNIV. OF TECH.
license=CC BY-NC-SA
exact mass=126.1157
ionization energy=70 eV
ion type=[M]+*
computed spectral entropy=3.1808141524303086
computed normalized entropy=0.7973995672331542
SPLASH=splash10-002f-9100000000-ba0e6e30518b3ff9ee91
submitter=submitter = University of Tokyo Team (Faculty of Engineering, University of Tokyo)
MoNA Rating=3.75

>  <NUM PEAKS>  (6987) 
54

>  <MASS SPECTRAL PEAKS>  (6987) 
26 1.3
28 32.5
29 27
30 2.98
31 1.1
37 1.1
38 0.3
39 2.7
40 6.5
41 29.8
42 76
43 5.15
44 99.99
45 30
46 17.6
49 0.1
50 2.4
51 3.5
52 3.8
53 2.22
54 11.6
55 40.6
56 21.4
57 0.57
58 11.1
59 8.1
63 6.2
65 0.46
66 2.2
67 27
68 9
69 0.32
70 21.4
71 5.4
72 4.6
80 0.13
81 25.7
82 93
83 22.7
84 1.08
85 1.1
94 4.6
95 6.8
96 1.02
97 4.6
98 3.5
108 0.7
109 0.32
110 24.3
111 46
112 3.8
125 0.3
126 67.6
127 6.6

$$$$

     RDKit          2D

  8  7  0  0  0  0  0  0  0  0999 V2000
    1.9486    3.3750    0.0000 C   0  0  0  0  0  0  0  0  0  0  0  0
   -5.8457    3.3750    0.0000 C   0  0  0  0  0  0  0  0  0  0  0  0
   -4.5466    5.6250    0.0000 C   0  0  0  0  0  0  0  0  0  0  0  0
    0.6495    4.1250    0.0000 C   0  0  0  0  0  0  0  0  0  0  0  0
   -0.6495    3.3750    0.0000 C   0  0  0  0  0  0  0  0  0  0  0  0
   -1.9486    4.1250    0.0000 C   0  0  0  0  0  0  0  0  0  0  0  0
   -3.2476    3.3750    0.0000 N   0  0  0  0  0  0  0  0  0  0  0  0
   -4.5466    4.1250    0.0000 N   0  0  0  0  0  0  0  0  0  0  0  0
  4  1  1  0
  4  5  2  0
  6  5  1  0
  6  7  2  0
  8  2  1  0
  8  3  1  0
  8  7  1  0
M  END
>  <NAME>  (6988) 
DIMETHYLHYDRAZONE BETA-METHYLACRYLALDEHYDE

>  <SYNONYMS>  (6988) 
2-BUTENAL DIMETHYLHYDRAZONE

>  <SPECTRUM TYPE>  (6988) 
MS1

>  <INSTRUMENT TYPE>  (6988) 
EI-B

>  <INSTRUMENT>  (6988) 
SHIMADZU LKB-2091

>  <ION MODE>  (6988) 
P

>  <INCHIKEY>  (6988) 
KVKJBRFOURXWON-YTXTXJHMSA-N

>  <FORMULA>  (6988) 
C6H12N2

>  <EXACT MASS>  (6988) 
112.10004838399999

>  <MW>  (6988) 
112

>  <ID>  (6988) 
JP000870

>  <CONTRIBUTOR>  (6988) 
University of Tokyo Team, {Faculty of Engineering, University of Tokyo

>  <COMMENT>  (6988) 
SMILES=CC=CC=NN(C)C
InChI=InChI=1S/C6H12N2/c1-4-5-6-7-8(2)3/h4-6H,1-3H3/b5-4+,7-6+
computed SMILES=N(=CC=CC)N(C)C
accession=JP000870
date=2016.01.19 (Created 2008.10.21, modified 2011.05.06)
author=SASAKI S, TOYOHASHI UNIV. OF TECH.
license=CC BY-NC-SA
exact mass=112.10005
ionization energy=70 eV
ion type=[M]+*
computed spectral entropy=3.0035569635281174
computed normalized entropy=0.803590811995734
SPLASH=splash10-0296-9100000000-1e311aa008df93b3b319
submitter=submitter = University of Tokyo Team (Faculty of Engineering, University of Tokyo)
MoNA Rating=3.75

>  <NUM PEAKS>  (6988) 
42

>  <MASS SPECTRAL PEAKS>  (6988) 
28 47.7
29 8.7
30 21.3
37 0.21
38 5.2
39 34.8
40 6.1
41 5.11
42 78.1
43 47.7
44 74
45 2.83
46 11.7
50 1.9
51 3.9
52 0.27
53 14.8
54 9.6
55 6.5
56 4.35
57 10
58 7.8
59 7.4
67 2.35
68 69.5
69 31.3
70 36.1
71 0.48
80 4.3
81 4.6
82 13
83 0.76
84 9.3
85 1.2
94 1.7
95 0.41
96 4.3
97 30
98 2
111 0.65
112 99.99
113 10

$$$$

     RDKit          2D

 11 10  0  0  0  0  0  0  0  0999 V2000
   -8.4437    3.3750    0.0000 C   0  0  0  0  0  0  0  0  0  0  0  0
    0.6495    2.6250    0.0000 C   0  0  0  0  0  0  0  0  0  0  0  0
   -1.9486    7.1250    0.0000 C   0  0  0  0  0  0  0  0  0  0  0  0
   -7.1447    2.6250    0.0000 C   0  0  0  0  0  0  0  0  0  0  0  0
   -0.6495    3.3750    0.0000 C   0  0  0  0  0  0  0  0  0  0  0  0
   -1.9486    5.6250    0.0000 C   0  0  0  0  0  0  0  0  0  0  0  0
   -5.8457    3.3750    0.0000 C   0  0  0  0  0  0  0  0  0  0  0  0
   -1.9486    2.6250    0.0000 C   0  0  0  0  0  0  0  0  0  0  0  0
   -3.2476    4.8750    0.0000 C   0  0  0  0  0  0  0  0  0  0  0  0
   -4.5466    2.6250    0.0000 N   0  0  0  0  0  0  0  0  0  0  0  0
   -3.2476    3.3750    0.0000 N   0  0  0  0  0  0  0  0  0  0  0  0
  4  1  2  0
  5  2  2  0
  6  3  2  0
  7  4  1  0
  8  5  1  0
  9  6  1  0
  7 10  2  0
 11  8  1  0
 11  9  1  0
 11 10  1  0
M  END
>  <NAME>  (6989) 
DIALLYLHYDRAZONE ACRYLALDEHYDE

>  <SYNONYMS>  (6989) 
ACRYLALDEHYDE DIALLYLHYDRAZONE

>  <SPECTRUM TYPE>  (6989) 
MS1

>  <INSTRUMENT TYPE>  (6989) 
EI-B

>  <INSTRUMENT>  (6989) 
SHIMADZU LKB-2091

>  <ION MODE>  (6989) 
P

>  <INCHIKEY>  (6989) 
UBWAKKDBDWRUAI-JXMROGBWSA-N

>  <FORMULA>  (6989) 
C9H14N2

>  <EXACT MASS>  (6989) 
150.115698448

>  <MW>  (6989) 
150

>  <ID>  (6989) 
JP000869

>  <CONTRIBUTOR>  (6989) 
University of Tokyo Team, {Faculty of Engineering, University of Tokyo

>  <COMMENT>  (6989) 
SMILES=C=CC=NN(CC=C)CC=C
InChI=InChI=1S/C9H14N2/c1-4-7-10-11(8-5-2)9-6-3/h4-7H,1-3,8-9H2/b10-7+
computed SMILES=N(=CC=C)N(CC=C)CC=C
accession=JP000869
date=2016.01.19 (Created 2008.10.21, modified 2011.05.06)
author=SASAKI S, TOYOHASHI UNIV. OF TECH.
license=CC BY-NC-SA
exact mass=150.1157
ionization energy=70 eV
ion type=[M]+*
computed spectral entropy=2.2630678193120506
computed normalized entropy=0.6590204577222208
SPLASH=splash10-0006-9100000000-52853bb32d9b4121556a
submitter=submitter = University of Tokyo Team (Faculty of Engineering, University of Tokyo)
MoNA Rating=3.75

>  <NUM PEAKS>  (6989) 
31

>  <MASS SPECTRAL PEAKS>  (6989) 
29 4
38 1.8
39 31.5
40 1.4
41 99.99
42 6.2
52 0.9
53 1.65
54 7.5
55 8.8
56 2.3
65 0.18
66 2.2
67 2.9
68 5.5
69 0.45
77 2
79 7.8
80 2.1
81 2.48
82 2.7
94 1.8
95 0.9
107 0.07
109 12.2
110 0.9
123 3.3
124 0.03
149 0.9
150 22
151 2.2

$$$$

     RDKit          2D

 11 10  0  0  0  0  0  0  0  0999 V2000
   -8.4437    3.3750    0.0000 C   0  0  0  0  0  0  0  0  0  0  0  0
    0.6495    2.6250    0.0000 C   0  0  0  0  0  0  0  0  0  0  0  0
   -1.9486    7.1250    0.0000 C   0  0  0  0  0  0  0  0  0  0  0  0
   -7.1447    2.6250    0.0000 C   0  0  0  0  0  0  0  0  0  0  0  0
   -0.6495    3.3750    0.0000 C   0  0  0  0  0  0  0  0  0  0  0  0
   -1.9486    5.6250    0.0000 C   0  0  0  0  0  0  0  0  0  0  0  0
   -5.8457    3.3750    0.0000 C   0  0  0  0  0  0  0  0  0  0  0  0
   -1.9486    2.6250    0.0000 C   0  0  0  0  0  0  0  0  0  0  0  0
   -3.2476    4.8750    0.0000 C   0  0  0  0  0  0  0  0  0  0  0  0
   -4.5466    2.6250    0.0000 N   0  0  0  0  0  0  0  0  0  0  0  0
   -3.2476    3.3750    0.0000 N   0  0  0  0  0  0  0  0  0  0  0  0
  4  1  1  0
  5  2  2  0
  6  3  2  0
  7  4  1  0
  8  5  1  0
  9  6  1  0
  7 10  2  0
 11  8  1  0
 11  9  1  0
 11 10  1  0
M  END
>  <NAME>  (6990) 
DIALLYLHYDRAZONE PROPIONALDEHYDE

>  <SYNONYMS>  (6990) 
PROPIONALDEHYDE DIALLYLHYDRAZONE

>  <SPECTRUM TYPE>  (6990) 
MS1

>  <INSTRUMENT TYPE>  (6990) 
EI-B

>  <INSTRUMENT>  (6990) 
SHIMADZU LKB-2091

>  <ION MODE>  (6990) 
P

>  <INCHIKEY>  (6990) 
QOVUMEUQTMXUOS-JXMROGBWSA-N

>  <FORMULA>  (6990) 
C9H16N2

>  <EXACT MASS>  (6990) 
152.131348512

>  <MW>  (6990) 
152

>  <ID>  (6990) 
JP000868

>  <CONTRIBUTOR>  (6990) 
University of Tokyo Team, {Faculty of Engineering, University of Tokyo

>  <COMMENT>  (6990) 
SMILES=CCC=NN(CC=C)CC=C
InChI=InChI=1S/C9H16N2/c1-4-7-10-11(8-5-2)9-6-3/h5-7H,2-4,8-9H2,1H3/b10-7+
computed SMILES=N(=CCC)N(CC=C)CC=C
accession=JP000868
date=2016.01.19 (Created 2008.10.21, modified 2011.05.06)
author=SASAKI S, TOYOHASHI UNIV. OF TECH.
license=CC BY-NC-SA
exact mass=152.13135
ionization energy=70 eV
ion type=[M]+*
computed spectral entropy=2.5169978934480106
computed normalized entropy=0.6870357691693497
SPLASH=splash10-0006-9100000000-ac4ee319bf01d9e5b2dd
submitter=submitter = University of Tokyo Team (Faculty of Engineering, University of Tokyo)
MoNA Rating=3.75

>  <NUM PEAKS>  (6990) 
39

>  <MASS SPECTRAL PEAKS>  (6990) 
28 11.8
29 10.2
30 2.6
38 0.12
39 21.4
40 4.6
41 99.99
42 0.9
43 6.9
53 2.4
54 5.6
55 5.62
56 9.6
57 0.8
58 0.8
67 0.33
68 4.7
69 4
70 3
73 0.14
81 2.2
82 2.2
83 9
84 0.14
94 1.5
95 1.1
96 2.1
97 0.1
109 1.1
110 0.7
111 2
123 0.32
124 2.7
125 9.6
126 1
137 0.1
151 1.4
152 16.9
153 2.7

$$$$

     RDKit          2D

 10  9  0  0  0  0  0  0  0  0999 V2000
   -7.7942    3.7500    0.0000 C   0  0  0  0  0  0  0  0  0  0  0  0
    0.0000    6.7500    0.0000 C   0  0  0  0  0  0  0  0  0  0  0  0
   -0.0000    3.7500    0.0000 C   0  0  0  0  0  0  0  0  0  0  0  0
   -3.8971    6.0000    0.0000 C   0  0  0  0  0  0  0  0  0  0  0  0
   -6.4952    4.5000    0.0000 C   0  0  0  0  0  0  0  0  0  0  0  0
   -1.2990    6.0000    0.0000 C   0  0  0  0  0  0  0  0  0  0  0  0
   -5.1962    3.7500    0.0000 C   0  0  0  0  0  0  0  0  0  0  0  0
   -1.2990    4.5000    0.0000 C   0  0  0  0  0  0  0  0  0  0  0  0
   -2.5981    3.7500    0.0000 N   0  0  0  0  0  0  0  0  0  0  0  0
   -3.8971    4.5000    0.0000 N   0  0  0  0  0  0  0  0  0  0  0  0
  5  1  2  0
  6  2  1  0
  7  5  1  0
  8  3  1  0
  8  6  1  0
  8  9  2  0
 10  4  1  0
 10  7  1  0
 10  9  1  0
M  END
>  <NAME>  (6991) 
METHYLALLYLHYDRAZONE METHYLETHYLKETONE

>  <SYNONYMS>  (6991) 
2-BUTANONE ALLYLMETHYLHYDRAZONE

>  <SPECTRUM TYPE>  (6991) 
MS1

>  <INSTRUMENT TYPE>  (6991) 
EI-B

>  <INSTRUMENT>  (6991) 
SHIMADZU LKB-2091

>  <ION MODE>  (6991) 
P

>  <INCHIKEY>  (6991) 
CQUSZUHIHJRXMG-HJWRWDBZSA-N

>  <FORMULA>  (6991) 
C8H16N2

>  <EXACT MASS>  (6991) 
140.131348512

>  <MW>  (6991) 
140

>  <ID>  (6991) 
JP000867

>  <CONTRIBUTOR>  (6991) 
University of Tokyo Team, {Faculty of Engineering, University of Tokyo

>  <COMMENT>  (6991) 
SMILES=C=CCN(C)N=C(C)CC
InChI=InChI=1S/C8H16N2/c1-5-7-10(4)9-8(3)6-2/h5H,1,6-7H2,2-4H3/b9-8-
computed SMILES=N(=C(C)CC)N(C)CC=C
accession=JP000867
date=2016.01.19 (Created 2008.10.21, modified 2011.05.06)
author=SASAKI S, TOYOHASHI UNIV. OF TECH.
license=CC BY-NC-SA
exact mass=140.13135
ionization energy=70 eV
ion type=[M]+*
computed spectral entropy=2.879986704557176
computed normalized entropy=0.7755300429952566
SPLASH=splash10-0006-9000000000-234bde46d2f74e4c22ae
submitter=submitter = University of Tokyo Team (Faculty of Engineering, University of Tokyo)
MoNA Rating=3.75

>  <NUM PEAKS>  (6991) 
41

>  <MASS SPECTRAL PEAKS>  (6991) 
26 2
27 15
28 12.4
29 1.67
30 19
31 0.8
32 2.9
39 1.57
40 2.9
41 34.8
42 99.99
43 4.29
44 19.3
45 1.9
53 2.3
54 0.33
55 30
56 12.9
57 2.7
58 2.29
59 1.2
68 15.7
69 5.2
70 3.39
71 10.5
72 3.6
82 1.6
83 0.22
84 2
97 12.9
98 2.1
99 6.2
100 4.3
111 3.6
112 1.6
113 3.39
114 2.4
125 3.3
139 2.2
140 4.29
141 5.2

$$$$

     RDKit          2D

 10  9  0  0  0  0  0  0  0  0999 V2000
   -7.7942    3.7500    0.0000 C   0  0  0  0  0  0  0  0  0  0  0  0
    0.0000    6.7500    0.0000 C   0  0  0  0  0  0  0  0  0  0  0  0
   -5.1962    2.2500    0.0000 C   0  0  0  0  0  0  0  0  0  0  0  0
   -0.0000    3.7500    0.0000 C   0  0  0  0  0  0  0  0  0  0  0  0
   -6.4952    4.5000    0.0000 C   0  0  0  0  0  0  0  0  0  0  0  0
   -1.2990    6.0000    0.0000 C   0  0  0  0  0  0  0  0  0  0  0  0
   -5.1962    3.7500    0.0000 C   0  0  0  0  0  0  0  0  0  0  0  0
   -1.2990    4.5000    0.0000 C   0  0  0  0  0  0  0  0  0  0  0  0
   -3.8971    4.5000    0.0000 N   0  0  0  0  0  0  0  0  0  0  0  0
   -2.5981    3.7500    0.0000 N   0  0  0  0  0  0  0  0  0  0  0  0
  5  1  2  0
  6  2  1  0
  7  3  1  0
  7  5  1  0
  8  4  1  0
  8  6  1  0
  9  7  1  0
  8 10  2  0
 10  9  1  0
M  END
>  <NAME>  (6992) 
ISOCROTYLHYDRAZONE METHYLETHYLKETONE

>  <SYNONYMS>  (6992) 
2-BUTANONE (1-METHYL-2-PROPENYL)HYDRAZONE

>  <SPECTRUM TYPE>  (6992) 
MS1

>  <INSTRUMENT TYPE>  (6992) 
EI-B

>  <INSTRUMENT>  (6992) 
SHIMADZU LKB-2091

>  <ION MODE>  (6992) 
P

>  <INCHIKEY>  (6992) 
FZUFUZKXCVIZON-NTMALXAHSA-N

>  <FORMULA>  (6992) 
C8H16N2

>  <EXACT MASS>  (6992) 
140.131348512

>  <MW>  (6992) 
140

>  <ID>  (6992) 
JP000866

>  <CONTRIBUTOR>  (6992) 
University of Tokyo Team, {Faculty of Engineering, University of Tokyo

>  <COMMENT>  (6992) 
SMILES=CCC(C)=NNC(C)C=C
InChI=InChI=1S/C8H16N2/c1-5-7(3)9-10-8(4)6-2/h5,7,9H,1,6H2,2-4H3/b10-8-
computed SMILES=N(NC(C=C)C)=C(C)CC
accession=JP000866
date=2016.01.19 (Created 2008.10.21, modified 2011.05.06)
author=SASAKI S, TOYOHASHI UNIV. OF TECH.
license=CC BY-NC-SA
exact mass=140.13135
ionization energy=70 eV
ion type=[M]+*
computed spectral entropy=2.947604696055784
computed normalized entropy=0.7743278275856895
SPLASH=splash10-0006-9200000000-3f3480c74328a6255ad1
submitter=submitter = University of Tokyo Team (Faculty of Engineering, University of Tokyo)
MoNA Rating=3.75

>  <NUM PEAKS>  (6992) 
45

>  <MASS SPECTRAL PEAKS>  (6992) 
27 18.5
28 13
29 33.3
30 1.35
31 1
39 11.7
40 2.2
41 2.41
42 99.99
43 8.2
44 22.3
45 0.1
51 1.1
52 1
53 4.8
54 0.72
55 33.3
56 27.8
57 13.9
58 0.24
62.5 1.2
68 18.5
69 7.2
70 2.41
71 5
72 2.2
82 2.2
83 0.15
84 3.2
85 25.9
86 4.3
96 0.11
97 2.2
98 1.5
111 6.7
112 0.1
113 14.6
114 1.1
124 1.7
125 8.9
126 8.9
139 2
140 48.2
141 0.89
142 1.1

$$$$

     RDKit          2D

 10  9  0  0  0  0  0  0  0  0999 V2000
   -8.4437    5.6250    0.0000 C   0  0  0  0  0  0  0  0  0  0  0  0
    3.2476    4.8750    0.0000 C   0  0  0  0  0  0  0  0  0  0  0  0
   -7.1447    4.8750    0.0000 C   0  0  0  0  0  0  0  0  0  0  0  0
    1.9486    5.6250    0.0000 C   0  0  0  0  0  0  0  0  0  0  0  0
   -5.8457    5.6250    0.0000 C   0  0  0  0  0  0  0  0  0  0  0  0
    0.6495    4.8750    0.0000 C   0  0  0  0  0  0  0  0  0  0  0  0
   -4.5466    4.8750    0.0000 C   0  0  0  0  0  0  0  0  0  0  0  0
   -0.6495    5.6250    0.0000 C   0  0  0  0  0  0  0  0  0  0  0  0
   -3.2476    5.6250    0.0000 N   0  0  0  0  0  0  0  0  0  0  0  0
   -1.9486    4.8750    0.0000 N   0  0  0  0  0  0  0  0  0  0  0  0
  3  1  1  0
  4  2  1  0
  3  5  2  0
  6  4  1  0
  7  5  1  0
  8  6  1  0
  9  7  1  0
  8 10  2  0
 10  9  1  0
M  END
>  <NAME>  (6993) 
CROTYLHYDRAZONE BUTYRALDEHYDE

>  <SYNONYMS>  (6993) 
BUTYRALDEHYDE 2-BUTENYLHYDRAZONE

>  <SPECTRUM TYPE>  (6993) 
MS1

>  <INSTRUMENT TYPE>  (6993) 
EI-B

>  <INSTRUMENT>  (6993) 
SHIMADZU LKB-2091

>  <ION MODE>  (6993) 
P

>  <INCHIKEY>  (6993) 
NJOLUQSSLMAZEB-KWRXBJJZSA-N

>  <FORMULA>  (6993) 
C8H16N2

>  <EXACT MASS>  (6993) 
140.131348512

>  <MW>  (6993) 
140

>  <ID>  (6993) 
JP000865

>  <CONTRIBUTOR>  (6993) 
University of Tokyo Team, {Faculty of Engineering, University of Tokyo

>  <COMMENT>  (6993) 
SMILES=CCCC=NNCC=CC
InChI=InChI=1S/C8H16N2/c1-3-5-7-9-10-8-6-4-2/h3,5,8-9H,4,6-7H2,1-2H3/b5-3+,10-8+
computed SMILES=N(=CCCC)NCC=CC
accession=JP000865
date=2016.01.19 (Created 2008.10.21, modified 2011.05.06)
author=SASAKI S, TOYOHASHI UNIV. OF TECH.
license=CC BY-NC-SA
exact mass=140.13135
ionization energy=70 eV
ion type=[M]+*
computed spectral entropy=3.1488425104323907
computed normalized entropy=0.8271924602967311
SPLASH=splash10-0a6r-9000000000-53a5e46919eb226af54c
submitter=submitter = University of Tokyo Team (Faculty of Engineering, University of Tokyo)
MoNA Rating=3.75

>  <NUM PEAKS>  (6993) 
45

>  <MASS SPECTRAL PEAKS>  (6993) 
27 59
28 43.3
29 66.8
30 3.78
31 3.4
39 32.2
40 5.3
41 8.56
42 20
43 65.6
44 41.1
45 0.21
51 1.9
53 10
54 6.8
55 99.99
56 43.4
57 41.5
58 35.6
67 0.2
68 26.6
69 21.1
70 26.6
71 1.56
72 6.1
80 1.4
81 1.7
82 0.37
83 5.4
84 4.1
85 24.5
86 3.33
87 1.8
95 1.8
96 1.9
97 2.78
98 5.4
99 11.1
111 17.8
112 0.66
113 1.8
125 15.6
139 4.3
140 5.68
141 6.3

$$$$

     RDKit          2D

  9  8  0  0  0  0  0  0  0  0999 V2000
   -6.1704    3.9375    0.0000 C   0  0  0  0  0  0  0  0  0  0  0  0
    1.6238    2.4375    0.0000 C   0  0  0  0  0  0  0  0  0  0  0  0
    0.3248    4.6875    0.0000 C   0  0  0  0  0  0  0  0  0  0  0  0
   -2.2733    4.6875    0.0000 C   0  0  0  0  0  0  0  0  0  0  0  0
   -4.8714    3.1875    0.0000 C   0  0  0  0  0  0  0  0  0  0  0  0
   -3.5724    2.4375    0.0000 C   0  0  0  0  0  0  0  0  0  0  0  0
    0.3248    3.1875    0.0000 C   0  0  0  0  0  0  0  0  0  0  0  0
   -0.9743    2.4375    0.0000 N   0  0  0  0  0  0  0  0  0  0  0  0
   -2.2733    3.1875    0.0000 N   0  0  0  0  0  0  0  0  0  0  0  0
  5  1  3  0
  6  5  1  0
  7  2  1  0
  7  3  1  0
  8  7  2  0
  9  4  1  0
  9  6  1  0
  9  8  1  0
M  END
>  <NAME>  (6994) 
METHYLPROPARGYLHYDRAZONE ACETONE

>  <SYNONYMS>  (6994) 
ACETONE METHYL(2-PROPYNYL)HYDRAZONE

>  <SPECTRUM TYPE>  (6994) 
MS1

>  <INSTRUMENT TYPE>  (6994) 
EI-B

>  <INSTRUMENT>  (6994) 
SHIMADZU LKB-2091

>  <ION MODE>  (6994) 
P

>  <INCHIKEY>  (6994) 
DACHQBBVFBDBSA-UHFFFAOYSA-N

>  <FORMULA>  (6994) 
C7H12N2

>  <EXACT MASS>  (6994) 
124.10004838399999

>  <MW>  (6994) 
124

>  <ID>  (6994) 
JP000864

>  <CONTRIBUTOR>  (6994) 
University of Tokyo Team, {Faculty of Engineering, University of Tokyo

>  <COMMENT>  (6994) 
SMILES=C#CCN(C)N=C(C)C
InChI=InChI=1S/C7H12N2/c1-5-6-9(4)8-7(2)3/h1H,6H2,2-4H3
computed SMILES=C#CCN(N=C(C)C)C
accession=JP000864
date=2016.01.19 (Created 2008.10.21, modified 2011.05.06)
author=SASAKI S, TOYOHASHI UNIV. OF TECH.
license=CC BY-NC-SA
exact mass=124.10005
ionization energy=70 eV
ion type=[M]+*
computed spectral entropy=2.6455217611085726
computed normalized entropy=0.7272739792114135
SPLASH=splash10-05ac-9100000000-146f67eb33cdcdb3dd9f
submitter=submitter = University of Tokyo Team (Faculty of Engineering, University of Tokyo)
MoNA Rating=3.75

>  <NUM PEAKS>  (6994) 
38

>  <MASS SPECTRAL PEAKS>  (6994) 
26 3.1
27 12.5
28 15
29 0.88
37 3
38 8.1
39 48.8
40 1
41 40
42 65.6
43 18.8
44 3.75
45 2.5
51 1.2
52 3.4
53 0.62
54 4.9
55 3.8
56 98.8
57 0.49
65 1.6
66 8.8
67 3.6
68 1
69 2.4
70 2.4
79 8.8
80 0.19
81 88.8
82 8.8
85 99.99
86 0.58
94 1.2
99 0.8
109 9.4
123 1
124 83.8
125 7.8

$$$$

     RDKit          2D

  9  8  0  0  0  0  0  0  0  0999 V2000
    1.9486    3.3750    0.0000 C   0  0  0  0  0  0  0  0  0  0  0  0
   -5.8457    3.3750    0.0000 C   0  0  0  0  0  0  0  0  0  0  0  0
   -4.5466    5.6250    0.0000 C   0  0  0  0  0  0  0  0  0  0  0  0
   -1.9486    5.6250    0.0000 C   0  0  0  0  0  0  0  0  0  0  0  0
    0.6495    4.1250    0.0000 C   0  0  0  0  0  0  0  0  0  0  0  0
   -0.6495    3.3750    0.0000 C   0  0  0  0  0  0  0  0  0  0  0  0
   -4.5466    4.1250    0.0000 C   0  0  0  0  0  0  0  0  0  0  0  0
   -3.2476    3.3750    0.0000 N   0  0  0  0  0  0  0  0  0  0  0  0
   -1.9486    4.1250    0.0000 N   0  0  0  0  0  0  0  0  0  0  0  0
  5  1  2  0
  6  5  1  0
  7  2  1  0
  7  3  1  0
  8  7  2  0
  9  4  1  0
  9  6  1  0
  9  8  1  0
M  END
>  <NAME>  (6995) 
METHYLALLYLHYDRAZONE ACETONE

>  <SYNONYMS>  (6995) 
ACETONE ALLYLMETHYLHYDRAZONE

>  <SPECTRUM TYPE>  (6995) 
MS1

>  <INSTRUMENT TYPE>  (6995) 
EI-B

>  <INSTRUMENT>  (6995) 
SHIMADZU LKB-2091

>  <ION MODE>  (6995) 
P

>  <INCHIKEY>  (6995) 
NLCRTRDPCWXYKO-UHFFFAOYSA-N

>  <FORMULA>  (6995) 
C7H14N2

>  <EXACT MASS>  (6995) 
126.11569844799999

>  <MW>  (6995) 
126

>  <ID>  (6995) 
JP000863

>  <CONTRIBUTOR>  (6995) 
University of Tokyo Team, {Faculty of Engineering, University of Tokyo

>  <COMMENT>  (6995) 
SMILES=C=CCN(C)N=C(C)C
InChI=InChI=1S/C7H14N2/c1-5-6-9(4)8-7(2)3/h5H,1,6H2,2-4H3
computed SMILES=N(=C(C)C)N(C)CC=C
accession=JP000863
date=2016.01.19 (Created 2008.10.21, modified 2011.05.06)
author=SASAKI S, TOYOHASHI UNIV. OF TECH.
license=CC BY-NC-SA
exact mass=126.1157
ionization energy=70 eV
ion type=[M]+*
computed spectral entropy=2.5556448514476213
computed normalized entropy=0.7843981360354556
SPLASH=splash10-0a4l-9100000000-e06a818aab6c6c75ffa1
submitter=submitter = University of Tokyo Team (Faculty of Engineering, University of Tokyo)
MoNA Rating=3.75

>  <NUM PEAKS>  (6995) 
26

>  <MASS SPECTRAL PEAKS>  (6995) 
29 8.3
30 9.4
39 25.4
40 0.62
41 46.1
42 59.3
43 16.5
44 3.52
54 3.2
55 23
56 99.99
57 0.57
58 5.1
68 8.3
69 3.1
70 1.04
71 2.4
83 31
84 5
85 5.53
86 3.4
99 20.1
111 3.6
125 0.31
126 44.6
127 4.6

$$$$

     RDKit          2D

  9  8  0  0  0  0  0  0  0  0999 V2000
   -7.4695    3.9375    0.0000 C   0  0  0  0  0  0  0  0  0  0  0  0
    1.6238    3.1875    0.0000 C   0  0  0  0  0  0  0  0  0  0  0  0
    0.3248    5.4375    0.0000 C   0  0  0  0  0  0  0  0  0  0  0  0
   -6.1704    3.1875    0.0000 C   0  0  0  0  0  0  0  0  0  0  0  0
   -4.8714    3.9375    0.0000 C   0  0  0  0  0  0  0  0  0  0  0  0
   -0.9743    3.1875    0.0000 C   0  0  0  0  0  0  0  0  0  0  0  0
    0.3248    3.9375    0.0000 C   0  0  0  0  0  0  0  0  0  0  0  0
   -3.5724    3.1875    0.0000 N   0  0  0  0  0  0  0  0  0  0  0  0
   -2.2733    3.9375    0.0000 N   0  0  0  0  0  0  0  0  0  0  0  0
  4  1  2  0
  5  4  1  0
  7  2  1  0
  7  3  1  0
  7  6  1  0
  8  5  1  0
  6  9  2  0
  9  8  1  0
M  END
>  <NAME>  (6996) 
ALLYLHYDRAZONE ISOBUTYRALDEHYDE

>  <SYNONYMS>  (6996) 
ISOBUTYRALDEHYDE ALLYLHYDRAZONE

>  <SPECTRUM TYPE>  (6996) 
MS1

>  <INSTRUMENT TYPE>  (6996) 
EI-B

>  <INSTRUMENT>  (6996) 
SHIMADZU LKB-2091

>  <ION MODE>  (6996) 
P

>  <INCHIKEY>  (6996) 
WPPLATYTIDUBIO-RMKNXTFCSA-N

>  <FORMULA>  (6996) 
C7H14N2

>  <EXACT MASS>  (6996) 
126.115698448

>  <MW>  (6996) 
126

>  <ID>  (6996) 
JP000862

>  <CONTRIBUTOR>  (6996) 
University of Tokyo Team, {Faculty of Engineering, University of Tokyo

>  <COMMENT>  (6996) 
SMILES=C=CCNN=CC(C)C
InChI=InChI=1S/C7H14N2/c1-4-5-8-9-6-7(2)3/h4,6-8H,1,5H2,2-3H3/b9-6+
computed SMILES=N(=CC(C)C)NCC=C
accession=JP000862
date=2016.01.19 (Created 2008.10.21, modified 2011.05.06)
author=SASAKI S, TOYOHASHI UNIV. OF TECH.
license=CC BY-NC-SA
exact mass=126.1157
ionization energy=70 eV
ion type=[M]+*
computed spectral entropy=2.8298294580869383
computed normalized entropy=0.795935984085187
SPLASH=splash10-056u-9100000000-f1c4e8e4a4158c396f43
submitter=submitter = University of Tokyo Team (Faculty of Engineering, University of Tokyo)
MoNA Rating=3.75

>  <NUM PEAKS>  (6996) 
35

>  <MASS SPECTRAL PEAKS>  (6996) 
28 57.9
29 53.3
30 30.6
39 3.38
40 6.7
41 99.99
42 21.3
43 3.6
44 8.9
52 1.8
53 4
54 0.89
55 53.3
56 49
57 23.6
58 0.8
66 2.2
67 2.1
68 9.8
69 0.89
70 6.2
81 5.3
82 2.8
83 1.33
84 4.9
85 40
86 2.4
97 3.02
98 3.6
99 10.7
111 19.1
112 0.15
125 2.8
126 40
127 5.3

$$$$

     RDKit          2D

  8  7  0  0  0  0  0  0  0  0999 V2000
    1.9486    3.3750    0.0000 C   0  0  0  0  0  0  0  0  0  0  0  0
   -5.8457    3.3750    0.0000 C   0  0  0  0  0  0  0  0  0  0  0  0
   -0.6495    1.8750    0.0000 C   0  0  0  0  0  0  0  0  0  0  0  0
    0.6495    4.1250    0.0000 C   0  0  0  0  0  0  0  0  0  0  0  0
   -4.5466    4.1250    0.0000 C   0  0  0  0  0  0  0  0  0  0  0  0
   -0.6495    3.3750    0.0000 C   0  0  0  0  0  0  0  0  0  0  0  0
   -3.2476    3.3750    0.0000 N   0  0  0  0  0  0  0  0  0  0  0  0
   -1.9486    4.1250    0.0000 N   0  0  0  0  0  0  0  0  0  0  0  0
  4  1  2  0
  5  2  1  0
  6  3  1  0
  6  4  1  0
  5  7  2  0
  8  6  1  0
  8  7  1  0
M  END
>  <NAME>  (6997) 
ISOCROTYLHYDRAZONE ACETALDEHYDE

>  <SYNONYMS>  (6997) 
ACETALDEHYDE (1-METHYL-2-PROPENYL)HYDRAZONE

>  <SPECTRUM TYPE>  (6997) 
MS1

>  <INSTRUMENT TYPE>  (6997) 
EI-B

>  <INSTRUMENT>  (6997) 
SHIMADZU LKB-2091

>  <ION MODE>  (6997) 
P

>  <INCHIKEY>  (6997) 
GDILWUJKAMSFQD-FNORWQNLSA-N

>  <FORMULA>  (6997) 
C6H12N2

>  <EXACT MASS>  (6997) 
112.10004838399999

>  <MW>  (6997) 
112

>  <ID>  (6997) 
JP000861

>  <CONTRIBUTOR>  (6997) 
University of Tokyo Team, {Faculty of Engineering, University of Tokyo

>  <COMMENT>  (6997) 
SMILES=CC=NNC(C)C=C
InChI=InChI=1S/C6H12N2/c1-4-6(3)8-7-5-2/h4-6,8H,1H2,2-3H3/b7-5+
computed SMILES=N(=CC)NC(C=C)C
accession=JP000861
date=2016.01.19 (Created 2008.10.21, modified 2011.05.06)
author=SASAKI S, TOYOHASHI UNIV. OF TECH.
license=CC BY-NC-SA
exact mass=112.10005
ionization energy=70 eV
ion type=[M]+*
computed spectral entropy=2.9169242091473175
computed normalized entropy=0.7961990245827826
SPLASH=splash10-057m-9000000000-e330b001312955fbf0df
submitter=submitter = University of Tokyo Team (Faculty of Engineering, University of Tokyo)
MoNA Rating=3.75

>  <NUM PEAKS>  (6997) 
39

>  <MASS SPECTRAL PEAKS>  (6997) 
26 0.9
27 35.3
28 64.9
29 3.83
30 24.7
31 2.6
38 1.6
39 1.79
40 4.7
41 22.3
42 38.3
43 1.7
44 29.5
48.5 1.5
50 1.3
51 0.25
52 2.1
53 9.1
54 11.2
55 7.66
56 41.2
57 44.1
58 24.4
59 0.15
68 4.4
69 5.3
70 8.5
71 0.34
80 1.5
82 2.6
83 41.2
84 0.35
85 24.1
86 1.6
97 99.99
98 0.74
111 2.6
112 38.2
113 5.9

$$$$

     RDKit          2D

  8  7  0  0  0  0  0  0  0  0999 V2000
    1.9486    3.3750    0.0000 C   0  0  0  0  0  0  0  0  0  0  0  0
   -5.8457    3.3750    0.0000 C   0  0  0  0  0  0  0  0  0  0  0  0
   -4.5466    5.6250    0.0000 C   0  0  0  0  0  0  0  0  0  0  0  0
    0.6495    4.1250    0.0000 C   0  0  0  0  0  0  0  0  0  0  0  0
   -0.6495    3.3750    0.0000 C   0  0  0  0  0  0  0  0  0  0  0  0
   -4.5466    4.1250    0.0000 C   0  0  0  0  0  0  0  0  0  0  0  0
   -1.9486    4.1250    0.0000 N   0  0  0  0  0  0  0  0  0  0  0  0
   -3.2476    3.3750    0.0000 N   0  0  0  0  0  0  0  0  0  0  0  0
  4  1  2  0
  5  4  1  0
  6  2  1  0
  6  3  1  0
  7  5  1  0
  8  6  2  0
  8  7  1  0
M  END
>  <NAME>  (6998) 
ALLYLHYDRAZONE ACETONE

>  <SYNONYMS>  (6998) 
ACETONE ALLYLHYDRAZONE

>  <SPECTRUM TYPE>  (6998) 
MS1

>  <INSTRUMENT TYPE>  (6998) 
EI-B

>  <INSTRUMENT>  (6998) 
SHIMADZU LKB-2091

>  <ION MODE>  (6998) 
P

>  <INCHIKEY>  (6998) 
ODEDRFAFCSZTSO-UHFFFAOYSA-N

>  <FORMULA>  (6998) 
C6H12N2

>  <EXACT MASS>  (6998) 
112.10004838399999

>  <MW>  (6998) 
112

>  <ID>  (6998) 
JP000860

>  <CONTRIBUTOR>  (6998) 
University of Tokyo Team, {Faculty of Engineering, University of Tokyo

>  <COMMENT>  (6998) 
SMILES=C=CCNN=C(C)C
InChI=InChI=1S/C6H12N2/c1-4-5-7-8-6(2)3/h4,7H,1,5H2,2-3H3
computed SMILES=N(NCC=C)=C(C)C
accession=JP000860
date=2016.01.19 (Created 2008.10.21, modified 2011.05.06)
author=SASAKI S, TOYOHASHI UNIV. OF TECH.
license=CC BY-NC-SA
exact mass=112.10005
ionization energy=70 eV
ion type=[M]+*
computed spectral entropy=2.859657177894615
computed normalized entropy=0.8251226458382178
SPLASH=splash10-0bvr-9100000000-3d83fb711f76eeabbc89
submitter=submitter = University of Tokyo Team (Faculty of Engineering, University of Tokyo)
MoNA Rating=3.75

>  <NUM PEAKS>  (6998) 
32

>  <MASS SPECTRAL PEAKS>  (6998) 
27 22.7
28 60
29 20
30 5.34
31 5.3
39 36
40 8.7
41 5.07
42 46
43 12
44 8.7
54 1.14
55 13.4
56 99.99
57 1.14
58 6
68 6.7
69 8
70 13.4
71 8.67
72 6.7
80 1.7
81 1.5
82 0.19
83 37.4
84 6.7
85 30.7
96 0.25
97 13.4
111 10.7
112 80
113 9.3

$$$$

     RDKit          2D

  8  7  0  0  0  0  0  0  0  0999 V2000
   -6.4952    4.5000    0.0000 C   0  0  0  0  0  0  0  0  0  0  0  0
    2.5981    3.7500    0.0000 C   0  0  0  0  0  0  0  0  0  0  0  0
   -5.1962    3.7500    0.0000 C   0  0  0  0  0  0  0  0  0  0  0  0
    1.2990    4.5000    0.0000 C   0  0  0  0  0  0  0  0  0  0  0  0
   -3.8971    4.5000    0.0000 C   0  0  0  0  0  0  0  0  0  0  0  0
    0.0000    3.7500    0.0000 C   0  0  0  0  0  0  0  0  0  0  0  0
   -2.5981    3.7500    0.0000 N   0  0  0  0  0  0  0  0  0  0  0  0
   -1.2990    4.5000    0.0000 N   0  0  0  0  0  0  0  0  0  0  0  0
  3  1  2  0
  4  2  1  0
  5  3  1  0
  6  4  1  0
  7  5  1  0
  6  8  2  0
  8  7  1  0
M  END
>  <NAME>  (6999) 
ALLYLHYDRAZONE PROPIONALDEHYDE

>  <SYNONYMS>  (6999) 
PROPIONALDEHYDE ALLYLHYDRAZONE

>  <SPECTRUM TYPE>  (6999) 
MS1

>  <INSTRUMENT TYPE>  (6999) 
EI-B

>  <INSTRUMENT>  (6999) 
SHIMADZU LKB-2091

>  <ION MODE>  (6999) 
P

>  <INCHIKEY>  (6999) 
POQUCILEWSEAQS-SOFGYWHQSA-N

>  <FORMULA>  (6999) 
C6H12N2

>  <EXACT MASS>  (6999) 
112.10004838399999

>  <MW>  (6999) 
112

>  <ID>  (6999) 
JP000859

>  <CONTRIBUTOR>  (6999) 
University of Tokyo Team, {Faculty of Engineering, University of Tokyo

>  <COMMENT>  (6999) 
SMILES=CCC=NNCC=C
InChI=InChI=1S/C6H12N2/c1-3-5-7-8-6-4-2/h3,6-7H,1,4-5H2,2H3/b8-6+
computed SMILES=N(=CCC)NCC=C
accession=JP000859
date=2016.01.19 (Created 2008.10.21, modified 2011.05.06)
author=SASAKI S, TOYOHASHI UNIV. OF TECH.
license=CC BY-NC-SA
exact mass=112.10005
ionization energy=70 eV
ion type=[M]+*
computed spectral entropy=2.6083459689880617
computed normalized entropy=0.7827688729858053
SPLASH=splash10-00di-9000000000-0791746953d64017c639
submitter=submitter = University of Tokyo Team (Faculty of Engineering, University of Tokyo)
MoNA Rating=3.75

>  <NUM PEAKS>  (6999) 
28

>  <MASS SPECTRAL PEAKS>  (6999) 
26 2.3
27 15.1
28 20.8
29 1.42
30 17
31 1.7
39 10.2
40 0.25
41 26.5
42 7.8
43 4.3
44 0.46
54 5.1
55 14.5
56 15.3
57 0.25
58 1.2
69 16
70 20.8
71 99.99
72 9.4
83 20.8
84 2.5
85 0.76
97 1.5
111 1.9
112 15.1
113 2.5

$$$$

     RDKit          2D

  7  6  0  0  0  0  0  0  0  0999 V2000
    1.9486    3.3750    0.0000 C   0  0  0  0  0  0  0  0  0  0  0  0
   -5.8457    3.3750    0.0000 C   0  0  0  0  0  0  0  0  0  0  0  0
    0.6495    4.1250    0.0000 C   0  0  0  0  0  0  0  0  0  0  0  0
   -4.5466    4.1250    0.0000 C   0  0  0  0  0  0  0  0  0  0  0  0
   -0.6495    3.3750    0.0000 C   0  0  0  0  0  0  0  0  0  0  0  0
   -3.2476    3.3750    0.0000 N   0  0  0  0  0  0  0  0  0  0  0  0
   -1.9486    4.1250    0.0000 N   0  0  0  0  0  0  0  0  0  0  0  0
  3  1  2  0
  4  2  1  0
  5  3  1  0
  4  6  2  0
  7  5  1  0
  7  6  1  0
M  END
>  <NAME>  (7000) 
ALLYLHYDRAZONE ACETALDEHYDE

>  <SYNONYMS>  (7000) 
ACETALDEHYDE ALLYLHYDRAZONE

>  <SPECTRUM TYPE>  (7000) 
MS1

>  <INSTRUMENT TYPE>  (7000) 
EI-B

>  <INSTRUMENT>  (7000) 
SHIMADZU LKB-2091

>  <ION MODE>  (7000) 
P

>  <INCHIKEY>  (7000) 
KEZWDEMPHZSOJV-GQCTYLIASA-N

>  <FORMULA>  (7000) 
C5H10N2

>  <EXACT MASS>  (7000) 
98.08439831999999

>  <MW>  (7000) 
98

>  <ID>  (7000) 
JP000858

>  <CONTRIBUTOR>  (7000) 
University of Tokyo Team, {Faculty of Engineering, University of Tokyo

>  <COMMENT>  (7000) 
SMILES=C=CCNN=CC
InChI=InChI=1S/C5H10N2/c1-3-5-7-6-4-2/h3-4,7H,1,5H2,2H3/b6-4+
computed SMILES=N(=CC)NCC=C
accession=JP000858
date=2016.01.19 (Created 2008.10.21, modified 2011.05.06)
author=SASAKI S, TOYOHASHI UNIV. OF TECH.
license=CC BY-NC-SA
exact mass=98.0844
ionization energy=70 eV
ion type=[M]+*
computed spectral entropy=2.727065320008723
computed normalized entropy=0.7941396276744686
SPLASH=splash10-05r3-9000000000-e2bf71f45c1167c45192
submitter=submitter = University of Tokyo Team (Faculty of Engineering, University of Tokyo)
MoNA Rating=3.75

>  <NUM PEAKS>  (7000) 
31

>  <MASS SPECTRAL PEAKS>  (7000) 
27 29.2
28 79.1
29 26.3
30 7.3
31 2.5
38 3.3
39 26.6
40 0.71
41 45.9
42 33.4
43 7.9
44 1.46
52 2
53 1.7
54 10.5
55 0.92
56 37.5
57 70.9
58 4
67 0.11
68 17.5
69 99.99
70 9.6
71 3.3
72 1.5
82 1.1
83 17.1
84 0.09
97 7.9
98 56.1
99 6.3

$$$$

     RDKit          2D

 12 11  0  0  0  0  0  0  0  0999 V2000
   -4.5466    2.6250    0.0000 C   0  0  0  0  0  0  0  0  0  0  0  0
    5.8457    5.6250    0.0000 C   0  0  0  0  0  0  0  0  0  0  0  0
   -4.5466    5.6250    0.0000 C   0  0  0  0  0  0  0  0  0  0  0  0
   -0.6495    3.3750    0.0000 C   0  0  0  0  0  0  0  0  0  0  0  0
   -3.2476    3.3750    0.0000 C   0  0  0  0  0  0  0  0  0  0  0  0
    4.5466    4.8750    0.0000 C   0  0  0  0  0  0  0  0  0  0  0  0
    0.6495    5.6250    0.0000 C   0  0  0  0  0  0  0  0  0  0  0  0
    1.9486    4.8750    0.0000 C   0  0  0  0  0  0  0  0  0  0  0  0
   -3.2476    4.8750    0.0000 C   0  0  0  0  0  0  0  0  0  0  0  0
   -1.9486    5.6250    0.0000 N   0  0  0  0  0  0  0  0  0  0  0  0
   -0.6495    4.8750    0.0000 N   0  0  0  0  0  0  0  0  0  0  0  0
    3.2476    5.6250    0.0000 O   0  0  0  0  0  0  0  0  0  0  0  0
  5  1  1  0
  6  2  1  0
  8  7  1  0
  9  3  1  0
  9  5  1  0
  9 10  2  0
 11  4  1  0
 11  7  1  0
 11 10  1  0
 12  6  1  0
 12  8  1  0
M  END
>  <NAME>  (7001) 
METHYL(BETA-ETHOXYETHYL)HYDRAZONE METHYLETHYLKETONE

>  <SYNONYMS>  (7001) 
2-BUTANONE (2-ETHOXYETHYL)METHYLHYDRAZONE

>  <SPECTRUM TYPE>  (7001) 
MS1

>  <INSTRUMENT TYPE>  (7001) 
EI-B

>  <INSTRUMENT>  (7001) 
SHIMADZU LKB-2091

>  <ION MODE>  (7001) 
P

>  <INCHIKEY>  (7001) 
XKAMZPQHAMBEET-KTKRTIGZSA-N

>  <FORMULA>  (7001) 
C9H20N2O

>  <EXACT MASS>  (7001) 
172.15756326

>  <MW>  (7001) 
172

>  <ID>  (7001) 
JP000857

>  <CONTRIBUTOR>  (7001) 
University of Tokyo Team, {Faculty of Engineering, University of Tokyo

>  <COMMENT>  (7001) 
SMILES=CCOCCN(C)N=C(C)CC
InChI=InChI=1S/C9H20N2O/c1-5-9(3)10-11(4)7-8-12-6-2/h5-8H2,1-4H3/b10-9-
computed SMILES=N(=C(C)CC)N(C)CCOCC
accession=JP000857
date=2016.01.19 (Created 2008.10.21, modified 2011.05.06)
author=SASAKI S, TOYOHASHI UNIV. OF TECH.
license=CC BY-NC-SA
exact mass=172.15756
ionization energy=70 eV
ion type=[M]+*
computed spectral entropy=2.1165175907460356
computed normalized entropy=0.6285511275540461
SPLASH=splash10-03di-6900000000-55fe6347c9f614cdc248
submitter=submitter = University of Tokyo Team (Faculty of Engineering, University of Tokyo)
MoNA Rating=3.75

>  <NUM PEAKS>  (7001) 
29

>  <MASS SPECTRAL PEAKS>  (7001) 
27 6.5
28 3.8
29 10.4
30 0.43
31 4.9
39 1.5
41 4.2
42 9.66
43 7.8
44 9.1
45 4
54 0.09
55 1.7
56 2.7
57 1.1
58 0.17
59 1.5
68 0.7
70 13.6
71 0.15
72 1.9
86 0.8
97 0.7
99 0.07
100 4.1
113 99.99
114 6.1
172 0.91
173 1.4

$$$$

     RDKit          2D

 13 12  0  0  0  0  0  0  0  0999 V2000
   -0.0000   -0.0000    0.0000 C   0  0  0  0  0  0  0  0  0  0  0  0
    1.2990    2.2500    0.0000 C   0  0  0  0  0  0  0  0  0  0  0  0
   -5.1962    4.5000    0.0000 C   0  0  0  0  0  0  0  0  0  0  0  0
   -3.8971    2.2500    0.0000 C   0  0  0  0  0  0  0  0  0  0  0  0
    1.2990    6.7500    0.0000 C   0  0  0  0  0  0  0  0  0  0  0  0
   -1.2990    6.7500    0.0000 C   0  0  0  0  0  0  0  0  0  0  0  0
   -1.2990    2.2500    0.0000 C   0  0  0  0  0  0  0  0  0  0  0  0
   -2.5981    4.5000    0.0000 C   0  0  0  0  0  0  0  0  0  0  0  0
   -0.0000    1.5000    0.0000 C   0  0  0  0  0  0  0  0  0  0  0  0
   -3.8971    3.7500    0.0000 C   0  0  0  0  0  0  0  0  0  0  0  0
    0.0000    6.0000    0.0000 C   0  0  0  0  0  0  0  0  0  0  0  0
    0.0000    4.5000    0.0000 N   0  0  0  0  0  0  0  0  0  0  0  0
   -1.2990    3.7500    0.0000 N   0  0  0  0  0  0  0  0  0  0  0  0
  9  1  1  0
  9  2  1  0
  9  7  1  0
 10  3  1  0
 10  4  1  0
 10  8  1  0
 11  5  1  0
 11  6  1  0
 12 11  2  0
 13  7  1  0
 13  8  1  0
 13 12  1  0
M  END
>  <NAME>  (7002) 
DIISOBUTYLHYDRAZONE ACETONE

>  <SYNONYMS>  (7002) 
ACETONE DIISOBUTYLHYDRAZONE

>  <SPECTRUM TYPE>  (7002) 
MS1

>  <INSTRUMENT TYPE>  (7002) 
EI-B

>  <INSTRUMENT>  (7002) 
SHIMADZU LKB-2091

>  <ION MODE>  (7002) 
P

>  <INCHIKEY>  (7002) 
PTVAXZOEUGRZMV-UHFFFAOYSA-N

>  <FORMULA>  (7002) 
C11H24N2

>  <EXACT MASS>  (7002) 
184.19394876799998

>  <MW>  (7002) 
184

>  <ID>  (7002) 
JP000856

>  <CONTRIBUTOR>  (7002) 
University of Tokyo Team, {Faculty of Engineering, University of Tokyo

>  <COMMENT>  (7002) 
SMILES=CC(C)CN(CC(C)C)N=C(C)C
InChI=InChI=1S/C11H24N2/c1-9(2)7-13(8-10(3)4)12-11(5)6/h9-10H,7-8H2,1-6H3
computed SMILES=N(=C(C)C)N(CC(C)C)CC(C)C
accession=JP000856
date=2016.01.19 (Created 2008.10.21, modified 2011.05.06)
author=SASAKI S, TOYOHASHI UNIV. OF TECH.
license=CC BY-NC-SA
exact mass=184.19395
ionization energy=70 eV
ion type=[M]+*
computed spectral entropy=2.269808469789527
computed normalized entropy=0.6549282846266234
SPLASH=splash10-000f-9500000000-4415d230c867a0ad770a
submitter=submitter = University of Tokyo Team (Faculty of Engineering, University of Tokyo)
MoNA Rating=3.75

>  <NUM PEAKS>  (7002) 
32

>  <MASS SPECTRAL PEAKS>  (7002) 
28 4.5
29 15.5
30 6.3
39 0.47
40 1.2
41 16.5
42 12.6
43 0.63
44 2.7
53 0.5
54 0.7
55 0.38
56 19.4
57 20.4
58 5.2
68 0.1
69 0.8
70 2.4
71 0.9
72 0.05
83 1.1
84 3.1
85 83.6
86 0.54
99 3
113 0.7
127 0.8
141 99.99
142 9.7
169 0.6
184 12.6
185 2.4

$$$$

     RDKit          2D

 13 12  0  0  0  0  0  0  0  0999 V2000
    2.5981    4.5000    0.0000 C   0  0  0  0  0  0  0  0  0  0  0  0
   -7.7942    4.5000    0.0000 C   0  0  0  0  0  0  0  0  0  0  0  0
   -1.2990    0.7500    0.0000 C   0  0  0  0  0  0  0  0  0  0  0  0
    0.0000    3.0000    0.0000 C   0  0  0  0  0  0  0  0  0  0  0  0
    1.2990    5.2500    0.0000 C   0  0  0  0  0  0  0  0  0  0  0  0
   -6.4952    5.2500    0.0000 C   0  0  0  0  0  0  0  0  0  0  0  0
    0.0000    4.5000    0.0000 C   0  0  0  0  0  0  0  0  0  0  0  0
   -5.1962    4.5000    0.0000 C   0  0  0  0  0  0  0  0  0  0  0  0
   -1.2990    5.2500    0.0000 C   0  0  0  0  0  0  0  0  0  0  0  0
   -3.8971    5.2500    0.0000 C   0  0  0  0  0  0  0  0  0  0  0  0
   -1.2990    2.2500    0.0000 C   0  0  0  0  0  0  0  0  0  0  0  0
   -2.5981    3.0000    0.0000 N   0  0  0  0  0  0  0  0  0  0  0  0
   -2.5981    4.5000    0.0000 N   0  0  0  0  0  0  0  0  0  0  0  0
  5  1  1  0
  6  2  1  0
  7  5  1  0
  8  6  1  0
  9  7  1  0
 10  8  1  0
 11  3  1  0
 11  4  1  0
 12 11  2  0
 13  9  1  0
 13 10  1  0
 13 12  1  0
M  END
>  <NAME>  (7003) 
DI-N-BUTYLHYDRAZONE ACETONE

>  <SYNONYMS>  (7003) 
ACETONE DIBUTYLHYDRAZONE

>  <SPECTRUM TYPE>  (7003) 
MS1

>  <INSTRUMENT TYPE>  (7003) 
EI-B

>  <INSTRUMENT>  (7003) 
SHIMADZU LKB-2091

>  <ION MODE>  (7003) 
P

>  <INCHIKEY>  (7003) 
SKQMJBSBCUKOPF-UHFFFAOYSA-N

>  <FORMULA>  (7003) 
C11H24N2

>  <EXACT MASS>  (7003) 
184.19394876799998

>  <MW>  (7003) 
184

>  <ID>  (7003) 
JP000855

>  <CONTRIBUTOR>  (7003) 
University of Tokyo Team, {Faculty of Engineering, University of Tokyo

>  <COMMENT>  (7003) 
SMILES=CCCCN(CCCC)N=C(C)C
InChI=InChI=1S/C11H24N2/c1-5-7-9-13(10-8-6-2)12-11(3)4/h5-10H2,1-4H3
computed SMILES=N(=C(C)C)N(CCCC)CCCC
accession=JP000855
date=2016.01.19 (Created 2008.10.21, modified 2011.05.06)
author=SASAKI S, TOYOHASHI UNIV. OF TECH.
license=CC BY-NC-SA
exact mass=184.19395
ionization energy=70 eV
ion type=[M]+*
computed spectral entropy=2.651747271344311
computed normalized entropy=0.7399841655327668
SPLASH=splash10-0006-9600000000-e708c77921cff8708de7
submitter=submitter = University of Tokyo Team (Faculty of Engineering, University of Tokyo)
MoNA Rating=3.75

>  <NUM PEAKS>  (7003) 
36

>  <MASS SPECTRAL PEAKS>  (7003) 
27 10.8
28 10.5
29 31
30 1.2
39 6.8
40 2
41 25.6
42 2.03
43 10.8
44 5.7
53 0.8
54 0.16
55 5
56 36.8
57 16.2
58 0.93
68 1.1
69 1.2
70 4.9
71 0.26
72 1.2
83 1.9
84 5.7
85 4.32
86 4.5
97 1.1
98 1.1
99 4.45
100 3.5
111 1.2
127 1.2
141 99.99
142 11.1
169 0.8
184 12.8
185 2.2

$$$$

     RDKit          2D

 11 10  0  0  0  0  0  0  0  0999 V2000
    0.0000    0.0000    0.0000 C   0  0  0  0  0  0  0  0  0  0  0  0
    1.2990    2.2500    0.0000 C   0  0  0  0  0  0  0  0  0  0  0  0
   -2.5981    6.0000    0.0000 C   0  0  0  0  0  0  0  0  0  0  0  0
   -3.8971    3.7500    0.0000 C   0  0  0  0  0  0  0  0  0  0  0  0
    0.0000    6.0000    0.0000 C   0  0  0  0  0  0  0  0  0  0  0  0
    1.2990    3.7500    0.0000 C   0  0  0  0  0  0  0  0  0  0  0  0
    0.0000    1.5000    0.0000 C   0  0  0  0  0  0  0  0  0  0  0  0
   -2.5981    4.5000    0.0000 C   0  0  0  0  0  0  0  0  0  0  0  0
    0.0000    4.5000    0.0000 C   0  0  0  0  0  0  0  0  0  0  0  0
   -1.2990    2.2500    0.0000 N   0  0  0  0  0  0  0  0  0  0  0  0
   -1.2990    3.7500    0.0000 N   0  0  0  0  0  0  0  0  0  0  0  0
  7  1  1  0
  7  2  1  0
  8  3  1  0
  8  4  1  0
  9  5  1  0
  9  6  1  0
 10  7  2  0
 11  8  1  0
 11  9  1  0
 11 10  1  0
M  END
>  <NAME>  (7004) 
DIISOPROPYLHYDRAZONE ACETONE

>  <SYNONYMS>  (7004) 
ACETONE DIISOPROPYLHYDRAZONE

>  <SPECTRUM TYPE>  (7004) 
MS1

>  <INSTRUMENT TYPE>  (7004) 
EI-B

>  <INSTRUMENT>  (7004) 
SHIMADZU LKB-2091

>  <ION MODE>  (7004) 
P

>  <INCHIKEY>  (7004) 
BMWCIZCYWKLTLD-UHFFFAOYSA-N

>  <FORMULA>  (7004) 
C9H20N2

>  <EXACT MASS>  (7004) 
156.16264864

>  <MW>  (7004) 
156

>  <ID>  (7004) 
JP000854

>  <CONTRIBUTOR>  (7004) 
University of Tokyo Team, {Faculty of Engineering, University of Tokyo

>  <COMMENT>  (7004) 
SMILES=CC(C)=NN(C(C)C)C(C)C
InChI=InChI=1S/C9H20N2/c1-7(2)10-11(8(3)4)9(5)6/h8-9H,1-6H3
computed SMILES=N(=C(C)C)N(C(C)C)C(C)C
accession=JP000854
date=2016.01.19 (Created 2008.10.21, modified 2011.05.06)
author=SASAKI S, TOYOHASHI UNIV. OF TECH.
license=CC BY-NC-SA
exact mass=156.16265
ionization energy=70 eV
ion type=[M]+*
computed spectral entropy=2.549049795892355
computed normalized entropy=0.7734150382821182
SPLASH=splash10-052g-9100000000-7efc13f68e065601291a
submitter=submitter = University of Tokyo Team (Faculty of Engineering, University of Tokyo)
MoNA Rating=3.75

>  <NUM PEAKS>  (7004) 
27

>  <MASS SPECTRAL PEAKS>  (7004) 
27 22.3
29 6.6
30 9.6
31 0.25
39 11.5
40 3.7
41 37.5
42 2.88
43 55.5
44 12.2
54 1.6
55 0.16
56 33.1
57 3.6
58 15.1
70 0.39
71 12.2
84 3.3
85 5.2
99 99.99
100 6.8
113 2.6
127 1.9
141 5.61
142 6.3
156 14.4
157 1.6

$$$$

     RDKit          2D

 10  9  0  0  0  0  0  0  0  0999 V2000
   -4.8714    1.6875    0.0000 C   0  0  0  0  0  0  0  0  0  0  0  0
   -3.5724   -0.5625    0.0000 C   0  0  0  0  0  0  0  0  0  0  0  0
   -0.9743   -0.5625    0.0000 C   0  0  0  0  0  0  0  0  0  0  0  0
    1.6238    3.9375    0.0000 C   0  0  0  0  0  0  0  0  0  0  0  0
   -0.9743    3.9375    0.0000 C   0  0  0  0  0  0  0  0  0  0  0  0
   -2.2733    1.6875    0.0000 C   0  0  0  0  0  0  0  0  0  0  0  0
   -3.5724    0.9375    0.0000 C   0  0  0  0  0  0  0  0  0  0  0  0
   -0.9743    0.9375    0.0000 C   0  0  0  0  0  0  0  0  0  0  0  0
    0.3248    1.6875    0.0000 N   0  0  0  0  0  0  0  0  0  0  0  0
    0.3248    3.1875    0.0000 N   0  0  0  0  0  0  0  0  0  0  0  0
  7  1  1  0
  7  2  1  0
  7  6  1  0
  8  3  1  0
  8  6  1  0
  8  9  2  0
 10  4  1  0
 10  5  1  0
 10  9  1  0
M  END
>  <NAME>  (7005) 
DIMETHYLHYDRAZONE METHYLISOBUTYLKETONE

>  <SYNONYMS>  (7005) 
4-METHYL-2-PENTANONE DIMETHYLHYDRAZONE

>  <SPECTRUM TYPE>  (7005) 
MS1

>  <INSTRUMENT TYPE>  (7005) 
EI-B

>  <INSTRUMENT>  (7005) 
SHIMADZU LKB-2091

>  <ION MODE>  (7005) 
P

>  <INCHIKEY>  (7005) 
ILLZUURQEMRVTN-HJWRWDBZSA-N

>  <FORMULA>  (7005) 
C8H18N2

>  <EXACT MASS>  (7005) 
142.146998576

>  <MW>  (7005) 
142

>  <ID>  (7005) 
JP000853

>  <CONTRIBUTOR>  (7005) 
University of Tokyo Team, {Faculty of Engineering, University of Tokyo

>  <COMMENT>  (7005) 
SMILES=CC(C)CC(C)=NN(C)C
InChI=InChI=1S/C8H18N2/c1-7(2)6-8(3)9-10(4)5/h7H,6H2,1-5H3/b9-8-
computed SMILES=N(=C(C)CC(C)C)N(C)C
accession=JP000853
date=2016.01.19 (Created 2008.10.21, modified 2011.05.06)
author=SASAKI S, TOYOHASHI UNIV. OF TECH.
license=CC BY-NC-SA
exact mass=142.147
ionization energy=70 eV
ion type=[M]+*
computed spectral entropy=2.8613079234498753
computed normalized entropy=0.7865952304110094
SPLASH=splash10-0006-9100000000-ab632ae1f906e63a6315
submitter=submitter = University of Tokyo Team (Faculty of Engineering, University of Tokyo)
MoNA Rating=3.75

>  <NUM PEAKS>  (7005) 
38

>  <MASS SPECTRAL PEAKS>  (7005) 
28 14.1
29 15.6
30 6.9
39 1.41
40 3.4
41 29.7
42 56.2
43 3.13
44 99.99
45 78.1
46 9.4
53 0.22
54 2
55 5.3
56 59.5
57 1.5
58 46.9
59 9.4
69 1.8
70 0.31
71 5.9
81 1.3
82 5.9
83 0.22
84 12.5
85 25
86 22.5
87 0.14
96 2.8
97 2
98 6.3
99 2.66
100 29.7
101 2.2
127 9.4
141 0.12
142 50
143 6.9

$$$$

     RDKit          2D

 10  9  0  0  0  0  0  0  0  0999 V2000
    0.0000    6.7500    0.0000 C   0  0  0  0  0  0  0  0  0  0  0  0
   -1.2990    0.0000    0.0000 C   0  0  0  0  0  0  0  0  0  0  0  0
   -2.5981    2.2500    0.0000 C   0  0  0  0  0  0  0  0  0  0  0  0
    2.5981    5.2500    0.0000 C   0  0  0  0  0  0  0  0  0  0  0  0
    0.0000    5.2500    0.0000 C   0  0  0  0  0  0  0  0  0  0  0  0
   -0.0000    0.7500    0.0000 C   0  0  0  0  0  0  0  0  0  0  0  0
   -1.2990    3.0000    0.0000 C   0  0  0  0  0  0  0  0  0  0  0  0
    1.2990    4.5000    0.0000 C   0  0  0  0  0  0  0  0  0  0  0  0
    1.2990    3.0000    0.0000 N   0  0  0  0  0  0  0  0  0  0  0  0
   -0.0000    2.2500    0.0000 N   0  0  0  0  0  0  0  0  0  0  0  0
  5  1  1  0
  6  2  1  0
  7  3  1  0
  8  4  1  0
  8  5  1  0
  8  9  2  0
 10  6  1  0
 10  7  1  0
 10  9  1  0
M  END
>  <NAME>  (7006) 
DIETHYLHYDRAZONE METHYLETHYLKETONE

>  <SYNONYMS>  (7006) 
2-BUTANONE DIETHYLHYDRAZONE

>  <SPECTRUM TYPE>  (7006) 
MS1

>  <INSTRUMENT TYPE>  (7006) 
EI-B

>  <INSTRUMENT>  (7006) 
SHIMADZU LKB-2091

>  <ION MODE>  (7006) 
P

>  <INCHIKEY>  (7006) 
KMWQDYIEBWJWIC-HJWRWDBZSA-N

>  <FORMULA>  (7006) 
C8H18N2

>  <EXACT MASS>  (7006) 
142.146998576

>  <MW>  (7006) 
142

>  <ID>  (7006) 
JP000852

>  <CONTRIBUTOR>  (7006) 
University of Tokyo Team, {Faculty of Engineering, University of Tokyo

>  <COMMENT>  (7006) 
SMILES=CCC(C)=NN(CC)CC
InChI=InChI=1S/C8H18N2/c1-5-8(4)9-10(6-2)7-3/h5-7H2,1-4H3/b9-8-
computed SMILES=N(=C(C)CC)N(CC)CC
accession=JP000852
date=2016.01.19 (Created 2008.10.21, modified 2011.05.06)
author=SASAKI S, TOYOHASHI UNIV. OF TECH.
license=CC BY-NC-SA
exact mass=142.147
ionization energy=70 eV
ion type=[M]+*
computed spectral entropy=2.2400901556994173
computed normalized entropy=0.672254703713139
SPLASH=splash10-0006-9100000000-25f9ee7c240722862a96
submitter=submitter = University of Tokyo Team (Faculty of Engineering, University of Tokyo)
MoNA Rating=3.75

>  <NUM PEAKS>  (7006) 
28

>  <MASS SPECTRAL PEAKS>  (7006) 
29 25.7
30 5
39 3.6
40 0.11
41 11
42 99.99
43 4.3
44 1.6
53 1.1
54 3.2
55 7.1
56 0.48
57 18.9
58 1.1
68 1.2
70 1.39
71 1.4
72 8.2
73 2.9
85 0.07
86 1
99 1.5
113 3.6
127 5.38
128 4.3
141 1.2
142 20
143 1.9

$$$$

     RDKit          2D

 10  9  0  0  0  0  0  0  0  0999 V2000
    1.6238    3.1875    0.0000 C   0  0  0  0  0  0  0  0  0  0  0  0
   -4.8714    3.9375    0.0000 C   0  0  0  0  0  0  0  0  0  0  0  0
   -3.5724    1.6875    0.0000 C   0  0  0  0  0  0  0  0  0  0  0  0
    0.3248    0.9375    0.0000 C   0  0  0  0  0  0  0  0  0  0  0  0
   -2.2733    0.9375    0.0000 C   0  0  0  0  0  0  0  0  0  0  0  0
    0.3248    3.9375    0.0000 C   0  0  0  0  0  0  0  0  0  0  0  0
   -3.5724    3.1875    0.0000 C   0  0  0  0  0  0  0  0  0  0  0  0
   -0.9743    1.6875    0.0000 C   0  0  0  0  0  0  0  0  0  0  0  0
   -2.2733    3.9375    0.0000 N   0  0  0  0  0  0  0  0  0  0  0  0
   -0.9743    3.1875    0.0000 N   0  0  0  0  0  0  0  0  0  0  0  0
  6  1  1  0
  7  2  1  0
  7  3  1  0
  8  4  1  0
  8  5  1  0
  9  7  2  0
 10  6  1  0
 10  8  1  0
 10  9  1  0
M  END
>  <NAME>  (7007) 
ETHYLISOPROPYLHYDRAZONE ACETONE

>  <SYNONYMS>  (7007) 
ACETONE ETHYLISOPROPYLHYDRAZONE

>  <SPECTRUM TYPE>  (7007) 
MS1

>  <INSTRUMENT TYPE>  (7007) 
EI-B

>  <INSTRUMENT>  (7007) 
SHIMADZU LKB-2091

>  <ION MODE>  (7007) 
P

>  <INCHIKEY>  (7007) 
FQBTUCJQGSWWGU-UHFFFAOYSA-N

>  <FORMULA>  (7007) 
C8H18N2

>  <EXACT MASS>  (7007) 
142.146998576

>  <MW>  (7007) 
142

>  <ID>  (7007) 
JP000851

>  <CONTRIBUTOR>  (7007) 
University of Tokyo Team, {Faculty of Engineering, University of Tokyo

>  <COMMENT>  (7007) 
SMILES=CCN(N=C(C)C)C(C)C
InChI=InChI=1S/C8H18N2/c1-6-10(8(4)5)9-7(2)3/h8H,6H2,1-5H3
computed SMILES=N(=C(C)C)N(CC)C(C)C
accession=JP000851
date=2016.01.19 (Created 2008.10.21, modified 2011.05.06)
author=SASAKI S, TOYOHASHI UNIV. OF TECH.
license=CC BY-NC-SA
exact mass=142.147
ionization energy=70 eV
ion type=[M]+*
computed spectral entropy=2.6526195468175255
computed normalized entropy=0.7724605215048347
SPLASH=splash10-004l-9400000000-6e7aeb1a25d637fb7159
submitter=submitter = University of Tokyo Team (Faculty of Engineering, University of Tokyo)
MoNA Rating=3.75

>  <NUM PEAKS>  (7007) 
31

>  <MASS SPECTRAL PEAKS>  (7007) 
27 15.5
28 12.6
29 11.9
30 0.81
39 8.5
40 3.1
41 20.7
42 3.45
43 25.9
44 9.7
54 1.5
55 0.15
56 53.5
57 4.1
58 10.8
59 0.1
70 16.4
71 7.1
72 8.5
82 0.36
83 1.5
84 2.8
85 28.5
86 0.27
99 10.2
100 0.8
127 99.99
128 1
141 0.9
142 25.9
143 3.3

$$$$

     RDKit          2D

  9  8  0  0  0  0  0  0  0  0999 V2000
   -5.5209    2.8125    0.0000 C   0  0  0  0  0  0  0  0  0  0  0  0
   -4.2219    5.0625    0.0000 C   0  0  0  0  0  0  0  0  0  0  0  0
    0.9743    2.0625    0.0000 C   0  0  0  0  0  0  0  0  0  0  0  0
   -0.3248    4.3125    0.0000 C   0  0  0  0  0  0  0  0  0  0  0  0
   -4.2219    2.0625    0.0000 C   0  0  0  0  0  0  0  0  0  0  0  0
   -2.9228    4.3125    0.0000 C   0  0  0  0  0  0  0  0  0  0  0  0
   -2.9228    2.8125    0.0000 C   0  0  0  0  0  0  0  0  0  0  0  0
   -1.6238    2.0625    0.0000 N   0  0  0  0  0  0  0  0  0  0  0  0
   -0.3248    2.8125    0.0000 N   0  0  0  0  0  0  0  0  0  0  0  0
  5  1  1  0
  6  2  1  0
  7  5  1  0
  7  6  1  0
  8  7  2  0
  9  3  1  0
  9  4  1  0
  9  8  1  0
M  END
>  <NAME>  (7008) 
DIMETHYLHYDRAZONE DIETHYLKETONE

>  <SYNONYMS>  (7008) 
3-PENTANONE DIMETHYLHYDRAZONE

>  <SPECTRUM TYPE>  (7008) 
MS1

>  <INSTRUMENT TYPE>  (7008) 
EI-B

>  <INSTRUMENT>  (7008) 
SHIMADZU LKB-2091

>  <ION MODE>  (7008) 
P

>  <INCHIKEY>  (7008) 
LXFGNBFOJJSPPZ-UHFFFAOYSA-N

>  <FORMULA>  (7008) 
C7H16N2

>  <EXACT MASS>  (7008) 
128.131348512

>  <MW>  (7008) 
128

>  <ID>  (7008) 
JP000850

>  <CONTRIBUTOR>  (7008) 
University of Tokyo Team, {Faculty of Engineering, University of Tokyo

>  <COMMENT>  (7008) 
SMILES=CCC(CC)=NN(C)C
InChI=InChI=1S/C7H16N2/c1-5-7(6-2)8-9(3)4/h5-6H2,1-4H3
computed SMILES=N(=C(CC)CC)N(C)C
accession=JP000850
date=2016.01.19 (Created 2008.10.21, modified 2011.05.06)
author=SASAKI S, TOYOHASHI UNIV. OF TECH.
license=CC BY-NC-SA
exact mass=128.13135
ionization energy=70 eV
ion type=[M]+*
computed spectral entropy=2.533483214774628
computed normalized entropy=0.7184413496831533
SPLASH=splash10-0007-9100000000-b91983d7ebec95b0a41f
submitter=submitter = University of Tokyo Team (Faculty of Engineering, University of Tokyo)
MoNA Rating=3.75

>  <NUM PEAKS>  (7008) 
34

>  <MASS SPECTRAL PEAKS>  (7008) 
29 14.3
30 5.4
39 4.5
40 0.13
41 9.4
42 28.5
43 17.8
44 99.99
45 94
46 8.3
52 0.7
53 0.14
54 9.2
55 8.1
56 32.3
57 0.98
58 8.7
59 2.4
67 1.2
68 0.42
69 1.4
70 2.3
71 0.7
72 0.19
82 5.6
83 2.6
84 17.8
85 0.58
97 0.7
99 6.4
113 2.7
127 0.09
128 42.8
129 6.1

$$$$

     RDKit          2D

  9  8  0  0  0  0  0  0  0  0999 V2000
   -5.5209    2.8125    0.0000 C   0  0  0  0  0  0  0  0  0  0  0  0
   -4.2219    5.0625    0.0000 C   0  0  0  0  0  0  0  0  0  0  0  0
    0.9743    2.0625    0.0000 C   0  0  0  0  0  0  0  0  0  0  0  0
   -0.3248    4.3125    0.0000 C   0  0  0  0  0  0  0  0  0  0  0  0
   -4.2219    2.0625    0.0000 C   0  0  0  0  0  0  0  0  0  0  0  0
   -2.9228    4.3125    0.0000 C   0  0  0  0  0  0  0  0  0  0  0  0
   -0.3248    2.8125    0.0000 C   0  0  0  0  0  0  0  0  0  0  0  0
   -1.6238    2.0625    0.0000 N   0  0  0  0  0  0  0  0  0  0  0  0
   -2.9228    2.8125    0.0000 N   0  0  0  0  0  0  0  0  0  0  0  0
  5  1  1  0
  6  2  1  0
  7  3  1  0
  7  4  1  0
  8  7  2  0
  9  5  1  0
  9  6  1  0
  9  8  1  0
M  END
>  <NAME>  (7009) 
DIETHYLHYDRAZONE ACETONE

>  <SYNONYMS>  (7009) 
ACETONE DIETHYLHYDRAZONE

>  <SPECTRUM TYPE>  (7009) 
MS1

>  <INSTRUMENT TYPE>  (7009) 
EI-B

>  <INSTRUMENT>  (7009) 
SHIMADZU LKB-2091

>  <ION MODE>  (7009) 
P

>  <INCHIKEY>  (7009) 
GGVIFVVMUPEGHJ-UHFFFAOYSA-N

>  <FORMULA>  (7009) 
C7H16N2

>  <EXACT MASS>  (7009) 
128.131348512

>  <MW>  (7009) 
128

>  <ID>  (7009) 
JP000849

>  <CONTRIBUTOR>  (7009) 
University of Tokyo Team, {Faculty of Engineering, University of Tokyo

>  <COMMENT>  (7009) 
SMILES=CCN(CC)N=C(C)C
InChI=InChI=1S/C7H16N2/c1-5-9(6-2)8-7(3)4/h5-6H2,1-4H3
computed SMILES=N(=C(C)C)N(CC)CC
accession=JP000849
date=2016.01.19 (Created 2008.10.21, modified 2011.05.06)
author=SASAKI S, TOYOHASHI UNIV. OF TECH.
license=CC BY-NC-SA
exact mass=128.13135
ionization energy=70 eV
ion type=[M]+*
computed spectral entropy=2.4230376466689165
computed normalized entropy=0.7271575436831504
SPLASH=splash10-08i0-9600000000-49174a2db21bf1851184
submitter=submitter = University of Tokyo Team (Faculty of Engineering, University of Tokyo)
MoNA Rating=3.75

>  <NUM PEAKS>  (7009) 
28

>  <MASS SPECTRAL PEAKS>  (7009) 
27 14.7
28 14.7
29 16.9
30 0.44
39 5
40 2.5
41 11.2
42 1.89
43 10.5
44 9.9
54 1.1
55 0.1
56 76.9
57 4.2
58 12.2
70 0.3
71 2.7
72 3.6
85 6.1
97 0.08
99 9.3
100 0.9
112 1
113 99.99
114 10
127 3.2
128 33.7
129 3.4

$$$$

     RDKit          2D

  7  6  0  0  0  0  0  0  0  0999 V2000
    1.6238    1.6875    0.0000 C   0  0  0  0  0  0  0  0  0  0  0  0
    0.3248    3.9375    0.0000 C   0  0  0  0  0  0  0  0  0  0  0  0
   -3.5724    1.6875    0.0000 C   0  0  0  0  0  0  0  0  0  0  0  0
   -2.2733    3.9375    0.0000 C   0  0  0  0  0  0  0  0  0  0  0  0
    0.3248    2.4375    0.0000 C   0  0  0  0  0  0  0  0  0  0  0  0
   -0.9743    1.6875    0.0000 N   0  0  0  0  0  0  0  0  0  0  0  0
   -2.2733    2.4375    0.0000 N   0  0  0  0  0  0  0  0  0  0  0  0
  5  1  1  0
  5  2  1  0
  6  5  2  0
  7  3  1  0
  7  4  1  0
  7  6  1  0
M  END
>  <NAME>  (7010) 
DIMETHYLHYDRAZONE ACETONE

>  <SYNONYMS>  (7010) 
ACETONE DIMETHYLHYDRAZONE

>  <SPECTRUM TYPE>  (7010) 
MS1

>  <INSTRUMENT TYPE>  (7010) 
EI-B

>  <INSTRUMENT>  (7010) 
SHIMADZU LKB-2091

>  <ION MODE>  (7010) 
P

>  <INCHIKEY>  (7010) 
IDSMDKUVIBSETN-UHFFFAOYSA-N

>  <FORMULA>  (7010) 
C5H12N2

>  <EXACT MASS>  (7010) 
100.10004838399999

>  <MW>  (7010) 
100

>  <ID>  (7010) 
JP000848

>  <CONTRIBUTOR>  (7010) 
University of Tokyo Team, {Faculty of Engineering, University of Tokyo

>  <COMMENT>  (7010) 
SMILES=CC(C)=NN(C)C
InChI=InChI=1S/C5H12N2/c1-5(2)6-7(3)4/h1-4H3
computed SMILES=N(=C(C)C)N(C)C
accession=JP000848
date=2016.01.19 (Created 2008.10.21, modified 2011.05.06)
author=SASAKI S, TOYOHASHI UNIV. OF TECH.
license=CC BY-NC-SA
exact mass=100.10005
ionization energy=70 eV
ion type=[M]+*
computed spectral entropy=2.5390202308089296
computed normalized entropy=0.7326063791409588
SPLASH=splash10-0006-9200000000-0ca50be469db3a27e06f
submitter=submitter = University of Tokyo Team (Faculty of Engineering, University of Tokyo)
MoNA Rating=3.75

>  <NUM PEAKS>  (7010) 
32

>  <MASS SPECTRAL PEAKS>  (7010) 
28 23.5
29 10.6
30 11.5
31 0.16
38 1.5
39 12.9
40 5.9
41 2.29
42 58.9
43 25.9
44 99.99
45 7.06
46 2.5
54 3.4
55 2.6
56 7.06
57 18.8
58 8.8
59 5.8
60 0.25
69 3.2
70 1.6
71 0.9
72 0.08
73 1.4
74 1.6
84 1.1
85 2.12
86 1.8
99 16.8
100 82.4
101 5.9

$$$$

     RDKit          2D

 12 11  0  0  0  0  0  0  0  0999 V2000
    3.2476    5.6250    0.0000 C   0  0  0  0  0  0  0  0  0  0  0  0
   -9.7428    5.6250    0.0000 C   0  0  0  0  0  0  0  0  0  0  0  0
   -3.2476    7.8750    0.0000 C   0  0  0  0  0  0  0  0  0  0  0  0
    1.9486    6.3750    0.0000 C   0  0  0  0  0  0  0  0  0  0  0  0
   -8.4437    6.3750    0.0000 C   0  0  0  0  0  0  0  0  0  0  0  0
    0.6495    5.6250    0.0000 C   0  0  0  0  0  0  0  0  0  0  0  0
   -0.6495    6.3750    0.0000 C   0  0  0  0  0  0  0  0  0  0  0  0
   -4.5466    5.6250    0.0000 C   0  0  0  0  0  0  0  0  0  0  0  0
   -5.8457    6.3750    0.0000 C   0  0  0  0  0  0  0  0  0  0  0  0
   -1.9486    5.6250    0.0000 N   0  0  0  0  0  0  0  0  0  0  0  0
   -3.2476    6.3750    0.0000 N   0  0  0  0  0  0  0  0  0  0  0  0
   -7.1447    5.6250    0.0000 O   0  0  0  0  0  0  0  0  0  0  0  0
  4  1  1  0
  5  2  1  0
  6  4  1  0
  7  6  1  0
  9  8  1  0
  7 10  2  0
 11  3  1  0
 11  8  1  0
 11 10  1  0
 12  5  1  0
 12  9  1  0
M  END
>  <NAME>  (7011) 
BUTYRALDEHYDE (2-ETHOXYETHYL)METHYLHYDRAZONE

>  <SYNONYMS>  (7011) 


>  <SPECTRUM TYPE>  (7011) 
MS1

>  <INSTRUMENT TYPE>  (7011) 
EI-B

>  <INSTRUMENT>  (7011) 
SHIMADZU LKB-2091

>  <ION MODE>  (7011) 
P

>  <INCHIKEY>  (7011) 
FDQLPAGFGLXPAD-JXMROGBWSA-N

>  <FORMULA>  (7011) 
C9H20N2O

>  <EXACT MASS>  (7011) 
172.15756326

>  <MW>  (7011) 
172

>  <ID>  (7011) 
JP000847

>  <CONTRIBUTOR>  (7011) 
University of Tokyo Team, {Faculty of Engineering, University of Tokyo

>  <COMMENT>  (7011) 
SMILES=CCCC=NN(C)CCOCC
InChI=InChI=1S/C9H20N2O/c1-4-6-7-10-11(3)8-9-12-5-2/h7H,4-6,8-9H2,1-3H3/b10-7+
computed SMILES=N(=CCCC)N(C)CCOCC
accession=JP000847
date=2016.01.19 (Created 2008.10.21, modified 2011.05.06)
author=SASAKI S, TOYOHASHI UNIV. OF TECH.
license=CC BY-NC-SA
exact mass=172.15756
ionization energy=70 eV
ion type=[M]+*
computed spectral entropy=2.1376566506972843
computed normalized entropy=0.6415142420489938
SPLASH=splash10-03dl-8900000000-3c96c07db9f7c0b10174
submitter=submitter = University of Tokyo Team (Faculty of Engineering, University of Tokyo)
MoNA Rating=3.75

>  <NUM PEAKS>  (7011) 
28

>  <MASS SPECTRAL PEAKS>  (7011) 
27 7.8
28 5
29 6.3
30 0.33
31 4.7
39 1.6
41 6.3
42 1
43 14.4
44 46.7
45 5.9
55 0.13
56 2.6
57 1.7
58 2.8
59 0.17
70 4.4
71 1.9
72 1.6
83 0.19
84 0.7
85 0.9
86 1.4
100 0.13
113 99.99
114 8.5
172 12.2
173 1.8

$$$$

     RDKit          2D

 23 25  0  0  0  0  0  0  0  0999 V2000
   -6.4951   -1.1798    0.0000 C   0  0  0  0  0  0  0  0  0  0  0  0
   -5.1960    7.0702    0.0000 C   0  0  0  0  0  0  0  0  0  0  0  0
    3.8972    4.8202    0.0000 C   0  0  0  0  0  0  0  0  0  0  0  0
   -5.1956   -1.9306    0.0000 C   0  0  0  0  0  0  0  0  0  0  0  0
   -6.4956    0.3210    0.0000 C   0  0  0  0  0  0  0  0  0  0  0  0
   -3.8965    7.8210    0.0000 C   0  0  0  0  0  0  0  0  0  0  0  0
   -5.1965    5.5694    0.0000 C   0  0  0  0  0  0  0  0  0  0  0  0
    2.5977    5.5710    0.0000 C   0  0  0  0  0  0  0  0  0  0  0  0
    3.8977    3.3194    0.0000 C   0  0  0  0  0  0  0  0  0  0  0  0
   -3.8965   -1.1806    0.0000 C   0  0  0  0  0  0  0  0  0  0  0  0
   -5.1965    1.0710    0.0000 C   0  0  0  0  0  0  0  0  0  0  0  0
   -2.5975    7.0710    0.0000 C   0  0  0  0  0  0  0  0  0  0  0  0
   -3.8975    4.8194    0.0000 C   0  0  0  0  0  0  0  0  0  0  0  0
    1.2987    4.8210    0.0000 C   0  0  0  0  0  0  0  0  0  0  0  0
    2.5987    2.5694    0.0000 C   0  0  0  0  0  0  0  0  0  0  0  0
   -2.5980    1.0702    0.0000 C   0  0  0  0  0  0  0  0  0  0  0  0
   -1.2989    4.8202    0.0000 C   0  0  0  0  0  0  0  0  0  0  0  0
    0.0001    2.5702    0.0000 C   0  0  0  0  0  0  0  0  0  0  0  0
   -3.8970    0.3202    0.0000 C   0  0  0  0  0  0  0  0  0  0  0  0
   -2.5980    5.5702    0.0000 C   0  0  0  0  0  0  0  0  0  0  0  0
    1.2992    3.3202    0.0000 C   0  0  0  0  0  0  0  0  0  0  0  0
   -2.5980    2.5702    0.0000 N   0  0  0  0  0  0  0  0  0  0  0  0
   -1.2989    3.3202    0.0000 N   0  0  0  0  0  0  0  0  0  0  0  0
  4  1  2  0
  5  1  1  0
  6  2  2  0
  7  2  1  0
  8  3  2  0
  9  3  1  0
 10  4  1  0
 11  5  2  0
 12  6  1  0
 13  7  2  0
 14  8  1  0
 15  9  2  0
 19 10  2  0
 19 11  1  0
 19 16  1  0
 20 12  2  0
 20 13  1  0
 20 17  1  0
 21 14  2  0
 21 15  1  0
 21 18  1  0
 16 22  2  0
 23 17  1  0
 23 18  1  0
 23 22  1  0
M  END
>  <NAME>  (7012) 
DIBENZYLHYDRAZONE BENZALDEHYDE

>  <SYNONYMS>  (7012) 
BENZALDEHYDE DIBENZYLHYDRAZONE

>  <SPECTRUM TYPE>  (7012) 
MS1

>  <INSTRUMENT TYPE>  (7012) 
EI-B

>  <INSTRUMENT>  (7012) 
SHIMADZU LKB-2091

>  <ION MODE>  (7012) 
P

>  <INCHIKEY>  (7012) 
GLRHIFIUOXQKIX-CJLVFECKSA-N

>  <FORMULA>  (7012) 
C21H20N2

>  <EXACT MASS>  (7012) 
300.16264864

>  <MW>  (7012) 
300

>  <ID>  (7012) 
JP000846

>  <CONTRIBUTOR>  (7012) 
University of Tokyo Team, {Faculty of Engineering, University of Tokyo

>  <COMMENT>  (7012) 
SMILES=c(c3)ccc(c3)C=NN(Cc(c2)cccc2)Cc(c1)cccc1
InChI=InChI=1S/C21H20N2/c1-4-10-19(11-5-1)16-22-23(17-20-12-6-2-7-13-20)18-21-14-8-3-9-15-21/h1-16H,17-18H2/b22-16+
computed SMILES=N(=CC=1C=CC=CC1)N(CC=2C=CC=CC2)CC=3C=CC=CC3
accession=JP000846
date=2016.01.19 (Created 2008.10.21, modified 2011.05.06)
author=SASAKI S, TOYOHASHI UNIV. OF TECH.
license=CC BY-NC-SA
exact mass=300.16265
ionization energy=70 eV
ion type=[M]+*
computed spectral entropy=2.2577568385763342
computed normalized entropy=0.6457177051347208
SPLASH=splash10-0f6x-9303000000-be842162780b407e6a5b
submitter=submitter = University of Tokyo Team (Faculty of Engineering, University of Tokyo)
MoNA Rating=3.75

>  <NUM PEAKS>  (7012) 
33

>  <MASS SPECTRAL PEAKS>  (7012) 
27 1
29 0.8
39 2.8
41 0.22
42 0.8
43 2
51 2.6
55 0.13
57 2.6
63 1.5
65 9.5
71 0.16
77 4.6
89 4.1
90 6.7
91 99.99
92 9.5
103 9
104 1.9
153 0.15
165 5.6
166 11.3
167 2.2
178 0.1
179 3.6
180 1.4
181 22.3
182 0.36
209 2.1
223 1.4
300 56.4
301 1.44
302 1.6

$$$$

     RDKit          2D

 14 13  0  0  0  0  0  0  0  0999 V2000
    2.2733    5.0625    0.0000 C   0  0  0  0  0  0  0  0  0  0  0  0
   -6.8200    2.8125    0.0000 C   0  0  0  0  0  0  0  0  0  0  0  0
   -4.2219    2.8125    0.0000 C   0  0  0  0  0  0  0  0  0  0  0  0
   -5.5209    9.5625    0.0000 C   0  0  0  0  0  0  0  0  0  0  0  0
   -6.8200    7.3125    0.0000 C   0  0  0  0  0  0  0  0  0  0  0  0
    0.9743    5.8125    0.0000 C   0  0  0  0  0  0  0  0  0  0  0  0
   -0.3248    5.0625    0.0000 C   0  0  0  0  0  0  0  0  0  0  0  0
   -1.6238    5.8125    0.0000 C   0  0  0  0  0  0  0  0  0  0  0  0
   -5.5209    5.0625    0.0000 C   0  0  0  0  0  0  0  0  0  0  0  0
   -4.2219    7.3125    0.0000 C   0  0  0  0  0  0  0  0  0  0  0  0
   -5.5209    3.5625    0.0000 C   0  0  0  0  0  0  0  0  0  0  0  0
   -5.5209    8.0625    0.0000 C   0  0  0  0  0  0  0  0  0  0  0  0
   -2.9228    5.0625    0.0000 N   0  0  0  0  0  0  0  0  0  0  0  0
   -4.2219    5.8125    0.0000 N   0  0  0  0  0  0  0  0  0  0  0  0
  6  1  1  0
  7  6  1  0
  8  7  1  0
 11  2  1  0
 11  3  1  0
 11  9  1  0
 12  4  1  0
 12  5  1  0
 12 10  1  0
  8 13  2  0
 14  9  1  0
 14 10  1  0
 14 13  1  0
M  END
>  <NAME>  (7013) 
DIISOBUTYLHYDRAZONE ISOBUTYRALDEHYDE

>  <SYNONYMS>  (7013) 
ISOBUTYRALDEHYDE DIISOBUTYLHYDRAZONE

>  <SPECTRUM TYPE>  (7013) 
MS1

>  <INSTRUMENT TYPE>  (7013) 
EI-B

>  <INSTRUMENT>  (7013) 
SHIMADZU LKB-2091

>  <ION MODE>  (7013) 
P

>  <INCHIKEY>  (7013) 
ASPGBKIEGSGRKE-MDWZMJQESA-N

>  <FORMULA>  (7013) 
C12H26N2

>  <EXACT MASS>  (7013) 
198.20959883199998

>  <MW>  (7013) 
198

>  <ID>  (7013) 
JP000845

>  <CONTRIBUTOR>  (7013) 
University of Tokyo Team, {Faculty of Engineering, University of Tokyo

>  <COMMENT>  (7013) 
SMILES=CCCC=NN(CC(C)C)CC(C)C
InChI=InChI=1S/C12H26N2/c1-6-7-8-13-14(9-11(2)3)10-12(4)5/h8,11-12H,6-7,9-10H2,1-5H3/b13-8+
computed SMILES=N(=CCCC)N(CC(C)C)CC(C)C
accession=JP000845
date=2016.01.19 (Created 2008.10.21, modified 2011.05.06)
author=SASAKI S, TOYOHASHI UNIV. OF TECH.
license=CC BY-NC-SA
exact mass=198.2096
ionization energy=70 eV
ion type=[M]+*
computed spectral entropy=2.313937627902819
computed normalized entropy=0.6361189883339754
SPLASH=splash10-0a4i-9800000000-a686e7e6d1b74d5e10ab
submitter=submitter = University of Tokyo Team (Faculty of Engineering, University of Tokyo)
MoNA Rating=3.75

>  <NUM PEAKS>  (7013) 
38

>  <MASS SPECTRAL PEAKS>  (7013) 
27 4.4
28 2.4
29 12.4
30 1.1
39 3
40 0.6
41 14.8
42 0.84
43 12.9
44 1.4
53 0.5
54 0.05
55 3.7
56 2.5
57 18.6
58 0.17
68 0.8
69 0.8
70 7.1
71 0.07
72 1.9
82 0.7
83 0.6
84 0.22
86 2
97 0.7
99 42.2
100 0.27
111 0.7
113 1.6
127 0.5
141 0.05
155 99.99
156 11
183 1.2
197 0.05
198 10.8
199 1.8

$$$$

     RDKit          2D

 14 13  0  0  0  0  0  0  0  0999 V2000
   -8.4437    5.6250    0.0000 C   0  0  0  0  0  0  0  0  0  0  0  0
    3.2476    4.8750    0.0000 C   0  0  0  0  0  0  0  0  0  0  0  0
    0.6495    0.3750    0.0000 C   0  0  0  0  0  0  0  0  0  0  0  0
   -7.1447    4.8750    0.0000 C   0  0  0  0  0  0  0  0  0  0  0  0
    1.9486    5.6250    0.0000 C   0  0  0  0  0  0  0  0  0  0  0  0
   -0.6495    1.1250    0.0000 C   0  0  0  0  0  0  0  0  0  0  0  0
   -5.8457    5.6250    0.0000 C   0  0  0  0  0  0  0  0  0  0  0  0
    0.6495    4.8750    0.0000 C   0  0  0  0  0  0  0  0  0  0  0  0
   -0.6495    2.6250    0.0000 C   0  0  0  0  0  0  0  0  0  0  0  0
   -4.5466    4.8750    0.0000 C   0  0  0  0  0  0  0  0  0  0  0  0
   -0.6495    5.6250    0.0000 C   0  0  0  0  0  0  0  0  0  0  0  0
   -1.9486    3.3750    0.0000 C   0  0  0  0  0  0  0  0  0  0  0  0
   -3.2476    5.6250    0.0000 N   0  0  0  0  0  0  0  0  0  0  0  0
   -1.9486    4.8750    0.0000 N   0  0  0  0  0  0  0  0  0  0  0  0
  4  1  1  0
  5  2  1  0
  6  3  1  0
  7  4  1  0
  8  5  1  0
  9  6  1  0
 10  7  1  0
 11  8  1  0
 12  9  1  0
 10 13  2  0
 14 11  1  0
 14 12  1  0
 14 13  1  0
M  END
>  <NAME>  (7014) 
DI-N-BUTYLHYDRAZONE BUTYRALDEHYDE

>  <SYNONYMS>  (7014) 
BUTYRALDEHYDE DIBUTYLHYDRAZONE

>  <SPECTRUM TYPE>  (7014) 
MS1

>  <INSTRUMENT TYPE>  (7014) 
EI-B

>  <INSTRUMENT>  (7014) 
SHIMADZU LKB-2091

>  <ION MODE>  (7014) 
P

>  <INCHIKEY>  (7014) 
SUXRDGHXUJLOLZ-JLHYYAGUSA-N

>  <FORMULA>  (7014) 
C12H26N2

>  <EXACT MASS>  (7014) 
198.20959883199998

>  <MW>  (7014) 
198

>  <ID>  (7014) 
JP000844

>  <CONTRIBUTOR>  (7014) 
University of Tokyo Team, {Faculty of Engineering, University of Tokyo

>  <COMMENT>  (7014) 
SMILES=CCCC=NN(CCCC)CCCC
InChI=InChI=1S/C12H26N2/c1-4-7-10-13-14(11-8-5-2)12-9-6-3/h10H,4-9,11-12H2,1-3H3/b13-10+
computed SMILES=N(=CCCC)N(CCCC)CCCC
accession=JP000844
date=2016.01.19 (Created 2008.10.21, modified 2011.05.06)
author=SASAKI S, TOYOHASHI UNIV. OF TECH.
license=CC BY-NC-SA
exact mass=198.2096
ionization energy=70 eV
ion type=[M]+*
computed spectral entropy=2.5840244594853945
computed normalized entropy=0.7053312347603802
SPLASH=splash10-0a4i-8900000000-26fb81a2a229393d825f
submitter=submitter = University of Tokyo Team (Faculty of Engineering, University of Tokyo)
MoNA Rating=3.75

>  <NUM PEAKS>  (7014) 
39

>  <MASS SPECTRAL PEAKS>  (7014) 
27 9.8
28 6.9
29 23.4
30 1.69
39 3.6
41 20.8
42 9.6
43 1.05
44 7.7
53 0.7
54 0.8
55 0.52
56 3.9
57 15.6
58 1.3
68 0.11
69 1.2
70 7.1
71 1.2
72 0.21
83 1.8
84 4.3
85 1
86 0.32
99 19.5
100 1.8
111 0.6
112 0.06
113 27.3
114 2.3
126 0.7
127 0.05
128 0.7
155 99.99
156 10.5
169 0.17
197 0.6
198 13.6
199 2.5

$$$$

     RDKit          2D

 13 12  0  0  0  0  0  0  0  0999 V2000
    2.9228    6.1875    0.0000 C   0  0  0  0  0  0  0  0  0  0  0  0
  -10.0675    6.1875    0.0000 C   0  0  0  0  0  0  0  0  0  0  0  0
   -8.7685    3.9375    0.0000 C   0  0  0  0  0  0  0  0  0  0  0  0
    1.6238    6.9375    0.0000 C   0  0  0  0  0  0  0  0  0  0  0  0
   -8.7685    6.9375    0.0000 C   0  0  0  0  0  0  0  0  0  0  0  0
   -7.4695    4.6875    0.0000 C   0  0  0  0  0  0  0  0  0  0  0  0
    0.3248    6.1875    0.0000 C   0  0  0  0  0  0  0  0  0  0  0  0
   -0.9743    6.9375    0.0000 C   0  0  0  0  0  0  0  0  0  0  0  0
   -2.2733    6.1875    0.0000 C   0  0  0  0  0  0  0  0  0  0  0  0
   -3.5724    6.9375    0.0000 C   0  0  0  0  0  0  0  0  0  0  0  0
   -4.8714    6.1875    0.0000 C   0  0  0  0  0  0  0  0  0  0  0  0
   -6.1704    6.9375    0.0000 N   0  0  0  0  0  0  0  0  0  0  0  0
   -7.4695    6.1875    0.0000 N   0  0  0  0  0  0  0  0  0  0  0  0
  4  1  1  0
  5  2  1  0
  6  3  1  0
  7  4  1  0
  8  7  1  0
  9  8  1  0
 10  9  1  0
 11 10  1  0
 11 12  2  0
 13  5  1  0
 13  6  1  0
 13 12  1  0
M  END
>  <NAME>  (7015) 
DIETHYLHYDRAZONE HEXANECARBALDEHYDE

>  <SYNONYMS>  (7015) 
HEPTANAL DIETHYLHYDRAZONE

>  <SPECTRUM TYPE>  (7015) 
MS1

>  <INSTRUMENT TYPE>  (7015) 
EI-B

>  <INSTRUMENT>  (7015) 
SHIMADZU LKB-2091

>  <ION MODE>  (7015) 
P

>  <INCHIKEY>  (7015) 
SJQVGFKERUZNDC-VAWYXSNFSA-N

>  <FORMULA>  (7015) 
C11H24N2

>  <EXACT MASS>  (7015) 
184.19394876799998

>  <MW>  (7015) 
184

>  <ID>  (7015) 
JP000843

>  <CONTRIBUTOR>  (7015) 
University of Tokyo Team, {Faculty of Engineering, University of Tokyo

>  <COMMENT>  (7015) 
SMILES=CCCCCCC=NN(CC)CC
InChI=InChI=1S/C11H24N2/c1-4-7-8-9-10-11-12-13(5-2)6-3/h11H,4-10H2,1-3H3/b12-11+
computed SMILES=N(=CCCCCCC)N(CC)CC
accession=JP000843
date=2016.01.19 (Created 2008.10.21, modified 2011.05.06)
author=SASAKI S, TOYOHASHI UNIV. OF TECH.
license=CC BY-NC-SA
exact mass=184.19395
ionization energy=70 eV
ion type=[M]+*
computed spectral entropy=3.1145392242884777
computed normalized entropy=0.7844610149841543
SPLASH=splash10-014i-9700000000-3e397ac0be01e08e4712
submitter=submitter = University of Tokyo Team (Faculty of Engineering, University of Tokyo)
MoNA Rating=3.75

>  <NUM PEAKS>  (7015) 
53

>  <MASS SPECTRAL PEAKS>  (7015) 
28 15.6
29 25.6
30 24.4
39 0.38
40 1.1
41 15
42 17.5
43 1.88
44 22.8
45 0.9
53 1.1
54 0.15
55 7.8
56 17.2
57 6.6
58 3.75
59 5.9
67 1
68 1.5
69 0.47
70 7.8
71 6.6
72 9.4
73 0.55
82 1.2
83 2.5
84 1.2
85 0.88
86 1.4
87 24.4
88 2.8
95 0.12
97 2.2
99 12.8
100 1.2
110 0.06
111 1.1
112 2.5
113 25
114 3.44
115 2.5
127 7.5
128 1.5
141 0.41
142 1.4
155 16.2
156 2.2
169 99.99
170 13.4
171 0.7
183 3.1
184 3.75
185 5.6

$$$$

     RDKit          2D

 13 12  0  0  0  0  0  0  0  0999 V2000
    2.5981    4.5000    0.0000 C   0  0  0  0  0  0  0  0  0  0  0  0
   -7.7942    4.5000    0.0000 C   0  0  0  0  0  0  0  0  0  0  0  0
   -6.4952    6.7500    0.0000 C   0  0  0  0  0  0  0  0  0  0  0  0
   -5.1962    7.5000    0.0000 C   0  0  0  0  0  0  0  0  0  0  0  0
   -2.5981    7.5000    0.0000 C   0  0  0  0  0  0  0  0  0  0  0  0
    1.2990    5.2500    0.0000 C   0  0  0  0  0  0  0  0  0  0  0  0
    0.0000    4.5000    0.0000 C   0  0  0  0  0  0  0  0  0  0  0  0
   -1.2990    5.2500    0.0000 C   0  0  0  0  0  0  0  0  0  0  0  0
   -5.1962    4.5000    0.0000 C   0  0  0  0  0  0  0  0  0  0  0  0
   -6.4952    5.2500    0.0000 C   0  0  0  0  0  0  0  0  0  0  0  0
   -3.8971    6.7500    0.0000 C   0  0  0  0  0  0  0  0  0  0  0  0
   -2.5981    4.5000    0.0000 N   0  0  0  0  0  0  0  0  0  0  0  0
   -3.8971    5.2500    0.0000 N   0  0  0  0  0  0  0  0  0  0  0  0
  6  1  1  0
  7  6  1  0
  8  7  1  0
 10  2  1  0
 10  3  1  0
 10  9  1  0
 11  4  1  0
 11  5  1  0
  8 12  2  0
 13  9  1  0
 13 11  1  0
 13 12  1  0
M  END
>  <NAME>  (7016) 
ISOPROPYLISOBUTYLHYDRAZONE ISOBUTYRALDEHYDE

>  <SYNONYMS>  (7016) 
ISOBUTYRALDEHYDE ISOBUTYLISOPROPYLHYDRAZONE

>  <SPECTRUM TYPE>  (7016) 
MS1

>  <INSTRUMENT TYPE>  (7016) 
EI-B

>  <INSTRUMENT>  (7016) 
SHIMADZU LKB-2091

>  <ION MODE>  (7016) 
P

>  <INCHIKEY>  (7016) 
RUIGJZCKVBPILW-XYOKQWHBSA-N

>  <FORMULA>  (7016) 
C11H24N2

>  <EXACT MASS>  (7016) 
184.19394876799998

>  <MW>  (7016) 
184

>  <ID>  (7016) 
JP000842

>  <CONTRIBUTOR>  (7016) 
University of Tokyo Team, {Faculty of Engineering, University of Tokyo

>  <COMMENT>  (7016) 
SMILES=CCCC=NN(CC(C)C)C(C)C
InChI=InChI=1S/C11H24N2/c1-6-7-8-12-13(11(4)5)9-10(2)3/h8,10-11H,6-7,9H2,1-5H3/b12-8+
computed SMILES=N(=CCCC)N(CC(C)C)C(C)C
accession=JP000842
date=2016.01.19 (Created 2008.10.21, modified 2011.05.06)
author=SASAKI S, TOYOHASHI UNIV. OF TECH.
license=CC BY-NC-SA
exact mass=184.19395
ionization energy=70 eV
ion type=[M]+*
computed spectral entropy=2.448474843526188
computed normalized entropy=0.6637448780809533
SPLASH=splash10-0007-9700000000-21ac91cadc9d6780219d
submitter=submitter = University of Tokyo Team (Faculty of Engineering, University of Tokyo)
MoNA Rating=3.75

>  <NUM PEAKS>  (7016) 
40

>  <MASS SPECTRAL PEAKS>  (7016) 
28 5.4
29 9.4
30 15.2
31 0.04
39 4.2
41 17.4
42 5.3
43 2.28
44 4.9
53 0.6
54 0.9
55 0.52
56 7.5
57 8.2
58 3.8
68 0.08
69 1.2
70 13
71 1.7
82 0.1
83 0.9
84 0.6
85 0.6
98 0.06
99 70.6
100 5.3
111 0.3
112 0.04
113 7.8
114 0.8
125 0.8
127 0.13
141 99.99
142 7.9
143 0.5
169 1.09
170 1.2
183 0.6
184 18.5
185 3.3

$$$$

     RDKit          2D

 11 10  0  0  0  0  0  0  0  0999 V2000
   -8.4437    3.3750    0.0000 C   0  0  0  0  0  0  0  0  0  0  0  0
    0.6495    2.6250    0.0000 C   0  0  0  0  0  0  0  0  0  0  0  0
   -1.9486    7.1250    0.0000 C   0  0  0  0  0  0  0  0  0  0  0  0
   -7.1447    2.6250    0.0000 C   0  0  0  0  0  0  0  0  0  0  0  0
   -0.6495    3.3750    0.0000 C   0  0  0  0  0  0  0  0  0  0  0  0
   -1.9486    5.6250    0.0000 C   0  0  0  0  0  0  0  0  0  0  0  0
   -5.8457    3.3750    0.0000 C   0  0  0  0  0  0  0  0  0  0  0  0
   -1.9486    2.6250    0.0000 C   0  0  0  0  0  0  0  0  0  0  0  0
   -3.2476    4.8750    0.0000 C   0  0  0  0  0  0  0  0  0  0  0  0
   -4.5466    2.6250    0.0000 N   0  0  0  0  0  0  0  0  0  0  0  0
   -3.2476    3.3750    0.0000 N   0  0  0  0  0  0  0  0  0  0  0  0
  4  1  1  0
  5  2  1  0
  6  3  1  0
  7  4  1  0
  8  5  1  0
  9  6  1  0
  7 10  2  0
 11  8  1  0
 11  9  1  0
 11 10  1  0
M  END
>  <NAME>  (7017) 
DI-N-PROPYLHYDRAZONE PROPIONALDEHYDE

>  <SYNONYMS>  (7017) 
PROPIONALDEHYDE DIPROPYLHYDRAZONE

>  <SPECTRUM TYPE>  (7017) 
MS1

>  <INSTRUMENT TYPE>  (7017) 
EI-B

>  <INSTRUMENT>  (7017) 
SHIMADZU LKB-2091

>  <ION MODE>  (7017) 
P

>  <INCHIKEY>  (7017) 
HZLLEYSUZNQXGX-JXMROGBWSA-N

>  <FORMULA>  (7017) 
C9H20N2

>  <EXACT MASS>  (7017) 
156.16264864

>  <MW>  (7017) 
156

>  <ID>  (7017) 
JP000840

>  <CONTRIBUTOR>  (7017) 
University of Tokyo Team, {Faculty of Engineering, University of Tokyo

>  <COMMENT>  (7017) 
SMILES=CCC=NN(CCC)CCC
InChI=InChI=1S/C9H20N2/c1-4-7-10-11(8-5-2)9-6-3/h7H,4-6,8-9H2,1-3H3/b10-7+
computed SMILES=N(=CCC)N(CCC)CCC
accession=JP000840
date=2016.01.19 (Created 2008.10.21, modified 2011.05.06)
author=SASAKI S, TOYOHASHI UNIV. OF TECH.
license=CC BY-NC-SA
exact mass=156.16265
ionization energy=70 eV
ion type=[M]+*
computed spectral entropy=2.335766113920714
computed normalized entropy=0.67395963784598
SPLASH=splash10-004i-9700000000-6b7dba942c451a621227
submitter=submitter = University of Tokyo Team (Faculty of Engineering, University of Tokyo)
MoNA Rating=3.75

>  <NUM PEAKS>  (7017) 
32

>  <MASS SPECTRAL PEAKS>  (7017) 
28 12.6
29 4.3
30 24
31 0.05
32 1.8
39 3.3
40 0.8
41 1.92
42 8.1
43 25.3
44 2.3
54 0.09
55 0.8
56 7.4
57 1.1
58 0.39
59 0.7
70 4.7
71 0.8
72 0.39
83 0.6
85 32.9
86 1.5
97 0.05
98 0.6
99 24.7
100 0.6
113 0.85
127 99.99
128 6.9
156 15.8
157 1.5

$$$$

     RDKit          2D

 10  9  0  0  0  0  0  0  0  0999 V2000
    1.9486    3.3750    0.0000 C   0  0  0  0  0  0  0  0  0  0  0  0
    0.6495    1.1250    0.0000 C   0  0  0  0  0  0  0  0  0  0  0  0
   -5.8457    3.3750    0.0000 C   0  0  0  0  0  0  0  0  0  0  0  0
   -4.5466    5.6250    0.0000 C   0  0  0  0  0  0  0  0  0  0  0  0
    0.6495    4.1250    0.0000 C   0  0  0  0  0  0  0  0  0  0  0  0
   -0.6495    1.8750    0.0000 C   0  0  0  0  0  0  0  0  0  0  0  0
   -3.2476    3.3750    0.0000 C   0  0  0  0  0  0  0  0  0  0  0  0
   -4.5466    4.1250    0.0000 C   0  0  0  0  0  0  0  0  0  0  0  0
   -1.9486    4.1250    0.0000 N   0  0  0  0  0  0  0  0  0  0  0  0
   -0.6495    3.3750    0.0000 N   0  0  0  0  0  0  0  0  0  0  0  0
  5  1  1  0
  6  2  1  0
  8  3  1  0
  8  4  1  0
  8  7  1  0
  7  9  2  0
 10  5  1  0
 10  6  1  0
 10  9  1  0
M  END
>  <NAME>  (7018) 
DIETHYLHYDRAZONE ISOBUTYRALDEHYDE

>  <SYNONYMS>  (7018) 
ISOBUTYRALDEHYDE DIETHYLHYDRAZONE

>  <SPECTRUM TYPE>  (7018) 
MS1

>  <INSTRUMENT TYPE>  (7018) 
EI-B

>  <INSTRUMENT>  (7018) 
SHIMADZU LKB-2091

>  <ION MODE>  (7018) 
P

>  <INCHIKEY>  (7018) 
KDMGAIKQJYFJMZ-VQHVLOKHSA-N

>  <FORMULA>  (7018) 
C8H18N2

>  <EXACT MASS>  (7018) 
142.146998576

>  <MW>  (7018) 
142

>  <ID>  (7018) 
JP000839

>  <CONTRIBUTOR>  (7018) 
University of Tokyo Team, {Faculty of Engineering, University of Tokyo

>  <COMMENT>  (7018) 
SMILES=CCN(CC)N=CC(C)C
InChI=InChI=1S/C8H18N2/c1-5-10(6-2)9-7-8(3)4/h7-8H,5-6H2,1-4H3/b9-7+
computed SMILES=N(=CC(C)C)N(CC)CC
accession=JP000839
date=2016.01.19 (Created 2008.10.21, modified 2011.05.06)
author=SASAKI S, TOYOHASHI UNIV. OF TECH.
license=CC BY-NC-SA
exact mass=142.147
ionization energy=70 eV
ion type=[M]+*
computed spectral entropy=2.7645192831735987
computed normalized entropy=0.7444366861653591
SPLASH=splash10-056r-9400000000-5ff380ba5e9d95a637ad
submitter=submitter = University of Tokyo Team (Faculty of Engineering, University of Tokyo)
MoNA Rating=3.75

>  <NUM PEAKS>  (7018) 
41

>  <MASS SPECTRAL PEAKS>  (7018) 
26 1.6
27 16.4
28 18.2
29 4.55
30 25.9
31 1.8
39 7.3
40 0.17
41 17.7
42 2
43 40.9
44 2.64
45 1.9
53 1.2
54 1.6
55 0.54
56 14.5
57 8.2
58 56.9
59 0.39
68 1.5
69 1.6
70 12.3
71 0.28
72 14.8
73 4.6
74 0.9
83 0.11
84 0.8
85 1.1
86 2
97 0.11
99 4.6
111 1
113 19.5
114 0.19
127 99.99
128 11.7
141 3.4
142 5
143 4.8

$$$$

     RDKit          2D

 10  9  0  0  0  0  0  0  0  0999 V2000
    1.9486    2.6250    0.0000 C   0  0  0  0  0  0  0  0  0  0  0  0
   -4.5466    3.3750    0.0000 C   0  0  0  0  0  0  0  0  0  0  0  0
   -3.2476    1.1250    0.0000 C   0  0  0  0  0  0  0  0  0  0  0  0
   -3.2476    5.6250    0.0000 C   0  0  0  0  0  0  0  0  0  0  0  0
   -0.6495    5.6250    0.0000 C   0  0  0  0  0  0  0  0  0  0  0  0
    0.6495    3.3750    0.0000 C   0  0  0  0  0  0  0  0  0  0  0  0
   -3.2476    2.6250    0.0000 C   0  0  0  0  0  0  0  0  0  0  0  0
   -1.9486    4.8750    0.0000 C   0  0  0  0  0  0  0  0  0  0  0  0
   -0.6495    2.6250    0.0000 N   0  0  0  0  0  0  0  0  0  0  0  0
   -1.9486    3.3750    0.0000 N   0  0  0  0  0  0  0  0  0  0  0  0
  6  1  1  0
  7  2  1  0
  7  3  1  0
  8  4  1  0
  8  5  1  0
  6  9  2  0
 10  7  1  0
 10  8  1  0
 10  9  1  0
M  END
>  <NAME>  (7019) 
DIISOPROPYLHYDRAZONE ACETALDEHYDE

>  <SYNONYMS>  (7019) 
ACETALDEHYDE DIISOPROPYLHYDRAZONE

>  <SPECTRUM TYPE>  (7019) 
MS1

>  <INSTRUMENT TYPE>  (7019) 
EI-B

>  <INSTRUMENT>  (7019) 
SHIMADZU LKB-2091

>  <ION MODE>  (7019) 
P

>  <INCHIKEY>  (7019) 
APXNZZVBAPDZPY-RMKNXTFCSA-N

>  <FORMULA>  (7019) 
C8H18N2

>  <EXACT MASS>  (7019) 
142.146998576

>  <MW>  (7019) 
142

>  <ID>  (7019) 
JP000838

>  <CONTRIBUTOR>  (7019) 
University of Tokyo Team, {Faculty of Engineering, University of Tokyo

>  <COMMENT>  (7019) 
SMILES=CC=NN(C(C)C)C(C)C
InChI=InChI=1S/C8H18N2/c1-6-9-10(7(2)3)8(4)5/h6-8H,1-5H3/b9-6+
computed SMILES=N(=CC)N(C(C)C)C(C)C
accession=JP000838
date=2016.01.19 (Created 2008.10.21, modified 2011.05.06)
author=SASAKI S, TOYOHASHI UNIV. OF TECH.
license=CC BY-NC-SA
exact mass=142.147
ionization energy=70 eV
ion type=[M]+*
computed spectral entropy=2.2732365893784094
computed normalized entropy=0.6750926274830865
SPLASH=splash10-002u-9100000000-9e875d86da94b73b0134
submitter=submitter = University of Tokyo Team (Faculty of Engineering, University of Tokyo)
MoNA Rating=3.75

>  <NUM PEAKS>  (7019) 
29

>  <MASS SPECTRAL PEAKS>  (7019) 
26 1.9
27 19.7
28 4.6
29 1.62
30 3.5
39 6.4
40 1.8
41 2.2
42 20.5
43 27.8
44 33.3
45 0.09
54 0.8
55 1.2
56 5.8
57 1.16
58 4
68 1.3
69 1.2
70 0.32
83 0.8
84 1.2
85 99.99
86 0.56
100 2.4
127 41.6
128 3.7
142 1.61
143 1.9

$$$$

     RDKit          2D

 10 10  0  0  0  0  0  0  0  0999 V2000
   -3.6979    2.5950    0.0000 C   0  0  0  0  0  0  0  0  0  0  0  0
   -2.3989    1.8450    0.0000 C   0  0  0  0  0  0  0  0  0  0  0  0
    3.4234    0.8495    0.0000 C   0  0  0  0  0  0  0  0  0  0  0  0
    2.6734   -0.4495    0.0000 C   0  0  0  0  0  0  0  0  0  0  0  0
    2.8802    2.2486    0.0000 C   0  0  0  0  0  0  0  0  0  0  0  0
    1.1902   -0.6786    0.0000 C   0  0  0  0  0  0  0  0  0  0  0  0
    1.4371    2.6891    0.0000 C   0  0  0  0  0  0  0  0  0  0  0  0
    0.0871    0.3509    0.0000 C   0  0  0  0  0  0  0  0  0  0  0  0
   -1.0999    2.5950    0.0000 N   0  0  0  0  0  0  0  0  0  0  0  0
    0.1992    1.8450    0.0000 N   0  0  0  0  0  0  0  0  0  0  0  0
  2  1  1  0
  4  3  1  0
  5  3  1  0
  6  4  1  0
  7  5  1  0
  8  6  1  0
  2  9  2  0
 10  7  1  0
 10  8  1  0
 10  9  1  0
M  END
>  <NAME>  (7020) 
HEXAMETHYLENEHYDRAZONE ACETALDEHYDE

>  <SYNONYMS>  (7020) 
ACETALDEHYDE HEXAMETHYLENEHYDRAZONE

>  <SPECTRUM TYPE>  (7020) 
MS1

>  <INSTRUMENT TYPE>  (7020) 
EI-B

>  <INSTRUMENT>  (7020) 
SHIMADZU LKB-2091

>  <ION MODE>  (7020) 
P

>  <INCHIKEY>  (7020) 
XLYFNXWSNVFHET-XNWCZRBMSA-N

>  <FORMULA>  (7020) 
C8H16N2

>  <EXACT MASS>  (7020) 
140.131348512

>  <MW>  (7020) 
140

>  <ID>  (7020) 
JP000837

>  <CONTRIBUTOR>  (7020) 
University of Tokyo Team, {Faculty of Engineering, University of Tokyo

>  <COMMENT>  (7020) 
SMILES=CC=NN(C1)CCCCC1
InChI=InChI=1S/C8H16N2/c1-2-9-10-7-5-3-4-6-8-10/h2H,3-8H2,1H3/b9-2+
computed SMILES=N(=CC)N1CCCCCC1
accession=JP000837
date=2016.01.19 (Created 2008.10.21, modified 2011.05.06)
author=SASAKI S, TOYOHASHI UNIV. OF TECH.
license=CC BY-NC-SA
exact mass=140.13135
ionization energy=70 eV
ion type=[M]+*
computed spectral entropy=2.905002079037065
computed normalized entropy=0.8170795176155259
SPLASH=splash10-0006-9100000000-f132c35a2f699f06b8d9
submitter=submitter = University of Tokyo Team (Faculty of Engineering, University of Tokyo)
MoNA Rating=3.75

>  <NUM PEAKS>  (7020) 
35

>  <MASS SPECTRAL PEAKS>  (7020) 
28 26.2
29 14.2
30 19.6
39 1.31
40 4.6
41 42.3
42 99.99
43 1.89
44 20.8
53 2.7
54 3.5
55 1.73
56 15
57 6.5
58 3.5
67 0.23
68 8.5
69 42.3
70 16.2
71 1.83
72 4.2
82 7.3
83 5.8
84 0.66
85 13.5
96 9.6
97 19.2
98 2.31
99 2.3
111 13.1
112 2.2
125 0.81
139 11.2
140 42.3
141 5

$$$$

     RDKit          2D

  9  8  0  0  0  0  0  0  0  0999 V2000
   -5.5209    5.0625    0.0000 C   0  0  0  0  0  0  0  0  0  0  0  0
    2.2733    2.0625    0.0000 C   0  0  0  0  0  0  0  0  0  0  0  0
   -0.3248    2.0625    0.0000 C   0  0  0  0  0  0  0  0  0  0  0  0
   -4.2219    4.3125    0.0000 C   0  0  0  0  0  0  0  0  0  0  0  0
   -2.9228    5.0625    0.0000 C   0  0  0  0  0  0  0  0  0  0  0  0
   -1.6238    4.3125    0.0000 C   0  0  0  0  0  0  0  0  0  0  0  0
   -0.3248    5.0625    0.0000 C   0  0  0  0  0  0  0  0  0  0  0  0
    0.9743    4.3125    0.0000 N   0  0  0  0  0  0  0  0  0  0  0  0
    0.9743    2.8125    0.0000 N   0  0  0  0  0  0  0  0  0  0  0  0
  4  1  1  0
  5  4  1  0
  6  5  1  0
  7  6  1  0
  7  8  2  0
  9  2  1  0
  9  3  1  0
  9  8  1  0
M  END
>  <NAME>  (7021) 
DIMETHYLHYDRAZONE VALERALDEHYDE

>  <SYNONYMS>  (7021) 
PENTANAL DIMETHYLHYDRAZONE

>  <SPECTRUM TYPE>  (7021) 
MS1

>  <INSTRUMENT TYPE>  (7021) 
EI-B

>  <INSTRUMENT>  (7021) 
SHIMADZU LKB-2091

>  <ION MODE>  (7021) 
P

>  <INCHIKEY>  (7021) 
GETAETQIBNJCHL-FPLPWBNLSA-N

>  <FORMULA>  (7021) 
C7H16N2

>  <EXACT MASS>  (7021) 
128.131348512

>  <MW>  (7021) 
128

>  <ID>  (7021) 
JP000836

>  <CONTRIBUTOR>  (7021) 
University of Tokyo Team, {Faculty of Engineering, University of Tokyo

>  <COMMENT>  (7021) 
SMILES=CCCCC=NN(C)C
InChI=InChI=1S/C7H16N2/c1-4-5-6-7-8-9(2)3/h7H,4-6H2,1-3H3/b8-7-
computed SMILES=N(=CCCCC)N(C)C
accession=JP000836
date=2016.01.19 (Created 2008.10.21, modified 2011.05.06)
author=SASAKI S, TOYOHASHI UNIV. OF TECH.
license=CC BY-NC-SA
exact mass=128.13135
ionization energy=70 eV
ion type=[M]+*
computed spectral entropy=2.599374117848404
computed normalized entropy=0.7719470605167605
SPLASH=splash10-0006-9000000000-0f0ce54b2c4984a4d6df
submitter=submitter = University of Tokyo Team (Faculty of Engineering, University of Tokyo)
MoNA Rating=3.75

>  <NUM PEAKS>  (7021) 
29

>  <MASS SPECTRAL PEAKS>  (7021) 
27 19.4
29 12.5
30 10
39 0.76
41 17.5
42 46.2
43 48.8
44 99.99
45 36.2
46 4.1
55 5.5
56 0.75
57 5.5
58 8.8
70 2.8
71 1.56
72 3.2
83 2.4
84 3.1
85 8.11
86 83.9
87 4.8
99 17.5
100 0.3
113 11.3
114 1
127 2.2
128 6.61
129 6.1

$$$$

     RDKit          2D

  9  8  0  0  0  0  0  0  0  0999 V2000
    1.6238    3.9375    0.0000 C   0  0  0  0  0  0  0  0  0  0  0  0
   -6.1704    3.9375    0.0000 C   0  0  0  0  0  0  0  0  0  0  0  0
   -4.8714    1.6875    0.0000 C   0  0  0  0  0  0  0  0  0  0  0  0
    0.3248    4.6875    0.0000 C   0  0  0  0  0  0  0  0  0  0  0  0
   -4.8714    4.6875    0.0000 C   0  0  0  0  0  0  0  0  0  0  0  0
   -3.5724    2.4375    0.0000 C   0  0  0  0  0  0  0  0  0  0  0  0
   -0.9743    3.9375    0.0000 C   0  0  0  0  0  0  0  0  0  0  0  0
   -2.2733    4.6875    0.0000 N   0  0  0  0  0  0  0  0  0  0  0  0
   -3.5724    3.9375    0.0000 N   0  0  0  0  0  0  0  0  0  0  0  0
  4  1  1  0
  5  2  1  0
  6  3  1  0
  7  4  1  0
  7  8  2  0
  9  5  1  0
  9  6  1  0
  9  8  1  0
M  END
>  <NAME>  (7022) 
DIETHYLHYDRAZONE PROPIONALDEHYDE

>  <SYNONYMS>  (7022) 
PROPIONALDEHYDE DIETHYLHYDRAZONE

>  <SPECTRUM TYPE>  (7022) 
MS1

>  <INSTRUMENT TYPE>  (7022) 
EI-B

>  <INSTRUMENT>  (7022) 
SHIMADZU LKB-2091

>  <ION MODE>  (7022) 
P

>  <INCHIKEY>  (7022) 
KIKLTTLXIQUYDB-BQYQJAHWSA-N

>  <FORMULA>  (7022) 
C7H16N2

>  <EXACT MASS>  (7022) 
128.131348512

>  <MW>  (7022) 
128

>  <ID>  (7022) 
JP000835

>  <CONTRIBUTOR>  (7022) 
University of Tokyo Team, {Faculty of Engineering, University of Tokyo

>  <COMMENT>  (7022) 
SMILES=CCC=NN(CC)CC
InChI=InChI=1S/C7H16N2/c1-4-7-8-9(5-2)6-3/h7H,4-6H2,1-3H3/b8-7+
computed SMILES=N(=CCC)N(CC)CC
accession=JP000835
date=2016.01.19 (Created 2008.10.21, modified 2011.05.06)
author=SASAKI S, TOYOHASHI UNIV. OF TECH.
license=CC BY-NC-SA
exact mass=128.13135
ionization energy=70 eV
ion type=[M]+*
computed spectral entropy=2.551006289887365
computed normalized entropy=0.711871859392605
SPLASH=splash10-03fr-9600000000-5a10eea91a8798e862e8
submitter=submitter = University of Tokyo Team (Faculty of Engineering, University of Tokyo)
MoNA Rating=3.75

>  <NUM PEAKS>  (7022) 
36

>  <MASS SPECTRAL PEAKS>  (7022) 
28 22.2
29 28.9
30 44.5
31 0.13
39 5.1
40 2
41 14.9
42 1.91
43 10.2
44 18
45 0.8
54 0.2
55 1.6
56 22.2
57 3.1
58 3.34
59 2.4
69 0.9
70 4.4
71 0.2
72 4
73 0.9
83 0.7
84 0.07
85 7.6
86 1.9
87 1.4
97 0.06
99 5.5
100 0.7
113 99.99
114 0.85
115 0.5
127 3.1
128 35.5
129 3.8

$$$$

     RDKit          2D

  9  8  0  0  0  0  0  0  0  0999 V2000
    2.2733    2.0625    0.0000 C   0  0  0  0  0  0  0  0  0  0  0  0
   -4.2219    2.8125    0.0000 C   0  0  0  0  0  0  0  0  0  0  0  0
   -2.9228    5.0625    0.0000 C   0  0  0  0  0  0  0  0  0  0  0  0
   -0.3248    5.0625    0.0000 C   0  0  0  0  0  0  0  0  0  0  0  0
    0.9743    2.8125    0.0000 C   0  0  0  0  0  0  0  0  0  0  0  0
   -2.9228    2.0625    0.0000 C   0  0  0  0  0  0  0  0  0  0  0  0
   -1.6238    4.3125    0.0000 C   0  0  0  0  0  0  0  0  0  0  0  0
   -0.3248    2.0625    0.0000 N   0  0  0  0  0  0  0  0  0  0  0  0
   -1.6238    2.8125    0.0000 N   0  0  0  0  0  0  0  0  0  0  0  0
  5  1  1  0
  6  2  1  0
  7  3  1  0
  7  4  1  0
  5  8  2  0
  9  6  1  0
  9  7  1  0
  9  8  1  0
M  END
>  <NAME>  (7023) 
ETHYLISOPROPYLHYDRAZONE ACETALDEHYDE

>  <SYNONYMS>  (7023) 
ACETALDEHYDE ETHYLISOPROPYLHYDRAZONE

>  <SPECTRUM TYPE>  (7023) 
MS1

>  <INSTRUMENT TYPE>  (7023) 
EI-B

>  <INSTRUMENT>  (7023) 
SHIMADZU LKB-2091

>  <ION MODE>  (7023) 
P

>  <INCHIKEY>  (7023) 
KBQAGUKZIMHXKW-VMPITWQZSA-N

>  <FORMULA>  (7023) 
C7H16N2

>  <EXACT MASS>  (7023) 
128.131348512

>  <MW>  (7023) 
128

>  <ID>  (7023) 
JP000834

>  <CONTRIBUTOR>  (7023) 
University of Tokyo Team, {Faculty of Engineering, University of Tokyo

>  <COMMENT>  (7023) 
SMILES=CC=NN(CC)C(C)C
InChI=InChI=1S/C7H16N2/c1-5-8-9(6-2)7(3)4/h5,7H,6H2,1-4H3/b8-5+
computed SMILES=N(=CC)N(CC)C(C)C
accession=JP000834
date=2016.01.19 (Created 2008.10.21, modified 2011.05.06)
author=SASAKI S, TOYOHASHI UNIV. OF TECH.
license=CC BY-NC-SA
exact mass=128.13135
ionization energy=70 eV
ion type=[M]+*
computed spectral entropy=2.613991622877184
computed normalized entropy=0.7762880824426062
SPLASH=splash10-03fu-9400000000-867c772cc2a47ff3416c
submitter=submitter = University of Tokyo Team (Faculty of Engineering, University of Tokyo)
MoNA Rating=3.75

>  <NUM PEAKS>  (7023) 
29

>  <MASS SPECTRAL PEAKS>  (7023) 
27 15.8
28 15.8
29 28.5
30 1.16
39 4.9
40 1.8
41 13.3
42 4.25
43 17
44 27.9
45 1.1
54 0.11
55 1.9
56 14.6
57 6.9
58 0.38
68 1.7
69 2.1
70 19.4
71 4.49
72 4.8
84 15.8
85 12.1
86 0.12
113 99.99
114 8.4
127 1
128 3.27
129 4.1

$$$$

     RDKit          2D

  9  8  0  0  0  0  0  0  0  0999 V2000
    1.9486    3.3750    0.0000 C   0  0  0  0  0  0  0  0  0  0  0  0
   -5.8457    3.3750    0.0000 C   0  0  0  0  0  0  0  0  0  0  0  0
   -3.2476    6.3750    0.0000 C   0  0  0  0  0  0  0  0  0  0  0  0
    0.6495    4.1250    0.0000 C   0  0  0  0  0  0  0  0  0  0  0  0
   -4.5466    4.1250    0.0000 C   0  0  0  0  0  0  0  0  0  0  0  0
   -0.6495    3.3750    0.0000 C   0  0  0  0  0  0  0  0  0  0  0  0
   -3.2476    3.3750    0.0000 C   0  0  0  0  0  0  0  0  0  0  0  0
   -1.9486    5.6250    0.0000 N   0  0  0  0  0  0  0  0  0  0  0  0
   -1.9486    4.1250    0.0000 N   0  0  0  0  0  0  0  0  0  0  0  0
  4  1  1  0
  5  2  1  0
  6  4  1  0
  7  5  1  0
  8  3  2  0
  9  6  1  0
  9  7  1  0
  9  8  1  0
M  END
>  <NAME>  (7024) 
DI-N-PROPYLHYDRAZONE FORMALDEHYDE

>  <SYNONYMS>  (7024) 
FORMALDEHYDE DIPROPYLHYDRAZONE

>  <SPECTRUM TYPE>  (7024) 
MS1

>  <INSTRUMENT TYPE>  (7024) 
EI-B

>  <INSTRUMENT>  (7024) 
SHIMADZU LKB-2091

>  <ION MODE>  (7024) 
P

>  <INCHIKEY>  (7024) 
GFWCHVXFEKXRSY-UHFFFAOYSA-N

>  <FORMULA>  (7024) 
C7H16N2

>  <EXACT MASS>  (7024) 
128.131348512

>  <MW>  (7024) 
128

>  <ID>  (7024) 
JP000833

>  <CONTRIBUTOR>  (7024) 
University of Tokyo Team, {Faculty of Engineering, University of Tokyo

>  <COMMENT>  (7024) 
SMILES=CCCN(N=C)CCC
InChI=InChI=1S/C7H16N2/c1-4-6-9(8-3)7-5-2/h3-7H2,1-2H3
computed SMILES=N(=C)N(CCC)CCC
accession=JP000833
date=2016.01.19 (Created 2008.10.21, modified 2011.05.06)
author=SASAKI S, TOYOHASHI UNIV. OF TECH.
license=CC BY-NC-SA
exact mass=128.13135
ionization energy=70 eV
ion type=[M]+*
computed spectral entropy=2.034142411433112
computed normalized entropy=0.648746982564702
SPLASH=splash10-052b-9100000000-34cd1c6e9b30db55393c
submitter=submitter = University of Tokyo Team (Faculty of Engineering, University of Tokyo)
MoNA Rating=3.75

>  <NUM PEAKS>  (7024) 
23

>  <MASS SPECTRAL PEAKS>  (7024) 
28 10.7
29 6.9
30 2.5
31 0.69
39 4
40 0.6
41 13.4
42 0.99
43 28
44 1.5
54 0.7
55 0.08
56 3.3
57 80
58 3.6
70 0.39
71 3.7
85 1.2
86 2.4
99 99.99
100 6.5
128 25.3
129 2.8

$$$$

     RDKit          2D

  9  9  0  0  0  0  0  0  0  0999 V2000
    3.5724   -2.4375    0.0000 C   0  0  0  0  0  0  0  0  0  0  0  0
    2.2733   -1.6875    0.0000 C   0  0  0  0  0  0  0  0  0  0  0  0
   -2.9228   -0.1875    0.0000 C   0  0  0  0  0  0  0  0  0  0  0  0
   -2.9233   -1.6883    0.0000 C   0  0  0  0  0  0  0  0  0  0  0  0
   -1.6233    0.5633    0.0000 C   0  0  0  0  0  0  0  0  0  0  0  0
   -1.6243   -2.4383    0.0000 C   0  0  0  0  0  0  0  0  0  0  0  0
   -0.3243   -0.1867    0.0000 C   0  0  0  0  0  0  0  0  0  0  0  0
    0.9743   -2.4375    0.0000 N   0  0  0  0  0  0  0  0  0  0  0  0
   -0.3248   -1.6875    0.0000 N   0  0  0  0  0  0  0  0  0  0  0  0
  2  1  1  0
  4  3  1  0
  5  3  1  0
  6  4  1  0
  7  5  1  0
  2  8  2  0
  9  6  1  0
  9  7  1  0
  9  8  1  0
M  END
>  <NAME>  (7025) 
PENTAMETHYLENEHYDRAZONE ACETALDEHYDE

>  <SYNONYMS>  (7025) 
ACETALDEHYDE PENTAMETHYLENEHYDRAZONE

>  <SPECTRUM TYPE>  (7025) 
MS1

>  <INSTRUMENT TYPE>  (7025) 
EI-B

>  <INSTRUMENT>  (7025) 
SHIMADZU LKB-2091

>  <ION MODE>  (7025) 
P

>  <INCHIKEY>  (7025) 
ANZXBMPSDRAZTQ-KRXBUXKQSA-N

>  <FORMULA>  (7025) 
C7H14N2

>  <EXACT MASS>  (7025) 
126.11569844799999

>  <MW>  (7025) 
126

>  <ID>  (7025) 
JP000832

>  <CONTRIBUTOR>  (7025) 
University of Tokyo Team, {Faculty of Engineering, University of Tokyo

>  <COMMENT>  (7025) 
SMILES=CC=NN(C1)CCCC1
InChI=InChI=1S/C7H14N2/c1-2-8-9-6-4-3-5-7-9/h2H,3-7H2,1H3/b8-2+
computed SMILES=N(=CC)N1CCCCC1
accession=JP000832
date=2016.01.19 (Created 2008.10.21, modified 2011.05.06)
author=SASAKI S, TOYOHASHI UNIV. OF TECH.
license=CC BY-NC-SA
exact mass=126.1157
ionization energy=70 eV
ion type=[M]+*
computed spectral entropy=2.7216204725666526
computed normalized entropy=0.8167627359773163
SPLASH=splash10-004i-9500000000-cd63234b3b920dbcd00a
submitter=submitter = University of Tokyo Team (Faculty of Engineering, University of Tokyo)
MoNA Rating=3.75

>  <NUM PEAKS>  (7025) 
28

>  <MASS SPECTRAL PEAKS>  (7025) 
29 24.4
30 13.7
39 13.1
40 0.42
41 31.1
42 61.9
43 8.3
44 1.66
53 3.1
54 5.7
55 36.3
56 1.84
57 10.1
67 2.3
68 3.3
69 3.58
70 28.5
71 10.9
73 3.2
82 1.19
83 15.5
84 25
85 20.2
97 2.73
111 20.2
125 99.99
126 81
127 6.2

$$$$

     RDKit          2D

  8  7  0  0  0  0  0  0  0  0999 V2000
    0.0000    0.0000    0.0000 C   0  0  0  0  0  0  0  0  0  0  0  0
    1.2990    2.2500    0.0000 C   0  0  0  0  0  0  0  0  0  0  0  0
   -2.5981    6.0000    0.0000 C   0  0  0  0  0  0  0  0  0  0  0  0
   -3.8971    3.7500    0.0000 C   0  0  0  0  0  0  0  0  0  0  0  0
   -1.2990    2.2500    0.0000 C   0  0  0  0  0  0  0  0  0  0  0  0
    0.0000    1.5000    0.0000 C   0  0  0  0  0  0  0  0  0  0  0  0
   -1.2990    3.7500    0.0000 N   0  0  0  0  0  0  0  0  0  0  0  0
   -2.5981    4.5000    0.0000 N   0  0  0  0  0  0  0  0  0  0  0  0
  6  1  1  0
  6  2  1  0
  6  5  1  0
  5  7  2  0
  8  3  1  0
  8  4  1  0
  8  7  1  0
M  END
>  <NAME>  (7026) 
DIMETHYLHYDRAZONE ISOBUTYRALDEHYDE

>  <SYNONYMS>  (7026) 
ISOBUTYRALDEHYDE DIMETHYLHYDRAZONE

>  <SPECTRUM TYPE>  (7026) 
MS1

>  <INSTRUMENT TYPE>  (7026) 
EI-B

>  <INSTRUMENT>  (7026) 
SHIMADZU LKB-2091

>  <ION MODE>  (7026) 
P

>  <INCHIKEY>  (7026) 
WQDBBOLZIXTESN-FNORWQNLSA-N

>  <FORMULA>  (7026) 
C6H14N2

>  <EXACT MASS>  (7026) 
114.11569844799999

>  <MW>  (7026) 
114

>  <ID>  (7026) 
JP000831

>  <CONTRIBUTOR>  (7026) 
University of Tokyo Team, {Faculty of Engineering, University of Tokyo

>  <COMMENT>  (7026) 
SMILES=CC(C)C=NN(C)C
InChI=InChI=1S/C6H14N2/c1-6(2)5-7-8(3)4/h5-6H,1-4H3/b7-5+
computed SMILES=N(=CC(C)C)N(C)C
accession=JP000831
date=2016.01.19 (Created 2008.10.21, modified 2011.05.06)
author=SASAKI S, TOYOHASHI UNIV. OF TECH.
license=CC BY-NC-SA
exact mass=114.1157
ionization energy=70 eV
ion type=[M]+*
computed spectral entropy=2.5598872157959134
computed normalized entropy=0.7200102975919382
SPLASH=splash10-0006-9100000000-1ddf632d048c5ce78ebd
submitter=submitter = University of Tokyo Team (Faculty of Engineering, University of Tokyo)
MoNA Rating=3.75

>  <NUM PEAKS>  (7026) 
35

>  <MASS SPECTRAL PEAKS>  (7026) 
27 13.3
28 22.9
29 7.6
30 0.53
39 9.7
40 2.7
41 15.7
42 3.37
43 99.99
44 95.2
45 37
46 0.78
52 0.8
53 1.4
54 1.9
55 0.35
56 15.7
57 2.7
58 28.9
59 0.55
68 1.7
69 1.5
70 6.4
71 0.68
72 9.4
73 0.6
83 1.9
85 0.46
86 1.6
97 0.8
99 42.2
100 0.33
113 2.1
114 49.5
115 5.8

$$$$

     RDKit          2D

  8  7  0  0  0  0  0  0  0  0999 V2000
    1.9486    3.3750    0.0000 C   0  0  0  0  0  0  0  0  0  0  0  0
   -5.8457    3.3750    0.0000 C   0  0  0  0  0  0  0  0  0  0  0  0
   -4.5466    5.6250    0.0000 C   0  0  0  0  0  0  0  0  0  0  0  0
    0.6495    4.1250    0.0000 C   0  0  0  0  0  0  0  0  0  0  0  0
   -0.6495    3.3750    0.0000 C   0  0  0  0  0  0  0  0  0  0  0  0
   -1.9486    4.1250    0.0000 C   0  0  0  0  0  0  0  0  0  0  0  0
   -3.2476    3.3750    0.0000 N   0  0  0  0  0  0  0  0  0  0  0  0
   -4.5466    4.1250    0.0000 N   0  0  0  0  0  0  0  0  0  0  0  0
  4  1  1  0
  5  4  1  0
  6  5  1  0
  6  7  2  0
  8  2  1  0
  8  3  1  0
  8  7  1  0
M  END
>  <NAME>  (7027) 
DIMETHYLHYDRAZONE BUTYRALDEHYDE

>  <SYNONYMS>  (7027) 
BUTYRALDEHYDE DIMETHYLHYDRAZONE

>  <SPECTRUM TYPE>  (7027) 
MS1

>  <INSTRUMENT TYPE>  (7027) 
EI-B

>  <INSTRUMENT>  (7027) 
SHIMADZU LKB-2091

>  <ION MODE>  (7027) 
P

>  <INCHIKEY>  (7027) 
SEEKWDSXURZRIV-VOTSOKGWSA-N

>  <FORMULA>  (7027) 
C6H14N2

>  <EXACT MASS>  (7027) 
114.115698448

>  <MW>  (7027) 
114

>  <ID>  (7027) 
JP000830

>  <CONTRIBUTOR>  (7027) 
University of Tokyo Team, {Faculty of Engineering, University of Tokyo

>  <COMMENT>  (7027) 
SMILES=CCCC=NN(C)C
InChI=InChI=1S/C6H14N2/c1-4-5-6-7-8(2)3/h6H,4-5H2,1-3H3/b7-6+
computed SMILES=N(=CCCC)N(C)C
accession=JP000830
date=2016.01.19 (Created 2008.10.21, modified 2011.05.06)
author=SASAKI S, TOYOHASHI UNIV. OF TECH.
license=CC BY-NC-SA
exact mass=114.1157
ionization energy=70 eV
ion type=[M]+*
computed spectral entropy=2.529470669647871
computed normalized entropy=0.7298509582350138
SPLASH=splash10-000f-9100000000-6a8c8e631faa653e66a1
submitter=submitter = University of Tokyo Team (Faculty of Engineering, University of Tokyo)
MoNA Rating=3.75

>  <NUM PEAKS>  (7027) 
32

>  <MASS SPECTRAL PEAKS>  (7027) 
28 12.5
29 7.5
30 6.7
39 0.71
40 2.3
41 15.4
42 45.8
43 4.58
44 99.99
45 37.5
46 1.9
53 0.1
54 0.9
55 3.8
56 5.6
57 0.42
58 12.3
59 9.4
68 1.5
69 0.1
70 4.6
71 8.7
72 5.8
73 0.14
83 1.2
85 79.1
86 16.2
99 1.12
100 0.8
113 2.8
114 58.2
115 5.2

$$$$

     RDKit          2D

  8  7  0  0  0  0  0  0  0  0999 V2000
    1.9486    2.6250    0.0000 C   0  0  0  0  0  0  0  0  0  0  0  0
   -4.5466    3.3750    0.0000 C   0  0  0  0  0  0  0  0  0  0  0  0
   -3.2476    5.6250    0.0000 C   0  0  0  0  0  0  0  0  0  0  0  0
    0.6495    3.3750    0.0000 C   0  0  0  0  0  0  0  0  0  0  0  0
   -3.2476    2.6250    0.0000 C   0  0  0  0  0  0  0  0  0  0  0  0
   -1.9486    4.8750    0.0000 C   0  0  0  0  0  0  0  0  0  0  0  0
   -0.6495    2.6250    0.0000 N   0  0  0  0  0  0  0  0  0  0  0  0
   -1.9486    3.3750    0.0000 N   0  0  0  0  0  0  0  0  0  0  0  0
  4  1  1  0
  5  2  1  0
  6  3  1  0
  4  7  2  0
  8  5  1  0
  8  6  1  0
  8  7  1  0
M  END
>  <NAME>  (7028) 
DIETHYLHYDRAZONE ACETALDEHYDE

>  <SYNONYMS>  (7028) 
ACETALDEHYDE DIETHYLHYDRAZONE

>  <SPECTRUM TYPE>  (7028) 
MS1

>  <INSTRUMENT TYPE>  (7028) 
EI-B

>  <INSTRUMENT>  (7028) 
SHIMADZU LKB-2091

>  <ION MODE>  (7028) 
P

>  <INCHIKEY>  (7028) 
XUPJINYFRLDNCY-QPJJXVBHSA-N

>  <FORMULA>  (7028) 
C6H14N2

>  <EXACT MASS>  (7028) 
114.11569844799999

>  <MW>  (7028) 
114

>  <ID>  (7028) 
JP000829

>  <CONTRIBUTOR>  (7028) 
University of Tokyo Team, {Faculty of Engineering, University of Tokyo

>  <COMMENT>  (7028) 
SMILES=CC=NN(CC)CC
InChI=InChI=1S/C6H14N2/c1-4-7-8(5-2)6-3/h4H,5-6H2,1-3H3/b7-4+
computed SMILES=N(=CC)N(CC)CC
accession=JP000829
date=2016.01.19 (Created 2008.10.21, modified 2011.05.06)
author=SASAKI S, TOYOHASHI UNIV. OF TECH.
license=CC BY-NC-SA
exact mass=114.1157
ionization energy=70 eV
ion type=[M]+*
computed spectral entropy=2.303734201334438
computed normalized entropy=0.6989830792588179
SPLASH=splash10-0002-9100000000-4ab1ccb0ac3e41104f40
submitter=submitter = University of Tokyo Team (Faculty of Engineering, University of Tokyo)
MoNA Rating=3.75

>  <NUM PEAKS>  (7028) 
27

>  <MASS SPECTRAL PEAKS>  (7028) 
26 3
27 16
28 19.5
29 3.25
30 41
31 1
39 0.9
40 0.16
41 4.8
42 27
43 3.2
44 1.8
54 0.8
55 1.1
56 20
57 0.48
58 9
69 0.9
70 4.5
71 1.8
72 1.5
85 1.8
99 99.99
100 0.62
113 3
114 38
115 3.2

$$$$

     RDKit          2D

  8  8  0  0  0  0  0  0  0  0999 V2000
    3.2958   -2.4286    0.0000 C   0  0  0  0  0  0  0  0  0  0  0  0
    1.9968   -1.6786    0.0000 C   0  0  0  0  0  0  0  0  0  0  0  0
   -2.2268    0.1260    0.0000 C   0  0  0  0  0  0  0  0  0  0  0  0
   -2.9768   -1.1731    0.0000 C   0  0  0  0  0  0  0  0  0  0  0  0
   -0.7670   -0.1857    0.0000 C   0  0  0  0  0  0  0  0  0  0  0  0
   -1.9770   -2.2814    0.0000 C   0  0  0  0  0  0  0  0  0  0  0  0
    0.6978   -2.4286    0.0000 N   0  0  0  0  0  0  0  0  0  0  0  0
   -0.6013   -1.6786    0.0000 N   0  0  0  0  0  0  0  0  0  0  0  0
  2  1  1  0
  4  3  1  0
  5  3  1  0
  6  4  1  0
  2  7  2  0
  8  5  1  0
  8  6  1  0
  8  7  1  0
M  END
>  <NAME>  (7029) 
TETRAMETHYLENEHYDRAZONE ACETALDEHYDE

>  <SYNONYMS>  (7029) 
ACETALDEHYDE TETRAMETHYLENEHYDRAZONE

>  <SPECTRUM TYPE>  (7029) 
MS1

>  <INSTRUMENT TYPE>  (7029) 
EI-B

>  <INSTRUMENT>  (7029) 
SHIMADZU LKB-2091

>  <ION MODE>  (7029) 
P

>  <INCHIKEY>  (7029) 
OKUPUIZUELNRNE-FARCUNLSSA-N

>  <FORMULA>  (7029) 
C6H12N2

>  <EXACT MASS>  (7029) 
112.10004838399999

>  <MW>  (7029) 
112

>  <ID>  (7029) 
JP000828

>  <CONTRIBUTOR>  (7029) 
University of Tokyo Team, {Faculty of Engineering, University of Tokyo

>  <COMMENT>  (7029) 
SMILES=CC=NN(C1)CCC1
InChI=InChI=1S/C6H12N2/c1-2-7-8-5-3-4-6-8/h2H,3-6H2,1H3/b7-2+
computed SMILES=N(=CC)N1CCCC1
accession=JP000828
date=2016.01.19 (Created 2008.10.21, modified 2011.05.06)
author=SASAKI S, TOYOHASHI UNIV. OF TECH.
license=CC BY-NC-SA
exact mass=112.10005
ionization energy=70 eV
ion type=[M]+*
computed spectral entropy=2.4181295779396677
computed normalized entropy=0.7041754770609913
SPLASH=splash10-01ox-9300000000-1c5f7bd3695b29ff5d20
submitter=submitter = University of Tokyo Team (Faculty of Engineering, University of Tokyo)
MoNA Rating=3.75

>  <NUM PEAKS>  (7029) 
31

>  <MASS SPECTRAL PEAKS>  (7029) 
27 19.4
28 38.8
29 4
30 0.48
32 0.6
38 0.7
39 7.8
40 0.31
41 28.4
42 99.99
43 23.9
44 0.27
53 1.1
54 0.8
55 3.9
56 0.75
57 4.6
67 0.5
68 4.8
69 0.63
70 19.4
71 3.6
82 0.5
83 0.11
84 2
97 14.9
98 0.8
110 0.05
111 44.8
112 55.2
113 3.7

$$$$

     RDKit          2D

  7  6  0  0  0  0  0  0  0  0999 V2000
    1.6238    3.1875    0.0000 C   0  0  0  0  0  0  0  0  0  0  0  0
   -4.8714    3.9375    0.0000 C   0  0  0  0  0  0  0  0  0  0  0  0
   -3.5724    1.6875    0.0000 C   0  0  0  0  0  0  0  0  0  0  0  0
    0.3248    3.9375    0.0000 C   0  0  0  0  0  0  0  0  0  0  0  0
   -0.9743    3.1875    0.0000 C   0  0  0  0  0  0  0  0  0  0  0  0
   -2.2733    3.9375    0.0000 N   0  0  0  0  0  0  0  0  0  0  0  0
   -3.5724    3.1875    0.0000 N   0  0  0  0  0  0  0  0  0  0  0  0
  4  1  1  0
  5  4  1  0
  5  6  2  0
  7  2  1  0
  7  3  1  0
  7  6  1  0
M  END
>  <NAME>  (7030) 
DIMETHYLHYDRAZONE PROPIONALDEHYDE

>  <SYNONYMS>  (7030) 
PROPIONALDEHYDE DIMETHYLHYDRAZONE

>  <SPECTRUM TYPE>  (7030) 
MS1

>  <INSTRUMENT TYPE>  (7030) 
EI-B

>  <INSTRUMENT>  (7030) 
SHIMADZU LKB-2091

>  <ION MODE>  (7030) 
P

>  <INCHIKEY>  (7030) 
FWXVUFLNENPJHD-AATRIKPKSA-N

>  <FORMULA>  (7030) 
C5H12N2

>  <EXACT MASS>  (7030) 
100.10004838399999

>  <MW>  (7030) 
100

>  <ID>  (7030) 
JP000827

>  <CONTRIBUTOR>  (7030) 
University of Tokyo Team, {Faculty of Engineering, University of Tokyo

>  <COMMENT>  (7030) 
SMILES=CCC=NN(C)C
InChI=InChI=1S/C5H12N2/c1-4-5-6-7(2)3/h5H,4H2,1-3H3/b6-5+
computed SMILES=N(=CCC)N(C)C
accession=JP000827
date=2016.01.19 (Created 2008.10.21, modified 2011.05.06)
author=SASAKI S, TOYOHASHI UNIV. OF TECH.
license=CC BY-NC-SA
exact mass=100.10005
ionization energy=70 eV
ion type=[M]+*
computed spectral entropy=2.4585282787205305
computed normalized entropy=0.7637847535858879
SPLASH=splash10-0006-9000000000-4217686f38b85f2bcb82
submitter=submitter = University of Tokyo Team (Faculty of Engineering, University of Tokyo)
MoNA Rating=3.75

>  <NUM PEAKS>  (7030) 
25

>  <MASS SPECTRAL PEAKS>  (7030) 
27 15.8
28 26.7
29 11.1
30 0.91
39 6.9
40 3.3
41 10.6
42 4.54
43 66.1
44 99.99
45 49.1
46 0.27
54 2.6
55 2.4
56 10.3
57 0.35
58 15.7
59 2.8
71 5.9
72 0.15
85 34.6
86 2.2
99 9
100 7.24
101 6.4

$$$$

     RDKit          2D

  6  5  0  0  0  0  0  0  0  0999 V2000
    1.2990    2.2500    0.0000 C   0  0  0  0  0  0  0  0  0  0  0  0
   -3.8971    2.2500    0.0000 C   0  0  0  0  0  0  0  0  0  0  0  0
   -2.5981    4.5000    0.0000 C   0  0  0  0  0  0  0  0  0  0  0  0
    0.0000    3.0000    0.0000 C   0  0  0  0  0  0  0  0  0  0  0  0
   -1.2990    2.2500    0.0000 N   0  0  0  0  0  0  0  0  0  0  0  0
   -2.5981    3.0000    0.0000 N   0  0  0  0  0  0  0  0  0  0  0  0
  4  1  1  0
  4  5  2  0
  6  2  1  0
  6  3  1  0
  6  5  1  0
M  END
>  <NAME>  (7031) 
DIMETHYLHYDRAZONE ACETALDEHYDE

>  <SYNONYMS>  (7031) 
ACETALDEHYDE DIMETHYLHYDRAZONE

>  <SPECTRUM TYPE>  (7031) 
MS1

>  <INSTRUMENT TYPE>  (7031) 
EI-B

>  <INSTRUMENT>  (7031) 
SHIMADZU LKB-2091

>  <ION MODE>  (7031) 
P

>  <INCHIKEY>  (7031) 
FDWQPDLACZBQBC-SNAWJCMRSA-N

>  <FORMULA>  (7031) 
C4H10N2

>  <EXACT MASS>  (7031) 
86.08439831999999

>  <MW>  (7031) 
86

>  <ID>  (7031) 
JP000826

>  <CONTRIBUTOR>  (7031) 
University of Tokyo Team, {Faculty of Engineering, University of Tokyo

>  <COMMENT>  (7031) 
SMILES=CC=NN(C)C
InChI=InChI=1S/C4H10N2/c1-4-5-6(2)3/h4H,1-3H3/b5-4+
computed SMILES=N(=CC)N(C)C
accession=JP000826
date=2016.01.19 (Created 2008.10.21, modified 2011.05.06)
author=SASAKI S, TOYOHASHI UNIV. OF TECH.
license=CC BY-NC-SA
exact mass=86.0844
ionization energy=70 eV
ion type=[M]+*
computed spectral entropy=2.304586201574386
computed normalized entropy=0.7692897732948403
SPLASH=splash10-000f-9000000000-8b0beada9b8a9c41ffc9
submitter=submitter = University of Tokyo Team (Faculty of Engineering, University of Tokyo)
MoNA Rating=3.75

>  <NUM PEAKS>  (7031) 
20

>  <MASS SPECTRAL PEAKS>  (7031) 
27 15.2
28 32.6
29 3.3
30 3.48
39 2.6
40 6.1
41 10
42 7.81
43 32.6
44 91.1
45 19.6
55 0.18
56 9.4
58 3.5
71 26.1
72 0.13
83 1.5
85 30.5
86 99.99
87 7.2

$$$$

     RDKit          2D

  5  4  0  0  0  0  0  0  0  0999 V2000
   -0.0000   -0.0000    0.0000 C   0  0  0  0  0  0  0  0  0  0  0  0
   -1.2990    3.7500    0.0000 C   0  0  0  0  0  0  0  0  0  0  0  0
   -2.5981    1.5000    0.0000 C   0  0  0  0  0  0  0  0  0  0  0  0
    0.0000    1.5000    0.0000 N   0  0  0  0  0  0  0  0  0  0  0  0
   -1.2990    2.2500    0.0000 N   0  0  0  0  0  0  0  0  0  0  0  0
  4  1  2  0
  5  2  1  0
  5  3  1  0
  5  4  1  0
M  END
>  <NAME>  (7032) 
DIMETHYLHYDRAZONE FORMALDEHYDE

>  <SYNONYMS>  (7032) 
FORMALDEHYDE DIMETHYLHYDRAZONE

>  <SPECTRUM TYPE>  (7032) 
MS1

>  <INSTRUMENT TYPE>  (7032) 
EI-B

>  <INSTRUMENT>  (7032) 
SHIMADZU LKB-2091

>  <ION MODE>  (7032) 
P

>  <INCHIKEY>  (7032) 
NDNVSJIXYFNRDR-UHFFFAOYSA-N

>  <FORMULA>  (7032) 
C3H8N2

>  <EXACT MASS>  (7032) 
72.06874825599999

>  <MW>  (7032) 
72

>  <ID>  (7032) 
JP000825

>  <CONTRIBUTOR>  (7032) 
University of Tokyo Team, {Faculty of Engineering, University of Tokyo

>  <COMMENT>  (7032) 
SMILES=C=NN(C)C
InChI=InChI=1S/C3H8N2/c1-4-5(2)3/h1H2,2-3H3
computed SMILES=N(=C)N(C)C
accession=JP000825
date=2016.01.19 (Created 2008.10.21, modified 2011.05.06)
author=SASAKI S, TOYOHASHI UNIV. OF TECH.
license=CC BY-NC-SA
exact mass=72.06875
ionization energy=70 eV
ion type=[M]+*
computed spectral entropy=1.6310568540517218
computed normalized entropy=0.6180452526544808
SPLASH=splash10-00dl-9000000000-723c800636ac77ee3e1e
submitter=submitter = University of Tokyo Team (Faculty of Engineering, University of Tokyo)
MoNA Rating=3.75

>  <NUM PEAKS>  (7032) 
14

>  <MASS SPECTRAL PEAKS>  (7032) 
27 8.8
28 2.2
29 4.3
30 3.6
40 3.4
41 5
42 97.8
43 1.86
44 4.2
57 26.6
58 0.7
71 5.17
72 99.99
73 4.6

$$$$

     RDKit          2D

 10  9  0  0  0  0  0  0  0  0999 V2000
   -7.7942    3.7500    0.0000 C   0  0  0  0  0  0  0  0  0  0  0  0
    0.0000    6.7500    0.0000 C   0  0  0  0  0  0  0  0  0  0  0  0
   -5.1962    2.2500    0.0000 C   0  0  0  0  0  0  0  0  0  0  0  0
   -0.0000    3.7500    0.0000 C   0  0  0  0  0  0  0  0  0  0  0  0
   -6.4952    4.5000    0.0000 C   0  0  0  0  0  0  0  0  0  0  0  0
   -1.2990    6.0000    0.0000 C   0  0  0  0  0  0  0  0  0  0  0  0
   -5.1962    3.7500    0.0000 C   0  0  0  0  0  0  0  0  0  0  0  0
   -1.2990    4.5000    0.0000 C   0  0  0  0  0  0  0  0  0  0  0  0
   -3.8971    4.5000    0.0000 N   0  0  0  0  0  0  0  0  0  0  0  0
   -2.5981    3.7500    0.0000 N   0  0  0  0  0  0  0  0  0  0  0  0
  5  1  1  0
  6  2  1  0
  7  3  1  0
  7  5  1  0
  8  4  1  0
  8  6  1  0
  9  7  1  0
  8 10  2  0
 10  9  1  0
M  END
>  <NAME>  (7033) 
SEC-BUTYLHYDRAZONE METHYLETHYLKETONE

>  <SYNONYMS>  (7033) 
2-BUTANONE SEC-BUTYLHYDRAZONE

>  <SPECTRUM TYPE>  (7033) 
MS1

>  <INSTRUMENT TYPE>  (7033) 
EI-B

>  <INSTRUMENT>  (7033) 
SHIMADZU LKB-2091

>  <ION MODE>  (7033) 
P

>  <INCHIKEY>  (7033) 
PSEJHDMQAHLTJM-NTMALXAHSA-N

>  <FORMULA>  (7033) 
C8H18N2

>  <EXACT MASS>  (7033) 
142.146998576

>  <MW>  (7033) 
142

>  <ID>  (7033) 
JP000824

>  <CONTRIBUTOR>  (7033) 
University of Tokyo Team, {Faculty of Engineering, University of Tokyo

>  <COMMENT>  (7033) 
SMILES=CCC(C)NN=C(C)CC
InChI=InChI=1S/C8H18N2/c1-5-7(3)9-10-8(4)6-2/h7,9H,5-6H2,1-4H3/b10-8-
computed SMILES=N(NC(C)CC)=C(C)CC
accession=JP000824
date=2016.01.19 (Created 2008.10.21, modified 2011.05.06)
author=SASAKI S, TOYOHASHI UNIV. OF TECH.
license=CC BY-NC-SA
exact mass=142.147
ionization energy=70 eV
ion type=[M]+*
computed spectral entropy=2.380397594884215
computed normalized entropy=0.6868375610966946
SPLASH=splash10-01ox-9400000000-dc5c8ff61e8a6cebba69
submitter=submitter = University of Tokyo Team (Faculty of Engineering, University of Tokyo)
MoNA Rating=3.75

>  <NUM PEAKS>  (7033) 
32

>  <MASS SPECTRAL PEAKS>  (7033) 
27 9.5
28 7.8
29 18.9
30 0.34
39 4.5
40 1
41 11.4
42 99.99
43 5.1
44 12.8
53 1
54 0.24
55 4.4
56 3.8
57 6.5
58 0.19
68 2.7
69 1.7
70 18.9
71 0.32
72 5.7
84 1
85 1.7
86 0.1
97 0.9
111 2.1
113 71.6
114 0.56
127 5.5
140 1.7
142 14.9
143 2.3

$$$$

     RDKit          2D

  8  7  0  0  0  0  0  0  0  0999 V2000
   -3.2476    1.1250    0.0000 C   0  0  0  0  0  0  0  0  0  0  0  0
    3.2476    3.3750    0.0000 C   0  0  0  0  0  0  0  0  0  0  0  0
   -3.2476    4.1250    0.0000 C   0  0  0  0  0  0  0  0  0  0  0  0
   -1.9486    1.8750    0.0000 C   0  0  0  0  0  0  0  0  0  0  0  0
    1.9486    4.1250    0.0000 C   0  0  0  0  0  0  0  0  0  0  0  0
   -1.9486    3.3750    0.0000 C   0  0  0  0  0  0  0  0  0  0  0  0
    0.6495    3.3750    0.0000 N   0  0  0  0  0  0  0  0  0  0  0  0
   -0.6495    4.1250    0.0000 N   0  0  0  0  0  0  0  0  0  0  0  0
  4  1  1  0
  5  2  1  0
  6  3  1  0
  6  4  1  0
  7  5  1  0
  6  8  2  0
  8  7  1  0
M  END
>  <NAME>  (7034) 
ETHYLHYDRAZONE METHYLETHYLKETONE

>  <SYNONYMS>  (7034) 
2-BUTANONE ETHYLHYDRAZONE

>  <SPECTRUM TYPE>  (7034) 
MS1

>  <INSTRUMENT TYPE>  (7034) 
EI-B

>  <INSTRUMENT>  (7034) 
SHIMADZU LKB-2091

>  <ION MODE>  (7034) 
P

>  <INCHIKEY>  (7034) 
PCKXYWXISYJOTB-VURMDHGXSA-N

>  <FORMULA>  (7034) 
C6H14N2

>  <EXACT MASS>  (7034) 
114.11569844799999

>  <MW>  (7034) 
114

>  <ID>  (7034) 
JP000823

>  <CONTRIBUTOR>  (7034) 
University of Tokyo Team, {Faculty of Engineering, University of Tokyo

>  <COMMENT>  (7034) 
SMILES=CCNN=C(C)CC
InChI=InChI=1S/C6H14N2/c1-4-6(3)8-7-5-2/h7H,4-5H2,1-3H3/b8-6-
computed SMILES=N(NCC)=C(C)CC
accession=JP000823
date=2016.01.19 (Created 2008.10.21, modified 2011.05.06)
author=SASAKI S, TOYOHASHI UNIV. OF TECH.
license=CC BY-NC-SA
exact mass=114.1157
ionization energy=70 eV
ion type=[M]+*
computed spectral entropy=2.5327997914408162
computed normalized entropy=0.7521762029001741
SPLASH=splash10-0006-9000000000-6cf9dbf5c7bf963c2bca
submitter=submitter = University of Tokyo Team (Faculty of Engineering, University of Tokyo)
MoNA Rating=3.75

>  <NUM PEAKS>  (7034) 
29

>  <MASS SPECTRAL PEAKS>  (7034) 
27 14.5
29 20
30 15
31 0.17
39 5.5
40 1.7
41 12.1
42 99.99
43 9.2
44 38.5
45 3.4
46 0.1
53 1.3
54 2.6
55 4.7
56 0.84
57 4.2
58 2.5
68 8.4
69 0.33
70 26.3
71 7.1
85 6.6
86 0.18
99 50
100 4
113 2.7
114 5
115 5.3

$$$$

     RDKit          2D

  8  7  0  0  0  0  0  0  0  0999 V2000
    0.0000    0.0000    0.0000 C   0  0  0  0  0  0  0  0  0  0  0  0
    1.2990    2.2500    0.0000 C   0  0  0  0  0  0  0  0  0  0  0  0
   -2.5981    6.0000    0.0000 C   0  0  0  0  0  0  0  0  0  0  0  0
   -3.8971    3.7500    0.0000 C   0  0  0  0  0  0  0  0  0  0  0  0
    0.0000    1.5000    0.0000 C   0  0  0  0  0  0  0  0  0  0  0  0
   -2.5981    4.5000    0.0000 C   0  0  0  0  0  0  0  0  0  0  0  0
   -1.2990    2.2500    0.0000 N   0  0  0  0  0  0  0  0  0  0  0  0
   -1.2990    3.7500    0.0000 N   0  0  0  0  0  0  0  0  0  0  0  0
  5  1  1  0
  5  2  1  0
  6  3  1  0
  6  4  1  0
  7  5  1  0
  8  6  2  0
  8  7  1  0
M  END
>  <NAME>  (7035) 
ISOPROPYLHYDRAZONE ACETONE

>  <SYNONYMS>  (7035) 
ACETONE ISOPROPYLHYDRAZONE

>  <SPECTRUM TYPE>  (7035) 
MS1

>  <INSTRUMENT TYPE>  (7035) 
EI-B

>  <INSTRUMENT>  (7035) 
SHIMADZU LKB-2091

>  <ION MODE>  (7035) 
P

>  <INCHIKEY>  (7035) 
NEMJPYNJMBONJU-UHFFFAOYSA-N

>  <FORMULA>  (7035) 
C6H14N2

>  <EXACT MASS>  (7035) 
114.11569844799999

>  <MW>  (7035) 
114

>  <ID>  (7035) 
JP000822

>  <CONTRIBUTOR>  (7035) 
University of Tokyo Team, {Faculty of Engineering, University of Tokyo

>  <COMMENT>  (7035) 
SMILES=CC(C)NN=C(C)C
InChI=InChI=1S/C6H14N2/c1-5(2)7-8-6(3)4/h5,7H,1-4H3
computed SMILES=N(NC(C)C)=C(C)C
accession=JP000822
date=2016.01.19 (Created 2008.10.21, modified 2011.05.06)
author=SASAKI S, TOYOHASHI UNIV. OF TECH.
license=CC BY-NC-SA
exact mass=114.1157
ionization energy=70 eV
ion type=[M]+*
computed spectral entropy=2.3329484847112645
computed normalized entropy=0.7160464576436324
SPLASH=splash10-0a4j-9000000000-351807f0bc5477cf4896
submitter=submitter = University of Tokyo Team (Faculty of Engineering, University of Tokyo)
MoNA Rating=3.75

>  <NUM PEAKS>  (7035) 
26

>  <MASS SPECTRAL PEAKS>  (7035) 
27 11.4
28 16.9
29 6.9
30 1.29
31 2.9
32 2.9
39 9.7
40 0.34
41 19.7
42 21.7
43 12
44 0.94
54 3.7
55 6.9
56 99.99
57 1.74
58 11.1
71 5.7
72 4.6
82 0.1
83 0.9
99 88.6
100 0.7
113 0.18
114 31.5
115 3.1

$$$$

     RDKit          2D

  8  7  0  0  0  0  0  0  0  0999 V2000
    1.9486    3.3750    0.0000 C   0  0  0  0  0  0  0  0  0  0  0  0
   -5.8457    3.3750    0.0000 C   0  0  0  0  0  0  0  0  0  0  0  0
   -4.5466    5.6250    0.0000 C   0  0  0  0  0  0  0  0  0  0  0  0
    0.6495    4.1250    0.0000 C   0  0  0  0  0  0  0  0  0  0  0  0
   -0.6495    3.3750    0.0000 C   0  0  0  0  0  0  0  0  0  0  0  0
   -4.5466    4.1250    0.0000 C   0  0  0  0  0  0  0  0  0  0  0  0
   -1.9486    4.1250    0.0000 N   0  0  0  0  0  0  0  0  0  0  0  0
   -3.2476    3.3750    0.0000 N   0  0  0  0  0  0  0  0  0  0  0  0
  4  1  1  0
  5  4  1  0
  6  2  1  0
  6  3  1  0
  7  5  1  0
  8  6  2  0
  8  7  1  0
M  END
>  <NAME>  (7036) 
N-PROPYLHYDRAZONE ACETONE

>  <SYNONYMS>  (7036) 
ACETONE PROPYLHYDRAZONE

>  <SPECTRUM TYPE>  (7036) 
MS1

>  <INSTRUMENT TYPE>  (7036) 
EI-B

>  <INSTRUMENT>  (7036) 
SHIMADZU LKB-2091

>  <ION MODE>  (7036) 
P

>  <INCHIKEY>  (7036) 
BBXDSCHJVVIYFF-UHFFFAOYSA-N

>  <FORMULA>  (7036) 
C6H14N2

>  <EXACT MASS>  (7036) 
114.115698448

>  <MW>  (7036) 
114

>  <ID>  (7036) 
JP000821

>  <CONTRIBUTOR>  (7036) 
University of Tokyo Team, {Faculty of Engineering, University of Tokyo

>  <COMMENT>  (7036) 
SMILES=CCCNN=C(C)C
InChI=InChI=1S/C6H14N2/c1-4-5-7-8-6(2)3/h7H,4-5H2,1-3H3
computed SMILES=N(NCCC)=C(C)C
accession=JP000821
date=2016.01.19 (Created 2008.10.21, modified 2011.05.06)
author=SASAKI S, TOYOHASHI UNIV. OF TECH.
license=CC BY-NC-SA
exact mass=114.1157
ionization energy=70 eV
ion type=[M]+*
computed spectral entropy=2.1511090490819527
computed normalized entropy=0.6602349021825606
SPLASH=splash10-0a4r-9000000000-39f2eb9ae97344bf0598
submitter=submitter = University of Tokyo Team (Faculty of Engineering, University of Tokyo)
MoNA Rating=3.75

>  <NUM PEAKS>  (7036) 
26

>  <MASS SPECTRAL PEAKS>  (7036) 
27 9.9
28 15.5
29 8
30 1.27
31 1.7
32 1.1
39 7.1
40 0.25
41 12.7
42 12
43 5.6
44 0.15
54 3
55 2.1
56 99.99
57 0.69
58 3.9
71 2.1
72 5.6
83 0.13
85 91.5
86 5.6
99 1.5
113 0.06
114 26.8
115 3.4

$$$$

     RDKit          2D

  7  6  0  0  0  0  0  0  0  0999 V2000
    1.6238    3.1875    0.0000 C   0  0  0  0  0  0  0  0  0  0  0  0
   -4.8714    3.9375    0.0000 C   0  0  0  0  0  0  0  0  0  0  0  0
   -3.5724    1.6875    0.0000 C   0  0  0  0  0  0  0  0  0  0  0  0
    0.3248    3.9375    0.0000 C   0  0  0  0  0  0  0  0  0  0  0  0
   -3.5724    3.1875    0.0000 C   0  0  0  0  0  0  0  0  0  0  0  0
   -0.9743    3.1875    0.0000 N   0  0  0  0  0  0  0  0  0  0  0  0
   -2.2733    3.9375    0.0000 N   0  0  0  0  0  0  0  0  0  0  0  0
  4  1  1  0
  5  2  1  0
  5  3  1  0
  6  4  1  0
  7  5  2  0
  7  6  1  0
M  END
>  <NAME>  (7037) 
ETHYLHYDRAZONE ACETONE

>  <SYNONYMS>  (7037) 
ACETONE ETHYLHYDRAZONE

>  <SPECTRUM TYPE>  (7037) 
MS1

>  <INSTRUMENT TYPE>  (7037) 
EI-B

>  <INSTRUMENT>  (7037) 
SHIMADZU LKB-2091

>  <ION MODE>  (7037) 
P

>  <INCHIKEY>  (7037) 
USOUWWPTYXEQDQ-UHFFFAOYSA-N

>  <FORMULA>  (7037) 
C5H12N2

>  <EXACT MASS>  (7037) 
100.10004838399999

>  <MW>  (7037) 
100

>  <ID>  (7037) 
JP000820

>  <CONTRIBUTOR>  (7037) 
University of Tokyo Team, {Faculty of Engineering, University of Tokyo

>  <COMMENT>  (7037) 
SMILES=CCNN=C(C)C
InChI=InChI=1S/C5H12N2/c1-4-6-7-5(2)3/h6H,4H2,1-3H3
computed SMILES=N(NCC)=C(C)C
accession=JP000820
date=2016.01.19 (Created 2008.10.21, modified 2011.05.06)
author=SASAKI S, TOYOHASHI UNIV. OF TECH.
license=CC BY-NC-SA
exact mass=100.10005
ionization energy=70 eV
ion type=[M]+*
computed spectral entropy=2.281146178712455
computed normalized entropy=0.7177808496914938
SPLASH=splash10-0a4i-9100000000-968bf91e8a7be0ed5f27
submitter=submitter = University of Tokyo Team (Faculty of Engineering, University of Tokyo)
MoNA Rating=3.75

>  <NUM PEAKS>  (7037) 
24

>  <MASS SPECTRAL PEAKS>  (7037) 
28 13
29 10.4
30 13
31 0.23
38 0.8
39 9.1
40 3.5
41 1.1
42 15.6
43 5.3
44 15.6
45 0.18
54 3.4
55 2.2
56 99.99
57 0.65
58 1.9
71 4.7
72 4.2
85 6.38
86 3.9
99 3.5
100 40.3
101 4.4

$$$$

     RDKit          2D

  6  5  0  0  0  0  0  0  0  0999 V2000
    0.0000    0.0000    0.0000 C   0  0  0  0  0  0  0  0  0  0  0  0
    1.2990    2.2500    0.0000 C   0  0  0  0  0  0  0  0  0  0  0  0
   -2.5981    4.5000    0.0000 C   0  0  0  0  0  0  0  0  0  0  0  0
    0.0000    1.5000    0.0000 C   0  0  0  0  0  0  0  0  0  0  0  0
   -1.2990    3.7500    0.0000 N   0  0  0  0  0  0  0  0  0  0  0  0
   -1.2990    2.2500    0.0000 N   0  0  0  0  0  0  0  0  0  0  0  0
  4  1  1  0
  4  2  1  0
  5  3  1  0
  6  4  2  0
  6  5  1  0
M  END
>  <NAME>  (7038) 
METHYLHYDRAZONE ACETONE

>  <SYNONYMS>  (7038) 
ACETONE METHYLHYDRAZONE

>  <SPECTRUM TYPE>  (7038) 
MS1

>  <INSTRUMENT TYPE>  (7038) 
EI-B

>  <INSTRUMENT>  (7038) 
SHIMADZU LKB-2091

>  <ION MODE>  (7038) 
P

>  <INCHIKEY>  (7038) 
JXSSEZYJBTUIGX-UHFFFAOYSA-N

>  <FORMULA>  (7038) 
C4H10N2

>  <EXACT MASS>  (7038) 
86.08439831999999

>  <MW>  (7038) 
86

>  <ID>  (7038) 
JP000819

>  <CONTRIBUTOR>  (7038) 
University of Tokyo Team, {Faculty of Engineering, University of Tokyo

>  <COMMENT>  (7038) 
SMILES=CNN=C(C)C
InChI=InChI=1S/C4H10N2/c1-4(2)6-5-3/h5H,1-3H3
computed SMILES=N(NC)=C(C)C
accession=JP000819
date=2016.01.19 (Created 2008.10.21, modified 2011.05.06)
author=SASAKI S, TOYOHASHI UNIV. OF TECH.
license=CC BY-NC-SA
exact mass=86.0844
ionization energy=70 eV
ion type=[M]+*
computed spectral entropy=2.480048717075276
computed normalized entropy=0.770470453664308
SPLASH=splash10-053u-9000000000-8efc8321a7bdf66987e0
submitter=submitter = University of Tokyo Team (Faculty of Engineering, University of Tokyo)
MoNA Rating=3.75

>  <NUM PEAKS>  (7038) 
25

>  <MASS SPECTRAL PEAKS>  (7038) 
26 3.5
27 11.7
28 36.9
29 1.52
30 99.99
31 11.3
38 2.4
39 0.78
40 5.7
41 17.8
42 53.9
43 0.87
44 7.8
45 3.5
54 10.8
55 0.81
56 45.6
57 13
58 3
69 0.65
71 33.9
72 1.6
85 5.7
86 8.7
87 6.5

$$$$

     RDKit          2D

 12 12  0  0  0  0  0  0  0  0999 V2000
   -6.8197    3.1321    0.0000 C   0  0  0  0  0  0  0  0  0  0  0  0
   -5.5207    3.8821    0.0000 C   0  0  0  0  0  0  0  0  0  0  0  0
    3.5726    1.6321    0.0000 C   0  0  0  0  0  0  0  0  0  0  0  0
    3.5731    3.1329    0.0000 C   0  0  0  0  0  0  0  0  0  0  0  0
    2.2731    0.8813    0.0000 C   0  0  0  0  0  0  0  0  0  0  0  0
    2.2740    3.8829    0.0000 C   0  0  0  0  0  0  0  0  0  0  0  0
    0.9740    1.6313    0.0000 C   0  0  0  0  0  0  0  0  0  0  0  0
   -4.2216    3.1321    0.0000 C   0  0  0  0  0  0  0  0  0  0  0  0
   -0.3245    3.8821    0.0000 C   0  0  0  0  0  0  0  0  0  0  0  0
    0.9745    3.1321    0.0000 C   0  0  0  0  0  0  0  0  0  0  0  0
   -2.9226    3.8821    0.0000 N   0  0  0  0  0  0  0  0  0  0  0  0
   -1.6236    3.1321    0.0000 N   0  0  0  0  0  0  0  0  0  0  0  0
  2  1  1  0
  4  3  2  0
  5  3  1  0
  6  4  1  0
  7  5  2  0
  8  2  1  0
 10  6  2  0
 10  7  1  0
 10  9  1  0
 11  8  1  0
  9 12  2  0
 12 11  1  0
M  END
>  <NAME>  (7039) 
N-PROPYLHYDRAZONE BENZALDEHYDE

>  <SYNONYMS>  (7039) 
BENZALDEHYDE PROPYLHYDRAZONE

>  <SPECTRUM TYPE>  (7039) 
MS1

>  <INSTRUMENT TYPE>  (7039) 
EI-B

>  <INSTRUMENT>  (7039) 
SHIMADZU LKB-2091

>  <ION MODE>  (7039) 
P

>  <INCHIKEY>  (7039) 
RQQZJBZKGMZQOG-FMIVXFBMSA-N

>  <FORMULA>  (7039) 
C10H14N2

>  <EXACT MASS>  (7039) 
162.115698448

>  <MW>  (7039) 
162

>  <ID>  (7039) 
JP000818

>  <CONTRIBUTOR>  (7039) 
University of Tokyo Team, {Faculty of Engineering, University of Tokyo

>  <COMMENT>  (7039) 
SMILES=CCCNN=Cc(c1)cccc1
InChI=InChI=1S/C10H14N2/c1-2-8-11-12-9-10-6-4-3-5-7-10/h3-7,9,11H,2,8H2,1H3/b12-9+
computed SMILES=N(=CC=1C=CC=CC1)NCCC
accession=JP000818
date=2016.01.19 (Created 2008.10.21, modified 2011.05.06)
author=SASAKI S, TOYOHASHI UNIV. OF TECH.
license=CC BY-NC-SA
exact mass=162.1157
ionization energy=70 eV
ion type=[M]+*
computed spectral entropy=2.4284688906659144
computed normalized entropy=0.7287874688514325
SPLASH=splash10-001i-4900000000-87881ba38599e9c2804a
submitter=submitter = University of Tokyo Team (Faculty of Engineering, University of Tokyo)
MoNA Rating=3.75

>  <NUM PEAKS>  (7039) 
28

>  <MASS SPECTRAL PEAKS>  (7039) 
30 4.4
39 7
41 7.2
42 0.39
43 3.7
50 4.4
51 14.8
55 0.78
63 3.9
65 7.4
66.5 6.3
76 0.35
77 4.4
78 5.9
89 6.5
90 0.5
91 4.4
92 5.9
103 3.5
104 3.48
105 4.8
106 3.5
111 4.4
119 0.7
133 99.99
134 11.3
162 47.9
163 7

$$$$

     RDKit          2D

 12 12  0  0  0  0  0  0  0  0999 V2000
   -5.8454    3.6946    0.0000 C   0  0  0  0  0  0  0  0  0  0  0  0
   -4.5464    1.4446    0.0000 C   0  0  0  0  0  0  0  0  0  0  0  0
    3.2478    1.4446    0.0000 C   0  0  0  0  0  0  0  0  0  0  0  0
    1.9483    0.6938    0.0000 C   0  0  0  0  0  0  0  0  0  0  0  0
    3.2483    2.9454    0.0000 C   0  0  0  0  0  0  0  0  0  0  0  0
    0.6493    1.4438    0.0000 C   0  0  0  0  0  0  0  0  0  0  0  0
    1.9493    3.6954    0.0000 C   0  0  0  0  0  0  0  0  0  0  0  0
   -3.2474    3.6946    0.0000 C   0  0  0  0  0  0  0  0  0  0  0  0
   -4.5464    2.9446    0.0000 C   0  0  0  0  0  0  0  0  0  0  0  0
    0.6498    2.9446    0.0000 C   0  0  0  0  0  0  0  0  0  0  0  0
   -1.9483    2.9446    0.0000 N   0  0  0  0  0  0  0  0  0  0  0  0
   -0.6493    3.6946    0.0000 N   0  0  0  0  0  0  0  0  0  0  0  0
  4  3  2  0
  5  3  1  0
  6  4  1  0
  7  5  2  0
  9  1  1  0
  9  2  1  0
  9  8  1  0
 10  6  2  0
 10  7  1  0
  8 11  2  0
 12 10  1  0
 12 11  1  0
M  END
>  <NAME>  (7040) 
PHENYLHYDRAZONE ISOBUTYRALDEHYDE

>  <SYNONYMS>  (7040) 
ISOBUTYRALDEHYDE PHENYLHYDRAZONE

>  <SPECTRUM TYPE>  (7040) 
MS1

>  <INSTRUMENT TYPE>  (7040) 
EI-B

>  <INSTRUMENT>  (7040) 
SHIMADZU LKB-2091

>  <ION MODE>  (7040) 
P

>  <INCHIKEY>  (7040) 
JRPJYFGSRTYOBF-DHZHZOJOSA-N

>  <FORMULA>  (7040) 
C10H14N2

>  <EXACT MASS>  (7040) 
162.115698448

>  <MW>  (7040) 
162

>  <ID>  (7040) 
JP000817

>  <CONTRIBUTOR>  (7040) 
University of Tokyo Team, {Faculty of Engineering, University of Tokyo

>  <COMMENT>  (7040) 
SMILES=CC(C)C=NNc(c1)cccc1
InChI=InChI=1S/C10H14N2/c1-9(2)8-11-12-10-6-4-3-5-7-10/h3-9,12H,1-2H3/b11-8+
computed SMILES=N(=CC(C)C)NC=1C=CC=CC1
accession=JP000817
date=2016.01.19 (Created 2008.10.21, modified 2011.05.06)
author=SASAKI S, TOYOHASHI UNIV. OF TECH.
license=CC BY-NC-SA
exact mass=162.1157
ionization energy=70 eV
ion type=[M]+*
computed spectral entropy=2.7198652996857127
computed normalized entropy=0.8252426956383648
SPLASH=splash10-03gl-9700000000-c3a0f1fcb115753fb12d
submitter=submitter = University of Tokyo Team (Faculty of Engineering, University of Tokyo)
MoNA Rating=3.75

>  <NUM PEAKS>  (7040) 
27

>  <MASS SPECTRAL PEAKS>  (7040) 
27 19.2
29 6.9
39 27.7
41 1.42
43 6.9
51 15.4
52 6.2
65 6.16
66 19.2
77 34.6
91 12.7
92 7.31
93 77
94 8.5
105 8.2
106 4.23
107 8.5
117 6.2
118 9.2
119 1.23
120 5.4
133 35.4
134 15
147 0.3
161 3.8
162 99.99
163 12.7

$$$$

     RDKit          2D

 25 24  0  0  0  0  0  0  0  0999 V2000
  -22.0836   13.5000    0.0000 C   0  0  0  0  0  0  0  0  0  0  0  0
    7.7942   12.7500    0.0000 C   0  0  0  0  0  0  0  0  0  0  0  0
  -20.7846   12.7500    0.0000 C   0  0  0  0  0  0  0  0  0  0  0  0
  -19.4856   13.5000    0.0000 C   0  0  0  0  0  0  0  0  0  0  0  0
  -18.1865   12.7500    0.0000 C   0  0  0  0  0  0  0  0  0  0  0  0
  -16.8875   13.5000    0.0000 C   0  0  0  0  0  0  0  0  0  0  0  0
  -15.5885   12.7500    0.0000 C   0  0  0  0  0  0  0  0  0  0  0  0
  -14.2894   13.5000    0.0000 C   0  0  0  0  0  0  0  0  0  0  0  0
  -12.9904   12.7500    0.0000 C   0  0  0  0  0  0  0  0  0  0  0  0
  -11.6913   13.5000    0.0000 C   0  0  0  0  0  0  0  0  0  0  0  0
  -10.3923   12.7500    0.0000 C   0  0  0  0  0  0  0  0  0  0  0  0
   -9.0933   13.5000    0.0000 C   0  0  0  0  0  0  0  0  0  0  0  0
   -7.7942   12.7500    0.0000 C   0  0  0  0  0  0  0  0  0  0  0  0
   -6.4952   13.5000    0.0000 C   0  0  0  0  0  0  0  0  0  0  0  0
   -5.1962   12.7500    0.0000 C   0  0  0  0  0  0  0  0  0  0  0  0
   -3.8971   13.5000    0.0000 C   0  0  0  0  0  0  0  0  0  0  0  0
   -2.5981   12.7500    0.0000 C   0  0  0  0  0  0  0  0  0  0  0  0
   -1.2990   13.5000    0.0000 C   0  0  0  0  0  0  0  0  0  0  0  0
    0.0000   12.7500    0.0000 C   0  0  0  0  0  0  0  0  0  0  0  0
    1.2990   13.5000    0.0000 C   0  0  0  0  0  0  0  0  0  0  0  0
    2.5981   12.7500    0.0000 C   0  0  0  0  0  0  0  0  0  0  0  0
    3.8971   13.5000    0.0000 C   0  0  0  0  0  0  0  0  0  0  0  0
    5.1962   12.7500    0.0000 C   0  0  0  0  0  0  0  0  0  0  0  0
    5.1962   11.2500    0.0000 O   0  0  0  0  0  0  0  0  0  0  0  0
    6.4952   13.5000    0.0000 O   0  0  0  0  0  0  0  0  0  0  0  0
  3  1  1  0
  4  3  1  0
  5  4  1  0
  6  5  1  0
  7  6  1  0
  8  7  1  0
  9  8  1  0
 10  9  1  0
 10 11  2  0
 12 11  1  0
 13 12  1  0
 14 13  1  0
 15 14  1  0
 16 15  1  0
 17 16  1  0
 18 17  1  0
 19 18  1  0
 20 19  1  0
 21 20  1  0
 22 21  1  0
 23 22  1  0
 24 23  2  0
 25  2  1  0
 25 23  1  0
M  END
>  <NAME>  (7041) 
13-DOCOSENOIC ACID METHYL ESTER

>  <SYNONYMS>  (7041) 


>  <SPECTRUM TYPE>  (7041) 
MS1

>  <INSTRUMENT TYPE>  (7041) 
EI-B

>  <INSTRUMENT>  (7041) 
SHIMADZU LKB-9000B

>  <ION MODE>  (7041) 
P

>  <INCHIKEY>  (7041) 
ZYNDJIBBPLNPOW-ZHACJKMWSA-N

>  <FORMULA>  (7041) 
C23H44O2

>  <EXACT MASS>  (7041) 
352.334130648

>  <MW>  (7041) 
352

>  <ID>  (7041) 
JP000809

>  <CONTRIBUTOR>  (7041) 
University of Tokyo Team, {Faculty of Engineering, University of Tokyo

>  <COMMENT>  (7041) 
SMILES=CCCCCCCCC=CCCCCCCCCCCCC(=O)OC
cas=56630-69-4
InChI=InChI=1S/C23H44O2/c1-3-4-5-6-7-8-9-10-11-12-13-14-15-16-17-18-19-20-21-22-23(24)25-2/h10-11H,3-9,12-22H2,1-2H3/b11-10+
computed SMILES=O=C(OC)CCCCCCCCCCCC=CCCCCCCCC
accession=JP000809
date=2016.01.19 (Created 2008.10.21, modified 2011.05.06)
author=HAYASHI A, DEPT. OF CHEMISTRY, FAC. OF SCI. AND TECHNOLOGY, KINKI UNIV.
license=CC BY-NC-SA
exact mass=352.33413
ionization energy=70 eV
ion type=[M]+*
computed spectral entropy=4.051382911766728
computed normalized entropy=0.8053738014612647
SPLASH=splash10-05oa-9100000000-f949821101f79ca25028
submitter=submitter = University of Tokyo Team (Faculty of Engineering, University of Tokyo)
MoNA Rating=3.75

>  <NUM PEAKS>  (7041) 
153

>  <MASS SPECTRAL PEAKS>  (7041) 
36 4.2
37 4.7
38 1.2
39 8.4
41 5.13
42 4.6
43 34.1
44 3.8
45 1.1
47 33.9
48 15.7
49 11.6
50 4.9
51 1
52 1.2
53 6.5
54 13
55 44.8
56 7.2
57 21.4
58 0.8
59 11.7
60 0.3
61 0.3
63 0.3
65 3.8
66 3
67 28.1
68 11.3
69 35.8
70 9.9
71 8.3
72 0.8
73 1.1
74 27.5
75 4.5
77 5.2
78 2.4
79 17.5
80 9.9
81 20.8
82 10.8
83 99.99
84 1.52
85 69.5
86 0.6
87 20.5
88 1.8
89 0.4
91 9
92 2.7
93 9.8
94 5.2
95 16.2
96 17
97 23.4
98 13.4
102 0.7
103 0.6
104 0.7
105 4.4
106 3.8
107 4.6
108 3.4
109 8.2
110 8.2
111 10.5
112 3.1
113 1.5
114 1.7
115 4
116 0.7
117 1.6
118 1
119 3.2
120 1.6
121 3.7
122 1.3
123 6.2
124 3.9
125 5.2
126 1.6
127 1.4
128 1.8
129 2.1
130 0.6
131 1.2
133 2.6
134 1.7
135 3.5
136 1.2
137 3.5
138 3.1
139 3.4
140 0.4
141 3.2
142 0.7
143 1.3
147 1.6
148 1
149 1.7
150 1.7
151 2.4
152 2.8
153 2.3
154 0.3
155 0.4
157 0.7
161 0.9
162 0.3
163 1.3
165 0.7
166 1.5
167 1.3
169 0.3
171 0.6
175 0.9
177 0.6
179 0.8
180 1.6
181 0.5
182 0.4
187 0.3
189 0.3
193 0.3
194 1.1
195 0.6
197 0.3
203 0.3
207 0.6
208 0.8
220 0.3
221 0.6
222 1.2
235 0.4
236 3
237 0.3
249 0.6
250 0.6
263 0.5
264 0.5
276 0.6
277 1
278 2.9
279 0.5
289 0.4
291 0.4
292 0.3
302 0.4
320 14.4
321 6.5
322 1
352 0.9

$$$$

     RDKit          2D

 23 22  0  0  0  0  0  0  0  0999 V2000
  -20.1351   12.3750    0.0000 C   0  0  0  0  0  0  0  0  0  0  0  0
    7.1447   11.6250    0.0000 C   0  0  0  0  0  0  0  0  0  0  0  0
  -18.8361   11.6250    0.0000 C   0  0  0  0  0  0  0  0  0  0  0  0
  -17.5370   12.3750    0.0000 C   0  0  0  0  0  0  0  0  0  0  0  0
  -16.2380   11.6250    0.0000 C   0  0  0  0  0  0  0  0  0  0  0  0
  -14.9389   12.3750    0.0000 C   0  0  0  0  0  0  0  0  0  0  0  0
  -13.6399   11.6250    0.0000 C   0  0  0  0  0  0  0  0  0  0  0  0
  -12.3409   12.3750    0.0000 C   0  0  0  0  0  0  0  0  0  0  0  0
  -11.0418   11.6250    0.0000 C   0  0  0  0  0  0  0  0  0  0  0  0
   -9.7428   12.3750    0.0000 C   0  0  0  0  0  0  0  0  0  0  0  0
   -8.4437   11.6250    0.0000 C   0  0  0  0  0  0  0  0  0  0  0  0
   -7.1447   12.3750    0.0000 C   0  0  0  0  0  0  0  0  0  0  0  0
   -5.8457   11.6250    0.0000 C   0  0  0  0  0  0  0  0  0  0  0  0
   -4.5466   12.3750    0.0000 C   0  0  0  0  0  0  0  0  0  0  0  0
   -3.2476   11.6250    0.0000 C   0  0  0  0  0  0  0  0  0  0  0  0
   -1.9486   12.3750    0.0000 C   0  0  0  0  0  0  0  0  0  0  0  0
   -0.6495   11.6250    0.0000 C   0  0  0  0  0  0  0  0  0  0  0  0
    0.6495   12.3750    0.0000 C   0  0  0  0  0  0  0  0  0  0  0  0
    1.9486   11.6250    0.0000 C   0  0  0  0  0  0  0  0  0  0  0  0
    3.2476   12.3750    0.0000 C   0  0  0  0  0  0  0  0  0  0  0  0
    4.5466   11.6250    0.0000 C   0  0  0  0  0  0  0  0  0  0  0  0
    4.5466   10.1250    0.0000 O   0  0  0  0  0  0  0  0  0  0  0  0
    5.8457   12.3750    0.0000 O   0  0  0  0  0  0  0  0  0  0  0  0
  3  1  1  0
  4  3  1  0
  5  4  1  0
  6  5  1  0
  7  6  1  0
  8  7  1  0
  9  8  1  0
 10  9  1  0
 10 11  2  0
 12 11  1  0
 13 12  1  0
 14 13  1  0
 15 14  1  0
 16 15  1  0
 17 16  1  0
 18 17  1  0
 19 18  1  0
 20 19  1  0
 21 20  1  0
 22 21  2  0
 23  2  1  0
 23 21  1  0
M  END
>  <NAME>  (7042) 
11-EICOSENOIC ACID METHYL ESTER

>  <SYNONYMS>  (7042) 


>  <SPECTRUM TYPE>  (7042) 
MS1

>  <INSTRUMENT TYPE>  (7042) 
EI-B

>  <INSTRUMENT>  (7042) 
SHIMADZU LKB-9000B

>  <ION MODE>  (7042) 
P

>  <INCHIKEY>  (7042) 
RBKMRGOHCLRTLZ-ZHACJKMWSA-N

>  <FORMULA>  (7042) 
C21H40O2

>  <EXACT MASS>  (7042) 
324.30283052

>  <MW>  (7042) 
324

>  <ID>  (7042) 
JP000808

>  <CONTRIBUTOR>  (7042) 
University of Tokyo Team, {Faculty of Engineering, University of Tokyo

>  <COMMENT>  (7042) 
SMILES=CCCCCCCCC=CCCCCCCCCCC(=O)OC
cas=3946-08-5
InChI=InChI=1S/C21H40O2/c1-3-4-5-6-7-8-9-10-11-12-13-14-15-16-17-18-19-20-21(22)23-2/h10-11H,3-9,12-20H2,1-2H3/b11-10+
computed SMILES=O=C(OC)CCCCCCCCCC=CCCCCCCCC
accession=JP000808
date=2016.01.19 (Created 2008.10.21, modified 2011.05.06)
author=HAYASHI A, DEPT. OF CHEMISTRY, FAC. OF SCI. AND TECHNOLOGY, KINKI UNIV.
license=CC BY-NC-SA
exact mass=324.30283
ionization energy=70 eV
ion type=[M]+*
computed spectral entropy=3.719347239907695
computed normalized entropy=0.8417020594373289
SPLASH=splash10-05mo-9100000000-fa5288e8aa40ecc6ee17
submitter=submitter = University of Tokyo Team (Faculty of Engineering, University of Tokyo)
MoNA Rating=3.75

>  <NUM PEAKS>  (7042) 
83

>  <MASS SPECTRAL PEAKS>  (7042) 
39 15
41 99.99
42 7.2
43 54.6
53 9.2
54 27.4
55 78.8
57 39.4
58 1.8
59 22.4
65 3.8
66 2.8
67 38.7
68 21.1
69 75.6
70 18.7
71 13.5
72 0.9
73 2.6
74 60.3
75 9.3
77 0.9
79 9.1
80 5.5
81 30.2
82 20.4
83 54.8
84 31.5
85 7.5
87 40.5
88 3.8
91 2.4
93 5.7
94 5.2
95 25.9
96 36.7
97 43.4
98 25.3
105 0.6
107 3
108 3.2
109 14
110 16.8
111 19.1
112 7.2
113 1.9
115 6.1
119 2.2
121 3.7
123 11.1
124 9.3
125 9.1
127 0.6
128 3.9
129 2.4
133 1.6
134 1.3
135 3.7
137 5.6
138 5.1
139 5.8
141 4.1
143 2.2
147 1.7
149 1.9
151 4.2
152 5
153 3.8
165 0.8
166 2.5
167 1.6
179 0.9
180 0.8
181 1.3
194 2.4
208 5.5
209 1.2
248 1.4
249 1.1
250 6
292 19.4
293 9.3
324 0.9

$$$$

     RDKit          2D

 30 29  0  0  0  0  0  0  0  0999 V2000
    7.1447   13.1250    0.0000 C   0  0  0  0  0  0  0  0  0  0  0  0
  -19.3851   15.1740    0.0000 C   0  0  0  0  0  0  0  0  0  0  0  0
  -21.4341   14.6250    0.0000 C   0  0  0  0  0  0  0  0  0  0  0  0
  -20.8851   12.5760    0.0000 C   0  0  0  0  0  0  0  0  0  0  0  0
  -18.2870   12.1740    0.0000 C   0  0  0  0  0  0  0  0  0  0  0  0
  -18.8361   10.1250    0.0000 C   0  0  0  0  0  0  0  0  0  0  0  0
  -16.7870    9.5760    0.0000 C   0  0  0  0  0  0  0  0  0  0  0  0
    5.8457   13.8750    0.0000 C   0  0  0  0  0  0  0  0  0  0  0  0
    4.5466   13.1250    0.0000 C   0  0  0  0  0  0  0  0  0  0  0  0
    3.2476   13.8750    0.0000 C   0  0  0  0  0  0  0  0  0  0  0  0
    1.9486   13.1250    0.0000 C   0  0  0  0  0  0  0  0  0  0  0  0
    0.6495   13.8750    0.0000 C   0  0  0  0  0  0  0  0  0  0  0  0
   -0.6495   13.1250    0.0000 C   0  0  0  0  0  0  0  0  0  0  0  0
   -1.9486   13.8750    0.0000 C   0  0  0  0  0  0  0  0  0  0  0  0
   -3.2476   13.1250    0.0000 C   0  0  0  0  0  0  0  0  0  0  0  0
   -4.5466   13.8750    0.0000 C   0  0  0  0  0  0  0  0  0  0  0  0
   -5.8457   13.1250    0.0000 C   0  0  0  0  0  0  0  0  0  0  0  0
   -7.1447   13.8750    0.0000 C   0  0  0  0  0  0  0  0  0  0  0  0
   -8.4437   13.1250    0.0000 C   0  0  0  0  0  0  0  0  0  0  0  0
   -9.7428   13.8750    0.0000 C   0  0  0  0  0  0  0  0  0  0  0  0
  -11.0418   13.1250    0.0000 C   0  0  0  0  0  0  0  0  0  0  0  0
  -12.3409   13.8750    0.0000 C   0  0  0  0  0  0  0  0  0  0  0  0
  -14.9389   13.8750    0.0000 C   0  0  0  0  0  0  0  0  0  0  0  0
  -17.5370   13.8750    0.0000 C   0  0  0  0  0  0  0  0  0  0  0  0
  -16.2380   13.1250    0.0000 C   0  0  0  0  0  0  0  0  0  0  0  0
  -13.6399   13.1250    0.0000 O   0  0  0  0  0  0  0  0  0  0  0  0
  -18.8361   13.1250    0.0000 O   0  0  0  0  0  0  0  0  0  0  0  0
  -16.2380   11.6250    0.0000 O   0  0  0  0  0  0  0  0  0  0  0  0
  -20.1351   13.8750    0.0000 Si  0  0  0  0  0  4  0  0  0  0  0  0
  -17.5370   10.8750    0.0000 Si  0  0  0  0  0  4  0  0  0  0  0  0
  8  1  1  0
  9  8  1  0
 10  9  1  0
 11 10  1  0
 12 11  1  0
 13 12  1  0
 14 13  1  0
 15 14  1  0
 16 15  1  0
 17 16  1  0
 18 17  1  0
 19 18  1  0
 20 19  1  0
 21 20  1  0
 22 21  1  0
 25 23  1  0
 25 24  1  0
 26 22  1  0
 26 23  1  0
 27 24  1  0
 28 25  1  0
 29  2  1  0
 29  3  1  0
 29  4  1  0
 29 27  1  0
 30  5  1  0
 30  6  1  0
 30  7  1  0
 30 28  1  0
M  END
>  <NAME>  (7043) 
1-O-HEXADECYLGLYCEROL 2,3-DITRIMETHYLSILYLETHER

>  <SYNONYMS>  (7043) 
1-O-HEXADECYL-2,3-DI-O-TRIMETHYLSILYLGLYCEROL

>  <SPECTRUM TYPE>  (7043) 
MS1

>  <INSTRUMENT TYPE>  (7043) 
EI-B

>  <INSTRUMENT>  (7043) 
SHIMADZU LKB-9000B

>  <ION MODE>  (7043) 
P

>  <INCHIKEY>  (7043) 
DDZWTAIRKULPRO-UHFFFAOYSA-N

>  <FORMULA>  (7043) 
C25H56O3Si2

>  <EXACT MASS>  (7043) 
460.376798712

>  <MW>  (7043) 
460

>  <ID>  (7043) 
JP000803

>  <CONTRIBUTOR>  (7043) 
University of Tokyo Team, {Faculty of Engineering, University of Tokyo

>  <COMMENT>  (7043) 
SMILES=CCCCCCCCCCCCCCCCOCC(CO[Si](C)(C)C)O[Si](C)(C)C
InChI=InChI=1S/C25H56O3Si2/c1-8-9-10-11-12-13-14-15-16-17-18-19-20-21-22-26-23-25(28-30(5,6)7)24-27-29(2,3)4/h25H,8-24H2,1-7H3
computed SMILES=O(CCCCCCCCCCCCCCCC)CC(O[Si](C)(C)C)CO[Si](C)(C)C
accession=JP000803
date=2016.01.19 (Created 2008.10.21, modified 2011.05.06)
author=HAYASHI A, DEPT. OF CHEMISTRY, FAC. OF SCI. AND TECHNOLOGY, KINKI UNIV.
license=CC BY-NC-SA
exact mass=460.3768
ionization energy=70 eV
ion type=[M]+*
computed spectral entropy=3.298591515923423
computed normalized entropy=0.7845024153992051
SPLASH=splash10-0a59-3960000000-300368bed35249f23f84
submitter=submitter = University of Tokyo Team (Faculty of Engineering, University of Tokyo)
MoNA Rating=3.75

>  <NUM PEAKS>  (7043) 
67

>  <MASS SPECTRAL PEAKS>  (7043) 
55 2.3
56 0.9
57 4.9
67 1.1
69 3.9
70 1.7
71 7
73 15.7
74 1.2
75 5.5
81 1.6
82 1.5
83 4.7
84 1.2
85 6.9
89 1.6
95 1.9
96 1.3
97 4.8
98 1.1
99 3.1
101 3.9
103 10
104 0.8
105 2
109 1.4
111 2
112 1
113 1.8
115 2.8
116 6.7
117 27.8
118 3.1
119 3
125 1.2
127 1.3
129 10
130 17.4
131 16.2
132 4.1
133 28.3
134 3.1
135 1.9
141 1
145 1.9
147 32.6
148 4.9
149 5.3
155 0.8
175 2.4
177 2.8
189 1.3
204 7.9
205 99.99
206 19.6
207 8.8
208 1.1
219 1.2
221 0.8
313 4.9
314 1.2
355 1
356 1.6
357 1.6
370 1
445 2.4
446 0.8

$$$$

     RDKit          2D

 28 27  0  0  0  0  0  0  0  0999 V2000
    6.4952   12.0000    0.0000 C   0  0  0  0  0  0  0  0  0  0  0  0
  -17.4365   14.0490    0.0000 C   0  0  0  0  0  0  0  0  0  0  0  0
  -19.4856   13.5000    0.0000 C   0  0  0  0  0  0  0  0  0  0  0  0
  -18.9365   11.4510    0.0000 C   0  0  0  0  0  0  0  0  0  0  0  0
  -16.3385   11.0490    0.0000 C   0  0  0  0  0  0  0  0  0  0  0  0
  -16.8875    9.0000    0.0000 C   0  0  0  0  0  0  0  0  0  0  0  0
  -14.8385    8.4510    0.0000 C   0  0  0  0  0  0  0  0  0  0  0  0
    5.1962   12.7500    0.0000 C   0  0  0  0  0  0  0  0  0  0  0  0
    3.8971   12.0000    0.0000 C   0  0  0  0  0  0  0  0  0  0  0  0
    2.5981   12.7500    0.0000 C   0  0  0  0  0  0  0  0  0  0  0  0
    1.2990   12.0000    0.0000 C   0  0  0  0  0  0  0  0  0  0  0  0
    0.0000   12.7500    0.0000 C   0  0  0  0  0  0  0  0  0  0  0  0
   -1.2990   12.0000    0.0000 C   0  0  0  0  0  0  0  0  0  0  0  0
   -2.5981   12.7500    0.0000 C   0  0  0  0  0  0  0  0  0  0  0  0
   -3.8971   12.0000    0.0000 C   0  0  0  0  0  0  0  0  0  0  0  0
   -5.1962   12.7500    0.0000 C   0  0  0  0  0  0  0  0  0  0  0  0
   -6.4952   12.0000    0.0000 C   0  0  0  0  0  0  0  0  0  0  0  0
   -7.7942   12.7500    0.0000 C   0  0  0  0  0  0  0  0  0  0  0  0
   -9.0933   12.0000    0.0000 C   0  0  0  0  0  0  0  0  0  0  0  0
  -10.3923   12.7500    0.0000 C   0  0  0  0  0  0  0  0  0  0  0  0
  -12.9904   12.7500    0.0000 C   0  0  0  0  0  0  0  0  0  0  0  0
  -15.5885   12.7500    0.0000 C   0  0  0  0  0  0  0  0  0  0  0  0
  -14.2894   12.0000    0.0000 C   0  0  0  0  0  0  0  0  0  0  0  0
  -11.6913   12.0000    0.0000 O   0  0  0  0  0  0  0  0  0  0  0  0
  -16.8875   12.0000    0.0000 O   0  0  0  0  0  0  0  0  0  0  0  0
  -14.2894   10.5000    0.0000 O   0  0  0  0  0  0  0  0  0  0  0  0
  -18.1865   12.7500    0.0000 Si  0  0  0  0  0  4  0  0  0  0  0  0
  -15.5885    9.7500    0.0000 Si  0  0  0  0  0  4  0  0  0  0  0  0
  8  1  1  0
  9  8  1  0
 10  9  1  0
 11 10  1  0
 12 11  1  0
 13 12  1  0
 14 13  1  0
 15 14  1  0
 16 15  1  0
 17 16  1  0
 18 17  1  0
 19 18  1  0
 20 19  1  0
 23 21  1  0
 23 22  1  0
 24 20  1  0
 24 21  1  0
 25 22  1  0
 26 23  1  0
 27  2  1  0
 27  3  1  0
 27  4  1  0
 27 25  1  0
 28  5  1  0
 28  6  1  0
 28  7  1  0
 28 26  1  0
M  END
>  <NAME>  (7044) 
1-O-TETRADECYLGLYCEROL 2,3-DITRIMETHYLSILYL ETHER

>  <SYNONYMS>  (7044) 
1-O-TETRADECYL-2,3-DI-O-TRIMETHYLSILYLGLYCEROL

>  <SPECTRUM TYPE>  (7044) 
MS1

>  <INSTRUMENT TYPE>  (7044) 
EI-B

>  <INSTRUMENT>  (7044) 
SHIMADZU LKB-9000B

>  <ION MODE>  (7044) 
P

>  <INCHIKEY>  (7044) 
YCRROHFKFUKIRO-UHFFFAOYSA-N

>  <FORMULA>  (7044) 
C23H52O3Si2

>  <EXACT MASS>  (7044) 
432.345498584

>  <MW>  (7044) 
432

>  <ID>  (7044) 
JP000801

>  <CONTRIBUTOR>  (7044) 
University of Tokyo Team, {Faculty of Engineering, University of Tokyo

>  <COMMENT>  (7044) 
SMILES=CCCCCCCCCCCCCCOCC(CO[Si](C)(C)C)O[Si](C)(C)C
InChI=InChI=1S/C23H52O3Si2/c1-8-9-10-11-12-13-14-15-16-17-18-19-20-24-21-23(26-28(5,6)7)22-25-27(2,3)4/h23H,8-22H2,1-7H3
computed SMILES=O(CCCCCCCCCCCCCC)CC(O[Si](C)(C)C)CO[Si](C)(C)C
accession=JP000801
date=2016.01.19 (Created 2008.10.21, modified 2011.05.06)
author=HAYASHI A, DEPT. OF CHEMISTRY, FAC. OF SCI. AND TECHNOLOGY, KINKI UNIV.
license=CC BY-NC-SA
exact mass=432.3455
ionization energy=70 eV
ion type=[M]+*
computed spectral entropy=3.3150840992334207
computed normalized entropy=0.7829477354039174
SPLASH=splash10-0a59-3950000000-33dd73a12b01f1f72495
submitter=submitter = University of Tokyo Team (Faculty of Engineering, University of Tokyo)
MoNA Rating=3.75

>  <NUM PEAKS>  (7044) 
69

>  <MASS SPECTRAL PEAKS>  (7044) 
55 2.9
56 1.4
57 6.2
67 1.3
68 1
69 4.4
70 1.8
71 8.3
73 18.2
74 1.8
75 6.3
76 0.8
81 1.6
82 1.6
83 4.9
84 1.6
85 8.3
89 1.8
95 1.5
96 1.4
97 4.6
98 1.3
99 2.9
101 5.1
102 0.8
103 10.9
104 1.1
105 2.3
109 1.3
111 1.9
113 1.8
115 3.3
116 7.2
117 32.4
118 3.5
119 3.2
123 0.9
125 1.3
127 1.4
129 9.9
130 17.6
131 17.3
132 4.3
133 29.8
134 3.3
135 2
141 1.3
145 2.2
147 36.3
148 5.9
149 5.2
150 0.8
175 2.6
177 3.4
189 1.3
204 7.7
205 99.99
206 1.91
207 8.5
208 1.1
221 1.1
252 0.9
285 4.5
286 1.1
327 0.8
328 1.5
329 1.4
342 0.8
417 2

$$$$

     RDKit          2D

 15 17  0  0  0  0  0  0  0  0999 V2000
    4.1468   -1.5685    0.0000 C   0  0  0  0  0  0  0  0  0  0  0  0
    0.2479   -0.8183    0.0000 C   0  0  0  0  0  0  0  0  0  0  0  0
    0.2491    3.6819    0.0000 C   0  0  0  0  0  0  0  0  0  0  0  0
    1.5479   -1.5683    0.0000 C   0  0  0  0  0  0  0  0  0  0  0  0
    1.5479    2.9317    0.0000 C   0  0  0  0  0  0  0  0  0  0  0  0
    2.8479    0.6817    0.0000 C   0  0  0  0  0  0  0  0  0  0  0  0
    0.2479    0.6817    0.0000 C   0  0  0  0  0  0  0  0  0  0  0  0
   -1.0500    2.9324    0.0000 C   0  0  0  0  0  0  0  0  0  0  0  0
    0.8479    0.3917    0.0000 C   0  0  0  0  0  0  0  0  0  0  0  0
    2.8479   -0.8183    0.0000 C   0  0  0  0  0  0  0  0  0  0  0  0
    1.5479    1.4317    0.0000 C   0  0  0  0  0  0  0  0  0  0  0  0
   -2.3488    3.6829    0.0000 O   0  0  0  0  0  0  0  0  0  0  0  0
   -2.0878    0.5515    0.0000 O   0  0  0  0  0  0  0  0  0  0  0  0
   -1.0507    1.4325    0.0000 O   0  0  0  0  0  0  0  0  0  0  0  0
    1.3679   -0.5983    0.0000 O   0  0  0  0  0  0  0  0  0  0  0  0
  4  2  2  0
  5  3  2  0
  7  2  1  0
  8  3  1  0
 10  1  1  0
 10  4  1  0
 10  6  1  0
 11  5  1  0
 11  6  1  0
 11  7  1  0
 11  9  1  0
 12  8  2  0
 13  9  2  0
 14  7  1  0
 14  8  1  0
 15  9  1  0
 15 10  1  0
M  END
>  <NAME>  (7045) 
8-METHYL-3-OXO-2-OXABICYCLO(4.4.0)DECA-4,9-DIENE-6,8-CARBOLACTONE

>  <SYNONYMS>  (7045) 


>  <SPECTRUM TYPE>  (7045) 
MS1

>  <INSTRUMENT TYPE>  (7045) 
EI-B

>  <INSTRUMENT>  (7045) 
HITACHI RMU-6L

>  <ION MODE>  (7045) 
P

>  <INCHIKEY>  (7045) 
CKKDYPCQXYYSIM-UHFFFAOYSA-N

>  <FORMULA>  (7045) 
C11H10O4

>  <EXACT MASS>  (7045) 
206.0579088

>  <MW>  (7045) 
206

>  <ID>  (7045) 
JP000753

>  <CONTRIBUTOR>  (7045) 
University of Tokyo Team, {Faculty of Engineering, University of Tokyo

>  <COMMENT>  (7045) 
SMILES=O=C(C=3)OC(C=2)C(C3)(C1)C(=O)OC(C)(C2)1
InChI=InChI=1S/C11H10O4/c1-10-4-2-7-11(6-10,9(13)15-10)5-3-8(12)14-7/h2-5,7H,6H2,1H3
computed SMILES=O=C1OC2C=CC3(OC(=O)C2(C=C1)C3)C
accession=JP000753
date=2016.01.19 (Created 2008.10.21, modified 2011.05.06)
author=NAKAYAMA M, MASS SPECTROSCOPY SOC. OF JAPAN (MSSJ)
license=CC BY-NC-SA
exact mass=206.05791
ionization energy=70 eV
ion type=[M]+*
computed spectral entropy=3.361709635953399
computed normalized entropy=0.8351343917826595
SPLASH=splash10-0gx3-9600000000-c5df5f55f05ab32b4045
submitter=submitter = University of Tokyo Team (Faculty of Engineering, University of Tokyo)
MoNA Rating=3.75

>  <NUM PEAKS>  (7045) 
56

>  <MASS SPECTRAL PEAKS>  (7045) 
39 71
40 7
42 4
43 33
44 2
49 2
50 36
51 65.5
52 4.8
53 2.2
54 7
55 15.5
61 3
62 9
63 26
64 6
65 28
66 9
67 3
68 2
74 8
75 6
76 5
77 33
78 16
79 28
80 12
81 4
82 3
89 7
90 3
91 81
92 17
93 3
94 3
102 4
103 14
104 3
105 53
106 10
107 3
108 2
115 10
116 3
117 7
118 2
119 31
120 2
132 2
133 91.5
134 53
135 5
147 14
161 3
162 99.99
163 10

$$$$

     RDKit          2D

 16 18  0  0  0  0  0  0  0  0999 V2000
    4.1474    2.1821    0.0000 C   0  0  0  0  0  0  0  0  0  0  0  0
   -2.3485    1.4318    0.0000 C   0  0  0  0  0  0  0  0  0  0  0  0
   -1.0494    2.1815    0.0000 C   0  0  0  0  0  0  0  0  0  0  0  0
    1.5482   -0.8194    0.0000 C   0  0  0  0  0  0  0  0  0  0  0  0
    1.5492    2.1823    0.0000 C   0  0  0  0  0  0  0  0  0  0  0  0
    2.8477   -0.0685    0.0000 C   0  0  0  0  0  0  0  0  0  0  0  0
    0.2492   -0.0694    0.0000 C   0  0  0  0  0  0  0  0  0  0  0  0
   -2.3489   -0.0681    0.0000 C   0  0  0  0  0  0  0  0  0  0  0  0
    0.8003    0.3052    0.0000 C   0  0  0  0  0  0  0  0  0  0  0  0
    2.8482    1.4323    0.0000 C   0  0  0  0  0  0  0  0  0  0  0  0
    0.2497    1.4315    0.0000 C   0  0  0  0  0  0  0  0  0  0  0  0
    4.1468   -0.8185    0.0000 I   0  0  0  0  0  0  0  0  0  0  0  0
   -3.6483   -0.8176    0.0000 O   0  0  0  0  0  0  0  0  0  0  0  0
   -0.8059   -2.1572    0.0000 O   0  0  0  0  0  0  0  0  0  0  0  0
   -1.0503   -0.8185    0.0000 O   0  0  0  0  0  0  0  0  0  0  0  0
    1.9177    0.2606    0.0000 O   0  0  0  0  0  0  0  0  0  0  0  0
  3  2  2  0
  6  4  1  0
  7  4  1  0
  8  2  1  0
 10  1  1  0
 10  5  1  0
 10  6  1  0
 11  3  1  0
 11  5  1  0
 11  7  1  0
 11  9  1  0
 12  6  1  0
 13  8  2  0
 14  9  2  0
 15  7  1  0
 15  8  1  0
 16  9  1  0
 16 10  1  0
M  END
>  <NAME>  (7046) 
9-IODO-8-METHYL-3-OXO-2-OXABICYCLO(4.4.0)DEC-4-ENE-6,8-CARBOLACTONE

>  <SYNONYMS>  (7046) 


>  <SPECTRUM TYPE>  (7046) 
MS1

>  <INSTRUMENT TYPE>  (7046) 
EI-B

>  <INSTRUMENT>  (7046) 
HITACHI RMU-6L

>  <ION MODE>  (7046) 
P

>  <INCHIKEY>  (7046) 
LEUOKTNTKDLUQE-UHFFFAOYSA-N

>  <FORMULA>  (7046) 
C11H11IO4

>  <EXACT MASS>  (7046) 
333.97020683200003

>  <MW>  (7046) 
334

>  <ID>  (7046) 
JP000752

>  <CONTRIBUTOR>  (7046) 
University of Tokyo Team, {Faculty of Engineering, University of Tokyo

>  <COMMENT>  (7046) 
SMILES=O=C(C=3)OC(C1)C(C3)(C(=O)2)CC(C)(O2)C(I)1
InChI=InChI=1S/C11H11IO4/c1-10-5-11(9(14)16-10)3-2-8(13)15-7(11)4-6(10)12/h2-3,6-7H,4-5H2,1H3
computed SMILES=O=C1OC2CC(I)C3(OC(=O)C2(C=C1)C3)C
accession=JP000752
date=2016.01.19 (Created 2008.10.21, modified 2011.05.06)
author=NAKAYAMA M, MASS SPECTROSCOPY SOC. OF JAPAN (MSSJ)
license=CC BY-NC-SA
exact mass=333.9702
ionization energy=70 eV
ion type=[M]+*
computed spectral entropy=3.3392457234946176
computed normalized entropy=0.7734232580803918
SPLASH=splash10-0a6r-9730000000-b89584f2bfbb3b534e47
submitter=submitter = University of Tokyo Team (Faculty of Engineering, University of Tokyo)
MoNA Rating=3.75

>  <NUM PEAKS>  (7046) 
75

>  <MASS SPECTRAL PEAKS>  (7046) 
39 18
40 2
41 15
42 0.1
43 35
44 2
45 1
50 0.4
51 12
52 12
53 19
54 0.2
55 15
56 1
57 12
62 0.1
63 4
64 1
65 9
66 0.1
67 7
69 10
71 1
74 0.1
75 1
77 14
78 4
79 2
80 7
81 52
82 2
83 0.1
89 1
90 1
91 25
92 0.3
93 4
94 1
95 10
96 0.1
97 1
103 2
105 12
106 0.1
107 9
108 25
109 11
110 0.6
115 1
117 2
119 2
123 0.1
133 12
134 1
135 12
136 0.1
137 1
138 1
145 1
147 0.1
149 1
150 17
151 12
152 0.1
161 10
162 2
163 17
164 0.2
179 78
180 8
188 1
207 99.99
208 1
334 5
335 0.5

$$$$

     RDKit          2D

 17 18  0  0  0  0  0  0  0  0999 V2000
   -5.1981    0.7504    0.0000 C   0  0  0  0  0  0  0  0  0  0  0  0
   -2.5990   -3.7500    0.0000 C   0  0  0  0  0  0  0  0  0  0  0  0
   -1.3000    1.5000    0.0000 C   0  0  0  0  0  0  0  0  0  0  0  0
   -2.6000   -0.7500    0.0000 C   0  0  0  0  0  0  0  0  0  0  0  0
    2.6000   -0.7500    0.0000 C   0  0  0  0  0  0  0  0  0  0  0  0
   -2.6000    0.7500    0.0000 C   0  0  0  0  0  0  0  0  0  0  0  0
    0.0000    0.7500    0.0000 C   0  0  0  0  0  0  0  0  0  0  0  0
    1.3000   -1.5000    0.0000 C   0  0  0  0  0  0  0  0  0  0  0  0
    2.6000    0.7500    0.0000 C   0  0  0  0  0  0  0  0  0  0  0  0
   -1.3000   -1.5000    0.0000 C   0  0  0  0  0  0  0  0  0  0  0  0
    0.0000   -0.7500    0.0000 C   0  0  0  0  0  0  0  0  0  0  0  0
    1.3000    1.5000    0.0000 C   0  0  0  0  0  0  0  0  0  0  0  0
    1.3000   -3.0000    0.0000 O   0  0  0  0  0  0  0  0  0  0  0  0
    3.8989    1.5002    0.0000 O   0  0  0  0  0  0  0  0  0  0  0  0
    1.3000    3.0000    0.0000 O   0  0  0  0  0  0  0  0  0  0  0  0
   -3.8989    1.5002    0.0000 O   0  0  0  0  0  0  0  0  0  0  0  0
   -1.3000   -3.0000    0.0000 O   0  0  0  0  0  0  0  0  0  0  0  0
  6  3  2  0
  6  4  1  0
  7  3  1  0
  8  5  1  0
  9  5  2  0
 10  4  2  0
 11  7  2  0
 11  8  1  0
 11 10  1  0
 12  7  1  0
 12  9  1  0
 13  8  2  0
 14  9  1  0
 15 12  2  0
 16  1  1  0
 16  6  1  0
 17  2  1  0
 17 10  1  0
M  END
>  <NAME>  (7047) 
2-HYDROXY-5,7-DIMETHOXY-1,4-NAPHTHOQUINONE

>  <SYNONYMS>  (7047) 


>  <SPECTRUM TYPE>  (7047) 
MS1

>  <INSTRUMENT TYPE>  (7047) 
EI-B

>  <INSTRUMENT>  (7047) 
HITACHI RMS-4

>  <ION MODE>  (7047) 
P

>  <INCHIKEY>  (7047) 
ADTSNWYKAAWAQG-UHFFFAOYSA-N

>  <FORMULA>  (7047) 
C12H10O5

>  <EXACT MASS>  (7047) 
234.05282341999998

>  <MW>  (7047) 
234

>  <ID>  (7047) 
JP000750

>  <CONTRIBUTOR>  (7047) 
University of Tokyo Team, {Faculty of Engineering, University of Tokyo

>  <COMMENT>  (7047) 
SMILES=COc(c1)cc(c(=O)2)c(c(=O)cc(O)2)c(OC)1
InChI=InChI=1S/C12H10O5/c1-16-6-3-7-11(10(4-6)17-2)8(13)5-9(14)12(7)15/h3-5,14H,1-2H3
computed SMILES=O=C1C=C(O)C(=O)C=2C=C(OC)C=C(OC)C12
date=2016.01.19 (Created 2008.10.21, modified 2011.05.06)
accession=JP000750
author=NAKAYAMA M, MASS SPECTROSCOPY SOC. OF JAPAN (MSSJ)
license=CC BY-NC-SA
exact mass=234.05282
ionization energy=70 eV
ion type=[M]+*
computed spectral entropy=4.400479930969665
computed normalized entropy=0.8854416988551846
SPLASH=splash10-001i-8940000000-95ede05813ff16a24c61
submitter=submitter = University of Tokyo Team (Faculty of Engineering, University of Tokyo)
MoNA Rating=3.75

>  <NUM PEAKS>  (7047) 
144

>  <MASS SPECTRAL PEAKS>  (7047) 
39 15
40 5
41 12
42 0.8
43 23
44 5
45 6
46 0.2
50 10
51 18
52 7
53 0.9
54 5
55 20
56 4
57 0.9
58 2
59 10
60 4
61 0.5
62 9
63 15
64 6
65 1.3
66 4
67 2
68 4
69 0.3
70 14
71 5
72 6
73 0.6
74 5
75 7
76 8
77 2.3
78 8
79 6
80 8
81 0.3
82 3
83 6
84 3
85 0.6
86 3
87 4
88 4
89 1
90 7
91 12
92 10
93 0.6
94 4
95 4
96 3
97 0.4
98 3
99 4
100 5
101 0.5
102 6
103 12
104 5
105 1
106 6
107 8
108 3
109 0.3
110 2
111 2
112 2
113 0.1
114 1
115 5
116 3
117 0.6
118 6
119 8
120 6
121 0.6
122 3
123 2
124 2
125 0.2
126 2
127 3
128 3
129 0.3
130 4
131 10
132 9
133 0.8
134 9
135 14
136 5
137 0.4
138 4
139 2
140 2
141 0.2
142 2
143 3
144 4
145 0.5
146 7
147 9
148 10
149 0.9
150 5
151 4
152 2
153 0.1
158 3
159 6
160 10
161 9.4
162 16
163 9
164 11
173 0.5
174 13
175 27
176 13
177 0.6
178 3
187 4
188 6
189 0.5
190 6
191 6
192 3
202 2.1
203 14
204 5
205 16
206 0.7
216 3
217 3
218 3
219 0.2
233 11
234 99.99
235 16
236 3

$$$$

     RDKit          2D

 15 16  0  0  0  0  0  0  0  0999 V2000
   -1.3000    1.5000    0.0000 C   0  0  0  0  0  0  0  0  0  0  0  0
   -2.6000   -0.7500    0.0000 C   0  0  0  0  0  0  0  0  0  0  0  0
    2.6000   -0.7500    0.0000 C   0  0  0  0  0  0  0  0  0  0  0  0
   -2.6000    0.7500    0.0000 C   0  0  0  0  0  0  0  0  0  0  0  0
    0.0000    0.7500    0.0000 C   0  0  0  0  0  0  0  0  0  0  0  0
   -1.3000   -1.5000    0.0000 C   0  0  0  0  0  0  0  0  0  0  0  0
    1.3000   -1.5000    0.0000 C   0  0  0  0  0  0  0  0  0  0  0  0
    2.6000    0.7500    0.0000 C   0  0  0  0  0  0  0  0  0  0  0  0
    0.0000   -0.7500    0.0000 C   0  0  0  0  0  0  0  0  0  0  0  0
    1.3000    1.5000    0.0000 C   0  0  0  0  0  0  0  0  0  0  0  0
   -3.8989    1.5002    0.0000 O   0  0  0  0  0  0  0  0  0  0  0  0
   -1.3000   -3.0000    0.0000 O   0  0  0  0  0  0  0  0  0  0  0  0
    1.3000   -3.0000    0.0000 O   0  0  0  0  0  0  0  0  0  0  0  0
    3.8989    1.5002    0.0000 O   0  0  0  0  0  0  0  0  0  0  0  0
    1.3000    3.0000    0.0000 O   0  0  0  0  0  0  0  0  0  0  0  0
  4  1  2  0
  4  2  1  0
  5  1  1  0
  6  2  2  0
  7  3  1  0
  8  3  2  0
  9  5  2  0
  9  6  1  0
  9  7  1  0
 10  5  1  0
 10  8  1  0
 11  4  1  0
 12  6  1  0
 13  7  2  0
 14  8  1  0
 15 10  2  0
M  END
>  <NAME>  (7048) 
2,5,7-TRIHYDROXY-1,4-NAPHTHOQUINONE

>  <SYNONYMS>  (7048) 
FLAVIOLIN

>  <SPECTRUM TYPE>  (7048) 
MS1

>  <INSTRUMENT TYPE>  (7048) 
EI-B

>  <INSTRUMENT>  (7048) 
HITACHI RMS-4

>  <ION MODE>  (7048) 
P

>  <INCHIKEY>  (7048) 
RROPNRTUMVVUED-UHFFFAOYSA-N

>  <FORMULA>  (7048) 
C10H6O5

>  <EXACT MASS>  (7048) 
206.02152329199998

>  <MW>  (7048) 
206

>  <ID>  (7048) 
JP000749

>  <CONTRIBUTOR>  (7048) 
University of Tokyo Team, {Faculty of Engineering, University of Tokyo

>  <COMMENT>  (7048) 
SMILES=Oc(c2)cc(c(=O)1)c(c(O)2)c(=O)cc(O)1
InChI=InChI=1S/C10H6O5/c11-4-1-5-9(6(12)2-4)7(13)3-8(14)10(5)15/h1-3,11-12,14H
computed SMILES=O=C1C=C(O)C(=O)C=2C=C(O)C=C(O)C12
accession=JP000749
date=2016.01.19 (Created 2008.10.21, modified 2011.05.06)
author=NAKAYAMA M, MASS SPECTROSCOPY SOC. OF JAPAN (MSSJ)
license=CC BY-NC-SA
exact mass=206.02152
ionization energy=70 eV
ion type=[M]+*
computed spectral entropy=3.0733854964083474
computed normalized entropy=0.7669403451986875
SPLASH=splash10-0a4i-9750000000-e30fdde7df39448f8877
submitter=submitter = University of Tokyo Team (Faculty of Engineering, University of Tokyo)
MoNA Rating=3.75

>  <NUM PEAKS>  (7048) 
55

>  <MASS SPECTRAL PEAKS>  (7048) 
39 11
41 8
42 4
43 0.5
50 10
51 12
52 8
53 1.2
54 2
55 9
61 5
62 0.6
63 7
64 2
65 8
66 0.7
67 2
68 2
69 36
70 0.2
75 12
76 5
77 6
79 0.7
80 2
81 7
82 1
88 0.1
89 6
90 2
92 1
93 0.2
94 3
103 1
104 2
105 0.1
108 12
109 11
110 1
120 0.8
121 9
122 1
135 1
136 1.3
137 45
138 6
139 1
149 1.1
150 19
151 2
178 35
179 0.5
180 1
206 99.99
207 15

$$$$

     RDKit          2D

 12 12  0  0  0  0  0  0  0  0999 V2000
    6.3801   -4.3545    0.0000 C   0  0  0  0  0  0  0  0  0  0  0  0
    1.2100    0.3900    0.0000 C   0  0  0  0  0  0  0  0  0  0  0  0
    1.6322   -2.2431    0.0000 C   0  0  0  0  0  0  0  0  0  0  0  0
    0.0000    1.2800    0.0000 C   0  0  0  0  0  0  0  0  0  0  0  0
    3.1239   -2.0857    0.0000 C   0  0  0  0  0  0  0  0  0  0  0  0
   -0.7500   -1.0300    0.0000 C   0  0  0  0  0  0  0  0  0  0  0  0
    0.7500   -1.0300    0.0000 C   0  0  0  0  0  0  0  0  0  0  0  0
   -1.2100    0.3900    0.0000 C   0  0  0  0  0  0  0  0  0  0  0  0
    4.0061   -3.2988    0.0000 C   0  0  0  0  0  0  0  0  0  0  0  0
   -2.6377    0.8500    0.0000 O   0  0  0  0  0  0  0  0  0  0  0  0
    3.3966   -4.6694    0.0000 O   0  0  0  0  0  0  0  0  0  0  0  0
    5.4979   -3.1414    0.0000 O   0  0  0  0  0  0  0  0  0  0  0  0
  4  2  1  0
  5  3  1  0
  7  2  1  0
  7  3  1  0
  7  6  2  0
  8  4  1  0
  8  6  1  0
  9  5  1  0
 10  8  2  0
 11  9  2  0
 12  1  1  0
 12  9  1  0
M  END
>  <NAME>  (7049) 
3-(2-(METHOXY(ARBONYL)ETHYL)-2-CYCLOPENTEN-1-ONE

>  <SYNONYMS>  (7049) 


>  <SPECTRUM TYPE>  (7049) 
MS1

>  <INSTRUMENT TYPE>  (7049) 
EI-B

>  <INSTRUMENT>  (7049) 
HITACHI RMS-4

>  <ION MODE>  (7049) 
P

>  <INCHIKEY>  (7049) 
KGVGYHPHMLHEME-UHFFFAOYSA-N

>  <FORMULA>  (7049) 
C9H12O3

>  <EXACT MASS>  (7049) 
168.07864424399997

>  <MW>  (7049) 
168

>  <ID>  (7049) 
JP000742

>  <CONTRIBUTOR>  (7049) 
University of Tokyo Team, {Faculty of Engineering, University of Tokyo

>  <COMMENT>  (7049) 
SMILES=COC(=O)CCC(C1)=CC(=O)C1
InChI=InChI=1S/C9H12O3/c1-12-9(11)5-3-7-2-4-8(10)6-7/h6H,2-5H2,1H3
computed SMILES=O=C(OC)CCC1=CC(=O)CC1
accession=JP000742
license=CC BY-NC-SA
date=2016.01.19 (Created 2008.10.21, modified 2011.05.06)
author=NAKAYAMA M, MASS SPECTROSCOPY SOC. OF JAPAN (MSSJ)
exact mass=168.07864
ionization energy=70 eV
ion type=[M]+*
computed spectral entropy=3.4307637293649753
computed normalized entropy=0.8188655010044111
SPLASH=splash10-00lr-9200000000-ee05b126202e1c6bcd5d
submitter=submitter = University of Tokyo Team (Faculty of Engineering, University of Tokyo)
MoNA Rating=3.75

>  <NUM PEAKS>  (7049) 
66

>  <MASS SPECTRAL PEAKS>  (7049) 
39 34
40 8
41 33
42 0.6
43 17
44 2
45 8
50 0.7
51 15
52 17
53 48
54 0.7
55 18
56 3
57 3
58 0.3
59 18
60 2
61 2
62 0.2
63 3
64 2
65 11
66 1.5
67 25
68 6
69 6
71 0.3
74 4
75 2
77 9
78 0.4
79 30
80 30
81 99.99
82 1
83 7
84 3
85 2
87 0.3
91 3
92 1
93 3
94 1.5
95 18
96 3
97 8
98 1.8
99 5
107 7
108 27
109 3.8
110 6
111 4
112 3
123 0.3
125 10
126 2
136 15
137 1.7
138 3
139 3
140 18
141 0.3
168 52
169 5

$$$$

     RDKit          2D

 12 12  0  0  0  0  0  0  0  0999 V2000
    0.0052    1.2314    0.0000 C   0  0  0  0  0  0  0  0  0  0  0  0
    4.2435   -1.2600    0.0000 C   0  0  0  0  0  0  0  0  0  0  0  0
   -2.5695    0.5395    0.0000 C   0  0  0  0  0  0  0  0  0  0  0  0
   -3.3195   -0.7595    0.0000 C   0  0  0  0  0  0  0  0  0  0  0  0
    0.3464   -2.0100    0.0000 C   0  0  0  0  0  0  0  0  0  0  0  0
   -1.1097    0.2279    0.0000 C   0  0  0  0  0  0  0  0  0  0  0  0
   -0.9526   -1.2600    0.0000 C   0  0  0  0  0  0  0  0  0  0  0  0
   -2.3197   -1.8679    0.0000 C   0  0  0  0  0  0  0  0  0  0  0  0
    1.6454   -1.2600    0.0000 C   0  0  0  0  0  0  0  0  0  0  0  0
   -2.6313   -3.3352    0.0000 O   0  0  0  0  0  0  0  0  0  0  0  0
    1.6454    0.2400    0.0000 O   0  0  0  0  0  0  0  0  0  0  0  0
    2.9445   -2.0100    0.0000 O   0  0  0  0  0  0  0  0  0  0  0  0
  4  3  1  0
  6  1  1  0
  6  3  1  0
  7  5  1  0
  7  6  2  0
  8  4  1  0
  8  7  1  0
  9  5  1  0
 10  8  2  0
 11  9  2  0
 12  2  1  0
 12  9  1  0
M  END
>  <NAME>  (7050) 
2-METHOXYCARBONYLMETHYL-3-METHYL-2-CYCLOPENTEN-1-ONE

>  <SYNONYMS>  (7050) 


>  <SPECTRUM TYPE>  (7050) 
MS1

>  <INSTRUMENT TYPE>  (7050) 
EI-B

>  <INSTRUMENT>  (7050) 
HITACHI RMS-4

>  <ION MODE>  (7050) 
P

>  <INCHIKEY>  (7050) 
BKYLKYCUGLTFMT-UHFFFAOYSA-N

>  <FORMULA>  (7050) 
C9H12O3

>  <EXACT MASS>  (7050) 
168.07864424399997

>  <MW>  (7050) 
168

>  <ID>  (7050) 
JP000741

>  <CONTRIBUTOR>  (7050) 
University of Tokyo Team, {Faculty of Engineering, University of Tokyo

>  <COMMENT>  (7050) 
SMILES=COC(=O)CC(=C(C)1)C(=O)CC1
InChI=InChI=1S/C9H12O3/c1-6-3-4-8(10)7(6)5-9(11)12-2/h3-5H2,1-2H3
computed SMILES=O=C(OC)CC=1C(=O)CCC1C
accession=JP000741
date=2016.01.19 (Created 2008.10.21, modified 2011.05.06)
author=NAKAYAMA M, MASS SPECTROSCOPY SOC. OF JAPAN (MSSJ)
license=CC BY-NC-SA
exact mass=168.07864
ionization energy=70 eV
ion type=[M]+*
computed spectral entropy=3.3126616485536
computed normalized entropy=0.7771312282668729
SPLASH=splash10-0553-9300000000-6b968f2713791173ae9c
submitter=submitter = University of Tokyo Team (Faculty of Engineering, University of Tokyo)
MoNA Rating=3.75

>  <NUM PEAKS>  (7050) 
71

>  <MASS SPECTRAL PEAKS>  (7050) 
39 52
40 15
41 77
42 0.7
43 17
44 2
45 5
47 1
48 5
49 4
50 13
51 2.7
52 14
53 54
54 8
55 1.7
56 2
57 2
58 1
59 3.3
60 2
61 2
62 4
63 0.6
64 2
65 19
66 13
67 4.8
68 6
69 3
70 0.1
71 2
74 2
75 2
77 1.7
78 6
79 81
80 18
81 8.3
82 9
83 23
84 2
85 1.6
87 4
91 3
93 6
94 0.6
95 9
96 2
97 5
98 0.4
99 3
107 5
108 99.99
109 5.6
110 9
111 3
112 2
121 0.2
123 4
125 6
135 1
136 52
137 23
138 0.3
139 1
140 1
141 1
168 2.7
169 5
170 1

$$$$

     RDKit          2D

 18 17  0  0  0  0  0  0  0  0999 V2000
    4.2219    6.1875    0.0000 C   0  0  0  0  0  0  0  0  0  0  0  0
    2.9228    8.4375    0.0000 C   0  0  0  0  0  0  0  0  0  0  0  0
   -6.5053    8.0866    0.0000 C   0  0  0  0  0  0  0  0  0  0  0  0
   -8.4337    8.0866    0.0000 C   0  0  0  0  0  0  0  0  0  0  0  0
   -1.3091    8.0866    0.0000 C   0  0  0  0  0  0  0  0  0  0  0  0
   -3.2375    8.0866    0.0000 C   0  0  0  0  0  0  0  0  0  0  0  0
    1.6238    6.1875    0.0000 C   0  0  0  0  0  0  0  0  0  0  0  0
   -8.7685    6.1875    0.0000 C   0  0  0  0  0  0  0  0  0  0  0  0
   -3.5724    6.1875    0.0000 C   0  0  0  0  0  0  0  0  0  0  0  0
  -10.0675    6.9375    0.0000 C   0  0  0  0  0  0  0  0  0  0  0  0
    0.3248    6.9375    0.0000 C   0  0  0  0  0  0  0  0  0  0  0  0
   -4.8714    6.9375    0.0000 C   0  0  0  0  0  0  0  0  0  0  0  0
    2.9228    6.9375    0.0000 C   0  0  0  0  0  0  0  0  0  0  0  0
   -7.4695    6.9375    0.0000 C   0  0  0  0  0  0  0  0  0  0  0  0
   -2.2733    6.9375    0.0000 C   0  0  0  0  0  0  0  0  0  0  0  0
  -11.3666    6.1875    0.0000 O   0  0  0  0  0  0  0  0  0  0  0  0
   -0.9743    6.1875    0.0000 O   0  0  0  0  0  0  0  0  0  0  0  0
   -6.1704    6.1875    0.0000 O   0  0  0  0  0  0  0  0  0  0  0  0
 10  8  1  0
 11  7  1  0
 12  9  1  0
 13  1  2  0
 13  2  1  0
 13  7  1  0
 14  3  1  0
 14  4  1  0
 14  8  1  0
 15  5  1  0
 15  6  1  0
 15  9  1  0
 16 10  1  0
 17 11  1  0
 17 15  1  0
 18 12  1  0
 18 14  1  0
M  END
>  <NAME>  (7051) 
3,3,7,7,11-PENTAMETHYL-4,8-DIOXA-11-DODECEN-1-OL

>  <SYNONYMS>  (7051) 


>  <SPECTRUM TYPE>  (7051) 
MS1

>  <INSTRUMENT TYPE>  (7051) 
EI-B

>  <INSTRUMENT>  (7051) 
HITACHI RMS-4

>  <ION MODE>  (7051) 
P

>  <INCHIKEY>  (7051) 
AMHIUBLQGDHLIM-UHFFFAOYSA-N

>  <FORMULA>  (7051) 
C15H30O3

>  <EXACT MASS>  (7051) 
258.21949481999997

>  <MW>  (7051) 
258

>  <ID>  (7051) 
JP000740

>  <CONTRIBUTOR>  (7051) 
University of Tokyo Team, {Faculty of Engineering, University of Tokyo

>  <COMMENT>  (7051) 
SMILES=OCCC(C)(C)OCCC(C)(C)OCCC(C)=C
InChI=InChI=1S/C15H30O3/c1-13(2)7-11-17-15(5,6)9-12-18-14(3,4)8-10-16/h16H,1,7-12H2,2-6H3
computed SMILES=OCCC(OCCC(OCCC(=C)C)(C)C)(C)C
accession=JP000740
date=2016.01.19 (Created 2008.10.21, modified 2011.05.06)
author=NAKAYAMA M, MASS SPECTROSCOPY SOC. OF JAPAN (MSSJ)
license=CC BY-NC-SA
exact mass=258.21949
ionization energy=70 eV
ion type=[M]+*
computed spectral entropy=2.9894788750798
computed normalized entropy=0.8342299640162525
SPLASH=splash10-014i-9100000000-26854205aa61bac3bc4a
submitter=submitter = University of Tokyo Team (Faculty of Engineering, University of Tokyo)
MoNA Rating=3.75

>  <NUM PEAKS>  (7051) 
36

>  <MASS SPECTRAL PEAKS>  (7051) 
31 6
39 6
40 3
41 32
42 4
43 13
44 2
45 5
53 4
55 8
56 9
57 9
58 2
59 6
67 5
68 6
69 99.99
70 12
71 18
81 5
85 8
86 8
87 22
88 2
89 7
99 20
103 2
105 11
115 6
117 4
127 5
137 3
139 6
155 7
173 5
258 1.5

$$$$

     RDKit          2D

 12 11  0  0  0  0  0  0  0  0999 V2000
   -6.8200    5.0625    0.0000 C   0  0  0  0  0  0  0  0  0  0  0  0
   -5.5209    2.8125    0.0000 C   0  0  0  0  0  0  0  0  0  0  0  0
   -1.2889    3.1634    0.0000 C   0  0  0  0  0  0  0  0  0  0  0  0
    0.6394    3.1634    0.0000 C   0  0  0  0  0  0  0  0  0  0  0  0
   -4.2219    5.0625    0.0000 C   0  0  0  0  0  0  0  0  0  0  0  0
    0.9743    5.0625    0.0000 C   0  0  0  0  0  0  0  0  0  0  0  0
    2.2733    4.3125    0.0000 C   0  0  0  0  0  0  0  0  0  0  0  0
   -2.9228    4.3125    0.0000 C   0  0  0  0  0  0  0  0  0  0  0  0
   -5.5209    4.3125    0.0000 C   0  0  0  0  0  0  0  0  0  0  0  0
   -0.3248    4.3125    0.0000 C   0  0  0  0  0  0  0  0  0  0  0  0
    3.5724    5.0625    0.0000 O   0  0  0  0  0  0  0  0  0  0  0  0
   -1.6238    5.0625    0.0000 O   0  0  0  0  0  0  0  0  0  0  0  0
  7  6  1  0
  8  5  1  0
  9  1  2  0
  9  2  1  0
  9  5  1  0
 10  3  1  0
 10  4  1  0
 10  6  1  0
 11  7  1  0
 12  8  1  0
 12 10  1  0
M  END
>  <NAME>  (7052) 
3,3,7-TRIMETHYL-4-OXA-7-OCTEN-1-OL

>  <SYNONYMS>  (7052) 


>  <SPECTRUM TYPE>  (7052) 
MS1

>  <INSTRUMENT TYPE>  (7052) 
EI-B

>  <INSTRUMENT>  (7052) 
HITACHI RMS-4

>  <ION MODE>  (7052) 
P

>  <INCHIKEY>  (7052) 
OYSGDRSBCITWNM-UHFFFAOYSA-N

>  <FORMULA>  (7052) 
C10H20O2

>  <EXACT MASS>  (7052) 
172.14632988

>  <MW>  (7052) 
172

>  <ID>  (7052) 
JP000739

>  <CONTRIBUTOR>  (7052) 
University of Tokyo Team, {Faculty of Engineering, University of Tokyo

>  <COMMENT>  (7052) 
SMILES=OCCC(C)(C)OCCC(C)=C
InChI=InChI=1S/C10H20O2/c1-9(2)5-8-12-10(3,4)6-7-11/h11H,1,5-8H2,2-4H3
computed SMILES=OCCC(OCCC(=C)C)(C)C
accession=JP000739
date=2016.01.19 (Created 2008.10.21, modified 2011.05.06)
author=NAKAYAMA M, MASS SPECTROSCOPY SOC. OF JAPAN (MSSJ)
license=CC BY-NC-SA
exact mass=172.14633
ionization energy=70 eV
ion type=[M]+*
computed spectral entropy=2.7982018902703025
computed normalized entropy=0.7486488042127856
SPLASH=splash10-014i-9000000000-4086e06943bfb6ed2a05
submitter=submitter = University of Tokyo Team (Faculty of Engineering, University of Tokyo)
MoNA Rating=3.75

>  <NUM PEAKS>  (7052) 
42

>  <MASS SPECTRAL PEAKS>  (7052) 
31 41
39 5
40 2
41 30
42 3
43 10
44 1
45 4
53 3
54 1
55 7
56 6
57 7
58 1
59 6
60 1
67 4
68 6
69 99.99
70 11
71 10
81 4
87 22
88 1
89 5
97 1
99 16
100 1
103 3
105 3
115 3
116 1
117 5
127 5
138 1
139 1
143 1
147 1
155 3
156 1
157 1
172 2

$$$$

     RDKit          2D

 15 14  0  0  0  0  0  0  0  0999 V2000
    3.5724    4.3125    0.0000 C   0  0  0  0  0  0  0  0  0  0  0  0
    2.2733    6.5625    0.0000 C   0  0  0  0  0  0  0  0  0  0  0  0
   -4.5567    6.2116    0.0000 C   0  0  0  0  0  0  0  0  0  0  0  0
   -6.4851    6.2116    0.0000 C   0  0  0  0  0  0  0  0  0  0  0  0
   -2.5880    3.1634    0.0000 C   0  0  0  0  0  0  0  0  0  0  0  0
   -0.6596    3.1634    0.0000 C   0  0  0  0  0  0  0  0  0  0  0  0
    0.9743    4.3125    0.0000 C   0  0  0  0  0  0  0  0  0  0  0  0
   -6.8200    4.3125    0.0000 C   0  0  0  0  0  0  0  0  0  0  0  0
   -2.9228    5.0625    0.0000 C   0  0  0  0  0  0  0  0  0  0  0  0
    2.2733    5.0625    0.0000 C   0  0  0  0  0  0  0  0  0  0  0  0
   -5.5209    5.0625    0.0000 C   0  0  0  0  0  0  0  0  0  0  0  0
   -1.6238    4.3125    0.0000 C   0  0  0  0  0  0  0  0  0  0  0  0
   -8.1190    5.0625    0.0000 O   0  0  0  0  0  0  0  0  0  0  0  0
   -0.3248    5.0625    0.0000 O   0  0  0  0  0  0  0  0  0  0  0  0
   -4.2219    4.3125    0.0000 O   0  0  0  0  0  0  0  0  0  0  0  0
 10  1  2  0
 10  2  1  0
 10  7  1  0
 11  3  1  0
 11  4  1  0
 11  8  1  0
 12  5  1  0
 12  6  1  0
 12  9  1  0
 13  8  1  0
 14  7  1  0
 14 12  1  0
 15  9  1  0
 15 11  1  0
M  END
>  <NAME>  (7053) 
2,2,5,5,8-PENTAMETHYL-3,6-DIOXA-8-NONEN-1-OL

>  <SYNONYMS>  (7053) 


>  <SPECTRUM TYPE>  (7053) 
MS1

>  <INSTRUMENT TYPE>  (7053) 
EI-B

>  <INSTRUMENT>  (7053) 
HITACHI RMS-4

>  <ION MODE>  (7053) 
P

>  <INCHIKEY>  (7053) 
QSZCPGMPLJTNHH-UHFFFAOYSA-N

>  <FORMULA>  (7053) 
C12H24O3

>  <EXACT MASS>  (7053) 
216.17254462799997

>  <MW>  (7053) 
216

>  <ID>  (7053) 
JP000738

>  <CONTRIBUTOR>  (7053) 
University of Tokyo Team, {Faculty of Engineering, University of Tokyo

>  <COMMENT>  (7053) 
SMILES=CC(=C)COC(C)(C)COC(C)(C)CO
InChI=InChI=1S/C12H24O3/c1-10(2)7-14-12(5,6)9-15-11(3,4)8-13/h13H,1,7-9H2,2-6H3
computed SMILES=OCC(OCC(OCC(=C)C)(C)C)(C)C
accession=JP000738
date=2016.01.19 (Created 2008.10.21, modified 2011.05.06)
author=NAKAYAMA M, MASS SPECTROSCOPY SOC. OF JAPAN (MSSJ)
license=CC BY-NC-SA
exact mass=216.17254
ionization energy=70 eV
ion type=[M]+*
computed spectral entropy=3.0195567002988444
computed normalized entropy=0.8426233409554024
SPLASH=splash10-0a4i-9100000000-19ba1d8d29b5bdd0030b
submitter=submitter = University of Tokyo Team (Faculty of Engineering, University of Tokyo)
MoNA Rating=3.75

>  <NUM PEAKS>  (7053) 
36

>  <MASS SPECTRAL PEAKS>  (7053) 
39 11
40 5
41 13
42 6
43 17
44 5
45 18
46 6
47 6
53 4
54 3
55 99.99
56 14
57 11
58 4
59 11
69 4
70 5
71 12
72 10
73 21
74 4
81 4
83 4
85 3
95 4
96 4
97 4
101 9
109 6
113 28
114 6
127 6
143 4
185 5
216 0.1

$$$$

     RDKit          2D

 19 18  0  0  0  0  0  0  0  0999 V2000
    3.8971    6.0000    0.0000 C   0  0  0  0  0  0  0  0  0  0  0  0
    2.5981    8.2500    0.0000 C   0  0  0  0  0  0  0  0  0  0  0  0
   -9.0933    4.5000    0.0000 C   0  0  0  0  0  0  0  0  0  0  0  0
  -10.3923    6.7500    0.0000 C   0  0  0  0  0  0  0  0  0  0  0  0
    0.0000    3.7500    0.0000 C   0  0  0  0  0  0  0  0  0  0  0  0
   -2.5981    3.7500    0.0000 C   0  0  0  0  0  0  0  0  0  0  0  0
   -4.2320    7.8991    0.0000 C   0  0  0  0  0  0  0  0  0  0  0  0
   -6.1603    7.8991    0.0000 C   0  0  0  0  0  0  0  0  0  0  0  0
    1.2990    6.0000    0.0000 C   0  0  0  0  0  0  0  0  0  0  0  0
   -7.7942    6.7500    0.0000 C   0  0  0  0  0  0  0  0  0  0  0  0
   -3.8971    6.0000    0.0000 C   0  0  0  0  0  0  0  0  0  0  0  0
    2.5981    6.7500    0.0000 C   0  0  0  0  0  0  0  0  0  0  0  0
   -9.0933    6.0000    0.0000 C   0  0  0  0  0  0  0  0  0  0  0  0
   -1.2990    4.5000    0.0000 C   0  0  0  0  0  0  0  0  0  0  0  0
   -1.2990    6.0000    0.0000 C   0  0  0  0  0  0  0  0  0  0  0  0
   -5.1962    6.7500    0.0000 C   0  0  0  0  0  0  0  0  0  0  0  0
    0.0000    6.7500    0.0000 O   0  0  0  0  0  0  0  0  0  0  0  0
   -2.5981    6.7500    0.0000 O   0  0  0  0  0  0  0  0  0  0  0  0
   -6.4952    6.0000    0.0000 O   0  0  0  0  0  0  0  0  0  0  0  0
 12  1  2  0
 12  2  1  0
 12  9  1  0
 13  3  2  0
 13  4  1  0
 13 10  1  0
 14  5  1  0
 14  6  1  0
 15 14  1  0
 16  7  1  0
 16  8  1  0
 16 11  1  0
 17  9  1  0
 17 15  1  0
 18 11  1  0
 18 15  1  0
 19 10  1  0
 19 16  1  0
M  END
>  <NAME>  (7054) 
2,5,5,11-TETRAMETHYL-8-ISOPROPYL-4,7,9-TRIOXA-1,11-DODECADIENE

>  <SYNONYMS>  (7054) 


>  <SPECTRUM TYPE>  (7054) 
MS1

>  <INSTRUMENT TYPE>  (7054) 
EI-B

>  <INSTRUMENT>  (7054) 
HITACHI RMS-4

>  <ION MODE>  (7054) 
P

>  <INCHIKEY>  (7054) 
GELZIAQNOBTODO-UHFFFAOYSA-N

>  <FORMULA>  (7054) 
C16H30O3

>  <EXACT MASS>  (7054) 
270.21949482

>  <MW>  (7054) 
270

>  <ID>  (7054) 
JP000737

>  <CONTRIBUTOR>  (7054) 
University of Tokyo Team, {Faculty of Engineering, University of Tokyo

>  <COMMENT>  (7054) 
SMILES=CC(=C)COC(C(C)C)OCC(C)(C)OCC(C)=C
InChI=InChI=1S/C16H30O3/c1-12(2)9-17-15(14(5)6)18-11-16(7,8)19-10-13(3)4/h14-15H,1,3,9-11H2,2,4-8H3
computed SMILES=O(CC(=C)C)C(OCC(OCC(=C)C)(C)C)C(C)C
accession=JP000737
date=2016.01.19 (Created 2008.10.21, modified 2011.05.06)
author=NAKAYAMA M, MASS SPECTROSCOPY SOC. OF JAPAN (MSSJ)
license=CC BY-NC-SA
exact mass=270.21949
ionization energy=70 eV
ion type=[M]+*
computed spectral entropy=3.1182187970306208
computed normalized entropy=0.8396817783579338
SPLASH=splash10-0a4i-9200000000-85da374239b48eb1d6ed
submitter=submitter = University of Tokyo Team (Faculty of Engineering, University of Tokyo)
MoNA Rating=3.75

>  <NUM PEAKS>  (7054) 
41

>  <MASS SPECTRAL PEAKS>  (7054) 
39 11
40 4
41 14
42 6
43 10
44 4
45 3
53 7
54 5
55 99.99
56 13
57 17
58 4
59 5
67 4
69 6
70 12
71 16
72 10
73 6
81 7
83 4
85 5
94 4
95 4
96 5
97 3
99 3.5
101 12
111 6
113 4
115 27
116 5
125 5
126 6
127 7
142 3
143 2
155 3
227 2
270 0.1

$$$$

     RDKit          2D

 10  9  0  0  0  0  0  0  0  0999 V2000
    2.2288    2.8897    0.0000 C   0  0  0  0  0  0  0  0  0  0  0  0
    0.9297    5.1397    0.0000 C   0  0  0  0  0  0  0  0  0  0  0  0
   -3.9316    1.7406    0.0000 C   0  0  0  0  0  0  0  0  0  0  0  0
   -2.0032    1.7406    0.0000 C   0  0  0  0  0  0  0  0  0  0  0  0
   -0.3693    2.8897    0.0000 C   0  0  0  0  0  0  0  0  0  0  0  0
   -4.2664    3.6397    0.0000 C   0  0  0  0  0  0  0  0  0  0  0  0
    0.9297    3.6397    0.0000 C   0  0  0  0  0  0  0  0  0  0  0  0
   -2.9674    2.8897    0.0000 C   0  0  0  0  0  0  0  0  0  0  0  0
   -5.5655    2.8897    0.0000 O   0  0  0  0  0  0  0  0  0  0  0  0
   -1.6683    3.6397    0.0000 O   0  0  0  0  0  0  0  0  0  0  0  0
  7  1  2  0
  7  2  1  0
  7  5  1  0
  8  3  1  0
  8  4  1  0
  8  6  1  0
  9  6  1  0
 10  5  1  0
 10  8  1  0
M  END
>  <NAME>  (7055) 
2,2,5-TRIMETHYL-3-OXA-5-HEXEN-1-OL

>  <SYNONYMS>  (7055) 


>  <SPECTRUM TYPE>  (7055) 
MS1

>  <INSTRUMENT TYPE>  (7055) 
EI-B

>  <INSTRUMENT>  (7055) 
HITACHI RMS-4

>  <ION MODE>  (7055) 
P

>  <INCHIKEY>  (7055) 
VIYJKNBZRRVSLZ-UHFFFAOYSA-N

>  <FORMULA>  (7055) 
C8H16O2

>  <EXACT MASS>  (7055) 
144.115029752

>  <MW>  (7055) 
144

>  <ID>  (7055) 
JP000736

>  <CONTRIBUTOR>  (7055) 
University of Tokyo Team, {Faculty of Engineering, University of Tokyo

>  <COMMENT>  (7055) 
SMILES=OCC(C)(C)OCC(C)=C
InChI=InChI=1S/C8H16O2/c1-7(2)5-10-8(3,4)6-9/h9H,1,5-6H2,2-4H3
computed SMILES=OCC(OCC(=C)C)(C)C
accession=JP000736
date=2016.01.19 (Created 2008.10.21, modified 2011.05.06)
author=NAKAYAMA M, MASS SPECTROSCOPY SOC. OF JAPAN (MSSJ)
license=CC BY-NC-SA
exact mass=144.11503
ionization energy=70 eV
ion type=[M]+*
computed spectral entropy=2.603336021593551
computed normalized entropy=0.7990358760745799
SPLASH=splash10-0a4i-9100000000-e4a22138ac868e3704d8
submitter=submitter = University of Tokyo Team (Faculty of Engineering, University of Tokyo)
MoNA Rating=3.75

>  <NUM PEAKS>  (7055) 
26

>  <MASS SPECTRAL PEAKS>  (7055) 
39 11
40 6
41 10
42 4
43 14
44 4
45 5
53 6.5
54 5
55 99.99
56 12
57 16
58 13
59 10
70 4
71 4
72 7
73 3
74 12
95 5
101 4
109 3
113 32
114 6.5
126 2
144 0.1

$$$$

     RDKit          2D

 14 13  0  0  0  0  0  0  0  0999 V2000
    2.9228    3.9375    0.0000 C   0  0  0  0  0  0  0  0  0  0  0  0
    1.6238    6.1875    0.0000 C   0  0  0  0  0  0  0  0  0  0  0  0
   -6.1704    6.1875    0.0000 C   0  0  0  0  0  0  0  0  0  0  0  0
   -7.4695    3.9375    0.0000 C   0  0  0  0  0  0  0  0  0  0  0  0
   -0.9743    1.6875    0.0000 C   0  0  0  0  0  0  0  0  0  0  0  0
   -3.5724    1.6875    0.0000 C   0  0  0  0  0  0  0  0  0  0  0  0
    0.3248    3.9375    0.0000 C   0  0  0  0  0  0  0  0  0  0  0  0
   -4.8714    3.9375    0.0000 C   0  0  0  0  0  0  0  0  0  0  0  0
    1.6238    4.6875    0.0000 C   0  0  0  0  0  0  0  0  0  0  0  0
   -6.1704    4.6875    0.0000 C   0  0  0  0  0  0  0  0  0  0  0  0
   -2.2733    2.4375    0.0000 C   0  0  0  0  0  0  0  0  0  0  0  0
   -2.2733    3.9375    0.0000 C   0  0  0  0  0  0  0  0  0  0  0  0
   -0.9743    4.6875    0.0000 O   0  0  0  0  0  0  0  0  0  0  0  0
   -3.5724    4.6875    0.0000 O   0  0  0  0  0  0  0  0  0  0  0  0
  9  1  2  0
  9  2  1  0
  9  7  1  0
 10  3  2  0
 10  4  1  0
 10  8  1  0
 11  5  1  0
 11  6  1  0
 12 11  1  0
 13  7  1  0
 13 12  1  0
 14  8  1  0
 14 12  1  0
M  END
>  <NAME>  (7056) 
2,8-DIMETHYL-5-ISOPROPYL-4,6-DIOXA-1,8-NONADIENE

>  <SYNONYMS>  (7056) 


>  <SPECTRUM TYPE>  (7056) 
MS1

>  <INSTRUMENT TYPE>  (7056) 
EI-B

>  <INSTRUMENT>  (7056) 
HITACHI RMS-4

>  <ION MODE>  (7056) 
P

>  <INCHIKEY>  (7056) 
RTUVALNOUGJLOR-UHFFFAOYSA-N

>  <FORMULA>  (7056) 
C12H22O2

>  <EXACT MASS>  (7056) 
198.161979944

>  <MW>  (7056) 
198

>  <ID>  (7056) 
JP000735

>  <CONTRIBUTOR>  (7056) 
University of Tokyo Team, {Faculty of Engineering, University of Tokyo

>  <COMMENT>  (7056) 
SMILES=CC(=C)COC(OCC(C)=C)C(C)C
InChI=InChI=1S/C12H22O2/c1-9(2)7-13-12(11(5)6)14-8-10(3)4/h11-12H,1,3,7-8H2,2,4-6H3
computed SMILES=O(CC(=C)C)C(OCC(=C)C)C(C)C
accession=JP000735
date=2016.01.19 (Created 2008.10.21, modified 2011.05.06)
author=NAKAYAMA M, MASS SPECTROSCOPY SOC. OF JAPAN (MSSJ)
license=CC BY-NC-SA
exact mass=198.16198
ionization energy=70 eV
ion type=[M]+*
computed spectral entropy=2.9734327462673615
computed normalized entropy=0.8504007767740293
SPLASH=splash10-0a4i-9100000000-ddb59bdf7e718e38b98a
submitter=submitter = University of Tokyo Team (Faculty of Engineering, University of Tokyo)
MoNA Rating=3.75

>  <NUM PEAKS>  (7056) 
33

>  <MASS SPECTRAL PEAKS>  (7056) 
39 14
40 6
41 14
42 7
43 21
44 5
45 3
53 8
54 7
55 99.99
56 18
57 14
58 4
67 8
68 3
69 8
70 13
71 31
72 9
73 6
81 5
83 5
85 4
97 4
99 6
109 24
110 5
111 5
126 8
127 9
143 4
155 12
198 0.1

$$$$

     RDKit          2D

 13 13  0  0  0  0  0  0  0  0999 V2000
   -2.5989    1.5002    0.0000 C   0  0  0  0  0  0  0  0  0  0  0  0
    2.5989    1.5002    0.0000 C   0  0  0  0  0  0  0  0  0  0  0  0
    3.8981   -0.7504    0.0000 C   0  0  0  0  0  0  0  0  0  0  0  0
   -1.3000    0.7500    0.0000 C   0  0  0  0  0  0  0  0  0  0  0  0
    1.3000    0.7500    0.0000 C   0  0  0  0  0  0  0  0  0  0  0  0
    0.0000    1.5000    0.0000 C   0  0  0  0  0  0  0  0  0  0  0  0
   -1.3000   -0.7500    0.0000 C   0  0  0  0  0  0  0  0  0  0  0  0
    0.0000   -1.5000    0.0000 C   0  0  0  0  0  0  0  0  0  0  0  0
    1.3000   -0.7500    0.0000 C   0  0  0  0  0  0  0  0  0  0  0  0
    0.0000    3.0000    0.0000 O   0  0  0  0  0  0  0  0  0  0  0  0
   -2.5989   -1.5002    0.0000 O   0  0  0  0  0  0  0  0  0  0  0  0
   -0.0000   -3.0000    0.0000 O   0  0  0  0  0  0  0  0  0  0  0  0
    2.5989   -1.5002    0.0000 O   0  0  0  0  0  0  0  0  0  0  0  0
  4  1  1  0
  5  2  1  0
  6  4  1  0
  6  5  1  0
  7  4  2  0
  8  7  1  0
  9  5  2  0
  9  8  1  0
 10  6  2  0
 11  7  1  0
 12  8  2  0
 13  3  1  0
 13  9  1  0
M  END
>  <NAME>  (7057) 
2-HYDROXY-6-METHOXY-3,5-DIMETHYL-1,4-BENZOQUINONE

>  <SYNONYMS>  (7057) 


>  <SPECTRUM TYPE>  (7057) 
MS1

>  <INSTRUMENT TYPE>  (7057) 
EI-B

>  <INSTRUMENT>  (7057) 
HITACHI RMU-6L

>  <ION MODE>  (7057) 
P

>  <INCHIKEY>  (7057) 
BUFFKORPJSMABA-UHFFFAOYSA-N

>  <FORMULA>  (7057) 
C9H10O4

>  <EXACT MASS>  (7057) 
182.0579088

>  <MW>  (7057) 
182

>  <ID>  (7057) 
JP000734

>  <CONTRIBUTOR>  (7057) 
University of Tokyo Team, {Faculty of Engineering, University of Tokyo

>  <COMMENT>  (7057) 
SMILES=COc(c(C)1)c(=O)c(O)c(C)c(=O)1
InChI=InChI=1S/C9H10O4/c1-4-6(10)5(2)9(13-3)8(12)7(4)11/h11H,1-3H3
computed SMILES=O=C1C(O)=C(C(=O)C(=C1OC)C)C
accession=JP000734
date=2016.01.19 (Created 2008.10.21, modified 2011.05.06)
author=NAKAYAMA M, MASS SPECTROSCOPY SOC. OF JAPAN (MSSJ)
license=CC BY-NC-SA
exact mass=182.05791
ionization energy=70 eV
ion type=[M]+*
computed spectral entropy=3.644386413199558
computed normalized entropy=0.8203179144155047
SPLASH=splash10-0540-9400000000-3c71d5f304d961b54ec3
submitter=submitter = University of Tokyo Team (Faculty of Engineering, University of Tokyo)
MoNA Rating=3.75

>  <NUM PEAKS>  (7057) 
85

>  <MASS SPECTRAL PEAKS>  (7057) 
37 5
38 12
39 47
40 7
41 16
42 3
43 25
44 1
45 2
49 1
50 6
51 9
52 6
53 24
54 14
55 66
56 18
57 2
59 1
61 1
62 2
63 5
64 2
65 18
66 15
67 28
68 6
69 9
70 3
71 3
77 6
78 10
79 7
80 6
81 6
82 6
83 99.99
84 8
85 4
90 1
91 2
92 1
93 6
94 6
95 10
96 10
97 6
98 1
99 4
105 1
106 3
107 5
108 6
109 4
110 1
111 69
112 6
121 1
122 2
123 3
124 4
125 4
126 2
127 1
135 2
136 8
137 2
138 1
139 65
140 7
141 1
151 1
152 3
153 5
154 13
155 1
163 1
164 3
165 2
167 7
168 1
181 3
182 44
183 10
184 1

$$$$

     RDKit          2D

 25 24  0  0  0  0  0  0  0  0999 V2000
  -19.9611   11.7255    0.0000 C   0  0  0  0  0  0  0  0  0  0  0  0
  -17.3630   13.2255    0.0000 C   0  0  0  0  0  0  0  0  0  0  0  0
    3.9707    9.6764    0.0000 C   0  0  0  0  0  0  0  0  0  0  0  0
    6.0197   10.2255    0.0000 C   0  0  0  0  0  0  0  0  0  0  0  0
    5.4707   12.2745    0.0000 C   0  0  0  0  0  0  0  0  0  0  0  0
  -18.6620   10.9755    0.0000 C   0  0  0  0  0  0  0  0  0  0  0  0
   -8.2697   10.9755    0.0000 C   0  0  0  0  0  0  0  0  0  0  0  0
   -6.9707   11.7255    0.0000 C   0  0  0  0  0  0  0  0  0  0  0  0
   -9.5687   11.7255    0.0000 C   0  0  0  0  0  0  0  0  0  0  0  0
   -5.6716   10.9755    0.0000 C   0  0  0  0  0  0  0  0  0  0  0  0
  -10.8678   10.9755    0.0000 C   0  0  0  0  0  0  0  0  0  0  0  0
   -4.3726   11.7255    0.0000 C   0  0  0  0  0  0  0  0  0  0  0  0
  -12.1668   11.7255    0.0000 C   0  0  0  0  0  0  0  0  0  0  0  0
   -3.0736   10.9755    0.0000 C   0  0  0  0  0  0  0  0  0  0  0  0
  -13.4659   10.9755    0.0000 C   0  0  0  0  0  0  0  0  0  0  0  0
   -1.7745   11.7255    0.0000 C   0  0  0  0  0  0  0  0  0  0  0  0
  -14.7649   11.7255    0.0000 C   0  0  0  0  0  0  0  0  0  0  0  0
   -0.4755   10.9755    0.0000 C   0  0  0  0  0  0  0  0  0  0  0  0
  -16.0639   10.9755    0.0000 C   0  0  0  0  0  0  0  0  0  0  0  0
    0.8236   11.7255    0.0000 C   0  0  0  0  0  0  0  0  0  0  0  0
  -17.3630   11.7255    0.0000 C   0  0  0  0  0  0  0  0  0  0  0  0
    2.1226   10.9755    0.0000 C   0  0  0  0  0  0  0  0  0  0  0  0
    2.1226    9.4755    0.0000 O   0  0  0  0  0  0  0  0  0  0  0  0
    3.4216   11.7255    0.0000 O   0  0  0  0  0  0  0  0  0  0  0  0
    4.7207   10.9755    0.0000 Si  0  0  0  0  0  4  0  0  0  0  0  0
  6  1  1  0
  8  7  1  0
  9  7  1  0
 10  8  1  0
 11  9  1  0
 12 10  1  0
 13 11  1  0
 14 12  1  0
 15 13  1  0
 16 14  1  0
 17 15  1  0
 18 16  1  0
 19 17  1  0
 20 18  1  0
 21  2  1  0
 21  6  1  0
 21 19  1  0
 22 20  1  0
 23 22  2  0
 24 22  1  0
 25  3  1  0
 25  4  1  0
 25  5  1  0
 25 24  1  0
M  END
>  <NAME>  (7058) 
16-METHYLOCTADECANOIC ACID TRIMETHYLSILYLESTER

>  <SYNONYMS>  (7058) 


>  <SPECTRUM TYPE>  (7058) 
MS1

>  <INSTRUMENT TYPE>  (7058) 
EI-B

>  <INSTRUMENT>  (7058) 
JEOL JMS-01-SG

>  <ION MODE>  (7058) 
P

>  <INCHIKEY>  (7058) 
HNKZWPWPYTXLNR-UHFFFAOYSA-N

>  <FORMULA>  (7058) 
C22H46O2Si

>  <EXACT MASS>  (7058) 
370.326707242

>  <MW>  (7058) 
370

>  <ID>  (7058) 
JP000619

>  <CONTRIBUTOR>  (7058) 
University of Tokyo Team, {Faculty of Engineering, University of Tokyo

>  <COMMENT>  (7058) 
SMILES=CCC(C)CCCCCCCCCCCCCCC(=O)O[Si](C)(C)C
InChI=InChI=1S/C22H46O2Si/c1-6-21(2)19-17-15-13-11-9-7-8-10-12-14-16-18-20-22(23)24-25(3,4)5/h21H,6-20H2,1-5H3
computed SMILES=O=C(O[Si](C)(C)C)CCCCCCCCCCCCCCC(C)CC
accession=JP000619
date=2016.01.19 (Created 2008.10.21, modified 2011.05.06)
author=KOGA M, UNIV. OF OCCUPATIONAL AND ENVIRONMENTAL HEALTH
license=CC BY-NC-SA
exact mass=370.32671
ionization energy=70 eV
ion type=[M]+*
computed spectral entropy=2.6435481341319624
computed normalized entropy=0.8212644034630334
SPLASH=splash10-01e9-7900000000-9b779faac6d78a75c86a
submitter=submitter = University of Tokyo Team (Faculty of Engineering, University of Tokyo)
MoNA Rating=3.75

>  <NUM PEAKS>  (7058) 
25

>  <MASS SPECTRAL PEAKS>  (7058) 
43 18
55 19.2
57 13
69 1.2
73 64.1
75 45
76 6
81 0.64
83 8.9
95 6.8
97 8.2
98 0.87
117 99.99
118 13.2
129 37.7
130 0.64
131 14.5
132 49.1
133 9.5
145 3.79
146 7.8
201 15.9
355 12.6
370 6.09
371 4.9

$$$$

     RDKit          2D

 25 24  0  0  0  0  0  0  0  0999 V2000
  -19.9611   11.7255    0.0000 C   0  0  0  0  0  0  0  0  0  0  0  0
  -17.3630   13.2255    0.0000 C   0  0  0  0  0  0  0  0  0  0  0  0
    3.9707    9.6764    0.0000 C   0  0  0  0  0  0  0  0  0  0  0  0
    6.0197   10.2255    0.0000 C   0  0  0  0  0  0  0  0  0  0  0  0
    5.4707   12.2745    0.0000 C   0  0  0  0  0  0  0  0  0  0  0  0
  -18.6620   10.9755    0.0000 C   0  0  0  0  0  0  0  0  0  0  0  0
   -8.2697   10.9755    0.0000 C   0  0  0  0  0  0  0  0  0  0  0  0
   -6.9707   11.7255    0.0000 C   0  0  0  0  0  0  0  0  0  0  0  0
   -9.5687   11.7255    0.0000 C   0  0  0  0  0  0  0  0  0  0  0  0
   -5.6716   10.9755    0.0000 C   0  0  0  0  0  0  0  0  0  0  0  0
  -10.8678   10.9755    0.0000 C   0  0  0  0  0  0  0  0  0  0  0  0
   -4.3726   11.7255    0.0000 C   0  0  0  0  0  0  0  0  0  0  0  0
  -12.1668   11.7255    0.0000 C   0  0  0  0  0  0  0  0  0  0  0  0
   -3.0736   10.9755    0.0000 C   0  0  0  0  0  0  0  0  0  0  0  0
  -13.4659   10.9755    0.0000 C   0  0  0  0  0  0  0  0  0  0  0  0
   -1.7745   11.7255    0.0000 C   0  0  0  0  0  0  0  0  0  0  0  0
  -14.7649   11.7255    0.0000 C   0  0  0  0  0  0  0  0  0  0  0  0
   -0.4755   10.9755    0.0000 C   0  0  0  0  0  0  0  0  0  0  0  0
  -16.0639   10.9755    0.0000 C   0  0  0  0  0  0  0  0  0  0  0  0
    0.8236   11.7255    0.0000 C   0  0  0  0  0  0  0  0  0  0  0  0
  -17.3630   11.7255    0.0000 C   0  0  0  0  0  0  0  0  0  0  0  0
    2.1226   10.9755    0.0000 C   0  0  0  0  0  0  0  0  0  0  0  0
    2.1226    9.4755    0.0000 O   0  0  0  0  0  0  0  0  0  0  0  0
    3.4216   11.7255    0.0000 O   0  0  0  0  0  0  0  0  0  0  0  0
    4.7207   10.9755    0.0000 Si  0  0  0  0  0  4  0  0  0  0  0  0
  6  1  1  0
  8  7  1  0
  9  7  1  0
 10  8  1  0
 11  9  1  0
 12 10  1  0
 13 11  1  0
 14 12  1  0
 15 13  1  0
 16 14  1  0
 17 15  1  0
 18 16  1  0
 19 17  1  0
 20 18  1  0
 21  2  1  0
 21  6  1  0
 21 19  1  0
 22 20  1  0
 23 22  2  0
 24 22  1  0
 25  3  1  0
 25  4  1  0
 25  5  1  0
 25 24  1  0
M  END
>  <NAME>  (7059) 
16-METHYLOCTADECANOIC ACID TRIMETHYLSILYLESTER

>  <SYNONYMS>  (7059) 


>  <SPECTRUM TYPE>  (7059) 
MS1

>  <INSTRUMENT TYPE>  (7059) 
EI-B

>  <INSTRUMENT>  (7059) 
JEOL JMS-01-SG

>  <ION MODE>  (7059) 
P

>  <INCHIKEY>  (7059) 
HNKZWPWPYTXLNR-UHFFFAOYSA-N

>  <FORMULA>  (7059) 
C22H46O2Si

>  <EXACT MASS>  (7059) 
370.326707242

>  <MW>  (7059) 
370

>  <ID>  (7059) 
JP000618

>  <CONTRIBUTOR>  (7059) 
University of Tokyo Team, {Faculty of Engineering, University of Tokyo

>  <COMMENT>  (7059) 
SMILES=CCC(C)CCCCCCCCCCCCCCC(=O)O[Si](C)(C)C
InChI=InChI=1S/C22H46O2Si/c1-6-21(2)19-17-15-13-11-9-7-8-10-12-14-16-18-20-22(23)24-25(3,4)5/h21H,6-20H2,1-5H3
computed SMILES=O=C(O[Si](C)(C)C)CCCCCCCCCCCCCCC(C)CC
accession=JP000618
date=2016.01.19 (Created 2008.10.21, modified 2011.05.06)
author=KOGA M, UNIV. OF OCCUPATIONAL AND ENVIRONMENTAL HEALTH
license=CC BY-NC-SA
exact mass=370.32671
ionization energy=70 eV
ion type=[M]+*
computed spectral entropy=2.6435481341319624
computed normalized entropy=0.8212644034630334
SPLASH=splash10-01e9-7900000000-9b779faac6d78a75c86a
submitter=submitter = University of Tokyo Team (Faculty of Engineering, University of Tokyo)
MoNA Rating=3.75

>  <NUM PEAKS>  (7059) 
25

>  <MASS SPECTRAL PEAKS>  (7059) 
43 18
55 19.2
57 13
69 1.2
73 64.1
75 45
76 6
81 0.64
83 8.9
95 6.8
97 8.2
98 0.87
117 99.99
118 13.2
129 37.7
130 0.64
131 14.5
132 49.1
133 9.5
145 3.79
146 7.8
201 15.9
355 12.6
370 6.09
371 4.9

$$$$

     RDKit          2D

 24 23  0  0  0  0  0  0  0  0999 V2000
    6.0834   11.0123    0.0000 C   0  0  0  0  0  0  0  0  0  0  0  0
    3.4853    9.5123    0.0000 C   0  0  0  0  0  0  0  0  0  0  0  0
  -18.0493   12.3113    0.0000 C   0  0  0  0  0  0  0  0  0  0  0  0
  -18.5983   10.2623    0.0000 C   0  0  0  0  0  0  0  0  0  0  0  0
  -16.5493    9.7132    0.0000 C   0  0  0  0  0  0  0  0  0  0  0  0
    4.7844   11.7623    0.0000 C   0  0  0  0  0  0  0  0  0  0  0  0
   -5.6079   11.7623    0.0000 C   0  0  0  0  0  0  0  0  0  0  0  0
   -4.3089   11.0123    0.0000 C   0  0  0  0  0  0  0  0  0  0  0  0
   -6.9070   11.0123    0.0000 C   0  0  0  0  0  0  0  0  0  0  0  0
   -3.0099   11.7623    0.0000 C   0  0  0  0  0  0  0  0  0  0  0  0
   -8.2060   11.7623    0.0000 C   0  0  0  0  0  0  0  0  0  0  0  0
   -1.7108   11.0123    0.0000 C   0  0  0  0  0  0  0  0  0  0  0  0
   -9.5050   11.0123    0.0000 C   0  0  0  0  0  0  0  0  0  0  0  0
   -0.4118   11.7623    0.0000 C   0  0  0  0  0  0  0  0  0  0  0  0
  -10.8041   11.7623    0.0000 C   0  0  0  0  0  0  0  0  0  0  0  0
    0.8873   11.0123    0.0000 C   0  0  0  0  0  0  0  0  0  0  0  0
  -12.1031   11.0123    0.0000 C   0  0  0  0  0  0  0  0  0  0  0  0
    2.1863   11.7623    0.0000 C   0  0  0  0  0  0  0  0  0  0  0  0
  -13.4022   11.7623    0.0000 C   0  0  0  0  0  0  0  0  0  0  0  0
    3.4853   11.0123    0.0000 C   0  0  0  0  0  0  0  0  0  0  0  0
  -14.7012   11.0123    0.0000 C   0  0  0  0  0  0  0  0  0  0  0  0
  -14.7012    9.5123    0.0000 O   0  0  0  0  0  0  0  0  0  0  0  0
  -16.0002   11.7623    0.0000 O   0  0  0  0  0  0  0  0  0  0  0  0
  -17.2993   11.0123    0.0000 Si  0  0  0  0  0  4  0  0  0  0  0  0
  6  1  1  0
  8  7  1  0
  9  7  1  0
 10  8  1  0
 11  9  1  0
 12 10  1  0
 13 11  1  0
 14 12  1  0
 15 13  1  0
 16 14  1  0
 17 15  1  0
 18 16  1  0
 19 17  1  0
 20  2  1  0
 20  6  1  0
 20 18  1  0
 21 19  1  0
 22 21  2  0
 23 21  1  0
 24  3  1  0
 24  4  1  0
 24  5  1  0
 24 23  1  0
M  END
>  <NAME>  (7060) 
15-METHYLHEPTADECANOIC ACID TRIMETHYLSILYLESTER

>  <SYNONYMS>  (7060) 


>  <SPECTRUM TYPE>  (7060) 
MS1

>  <INSTRUMENT TYPE>  (7060) 
EI-B

>  <INSTRUMENT>  (7060) 
JEOL JMS-01-SG

>  <ION MODE>  (7060) 
P

>  <INCHIKEY>  (7060) 
YEGUXTXZHGLIGR-UHFFFAOYSA-N

>  <FORMULA>  (7060) 
C21H44O2Si

>  <EXACT MASS>  (7060) 
356.311057178

>  <MW>  (7060) 
356

>  <ID>  (7060) 
JP000617

>  <CONTRIBUTOR>  (7060) 
University of Tokyo Team, {Faculty of Engineering, University of Tokyo

>  <COMMENT>  (7060) 
SMILES=CCC(C)CCCCCCCCCCCCCC(=O)O[Si](C)(C)C
InChI=InChI=1S/C21H44O2Si/c1-6-20(2)18-16-14-12-10-8-7-9-11-13-15-17-19-21(22)23-24(3,4)5/h20H,6-19H2,1-5H3
computed SMILES=O=C(O[Si](C)(C)C)CCCCCCCCCCCCCC(C)CC
ion type=[M]+*
accession=JP000617
date=2016.01.19 (Created 2008.10.21, modified 2011.05.06)
author=KOGA M, UNIV. OF OCCUPATIONAL AND ENVIRONMENTAL HEALTH
license=CC BY-NC-SA
exact mass=356.31106
ionization energy=70 eV
computed spectral entropy=2.8329945096485125
computed normalized entropy=0.8329403418110466
SPLASH=splash10-0629-9501000000-8a8f37108b30e10f1566
submitter=submitter = University of Tokyo Team (Faculty of Engineering, University of Tokyo)
MoNA Rating=3.75

>  <NUM PEAKS>  (7060) 
30

>  <MASS SPECTRAL PEAKS>  (7060) 
43 36.1
47 9.7
55 24.3
57 1.34
59 9.3
61 8.5
69 12.1
70 0.89
73 99.99
74 9.7
75 52.8
76 0.93
81 7.7
84 9.3
87 8.9
97 1.05
98 9.7
105 7.3
109 9.7
111 0.93
117 68.6
118 12.6
129 25.2
131 1.21
132 37.8
145 24.3
201 12.1
281 0.81
283 9.3
356 42.2

$$$$

     RDKit          2D

 23 22  0  0  0  0  0  0  0  0999 V2000
  -18.0125   10.6005    0.0000 C   0  0  0  0  0  0  0  0  0  0  0  0
  -15.4144   12.1005    0.0000 C   0  0  0  0  0  0  0  0  0  0  0  0
    3.3212    8.5514    0.0000 C   0  0  0  0  0  0  0  0  0  0  0  0
    5.3702    9.1005    0.0000 C   0  0  0  0  0  0  0  0  0  0  0  0
    4.8212   11.1495    0.0000 C   0  0  0  0  0  0  0  0  0  0  0  0
  -16.7135    9.8505    0.0000 C   0  0  0  0  0  0  0  0  0  0  0  0
   -7.6202   10.6005    0.0000 C   0  0  0  0  0  0  0  0  0  0  0  0
   -6.3212    9.8505    0.0000 C   0  0  0  0  0  0  0  0  0  0  0  0
   -8.9192    9.8505    0.0000 C   0  0  0  0  0  0  0  0  0  0  0  0
   -5.0221   10.6005    0.0000 C   0  0  0  0  0  0  0  0  0  0  0  0
  -10.2183   10.6005    0.0000 C   0  0  0  0  0  0  0  0  0  0  0  0
   -3.7231    9.8505    0.0000 C   0  0  0  0  0  0  0  0  0  0  0  0
  -11.5173    9.8505    0.0000 C   0  0  0  0  0  0  0  0  0  0  0  0
   -2.4240   10.6005    0.0000 C   0  0  0  0  0  0  0  0  0  0  0  0
  -12.8163   10.6005    0.0000 C   0  0  0  0  0  0  0  0  0  0  0  0
   -1.1250    9.8505    0.0000 C   0  0  0  0  0  0  0  0  0  0  0  0
  -14.1154    9.8505    0.0000 C   0  0  0  0  0  0  0  0  0  0  0  0
    0.1740   10.6005    0.0000 C   0  0  0  0  0  0  0  0  0  0  0  0
  -15.4144   10.6005    0.0000 C   0  0  0  0  0  0  0  0  0  0  0  0
    1.4731    9.8505    0.0000 C   0  0  0  0  0  0  0  0  0  0  0  0
    1.4731    8.3505    0.0000 O   0  0  0  0  0  0  0  0  0  0  0  0
    2.7721   10.6005    0.0000 O   0  0  0  0  0  0  0  0  0  0  0  0
    4.0712    9.8505    0.0000 Si  0  0  0  0  0  4  0  0  0  0  0  0
  6  1  1  0
  8  7  1  0
  9  7  1  0
 10  8  1  0
 11  9  1  0
 12 10  1  0
 13 11  1  0
 14 12  1  0
 15 13  1  0
 16 14  1  0
 17 15  1  0
 18 16  1  0
 19  2  1  0
 19  6  1  0
 19 17  1  0
 20 18  1  0
 21 20  2  0
 22 20  1  0
 23  3  1  0
 23  4  1  0
 23  5  1  0
 23 22  1  0
M  END
>  <NAME>  (7061) 
14-METHYLHEXADECANOIC ACID TRIMETHYLSILYLESTER

>  <SYNONYMS>  (7061) 


>  <SPECTRUM TYPE>  (7061) 
MS1

>  <INSTRUMENT TYPE>  (7061) 
EI-B

>  <INSTRUMENT>  (7061) 
JEOL JMS-01-SG

>  <ION MODE>  (7061) 
P

>  <INCHIKEY>  (7061) 
GBSVQRPDHICZLY-UHFFFAOYSA-N

>  <FORMULA>  (7061) 
C20H42O2Si

>  <EXACT MASS>  (7061) 
342.295407114

>  <MW>  (7061) 
342

>  <ID>  (7061) 
JP000616

>  <CONTRIBUTOR>  (7061) 
University of Tokyo Team, {Faculty of Engineering, University of Tokyo

>  <COMMENT>  (7061) 
SMILES=CCC(C)CCCCCCCCCCCCC(=O)O[Si](C)(C)C
InChI=InChI=1S/C20H42O2Si/c1-6-19(2)17-15-13-11-9-7-8-10-12-14-16-18-20(21)22-23(3,4)5/h19H,6-18H2,1-5H3
computed SMILES=O=C(O[Si](C)(C)C)CCCCCCCCCCCCC(C)CC
accession=JP000616
date=2016.01.19 (Created 2008.10.21, modified 2011.05.06)
author=KOGA M, UNIV. OF OCCUPATIONAL AND ENVIRONMENTAL HEALTH
license=CC BY-NC-SA
exact mass=342.29541
ionization energy=70 eV
ion type=[M]+*
computed spectral entropy=2.3242568692883308
computed normalized entropy=0.7893717226723846
SPLASH=splash10-00fr-9501000000-5a4acf891dd097d7d0c2
submitter=submitter = University of Tokyo Team (Faculty of Engineering, University of Tokyo)
MoNA Rating=3.75

>  <NUM PEAKS>  (7061) 
19

>  <MASS SPECTRAL PEAKS>  (7061) 
43 18.4
55 14.3
57 8.2
69 0.78
73 99.99
75 45.5
117 49.5
118 0.65
129 20.3
131 8.8
132 26
133 0.5
145 17.7
201 5.2
327 17.8
328 1.38
329 4.2
330 6
342 4.3

$$$$

     RDKit          2D

 21 20  0  0  0  0  0  0  0  0999 V2000
    5.4707    9.2745    0.0000 C   0  0  0  0  0  0  0  0  0  0  0  0
    2.8726    7.7745    0.0000 C   0  0  0  0  0  0  0  0  0  0  0  0
  -13.2649   11.3236    0.0000 C   0  0  0  0  0  0  0  0  0  0  0  0
  -15.3139   10.7745    0.0000 C   0  0  0  0  0  0  0  0  0  0  0  0
  -14.7649    8.7255    0.0000 C   0  0  0  0  0  0  0  0  0  0  0  0
    4.1716   10.0245    0.0000 C   0  0  0  0  0  0  0  0  0  0  0  0
   -3.6226   10.0245    0.0000 C   0  0  0  0  0  0  0  0  0  0  0  0
   -4.9216    9.2745    0.0000 C   0  0  0  0  0  0  0  0  0  0  0  0
   -2.3236    9.2745    0.0000 C   0  0  0  0  0  0  0  0  0  0  0  0
   -6.2207   10.0245    0.0000 C   0  0  0  0  0  0  0  0  0  0  0  0
   -1.0245   10.0245    0.0000 C   0  0  0  0  0  0  0  0  0  0  0  0
   -7.5197    9.2745    0.0000 C   0  0  0  0  0  0  0  0  0  0  0  0
    0.2745    9.2745    0.0000 C   0  0  0  0  0  0  0  0  0  0  0  0
   -8.8187   10.0245    0.0000 C   0  0  0  0  0  0  0  0  0  0  0  0
    1.5736   10.0245    0.0000 C   0  0  0  0  0  0  0  0  0  0  0  0
  -10.1178    9.2745    0.0000 C   0  0  0  0  0  0  0  0  0  0  0  0
    2.8726    9.2745    0.0000 C   0  0  0  0  0  0  0  0  0  0  0  0
  -11.4168   10.0245    0.0000 C   0  0  0  0  0  0  0  0  0  0  0  0
  -11.4168   11.5245    0.0000 O   0  0  0  0  0  0  0  0  0  0  0  0
  -12.7159    9.2745    0.0000 O   0  0  0  0  0  0  0  0  0  0  0  0
  -14.0149   10.0245    0.0000 Si  0  0  0  0  0  4  0  0  0  0  0  0
  6  1  1  0
  8  7  1  0
  9  7  1  0
 10  8  1  0
 11  9  1  0
 12 10  1  0
 13 11  1  0
 14 12  1  0
 15 13  1  0
 16 14  1  0
 17  2  1  0
 17  6  1  0
 17 15  1  0
 18 16  1  0
 19 18  2  0
 20 18  1  0
 21  3  1  0
 21  4  1  0
 21  5  1  0
 21 20  1  0
M  END
>  <NAME>  (7062) 
12-METHYLTETRADECANOIC ACID TRIMETHYLSILYLESTER

>  <SYNONYMS>  (7062) 


>  <SPECTRUM TYPE>  (7062) 
MS1

>  <INSTRUMENT TYPE>  (7062) 
EI-B

>  <INSTRUMENT>  (7062) 
JEOL JMS-01-SG

>  <ION MODE>  (7062) 
P

>  <INCHIKEY>  (7062) 
DAZJVRZDDOKGCP-UHFFFAOYSA-N

>  <FORMULA>  (7062) 
C18H38O2Si

>  <EXACT MASS>  (7062) 
314.264106986

>  <MW>  (7062) 
314

>  <ID>  (7062) 
JP000615

>  <CONTRIBUTOR>  (7062) 
University of Tokyo Team, {Faculty of Engineering, University of Tokyo

>  <COMMENT>  (7062) 
computed SMILES=O=C(O[Si](C)(C)C)CCCCCCCCCCC(C)CC
SMILES=CCC(C)CCCCCCCCCCC(=O)O[Si](C)(C)C
InChI=InChI=1S/C18H38O2Si/c1-6-17(2)15-13-11-9-7-8-10-12-14-16-18(19)20-21(3,4)5/h17H,6-16H2,1-5H3
date=2016.01.19 (Created 2008.10.21, modified 2011.05.06)
license=CC BY-NC-SA
ionization energy=70 eV
ion type=[M]+*
author=KOGA M, UNIV. OF OCCUPATIONAL AND ENVIRONMENTAL HEALTH
exact mass=314.26411
computed spectral entropy=2.593650374725736
computed normalized entropy=0.8161127888893477
accession=JP000615
SPLASH=splash10-00xr-9510000000-acf1ab9a0aefcf7b91f6
submitter=submitter = University of Tokyo Team (Faculty of Engineering, University of Tokyo)
MoNA Rating=3.75

>  <NUM PEAKS>  (7062) 
24

>  <MASS SPECTRAL PEAKS>  (7062) 
43 35.2
45 8.1
55 27.5
57 1.41
61 9.7
69 16.7
73 99.99
75 7.38
76 9.8
81 7.6
83 7.1
95 0.79
117 71.7
129 26.8
131 13.4
132 3.45
145 19.1
146 5
159 5.5
201 0.57
271 5.2
283 5.2
299 28.3
300 9.5

$$$$

     RDKit          2D

 20 19  0  0  0  0  0  0  0  0999 V2000
    4.7844    8.7623    0.0000 C   0  0  0  0  0  0  0  0  0  0  0  0
    2.1863    7.2623    0.0000 C   0  0  0  0  0  0  0  0  0  0  0  0
  -14.1522   10.0613    0.0000 C   0  0  0  0  0  0  0  0  0  0  0  0
  -14.7012    8.0123    0.0000 C   0  0  0  0  0  0  0  0  0  0  0  0
  -12.6522    7.4632    0.0000 C   0  0  0  0  0  0  0  0  0  0  0  0
    3.4853    9.5123    0.0000 C   0  0  0  0  0  0  0  0  0  0  0  0
   -4.3089    9.5123    0.0000 C   0  0  0  0  0  0  0  0  0  0  0  0
   -3.0099    8.7623    0.0000 C   0  0  0  0  0  0  0  0  0  0  0  0
   -5.6079    8.7623    0.0000 C   0  0  0  0  0  0  0  0  0  0  0  0
   -1.7108    9.5123    0.0000 C   0  0  0  0  0  0  0  0  0  0  0  0
   -6.9070    9.5123    0.0000 C   0  0  0  0  0  0  0  0  0  0  0  0
   -0.4118    8.7623    0.0000 C   0  0  0  0  0  0  0  0  0  0  0  0
   -8.2060    8.7623    0.0000 C   0  0  0  0  0  0  0  0  0  0  0  0
    0.8873    9.5123    0.0000 C   0  0  0  0  0  0  0  0  0  0  0  0
   -9.5050    9.5123    0.0000 C   0  0  0  0  0  0  0  0  0  0  0  0
    2.1863    8.7623    0.0000 C   0  0  0  0  0  0  0  0  0  0  0  0
  -10.8041    8.7623    0.0000 C   0  0  0  0  0  0  0  0  0  0  0  0
  -10.8041    7.2623    0.0000 O   0  0  0  0  0  0  0  0  0  0  0  0
  -12.1031    9.5123    0.0000 O   0  0  0  0  0  0  0  0  0  0  0  0
  -13.4022    8.7623    0.0000 Si  0  0  0  0  0  4  0  0  0  0  0  0
  6  1  1  0
  8  7  1  0
  9  7  1  0
 10  8  1  0
 11  9  1  0
 12 10  1  0
 13 11  1  0
 14 12  1  0
 15 13  1  0
 16  2  1  0
 16  6  1  0
 16 14  1  0
 17 15  1  0
 18 17  2  0
 19 17  1  0
 20  3  1  0
 20  4  1  0
 20  5  1  0
 20 19  1  0
M  END
>  <NAME>  (7063) 
11-METHYLTRIDECANOIC ACID TRIMETHYLSILYL ESTER

>  <SYNONYMS>  (7063) 


>  <SPECTRUM TYPE>  (7063) 
MS1

>  <INSTRUMENT TYPE>  (7063) 
EI-B

>  <INSTRUMENT>  (7063) 
JEOL JMS-01-SG

>  <ION MODE>  (7063) 
P

>  <INCHIKEY>  (7063) 
ISWALEPYECAUOV-UHFFFAOYSA-N

>  <FORMULA>  (7063) 
C17H36O2Si

>  <EXACT MASS>  (7063) 
300.248456922

>  <MW>  (7063) 
300

>  <ID>  (7063) 
JP000614

>  <CONTRIBUTOR>  (7063) 
University of Tokyo Team, {Faculty of Engineering, University of Tokyo

>  <COMMENT>  (7063) 
SMILES=CCC(C)CCCCCCCCCC(=O)O[Si](C)(C)C
InChI=InChI=1S/C17H36O2Si/c1-6-16(2)14-12-10-8-7-9-11-13-15-17(18)19-20(3,4)5/h16H,6-15H2,1-5H3
computed SMILES=O=C(O[Si](C)(C)C)CCCCCCCCCC(C)CC
accession=JP000614
date=2016.01.19 (Created 2008.10.21, modified 2011.05.06)
author=KOGA M, UNIV. OF OCCUPATIONAL AND ENVIRONMENTAL HEALTH
license=CC BY-NC-SA
exact mass=300.24846
ionization energy=70 eV
ion type=[M]+*
computed spectral entropy=2.11498427949601
computed normalized entropy=0.8014165724108572
SPLASH=splash10-00fr-9210000000-4246d524c225bb6c8082
submitter=submitter = University of Tokyo Team (Faculty of Engineering, University of Tokyo)
MoNA Rating=3.75

>  <NUM PEAKS>  (7063) 
14

>  <MASS SPECTRAL PEAKS>  (7063) 
43 24.1
55 19.7
57 8
69 1.27
73 99.99
74 7.8
75 68.7
117 6.37
129 23
131 11.1
132 24.3
145 1.49
285 24.3
286 5.4

$$$$

     RDKit          2D

 19 18  0  0  0  0  0  0  0  0999 V2000
  -14.1154    8.3505    0.0000 C   0  0  0  0  0  0  0  0  0  0  0  0
  -11.5173    9.8505    0.0000 C   0  0  0  0  0  0  0  0  0  0  0  0
    2.0221    6.3014    0.0000 C   0  0  0  0  0  0  0  0  0  0  0  0
    4.0712    6.8505    0.0000 C   0  0  0  0  0  0  0  0  0  0  0  0
    3.5221    8.8995    0.0000 C   0  0  0  0  0  0  0  0  0  0  0  0
  -12.8163    7.6005    0.0000 C   0  0  0  0  0  0  0  0  0  0  0  0
   -6.3212    8.3505    0.0000 C   0  0  0  0  0  0  0  0  0  0  0  0
   -5.0221    7.6005    0.0000 C   0  0  0  0  0  0  0  0  0  0  0  0
   -7.6202    7.6005    0.0000 C   0  0  0  0  0  0  0  0  0  0  0  0
   -3.7231    8.3505    0.0000 C   0  0  0  0  0  0  0  0  0  0  0  0
   -8.9192    8.3505    0.0000 C   0  0  0  0  0  0  0  0  0  0  0  0
   -2.4240    7.6005    0.0000 C   0  0  0  0  0  0  0  0  0  0  0  0
  -10.2183    7.6005    0.0000 C   0  0  0  0  0  0  0  0  0  0  0  0
   -1.1250    8.3505    0.0000 C   0  0  0  0  0  0  0  0  0  0  0  0
  -11.5173    8.3505    0.0000 C   0  0  0  0  0  0  0  0  0  0  0  0
    0.1740    7.6005    0.0000 C   0  0  0  0  0  0  0  0  0  0  0  0
    0.1740    6.1005    0.0000 O   0  0  0  0  0  0  0  0  0  0  0  0
    1.4731    8.3505    0.0000 O   0  0  0  0  0  0  0  0  0  0  0  0
    2.7721    7.6005    0.0000 Si  0  0  0  0  0  4  0  0  0  0  0  0
  6  1  1  0
  8  7  1  0
  9  7  1  0
 10  8  1  0
 11  9  1  0
 12 10  1  0
 13 11  1  0
 14 12  1  0
 15  2  1  0
 15  6  1  0
 15 13  1  0
 16 14  1  0
 17 16  2  0
 18 16  1  0
 19  3  1  0
 19  4  1  0
 19  5  1  0
 19 18  1  0
M  END
>  <NAME>  (7064) 
10-METHYLDODECANOIC ACID TRIMETHYLSILYL ESTER

>  <SYNONYMS>  (7064) 


>  <SPECTRUM TYPE>  (7064) 
MS1

>  <INSTRUMENT TYPE>  (7064) 
EI-B

>  <INSTRUMENT>  (7064) 
JEOL JMS-01-SG

>  <ION MODE>  (7064) 
P

>  <INCHIKEY>  (7064) 
IHHDEEVODWBADL-UHFFFAOYSA-N

>  <FORMULA>  (7064) 
C16H34O2Si

>  <EXACT MASS>  (7064) 
286.232806858

>  <MW>  (7064) 
286

>  <ID>  (7064) 
JP000613

>  <CONTRIBUTOR>  (7064) 
University of Tokyo Team, {Faculty of Engineering, University of Tokyo

>  <COMMENT>  (7064) 
SMILES=CCC(C)CCCCCCCCC(=O)O[Si](C)(C)C
InChI=InChI=1S/C16H34O2Si/c1-6-15(2)13-11-9-7-8-10-12-14-16(17)18-19(3,4)5/h15H,6-14H2,1-5H3
computed SMILES=O=C(O[Si](C)(C)C)CCCCCCCCC(C)CC
accession=JP000613
date=2016.01.19 (Created 2008.10.21, modified 2011.05.06)
author=KOGA M, UNIV. OF OCCUPATIONAL AND ENVIRONMENTAL HEALTH
license=CC BY-NC-SA
exact mass=286.23281
ionization energy=70 eV
ion type=[M]+*
computed spectral entropy=2.302792218993437
computed normalized entropy=0.8305567286348808
SPLASH=splash10-00xr-9610000000-56f9136d7f2cc8a12825
submitter=submitter = University of Tokyo Team (Faculty of Engineering, University of Tokyo)
MoNA Rating=3.75

>  <NUM PEAKS>  (7064) 
16

>  <MASS SPECTRAL PEAKS>  (7064) 
43 27.6
45 11.3
55 24.2
57 0.98
69 13.5
73 99.99
74 10.2
75 8.11
95 7.7
117 72.6
129 24.2
131 1.35
132 27.8
145 14.4
271 22.6
272 6.6

$$$$

     RDKit          2D

 18 17  0  0  0  0  0  0  0  0999 V2000
    4.1349    7.6373    0.0000 C   0  0  0  0  0  0  0  0  0  0  0  0
    1.5368    6.1373    0.0000 C   0  0  0  0  0  0  0  0  0  0  0  0
  -12.2036    8.9363    0.0000 C   0  0  0  0  0  0  0  0  0  0  0  0
  -12.7526    6.8873    0.0000 C   0  0  0  0  0  0  0  0  0  0  0  0
  -10.7036    6.3382    0.0000 C   0  0  0  0  0  0  0  0  0  0  0  0
    2.8358    8.3873    0.0000 C   0  0  0  0  0  0  0  0  0  0  0  0
   -3.6594    7.6373    0.0000 C   0  0  0  0  0  0  0  0  0  0  0  0
   -2.3603    8.3873    0.0000 C   0  0  0  0  0  0  0  0  0  0  0  0
   -4.9584    8.3873    0.0000 C   0  0  0  0  0  0  0  0  0  0  0  0
   -1.0613    7.6373    0.0000 C   0  0  0  0  0  0  0  0  0  0  0  0
   -6.2575    7.6373    0.0000 C   0  0  0  0  0  0  0  0  0  0  0  0
    0.2377    8.3873    0.0000 C   0  0  0  0  0  0  0  0  0  0  0  0
   -7.5565    8.3873    0.0000 C   0  0  0  0  0  0  0  0  0  0  0  0
    1.5368    7.6373    0.0000 C   0  0  0  0  0  0  0  0  0  0  0  0
   -8.8555    7.6373    0.0000 C   0  0  0  0  0  0  0  0  0  0  0  0
   -8.8555    6.1373    0.0000 O   0  0  0  0  0  0  0  0  0  0  0  0
  -10.1546    8.3873    0.0000 O   0  0  0  0  0  0  0  0  0  0  0  0
  -11.4536    7.6373    0.0000 Si  0  0  0  0  0  4  0  0  0  0  0  0
  6  1  1  0
  8  7  1  0
  9  7  1  0
 10  8  1  0
 11  9  1  0
 12 10  1  0
 13 11  1  0
 14  2  1  0
 14  6  1  0
 14 12  1  0
 15 13  1  0
 16 15  2  0
 17 15  1  0
 18  3  1  0
 18  4  1  0
 18  5  1  0
 18 17  1  0
M  END
>  <NAME>  (7065) 
9-METHYLUNDECANOIC ACID TRIMETHYLSILYL ESTER

>  <SYNONYMS>  (7065) 


>  <SPECTRUM TYPE>  (7065) 
MS1

>  <INSTRUMENT TYPE>  (7065) 
EI-B

>  <INSTRUMENT>  (7065) 
JEOL JMS-01-SG

>  <ION MODE>  (7065) 
P

>  <INCHIKEY>  (7065) 
QESOHYICRZEKLH-UHFFFAOYSA-N

>  <FORMULA>  (7065) 
C15H32O2Si

>  <EXACT MASS>  (7065) 
272.217156794

>  <MW>  (7065) 
272

>  <ID>  (7065) 
JP000612

>  <CONTRIBUTOR>  (7065) 
University of Tokyo Team, {Faculty of Engineering, University of Tokyo

>  <COMMENT>  (7065) 
SMILES=CCC(C)CCCCCCCC(=O)O[Si](C)(C)C
InChI=InChI=1S/C15H32O2Si/c1-6-14(2)12-10-8-7-9-11-13-15(16)17-18(3,4)5/h14H,6-13H2,1-5H3
computed SMILES=O=C(O[Si](C)(C)C)CCCCCCCC(C)CC
accession=JP000612
date=2016.01.19 (Created 2008.10.21, modified 2011.05.06)
author=KOGA M, UNIV. OF OCCUPATIONAL AND ENVIRONMENTAL HEALTH
license=CC BY-NC-SA
exact mass=272.21716
ionization energy=70 eV
ion type=[M]+*
computed spectral entropy=2.653243518533377
computed normalized entropy=0.8461962726814133
SPLASH=splash10-00b9-9110000000-bf8632d72a4f8085e822
submitter=submitter = University of Tokyo Team (Faculty of Engineering, University of Tokyo)
MoNA Rating=3.75

>  <NUM PEAKS>  (7065) 
23

>  <MASS SPECTRAL PEAKS>  (7065) 
43 30.2
45 14.5
47 17.8
55 2.75
56 13.5
61 12.4
67 13.5
69 1.67
73 99.99
75 83.2
76 11.8
77 1.13
81 12.4
95 12.9
97 11.8
117 6.27
118 11.8
119 11.3
129 23.7
131 2.59
145 19.4
257 29.1
258 11.3

$$$$

     RDKit          2D

 31 30  0  0  0  0  0  0  0  0999 V2000
    7.1447   13.1250    0.0000 C   0  0  0  0  0  0  0  0  0  0  0  0
  -18.2870   12.1740    0.0000 C   0  0  0  0  0  0  0  0  0  0  0  0
  -18.8361   10.1250    0.0000 C   0  0  0  0  0  0  0  0  0  0  0  0
  -16.7870    9.5760    0.0000 C   0  0  0  0  0  0  0  0  0  0  0  0
  -19.3851   15.1740    0.0000 C   0  0  0  0  0  0  0  0  0  0  0  0
  -21.4341   14.6250    0.0000 C   0  0  0  0  0  0  0  0  0  0  0  0
  -20.8851   12.5760    0.0000 C   0  0  0  0  0  0  0  0  0  0  0  0
    5.8457   13.8750    0.0000 C   0  0  0  0  0  0  0  0  0  0  0  0
    4.5466   13.1250    0.0000 C   0  0  0  0  0  0  0  0  0  0  0  0
    3.2476   13.8750    0.0000 C   0  0  0  0  0  0  0  0  0  0  0  0
    1.9486   13.1250    0.0000 C   0  0  0  0  0  0  0  0  0  0  0  0
    0.6495   13.8750    0.0000 C   0  0  0  0  0  0  0  0  0  0  0  0
   -0.6495   13.1250    0.0000 C   0  0  0  0  0  0  0  0  0  0  0  0
   -1.9486   13.8750    0.0000 C   0  0  0  0  0  0  0  0  0  0  0  0
   -3.2476   13.1250    0.0000 C   0  0  0  0  0  0  0  0  0  0  0  0
   -4.5466   13.8750    0.0000 C   0  0  0  0  0  0  0  0  0  0  0  0
   -5.8457   13.1250    0.0000 C   0  0  0  0  0  0  0  0  0  0  0  0
   -7.1447   13.8750    0.0000 C   0  0  0  0  0  0  0  0  0  0  0  0
   -8.4437   13.1250    0.0000 C   0  0  0  0  0  0  0  0  0  0  0  0
   -9.7428   13.8750    0.0000 C   0  0  0  0  0  0  0  0  0  0  0  0
  -11.0418   13.1250    0.0000 C   0  0  0  0  0  0  0  0  0  0  0  0
  -12.3409   13.8750    0.0000 C   0  0  0  0  0  0  0  0  0  0  0  0
  -13.6399   13.1250    0.0000 C   0  0  0  0  0  0  0  0  0  0  0  0
  -14.9389   13.8750    0.0000 C   0  0  0  0  0  0  0  0  0  0  0  0
  -16.2380   13.1250    0.0000 C   0  0  0  0  0  0  0  0  0  0  0  0
  -17.5370   13.8750    0.0000 C   0  0  0  0  0  0  0  0  0  0  0  0
  -17.5370   15.3750    0.0000 O   0  0  0  0  0  0  0  0  0  0  0  0
  -16.2380   11.6250    0.0000 O   0  0  0  0  0  0  0  0  0  0  0  0
  -18.8361   13.1250    0.0000 O   0  0  0  0  0  0  0  0  0  0  0  0
  -17.5370   10.8750    0.0000 Si  0  0  0  0  0  4  0  0  0  0  0  0
  -20.1351   13.8750    0.0000 Si  0  0  0  0  0  4  0  0  0  0  0  0
  8  1  1  0
  9  8  1  0
 10  9  1  0
 11 10  1  0
 12 11  1  0
 13 12  1  0
 14 13  1  0
 15 14  1  0
 16 15  1  0
 17 16  1  0
 18 17  1  0
 19 18  1  0
 20 19  1  0
 21 20  1  0
 22 21  1  0
 23 22  1  0
 24 23  1  0
 25 24  1  0
 26 25  1  0
 27 26  2  0
 28 25  1  0
 29 26  1  0
 30  2  1  0
 30  3  1  0
 30  4  1  0
 30 28  1  0
 31  5  1  0
 31  6  1  0
 31  7  1  0
 31 29  1  0
M  END
>  <NAME>  (7066) 
2-(TRIMETHYLSILYL)OXY-EICOSANOIC ACID TRIMETHYLSILYL ESTER

>  <SYNONYMS>  (7066) 


>  <SPECTRUM TYPE>  (7066) 
MS1

>  <INSTRUMENT TYPE>  (7066) 
EI-B

>  <INSTRUMENT>  (7066) 
JEOL JMS-01-SG

>  <ION MODE>  (7066) 
P

>  <INCHIKEY>  (7066) 
UVWFZVLVNGBIJE-UHFFFAOYSA-N

>  <FORMULA>  (7066) 
C26H56O3Si2

>  <EXACT MASS>  (7066) 
472.376798712

>  <MW>  (7066) 
472

>  <ID>  (7066) 
JP000611

>  <CONTRIBUTOR>  (7066) 
University of Tokyo Team, {Faculty of Engineering, University of Tokyo

>  <COMMENT>  (7066) 
SMILES=C(CCCCCCCCCCCCCCCCCC)(O[Si](C)(C)C)C(=O)O[Si](C)(C)C
InChI=InChI=1S/C26H56O3Si2/c1-8-9-10-11-12-13-14-15-16-17-18-19-20-21-22-23-24-25(28-30(2,3)4)26(27)29-31(5,6)7/h25H,8-24H2,1-7H3
computed SMILES=O=C(O[Si](C)(C)C)C(O[Si](C)(C)C)CCCCCCCCCCCCCCCCCC
accession=JP000611
date=2016.01.19 (Created 2008.10.21, modified 2011.05.06)
author=KOGA M, UNIV. OF OCCUPATIONAL AND ENVIRONMENTAL HEALTH
license=CC BY-NC-SA
exact mass=472.3768
ionization energy=70 eV
ion type=[M]+*
computed spectral entropy=2.432707306238297
computed normalized entropy=0.812057648713799
SPLASH=splash10-0ab9-9304000000-1269595d14b0d3057219
submitter=submitter = University of Tokyo Team (Faculty of Engineering, University of Tokyo)
MoNA Rating=3.75

>  <NUM PEAKS>  (7066) 
20

>  <MASS SPECTRAL PEAKS>  (7066) 
43 11.2
57 25.1
69 14.2
71 1.29
73 99.99
75 19.9
83 19.4
97 1.86
99 10.8
103 15.1
111 10.3
117 1.6
129 14.7
147 38
148 10.8
221 1.25
355 90
356 12.9
430 13.4
457 5.1

$$$$

     RDKit          2D

 29 28  0  0  0  0  0  0  0  0999 V2000
    6.4952   12.0000    0.0000 C   0  0  0  0  0  0  0  0  0  0  0  0
  -16.3385   11.0490    0.0000 C   0  0  0  0  0  0  0  0  0  0  0  0
  -16.8875    9.0000    0.0000 C   0  0  0  0  0  0  0  0  0  0  0  0
  -14.8385    8.4510    0.0000 C   0  0  0  0  0  0  0  0  0  0  0  0
  -17.4365   14.0490    0.0000 C   0  0  0  0  0  0  0  0  0  0  0  0
  -19.4856   13.5000    0.0000 C   0  0  0  0  0  0  0  0  0  0  0  0
  -18.9365   11.4510    0.0000 C   0  0  0  0  0  0  0  0  0  0  0  0
    5.1962   12.7500    0.0000 C   0  0  0  0  0  0  0  0  0  0  0  0
    3.8971   12.0000    0.0000 C   0  0  0  0  0  0  0  0  0  0  0  0
    2.5981   12.7500    0.0000 C   0  0  0  0  0  0  0  0  0  0  0  0
    1.2990   12.0000    0.0000 C   0  0  0  0  0  0  0  0  0  0  0  0
    0.0000   12.7500    0.0000 C   0  0  0  0  0  0  0  0  0  0  0  0
   -1.2990   12.0000    0.0000 C   0  0  0  0  0  0  0  0  0  0  0  0
   -2.5981   12.7500    0.0000 C   0  0  0  0  0  0  0  0  0  0  0  0
   -3.8971   12.0000    0.0000 C   0  0  0  0  0  0  0  0  0  0  0  0
   -5.1962   12.7500    0.0000 C   0  0  0  0  0  0  0  0  0  0  0  0
   -6.4952   12.0000    0.0000 C   0  0  0  0  0  0  0  0  0  0  0  0
   -7.7942   12.7500    0.0000 C   0  0  0  0  0  0  0  0  0  0  0  0
   -9.0933   12.0000    0.0000 C   0  0  0  0  0  0  0  0  0  0  0  0
  -10.3923   12.7500    0.0000 C   0  0  0  0  0  0  0  0  0  0  0  0
  -11.6913   12.0000    0.0000 C   0  0  0  0  0  0  0  0  0  0  0  0
  -12.9904   12.7500    0.0000 C   0  0  0  0  0  0  0  0  0  0  0  0
  -14.2894   12.0000    0.0000 C   0  0  0  0  0  0  0  0  0  0  0  0
  -15.5885   12.7500    0.0000 C   0  0  0  0  0  0  0  0  0  0  0  0
  -15.5885   14.2500    0.0000 O   0  0  0  0  0  0  0  0  0  0  0  0
  -14.2894   10.5000    0.0000 O   0  0  0  0  0  0  0  0  0  0  0  0
  -16.8875   12.0000    0.0000 O   0  0  0  0  0  0  0  0  0  0  0  0
  -15.5885    9.7500    0.0000 Si  0  0  0  0  0  4  0  0  0  0  0  0
  -18.1865   12.7500    0.0000 Si  0  0  0  0  0  4  0  0  0  0  0  0
  8  1  1  0
  9  8  1  0
 10  9  1  0
 11 10  1  0
 12 11  1  0
 13 12  1  0
 14 13  1  0
 15 14  1  0
 16 15  1  0
 17 16  1  0
 18 17  1  0
 19 18  1  0
 20 19  1  0
 21 20  1  0
 22 21  1  0
 23 22  1  0
 24 23  1  0
 25 24  2  0
 26 23  1  0
 27 24  1  0
 28  2  1  0
 28  3  1  0
 28  4  1  0
 28 26  1  0
 29  5  1  0
 29  6  1  0
 29  7  1  0
 29 27  1  0
M  END
>  <NAME>  (7067) 
2-(TRIMETHYLSILYL)OXY-OCTADECANOIC ACID TRIMETHYLSILYL ESTER

>  <SYNONYMS>  (7067) 


>  <SPECTRUM TYPE>  (7067) 
MS1

>  <INSTRUMENT TYPE>  (7067) 
EI-B

>  <INSTRUMENT>  (7067) 
JEOL JMS-01-SG

>  <ION MODE>  (7067) 
P

>  <INCHIKEY>  (7067) 
ZCCYWXIRPWEWFM-UHFFFAOYSA-N

>  <FORMULA>  (7067) 
C24H52O3Si2

>  <EXACT MASS>  (7067) 
444.345498584

>  <MW>  (7067) 
444

>  <ID>  (7067) 
JP000610

>  <CONTRIBUTOR>  (7067) 
University of Tokyo Team, {Faculty of Engineering, University of Tokyo

>  <COMMENT>  (7067) 
SMILES=CCCCCCCCCCCCCCCCC(O[Si](C)(C)C)C(=O)O[Si](C)(C)C
InChI=InChI=1S/C24H52O3Si2/c1-8-9-10-11-12-13-14-15-16-17-18-19-20-21-22-23(26-28(2,3)4)24(25)27-29(5,6)7/h23H,8-22H2,1-7H3
computed SMILES=O=C(O[Si](C)(C)C)C(O[Si](C)(C)C)CCCCCCCCCCCCCCCC
accession=JP000610
license=CC BY-NC-SA
date=2016.01.19 (Created 2008.10.21, modified 2011.05.06)
author=KOGA M, UNIV. OF OCCUPATIONAL AND ENVIRONMENTAL HEALTH
exact mass=444.3455
ionization energy=70 eV
ion type=[M]+*
computed spectral entropy=2.8802812512216964
computed normalized entropy=0.8840380319027568
SPLASH=splash10-00dj-9300000000-9b8fcc392b18fed5e72c
submitter=submitter = University of Tokyo Team (Faculty of Engineering, University of Tokyo)
MoNA Rating=3.75

>  <NUM PEAKS>  (7067) 
26

>  <MASS SPECTRAL PEAKS>  (7067) 
43 20.9
45 13.8
55 26.8
57 4.18
67 11.4
69 29.6
71 20.1
73 99.99
74 13
75 31.6
81 10.2
83 4.18
85 13.8
91 15.4
97 39.1
103 3.95
111 16.6
117 13.4
125 11.8
129 1.77
131 10.2
147 51.3
148 11
327 6.16
328 18.5
429 2.7

$$$$

     RDKit          2D

 27 26  0  0  0  0  0  0  0  0999 V2000
    5.8457   10.8750    0.0000 C   0  0  0  0  0  0  0  0  0  0  0  0
  -14.3899    9.9240    0.0000 C   0  0  0  0  0  0  0  0  0  0  0  0
  -14.9389    7.8750    0.0000 C   0  0  0  0  0  0  0  0  0  0  0  0
  -12.8899    7.3260    0.0000 C   0  0  0  0  0  0  0  0  0  0  0  0
  -15.4880   12.9240    0.0000 C   0  0  0  0  0  0  0  0  0  0  0  0
  -17.5370   12.3750    0.0000 C   0  0  0  0  0  0  0  0  0  0  0  0
  -16.9880   10.3260    0.0000 C   0  0  0  0  0  0  0  0  0  0  0  0
    4.5466   11.6250    0.0000 C   0  0  0  0  0  0  0  0  0  0  0  0
    3.2476   10.8750    0.0000 C   0  0  0  0  0  0  0  0  0  0  0  0
    1.9486   11.6250    0.0000 C   0  0  0  0  0  0  0  0  0  0  0  0
    0.6495   10.8750    0.0000 C   0  0  0  0  0  0  0  0  0  0  0  0
   -0.6495   11.6250    0.0000 C   0  0  0  0  0  0  0  0  0  0  0  0
   -1.9486   10.8750    0.0000 C   0  0  0  0  0  0  0  0  0  0  0  0
   -3.2476   11.6250    0.0000 C   0  0  0  0  0  0  0  0  0  0  0  0
   -4.5466   10.8750    0.0000 C   0  0  0  0  0  0  0  0  0  0  0  0
   -5.8457   11.6250    0.0000 C   0  0  0  0  0  0  0  0  0  0  0  0
   -7.1447   10.8750    0.0000 C   0  0  0  0  0  0  0  0  0  0  0  0
   -8.4437   11.6250    0.0000 C   0  0  0  0  0  0  0  0  0  0  0  0
   -9.7428   10.8750    0.0000 C   0  0  0  0  0  0  0  0  0  0  0  0
  -11.0418   11.6250    0.0000 C   0  0  0  0  0  0  0  0  0  0  0  0
  -12.3409   10.8750    0.0000 C   0  0  0  0  0  0  0  0  0  0  0  0
  -13.6399   11.6250    0.0000 C   0  0  0  0  0  0  0  0  0  0  0  0
  -13.6399   13.1250    0.0000 O   0  0  0  0  0  0  0  0  0  0  0  0
  -12.3409    9.3750    0.0000 O   0  0  0  0  0  0  0  0  0  0  0  0
  -14.9389   10.8750    0.0000 O   0  0  0  0  0  0  0  0  0  0  0  0
  -13.6399    8.6250    0.0000 Si  0  0  0  0  0  4  0  0  0  0  0  0
  -16.2380   11.6250    0.0000 Si  0  0  0  0  0  4  0  0  0  0  0  0
  8  1  1  0
  9  8  1  0
 10  9  1  0
 11 10  1  0
 12 11  1  0
 13 12  1  0
 14 13  1  0
 15 14  1  0
 16 15  1  0
 17 16  1  0
 18 17  1  0
 19 18  1  0
 20 19  1  0
 21 20  1  0
 22 21  1  0
 23 22  2  0
 24 21  1  0
 25 22  1  0
 26  2  1  0
 26  3  1  0
 26  4  1  0
 26 24  1  0
 27  5  1  0
 27  6  1  0
 27  7  1  0
 27 25  1  0
M  END
>  <NAME>  (7068) 
2-(TRIMETHYLSILYL)OXY-HEXADECANOIC ACID TRIMETHYLSILYL ESTER

>  <SYNONYMS>  (7068) 


>  <SPECTRUM TYPE>  (7068) 
MS1

>  <INSTRUMENT TYPE>  (7068) 
EI-B

>  <INSTRUMENT>  (7068) 
JEOL JMS-01-SG

>  <ION MODE>  (7068) 
P

>  <INCHIKEY>  (7068) 
ZDIZSQOYKPNOIV-UHFFFAOYSA-N

>  <FORMULA>  (7068) 
C22H48O3Si2

>  <EXACT MASS>  (7068) 
416.314198456

>  <MW>  (7068) 
416

>  <ID>  (7068) 
JP000609

>  <CONTRIBUTOR>  (7068) 
University of Tokyo Team, {Faculty of Engineering, University of Tokyo

>  <COMMENT>  (7068) 
SMILES=CCCCCCCCCCCCCCC(O[Si](C)(C)C)C(=O)O[Si](C)(C)C
InChI=InChI=1S/C22H48O3Si2/c1-8-9-10-11-12-13-14-15-16-17-18-19-20-21(24-26(2,3)4)22(23)25-27(5,6)7/h21H,8-20H2,1-7H3
computed SMILES=O=C(O[Si](C)(C)C)C(O[Si](C)(C)C)CCCCCCCCCCCCCC
accession=JP000609
date=2016.01.19 (Created 2008.10.21, modified 2011.05.06)
author=KOGA M, UNIV. OF OCCUPATIONAL AND ENVIRONMENTAL HEALTH
license=CC BY-NC-SA
exact mass=416.3142
ionization energy=70 eV
ion type=[M]+*
computed spectral entropy=2.6441816394246493
computed normalized entropy=0.8433061767396983
SPLASH=splash10-006t-9410000000-7f3cc68509e8c82c445b
submitter=submitter = University of Tokyo Team (Faculty of Engineering, University of Tokyo)
MoNA Rating=3.75

>  <NUM PEAKS>  (7068) 
23

>  <MASS SPECTRAL PEAKS>  (7068) 
43 14.4
55 13.1
57 27.3
69 1.96
71 15.9
73 99.99
75 19.3
83 3.25
91 11.6
97 27.6
103 22
111 1.19
115 7.3
125 7
131 7.6
135 0.7
147 29.7
148 10.1
149 29.4
150 0.7
177 7
299 49.3
300 12.2

$$$$

     RDKit          2D

 25 24  0  0  0  0  0  0  0  0999 V2000
  -16.8875    9.0000    0.0000 C   0  0  0  0  0  0  0  0  0  0  0  0
    0.7500    9.9510    0.0000 C   0  0  0  0  0  0  0  0  0  0  0  0
    1.2990   12.0000    0.0000 C   0  0  0  0  0  0  0  0  0  0  0  0
   -0.7500   12.5490    0.0000 C   0  0  0  0  0  0  0  0  0  0  0  0
    1.8481    6.9510    0.0000 C   0  0  0  0  0  0  0  0  0  0  0  0
    3.8971    7.5000    0.0000 C   0  0  0  0  0  0  0  0  0  0  0  0
    3.3481    9.5490    0.0000 C   0  0  0  0  0  0  0  0  0  0  0  0
  -15.5885    8.2500    0.0000 C   0  0  0  0  0  0  0  0  0  0  0  0
  -14.2894    9.0000    0.0000 C   0  0  0  0  0  0  0  0  0  0  0  0
  -12.9904    8.2500    0.0000 C   0  0  0  0  0  0  0  0  0  0  0  0
  -11.6913    9.0000    0.0000 C   0  0  0  0  0  0  0  0  0  0  0  0
  -10.3923    8.2500    0.0000 C   0  0  0  0  0  0  0  0  0  0  0  0
   -9.0933    9.0000    0.0000 C   0  0  0  0  0  0  0  0  0  0  0  0
   -7.7942    8.2500    0.0000 C   0  0  0  0  0  0  0  0  0  0  0  0
   -6.4952    9.0000    0.0000 C   0  0  0  0  0  0  0  0  0  0  0  0
   -5.1962    8.2500    0.0000 C   0  0  0  0  0  0  0  0  0  0  0  0
   -3.8971    9.0000    0.0000 C   0  0  0  0  0  0  0  0  0  0  0  0
   -2.5981    8.2500    0.0000 C   0  0  0  0  0  0  0  0  0  0  0  0
   -1.2990    9.0000    0.0000 C   0  0  0  0  0  0  0  0  0  0  0  0
    0.0000    8.2500    0.0000 C   0  0  0  0  0  0  0  0  0  0  0  0
    0.0000    6.7500    0.0000 O   0  0  0  0  0  0  0  0  0  0  0  0
   -1.2990   10.5000    0.0000 O   0  0  0  0  0  0  0  0  0  0  0  0
    1.2990    9.0000    0.0000 O   0  0  0  0  0  0  0  0  0  0  0  0
    0.0000   11.2500    0.0000 Si  0  0  0  0  0  4  0  0  0  0  0  0
    2.5981    8.2500    0.0000 Si  0  0  0  0  0  4  0  0  0  0  0  0
  8  1  1  0
  9  8  1  0
 10  9  1  0
 11 10  1  0
 12 11  1  0
 13 12  1  0
 14 13  1  0
 15 14  1  0
 16 15  1  0
 17 16  1  0
 18 17  1  0
 19 18  1  0
 20 19  1  0
 21 20  2  0
 22 19  1  0
 23 20  1  0
 24  2  1  0
 24  3  1  0
 24  4  1  0
 24 22  1  0
 25  5  1  0
 25  6  1  0
 25  7  1  0
 25 23  1  0
M  END
>  <NAME>  (7069) 
2-(TRIMETHYLSILYL)OXY-TETRADECANOIC ACID TRIMETHYLSILYL ESTER

>  <SYNONYMS>  (7069) 


>  <SPECTRUM TYPE>  (7069) 
MS1

>  <INSTRUMENT TYPE>  (7069) 
EI-B

>  <INSTRUMENT>  (7069) 
JEOL JMS-01-SG

>  <ION MODE>  (7069) 
P

>  <INCHIKEY>  (7069) 
RDVMVTBJXWMHMH-UHFFFAOYSA-N

>  <FORMULA>  (7069) 
C20H44O3Si2

>  <EXACT MASS>  (7069) 
388.282898328

>  <MW>  (7069) 
388

>  <ID>  (7069) 
JP000608

>  <CONTRIBUTOR>  (7069) 
University of Tokyo Team, {Faculty of Engineering, University of Tokyo

>  <COMMENT>  (7069) 
SMILES=CCCCCCCCCCCCC(O[Si](C)(C)C)C(=O)O[Si](C)(C)C
InChI=InChI=1S/C20H44O3Si2/c1-8-9-10-11-12-13-14-15-16-17-18-19(22-24(2,3)4)20(21)23-25(5,6)7/h19H,8-18H2,1-7H3
computed SMILES=O=C(O[Si](C)(C)C)C(O[Si](C)(C)C)CCCCCCCCCCCC
accession=JP000608
date=2016.01.19 (Created 2008.10.21, modified 2011.05.06)
author=KOGA M, UNIV. OF OCCUPATIONAL AND ENVIRONMENTAL HEALTH
license=CC BY-NC-SA
exact mass=388.2829
ionization energy=70 eV
ion type=[M]+*
computed spectral entropy=2.9308960816336715
computed normalized entropy=0.861724784758405
SPLASH=splash10-00di-9310000000-09d9002766bad3768e11
submitter=submitter = University of Tokyo Team (Faculty of Engineering, University of Tokyo)
MoNA Rating=3.75

>  <NUM PEAKS>  (7069) 
30

>  <MASS SPECTRAL PEAKS>  (7069) 
43 48.7
45 11.6
47 10.7
55 2.05
56 14.7
57 29.4
59 12
67 1.47
69 40.6
70 10.7
73 99.99
77 1.74
82 10.2
83 41.5
91 12.9
93 1.02
95 11.6
97 34.8
103 37
111 2.63
115 10.2
125 10.2
129 16.5
132 1.02
147 43.7
148 12
149 16.5
265 1.02
271 68.3
272 16.5

$$$$

     RDKit          2D

 23 22  0  0  0  0  0  0  0  0999 V2000
    4.5466    8.6250    0.0000 C   0  0  0  0  0  0  0  0  0  0  0  0
  -10.4928    7.6740    0.0000 C   0  0  0  0  0  0  0  0  0  0  0  0
  -11.0418    5.6250    0.0000 C   0  0  0  0  0  0  0  0  0  0  0  0
   -8.9928    5.0760    0.0000 C   0  0  0  0  0  0  0  0  0  0  0  0
  -11.5909   10.6740    0.0000 C   0  0  0  0  0  0  0  0  0  0  0  0
  -13.6399   10.1250    0.0000 C   0  0  0  0  0  0  0  0  0  0  0  0
  -13.0909    8.0760    0.0000 C   0  0  0  0  0  0  0  0  0  0  0  0
    3.2476    9.3750    0.0000 C   0  0  0  0  0  0  0  0  0  0  0  0
    1.9486    8.6250    0.0000 C   0  0  0  0  0  0  0  0  0  0  0  0
    0.6495    9.3750    0.0000 C   0  0  0  0  0  0  0  0  0  0  0  0
   -0.6495    8.6250    0.0000 C   0  0  0  0  0  0  0  0  0  0  0  0
   -1.9486    9.3750    0.0000 C   0  0  0  0  0  0  0  0  0  0  0  0
   -3.2476    8.6250    0.0000 C   0  0  0  0  0  0  0  0  0  0  0  0
   -4.5466    9.3750    0.0000 C   0  0  0  0  0  0  0  0  0  0  0  0
   -5.8457    8.6250    0.0000 C   0  0  0  0  0  0  0  0  0  0  0  0
   -7.1447    9.3750    0.0000 C   0  0  0  0  0  0  0  0  0  0  0  0
   -8.4437    8.6250    0.0000 C   0  0  0  0  0  0  0  0  0  0  0  0
   -9.7428    9.3750    0.0000 C   0  0  0  0  0  0  0  0  0  0  0  0
   -9.7428   10.8750    0.0000 O   0  0  0  0  0  0  0  0  0  0  0  0
   -8.4437    7.1250    0.0000 O   0  0  0  0  0  0  0  0  0  0  0  0
  -11.0418    8.6250    0.0000 O   0  0  0  0  0  0  0  0  0  0  0  0
   -9.7428    6.3750    0.0000 Si  0  0  0  0  0  4  0  0  0  0  0  0
  -12.3409    9.3750    0.0000 Si  0  0  0  0  0  4  0  0  0  0  0  0
  8  1  1  0
  9  8  1  0
 10  9  1  0
 11 10  1  0
 12 11  1  0
 13 12  1  0
 14 13  1  0
 15 14  1  0
 16 15  1  0
 17 16  1  0
 18 17  1  0
 19 18  2  0
 20 17  1  0
 21 18  1  0
 22  2  1  0
 22  3  1  0
 22  4  1  0
 22 20  1  0
 23  5  1  0
 23  6  1  0
 23  7  1  0
 23 21  1  0
M  END
>  <NAME>  (7070) 
2-(TRIMETHYLSILYL)OXY-DODECANOIC ACID TRIMETHYLSILYL ESTER

>  <SYNONYMS>  (7070) 


>  <SPECTRUM TYPE>  (7070) 
MS1

>  <INSTRUMENT TYPE>  (7070) 
EI-B

>  <INSTRUMENT>  (7070) 
JEOL JMS-01-SG

>  <ION MODE>  (7070) 
P

>  <INCHIKEY>  (7070) 
YLQUHHPRDMSJTR-UHFFFAOYSA-N

>  <FORMULA>  (7070) 
C18H40O3Si2

>  <EXACT MASS>  (7070) 
360.2515982

>  <MW>  (7070) 
360

>  <ID>  (7070) 
JP000607

>  <CONTRIBUTOR>  (7070) 
University of Tokyo Team, {Faculty of Engineering, University of Tokyo

>  <COMMENT>  (7070) 
SMILES=CCCCCCCCCCC(O[Si](C)(C)C)C(=O)O[Si](C)(C)C
InChI=InChI=1S/C18H40O3Si2/c1-8-9-10-11-12-13-14-15-16-17(20-22(2,3)4)18(19)21-23(5,6)7/h17H,8-16H2,1-7H3
computed SMILES=O=C(O[Si](C)(C)C)C(O[Si](C)(C)C)CCCCCCCCCC
accession=JP000607
date=2016.01.19 (Created 2008.10.21, modified 2011.05.06)
author=KOGA M, UNIV. OF OCCUPATIONAL AND ENVIRONMENTAL HEALTH
license=CC BY-NC-SA
exact mass=360.2516
ionization energy=70 eV
ion type=[M]+*
computed spectral entropy=2.9263828461001786
computed normalized entropy=0.8690602174124789
SPLASH=splash10-00dm-9120000000-8641b6d5e938cf97b6b3
submitter=submitter = University of Tokyo Team (Faculty of Engineering, University of Tokyo)
MoNA Rating=3.75

>  <NUM PEAKS>  (7070) 
29

>  <MASS SPECTRAL PEAKS>  (7070) 
43 13.3
45 14
47 15.9
55 1.84
57 12.1
59 15.2
67 14.6
69 2.35
70 14.6
71 11.4
73 99.99
75 2.54
77 22.2
81 14.6
82 14
83 3.75
91 14.6
95 15.9
97 37.5
103 3.43
111 19.1
115 14.6
129 13.3
147 4.07
148 14.6
221 14
243 61.1
244 1.46
282 3.8

$$$$

     RDKit          2D

 22 23  0  0  0  0  0  0  0  0999 V2000
    5.3987    3.0004    0.0000 C   0  0  0  0  0  0  0  0  0  0  0  0
    3.8984    4.5002    0.0000 C   0  0  0  0  0  0  0  0  0  0  0  0
    2.3987    3.0000    0.0000 C   0  0  0  0  0  0  0  0  0  0  0  0
    5.7468   -2.7995    0.0000 C   0  0  0  0  0  0  0  0  0  0  0  0
    7.7959   -2.2508    0.0000 C   0  0  0  0  0  0  0  0  0  0  0  0
    7.2472   -0.2017    0.0000 C   0  0  0  0  0  0  0  0  0  0  0  0
   -2.6000   -0.7500    0.0000 C   0  0  0  0  0  0  0  0  0  0  0  0
   -2.6000    0.7500    0.0000 C   0  0  0  0  0  0  0  0  0  0  0  0
   -1.3000   -1.5000    0.0000 C   0  0  0  0  0  0  0  0  0  0  0  0
   -1.3000    1.5000    0.0000 C   0  0  0  0  0  0  0  0  0  0  0  0
    1.3000   -1.5000    0.0000 C   0  0  0  0  0  0  0  0  0  0  0  0
    1.3000    1.5000    0.0000 C   0  0  0  0  0  0  0  0  0  0  0  0
    0.0000   -0.7500    0.0000 C   0  0  0  0  0  0  0  0  0  0  0  0
    0.0000    0.7500    0.0000 C   0  0  0  0  0  0  0  0  0  0  0  0
    2.6000   -0.7500    0.0000 C   0  0  0  0  0  0  0  0  0  0  0  0
    2.6000    0.7500    0.0000 C   0  0  0  0  0  0  0  0  0  0  0  0
    3.8989   -1.5002    0.0000 C   0  0  0  0  0  0  0  0  0  0  0  0
    3.8987   -3.0002    0.0000 O   0  0  0  0  0  0  0  0  0  0  0  0
    3.8989    1.5002    0.0000 O   0  0  0  0  0  0  0  0  0  0  0  0
    5.1981   -0.7504    0.0000 O   0  0  0  0  0  0  0  0  0  0  0  0
    3.8987    3.0002    0.0000 Si  0  0  0  0  0  4  0  0  0  0  0  0
    6.4970   -1.5006    0.0000 Si  0  0  0  0  0  4  0  0  0  0  0  0
  8  7  2  0
  9  7  1  0
 10  8  1  0
 13  9  2  0
 13 11  1  0
 14 10  2  0
 14 12  1  0
 14 13  1  0
 15 11  2  0
 16 12  2  0
 16 15  1  0
 17 15  1  0
 18 17  2  0
 19 16  1  0
 20 17  1  0
 21  1  1  0
 21  2  1  0
 21  3  1  0
 21 19  1  0
 22  4  1  0
 22  5  1  0
 22  6  1  0
 22 20  1  0
M  END
>  <NAME>  (7071) 
3-(TRIMETHYLSILYL)OXY-2-NAPHTHOIC ACID TRIMETHYLSILYL ESTER

>  <SYNONYMS>  (7071) 


>  <SPECTRUM TYPE>  (7071) 
MS1

>  <INSTRUMENT TYPE>  (7071) 
EI-B

>  <INSTRUMENT>  (7071) 
JEOL JMS-01-SG

>  <ION MODE>  (7071) 
P

>  <INCHIKEY>  (7071) 
SGSKFENRYUZSIQ-UHFFFAOYSA-N

>  <FORMULA>  (7071) 
C17H24O3Si2

>  <EXACT MASS>  (7071) 
332.126397688

>  <MW>  (7071) 
332

>  <ID>  (7071) 
JP000606

>  <CONTRIBUTOR>  (7071) 
University of Tokyo Team, {Faculty of Engineering, University of Tokyo

>  <COMMENT>  (7071) 
SMILES=C[Si](C)(C)OC(=O)c(c1)c(O[Si](C)(C)C)cc(c2)c(ccc2)1
InChI=InChI=1S/C17H24O3Si2/c1-21(2,3)19-16-12-14-10-8-7-9-13(14)11-15(16)17(18)20-22(4,5)6/h7-12H,1-6H3
computed SMILES=O=C(O[Si](C)(C)C)C1=CC=2C=CC=CC2C=C1O[Si](C)(C)C
accession=JP000606
date=2016.01.19 (Created 2008.10.21, modified 2011.05.06)
author=KOGA M, UNIV. OF OCCUPATIONAL AND ENVIRONMENTAL HEALTH
license=CC BY-NC-SA
exact mass=332.1264
ionization energy=70 eV
ion type=[M]+*
computed spectral entropy=2.011378738892038
computed normalized entropy=0.7427405659146872
SPLASH=splash10-00xr-9215000000-b825f2d7c282ee8b6cde
submitter=submitter = University of Tokyo Team (Faculty of Engineering, University of Tokyo)
MoNA Rating=3.75

>  <NUM PEAKS>  (7071) 
15

>  <MASS SPECTRAL PEAKS>  (7071) 
73 99.99
74 7.3
75 17
77 1.11
115 7.1
141 12.2
149 12.7
185 0.89
243 8.9
259 11.5
260 6.3
299 0.71
317 58.6
318 13.3
319 8

$$$$

     RDKit          2D

 22 23  0  0  0  0  0  0  0  0999 V2000
    4.4483   -0.5487    0.0000 C   0  0  0  0  0  0  0  0  0  0  0  0
    6.4972    0.0006    0.0000 C   0  0  0  0  0  0  0  0  0  0  0  0
    5.9479    2.0496    0.0000 C   0  0  0  0  0  0  0  0  0  0  0  0
    4.0990    5.2500    0.0000 C   0  0  0  0  0  0  0  0  0  0  0  0
    2.5990    6.7500    0.0000 C   0  0  0  0  0  0  0  0  0  0  0  0
    1.0990    5.2500    0.0000 C   0  0  0  0  0  0  0  0  0  0  0  0
   -2.6000   -0.7500    0.0000 C   0  0  0  0  0  0  0  0  0  0  0  0
   -2.6000    0.7500    0.0000 C   0  0  0  0  0  0  0  0  0  0  0  0
   -1.3000   -1.5000    0.0000 C   0  0  0  0  0  0  0  0  0  0  0  0
   -1.3000    1.5000    0.0000 C   0  0  0  0  0  0  0  0  0  0  0  0
    1.3000   -1.5000    0.0000 C   0  0  0  0  0  0  0  0  0  0  0  0
    2.6000   -0.7500    0.0000 C   0  0  0  0  0  0  0  0  0  0  0  0
    0.0000   -0.7500    0.0000 C   0  0  0  0  0  0  0  0  0  0  0  0
    0.0000    0.7500    0.0000 C   0  0  0  0  0  0  0  0  0  0  0  0
    2.6000    0.7500    0.0000 C   0  0  0  0  0  0  0  0  0  0  0  0
    1.3000    1.5000    0.0000 C   0  0  0  0  0  0  0  0  0  0  0  0
    1.3000    3.0000    0.0000 C   0  0  0  0  0  0  0  0  0  0  0  0
    0.0010    3.7500    0.0000 O   0  0  0  0  0  0  0  0  0  0  0  0
    3.8989    1.5002    0.0000 O   0  0  0  0  0  0  0  0  0  0  0  0
    2.5990    3.7500    0.0000 O   0  0  0  0  0  0  0  0  0  0  0  0
    5.1981    0.7504    0.0000 Si  0  0  0  0  0  4  0  0  0  0  0  0
    2.5990    5.2500    0.0000 Si  0  0  0  0  0  4  0  0  0  0  0  0
  8  7  2  0
  9  7  1  0
 10  8  1  0
 12 11  2  0
 13  9  2  0
 13 11  1  0
 14 10  2  0
 14 13  1  0
 15 12  1  0
 16 14  1  0
 16 15  2  0
 17 16  1  0
 18 17  2  0
 19 15  1  0
 20 17  1  0
 21  1  1  0
 21  2  1  0
 21  3  1  0
 21 19  1  0
 22  4  1  0
 22  5  1  0
 22  6  1  0
 22 20  1  0
M  END
>  <NAME>  (7072) 
2-(TRIMETHYLSILYL)OXY-1-NAPHTHOIC ACID TRIMETHYLSILYL ESTER

>  <SYNONYMS>  (7072) 


>  <SPECTRUM TYPE>  (7072) 
MS1

>  <INSTRUMENT TYPE>  (7072) 
EI-B

>  <INSTRUMENT>  (7072) 
JEOL JMS-01-SG

>  <ION MODE>  (7072) 
P

>  <INCHIKEY>  (7072) 
DZGQTVQTZLFKGN-UHFFFAOYSA-N

>  <FORMULA>  (7072) 
C17H24O3Si2

>  <EXACT MASS>  (7072) 
332.126397688

>  <MW>  (7072) 
332

>  <ID>  (7072) 
JP000605

>  <CONTRIBUTOR>  (7072) 
University of Tokyo Team, {Faculty of Engineering, University of Tokyo

>  <COMMENT>  (7072) 
SMILES=C[Si](C)(C)OC(=O)c(c1O[Si](C)(C)C)c(c2)c(ccc2)cc1
InChI=InChI=1S/C17H24O3Si2/c1-21(2,3)19-15-12-11-13-9-7-8-10-14(13)16(15)17(18)20-22(4,5)6/h7-12H,1-6H3
computed SMILES=O=C(O[Si](C)(C)C)C1=C(O[Si](C)(C)C)C=CC=2C=CC=CC21
accession=JP000605
date=2016.01.19 (Created 2008.10.21, modified 2011.05.06)
author=KOGA M, UNIV. OF OCCUPATIONAL AND ENVIRONMENTAL HEALTH
license=CC BY-NC-SA
exact mass=332.1264
ionization energy=70 eV
ion type=[M]+*
computed spectral entropy=2.2405278886465325
computed normalized entropy=0.8273583287837906
SPLASH=splash10-004i-9102000000-f149fa4a85cc081e4ae4
submitter=submitter = University of Tokyo Team (Faculty of Engineering, University of Tokyo)
MoNA Rating=3.75

>  <NUM PEAKS>  (7072) 
15

>  <MASS SPECTRAL PEAKS>  (7072) 
40 15.6
43 17.6
47 17.6
73 6.53
75 99.99
76 11.7
77 39.8
93 3.72
95 9.8
141 9.8
144 7.8
147 3.33
149 10.4
317 49
318 13.7

$$$$

     RDKit          2D

 22 23  0  0  0  0  0  0  0  0999 V2000
    0.2624    4.6829    0.0000 C   0  0  0  0  0  0  0  0  0  0  0  0
   -1.7805    4.1116    0.0000 C   0  0  0  0  0  0  0  0  0  0  0  0
   -1.2093    2.0686    0.0000 C   0  0  0  0  0  0  0  0  0  0  0  0
    6.7992   -0.1507    0.0000 C   0  0  0  0  0  0  0  0  0  0  0  0
    7.3402    1.9005    0.0000 C   0  0  0  0  0  0  0  0  0  0  0  0
    5.2890    2.4415    0.0000 C   0  0  0  0  0  0  0  0  0  0  0  0
   -3.0200   -1.1200    0.0000 C   0  0  0  0  0  0  0  0  0  0  0  0
   -3.0200    0.3600    0.0000 C   0  0  0  0  0  0  0  0  0  0  0  0
   -1.7200   -1.8800    0.0000 C   0  0  0  0  0  0  0  0  0  0  0  0
   -1.7500    1.1100    0.0000 C   0  0  0  0  0  0  0  0  0  0  0  0
    0.8800   -1.8800    0.0000 C   0  0  0  0  0  0  0  0  0  0  0  0
    2.1700   -1.1200    0.0000 C   0  0  0  0  0  0  0  0  0  0  0  0
   -0.4200   -1.1200    0.0000 C   0  0  0  0  0  0  0  0  0  0  0  0
   -0.4200    0.3600    0.0000 C   0  0  0  0  0  0  0  0  0  0  0  0
    2.1500    0.3800    0.0000 C   0  0  0  0  0  0  0  0  0  0  0  0
    0.8500    1.1400    0.0000 C   0  0  0  0  0  0  0  0  0  0  0  0
    3.4461    1.1351    0.0000 C   0  0  0  0  0  0  0  0  0  0  0  0
    3.4401    2.6351    0.0000 O   0  0  0  0  0  0  0  0  0  0  0  0
    0.8337    2.6399    0.0000 O   0  0  0  0  0  0  0  0  0  0  0  0
    4.7481    0.3903    0.0000 O   0  0  0  0  0  0  0  0  0  0  0  0
   -0.4734    3.3757    0.0000 Si  0  0  0  0  0  4  0  0  0  0  0  0
    6.0441    1.1454    0.0000 Si  0  0  0  0  0  4  0  0  0  0  0  0
  8  7  2  0
  9  7  1  0
 10  8  1  0
 12 11  2  0
 13  9  2  0
 13 11  1  0
 14 10  2  0
 14 13  1  0
 15 12  1  0
 16 14  1  0
 16 15  2  0
 17 15  1  0
 18 17  2  0
 19 16  1  0
 20 17  1  0
 21  1  1  0
 21  2  1  0
 21  3  1  0
 21 19  1  0
 22  4  1  0
 22  5  1  0
 22  6  1  0
 22 20  1  0
M  END
>  <NAME>  (7073) 
1-(TRIMETHYLSILYL)OXY-2-NAPHTHOIC ACID TRIMETHYLSILYL ESTER

>  <SYNONYMS>  (7073) 


>  <SPECTRUM TYPE>  (7073) 
MS1

>  <INSTRUMENT TYPE>  (7073) 
EI-B

>  <INSTRUMENT>  (7073) 
JEOL JMS-01-SG

>  <ION MODE>  (7073) 
P

>  <INCHIKEY>  (7073) 
VOQDDXJNIUGFKD-UHFFFAOYSA-N

>  <FORMULA>  (7073) 
C17H24O3Si2

>  <EXACT MASS>  (7073) 
332.126397688

>  <MW>  (7073) 
332

>  <ID>  (7073) 
JP000604

>  <CONTRIBUTOR>  (7073) 
University of Tokyo Team, {Faculty of Engineering, University of Tokyo

>  <COMMENT>  (7073) 
SMILES=C[Si](C)(C)OC(=O)c(c1)c(O[Si](C)(C)C)c(c2)c(ccc2)c1
InChI=InChI=1S/C17H24O3Si2/c1-21(2,3)19-16-14-10-8-7-9-13(14)11-12-15(16)17(18)20-22(4,5)6/h7-12H,1-6H3
computed SMILES=O=C(O[Si](C)(C)C)C=1C=CC=2C=CC=CC2C1O[Si](C)(C)C
accession=JP000604
date=2016.01.19 (Created 2008.10.21, modified 2011.05.06)
author=KOGA M, UNIV. OF OCCUPATIONAL AND ENVIRONMENTAL HEALTH
license=CC BY-NC-SA
exact mass=332.1264
ionization energy=70 eV
ion type=[M]+*
computed spectral entropy=2.4446245138982805
computed normalized entropy=0.8160357103600907
SPLASH=splash10-004i-9001000000-8b3733bd43fa254cd5f6
submitter=submitter = University of Tokyo Team (Faculty of Engineering, University of Tokyo)
MoNA Rating=3.75

>  <NUM PEAKS>  (7073) 
20

>  <MASS SPECTRAL PEAKS>  (7073) 
40 8.9
43 22
47 25.8
49 1.31
63 9.3
65 12.5
73 49.8
74 0.89
75 99.99
76 12.3
77 12.2
93 4.19
94 8.2
95 13.1
115 8.6
147 1.53
170 9.7
317 38.9
318 10.4
319 4.1

$$$$

     RDKit          2D

 17 18  0  0  0  0  0  0  0  0999 V2000
    6.8872    0.0617    0.0000 C   0  0  0  0  0  0  0  0  0  0  0  0
    7.4359    2.1108    0.0000 C   0  0  0  0  0  0  0  0  0  0  0  0
    5.3868    2.6595    0.0000 C   0  0  0  0  0  0  0  0  0  0  0  0
   -2.9500   -0.8900    0.0000 C   0  0  0  0  0  0  0  0  0  0  0  0
   -2.9500    0.6100    0.0000 C   0  0  0  0  0  0  0  0  0  0  0  0
   -1.6500   -1.6400    0.0000 C   0  0  0  0  0  0  0  0  0  0  0  0
   -1.6500    1.3600    0.0000 C   0  0  0  0  0  0  0  0  0  0  0  0
    0.9400   -1.6400    0.0000 C   0  0  0  0  0  0  0  0  0  0  0  0
    2.2400   -0.8900    0.0000 C   0  0  0  0  0  0  0  0  0  0  0  0
    0.9400    1.3600    0.0000 C   0  0  0  0  0  0  0  0  0  0  0  0
   -0.3500   -0.8900    0.0000 C   0  0  0  0  0  0  0  0  0  0  0  0
   -0.3500    0.6100    0.0000 C   0  0  0  0  0  0  0  0  0  0  0  0
    2.2400    0.6100    0.0000 C   0  0  0  0  0  0  0  0  0  0  0  0
    3.5389    1.3602    0.0000 C   0  0  0  0  0  0  0  0  0  0  0  0
    3.5387    2.8602    0.0000 O   0  0  0  0  0  0  0  0  0  0  0  0
    4.8381    0.6104    0.0000 O   0  0  0  0  0  0  0  0  0  0  0  0
    6.1370    1.3606    0.0000 Si  0  0  0  0  0  4  0  0  0  0  0  0
  5  4  2  0
  6  4  1  0
  7  5  1  0
  9  8  2  0
 11  6  2  0
 11  8  1  0
 12  7  2  0
 12 10  1  0
 12 11  1  0
 13  9  1  0
 13 10  2  0
 14 13  1  0
 15 14  2  0
 16 14  1  0
 17  1  1  0
 17  2  1  0
 17  3  1  0
 17 16  1  0
M  END
>  <NAME>  (7074) 
2-NAPHTHOIC ACID TRIMETHYLSILYL ESTER

>  <SYNONYMS>  (7074) 


>  <SPECTRUM TYPE>  (7074) 
MS1

>  <INSTRUMENT TYPE>  (7074) 
EI-B

>  <INSTRUMENT>  (7074) 
JEOL JMS-01-SG

>  <ION MODE>  (7074) 
P

>  <INCHIKEY>  (7074) 
LCECHEBBTQXPPG-UHFFFAOYSA-N

>  <FORMULA>  (7074) 
C14H16O2Si

>  <EXACT MASS>  (7074) 
244.091956282

>  <MW>  (7074) 
244

>  <ID>  (7074) 
JP000603

>  <CONTRIBUTOR>  (7074) 
University of Tokyo Team, {Faculty of Engineering, University of Tokyo

>  <COMMENT>  (7074) 
SMILES=O=C(O[Si](C)(C)C)c(c1)cc(c2)c(ccc2)c1
InChI=InChI=1S/C14H16O2Si/c1-17(2,3)16-14(15)13-9-8-11-6-4-5-7-12(11)10-13/h4-10H,1-3H3
computed SMILES=O=C(O[Si](C)(C)C)C=1C=CC=2C=CC=CC2C1
accession=JP000603
date=2016.01.19 (Created 2008.10.21, modified 2011.05.06)
author=KOGA M, UNIV. OF OCCUPATIONAL AND ENVIRONMENTAL HEALTH
license=CC BY-NC-SA
exact mass=244.09196
ionization energy=70 eV
ion type=[M]+*
computed spectral entropy=2.4567072680732975
computed normalized entropy=0.7540314534587617
SPLASH=splash10-004i-2930000000-2721426b7bb4347e7943
submitter=submitter = University of Tokyo Team (Faculty of Engineering, University of Tokyo)
MoNA Rating=3.75

>  <NUM PEAKS>  (7074) 
26

>  <MASS SPECTRAL PEAKS>  (7074) 
44 8.4
45 12.5
47 4.3
51 0.5
63 6.9
64 5.3
73 7.7
74 0.48
75 11.2
76 5.9
77 16.6
101 0.77
115 12.3
126 18.8
127 99.99
128 0.97
155 92
156 12.1
185 88.9
186 1.42
187 4.7
229 76.5
230 15
231 0.42
244 22.3
245 4.3

$$$$

     RDKit          2D

 17 18  0  0  0  0  0  0  0  0999 V2000
    3.9790    4.9800    0.0000 C   0  0  0  0  0  0  0  0  0  0  0  0
    2.4790    6.4800    0.0000 C   0  0  0  0  0  0  0  0  0  0  0  0
    0.9790    4.9800    0.0000 C   0  0  0  0  0  0  0  0  0  0  0  0
   -2.7200   -1.0200    0.0000 C   0  0  0  0  0  0  0  0  0  0  0  0
   -2.7200    0.4800    0.0000 C   0  0  0  0  0  0  0  0  0  0  0  0
    2.4800   -1.0200    0.0000 C   0  0  0  0  0  0  0  0  0  0  0  0
   -1.4200   -1.7700    0.0000 C   0  0  0  0  0  0  0  0  0  0  0  0
    1.1800   -1.7700    0.0000 C   0  0  0  0  0  0  0  0  0  0  0  0
   -1.4200    1.2300    0.0000 C   0  0  0  0  0  0  0  0  0  0  0  0
    2.4800    0.4800    0.0000 C   0  0  0  0  0  0  0  0  0  0  0  0
   -0.1200   -1.0200    0.0000 C   0  0  0  0  0  0  0  0  0  0  0  0
   -0.1200    0.4800    0.0000 C   0  0  0  0  0  0  0  0  0  0  0  0
    1.1800    1.2300    0.0000 C   0  0  0  0  0  0  0  0  0  0  0  0
    1.1800    2.7300    0.0000 C   0  0  0  0  0  0  0  0  0  0  0  0
   -0.1190    3.4800    0.0000 O   0  0  0  0  0  0  0  0  0  0  0  0
    2.4790    3.4800    0.0000 O   0  0  0  0  0  0  0  0  0  0  0  0
    2.4790    4.9800    0.0000 Si  0  0  0  0  0  4  0  0  0  0  0  0
  5  4  2  0
  7  4  1  0
  8  6  2  0
  9  5  1  0
 10  6  1  0
 11  7  2  0
 11  8  1  0
 12  9  2  0
 12 11  1  0
 13 10  2  0
 13 12  1  0
 14 13  1  0
 15 14  2  0
 16 14  1  0
 17  1  1  0
 17  2  1  0
 17  3  1  0
 17 16  1  0
M  END
>  <NAME>  (7075) 
1-NAPHTHOIC ACID TRIMETHYLSILYL ESTER

>  <SYNONYMS>  (7075) 


>  <SPECTRUM TYPE>  (7075) 
MS1

>  <INSTRUMENT TYPE>  (7075) 
EI-B

>  <INSTRUMENT>  (7075) 
JEOL JMS-01-SG

>  <ION MODE>  (7075) 
P

>  <INCHIKEY>  (7075) 
UUTZVQNCBBAIBO-UHFFFAOYSA-N

>  <FORMULA>  (7075) 
C14H16O2Si

>  <EXACT MASS>  (7075) 
244.091956282

>  <MW>  (7075) 
244

>  <ID>  (7075) 
JP000602

>  <CONTRIBUTOR>  (7075) 
University of Tokyo Team, {Faculty of Engineering, University of Tokyo

>  <COMMENT>  (7075) 
SMILES=C[Si](C)(C)OC(=O)c(c1)c(c2)c(ccc2)cc1
InChI=InChI=1S/C14H16O2Si/c1-17(2,3)16-14(15)13-10-6-8-11-7-4-5-9-12(11)13/h4-10H,1-3H3
computed SMILES=O=C(O[Si](C)(C)C)C1=CC=CC=2C=CC=CC21
accession=JP000602
date=2016.01.19 (Created 2008.10.21, modified 2011.05.06)
author=KOGA M, UNIV. OF OCCUPATIONAL AND ENVIRONMENTAL HEALTH
license=CC BY-NC-SA
exact mass=244.09196
ionization energy=70 eV
ion type=[M]+*
computed spectral entropy=2.2746036011156963
computed normalized entropy=0.7471134299856097
SPLASH=splash10-004i-1920000000-8f23ce0d47513701c8a5
submitter=submitter = University of Tokyo Team (Faculty of Engineering, University of Tokyo)
MoNA Rating=3.75

>  <NUM PEAKS>  (7075) 
21

>  <MASS SPECTRAL PEAKS>  (7075) 
45 13.3
63 6.4
73 10.2
74 0.51
75 12.1
76 5.2
77 12
101 0.71
114 12.5
126 16.4
127 99.6
128 1.11
155 99.99
156 11.7
185 73.2
186 1.37
187 4.4
229 69.7
230 12.8
244 2.04
245 4.3

$$$$

     RDKit          2D

 34 34  0  0  0  0  0  0  0  0999 V2000
    5.9472    0.2017    0.0000 C   0  0  0  0  0  0  0  0  0  0  0  0
    6.4959    2.2508    0.0000 C   0  0  0  0  0  0  0  0  0  0  0  0
    4.4468    2.7995    0.0000 C   0  0  0  0  0  0  0  0  0  0  0  0
    3.1474   -5.0493    0.0000 C   0  0  0  0  0  0  0  0  0  0  0  0
    5.1965   -4.5006    0.0000 C   0  0  0  0  0  0  0  0  0  0  0  0
    4.6478   -2.4515    0.0000 C   0  0  0  0  0  0  0  0  0  0  0  0
   -4.4468    2.7995    0.0000 C   0  0  0  0  0  0  0  0  0  0  0  0
   -6.4959    2.2508    0.0000 C   0  0  0  0  0  0  0  0  0  0  0  0
   -5.9472    0.2017    0.0000 C   0  0  0  0  0  0  0  0  0  0  0  0
   -3.1474   -5.0493    0.0000 C   0  0  0  0  0  0  0  0  0  0  0  0
   -5.1965   -4.5006    0.0000 C   0  0  0  0  0  0  0  0  0  0  0  0
   -4.6478   -2.4515    0.0000 C   0  0  0  0  0  0  0  0  0  0  0  0
   -0.0000    1.5000    0.0000 C   0  0  0  0  0  0  0  0  0  0  0  0
   -0.0000   -1.5000    0.0000 C   0  0  0  0  0  0  0  0  0  0  0  0
    1.3000    0.7500    0.0000 C   0  0  0  0  0  0  0  0  0  0  0  0
    1.3000   -0.7500    0.0000 C   0  0  0  0  0  0  0  0  0  0  0  0
   -1.3000    0.7500    0.0000 C   0  0  0  0  0  0  0  0  0  0  0  0
   -1.3000   -0.7500    0.0000 C   0  0  0  0  0  0  0  0  0  0  0  0
    2.5989    1.5002    0.0000 C   0  0  0  0  0  0  0  0  0  0  0  0
    2.5989   -1.5002    0.0000 C   0  0  0  0  0  0  0  0  0  0  0  0
   -2.5989    1.5002    0.0000 C   0  0  0  0  0  0  0  0  0  0  0  0
   -2.5989   -1.5002    0.0000 C   0  0  0  0  0  0  0  0  0  0  0  0
    2.5987    3.0002    0.0000 O   0  0  0  0  0  0  0  0  0  0  0  0
    3.8981   -0.7504    0.0000 O   0  0  0  0  0  0  0  0  0  0  0  0
   -2.5987    3.0002    0.0000 O   0  0  0  0  0  0  0  0  0  0  0  0
   -3.8981   -0.7504    0.0000 O   0  0  0  0  0  0  0  0  0  0  0  0
    3.8981    0.7504    0.0000 O   0  0  0  0  0  0  0  0  0  0  0  0
    2.5987   -3.0002    0.0000 O   0  0  0  0  0  0  0  0  0  0  0  0
   -3.8981    0.7504    0.0000 O   0  0  0  0  0  0  0  0  0  0  0  0
   -2.5987   -3.0002    0.0000 O   0  0  0  0  0  0  0  0  0  0  0  0
    5.1970    1.5006    0.0000 Si  0  0  0  0  0  4  0  0  0  0  0  0
    3.8976   -3.7504    0.0000 Si  0  0  0  0  0  4  0  0  0  0  0  0
   -5.1970    1.5006    0.0000 Si  0  0  0  0  0  4  0  0  0  0  0  0
   -3.8976   -3.7504    0.0000 Si  0  0  0  0  0  4  0  0  0  0  0  0
 15 13  2  0
 16 14  2  0
 16 15  1  0
 17 13  1  0
 18 14  1  0
 18 17  2  0
 19 15  1  0
 20 16  1  0
 21 17  1  0
 22 18  1  0
 23 19  2  0
 24 20  2  0
 25 21  2  0
 26 22  2  0
 27 19  1  0
 28 20  1  0
 29 21  1  0
 30 22  1  0
 31  1  1  0
 31  2  1  0
 31  3  1  0
 31 27  1  0
 32  4  1  0
 32  5  1  0
 32  6  1  0
 32 28  1  0
 33  7  1  0
 33  8  1  0
 33  9  1  0
 33 29  1  0
 34 10  1  0
 34 11  1  0
 34 12  1  0
 34 30  1  0
M  END
>  <NAME>  (7076) 
BENZENE-1,2,4,5-TETRACARBOXYLIC ACID TETRA(TRIMETHYLSILYL) ESTER

>  <SYNONYMS>  (7076) 


>  <SPECTRUM TYPE>  (7076) 
MS1

>  <INSTRUMENT TYPE>  (7076) 
EI-B

>  <INSTRUMENT>  (7076) 
JEOL JMS-01-SG

>  <ION MODE>  (7076) 
P

>  <INCHIKEY>  (7076) 
BKFGZLAJFGESBT-UHFFFAOYSA-N

>  <FORMULA>  (7076) 
C22H38O8Si4

>  <EXACT MASS>  (7076) 
542.164374296

>  <MW>  (7076) 
542

>  <ID>  (7076) 
JP000601

>  <CONTRIBUTOR>  (7076) 
University of Tokyo Team, {Faculty of Engineering, University of Tokyo

>  <COMMENT>  (7076) 
SMILES=C[Si](C)(C)OC(=O)c(c1)c(C(=O)O[Si](C)(C)C)cc(C(=O)O[Si](C)(C)C)c(C(=O)O[Si](C)(C)C)1
InChI=InChI=1S/C22H38O8Si4/c1-31(2,3)27-19(23)15-13-17(21(25)29-33(7,8)9)18(22(26)30-34(10,11)12)14-16(15)20(24)28-32(4,5)6/h13-14H,1-12H3
computed SMILES=O=C(O[Si](C)(C)C)C=1C=C(C(=O)O[Si](C)(C)C)C(=CC1C(=O)O[Si](C)(C)C)C(=O)O[Si](C)(C)C
author=KOGA M, UNIV. OF OCCUPATIONAL AND ENVIRONMENTAL HEALTH
license=CC BY-NC-SA
accession=JP000601
date=2016.01.19 (Created 2008.10.21, modified 2011.05.06)
exact mass=542.16437
ionization energy=70 eV
ion type=[M]+*
computed spectral entropy=1.906038416426439
computed normalized entropy=0.6874580427805691
SPLASH=splash10-00dj-9500000000-2489dd5266ca8544d09a
submitter=submitter = University of Tokyo Team (Faculty of Engineering, University of Tokyo)
MoNA Rating=3.75

>  <NUM PEAKS>  (7076) 
16

>  <MASS SPECTRAL PEAKS>  (7076) 
54 4.1
66 4.8
72 4.1
73 99.99
74 10.2
75 19.3
77 18.8
89 0.68
93 7.5
131 5.7
147 89.9
148 1.36
149 7.8
221 4.3
291 4.1
527 5.5

$$$$

     RDKit          2D

 27 27  0  0  0  0  0  0  0  0999 V2000
   -4.0346    3.7869    0.0000 C   0  0  0  0  0  0  0  0  0  0  0  0
   -6.0836    3.2378    0.0000 C   0  0  0  0  0  0  0  0  0  0  0  0
   -5.5346    1.1888    0.0000 C   0  0  0  0  0  0  0  0  0  0  0  0
    6.3581    1.1889    0.0000 C   0  0  0  0  0  0  0  0  0  0  0  0
    6.9075    3.2378    0.0000 C   0  0  0  0  0  0  0  0  0  0  0  0
    4.8585    3.7872    0.0000 C   0  0  0  0  0  0  0  0  0  0  0  0
   -2.3874   -4.2635    0.0000 C   0  0  0  0  0  0  0  0  0  0  0  0
   -0.8871   -5.7632    0.0000 C   0  0  0  0  0  0  0  0  0  0  0  0
    0.6126   -4.2630    0.0000 C   0  0  0  0  0  0  0  0  0  0  0  0
    0.4120    2.4887    0.0000 C   0  0  0  0  0  0  0  0  0  0  0  0
   -0.8880    0.2370    0.0000 C   0  0  0  0  0  0  0  0  0  0  0  0
    1.7106    0.2378    0.0000 C   0  0  0  0  0  0  0  0  0  0  0  0
   -0.8875    1.7378    0.0000 C   0  0  0  0  0  0  0  0  0  0  0  0
    1.7111    1.7387    0.0000 C   0  0  0  0  0  0  0  0  0  0  0  0
    0.4111   -0.5130    0.0000 C   0  0  0  0  0  0  0  0  0  0  0  0
   -2.1865    2.4878    0.0000 C   0  0  0  0  0  0  0  0  0  0  0  0
    3.0102    2.4884    0.0000 C   0  0  0  0  0  0  0  0  0  0  0  0
    0.4113   -2.0130    0.0000 C   0  0  0  0  0  0  0  0  0  0  0  0
   -2.1865    3.9878    0.0000 O   0  0  0  0  0  0  0  0  0  0  0  0
    3.0105    3.9884    0.0000 O   0  0  0  0  0  0  0  0  0  0  0  0
    1.7105   -2.7628    0.0000 O   0  0  0  0  0  0  0  0  0  0  0  0
   -3.4856    1.7378    0.0000 O   0  0  0  0  0  0  0  0  0  0  0  0
    4.3092    1.7382    0.0000 O   0  0  0  0  0  0  0  0  0  0  0  0
   -0.8876   -2.7632    0.0000 O   0  0  0  0  0  0  0  0  0  0  0  0
   -4.7846    2.4878    0.0000 Si  0  0  0  0  0  4  0  0  0  0  0  0
    5.6083    2.4880    0.0000 Si  0  0  0  0  0  4  0  0  0  0  0  0
   -0.8874   -4.2632    0.0000 Si  0  0  0  0  0  4  0  0  0  0  0  0
 13 10  2  0
 13 11  1  0
 14 10  1  0
 14 12  2  0
 15 11  2  0
 15 12  1  0
 16 13  1  0
 17 14  1  0
 18 15  1  0
 19 16  2  0
 20 17  2  0
 21 18  2  0
 22 16  1  0
 23 17  1  0
 24 18  1  0
 25  1  1  0
 25  2  1  0
 25  3  1  0
 25 22  1  0
 26  4  1  0
 26  5  1  0
 26  6  1  0
 26 23  1  0
 27  7  1  0
 27  8  1  0
 27  9  1  0
 27 24  1  0
M  END
>  <NAME>  (7077) 
1,3,5-BENZENETRICARBOXYLIC ACID TRI(TRIMETHYLSILYL) ESTER

>  <SYNONYMS>  (7077) 


>  <SPECTRUM TYPE>  (7077) 
MS1

>  <INSTRUMENT TYPE>  (7077) 
EI-B

>  <INSTRUMENT>  (7077) 
JEOL JMS-01-SG

>  <ION MODE>  (7077) 
P

>  <INCHIKEY>  (7077) 
NIFKKMJOBRRANX-UHFFFAOYSA-N

>  <FORMULA>  (7077) 
C18H30O6Si3

>  <EXACT MASS>  (7077) 
426.13501827

>  <MW>  (7077) 
426

>  <ID>  (7077) 
JP000600

>  <CONTRIBUTOR>  (7077) 
University of Tokyo Team, {Faculty of Engineering, University of Tokyo

>  <COMMENT>  (7077) 
SMILES=C[Si](C)(C)OC(=O)c(c1)cc(cc1C(=O)O[Si](C)(C)C)C(=O)O[Si](C)(C)C
InChI=InChI=1S/C18H30O6Si3/c1-25(2,3)22-16(19)13-10-14(17(20)23-26(4,5)6)12-15(11-13)18(21)24-27(7,8)9/h10-12H,1-9H3
computed SMILES=O=C(O[Si](C)(C)C)C=1C=C(C=C(C1)C(=O)O[Si](C)(C)C)C(=O)O[Si](C)(C)C
accession=JP000600
date=2016.01.19 (Created 2008.10.21, modified 2011.05.06)
author=KOGA M, UNIV. OF OCCUPATIONAL AND ENVIRONMENTAL HEALTH
license=CC BY-NC-SA
exact mass=426.13502
ionization energy=70 eV
ion type=[M]+*
computed spectral entropy=2.163703650596513
computed normalized entropy=0.7348441132269786
SPLASH=splash10-004i-9000000000-bf4b1989ded36fc308a5
submitter=submitter = University of Tokyo Team (Faculty of Engineering, University of Tokyo)
MoNA Rating=3.75

>  <NUM PEAKS>  (7077) 
19

>  <MASS SPECTRAL PEAKS>  (7077) 
43 17.2
45 14.1
47 21.5
49 1.18
59 5.1
61 5.1
63 5.5
65 0.61
73 28.4
74 5.3
75 71.9
76 0.61
77 99.99
78 6.3
81 6.3
93 3.25
95 12
100 5.5
147 2.4

$$$$

     RDKit          2D

 27 27  0  0  0  0  0  0  0  0999 V2000
   -2.4107   -0.0769    0.0000 C   0  0  0  0  0  0  0  0  0  0  0  0
   -4.4597   -0.6263    0.0000 C   0  0  0  0  0  0  0  0  0  0  0  0
   -3.9103   -2.6752    0.0000 C   0  0  0  0  0  0  0  0  0  0  0  0
    7.9824   -2.6753    0.0000 C   0  0  0  0  0  0  0  0  0  0  0  0
    8.5314   -0.6263    0.0000 C   0  0  0  0  0  0  0  0  0  0  0  0
    6.4824   -0.0773    0.0000 C   0  0  0  0  0  0  0  0  0  0  0  0
    2.2373    2.3745    0.0000 C   0  0  0  0  0  0  0  0  0  0  0  0
    0.7376    3.8747    0.0000 C   0  0  0  0  0  0  0  0  0  0  0  0
   -0.7627    2.3750    0.0000 C   0  0  0  0  0  0  0  0  0  0  0  0
    2.0367   -4.3771    0.0000 C   0  0  0  0  0  0  0  0  0  0  0  0
    0.7372   -3.6263    0.0000 C   0  0  0  0  0  0  0  0  0  0  0  0
    3.3358   -3.6271    0.0000 C   0  0  0  0  0  0  0  0  0  0  0  0
    0.7367   -2.1255    0.0000 C   0  0  0  0  0  0  0  0  0  0  0  0
    3.3353   -2.1263    0.0000 C   0  0  0  0  0  0  0  0  0  0  0  0
    2.0358   -1.3755    0.0000 C   0  0  0  0  0  0  0  0  0  0  0  0
   -0.5624   -1.3757    0.0000 C   0  0  0  0  0  0  0  0  0  0  0  0
    4.6343   -1.3763    0.0000 C   0  0  0  0  0  0  0  0  0  0  0  0
    2.0360    0.1245    0.0000 C   0  0  0  0  0  0  0  0  0  0  0  0
   -0.5627    0.1243    0.0000 O   0  0  0  0  0  0  0  0  0  0  0  0
    4.6343    0.1237    0.0000 O   0  0  0  0  0  0  0  0  0  0  0  0
    3.3352    0.8743    0.0000 O   0  0  0  0  0  0  0  0  0  0  0  0
   -1.8613   -2.1259    0.0000 O   0  0  0  0  0  0  0  0  0  0  0  0
    5.9334   -2.1263    0.0000 O   0  0  0  0  0  0  0  0  0  0  0  0
    0.7371    0.8747    0.0000 O   0  0  0  0  0  0  0  0  0  0  0  0
   -3.1605   -1.3761    0.0000 Si  0  0  0  0  0  4  0  0  0  0  0  0
    7.2324   -1.3763    0.0000 Si  0  0  0  0  0  4  0  0  0  0  0  0
    0.7373    2.3747    0.0000 Si  0  0  0  0  0  4  0  0  0  0  0  0
 11 10  2  0
 12 10  1  0
 13 11  1  0
 14 12  2  0
 15 13  2  0
 15 14  1  0
 16 13  1  0
 17 14  1  0
 18 15  1  0
 19 16  2  0
 20 17  2  0
 21 18  2  0
 22 16  1  0
 23 17  1  0
 24 18  1  0
 25  1  1  0
 25  2  1  0
 25  3  1  0
 25 22  1  0
 26  4  1  0
 26  5  1  0
 26  6  1  0
 26 23  1  0
 27  7  1  0
 27  8  1  0
 27  9  1  0
 27 24  1  0
M  END
>  <NAME>  (7078) 
1,2,3-BENZENETRICARBOXYLIC ACID TRI(TRIMETHYLSILYL) ESTER

>  <SYNONYMS>  (7078) 


>  <SPECTRUM TYPE>  (7078) 
MS1

>  <INSTRUMENT TYPE>  (7078) 
EI-B

>  <INSTRUMENT>  (7078) 
JEOL JMS-01-SG

>  <ION MODE>  (7078) 
P

>  <INCHIKEY>  (7078) 
MCOGBFHSUQCHJJ-UHFFFAOYSA-N

>  <FORMULA>  (7078) 
C18H30O6Si3

>  <EXACT MASS>  (7078) 
426.13501827

>  <MW>  (7078) 
426

>  <ID>  (7078) 
JP000599

>  <CONTRIBUTOR>  (7078) 
University of Tokyo Team, {Faculty of Engineering, University of Tokyo

>  <COMMENT>  (7078) 
SMILES=C[Si](C)(C)OC(=O)c(c1)c(C(=O)O[Si](C)(C)C)c(cc1)C(=O)O[Si](C)(C)C
InChI=InChI=1S/C18H30O6Si3/c1-25(2,3)22-16(19)13-11-10-12-14(17(20)23-26(4,5)6)15(13)18(21)24-27(7,8)9/h10-12H,1-9H3
computed SMILES=O=C(O[Si](C)(C)C)C1=CC=CC(C(=O)O[Si](C)(C)C)=C1C(=O)O[Si](C)(C)C
accession=JP000599
date=2016.01.19 (Created 2008.10.21, modified 2011.05.06)
author=KOGA M, UNIV. OF OCCUPATIONAL AND ENVIRONMENTAL HEALTH
license=CC BY-NC-SA
exact mass=426.13502
ionization energy=70 eV
ion type=[M]+*
computed spectral entropy=2.2670480655549787
computed normalized entropy=0.8371514178844477
SPLASH=splash10-004m-9000000000-269c457c4020cfa02b7f
submitter=submitter = University of Tokyo Team (Faculty of Engineering, University of Tokyo)
MoNA Rating=3.75

>  <NUM PEAKS>  (7078) 
15

>  <MASS SPECTRAL PEAKS>  (7078) 
43 22.4
45 8.5
47 24.7
49 1.28
63 12.6
65 17.9
73 43.1
75 9.14
76 13.3
77 99.99
93 75
94 0.88
95 27.2
147 12.1
249 17.6

$$$$

     RDKit          2D

 20 20  0  0  0  0  0  0  0  0999 V2000
   -5.9472   -0.2017    0.0000 C   0  0  0  0  0  0  0  0  0  0  0  0
   -6.4959   -2.2508    0.0000 C   0  0  0  0  0  0  0  0  0  0  0  0
   -4.4468   -2.7995    0.0000 C   0  0  0  0  0  0  0  0  0  0  0  0
    5.9472    0.2017    0.0000 C   0  0  0  0  0  0  0  0  0  0  0  0
    6.4959    2.2508    0.0000 C   0  0  0  0  0  0  0  0  0  0  0  0
    4.4468    2.7995    0.0000 C   0  0  0  0  0  0  0  0  0  0  0  0
   -1.3000    0.7500    0.0000 C   0  0  0  0  0  0  0  0  0  0  0  0
   -0.0000   -1.5000    0.0000 C   0  0  0  0  0  0  0  0  0  0  0  0
    0.0000    1.5000    0.0000 C   0  0  0  0  0  0  0  0  0  0  0  0
    1.3000   -0.7500    0.0000 C   0  0  0  0  0  0  0  0  0  0  0  0
   -1.3000   -0.7500    0.0000 C   0  0  0  0  0  0  0  0  0  0  0  0
    1.3000    0.7500    0.0000 C   0  0  0  0  0  0  0  0  0  0  0  0
   -2.5989   -1.5002    0.0000 C   0  0  0  0  0  0  0  0  0  0  0  0
    2.5989    1.5002    0.0000 C   0  0  0  0  0  0  0  0  0  0  0  0
   -2.5987   -3.0002    0.0000 O   0  0  0  0  0  0  0  0  0  0  0  0
    2.5987    3.0002    0.0000 O   0  0  0  0  0  0  0  0  0  0  0  0
   -3.8981   -0.7504    0.0000 O   0  0  0  0  0  0  0  0  0  0  0  0
    3.8981    0.7504    0.0000 O   0  0  0  0  0  0  0  0  0  0  0  0
   -5.1970   -1.5006    0.0000 Si  0  0  0  0  0  4  0  0  0  0  0  0
    5.1970    1.5006    0.0000 Si  0  0  0  0  0  4  0  0  0  0  0  0
  9  7  2  0
 10  8  1  0
 11  7  1  0
 11  8  2  0
 12  9  1  0
 12 10  2  0
 13 11  1  0
 14 12  1  0
 15 13  2  0
 16 14  2  0
 17 13  1  0
 18 14  1  0
 19  1  1  0
 19  2  1  0
 19  3  1  0
 19 17  1  0
 20  4  1  0
 20  5  1  0
 20  6  1  0
 20 18  1  0
M  END
>  <NAME>  (7079) 
TEREPHTHALIC ACID BIS(TRIMETHYLSILYL) ESTER

>  <SYNONYMS>  (7079) 


>  <SPECTRUM TYPE>  (7079) 
MS1

>  <INSTRUMENT TYPE>  (7079) 
EI-B

>  <INSTRUMENT>  (7079) 
JEOL JMS-01-SG

>  <ION MODE>  (7079) 
P

>  <INCHIKEY>  (7079) 
XNDCJULFVFHXBR-UHFFFAOYSA-N

>  <FORMULA>  (7079) 
C14H22O4Si2

>  <EXACT MASS>  (7079) 
310.105662244

>  <MW>  (7079) 
310

>  <ID>  (7079) 
JP000598

>  <CONTRIBUTOR>  (7079) 
University of Tokyo Team, {Faculty of Engineering, University of Tokyo

>  <COMMENT>  (7079) 
SMILES=O=C(O[Si](C)(C)C)c(c1)ccc(c1)C(=O)O[Si](C)(C)C
InChI=InChI=1S/C14H22O4Si2/c1-19(2,3)17-13(15)11-7-9-12(10-8-11)14(16)18-20(4,5)6/h7-10H,1-6H3
computed SMILES=O=C(O[Si](C)(C)C)C1=CC=C(C=C1)C(=O)O[Si](C)(C)C
accession=JP000598
date=2016.01.19 (Created 2008.10.21, modified 2011.05.06)
author=KOGA M, UNIV. OF OCCUPATIONAL AND ENVIRONMENTAL HEALTH
license=CC BY-NC-SA
exact mass=310.10566
ionization energy=70 eV
ion type=[M]+*
computed spectral entropy=2.423609324533169
computed normalized entropy=0.838511280741706
SPLASH=splash10-004j-9130000000-a708c8ed2ca54752a6cb
submitter=submitter = University of Tokyo Team (Faculty of Engineering, University of Tokyo)
MoNA Rating=3.75

>  <NUM PEAKS>  (7079) 
18

>  <MASS SPECTRAL PEAKS>  (7079) 
43 11.8
47 11.1
49 8.6
63 0.99
65 11.1
73 36
75 36.6
76 1.61
77 99.99
78 19.2
93 38.5
95 1.42
103 34.1
104 10.5
221 25.4
251 1.8
295 64.5
296 16.7

$$$$

     RDKit          2D

 20 20  0  0  0  0  0  0  0  0999 V2000
   -0.1353    4.6903    0.0000 C   0  0  0  0  0  0  0  0  0  0  0  0
   -1.6378    6.1878    0.0000 C   0  0  0  0  0  0  0  0  0  0  0  0
   -3.1353    4.6853    0.0000 C   0  0  0  0  0  0  0  0  0  0  0  0
    5.6172   -0.3583    0.0000 C   0  0  0  0  0  0  0  0  0  0  0  0
    6.1659    1.6908    0.0000 C   0  0  0  0  0  0  0  0  0  0  0  0
    4.1168    2.2395    0.0000 C   0  0  0  0  0  0  0  0  0  0  0  0
   -1.6200   -1.3100    0.0000 C   0  0  0  0  0  0  0  0  0  0  0  0
   -0.3300   -2.0600    0.0000 C   0  0  0  0  0  0  0  0  0  0  0  0
   -1.6200    0.1900    0.0000 C   0  0  0  0  0  0  0  0  0  0  0  0
    0.9700   -1.3100    0.0000 C   0  0  0  0  0  0  0  0  0  0  0  0
   -0.3300    0.9400    0.0000 C   0  0  0  0  0  0  0  0  0  0  0  0
    0.9700    0.1900    0.0000 C   0  0  0  0  0  0  0  0  0  0  0  0
   -0.3325    2.4400    0.0000 C   0  0  0  0  0  0  0  0  0  0  0  0
    2.2689    0.9402    0.0000 C   0  0  0  0  0  0  0  0  0  0  0  0
    0.9653    3.1922    0.0000 O   0  0  0  0  0  0  0  0  0  0  0  0
    2.2687    2.4402    0.0000 O   0  0  0  0  0  0  0  0  0  0  0  0
   -1.6328    3.1878    0.0000 O   0  0  0  0  0  0  0  0  0  0  0  0
    3.5681    0.1904    0.0000 O   0  0  0  0  0  0  0  0  0  0  0  0
   -1.6353    4.6878    0.0000 Si  0  0  0  0  0  4  0  0  0  0  0  0
    4.8670    0.9406    0.0000 Si  0  0  0  0  0  4  0  0  0  0  0  0
  8  7  2  0
  9  7  1  0
 10  8  1  0
 11  9  2  0
 12 10  2  0
 12 11  1  0
 13 11  1  0
 14 12  1  0
 15 13  2  0
 16 14  2  0
 17 13  1  0
 18 14  1  0
 19  1  1  0
 19  2  1  0
 19  3  1  0
 19 17  1  0
 20  4  1  0
 20  5  1  0
 20  6  1  0
 20 18  1  0
M  END
>  <NAME>  (7080) 
ORTHO-PHTHALIC ACID BIS(TRIMETHYLSILYL) ESTER

>  <SYNONYMS>  (7080) 


>  <SPECTRUM TYPE>  (7080) 
MS1

>  <INSTRUMENT TYPE>  (7080) 
EI-B

>  <INSTRUMENT>  (7080) 
JEOL JMS-01-SG

>  <ION MODE>  (7080) 
P

>  <INCHIKEY>  (7080) 
JUZOFKLPPHUUMC-UHFFFAOYSA-N

>  <FORMULA>  (7080) 
C14H22O4Si2

>  <EXACT MASS>  (7080) 
310.105662244

>  <MW>  (7080) 
310

>  <ID>  (7080) 
JP000597

>  <CONTRIBUTOR>  (7080) 
University of Tokyo Team, {Faculty of Engineering, University of Tokyo

>  <COMMENT>  (7080) 
SMILES=C[Si](C)(C)OC(=O)c(c1)c(ccc1)C(=O)O[Si](C)(C)C
InChI=InChI=1S/C14H22O4Si2/c1-19(2,3)17-13(15)11-9-7-8-10-12(11)14(16)18-20(4,5)6/h7-10H,1-6H3
computed SMILES=O=C(O[Si](C)(C)C)C=1C=CC=CC1C(=O)O[Si](C)(C)C
accession=JP000597
date=2016.01.19 (Created 2008.10.21, modified 2011.05.06)
author=KOGA M, UNIV. OF OCCUPATIONAL AND ENVIRONMENTAL HEALTH
license=CC BY-NC-SA
exact mass=310.10566
ionization energy=70 eV
ion type=[M]+*
computed spectral entropy=2.2239770492471176
computed normalized entropy=0.7694432535093338
SPLASH=splash10-004i-9000000000-3feb64209e817aaae155
submitter=submitter = University of Tokyo Team (Faculty of Engineering, University of Tokyo)
MoNA Rating=3.75

>  <NUM PEAKS>  (7080) 
18

>  <MASS SPECTRAL PEAKS>  (7080) 
43 11.1
47 11.6
49 20.3
63 0.65
65 8.1
73 30.4
75 9.1
76 1.16
77 99.99
78 7.6
79 14.2
93 3.6
94 6
95 12.6
221 5.5
279 5.5
295 2.43
296 6

$$$$

     RDKit          2D

 23 23  0  0  0  0  0  0  0  0999 V2000
    3.5304    3.3183    0.0000 C   0  0  0  0  0  0  0  0  0  0  0  0
    2.0313    4.8192    0.0000 C   0  0  0  0  0  0  0  0  0  0  0  0
    0.5304    3.3201    0.0000 C   0  0  0  0  0  0  0  0  0  0  0  0
   -2.6198   -2.1194    0.0000 C   0  0  0  0  0  0  0  0  0  0  0  0
   -3.1704   -4.1680    0.0000 C   0  0  0  0  0  0  0  0  0  0  0  0
   -1.1217   -4.7186    0.0000 C   0  0  0  0  0  0  0  0  0  0  0  0
    3.8768   -2.4695    0.0000 C   0  0  0  0  0  0  0  0  0  0  0  0
    5.9259   -1.9208    0.0000 C   0  0  0  0  0  0  0  0  0  0  0  0
    5.3772    0.1283    0.0000 C   0  0  0  0  0  0  0  0  0  0  0  0
   -1.9000    1.1000    0.0000 C   0  0  0  0  0  0  0  0  0  0  0  0
   -0.6000    1.8400    0.0000 C   0  0  0  0  0  0  0  0  0  0  0  0
   -1.9000   -0.4000    0.0000 C   0  0  0  0  0  0  0  0  0  0  0  0
    0.7300    1.0700    0.0000 C   0  0  0  0  0  0  0  0  0  0  0  0
   -0.5700   -1.1700    0.0000 C   0  0  0  0  0  0  0  0  0  0  0  0
    0.7300   -0.4200    0.0000 C   0  0  0  0  0  0  0  0  0  0  0  0
    2.0289   -1.1702    0.0000 C   0  0  0  0  0  0  0  0  0  0  0  0
    2.0287   -2.6702    0.0000 O   0  0  0  0  0  0  0  0  0  0  0  0
    2.0295    1.8192    0.0000 O   0  0  0  0  0  0  0  0  0  0  0  0
   -0.5711   -2.6700    0.0000 O   0  0  0  0  0  0  0  0  0  0  0  0
    3.3281   -0.4204    0.0000 O   0  0  0  0  0  0  0  0  0  0  0  0
    2.0304    3.3192    0.0000 Si  0  0  0  0  0  4  0  0  0  0  0  0
   -1.8707   -3.4190    0.0000 Si  0  0  0  0  0  4  0  0  0  0  0  0
    4.6270   -1.1706    0.0000 Si  0  0  0  0  0  4  0  0  0  0  0  0
 11 10  2  0
 12 10  1  0
 13 11  1  0
 14 12  2  0
 15 13  2  0
 15 14  1  0
 16 15  1  0
 17 16  2  0
 18 13  1  0
 19 14  1  0
 20 16  1  0
 21  1  1  0
 21  2  1  0
 21  3  1  0
 21 18  1  0
 22  4  1  0
 22  5  1  0
 22  6  1  0
 22 19  1  0
 23  7  1  0
 23  8  1  0
 23  9  1  0
 23 20  1  0
M  END
>  <NAME>  (7081) 
2,6-BIS(TRIMETHYLSILYLOXY)BENZOIC ACID TRIMETHYLSILYL ESTER

>  <SYNONYMS>  (7081) 


>  <SPECTRUM TYPE>  (7081) 
MS1

>  <INSTRUMENT TYPE>  (7081) 
EI-B

>  <INSTRUMENT>  (7081) 
JEOL JMS-01-SG

>  <ION MODE>  (7081) 
P

>  <INCHIKEY>  (7081) 
APVNJYLNHAHELF-UHFFFAOYSA-N

>  <FORMULA>  (7081) 
C16H30O4Si3

>  <EXACT MASS>  (7081) 
370.14518903

>  <MW>  (7081) 
370

>  <ID>  (7081) 
JP000596

>  <CONTRIBUTOR>  (7081) 
University of Tokyo Team, {Faculty of Engineering, University of Tokyo

>  <COMMENT>  (7081) 
SMILES=C[Si](C)(C)OC(=O)c(c1O[Si](C)(C)C)c(ccc1)O[Si](C)(C)C
InChI=InChI=1S/C16H30O4Si3/c1-21(2,3)18-13-11-10-12-14(19-22(4,5)6)15(13)16(17)20-23(7,8)9/h10-12H,1-9H3
computed SMILES=O=C(O[Si](C)(C)C)C=1C(O[Si](C)(C)C)=CC=CC1O[Si](C)(C)C
accession=JP000596
date=2016.01.19 (Created 2008.10.21, modified 2011.05.06)
author=KOGA M, UNIV. OF OCCUPATIONAL AND ENVIRONMENTAL HEALTH
license=CC BY-NC-SA
exact mass=370.14519
ionization energy=70 eV
ion type=[M]+*
computed spectral entropy=1.993414806041724
computed normalized entropy=0.755351080733187
SPLASH=splash10-00di-9012000000-2cba1c7d30947fa74a3b
submitter=submitter = University of Tokyo Team (Faculty of Engineering, University of Tokyo)
MoNA Rating=3.75

>  <NUM PEAKS>  (7081) 
14

>  <MASS SPECTRAL PEAKS>  (7081) 
45 38.9
47 6.8
73 99.99
74 0.97
75 19.1
77 13.4
133 6.8
147 1.65
149 7.1
249 10.2
265 12.3
267 1.6
355 44.9
356 5.8

$$$$

     RDKit          2D

 18 18  0  0  0  0  0  0  0  0999 V2000
    5.7338   -2.1254    0.0000 C   0  0  0  0  0  0  0  0  0  0  0  0
    6.2659   -0.0719    0.0000 C   0  0  0  0  0  0  0  0  0  0  0  0
    4.2124    0.4602    0.0000 C   0  0  0  0  0  0  0  0  0  0  0  0
   -3.3710    2.7294    0.0000 C   0  0  0  0  0  0  0  0  0  0  0  0
   -5.4227    2.1905    0.0000 C   0  0  0  0  0  0  0  0  0  0  0  0
   -4.8837    0.1388    0.0000 C   0  0  0  0  0  0  0  0  0  0  0  0
    1.0651    1.4149    0.0000 C   0  0  0  0  0  0  0  0  0  0  0  0
   -0.2485   -0.8099    0.0000 C   0  0  0  0  0  0  0  0  0  0  0  0
    2.3496    0.6901    0.0000 C   0  0  0  0  0  0  0  0  0  0  0  0
    1.0760   -1.6041    0.0000 C   0  0  0  0  0  0  0  0  0  0  0  0
   -0.2340    0.6649    0.0000 C   0  0  0  0  0  0  0  0  0  0  0  0
    2.3751   -0.8541    0.0000 C   0  0  0  0  0  0  0  0  0  0  0  0
   -1.5293    1.4213    0.0000 C   0  0  0  0  0  0  0  0  0  0  0  0
   -1.5219    2.9213    0.0000 O   0  0  0  0  0  0  0  0  0  0  0  0
    3.6803   -1.5933    0.0000 O   0  0  0  0  0  0  0  0  0  0  0  0
   -2.8320    0.6777    0.0000 O   0  0  0  0  0  0  0  0  0  0  0  0
    4.9731   -0.8326    0.0000 Si  0  0  0  0  0  4  0  0  0  0  0  0
   -4.1273    1.4341    0.0000 Si  0  0  0  0  0  4  0  0  0  0  0  0
  9  7  2  0
 10  8  1  0
 11  7  1  0
 11  8  2  0
 12  9  1  0
 12 10  2  0
 13 11  1  0
 14 13  2  0
 15 12  1  0
 16 13  1  0
 17  1  1  0
 17  2  1  0
 17  3  1  0
 17 15  1  0
 18  4  1  0
 18  5  1  0
 18  6  1  0
 18 16  1  0
M  END
>  <NAME>  (7082) 
4-TRIMETHYLSILYLOXYBENZOIC ACID TRIMETHYLSILYL ESTER

>  <SYNONYMS>  (7082) 


>  <SPECTRUM TYPE>  (7082) 
MS1

>  <INSTRUMENT TYPE>  (7082) 
EI-B

>  <INSTRUMENT>  (7082) 
JEOL JMS-01-SG

>  <ION MODE>  (7082) 
P

>  <INCHIKEY>  (7082) 
XVCXIVAVMFNKDH-UHFFFAOYSA-N

>  <FORMULA>  (7082) 
C13H22O3Si2

>  <EXACT MASS>  (7082) 
282.110747624

>  <MW>  (7082) 
282

>  <ID>  (7082) 
JP000595

>  <CONTRIBUTOR>  (7082) 
University of Tokyo Team, {Faculty of Engineering, University of Tokyo

>  <COMMENT>  (7082) 
SMILES=O=C(O[Si](C)(C)C)c(c1)ccc(c1)O[Si](C)(C)C
InChI=InChI=1S/C13H22O3Si2/c1-17(2,3)15-12-9-7-11(8-10-12)13(14)16-18(4,5)6/h7-10H,1-6H3
computed SMILES=O=C(O[Si](C)(C)C)C1=CC=C(O[Si](C)(C)C)C=C1
accession=JP000595
date=2016.01.19 (Created 2008.10.21, modified 2011.05.06)
author=KOGA M, UNIV. OF OCCUPATIONAL AND ENVIRONMENTAL HEALTH
license=CC BY-NC-SA
exact mass=282.11075
ionization energy=70 eV
ion type=[M]+*
computed spectral entropy=2.328847692685117
computed normalized entropy=0.8057260061177154
SPLASH=splash10-00di-9130000000-dad4cbc70e4a4334acb8
submitter=submitter = University of Tokyo Team (Faculty of Engineering, University of Tokyo)
MoNA Rating=3.75

>  <NUM PEAKS>  (7082) 
18

>  <MASS SPECTRAL PEAKS>  (7082) 
43 14.2
45 40.7
47 7.8
73 99.99
74 10.2
75 17.1
76 6.5
77 1.35
89 6.9
91 7.1
126 12.4
147 0.73
193 31.6
223 45.1
224 10.7
267 3.49
268 8.5
282 6.5

$$$$

     RDKit          2D

 15 15  0  0  0  0  0  0  0  0999 V2000
    0.0000    3.0000    0.0000 C   0  0  0  0  0  0  0  0  0  0  0  0
    2.5989   -1.5002    0.0000 C   0  0  0  0  0  0  0  0  0  0  0  0
   -5.9472   -0.2017    0.0000 C   0  0  0  0  0  0  0  0  0  0  0  0
   -6.4959   -2.2508    0.0000 C   0  0  0  0  0  0  0  0  0  0  0  0
   -4.4468   -2.7995    0.0000 C   0  0  0  0  0  0  0  0  0  0  0  0
    1.3000    0.7500    0.0000 C   0  0  0  0  0  0  0  0  0  0  0  0
   -1.3000    0.7500    0.0000 C   0  0  0  0  0  0  0  0  0  0  0  0
    0.0000   -1.5000    0.0000 C   0  0  0  0  0  0  0  0  0  0  0  0
    0.0000    1.5000    0.0000 C   0  0  0  0  0  0  0  0  0  0  0  0
    1.3000   -0.7500    0.0000 C   0  0  0  0  0  0  0  0  0  0  0  0
   -1.3000   -0.7500    0.0000 C   0  0  0  0  0  0  0  0  0  0  0  0
   -2.5989   -1.5002    0.0000 C   0  0  0  0  0  0  0  0  0  0  0  0
   -2.5987   -3.0002    0.0000 O   0  0  0  0  0  0  0  0  0  0  0  0
   -3.8981   -0.7504    0.0000 O   0  0  0  0  0  0  0  0  0  0  0  0
   -5.1970   -1.5006    0.0000 Si  0  0  0  0  0  4  0  0  0  0  0  0
  9  1  1  0
  9  6  2  0
  9  7  1  0
 10  2  1  0
 10  6  1  0
 10  8  2  0
 11  7  2  0
 11  8  1  0
 12 11  1  0
 13 12  2  0
 14 12  1  0
 15  3  1  0
 15  4  1  0
 15  5  1  0
 15 14  1  0
M  END
>  <NAME>  (7083) 
3,5-DIMETHYLBENZOIC ACID TRIMETHYLSILYL ESTER

>  <SYNONYMS>  (7083) 


>  <SPECTRUM TYPE>  (7083) 
MS1

>  <INSTRUMENT TYPE>  (7083) 
EI-B

>  <INSTRUMENT>  (7083) 
JEOL JMS-01-SG

>  <ION MODE>  (7083) 
P

>  <INCHIKEY>  (7083) 
GBGATKYBYBVWNS-UHFFFAOYSA-N

>  <FORMULA>  (7083) 
C12H18O2Si

>  <EXACT MASS>  (7083) 
222.107606346

>  <MW>  (7083) 
222

>  <ID>  (7083) 
JP000594

>  <CONTRIBUTOR>  (7083) 
University of Tokyo Team, {Faculty of Engineering, University of Tokyo

>  <COMMENT>  (7083) 
SMILES=Cc(c1)cc(cc(C)1)C(=O)O[Si](C)(C)C
InChI=InChI=1S/C12H18O2Si/c1-9-6-10(2)8-11(7-9)12(13)14-15(3,4)5/h6-8H,1-5H3
computed SMILES=O=C(O[Si](C)(C)C)C=1C=C(C=C(C1)C)C
accession=JP000594
date=2016.01.19 (Created 2008.10.21, modified 2011.05.06)
author=KOGA M, UNIV. OF OCCUPATIONAL AND ENVIRONMENTAL HEALTH
license=CC BY-NC-SA
exact mass=222.10761
ionization energy=70 eV
ion type=[M]+*
computed spectral entropy=2.698580771444705
computed normalized entropy=0.8491299756081394
SPLASH=splash10-06us-8940000000-88ac9f828d0097d2b069
submitter=submitter = University of Tokyo Team (Faculty of Engineering, University of Tokyo)
MoNA Rating=3.75

>  <NUM PEAKS>  (7083) 
24

>  <MASS SPECTRAL PEAKS>  (7083) 
44 36.2
45 31.3
47 13.5
58 1.18
63 11.3
65 11.8
73 12.4
75 1.24
77 38.9
78 15.6
79 43.7
81 1.29
96 19.4
103 22.1
104 12.4
105 6.1
133 99.99
134 12.9
163 96.2
164 1.45
207 75.1
208 21
209 11.8
222 11.8

$$$$

     RDKit          2D

 15 15  0  0  0  0  0  0  0  0999 V2000
   -2.5989   -1.5002    0.0000 C   0  0  0  0  0  0  0  0  0  0  0  0
   -0.0000   -3.0000    0.0000 C   0  0  0  0  0  0  0  0  0  0  0  0
    4.6478    2.4515    0.0000 C   0  0  0  0  0  0  0  0  0  0  0  0
    5.1965    4.5006    0.0000 C   0  0  0  0  0  0  0  0  0  0  0  0
    3.1474    5.0493    0.0000 C   0  0  0  0  0  0  0  0  0  0  0  0
   -1.3000    0.7500    0.0000 C   0  0  0  0  0  0  0  0  0  0  0  0
    0.0000    1.5000    0.0000 C   0  0  0  0  0  0  0  0  0  0  0  0
    1.3000   -0.7500    0.0000 C   0  0  0  0  0  0  0  0  0  0  0  0
   -1.3000   -0.7500    0.0000 C   0  0  0  0  0  0  0  0  0  0  0  0
   -0.0000   -1.5000    0.0000 C   0  0  0  0  0  0  0  0  0  0  0  0
    1.3000    0.7500    0.0000 C   0  0  0  0  0  0  0  0  0  0  0  0
    2.5989    1.5002    0.0000 C   0  0  0  0  0  0  0  0  0  0  0  0
    3.8981    0.7504    0.0000 O   0  0  0  0  0  0  0  0  0  0  0  0
    2.5987    3.0002    0.0000 O   0  0  0  0  0  0  0  0  0  0  0  0
    3.8976    3.7504    0.0000 Si  0  0  0  0  0  4  0  0  0  0  0  0
  7  6  2  0
  9  1  1  0
  9  6  1  0
 10  2  1  0
 10  8  1  0
 10  9  2  0
 11  7  1  0
 11  8  2  0
 12 11  1  0
 13 12  2  0
 14 12  1  0
 15  3  1  0
 15  4  1  0
 15  5  1  0
 15 14  1  0
M  END
>  <NAME>  (7084) 
3,4-DIMETHYLBENZOIC ACID TRIMETHYLSILYL ESTER

>  <SYNONYMS>  (7084) 


>  <SPECTRUM TYPE>  (7084) 
MS1

>  <INSTRUMENT TYPE>  (7084) 
EI-B

>  <INSTRUMENT>  (7084) 
JEOL JMS-01-SG

>  <ION MODE>  (7084) 
P

>  <INCHIKEY>  (7084) 
GVQLTVPJABMNKV-UHFFFAOYSA-N

>  <FORMULA>  (7084) 
C12H18O2Si

>  <EXACT MASS>  (7084) 
222.107606346

>  <MW>  (7084) 
222

>  <ID>  (7084) 
JP000593

>  <CONTRIBUTOR>  (7084) 
University of Tokyo Team, {Faculty of Engineering, University of Tokyo

>  <COMMENT>  (7084) 
SMILES=Cc(c1)c(C)cc(c1)C(=O)O[Si](C)(C)C
InChI=InChI=1S/C12H18O2Si/c1-9-6-7-11(8-10(9)2)12(13)14-15(3,4)5/h6-8H,1-5H3
computed SMILES=O=C(O[Si](C)(C)C)C1=CC=C(C(=C1)C)C
accession=JP000593
date=2016.01.19 (Created 2008.10.21, modified 2011.05.06)
author=KOGA M, UNIV. OF OCCUPATIONAL AND ENVIRONMENTAL HEALTH
license=CC BY-NC-SA
exact mass=222.10761
ionization energy=70 eV
ion type=[M]+*
computed spectral entropy=2.4734632628156614
computed normalized entropy=0.8124306236564386
SPLASH=splash10-0a7i-6940000000-a23337deba408574f651
submitter=submitter = University of Tokyo Team (Faculty of Engineering, University of Tokyo)
MoNA Rating=3.75

>  <NUM PEAKS>  (7084) 
21

>  <MASS SPECTRAL PEAKS>  (7084) 
45 14.8
47 7.5
51 6.5
53 0.65
73 10
75 8.4
77 32.6
78 0.92
79 30
96 25
103 20.5
104 0.83
105 38.5
133 99.99
134 10
163 9.44
164 14.8
165 6.3
207 78.8
208 1.36
222 10.2

$$$$

     RDKit          2D

 15 15  0  0  0  0  0  0  0  0999 V2000
   -2.5989   -1.5002    0.0000 C   0  0  0  0  0  0  0  0  0  0  0  0
    2.5989   -1.5002    0.0000 C   0  0  0  0  0  0  0  0  0  0  0  0
    4.6478    2.4515    0.0000 C   0  0  0  0  0  0  0  0  0  0  0  0
    5.1965    4.5006    0.0000 C   0  0  0  0  0  0  0  0  0  0  0  0
    3.1474    5.0493    0.0000 C   0  0  0  0  0  0  0  0  0  0  0  0
   -1.3000    0.7500    0.0000 C   0  0  0  0  0  0  0  0  0  0  0  0
    0.0000    1.5000    0.0000 C   0  0  0  0  0  0  0  0  0  0  0  0
   -0.0000   -1.5000    0.0000 C   0  0  0  0  0  0  0  0  0  0  0  0
   -1.3000   -0.7500    0.0000 C   0  0  0  0  0  0  0  0  0  0  0  0
    1.3000   -0.7500    0.0000 C   0  0  0  0  0  0  0  0  0  0  0  0
    1.3000    0.7500    0.0000 C   0  0  0  0  0  0  0  0  0  0  0  0
    2.5989    1.5002    0.0000 C   0  0  0  0  0  0  0  0  0  0  0  0
    3.8981    0.7504    0.0000 O   0  0  0  0  0  0  0  0  0  0  0  0
    2.5987    3.0002    0.0000 O   0  0  0  0  0  0  0  0  0  0  0  0
    3.8976    3.7504    0.0000 Si  0  0  0  0  0  4  0  0  0  0  0  0
  7  6  2  0
  9  1  1  0
  9  6  1  0
  9  8  2  0
 10  2  1  0
 10  8  1  0
 11  7  1  0
 11 10  2  0
 12 11  1  0
 13 12  2  0
 14 12  1  0
 15  3  1  0
 15  4  1  0
 15  5  1  0
 15 14  1  0
M  END
>  <NAME>  (7085) 
2,4-DIMETHYLBENZOIC ACID TRIMETHYLSILYL ESTER

>  <SYNONYMS>  (7085) 


>  <SPECTRUM TYPE>  (7085) 
MS1

>  <INSTRUMENT TYPE>  (7085) 
EI-B

>  <INSTRUMENT>  (7085) 
JEOL JMS-01-SG

>  <ION MODE>  (7085) 
P

>  <INCHIKEY>  (7085) 
MYTFEBMPQUXFJH-UHFFFAOYSA-N

>  <FORMULA>  (7085) 
C12H18O2Si

>  <EXACT MASS>  (7085) 
222.107606346

>  <MW>  (7085) 
222

>  <ID>  (7085) 
JP000592

>  <CONTRIBUTOR>  (7085) 
University of Tokyo Team, {Faculty of Engineering, University of Tokyo

>  <COMMENT>  (7085) 
computed SMILES=O=C(O[Si](C)(C)C)C1=CC=C(C=C1C)C
SMILES=Cc(c1)cc(C)c(c1)C(=O)O[Si](C)(C)C
InChI=InChI=1S/C12H18O2Si/c1-9-6-7-11(10(2)8-9)12(13)14-15(3,4)5/h6-8H,1-5H3
accession=JP000592
date=2016.01.19 (Created 2008.10.21, modified 2011.05.06)
author=KOGA M, UNIV. OF OCCUPATIONAL AND ENVIRONMENTAL HEALTH
license=CC BY-NC-SA
exact mass=222.10761
ionization energy=70 eV
ion type=[M]+*
computed spectral entropy=2.0905322978046117
computed normalized entropy=0.792151149709728
SPLASH=splash10-001i-2910000000-49bdde97d7a8054550bc
submitter=submitter = University of Tokyo Team (Faculty of Engineering, University of Tokyo)
MoNA Rating=3.75

>  <NUM PEAKS>  (7085) 
14

>  <MASS SPECTRAL PEAKS>  (7085) 
45 13.5
73 10.9
77 13.5
79 1.41
96 9.7
103 9.2
104 9.5
105 2.19
132 24.2
133 99.99
163 39.4
207 4.84
208 11.2
222 12.1

$$$$

     RDKit          2D

 14 14  0  0  0  0  0  0  0  0999 V2000
   -2.5989   -1.5002    0.0000 C   0  0  0  0  0  0  0  0  0  0  0  0
    5.9472    0.2017    0.0000 C   0  0  0  0  0  0  0  0  0  0  0  0
    6.4959    2.2508    0.0000 C   0  0  0  0  0  0  0  0  0  0  0  0
    4.4468    2.7995    0.0000 C   0  0  0  0  0  0  0  0  0  0  0  0
   -1.3000    0.7500    0.0000 C   0  0  0  0  0  0  0  0  0  0  0  0
   -0.0000   -1.5000    0.0000 C   0  0  0  0  0  0  0  0  0  0  0  0
    0.0000    1.5000    0.0000 C   0  0  0  0  0  0  0  0  0  0  0  0
    1.3000   -0.7500    0.0000 C   0  0  0  0  0  0  0  0  0  0  0  0
   -1.3000   -0.7500    0.0000 C   0  0  0  0  0  0  0  0  0  0  0  0
    1.3000    0.7500    0.0000 C   0  0  0  0  0  0  0  0  0  0  0  0
    2.5989    1.5002    0.0000 C   0  0  0  0  0  0  0  0  0  0  0  0
    2.5987    3.0002    0.0000 O   0  0  0  0  0  0  0  0  0  0  0  0
    3.8981    0.7504    0.0000 O   0  0  0  0  0  0  0  0  0  0  0  0
    5.1970    1.5006    0.0000 Si  0  0  0  0  0  4  0  0  0  0  0  0
  7  5  2  0
  8  6  1  0
  9  1  1  0
  9  5  1  0
  9  6  2  0
 10  7  1  0
 10  8  2  0
 11 10  1  0
 12 11  2  0
 13 11  1  0
 14  2  1  0
 14  3  1  0
 14  4  1  0
 14 13  1  0
M  END
>  <NAME>  (7086) 
4-METHYLBENZOIC ACID TRIMETHYLSILYL ESTER

>  <SYNONYMS>  (7086) 


>  <SPECTRUM TYPE>  (7086) 
MS1

>  <INSTRUMENT TYPE>  (7086) 
EI-B

>  <INSTRUMENT>  (7086) 
JEOL JMS-01-SG

>  <ION MODE>  (7086) 
P

>  <INCHIKEY>  (7086) 
GKODXEXJNJLBCA-UHFFFAOYSA-N

>  <FORMULA>  (7086) 
C11H16O2Si

>  <EXACT MASS>  (7086) 
208.091956282

>  <MW>  (7086) 
208

>  <ID>  (7086) 
JP000591

>  <CONTRIBUTOR>  (7086) 
University of Tokyo Team, {Faculty of Engineering, University of Tokyo

>  <COMMENT>  (7086) 
SMILES=Cc(c1)ccc(c1)C(=O)O[Si](C)(C)C
InChI=InChI=1S/C11H16O2Si/c1-9-5-7-10(8-6-9)11(12)13-14(2,3)4/h5-8H,1-4H3
computed SMILES=O=C(O[Si](C)(C)C)C1=CC=C(C=C1)C
accession=JP000591
date=2016.01.19 (Created 2008.10.21, modified 2011.05.06)
author=KOGA M, UNIV. OF OCCUPATIONAL AND ENVIRONMENTAL HEALTH
license=CC BY-NC-SA
exact mass=208.09196
ionization energy=70 eV
ion type=[M]+*
computed spectral entropy=2.481776864392844
computed normalized entropy=0.842869178798681
SPLASH=splash10-014m-5900000000-89136479ed34b21c62a5
submitter=submitter = University of Tokyo Team (Faculty of Engineering, University of Tokyo)
MoNA Rating=3.75

>  <NUM PEAKS>  (7086) 
19

>  <MASS SPECTRAL PEAKS>  (7086) 
43 10.2
44 27.4
45 24.5
47 1.42
63 12.5
65 48
89 13.1
91 6.91
92 13.1
93 13.1
96 13.7
119 99.99
120 13.7
141 13.1
149 89.7
150 1.48
193 66.8
194 13.7
208 13.1

$$$$

     RDKit          2D

 14 14  0  0  0  0  0  0  0  0999 V2000
   -2.8401   -0.8961    0.0000 C   0  0  0  0  0  0  0  0  0  0  0  0
    5.7058   -2.1929    0.0000 C   0  0  0  0  0  0  0  0  0  0  0  0
    6.2552   -0.1439    0.0000 C   0  0  0  0  0  0  0  0  0  0  0  0
    4.2062    0.4055    0.0000 C   0  0  0  0  0  0  0  0  0  0  0  0
   -0.2362   -3.8861    0.0000 C   0  0  0  0  0  0  0  0  0  0  0  0
   -1.5353   -3.1361    0.0000 C   0  0  0  0  0  0  0  0  0  0  0  0
    1.0583   -3.1439    0.0000 C   0  0  0  0  0  0  0  0  0  0  0  0
   -0.2403   -0.8931    0.0000 C   0  0  0  0  0  0  0  0  0  0  0  0
   -1.5398   -1.6439    0.0000 C   0  0  0  0  0  0  0  0  0  0  0  0
    1.0588   -1.6431    0.0000 C   0  0  0  0  0  0  0  0  0  0  0  0
    2.3579   -0.8933    0.0000 C   0  0  0  0  0  0  0  0  0  0  0  0
    2.3582    0.6067    0.0000 O   0  0  0  0  0  0  0  0  0  0  0  0
    3.6568   -1.6435    0.0000 O   0  0  0  0  0  0  0  0  0  0  0  0
    4.9560   -0.8937    0.0000 Si  0  0  0  0  0  4  0  0  0  0  0  0
  6  5  2  0
  7  5  1  0
  9  1  1  0
  9  6  1  0
  9  8  2  0
 10  7  2  0
 10  8  1  0
 11 10  1  0
 12 11  2  0
 13 11  1  0
 14  2  1  0
 14  3  1  0
 14  4  1  0
 14 13  1  0
M  END
>  <NAME>  (7087) 
3-METHYLBENZOIC ACID TRIMETHYLSILYL ESTER

>  <SYNONYMS>  (7087) 


>  <SPECTRUM TYPE>  (7087) 
MS1

>  <INSTRUMENT TYPE>  (7087) 
EI-B

>  <INSTRUMENT>  (7087) 
JEOL JMS-01-SG

>  <ION MODE>  (7087) 
P

>  <INCHIKEY>  (7087) 
MFPKMKJUNGWICD-UHFFFAOYSA-N

>  <FORMULA>  (7087) 
C11H16O2Si

>  <EXACT MASS>  (7087) 
208.091956282

>  <MW>  (7087) 
208

>  <ID>  (7087) 
JP000590

>  <CONTRIBUTOR>  (7087) 
University of Tokyo Team, {Faculty of Engineering, University of Tokyo

>  <COMMENT>  (7087) 
SMILES=Cc(c1)cc(cc1)C(=O)O[Si](C)(C)C
InChI=InChI=1S/C11H16O2Si/c1-9-6-5-7-10(8-9)11(12)13-14(2,3)4/h5-8H,1-4H3
computed SMILES=O=C(O[Si](C)(C)C)C1=CC=CC(=C1)C
accession=JP000590
date=2016.01.19 (Created 2008.10.21, modified 2011.05.06)
author=KOGA M, UNIV. OF OCCUPATIONAL AND ENVIRONMENTAL HEALTH
license=CC BY-NC-SA
exact mass=208.09196
ionization energy=70 eV
ion type=[M]+*
computed spectral entropy=2.4354301380805246
computed normalized entropy=0.8426010015587816
SPLASH=splash10-014j-6900000000-d76a8446c600a79a26bd
submitter=submitter = University of Tokyo Team (Faculty of Engineering, University of Tokyo)
MoNA Rating=3.75

>  <NUM PEAKS>  (7087) 
18

>  <MASS SPECTRAL PEAKS>  (7087) 
43 15.4
44 32.5
45 28.1
47 1.27
63 12.7
65 42.5
73 17.6
91 5.91
92 12.7
96 12.7
119 99.99
120 1.32
147 12.1
149 83.9
150 16
193 8.06
194 15.4
208 13.2

$$$$

     RDKit          2D

 14 14  0  0  0  0  0  0  0  0999 V2000
   -0.3325    2.4400    0.0000 C   0  0  0  0  0  0  0  0  0  0  0  0
    5.6172   -0.3583    0.0000 C   0  0  0  0  0  0  0  0  0  0  0  0
    6.1659    1.6908    0.0000 C   0  0  0  0  0  0  0  0  0  0  0  0
    4.1168    2.2395    0.0000 C   0  0  0  0  0  0  0  0  0  0  0  0
   -1.6200   -1.3100    0.0000 C   0  0  0  0  0  0  0  0  0  0  0  0
   -0.3300   -2.0600    0.0000 C   0  0  0  0  0  0  0  0  0  0  0  0
   -1.6200    0.1900    0.0000 C   0  0  0  0  0  0  0  0  0  0  0  0
    0.9700   -1.3100    0.0000 C   0  0  0  0  0  0  0  0  0  0  0  0
   -0.3300    0.9400    0.0000 C   0  0  0  0  0  0  0  0  0  0  0  0
    0.9700    0.1900    0.0000 C   0  0  0  0  0  0  0  0  0  0  0  0
    2.2689    0.9402    0.0000 C   0  0  0  0  0  0  0  0  0  0  0  0
    2.2687    2.4402    0.0000 O   0  0  0  0  0  0  0  0  0  0  0  0
    3.5681    0.1904    0.0000 O   0  0  0  0  0  0  0  0  0  0  0  0
    4.8670    0.9406    0.0000 Si  0  0  0  0  0  4  0  0  0  0  0  0
  6  5  2  0
  7  5  1  0
  8  6  1  0
  9  1  1  0
  9  7  2  0
 10  8  2  0
 10  9  1  0
 11 10  1  0
 12 11  2  0
 13 11  1  0
 14  2  1  0
 14  3  1  0
 14  4  1  0
 14 13  1  0
M  END
>  <NAME>  (7088) 
2-METHYLBENZOIC ACID TRIMETHYLSILYL ESTER

>  <SYNONYMS>  (7088) 


>  <SPECTRUM TYPE>  (7088) 
MS1

>  <INSTRUMENT TYPE>  (7088) 
EI-B

>  <INSTRUMENT>  (7088) 
JEOL JMS-01-SG

>  <ION MODE>  (7088) 
P

>  <INCHIKEY>  (7088) 
QWDJSIANUZLFHV-UHFFFAOYSA-N

>  <FORMULA>  (7088) 
C11H16O2Si

>  <EXACT MASS>  (7088) 
208.091956282

>  <MW>  (7088) 
208

>  <ID>  (7088) 
JP000589

>  <CONTRIBUTOR>  (7088) 
University of Tokyo Team, {Faculty of Engineering, University of Tokyo

>  <COMMENT>  (7088) 
SMILES=Cc(c1)c(ccc1)C(=O)O[Si](C)(C)C
InChI=InChI=1S/C11H16O2Si/c1-9-7-5-6-8-10(9)11(12)13-14(2,3)4/h5-8H,1-4H3
computed SMILES=O=C(O[Si](C)(C)C)C=1C=CC=CC1C
accession=JP000589
date=2016.01.19 (Created 2008.10.21, modified 2011.05.06)
author=KOGA M, UNIV. OF OCCUPATIONAL AND ENVIRONMENTAL HEALTH
license=CC BY-NC-SA
exact mass=208.09196
ionization energy=70 eV
ion type=[M]+*
computed spectral entropy=2.789545583613487
computed normalized entropy=0.8777527796966473
SPLASH=splash10-014l-9600000000-d5478c4a4aafb01ac358
submitter=submitter = University of Tokyo Team (Faculty of Engineering, University of Tokyo)
MoNA Rating=3.75

>  <NUM PEAKS>  (7088) 
24

>  <MASS SPECTRAL PEAKS>  (7088) 
43 14.3
44 23.2
45 32.8
47 1.57
63 14.3
65 41
71 15
73 1.64
75 10.2
81 15
89 15.7
90 1.84
91 58.2
92 15.7
96 15
118 3.97
119 99.99
120 16.4
147 15
149 4.1
186 15.7
193 43.8
194 15
208 20.5

$$$$

     RDKit          2D

 30 29  0  0  0  0  0  0  0  0999 V2000
  -12.6154    8.1495    0.0000 C   0  0  0  0  0  0  0  0  0  0  0  0
   13.9144   19.1986    0.0000 C   0  0  0  0  0  0  0  0  0  0  0  0
   15.9635   18.6495    0.0000 C   0  0  0  0  0  0  0  0  0  0  0  0
   15.4144   16.6005    0.0000 C   0  0  0  0  0  0  0  0  0  0  0  0
  -11.3163    8.8995    0.0000 C   0  0  0  0  0  0  0  0  0  0  0  0
  -11.3163   10.3995    0.0000 C   0  0  0  0  0  0  0  0  0  0  0  0
  -10.0173   11.1495    0.0000 C   0  0  0  0  0  0  0  0  0  0  0  0
  -10.0173   12.6495    0.0000 C   0  0  0  0  0  0  0  0  0  0  0  0
   -8.7183   13.3995    0.0000 C   0  0  0  0  0  0  0  0  0  0  0  0
   -8.7183   14.8995    0.0000 C   0  0  0  0  0  0  0  0  0  0  0  0
   -7.4192   15.6495    0.0000 C   0  0  0  0  0  0  0  0  0  0  0  0
   -7.4192   17.1495    0.0000 C   0  0  0  0  0  0  0  0  0  0  0  0
   -6.1202   17.8995    0.0000 C   0  0  0  0  0  0  0  0  0  0  0  0
   -4.8212   17.1495    0.0000 C   0  0  0  0  0  0  0  0  0  0  0  0
   -3.5221   17.8995    0.0000 C   0  0  0  0  0  0  0  0  0  0  0  0
   -2.2231   17.1495    0.0000 C   0  0  0  0  0  0  0  0  0  0  0  0
   -0.9240   17.8995    0.0000 C   0  0  0  0  0  0  0  0  0  0  0  0
    0.3750   17.1495    0.0000 C   0  0  0  0  0  0  0  0  0  0  0  0
    1.6740   17.8995    0.0000 C   0  0  0  0  0  0  0  0  0  0  0  0
    2.9731   17.1495    0.0000 C   0  0  0  0  0  0  0  0  0  0  0  0
    4.2721   17.8995    0.0000 C   0  0  0  0  0  0  0  0  0  0  0  0
    5.5712   17.1495    0.0000 C   0  0  0  0  0  0  0  0  0  0  0  0
    6.8702   17.8995    0.0000 C   0  0  0  0  0  0  0  0  0  0  0  0
    8.1692   17.1495    0.0000 C   0  0  0  0  0  0  0  0  0  0  0  0
    9.4683   17.8995    0.0000 C   0  0  0  0  0  0  0  0  0  0  0  0
   10.7673   17.1495    0.0000 C   0  0  0  0  0  0  0  0  0  0  0  0
   12.0663   17.8995    0.0000 C   0  0  0  0  0  0  0  0  0  0  0  0
   12.0663   19.3995    0.0000 O   0  0  0  0  0  0  0  0  0  0  0  0
   13.3654   17.1495    0.0000 O   0  0  0  0  0  0  0  0  0  0  0  0
   14.6644   17.8995    0.0000 Si  0  0  0  0  0  4  0  0  0  0  0  0
  5  1  1  0
  6  5  1  0
  7  6  1  0
  8  7  1  0
  9  8  1  0
 10  9  1  0
 11 10  1  0
 12 11  1  0
 12 13  2  0
 14 13  1  0
 15 14  1  0
 16 15  1  0
 17 16  1  0
 18 17  1  0
 19 18  1  0
 20 19  1  0
 21 20  1  0
 22 21  1  0
 23 22  1  0
 24 23  1  0
 25 24  1  0
 26 25  1  0
 27 26  1  0
 28 27  2  0
 29 27  1  0
 30  2  1  0
 30  3  1  0
 30  4  1  0
 30 29  1  0
M  END
>  <NAME>  (7089) 
NERVONIC ACID TRIMETHYLSILYL ESTER

>  <SYNONYMS>  (7089) 
CIS-15-TETRACOSENOIC ACID TRIMETHYLSILYL ESTER

>  <SPECTRUM TYPE>  (7089) 
MS1

>  <INSTRUMENT TYPE>  (7089) 
EI-B

>  <INSTRUMENT>  (7089) 
JEOL JMS-01-SG

>  <ION MODE>  (7089) 
P

>  <INCHIKEY>  (7089) 
OQABBMMAIBXADF-SEYXRHQNSA-N

>  <FORMULA>  (7089) 
C27H54O2Si

>  <EXACT MASS>  (7089) 
438.389307498

>  <MW>  (7089) 
438

>  <ID>  (7089) 
JP000588

>  <CONTRIBUTOR>  (7089) 
University of Tokyo Team, {Faculty of Engineering, University of Tokyo

>  <COMMENT>  (7089) 
SMILES=CCCCCCCCC=CCCCCCCCCCCCCCC(=O)O[Si](C)(C)C
InChI=InChI=1S/C27H54O2Si/c1-5-6-7-8-9-10-11-12-13-14-15-16-17-18-19-20-21-22-23-24-25-26-27(28)29-30(2,3)4/h12-13H,5-11,14-26H2,1-4H3/b13-12-
computed SMILES=O=C(O[Si](C)(C)C)CCCCCCCCCCCCCC=CCCCCCCCC
accession=JP000588
license=CC BY-NC-SA
date=2016.01.19 (Created 2008.10.21, modified 2011.05.06)
author=KOGA M, UNIV. OF OCCUPATIONAL AND ENVIRONMENTAL HEALTH
exact mass=438.38931
ionization energy=70 eV
ion type=[M]+*
computed spectral entropy=3.0111673430588723
computed normalized entropy=0.8688392386235663
SPLASH=splash10-06fr-9300000000-1dff2469d31e4d8b09e3
submitter=submitter = University of Tokyo Team (Faculty of Engineering, University of Tokyo)
MoNA Rating=3.75

>  <NUM PEAKS>  (7089) 
32

>  <MASS SPECTRAL PEAKS>  (7089) 
54 20.3
55 99.99
56 15.1
57 1.38
67 25.9
68 16.1
69 40.4
70 1.18
73 88.8
75 73.6
81 26.6
82 1.8
83 24.3
84 17.7
85 10.5
95 2.79
96 20.7
97 24
98 19.4
109 1.25
110 14.4
111 16.7
117 57.5
121 1.21
123 11.5
129 40.1
131 10.1
132 1.97
145 23.3
185 11.5
423 16.4
424 7.8

$$$$

     RDKit          2D

 26 25  0  0  0  0  0  0  0  0999 V2000
    8.7685   10.3125    0.0000 C   0  0  0  0  0  0  0  0  0  0  0  0
  -15.3642   16.5135    0.0000 C   0  0  0  0  0  0  0  0  0  0  0  0
  -15.9132   18.5625    0.0000 C   0  0  0  0  0  0  0  0  0  0  0  0
  -13.8642   19.1115    0.0000 C   0  0  0  0  0  0  0  0  0  0  0  0
    7.4695   11.0625    0.0000 C   0  0  0  0  0  0  0  0  0  0  0  0
    6.1704   10.3125    0.0000 C   0  0  0  0  0  0  0  0  0  0  0  0
    4.8714   11.0625    0.0000 C   0  0  0  0  0  0  0  0  0  0  0  0
    3.5724   10.3125    0.0000 C   0  0  0  0  0  0  0  0  0  0  0  0
    2.2733   11.0625    0.0000 C   0  0  0  0  0  0  0  0  0  0  0  0
    0.9743   10.3125    0.0000 C   0  0  0  0  0  0  0  0  0  0  0  0
   -0.3248   11.0625    0.0000 C   0  0  0  0  0  0  0  0  0  0  0  0
   -1.6238   10.3125    0.0000 C   0  0  0  0  0  0  0  0  0  0  0  0
   -2.9228   11.0625    0.0000 C   0  0  0  0  0  0  0  0  0  0  0  0
   -4.2219   10.3125    0.0000 C   0  0  0  0  0  0  0  0  0  0  0  0
   -5.5209   11.0625    0.0000 C   0  0  0  0  0  0  0  0  0  0  0  0
   -6.8200   10.3125    0.0000 C   0  0  0  0  0  0  0  0  0  0  0  0
   -8.1190   11.0625    0.0000 C   0  0  0  0  0  0  0  0  0  0  0  0
   -9.4180   10.3125    0.0000 C   0  0  0  0  0  0  0  0  0  0  0  0
  -10.7171   11.0625    0.0000 C   0  0  0  0  0  0  0  0  0  0  0  0
  -10.7171   12.5625    0.0000 C   0  0  0  0  0  0  0  0  0  0  0  0
  -12.0161   13.3125    0.0000 C   0  0  0  0  0  0  0  0  0  0  0  0
  -12.0161   14.8125    0.0000 C   0  0  0  0  0  0  0  0  0  0  0  0
  -13.3151   15.5625    0.0000 C   0  0  0  0  0  0  0  0  0  0  0  0
  -14.6142   14.8125    0.0000 O   0  0  0  0  0  0  0  0  0  0  0  0
  -13.3151   17.0625    0.0000 O   0  0  0  0  0  0  0  0  0  0  0  0
  -14.6142   17.8125    0.0000 Si  0  0  0  0  0  4  0  0  0  0  0  0
  5  1  1  0
  6  5  1  0
  7  6  1  0
  8  7  1  0
  9  8  1  0
 10  9  1  0
 11 10  1  0
 12 11  1  0
 13 12  1  0
 14 13  1  0
 15 14  1  0
 16 15  1  0
 17 16  1  0
 18 17  1  0
 18 19  2  0
 20 19  1  0
 21 20  1  0
 22 21  1  0
 23 22  1  0
 24 23  2  0
 25 23  1  0
 26  2  1  0
 26  3  1  0
 26  4  1  0
 26 25  1  0
M  END
>  <NAME>  (7090) 
CIS-5-EICOSENOIC ACID TRIMETHYLSILYL ESTER

>  <SYNONYMS>  (7090) 


>  <SPECTRUM TYPE>  (7090) 
MS1

>  <INSTRUMENT TYPE>  (7090) 
EI-B

>  <INSTRUMENT>  (7090) 
JEOL JMS-01-SG

>  <ION MODE>  (7090) 
P

>  <INCHIKEY>  (7090) 
RJXIKISKUHWPGB-HNENSFHCSA-N

>  <FORMULA>  (7090) 
C23H46O2Si

>  <EXACT MASS>  (7090) 
382.326707242

>  <MW>  (7090) 
382

>  <ID>  (7090) 
JP000587

>  <CONTRIBUTOR>  (7090) 
University of Tokyo Team, {Faculty of Engineering, University of Tokyo

>  <COMMENT>  (7090) 
SMILES=CCCCCCCCCCCCCCC=CCCCC(=O)O[Si](C)(C)C
InChI=InChI=1S/C23H46O2Si/c1-5-6-7-8-9-10-11-12-13-14-15-16-17-18-19-20-21-22-23(24)25-26(2,3)4/h18-19H,5-17,20-22H2,1-4H3/b19-18-
computed SMILES=O=C(O[Si](C)(C)C)CCCC=CCCCCCCCCCCCCCC
accession=JP000587
date=2016.01.19 (Created 2008.10.21, modified 2011.05.06)
author=KOGA M, UNIV. OF OCCUPATIONAL AND ENVIRONMENTAL HEALTH
license=CC BY-NC-SA
exact mass=382.32671
ionization energy=70 eV
ion type=[M]+*
computed spectral entropy=2.3362077986964596
computed normalized entropy=0.7673478670248809
SPLASH=splash10-01di-9600000000-35061bc8c7a99c18909d
submitter=submitter = University of Tokyo Team (Faculty of Engineering, University of Tokyo)
MoNA Rating=3.75

>  <NUM PEAKS>  (7090) 
21

>  <MASS SPECTRAL PEAKS>  (7090) 
54 10.5
55 28.3
67 13.4
69 0.97
73 67.2
75 45.1
81 12.8
83 0.9
84 10.5
96 18.8
117 99.99
118 0.97
129 13.1
132 7.2
137 6.1
152 0.64
169 6.4
193 5.9
199 5.9
250 0.54
367 5.9

$$$$

     RDKit          2D

 28 27  0  0  0  0  0  0  0  0999 V2000
  -11.9659    7.0245    0.0000 C   0  0  0  0  0  0  0  0  0  0  0  0
   11.9659   18.0736    0.0000 C   0  0  0  0  0  0  0  0  0  0  0  0
   14.0149   17.5245    0.0000 C   0  0  0  0  0  0  0  0  0  0  0  0
   13.4659   15.4755    0.0000 C   0  0  0  0  0  0  0  0  0  0  0  0
  -10.6668    7.7745    0.0000 C   0  0  0  0  0  0  0  0  0  0  0  0
  -10.6668    9.2745    0.0000 C   0  0  0  0  0  0  0  0  0  0  0  0
   -9.3678   10.0245    0.0000 C   0  0  0  0  0  0  0  0  0  0  0  0
   -9.3678   11.5245    0.0000 C   0  0  0  0  0  0  0  0  0  0  0  0
   -8.0687   12.2745    0.0000 C   0  0  0  0  0  0  0  0  0  0  0  0
   -8.0687   13.7745    0.0000 C   0  0  0  0  0  0  0  0  0  0  0  0
   -6.7697   14.5245    0.0000 C   0  0  0  0  0  0  0  0  0  0  0  0
   -6.7697   16.0245    0.0000 C   0  0  0  0  0  0  0  0  0  0  0  0
   -5.4707   16.7745    0.0000 C   0  0  0  0  0  0  0  0  0  0  0  0
   -4.1716   16.0245    0.0000 C   0  0  0  0  0  0  0  0  0  0  0  0
   -2.8726   16.7745    0.0000 C   0  0  0  0  0  0  0  0  0  0  0  0
   -1.5736   16.0245    0.0000 C   0  0  0  0  0  0  0  0  0  0  0  0
   -0.2745   16.7745    0.0000 C   0  0  0  0  0  0  0  0  0  0  0  0
    1.0245   16.0245    0.0000 C   0  0  0  0  0  0  0  0  0  0  0  0
    2.3236   16.7745    0.0000 C   0  0  0  0  0  0  0  0  0  0  0  0
    3.6226   16.0245    0.0000 C   0  0  0  0  0  0  0  0  0  0  0  0
    4.9216   16.7745    0.0000 C   0  0  0  0  0  0  0  0  0  0  0  0
    6.2207   16.0245    0.0000 C   0  0  0  0  0  0  0  0  0  0  0  0
    7.5197   16.7745    0.0000 C   0  0  0  0  0  0  0  0  0  0  0  0
    8.8187   16.0245    0.0000 C   0  0  0  0  0  0  0  0  0  0  0  0
   10.1178   16.7745    0.0000 C   0  0  0  0  0  0  0  0  0  0  0  0
   10.1178   18.2745    0.0000 O   0  0  0  0  0  0  0  0  0  0  0  0
   11.4168   16.0245    0.0000 O   0  0  0  0  0  0  0  0  0  0  0  0
   12.7159   16.7745    0.0000 Si  0  0  0  0  0  4  0  0  0  0  0  0
  5  1  1  0
  6  5  1  0
  7  6  1  0
  8  7  1  0
  9  8  1  0
 10  9  1  0
 11 10  1  0
 12 11  1  0
 12 13  2  0
 14 13  1  0
 15 14  1  0
 16 15  1  0
 17 16  1  0
 18 17  1  0
 19 18  1  0
 20 19  1  0
 21 20  1  0
 22 21  1  0
 23 22  1  0
 24 23  1  0
 25 24  1  0
 26 25  2  0
 27 25  1  0
 28  2  1  0
 28  3  1  0
 28  4  1  0
 28 27  1  0
M  END
>  <NAME>  (7091) 
ERUCIC ACID TRIMETHYLSILYL ESTER

>  <SYNONYMS>  (7091) 
CIS-13-DOCOSENOIC ACID TRIMETHYLSILYL ESTER

>  <SPECTRUM TYPE>  (7091) 
MS1

>  <INSTRUMENT TYPE>  (7091) 
EI-B

>  <INSTRUMENT>  (7091) 
JEOL JMS-01-SG

>  <ION MODE>  (7091) 
P

>  <INCHIKEY>  (7091) 
AYZOMQWLRBJULM-SEYXRHQNSA-N

>  <FORMULA>  (7091) 
C25H50O2Si

>  <EXACT MASS>  (7091) 
410.35800737

>  <MW>  (7091) 
410

>  <ID>  (7091) 
JP000586

>  <CONTRIBUTOR>  (7091) 
University of Tokyo Team, {Faculty of Engineering, University of Tokyo

>  <COMMENT>  (7091) 
SMILES=CCCCCCCCC=CCCCCCCCCCCCC(=O)O[Si](C)(C)C
InChI=InChI=1S/C25H50O2Si/c1-5-6-7-8-9-10-11-12-13-14-15-16-17-18-19-20-21-22-23-24-25(26)27-28(2,3)4/h12-13H,5-11,14-24H2,1-4H3/b13-12-
computed SMILES=O=C(O[Si](C)(C)C)CCCCCCCCCCCC=CCCCCCCCC
accession=JP000586
date=2016.01.19 (Created 2008.10.21, modified 2011.05.06)
author=KOGA M, UNIV. OF OCCUPATIONAL AND ENVIRONMENTAL HEALTH
license=CC BY-NC-SA
exact mass=410.35801
ionization energy=70 eV
ion type=[M]+*
computed spectral entropy=2.953885623731262
computed normalized entropy=0.8523112281420588
SPLASH=splash10-06fr-9300000000-d71844c01bb6ec9f7276
submitter=submitter = University of Tokyo Team (Faculty of Engineering, University of Tokyo)
MoNA Rating=3.75

>  <NUM PEAKS>  (7091) 
32

>  <MASS SPECTRAL PEAKS>  (7091) 
53 12.6
54 23.5
55 99.99
56 1.56
57 15.6
61 10
67 35.1
68 1.09
69 36.5
73 91.4
75 94.9
81 3.53
82 20.3
83 32.4
84 13.2
95 2.94
96 23.5
97 22.7
98 17.6
109 1.65
111 11.5
117 86.7
129 58.4
130 1.06
131 13.8
132 13.5
137 10
143 1
145 25.9
199 10
395 20.9
396 6.4

$$$$

     RDKit          2D

 24 23  0  0  0  0  0  0  0  0999 V2000
    3.0099   -5.0123    0.0000 C   0  0  0  0  0  0  0  0  0  0  0  0
   12.6522    3.7868    0.0000 C   0  0  0  0  0  0  0  0  0  0  0  0
   14.7012    3.2377    0.0000 C   0  0  0  0  0  0  0  0  0  0  0  0
   14.1522    1.1887    0.0000 C   0  0  0  0  0  0  0  0  0  0  0  0
    1.7108   -4.2623    0.0000 C   0  0  0  0  0  0  0  0  0  0  0  0
    0.4118   -5.0123    0.0000 C   0  0  0  0  0  0  0  0  0  0  0  0
   -0.8873   -4.2623    0.0000 C   0  0  0  0  0  0  0  0  0  0  0  0
   -0.8873   -2.7623    0.0000 C   0  0  0  0  0  0  0  0  0  0  0  0
   -2.1863   -2.0123    0.0000 C   0  0  0  0  0  0  0  0  0  0  0  0
   -2.1863   -0.5123    0.0000 C   0  0  0  0  0  0  0  0  0  0  0  0
   -0.8873    0.2377    0.0000 C   0  0  0  0  0  0  0  0  0  0  0  0
   -0.8873    1.7377    0.0000 C   0  0  0  0  0  0  0  0  0  0  0  0
    0.4118    2.4877    0.0000 C   0  0  0  0  0  0  0  0  0  0  0  0
    1.7108    1.7377    0.0000 C   0  0  0  0  0  0  0  0  0  0  0  0
    3.0099    2.4877    0.0000 C   0  0  0  0  0  0  0  0  0  0  0  0
    4.3089    1.7377    0.0000 C   0  0  0  0  0  0  0  0  0  0  0  0
    5.6079    2.4877    0.0000 C   0  0  0  0  0  0  0  0  0  0  0  0
    6.9070    1.7377    0.0000 C   0  0  0  0  0  0  0  0  0  0  0  0
    8.2060    2.4877    0.0000 C   0  0  0  0  0  0  0  0  0  0  0  0
    9.5050    1.7377    0.0000 C   0  0  0  0  0  0  0  0  0  0  0  0
   10.8041    2.4877    0.0000 C   0  0  0  0  0  0  0  0  0  0  0  0
   10.8041    3.9877    0.0000 O   0  0  0  0  0  0  0  0  0  0  0  0
   12.1031    1.7377    0.0000 O   0  0  0  0  0  0  0  0  0  0  0  0
   13.4022    2.4877    0.0000 Si  0  0  0  0  0  4  0  0  0  0  0  0
  5  1  1  0
  6  5  1  0
  6  7  2  0
  8  7  1  0
  9  8  1  0
  9 10  2  0
 11 10  1  0
 12 11  1  0
 12 13  2  0
 14 13  1  0
 15 14  1  0
 16 15  1  0
 17 16  1  0
 18 17  1  0
 19 18  1  0
 20 19  1  0
 21 20  1  0
 22 21  2  0
 23 21  1  0
 24  2  1  0
 24  3  1  0
 24  4  1  0
 24 23  1  0
M  END
>  <NAME>  (7092) 
LINOLENIC ACID TRIMETHYLSILYL ESTER

>  <SYNONYMS>  (7092) 
9,12,15-OCTADECATRIENOIC ACID TRIMETHYLSILYL ESTER

>  <SPECTRUM TYPE>  (7092) 
MS1

>  <INSTRUMENT TYPE>  (7092) 
EI-B

>  <INSTRUMENT>  (7092) 
JEOL JMS-01-SG

>  <ION MODE>  (7092) 
P

>  <INCHIKEY>  (7092) 
DCFAEXKJEMZTKR-QNEBEIHSSA-N

>  <FORMULA>  (7092) 
C21H38O2Si

>  <EXACT MASS>  (7092) 
350.264106986

>  <MW>  (7092) 
350

>  <ID>  (7092) 
JP000585

>  <CONTRIBUTOR>  (7092) 
University of Tokyo Team, {Faculty of Engineering, University of Tokyo

>  <COMMENT>  (7092) 
SMILES=CCC=CCC=CCC=CCCCCCCCC(=O)O[Si](C)(C)C
InChI=InChI=1S/C21H38O2Si/c1-5-6-7-8-9-10-11-12-13-14-15-16-17-18-19-20-21(22)23-24(2,3)4/h6-7,9-10,12-13H,5,8,11,14-20H2,1-4H3/b7-6-,10-9-,13-12-
computed SMILES=O=C(O[Si](C)(C)C)CCCCCCCC=CCC=CCC=CCC
accession=JP000585
date=2016.01.19 (Created 2008.10.21, modified 2011.05.06)
author=KOGA M, UNIV. OF OCCUPATIONAL AND ENVIRONMENTAL HEALTH
license=CC BY-NC-SA
exact mass=350.26411
ionization energy=70 eV
ion type=[M]+*
computed spectral entropy=2.9814385202556006
computed normalized entropy=0.8602613135776168
SPLASH=splash10-056u-9300000000-a650b2ffd380dfe61768
submitter=submitter = University of Tokyo Team (Faculty of Engineering, University of Tokyo)
MoNA Rating=3.75

>  <NUM PEAKS>  (7092) 
32

>  <MASS SPECTRAL PEAKS>  (7092) 
53 17.6
54 11.6
55 50.4
67 5.97
69 14.3
73 89.3
75 96.3
77 2.15
78 12.5
79 99.99
80 34.8
81 4.82
91 28.3
93 60.7
94 23.7
95 5.34
105 15.8
107 25
108 29.3
109 1.23
117 22.7
119 11.1
121 18.5
122 1.03
129 20.3
131 14.1
135 13.1
136 1.01
145 12.5
149 10.6
173 7.3
335 5

$$$$

     RDKit          2D

 24 23  0  0  0  0  0  0  0  0999 V2000
  -19.9611   11.7255    0.0000 C   0  0  0  0  0  0  0  0  0  0  0  0
    3.9707    9.6764    0.0000 C   0  0  0  0  0  0  0  0  0  0  0  0
    6.0197   10.2255    0.0000 C   0  0  0  0  0  0  0  0  0  0  0  0
    5.4707   12.2745    0.0000 C   0  0  0  0  0  0  0  0  0  0  0  0
  -18.6620   10.9755    0.0000 C   0  0  0  0  0  0  0  0  0  0  0  0
  -17.3630   11.7255    0.0000 C   0  0  0  0  0  0  0  0  0  0  0  0
  -16.0639   10.9755    0.0000 C   0  0  0  0  0  0  0  0  0  0  0  0
  -14.7649   11.7255    0.0000 C   0  0  0  0  0  0  0  0  0  0  0  0
  -13.4659   10.9755    0.0000 C   0  0  0  0  0  0  0  0  0  0  0  0
  -12.1668   11.7255    0.0000 C   0  0  0  0  0  0  0  0  0  0  0  0
  -10.8678   10.9755    0.0000 C   0  0  0  0  0  0  0  0  0  0  0  0
   -9.5687   11.7255    0.0000 C   0  0  0  0  0  0  0  0  0  0  0  0
   -8.2697   10.9755    0.0000 C   0  0  0  0  0  0  0  0  0  0  0  0
   -6.9707   11.7255    0.0000 C   0  0  0  0  0  0  0  0  0  0  0  0
   -5.6716   10.9755    0.0000 C   0  0  0  0  0  0  0  0  0  0  0  0
   -4.3726   11.7255    0.0000 C   0  0  0  0  0  0  0  0  0  0  0  0
   -3.0736   10.9755    0.0000 C   0  0  0  0  0  0  0  0  0  0  0  0
   -1.7745   11.7255    0.0000 C   0  0  0  0  0  0  0  0  0  0  0  0
   -0.4755   10.9755    0.0000 C   0  0  0  0  0  0  0  0  0  0  0  0
    0.8236   11.7255    0.0000 C   0  0  0  0  0  0  0  0  0  0  0  0
    2.1226   10.9755    0.0000 C   0  0  0  0  0  0  0  0  0  0  0  0
    2.1226    9.4755    0.0000 O   0  0  0  0  0  0  0  0  0  0  0  0
    3.4216   11.7255    0.0000 O   0  0  0  0  0  0  0  0  0  0  0  0
    4.7207   10.9755    0.0000 Si  0  0  0  0  0  4  0  0  0  0  0  0
  5  1  1  0
  6  5  1  0
  7  6  1  0
  8  7  1  0
  9  8  1  0
  9 10  2  0
 11 10  1  0
 12 11  1  0
 12 13  2  0
 14 13  1  0
 15 14  1  0
 16 15  1  0
 17 16  1  0
 18 17  1  0
 19 18  1  0
 20 19  1  0
 21 20  1  0
 22 21  2  0
 23 21  1  0
 24  2  1  0
 24  3  1  0
 24  4  1  0
 24 23  1  0
M  END
>  <NAME>  (7093) 
LINOLELADIC ACID TRIMETHYLSILYL ESTER

>  <SYNONYMS>  (7093) 
TRANS-9,TRANS-12-OCTADECADIENOIC ACID TRIMETHYLSILYL ESTER

>  <SPECTRUM TYPE>  (7093) 
MS1

>  <INSTRUMENT TYPE>  (7093) 
EI-B

>  <INSTRUMENT>  (7093) 
JEOL JMS-01-SG

>  <ION MODE>  (7093) 
P

>  <INCHIKEY>  (7093) 
MXGBYOVWUYSJSN-OKLKQMLOSA-N

>  <FORMULA>  (7093) 
C21H40O2Si

>  <EXACT MASS>  (7093) 
352.27975705

>  <MW>  (7093) 
352

>  <ID>  (7093) 
JP000584

>  <CONTRIBUTOR>  (7093) 
University of Tokyo Team, {Faculty of Engineering, University of Tokyo

>  <COMMENT>  (7093) 
SMILES=CCCCCC=CCC=CCCCCCCCC(=O)O[Si](C)(C)C
InChI=InChI=1S/C21H40O2Si/c1-5-6-7-8-9-10-11-12-13-14-15-16-17-18-19-20-21(22)23-24(2,3)4/h9-10,12-13H,5-8,11,14-20H2,1-4H3/b10-9+,13-12+
computed SMILES=O=C(O[Si](C)(C)C)CCCCCCCC=CCC=CCCCCC
computed spectral entropy=3.187376513732218
accession=JP000584
date=2016.01.19 (Created 2008.10.21, modified 2011.05.06)
author=KOGA M, UNIV. OF OCCUPATIONAL AND ENVIRONMENTAL HEALTH
license=CC BY-NC-SA
exact mass=352.27976
ionization energy=70 eV
ion type=[M]+*
computed normalized entropy=0.8894543515669092
SPLASH=splash10-00c0-9200000000-ba89de42b95b177559bc
submitter=submitter = University of Tokyo Team (Faculty of Engineering, University of Tokyo)
MoNA Rating=3.75

>  <NUM PEAKS>  (7093) 
36

>  <MASS SPECTRAL PEAKS>  (7093) 
53 14.3
54 40
55 41.1
67 9.31
68 30.5
69 25.9
73 99.2
75 99.99
79 38.1
80 27.3
81 83.6
82 3.87
83 19.5
93 23.3
94 21.4
95 5.88
96 31.4
97 16.7
107 16.3
108 1.41
109 24.9
110 16.3
117 41.4
121 2.06
123 12.5
129 28.7
131 12.5
135 1.84
136 11.9
145 10
149 11.4
150 1.55
178 12
262 11.1
337 15.5
338 5.8

$$$$

     RDKit          2D

 24 23  0  0  0  0  0  0  0  0999 V2000
   -3.9841   -6.6998    0.0000 C   0  0  0  0  0  0  0  0  0  0  0  0
  -14.9255    4.3493    0.0000 C   0  0  0  0  0  0  0  0  0  0  0  0
  -16.9745    3.8002    0.0000 C   0  0  0  0  0  0  0  0  0  0  0  0
  -16.4255    1.7512    0.0000 C   0  0  0  0  0  0  0  0  0  0  0  0
   -2.6851   -5.9498    0.0000 C   0  0  0  0  0  0  0  0  0  0  0  0
   -2.6851   -4.4498    0.0000 C   0  0  0  0  0  0  0  0  0  0  0  0
   -1.3861   -3.6998    0.0000 C   0  0  0  0  0  0  0  0  0  0  0  0
   -1.3861   -2.1998    0.0000 C   0  0  0  0  0  0  0  0  0  0  0  0
   -0.0870   -1.4498    0.0000 C   0  0  0  0  0  0  0  0  0  0  0  0
   -0.0870    0.0502    0.0000 C   0  0  0  0  0  0  0  0  0  0  0  0
   -1.3861    0.8002    0.0000 C   0  0  0  0  0  0  0  0  0  0  0  0
   -1.3861    2.3002    0.0000 C   0  0  0  0  0  0  0  0  0  0  0  0
   -2.6851    3.0502    0.0000 C   0  0  0  0  0  0  0  0  0  0  0  0
   -3.9841    2.3002    0.0000 C   0  0  0  0  0  0  0  0  0  0  0  0
   -5.2832    3.0502    0.0000 C   0  0  0  0  0  0  0  0  0  0  0  0
   -6.5822    2.3002    0.0000 C   0  0  0  0  0  0  0  0  0  0  0  0
   -7.8812    3.0502    0.0000 C   0  0  0  0  0  0  0  0  0  0  0  0
   -9.1803    2.3002    0.0000 C   0  0  0  0  0  0  0  0  0  0  0  0
  -10.4793    3.0502    0.0000 C   0  0  0  0  0  0  0  0  0  0  0  0
  -11.7784    2.3002    0.0000 C   0  0  0  0  0  0  0  0  0  0  0  0
  -13.0774    3.0502    0.0000 C   0  0  0  0  0  0  0  0  0  0  0  0
  -13.0774    4.5502    0.0000 O   0  0  0  0  0  0  0  0  0  0  0  0
  -14.3764    2.3002    0.0000 O   0  0  0  0  0  0  0  0  0  0  0  0
  -15.6755    3.0502    0.0000 Si  0  0  0  0  0  4  0  0  0  0  0  0
  5  1  1  0
  6  5  1  0
  7  6  1  0
  8  7  1  0
  9  8  1  0
  9 10  2  0
 11 10  1  0
 12 11  1  0
 12 13  2  0
 14 13  1  0
 15 14  1  0
 16 15  1  0
 17 16  1  0
 18 17  1  0
 19 18  1  0
 20 19  1  0
 21 20  1  0
 22 21  2  0
 23 21  1  0
 24  2  1  0
 24  3  1  0
 24  4  1  0
 24 23  1  0
M  END
>  <NAME>  (7094) 
LINOLEIC ACID TRIMETHYLSILYL ESTER

>  <SYNONYMS>  (7094) 
CIS-9,CIS-12-OCTADECADIENOIC ACID TRIMETHYLSILYL ESTER

>  <SPECTRUM TYPE>  (7094) 
MS1

>  <INSTRUMENT TYPE>  (7094) 
EI-B

>  <INSTRUMENT>  (7094) 
JEOL JMS-01-SG

>  <ION MODE>  (7094) 
P

>  <INCHIKEY>  (7094) 
MXGBYOVWUYSJSN-UTJQPWESSA-N

>  <FORMULA>  (7094) 
C21H40O2Si

>  <EXACT MASS>  (7094) 
352.27975705

>  <MW>  (7094) 
352

>  <ID>  (7094) 
JP000583

>  <CONTRIBUTOR>  (7094) 
University of Tokyo Team, {Faculty of Engineering, University of Tokyo

>  <COMMENT>  (7094) 
SMILES=CCCCCC=CCC=CCCCCCCCC(=O)O[Si](C)(C)C
InChI=InChI=1S/C21H40O2Si/c1-5-6-7-8-9-10-11-12-13-14-15-16-17-18-19-20-21(22)23-24(2,3)4/h9-10,12-13H,5-8,11,14-20H2,1-4H3/b10-9-,13-12-
computed SMILES=O=C(O[Si](C)(C)C)CCCCCCCC=CCC=CCCCCC
accession=JP000583
date=2016.01.19 (Created 2008.10.21, modified 2011.05.06)
author=KOGA M, UNIV. OF OCCUPATIONAL AND ENVIRONMENTAL HEALTH
license=CC BY-NC-SA
exact mass=352.27976
ionization energy=70 eV
ion type=[M]+*
computed spectral entropy=3.2155464863479843
computed normalized entropy=0.8777104896665338
SPLASH=splash10-017i-9200000000-f7b1a6b95e9c15404775
submitter=submitter = University of Tokyo Team (Faculty of Engineering, University of Tokyo)
MoNA Rating=3.75

>  <NUM PEAKS>  (7094) 
39

>  <MASS SPECTRAL PEAKS>  (7094) 
53 12.6
54 40.1
55 35.8
61 0.97
67 76
68 28.2
69 23.6
73 9.78
74 9.1
75 99.99
77 12.4
79 3.44
80 23.9
81 79.6
82 32.6
83 1.83
91 10.9
93 18.1
94 18.6
95 5.63
96 25.6
97 15.3
107 15.5
108 1.13
109 22.7
110 14.4
117 32
121 1.95
123 10.2
124 10
129 25.2
131 1.13
135 18.3
150 12.8
164 8.2
178 0.89
262 8.6
337 12
338 4

$$$$

     RDKit          2D

 24 23  0  0  0  0  0  0  0  0999 V2000
  -10.6668    4.7745    0.0000 C   0  0  0  0  0  0  0  0  0  0  0  0
    8.0687   15.8236    0.0000 C   0  0  0  0  0  0  0  0  0  0  0  0
   10.1178   15.2745    0.0000 C   0  0  0  0  0  0  0  0  0  0  0  0
    9.5687   13.2255    0.0000 C   0  0  0  0  0  0  0  0  0  0  0  0
   -9.3678    5.5245    0.0000 C   0  0  0  0  0  0  0  0  0  0  0  0
   -9.3678    7.0245    0.0000 C   0  0  0  0  0  0  0  0  0  0  0  0
   -8.0687    7.7745    0.0000 C   0  0  0  0  0  0  0  0  0  0  0  0
   -8.0687    9.2745    0.0000 C   0  0  0  0  0  0  0  0  0  0  0  0
   -6.7697   10.0245    0.0000 C   0  0  0  0  0  0  0  0  0  0  0  0
   -6.7697   11.5245    0.0000 C   0  0  0  0  0  0  0  0  0  0  0  0
   -5.4707   12.2745    0.0000 C   0  0  0  0  0  0  0  0  0  0  0  0
   -5.4707   13.7745    0.0000 C   0  0  0  0  0  0  0  0  0  0  0  0
   -4.1716   14.5245    0.0000 C   0  0  0  0  0  0  0  0  0  0  0  0
   -2.8726   13.7745    0.0000 C   0  0  0  0  0  0  0  0  0  0  0  0
   -1.5736   14.5245    0.0000 C   0  0  0  0  0  0  0  0  0  0  0  0
   -0.2745   13.7745    0.0000 C   0  0  0  0  0  0  0  0  0  0  0  0
    1.0245   14.5245    0.0000 C   0  0  0  0  0  0  0  0  0  0  0  0
    2.3236   13.7745    0.0000 C   0  0  0  0  0  0  0  0  0  0  0  0
    3.6226   14.5245    0.0000 C   0  0  0  0  0  0  0  0  0  0  0  0
    4.9216   13.7745    0.0000 C   0  0  0  0  0  0  0  0  0  0  0  0
    6.2207   14.5245    0.0000 C   0  0  0  0  0  0  0  0  0  0  0  0
    6.2207   16.0245    0.0000 O   0  0  0  0  0  0  0  0  0  0  0  0
    7.5197   13.7745    0.0000 O   0  0  0  0  0  0  0  0  0  0  0  0
    8.8187   14.5245    0.0000 Si  0  0  0  0  0  4  0  0  0  0  0  0
  5  1  1  0
  6  5  1  0
  7  6  1  0
  8  7  1  0
  9  8  1  0
 10  9  1  0
 11 10  1  0
 12 11  1  0
 12 13  2  0
 14 13  1  0
 15 14  1  0
 16 15  1  0
 17 16  1  0
 18 17  1  0
 19 18  1  0
 20 19  1  0
 21 20  1  0
 22 21  2  0
 23 21  1  0
 24  2  1  0
 24  3  1  0
 24  4  1  0
 24 23  1  0
M  END
>  <NAME>  (7095) 
OLEIC ACID TRIMETHYLSILYL ESTER

>  <SYNONYMS>  (7095) 
CIS-9-OCTADECENOIC ACID TRIMETHYLSILYL ESTER

>  <SPECTRUM TYPE>  (7095) 
MS1

>  <INSTRUMENT TYPE>  (7095) 
EI-B

>  <INSTRUMENT>  (7095) 
JEOL JMS-01-SG

>  <ION MODE>  (7095) 
P

>  <INCHIKEY>  (7095) 
GAODWSYPSJBKGB-SEYXRHQNSA-N

>  <FORMULA>  (7095) 
C21H42O2Si

>  <EXACT MASS>  (7095) 
354.295407114

>  <MW>  (7095) 
354

>  <ID>  (7095) 
JP000582

>  <CONTRIBUTOR>  (7095) 
University of Tokyo Team, {Faculty of Engineering, University of Tokyo

>  <COMMENT>  (7095) 
SMILES=CCCCCCCCC=CCCCCCCCC(=O)O[Si](C)(C)C
InChI=InChI=1S/C21H42O2Si/c1-5-6-7-8-9-10-11-12-13-14-15-16-17-18-19-20-21(22)23-24(2,3)4/h12-13H,5-11,14-20H2,1-4H3/b13-12-
computed SMILES=O=C(O[Si](C)(C)C)CCCCCCCC=CCCCCCCCC
accession=JP000582
date=2016.01.19 (Created 2008.10.21, modified 2011.05.06)
author=KOGA M, UNIV. OF OCCUPATIONAL AND ENVIRONMENTAL HEALTH
license=CC BY-NC-SA
exact mass=354.29541
ionization energy=70 eV
ion type=[M]+*
computed spectral entropy=3.3093850336778305
computed normalized entropy=0.879874755897582
SPLASH=splash10-00vj-9300000000-82e8a94947f53154c4c7
submitter=submitter = University of Tokyo Team (Faculty of Engineering, University of Tokyo)
MoNA Rating=3.75

>  <NUM PEAKS>  (7095) 
43

>  <MASS SPECTRAL PEAKS>  (7095) 
43 11.8
45 11.1
47 10.2
54 1.16
55 57.1
56 11.1
57 19.1
61 1.07
67 40.1
68 13.3
69 31.6
71 1.07
73 99.99
74 10.7
75 70
76 1.06
79 10.7
81 22.7
82 16.9
83 2.54
84 31.6
85 10.2
93 11.1
95 2.27
96 33.4
97 26.7
98 21.4
105 1.07
109 13.8
110 18.3
111 11.1
117 6.42
118 12.5
119 12.5
121 10.7
123 1.11
129 56.2
131 11.1
145 35.2
147 11.1
199 10.7
339 2.9
340 9.8

$$$$

     RDKit          2D

 24 23  0  0  0  0  0  0  0  0999 V2000
  -19.9611   11.7255    0.0000 C   0  0  0  0  0  0  0  0  0  0  0  0
    3.9707    9.6764    0.0000 C   0  0  0  0  0  0  0  0  0  0  0  0
    6.0197   10.2255    0.0000 C   0  0  0  0  0  0  0  0  0  0  0  0
    5.4707   12.2745    0.0000 C   0  0  0  0  0  0  0  0  0  0  0  0
  -18.6620   10.9755    0.0000 C   0  0  0  0  0  0  0  0  0  0  0  0
  -17.3630   11.7255    0.0000 C   0  0  0  0  0  0  0  0  0  0  0  0
  -16.0639   10.9755    0.0000 C   0  0  0  0  0  0  0  0  0  0  0  0
  -14.7649   11.7255    0.0000 C   0  0  0  0  0  0  0  0  0  0  0  0
  -13.4659   10.9755    0.0000 C   0  0  0  0  0  0  0  0  0  0  0  0
  -12.1668   11.7255    0.0000 C   0  0  0  0  0  0  0  0  0  0  0  0
  -10.8678   10.9755    0.0000 C   0  0  0  0  0  0  0  0  0  0  0  0
   -9.5687   11.7255    0.0000 C   0  0  0  0  0  0  0  0  0  0  0  0
   -8.2697   10.9755    0.0000 C   0  0  0  0  0  0  0  0  0  0  0  0
   -6.9707   11.7255    0.0000 C   0  0  0  0  0  0  0  0  0  0  0  0
   -5.6716   10.9755    0.0000 C   0  0  0  0  0  0  0  0  0  0  0  0
   -4.3726   11.7255    0.0000 C   0  0  0  0  0  0  0  0  0  0  0  0
   -3.0736   10.9755    0.0000 C   0  0  0  0  0  0  0  0  0  0  0  0
   -1.7745   11.7255    0.0000 C   0  0  0  0  0  0  0  0  0  0  0  0
   -0.4755   10.9755    0.0000 C   0  0  0  0  0  0  0  0  0  0  0  0
    0.8236   11.7255    0.0000 C   0  0  0  0  0  0  0  0  0  0  0  0
    2.1226   10.9755    0.0000 C   0  0  0  0  0  0  0  0  0  0  0  0
    2.1226    9.4755    0.0000 O   0  0  0  0  0  0  0  0  0  0  0  0
    3.4216   11.7255    0.0000 O   0  0  0  0  0  0  0  0  0  0  0  0
    4.7207   10.9755    0.0000 Si  0  0  0  0  0  4  0  0  0  0  0  0
  5  1  1  0
  6  5  1  0
  7  6  1  0
  8  7  1  0
  9  8  1  0
 10  9  1  0
 11 10  1  0
 12 11  1  0
 12 13  2  0
 14 13  1  0
 15 14  1  0
 16 15  1  0
 17 16  1  0
 18 17  1  0
 19 18  1  0
 20 19  1  0
 21 20  1  0
 22 21  2  0
 23 21  1  0
 24  2  1  0
 24  3  1  0
 24  4  1  0
 24 23  1  0
M  END
>  <NAME>  (7096) 
ELAIDIC ACID TRIMETHYLSILYL ESTER

>  <SYNONYMS>  (7096) 
TRANS-9-OCTADECENOIC ACID TRIMETHYLSILYL ESTER

>  <SPECTRUM TYPE>  (7096) 
MS1

>  <INSTRUMENT TYPE>  (7096) 
EI-B

>  <INSTRUMENT>  (7096) 
JEOL JMS-01-SG

>  <ION MODE>  (7096) 
P

>  <INCHIKEY>  (7096) 
GAODWSYPSJBKGB-OUKQBFOZSA-N

>  <FORMULA>  (7096) 
C21H42O2Si

>  <EXACT MASS>  (7096) 
354.295407114

>  <MW>  (7096) 
354

>  <ID>  (7096) 
JP000581

>  <CONTRIBUTOR>  (7096) 
University of Tokyo Team, {Faculty of Engineering, University of Tokyo

>  <COMMENT>  (7096) 
SMILES=CCCCCCCCC=CCCCCCCCC(=O)O[Si](C)(C)C
InChI=InChI=1S/C21H42O2Si/c1-5-6-7-8-9-10-11-12-13-14-15-16-17-18-19-20-21(22)23-24(2,3)4/h12-13H,5-11,14-20H2,1-4H3/b13-12+
computed SMILES=O=C(O[Si](C)(C)C)CCCCCCCC=CCCCCCCCC
accession=JP000581
date=2016.01.19 (Created 2008.10.21, modified 2011.05.06)
author=KOGA M, UNIV. OF OCCUPATIONAL AND ENVIRONMENTAL HEALTH
license=CC BY-NC-SA
exact mass=354.29541
ionization energy=70 eV
ion type=[M]+*
computed spectral entropy=2.6882025940505727
computed normalized entropy=0.8573457352891242
SPLASH=splash10-00vi-9300000000-1ccbce4559855c30bb9f
submitter=submitter = University of Tokyo Team (Faculty of Engineering, University of Tokyo)
MoNA Rating=3.75

>  <NUM PEAKS>  (7096) 
23

>  <MASS SPECTRAL PEAKS>  (7096) 
43 21.2
55 41.8
67 26.8
69 2.28
73 99.99
75 70.9
81 20
82 2.05
84 19.4
95 18.1
96 27.7
97 1.67
98 16.5
110 13.3
117 63
123 1
129 38.3
131 11.3
132 13.3
145 2.09
199 9.1
339 21.9
340 5.7

$$$$

     RDKit          2D

 22 21  0  0  0  0  0  0  0  0999 V2000
  -18.0125   10.6005    0.0000 C   0  0  0  0  0  0  0  0  0  0  0  0
    3.3212    8.5514    0.0000 C   0  0  0  0  0  0  0  0  0  0  0  0
    5.3702    9.1005    0.0000 C   0  0  0  0  0  0  0  0  0  0  0  0
    4.8212   11.1495    0.0000 C   0  0  0  0  0  0  0  0  0  0  0  0
  -16.7135    9.8505    0.0000 C   0  0  0  0  0  0  0  0  0  0  0  0
  -15.4144   10.6005    0.0000 C   0  0  0  0  0  0  0  0  0  0  0  0
  -14.1154    9.8505    0.0000 C   0  0  0  0  0  0  0  0  0  0  0  0
  -12.8163   10.6005    0.0000 C   0  0  0  0  0  0  0  0  0  0  0  0
  -11.5173    9.8505    0.0000 C   0  0  0  0  0  0  0  0  0  0  0  0
  -10.2183   10.6005    0.0000 C   0  0  0  0  0  0  0  0  0  0  0  0
   -8.9192    9.8505    0.0000 C   0  0  0  0  0  0  0  0  0  0  0  0
   -7.6202   10.6005    0.0000 C   0  0  0  0  0  0  0  0  0  0  0  0
   -6.3212    9.8505    0.0000 C   0  0  0  0  0  0  0  0  0  0  0  0
   -5.0221   10.6005    0.0000 C   0  0  0  0  0  0  0  0  0  0  0  0
   -3.7231    9.8505    0.0000 C   0  0  0  0  0  0  0  0  0  0  0  0
   -2.4240   10.6005    0.0000 C   0  0  0  0  0  0  0  0  0  0  0  0
   -1.1250    9.8505    0.0000 C   0  0  0  0  0  0  0  0  0  0  0  0
    0.1740   10.6005    0.0000 C   0  0  0  0  0  0  0  0  0  0  0  0
    1.4731    9.8505    0.0000 C   0  0  0  0  0  0  0  0  0  0  0  0
    1.4731    8.3505    0.0000 O   0  0  0  0  0  0  0  0  0  0  0  0
    2.7721   10.6005    0.0000 O   0  0  0  0  0  0  0  0  0  0  0  0
    4.0712    9.8505    0.0000 Si  0  0  0  0  0  4  0  0  0  0  0  0
  5  1  1  0
  6  5  1  0
  7  6  1  0
  8  7  1  0
  9  8  1  0
 10  9  1  0
 10 11  2  0
 12 11  1  0
 13 12  1  0
 14 13  1  0
 15 14  1  0
 16 15  1  0
 17 16  1  0
 18 17  1  0
 19 18  1  0
 20 19  2  0
 21 19  1  0
 22  2  1  0
 22  3  1  0
 22  4  1  0
 22 21  1  0
M  END
>  <NAME>  (7097) 
PALMITELADIC ACID TRIMETHYLSILYL ESTER

>  <SYNONYMS>  (7097) 
TRANS-9-HEXADECENOIC ACID TRIMETHYLSILYL ESTER

>  <SPECTRUM TYPE>  (7097) 
MS1

>  <INSTRUMENT TYPE>  (7097) 
EI-B

>  <INSTRUMENT>  (7097) 
JEOL JMS-01-SG

>  <ION MODE>  (7097) 
P

>  <INCHIKEY>  (7097) 
UNUADFKHVGBUHA-ZHACJKMWSA-N

>  <FORMULA>  (7097) 
C19H38O2Si

>  <EXACT MASS>  (7097) 
326.264106986

>  <MW>  (7097) 
326

>  <ID>  (7097) 
JP000580

>  <CONTRIBUTOR>  (7097) 
University of Tokyo Team, {Faculty of Engineering, University of Tokyo

>  <COMMENT>  (7097) 
SMILES=CCCCCCC=CCCCCCCCC(=O)O[Si](C)(C)C
InChI=InChI=1S/C19H38O2Si/c1-5-6-7-8-9-10-11-12-13-14-15-16-17-18-19(20)21-22(2,3)4/h10-11H,5-9,12-18H2,1-4H3/b11-10+
computed SMILES=O=C(O[Si](C)(C)C)CCCCCCCC=CCCCCCC
accession=JP000580
date=2016.01.19 (Created 2008.10.21, modified 2011.05.06)
author=KOGA M, UNIV. OF OCCUPATIONAL AND ENVIRONMENTAL HEALTH
license=CC BY-NC-SA
exact mass=326.26411
ionization energy=70 eV
ion type=[M]+*
computed spectral entropy=2.9262227642093586
computed normalized entropy=0.8603507635241451
SPLASH=splash10-00or-9400000000-b1ee438aa05e5f425da0
submitter=submitter = University of Tokyo Team (Faculty of Engineering, University of Tokyo)
MoNA Rating=3.75

>  <NUM PEAKS>  (7097) 
30

>  <MASS SPECTRAL PEAKS>  (7097) 
43 17.2
45 13.2
54 13.8
55 6.67
56 11.1
67 28.4
68 11.5
69 2.81
73 79.6
74 14.2
75 97.6
79 1.49
81 20
82 21
83 23.3
84 2.2
93 11.5
95 24.7
96 25
97 1.69
98 22.3
109 10.8
110 12.8
117 99.99
129 66.4
131 16.7
132 12.8
145 2.16
311 19.3
312 7.1

$$$$

     RDKit          2D

 22 21  0  0  0  0  0  0  0  0999 V2000
   -9.0430    5.3370    0.0000 C   0  0  0  0  0  0  0  0  0  0  0  0
    8.3935   14.1361    0.0000 C   0  0  0  0  0  0  0  0  0  0  0  0
   10.4425   13.5870    0.0000 C   0  0  0  0  0  0  0  0  0  0  0  0
    9.8935   11.5380    0.0000 C   0  0  0  0  0  0  0  0  0  0  0  0
   -7.7440    6.0870    0.0000 C   0  0  0  0  0  0  0  0  0  0  0  0
   -7.7440    7.5870    0.0000 C   0  0  0  0  0  0  0  0  0  0  0  0
   -6.4450    8.3370    0.0000 C   0  0  0  0  0  0  0  0  0  0  0  0
   -6.4450    9.8370    0.0000 C   0  0  0  0  0  0  0  0  0  0  0  0
   -5.1459   10.5870    0.0000 C   0  0  0  0  0  0  0  0  0  0  0  0
   -5.1459   12.0870    0.0000 C   0  0  0  0  0  0  0  0  0  0  0  0
   -3.8469   12.8370    0.0000 C   0  0  0  0  0  0  0  0  0  0  0  0
   -2.5478   12.0870    0.0000 C   0  0  0  0  0  0  0  0  0  0  0  0
   -1.2488   12.8370    0.0000 C   0  0  0  0  0  0  0  0  0  0  0  0
    0.0502   12.0870    0.0000 C   0  0  0  0  0  0  0  0  0  0  0  0
    1.3493   12.8370    0.0000 C   0  0  0  0  0  0  0  0  0  0  0  0
    2.6483   12.0870    0.0000 C   0  0  0  0  0  0  0  0  0  0  0  0
    3.9474   12.8370    0.0000 C   0  0  0  0  0  0  0  0  0  0  0  0
    5.2464   12.0870    0.0000 C   0  0  0  0  0  0  0  0  0  0  0  0
    6.5454   12.8370    0.0000 C   0  0  0  0  0  0  0  0  0  0  0  0
    6.5454   14.3370    0.0000 O   0  0  0  0  0  0  0  0  0  0  0  0
    7.8445   12.0870    0.0000 O   0  0  0  0  0  0  0  0  0  0  0  0
    9.1435   12.8370    0.0000 Si  0  0  0  0  0  4  0  0  0  0  0  0
  5  1  1  0
  6  5  1  0
  7  6  1  0
  8  7  1  0
  9  8  1  0
 10  9  1  0
 10 11  2  0
 12 11  1  0
 13 12  1  0
 14 13  1  0
 15 14  1  0
 16 15  1  0
 17 16  1  0
 18 17  1  0
 19 18  1  0
 20 19  2  0
 21 19  1  0
 22  2  1  0
 22  3  1  0
 22  4  1  0
 22 21  1  0
M  END
>  <NAME>  (7098) 
PALMITOLEIC ACID TRIMETHYLSILYL ESTER

>  <SYNONYMS>  (7098) 
CIS-9-HEXADECENOIC ACID TRIMETHYLSILYL ESTER

>  <SPECTRUM TYPE>  (7098) 
MS1

>  <INSTRUMENT TYPE>  (7098) 
EI-B

>  <INSTRUMENT>  (7098) 
JEOL JMS-01-SG

>  <ION MODE>  (7098) 
P

>  <INCHIKEY>  (7098) 
UNUADFKHVGBUHA-KHPPLWFESA-N

>  <FORMULA>  (7098) 
C19H38O2Si

>  <EXACT MASS>  (7098) 
326.264106986

>  <MW>  (7098) 
326

>  <ID>  (7098) 
JP000579

>  <CONTRIBUTOR>  (7098) 
University of Tokyo Team, {Faculty of Engineering, University of Tokyo

>  <COMMENT>  (7098) 
SMILES=CCCCCCC=CCCCCCCCC(=O)O[Si](C)(C)C
InChI=InChI=1S/C19H38O2Si/c1-5-6-7-8-9-10-11-12-13-14-15-16-17-18-19(20)21-22(2,3)4/h10-11H,5-9,12-18H2,1-4H3/b11-10-
computed SMILES=O=C(O[Si](C)(C)C)CCCCCCCC=CCCCCCC
accession=JP000579
date=2016.01.19 (Created 2008.10.21, modified 2011.05.06)
author=KOGA M, UNIV. OF OCCUPATIONAL AND ENVIRONMENTAL HEALTH
license=CC BY-NC-SA
exact mass=326.26411
ionization energy=70 eV
ion type=[M]+*
computed spectral entropy=2.85986739134627
computed normalized entropy=0.8677211608514466
SPLASH=splash10-05xs-9200000000-e82fa2b582d736406293
submitter=submitter = University of Tokyo Team (Faculty of Engineering, University of Tokyo)
MoNA Rating=3.75

>  <NUM PEAKS>  (7098) 
27

>  <MASS SPECTRAL PEAKS>  (7098) 
43 13.8
55 50.8
57 12.5
67 2.34
69 22.1
73 74.6
74 10.4
75 99.99
79 11.2
81 17
82 14.4
83 1.02
84 20
95 17.2
96 29.3
97 1.61
98 16.8
110 14.2
117 57.2
129 4.25
131 10.6
132 15.3
145 24.2
152 1.06
194 10.4
311 25.5
312 7.2

$$$$

     RDKit          2D

 20 19  0  0  0  0  0  0  0  0999 V2000
   -7.4192    5.8995    0.0000 C   0  0  0  0  0  0  0  0  0  0  0  0
    8.7183   12.4486    0.0000 C   0  0  0  0  0  0  0  0  0  0  0  0
   10.7673   11.8995    0.0000 C   0  0  0  0  0  0  0  0  0  0  0  0
   10.2183    9.8505    0.0000 C   0  0  0  0  0  0  0  0  0  0  0  0
   -6.1202    6.6495    0.0000 C   0  0  0  0  0  0  0  0  0  0  0  0
   -6.1202    8.1495    0.0000 C   0  0  0  0  0  0  0  0  0  0  0  0
   -4.8212    8.8995    0.0000 C   0  0  0  0  0  0  0  0  0  0  0  0
   -4.8212   10.3995    0.0000 C   0  0  0  0  0  0  0  0  0  0  0  0
   -3.5221   11.1495    0.0000 C   0  0  0  0  0  0  0  0  0  0  0  0
   -2.2231   10.3995    0.0000 C   0  0  0  0  0  0  0  0  0  0  0  0
   -0.9240   11.1495    0.0000 C   0  0  0  0  0  0  0  0  0  0  0  0
    0.3750   10.3995    0.0000 C   0  0  0  0  0  0  0  0  0  0  0  0
    1.6740   11.1495    0.0000 C   0  0  0  0  0  0  0  0  0  0  0  0
    2.9731   10.3995    0.0000 C   0  0  0  0  0  0  0  0  0  0  0  0
    4.2721   11.1495    0.0000 C   0  0  0  0  0  0  0  0  0  0  0  0
    5.5712   10.3995    0.0000 C   0  0  0  0  0  0  0  0  0  0  0  0
    6.8702   11.1495    0.0000 C   0  0  0  0  0  0  0  0  0  0  0  0
    6.8702   12.6495    0.0000 O   0  0  0  0  0  0  0  0  0  0  0  0
    8.1692   10.3995    0.0000 O   0  0  0  0  0  0  0  0  0  0  0  0
    9.4683   11.1495    0.0000 Si  0  0  0  0  0  4  0  0  0  0  0  0
  5  1  1  0
  6  5  1  0
  7  6  1  0
  8  7  1  0
  8  9  2  0
 10  9  1  0
 11 10  1  0
 12 11  1  0
 13 12  1  0
 14 13  1  0
 15 14  1  0
 16 15  1  0
 17 16  1  0
 18 17  2  0
 19 17  1  0
 20  2  1  0
 20  3  1  0
 20  4  1  0
 20 19  1  0
M  END
>  <NAME>  (7099) 
MYRISTOLEIC ACID TRIMETHYLSILYL ESTER

>  <SYNONYMS>  (7099) 
TRIMETHYLSILYL 9-TETRADECENOATE

>  <SPECTRUM TYPE>  (7099) 
MS1

>  <INSTRUMENT TYPE>  (7099) 
EI-B

>  <INSTRUMENT>  (7099) 
JEOL JMS-01-SG

>  <ION MODE>  (7099) 
P

>  <INCHIKEY>  (7099) 
LMYWVFVYLKKYSP-HJWRWDBZSA-N

>  <FORMULA>  (7099) 
C17H34O2Si

>  <EXACT MASS>  (7099) 
298.232806858

>  <MW>  (7099) 
298

>  <ID>  (7099) 
JP000578

>  <CONTRIBUTOR>  (7099) 
University of Tokyo Team, {Faculty of Engineering, University of Tokyo

>  <COMMENT>  (7099) 
SMILES=CCCCC=CCCCCCCCC(=O)O[Si](C)(C)C
InChI=InChI=1S/C17H34O2Si/c1-5-6-7-8-9-10-11-12-13-14-15-16-17(18)19-20(2,3)4/h8-9H,5-7,10-16H2,1-4H3/b9-8-
computed SMILES=O=C(O[Si](C)(C)C)CCCCCCCC=CCCCC
accession=JP000578
date=2016.01.19 (Created 2008.10.21, modified 2011.05.06)
author=KOGA M, UNIV. OF OCCUPATIONAL AND ENVIRONMENTAL HEALTH
license=CC BY-NC-SA
exact mass=298.23281
ionization energy=70 eV
ion type=[M]+*
computed spectral entropy=2.6264753112575394
computed normalized entropy=0.837659115400163
SPLASH=splash10-01b9-9400000000-bbf2515986dcfb0e85f1
submitter=submitter = University of Tokyo Team (Faculty of Engineering, University of Tokyo)
MoNA Rating=3.75

>  <NUM PEAKS>  (7099) 
23

>  <MASS SPECTRAL PEAKS>  (7099) 
45 12.3
55 50.4
67 20.1
68 1.06
69 18.1
73 99.99
74 9.1
75 8.33
81 22.9
82 12.3
83 10.6
84 1.43
95 18.8
96 17.5
98 18.8
109 1.12
117 88.4
129 50.6
131 15.5
145 1.3
166 10.6
283 19.2
284 4.8

$$$$

     RDKit          2D

 29 28  0  0  0  0  0  0  0  0999 V2000
    8.0320   14.3873    0.0000 C   0  0  0  0  0  0  0  0  0  0  0  0
  -23.8949   15.6863    0.0000 C   0  0  0  0  0  0  0  0  0  0  0  0
  -24.4440   13.6373    0.0000 C   0  0  0  0  0  0  0  0  0  0  0  0
  -22.3949   13.0882    0.0000 C   0  0  0  0  0  0  0  0  0  0  0  0
    6.7329   15.1373    0.0000 C   0  0  0  0  0  0  0  0  0  0  0  0
    5.4339   14.3873    0.0000 C   0  0  0  0  0  0  0  0  0  0  0  0
    4.1349   15.1373    0.0000 C   0  0  0  0  0  0  0  0  0  0  0  0
    2.8358   14.3873    0.0000 C   0  0  0  0  0  0  0  0  0  0  0  0
    1.5368   15.1373    0.0000 C   0  0  0  0  0  0  0  0  0  0  0  0
    0.2377   14.3873    0.0000 C   0  0  0  0  0  0  0  0  0  0  0  0
   -1.0613   15.1373    0.0000 C   0  0  0  0  0  0  0  0  0  0  0  0
   -2.3603   14.3873    0.0000 C   0  0  0  0  0  0  0  0  0  0  0  0
   -3.6594   15.1373    0.0000 C   0  0  0  0  0  0  0  0  0  0  0  0
   -4.9584   14.3873    0.0000 C   0  0  0  0  0  0  0  0  0  0  0  0
   -6.2575   15.1373    0.0000 C   0  0  0  0  0  0  0  0  0  0  0  0
   -7.5565   14.3873    0.0000 C   0  0  0  0  0  0  0  0  0  0  0  0
   -8.8555   15.1373    0.0000 C   0  0  0  0  0  0  0  0  0  0  0  0
  -10.1546   14.3873    0.0000 C   0  0  0  0  0  0  0  0  0  0  0  0
  -11.4536   15.1373    0.0000 C   0  0  0  0  0  0  0  0  0  0  0  0
  -12.7526   14.3873    0.0000 C   0  0  0  0  0  0  0  0  0  0  0  0
  -14.0517   15.1373    0.0000 C   0  0  0  0  0  0  0  0  0  0  0  0
  -15.3507   14.3873    0.0000 C   0  0  0  0  0  0  0  0  0  0  0  0
  -16.6498   15.1373    0.0000 C   0  0  0  0  0  0  0  0  0  0  0  0
  -17.9488   14.3873    0.0000 C   0  0  0  0  0  0  0  0  0  0  0  0
  -19.2478   15.1373    0.0000 C   0  0  0  0  0  0  0  0  0  0  0  0
  -20.5469   14.3873    0.0000 C   0  0  0  0  0  0  0  0  0  0  0  0
  -20.5469   12.8873    0.0000 O   0  0  0  0  0  0  0  0  0  0  0  0
  -21.8459   15.1373    0.0000 O   0  0  0  0  0  0  0  0  0  0  0  0
  -23.1449   14.3873    0.0000 Si  0  0  0  0  0  4  0  0  0  0  0  0
  5  1  1  0
  6  5  1  0
  7  6  1  0
  8  7  1  0
  9  8  1  0
 10  9  1  0
 11 10  1  0
 12 11  1  0
 13 12  1  0
 14 13  1  0
 15 14  1  0
 16 15  1  0
 17 16  1  0
 18 17  1  0
 19 18  1  0
 20 19  1  0
 21 20  1  0
 22 21  1  0
 23 22  1  0
 24 23  1  0
 25 24  1  0
 26 25  1  0
 27 26  2  0
 28 26  1  0
 29  2  1  0
 29  3  1  0
 29  4  1  0
 29 28  1  0
M  END
>  <NAME>  (7100) 
TRICOSANOIC ACID TRIMETHYLSILYL ESTER

>  <SYNONYMS>  (7100) 


>  <SPECTRUM TYPE>  (7100) 
MS1

>  <INSTRUMENT TYPE>  (7100) 
EI-B

>  <INSTRUMENT>  (7100) 
JEOL JMS-01-SG

>  <ION MODE>  (7100) 
P

>  <INCHIKEY>  (7100) 
KYTCCEWJBLIPMI-UHFFFAOYSA-N

>  <FORMULA>  (7100) 
C26H54O2Si

>  <EXACT MASS>  (7100) 
426.389307498

>  <MW>  (7100) 
426

>  <ID>  (7100) 
JP000577

>  <CONTRIBUTOR>  (7100) 
University of Tokyo Team, {Faculty of Engineering, University of Tokyo

>  <COMMENT>  (7100) 
SMILES=CCCCCCCCCCCCCCCCCCCCCCC(=O)O[Si](C)(C)C
InChI=InChI=1S/C26H54O2Si/c1-5-6-7-8-9-10-11-12-13-14-15-16-17-18-19-20-21-22-23-24-25-26(27)28-29(2,3)4/h5-25H2,1-4H3
computed SMILES=O=C(O[Si](C)(C)C)CCCCCCCCCCCCCCCCCCCCCC
accession=JP000577
date=2016.01.19 (Created 2008.10.21, modified 2011.05.06)
author=KOGA M, UNIV. OF OCCUPATIONAL AND ENVIRONMENTAL HEALTH
license=CC BY-NC-SA
exact mass=426.38931
ionization energy=70 eV
ion type=[M]+*
computed spectral entropy=2.8621747189435194
computed normalized entropy=0.9006061167409984
SPLASH=splash10-00dj-9401200000-72f4f072f0f7506aee13
submitter=submitter = University of Tokyo Team (Faculty of Engineering, University of Tokyo)
MoNA Rating=3.75

>  <NUM PEAKS>  (7100) 
24

>  <MASS SPECTRAL PEAKS>  (7100) 
43 26.1
55 22.3
57 20.8
69 1.64
73 99.99
75 12.6
77 16.4
81 2.08
83 21.6
91 16.4
97 22.3
117 8.43
118 18.6
129 36.5
131 10.4
132 5.22
145 37.3
147 24.6
201 20.1
282 1.64
315 17.1
326 15.6
411 48.5
412 19.4

$$$$

     RDKit          2D

 28 27  0  0  0  0  0  0  0  0999 V2000
    8.0687   13.7745    0.0000 C   0  0  0  0  0  0  0  0  0  0  0  0
  -21.0591   15.8236    0.0000 C   0  0  0  0  0  0  0  0  0  0  0  0
  -23.1082   15.2745    0.0000 C   0  0  0  0  0  0  0  0  0  0  0  0
  -22.5591   13.2255    0.0000 C   0  0  0  0  0  0  0  0  0  0  0  0
    6.7697   14.5245    0.0000 C   0  0  0  0  0  0  0  0  0  0  0  0
    5.4707   13.7745    0.0000 C   0  0  0  0  0  0  0  0  0  0  0  0
    4.1716   14.5245    0.0000 C   0  0  0  0  0  0  0  0  0  0  0  0
    2.8726   13.7745    0.0000 C   0  0  0  0  0  0  0  0  0  0  0  0
    1.5736   14.5245    0.0000 C   0  0  0  0  0  0  0  0  0  0  0  0
    0.2745   13.7745    0.0000 C   0  0  0  0  0  0  0  0  0  0  0  0
   -1.0245   14.5245    0.0000 C   0  0  0  0  0  0  0  0  0  0  0  0
   -2.3236   13.7745    0.0000 C   0  0  0  0  0  0  0  0  0  0  0  0
   -3.6226   14.5245    0.0000 C   0  0  0  0  0  0  0  0  0  0  0  0
   -4.9216   13.7745    0.0000 C   0  0  0  0  0  0  0  0  0  0  0  0
   -6.2207   14.5245    0.0000 C   0  0  0  0  0  0  0  0  0  0  0  0
   -7.5197   13.7745    0.0000 C   0  0  0  0  0  0  0  0  0  0  0  0
   -8.8187   14.5245    0.0000 C   0  0  0  0  0  0  0  0  0  0  0  0
  -10.1178   13.7745    0.0000 C   0  0  0  0  0  0  0  0  0  0  0  0
  -11.4168   14.5245    0.0000 C   0  0  0  0  0  0  0  0  0  0  0  0
  -12.7159   13.7745    0.0000 C   0  0  0  0  0  0  0  0  0  0  0  0
  -14.0149   14.5245    0.0000 C   0  0  0  0  0  0  0  0  0  0  0  0
  -15.3139   13.7745    0.0000 C   0  0  0  0  0  0  0  0  0  0  0  0
  -16.6130   14.5245    0.0000 C   0  0  0  0  0  0  0  0  0  0  0  0
  -17.9120   13.7745    0.0000 C   0  0  0  0  0  0  0  0  0  0  0  0
  -19.2111   14.5245    0.0000 C   0  0  0  0  0  0  0  0  0  0  0  0
  -19.2111   16.0245    0.0000 O   0  0  0  0  0  0  0  0  0  0  0  0
  -20.5101   13.7745    0.0000 O   0  0  0  0  0  0  0  0  0  0  0  0
  -21.8091   14.5245    0.0000 Si  0  0  0  0  0  4  0  0  0  0  0  0
  5  1  1  0
  6  5  1  0
  7  6  1  0
  8  7  1  0
  9  8  1  0
 10  9  1  0
 11 10  1  0
 12 11  1  0
 13 12  1  0
 14 13  1  0
 15 14  1  0
 16 15  1  0
 17 16  1  0
 18 17  1  0
 19 18  1  0
 20 19  1  0
 21 20  1  0
 22 21  1  0
 23 22  1  0
 24 23  1  0
 25 24  1  0
 26 25  2  0
 27 25  1  0
 28  2  1  0
 28  3  1  0
 28  4  1  0
 28 27  1  0
M  END
>  <NAME>  (7101) 
DOCOSANOIC ACID TRIMETHYLSILYL ESTER

>  <SYNONYMS>  (7101) 


>  <SPECTRUM TYPE>  (7101) 
MS1

>  <INSTRUMENT TYPE>  (7101) 
EI-B

>  <INSTRUMENT>  (7101) 
JEOL JMS-01-SG

>  <ION MODE>  (7101) 
P

>  <INCHIKEY>  (7101) 
BJBBFOVJCKMBAL-UHFFFAOYSA-N

>  <FORMULA>  (7101) 
C25H52O2Si

>  <EXACT MASS>  (7101) 
412.373657434

>  <MW>  (7101) 
412

>  <ID>  (7101) 
JP000576

>  <CONTRIBUTOR>  (7101) 
University of Tokyo Team, {Faculty of Engineering, University of Tokyo

>  <COMMENT>  (7101) 
SMILES=CCCCCCCCCCCCCCCCCCCCCC(=O)O[Si](C)(C)C
InChI=InChI=1S/C25H52O2Si/c1-5-6-7-8-9-10-11-12-13-14-15-16-17-18-19-20-21-22-23-24-25(26)27-28(2,3)4/h5-24H2,1-4H3
computed SMILES=O=C(O[Si](C)(C)C)CCCCCCCCCCCCCCCCCCCCC
accession=JP000576
date=2016.01.19 (Created 2008.10.21, modified 2011.05.06)
author=KOGA M, UNIV. OF OCCUPATIONAL AND ENVIRONMENTAL HEALTH
license=CC BY-NC-SA
exact mass=412.37366
ionization energy=70 eV
ion type=[M]+*
computed spectral entropy=2.869412451182729
computed normalized entropy=0.8611153494392991
SPLASH=splash10-05xr-9601000000-732887437f9745216b51
submitter=submitter = University of Tokyo Team (Faculty of Engineering, University of Tokyo)
MoNA Rating=3.75

>  <NUM PEAKS>  (7101) 
28

>  <MASS SPECTRAL PEAKS>  (7101) 
43 35.8
45 16.6
55 30.7
56 1.53
57 26.9
67 15.3
69 14.1
71 1.66
73 99.99
74 12.8
75 70.5
81 1.53
83 15.3
95 14.1
97 15.3
98 1.41
117 93.5
118 14.1
129 41
131 1.53
132 50
133 15.3
135 28.2
145 4.35
197 14.1
315 6.4
396 7.6
397 39.7

$$$$

     RDKit          2D

 27 26  0  0  0  0  0  0  0  0999 V2000
    7.3825   13.2623    0.0000 C   0  0  0  0  0  0  0  0  0  0  0  0
  -21.9464   14.5613    0.0000 C   0  0  0  0  0  0  0  0  0  0  0  0
  -22.4954   12.5123    0.0000 C   0  0  0  0  0  0  0  0  0  0  0  0
  -20.4464   11.9632    0.0000 C   0  0  0  0  0  0  0  0  0  0  0  0
    6.0834   14.0123    0.0000 C   0  0  0  0  0  0  0  0  0  0  0  0
    4.7844   13.2623    0.0000 C   0  0  0  0  0  0  0  0  0  0  0  0
    3.4853   14.0123    0.0000 C   0  0  0  0  0  0  0  0  0  0  0  0
    2.1863   13.2623    0.0000 C   0  0  0  0  0  0  0  0  0  0  0  0
    0.8873   14.0123    0.0000 C   0  0  0  0  0  0  0  0  0  0  0  0
   -0.4118   13.2623    0.0000 C   0  0  0  0  0  0  0  0  0  0  0  0
   -1.7108   14.0123    0.0000 C   0  0  0  0  0  0  0  0  0  0  0  0
   -3.0099   13.2623    0.0000 C   0  0  0  0  0  0  0  0  0  0  0  0
   -4.3089   14.0123    0.0000 C   0  0  0  0  0  0  0  0  0  0  0  0
   -5.6079   13.2623    0.0000 C   0  0  0  0  0  0  0  0  0  0  0  0
   -6.9070   14.0123    0.0000 C   0  0  0  0  0  0  0  0  0  0  0  0
   -8.2060   13.2623    0.0000 C   0  0  0  0  0  0  0  0  0  0  0  0
   -9.5050   14.0123    0.0000 C   0  0  0  0  0  0  0  0  0  0  0  0
  -10.8041   13.2623    0.0000 C   0  0  0  0  0  0  0  0  0  0  0  0
  -12.1031   14.0123    0.0000 C   0  0  0  0  0  0  0  0  0  0  0  0
  -13.4022   13.2623    0.0000 C   0  0  0  0  0  0  0  0  0  0  0  0
  -14.7012   14.0123    0.0000 C   0  0  0  0  0  0  0  0  0  0  0  0
  -16.0002   13.2623    0.0000 C   0  0  0  0  0  0  0  0  0  0  0  0
  -17.2993   14.0123    0.0000 C   0  0  0  0  0  0  0  0  0  0  0  0
  -18.5983   13.2623    0.0000 C   0  0  0  0  0  0  0  0  0  0  0  0
  -18.5983   11.7623    0.0000 O   0  0  0  0  0  0  0  0  0  0  0  0
  -19.8974   14.0123    0.0000 O   0  0  0  0  0  0  0  0  0  0  0  0
  -21.1964   13.2623    0.0000 Si  0  0  0  0  0  4  0  0  0  0  0  0
  5  1  1  0
  6  5  1  0
  7  6  1  0
  8  7  1  0
  9  8  1  0
 10  9  1  0
 11 10  1  0
 12 11  1  0
 13 12  1  0
 14 13  1  0
 15 14  1  0
 16 15  1  0
 17 16  1  0
 18 17  1  0
 19 18  1  0
 20 19  1  0
 21 20  1  0
 22 21  1  0
 23 22  1  0
 24 23  1  0
 25 24  2  0
 26 24  1  0
 27  2  1  0
 27  3  1  0
 27  4  1  0
 27 26  1  0
M  END
>  <NAME>  (7102) 
HENEICOSANOIC ACID TRIMETHYLSILYL ESTER

>  <SYNONYMS>  (7102) 


>  <SPECTRUM TYPE>  (7102) 
MS1

>  <INSTRUMENT TYPE>  (7102) 
EI-B

>  <INSTRUMENT>  (7102) 
JEOL JMS-01-SG

>  <ION MODE>  (7102) 
P

>  <INCHIKEY>  (7102) 
RZWSAJMDACSTKQ-UHFFFAOYSA-N

>  <FORMULA>  (7102) 
C24H50O2Si

>  <EXACT MASS>  (7102) 
398.35800737

>  <MW>  (7102) 
398

>  <ID>  (7102) 
JP000575

>  <CONTRIBUTOR>  (7102) 
University of Tokyo Team, {Faculty of Engineering, University of Tokyo

>  <COMMENT>  (7102) 
SMILES=CCCCCCCCCCCCCCCCCCCCC(=O)O[Si](C)(C)C
InChI=InChI=1S/C24H50O2Si/c1-5-6-7-8-9-10-11-12-13-14-15-16-17-18-19-20-21-22-23-24(25)26-27(2,3)4/h5-23H2,1-4H3
computed SMILES=O=C(O[Si](C)(C)C)CCCCCCCCCCCCCCCCCCCC
accession=JP000575
date=2016.01.19 (Created 2008.10.21, modified 2011.05.06)
author=KOGA M, UNIV. OF OCCUPATIONAL AND ENVIRONMENTAL HEALTH
license=CC BY-NC-SA
exact mass=398.35801
ionization energy=70 eV
ion type=[M]+*
computed spectral entropy=2.783922747482583
computed normalized entropy=0.8446785628858022
SPLASH=splash10-017i-7902000000-5ee59add83267bba0208
submitter=submitter = University of Tokyo Team (Faculty of Engineering, University of Tokyo)
MoNA Rating=3.75

>  <NUM PEAKS>  (7102) 
27

>  <MASS SPECTRAL PEAKS>  (7102) 
43 20.4
45 7.6
55 15.7
57 1.73
67 7.6
69 8.9
71 9.4
73 4.96
74 9.1
75 50.3
81 9.9
83 0.91
85 6
95 10.2
97 9.9
117 99.99
118 9.1
129 35.6
131 14.6
132 4.14
133 10.2
145 31.7
201 10.2
207 1.18
355 6
383 36.4
398 6.5

$$$$

     RDKit          2D

 26 25  0  0  0  0  0  0  0  0999 V2000
  -21.9096   12.8505    0.0000 C   0  0  0  0  0  0  0  0  0  0  0  0
    4.6202   10.8014    0.0000 C   0  0  0  0  0  0  0  0  0  0  0  0
    6.6692   11.3505    0.0000 C   0  0  0  0  0  0  0  0  0  0  0  0
    6.1202   13.3995    0.0000 C   0  0  0  0  0  0  0  0  0  0  0  0
  -20.6106   12.1005    0.0000 C   0  0  0  0  0  0  0  0  0  0  0  0
  -19.3115   12.8505    0.0000 C   0  0  0  0  0  0  0  0  0  0  0  0
  -18.0125   12.1005    0.0000 C   0  0  0  0  0  0  0  0  0  0  0  0
  -16.7135   12.8505    0.0000 C   0  0  0  0  0  0  0  0  0  0  0  0
  -15.4144   12.1005    0.0000 C   0  0  0  0  0  0  0  0  0  0  0  0
  -14.1154   12.8505    0.0000 C   0  0  0  0  0  0  0  0  0  0  0  0
  -12.8163   12.1005    0.0000 C   0  0  0  0  0  0  0  0  0  0  0  0
  -11.5173   12.8505    0.0000 C   0  0  0  0  0  0  0  0  0  0  0  0
  -10.2183   12.1005    0.0000 C   0  0  0  0  0  0  0  0  0  0  0  0
   -8.9192   12.8505    0.0000 C   0  0  0  0  0  0  0  0  0  0  0  0
   -7.6202   12.1005    0.0000 C   0  0  0  0  0  0  0  0  0  0  0  0
   -6.3212   12.8505    0.0000 C   0  0  0  0  0  0  0  0  0  0  0  0
   -5.0221   12.1005    0.0000 C   0  0  0  0  0  0  0  0  0  0  0  0
   -3.7231   12.8505    0.0000 C   0  0  0  0  0  0  0  0  0  0  0  0
   -2.4240   12.1005    0.0000 C   0  0  0  0  0  0  0  0  0  0  0  0
   -1.1250   12.8505    0.0000 C   0  0  0  0  0  0  0  0  0  0  0  0
    0.1740   12.1005    0.0000 C   0  0  0  0  0  0  0  0  0  0  0  0
    1.4731   12.8505    0.0000 C   0  0  0  0  0  0  0  0  0  0  0  0
    2.7721   12.1005    0.0000 C   0  0  0  0  0  0  0  0  0  0  0  0
    2.7721   10.6005    0.0000 O   0  0  0  0  0  0  0  0  0  0  0  0
    4.0712   12.8505    0.0000 O   0  0  0  0  0  0  0  0  0  0  0  0
    5.3702   12.1005    0.0000 Si  0  0  0  0  0  4  0  0  0  0  0  0
  5  1  1  0
  6  5  1  0
  7  6  1  0
  8  7  1  0
  9  8  1  0
 10  9  1  0
 11 10  1  0
 12 11  1  0
 13 12  1  0
 14 13  1  0
 15 14  1  0
 16 15  1  0
 17 16  1  0
 18 17  1  0
 19 18  1  0
 20 19  1  0
 21 20  1  0
 22 21  1  0
 23 22  1  0
 24 23  2  0
 25 23  1  0
 26  2  1  0
 26  3  1  0
 26  4  1  0
 26 25  1  0
M  END
>  <NAME>  (7103) 
EICOSANOIC ACID TRIMETHYLSILYL ESTER

>  <SYNONYMS>  (7103) 


>  <SPECTRUM TYPE>  (7103) 
MS1

>  <INSTRUMENT TYPE>  (7103) 
EI-B

>  <INSTRUMENT>  (7103) 
JEOL JMS-01-SG

>  <ION MODE>  (7103) 
P

>  <INCHIKEY>  (7103) 
AYSGFBVOWSXJCN-UHFFFAOYSA-N

>  <FORMULA>  (7103) 
C23H48O2Si

>  <EXACT MASS>  (7103) 
384.342357306

>  <MW>  (7103) 
384

>  <ID>  (7103) 
JP000574

>  <CONTRIBUTOR>  (7103) 
University of Tokyo Team, {Faculty of Engineering, University of Tokyo

>  <COMMENT>  (7103) 
SMILES=CCCCCCCCCCCCCCCCCCCC(=O)O[Si](C)(C)C
cas=55530-70-6
InChI=InChI=1S/C23H48O2Si/c1-5-6-7-8-9-10-11-12-13-14-15-16-17-18-19-20-21-22-23(24)25-26(2,3)4/h5-22H2,1-4H3
computed SMILES=O=C(O[Si](C)(C)C)CCCCCCCCCCCCCCCCCCC
accession=JP000574
date=2016.01.19 (Created 2008.10.21, modified 2011.05.06)
author=KOGA M, UNIV. OF OCCUPATIONAL AND ENVIRONMENTAL HEALTH
license=CC BY-NC-SA
exact mass=384.34236
ionization energy=70 eV
ion type=[M]+*
computed spectral entropy=2.71083399207639
computed normalized entropy=0.8421679305343776
SPLASH=splash10-01e9-9610000000-9c498a62c7ed6c4756c3
submitter=submitter = University of Tokyo Team (Faculty of Engineering, University of Tokyo)
MoNA Rating=3.75

>  <NUM PEAKS>  (7103) 
25

>  <MASS SPECTRAL PEAKS>  (7103) 
43 28.6
45 10.5
55 29.6
56 0.95
57 10
67 10.5
69 20.7
71 1.08
73 88.8
74 11.5
75 70.7
83 1.31
95 10.5
117 99.99
118 10.5
129 4.57
131 19.4
132 49.7
133 13.1
145 4.21
201 12.5
209 17.4
220 17.1
369 6.08
370 19.4

$$$$

     RDKit          2D

 25 24  0  0  0  0  0  0  0  0999 V2000
    6.7329   12.1373    0.0000 C   0  0  0  0  0  0  0  0  0  0  0  0
  -19.9978   13.4363    0.0000 C   0  0  0  0  0  0  0  0  0  0  0  0
  -20.5469   11.3873    0.0000 C   0  0  0  0  0  0  0  0  0  0  0  0
  -18.4978   10.8382    0.0000 C   0  0  0  0  0  0  0  0  0  0  0  0
    5.4339   12.8873    0.0000 C   0  0  0  0  0  0  0  0  0  0  0  0
    4.1349   12.1373    0.0000 C   0  0  0  0  0  0  0  0  0  0  0  0
    2.8358   12.8873    0.0000 C   0  0  0  0  0  0  0  0  0  0  0  0
    1.5368   12.1373    0.0000 C   0  0  0  0  0  0  0  0  0  0  0  0
    0.2377   12.8873    0.0000 C   0  0  0  0  0  0  0  0  0  0  0  0
   -1.0613   12.1373    0.0000 C   0  0  0  0  0  0  0  0  0  0  0  0
   -2.3603   12.8873    0.0000 C   0  0  0  0  0  0  0  0  0  0  0  0
   -3.6594   12.1373    0.0000 C   0  0  0  0  0  0  0  0  0  0  0  0
   -4.9584   12.8873    0.0000 C   0  0  0  0  0  0  0  0  0  0  0  0
   -6.2575   12.1373    0.0000 C   0  0  0  0  0  0  0  0  0  0  0  0
   -7.5565   12.8873    0.0000 C   0  0  0  0  0  0  0  0  0  0  0  0
   -8.8555   12.1373    0.0000 C   0  0  0  0  0  0  0  0  0  0  0  0
  -10.1546   12.8873    0.0000 C   0  0  0  0  0  0  0  0  0  0  0  0
  -11.4536   12.1373    0.0000 C   0  0  0  0  0  0  0  0  0  0  0  0
  -12.7526   12.8873    0.0000 C   0  0  0  0  0  0  0  0  0  0  0  0
  -14.0517   12.1373    0.0000 C   0  0  0  0  0  0  0  0  0  0  0  0
  -15.3507   12.8873    0.0000 C   0  0  0  0  0  0  0  0  0  0  0  0
  -16.6498   12.1373    0.0000 C   0  0  0  0  0  0  0  0  0  0  0  0
  -16.6498   10.6373    0.0000 O   0  0  0  0  0  0  0  0  0  0  0  0
  -17.9488   12.8873    0.0000 O   0  0  0  0  0  0  0  0  0  0  0  0
  -19.2478   12.1373    0.0000 Si  0  0  0  0  0  4  0  0  0  0  0  0
  5  1  1  0
  6  5  1  0
  7  6  1  0
  8  7  1  0
  9  8  1  0
 10  9  1  0
 11 10  1  0
 12 11  1  0
 13 12  1  0
 14 13  1  0
 15 14  1  0
 16 15  1  0
 17 16  1  0
 18 17  1  0
 19 18  1  0
 20 19  1  0
 21 20  1  0
 22 21  1  0
 23 22  2  0
 24 22  1  0
 25  2  1  0
 25  3  1  0
 25  4  1  0
 25 24  1  0
M  END
>  <NAME>  (7104) 
NONADECANOIC ACID TRIMETHYLSILYL ESTER

>  <SYNONYMS>  (7104) 


>  <SPECTRUM TYPE>  (7104) 
MS1

>  <INSTRUMENT TYPE>  (7104) 
EI-B

>  <INSTRUMENT>  (7104) 
JEOL JMS-01-SG

>  <ION MODE>  (7104) 
P

>  <INCHIKEY>  (7104) 
DQTLRECATIBSSN-UHFFFAOYSA-N

>  <FORMULA>  (7104) 
C22H46O2Si

>  <EXACT MASS>  (7104) 
370.326707242

>  <MW>  (7104) 
370

>  <ID>  (7104) 
JP000573

>  <CONTRIBUTOR>  (7104) 
University of Tokyo Team, {Faculty of Engineering, University of Tokyo

>  <COMMENT>  (7104) 
SMILES=CCCCCCCCCCCCCCCCCCC(=O)O[Si](C)(C)C
InChI=InChI=1S/C22H46O2Si/c1-5-6-7-8-9-10-11-12-13-14-15-16-17-18-19-20-21-22(23)24-25(2,3)4/h5-21H2,1-4H3
computed SMILES=O=C(O[Si](C)(C)C)CCCCCCCCCCCCCCCCCC
accession=JP000573
date=2016.01.19 (Created 2008.10.21, modified 2011.05.06)
author=KOGA M, UNIV. OF OCCUPATIONAL AND ENVIRONMENTAL HEALTH
license=CC BY-NC-SA
exact mass=370.32671
ionization energy=70 eV
ion type=[M]+*
computed spectral entropy=2.8445296892997205
computed normalized entropy=0.8283460362299742
SPLASH=splash10-05ir-9301000000-5950726c32dfaab02002
submitter=submitter = University of Tokyo Team (Faculty of Engineering, University of Tokyo)
MoNA Rating=3.75

>  <NUM PEAKS>  (7104) 
31

>  <MASS SPECTRAL PEAKS>  (7104) 
43 27.5
45 9
55 24.1
56 0.58
57 16.9
61 5.8
67 10.1
69 1.21
70 5.4
71 5.8
73 99.99
74 0.6
75 51.6
77 9
83 13
85 0.56
88 5.6
95 7.9
98 8.1
117 8.98
118 10.8
119 7.4
129 33.6
131 1.35
132 38.1
133 5.8
143 5.8
145 3.06
201 9
355 32.9
370 5.1

$$$$

     RDKit          2D

 24 23  0  0  0  0  0  0  0  0999 V2000
  -19.9611   11.7255    0.0000 C   0  0  0  0  0  0  0  0  0  0  0  0
    3.9707    9.6764    0.0000 C   0  0  0  0  0  0  0  0  0  0  0  0
    6.0197   10.2255    0.0000 C   0  0  0  0  0  0  0  0  0  0  0  0
    5.4707   12.2745    0.0000 C   0  0  0  0  0  0  0  0  0  0  0  0
  -18.6620   10.9755    0.0000 C   0  0  0  0  0  0  0  0  0  0  0  0
  -17.3630   11.7255    0.0000 C   0  0  0  0  0  0  0  0  0  0  0  0
  -16.0639   10.9755    0.0000 C   0  0  0  0  0  0  0  0  0  0  0  0
  -14.7649   11.7255    0.0000 C   0  0  0  0  0  0  0  0  0  0  0  0
  -13.4659   10.9755    0.0000 C   0  0  0  0  0  0  0  0  0  0  0  0
  -12.1668   11.7255    0.0000 C   0  0  0  0  0  0  0  0  0  0  0  0
  -10.8678   10.9755    0.0000 C   0  0  0  0  0  0  0  0  0  0  0  0
   -9.5687   11.7255    0.0000 C   0  0  0  0  0  0  0  0  0  0  0  0
   -8.2697   10.9755    0.0000 C   0  0  0  0  0  0  0  0  0  0  0  0
   -6.9707   11.7255    0.0000 C   0  0  0  0  0  0  0  0  0  0  0  0
   -5.6716   10.9755    0.0000 C   0  0  0  0  0  0  0  0  0  0  0  0
   -4.3726   11.7255    0.0000 C   0  0  0  0  0  0  0  0  0  0  0  0
   -3.0736   10.9755    0.0000 C   0  0  0  0  0  0  0  0  0  0  0  0
   -1.7745   11.7255    0.0000 C   0  0  0  0  0  0  0  0  0  0  0  0
   -0.4755   10.9755    0.0000 C   0  0  0  0  0  0  0  0  0  0  0  0
    0.8236   11.7255    0.0000 C   0  0  0  0  0  0  0  0  0  0  0  0
    2.1226   10.9755    0.0000 C   0  0  0  0  0  0  0  0  0  0  0  0
    2.1226    9.4755    0.0000 O   0  0  0  0  0  0  0  0  0  0  0  0
    3.4216   11.7255    0.0000 O   0  0  0  0  0  0  0  0  0  0  0  0
    4.7207   10.9755    0.0000 Si  0  0  0  0  0  4  0  0  0  0  0  0
  5  1  1  0
  6  5  1  0
  7  6  1  0
  8  7  1  0
  9  8  1  0
 10  9  1  0
 11 10  1  0
 12 11  1  0
 13 12  1  0
 14 13  1  0
 15 14  1  0
 16 15  1  0
 17 16  1  0
 18 17  1  0
 19 18  1  0
 20 19  1  0
 21 20  1  0
 22 21  2  0
 23 21  1  0
 24  2  1  0
 24  3  1  0
 24  4  1  0
 24 23  1  0
M  END
>  <NAME>  (7105) 
OCTADECANOIC ACID TRIMETHYLSILYL ESTER

>  <SYNONYMS>  (7105) 


>  <SPECTRUM TYPE>  (7105) 
MS1

>  <INSTRUMENT TYPE>  (7105) 
EI-B

>  <INSTRUMENT>  (7105) 
JEOL JMS-01-SG

>  <ION MODE>  (7105) 
P

>  <INCHIKEY>  (7105) 
DDLPZVTUKLKVQB-UHFFFAOYSA-N

>  <FORMULA>  (7105) 
C21H44O2Si

>  <EXACT MASS>  (7105) 
356.311057178

>  <MW>  (7105) 
356

>  <ID>  (7105) 
JP000572

>  <CONTRIBUTOR>  (7105) 
University of Tokyo Team, {Faculty of Engineering, University of Tokyo

>  <COMMENT>  (7105) 
SMILES=CCCCCCCCCCCCCCCCCC(=O)O[Si](C)(C)C
cas=18748-91-9
InChI=InChI=1S/C21H44O2Si/c1-5-6-7-8-9-10-11-12-13-14-15-16-17-18-19-20-21(22)23-24(2,3)4/h5-20H2,1-4H3
computed SMILES=O=C(O[Si](C)(C)C)CCCCCCCCCCCCCCCCC
accession=JP000572
date=2016.01.19 (Created 2008.10.21, modified 2011.05.06)
author=KOGA M, UNIV. OF OCCUPATIONAL AND ENVIRONMENTAL HEALTH
license=CC BY-NC-SA
exact mass=356.31106
ionization energy=70 eV
ion type=[M]+*
computed spectral entropy=2.1913497567498816
computed normalized entropy=0.8091983508496169
SPLASH=splash10-00xr-9600000000-b8666b4a871511e0a1cd
submitter=submitter = University of Tokyo Team (Faculty of Engineering, University of Tokyo)
MoNA Rating=3.75

>  <NUM PEAKS>  (7105) 
15

>  <MASS SPECTRAL PEAKS>  (7105) 
43 30.6
55 25.4
57 16.9
67 1.01
69 11.1
73 99.99
74 10
75 6.33
117 83.2
129 35.1
131 10.6
132 3.52
145 17.9
341 16.6
356 2

$$$$

     RDKit          2D

 23 22  0  0  0  0  0  0  0  0999 V2000
    6.0834   11.0123    0.0000 C   0  0  0  0  0  0  0  0  0  0  0  0
  -18.0493   12.3113    0.0000 C   0  0  0  0  0  0  0  0  0  0  0  0
  -18.5983   10.2623    0.0000 C   0  0  0  0  0  0  0  0  0  0  0  0
  -16.5493    9.7132    0.0000 C   0  0  0  0  0  0  0  0  0  0  0  0
    4.7844   11.7623    0.0000 C   0  0  0  0  0  0  0  0  0  0  0  0
    3.4853   11.0123    0.0000 C   0  0  0  0  0  0  0  0  0  0  0  0
    2.1863   11.7623    0.0000 C   0  0  0  0  0  0  0  0  0  0  0  0
    0.8873   11.0123    0.0000 C   0  0  0  0  0  0  0  0  0  0  0  0
   -0.4118   11.7623    0.0000 C   0  0  0  0  0  0  0  0  0  0  0  0
   -1.7108   11.0123    0.0000 C   0  0  0  0  0  0  0  0  0  0  0  0
   -3.0099   11.7623    0.0000 C   0  0  0  0  0  0  0  0  0  0  0  0
   -4.3089   11.0123    0.0000 C   0  0  0  0  0  0  0  0  0  0  0  0
   -5.6079   11.7623    0.0000 C   0  0  0  0  0  0  0  0  0  0  0  0
   -6.9070   11.0123    0.0000 C   0  0  0  0  0  0  0  0  0  0  0  0
   -8.2060   11.7623    0.0000 C   0  0  0  0  0  0  0  0  0  0  0  0
   -9.5050   11.0123    0.0000 C   0  0  0  0  0  0  0  0  0  0  0  0
  -10.8041   11.7623    0.0000 C   0  0  0  0  0  0  0  0  0  0  0  0
  -12.1031   11.0123    0.0000 C   0  0  0  0  0  0  0  0  0  0  0  0
  -13.4022   11.7623    0.0000 C   0  0  0  0  0  0  0  0  0  0  0  0
  -14.7012   11.0123    0.0000 C   0  0  0  0  0  0  0  0  0  0  0  0
  -14.7012    9.5123    0.0000 O   0  0  0  0  0  0  0  0  0  0  0  0
  -16.0002   11.7623    0.0000 O   0  0  0  0  0  0  0  0  0  0  0  0
  -17.2993   11.0123    0.0000 Si  0  0  0  0  0  4  0  0  0  0  0  0
  5  1  1  0
  6  5  1  0
  7  6  1  0
  8  7  1  0
  9  8  1  0
 10  9  1  0
 11 10  1  0
 12 11  1  0
 13 12  1  0
 14 13  1  0
 15 14  1  0
 16 15  1  0
 17 16  1  0
 18 17  1  0
 19 18  1  0
 20 19  1  0
 21 20  2  0
 22 20  1  0
 23  2  1  0
 23  3  1  0
 23  4  1  0
 23 22  1  0
M  END
>  <NAME>  (7106) 
HEPTADECANOIC ACID TRIMETHYLSILYL ESTER

>  <SYNONYMS>  (7106) 


>  <SPECTRUM TYPE>  (7106) 
MS1

>  <INSTRUMENT TYPE>  (7106) 
EI-B

>  <INSTRUMENT>  (7106) 
JEOL JMS-01-SG

>  <ION MODE>  (7106) 
P

>  <INCHIKEY>  (7106) 
KCEZRIREPDDPDI-UHFFFAOYSA-N

>  <FORMULA>  (7106) 
C20H42O2Si

>  <EXACT MASS>  (7106) 
342.295407114

>  <MW>  (7106) 
342

>  <ID>  (7106) 
JP000571

>  <CONTRIBUTOR>  (7106) 
University of Tokyo Team, {Faculty of Engineering, University of Tokyo

>  <COMMENT>  (7106) 
SMILES=CCCCCCCCCCCCCCCCC(=O)O[Si](C)(C)C
cas=55517-58-3
InChI=InChI=1S/C20H42O2Si/c1-5-6-7-8-9-10-11-12-13-14-15-16-17-18-19-20(21)22-23(2,3)4/h5-19H2,1-4H3
computed SMILES=O=C(O[Si](C)(C)C)CCCCCCCCCCCCCCCC
accession=JP000571
date=2016.01.19 (Created 2008.10.21, modified 2011.05.06)
author=KOGA M, UNIV. OF OCCUPATIONAL AND ENVIRONMENTAL HEALTH
license=CC BY-NC-SA
exact mass=342.29541
ionization energy=70 eV
ion type=[M]+*
computed spectral entropy=2.7521023435381298
computed normalized entropy=0.8903476367812616
SPLASH=splash10-004l-9400000000-6066e276b259f23368f9
submitter=submitter = University of Tokyo Team (Faculty of Engineering, University of Tokyo)
MoNA Rating=3.75

>  <NUM PEAKS>  (7106) 
22

>  <MASS SPECTRAL PEAKS>  (7106) 
41 50
43 38.9
55 23.7
56 1.94
69 16.9
70 17.7
73 32.2
75 99.99
76 19.4
79 18.6
81 10.1
85 1.94
95 21.1
105 20.3
109 17.7
111 1.94
117 58.4
129 41.5
132 27.9
145 1.44
207 11.8
327 22.8

$$$$

     RDKit          2D

 22 21  0  0  0  0  0  0  0  0999 V2000
  -18.0125   10.6005    0.0000 C   0  0  0  0  0  0  0  0  0  0  0  0
    3.3212    8.5514    0.0000 C   0  0  0  0  0  0  0  0  0  0  0  0
    5.3702    9.1005    0.0000 C   0  0  0  0  0  0  0  0  0  0  0  0
    4.8212   11.1495    0.0000 C   0  0  0  0  0  0  0  0  0  0  0  0
  -16.7135    9.8505    0.0000 C   0  0  0  0  0  0  0  0  0  0  0  0
  -15.4144   10.6005    0.0000 C   0  0  0  0  0  0  0  0  0  0  0  0
  -14.1154    9.8505    0.0000 C   0  0  0  0  0  0  0  0  0  0  0  0
  -12.8163   10.6005    0.0000 C   0  0  0  0  0  0  0  0  0  0  0  0
  -11.5173    9.8505    0.0000 C   0  0  0  0  0  0  0  0  0  0  0  0
  -10.2183   10.6005    0.0000 C   0  0  0  0  0  0  0  0  0  0  0  0
   -8.9192    9.8505    0.0000 C   0  0  0  0  0  0  0  0  0  0  0  0
   -7.6202   10.6005    0.0000 C   0  0  0  0  0  0  0  0  0  0  0  0
   -6.3212    9.8505    0.0000 C   0  0  0  0  0  0  0  0  0  0  0  0
   -5.0221   10.6005    0.0000 C   0  0  0  0  0  0  0  0  0  0  0  0
   -3.7231    9.8505    0.0000 C   0  0  0  0  0  0  0  0  0  0  0  0
   -2.4240   10.6005    0.0000 C   0  0  0  0  0  0  0  0  0  0  0  0
   -1.1250    9.8505    0.0000 C   0  0  0  0  0  0  0  0  0  0  0  0
    0.1740   10.6005    0.0000 C   0  0  0  0  0  0  0  0  0  0  0  0
    1.4731    9.8505    0.0000 C   0  0  0  0  0  0  0  0  0  0  0  0
    1.4731    8.3505    0.0000 O   0  0  0  0  0  0  0  0  0  0  0  0
    2.7721   10.6005    0.0000 O   0  0  0  0  0  0  0  0  0  0  0  0
    4.0712    9.8505    0.0000 Si  0  0  0  0  0  4  0  0  0  0  0  0
  5  1  1  0
  6  5  1  0
  7  6  1  0
  8  7  1  0
  9  8  1  0
 10  9  1  0
 11 10  1  0
 12 11  1  0
 13 12  1  0
 14 13  1  0
 15 14  1  0
 16 15  1  0
 17 16  1  0
 18 17  1  0
 19 18  1  0
 20 19  2  0
 21 19  1  0
 22  2  1  0
 22  3  1  0
 22  4  1  0
 22 21  1  0
M  END
>  <NAME>  (7107) 
HEXADECANOIC ACID TRIMETHYLSILYL ESTER

>  <SYNONYMS>  (7107) 


>  <SPECTRUM TYPE>  (7107) 
MS1

>  <INSTRUMENT TYPE>  (7107) 
EI-B

>  <INSTRUMENT>  (7107) 
JEOL JMS-01-SG

>  <ION MODE>  (7107) 
P

>  <INCHIKEY>  (7107) 
HKNNSWCACQFVIK-UHFFFAOYSA-N

>  <FORMULA>  (7107) 
C19H40O2Si

>  <EXACT MASS>  (7107) 
328.27975705

>  <MW>  (7107) 
328

>  <ID>  (7107) 
JP000570

>  <CONTRIBUTOR>  (7107) 
University of Tokyo Team, {Faculty of Engineering, University of Tokyo

>  <COMMENT>  (7107) 
SMILES=CCCCCCCCCCCCCCCC(=O)O[Si](C)(C)C
InChI=InChI=1S/C19H40O2Si/c1-5-6-7-8-9-10-11-12-13-14-15-16-17-18-19(20)21-22(2,3)4/h5-18H2,1-4H3
computed SMILES=O=C(O[Si](C)(C)C)CCCCCCCCCCCCCCC
accession=JP000570
date=2016.01.19 (Created 2008.10.21, modified 2011.05.06)
author=KOGA M, UNIV. OF OCCUPATIONAL AND ENVIRONMENTAL HEALTH
license=CC BY-NC-SA
exact mass=328.27976
ionization energy=70 eV
ion type=[M]+*
computed spectral entropy=2.3645450348764405
computed normalized entropy=0.8345806502136549
SPLASH=splash10-01di-9600000000-0e4279cae80dbc9984ac
submitter=submitter = University of Tokyo Team (Faculty of Engineering, University of Tokyo)
MoNA Rating=3.75

>  <NUM PEAKS>  (7107) 
17

>  <MASS SPECTRAL PEAKS>  (7107) 
43 30.9
45 14.5
55 37.2
57 1.45
69 17.2
73 81.8
75 62.7
77 1.09
97 13.6
117 99.99
129 32.7
131 1.18
132 34.5
133 6.3
145 26.3
313 5
314 9

$$$$

     RDKit          2D

 21 20  0  0  0  0  0  0  0  0999 V2000
    5.4339    9.8873    0.0000 C   0  0  0  0  0  0  0  0  0  0  0  0
  -16.1007   11.1863    0.0000 C   0  0  0  0  0  0  0  0  0  0  0  0
  -16.6498    9.1373    0.0000 C   0  0  0  0  0  0  0  0  0  0  0  0
  -14.6007    8.5882    0.0000 C   0  0  0  0  0  0  0  0  0  0  0  0
    4.1349   10.6373    0.0000 C   0  0  0  0  0  0  0  0  0  0  0  0
    2.8358    9.8873    0.0000 C   0  0  0  0  0  0  0  0  0  0  0  0
    1.5368   10.6373    0.0000 C   0  0  0  0  0  0  0  0  0  0  0  0
    0.2377    9.8873    0.0000 C   0  0  0  0  0  0  0  0  0  0  0  0
   -1.0613   10.6373    0.0000 C   0  0  0  0  0  0  0  0  0  0  0  0
   -2.3603    9.8873    0.0000 C   0  0  0  0  0  0  0  0  0  0  0  0
   -3.6594   10.6373    0.0000 C   0  0  0  0  0  0  0  0  0  0  0  0
   -4.9584    9.8873    0.0000 C   0  0  0  0  0  0  0  0  0  0  0  0
   -6.2575   10.6373    0.0000 C   0  0  0  0  0  0  0  0  0  0  0  0
   -7.5565    9.8873    0.0000 C   0  0  0  0  0  0  0  0  0  0  0  0
   -8.8555   10.6373    0.0000 C   0  0  0  0  0  0  0  0  0  0  0  0
  -10.1546    9.8873    0.0000 C   0  0  0  0  0  0  0  0  0  0  0  0
  -11.4536   10.6373    0.0000 C   0  0  0  0  0  0  0  0  0  0  0  0
  -12.7526    9.8873    0.0000 C   0  0  0  0  0  0  0  0  0  0  0  0
  -12.7526    8.3873    0.0000 O   0  0  0  0  0  0  0  0  0  0  0  0
  -14.0517   10.6373    0.0000 O   0  0  0  0  0  0  0  0  0  0  0  0
  -15.3507    9.8873    0.0000 Si  0  0  0  0  0  4  0  0  0  0  0  0
  5  1  1  0
  6  5  1  0
  7  6  1  0
  8  7  1  0
  9  8  1  0
 10  9  1  0
 11 10  1  0
 12 11  1  0
 13 12  1  0
 14 13  1  0
 15 14  1  0
 16 15  1  0
 17 16  1  0
 18 17  1  0
 19 18  2  0
 20 18  1  0
 21  2  1  0
 21  3  1  0
 21  4  1  0
 21 20  1  0
M  END
>  <NAME>  (7108) 
PENTADECANOIC ACID TRIMETHYLSILYL ESTER

>  <SYNONYMS>  (7108) 


>  <SPECTRUM TYPE>  (7108) 
MS1

>  <INSTRUMENT TYPE>  (7108) 
EI-B

>  <INSTRUMENT>  (7108) 
JEOL JMS-01-SG

>  <ION MODE>  (7108) 
P

>  <INCHIKEY>  (7108) 
SHDTWSQDHLKGEO-UHFFFAOYSA-N

>  <FORMULA>  (7108) 
C18H38O2Si

>  <EXACT MASS>  (7108) 
314.264106986

>  <MW>  (7108) 
314

>  <ID>  (7108) 
JP000569

>  <CONTRIBUTOR>  (7108) 
University of Tokyo Team, {Faculty of Engineering, University of Tokyo

>  <COMMENT>  (7108) 
SMILES=CCCCCCCCCCCCCCC(=O)O[Si](C)(C)C
InChI=InChI=1S/C18H38O2Si/c1-5-6-7-8-9-10-11-12-13-14-15-16-17-18(19)20-21(2,3)4/h5-17H2,1-4H3
computed SMILES=O=C(O[Si](C)(C)C)CCCCCCCCCCCCCC
accession=JP000569
date=2016.01.19 (Created 2008.10.21, modified 2011.05.06)
author=KOGA M, UNIV. OF OCCUPATIONAL AND ENVIRONMENTAL HEALTH
license=CC BY-NC-SA
exact mass=314.26411
ionization energy=70 eV
ion type=[M]+*
computed spectral entropy=2.2683923052720525
computed normalized entropy=0.8006429554734736
SPLASH=splash10-00vl-9300000000-6f7de1f221ae383e1914
submitter=submitter = University of Tokyo Team (Faculty of Engineering, University of Tokyo)
MoNA Rating=3.75

>  <NUM PEAKS>  (7108) 
17

>  <MASS SPECTRAL PEAKS>  (7108) 
43 99.99
45 11.3
47 8.2
55 2.66
57 13.6
69 12.9
73 97.1
74 0.74
75 84.7
77 18
117 74.4
129 2.71
131 12.6
132 29.1
145 20.6
298 1.26
299 22.4

$$$$

     RDKit          2D

 19 18  0  0  0  0  0  0  0  0999 V2000
    4.7844    8.7623    0.0000 C   0  0  0  0  0  0  0  0  0  0  0  0
  -14.1522   10.0613    0.0000 C   0  0  0  0  0  0  0  0  0  0  0  0
  -14.7012    8.0123    0.0000 C   0  0  0  0  0  0  0  0  0  0  0  0
  -12.6522    7.4632    0.0000 C   0  0  0  0  0  0  0  0  0  0  0  0
    3.4853    9.5123    0.0000 C   0  0  0  0  0  0  0  0  0  0  0  0
    2.1863    8.7623    0.0000 C   0  0  0  0  0  0  0  0  0  0  0  0
    0.8873    9.5123    0.0000 C   0  0  0  0  0  0  0  0  0  0  0  0
   -0.4118    8.7623    0.0000 C   0  0  0  0  0  0  0  0  0  0  0  0
   -1.7108    9.5123    0.0000 C   0  0  0  0  0  0  0  0  0  0  0  0
   -3.0099    8.7623    0.0000 C   0  0  0  0  0  0  0  0  0  0  0  0
   -4.3089    9.5123    0.0000 C   0  0  0  0  0  0  0  0  0  0  0  0
   -5.6079    8.7623    0.0000 C   0  0  0  0  0  0  0  0  0  0  0  0
   -6.9070    9.5123    0.0000 C   0  0  0  0  0  0  0  0  0  0  0  0
   -8.2060    8.7623    0.0000 C   0  0  0  0  0  0  0  0  0  0  0  0
   -9.5050    9.5123    0.0000 C   0  0  0  0  0  0  0  0  0  0  0  0
  -10.8041    8.7623    0.0000 C   0  0  0  0  0  0  0  0  0  0  0  0
  -10.8041    7.2623    0.0000 O   0  0  0  0  0  0  0  0  0  0  0  0
  -12.1031    9.5123    0.0000 O   0  0  0  0  0  0  0  0  0  0  0  0
  -13.4022    8.7623    0.0000 Si  0  0  0  0  0  4  0  0  0  0  0  0
  5  1  1  0
  6  5  1  0
  7  6  1  0
  8  7  1  0
  9  8  1  0
 10  9  1  0
 11 10  1  0
 12 11  1  0
 13 12  1  0
 14 13  1  0
 15 14  1  0
 16 15  1  0
 17 16  2  0
 18 16  1  0
 19  2  1  0
 19  3  1  0
 19  4  1  0
 19 18  1  0
M  END
>  <NAME>  (7109) 
TRIDECANOIC ACID TRIMETHYLSILYL ESTER

>  <SYNONYMS>  (7109) 


>  <SPECTRUM TYPE>  (7109) 
MS1

>  <INSTRUMENT TYPE>  (7109) 
EI-B

>  <INSTRUMENT>  (7109) 
JEOL JMS-01-SG

>  <ION MODE>  (7109) 
P

>  <INCHIKEY>  (7109) 
UZUTZCYXYDHJAT-UHFFFAOYSA-N

>  <FORMULA>  (7109) 
C16H34O2Si

>  <EXACT MASS>  (7109) 
286.232806858

>  <MW>  (7109) 
286

>  <ID>  (7109) 
JP000568

>  <CONTRIBUTOR>  (7109) 
University of Tokyo Team, {Faculty of Engineering, University of Tokyo

>  <COMMENT>  (7109) 
SMILES=CCCCCCCCCCCCC(=O)O[Si](C)(C)C
InChI=InChI=1S/C16H34O2Si/c1-5-6-7-8-9-10-11-12-13-14-15-16(17)18-19(2,3)4/h5-15H2,1-4H3
computed SMILES=O=C(O[Si](C)(C)C)CCCCCCCCCCCC
accession=JP000568
date=2016.01.19 (Created 2008.10.21, modified 2011.05.06)
author=KOGA M, UNIV. OF OCCUPATIONAL AND ENVIRONMENTAL HEALTH
license=CC BY-NC-SA
exact mass=286.23281
ionization energy=70 eV
ion type=[M]+*
computed spectral entropy=2.3373380100398693
computed normalized entropy=0.7938143824945426
SPLASH=splash10-00bc-9110000000-d82340760ca3f00725e3
submitter=submitter = University of Tokyo Team (Faculty of Engineering, University of Tokyo)
MoNA Rating=3.75

>  <NUM PEAKS>  (7109) 
19

>  <MASS SPECTRAL PEAKS>  (7109) 
43 75.6
45 10
47 9.7
55 2.64
57 8.8
69 10.3
73 99.99
74 0.97
75 96.3
76 6.3
77 21.8
117 7.5
118 6.9
129 24
131 13
132 2.58
145 17
271 38.9
272 6.9

$$$$

     RDKit          2D

 18 17  0  0  0  0  0  0  0  0999 V2000
  -14.1154    8.3505    0.0000 C   0  0  0  0  0  0  0  0  0  0  0  0
    2.0221    6.3014    0.0000 C   0  0  0  0  0  0  0  0  0  0  0  0
    4.0712    6.8505    0.0000 C   0  0  0  0  0  0  0  0  0  0  0  0
    3.5221    8.8995    0.0000 C   0  0  0  0  0  0  0  0  0  0  0  0
  -12.8163    7.6005    0.0000 C   0  0  0  0  0  0  0  0  0  0  0  0
  -11.5173    8.3505    0.0000 C   0  0  0  0  0  0  0  0  0  0  0  0
  -10.2183    7.6005    0.0000 C   0  0  0  0  0  0  0  0  0  0  0  0
   -8.9192    8.3505    0.0000 C   0  0  0  0  0  0  0  0  0  0  0  0
   -7.6202    7.6005    0.0000 C   0  0  0  0  0  0  0  0  0  0  0  0
   -6.3212    8.3505    0.0000 C   0  0  0  0  0  0  0  0  0  0  0  0
   -5.0221    7.6005    0.0000 C   0  0  0  0  0  0  0  0  0  0  0  0
   -3.7231    8.3505    0.0000 C   0  0  0  0  0  0  0  0  0  0  0  0
   -2.4240    7.6005    0.0000 C   0  0  0  0  0  0  0  0  0  0  0  0
   -1.1250    8.3505    0.0000 C   0  0  0  0  0  0  0  0  0  0  0  0
    0.1740    7.6005    0.0000 C   0  0  0  0  0  0  0  0  0  0  0  0
    0.1740    6.1005    0.0000 O   0  0  0  0  0  0  0  0  0  0  0  0
    1.4731    8.3505    0.0000 O   0  0  0  0  0  0  0  0  0  0  0  0
    2.7721    7.6005    0.0000 Si  0  0  0  0  0  4  0  0  0  0  0  0
  5  1  1  0
  6  5  1  0
  7  6  1  0
  8  7  1  0
  9  8  1  0
 10  9  1  0
 11 10  1  0
 12 11  1  0
 13 12  1  0
 14 13  1  0
 15 14  1  0
 16 15  2  0
 17 15  1  0
 18  2  1  0
 18  3  1  0
 18  4  1  0
 18 17  1  0
M  END
>  <NAME>  (7110) 
DODECANOIC ACID TRIMETHYLSILYL ESTER

>  <SYNONYMS>  (7110) 


>  <SPECTRUM TYPE>  (7110) 
MS1

>  <INSTRUMENT TYPE>  (7110) 
EI-B

>  <INSTRUMENT>  (7110) 
JEOL JMS-01-SG

>  <ION MODE>  (7110) 
P

>  <INCHIKEY>  (7110) 
RHDZBWSXEZTMPK-UHFFFAOYSA-N

>  <FORMULA>  (7110) 
C15H32O2Si

>  <EXACT MASS>  (7110) 
272.217156794

>  <MW>  (7110) 
272

>  <ID>  (7110) 
JP000567

>  <CONTRIBUTOR>  (7110) 
University of Tokyo Team, {Faculty of Engineering, University of Tokyo

>  <COMMENT>  (7110) 
SMILES=CCCCCCCCCCCC(=O)O[Si](C)(C)C
cas=55520-95-1
InChI=InChI=1S/C15H32O2Si/c1-5-6-7-8-9-10-11-12-13-14-15(16)17-18(2,3)4/h5-14H2,1-4H3
computed SMILES=O=C(O[Si](C)(C)C)CCCCCCCCCCC
accession=JP000567
date=2016.01.19 (Created 2008.10.21, modified 2011.05.06)
author=KOGA M, UNIV. OF OCCUPATIONAL AND ENVIRONMENTAL HEALTH
license=CC BY-NC-SA
exact mass=272.21716
ionization energy=70 eV
ion type=[M]+*
computed spectral entropy=2.598419597269317
computed normalized entropy=0.7797899526679095
SPLASH=splash10-00vl-9310000000-a00b1885215ace3170cb
submitter=submitter = University of Tokyo Team (Faculty of Engineering, University of Tokyo)
MoNA Rating=3.75

>  <NUM PEAKS>  (7110) 
28

>  <MASS SPECTRAL PEAKS>  (7110) 
43 64.4
45 12.1
47 12.5
55 1.75
56 5
57 8.7
61 7.1
67 0.58
69 10.4
72 5
73 99.99
74 1.12
75 90.3
76 8.3
77 7.5
81 0.75
83 5.8
95 7.5
97 5
98 0.5
117 69.4
118 6.6
129 23
131 1.38
132 23.8
145 14.2
257 33.8
258 5.8

$$$$

     RDKit          2D

 17 16  0  0  0  0  0  0  0  0999 V2000
    4.1349    7.6373    0.0000 C   0  0  0  0  0  0  0  0  0  0  0  0
  -12.2036    8.9363    0.0000 C   0  0  0  0  0  0  0  0  0  0  0  0
  -12.7526    6.8873    0.0000 C   0  0  0  0  0  0  0  0  0  0  0  0
  -10.7036    6.3382    0.0000 C   0  0  0  0  0  0  0  0  0  0  0  0
    2.8358    8.3873    0.0000 C   0  0  0  0  0  0  0  0  0  0  0  0
    1.5368    7.6373    0.0000 C   0  0  0  0  0  0  0  0  0  0  0  0
    0.2377    8.3873    0.0000 C   0  0  0  0  0  0  0  0  0  0  0  0
   -1.0613    7.6373    0.0000 C   0  0  0  0  0  0  0  0  0  0  0  0
   -2.3603    8.3873    0.0000 C   0  0  0  0  0  0  0  0  0  0  0  0
   -3.6594    7.6373    0.0000 C   0  0  0  0  0  0  0  0  0  0  0  0
   -4.9584    8.3873    0.0000 C   0  0  0  0  0  0  0  0  0  0  0  0
   -6.2575    7.6373    0.0000 C   0  0  0  0  0  0  0  0  0  0  0  0
   -7.5565    8.3873    0.0000 C   0  0  0  0  0  0  0  0  0  0  0  0
   -8.8555    7.6373    0.0000 C   0  0  0  0  0  0  0  0  0  0  0  0
   -8.8555    6.1373    0.0000 O   0  0  0  0  0  0  0  0  0  0  0  0
  -10.1546    8.3873    0.0000 O   0  0  0  0  0  0  0  0  0  0  0  0
  -11.4536    7.6373    0.0000 Si  0  0  0  0  0  4  0  0  0  0  0  0
  5  1  1  0
  6  5  1  0
  7  6  1  0
  8  7  1  0
  9  8  1  0
 10  9  1  0
 11 10  1  0
 12 11  1  0
 13 12  1  0
 14 13  1  0
 15 14  2  0
 16 14  1  0
 17  2  1  0
 17  3  1  0
 17  4  1  0
 17 16  1  0
M  END
>  <NAME>  (7111) 
UNDECANOIC ACID TRIMETHYLSILYL ESTER

>  <SYNONYMS>  (7111) 


>  <SPECTRUM TYPE>  (7111) 
MS1

>  <INSTRUMENT TYPE>  (7111) 
EI-B

>  <INSTRUMENT>  (7111) 
JEOL JMS-01-SG

>  <ION MODE>  (7111) 
P

>  <INCHIKEY>  (7111) 
PVQUEUNCRLSHJP-UHFFFAOYSA-N

>  <FORMULA>  (7111) 
C14H30O2Si

>  <EXACT MASS>  (7111) 
258.20150673

>  <MW>  (7111) 
258

>  <ID>  (7111) 
JP000566

>  <CONTRIBUTOR>  (7111) 
University of Tokyo Team, {Faculty of Engineering, University of Tokyo

>  <COMMENT>  (7111) 
SMILES=CCCCCCCCCCC(=O)O[Si](C)(C)C
InChI=InChI=1S/C14H30O2Si/c1-5-6-7-8-9-10-11-12-13-14(15)16-17(2,3)4/h5-13H2,1-4H3
computed SMILES=O=C(O[Si](C)(C)C)CCCCCCCCCC
accession=JP000566
date=2016.01.19 (Created 2008.10.21, modified 2011.05.06)
author=KOGA M, UNIV. OF OCCUPATIONAL AND ENVIRONMENTAL HEALTH
license=CC BY-NC-SA
exact mass=258.20151
ionization energy=70 eV
ion type=[M]+*
computed spectral entropy=2.5162890649570597
computed normalized entropy=0.8025175272764459
SPLASH=splash10-00bc-9210000000-13f51ae4716da3969108
submitter=submitter = University of Tokyo Team (Faculty of Engineering, University of Tokyo)
MoNA Rating=3.75

>  <NUM PEAKS>  (7111) 
23

>  <MASS SPECTRAL PEAKS>  (7111) 
43 65.5
45 14.5
47 17.7
55 1.95
56 7.4
57 9.3
67 7.1
69 1.14
73 88.5
74 10.5
75 99.99
76 0.69
77 22.3
81 7.4
83 7.1
95 0.74
117 64.9
129 21.4
131 13.9
132 2.2
145 13
243 45.9
244 6.8

$$$$

     RDKit          2D

 16 15  0  0  0  0  0  0  0  0999 V2000
    4.1716    7.0245    0.0000 C   0  0  0  0  0  0  0  0  0  0  0  0
   -9.3678    9.0736    0.0000 C   0  0  0  0  0  0  0  0  0  0  0  0
  -11.4168    8.5245    0.0000 C   0  0  0  0  0  0  0  0  0  0  0  0
  -10.8678    6.4755    0.0000 C   0  0  0  0  0  0  0  0  0  0  0  0
    2.8726    7.7745    0.0000 C   0  0  0  0  0  0  0  0  0  0  0  0
    1.5736    7.0245    0.0000 C   0  0  0  0  0  0  0  0  0  0  0  0
    0.2745    7.7745    0.0000 C   0  0  0  0  0  0  0  0  0  0  0  0
   -1.0245    7.0245    0.0000 C   0  0  0  0  0  0  0  0  0  0  0  0
   -2.3236    7.7745    0.0000 C   0  0  0  0  0  0  0  0  0  0  0  0
   -3.6226    7.0245    0.0000 C   0  0  0  0  0  0  0  0  0  0  0  0
   -4.9216    7.7745    0.0000 C   0  0  0  0  0  0  0  0  0  0  0  0
   -6.2207    7.0245    0.0000 C   0  0  0  0  0  0  0  0  0  0  0  0
   -7.5197    7.7745    0.0000 C   0  0  0  0  0  0  0  0  0  0  0  0
   -7.5197    9.2745    0.0000 O   0  0  0  0  0  0  0  0  0  0  0  0
   -8.8187    7.0245    0.0000 O   0  0  0  0  0  0  0  0  0  0  0  0
  -10.1178    7.7745    0.0000 Si  0  0  0  0  0  4  0  0  0  0  0  0
  5  1  1  0
  6  5  1  0
  7  6  1  0
  8  7  1  0
  9  8  1  0
 10  9  1  0
 11 10  1  0
 12 11  1  0
 13 12  1  0
 14 13  2  0
 15 13  1  0
 16  2  1  0
 16  3  1  0
 16  4  1  0
 16 15  1  0
M  END
>  <NAME>  (7112) 
DECANOIC ACID TRIMETHYLSILYL ESTER

>  <SYNONYMS>  (7112) 


>  <SPECTRUM TYPE>  (7112) 
MS1

>  <INSTRUMENT TYPE>  (7112) 
EI-B

>  <INSTRUMENT>  (7112) 
JEOL JMS-01-SG

>  <ION MODE>  (7112) 
P

>  <INCHIKEY>  (7112) 
FGTNBYWFNITQJR-UHFFFAOYSA-N

>  <FORMULA>  (7112) 
C13H28O2Si

>  <EXACT MASS>  (7112) 
244.185856666

>  <MW>  (7112) 
244

>  <ID>  (7112) 
JP000565

>  <CONTRIBUTOR>  (7112) 
University of Tokyo Team, {Faculty of Engineering, University of Tokyo

>  <COMMENT>  (7112) 
SMILES=CCCCCCCCCC(=O)O[Si](C)(C)C
cas=55494-15-0
InChI=InChI=1S/C13H28O2Si/c1-5-6-7-8-9-10-11-12-13(14)15-16(2,3)4/h5-12H2,1-4H3
computed SMILES=O=C(O[Si](C)(C)C)CCCCCCCCC
accession=JP000565
date=2016.01.19 (Created 2008.10.21, modified 2011.05.06)
author=KOGA M, UNIV. OF OCCUPATIONAL AND ENVIRONMENTAL HEALTH
license=CC BY-NC-SA
exact mass=244.18586
ionization energy=70 eV
ion type=[M]+*
computed spectral entropy=2.200640230238081
computed normalized entropy=0.7937131867363065
SPLASH=splash10-00vi-9410000000-55e39b3c9e43d3024524
submitter=submitter = University of Tokyo Team (Faculty of Engineering, University of Tokyo)
MoNA Rating=3.75

>  <NUM PEAKS>  (7112) 
16

>  <MASS SPECTRAL PEAKS>  (7112) 
43 10.6
45 11
55 19.3
61 0.76
73 99.99
74 10.8
75 85.6
76 0.72
81 8.4
95 7.2
117 63.5
129 2.03
131 16.5
132 19.5
145 11.8
229 38.7

$$$$

     RDKit          2D

 15 14  0  0  0  0  0  0  0  0999 V2000
  -11.2796    6.0368    0.0000 C   0  0  0  0  0  0  0  0  0  0  0  0
    2.4608    4.7377    0.0000 C   0  0  0  0  0  0  0  0  0  0  0  0
    3.0099    6.7868    0.0000 C   0  0  0  0  0  0  0  0  0  0  0  0
    0.9608    7.3358    0.0000 C   0  0  0  0  0  0  0  0  0  0  0  0
   -9.9805    5.2868    0.0000 C   0  0  0  0  0  0  0  0  0  0  0  0
   -8.6815    6.0368    0.0000 C   0  0  0  0  0  0  0  0  0  0  0  0
   -7.3825    5.2868    0.0000 C   0  0  0  0  0  0  0  0  0  0  0  0
   -6.0834    6.0368    0.0000 C   0  0  0  0  0  0  0  0  0  0  0  0
   -4.7844    5.2868    0.0000 C   0  0  0  0  0  0  0  0  0  0  0  0
   -3.4853    6.0368    0.0000 C   0  0  0  0  0  0  0  0  0  0  0  0
   -2.1863    5.2868    0.0000 C   0  0  0  0  0  0  0  0  0  0  0  0
   -0.8873    6.0368    0.0000 C   0  0  0  0  0  0  0  0  0  0  0  0
   -0.8873    7.5368    0.0000 O   0  0  0  0  0  0  0  0  0  0  0  0
    0.4118    5.2868    0.0000 O   0  0  0  0  0  0  0  0  0  0  0  0
    1.7108    6.0368    0.0000 Si  0  0  0  0  0  4  0  0  0  0  0  0
  5  1  1  0
  6  5  1  0
  7  6  1  0
  8  7  1  0
  9  8  1  0
 10  9  1  0
 11 10  1  0
 12 11  1  0
 13 12  2  0
 14 12  1  0
 15  2  1  0
 15  3  1  0
 15  4  1  0
 15 14  1  0
M  END
>  <NAME>  (7113) 
NONANOIC ACID TRIMETHYLSILYL ESTER

>  <SYNONYMS>  (7113) 


>  <SPECTRUM TYPE>  (7113) 
MS1

>  <INSTRUMENT TYPE>  (7113) 
EI-B

>  <INSTRUMENT>  (7113) 
JEOL JMS-01-SG

>  <ION MODE>  (7113) 
P

>  <INCHIKEY>  (7113) 
ISTGUORKGWWKMI-UHFFFAOYSA-N

>  <FORMULA>  (7113) 
C12H26O2Si

>  <EXACT MASS>  (7113) 
230.17020660199998

>  <MW>  (7113) 
230

>  <ID>  (7113) 
JP000564

>  <CONTRIBUTOR>  (7113) 
University of Tokyo Team, {Faculty of Engineering, University of Tokyo

>  <COMMENT>  (7113) 
SMILES=CCCCCCCCC(=O)O[Si](C)(C)C
InChI=InChI=1S/C12H26O2Si/c1-5-6-7-8-9-10-11-12(13)14-15(2,3)4/h5-11H2,1-4H3
computed SMILES=O=C(O[Si](C)(C)C)CCCCCCCC
accession=JP000564
date=2016.01.19 (Created 2008.10.21, modified 2011.05.06)
author=KOGA M, UNIV. OF OCCUPATIONAL AND ENVIRONMENTAL HEALTH
license=CC BY-NC-SA
exact mass=230.17021
ionization energy=70 eV
ion type=[M]+*
computed spectral entropy=2.418796659842359
computed normalized entropy=0.8074141608698618
SPLASH=splash10-00or-9310000000-46174efc15350e7985f4
submitter=submitter = University of Tokyo Team (Faculty of Engineering, University of Tokyo)
MoNA Rating=3.75

>  <NUM PEAKS>  (7113) 
20

>  <MASS SPECTRAL PEAKS>  (7113) 
43 39.7
45 10.6
47 10.6
55 2.02
57 6
61 6.3
69 6
73 9.57
74 9.9
75 99.99
76 7.8
77 1.7
81 8.5
117 48.9
129 14.8
131 1.41
132 14.8
145 7.8
215 33.6
216 6

$$$$

     RDKit          2D

 14 13  0  0  0  0  0  0  0  0999 V2000
  -10.2183    6.1005    0.0000 C   0  0  0  0  0  0  0  0  0  0  0  0
    0.7231    4.0514    0.0000 C   0  0  0  0  0  0  0  0  0  0  0  0
    2.7721    4.6005    0.0000 C   0  0  0  0  0  0  0  0  0  0  0  0
    2.2231    6.6495    0.0000 C   0  0  0  0  0  0  0  0  0  0  0  0
   -8.9192    5.3505    0.0000 C   0  0  0  0  0  0  0  0  0  0  0  0
   -7.6202    6.1005    0.0000 C   0  0  0  0  0  0  0  0  0  0  0  0
   -6.3212    5.3505    0.0000 C   0  0  0  0  0  0  0  0  0  0  0  0
   -5.0221    6.1005    0.0000 C   0  0  0  0  0  0  0  0  0  0  0  0
   -3.7231    5.3505    0.0000 C   0  0  0  0  0  0  0  0  0  0  0  0
   -2.4240    6.1005    0.0000 C   0  0  0  0  0  0  0  0  0  0  0  0
   -1.1250    5.3505    0.0000 C   0  0  0  0  0  0  0  0  0  0  0  0
   -1.1250    3.8505    0.0000 O   0  0  0  0  0  0  0  0  0  0  0  0
    0.1740    6.1005    0.0000 O   0  0  0  0  0  0  0  0  0  0  0  0
    1.4731    5.3505    0.0000 Si  0  0  0  0  0  4  0  0  0  0  0  0
  5  1  1  0
  6  5  1  0
  7  6  1  0
  8  7  1  0
  9  8  1  0
 10  9  1  0
 11 10  1  0
 12 11  2  0
 13 11  1  0
 14  2  1  0
 14  3  1  0
 14  4  1  0
 14 13  1  0
M  END
>  <NAME>  (7114) 
OCTANOIC ACID TRIMETHYLSILYL ESTER

>  <SYNONYMS>  (7114) 


>  <SPECTRUM TYPE>  (7114) 
MS1

>  <INSTRUMENT TYPE>  (7114) 
EI-B

>  <INSTRUMENT>  (7114) 
JEOL JMS-01-SG

>  <ION MODE>  (7114) 
P

>  <INCHIKEY>  (7114) 
GRHSLTISTCPPAT-UHFFFAOYSA-N

>  <FORMULA>  (7114) 
C11H24O2Si

>  <EXACT MASS>  (7114) 
216.15455653799998

>  <MW>  (7114) 
216

>  <ID>  (7114) 
JP000563

>  <CONTRIBUTOR>  (7114) 
University of Tokyo Team, {Faculty of Engineering, University of Tokyo

>  <COMMENT>  (7114) 
SMILES=CCCCCCCC(=O)O[Si](C)(C)C
cas=55494-06-9
InChI=InChI=1S/C11H24O2Si/c1-5-6-7-8-9-10-11(12)13-14(2,3)4/h5-10H2,1-4H3
computed SMILES=O=C(O[Si](C)(C)C)CCCCCCC
accession=JP000563
date=2016.01.19 (Created 2008.10.21, modified 2011.05.06)
author=KOGA M, UNIV. OF OCCUPATIONAL AND ENVIRONMENTAL HEALTH
license=CC BY-NC-SA
exact mass=216.15456
ionization energy=70 eV
ion type=[M]+*
computed spectral entropy=2.3125544625132544
computed normalized entropy=0.8000889353404524
SPLASH=splash10-0umi-9550000000-506e27dc447a93122bb5
submitter=submitter = University of Tokyo Team (Faculty of Engineering, University of Tokyo)
MoNA Rating=3.75

>  <NUM PEAKS>  (7114) 
18

>  <MASS SPECTRAL PEAKS>  (7114) 
43 8.8
45 8.4
55 12.6
67 0.84
73 68.3
74 9.8
75 86.9
76 0.88
109 8
117 53.5
118 8.4
129 2.07
131 23.9
132 19.7
145 11.9
201 99.99
202 18.6
203 8.4

$$$$

     RDKit          2D

 13 12  0  0  0  0  0  0  0  0999 V2000
    2.8358    5.3873    0.0000 C   0  0  0  0  0  0  0  0  0  0  0  0
   -8.3065    6.6863    0.0000 C   0  0  0  0  0  0  0  0  0  0  0  0
   -8.8555    4.6373    0.0000 C   0  0  0  0  0  0  0  0  0  0  0  0
   -6.8065    4.0882    0.0000 C   0  0  0  0  0  0  0  0  0  0  0  0
    1.5368    6.1373    0.0000 C   0  0  0  0  0  0  0  0  0  0  0  0
    0.2377    5.3873    0.0000 C   0  0  0  0  0  0  0  0  0  0  0  0
   -1.0613    6.1373    0.0000 C   0  0  0  0  0  0  0  0  0  0  0  0
   -2.3603    5.3873    0.0000 C   0  0  0  0  0  0  0  0  0  0  0  0
   -3.6594    6.1373    0.0000 C   0  0  0  0  0  0  0  0  0  0  0  0
   -4.9584    5.3873    0.0000 C   0  0  0  0  0  0  0  0  0  0  0  0
   -4.9584    3.8873    0.0000 O   0  0  0  0  0  0  0  0  0  0  0  0
   -6.2575    6.1373    0.0000 O   0  0  0  0  0  0  0  0  0  0  0  0
   -7.5565    5.3873    0.0000 Si  0  0  0  0  0  4  0  0  0  0  0  0
  5  1  1  0
  6  5  1  0
  7  6  1  0
  8  7  1  0
  9  8  1  0
 10  9  1  0
 11 10  2  0
 12 10  1  0
 13  2  1  0
 13  3  1  0
 13  4  1  0
 13 12  1  0
M  END
>  <NAME>  (7115) 
HEPTANOIC ACID TRIMETHYLSILYL ESTER

>  <SYNONYMS>  (7115) 


>  <SPECTRUM TYPE>  (7115) 
MS1

>  <INSTRUMENT TYPE>  (7115) 
EI-B

>  <INSTRUMENT>  (7115) 
JEOL JMS-01-SG

>  <ION MODE>  (7115) 
P

>  <INCHIKEY>  (7115) 
AMUGRUMFZAKWNM-UHFFFAOYSA-N

>  <FORMULA>  (7115) 
C10H22O2Si

>  <EXACT MASS>  (7115) 
202.138906474

>  <MW>  (7115) 
202

>  <ID>  (7115) 
JP000562

>  <CONTRIBUTOR>  (7115) 
University of Tokyo Team, {Faculty of Engineering, University of Tokyo

>  <COMMENT>  (7115) 
SMILES=CCCCCCC(=O)O[Si](C)(C)C
InChI=InChI=1S/C10H22O2Si/c1-5-6-7-8-9-10(11)12-13(2,3)4/h5-9H2,1-4H3
computed SMILES=O=C(O[Si](C)(C)C)CCCCCC
accession=JP000562
date=2016.01.19 (Created 2008.10.21, modified 2011.05.06)
author=KOGA M, UNIV. OF OCCUPATIONAL AND ENVIRONMENTAL HEALTH
license=CC BY-NC-SA
exact mass=202.13891
ionization energy=70 eV
ion type=[M]+*
computed spectral entropy=2.545264307758273
computed normalized entropy=0.7812120598808023
SPLASH=splash10-00bc-9000000000-f037a425ddffce519b23
submitter=submitter = University of Tokyo Team (Faculty of Engineering, University of Tokyo)
MoNA Rating=3.75

>  <NUM PEAKS>  (7115) 
26

>  <MASS SPECTRAL PEAKS>  (7115) 
42 8.1
43 86.3
45 54.8
47 1.98
49 7.7
51 7.1
55 21.7
56 1.23
57 8.4
58 13.6
59 7.7
60 0.97
61 7.7
68 7.1
69 8.7
72 1.07
73 73.7
74 8.4
75 99.99
76 1
77 40.5
78 7.7
115 6.8
117 1.81
131 7.4
187 17.5

$$$$

     RDKit          2D

  9  8  0  0  0  0  0  0  0  0999 V2000
    2.5981    4.5000    0.0000 C   0  0  0  0  0  0  0  0  0  0  0  0
   -7.7942    4.5000    0.0000 C   0  0  0  0  0  0  0  0  0  0  0  0
    1.2990    5.2500    0.0000 C   0  0  0  0  0  0  0  0  0  0  0  0
   -6.4952    5.2500    0.0000 C   0  0  0  0  0  0  0  0  0  0  0  0
    0.0000    4.5000    0.0000 C   0  0  0  0  0  0  0  0  0  0  0  0
   -5.1962    4.5000    0.0000 C   0  0  0  0  0  0  0  0  0  0  0  0
   -1.2990    5.2500    0.0000 C   0  0  0  0  0  0  0  0  0  0  0  0
   -3.8971    5.2500    0.0000 N   0  0  0  0  0  0  0  0  0  0  0  0
   -2.5981    4.5000    0.0000 N   0  0  0  0  0  0  0  0  0  0  0  0
  3  1  1  0
  4  2  1  0
  5  3  1  0
  6  4  1  0
  7  5  1  0
  6  8  2  0
  9  7  1  0
  9  8  1  0
M  END
>  <NAME>  (7116) 
BUTYLHYDRAZONE PROPIONALDEHYDE

>  <SYNONYMS>  (7116) 
PROPIONALDEHYDE BUTYLHYDRAZONE

>  <SPECTRUM TYPE>  (7116) 
MS1

>  <INSTRUMENT TYPE>  (7116) 
EI-B

>  <INSTRUMENT>  (7116) 
SHIMADZU LKB-2091

>  <ION MODE>  (7116) 
P

>  <INCHIKEY>  (7116) 
HSFHCHXOARWRSD-SOFGYWHQSA-N

>  <FORMULA>  (7116) 
C7H16N2

>  <EXACT MASS>  (7116) 
128.131348512

>  <MW>  (7116) 
128

>  <ID>  (7116) 
JP000529

>  <CONTRIBUTOR>  (7116) 
University of Tokyo Team, {Faculty of Engineering, University of Tokyo

>  <COMMENT>  (7116) 
SMILES=CCCCNN=CCC
InChI=InChI=1S/C7H16N2/c1-3-5-7-9-8-6-4-2/h6,9H,3-5,7H2,1-2H3/b8-6+
computed SMILES=N(=CCC)NCCCC
accession=JP000529
date=2016.01.19 (Created 2008.10.21, modified 2011.05.06)
author=SASAKI S, TOYOHASHI UNIV. OF TECH.
license=CC BY-NC-SA
exact mass=128.13135
ionization energy=70 eV
ion type=[M]+*
computed spectral entropy=2.2451728191249978
computed normalized entropy=0.6975021533230249
SPLASH=splash10-002r-9000000000-c2f370ba6c7db1122a06
submitter=submitter = University of Tokyo Team (Faculty of Engineering, University of Tokyo)
MoNA Rating=3.75

>  <NUM PEAKS>  (7116) 
25

>  <MASS SPECTRAL PEAKS>  (7116) 
27 12
28 24
29 18
30 5.6
39 5.4
40 1.2
41 12
42 0.46
43 5.2
44 3
54 1.8
55 0.24
56 14.4
57 4.6
58 1.8
69 0.11
70 3
71 2.6
72 1.6
85 99.99
86 6.2
99 12.2
100 0.8
128 1.6
129 2.2

$$$$

     RDKit          2D

  8  7  0  0  0  0  0  0  0  0999 V2000
    1.9486    3.3750    0.0000 C   0  0  0  0  0  0  0  0  0  0  0  0
   -5.8457    3.3750    0.0000 C   0  0  0  0  0  0  0  0  0  0  0  0
   -4.5466    5.6250    0.0000 C   0  0  0  0  0  0  0  0  0  0  0  0
    0.6495    4.1250    0.0000 C   0  0  0  0  0  0  0  0  0  0  0  0
   -3.2476    3.3750    0.0000 C   0  0  0  0  0  0  0  0  0  0  0  0
   -4.5466    4.1250    0.0000 C   0  0  0  0  0  0  0  0  0  0  0  0
   -0.6495    3.3750    0.0000 N   0  0  0  0  0  0  0  0  0  0  0  0
   -1.9486    4.1250    0.0000 N   0  0  0  0  0  0  0  0  0  0  0  0
  4  1  1  0
  6  2  1  0
  6  3  1  0
  6  5  1  0
  7  4  1  0
  5  8  2  0
  8  7  1  0
M  END
>  <NAME>  (7117) 
ETHYLHYDRAZONE ISOBUTYRALDEHYDE

>  <SYNONYMS>  (7117) 
ISOBUTYRALDEHYDE ETHYLHYDRAZONE

>  <SPECTRUM TYPE>  (7117) 
MS1

>  <INSTRUMENT TYPE>  (7117) 
EI-B

>  <INSTRUMENT>  (7117) 
SHIMADZU LKB-2091

>  <ION MODE>  (7117) 
P

>  <INCHIKEY>  (7117) 
RKTNZIQSYZDTJV-VMPITWQZSA-N

>  <FORMULA>  (7117) 
C6H14N2

>  <EXACT MASS>  (7117) 
114.11569844799999

>  <MW>  (7117) 
114

>  <ID>  (7117) 
JP000528

>  <CONTRIBUTOR>  (7117) 
University of Tokyo Team, {Faculty of Engineering, University of Tokyo

>  <COMMENT>  (7117) 
SMILES=CCNN=CC(C)C
InChI=InChI=1S/C6H14N2/c1-4-7-8-5-6(2)3/h5-7H,4H2,1-3H3/b8-5+
computed SMILES=N(=CC(C)C)NCC
accession=JP000528
date=2016.01.19 (Created 2008.10.21, modified 2011.05.06)
author=SASAKI S, TOYOHASHI UNIV. OF TECH.
license=CC BY-NC-SA
exact mass=114.1157
ionization energy=70 eV
ion type=[M]+*
computed spectral entropy=2.8822431381344042
computed normalized entropy=0.8173421628374573
SPLASH=splash10-01r5-9100000000-aa4ec33902e23fa414c9
submitter=submitter = University of Tokyo Team (Faculty of Engineering, University of Tokyo)
MoNA Rating=3.75

>  <NUM PEAKS>  (7117) 
34

>  <MASS SPECTRAL PEAKS>  (7117) 
27 27.9
28 44.1
29 46.5
30 4.41
31 8.1
38 1.5
39 17
40 0.37
41 44.1
42 25.5
43 53.5
44 7.21
45 78.1
46 8.6
53 2.3
54 0.47
55 20.2
56 18.7
57 37.2
58 1.42
59 5.4
68 4.7
69 3.7
70 1.09
71 12.5
72 6.1
73 16.6
85 2.79
86 4.9
99 99.99
100 4.2
113 0.65
114 90.8
115 10

$$$$

     RDKit          2D

  8  7  0  0  0  0  0  0  0  0999 V2000
   -6.4952    4.5000    0.0000 C   0  0  0  0  0  0  0  0  0  0  0  0
    2.5981    3.7500    0.0000 C   0  0  0  0  0  0  0  0  0  0  0  0
   -5.1962    3.7500    0.0000 C   0  0  0  0  0  0  0  0  0  0  0  0
    1.2990    4.5000    0.0000 C   0  0  0  0  0  0  0  0  0  0  0  0
   -3.8971    4.5000    0.0000 C   0  0  0  0  0  0  0  0  0  0  0  0
   -2.5981    3.7500    0.0000 C   0  0  0  0  0  0  0  0  0  0  0  0
    0.0000    3.7500    0.0000 N   0  0  0  0  0  0  0  0  0  0  0  0
   -1.2990    4.5000    0.0000 N   0  0  0  0  0  0  0  0  0  0  0  0
  3  1  1  0
  4  2  1  0
  5  3  1  0
  6  5  1  0
  7  4  1  0
  6  8  2  0
  8  7  1  0
M  END
>  <NAME>  (7118) 
ETHYLHYDRAZONE BUTYRALDEHYDE

>  <SYNONYMS>  (7118) 
BUTYRALDEHYDE ETHYLHYDRAZONE

>  <SPECTRUM TYPE>  (7118) 
MS1

>  <INSTRUMENT TYPE>  (7118) 
EI-B

>  <INSTRUMENT>  (7118) 
SHIMADZU LKB-2091

>  <ION MODE>  (7118) 
P

>  <INCHIKEY>  (7118) 
YICJUYKPMNNKIA-SOFGYWHQSA-N

>  <FORMULA>  (7118) 
C6H14N2

>  <EXACT MASS>  (7118) 
114.115698448

>  <MW>  (7118) 
114

>  <ID>  (7118) 
JP000527

>  <CONTRIBUTOR>  (7118) 
University of Tokyo Team, {Faculty of Engineering, University of Tokyo

>  <COMMENT>  (7118) 
SMILES=CCCC=NNCC
InChI=InChI=1S/C6H14N2/c1-3-5-6-8-7-4-2/h6-7H,3-5H2,1-2H3/b8-6+
computed SMILES=N(=CCCC)NCC
accession=JP000527
date=2016.01.19 (Created 2008.10.21, modified 2011.05.06)
author=SASAKI S, TOYOHASHI UNIV. OF TECH.
license=CC BY-NC-SA
exact mass=114.1157
ionization energy=70 eV
ion type=[M]+*
computed spectral entropy=2.815873329329047
computed normalized entropy=0.805338835917756
SPLASH=splash10-0036-9000000000-92c6758b4a3e5afc4de0
submitter=submitter = University of Tokyo Team (Faculty of Engineering, University of Tokyo)
MoNA Rating=3.75

>  <NUM PEAKS>  (7118) 
33

>  <MASS SPECTRAL PEAKS>  (7118) 
27 43.3
28 40
29 43.3
30 99.99
31 7.3
40 4
41 33.3
42 2.63
43 50
44 83.1
45 8
46 0.27
53 1.7
54 2.8
55 6.3
56 0.93
57 22.3
58 10.7
59 4
68 0.57
69 4
70 17.3
71 14.7
72 0.6
85 46.6
86 26
87 1.3
97 0.5
99 73.1
100 5.3
113 4
114 6
115 7.5

$$$$

     RDKit          2D

  8  7  0  0  0  0  0  0  0  0999 V2000
   -6.4952    4.5000    0.0000 C   0  0  0  0  0  0  0  0  0  0  0  0
    2.5981    3.7500    0.0000 C   0  0  0  0  0  0  0  0  0  0  0  0
   -5.1962    3.7500    0.0000 C   0  0  0  0  0  0  0  0  0  0  0  0
    1.2990    4.5000    0.0000 C   0  0  0  0  0  0  0  0  0  0  0  0
   -3.8971    4.5000    0.0000 C   0  0  0  0  0  0  0  0  0  0  0  0
   -2.5981    3.7500    0.0000 C   0  0  0  0  0  0  0  0  0  0  0  0
    0.0000    3.7500    0.0000 N   0  0  0  0  0  0  0  0  0  0  0  0
   -1.2990    4.5000    0.0000 N   0  0  0  0  0  0  0  0  0  0  0  0
  3  1  1  0
  4  2  1  0
  5  3  1  0
  6  5  1  0
  4  7  2  0
  8  6  1  0
  8  7  1  0
M  END
>  <NAME>  (7119) 
BUTYLHYDRAZONE ACETALDEHYDE

>  <SYNONYMS>  (7119) 
ACETALDEHYDE BUTYLHYDRAZONE

>  <SPECTRUM TYPE>  (7119) 
MS1

>  <INSTRUMENT TYPE>  (7119) 
EI-B

>  <INSTRUMENT>  (7119) 
SHIMADZU LKB-2091

>  <ION MODE>  (7119) 
P

>  <INCHIKEY>  (7119) 
CGCWYQXCVFERRJ-QPJJXVBHSA-N

>  <FORMULA>  (7119) 
C6H14N2

>  <EXACT MASS>  (7119) 
114.11569844799999

>  <MW>  (7119) 
114

>  <ID>  (7119) 
JP000524

>  <CONTRIBUTOR>  (7119) 
University of Tokyo Team, {Faculty of Engineering, University of Tokyo

>  <COMMENT>  (7119) 
SMILES=CCCCNN=CC
InChI=InChI=1S/C6H14N2/c1-3-5-6-8-7-4-2/h4,8H,3,5-6H2,1-2H3/b7-4+
computed SMILES=N(=CC)NCCCC
accession=JP000524
date=2016.01.19 (Created 2008.10.21, modified 2011.05.06)
author=SASAKI S, TOYOHASHI UNIV. OF TECH.
license=CC BY-NC-SA
exact mass=114.1157
ionization energy=70 eV
ion type=[M]+*
computed spectral entropy=2.2673088973193773
computed normalized entropy=0.660255487952324
SPLASH=splash10-00e9-9000000000-8fa18d377b13c2002b53
submitter=submitter = University of Tokyo Team (Faculty of Engineering, University of Tokyo)
MoNA Rating=3.75

>  <NUM PEAKS>  (7119) 
31

>  <MASS SPECTRAL PEAKS>  (7119) 
28 14.2
29 11.8
30 63.1
31 2.89
39 3.7
40 1.6
41 8.7
42 2.24
43 7.9
44 5
45 0.8
54 0.04
55 2
56 4.2
57 6.3
58 0.5
59 0.5
69 1.6
70 2.1
71 99.99
72 11.8
73 2.6
83 0.7
84 0.08
85 0.6
99 7.1
100 0.5
112 0.09
113 1
114 21.3
115 2.1

$$$$

     RDKit          2D

  7  6  0  0  0  0  0  0  0  0999 V2000
   -3.5724    3.9375    0.0000 C   0  0  0  0  0  0  0  0  0  0  0  0
   -2.2733    1.6875    0.0000 C   0  0  0  0  0  0  0  0  0  0  0  0
    2.9228    3.1875    0.0000 C   0  0  0  0  0  0  0  0  0  0  0  0
   -0.9743    3.9375    0.0000 C   0  0  0  0  0  0  0  0  0  0  0  0
   -2.2733    3.1875    0.0000 C   0  0  0  0  0  0  0  0  0  0  0  0
    1.6238    3.9375    0.0000 N   0  0  0  0  0  0  0  0  0  0  0  0
    0.3248    3.1875    0.0000 N   0  0  0  0  0  0  0  0  0  0  0  0
  5  1  1  0
  5  2  1  0
  5  4  1  0
  6  3  1  0
  4  7  2  0
  7  6  1  0
M  END
>  <NAME>  (7120) 
METHYLHYDRAZONE ISOBUTYRALDEHYDE

>  <SYNONYMS>  (7120) 
ISOBUTYRALDEHYDE METHYLHYDRAZONE

>  <SPECTRUM TYPE>  (7120) 
MS1

>  <INSTRUMENT TYPE>  (7120) 
EI-B

>  <INSTRUMENT>  (7120) 
SHIMADZU LKB-2091

>  <ION MODE>  (7120) 
P

>  <INCHIKEY>  (7120) 
QLVOGAHIAVPTFB-QPJJXVBHSA-N

>  <FORMULA>  (7120) 
C5H12N2

>  <EXACT MASS>  (7120) 
100.10004838399999

>  <MW>  (7120) 
100

>  <ID>  (7120) 
JP000523

>  <CONTRIBUTOR>  (7120) 
University of Tokyo Team, {Faculty of Engineering, University of Tokyo

>  <COMMENT>  (7120) 
SMILES=CNN=CC(C)C
InChI=InChI=1S/C5H12N2/c1-5(2)4-7-6-3/h4-6H,1-3H3/b7-4+
computed SMILES=N(=CC(C)C)NC
accession=JP000523
date=2016.01.19 (Created 2008.10.21, modified 2011.05.06)
author=SASAKI S, TOYOHASHI UNIV. OF TECH.
license=CC BY-NC-SA
exact mass=100.10005
ionization energy=70 eV
ion type=[M]+*
computed spectral entropy=2.8320310895699494
computed normalized entropy=0.790293322906248
SPLASH=splash10-0kcu-9100000000-f557624018f4431477e9
submitter=submitter = University of Tokyo Team (Faculty of Engineering, University of Tokyo)
MoNA Rating=3.75

>  <NUM PEAKS>  (7120) 
36

>  <MASS SPECTRAL PEAKS>  (7120) 
26 4
27 25
28 61.6
29 3.76
30 97.7
31 10.8
32 32.9
37 0.13
38 2.7
39 23.5
40 4.2
41 5.35
42 40.9
43 36.5
44 32.6
45 1.48
51 1.4
52 2
53 2.4
54 0.8
55 6.4
56 29.9
57 69.6
58 2.03
59 1.7
68 5.7
69 5.6
70 1.29
71 12.4
72 9.9
83 1.1
85 7.47
86 4.2
99 3
100 99.99
101 12.3

$$$$

     RDKit          2D

  7  6  0  0  0  0  0  0  0  0999 V2000
    1.6238    3.1875    0.0000 C   0  0  0  0  0  0  0  0  0  0  0  0
   -4.8714    3.9375    0.0000 C   0  0  0  0  0  0  0  0  0  0  0  0
   -3.5724    1.6875    0.0000 C   0  0  0  0  0  0  0  0  0  0  0  0
    0.3248    3.9375    0.0000 C   0  0  0  0  0  0  0  0  0  0  0  0
   -3.5724    3.1875    0.0000 C   0  0  0  0  0  0  0  0  0  0  0  0
   -0.9743    3.1875    0.0000 N   0  0  0  0  0  0  0  0  0  0  0  0
   -2.2733    3.9375    0.0000 N   0  0  0  0  0  0  0  0  0  0  0  0
  4  1  1  0
  5  2  1  0
  5  3  1  0
  4  6  2  0
  7  5  1  0
  7  6  1  0
M  END
>  <NAME>  (7121) 
ISOPROPYLHYDRAZONE ACETALDEHYDE

>  <SYNONYMS>  (7121) 
ACETALDEHYDE ISOPROPYLHYDRAZONE

>  <SPECTRUM TYPE>  (7121) 
MS1

>  <INSTRUMENT TYPE>  (7121) 
EI-B

>  <INSTRUMENT>  (7121) 
SHIMADZU LKB-2091

>  <ION MODE>  (7121) 
P

>  <INCHIKEY>  (7121) 
CHDZJJJPEGMSAM-GQCTYLIASA-N

>  <FORMULA>  (7121) 
C5H12N2

>  <EXACT MASS>  (7121) 
100.10004838399999

>  <MW>  (7121) 
100

>  <ID>  (7121) 
JP000521

>  <CONTRIBUTOR>  (7121) 
University of Tokyo Team, {Faculty of Engineering, University of Tokyo

>  <COMMENT>  (7121) 
SMILES=CC=NNC(C)C
InChI=InChI=1S/C5H12N2/c1-4-6-7-5(2)3/h4-5,7H,1-3H3/b6-4+
computed SMILES=N(=CC)NC(C)C
accession=JP000521
author=SASAKI S, TOYOHASHI UNIV. OF TECH.
date=2016.01.19 (Created 2008.10.21, modified 2011.05.06)
license=CC BY-NC-SA
exact mass=100.10005
ionization energy=70 eV
ion type=[M]+*
computed spectral entropy=2.266935841724203
computed normalized entropy=0.7229915559108872
SPLASH=splash10-000f-9100000000-3b9f57646c4fc4cf7e49
submitter=submitter = University of Tokyo Team (Faculty of Engineering, University of Tokyo)
MoNA Rating=3.75

>  <NUM PEAKS>  (7121) 
23

>  <MASS SPECTRAL PEAKS>  (7121) 
28 22.8
29 8.6
30 11.9
31 0.37
39 6.1
40 3
41 19.3
42 2.81
43 22.8
44 73.8
45 3
55 0.14
56 4.2
57 10.5
58 12.4
59 0.16
68 1
69 1.1
85 99.99
86 0.61
99 2.1
100 38.5
101 4.7

$$$$

     RDKit          2D

  7  6  0  0  0  0  0  0  0  0999 V2000
    1.9486    3.3750    0.0000 C   0  0  0  0  0  0  0  0  0  0  0  0
   -5.8457    3.3750    0.0000 C   0  0  0  0  0  0  0  0  0  0  0  0
    0.6495    4.1250    0.0000 C   0  0  0  0  0  0  0  0  0  0  0  0
   -4.5466    4.1250    0.0000 C   0  0  0  0  0  0  0  0  0  0  0  0
   -0.6495    3.3750    0.0000 C   0  0  0  0  0  0  0  0  0  0  0  0
   -3.2476    3.3750    0.0000 N   0  0  0  0  0  0  0  0  0  0  0  0
   -1.9486    4.1250    0.0000 N   0  0  0  0  0  0  0  0  0  0  0  0
  3  1  1  0
  4  2  1  0
  5  3  1  0
  4  6  2  0
  7  5  1  0
  7  6  1  0
M  END
>  <NAME>  (7122) 
PROPYLHYDRAZONE ACETALDEHYDE

>  <SYNONYMS>  (7122) 
ACETALDEHYDE PROPYLHYDRAZONE

>  <SPECTRUM TYPE>  (7122) 
MS1

>  <INSTRUMENT TYPE>  (7122) 
EI-B

>  <INSTRUMENT>  (7122) 
SHIMADZU LKB-2091

>  <ION MODE>  (7122) 
P

>  <INCHIKEY>  (7122) 
JBTBOJIWJFQQPH-GQCTYLIASA-N

>  <FORMULA>  (7122) 
C5H12N2

>  <EXACT MASS>  (7122) 
100.10004838399999

>  <MW>  (7122) 
100

>  <ID>  (7122) 
JP000520

>  <CONTRIBUTOR>  (7122) 
University of Tokyo Team, {Faculty of Engineering, University of Tokyo

>  <COMMENT>  (7122) 
SMILES=CCCNN=CC
InChI=InChI=1S/C5H12N2/c1-3-5-7-6-4-2/h4,7H,3,5H2,1-2H3/b6-4+
computed SMILES=N(=CC)NCCC
accession=JP000520
date=2016.01.19 (Created 2008.10.21, modified 2011.05.06)
author=SASAKI S, TOYOHASHI UNIV. OF TECH.
license=CC BY-NC-SA
exact mass=100.10005
ionization energy=70 eV
ion type=[M]+*
computed spectral entropy=1.9090870241915976
computed normalized entropy=0.6176191537315954
SPLASH=splash10-00e9-9100000000-b0de4c68a4e09c5f6b03
submitter=submitter = University of Tokyo Team (Faculty of Engineering, University of Tokyo)
MoNA Rating=3.75

>  <NUM PEAKS>  (7122) 
22

>  <MASS SPECTRAL PEAKS>  (7122) 
28 1.5
29 6.7
30 67
31 0.18
39 3.5
40 1.6
41 9.3
42 2.68
43 7.8
44 3.7
54 0.6
55 0.09
56 2.5
57 3.7
58 4
69 0.13
71 99.99
72 5
85 2.5
99 0.08
100 28.9
101 4.5

$$$$

     RDKit          2D

  6  5  0  0  0  0  0  0  0  0999 V2000
   -4.5466    3.3750    0.0000 C   0  0  0  0  0  0  0  0  0  0  0  0
    1.9486    2.6250    0.0000 C   0  0  0  0  0  0  0  0  0  0  0  0
   -3.2476    2.6250    0.0000 C   0  0  0  0  0  0  0  0  0  0  0  0
    0.6495    3.3750    0.0000 C   0  0  0  0  0  0  0  0  0  0  0  0
   -1.9486    3.3750    0.0000 N   0  0  0  0  0  0  0  0  0  0  0  0
   -0.6495    2.6250    0.0000 N   0  0  0  0  0  0  0  0  0  0  0  0
  3  1  1  0
  4  2  1  0
  3  5  2  0
  6  4  1  0
  6  5  1  0
M  END
>  <NAME>  (7123) 
ETHYLHYDRAZONE ACETALDEHYDE

>  <SYNONYMS>  (7123) 
ACETALDEHYDE ETHYLHYDRAZONE

>  <SPECTRUM TYPE>  (7123) 
MS1

>  <INSTRUMENT TYPE>  (7123) 
EI-B

>  <INSTRUMENT>  (7123) 
SHIMADZU LKB-2091

>  <ION MODE>  (7123) 
P

>  <INCHIKEY>  (7123) 
ZVIGWRFKAYDBHV-HWKANZROSA-N

>  <FORMULA>  (7123) 
C4H10N2

>  <EXACT MASS>  (7123) 
86.08439831999999

>  <MW>  (7123) 
86

>  <ID>  (7123) 
JP000519

>  <CONTRIBUTOR>  (7123) 
University of Tokyo Team, {Faculty of Engineering, University of Tokyo

>  <COMMENT>  (7123) 
SMILES=CCNN=CC
InChI=InChI=1S/C4H10N2/c1-3-5-6-4-2/h3,6H,4H2,1-2H3/b5-3+
computed SMILES=N(=CC)NCC
accession=JP000519
date=2016.01.19 (Created 2008.10.21, modified 2011.05.06)
author=SASAKI S, TOYOHASHI UNIV. OF TECH.
license=CC BY-NC-SA
exact mass=86.0844
ionization energy=70 eV
ion type=[M]+*
computed spectral entropy=2.1580429519091076
computed normalized entropy=0.7616944754395057
SPLASH=splash10-00fr-9000000000-1ede16ad36045732e679
submitter=submitter = University of Tokyo Team (Faculty of Engineering, University of Tokyo)
MoNA Rating=3.75

>  <NUM PEAKS>  (7123) 
17

>  <MASS SPECTRAL PEAKS>  (7123) 
27 23
28 22.9
29 16.7
30 9.68
31 3.6
40 4.6
41 8.4
42 4.84
43 8.6
44 16.7
57 8.4
58 0.29
71 99.99
72 4
85 4.5
86 5.63
87 3.2

$$$$

     RDKit          2D

  5  4  0  0  0  0  0  0  0  0999 V2000
   -3.8971    2.2500    0.0000 C   0  0  0  0  0  0  0  0  0  0  0  0
    1.2990    2.2500    0.0000 C   0  0  0  0  0  0  0  0  0  0  0  0
   -2.5981    1.5000    0.0000 C   0  0  0  0  0  0  0  0  0  0  0  0
    0.0000    1.5000    0.0000 N   0  0  0  0  0  0  0  0  0  0  0  0
   -1.2990    2.2500    0.0000 N   0  0  0  0  0  0  0  0  0  0  0  0
  3  1  1  0
  4  2  1  0
  3  5  2  0
  5  4  1  0
M  END
>  <NAME>  (7124) 
METHYLHYDRAZONE ACETALDEHYDE

>  <SYNONYMS>  (7124) 
ACETALDEHYDE METHYLHYDRAZONE

>  <SPECTRUM TYPE>  (7124) 
MS1

>  <INSTRUMENT TYPE>  (7124) 
EI-B

>  <INSTRUMENT>  (7124) 
SHIMADZU LKB-2091

>  <ION MODE>  (7124) 
P

>  <INCHIKEY>  (7124) 
WIMYYXRANPYBED-HWKANZROSA-N

>  <FORMULA>  (7124) 
C3H8N2

>  <EXACT MASS>  (7124) 
72.06874825599999

>  <MW>  (7124) 
72

>  <ID>  (7124) 
JP000518

>  <CONTRIBUTOR>  (7124) 
University of Tokyo Team, {Faculty of Engineering, University of Tokyo

>  <COMMENT>  (7124) 
SMILES=CC=NNC
InChI=InChI=1S/C3H8N2/c1-3-5-4-2/h3-4H,1-2H3/b5-3+
computed SMILES=N(=CC)NC
accession=JP000518
date=2016.01.19 (Created 2008.10.21, modified 2011.05.06)
author=SASAKI S, TOYOHASHI UNIV. OF TECH.
license=CC BY-NC-SA
exact mass=72.06875
ionization energy=70 eV
ion type=[M]+*
computed spectral entropy=2.38149656358395
computed normalized entropy=0.7949630828520796
SPLASH=splash10-00fr-9000000000-610938a7a6d25ca9013f
submitter=submitter = University of Tokyo Team (Faculty of Engineering, University of Tokyo)
MoNA Rating=3.75

>  <NUM PEAKS>  (7124) 
20

>  <MASS SPECTRAL PEAKS>  (7124) 
27 16.7
28 38.6
29 20
30 8.63
31 13.1
39 3.4
40 5.4
41 1.36
42 36.3
43 19.5
44 9.5
45 0.12
55 5
56 6.5
57 36.8
58 0.19
69 1.5
71 18.1
72 99.99
73 5

$$$$

     RDKit          2D

 14 13  0  0  0  0  0  0  0  0999 V2000
   -8.4437    5.6250    0.0000 C   0  0  0  0  0  0  0  0  0  0  0  0
    3.2476    4.8750    0.0000 C   0  0  0  0  0  0  0  0  0  0  0  0
    0.6495    0.3750    0.0000 C   0  0  0  0  0  0  0  0  0  0  0  0
   -7.1447    4.8750    0.0000 C   0  0  0  0  0  0  0  0  0  0  0  0
    1.9486    5.6250    0.0000 C   0  0  0  0  0  0  0  0  0  0  0  0
   -0.6495    1.1250    0.0000 C   0  0  0  0  0  0  0  0  0  0  0  0
   -5.8457    5.6250    0.0000 C   0  0  0  0  0  0  0  0  0  0  0  0
    0.6495    4.8750    0.0000 C   0  0  0  0  0  0  0  0  0  0  0  0
   -0.6495    2.6250    0.0000 C   0  0  0  0  0  0  0  0  0  0  0  0
   -4.5466    4.8750    0.0000 C   0  0  0  0  0  0  0  0  0  0  0  0
   -0.6495    5.6250    0.0000 C   0  0  0  0  0  0  0  0  0  0  0  0
   -1.9486    3.3750    0.0000 C   0  0  0  0  0  0  0  0  0  0  0  0
   -3.2476    5.6250    0.0000 N   0  0  0  0  0  0  0  0  0  0  0  0
   -1.9486    4.8750    0.0000 N   0  0  0  0  0  0  0  0  0  0  0  0
  4  1  1  0
  5  2  1  0
  6  3  1  0
  4  7  2  0
  5  8  2  0
  6  9  2  0
 10  7  1  0
 11  8  1  0
 12  9  1  0
 13 10  1  0
 14 11  1  0
 14 12  1  0
 14 13  1  0
M  END
>  <NAME>  (7125) 
TRICROTYLHYDRAZINE

>  <SYNONYMS>  (7125) 
TRI(2-BUTENYL)HYDRAZINE

>  <SPECTRUM TYPE>  (7125) 
MS1

>  <INSTRUMENT TYPE>  (7125) 
EI-B

>  <INSTRUMENT>  (7125) 
SHIMADZU LKB-2091

>  <ION MODE>  (7125) 
P

>  <INCHIKEY>  (7125) 
ROGVVIJLTDOPKB-OTWDQPKHSA-N

>  <FORMULA>  (7125) 
C12H22N2

>  <EXACT MASS>  (7125) 
194.17829870399999

>  <MW>  (7125) 
194

>  <ID>  (7125) 
JP000517

>  <CONTRIBUTOR>  (7125) 
University of Tokyo Team, {Faculty of Engineering, University of Tokyo

>  <COMMENT>  (7125) 
SMILES=CC=CCNN(CC=CC)CC=CC
InChI=InChI=1S/C12H22N2/c1-4-7-10-13-14(11-8-5-2)12-9-6-3/h4-9,13H,10-12H2,1-3H3/b7-4+,8-5+,9-6+
computed SMILES=C(=CCNN(CC=CC)CC=CC)C
accession=JP000517
date=2016.01.19 (Created 2008.10.21, modified 2011.05.06)
author=SASAKI S, TOYOHASHI UNIV. OF TECH.
license=CC BY-NC-SA
exact mass=194.1783
ionization energy=70 eV
ion type=[M]+*
computed spectral entropy=2.245310869624144
computed normalized entropy=0.6367218705944828
SPLASH=splash10-0a4i-9200000000-e300a6737f2da8d25e24
submitter=submitter = University of Tokyo Team (Faculty of Engineering, University of Tokyo)
MoNA Rating=3.75

>  <NUM PEAKS>  (7125) 
34

>  <MASS SPECTRAL PEAKS>  (7125) 
27 9
28 4.4
29 20.1
30 0.32
31 1.2
39 8.1
40 0.9
41 1.07
42 3.5
43 4.2
44 3.6
45 0.13
53 4
54 2.1
55 99.99
56 0.74
57 1.9
58 0.9
67 1.5
68 0.67
69 3
70 2.3
81 0.9
82 0.07
83 3.4
85 10.9
86 1.2
137 0.07
139 36.3
140 5.6
141 1.1
182 0.07
184 4
185 0.6

$$$$

     RDKit          2D

 11 10  0  0  0  0  0  0  0  0999 V2000
   -8.4437    3.3750    0.0000 C   0  0  0  0  0  0  0  0  0  0  0  0
    0.6495    2.6250    0.0000 C   0  0  0  0  0  0  0  0  0  0  0  0
   -1.9486    7.1250    0.0000 C   0  0  0  0  0  0  0  0  0  0  0  0
   -7.1447    2.6250    0.0000 C   0  0  0  0  0  0  0  0  0  0  0  0
   -0.6495    3.3750    0.0000 C   0  0  0  0  0  0  0  0  0  0  0  0
   -1.9486    5.6250    0.0000 C   0  0  0  0  0  0  0  0  0  0  0  0
   -5.8457    3.3750    0.0000 C   0  0  0  0  0  0  0  0  0  0  0  0
   -1.9486    2.6250    0.0000 C   0  0  0  0  0  0  0  0  0  0  0  0
   -3.2476    4.8750    0.0000 C   0  0  0  0  0  0  0  0  0  0  0  0
   -4.5466    2.6250    0.0000 N   0  0  0  0  0  0  0  0  0  0  0  0
   -3.2476    3.3750    0.0000 N   0  0  0  0  0  0  0  0  0  0  0  0
  4  1  2  0
  5  2  2  0
  6  3  2  0
  7  4  1  0
  8  5  1  0
  9  6  1  0
 10  7  1  0
 11  8  1  0
 11  9  1  0
 11 10  1  0
M  END
>  <NAME>  (7126) 
TRIALLYLHYDRAZINE

>  <SYNONYMS>  (7126) 


>  <SPECTRUM TYPE>  (7126) 
MS1

>  <INSTRUMENT TYPE>  (7126) 
EI-B

>  <INSTRUMENT>  (7126) 
SHIMADZU LKB-2091

>  <ION MODE>  (7126) 
P

>  <INCHIKEY>  (7126) 
DQSIAGHCYOKRFM-UHFFFAOYSA-N

>  <FORMULA>  (7126) 
C9H16N2

>  <EXACT MASS>  (7126) 
152.131348512

>  <MW>  (7126) 
152

>  <ID>  (7126) 
JP000516

>  <CONTRIBUTOR>  (7126) 
University of Tokyo Team, {Faculty of Engineering, University of Tokyo

>  <COMMENT>  (7126) 
SMILES=C=CCNN(CC=C)CC=C
InChI=InChI=1S/C9H16N2/c1-4-7-10-11(8-5-2)9-6-3/h4-6,10H,1-3,7-9H2
computed SMILES=C=CCNN(CC=C)CC=C
accession=JP000516
date=2016.01.19 (Created 2008.10.21, modified 2011.05.06)
author=SASAKI S, TOYOHASHI UNIV. OF TECH.
license=CC BY-NC-SA
exact mass=152.13135
ionization energy=70 eV
ion type=[M]+*
computed spectral entropy=1.9613977311421373
computed normalized entropy=0.6020072481747946
SPLASH=splash10-0006-9300000000-1eb86cd3bdad3cb5db25
submitter=submitter = University of Tokyo Team (Faculty of Engineering, University of Tokyo)
MoNA Rating=3.75

>  <NUM PEAKS>  (7126) 
26

>  <MASS SPECTRAL PEAKS>  (7126) 
28 7.8
29 4.1
30 3.3
38 0.09
39 18.9
40 3
41 99.99
42 0.93
43 4.1
53 1.3
54 3.3
55 0.74
56 5
57 1.1
67 1.4
68 0.16
69 2.8
70 1.4
81 1.8
83 0.1
94 0.8
111 42.6
112 3.7
113 0.17
152 10.4
153 1.2

$$$$

     RDKit          2D

 12 11  0  0  0  0  0  0  0  0999 V2000
    2.2733    5.0625    0.0000 C   0  0  0  0  0  0  0  0  0  0  0  0
   -8.1190    5.0625    0.0000 C   0  0  0  0  0  0  0  0  0  0  0  0
   -6.8200    2.8125    0.0000 C   0  0  0  0  0  0  0  0  0  0  0  0
   -2.9228    3.5625    0.0000 C   0  0  0  0  0  0  0  0  0  0  0  0
    0.9743    5.8125    0.0000 C   0  0  0  0  0  0  0  0  0  0  0  0
   -6.8200    5.8125    0.0000 C   0  0  0  0  0  0  0  0  0  0  0  0
   -5.5209    3.5625    0.0000 C   0  0  0  0  0  0  0  0  0  0  0  0
   -0.3248    5.0625    0.0000 C   0  0  0  0  0  0  0  0  0  0  0  0
   -1.6238    5.8125    0.0000 C   0  0  0  0  0  0  0  0  0  0  0  0
   -2.9228    5.0625    0.0000 C   0  0  0  0  0  0  0  0  0  0  0  0
   -4.2219    5.8125    0.0000 N   0  0  0  0  0  0  0  0  0  0  0  0
   -5.5209    5.0625    0.0000 N   0  0  0  0  0  0  0  0  0  0  0  0
  5  1  1  0
  6  2  1  0
  7  3  1  0
  8  5  1  0
  9  8  1  0
 10  4  1  0
 10  9  1  0
 11 10  1  0
 12  6  1  0
 12  7  1  0
 12 11  1  0
M  END
>  <NAME>  (7127) 
1,1-DIETHYL-2-(1-METHYLPENTYL)HYDRAZINE

>  <SYNONYMS>  (7127) 


>  <SPECTRUM TYPE>  (7127) 
MS1

>  <INSTRUMENT TYPE>  (7127) 
EI-B

>  <INSTRUMENT>  (7127) 
SHIMADZU LKB-2091

>  <ION MODE>  (7127) 
P

>  <INCHIKEY>  (7127) 
XDLSHZQLGZQWAF-UHFFFAOYSA-N

>  <FORMULA>  (7127) 
C10H24N2

>  <EXACT MASS>  (7127) 
172.19394876799998

>  <MW>  (7127) 
172

>  <ID>  (7127) 
JP000515

>  <CONTRIBUTOR>  (7127) 
University of Tokyo Team, {Faculty of Engineering, University of Tokyo

>  <COMMENT>  (7127) 
SMILES=CCCCC(C)NN(CC)CC
InChI=InChI=1S/C10H24N2/c1-5-8-9-10(4)11-12(6-2)7-3/h10-11H,5-9H2,1-4H3
computed SMILES=N(N(CC)CC)C(C)CCCC
accession=JP000515
date=2016.01.19 (Created 2008.10.21, modified 2011.05.06)
author=SASAKI S, TOYOHASHI UNIV. OF TECH.
license=CC BY-NC-SA
exact mass=172.19395
ionization energy=70 eV
ion type=[M]+*
computed spectral entropy=2.1839919248593502
computed normalized entropy=0.6246209643382998
SPLASH=splash10-000i-9000000000-79cb9c830ec6b6e6ce95
submitter=submitter = University of Tokyo Team (Faculty of Engineering, University of Tokyo)
MoNA Rating=3.75

>  <NUM PEAKS>  (7127) 
33

>  <MASS SPECTRAL PEAKS>  (7127) 
27 4.6
28 2.8
29 9
30 0.31
31 3.4
39 1.1
41 4.7
42 0.72
43 8
44 10.6
45 1
55 0.13
56 2.7
57 2.6
58 3.9
59 2.62
60 1.2
70 0.9
71 1.2
72 0.51
73 6
85 1.2
86 0.6
87 99.99
88 7.2
99 0.9
100 1.1
115 0.96
116 0.8
143 2.8
157 4.1
172 2.08
173 3.3

$$$$

     RDKit          2D

 11 10  0  0  0  0  0  0  0  0999 V2000
   -8.4437    3.3750    0.0000 C   0  0  0  0  0  0  0  0  0  0  0  0
    0.6495    2.6250    0.0000 C   0  0  0  0  0  0  0  0  0  0  0  0
   -1.9486    7.1250    0.0000 C   0  0  0  0  0  0  0  0  0  0  0  0
   -7.1447    2.6250    0.0000 C   0  0  0  0  0  0  0  0  0  0  0  0
   -0.6495    3.3750    0.0000 C   0  0  0  0  0  0  0  0  0  0  0  0
   -1.9486    5.6250    0.0000 C   0  0  0  0  0  0  0  0  0  0  0  0
   -5.8457    3.3750    0.0000 C   0  0  0  0  0  0  0  0  0  0  0  0
   -1.9486    2.6250    0.0000 C   0  0  0  0  0  0  0  0  0  0  0  0
   -3.2476    4.8750    0.0000 C   0  0  0  0  0  0  0  0  0  0  0  0
   -4.5466    2.6250    0.0000 N   0  0  0  0  0  0  0  0  0  0  0  0
   -3.2476    3.3750    0.0000 N   0  0  0  0  0  0  0  0  0  0  0  0
  4  1  1  0
  5  2  1  0
  6  3  1  0
  7  4  1  0
  8  5  1  0
  9  6  1  0
 10  7  1  0
 11  8  1  0
 11  9  1  0
 11 10  1  0
M  END
>  <NAME>  (7128) 
TRIPROPYLHYDRAZINE

>  <SYNONYMS>  (7128) 


>  <SPECTRUM TYPE>  (7128) 
MS1

>  <INSTRUMENT TYPE>  (7128) 
EI-B

>  <INSTRUMENT>  (7128) 
SHIMADZU LKB-2091

>  <ION MODE>  (7128) 
P

>  <INCHIKEY>  (7128) 
JOGSSTIPCUFRHC-UHFFFAOYSA-N

>  <FORMULA>  (7128) 
C9H22N2

>  <EXACT MASS>  (7128) 
158.17829870399999

>  <MW>  (7128) 
158

>  <ID>  (7128) 
JP000514

>  <CONTRIBUTOR>  (7128) 
University of Tokyo Team, {Faculty of Engineering, University of Tokyo

>  <COMMENT>  (7128) 
SMILES=CCCNN(CCC)CCC
InChI=InChI=1S/C9H22N2/c1-4-7-10-11(8-5-2)9-6-3/h10H,4-9H2,1-3H3
computed SMILES=N(N(CCC)CCC)CCC
accession=JP000514
date=2016.01.19 (Created 2008.10.21, modified 2011.05.06)
author=SASAKI S, TOYOHASHI UNIV. OF TECH.
license=CC BY-NC-SA
exact mass=158.1783
ionization energy=70 eV
ion type=[M]+*
computed spectral entropy=2.737532770564413
computed normalized entropy=0.7421041551009329
SPLASH=splash10-004i-7900000000-4df6de3d85b96bd773eb
submitter=submitter = University of Tokyo Team (Faculty of Engineering, University of Tokyo)
MoNA Rating=3.75

>  <NUM PEAKS>  (7128) 
40

>  <MASS SPECTRAL PEAKS>  (7128) 
27 14.2
28 8.5
29 4.6
30 1.67
31 3.7
32 2.6
39 2.8
40 0.06
41 18.6
42 9.8
43 27.8
44 0.63
45 14.8
54 1
55 0.6
56 1.13
57 6.7
58 14.8
59 1.9
60 0.43
70 5.9
71 1.5
72 15.2
73 1.08
74 0.9
85 2.2
86 2
87 3.34
88 2.1
98 0.9
99 1.2
100 0.22
101 1.9
115 46.4
116 4.3
127 0.09
129 99.99
130 9.8
158 39
159 6.1

$$$$

     RDKit          2D

 11 10  0  0  0  0  0  0  0  0999 V2000
    2.2733    5.0625    0.0000 C   0  0  0  0  0  0  0  0  0  0  0  0
   -8.1190    5.0625    0.0000 C   0  0  0  0  0  0  0  0  0  0  0  0
   -6.8200    2.8125    0.0000 C   0  0  0  0  0  0  0  0  0  0  0  0
    0.9743    5.8125    0.0000 C   0  0  0  0  0  0  0  0  0  0  0  0
   -6.8200    5.8125    0.0000 C   0  0  0  0  0  0  0  0  0  0  0  0
   -5.5209    3.5625    0.0000 C   0  0  0  0  0  0  0  0  0  0  0  0
   -0.3248    5.0625    0.0000 C   0  0  0  0  0  0  0  0  0  0  0  0
   -1.6238    5.8125    0.0000 C   0  0  0  0  0  0  0  0  0  0  0  0
   -2.9228    5.0625    0.0000 C   0  0  0  0  0  0  0  0  0  0  0  0
   -4.2219    5.8125    0.0000 N   0  0  0  0  0  0  0  0  0  0  0  0
   -5.5209    5.0625    0.0000 N   0  0  0  0  0  0  0  0  0  0  0  0
  4  1  1  0
  5  2  1  0
  6  3  1  0
  7  4  1  0
  8  7  1  0
  9  8  1  0
 10  9  1  0
 11  5  1  0
 11  6  1  0
 11 10  1  0
M  END
>  <NAME>  (7129) 
1,1-DIETHYL-2-PENTYLHYDRAZINE

>  <SYNONYMS>  (7129) 


>  <SPECTRUM TYPE>  (7129) 
MS1

>  <INSTRUMENT TYPE>  (7129) 
EI-B

>  <INSTRUMENT>  (7129) 
SHIMADZU LKB-2091

>  <ION MODE>  (7129) 
P

>  <INCHIKEY>  (7129) 
MVMRYSSNWDNQEZ-UHFFFAOYSA-N

>  <FORMULA>  (7129) 
C9H22N2

>  <EXACT MASS>  (7129) 
158.17829870399999

>  <MW>  (7129) 
158

>  <ID>  (7129) 
JP000513

>  <CONTRIBUTOR>  (7129) 
University of Tokyo Team, {Faculty of Engineering, University of Tokyo

>  <COMMENT>  (7129) 
SMILES=CCCCCNN(CC)CC
InChI=InChI=1S/C9H22N2/c1-4-7-8-9-10-11(5-2)6-3/h10H,4-9H2,1-3H3
computed SMILES=N(N(CC)CC)CCCCC
accession=JP000513
date=2016.01.19 (Created 2008.10.21, modified 2011.05.06)
author=SASAKI S, TOYOHASHI UNIV. OF TECH.
license=CC BY-NC-SA
exact mass=158.1783
ionization energy=70 eV
ion type=[M]+*
computed spectral entropy=2.622398098262064
computed normalized entropy=0.7016131349422143
SPLASH=splash10-052r-9300000000-4d871ec4be143d617f73
submitter=submitter = University of Tokyo Team (Faculty of Engineering, University of Tokyo)
MoNA Rating=3.75

>  <NUM PEAKS>  (7129) 
42

>  <MASS SPECTRAL PEAKS>  (7129) 
27 5.8
28 3.9
29 12.2
30 1.1
31 4.9
32 1
39 1.7
41 0.58
42 8.4
43 12.2
44 11.6
45 0.23
46 0.5
55 1.5
56 5.1
57 0.34
58 6.5
59 24.5
60 1.6
69 0.1
70 1.5
71 2.8
72 3.6
73 2.26
74 1.4
84 0.9
85 1.6
86 0.21
87 99.99
88 5.2
99 0.5
100 0.06
101 12.9
102 0.9
115 0.4
129 1.3
130 1.3
143 18
144 2.1
157 0.08
158 33.5
159 5.3

$$$$

     RDKit          2D

 10  9  0  0  0  0  0  0  0  0999 V2000
    1.6238    3.9375    0.0000 C   0  0  0  0  0  0  0  0  0  0  0  0
   -6.1704    3.9375    0.0000 C   0  0  0  0  0  0  0  0  0  0  0  0
   -4.8714    1.6875    0.0000 C   0  0  0  0  0  0  0  0  0  0  0  0
   -0.9743    2.4375    0.0000 C   0  0  0  0  0  0  0  0  0  0  0  0
    0.3248    4.6875    0.0000 C   0  0  0  0  0  0  0  0  0  0  0  0
   -4.8714    4.6875    0.0000 C   0  0  0  0  0  0  0  0  0  0  0  0
   -3.5724    2.4375    0.0000 C   0  0  0  0  0  0  0  0  0  0  0  0
   -0.9743    3.9375    0.0000 C   0  0  0  0  0  0  0  0  0  0  0  0
   -2.2733    4.6875    0.0000 N   0  0  0  0  0  0  0  0  0  0  0  0
   -3.5724    3.9375    0.0000 N   0  0  0  0  0  0  0  0  0  0  0  0
  5  1  1  0
  6  2  1  0
  7  3  1  0
  8  4  1  0
  8  5  1  0
  9  8  1  0
 10  6  1  0
 10  7  1  0
 10  9  1  0
M  END
>  <NAME>  (7130) 
2-SEC-BUTYL-1,1-DIETHYLHYDRAZINE

>  <SYNONYMS>  (7130) 


>  <SPECTRUM TYPE>  (7130) 
MS1

>  <INSTRUMENT TYPE>  (7130) 
EI-B

>  <INSTRUMENT>  (7130) 
SHIMADZU LKB-2091

>  <ION MODE>  (7130) 
P

>  <INCHIKEY>  (7130) 
WFQSIAIFBOBSOD-UHFFFAOYSA-N

>  <FORMULA>  (7130) 
C8H20N2

>  <EXACT MASS>  (7130) 
144.16264864

>  <MW>  (7130) 
144

>  <ID>  (7130) 
JP000512

>  <CONTRIBUTOR>  (7130) 
University of Tokyo Team, {Faculty of Engineering, University of Tokyo

>  <COMMENT>  (7130) 
SMILES=CCC(C)NN(CC)CC
InChI=InChI=1S/C8H20N2/c1-5-8(4)9-10(6-2)7-3/h8-9H,5-7H2,1-4H3
computed SMILES=N(N(CC)CC)C(C)CC
accession=JP000512
date=2016.01.19 (Created 2008.10.21, modified 2011.05.06)
author=SASAKI S, TOYOHASHI UNIV. OF TECH.
license=CC BY-NC-SA
exact mass=144.16265
ion type=[M]+*
ionization energy=70 eV
computed spectral entropy=2.317505845191917
computed normalized entropy=0.681379404114253
SPLASH=splash10-000l-9100000000-a9170a3337350ae94615
submitter=submitter = University of Tokyo Team (Faculty of Engineering, University of Tokyo)
MoNA Rating=3.75

>  <NUM PEAKS>  (7130) 
30

>  <MASS SPECTRAL PEAKS>  (7130) 
27 6.3
28 6.1
29 14.9
30 0.49
31 6.3
39 1.3
40 0.6
41 0.49
42 11.4
43 2.3
44 13.7
45 0.18
55 1.4
56 3.6
57 4.6
58 0.49
59 43.4
60 1.7
70 1
71 0.17
72 8.5
73 6.2
87 99.99
88 0.59
99 0.8
115 9.9
116 0.8
129 0.4
144 26.6
145 3.2

$$$$

     RDKit          2D

  9  8  0  0  0  0  0  0  0  0999 V2000
   -5.5209    2.8125    0.0000 C   0  0  0  0  0  0  0  0  0  0  0  0
   -4.2219    5.0625    0.0000 C   0  0  0  0  0  0  0  0  0  0  0  0
    0.9743    2.0625    0.0000 C   0  0  0  0  0  0  0  0  0  0  0  0
   -0.3248    4.3125    0.0000 C   0  0  0  0  0  0  0  0  0  0  0  0
   -4.2219    2.0625    0.0000 C   0  0  0  0  0  0  0  0  0  0  0  0
   -2.9228    4.3125    0.0000 C   0  0  0  0  0  0  0  0  0  0  0  0
   -0.3248    2.8125    0.0000 C   0  0  0  0  0  0  0  0  0  0  0  0
   -1.6238    2.0625    0.0000 N   0  0  0  0  0  0  0  0  0  0  0  0
   -2.9228    2.8125    0.0000 N   0  0  0  0  0  0  0  0  0  0  0  0
  5  1  1  0
  6  2  1  0
  7  3  1  0
  7  4  1  0
  8  7  1  0
  9  5  1  0
  9  6  1  0
  9  8  1  0
M  END
>  <NAME>  (7131) 
1,1-DIETHYL-2-ISOPROPYLHYDRAZINE

>  <SYNONYMS>  (7131) 


>  <SPECTRUM TYPE>  (7131) 
MS1

>  <INSTRUMENT TYPE>  (7131) 
EI-B

>  <INSTRUMENT>  (7131) 
SHIMADZU LKB-2091

>  <ION MODE>  (7131) 
P

>  <INCHIKEY>  (7131) 
NXZICZUBTFZKTO-UHFFFAOYSA-N

>  <FORMULA>  (7131) 
C7H18N2

>  <EXACT MASS>  (7131) 
130.146998576

>  <MW>  (7131) 
130

>  <ID>  (7131) 
JP000511

>  <CONTRIBUTOR>  (7131) 
University of Tokyo Team, {Faculty of Engineering, University of Tokyo

>  <COMMENT>  (7131) 
SMILES=CCN(CC)NC(C)C
InChI=InChI=1S/C7H18N2/c1-5-9(6-2)8-7(3)4/h7-8H,5-6H2,1-4H3
computed SMILES=N(N(CC)CC)C(C)C
accession=JP000511
date=2016.01.19 (Created 2008.10.21, modified 2011.05.06)
author=SASAKI S, TOYOHASHI UNIV. OF TECH.
license=CC BY-NC-SA
exact mass=130.147
ionization energy=70 eV
ion type=[M]+*
computed spectral entropy=2.4705627631546756
computed normalized entropy=0.7005984628935784
SPLASH=splash10-000i-9200000000-ff933359903f59960049
submitter=submitter = University of Tokyo Team (Faculty of Engineering, University of Tokyo)
MoNA Rating=3.75

>  <NUM PEAKS>  (7131) 
34

>  <MASS SPECTRAL PEAKS>  (7131) 
27 8.3
28 7.2
29 12.4
30 0.65
31 9.3
39 1.3
40 0.9
41 0.53
42 12.4
43 8.1
44 10.3
45 0.24
56 4.2
57 1.8
58 9.3
59 5.37
60 2.1
70 0.9
71 2.2
72 0.56
73 4.6
85 1.1
86 0.8
87 99.99
88 6
99 2.4
101 4.9
113 0.06
114 0.9
115 7.4
116 0.6
129 0.04
130 37.1
131 4.4

$$$$

     RDKit          2D

  9  8  0  0  0  0  0  0  0  0999 V2000
    1.6238    3.9375    0.0000 C   0  0  0  0  0  0  0  0  0  0  0  0
   -6.1704    3.9375    0.0000 C   0  0  0  0  0  0  0  0  0  0  0  0
   -4.8714    1.6875    0.0000 C   0  0  0  0  0  0  0  0  0  0  0  0
    0.3248    4.6875    0.0000 C   0  0  0  0  0  0  0  0  0  0  0  0
   -4.8714    4.6875    0.0000 C   0  0  0  0  0  0  0  0  0  0  0  0
   -3.5724    2.4375    0.0000 C   0  0  0  0  0  0  0  0  0  0  0  0
   -0.9743    3.9375    0.0000 C   0  0  0  0  0  0  0  0  0  0  0  0
   -2.2733    4.6875    0.0000 N   0  0  0  0  0  0  0  0  0  0  0  0
   -3.5724    3.9375    0.0000 N   0  0  0  0  0  0  0  0  0  0  0  0
  4  1  1  0
  5  2  1  0
  6  3  1  0
  7  4  1  0
  8  7  1  0
  9  5  1  0
  9  6  1  0
  9  8  1  0
M  END
>  <NAME>  (7132) 
1,1-DIETHYL-2-PROPYLHYDRAZINE

>  <SYNONYMS>  (7132) 


>  <SPECTRUM TYPE>  (7132) 
MS1

>  <INSTRUMENT TYPE>  (7132) 
EI-B

>  <INSTRUMENT>  (7132) 
SHIMADZU LKB-2091

>  <ION MODE>  (7132) 
P

>  <INCHIKEY>  (7132) 
YFTVJZZMQIPLDM-UHFFFAOYSA-N

>  <FORMULA>  (7132) 
C7H18N2

>  <EXACT MASS>  (7132) 
130.146998576

>  <MW>  (7132) 
130

>  <ID>  (7132) 
JP000510

>  <CONTRIBUTOR>  (7132) 
University of Tokyo Team, {Faculty of Engineering, University of Tokyo

>  <COMMENT>  (7132) 
SMILES=CCCNN(CC)CC
InChI=InChI=1S/C7H18N2/c1-4-7-8-9(5-2)6-3/h8H,4-7H2,1-3H3
computed SMILES=N(N(CC)CC)CCC
accession=JP000510
date=2016.01.19 (Created 2008.10.21, modified 2011.05.06)
author=SASAKI S, TOYOHASHI UNIV. OF TECH.
license=CC BY-NC-SA
exact mass=130.147
ionization energy=70 eV
ion type=[M]+*
computed spectral entropy=2.808838816696627
computed normalized entropy=0.7666962065901123
SPLASH=splash10-0019-9200000000-0f342651babfbc36446c
submitter=submitter = University of Tokyo Team (Faculty of Engineering, University of Tokyo)
MoNA Rating=3.75

>  <NUM PEAKS>  (7132) 
39

>  <MASS SPECTRAL PEAKS>  (7132) 
27 20.6
28 14.2
29 22.2
30 2.38
31 15.8
32 2.4
39 2.5
40 0.11
41 11.9
42 20.6
43 17.4
44 2.7
45 5.6
46 1.4
54 1.1
55 0.08
56 10.3
57 5.8
58 28.5
59 5.71
60 3.5
70 2.2
71 3.3
72 0.84
73 14.3
74 0.9
85 1.7
86 0.13
87 99.99
88 6
99 0.5
101 2.06
102 2.7
113 1
115 22.2
116 0.19
129 1
130 55.6
131 6.7

$$$$

     RDKit          2D

  9  8  0  0  0  0  0  0  0  0999 V2000
    1.9486    2.6250    0.0000 C   0  0  0  0  0  0  0  0  0  0  0  0
    0.6495    4.8750    0.0000 C   0  0  0  0  0  0  0  0  0  0  0  0
   -0.6495    1.1250    0.0000 C   0  0  0  0  0  0  0  0  0  0  0  0
   -4.5466    3.3750    0.0000 C   0  0  0  0  0  0  0  0  0  0  0  0
   -3.2476    1.1250    0.0000 C   0  0  0  0  0  0  0  0  0  0  0  0
    0.6495    3.3750    0.0000 C   0  0  0  0  0  0  0  0  0  0  0  0
   -0.6495    2.6250    0.0000 C   0  0  0  0  0  0  0  0  0  0  0  0
   -1.9486    3.3750    0.0000 N   0  0  0  0  0  0  0  0  0  0  0  0
   -3.2476    2.6250    0.0000 N   0  0  0  0  0  0  0  0  0  0  0  0
  6  1  1  0
  6  2  1  0
  7  3  1  0
  7  6  1  0
  8  7  1  0
  9  4  1  0
  9  5  1  0
  9  8  1  0
M  END
>  <NAME>  (7133) 
2-(1,2-DIMETHYLPROPYL)-1,1-DIMETHYLHYDRAZINE

>  <SYNONYMS>  (7133) 


>  <SPECTRUM TYPE>  (7133) 
MS1

>  <INSTRUMENT TYPE>  (7133) 
EI-B

>  <INSTRUMENT>  (7133) 
SHIMADZU LKB-2091

>  <ION MODE>  (7133) 
P

>  <INCHIKEY>  (7133) 
GIVUQKPXEOZXCB-UHFFFAOYSA-N

>  <FORMULA>  (7133) 
C7H18N2

>  <EXACT MASS>  (7133) 
130.146998576

>  <MW>  (7133) 
130

>  <ID>  (7133) 
JP000509

>  <CONTRIBUTOR>  (7133) 
University of Tokyo Team, {Faculty of Engineering, University of Tokyo

>  <COMMENT>  (7133) 
SMILES=CN(C)NC(C)C(C)C
InChI=InChI=1S/C7H18N2/c1-6(2)7(3)8-9(4)5/h6-8H,1-5H3
computed SMILES=N(N(C)C)C(C)C(C)C
accession=JP000509
date=2016.01.19 (Created 2008.10.21, modified 2011.05.06)
author=SASAKI S, TOYOHASHI UNIV. OF TECH.
license=CC BY-NC-SA
exact mass=130.147
ionization energy=70 eV
ion type=[M]+*
computed spectral entropy=2.360811217403927
computed normalized entropy=0.6811861271647364
SPLASH=splash10-052u-9100000000-0ffc7b681a6b6b8ff5a3
submitter=submitter = University of Tokyo Team (Faculty of Engineering, University of Tokyo)
MoNA Rating=3.75

>  <NUM PEAKS>  (7133) 
32

>  <MASS SPECTRAL PEAKS>  (7133) 
27 4.9
28 3.8
29 4
30 0.35
31 0.9
39 2.7
40 0.9
41 0.64
42 14
43 19.8
44 54.6
45 2.05
46 4.7
55 2.1
56 1.3
57 0.09
58 7.3
59 99.99
60 27.6
61 0.18
70 2.9
71 4
72 1.7
85 0.12
86 2.9
87 96.4
88 10.2
99 0.16
114 1.8
115 2.7
130 43.7
131 6.4

$$$$

     RDKit          2D

  9  8  0  0  0  0  0  0  0  0999 V2000
    1.9486    3.3750    0.0000 C   0  0  0  0  0  0  0  0  0  0  0  0
   -1.9486    5.6250    0.0000 C   0  0  0  0  0  0  0  0  0  0  0  0
   -5.8457    3.3750    0.0000 C   0  0  0  0  0  0  0  0  0  0  0  0
   -4.5466    5.6250    0.0000 C   0  0  0  0  0  0  0  0  0  0  0  0
    0.6495    4.1250    0.0000 C   0  0  0  0  0  0  0  0  0  0  0  0
   -0.6495    3.3750    0.0000 C   0  0  0  0  0  0  0  0  0  0  0  0
   -1.9486    4.1250    0.0000 C   0  0  0  0  0  0  0  0  0  0  0  0
   -3.2476    3.3750    0.0000 N   0  0  0  0  0  0  0  0  0  0  0  0
   -4.5466    4.1250    0.0000 N   0  0  0  0  0  0  0  0  0  0  0  0
  5  1  1  0
  6  5  1  0
  7  2  1  0
  7  6  1  0
  8  7  1  0
  9  3  1  0
  9  4  1  0
  9  8  1  0
M  END
>  <NAME>  (7134) 
1,1-DIMETHYL-2-(1-METHYLBUTYL)HYDRAZINE

>  <SYNONYMS>  (7134) 


>  <SPECTRUM TYPE>  (7134) 
MS1

>  <INSTRUMENT TYPE>  (7134) 
EI-B

>  <INSTRUMENT>  (7134) 
SHIMADZU LKB-2091

>  <ION MODE>  (7134) 
P

>  <INCHIKEY>  (7134) 
RQRHTWNEYRZHQK-UHFFFAOYSA-N

>  <FORMULA>  (7134) 
C7H18N2

>  <EXACT MASS>  (7134) 
130.146998576

>  <MW>  (7134) 
130

>  <ID>  (7134) 
JP000508

>  <CONTRIBUTOR>  (7134) 
University of Tokyo Team, {Faculty of Engineering, University of Tokyo

>  <COMMENT>  (7134) 
SMILES=CCCC(C)NN(C)C
InChI=InChI=1S/C7H18N2/c1-5-6-7(2)8-9(3)4/h7-8H,5-6H2,1-4H3
computed SMILES=N(N(C)C)C(C)CCC
accession=JP000508
date=2016.01.19 (Created 2008.10.21, modified 2011.05.06)
author=SASAKI S, TOYOHASHI UNIV. OF TECH.
license=CC BY-NC-SA
exact mass=130.147
ionization energy=70 eV
ion type=[M]+*
computed spectral entropy=2.256387724030188
computed normalized entropy=0.6510558759562174
SPLASH=splash10-0a4i-9100000000-5f831a5839848fdd4567
submitter=submitter = University of Tokyo Team (Faculty of Engineering, University of Tokyo)
MoNA Rating=3.75

>  <NUM PEAKS>  (7134) 
32

>  <MASS SPECTRAL PEAKS>  (7134) 
27 4.4
28 3.4
29 3.3
30 0.37
39 1.7
40 0.4
41 3.9
42 0.79
43 9.3
44 20.4
45 13.9
46 0.22
55 0.8
56 0.7
57 12
58 0.3
59 99.99
60 14.8
61 0.6
70 0.1
71 1.4
72 0.7
73 0.9
85 0.08
86 1.4
87 22.2
88 1.4
101 0.03
115 3.7
116 0.6
130 27.8
131 3.6

$$$$

     RDKit          2D

  9  8  0  0  0  0  0  0  0  0999 V2000
   -7.4695    3.9375    0.0000 C   0  0  0  0  0  0  0  0  0  0  0  0
    1.6238    3.1875    0.0000 C   0  0  0  0  0  0  0  0  0  0  0  0
    0.3248    5.4375    0.0000 C   0  0  0  0  0  0  0  0  0  0  0  0
   -6.1704    3.1875    0.0000 C   0  0  0  0  0  0  0  0  0  0  0  0
   -4.8714    3.9375    0.0000 C   0  0  0  0  0  0  0  0  0  0  0  0
   -3.5724    3.1875    0.0000 C   0  0  0  0  0  0  0  0  0  0  0  0
   -2.2733    3.9375    0.0000 C   0  0  0  0  0  0  0  0  0  0  0  0
   -0.9743    3.1875    0.0000 N   0  0  0  0  0  0  0  0  0  0  0  0
    0.3248    3.9375    0.0000 N   0  0  0  0  0  0  0  0  0  0  0  0
  4  1  1  0
  5  4  1  0
  6  5  1  0
  7  6  1  0
  8  7  1  0
  9  2  1  0
  9  3  1  0
  9  8  1  0
M  END
>  <NAME>  (7135) 
1,1-DIMETHYL-2-PENTYLHYDRAZINE

>  <SYNONYMS>  (7135) 


>  <SPECTRUM TYPE>  (7135) 
MS1

>  <INSTRUMENT TYPE>  (7135) 
EI-B

>  <INSTRUMENT>  (7135) 
SHIMADZU LKB-2091

>  <ION MODE>  (7135) 
P

>  <INCHIKEY>  (7135) 
YZLOLIUOQJTNRM-UHFFFAOYSA-N

>  <FORMULA>  (7135) 
C7H18N2

>  <EXACT MASS>  (7135) 
130.146998576

>  <MW>  (7135) 
130

>  <ID>  (7135) 
JP000507

>  <CONTRIBUTOR>  (7135) 
University of Tokyo Team, {Faculty of Engineering, University of Tokyo

>  <COMMENT>  (7135) 
SMILES=CCCCCNN(C)C
InChI=InChI=1S/C7H18N2/c1-4-5-6-7-8-9(2)3/h8H,4-7H2,1-3H3
computed SMILES=N(N(C)C)CCCCC
accession=JP000507
date=2016.01.19 (Created 2008.10.21, modified 2011.05.06)
author=SASAKI S, TOYOHASHI UNIV. OF TECH.
license=CC BY-NC-SA
exact mass=130.147
ionization energy=70 eV
ion type=[M]+*
computed spectral entropy=2.1439926770798876
computed normalized entropy=0.6186255205850814
SPLASH=splash10-0a4i-9100000000-d173180874c25660cb75
submitter=submitter = University of Tokyo Team (Faculty of Engineering, University of Tokyo)
MoNA Rating=3.75

>  <NUM PEAKS>  (7135) 
32

>  <MASS SPECTRAL PEAKS>  (7135) 
27 3.7
28 3.4
29 4.1
30 0.76
31 5.2
32 2
39 1.7
40 0.04
41 7.1
42 7.5
43 9
44 0.9
45 7.6
46 4.4
55 0.8
56 0.08
57 1.6
58 1
59 99.99
60 0.52
69 0.5
70 0.5
71 1.4
72 0.08
73 38.7
74 1.8
84 0.5
86 0.08
115 2.2
129 0.5
130 29.3
131 3.5

$$$$

     RDKit          2D

  8  7  0  0  0  0  0  0  0  0999 V2000
    1.6238    3.1875    0.0000 C   0  0  0  0  0  0  0  0  0  0  0  0
   -0.9743    1.6875    0.0000 C   0  0  0  0  0  0  0  0  0  0  0  0
   -4.8714    3.9375    0.0000 C   0  0  0  0  0  0  0  0  0  0  0  0
   -3.5724    1.6875    0.0000 C   0  0  0  0  0  0  0  0  0  0  0  0
    0.3248    3.9375    0.0000 C   0  0  0  0  0  0  0  0  0  0  0  0
   -0.9743    3.1875    0.0000 C   0  0  0  0  0  0  0  0  0  0  0  0
   -2.2733    3.9375    0.0000 N   0  0  0  0  0  0  0  0  0  0  0  0
   -3.5724    3.1875    0.0000 N   0  0  0  0  0  0  0  0  0  0  0  0
  5  1  1  0
  6  2  1  0
  6  5  1  0
  7  6  1  0
  8  3  1  0
  8  4  1  0
  8  7  1  0
M  END
>  <NAME>  (7136) 
2-SEC-BUTYL-1,1-DIMETHYLHYDRAZINE

>  <SYNONYMS>  (7136) 


>  <SPECTRUM TYPE>  (7136) 
MS1

>  <INSTRUMENT TYPE>  (7136) 
EI-B

>  <INSTRUMENT>  (7136) 
SHIMADZU LKB-2091

>  <ION MODE>  (7136) 
P

>  <INCHIKEY>  (7136) 
JNQHRUNRCVMHQV-UHFFFAOYSA-N

>  <FORMULA>  (7136) 
C6H16N2

>  <EXACT MASS>  (7136) 
116.13134851199999

>  <MW>  (7136) 
116

>  <ID>  (7136) 
JP000506

>  <CONTRIBUTOR>  (7136) 
University of Tokyo Team, {Faculty of Engineering, University of Tokyo

>  <COMMENT>  (7136) 
SMILES=CCC(C)NN(C)C
InChI=InChI=1S/C6H16N2/c1-5-6(2)7-8(3)4/h6-7H,5H2,1-4H3
computed SMILES=N(N(C)C)C(C)CC
accession=JP000506
date=2016.01.19 (Created 2008.10.21, modified 2011.05.06)
author=SASAKI S, TOYOHASHI UNIV. OF TECH.
license=CC BY-NC-SA
exact mass=116.13135
ionization energy=70 eV
ion type=[M]+*
computed spectral entropy=2.047802230124338
computed normalized entropy=0.6145487841070916
SPLASH=splash10-0a4i-9100000000-2d1d8b6c5ca4d1734412
submitter=submitter = University of Tokyo Team (Faculty of Engineering, University of Tokyo)
MoNA Rating=3.75

>  <NUM PEAKS>  (7136) 
28

>  <MASS SPECTRAL PEAKS>  (7136) 
27 4
28 4.6
29 5.4
30 0.37
31 0.5
39 1.3
41 3.8
42 0.85
43 5.7
44 21
45 15
46 0.23
55 1
56 1
57 2.8
58 0.37
59 99.99
60 10
70 0.6
71 0.08
72 1.6
85 0.5
86 0.4
87 1.7
88 1
101 3
116 29
117 3.1

$$$$

     RDKit          2D

  8  7  0  0  0  0  0  0  0  0999 V2000
    1.9486    3.3750    0.0000 C   0  0  0  0  0  0  0  0  0  0  0  0
   -5.8457    3.3750    0.0000 C   0  0  0  0  0  0  0  0  0  0  0  0
   -4.5466    5.6250    0.0000 C   0  0  0  0  0  0  0  0  0  0  0  0
    0.6495    4.1250    0.0000 C   0  0  0  0  0  0  0  0  0  0  0  0
   -0.6495    3.3750    0.0000 C   0  0  0  0  0  0  0  0  0  0  0  0
   -1.9486    4.1250    0.0000 C   0  0  0  0  0  0  0  0  0  0  0  0
   -3.2476    3.3750    0.0000 N   0  0  0  0  0  0  0  0  0  0  0  0
   -4.5466    4.1250    0.0000 N   0  0  0  0  0  0  0  0  0  0  0  0
  4  1  1  0
  5  4  1  0
  6  5  1  0
  7  6  1  0
  8  2  1  0
  8  3  1  0
  8  7  1  0
M  END
>  <NAME>  (7137) 
2-BUTYL-1,1-DIMETHYLHYDRAZINE

>  <SYNONYMS>  (7137) 


>  <SPECTRUM TYPE>  (7137) 
MS1

>  <INSTRUMENT TYPE>  (7137) 
EI-B

>  <INSTRUMENT>  (7137) 
SHIMADZU LKB-2091

>  <ION MODE>  (7137) 
P

>  <INCHIKEY>  (7137) 
RDWYDKHTFLJQJJ-UHFFFAOYSA-N

>  <FORMULA>  (7137) 
C6H16N2

>  <EXACT MASS>  (7137) 
116.13134851199999

>  <MW>  (7137) 
116

>  <ID>  (7137) 
JP000505

>  <CONTRIBUTOR>  (7137) 
University of Tokyo Team, {Faculty of Engineering, University of Tokyo

>  <COMMENT>  (7137) 
SMILES=CCCCNN(C)C
InChI=InChI=1S/C6H16N2/c1-4-5-6-7-8(2)3/h7H,4-6H2,1-3H3
computed SMILES=N(N(C)C)CCCC
accession=JP000505
date=2016.01.19 (Created 2008.10.21, modified 2011.05.06)
author=SASAKI S, TOYOHASHI UNIV. OF TECH.
license=CC BY-NC-SA
exact mass=116.13135
ionization energy=70 eV
ion type=[M]+*
computed spectral entropy=1.726520578163997
computed normalized entropy=0.5363737752246751
SPLASH=splash10-0a4i-9000000000-46bfd58966f548cf89b7
submitter=submitter = University of Tokyo Team (Faculty of Engineering, University of Tokyo)
MoNA Rating=3.75

>  <NUM PEAKS>  (7137) 
25

>  <MASS SPECTRAL PEAKS>  (7137) 
28 4.4
29 4
30 6.5
32 0.17
39 1.2
40 0.3
41 3.5
42 0.71
43 4.7
44 8.1
45 6.5
46 0.32
55 0.3
56 0.4
57 2.1
58 0.07
59 99.99
60 2.9
71 0.7
72 0.07
73 18
74 0.9
101 1
116 1.8
117 1.9

$$$$

     RDKit          2D

  7  6  0  0  0  0  0  0  0  0999 V2000
    1.6238    3.1875    0.0000 C   0  0  0  0  0  0  0  0  0  0  0  0
   -4.8714    3.9375    0.0000 C   0  0  0  0  0  0  0  0  0  0  0  0
   -3.5724    1.6875    0.0000 C   0  0  0  0  0  0  0  0  0  0  0  0
    0.3248    3.9375    0.0000 C   0  0  0  0  0  0  0  0  0  0  0  0
   -0.9743    3.1875    0.0000 C   0  0  0  0  0  0  0  0  0  0  0  0
   -2.2733    3.9375    0.0000 N   0  0  0  0  0  0  0  0  0  0  0  0
   -3.5724    3.1875    0.0000 N   0  0  0  0  0  0  0  0  0  0  0  0
  4  1  1  0
  5  4  1  0
  6  5  1  0
  7  2  1  0
  7  3  1  0
  7  6  1  0
M  END
>  <NAME>  (7138) 
1,1-DIMETHYL-2-PROPYLHYDRAZINE

>  <SYNONYMS>  (7138) 


>  <SPECTRUM TYPE>  (7138) 
MS1

>  <INSTRUMENT TYPE>  (7138) 
EI-B

>  <INSTRUMENT>  (7138) 
SHIMADZU LKB-2091

>  <ION MODE>  (7138) 
P

>  <INCHIKEY>  (7138) 
OZBIETPCMMGBGS-UHFFFAOYSA-N

>  <FORMULA>  (7138) 
C5H14N2

>  <EXACT MASS>  (7138) 
102.11569844799999

>  <MW>  (7138) 
102

>  <ID>  (7138) 
JP000504

>  <CONTRIBUTOR>  (7138) 
University of Tokyo Team, {Faculty of Engineering, University of Tokyo

>  <COMMENT>  (7138) 
SMILES=CCCNN(C)C
InChI=InChI=1S/C5H14N2/c1-4-5-6-7(2)3/h6H,4-5H2,1-3H3
computed SMILES=N(N(C)C)CCC
accession=JP000504
date=2016.01.19 (Created 2008.10.21, modified 2011.05.06)
author=SASAKI S, TOYOHASHI UNIV. OF TECH.
license=CC BY-NC-SA
exact mass=102.1157
ionization energy=70 eV
ion type=[M]+*
computed spectral entropy=2.244643087985786
computed normalized entropy=0.681054062820486
SPLASH=splash10-0a4i-9100000000-b983c6c9f48eba50b540
submitter=submitter = University of Tokyo Team (Faculty of Engineering, University of Tokyo)
MoNA Rating=3.75

>  <NUM PEAKS>  (7138) 
27

>  <MASS SPECTRAL PEAKS>  (7138) 
26 0.7
27 5.6
28 9.1
29 0.33
30 11.3
31 1.1
38 4.2
39 0.14
40 0.7
41 4.9
42 14.7
43 1.28
44 15.8
45 16.9
46 6
56 0.09
57 1.8
58 2.5
59 99.99
60 0.39
71 1.1
72 0.7
73 25.3
74 0.11
87 3.3
102 38.1
103 3.3

$$$$

     RDKit          2D

  6  5  0  0  0  0  0  0  0  0999 V2000
    1.2990    2.2500    0.0000 C   0  0  0  0  0  0  0  0  0  0  0  0
   -3.8971    2.2500    0.0000 C   0  0  0  0  0  0  0  0  0  0  0  0
   -2.5981    4.5000    0.0000 C   0  0  0  0  0  0  0  0  0  0  0  0
    0.0000    3.0000    0.0000 C   0  0  0  0  0  0  0  0  0  0  0  0
   -1.2990    2.2500    0.0000 N   0  0  0  0  0  0  0  0  0  0  0  0
   -2.5981    3.0000    0.0000 N   0  0  0  0  0  0  0  0  0  0  0  0
  4  1  1  0
  5  4  1  0
  6  2  1  0
  6  3  1  0
  6  5  1  0
M  END
>  <NAME>  (7139) 
2-ETHYL-1,1-DIMETHYLHYDRAZINE

>  <SYNONYMS>  (7139) 


>  <SPECTRUM TYPE>  (7139) 
MS1

>  <INSTRUMENT TYPE>  (7139) 
EI-B

>  <INSTRUMENT>  (7139) 
SHIMADZU LKB-2091

>  <ION MODE>  (7139) 
P

>  <INCHIKEY>  (7139) 
TWWCBLSUGOSDIY-UHFFFAOYSA-N

>  <FORMULA>  (7139) 
C4H12N2

>  <EXACT MASS>  (7139) 
88.10004838399999

>  <MW>  (7139) 
88

>  <ID>  (7139) 
JP000503

>  <CONTRIBUTOR>  (7139) 
University of Tokyo Team, {Faculty of Engineering, University of Tokyo

>  <COMMENT>  (7139) 
SMILES=CCNN(C)C
InChI=InChI=1S/C4H12N2/c1-4-5-6(2)3/h5H,4H2,1-3H3
computed SMILES=N(N(C)C)CC
accession=JP000503
date=2016.01.19 (Created 2008.10.21, modified 2011.05.06)
author=SASAKI S, TOYOHASHI UNIV. OF TECH.
license=CC BY-NC-SA
exact mass=88.10005
ionization energy=70 eV
ion type=[M]+*
computed spectral entropy=2.067494719637834
computed normalized entropy=0.659384000498042
SPLASH=splash10-0a4i-9000000000-7f4c16cbfc19b7ae8fa7
submitter=submitter = University of Tokyo Team (Faculty of Engineering, University of Tokyo)
MoNA Rating=3.75

>  <NUM PEAKS>  (7139) 
23

>  <MASS SPECTRAL PEAKS>  (7139) 
29 7.5
30 13
31 4.6
32 0.32
36 2.3
36.5 1.1
40 0.9
41 0.21
42 14.8
43 11.7
44 22.2
45 1.82
46 3.3
57 1.6
58 1.3
59 99.99
60 3.7
71 0.8
73 9.8
74 0.19
87 0.6
88 46.4
89 3

$$$$

     RDKit          2D

  5  4  0  0  0  0  0  0  0  0999 V2000
   -0.0000   -0.0000    0.0000 C   0  0  0  0  0  0  0  0  0  0  0  0
   -1.2990    3.7500    0.0000 C   0  0  0  0  0  0  0  0  0  0  0  0
   -2.5981    1.5000    0.0000 C   0  0  0  0  0  0  0  0  0  0  0  0
    0.0000    1.5000    0.0000 N   0  0  0  0  0  0  0  0  0  0  0  0
   -1.2990    2.2500    0.0000 N   0  0  0  0  0  0  0  0  0  0  0  0
  4  1  1  0
  5  2  1  0
  5  3  1  0
  5  4  1  0
M  END
>  <NAME>  (7140) 
TRIMETHYLHYDRAZINE

>  <SYNONYMS>  (7140) 


>  <SPECTRUM TYPE>  (7140) 
MS1

>  <INSTRUMENT TYPE>  (7140) 
EI-B

>  <INSTRUMENT>  (7140) 
SHIMADZU LKB-2091

>  <ION MODE>  (7140) 
P

>  <INCHIKEY>  (7140) 
NIIPNAJXERMYOG-UHFFFAOYSA-N

>  <FORMULA>  (7140) 
C3H10N2

>  <EXACT MASS>  (7140) 
74.08439831999999

>  <MW>  (7140) 
74

>  <ID>  (7140) 
JP000502

>  <CONTRIBUTOR>  (7140) 
University of Tokyo Team, {Faculty of Engineering, University of Tokyo

>  <COMMENT>  (7140) 
SMILES=CNN(C)C
InChI=InChI=1S/C3H10N2/c1-4-5(2)3/h4H,1-3H3
computed SMILES=N(N(C)C)C
accession=JP000502
date=2016.01.19 (Created 2008.10.21, modified 2011.05.06)
author=SASAKI S, TOYOHASHI UNIV. OF TECH.
license=CC BY-NC-SA
exact mass=74.0844
ionization energy=70 eV
ion type=[M]+*
computed spectral entropy=1.9283251451310925
computed normalized entropy=0.623842983145065
SPLASH=splash10-0ab9-9000000000-09f2db854fd25befd30f
submitter=submitter = University of Tokyo Team (Faculty of Engineering, University of Tokyo)
MoNA Rating=3.75

>  <NUM PEAKS>  (7140) 
22

>  <MASS SPECTRAL PEAKS>  (7140) 
27 2.8
28 3.6
29 3.4
30 3.25
31 5.8
32 7.6
36 1.7
40 0.11
41 2.1
42 26.5
43 12
44 1.69
45 2.3
46 2.6
57 3.1
58 0.16
59 99.99
60 3.2
71 0.7
73 0.25
74 61.5
75 4.1

$$$$

     RDKit          2D

 16 15  0  0  0  0  0  0  0  0999 V2000
    0.0000    0.0000    0.0000 C   0  0  0  0  0  0  0  0  0  0  0  0
  -10.3923    4.5000    0.0000 C   0  0  0  0  0  0  0  0  0  0  0  0
   -7.7942    0.0000    0.0000 C   0  0  0  0  0  0  0  0  0  0  0  0
   -5.1962    1.5000    0.0000 C   0  0  0  0  0  0  0  0  0  0  0  0
    0.0000    1.5000    0.0000 C   0  0  0  0  0  0  0  0  0  0  0  0
   -9.0933    3.7500    0.0000 C   0  0  0  0  0  0  0  0  0  0  0  0
   -7.7942    1.5000    0.0000 C   0  0  0  0  0  0  0  0  0  0  0  0
   -3.8971    2.2500    0.0000 C   0  0  0  0  0  0  0  0  0  0  0  0
   -1.2990    2.2500    0.0000 C   0  0  0  0  0  0  0  0  0  0  0  0
   -7.7942    4.5000    0.0000 C   0  0  0  0  0  0  0  0  0  0  0  0
   -6.4952    2.2500    0.0000 C   0  0  0  0  0  0  0  0  0  0  0  0
   -3.8971    3.7500    0.0000 C   0  0  0  0  0  0  0  0  0  0  0  0
   -1.2990    3.7500    0.0000 N   0  0  0  0  0  0  0  0  0  0  0  0
   -2.5981    4.5000    0.0000 N   0  0  0  0  0  0  0  0  0  0  0  0
   -5.1962    4.5000    0.0000 N   0  0  0  0  0  0  0  0  0  0  0  0
   -6.4952    3.7500    0.0000 N   0  0  0  0  0  0  0  0  0  0  0  0
  5  1  1  0
  6  2  1  0
  7  3  1  0
  8  4  1  0
  9  5  1  0
 10  6  1  0
 11  7  1  0
 12  8  1  0
 13  9  1  0
 14 12  1  0
 13 14  2  0
 15 12  1  0
 16 10  1  0
 16 11  1  0
 16 15  1  0
M  END
>  <NAME>  (7141) 
3-ETHYL-1,5,5-TRIPROPYL-3,4-DIHYDROFORMAZAN

>  <SYNONYMS>  (7141) 


>  <SPECTRUM TYPE>  (7141) 
MS1

>  <INSTRUMENT TYPE>  (7141) 
EI-B

>  <INSTRUMENT>  (7141) 
SHIMADZU LKB-2091

>  <ION MODE>  (7141) 
P

>  <INCHIKEY>  (7141) 
OZKYWOIOCNSWGR-YPKPFQOOSA-N

>  <FORMULA>  (7141) 
C12H28N4

>  <EXACT MASS>  (7141) 
228.23139689599998

>  <MW>  (7141) 
228

>  <ID>  (7141) 
JP000426

>  <CONTRIBUTOR>  (7141) 
University of Tokyo Team, {Faculty of Engineering, University of Tokyo

>  <COMMENT>  (7141) 
SMILES=CCCN=NC(CC)NN(CCC)CCC
InChI=InChI=1S/C12H28N4/c1-5-9-13-14-12(8-4)15-16(10-6-2)11-7-3/h12,15H,5-11H2,1-4H3/b14-13-
computed SMILES=N(=NC(NN(CCC)CCC)CC)CCC
accession=JP000426
date=2016.01.19 (Created 2008.10.21, modified 2011.05.06)
author=SASAKI S, TOYOHASHI UNIV. OF TECH.
license=CC BY-NC-SA
exact mass=228.2314
ionization energy=70 eV
ion type=[M]+*
computed spectral entropy=2.822529965066733
computed normalized entropy=0.7876419836315323
SPLASH=splash10-0a4l-9400000000-7ead2254655aef7c06a6
submitter=submitter = University of Tokyo Team (Faculty of Engineering, University of Tokyo)
MoNA Rating=3.75

>  <NUM PEAKS>  (7141) 
36

>  <MASS SPECTRAL PEAKS>  (7141) 
29 13.3
30 50.9
39 10.8
40 0.23
41 64.1
42 29.1
43 66.8
44 0.83
45 3.5
54 3
55 2.5
56 2.75
57 6.7
58 66.8
59 3.3
60 0.43
70 15.8
71 2.8
72 25.8
73 0.58
83 1.7
85 34.1
86 3.7
87 0.4
98 8.3
99 4.2
100 44.1
101 0.35
113 1.7
114 2.1
115 12.1
127 6.68
128 8.3
156 11.7
157 99.99
158 11.7

$$$$

     RDKit          2D

 16 15  0  0  0  0  0  0  0  0999 V2000
    0.0000    0.0000    0.0000 C   0  0  0  0  0  0  0  0  0  0  0  0
  -10.3923    4.5000    0.0000 C   0  0  0  0  0  0  0  0  0  0  0  0
   -7.7942    0.0000    0.0000 C   0  0  0  0  0  0  0  0  0  0  0  0
   -5.1962    1.5000    0.0000 C   0  0  0  0  0  0  0  0  0  0  0  0
    0.0000    1.5000    0.0000 C   0  0  0  0  0  0  0  0  0  0  0  0
   -9.0933    3.7500    0.0000 C   0  0  0  0  0  0  0  0  0  0  0  0
   -7.7942    1.5000    0.0000 C   0  0  0  0  0  0  0  0  0  0  0  0
   -3.8971    2.2500    0.0000 C   0  0  0  0  0  0  0  0  0  0  0  0
   -1.2990    2.2500    0.0000 C   0  0  0  0  0  0  0  0  0  0  0  0
   -7.7942    4.5000    0.0000 C   0  0  0  0  0  0  0  0  0  0  0  0
   -6.4952    2.2500    0.0000 C   0  0  0  0  0  0  0  0  0  0  0  0
   -3.8971    3.7500    0.0000 C   0  0  0  0  0  0  0  0  0  0  0  0
   -1.2990    3.7500    0.0000 N   0  0  0  0  0  0  0  0  0  0  0  0
   -2.5981    4.5000    0.0000 N   0  0  0  0  0  0  0  0  0  0  0  0
   -5.1962    4.5000    0.0000 N   0  0  0  0  0  0  0  0  0  0  0  0
   -6.4952    3.7500    0.0000 N   0  0  0  0  0  0  0  0  0  0  0  0
  5  1  1  0
  6  2  1  0
  7  3  1  0
  8  4  1  0
  9  5  1  0
 10  6  1  0
 11  7  1  0
 12  8  1  0
 13  9  1  0
 14 12  1  0
 13 14  2  0
 15 12  1  0
 16 10  1  0
 16 11  1  0
 16 15  1  0
M  END
>  <NAME>  (7142) 
3-ETHYL-1,5,5-TRIPROPYL-3,4-DIHYDROFORMAZAN

>  <SYNONYMS>  (7142) 


>  <SPECTRUM TYPE>  (7142) 
MS1

>  <INSTRUMENT TYPE>  (7142) 
EI-B

>  <INSTRUMENT>  (7142) 
SHIMADZU LKB-2091

>  <ION MODE>  (7142) 
P

>  <INCHIKEY>  (7142) 
OZKYWOIOCNSWGR-YPKPFQOOSA-N

>  <FORMULA>  (7142) 
C12H28N4

>  <EXACT MASS>  (7142) 
228.23139689599998

>  <MW>  (7142) 
228

>  <ID>  (7142) 
JP000425

>  <CONTRIBUTOR>  (7142) 
University of Tokyo Team, {Faculty of Engineering, University of Tokyo

>  <COMMENT>  (7142) 
SMILES=CCCN=NC(CC)NN(CCC)CCC
InChI=InChI=1S/C12H28N4/c1-5-9-13-14-12(8-4)15-16(10-6-2)11-7-3/h12,15H,5-11H2,1-4H3/b14-13-
computed SMILES=N(=NC(NN(CCC)CCC)CC)CCC
accession=JP000425
date=2016.01.19 (Created 2008.10.21, modified 2011.05.06)
author=SASAKI S, TOYOHASHI UNIV. OF TECH.
license=CC BY-NC-SA
exact mass=228.2314
ionization energy=70 eV
ion type=[M]+*
computed spectral entropy=2.822529965066733
computed normalized entropy=0.7876419836315323
SPLASH=splash10-0a4l-9400000000-7ead2254655aef7c06a6
submitter=submitter = University of Tokyo Team (Faculty of Engineering, University of Tokyo)
MoNA Rating=3.75

>  <NUM PEAKS>  (7142) 
36

>  <MASS SPECTRAL PEAKS>  (7142) 
29 13.3
30 50.9
39 10.8
40 0.23
41 64.1
42 29.1
43 66.8
44 0.83
45 3.5
54 3
55 2.5
56 2.75
57 6.7
58 66.8
59 3.3
60 0.43
70 15.8
71 2.8
72 25.8
73 0.58
83 1.7
85 34.1
86 3.7
87 0.4
98 8.3
99 4.2
100 44.1
101 0.35
113 1.7
114 2.1
115 12.1
127 6.68
128 8.3
156 11.7
157 99.99
158 11.7

$$$$

     RDKit          2D

 14 13  0  0  0  0  0  0  0  0999 V2000
    5.8457    5.6250    0.0000 C   0  0  0  0  0  0  0  0  0  0  0  0
   -3.2476    3.3750    0.0000 C   0  0  0  0  0  0  0  0  0  0  0  0
   -1.9486    5.6250    0.0000 C   0  0  0  0  0  0  0  0  0  0  0  0
    3.2476    5.6250    0.0000 C   0  0  0  0  0  0  0  0  0  0  0  0
    0.6495    5.6250    0.0000 C   0  0  0  0  0  0  0  0  0  0  0  0
    4.5466    4.8750    0.0000 C   0  0  0  0  0  0  0  0  0  0  0  0
   -1.9486    2.6250    0.0000 C   0  0  0  0  0  0  0  0  0  0  0  0
   -0.6495    4.8750    0.0000 C   0  0  0  0  0  0  0  0  0  0  0  0
    1.9486    4.8750    0.0000 C   0  0  0  0  0  0  0  0  0  0  0  0
    1.9486    3.3750    0.0000 C   0  0  0  0  0  0  0  0  0  0  0  0
    4.5466    3.3750    0.0000 N   0  0  0  0  0  0  0  0  0  0  0  0
    3.2476    2.6250    0.0000 N   0  0  0  0  0  0  0  0  0  0  0  0
    0.6495    2.6250    0.0000 N   0  0  0  0  0  0  0  0  0  0  0  0
   -0.6495    3.3750    0.0000 N   0  0  0  0  0  0  0  0  0  0  0  0
  6  1  1  0
  7  2  1  0
  8  3  1  0
  9  4  1  0
  9  5  1  0
 10  9  1  0
 11  6  1  0
 12 10  1  0
 11 12  2  0
 13 10  1  0
 14  7  1  0
 14  8  1  0
 14 13  1  0
M  END
>  <NAME>  (7143) 
1,5,5-TRIETHYL-3-ISOPROPYL-3,4-DIHYDROFORMAZAN

>  <SYNONYMS>  (7143) 


>  <SPECTRUM TYPE>  (7143) 
MS1

>  <INSTRUMENT TYPE>  (7143) 
EI-B

>  <INSTRUMENT>  (7143) 
SHIMADZU LKB-2091

>  <ION MODE>  (7143) 
P

>  <INCHIKEY>  (7143) 
URZKYFUVOOYNIS-QXMHVHEDSA-N

>  <FORMULA>  (7143) 
C10H24N4

>  <EXACT MASS>  (7143) 
200.20009676799998

>  <MW>  (7143) 
200

>  <ID>  (7143) 
JP000424

>  <CONTRIBUTOR>  (7143) 
University of Tokyo Team, {Faculty of Engineering, University of Tokyo

>  <COMMENT>  (7143) 
SMILES=CCN=NC(C(C)C)NN(CC)CC
InChI=InChI=1S/C10H24N4/c1-6-11-12-10(9(4)5)13-14(7-2)8-3/h9-10,13H,6-8H2,1-5H3/b12-11-
computed SMILES=N(=NC(NN(CC)CC)C(C)C)CC
accession=JP000424
date=2016.01.19 (Created 2008.10.21, modified 2011.05.06)
author=SASAKI S, TOYOHASHI UNIV. OF TECH.
license=CC BY-NC-SA
exact mass=200.2001
ionization energy=70 eV
ion type=[M]+*
computed spectral entropy=2.8989576178543257
computed normalized entropy=0.8153794136937155
SPLASH=splash10-002f-9300000000-7197568d40fe762a2989
submitter=submitter = University of Tokyo Team (Faculty of Engineering, University of Tokyo)
MoNA Rating=3.75

>  <NUM PEAKS>  (7143) 
35

>  <MASS SPECTRAL PEAKS>  (7143) 
28 40
29 61.1
30 30.5
39 0.66
41 18.8
42 30.5
43 25.9
44 8.71
45 4
54 2.1
55 18.8
56 1.88
57 15.1
58 30.5
59 23.5
68 0.12
69 1.3
70 12.7
71 8
72 0.75
73 8.7
74 9.2
86 1.7
87 5.19
88 4
99 5.7
100 2.8
101 0.28
113 4
115 3.1
127 17.9
128 0.26
142 5.9
143 99.99
144 11.1

$$$$

     RDKit          2D

 14 13  0  0  0  0  0  0  0  0999 V2000
    2.2733    5.0625    0.0000 C   0  0  0  0  0  0  0  0  0  0  0  0
   -8.1190    5.0625    0.0000 C   0  0  0  0  0  0  0  0  0  0  0  0
   -6.8200    7.3125    0.0000 C   0  0  0  0  0  0  0  0  0  0  0  0
   -6.8200    2.8125    0.0000 C   0  0  0  0  0  0  0  0  0  0  0  0
   -4.2219    2.8125    0.0000 C   0  0  0  0  0  0  0  0  0  0  0  0
   -2.9228    3.5625    0.0000 C   0  0  0  0  0  0  0  0  0  0  0  0
    0.9743    5.8125    0.0000 C   0  0  0  0  0  0  0  0  0  0  0  0
   -6.8200    5.8125    0.0000 C   0  0  0  0  0  0  0  0  0  0  0  0
   -5.5209    3.5625    0.0000 C   0  0  0  0  0  0  0  0  0  0  0  0
   -2.9228    5.0625    0.0000 C   0  0  0  0  0  0  0  0  0  0  0  0
   -0.3248    5.0625    0.0000 N   0  0  0  0  0  0  0  0  0  0  0  0
   -1.6238    5.8125    0.0000 N   0  0  0  0  0  0  0  0  0  0  0  0
   -4.2219    5.8125    0.0000 N   0  0  0  0  0  0  0  0  0  0  0  0
   -5.5209    5.0625    0.0000 N   0  0  0  0  0  0  0  0  0  0  0  0
  7  1  1  0
  8  2  1  0
  8  3  1  0
  9  4  1  0
  9  5  1  0
 10  6  1  0
 11  7  1  0
 12 10  1  0
 11 12  2  0
 13 10  1  0
 14  8  1  0
 14  9  1  0
 14 13  1  0
M  END
>  <NAME>  (7144) 
1-ETHYL-5,5-DIISOPROPYL-3-METHYL-3,4-DIHYDROFORMAZAN

>  <SYNONYMS>  (7144) 


>  <SPECTRUM TYPE>  (7144) 
MS1

>  <INSTRUMENT TYPE>  (7144) 
EI-B

>  <INSTRUMENT>  (7144) 
SHIMADZU LKB-2091

>  <ION MODE>  (7144) 
P

>  <INCHIKEY>  (7144) 
RVDGPLNVVIDJHU-VAWYXSNFSA-N

>  <FORMULA>  (7144) 
C10H24N4

>  <EXACT MASS>  (7144) 
200.20009676799998

>  <MW>  (7144) 
200

>  <ID>  (7144) 
JP000423

>  <CONTRIBUTOR>  (7144) 
University of Tokyo Team, {Faculty of Engineering, University of Tokyo

>  <COMMENT>  (7144) 
SMILES=CCN=NC(C)NN(C(C)C)C(C)C
InChI=InChI=1S/C10H24N4/c1-7-11-12-10(6)13-14(8(2)3)9(4)5/h8-10,13H,7H2,1-6H3/b12-11+
computed SMILES=N(=NC(NN(C(C)C)C(C)C)C)CC
accession=JP000423
date=2016.01.19 (Created 2008.10.21, modified 2011.05.06)
author=SASAKI S, TOYOHASHI UNIV. OF TECH.
license=CC BY-NC-SA
exact mass=200.2001
ionization energy=70 eV
ion type=[M]+*
computed spectral entropy=2.6651156849185496
computed normalized entropy=0.7557694870715589
SPLASH=splash10-052f-9200000000-2abff4e5e771862c47a3
submitter=submitter = University of Tokyo Team (Faculty of Engineering, University of Tokyo)
MoNA Rating=3.75

>  <NUM PEAKS>  (7144) 
34

>  <MASS SPECTRAL PEAKS>  (7144) 
28 11.2
29 13.7
30 6.4
31 0.25
39 3.7
40 1.4
41 14.9
42 1.74
43 26.1
44 28.6
55 0.7
56 1.12
57 5.8
58 99.99
59 8.7
69 0.08
70 6.8
71 1.2
72 1.4
73 0.53
84 3.4
85 31.1
86 13.7
87 0.1
99 2.7
100 7.7
101 16.2
102 0.12
115 2.4
127 13.7
128 1.2
142 0.6
143 47.3
144 5.2

$$$$

     RDKit          2D

 13 13  0  0  0  0  0  0  0  0999 V2000
    6.8197   -3.5621    0.0000 C   0  0  0  0  0  0  0  0  0  0  0  0
    1.6236   -2.0621    0.0000 C   0  0  0  0  0  0  0  0  0  0  0  0
    5.5207   -4.3121    0.0000 C   0  0  0  0  0  0  0  0  0  0  0  0
   -3.5726   -2.0621    0.0000 C   0  0  0  0  0  0  0  0  0  0  0  0
   -3.5731   -3.5629    0.0000 C   0  0  0  0  0  0  0  0  0  0  0  0
   -2.2731   -1.3113    0.0000 C   0  0  0  0  0  0  0  0  0  0  0  0
   -2.2740   -4.3129    0.0000 C   0  0  0  0  0  0  0  0  0  0  0  0
   -0.9740   -2.0613    0.0000 C   0  0  0  0  0  0  0  0  0  0  0  0
    1.6236   -3.5621    0.0000 C   0  0  0  0  0  0  0  0  0  0  0  0
    4.2216   -3.5621    0.0000 N   0  0  0  0  0  0  0  0  0  0  0  0
    2.9226   -4.3121    0.0000 N   0  0  0  0  0  0  0  0  0  0  0  0
    0.3245   -4.3121    0.0000 N   0  0  0  0  0  0  0  0  0  0  0  0
   -0.9745   -3.5621    0.0000 N   0  0  0  0  0  0  0  0  0  0  0  0
  3  1  1  0
  5  4  1  0
  6  4  1  0
  7  5  1  0
  8  6  1  0
  9  2  1  0
 10  3  1  0
 11  9  1  0
 10 11  2  0
 12  9  1  0
 13  7  1  0
 13  8  1  0
 13 12  1  0
M  END
>  <NAME>  (7145) 
1-ETHYL-3-METHYL-5,5-PENTAMETHYLENE-3,4-DIHYDROFORMAZAN

>  <SYNONYMS>  (7145) 


>  <SPECTRUM TYPE>  (7145) 
MS1

>  <INSTRUMENT TYPE>  (7145) 
EI-B

>  <INSTRUMENT>  (7145) 
SHIMADZU LKB-2091

>  <ION MODE>  (7145) 
P

>  <INCHIKEY>  (7145) 
MHEVJASIEPDIBM-ZHACJKMWSA-N

>  <FORMULA>  (7145) 
C9H20N4

>  <EXACT MASS>  (7145) 
184.16879663999998

>  <MW>  (7145) 
184

>  <ID>  (7145) 
JP000422

>  <CONTRIBUTOR>  (7145) 
University of Tokyo Team, {Faculty of Engineering, University of Tokyo

>  <COMMENT>  (7145) 
SMILES=CCN=NC(C)NN(C1)CCCC1
InChI=InChI=1S/C9H20N4/c1-3-10-11-9(2)12-13-7-5-4-6-8-13/h9,12H,3-8H2,1-2H3/b11-10+
computed SMILES=N(=NC(NN1CCCCC1)C)CC
accession=JP000422
date=2016.01.19 (Created 2008.10.21, modified 2011.05.06)
author=SASAKI S, TOYOHASHI UNIV. OF TECH.
license=CC BY-NC-SA
exact mass=184.1688
ionization energy=70 eV
ion type=[M]+*
computed spectral entropy=2.659219873163136
computed normalized entropy=0.7743825806019069
SPLASH=splash10-005c-9300000000-5a725332f096085969d2
submitter=submitter = University of Tokyo Team (Faculty of Engineering, University of Tokyo)
MoNA Rating=3.75

>  <NUM PEAKS>  (7145) 
31

>  <MASS SPECTRAL PEAKS>  (7145) 
29 36.5
30 28.5
39 8.7
40 0.31
41 27.1
42 86.5
43 10
44 2.15
46 3.4
53 2.4
54 4.9
55 5.14
56 30
57 7.1
58 6
67 0.33
68 2
69 12.8
70 10
71 0.6
82 9.3
83 7.9
84 83.5
85 1.64
98 2.4
99 6.4
111 5.1
125 2.72
126 17.9
127 99.99
128 7.9

$$$$

     RDKit          2D

 12 11  0  0  0  0  0  0  0  0999 V2000
   -4.8714    2.0625    0.0000 C   0  0  0  0  0  0  0  0  0  0  0  0
    0.3248    5.0625    0.0000 C   0  0  0  0  0  0  0  0  0  0  0  0
    4.2219    7.3125    0.0000 C   0  0  0  0  0  0  0  0  0  0  0  0
    2.9228    5.0625    0.0000 C   0  0  0  0  0  0  0  0  0  0  0  0
   -3.5724    2.8125    0.0000 C   0  0  0  0  0  0  0  0  0  0  0  0
   -3.5724    4.3125    0.0000 C   0  0  0  0  0  0  0  0  0  0  0  0
   -2.2733    5.0625    0.0000 C   0  0  0  0  0  0  0  0  0  0  0  0
    0.3248    6.5625    0.0000 C   0  0  0  0  0  0  0  0  0  0  0  0
   -2.2733    6.5625    0.0000 N   0  0  0  0  0  0  0  0  0  0  0  0
   -0.9743    7.3125    0.0000 N   0  0  0  0  0  0  0  0  0  0  0  0
    1.6238    7.3125    0.0000 N   0  0  0  0  0  0  0  0  0  0  0  0
    2.9228    6.5625    0.0000 N   0  0  0  0  0  0  0  0  0  0  0  0
  5  1  1  0
  6  5  1  0
  7  6  1  0
  8  2  1  0
  9  7  1  0
 10  8  1  0
  9 10  2  0
 11  8  1  0
 12  3  1  0
 12  4  1  0
 12 11  1  0
M  END
>  <NAME>  (7146) 
1-BUTYL-3,5,5-TRIMETHYL-3,4-DIHYDROFORMAZAN

>  <SYNONYMS>  (7146) 


>  <SPECTRUM TYPE>  (7146) 
MS1

>  <INSTRUMENT TYPE>  (7146) 
EI-B

>  <INSTRUMENT>  (7146) 
SHIMADZU LKB-2091

>  <ION MODE>  (7146) 
P

>  <INCHIKEY>  (7146) 
FIDAZQLHWRIURY-KTKRTIGZSA-N

>  <FORMULA>  (7146) 
C8H20N4

>  <EXACT MASS>  (7146) 
172.16879663999998

>  <MW>  (7146) 
172

>  <ID>  (7146) 
JP000421

>  <CONTRIBUTOR>  (7146) 
University of Tokyo Team, {Faculty of Engineering, University of Tokyo

>  <COMMENT>  (7146) 
SMILES=CCCCN=NC(C)NN(C)C
InChI=InChI=1S/C8H20N4/c1-5-6-7-9-10-8(2)11-12(3)4/h8,11H,5-7H2,1-4H3/b10-9-
computed SMILES=N(=NC(NN(C)C)C)CCCC
accession=JP000421
author=SASAKI S, TOYOHASHI UNIV. OF TECH.
date=2016.01.19 (Created 2008.10.21, modified 2011.05.06)
license=CC BY-NC-SA
exact mass=172.1688
ionization energy=70 eV
ion type=[M]+*
computed spectral entropy=2.251580420855886
computed normalized entropy=0.7084777480340457
SPLASH=splash10-000f-9000000000-55ae14955ed779893727
submitter=submitter = University of Tokyo Team (Faculty of Engineering, University of Tokyo)
MoNA Rating=3.75

>  <NUM PEAKS>  (7146) 
24

>  <MASS SPECTRAL PEAKS>  (7146) 
28 13.3
29 21.6
30 8.7
39 0.43
40 1.5
41 15
42 21.6
43 1.33
44 86.7
45 13.3
46 5.2
55 0.15
56 2
57 7
58 8.7
59 1.04
60 0.8
70 1.5
71 5.5
72 0.1
85 5.5
86 11
87 99.99
88 6.2

$$$$

     RDKit          2D

 12 11  0  0  0  0  0  0  0  0999 V2000
   -7.4695    3.9375    0.0000 C   0  0  0  0  0  0  0  0  0  0  0  0
   -0.9743    6.1875    0.0000 C   0  0  0  0  0  0  0  0  0  0  0  0
   -3.5724    6.1875    0.0000 C   0  0  0  0  0  0  0  0  0  0  0  0
    1.6238    3.1875    0.0000 C   0  0  0  0  0  0  0  0  0  0  0  0
    0.3248    5.4375    0.0000 C   0  0  0  0  0  0  0  0  0  0  0  0
   -6.1704    3.1875    0.0000 C   0  0  0  0  0  0  0  0  0  0  0  0
   -2.2733    5.4375    0.0000 C   0  0  0  0  0  0  0  0  0  0  0  0
   -2.2733    3.9375    0.0000 C   0  0  0  0  0  0  0  0  0  0  0  0
   -4.8714    3.9375    0.0000 N   0  0  0  0  0  0  0  0  0  0  0  0
   -3.5724    3.1875    0.0000 N   0  0  0  0  0  0  0  0  0  0  0  0
   -0.9743    3.1875    0.0000 N   0  0  0  0  0  0  0  0  0  0  0  0
    0.3248    3.9375    0.0000 N   0  0  0  0  0  0  0  0  0  0  0  0
  6  1  1  0
  7  2  1  0
  7  3  1  0
  8  7  1  0
  9  6  1  0
 10  8  1  0
  9 10  2  0
 11  8  1  0
 12  4  1  0
 12  5  1  0
 12 11  1  0
M  END
>  <NAME>  (7147) 
1-ETHYL-3-ISOPROPYL-5,5-DIMETHYL-3,4-DIHYDROFORMAZAN

>  <SYNONYMS>  (7147) 


>  <SPECTRUM TYPE>  (7147) 
MS1

>  <INSTRUMENT TYPE>  (7147) 
EI-B

>  <INSTRUMENT>  (7147) 
SHIMADZU LKB-2091

>  <ION MODE>  (7147) 
P

>  <INCHIKEY>  (7147) 
DBYJOJHQJZEVBO-MDZDMXLPSA-N

>  <FORMULA>  (7147) 
C8H20N4

>  <EXACT MASS>  (7147) 
172.16879663999998

>  <MW>  (7147) 
172

>  <ID>  (7147) 
JP000420

>  <CONTRIBUTOR>  (7147) 
University of Tokyo Team, {Faculty of Engineering, University of Tokyo

>  <COMMENT>  (7147) 
SMILES=CCN=NC(NN(C)C)C(C)C
InChI=InChI=1S/C8H20N4/c1-6-9-10-8(7(2)3)11-12(4)5/h7-8,11H,6H2,1-5H3/b10-9+
computed SMILES=N(=NC(NN(C)C)C(C)C)CC
accession=JP000420
date=2016.01.19 (Created 2008.10.21, modified 2011.05.06)
author=SASAKI S, TOYOHASHI UNIV. OF TECH.
license=CC BY-NC-SA
exact mass=172.1688
ionization energy=70 eV
ion type=[M]+*
computed spectral entropy=2.5033629318562753
computed normalized entropy=0.722317857466861
SPLASH=splash10-0aou-9200000000-3795e1f6d34a3bd9c895
submitter=submitter = University of Tokyo Team (Faculty of Engineering, University of Tokyo)
MoNA Rating=3.75

>  <NUM PEAKS>  (7147) 
32

>  <MASS SPECTRAL PEAKS>  (7147) 
27 11.2
28 18
29 13.5
30 1.01
39 3.7
40 1.1
41 9.1
42 1.46
43 21.3
44 36
45 10.1
46 1.12
54 0.9
55 9.2
56 5.4
57 0.34
58 5.4
59 99.99
60 5.4
68 0.07
70 4.4
71 2.1
72 7.9
73 0.55
85 1.8
86 0.8
99 3.3
100 0.16
113 0.9
114 2.7
115 56.1
116 4.7

$$$$

     RDKit          2D

 12 11  0  0  0  0  0  0  0  0999 V2000
    3.2476    2.6250    0.0000 C   0  0  0  0  0  0  0  0  0  0  0  0
   -5.8457    3.3750    0.0000 C   0  0  0  0  0  0  0  0  0  0  0  0
    0.6495    7.1250    0.0000 C   0  0  0  0  0  0  0  0  0  0  0  0
    1.9486    4.8750    0.0000 C   0  0  0  0  0  0  0  0  0  0  0  0
    1.9486    3.3750    0.0000 C   0  0  0  0  0  0  0  0  0  0  0  0
   -4.5466    2.6250    0.0000 C   0  0  0  0  0  0  0  0  0  0  0  0
    0.6495    2.6250    0.0000 C   0  0  0  0  0  0  0  0  0  0  0  0
   -0.6495    3.3750    0.0000 C   0  0  0  0  0  0  0  0  0  0  0  0
   -3.2476    3.3750    0.0000 N   0  0  0  0  0  0  0  0  0  0  0  0
   -1.9486    2.6250    0.0000 N   0  0  0  0  0  0  0  0  0  0  0  0
   -0.6495    4.8750    0.0000 N   0  0  0  0  0  0  0  0  0  0  0  0
    0.6495    5.6250    0.0000 N   0  0  0  0  0  0  0  0  0  0  0  0
  5  1  1  0
  6  2  1  0
  7  5  1  0
  8  7  1  0
  9  6  1  0
 10  8  1  0
  9 10  2  0
 11  8  1  0
 12  3  1  0
 12  4  1  0
 12 11  1  0
M  END
>  <NAME>  (7148) 
1-ETHYL-5,5-DIMETHYL-3-PROPYL-3,4-DIHYDROFORMAZAN

>  <SYNONYMS>  (7148) 


>  <SPECTRUM TYPE>  (7148) 
MS1

>  <INSTRUMENT TYPE>  (7148) 
EI-B

>  <INSTRUMENT>  (7148) 
SHIMADZU LKB-2091

>  <ION MODE>  (7148) 
P

>  <INCHIKEY>  (7148) 
QBKJPAWZEPDHGU-MDZDMXLPSA-N

>  <FORMULA>  (7148) 
C8H20N4

>  <EXACT MASS>  (7148) 
172.16879663999998

>  <MW>  (7148) 
172

>  <ID>  (7148) 
JP000419

>  <CONTRIBUTOR>  (7148) 
University of Tokyo Team, {Faculty of Engineering, University of Tokyo

>  <COMMENT>  (7148) 
SMILES=CCN=NC(CCC)NN(C)C
InChI=InChI=1S/C8H20N4/c1-5-7-8(10-9-6-2)11-12(3)4/h8,11H,5-7H2,1-4H3/b10-9+
computed SMILES=N(=NC(NN(C)C)CCC)CC
accession=JP000419
date=2016.01.19 (Created 2008.10.21, modified 2011.05.06)
author=SASAKI S, TOYOHASHI UNIV. OF TECH.
license=CC BY-NC-SA
exact mass=172.1688
ionization energy=70 eV
ion type=[M]+*
computed spectral entropy=2.6107257916038256
computed normalized entropy=0.7834830616283381
SPLASH=splash10-00kf-9200000000-59236589128dc65ddf21
submitter=submitter = University of Tokyo Team (Faculty of Engineering, University of Tokyo)
MoNA Rating=3.75

>  <NUM PEAKS>  (7148) 
28

>  <MASS SPECTRAL PEAKS>  (7148) 
27 19.6
28 34.9
29 2.2
30 3.92
31 1.8
39 3.9
41 12.2
42 2.7
43 34
44 99.99
45 17
46 3.31
55 3.9
56 8.7
57 3.5
58 1.18
59 34
60 2.2
70 10.9
71 1.26
72 15.7
73 7.4
85 13.5
86 1.22
99 2.3
114 7.8
115 78.1
116 7

$$$$

     RDKit          2D

 12 11  0  0  0  0  0  0  0  0999 V2000
    2.2733    5.0625    0.0000 C   0  0  0  0  0  0  0  0  0  0  0  0
   -8.1190    5.0625    0.0000 C   0  0  0  0  0  0  0  0  0  0  0  0
   -6.8200    2.8125    0.0000 C   0  0  0  0  0  0  0  0  0  0  0  0
   -2.9228    3.5625    0.0000 C   0  0  0  0  0  0  0  0  0  0  0  0
    0.9743    5.8125    0.0000 C   0  0  0  0  0  0  0  0  0  0  0  0
   -6.8200    5.8125    0.0000 C   0  0  0  0  0  0  0  0  0  0  0  0
   -5.5209    3.5625    0.0000 C   0  0  0  0  0  0  0  0  0  0  0  0
   -2.9228    5.0625    0.0000 C   0  0  0  0  0  0  0  0  0  0  0  0
   -0.3248    5.0625    0.0000 N   0  0  0  0  0  0  0  0  0  0  0  0
   -1.6238    5.8125    0.0000 N   0  0  0  0  0  0  0  0  0  0  0  0
   -4.2219    5.8125    0.0000 N   0  0  0  0  0  0  0  0  0  0  0  0
   -5.5209    5.0625    0.0000 N   0  0  0  0  0  0  0  0  0  0  0  0
  5  1  1  0
  6  2  1  0
  7  3  1  0
  8  4  1  0
  9  5  1  0
 10  8  1  0
  9 10  2  0
 11  8  1  0
 12  6  1  0
 12  7  1  0
 12 11  1  0
M  END
>  <NAME>  (7149) 
1,5,5-TRIETHYL-3-METHYL-3,4-DIHYDROFORMAZAN

>  <SYNONYMS>  (7149) 


>  <SPECTRUM TYPE>  (7149) 
MS1

>  <INSTRUMENT TYPE>  (7149) 
EI-B

>  <INSTRUMENT>  (7149) 
SHIMADZU LKB-2091

>  <ION MODE>  (7149) 
P

>  <INCHIKEY>  (7149) 
BWOHUQVAJNGKEM-MDZDMXLPSA-N

>  <FORMULA>  (7149) 
C8H20N4

>  <EXACT MASS>  (7149) 
172.16879663999998

>  <MW>  (7149) 
172

>  <ID>  (7149) 
JP000418

>  <CONTRIBUTOR>  (7149) 
University of Tokyo Team, {Faculty of Engineering, University of Tokyo

>  <COMMENT>  (7149) 
SMILES=CCN=NC(C)NN(CC)CC
InChI=InChI=1S/C8H20N4/c1-5-9-10-8(4)11-12(6-2)7-3/h8,11H,5-7H2,1-4H3/b10-9+
computed SMILES=N(=NC(NN(CC)CC)C)CC
accession=JP000418
date=2016.01.19 (Created 2008.10.21, modified 2011.05.06)
author=SASAKI S, TOYOHASHI UNIV. OF TECH.
license=CC BY-NC-SA
exact mass=172.1688
ionization energy=70 eV
ion type=[M]+*
computed spectral entropy=2.55372005830451
computed normalized entropy=0.7838073637484317
SPLASH=splash10-00mo-9100000000-2307270e746a35ee7b9c
submitter=submitter = University of Tokyo Team (Faculty of Engineering, University of Tokyo)
MoNA Rating=3.75

>  <NUM PEAKS>  (7149) 
26

>  <MASS SPECTRAL PEAKS>  (7149) 
27 22.4
28 28
29 36
30 1.84
31 4.4
41 4.4
42 31.2
43 0.68
44 99.99
45 3.6
46 4.4
56 1.16
57 4
58 28.8
59 6
70 0.44
71 11.4
72 52
73 9.6
85 0.18
86 4
87 12.4
99 18.4
114 0.52
115 76
116 6.4

$$$$

     RDKit          2D

 10  9  0  0  0  0  0  0  0  0999 V2000
   -7.4695    3.9375    0.0000 C   0  0  0  0  0  0  0  0  0  0  0  0
   -2.2733    5.4375    0.0000 C   0  0  0  0  0  0  0  0  0  0  0  0
    1.6238    3.1875    0.0000 C   0  0  0  0  0  0  0  0  0  0  0  0
    0.3248    5.4375    0.0000 C   0  0  0  0  0  0  0  0  0  0  0  0
   -6.1704    3.1875    0.0000 C   0  0  0  0  0  0  0  0  0  0  0  0
   -2.2733    3.9375    0.0000 C   0  0  0  0  0  0  0  0  0  0  0  0
   -4.8714    3.9375    0.0000 N   0  0  0  0  0  0  0  0  0  0  0  0
   -3.5724    3.1875    0.0000 N   0  0  0  0  0  0  0  0  0  0  0  0
   -0.9743    3.1875    0.0000 N   0  0  0  0  0  0  0  0  0  0  0  0
    0.3248    3.9375    0.0000 N   0  0  0  0  0  0  0  0  0  0  0  0
  5  1  1  0
  6  2  1  0
  7  5  1  0
  8  6  1  0
  7  8  2  0
  9  6  1  0
 10  3  1  0
 10  4  1  0
 10  9  1  0
M  END
>  <NAME>  (7150) 
1-ETHYL-3,5,5-TRIMETHYL-3,4-DIHYDROFORMAZAN

>  <SYNONYMS>  (7150) 


>  <SPECTRUM TYPE>  (7150) 
MS1

>  <INSTRUMENT TYPE>  (7150) 
EI-B

>  <INSTRUMENT>  (7150) 
SHIMADZU LKB-2091

>  <ION MODE>  (7150) 
P

>  <INCHIKEY>  (7150) 
BABHWMHGOCZGSO-BQYQJAHWSA-N

>  <FORMULA>  (7150) 
C6H16N4

>  <EXACT MASS>  (7150) 
144.13749651199998

>  <MW>  (7150) 
144

>  <ID>  (7150) 
JP000417

>  <CONTRIBUTOR>  (7150) 
University of Tokyo Team, {Faculty of Engineering, University of Tokyo

>  <COMMENT>  (7150) 
SMILES=CCN=NC(C)NN(C)C
InChI=InChI=1S/C6H16N4/c1-5-7-8-6(2)9-10(3)4/h6,9H,5H2,1-4H3/b8-7+
computed SMILES=N(=NC(NN(C)C)C)CC
accession=JP000417
date=2016.01.19 (Created 2008.10.21, modified 2011.05.06)
author=SASAKI S, TOYOHASHI UNIV. OF TECH.
license=CC BY-NC-SA
exact mass=144.1375
ionization energy=70 eV
ion type=[M]+*
computed spectral entropy=1.8673350429730284
computed normalized entropy=0.6133425130442953
SPLASH=splash10-0006-9000000000-5431db1680970a7eb8eb
submitter=submitter = University of Tokyo Team (Faculty of Engineering, University of Tokyo)
MoNA Rating=3.75

>  <NUM PEAKS>  (7150) 
21

>  <MASS SPECTRAL PEAKS>  (7150) 
28 11
29 9.8
30 6.3
41 0.26
42 18.9
43 3.4
44 99.99
45 0.89
46 4.6
56 1.1
57 1.2
58 0.83
59 10.6
60 1
70 1
71 0.34
72 0.6
85 3.2
86 5.5
87 5.11
88 3.1

$$$$

     RDKit          2D

 16 15  0  0  0  0  0  0  0  0999 V2000
   -6.4952    4.5000    0.0000 C   0  0  0  0  0  0  0  0  0  0  0  0
   -5.1962    2.2500    0.0000 C   0  0  0  0  0  0  0  0  0  0  0  0
   -5.1962    6.7500    0.0000 C   0  0  0  0  0  0  0  0  0  0  0  0
   -2.5981    6.7500    0.0000 C   0  0  0  0  0  0  0  0  0  0  0  0
    2.5981    3.7500    0.0000 C   0  0  0  0  0  0  0  0  0  0  0  0
    1.2990    6.0000    0.0000 C   0  0  0  0  0  0  0  0  0  0  0  0
    1.2990    1.5000    0.0000 C   0  0  0  0  0  0  0  0  0  0  0  0
   -1.2990    1.5000    0.0000 C   0  0  0  0  0  0  0  0  0  0  0  0
   -5.1962    3.7500    0.0000 C   0  0  0  0  0  0  0  0  0  0  0  0
   -3.8971    6.0000    0.0000 C   0  0  0  0  0  0  0  0  0  0  0  0
    1.2990    4.5000    0.0000 C   0  0  0  0  0  0  0  0  0  0  0  0
   -0.0000    2.2500    0.0000 C   0  0  0  0  0  0  0  0  0  0  0  0
   -2.5981    3.7500    0.0000 N   0  0  0  0  0  0  0  0  0  0  0  0
   -1.2990    4.5000    0.0000 N   0  0  0  0  0  0  0  0  0  0  0  0
   -3.8971    4.5000    0.0000 N   0  0  0  0  0  0  0  0  0  0  0  0
    0.0000    3.7500    0.0000 N   0  0  0  0  0  0  0  0  0  0  0  0
  9  1  1  0
  9  2  1  0
 10  3  1  0
 10  4  1  0
 11  5  1  0
 11  6  1  0
 12  7  1  0
 12  8  1  0
 13 14  2  0
 15  9  1  0
 15 10  1  0
 15 13  1  0
 16 11  1  0
 16 12  1  0
 16 14  1  0
M  END
>  <NAME>  (7151) 
TETRAISOPROPYL-2-TETRAZENE

>  <SYNONYMS>  (7151) 


>  <SPECTRUM TYPE>  (7151) 
MS1

>  <INSTRUMENT TYPE>  (7151) 
EI-B

>  <INSTRUMENT>  (7151) 
SHIMADZU LKB-2091

>  <ION MODE>  (7151) 
P

>  <INCHIKEY>  (7151) 
ZNDMWJNPHFHXFT-BUHFOSPRSA-N

>  <FORMULA>  (7151) 
C12H28N4

>  <EXACT MASS>  (7151) 
228.23139689599998

>  <MW>  (7151) 
228

>  <ID>  (7151) 
JP000416

>  <CONTRIBUTOR>  (7151) 
University of Tokyo Team, {Faculty of Engineering, University of Tokyo

>  <COMMENT>  (7151) 
SMILES=CC(C)N(C(C)C)N=NN(C(C)C)C(C)C
InChI=InChI=1S/C12H28N4/c1-9(2)15(10(3)4)13-14-16(11(5)6)12(7)8/h9-12H,1-8H3/b14-13+
computed SMILES=N(=NN(C(C)C)C(C)C)N(C(C)C)C(C)C
accession=JP000416
date=2016.01.19 (Created 2008.10.21, modified 2011.05.06)
author=SASAKI S, TOYOHASHI UNIV. OF TECH.
license=CC BY-NC-SA
exact mass=228.2314
ionization energy=70 eV
ion type=[M]+*
computed spectral entropy=2.2046084762121465
computed normalized entropy=0.5976363564153631
SPLASH=splash10-052f-9010000000-a4c18ed46200345da8ac
submitter=submitter = University of Tokyo Team (Faculty of Engineering, University of Tokyo)
MoNA Rating=3.75

>  <NUM PEAKS>  (7151) 
40

>  <MASS SPECTRAL PEAKS>  (7151) 
27 10.7
29 1.1
30 3.2
31 0.52
39 2.6
40 0.7
41 17.8
42 2.64
43 72.9
44 21.4
45 0.5
54 0.03
55 0.3
56 10.7
57 1.1
58 99.99
59 3.6
60 0.2
68 0.3
69 0.02
70 3.6
71 0.8
72 0.2
73 3.07
74 1.1
84 4.2
85 0.7
86 0.56
87 0.3
98 0.4
99 1
100 0.23
101 0.8
115 4.2
116 0.3
128 0.05
155 0.1
228 30.7
229 3.6
230 0.2

$$$$

     RDKit          2D

 12 11  0  0  0  0  0  0  0  0999 V2000
    2.2733    2.8125    0.0000 C   0  0  0  0  0  0  0  0  0  0  0  0
    0.9743    5.0625    0.0000 C   0  0  0  0  0  0  0  0  0  0  0  0
    0.9743    0.5625    0.0000 C   0  0  0  0  0  0  0  0  0  0  0  0
   -1.6238    0.5625    0.0000 C   0  0  0  0  0  0  0  0  0  0  0  0
   -5.5209    2.8125    0.0000 C   0  0  0  0  0  0  0  0  0  0  0  0
   -4.2219    5.0625    0.0000 C   0  0  0  0  0  0  0  0  0  0  0  0
    0.9743    3.5625    0.0000 C   0  0  0  0  0  0  0  0  0  0  0  0
   -0.3248    1.3125    0.0000 C   0  0  0  0  0  0  0  0  0  0  0  0
   -2.9228    2.8125    0.0000 N   0  0  0  0  0  0  0  0  0  0  0  0
   -1.6238    3.5625    0.0000 N   0  0  0  0  0  0  0  0  0  0  0  0
   -4.2219    3.5625    0.0000 N   0  0  0  0  0  0  0  0  0  0  0  0
   -0.3248    2.8125    0.0000 N   0  0  0  0  0  0  0  0  0  0  0  0
  7  1  1  0
  7  2  1  0
  8  3  1  0
  8  4  1  0
  9 10  2  0
 11  5  1  0
 11  6  1  0
 11  9  1  0
 12  7  1  0
 12  8  1  0
 12 10  1  0
M  END
>  <NAME>  (7152) 
1,1-DIISOPROPYL-4,4-DIMETHYL-2-TETRAZENE

>  <SYNONYMS>  (7152) 


>  <SPECTRUM TYPE>  (7152) 
MS1

>  <INSTRUMENT TYPE>  (7152) 
EI-B

>  <INSTRUMENT>  (7152) 
SHIMADZU LKB-2091

>  <ION MODE>  (7152) 
P

>  <INCHIKEY>  (7152) 
JTPWWUNKACEDTB-MDZDMXLPSA-N

>  <FORMULA>  (7152) 
C8H20N4

>  <EXACT MASS>  (7152) 
172.16879663999998

>  <MW>  (7152) 
172

>  <ID>  (7152) 
JP000415

>  <CONTRIBUTOR>  (7152) 
University of Tokyo Team, {Faculty of Engineering, University of Tokyo

>  <COMMENT>  (7152) 
SMILES=CN(C)N=NN(C(C)C)C(C)C
InChI=InChI=1S/C8H20N4/c1-7(2)12(8(3)4)10-9-11(5)6/h7-8H,1-6H3/b10-9+
computed SMILES=N(=NN(C(C)C)C(C)C)N(C)C
accession=JP000415
date=2016.01.19 (Created 2008.10.21, modified 2011.05.06)
author=SASAKI S, TOYOHASHI UNIV. OF TECH.
license=CC BY-NC-SA
exact mass=172.1688
ionization energy=70 eV
ion type=[M]+*
computed spectral entropy=2.3743012147674456
computed normalized entropy=0.7125316611022194
SPLASH=splash10-0596-9200000000-c829361bf46bac508bde
submitter=submitter = University of Tokyo Team (Faculty of Engineering, University of Tokyo)
MoNA Rating=3.75

>  <NUM PEAKS>  (7152) 
28

>  <MASS SPECTRAL PEAKS>  (7152) 
27 19.5
29 2.1
30 7.9
39 0.5
40 1.5
41 20.7
42 30
43 8.63
44 99.99
45 7.3
56 3.9
57 0.2
58 77.3
59 63.6
60 1.5
70 1.02
71 1.1
72 35.9
73 1.5
84 0.45
85 1.2
86 6.1
99 0.9
100 0.1
157 6.6
158 0.6
172 81.9
173 6.8

$$$$

     RDKit          2D

 12 11  0  0  0  0  0  0  0  0999 V2000
   -6.4952    4.5000    0.0000 C   0  0  0  0  0  0  0  0  0  0  0  0
   -5.1962    2.2500    0.0000 C   0  0  0  0  0  0  0  0  0  0  0  0
    2.5981    3.7500    0.0000 C   0  0  0  0  0  0  0  0  0  0  0  0
    1.2990    6.0000    0.0000 C   0  0  0  0  0  0  0  0  0  0  0  0
   -3.8971    6.0000    0.0000 C   0  0  0  0  0  0  0  0  0  0  0  0
   -0.0000    2.2500    0.0000 C   0  0  0  0  0  0  0  0  0  0  0  0
   -5.1962    3.7500    0.0000 C   0  0  0  0  0  0  0  0  0  0  0  0
    1.2990    4.5000    0.0000 C   0  0  0  0  0  0  0  0  0  0  0  0
   -2.5981    3.7500    0.0000 N   0  0  0  0  0  0  0  0  0  0  0  0
   -1.2990    4.5000    0.0000 N   0  0  0  0  0  0  0  0  0  0  0  0
   -3.8971    4.5000    0.0000 N   0  0  0  0  0  0  0  0  0  0  0  0
    0.0000    3.7500    0.0000 N   0  0  0  0  0  0  0  0  0  0  0  0
  7  1  1  0
  7  2  1  0
  8  3  1  0
  8  4  1  0
  9 10  2  0
 11  5  1  0
 11  7  1  0
 11  9  1  0
 12  6  1  0
 12  8  1  0
 12 10  1  0
M  END
>  <NAME>  (7153) 
1,4-DIISOPROPYL-1,4-DIMETHYL-2-TETRAZENE

>  <SYNONYMS>  (7153) 


>  <SPECTRUM TYPE>  (7153) 
MS1

>  <INSTRUMENT TYPE>  (7153) 
EI-B

>  <INSTRUMENT>  (7153) 
SHIMADZU LKB-2091

>  <ION MODE>  (7153) 
P

>  <INCHIKEY>  (7153) 
LHQPFVXOECBIPT-MDZDMXLPSA-N

>  <FORMULA>  (7153) 
C8H20N4

>  <EXACT MASS>  (7153) 
172.16879663999998

>  <MW>  (7153) 
172

>  <ID>  (7153) 
JP000414

>  <CONTRIBUTOR>  (7153) 
University of Tokyo Team, {Faculty of Engineering, University of Tokyo

>  <COMMENT>  (7153) 
SMILES=CC(C)N(C)N=NN(C)C(C)C
InChI=InChI=1S/C8H20N4/c1-7(2)11(5)9-10-12(6)8(3)4/h7-8H,1-6H3/b10-9+
computed SMILES=N(=NN(C)C(C)C)N(C)C(C)C
accession=JP000414
date=2016.01.19 (Created 2008.10.21, modified 2011.05.06)
author=SASAKI S, TOYOHASHI UNIV. OF TECH.
license=CC BY-NC-SA
exact mass=172.1688
ionization energy=70 eV
ion type=[M]+*
computed spectral entropy=2.4718600414584824
computed normalized entropy=0.7340786691344584
SPLASH=splash10-006x-9000000000-bee210aeb7218073454b
submitter=submitter = University of Tokyo Team (Faculty of Engineering, University of Tokyo)
MoNA Rating=3.75

>  <NUM PEAKS>  (7153) 
29

>  <MASS SPECTRAL PEAKS>  (7153) 
27 18.9
28 12.2
29 4
30 2.78
39 4.7
40 1.2
41 25.5
42 3.11
43 87.9
44 25.5
45 51.1
46 0.09
54 0.8
55 1.1
56 23.3
57 2
58 19.4
59 6.9
70 8.3
71 0.31
72 99.99
73 5.1
87 15.5
100 0.54
101 0.6
115 0.8
157 1.9
172 4.22
173 3.3

$$$$

     RDKit          2D

 12 11  0  0  0  0  0  0  0  0999 V2000
   -6.4952    4.5000    0.0000 C   0  0  0  0  0  0  0  0  0  0  0  0
   -5.1962    6.7500    0.0000 C   0  0  0  0  0  0  0  0  0  0  0  0
    2.5981    3.7500    0.0000 C   0  0  0  0  0  0  0  0  0  0  0  0
    1.2990    1.5000    0.0000 C   0  0  0  0  0  0  0  0  0  0  0  0
   -5.1962    3.7500    0.0000 C   0  0  0  0  0  0  0  0  0  0  0  0
   -3.8971    6.0000    0.0000 C   0  0  0  0  0  0  0  0  0  0  0  0
    1.2990    4.5000    0.0000 C   0  0  0  0  0  0  0  0  0  0  0  0
   -0.0000    2.2500    0.0000 C   0  0  0  0  0  0  0  0  0  0  0  0
   -2.5981    3.7500    0.0000 N   0  0  0  0  0  0  0  0  0  0  0  0
   -1.2990    4.5000    0.0000 N   0  0  0  0  0  0  0  0  0  0  0  0
   -3.8971    4.5000    0.0000 N   0  0  0  0  0  0  0  0  0  0  0  0
    0.0000    3.7500    0.0000 N   0  0  0  0  0  0  0  0  0  0  0  0
  5  1  1  0
  6  2  1  0
  7  3  1  0
  8  4  1  0
  9 10  2  0
 11  5  1  0
 11  6  1  0
 11  9  1  0
 12  7  1  0
 12  8  1  0
 12 10  1  0
M  END
>  <NAME>  (7154) 
TETRAETHYL-2-TETRAZENE

>  <SYNONYMS>  (7154) 


>  <SPECTRUM TYPE>  (7154) 
MS1

>  <INSTRUMENT TYPE>  (7154) 
EI-B

>  <INSTRUMENT>  (7154) 
SHIMADZU LKB-2091

>  <ION MODE>  (7154) 
P

>  <INCHIKEY>  (7154) 
DTPTYCXQWZYACS-MDZDMXLPSA-N

>  <FORMULA>  (7154) 
C8H20N4

>  <EXACT MASS>  (7154) 
172.16879663999998

>  <MW>  (7154) 
172

>  <ID>  (7154) 
JP000413

>  <CONTRIBUTOR>  (7154) 
University of Tokyo Team, {Faculty of Engineering, University of Tokyo

>  <COMMENT>  (7154) 
SMILES=CCN(CC)N=NN(CC)CC
InChI=InChI=1S/C8H20N4/c1-5-11(6-2)9-10-12(7-3)8-4/h5-8H2,1-4H3/b10-9+
computed SMILES=N(=NN(CC)CC)N(CC)CC
accession=JP000413
date=2016.01.19 (Created 2008.10.21, modified 2011.05.06)
author=SASAKI S, TOYOHASHI UNIV. OF TECH.
license=CC BY-NC-SA
exact mass=172.1688
ionization energy=70 eV
ion type=[M]+*
computed spectral entropy=2.0143615922046756
computed normalized entropy=0.6424383058884879
SPLASH=splash10-002f-9100000000-f91ecbb1b97847323e06
submitter=submitter = University of Tokyo Team (Faculty of Engineering, University of Tokyo)
MoNA Rating=3.75

>  <NUM PEAKS>  (7154) 
23

>  <MASS SPECTRAL PEAKS>  (7154) 
27 11.4
28 10.2
29 53.7
30 0.52
31 1.9
41 1.6
42 10.8
43 0.45
44 99.99
45 2.7
56 5.4
57 0.37
58 6.3
59 4.5
70 1
71 0.11
72 7.1
73 0.8
87 3.3
100 0.25
157 0.2
172 42.2
173 4.3

$$$$

     RDKit          2D

 10  9  0  0  0  0  0  0  0  0999 V2000
    1.9486    3.3750    0.0000 C   0  0  0  0  0  0  0  0  0  0  0  0
    0.6495    1.1250    0.0000 C   0  0  0  0  0  0  0  0  0  0  0  0
   -5.8457    3.3750    0.0000 C   0  0  0  0  0  0  0  0  0  0  0  0
   -4.5466    5.6250    0.0000 C   0  0  0  0  0  0  0  0  0  0  0  0
    0.6495    4.1250    0.0000 C   0  0  0  0  0  0  0  0  0  0  0  0
   -0.6495    1.8750    0.0000 C   0  0  0  0  0  0  0  0  0  0  0  0
   -3.2476    3.3750    0.0000 N   0  0  0  0  0  0  0  0  0  0  0  0
   -1.9486    4.1250    0.0000 N   0  0  0  0  0  0  0  0  0  0  0  0
   -4.5466    4.1250    0.0000 N   0  0  0  0  0  0  0  0  0  0  0  0
   -0.6495    3.3750    0.0000 N   0  0  0  0  0  0  0  0  0  0  0  0
  5  1  1  0
  6  2  1  0
  7  8  2  0
  9  3  1  0
  9  4  1  0
  9  7  1  0
 10  5  1  0
 10  6  1  0
 10  8  1  0
M  END
>  <NAME>  (7155) 
1,1-DIETHYL-4,4-DIMETHYL-2-TETRAZENE

>  <SYNONYMS>  (7155) 


>  <SPECTRUM TYPE>  (7155) 
MS1

>  <INSTRUMENT TYPE>  (7155) 
EI-B

>  <INSTRUMENT>  (7155) 
SHIMADZU LKB-2091

>  <ION MODE>  (7155) 
P

>  <INCHIKEY>  (7155) 
ACWGYOPNCRGEKM-BQYQJAHWSA-N

>  <FORMULA>  (7155) 
C6H16N4

>  <EXACT MASS>  (7155) 
144.13749651199998

>  <MW>  (7155) 
144

>  <ID>  (7155) 
JP000412

>  <CONTRIBUTOR>  (7155) 
University of Tokyo Team, {Faculty of Engineering, University of Tokyo

>  <COMMENT>  (7155) 
computed SMILES=N(=NN(CC)CC)N(C)C
SMILES=CCN(CC)N=NN(C)C
InChI=InChI=1S/C6H16N4/c1-5-10(6-2)8-7-9(3)4/h5-6H2,1-4H3/b8-7+
accession=JP000412
date=2016.01.19 (Created 2008.10.21, modified 2011.05.06)
author=SASAKI S, TOYOHASHI UNIV. OF TECH.
license=CC BY-NC-SA
exact mass=144.1375
ionization energy=70 eV
ion type=[M]+*
computed spectral entropy=2.0916605130279713
computed normalized entropy=0.5931499341677905
SPLASH=splash10-0006-9300000000-a38b2bd04bc9dc37ed32
submitter=submitter = University of Tokyo Team (Faculty of Engineering, University of Tokyo)
MoNA Rating=3.75

>  <NUM PEAKS>  (7155) 
34

>  <MASS SPECTRAL PEAKS>  (7155) 
29 40
30 7.5
31 0.6
39 0.06
40 1.4
41 2.8
42 25.4
43 3.45
44 99.99
45 5.4
46 0.9
55 0.09
56 3.4
57 3.5
58 7.7
59 1.64
60 1.6
70 0.7
71 0.7
72 1.82
73 1.2
83 1.4
84 0.5
85 0.05
87 1.6
98 1.4
99 0.4
100 0.1
101 0.8
115 0.5
129 2.1
130 0.08
144 68.2
145 4.3

$$$$

     RDKit          2D

  8  7  0  0  0  0  0  0  0  0999 V2000
    0.0000    0.0000    0.0000 C   0  0  0  0  0  0  0  0  0  0  0  0
    1.2990    2.2500    0.0000 C   0  0  0  0  0  0  0  0  0  0  0  0
   -2.5981    6.0000    0.0000 C   0  0  0  0  0  0  0  0  0  0  0  0
   -3.8971    3.7500    0.0000 C   0  0  0  0  0  0  0  0  0  0  0  0
   -1.2990    2.2500    0.0000 N   0  0  0  0  0  0  0  0  0  0  0  0
   -1.2990    3.7500    0.0000 N   0  0  0  0  0  0  0  0  0  0  0  0
    0.0000    1.5000    0.0000 N   0  0  0  0  0  0  0  0  0  0  0  0
   -2.5981    4.5000    0.0000 N   0  0  0  0  0  0  0  0  0  0  0  0
  5  6  2  0
  7  1  1  0
  7  2  1  0
  7  5  1  0
  8  3  1  0
  8  4  1  0
  8  6  1  0
M  END
>  <NAME>  (7156) 
TETRAMETHYL-2-TETRAZENE

>  <SYNONYMS>  (7156) 


>  <SPECTRUM TYPE>  (7156) 
MS1

>  <INSTRUMENT TYPE>  (7156) 
EI-B

>  <INSTRUMENT>  (7156) 
SHIMADZU LKB-2091

>  <ION MODE>  (7156) 
P

>  <INCHIKEY>  (7156) 
PRGCYUAJTPIADR-AATRIKPKSA-N

>  <FORMULA>  (7156) 
C4H12N4

>  <EXACT MASS>  (7156) 
116.10619638399999

>  <MW>  (7156) 
116

>  <ID>  (7156) 
JP000411

>  <CONTRIBUTOR>  (7156) 
University of Tokyo Team, {Faculty of Engineering, University of Tokyo

>  <COMMENT>  (7156) 
SMILES=CN(C)N=NN(C)C
InChI=InChI=1S/C4H12N4/c1-7(2)5-6-8(3)4/h1-4H3/b6-5+
computed SMILES=N(=NN(C)C)N(C)C
accession=JP000411
author=SASAKI S, TOYOHASHI UNIV. OF TECH.
date=2016.01.19 (Created 2008.10.21, modified 2011.05.06)
license=CC BY-NC-SA
exact mass=116.1062
ionization energy=70 eV
ion type=[M]+*
computed spectral entropy=1.9059216564682209
computed normalized entropy=0.6727067202569281
SPLASH=splash10-01bc-9500000000-b12d580a2ed0e7d32f04
submitter=submitter = University of Tokyo Team (Faculty of Engineering, University of Tokyo)
MoNA Rating=3.75

>  <NUM PEAKS>  (7156) 
17

>  <MASS SPECTRAL PEAKS>  (7156) 
28 19.5
29 2
30 3.3
31 0.07
41 2.2
42 27
43 57
44 4.05
45 3.6
46 1.2
58 3
59 1.5
71 3.3
72 53
73 2
116 99.99
117 6.1

$$$$

     RDKit          2D

 10 10  0  0  0  0  0  0  0  0999 V2000
   -4.0403    2.5049    0.0000 C   0  0  0  0  0  0  0  0  0  0  0  0
   -2.7413    0.2549    0.0000 C   0  0  0  0  0  0  0  0  0  0  0  0
    3.7240    1.4069    0.0000 C   0  0  0  0  0  0  0  0  0  0  0  0
    1.4823   -0.0496    0.0000 C   0  0  0  0  0  0  0  0  0  0  0  0
    0.0225    0.2621    0.0000 C   0  0  0  0  0  0  0  0  0  0  0  0
   -1.4423    2.5049    0.0000 C   0  0  0  0  0  0  0  0  0  0  0  0
   -2.7413    1.7549    0.0000 C   0  0  0  0  0  0  0  0  0  0  0  0
    2.2323    1.2495    0.0000 C   0  0  0  0  0  0  0  0  0  0  0  0
    1.2325    2.3578    0.0000 N   0  0  0  0  0  0  0  0  0  0  0  0
   -0.1432    1.7549    0.0000 N   0  0  0  0  0  0  0  0  0  0  0  0
  5  4  1  0
  7  1  1  0
  7  2  1  0
  7  6  1  0
  8  3  1  0
  8  4  1  0
  9  8  2  0
 10  5  1  0
 10  6  1  0
 10  9  1  0
M  END
>  <NAME>  (7157) 
1-ISOBUTYL-3-METHYL-2-PYRAZOLINE

>  <SYNONYMS>  (7157) 


>  <SPECTRUM TYPE>  (7157) 
MS1

>  <INSTRUMENT TYPE>  (7157) 
EI-B

>  <INSTRUMENT>  (7157) 
SHIMADZU LKB-2091

>  <ION MODE>  (7157) 
P

>  <INCHIKEY>  (7157) 
ZEWMFEJLDHQAFQ-UHFFFAOYSA-N

>  <FORMULA>  (7157) 
C8H16N2

>  <EXACT MASS>  (7157) 
140.131348512

>  <MW>  (7157) 
140

>  <ID>  (7157) 
JP000410

>  <CONTRIBUTOR>  (7157) 
University of Tokyo Team, {Faculty of Engineering, University of Tokyo

>  <COMMENT>  (7157) 
SMILES=CC(C)CN(C1)N=C(C)C1
InChI=InChI=1S/C8H16N2/c1-7(2)6-10-5-4-8(3)9-10/h7H,4-6H2,1-3H3
computed SMILES=N1=C(C)CCN1CC(C)C
accession=JP000410
date=2016.01.19 (Created 2008.10.21, modified 2011.05.06)
author=SASAKI S, TOYOHASHI UNIV. OF TECH.
license=CC BY-NC-SA
exact mass=140.13135
ionization energy=70 eV
ion type=[M]+*
computed spectral entropy=1.5350637653706856
computed normalized entropy=0.45133039724395657
SPLASH=splash10-0002-9000000000-ed22e519551b348b9dd4
submitter=submitter = University of Tokyo Team (Faculty of Engineering, University of Tokyo)
MoNA Rating=3.75

>  <NUM PEAKS>  (7157) 
30

>  <MASS SPECTRAL PEAKS>  (7157) 
26 0.4
27 3.2
28 6
29 0.31
30 0.3
39 2.2
41 4.3
42 1.16
43 1.3
53 0.5
54 1.1
55 0.14
56 3.1
57 0.6
58 0.3
68 0.16
69 6.8
70 0.5
82 0.3
83 0.31
84 0.7
95 0.7
96 0.8
97 99.99
98 4.7
99 0.2
125 0.6
139 0.03
140 7.7
141 0.8

$$$$

     RDKit          2D

 10 10  0  0  0  0  0  0  0  0999 V2000
   -2.5419    1.9359    0.0000 C   0  0  0  0  0  0  0  0  0  0  0  0
    4.6073    2.5252    0.0000 C   0  0  0  0  0  0  0  0  0  0  0  0
   -1.1141    2.3959    0.0000 C   0  0  0  0  0  0  0  0  0  0  0  0
   -0.0019    1.3895    0.0000 C   0  0  0  0  0  0  0  0  0  0  0  0
    4.7478   -0.1445    0.0000 C   0  0  0  0  0  0  0  0  0  0  0  0
    3.7480   -1.2528    0.0000 C   0  0  0  0  0  0  0  0  0  0  0  0
    1.4258    1.8494    0.0000 C   0  0  0  0  0  0  0  0  0  0  0  0
    3.9978    1.1546    0.0000 C   0  0  0  0  0  0  0  0  0  0  0  0
    2.3723   -0.6499    0.0000 N   0  0  0  0  0  0  0  0  0  0  0  0
    2.5380    0.8430    0.0000 N   0  0  0  0  0  0  0  0  0  0  0  0
  3  1  1  0
  4  3  1  0
  6  5  1  0
  7  4  1  0
  8  2  1  0
  8  5  1  0
  9  6  2  0
 10  7  1  0
 10  8  1  0
 10  9  1  0
M  END
>  <NAME>  (7158) 
1-BUTYL-5-METHYL-2-PYRAZOLINE

>  <SYNONYMS>  (7158) 


>  <SPECTRUM TYPE>  (7158) 
MS1

>  <INSTRUMENT TYPE>  (7158) 
EI-B

>  <INSTRUMENT>  (7158) 
SHIMADZU LKB-2091

>  <ION MODE>  (7158) 
P

>  <INCHIKEY>  (7158) 
IPKPLDIJSVOODS-UHFFFAOYSA-N

>  <FORMULA>  (7158) 
C8H16N2

>  <EXACT MASS>  (7158) 
140.131348512

>  <MW>  (7158) 
140

>  <ID>  (7158) 
JP000409

>  <CONTRIBUTOR>  (7158) 
University of Tokyo Team, {Faculty of Engineering, University of Tokyo

>  <COMMENT>  (7158) 
SMILES=CCCCN(N=1)C(C)CC([H])1
InChI=InChI=1S/C8H16N2/c1-3-4-7-10-8(2)5-6-9-10/h6,8H,3-5,7H2,1-2H3
computed SMILES=N1=CCC(N1CCCC)C
accession=JP000409
date=2016.01.19 (Created 2008.10.21, modified 2011.05.06)
author=SASAKI S, TOYOHASHI UNIV. OF TECH.
license=CC BY-NC-SA
exact mass=140.13135
ionization energy=70 eV
ion type=[M]+*
computed spectral entropy=1.9040436427252196
computed normalized entropy=0.5445558487299936
SPLASH=splash10-0002-9000000000-fddac03ffc5b4a4a2111
submitter=submitter = University of Tokyo Team (Faculty of Engineering, University of Tokyo)
MoNA Rating=3.75

>  <NUM PEAKS>  (7158) 
33

>  <MASS SPECTRAL PEAKS>  (7158) 
26 0.5
27 5.5
29 6.7
30 0.45
39 3.3
40 0.7
41 8.6
42 0.61
43 1.7
44 0.8
52 0.2
53 0.08
54 1.6
55 7.3
56 3.1
57 0.25
68 2.5
69 24.5
70 2.1
80 0.05
81 0.5
82 0.5
83 1.5
84 0.06
95 0.4
97 99.99
98 5
111 0.03
125 4.6
126 0.4
139 0.5
140 1.05
141 1

$$$$

     RDKit          2D

 10 10  0  0  0  0  0  0  0  0999 V2000
   -3.6880   -1.0864    0.0000 C   0  0  0  0  0  0  0  0  0  0  0  0
    3.6595    0.4748    0.0000 C   0  0  0  0  0  0  0  0  0  0  0  0
    2.3605    2.7248    0.0000 C   0  0  0  0  0  0  0  0  0  0  0  0
   -2.8058    0.1268    0.0000 C   0  0  0  0  0  0  0  0  0  0  0  0
   -0.5640   -1.3297    0.0000 C   0  0  0  0  0  0  0  0  0  0  0  0
   -0.3143    1.0777    0.0000 C   0  0  0  0  0  0  0  0  0  0  0  0
    2.3605    1.2248    0.0000 C   0  0  0  0  0  0  0  0  0  0  0  0
   -1.3140   -0.0307    0.0000 C   0  0  0  0  0  0  0  0  0  0  0  0
    0.8957   -1.0181    0.0000 N   0  0  0  0  0  0  0  0  0  0  0  0
    1.0615    0.4748    0.0000 N   0  0  0  0  0  0  0  0  0  0  0  0
  4  1  1  0
  7  2  1  0
  7  3  1  0
  8  4  1  0
  8  5  1  0
  8  6  1  0
  9  5  2  0
 10  6  1  0
 10  7  1  0
 10  9  1  0
M  END
>  <NAME>  (7159) 
4-ETHYL-1-ISOPROPYL-2-PYRAZOLINE

>  <SYNONYMS>  (7159) 


>  <SPECTRUM TYPE>  (7159) 
MS1

>  <INSTRUMENT TYPE>  (7159) 
EI-B

>  <INSTRUMENT>  (7159) 
SHIMADZU LKB-2091

>  <ION MODE>  (7159) 
P

>  <INCHIKEY>  (7159) 
YYDARPMCZIBRBD-UHFFFAOYSA-N

>  <FORMULA>  (7159) 
C8H16N2

>  <EXACT MASS>  (7159) 
140.131348512

>  <MW>  (7159) 
140

>  <ID>  (7159) 
JP000408

>  <CONTRIBUTOR>  (7159) 
University of Tokyo Team, {Faculty of Engineering, University of Tokyo

>  <COMMENT>  (7159) 
SMILES=CCC(C=1)CN(N1)C(C)C
InChI=InChI=1S/C8H16N2/c1-4-8-5-9-10(6-8)7(2)3/h5,7-8H,4,6H2,1-3H3
computed SMILES=N1=CC(CN1C(C)C)CC
accession=JP000408
date=2016.01.19 (Created 2008.10.21, modified 2011.05.06)
author=SASAKI S, TOYOHASHI UNIV. OF TECH.
license=CC BY-NC-SA
exact mass=140.13135
ionization energy=70 eV
ion type=[M]+*
computed spectral entropy=2.148131997666676
computed normalized entropy=0.614365037084525
SPLASH=splash10-004i-9800000000-0f7e4f88a58f4d4cb102
submitter=submitter = University of Tokyo Team (Faculty of Engineering, University of Tokyo)
MoNA Rating=3.75

>  <NUM PEAKS>  (7159) 
33

>  <MASS SPECTRAL PEAKS>  (7159) 
26 0.8
27 9.8
29 4.1
30 0.29
39 6.2
40 1.6
41 11.4
42 1.73
43 7.5
44 3.3
52 0.5
53 0.1
54 2.8
55 5.2
56 11.4
57 0.09
67 0.6
68 2.1
69 47.5
70 0.34
81 0.8
82 0.9
83 1.2
95 0.11
96 1.7
97 2.3
98 0.5
111 0.15
125 99.99
126 8.5
139 1.4
140 1.77
141 1.8

$$$$

     RDKit          2D

 10 10  0  0  0  0  0  0  0  0999 V2000
    3.6880   -1.0864    0.0000 C   0  0  0  0  0  0  0  0  0  0  0  0
   -3.6595    0.4748    0.0000 C   0  0  0  0  0  0  0  0  0  0  0  0
   -2.3605    2.7248    0.0000 C   0  0  0  0  0  0  0  0  0  0  0  0
    2.8058    0.1268    0.0000 C   0  0  0  0  0  0  0  0  0  0  0  0
    0.5640   -1.3297    0.0000 C   0  0  0  0  0  0  0  0  0  0  0  0
   -0.8957   -1.0181    0.0000 C   0  0  0  0  0  0  0  0  0  0  0  0
   -2.3605    1.2248    0.0000 C   0  0  0  0  0  0  0  0  0  0  0  0
    1.3140   -0.0307    0.0000 C   0  0  0  0  0  0  0  0  0  0  0  0
    0.3143    1.0777    0.0000 N   0  0  0  0  0  0  0  0  0  0  0  0
   -1.0615    0.4748    0.0000 N   0  0  0  0  0  0  0  0  0  0  0  0
  4  1  1  0
  6  5  1  0
  7  2  1  0
  7  3  1  0
  8  4  1  0
  8  5  1  0
  9  8  2  0
 10  6  1  0
 10  7  1  0
 10  9  1  0
M  END
>  <NAME>  (7160) 
3-ETHYL-1-ISOPROPYL-2-PYRAZOLINE

>  <SYNONYMS>  (7160) 


>  <SPECTRUM TYPE>  (7160) 
MS1

>  <INSTRUMENT TYPE>  (7160) 
EI-B

>  <INSTRUMENT>  (7160) 
SHIMADZU LKB-2091

>  <ION MODE>  (7160) 
P

>  <INCHIKEY>  (7160) 
UMSXSCVFMDGXJU-UHFFFAOYSA-N

>  <FORMULA>  (7160) 
C8H16N2

>  <EXACT MASS>  (7160) 
140.131348512

>  <MW>  (7160) 
140

>  <ID>  (7160) 
JP000407

>  <CONTRIBUTOR>  (7160) 
University of Tokyo Team, {Faculty of Engineering, University of Tokyo

>  <COMMENT>  (7160) 
SMILES=CCC(C1)=NN(C1)C(C)C
InChI=InChI=1S/C8H16N2/c1-4-8-5-6-10(9-8)7(2)3/h7H,4-6H2,1-3H3
computed SMILES=N1=C(CC)CCN1C(C)C
accession=JP000407
date=2016.01.19 (Created 2008.10.21, modified 2011.05.06)
author=SASAKI S, TOYOHASHI UNIV. OF TECH.
license=CC BY-NC-SA
exact mass=140.13135
ionization energy=70 eV
ion type=[M]+*
computed spectral entropy=2.0614743109258336
computed normalized entropy=0.5798234871165431
SPLASH=splash10-004i-7900000000-721c058773ea35696329
submitter=submitter = University of Tokyo Team (Faculty of Engineering, University of Tokyo)
MoNA Rating=3.75

>  <NUM PEAKS>  (7160) 
35

>  <MASS SPECTRAL PEAKS>  (7160) 
26 0.7
27 6.4
29 3.3
30 0.13
39 3.8
41 8.1
42 12.1
43 0.33
52 0.4
53 1
54 4.3
55 0.18
56 31
57 1.1
67 0.4
68 0.17
69 3.6
70 2.7
81 0.6
82 0.11
83 4
84 0.4
95 0.6
96 0.04
97 7.6
98 0.8
110 0.5
111 0.06
123 0.6
124 0.6
125 99.99
126 0.8
139 1.2
140 13.3
141 1.3

$$$$

     RDKit          2D

 10 10  0  0  0  0  0  0  0  0999 V2000
   -1.8410   -2.2431    0.0000 C   0  0  0  0  0  0  0  0  0  0  0  0
   -2.6377    0.2298    0.0000 C   0  0  0  0  0  0  0  0  0  0  0  0
    2.7444    2.3164    0.0000 C   0  0  0  0  0  0  0  0  0  0  0  0
    3.7499   -0.7767    0.0000 C   0  0  0  0  0  0  0  0  0  0  0  0
    0.3622    1.1033    0.0000 C   0  0  0  0  0  0  0  0  0  0  0  0
   -1.5255   -0.7767    0.0000 C   0  0  0  0  0  0  0  0  0  0  0  0
    1.8622    1.1033    0.0000 C   0  0  0  0  0  0  0  0  0  0  0  0
    2.3222   -0.3167    0.0000 C   0  0  0  0  0  0  0  0  0  0  0  0
    1.1122   -1.2067    0.0000 N   0  0  0  0  0  0  0  0  0  0  0  0
   -0.0978   -0.3167    0.0000 N   0  0  0  0  0  0  0  0  0  0  0  0
  6  1  1  0
  6  2  1  0
  7  3  1  0
  7  5  1  0
  8  4  1  0
  8  7  1  0
  9  8  2  0
 10  5  1  0
 10  6  1  0
 10  9  1  0
M  END
>  <NAME>  (7161) 
1-ISOPROPYL-3,4-DIMETHYL-2-PYRAZOLINE

>  <SYNONYMS>  (7161) 


>  <SPECTRUM TYPE>  (7161) 
MS1

>  <INSTRUMENT TYPE>  (7161) 
EI-B

>  <INSTRUMENT>  (7161) 
SHIMADZU LKB-2091

>  <ION MODE>  (7161) 
P

>  <INCHIKEY>  (7161) 
FLFFDGXRTTZWSA-UHFFFAOYSA-N

>  <FORMULA>  (7161) 
C8H16N2

>  <EXACT MASS>  (7161) 
140.131348512

>  <MW>  (7161) 
140

>  <ID>  (7161) 
JP000406

>  <CONTRIBUTOR>  (7161) 
University of Tokyo Team, {Faculty of Engineering, University of Tokyo

>  <COMMENT>  (7161) 
SMILES=CC(C)N(C1)N=C(C)C(C)1
InChI=InChI=1S/C8H16N2/c1-6(2)10-5-7(3)8(4)9-10/h6-7H,5H2,1-4H3
computed SMILES=N1=C(C)C(C)CN1C(C)C
accession=JP000406
date=2016.01.19 (Created 2008.10.21, modified 2011.05.06)
author=SASAKI S, TOYOHASHI UNIV. OF TECH.
license=CC BY-NC-SA
exact mass=140.13135
ionization energy=70 eV
ion type=[M]+*
computed spectral entropy=1.9970961986022697
computed normalized entropy=0.5993318214725255
SPLASH=splash10-004i-5900000000-17ebb968d01e2dc280b4
submitter=submitter = University of Tokyo Team (Faculty of Engineering, University of Tokyo)
MoNA Rating=3.75

>  <NUM PEAKS>  (7161) 
28

>  <MASS SPECTRAL PEAKS>  (7161) 
26 0.8
27 7.1
28 2.5
29 0.24
30 2.4
39 0.5
40 1.4
41 1.6
42 23.7
43 4.2
44 1
53 0.1
54 2.4
55 2.4
56 11.6
57 0.08
68 1.8
69 1.1
70 1.2
83 1.38
84 0.7
97 4.2
98 0.7
125 99.99
126 8.2
139 1.5
140 17
141 1.7

$$$$

     RDKit          2D

  9  9  0  0  0  0  0  0  0  0999 V2000
    2.9533    2.3164    0.0000 C   0  0  0  0  0  0  0  0  0  0  0  0
    3.7499   -0.1565    0.0000 C   0  0  0  0  0  0  0  0  0  0  0  0
    1.6322   -2.2431    0.0000 C   0  0  0  0  0  0  0  0  0  0  0  0
   -0.7500   -1.0300    0.0000 C   0  0  0  0  0  0  0  0  0  0  0  0
   -1.2100    0.3900    0.0000 C   0  0  0  0  0  0  0  0  0  0  0  0
    2.6377    0.8500    0.0000 C   0  0  0  0  0  0  0  0  0  0  0  0
    0.7500   -1.0300    0.0000 C   0  0  0  0  0  0  0  0  0  0  0  0
    0.0000    1.2800    0.0000 N   0  0  0  0  0  0  0  0  0  0  0  0
    1.2100    0.3900    0.0000 N   0  0  0  0  0  0  0  0  0  0  0  0
  5  4  1  0
  6  1  1  0
  6  2  1  0
  7  3  1  0
  7  4  1  0
  8  5  2  0
  9  6  1  0
  9  7  1  0
  9  8  1  0
M  END
>  <NAME>  (7162) 
1-ISOPROPYL-5-METHYL-2-PYRAZOLINE

>  <SYNONYMS>  (7162) 


>  <SPECTRUM TYPE>  (7162) 
MS1

>  <INSTRUMENT TYPE>  (7162) 
EI-B

>  <INSTRUMENT>  (7162) 
SHIMADZU LKB-2091

>  <ION MODE>  (7162) 
P

>  <INCHIKEY>  (7162) 
DUOUFHCFRWDSBE-UHFFFAOYSA-N

>  <FORMULA>  (7162) 
C7H14N2

>  <EXACT MASS>  (7162) 
126.115698448

>  <MW>  (7162) 
126

>  <ID>  (7162) 
JP000405

>  <CONTRIBUTOR>  (7162) 
University of Tokyo Team, {Faculty of Engineering, University of Tokyo

>  <COMMENT>  (7162) 
SMILES=[H]C(C1)=NN(C(C)C)C(C)1
InChI=InChI=1S/C7H14N2/c1-6(2)9-7(3)4-5-8-9/h5-7H,4H2,1-3H3
computed SMILES=N1=CCC(N1C(C)C)C
accession=JP000405
date=2016.01.19 (Created 2008.10.21, modified 2011.05.06)
author=SASAKI S, TOYOHASHI UNIV. OF TECH.
license=CC BY-NC-SA
exact mass=126.1157
ionization energy=70 eV
ion type=[M]+*
computed spectral entropy=1.9796103054166516
computed normalized entropy=0.5764757372511679
SPLASH=splash10-03xr-9700000000-5c900b061cd44e4bc951
submitter=submitter = University of Tokyo Team (Faculty of Engineering, University of Tokyo)
MoNA Rating=3.75

>  <NUM PEAKS>  (7162) 
31

>  <MASS SPECTRAL PEAKS>  (7162) 
26 0.8
27 8.3
29 2.3
30 0.09
38 0.4
39 5.3
40 1.5
41 1.04
42 31.9
43 6.8
44 6.6
52 0.04
53 0.7
54 1.7
55 1.1
56 0.26
57 0.4
58 0.5
67 0.5
68 0.34
69 76.6
70 4.2
81 0.5
82 0.08
83 3.6
84 0.9
111 99.99
112 0.55
125 0.9
126 26.6
127 2.1

$$$$

     RDKit          2D

 10  9  0  0  0  0  0  0  0  0999 V2000
   -6.4952    4.5000    0.0000 C   0  0  0  0  0  0  0  0  0  0  0  0
    2.5981    3.7500    0.0000 C   0  0  0  0  0  0  0  0  0  0  0  0
   -3.8971    6.0000    0.0000 C   0  0  0  0  0  0  0  0  0  0  0  0
   -0.0000    2.2500    0.0000 C   0  0  0  0  0  0  0  0  0  0  0  0
   -5.1962    3.7500    0.0000 C   0  0  0  0  0  0  0  0  0  0  0  0
    1.2990    4.5000    0.0000 C   0  0  0  0  0  0  0  0  0  0  0  0
   -3.8971    4.5000    0.0000 C   0  0  0  0  0  0  0  0  0  0  0  0
    0.0000    3.7500    0.0000 C   0  0  0  0  0  0  0  0  0  0  0  0
   -2.5981    3.7500    0.0000 N   0  0  0  0  0  0  0  0  0  0  0  0
   -1.2990    4.5000    0.0000 N   0  0  0  0  0  0  0  0  0  0  0  0
  5  1  1  0
  6  2  1  0
  7  3  1  0
  7  5  1  0
  8  4  1  0
  8  6  1  0
  9  7  1  0
 10  8  1  0
 10  9  1  0
M  END
>  <NAME>  (7163) 
1,2-DI-SEC-BUTYLHYDRAZINE

>  <SYNONYMS>  (7163) 


>  <SPECTRUM TYPE>  (7163) 
MS1

>  <INSTRUMENT TYPE>  (7163) 
EI-B

>  <INSTRUMENT>  (7163) 
SHIMADZU LKB-2091

>  <ION MODE>  (7163) 
P

>  <INCHIKEY>  (7163) 
GTTATNIRHPAPPY-UHFFFAOYSA-N

>  <FORMULA>  (7163) 
C8H20N2

>  <EXACT MASS>  (7163) 
144.16264864

>  <MW>  (7163) 
144

>  <ID>  (7163) 
JP000404

>  <CONTRIBUTOR>  (7163) 
University of Tokyo Team, {Faculty of Engineering, University of Tokyo

>  <COMMENT>  (7163) 
SMILES=CCC(C)NNC(C)CC
InChI=InChI=1S/C8H20N2/c1-5-7(3)9-10-8(4)6-2/h7-10H,5-6H2,1-4H3
computed SMILES=N(NC(C)CC)C(C)CC
accession=JP000404
date=2016.01.19 (Created 2008.10.21, modified 2011.05.06)
author=SASAKI S, TOYOHASHI UNIV. OF TECH.
license=CC BY-NC-SA
exact mass=144.16265
ionization energy=70 eV
ion type=[M]+*
computed spectral entropy=2.6797423194206815
computed normalized entropy=0.8041950340196207
SPLASH=splash10-05mo-9300000000-29fda2cf86c772df6d58
submitter=submitter = University of Tokyo Team (Faculty of Engineering, University of Tokyo)
MoNA Rating=3.75

>  <NUM PEAKS>  (7163) 
28

>  <MASS SPECTRAL PEAKS>  (7163) 
27 15.7
29 39.5
30 12.4
31 3.43
39 7.4
41 31
42 22
43 0.85
44 53.7
45 3.2
55 18.8
56 0.84
57 54.4
58 8
59 52.1
70 0.77
72 46.6
73 6.6
85 2.8
87 1.63
88 1.1
99 0.7
115 99.99
116 1.01
129 13.4
130 1.1
144 43.2
145 6.5

$$$$

     RDKit          2D

 10  9  0  0  0  0  0  0  0  0999 V2000
   -8.4437    5.6250    0.0000 C   0  0  0  0  0  0  0  0  0  0  0  0
    3.2476    4.8750    0.0000 C   0  0  0  0  0  0  0  0  0  0  0  0
   -7.1447    4.8750    0.0000 C   0  0  0  0  0  0  0  0  0  0  0  0
    1.9486    5.6250    0.0000 C   0  0  0  0  0  0  0  0  0  0  0  0
   -5.8457    5.6250    0.0000 C   0  0  0  0  0  0  0  0  0  0  0  0
    0.6495    4.8750    0.0000 C   0  0  0  0  0  0  0  0  0  0  0  0
   -4.5466    4.8750    0.0000 C   0  0  0  0  0  0  0  0  0  0  0  0
   -0.6495    5.6250    0.0000 C   0  0  0  0  0  0  0  0  0  0  0  0
   -3.2476    5.6250    0.0000 N   0  0  0  0  0  0  0  0  0  0  0  0
   -1.9486    4.8750    0.0000 N   0  0  0  0  0  0  0  0  0  0  0  0
  3  1  1  0
  4  2  1  0
  5  3  1  0
  6  4  1  0
  7  5  1  0
  8  6  1  0
  9  7  1  0
 10  8  1  0
 10  9  1  0
M  END
>  <NAME>  (7164) 
1,2-DIBUTYLHYDRAZINE

>  <SYNONYMS>  (7164) 


>  <SPECTRUM TYPE>  (7164) 
MS1

>  <INSTRUMENT TYPE>  (7164) 
EI-B

>  <INSTRUMENT>  (7164) 
SHIMADZU LKB-2091

>  <ION MODE>  (7164) 
P

>  <INCHIKEY>  (7164) 
FEBRIAPYLGMZSR-UHFFFAOYSA-N

>  <FORMULA>  (7164) 
C8H20N2

>  <EXACT MASS>  (7164) 
144.16264864

>  <MW>  (7164) 
144

>  <ID>  (7164) 
JP000403

>  <CONTRIBUTOR>  (7164) 
University of Tokyo Team, {Faculty of Engineering, University of Tokyo

>  <COMMENT>  (7164) 
SMILES=CCCCNNCCCC
InChI=InChI=1S/C8H20N2/c1-3-5-7-9-10-8-6-4-2/h9-10H,3-8H2,1-2H3
computed SMILES=N(NCCCC)CCCC
accession=JP000403
date=2016.01.19 (Created 2008.10.21, modified 2011.05.06)
author=SASAKI S, TOYOHASHI UNIV. OF TECH.
license=CC BY-NC-SA
exact mass=144.16265
ionization energy=70 eV
ion type=[M]+*
computed spectral entropy=2.435651354870325
computed normalized entropy=0.716115850259778
SPLASH=splash10-0udi-7900000000-769099c4151bdcff90a5
submitter=submitter = University of Tokyo Team (Faculty of Engineering, University of Tokyo)
MoNA Rating=3.75

>  <NUM PEAKS>  (7164) 
30

>  <MASS SPECTRAL PEAKS>  (7164) 
27 8.7
28 16.7
29 17.9
30 3.75
31 4.6
32 5.8
39 3.8
41 1.54
42 2.9
43 12.4
44 4.6
45 4.16
46 0.9
55 2.4
56 1.8
57 1.16
58 1.5
59 2.9
70 5
71 0.19
72 3.1
87 3.3
99 8.3
101 99.99
102 7.5
113 1.1
115 0.7
142 0.13
144 31.6
145 3.8

$$$$

     RDKit          2D

  8  7  0  0  0  0  0  0  0  0999 V2000
   -6.4952    4.5000    0.0000 C   0  0  0  0  0  0  0  0  0  0  0  0
    2.5981    3.7500    0.0000 C   0  0  0  0  0  0  0  0  0  0  0  0
   -5.1962    3.7500    0.0000 C   0  0  0  0  0  0  0  0  0  0  0  0
    1.2990    4.5000    0.0000 C   0  0  0  0  0  0  0  0  0  0  0  0
   -3.8971    4.5000    0.0000 C   0  0  0  0  0  0  0  0  0  0  0  0
   -2.5981    3.7500    0.0000 C   0  0  0  0  0  0  0  0  0  0  0  0
    0.0000    3.7500    0.0000 N   0  0  0  0  0  0  0  0  0  0  0  0
   -1.2990    4.5000    0.0000 N   0  0  0  0  0  0  0  0  0  0  0  0
  3  1  1  0
  4  2  1  0
  5  3  1  0
  6  5  1  0
  7  4  1  0
  8  6  1  0
  8  7  1  0
M  END
>  <NAME>  (7165) 
1-BUTYL-2-ETHYLHYDRAZINE

>  <SYNONYMS>  (7165) 


>  <SPECTRUM TYPE>  (7165) 
MS1

>  <INSTRUMENT TYPE>  (7165) 
EI-B

>  <INSTRUMENT>  (7165) 
SHIMADZU LKB-2091

>  <ION MODE>  (7165) 
P

>  <INCHIKEY>  (7165) 
ALNDIBLAORBEAX-UHFFFAOYSA-N

>  <FORMULA>  (7165) 
C6H16N2

>  <EXACT MASS>  (7165) 
116.131348512

>  <MW>  (7165) 
116

>  <ID>  (7165) 
JP000402

>  <CONTRIBUTOR>  (7165) 
University of Tokyo Team, {Faculty of Engineering, University of Tokyo

>  <COMMENT>  (7165) 
SMILES=CCCCNNCC
InChI=InChI=1S/C6H16N2/c1-3-5-6-8-7-4-2/h7-8H,3-6H2,1-2H3
computed SMILES=N(NCCCC)CC
accession=JP000402
date=2016.01.19 (Created 2008.10.21, modified 2011.05.06)
author=SASAKI S, TOYOHASHI UNIV. OF TECH.
license=CC BY-NC-SA
exact mass=116.13135
ionization energy=70 eV
ion type=[M]+*
computed spectral entropy=2.620232767817821
computed normalized entropy=0.7560393640211066
SPLASH=splash10-00di-9100000000-17e23cd4ce6c2426baeb
submitter=submitter = University of Tokyo Team (Faculty of Engineering, University of Tokyo)
MoNA Rating=3.75

>  <NUM PEAKS>  (7165) 
32

>  <MASS SPECTRAL PEAKS>  (7165) 
27 11.5
28 8.7
29 19.2
30 3.27
31 21.1
32 4.2
39 3.8
40 0.1
41 12.9
42 7.7
43 8.3
44 2.69
45 30.7
46 1.3
55 1.6
56 0.19
57 8.3
58 2.5
59 26.9
60 0.19
70 1.7
71 11.5
72 1.9
73 99.99
74 4.8
87 1.5
99 1.3
101 0.9
114 3
115 1.5
116 46.1
117 6.1

$$$$

     RDKit          2D

  8  7  0  0  0  0  0  0  0  0999 V2000
    0.0000    0.0000    0.0000 C   0  0  0  0  0  0  0  0  0  0  0  0
    1.2990    2.2500    0.0000 C   0  0  0  0  0  0  0  0  0  0  0  0
   -2.5981    6.0000    0.0000 C   0  0  0  0  0  0  0  0  0  0  0  0
   -3.8971    3.7500    0.0000 C   0  0  0  0  0  0  0  0  0  0  0  0
    0.0000    1.5000    0.0000 C   0  0  0  0  0  0  0  0  0  0  0  0
   -2.5981    4.5000    0.0000 C   0  0  0  0  0  0  0  0  0  0  0  0
   -1.2990    2.2500    0.0000 N   0  0  0  0  0  0  0  0  0  0  0  0
   -1.2990    3.7500    0.0000 N   0  0  0  0  0  0  0  0  0  0  0  0
  5  1  1  0
  5  2  1  0
  6  3  1  0
  6  4  1  0
  7  5  1  0
  8  6  1  0
  8  7  1  0
M  END
>  <NAME>  (7166) 
1,2-DIISOPROPYLHYDRAZINE

>  <SYNONYMS>  (7166) 


>  <SPECTRUM TYPE>  (7166) 
MS1

>  <INSTRUMENT TYPE>  (7166) 
EI-B

>  <INSTRUMENT>  (7166) 
SHIMADZU LKB-2091

>  <ION MODE>  (7166) 
P

>  <INCHIKEY>  (7166) 
QWLQTDXXEZQUBB-UHFFFAOYSA-N

>  <FORMULA>  (7166) 
C6H16N2

>  <EXACT MASS>  (7166) 
116.131348512

>  <MW>  (7166) 
116

>  <ID>  (7166) 
JP000401

>  <CONTRIBUTOR>  (7166) 
University of Tokyo Team, {Faculty of Engineering, University of Tokyo

>  <COMMENT>  (7166) 
SMILES=CC(C)NNC(C)C
InChI=InChI=1S/C6H16N2/c1-5(2)7-8-6(3)4/h5-8H,1-4H3
computed SMILES=N(NC(C)C)C(C)C
accession=JP000401
date=2016.01.19 (Created 2008.10.21, modified 2011.05.06)
author=SASAKI S, TOYOHASHI UNIV. OF TECH.
license=CC BY-NC-SA
exact mass=116.13135
ionization energy=70 eV
ion type=[M]+*
computed spectral entropy=2.463978979502246
computed normalized entropy=0.73944410433941
SPLASH=splash10-00l6-9200000000-ad76408317fa59e1f2ac
submitter=submitter = University of Tokyo Team (Faculty of Engineering, University of Tokyo)
MoNA Rating=3.75

>  <NUM PEAKS>  (7166) 
28

>  <MASS SPECTRAL PEAKS>  (7166) 
27 17.5
28 5.6
29 4.6
30 1.46
31 99.99
32 10.7
39 7.3
40 0.19
41 25.2
42 17.9
43 76.4
44 2.26
45 1.3
56 9.3
57 3.5
58 4.68
59 44.4
60 1.8
72 1.2
73 5.13
74 3.8
85 1.2
99 1.1
101 6.4
102 4.8
115 1.4
116 64
117 7.5

$$$$

     RDKit          2D

  8  7  0  0  0  0  0  0  0  0999 V2000
    1.9486    3.3750    0.0000 C   0  0  0  0  0  0  0  0  0  0  0  0
   -5.8457    3.3750    0.0000 C   0  0  0  0  0  0  0  0  0  0  0  0
   -4.5466    5.6250    0.0000 C   0  0  0  0  0  0  0  0  0  0  0  0
    0.6495    4.1250    0.0000 C   0  0  0  0  0  0  0  0  0  0  0  0
   -0.6495    3.3750    0.0000 C   0  0  0  0  0  0  0  0  0  0  0  0
   -4.5466    4.1250    0.0000 C   0  0  0  0  0  0  0  0  0  0  0  0
   -1.9486    4.1250    0.0000 N   0  0  0  0  0  0  0  0  0  0  0  0
   -3.2476    3.3750    0.0000 N   0  0  0  0  0  0  0  0  0  0  0  0
  4  1  1  0
  5  4  1  0
  6  2  1  0
  6  3  1  0
  7  5  1  0
  8  6  1  0
  8  7  1  0
M  END
>  <NAME>  (7167) 
1-ISOPROPYL-2-PROPYLHYDRAZINE

>  <SYNONYMS>  (7167) 


>  <SPECTRUM TYPE>  (7167) 
MS1

>  <INSTRUMENT TYPE>  (7167) 
EI-B

>  <INSTRUMENT>  (7167) 
SHIMADZU LKB-2091

>  <ION MODE>  (7167) 
P

>  <INCHIKEY>  (7167) 
PNBRACSSFLTMRS-UHFFFAOYSA-N

>  <FORMULA>  (7167) 
C6H16N2

>  <EXACT MASS>  (7167) 
116.131348512

>  <MW>  (7167) 
116

>  <ID>  (7167) 
JP000400

>  <CONTRIBUTOR>  (7167) 
University of Tokyo Team, {Faculty of Engineering, University of Tokyo

>  <COMMENT>  (7167) 
SMILES=CCCNNC(C)C
InChI=InChI=1S/C6H16N2/c1-4-5-7-8-6(2)3/h6-8H,4-5H2,1-3H3
computed SMILES=N(NC(C)C)CCC
accession=JP000400
date=2016.01.19 (Created 2008.10.21, modified 2011.05.06)
author=SASAKI S, TOYOHASHI UNIV. OF TECH.
license=CC BY-NC-SA
exact mass=116.13135
ionization energy=70 eV
ion type=[M]+*
computed spectral entropy=2.8031363961034996
computed normalized entropy=0.7884281222607511
SPLASH=splash10-0fsm-9200000000-16eab0c06d2005de4053
submitter=submitter = University of Tokyo Team (Faculty of Engineering, University of Tokyo)
MoNA Rating=3.75

>  <NUM PEAKS>  (7167) 
35

>  <MASS SPECTRAL PEAKS>  (7167) 
26 2.4
27 29.7
28 21.6
29 1.19
30 43.2
31 62.1
32 9.2
39 1.1
40 3
41 40.5
42 20.3
43 7.3
44 29.7
45 99.99
46 4
54 0.25
55 1
56 10.3
57 5.4
58 5.95
59 11.9
60 1.4
71 3.6
72 0.38
73 43.3
74 4.3
85 1
87 6.77
88 4.6
99 2
101 62.1
102 0.46
115 1.5
116 75.9
117 8.9

$$$$

     RDKit          2D

  8  7  0  0  0  0  0  0  0  0999 V2000
   -6.4952    4.5000    0.0000 C   0  0  0  0  0  0  0  0  0  0  0  0
    2.5981    3.7500    0.0000 C   0  0  0  0  0  0  0  0  0  0  0  0
   -5.1962    3.7500    0.0000 C   0  0  0  0  0  0  0  0  0  0  0  0
    1.2990    4.5000    0.0000 C   0  0  0  0  0  0  0  0  0  0  0  0
   -3.8971    4.5000    0.0000 C   0  0  0  0  0  0  0  0  0  0  0  0
    0.0000    3.7500    0.0000 C   0  0  0  0  0  0  0  0  0  0  0  0
   -2.5981    3.7500    0.0000 N   0  0  0  0  0  0  0  0  0  0  0  0
   -1.2990    4.5000    0.0000 N   0  0  0  0  0  0  0  0  0  0  0  0
  3  1  1  0
  4  2  1  0
  5  3  1  0
  6  4  1  0
  7  5  1  0
  8  6  1  0
  8  7  1  0
M  END
>  <NAME>  (7168) 
1,2-DIPROPYLHYDRAZINE

>  <SYNONYMS>  (7168) 


>  <SPECTRUM TYPE>  (7168) 
MS1

>  <INSTRUMENT TYPE>  (7168) 
EI-B

>  <INSTRUMENT>  (7168) 
SHIMADZU LKB-2091

>  <ION MODE>  (7168) 
P

>  <INCHIKEY>  (7168) 
BOOQVRGRSDTZRZ-UHFFFAOYSA-N

>  <FORMULA>  (7168) 
C6H16N2

>  <EXACT MASS>  (7168) 
116.13134851199999

>  <MW>  (7168) 
116

>  <ID>  (7168) 
JP000399

>  <CONTRIBUTOR>  (7168) 
University of Tokyo Team, {Faculty of Engineering, University of Tokyo

>  <COMMENT>  (7168) 
SMILES=CCCNNCCC
InChI=InChI=1S/C6H16N2/c1-3-5-7-8-6-4-2/h7-8H,3-6H2,1-2H3
computed SMILES=N(NCCC)CCC
accession=JP000399
date=2016.01.19 (Created 2008.10.21, modified 2011.05.06)
author=SASAKI S, TOYOHASHI UNIV. OF TECH.
license=CC BY-NC-SA
exact mass=116.13135
ionization energy=70 eV
ion type=[M]+*
computed spectral entropy=2.3377665588728394
computed normalized entropy=0.7175252579509126
SPLASH=splash10-000i-9100000000-19615bab35104a8865db
submitter=submitter = University of Tokyo Team (Faculty of Engineering, University of Tokyo)
MoNA Rating=3.75

>  <NUM PEAKS>  (7168) 
26

>  <MASS SPECTRAL PEAKS>  (7168) 
26 1.1
27 12.7
28 14.4
29 0.82
30 3.4
31 13.6
32 12.5
39 0.37
41 18.2
42 3.5
43 28.1
44 0.44
45 39.7
46 0.7
54 1.4
56 0.72
57 5.2
58 10.7
59 1.9
73 1.18
74 0.7
85 1.4
87 99.99
88 0.56
116 46.3
117 5.8

$$$$

     RDKit          2D

  6  5  0  0  0  0  0  0  0  0999 V2000
   -4.5466    3.3750    0.0000 C   0  0  0  0  0  0  0  0  0  0  0  0
    1.9486    2.6250    0.0000 C   0  0  0  0  0  0  0  0  0  0  0  0
   -3.2476    2.6250    0.0000 C   0  0  0  0  0  0  0  0  0  0  0  0
    0.6495    3.3750    0.0000 C   0  0  0  0  0  0  0  0  0  0  0  0
   -1.9486    3.3750    0.0000 N   0  0  0  0  0  0  0  0  0  0  0  0
   -0.6495    2.6250    0.0000 N   0  0  0  0  0  0  0  0  0  0  0  0
  3  1  1  0
  4  2  1  0
  5  3  1  0
  6  4  1  0
  6  5  1  0
M  END
>  <NAME>  (7169) 
1,2-DIETHYLHYDRAZINE

>  <SYNONYMS>  (7169) 


>  <SPECTRUM TYPE>  (7169) 
MS1

>  <INSTRUMENT TYPE>  (7169) 
EI-B

>  <INSTRUMENT>  (7169) 
SHIMADZU LKB-2091

>  <ION MODE>  (7169) 
P

>  <INCHIKEY>  (7169) 
YCBOYOYVDOUXLH-UHFFFAOYSA-N

>  <FORMULA>  (7169) 
C4H12N2

>  <EXACT MASS>  (7169) 
88.100048384

>  <MW>  (7169) 
88

>  <ID>  (7169) 
JP000398

>  <CONTRIBUTOR>  (7169) 
University of Tokyo Team, {Faculty of Engineering, University of Tokyo

>  <COMMENT>  (7169) 
SMILES=CCNNCC
InChI=InChI=1S/C4H12N2/c1-3-5-6-4-2/h5-6H,3-4H2,1-2H3
computed SMILES=N(NCC)CC
accession=JP000398
date=2016.01.19 (Created 2008.10.21, modified 2011.05.06)
author=SASAKI S, TOYOHASHI UNIV. OF TECH.
license=CC BY-NC-SA
exact mass=88.10005
ionization energy=70 eV
ion type=[M]+*
computed spectral entropy=2.259275099820527
computed normalized entropy=0.7018832731495739
SPLASH=splash10-0560-9000000000-578034c8cfa4cd4ff409
submitter=submitter = University of Tokyo Team (Faculty of Engineering, University of Tokyo)
MoNA Rating=3.75

>  <NUM PEAKS>  (7169) 
25

>  <MASS SPECTRAL PEAKS>  (7169) 
27 12.1
28 19
29 34.2
30 3.45
31 99.99
32 4.6
39 0.8
40 0.26
41 4.9
42 12.3
43 6.8
44 3.89
45 12.8
56 0.9
57 2.4
58 0.29
59 70.4
60 2.3
71 3.6
73 3.44
74 1.5
86 1.6
87 1.8
88 6.66
89 6.4

$$$$

     RDKit          2D

 10 10  0  0  0  0  0  0  0  0999 V2000
   -3.5724    2.0075    0.0000 C   0  0  0  0  0  0  0  0  0  0  0  0
   -2.2733    1.2575    0.0000 C   0  0  0  0  0  0  0  0  0  0  0  0
    2.9228   -0.2425    0.0000 C   0  0  0  0  0  0  0  0  0  0  0  0
    1.6233   -0.9933    0.0000 C   0  0  0  0  0  0  0  0  0  0  0  0
    2.9233    1.2583    0.0000 C   0  0  0  0  0  0  0  0  0  0  0  0
    0.3243   -0.2433    0.0000 C   0  0  0  0  0  0  0  0  0  0  0  0
    1.6243    2.0083    0.0000 C   0  0  0  0  0  0  0  0  0  0  0  0
    0.3248    1.2575    0.0000 C   0  0  0  0  0  0  0  0  0  0  0  0
   -0.9743    3.5075    0.0000 N   0  0  0  0  0  0  0  0  0  0  0  0
   -0.9743    2.0075    0.0000 N   0  0  0  0  0  0  0  0  0  0  0  0
  2  1  1  0
  4  3  2  0
  5  3  1  0
  6  4  1  0
  7  5  2  0
  8  6  2  0
  8  7  1  0
 10  2  1  0
 10  8  1  0
 10  9  1  0
M  END
>  <NAME>  (7170) 
1-ETHYL-1-PHENYLHYDRAZINE

>  <SYNONYMS>  (7170) 


>  <SPECTRUM TYPE>  (7170) 
MS1

>  <INSTRUMENT TYPE>  (7170) 
EI-B

>  <INSTRUMENT>  (7170) 
SHIMADZU LKB-2091

>  <ION MODE>  (7170) 
P

>  <INCHIKEY>  (7170) 
NQSIARGGPGHMCG-UHFFFAOYSA-N

>  <FORMULA>  (7170) 
C8H12N2

>  <EXACT MASS>  (7170) 
136.100048384

>  <MW>  (7170) 
136

>  <ID>  (7170) 
JP000397

>  <CONTRIBUTOR>  (7170) 
University of Tokyo Team, {Faculty of Engineering, University of Tokyo

>  <COMMENT>  (7170) 
SMILES=CCN(N)c(c1)cccc1
InChI=InChI=1S/C8H12N2/c1-2-10(9)8-6-4-3-5-7-8/h3-7H,2,9H2,1H3
computed SMILES=NN(C=1C=CC=CC1)CC
accession=JP000397
date=2016.01.19 (Created 2008.10.21, modified 2011.05.06)
author=SASAKI S, TOYOHASHI UNIV. OF TECH.
license=CC BY-NC-SA
exact mass=136.10005
ionization energy=70 eV
ion type=[M]+*
computed spectral entropy=2.70574667975203
computed normalized entropy=0.7239127467330089
SPLASH=splash10-05i9-5900000000-276421721459c08c7c0c
submitter=submitter = University of Tokyo Team (Faculty of Engineering, University of Tokyo)
MoNA Rating=3.75

>  <NUM PEAKS>  (7170) 
42

>  <MASS SPECTRAL PEAKS>  (7170) 
27 6.8
29 9.2
30 1.6
38 0.23
39 7.6
40 1.2
41 1.7
42 0.2
43 11.4
44 1.6
50 5.6
51 0.96
52 5.6
53 5.2
63 3.6
64 0.38
65 6.8
66 1.6
74 1.6
75 0.16
76 1.6
77 68
78 10.8
79 1.32
80 1.5
91 12.8
92 7.2
93 0.6
94 4.4
104 17.4
105 19.2
106 3.4
107 38
108 3.6
118 3.6
119 0.32
120 3.6
121 99.99
122 9.2
135 0.21
136 90
137 9.6

$$$$

     RDKit          2D

  9  9  0  0  0  0  0  0  0  0999 V2000
   -2.9228    0.8825    0.0000 C   0  0  0  0  0  0  0  0  0  0  0  0
    2.2733   -0.6175    0.0000 C   0  0  0  0  0  0  0  0  0  0  0  0
    0.9738   -1.3683    0.0000 C   0  0  0  0  0  0  0  0  0  0  0  0
    2.2738    0.8833    0.0000 C   0  0  0  0  0  0  0  0  0  0  0  0
   -0.3252   -0.6183    0.0000 C   0  0  0  0  0  0  0  0  0  0  0  0
    0.9748    1.6333    0.0000 C   0  0  0  0  0  0  0  0  0  0  0  0
   -0.3248    0.8825    0.0000 C   0  0  0  0  0  0  0  0  0  0  0  0
   -1.6238    3.1325    0.0000 N   0  0  0  0  0  0  0  0  0  0  0  0
   -1.6238    1.6325    0.0000 N   0  0  0  0  0  0  0  0  0  0  0  0
  3  2  2  0
  4  2  1  0
  5  3  1  0
  6  4  2  0
  7  5  2  0
  7  6  1  0
  9  1  1  0
  9  7  1  0
  9  8  1  0
M  END
>  <NAME>  (7171) 
1-METHYL-1-PHENYLHYDRAZINE

>  <SYNONYMS>  (7171) 


>  <SPECTRUM TYPE>  (7171) 
MS1

>  <INSTRUMENT TYPE>  (7171) 
EI-B

>  <INSTRUMENT>  (7171) 
SHIMADZU LKB-2091

>  <ION MODE>  (7171) 
P

>  <INCHIKEY>  (7171) 
MWOODERJGVWYJE-UHFFFAOYSA-N

>  <FORMULA>  (7171) 
C7H10N2

>  <EXACT MASS>  (7171) 
122.08439831999999

>  <MW>  (7171) 
122

>  <ID>  (7171) 
JP000396

>  <CONTRIBUTOR>  (7171) 
University of Tokyo Team, {Faculty of Engineering, University of Tokyo

>  <COMMENT>  (7171) 
SMILES=CN(N)c(c1)cccc1
InChI=InChI=1S/C7H10N2/c1-9(8)7-5-3-2-4-6-7/h2-6H,8H2,1H3
computed SMILES=NN(C=1C=CC=CC1)C
accession=JP000396
date=2016.01.19 (Created 2008.10.21, modified 2011.05.06)
author=SASAKI S, TOYOHASHI UNIV. OF TECH.
license=CC BY-NC-SA
exact mass=122.0844
ionization energy=70 eV
ion type=[M]+*
computed spectral entropy=2.729994064184347
computed normalized entropy=0.7090621832191081
SPLASH=splash10-00fr-9700000000-233135365d56a6ec034c
submitter=submitter = University of Tokyo Team (Faculty of Engineering, University of Tokyo)
MoNA Rating=3.75

>  <NUM PEAKS>  (7171) 
47

>  <MASS SPECTRAL PEAKS>  (7171) 
27 4.2
29 13.2
30 2.1
31 0.12
37 1.2
38 3.3
39 9.8
40 0.09
41 1
42 1.2
43 5.6
44 0.1
45 2.8
50 7.9
51 21
52 0.65
52.5 1
53 3.5
53.5 1.2
54 0.08
61 5.1
62 1.2
63 5.4
64 0.33
65 6.1
66 1.6
73 1.2
74 0.23
75 2.3
76 1.9
77 67.5
78 1.3
79 16.5
80 2
90 0.9
91 0.37
92 5.8
93 5.6
94 2.1
104 0.98
105 9.8
106 7.4
107 46.5
108 0.42
121 8.8
122 99.99
123 10

$$$$

     RDKit          2D

 10  9  0  0  0  0  0  0  0  0999 V2000
    2.5981    4.5000    0.0000 C   0  0  0  0  0  0  0  0  0  0  0  0
   -7.7942    4.5000    0.0000 C   0  0  0  0  0  0  0  0  0  0  0  0
    1.2990    5.2500    0.0000 C   0  0  0  0  0  0  0  0  0  0  0  0
   -6.4952    5.2500    0.0000 C   0  0  0  0  0  0  0  0  0  0  0  0
    0.0000    4.5000    0.0000 C   0  0  0  0  0  0  0  0  0  0  0  0
   -5.1962    4.5000    0.0000 C   0  0  0  0  0  0  0  0  0  0  0  0
   -1.2990    5.2500    0.0000 C   0  0  0  0  0  0  0  0  0  0  0  0
   -3.8971    5.2500    0.0000 C   0  0  0  0  0  0  0  0  0  0  0  0
   -2.5981    3.0000    0.0000 N   0  0  0  0  0  0  0  0  0  0  0  0
   -2.5981    4.5000    0.0000 N   0  0  0  0  0  0  0  0  0  0  0  0
  3  1  1  0
  4  2  1  0
  3  5  2  0
  4  6  2  0
  7  5  1  0
  8  6  1  0
 10  7  1  0
 10  8  1  0
 10  9  1  0
M  END
>  <NAME>  (7172) 
1,1-DICROTYLHYDRAZINE

>  <SYNONYMS>  (7172) 
1,1-DI(2-BUTENYL)HYDRAZINE

>  <SPECTRUM TYPE>  (7172) 
MS1

>  <INSTRUMENT TYPE>  (7172) 
EI-B

>  <INSTRUMENT>  (7172) 
SHIMADZU LKB-2091

>  <ION MODE>  (7172) 
P

>  <INCHIKEY>  (7172) 
HCVMGJBOKUBGRJ-GGWOSOGESA-N

>  <FORMULA>  (7172) 
C8H16N2

>  <EXACT MASS>  (7172) 
140.131348512

>  <MW>  (7172) 
140

>  <ID>  (7172) 
JP000395

>  <CONTRIBUTOR>  (7172) 
University of Tokyo Team, {Faculty of Engineering, University of Tokyo

>  <COMMENT>  (7172) 
SMILES=CC=CCN(N)CC=CC
InChI=InChI=1S/C8H16N2/c1-3-5-7-10(9)8-6-4-2/h3-6H,7-9H2,1-2H3/b5-3+,6-4+
computed SMILES=NN(CC=CC)CC=CC
accession=JP000395
date=2016.01.19 (Created 2008.10.21, modified 2011.05.06)
author=SASAKI S, TOYOHASHI UNIV. OF TECH.
license=CC BY-NC-SA
exact mass=140.13135
ionization energy=70 eV
ion type=[M]+*
computed spectral entropy=2.7253562152538526
computed normalized entropy=0.7338907570124338
SPLASH=splash10-0553-9000000000-23488172df96c7f9800e
submitter=submitter = University of Tokyo Team (Faculty of Engineering, University of Tokyo)
MoNA Rating=3.75

>  <NUM PEAKS>  (7172) 
41

>  <MASS SPECTRAL PEAKS>  (7172) 
28 15.7
29 54
30 8.8
31 0.62
32 4.2
38 1.1
39 23.2
40 0.24
41 62.1
42 19.4
43 33.8
44 3.25
45 16.8
50 1.1
51 2.4
52 0.15
53 9.5
54 4.3
55 81.1
56 1.49
57 3.4
58 8.8
59 0.8
67 0.32
68 43.2
69 10.2
70 2.3
71 0.25
80 0.8
81 0.8
82 1
83 0.34
84 2.3
85 99.99
86 10.5
97 0.08
99 1.9
108 0.8
125 2.3
140 4.6
141 6.5

$$$$

     RDKit          2D

  8  7  0  0  0  0  0  0  0  0999 V2000
    1.9486    3.3750    0.0000 C   0  0  0  0  0  0  0  0  0  0  0  0
   -5.8457    3.3750    0.0000 C   0  0  0  0  0  0  0  0  0  0  0  0
    0.6495    4.1250    0.0000 C   0  0  0  0  0  0  0  0  0  0  0  0
   -4.5466    4.1250    0.0000 C   0  0  0  0  0  0  0  0  0  0  0  0
   -0.6495    3.3750    0.0000 C   0  0  0  0  0  0  0  0  0  0  0  0
   -3.2476    3.3750    0.0000 C   0  0  0  0  0  0  0  0  0  0  0  0
   -1.9486    5.6250    0.0000 N   0  0  0  0  0  0  0  0  0  0  0  0
   -1.9486    4.1250    0.0000 N   0  0  0  0  0  0  0  0  0  0  0  0
  3  1  2  0
  4  2  2  0
  5  3  1  0
  6  4  1  0
  8  5  1  0
  8  6  1  0
  8  7  1  0
M  END
>  <NAME>  (7173) 
1,1-DIALLYLHYDRAZINE

>  <SYNONYMS>  (7173) 


>  <SPECTRUM TYPE>  (7173) 
MS1

>  <INSTRUMENT TYPE>  (7173) 
EI-B

>  <INSTRUMENT>  (7173) 
SHIMADZU LKB-2091

>  <ION MODE>  (7173) 
P

>  <INCHIKEY>  (7173) 
UPVLRUMEBXYJMQ-UHFFFAOYSA-N

>  <FORMULA>  (7173) 
C6H12N2

>  <EXACT MASS>  (7173) 
112.10004838399999

>  <MW>  (7173) 
112

>  <ID>  (7173) 
JP000394

>  <CONTRIBUTOR>  (7173) 
University of Tokyo Team, {Faculty of Engineering, University of Tokyo

>  <COMMENT>  (7173) 
SMILES=C=CCN(N)CC=C
InChI=InChI=1S/C6H12N2/c1-3-5-8(7)6-4-2/h3-4H,1-2,5-7H2
computed SMILES=C=CCN(N)CC=C
accession=JP000394
date=2016.01.19 (Created 2008.10.21, modified 2011.05.06)
author=SASAKI S, TOYOHASHI UNIV. OF TECH.
license=CC BY-NC-SA
exact mass=112.10005
ionization energy=70 eV
ion type=[M]+*
computed spectral entropy=2.3954557874642264
computed normalized entropy=0.7441901824722643
SPLASH=splash10-0006-9000000000-4e58b22b33b6d96b320e
submitter=submitter = University of Tokyo Team (Faculty of Engineering, University of Tokyo)
MoNA Rating=3.75

>  <NUM PEAKS>  (7173) 
25

>  <MASS SPECTRAL PEAKS>  (7173) 
27 31
29 16.4
30 7.6
31 1.28
38 2.5
39 29.3
40 3.6
41 99.99
42 10.7
43 16.7
44 21.5
45 0.7
54 6.7
55 4.1
56 7.4
57 0.19
67 1
68 1.8
69 2.3
70 0.16
71 47.9
72 6.9
85 5.4
112 1.98
113 1.8

$$$$

     RDKit          2D

  6  5  0  0  0  0  0  0  0  0999 V2000
   -4.2219    2.8125    0.0000 C   0  0  0  0  0  0  0  0  0  0  0  0
    0.9743    1.3125    0.0000 C   0  0  0  0  0  0  0  0  0  0  0  0
   -2.9228    2.0625    0.0000 C   0  0  0  0  0  0  0  0  0  0  0  0
   -1.6238    1.3125    0.0000 C   0  0  0  0  0  0  0  0  0  0  0  0
   -0.3248    3.5625    0.0000 N   0  0  0  0  0  0  0  0  0  0  0  0
   -0.3248    2.0625    0.0000 N   0  0  0  0  0  0  0  0  0  0  0  0
  3  1  3  0
  4  3  1  0
  6  2  1  0
  6  4  1  0
  6  5  1  0
M  END
>  <NAME>  (7174) 
1-METHYL-1-(2-PROPYNYL)HYDRAZINE

>  <SYNONYMS>  (7174) 


>  <SPECTRUM TYPE>  (7174) 
MS1

>  <INSTRUMENT TYPE>  (7174) 
EI-B

>  <INSTRUMENT>  (7174) 
SHIMADZU LKB-2091

>  <ION MODE>  (7174) 
P

>  <INCHIKEY>  (7174) 
PJDXKHMHDLLSDJ-UHFFFAOYSA-N

>  <FORMULA>  (7174) 
C4H8N2

>  <EXACT MASS>  (7174) 
84.06874825599999

>  <MW>  (7174) 
84

>  <ID>  (7174) 
JP000393

>  <CONTRIBUTOR>  (7174) 
University of Tokyo Team, {Faculty of Engineering, University of Tokyo

>  <COMMENT>  (7174) 
SMILES=C#CCN(C)N
InChI=InChI=1S/C4H8N2/c1-3-4-6(2)5/h1H,4-5H2,2H3
computed SMILES=C#CCN(N)C
accession=JP000393
date=2016.01.19 (Created 2008.10.21, modified 2011.05.06)
author=SASAKI S, TOYOHASHI UNIV. OF TECH.
license=CC BY-NC-SA
exact mass=84.06875
ionization energy=70 eV
ion type=[M]+*
computed spectral entropy=2.202569229817566
computed normalized entropy=0.641402864559536
SPLASH=splash10-0002-9000000000-e9093c0055659da5b208
submitter=submitter = University of Tokyo Team (Faculty of Engineering, University of Tokyo)
MoNA Rating=3.75

>  <NUM PEAKS>  (7174) 
31

>  <MASS SPECTRAL PEAKS>  (7174) 
26 1.5
27 4
28 15.4
29 0.74
30 3.5
31 0.9
37 3.9
38 0.69
39 22.7
40 3.5
41 5
42 0.95
43 11.8
44 6.7
45 99.99
46 0.31
51 0.9
52 1.8
53 1.3
54 0.4
55 2.5
56 1.5
57 0.5
59 0.14
66 3.7
67 1
68 0.9
69 0.04
83 6.5
84 34.5
85 3.1

$$$$

     RDKit          2D

  6  5  0  0  0  0  0  0  0  0999 V2000
    1.2990    2.2500    0.0000 C   0  0  0  0  0  0  0  0  0  0  0  0
   -3.8971    2.2500    0.0000 C   0  0  0  0  0  0  0  0  0  0  0  0
    0.0000    3.0000    0.0000 C   0  0  0  0  0  0  0  0  0  0  0  0
   -1.2990    2.2500    0.0000 C   0  0  0  0  0  0  0  0  0  0  0  0
   -2.5981    4.5000    0.0000 N   0  0  0  0  0  0  0  0  0  0  0  0
   -2.5981    3.0000    0.0000 N   0  0  0  0  0  0  0  0  0  0  0  0
  3  1  2  0
  4  3  1  0
  6  2  1  0
  6  4  1  0
  6  5  1  0
M  END
>  <NAME>  (7175) 
1-ALLYL-1-METHYLHYDRAZINE

>  <SYNONYMS>  (7175) 


>  <SPECTRUM TYPE>  (7175) 
MS1

>  <INSTRUMENT TYPE>  (7175) 
EI-B

>  <INSTRUMENT>  (7175) 
SHIMADZU LKB-2091

>  <ION MODE>  (7175) 
P

>  <INCHIKEY>  (7175) 
MTHGBQGOPUDWHI-UHFFFAOYSA-N

>  <FORMULA>  (7175) 
C4H10N2

>  <EXACT MASS>  (7175) 
86.08439831999999

>  <MW>  (7175) 
86

>  <ID>  (7175) 
JP000392

>  <CONTRIBUTOR>  (7175) 
University of Tokyo Team, {Faculty of Engineering, University of Tokyo

>  <COMMENT>  (7175) 
SMILES=C=CCN(C)N
InChI=InChI=1S/C4H10N2/c1-3-4-6(2)5/h3H,1,4-5H2,2H3
computed SMILES=C=CCN(N)C
accession=JP000392
date=2016.01.19 (Created 2008.10.21, modified 2011.05.06)
author=SASAKI S, TOYOHASHI UNIV. OF TECH.
license=CC BY-NC-SA
exact mass=86.0844
ionization energy=70 eV
ion type=[M]+*
computed spectral entropy=1.9293514510824685
computed normalized entropy=0.6809764097469204
SPLASH=splash10-0002-9000000000-3d45746edbaf83b2b60c
submitter=submitter = University of Tokyo Team (Faculty of Engineering, University of Tokyo)
MoNA Rating=3.75

>  <NUM PEAKS>  (7175) 
17

>  <MASS SPECTRAL PEAKS>  (7175) 
27 6.6
28 6
29 5.7
30 0.79
31 2.1
39 13.4
41 17.9
42 2.16
43 13.4
44 9.2
45 99.99
46 0.25
56 2.4
59 17.1
68 3.3
86 3.2
87 1.9

$$$$

     RDKit          2D

  8  8  0  0  0  0  0  0  0  0999 V2000
    0.7500   -1.5600    0.0000 C   0  0  0  0  0  0  0  0  0  0  0  0
   -0.7500   -1.5600    0.0000 C   0  0  0  0  0  0  0  0  0  0  0  0
    1.6900   -0.3900    0.0000 C   0  0  0  0  0  0  0  0  0  0  0  0
   -1.6900   -0.3900    0.0000 C   0  0  0  0  0  0  0  0  0  0  0  0
    1.3500    1.0800    0.0000 C   0  0  0  0  0  0  0  0  0  0  0  0
   -1.3500    1.0800    0.0000 C   0  0  0  0  0  0  0  0  0  0  0  0
    0.0000    3.2300    0.0000 N   0  0  0  0  0  0  0  0  0  0  0  0
    0.0000    1.7300    0.0000 N   0  0  0  0  0  0  0  0  0  0  0  0
  2  1  1  0
  3  1  1  0
  4  2  1  0
  5  3  1  0
  6  4  1  0
  8  5  1  0
  8  6  1  0
  8  7  1  0
M  END
>  <NAME>  (7176) 
1,1-HEXAMETHYLENEHYDRAZINE

>  <SYNONYMS>  (7176) 
1-AMINOPERHYDROAZEPINE

>  <SPECTRUM TYPE>  (7176) 
MS1

>  <INSTRUMENT TYPE>  (7176) 
EI-B

>  <INSTRUMENT>  (7176) 
SHIMADZU LKB-2091

>  <ION MODE>  (7176) 
P

>  <INCHIKEY>  (7176) 
UGBKOURNNQREPE-UHFFFAOYSA-N

>  <FORMULA>  (7176) 
C6H14N2

>  <EXACT MASS>  (7176) 
114.11569844799999

>  <MW>  (7176) 
114

>  <ID>  (7176) 
JP000391

>  <CONTRIBUTOR>  (7176) 
University of Tokyo Team, {Faculty of Engineering, University of Tokyo

>  <COMMENT>  (7176) 
SMILES=NN(C1)CCCCC1
InChI=InChI=1S/C6H14N2/c7-8-5-3-1-2-4-6-8/h1-7H2
computed SMILES=NN1CCCCCC1
accession=JP000391
date=2016.01.19 (Created 2008.10.21, modified 2011.05.06)
author=SASAKI S, TOYOHASHI UNIV. OF TECH.
license=CC BY-NC-SA
exact mass=114.1157
ionization energy=70 eV
ion type=[M]+*
computed spectral entropy=3.0003249247274977
computed normalized entropy=0.8133431742751733
SPLASH=splash10-01ow-9100000000-6a388ec9d5681b35dac6
submitter=submitter = University of Tokyo Team (Faculty of Engineering, University of Tokyo)
MoNA Rating=3.75

>  <NUM PEAKS>  (7176) 
40

>  <MASS SPECTRAL PEAKS>  (7176) 
27 16.1
29 10
30 12.2
31 0.29
39 13.9
40 2.8
41 38.9
42 5.61
43 22.8
44 55
45 30
46 0.54
53 2.5
54 2.7
55 11.1
56 0.71
57 8.9
58 28.9
59 22.8
60 0.22
67 2.2
68 4.4
69 10.6
70 0.38
71 18.9
72 28.3
73 6.4
82 0.16
84 1.4
85 50
86 10.6
87 0.11
96 2
97 1.4
98 99.99
99 6.44
100 0.9
113 23.3
114 72.1
115 11.1

$$$$

     RDKit          2D

  7  7  0  0  0  0  0  0  0  0999 V2000
   -0.0000   -3.0000    0.0000 C   0  0  0  0  0  0  0  0  0  0  0  0
    1.3000   -2.2500    0.0000 C   0  0  0  0  0  0  0  0  0  0  0  0
   -1.3000   -2.2500    0.0000 C   0  0  0  0  0  0  0  0  0  0  0  0
    1.3000   -0.7500    0.0000 C   0  0  0  0  0  0  0  0  0  0  0  0
   -1.3000   -0.7500    0.0000 C   0  0  0  0  0  0  0  0  0  0  0  0
    0.0000    1.5000    0.0000 N   0  0  0  0  0  0  0  0  0  0  0  0
    0.0000    0.0000    0.0000 N   0  0  0  0  0  0  0  0  0  0  0  0
  2  1  1  0
  3  1  1  0
  4  2  1  0
  5  3  1  0
  7  4  1  0
  7  5  1  0
  7  6  1  0
M  END
>  <NAME>  (7177) 
1,1-PENTAMETHYLENEHYDRAZINE

>  <SYNONYMS>  (7177) 
1-AMINOPIPERIDINE

>  <SPECTRUM TYPE>  (7177) 
MS1

>  <INSTRUMENT TYPE>  (7177) 
EI-B

>  <INSTRUMENT>  (7177) 
SHIMADZU LKB-2091

>  <ION MODE>  (7177) 
P

>  <INCHIKEY>  (7177) 
LWMPFIOTEAXAGV-UHFFFAOYSA-N

>  <FORMULA>  (7177) 
C5H12N2

>  <EXACT MASS>  (7177) 
100.10004838399999

>  <MW>  (7177) 
100

>  <ID>  (7177) 
JP000390

>  <CONTRIBUTOR>  (7177) 
University of Tokyo Team, {Faculty of Engineering, University of Tokyo

>  <COMMENT>  (7177) 
SMILES=NN(C1)CCCC1
InChI=InChI=1S/C5H12N2/c6-7-4-2-1-3-5-7/h1-6H2
computed SMILES=NN1CCCCC1
accession=JP000390
date=2016.01.19 (Created 2008.10.21, modified 2011.05.06)
author=SASAKI S, TOYOHASHI UNIV. OF TECH.
license=CC BY-NC-SA
exact mass=100.10005
ionization energy=70 eV
ion type=[M]+*
computed spectral entropy=2.599419988918894
computed normalized entropy=0.7371396006657137
SPLASH=splash10-0f6t-9200000000-07c6b5ad8f3f65e73542
submitter=submitter = University of Tokyo Team (Faculty of Engineering, University of Tokyo)
MoNA Rating=3.75

>  <NUM PEAKS>  (7177) 
34

>  <MASS SPECTRAL PEAKS>  (7177) 
26 2.1
27 13.8
28 4.6
29 1
30 7.9
31 2.5
39 9.5
40 0.18
41 15.9
42 19.2
43 15.9
44 6.93
45 13.3
53 2.1
54 4.1
55 2.21
56 6.9
57 8.5
58 11
59 1.23
67 1.2
68 1
69 1.2
70 0.16
71 4.4
72 2.3
82 3.9
83 0.17
84 7.7
85 4.1
98 1.4
99 99.99
100 72
101 5.9

$$$$

     RDKit          2D

 10  9  0  0  0  0  0  0  0  0999 V2000
    2.2733    2.8125    0.0000 C   0  0  0  0  0  0  0  0  0  0  0  0
    0.9743    5.0625    0.0000 C   0  0  0  0  0  0  0  0  0  0  0  0
   -5.5209    2.8125    0.0000 C   0  0  0  0  0  0  0  0  0  0  0  0
   -4.2219    5.0625    0.0000 C   0  0  0  0  0  0  0  0  0  0  0  0
   -0.3248    2.8125    0.0000 C   0  0  0  0  0  0  0  0  0  0  0  0
   -2.9228    2.8125    0.0000 C   0  0  0  0  0  0  0  0  0  0  0  0
    0.9743    3.5625    0.0000 C   0  0  0  0  0  0  0  0  0  0  0  0
   -4.2219    3.5625    0.0000 C   0  0  0  0  0  0  0  0  0  0  0  0
   -1.6238    5.0625    0.0000 N   0  0  0  0  0  0  0  0  0  0  0  0
   -1.6238    3.5625    0.0000 N   0  0  0  0  0  0  0  0  0  0  0  0
  7  1  1  0
  7  2  1  0
  7  5  1  0
  8  3  1  0
  8  4  1  0
  8  6  1  0
 10  5  1  0
 10  6  1  0
 10  9  1  0
M  END
>  <NAME>  (7178) 
1,1-DIISOBUTYLHYDRAZINE

>  <SYNONYMS>  (7178) 


>  <SPECTRUM TYPE>  (7178) 
MS1

>  <INSTRUMENT TYPE>  (7178) 
EI-B

>  <INSTRUMENT>  (7178) 
SHIMADZU LKB-2091

>  <ION MODE>  (7178) 
P

>  <INCHIKEY>  (7178) 
JDAGVHRXQORNKW-UHFFFAOYSA-N

>  <FORMULA>  (7178) 
C8H20N2

>  <EXACT MASS>  (7178) 
144.16264864

>  <MW>  (7178) 
144

>  <ID>  (7178) 
JP000389

>  <CONTRIBUTOR>  (7178) 
University of Tokyo Team, {Faculty of Engineering, University of Tokyo

>  <COMMENT>  (7178) 
SMILES=CC(C)CN(N)CC(C)C
InChI=InChI=1S/C8H20N2/c1-7(2)5-10(9)6-8(3)4/h7-8H,5-6,9H2,1-4H3
computed SMILES=NN(CC(C)C)CC(C)C
accession=JP000389
date=2016.01.19 (Created 2008.10.21, modified 2011.05.06)
author=SASAKI S, TOYOHASHI UNIV. OF TECH.
license=CC BY-NC-SA
exact mass=144.16265
ionization energy=70 eV
ion type=[M]+*
computed spectral entropy=2.0805137799843383
computed normalized entropy=0.6243655734908501
SPLASH=splash10-0udj-9500000000-a2b066bc800280700499
submitter=submitter = University of Tokyo Team (Faculty of Engineering, University of Tokyo)
MoNA Rating=3.75

>  <NUM PEAKS>  (7178) 
28

>  <MASS SPECTRAL PEAKS>  (7178) 
27 6.2
28 1.9
29 15.4
30 0.29
31 1.8
39 4.9
41 17.9
42 0.58
43 5.8
44 4.4
45 98.6
46 0.23
55 2.9
56 1.9
57 37.1
58 0.32
59 1.5
69 1
73 1.3
84 0.18
85 1.2
86 1.2
87 1.3
101 99.99
102 7.2
129 0.7
144 14.1
145 2

$$$$

     RDKit          2D

 10  9  0  0  0  0  0  0  0  0999 V2000
    2.5981    4.5000    0.0000 C   0  0  0  0  0  0  0  0  0  0  0  0
   -7.7942    4.5000    0.0000 C   0  0  0  0  0  0  0  0  0  0  0  0
    1.2990    5.2500    0.0000 C   0  0  0  0  0  0  0  0  0  0  0  0
   -6.4952    5.2500    0.0000 C   0  0  0  0  0  0  0  0  0  0  0  0
    0.0000    4.5000    0.0000 C   0  0  0  0  0  0  0  0  0  0  0  0
   -5.1962    4.5000    0.0000 C   0  0  0  0  0  0  0  0  0  0  0  0
   -1.2990    5.2500    0.0000 C   0  0  0  0  0  0  0  0  0  0  0  0
   -3.8971    5.2500    0.0000 C   0  0  0  0  0  0  0  0  0  0  0  0
   -2.5981    3.0000    0.0000 N   0  0  0  0  0  0  0  0  0  0  0  0
   -2.5981    4.5000    0.0000 N   0  0  0  0  0  0  0  0  0  0  0  0
  3  1  1  0
  4  2  1  0
  5  3  1  0
  6  4  1  0
  7  5  1  0
  8  6  1  0
 10  7  1  0
 10  8  1  0
 10  9  1  0
M  END
>  <NAME>  (7179) 
1,1-DIBUTYLHYDRAZINE

>  <SYNONYMS>  (7179) 


>  <SPECTRUM TYPE>  (7179) 
MS1

>  <INSTRUMENT TYPE>  (7179) 
EI-B

>  <INSTRUMENT>  (7179) 
SHIMADZU LKB-2091

>  <ION MODE>  (7179) 
P

>  <INCHIKEY>  (7179) 
DJTIANXYHUNHQV-UHFFFAOYSA-N

>  <FORMULA>  (7179) 
C8H20N2

>  <EXACT MASS>  (7179) 
144.16264864

>  <MW>  (7179) 
144

>  <ID>  (7179) 
JP000388

>  <CONTRIBUTOR>  (7179) 
University of Tokyo Team, {Faculty of Engineering, University of Tokyo

>  <COMMENT>  (7179) 
SMILES=CCCCN(N)CCCC
InChI=InChI=1S/C8H20N2/c1-3-5-7-10(9)8-6-4-2/h3-9H2,1-2H3
computed SMILES=NN(CCCC)CCCC
accession=JP000388
date=2016.01.19 (Created 2008.10.21, modified 2011.05.06)
author=SASAKI S, TOYOHASHI UNIV. OF TECH.
license=CC BY-NC-SA
exact mass=144.16265
ionization energy=70 eV
ion type=[M]+*
computed spectral entropy=2.0815620567005766
computed normalized entropy=0.6466736121409119
SPLASH=splash10-0udi-9700000000-2849b92f6877a0a2a5c2
submitter=submitter = University of Tokyo Team (Faculty of Engineering, University of Tokyo)
MoNA Rating=3.75

>  <NUM PEAKS>  (7179) 
25

>  <MASS SPECTRAL PEAKS>  (7179) 
27 5.5
28 3
29 14.3
30 0.35
31 1.2
39 2.6
41 12.1
42 0.37
43 4.8
44 4.5
45 51.3
46 0.29
55 2
56 1.2
57 14.1
58 0.18
59 15.2
70 1.2
84 1.6
86 0.12
87 1
101 99.99
102 10.1
144 1.77
145 2.9

$$$$

     RDKit          2D

  8  7  0  0  0  0  0  0  0  0999 V2000
   -2.2733    0.5625    0.0000 C   0  0  0  0  0  0  0  0  0  0  0  0
    0.3248    0.5625    0.0000 C   0  0  0  0  0  0  0  0  0  0  0  0
    0.3248    5.0625    0.0000 C   0  0  0  0  0  0  0  0  0  0  0  0
    1.6238    2.8125    0.0000 C   0  0  0  0  0  0  0  0  0  0  0  0
   -0.9743    1.3125    0.0000 C   0  0  0  0  0  0  0  0  0  0  0  0
    0.3248    3.5625    0.0000 C   0  0  0  0  0  0  0  0  0  0  0  0
   -2.2733    3.5625    0.0000 N   0  0  0  0  0  0  0  0  0  0  0  0
   -0.9743    2.8125    0.0000 N   0  0  0  0  0  0  0  0  0  0  0  0
  5  1  1  0
  5  2  1  0
  6  3  1  0
  6  4  1  0
  8  5  1  0
  8  6  1  0
  8  7  1  0
M  END
>  <NAME>  (7180) 
1,1-DIISOPROPYLHYDRAZINE

>  <SYNONYMS>  (7180) 


>  <SPECTRUM TYPE>  (7180) 
MS1

>  <INSTRUMENT TYPE>  (7180) 
EI-B

>  <INSTRUMENT>  (7180) 
SHIMADZU LKB-2091

>  <ION MODE>  (7180) 
P

>  <INCHIKEY>  (7180) 
CDLZUDXUPFCTRJ-UHFFFAOYSA-N

>  <FORMULA>  (7180) 
C6H16N2

>  <EXACT MASS>  (7180) 
116.13134851199999

>  <MW>  (7180) 
116

>  <ID>  (7180) 
JP000387

>  <CONTRIBUTOR>  (7180) 
University of Tokyo Team, {Faculty of Engineering, University of Tokyo

>  <COMMENT>  (7180) 
SMILES=CC(C)N(N)C(C)C
InChI=InChI=1S/C6H16N2/c1-5(2)8(7)6(3)4/h5-6H,7H2,1-4H3
computed SMILES=NN(C(C)C)C(C)C
accession=JP000387
date=2016.01.19 (Created 2008.10.21, modified 2011.05.06)
author=SASAKI S, TOYOHASHI UNIV. OF TECH.
license=CC BY-NC-SA
exact mass=116.13135
ionization energy=70 eV
ion type=[M]+*
computed spectral entropy=2.2510159116425252
computed normalized entropy=0.6993174120765268
SPLASH=splash10-0a4i-9100000000-af738f4e25e13095065e
submitter=submitter = University of Tokyo Team (Faculty of Engineering, University of Tokyo)
MoNA Rating=3.75

>  <NUM PEAKS>  (7180) 
25

>  <MASS SPECTRAL PEAKS>  (7180) 
27 14.4
28 8.7
29 5.2
30 0.64
31 3.9
39 7.8
40 1.7
41 1.65
42 26.1
43 21.1
44 7.3
54 0.1
55 1.4
56 19.3
57 3.6
58 0.49
59 99.99
60 3.6
70 0.9
73 0.43
84 1.4
101 38.9
102 2.7
116 1.9
117 2.2

$$$$

     RDKit          2D

  8  7  0  0  0  0  0  0  0  0999 V2000
    1.9486    3.3750    0.0000 C   0  0  0  0  0  0  0  0  0  0  0  0
   -5.8457    3.3750    0.0000 C   0  0  0  0  0  0  0  0  0  0  0  0
    0.6495    4.1250    0.0000 C   0  0  0  0  0  0  0  0  0  0  0  0
   -4.5466    4.1250    0.0000 C   0  0  0  0  0  0  0  0  0  0  0  0
   -0.6495    3.3750    0.0000 C   0  0  0  0  0  0  0  0  0  0  0  0
   -3.2476    3.3750    0.0000 C   0  0  0  0  0  0  0  0  0  0  0  0
   -1.9486    5.6250    0.0000 N   0  0  0  0  0  0  0  0  0  0  0  0
   -1.9486    4.1250    0.0000 N   0  0  0  0  0  0  0  0  0  0  0  0
  3  1  1  0
  4  2  1  0
  5  3  1  0
  6  4  1  0
  8  5  1  0
  8  6  1  0
  8  7  1  0
M  END
>  <NAME>  (7181) 
1,1-DIPROPYLHYDRAZINE

>  <SYNONYMS>  (7181) 


>  <SPECTRUM TYPE>  (7181) 
MS1

>  <INSTRUMENT TYPE>  (7181) 
EI-B

>  <INSTRUMENT>  (7181) 
SHIMADZU LKB-2091

>  <ION MODE>  (7181) 
P

>  <INCHIKEY>  (7181) 
ZHHHDUSWMATTFE-UHFFFAOYSA-N

>  <FORMULA>  (7181) 
C6H16N2

>  <EXACT MASS>  (7181) 
116.13134851199999

>  <MW>  (7181) 
116

>  <ID>  (7181) 
JP000386

>  <CONTRIBUTOR>  (7181) 
University of Tokyo Team, {Faculty of Engineering, University of Tokyo

>  <COMMENT>  (7181) 
SMILES=CCCN(N)CCC
InChI=InChI=1S/C6H16N2/c1-3-5-8(7)6-4-2/h3-7H2,1-2H3
computed SMILES=NN(CCC)CCC
accession=JP000386
date=2016.01.19 (Created 2008.10.21, modified 2011.05.06)
author=SASAKI S, TOYOHASHI UNIV. OF TECH.
license=CC BY-NC-SA
exact mass=116.13135
ionization energy=70 eV
ion type=[M]+*
computed spectral entropy=1.9356633982245282
computed normalized entropy=0.6262170214199075
SPLASH=splash10-000j-9000000000-5c1d853bd8691a1b6756
submitter=submitter = University of Tokyo Team (Faculty of Engineering, University of Tokyo)
MoNA Rating=3.75

>  <NUM PEAKS>  (7181) 
22

>  <MASS SPECTRAL PEAKS>  (7181) 
27 9.9
28 5.4
29 2.9
30 0.44
31 2.3
39 3.8
41 11.5
42 0.4
43 22.5
44 4.2
45 78.4
46 0.17
56 3.2
58 3
59 2.4
70 0.19
72 0.9
73 1.3
87 99.99
88 0.56
116 22.1
117 2.6

$$$$

     RDKit          2D

  8  7  0  0  0  0  0  0  0  0999 V2000
    1.9486    2.6250    0.0000 C   0  0  0  0  0  0  0  0  0  0  0  0
   -4.5466    3.3750    0.0000 C   0  0  0  0  0  0  0  0  0  0  0  0
   -0.6495    1.1250    0.0000 C   0  0  0  0  0  0  0  0  0  0  0  0
    0.6495    3.3750    0.0000 C   0  0  0  0  0  0  0  0  0  0  0  0
   -3.2476    2.6250    0.0000 C   0  0  0  0  0  0  0  0  0  0  0  0
   -0.6495    2.6250    0.0000 C   0  0  0  0  0  0  0  0  0  0  0  0
   -1.9486    4.8750    0.0000 N   0  0  0  0  0  0  0  0  0  0  0  0
   -1.9486    3.3750    0.0000 N   0  0  0  0  0  0  0  0  0  0  0  0
  4  1  1  0
  5  2  1  0
  6  3  1  0
  6  4  1  0
  8  5  1  0
  8  6  1  0
  8  7  1  0
M  END
>  <NAME>  (7182) 
1-SEC-BUTYL-1-ETHYLHYDRAZINE

>  <SYNONYMS>  (7182) 


>  <SPECTRUM TYPE>  (7182) 
MS1

>  <INSTRUMENT TYPE>  (7182) 
EI-B

>  <INSTRUMENT>  (7182) 
SHIMADZU LKB-2091

>  <ION MODE>  (7182) 
P

>  <INCHIKEY>  (7182) 
JETSNSHFMGMDDQ-UHFFFAOYSA-N

>  <FORMULA>  (7182) 
C6H16N2

>  <EXACT MASS>  (7182) 
116.131348512

>  <MW>  (7182) 
116

>  <ID>  (7182) 
JP000385

>  <CONTRIBUTOR>  (7182) 
University of Tokyo Team, {Faculty of Engineering, University of Tokyo

>  <COMMENT>  (7182) 
SMILES=CCC(C)N(N)CC
InChI=InChI=1S/C6H16N2/c1-4-6(3)8(7)5-2/h6H,4-5,7H2,1-3H3
computed SMILES=NN(CC)C(C)CC
accession=JP000385
date=2016.01.19 (Created 2008.10.21, modified 2011.05.06)
author=SASAKI S, TOYOHASHI UNIV. OF TECH.
license=CC BY-NC-SA
exact mass=116.13135
ionization energy=70 eV
ion type=[M]+*
computed spectral entropy=2.533769662418686
computed normalized entropy=0.7449640165195117
SPLASH=splash10-000i-9100000000-51a54457e66ab01dda85
submitter=submitter = University of Tokyo Team (Faculty of Engineering, University of Tokyo)
MoNA Rating=3.75

>  <NUM PEAKS>  (7182) 
30

>  <MASS SPECTRAL PEAKS>  (7182) 
27 9.3
28 4.4
29 18.5
30 0.71
31 3.7
39 3.5
41 11.7
42 2.39
43 12.2
44 11.4
45 28.3
54 0.09
55 2
56 7.8
57 7
58 0.46
59 17.4
60 2.4
70 7.8
71 0.12
72 1.6
73 1.2
84 2
85 0.18
87 99.99
88 5.7
101 12.2
102 0.07
116 25
117 2.4

$$$$

     RDKit          2D

  8  7  0  0  0  0  0  0  0  0999 V2000
    1.6238    3.1875    0.0000 C   0  0  0  0  0  0  0  0  0  0  0  0
   -4.8714    3.9375    0.0000 C   0  0  0  0  0  0  0  0  0  0  0  0
   -3.5724    1.6875    0.0000 C   0  0  0  0  0  0  0  0  0  0  0  0
    0.3248    3.9375    0.0000 C   0  0  0  0  0  0  0  0  0  0  0  0
   -2.2733    3.9375    0.0000 C   0  0  0  0  0  0  0  0  0  0  0  0
   -3.5724    3.1875    0.0000 C   0  0  0  0  0  0  0  0  0  0  0  0
   -0.9743    1.6875    0.0000 N   0  0  0  0  0  0  0  0  0  0  0  0
   -0.9743    3.1875    0.0000 N   0  0  0  0  0  0  0  0  0  0  0  0
  4  1  1  0
  6  2  1  0
  6  3  1  0
  6  5  1  0
  8  4  1  0
  8  5  1  0
  8  7  1  0
M  END
>  <NAME>  (7183) 
1-ETHYL-1-ISOBUTYLHYDRAZINE

>  <SYNONYMS>  (7183) 


>  <SPECTRUM TYPE>  (7183) 
MS1

>  <INSTRUMENT TYPE>  (7183) 
EI-B

>  <INSTRUMENT>  (7183) 
SHIMADZU LKB-2091

>  <ION MODE>  (7183) 
P

>  <INCHIKEY>  (7183) 
SRPRMXWUMUHGED-UHFFFAOYSA-N

>  <FORMULA>  (7183) 
C6H16N2

>  <EXACT MASS>  (7183) 
116.13134851199999

>  <MW>  (7183) 
116

>  <ID>  (7183) 
JP000384

>  <CONTRIBUTOR>  (7183) 
University of Tokyo Team, {Faculty of Engineering, University of Tokyo

>  <COMMENT>  (7183) 
SMILES=CCN(N)CC(C)C
InChI=InChI=1S/C6H16N2/c1-4-8(7)5-6(2)3/h6H,4-5,7H2,1-3H3
computed SMILES=NN(CC)CC(C)C
accession=JP000384
date=2016.01.19 (Created 2008.10.21, modified 2011.05.06)
author=SASAKI S, TOYOHASHI UNIV. OF TECH.
license=CC BY-NC-SA
exact mass=116.13135
ionization energy=70 eV
ion type=[M]+*
computed spectral entropy=2.0519749546508046
computed normalized entropy=0.6158010255327677
SPLASH=splash10-00di-9000000000-2ea4e18c1aa746b894fa
submitter=submitter = University of Tokyo Team (Faculty of Engineering, University of Tokyo)
MoNA Rating=3.75

>  <NUM PEAKS>  (7183) 
28

>  <MASS SPECTRAL PEAKS>  (7183) 
27 5.1
28 6.7
29 8.3
30 0.92
31 2.6
39 2.8
41 6.1
42 0.43
43 4.3
44 8.3
45 26.6
46 0.07
54 0.5
55 1
56 6.4
57 0.38
58 2
59 3
70 0.3
71 0.04
72 0.4
73 99.99
74 4.8
84 0.05
101 1.4
115 0.4
116 14.2
117 1.8

$$$$

     RDKit          2D

  8  7  0  0  0  0  0  0  0  0999 V2000
    1.9486    3.3750    0.0000 C   0  0  0  0  0  0  0  0  0  0  0  0
   -5.8457    3.3750    0.0000 C   0  0  0  0  0  0  0  0  0  0  0  0
    0.6495    4.1250    0.0000 C   0  0  0  0  0  0  0  0  0  0  0  0
   -4.5466    4.1250    0.0000 C   0  0  0  0  0  0  0  0  0  0  0  0
   -0.6495    3.3750    0.0000 C   0  0  0  0  0  0  0  0  0  0  0  0
   -1.9486    4.1250    0.0000 C   0  0  0  0  0  0  0  0  0  0  0  0
   -3.2476    1.8750    0.0000 N   0  0  0  0  0  0  0  0  0  0  0  0
   -3.2476    3.3750    0.0000 N   0  0  0  0  0  0  0  0  0  0  0  0
  3  1  1  0
  4  2  1  0
  5  3  1  0
  6  5  1  0
  8  4  1  0
  8  6  1  0
  8  7  1  0
M  END
>  <NAME>  (7184) 
1-BUTYL-1-ETHYLHYDRAZINE

>  <SYNONYMS>  (7184) 


>  <SPECTRUM TYPE>  (7184) 
MS1

>  <INSTRUMENT TYPE>  (7184) 
EI-B

>  <INSTRUMENT>  (7184) 
SHIMADZU LKB-2091

>  <ION MODE>  (7184) 
P

>  <INCHIKEY>  (7184) 
GGVXCUYZOPPOAM-UHFFFAOYSA-N

>  <FORMULA>  (7184) 
C6H16N2

>  <EXACT MASS>  (7184) 
116.131348512

>  <MW>  (7184) 
116

>  <ID>  (7184) 
JP000383

>  <CONTRIBUTOR>  (7184) 
University of Tokyo Team, {Faculty of Engineering, University of Tokyo

>  <COMMENT>  (7184) 
SMILES=CCCCN(N)CC
InChI=InChI=1S/C6H16N2/c1-3-5-6-8(7)4-2/h3-7H2,1-2H3
computed SMILES=NN(CC)CCCC
accession=JP000383
date=2016.01.19 (Created 2008.10.21, modified 2011.05.06)
author=SASAKI S, TOYOHASHI UNIV. OF TECH.
license=CC BY-NC-SA
exact mass=116.13135
ionization energy=70 eV
ion type=[M]+*
computed spectral entropy=1.9136418420479637
computed normalized entropy=0.6021426773121872
SPLASH=splash10-00di-9100000000-2f63212c99e2303bf119
submitter=submitter = University of Tokyo Team (Faculty of Engineering, University of Tokyo)
MoNA Rating=3.75

>  <NUM PEAKS>  (7184) 
24

>  <MASS SPECTRAL PEAKS>  (7184) 
27 4.7
28 3.3
29 8.4
30 0.44
31 2.2
39 1.6
41 4.5
42 0.39
43 2.9
44 6
45 22.6
46 0.05
55 0.7
56 3.5
57 2.5
58 0.22
59 3.3
71 0.7
73 99.99
74 0.33
101 3.5
115 4.8
116 13.3
117 1.2

$$$$

     RDKit          2D

  7  6  0  0  0  0  0  0  0  0999 V2000
    1.6238    1.6875    0.0000 C   0  0  0  0  0  0  0  0  0  0  0  0
    0.3248    3.9375    0.0000 C   0  0  0  0  0  0  0  0  0  0  0  0
   -3.5724    1.6875    0.0000 C   0  0  0  0  0  0  0  0  0  0  0  0
   -0.9743    1.6875    0.0000 C   0  0  0  0  0  0  0  0  0  0  0  0
    0.3248    2.4375    0.0000 C   0  0  0  0  0  0  0  0  0  0  0  0
   -2.2733    3.9375    0.0000 N   0  0  0  0  0  0  0  0  0  0  0  0
   -2.2733    2.4375    0.0000 N   0  0  0  0  0  0  0  0  0  0  0  0
  5  1  1  0
  5  2  1  0
  5  4  1  0
  7  3  1  0
  7  4  1  0
  7  6  1  0
M  END
>  <NAME>  (7185) 
1-ISOBUTYL-1-METHYLHYDRAZINE

>  <SYNONYMS>  (7185) 


>  <SPECTRUM TYPE>  (7185) 
MS1

>  <INSTRUMENT TYPE>  (7185) 
EI-B

>  <INSTRUMENT>  (7185) 
SHIMADZU LKB-2091

>  <ION MODE>  (7185) 
P

>  <INCHIKEY>  (7185) 
DVWYNPADZDHBSJ-UHFFFAOYSA-N

>  <FORMULA>  (7185) 
C5H14N2

>  <EXACT MASS>  (7185) 
102.11569844799999

>  <MW>  (7185) 
102

>  <ID>  (7185) 
JP000382

>  <CONTRIBUTOR>  (7185) 
University of Tokyo Team, {Faculty of Engineering, University of Tokyo

>  <COMMENT>  (7185) 
SMILES=CC(C)CN(C)N
InChI=InChI=1S/C5H14N2/c1-5(2)4-7(3)6/h5H,4,6H2,1-3H3
computed SMILES=NN(C)CC(C)C
accession=JP000382
date=2016.01.19 (Created 2008.10.21, modified 2011.05.06)
author=SASAKI S, TOYOHASHI UNIV. OF TECH.
license=CC BY-NC-SA
exact mass=102.1157
ionization energy=70 eV
ion type=[M]+*
computed spectral entropy=1.7689833395740528
computed normalized entropy=0.6007879097140758
SPLASH=splash10-0a4i-9000000000-ce974833b821c3561684
submitter=submitter = University of Tokyo Team (Faculty of Engineering, University of Tokyo)
MoNA Rating=3.75

>  <NUM PEAKS>  (7185) 
19

>  <MASS SPECTRAL PEAKS>  (7185) 
27 4.1
29 6.2
30 9.8
31 0.44
39 3.7
40 2.5
41 5.8
42 2.01
43 6.1
44 5.5
45 7.3
46 0.16
57 2.2
59 99.99
60 2.9
70 0.11
71 2.5
102 11.4
103 0.7

$$$$

     RDKit          2D

  7  6  0  0  0  0  0  0  0  0999 V2000
    1.6238    3.1875    0.0000 C   0  0  0  0  0  0  0  0  0  0  0  0
   -4.8714    3.9375    0.0000 C   0  0  0  0  0  0  0  0  0  0  0  0
    0.3248    3.9375    0.0000 C   0  0  0  0  0  0  0  0  0  0  0  0
   -0.9743    3.1875    0.0000 C   0  0  0  0  0  0  0  0  0  0  0  0
   -2.2733    3.9375    0.0000 C   0  0  0  0  0  0  0  0  0  0  0  0
   -3.5724    1.6875    0.0000 N   0  0  0  0  0  0  0  0  0  0  0  0
   -3.5724    3.1875    0.0000 N   0  0  0  0  0  0  0  0  0  0  0  0
  3  1  1  0
  4  3  1  0
  5  4  1  0
  7  2  1  0
  7  5  1  0
  7  6  1  0
M  END
>  <NAME>  (7186) 
1-BUTYL-1-METHYLHYDRAZINE

>  <SYNONYMS>  (7186) 


>  <SPECTRUM TYPE>  (7186) 
MS1

>  <INSTRUMENT TYPE>  (7186) 
EI-B

>  <INSTRUMENT>  (7186) 
SHIMADZU LKB-2091

>  <ION MODE>  (7186) 
P

>  <INCHIKEY>  (7186) 
OEEGQMYUIKPQMM-UHFFFAOYSA-N

>  <FORMULA>  (7186) 
C5H14N2

>  <EXACT MASS>  (7186) 
102.11569844799999

>  <MW>  (7186) 
102

>  <ID>  (7186) 
JP000381

>  <CONTRIBUTOR>  (7186) 
University of Tokyo Team, {Faculty of Engineering, University of Tokyo

>  <COMMENT>  (7186) 
SMILES=CCCCN(C)N
InChI=InChI=1S/C5H14N2/c1-3-4-5-7(2)6/h3-6H2,1-2H3
computed SMILES=NN(C)CCCC
accession=JP000381
date=2016.01.19 (Created 2008.10.21, modified 2011.05.06)
author=SASAKI S, TOYOHASHI UNIV. OF TECH.
license=CC BY-NC-SA
exact mass=102.1157
ionization energy=70 eV
ion type=[M]+*
computed spectral entropy=2.1044365962352627
computed normalized entropy=0.6808177590537009
SPLASH=splash10-0a4i-9000000000-9210c4279f287b99db04
submitter=submitter = University of Tokyo Team (Faculty of Engineering, University of Tokyo)
MoNA Rating=3.75

>  <NUM PEAKS>  (7186) 
22

>  <MASS SPECTRAL PEAKS>  (7186) 
27 7.1
29 11.1
30 10.8
31 1.53
39 3.1
40 7.8
41 6.1
42 2.04
43 7.9
44 10.5
45 8.5
46 0.18
55 1.2
56 1.6
57 4.5
58 0.13
59 99.99
60 3.2
71 7.7
72 0.1
102 15.3
103 1

$$$$

     RDKit          2D

  6  5  0  0  0  0  0  0  0  0999 V2000
    1.2990    2.2500    0.0000 C   0  0  0  0  0  0  0  0  0  0  0  0
   -3.8971    2.2500    0.0000 C   0  0  0  0  0  0  0  0  0  0  0  0
    0.0000    3.0000    0.0000 C   0  0  0  0  0  0  0  0  0  0  0  0
   -2.5981    3.0000    0.0000 C   0  0  0  0  0  0  0  0  0  0  0  0
   -1.2990    0.7500    0.0000 N   0  0  0  0  0  0  0  0  0  0  0  0
   -1.2990    2.2500    0.0000 N   0  0  0  0  0  0  0  0  0  0  0  0
  3  1  1  0
  4  2  1  0
  6  3  1  0
  6  4  1  0
  6  5  1  0
M  END
>  <NAME>  (7187) 
1,1-DIETHYLHYDRAZINE

>  <SYNONYMS>  (7187) 


>  <SPECTRUM TYPE>  (7187) 
MS1

>  <INSTRUMENT TYPE>  (7187) 
EI-B

>  <INSTRUMENT>  (7187) 
SHIMADZU LKB-2091

>  <ION MODE>  (7187) 
P

>  <INCHIKEY>  (7187) 
IFZHGQSUNAKKSN-UHFFFAOYSA-N

>  <FORMULA>  (7187) 
C4H12N2

>  <EXACT MASS>  (7187) 
88.100048384

>  <MW>  (7187) 
88

>  <ID>  (7187) 
JP000380

>  <CONTRIBUTOR>  (7187) 
University of Tokyo Team, {Faculty of Engineering, University of Tokyo

>  <COMMENT>  (7187) 
SMILES=CCN(N)CC
InChI=InChI=1S/C4H12N2/c1-3-6(5)4-2/h3-5H2,1-2H3
computed SMILES=NN(CC)CC
accession=JP000380
date=2016.01.19 (Created 2008.10.21, modified 2011.05.06)
author=SASAKI S, TOYOHASHI UNIV. OF TECH.
license=CC BY-NC-SA
exact mass=88.10005
ionization energy=70 eV
ion type=[M]+*
computed spectral entropy=2.2887155259985676
computed normalized entropy=0.6944262167845905
SPLASH=splash10-00di-9000000000-b6bff29609343e2f412d
submitter=submitter = University of Tokyo Team (Faculty of Engineering, University of Tokyo)
MoNA Rating=3.75

>  <NUM PEAKS>  (7187) 
27

>  <MASS SPECTRAL PEAKS>  (7187) 
26 2.5
27 12.5
28 17.5
29 1.62
30 12.5
31 8.1
39 0.5
40 0.11
41 3.4
42 22.5
43 9.1
44 1.75
45 46.3
46 1
54 0.6
55 0.06
56 10
57 1.6
58 2.6
59 0.83
70 1.5
71 0.7
73 99.99
74 0.48
87 4.9
88 48.8
89 4.8

$$$$

     RDKit          2D

  6  5  0  0  0  0  0  0  0  0999 V2000
   -0.0000   -0.0000    0.0000 C   0  0  0  0  0  0  0  0  0  0  0  0
    1.2990    2.2500    0.0000 C   0  0  0  0  0  0  0  0  0  0  0  0
   -1.2990    3.7500    0.0000 C   0  0  0  0  0  0  0  0  0  0  0  0
   -0.0000    1.5000    0.0000 C   0  0  0  0  0  0  0  0  0  0  0  0
   -2.5981    1.5000    0.0000 N   0  0  0  0  0  0  0  0  0  0  0  0
   -1.2990    2.2500    0.0000 N   0  0  0  0  0  0  0  0  0  0  0  0
  4  1  1  0
  4  2  1  0
  6  3  1  0
  6  4  1  0
  6  5  1  0
M  END
>  <NAME>  (7188) 
1-ISOPROPYL-1-METHYLHYDRAZINE

>  <SYNONYMS>  (7188) 


>  <SPECTRUM TYPE>  (7188) 
MS1

>  <INSTRUMENT TYPE>  (7188) 
EI-B

>  <INSTRUMENT>  (7188) 
SHIMADZU LKB-2091

>  <ION MODE>  (7188) 
P

>  <INCHIKEY>  (7188) 
XYQCAFWEBBSSKS-UHFFFAOYSA-N

>  <FORMULA>  (7188) 
C4H12N2

>  <EXACT MASS>  (7188) 
88.100048384

>  <MW>  (7188) 
88

>  <ID>  (7188) 
JP000379

>  <CONTRIBUTOR>  (7188) 
University of Tokyo Team, {Faculty of Engineering, University of Tokyo

>  <COMMENT>  (7188) 
SMILES=CC(C)N(C)N
InChI=InChI=1S/C4H12N2/c1-4(2)6(3)5/h4H,5H2,1-3H3
computed SMILES=NN(C)C(C)C
accession=JP000379
license=CC BY-NC-SA
date=2016.01.19 (Created 2008.10.21, modified 2011.05.06)
author=SASAKI S, TOYOHASHI UNIV. OF TECH.
exact mass=88.10005
ionization energy=70 eV
ion type=[M]+*
computed spectral entropy=2.4941030642901496
computed normalized entropy=0.7406842731427514
SPLASH=splash10-00dj-9000000000-74000c8cd6394512eac2
submitter=submitter = University of Tokyo Team (Faculty of Engineering, University of Tokyo)
MoNA Rating=3.75

>  <NUM PEAKS>  (7188) 
29

>  <MASS SPECTRAL PEAKS>  (7188) 
26 1.5
27 12.3
28 26
29 1.15
30 11.9
31 11.5
38 1
39 0.78
40 1.8
41 13.7
42 15.1
43 1.61
44 15.1
45 41.1
46 16.4
54 0.18
55 1.9
56 38.4
57 5.5
58 0.32
59 2.1
70 2.7
71 0.9
72 0.16
73 99.99
74 5.1
87 1.4
88 4.79
89 4.7

$$$$

     RDKit          2D

  6  5  0  0  0  0  0  0  0  0999 V2000
    1.2990    2.2500    0.0000 C   0  0  0  0  0  0  0  0  0  0  0  0
   -3.8971    2.2500    0.0000 C   0  0  0  0  0  0  0  0  0  0  0  0
    0.0000    3.0000    0.0000 C   0  0  0  0  0  0  0  0  0  0  0  0
   -1.2990    2.2500    0.0000 C   0  0  0  0  0  0  0  0  0  0  0  0
   -2.5981    4.5000    0.0000 N   0  0  0  0  0  0  0  0  0  0  0  0
   -2.5981    3.0000    0.0000 N   0  0  0  0  0  0  0  0  0  0  0  0
  3  1  1  0
  4  3  1  0
  6  2  1  0
  6  4  1  0
  6  5  1  0
M  END
>  <NAME>  (7189) 
1-METHYL-1-PROPYLHYDRAZINE

>  <SYNONYMS>  (7189) 


>  <SPECTRUM TYPE>  (7189) 
MS1

>  <INSTRUMENT TYPE>  (7189) 
EI-B

>  <INSTRUMENT>  (7189) 
SHIMADZU LKB-2091

>  <ION MODE>  (7189) 
P

>  <INCHIKEY>  (7189) 
JOFQXPUKJJQCPW-UHFFFAOYSA-N

>  <FORMULA>  (7189) 
C4H12N2

>  <EXACT MASS>  (7189) 
88.100048384

>  <MW>  (7189) 
88

>  <ID>  (7189) 
JP000378

>  <CONTRIBUTOR>  (7189) 
University of Tokyo Team, {Faculty of Engineering, University of Tokyo

>  <COMMENT>  (7189) 
SMILES=CCCN(C)N
InChI=InChI=1S/C4H12N2/c1-3-4-6(2)5/h3-5H2,1-2H3
computed SMILES=NN(C)CCC
accession=JP000378
date=2016.01.19 (Created 2008.10.21, modified 2011.05.06)
author=SASAKI S, TOYOHASHI UNIV. OF TECH.
license=CC BY-NC-SA
exact mass=88.10005
ionization energy=70 eV
ion type=[M]+*
computed spectral entropy=1.8198814504980125
computed normalized entropy=0.5726402218614292
SPLASH=splash10-0a4i-9000000000-3a19579fb9fdfeb44008
submitter=submitter = University of Tokyo Team (Faculty of Engineering, University of Tokyo)
MoNA Rating=3.75

>  <NUM PEAKS>  (7189) 
24

>  <MASS SPECTRAL PEAKS>  (7189) 
27 7.5
28 2.1
29 3.1
30 1.46
31 3
39 3.7
40 0.7
41 0.6
42 27.7
43 9.1
44 4.9
45 1.09
46 1.5
56 1.3
57 1.1
58 0.07
59 99.99
60 3.1
70 1
71 0.09
72 0.5
73 0.3
88 17.2
89 1.2

$$$$

     RDKit          2D

  4  3  0  0  0  0  0  0  0  0999 V2000
    0.9743    0.5625    0.0000 C   0  0  0  0  0  0  0  0  0  0  0  0
   -1.6238    0.5625    0.0000 C   0  0  0  0  0  0  0  0  0  0  0  0
   -0.3248    2.8125    0.0000 N   0  0  0  0  0  0  0  0  0  0  0  0
   -0.3248    1.3125    0.0000 N   0  0  0  0  0  0  0  0  0  0  0  0
  4  1  1  0
  4  2  1  0
  4  3  1  0
M  END
>  <NAME>  (7190) 
1,1-DIMETHYLHYDRAZINE

>  <SYNONYMS>  (7190) 


>  <SPECTRUM TYPE>  (7190) 
MS1

>  <INSTRUMENT TYPE>  (7190) 
EI-B

>  <INSTRUMENT>  (7190) 
SHIMADZU LKB-2091

>  <ION MODE>  (7190) 
P

>  <INCHIKEY>  (7190) 
RHUYHJGZWVXEHW-UHFFFAOYSA-N

>  <FORMULA>  (7190) 
C2H8N2

>  <EXACT MASS>  (7190) 
60.068748256

>  <MW>  (7190) 
60

>  <ID>  (7190) 
JP000377

>  <CONTRIBUTOR>  (7190) 
University of Tokyo Team, {Faculty of Engineering, University of Tokyo

>  <COMMENT>  (7190) 
SMILES=CN(C)N
InChI=InChI=1S/C2H8N2/c1-4(2)3/h3H2,1-2H3
computed SMILES=NN(C)C
accession=JP000377
date=2016.01.19 (Created 2008.10.21, modified 2011.05.06)
author=SASAKI S, TOYOHASHI UNIV. OF TECH.
license=CC BY-NC-SA
exact mass=60.06875
ionization energy=70 eV
ion type=[M]+*
computed spectral entropy=2.0609623132988713
computed normalized entropy=0.7274292695333211
SPLASH=splash10-03di-9000000000-420219681bd3aa9f101f
submitter=submitter = University of Tokyo Team (Faculty of Engineering, University of Tokyo)
MoNA Rating=3.75

>  <NUM PEAKS>  (7190) 
17

>  <MASS SPECTRAL PEAKS>  (7190) 
27 3.8
28 27.5
29 7.6
30 2.65
31 4.6
40 3
41 4.3
42 6.17
43 25.3
44 11.9
45 45.9
46 0.1
57 1.5
58 1.3
59 48.5
60 99.99
61 3.9

$$$$

     RDKit          2D

  6  5  0  0  0  0  0  0  0  0999 V2000
   -4.5466    3.3750    0.0000 C   0  0  0  0  0  0  0  0  0  0  0  0
   -0.6495    2.6250    0.0000 C   0  0  0  0  0  0  0  0  0  0  0  0
   -1.9486    3.3750    0.0000 C   0  0  0  0  0  0  0  0  0  0  0  0
    1.9486    2.6250    0.0000 N   0  0  0  0  0  0  0  0  0  0  0  0
    0.6495    3.3750    0.0000 N   0  0  0  0  0  0  0  0  0  0  0  0
   -3.2476    2.6250    0.0000 O   0  0  0  0  0  0  0  0  0  0  0  0
  3  2  1  0
  5  2  1  0
  5  4  1  0
  6  1  1  0
  6  3  1  0
M  END
>  <NAME>  (7191) 
BETA-METHOXYETHYLHYDRAZINE

>  <SYNONYMS>  (7191) 


>  <SPECTRUM TYPE>  (7191) 
MS1

>  <INSTRUMENT TYPE>  (7191) 
EI-B

>  <INSTRUMENT>  (7191) 
SHIMADZU LKB-2091

>  <ION MODE>  (7191) 
P

>  <INCHIKEY>  (7191) 
IBELBRDFPCFICX-UHFFFAOYSA-N

>  <FORMULA>  (7191) 
C3H10N2O

>  <EXACT MASS>  (7191) 
90.07931294

>  <MW>  (7191) 
90

>  <ID>  (7191) 
JP000376

>  <CONTRIBUTOR>  (7191) 
University of Tokyo Team, {Faculty of Engineering, University of Tokyo

>  <COMMENT>  (7191) 
SMILES=COCCNN
InChI=InChI=1S/C3H10N2O/c1-6-3-2-5-4/h5H,2-4H2,1H3
computed SMILES=O(C)CCNN
accession=JP000376
date=2016.01.19 (Created 2008.10.21, modified 2011.05.06)
author=SASAKI S, TOYOHASHI UNIV. OF TECH.
license=CC BY-NC-SA
exact mass=90.07931
ionization energy=70 eV
ion type=[M]+*
computed spectral entropy=1.4566361331210964
computed normalized entropy=0.47124429867940154
SPLASH=splash10-0002-9000000000-dd4812e91c4b89ebd9d8
submitter=submitter = University of Tokyo Team (Faculty of Engineering, University of Tokyo)
MoNA Rating=3.75

>  <NUM PEAKS>  (7191) 
22

>  <MASS SPECTRAL PEAKS>  (7191) 
26 0.7
27 3
28 6.5
29 0.53
30 4.8
31 7.9
32 1.6
33 0.14
40 0.6
41 1.4
42 2.6
43 0.4
44 2.1
45 99.99
46 2.5
57 0.17
58 1.4
59 1.2
69 0.3
73 0.03
90 11
91 0.9

$$$$

     RDKit          2D

  9  9  0  0  0  0  0  0  0  0999 V2000
    2.9228   -0.2425    0.0000 C   0  0  0  0  0  0  0  0  0  0  0  0
    2.9233    1.2583    0.0000 C   0  0  0  0  0  0  0  0  0  0  0  0
    1.6233   -0.9933    0.0000 C   0  0  0  0  0  0  0  0  0  0  0  0
    1.6243    2.0083    0.0000 C   0  0  0  0  0  0  0  0  0  0  0  0
    0.3243   -0.2433    0.0000 C   0  0  0  0  0  0  0  0  0  0  0  0
   -0.9743    2.0075    0.0000 C   0  0  0  0  0  0  0  0  0  0  0  0
    0.3248    1.2575    0.0000 C   0  0  0  0  0  0  0  0  0  0  0  0
   -3.5724    2.0075    0.0000 N   0  0  0  0  0  0  0  0  0  0  0  0
   -2.2733    1.2575    0.0000 N   0  0  0  0  0  0  0  0  0  0  0  0
  2  1  2  0
  3  1  1  0
  4  2  1  0
  5  3  2  0
  7  4  2  0
  7  5  1  0
  7  6  1  0
  9  6  1  0
  9  8  1  0
M  END
>  <NAME>  (7192) 
BENZYLHYDRAZINE

>  <SYNONYMS>  (7192) 


>  <SPECTRUM TYPE>  (7192) 
MS1

>  <INSTRUMENT TYPE>  (7192) 
EI-B

>  <INSTRUMENT>  (7192) 
SHIMADZU LKB-2091

>  <ION MODE>  (7192) 
P

>  <INCHIKEY>  (7192) 
NHOWLEZFTHYCTP-UHFFFAOYSA-N

>  <FORMULA>  (7192) 
C7H10N2

>  <EXACT MASS>  (7192) 
122.08439831999999

>  <MW>  (7192) 
122

>  <ID>  (7192) 
JP000375

>  <CONTRIBUTOR>  (7192) 
University of Tokyo Team, {Faculty of Engineering, University of Tokyo

>  <COMMENT>  (7192) 
SMILES=NNCc(c1)cccc1
InChI=InChI=1S/C7H10N2/c8-9-6-7-4-2-1-3-5-7/h1-5,9H,6,8H2
computed SMILES=NNCC=1C=CC=CC1
accession=JP000375
date=2016.01.19 (Created 2008.10.21, modified 2011.05.06)
author=SASAKI S, TOYOHASHI UNIV. OF TECH.
license=CC BY-NC-SA
exact mass=122.0844
ionization energy=70 eV
ion type=[M]+*
computed spectral entropy=2.0448774719599196
computed normalized entropy=0.5798832699281368
SPLASH=splash10-0006-9200000000-025a151b83e51b6616e2
submitter=submitter = University of Tokyo Team (Faculty of Engineering, University of Tokyo)
MoNA Rating=3.75

>  <NUM PEAKS>  (7192) 
34

>  <MASS SPECTRAL PEAKS>  (7192) 
27 1.4
30 1.1
31 2.7
38 0.09
39 5.6
41 1.5
43 2.5
44 0.1
45 2.7
50 2.6
51 5.8
52 0.18
62 0.8
63 2.7
64 0.8
65 1.38
66 1
76 0.9
77 5.7
78 0.22
79 1.4
89 2
90 0.8
91 99.99
92 16
93 3
103 0.8
104 0.28
105 1.1
106 2.5
107 1.5
121 0.08
122 31.8
123 3.1

$$$$

     RDKit          2D

  8  8  0  0  0  0  0  0  0  0999 V2000
    2.2733   -0.6175    0.0000 C   0  0  0  0  0  0  0  0  0  0  0  0
    0.9738   -1.3683    0.0000 C   0  0  0  0  0  0  0  0  0  0  0  0
    2.2738    0.8833    0.0000 C   0  0  0  0  0  0  0  0  0  0  0  0
   -0.3252   -0.6183    0.0000 C   0  0  0  0  0  0  0  0  0  0  0  0
    0.9748    1.6333    0.0000 C   0  0  0  0  0  0  0  0  0  0  0  0
   -0.3248    0.8825    0.0000 C   0  0  0  0  0  0  0  0  0  0  0  0
   -2.9228    0.8825    0.0000 N   0  0  0  0  0  0  0  0  0  0  0  0
   -1.6238    1.6325    0.0000 N   0  0  0  0  0  0  0  0  0  0  0  0
  2  1  2  0
  3  1  1  0
  4  2  1  0
  5  3  2  0
  6  4  2  0
  6  5  1  0
  8  6  1  0
  8  7  1  0
M  END
>  <NAME>  (7193) 
PHENYLHYDRAZINE

>  <SYNONYMS>  (7193) 


>  <SPECTRUM TYPE>  (7193) 
MS1

>  <INSTRUMENT TYPE>  (7193) 
EI-B

>  <INSTRUMENT>  (7193) 
SHIMADZU LKB-2091

>  <ION MODE>  (7193) 
P

>  <INCHIKEY>  (7193) 
HKOOXMFOFWEVGF-UHFFFAOYSA-N

>  <FORMULA>  (7193) 
C6H8N2

>  <EXACT MASS>  (7193) 
108.06874825599999

>  <MW>  (7193) 
108

>  <ID>  (7193) 
JP000374

>  <CONTRIBUTOR>  (7193) 
University of Tokyo Team, {Faculty of Engineering, University of Tokyo

>  <COMMENT>  (7193) 
SMILES=NNc(c1)cccc1
InChI=InChI=1S/C6H8N2/c7-8-6-4-2-1-3-5-6/h1-5,8H,7H2
computed SMILES=NNC=1C=CC=CC1
accession=JP000374
date=2016.01.19 (Created 2008.10.21, modified 2011.05.06)
author=SASAKI S, TOYOHASHI UNIV. OF TECH.
license=CC BY-NC-SA
exact mass=108.06875
ionization energy=70 eV
ion type=[M]+*
computed spectral entropy=2.5164641290237992
computed normalized entropy=0.682175755626108
SPLASH=splash10-0a4i-9500000000-c6d9198fcc266a5f2b32
submitter=submitter = University of Tokyo Team (Faculty of Engineering, University of Tokyo)
MoNA Rating=3.75

>  <NUM PEAKS>  (7193) 
40

>  <MASS SPECTRAL PEAKS>  (7193) 
27 2.5
28 2.2
29 2.4
30 0.08
31 1.6
37 1.5
38 3.2
39 0.95
40 1.4
41 1.7
43 1.3
50 0.44
51 11.3
52 4.6
53 2.2
54 0.41
61 0.7
62 1.4
63 4.9
64 0.7
65 31.7
66 3.6
73 0.6
74 0.16
75 0.9
76 1
77 19.7
78 1.36
79 8.4
80 3.2
81 1.4
90 0.07
91 14.9
92 34.9
93 9.8
105 0.08
106 1.9
107 4.9
108 99.99
109 7.9

$$$$

     RDKit          2D

  6  5  0  0  0  0  0  0  0  0999 V2000
    1.2990    2.2500    0.0000 C   0  0  0  0  0  0  0  0  0  0  0  0
   -1.2990    0.7500    0.0000 C   0  0  0  0  0  0  0  0  0  0  0  0
    0.0000    3.0000    0.0000 C   0  0  0  0  0  0  0  0  0  0  0  0
   -1.2990    2.2500    0.0000 C   0  0  0  0  0  0  0  0  0  0  0  0
   -3.8971    2.2500    0.0000 N   0  0  0  0  0  0  0  0  0  0  0  0
   -2.5981    3.0000    0.0000 N   0  0  0  0  0  0  0  0  0  0  0  0
  3  1  2  0
  4  2  1  0
  4  3  1  0
  6  4  1  0
  6  5  1  0
M  END
>  <NAME>  (7194) 
1-METHYL-2-PROPENYLHYDRAZINE

>  <SYNONYMS>  (7194) 


>  <SPECTRUM TYPE>  (7194) 
MS1

>  <INSTRUMENT TYPE>  (7194) 
EI-B

>  <INSTRUMENT>  (7194) 
SHIMADZU LKB-2091

>  <ION MODE>  (7194) 
P

>  <INCHIKEY>  (7194) 
ZXMKECRNTYBFFP-UHFFFAOYSA-N

>  <FORMULA>  (7194) 
C4H10N2

>  <EXACT MASS>  (7194) 
86.08439831999999

>  <MW>  (7194) 
86

>  <ID>  (7194) 
JP000373

>  <CONTRIBUTOR>  (7194) 
University of Tokyo Team, {Faculty of Engineering, University of Tokyo

>  <COMMENT>  (7194) 
SMILES=C=CC(C)NN
InChI=InChI=1S/C4H10N2/c1-3-4(2)6-5/h3-4,6H,1,5H2,2H3
computed SMILES=C=CC(NN)C
accession=JP000373
date=2016.01.19 (Created 2008.10.21, modified 2011.05.06)
license=CC BY-NC-SA
author=SASAKI S, TOYOHASHI UNIV. OF TECH.
exact mass=86.0844
ionization energy=70 eV
ion type=[M]+*
computed spectral entropy=2.738866218648503
computed normalized entropy=0.7902697422605005
SPLASH=splash10-003u-9000000000-a5bf24cc60308aa36048
submitter=submitter = University of Tokyo Team (Faculty of Engineering, University of Tokyo)
MoNA Rating=3.75

>  <NUM PEAKS>  (7194) 
32

>  <MASS SPECTRAL PEAKS>  (7194) 
26 6.7
27 40.1
28 51.7
29 5.09
30 10.2
31 28.5
32 99.99
39 2.63
40 3.9
41 31.5
42 23.1
43 0.81
44 25.2
45 3.3
50 3.2
51 0.4
52 2.4
53 12
54 11.6
55 6.2
56 20.7
57 3.5
58 1.7
59 1.44
68 3.1
69 2.2
70 2
71 5.44
72 2.4
85 1.3
86 30.1
87 2.1

$$$$

     RDKit          2D

  6  5  0  0  0  0  0  0  0  0999 V2000
   -4.5466    3.3750    0.0000 C   0  0  0  0  0  0  0  0  0  0  0  0
   -3.2476    2.6250    0.0000 C   0  0  0  0  0  0  0  0  0  0  0  0
   -1.9486    3.3750    0.0000 C   0  0  0  0  0  0  0  0  0  0  0  0
   -0.6495    2.6250    0.0000 C   0  0  0  0  0  0  0  0  0  0  0  0
    1.9486    2.6250    0.0000 N   0  0  0  0  0  0  0  0  0  0  0  0
    0.6495    3.3750    0.0000 N   0  0  0  0  0  0  0  0  0  0  0  0
  2  1  1  0
  2  3  2  0
  4  3  1  0
  6  4  1  0
  6  5  1  0
M  END
>  <NAME>  (7195) 
CROTYLHYDRAZINE

>  <SYNONYMS>  (7195) 
2-BUTENYLHYDRAZINE

>  <SPECTRUM TYPE>  (7195) 
MS1

>  <INSTRUMENT TYPE>  (7195) 
EI-B

>  <INSTRUMENT>  (7195) 
SHIMADZU LKB-2091

>  <ION MODE>  (7195) 
P

>  <INCHIKEY>  (7195) 
SHHBQSBSBLLJKJ-NSCUHMNNSA-N

>  <FORMULA>  (7195) 
C4H10N2

>  <EXACT MASS>  (7195) 
86.08439831999999

>  <MW>  (7195) 
86

>  <ID>  (7195) 
JP000372

>  <CONTRIBUTOR>  (7195) 
University of Tokyo Team, {Faculty of Engineering, University of Tokyo

>  <COMMENT>  (7195) 
SMILES=CC=CCNN
InChI=InChI=1S/C4H10N2/c1-2-3-4-6-5/h2-3,6H,4-5H2,1H3/b3-2+
computed SMILES=NNCC=CC
accession=JP000372
date=2016.01.19 (Created 2008.10.21, modified 2011.05.06)
author=SASAKI S, TOYOHASHI UNIV. OF TECH.
license=CC BY-NC-SA
exact mass=86.0844
ionization energy=70 eV
ion type=[M]+*
computed spectral entropy=2.7398504780860873
computed normalized entropy=0.7587684196564117
SPLASH=splash10-053r-9000000000-fff334fb691de133bc54
submitter=submitter = University of Tokyo Team (Faculty of Engineering, University of Tokyo)
MoNA Rating=3.75

>  <NUM PEAKS>  (7195) 
37

>  <MASS SPECTRAL PEAKS>  (7195) 
26 3.3
27 24.6
28 23.3
29 4.16
30 7.7
31 26
32 99.99
33 0.2
37 1.6
38 3.3
39 26
40 0.26
41 19.2
42 6.6
43 9.2
44 1.16
45 19.2
50 3.2
51 2.9
52 0.18
53 12
54 6.7
55 67.1
56 0.94
57 2.2
58 4.9
59 3.8
67 0.12
68 7.4
69 3.4
70 2.1
71 2.88
72 2.1
85 1.6
86 32.9
87 0.41
88 0.8

$$$$

     RDKit          2D

  5  4  0  0  0  0  0  0  0  0999 V2000
   -3.8971    2.2500    0.0000 C   0  0  0  0  0  0  0  0  0  0  0  0
   -2.5981    1.5000    0.0000 C   0  0  0  0  0  0  0  0  0  0  0  0
   -1.2990    2.2500    0.0000 C   0  0  0  0  0  0  0  0  0  0  0  0
    1.2990    2.2500    0.0000 N   0  0  0  0  0  0  0  0  0  0  0  0
    0.0000    1.5000    0.0000 N   0  0  0  0  0  0  0  0  0  0  0  0
  2  1  2  0
  3  2  1  0
  5  3  1  0
  5  4  1  0
M  END
>  <NAME>  (7196) 
ALLYLHYDRAZINE

>  <SYNONYMS>  (7196) 


>  <SPECTRUM TYPE>  (7196) 
MS1

>  <INSTRUMENT TYPE>  (7196) 
EI-B

>  <INSTRUMENT>  (7196) 
SHIMADZU LKB-2091

>  <ION MODE>  (7196) 
P

>  <INCHIKEY>  (7196) 
ZTILHLWDFSMCLZ-UHFFFAOYSA-N

>  <FORMULA>  (7196) 
C3H8N2

>  <EXACT MASS>  (7196) 
72.06874825599999

>  <MW>  (7196) 
72

>  <ID>  (7196) 
JP000371

>  <CONTRIBUTOR>  (7196) 
University of Tokyo Team, {Faculty of Engineering, University of Tokyo

>  <COMMENT>  (7196) 
SMILES=C=CCNN
InChI=InChI=1S/C3H8N2/c1-2-3-5-4/h2,5H,1,3-4H2
computed SMILES=C=CCNN
accession=JP000371
date=2016.01.19 (Created 2008.10.21, modified 2011.05.06)
author=SASAKI S, TOYOHASHI UNIV. OF TECH.
license=CC BY-NC-SA
exact mass=72.06875
ionization energy=70 eV
ion type=[M]+*
computed spectral entropy=2.426436987486644
computed normalized entropy=0.7969844325736158
SPLASH=splash10-001i-9000000000-b6177a60ce7bf3d28a98
submitter=submitter = University of Tokyo Team (Faculty of Engineering, University of Tokyo)
MoNA Rating=3.75

>  <NUM PEAKS>  (7196) 
21

>  <MASS SPECTRAL PEAKS>  (7196) 
27 19.5
28 26.4
29 9.4
30 1.52
31 99.99
38 4.3
39 29
40 0.42
41 30.3
42 9.1
43 19.1
44 1.43
45 43.9
52 2.8
54 12.3
55 1.44
56 11.8
57 4.1
71 8.2
72 5.43
73 4.6

$$$$

     RDKit          2D

  9  8  0  0  0  0  0  0  0  0999 V2000
    2.5981    4.5000    0.0000 C   0  0  0  0  0  0  0  0  0  0  0  0
    1.2990    5.2500    0.0000 C   0  0  0  0  0  0  0  0  0  0  0  0
    0.0000    4.5000    0.0000 C   0  0  0  0  0  0  0  0  0  0  0  0
   -1.2990    5.2500    0.0000 C   0  0  0  0  0  0  0  0  0  0  0  0
   -2.5981    4.5000    0.0000 C   0  0  0  0  0  0  0  0  0  0  0  0
   -3.8971    5.2500    0.0000 C   0  0  0  0  0  0  0  0  0  0  0  0
   -5.1962    4.5000    0.0000 C   0  0  0  0  0  0  0  0  0  0  0  0
   -7.7942    4.5000    0.0000 N   0  0  0  0  0  0  0  0  0  0  0  0
   -6.4952    5.2500    0.0000 N   0  0  0  0  0  0  0  0  0  0  0  0
  2  1  1  0
  3  2  1  0
  4  3  1  0
  5  4  1  0
  6  5  1  0
  7  6  1  0
  9  7  1  0
  9  8  1  0
M  END
>  <NAME>  (7197) 
HEPTYLHYDRAZINE

>  <SYNONYMS>  (7197) 


>  <SPECTRUM TYPE>  (7197) 
MS1

>  <INSTRUMENT TYPE>  (7197) 
EI-B

>  <INSTRUMENT>  (7197) 
SHIMADZU LKB-2091

>  <ION MODE>  (7197) 
P

>  <INCHIKEY>  (7197) 
AETGYOWKOXPRCB-UHFFFAOYSA-N

>  <FORMULA>  (7197) 
C7H18N2

>  <EXACT MASS>  (7197) 
130.146998576

>  <MW>  (7197) 
130

>  <ID>  (7197) 
JP000370

>  <CONTRIBUTOR>  (7197) 
University of Tokyo Team, {Faculty of Engineering, University of Tokyo

>  <COMMENT>  (7197) 
SMILES=CCCCCCCNN
InChI=InChI=1S/C7H18N2/c1-2-3-4-5-6-7-9-8/h9H,2-8H2,1H3
computed SMILES=NNCCCCCCC
accession=JP000370
date=2016.01.19 (Created 2008.10.21, modified 2011.05.06)
author=SASAKI S, TOYOHASHI UNIV. OF TECH.
license=CC BY-NC-SA
exact mass=130.147
ionization energy=70 eV
ion type=[M]+*
computed spectral entropy=2.10366241671835
computed normalized entropy=0.5916895843489033
SPLASH=splash10-0002-9000000000-eb0360fb4c0485b588b0
submitter=submitter = University of Tokyo Team (Faculty of Engineering, University of Tokyo)
MoNA Rating=3.75

>  <NUM PEAKS>  (7197) 
35

>  <MASS SPECTRAL PEAKS>  (7197) 
26 0.6
27 8.7
28 6.7
29 1.07
30 9.3
31 5.7
32 10
39 0.35
40 0.7
41 12.7
42 3.2
43 0.93
44 3.8
45 99.99
46 5.3
53 0.08
54 0.7
55 4.2
56 2.1
57 0.37
58 1.3
59 0.7
69 0.8
70 0.12
71 0.8
73 0.9
83 0.6
85 0.03
87 0.4
101 0.4
114 0.3
115 0.02
129 0.5
130 15
131 2.2

$$$$

     RDKit          2D

  6  5  0  0  0  0  0  0  0  0999 V2000
    1.2990    2.2500    0.0000 C   0  0  0  0  0  0  0  0  0  0  0  0
   -1.2990    0.7500    0.0000 C   0  0  0  0  0  0  0  0  0  0  0  0
    0.0000    3.0000    0.0000 C   0  0  0  0  0  0  0  0  0  0  0  0
   -1.2990    2.2500    0.0000 C   0  0  0  0  0  0  0  0  0  0  0  0
   -3.8971    2.2500    0.0000 N   0  0  0  0  0  0  0  0  0  0  0  0
   -2.5981    3.0000    0.0000 N   0  0  0  0  0  0  0  0  0  0  0  0
  3  1  1  0
  4  2  1  0
  4  3  1  0
  6  4  1  0
  6  5  1  0
M  END
>  <NAME>  (7198) 
SEC-BUTYLHYDRAZINE

>  <SYNONYMS>  (7198) 


>  <SPECTRUM TYPE>  (7198) 
MS1

>  <INSTRUMENT TYPE>  (7198) 
EI-B

>  <INSTRUMENT>  (7198) 
SHIMADZU LKB-2091

>  <ION MODE>  (7198) 
P

>  <INCHIKEY>  (7198) 
SFSUYFSIKDDLOL-UHFFFAOYSA-N

>  <FORMULA>  (7198) 
C4H12N2

>  <EXACT MASS>  (7198) 
88.10004838399999

>  <MW>  (7198) 
88

>  <ID>  (7198) 
JP000369

>  <CONTRIBUTOR>  (7198) 
University of Tokyo Team, {Faculty of Engineering, University of Tokyo

>  <COMMENT>  (7198) 
SMILES=CCC(C)NN
InChI=InChI=1S/C4H12N2/c1-3-4(2)6-5/h4,6H,3,5H2,1-2H3
computed SMILES=NNC(C)CC
accession=JP000369
date=2016.01.19 (Created 2008.10.21, modified 2011.05.06)
author=SASAKI S, TOYOHASHI UNIV. OF TECH.
license=CC BY-NC-SA
exact mass=88.10005
ionization energy=70 eV
ion type=[M]+*
computed spectral entropy=2.5419167127788667
computed normalized entropy=0.7208329083299133
SPLASH=splash10-0a59-9000000000-ad8e06f75e9fafa15207
submitter=submitter = University of Tokyo Team (Faculty of Engineering, University of Tokyo)
MoNA Rating=3.75

>  <NUM PEAKS>  (7198) 
34

>  <MASS SPECTRAL PEAKS>  (7198) 
26 2.1
27 14.2
28 17.7
29 2.92
30 9.2
31 16.9
32 43
33 0.22
38 0.8
39 7.7
40 1.5
41 1.92
42 30
43 6.4
44 4.5
45 3.69
46 0.8
51 0.7
53 1.1
54 0.14
55 2.6
56 7.7
57 5.5
58 0.25
59 99.99
60 4.8
70 1.3
71 0.08
72 0.8
73 10.8
74 0.6
87 0.06
88 20
89 5

$$$$

     RDKit          2D

  6  5  0  0  0  0  0  0  0  0999 V2000
    0.0000    0.0000    0.0000 C   0  0  0  0  0  0  0  0  0  0  0  0
    1.2990    2.2500    0.0000 C   0  0  0  0  0  0  0  0  0  0  0  0
   -1.2990    2.2500    0.0000 C   0  0  0  0  0  0  0  0  0  0  0  0
    0.0000    1.5000    0.0000 C   0  0  0  0  0  0  0  0  0  0  0  0
   -2.5981    4.5000    0.0000 N   0  0  0  0  0  0  0  0  0  0  0  0
   -1.2990    3.7500    0.0000 N   0  0  0  0  0  0  0  0  0  0  0  0
  4  1  1  0
  4  2  1  0
  4  3  1  0
  6  3  1  0
  6  5  1  0
M  END
>  <NAME>  (7199) 
ISOBUTYLHYDRAZINE

>  <SYNONYMS>  (7199) 


>  <SPECTRUM TYPE>  (7199) 
MS1

>  <INSTRUMENT TYPE>  (7199) 
EI-B

>  <INSTRUMENT>  (7199) 
SHIMADZU LKB-2091

>  <ION MODE>  (7199) 
P

>  <INCHIKEY>  (7199) 
NGSOWKPBNFOQCR-UHFFFAOYSA-N

>  <FORMULA>  (7199) 
C4H12N2

>  <EXACT MASS>  (7199) 
88.10004838399999

>  <MW>  (7199) 
88

>  <ID>  (7199) 
JP000368

>  <CONTRIBUTOR>  (7199) 
University of Tokyo Team, {Faculty of Engineering, University of Tokyo

>  <COMMENT>  (7199) 
SMILES=NNCC(C)C
InChI=InChI=1S/C4H12N2/c1-4(2)3-6-5/h4,6H,3,5H2,1-2H3
computed SMILES=NNCC(C)C
accession=JP000368
date=2016.01.19 (Created 2008.10.21, modified 2011.05.06)
author=SASAKI S, TOYOHASHI UNIV. OF TECH.
license=CC BY-NC-SA
exact mass=88.10005
ionization energy=70 eV
ion type=[M]+*
computed spectral entropy=2.0871222533819718
computed normalized entropy=0.6198214706280664
SPLASH=splash10-0002-9000000000-c8adf22eec5dc97c2472
submitter=submitter = University of Tokyo Team (Faculty of Engineering, University of Tokyo)
MoNA Rating=3.75

>  <NUM PEAKS>  (7199) 
29

>  <MASS SPECTRAL PEAKS>  (7199) 
26 1
27 8.7
28 16.7
29 1.2
30 6.7
31 10.7
32 8.7
38 0.09
39 7.7
40 1.1
41 12
42 0.33
43 5.3
44 4.1
45 99.99
46 0.52
53 0.6
54 1.1
55 1.5
56 0.27
57 3
58 0.7
59 1.3
70 0.05
71 1.1
73 0.7
87 0.6
88 2.8
89 4.6

$$$$

     RDKit          2D

  5  4  0  0  0  0  0  0  0  0999 V2000
    0.0000    0.0000    0.0000 C   0  0  0  0  0  0  0  0  0  0  0  0
    1.2990    2.2500    0.0000 C   0  0  0  0  0  0  0  0  0  0  0  0
    0.0000    1.5000    0.0000 C   0  0  0  0  0  0  0  0  0  0  0  0
   -1.2990    3.7500    0.0000 N   0  0  0  0  0  0  0  0  0  0  0  0
   -1.2990    2.2500    0.0000 N   0  0  0  0  0  0  0  0  0  0  0  0
  3  1  1  0
  3  2  1  0
  5  3  1  0
  5  4  1  0
M  END
>  <NAME>  (7200) 
ISOPROPYLHYDRAZINE

>  <SYNONYMS>  (7200) 


>  <SPECTRUM TYPE>  (7200) 
MS1

>  <INSTRUMENT TYPE>  (7200) 
EI-B

>  <INSTRUMENT>  (7200) 
SHIMADZU LKB-2091

>  <ION MODE>  (7200) 
P

>  <INCHIKEY>  (7200) 
KJAQRHMKLVGSCG-UHFFFAOYSA-N

>  <FORMULA>  (7200) 
C3H10N2

>  <EXACT MASS>  (7200) 
74.08439831999999

>  <MW>  (7200) 
74

>  <ID>  (7200) 
JP000367

>  <CONTRIBUTOR>  (7200) 
University of Tokyo Team, {Faculty of Engineering, University of Tokyo

>  <COMMENT>  (7200) 
SMILES=NNC(C)C
InChI=InChI=1S/C3H10N2/c1-3(2)5-4/h3,5H,4H2,1-2H3
computed SMILES=NNC(C)C
accession=JP000367
date=2016.01.19 (Created 2008.10.21, modified 2011.05.06)
author=SASAKI S, TOYOHASHI UNIV. OF TECH.
license=CC BY-NC-SA
exact mass=74.0844
ionization energy=70 eV
ion type=[M]+*
computed spectral entropy=2.262620616193769
computed normalized entropy=0.7119516336027727
SPLASH=splash10-0a5c-9000000000-b2c93d60e54e2660e847
submitter=submitter = University of Tokyo Team (Faculty of Engineering, University of Tokyo)
MoNA Rating=3.75

>  <NUM PEAKS>  (7200) 
24

>  <MASS SPECTRAL PEAKS>  (7200) 
26 1.9
27 18.7
28 5.1
29 0.64
30 9
31 23.8
32 66.1
33 0.13
38 1.3
39 8.7
40 2.7
41 2.2
42 35.6
43 15.1
44 2.2
45 0.29
56 5.1
57 1.3
58 1.5
59 99.99
60 3.2
73 1.7
74 34
75 2.7

$$$$

     RDKit          2D

  5  4  0  0  0  0  0  0  0  0999 V2000
   -3.8971    2.2500    0.0000 C   0  0  0  0  0  0  0  0  0  0  0  0
   -2.5981    1.5000    0.0000 C   0  0  0  0  0  0  0  0  0  0  0  0
   -1.2990    2.2500    0.0000 C   0  0  0  0  0  0  0  0  0  0  0  0
    1.2990    2.2500    0.0000 N   0  0  0  0  0  0  0  0  0  0  0  0
    0.0000    1.5000    0.0000 N   0  0  0  0  0  0  0  0  0  0  0  0
  2  1  1  0
  3  2  1  0
  5  3  1  0
  5  4  1  0
M  END
>  <NAME>  (7201) 
PROPYLHYDRAZINE

>  <SYNONYMS>  (7201) 


>  <SPECTRUM TYPE>  (7201) 
MS1

>  <INSTRUMENT TYPE>  (7201) 
EI-B

>  <INSTRUMENT>  (7201) 
SHIMADZU LKB-2091

>  <ION MODE>  (7201) 
P

>  <INCHIKEY>  (7201) 
UKPBXIFLSVLDPA-UHFFFAOYSA-N

>  <FORMULA>  (7201) 
C3H10N2

>  <EXACT MASS>  (7201) 
74.08439831999999

>  <MW>  (7201) 
74

>  <ID>  (7201) 
JP000366

>  <CONTRIBUTOR>  (7201) 
University of Tokyo Team, {Faculty of Engineering, University of Tokyo

>  <COMMENT>  (7201) 
SMILES=CCCNN
InChI=InChI=1S/C3H10N2/c1-2-3-5-4/h5H,2-4H2,1H3
computed SMILES=NNCCC
accession=JP000366
date=2016.01.19 (Created 2008.10.21, modified 2011.05.06)
author=SASAKI S, TOYOHASHI UNIV. OF TECH.
license=CC BY-NC-SA
exact mass=74.0844
ionization energy=70 eV
ion type=[M]+*
computed spectral entropy=1.904256805758516
computed normalized entropy=0.6467299269002356
SPLASH=splash10-0002-9000000000-f8d037835ab76e48c7cd
submitter=submitter = University of Tokyo Team (Faculty of Engineering, University of Tokyo)
MoNA Rating=3.75

>  <NUM PEAKS>  (7201) 
19

>  <MASS SPECTRAL PEAKS>  (7201) 
29 10.8
30 7.7
31 14.5
32 0.25
39 7.2
40 1.7
41 14.5
42 0.62
43 11.3
44 3.4
45 99.99
46 0.25
56 2.9
57 1.3
58 0.6
59 0.19
73 1.6
74 26.4
75 4.6

$$$$

     RDKit          2D

  4  3  0  0  0  0  0  0  0  0999 V2000
   -2.5981    2.2500    0.0000 C   0  0  0  0  0  0  0  0  0  0  0  0
   -1.2990    1.5000    0.0000 C   0  0  0  0  0  0  0  0  0  0  0  0
    1.2990    1.5000    0.0000 N   0  0  0  0  0  0  0  0  0  0  0  0
    0.0000    2.2500    0.0000 N   0  0  0  0  0  0  0  0  0  0  0  0
  2  1  1  0
  4  2  1  0
  4  3  1  0
M  END
>  <NAME>  (7202) 
ETHYLHYDRAZINE

>  <SYNONYMS>  (7202) 


>  <SPECTRUM TYPE>  (7202) 
MS1

>  <INSTRUMENT TYPE>  (7202) 
EI-B

>  <INSTRUMENT>  (7202) 
SHIMADZU LKB-2091

>  <ION MODE>  (7202) 
P

>  <INCHIKEY>  (7202) 
WHRIKZCFRVTHJH-UHFFFAOYSA-N

>  <FORMULA>  (7202) 
C2H8N2

>  <EXACT MASS>  (7202) 
60.06874825599999

>  <MW>  (7202) 
60

>  <ID>  (7202) 
JP000365

>  <CONTRIBUTOR>  (7202) 
University of Tokyo Team, {Faculty of Engineering, University of Tokyo

>  <COMMENT>  (7202) 
SMILES=CCNN
InChI=InChI=1S/C2H8N2/c1-2-4-3/h4H,2-3H2,1H3
computed SMILES=NNCC
accession=JP000365
date=2016.01.19 (Created 2008.10.21, modified 2011.05.06)
author=SASAKI S, TOYOHASHI UNIV. OF TECH.
license=CC BY-NC-SA
exact mass=60.06875
ionization energy=70 eV
ion type=[M]+*
computed spectral entropy=2.099834370852741
computed normalized entropy=0.7009419330925722
SPLASH=splash10-000t-9000000000-bee1d7bd092d172a0e4d
submitter=submitter = University of Tokyo Team (Faculty of Engineering, University of Tokyo)
MoNA Rating=3.75

>  <NUM PEAKS>  (7202) 
20

>  <MASS SPECTRAL PEAKS>  (7202) 
26 3.1
27 12.6
28 11.9
29 1.05
30 10.5
31 31
32 11.4
39 0.1
40 2.9
41 5
42 25.9
43 0.46
44 2.4
45 99.99
46 2.2
57 0.08
58 1.4
59 5.6
60 42.8
61 1.9

$$$$

     RDKit          2D

 18 19  0  0  0  0  0  0  0  0999 V2000
    8.1345    2.0393    0.0000 C   0  0  0  0  0  0  0  0  0  0  0  0
   -4.8741    2.0753    0.0000 C   0  0  0  0  0  0  0  0  0  0  0  0
   -3.5783    1.3180    0.0000 C   0  0  0  0  0  0  0  0  0  0  0  0
   -4.8672    3.5761    0.0000 C   0  0  0  0  0  0  0  0  0  0  0  0
   -2.2755    2.0616    0.0000 C   0  0  0  0  0  0  0  0  0  0  0  0
   -3.5644    4.3197    0.0000 C   0  0  0  0  0  0  0  0  0  0  0  0
   -0.9659    4.3060    0.0000 C   0  0  0  0  0  0  0  0  0  0  0  0
    4.2265    4.2869    0.0000 C   0  0  0  0  0  0  0  0  0  0  0  0
    2.9129    2.0620    0.0000 C   0  0  0  0  0  0  0  0  0  0  0  0
    5.5110    3.5620    0.0000 C   0  0  0  0  0  0  0  0  0  0  0  0
    4.2374    1.2679    0.0000 C   0  0  0  0  0  0  0  0  0  0  0  0
    0.3294    3.5497    0.0000 C   0  0  0  0  0  0  0  0  0  0  0  0
   -2.2686    3.5624    0.0000 C   0  0  0  0  0  0  0  0  0  0  0  0
    2.9274    3.5369    0.0000 C   0  0  0  0  0  0  0  0  0  0  0  0
    5.5365    2.0179    0.0000 C   0  0  0  0  0  0  0  0  0  0  0  0
    1.6321    4.2933    0.0000 C   0  0  0  0  0  0  0  0  0  0  0  0
    1.6395    5.7932    0.0000 O   0  0  0  0  0  0  0  0  0  0  0  0
    6.8417    1.2786    0.0000 O   0  0  0  0  0  0  0  0  0  0  0  0
  3  2  2  0
  4  2  1  0
  5  3  1  0
  6  4  2  0
 10  8  2  0
 11  9  1  0
  7 12  2  0
 13  5  2  0
 13  6  1  0
 13  7  1  0
 14  8  1  0
 14  9  2  0
 15 10  1  0
 15 11  2  0
 16 12  1  0
 16 14  1  0
 17 16  2  0
 18  1  1  0
 18 15  1  0
M  END
>  <NAME>  (7203) 
4'-METHOXYCHALCONE

>  <SYNONYMS>  (7203) 
1-(4-METHOXYPHENYL)-3-PHENYL-2-PROPEN-1-ONE

>  <SPECTRUM TYPE>  (7203) 
MS1

>  <INSTRUMENT TYPE>  (7203) 
EI-B

>  <INSTRUMENT>  (7203) 
HITACHI RMU-6D

>  <ION MODE>  (7203) 
P

>  <INCHIKEY>  (7203) 
KJHHAPASNNVTSN-KPKJPENVSA-N

>  <FORMULA>  (7203) 
C16H14O2

>  <EXACT MASS>  (7203) 
238.099379688

>  <MW>  (7203) 
238

>  <ID>  (7203) 
JP000364

>  <CONTRIBUTOR>  (7203) 
University of Tokyo Team, {Faculty of Engineering, University of Tokyo

>  <COMMENT>  (7203) 
SMILES=COc(c2)ccc(c2)C(=O)C=Cc(c1)cccc1
InChI=InChI=1S/C16H14O2/c1-18-15-10-8-14(9-11-15)16(17)12-7-13-5-3-2-4-6-13/h2-12H,1H3/b12-7+
computed SMILES=O=C(C=CC=1C=CC=CC1)C2=CC=C(OC)C=C2
ion type=[M]+*
accession=JP000364
date=2016.01.19 (Created 2008.10.21, modified 2011.05.06)
author=SASAKI S, TOYOHASHI UNIV. OF TECH.
license=CC BY-NC-SA
exact mass=238.09938
ionization energy=70 eV
computed spectral entropy=3.2346807231890384
computed normalized entropy=0.7153542603931341
SPLASH=splash10-002r-9640000000-b17626c6d451f2b04fe7
submitter=submitter = University of Tokyo Team (Faculty of Engineering, University of Tokyo)
MoNA Rating=3.75

>  <NUM PEAKS>  (7203) 
92

>  <MASS SPECTRAL PEAKS>  (7203) 
14 2.5
15 3
16 1
17 0.4
18 16
27 9
28 61.5
29 0.4
32 28
33 2.5
37 2
38 0.4
39 7.5
40 1
42 1.5
45 0.5
46 2
47 1
48 1.5
50 3.1
51 42
52 6
53 3
54 0.1
56 1.5
61 2
62 11
63 1.4
64 2
65 1
74 5
75 0.4
76 7
77 82
81 1
82 0.1
83 1
84 1
85 1
86 0.1
87 2
92 24
93 2.5
103 1.8
104 2
105 37
106 33
107 1.7
108 4
109 1
115 2
116 0.1
117 1
118 1
127 2
131 1.1
132 0.5
133 1.5
135 99.99
136 0.75
137 1
140 1
142 1.5
149 0.2
150 17.5
151 2
152 3
153 0.1
160 2
161 1
177 1
178 0.1
179 2
180 2
194 2
195 0.8
196 1
205 1
206 1
207 0.4
208 1
209 3
210 8.5
211 0.1
222 1
223 11
224 1
236 0.1
237 46.5
238 73
239 7
240 1.5

$$$$

     RDKit          2D

 18 19  0  0  0  0  0  0  0  0999 V2000
    8.1345    2.0393    0.0000 C   0  0  0  0  0  0  0  0  0  0  0  0
   -4.8741    2.0753    0.0000 C   0  0  0  0  0  0  0  0  0  0  0  0
   -3.5783    1.3180    0.0000 C   0  0  0  0  0  0  0  0  0  0  0  0
   -4.8672    3.5761    0.0000 C   0  0  0  0  0  0  0  0  0  0  0  0
   -2.2755    2.0616    0.0000 C   0  0  0  0  0  0  0  0  0  0  0  0
   -3.5644    4.3197    0.0000 C   0  0  0  0  0  0  0  0  0  0  0  0
    4.2265    4.2869    0.0000 C   0  0  0  0  0  0  0  0  0  0  0  0
    2.9129    2.0620    0.0000 C   0  0  0  0  0  0  0  0  0  0  0  0
    1.6321    4.2933    0.0000 C   0  0  0  0  0  0  0  0  0  0  0  0
    5.5110    3.5620    0.0000 C   0  0  0  0  0  0  0  0  0  0  0  0
    4.2374    1.2679    0.0000 C   0  0  0  0  0  0  0  0  0  0  0  0
    0.3294    3.5497    0.0000 C   0  0  0  0  0  0  0  0  0  0  0  0
    2.9274    3.5369    0.0000 C   0  0  0  0  0  0  0  0  0  0  0  0
   -2.2686    3.5624    0.0000 C   0  0  0  0  0  0  0  0  0  0  0  0
    5.5365    2.0179    0.0000 C   0  0  0  0  0  0  0  0  0  0  0  0
   -0.9659    4.3060    0.0000 C   0  0  0  0  0  0  0  0  0  0  0  0
   -0.9585    5.8060    0.0000 O   0  0  0  0  0  0  0  0  0  0  0  0
    6.8417    1.2786    0.0000 O   0  0  0  0  0  0  0  0  0  0  0  0
  3  2  2  0
  4  2  1  0
  5  3  1  0
  6  4  2  0
 10  7  2  0
 11  8  1  0
  9 12  2  0
 13  7  1  0
 13  8  2  0
 13  9  1  0
 14  5  2  0
 14  6  1  0
 15 10  1  0
 15 11  2  0
 16 12  1  0
 16 14  1  0
 17 16  2  0
 18  1  1  0
 18 15  1  0
M  END
>  <NAME>  (7204) 
4-METHOXYCHALCONE

>  <SYNONYMS>  (7204) 
3-(4-METHOXYPHENYL)-1-PHENYL-2-PROPEN-1-ONE

>  <SPECTRUM TYPE>  (7204) 
MS1

>  <INSTRUMENT TYPE>  (7204) 
EI-B

>  <INSTRUMENT>  (7204) 
HITACHI RMU-6D

>  <ION MODE>  (7204) 
P

>  <INCHIKEY>  (7204) 
XUFXKBJMCRJATM-FMIVXFBMSA-N

>  <FORMULA>  (7204) 
C16H14O2

>  <EXACT MASS>  (7204) 
238.099379688

>  <MW>  (7204) 
238

>  <ID>  (7204) 
JP000363

>  <CONTRIBUTOR>  (7204) 
University of Tokyo Team, {Faculty of Engineering, University of Tokyo

>  <COMMENT>  (7204) 
SMILES=COc(c2)ccc(c2)C=CC(=O)c(c1)cccc1
InChI=InChI=1S/C16H14O2/c1-18-15-10-7-13(8-11-15)9-12-16(17)14-5-3-2-4-6-14/h2-12H,1H3/b12-9+
computed SMILES=O=C(C=CC1=CC=C(OC)C=C1)C=2C=CC=CC2
accession=JP000363
date=2016.01.19 (Created 2008.10.21, modified 2011.05.06)
author=SASAKI S, TOYOHASHI UNIV. OF TECH.
license=CC BY-NC-SA
exact mass=238.09938
ionization energy=70 eV
ion type=[M]+*
computed spectral entropy=3.0114772832914047
computed normalized entropy=0.7514916140212845
SPLASH=splash10-000i-3970000000-42f552356e35d2c1010a
submitter=submitter = University of Tokyo Team (Faculty of Engineering, University of Tokyo)
MoNA Rating=3.75

>  <NUM PEAKS>  (7204) 
55

>  <MASS SPECTRAL PEAKS>  (7204) 
28 3
29 1.5
38 5
51 1.85
52 2.5
53 2
74 3
75 0.4
76 7
77 55
78 8
79 0.7
101 2.5
102 5.5
103 6.5
104 0.25
105 30
107 1.5
108 48
109 0.35
126 1.5
127 1.5
129 5
131 0.1
132 2
133 31
134 4.5
151 0.2
152 7
154 2
161 58
162 1.5
163 1.5
164 10
165 4
166 1
167 2
176 2
177 3
178 0.5
179 7
194 3
195 13
196 0.2
207 12
208 2
209 5
210 0.5
221 2
222 1.5
223 22
224 0.4
237 44
238 99.99
239 17

$$$$

     RDKit          2D

  8  9  0  0  0  0  0  0  0  0999 V2000
    1.6796    2.0493    0.0000 C   0  0  0  0  0  0  0  0  0  0  0  0
   -1.6700   -0.7500    0.0000 C   0  0  0  0  0  0  0  0  0  0  0  0
   -1.6700    0.7500    0.0000 C   0  0  0  0  0  0  0  0  0  0  0  0
   -0.3700   -1.5000    0.0000 C   0  0  0  0  0  0  0  0  0  0  0  0
   -0.3700    1.5000    0.0000 C   0  0  0  0  0  0  0  0  0  0  0  0
    0.9300   -0.7500    0.0000 C   0  0  0  0  0  0  0  0  0  0  0  0
    0.9300    0.7500    0.0000 C   0  0  0  0  0  0  0  0  0  0  0  0
    2.2300   -0.0000    0.0000 O   0  0  0  0  0  0  0  0  0  0  0  0
  3  2  1  0
  4  2  1  0
  5  3  1  0
  6  4  1  0
  7  1  1  0
  7  5  1  0
  7  6  1  0
  8  6  1  0
  8  7  1  0
M  END
>  <NAME>  (7205) 
1-METHYL-1,2-EPOXYCYCLOHEXANE

>  <SYNONYMS>  (7205) 


>  <SPECTRUM TYPE>  (7205) 
MS1

>  <INSTRUMENT TYPE>  (7205) 
EI-B

>  <INSTRUMENT>  (7205) 
HITACHI RMU-6D

>  <ION MODE>  (7205) 
P

>  <INCHIKEY>  (7205) 
FIEKVYPYFQSFTP-UHFFFAOYSA-N

>  <FORMULA>  (7205) 
C7H12O

>  <EXACT MASS>  (7205) 
112.088815004

>  <MW>  (7205) 
112

>  <ID>  (7205) 
JP000362

>  <CONTRIBUTOR>  (7205) 
University of Tokyo Team, {Faculty of Engineering, University of Tokyo

>  <COMMENT>  (7205) 
SMILES=CC(C2)(O1)C(CCC2)1
InChI=InChI=1S/C7H12O/c1-7-5-3-2-4-6(7)8-7/h6H,2-5H2,1H3
computed SMILES=O1C2CCCCC12C
accession=JP000362
date=2016.01.19 (Created 2008.10.21, modified 2011.05.06)
author=SASAKI S, TOYOHASHI UNIV. OF TECH.
license=CC BY-NC-SA
exact mass=112.08882
ionization energy=70 eV
ion type=[M]+*
computed spectral entropy=3.087539209339012
computed normalized entropy=0.7704722983147455
SPLASH=splash10-0007-9000000000-d645f91fc5e55758f354
submitter=submitter = University of Tokyo Team (Faculty of Engineering, University of Tokyo)
MoNA Rating=3.75

>  <NUM PEAKS>  (7205) 
55

>  <MASS SPECTRAL PEAKS>  (7205) 
15 3
18 2
26 1.5
27 2.15
28 10.5
29 14
30 0.5
31 0.07
32 1
38 1.5
39 32
40 0.8
41 59
42 21.5
43 80
44 1.8
45 3
47 1
50 1.5
51 0.3
52 1.5
53 14
54 9
55 5.7
56 14
57 19
58 26
59 0.3
65 2
66 4
67 26
68 2.3
69 37
70 8
71 34
72 0.4
77 2.5
79 5
81 4
82 0.2
83 19.5
84 17
85 4.5
86 0.05
87 0.5
91 1
94 0.5
95 0.05
96 0.5
97 99.99
98 8
99 0.05
111 8
112 22
113 1.5

$$$$

     RDKit          2D

 11 12  0  0  0  0  0  0  0  0999 V2000
   -1.4390   -4.0000    0.0000 C   0  0  0  0  0  0  0  0  0  0  0  0
    1.1590   -4.0000    0.0000 C   0  0  0  0  0  0  0  0  0  0  0  0
   -0.8896    2.5493    0.0000 C   0  0  0  0  0  0  0  0  0  0  0  0
   -1.4400   -1.0000    0.0000 C   0  0  0  0  0  0  0  0  0  0  0  0
   -1.4400    0.5000    0.0000 C   0  0  0  0  0  0  0  0  0  0  0  0
    1.1600   -1.0000    0.0000 C   0  0  0  0  0  0  0  0  0  0  0  0
   -0.1400   -3.2500    0.0000 C   0  0  0  0  0  0  0  0  0  0  0  0
   -0.1400   -1.7500    0.0000 C   0  0  0  0  0  0  0  0  0  0  0  0
    1.1600    0.5000    0.0000 C   0  0  0  0  0  0  0  0  0  0  0  0
   -0.1400    1.2500    0.0000 C   0  0  0  0  0  0  0  0  0  0  0  0
    1.1600    2.0000    0.0000 O   0  0  0  0  0  0  0  0  0  0  0  0
  5  4  1  0
  7  1  1  0
  7  2  1  0
  8  4  1  0
  8  6  1  0
  8  7  1  0
  9  6  1  0
 10  3  1  0
 10  5  1  0
 10  9  1  0
 11  9  1  0
 11 10  1  0
M  END
>  <NAME>  (7206) 
1,2-EPOXY MENTHANE

>  <SYNONYMS>  (7206) 


>  <SPECTRUM TYPE>  (7206) 
MS1

>  <INSTRUMENT TYPE>  (7206) 
EI-B

>  <INSTRUMENT>  (7206) 
HITACHI RMU-6D

>  <ION MODE>  (7206) 
P

>  <INCHIKEY>  (7206) 
WSHVHJSDSVPPIV-UHFFFAOYSA-N

>  <FORMULA>  (7206) 
C10H18O

>  <EXACT MASS>  (7206) 
154.135765196

>  <MW>  (7206) 
154

>  <ID>  (7206) 
JP000361

>  <CONTRIBUTOR>  (7206) 
University of Tokyo Team, {Faculty of Engineering, University of Tokyo

>  <COMMENT>  (7206) 
SMILES=CC(C)C(C2)CC(O1)C(C)(C2)1
InChI=InChI=1S/C10H18O/c1-7(2)8-4-5-10(3)9(6-8)11-10/h7-9H,4-6H2,1-3H3
computed SMILES=O1C2CC(CCC12C)C(C)C
accession=JP000361
date=2016.01.19 (Created 2008.10.21, modified 2011.05.06)
author=SASAKI S, TOYOHASHI UNIV. OF TECH.
license=CC BY-NC-SA
exact mass=154.13577
ionization energy=70 eV
ion type=[M]+*
computed spectral entropy=3.7317960378790525
computed normalized entropy=0.829323085037318
SPLASH=splash10-06zc-9200000000-c24bc0b83a9c600aea53
submitter=submitter = University of Tokyo Team (Faculty of Engineering, University of Tokyo)
MoNA Rating=3.75

>  <NUM PEAKS>  (7206) 
90

>  <MASS SPECTRAL PEAKS>  (7206) 
15 12
18 2
25 2
26 4.4
27 10
28 36
29 0.5
30 0.4
31 0.5
37 0.5
38 2
39 5
40 10.5
41 65
42 20
43 8.6
44 31
45 10
50 6
51 1.65
52 3.5
53 25
54 13.5
55 7.9
56 64
57 22
58 18
59 1.3
62 0.5
63 1.7
64 0.5
65 0.7
66 3
67 46
68 29
69 8.6
70 22
71 77
72 9
73 1.3
74 2
75 1.3
76 1.5
77 3.6
78 3.5
79 11
80 4
81 4.4
82 21.5
83 59
84 54.5
85 2.9
86 5
87 0.5
91 10
92 0.3
93 32
94 8
95 51.5
96 1.6
97 21
98 14
99 3
105 4.05
106 3
107 6
108 18
109 1.3
110 16
111 99.99
112 14
113 0.4
119 1.5
121 9
122 1
123 0.55
124 0.5
125 17
126 11
127 0.1
129 1
135 1
136 14
137 0.2
138 5
139 37
140 3.5
141 0.05
154 5
155 0.5

$$$$

     RDKit          2D

 11 12  0  0  0  0  0  0  0  0999 V2000
   -0.1392    3.8481    0.0000 C   0  0  0  0  0  0  0  0  0  0  0  0
   -2.3896    2.5498    0.0000 C   0  0  0  0  0  0  0  0  0  0  0  0
   -0.1400   -3.2500    0.0000 C   0  0  0  0  0  0  0  0  0  0  0  0
   -1.4400   -1.0000    0.0000 C   0  0  0  0  0  0  0  0  0  0  0  0
   -1.4400    0.5000    0.0000 C   0  0  0  0  0  0  0  0  0  0  0  0
    1.1600   -1.0000    0.0000 C   0  0  0  0  0  0  0  0  0  0  0  0
   -0.8896    2.5493    0.0000 C   0  0  0  0  0  0  0  0  0  0  0  0
   -0.1400   -1.7500    0.0000 C   0  0  0  0  0  0  0  0  0  0  0  0
    1.1600    0.5000    0.0000 C   0  0  0  0  0  0  0  0  0  0  0  0
   -0.1400    1.2500    0.0000 C   0  0  0  0  0  0  0  0  0  0  0  0
    1.1600    2.0000    0.0000 O   0  0  0  0  0  0  0  0  0  0  0  0
  5  4  1  0
  7  1  1  0
  7  2  1  0
  8  3  1  0
  8  4  1  0
  8  6  1  0
  9  6  1  0
 10  5  1  0
 10  7  1  0
 10  9  1  0
 11  9  1  0
 11 10  1  0
M  END
>  <NAME>  (7207) 
3,4-EPOXY MENTHANE

>  <SYNONYMS>  (7207) 


>  <SPECTRUM TYPE>  (7207) 
MS1

>  <INSTRUMENT TYPE>  (7207) 
EI-B

>  <INSTRUMENT>  (7207) 
HITACHI RMU-6D

>  <ION MODE>  (7207) 
P

>  <INCHIKEY>  (7207) 
PPERHRAPFJGBED-UHFFFAOYSA-N

>  <FORMULA>  (7207) 
C10H18O

>  <EXACT MASS>  (7207) 
154.135765196

>  <MW>  (7207) 
154

>  <ID>  (7207) 
JP000360

>  <CONTRIBUTOR>  (7207) 
University of Tokyo Team, {Faculty of Engineering, University of Tokyo

>  <COMMENT>  (7207) 
SMILES=CC(C2)CC(O1)C(C2)(C(C)C)1
InChI=InChI=1S/C10H18O/c1-7(2)10-5-4-8(3)6-9(10)11-10/h7-9H,4-6H2,1-3H3
computed SMILES=O1C2CC(C)CCC12C(C)C
accession=JP000360
date=2016.01.19 (Created 2008.10.21, modified 2011.05.06)
author=SASAKI S, TOYOHASHI UNIV. OF TECH.
license=CC BY-NC-SA
exact mass=154.13577
ionization energy=70 eV
ion type=[M]+*
computed spectral entropy=3.3398911185283198
computed normalized entropy=0.7579087595838483
SPLASH=splash10-052f-9200000000-528dc9debe987dec5627
submitter=submitter = University of Tokyo Team (Faculty of Engineering, University of Tokyo)
MoNA Rating=3.75

>  <NUM PEAKS>  (7207) 
82

>  <MASS SPECTRAL PEAKS>  (7207) 
15 0.5
17 0.7
18 5
26 0.05
27 8
28 19
39 25
40 0.5
41 73
42 12
43 99.99
44 0.5
45 2
51 2.5
52 1
53 1.5
54 4.5
55 88
56 65
57 1.45
58 1.5
59 2
65 3
66 0.2
67 21.7
68 22
69 82
70 2.5
71 73
72 4.5
73 1
77 0.5
78 0.5
79 8
80 1.5
81 2.65
82 6
83 32
84 11
85 0.5
86 13
87 2
91 3
92 0.03
93 8
94 2
95 23.5
96 0.3
97 14
98 7
99 42.5
100 0.4
107 1
108 0.5
109 6
110 0.5
111 75
112 12
113 5
114 0.05
115 2
119 3
121 4
123 0.1
124 0.5
125 32.5
126 5
127 0.3
128 13
129 0.8
134 0.5
135 0.05
136 0.5
137 0.5
138 0.5
139 7
140 7
141 0.5
142 0.5
153 0.1
154 45
155 6

$$$$

     RDKit          2D

 11 12  0  0  0  0  0  0  0  0999 V2000
    1.1590   -4.0000    0.0000 C   0  0  0  0  0  0  0  0  0  0  0  0
   -1.4390   -4.0000    0.0000 C   0  0  0  0  0  0  0  0  0  0  0  0
   -0.8896    2.5493    0.0000 C   0  0  0  0  0  0  0  0  0  0  0  0
   -1.4400   -1.0000    0.0000 C   0  0  0  0  0  0  0  0  0  0  0  0
   -1.4400    0.5000    0.0000 C   0  0  0  0  0  0  0  0  0  0  0  0
    1.1600   -1.0000    0.0000 C   0  0  0  0  0  0  0  0  0  0  0  0
   -0.1400   -3.2500    0.0000 C   0  0  0  0  0  0  0  0  0  0  0  0
   -0.1400   -1.7500    0.0000 C   0  0  0  0  0  0  0  0  0  0  0  0
    1.1600    0.5000    0.0000 C   0  0  0  0  0  0  0  0  0  0  0  0
   -0.1400    1.2500    0.0000 C   0  0  0  0  0  0  0  0  0  0  0  0
    1.1600    2.0000    0.0000 O   0  0  0  0  0  0  0  0  0  0  0  0
  5  4  1  0
  7  1  2  0
  7  2  1  0
  8  4  1  0
  8  6  1  0
  8  7  1  0
  9  6  1  0
 10  3  1  0
 10  5  1  0
 10  9  1  0
 11  9  1  0
 11 10  1  0
M  END
>  <NAME>  (7208) 
D-LIMONENE 1,2-EPOXIDE

>  <SYNONYMS>  (7208) 


>  <SPECTRUM TYPE>  (7208) 
MS1

>  <INSTRUMENT TYPE>  (7208) 
EI-B

>  <INSTRUMENT>  (7208) 
HITACHI RMU-6D

>  <ION MODE>  (7208) 
P

>  <INCHIKEY>  (7208) 
CCEFMUBVSUDRLG-UHFFFAOYSA-N

>  <FORMULA>  (7208) 
C10H16O

>  <EXACT MASS>  (7208) 
152.120115132

>  <MW>  (7208) 
152

>  <ID>  (7208) 
JP000359

>  <CONTRIBUTOR>  (7208) 
University of Tokyo Team, {Faculty of Engineering, University of Tokyo

>  <COMMENT>  (7208) 
SMILES=CC(=C)C(C2)CC(O1)C(C)(C2)1
InChI=InChI=1S/C10H16O/c1-7(2)8-4-5-10(3)9(6-8)11-10/h8-9H,1,4-6H2,2-3H3
computed SMILES=O1C2CC(C(=C)C)CCC12C
accession=JP000359
date=2016.01.19 (Created 2008.10.21, modified 2011.05.06)
author=SASAKI S, TOYOHASHI UNIV. OF TECH.
license=CC BY-NC-SA
exact mass=152.12012
ionization energy=70 eV
ion type=[M]+*
computed spectral entropy=3.8560697228284564
computed normalized entropy=0.8679658834789435
SPLASH=splash10-052f-9200000000-fecff1839cd311e2483c
submitter=submitter = University of Tokyo Team (Faculty of Engineering, University of Tokyo)
MoNA Rating=3.75

>  <NUM PEAKS>  (7208) 
85

>  <MASS SPECTRAL PEAKS>  (7208) 
15 27
17 1
18 16
26 0.9
27 55
28 32
29 55
30 0.2
31 10
37 2
39 68
40 4.1
41 75
42 40
43 99.99
44 5.7
45 29
50 16
51 40
52 2.6
53 60
54 41
55 86
56 3.9
57 19
58 18
59 13
62 0.4
63 15
64 4
65 42
66 2.9
67 91
68 61
69 71
70 1.4
71 64
72 11
74 1
75 0.1
77 53
78 21
79 85
80 3.9
81 69
82 64
83 52
84 5.3
85 5
88 1
91 60
92 3.8
93 86
94 88
95 88
96 2.8
97 31
98 1
102 1
103 0.5
104 2
105 34
106 17
107 4.6
108 87
109 97
110 45
111 1.7
115 2
117 5
120 61
121 0.8
122 61
123 25
124 2
129 0.5
133 2
134 26
135 4
136 0.4
137 78
138 14
151 2
152 3.3
153 3

$$$$

     RDKit          2D

 10 10  0  0  0  0  0  0  0  0999 V2000
    0.0000    3.0000    0.0000 C   0  0  0  0  0  0  0  0  0  0  0  0
   -2.5989   -1.5002    0.0000 C   0  0  0  0  0  0  0  0  0  0  0  0
    3.8981   -0.7504    0.0000 C   0  0  0  0  0  0  0  0  0  0  0  0
    1.3000    0.7500    0.0000 C   0  0  0  0  0  0  0  0  0  0  0  0
    0.0000    1.5000    0.0000 C   0  0  0  0  0  0  0  0  0  0  0  0
   -1.3000   -0.7500    0.0000 C   0  0  0  0  0  0  0  0  0  0  0  0
    1.3000   -0.7500    0.0000 C   0  0  0  0  0  0  0  0  0  0  0  0
   -1.3000    0.7500    0.0000 N   0  0  0  0  0  0  0  0  0  0  0  0
   -0.0000   -1.5000    0.0000 N   0  0  0  0  0  0  0  0  0  0  0  0
    2.5989   -1.5002    0.0000 O   0  0  0  0  0  0  0  0  0  0  0  0
  5  1  1  0
  5  4  2  0
  6  2  1  0
  7  4  1  0
  8  5  1  0
  8  6  2  0
  9  6  1  0
  9  7  2  0
 10  3  1  0
 10  7  1  0
M  END
>  <NAME>  (7209) 
4-METHOXY-2,6-DIMETHYLPYRIMIDINE

>  <SYNONYMS>  (7209) 


>  <SPECTRUM TYPE>  (7209) 
MS1

>  <INSTRUMENT TYPE>  (7209) 
EI-B

>  <INSTRUMENT>  (7209) 
HITACHI RMU-6D

>  <ION MODE>  (7209) 
P

>  <INCHIKEY>  (7209) 
NBLOKQVJTMLMRG-UHFFFAOYSA-N

>  <FORMULA>  (7209) 
C7H10N2O

>  <EXACT MASS>  (7209) 
138.07931294

>  <MW>  (7209) 
138

>  <ID>  (7209) 
JP000350

>  <CONTRIBUTOR>  (7209) 
University of Tokyo Team, {Faculty of Engineering, University of Tokyo

>  <COMMENT>  (7209) 
SMILES=COc(c1)nc(C)nc(C)1
InChI=InChI=1S/C7H10N2O/c1-5-4-7(10-3)9-6(2)8-5/h4H,1-3H3
computed SMILES=N=1C(=NC(=CC1OC)C)C
accession=JP000350
date=2016.01.19 (Created 2008.10.21, modified 2011.05.06)
author=SASAKI S, TOYOHASHI UNIV. OF TECH.
license=CC BY-NC-SA
exact mass=138.07931
ionization energy=70 eV
ion type=[M]+*
computed spectral entropy=1.6039307538499403
computed normalized entropy=0.8951707979760045
SPLASH=splash10-00kr-8900000000-461281aa0ed7a972d570
submitter=submitter = University of Tokyo Team (Faculty of Engineering, University of Tokyo)
MoNA Rating=3.75

>  <NUM PEAKS>  (7209) 
6

>  <MASS SPECTRAL PEAKS>  (7209) 
39 55
67 99.99
108 40
109 3.5
137 54
138 68

$$$$

     RDKit          2D

 12 12  0  0  0  0  0  0  0  0999 V2000
   -3.8981   -0.7504    0.0000 C   0  0  0  0  0  0  0  0  0  0  0  0
    5.1970   -1.5006    0.0000 C   0  0  0  0  0  0  0  0  0  0  0  0
    0.0000    3.0000    0.0000 C   0  0  0  0  0  0  0  0  0  0  0  0
   -2.5989   -1.5002    0.0000 C   0  0  0  0  0  0  0  0  0  0  0  0
    3.8981   -0.7504    0.0000 C   0  0  0  0  0  0  0  0  0  0  0  0
    1.3000    0.7500    0.0000 C   0  0  0  0  0  0  0  0  0  0  0  0
    0.0000    1.5000    0.0000 C   0  0  0  0  0  0  0  0  0  0  0  0
   -1.3000   -0.7500    0.0000 C   0  0  0  0  0  0  0  0  0  0  0  0
    1.3000   -0.7500    0.0000 C   0  0  0  0  0  0  0  0  0  0  0  0
   -1.3000    0.7500    0.0000 N   0  0  0  0  0  0  0  0  0  0  0  0
    0.0000   -1.5000    0.0000 N   0  0  0  0  0  0  0  0  0  0  0  0
    2.5989   -1.5002    0.0000 O   0  0  0  0  0  0  0  0  0  0  0  0
  4  1  1  0
  5  2  1  0
  7  3  1  0
  7  6  2  0
  8  4  1  0
  9  6  1  0
 10  7  1  0
 10  8  2  0
 11  8  1  0
 11  9  2  0
 12  5  1  0
 12  9  1  0
M  END
>  <NAME>  (7210) 
4-ETHOXY-2-ETHYL-6-METHYLPRIMIDINE

>  <SYNONYMS>  (7210) 


>  <SPECTRUM TYPE>  (7210) 
MS1

>  <INSTRUMENT TYPE>  (7210) 
EI-B

>  <INSTRUMENT>  (7210) 
HITACHI RMU-6D

>  <ION MODE>  (7210) 
P

>  <INCHIKEY>  (7210) 
GFBRLSQLXXVWNF-UHFFFAOYSA-N

>  <FORMULA>  (7210) 
C9H14N2O

>  <EXACT MASS>  (7210) 
166.11061306800002

>  <MW>  (7210) 
166

>  <ID>  (7210) 
JP000349

>  <CONTRIBUTOR>  (7210) 
University of Tokyo Team, {Faculty of Engineering, University of Tokyo

>  <COMMENT>  (7210) 
SMILES=CCOc(c1)nc(CC)nc(C)1
InChI=InChI=1S/C9H14N2O/c1-4-8-10-7(3)6-9(11-8)12-5-2/h6H,4-5H2,1-3H3
computed SMILES=N=1C(OCC)=CC(=NC1CC)C
accession=JP000349
date=2016.01.19 (Created 2008.10.21, modified 2011.05.06)
author=SASAKI S, TOYOHASHI UNIV. OF TECH.
license=CC BY-NC-SA
exact mass=166.11061
ionization energy=70 eV
ion type=[M]+*
computed spectral entropy=2.361567710349296
computed normalized entropy=0.8948527505818082
SPLASH=splash10-0gba-9800000000-0085829271c95b2f40ee
submitter=submitter = University of Tokyo Team (Faculty of Engineering, University of Tokyo)
MoNA Rating=3.75

>  <NUM PEAKS>  (7210) 
14

>  <MASS SPECTRAL PEAKS>  (7210) 
28 56
39 36
41 31
42 2.9
54 36
56 51
67 90
84 2
110 24
122 24
147 99.99
148 6
151 63
166 60

$$$$

     RDKit          2D

 11 11  0  0  0  0  0  0  0  0999 V2000
   -3.8981   -0.7504    0.0000 C   0  0  0  0  0  0  0  0  0  0  0  0
    0.0000    3.0000    0.0000 C   0  0  0  0  0  0  0  0  0  0  0  0
    3.8981   -0.7504    0.0000 C   0  0  0  0  0  0  0  0  0  0  0  0
   -2.5989   -1.5002    0.0000 C   0  0  0  0  0  0  0  0  0  0  0  0
    1.3000    0.7500    0.0000 C   0  0  0  0  0  0  0  0  0  0  0  0
    0.0000    1.5000    0.0000 C   0  0  0  0  0  0  0  0  0  0  0  0
   -1.3000   -0.7500    0.0000 C   0  0  0  0  0  0  0  0  0  0  0  0
    1.3000   -0.7500    0.0000 C   0  0  0  0  0  0  0  0  0  0  0  0
   -1.3000    0.7500    0.0000 N   0  0  0  0  0  0  0  0  0  0  0  0
    0.0000   -1.5000    0.0000 N   0  0  0  0  0  0  0  0  0  0  0  0
    2.5989   -1.5002    0.0000 O   0  0  0  0  0  0  0  0  0  0  0  0
  4  1  1  0
  6  2  1  0
  6  5  2  0
  7  4  1  0
  8  5  1  0
  9  6  1  0
  9  7  2  0
 10  7  1  0
 10  8  2  0
 11  3  1  0
 11  8  1  0
M  END
>  <NAME>  (7211) 
2-ETHYL-4-METHOXY-6-METHYLPYRIMIDINE

>  <SYNONYMS>  (7211) 


>  <SPECTRUM TYPE>  (7211) 
MS1

>  <INSTRUMENT TYPE>  (7211) 
EI-B

>  <INSTRUMENT>  (7211) 
HITACHI RMU-6D

>  <ION MODE>  (7211) 
P

>  <INCHIKEY>  (7211) 
XFXYDUVPPNPVLV-UHFFFAOYSA-N

>  <FORMULA>  (7211) 
C8H12N2O

>  <EXACT MASS>  (7211) 
152.094963004

>  <MW>  (7211) 
152

>  <ID>  (7211) 
JP000348

>  <CONTRIBUTOR>  (7211) 
University of Tokyo Team, {Faculty of Engineering, University of Tokyo

>  <COMMENT>  (7211) 
SMILES=CCc(n1)nc(OC)cc(C)1
InChI=InChI=1S/C8H12N2O/c1-4-7-9-6(2)5-8(10-7)11-3/h5H,4H2,1-3H3
computed SMILES=N=1C(OC)=CC(=NC1CC)C
accession=JP000348
date=2016.01.19 (Created 2008.10.21, modified 2011.05.06)
author=SASAKI S, TOYOHASHI UNIV. OF TECH.
license=CC BY-NC-SA
exact mass=152.09496
ionization energy=70 eV
ion type=[M]+*
computed spectral entropy=2.147791237613299
computed normalized entropy=0.8643347780475125
SPLASH=splash10-0udi-6900000000-26145ad401a0d1162187
submitter=submitter = University of Tokyo Team (Faculty of Engineering, University of Tokyo)
MoNA Rating=3.75

>  <NUM PEAKS>  (7211) 
12

>  <MASS SPECTRAL PEAKS>  (7211) 
39 26
42 30
54 20
56 2
67 36
68 65
83 15
84 0.8
124 30
137 33
151 99.99
152 90

$$$$

     RDKit          2D

 13 13  0  0  0  0  0  0  0  0999 V2000
   -3.8981   -0.7504    0.0000 C   0  0  0  0  0  0  0  0  0  0  0  0
    5.1970   -1.5006    0.0000 C   0  0  0  0  0  0  0  0  0  0  0  0
    3.8983    0.7496    0.0000 C   0  0  0  0  0  0  0  0  0  0  0  0
    0.0000    3.0000    0.0000 C   0  0  0  0  0  0  0  0  0  0  0  0
   -2.5989   -1.5002    0.0000 C   0  0  0  0  0  0  0  0  0  0  0  0
    1.3000    0.7500    0.0000 C   0  0  0  0  0  0  0  0  0  0  0  0
    3.8981   -0.7504    0.0000 C   0  0  0  0  0  0  0  0  0  0  0  0
    0.0000    1.5000    0.0000 C   0  0  0  0  0  0  0  0  0  0  0  0
   -1.3000   -0.7500    0.0000 C   0  0  0  0  0  0  0  0  0  0  0  0
    1.3000   -0.7500    0.0000 C   0  0  0  0  0  0  0  0  0  0  0  0
   -1.3000    0.7500    0.0000 N   0  0  0  0  0  0  0  0  0  0  0  0
    0.0000   -1.5000    0.0000 N   0  0  0  0  0  0  0  0  0  0  0  0
    2.5989   -1.5002    0.0000 O   0  0  0  0  0  0  0  0  0  0  0  0
  5  1  1  0
  7  2  1  0
  7  3  1  0
  8  4  1  0
  8  6  2  0
  9  5  1  0
 10  6  1  0
 11  8  1  0
 11  9  2  0
 12  9  1  0
 12 10  2  0
 13  7  1  0
 13 10  1  0
M  END
>  <NAME>  (7212) 
2-ETHYL-4-ISOPROPOXY-6-METHYLPYRIMIDINE

>  <SYNONYMS>  (7212) 


>  <SPECTRUM TYPE>  (7212) 
MS1

>  <INSTRUMENT TYPE>  (7212) 
EI-B

>  <INSTRUMENT>  (7212) 
HITACHI RMU-6D

>  <ION MODE>  (7212) 
P

>  <INCHIKEY>  (7212) 
AAQLJELBECCXJR-UHFFFAOYSA-N

>  <FORMULA>  (7212) 
C10H16N2O

>  <EXACT MASS>  (7212) 
180.126263132

>  <MW>  (7212) 
180

>  <ID>  (7212) 
JP000347

>  <CONTRIBUTOR>  (7212) 
University of Tokyo Team, {Faculty of Engineering, University of Tokyo

>  <COMMENT>  (7212) 
SMILES=CCc(n1)nc(OC(C)C)cc(C)1
InChI=InChI=1S/C10H16N2O/c1-5-9-11-8(4)6-10(12-9)13-7(2)3/h6-7H,5H2,1-4H3
computed SMILES=N=1C(OC(C)C)=CC(=NC1CC)C
accession=JP000347
date=2016.01.19 (Created 2008.10.21, modified 2011.05.06)
author=SASAKI S, TOYOHASHI UNIV. OF TECH.
license=CC BY-NC-SA
exact mass=180.12626
ionization energy=70 eV
ion type=[M]+*
computed spectral entropy=1.672698613761114
computed normalized entropy=0.933550871357618
SPLASH=splash10-00kr-4900000000-7ab933df7180c07d6fe5
submitter=submitter = University of Tokyo Team (Faculty of Engineering, University of Tokyo)
MoNA Rating=3.75

>  <NUM PEAKS>  (7212) 
6

>  <MASS SPECTRAL PEAKS>  (7212) 
39 35
67 93
122 81
137 99.99
138 45
180 23

$$$$

     RDKit          2D

  9  9  0  0  0  0  0  0  0  0999 V2000
    2.5987   -0.7492    0.0000 C   0  0  0  0  0  0  0  0  0  0  0  0
   -3.8971   -1.4998    0.0000 C   0  0  0  0  0  0  0  0  0  0  0  0
    0.0005   -0.7490    0.0000 C   0  0  0  0  0  0  0  0  0  0  0  0
   -0.0005   -3.7506    0.0000 C   0  0  0  0  0  0  0  0  0  0  0  0
    1.2995   -1.4990    0.0000 C   0  0  0  0  0  0  0  0  0  0  0  0
   -1.2990   -1.4998    0.0000 C   0  0  0  0  0  0  0  0  0  0  0  0
    1.2990   -2.9998    0.0000 N   0  0  0  0  0  0  0  0  0  0  0  0
   -1.2995   -3.0006    0.0000 N   0  0  0  0  0  0  0  0  0  0  0  0
   -2.5981   -0.7498    0.0000 O   0  0  0  0  0  0  0  0  0  0  0  0
  5  1  1  0
  5  3  2  0
  6  3  1  0
  7  4  2  0
  7  5  1  0
  8  4  1  0
  8  6  2  0
  9  2  1  0
  9  6  1  0
M  END
>  <NAME>  (7213) 
4-METHOXY-6-METHYLPYRIMIDINE

>  <SYNONYMS>  (7213) 


>  <SPECTRUM TYPE>  (7213) 
MS1

>  <INSTRUMENT TYPE>  (7213) 
EI-B

>  <INSTRUMENT>  (7213) 
HITACHI RMU-6D

>  <ION MODE>  (7213) 
P

>  <INCHIKEY>  (7213) 
GGFJPYWUQCOYLQ-UHFFFAOYSA-N

>  <FORMULA>  (7213) 
C6H8N2O

>  <EXACT MASS>  (7213) 
124.063662876

>  <MW>  (7213) 
124

>  <ID>  (7213) 
JP000346

>  <CONTRIBUTOR>  (7213) 
University of Tokyo Team, {Faculty of Engineering, University of Tokyo

>  <COMMENT>  (7213) 
SMILES=COc(n1)cc(C)nc1
InChI=InChI=1S/C6H8N2O/c1-5-3-6(9-2)8-4-7-5/h3-4H,1-2H3
computed SMILES=N=1C=NC(=CC1OC)C
accession=JP000346
date=2016.01.19 (Created 2008.10.21, modified 2011.05.06)
author=SASAKI S, TOYOHASHI UNIV. OF TECH.
license=CC BY-NC-SA
exact mass=124.06366
ionization energy=70 eV
ion type=[M]+*
computed spectral entropy=1.9538285100460533
computed normalized entropy=0.8148097759773777
SPLASH=splash10-01b9-9500000000-d234b2b8809bec2243f9
submitter=submitter = University of Tokyo Team (Faculty of Engineering, University of Tokyo)
MoNA Rating=3.75

>  <NUM PEAKS>  (7213) 
11

>  <MASS SPECTRAL PEAKS>  (7213) 
17 32
19 60
40 18
66 1.7
67 99.99
68 10
94 38
95 0.23
123 60
124 86
125 4

$$$$

     RDKit          2D

 13 14  0  0  0  0  0  0  0  0999 V2000
   -4.8719   -2.0631    0.0000 C   0  0  0  0  0  0  0  0  0  0  0  0
    2.9230   -3.5625    0.0000 C   0  0  0  0  0  0  0  0  0  0  0  0
    2.9234   -2.0617    0.0000 C   0  0  0  0  0  0  0  0  0  0  0  0
    1.6234   -4.3133    0.0000 C   0  0  0  0  0  0  0  0  0  0  0  0
    1.6244   -1.3117    0.0000 C   0  0  0  0  0  0  0  0  0  0  0  0
    0.3244   -3.5633    0.0000 C   0  0  0  0  0  0  0  0  0  0  0  0
   -2.2737   -2.0633    0.0000 C   0  0  0  0  0  0  0  0  0  0  0  0
   -2.2727    0.9383    0.0000 C   0  0  0  0  0  0  0  0  0  0  0  0
   -3.5727   -1.3133    0.0000 C   0  0  0  0  0  0  0  0  0  0  0  0
    0.3249   -2.0625    0.0000 C   0  0  0  0  0  0  0  0  0  0  0  0
   -0.9742   -1.3125    0.0000 C   0  0  0  0  0  0  0  0  0  0  0  0
   -3.5722    0.1875    0.0000 N   0  0  0  0  0  0  0  0  0  0  0  0
   -0.9737    0.1883    0.0000 N   0  0  0  0  0  0  0  0  0  0  0  0
  3  2  2  0
  4  2  1  0
  5  3  1  0
  6  4  2  0
  9  1  1  0
  9  7  2  0
 10  5  2  0
 10  6  1  0
 11  7  1  0
 11 10  1  0
 12  8  2  0
 12  9  1  0
 13  8  1  0
 13 11  2  0
M  END
>  <NAME>  (7214) 
4-METHYL-6-PHENYLPYRIMIDINE

>  <SYNONYMS>  (7214) 


>  <SPECTRUM TYPE>  (7214) 
MS1

>  <INSTRUMENT TYPE>  (7214) 
EI-B

>  <INSTRUMENT>  (7214) 
HITACHI RMU-6D

>  <ION MODE>  (7214) 
P

>  <INCHIKEY>  (7214) 
MTGUMZRYKWCXGO-UHFFFAOYSA-N

>  <FORMULA>  (7214) 
C11H10N2

>  <EXACT MASS>  (7214) 
170.08439832

>  <MW>  (7214) 
170

>  <ID>  (7214) 
JP000345

>  <CONTRIBUTOR>  (7214) 
University of Tokyo Team, {Faculty of Engineering, University of Tokyo

>  <COMMENT>  (7214) 
SMILES=Cc(n2)cc(nc2)c(c1)cccc1
InChI=InChI=1S/C11H10N2/c1-9-7-11(13-8-12-9)10-5-3-2-4-6-10/h2-8H,1H3
computed SMILES=N=1C=NC(=CC1C=2C=CC=CC2)C
accession=JP000345
date=2016.01.19 (Created 2008.10.21, modified 2011.05.06)
author=SASAKI S, TOYOHASHI UNIV. OF TECH.
license=CC BY-NC-SA
exact mass=170.0844
ionization energy=70 eV
ion type=[M]+*
computed spectral entropy=2.2565180340972892
computed normalized entropy=0.813866844367168
SPLASH=splash10-00dl-3900000000-1036c5970e38eb7f07e5
submitter=submitter = University of Tokyo Team (Faculty of Engineering, University of Tokyo)
MoNA Rating=3.75

>  <NUM PEAKS>  (7214) 
16

>  <MASS SPECTRAL PEAKS>  (7214) 
39 24
40 11
50 10
51 2.4
52 10
76 27
77 14
102 0.37
103 20
104 9
115 10
116 0.16
143 54
155 22
170 99.99
171 14

$$$$

     RDKit          2D

 13 14  0  0  0  0  0  0  0  0999 V2000
   -0.0000   -3.0000    0.0000 C   0  0  0  0  0  0  0  0  0  0  0  0
    5.1968    3.0006    0.0000 C   0  0  0  0  0  0  0  0  0  0  0  0
    3.8971    3.7512    0.0000 C   0  0  0  0  0  0  0  0  0  0  0  0
    5.1975    1.4998    0.0000 C   0  0  0  0  0  0  0  0  0  0  0  0
    2.5982    3.0010    0.0000 C   0  0  0  0  0  0  0  0  0  0  0  0
    3.8986    0.7496    0.0000 C   0  0  0  0  0  0  0  0  0  0  0  0
   -1.3000   -0.7500    0.0000 C   0  0  0  0  0  0  0  0  0  0  0  0
   -1.3000    0.7500    0.0000 C   0  0  0  0  0  0  0  0  0  0  0  0
   -0.0000   -1.5000    0.0000 C   0  0  0  0  0  0  0  0  0  0  0  0
    2.5989    1.5002    0.0000 C   0  0  0  0  0  0  0  0  0  0  0  0
    1.3000    0.7500    0.0000 C   0  0  0  0  0  0  0  0  0  0  0  0
    0.0000    1.5000    0.0000 N   0  0  0  0  0  0  0  0  0  0  0  0
    1.3000   -0.7500    0.0000 N   0  0  0  0  0  0  0  0  0  0  0  0
  3  2  2  0
  4  2  1  0
  5  3  1  0
  6  4  2  0
  8  7  2  0
  9  1  1  0
  9  7  1  0
 10  5  2  0
 10  6  1  0
 11 10  1  0
 12  8  1  0
 12 11  2  0
 13  9  2  0
 13 11  1  0
M  END
>  <NAME>  (7215) 
4-METHYL-2-PHENYLPURIMIDINE

>  <SYNONYMS>  (7215) 


>  <SPECTRUM TYPE>  (7215) 
MS1

>  <INSTRUMENT TYPE>  (7215) 
EI-B

>  <INSTRUMENT>  (7215) 
HITACHI RMU-6D

>  <ION MODE>  (7215) 
P

>  <INCHIKEY>  (7215) 
XPENFJAKMNONFL-UHFFFAOYSA-N

>  <FORMULA>  (7215) 
C11H10N2

>  <EXACT MASS>  (7215) 
170.08439832

>  <MW>  (7215) 
170

>  <ID>  (7215) 
JP000344

>  <CONTRIBUTOR>  (7215) 
University of Tokyo Team, {Faculty of Engineering, University of Tokyo

>  <COMMENT>  (7215) 
SMILES=Cc(c2)nc(nc2)c(c1)cccc1
InChI=InChI=1S/C11H10N2/c1-9-7-8-12-11(13-9)10-5-3-2-4-6-10/h2-8H,1H3
computed SMILES=N=1C=CC(=NC1C=2C=CC=CC2)C
accession=JP000344
date=2016.01.19 (Created 2008.10.21, modified 2011.05.06)
author=SASAKI S, TOYOHASHI UNIV. OF TECH.
license=CC BY-NC-SA
exact mass=170.0844
ionization energy=70 eV
ion type=[M]+*
computed spectral entropy=2.0728915712876197
computed normalized entropy=0.8081608181687868
SPLASH=splash10-0fk9-2900000000-ad4fb214c4ef3efd5f6e
submitter=submitter = University of Tokyo Team (Faculty of Engineering, University of Tokyo)
MoNA Rating=3.75

>  <NUM PEAKS>  (7215) 
13

>  <MASS SPECTRAL PEAKS>  (7215) 
39 19
51 14
52 6
67 1.3
76 19
77 17
103 68
104 0.23
129 14
155 25
169 14
170 99.99
171 18

$$$$

     RDKit          2D

 14 15  0  0  0  0  0  0  0  0999 V2000
   -2.5989    1.5002    0.0000 C   0  0  0  0  0  0  0  0  0  0  0  0
    5.1968    3.0006    0.0000 C   0  0  0  0  0  0  0  0  0  0  0  0
    3.8971    3.7512    0.0000 C   0  0  0  0  0  0  0  0  0  0  0  0
    5.1975    1.4998    0.0000 C   0  0  0  0  0  0  0  0  0  0  0  0
    2.5982    3.0010    0.0000 C   0  0  0  0  0  0  0  0  0  0  0  0
    3.8986    0.7496    0.0000 C   0  0  0  0  0  0  0  0  0  0  0  0
   -1.3000   -0.7500    0.0000 C   0  0  0  0  0  0  0  0  0  0  0  0
   -1.3000    0.7500    0.0000 C   0  0  0  0  0  0  0  0  0  0  0  0
    2.5989    1.5002    0.0000 C   0  0  0  0  0  0  0  0  0  0  0  0
    0.0000   -1.5000    0.0000 C   0  0  0  0  0  0  0  0  0  0  0  0
    1.3000    0.7500    0.0000 C   0  0  0  0  0  0  0  0  0  0  0  0
   -0.0000   -3.0000    0.0000 Cl  0  0  0  0  0  0  0  0  0  0  0  0
    0.0000    1.5000    0.0000 N   0  0  0  0  0  0  0  0  0  0  0  0
    1.3000   -0.7500    0.0000 N   0  0  0  0  0  0  0  0  0  0  0  0
  3  2  2  0
  4  2  1  0
  5  3  1  0
  6  4  2  0
  8  1  1  0
  8  7  2  0
  9  5  2  0
  9  6  1  0
 10  7  1  0
 11  9  1  0
 12 10  1  0
 13  8  1  0
 13 11  2  0
 14 10  2  0
 14 11  1  0
M  END
>  <NAME>  (7216) 
4-CHLORO-6-METHYL-2-PHENYLPYRIMIDINE

>  <SYNONYMS>  (7216) 


>  <SPECTRUM TYPE>  (7216) 
MS1

>  <INSTRUMENT TYPE>  (7216) 
EI-B

>  <INSTRUMENT>  (7216) 
HITACHI RMU-6D

>  <ION MODE>  (7216) 
P

>  <INCHIKEY>  (7216) 
MOLLLUIWZOISLC-UHFFFAOYSA-N

>  <FORMULA>  (7216) 
C11H9ClN2

>  <EXACT MASS>  (7216) 
204.045425968

>  <MW>  (7216) 
204

>  <ID>  (7216) 
JP000343

>  <CONTRIBUTOR>  (7216) 
University of Tokyo Team, {Faculty of Engineering, University of Tokyo

>  <COMMENT>  (7216) 
SMILES=Cc(c2)nc(nc(Cl)2)c(c1)cccc1
InChI=InChI=1S/C11H9ClN2/c1-8-7-10(12)14-11(13-8)9-5-3-2-4-6-9/h2-7H,1H3
computed SMILES=ClC=1N=C(N=C(C1)C)C=2C=CC=CC2
accession=JP000343
date=2016.01.19 (Created 2008.10.21, modified 2011.05.06)
author=SASAKI S, TOYOHASHI UNIV. OF TECH.
license=CC BY-NC-SA
exact mass=204.04543
ionization energy=70 eV
ion type=[M]+*
computed spectral entropy=1.987121126488304
computed normalized entropy=0.7996763687914936
SPLASH=splash10-0uxr-3950000000-462996c98b064ce3ae42
submitter=submitter = University of Tokyo Team (Faculty of Engineering, University of Tokyo)
MoNA Rating=3.75

>  <NUM PEAKS>  (7216) 
12

>  <MASS SPECTRAL PEAKS>  (7216) 
50 3
51 18
66 18
76 1.7
77 26
102 12
103 23
104 0.34
169 99.99
170 16
204 69
206 25

$$$$

     RDKit          2D

 15 12  0  0  0  0  0  0  0  0999 V2000
    0.3248    3.9375    0.0000 C   0  0  0  0  0  0  0  0  0  0  0  0
   -3.5724    1.6875    0.0000 C   0  0  0  0  0  0  0  0  0  0  0  0
   -0.9743    1.6875    0.0000 C   0  0  0  0  0  0  0  0  0  0  0  0
    0.3248    2.4375    0.0000 C   0  0  0  0  0  0  0  0  0  0  0  0
   -2.2733    2.4375    0.0000 C   0  0  0  0  0  0  0  0  0  0  0  0
    1.6238    1.6875    0.0000 O   0  0  0  0  0  0  0  0  0  0  0  0
   -2.2733    3.9375    0.0000 O   0  0  0  0  0  0  0  0  0  0  0  0
    1.6238    1.6875    0.0000 C   0  0  0  0  0  0  0  0  0  0  0  0
   -3.5724    1.6875    0.0000 C   0  0  0  0  0  0  0  0  0  0  0  0
   -0.9743    1.6875    0.0000 C   0  0  0  0  0  0  0  0  0  0  0  0
    0.3248    2.4375    0.0000 C   0  0  0  0  0  0  0  0  0  0  0  0
   -2.2733    2.4375    0.0000 C   0  0  0  0  0  0  0  0  0  0  0  0
    0.3248    3.9375    0.0000 O   0  0  0  0  0  0  0  0  0  0  0  0
   -2.2733    3.9375    0.0000 O   0  0  0  0  0  0  0  0  0  0  0  0
    0.0000    0.0000    0.0000 Co  0  0  0  0  0 15  0  0  0  0  0  0
  4  1  1  0
  3  4  2  0
  5  2  1  0
  5  3  1  0
  6  4  1  0
  7  5  2  0
 11  8  1  0
 10 11  2  0
 12  9  1  0
 12 10  1  0
 13 11  1  0
 14 12  2  0
M  CHG  3   6  -1  13  -1  15   2
M  END
>  <NAME>  (7217) 
COBALT DIACETYLACETONATE

>  <SYNONYMS>  (7217) 


>  <SPECTRUM TYPE>  (7217) 
MS1

>  <INSTRUMENT TYPE>  (7217) 
EI-B

>  <INSTRUMENT>  (7217) 
HITACHI RMU-6D

>  <ION MODE>  (7217) 
P

>  <INCHIKEY>  (7217) 
UTYYEGLZLFAFDI-OHSCNOFNSA-L

>  <FORMULA>  (7217) 
C10H14CoO4

>  <EXACT MASS>  (7217) 
257.022403928

>  <MW>  (7217) 
257

>  <ID>  (7217) 
JP000342

>  <CONTRIBUTOR>  (7217) 
University of Tokyo Team, {Faculty of Engineering, University of Tokyo

>  <COMMENT>  (7217) 
SMILES=CC(=O)C=C(C)O[Co]OC(C)=CC(C)=O
InChI=InChI=1S/2C5H8O2.Co/c2*1-4(6)3-5(2)7;/h2*3,6H,1-2H3;/q;;+2/p-2/b4-3+;4-3-;
computed SMILES=[Co+2].O=C(C=C([O-])C)C.O=C(C=C([O-])C)C
accession=JP000342
date=2016.01.19 (Created 2008.10.21, modified 2011.05.06)
author=SASAKI S, TOYOHASHI UNIV. OF TECH.
license=CC BY-NC-SA
exact mass=257.02241
ionization energy=70 eV
ion type=[M]+*
computed spectral entropy=2.7365714833297377
computed normalized entropy=0.6244990529441176
SPLASH=splash10-0a4i-7950000000-df6d18c32ba6f44890f5
submitter=submitter = University of Tokyo Team (Faculty of Engineering, University of Tokyo)
MoNA Rating=3.75

>  <NUM PEAKS>  (7217) 
80

>  <MASS SPECTRAL PEAKS>  (7217) 
15 2
18 1
19 4
26 0.03
27 1.5
28 3
29 0.5
31 0.05
39 1.5
41 1.5
42 2
43 0.29
44 0.5
53 1
55 2.8
57 0.15
58 3
59 12
60 1.3
61 0.08
67 1
69 1.3
71 1
72 0.35
73 1.5
74 11.5
75 0.5
76 0.01
81 0.5
82 0.25
83 0.25
84 0.75
85 58
86 2.5
87 7.5
97 0.05
98 2
99 1.5
100 25.5
101 0.02
102 1
103 1
112 0.8
113 0.15
114 0.5
115 6
116 1
118 0.01
121 1
128 1
129 2
131 0.02
133 13
134 0.5
155 3.5
156 0.01
157 3
158 99.99
163 0.5
165 0.05
183 0.5
184 0.5
185 0.5
186 0.05
187 0.5
200 1.5
201 1
215 0.15
225 2
233 1.25
239 2
242 0.8
243 8
244 0.5
254 2.5
256 0.75
257 75
258 7.5
259 1
260 0.25

$$$$

     RDKit          2D

 22 18  0  0  0  0  0  0  0  0999 V2000
    0.3248    3.9375    0.0000 C   0  0  0  0  0  0  0  0  0  0  0  0
   -3.5724    1.6875    0.0000 C   0  0  0  0  0  0  0  0  0  0  0  0
   -0.9743    1.6875    0.0000 C   0  0  0  0  0  0  0  0  0  0  0  0
    0.3248    2.4375    0.0000 C   0  0  0  0  0  0  0  0  0  0  0  0
   -2.2733    2.4375    0.0000 C   0  0  0  0  0  0  0  0  0  0  0  0
    1.6238    1.6875    0.0000 O   0  0  0  0  0  0  0  0  0  0  0  0
   -2.2733    3.9375    0.0000 O   0  0  0  0  0  0  0  0  0  0  0  0
    0.3248    3.9375    0.0000 C   0  0  0  0  0  0  0  0  0  0  0  0
   -3.5724    1.6875    0.0000 C   0  0  0  0  0  0  0  0  0  0  0  0
   -0.9743    1.6875    0.0000 C   0  0  0  0  0  0  0  0  0  0  0  0
    0.3248    2.4375    0.0000 C   0  0  0  0  0  0  0  0  0  0  0  0
   -2.2733    2.4375    0.0000 C   0  0  0  0  0  0  0  0  0  0  0  0
    1.6238    1.6875    0.0000 O   0  0  0  0  0  0  0  0  0  0  0  0
   -2.2733    3.9375    0.0000 O   0  0  0  0  0  0  0  0  0  0  0  0
    0.3248    3.9375    0.0000 C   0  0  0  0  0  0  0  0  0  0  0  0
   -3.5724    1.6875    0.0000 C   0  0  0  0  0  0  0  0  0  0  0  0
   -0.9743    1.6875    0.0000 C   0  0  0  0  0  0  0  0  0  0  0  0
    0.3248    2.4375    0.0000 C   0  0  0  0  0  0  0  0  0  0  0  0
   -2.2733    2.4375    0.0000 C   0  0  0  0  0  0  0  0  0  0  0  0
    1.6238    1.6875    0.0000 O   0  0  0  0  0  0  0  0  0  0  0  0
   -2.2733    3.9375    0.0000 O   0  0  0  0  0  0  0  0  0  0  0  0
    0.0000    0.0000    0.0000 Al  0  0  0  0  0 15  0  0  0  0  0  0
  4  1  1  0
  3  4  2  0
  5  2  1  0
  5  3  1  0
  6  4  1  0
  7  5  2  0
 11  8  1  0
 10 11  2  0
 12  9  1  0
 12 10  1  0
 13 11  1  0
 14 12  2  0
 18 15  1  0
 17 18  2  0
 19 16  1  0
 19 17  1  0
 20 18  1  0
 21 19  2  0
M  CHG  4   6  -1  13  -1  20  -1  22   3
M  END
>  <NAME>  (7218) 
ALUMINIUM TRIACETYLACETONATE

>  <SYNONYMS>  (7218) 


>  <SPECTRUM TYPE>  (7218) 
MS1

>  <INSTRUMENT TYPE>  (7218) 
EI-B

>  <INSTRUMENT>  (7218) 
HITACHI RMU-6D

>  <ION MODE>  (7218) 
P

>  <INCHIKEY>  (7218) 
KILURZWTCGSYRE-MUCWUPSWSA-K

>  <FORMULA>  (7218) 
C15H21AlO6

>  <EXACT MASS>  (7218) 
324.115352022

>  <MW>  (7218) 
324

>  <ID>  (7218) 
JP000341

>  <CONTRIBUTOR>  (7218) 
University of Tokyo Team, {Faculty of Engineering, University of Tokyo

>  <COMMENT>  (7218) 
SMILES=CC(=O)C=C(C)O[Al](OC(C)=CC(C)=O)OC(C)=CC(C)=O
InChI=InChI=1S/3C5H8O2.Al/c3*1-4(6)3-5(2)7;/h3*3,6H,1-2H3;/q;;;+3/p-3/b3*4-3+;
computed SMILES=[Al+3].O=C(C=C([O-])C)C.O=C(C=C([O-])C)C.O=C(C=C([O-])C)C
accession=JP000341
date=2016.01.19 (Created 2008.10.21, modified 2011.05.06)
author=SASAKI S, TOYOHASHI UNIV. OF TECH.
license=CC BY-NC-SA
exact mass=324.11535
ionization energy=70 eV
ion type=[M]+*
computed spectral entropy=2.797566341153324
computed normalized entropy=0.6562928537563762
SPLASH=splash10-004l-4981000000-83dd43928fa3cbdf797c
submitter=submitter = University of Tokyo Team (Faculty of Engineering, University of Tokyo)
MoNA Rating=3.75

>  <NUM PEAKS>  (7218) 
71

>  <MASS SPECTRAL PEAKS>  (7218) 
15 2
18 2
26 0.5
27 0.2
28 6
31 0.3
32 0.3
39 0.02
41 2
42 2
43 30
44 0.01
50 0.5
51 0.5
52 0.5
53 0.05
55 0.5
56 0.1
57 1
58 0.05
59 1.3
69 1
72 0.7
77 0.05
78 3
83 1
85 6.3
97 0.01
98 0.8
99 3
100 5
101 0.05
105 3
111 1.3
113 0.7
123 0.07
125 5
126 9
127 6
140 0.23
141 37
142 3
143 21
144 0.01
147 8
151 1
155 1
156 0.08
157 9
158 1
181 1.3
182 0.02
183 6.3
184 0.7
185 1
195 0.05
196 1
207 3.3
208 1
209 0.04
210 0.5
224 5
225 99.99
226 0.12
227 1
239 0.7
251 0.7
281 0.01
324 18
325 3
326 0.7

$$$$

     RDKit          2D

 15 12  0  0  0  0  0  0  0  0999 V2000
    0.3248    3.9375    0.0000 C   0  0  0  0  0  0  0  0  0  0  0  0
   -3.5724    1.6875    0.0000 C   0  0  0  0  0  0  0  0  0  0  0  0
   -0.9743    1.6875    0.0000 C   0  0  0  0  0  0  0  0  0  0  0  0
    0.3248    2.4375    0.0000 C   0  0  0  0  0  0  0  0  0  0  0  0
   -2.2733    2.4375    0.0000 C   0  0  0  0  0  0  0  0  0  0  0  0
    1.6238    1.6875    0.0000 O   0  0  0  0  0  0  0  0  0  0  0  0
   -2.2733    3.9375    0.0000 O   0  0  0  0  0  0  0  0  0  0  0  0
    0.3248    3.9375    0.0000 C   0  0  0  0  0  0  0  0  0  0  0  0
   -3.5724    1.6875    0.0000 C   0  0  0  0  0  0  0  0  0  0  0  0
   -0.9743    1.6875    0.0000 C   0  0  0  0  0  0  0  0  0  0  0  0
    0.3248    2.4375    0.0000 C   0  0  0  0  0  0  0  0  0  0  0  0
   -2.2733    2.4375    0.0000 C   0  0  0  0  0  0  0  0  0  0  0  0
    1.6238    1.6875    0.0000 O   0  0  0  0  0  0  0  0  0  0  0  0
   -2.2733    3.9375    0.0000 O   0  0  0  0  0  0  0  0  0  0  0  0
    0.0000    0.0000    0.0000 Pt  0  0  0  0  0 15  0  0  0  0  0  0
  4  1  1  0
  3  4  2  0
  5  2  1  0
  5  3  1  0
  6  4  1  0
  7  5  2  0
 11  8  1  0
 10 11  2  0
 12  9  1  0
 12 10  1  0
 13 11  1  0
 14 12  2  0
M  CHG  3   6  -1  13  -1  15   2
M  END
>  <NAME>  (7219) 
PLATINUM DIACETYLACETONATE

>  <SYNONYMS>  (7219) 


>  <SPECTRUM TYPE>  (7219) 
MS1

>  <INSTRUMENT TYPE>  (7219) 
EI-B

>  <INSTRUMENT>  (7219) 
HITACHI RMU-6D

>  <ION MODE>  (7219) 
P

>  <INCHIKEY>  (7219) 
KLFRPGNCEJNEKU-SYWGCQIGSA-L

>  <FORMULA>  (7219) 
C10H14O4Pt

>  <EXACT MASS>  (7219) 
393.054000028

>  <MW>  (7219) 
393

>  <ID>  (7219) 
JP000340

>  <CONTRIBUTOR>  (7219) 
University of Tokyo Team, {Faculty of Engineering, University of Tokyo

>  <COMMENT>  (7219) 
SMILES=CC(=O)C=C(C)O[Pt]OC(C)=CC(C)=O
InChI=InChI=1S/2C5H8O2.Pt/c2*1-4(6)3-5(2)7;/h2*3,6H,1-2H3;/q;;+2/p-2/b2*4-3+;
computed SMILES=[Pt+2].O=C(C=C([O-])C)C.O=C(C=C([O-])C)C
accession=JP000340
date=2016.01.19 (Created 2008.10.21, modified 2011.05.06)
author=SASAKI S, TOYOHASHI UNIV. OF TECH.
license=CC BY-NC-SA
exact mass=393.05398
ionization energy=70 eV
ion type=[M]+*
computed spectral entropy=2.885155159009203
computed normalized entropy=0.6411727095998364
SPLASH=splash10-0006-9011000000-aa6218467296506d56ec
submitter=submitter = University of Tokyo Team (Faculty of Engineering, University of Tokyo)
MoNA Rating=3.75

>  <NUM PEAKS>  (7219) 
90

>  <MASS SPECTRAL PEAKS>  (7219) 
15 3
18 1.3
26 2
27 0.8
28 18.5
29 3.5
31 2
37 0.01
38 1.7
39 6
40 0.8
41 0.05
42 6
43 99.99
44 4
45 0.03
50 0.3
53 2
55 3.5
56 0.03
57 0.3
58 4
69 1.5
71 0.01
72 2
85 30
86 1
100 1.98
101 3
196 0.3
197 0.3
208 0.05
209 2
210 0.3
220 1
221 0.03
222 4
223 3
224 1
225 0.07
233 1
234 1.3
235 2
236 0.02
237 2.3
238 1
239 0.8
247 0.03
248 0.3
249 1
250 2
251 0.01
252 1
261 0.3
262 0.3
263 0.01
264 2
265 2
266 1.3
267 0.07
277 0.3
278 0.3
279 1.3
280 0.17
281 1.7
282 0.5
291 0.5
292 0.17
293 2.1
294 2
295 1.3
296 0.05
307 0.5
308 1
309 1
310 0.01
321 1
322 1.3
323 1
334 0.03
335 0.3
336 0.3
349 1
350 0.01
351 1
392 8
393 9
394 0.07
395 0.5
396 1.3

$$$$

     RDKit          2D

 21 18  0  0  0  0  0  0  0  0999 V2000
    1.2990    2.2500    0.0000 C   0  0  0  0  0  0  0  0  0  0  0  0
   -3.8971    2.2500    0.0000 C   0  0  0  0  0  0  0  0  0  0  0  0
    0.0000    3.0000    0.0000 C   0  0  0  0  0  0  0  0  0  0  0  0
   -2.5981    3.0000    0.0000 C   0  0  0  0  0  0  0  0  0  0  0  0
   -1.2990    2.2500    0.0000 C   0  0  0  0  0  0  0  0  0  0  0  0
   -1.2990    0.7500    0.0000 N   0  0  0  0  0  0  0  0  0  0  0  0
    0.0000    4.5000    0.0000 O   0  0  0  0  0  0  0  0  0  0  0  0
   -2.5981    4.5000    0.0000 O   0  0  0  0  0  0  0  0  0  0  0  0
   -0.0000    0.0000    0.0000 O   0  0  0  0  0  0  0  0  0  0  0  0
   -2.5981    0.0000    0.0000 O   0  0  0  0  0  0  0  0  0  0  0  0
    1.2990    2.2500    0.0000 C   0  0  0  0  0  0  0  0  0  0  0  0
   -3.8971    2.2500    0.0000 C   0  0  0  0  0  0  0  0  0  0  0  0
    0.0000    3.0000    0.0000 C   0  0  0  0  0  0  0  0  0  0  0  0
   -2.5981    3.0000    0.0000 C   0  0  0  0  0  0  0  0  0  0  0  0
   -1.2990    2.2500    0.0000 C   0  0  0  0  0  0  0  0  0  0  0  0
   -1.2990    0.7500    0.0000 N   0  0  0  0  0  0  0  0  0  0  0  0
    0.0000    4.5000    0.0000 O   0  0  0  0  0  0  0  0  0  0  0  0
   -2.5981    4.5000    0.0000 O   0  0  0  0  0  0  0  0  0  0  0  0
   -0.0000    0.0000    0.0000 O   0  0  0  0  0  0  0  0  0  0  0  0
   -2.5981    0.0000    0.0000 O   0  0  0  0  0  0  0  0  0  0  0  0
    0.0000    0.0000    0.0000 Cu  0  0  0  0  0 15  0  0  0  0  0  0
  3  1  1  0
  4  2  1  0
  3  5  2  0
  5  4  1  0
  6  5  1  0
  7  3  1  0
  8  4  2  0
  9  6  1  0
 10  6  2  0
 13 11  1  0
 14 12  1  0
 13 15  2  0
 15 14  1  0
 16 15  1  0
 17 13  1  0
 18 14  2  0
 19 16  1  0
 20 16  2  0
M  CHG  7   6   1   7  -1   9  -1  16   1  17  -1  19  -1  21   2
M  END
>  <NAME>  (7220) 
COPPER DI(3-NITROACETYLACETONATE)

>  <SYNONYMS>  (7220) 


>  <SPECTRUM TYPE>  (7220) 
MS1

>  <INSTRUMENT TYPE>  (7220) 
EI-B

>  <INSTRUMENT>  (7220) 
HITACHI RMU-6D

>  <ION MODE>  (7220) 
P

>  <INCHIKEY>  (7220) 
DRDZHSCSMNUNPW-MSEGBBJSSA-L

>  <FORMULA>  (7220) 
C10H12CuN2O8

>  <EXACT MASS>  (7220) 
350.98896284399996

>  <MW>  (7220) 
351

>  <ID>  (7220) 
JP000338

>  <CONTRIBUTOR>  (7220) 
University of Tokyo Team, {Faculty of Engineering, University of Tokyo

>  <COMMENT>  (7220) 
SMILES=CC(=O)C([N+1]([O-1])=O)=C(C)O[Cu]OC(C)=C(C(C)=O)[N+1]([O-1])=O
InChI=InChI=1S/2C5H7NO4.Cu/c2*1-3(7)5(4(2)8)6(9)10;/h2*7H,1-2H3;/q;;+2/p-2/b2*5-3+;
computed SMILES=[Cu+2].O=C(C(=C([O-])C)N(=O)=O)C.O=C(C(=C([O-])C)N(=O)=O)C
accession=JP000338
date=2016.01.19 (Created 2008.10.21, modified 2011.05.06)
author=SASAKI S, TOYOHASHI UNIV. OF TECH.
license=CC BY-NC-SA
exact mass=350.98897
ionization energy=70 eV
ion type=[M]+*
computed spectral entropy=2.5792851404887323
computed normalized entropy=0.6050853488625069
SPLASH=splash10-0006-9000000000-ed42282a3cdffeaf6383
submitter=submitter = University of Tokyo Team (Faculty of Engineering, University of Tokyo)
MoNA Rating=3.75

>  <NUM PEAKS>  (7220) 
71

>  <MASS SPECTRAL PEAKS>  (7220) 
12 0.5
13 0.6
14 3.4
15 0.96
16 0.8
17 3
18 12.4
24 0.01
25 0.6
26 2
27 4.2
28 1.46
29 3.8
30 7.8
31 1.6
32 0.01
37 0.4
38 1.5
39 3.4
40 0.15
41 3.6
42 10
43 99.99
44 0.2
45 7.8
46 0.2
49 0.1
50 0.11
51 1.4
52 1.1
53 0.6
54 0.46
55 1.6
56 0.2
57 0.5
58 0.14
59 0.2
60 5.8
61 0.3
63 0.02
67 0.7
68 0.4
69 6.2
70 0.14
71 0.8
72 1.6
73 0.2
74 0.02
76 0.2
77 0.8
78 4.2
79 0.04
81 0.1
82 0.2
83 0.3
84 0.04
85 14.2
86 1.4
87 0.4
88 0.02
100 10
102 0.4
104 0.4
105 0.01
127 1.5
128 1.1
129 0.4
130 0.02
134 0.1
142 0.5
145 0.8

$$$$

     RDKit          2D

 17 14  0  0  0  0  0  0  0  0999 V2000
   -2.2733    0.5625    0.0000 C   0  0  0  0  0  0  0  0  0  0  0  0
    0.3248    5.0625    0.0000 C   0  0  0  0  0  0  0  0  0  0  0  0
   -0.9743    1.3125    0.0000 C   0  0  0  0  0  0  0  0  0  0  0  0
    0.3248    3.5625    0.0000 C   0  0  0  0  0  0  0  0  0  0  0  0
   -0.9743    2.8125    0.0000 C   0  0  0  0  0  0  0  0  0  0  0  0
   -2.2733    3.5625    0.0000 Br  0  0  0  0  0  0  0  0  0  0  0  0
    0.3248    0.5625    0.0000 O   0  0  0  0  0  0  0  0  0  0  0  0
    1.6238    2.8125    0.0000 O   0  0  0  0  0  0  0  0  0  0  0  0
   -2.2733    0.5625    0.0000 C   0  0  0  0  0  0  0  0  0  0  0  0
    0.3248    5.0625    0.0000 C   0  0  0  0  0  0  0  0  0  0  0  0
   -0.9743    1.3125    0.0000 C   0  0  0  0  0  0  0  0  0  0  0  0
    0.3248    3.5625    0.0000 C   0  0  0  0  0  0  0  0  0  0  0  0
   -0.9743    2.8125    0.0000 C   0  0  0  0  0  0  0  0  0  0  0  0
   -2.2733    3.5625    0.0000 Br  0  0  0  0  0  0  0  0  0  0  0  0
    0.3248    0.5625    0.0000 O   0  0  0  0  0  0  0  0  0  0  0  0
    1.6238    2.8125    0.0000 O   0  0  0  0  0  0  0  0  0  0  0  0
    0.0000    0.0000    0.0000 Pd  0  0  0  0  0 15  0  0  0  0  0  0
  3  1  1  0
  4  2  1  0
  3  5  2  0
  5  4  1  0
  6  5  1  0
  7  3  1  0
  8  4  2  0
 11  9  1  0
 12 10  1  0
 11 13  2  0
 13 12  1  0
 14 13  1  0
 15 11  1  0
 16 12  2  0
M  CHG  3   7  -1  15  -1  17   2
M  END
>  <NAME>  (7221) 
PALLADIUM DI(3-BROMOACETYLACETONATE)

>  <SYNONYMS>  (7221) 


>  <SPECTRUM TYPE>  (7221) 
MS1

>  <INSTRUMENT TYPE>  (7221) 
EI-B

>  <INSTRUMENT>  (7221) 
HITACHI RMU-6D

>  <ION MODE>  (7221) 
P

>  <INCHIKEY>  (7221) 
QYXHETFVNFTXGP-MSEGBBJSSA-L

>  <FORMULA>  (7221) 
C10H12Br2O4Pd

>  <EXACT MASS>  (7221) 
459.813719064

>  <MW>  (7221) 
460

>  <ID>  (7221) 
JP000337

>  <CONTRIBUTOR>  (7221) 
University of Tokyo Team, {Faculty of Engineering, University of Tokyo

>  <COMMENT>  (7221) 
SMILES=CC(=O)C(Br)=C(C)O[Pd]OC(C)=C(Br)C(C)=O
InChI=InChI=1S/2C5H7BrO2.Pd/c2*1-3(7)5(6)4(2)8;/h2*7H,1-2H3;/q;;+2/p-2/b2*5-3+;
computed SMILES=[Pd+2].O=C(C(Br)=C([O-])C)C.O=C(C(Br)=C([O-])C)C
accession=JP000337
date=2016.01.19 (Created 2008.10.21, modified 2011.05.06)
author=SASAKI S, TOYOHASHI UNIV. OF TECH.
license=CC BY-NC-SA
exact mass=459.81372
ionization energy=70 eV
ion type=[M]+*
computed spectral entropy=2.915500517875267
computed normalized entropy=0.605858026744205
SPLASH=splash10-0006-9100000000-35a67068b51624903ea1
submitter=submitter = University of Tokyo Team (Faculty of Engineering, University of Tokyo)
MoNA Rating=3.75

>  <NUM PEAKS>  (7221) 
123

>  <MASS SPECTRAL PEAKS>  (7221) 
13 0.2
14 1.25
15 6.4
16 0.02
17 2
18 8.25
25 0.5
26 0.02
27 6.1
28 7.5
29 3.1
30 0.02
31 1.7
32 1.1
36 0.3
37 0.08
38 1.5
39 4.5
40 1.2
41 0.04
42 4.5
43 99.99
44 5.6
45 0.17
47 0.05
48 0.1
49 0.25
50 0.06
51 0.6
52 0.3
53 1.1
54 0.05
55 5.3
56 0.6
57 2.05
58 1.25
59 0.1
60 1.1
61 0.3
62 0.01
63 0.2
65 0.2
66 0.2
67 0.11
68 1
69 1.9
70 0.3
71 0.11
72 1.2
73 0.7
74 0.6
76 0.01
77 0.6
78 1
79 0.6
80 0.02
81 1
82 0.9
83 1.45
84 0.07
85 10
86 0.8
87 0.2
88 0.01
91 0.5
92 1.1
93 1.05
94 0.04
95 0.5
96 0.15
97 0.5
98 0.02
99 2.2
100 7.85
101 0.6
102 0.03
103 0.2
105 0.8
106 0.1
107 0.05
108 0.1
109 0.3
110 0.1
111 0.03
112 0.2
113 0.3
115 0.1
116 0.01
119 2.3
120 0.15
121 1
122 0.03
123 0.3
124 0.1
125 0.2
126 0.01
127 0.1
128 0.1
129 0.1
134 0.51
135 1.1
136 5.3
137 0.35
138 0.49
139 0.3
141 0.3
149 0.3
151 0.02
152 0.3
153 0.4
154 0.2
155 0.01
163 4.5
164 0.1
165 4.3
166 0.01
178 2.5
179 0.1
180 2.4
181 0.01
186 0.1
188 0.1
198 0.6

$$$$

     RDKit          2D

 15 12  0  0  0  0  0  0  0  0999 V2000
    0.3248    3.9375    0.0000 C   0  0  0  0  0  0  0  0  0  0  0  0
   -3.5724    1.6875    0.0000 C   0  0  0  0  0  0  0  0  0  0  0  0
   -0.9743    1.6875    0.0000 C   0  0  0  0  0  0  0  0  0  0  0  0
    0.3248    2.4375    0.0000 C   0  0  0  0  0  0  0  0  0  0  0  0
   -2.2733    2.4375    0.0000 C   0  0  0  0  0  0  0  0  0  0  0  0
    1.6238    1.6875    0.0000 O   0  0  0  0  0  0  0  0  0  0  0  0
   -2.2733    3.9375    0.0000 O   0  0  0  0  0  0  0  0  0  0  0  0
    0.3248    3.9375    0.0000 C   0  0  0  0  0  0  0  0  0  0  0  0
   -3.5724    1.6875    0.0000 C   0  0  0  0  0  0  0  0  0  0  0  0
   -0.9743    1.6875    0.0000 C   0  0  0  0  0  0  0  0  0  0  0  0
    0.3248    2.4375    0.0000 C   0  0  0  0  0  0  0  0  0  0  0  0
   -2.2733    2.4375    0.0000 C   0  0  0  0  0  0  0  0  0  0  0  0
    1.6238    1.6875    0.0000 O   0  0  0  0  0  0  0  0  0  0  0  0
   -2.2733    3.9375    0.0000 O   0  0  0  0  0  0  0  0  0  0  0  0
    0.0000    0.0000    0.0000 Pd  0  0  0  0  0 15  0  0  0  0  0  0
  4  1  1  0
  3  4  2  0
  5  2  1  0
  5  3  1  0
  6  4  1  0
  7  5  2  0
 11  8  1  0
 10 11  2  0
 12  9  1  0
 12 10  1  0
 13 11  1  0
 14 12  2  0
M  CHG  3   6  -1  13  -1  15   2
M  END
>  <NAME>  (7222) 
PALLADIUM DIACETONATE

>  <SYNONYMS>  (7222) 


>  <SPECTRUM TYPE>  (7222) 
MS1

>  <INSTRUMENT TYPE>  (7222) 
EI-B

>  <INSTRUMENT>  (7222) 
HITACHI RMU-6D

>  <ION MODE>  (7222) 
P

>  <INCHIKEY>  (7222) 
JKDRQYIYVJVOPF-SYWGCQIGSA-L

>  <FORMULA>  (7222) 
C10H14O4Pd

>  <EXACT MASS>  (7222) 
303.992694928

>  <MW>  (7222) 
304

>  <ID>  (7222) 
JP000334

>  <CONTRIBUTOR>  (7222) 
University of Tokyo Team, {Faculty of Engineering, University of Tokyo

>  <COMMENT>  (7222) 
SMILES=CC(=O)C=C(C)O[Pd]OC(C)=CC(C)=O
InChI=InChI=1S/2C5H8O2.Pd/c2*1-4(6)3-5(2)7;/h2*3,6H,1-2H3;/q;;+2/p-2/b2*4-3+;
computed SMILES=[Pd+2].O=C(C=C([O-])C)C.O=C(C=C([O-])C)C
exact mass=303.99269
accession=JP000334
date=2016.01.19 (Created 2008.10.21, modified 2011.05.06)
author=SASAKI S, TOYOHASHI UNIV. OF TECH.
license=CC BY-NC-SA
ionization energy=70 eV
ion type=[M]+*
computed spectral entropy=1.4283394057795615
computed normalized entropy=0.40504633482846564
SPLASH=splash10-0006-9100000000-f422dd9d85e5bd9124c3
submitter=submitter = University of Tokyo Team (Faculty of Engineering, University of Tokyo)
MoNA Rating=3.75

>  <NUM PEAKS>  (7222) 
34

>  <MASS SPECTRAL PEAKS>  (7222) 
14 0.6
15 3
17 0.4
18 0.2
26 0.8
27 2.6
28 4
29 0.16
31 1.4
37 0.4
38 0.6
39 0.22
40 0.6
41 2.5
42 2.8
43 99.99
44 2
45 0.2
50 0.2
51 0.01
53 0.4
55 0.8
57 0.3
58 0.16
67 0.2
69 0.5
71 1.8
85 1.94
86 0.6
98 0.2
100 13.7
101 0.07
103 0.5
159 0.2

$$$$

     RDKit          2D

 15 12  0  0  0  0  0  0  0  0999 V2000
    1.6238    1.6875    0.0000 C   0  0  0  0  0  0  0  0  0  0  0  0
   -3.5724    1.6875    0.0000 C   0  0  0  0  0  0  0  0  0  0  0  0
   -0.9743    1.6875    0.0000 C   0  0  0  0  0  0  0  0  0  0  0  0
    0.3248    2.4375    0.0000 C   0  0  0  0  0  0  0  0  0  0  0  0
   -2.2733    2.4375    0.0000 C   0  0  0  0  0  0  0  0  0  0  0  0
    0.3248    3.9375    0.0000 O   0  0  0  0  0  0  0  0  0  0  0  0
   -2.2733    3.9375    0.0000 O   0  0  0  0  0  0  0  0  0  0  0  0
    1.6238    1.6875    0.0000 C   0  0  0  0  0  0  0  0  0  0  0  0
   -3.5724    1.6875    0.0000 C   0  0  0  0  0  0  0  0  0  0  0  0
   -0.9743    1.6875    0.0000 C   0  0  0  0  0  0  0  0  0  0  0  0
    0.3248    2.4375    0.0000 C   0  0  0  0  0  0  0  0  0  0  0  0
   -2.2733    2.4375    0.0000 C   0  0  0  0  0  0  0  0  0  0  0  0
    0.3248    3.9375    0.0000 O   0  0  0  0  0  0  0  0  0  0  0  0
   -2.2733    3.9375    0.0000 O   0  0  0  0  0  0  0  0  0  0  0  0
    0.0000    0.0000    0.0000 Ni  0  0  0  0  0 15  0  0  0  0  0  0
  4  1  1  0
  3  4  2  0
  5  2  1  0
  5  3  1  0
  6  4  1  0
  7  5  2  0
 11  8  1  0
 10 11  2  0
 12  9  1  0
 12 10  1  0
 13 11  1  0
 14 12  2  0
M  CHG  3   6  -1  13  -1  15   2
M  END
>  <NAME>  (7223) 
NICKEL DIACETYLACETONATE

>  <SYNONYMS>  (7223) 


>  <SPECTRUM TYPE>  (7223) 
MS1

>  <INSTRUMENT TYPE>  (7223) 
EI-B

>  <INSTRUMENT>  (7223) 
HITACHI RMU-6D

>  <ION MODE>  (7223) 
P

>  <INCHIKEY>  (7223) 
BMGNSKKZFQMGDH-FDGPNNRMSA-L

>  <FORMULA>  (7223) 
C10H14NiO4

>  <EXACT MASS>  (7223) 
256.024551828

>  <MW>  (7223) 
256

>  <ID>  (7223) 
JP000333

>  <CONTRIBUTOR>  (7223) 
University of Tokyo Team, {Faculty of Engineering, University of Tokyo

>  <COMMENT>  (7223) 
SMILES=CC(=O)C=C(C)O[Ni]OC(C)=CC(C)=O
InChI=InChI=1S/2C5H8O2.Ni/c2*1-4(6)3-5(2)7;/h2*3,6H,1-2H3;/q;;+2/p-2/b2*4-3-;
computed SMILES=[Ni+2].O=C(C=C([O-])C)C.O=C(C=C([O-])C)C
accession=JP000333
date=2016.01.19 (Created 2008.10.21, modified 2011.05.06)
author=SASAKI S, TOYOHASHI UNIV. OF TECH.
license=CC BY-NC-SA
exact mass=256.02456
ionization energy=70 eV
ion type=[M]+*
computed spectral entropy=2.37155234070655
computed normalized entropy=0.6842853602291906
SPLASH=splash10-014l-9000000000-11f7cdf784393a8fe234
submitter=submitter = University of Tokyo Team (Faculty of Engineering, University of Tokyo)
MoNA Rating=3.75

>  <NUM PEAKS>  (7223) 
32

>  <MASS SPECTRAL PEAKS>  (7223) 
12 0.3
13 0.4
14 2
15 1.2
16 3
17 45
18 99.99
26 0.13
27 5
28 32
29 19.3
30 0.02
31 31.3
32 21
36 0.3
37 0.07
38 1
39 4
41 5
42 0.67
43 80
44 8
50 0.3
55 0.02
56 0.3
57 1
58 2.3
69 0.03
71 2.3
85 32
100 22
101 1

$$$$

     RDKit          2D

 22 18  0  0  0  0  0  0  0  0999 V2000
    0.3248    3.9375    0.0000 C   0  0  0  0  0  0  0  0  0  0  0  0
   -3.5724    1.6875    0.0000 C   0  0  0  0  0  0  0  0  0  0  0  0
   -0.9743    1.6875    0.0000 C   0  0  0  0  0  0  0  0  0  0  0  0
    0.3248    2.4375    0.0000 C   0  0  0  0  0  0  0  0  0  0  0  0
   -2.2733    2.4375    0.0000 C   0  0  0  0  0  0  0  0  0  0  0  0
    1.6238    1.6875    0.0000 O   0  0  0  0  0  0  0  0  0  0  0  0
   -2.2733    3.9375    0.0000 O   0  0  0  0  0  0  0  0  0  0  0  0
    0.3248    3.9375    0.0000 C   0  0  0  0  0  0  0  0  0  0  0  0
   -3.5724    1.6875    0.0000 C   0  0  0  0  0  0  0  0  0  0  0  0
   -0.9743    1.6875    0.0000 C   0  0  0  0  0  0  0  0  0  0  0  0
    0.3248    2.4375    0.0000 C   0  0  0  0  0  0  0  0  0  0  0  0
   -2.2733    2.4375    0.0000 C   0  0  0  0  0  0  0  0  0  0  0  0
    1.6238    1.6875    0.0000 O   0  0  0  0  0  0  0  0  0  0  0  0
   -2.2733    3.9375    0.0000 O   0  0  0  0  0  0  0  0  0  0  0  0
    1.6238    1.6875    0.0000 C   0  0  0  0  0  0  0  0  0  0  0  0
   -3.5724    1.6875    0.0000 C   0  0  0  0  0  0  0  0  0  0  0  0
   -0.9743    1.6875    0.0000 C   0  0  0  0  0  0  0  0  0  0  0  0
    0.3248    2.4375    0.0000 C   0  0  0  0  0  0  0  0  0  0  0  0
   -2.2733    2.4375    0.0000 C   0  0  0  0  0  0  0  0  0  0  0  0
    0.3248    3.9375    0.0000 O   0  0  0  0  0  0  0  0  0  0  0  0
   -2.2733    3.9375    0.0000 O   0  0  0  0  0  0  0  0  0  0  0  0
    0.0000    0.0000    0.0000 Co  0  0  0  0  0 15  0  0  0  0  0  0
  4  1  1  0
  3  4  2  0
  5  2  1  0
  5  3  1  0
  6  4  1  0
  7  5  2  0
 11  8  1  0
 10 11  2  0
 12  9  1  0
 12 10  1  0
 13 11  1  0
 14 12  2  0
 18 15  1  0
 17 18  2  0
 19 16  1  0
 19 17  1  0
 20 18  1  0
 21 19  2  0
M  CHG  4   6  -1  13  -1  20  -1  22   3
M  END
>  <NAME>  (7224) 
COBALT TRIACETYLATONATE

>  <SYNONYMS>  (7224) 


>  <SPECTRUM TYPE>  (7224) 
MS1

>  <INSTRUMENT TYPE>  (7224) 
EI-B

>  <INSTRUMENT>  (7224) 
HITACHI RMU-6D

>  <ION MODE>  (7224) 
P

>  <INCHIKEY>  (7224) 
RHCQEPWEBDOALW-AMLHQIMMSA-K

>  <FORMULA>  (7224) 
C15H21CoO6

>  <EXACT MASS>  (7224) 
356.06700839200005

>  <MW>  (7224) 
356

>  <ID>  (7224) 
JP000332

>  <CONTRIBUTOR>  (7224) 
University of Tokyo Team, {Faculty of Engineering, University of Tokyo

>  <COMMENT>  (7224) 
SMILES=CC(=O)C=C(C)O[Co](OC(C)=CC(C)=O)OC(C)=CC(C)=O
InChI=InChI=1S/3C5H8O2.Co/c3*1-4(6)3-5(2)7;/h3*3,6H,1-2H3;/q;;;+3/p-3/b2*4-3+;4-3-;
computed SMILES=[Co+3].O=C(C=C([O-])C)C.O=C(C=C([O-])C)C.O=C(C=C([O-])C)C
accession=JP000332
date=2016.01.19 (Created 2008.10.21, modified 2011.05.06)
author=SASAKI S, TOYOHASHI UNIV. OF TECH.
license=CC BY-NC-SA
exact mass=356.06701
ionization energy=70 eV
ion type=[M]+*
computed spectral entropy=2.6829989196166792
computed normalized entropy=0.6451248726735717
SPLASH=splash10-0006-9020000000-9c17df14ebe6aa07f78c
submitter=submitter = University of Tokyo Team (Faculty of Engineering, University of Tokyo)
MoNA Rating=3.75

>  <NUM PEAKS>  (7224) 
64

>  <MASS SPECTRAL PEAKS>  (7224) 
14 1.5
15 9
17 0.5
18 0.35
26 2
27 7
28 10
29 0.45
31 3.5
37 0.5
38 1.3
39 0.06
40 0.7
41 6.3
42 6.5
43 99.99
44 5.5
45 0.7
50 0.5
51 0.05
52 0.2
53 1
55 2.5
57 0.07
58 3.5
59 5.3
60 0.5
67 0.06
69 1
72 4
73 0.5
74 0.05
76 0.5
78 1.5
85 40.3
86 0.15
87 3
98 0.5
99 0.3
100 0.29
101 1.5
113 0.5
115 2.5
129 0.01
131 0.5
140 0.5
141 0.5
142 0.15
143 5
151 1.8
155 2
158 0.4
159 4
200 0.5
215 0.5
225 0.37
240 0.5
242 29
243 2.5
250 0.43
251 0.7
253 0.7
257 24.5
258 3

$$$$

     RDKit          2D

 15 17  0  0  1  0  0  0  0  0999 V2000
   -2.5990    3.7500    0.0000 C   0  0  0  0  0  0  0  0  0  0  0  0
   -0.0010    3.7500    0.0000 C   0  0  0  0  0  0  0  0  0  0  0  0
    1.3000   -3.0000    0.0000 C   0  0  0  0  0  0  0  0  0  0  0  0
   -1.3000   -3.0000    0.0000 C   0  0  0  0  0  0  0  0  0  0  0  0
    2.6000   -0.7500    0.0000 C   0  0  0  0  0  0  0  0  0  0  0  0
    2.6000    0.7500    0.0000 C   0  0  0  0  0  0  0  0  0  0  0  0
   -2.6000    0.7500    0.0000 C   0  0  0  0  0  0  0  0  0  0  0  0
   -2.6000   -0.7500    0.0000 C   0  0  0  0  0  0  0  0  0  0  0  0
   -1.3000    3.0000    0.0000 C   0  0  0  0  0  0  0  0  0  0  0  0
    1.3000   -1.5000    0.0000 C   0  0  0  0  0  0  0  0  0  0  0  0
   -1.3000    1.5000    0.0000 C   0  0  0  0  0  0  0  0  0  0  0  0
    1.3000    1.5000    0.0000 C   0  0  0  0  0  0  0  0  0  0  0  0
   -0.0000    0.7500    0.0000 C   0  0  0  0  0  0  0  0  0  0  0  0
   -0.0000   -0.7500    0.0000 C   0  0  0  0  0  0  0  0  0  0  0  0
   -1.3000   -1.5000    0.0000 C   0  0  0  0  0  0  0  0  0  0  0  0
  6  5  1  0
  8  7  1  0
  9  1  1  0
  9  2  1  0
 10  3  1  0
 10  5  2  0
 11  7  1  0
 11  9  1  1
 12  6  1  0
 13 11  1  0
 13 12  1  0
 14 10  1  6
 14 13  1  0
 15  4  1  6
 15  8  1  0
 15 12  1  0
 15 14  1  0
M  END
>  <NAME>  (7225) 
YLANGENE

>  <SYNONYMS>  (7225) 


>  <SPECTRUM TYPE>  (7225) 
MS1

>  <INSTRUMENT TYPE>  (7225) 
EI-B

>  <INSTRUMENT>  (7225) 
HITACHI RMU-6D

>  <ION MODE>  (7225) 
P

>  <INCHIKEY>  (7225) 
VLXDPFLIRFYIME-IIZVFWCOSA-N

>  <FORMULA>  (7225) 
C15H24

>  <EXACT MASS>  (7225) 
204.187800768

>  <MW>  (7225) 
204

>  <ID>  (7225) 
JP000329

>  <CONTRIBUTOR>  (7225) 
University of Tokyo Team, {Faculty of Engineering, University of Tokyo

>  <COMMENT>  (7225) 
SMILES=CC(C)C([H])(C2)C(C31)C(C(C)=CC3)C(C)(C2)1
InChI=InChI=1S/C15H24/c1-9(2)11-7-8-15(4)12-6-5-10(3)14(15)13(11)12/h5,9,11-14H,6-8H2,1-4H3/t11-,12?,13?,14-,15-/m0/s1
computed SMILES=C1=C(C)C2C3C(CCC2(C)C3C1)C(C)C
accession=JP000329
date=2016.01.19 (Created 2008.10.21, modified 2011.05.06)
author=SASAKI S, TOYOHASHI UNIV. OF TECH.
license=CC BY-NC-SA
exact mass=204.1878
ionization energy=70 eV
ion type=[M]+*
computed spectral entropy=3.2965342047484616
computed normalized entropy=0.801905948386813
SPLASH=splash10-08fu-8900000000-0ac27b6ed893c5e9ad4d
submitter=submitter = University of Tokyo Team (Faculty of Engineering, University of Tokyo)
MoNA Rating=3.75

>  <NUM PEAKS>  (7225) 
61

>  <MASS SPECTRAL PEAKS>  (7225) 
27 16
29 9
39 16
40 0.3
41 50
42 6
43 22
51 0.02
53 15
55 28
56 2
57 0.02
65 10
66 2
67 10
68 0.02
69 10
70 2
77 25
78 0.02
79 18
80 1
81 20
82 0.01
83 2
91 32
92 12
93 0.58
94 12
95 9
105 62
106 0.1
107 13
108 8
109 4
115 0.04
116 1
117 4
118 1
119 0.78
120 30
121 28
122 4
123 0.04
131 2
132 1
133 1
134 0.09
135 6
136 1
137 36
145 0.04
147 6
148 2
149 2
161 99.99
162 28
163 4
189 8
205 0.6
206 4

$$$$

     RDKit          2D

  7  6  0  0  0  0  0  0  0  0999 V2000
    1.6238    1.6875    0.0000 C   0  0  0  0  0  0  0  0  0  0  0  0
   -3.5724    1.6875    0.0000 C   0  0  0  0  0  0  0  0  0  0  0  0
   -0.9743    1.6875    0.0000 C   0  0  0  0  0  0  0  0  0  0  0  0
    0.3248    2.4375    0.0000 C   0  0  0  0  0  0  0  0  0  0  0  0
   -2.2733    2.4375    0.0000 C   0  0  0  0  0  0  0  0  0  0  0  0
    0.3248    3.9375    0.0000 O   0  0  0  0  0  0  0  0  0  0  0  0
   -2.2733    3.9375    0.0000 O   0  0  0  0  0  0  0  0  0  0  0  0
  4  1  1  0
  4  3  1  0
  5  2  1  0
  5  3  1  0
  6  4  2  0
  7  5  2  0
M  END
>  <NAME>  (7226) 
ACETYLACETONE

>  <SYNONYMS>  (7226) 


>  <SPECTRUM TYPE>  (7226) 
MS1

>  <INSTRUMENT TYPE>  (7226) 
EI-B

>  <INSTRUMENT>  (7226) 
HITACHI RMU-6D

>  <ION MODE>  (7226) 
P

>  <INCHIKEY>  (7226) 
YRKCREAYFQTBPV-UHFFFAOYSA-N

>  <FORMULA>  (7226) 
C5H8O2

>  <EXACT MASS>  (7226) 
100.052429496

>  <MW>  (7226) 
100

>  <ID>  (7226) 
JP000328

>  <CONTRIBUTOR>  (7226) 
University of Tokyo Team, {Faculty of Engineering, University of Tokyo

>  <COMMENT>  (7226) 
SMILES=CC(=O)CC(C)=O
InChI=InChI=1S/C5H8O2/c1-4(6)3-5(2)7/h3H2,1-2H3
computed SMILES=O=C(C)CC(=O)C
accession=JP000328
date=2016.01.19 (Created 2008.10.21, modified 2011.05.06)
author=SASAKI S, TOYOHASHI UNIV. OF TECH.
license=CC BY-NC-SA
exact mass=100.05243
ionization energy=70 eV
ion type=[M]+*
computed spectral entropy=1.9737050677581058
computed normalized entropy=0.638524089377595
SPLASH=splash10-00kf-9100000000-46d8c1174b4626f67753
submitter=submitter = University of Tokyo Team (Faculty of Engineering, University of Tokyo)
MoNA Rating=3.75

>  <NUM PEAKS>  (7226) 
22

>  <MASS SPECTRAL PEAKS>  (7226) 
15 6.6
17 14
18 62
26 0.1
27 5
28 4.7
29 2.7
31 0.02
38 0.7
39 4
41 4
42 0.05
43 99.99
44 1
45 7
56 0.01
58 2
72 3
85 41
86 0.01
100 30
101 1

$$$$

     RDKit          2D

 18 19  0  0  0  0  0  0  0  0999 V2000
    0.0541    0.8434    0.0000 C   0  0  0  0  0  0  0  0  0  0  0  0
   -1.4649    6.9186    0.0000 C   0  0  0  0  0  0  0  0  0  0  0  0
   -2.9763    5.8178    0.0000 C   0  0  0  0  0  0  0  0  0  0  0  0
    3.9306    5.6101    0.0000 C   0  0  0  0  0  0  0  0  0  0  0  0
    1.0100    3.2000    0.0000 C   0  0  0  0  0  0  0  0  0  0  0  0
    2.4100    2.6700    0.0000 C   0  0  0  0  0  0  0  0  0  0  0  0
    0.8203    7.1019    0.0000 C   0  0  0  0  0  0  0  0  0  0  0  0
    2.3409    6.7542    0.0000 C   0  0  0  0  0  0  0  0  0  0  0  0
   -1.6500    2.7200    0.0000 C   0  0  0  0  0  0  0  0  0  0  0  0
   -0.2100    2.3200    0.0000 C   0  0  0  0  0  0  0  0  0  0  0  0
    3.3500    3.8500    0.0000 C   0  0  0  0  0  0  0  0  0  0  0  0
   -2.2400    4.1000    0.0000 C   0  0  0  0  0  0  0  0  0  0  0  0
   -0.0600    5.6900    0.0000 C   0  0  0  0  0  0  0  0  0  0  0  0
   -1.5300    5.4200    0.0000 C   0  0  0  0  0  0  0  0  0  0  0  0
    2.5200    5.1000    0.0000 C   0  0  0  0  0  0  0  0  0  0  0  0
    4.8486    3.7851    0.0000 O   0  0  0  0  0  0  0  0  0  0  0  0
   -3.7385    4.1671    0.0000 O   0  0  0  0  0  0  0  0  0  0  0  0
    1.0700    4.7000    0.0000 O   0  0  0  0  0  0  0  0  0  0  0  0
  6  5  1  0
  8  7  1  0
 10  1  1  0
 10  5  1  0
  9 10  2  0
 11  6  1  0
 12  9  1  0
 13  7  1  0
 14  2  1  0
 14  3  1  0
 14 12  1  0
 14 13  1  0
 15  4  1  0
 15  8  1  0
 15 11  1  0
 16 11  1  0
 17 12  1  0
 18 13  1  0
 18 15  1  0
M  END
>  <NAME>  (7227) 
ISOCAUCALOL

>  <SYNONYMS>  (7227) 


>  <SPECTRUM TYPE>  (7227) 
MS1

>  <INSTRUMENT TYPE>  (7227) 
EI-B

>  <INSTRUMENT>  (7227) 
HITACHI RMU-6D

>  <ION MODE>  (7227) 
P

>  <INCHIKEY>  (7227) 
GMYOIOXPNNQOMS-KTKRTIGZSA-N

>  <FORMULA>  (7227) 
C15H26O3

>  <EXACT MASS>  (7227) 
254.18819469199997

>  <MW>  (7227) 
254

>  <ID>  (7227) 
JP000327

>  <CONTRIBUTOR>  (7227) 
University of Tokyo Team, {Faculty of Engineering, University of Tokyo

>  <COMMENT>  (7227) 
SMILES=CC(C1)=C([H])C(O)C(C)(C)C(C2)OC(C)(C2)C(O)C1
InChI=InChI=1S/C15H26O3/c1-10-5-6-11(16)15(4)8-7-13(18-15)14(2,3)12(17)9-10/h9,11-13,16-17H,5-8H2,1-4H3/b10-9-
computed SMILES=OC1C=C(C)CCC(O)C2(OC(CC2)C1(C)C)C
accession=JP000327
date=2016.01.19 (Created 2008.10.21, modified 2011.05.06)
author=SASAKI S, TOYOHASHI UNIV. OF TECH.
license=CC BY-NC-SA
exact mass=254.18819
ionization energy=70 eV
ion type=[M]+*
computed spectral entropy=3.4167091247010934
computed normalized entropy=0.7241093444965271
SPLASH=splash10-0006-9200000000-580a290ba7b9906ee687
submitter=submitter = University of Tokyo Team (Faculty of Engineering, University of Tokyo)
MoNA Rating=3.75

>  <NUM PEAKS>  (7227) 
112

>  <MASS SPECTRAL PEAKS>  (7227) 
41 70
42 14
43 99.99
44 0.9
45 5.5
51 1.5
52 0.5
53 0.01
54 1.5
55 25
56 9
57 1.15
58 2
59 2
60 0.5
62 0.01
63 0.1
65 2
66 1
67 0.65
68 3
69 24.5
70 4
71 0.15
72 2
73 3.8
74 1
75 0.05
77 3.5
78 1
79 4.5
80 0.25
81 14
82 6.3
83 17
84 0.37
85 7
86 2
87 2.5
88 0.01
89 0.5
91 3.5
92 1
93 0.65
94 3
95 8
96 2.5
97 0.95
98 4.5
99 3
101 8.5
102 0.05
105 1.5
107 6
108 6.5
109 0.29
110 18
111 8.5
112 1.3
113 0.16
115 0.5
117 0.8
118 0.5
119 0.02
120 0.8
121 5.5
122 3
124 0.15
125 6.5
126 6
127 11.5
128 0.18
129 0.8
130 0.3
131 0.3
132 0.05
133 1
134 3
135 2.5
136 0.28
137 2
138 0.8
139 2.5
140 0.08
141 0.5
142 0.5
143 0.5
144 0.05
145 0.5
147 1.3
148 0.5
149 0.15
151 1
152 0.8
153 2
154 0.28
155 0.7
159 0.5
160 1
161 0.01
163 0.8
164 0.7
165 2.3
167 0.07
171 1
175 1
179 1
191 0.17
218 1.5
236 4.5
237 1
254 1

$$$$

     RDKit          2D

 24 25  0  0  1  0  0  0  0  0999 V2000
    2.0602    5.4489    0.0000 C   0  0  0  0  0  0  0  0  0  0  0  0
    2.0606   -4.9470    0.0000 C   0  0  0  0  0  0  0  0  0  0  0  0
    5.0600    2.8490    0.0000 C   0  0  0  0  0  0  0  0  0  0  0  0
    3.2092   -0.7141    0.0000 C   0  0  0  0  0  0  0  0  0  0  0  0
    3.3591    0.9999    0.0000 C   0  0  0  0  0  0  0  0  0  0  0  0
   -2.8671   -1.1879    0.0000 C   0  0  0  0  0  0  0  0  0  0  0  0
   -0.1900    4.1500    0.0000 C   0  0  0  0  0  0  0  0  0  0  0  0
   -0.9400    2.8500    0.0000 C   0  0  0  0  0  0  0  0  0  0  0  0
   -0.1900   -1.0500    0.0000 C   0  0  0  0  0  0  0  0  0  0  0  0
   -0.9400    0.2500    0.0000 C   0  0  0  0  0  0  0  0  0  0  0  0
    2.0600    2.8500    0.0000 C   0  0  0  0  0  0  0  0  0  0  0  0
    1.3100    4.1500    0.0000 C   0  0  0  0  0  0  0  0  0  0  0  0
    1.3104   -3.6481    0.0000 C   0  0  0  0  0  0  0  0  0  0  0  0
    3.5600    2.8490    0.0000 C   0  0  0  0  0  0  0  0  0  0  0  0
    1.3100   -1.0500    0.0000 C   0  0  0  0  0  0  0  0  0  0  0  0
   -3.1900    1.5500    0.0000 C   0  0  0  0  0  0  0  0  0  0  0  0
    1.3100    1.5500    0.0000 C   0  0  0  0  0  0  0  0  0  0  0  0
    2.0600    0.2500    0.0000 C   0  0  0  0  0  0  0  0  0  0  0  0
   -2.4400    0.2500    0.0000 C   0  0  0  0  0  0  0  0  0  0  0  0
   -0.1896   -3.6483    0.0000 O   0  0  0  0  0  0  0  0  0  0  0  0
    2.8100    4.1481    0.0000 O   0  0  0  0  0  0  0  0  0  0  0  0
    2.0602   -2.3489    0.0000 O   0  0  0  0  0  0  0  0  0  0  0  0
    2.8100    1.5500    0.0000 O   0  0  0  0  0  0  0  0  0  0  0  0
   -3.9402    0.2508    0.0000 O   0  0  0  0  0  0  0  0  0  0  0  0
  8  7  1  0
 10  9  1  0
 12  1  1  0
 12  7  1  0
 11 12  2  0
 13  2  1  0
 14  3  1  0
 15  9  1  0
 16  8  1  1
 17 11  1  0
 18  4  1  0
 18  5  1  0
 18 15  1  0
 18 17  1  0
 19  6  1  1
 19 10  1  0
 19 16  1  0
 20 13  2  0
 21 14  2  0
 22 13  1  0
 15 22  1  1
 23 14  1  0
 17 23  1  1
 16 24  1  0
 24 19  1  0
M  END
>  <NAME>  (7228) 
CAUCALOL DIACETATE

>  <SYNONYMS>  (7228) 


>  <SPECTRUM TYPE>  (7228) 
MS1

>  <INSTRUMENT TYPE>  (7228) 
EI-B

>  <INSTRUMENT>  (7228) 
HITACHI RMU-6D

>  <ION MODE>  (7228) 
P

>  <INCHIKEY>  (7228) 
LLDZPKVTWNOHBD-NXWIZDFYSA-N

>  <FORMULA>  (7228) 
C19H30O5

>  <EXACT MASS>  (7228) 
338.20932406

>  <MW>  (7228) 
338

>  <ID>  (7228) 
JP000326

>  <CONTRIBUTOR>  (7228) 
University of Tokyo Team, {Faculty of Engineering, University of Tokyo

>  <COMMENT>  (7228) 
SMILES=CC(=O)OC([H])(C2)C(C)(C)C([H])(OC(C)=O)C([H])=C(C)CCC([H])(O1)C(C)(C2)1
InChI=InChI=1S/C19H30O5/c1-12-7-8-16-19(6,24-16)10-9-15(22-13(2)20)18(4,5)17(11-12)23-14(3)21/h11,15-17H,7-10H2,1-6H3/b12-11-/t15-,16-,17-,19-/m0/s1
computed SMILES=O=C(OC1C=C(C)CCC2OC2(C)CCC(OC(=O)C)C1(C)C)C
accession=JP000326
date=2016.01.19 (Created 2008.10.21, modified 2011.05.06)
author=SASAKI S, TOYOHASHI UNIV. OF TECH.
license=CC BY-NC-SA
exact mass=338.20932
ionization energy=70 eV
ion type=[M]+*
computed spectral entropy=4.175640344131618
computed normalized entropy=0.8187744528660348
SPLASH=splash10-0apl-9600000000-fc6fb1a4523c5a527c84
submitter=submitter = University of Tokyo Team (Faculty of Engineering, University of Tokyo)
MoNA Rating=3.75

>  <NUM PEAKS>  (7228) 
164

>  <MASS SPECTRAL PEAKS>  (7228) 
41 23
42 2.5
43 99.99
44 0.2
45 3
50 2.5
51 8
52 0.05
53 9
54 7
55 78
56 0.09
57 19.5
58 2.5
59 4.5
60 0.75
61 3.5
62 1
63 2.5
64 0.15
65 13
66 5
67 42
68 1.08
69 47.5
70 6.5
71 22
72 0.85
73 2
74 0.5
75 1.5
76 0.01
77 26
78 12
79 35.5
80 1.55
81 54.5
82 33.5
83 33
84 3.05
85 17.5
87 1
89 1
90 0.29
91 7.5
92 34.5
93 12.8
94 3.35
95 12.5
96 25
97 5
99 0.45
100 3.5
101 3
102 1
103 0.05
104 1.5
105 22.5
106 8
107 0.42
109 78
110 17.5
111 23.5
112 0.85
113 1.5
114 3
115 5.5
116 0.15
117 7.5
118 4.5
119 19
120 0.85
121 24
122 15.5
123 15.5
124 0.09
125 13.5
126 11
127 1.5
128 0.03
129 3
130 2
131 7.5
132 0.45
133 16
134 5
135 17.5
136 0.12
137 10.5
138 5.5
139 6.5
140 0.35
141 1.5
142 1.5
143 3.8
144 0.02
145 1
146 3.5
147 23.5
148 0.75
149 10
150 5.5
151 8.5
152 0.06
153 6
154 6.5
155 2.5
156 0.15
157 5.3
158 2.5
159 2
160 0.75
161 11.5
162 6.5
163 4
164 0.15
165 2.5
166 1.5
167 5.5
168 0.15
169 1.8
170 1
171 2
172 0.3
173 3
174 5.5
175 17.5
176 0.04
177 2
178 1
179 1
180 0.08
185 6
186 0.8
187 1
188 0.05
189 4.5
190 4.5
191 2
192 0.01
193 1.5
200 4.3
201 2.5
202 0.07
204 1.3
206 8.5
207 0.7
208 0.07
209 1.5
211 0.7
212 0.7
216 0.07
217 2
218 15.7
219 5
220 0.02
221 1.5
222 0.8
236 4
237 0.02
238 1
278 3.2
279 1
338 1.5

$$$$

     RDKit          2D

 10 11  0  0  0  0  0  0  0  0999 V2000
   -1.4300    1.2100    0.0000 C   0  0  0  0  0  0  0  0  0  0  0  0
    1.4300    1.2100    0.0000 C   0  0  0  0  0  0  0  0  0  0  0  0
   -1.4300   -1.2100    0.0000 C   0  0  0  0  0  0  0  0  0  0  0  0
    1.4300   -1.2100    0.0000 C   0  0  0  0  0  0  0  0  0  0  0  0
    0.0000    0.7500    0.0000 C   0  0  0  0  0  0  0  0  0  0  0  0
    0.0000   -0.7500    0.0000 C   0  0  0  0  0  0  0  0  0  0  0  0
   -2.3100    0.0000    0.0000 C   0  0  0  0  0  0  0  0  0  0  0  0
    2.3100    0.0000    0.0000 C   0  0  0  0  0  0  0  0  0  0  0  0
   -3.8100    0.0000    0.0000 O   0  0  0  0  0  0  0  0  0  0  0  0
    3.8100   -0.0000    0.0000 O   0  0  0  0  0  0  0  0  0  0  0  0
  5  1  1  0
  5  2  1  0
  6  3  1  0
  6  4  1  0
  6  5  1  0
  7  1  1  0
  7  3  1  0
  8  2  1  0
  8  4  1  0
  9  7  2  0
 10  8  2  0
M  END
>  <NAME>  (7229) 
CIS-BICYCLO(3.3.0)OCTAN-3,7-DIONE

>  <SYNONYMS>  (7229) 


>  <SPECTRUM TYPE>  (7229) 
MS1

>  <INSTRUMENT TYPE>  (7229) 
EI-B

>  <INSTRUMENT>  (7229) 
ESCO EMD-05A

>  <ION MODE>  (7229) 
P

>  <INCHIKEY>  (7229) 
HAFQHNGZPQYKFF-UHFFFAOYSA-N

>  <FORMULA>  (7229) 
C8H10O2

>  <EXACT MASS>  (7229) 
138.06807956

>  <MW>  (7229) 
138

>  <ID>  (7229) 
JP000325

>  <CONTRIBUTOR>  (7229) 
University of Tokyo Team, {Faculty of Engineering, University of Tokyo

>  <COMMENT>  (7229) 
SMILES=O=C(C1)CC([H])(C2)C([H])1CC(=O)2
InChI=InChI=1S/C8H10O2/c9-7-1-5-2-8(10)4-6(5)3-7/h5-6H,1-4H2
computed SMILES=O=C1CC2CC(=O)CC2C1
accession=JP000325
date=2016.01.19 (Created 2008.10.21, modified 2011.05.06)
author=YAMAMOTO M, DEP. CHEMISTRY, FAC. SCIENCE, NARA WOMEN'S UNIV.
license=CC BY-NC-SA
exact mass=138.06808
ionization energy=70 eV
ion type=[M]+*
computed spectral entropy=2.6003422963032348
computed normalized entropy=0.7572370371406497
SPLASH=splash10-000f-9100000000-27f836d1a21a4dc1cd34
submitter=submitter = University of Tokyo Team (Faculty of Engineering, University of Tokyo)
MoNA Rating=3.75

>  <NUM PEAKS>  (7229) 
31

>  <MASS SPECTRAL PEAKS>  (7229) 
37 2.8
38 3.9
39 36.1
40 1.08
41 99.99
42 17.6
43 31.7
44 0.34
50 4.2
51 2.3
52 3.5
53 1.14
54 5.9
55 10.9
57 2.3
58 0.81
65 3.1
66 2.3
67 10.2
68 5.91
69 26.1
70 5.1
91 7.9
92 0.2
95 10.9
96 4.3
97 5.7
110 0.45
137 2.5
138 42
139 5.1

$$$$

     RDKit          2D

 10 11  0  0  0  0  0  0  0  0999 V2000
   -2.3100   -0.7500    0.0000 C   0  0  0  0  0  0  0  0  0  0  0  0
   -2.3100    0.7500    0.0000 C   0  0  0  0  0  0  0  0  0  0  0  0
   -1.0100   -1.5000    0.0000 C   0  0  0  0  0  0  0  0  0  0  0  0
   -1.0100    1.5000    0.0000 C   0  0  0  0  0  0  0  0  0  0  0  0
    1.7200   -1.2100    0.0000 C   0  0  0  0  0  0  0  0  0  0  0  0
    1.7200    1.2100    0.0000 C   0  0  0  0  0  0  0  0  0  0  0  0
    0.2900   -0.7500    0.0000 C   0  0  0  0  0  0  0  0  0  0  0  0
    0.2900    0.7500    0.0000 C   0  0  0  0  0  0  0  0  0  0  0  0
    2.6000    0.0000    0.0000 C   0  0  0  0  0  0  0  0  0  0  0  0
    4.1000   -0.0000    0.0000 O   0  0  0  0  0  0  0  0  0  0  0  0
  2  1  2  0
  3  1  1  0
  4  2  1  0
  7  3  2  0
  7  5  1  0
  8  4  2  0
  8  6  1  0
  8  7  1  0
  9  5  1  0
  9  6  1  0
 10  9  2  0
M  END
>  <NAME>  (7230) 
2-INDANONE

>  <SYNONYMS>  (7230) 


>  <SPECTRUM TYPE>  (7230) 
MS1

>  <INSTRUMENT TYPE>  (7230) 
EI-B

>  <INSTRUMENT>  (7230) 
ESCO EMD-05A

>  <ION MODE>  (7230) 
P

>  <INCHIKEY>  (7230) 
UMJJFEIKYGFCAT-UHFFFAOYSA-N

>  <FORMULA>  (7230) 
C9H8O

>  <EXACT MASS>  (7230) 
132.057514876

>  <MW>  (7230) 
132

>  <ID>  (7230) 
JP000324

>  <CONTRIBUTOR>  (7230) 
University of Tokyo Team, {Faculty of Engineering, University of Tokyo

>  <COMMENT>  (7230) 
SMILES=O=C(C1)Cc(c2)c(ccc2)1
InChI=InChI=1S/C9H8O/c10-9-5-7-3-1-2-4-8(7)6-9/h1-4H,5-6H2
computed SMILES=O=C1CC=2C=CC=CC2C1
accession=JP000324
date=2016.01.19 (Created 2008.10.21, modified 2011.05.06)
author=YAMAMOTO M, DEP. CHEMISTRY, FAC. SCIENCE, NARA WOMEN'S UNIV.
license=CC BY-NC-SA
exact mass=132.05751
ionization energy=70 eV
ion type=[M]+*
computed spectral entropy=2.059379452099978
computed normalized entropy=0.7427641307133173
SPLASH=splash10-0udi-5900000000-cf87874bc0aafaa63b25
submitter=submitter = University of Tokyo Team (Faculty of Engineering, University of Tokyo)
MoNA Rating=3.75

>  <NUM PEAKS>  (7230) 
16

>  <MASS SPECTRAL PEAKS>  (7230) 
39 9.9
43 14
50 7.8
51 2.95
52 11.8
58 2.5
63 6.7
76 0.18
77 15.3
78 27.7
102 5.2
103 3.42
104 99.99
105 7.9
132 50.5
133 1.9

$$$$

     RDKit          2D

 10 11  0  0  0  0  0  0  0  0999 V2000
   -2.5200   -1.0100    0.0000 C   0  0  0  0  0  0  0  0  0  0  0  0
   -2.5200    0.4900    0.0000 C   0  0  0  0  0  0  0  0  0  0  0  0
   -1.2300   -1.7600    0.0000 C   0  0  0  0  0  0  0  0  0  0  0  0
   -1.2300    1.2400    0.0000 C   0  0  0  0  0  0  0  0  0  0  0  0
    1.5000   -1.4800    0.0000 C   0  0  0  0  0  0  0  0  0  0  0  0
    2.3800   -0.2600    0.0000 C   0  0  0  0  0  0  0  0  0  0  0  0
    0.0700   -1.0100    0.0000 C   0  0  0  0  0  0  0  0  0  0  0  0
    0.0700    0.4900    0.0000 C   0  0  0  0  0  0  0  0  0  0  0  0
    1.5000    0.9500    0.0000 C   0  0  0  0  0  0  0  0  0  0  0  0
    1.9653    2.3760    0.0000 O   0  0  0  0  0  0  0  0  0  0  0  0
  2  1  2  0
  3  1  1  0
  4  2  1  0
  6  5  1  0
  7  3  2  0
  7  5  1  0
  8  4  2  0
  8  7  1  0
  9  6  1  0
  9  8  1  0
 10  9  2  0
M  END
>  <NAME>  (7231) 
1-INDANONE

>  <SYNONYMS>  (7231) 


>  <SPECTRUM TYPE>  (7231) 
MS1

>  <INSTRUMENT TYPE>  (7231) 
EI-B

>  <INSTRUMENT>  (7231) 
ESCO EMD-05A

>  <ION MODE>  (7231) 
P

>  <INCHIKEY>  (7231) 
QNXSIUBBGPHDDE-UHFFFAOYSA-N

>  <FORMULA>  (7231) 
C9H8O

>  <EXACT MASS>  (7231) 
132.057514876

>  <MW>  (7231) 
132

>  <ID>  (7231) 
JP000323

>  <CONTRIBUTOR>  (7231) 
University of Tokyo Team, {Faculty of Engineering, University of Tokyo

>  <COMMENT>  (7231) 
SMILES=O=C(C1)c(c2)c(ccc2)C1
InChI=InChI=1S/C9H8O/c10-9-6-5-7-3-1-2-4-8(7)9/h1-4H,5-6H2
computed SMILES=O=C1C=2C=CC=CC2CC1
accession=JP000323
date=2016.01.19 (Created 2008.10.21, modified 2011.05.06)
author=YAMAMOTO M, DEP. CHEMISTRY, FAC. SCIENCE, NARA WOMEN'S UNIV.
license=CC BY-NC-SA
exact mass=132.05751
ionization energy=70 eV
ion type=[M]+*
computed spectral entropy=2.437067555621297
computed normalized entropy=0.7668427552576972
SPLASH=splash10-0f89-5900000000-8ec8888fed124089d446
submitter=submitter = University of Tokyo Team (Faculty of Engineering, University of Tokyo)
MoNA Rating=3.75

>  <NUM PEAKS>  (7231) 
24

>  <MASS SPECTRAL PEAKS>  (7231) 
38 1.6
39 6.2
43 4.1
50 1.37
51 25.6
52 3.6
61 1
62 0.29
63 8.3
64 1
74 7.4
75 0.48
76 14
77 24.3
78 24.4
79 0.1
89 2.8
102 8.9
103 44.3
104 8.41
105 11.1
131 28.1
132 99.99
133 10.3

$$$$

     RDKit          2D

  8  7  0  0  0  0  0  0  0  0999 V2000
    1.9486    3.3750    0.0000 C   0  0  0  0  0  0  0  0  0  0  0  0
   -5.8457    3.3750    0.0000 C   0  0  0  0  0  0  0  0  0  0  0  0
    0.6495    4.1250    0.0000 C   0  0  0  0  0  0  0  0  0  0  0  0
   -0.6495    3.3750    0.0000 C   0  0  0  0  0  0  0  0  0  0  0  0
   -1.9486    4.1250    0.0000 C   0  0  0  0  0  0  0  0  0  0  0  0
   -4.5466    4.1250    0.0000 C   0  0  0  0  0  0  0  0  0  0  0  0
   -3.2476    3.3750    0.0000 N   0  0  0  0  0  0  0  0  0  0  0  0
   -4.5466    5.6250    0.0000 O   0  0  0  0  0  0  0  0  0  0  0  0
  3  1  1  0
  4  3  1  0
  5  4  1  0
  6  2  1  0
  7  5  1  0
  7  6  2  3
  8  6  1  0
M  END
>  <NAME>  (7232) 
N-BUTYLACETAMIDE

>  <SYNONYMS>  (7232) 


>  <SPECTRUM TYPE>  (7232) 
MS1

>  <INSTRUMENT TYPE>  (7232) 
EI-B

>  <INSTRUMENT>  (7232) 
HITACHI RMU-6M

>  <ION MODE>  (7232) 
P

>  <INCHIKEY>  (7232) 
GYLDXXLJMRTVSS-UHFFFAOYSA-N

>  <FORMULA>  (7232) 
C6H13NO

>  <EXACT MASS>  (7232) 
115.099714036

>  <MW>  (7232) 
115

>  <ID>  (7232) 
JP000312

>  <CONTRIBUTOR>  (7232) 
University of Tokyo Team, {Faculty of Engineering, University of Tokyo

>  <COMMENT>  (7232) 
SMILES=CCCCNC(C)=O
InChI=InChI=1S/C6H13NO/c1-3-4-5-7-6(2)8/h3-5H2,1-2H3,(H,7,8)
computed SMILES=OC(=NCCCC)C
accession=JP000312
date=2016.01.19 (Created 2008.10.21, modified 2011.05.06)
author=YAMAMOTO M, DEP. CHEMISTRY, FAC. SCIENCE, NARA WOMEN'S UNIV.
license=CC BY-NC-SA
exact mass=115.09971
ionization energy=70 eV
ion type=[M]+*
computed spectral entropy=2.1676687035209197
computed normalized entropy=0.6913323878923401
SPLASH=splash10-001l-9000000000-a4636dd5080c9c0e857a
submitter=submitter = University of Tokyo Team (Faculty of Engineering, University of Tokyo)
MoNA Rating=3.75

>  <NUM PEAKS>  (7232) 
23

>  <MASS SPECTRAL PEAKS>  (7232) 
15 6
27 6.1
28 5.2
29 0.58
30 99.99
31 2.8
39 3.4
41 0.73
42 3.1
43 33.2
44 18
45 0.18
55 1.2
56 2.4
57 2.1
58 0.3
60 7.9
72 22.1
73 16.9
86 0.67
100 5.5
115 10.4
116 1.3

$$$$

     RDKit          2D

 14 14  0  0  0  0  0  0  0  0999 V2000
   -6.8197    3.1321    0.0000 C   0  0  0  0  0  0  0  0  0  0  0  0
   -5.5207    5.3821    0.0000 C   0  0  0  0  0  0  0  0  0  0  0  0
    3.5726    1.6321    0.0000 C   0  0  0  0  0  0  0  0  0  0  0  0
    3.5731    3.1329    0.0000 C   0  0  0  0  0  0  0  0  0  0  0  0
    2.2731    0.8813    0.0000 C   0  0  0  0  0  0  0  0  0  0  0  0
    2.2740    3.8829    0.0000 C   0  0  0  0  0  0  0  0  0  0  0  0
    0.9740    1.6313    0.0000 C   0  0  0  0  0  0  0  0  0  0  0  0
   -4.2216    3.1321    0.0000 C   0  0  0  0  0  0  0  0  0  0  0  0
   -2.9226    3.8821    0.0000 C   0  0  0  0  0  0  0  0  0  0  0  0
   -5.5207    3.8821    0.0000 C   0  0  0  0  0  0  0  0  0  0  0  0
    0.9745    3.1321    0.0000 C   0  0  0  0  0  0  0  0  0  0  0  0
   -0.3245    3.8821    0.0000 C   0  0  0  0  0  0  0  0  0  0  0  0
   -0.3245    5.3821    0.0000 O   0  0  0  0  0  0  0  0  0  0  0  0
   -1.6236    3.1321    0.0000 O   0  0  0  0  0  0  0  0  0  0  0  0
  4  3  2  0
  5  3  1  0
  6  4  1  0
  7  5  2  0
  9  8  1  0
 10  1  1  0
 10  2  1  0
 10  8  1  0
 11  6  2  0
 11  7  1  0
 12 11  1  0
 13 12  2  0
 14  9  1  0
 14 12  1  0
M  END
>  <NAME>  (7233) 
ISOAMYL BENZOATE

>  <SYNONYMS>  (7233) 


>  <SPECTRUM TYPE>  (7233) 
MS1

>  <INSTRUMENT TYPE>  (7233) 
EI-B

>  <INSTRUMENT>  (7233) 
HITACHI RMU-6M

>  <ION MODE>  (7233) 
P

>  <INCHIKEY>  (7233) 
MLLAPOCBLWUFAP-UHFFFAOYSA-N

>  <FORMULA>  (7233) 
C12H16O2

>  <EXACT MASS>  (7233) 
192.115029752

>  <MW>  (7233) 
192

>  <ID>  (7233) 
JP000309

>  <CONTRIBUTOR>  (7233) 
University of Tokyo Team, {Faculty of Engineering, University of Tokyo

>  <COMMENT>  (7233) 
SMILES=CC(C)CCOC(=O)c(c1)cccc1
InChI=InChI=1S/C12H16O2/c1-10(2)8-9-14-12(13)11-6-4-3-5-7-11/h3-7,10H,8-9H2,1-2H3
computed SMILES=O=C(OCCC(C)C)C=1C=CC=CC1
accession=JP000309
date=2016.01.19 (Created 2008.10.21, modified 2011.05.06)
author=YAMAMOTO M, DEP. CHEMISTRY, FAC. SCIENCE, NARA WOMEN'S UNIV.
license=CC BY-NC-SA
exact mass=192.11503
ionization energy=70 eV
ion type=[M]+*
computed spectral entropy=2.2969860423364348
computed normalized entropy=0.7135988361497253
SPLASH=splash10-00di-9100000000-b6811b5cb0cc56e87860
submitter=submitter = University of Tokyo Team (Faculty of Engineering, University of Tokyo)
MoNA Rating=3.75

>  <NUM PEAKS>  (7233) 
25

>  <MASS SPECTRAL PEAKS>  (7233) 
27 6
28 1
29 4.6
39 0.43
41 8.5
42 9.2
43 8.1
50 0.34
51 13.1
52 1
55 23.2
56 0.14
69 2.9
70 99.99
71 6.2
76 0.21
77 36.9
78 3
79 4.3
105 7.5
106 6.3
122 6.2
123 25.5
124 0.21
149 1

$$$$

     RDKit          2D

 13 13  0  0  0  0  0  0  0  0999 V2000
   -5.8454    3.6946    0.0000 C   0  0  0  0  0  0  0  0  0  0  0  0
   -4.5464    1.4446    0.0000 C   0  0  0  0  0  0  0  0  0  0  0  0
    3.2478    1.4446    0.0000 C   0  0  0  0  0  0  0  0  0  0  0  0
    3.2483    2.9454    0.0000 C   0  0  0  0  0  0  0  0  0  0  0  0
    1.9483    0.6938    0.0000 C   0  0  0  0  0  0  0  0  0  0  0  0
    1.9493    3.6954    0.0000 C   0  0  0  0  0  0  0  0  0  0  0  0
    0.6493    1.4438    0.0000 C   0  0  0  0  0  0  0  0  0  0  0  0
   -3.2474    3.6946    0.0000 C   0  0  0  0  0  0  0  0  0  0  0  0
   -4.5464    2.9446    0.0000 C   0  0  0  0  0  0  0  0  0  0  0  0
    0.6498    2.9446    0.0000 C   0  0  0  0  0  0  0  0  0  0  0  0
   -0.6493    3.6946    0.0000 C   0  0  0  0  0  0  0  0  0  0  0  0
   -0.6493    5.1946    0.0000 O   0  0  0  0  0  0  0  0  0  0  0  0
   -1.9483    2.9446    0.0000 O   0  0  0  0  0  0  0  0  0  0  0  0
  4  3  2  0
  5  3  1  0
  6  4  1  0
  7  5  2  0
  9  1  1  0
  9  2  1  0
  9  8  1  0
 10  6  2  0
 10  7  1  0
 11 10  1  0
 12 11  2  0
 13  8  1  0
 13 11  1  0
M  END
>  <NAME>  (7234) 
ISOBUTYL BENZOATE

>  <SYNONYMS>  (7234) 


>  <SPECTRUM TYPE>  (7234) 
MS1

>  <INSTRUMENT TYPE>  (7234) 
EI-B

>  <INSTRUMENT>  (7234) 
HITACHI RMU-6M

>  <ION MODE>  (7234) 
P

>  <INCHIKEY>  (7234) 
KYZHGEFMXZOSJN-UHFFFAOYSA-N

>  <FORMULA>  (7234) 
C11H14O2

>  <EXACT MASS>  (7234) 
178.099379688

>  <MW>  (7234) 
178

>  <ID>  (7234) 
JP000308

>  <CONTRIBUTOR>  (7234) 
University of Tokyo Team, {Faculty of Engineering, University of Tokyo

>  <COMMENT>  (7234) 
SMILES=CC(C)COC(=O)c(c1)cccc1
InChI=InChI=1S/C11H14O2/c1-9(2)8-13-11(12)10-6-4-3-5-7-10/h3-7,9H,8H2,1-2H3
computed SMILES=O=C(OCC(C)C)C=1C=CC=CC1
date=2016.01.19 (Created 2008.10.21, modified 2011.05.06)
author=YAMAMOTO M, DEP. CHEMISTRY, FAC. SCIENCE, NARA WOMEN'S UNIV.
accession=JP000308
license=CC BY-NC-SA
exact mass=178.09938
ionization energy=70 eV
ion type=[M]+*
computed spectral entropy=2.0417368375363676
computed normalized entropy=0.6343012121693039
SPLASH=splash10-0a4i-8900000000-2a7bd0389fcec283ddef
submitter=submitter = University of Tokyo Team (Faculty of Engineering, University of Tokyo)
MoNA Rating=3.75

>  <NUM PEAKS>  (7234) 
25

>  <MASS SPECTRAL PEAKS>  (7234) 
27 5.7
28 1.4
29 6.2
39 0.55
41 9.9
42 1
43 2.2
50 0.55
51 18.5
52 1.4
55 1.8
56 3.02
57 3
73 1.5
74 1.2
75 0.13
76 2.7
77 45
78 3.7
79 0.42
105 99.99
106 8.3
122 2.7
123 5.11
124 4.1

$$$$

     RDKit          2D

 13 13  0  0  0  0  0  0  0  0999 V2000
   -5.8454    3.6946    0.0000 C   0  0  0  0  0  0  0  0  0  0  0  0
   -4.5464    1.4446    0.0000 C   0  0  0  0  0  0  0  0  0  0  0  0
    3.2478    1.4446    0.0000 C   0  0  0  0  0  0  0  0  0  0  0  0
    3.2483    2.9454    0.0000 C   0  0  0  0  0  0  0  0  0  0  0  0
    1.9483    0.6938    0.0000 C   0  0  0  0  0  0  0  0  0  0  0  0
    1.9493    3.6954    0.0000 C   0  0  0  0  0  0  0  0  0  0  0  0
    0.6493    1.4438    0.0000 C   0  0  0  0  0  0  0  0  0  0  0  0
   -3.2474    3.6946    0.0000 C   0  0  0  0  0  0  0  0  0  0  0  0
   -4.5464    2.9446    0.0000 C   0  0  0  0  0  0  0  0  0  0  0  0
    0.6498    2.9446    0.0000 C   0  0  0  0  0  0  0  0  0  0  0  0
   -0.6493    3.6946    0.0000 C   0  0  0  0  0  0  0  0  0  0  0  0
   -0.6493    5.1946    0.0000 O   0  0  0  0  0  0  0  0  0  0  0  0
   -1.9483    2.9446    0.0000 O   0  0  0  0  0  0  0  0  0  0  0  0
  4  3  2  0
  5  3  1  0
  6  4  1  0
  7  5  2  0
  9  1  1  0
  9  2  1  0
  9  8  1  0
 10  6  2  0
 10  7  1  0
 11 10  1  0
 12 11  2  0
 13  8  1  0
 13 11  1  0
M  END
>  <NAME>  (7235) 
BUTYL BENZOATE

>  <SYNONYMS>  (7235) 


>  <SPECTRUM TYPE>  (7235) 
MS1

>  <INSTRUMENT TYPE>  (7235) 
EI-B

>  <INSTRUMENT>  (7235) 
HITACHI RMU-6M

>  <ION MODE>  (7235) 
P

>  <INCHIKEY>  (7235) 
KYZHGEFMXZOSJN-UHFFFAOYSA-N

>  <FORMULA>  (7235) 
C11H14O2

>  <EXACT MASS>  (7235) 
178.099379688

>  <MW>  (7235) 
178

>  <ID>  (7235) 
JP000307

>  <CONTRIBUTOR>  (7235) 
University of Tokyo Team, {Faculty of Engineering, University of Tokyo

>  <COMMENT>  (7235) 
SMILES=CC(C)COC(=O)c(c1)cccc1
InChI=InChI=1S/C11H14O2/c1-9(2)8-13-11(12)10-6-4-3-5-7-10/h3-7,9H,8H2,1-2H3
computed SMILES=O=C(OCC(C)C)C=1C=CC=CC1
accession=JP000307
date=2016.01.19 (Created 2008.10.21, modified 2011.05.06)
author=YAMAMOTO M, DEP. CHEMISTRY, FAC. SCIENCE, NARA WOMEN'S UNIV.
license=CC BY-NC-SA
exact mass=178.09938
ionization energy=70 eV
ion type=[M]+*
computed spectral entropy=2.3355897374853396
computed normalized entropy=0.7009142837282027
SPLASH=splash10-0a4i-7900000000-be55c34d6b9d10825640
submitter=submitter = University of Tokyo Team (Faculty of Engineering, University of Tokyo)
MoNA Rating=3.75

>  <NUM PEAKS>  (7235) 
28

>  <MASS SPECTRAL PEAKS>  (7235) 
27 6.8
28 2.1
29 8.3
31 0.13
39 4.1
41 9.9
43 1.7
50 0.49
51 17.4
52 1.2
55 3.8
56 2.74
57 2.3
74 1.2
75 1.1
76 0.27
77 46.1
78 4.2
79 7.7
105 99.99
106 8.9
107 1
122 19.9
123 7.49
124 6
135 1.6
178 5.3
179 1.4

$$$$

     RDKit          2D

 12 12  0  0  0  0  0  0  0  0999 V2000
   -4.8712    2.0071    0.0000 C   0  0  0  0  0  0  0  0  0  0  0  0
   -3.5721    4.2571    0.0000 C   0  0  0  0  0  0  0  0  0  0  0  0
    2.9231    0.5071    0.0000 C   0  0  0  0  0  0  0  0  0  0  0  0
    2.9236    2.0079    0.0000 C   0  0  0  0  0  0  0  0  0  0  0  0
    1.6236   -0.2437    0.0000 C   0  0  0  0  0  0  0  0  0  0  0  0
    1.6245    2.7579    0.0000 C   0  0  0  0  0  0  0  0  0  0  0  0
    0.3245    0.5063    0.0000 C   0  0  0  0  0  0  0  0  0  0  0  0
   -3.5721    2.7571    0.0000 C   0  0  0  0  0  0  0  0  0  0  0  0
    0.3250    2.0071    0.0000 C   0  0  0  0  0  0  0  0  0  0  0  0
   -0.9740    2.7571    0.0000 C   0  0  0  0  0  0  0  0  0  0  0  0
   -0.9740    4.2571    0.0000 O   0  0  0  0  0  0  0  0  0  0  0  0
   -2.2731    2.0071    0.0000 O   0  0  0  0  0  0  0  0  0  0  0  0
  4  3  2  0
  5  3  1  0
  6  4  1  0
  7  5  2  0
  8  1  1  0
  8  2  1  0
  9  6  2  0
  9  7  1  0
 10  9  1  0
 11 10  2  0
 12  8  1  0
 12 10  1  0
M  END
>  <NAME>  (7236) 
ISOPROPYL BENZOATE

>  <SYNONYMS>  (7236) 


>  <SPECTRUM TYPE>  (7236) 
MS1

>  <INSTRUMENT TYPE>  (7236) 
EI-B

>  <INSTRUMENT>  (7236) 
HITACHI RMU-6M

>  <ION MODE>  (7236) 
P

>  <INCHIKEY>  (7236) 
FEXQDZTYJVXMOS-UHFFFAOYSA-N

>  <FORMULA>  (7236) 
C10H12O2

>  <EXACT MASS>  (7236) 
164.083729624

>  <MW>  (7236) 
164

>  <ID>  (7236) 
JP000306

>  <CONTRIBUTOR>  (7236) 
University of Tokyo Team, {Faculty of Engineering, University of Tokyo

>  <COMMENT>  (7236) 
SMILES=CC(C)OC(=O)c(c1)cccc1
InChI=InChI=1S/C10H12O2/c1-8(2)12-10(11)9-6-4-3-5-7-9/h3-8H,1-2H3
computed SMILES=O=C(OC(C)C)C=1C=CC=CC1
accession=JP000306
date=2016.01.19 (Created 2008.10.21, modified 2011.05.06)
author=YAMAMOTO M, DEP. CHEMISTRY, FAC. SCIENCE, NARA WOMEN'S UNIV.
license=CC BY-NC-SA
exact mass=164.08373
ionization energy=70 eV
ion type=[M]+*
computed spectral entropy=2.296701906543897
computed normalized entropy=0.704921379628179
SPLASH=splash10-014i-7900000000-0e09d5ec067423297708
submitter=submitter = University of Tokyo Team (Faculty of Engineering, University of Tokyo)
MoNA Rating=3.75

>  <NUM PEAKS>  (7236) 
26

>  <MASS SPECTRAL PEAKS>  (7236) 
15 1.8
27 7.9
28 3.9
38 0.2
39 5.7
41 9.8
42 2.7
43 1.78
50 6.8
51 20.9
52 1.6
59 2.51
60 1
74 1.6
75 1.4
76 0.3
77 41.8
78 5.2
79 4.3
115 99.99
116 11.3
117 2.2
146 2
149 0.23
164 16.7
165 21

$$$$

     RDKit          2D

 11 11  0  0  0  0  0  0  0  0999 V2000
   -4.8712    2.0071    0.0000 C   0  0  0  0  0  0  0  0  0  0  0  0
   -3.5721    2.7571    0.0000 C   0  0  0  0  0  0  0  0  0  0  0  0
    2.9231    0.5071    0.0000 C   0  0  0  0  0  0  0  0  0  0  0  0
    2.9236    2.0079    0.0000 C   0  0  0  0  0  0  0  0  0  0  0  0
    1.6236   -0.2437    0.0000 C   0  0  0  0  0  0  0  0  0  0  0  0
    1.6245    2.7579    0.0000 C   0  0  0  0  0  0  0  0  0  0  0  0
    0.3245    0.5063    0.0000 C   0  0  0  0  0  0  0  0  0  0  0  0
    0.3250    2.0071    0.0000 C   0  0  0  0  0  0  0  0  0  0  0  0
   -0.9740    2.7571    0.0000 C   0  0  0  0  0  0  0  0  0  0  0  0
   -0.9740    4.2571    0.0000 O   0  0  0  0  0  0  0  0  0  0  0  0
   -2.2731    2.0071    0.0000 O   0  0  0  0  0  0  0  0  0  0  0  0
  2  1  1  0
  4  3  2  0
  5  3  1  0
  6  4  1  0
  7  5  2  0
  8  6  2  0
  8  7  1  0
  9  8  1  0
 10  9  2  0
 11  2  1  0
 11  9  1  0
M  END
>  <NAME>  (7237) 
ETHYL BENZOATE

>  <SYNONYMS>  (7237) 


>  <SPECTRUM TYPE>  (7237) 
MS1

>  <INSTRUMENT TYPE>  (7237) 
EI-B

>  <INSTRUMENT>  (7237) 
HITACHI RMU-6M

>  <ION MODE>  (7237) 
P

>  <INCHIKEY>  (7237) 
MTZQAGJQAFMTAQ-UHFFFAOYSA-N

>  <FORMULA>  (7237) 
C9H10O2

>  <EXACT MASS>  (7237) 
150.06807956

>  <MW>  (7237) 
150

>  <ID>  (7237) 
JP000305

>  <CONTRIBUTOR>  (7237) 
University of Tokyo Team, {Faculty of Engineering, University of Tokyo

>  <COMMENT>  (7237) 
SMILES=CCOC(=O)c(c1)cccc1
InChI=InChI=1S/C9H10O2/c1-2-11-9(10)8-6-4-3-5-7-8/h3-7H,2H2,1H3
computed SMILES=O=C(OCC)C=1C=CC=CC1
accession=JP000305
date=2016.01.19 (Created 2008.10.21, modified 2011.05.06)
author=YAMAMOTO M, DEP. CHEMISTRY, FAC. SCIENCE, NARA WOMEN'S UNIV.
license=CC BY-NC-SA
exact mass=150.06808
ionization energy=70 eV
ion type=[M]+*
computed spectral entropy=2.0915026097735523
computed normalized entropy=0.6419400362653594
SPLASH=splash10-0a6r-5900000000-c9d5dba851f474dd9456
submitter=submitter = University of Tokyo Team (Faculty of Engineering, University of Tokyo)
MoNA Rating=3.75

>  <NUM PEAKS>  (7237) 
26

>  <MASS SPECTRAL PEAKS>  (7237) 
15 1.1
27 7
28 5.2
29 0.6
38 1.1
39 2.5
45 2.2
50 0.95
51 25.6
52 1.8
65 1.3
74 0.28
75 2
76 3.5
77 52.6
78 0.5
91 1.4
105 99.99
106 9.5
107 0.1
122 27.5
123 2.5
135 1.2
149 0.17
150 22.3
151 2.4

$$$$

     RDKit          2D

 10 10  0  0  0  0  0  0  0  0999 V2000
   -3.5724    2.0075    0.0000 C   0  0  0  0  0  0  0  0  0  0  0  0
    2.9228   -0.2425    0.0000 C   0  0  0  0  0  0  0  0  0  0  0  0
    2.9233    1.2583    0.0000 C   0  0  0  0  0  0  0  0  0  0  0  0
    1.6233   -0.9933    0.0000 C   0  0  0  0  0  0  0  0  0  0  0  0
    1.6243    2.0083    0.0000 C   0  0  0  0  0  0  0  0  0  0  0  0
    0.3243   -0.2433    0.0000 C   0  0  0  0  0  0  0  0  0  0  0  0
    0.3248    1.2575    0.0000 C   0  0  0  0  0  0  0  0  0  0  0  0
   -0.9743    2.0075    0.0000 C   0  0  0  0  0  0  0  0  0  0  0  0
   -0.9743    3.5075    0.0000 O   0  0  0  0  0  0  0  0  0  0  0  0
   -2.2733    1.2575    0.0000 O   0  0  0  0  0  0  0  0  0  0  0  0
  3  2  2  0
  4  2  1  0
  5  3  1  0
  6  4  2  0
  7  5  2  0
  7  6  1  0
  8  7  1  0
  9  8  2  0
 10  1  1  0
 10  8  1  0
M  END
>  <NAME>  (7238) 
METHYL BENZOATE

>  <SYNONYMS>  (7238) 


>  <SPECTRUM TYPE>  (7238) 
MS1

>  <INSTRUMENT TYPE>  (7238) 
EI-B

>  <INSTRUMENT>  (7238) 
HITACHI RMU-6M

>  <ION MODE>  (7238) 
P

>  <INCHIKEY>  (7238) 
QPJVMBTYPHYUOC-UHFFFAOYSA-N

>  <FORMULA>  (7238) 
C8H8O2

>  <EXACT MASS>  (7238) 
136.052429496

>  <MW>  (7238) 
136

>  <ID>  (7238) 
JP000304

>  <CONTRIBUTOR>  (7238) 
University of Tokyo Team, {Faculty of Engineering, University of Tokyo

>  <COMMENT>  (7238) 
SMILES=COC(=O)c(c1)cccc1
InChI=InChI=1S/C8H8O2/c1-10-8(9)7-5-3-2-4-6-7/h2-6H,1H3
computed SMILES=O=C(OC)C=1C=CC=CC1
accession=JP000304
date=2016.01.19 (Created 2008.10.21, modified 2011.05.06)
author=YAMAMOTO M, DEP. CHEMISTRY, FAC. SCIENCE, NARA WOMEN'S UNIV.
license=CC BY-NC-SA
exact mass=136.05243
ionization energy=70 eV
ion type=[M]+*
computed spectral entropy=1.9501506113420493
computed normalized entropy=0.6309038587364838
SPLASH=splash10-0a6r-8900000000-6fca5a5a67e554be1310
submitter=submitter = University of Tokyo Team (Faculty of Engineering, University of Tokyo)
MoNA Rating=3.75

>  <NUM PEAKS>  (7238) 
22

>  <MASS SPECTRAL PEAKS>  (7238) 
15 4.6
27 2.5
29 1.3
37 0.12
38 2.1
39 3.1
49 1.2
50 1.46
51 33
52 1.9
74 4.6
75 0.31
76 4.3
77 69.5
78 5.1
91 0.22
93 3.5
105 99.99
106 7.9
135 0.19
136 36.5
137 3.5

$$$$

     RDKit          2D

 20 19  0  0  1  0  0  0  0  0999 V2000
   -6.8200    5.0625    0.0000 C   0  0  0  0  0  0  0  0  0  0  0  0
   -2.9228    8.8125    0.0000 C   0  0  0  0  0  0  0  0  0  0  0  0
    0.9743    5.0625    0.0000 C   0  0  0  0  0  0  0  0  0  0  0  0
  -10.7171    7.3125    0.0000 C   0  0  0  0  0  0  0  0  0  0  0  0
    4.8714    7.3125    0.0000 C   0  0  0  0  0  0  0  0  0  0  0  0
   -6.8200    6.5625    0.0000 C   0  0  0  0  0  0  0  0  0  0  0  0
   -2.9228    7.3125    0.0000 C   0  0  0  0  0  0  0  0  0  0  0  0
    0.9743    6.5625    0.0000 C   0  0  0  0  0  0  0  0  0  0  0  0
   -9.4180    6.5625    0.0000 C   0  0  0  0  0  0  0  0  0  0  0  0
   -5.5209    7.3125    0.0000 C   0  0  0  0  0  0  0  0  0  0  0  0
   -1.6238    6.5625    0.0000 C   0  0  0  0  0  0  0  0  0  0  0  0
    2.2733    7.3125    0.0000 C   0  0  0  0  0  0  0  0  0  0  0  0
   -8.1190    7.3125    0.0000 N   0  0  0  0  0  0  0  0  0  0  0  0
   -4.2219    6.5625    0.0000 N   0  0  0  0  0  0  0  0  0  0  0  0
   -0.3248    7.3125    0.0000 N   0  0  0  0  0  0  0  0  0  0  0  0
   -9.4180    5.0625    0.0000 O   0  0  0  0  0  0  0  0  0  0  0  0
   -5.5209    8.8125    0.0000 O   0  0  0  0  0  0  0  0  0  0  0  0
   -1.6238    5.0625    0.0000 O   0  0  0  0  0  0  0  0  0  0  0  0
    2.2733    8.8125    0.0000 O   0  0  0  0  0  0  0  0  0  0  0  0
    3.5724    6.5625    0.0000 O   0  0  0  0  0  0  0  0  0  0  0  0
  6  1  1  1
  7  2  1  6
  8  3  1  6
  9  4  1  0
 10  6  1  0
 11  7  1  0
 12  8  1  0
 13  6  1  0
 13  9  2  3
 14  7  1  0
 14 10  2  3
 15  8  1  0
 15 11  2  3
 16  9  1  0
 17 10  1  0
 18 11  1  0
 19 12  2  0
 20  5  1  0
 20 12  1  0
M  END
>  <NAME>  (7239) 
N-ACETYL-ALANYL-ALANYL-ALANINE METHYL ESTER

>  <SYNONYMS>  (7239) 


>  <SPECTRUM TYPE>  (7239) 
MS1

>  <INSTRUMENT TYPE>  (7239) 
EI-B

>  <INSTRUMENT>  (7239) 
HITACHI RMU-6M

>  <ION MODE>  (7239) 
P

>  <INCHIKEY>  (7239) 
FKSWBCPVKXRWMC-PRJMDXOYSA-N

>  <FORMULA>  (7239) 
C12H21N3O5

>  <EXACT MASS>  (7239) 
287.14812077199997

>  <MW>  (7239) 
287

>  <ID>  (7239) 
JP000301

>  <CONTRIBUTOR>  (7239) 
University of Tokyo Team, {Faculty of Engineering, University of Tokyo

>  <COMMENT>  (7239) 
SMILES=COC(=O)C([H])(C)NC(=O)C([H])(C)NC(=O)C([H])(C)NC(C)=O
InChI=InChI=1S/C12H21N3O5/c1-6(13-9(4)16)10(17)14-7(2)11(18)15-8(3)12(19)20-5/h6-8H,1-5H3,(H,13,16)(H,14,17)(H,15,18)/t6-,7-,8+/m1/s1
computed SMILES=O=C(OC)C(N=C(O)C(N=C(O)C(N=C(O)C)C)C)C
accession=JP000301
date=2016.01.19 (Created 2008.10.21, modified 2011.05.06)
author=YAMAMOTO M, DEP. CHEMISTRY, FAC. SCIENCE, NARA WOMEN'S UNIV.
license=CC BY-NC-SA
exact mass=287.14812
ionization energy=70 eV
ion type=[M]+*
computed spectral entropy=2.2063993403530255
computed normalized entropy=0.6487125246682286
SPLASH=splash10-0006-9100000000-52ffe69b2a7b54c596dc
submitter=submitter = University of Tokyo Team (Faculty of Engineering, University of Tokyo)
MoNA Rating=3.75

>  <NUM PEAKS>  (7239) 
30

>  <MASS SPECTRAL PEAKS>  (7239) 
15 4.4
27 1.7
28 9.8
30 0.22
32 2
41 1.2
42 5.6
43 0.79
44 99.99
45 3.6
55 1.9
56 0.18
59 1.5
70 4
71 2.6
72 0.34
86 16.3
87 11.2
99 3.4
102 0.16
104 2
113 1.3
114 11.4
141 0.34
157 9.1
158 8.5
159 3.2
185 0.44
201 2.6
228 1.6

$$$$

     RDKit          2D

 19 18  0  0  1  0  0  0  0  0999 V2000
   -2.9228    8.8125    0.0000 C   0  0  0  0  0  0  0  0  0  0  0  0
    0.9743    5.0625    0.0000 C   0  0  0  0  0  0  0  0  0  0  0  0
  -10.7171    7.3125    0.0000 C   0  0  0  0  0  0  0  0  0  0  0  0
    4.8714    7.3125    0.0000 C   0  0  0  0  0  0  0  0  0  0  0  0
   -6.8200    6.5625    0.0000 C   0  0  0  0  0  0  0  0  0  0  0  0
   -2.9228    7.3125    0.0000 C   0  0  0  0  0  0  0  0  0  0  0  0
    0.9743    6.5625    0.0000 C   0  0  0  0  0  0  0  0  0  0  0  0
   -9.4180    6.5625    0.0000 C   0  0  0  0  0  0  0  0  0  0  0  0
   -5.5209    7.3125    0.0000 C   0  0  0  0  0  0  0  0  0  0  0  0
   -1.6238    6.5625    0.0000 C   0  0  0  0  0  0  0  0  0  0  0  0
    2.2733    7.3125    0.0000 C   0  0  0  0  0  0  0  0  0  0  0  0
   -8.1190    7.3125    0.0000 N   0  0  0  0  0  0  0  0  0  0  0  0
   -4.2219    6.5625    0.0000 N   0  0  0  0  0  0  0  0  0  0  0  0
   -0.3248    7.3125    0.0000 N   0  0  0  0  0  0  0  0  0  0  0  0
   -9.4180    5.0625    0.0000 O   0  0  0  0  0  0  0  0  0  0  0  0
   -5.5209    8.8125    0.0000 O   0  0  0  0  0  0  0  0  0  0  0  0
   -1.6238    5.0625    0.0000 O   0  0  0  0  0  0  0  0  0  0  0  0
    2.2733    8.8125    0.0000 O   0  0  0  0  0  0  0  0  0  0  0  0
    3.5724    6.5625    0.0000 O   0  0  0  0  0  0  0  0  0  0  0  0
  6  1  1  6
  7  2  1  6
  8  3  1  0
  9  5  1  0
 10  6  1  0
 11  7  1  0
 12  5  1  0
 12  8  2  3
 13  6  1  0
 13  9  2  3
 14  7  1  0
 14 10  2  3
 15  8  1  0
 16  9  1  0
 17 10  1  0
 18 11  2  0
 19  4  1  0
 19 11  1  0
M  END
>  <NAME>  (7240) 
N-ACETYL-GLYCYL-ALANYL-ALANINE METHYL ESTER

>  <SYNONYMS>  (7240) 


>  <SPECTRUM TYPE>  (7240) 
MS1

>  <INSTRUMENT TYPE>  (7240) 
EI-B

>  <INSTRUMENT>  (7240) 
HITACHI RMU-6M

>  <ION MODE>  (7240) 
P

>  <INCHIKEY>  (7240) 
VLAFVIQYTNYXEZ-RQJHMYQMSA-N

>  <FORMULA>  (7240) 
C11H19N3O5

>  <EXACT MASS>  (7240) 
273.132470708

>  <MW>  (7240) 
273

>  <ID>  (7240) 
JP000300

>  <CONTRIBUTOR>  (7240) 
University of Tokyo Team, {Faculty of Engineering, University of Tokyo

>  <COMMENT>  (7240) 
SMILES=COC(=O)C([H])(C)NC(=O)C([H])(C)NC(=O)CNC(C)=O
InChI=InChI=1S/C11H19N3O5/c1-6(13-9(16)5-12-8(3)15)10(17)14-7(2)11(18)19-4/h6-7H,5H2,1-4H3,(H,12,15)(H,13,16)(H,14,17)/t6-,7+/m1/s1
computed SMILES=O=C(OC)C(N=C(O)C(N=C(O)CN=C(O)C)C)C
accession=JP000300
date=2016.01.19 (Created 2008.10.21, modified 2011.05.06)
author=YAMAMOTO M, DEP. CHEMISTRY, FAC. SCIENCE, NARA WOMEN'S UNIV.
license=CC BY-NC-SA
exact mass=273.13247
ionization energy=70 eV
ion type=[M]+*
computed spectral entropy=2.288842516232564
computed normalized entropy=0.6437745268950454
SPLASH=splash10-0006-9100000000-e3fc2a97fe6112f1edf4
submitter=submitter = University of Tokyo Team (Faculty of Engineering, University of Tokyo)
MoNA Rating=3.75

>  <NUM PEAKS>  (7240) 
35

>  <MASS SPECTRAL PEAKS>  (7240) 
15 5.4
27 1.6
28 7.7
29 0.11
30 22.3
31 1.6
32 2
41 0.11
42 4.3
43 11
44 99.99
45 0.39
55 1.4
56 1.7
57 3.7
59 0.14
60 1.2
70 3.9
71 1
72 0.94
73 4.6
85 2.8
99 1.2
100 0.9
101 1
102 1.7
104 1.6
113 0.14
141 4.5
143 9
144 13
145 0.11
171 4.4
201 1.4
214 2.8

$$$$

     RDKit          2D

 19 18  0  0  1  0  0  0  0  0999 V2000
   -2.9228    8.8125    0.0000 C   0  0  0  0  0  0  0  0  0  0  0  0
   -6.8200    5.0625    0.0000 C   0  0  0  0  0  0  0  0  0  0  0  0
  -10.7171    7.3125    0.0000 C   0  0  0  0  0  0  0  0  0  0  0  0
    4.8714    7.3125    0.0000 C   0  0  0  0  0  0  0  0  0  0  0  0
    0.9743    6.5625    0.0000 C   0  0  0  0  0  0  0  0  0  0  0  0
   -2.9228    7.3125    0.0000 C   0  0  0  0  0  0  0  0  0  0  0  0
   -6.8200    6.5625    0.0000 C   0  0  0  0  0  0  0  0  0  0  0  0
   -9.4180    6.5625    0.0000 C   0  0  0  0  0  0  0  0  0  0  0  0
    2.2733    7.3125    0.0000 C   0  0  0  0  0  0  0  0  0  0  0  0
   -1.6238    6.5625    0.0000 C   0  0  0  0  0  0  0  0  0  0  0  0
   -5.5209    7.3125    0.0000 C   0  0  0  0  0  0  0  0  0  0  0  0
   -0.3248    7.3125    0.0000 N   0  0  0  0  0  0  0  0  0  0  0  0
   -8.1190    7.3125    0.0000 N   0  0  0  0  0  0  0  0  0  0  0  0
   -4.2219    6.5625    0.0000 N   0  0  0  0  0  0  0  0  0  0  0  0
   -9.4180    5.0625    0.0000 O   0  0  0  0  0  0  0  0  0  0  0  0
    2.2733    8.8125    0.0000 O   0  0  0  0  0  0  0  0  0  0  0  0
   -1.6238    5.0625    0.0000 O   0  0  0  0  0  0  0  0  0  0  0  0
   -5.5209    8.8125    0.0000 O   0  0  0  0  0  0  0  0  0  0  0  0
    3.5724    6.5625    0.0000 O   0  0  0  0  0  0  0  0  0  0  0  0
  6  1  1  1
  7  2  1  1
  8  3  1  0
  9  5  1  0
 10  6  1  0
 11  7  1  0
 12  5  1  0
 12 10  2  3
 13  7  1  0
 13  8  2  3
 14  6  1  0
 14 11  2  3
 15  8  1  0
 16  9  2  0
 17 10  1  0
 18 11  1  0
 19  4  1  0
 19  9  1  0
M  END
>  <NAME>  (7241) 
N-ACETYL-ALANYL-ALANYL-GLYCINE METHYL ESTER

>  <SYNONYMS>  (7241) 


>  <SPECTRUM TYPE>  (7241) 
MS1

>  <INSTRUMENT TYPE>  (7241) 
EI-B

>  <INSTRUMENT>  (7241) 
HITACHI RMU-6M

>  <ION MODE>  (7241) 
P

>  <INCHIKEY>  (7241) 
AOOOWAGCBQNBPR-NKWVEPMBSA-N

>  <FORMULA>  (7241) 
C11H19N3O5

>  <EXACT MASS>  (7241) 
273.132470708

>  <MW>  (7241) 
273

>  <ID>  (7241) 
JP000298

>  <CONTRIBUTOR>  (7241) 
University of Tokyo Team, {Faculty of Engineering, University of Tokyo

>  <COMMENT>  (7241) 
SMILES=COC(=O)CNC(=O)C([H])(C)NC(=O)C([H])(C)NC(C)=O
InChI=InChI=1S/C11H19N3O5/c1-6(10(17)12-5-9(16)19-4)14-11(18)7(2)13-8(3)15/h6-7H,5H2,1-4H3,(H,12,17)(H,13,15)(H,14,18)/t6-,7+/m0/s1
computed SMILES=O=C(OC)CN=C(O)C(N=C(O)C(N=C(O)C)C)C
accession=JP000298
date=2016.01.19 (Created 2008.10.21, modified 2011.05.06)
author=YAMAMOTO M, DEP. CHEMISTRY, FAC. SCIENCE, NARA WOMEN'S UNIV.
license=CC BY-NC-SA
exact mass=273.13247
ionization energy=70 eV
ion type=[M]+*
computed spectral entropy=2.2415255332975756
computed normalized entropy=0.6467675541828802
SPLASH=splash10-0006-9100000000-ac0324a862706b670bb6
submitter=submitter = University of Tokyo Team (Faculty of Engineering, University of Tokyo)
MoNA Rating=3.75

>  <NUM PEAKS>  (7241) 
32

>  <MASS SPECTRAL PEAKS>  (7241) 
15 4
27 1.7
28 12
29 0.11
30 7
32 2
41 1.3
42 0.5
43 10.7
44 99.99
45 3.2
55 0.19
56 4
57 1.3
70 2.7
71 0.19
72 4.4
85 1.2
86 18.7
87 1.44
88 2.1
90 2.4
99 2.9
113 0.12
114 10.6
127 1.9
145 3
157 1.21
158 4.9
185 3.2
187 1.8
273 1

$$$$

     RDKit          2D

 18 17  0  0  1  0  0  0  0  0999 V2000
   -2.9228    8.8125    0.0000 C   0  0  0  0  0  0  0  0  0  0  0  0
  -10.7171    7.3125    0.0000 C   0  0  0  0  0  0  0  0  0  0  0  0
    4.8714    7.3125    0.0000 C   0  0  0  0  0  0  0  0  0  0  0  0
   -6.8200    6.5625    0.0000 C   0  0  0  0  0  0  0  0  0  0  0  0
    0.9743    6.5625    0.0000 C   0  0  0  0  0  0  0  0  0  0  0  0
   -2.9228    7.3125    0.0000 C   0  0  0  0  0  0  0  0  0  0  0  0
   -9.4180    6.5625    0.0000 C   0  0  0  0  0  0  0  0  0  0  0  0
   -5.5209    7.3125    0.0000 C   0  0  0  0  0  0  0  0  0  0  0  0
    2.2733    7.3125    0.0000 C   0  0  0  0  0  0  0  0  0  0  0  0
   -1.6238    6.5625    0.0000 C   0  0  0  0  0  0  0  0  0  0  0  0
   -8.1190    7.3125    0.0000 N   0  0  0  0  0  0  0  0  0  0  0  0
   -0.3248    7.3125    0.0000 N   0  0  0  0  0  0  0  0  0  0  0  0
   -4.2219    6.5625    0.0000 N   0  0  0  0  0  0  0  0  0  0  0  0
   -9.4180    5.0625    0.0000 O   0  0  0  0  0  0  0  0  0  0  0  0
   -5.5209    8.8125    0.0000 O   0  0  0  0  0  0  0  0  0  0  0  0
    2.2733    8.8125    0.0000 O   0  0  0  0  0  0  0  0  0  0  0  0
   -1.6238    5.0625    0.0000 O   0  0  0  0  0  0  0  0  0  0  0  0
    3.5724    6.5625    0.0000 O   0  0  0  0  0  0  0  0  0  0  0  0
  6  1  1  6
  7  2  1  0
  8  4  1  0
  9  5  1  0
 10  6  1  0
 11  4  1  0
 11  7  2  3
 12  5  1  0
 12 10  2  3
 13  6  1  0
 13  8  2  3
 14  7  1  0
 15  8  1  0
 16  9  2  0
 17 10  1  0
 18  3  1  0
 18  9  1  0
M  END
>  <NAME>  (7242) 
N-ACETYL-GLYCYL-ALANYL-GLYCINE METHYL ESTER

>  <SYNONYMS>  (7242) 


>  <SPECTRUM TYPE>  (7242) 
MS1

>  <INSTRUMENT TYPE>  (7242) 
EI-B

>  <INSTRUMENT>  (7242) 
HITACHI RMU-6M

>  <ION MODE>  (7242) 
P

>  <INCHIKEY>  (7242) 
WBVHFIJZXUJKNA-ZCFIWIBFSA-N

>  <FORMULA>  (7242) 
C10H17N3O5

>  <EXACT MASS>  (7242) 
259.116820644

>  <MW>  (7242) 
259

>  <ID>  (7242) 
JP000297

>  <CONTRIBUTOR>  (7242) 
University of Tokyo Team, {Faculty of Engineering, University of Tokyo

>  <COMMENT>  (7242) 
SMILES=COC(=O)CNC(=O)C([H])(C)NC(=O)CNC(C)=O
InChI=InChI=1S/C10H17N3O5/c1-6(10(17)12-5-9(16)18-3)13-8(15)4-11-7(2)14/h6H,4-5H2,1-3H3,(H,11,14)(H,12,17)(H,13,15)/t6-/m1/s1
computed SMILES=O=C(OC)CN=C(O)C(N=C(O)CN=C(O)C)C
accession=JP000297
date=2016.01.19 (Created 2008.10.21, modified 2011.05.06)
author=YAMAMOTO M, DEP. CHEMISTRY, FAC. SCIENCE, NARA WOMEN'S UNIV.
license=CC BY-NC-SA
exact mass=259.11682
ionization energy=70 eV
ion type=[M]+*
computed spectral entropy=2.3248867488090172
computed normalized entropy=0.6592878784173882
SPLASH=splash10-0006-9100000000-0dca19dadfbe29e6cf48
submitter=submitter = University of Tokyo Team (Faculty of Engineering, University of Tokyo)
MoNA Rating=3.75

>  <NUM PEAKS>  (7242) 
34

>  <MASS SPECTRAL PEAKS>  (7242) 
15 5.9
27 1.6
28 9.9
29 0.18
30 36.2
31 2.5
41 1.1
42 0.41
43 14.5
44 99.99
45 4.5
55 0.18
56 4.8
57 4.3
58 1.1
59 0.1
60 1
70 2.9
72 13.7
73 0.77
85 3.3
88 2
89 2.3
99 0.27
100 11.3
101 1.2
127 4.5
143 1.62
144 10.2
145 1.9
155 1.1
171 0.48
187 1.5
259 0.7

$$$$

     RDKit          2D

 18 17  0  0  1  0  0  0  0  0999 V2000
    0.9743    5.0625    0.0000 C   0  0  0  0  0  0  0  0  0  0  0  0
  -10.7171    7.3125    0.0000 C   0  0  0  0  0  0  0  0  0  0  0  0
    4.8714    7.3125    0.0000 C   0  0  0  0  0  0  0  0  0  0  0  0
   -6.8200    6.5625    0.0000 C   0  0  0  0  0  0  0  0  0  0  0  0
   -2.9228    7.3125    0.0000 C   0  0  0  0  0  0  0  0  0  0  0  0
    0.9743    6.5625    0.0000 C   0  0  0  0  0  0  0  0  0  0  0  0
   -9.4180    6.5625    0.0000 C   0  0  0  0  0  0  0  0  0  0  0  0
   -5.5209    7.3125    0.0000 C   0  0  0  0  0  0  0  0  0  0  0  0
   -1.6238    6.5625    0.0000 C   0  0  0  0  0  0  0  0  0  0  0  0
    2.2733    7.3125    0.0000 C   0  0  0  0  0  0  0  0  0  0  0  0
   -8.1190    7.3125    0.0000 N   0  0  0  0  0  0  0  0  0  0  0  0
   -4.2219    6.5625    0.0000 N   0  0  0  0  0  0  0  0  0  0  0  0
   -0.3248    7.3125    0.0000 N   0  0  0  0  0  0  0  0  0  0  0  0
   -9.4180    5.0625    0.0000 O   0  0  0  0  0  0  0  0  0  0  0  0
   -5.5209    8.8125    0.0000 O   0  0  0  0  0  0  0  0  0  0  0  0
   -1.6238    5.0625    0.0000 O   0  0  0  0  0  0  0  0  0  0  0  0
    2.2733    8.8125    0.0000 O   0  0  0  0  0  0  0  0  0  0  0  0
    3.5724    6.5625    0.0000 O   0  0  0  0  0  0  0  0  0  0  0  0
  6  1  1  1
  7  2  1  0
  8  4  1  0
  9  5  1  0
 10  6  1  0
 11  4  1  0
 11  7  2  3
 12  5  1  0
 12  8  2  3
 13  6  1  0
 13  9  2  3
 14  7  1  0
 15  8  1  0
 16  9  1  0
 17 10  2  0
 18  3  1  0
 18 10  1  0
M  END
>  <NAME>  (7243) 
N-ACETYL-GLYCYL-GLYCYL-ALANINE METHYL ESTER

>  <SYNONYMS>  (7243) 


>  <SPECTRUM TYPE>  (7243) 
MS1

>  <INSTRUMENT TYPE>  (7243) 
EI-B

>  <INSTRUMENT>  (7243) 
HITACHI RMU-6M

>  <ION MODE>  (7243) 
P

>  <INCHIKEY>  (7243) 
JLSJNENSAQOMOY-ZCFIWIBFSA-N

>  <FORMULA>  (7243) 
C10H17N3O5

>  <EXACT MASS>  (7243) 
259.11682064400003

>  <MW>  (7243) 
259

>  <ID>  (7243) 
JP000296

>  <CONTRIBUTOR>  (7243) 
University of Tokyo Team, {Faculty of Engineering, University of Tokyo

>  <COMMENT>  (7243) 
SMILES=COC(=O)C([H])(C)NC(=O)CNC(=O)CNC(C)=O
InChI=InChI=1S/C10H17N3O5/c1-6(10(17)18-3)13-9(16)5-12-8(15)4-11-7(2)14/h6H,4-5H2,1-3H3,(H,11,14)(H,12,15)(H,13,16)/t6-/m1/s1
computed SMILES=O=C(OC)C(N=C(O)CN=C(O)CN=C(O)C)C
accession=JP000296
date=2016.01.19 (Created 2008.10.21, modified 2011.05.06)
author=YAMAMOTO M, DEP. CHEMISTRY, FAC. SCIENCE, NARA WOMEN'S UNIV.
license=CC BY-NC-SA
exact mass=259.11682
ionization energy=70 eV
ion type=[M]+*
computed spectral entropy=2.8872648636672325
computed normalized entropy=0.7272172743298535
SPLASH=splash10-0f8c-9210000000-e3bc249c7c916b046636
submitter=submitter = University of Tokyo Team (Faculty of Engineering, University of Tokyo)
MoNA Rating=3.75

>  <NUM PEAKS>  (7243) 
53

>  <MASS SPECTRAL PEAKS>  (7243) 
14 1.1
15 15.8
27 3
28 2.76
29 4.9
30 99.99
31 5.8
32 0.27
40 1
41 3.8
42 9.8
43 3.51
44 93.7
45 7.3
54 1
55 0.23
56 6.8
57 5.8
58 4.2
59 0.58
60 5.2
69 1.2
70 4.7
71 0.54
72 29.9
73 28.5
74 1.7
83 0.1
85 4.2
86 3.2
87 3.3
88 0.92
99 4.6
100 50
101 4.1
102 0.48
104 5.6
113 2.2
114 1.8
127 1.65
128 2.1
129 7
130 25.4
131 0.19
145 3.3
155 3.5
156 1
157 1.41
158 1.3
187 5.6
200 40.5
201 0.43
259 1.1

$$$$

     RDKit          2D

 17 16  0  0  0  0  0  0  0  0999 V2000
  -10.7171    7.3125    0.0000 C   0  0  0  0  0  0  0  0  0  0  0  0
    4.8714    7.3125    0.0000 C   0  0  0  0  0  0  0  0  0  0  0  0
   -6.8200    6.5625    0.0000 C   0  0  0  0  0  0  0  0  0  0  0  0
   -2.9228    7.3125    0.0000 C   0  0  0  0  0  0  0  0  0  0  0  0
    0.9743    6.5625    0.0000 C   0  0  0  0  0  0  0  0  0  0  0  0
   -9.4180    6.5625    0.0000 C   0  0  0  0  0  0  0  0  0  0  0  0
   -5.5209    7.3125    0.0000 C   0  0  0  0  0  0  0  0  0  0  0  0
   -1.6238    6.5625    0.0000 C   0  0  0  0  0  0  0  0  0  0  0  0
    2.2733    7.3125    0.0000 C   0  0  0  0  0  0  0  0  0  0  0  0
   -8.1190    7.3125    0.0000 N   0  0  0  0  0  0  0  0  0  0  0  0
   -4.2219    6.5625    0.0000 N   0  0  0  0  0  0  0  0  0  0  0  0
   -0.3248    7.3125    0.0000 N   0  0  0  0  0  0  0  0  0  0  0  0
   -9.4180    5.0625    0.0000 O   0  0  0  0  0  0  0  0  0  0  0  0
   -5.5209    8.8125    0.0000 O   0  0  0  0  0  0  0  0  0  0  0  0
   -1.6238    5.0625    0.0000 O   0  0  0  0  0  0  0  0  0  0  0  0
    2.2733    8.8125    0.0000 O   0  0  0  0  0  0  0  0  0  0  0  0
    3.5724    6.5625    0.0000 O   0  0  0  0  0  0  0  0  0  0  0  0
  6  1  1  0
  7  3  1  0
  8  4  1  0
  9  5  1  0
 10  3  1  0
 10  6  2  3
 11  4  1  0
 11  7  2  3
 12  5  1  0
 12  8  2  3
 13  6  1  0
 14  7  1  0
 15  8  1  0
 16  9  2  0
 17  2  1  0
 17  9  1  0
M  END
>  <NAME>  (7244) 
N-ACETYL-GLYCYL-GLYCYL-GLYCINE METHYL ESTER

>  <SYNONYMS>  (7244) 


>  <SPECTRUM TYPE>  (7244) 
MS1

>  <INSTRUMENT TYPE>  (7244) 
EI-B

>  <INSTRUMENT>  (7244) 
HITACHI RMU-6M

>  <ION MODE>  (7244) 
P

>  <INCHIKEY>  (7244) 
RBKYCFQDIAZTQJ-UHFFFAOYSA-N

>  <FORMULA>  (7244) 
C9H15N3O5

>  <EXACT MASS>  (7244) 
245.10117057999997

>  <MW>  (7244) 
245

>  <ID>  (7244) 
JP000295

>  <CONTRIBUTOR>  (7244) 
University of Tokyo Team, {Faculty of Engineering, University of Tokyo

>  <COMMENT>  (7244) 
SMILES=COC(=O)CNC(=O)CNC(=O)CNC(C)=O
InChI=InChI=1S/C9H15N3O5/c1-6(13)10-3-7(14)11-4-8(15)12-5-9(16)17-2/h3-5H2,1-2H3,(H,10,13)(H,11,14)(H,12,15)
computed SMILES=O=C(OC)CN=C(O)CN=C(O)CN=C(O)C
accession=JP000295
date=2016.01.19 (Created 2008.10.21, modified 2011.05.06)
author=YAMAMOTO M, DEP. CHEMISTRY, FAC. SCIENCE, NARA WOMEN'S UNIV.
license=CC BY-NC-SA
exact mass=245.10117
ionization energy=70 eV
ion type=[M]+*
computed spectral entropy=2.866322411296303
computed normalized entropy=0.7290054745663415
SPLASH=splash10-0089-9300000000-e1fbf8a0f08ad24bbc28
submitter=submitter = University of Tokyo Team (Faculty of Engineering, University of Tokyo)
MoNA Rating=3.75

>  <NUM PEAKS>  (7244) 
51

>  <MASS SPECTRAL PEAKS>  (7244) 
14 1.2
15 10.8
27 1.5
28 2.02
29 4.6
30 99.99
31 6.5
32 0.17
41 1.8
42 6.1
43 29.2
44 0.85
45 5.7
55 1.7
56 9.9
57 0.18
58 2.6
59 2.9
60 3.8
71 0.49
72 29.6
73 31.7
74 2.3
85 0.47
87 1.7
88 6.7
89 1.3
90 0.65
99 1.9
100 40.5
101 2.4
103 0.16
113 9.3
114 2.2
115 1.4
129 0.6
130 27.3
131 5.9
141 4.2
146 0.25
147 1.8
149 1.1
156 1.3
157 1.24
158 1.1
173 11.8
174 1.1
186 0.17
213 2.1
245 4.1
246 1.1

$$$$

     RDKit          2D

 15 14  0  0  1  0  0  0  0  0999 V2000
   -0.3248    6.5625    0.0000 C   0  0  0  0  0  0  0  0  0  0  0  0
   -4.2219    2.8125    0.0000 C   0  0  0  0  0  0  0  0  0  0  0  0
    3.5724    4.3125    0.0000 C   0  0  0  0  0  0  0  0  0  0  0  0
   -8.1190    5.0625    0.0000 C   0  0  0  0  0  0  0  0  0  0  0  0
   -0.3248    5.0625    0.0000 C   0  0  0  0  0  0  0  0  0  0  0  0
   -4.2219    4.3125    0.0000 C   0  0  0  0  0  0  0  0  0  0  0  0
    2.2733    5.0625    0.0000 C   0  0  0  0  0  0  0  0  0  0  0  0
   -1.6238    4.3125    0.0000 C   0  0  0  0  0  0  0  0  0  0  0  0
   -5.5209    5.0625    0.0000 C   0  0  0  0  0  0  0  0  0  0  0  0
    0.9743    4.3125    0.0000 N   0  0  0  0  0  0  0  0  0  0  0  0
   -2.9228    5.0625    0.0000 N   0  0  0  0  0  0  0  0  0  0  0  0
    2.2733    6.5625    0.0000 O   0  0  0  0  0  0  0  0  0  0  0  0
   -1.6238    2.8125    0.0000 O   0  0  0  0  0  0  0  0  0  0  0  0
   -5.5209    6.5625    0.0000 O   0  0  0  0  0  0  0  0  0  0  0  0
   -6.8200    4.3125    0.0000 O   0  0  0  0  0  0  0  0  0  0  0  0
  5  1  1  1
  6  2  1  1
  7  3  1  0
  8  5  1  0
  9  6  1  0
 10  5  1  0
 10  7  2  3
 11  6  1  0
 11  8  2  3
 12  7  1  0
 13  8  1  0
 14  9  2  0
 15  4  1  0
 15  9  1  0
M  END
>  <NAME>  (7245) 
N-ACETYL-ALANYL-ALANINE METHYL ESTER

>  <SYNONYMS>  (7245) 


>  <SPECTRUM TYPE>  (7245) 
MS1

>  <INSTRUMENT TYPE>  (7245) 
EI-B

>  <INSTRUMENT>  (7245) 
HITACHI RMU-6M

>  <ION MODE>  (7245) 
P

>  <INCHIKEY>  (7245) 
CXWPLQYKHLCSPO-RITPCOANSA-N

>  <FORMULA>  (7245) 
C9H16N2O4

>  <EXACT MASS>  (7245) 
216.111006992

>  <MW>  (7245) 
216

>  <ID>  (7245) 
JP000294

>  <CONTRIBUTOR>  (7245) 
University of Tokyo Team, {Faculty of Engineering, University of Tokyo

>  <COMMENT>  (7245) 
SMILES=COC(=O)C([H])(C)NC(=O)C([H])(C)NC(C)=O
InChI=InChI=1S/C9H16N2O4/c1-5(10-7(3)12)8(13)11-6(2)9(14)15-4/h5-6H,1-4H3,(H,10,12)(H,11,13)/t5-,6+/m1/s1
computed SMILES=O=C(OC)C(N=C(O)C(N=C(O)C)C)C
accession=JP000294
date=2016.01.19 (Created 2008.10.21, modified 2011.05.06)
author=YAMAMOTO M, DEP. CHEMISTRY, FAC. SCIENCE, NARA WOMEN'S UNIV.
license=CC BY-NC-SA
exact mass=216.11101
ionization energy=70 eV
ion type=[M]+*
computed spectral entropy=1.8877306076677236
computed normalized entropy=0.6301399575430724
SPLASH=splash10-0006-9000000000-f1e5c2f4a9ce9214184f
submitter=submitter = University of Tokyo Team (Faculty of Engineering, University of Tokyo)
MoNA Rating=3.75

>  <NUM PEAKS>  (7245) 
20

>  <MASS SPECTRAL PEAKS>  (7245) 
15 6.6
27 2
28 5.3
30 0.52
41 1.1
42 6.2
43 13.3
44 99.99
45 3.4
55 1.4
59 1.9
70 0.21
72 8.6
86 20.8
87 35.3
88 0.18
99 1.2
102 1.7
114 3.2
157 1.7

$$$$

     RDKit          2D

 13 12  0  0  0  0  0  0  0  0999 V2000
    3.5724    4.3125    0.0000 C   0  0  0  0  0  0  0  0  0  0  0  0
   -8.1190    5.0625    0.0000 C   0  0  0  0  0  0  0  0  0  0  0  0
   -0.3248    5.0625    0.0000 C   0  0  0  0  0  0  0  0  0  0  0  0
   -4.2219    4.3125    0.0000 C   0  0  0  0  0  0  0  0  0  0  0  0
    2.2733    5.0625    0.0000 C   0  0  0  0  0  0  0  0  0  0  0  0
   -1.6238    4.3125    0.0000 C   0  0  0  0  0  0  0  0  0  0  0  0
   -5.5209    5.0625    0.0000 C   0  0  0  0  0  0  0  0  0  0  0  0
    0.9743    4.3125    0.0000 N   0  0  0  0  0  0  0  0  0  0  0  0
   -2.9228    5.0625    0.0000 N   0  0  0  0  0  0  0  0  0  0  0  0
    2.2733    6.5625    0.0000 O   0  0  0  0  0  0  0  0  0  0  0  0
   -1.6238    2.8125    0.0000 O   0  0  0  0  0  0  0  0  0  0  0  0
   -5.5209    6.5625    0.0000 O   0  0  0  0  0  0  0  0  0  0  0  0
   -6.8200    4.3125    0.0000 O   0  0  0  0  0  0  0  0  0  0  0  0
  5  1  1  0
  6  3  1  0
  7  4  1  0
  8  3  1  0
  8  5  2  3
  9  4  1  0
  9  6  2  3
 10  5  1  0
 11  6  1  0
 12  7  2  0
 13  2  1  0
 13  7  1  0
M  END
>  <NAME>  (7246) 
N-ACETYL-GLYCYL-GLYCINE METHYL ESTER

>  <SYNONYMS>  (7246) 


>  <SPECTRUM TYPE>  (7246) 
MS1

>  <INSTRUMENT TYPE>  (7246) 
EI-B

>  <INSTRUMENT>  (7246) 
HITACHI RMU-6M

>  <ION MODE>  (7246) 
P

>  <INCHIKEY>  (7246) 
JSBPKTULFDBSFS-UHFFFAOYSA-N

>  <FORMULA>  (7246) 
C7H12N2O4

>  <EXACT MASS>  (7246) 
188.079706864

>  <MW>  (7246) 
188

>  <ID>  (7246) 
JP000293

>  <CONTRIBUTOR>  (7246) 
University of Tokyo Team, {Faculty of Engineering, University of Tokyo

>  <COMMENT>  (7246) 
SMILES=COC(=O)CNC(=O)CNC(C)=O
InChI=InChI=1S/C7H12N2O4/c1-5(10)8-3-6(11)9-4-7(12)13-2/h3-4H2,1-2H3,(H,8,10)(H,9,11)
computed SMILES=O=C(OC)CN=C(O)CN=C(O)C
accession=JP000293
date=2016.01.19 (Created 2008.10.21, modified 2011.05.06)
author=YAMAMOTO M, DEP. CHEMISTRY, FAC. SCIENCE, NARA WOMEN'S UNIV.
license=CC BY-NC-SA
exact mass=188.07971
ionization energy=70 eV
ion type=[M]+*
computed spectral entropy=2.274595924658529
computed normalized entropy=0.6981364419728964
SPLASH=splash10-001i-9100000000-c51e30657fc24ed7bdd4
submitter=submitter = University of Tokyo Team (Faculty of Engineering, University of Tokyo)
MoNA Rating=3.75

>  <NUM PEAKS>  (7246) 
26

>  <MASS SPECTRAL PEAKS>  (7246) 
15 12.4
28 10.2
29 3.7
30 99.99
31 11.6
32 1.6
42 4.9
43 3.56
44 3.1
45 8.5
56 6.7
57 0.15
58 3.1
59 1.7
72 23.5
73 7.93
74 3.4
85 1.7
88 5.7
90 0.32
100 18.8
101 1.1
129 2.8
158 0.11
188 1
189 1

$$$$

     RDKit          2D

 28 31  0  0  0  0  0  0  0  0999 V2000
   -2.5981   10.0700    0.0000 C   0  0  0  0  0  0  0  0  0  0  0  0
   -6.4952    3.3200    0.0000 C   0  0  0  0  0  0  0  0  0  0  0  0
   -0.0000   -1.9300    0.0000 C   0  0  0  0  0  0  0  0  0  0  0  0
    3.8971    4.8200    0.0000 C   0  0  0  0  0  0  0  0  0  0  0  0
   -3.8981    9.3200    0.0000 C   0  0  0  0  0  0  0  0  0  0  0  0
   -1.2981    9.3200    0.0000 C   0  0  0  0  0  0  0  0  0  0  0  0
   -5.1957    2.5692    0.0000 C   0  0  0  0  0  0  0  0  0  0  0  0
   -6.4957    4.8208    0.0000 C   0  0  0  0  0  0  0  0  0  0  0  0
    1.3000   -1.1800    0.0000 C   0  0  0  0  0  0  0  0  0  0  0  0
   -1.3000   -1.1800    0.0000 C   0  0  0  0  0  0  0  0  0  0  0  0
    2.5976    5.5708    0.0000 C   0  0  0  0  0  0  0  0  0  0  0  0
    3.8976    3.3192    0.0000 C   0  0  0  0  0  0  0  0  0  0  0  0
   -3.8981    7.8200    0.0000 C   0  0  0  0  0  0  0  0  0  0  0  0
   -1.2981    7.8200    0.0000 C   0  0  0  0  0  0  0  0  0  0  0  0
   -3.8966    3.3192    0.0000 C   0  0  0  0  0  0  0  0  0  0  0  0
   -5.1966    5.5708    0.0000 C   0  0  0  0  0  0  0  0  0  0  0  0
    1.3000    0.3200    0.0000 C   0  0  0  0  0  0  0  0  0  0  0  0
   -1.3000    0.3200    0.0000 C   0  0  0  0  0  0  0  0  0  0  0  0
    1.2986    4.8208    0.0000 C   0  0  0  0  0  0  0  0  0  0  0  0
    2.5986    2.5692    0.0000 C   0  0  0  0  0  0  0  0  0  0  0  0
   -1.2990    4.8200    0.0000 C   0  0  0  0  0  0  0  0  0  0  0  0
   -1.2990    3.3200    0.0000 C   0  0  0  0  0  0  0  0  0  0  0  0
   -2.5981    7.0700    0.0000 C   0  0  0  0  0  0  0  0  0  0  0  0
   -3.8971    4.8200    0.0000 C   0  0  0  0  0  0  0  0  0  0  0  0
   -0.0000    1.0700    0.0000 C   0  0  0  0  0  0  0  0  0  0  0  0
    1.2990    3.3200    0.0000 C   0  0  0  0  0  0  0  0  0  0  0  0
   -2.5981    5.5700    0.0000 C   0  0  0  0  0  0  0  0  0  0  0  0
   -0.0000    2.5700    0.0000 C   0  0  0  0  0  0  0  0  0  0  0  0
  5  1  2  0
  6  1  1  0
  7  2  2  0
  8  2  1  0
  9  3  2  0
 10  3  1  0
 11  4  2  0
 12  4  1  0
 13  5  1  0
 14  6  2  0
 15  7  1  0
 16  8  2  0
 17  9  1  0
 18 10  2  0
 19 11  1  0
 20 12  2  0
 22 21  1  0
 23 13  2  0
 23 14  1  0
 24 15  2  0
 24 16  1  0
 25 17  2  0
 25 18  1  0
 26 19  2  0
 26 20  1  0
 27 21  1  0
 27 23  1  0
 27 24  1  0
 28 22  1  0
 28 25  1  0
 28 26  1  0
M  END
>  <NAME>  (7247) 
1,1,4,4-TETRAPHENYLBUTANE

>  <SYNONYMS>  (7247) 


>  <SPECTRUM TYPE>  (7247) 
MS1

>  <INSTRUMENT TYPE>  (7247) 
EI-B

>  <INSTRUMENT>  (7247) 
HITACHI RMU-6M

>  <ION MODE>  (7247) 
P

>  <INCHIKEY>  (7247) 
RYRPAXUFKAJVQC-UHFFFAOYSA-N

>  <FORMULA>  (7247) 
C28H26

>  <EXACT MASS>  (7247) 
362.203450832

>  <MW>  (7247) 
362

>  <ID>  (7247) 
JP000292

>  <CONTRIBUTOR>  (7247) 
University of Tokyo Team, {Faculty of Engineering, University of Tokyo

>  <COMMENT>  (7247) 
SMILES=C(CC(c(c4)cccc4)c(c3)cccc3)C(c(c2)cccc2)c(c1)cccc1
InChI=InChI=1S/C28H26/c1-5-13-23(14-6-1)27(24-15-7-2-8-16-24)21-22-28(25-17-9-3-10-18-25)26-19-11-4-12-20-26/h1-20,27-28H,21-22H2
computed SMILES=C=1C=CC(=CC1)C(C=2C=CC=CC2)CCC(C=3C=CC=CC3)C=4C=CC=CC4
accession=JP000292
date=2016.01.19 (Created 2008.10.21, modified 2011.05.06)
author=YAMAMOTO M, DEP. CHEMISTRY, FAC. SCIENCE, NARA WOMEN'S UNIV.
license=CC BY-NC-SA
exact mass=362.20345
ionization energy=70 eV
ion type=[M]+*
computed spectral entropy=2.4308893764508794
computed normalized entropy=0.646306844006524
SPLASH=splash10-014i-2900000000-7bdcb22a23df301c96bf
submitter=submitter = University of Tokyo Team (Faculty of Engineering, University of Tokyo)
MoNA Rating=3.75

>  <NUM PEAKS>  (7247) 
43

>  <MASS SPECTRAL PEAKS>  (7247) 
41 1.1
42 1
43 5.5
44 0.13
51 1.7
57 1.1
63 1
65 0.28
77 4.1
79 1
86 4.5
88 0.68
89 1.2
91 19
92 2.1
102 0.12
103 2.1
105 2.2
115 3.5
117 0.12
118 1
128 1.3
141 1.1
145 0.2
151 1
152 10.5
153 1.7
162 0.29
164 1
165 16.8
166 7.5
167 99.99
168 16.3
169 1.7
178 1.7
179 0.15
180 5.5
181 1.4
182 1.4
193 0.1
195 1.1
362 8.8
363 2.7

$$$$

     RDKit          2D

 14 15  0  0  0  0  0  0  0  0999 V2000
    1.2986    4.8200    0.0000 C   0  0  0  0  0  0  0  0  0  0  0  0
   -2.5986    1.0700    0.0000 C   0  0  0  0  0  0  0  0  0  0  0  0
    5.1957    1.0700    0.0000 C   0  0  0  0  0  0  0  0  0  0  0  0
   -1.2990    0.3192    0.0000 C   0  0  0  0  0  0  0  0  0  0  0  0
   -2.5990    2.5708    0.0000 C   0  0  0  0  0  0  0  0  0  0  0  0
    5.1962    2.5708    0.0000 C   0  0  0  0  0  0  0  0  0  0  0  0
    3.8962    0.3192    0.0000 C   0  0  0  0  0  0  0  0  0  0  0  0
    0.0000    1.0692    0.0000 C   0  0  0  0  0  0  0  0  0  0  0  0
   -1.3000    3.3208    0.0000 C   0  0  0  0  0  0  0  0  0  0  0  0
    3.8971    3.3208    0.0000 C   0  0  0  0  0  0  0  0  0  0  0  0
    2.5971    1.0692    0.0000 C   0  0  0  0  0  0  0  0  0  0  0  0
    1.2986    3.3200    0.0000 C   0  0  0  0  0  0  0  0  0  0  0  0
   -0.0005    2.5700    0.0000 C   0  0  0  0  0  0  0  0  0  0  0  0
    2.5976    2.5700    0.0000 C   0  0  0  0  0  0  0  0  0  0  0  0
  4  2  2  0
  5  2  1  0
  6  3  2  0
  7  3  1  0
  8  4  1  0
  9  5  2  0
 10  6  1  0
 11  7  2  0
 12  1  2  0
 13  8  2  0
 13  9  1  0
 13 12  1  0
 14 10  2  0
 14 11  1  0
 14 12  1  0
M  END
>  <NAME>  (7248) 
1,1-DIPHENYLETHYLENE

>  <SYNONYMS>  (7248) 


>  <SPECTRUM TYPE>  (7248) 
MS1

>  <INSTRUMENT TYPE>  (7248) 
EI-B

>  <INSTRUMENT>  (7248) 
HITACHI RMU-6M

>  <ION MODE>  (7248) 
P

>  <INCHIKEY>  (7248) 
ZMYIIHDQURVDRB-UHFFFAOYSA-N

>  <FORMULA>  (7248) 
C14H12

>  <EXACT MASS>  (7248) 
180.093900384

>  <MW>  (7248) 
180

>  <ID>  (7248) 
JP000291

>  <CONTRIBUTOR>  (7248) 
University of Tokyo Team, {Faculty of Engineering, University of Tokyo

>  <COMMENT>  (7248) 
SMILES=c(c2)ccc(c2)C(=C)c(c1)cccc1
InChI=InChI=1S/C14H12/c1-12(13-8-4-2-5-9-13)14-10-6-3-7-11-14/h2-11H,1H2
computed SMILES=C=C(C=1C=CC=CC1)C=2C=CC=CC2
accession=JP000291
date=2016.01.19 (Created 2008.10.21, modified 2011.05.06)
author=YAMAMOTO M, DEP. CHEMISTRY, FAC. SCIENCE, NARA WOMEN'S UNIV.
license=CC BY-NC-SA
exact mass=180.0939
ionization energy=70 eV
ion type=[M]+*
computed spectral entropy=2.6481973117936555
computed normalized entropy=0.7641082258040381
SPLASH=splash10-00pi-2900000000-a2ae7cce0b0689006172
submitter=submitter = University of Tokyo Team (Faculty of Engineering, University of Tokyo)
MoNA Rating=3.75

>  <NUM PEAKS>  (7248) 
32

>  <MASS SPECTRAL PEAKS>  (7248) 
27 2.8
28 2.8
39 6
50 0.65
51 16.8
52 4.6
63 8.5
74 0.4
75 5.4
76 19.3
77 18.8
78 0.43
83 4.3
88 6
89 23.9
90 0.48
91 4
102 9.7
103 5.4
115 0.48
139 3.4
151 6
152 11.4
153 0.34
165 76.1
166 12.5
176 9.1
177 0.94
178 56
179 77.3
180 99.99
181 16.2

$$$$

     RDKit          2D

 10 10  0  0  0  0  0  0  0  0999 V2000
   -4.8712    2.0071    0.0000 C   0  0  0  0  0  0  0  0  0  0  0  0
   -3.5721    2.7571    0.0000 C   0  0  0  0  0  0  0  0  0  0  0  0
   -2.2731    2.0071    0.0000 C   0  0  0  0  0  0  0  0  0  0  0  0
    2.9231    0.5071    0.0000 C   0  0  0  0  0  0  0  0  0  0  0  0
    2.9236    2.0079    0.0000 C   0  0  0  0  0  0  0  0  0  0  0  0
    1.6236   -0.2437    0.0000 C   0  0  0  0  0  0  0  0  0  0  0  0
   -0.9740    2.7571    0.0000 C   0  0  0  0  0  0  0  0  0  0  0  0
    1.6245    2.7579    0.0000 C   0  0  0  0  0  0  0  0  0  0  0  0
    0.3245    0.5063    0.0000 C   0  0  0  0  0  0  0  0  0  0  0  0
    0.3250    2.0071    0.0000 C   0  0  0  0  0  0  0  0  0  0  0  0
  2  1  1  0
  3  2  1  0
  5  4  1  0
  6  4  1  0
  7  3  1  0
  8  5  1  0
  9  6  1  0
 10  7  1  0
 10  8  1  0
 10  9  1  0
M  END
>  <NAME>  (7249) 
BUTYLCYCLOHEXANE

>  <SYNONYMS>  (7249) 


>  <SPECTRUM TYPE>  (7249) 
MS1

>  <INSTRUMENT TYPE>  (7249) 
EI-B

>  <INSTRUMENT>  (7249) 
HITACHI RMU-6M

>  <ION MODE>  (7249) 
P

>  <INCHIKEY>  (7249) 
GGBJHURWWWLEQH-UHFFFAOYSA-N

>  <FORMULA>  (7249) 
C10H20

>  <EXACT MASS>  (7249) 
140.15650064

>  <MW>  (7249) 
140

>  <ID>  (7249) 
JP000290

>  <CONTRIBUTOR>  (7249) 
University of Tokyo Team, {Faculty of Engineering, University of Tokyo

>  <COMMENT>  (7249) 
SMILES=CCCCC(C1)CCCC1
InChI=InChI=1S/C10H20/c1-2-3-7-10-8-5-4-6-9-10/h10H,2-9H2,1H3
computed SMILES=CCCCC1CCCCC1
accession=JP000290
date=2016.01.19 (Created 2008.10.21, modified 2011.05.06)
license=CC BY-NC-SA
author=YAMAMOTO M, DEP. CHEMISTRY, FAC. SCIENCE, NARA WOMEN'S UNIV.
exact mass=140.1565
ionization energy=70 eV
ion type=[M]+*
computed spectral entropy=2.4229962487716894
computed normalized entropy=0.7123950705817543
SPLASH=splash10-001i-9000000000-603c89bf672005100849
submitter=submitter = University of Tokyo Team (Faculty of Engineering, University of Tokyo)
MoNA Rating=3.75

>  <NUM PEAKS>  (7249) 
30

>  <MASS SPECTRAL PEAKS>  (7249) 
27 13.2
28 2.7
29 15.8
39 1.43
40 2.2
41 40.8
42 7.9
43 1
51 1.2
53 5.3
54 7.6
55 8.62
56 13.8
59 4.1
65 1.2
67 1.99
68 4.4
69 10.8
70 5.7
77 0.12
79 1.5
81 72.9
83 99.99
84 0.61
96 1.1
97 3.5
98 1.1
111 0.12
140 23.9
141 2.9

$$$$

     RDKit          2D

  9  9  0  0  0  0  0  0  0  0999 V2000
   -3.5724    2.0075    0.0000 C   0  0  0  0  0  0  0  0  0  0  0  0
   -2.2733    1.2575    0.0000 C   0  0  0  0  0  0  0  0  0  0  0  0
    2.9228   -0.2425    0.0000 C   0  0  0  0  0  0  0  0  0  0  0  0
    2.9233    1.2583    0.0000 C   0  0  0  0  0  0  0  0  0  0  0  0
    1.6233   -0.9933    0.0000 C   0  0  0  0  0  0  0  0  0  0  0  0
   -0.9743    2.0075    0.0000 C   0  0  0  0  0  0  0  0  0  0  0  0
    1.6243    2.0083    0.0000 C   0  0  0  0  0  0  0  0  0  0  0  0
    0.3243   -0.2433    0.0000 C   0  0  0  0  0  0  0  0  0  0  0  0
    0.3248    1.2575    0.0000 C   0  0  0  0  0  0  0  0  0  0  0  0
  2  1  1  0
  4  3  1  0
  5  3  1  0
  6  2  1  0
  7  4  1  0
  8  5  1  0
  9  6  1  0
  9  7  1  0
  9  8  1  0
M  END
>  <NAME>  (7250) 
PROPYLCYCLOHEXANE

>  <SYNONYMS>  (7250) 


>  <SPECTRUM TYPE>  (7250) 
MS1

>  <INSTRUMENT TYPE>  (7250) 
EI-B

>  <INSTRUMENT>  (7250) 
HITACHI RMU-6M

>  <ION MODE>  (7250) 
P

>  <INCHIKEY>  (7250) 
DEDZSLCZHWTGOR-UHFFFAOYSA-N

>  <FORMULA>  (7250) 
C9H18

>  <EXACT MASS>  (7250) 
126.14085057599999

>  <MW>  (7250) 
126

>  <ID>  (7250) 
JP000289

>  <CONTRIBUTOR>  (7250) 
University of Tokyo Team, {Faculty of Engineering, University of Tokyo

>  <COMMENT>  (7250) 
SMILES=CCCC(C1)CCCC1
InChI=InChI=1S/C9H18/c1-2-6-9-7-4-3-5-8-9/h9H,2-8H2,1H3
computed SMILES=CCCC1CCCCC1
accession=JP000289
date=2016.01.19 (Created 2008.10.21, modified 2011.05.06)
author=YAMAMOTO M, DEP. CHEMISTRY, FAC. SCIENCE, NARA WOMEN'S UNIV.
license=CC BY-NC-SA
exact mass=126.14085
ionization energy=70 eV
ion type=[M]+*
computed spectral entropy=2.455784627369596
computed normalized entropy=0.7293046858254388
SPLASH=splash10-001i-9000000000-4f3fcff75e976191cfa3
submitter=submitter = University of Tokyo Team (Faculty of Engineering, University of Tokyo)
MoNA Rating=3.75

>  <NUM PEAKS>  (7250) 
29

>  <MASS SPECTRAL PEAKS>  (7250) 
27 14.2
28 3
29 13.8
39 1.62
40 4.1
41 43.2
42 8.9
43 0.87
51 1.6
53 5.6
54 7.9
55 8.79
56 13.4
57 3.5
65 1.5
67 1.75
68 4
69 10.6
70 4.9
77 0.14
79 1.4
81 2.6
82 62.5
83 99.99
84 7.8
97 3.5
98 1.2
126 2.92
127 3

$$$$

     RDKit          2D

  7  6  0  0  0  0  0  0  0  0999 V2000
   -1.9486    4.1250    0.0000 C   0  0  0  0  0  0  0  0  0  0  0  0
   -0.6495    3.3750    0.0000 C   0  0  0  0  0  0  0  0  0  0  0  0
   -3.2476    3.3750    0.0000 C   0  0  0  0  0  0  0  0  0  0  0  0
    0.6495    4.1250    0.0000 C   0  0  0  0  0  0  0  0  0  0  0  0
   -4.5466    4.1250    0.0000 C   0  0  0  0  0  0  0  0  0  0  0  0
    1.9486    3.3750    0.0000 N   0  0  0  0  0  0  0  0  0  0  0  0
   -5.8457    3.3750    0.0000 O   0  0  0  0  0  0  0  0  0  0  0  0
  2  1  1  0
  3  1  1  0
  4  2  1  0
  5  3  1  0
  6  4  1  0
  7  5  1  0
M  END
>  <NAME>  (7251) 
5-AMINO-1-PENTANOL

>  <SYNONYMS>  (7251) 


>  <SPECTRUM TYPE>  (7251) 
MS1

>  <INSTRUMENT TYPE>  (7251) 
EI-B

>  <INSTRUMENT>  (7251) 
HITACHI RMU-6M

>  <ION MODE>  (7251) 
P

>  <INCHIKEY>  (7251) 
LQGKDMHENBFVRC-UHFFFAOYSA-N

>  <FORMULA>  (7251) 
C5H13NO

>  <EXACT MASS>  (7251) 
103.099714036

>  <MW>  (7251) 
103

>  <ID>  (7251) 
JP000288

>  <CONTRIBUTOR>  (7251) 
University of Tokyo Team, {Faculty of Engineering, University of Tokyo

>  <COMMENT>  (7251) 
SMILES=NCCCCCO
InChI=InChI=1S/C5H13NO/c6-4-2-1-3-5-7/h7H,1-6H2
computed SMILES=OCCCCCN
accession=JP000288
date=2016.01.19 (Created 2008.10.21, modified 2011.05.06)
author=YAMAMOTO M, DEP. CHEMISTRY, FAC. SCIENCE, NARA WOMEN'S UNIV.
license=CC BY-NC-SA
exact mass=103.09971
ionization energy=70 eV
ion type=[M]+*
computed spectral entropy=1.3383707678034016
computed normalized entropy=0.45454185917015993
SPLASH=splash10-001i-9000000000-077fb31840d2055ea75a
submitter=submitter = University of Tokyo Team (Faculty of Engineering, University of Tokyo)
MoNA Rating=3.75

>  <NUM PEAKS>  (7251) 
19

>  <MASS SPECTRAL PEAKS>  (7251) 
18 4.5
27 3.2
28 5.6
29 0.23
30 99.99
31 4.1
39 2.1
41 0.4
42 2.4
43 4.2
44 2.3
45 0.44
55 1.3
56 3.4
59 1.3
72 0.1
85 1.5
86 1.6
103 1

$$$$

     RDKit          2D

  5  4  0  0  0  0  0  0  0  0999 V2000
    0.0000    0.0000    0.0000 C   0  0  0  0  0  0  0  0  0  0  0  0
   -1.2990    2.2500    0.0000 C   0  0  0  0  0  0  0  0  0  0  0  0
    0.0000    1.5000    0.0000 C   0  0  0  0  0  0  0  0  0  0  0  0
   -1.2990    3.7500    0.0000 N   0  0  0  0  0  0  0  0  0  0  0  0
    1.2990    2.2500    0.0000 O   0  0  0  0  0  0  0  0  0  0  0  0
  3  1  1  0
  3  2  1  0
  4  2  1  0
  5  3  1  0
M  END
>  <NAME>  (7252) 
1-AMINO-2-PROPANOL

>  <SYNONYMS>  (7252) 


>  <SPECTRUM TYPE>  (7252) 
MS1

>  <INSTRUMENT TYPE>  (7252) 
EI-B

>  <INSTRUMENT>  (7252) 
HITACHI RMU-6M

>  <ION MODE>  (7252) 
P

>  <INCHIKEY>  (7252) 
HXKKHQJGJAFBHI-UHFFFAOYSA-N

>  <FORMULA>  (7252) 
C3H9NO

>  <EXACT MASS>  (7252) 
75.068413908

>  <MW>  (7252) 
75

>  <ID>  (7252) 
JP000287

>  <CONTRIBUTOR>  (7252) 
University of Tokyo Team, {Faculty of Engineering, University of Tokyo

>  <COMMENT>  (7252) 
SMILES=NCC(C)O
InChI=InChI=1S/C3H9NO/c1-3(5)2-4/h3,5H,2,4H2,1H3
computed SMILES=OC(C)CN
accession=JP000287
date=2016.01.19 (Created 2008.10.21, modified 2011.05.06)
author=YAMAMOTO M, DEP. CHEMISTRY, FAC. SCIENCE, NARA WOMEN'S UNIV.
license=CC BY-NC-SA
exact mass=75.06841
ionization energy=70 eV
ion type=[M]+*
computed spectral entropy=1.7052710380795009
computed normalized entropy=0.5791497294205284
SPLASH=splash10-001i-9000000000-a609c5c581d8ed14b4c4
submitter=submitter = University of Tokyo Team (Faculty of Engineering, University of Tokyo)
MoNA Rating=3.75

>  <NUM PEAKS>  (7252) 
19

>  <MASS SPECTRAL PEAKS>  (7252) 
15 3.5
17 1.3
18 2.9
19 0.16
27 4
28 12.4
29 2.6
30 99.99
31 12.7
32 6.3
39 1.2
41 0.27
42 5.3
43 3.2
44 4.7
45 0.8
56 2.2
60 4.3
75 1.2

$$$$

     RDKit          2D

  5  4  0  0  0  0  0  0  0  0999 V2000
   -1.2990    2.2500    0.0000 C   0  0  0  0  0  0  0  0  0  0  0  0
   -2.5981    1.5000    0.0000 C   0  0  0  0  0  0  0  0  0  0  0  0
    0.0000    1.5000    0.0000 C   0  0  0  0  0  0  0  0  0  0  0  0
   -3.8971    2.2500    0.0000 N   0  0  0  0  0  0  0  0  0  0  0  0
    1.2990    2.2500    0.0000 O   0  0  0  0  0  0  0  0  0  0  0  0
  2  1  1  0
  3  1  1  0
  4  2  1  0
  5  3  1  0
M  END
>  <NAME>  (7253) 
3-AMINO-1-PROPANOL

>  <SYNONYMS>  (7253) 


>  <SPECTRUM TYPE>  (7253) 
MS1

>  <INSTRUMENT TYPE>  (7253) 
EI-B

>  <INSTRUMENT>  (7253) 
HITACHI RMU-6M

>  <ION MODE>  (7253) 
P

>  <INCHIKEY>  (7253) 
WUGQZFFCHPXWKQ-UHFFFAOYSA-N

>  <FORMULA>  (7253) 
C3H9NO

>  <EXACT MASS>  (7253) 
75.068413908

>  <MW>  (7253) 
75

>  <ID>  (7253) 
JP000286

>  <CONTRIBUTOR>  (7253) 
University of Tokyo Team, {Faculty of Engineering, University of Tokyo

>  <COMMENT>  (7253) 
SMILES=NCCCO
InChI=InChI=1S/C3H9NO/c4-2-1-3-5/h5H,1-4H2
computed SMILES=OCCCN
accession=JP000286
date=2016.01.19 (Created 2008.10.21, modified 2011.05.06)
author=YAMAMOTO M, DEP. CHEMISTRY, FAC. SCIENCE, NARA WOMEN'S UNIV.
license=CC BY-NC-SA
exact mass=75.06841
ionization energy=70 eV
ion type=[M]+*
computed spectral entropy=1.611106154057305
computed normalized entropy=0.5574044756201162
SPLASH=splash10-001i-9000000000-9481a32333e1002e4dd7
submitter=submitter = University of Tokyo Team (Faculty of Engineering, University of Tokyo)
MoNA Rating=3.75

>  <NUM PEAKS>  (7253) 
18

>  <MASS SPECTRAL PEAKS>  (7253) 
15 2.5
17 1.5
18 22.2
26 0.12
27 4.3
28 11.4
29 3
30 99.99
31 5.7
39 1
41 1.8
42 0.36
43 1.8
44 6.5
45 3.5
56 0.37
57 1.7
75 2.5

$$$$

     RDKit          2D

  9  8  0  0  0  0  0  0  0  0999 V2000
   -7.4695    3.9375    0.0000 C   0  0  0  0  0  0  0  0  0  0  0  0
    1.6238    3.1875    0.0000 C   0  0  0  0  0  0  0  0  0  0  0  0
   -6.1704    3.1875    0.0000 C   0  0  0  0  0  0  0  0  0  0  0  0
   -4.8714    3.9375    0.0000 C   0  0  0  0  0  0  0  0  0  0  0  0
   -3.5724    3.1875    0.0000 C   0  0  0  0  0  0  0  0  0  0  0  0
   -2.2733    3.9375    0.0000 C   0  0  0  0  0  0  0  0  0  0  0  0
   -0.9743    3.1875    0.0000 C   0  0  0  0  0  0  0  0  0  0  0  0
    0.3248    3.9375    0.0000 C   0  0  0  0  0  0  0  0  0  0  0  0
    0.3248    5.4375    0.0000 O   0  0  0  0  0  0  0  0  0  0  0  0
  3  1  1  0
  4  3  1  0
  5  4  1  0
  6  5  1  0
  7  6  1  0
  8  2  1  0
  8  7  1  0
  9  8  1  0
M  END
>  <NAME>  (7254) 
2-OCTANOL

>  <SYNONYMS>  (7254) 
SEC-OCTYL ALCOHOL

>  <SPECTRUM TYPE>  (7254) 
MS1

>  <INSTRUMENT TYPE>  (7254) 
EI-B

>  <INSTRUMENT>  (7254) 
HITACHI RMU-6M

>  <ION MODE>  (7254) 
P

>  <INCHIKEY>  (7254) 
SJWFXCIHNDVPSH-UHFFFAOYSA-N

>  <FORMULA>  (7254) 
C8H18O

>  <EXACT MASS>  (7254) 
130.135765196

>  <MW>  (7254) 
130

>  <ID>  (7254) 
JP000285

>  <CONTRIBUTOR>  (7254) 
University of Tokyo Team, {Faculty of Engineering, University of Tokyo

>  <COMMENT>  (7254) 
SMILES=CCCCCCC(C)O
InChI=InChI=1S/C8H18O/c1-3-4-5-6-7-8(2)9/h8-9H,3-7H2,1-2H3
computed SMILES=OC(C)CCCCCC
accession=JP000285
date=2016.01.19 (Created 2008.10.21, modified 2011.05.06)
author=YAMAMOTO M, DEP. CHEMISTRY, FAC. SCIENCE, NARA WOMEN'S UNIV.
license=CC BY-NC-SA
exact mass=130.13577
ionization energy=70 eV
ion type=[M]+*
computed spectral entropy=2.1728199155546477
computed normalized entropy=0.6668985679823098
SPLASH=splash10-0002-9000000000-4ce732faf408608e7afe
submitter=submitter = University of Tokyo Team (Faculty of Engineering, University of Tokyo)
MoNA Rating=3.75

>  <NUM PEAKS>  (7254) 
26

>  <MASS SPECTRAL PEAKS>  (7254) 
15 1.1
19 1.3
27 8.3
28 0.19
29 7.9
31 1.9
39 4.7
41 1.46
42 5
43 11.8
44 7.4
45 99.99
46 2.3
55 19.9
56 6.7
57 0.52
58 1.6
69 5.3
70 5.7
71 0.14
82 1.1
83 3.4
84 5.8
97 0.69
112 4.4
115 2.7

$$$$

     RDKit          2D

  9  8  0  0  0  0  0  0  0  0999 V2000
    2.5981    4.5000    0.0000 C   0  0  0  0  0  0  0  0  0  0  0  0
    1.2990    5.2500    0.0000 C   0  0  0  0  0  0  0  0  0  0  0  0
    0.0000    4.5000    0.0000 C   0  0  0  0  0  0  0  0  0  0  0  0
   -1.2990    5.2500    0.0000 C   0  0  0  0  0  0  0  0  0  0  0  0
   -2.5981    4.5000    0.0000 C   0  0  0  0  0  0  0  0  0  0  0  0
   -3.8971    5.2500    0.0000 C   0  0  0  0  0  0  0  0  0  0  0  0
   -5.1962    4.5000    0.0000 C   0  0  0  0  0  0  0  0  0  0  0  0
   -6.4952    5.2500    0.0000 C   0  0  0  0  0  0  0  0  0  0  0  0
   -7.7942    4.5000    0.0000 O   0  0  0  0  0  0  0  0  0  0  0  0
  2  1  1  0
  3  2  1  0
  4  3  1  0
  5  4  1  0
  6  5  1  0
  7  6  1  0
  8  7  1  0
  9  8  1  0
M  END
>  <NAME>  (7255) 
1-OCTANOL

>  <SYNONYMS>  (7255) 
OCTYL ALCOHOL

>  <SPECTRUM TYPE>  (7255) 
MS1

>  <INSTRUMENT TYPE>  (7255) 
EI-B

>  <INSTRUMENT>  (7255) 
HITACHI RMU-6M

>  <ION MODE>  (7255) 
P

>  <INCHIKEY>  (7255) 
KBPLFHHGFOOTCA-UHFFFAOYSA-N

>  <FORMULA>  (7255) 
C8H18O

>  <EXACT MASS>  (7255) 
130.135765196

>  <MW>  (7255) 
130

>  <ID>  (7255) 
JP000284

>  <CONTRIBUTOR>  (7255) 
University of Tokyo Team, {Faculty of Engineering, University of Tokyo

>  <COMMENT>  (7255) 
SMILES=CCCCCCCCO
InChI=InChI=1S/C8H18O/c1-2-3-4-5-6-7-8-9/h9H,2-8H2,1H3
computed SMILES=OCCCCCCCC
accession=JP000284
date=2016.01.19 (Created 2008.10.21, modified 2011.05.06)
author=YAMAMOTO M, DEP. CHEMISTRY, FAC. SCIENCE, NARA WOMEN'S UNIV.
license=CC BY-NC-SA
exact mass=130.13577
ionization energy=70 eV
ion type=[M]+*
computed spectral entropy=2.6394345139714246
computed normalized entropy=0.7548773933909103
SPLASH=splash10-0a4l-9000000000-526bd5ff898735941865
submitter=submitter = University of Tokyo Team (Faculty of Engineering, University of Tokyo)
MoNA Rating=3.75

>  <NUM PEAKS>  (7255) 
33

>  <MASS SPECTRAL PEAKS>  (7255) 
15 1.7
19 1.2
26 1.4
27 2.9
28 7.2
29 41.3
30 1.1
31 2.97
39 18.7
40 3.8
41 88.9
42 5.5
43 71.6
44 2.7
45 4.1
53 0.45
54 5.3
55 81.8
56 99.99
57 3.75
58 1.6
67 4.6
68 17.2
69 5.63
70 59.7
71 10
72 2.3
82 0.97
83 37.3
84 49.8
85 4.3
97 0.33
112 5.4

$$$$

     RDKit          2D

  8  7  0  0  0  0  0  0  0  0999 V2000
   -6.4952    4.5000    0.0000 C   0  0  0  0  0  0  0  0  0  0  0  0
   -5.1962    3.7500    0.0000 C   0  0  0  0  0  0  0  0  0  0  0  0
   -3.8971    4.5000    0.0000 C   0  0  0  0  0  0  0  0  0  0  0  0
   -2.5981    3.7500    0.0000 C   0  0  0  0  0  0  0  0  0  0  0  0
   -1.2990    4.5000    0.0000 C   0  0  0  0  0  0  0  0  0  0  0  0
    0.0000    3.7500    0.0000 C   0  0  0  0  0  0  0  0  0  0  0  0
    1.2990    4.5000    0.0000 C   0  0  0  0  0  0  0  0  0  0  0  0
    2.5981    3.7500    0.0000 O   0  0  0  0  0  0  0  0  0  0  0  0
  2  1  1  0
  3  2  1  0
  4  3  1  0
  5  4  1  0
  6  5  1  0
  7  6  1  0
  8  7  1  0
M  END
>  <NAME>  (7256) 
1-HEPTANOL

>  <SYNONYMS>  (7256) 
HEPTYL ALCOHOL

>  <SPECTRUM TYPE>  (7256) 
MS1

>  <INSTRUMENT TYPE>  (7256) 
EI-B

>  <INSTRUMENT>  (7256) 
HITACHI RMU-6M

>  <ION MODE>  (7256) 
P

>  <INCHIKEY>  (7256) 
BBMCTIGTTCKYKF-UHFFFAOYSA-N

>  <FORMULA>  (7256) 
C7H16O

>  <EXACT MASS>  (7256) 
116.120115132

>  <MW>  (7256) 
116

>  <ID>  (7256) 
JP000283

>  <CONTRIBUTOR>  (7256) 
University of Tokyo Team, {Faculty of Engineering, University of Tokyo

>  <COMMENT>  (7256) 
SMILES=CCCCCCCO
InChI=InChI=1S/C7H16O/c1-2-3-4-5-6-7-8/h8H,2-7H2,1H3
computed SMILES=OCCCCCCC
accession=JP000283
date=2016.01.19 (Created 2008.10.21, modified 2011.05.06)
author=YAMAMOTO M, DEP. CHEMISTRY, FAC. SCIENCE, NARA WOMEN'S UNIV.
license=CC BY-NC-SA
exact mass=116.12012
ionization energy=70 eV
ion type=[M]+*
computed spectral entropy=2.519443583594465
computed normalized entropy=0.7336787919022553
SPLASH=splash10-0596-9000000000-93440ca41816ed93e8b5
submitter=submitter = University of Tokyo Team (Faculty of Engineering, University of Tokyo)
MoNA Rating=3.75

>  <NUM PEAKS>  (7256) 
31

>  <MASS SPECTRAL PEAKS>  (7256) 
15 2.3
19 1.4
26 1.5
27 3.05
28 8.8
29 36.1
30 1.2
31 3.37
39 19.5
40 3.9
41 81.5
42 5.18
43 71.5
44 2.9
45 4.8
51 0.11
53 3.8
54 6
55 72
56 9.44
57 24
67 2.1
68 15.3
69 5.12
70 99.99
71 5.9
72 2.1
83 0.83
97 1.2
98 9
99 1

$$$$

     RDKit          2D

  7  6  0  0  0  0  0  0  0  0999 V2000
    1.6238    3.1875    0.0000 C   0  0  0  0  0  0  0  0  0  0  0  0
   -4.8714    3.9375    0.0000 C   0  0  0  0  0  0  0  0  0  0  0  0
    0.3248    3.9375    0.0000 C   0  0  0  0  0  0  0  0  0  0  0  0
   -0.9743    3.1875    0.0000 C   0  0  0  0  0  0  0  0  0  0  0  0
   -2.2733    3.9375    0.0000 C   0  0  0  0  0  0  0  0  0  0  0  0
   -3.5724    3.1875    0.0000 C   0  0  0  0  0  0  0  0  0  0  0  0
   -3.5724    1.6875    0.0000 O   0  0  0  0  0  0  0  0  0  0  0  0
  3  1  1  0
  4  3  1  0
  5  4  1  0
  6  2  1  0
  6  5  1  0
  7  6  1  0
M  END
>  <NAME>  (7257) 
2-HEXANOL

>  <SYNONYMS>  (7257) 
SEC-HEXYL ALCOHOL

>  <SPECTRUM TYPE>  (7257) 
MS1

>  <INSTRUMENT TYPE>  (7257) 
EI-B

>  <INSTRUMENT>  (7257) 
HITACHI RMU-6M

>  <ION MODE>  (7257) 
P

>  <INCHIKEY>  (7257) 
QNVRIHYSUZMSGM-UHFFFAOYSA-N

>  <FORMULA>  (7257) 
C6H14O

>  <EXACT MASS>  (7257) 
102.104465068

>  <MW>  (7257) 
102

>  <ID>  (7257) 
JP000282

>  <CONTRIBUTOR>  (7257) 
University of Tokyo Team, {Faculty of Engineering, University of Tokyo

>  <COMMENT>  (7257) 
SMILES=CCCCC(C)O
InChI=InChI=1S/C6H14O/c1-3-4-5-6(2)7/h6-7H,3-5H2,1-2H3
computed SMILES=OC(C)CCCC
accession=JP000282
date=2016.01.19 (Created 2008.10.21, modified 2011.05.06)
author=YAMAMOTO M, DEP. CHEMISTRY, FAC. SCIENCE, NARA WOMEN'S UNIV.
license=CC BY-NC-SA
exact mass=102.10447
ion type=[M]+*
ionization energy=70 eV
computed spectral entropy=1.8916359245066177
computed normalized entropy=0.6424435819152662
SPLASH=splash10-0002-9000000000-d2359b7e811b8b064741
submitter=submitter = University of Tokyo Team (Faculty of Engineering, University of Tokyo)
MoNA Rating=3.75

>  <NUM PEAKS>  (7257) 
19

>  <MASS SPECTRAL PEAKS>  (7257) 
15 2.2
19 1.7
27 8.6
29 0.49
31 2.1
39 6.8
40 1.1
41 1.6
42 4.5
43 18.3
44 7.1
45 99.99
46 2.2
55 1.8
56 5.4
57 0.51
69 16.4
84 5.6
87 6.3

$$$$

     RDKit          2D

  7  6  0  0  0  0  0  0  0  0999 V2000
    1.9486    3.3750    0.0000 C   0  0  0  0  0  0  0  0  0  0  0  0
    0.6495    4.1250    0.0000 C   0  0  0  0  0  0  0  0  0  0  0  0
   -0.6495    3.3750    0.0000 C   0  0  0  0  0  0  0  0  0  0  0  0
   -1.9486    4.1250    0.0000 C   0  0  0  0  0  0  0  0  0  0  0  0
   -3.2476    3.3750    0.0000 C   0  0  0  0  0  0  0  0  0  0  0  0
   -4.5466    4.1250    0.0000 C   0  0  0  0  0  0  0  0  0  0  0  0
   -5.8457    3.3750    0.0000 O   0  0  0  0  0  0  0  0  0  0  0  0
  2  1  1  0
  3  2  1  0
  4  3  1  0
  5  4  1  0
  6  5  1  0
  7  6  1  0
M  END
>  <NAME>  (7258) 
1-HEXANOL

>  <SYNONYMS>  (7258) 
HEXYL ALCOHOL

>  <SPECTRUM TYPE>  (7258) 
MS1

>  <INSTRUMENT TYPE>  (7258) 
EI-B

>  <INSTRUMENT>  (7258) 
HITACHI RMU-6M

>  <ION MODE>  (7258) 
P

>  <INCHIKEY>  (7258) 
ZSIAUFGUXNUGDI-UHFFFAOYSA-N

>  <FORMULA>  (7258) 
C6H14O

>  <EXACT MASS>  (7258) 
102.104465068

>  <MW>  (7258) 
102

>  <ID>  (7258) 
JP000281

>  <CONTRIBUTOR>  (7258) 
University of Tokyo Team, {Faculty of Engineering, University of Tokyo

>  <COMMENT>  (7258) 
SMILES=CCCCCCO
InChI=InChI=1S/C6H14O/c1-2-3-4-5-6-7/h7H,2-6H2,1H3
computed SMILES=OCCCCCC
computed normalized entropy=0.7196082967951432
accession=JP000281
date=2016.01.19 (Created 2008.10.21, modified 2011.05.06)
author=YAMAMOTO M, DEP. CHEMISTRY, FAC. SCIENCE, NARA WOMEN'S UNIV.
license=CC BY-NC-SA
exact mass=102.10447
ionization energy=70 eV
ion type=[M]+*
computed spectral entropy=2.3717115536600177
SPLASH=splash10-0a4l-9000000000-029ae838da9e13a0e457
submitter=submitter = University of Tokyo Team (Faculty of Engineering, University of Tokyo)
MoNA Rating=3.75

>  <NUM PEAKS>  (7258) 
27

>  <MASS SPECTRAL PEAKS>  (7258) 
15 1.8
19 1.1
26 1.6
27 2.22
28 5.3
29 23.9
31 29
39 1.4
40 2.9
41 45.4
42 43.4
43 5.94
44 2.1
45 3.2
53 2.1
54 0.27
55 48.9
56 99.99
57 6.7
67 0.1
69 28
70 3.3
71 1.6
73 0.14
83 1.5
84 12.9
85 1.4

$$$$

     RDKit          2D

  6  5  0  0  0  0  0  0  0  0999 V2000
    0.0000    0.0000    0.0000 C   0  0  0  0  0  0  0  0  0  0  0  0
   -0.5490    3.5490    0.0000 C   0  0  0  0  0  0  0  0  0  0  0  0
   -2.5981    3.0000    0.0000 C   0  0  0  0  0  0  0  0  0  0  0  0
    0.0000    1.5000    0.0000 C   0  0  0  0  0  0  0  0  0  0  0  0
   -1.2990    2.2500    0.0000 C   0  0  0  0  0  0  0  0  0  0  0  0
   -2.0490    0.9510    0.0000 O   0  0  0  0  0  0  0  0  0  0  0  0
  4  1  1  0
  5  2  1  0
  5  3  1  0
  5  4  1  0
  6  5  1  0
M  END
>  <NAME>  (7259) 
2-ETHYL-2-PROPANOL

>  <SYNONYMS>  (7259) 
TERT-AMYL ALCOHOL

>  <SPECTRUM TYPE>  (7259) 
MS1

>  <INSTRUMENT TYPE>  (7259) 
EI-B

>  <INSTRUMENT>  (7259) 
HITACHI RMU-6M

>  <ION MODE>  (7259) 
P

>  <INCHIKEY>  (7259) 
MSXVEPNJUHWQHW-UHFFFAOYSA-N

>  <FORMULA>  (7259) 
C5H12O

>  <EXACT MASS>  (7259) 
88.088815004

>  <MW>  (7259) 
88

>  <ID>  (7259) 
JP000280

>  <CONTRIBUTOR>  (7259) 
University of Tokyo Team, {Faculty of Engineering, University of Tokyo

>  <COMMENT>  (7259) 
SMILES=CCC(C)(C)O
InChI=InChI=1S/C5H12O/c1-4-5(2,3)6/h6H,4H2,1-3H3
computed SMILES=OC(C)(C)CC
accession=JP000280
date=2016.01.19 (Created 2008.10.21, modified 2011.05.06)
author=YAMAMOTO M, DEP. CHEMISTRY, FAC. SCIENCE, NARA WOMEN'S UNIV.
license=CC BY-NC-SA
exact mass=88.08882
ionization energy=70 eV
ion type=[M]+*
computed spectral entropy=2.157605798596272
computed normalized entropy=0.6789078831808362
SPLASH=splash10-0a4i-9000000000-e28240c1ea5d94b4b4df
submitter=submitter = University of Tokyo Team (Faculty of Engineering, University of Tokyo)
MoNA Rating=3.75

>  <NUM PEAKS>  (7259) 
24

>  <MASS SPECTRAL PEAKS>  (7259) 
15 5.3
26 1.9
27 13.7
28 0.19
29 11.5
31 29.7
38 1
39 0.87
40 1
41 17.1
42 2.1
43 1.87
45 10
53 1.7
55 38.1
56 0.18
57 1.9
58 1.6
59 99.99
60 0.33
70 1.3
71 5.7
72 58.9
74 2.6

$$$$

     RDKit          2D

  6  5  0  0  0  0  0  0  0  0999 V2000
    1.2990    2.2500    0.0000 C   0  0  0  0  0  0  0  0  0  0  0  0
   -1.2990    0.7500    0.0000 C   0  0  0  0  0  0  0  0  0  0  0  0
    0.0000    3.0000    0.0000 C   0  0  0  0  0  0  0  0  0  0  0  0
   -2.5981    3.0000    0.0000 C   0  0  0  0  0  0  0  0  0  0  0  0
   -1.2990    2.2500    0.0000 C   0  0  0  0  0  0  0  0  0  0  0  0
   -3.8971    2.2500    0.0000 O   0  0  0  0  0  0  0  0  0  0  0  0
  3  1  1  0
  5  2  1  0
  5  3  1  0
  5  4  1  0
  6  4  1  0
M  END
>  <NAME>  (7260) 
2-METHYL-1-BUTANOL

>  <SYNONYMS>  (7260) 
ACTIVE AMYL ALCOHOL

>  <SPECTRUM TYPE>  (7260) 
MS1

>  <INSTRUMENT TYPE>  (7260) 
EI-B

>  <INSTRUMENT>  (7260) 
HITACHI RMU-6M

>  <ION MODE>  (7260) 
P

>  <INCHIKEY>  (7260) 
QPRQEDXDYOZYLA-UHFFFAOYSA-N

>  <FORMULA>  (7260) 
C5H12O

>  <EXACT MASS>  (7260) 
88.088815004

>  <MW>  (7260) 
88

>  <ID>  (7260) 
JP000279

>  <CONTRIBUTOR>  (7260) 
University of Tokyo Team, {Faculty of Engineering, University of Tokyo

>  <COMMENT>  (7260) 
SMILES=CCC(C)CO
InChI=InChI=1S/C5H12O/c1-3-5(2)4-6/h5-6H,3-4H2,1-2H3
computed SMILES=OCC(C)CC
accession=JP000279
date=2016.01.19 (Created 2008.10.21, modified 2011.05.06)
author=YAMAMOTO M, DEP. CHEMISTRY, FAC. SCIENCE, NARA WOMEN'S UNIV.
license=CC BY-NC-SA
exact mass=88.08882
ionization energy=70 eV
ion type=[M]+*
computed spectral entropy=2.3150129067248257
computed normalized entropy=0.6947391433075951
SPLASH=splash10-0a4l-9000000000-4710deb4dee4bfd03754
submitter=submitter = University of Tokyo Team (Faculty of Engineering, University of Tokyo)
MoNA Rating=3.75

>  <NUM PEAKS>  (7260) 
28

>  <MASS SPECTRAL PEAKS>  (7260) 
15 2.8
19 1.2
26 3.1
27 2.76
28 7.2
29 76.8
30 2.2
31 4.08
33 2.1
38 1.8
39 20.5
40 0.31
41 99.6
42 17.8
43 13.7
45 0.75
50 1.5
51 2
52 1.5
53 0.31
55 28.2
56 96.1
57 99.99
58 0.46
59 3.8
69 1.3
70 46.6
71 3.8

$$$$

     RDKit          2D

  6  5  0  0  0  0  0  0  0  0999 V2000
    1.2990    2.2500    0.0000 C   0  0  0  0  0  0  0  0  0  0  0  0
   -3.8971    2.2500    0.0000 C   0  0  0  0  0  0  0  0  0  0  0  0
    0.0000    3.0000    0.0000 C   0  0  0  0  0  0  0  0  0  0  0  0
   -1.2990    2.2500    0.0000 C   0  0  0  0  0  0  0  0  0  0  0  0
   -2.5981    3.0000    0.0000 C   0  0  0  0  0  0  0  0  0  0  0  0
   -2.5981    4.5000    0.0000 O   0  0  0  0  0  0  0  0  0  0  0  0
  3  1  1  0
  4  3  1  0
  5  2  1  0
  5  4  1  0
  6  5  1  0
M  END
>  <NAME>  (7261) 
2-PENTANOL

>  <SYNONYMS>  (7261) 
SEC-AMYL ALCOHOL

>  <SPECTRUM TYPE>  (7261) 
MS1

>  <INSTRUMENT TYPE>  (7261) 
EI-B

>  <INSTRUMENT>  (7261) 
HITACHI RMU-6M

>  <ION MODE>  (7261) 
P

>  <INCHIKEY>  (7261) 
JYVLIDXNZAXMDK-UHFFFAOYSA-N

>  <FORMULA>  (7261) 
C5H12O

>  <EXACT MASS>  (7261) 
88.088815004

>  <MW>  (7261) 
88

>  <ID>  (7261) 
JP000278

>  <CONTRIBUTOR>  (7261) 
University of Tokyo Team, {Faculty of Engineering, University of Tokyo

>  <COMMENT>  (7261) 
SMILES=CCCC(C)O
InChI=InChI=1S/C5H12O/c1-3-4-5(2)6/h5-6H,3-4H2,1-2H3
computed SMILES=OC(C)CCC
accession=JP000278
date=2016.01.19 (Created 2008.10.21, modified 2011.05.06)
author=YAMAMOTO M, DEP. CHEMISTRY, FAC. SCIENCE, NARA WOMEN'S UNIV.
license=CC BY-NC-SA
exact mass=88.08882
ionization energy=70 eV
ion type=[M]+*
computed spectral entropy=1.8104419688131437
computed normalized entropy=0.639006579794374
SPLASH=splash10-0a4i-9000000000-19815e3dcbfcbbccaa40
submitter=submitter = University of Tokyo Team (Faculty of Engineering, University of Tokyo)
MoNA Rating=3.75

>  <NUM PEAKS>  (7261) 
17

>  <MASS SPECTRAL PEAKS>  (7261) 
15 1.8
26 1.8
27 10.8
28 0.32
29 9.9
30 1.4
31 48.1
39 0.48
41 24.7
42 2.6
43 3.3
45 0.4
55 2.7
57 5.5
58 9.6
59 99.99
60 3.7

$$$$

     RDKit          2D

  6  5  0  0  0  0  0  0  0  0999 V2000
    0.0000    0.0000    0.0000 C   0  0  0  0  0  0  0  0  0  0  0  0
    1.2990    2.2500    0.0000 C   0  0  0  0  0  0  0  0  0  0  0  0
   -1.2990    2.2500    0.0000 C   0  0  0  0  0  0  0  0  0  0  0  0
   -1.2990    3.7500    0.0000 C   0  0  0  0  0  0  0  0  0  0  0  0
    0.0000    1.5000    0.0000 C   0  0  0  0  0  0  0  0  0  0  0  0
   -2.5981    4.5000    0.0000 O   0  0  0  0  0  0  0  0  0  0  0  0
  4  3  1  0
  5  1  1  0
  5  2  1  0
  5  3  1  0
  6  4  1  0
M  END
>  <NAME>  (7262) 
3-METHYL-1-BUTANOL

>  <SYNONYMS>  (7262) 
ISO-AMYL ALCOHOL

>  <SPECTRUM TYPE>  (7262) 
MS1

>  <INSTRUMENT TYPE>  (7262) 
EI-B

>  <INSTRUMENT>  (7262) 
HITACHI RMU-6M

>  <ION MODE>  (7262) 
P

>  <INCHIKEY>  (7262) 
PHTQWCKDNZKARW-UHFFFAOYSA-N

>  <FORMULA>  (7262) 
C5H12O

>  <EXACT MASS>  (7262) 
88.088815004

>  <MW>  (7262) 
88

>  <ID>  (7262) 
JP000277

>  <CONTRIBUTOR>  (7262) 
University of Tokyo Team, {Faculty of Engineering, University of Tokyo

>  <COMMENT>  (7262) 
SMILES=OCCC(C)C
InChI=InChI=1S/C5H12O/c1-5(2)3-4-6/h5-6H,3-4H2,1-2H3
computed SMILES=OCCC(C)C
accession=JP000277
date=2016.01.19 (Created 2008.10.21, modified 2011.05.06)
author=YAMAMOTO M, DEP. CHEMISTRY, FAC. SCIENCE, NARA WOMEN'S UNIV.
license=CC BY-NC-SA
exact mass=88.08882
ionization energy=70 eV
ion type=[M]+*
computed spectral entropy=2.505670432494958
computed normalized entropy=0.7166209105648401
SPLASH=splash10-0a4l-9000000000-e1eb02399a8e4a0e1d71
submitter=submitter = University of Tokyo Team (Faculty of Engineering, University of Tokyo)
MoNA Rating=3.75

>  <NUM PEAKS>  (7262) 
33

>  <MASS SPECTRAL PEAKS>  (7262) 
15 4.5
19 3.2
26 3.5
27 3.85
28 14.2
29 63.3
30 1.6
31 4.83
32 2
33 1.3
38 2.4
39 2.97
40 5
41 99.99
42 76.5
43 5.76
44 3
45 17.5
46 6.1
47 0.13
50 1.8
51 2.1
53 3.8
54 0.18
55 90.1
56 54.3
57 65.1
58 0.33
59 2.5
60 1.2
69 4.9
70 7.79
71 5.9

$$$$

     RDKit          2D

  6  5  0  0  0  0  0  0  0  0999 V2000
   -4.5466    3.3750    0.0000 C   0  0  0  0  0  0  0  0  0  0  0  0
   -3.2476    2.6250    0.0000 C   0  0  0  0  0  0  0  0  0  0  0  0
   -1.9486    3.3750    0.0000 C   0  0  0  0  0  0  0  0  0  0  0  0
   -0.6495    2.6250    0.0000 C   0  0  0  0  0  0  0  0  0  0  0  0
    0.6495    3.3750    0.0000 C   0  0  0  0  0  0  0  0  0  0  0  0
    1.9486    2.6250    0.0000 O   0  0  0  0  0  0  0  0  0  0  0  0
  2  1  1  0
  3  2  1  0
  4  3  1  0
  5  4  1  0
  6  5  1  0
M  END
>  <NAME>  (7263) 
1-PENTANOL

>  <SYNONYMS>  (7263) 
AMYL ALCOHOL

>  <SPECTRUM TYPE>  (7263) 
MS1

>  <INSTRUMENT TYPE>  (7263) 
EI-B

>  <INSTRUMENT>  (7263) 
HITACHI RMU-6M

>  <ION MODE>  (7263) 
P

>  <INCHIKEY>  (7263) 
AMQJEAYHLZJPGS-UHFFFAOYSA-N

>  <FORMULA>  (7263) 
C5H12O

>  <EXACT MASS>  (7263) 
88.088815004

>  <MW>  (7263) 
88

>  <ID>  (7263) 
JP000276

>  <CONTRIBUTOR>  (7263) 
University of Tokyo Team, {Faculty of Engineering, University of Tokyo

>  <COMMENT>  (7263) 
SMILES=CCCCCO
InChI=InChI=1S/C5H12O/c1-2-3-4-5-6/h6H,2-5H2,1H3
computed SMILES=OCCCCC
accession=JP000276
date=2016.01.19 (Created 2008.10.21, modified 2011.05.06)
author=YAMAMOTO M, DEP. CHEMISTRY, FAC. SCIENCE, NARA WOMEN'S UNIV.
license=CC BY-NC-SA
exact mass=88.08882
ionization energy=70 eV
ion type=[M]+*
computed spectral entropy=2.4386751306772703
computed normalized entropy=0.7318503780997065
SPLASH=splash10-052f-9000000000-5244661275aa6b95b9a0
submitter=submitter = University of Tokyo Team (Faculty of Engineering, University of Tokyo)
MoNA Rating=3.75

>  <NUM PEAKS>  (7263) 
28

>  <MASS SPECTRAL PEAKS>  (7263) 
15 2.7
19 1.6
26 3.1
27 2.68
28 10.5
29 46.4
30 1.5
31 5.09
32 1.5
38 1.5
39 16.3
40 0.3
41 62.2
42 99.99
43 21.5
44 0.27
45 4.7
51 1
53 2.4
54 0.16
55 67.8
56 14.9
57 18.7
58 0.17
60 5.4
69 5.4
70 50.7
71 3.9

$$$$

     RDKit          2D

  5  4  0  0  0  0  0  0  0  0999 V2000
   -1.2990    0.7500    0.0000 C   0  0  0  0  0  0  0  0  0  0  0  0
    0.7500    0.2010    0.0000 C   0  0  0  0  0  0  0  0  0  0  0  0
    1.2990    2.2500    0.0000 C   0  0  0  0  0  0  0  0  0  0  0  0
    0.0000    1.5000    0.0000 C   0  0  0  0  0  0  0  0  0  0  0  0
   -0.7500    2.7990    0.0000 O   0  0  0  0  0  0  0  0  0  0  0  0
  4  1  1  0
  4  2  1  0
  4  3  1  0
  5  4  1  0
M  END
>  <NAME>  (7264) 
2-METHYL-2-PROPANOL

>  <SYNONYMS>  (7264) 
TERT-BUTYL ALCOHOL

>  <SPECTRUM TYPE>  (7264) 
MS1

>  <INSTRUMENT TYPE>  (7264) 
EI-B

>  <INSTRUMENT>  (7264) 
HITACHI RMU-6M

>  <ION MODE>  (7264) 
P

>  <INCHIKEY>  (7264) 
DKGAVHZHDRPRBM-UHFFFAOYSA-N

>  <FORMULA>  (7264) 
C4H10O

>  <EXACT MASS>  (7264) 
74.07316494

>  <MW>  (7264) 
74

>  <ID>  (7264) 
JP000275

>  <CONTRIBUTOR>  (7264) 
University of Tokyo Team, {Faculty of Engineering, University of Tokyo

>  <COMMENT>  (7264) 
SMILES=CC(C)(C)O
InChI=InChI=1S/C4H10O/c1-4(2,3)5/h5H,1-3H3
computed SMILES=OC(C)(C)C
accession=JP000275
date=2016.01.19 (Created 2008.10.21, modified 2011.05.06)
author=YAMAMOTO M, DEP. CHEMISTRY, FAC. SCIENCE, NARA WOMEN'S UNIV.
license=CC BY-NC-SA
exact mass=74.07316
ionization energy=70 eV
ion type=[M]+*
computed spectral entropy=1.7704450637407745
computed normalized entropy=0.63855307840629
SPLASH=splash10-0a4i-9000000000-71044e5a650abb3d5b60
submitter=submitter = University of Tokyo Team (Faculty of Engineering, University of Tokyo)
MoNA Rating=3.75

>  <NUM PEAKS>  (7264) 
16

>  <MASS SPECTRAL PEAKS>  (7264) 
15 5.8
26 1.4
27 6.9
28 0.11
29 7.9
31 35
38 1.3
39 0.74
41 21.4
42 2.1
43 13.1
55 0.14
56 1.4
57 9.3
59 99.99
60 3.4

$$$$

     RDKit          2D

  5  4  0  0  0  0  0  0  0  0999 V2000
   -0.0000   -0.0000    0.0000 C   0  0  0  0  0  0  0  0  0  0  0  0
   -1.2990    3.7500    0.0000 C   0  0  0  0  0  0  0  0  0  0  0  0
    0.0000    1.5000    0.0000 C   0  0  0  0  0  0  0  0  0  0  0  0
   -1.2990    2.2500    0.0000 C   0  0  0  0  0  0  0  0  0  0  0  0
   -2.5981    1.5000    0.0000 O   0  0  0  0  0  0  0  0  0  0  0  0
  3  1  1  0
  4  2  1  0
  4  3  1  0
  5  4  1  0
M  END
>  <NAME>  (7265) 
2-BUTANOL

>  <SYNONYMS>  (7265) 
SEC-BUTYL ALCOHOL

>  <SPECTRUM TYPE>  (7265) 
MS1

>  <INSTRUMENT TYPE>  (7265) 
EI-B

>  <INSTRUMENT>  (7265) 
HITACHI RMU-6M

>  <ION MODE>  (7265) 
P

>  <INCHIKEY>  (7265) 
BTANRVKWQNVYAZ-UHFFFAOYSA-N

>  <FORMULA>  (7265) 
C4H10O

>  <EXACT MASS>  (7265) 
74.07316494

>  <MW>  (7265) 
74

>  <ID>  (7265) 
JP000274

>  <CONTRIBUTOR>  (7265) 
University of Tokyo Team, {Faculty of Engineering, University of Tokyo

>  <COMMENT>  (7265) 
SMILES=CCC(C)O
InChI=InChI=1S/C4H10O/c1-3-4(2)5/h4-5H,3H2,1-2H3
computed SMILES=OC(C)CC
accession=JP000274
date=2016.01.19 (Created 2008.10.21, modified 2011.05.06)
author=YAMAMOTO M, DEP. CHEMISTRY, FAC. SCIENCE, NARA WOMEN'S UNIV.
license=CC BY-NC-SA
exact mass=74.07316
ionization energy=70 eV
ion type=[M]+*
computed spectral entropy=1.815828833959883
computed normalized entropy=0.6705299751167161
SPLASH=splash10-0002-9000000000-69a1867b969261fbdf06
submitter=submitter = University of Tokyo Team (Faculty of Engineering, University of Tokyo)
MoNA Rating=3.75

>  <NUM PEAKS>  (7265) 
15

>  <MASS SPECTRAL PEAKS>  (7265) 
15 3.4
19 4.8
26 2.5
27 1.35
28 5.3
29 7.2
31 20.3
39 0.39
41 12.7
43 9.9
44 10
45 99.99
59 21.5
73 1.5
74 0.6

$$$$

     RDKit          2D

  5  4  0  0  0  0  0  0  0  0999 V2000
    0.0000    0.0000    0.0000 C   0  0  0  0  0  0  0  0  0  0  0  0
    1.2990    2.2500    0.0000 C   0  0  0  0  0  0  0  0  0  0  0  0
   -1.2990    2.2500    0.0000 C   0  0  0  0  0  0  0  0  0  0  0  0
    0.0000    1.5000    0.0000 C   0  0  0  0  0  0  0  0  0  0  0  0
   -1.2990    3.7500    0.0000 O   0  0  0  0  0  0  0  0  0  0  0  0
  4  1  1  0
  4  2  1  0
  4  3  1  0
  5  3  1  0
M  END
>  <NAME>  (7266) 
2-METHYL-1-PROPANOL

>  <SYNONYMS>  (7266) 
ISO-BUTYL ALCOHOL

>  <SPECTRUM TYPE>  (7266) 
MS1

>  <INSTRUMENT TYPE>  (7266) 
EI-B

>  <INSTRUMENT>  (7266) 
HITACHI RMU-6M

>  <ION MODE>  (7266) 
P

>  <INCHIKEY>  (7266) 
ZXEKIIBDNHEJCQ-UHFFFAOYSA-N

>  <FORMULA>  (7266) 
C4H10O

>  <EXACT MASS>  (7266) 
74.07316494

>  <MW>  (7266) 
74

>  <ID>  (7266) 
JP000273

>  <CONTRIBUTOR>  (7266) 
University of Tokyo Team, {Faculty of Engineering, University of Tokyo

>  <COMMENT>  (7266) 
SMILES=OCC(C)C
InChI=InChI=1S/C4H10O/c1-4(2)3-5/h4-5H,3H2,1-2H3
computed SMILES=OCC(C)C
accession=JP000273
date=2016.01.19 (Created 2008.10.21, modified 2011.05.06)
author=YAMAMOTO M, DEP. CHEMISTRY, FAC. SCIENCE, NARA WOMEN'S UNIV.
license=CC BY-NC-SA
exact mass=74.07316
ionization energy=70 eV
ion type=[M]+*
computed spectral entropy=2.227620228983012
computed normalized entropy=0.7009384824482735
SPLASH=splash10-0006-9000000000-7f721031d45407da0ffa
submitter=submitter = University of Tokyo Team (Faculty of Engineering, University of Tokyo)
MoNA Rating=3.75

>  <NUM PEAKS>  (7266) 
24

>  <MASS SPECTRAL PEAKS>  (7266) 
15 3.3
26 3
27 35.3
28 0.47
29 11.1
31 52.6
32 1.5
33 5.88
37 1.5
38 2.9
39 19
40 0.36
41 65.5
42 63.6
43 99.99
44 0.34
45 2.5
53 1
55 3
56 0.48
57 3.2
59 3.8
73 2.2
74 14

$$$$

     RDKit          2D

  5  4  0  0  0  0  0  0  0  0999 V2000
   -3.8971    2.2500    0.0000 C   0  0  0  0  0  0  0  0  0  0  0  0
   -2.5981    1.5000    0.0000 C   0  0  0  0  0  0  0  0  0  0  0  0
   -1.2990    2.2500    0.0000 C   0  0  0  0  0  0  0  0  0  0  0  0
    0.0000    1.5000    0.0000 C   0  0  0  0  0  0  0  0  0  0  0  0
    1.2990    2.2500    0.0000 O   0  0  0  0  0  0  0  0  0  0  0  0
  2  1  1  0
  3  2  1  0
  4  3  1  0
  5  4  1  0
M  END
>  <NAME>  (7267) 
1-BUTANOL

>  <SYNONYMS>  (7267) 
BUTYL ALCOHOL

>  <SPECTRUM TYPE>  (7267) 
MS1

>  <INSTRUMENT TYPE>  (7267) 
EI-B

>  <INSTRUMENT>  (7267) 
HITACHI RMU-6M

>  <ION MODE>  (7267) 
P

>  <INCHIKEY>  (7267) 
LRHPLDYGYMQRHN-UHFFFAOYSA-N

>  <FORMULA>  (7267) 
C4H10O

>  <EXACT MASS>  (7267) 
74.07316494

>  <MW>  (7267) 
74

>  <ID>  (7267) 
JP000272

>  <CONTRIBUTOR>  (7267) 
University of Tokyo Team, {Faculty of Engineering, University of Tokyo

>  <COMMENT>  (7267) 
SMILES=CCCCO
InChI=InChI=1S/C4H10O/c1-2-3-4-5/h5H,2-4H2,1H3
computed SMILES=OCCCC
accession=JP000272
date=2016.01.19 (Created 2008.10.21, modified 2011.05.06)
author=YAMAMOTO M, DEP. CHEMISTRY, FAC. SCIENCE, NARA WOMEN'S UNIV.
license=CC BY-NC-SA
exact mass=74.07316
ionization energy=70 eV
ion type=[M]+*
computed spectral entropy=2.330571176161954
computed normalized entropy=0.7071257683294853
SPLASH=splash10-052f-9000000000-f8337e5e053a4d17e4ed
submitter=submitter = University of Tokyo Team (Faculty of Engineering, University of Tokyo)
MoNA Rating=3.75

>  <NUM PEAKS>  (7267) 
27

>  <MASS SPECTRAL PEAKS>  (7267) 
15 4.2
19 3.5
26 4.4
27 3.99
28 13.8
29 18
30 1.2
31 8.36
32 1.8
33 8.2
37 1.3
38 0.24
39 15.4
40 4.9
41 70.6
42 3.19
43 55.2
44 2.3
45 6.5
50 0.11
51 1
53 1.3
55 14.4
56 99.99
57 5.8
73 1.8
74 1.3

$$$$

     RDKit          2D

  4  3  0  0  0  0  0  0  0  0999 V2000
    0.9743    0.5625    0.0000 C   0  0  0  0  0  0  0  0  0  0  0  0
   -1.6238    0.5625    0.0000 C   0  0  0  0  0  0  0  0  0  0  0  0
   -0.3248    1.3125    0.0000 C   0  0  0  0  0  0  0  0  0  0  0  0
   -0.3248    2.8125    0.0000 O   0  0  0  0  0  0  0  0  0  0  0  0
  3  1  1  0
  3  2  1  0
  4  3  1  0
M  END
>  <NAME>  (7268) 
2-PROPANOL

>  <SYNONYMS>  (7268) 
ISO-PROPYL ALCOHOL

>  <SPECTRUM TYPE>  (7268) 
MS1

>  <INSTRUMENT TYPE>  (7268) 
EI-B

>  <INSTRUMENT>  (7268) 
HITACHI RMU-6M

>  <ION MODE>  (7268) 
P

>  <INCHIKEY>  (7268) 
KFZMGEQAYNKOFK-UHFFFAOYSA-N

>  <FORMULA>  (7268) 
C3H8O

>  <EXACT MASS>  (7268) 
60.057514876

>  <MW>  (7268) 
60

>  <ID>  (7268) 
JP000271

>  <CONTRIBUTOR>  (7268) 
University of Tokyo Team, {Faculty of Engineering, University of Tokyo

>  <COMMENT>  (7268) 
SMILES=CC(C)O
InChI=InChI=1S/C3H8O/c1-3(2)4/h3-4H,1-2H3
computed SMILES=OC(C)C
accession=JP000271
date=2016.01.19 (Created 2008.10.21, modified 2011.05.06)
author=YAMAMOTO M, DEP. CHEMISTRY, FAC. SCIENCE, NARA WOMEN'S UNIV.
license=CC BY-NC-SA
exact mass=60.05751
ionization energy=70 eV
ion type=[M]+*
computed spectral entropy=1.7316544218950993
computed normalized entropy=0.5881101405556465
SPLASH=splash10-0002-9000000000-b56f808ef55c854e8324
submitter=submitter = University of Tokyo Team (Faculty of Engineering, University of Tokyo)
MoNA Rating=3.75

>  <NUM PEAKS>  (7268) 
19

>  <MASS SPECTRAL PEAKS>  (7268) 
14 1.6
15 5.7
19 7.5
26 0.16
27 12.7
28 3.7
29 7.9
31 0.55
37 1
38 1.6
39 5.3
41 0.69
42 2
43 10.9
44 4.2
45 99.99
46 2.3
59 3.7
60 0.7

$$$$

     RDKit          2D

  4  3  0  0  0  0  0  0  0  0999 V2000
   -2.5981    2.2500    0.0000 C   0  0  0  0  0  0  0  0  0  0  0  0
   -1.2990    1.5000    0.0000 C   0  0  0  0  0  0  0  0  0  0  0  0
    0.0000    2.2500    0.0000 C   0  0  0  0  0  0  0  0  0  0  0  0
    1.2990    1.5000    0.0000 O   0  0  0  0  0  0  0  0  0  0  0  0
  2  1  1  0
  3  2  1  0
  4  3  1  0
M  END
>  <NAME>  (7269) 
1-PROPANOL

>  <SYNONYMS>  (7269) 
PROPYL ALCOHOL

>  <SPECTRUM TYPE>  (7269) 
MS1

>  <INSTRUMENT TYPE>  (7269) 
EI-B

>  <INSTRUMENT>  (7269) 
HITACHI RMU-6M

>  <ION MODE>  (7269) 
P

>  <INCHIKEY>  (7269) 
BDERNNFJNOPAEC-UHFFFAOYSA-N

>  <FORMULA>  (7269) 
C3H8O

>  <EXACT MASS>  (7269) 
60.057514876

>  <MW>  (7269) 
60

>  <ID>  (7269) 
JP000270

>  <CONTRIBUTOR>  (7269) 
University of Tokyo Team, {Faculty of Engineering, University of Tokyo

>  <COMMENT>  (7269) 
SMILES=CCCO
InChI=InChI=1S/C3H8O/c1-2-3-4/h4H,2-3H2,1H3
computed SMILES=OCCC
accession=JP000270
date=2016.01.19 (Created 2008.10.21, modified 2011.05.06)
author=YAMAMOTO M, DEP. CHEMISTRY, FAC. SCIENCE, NARA WOMEN'S UNIV.
license=CC BY-NC-SA
exact mass=60.05751
ionization energy=70 eV
ion type=[M]+*
computed spectral entropy=1.6906019069101264
computed normalized entropy=0.5849081185808004
SPLASH=splash10-001i-9000000000-b16d56b3c4fc95e00c56
submitter=submitter = University of Tokyo Team (Faculty of Engineering, University of Tokyo)
MoNA Rating=3.75

>  <NUM PEAKS>  (7269) 
18

>  <MASS SPECTRAL PEAKS>  (7269) 
15 2.2
26 3.4
27 12.9
28 0.45
29 7.2
30 1.7
31 99.99
32 0.22
33 1.1
38 1.2
39 4.2
40 0.1
41 6.9
42 10.9
43 2.1
45 0.16
59 10.6
60 9.3

$$$$

     RDKit          2D

  8  7  0  0  0  0  0  0  0  0999 V2000
    1.9486    3.3750    0.0000 C   0  0  0  0  0  0  0  0  0  0  0  0
   -5.8457    3.3750    0.0000 C   0  0  0  0  0  0  0  0  0  0  0  0
    0.6495    4.1250    0.0000 C   0  0  0  0  0  0  0  0  0  0  0  0
   -4.5466    4.1250    0.0000 C   0  0  0  0  0  0  0  0  0  0  0  0
   -0.6495    3.3750    0.0000 C   0  0  0  0  0  0  0  0  0  0  0  0
   -3.2476    3.3750    0.0000 C   0  0  0  0  0  0  0  0  0  0  0  0
   -1.9486    4.1250    0.0000 C   0  0  0  0  0  0  0  0  0  0  0  0
   -1.9486    5.6250    0.0000 O   0  0  0  0  0  0  0  0  0  0  0  0
  3  1  1  0
  4  2  1  0
  5  3  1  0
  6  4  1  0
  7  5  1  0
  7  6  1  0
  8  7  2  0
M  END
>  <NAME>  (7270) 
4-HEPTANONE

>  <SYNONYMS>  (7270) 
DIPROPYL KETONE

>  <SPECTRUM TYPE>  (7270) 
MS1

>  <INSTRUMENT TYPE>  (7270) 
EI-B

>  <INSTRUMENT>  (7270) 
HITACHI RMU-6M

>  <ION MODE>  (7270) 
P

>  <INCHIKEY>  (7270) 
HCFAJYNVAYBARA-UHFFFAOYSA-N

>  <FORMULA>  (7270) 
C7H14O

>  <EXACT MASS>  (7270) 
114.104465068

>  <MW>  (7270) 
114

>  <ID>  (7270) 
JP000269

>  <CONTRIBUTOR>  (7270) 
University of Tokyo Team, {Faculty of Engineering, University of Tokyo

>  <COMMENT>  (7270) 
SMILES=CCCC(=O)CCC
InChI=InChI=1S/C7H14O/c1-3-5-7(8)6-4-2/h3-6H2,1-2H3
computed SMILES=O=C(CCC)CCC
accession=JP000269
date=2016.01.19 (Created 2008.10.21, modified 2011.05.06)
author=YAMAMOTO M, DEP. CHEMISTRY, FAC. SCIENCE, NARA WOMEN'S UNIV.
license=CC BY-NC-SA
exact mass=114.10447
ionization energy=70 eV
ion type=[M]+*
computed spectral entropy=1.8113139719171079
computed normalized entropy=0.5949419027016726
SPLASH=splash10-0006-9000000000-87f6dc51de91b8902d69
submitter=submitter = University of Tokyo Team (Faculty of Engineering, University of Tokyo)
MoNA Rating=3.75

>  <NUM PEAKS>  (7270) 
21

>  <MASS SPECTRAL PEAKS>  (7270) 
15 2.2
26 1.5
27 21.7
28 0.31
29 3.7
39 10.5
40 1.5
41 2.33
42 4.2
43 99.99
44 3.4
55 0.26
57 2.1
58 6.8
70 1.5
71 8.54
72 4
86 1.4
99 2.2
114 1.5
115 1.5

$$$$

     RDKit          2D

  8  7  0  0  0  0  0  0  0  0999 V2000
    1.9486    3.3750    0.0000 C   0  0  0  0  0  0  0  0  0  0  0  0
   -5.8457    3.3750    0.0000 C   0  0  0  0  0  0  0  0  0  0  0  0
    0.6495    4.1250    0.0000 C   0  0  0  0  0  0  0  0  0  0  0  0
   -4.5466    4.1250    0.0000 C   0  0  0  0  0  0  0  0  0  0  0  0
   -0.6495    3.3750    0.0000 C   0  0  0  0  0  0  0  0  0  0  0  0
   -1.9486    4.1250    0.0000 C   0  0  0  0  0  0  0  0  0  0  0  0
   -3.2476    3.3750    0.0000 C   0  0  0  0  0  0  0  0  0  0  0  0
   -3.2476    1.8750    0.0000 O   0  0  0  0  0  0  0  0  0  0  0  0
  3  1  1  0
  4  2  1  0
  5  3  1  0
  6  5  1  0
  7  4  1  0
  7  6  1  0
  8  7  2  0
M  END
>  <NAME>  (7271) 
3-HEPTANONE

>  <SYNONYMS>  (7271) 
ETHYL BUTYL KETONE

>  <SPECTRUM TYPE>  (7271) 
MS1

>  <INSTRUMENT TYPE>  (7271) 
EI-B

>  <INSTRUMENT>  (7271) 
HITACHI RMU-6M

>  <ION MODE>  (7271) 
P

>  <INCHIKEY>  (7271) 
NGAZZOYFWWSOGK-UHFFFAOYSA-N

>  <FORMULA>  (7271) 
C7H14O

>  <EXACT MASS>  (7271) 
114.104465068

>  <MW>  (7271) 
114

>  <ID>  (7271) 
JP000268

>  <CONTRIBUTOR>  (7271) 
University of Tokyo Team, {Faculty of Engineering, University of Tokyo

>  <COMMENT>  (7271) 
SMILES=CCCCC(=O)CC
InChI=InChI=1S/C7H14O/c1-3-5-6-7(8)4-2/h3-6H2,1-2H3
computed SMILES=O=C(CC)CCCC
accession=JP000268
date=2016.01.19 (Created 2008.10.21, modified 2011.05.06)
author=YAMAMOTO M, DEP. CHEMISTRY, FAC. SCIENCE, NARA WOMEN'S UNIV.
license=CC BY-NC-SA
exact mass=114.10447
ionization energy=70 eV
ion type=[M]+*
computed spectral entropy=2.103862827435047
computed normalized entropy=0.6536017361033775
SPLASH=splash10-056r-9000000000-4e65dc079db33fe23a4b
submitter=submitter = University of Tokyo Team (Faculty of Engineering, University of Tokyo)
MoNA Rating=3.75

>  <NUM PEAKS>  (7271) 
25

>  <MASS SPECTRAL PEAKS>  (7271) 
15 2.2
26 3.6
27 32
28 1.21
29 85.8
30 1.9
31 1.1
39 1.17
40 1.5
41 40.5
42 3.9
43 2.04
51 1.2
53 1.9
55 4.3
56 0.36
57 99.99
58 4.9
59 2.4
71 3.5
72 3.69
86 54.3
87 3.4
114 2.4
115 2.7

$$$$

     RDKit          2D

  7  6  0  0  0  0  0  0  0  0999 V2000
    1.9486    2.6250    0.0000 C   0  0  0  0  0  0  0  0  0  0  0  0
   -4.5466    3.3750    0.0000 C   0  0  0  0  0  0  0  0  0  0  0  0
    0.6495    3.3750    0.0000 C   0  0  0  0  0  0  0  0  0  0  0  0
   -3.2476    2.6250    0.0000 C   0  0  0  0  0  0  0  0  0  0  0  0
   -0.6495    2.6250    0.0000 C   0  0  0  0  0  0  0  0  0  0  0  0
   -1.9486    3.3750    0.0000 C   0  0  0  0  0  0  0  0  0  0  0  0
   -1.9486    4.8750    0.0000 O   0  0  0  0  0  0  0  0  0  0  0  0
  3  1  1  0
  4  2  1  0
  5  3  1  0
  6  4  1  0
  6  5  1  0
  7  6  2  0
M  END
>  <NAME>  (7272) 
3-HEXANONE

>  <SYNONYMS>  (7272) 
ETHYL PROPYL KETONE

>  <SPECTRUM TYPE>  (7272) 
MS1

>  <INSTRUMENT TYPE>  (7272) 
EI-B

>  <INSTRUMENT>  (7272) 
HITACHI RMU-6M

>  <ION MODE>  (7272) 
P

>  <INCHIKEY>  (7272) 
PFCHFHIRKBAQGU-UHFFFAOYSA-N

>  <FORMULA>  (7272) 
C6H12O

>  <EXACT MASS>  (7272) 
100.088815004

>  <MW>  (7272) 
100

>  <ID>  (7272) 
JP000267

>  <CONTRIBUTOR>  (7272) 
University of Tokyo Team, {Faculty of Engineering, University of Tokyo

>  <COMMENT>  (7272) 
SMILES=CCCC(=O)CC
InChI=InChI=1S/C6H12O/c1-3-5-6(7)4-2/h3-5H2,1-2H3
computed SMILES=O=C(CC)CCC
accession=JP000267
date=2016.01.19 (Created 2008.10.21, modified 2011.05.06)
author=YAMAMOTO M, DEP. CHEMISTRY, FAC. SCIENCE, NARA WOMEN'S UNIV.
license=CC BY-NC-SA
exact mass=100.08882
ionization energy=70 eV
ion type=[M]+*
computed spectral entropy=2.1276321755042673
computed normalized entropy=0.6609860992669343
SPLASH=splash10-054o-9000000000-5f5fc7b9733f9b4cffbb
submitter=submitter = University of Tokyo Team (Faculty of Engineering, University of Tokyo)
MoNA Rating=3.75

>  <NUM PEAKS>  (7272) 
25

>  <MASS SPECTRAL PEAKS>  (7272) 
15 3.3
26 4.8
27 39.2
28 0.91
29 67.6
30 1.6
31 1
38 0.16
39 12.3
40 1.6
41 26
42 0.53
43 99.99
44 3.6
53 1.5
55 0.32
56 2.7
57 98.7
58 3.9
71 5.98
72 6.1
85 3.1
86 4.5
100 2.76
101 2.7

$$$$

     RDKit          2D

  6  5  0  0  0  0  0  0  0  0999 V2000
    1.2990    2.2500    0.0000 C   0  0  0  0  0  0  0  0  0  0  0  0
   -3.8971    2.2500    0.0000 C   0  0  0  0  0  0  0  0  0  0  0  0
    0.0000    3.0000    0.0000 C   0  0  0  0  0  0  0  0  0  0  0  0
   -2.5981    3.0000    0.0000 C   0  0  0  0  0  0  0  0  0  0  0  0
   -1.2990    2.2500    0.0000 C   0  0  0  0  0  0  0  0  0  0  0  0
   -1.2990    0.7500    0.0000 O   0  0  0  0  0  0  0  0  0  0  0  0
  3  1  1  0
  4  2  1  0
  5  3  1  0
  5  4  1  0
  6  5  2  0
M  END
>  <NAME>  (7273) 
3-PENTANONE

>  <SYNONYMS>  (7273) 
DIETHYL KETONE

>  <SPECTRUM TYPE>  (7273) 
MS1

>  <INSTRUMENT TYPE>  (7273) 
EI-B

>  <INSTRUMENT>  (7273) 
HITACHI RMU-6M

>  <ION MODE>  (7273) 
P

>  <INCHIKEY>  (7273) 
FDPIMTJIUBPUKL-UHFFFAOYSA-N

>  <FORMULA>  (7273) 
C5H10O

>  <EXACT MASS>  (7273) 
86.07316494

>  <MW>  (7273) 
86

>  <ID>  (7273) 
JP000266

>  <CONTRIBUTOR>  (7273) 
University of Tokyo Team, {Faculty of Engineering, University of Tokyo

>  <COMMENT>  (7273) 
SMILES=CCC(=O)CC
InChI=InChI=1S/C5H10O/c1-3-5(6)4-2/h3-4H2,1-2H3
computed SMILES=O=C(CC)CC
accession=JP000266
date=2016.01.19 (Created 2008.10.21, modified 2011.05.06)
author=YAMAMOTO M, DEP. CHEMISTRY, FAC. SCIENCE, NARA WOMEN'S UNIV.
license=CC BY-NC-SA
exact mass=86.07316
ionization energy=70 eV
ion type=[M]+*
computed spectral entropy=1.5876259676861264
computed normalized entropy=0.572615027591829
SPLASH=splash10-056r-9000000000-7d83e3628aaaa93df5bc
submitter=submitter = University of Tokyo Team (Faculty of Engineering, University of Tokyo)
MoNA Rating=3.75

>  <NUM PEAKS>  (7273) 
16

>  <MASS SPECTRAL PEAKS>  (7273) 
15 1.4
26 5
27 22.8
28 0.72
29 78.1
30 1.8
39 2.2
41 0.2
42 2.7
43 2.2
55 1.3
56 0.27
57 99.99
58 3.5
86 19.8
87 1.5

$$$$

     RDKit          2D

 10  9  0  0  0  0  0  0  0  0999 V2000
    2.5981    4.5000    0.0000 C   0  0  0  0  0  0  0  0  0  0  0  0
   -7.7942    4.5000    0.0000 C   0  0  0  0  0  0  0  0  0  0  0  0
    1.2990    5.2500    0.0000 C   0  0  0  0  0  0  0  0  0  0  0  0
    0.0000    4.5000    0.0000 C   0  0  0  0  0  0  0  0  0  0  0  0
   -1.2990    5.2500    0.0000 C   0  0  0  0  0  0  0  0  0  0  0  0
   -2.5981    4.5000    0.0000 C   0  0  0  0  0  0  0  0  0  0  0  0
   -3.8971    5.2500    0.0000 C   0  0  0  0  0  0  0  0  0  0  0  0
   -5.1962    4.5000    0.0000 C   0  0  0  0  0  0  0  0  0  0  0  0
   -6.4952    5.2500    0.0000 C   0  0  0  0  0  0  0  0  0  0  0  0
   -6.4952    6.7500    0.0000 O   0  0  0  0  0  0  0  0  0  0  0  0
  3  1  1  0
  4  3  1  0
  5  4  1  0
  6  5  1  0
  7  6  1  0
  8  7  1  0
  9  2  1  0
  9  8  1  0
 10  9  2  0
M  END
>  <NAME>  (7274) 
2-NONANONE

>  <SYNONYMS>  (7274) 
METHYL HEPTYL KETONE

>  <SPECTRUM TYPE>  (7274) 
MS1

>  <INSTRUMENT TYPE>  (7274) 
EI-B

>  <INSTRUMENT>  (7274) 
HITACHI RMU-6M

>  <ION MODE>  (7274) 
P

>  <INCHIKEY>  (7274) 
VKCYHJWLYTUGCC-UHFFFAOYSA-N

>  <FORMULA>  (7274) 
C9H18O

>  <EXACT MASS>  (7274) 
142.135765196

>  <MW>  (7274) 
142

>  <ID>  (7274) 
JP000265

>  <CONTRIBUTOR>  (7274) 
University of Tokyo Team, {Faculty of Engineering, University of Tokyo

>  <COMMENT>  (7274) 
SMILES=CCCCCCCC(C)=O
InChI=InChI=1S/C9H18O/c1-3-4-5-6-7-8-9(2)10/h3-8H2,1-2H3
computed SMILES=O=C(C)CCCCCCC
accession=JP000265
date=2016.01.19 (Created 2008.10.21, modified 2011.05.06)
author=YAMAMOTO M, DEP. CHEMISTRY, FAC. SCIENCE, NARA WOMEN'S UNIV.
license=CC BY-NC-SA
exact mass=142.13577
ionization energy=70 eV
ion type=[M]+*
computed spectral entropy=2.4401284708986246
computed normalized entropy=0.6863261848620248
SPLASH=splash10-0a4l-9000000000-0fe4be17f047f1cbaf58
submitter=submitter = University of Tokyo Team (Faculty of Engineering, University of Tokyo)
MoNA Rating=3.75

>  <NUM PEAKS>  (7274) 
35

>  <MASS SPECTRAL PEAKS>  (7274) 
14 1.1
15 4.6
27 12.2
28 0.29
29 14.1
39 8.9
40 1.6
41 2.26
42 5.5
43 80.9
44 1.9
53 0.2
55 8.9
56 4.2
57 22.9
58 99.99
59 24.6
67 2.7
68 1.2
69 0.21
70 1.2
71 19.9
72 2.2
82 0.41
83 1
85 4.4
86 4.5
87 0.14
95 1.2
99 2.5
100 2.4
113 0.14
127 3
142 9.4
143 1.2

$$$$

     RDKit          2D

  9  8  0  0  0  0  0  0  0  0999 V2000
   -7.4695    3.9375    0.0000 C   0  0  0  0  0  0  0  0  0  0  0  0
    1.6238    3.1875    0.0000 C   0  0  0  0  0  0  0  0  0  0  0  0
   -6.1704    3.1875    0.0000 C   0  0  0  0  0  0  0  0  0  0  0  0
   -4.8714    3.9375    0.0000 C   0  0  0  0  0  0  0  0  0  0  0  0
   -3.5724    3.1875    0.0000 C   0  0  0  0  0  0  0  0  0  0  0  0
   -2.2733    3.9375    0.0000 C   0  0  0  0  0  0  0  0  0  0  0  0
   -0.9743    3.1875    0.0000 C   0  0  0  0  0  0  0  0  0  0  0  0
    0.3248    3.9375    0.0000 C   0  0  0  0  0  0  0  0  0  0  0  0
    0.3248    5.4375    0.0000 O   0  0  0  0  0  0  0  0  0  0  0  0
  3  1  1  0
  4  3  1  0
  5  4  1  0
  6  5  1  0
  7  6  1  0
  8  2  1  0
  8  7  1  0
  9  8  2  0
M  END
>  <NAME>  (7275) 
2-OCTANONE

>  <SYNONYMS>  (7275) 
METHYL HEXYL KETONE

>  <SPECTRUM TYPE>  (7275) 
MS1

>  <INSTRUMENT TYPE>  (7275) 
EI-B

>  <INSTRUMENT>  (7275) 
HITACHI RMU-6M

>  <ION MODE>  (7275) 
P

>  <INCHIKEY>  (7275) 
ZPVFWPFBNIEHGJ-UHFFFAOYSA-N

>  <FORMULA>  (7275) 
C8H16O

>  <EXACT MASS>  (7275) 
128.120115132

>  <MW>  (7275) 
128

>  <ID>  (7275) 
JP000264

>  <CONTRIBUTOR>  (7275) 
University of Tokyo Team, {Faculty of Engineering, University of Tokyo

>  <COMMENT>  (7275) 
SMILES=CCCCCCC(C)=O
InChI=InChI=1S/C8H16O/c1-3-4-5-6-7-8(2)9/h3-7H2,1-2H3
computed SMILES=O=C(C)CCCCCC
accession=JP000264
date=2016.01.19 (Created 2008.10.21, modified 2011.05.06)
author=YAMAMOTO M, DEP. CHEMISTRY, FAC. SCIENCE, NARA WOMEN'S UNIV.
license=CC BY-NC-SA
exact mass=128.12012
ionization energy=70 eV
ion type=[M]+*
computed spectral entropy=2.2054119318547505
computed normalized entropy=0.6422306783712682
SPLASH=splash10-0a4l-9000000000-eb76e1a919e8ba73aebc
submitter=submitter = University of Tokyo Team (Faculty of Engineering, University of Tokyo)
MoNA Rating=3.75

>  <NUM PEAKS>  (7275) 
31

>  <MASS SPECTRAL PEAKS>  (7275) 
15 5.6
26 1
27 13.5
28 0.34
29 10.7
39 9.1
40 1.6
41 1.92
42 3.6
43 90.7
44 2.3
45 0.19
53 1.6
55 4.6
56 1.7
57 0.48
58 99.99
59 20.1
67 1.1
68 0.22
69 1.6
70 3.3
71 17.3
72 0.25
85 6.3
86 1.9
95 1
99 0.1
113 4.3
128 11.2
129 1.5

$$$$

     RDKit          2D

  8  7  0  0  0  0  0  0  0  0999 V2000
    0.0000    0.0000    0.0000 C   0  0  0  0  0  0  0  0  0  0  0  0
    1.2990    2.2500    0.0000 C   0  0  0  0  0  0  0  0  0  0  0  0
   -2.5981    6.0000    0.0000 C   0  0  0  0  0  0  0  0  0  0  0  0
   -1.2990    2.2500    0.0000 C   0  0  0  0  0  0  0  0  0  0  0  0
   -1.2990    3.7500    0.0000 C   0  0  0  0  0  0  0  0  0  0  0  0
    0.0000    1.5000    0.0000 C   0  0  0  0  0  0  0  0  0  0  0  0
   -2.5981    4.5000    0.0000 C   0  0  0  0  0  0  0  0  0  0  0  0
   -3.8971    3.7500    0.0000 O   0  0  0  0  0  0  0  0  0  0  0  0
  5  4  1  0
  6  1  1  0
  6  2  1  0
  6  4  1  0
  7  3  1  0
  7  5  1  0
  8  7  2  0
M  END
>  <NAME>  (7276) 
5-METHYL-2-HEXANONE

>  <SYNONYMS>  (7276) 
METHYL ISOAMYL KETONE

>  <SPECTRUM TYPE>  (7276) 
MS1

>  <INSTRUMENT TYPE>  (7276) 
EI-B

>  <INSTRUMENT>  (7276) 
HITACHI RMU-6M

>  <ION MODE>  (7276) 
P

>  <INCHIKEY>  (7276) 
FFWSICBKRCICMR-UHFFFAOYSA-N

>  <FORMULA>  (7276) 
C7H14O

>  <EXACT MASS>  (7276) 
114.104465068

>  <MW>  (7276) 
114

>  <ID>  (7276) 
JP000263

>  <CONTRIBUTOR>  (7276) 
University of Tokyo Team, {Faculty of Engineering, University of Tokyo

>  <COMMENT>  (7276) 
SMILES=CC(C)CCC(C)=O
InChI=InChI=1S/C7H14O/c1-6(2)4-5-7(3)8/h6H,4-5H2,1-3H3
computed SMILES=O=C(C)CCC(C)C
accession=JP000263
date=2016.01.19 (Created 2008.10.21, modified 2011.05.06)
author=YAMAMOTO M, DEP. CHEMISTRY, FAC. SCIENCE, NARA WOMEN'S UNIV.
license=CC BY-NC-SA
exact mass=114.10447
ionization energy=70 eV
ion type=[M]+*
computed spectral entropy=2.1296148531758807
computed normalized entropy=0.6616020527176066
SPLASH=splash10-0006-9000000000-154c06a6e349e4078172
submitter=submitter = University of Tokyo Team (Faculty of Engineering, University of Tokyo)
MoNA Rating=3.75

>  <NUM PEAKS>  (7276) 
25

>  <MASS SPECTRAL PEAKS>  (7276) 
15 6.2
26 1
27 11.8
28 0.28
29 8.1
39 9.4
40 1.3
41 1.61
42 2.1
43 99.99
44 2.4
53 0.17
55 4.8
56 4.6
57 17.8
58 5.76
59 12.3
71 10.4
72 1.4
81 0.62
85 1.7
86 2.2
99 2.7
114 1.02
115 1.4

$$$$

     RDKit          2D

  8  7  0  0  0  0  0  0  0  0999 V2000
    1.9486    3.3750    0.0000 C   0  0  0  0  0  0  0  0  0  0  0  0
   -5.8457    3.3750    0.0000 C   0  0  0  0  0  0  0  0  0  0  0  0
    0.6495    4.1250    0.0000 C   0  0  0  0  0  0  0  0  0  0  0  0
   -0.6495    3.3750    0.0000 C   0  0  0  0  0  0  0  0  0  0  0  0
   -1.9486    4.1250    0.0000 C   0  0  0  0  0  0  0  0  0  0  0  0
   -3.2476    3.3750    0.0000 C   0  0  0  0  0  0  0  0  0  0  0  0
   -4.5466    4.1250    0.0000 C   0  0  0  0  0  0  0  0  0  0  0  0
   -4.5466    5.6250    0.0000 O   0  0  0  0  0  0  0  0  0  0  0  0
  3  1  1  0
  4  3  1  0
  5  4  1  0
  6  5  1  0
  7  2  1  0
  7  6  1  0
  8  7  2  0
M  END
>  <NAME>  (7277) 
2-HEPTANONE

>  <SYNONYMS>  (7277) 
METHYL AMYL KETONE

>  <SPECTRUM TYPE>  (7277) 
MS1

>  <INSTRUMENT TYPE>  (7277) 
EI-B

>  <INSTRUMENT>  (7277) 
HITACHI RMU-6M

>  <ION MODE>  (7277) 
P

>  <INCHIKEY>  (7277) 
CATSNJVOTSVZJV-UHFFFAOYSA-N

>  <FORMULA>  (7277) 
C7H14O

>  <EXACT MASS>  (7277) 
114.104465068

>  <MW>  (7277) 
114

>  <ID>  (7277) 
JP000262

>  <CONTRIBUTOR>  (7277) 
University of Tokyo Team, {Faculty of Engineering, University of Tokyo

>  <COMMENT>  (7277) 
SMILES=CCCCCC(C)=O
InChI=InChI=1S/C7H14O/c1-3-4-5-6-7(2)8/h3-6H2,1-2H3
computed SMILES=O=C(C)CCCCC
accession=JP000262
date=2016.01.19 (Created 2008.10.21, modified 2011.05.06)
author=YAMAMOTO M, DEP. CHEMISTRY, FAC. SCIENCE, NARA WOMEN'S UNIV.
license=CC BY-NC-SA
exact mass=114.10447
ionization energy=70 eV
ion type=[M]+*
computed spectral entropy=2.0454248597053706
computed normalized entropy=0.6354469606758198
SPLASH=splash10-052f-9000000000-91b562632b96c4162a98
submitter=submitter = University of Tokyo Team (Faculty of Engineering, University of Tokyo)
MoNA Rating=3.75

>  <NUM PEAKS>  (7277) 
25

>  <MASS SPECTRAL PEAKS>  (7277) 
15 7.1
26 1.4
27 15.4
28 0.31
29 15
39 10.2
40 1.6
41 1.68
42 4.1
43 99.99
44 2.7
45 0.4
53 1.5
55 5.5
56 1.6
57 0.57
58 78.2
59 13.3
69 1.2
71 1.39
72 4.5
85 4.4
99 3.5
114 0.98
115 1.3

$$$$

     RDKit          2D

  7  6  0  0  0  0  0  0  0  0999 V2000
   -2.5111    2.0993    0.0000 C   0  0  0  0  0  0  0  0  0  0  0  0
    0.8370    0.8002    0.0000 C   0  0  0  0  0  0  0  0  0  0  0  0
    1.3861    2.8493    0.0000 C   0  0  0  0  0  0  0  0  0  0  0  0
   -0.6630    3.3983    0.0000 C   0  0  0  0  0  0  0  0  0  0  0  0
   -1.2120    1.3493    0.0000 C   0  0  0  0  0  0  0  0  0  0  0  0
    0.0870    2.0993    0.0000 C   0  0  0  0  0  0  0  0  0  0  0  0
   -1.2120   -0.1507    0.0000 O   0  0  0  0  0  0  0  0  0  0  0  0
  5  1  1  0
  6  2  1  0
  6  3  1  0
  6  4  1  0
  6  5  1  0
  7  5  2  0
M  END
>  <NAME>  (7278) 
3,3-DIMETHYL-2-BUTANONE

>  <SYNONYMS>  (7278) 
PINACOLONE

>  <SPECTRUM TYPE>  (7278) 
MS1

>  <INSTRUMENT TYPE>  (7278) 
EI-B

>  <INSTRUMENT>  (7278) 
HITACHI RMU-6M

>  <ION MODE>  (7278) 
P

>  <INCHIKEY>  (7278) 
PJGSXYOJTGTZAV-UHFFFAOYSA-N

>  <FORMULA>  (7278) 
C6H12O

>  <EXACT MASS>  (7278) 
100.088815004

>  <MW>  (7278) 
100

>  <ID>  (7278) 
JP000261

>  <CONTRIBUTOR>  (7278) 
University of Tokyo Team, {Faculty of Engineering, University of Tokyo

>  <COMMENT>  (7278) 
SMILES=CC(=O)C(C)(C)C
InChI=InChI=1S/C6H12O/c1-5(7)6(2,3)4/h1-4H3
computed SMILES=O=C(C)C(C)(C)C
accession=JP000261
date=2016.01.19 (Created 2008.10.21, modified 2011.05.06)
author=YAMAMOTO M, DEP. CHEMISTRY, FAC. SCIENCE, NARA WOMEN'S UNIV.
license=CC BY-NC-SA
exact mass=100.08882
ionization energy=70 eV
ion type=[M]+*
computed spectral entropy=1.9684449998038827
computed normalized entropy=0.6277941735001951
SPLASH=splash10-0a4i-9000000000-4448e3d90094a8314427
submitter=submitter = University of Tokyo Team (Faculty of Engineering, University of Tokyo)
MoNA Rating=3.75

>  <NUM PEAKS>  (7278) 
23

>  <MASS SPECTRAL PEAKS>  (7278) 
14 1
15 8.6
26 1.1
27 0.89
28 1.9
29 41.4
38 1.4
39 1.47
40 2.1
41 42.7
42 3.8
43 3.69
50 1
51 1.1
53 1.2
55 0.38
56 7.4
57 99.99
58 4.6
67 0.1
85 3.8
100 20
101 1.8

$$$$

     RDKit          2D

  7  6  0  0  0  0  0  0  0  0999 V2000
    1.6238    1.6875    0.0000 C   0  0  0  0  0  0  0  0  0  0  0  0
    0.3248    3.9375    0.0000 C   0  0  0  0  0  0  0  0  0  0  0  0
   -3.5724    1.6875    0.0000 C   0  0  0  0  0  0  0  0  0  0  0  0
   -0.9743    1.6875    0.0000 C   0  0  0  0  0  0  0  0  0  0  0  0
    0.3248    2.4375    0.0000 C   0  0  0  0  0  0  0  0  0  0  0  0
   -2.2733    2.4375    0.0000 C   0  0  0  0  0  0  0  0  0  0  0  0
   -2.2733    3.9375    0.0000 O   0  0  0  0  0  0  0  0  0  0  0  0
  5  1  1  0
  5  2  1  0
  5  4  1  0
  6  3  1  0
  6  4  1  0
  7  6  2  0
M  END
>  <NAME>  (7279) 
4-METHYL-2-PENTANONE

>  <SYNONYMS>  (7279) 
METHYL ISOBUTYL KETONE

>  <SPECTRUM TYPE>  (7279) 
MS1

>  <INSTRUMENT TYPE>  (7279) 
EI-B

>  <INSTRUMENT>  (7279) 
HITACHI RMU-6M

>  <ION MODE>  (7279) 
P

>  <INCHIKEY>  (7279) 
NTIZESTWPVYFNL-UHFFFAOYSA-N

>  <FORMULA>  (7279) 
C6H12O

>  <EXACT MASS>  (7279) 
100.088815004

>  <MW>  (7279) 
100

>  <ID>  (7279) 
JP000260

>  <CONTRIBUTOR>  (7279) 
University of Tokyo Team, {Faculty of Engineering, University of Tokyo

>  <COMMENT>  (7279) 
SMILES=CC(C)CC(C)=O
InChI=InChI=1S/C6H12O/c1-5(2)4-6(3)7/h5H,4H2,1-3H3
computed SMILES=O=C(C)CC(C)C
accession=JP000260
date=2016.01.19 (Created 2008.10.21, modified 2011.05.06)
author=YAMAMOTO M, DEP. CHEMISTRY, FAC. SCIENCE, NARA WOMEN'S UNIV.
license=CC BY-NC-SA
exact mass=100.08882
ionization energy=70 eV
ion type=[M]+*
computed spectral entropy=2.0159009483320425
computed normalized entropy=0.6621402829402222
SPLASH=splash10-0006-9000000000-5c7c989978f9e9e3684e
submitter=submitter = University of Tokyo Team (Faculty of Engineering, University of Tokyo)
MoNA Rating=3.75

>  <NUM PEAKS>  (7279) 
21

>  <MASS SPECTRAL PEAKS>  (7279) 
15 7.9
26 1.1
27 10.3
28 0.14
29 13.9
38 1.3
39 11.7
40 0.17
41 24.7
42 3.5
43 99.99
44 0.24
55 1.3
56 1.3
57 24.9
58 3.99
59 2.5
67 1.7
85 14.6
100 1.54
101 1.4

$$$$

     RDKit          2D

  7  6  0  0  0  0  0  0  0  0999 V2000
    1.6238    3.1875    0.0000 C   0  0  0  0  0  0  0  0  0  0  0  0
   -4.8714    3.9375    0.0000 C   0  0  0  0  0  0  0  0  0  0  0  0
    0.3248    3.9375    0.0000 C   0  0  0  0  0  0  0  0  0  0  0  0
   -0.9743    3.1875    0.0000 C   0  0  0  0  0  0  0  0  0  0  0  0
   -2.2733    3.9375    0.0000 C   0  0  0  0  0  0  0  0  0  0  0  0
   -3.5724    3.1875    0.0000 C   0  0  0  0  0  0  0  0  0  0  0  0
   -3.5724    1.6875    0.0000 O   0  0  0  0  0  0  0  0  0  0  0  0
  3  1  1  0
  4  3  1  0
  5  4  1  0
  6  2  1  0
  6  5  1  0
  7  6  2  0
M  END
>  <NAME>  (7280) 
2-HEXANONE

>  <SYNONYMS>  (7280) 
METHYL BUTYL KETONE

>  <SPECTRUM TYPE>  (7280) 
MS1

>  <INSTRUMENT TYPE>  (7280) 
EI-B

>  <INSTRUMENT>  (7280) 
HITACHI RMU-6M

>  <ION MODE>  (7280) 
P

>  <INCHIKEY>  (7280) 
QQZOPKMRPOGIEB-UHFFFAOYSA-N

>  <FORMULA>  (7280) 
C6H12O

>  <EXACT MASS>  (7280) 
100.088815004

>  <MW>  (7280) 
100

>  <ID>  (7280) 
JP000259

>  <CONTRIBUTOR>  (7280) 
University of Tokyo Team, {Faculty of Engineering, University of Tokyo

>  <COMMENT>  (7280) 
SMILES=CCCCC(C)=O
InChI=InChI=1S/C6H12O/c1-3-4-5-6(2)7/h3-5H2,1-2H3
computed SMILES=O=C(C)CCCC
accession=JP000259
date=2016.01.19 (Created 2008.10.21, modified 2011.05.06)
author=YAMAMOTO M, DEP. CHEMISTRY, FAC. SCIENCE, NARA WOMEN'S UNIV.
license=CC BY-NC-SA
exact mass=100.08882
ionization energy=70 eV
ion type=[M]+*
computed spectral entropy=1.9622813989636183
computed normalized entropy=0.6664364290949351
SPLASH=splash10-052f-9000000000-b9a2ab16adfdd94ece2a
submitter=submitter = University of Tokyo Team (Faculty of Engineering, University of Tokyo)
MoNA Rating=3.75

>  <NUM PEAKS>  (7280) 
19

>  <MASS SPECTRAL PEAKS>  (7280) 
15 7.4
26 1.7
27 12.3
28 0.34
29 19.2
39 7.9
40 1
41 1.88
43 99.99
44 2.3
53 1.1
55 0.15
57 18
58 53.7
59 3.1
71 0.57
85 6.8
100 14.2
101 1.2

$$$$

     RDKit          2D

  6  5  0  0  0  0  0  0  0  0999 V2000
   -0.0000   -0.0000    0.0000 C   0  0  0  0  0  0  0  0  0  0  0  0
    1.2990    2.2500    0.0000 C   0  0  0  0  0  0  0  0  0  0  0  0
   -1.2990    3.7500    0.0000 C   0  0  0  0  0  0  0  0  0  0  0  0
   -0.0000    1.5000    0.0000 C   0  0  0  0  0  0  0  0  0  0  0  0
   -1.2990    2.2500    0.0000 C   0  0  0  0  0  0  0  0  0  0  0  0
   -2.5981    1.5000    0.0000 O   0  0  0  0  0  0  0  0  0  0  0  0
  4  1  1  0
  4  2  1  0
  5  3  1  0
  5  4  1  0
  6  5  2  0
M  END
>  <NAME>  (7281) 
3-METHYL-2-BUTANONE

>  <SYNONYMS>  (7281) 
METHYL ISOPROPYL KETONE

>  <SPECTRUM TYPE>  (7281) 
MS1

>  <INSTRUMENT TYPE>  (7281) 
EI-B

>  <INSTRUMENT>  (7281) 
HITACHI RMU-6M

>  <ION MODE>  (7281) 
P

>  <INCHIKEY>  (7281) 
SYBYTAAJFKOIEJ-UHFFFAOYSA-N

>  <FORMULA>  (7281) 
C5H10O

>  <EXACT MASS>  (7281) 
86.07316494

>  <MW>  (7281) 
86

>  <ID>  (7281) 
JP000258

>  <CONTRIBUTOR>  (7281) 
University of Tokyo Team, {Faculty of Engineering, University of Tokyo

>  <COMMENT>  (7281) 
SMILES=CC(C)C(C)=O
InChI=InChI=1S/C5H10O/c1-4(2)5(3)6/h4H,1-3H3
computed SMILES=O=C(C)C(C)C
accession=JP000258
date=2016.01.19 (Created 2008.10.21, modified 2011.05.06)
author=YAMAMOTO M, DEP. CHEMISTRY, FAC. SCIENCE, NARA WOMEN'S UNIV.
license=CC BY-NC-SA
exact mass=86.07316
ionization energy=70 eV
ion type=[M]+*
computed spectral entropy=1.474782206487975
computed normalized entropy=0.5319152439228712
SPLASH=splash10-0006-9000000000-3a2b718be11eb60aeda2
submitter=submitter = University of Tokyo Team (Faculty of Engineering, University of Tokyo)
MoNA Rating=3.75

>  <NUM PEAKS>  (7281) 
16

>  <MASS SPECTRAL PEAKS>  (7281) 
14 1
15 6.8
26 1.2
27 1.18
29 1
38 1.4
39 7.8
40 0.1
41 17.9
42 3
43 99.99
44 0.23
45 1.2
71 3.9
86 17
87 1.2

$$$$

     RDKit          2D

  6  5  0  0  0  0  0  0  0  0999 V2000
    1.2990    2.2500    0.0000 C   0  0  0  0  0  0  0  0  0  0  0  0
   -3.8971    2.2500    0.0000 C   0  0  0  0  0  0  0  0  0  0  0  0
    0.0000    3.0000    0.0000 C   0  0  0  0  0  0  0  0  0  0  0  0
   -1.2990    2.2500    0.0000 C   0  0  0  0  0  0  0  0  0  0  0  0
   -2.5981    3.0000    0.0000 C   0  0  0  0  0  0  0  0  0  0  0  0
   -2.5981    4.5000    0.0000 O   0  0  0  0  0  0  0  0  0  0  0  0
  3  1  1  0
  4  3  1  0
  5  2  1  0
  5  4  1  0
  6  5  2  0
M  END
>  <NAME>  (7282) 
2-PENTANONE

>  <SYNONYMS>  (7282) 
METHYL PROPYL KETONE

>  <SPECTRUM TYPE>  (7282) 
MS1

>  <INSTRUMENT TYPE>  (7282) 
EI-B

>  <INSTRUMENT>  (7282) 
HITACHI RMU-6M

>  <ION MODE>  (7282) 
P

>  <INCHIKEY>  (7282) 
XNLICIUVMPYHGG-UHFFFAOYSA-N

>  <FORMULA>  (7282) 
C5H10O

>  <EXACT MASS>  (7282) 
86.07316494

>  <MW>  (7282) 
86

>  <ID>  (7282) 
JP000257

>  <CONTRIBUTOR>  (7282) 
University of Tokyo Team, {Faculty of Engineering, University of Tokyo

>  <COMMENT>  (7282) 
SMILES=CCCC(C)=O
InChI=InChI=1S/C5H10O/c1-3-4-5(2)6/h3-4H2,1-2H3
computed SMILES=O=C(C)CCC
accession=JP000257
date=2016.01.19 (Created 2008.10.21, modified 2011.05.06)
author=YAMAMOTO M, DEP. CHEMISTRY, FAC. SCIENCE, NARA WOMEN'S UNIV.
license=CC BY-NC-SA
exact mass=86.07316
ionization energy=70 eV
ion type=[M]+*
computed spectral entropy=1.4852095831105439
computed normalized entropy=0.5242138175814954
SPLASH=splash10-0006-9000000000-cd084d7fb390ed239f79
submitter=submitter = University of Tokyo Team (Faculty of Engineering, University of Tokyo)
MoNA Rating=3.75

>  <NUM PEAKS>  (7282) 
17

>  <MASS SPECTRAL PEAKS>  (7282) 
14 1.2
15 1.5
26 1.8
27 1.32
28 1.7
29 2.1
38 1.4
39 0.75
40 1
41 13.4
42 4.4
43 99.99
44 2.4
58 9.1
71 11
86 1.76
87 1.3

$$$$

     RDKit          2D

 10 10  0  0  1  0  0  0  0  0999 V2000
    3.8981    0.7504    0.0000 C   0  0  0  0  0  0  0  0  0  0  0  0
    2.5987    3.0002    0.0000 C   0  0  0  0  0  0  0  0  0  0  0  0
   -2.5989   -1.5002    0.0000 C   0  0  0  0  0  0  0  0  0  0  0  0
   -1.3000    0.7500    0.0000 C   0  0  0  0  0  0  0  0  0  0  0  0
   -0.0000   -1.5000    0.0000 C   0  0  0  0  0  0  0  0  0  0  0  0
    0.0000    1.5000    0.0000 C   0  0  0  0  0  0  0  0  0  0  0  0
    1.3000   -0.7500    0.0000 C   0  0  0  0  0  0  0  0  0  0  0  0
    2.5989    1.5002    0.0000 C   0  0  0  0  0  0  0  0  0  0  0  0
   -1.3000   -0.7500    0.0000 C   0  0  0  0  0  0  0  0  0  0  0  0
    1.3000    0.7500    0.0000 C   0  0  0  0  0  0  0  0  0  0  0  0
  6  4  1  0
  7  5  1  0
  8  1  1  0
  8  2  1  0
  9  3  1  1
  9  4  1  0
  9  5  1  0
 10  6  1  0
 10  7  1  0
 10  8  1  1
M  END
>  <NAME>  (7283) 
CIS-MENTHANE

>  <SYNONYMS>  (7283) 


>  <SPECTRUM TYPE>  (7283) 
MS1

>  <INSTRUMENT TYPE>  (7283) 
EI-B

>  <INSTRUMENT>  (7283) 
HITACHI RMU-6M

>  <ION MODE>  (7283) 
P

>  <INCHIKEY>  (7283) 
CFJYNSNXFXLKNS-AOOOYVTPSA-N

>  <FORMULA>  (7283) 
C10H20

>  <EXACT MASS>  (7283) 
140.15650064

>  <MW>  (7283) 
140

>  <ID>  (7283) 
JP000252

>  <CONTRIBUTOR>  (7283) 
University of Tokyo Team, {Faculty of Engineering, University of Tokyo

>  <COMMENT>  (7283) 
SMILES=CC(C)C([H])(C1)CCC([H])(C)C1
InChI=InChI=1S/C10H20/c1-8(2)10-6-4-9(3)5-7-10/h8-10H,4-7H2,1-3H3/t9-,10+
computed SMILES=CC(C)C1CCC(C)CC1
accession=JP000252
date=2016.01.19 (Created 2008.10.21, modified 2011.05.06)
author=YAMAMOTO M, DEP. CHEMISTRY, FAC. SCIENCE, NARA WOMEN'S UNIV.
license=CC BY-NC-SA
exact mass=140.1565
ionization energy=70 eV
ion type=[M]+*
computed spectral entropy=2.3996189487219595
computed normalized entropy=0.7280757653612603
SPLASH=splash10-0a4l-9000000000-f947b1af71f74a2011cd
submitter=submitter = University of Tokyo Team (Faculty of Engineering, University of Tokyo)
MoNA Rating=3.75

>  <NUM PEAKS>  (7283) 
27

>  <MASS SPECTRAL PEAKS>  (7283) 
27 13.9
28 17.9
29 14.1
39 1.27
40 2.1
41 35.9
42 5
43 1.24
51 1.3
53 5.9
54 5.8
55 99.99
56 7.7
57 3.9
65 1.4
67 0.67
68 4
69 17.7
70 2.2
77 0.13
79 1.9
81 22.4
82 2.6
83 0.57
95 1.6
140 16.1
141 1.8

$$$$

     RDKit          2D

 10 10  0  0  1  0  0  0  0  0999 V2000
    3.8981    0.7504    0.0000 C   0  0  0  0  0  0  0  0  0  0  0  0
    2.5987    3.0002    0.0000 C   0  0  0  0  0  0  0  0  0  0  0  0
   -2.5989   -1.5002    0.0000 C   0  0  0  0  0  0  0  0  0  0  0  0
   -1.3000    0.7500    0.0000 C   0  0  0  0  0  0  0  0  0  0  0  0
   -0.0000   -1.5000    0.0000 C   0  0  0  0  0  0  0  0  0  0  0  0
    0.0000    1.5000    0.0000 C   0  0  0  0  0  0  0  0  0  0  0  0
    1.3000   -0.7500    0.0000 C   0  0  0  0  0  0  0  0  0  0  0  0
    2.5989    1.5002    0.0000 C   0  0  0  0  0  0  0  0  0  0  0  0
   -1.3000   -0.7500    0.0000 C   0  0  0  0  0  0  0  0  0  0  0  0
    1.3000    0.7500    0.0000 C   0  0  0  0  0  0  0  0  0  0  0  0
  6  4  1  0
  7  5  1  0
  8  1  1  0
  8  2  1  0
  9  3  1  1
  9  4  1  0
  9  5  1  0
 10  6  1  0
 10  7  1  0
 10  8  1  6
M  END
>  <NAME>  (7284) 
TRANS-MENTHANE

>  <SYNONYMS>  (7284) 


>  <SPECTRUM TYPE>  (7284) 
MS1

>  <INSTRUMENT TYPE>  (7284) 
EI-B

>  <INSTRUMENT>  (7284) 
HITACHI RMU-6M

>  <ION MODE>  (7284) 
P

>  <INCHIKEY>  (7284) 
CFJYNSNXFXLKNS-MGCOHNPYSA-N

>  <FORMULA>  (7284) 
C10H20

>  <EXACT MASS>  (7284) 
140.15650064

>  <MW>  (7284) 
140

>  <ID>  (7284) 
JP000251

>  <CONTRIBUTOR>  (7284) 
University of Tokyo Team, {Faculty of Engineering, University of Tokyo

>  <COMMENT>  (7284) 
SMILES=CC(C1)CCC(C1)C(C)C
InChI=InChI=1S/C10H20/c1-8(2)10-6-4-9(3)5-7-10/h8-10H,4-7H2,1-3H3/t9-,10-
computed SMILES=CC(C)C1CCC(C)CC1
accession=JP000251
date=2016.01.19 (Created 2008.10.21, modified 2011.05.06)
author=YAMAMOTO M, DEP. CHEMISTRY, FAC. SCIENCE, NARA WOMEN'S UNIV.
license=CC BY-NC-SA
exact mass=140.1565
ionization energy=70 eV
ion type=[M]+*
computed spectral entropy=2.5066713506120952
computed normalized entropy=0.7299594323875525
SPLASH=splash10-0a4i-9000000000-89abe43e47c8942d0a95
submitter=submitter = University of Tokyo Team (Faculty of Engineering, University of Tokyo)
MoNA Rating=3.75

>  <NUM PEAKS>  (7284) 
31

>  <MASS SPECTRAL PEAKS>  (7284) 
27 13.3
28 2
29 12.8
39 1.27
40 2
41 32.7
42 4.4
43 1.26
51 1.4
53 5.3
54 5.7
55 99.99
56 7.7
57 3.2
65 1.3
67 0.72
68 4.1
69 16.5
70 2
71 0.1
77 1.2
79 1.4
81 23.4
82 0.23
83 5
95 1.5
96 46.7
97 6.31
98 5.7
140 14.4
141 1.8

$$$$

     RDKit          2D

 10 11  0  0  0  0  0  0  0  0999 V2000
   -0.4775    2.9800    0.0000 C   0  0  0  0  0  0  0  0  0  0  0  0
    1.3259   -2.1785    0.0000 C   0  0  0  0  0  0  0  0  0  0  0  0
    2.2869   -0.5080    0.0000 C   0  0  0  0  0  0  0  0  0  0  0  0
   -1.7800    0.7300    0.0000 C   0  0  0  0  0  0  0  0  0  0  0  0
   -1.7800   -0.7700    0.0000 C   0  0  0  0  0  0  0  0  0  0  0  0
   -0.4800   -0.0200    0.0000 C   0  0  0  0  0  0  0  0  0  0  0  0
   -0.4800    1.4800    0.0000 C   0  0  0  0  0  0  0  0  0  0  0  0
   -0.4800   -1.5200    0.0000 C   0  0  0  0  0  0  0  0  0  0  0  0
    0.8100    0.7300    0.0000 C   0  0  0  0  0  0  0  0  0  0  0  0
    0.8100   -0.7700    0.0000 C   0  0  0  0  0  0  0  0  0  0  0  0
  5  4  1  0
  7  1  1  0
  7  4  1  0
  8  5  1  0
  8  6  1  0
  9  6  1  0
  9  7  1  0
 10  2  1  0
 10  3  1  0
 10  8  1  0
 10  9  1  0
M  END
>  <NAME>  (7285) 
PINANE

>  <SYNONYMS>  (7285) 
2,6,6-TRIMETHYL-BICYCLO(3,1,1)HEPTANE

>  <SPECTRUM TYPE>  (7285) 
MS1

>  <INSTRUMENT TYPE>  (7285) 
EI-B

>  <INSTRUMENT>  (7285) 
HITACHI RMU-6M

>  <ION MODE>  (7285) 
P

>  <INCHIKEY>  (7285) 
XOKSLPVRUOBDEW-UHFFFAOYSA-N

>  <FORMULA>  (7285) 
C10H18

>  <EXACT MASS>  (7285) 
138.140850576

>  <MW>  (7285) 
138

>  <ID>  (7285) 
JP000250

>  <CONTRIBUTOR>  (7285) 
University of Tokyo Team, {Faculty of Engineering, University of Tokyo

>  <COMMENT>  (7285) 
SMILES=CC(C2)C(C1)C(C)(C)C(C2)1
InChI=InChI=1S/C10H18/c1-7-4-5-8-6-9(7)10(8,2)3/h7-9H,4-6H2,1-3H3
computed SMILES=CC1CCC2CC1C2(C)C
accession=JP000250
date=2016.01.19 (Created 2008.10.21, modified 2011.05.06)
author=YAMAMOTO M, DEP. CHEMISTRY, FAC. SCIENCE, NARA WOMEN'S UNIV.
license=CC BY-NC-SA
exact mass=138.14085
ionization energy=70 eV
ion type=[M]+*
computed spectral entropy=3.06426489568268
computed normalized entropy=0.8003530700192093
SPLASH=splash10-067m-9000000000-6efb80eeed80d11aa24a
submitter=submitter = University of Tokyo Team (Faculty of Engineering, University of Tokyo)
MoNA Rating=3.75

>  <NUM PEAKS>  (7285) 
46

>  <MASS SPECTRAL PEAKS>  (7285) 
15 1.8
26 1.2
27 36.5
28 0.46
29 25.5
38 1.2
39 44.9
40 0.72
41 99.4
42 6.1
43 17.3
50 0.18
51 6.6
52 3.1
53 24.8
54 0.65
55 99.99
56 7.6
57 5.7
63 0.15
65 7.7
66 2.8
67 70.4
68 3.35
69 54.2
70 8
77 18.7
78 0.19
79 14.7
80 8.5
81 57.6
82 6.56
83 57.6
84 6.4
91 5.8
93 0.57
94 11.2
95 80
96 32
97 0.65
109 9.3
110 4.6
123 22.5
124 0.2
138 9.1
139 1

$$$$

     RDKit          2D

 11 11  0  0  0  0  0  0  0  0999 V2000
   -3.5376   -0.2051    0.0000 C   0  0  0  0  0  0  0  0  0  0  0  0
   -2.2386   -2.4551    0.0000 C   0  0  0  0  0  0  0  0  0  0  0  0
    2.9576    2.0449    0.0000 C   0  0  0  0  0  0  0  0  0  0  0  0
    0.3590    2.0458    0.0000 C   0  0  0  0  0  0  0  0  0  0  0  0
   -0.9400    1.2958    0.0000 C   0  0  0  0  0  0  0  0  0  0  0  0
    1.6590   -0.2059    0.0000 C   0  0  0  0  0  0  0  0  0  0  0  0
   -2.2386   -0.9551    0.0000 C   0  0  0  0  0  0  0  0  0  0  0  0
    1.6585    1.2949    0.0000 C   0  0  0  0  0  0  0  0  0  0  0  0
   -0.9395   -0.2051    0.0000 C   0  0  0  0  0  0  0  0  0  0  0  0
    0.3600   -0.9559    0.0000 C   0  0  0  0  0  0  0  0  0  0  0  0
    0.3597   -2.4559    0.0000 O   0  0  0  0  0  0  0  0  0  0  0  0
  5  4  1  0
  7  1  1  0
  7  2  1  0
  8  3  1  0
  8  4  1  0
  8  6  1  0
  9  5  1  0
  9  7  1  0
 10  6  1  0
 10  9  1  0
 11 10  1  0
M  END
>  <NAME>  (7286) 
MENTHOL

>  <SYNONYMS>  (7286) 


>  <SPECTRUM TYPE>  (7286) 
MS1

>  <INSTRUMENT TYPE>  (7286) 
EI-B

>  <INSTRUMENT>  (7286) 
HITACHI RMU-6M

>  <ION MODE>  (7286) 
P

>  <INCHIKEY>  (7286) 
NOOLISFMXDJSKH-UHFFFAOYSA-N

>  <FORMULA>  (7286) 
C10H20O

>  <EXACT MASS>  (7286) 
156.15141526

>  <MW>  (7286) 
156

>  <ID>  (7286) 
JP000249

>  <CONTRIBUTOR>  (7286) 
University of Tokyo Team, {Faculty of Engineering, University of Tokyo

>  <COMMENT>  (7286) 
SMILES=CC(C1)CC(O)C(C1)C(C)C
InChI=InChI=1S/C10H20O/c1-7(2)9-5-4-8(3)6-10(9)11/h7-11H,4-6H2,1-3H3
computed SMILES=OC1CC(C)CCC1C(C)C
accession=JP000249
date=2016.01.19 (Created 2008.10.21, modified 2011.05.06)
author=YAMAMOTO M, DEP. CHEMISTRY, FAC. SCIENCE, NARA WOMEN'S UNIV.
license=CC BY-NC-SA
exact mass=156.15142
ionization energy=70 eV
ion type=[M]+*
computed spectral entropy=3.18284400627975
computed normalized entropy=0.7838661934209564
SPLASH=splash10-00ry-9000000000-1a50289cf86435b01727
submitter=submitter = University of Tokyo Team (Faculty of Engineering, University of Tokyo)
MoNA Rating=3.75

>  <NUM PEAKS>  (7286) 
58

>  <MASS SPECTRAL PEAKS>  (7286) 
15 3.1
27 41.1
28 6
29 3.69
30 1.1
31 9.8
39 33.7
40 0.55
41 93.7
42 11.4
43 40.7
44 0.69
45 4.7
51 3.6
52 1.3
53 1.75
54 7.3
55 57.1
56 24.2
57 2.95
58 3.6
59 2.4
65 3.7
66 0.16
67 40.2
68 14
69 34.6
70 1.29
71 99.99
72 5.5
73 1.5
77 0.41
79 6.7
80 13.1
81 88.9
82 4.11
83 13.7
84 3.7
85 8.9
86 0.36
87 1
91 1.9
93 4.2
94 0.65
95 70.9
96 28.1
97 4.4
99 0.37
109 11.5
110 8
111 1.5
112 0.15
113 1.5
123 29.7
124 3.7
138 3.51
139 4.2
141 1

$$$$

     RDKit          2D

 10 10  0  0  1  0  0  0  0  0999 V2000
    2.5987    3.0002    0.0000 C   0  0  0  0  0  0  0  0  0  0  0  0
    3.8981    0.7504    0.0000 C   0  0  0  0  0  0  0  0  0  0  0  0
   -2.5989   -1.5002    0.0000 C   0  0  0  0  0  0  0  0  0  0  0  0
   -1.3000    0.7500    0.0000 C   0  0  0  0  0  0  0  0  0  0  0  0
   -0.0000   -1.5000    0.0000 C   0  0  0  0  0  0  0  0  0  0  0  0
    0.0000    1.5000    0.0000 C   0  0  0  0  0  0  0  0  0  0  0  0
    1.3000   -0.7500    0.0000 C   0  0  0  0  0  0  0  0  0  0  0  0
    2.5989    1.5002    0.0000 C   0  0  0  0  0  0  0  0  0  0  0  0
   -1.3000   -0.7500    0.0000 C   0  0  0  0  0  0  0  0  0  0  0  0
    1.3000    0.7500    0.0000 C   0  0  0  0  0  0  0  0  0  0  0  0
  6  4  1  0
  7  5  1  0
  8  1  2  0
  8  2  1  0
  9  3  1  0
  9  4  2  0
  9  5  1  0
 10  6  1  0
 10  7  1  0
 10  8  1  6
M  END
>  <NAME>  (7287) 
LIMONENE

>  <SYNONYMS>  (7287) 
PARA-MENTHA-1,8-DIENE

>  <SPECTRUM TYPE>  (7287) 
MS1

>  <INSTRUMENT TYPE>  (7287) 
EI-B

>  <INSTRUMENT>  (7287) 
HITACHI RMU-6M

>  <ION MODE>  (7287) 
P

>  <INCHIKEY>  (7287) 
XMGQYMWWDOXHJM-JTQLQIEISA-N

>  <FORMULA>  (7287) 
C10H16

>  <EXACT MASS>  (7287) 
136.125200512

>  <MW>  (7287) 
136

>  <ID>  (7287) 
JP000247

>  <CONTRIBUTOR>  (7287) 
University of Tokyo Team, {Faculty of Engineering, University of Tokyo

>  <COMMENT>  (7287) 
SMILES=CC1=CC[C@@H](CC1)C(=C)C
InChI=InChI=1S/C10H16/c1-8(2)10-6-4-9(3)5-7-10/h4,10H,1,5-7H2,2-3H3/t10-/m0/s1
computed SMILES=C=C(C)C1CC=C(C)CC1
accession=JP000247
date=2016.01.19 (Created 2008.10.21, modified 2011.05.06)
author=YAMAMOTO M, DEP. CHEMISTRY, FAC. SCIENCE, NARA WOMEN'S UNIV.
license=CC BY-NC-SA
exact mass=136.1252
ionization energy=70 eV
ion type=[M]+*
computed spectral entropy=2.9792598930879226
computed normalized entropy=0.7921035311726692
SPLASH=splash10-0173-9100000000-239928f205c8242a700a
submitter=submitter = University of Tokyo Team (Faculty of Engineering, University of Tokyo)
MoNA Rating=3.75

>  <NUM PEAKS>  (7287) 
43

>  <MASS SPECTRAL PEAKS>  (7287) 
15 1.2
27 24.9
28 3.3
29 1.15
38 1.6
39 36.2
40 10.7
41 3.51
42 5.2
43 4.2
50 2.7
51 0.94
52 4.4
53 26.7
54 2.6
55 0.88
63 3.2
65 3.4
66 4.2
67 5.61
68 99.99
69 9
77 18.1
78 0.39
79 29.6
80 11.1
81 9.9
82 0.16
91 16.4
92 18.7
93 57.1
94 2.22
96 7.1
103 1.2
105 4.9
106 0.16
107 15.9
108 4.7
119 1.1
121 1.64
122 1.6
136 24.5
137 2.5

$$$$

     RDKit          2D

 10 11  0  0  0  0  0  0  0  0999 V2000
   -0.4775    2.9800    0.0000 C   0  0  0  0  0  0  0  0  0  0  0  0
    1.3259   -2.1785    0.0000 C   0  0  0  0  0  0  0  0  0  0  0  0
    2.2869   -0.5080    0.0000 C   0  0  0  0  0  0  0  0  0  0  0  0
   -1.7800    0.7300    0.0000 C   0  0  0  0  0  0  0  0  0  0  0  0
   -1.7800   -0.7700    0.0000 C   0  0  0  0  0  0  0  0  0  0  0  0
   -0.4800   -0.0200    0.0000 C   0  0  0  0  0  0  0  0  0  0  0  0
   -0.4800    1.4800    0.0000 C   0  0  0  0  0  0  0  0  0  0  0  0
   -0.4800   -1.5200    0.0000 C   0  0  0  0  0  0  0  0  0  0  0  0
    0.8100    0.7300    0.0000 C   0  0  0  0  0  0  0  0  0  0  0  0
    0.8100   -0.7700    0.0000 C   0  0  0  0  0  0  0  0  0  0  0  0
  5  4  1  0
  7  1  2  0
  7  4  1  0
  8  5  1  0
  8  6  1  0
  9  6  1  0
  9  7  1  0
 10  2  1  0
 10  3  1  0
 10  8  1  0
 10  9  1  0
M  END
>  <NAME>  (7288) 
BETA-PINENE

>  <SYNONYMS>  (7288) 
2-METHYLENE-6,6-DIMETHYLBICYCLO(3,1,1)HEPTANE

>  <SPECTRUM TYPE>  (7288) 
MS1

>  <INSTRUMENT TYPE>  (7288) 
EI-B

>  <INSTRUMENT>  (7288) 
HITACHI RMU-6M

>  <ION MODE>  (7288) 
P

>  <INCHIKEY>  (7288) 
WTARULDDTDQWMU-UHFFFAOYSA-N

>  <FORMULA>  (7288) 
C10H16

>  <EXACT MASS>  (7288) 
136.125200512

>  <MW>  (7288) 
136

>  <ID>  (7288) 
JP000246

>  <CONTRIBUTOR>  (7288) 
University of Tokyo Team, {Faculty of Engineering, University of Tokyo

>  <COMMENT>  (7288) 
SMILES=C=C(C2)C(C1)C(C)(C)C(C2)1
InChI=InChI=1S/C10H16/c1-7-4-5-8-6-9(7)10(8,2)3/h8-9H,1,4-6H2,2-3H3
computed SMILES=C=C1CCC2CC1C2(C)C
accession=JP000246
date=2016.01.19 (Created 2008.10.21, modified 2011.05.06)
author=YAMAMOTO M, DEP. CHEMISTRY, FAC. SCIENCE, NARA WOMEN'S UNIV.
license=CC BY-NC-SA
exact mass=136.1252
ionization energy=70 eV
ion type=[M]+*
computed spectral entropy=2.873088691655069
computed normalized entropy=0.7686844973137612
SPLASH=splash10-0006-9000000000-f8107bfb161eca785a4e
submitter=submitter = University of Tokyo Team (Faculty of Engineering, University of Tokyo)
MoNA Rating=3.75

>  <NUM PEAKS>  (7288) 
42

>  <MASS SPECTRAL PEAKS>  (7288) 
26 1
27 22.6
28 2.3
29 0.9
38 1.3
39 29.7
40 4.9
41 6.61
42 3
43 6.7
50 2.3
51 0.74
52 3.7
53 14.5
54 1.7
55 0.81
63 2.2
65 7.4
66 2.3
67 1.26
68 3.5
69 41.2
70 2.3
77 2.33
78 4.2
79 25.3
80 12.2
81 0.32
82 1.5
91 22.6
92 10.3
93 99.99
94 13.8
95 2.7
105 3
106 0.16
107 4.8
108 1.7
121 10.3
122 0.11
136 13.5
137 1.4

$$$$

     RDKit          2D

 10 11  0  0  0  0  0  0  0  0999 V2000
   -0.4775    2.9800    0.0000 C   0  0  0  0  0  0  0  0  0  0  0  0
    1.3259   -2.1785    0.0000 C   0  0  0  0  0  0  0  0  0  0  0  0
    2.2869   -0.5080    0.0000 C   0  0  0  0  0  0  0  0  0  0  0  0
   -1.7800    0.7300    0.0000 C   0  0  0  0  0  0  0  0  0  0  0  0
   -1.7800   -0.7700    0.0000 C   0  0  0  0  0  0  0  0  0  0  0  0
   -0.4800   -0.0200    0.0000 C   0  0  0  0  0  0  0  0  0  0  0  0
   -0.4800    1.4800    0.0000 C   0  0  0  0  0  0  0  0  0  0  0  0
   -0.4800   -1.5200    0.0000 C   0  0  0  0  0  0  0  0  0  0  0  0
    0.8100    0.7300    0.0000 C   0  0  0  0  0  0  0  0  0  0  0  0
    0.8100   -0.7700    0.0000 C   0  0  0  0  0  0  0  0  0  0  0  0
  5  4  1  0
  7  1  1  0
  7  4  2  0
  8  5  1  0
  8  6  1  0
  9  6  1  0
  9  7  1  0
 10  2  1  0
 10  3  1  0
 10  8  1  0
 10  9  1  0
M  END
>  <NAME>  (7289) 
ALPHA-PINENE

>  <SYNONYMS>  (7289) 
2,6,6-TRIMETHYLBICYCLO(3,1,1)HEPT-2-ENE

>  <SPECTRUM TYPE>  (7289) 
MS1

>  <INSTRUMENT TYPE>  (7289) 
EI-B

>  <INSTRUMENT>  (7289) 
HITACHI RMU-6M

>  <ION MODE>  (7289) 
P

>  <INCHIKEY>  (7289) 
GRWFGVWFFZKLTI-UHFFFAOYSA-N

>  <FORMULA>  (7289) 
C10H16

>  <EXACT MASS>  (7289) 
136.125200512

>  <MW>  (7289) 
136

>  <ID>  (7289) 
JP000245

>  <CONTRIBUTOR>  (7289) 
University of Tokyo Team, {Faculty of Engineering, University of Tokyo

>  <COMMENT>  (7289) 
SMILES=CC(=C2)C(C1)C(C)(C)C(C2)1
InChI=InChI=1S/C10H16/c1-7-4-5-8-6-9(7)10(8,2)3/h4,8-9H,5-6H2,1-3H3
computed SMILES=C1=C(C)C2CC(C1)C2(C)C
accession=JP000245
date=2016.01.19 (Created 2008.10.21, modified 2011.05.06)
author=YAMAMOTO M, DEP. CHEMISTRY, FAC. SCIENCE, NARA WOMEN'S UNIV.
license=CC BY-NC-SA
exact mass=136.1252
ionization energy=70 eV
ion type=[M]+*
computed spectral entropy=2.8255532540404276
computed normalized entropy=0.7559665627531156
SPLASH=splash10-002f-9100000000-a60ab99ee5e5c7f8221e
submitter=submitter = University of Tokyo Team (Faculty of Engineering, University of Tokyo)
MoNA Rating=3.75

>  <NUM PEAKS>  (7289) 
42

>  <MASS SPECTRAL PEAKS>  (7289) 
15 1
27 20
28 1.9
29 0.98
38 1.4
39 26.9
40 4.1
41 2.74
42 1.9
43 9.5
50 2.2
51 0.77
52 3.3
53 11.6
54 1.4
55 0.73
63 2.7
65 8
66 2.1
67 0.97
68 4.3
69 1.6
77 29
78 0.51
79 23.6
80 10.7
81 4.1
91 3.6
92 32.5
93 99.99
94 9.4
95 0.15
103 1.8
105 10.1
106 2.7
107 0.54
108 1.3
119 2.3
121 12.1
122 0.3
136 11.9
137 1.2

$$$$

     RDKit          2D

 13 13  0  0  0  0  0  0  0  0999 V2000
   -5.1970    1.5006    0.0000 C   0  0  0  0  0  0  0  0  0  0  0  0
   -3.8983   -0.7496    0.0000 C   0  0  0  0  0  0  0  0  0  0  0  0
    2.5989   -1.5002    0.0000 C   0  0  0  0  0  0  0  0  0  0  0  0
   -2.5989    1.5002    0.0000 C   0  0  0  0  0  0  0  0  0  0  0  0
   -3.8981    0.7504    0.0000 C   0  0  0  0  0  0  0  0  0  0  0  0
    1.3000   -0.7500    0.0000 C   0  0  0  0  0  0  0  0  0  0  0  0
   -1.3000    0.7500    0.0000 C   0  0  0  0  0  0  0  0  0  0  0  0
    1.3000    0.7500    0.0000 C   0  0  0  0  0  0  0  0  0  0  0  0
   -1.3000   -0.7500    0.0000 C   0  0  0  0  0  0  0  0  0  0  0  0
    0.0000   -1.5000    0.0000 N   0  0  0  0  0  0  0  0  0  0  0  0
    0.0000    1.5000    0.0000 N   0  0  0  0  0  0  0  0  0  0  0  0
    2.5989    1.5002    0.0000 O   0  0  0  0  0  0  0  0  0  0  0  0
   -2.5989   -1.5002    0.0000 O   0  0  0  0  0  0  0  0  0  0  0  0
  5  1  1  0
  5  2  1  0
  5  4  1  0
  6  3  1  0
  7  4  1  0
  8  6  1  0
  9  7  1  0
 10  6  1  0
 10  9  2  0
 11  7  1  0
 11  8  2  0
 12  8  1  0
 13  9  1  0
M  END
>  <NAME>  (7290) 
3-ISO-BUTYL-6-METHYL-2,5-PIPERAZINEDIONE

>  <SYNONYMS>  (7290) 
CYCLO-ALANYL-LEUCINE

>  <SPECTRUM TYPE>  (7290) 
MS1

>  <INSTRUMENT TYPE>  (7290) 
EI-B

>  <INSTRUMENT>  (7290) 
HITACHI RMU-6M

>  <ION MODE>  (7290) 
P

>  <INCHIKEY>  (7290) 
DBJPZCJQDRPOME-UHFFFAOYSA-N

>  <FORMULA>  (7290) 
C9H16N2O2

>  <EXACT MASS>  (7290) 
184.121177752

>  <MW>  (7290) 
184

>  <ID>  (7290) 
JP000244

>  <CONTRIBUTOR>  (7290) 
University of Tokyo Team, {Faculty of Engineering, University of Tokyo

>  <COMMENT>  (7290) 
SMILES=CC(C)CC(N1)C(=O)NC(C)C(=O)1
InChI=InChI=1S/C9H16N2O2/c1-5(2)4-7-9(13)10-6(3)8(12)11-7/h5-7H,4H2,1-3H3,(H,10,13)(H,11,12)
computed SMILES=OC1=NC(C(O)=NC1C)CC(C)C
accession=JP000244
date=2016.01.19 (Created 2008.10.21, modified 2011.05.06)
author=YAMAMOTO M, DEP. CHEMISTRY, FAC. SCIENCE, NARA WOMEN'S UNIV.
license=CC BY-NC-SA
exact mass=184.12118
ionization energy=70 eV
ion type=[M]+*
computed spectral entropy=2.804981259112301
computed normalized entropy=0.7285386300167966
SPLASH=splash10-002f-9300000000-152307e7d917778b95da
submitter=submitter = University of Tokyo Team (Faculty of Engineering, University of Tokyo)
MoNA Rating=3.75

>  <NUM PEAKS>  (7290) 
47

>  <MASS SPECTRAL PEAKS>  (7290) 
15 7.7
26 1.3
27 19.8
28 2.89
29 10.3
30 17.5
39 8.5
40 0.25
41 23.5
42 19.6
43 31.2
44 99.99
45 3
51 1.1
54 2.2
55 1.13
56 6
57 7
58 1.3
67 0.32
68 2.4
69 6
70 23.5
71 0.92
72 2
81 2.6
82 1.3
83 0.32
84 1.9
85 3.5
86 26.5
87 0.15
95 2.5
96 2.2
97 2.8
99 2.14
100 2.2
109 2.1
111 2.3
113 1.3
123 1.7
127 5
128 96
129 0.72
141 7.3
149 1.4
169 1.5

$$$$

     RDKit          2D

 10 10  0  0  0  0  0  0  0  0999 V2000
    1.3000   -0.7500    0.0000 C   0  0  0  0  0  0  0  0  0  0  0  0
   -2.5989    1.5002    0.0000 C   0  0  0  0  0  0  0  0  0  0  0  0
   -1.3000    0.7500    0.0000 C   0  0  0  0  0  0  0  0  0  0  0  0
    1.3000    0.7500    0.0000 C   0  0  0  0  0  0  0  0  0  0  0  0
   -1.3000   -0.7500    0.0000 C   0  0  0  0  0  0  0  0  0  0  0  0
    0.0000   -1.5000    0.0000 N   0  0  0  0  0  0  0  0  0  0  0  0
    0.0000    1.5000    0.0000 N   0  0  0  0  0  0  0  0  0  0  0  0
   -3.8981    0.7504    0.0000 O   0  0  0  0  0  0  0  0  0  0  0  0
    2.5989    1.5002    0.0000 O   0  0  0  0  0  0  0  0  0  0  0  0
   -2.5989   -1.5002    0.0000 O   0  0  0  0  0  0  0  0  0  0  0  0
  3  2  1  0
  4  1  1  0
  5  3  1  0
  6  1  1  0
  6  5  2  0
  7  3  1  0
  7  4  2  0
  8  2  1  0
  9  4  1  0
 10  5  1  0
M  END
>  <NAME>  (7291) 
3-HYDROXYMETHYL-2,5-PIPERAZINEDIONE

>  <SYNONYMS>  (7291) 
CYCLO-GLYCYL-SERINE

>  <SPECTRUM TYPE>  (7291) 
MS1

>  <INSTRUMENT TYPE>  (7291) 
EI-B

>  <INSTRUMENT>  (7291) 
HITACHI RMU-6M

>  <ION MODE>  (7291) 
P

>  <INCHIKEY>  (7291) 
MOWMPSYJSYTSSM-UHFFFAOYSA-N

>  <FORMULA>  (7291) 
C5H8N2O3

>  <EXACT MASS>  (7291) 
144.05349211599997

>  <MW>  (7291) 
144

>  <ID>  (7291) 
JP000243

>  <CONTRIBUTOR>  (7291) 
University of Tokyo Team, {Faculty of Engineering, University of Tokyo

>  <COMMENT>  (7291) 
SMILES=OCC(N1)C(=O)NCC(=O)1
InChI=InChI=1S/C5H8N2O3/c8-2-3-5(10)6-1-4(9)7-3/h3,8H,1-2H2,(H,6,10)(H,7,9)
computed SMILES=OC1=NC(C(O)=NC1)CO
accession=JP000243
date=2016.01.19 (Created 2008.10.21, modified 2011.05.06)
author=YAMAMOTO M, DEP. CHEMISTRY, FAC. SCIENCE, NARA WOMEN'S UNIV.
license=CC BY-NC-SA
exact mass=144.05349
ionization energy=70 eV
ion type=[M]+*
computed spectral entropy=2.449009956970871
computed normalized entropy=0.6782236584208295
SPLASH=splash10-03gi-9300000000-d176317583158cc03a0e
submitter=submitter = University of Tokyo Team (Faculty of Engineering, University of Tokyo)
MoNA Rating=3.75

>  <NUM PEAKS>  (7291) 
37

>  <MASS SPECTRAL PEAKS>  (7291) 
14 3.2
15 9.3
26 1.6
27 0.46
28 65.7
29 19.8
30 81.2
31 1.59
32 2.5
40 3.3
41 6.6
42 1.32
43 9
44 5.6
54 1.2
55 0.61
56 5.4
57 24
58 5.8
59 0.29
60 8.8
69 2.8
70 2.6
71 0.33
72 1.6
73 3.2
84 1.6
85 2.67
86 6.1
97 1.1
98 1.1
101 0.15
113 3.7
114 99.99
115 6.6
126 0.12
145 1.1

$$$$

     RDKit          2D

 11 11  0  0  0  0  0  0  0  0999 V2000
    2.5989   -1.5002    0.0000 C   0  0  0  0  0  0  0  0  0  0  0  0
   -2.5989    1.5002    0.0000 C   0  0  0  0  0  0  0  0  0  0  0  0
    1.3000   -0.7500    0.0000 C   0  0  0  0  0  0  0  0  0  0  0  0
   -1.3000    0.7500    0.0000 C   0  0  0  0  0  0  0  0  0  0  0  0
    1.3000    0.7500    0.0000 C   0  0  0  0  0  0  0  0  0  0  0  0
   -1.3000   -0.7500    0.0000 C   0  0  0  0  0  0  0  0  0  0  0  0
   -0.0000   -1.5000    0.0000 N   0  0  0  0  0  0  0  0  0  0  0  0
    0.0000    1.5000    0.0000 N   0  0  0  0  0  0  0  0  0  0  0  0
   -3.8981    0.7504    0.0000 O   0  0  0  0  0  0  0  0  0  0  0  0
    2.5989    1.5002    0.0000 O   0  0  0  0  0  0  0  0  0  0  0  0
   -2.5989   -1.5002    0.0000 O   0  0  0  0  0  0  0  0  0  0  0  0
  3  1  1  0
  4  2  1  0
  5  3  1  0
  6  4  1  0
  7  3  1  0
  7  6  2  0
  8  4  1  0
  8  5  2  0
  9  2  1  0
 10  5  1  0
 11  6  1  0
M  END
>  <NAME>  (7292) 
3-HYDROXYMETHYL-6-METHYL-2,5-PIPERAZINEDIONE

>  <SYNONYMS>  (7292) 
CYCLO-ALANYL-SERINE

>  <SPECTRUM TYPE>  (7292) 
MS1

>  <INSTRUMENT TYPE>  (7292) 
EI-B

>  <INSTRUMENT>  (7292) 
HITACHI RMU-6M

>  <ION MODE>  (7292) 
P

>  <INCHIKEY>  (7292) 
JJDWARJCLFFKRT-UHFFFAOYSA-N

>  <FORMULA>  (7292) 
C6H10N2O3

>  <EXACT MASS>  (7292) 
158.06914217999997

>  <MW>  (7292) 
158

>  <ID>  (7292) 
JP000242

>  <CONTRIBUTOR>  (7292) 
University of Tokyo Team, {Faculty of Engineering, University of Tokyo

>  <COMMENT>  (7292) 
SMILES=OCC(N1)C(=O)NC(C)C(=O)1
InChI=InChI=1S/C6H10N2O3/c1-3-5(10)8-4(2-9)6(11)7-3/h3-4,9H,2H2,1H3,(H,7,11)(H,8,10)
computed SMILES=OC1=NC(C(O)=NC1C)CO
accession=JP000242
date=2016.01.19 (Created 2008.10.21, modified 2011.05.06)
author=YAMAMOTO M, DEP. CHEMISTRY, FAC. SCIENCE, NARA WOMEN'S UNIV.
license=CC BY-NC-SA
exact mass=158.06914
ionization energy=70 eV
ion type=[M]+*
computed spectral entropy=2.8358582436911353
computed normalized entropy=0.7325525684924475
SPLASH=splash10-0006-9000000000-c5cb779dbd5dd7e602d3
submitter=submitter = University of Tokyo Team (Faculty of Engineering, University of Tokyo)
MoNA Rating=3.75

>  <NUM PEAKS>  (7292) 
48

>  <MASS SPECTRAL PEAKS>  (7292) 
14 2.7
15 20.5
26 3.7
27 1.22
28 58.9
29 8.3
30 10.5
31 1.12
32 1.7
39 1.5
40 4.9
41 1.14
42 34
43 11.5
44 99.99
45 0.31
54 1.8
55 6
56 6.6
57 0.64
58 3
59 1.5
60 19.6
69 0.54
70 5.3
71 8.7
72 2.1
73 0.16
83 1.2
84 1
85 8.5
86 0.1
87 2.6
97 6.4
98 1.6
99 1.57
100 2.1
111 1.3
112 2.8
113 1.56
114 1.3
115 2.4
127 2.9
128 7.45
129 5.9
140 5.1
158 1.3
159 1.1

$$$$

     RDKit          2D

 12 12  0  0  0  0  0  0  0  0999 V2000
   -6.4962    0.7508    0.0000 C   0  0  0  0  0  0  0  0  0  0  0  0
   -2.5989    1.5002    0.0000 C   0  0  0  0  0  0  0  0  0  0  0  0
   -3.8981    0.7504    0.0000 C   0  0  0  0  0  0  0  0  0  0  0  0
    1.3000   -0.7500    0.0000 C   0  0  0  0  0  0  0  0  0  0  0  0
   -1.3000    0.7500    0.0000 C   0  0  0  0  0  0  0  0  0  0  0  0
    1.3000    0.7500    0.0000 C   0  0  0  0  0  0  0  0  0  0  0  0
   -1.3000   -0.7500    0.0000 C   0  0  0  0  0  0  0  0  0  0  0  0
    0.0000   -1.5000    0.0000 N   0  0  0  0  0  0  0  0  0  0  0  0
    0.0000    1.5000    0.0000 N   0  0  0  0  0  0  0  0  0  0  0  0
    2.5989    1.5002    0.0000 O   0  0  0  0  0  0  0  0  0  0  0  0
   -2.5989   -1.5002    0.0000 O   0  0  0  0  0  0  0  0  0  0  0  0
   -5.1970    1.5006    0.0000 S   0  0  0  0  0  0  0  0  0  0  0  0
  3  2  1  0
  5  2  1  0
  6  4  1  0
  7  5  1  0
  8  4  1  0
  8  7  2  0
  9  5  1  0
  9  6  2  0
 10  6  1  0
 11  7  1  0
 12  1  1  0
 12  3  1  0
M  END
>  <NAME>  (7293) 
3-(2-METHYLTHIOETHYL)-2,5-PIPRAZINEDIONE

>  <SYNONYMS>  (7293) 
CYCLO-GLYCYL-METHIONINE

>  <SPECTRUM TYPE>  (7293) 
MS1

>  <INSTRUMENT TYPE>  (7293) 
EI-B

>  <INSTRUMENT>  (7293) 
HITACHI RMU-6M

>  <ION MODE>  (7293) 
P

>  <INCHIKEY>  (7293) 
BYJGBWBCRKWFFX-UHFFFAOYSA-N

>  <FORMULA>  (7293) 
C7H12N2O2S

>  <EXACT MASS>  (7293) 
188.061948624

>  <MW>  (7293) 
188

>  <ID>  (7293) 
JP000241

>  <CONTRIBUTOR>  (7293) 
University of Tokyo Team, {Faculty of Engineering, University of Tokyo

>  <COMMENT>  (7293) 
SMILES=CSCCC(N1)C(=O)NCC(=O)1
InChI=InChI=1S/C7H12N2O2S/c1-12-3-2-5-7(11)8-4-6(10)9-5/h5H,2-4H2,1H3,(H,8,11)(H,9,10)
computed SMILES=OC1=NC(C(O)=NC1)CCSC
accession=JP000241
date=2016.01.19 (Created 2008.10.21, modified 2011.05.06)
author=YAMAMOTO M, DEP. CHEMISTRY, FAC. SCIENCE, NARA WOMEN'S UNIV.
license=CC BY-NC-SA
exact mass=188.06195
ionization energy=70 eV
ion type=[M]+*
computed spectral entropy=3.1895167588177875
computed normalized entropy=0.7640682458524094
SPLASH=splash10-03di-9400000000-7c0ae676189164f0be22
submitter=submitter = University of Tokyo Team (Faculty of Engineering, University of Tokyo)
MoNA Rating=3.75

>  <NUM PEAKS>  (7293) 
65

>  <MASS SPECTRAL PEAKS>  (7293) 
14 1.5
15 3.9
26 1.7
27 1.42
28 40.1
29 9.2
30 44.3
31 0.15
32 5.5
35 5.3
39 5.4
40 0.17
41 11.6
42 10.9
43 3.4
44 0.41
45 10
46 4.3
47 9.9
48 0.48
49 2.4
52 1.3
54 6.9
55 0.55
56 19.5
57 21.3
58 2.9
59 0.39
60 1.6
61 25.9
62 12.9
63 0.2
67 2
68 2.9
69 2
70 0.16
71 1.3
72 1.2
73 1.6
74 0.15
75 6.3
82 1.5
83 1.4
84 0.31
85 13.5
86 10.6
87 1.3
88 0.36
97 1
98 1.2
99 19.7
100 0.16
111 1.5
113 3.2
114 99.99
115 0.56
116 1.2
126 1.7
127 15
128 0.12
140 4
141 1.4
188 28.1
189 0.31
190 1.4

$$$$

     RDKit          2D

  9  8  0  0  0  0  0  0  0  0999 V2000
    2.0490    4.0981    0.0000 C   0  0  0  0  0  0  0  0  0  0  0  0
    2.0490    1.0981    0.0000 C   0  0  0  0  0  0  0  0  0  0  0  0
    3.5490    2.5981    0.0000 C   0  0  0  0  0  0  0  0  0  0  0  0
   -1.5000    2.0490    0.0000 C   0  0  0  0  0  0  0  0  0  0  0  0
   -0.9510    0.0000    0.0000 C   0  0  0  0  0  0  0  0  0  0  0  0
    0.5490    2.5981    0.0000 C   0  0  0  0  0  0  0  0  0  0  0  0
    2.0490    2.5981    0.0000 C   0  0  0  0  0  0  0  0  0  0  0  0
   -0.2010    1.2990    0.0000 C   0  0  0  0  0  0  0  0  0  0  0  0
    1.0981    0.5490    0.0000 N   0  0  0  0  0  0  0  0  0  0  0  0
  7  1  1  0
  7  2  1  0
  7  3  1  0
  7  6  1  0
  8  4  1  0
  8  5  1  0
  8  6  1  0
  9  8  1  0
M  END
>  <NAME>  (7294) 
1,1,3,3-TETRAMETHYL-1-BUTYLAMINE

>  <SYNONYMS>  (7294) 


>  <SPECTRUM TYPE>  (7294) 
MS1

>  <INSTRUMENT TYPE>  (7294) 
EI-B

>  <INSTRUMENT>  (7294) 
HITACHI RMU-6M

>  <ION MODE>  (7294) 
P

>  <INCHIKEY>  (7294) 
QIJIUJYANDSEKG-UHFFFAOYSA-N

>  <FORMULA>  (7294) 
C8H19N

>  <EXACT MASS>  (7294) 
129.151749608

>  <MW>  (7294) 
129

>  <ID>  (7294) 
JP000240

>  <CONTRIBUTOR>  (7294) 
University of Tokyo Team, {Faculty of Engineering, University of Tokyo

>  <COMMENT>  (7294) 
SMILES=CC(C)(C)CC(C)(C)N
InChI=InChI=1S/C8H19N/c1-7(2,3)6-8(4,5)9/h6,9H2,1-5H3
computed SMILES=NC(C)(C)CC(C)(C)C
accession=JP000240
date=2016.01.19 (Created 2008.10.21, modified 2011.05.06)
author=YAMAMOTO M, DEP. CHEMISTRY, FAC. SCIENCE, NARA WOMEN'S UNIV.
license=CC BY-NC-SA
exact mass=129.15175
ionization energy=70 eV
ion type=[M]+*
computed spectral entropy=1.7070019095524922
computed normalized entropy=0.6156707974248429
SPLASH=splash10-0a4i-9000000000-28304328da7c10cefb28
submitter=submitter = University of Tokyo Team (Faculty of Engineering, University of Tokyo)
MoNA Rating=3.75

>  <NUM PEAKS>  (7294) 
16

>  <MASS SPECTRAL PEAKS>  (7294) 
15 1.9
18 7.6
27 3.5
28 0.21
29 5.4
30 3.3
39 3.7
41 1.03
42 8.2
55 2.9
56 28
57 7.99
58 99.99
59 3.8
72 2.1
114 3

$$$$

     RDKit          2D

  9  8  0  0  0  0  0  0  0  0999 V2000
    1.6238    3.9375    0.0000 C   0  0  0  0  0  0  0  0  0  0  0  0
   -6.1704    3.9375    0.0000 C   0  0  0  0  0  0  0  0  0  0  0  0
    0.3248    4.6875    0.0000 C   0  0  0  0  0  0  0  0  0  0  0  0
   -4.8714    4.6875    0.0000 C   0  0  0  0  0  0  0  0  0  0  0  0
   -0.9743    3.9375    0.0000 C   0  0  0  0  0  0  0  0  0  0  0  0
   -2.2733    4.6875    0.0000 C   0  0  0  0  0  0  0  0  0  0  0  0
   -3.5724    2.4375    0.0000 C   0  0  0  0  0  0  0  0  0  0  0  0
   -3.5724    3.9375    0.0000 C   0  0  0  0  0  0  0  0  0  0  0  0
   -4.8714    1.6875    0.0000 N   0  0  0  0  0  0  0  0  0  0  0  0
  3  1  1  0
  4  2  1  0
  5  3  1  0
  6  5  1  0
  8  4  1  0
  8  6  1  0
  8  7  1  0
  9  7  1  0
M  END
>  <NAME>  (7295) 
2-ETHYL-1-HEXYLAMINE

>  <SYNONYMS>  (7295) 


>  <SPECTRUM TYPE>  (7295) 
MS1

>  <INSTRUMENT TYPE>  (7295) 
EI-B

>  <INSTRUMENT>  (7295) 
HITACHI RMU-6M

>  <ION MODE>  (7295) 
P

>  <INCHIKEY>  (7295) 
LTHNHFOGQMKPOV-UHFFFAOYSA-N

>  <FORMULA>  (7295) 
C8H19N

>  <EXACT MASS>  (7295) 
129.151749608

>  <MW>  (7295) 
129

>  <ID>  (7295) 
JP000239

>  <CONTRIBUTOR>  (7295) 
University of Tokyo Team, {Faculty of Engineering, University of Tokyo

>  <COMMENT>  (7295) 
SMILES=CCCCC(CC)CN
InChI=InChI=1S/C8H19N/c1-3-5-6-8(4-2)7-9/h8H,3-7,9H2,1-2H3
computed SMILES=NCC(CC)CCCC
accession=JP000239
date=2016.01.19 (Created 2008.10.21, modified 2011.05.06)
author=YAMAMOTO M, DEP. CHEMISTRY, FAC. SCIENCE, NARA WOMEN'S UNIV.
license=CC BY-NC-SA
exact mass=129.15175
ionization energy=70 eV
ion type=[M]+*
computed spectral entropy=1.1737041069686105
computed normalized entropy=0.423324273648656
SPLASH=splash10-001i-9000000000-5b0bc80fdfeef2ff50d3
submitter=submitter = University of Tokyo Team (Faculty of Engineering, University of Tokyo)
MoNA Rating=3.75

>  <NUM PEAKS>  (7295) 
16

>  <MASS SPECTRAL PEAKS>  (7295) 
18 4.3
27 4.4
28 2.8
29 0.5
30 99.99
31 2
39 2.8
41 0.75
42 1.8
55 3.2
56 3.6
58 0.18
69 1.5
70 1.2
112 1.5
129 1.9

$$$$

     RDKit          2D

  9  8  0  0  0  0  0  0  0  0999 V2000
   -7.4695    3.9375    0.0000 C   0  0  0  0  0  0  0  0  0  0  0  0
    1.6238    3.1875    0.0000 C   0  0  0  0  0  0  0  0  0  0  0  0
   -6.1704    3.1875    0.0000 C   0  0  0  0  0  0  0  0  0  0  0  0
   -4.8714    3.9375    0.0000 C   0  0  0  0  0  0  0  0  0  0  0  0
   -3.5724    3.1875    0.0000 C   0  0  0  0  0  0  0  0  0  0  0  0
   -2.2733    3.9375    0.0000 C   0  0  0  0  0  0  0  0  0  0  0  0
   -0.9743    3.1875    0.0000 C   0  0  0  0  0  0  0  0  0  0  0  0
    0.3248    3.9375    0.0000 C   0  0  0  0  0  0  0  0  0  0  0  0
    0.3248    5.4375    0.0000 N   0  0  0  0  0  0  0  0  0  0  0  0
  3  1  1  0
  4  3  1  0
  5  4  1  0
  6  5  1  0
  7  6  1  0
  8  2  1  0
  8  7  1  0
  9  8  1  0
M  END
>  <NAME>  (7296) 
2-OCTYLAMINE

>  <SYNONYMS>  (7296) 


>  <SPECTRUM TYPE>  (7296) 
MS1

>  <INSTRUMENT TYPE>  (7296) 
EI-B

>  <INSTRUMENT>  (7296) 
HITACHI RMU-6M

>  <ION MODE>  (7296) 
P

>  <INCHIKEY>  (7296) 
HBXNJMZWGSCKPW-UHFFFAOYSA-N

>  <FORMULA>  (7296) 
C8H19N

>  <EXACT MASS>  (7296) 
129.151749608

>  <MW>  (7296) 
129

>  <ID>  (7296) 
JP000238

>  <CONTRIBUTOR>  (7296) 
University of Tokyo Team, {Faculty of Engineering, University of Tokyo

>  <COMMENT>  (7296) 
SMILES=CCCCCCC(C)N
InChI=InChI=1S/C8H19N/c1-3-4-5-6-7-8(2)9/h8H,3-7,9H2,1-2H3
computed SMILES=NC(C)CCCCCC
accession=JP000238
date=2016.01.19 (Created 2008.10.21, modified 2011.05.06)
author=YAMAMOTO M, DEP. CHEMISTRY, FAC. SCIENCE, NARA WOMEN'S UNIV.
license=CC BY-NC-SA
exact mass=129.15175
ionization energy=70 eV
ion type=[M]+*
computed spectral entropy=1.3511219396843117
computed normalized entropy=0.4873142305047084
SPLASH=splash10-0006-9000000000-92c857b739b3be6abe1f
submitter=submitter = University of Tokyo Team (Faculty of Engineering, University of Tokyo)
MoNA Rating=3.75

>  <NUM PEAKS>  (7296) 
16

>  <MASS SPECTRAL PEAKS>  (7296) 
15 1.1
18 5.6
27 4.2
28 0.26
29 3.6
30 6.8
39 2.5
41 0.57
42 4.2
43 4.2
44 99.99
45 0.25
55 3.1
56 2.3
58 1
114 3.4

$$$$

     RDKit          2D

  9  8  0  0  0  0  0  0  0  0999 V2000
    2.5981    4.5000    0.0000 C   0  0  0  0  0  0  0  0  0  0  0  0
    1.2990    5.2500    0.0000 C   0  0  0  0  0  0  0  0  0  0  0  0
    0.0000    4.5000    0.0000 C   0  0  0  0  0  0  0  0  0  0  0  0
   -1.2990    5.2500    0.0000 C   0  0  0  0  0  0  0  0  0  0  0  0
   -2.5981    4.5000    0.0000 C   0  0  0  0  0  0  0  0  0  0  0  0
   -3.8971    5.2500    0.0000 C   0  0  0  0  0  0  0  0  0  0  0  0
   -5.1962    4.5000    0.0000 C   0  0  0  0  0  0  0  0  0  0  0  0
   -6.4952    5.2500    0.0000 C   0  0  0  0  0  0  0  0  0  0  0  0
   -7.7942    4.5000    0.0000 N   0  0  0  0  0  0  0  0  0  0  0  0
  2  1  1  0
  3  2  1  0
  4  3  1  0
  5  4  1  0
  6  5  1  0
  7  6  1  0
  8  7  1  0
  9  8  1  0
M  END
>  <NAME>  (7297) 
1-OCTYLAMINE

>  <SYNONYMS>  (7297) 


>  <SPECTRUM TYPE>  (7297) 
MS1

>  <INSTRUMENT TYPE>  (7297) 
EI-B

>  <INSTRUMENT>  (7297) 
HITACHI RMU-6M

>  <ION MODE>  (7297) 
P

>  <INCHIKEY>  (7297) 
IOQPZZOEVPZRBK-UHFFFAOYSA-N

>  <FORMULA>  (7297) 
C8H19N

>  <EXACT MASS>  (7297) 
129.151749608

>  <MW>  (7297) 
129

>  <ID>  (7297) 
JP000237

>  <CONTRIBUTOR>  (7297) 
University of Tokyo Team, {Faculty of Engineering, University of Tokyo

>  <COMMENT>  (7297) 
SMILES=CCCCCCCCN
InChI=InChI=1S/C8H19N/c1-2-3-4-5-6-7-8-9/h2-9H2,1H3
computed SMILES=NCCCCCCCC
accession=JP000237
date=2016.01.19 (Created 2008.10.21, modified 2011.05.06)
author=YAMAMOTO M, DEP. CHEMISTRY, FAC. SCIENCE, NARA WOMEN'S UNIV.
license=CC BY-NC-SA
exact mass=129.15175
ionization energy=70 eV
ion type=[M]+*
computed spectral entropy=1.3181647725488126
computed normalized entropy=0.46525432873390343
SPLASH=splash10-001i-9000000000-10e9bfe4ffd4a180bed1
submitter=submitter = University of Tokyo Team (Faculty of Engineering, University of Tokyo)
MoNA Rating=3.75

>  <NUM PEAKS>  (7297) 
17

>  <MASS SPECTRAL PEAKS>  (7297) 
18 5.6
27 4.8
28 2.8
29 0.45
30 99.99
31 2
39 2.9
41 0.72
42 2.6
43 3.4
44 6.1
45 0.5
55 2.8
56 2.3
69 1.5
86 0.21
128 1.3

$$$$

     RDKit          2D

  8  7  0  0  0  0  0  0  0  0999 V2000
   -6.4952    4.5000    0.0000 C   0  0  0  0  0  0  0  0  0  0  0  0
   -5.1962    3.7500    0.0000 C   0  0  0  0  0  0  0  0  0  0  0  0
   -3.8971    4.5000    0.0000 C   0  0  0  0  0  0  0  0  0  0  0  0
   -2.5981    3.7500    0.0000 C   0  0  0  0  0  0  0  0  0  0  0  0
   -1.2990    4.5000    0.0000 C   0  0  0  0  0  0  0  0  0  0  0  0
    0.0000    3.7500    0.0000 C   0  0  0  0  0  0  0  0  0  0  0  0
    1.2990    4.5000    0.0000 C   0  0  0  0  0  0  0  0  0  0  0  0
    2.5981    3.7500    0.0000 N   0  0  0  0  0  0  0  0  0  0  0  0
  2  1  1  0
  3  2  1  0
  4  3  1  0
  5  4  1  0
  6  5  1  0
  7  6  1  0
  8  7  1  0
M  END
>  <NAME>  (7298) 
1-HEPTYLAMINE

>  <SYNONYMS>  (7298) 


>  <SPECTRUM TYPE>  (7298) 
MS1

>  <INSTRUMENT TYPE>  (7298) 
EI-B

>  <INSTRUMENT>  (7298) 
HITACHI RMU-6M

>  <ION MODE>  (7298) 
P

>  <INCHIKEY>  (7298) 
WJYIASZWHGOTOU-UHFFFAOYSA-N

>  <FORMULA>  (7298) 
C7H17N

>  <EXACT MASS>  (7298) 
115.13609954399999

>  <MW>  (7298) 
115

>  <ID>  (7298) 
JP000236

>  <CONTRIBUTOR>  (7298) 
University of Tokyo Team, {Faculty of Engineering, University of Tokyo

>  <COMMENT>  (7298) 
SMILES=CCCCCCCN
InChI=InChI=1S/C7H17N/c1-2-3-4-5-6-7-8/h2-8H2,1H3
computed SMILES=NCCCCCCC
accession=JP000236
date=2016.01.19 (Created 2008.10.21, modified 2011.05.06)
author=YAMAMOTO M, DEP. CHEMISTRY, FAC. SCIENCE, NARA WOMEN'S UNIV.
license=CC BY-NC-SA
exact mass=115.1361
ionization energy=70 eV
ion type=[M]+*
computed spectral entropy=1.3534603050617502
computed normalized entropy=0.48815761753816267
SPLASH=splash10-001i-9000000000-3e4c53fea4cfa1621d3d
submitter=submitter = University of Tokyo Team (Faculty of Engineering, University of Tokyo)
MoNA Rating=3.75

>  <NUM PEAKS>  (7298) 
16

>  <MASS SPECTRAL PEAKS>  (7298) 
18 4.5
27 5.6
28 3.6
29 0.43
30 99.99
31 2
39 3.7
41 0.68
42 2.6
43 3.1
44 6.1
45 0.47
55 3.2
56 2.4
86 1.9
115 1.8

$$$$

     RDKit          2D

  7  6  0  0  0  0  0  0  0  0999 V2000
    1.9486    3.3750    0.0000 C   0  0  0  0  0  0  0  0  0  0  0  0
    0.6495    4.1250    0.0000 C   0  0  0  0  0  0  0  0  0  0  0  0
   -0.6495    3.3750    0.0000 C   0  0  0  0  0  0  0  0  0  0  0  0
   -1.9486    4.1250    0.0000 C   0  0  0  0  0  0  0  0  0  0  0  0
   -3.2476    3.3750    0.0000 C   0  0  0  0  0  0  0  0  0  0  0  0
   -4.5466    4.1250    0.0000 C   0  0  0  0  0  0  0  0  0  0  0  0
   -5.8457    3.3750    0.0000 N   0  0  0  0  0  0  0  0  0  0  0  0
  2  1  1  0
  3  2  1  0
  4  3  1  0
  5  4  1  0
  6  5  1  0
  7  6  1  0
M  END
>  <NAME>  (7299) 
1-HEXYLAMINE

>  <SYNONYMS>  (7299) 


>  <SPECTRUM TYPE>  (7299) 
MS1

>  <INSTRUMENT TYPE>  (7299) 
EI-B

>  <INSTRUMENT>  (7299) 
HITACHI RMU-6M

>  <ION MODE>  (7299) 
P

>  <INCHIKEY>  (7299) 
BMVXCPBXGZKUPN-UHFFFAOYSA-N

>  <FORMULA>  (7299) 
C6H15N

>  <EXACT MASS>  (7299) 
101.12044947999999

>  <MW>  (7299) 
101

>  <ID>  (7299) 
JP000235

>  <CONTRIBUTOR>  (7299) 
University of Tokyo Team, {Faculty of Engineering, University of Tokyo

>  <COMMENT>  (7299) 
SMILES=CCCCCCN
InChI=InChI=1S/C6H15N/c1-2-3-4-5-6-7/h2-7H2,1H3
computed SMILES=NCCCCCC
accession=JP000235
date=2016.01.19 (Created 2008.10.21, modified 2011.05.06)
author=YAMAMOTO M, DEP. CHEMISTRY, FAC. SCIENCE, NARA WOMEN'S UNIV.
license=CC BY-NC-SA
exact mass=101.12045
ionization energy=70 eV
ion type=[M]+*
computed spectral entropy=1.2116408647020005
computed normalized entropy=0.4370070667109979
SPLASH=splash10-001i-9000000000-d48d2416082ec4f57127
submitter=submitter = University of Tokyo Team (Faculty of Engineering, University of Tokyo)
MoNA Rating=3.75

>  <NUM PEAKS>  (7299) 
16

>  <MASS SPECTRAL PEAKS>  (7299) 
15 1
18 3.8
27 5
28 0.37
29 3.3
30 99.99
31 1.8
39 0.31
41 4.5
42 2.2
43 2
44 0.43
45 3.5
55 1.9
56 1.7
101 2.8

$$$$

     RDKit          2D

  6  5  0  0  0  0  0  0  0  0999 V2000
   -4.5466    3.3750    0.0000 C   0  0  0  0  0  0  0  0  0  0  0  0
   -3.2476    2.6250    0.0000 C   0  0  0  0  0  0  0  0  0  0  0  0
   -1.9486    3.3750    0.0000 C   0  0  0  0  0  0  0  0  0  0  0  0
   -0.6495    2.6250    0.0000 C   0  0  0  0  0  0  0  0  0  0  0  0
    0.6495    3.3750    0.0000 C   0  0  0  0  0  0  0  0  0  0  0  0
    1.9486    2.6250    0.0000 N   0  0  0  0  0  0  0  0  0  0  0  0
  2  1  1  0
  3  2  1  0
  4  3  1  0
  5  4  1  0
  6  5  1  0
M  END
>  <NAME>  (7300) 
1-PENTYLAMINE

>  <SYNONYMS>  (7300) 
AMYLAMINE

>  <SPECTRUM TYPE>  (7300) 
MS1

>  <INSTRUMENT TYPE>  (7300) 
EI-B

>  <INSTRUMENT>  (7300) 
HITACHI RMU-6M

>  <ION MODE>  (7300) 
P

>  <INCHIKEY>  (7300) 
DPBLXKKOBLCELK-UHFFFAOYSA-N

>  <FORMULA>  (7300) 
C5H13N

>  <EXACT MASS>  (7300) 
87.10479941599999

>  <MW>  (7300) 
87

>  <ID>  (7300) 
JP000234

>  <CONTRIBUTOR>  (7300) 
University of Tokyo Team, {Faculty of Engineering, University of Tokyo

>  <COMMENT>  (7300) 
SMILES=CCCCCN
InChI=InChI=1S/C5H13N/c1-2-3-4-5-6/h2-6H2,1H3
computed SMILES=NCCCCC
accession=JP000234
date=2016.01.19 (Created 2008.10.21, modified 2011.05.06)
author=YAMAMOTO M, DEP. CHEMISTRY, FAC. SCIENCE, NARA WOMEN'S UNIV.
license=CC BY-NC-SA
exact mass=87.1048
ionization energy=70 eV
ion type=[M]+*
computed spectral entropy=1.1469595582593488
computed normalized entropy=0.42353703701376066
SPLASH=splash10-001i-9000000000-859df44a2273d5f6066d
submitter=submitter = University of Tokyo Team (Faculty of Engineering, University of Tokyo)
MoNA Rating=3.75

>  <NUM PEAKS>  (7300) 
15

>  <MASS SPECTRAL PEAKS>  (7300) 
15 1.1
18 3.2
27 5.3
28 0.49
29 2.5
30 99.99
31 1.8
39 0.39
41 3.8
42 2.7
43 1.6
44 0.25
45 3.2
55 1
87 5.5

$$$$

     RDKit          2D

  5  4  0  0  0  0  0  0  0  0999 V2000
   -1.2990    0.7500    0.0000 C   0  0  0  0  0  0  0  0  0  0  0  0
    0.7500    0.2010    0.0000 C   0  0  0  0  0  0  0  0  0  0  0  0
    1.2990    2.2500    0.0000 C   0  0  0  0  0  0  0  0  0  0  0  0
    0.0000    1.5000    0.0000 C   0  0  0  0  0  0  0  0  0  0  0  0
   -0.7500    2.7990    0.0000 N   0  0  0  0  0  0  0  0  0  0  0  0
  4  1  1  0
  4  2  1  0
  4  3  1  0
  5  4  1  0
M  END
>  <NAME>  (7301) 
2-METHYL-2-PROPYLAMINE

>  <SYNONYMS>  (7301) 
TERT-BUTYLAMINE

>  <SPECTRUM TYPE>  (7301) 
MS1

>  <INSTRUMENT TYPE>  (7301) 
EI-B

>  <INSTRUMENT>  (7301) 
HITACHI RMU-6M

>  <ION MODE>  (7301) 
P

>  <INCHIKEY>  (7301) 
YBRBMKDOPFTVDT-UHFFFAOYSA-N

>  <FORMULA>  (7301) 
C4H11N

>  <EXACT MASS>  (7301) 
73.08914935199999

>  <MW>  (7301) 
73

>  <ID>  (7301) 
JP000233

>  <CONTRIBUTOR>  (7301) 
University of Tokyo Team, {Faculty of Engineering, University of Tokyo

>  <COMMENT>  (7301) 
SMILES=CC(C)(C)N
InChI=InChI=1S/C4H11N/c1-4(2,3)5/h5H2,1-3H3
computed SMILES=NC(C)(C)C
accession=JP000233
date=2016.01.19 (Created 2008.10.21, modified 2011.05.06)
author=YAMAMOTO M, DEP. CHEMISTRY, FAC. SCIENCE, NARA WOMEN'S UNIV.
license=CC BY-NC-SA
exact mass=73.08915
ionization energy=70 eV
ion type=[M]+*
computed spectral entropy=1.7537318019494137
computed normalized entropy=0.6325250434304213
SPLASH=splash10-0a4i-9000000000-2320394d84c493ae1bcb
submitter=submitter = University of Tokyo Team (Faculty of Engineering, University of Tokyo)
MoNA Rating=3.75

>  <NUM PEAKS>  (7301) 
16

>  <MASS SPECTRAL PEAKS>  (7301) 
15 5.3
18 9.8
27 4.2
28 0.56
29 9
39 5.6
40 1.5
41 0.56
42 18.6
43 12.6
44 2.9
55 0.19
56 2.4
57 5.8
58 99.99
59 4.8

$$$$

     RDKit          2D

  5  4  0  0  0  0  0  0  0  0999 V2000
   -0.0000   -0.0000    0.0000 C   0  0  0  0  0  0  0  0  0  0  0  0
   -1.2990    3.7500    0.0000 C   0  0  0  0  0  0  0  0  0  0  0  0
    0.0000    1.5000    0.0000 C   0  0  0  0  0  0  0  0  0  0  0  0
   -1.2990    2.2500    0.0000 C   0  0  0  0  0  0  0  0  0  0  0  0
   -2.5981    1.5000    0.0000 N   0  0  0  0  0  0  0  0  0  0  0  0
  3  1  1  0
  4  2  1  0
  4  3  1  0
  5  4  1  0
M  END
>  <NAME>  (7302) 
2-BUTYLAMINE

>  <SYNONYMS>  (7302) 
SEC-BUTYLAMINE

>  <SPECTRUM TYPE>  (7302) 
MS1

>  <INSTRUMENT TYPE>  (7302) 
EI-B

>  <INSTRUMENT>  (7302) 
HITACHI RMU-6M

>  <ION MODE>  (7302) 
P

>  <INCHIKEY>  (7302) 
BHRZNVHARXXAHW-UHFFFAOYSA-N

>  <FORMULA>  (7302) 
C4H11N

>  <EXACT MASS>  (7302) 
73.08914935199999

>  <MW>  (7302) 
73

>  <ID>  (7302) 
JP000232

>  <CONTRIBUTOR>  (7302) 
University of Tokyo Team, {Faculty of Engineering, University of Tokyo

>  <COMMENT>  (7302) 
SMILES=CCC(C)N
InChI=InChI=1S/C4H11N/c1-3-4(2)5/h4H,3,5H2,1-2H3
computed SMILES=NC(C)CC
accession=JP000232
date=2016.01.19 (Created 2008.10.21, modified 2011.05.06)
author=YAMAMOTO M, DEP. CHEMISTRY, FAC. SCIENCE, NARA WOMEN'S UNIV.
license=CC BY-NC-SA
exact mass=73.08915
ionization energy=70 eV
ion type=[M]+*
computed spectral entropy=1.801055701374641
computed normalized entropy=0.6012071630279419
SPLASH=splash10-0006-9000000000-01fa68dd88d78104607e
submitter=submitter = University of Tokyo Team (Faculty of Engineering, University of Tokyo)
MoNA Rating=3.75

>  <NUM PEAKS>  (7302) 
20

>  <MASS SPECTRAL PEAKS>  (7302) 
15 3.8
18 14.8
26 1
27 0.67
28 7.6
29 3.2
30 8.4
39 0.28
40 1
41 10.1
42 8.1
43 0.38
44 99.99
45 2.7
55 2.5
56 0.25
57 1.7
58 12.5
72 1.9
73 1.4

$$$$

     RDKit          2D

  5  4  0  0  0  0  0  0  0  0999 V2000
    0.0000    0.0000    0.0000 C   0  0  0  0  0  0  0  0  0  0  0  0
    1.2990    2.2500    0.0000 C   0  0  0  0  0  0  0  0  0  0  0  0
   -1.2990    2.2500    0.0000 C   0  0  0  0  0  0  0  0  0  0  0  0
    0.0000    1.5000    0.0000 C   0  0  0  0  0  0  0  0  0  0  0  0
   -1.2990    3.7500    0.0000 N   0  0  0  0  0  0  0  0  0  0  0  0
  4  1  1  0
  4  2  1  0
  4  3  1  0
  5  3  1  0
M  END
>  <NAME>  (7303) 
2-METHYL-1-PROPYLAMINE

>  <SYNONYMS>  (7303) 
ISO-BUTYLAMINE

>  <SPECTRUM TYPE>  (7303) 
MS1

>  <INSTRUMENT TYPE>  (7303) 
EI-B

>  <INSTRUMENT>  (7303) 
HITACHI RMU-6M

>  <ION MODE>  (7303) 
P

>  <INCHIKEY>  (7303) 
KDSNLYIMUZNERS-UHFFFAOYSA-N

>  <FORMULA>  (7303) 
C4H11N

>  <EXACT MASS>  (7303) 
73.08914935199999

>  <MW>  (7303) 
73

>  <ID>  (7303) 
JP000231

>  <CONTRIBUTOR>  (7303) 
University of Tokyo Team, {Faculty of Engineering, University of Tokyo

>  <COMMENT>  (7303) 
SMILES=NCC(C)C
InChI=InChI=1S/C4H11N/c1-4(2)3-5/h4H,3,5H2,1-2H3
computed SMILES=NCC(C)C
accession=JP000231
date=2016.01.19 (Created 2008.10.21, modified 2011.05.06)
author=YAMAMOTO M, DEP. CHEMISTRY, FAC. SCIENCE, NARA WOMEN'S UNIV.
license=CC BY-NC-SA
exact mass=73.08915
ionization energy=70 eV
ion type=[M]+*
computed spectral entropy=1.1456406918429622
computed normalized entropy=0.4132025361906107
SPLASH=splash10-001i-9000000000-574f66588dfab0402c22
submitter=submitter = University of Tokyo Team (Faculty of Engineering, University of Tokyo)
MoNA Rating=3.75

>  <NUM PEAKS>  (7303) 
16

>  <MASS SPECTRAL PEAKS>  (7303) 
15 1
18 1
27 4.2
28 0.74
29 2.1
30 99.99
31 2.2
39 0.42
41 6
42 1.5
43 1.3
56 0.24
57 2.2
59 1.7
72 1
73 7.4

$$$$

     RDKit          2D

  5  4  0  0  0  0  0  0  0  0999 V2000
   -3.8971    2.2500    0.0000 C   0  0  0  0  0  0  0  0  0  0  0  0
   -2.5981    1.5000    0.0000 C   0  0  0  0  0  0  0  0  0  0  0  0
   -1.2990    2.2500    0.0000 C   0  0  0  0  0  0  0  0  0  0  0  0
    0.0000    1.5000    0.0000 C   0  0  0  0  0  0  0  0  0  0  0  0
    1.2990    2.2500    0.0000 N   0  0  0  0  0  0  0  0  0  0  0  0
  2  1  1  0
  3  2  1  0
  4  3  1  0
  5  4  1  0
M  END
>  <NAME>  (7304) 
1-BUTYLAMINE

>  <SYNONYMS>  (7304) 


>  <SPECTRUM TYPE>  (7304) 
MS1

>  <INSTRUMENT TYPE>  (7304) 
EI-B

>  <INSTRUMENT>  (7304) 
HITACHI RMU-6M

>  <ION MODE>  (7304) 
P

>  <INCHIKEY>  (7304) 
HQABUPZFAYXKJW-UHFFFAOYSA-N

>  <FORMULA>  (7304) 
C4H11N

>  <EXACT MASS>  (7304) 
73.08914935199999

>  <MW>  (7304) 
73

>  <ID>  (7304) 
JP000230

>  <CONTRIBUTOR>  (7304) 
University of Tokyo Team, {Faculty of Engineering, University of Tokyo

>  <COMMENT>  (7304) 
SMILES=CCCCN
InChI=InChI=1S/C4H11N/c1-2-3-4-5/h2-5H2,1H3
computed SMILES=NCCCC
accession=JP000230
date=2016.01.19 (Created 2008.10.21, modified 2011.05.06)
author=YAMAMOTO M, DEP. CHEMISTRY, FAC. SCIENCE, NARA WOMEN'S UNIV.
license=CC BY-NC-SA
exact mass=73.08915
ionization energy=70 eV
ion type=[M]+*
computed spectral entropy=1.0566039250364692
computed normalized entropy=0.40037172106090957
SPLASH=splash10-001i-9000000000-8d8e2f1b9d5be13a2c4b
submitter=submitter = University of Tokyo Team (Faculty of Engineering, University of Tokyo)
MoNA Rating=3.75

>  <NUM PEAKS>  (7304) 
14

>  <MASS SPECTRAL PEAKS>  (7304) 
15 1.3
18 3.3
27 5.4
28 0.66
29 2.1
30 99.99
31 1.9
39 0.3
41 3
42 2.2
43 1.2
44 0.17
56 1
73 7.8

$$$$

     RDKit          2D

  4  3  0  0  0  0  0  0  0  0999 V2000
    0.9743    0.5625    0.0000 C   0  0  0  0  0  0  0  0  0  0  0  0
   -1.6238    0.5625    0.0000 C   0  0  0  0  0  0  0  0  0  0  0  0
   -0.3248    1.3125    0.0000 C   0  0  0  0  0  0  0  0  0  0  0  0
   -0.3248    2.8125    0.0000 N   0  0  0  0  0  0  0  0  0  0  0  0
  3  1  1  0
  3  2  1  0
  4  3  1  0
M  END
>  <NAME>  (7305) 
2-PROPYLAMINE

>  <SYNONYMS>  (7305) 
ISO-PROPYLAMINE

>  <SPECTRUM TYPE>  (7305) 
MS1

>  <INSTRUMENT TYPE>  (7305) 
EI-B

>  <INSTRUMENT>  (7305) 
HITACHI RMU-6M

>  <ION MODE>  (7305) 
P

>  <INCHIKEY>  (7305) 
JJWLVOIRVHMVIS-UHFFFAOYSA-N

>  <FORMULA>  (7305) 
C3H9N

>  <EXACT MASS>  (7305) 
59.073499288

>  <MW>  (7305) 
59

>  <ID>  (7305) 
JP000229

>  <CONTRIBUTOR>  (7305) 
University of Tokyo Team, {Faculty of Engineering, University of Tokyo

>  <COMMENT>  (7305) 
SMILES=CC(C)N
InChI=InChI=1S/C3H9N/c1-3(2)4/h3H,4H2,1-2H3
computed SMILES=NC(C)C
accession=JP000229
date=2016.01.19 (Created 2008.10.21, modified 2011.05.06)
author=YAMAMOTO M, DEP. CHEMISTRY, FAC. SCIENCE, NARA WOMEN'S UNIV.
license=CC BY-NC-SA
exact mass=59.0735
ionization energy=70 eV
ion type=[M]+*
computed spectral entropy=1.552470656975427
computed normalized entropy=0.5599354294860199
SPLASH=splash10-0006-9000000000-79fbb7d6eec06fe51482
submitter=submitter = University of Tokyo Team (Faculty of Engineering, University of Tokyo)
MoNA Rating=3.75

>  <NUM PEAKS>  (7305) 
16

>  <MASS SPECTRAL PEAKS>  (7305) 
15 5.3
18 25.8
26 1.1
27 0.47
28 6.4
30 2.5
38 1
39 0.39
40 2.1
41 6.5
42 10.1
43 0.44
44 99.99
45 2
58 4.9
59 2.1

$$$$

     RDKit          2D

  4  3  0  0  0  0  0  0  0  0999 V2000
   -2.5981    2.2500    0.0000 C   0  0  0  0  0  0  0  0  0  0  0  0
   -1.2990    1.5000    0.0000 C   0  0  0  0  0  0  0  0  0  0  0  0
    0.0000    2.2500    0.0000 C   0  0  0  0  0  0  0  0  0  0  0  0
    1.2990    1.5000    0.0000 N   0  0  0  0  0  0  0  0  0  0  0  0
  2  1  1  0
  3  2  1  0
  4  3  1  0
M  END
>  <NAME>  (7306) 
1-PROPYLAMINE

>  <SYNONYMS>  (7306) 


>  <SPECTRUM TYPE>  (7306) 
MS1

>  <INSTRUMENT TYPE>  (7306) 
EI-B

>  <INSTRUMENT>  (7306) 
HITACHI RMU-6M

>  <ION MODE>  (7306) 
P

>  <INCHIKEY>  (7306) 
WGYKZJWCGVVSQN-UHFFFAOYSA-N

>  <FORMULA>  (7306) 
C3H9N

>  <EXACT MASS>  (7306) 
59.073499287999994

>  <MW>  (7306) 
59

>  <ID>  (7306) 
JP000228

>  <CONTRIBUTOR>  (7306) 
University of Tokyo Team, {Faculty of Engineering, University of Tokyo

>  <COMMENT>  (7306) 
SMILES=CCCN
InChI=InChI=1S/C3H9N/c1-2-3-4/h2-4H2,1H3
computed SMILES=NCCC
accession=JP000228
date=2016.01.19 (Created 2008.10.21, modified 2011.05.06)
author=YAMAMOTO M, DEP. CHEMISTRY, FAC. SCIENCE, NARA WOMEN'S UNIV.
license=CC BY-NC-SA
exact mass=59.0735
ionization energy=70 eV
ion type=[M]+*
computed spectral entropy=1.258734263703817
computed normalized entropy=0.4648120124181954
SPLASH=splash10-001i-9000000000-96cb2505cd21b3a75c29
submitter=submitter = University of Tokyo Team (Faculty of Engineering, University of Tokyo)
MoNA Rating=3.75

>  <NUM PEAKS>  (7306) 
15

>  <MASS SPECTRAL PEAKS>  (7306) 
15 1.1
18 2.9
26 1.4
27 0.41
28 9.1
29 1.7
30 99.99
31 0.14
39 2.1
41 5.4
42 2.9
43 0.3
56 1.1
58 2.9
59 11.3

$$$$

     RDKit          2D

 10 10  0  0  0  0  0  0  0  0999 V2000
    2.2781    2.4402    0.0000 C   0  0  0  0  0  0  0  0  0  0  0  0
    3.5681    1.6902    0.0000 C   0  0  0  0  0  0  0  0  0  0  0  0
    0.9781    1.6902    0.0000 C   0  0  0  0  0  0  0  0  0  0  0  0
    3.5681    0.1902    0.0000 C   0  0  0  0  0  0  0  0  0  0  0  0
    0.9781    0.1902    0.0000 C   0  0  0  0  0  0  0  0  0  0  0  0
    2.2781   -0.5598    0.0000 C   0  0  0  0  0  0  0  0  0  0  0  0
   -0.3208   -0.5600    0.0000 N   0  0  0  0  0  0  0  0  0  0  0  0
    2.2806   -2.0598    0.0000 O   0  0  0  0  0  0  0  0  0  0  0  0
   -1.6200    0.1898    0.0000 O   0  0  0  0  0  0  0  0  0  0  0  0
   -0.3206   -2.0600    0.0000 O   0  0  0  0  0  0  0  0  0  0  0  0
  2  1  2  0
  3  1  1  0
  4  2  1  0
  5  3  2  0
  6  4  2  0
  6  5  1  0
  7  5  1  0
  8  6  1  0
  9  7  1  0
 10  7  2  0
M  CHG  2   7   1   9  -1
M  END
>  <NAME>  (7307) 
ORTHO-NITROPHENOL

>  <SYNONYMS>  (7307) 


>  <SPECTRUM TYPE>  (7307) 
MS1

>  <INSTRUMENT TYPE>  (7307) 
EI-B

>  <INSTRUMENT>  (7307) 
HITACHI RMU-6M

>  <ION MODE>  (7307) 
P

>  <INCHIKEY>  (7307) 
IQUPABOKLQSFBK-UHFFFAOYSA-N

>  <FORMULA>  (7307) 
C6H5NO3

>  <EXACT MASS>  (7307) 
139.02694301999998

>  <MW>  (7307) 
139

>  <ID>  (7307) 
JP000227

>  <CONTRIBUTOR>  (7307) 
University of Tokyo Team, {Faculty of Engineering, University of Tokyo

>  <COMMENT>  (7307) 
SMILES=[O-1][N+1](=O)c(c1)c(O)ccc1
InChI=InChI=1S/C6H5NO3/c8-6-4-2-1-3-5(6)7(9)10/h1-4,8H
computed SMILES=O=N(=O)C=1C=CC=CC1O
accession=JP000227
date=2016.01.19 (Created 2008.10.21, modified 2011.05.06)
author=YAMAMOTO M, DEP. CHEMISTRY, FAC. SCIENCE, NARA WOMEN'S UNIV.
license=CC BY-NC-SA
exact mass=139.02694
ionization energy=70 eV
ion type=[M]+*
computed spectral entropy=2.8589274583885707
computed normalized entropy=0.7648957105260723
SPLASH=splash10-00or-9400000000-0b2fa2c21d7e26794876
submitter=submitter = University of Tokyo Team (Faculty of Engineering, University of Tokyo)
MoNA Rating=3.75

>  <NUM PEAKS>  (7307) 
42

>  <MASS SPECTRAL PEAKS>  (7307) 
26 4.3
27 8.7
28 3.1
29 0.22
30 11.3
37 7.5
38 18.7
39 5.6
40 2.6
49 1.9
50 8.2
51 1.35
52 5.9
53 16.9
54 1.5
55 0.17
61 4.7
62 10.1
63 39.4
64 2.88
65 50.3
66 4.4
67 1.6
74 0.26
75 2.8
76 1.5
78 7
79 0.11
80 1.1
81 30.6
82 1.9
92 0.98
93 11.6
94 6.4
106 3.9
109 2.52
110 2.4
112 6.8
113 1.9
129 99.99
130 7.6
131 1.2

$$$$

     RDKit          2D

 10 10  0  0  0  0  0  0  0  0999 V2000
    1.3013    2.6340    0.0000 C   0  0  0  0  0  0  0  0  0  0  0  0
    0.0013    1.8740    0.0000 C   0  0  0  0  0  0  0  0  0  0  0  0
    2.6013    1.8740    0.0000 C   0  0  0  0  0  0  0  0  0  0  0  0
    1.3013   -0.3660    0.0000 C   0  0  0  0  0  0  0  0  0  0  0  0
    0.0013    0.3740    0.0000 C   0  0  0  0  0  0  0  0  0  0  0  0
    2.6013    0.3740    0.0000 C   0  0  0  0  0  0  0  0  0  0  0  0
   -1.2954   -0.3800    0.0000 N   0  0  0  0  0  0  0  0  0  0  0  0
    3.8981   -0.3800    0.0000 O   0  0  0  0  0  0  0  0  0  0  0  0
   -2.5967    0.3660    0.0000 O   0  0  0  0  0  0  0  0  0  0  0  0
   -1.2908   -1.8800    0.0000 O   0  0  0  0  0  0  0  0  0  0  0  0
  2  1  2  0
  3  1  1  0
  5  2  1  0
  5  4  2  0
  6  3  2  0
  6  4  1  0
  7  5  1  0
  8  6  1  0
  9  7  1  0
 10  7  2  0
M  CHG  2   7   1   9  -1
M  END
>  <NAME>  (7308) 
META-NITROPHENOL

>  <SYNONYMS>  (7308) 


>  <SPECTRUM TYPE>  (7308) 
MS1

>  <INSTRUMENT TYPE>  (7308) 
EI-B

>  <INSTRUMENT>  (7308) 
HITACHI RMU-6M

>  <ION MODE>  (7308) 
P

>  <INCHIKEY>  (7308) 
RTZZCYNQPHTPPL-UHFFFAOYSA-N

>  <FORMULA>  (7308) 
C6H5NO3

>  <EXACT MASS>  (7308) 
139.02694301999998

>  <MW>  (7308) 
139

>  <ID>  (7308) 
JP000226

>  <CONTRIBUTOR>  (7308) 
University of Tokyo Team, {Faculty of Engineering, University of Tokyo

>  <COMMENT>  (7308) 
SMILES=Oc(c1)cc(cc1)[N+1]([O-1])=O
InChI=InChI=1S/C6H5NO3/c8-6-3-1-2-5(4-6)7(9)10/h1-4,8H
computed SMILES=O=N(=O)C=1C=CC=C(O)C1
computed spectral entropy=2.4786948761716694
computed normalized entropy=0.7287712525993826
accession=JP000226
date=2016.01.19 (Created 2008.10.21, modified 2011.05.06)
author=YAMAMOTO M, DEP. CHEMISTRY, FAC. SCIENCE, NARA WOMEN'S UNIV.
license=CC BY-NC-SA
exact mass=139.02694
ionization energy=70 eV
ion type=[M]+*
SPLASH=splash10-004l-9400000000-557247c97c669aabed39
submitter=submitter = University of Tokyo Team (Faculty of Engineering, University of Tokyo)
MoNA Rating=3.75

>  <NUM PEAKS>  (7308) 
30

>  <MASS SPECTRAL PEAKS>  (7308) 
26 3.2
27 7.9
28 1.5
29 0.3
30 11.1
37 6.8
38 18
39 8.28
40 2.7
42 1.2
43 1.2
49 0.14
50 6.9
51 4.9
52 2.4
53 1.22
55 2.9
61 4.3
62 9
63 2.29
74 2.8
75 2.6
81 21.4
92 0.32
93 50.6
94 4
109 3.2
113 0.1
129 83.6
130 6

$$$$

     RDKit          2D

 10 10  0  0  0  0  0  0  0  0999 V2000
    0.0008   -2.2500    0.0000 C   0  0  0  0  0  0  0  0  0  0  0  0
   -1.2992    0.0000    0.0000 C   0  0  0  0  0  0  0  0  0  0  0  0
   -1.2992   -3.0000    0.0000 C   0  0  0  0  0  0  0  0  0  0  0  0
   -2.5992   -0.7500    0.0000 C   0  0  0  0  0  0  0  0  0  0  0  0
    0.0008   -0.7500    0.0000 C   0  0  0  0  0  0  0  0  0  0  0  0
   -2.5992   -2.2500    0.0000 C   0  0  0  0  0  0  0  0  0  0  0  0
    1.2998    0.0002    0.0000 N   0  0  0  0  0  0  0  0  0  0  0  0
   -3.8981   -3.0002    0.0000 O   0  0  0  0  0  0  0  0  0  0  0  0
    2.5989   -0.7496    0.0000 O   0  0  0  0  0  0  0  0  0  0  0  0
    1.2995    1.5002    0.0000 O   0  0  0  0  0  0  0  0  0  0  0  0
  3  1  2  0
  4  2  1  0
  5  1  1  0
  5  2  2  0
  6  3  1  0
  6  4  2  0
  7  5  1  0
  8  6  1  0
  9  7  1  0
 10  7  2  0
M  CHG  2   7   1   9  -1
M  END
>  <NAME>  (7309) 
PARA-NITROPHENOL

>  <SYNONYMS>  (7309) 


>  <SPECTRUM TYPE>  (7309) 
MS1

>  <INSTRUMENT TYPE>  (7309) 
EI-B

>  <INSTRUMENT>  (7309) 
HITACHI RMU-6M

>  <ION MODE>  (7309) 
P

>  <INCHIKEY>  (7309) 
BTJIUGUIPKRLHP-UHFFFAOYSA-N

>  <FORMULA>  (7309) 
C6H5NO3

>  <EXACT MASS>  (7309) 
139.02694301999998

>  <MW>  (7309) 
139

>  <ID>  (7309) 
JP000225

>  <CONTRIBUTOR>  (7309) 
University of Tokyo Team, {Faculty of Engineering, University of Tokyo

>  <COMMENT>  (7309) 
SMILES=Oc(c1)ccc(c1)[N+1]([O-1])=O
InChI=InChI=1S/C6H5NO3/c8-6-3-1-5(2-4-6)7(9)10/h1-4,8H
computed SMILES=O=N(=O)C1=CC=C(O)C=C1
license=CC BY-NC-SA
accession=JP000225
date=2016.01.19 (Created 2008.10.21, modified 2011.05.06)
author=YAMAMOTO M, DEP. CHEMISTRY, FAC. SCIENCE, NARA WOMEN'S UNIV.
exact mass=139.02694
ionization energy=70 eV
ion type=[M]+*
computed spectral entropy=2.630287787843592
computed normalized entropy=0.7179591997919151
SPLASH=splash10-00or-9500000000-a23a22fc322241325904
submitter=submitter = University of Tokyo Team (Faculty of Engineering, University of Tokyo)
MoNA Rating=3.75

>  <NUM PEAKS>  (7309) 
39

>  <MASS SPECTRAL PEAKS>  (7309) 
26 5.3
27 10.5
28 1.6
29 0.33
30 11.7
37 6.7
38 16.8
39 8.1
40 3.1
42 1.5
43 1.5
49 0.16
50 9.3
51 8
52 5.2
53 1.36
54 2.1
55 3.5
61 6.4
62 1.21
63 24.6
64 10.9
65 99.99
66 0.62
67 1.2
73 1.3
74 4.8
75 0.33
81 27.6
82 1.7
92 2.3
93 2.31
94 1.7
109 48.4
110 3.5
113 0.48
129 98.2
130 9.2
131 1.1

$$$$

     RDKit          2D

 10 10  0  0  0  0  0  0  0  0999 V2000
   -1.3000    0.7500    0.0000 C   0  0  0  0  0  0  0  0  0  0  0  0
   -0.0000   -1.5000    0.0000 C   0  0  0  0  0  0  0  0  0  0  0  0
    0.0000    1.5000    0.0000 C   0  0  0  0  0  0  0  0  0  0  0  0
    1.3000   -0.7500    0.0000 C   0  0  0  0  0  0  0  0  0  0  0  0
   -1.3000   -0.7500    0.0000 C   0  0  0  0  0  0  0  0  0  0  0  0
    1.3000    0.7500    0.0000 C   0  0  0  0  0  0  0  0  0  0  0  0
   -2.5989   -1.5002    0.0000 F   0  0  0  0  0  0  0  0  0  0  0  0
    2.5989    1.5002    0.0000 N   0  0  0  0  0  0  0  0  0  0  0  0
    3.8981    0.7504    0.0000 O   0  0  0  0  0  0  0  0  0  0  0  0
    2.5987    3.0002    0.0000 O   0  0  0  0  0  0  0  0  0  0  0  0
  3  1  2  0
  4  2  1  0
  5  1  1  0
  5  2  2  0
  6  3  1  0
  6  4  2  0
  7  5  1  0
  8  6  1  0
  9  8  1  0
 10  8  2  0
M  CHG  2   8   1   9  -1
M  END
>  <NAME>  (7310) 
PARA FLUORO NITROBENZENE

>  <SYNONYMS>  (7310) 


>  <SPECTRUM TYPE>  (7310) 
MS1

>  <INSTRUMENT TYPE>  (7310) 
EI-B

>  <INSTRUMENT>  (7310) 
HITACHI RMU-7M

>  <ION MODE>  (7310) 
P

>  <INCHIKEY>  (7310) 
WFQDTOYDVUWQMS-UHFFFAOYSA-N

>  <FORMULA>  (7310) 
C6H4FNO2

>  <EXACT MASS>  (7310) 
141.022606588

>  <MW>  (7310) 
141

>  <ID>  (7310) 
JP000224

>  <CONTRIBUTOR>  (7310) 
University of Tokyo Team, {Faculty of Engineering, University of Tokyo

>  <COMMENT>  (7310) 
SMILES=Fc(c1)ccc(c1)[N+1]([O-1])=O
InChI=InChI=1S/C6H4FNO2/c7-5-1-3-6(4-2-5)8(9)10/h1-4H
computed SMILES=O=N(=O)C1=CC=C(F)C=C1
accession=JP000224
date=2016.01.19 (Created 2008.10.21, modified 2011.05.06)
author=TAJIMA S, GUNMA COLLEGE OF TECHNOLOGY
license=CC BY-NC-SA
exact mass=141.02261
ionization energy=70 eV
ion type=[M]+*
computed spectral entropy=2.542664988661896
computed normalized entropy=0.7551059119958907
SPLASH=splash10-002e-9300000000-72d7e78945ba3bdc4392
submitter=submitter = University of Tokyo Team (Faculty of Engineering, University of Tokyo)
MoNA Rating=3.75

>  <NUM PEAKS>  (7310) 
29

>  <MASS SPECTRAL PEAKS>  (7310) 
27 1.81
30 12.32
31 2.71
37 2.55
38 2.55
39 3.12
41 1.97
43 2.38
50 15.02
51 8.21
57 9.69
61 2.55
62 2.46
63 3.04
68 6.08
69 11.25
73 1.89
74 9.85
75 69.29
76 5.75
83 20.36
93 2.3
94 5.91
95 99.99
96 6.73
111 27.01
125 3.78
141 77.59
142 7.14

$$$$

     RDKit          2D

 10 10  0  0  0  0  0  0  0  0999 V2000
   -1.3000    0.7500    0.0000 C   0  0  0  0  0  0  0  0  0  0  0  0
   -0.0000   -1.5000    0.0000 C   0  0  0  0  0  0  0  0  0  0  0  0
    0.0000    1.5000    0.0000 C   0  0  0  0  0  0  0  0  0  0  0  0
    1.3000   -0.7500    0.0000 C   0  0  0  0  0  0  0  0  0  0  0  0
   -1.3000   -0.7500    0.0000 C   0  0  0  0  0  0  0  0  0  0  0  0
    1.3000    0.7500    0.0000 C   0  0  0  0  0  0  0  0  0  0  0  0
   -2.5989   -1.5002    0.0000 F   0  0  0  0  0  0  0  0  0  0  0  0
    2.5989    1.5002    0.0000 N   0  0  0  0  0  0  0  0  0  0  0  0
    3.8981    0.7504    0.0000 O   0  0  0  0  0  0  0  0  0  0  0  0
    2.5987    3.0002    0.0000 O   0  0  0  0  0  0  0  0  0  0  0  0
  3  1  2  0
  4  2  1  0
  5  1  1  0
  5  2  2  0
  6  3  1  0
  6  4  2  0
  7  5  1  0
  8  6  1  0
  9  8  1  0
 10  8  2  0
M  CHG  2   8   1   9  -1
M  END
>  <NAME>  (7311) 
PARA FLUORO NITROBENZENE

>  <SYNONYMS>  (7311) 


>  <SPECTRUM TYPE>  (7311) 
MS1

>  <INSTRUMENT TYPE>  (7311) 
EI-B

>  <INSTRUMENT>  (7311) 
HITACHI RMU-7M

>  <ION MODE>  (7311) 
P

>  <INCHIKEY>  (7311) 
WFQDTOYDVUWQMS-UHFFFAOYSA-N

>  <FORMULA>  (7311) 
C6H4FNO2

>  <EXACT MASS>  (7311) 
141.022606588

>  <MW>  (7311) 
141

>  <ID>  (7311) 
JP000223

>  <CONTRIBUTOR>  (7311) 
University of Tokyo Team, {Faculty of Engineering, University of Tokyo

>  <COMMENT>  (7311) 
SMILES=Fc(c1)ccc(c1)[N+1]([O-1])=O
InChI=InChI=1S/C6H4FNO2/c7-5-1-3-6(4-2-5)8(9)10/h1-4H
computed SMILES=O=N(=O)C1=CC=C(F)C=C1
accession=JP000223
date=2016.01.19 (Created 2008.10.21, modified 2011.05.06)
author=TAJIMA S, GUNMA COLLEGE OF TECHNOLOGY
license=CC BY-NC-SA
exact mass=141.02261
ionization energy=70 eV
ion type=[M]+*
computed spectral entropy=2.542664988661896
computed normalized entropy=0.7551059119958907
SPLASH=splash10-002e-9300000000-72d7e78945ba3bdc4392
submitter=submitter = University of Tokyo Team (Faculty of Engineering, University of Tokyo)
MoNA Rating=3.75

>  <NUM PEAKS>  (7311) 
29

>  <MASS SPECTRAL PEAKS>  (7311) 
27 1.81
30 12.32
31 2.71
37 2.55
38 2.55
39 3.12
41 1.97
43 2.38
50 15.02
51 8.21
57 9.69
61 2.55
62 2.46
63 3.04
68 6.08
69 11.25
73 1.89
74 9.85
75 69.29
76 5.75
83 20.36
93 2.3
94 5.91
95 99.99
96 6.73
111 27.01
125 3.78
141 77.59
142 7.14

$$$$

     RDKit          2D

 10 10  0  0  0  0  0  0  0  0999 V2000
    0.0005   -3.7506    0.0000 C   0  0  0  0  0  0  0  0  0  0  0  0
   -1.2990   -2.9998    0.0000 C   0  0  0  0  0  0  0  0  0  0  0  0
    1.2995   -3.0006    0.0000 C   0  0  0  0  0  0  0  0  0  0  0  0
   -0.0005   -0.7490    0.0000 C   0  0  0  0  0  0  0  0  0  0  0  0
   -1.2995   -1.4990    0.0000 C   0  0  0  0  0  0  0  0  0  0  0  0
    1.2990   -1.4998    0.0000 C   0  0  0  0  0  0  0  0  0  0  0  0
   -2.5987   -0.7492    0.0000 F   0  0  0  0  0  0  0  0  0  0  0  0
    2.5981   -0.7498    0.0000 N   0  0  0  0  0  0  0  0  0  0  0  0
    3.8971   -1.4998    0.0000 O   0  0  0  0  0  0  0  0  0  0  0  0
    2.5981    0.7502    0.0000 O   0  0  0  0  0  0  0  0  0  0  0  0
  2  1  2  0
  3  1  1  0
  5  2  1  0
  5  4  2  0
  6  3  2  0
  6  4  1  0
  7  5  1  0
  8  6  1  0
  9  8  1  0
 10  8  2  0
M  CHG  2   8   1   9  -1
M  END
>  <NAME>  (7312) 
META FLUORO NITROBENZENE

>  <SYNONYMS>  (7312) 


>  <SPECTRUM TYPE>  (7312) 
MS1

>  <INSTRUMENT TYPE>  (7312) 
EI-B

>  <INSTRUMENT>  (7312) 
HITACHI RMU-7M

>  <ION MODE>  (7312) 
P

>  <INCHIKEY>  (7312) 
WMASLRCNNKMRFP-UHFFFAOYSA-N

>  <FORMULA>  (7312) 
C6H4FNO2

>  <EXACT MASS>  (7312) 
141.022606588

>  <MW>  (7312) 
141

>  <ID>  (7312) 
JP000222

>  <CONTRIBUTOR>  (7312) 
University of Tokyo Team, {Faculty of Engineering, University of Tokyo

>  <COMMENT>  (7312) 
SMILES=Fc(c1)cc(cc1)[N+1]([O-1])=O
InChI=InChI=1S/C6H4FNO2/c7-5-2-1-3-6(4-5)8(9)10/h1-4H
computed SMILES=O=N(=O)C=1C=CC=C(F)C1
accession=JP000222
date=2016.01.19 (Created 2008.10.21, modified 2011.05.06)
author=TAJIMA S, GUNMA COLLEGE OF TECHNOLOGY
license=CC BY-NC-SA
exact mass=141.02261
ionization energy=70 eV
ion type=[M]+*
computed spectral entropy=2.5866018866826876
computed normalized entropy=0.7604974355879995
SPLASH=splash10-002b-9100000000-d9b7fb3ab398b3eac454
submitter=submitter = University of Tokyo Team (Faculty of Engineering, University of Tokyo)
MoNA Rating=3.75

>  <NUM PEAKS>  (7312) 
30

>  <MASS SPECTRAL PEAKS>  (7312) 
27 1.35
30 26.33
31 2.85
37 3.7
38 3.91
39 4.27
49 2.14
50 16.94
51 8.9
57 9.25
61 2.7
62 3.2
63 3.84
68 7.62
69 12.38
73 1.64
74 11.6
75 77.79
76 5.84
81 1.57
82 1.42
83 19.29
92 1.42
93 2.14
94 5.91
95 99.99
96 6.41
111 10.11
141 47.19
142 3.49

$$$$

     RDKit          2D

 10 10  0  0  0  0  0  0  0  0999 V2000
   -1.3000    0.7500    0.0000 C   0  0  0  0  0  0  0  0  0  0  0  0
    0.0000    1.5000    0.0000 C   0  0  0  0  0  0  0  0  0  0  0  0
   -1.3000   -0.7500    0.0000 C   0  0  0  0  0  0  0  0  0  0  0  0
    1.3000    0.7500    0.0000 C   0  0  0  0  0  0  0  0  0  0  0  0
    0.0000   -1.5000    0.0000 C   0  0  0  0  0  0  0  0  0  0  0  0
    1.3000   -0.7500    0.0000 C   0  0  0  0  0  0  0  0  0  0  0  0
   -0.0000   -3.0000    0.0000 F   0  0  0  0  0  0  0  0  0  0  0  0
    2.5989   -1.5002    0.0000 N   0  0  0  0  0  0  0  0  0  0  0  0
    3.8981   -0.7504    0.0000 O   0  0  0  0  0  0  0  0  0  0  0  0
    2.5987   -3.0002    0.0000 O   0  0  0  0  0  0  0  0  0  0  0  0
  2  1  2  0
  3  1  1  0
  4  2  1  0
  5  3  2  0
  6  4  2  0
  6  5  1  0
  7  5  1  0
  8  6  1  0
  9  8  1  0
 10  8  2  0
M  CHG  2   8   1   9  -1
M  END
>  <NAME>  (7313) 
ORTHO FLUORO NITROBENZENE

>  <SYNONYMS>  (7313) 


>  <SPECTRUM TYPE>  (7313) 
MS1

>  <INSTRUMENT TYPE>  (7313) 
EI-B

>  <INSTRUMENT>  (7313) 
HITACHI RMU-7M

>  <ION MODE>  (7313) 
P

>  <INCHIKEY>  (7313) 
PWKNBLFSJAVFAB-UHFFFAOYSA-N

>  <FORMULA>  (7313) 
C6H4FNO2

>  <EXACT MASS>  (7313) 
141.022606588

>  <MW>  (7313) 
141

>  <ID>  (7313) 
JP000221

>  <CONTRIBUTOR>  (7313) 
University of Tokyo Team, {Faculty of Engineering, University of Tokyo

>  <COMMENT>  (7313) 
SMILES=[O-1][N+1](=O)c(c1)c(F)ccc1
InChI=InChI=1S/C6H4FNO2/c7-5-3-1-2-4-6(5)8(9)10/h1-4H
computed SMILES=O=N(=O)C=1C=CC=CC1F
accession=JP000221
date=2016.01.19 (Created 2008.10.21, modified 2011.05.06)
author=TAJIMA S, GUNMA COLLEGE OF TECHNOLOGY
license=CC BY-NC-SA
exact mass=141.02261
ionization energy=70 eV
ion type=[M]+*
computed spectral entropy=2.814595087406923
computed normalized entropy=0.7737535178049593
SPLASH=splash10-005d-9200000000-3d425de96a111549d2bb
submitter=submitter = University of Tokyo Team (Faculty of Engineering, University of Tokyo)
MoNA Rating=3.75

>  <NUM PEAKS>  (7313) 
38

>  <MASS SPECTRAL PEAKS>  (7313) 
27 1.65
30 25.09
31 2.87
37 3.01
38 3.51
39 5.45
41 1.43
49 2.15
50 16.63
51 10.75
56 1.94
57 15.91
61 2.94
62 3.51
63 5.16
65 2.37
68 10.25
69 15.91
73 1.86
74 12.97
75 99.99
76 7.52
81 1.86
82 1.86
83 49.46
84 2.8
92 3.3
93 3.37
94 8.03
95 74.55
96 5.02
111 35.13
112 2.08
120 5.38
121 1.65
125 3.58
141 69.17
142 5.45

$$$$

     RDKit          2D

 11 11  0  0  0  0  0  0  0  0999 V2000
    3.8981    0.7504    0.0000 C   0  0  0  0  0  0  0  0  0  0  0  0
   -1.3000    0.7500    0.0000 C   0  0  0  0  0  0  0  0  0  0  0  0
   -0.0000   -1.5000    0.0000 C   0  0  0  0  0  0  0  0  0  0  0  0
    0.0000    1.5000    0.0000 C   0  0  0  0  0  0  0  0  0  0  0  0
    1.3000   -0.7500    0.0000 C   0  0  0  0  0  0  0  0  0  0  0  0
   -1.3000   -0.7500    0.0000 C   0  0  0  0  0  0  0  0  0  0  0  0
    1.3000    0.7500    0.0000 C   0  0  0  0  0  0  0  0  0  0  0  0
   -2.5989   -1.5002    0.0000 N   0  0  0  0  0  0  0  0  0  0  0  0
   -3.8981   -0.7504    0.0000 O   0  0  0  0  0  0  0  0  0  0  0  0
   -2.5987   -3.0002    0.0000 O   0  0  0  0  0  0  0  0  0  0  0  0
    2.5989    1.5002    0.0000 O   0  0  0  0  0  0  0  0  0  0  0  0
  4  2  2  0
  5  3  1  0
  6  2  1  0
  6  3  2  0
  7  4  1  0
  7  5  2  0
  8  6  1  0
  9  8  1  0
 10  8  2  0
 11  1  1  0
 11  7  1  0
M  CHG  2   8   1   9  -1
M  END
>  <NAME>  (7314) 
PARA NITRO ANISOLE

>  <SYNONYMS>  (7314) 
PARA METHOXY NITROBENZENE

>  <SPECTRUM TYPE>  (7314) 
MS1

>  <INSTRUMENT TYPE>  (7314) 
EI-B

>  <INSTRUMENT>  (7314) 
HITACHI RMU-7M

>  <ION MODE>  (7314) 
P

>  <INCHIKEY>  (7314) 
BNUHAJGCKIQFGE-UHFFFAOYSA-N

>  <FORMULA>  (7314) 
C7H7NO3

>  <EXACT MASS>  (7314) 
153.042593084

>  <MW>  (7314) 
153

>  <ID>  (7314) 
JP000220

>  <CONTRIBUTOR>  (7314) 
University of Tokyo Team, {Faculty of Engineering, University of Tokyo

>  <COMMENT>  (7314) 
SMILES=COc(c1)ccc(c1)[N+1]([O-1])=O
InChI=InChI=1S/C7H7NO3/c1-11-7-4-2-6(3-5-7)8(9)10/h2-5H,1H3
computed SMILES=O=N(=O)C1=CC=C(OC)C=C1
accession=JP000220
date=2016.01.19 (Created 2008.10.21, modified 2011.05.06)
author=TAJIMA S, GUNMA COLLEGE OF TECHNOLOGY
license=CC BY-NC-SA
exact mass=153.04259
ionization energy=70 eV
ion type=[M]+*
computed spectral entropy=2.8621929197828613
computed normalized entropy=0.8050387389030558
SPLASH=splash10-0w4l-9400000000-d414686ceef07883b9a1
submitter=submitter = University of Tokyo Team (Faculty of Engineering, University of Tokyo)
MoNA Rating=3.75

>  <NUM PEAKS>  (7314) 
35

>  <MASS SPECTRAL PEAKS>  (7314) 
15 2.56
26 2.1
27 3.3
28 3.41
30 3.92
37 2.56
38 10.23
39 6.14
41 9.32
50 18.48
51 11.37
52 5.57
53 4.21
61 2.27
62 6.37
63 28.6
64 45.25
65 5.68
74 7.11
75 6.71
76 7.56
77 79.25
78 6.59
79 3.24
80 3.75
92 66.46
93 4.43
95 14.21
106 3.41
107 13.93
123 37.24
124 2.56
137 8.3
153 99.99
154 8.24

$$$$

     RDKit          2D

 11 11  0  0  0  0  0  0  0  0999 V2000
   -3.8981    0.3879    0.0000 C   0  0  0  0  0  0  0  0  0  0  0  0
   -0.0000   -1.8800    0.0000 C   0  0  0  0  0  0  0  0  0  0  0  0
    1.3000   -1.1200    0.0000 C   0  0  0  0  0  0  0  0  0  0  0  0
   -1.3000   -1.1200    0.0000 C   0  0  0  0  0  0  0  0  0  0  0  0
    0.0000    1.1200    0.0000 C   0  0  0  0  0  0  0  0  0  0  0  0
    1.3000    0.3800    0.0000 C   0  0  0  0  0  0  0  0  0  0  0  0
   -1.3000    0.3800    0.0000 C   0  0  0  0  0  0  0  0  0  0  0  0
    2.5967    1.1340    0.0000 N   0  0  0  0  0  0  0  0  0  0  0  0
    3.8981    0.3879    0.0000 O   0  0  0  0  0  0  0  0  0  0  0  0
    2.5922    2.6340    0.0000 O   0  0  0  0  0  0  0  0  0  0  0  0
   -2.5967    1.1340    0.0000 O   0  0  0  0  0  0  0  0  0  0  0  0
  3  2  2  0
  4  2  1  0
  6  3  1  0
  6  5  2  0
  7  4  2  0
  7  5  1  0
  8  6  1  0
  9  8  1  0
 10  8  2  0
 11  1  1  0
 11  7  1  0
M  CHG  2   8   1   9  -1
M  END
>  <NAME>  (7315) 
META NITRO ANISOLE

>  <SYNONYMS>  (7315) 
META METHOXY NITROBENZENE

>  <SPECTRUM TYPE>  (7315) 
MS1

>  <INSTRUMENT TYPE>  (7315) 
EI-B

>  <INSTRUMENT>  (7315) 
HITACHI RMU-7M

>  <ION MODE>  (7315) 
P

>  <INCHIKEY>  (7315) 
WGYFINWERLNPHR-UHFFFAOYSA-N

>  <FORMULA>  (7315) 
C7H7NO3

>  <EXACT MASS>  (7315) 
153.042593084

>  <MW>  (7315) 
153

>  <ID>  (7315) 
JP000219

>  <CONTRIBUTOR>  (7315) 
University of Tokyo Team, {Faculty of Engineering, University of Tokyo

>  <COMMENT>  (7315) 
SMILES=COc(c1)cc(cc1)[N+1]([O-1])=O
InChI=InChI=1S/C7H7NO3/c1-11-7-4-2-3-6(5-7)8(9)10/h2-5H,1H3
computed SMILES=O=N(=O)C=1C=CC=C(OC)C1
accession=JP000219
date=2016.01.19 (Created 2008.10.21, modified 2011.05.06)
author=TAJIMA S, GUNMA COLLEGE OF TECHNOLOGY
license=CC BY-NC-SA
exact mass=153.04259
ionization energy=70 eV
ion type=[M]+*
computed spectral entropy=2.822629549889406
computed normalized entropy=0.7704605033387006
SPLASH=splash10-116u-9400000000-3b71dc345dca901702ac
submitter=submitter = University of Tokyo Team (Faculty of Engineering, University of Tokyo)
MoNA Rating=3.75

>  <NUM PEAKS>  (7315) 
39

>  <MASS SPECTRAL PEAKS>  (7315) 
15 1.81
27 2.63
28 2.44
29 1.38
30 4.56
37 2.5
38 9.75
39 7.19
41 5.31
43 1.88
50 15.31
51 9.88
52 4.38
53 4
61 2
62 5.94
63 28.81
64 44.38
65 6.56
74 5.56
75 5.13
76 8.5
77 99.99
78 8.13
79 5.63
80 2.88
92 72.5
93 6.25
95 26.44
96 1.88
107 57.81
108 6.06
120 3.5
121 2.69
123 6.69
137 1.25
138 1.44
153 96.56
154 7.94

$$$$

     RDKit          2D

 11 11  0  0  0  0  0  0  0  0999 V2000
   -1.6328    3.1878    0.0000 C   0  0  0  0  0  0  0  0  0  0  0  0
   -0.3300   -2.0600    0.0000 C   0  0  0  0  0  0  0  0  0  0  0  0
   -1.6200   -1.3100    0.0000 C   0  0  0  0  0  0  0  0  0  0  0  0
    0.9700   -1.3100    0.0000 C   0  0  0  0  0  0  0  0  0  0  0  0
   -1.6200    0.1900    0.0000 C   0  0  0  0  0  0  0  0  0  0  0  0
    0.9700    0.1900    0.0000 C   0  0  0  0  0  0  0  0  0  0  0  0
   -0.3300    0.9400    0.0000 C   0  0  0  0  0  0  0  0  0  0  0  0
    2.2689    0.9402    0.0000 N   0  0  0  0  0  0  0  0  0  0  0  0
    3.5681    0.1904    0.0000 O   0  0  0  0  0  0  0  0  0  0  0  0
    2.2687    2.4402    0.0000 O   0  0  0  0  0  0  0  0  0  0  0  0
   -0.3325    2.4400    0.0000 O   0  0  0  0  0  0  0  0  0  0  0  0
  3  2  2  0
  4  2  1  0
  5  3  1  0
  6  4  2  0
  7  5  2  0
  7  6  1  0
  8  6  1  0
  9  8  1  0
 10  8  2  0
 11  1  1  0
 11  7  1  0
M  CHG  2   8   1   9  -1
M  END
>  <NAME>  (7316) 
ORTHO NITRO ANISOLE

>  <SYNONYMS>  (7316) 
ORTHO METHOXY NITROBENZENE

>  <SPECTRUM TYPE>  (7316) 
MS1

>  <INSTRUMENT TYPE>  (7316) 
EI-B

>  <INSTRUMENT>  (7316) 
HITACHI RMU-7M

>  <ION MODE>  (7316) 
P

>  <INCHIKEY>  (7316) 
CFBYEGUGFPZCNF-UHFFFAOYSA-N

>  <FORMULA>  (7316) 
C7H7NO3

>  <EXACT MASS>  (7316) 
153.04259308399998

>  <MW>  (7316) 
153

>  <ID>  (7316) 
JP000218

>  <CONTRIBUTOR>  (7316) 
University of Tokyo Team, {Faculty of Engineering, University of Tokyo

>  <COMMENT>  (7316) 
SMILES=COc(c1)c(ccc1)[N+1]([O-1])=O
InChI=InChI=1S/C7H7NO3/c1-11-7-5-3-2-4-6(7)8(9)10/h2-5H,1H3
computed SMILES=O=N(=O)C=1C=CC=CC1OC
accession=JP000218
date=2016.01.19 (Created 2008.10.21, modified 2011.05.06)
author=TAJIMA S, GUNMA COLLEGE OF TECHNOLOGY
license=CC BY-NC-SA
exact mass=153.04259
ionization energy=70 eV
ion type=[M]+*
computed spectral entropy=3.044850286834863
computed normalized entropy=0.8254133334281675
SPLASH=splash10-0m29-9300000000-b95b0befc18519860016
submitter=submitter = University of Tokyo Team (Faculty of Engineering, University of Tokyo)
MoNA Rating=3.75

>  <NUM PEAKS>  (7316) 
40

>  <MASS SPECTRAL PEAKS>  (7316) 
15 1.8
27 3.6
30 5.54
31 2.77
37 3.4
38 10.95
39 11.09
41 7.62
43 2.08
50 17.19
51 36.17
52 13.58
53 5.68
55 2.22
57 2.01
61 2.01
62 6.31
63 31.39
64 35.2
65 26.96
66 2.22
67 2.22
74 4.71
75 3.47
76 7.14
77 99.99
78 29.11
79 8.59
80 5.47
92 53.29
93 16.63
94 2.36
95 16
106 89.19
107 6.17
108 2.22
123 44.21
124 5.06
153 39.22
154 3.6

$$$$

     RDKit          2D

 10 10  0  0  0  0  0  0  0  0999 V2000
    0.0008   -2.2500    0.0000 C   0  0  0  0  0  0  0  0  0  0  0  0
   -1.2992    0.0000    0.0000 C   0  0  0  0  0  0  0  0  0  0  0  0
   -1.2992   -3.0000    0.0000 C   0  0  0  0  0  0  0  0  0  0  0  0
   -2.5992   -0.7500    0.0000 C   0  0  0  0  0  0  0  0  0  0  0  0
    0.0008   -0.7500    0.0000 C   0  0  0  0  0  0  0  0  0  0  0  0
   -2.5992   -2.2500    0.0000 C   0  0  0  0  0  0  0  0  0  0  0  0
    1.2998    0.0002    0.0000 N   0  0  0  0  0  0  0  0  0  0  0  0
   -3.8981   -3.0002    0.0000 O   0  0  0  0  0  0  0  0  0  0  0  0
    2.5989   -0.7496    0.0000 O   0  0  0  0  0  0  0  0  0  0  0  0
    1.2995    1.5002    0.0000 O   0  0  0  0  0  0  0  0  0  0  0  0
  3  1  2  0
  4  2  1  0
  5  1  1  0
  5  2  2  0
  6  3  1  0
  6  4  2  0
  7  5  1  0
  8  6  1  0
  9  7  1  0
 10  7  2  0
M  CHG  2   7   1   9  -1
M  END
>  <NAME>  (7317) 
PARA NITRO PHENOL

>  <SYNONYMS>  (7317) 
PARA HYDROXY NITROBENZENE

>  <SPECTRUM TYPE>  (7317) 
MS1

>  <INSTRUMENT TYPE>  (7317) 
EI-B

>  <INSTRUMENT>  (7317) 
HITACHI RMU-7M

>  <ION MODE>  (7317) 
P

>  <INCHIKEY>  (7317) 
BTJIUGUIPKRLHP-UHFFFAOYSA-N

>  <FORMULA>  (7317) 
C6H5NO3

>  <EXACT MASS>  (7317) 
139.02694301999998

>  <MW>  (7317) 
139

>  <ID>  (7317) 
JP000217

>  <CONTRIBUTOR>  (7317) 
University of Tokyo Team, {Faculty of Engineering, University of Tokyo

>  <COMMENT>  (7317) 
SMILES=Oc(c1)ccc(c1)[N+1]([O-1])=O
InChI=InChI=1S/C6H5NO3/c8-6-3-1-5(2-4-6)7(9)10/h1-4,8H
computed SMILES=O=N(=O)C1=CC=C(O)C=C1
accession=JP000217
date=2016.01.19 (Created 2008.10.21, modified 2011.05.06)
author=TAJIMA S, GUNMA COLLEGE OF TECHNOLOGY
license=CC BY-NC-SA
exact mass=139.02694
ionization energy=70 eV
ion type=[M]+*
computed spectral entropy=2.9304218435512026
computed normalized entropy=0.8115448521523703
SPLASH=splash10-00kr-9200000000-6a367c2627bf30cad163
submitter=submitter = University of Tokyo Team (Faculty of Engineering, University of Tokyo)
MoNA Rating=3.75

>  <NUM PEAKS>  (7317) 
37

>  <MASS SPECTRAL PEAKS>  (7317) 
26 5.34
27 11.21
28 3.47
29 3.2
30 10.15
37 6.68
38 16.69
39 86.11
40 2.94
43 2.34
44 2.47
50 12.02
51 9.75
52 7.34
53 22.96
54 2.34
55 3.47
61 5.61
62 12.02
63 26.57
64 11.28
65 99.99
66 7.88
74 5.47
75 5.81
80 1.8
81 28.04
82 1.87
92 2.47
93 17.69
94 1.8
95 3.94
109 64.22
110 4.14
123 9.21
139 40.65
140 5.67

$$$$

     RDKit          2D

 10 10  0  0  0  0  0  0  0  0999 V2000
    1.3013    2.6340    0.0000 C   0  0  0  0  0  0  0  0  0  0  0  0
    0.0013    1.8740    0.0000 C   0  0  0  0  0  0  0  0  0  0  0  0
    2.6013    1.8740    0.0000 C   0  0  0  0  0  0  0  0  0  0  0  0
    1.3013   -0.3660    0.0000 C   0  0  0  0  0  0  0  0  0  0  0  0
    0.0013    0.3740    0.0000 C   0  0  0  0  0  0  0  0  0  0  0  0
    2.6013    0.3740    0.0000 C   0  0  0  0  0  0  0  0  0  0  0  0
   -1.2954   -0.3800    0.0000 N   0  0  0  0  0  0  0  0  0  0  0  0
    3.8981   -0.3800    0.0000 O   0  0  0  0  0  0  0  0  0  0  0  0
   -2.5967    0.3660    0.0000 O   0  0  0  0  0  0  0  0  0  0  0  0
   -1.2908   -1.8800    0.0000 O   0  0  0  0  0  0  0  0  0  0  0  0
  2  1  2  0
  3  1  1  0
  5  2  1  0
  5  4  2  0
  6  3  2  0
  6  4  1  0
  7  5  1  0
  8  6  1  0
  9  7  1  0
 10  7  2  0
M  CHG  2   7   1   9  -1
M  END
>  <NAME>  (7318) 
META NITRO PHENOL

>  <SYNONYMS>  (7318) 
META HYDROXY NITROBENZENE

>  <SPECTRUM TYPE>  (7318) 
MS1

>  <INSTRUMENT TYPE>  (7318) 
EI-B

>  <INSTRUMENT>  (7318) 
HITACHI RMU-7M

>  <ION MODE>  (7318) 
P

>  <INCHIKEY>  (7318) 
RTZZCYNQPHTPPL-UHFFFAOYSA-N

>  <FORMULA>  (7318) 
C6H5NO3

>  <EXACT MASS>  (7318) 
139.02694302

>  <MW>  (7318) 
139

>  <ID>  (7318) 
JP000216

>  <CONTRIBUTOR>  (7318) 
University of Tokyo Team, {Faculty of Engineering, University of Tokyo

>  <COMMENT>  (7318) 
SMILES=Oc(c1)cc(cc1)[N+1]([O-1])=O
InChI=InChI=1S/C6H5NO3/c8-6-3-1-2-5(4-6)7(9)10/h1-4,8H
computed SMILES=O=N(=O)C=1C=CC=C(O)C1
accession=JP000216
date=2016.01.19 (Created 2008.10.21, modified 2011.05.06)
author=TAJIMA S, GUNMA COLLEGE OF TECHNOLOGY
license=CC BY-NC-SA
exact mass=139.02694
ionization energy=70 eV
ion type=[M]+*
computed spectral entropy=2.5373061591968016
computed normalized entropy=0.7321118026180496
SPLASH=splash10-00kr-9300000000-7e5dce0e1f5aeb2df0d2
submitter=submitter = University of Tokyo Team (Faculty of Engineering, University of Tokyo)
MoNA Rating=3.75

>  <NUM PEAKS>  (7318) 
32

>  <MASS SPECTRAL PEAKS>  (7318) 
26 1.27
27 4.65
28 2.1
29 1.57
30 7.2
37 3.07
38 8.4
39 56.97
40 2.4
43 2.17
50 4.65
51 3.75
52 1.65
53 13.04
55 2.55
61 2.25
62 5.02
63 14.69
64 8.02
65 89.58
66 7.05
74 2.25
75 2.25
81 18.67
92 4.05
93 62.59
94 6.75
109 4.87
120 3
138 2.02
139 99.99
140 7.27

$$$$

     RDKit          2D

 10 10  0  0  0  0  0  0  0  0999 V2000
    2.2781    2.4402    0.0000 C   0  0  0  0  0  0  0  0  0  0  0  0
    3.5681    1.6902    0.0000 C   0  0  0  0  0  0  0  0  0  0  0  0
    0.9781    1.6902    0.0000 C   0  0  0  0  0  0  0  0  0  0  0  0
    3.5681    0.1902    0.0000 C   0  0  0  0  0  0  0  0  0  0  0  0
    0.9781    0.1902    0.0000 C   0  0  0  0  0  0  0  0  0  0  0  0
    2.2781   -0.5598    0.0000 C   0  0  0  0  0  0  0  0  0  0  0  0
   -0.3208   -0.5600    0.0000 N   0  0  0  0  0  0  0  0  0  0  0  0
    2.2806   -2.0598    0.0000 O   0  0  0  0  0  0  0  0  0  0  0  0
   -1.6200    0.1898    0.0000 O   0  0  0  0  0  0  0  0  0  0  0  0
   -0.3206   -2.0600    0.0000 O   0  0  0  0  0  0  0  0  0  0  0  0
  2  1  2  0
  3  1  1  0
  4  2  1  0
  5  3  2  0
  6  4  2  0
  6  5  1  0
  7  5  1  0
  8  6  1  0
  9  7  1  0
 10  7  2  0
M  CHG  2   7   1   9  -1
M  END
>  <NAME>  (7319) 
ORTHO NITRO PHENOL

>  <SYNONYMS>  (7319) 
ORTHO HYDROXY NITROBENZENE

>  <SPECTRUM TYPE>  (7319) 
MS1

>  <INSTRUMENT TYPE>  (7319) 
EI-B

>  <INSTRUMENT>  (7319) 
HITACHI RMU-7M

>  <ION MODE>  (7319) 
P

>  <INCHIKEY>  (7319) 
IQUPABOKLQSFBK-UHFFFAOYSA-N

>  <FORMULA>  (7319) 
C6H5NO3

>  <EXACT MASS>  (7319) 
139.02694302

>  <MW>  (7319) 
139

>  <ID>  (7319) 
JP000215

>  <CONTRIBUTOR>  (7319) 
University of Tokyo Team, {Faculty of Engineering, University of Tokyo

>  <COMMENT>  (7319) 
SMILES=[O-1][N+1](=O)c(c1)c(O)ccc1
InChI=InChI=1S/C6H5NO3/c8-6-4-2-1-3-5(6)7(9)10/h1-4,8H
computed SMILES=O=N(=O)C=1C=CC=CC1O
accession=JP000215
date=2016.01.19 (Created 2008.10.21, modified 2011.05.06)
author=TAJIMA S, GUNMA COLLEGE OF TECHNOLOGY
license=CC BY-NC-SA
exact mass=139.02694
ionization energy=70 eV
ion type=[M]+*
computed spectral entropy=2.6998360386491798
computed normalized entropy=0.8102251918827231
SPLASH=splash10-000i-9400000000-9f71669040926044f8d0
submitter=submitter = University of Tokyo Team (Faculty of Engineering, University of Tokyo)
MoNA Rating=3.75

>  <NUM PEAKS>  (7319) 
28

>  <MASS SPECTRAL PEAKS>  (7319) 
26 2.06
27 5.79
28 3.89
30 5.4
37 3.17
38 10
39 40.63
50 4.05
51 8.41
52 3.73
53 14.44
61 1.75
62 5.16
63 27.3
64 25.32
65 45.48
66 4.21
78 3.17
81 16.75
92 8.1
93 11.35
94 4.52
106 2.86
109 14.29
122 6.35
123 2.22
139 99.99
140 6.67

$$$$

     RDKit          2D

 10 10  0  0  0  0  0  0  0  0999 V2000
   -0.0330    1.6954    0.0000 C   0  0  0  0  0  0  0  0  0  0  0  0
    1.2275   -0.5786    0.0000 C   0  0  0  0  0  0  0  0  0  0  0  0
   -1.3440    0.9459    0.0000 C   0  0  0  0  0  0  0  0  0  0  0  0
   -0.0621   -1.3049    0.0000 C   0  0  0  0  0  0  0  0  0  0  0  0
    1.2396    0.9259    0.0000 C   0  0  0  0  0  0  0  0  0  0  0  0
   -1.3609   -0.5499    0.0000 C   0  0  0  0  0  0  0  0  0  0  0  0
    2.5491    1.6575    0.0000 N   0  0  0  0  0  0  0  0  0  0  0  0
   -2.6653   -1.2906    0.0000 N   0  0  0  0  0  0  0  0  0  0  0  0
   -3.9590   -0.5314    0.0000 O   0  0  0  0  0  0  0  0  0  0  0  0
   -2.6760   -2.7906    0.0000 O   0  0  0  0  0  0  0  0  0  0  0  0
  3  1  2  0
  4  2  1  0
  5  1  1  0
  5  2  2  0
  6  3  1  0
  6  4  2  0
  7  5  1  0
  8  6  1  0
  9  8  1  0
 10  8  2  0
M  CHG  2   8   1   9  -1
M  END
>  <NAME>  (7320) 
PARA NITRO ANILINE

>  <SYNONYMS>  (7320) 


>  <SPECTRUM TYPE>  (7320) 
MS1

>  <INSTRUMENT TYPE>  (7320) 
EI-B

>  <INSTRUMENT>  (7320) 
HITACHI RMU-7M

>  <ION MODE>  (7320) 
P

>  <INCHIKEY>  (7320) 
TYMLOMAKGOJONV-UHFFFAOYSA-N

>  <FORMULA>  (7320) 
C6H6N2O2

>  <EXACT MASS>  (7320) 
138.042927432

>  <MW>  (7320) 
138

>  <ID>  (7320) 
JP000214

>  <CONTRIBUTOR>  (7320) 
University of Tokyo Team, {Faculty of Engineering, University of Tokyo

>  <COMMENT>  (7320) 
SMILES=Nc(c1)ccc(c1)[N+1]([O-1])=O
InChI=InChI=1S/C6H6N2O2/c7-5-1-3-6(4-2-5)8(9)10/h1-4H,7H2
computed SMILES=O=N(=O)C1=CC=C(N)C=C1
accession=JP000214
date=2016.01.19 (Created 2008.10.21, modified 2011.05.06)
author=TAJIMA S, GUNMA COLLEGE OF TECHNOLOGY
license=CC BY-NC-SA
exact mass=138.04293
ionization energy=70 eV
ion type=[M]+*
computed spectral entropy=2.761423602409016
computed normalized entropy=0.7766957143577653
SPLASH=splash10-00kr-9300000000-f6af77a419a9dfca0d47
submitter=submitter = University of Tokyo Team (Faculty of Engineering, University of Tokyo)
MoNA Rating=3.75

>  <NUM PEAKS>  (7320) 
35

>  <MASS SPECTRAL PEAKS>  (7320) 
26 1.11
27 2.23
28 7.8
30 7.53
37 3.07
38 8.75
39 32.5
40 3.12
41 10.54
42 2.68
50 3.9
51 4.29
52 13.15
53 8.92
54 3.12
61 2.68
62 6.24
63 15.27
64 11.32
65 99.99
66 11.65
74 1.67
75 1.23
79 1.11
80 17.73
81 1.11
90 1.45
91 4.46
92 43.48
93 2.79
108 42.81
109 2.79
121 4.96
138 83.5
139 8.08

$$$$

     RDKit          2D

 10 10  0  0  0  0  0  0  0  0999 V2000
    0.0005   -3.7506    0.0000 C   0  0  0  0  0  0  0  0  0  0  0  0
   -1.2990   -2.9998    0.0000 C   0  0  0  0  0  0  0  0  0  0  0  0
    1.2995   -3.0006    0.0000 C   0  0  0  0  0  0  0  0  0  0  0  0
   -0.0005   -0.7490    0.0000 C   0  0  0  0  0  0  0  0  0  0  0  0
   -1.2995   -1.4990    0.0000 C   0  0  0  0  0  0  0  0  0  0  0  0
    1.2990   -1.4998    0.0000 C   0  0  0  0  0  0  0  0  0  0  0  0
   -2.5987   -0.7492    0.0000 N   0  0  0  0  0  0  0  0  0  0  0  0
    2.5981   -0.7498    0.0000 N   0  0  0  0  0  0  0  0  0  0  0  0
    3.8971   -1.4998    0.0000 O   0  0  0  0  0  0  0  0  0  0  0  0
    2.5981    0.7502    0.0000 O   0  0  0  0  0  0  0  0  0  0  0  0
  2  1  2  0
  3  1  1  0
  5  2  1  0
  5  4  2  0
  6  3  2  0
  6  4  1  0
  7  5  1  0
  8  6  1  0
  9  8  1  0
 10  8  2  0
M  CHG  2   8   1   9  -1
M  END
>  <NAME>  (7321) 
META NITRO ANILINE

>  <SYNONYMS>  (7321) 


>  <SPECTRUM TYPE>  (7321) 
MS1

>  <INSTRUMENT TYPE>  (7321) 
EI-B

>  <INSTRUMENT>  (7321) 
HITACHI RMU-7M

>  <ION MODE>  (7321) 
P

>  <INCHIKEY>  (7321) 
XJCVRTZCHMZPBD-UHFFFAOYSA-N

>  <FORMULA>  (7321) 
C6H6N2O2

>  <EXACT MASS>  (7321) 
138.042927432

>  <MW>  (7321) 
138

>  <ID>  (7321) 
JP000213

>  <CONTRIBUTOR>  (7321) 
University of Tokyo Team, {Faculty of Engineering, University of Tokyo

>  <COMMENT>  (7321) 
SMILES=Nc(c1)cc(cc1)[N+1]([O-1])=O
InChI=InChI=1S/C6H6N2O2/c7-5-2-1-3-6(4-5)8(9)10/h1-4H,7H2
computed SMILES=O=N(=O)C=1C=CC=C(N)C1
accession=JP000213
date=2016.01.19 (Created 2008.10.21, modified 2011.05.06)
author=TAJIMA S, GUNMA COLLEGE OF TECHNOLOGY
license=CC BY-NC-SA
exact mass=138.04293
ionization energy=70 eV
ion type=[M]+*
computed spectral entropy=2.280954017363414
computed normalized entropy=0.7086182075559904
SPLASH=splash10-014u-9200000000-b43a6027dc2194165cd3
submitter=submitter = University of Tokyo Team (Faculty of Engineering, University of Tokyo)
MoNA Rating=3.75

>  <NUM PEAKS>  (7321) 
25

>  <MASS SPECTRAL PEAKS>  (7321) 
27 2.06
28 5.3
30 1.17
37 1.8
38 4.58
39 23.52
40 1.89
41 6.01
50 2.06
51 2.51
52 6.82
53 3.86
54 1.8
62 3.23
63 8.44
64 7.54
65 99.99
66 10.59
80 9.78
91 3.68
92 93.63
93 7.9
108 10.23
138 84.56
139 7.18

$$$$

     RDKit          2D

 10 10  0  0  0  0  0  0  0  0999 V2000
    3.5681    1.6902    0.0000 C   0  0  0  0  0  0  0  0  0  0  0  0
    2.2781    2.4402    0.0000 C   0  0  0  0  0  0  0  0  0  0  0  0
    3.5681    0.1902    0.0000 C   0  0  0  0  0  0  0  0  0  0  0  0
    0.9781    1.6902    0.0000 C   0  0  0  0  0  0  0  0  0  0  0  0
    2.2781   -0.5598    0.0000 C   0  0  0  0  0  0  0  0  0  0  0  0
    0.9781    0.1902    0.0000 C   0  0  0  0  0  0  0  0  0  0  0  0
    2.2806   -2.0598    0.0000 N   0  0  0  0  0  0  0  0  0  0  0  0
   -0.3208   -0.5600    0.0000 N   0  0  0  0  0  0  0  0  0  0  0  0
   -1.6200    0.1898    0.0000 O   0  0  0  0  0  0  0  0  0  0  0  0
   -0.3206   -2.0600    0.0000 O   0  0  0  0  0  0  0  0  0  0  0  0
  2  1  2  0
  3  1  1  0
  4  2  1  0
  5  3  2  0
  6  4  2  0
  6  5  1  0
  7  5  1  0
  8  6  1  0
  9  8  1  0
 10  8  2  0
M  CHG  2   8   1   9  -1
M  END
>  <NAME>  (7322) 
ORTHO NITRO ANILINE

>  <SYNONYMS>  (7322) 


>  <SPECTRUM TYPE>  (7322) 
MS1

>  <INSTRUMENT TYPE>  (7322) 
EI-B

>  <INSTRUMENT>  (7322) 
HITACHI RMU-7M

>  <ION MODE>  (7322) 
P

>  <INCHIKEY>  (7322) 
DPJCXCZTLWNFOH-UHFFFAOYSA-N

>  <FORMULA>  (7322) 
C6H6N2O2

>  <EXACT MASS>  (7322) 
138.042927432

>  <MW>  (7322) 
138

>  <ID>  (7322) 
JP000212

>  <CONTRIBUTOR>  (7322) 
University of Tokyo Team, {Faculty of Engineering, University of Tokyo

>  <COMMENT>  (7322) 
SMILES=[O-1][N+1](=O)c(c1)c(N)ccc1
InChI=InChI=1S/C6H6N2O2/c7-5-3-1-2-4-6(5)8(9)10/h1-4H,7H2
computed SMILES=O=N(=O)C=1C=CC=CC1N
accession=JP000212
date=2016.01.19 (Created 2008.10.21, modified 2011.05.06)
author=TAJIMA S, GUNMA COLLEGE OF TECHNOLOGY
license=CC BY-NC-SA
exact mass=138.04293
ionization energy=70 eV
ion type=[M]+*
computed spectral entropy=2.7847878447892116
computed normalized entropy=0.7712132793265164
SPLASH=splash10-00ku-9200000000-bcec312c5e8005213644
submitter=submitter = University of Tokyo Team (Faculty of Engineering, University of Tokyo)
MoNA Rating=3.75

>  <NUM PEAKS>  (7322) 
37

>  <MASS SPECTRAL PEAKS>  (7322) 
26 1.42
27 4.1
28 6.87
30 2.99
37 3.73
38 9.18
39 31.04
40 2.84
41 6.04
42 2.76
50 4.33
51 7.84
52 17.84
53 7.16
54 1.49
61 2.24
62 5.07
63 15.67
64 13.43
65 99.99
66 11.87
74 1.42
75 1.49
76 1.64
77 2.99
78 2.39
79 1.49
80 15.82
90 3.58
91 9.55
92 65.9
93 4.48
108 12.69
121 5.22
122 2.09
138 81.34
139 5.97

$$$$

     RDKit          2D

  9  9  0  0  0  0  0  0  0  0999 V2000
   -2.5989   -1.5002    0.0000 C   0  0  0  0  0  0  0  0  0  0  0  0
   -1.3000    0.7500    0.0000 C   0  0  0  0  0  0  0  0  0  0  0  0
   -0.0000   -1.5000    0.0000 C   0  0  0  0  0  0  0  0  0  0  0  0
    0.0000    1.5000    0.0000 C   0  0  0  0  0  0  0  0  0  0  0  0
    1.3000   -0.7500    0.0000 C   0  0  0  0  0  0  0  0  0  0  0  0
    2.5989    1.5002    0.0000 C   0  0  0  0  0  0  0  0  0  0  0  0
   -1.3000   -0.7500    0.0000 C   0  0  0  0  0  0  0  0  0  0  0  0
    1.3000    0.7500    0.0000 C   0  0  0  0  0  0  0  0  0  0  0  0
    3.8978    2.2504    0.0000 N   0  0  0  0  0  0  0  0  0  0  0  0
  4  2  2  0
  5  3  1  0
  7  1  1  0
  7  2  1  0
  7  3  2  0
  8  4  1  0
  8  5  2  0
  8  6  1  0
  9  6  3  0
M  END
>  <NAME>  (7323) 
PARA TOLUNITRILE

>  <SYNONYMS>  (7323) 
1-METHYL-4-CYANOBENZENE

>  <SPECTRUM TYPE>  (7323) 
MS1

>  <INSTRUMENT TYPE>  (7323) 
EI-B

>  <INSTRUMENT>  (7323) 
HITACHI RMU-7M

>  <ION MODE>  (7323) 
P

>  <INCHIKEY>  (7323) 
VCZNNAKNUVJVGX-UHFFFAOYSA-N

>  <FORMULA>  (7323) 
C8H7N

>  <EXACT MASS>  (7323) 
117.057849224

>  <MW>  (7323) 
117

>  <ID>  (7323) 
JP000211

>  <CONTRIBUTOR>  (7323) 
University of Tokyo Team, {Faculty of Engineering, University of Tokyo

>  <COMMENT>  (7323) 
SMILES=N#Cc(c1)ccc(C)c1
InChI=InChI=1S/C8H7N/c1-7-2-4-8(6-9)5-3-7/h2-5H,1H3
computed SMILES=N#CC1=CC=C(C=C1)C
accession=JP000211
date=2016.01.19 (Created 2008.10.21, modified 2011.05.06)
author=TAJIMA S, GUNMA COLLEGE OF TECHNOLOGY
license=CC BY-NC-SA
exact mass=117.05785
ionization energy=70 eV
ion type=[M]+*
computed spectral entropy=2.37274041225811
computed normalized entropy=0.6909578489864677
SPLASH=splash10-014i-9800000000-1f738088d9fd52d483d9
submitter=submitter = University of Tokyo Team (Faculty of Engineering, University of Tokyo)
MoNA Rating=3.75

>  <NUM PEAKS>  (7323) 
31

>  <MASS SPECTRAL PEAKS>  (7323) 
27 2.89
37 1.97
38 3.15
39 10.64
41 1.77
43 1.51
50 5.25
51 5.91
52 1.51
55 1.12
57 1.18
61 2.63
62 5.38
63 13.66
64 5.98
65 3.15
74 1.31
75 3.22
76 2.36
77 1.25
86 1.12
87 1.71
88 2.82
89 34.34
90 61
91 7.88
114 1.31
115 1.77
116 71.18
117 99.99
118 8.86

$$$$

     RDKit          2D

  9  9  0  0  0  0  0  0  0  0999 V2000
   -0.3325    2.8100    0.0000 C   0  0  0  0  0  0  0  0  0  0  0  0
   -1.6200   -0.9400    0.0000 C   0  0  0  0  0  0  0  0  0  0  0  0
   -1.6200    0.5600    0.0000 C   0  0  0  0  0  0  0  0  0  0  0  0
   -0.3300   -1.6900    0.0000 C   0  0  0  0  0  0  0  0  0  0  0  0
    0.9700    0.5600    0.0000 C   0  0  0  0  0  0  0  0  0  0  0  0
    2.2689   -1.6902    0.0000 C   0  0  0  0  0  0  0  0  0  0  0  0
   -0.3300    1.3100    0.0000 C   0  0  0  0  0  0  0  0  0  0  0  0
    0.9700   -0.9400    0.0000 C   0  0  0  0  0  0  0  0  0  0  0  0
    3.5678   -2.4404    0.0000 N   0  0  0  0  0  0  0  0  0  0  0  0
  3  2  2  0
  4  2  1  0
  7  1  1  0
  7  3  1  0
  7  5  2  0
  8  4  2  0
  8  5  1  0
  8  6  1  0
  9  6  3  0
M  END
>  <NAME>  (7324) 
META TOLUNITRILE

>  <SYNONYMS>  (7324) 
1-METHYL-3-CYANOBENZENE

>  <SPECTRUM TYPE>  (7324) 
MS1

>  <INSTRUMENT TYPE>  (7324) 
EI-B

>  <INSTRUMENT>  (7324) 
HITACHI RMU-7M

>  <ION MODE>  (7324) 
P

>  <INCHIKEY>  (7324) 
BOHCMQZJWOGWTA-UHFFFAOYSA-N

>  <FORMULA>  (7324) 
C8H7N

>  <EXACT MASS>  (7324) 
117.057849224

>  <MW>  (7324) 
117

>  <ID>  (7324) 
JP000210

>  <CONTRIBUTOR>  (7324) 
University of Tokyo Team, {Faculty of Engineering, University of Tokyo

>  <COMMENT>  (7324) 
SMILES=N#Cc(c1)cc(C)cc1
InChI=InChI=1S/C8H7N/c1-7-3-2-4-8(5-7)6-9/h2-5H,1H3
computed SMILES=N#CC1=CC=CC(=C1)C
accession=JP000210
date=2016.01.19 (Created 2008.10.21, modified 2011.05.06)
author=TAJIMA S, GUNMA COLLEGE OF TECHNOLOGY
license=CC BY-NC-SA
exact mass=117.05785
ionization energy=70 eV
ion type=[M]+*
computed spectral entropy=2.552898464912035
computed normalized entropy=0.7581449904632495
SPLASH=splash10-014i-9700000000-3a250e178c62c1307b3c
submitter=submitter = University of Tokyo Team (Faculty of Engineering, University of Tokyo)
MoNA Rating=3.75

>  <NUM PEAKS>  (7324) 
29

>  <MASS SPECTRAL PEAKS>  (7324) 
26 1.57
27 5.49
37 4.48
38 7.84
39 24.19
40 2.58
41 1.57
50 8.29
51 9.63
52 3.36
57.5 2.13
58 1.34
58.5 3.36
61 3.36
62 7.39
63 16.91
64 7.73
65 4.03
74 1.34
75 3.36
76 3.02
77 1.57
88 2.46
89 23.4
90 41.21
91 5.26
116 62.93
117 99.99
118 8.96

$$$$

     RDKit          2D

  8  8  0  0  0  0  0  0  0  0999 V2000
   -2.5989   -1.5002    0.0000 C   0  0  0  0  0  0  0  0  0  0  0  0
    2.5989    1.5002    0.0000 C   0  0  0  0  0  0  0  0  0  0  0  0
   -1.3000    0.7500    0.0000 C   0  0  0  0  0  0  0  0  0  0  0  0
   -0.0000   -1.5000    0.0000 C   0  0  0  0  0  0  0  0  0  0  0  0
    0.0000    1.5000    0.0000 C   0  0  0  0  0  0  0  0  0  0  0  0
    1.3000   -0.7500    0.0000 C   0  0  0  0  0  0  0  0  0  0  0  0
   -1.3000   -0.7500    0.0000 C   0  0  0  0  0  0  0  0  0  0  0  0
    1.3000    0.7500    0.0000 C   0  0  0  0  0  0  0  0  0  0  0  0
  5  3  2  0
  6  4  1  0
  7  1  1  0
  7  3  1  0
  7  4  2  0
  8  2  1  0
  8  5  1  0
  8  6  2  0
M  END
>  <NAME>  (7325) 
PARA XYLENE

>  <SYNONYMS>  (7325) 


>  <SPECTRUM TYPE>  (7325) 
MS1

>  <INSTRUMENT TYPE>  (7325) 
EI-B

>  <INSTRUMENT>  (7325) 
HITACHI RMU-7M

>  <ION MODE>  (7325) 
P

>  <INCHIKEY>  (7325) 
URLKBWYHVLBVBO-UHFFFAOYSA-N

>  <FORMULA>  (7325) 
C8H10

>  <EXACT MASS>  (7325) 
106.07825032

>  <MW>  (7325) 
106

>  <ID>  (7325) 
JP000209

>  <CONTRIBUTOR>  (7325) 
University of Tokyo Team, {Faculty of Engineering, University of Tokyo

>  <COMMENT>  (7325) 
SMILES=Cc(c1)ccc(C)c1
InChI=InChI=1S/C8H10/c1-7-3-5-8(2)6-4-7/h3-6H,1-2H3
computed SMILES=C=1C=C(C=CC1C)C
accession=JP000209
date=2016.01.19 (Created 2008.10.21, modified 2011.05.06)
author=TAJIMA S, GUNMA COLLEGE OF TECHNOLOGY
license=CC BY-NC-SA
exact mass=106.07825
ionization energy=70 eV
ion type=[M]+*
computed spectral entropy=2.2254722990984517
computed normalized entropy=0.7097676301848866
SPLASH=splash10-052f-9400000000-4b2097f841009fc7a1f9
submitter=submitter = University of Tokyo Team (Faculty of Engineering, University of Tokyo)
MoNA Rating=3.75

>  <NUM PEAKS>  (7325) 
23

>  <MASS SPECTRAL PEAKS>  (7325) 
27 3.93
38 1
39 7.33
41 1.31
50 3.14
51 9.75
52 3.93
53 2.29
62 1.24
63 3.53
65 5.82
77 11.91
78 5.04
79 8.84
89 1.51
91 99.99
92 7.4
102 1.11
103 6.54
104 2.16
105 25.07
106 50.39
107 4.25

$$$$

     RDKit          2D

  8  8  0  0  0  0  0  0  0  0999 V2000
    1.9446    2.2539    0.0000 C   0  0  0  0  0  0  0  0  0  0  0  0
   -0.6520   -2.2491    0.0000 C   0  0  0  0  0  0  0  0  0  0  0  0
   -1.9467    1.4939    0.0000 C   0  0  0  0  0  0  0  0  0  0  0  0
   -0.6477    2.2439    0.0000 C   0  0  0  0  0  0  0  0  0  0  0  0
   -1.9512    0.0017    0.0000 C   0  0  0  0  0  0  0  0  0  0  0  0
    0.6473    0.0009    0.0000 C   0  0  0  0  0  0  0  0  0  0  0  0
    0.6468    1.5017    0.0000 C   0  0  0  0  0  0  0  0  0  0  0  0
   -0.6517   -0.7491    0.0000 C   0  0  0  0  0  0  0  0  0  0  0  0
  4  3  2  0
  5  3  1  0
  7  1  1  0
  7  4  1  0
  7  6  2  0
  8  2  1  0
  8  5  2  0
  8  6  1  0
M  END
>  <NAME>  (7326) 
META XYLENE

>  <SYNONYMS>  (7326) 


>  <SPECTRUM TYPE>  (7326) 
MS1

>  <INSTRUMENT TYPE>  (7326) 
EI-B

>  <INSTRUMENT>  (7326) 
HITACHI RMU-7M

>  <ION MODE>  (7326) 
P

>  <INCHIKEY>  (7326) 
IVSZLXZYQVIEFR-UHFFFAOYSA-N

>  <FORMULA>  (7326) 
C8H10

>  <EXACT MASS>  (7326) 
106.07825032

>  <MW>  (7326) 
106

>  <ID>  (7326) 
JP000208

>  <CONTRIBUTOR>  (7326) 
University of Tokyo Team, {Faculty of Engineering, University of Tokyo

>  <COMMENT>  (7326) 
SMILES=Cc(c1)cc(C)cc1
InChI=InChI=1S/C8H10/c1-7-4-3-5-8(2)6-7/h3-6H,1-2H3
computed SMILES=C=1C=C(C=C(C1)C)C
accession=JP000208
date=2016.01.19 (Created 2008.10.21, modified 2011.05.06)
author=TAJIMA S, GUNMA COLLEGE OF TECHNOLOGY
license=CC BY-NC-SA
exact mass=106.07825
ionization energy=70 eV
ion type=[M]+*
computed spectral entropy=2.189444996943187
computed normalized entropy=0.6982774791355764
SPLASH=splash10-052f-9400000000-2f01cb2d1d9a3cb2c00a
submitter=submitter = University of Tokyo Team (Faculty of Engineering, University of Tokyo)
MoNA Rating=3.75

>  <NUM PEAKS>  (7326) 
23

>  <MASS SPECTRAL PEAKS>  (7326) 
27 2.17
38 1.12
39 8.43
41 1.45
50 2.83
51 7.31
52 2.57
53 1.91
62 1.45
63 4.15
65 5.93
77 10.8
78 5.4
79 7.91
89 1.71
91 99.99
92 7.25
102 1
103 6.32
104 1.91
105 20.55
106 44.53
107 3.49

$$$$

     RDKit          2D

  8  8  0  0  0  0  0  0  0  0999 V2000
   -1.9526    0.7460    0.0000 C   0  0  0  0  0  0  0  0  0  0  0  0
    0.6470    2.2491    0.0000 C   0  0  0  0  0  0  0  0  0  0  0  0
    0.6513   -2.2440    0.0000 C   0  0  0  0  0  0  0  0  0  0  0  0
    1.9458   -1.5018    0.0000 C   0  0  0  0  0  0  0  0  0  0  0  0
   -0.6478   -1.4940    0.0000 C   0  0  0  0  0  0  0  0  0  0  0  0
    1.9463   -0.0009    0.0000 C   0  0  0  0  0  0  0  0  0  0  0  0
   -0.6523   -0.0018    0.0000 C   0  0  0  0  0  0  0  0  0  0  0  0
    0.6472    0.7491    0.0000 C   0  0  0  0  0  0  0  0  0  0  0  0
  4  3  2  0
  5  3  1  0
  6  4  1  0
  7  1  1  0
  7  5  2  0
  8  2  1  0
  8  6  2  0
  8  7  1  0
M  END
>  <NAME>  (7327) 
ORTHO XYLENE

>  <SYNONYMS>  (7327) 


>  <SPECTRUM TYPE>  (7327) 
MS1

>  <INSTRUMENT TYPE>  (7327) 
EI-B

>  <INSTRUMENT>  (7327) 
HITACHI RMU-7M

>  <ION MODE>  (7327) 
P

>  <INCHIKEY>  (7327) 
CTQNGGLPUBDAKN-UHFFFAOYSA-N

>  <FORMULA>  (7327) 
C8H10

>  <EXACT MASS>  (7327) 
106.07825032

>  <MW>  (7327) 
106

>  <ID>  (7327) 
JP000207

>  <CONTRIBUTOR>  (7327) 
University of Tokyo Team, {Faculty of Engineering, University of Tokyo

>  <COMMENT>  (7327) 
SMILES=Cc(c1)c(C)ccc1
InChI=InChI=1S/C8H10/c1-7-5-3-4-6-8(7)2/h3-6H,1-2H3
computed SMILES=C=1C=CC(=C(C1)C)C
accession=JP000207
date=2016.01.19 (Created 2008.10.21, modified 2011.05.06)
author=TAJIMA S, GUNMA COLLEGE OF TECHNOLOGY
license=CC BY-NC-SA
exact mass=106.07825
ionization energy=70 eV
ion type=[M]+*
computed spectral entropy=2.289579922749
computed normalized entropy=0.7407144862282453
SPLASH=splash10-0006-9200000000-91162619463de43f7b46
submitter=submitter = University of Tokyo Team (Faculty of Engineering, University of Tokyo)
MoNA Rating=3.75

>  <NUM PEAKS>  (7327) 
22

>  <MASS SPECTRAL PEAKS>  (7327) 
27 5.07
38 1.66
39 12.77
41 1.4
50 4.9
51 11.02
52 3.15
53 2.27
62 1.92
63 6.04
65 8.49
77 12.51
78 6.82
79 7.61
89 1.75
91 99.99
92 7
103 4.64
104 1.75
105 15.4
106 33.51
107 2.62

$$$$

     RDKit          2D

  9  9  0  0  0  0  0  0  0  0999 V2000
   -2.9298    0.5563    0.0000 C   0  0  0  0  0  0  0  0  0  0  0  0
    3.5660    1.3113    0.0000 C   0  0  0  0  0  0  0  0  0  0  0  0
   -0.3357    3.5491    0.0000 C   0  0  0  0  0  0  0  0  0  0  0  0
   -1.6302    2.8069    0.0000 C   0  0  0  0  0  0  0  0  0  0  0  0
    0.9634    2.7991    0.0000 C   0  0  0  0  0  0  0  0  0  0  0  0
   -0.3316    0.5561    0.0000 C   0  0  0  0  0  0  0  0  0  0  0  0
   -1.6307    1.3061    0.0000 C   0  0  0  0  0  0  0  0  0  0  0  0
    0.9679    1.3069    0.0000 C   0  0  0  0  0  0  0  0  0  0  0  0
    2.2682    0.5591    0.0000 O   0  0  0  0  0  0  0  0  0  0  0  0
  4  3  2  0
  5  3  1  0
  7  1  1  0
  7  4  1  0
  7  6  2  0
  8  5  2  0
  8  6  1  0
  9  2  1  0
  9  8  1  0
M  END
>  <NAME>  (7328) 
META METHOXYTOLUENE

>  <SYNONYMS>  (7328) 
META METHYL ANISOLE

>  <SPECTRUM TYPE>  (7328) 
MS1

>  <INSTRUMENT TYPE>  (7328) 
EI-B

>  <INSTRUMENT>  (7328) 
HITACHI RMU-7M

>  <ION MODE>  (7328) 
P

>  <INCHIKEY>  (7328) 
OSIGJGFTADMDOB-UHFFFAOYSA-N

>  <FORMULA>  (7328) 
C8H10O

>  <EXACT MASS>  (7328) 
122.07316494

>  <MW>  (7328) 
122

>  <ID>  (7328) 
JP000206

>  <CONTRIBUTOR>  (7328) 
University of Tokyo Team, {Faculty of Engineering, University of Tokyo

>  <COMMENT>  (7328) 
SMILES=COc(c1)cc(C)cc1
InChI=InChI=1S/C8H10O/c1-7-4-3-5-8(6-7)9-2/h3-6H,1-2H3
computed SMILES=O(C1=CC=CC(=C1)C)C
accession=JP000206
date=2016.01.19 (Created 2008.10.21, modified 2011.05.06)
author=TAJIMA S, GUNMA COLLEGE OF TECHNOLOGY
license=CC BY-NC-SA
exact mass=122.07316
ionization energy=70 eV
ion type=[M]+*
computed spectral entropy=2.621102489244839
computed normalized entropy=0.7952767675733001
SPLASH=splash10-00fu-9500000000-9ff66f6e4da1cb34af7b
submitter=submitter = University of Tokyo Team (Faculty of Engineering, University of Tokyo)
MoNA Rating=3.75

>  <NUM PEAKS>  (7328) 
27

>  <MASS SPECTRAL PEAKS>  (7328) 
15 1.13
27 4.89
38 2.77
39 16.03
41 2.13
50 4.96
51 10.64
52 5.74
53 5.89
62 2.13
63 6.31
64 1.99
65 9.93
77 38.09
78 8.65
79 30.64
80 2.13
89 2.91
90 2.06
91 60.28
92 28.44
93 8.23
106 2.13
107 21.99
121 16.03
122 99.99
123 8.65

$$$$

     RDKit          2D

  9  9  0  0  0  0  0  0  0  0999 V2000
   -0.9745    2.0634    0.0000 C   0  0  0  0  0  0  0  0  0  0  0  0
    2.9228   -0.1870    0.0000 C   0  0  0  0  0  0  0  0  0  0  0  0
   -2.2743   -1.6883    0.0000 C   0  0  0  0  0  0  0  0  0  0  0  0
   -0.9753   -2.4383    0.0000 C   0  0  0  0  0  0  0  0  0  0  0  0
   -2.2738   -0.1874    0.0000 C   0  0  0  0  0  0  0  0  0  0  0  0
    0.3242   -1.6874    0.0000 C   0  0  0  0  0  0  0  0  0  0  0  0
   -0.9743    0.5634    0.0000 C   0  0  0  0  0  0  0  0  0  0  0  0
    0.3247   -0.1866    0.0000 C   0  0  0  0  0  0  0  0  0  0  0  0
    1.6239    0.5632    0.0000 O   0  0  0  0  0  0  0  0  0  0  0  0
  4  3  2  0
  5  3  1  0
  6  4  1  0
  7  1  1  0
  7  5  2  0
  8  6  2  0
  8  7  1  0
  9  2  1  0
  9  8  1  0
M  END
>  <NAME>  (7329) 
ORTHO METHOXYTOLUENE

>  <SYNONYMS>  (7329) 
ORTHO METHYL ANISOLE

>  <SPECTRUM TYPE>  (7329) 
MS1

>  <INSTRUMENT TYPE>  (7329) 
EI-B

>  <INSTRUMENT>  (7329) 
HITACHI RMU-7M

>  <ION MODE>  (7329) 
P

>  <INCHIKEY>  (7329) 
DTFKRVXLBCAIOZ-UHFFFAOYSA-N

>  <FORMULA>  (7329) 
C8H10O

>  <EXACT MASS>  (7329) 
122.07316494

>  <MW>  (7329) 
122

>  <ID>  (7329) 
JP000205

>  <CONTRIBUTOR>  (7329) 
University of Tokyo Team, {Faculty of Engineering, University of Tokyo

>  <COMMENT>  (7329) 
SMILES=COc(c1)c(C)ccc1
InChI=InChI=1S/C8H10O/c1-7-5-3-4-6-8(7)9-2/h3-6H,1-2H3
computed SMILES=O(C=1C=CC=CC1C)C
accession=JP000205
date=2016.01.19 (Created 2008.10.21, modified 2011.05.06)
author=TAJIMA S, GUNMA COLLEGE OF TECHNOLOGY
license=CC BY-NC-SA
exact mass=122.07316
ionization energy=70 eV
ion type=[M]+*
computed spectral entropy=3.031930400592007
computed normalized entropy=0.8527801914622853
SPLASH=splash10-05i3-9400000000-3b1219b1f5ef72ae8bca
submitter=submitter = University of Tokyo Team (Faculty of Engineering, University of Tokyo)
MoNA Rating=3.75

>  <NUM PEAKS>  (7329) 
35

>  <MASS SPECTRAL PEAKS>  (7329) 
15 2.39
27 12.41
29 4.09
38 4.91
39 27.97
41 8.87
43 13.78
50 10.37
51 22.44
52 12
53 10.57
55 6.68
57 3.34
61 1.5
62 4.09
63 12.21
64 4.09
65 24.49
66 2.05
70 4.91
71 3.75
77 76.06
78 17.67
79 42.29
89 9.41
90 9.07
91 53.07
92 21.83
93 6.55
107 71.9
108 7.5
120 16.51
121 25.58
122 99.99
123 8.73

$$$$

     RDKit          2D

  9  9  0  0  0  0  0  0  0  0999 V2000
   -3.5724    2.0075    0.0000 C   0  0  0  0  0  0  0  0  0  0  0  0
    2.9228   -0.2425    0.0000 C   0  0  0  0  0  0  0  0  0  0  0  0
    2.9233    1.2583    0.0000 C   0  0  0  0  0  0  0  0  0  0  0  0
    1.6233   -0.9933    0.0000 C   0  0  0  0  0  0  0  0  0  0  0  0
    1.6243    2.0083    0.0000 C   0  0  0  0  0  0  0  0  0  0  0  0
    0.3243   -0.2433    0.0000 C   0  0  0  0  0  0  0  0  0  0  0  0
   -0.9743    2.0075    0.0000 C   0  0  0  0  0  0  0  0  0  0  0  0
    0.3248    1.2575    0.0000 C   0  0  0  0  0  0  0  0  0  0  0  0
   -2.2733    1.2575    0.0000 O   0  0  0  0  0  0  0  0  0  0  0  0
  3  2  2  0
  4  2  1  0
  5  3  1  0
  6  4  2  0
  8  5  2  0
  8  6  1  0
  8  7  1  0
  9  1  1  0
  9  7  1  0
M  END
>  <NAME>  (7330) 
BENZYL METHYL ETHER

>  <SYNONYMS>  (7330) 


>  <SPECTRUM TYPE>  (7330) 
MS1

>  <INSTRUMENT TYPE>  (7330) 
EI-B

>  <INSTRUMENT>  (7330) 
HITACHI RMU-7M

>  <ION MODE>  (7330) 
P

>  <INCHIKEY>  (7330) 
GQKZBCPTCWJTAS-UHFFFAOYSA-N

>  <FORMULA>  (7330) 
C8H10O

>  <EXACT MASS>  (7330) 
122.07316494

>  <MW>  (7330) 
122

>  <ID>  (7330) 
JP000204

>  <CONTRIBUTOR>  (7330) 
University of Tokyo Team, {Faculty of Engineering, University of Tokyo

>  <COMMENT>  (7330) 
SMILES=COCc(c1)cccc1
InChI=InChI=1S/C8H10O/c1-9-7-8-5-3-2-4-6-8/h2-6H,7H2,1H3
computed SMILES=O(C)CC=1C=CC=CC1
accession=JP000204
date=2016.01.19 (Created 2008.10.21, modified 2011.05.06)
author=TAJIMA S, GUNMA COLLEGE OF TECHNOLOGY
license=CC BY-NC-SA
exact mass=122.07316
ionization energy=70 eV
ion type=[M]+*
computed spectral entropy=2.2289588197084913
computed normalized entropy=0.7108795826778388
SPLASH=splash10-006x-9500000000-bff6c0b0485eeba1ad97
submitter=submitter = University of Tokyo Team (Faculty of Engineering, University of Tokyo)
MoNA Rating=3.75

>  <NUM PEAKS>  (7330) 
23

>  <MASS SPECTRAL PEAKS>  (7330) 
15 1.29
29 1.43
39 5.67
41 1.58
45 4.16
50 2.8
51 7.1
52 1.58
63 3.95
65 13.85
77 20.44
78 2.3
79 5.6
89 5.02
90 2.51
91 99.99
92 23.89
93 2.08
105 3.59
107 1.43
121 60.33
122 56.89
123 4.52

$$$$

     RDKit          2D

  8  8  0  0  0  0  0  0  0  0999 V2000
    2.2733   -0.6175    0.0000 C   0  0  0  0  0  0  0  0  0  0  0  0
    2.2738    0.8833    0.0000 C   0  0  0  0  0  0  0  0  0  0  0  0
    0.9738   -1.3683    0.0000 C   0  0  0  0  0  0  0  0  0  0  0  0
    0.9748    1.6333    0.0000 C   0  0  0  0  0  0  0  0  0  0  0  0
   -0.3252   -0.6183    0.0000 C   0  0  0  0  0  0  0  0  0  0  0  0
   -1.6238    1.6325    0.0000 C   0  0  0  0  0  0  0  0  0  0  0  0
   -0.3248    0.8825    0.0000 C   0  0  0  0  0  0  0  0  0  0  0  0
   -2.9228    0.8825    0.0000 Cl  0  0  0  0  0  0  0  0  0  0  0  0
  2  1  2  0
  3  1  1  0
  4  2  1  0
  5  3  2  0
  7  4  2  0
  7  5  1  0
  7  6  1  0
  8  6  1  0
M  END
>  <NAME>  (7331) 
BENZYL CHLORIDE

>  <SYNONYMS>  (7331) 


>  <SPECTRUM TYPE>  (7331) 
MS1

>  <INSTRUMENT TYPE>  (7331) 
EI-B

>  <INSTRUMENT>  (7331) 
HITACHI RMU-7M

>  <ION MODE>  (7331) 
P

>  <INCHIKEY>  (7331) 
KCXMKQUNVWSEMD-UHFFFAOYSA-N

>  <FORMULA>  (7331) 
C7H7Cl

>  <EXACT MASS>  (7331) 
126.023627904

>  <MW>  (7331) 
126

>  <ID>  (7331) 
JP000203

>  <CONTRIBUTOR>  (7331) 
University of Tokyo Team, {Faculty of Engineering, University of Tokyo

>  <COMMENT>  (7331) 
SMILES=ClCc(c1)cccc1
InChI=InChI=1S/C7H7Cl/c8-6-7-4-2-1-3-5-7/h1-5H,6H2
computed SMILES=ClCC=1C=CC=CC1
accession=JP000203
date=2016.01.19 (Created 2008.10.21, modified 2011.05.06)
author=TAJIMA S, GUNMA COLLEGE OF TECHNOLOGY
license=CC BY-NC-SA
exact mass=126.02363
ionization energy=70 eV
ion type=[M]+*
computed spectral entropy=1.840809313247005
computed normalized entropy=0.6497249199778158
SPLASH=splash10-0006-9200000000-47bb06f55920c2d12977
submitter=submitter = University of Tokyo Team (Faculty of Engineering, University of Tokyo)
MoNA Rating=3.75

>  <NUM PEAKS>  (7331) 
17

>  <MASS SPECTRAL PEAKS>  (7331) 
38 1.76
39 5.89
50 2.44
51 3.12
61 1.02
62 2.44
63 6.23
64 1.36
65 11.25
89 6.23
90 2.37
91 99.99
92 7.45
125 3.32
126 27.51
127 2.85
128 8.47

$$$$

     RDKit          2D

 10 10  0  0  0  0  0  0  0  0999 V2000
   -2.5989    1.5002    0.0000 C   0  0  0  0  0  0  0  0  0  0  0  0
   -1.3000   -0.7500    0.0000 C   0  0  0  0  0  0  0  0  0  0  0  0
    0.0000    1.5000    0.0000 C   0  0  0  0  0  0  0  0  0  0  0  0
    0.0000   -1.5000    0.0000 C   0  0  0  0  0  0  0  0  0  0  0  0
    1.3000    0.7500    0.0000 C   0  0  0  0  0  0  0  0  0  0  0  0
   -1.3000    0.7500    0.0000 C   0  0  0  0  0  0  0  0  0  0  0  0
    1.3000   -0.7500    0.0000 C   0  0  0  0  0  0  0  0  0  0  0  0
    2.5989   -1.5002    0.0000 N   0  0  0  0  0  0  0  0  0  0  0  0
    3.8981   -0.7504    0.0000 O   0  0  0  0  0  0  0  0  0  0  0  0
    2.5987   -3.0002    0.0000 O   0  0  0  0  0  0  0  0  0  0  0  0
  4  2  2  0
  5  3  1  0
  6  1  1  0
  6  2  1  0
  6  3  2  0
  7  4  1  0
  7  5  2  0
  8  7  1  0
  9  8  1  0
 10  8  2  0
M  CHG  2   8   1   9  -1
M  END
>  <NAME>  (7332) 
PARA NITROTOLUENE

>  <SYNONYMS>  (7332) 


>  <SPECTRUM TYPE>  (7332) 
MS1

>  <INSTRUMENT TYPE>  (7332) 
EI-B

>  <INSTRUMENT>  (7332) 
HITACHI RMU-7M

>  <ION MODE>  (7332) 
P

>  <INCHIKEY>  (7332) 
ZPTVNYMJQHSSEA-UHFFFAOYSA-N

>  <FORMULA>  (7332) 
C7H7NO2

>  <EXACT MASS>  (7332) 
137.047678464

>  <MW>  (7332) 
137

>  <ID>  (7332) 
JP000202

>  <CONTRIBUTOR>  (7332) 
University of Tokyo Team, {Faculty of Engineering, University of Tokyo

>  <COMMENT>  (7332) 
SMILES=Cc(c1)ccc(c1)[N+1]([O-1])=O
InChI=InChI=1S/C7H7NO2/c1-6-2-4-7(5-3-6)8(9)10/h2-5H,1H3
computed SMILES=O=N(=O)C1=CC=C(C=C1)C
accession=JP000202
date=2016.01.19 (Created 2008.10.21, modified 2011.05.06)
author=TAJIMA S, GUNMA COLLEGE OF TECHNOLOGY
license=CC BY-NC-SA
exact mass=137.04768
ionization energy=70 eV
ion type=[M]+*
computed spectral entropy=2.550871097906994
computed normalized entropy=0.7499920797482181
SPLASH=splash10-00ku-9200000000-ac122504d1131c854543
submitter=submitter = University of Tokyo Team (Faculty of Engineering, University of Tokyo)
MoNA Rating=3.75

>  <NUM PEAKS>  (7332) 
30

>  <MASS SPECTRAL PEAKS>  (7332) 
27 3.47
28 2.77
30 4.71
37 1.18
38 3.42
39 26.09
40 1.83
41 6.89
50 7.36
51 10.6
52 2.83
53 2.06
61 1.71
62 4.95
63 15.31
64 3.65
65 79.56
66 4.24
77 12.25
78 2.3
79 11.9
89 10.42
90 3.24
91 99.99
92 7.6
107 18.26
108 1.3
121 1.59
137 66.49
138 5.36

$$$$

     RDKit          2D

 10 10  0  0  0  0  0  0  0  0999 V2000
   -0.3325    2.8100    0.0000 C   0  0  0  0  0  0  0  0  0  0  0  0
   -1.6200   -0.9400    0.0000 C   0  0  0  0  0  0  0  0  0  0  0  0
   -1.6200    0.5600    0.0000 C   0  0  0  0  0  0  0  0  0  0  0  0
   -0.3300   -1.6900    0.0000 C   0  0  0  0  0  0  0  0  0  0  0  0
    0.9700    0.5600    0.0000 C   0  0  0  0  0  0  0  0  0  0  0  0
   -0.3300    1.3100    0.0000 C   0  0  0  0  0  0  0  0  0  0  0  0
    0.9700   -0.9400    0.0000 C   0  0  0  0  0  0  0  0  0  0  0  0
    2.2689   -1.6902    0.0000 N   0  0  0  0  0  0  0  0  0  0  0  0
    2.2687   -3.1902    0.0000 O   0  0  0  0  0  0  0  0  0  0  0  0
    3.5681   -0.9404    0.0000 O   0  0  0  0  0  0  0  0  0  0  0  0
  3  2  2  0
  4  2  1  0
  6  1  1  0
  6  3  1  0
  6  5  2  0
  7  4  2  0
  7  5  1  0
  8  7  1  0
  9  8  1  0
 10  8  2  0
M  CHG  2   8   1   9  -1
M  END
>  <NAME>  (7333) 
META NITROTOLUENE

>  <SYNONYMS>  (7333) 


>  <SPECTRUM TYPE>  (7333) 
MS1

>  <INSTRUMENT TYPE>  (7333) 
EI-B

>  <INSTRUMENT>  (7333) 
HITACHI RMU-7M

>  <ION MODE>  (7333) 
P

>  <INCHIKEY>  (7333) 
QZYHIOPPLUPUJF-UHFFFAOYSA-N

>  <FORMULA>  (7333) 
C7H7NO2

>  <EXACT MASS>  (7333) 
137.047678464

>  <MW>  (7333) 
137

>  <ID>  (7333) 
JP000201

>  <CONTRIBUTOR>  (7333) 
University of Tokyo Team, {Faculty of Engineering, University of Tokyo

>  <COMMENT>  (7333) 
SMILES=Cc(c1)cc(cc1)[N+1]([O-1])=O
InChI=InChI=1S/C7H7NO2/c1-6-3-2-4-7(5-6)8(9)10/h2-5H,1H3
computed SMILES=O=N(=O)C1=CC=CC(=C1)C
accession=JP000201
date=2016.01.19 (Created 2008.10.21, modified 2011.05.06)
author=TAJIMA S, GUNMA COLLEGE OF TECHNOLOGY
license=CC BY-NC-SA
exact mass=137.04768
ionization energy=70 eV
ion type=[M]+*
computed spectral entropy=2.357119414067048
computed normalized entropy=0.72346518482796
SPLASH=splash10-00ko-9200000000-f3244e290f82825b0372
submitter=submitter = University of Tokyo Team (Faculty of Engineering, University of Tokyo)
MoNA Rating=3.75

>  <NUM PEAKS>  (7333) 
26

>  <MASS SPECTRAL PEAKS>  (7333) 
27 2.12
30 3.53
38 2.47
39 19.51
40 1.29
41 5.41
50 4.23
51 7.05
52 1.65
53 1.18
61 1.18
62 3.47
63 11.16
64 2.82
65 61.93
66 3.23
77 6.35
79 8.23
89 8.05
90 3.53
91 99.99
92 7.58
107 9.93
121 0.94
137 48.35
138 4

$$$$

     RDKit          2D

 10 10  0  0  0  0  0  0  0  0999 V2000
    0.9877    2.4408    0.0000 C   0  0  0  0  0  0  0  0  0  0  0  0
    2.2941   -1.2764    0.0000 C   0  0  0  0  0  0  0  0  0  0  0  0
    1.0224   -2.0235    0.0000 C   0  0  0  0  0  0  0  0  0  0  0  0
    2.2811    0.2058    0.0000 C   0  0  0  0  0  0  0  0  0  0  0  0
   -0.2943   -1.3050    0.0000 C   0  0  0  0  0  0  0  0  0  0  0  0
    0.9963    0.9408    0.0000 C   0  0  0  0  0  0  0  0  0  0  0  0
   -0.2754    0.1937    0.0000 C   0  0  0  0  0  0  0  0  0  0  0  0
   -1.5725    0.9469    0.0000 N   0  0  0  0  0  0  0  0  0  0  0  0
   -2.8734    0.2002    0.0000 O   0  0  0  0  0  0  0  0  0  0  0  0
   -1.5687    2.4469    0.0000 O   0  0  0  0  0  0  0  0  0  0  0  0
  3  2  2  0
  4  2  1  0
  5  3  1  0
  6  1  1  0
  6  4  2  0
  7  5  2  0
  7  6  1  0
  8  7  1  0
  9  8  1  0
 10  8  2  0
M  CHG  2   8   1   9  -1
M  END
>  <NAME>  (7334) 
ORTHO NITROTOLUENE

>  <SYNONYMS>  (7334) 


>  <SPECTRUM TYPE>  (7334) 
MS1

>  <INSTRUMENT TYPE>  (7334) 
EI-B

>  <INSTRUMENT>  (7334) 
HITACHI RMU-7M

>  <ION MODE>  (7334) 
P

>  <INCHIKEY>  (7334) 
PLAZTCDQAHEYBI-UHFFFAOYSA-N

>  <FORMULA>  (7334) 
C7H7NO2

>  <EXACT MASS>  (7334) 
137.047678464

>  <MW>  (7334) 
137

>  <ID>  (7334) 
JP000200

>  <CONTRIBUTOR>  (7334) 
University of Tokyo Team, {Faculty of Engineering, University of Tokyo

>  <COMMENT>  (7334) 
SMILES=[O-1][N+1](=O)c(c1)c(C)ccc1
InChI=InChI=1S/C7H7NO2/c1-6-4-2-3-5-7(6)8(9)10/h2-5H,1H3
computed SMILES=O=N(=O)C=1C=CC=CC1C
accession=JP000200
date=2016.01.19 (Created 2008.10.21, modified 2011.05.06)
author=TAJIMA S, GUNMA COLLEGE OF TECHNOLOGY
license=CC BY-NC-SA
exact mass=137.04768
ionization energy=70 eV
ion type=[M]+*
computed spectral entropy=2.5430205500967675
computed normalized entropy=0.7631646083940563
SPLASH=splash10-01bc-9200000000-784806f929d9f9137b2e
submitter=submitter = University of Tokyo Team (Faculty of Engineering, University of Tokyo)
MoNA Rating=3.75

>  <NUM PEAKS>  (7334) 
28

>  <MASS SPECTRAL PEAKS>  (7334) 
27 2.93
30 1.22
38 3.05
39 24.39
40 1.52
41 6.1
50 6.1
51 11.4
52 3.29
53 1.95
61 1.28
62 4.63
63 15.79
64 6.71
65 99.99
66 6.83
77 16.46
78 3.54
79 2.44
89 16.28
90 6.83
91 47.93
92 45.24
93 7.01
120 87.8
121 7.32
137 5
138 0.61

$$$$

     RDKit          2D

 10 10  0  0  0  0  0  0  0  0999 V2000
   -2.5989   -1.5002    0.0000 C   0  0  0  0  0  0  0  0  0  0  0  0
    3.8981    0.7504    0.0000 C   0  0  0  0  0  0  0  0  0  0  0  0
   -1.3000    0.7500    0.0000 C   0  0  0  0  0  0  0  0  0  0  0  0
   -0.0000   -1.5000    0.0000 C   0  0  0  0  0  0  0  0  0  0  0  0
    0.0000    1.5000    0.0000 C   0  0  0  0  0  0  0  0  0  0  0  0
    1.3000   -0.7500    0.0000 C   0  0  0  0  0  0  0  0  0  0  0  0
   -1.3000   -0.7500    0.0000 C   0  0  0  0  0  0  0  0  0  0  0  0
    2.5989    1.5002    0.0000 C   0  0  0  0  0  0  0  0  0  0  0  0
    1.3000    0.7500    0.0000 C   0  0  0  0  0  0  0  0  0  0  0  0
    2.5987    3.0002    0.0000 O   0  0  0  0  0  0  0  0  0  0  0  0
  5  3  2  0
  6  4  1  0
  7  1  1  0
  7  3  1  0
  7  4  2  0
  8  2  1  0
  9  5  1  0
  9  6  2  0
  9  8  1  0
 10  8  2  0
M  END
>  <NAME>  (7335) 
PARA METHYL ACETOPHENONE

>  <SYNONYMS>  (7335) 


>  <SPECTRUM TYPE>  (7335) 
MS1

>  <INSTRUMENT TYPE>  (7335) 
EI-B

>  <INSTRUMENT>  (7335) 
HITACHI RMU-7M

>  <ION MODE>  (7335) 
P

>  <INCHIKEY>  (7335) 
GNKZMNRKLCTJAY-UHFFFAOYSA-N

>  <FORMULA>  (7335) 
C9H10O

>  <EXACT MASS>  (7335) 
134.07316494

>  <MW>  (7335) 
134

>  <ID>  (7335) 
JP000199

>  <CONTRIBUTOR>  (7335) 
University of Tokyo Team, {Faculty of Engineering, University of Tokyo

>  <COMMENT>  (7335) 
SMILES=Cc(c1)ccc(c1)C(C)=O
InChI=InChI=1S/C9H10O/c1-7-3-5-9(6-4-7)8(2)10/h3-6H,1-2H3
computed SMILES=O=C(C1=CC=C(C=C1)C)C
accession=JP000199
date=2016.01.19 (Created 2008.10.21, modified 2011.05.06)
author=TAJIMA S, GUNMA COLLEGE OF TECHNOLOGY
license=CC BY-NC-SA
exact mass=134.07316
ionization energy=70 eV
ion type=[M]+*
computed spectral entropy=2.192243471166371
computed normalized entropy=0.6991699936900498
SPLASH=splash10-014l-9600000000-a92d1697dd1d26696edf
submitter=submitter = University of Tokyo Team (Faculty of Engineering, University of Tokyo)
MoNA Rating=3.75

>  <NUM PEAKS>  (7335) 
23

>  <MASS SPECTRAL PEAKS>  (7335) 
15 1.73
27 2
38 1.46
39 11.98
41 3.66
43 10.79
45.5 1.46
50 3.6
51 6.06
62 2.86
63 7.99
64 1.86
65 24.23
66 1.46
77 2.8
89 6.66
90 3.06
91 85.89
92 6.86
119 99.99
120 8.66
134 22.5
135 2.2

$$$$

     RDKit          2D

 10 10  0  0  0  0  0  0  0  0999 V2000
   -0.3325    2.8100    0.0000 C   0  0  0  0  0  0  0  0  0  0  0  0
    2.2687   -3.1902    0.0000 C   0  0  0  0  0  0  0  0  0  0  0  0
   -1.6200   -0.9400    0.0000 C   0  0  0  0  0  0  0  0  0  0  0  0
   -1.6200    0.5600    0.0000 C   0  0  0  0  0  0  0  0  0  0  0  0
   -0.3300   -1.6900    0.0000 C   0  0  0  0  0  0  0  0  0  0  0  0
    0.9700    0.5600    0.0000 C   0  0  0  0  0  0  0  0  0  0  0  0
   -0.3300    1.3100    0.0000 C   0  0  0  0  0  0  0  0  0  0  0  0
    2.2689   -1.6902    0.0000 C   0  0  0  0  0  0  0  0  0  0  0  0
    0.9700   -0.9400    0.0000 C   0  0  0  0  0  0  0  0  0  0  0  0
    3.5681   -0.9404    0.0000 O   0  0  0  0  0  0  0  0  0  0  0  0
  4  3  2  0
  5  3  1  0
  7  1  1  0
  7  4  1  0
  7  6  2  0
  8  2  1  0
  9  5  2  0
  9  6  1  0
  9  8  1  0
 10  8  2  0
M  END
>  <NAME>  (7336) 
META METHYL ACETOPHENONE

>  <SYNONYMS>  (7336) 


>  <SPECTRUM TYPE>  (7336) 
MS1

>  <INSTRUMENT TYPE>  (7336) 
EI-B

>  <INSTRUMENT>  (7336) 
HITACHI RMU-7M

>  <ION MODE>  (7336) 
P

>  <INCHIKEY>  (7336) 
FSPSELPMWGWDRY-UHFFFAOYSA-N

>  <FORMULA>  (7336) 
C9H10O

>  <EXACT MASS>  (7336) 
134.07316494

>  <MW>  (7336) 
134

>  <ID>  (7336) 
JP000198

>  <CONTRIBUTOR>  (7336) 
University of Tokyo Team, {Faculty of Engineering, University of Tokyo

>  <COMMENT>  (7336) 
SMILES=CC(=O)c(c1)cc(C)cc1
InChI=InChI=1S/C9H10O/c1-7-4-3-5-9(6-7)8(2)10/h3-6H,1-2H3
computed SMILES=O=C(C1=CC=CC(=C1)C)C
accession=JP000198
date=2016.01.19 (Created 2008.10.21, modified 2011.05.06)
author=TAJIMA S, GUNMA COLLEGE OF TECHNOLOGY
license=CC BY-NC-SA
exact mass=134.07316
ionization energy=70 eV
ion type=[M]+*
computed spectral entropy=2.385385306800575
computed normalized entropy=0.7505805232189581
SPLASH=splash10-014l-9500000000-f41b64d8b52865da17a7
submitter=submitter = University of Tokyo Team (Faculty of Engineering, University of Tokyo)
MoNA Rating=3.75

>  <NUM PEAKS>  (7336) 
24

>  <MASS SPECTRAL PEAKS>  (7336) 
15 4.03
27 3.15
38 3.06
39 21.37
41 4.76
43 24.11
45.5 2.34
50 5.4
51 9.52
52 2.02
62 4.03
63 11.94
64 2.82
65 31.85
66 1.61
77 2.42
89 5.65
90 2.42
91 82.5
92 6.45
119 99.99
120 8.55
134 31.21
135 3.23

$$$$

     RDKit          2D

 10 10  0  0  0  0  0  0  0  0999 V2000
    2.2806   -2.0598    0.0000 C   0  0  0  0  0  0  0  0  0  0  0  0
   -1.6200    0.1898    0.0000 C   0  0  0  0  0  0  0  0  0  0  0  0
    3.5681    1.6902    0.0000 C   0  0  0  0  0  0  0  0  0  0  0  0
    2.2781    2.4402    0.0000 C   0  0  0  0  0  0  0  0  0  0  0  0
    3.5681    0.1902    0.0000 C   0  0  0  0  0  0  0  0  0  0  0  0
    0.9781    1.6902    0.0000 C   0  0  0  0  0  0  0  0  0  0  0  0
    2.2781   -0.5598    0.0000 C   0  0  0  0  0  0  0  0  0  0  0  0
   -0.3208   -0.5600    0.0000 C   0  0  0  0  0  0  0  0  0  0  0  0
    0.9781    0.1902    0.0000 C   0  0  0  0  0  0  0  0  0  0  0  0
   -0.3206   -2.0600    0.0000 O   0  0  0  0  0  0  0  0  0  0  0  0
  4  3  2  0
  5  3  1  0
  6  4  1  0
  7  1  1  0
  7  5  2  0
  8  2  1  0
  9  6  2  0
  9  7  1  0
  9  8  1  0
 10  8  2  0
M  END
>  <NAME>  (7337) 
ORTHO METHYL ACETOPHENONE

>  <SYNONYMS>  (7337) 


>  <SPECTRUM TYPE>  (7337) 
MS1

>  <INSTRUMENT TYPE>  (7337) 
EI-B

>  <INSTRUMENT>  (7337) 
HITACHI RMU-7M

>  <ION MODE>  (7337) 
P

>  <INCHIKEY>  (7337) 
YXWWHNCQZBVZPV-UHFFFAOYSA-N

>  <FORMULA>  (7337) 
C9H10O

>  <EXACT MASS>  (7337) 
134.07316494

>  <MW>  (7337) 
134

>  <ID>  (7337) 
JP000197

>  <CONTRIBUTOR>  (7337) 
University of Tokyo Team, {Faculty of Engineering, University of Tokyo

>  <COMMENT>  (7337) 
SMILES=CC(=O)c(c1)c(C)ccc1
InChI=InChI=1S/C9H10O/c1-7-5-3-4-6-9(7)8(2)10/h3-6H,1-2H3
computed SMILES=O=C(C=1C=CC=CC1C)C
accession=JP000197
date=2016.01.19 (Created 2008.10.21, modified 2011.05.06)
author=TAJIMA S, GUNMA COLLEGE OF TECHNOLOGY
license=CC BY-NC-SA
exact mass=134.07316
ionization energy=70 eV
ion type=[M]+*
computed spectral entropy=2.241847634572406
computed normalized entropy=0.6880850853897026
SPLASH=splash10-014o-9600000000-8e7473021b55eeb933c5
submitter=submitter = University of Tokyo Team (Faculty of Engineering, University of Tokyo)
MoNA Rating=3.75

>  <NUM PEAKS>  (7337) 
26

>  <MASS SPECTRAL PEAKS>  (7337) 
27 1.87
38 1.35
39 11.58
41 3.02
43 15.32
45.5 1.87
50 3.15
51 6.44
52 1.22
62 2.7
63 7.66
64 1.8
65 23.1
66 2.25
77 3.41
89 6.18
90 2.57
91 99.99
92 7.92
103 1
105 1
115 1.42
119 92.21
120 8.3
134 29.47
135 3.02

$$$$

     RDKit          2D

 12 12  0  0  0  0  0  0  0  0999 V2000
    5.8432   -1.1319    0.0000 C   0  0  0  0  0  0  0  0  0  0  0  0
    4.5443   -0.3817    0.0000 C   0  0  0  0  0  0  0  0  0  0  0  0
   -0.6479   -3.3741    0.0000 C   0  0  0  0  0  0  0  0  0  0  0  0
    0.6466   -2.6319    0.0000 C   0  0  0  0  0  0  0  0  0  0  0  0
   -1.9470   -2.6241    0.0000 C   0  0  0  0  0  0  0  0  0  0  0  0
   -0.6520   -0.3811    0.0000 C   0  0  0  0  0  0  0  0  0  0  0  0
    0.6471   -1.1311    0.0000 C   0  0  0  0  0  0  0  0  0  0  0  0
   -1.9515   -1.1319    0.0000 C   0  0  0  0  0  0  0  0  0  0  0  0
    1.9462   -0.3813    0.0000 C   0  0  0  0  0  0  0  0  0  0  0  0
   -3.2518   -0.3841    0.0000 O   0  0  0  0  0  0  0  0  0  0  0  0
    1.9465    1.1187    0.0000 O   0  0  0  0  0  0  0  0  0  0  0  0
    3.2452   -1.1315    0.0000 O   0  0  0  0  0  0  0  0  0  0  0  0
  2  1  1  0
  4  3  2  0
  5  3  1  0
  7  4  1  0
  7  6  2  0
  8  5  2  0
  8  6  1  0
  9  7  1  0
 10  8  1  0
 11  9  2  0
 12  2  1  0
 12  9  1  0
M  END
>  <NAME>  (7338) 
META HYDROXY ETHYLBENZOATE

>  <SYNONYMS>  (7338) 


>  <SPECTRUM TYPE>  (7338) 
MS1

>  <INSTRUMENT TYPE>  (7338) 
EI-B

>  <INSTRUMENT>  (7338) 
HITACHI RMU-7M

>  <ION MODE>  (7338) 
P

>  <INCHIKEY>  (7338) 
MWSMNBYIEBRXAL-UHFFFAOYSA-N

>  <FORMULA>  (7338) 
C9H10O3

>  <EXACT MASS>  (7338) 
166.06299417999998

>  <MW>  (7338) 
166

>  <ID>  (7338) 
JP000196

>  <CONTRIBUTOR>  (7338) 
University of Tokyo Team, {Faculty of Engineering, University of Tokyo

>  <COMMENT>  (7338) 
SMILES=CCOC(=O)c(c1)cc(O)cc1
InChI=InChI=1S/C9H10O3/c1-2-12-9(11)7-4-3-5-8(10)6-7/h3-6,10H,2H2,1H3
computed SMILES=O=C(OCC)C=1C=CC=C(O)C1
accession=JP000196
date=2016.01.19 (Created 2008.10.21, modified 2011.05.06)
author=TAJIMA S, GUNMA COLLEGE OF TECHNOLOGY
license=CC BY-NC-SA
exact mass=166.06299
ionization energy=70 eV
ion type=[M]+*
computed spectral entropy=2.730469377351041
computed normalized entropy=0.780913334048632
SPLASH=splash10-00y3-9600000000-edbe94f6523669b7f131
submitter=submitter = University of Tokyo Team (Faculty of Engineering, University of Tokyo)
MoNA Rating=3.75

>  <NUM PEAKS>  (7338) 
33

>  <MASS SPECTRAL PEAKS>  (7338) 
26 1.52
27 8.36
28 1
29 9.88
37 1.22
38 5.32
39 31.46
40 1.52
43 1.22
45 2.66
50 4.33
51 4.56
53 5.4
62 3.42
63 12.46
64 8.51
65 43.54
66 5.24
74 1.82
77 6.38
81 2.28
92 6.38
93 52.58
94 11.7
105 4.48
120 1.98
121 99.99
122 13.68
138 25.84
139 1.9
151 3.27
166 19.68
167 2.13

$$$$

     RDKit          2D

 14 14  0  0  0  0  0  0  0  0999 V2000
   -7.7951   -1.5010    0.0000 C   0  0  0  0  0  0  0  0  0  0  0  0
   -6.4964    0.7492    0.0000 C   0  0  0  0  0  0  0  0  0  0  0  0
   -1.3000    0.7500    0.0000 C   0  0  0  0  0  0  0  0  0  0  0  0
    0.0000   -1.5000    0.0000 C   0  0  0  0  0  0  0  0  0  0  0  0
    0.0000    1.5000    0.0000 C   0  0  0  0  0  0  0  0  0  0  0  0
    1.3000   -0.7500    0.0000 C   0  0  0  0  0  0  0  0  0  0  0  0
   -5.1970   -1.5006    0.0000 C   0  0  0  0  0  0  0  0  0  0  0  0
   -6.4962   -0.7508    0.0000 C   0  0  0  0  0  0  0  0  0  0  0  0
   -1.3000   -0.7500    0.0000 C   0  0  0  0  0  0  0  0  0  0  0  0
    1.3000    0.7500    0.0000 C   0  0  0  0  0  0  0  0  0  0  0  0
   -2.5989   -1.5002    0.0000 C   0  0  0  0  0  0  0  0  0  0  0  0
    2.5989    1.5002    0.0000 I   0  0  0  0  0  0  0  0  0  0  0  0
   -2.5987   -3.0002    0.0000 O   0  0  0  0  0  0  0  0  0  0  0  0
   -3.8981   -0.7504    0.0000 O   0  0  0  0  0  0  0  0  0  0  0  0
  5  3  2  0
  6  4  1  0
  8  1  1  0
  8  2  1  0
  8  7  1  0
  9  3  1  0
  9  4  2  0
 10  5  1  0
 10  6  2  0
 11  9  1  0
 12 10  1  0
 13 11  2  0
 14  7  1  0
 14 11  1  0
M  END
>  <NAME>  (7339) 
PARA IODO ISOBUTYLBENZOATE

>  <SYNONYMS>  (7339) 


>  <SPECTRUM TYPE>  (7339) 
MS1

>  <INSTRUMENT TYPE>  (7339) 
EI-B

>  <INSTRUMENT>  (7339) 
HITACHI RMU-7M

>  <ION MODE>  (7339) 
P

>  <INCHIKEY>  (7339) 
RIZYPRZSPFNPBR-UHFFFAOYSA-N

>  <FORMULA>  (7339) 
C11H13IO2

>  <EXACT MASS>  (7339) 
303.996027656

>  <MW>  (7339) 
304

>  <ID>  (7339) 
JP000195

>  <CONTRIBUTOR>  (7339) 
University of Tokyo Team, {Faculty of Engineering, University of Tokyo

>  <COMMENT>  (7339) 
SMILES=CC(C)COC(=O)c(c1)ccc(I)c1
InChI=InChI=1S/C11H13IO2/c1-8(2)7-14-11(13)9-3-5-10(12)6-4-9/h3-6,8H,7H2,1-2H3
computed SMILES=O=C(OCC(C)C)C1=CC=C(I)C=C1
accession=JP000195
date=2016.01.19 (Created 2008.10.21, modified 2011.05.06)
author=TAJIMA S, GUNMA COLLEGE OF TECHNOLOGY
license=CC BY-NC-SA
exact mass=303.99602
ionization energy=70 eV
ion type=[M]+*
computed spectral entropy=2.5353122476812997
computed normalized entropy=0.7608513342862007
SPLASH=splash10-000t-5090000000-318e7e18cdc615c0197d
submitter=submitter = University of Tokyo Team (Faculty of Engineering, University of Tokyo)
MoNA Rating=3.75

>  <NUM PEAKS>  (7339) 
28

>  <MASS SPECTRAL PEAKS>  (7339) 
27 3.47
29 10.2
39 4.42
41 15.24
43 3.4
50 18.57
51 2.38
55 3.4
56 32.93
57 5.44
65 4.08
73 1.9
74 4.63
75 6.53
76 42.86
77 4.08
78 3.06
104 11.56
105 2.24
121 4.48
203 21.09
204 1.36
231 99.99
232 8.1
248 99.46
249 22.45
250 1.5
304 3.33

$$$$

     RDKit          2D

 14 14  0  0  0  0  0  0  0  0999 V2000
   -7.7951   -1.5010    0.0000 C   0  0  0  0  0  0  0  0  0  0  0  0
   -6.4964    0.7492    0.0000 C   0  0  0  0  0  0  0  0  0  0  0  0
   -1.3000    0.7500    0.0000 C   0  0  0  0  0  0  0  0  0  0  0  0
    0.0000   -1.5000    0.0000 C   0  0  0  0  0  0  0  0  0  0  0  0
    0.0000    1.5000    0.0000 C   0  0  0  0  0  0  0  0  0  0  0  0
    1.3000   -0.7500    0.0000 C   0  0  0  0  0  0  0  0  0  0  0  0
   -5.1970   -1.5006    0.0000 C   0  0  0  0  0  0  0  0  0  0  0  0
   -6.4962   -0.7508    0.0000 C   0  0  0  0  0  0  0  0  0  0  0  0
   -1.3000   -0.7500    0.0000 C   0  0  0  0  0  0  0  0  0  0  0  0
    1.3000    0.7500    0.0000 C   0  0  0  0  0  0  0  0  0  0  0  0
   -2.5989   -1.5002    0.0000 C   0  0  0  0  0  0  0  0  0  0  0  0
    2.5989    1.5002    0.0000 Br  0  0  0  0  0  0  0  0  0  0  0  0
   -2.5987   -3.0002    0.0000 O   0  0  0  0  0  0  0  0  0  0  0  0
   -3.8981   -0.7504    0.0000 O   0  0  0  0  0  0  0  0  0  0  0  0
  5  3  2  0
  6  4  1  0
  8  1  1  0
  8  2  1  0
  8  7  1  0
  9  3  1  0
  9  4  2  0
 10  5  1  0
 10  6  2  0
 11  9  1  0
 12 10  1  0
 13 11  2  0
 14  7  1  0
 14 11  1  0
M  END
>  <NAME>  (7340) 
PARA BROMO ISOBUTYLBENZOATE

>  <SYNONYMS>  (7340) 


>  <SPECTRUM TYPE>  (7340) 
MS1

>  <INSTRUMENT TYPE>  (7340) 
EI-B

>  <INSTRUMENT>  (7340) 
HITACHI RMU-7M

>  <ION MODE>  (7340) 
P

>  <INCHIKEY>  (7340) 
NQPBBLSKHPOXEU-UHFFFAOYSA-N

>  <FORMULA>  (7340) 
C11H13BrO2

>  <EXACT MASS>  (7340) 
256.009891756

>  <MW>  (7340) 
256

>  <ID>  (7340) 
JP000194

>  <CONTRIBUTOR>  (7340) 
University of Tokyo Team, {Faculty of Engineering, University of Tokyo

>  <COMMENT>  (7340) 
SMILES=CC(C)COC(=O)c(c1)ccc(Br)c1
InChI=InChI=1S/C11H13BrO2/c1-8(2)7-14-11(13)9-3-5-10(12)6-4-9/h3-6,8H,7H2,1-2H3
computed SMILES=O=C(OCC(C)C)C1=CC=C(Br)C=C1
accession=JP000194
date=2016.01.19 (Created 2008.10.21, modified 2011.05.06)
author=TAJIMA S, GUNMA COLLEGE OF TECHNOLOGY
license=CC BY-NC-SA
exact mass=256.00989
ionization energy=70 eV
ion type=[M]+*
computed spectral entropy=2.6829894129497376
computed normalized entropy=0.7888367277404431
SPLASH=splash10-0a4i-9730000000-1685e4bc8a730ea96fa4
submitter=submitter = University of Tokyo Team (Faculty of Engineering, University of Tokyo)
MoNA Rating=3.75

>  <NUM PEAKS>  (7340) 
30

>  <MASS SPECTRAL PEAKS>  (7340) 
27 3.7
29 8.33
39 3.62
41 14.49
43 3.16
44 1.16
50 9.95
51 1.77
55 3.47
56 99.99
57 7.63
65 1.16
73 2.31
74 2.93
75 15.34
76 15.81
77 3.01
104 1.93
155 15.88
156 1.23
157 15.81
183 62.07
184 4.78
185 60.14
186 4.63
200 11.57
201 21.43
202 13.03
203 20.89
204 1.54

$$$$

     RDKit          2D

 14 14  0  0  0  0  0  0  0  0999 V2000
    6.4725    3.7703    0.0000 C   0  0  0  0  0  0  0  0  0  0  0  0
    5.1848    1.5138    0.0000 C   0  0  0  0  0  0  0  0  0  0  0  0
   -1.3084    3.7212    0.0000 C   0  0  0  0  0  0  0  0  0  0  0  0
   -0.0134    1.4782    0.0000 C   0  0  0  0  0  0  0  0  0  0  0  0
   -2.6074    2.9712    0.0000 C   0  0  0  0  0  0  0  0  0  0  0  0
   -1.3124    0.7282    0.0000 C   0  0  0  0  0  0  0  0  0  0  0  0
    3.8745    3.7573    0.0000 C   0  0  0  0  0  0  0  0  0  0  0  0
    5.1772    3.0138    0.0000 C   0  0  0  0  0  0  0  0  0  0  0  0
   -0.0188    2.9877    0.0000 C   0  0  0  0  0  0  0  0  0  0  0  0
   -2.6256    1.4827    0.0000 C   0  0  0  0  0  0  0  0  0  0  0  0
    1.2764    3.7442    0.0000 C   0  0  0  0  0  0  0  0  0  0  0  0
   -3.9284    0.7393    0.0000 Cl  0  0  0  0  0  0  0  0  0  0  0  0
    1.2689    5.2442    0.0000 O   0  0  0  0  0  0  0  0  0  0  0  0
    2.5792    3.0007    0.0000 O   0  0  0  0  0  0  0  0  0  0  0  0
  5  3  2  0
  6  4  1  0
  8  1  1  0
  8  2  1  0
  8  7  1  0
  9  3  1  0
  9  4  2  0
 10  5  1  0
 10  6  2  0
 11  9  1  0
 12 10  1  0
 13 11  2  0
 14  7  1  0
 14 11  1  0
M  END
>  <NAME>  (7341) 
PARA CHLORO ISOBUTYLBENZOATE

>  <SYNONYMS>  (7341) 


>  <SPECTRUM TYPE>  (7341) 
MS1

>  <INSTRUMENT TYPE>  (7341) 
EI-B

>  <INSTRUMENT>  (7341) 
HITACHI RMU-7M

>  <ION MODE>  (7341) 
P

>  <INCHIKEY>  (7341) 
BWLDEQAGSZRTIV-UHFFFAOYSA-N

>  <FORMULA>  (7341) 
C11H13ClO2

>  <EXACT MASS>  (7341) 
212.060407336

>  <MW>  (7341) 
212

>  <ID>  (7341) 
JP000193

>  <CONTRIBUTOR>  (7341) 
University of Tokyo Team, {Faculty of Engineering, University of Tokyo

>  <COMMENT>  (7341) 
SMILES=CC(C)COC(=O)c(c1)ccc(Cl)c1
InChI=InChI=1S/C11H13ClO2/c1-8(2)7-14-11(13)9-3-5-10(12)6-4-9/h3-6,8H,7H2,1-2H3
computed SMILES=O=C(OCC(C)C)C1=CC=C(Cl)C=C1
accession=JP000193
date=2016.01.19 (Created 2008.10.21, modified 2011.05.06)
author=TAJIMA S, GUNMA COLLEGE OF TECHNOLOGY
license=CC BY-NC-SA
exact mass=212.06041
ionization energy=70 eV
ion type=[M]+*
computed spectral entropy=2.5683677826907774
computed normalized entropy=0.7883031557592978
SPLASH=splash10-052r-6900000000-64fa16be2c798b706b53
submitter=submitter = University of Tokyo Team (Faculty of Engineering, University of Tokyo)
MoNA Rating=3.75

>  <NUM PEAKS>  (7341) 
26

>  <MASS SPECTRAL PEAKS>  (7341) 
27 5.07
29 8.21
39 5.15
41 14.63
43 3.21
50 7.84
51 3.58
55 2.39
56 67.91
57 5
73 2.09
74 3.13
75 21.79
76 5.75
77 2.24
111 32.39
112 2.24
113 11.49
139 99.99
140 7.61
141 32.76
142 2.24
156 7.46
157 25.37
158 3.96
159 8.21

$$$$

     RDKit          2D

 14 14  0  0  0  0  0  0  0  0999 V2000
    7.7951    1.5010    0.0000 C   0  0  0  0  0  0  0  0  0  0  0  0
    6.4964   -0.7492    0.0000 C   0  0  0  0  0  0  0  0  0  0  0  0
    1.3000   -0.7500    0.0000 C   0  0  0  0  0  0  0  0  0  0  0  0
    0.0000    1.5000    0.0000 C   0  0  0  0  0  0  0  0  0  0  0  0
   -0.0000   -1.5000    0.0000 C   0  0  0  0  0  0  0  0  0  0  0  0
   -1.3000    0.7500    0.0000 C   0  0  0  0  0  0  0  0  0  0  0  0
    5.1970    1.5006    0.0000 C   0  0  0  0  0  0  0  0  0  0  0  0
    6.4962    0.7508    0.0000 C   0  0  0  0  0  0  0  0  0  0  0  0
    1.3000    0.7500    0.0000 C   0  0  0  0  0  0  0  0  0  0  0  0
   -1.3000   -0.7500    0.0000 C   0  0  0  0  0  0  0  0  0  0  0  0
    2.5989    1.5002    0.0000 C   0  0  0  0  0  0  0  0  0  0  0  0
   -2.5989   -1.5002    0.0000 F   0  0  0  0  0  0  0  0  0  0  0  0
    2.5987    3.0002    0.0000 O   0  0  0  0  0  0  0  0  0  0  0  0
    3.8981    0.7504    0.0000 O   0  0  0  0  0  0  0  0  0  0  0  0
  5  3  2  0
  6  4  1  0
  8  1  1  0
  8  2  1  0
  8  7  1  0
  9  3  1  0
  9  4  2  0
 10  5  1  0
 10  6  2  0
 11  9  1  0
 12 10  1  0
 13 11  2  0
 14  7  1  0
 14 11  1  0
M  END
>  <NAME>  (7342) 
PARA FLUORO ISOBUTYLBENZOATE

>  <SYNONYMS>  (7342) 


>  <SPECTRUM TYPE>  (7342) 
MS1

>  <INSTRUMENT TYPE>  (7342) 
EI-B

>  <INSTRUMENT>  (7342) 
HITACHI RMU-7M

>  <ION MODE>  (7342) 
P

>  <INCHIKEY>  (7342) 
IGYANOACLVBRGX-UHFFFAOYSA-N

>  <FORMULA>  (7342) 
C11H13FO2

>  <EXACT MASS>  (7342) 
196.089957876

>  <MW>  (7342) 
196

>  <ID>  (7342) 
JP000192

>  <CONTRIBUTOR>  (7342) 
University of Tokyo Team, {Faculty of Engineering, University of Tokyo

>  <COMMENT>  (7342) 
SMILES=CC(C)COC(=O)c(c1)ccc(F)c1
InChI=InChI=1S/C11H13FO2/c1-8(2)7-14-11(13)9-3-5-10(12)6-4-9/h3-6,8H,7H2,1-2H3
computed SMILES=O=C(OCC(C)C)C1=CC=C(F)C=C1
accession=JP000192
date=2016.01.19 (Created 2008.10.21, modified 2011.05.06)
author=TAJIMA S, GUNMA COLLEGE OF TECHNOLOGY
license=CC BY-NC-SA
exact mass=196.08996
ionization energy=70 eV
ion type=[M]+*
computed spectral entropy=2.2819911102999346
computed normalized entropy=0.7180467141584236
SPLASH=splash10-00di-9700000000-c42cefa0da4a3d5d8ea2
submitter=submitter = University of Tokyo Team (Faculty of Engineering, University of Tokyo)
MoNA Rating=3.75

>  <NUM PEAKS>  (7342) 
24

>  <MASS SPECTRAL PEAKS>  (7342) 
27 6.01
29 7.13
39 7.04
41 14.6
43 2.75
50 3.69
51 2.15
55 2.06
56 37.8
57 3.35
68 1.12
69 2.58
74 1.72
75 19.76
76 1.37
94 2.66
95 43.64
96 2.58
97 2.15
123 99.99
124 6.96
140 1.2
141 20.62
142 1.29

$$$$

     RDKit          2D

 14 14  0  0  0  0  0  0  0  0999 V2000
    4.2225   -2.4379    0.0000 C   0  0  0  0  0  0  0  0  0  0  0  0
    2.9235   -4.6879    0.0000 C   0  0  0  0  0  0  0  0  0  0  0  0
   -3.5712   -5.4387    0.0000 C   0  0  0  0  0  0  0  0  0  0  0  0
   -4.8708   -4.6879    0.0000 C   0  0  0  0  0  0  0  0  0  0  0  0
   -2.2722   -4.6887    0.0000 C   0  0  0  0  0  0  0  0  0  0  0  0
   -4.8712   -3.1870    0.0000 C   0  0  0  0  0  0  0  0  0  0  0  0
    1.6244   -2.4379    0.0000 C   0  0  0  0  0  0  0  0  0  0  0  0
    2.9235   -3.1879    0.0000 C   0  0  0  0  0  0  0  0  0  0  0  0
   -2.2727   -3.1879    0.0000 C   0  0  0  0  0  0  0  0  0  0  0  0
   -3.5722   -2.4370    0.0000 C   0  0  0  0  0  0  0  0  0  0  0  0
   -0.9736   -2.4379    0.0000 C   0  0  0  0  0  0  0  0  0  0  0  0
   -3.5720   -0.9370    0.0000 I   0  0  0  0  0  0  0  0  0  0  0  0
   -0.9736   -0.9379    0.0000 O   0  0  0  0  0  0  0  0  0  0  0  0
    0.3254   -3.1879    0.0000 O   0  0  0  0  0  0  0  0  0  0  0  0
  4  3  2  0
  5  3  1  0
  6  4  1  0
  8  1  1  0
  8  2  1  0
  8  7  1  0
  9  5  2  0
 10  6  2  0
 10  9  1  0
 11  9  1  0
 12 10  1  0
 13 11  2  0
 14  7  1  0
 14 11  1  0
M  END
>  <NAME>  (7343) 
ORTHO IODO ISOBUTYLBENZOATE

>  <SYNONYMS>  (7343) 


>  <SPECTRUM TYPE>  (7343) 
MS1

>  <INSTRUMENT TYPE>  (7343) 
EI-B

>  <INSTRUMENT>  (7343) 
HITACHI RMU-7M

>  <ION MODE>  (7343) 
P

>  <INCHIKEY>  (7343) 
IZXVGIVNILXQPP-UHFFFAOYSA-N

>  <FORMULA>  (7343) 
C11H13IO2

>  <EXACT MASS>  (7343) 
303.996027656

>  <MW>  (7343) 
304

>  <ID>  (7343) 
JP000191

>  <CONTRIBUTOR>  (7343) 
University of Tokyo Team, {Faculty of Engineering, University of Tokyo

>  <COMMENT>  (7343) 
SMILES=CC(C)COC(=O)c(c1)c(I)ccc1
InChI=InChI=1S/C11H13IO2/c1-8(2)7-14-11(13)9-5-3-4-6-10(9)12/h3-6,8H,7H2,1-2H3
computed SMILES=O=C(OCC(C)C)C=1C=CC=CC1I
accession=JP000191
date=2016.01.19 (Created 2008.10.21, modified 2011.05.06)
author=TAJIMA S, GUNMA COLLEGE OF TECHNOLOGY
license=CC BY-NC-SA
exact mass=303.99602
ionization energy=70 eV
ion type=[M]+*
computed spectral entropy=2.6750436689543093
computed normalized entropy=0.7865005669406411
SPLASH=splash10-0f9t-8090000000-ebe750b2a3fa8be8433a
submitter=submitter = University of Tokyo Team (Faculty of Engineering, University of Tokyo)
MoNA Rating=3.75

>  <NUM PEAKS>  (7343) 
30

>  <MASS SPECTRAL PEAKS>  (7343) 
27 7.62
29 21.78
39 8.97
41 26.16
43 5.26
50 23.6
51 4.18
55 4.05
56 18.54
57 8.97
65 4.05
73 1.55
74 4.59
75 7.01
76 54.62
77 8.97
78 1.35
93 3.64
104 10.79
105 4.18
121 4.72
203 22.86
204 1.48
231 93.93
232 7.35
248 99.99
249 11.67
250 0.81
304 6.95
305 0.81

$$$$

     RDKit          2D

 14 14  0  0  0  0  0  0  0  0999 V2000
    4.2225   -2.4379    0.0000 C   0  0  0  0  0  0  0  0  0  0  0  0
    2.9235   -4.6879    0.0000 C   0  0  0  0  0  0  0  0  0  0  0  0
   -3.5712   -5.4387    0.0000 C   0  0  0  0  0  0  0  0  0  0  0  0
   -4.8708   -4.6879    0.0000 C   0  0  0  0  0  0  0  0  0  0  0  0
   -2.2722   -4.6887    0.0000 C   0  0  0  0  0  0  0  0  0  0  0  0
   -4.8712   -3.1870    0.0000 C   0  0  0  0  0  0  0  0  0  0  0  0
    1.6244   -2.4379    0.0000 C   0  0  0  0  0  0  0  0  0  0  0  0
    2.9235   -3.1879    0.0000 C   0  0  0  0  0  0  0  0  0  0  0  0
   -2.2727   -3.1879    0.0000 C   0  0  0  0  0  0  0  0  0  0  0  0
   -3.5722   -2.4370    0.0000 C   0  0  0  0  0  0  0  0  0  0  0  0
   -0.9736   -2.4379    0.0000 C   0  0  0  0  0  0  0  0  0  0  0  0
   -3.5720   -0.9370    0.0000 Br  0  0  0  0  0  0  0  0  0  0  0  0
   -0.9736   -0.9379    0.0000 O   0  0  0  0  0  0  0  0  0  0  0  0
    0.3254   -3.1879    0.0000 O   0  0  0  0  0  0  0  0  0  0  0  0
  4  3  2  0
  5  3  1  0
  6  4  1  0
  8  1  1  0
  8  2  1  0
  8  7  1  0
  9  5  2  0
 10  6  2  0
 10  9  1  0
 11  9  1  0
 12 10  1  0
 13 11  2  0
 14  7  1  0
 14 11  1  0
M  END
>  <NAME>  (7344) 
ORTHO BROMO ISOBUTYLBENZOATE

>  <SYNONYMS>  (7344) 


>  <SPECTRUM TYPE>  (7344) 
MS1

>  <INSTRUMENT TYPE>  (7344) 
EI-B

>  <INSTRUMENT>  (7344) 
HITACHI RMU-7M

>  <ION MODE>  (7344) 
P

>  <INCHIKEY>  (7344) 
SCIFVEGBPQFBFK-UHFFFAOYSA-N

>  <FORMULA>  (7344) 
C11H13BrO2

>  <EXACT MASS>  (7344) 
256.009891756

>  <MW>  (7344) 
256

>  <ID>  (7344) 
JP000190

>  <CONTRIBUTOR>  (7344) 
University of Tokyo Team, {Faculty of Engineering, University of Tokyo

>  <COMMENT>  (7344) 
SMILES=CC(C)COC(=O)c(c1)c(Br)ccc1
InChI=InChI=1S/C11H13BrO2/c1-8(2)7-14-11(13)9-5-3-4-6-10(9)12/h3-6,8H,7H2,1-2H3
computed SMILES=O=C(OCC(C)C)C=1C=CC=CC1Br
accession=JP000190
date=2016.01.19 (Created 2008.10.21, modified 2011.05.06)
author=TAJIMA S, GUNMA COLLEGE OF TECHNOLOGY
license=CC BY-NC-SA
exact mass=256.00989
ionization energy=70 eV
ion type=[M]+*
computed spectral entropy=2.739947162606291
computed normalized entropy=0.797890906240895
SPLASH=splash10-0zgr-5940000000-5e20f3af199150098b9d
submitter=submitter = University of Tokyo Team (Faculty of Engineering, University of Tokyo)
MoNA Rating=3.75

>  <NUM PEAKS>  (7344) 
31

>  <MASS SPECTRAL PEAKS>  (7344) 
27 3.88
29 8.9
39 4.9
41 15.32
43 3.24
50 9.54
51 2.29
55 3.12
56 49.9
57 5.72
73 2.42
74 2.67
75 17.04
76 20.03
77 4.64
104 3.81
105 1.34
155 23.08
156 1.97
157 23.59
158 1.53
159 1.21
183 99.99
184 7.82
185 97.27
186 7.57
200 17.99
201 50.92
202 21.55
203 49.71
204 3.56

$$$$

     RDKit          2D

 14 14  0  0  0  0  0  0  0  0999 V2000
   -5.8307    2.9676    0.0000 C   0  0  0  0  0  0  0  0  0  0  0  0
   -4.5129    0.7285    0.0000 C   0  0  0  0  0  0  0  0  0  0  0  0
    1.9946    0.0401    0.0000 C   0  0  0  0  0  0  0  0  0  0  0  0
    3.2934    0.7951    0.0000 C   0  0  0  0  0  0  0  0  0  0  0  0
    0.6826    0.7673    0.0000 C   0  0  0  0  0  0  0  0  0  0  0  0
    3.2726    2.3044    0.0000 C   0  0  0  0  0  0  0  0  0  0  0  0
   -3.2327    2.9893    0.0000 C   0  0  0  0  0  0  0  0  0  0  0  0
   -4.5255    2.2284    0.0000 C   0  0  0  0  0  0  0  0  0  0  0  0
    0.6705    2.2718    0.0000 C   0  0  0  0  0  0  0  0  0  0  0  0
    1.9606    3.0316    0.0000 C   0  0  0  0  0  0  0  0  0  0  0  0
   -0.6347    3.0110    0.0000 C   0  0  0  0  0  0  0  0  0  0  0  0
    1.9411    4.5315    0.0000 Cl  0  0  0  0  0  0  0  0  0  0  0  0
   -0.6473    4.5109    0.0000 O   0  0  0  0  0  0  0  0  0  0  0  0
   -1.9275    2.2501    0.0000 O   0  0  0  0  0  0  0  0  0  0  0  0
  4  3  2  0
  5  3  1  0
  6  4  1  0
  8  1  1  0
  8  2  1  0
  8  7  1  0
  9  5  2  0
 10  6  2  0
 10  9  1  0
 11  9  1  0
 12 10  1  0
 13 11  2  0
 14  7  1  0
 14 11  1  0
M  END
>  <NAME>  (7345) 
ORTHO CHLORO ISOBUTYLBENZOATE

>  <SYNONYMS>  (7345) 


>  <SPECTRUM TYPE>  (7345) 
MS1

>  <INSTRUMENT TYPE>  (7345) 
EI-B

>  <INSTRUMENT>  (7345) 
HITACHI RMU-7M

>  <ION MODE>  (7345) 
P

>  <INCHIKEY>  (7345) 
BESGEXPDWNNBJA-UHFFFAOYSA-N

>  <FORMULA>  (7345) 
C11H13ClO2

>  <EXACT MASS>  (7345) 
212.060407336

>  <MW>  (7345) 
212

>  <ID>  (7345) 
JP000189

>  <CONTRIBUTOR>  (7345) 
University of Tokyo Team, {Faculty of Engineering, University of Tokyo

>  <COMMENT>  (7345) 
SMILES=CC(C)COC(=O)c(c1)c(Cl)ccc1
InChI=InChI=1S/C11H13ClO2/c1-8(2)7-14-11(13)9-5-3-4-6-10(9)12/h3-6,8H,7H2,1-2H3
computed SMILES=O=C(OCC(C)C)C=1C=CC=CC1Cl
accession=JP000189
date=2016.01.19 (Created 2008.10.21, modified 2011.05.06)
author=TAJIMA S, GUNMA COLLEGE OF TECHNOLOGY
license=CC BY-NC-SA
exact mass=212.06041
ionization energy=70 eV
ion type=[M]+*
computed spectral entropy=2.5981611391021597
computed normalized entropy=0.7797123889510464
SPLASH=splash10-052r-5900000000-88171e2d2e315d7e251a
submitter=submitter = University of Tokyo Team (Faculty of Engineering, University of Tokyo)
MoNA Rating=3.75

>  <NUM PEAKS>  (7345) 
28

>  <MASS SPECTRAL PEAKS>  (7345) 
27 3.92
29 7.09
39 4.54
41 13.23
43 3.31
44 1.8
50 6.62
51 3.21
55 3.31
56 61.11
57 5.39
73 1.98
74 2.84
75 18.71
76 4.96
77 2.36
111 29.3
112 2.27
113 11.11
139 99.99
140 7.47
141 32.75
142 2.93
155 1.32
156 7.51
157 25.99
158 4.21
159 8.32

$$$$

     RDKit          2D

 14 14  0  0  0  0  0  0  0  0999 V2000
    3.8909    1.8828    0.0000 C   0  0  0  0  0  0  0  0  0  0  0  0
    2.5881    4.1306    0.0000 C   0  0  0  0  0  0  0  0  0  0  0  0
   -3.9091    4.8641    0.0000 C   0  0  0  0  0  0  0  0  0  0  0  0
   -5.2036    4.1219    0.0000 C   0  0  0  0  0  0  0  0  0  0  0  0
   -2.6100    4.1141    0.0000 C   0  0  0  0  0  0  0  0  0  0  0  0
   -5.2041    2.6210    0.0000 C   0  0  0  0  0  0  0  0  0  0  0  0
    1.2929    1.8784    0.0000 C   0  0  0  0  0  0  0  0  0  0  0  0
    2.5906    2.6306    0.0000 C   0  0  0  0  0  0  0  0  0  0  0  0
   -2.6055    2.6219    0.0000 C   0  0  0  0  0  0  0  0  0  0  0  0
   -3.9050    1.8710    0.0000 C   0  0  0  0  0  0  0  0  0  0  0  0
   -1.3052    1.8741    0.0000 C   0  0  0  0  0  0  0  0  0  0  0  0
   -3.9048    0.3710    0.0000 F   0  0  0  0  0  0  0  0  0  0  0  0
   -1.3027    0.3741    0.0000 O   0  0  0  0  0  0  0  0  0  0  0  0
   -0.0074    2.6262    0.0000 O   0  0  0  0  0  0  0  0  0  0  0  0
  4  3  2  0
  5  3  1  0
  6  4  1  0
  8  1  1  0
  8  2  1  0
  8  7  1  0
  9  5  2  0
 10  6  2  0
 10  9  1  0
 11  9  1  0
 12 10  1  0
 13 11  2  0
 14  7  1  0
 14 11  1  0
M  END
>  <NAME>  (7346) 
ORTHO FLUORO ISOBUTYLBENZOATE

>  <SYNONYMS>  (7346) 


>  <SPECTRUM TYPE>  (7346) 
MS1

>  <INSTRUMENT TYPE>  (7346) 
EI-B

>  <INSTRUMENT>  (7346) 
HITACHI RMU-7M

>  <ION MODE>  (7346) 
P

>  <INCHIKEY>  (7346) 
KQJFKNAUYPTSIY-UHFFFAOYSA-N

>  <FORMULA>  (7346) 
C11H13FO2

>  <EXACT MASS>  (7346) 
196.089957876

>  <MW>  (7346) 
196

>  <ID>  (7346) 
JP000188

>  <CONTRIBUTOR>  (7346) 
University of Tokyo Team, {Faculty of Engineering, University of Tokyo

>  <COMMENT>  (7346) 
SMILES=CC(C)COC(=O)c(c1)c(F)ccc1
InChI=InChI=1S/C11H13FO2/c1-8(2)7-14-11(13)9-5-3-4-6-10(9)12/h3-6,8H,7H2,1-2H3
computed SMILES=O=C(OCC(C)C)C=1C=CC=CC1F
accession=JP000188
date=2016.01.19 (Created 2008.10.21, modified 2011.05.06)
author=TAJIMA S, GUNMA COLLEGE OF TECHNOLOGY
license=CC BY-NC-SA
exact mass=196.08996
ionization energy=70 eV
ion type=[M]+*
computed spectral entropy=2.309483511405139
computed normalized entropy=0.7174813932127073
SPLASH=splash10-00di-8900000000-afc765ebee793480cc37
submitter=submitter = University of Tokyo Team (Faculty of Engineering, University of Tokyo)
MoNA Rating=3.75

>  <NUM PEAKS>  (7346) 
25

>  <MASS SPECTRAL PEAKS>  (7346) 
27 5.44
29 7.4
39 6.42
41 14.8
43 2.85
50 2.76
51 1.96
55 2.05
56 31.19
57 3.57
68 1.07
69 2.67
73 1.69
74 1.52
75 17.47
76 1.78
94 2.05
95 30.04
96 2.5
97 1.6
123 99.99
124 7.31
140 1.25
141 30.57
142 1.96

$$$$

     RDKit          2D

  8  8  0  0  0  0  0  0  0  0999 V2000
    2.5961    1.5170    0.0000 C   0  0  0  0  0  0  0  0  0  0  0  0
    0.0113    1.4940    0.0000 C   0  0  0  0  0  0  0  0  0  0  0  0
    1.3063   -0.7490    0.0000 C   0  0  0  0  0  0  0  0  0  0  0  0
   -1.2877    0.7440    0.0000 C   0  0  0  0  0  0  0  0  0  0  0  0
    0.0073   -1.4990    0.0000 C   0  0  0  0  0  0  0  0  0  0  0  0
    1.3009    0.7605    0.0000 C   0  0  0  0  0  0  0  0  0  0  0  0
   -1.3059   -0.7445    0.0000 C   0  0  0  0  0  0  0  0  0  0  0  0
   -2.6087   -1.4879    0.0000 Cl  0  0  0  0  0  0  0  0  0  0  0  0
  4  2  2  0
  5  3  1  0
  6  1  1  0
  6  2  1  0
  6  3  2  0
  7  4  1  0
  7  5  2  0
  8  7  1  0
M  END
>  <NAME>  (7347) 
PARA CHLOROTOLUENE

>  <SYNONYMS>  (7347) 


>  <SPECTRUM TYPE>  (7347) 
MS1

>  <INSTRUMENT TYPE>  (7347) 
EI-B

>  <INSTRUMENT>  (7347) 
HITACHI RMU-7M

>  <ION MODE>  (7347) 
P

>  <INCHIKEY>  (7347) 
NPDACUSDTOMAMK-UHFFFAOYSA-N

>  <FORMULA>  (7347) 
C7H7Cl

>  <EXACT MASS>  (7347) 
126.023627904

>  <MW>  (7347) 
126

>  <ID>  (7347) 
JP000187

>  <CONTRIBUTOR>  (7347) 
University of Tokyo Team, {Faculty of Engineering, University of Tokyo

>  <COMMENT>  (7347) 
SMILES=Cc(c1)ccc(Cl)c1
InChI=InChI=1S/C7H7Cl/c1-6-2-4-7(8)5-3-6/h2-5H,1H3
computed SMILES=ClC1=CC=C(C=C1)C
accession=JP000187
date=2016.01.19 (Created 2008.10.21, modified 2011.05.06)
author=TAJIMA S, GUNMA COLLEGE OF TECHNOLOGY
license=CC BY-NC-SA
exact mass=126.02363
ionization energy=70 eV
ion type=[M]+*
computed spectral entropy=2.3577134122123575
computed normalized entropy=0.7001800647321884
SPLASH=splash10-002f-9300000000-98b502e29fa6a28fd64a
submitter=submitter = University of Tokyo Team (Faculty of Engineering, University of Tokyo)
MoNA Rating=3.75

>  <NUM PEAKS>  (7347) 
29

>  <MASS SPECTRAL PEAKS>  (7347) 
27 1.15
37 1.02
38 1.78
39 7.2
41 1.27
43 2.1
44 1.78
44.5 1.27
45 4.59
50 3.51
51 3.51
61 1.47
62 3.19
63 8.92
64 1.66
65 9.75
73 2.36
75 1.91
89 9.43
90 2.42
91 99.99
92 7.52
99 2.55
101 0.7
125 14.66
126 33.08
127 7.01
128 10.64
129 0.76

$$$$

     RDKit          2D

  8  8  0  0  0  0  0  0  0  0999 V2000
    2.5967    1.1340    0.0000 C   0  0  0  0  0  0  0  0  0  0  0  0
   -0.0000   -1.8800    0.0000 C   0  0  0  0  0  0  0  0  0  0  0  0
    1.3000   -1.1200    0.0000 C   0  0  0  0  0  0  0  0  0  0  0  0
   -1.3000   -1.1200    0.0000 C   0  0  0  0  0  0  0  0  0  0  0  0
   -0.0000    1.1200    0.0000 C   0  0  0  0  0  0  0  0  0  0  0  0
    1.3000    0.3800    0.0000 C   0  0  0  0  0  0  0  0  0  0  0  0
   -1.3000    0.3800    0.0000 C   0  0  0  0  0  0  0  0  0  0  0  0
   -2.5967    1.1340    0.0000 Cl  0  0  0  0  0  0  0  0  0  0  0  0
  3  2  2  0
  4  2  1  0
  6  1  1  0
  6  3  1  0
  6  5  2  0
  7  4  2  0
  7  5  1  0
  8  7  1  0
M  END
>  <NAME>  (7348) 
META CHLOROTOLUENE

>  <SYNONYMS>  (7348) 


>  <SPECTRUM TYPE>  (7348) 
MS1

>  <INSTRUMENT TYPE>  (7348) 
EI-B

>  <INSTRUMENT>  (7348) 
HITACHI RMU-7M

>  <ION MODE>  (7348) 
P

>  <INCHIKEY>  (7348) 
OSOUNOBYRMOXQQ-UHFFFAOYSA-N

>  <FORMULA>  (7348) 
C7H7Cl

>  <EXACT MASS>  (7348) 
126.023627904

>  <MW>  (7348) 
126

>  <ID>  (7348) 
JP000186

>  <CONTRIBUTOR>  (7348) 
University of Tokyo Team, {Faculty of Engineering, University of Tokyo

>  <COMMENT>  (7348) 
SMILES=Cc(c1)cc(Cl)cc1
InChI=InChI=1S/C7H7Cl/c1-6-3-2-4-7(8)5-6/h2-5H,1H3
computed SMILES=ClC1=CC=CC(=C1)C
accession=JP000186
date=2016.01.19 (Created 2008.10.21, modified 2011.05.06)
author=TAJIMA S, GUNMA COLLEGE OF TECHNOLOGY
license=CC BY-NC-SA
exact mass=126.02363
ionization energy=70 eV
ion type=[M]+*
computed spectral entropy=2.20412645278695
computed normalized entropy=0.6847503826517446
SPLASH=splash10-002f-9300000000-9e9f5b8aed1c308f8da7
submitter=submitter = University of Tokyo Team (Faculty of Engineering, University of Tokyo)
MoNA Rating=3.75

>  <NUM PEAKS>  (7348) 
25

>  <MASS SPECTRAL PEAKS>  (7348) 
38 1.52
39 7.79
41 1.1
43 1.17
45 2.07
50 3.38
51 3.38
61 1.45
62 3.38
63 9.38
64 1.38
65 11.72
73 1.52
75 1.59
89 11.03
90 2
91 99.99
92 7.03
99 1.93
101 0.61
125 10.48
126 39.03
127 6.14
128 12.55
129 0.69

$$$$

     RDKit          2D

  8  8  0  0  0  0  0  0  0  0999 V2000
    1.9603    1.8559    0.0000 C   0  0  0  0  0  0  0  0  0  0  0  0
   -1.9404    1.1322    0.0000 C   0  0  0  0  0  0  0  0  0  0  0  0
   -1.9623   -0.3699    0.0000 C   0  0  0  0  0  0  0  0  0  0  0  0
   -0.6414    1.8822    0.0000 C   0  0  0  0  0  0  0  0  0  0  0  0
   -0.6578   -1.1294    0.0000 C   0  0  0  0  0  0  0  0  0  0  0  0
    0.6545    1.1177    0.0000 C   0  0  0  0  0  0  0  0  0  0  0  0
    0.6413   -0.3794    0.0000 C   0  0  0  0  0  0  0  0  0  0  0  0
    1.9370   -1.1351    0.0000 Cl  0  0  0  0  0  0  0  0  0  0  0  0
  3  2  2  0
  4  2  1  0
  5  3  1  0
  6  1  1  0
  6  4  2  0
  7  5  2  0
  7  6  1  0
  8  7  1  0
M  END
>  <NAME>  (7349) 
ORTHO CHLOROTOLUENE

>  <SYNONYMS>  (7349) 


>  <SPECTRUM TYPE>  (7349) 
MS1

>  <INSTRUMENT TYPE>  (7349) 
EI-B

>  <INSTRUMENT>  (7349) 
HITACHI RMU-7M

>  <ION MODE>  (7349) 
P

>  <INCHIKEY>  (7349) 
IBSQPLPBRSHTTG-UHFFFAOYSA-N

>  <FORMULA>  (7349) 
C7H7Cl

>  <EXACT MASS>  (7349) 
126.023627904

>  <MW>  (7349) 
126

>  <ID>  (7349) 
JP000185

>  <CONTRIBUTOR>  (7349) 
University of Tokyo Team, {Faculty of Engineering, University of Tokyo

>  <COMMENT>  (7349) 
SMILES=Cc(c1)c(Cl)ccc1
InChI=InChI=1S/C7H7Cl/c1-6-4-2-3-5-7(6)8/h2-5H,1H3
computed SMILES=ClC=1C=CC=CC1C
license=CC BY-NC-SA
accession=JP000185
date=2016.01.19 (Created 2008.10.21, modified 2011.05.06)
author=TAJIMA S, GUNMA COLLEGE OF TECHNOLOGY
exact mass=126.02363
ionization energy=70 eV
ion type=[M]+*
computed spectral entropy=2.351884679653326
computed normalized entropy=0.7058044224091355
SPLASH=splash10-0006-9200000000-356925e1460b36cb882a
submitter=submitter = University of Tokyo Team (Faculty of Engineering, University of Tokyo)
MoNA Rating=3.75

>  <NUM PEAKS>  (7349) 
28

>  <MASS SPECTRAL PEAKS>  (7349) 
37 1.03
38 1.94
39 7.94
41 1.16
43 1.94
44 1.35
44.5 1.23
45 4.65
50 3.1
51 3.55
61 1.68
62 3.42
63 9.94
64 1.94
65 9.68
73 1.87
75 1.68
89 14.71
90 8.58
91 99.99
92 7.35
99 2
101 0.65
125 8.65
126 31.48
127 5.03
128 9.87
129 0.65

$$$$

     RDKit          2D

 15 15  0  0  0  0  0  0  0  0999 V2000
   10.0596    0.9157    0.0000 C   0  0  0  0  0  0  0  0  0  0  0  0
    8.7649    0.1582    0.0000 C   0  0  0  0  0  0  0  0  0  0  0  0
    7.4616    0.9007    0.0000 C   0  0  0  0  0  0  0  0  0  0  0  0
   -0.3004   -2.1193    0.0000 C   0  0  0  0  0  0  0  0  0  0  0  0
   -1.5833   -1.3916    0.0000 C   0  0  0  0  0  0  0  0  0  0  0  0
    6.1669    0.1432    0.0000 C   0  0  0  0  0  0  0  0  0  0  0  0
    0.9767   -1.3669    0.0000 C   0  0  0  0  0  0  0  0  0  0  0  0
   -1.6195    0.1080    0.0000 C   0  0  0  0  0  0  0  0  0  0  0  0
    4.8636    0.8857    0.0000 C   0  0  0  0  0  0  0  0  0  0  0  0
    0.9708    0.1132    0.0000 C   0  0  0  0  0  0  0  0  0  0  0  0
   -0.3121    0.8409    0.0000 C   0  0  0  0  0  0  0  0  0  0  0  0
    2.2655    0.8707    0.0000 C   0  0  0  0  0  0  0  0  0  0  0  0
   -0.3083    2.3409    0.0000 N   0  0  0  0  0  0  0  0  0  0  0  0
    2.2569    2.3706    0.0000 O   0  0  0  0  0  0  0  0  0  0  0  0
    3.5689    0.1282    0.0000 O   0  0  0  0  0  0  0  0  0  0  0  0
  2  1  1  0
  3  2  1  0
  5  4  2  0
  6  3  1  0
  7  4  1  0
  8  5  1  0
  9  6  1  0
 10  7  2  0
 11  8  2  0
 11 10  1  0
 12 10  1  0
 13 11  1  0
 14 12  2  0
 15  9  1  0
 15 12  1  0
M  END
>  <NAME>  (7350) 
ANTHRANILIC ACID AMYL ESTER

>  <SYNONYMS>  (7350) 
ORTHO AMINO AMYLBENZOATE

>  <SPECTRUM TYPE>  (7350) 
MS1

>  <INSTRUMENT TYPE>  (7350) 
EI-B

>  <INSTRUMENT>  (7350) 
HITACHI RMU-7M

>  <ION MODE>  (7350) 
P

>  <INCHIKEY>  (7350) 
JCKCYPSMCQDSHT-UHFFFAOYSA-N

>  <FORMULA>  (7350) 
C12H17NO2

>  <EXACT MASS>  (7350) 
207.125928784

>  <MW>  (7350) 
207

>  <ID>  (7350) 
JP000184

>  <CONTRIBUTOR>  (7350) 
University of Tokyo Team, {Faculty of Engineering, University of Tokyo

>  <COMMENT>  (7350) 
SMILES=CCCCCOC(=O)c(c1)c(N)ccc1
InChI=InChI=1S/C12H17NO2/c1-2-3-6-9-15-12(14)10-7-4-5-8-11(10)13/h4-5,7-8H,2-3,6,9,13H2,1H3
computed SMILES=O=C(OCCCCC)C=1C=CC=CC1N
accession=JP000184
date=2016.01.19 (Created 2008.10.21, modified 2011.05.06)
author=TAJIMA S, GUNMA COLLEGE OF TECHNOLOGY
license=CC BY-NC-SA
exact mass=207.12593
ionization energy=70 eV
ion type=[M]+*
computed spectral entropy=2.091046684877282
computed normalized entropy=0.6980085314488287
SPLASH=splash10-014i-3910000000-07b1f3c3665a4f2c6c9e
submitter=submitter = University of Tokyo Team (Faculty of Engineering, University of Tokyo)
MoNA Rating=3.75

>  <NUM PEAKS>  (7350) 
20

>  <MASS SPECTRAL PEAKS>  (7350) 
27 1.54
29 1.27
39 3.87
41 4.03
43 3.92
63 1.43
64 2.33
65 15.79
66 2.12
91 2.65
92 26.07
93 2.81
119 99.99
120 32.43
121 2.91
137 32.75
138 2.97
189 1.17
207 18.02
208 2.17

$$$$

     RDKit          2D

 14 14  0  0  0  0  0  0  0  0999 V2000
    7.4614    0.9233    0.0000 C   0  0  0  0  0  0  0  0  0  0  0  0
    6.1754   -1.3341    0.0000 C   0  0  0  0  0  0  0  0  0  0  0  0
   -0.3006   -2.0967    0.0000 C   0  0  0  0  0  0  0  0  0  0  0  0
   -1.5835   -1.3690    0.0000 C   0  0  0  0  0  0  0  0  0  0  0  0
    0.9765   -1.3443    0.0000 C   0  0  0  0  0  0  0  0  0  0  0  0
   -1.6197    0.1306    0.0000 C   0  0  0  0  0  0  0  0  0  0  0  0
    4.8634    0.9083    0.0000 C   0  0  0  0  0  0  0  0  0  0  0  0
    6.1667    0.1659    0.0000 C   0  0  0  0  0  0  0  0  0  0  0  0
    0.9706    0.1359    0.0000 C   0  0  0  0  0  0  0  0  0  0  0  0
   -0.3123    0.8636    0.0000 C   0  0  0  0  0  0  0  0  0  0  0  0
    2.2653    0.8933    0.0000 C   0  0  0  0  0  0  0  0  0  0  0  0
   -0.3085    2.3636    0.0000 N   0  0  0  0  0  0  0  0  0  0  0  0
    2.2567    2.3933    0.0000 O   0  0  0  0  0  0  0  0  0  0  0  0
    3.5687    0.1509    0.0000 O   0  0  0  0  0  0  0  0  0  0  0  0
  4  3  2  0
  5  3  1  0
  6  4  1  0
  8  1  1  0
  8  2  1  0
  8  7  1  0
  9  5  2  0
 10  6  2  0
 10  9  1  0
 11  9  1  0
 12 10  1  0
 13 11  2  0
 14  7  1  0
 14 11  1  0
M  END
>  <NAME>  (7351) 
ANTHRANILIC ACID ISOBUTYL ESTER

>  <SYNONYMS>  (7351) 
ORTHO AMINO ISOBUTYLBENZOATE

>  <SPECTRUM TYPE>  (7351) 
MS1

>  <INSTRUMENT TYPE>  (7351) 
EI-B

>  <INSTRUMENT>  (7351) 
HITACHI RMU-7M

>  <ION MODE>  (7351) 
P

>  <INCHIKEY>  (7351) 
ILCLJQFCMRCPNM-UHFFFAOYSA-N

>  <FORMULA>  (7351) 
C11H15NO2

>  <EXACT MASS>  (7351) 
193.11027872

>  <MW>  (7351) 
193

>  <ID>  (7351) 
JP000183

>  <CONTRIBUTOR>  (7351) 
University of Tokyo Team, {Faculty of Engineering, University of Tokyo

>  <COMMENT>  (7351) 
SMILES=CC(C)COC(=O)c(c1)c(N)ccc1
InChI=InChI=1S/C11H15NO2/c1-8(2)7-14-11(13)9-5-3-4-6-10(9)12/h3-6,8H,7,12H2,1-2H3
computed SMILES=O=C(OCC(C)C)C=1C=CC=CC1N
accession=JP000183
date=2016.01.19 (Created 2008.10.21, modified 2011.05.06)
author=TAJIMA S, GUNMA COLLEGE OF TECHNOLOGY
license=CC BY-NC-SA
exact mass=193.11028
ionization energy=70 eV
ion type=[M]+*
computed spectral entropy=2.3391740462151103
computed normalized entropy=0.7360397812893585
SPLASH=splash10-014i-4900000000-25d54d38a0f3ee44d350
submitter=submitter = University of Tokyo Team (Faculty of Engineering, University of Tokyo)
MoNA Rating=3.75

>  <NUM PEAKS>  (7351) 
24

>  <MASS SPECTRAL PEAKS>  (7351) 
29 3.78
39 4.91
41 7.63
43 3.25
55 2.72
57 9.21
63 1.66
64 2.42
65 16.24
66 1.89
69 3.7
71 2.42
91 3.7
92 27.57
93 4.76
95 1.06
97 1.51
119 99.99
120 33.08
121 2.87
137 39.65
138 2.95
193 20.62
194 2.27

$$$$

     RDKit          2D

 14 14  0  0  0  0  0  0  0  0999 V2000
   -7.7951    1.5010    0.0000 C   0  0  0  0  0  0  0  0  0  0  0  0
   -6.4964   -0.7492    0.0000 C   0  0  0  0  0  0  0  0  0  0  0  0
   -1.3000   -0.7500    0.0000 C   0  0  0  0  0  0  0  0  0  0  0  0
    0.0000    1.5000    0.0000 C   0  0  0  0  0  0  0  0  0  0  0  0
    0.0000   -1.5000    0.0000 C   0  0  0  0  0  0  0  0  0  0  0  0
    1.3000    0.7500    0.0000 C   0  0  0  0  0  0  0  0  0  0  0  0
   -5.1970    1.5006    0.0000 C   0  0  0  0  0  0  0  0  0  0  0  0
   -6.4962    0.7508    0.0000 C   0  0  0  0  0  0  0  0  0  0  0  0
   -1.3000    0.7500    0.0000 C   0  0  0  0  0  0  0  0  0  0  0  0
    1.3000   -0.7500    0.0000 C   0  0  0  0  0  0  0  0  0  0  0  0
   -2.5989    1.5002    0.0000 C   0  0  0  0  0  0  0  0  0  0  0  0
    2.5989   -1.5002    0.0000 N   0  0  0  0  0  0  0  0  0  0  0  0
   -2.5987    3.0002    0.0000 O   0  0  0  0  0  0  0  0  0  0  0  0
   -3.8981    0.7504    0.0000 O   0  0  0  0  0  0  0  0  0  0  0  0
  5  3  2  0
  6  4  1  0
  8  1  1  0
  8  2  1  0
  8  7  1  0
  9  3  1  0
  9  4  2  0
 10  5  1  0
 10  6  2  0
 11  9  1  0
 12 10  1  0
 13 11  2  0
 14  7  1  0
 14 11  1  0
M  END
>  <NAME>  (7352) 
PARA AMINO ISOBUTYLBENZOATE

>  <SYNONYMS>  (7352) 


>  <SPECTRUM TYPE>  (7352) 
MS1

>  <INSTRUMENT TYPE>  (7352) 
EI-B

>  <INSTRUMENT>  (7352) 
HITACHI RMU-7M

>  <ION MODE>  (7352) 
P

>  <INCHIKEY>  (7352) 
PUYOAVGNCWPANW-UHFFFAOYSA-N

>  <FORMULA>  (7352) 
C11H15NO2

>  <EXACT MASS>  (7352) 
193.11027872

>  <MW>  (7352) 
193

>  <ID>  (7352) 
JP000182

>  <CONTRIBUTOR>  (7352) 
University of Tokyo Team, {Faculty of Engineering, University of Tokyo

>  <COMMENT>  (7352) 
SMILES=CC(C)COC(=O)c(c1)ccc(N)c1
InChI=InChI=1S/C11H15NO2/c1-8(2)7-14-11(13)9-3-5-10(12)6-4-9/h3-6,8H,7,12H2,1-2H3
computed SMILES=O=C(OCC(C)C)C1=CC=C(N)C=C1
accession=JP000182
date=2016.01.19 (Created 2008.10.21, modified 2011.05.06)
author=TAJIMA S, GUNMA COLLEGE OF TECHNOLOGY
license=CC BY-NC-SA
exact mass=193.11028
ionization energy=70 eV
ion type=[M]+*
computed spectral entropy=2.73721240812756
computed normalized entropy=0.8047790530727423
SPLASH=splash10-00rl-7900000000-e064b6bd286dbcd0b665
submitter=submitter = University of Tokyo Team (Faculty of Engineering, University of Tokyo)
MoNA Rating=3.75

>  <NUM PEAKS>  (7352) 
30

>  <MASS SPECTRAL PEAKS>  (7352) 
15 1.54
27 6.17
29 4.74
38 1.66
39 13.17
40 1.66
41 9.85
43 6.88
45 37.84
51 2.73
63 5.46
64 2.97
65 27.99
66 2.02
77 2.73
79 1.19
89 4.51
90 19.81
91 26.69
92 23.25
93 2.25
118 25.15
119 7.71
120 99.99
121 10.32
136 18.15
137 70.23
138 7
193 10.44
194 1.19

$$$$

     RDKit          2D

 14 14  0  0  0  0  0  0  0  0999 V2000
   -1.6211    0.2101    0.0000 C   0  0  0  0  0  0  0  0  0  0  0  0
   -0.3178   -0.5324    0.0000 C   0  0  0  0  0  0  0  0  0  0  0  0
    0.9769    0.2251    0.0000 C   0  0  0  0  0  0  0  0  0  0  0  0
    7.4442    2.4876    0.0000 C   0  0  0  0  0  0  0  0  0  0  0  0
    8.7271    1.7599    0.0000 C   0  0  0  0  0  0  0  0  0  0  0  0
    6.1671    1.7352    0.0000 C   0  0  0  0  0  0  0  0  0  0  0  0
    8.7633    0.2603    0.0000 C   0  0  0  0  0  0  0  0  0  0  0  0
    2.2802   -0.5174    0.0000 C   0  0  0  0  0  0  0  0  0  0  0  0
    6.1730    0.2551    0.0000 C   0  0  0  0  0  0  0  0  0  0  0  0
    7.4559   -0.4726    0.0000 C   0  0  0  0  0  0  0  0  0  0  0  0
    4.8783   -0.5024    0.0000 C   0  0  0  0  0  0  0  0  0  0  0  0
    7.4521   -1.9726    0.0000 N   0  0  0  0  0  0  0  0  0  0  0  0
    4.8869   -2.0024    0.0000 O   0  0  0  0  0  0  0  0  0  0  0  0
    3.5749    0.2401    0.0000 O   0  0  0  0  0  0  0  0  0  0  0  0
  2  1  1  0
  3  2  1  0
  5  4  2  0
  6  4  1  0
  7  5  1  0
  8  3  1  0
  9  6  2  0
 10  7  2  0
 10  9  1  0
 11  9  1  0
 12 10  1  0
 13 11  2  0
 14  8  1  0
 14 11  1  0
M  END
>  <NAME>  (7353) 
ANTHRANILIC ACID BUTYL ESTER

>  <SYNONYMS>  (7353) 
ORTHO AMINO BUTYLBENZOATE

>  <SPECTRUM TYPE>  (7353) 
MS1

>  <INSTRUMENT TYPE>  (7353) 
EI-B

>  <INSTRUMENT>  (7353) 
HITACHI RMU-7M

>  <ION MODE>  (7353) 
P

>  <INCHIKEY>  (7353) 
HUIYGGQINIVDNW-UHFFFAOYSA-N

>  <FORMULA>  (7353) 
C11H15NO2

>  <EXACT MASS>  (7353) 
193.11027872

>  <MW>  (7353) 
193

>  <ID>  (7353) 
JP000181

>  <CONTRIBUTOR>  (7353) 
University of Tokyo Team, {Faculty of Engineering, University of Tokyo

>  <COMMENT>  (7353) 
SMILES=CCCCOC(=O)c(c1)c(N)ccc1
InChI=InChI=1S/C11H15NO2/c1-2-3-8-14-11(13)9-6-4-5-7-10(9)12/h4-7H,2-3,8,12H2,1H3
computed SMILES=O=C(OCCCC)C=1C=CC=CC1N
accession=JP000181
date=2016.01.19 (Created 2008.10.21, modified 2011.05.06)
author=TAJIMA S, GUNMA COLLEGE OF TECHNOLOGY
license=CC BY-NC-SA
exact mass=193.11028
ionization energy=70 eV
ion type=[M]+*
computed spectral entropy=2.3682151429884253
computed normalized entropy=0.7661541951374486
SPLASH=splash10-014l-6900000000-ceecfd3b19c6914b9e26
submitter=submitter = University of Tokyo Team (Faculty of Engineering, University of Tokyo)
MoNA Rating=3.75

>  <NUM PEAKS>  (7353) 
22

>  <MASS SPECTRAL PEAKS>  (7353) 
27 5.86
39 12.36
41 11.13
50 1.55
51 2.19
52 5.79
63 3.8
64 5.21
65 26.51
66 3.35
79 2.57
90 1.09
91 4.7
92 35.33
93 5.92
119 99.99
120 29.73
121 2.77
137 23.94
138 2.19
193 18.79
194 1.99

$$$$

     RDKit          2D

 13 13  0  0  0  0  0  0  0  0999 V2000
   -6.4962    0.7508    0.0000 C   0  0  0  0  0  0  0  0  0  0  0  0
   -5.1968    3.0006    0.0000 C   0  0  0  0  0  0  0  0  0  0  0  0
   -1.3000   -0.7500    0.0000 C   0  0  0  0  0  0  0  0  0  0  0  0
    0.0000    1.5000    0.0000 C   0  0  0  0  0  0  0  0  0  0  0  0
    0.0000   -1.5000    0.0000 C   0  0  0  0  0  0  0  0  0  0  0  0
    1.3000    0.7500    0.0000 C   0  0  0  0  0  0  0  0  0  0  0  0
   -5.1970    1.5006    0.0000 C   0  0  0  0  0  0  0  0  0  0  0  0
   -1.3000    0.7500    0.0000 C   0  0  0  0  0  0  0  0  0  0  0  0
    1.3000   -0.7500    0.0000 C   0  0  0  0  0  0  0  0  0  0  0  0
   -2.5989    1.5002    0.0000 C   0  0  0  0  0  0  0  0  0  0  0  0
    2.5989   -1.5002    0.0000 N   0  0  0  0  0  0  0  0  0  0  0  0
   -2.5987    3.0002    0.0000 O   0  0  0  0  0  0  0  0  0  0  0  0
   -3.8981    0.7504    0.0000 O   0  0  0  0  0  0  0  0  0  0  0  0
  5  3  2  0
  6  4  1  0
  7  1  1  0
  7  2  1  0
  8  3  1  0
  8  4  2  0
  9  5  1  0
  9  6  2  0
 10  8  1  0
 11  9  1  0
 12 10  2  0
 13  7  1  0
 13 10  1  0
M  END
>  <NAME>  (7354) 
PARA AMINO ISOPROPYLBENZOATE

>  <SYNONYMS>  (7354) 


>  <SPECTRUM TYPE>  (7354) 
MS1

>  <INSTRUMENT TYPE>  (7354) 
EI-B

>  <INSTRUMENT>  (7354) 
HITACHI RMU-7M

>  <ION MODE>  (7354) 
P

>  <INCHIKEY>  (7354) 
JWCPZKNBPMSYND-UHFFFAOYSA-N

>  <FORMULA>  (7354) 
C10H13NO2

>  <EXACT MASS>  (7354) 
179.094628656

>  <MW>  (7354) 
179

>  <ID>  (7354) 
JP000180

>  <CONTRIBUTOR>  (7354) 
University of Tokyo Team, {Faculty of Engineering, University of Tokyo

>  <COMMENT>  (7354) 
SMILES=CC(C)OC(=O)c(c1)ccc(N)c1
InChI=InChI=1S/C10H13NO2/c1-7(2)13-10(12)8-3-5-9(11)6-4-8/h3-7H,11H2,1-2H3
computed SMILES=O=C(OC(C)C)C1=CC=C(N)C=C1
accession=JP000180
date=2016.01.19 (Created 2008.10.21, modified 2011.05.06)
author=TAJIMA S, GUNMA COLLEGE OF TECHNOLOGY
license=CC BY-NC-SA
exact mass=179.09463
ionization energy=70 eV
ion type=[M]+*
computed spectral entropy=2.375251478823228
computed normalized entropy=0.7379133610786258
SPLASH=splash10-00dr-5900000000-107567990c70812b83f2
submitter=submitter = University of Tokyo Team (Faculty of Engineering, University of Tokyo)
MoNA Rating=3.75

>  <NUM PEAKS>  (7354) 
25

>  <MASS SPECTRAL PEAKS>  (7354) 
27 5.58
29 1.72
38 1.23
39 11.29
40 1.78
41 8.59
42 1.35
43 5.71
45 12.27
63 3.07
64 3.13
65 24.54
66 3.01
90 1.23
91 3.87
92 21.6
93 3.68
119 1.29
120 99.99
121 13.5
136 1.23
137 55.09
138 4.48
179 23.19
180 2.39

$$$$

     RDKit          2D

  8  8  0  0  0  0  0  0  0  0999 V2000
   -2.5989   -1.5002    0.0000 C   0  0  0  0  0  0  0  0  0  0  0  0
   -1.3000    0.7500    0.0000 C   0  0  0  0  0  0  0  0  0  0  0  0
   -0.0000   -1.5000    0.0000 C   0  0  0  0  0  0  0  0  0  0  0  0
    0.0000    1.5000    0.0000 C   0  0  0  0  0  0  0  0  0  0  0  0
    1.3000   -0.7500    0.0000 C   0  0  0  0  0  0  0  0  0  0  0  0
   -1.3000   -0.7500    0.0000 C   0  0  0  0  0  0  0  0  0  0  0  0
    1.3000    0.7500    0.0000 C   0  0  0  0  0  0  0  0  0  0  0  0
    2.5989    1.5002    0.0000 Br  0  0  0  0  0  0  0  0  0  0  0  0
  4  2  2  0
  5  3  1  0
  6  1  1  0
  6  2  1  0
  6  3  2  0
  7  4  1  0
  7  5  2  0
  8  7  1  0
M  END
>  <NAME>  (7355) 
PARA BROMOTOLUENE

>  <SYNONYMS>  (7355) 


>  <SPECTRUM TYPE>  (7355) 
MS1

>  <INSTRUMENT TYPE>  (7355) 
EI-B

>  <INSTRUMENT>  (7355) 
HITACHI RMU-7M

>  <ION MODE>  (7355) 
P

>  <INCHIKEY>  (7355) 
ZBTMRBYMKUEVEU-UHFFFAOYSA-N

>  <FORMULA>  (7355) 
C7H7Br

>  <EXACT MASS>  (7355) 
169.973112324

>  <MW>  (7355) 
170

>  <ID>  (7355) 
JP000179

>  <CONTRIBUTOR>  (7355) 
University of Tokyo Team, {Faculty of Engineering, University of Tokyo

>  <COMMENT>  (7355) 
SMILES=Cc(c1)ccc(Br)c1
InChI=InChI=1S/C7H7Br/c1-6-2-4-7(8)5-3-6/h2-5H,1H3
computed SMILES=BrC1=CC=C(C=C1)C
accession=JP000179
date=2016.01.19 (Created 2008.10.21, modified 2011.05.06)
author=TAJIMA S, GUNMA COLLEGE OF TECHNOLOGY
license=CC BY-NC-SA
exact mass=169.97311
ionization energy=70 eV
ion type=[M]+*
computed spectral entropy=2.219041295991791
computed normalized entropy=0.740734182283662
SPLASH=splash10-0006-9200000000-32efe1e76fb8e365db77
submitter=submitter = University of Tokyo Team (Faculty of Engineering, University of Tokyo)
MoNA Rating=3.75

>  <NUM PEAKS>  (7355) 
20

>  <MASS SPECTRAL PEAKS>  (7355) 
27 1.31
37 1.09
38 3.05
39 11.99
50 6.47
51 4.51
61 1.53
62 4.51
63 11.63
64 2.18
65 19.62
89 10.17
90 7.56
91 99.99
92 7.12
169 3.34
170 23.55
171 4.94
172 22.67
173 1.31

$$$$

     RDKit          2D

  8  8  0  0  0  0  0  0  0  0999 V2000
    2.5989    1.5002    0.0000 C   0  0  0  0  0  0  0  0  0  0  0  0
   -1.3000    0.7500    0.0000 C   0  0  0  0  0  0  0  0  0  0  0  0
    0.0000    1.5000    0.0000 C   0  0  0  0  0  0  0  0  0  0  0  0
   -1.3000   -0.7500    0.0000 C   0  0  0  0  0  0  0  0  0  0  0  0
    1.3000   -0.7500    0.0000 C   0  0  0  0  0  0  0  0  0  0  0  0
    1.3000    0.7500    0.0000 C   0  0  0  0  0  0  0  0  0  0  0  0
   -0.0000   -1.5000    0.0000 C   0  0  0  0  0  0  0  0  0  0  0  0
   -0.0000   -3.0000    0.0000 Br  0  0  0  0  0  0  0  0  0  0  0  0
  3  2  2  0
  4  2  1  0
  6  1  1  0
  6  3  1  0
  6  5  2  0
  7  4  2  0
  7  5  1  0
  8  7  1  0
M  END
>  <NAME>  (7356) 
META BROMOTOLUENE

>  <SYNONYMS>  (7356) 


>  <SPECTRUM TYPE>  (7356) 
MS1

>  <INSTRUMENT TYPE>  (7356) 
EI-B

>  <INSTRUMENT>  (7356) 
HITACHI RMU-7M

>  <ION MODE>  (7356) 
P

>  <INCHIKEY>  (7356) 
WJIFKOVZNJTSGO-UHFFFAOYSA-N

>  <FORMULA>  (7356) 
C7H7Br

>  <EXACT MASS>  (7356) 
169.973112324

>  <MW>  (7356) 
170

>  <ID>  (7356) 
JP000178

>  <CONTRIBUTOR>  (7356) 
University of Tokyo Team, {Faculty of Engineering, University of Tokyo

>  <COMMENT>  (7356) 
SMILES=Cc(c1)cc(Br)cc1
InChI=InChI=1S/C7H7Br/c1-6-3-2-4-7(8)5-6/h2-5H,1H3
computed SMILES=BrC1=CC=CC(=C1)C
accession=JP000178
date=2016.01.19 (Created 2008.10.21, modified 2011.05.06)
author=TAJIMA S, GUNMA COLLEGE OF TECHNOLOGY
license=CC BY-NC-SA
exact mass=169.97311
ionization energy=70 eV
ion type=[M]+*
computed spectral entropy=2.424256798801603
computed normalized entropy=0.753137719719544
SPLASH=splash10-00dl-9400000000-b876c593bd891755fd6c
submitter=submitter = University of Tokyo Team (Faculty of Engineering, University of Tokyo)
MoNA Rating=3.75

>  <NUM PEAKS>  (7356) 
25

>  <MASS SPECTRAL PEAKS>  (7356) 
27 1.54
37 1.34
38 3.34
39 13.16
41 2.54
43 2.47
44 2
45 4.61
50 6.01
51 5.08
61 2
62 5.34
63 13.23
64 3.34
65 31.6
66 1.74
89 12.69
90 9.75
91 99.99
92 7.68
169 4.48
170 54.31
171 8.35
172 52.71
173 3.87

$$$$

     RDKit          2D

  8  8  0  0  0  0  0  0  0  0999 V2000
   -0.0000   -3.0000    0.0000 C   0  0  0  0  0  0  0  0  0  0  0  0
   -1.3000    0.7500    0.0000 C   0  0  0  0  0  0  0  0  0  0  0  0
    0.0000    1.5000    0.0000 C   0  0  0  0  0  0  0  0  0  0  0  0
   -1.3000   -0.7500    0.0000 C   0  0  0  0  0  0  0  0  0  0  0  0
    1.3000    0.7500    0.0000 C   0  0  0  0  0  0  0  0  0  0  0  0
    0.0000   -1.5000    0.0000 C   0  0  0  0  0  0  0  0  0  0  0  0
    1.3000   -0.7500    0.0000 C   0  0  0  0  0  0  0  0  0  0  0  0
    2.5989   -1.5002    0.0000 Br  0  0  0  0  0  0  0  0  0  0  0  0
  3  2  2  0
  4  2  1  0
  5  3  1  0
  6  1  1  0
  6  4  2  0
  7  5  2  0
  7  6  1  0
  8  7  1  0
M  END
>  <NAME>  (7357) 
ORTHO BROMOTOLUENE

>  <SYNONYMS>  (7357) 


>  <SPECTRUM TYPE>  (7357) 
MS1

>  <INSTRUMENT TYPE>  (7357) 
EI-B

>  <INSTRUMENT>  (7357) 
HITACHI RMU-7M

>  <ION MODE>  (7357) 
P

>  <INCHIKEY>  (7357) 
QSSXJPIWXQTSIX-UHFFFAOYSA-N

>  <FORMULA>  (7357) 
C7H7Br

>  <EXACT MASS>  (7357) 
169.973112324

>  <MW>  (7357) 
170

>  <ID>  (7357) 
JP000177

>  <CONTRIBUTOR>  (7357) 
University of Tokyo Team, {Faculty of Engineering, University of Tokyo

>  <COMMENT>  (7357) 
SMILES=Cc(c1)c(Br)ccc1
InChI=InChI=1S/C7H7Br/c1-6-4-2-3-5-7(6)8/h2-5H,1H3
computed SMILES=BrC=1C=CC=CC1C
accession=JP000177
date=2016.01.19 (Created 2008.10.21, modified 2011.05.06)
author=TAJIMA S, GUNMA COLLEGE OF TECHNOLOGY
license=CC BY-NC-SA
exact mass=169.97311
ionization energy=70 eV
ion type=[M]+*
computed spectral entropy=2.263194735527908
computed normalized entropy=0.7433660883840416
SPLASH=splash10-006x-9400000000-7794c6b57fdd320dc8b6
submitter=submitter = University of Tokyo Team (Faculty of Engineering, University of Tokyo)
MoNA Rating=3.75

>  <NUM PEAKS>  (7357) 
21

>  <MASS SPECTRAL PEAKS>  (7357) 
38 2.76
39 11.12
41 1.31
43 1.09
45 2.33
50 5.45
51 4.58
61 1.82
62 4.72
63 11.7
64 2.54
65 23.84
89 11.48
90 8.36
91 99.99
92 7.12
169 3.49
170 46.88
171 6.9
172 45.28
173 2.91

$$$$

     RDKit          2D

  9  9  0  0  0  0  0  0  0  0999 V2000
    3.8981    1.5002    0.0000 C   0  0  0  0  0  0  0  0  0  0  0  0
    2.5992   -0.7500    0.0000 C   0  0  0  0  0  0  0  0  0  0  0  0
    1.2992    1.5000    0.0000 C   0  0  0  0  0  0  0  0  0  0  0  0
    1.2992   -1.5000    0.0000 C   0  0  0  0  0  0  0  0  0  0  0  0
   -0.0008    0.7500    0.0000 C   0  0  0  0  0  0  0  0  0  0  0  0
   -1.2998   -1.5002    0.0000 C   0  0  0  0  0  0  0  0  0  0  0  0
    2.5992    0.7500    0.0000 C   0  0  0  0  0  0  0  0  0  0  0  0
   -0.0008   -0.7500    0.0000 C   0  0  0  0  0  0  0  0  0  0  0  0
   -2.5989   -0.7504    0.0000 O   0  0  0  0  0  0  0  0  0  0  0  0
  4  2  2  0
  5  3  1  0
  7  1  1  0
  7  2  1  0
  7  3  2  0
  8  4  1  0
  8  5  2  0
  8  6  1  0
  9  6  2  0
M  END
>  <NAME>  (7358) 
PARA TOLUALDEHYDE

>  <SYNONYMS>  (7358) 


>  <SPECTRUM TYPE>  (7358) 
MS1

>  <INSTRUMENT TYPE>  (7358) 
EI-B

>  <INSTRUMENT>  (7358) 
HITACHI RMU-7M

>  <ION MODE>  (7358) 
P

>  <INCHIKEY>  (7358) 
FXLOVSHXALFLKQ-UHFFFAOYSA-N

>  <FORMULA>  (7358) 
C8H8O

>  <EXACT MASS>  (7358) 
120.057514876

>  <MW>  (7358) 
120

>  <ID>  (7358) 
JP000176

>  <CONTRIBUTOR>  (7358) 
University of Tokyo Team, {Faculty of Engineering, University of Tokyo

>  <COMMENT>  (7358) 
SMILES=O=Cc(c1)ccc(C)c1
InChI=InChI=1S/C8H8O/c1-7-2-4-8(6-9)5-3-7/h2-6H,1H3
computed SMILES=O=CC1=CC=C(C=C1)C
accession=JP000176
date=2016.01.19 (Created 2008.10.21, modified 2011.05.06)
author=TAJIMA S, GUNMA COLLEGE OF TECHNOLOGY
license=CC BY-NC-SA
exact mass=120.05751
ionization energy=70 eV
ion type=[M]+*
computed spectral entropy=2.162195544807319
computed normalized entropy=0.6895868389177013
SPLASH=splash10-01bc-9600000000-ce2e5bcb9aa7941f7f8b
submitter=submitter = University of Tokyo Team (Faculty of Engineering, University of Tokyo)
MoNA Rating=3.75

>  <NUM PEAKS>  (7358) 
23

>  <MASS SPECTRAL PEAKS>  (7358) 
27 2.12
29 1.06
37 1.06
38 2.47
39 16.57
40 1.41
41 4.23
43 1.76
50 4.94
51 7.62
61 1.41
62 3.88
63 10.23
64 1.97
65 27.15
66 1.76
89 6.7
90 3.17
91 99.99
92 8.82
119 84.63
120 70.52
121 6

$$$$

     RDKit          2D

  9  9  0  0  0  0  0  0  0  0999 V2000
    3.2511   -1.1212    0.0000 C   0  0  0  0  0  0  0  0  0  0  0  0
    0.6473    1.8688    0.0000 C   0  0  0  0  0  0  0  0  0  0  0  0
    1.9463    1.1188    0.0000 C   0  0  0  0  0  0  0  0  0  0  0  0
   -0.6473    1.1266    0.0000 C   0  0  0  0  0  0  0  0  0  0  0  0
    0.6513   -1.1242    0.0000 C   0  0  0  0  0  0  0  0  0  0  0  0
   -1.9469   -1.1240    0.0000 C   0  0  0  0  0  0  0  0  0  0  0  0
    1.9508   -0.3734    0.0000 C   0  0  0  0  0  0  0  0  0  0  0  0
   -0.6477   -0.3742    0.0000 C   0  0  0  0  0  0  0  0  0  0  0  0
   -3.2458   -0.3738    0.0000 O   0  0  0  0  0  0  0  0  0  0  0  0
  3  2  2  0
  4  2  1  0
  7  1  1  0
  7  3  1  0
  7  5  2  0
  8  4  2  0
  8  5  1  0
  8  6  1  0
  9  6  2  0
M  END
>  <NAME>  (7359) 
META TOLUALDEHYDE

>  <SYNONYMS>  (7359) 


>  <SPECTRUM TYPE>  (7359) 
MS1

>  <INSTRUMENT TYPE>  (7359) 
EI-B

>  <INSTRUMENT>  (7359) 
HITACHI RMU-7M

>  <ION MODE>  (7359) 
P

>  <INCHIKEY>  (7359) 
OVWYEQOVUDKZNU-UHFFFAOYSA-N

>  <FORMULA>  (7359) 
C8H8O

>  <EXACT MASS>  (7359) 
120.057514876

>  <MW>  (7359) 
120

>  <ID>  (7359) 
JP000175

>  <CONTRIBUTOR>  (7359) 
University of Tokyo Team, {Faculty of Engineering, University of Tokyo

>  <COMMENT>  (7359) 
SMILES=O=Cc(c1)cc(C)cc1
InChI=InChI=1S/C8H8O/c1-7-3-2-4-8(5-7)6-9/h2-6H,1H3
computed SMILES=O=CC1=CC=CC(=C1)C
accession=JP000175
date=2016.01.19 (Created 2008.10.21, modified 2011.05.06)
author=TAJIMA S, GUNMA COLLEGE OF TECHNOLOGY
license=CC BY-NC-SA
exact mass=120.05751
ionization energy=70 eV
ion type=[M]+*
computed spectral entropy=2.2827303410825364
computed normalized entropy=0.7091700535468791
SPLASH=splash10-00r6-9400000000-378d825b08edd9bccec3
submitter=submitter = University of Tokyo Team (Faculty of Engineering, University of Tokyo)
MoNA Rating=3.75

>  <NUM PEAKS>  (7359) 
25

>  <MASS SPECTRAL PEAKS>  (7359) 
27 1.99
29 1.39
37 1.19
38 2.89
39 18.06
40 1.49
41 3.78
43 1.09
45 1
50 5.42
51 8.96
61 1.64
62 4.43
63 11.04
64 2.49
65 27.86
66 1.59
77 1.39
89 5.77
90 2.99
91 99.99
92 8.96
119 52.94
120 50.45
121 4.48

$$$$

     RDKit          2D

  9  9  0  0  0  0  0  0  0  0999 V2000
   -0.3325    2.4400    0.0000 C   0  0  0  0  0  0  0  0  0  0  0  0
   -1.6200   -1.3100    0.0000 C   0  0  0  0  0  0  0  0  0  0  0  0
   -0.3300   -2.0600    0.0000 C   0  0  0  0  0  0  0  0  0  0  0  0
   -1.6200    0.1900    0.0000 C   0  0  0  0  0  0  0  0  0  0  0  0
    0.9700   -1.3100    0.0000 C   0  0  0  0  0  0  0  0  0  0  0  0
    2.2689    0.9402    0.0000 C   0  0  0  0  0  0  0  0  0  0  0  0
   -0.3300    0.9400    0.0000 C   0  0  0  0  0  0  0  0  0  0  0  0
    0.9700    0.1900    0.0000 C   0  0  0  0  0  0  0  0  0  0  0  0
    3.5681    0.1904    0.0000 O   0  0  0  0  0  0  0  0  0  0  0  0
  3  2  2  0
  4  2  1  0
  5  3  1  0
  7  1  1  0
  7  4  2  0
  8  5  2  0
  8  6  1  0
  8  7  1  0
  9  6  2  0
M  END
>  <NAME>  (7360) 
ORTHO TOLUALDEHYDE

>  <SYNONYMS>  (7360) 


>  <SPECTRUM TYPE>  (7360) 
MS1

>  <INSTRUMENT TYPE>  (7360) 
EI-B

>  <INSTRUMENT>  (7360) 
HITACHI RMU-7M

>  <ION MODE>  (7360) 
P

>  <INCHIKEY>  (7360) 
BTFQKIATRPGRBS-UHFFFAOYSA-N

>  <FORMULA>  (7360) 
C8H8O

>  <EXACT MASS>  (7360) 
120.057514876

>  <MW>  (7360) 
120

>  <ID>  (7360) 
JP000174

>  <CONTRIBUTOR>  (7360) 
University of Tokyo Team, {Faculty of Engineering, University of Tokyo

>  <COMMENT>  (7360) 
SMILES=O=Cc(c1)c(C)ccc1
InChI=InChI=1S/C8H8O/c1-7-4-2-3-5-8(7)6-9/h2-6H,1H3
computed SMILES=O=CC=1C=CC=CC1C
accession=JP000174
date=2016.01.19 (Created 2008.10.21, modified 2011.05.06)
author=TAJIMA S, GUNMA COLLEGE OF TECHNOLOGY
license=CC BY-NC-SA
exact mass=120.05751
ionization energy=70 eV
ion type=[M]+*
computed spectral entropy=2.2754570262498692
computed normalized entropy=0.7069104712490858
SPLASH=splash10-00r6-9500000000-7839fe7727fd4eead2bf
submitter=submitter = University of Tokyo Team (Faculty of Engineering, University of Tokyo)
MoNA Rating=3.75

>  <NUM PEAKS>  (7360) 
25

>  <MASS SPECTRAL PEAKS>  (7360) 
27 2.53
29 1.27
37 1.27
38 2.85
39 17.09
40 1.39
41 4.43
43 2.53
44 2.85
50 4.81
51 8.1
61 1.58
62 3.8
63 10.38
64 2.22
65 26.27
66 1.9
77 1.9
89 6.52
90 3.61
91 99.99
92 9.75
119 65.7
120 70.25
121 6.14

$$$$

     RDKit          2D

 51 56  0  0  1  0  0  0  0  0999 V2000
    8.6274    0.2093    0.0000 C   0  0  0  0  0  0  0  0  0  0  0  0
    7.3280   -2.0405    0.0000 C   0  0  0  0  0  0  0  0  0  0  0  0
    2.1283    6.9614    0.0000 C   0  0  0  0  0  0  0  0  0  0  0  0
    6.0293    0.2097    0.0000 C   0  0  0  0  0  0  0  0  0  0  0  0
   -5.6684    6.9599    0.0000 C   0  0  0  0  0  0  0  0  0  0  0  0
   -6.4978    6.4819    0.0000 C   0  0  0  0  0  0  0  0  0  0  0  0
    7.3301    2.4603    0.0000 C   0  0  0  0  0  0  0  0  0  0  0  0
    4.7301   -0.5401    0.0000 C   0  0  0  0  0  0  0  0  0  0  0  0
   -4.3680    6.2105    0.0000 C   0  0  0  0  0  0  0  0  0  0  0  0
   -5.1983    5.7310    0.0000 C   0  0  0  0  0  0  0  0  0  0  0  0
    6.0301    1.7103    0.0000 C   0  0  0  0  0  0  0  0  0  0  0  0
   -0.4702    6.9618    0.0000 C   0  0  0  0  0  0  0  0  0  0  0  0
    0.8301    4.7103    0.0000 C   0  0  0  0  0  0  0  0  0  0  0  0
   -4.3695    9.2105    0.0000 C   0  0  0  0  0  0  0  0  0  0  0  0
   -7.7963    4.2310    0.0000 C   0  0  0  0  0  0  0  0  0  0  0  0
    6.0301    4.7103    0.0000 C   0  0  0  0  0  0  0  0  0  0  0  0
   -1.7688    0.2101    0.0000 C   0  0  0  0  0  0  0  0  0  0  0  0
    7.3282   -0.5405    0.0000 C   0  0  0  0  0  0  0  0  0  0  0  0
    0.8294    6.2112    0.0000 C   0  0  0  0  0  0  0  0  0  0  0  0
   -5.6691    8.4599    0.0000 C   0  0  0  0  0  0  0  0  0  0  0  0
   -7.7968    5.7319    0.0000 C   0  0  0  0  0  0  0  0  0  0  0  0
    7.3301    3.9603    0.0000 C   0  0  0  0  0  0  0  0  0  0  0  0
   -3.0684    6.9612    0.0000 C   0  0  0  0  0  0  0  0  0  0  0  0
   -5.1978    4.2302    0.0000 C   0  0  0  0  0  0  0  0  0  0  0  0
    4.7301    2.4603    0.0000 C   0  0  0  0  0  0  0  0  0  0  0  0
    3.4312    0.2101    0.0000 C   0  0  0  0  0  0  0  0  0  0  0  0
   -1.7691    6.2116    0.0000 C   0  0  0  0  0  0  0  0  0  0  0  0
   -0.4688    3.9601    0.0000 C   0  0  0  0  0  0  0  0  0  0  0  0
   -3.0691    8.4612    0.0000 C   0  0  0  0  0  0  0  0  0  0  0  0
   -6.4968    3.4802    0.0000 C   0  0  0  0  0  0  0  0  0  0  0  0
    4.7301    3.9603    0.0000 C   0  0  0  0  0  0  0  0  0  0  0  0
   -1.7688    1.7101    0.0000 C   0  0  0  0  0  0  0  0  0  0  0  0
   -0.4688   -0.5399    0.0000 C   0  0  0  0  0  0  0  0  0  0  0  0
   -1.7684    4.7108    0.0000 C   0  0  0  0  0  0  0  0  0  0  0  0
   -0.4688    2.4601    0.0000 C   0  0  0  0  0  0  0  0  0  0  0  0
    0.8312    0.2101    0.0000 C   0  0  0  0  0  0  0  0  0  0  0  0
   -3.8986    3.4804    0.0000 C   0  0  0  0  0  0  0  0  0  0  0  0
    2.1312   -0.5399    0.0000 C   0  0  0  0  0  0  0  0  0  0  0  0
    3.4312    1.7101    0.0000 C   0  0  0  0  0  0  0  0  0  0  0  0
    0.8312    1.7101    0.0000 C   0  0  0  0  0  0  0  0  0  0  0  0
   -6.9684    9.2095    0.0000 O   0  0  0  0  0  0  0  0  0  0  0  0
   -9.0960    6.4817    0.0000 O   0  0  0  0  0  0  0  0  0  0  0  0
    8.6291    4.7105    0.0000 O   0  0  0  0  0  0  0  0  0  0  0  0
   -1.7706    9.2120    0.0000 O   0  0  0  0  0  0  0  0  0  0  0  0
   -6.4971    1.9802    0.0000 O   0  0  0  0  0  0  0  0  0  0  0  0
    3.4312    4.7105    0.0000 O   0  0  0  0  0  0  0  0  0  0  0  0
   -3.0677    2.4603    0.0000 O   0  0  0  0  0  0  0  0  0  0  0  0
   -0.4688   -2.0399    0.0000 O   0  0  0  0  0  0  0  0  0  0  0  0
   -3.8983    1.5004    0.0000 O   0  0  0  0  0  0  0  0  0  0  0  0
    2.1312   -2.0399    0.0000 O   0  0  0  0  0  0  0  0  0  0  0  0
    2.1312    2.4601    0.0000 O   0  0  0  0  0  0  0  0  0  0  0  0
  8  4  1  0
  9  5  2  0
 10  6  2  0
 11  7  2  0
 18  1  1  0
 18  2  1  0
 18  4  2  0
 19  3  1  0
 19 12  1  0
 19 13  2  0
 20  5  1  0
 20 14  2  0
 21  6  1  0
 21 15  2  0
 22  7  1  0
 22 16  2  0
 23  9  1  0
 24 10  1  0
 25 11  1  0
 26  8  1  0
 27 12  1  0
 27 23  1  1
 28 13  1  0
 29 14  1  0
 29 23  2  0
 30 15  1  0
 30 24  2  0
 31 16  1  0
 31 25  2  0
 32 17  2  0
 33 17  1  0
 34 27  1  0
 34 28  1  0
 28 35  1  1
 35 32  1  0
 36 33  2  0
 37 24  1  0
 34 37  1  6
 38 26  1  0
 38 36  1  0
 39 25  1  0
 39 26  2  0
 40 35  2  0
 40 36  1  0
 41 20  1  0
 42 21  1  0
 43 22  1  0
 44 29  1  0
 45 30  1  0
 46 31  1  0
 47 32  1  0
 48 33  1  0
 49 37  2  0
 50 38  2  0
 51 39  1  0
 51 40  1  0
M  END
>  <NAME>  (7361) 
KUWANON-G

>  <SYNONYMS>  (7361) 


>  <SPECTRUM TYPE>  (7361) 
MS1

>  <INSTRUMENT TYPE>  (7361) 
EI-B

>  <INSTRUMENT>  (7361) 
JEOL JMS-01-SG-2

>  <ION MODE>  (7361) 
P

>  <INCHIKEY>  (7361) 
APPXYONGBIXGRO-QPFJYYDMSA-N

>  <FORMULA>  (7361) 
C40H36O11

>  <EXACT MASS>  (7361) 
692.225761972

>  <MW>  (7361) 
692

>  <ID>  (7361) 
JP000168

>  <CONTRIBUTOR>  (7361) 
University of Tokyo Team, {Faculty of Engineering, University of Tokyo

>  <COMMENT>  (7361) 
SMILES=c(c6)(cc(c(c6)C(C(C1(c(c5)c(O)cc(O)c5)[H])([H])C(c(c32)c(cc(c2C(C(=C(c(c4)c(O)cc(O)c4)O3)CC=C(C)C)=O)O)O)C=C(C)C1)=O)O)O
InChI=InChI=1S/C40H36O11/c1-18(2)4-8-26-38(50)36-33(48)17-32(47)35(40(36)51-39(26)25-11-7-22(43)16-31(25)46)28-13-19(3)12-27(23-9-5-20(41)14-29(23)44)34(28)37(49)24-10-6-21(42)15-30(24)45/h4-7,9-11,13-17,27-28,34,41-48H,8,12H2,1-3H3/t27-,28-,34-/m1/s1
computed SMILES=O=C1C2=C(O)C=C(O)C(=C2OC(C=3C=CC(O)=CC3O)=C1CC=C(C)C)C4C=C(C)CC(C5=CC=C(O)C=C5O)C4C(=O)C6=CC=C(O)C=C6O
accession=JP000168
date=2016.01.19 (Created 2008.10.21, modified 2011.05.06)
author=FUKUSHIMA K, INST. FOR CHEMOBIODYNAMICS, CHIBA UNIV.
license=CC BY-NC-SA
exact mass=692.22576
ionization energy=70 eV
ion type=[M]+*
computed spectral entropy=4.553133457461253
computed normalized entropy=0.8971384278099799
SPLASH=splash10-0ik9-7932000000-d1fcc8d92623ba859276
submitter=submitter = University of Tokyo Team (Faculty of Engineering, University of Tokyo)
MoNA Rating=3.75

>  <NUM PEAKS>  (7361) 
160

>  <MASS SPECTRAL PEAKS>  (7361) 
50 11.65
51 21.45
52 8.56
53 22.11
54 19.07
55 4.24
56 11.84
58 9.19
59 5.84
60 9.05
61 3.76
62 6.07
63 18.45
64 15.41
65 12.94
66 5.2
68 5.66
69 2.2
70 1.72
72 2.62
73 15.07
74 5.39
75 2.56
76 4.63
77 15.84
78 10.6
79 6.77
80 5.76
81 6.41
82 13.91
87 4.6
89 4.98
90 3.59
91 10.85
92 3.65
94 3.92
98 4.13
100 4.74
101 4.16
102 3.95
103 4.6
104 5.95
105 3.65
106 2.23
107 5.61
108 2.67
110 99.99
114 3.15
115 15.81
116 3.67
120 3.57
121 1.78
122 6.18
123 1.12
128 10.85
129 7.06
130 1.4
131 1.29
132 2.58
134 17.33
135 1.5
136 2.92
137 8.92
138 1.28
139 3.89
141 7.47
143 2.67
144 1.48
146 1.85
147 7.06
148 2.45
149 37.58
150 4.25
152 6.53
153 6.77
156 1.66
157 5.16
158 2.91
160 1.88
161 9.65
162 14.32
163 2.67
164 1.45
165 2.59
171 3.11
174 1.99
176 3.02
177 1.82
179 1.09
181 3.83
184 5.5
185 6.55
186 4.32
187 3
189 2.5
191 1.74
195 1.2
197 5.65
198 3.1
199 2.67
200 4.21
201 2.77
202 3.41
203 7.06
205 2.73
211 8.65
212 4.6
213 12.55
214 2.27
215 1.45
218 1.28
219 1.01
226 17.68
227 7.42
228 8.56
229 3.98
231 1.02
233 1.06
242 1.28
243 1.06
253 1.5
255 5.08
256 3.32
257 1.97
262 2.24
265 1.53
278 13.93
279 5
281 3.98
283 1.15
285 1.77
295 1.61
297 8.01
298 3.34
299 7.74
300 1.7
311 34.76
312 6.85
316 1.37
319 1.15
321 3.49
335 1.66
337 4.85
338 1.72
339 1.58
353 1.4
354 17.66
355 4.25
363 1.63
377 4.06
379 2.02
405 14.43
406 4.85
407 1.31
420 6.75
421 1.21
422 1.21
539 2.23
582 4.38
583 1.06

$$$$

     RDKit          2D

 31 33  0  0  0  0  0  0  0  0999 V2000
   -3.8981    6.0000    0.0000 C   0  0  0  0  0  0  0  0  0  0  0  0
   -1.3000    6.0000    0.0000 C   0  0  0  0  0  0  0  0  0  0  0  0
    7.7962   -0.7508    0.0000 C   0  0  0  0  0  0  0  0  0  0  0  0
    6.4968   -3.0006    0.0000 C   0  0  0  0  0  0  0  0  0  0  0  0
   -2.5990    3.7500    0.0000 C   0  0  0  0  0  0  0  0  0  0  0  0
    5.1981   -0.7504    0.0000 C   0  0  0  0  0  0  0  0  0  0  0  0
    6.4989    1.5002    0.0000 C   0  0  0  0  0  0  0  0  0  0  0  0
   -1.3000    3.0000    0.0000 C   0  0  0  0  0  0  0  0  0  0  0  0
    3.8989   -1.5002    0.0000 C   0  0  0  0  0  0  0  0  0  0  0  0
    5.1989    0.7502    0.0000 C   0  0  0  0  0  0  0  0  0  0  0  0
    5.1989    3.7502    0.0000 C   0  0  0  0  0  0  0  0  0  0  0  0
   -2.6000   -0.7500    0.0000 C   0  0  0  0  0  0  0  0  0  0  0  0
   -2.5990    5.2500    0.0000 C   0  0  0  0  0  0  0  0  0  0  0  0
    6.4970   -1.5006    0.0000 C   0  0  0  0  0  0  0  0  0  0  0  0
    6.4989    3.0002    0.0000 C   0  0  0  0  0  0  0  0  0  0  0  0
    3.8989    1.5002    0.0000 C   0  0  0  0  0  0  0  0  0  0  0  0
   -1.3000    1.5000    0.0000 C   0  0  0  0  0  0  0  0  0  0  0  0
    2.6000   -0.7500    0.0000 C   0  0  0  0  0  0  0  0  0  0  0  0
    3.8989    3.0002    0.0000 C   0  0  0  0  0  0  0  0  0  0  0  0
   -2.6000    0.7500    0.0000 C   0  0  0  0  0  0  0  0  0  0  0  0
   -1.3000   -1.5000    0.0000 C   0  0  0  0  0  0  0  0  0  0  0  0
    0.0000   -0.7500    0.0000 C   0  0  0  0  0  0  0  0  0  0  0  0
    1.3000   -1.5000    0.0000 C   0  0  0  0  0  0  0  0  0  0  0  0
    2.6000    0.7500    0.0000 C   0  0  0  0  0  0  0  0  0  0  0  0
    0.0000    0.7500    0.0000 C   0  0  0  0  0  0  0  0  0  0  0  0
    7.7978    3.7504    0.0000 O   0  0  0  0  0  0  0  0  0  0  0  0
    2.6000    3.7504    0.0000 O   0  0  0  0  0  0  0  0  0  0  0  0
   -3.8989    1.5002    0.0000 O   0  0  0  0  0  0  0  0  0  0  0  0
   -1.3000   -3.0000    0.0000 O   0  0  0  0  0  0  0  0  0  0  0  0
    1.3000   -3.0000    0.0000 O   0  0  0  0  0  0  0  0  0  0  0  0
    1.3000    1.5000    0.0000 O   0  0  0  0  0  0  0  0  0  0  0  0
  8  5  1  0
  9  6  1  0
 10  7  2  0
 13  1  1  0
 13  2  1  0
 13  5  2  0
 14  3  1  0
 14  4  1  0
 14  6  2  0
 15  7  1  0
 15 11  2  0
 16 10  1  0
 17  8  1  0
 18  9  1  0
 19 11  1  0
 19 16  2  0
 20 12  2  0
 20 17  1  0
 21 12  1  0
 22 21  2  0
 23 18  1  0
 23 22  1  0
 24 16  1  0
 24 18  2  0
 25 17  2  0
 25 22  1  0
 26 15  1  0
 27 19  1  0
 28 20  1  0
 29 21  1  0
 30 23  2  0
 31 24  1  0
 31 25  1  0
M  END
>  <NAME>  (7362) 
KUWANON-C

>  <SYNONYMS>  (7362) 


>  <SPECTRUM TYPE>  (7362) 
MS1

>  <INSTRUMENT TYPE>  (7362) 
EI-B

>  <INSTRUMENT>  (7362) 
JEOL JMS-01-SG-2

>  <ION MODE>  (7362) 
P

>  <INCHIKEY>  (7362) 
UWQYBLOHTQWSQD-UHFFFAOYSA-N

>  <FORMULA>  (7362) 
C25H26O6

>  <EXACT MASS>  (7362) 
422.172938552

>  <MW>  (7362) 
422

>  <ID>  (7362) 
JP000165

>  <CONTRIBUTOR>  (7362) 
University of Tokyo Team, {Faculty of Engineering, University of Tokyo

>  <COMMENT>  (7362) 
SMILES=CC(C)=CCc(c(O)3)c(O1)c(c(O)c3)C(=O)C(CC=C(C)C)=C(c(c2)c(O)cc(O)c2)1
InChI=InChI=1S/C25H26O6/c1-13(2)5-8-17-20(28)12-21(29)22-23(30)18(9-6-14(3)4)24(31-25(17)22)16-10-7-15(26)11-19(16)27/h5-7,10-12,26-29H,8-9H2,1-4H3
computed SMILES=O=C1C2=C(O)C=C(O)C(=C2OC(C=3C=CC(O)=CC3O)=C1CC=C(C)C)CC=C(C)C
accession=JP000165
date=2016.01.19 (Created 2008.10.21, modified 2011.05.06)
author=FUKUSHIMA K, INST. FOR CHEMOBIODYNAMICS, CHIBA UNIV.
license=CC BY-NC-SA
exact mass=422.17294
ionization energy=70 eV
ion type=[M]+*
computed spectral entropy=2.98436181971418
computed normalized entropy=0.779483245009802
SPLASH=splash10-00fr-0009400000-4210925cffaf9d547765
submitter=submitter = University of Tokyo Team (Faculty of Engineering, University of Tokyo)
MoNA Rating=3.75

>  <NUM PEAKS>  (7362) 
46

>  <MASS SPECTRAL PEAKS>  (7362) 
165 16.37
227 1.02
241 4.51
269 1.16
283 1.62
297 3.73
299 1.73
307 1.67
309 2.15
310 2.67
311 30.84
312 5.55
313 1.03
323 34.92
324 9.01
325 2.87
333 1.9
335 1.9
337 3.32
347 1.94
349 10.05
350 2.52
351 5.61
354 1.68
361 6.3
362 1.1
363 2.08
365 11.84
366 6.21
367 8.09
379 99.99
380 24.3
381 4.72
389 13.59
390 2.76
393 1.43
403 2.86
404 4.94
405 16.5
406 4.17
407 5.7
420 1.97
421 6.48
422 80.39
423 23.46
424 5.18

$$$$

     RDKit          2D

 23 25  0  0  0  0  0  0  0  0999 V2000
   11.6000    2.5981    0.0000 C   0  0  0  0  0  0  0  0  0  0  0  0
   11.6000   -0.0000    0.0000 C   0  0  0  0  0  0  0  0  0  0  0  0
    9.3500    1.2990    0.0000 C   0  0  0  0  0  0  0  0  0  0  0  0
   -1.0100    1.5000    0.0000 C   0  0  0  0  0  0  0  0  0  0  0  0
   -2.3100    0.7500    0.0000 C   0  0  0  0  0  0  0  0  0  0  0  0
    8.6000   -0.0000    0.0000 C   0  0  0  0  0  0  0  0  0  0  0  0
    4.8500   -1.3000    0.0000 C   0  0  0  0  0  0  0  0  0  0  0  0
    4.8500    1.3000    0.0000 C   0  0  0  0  0  0  0  0  0  0  0  0
    1.7200    1.2100    0.0000 C   0  0  0  0  0  0  0  0  0  0  0  0
   -1.0100   -1.5000    0.0000 C   0  0  0  0  0  0  0  0  0  0  0  0
   10.8500    1.2990    0.0000 C   0  0  0  0  0  0  0  0  0  0  0  0
    0.2900    0.7500    0.0000 C   0  0  0  0  0  0  0  0  0  0  0  0
    4.1000   -0.0000    0.0000 C   0  0  0  0  0  0  0  0  0  0  0  0
   -2.3100   -0.7500    0.0000 C   0  0  0  0  0  0  0  0  0  0  0  0
    7.1000   -0.0000    0.0000 C   0  0  0  0  0  0  0  0  0  0  0  0
    6.3500   -1.3000    0.0000 C   0  0  0  0  0  0  0  0  0  0  0  0
    6.3500    1.3000    0.0000 C   0  0  0  0  0  0  0  0  0  0  0  0
    2.6000    0.0000    0.0000 C   0  0  0  0  0  0  0  0  0  0  0  0
    0.2900   -0.7500    0.0000 C   0  0  0  0  0  0  0  0  0  0  0  0
   -3.6089   -1.5002    0.0000 O   0  0  0  0  0  0  0  0  0  0  0  0
    7.1002   -2.5989    0.0000 O   0  0  0  0  0  0  0  0  0  0  0  0
    7.1002    2.5989    0.0000 O   0  0  0  0  0  0  0  0  0  0  0  0
    1.7200   -1.2100    0.0000 O   0  0  0  0  0  0  0  0  0  0  0  0
  5  4  2  0
  6  3  1  0
 11  1  1  0
 11  2  1  0
 11  3  2  0
 12  4  1  0
 12  9  1  0
 13  7  2  0
 13  8  1  0
 14  5  1  0
 14 10  2  0
 15  6  1  0
 16  7  1  0
 16 15  2  0
 17  8  2  0
 17 15  1  0
 18  9  2  0
 18 13  1  0
 19 10  1  0
 19 12  2  0
 20 14  1  0
 21 16  1  0
 22 17  1  0
 23 18  1  0
 23 19  1  0
M  END
>  <NAME>  (7363) 
MORACIN-C

>  <SYNONYMS>  (7363) 


>  <SPECTRUM TYPE>  (7363) 
MS1

>  <INSTRUMENT TYPE>  (7363) 
EI-B

>  <INSTRUMENT>  (7363) 
JEOL JMS-01-SG-2

>  <ION MODE>  (7363) 
P

>  <INCHIKEY>  (7363) 
ZTGHWUWBQNCCOH-UHFFFAOYSA-N

>  <FORMULA>  (7363) 
C19H18O4

>  <EXACT MASS>  (7363) 
310.120509056

>  <MW>  (7363) 
310

>  <ID>  (7363) 
JP000162

>  <CONTRIBUTOR>  (7363) 
University of Tokyo Team, {Faculty of Engineering, University of Tokyo

>  <COMMENT>  (7363) 
SMILES=CC(C)=CCc(c(O)3)c(O)cc(c3)c(o1)c([H])c(c2)c(cc(O)c2)1
InChI=InChI=1S/C19H18O4/c1-11(2)3-6-15-16(21)7-13(8-17(15)22)18-9-12-4-5-14(20)10-19(12)23-18/h3-5,7-10,20-22H,6H2,1-2H3
computed SMILES=OC=1C=CC=2C=C(OC2C1)C3=CC(O)=C(C(O)=C3)CC=C(C)C
accession=JP000162
date=2016.01.19 (Created 2008.10.21, modified 2011.05.06)
author=FUKUSHIMA K, INST. FOR CHEMOBIODYNAMICS, CHIBA UNIV.
license=CC BY-NC-SA
exact mass=310.12051
ionization energy=70 eV
ion type=[M]+*
computed spectral entropy=3.0344195522158643
computed normalized entropy=0.7411246186298036
SPLASH=splash10-08fr-0195000000-f50993107453383214aa
submitter=submitter = University of Tokyo Team (Faculty of Engineering, University of Tokyo)
MoNA Rating=3.75

>  <NUM PEAKS>  (7363) 
60

>  <MASS SPECTRAL PEAKS>  (7363) 
36 1.69
40 1.6
46 1.65
59 1.64
61 2.18
64 1.05
73 3.39
87 1.68
88 1.08
89 1.03
98 3.78
101 0.24
114 1.16
115 4.66
116 1.19
120 3.02
128 4.49
129 3.46
134 10.99
141 1.7
143 1.27
147 1.83
155 1.5
157 1.06
158 1.01
161 1.05
184 1.31
185 1.27
197 4.38
198 2.6
210 1.21
213 1.34
221 1.44
225 1.34
226 8.58
227 6.23
237 1.18
239 2.95
242 16.14
244 2.42
253 3.12
254 19.13
255 82.93
256 12.78
257 1.19
265 2.03
266 7.14
267 4.66
278 4.77
279 2.88
280 2.18
293 10.84
294 2.3
295 34.89
296 6.33
308 2.61
309 10.39
310 99.99
311 20.66
312 4.27

$$$$

     RDKit          2D

 48 53  0  0  0  0  0  0  0  0999 V2000
   16.6281    5.7372    0.0000 C   0  0  0  0  0  0  0  0  0  0  0  0
   16.1766    3.1786    0.0000 C   0  0  0  0  0  0  0  0  0  0  0  0
    0.9425    2.4316    0.0000 C   0  0  0  0  0  0  0  0  0  0  0  0
   14.1866    4.8490    0.0000 C   0  0  0  0  0  0  0  0  0  0  0  0
    9.3917   -7.3837    0.0000 C   0  0  0  0  0  0  0  0  0  0  0  0
    9.1321   -8.8619    0.0000 C   0  0  0  0  0  0  0  0  0  0  0  0
    7.6941    6.3309    0.0000 C   0  0  0  0  0  0  0  0  0  0  0  0
   13.2222    3.7000    0.0000 C   0  0  0  0  0  0  0  0  0  0  0  0
    6.9431    5.0315    0.0000 C   0  0  0  0  0  0  0  0  0  0  0  0
    8.7888    4.4810    0.0000 C   0  0  0  0  0  0  0  0  0  0  0  0
    9.7539    5.6304    0.0000 C   0  0  0  0  0  0  0  0  0  0  0  0
    3.1922    3.7320    0.0000 C   0  0  0  0  0  0  0  0  0  0  0  0
    3.1927    1.1320    0.0000 C   0  0  0  0  0  0  0  0  0  0  0  0
    4.7549   -2.8362    0.0000 C   0  0  0  0  0  0  0  0  0  0  0  0
    7.1978   -1.9462    0.0000 C   0  0  0  0  0  0  0  0  0  0  0  0
    8.1847   -4.9179    0.0000 C   0  0  0  0  0  0  0  0  0  0  0  0
    5.4435    7.6298    0.0000 C   0  0  0  0  0  0  0  0  0  0  0  0
    6.5730   -8.4107    0.0000 C   0  0  0  0  0  0  0  0  0  0  0  0
   15.6638    4.5882    0.0000 C   0  0  0  0  0  0  0  0  0  0  0  0
    2.4425    2.4319    0.0000 C   0  0  0  0  0  0  0  0  0  0  0  0
    8.2420   -6.4190    0.0000 C   0  0  0  0  0  0  0  0  0  0  0  0
    6.2331   -3.0959    0.0000 C   0  0  0  0  0  0  0  0  0  0  0  0
    6.9443    7.6301    0.0000 C   0  0  0  0  0  0  0  0  0  0  0  0
    7.7227   -9.3754    0.0000 C   0  0  0  0  0  0  0  0  0  0  0  0
    5.4422    5.0313    0.0000 C   0  0  0  0  0  0  0  0  0  0  0  0
   11.7451    3.9607    0.0000 C   0  0  0  0  0  0  0  0  0  0  0  0
    9.3019    3.0715    0.0000 C   0  0  0  0  0  0  0  0  0  0  0  0
    4.6922    3.7322    0.0000 C   0  0  0  0  0  0  0  0  0  0  0  0
    4.6927    1.1322    0.0000 C   0  0  0  0  0  0  0  0  0  0  0  0
   11.2320    5.3703    0.0000 C   0  0  0  0  0  0  0  0  0  0  0  0
    4.6925    6.3304    0.0000 C   0  0  0  0  0  0  0  0  0  0  0  0
    4.2414   -1.4269    0.0000 C   0  0  0  0  0  0  0  0  0  0  0  0
    6.6843   -0.5368    0.0000 C   0  0  0  0  0  0  0  0  0  0  0  0
    6.7466   -4.5053    0.0000 C   0  0  0  0  0  0  0  0  0  0  0  0
    6.8327   -6.9325    0.0000 C   0  0  0  0  0  0  0  0  0  0  0  0
    5.4425    2.4323    0.0000 C   0  0  0  0  0  0  0  0  0  0  0  0
    5.2061   -0.2772    0.0000 C   0  0  0  0  0  0  0  0  0  0  0  0
   10.7800    2.8114    0.0000 C   0  0  0  0  0  0  0  0  0  0  0  0
    8.3379    1.9223    0.0000 C   0  0  0  0  0  0  0  0  0  0  0  0
    7.6943    8.9291    0.0000 O   0  0  0  0  0  0  0  0  0  0  0  0
    7.4625  -10.8526    0.0000 O   0  0  0  0  0  0  0  0  0  0  0  0
   12.1960    6.5195    0.0000 O   0  0  0  0  0  0  0  0  0  0  0  0
    3.1925    6.3309    0.0000 O   0  0  0  0  0  0  0  0  0  0  0  0
    2.7642   -1.1666    0.0000 O   0  0  0  0  0  0  0  0  0  0  0  0
    7.9563    0.9806    0.0000 O   0  0  0  0  0  0  0  0  0  0  0  0
   11.2930    1.4018    0.0000 O   0  0  0  0  0  0  0  0  0  0  0  0
    8.8511    0.5128    0.0000 O   0  0  0  0  0  0  0  0  0  0  0  0
    5.9109   -5.7463    0.0000 O   0  0  0  0  0  0  0  0  0  0  0  0
  6  5  2  0
  8  4  1  0
  9  7  2  0
 11 10  2  0
 19  1  1  0
 19  2  1  0
 19  4  2  0
 20  3  1  0
 20 12  1  0
 20 13  2  0
 21  5  1  0
 21 16  1  0
 22 14  2  0
 22 15  1  0
 23  7  1  0
 23 17  2  0
 24  6  1  0
 24 18  2  0
 25  9  1  0
 26  8  1  0
 27 10  1  0
 28 12  1  0
 28 25  1  0
 29 13  1  0
 30 11  1  0
 30 26  2  0
 31 17  1  0
 31 25  2  0
 32 14  1  0
 33 15  2  0
 34 16  2  0
 34 22  1  0
 35 18  1  0
 35 21  2  0
 36 28  1  0
 36 29  1  0
 37 29  1  0
 37 32  2  0
 37 33  1  0
 38 26  1  0
 38 27  2  0
 39 27  1  0
 39 36  1  0
 40 23  1  0
 41 24  1  0
 42 30  1  0
 43 31  1  0
 44 32  1  0
 45 33  1  0
 46 38  1  0
 47 39  2  0
 48 34  1  0
 48 35  1  0
M  END
>  <NAME>  (7364) 
CHALCOMORACIN

>  <SYNONYMS>  (7364) 


>  <SPECTRUM TYPE>  (7364) 
MS1

>  <INSTRUMENT TYPE>  (7364) 
EI-B

>  <INSTRUMENT>  (7364) 
JEOL JMS-01-SG-2

>  <ION MODE>  (7364) 
P

>  <INCHIKEY>  (7364) 
SEHVRKPXIDOTRX-UHFFFAOYSA-N

>  <FORMULA>  (7364) 
C39H36O9

>  <EXACT MASS>  (7364) 
648.235932732

>  <MW>  (7364) 
648

>  <ID>  (7364) 
JP000159

>  <CONTRIBUTOR>  (7364) 
University of Tokyo Team, {Faculty of Engineering, University of Tokyo

>  <COMMENT>  (7364) 
SMILES=c(c1)c(cc(o2)c1cc2c(c6)cc(c(c6O)C(C3C(=O)c(c5O)ccc(c5CC=C(C)C)O)C=C(CC(c(c(O)4)ccc(O)c4)3)C)O)O
InChI=InChI=1S/C39H36O9/c1-19(2)4-8-26-30(42)11-10-27(38(26)46)39(47)36-28(25-9-7-23(40)17-31(25)43)12-20(3)13-29(36)37-32(44)14-22(15-33(37)45)34-16-21-5-6-24(41)18-35(21)48-34/h4-7,9-11,13-18,28-29,36,40-46H,8,12H2,1-3H3
computed SMILES=O=C(C1=CC=C(O)C(=C1O)CC=C(C)C)C2C(C=C(C)CC2C3=CC=C(O)C=C3O)C4=C(O)C=C(C=C4O)C=5OC=6C=C(O)C=CC6C5
accession=JP000159
date=2016.01.19 (Created 2008.10.21, modified 2011.05.06)
author=FUKUSHIMA K, INST. FOR CHEMOBIODYNAMICS, CHIBA UNIV.
license=CC BY-NC-SA
exact mass=648.23593
ionization energy=70 eV
ion type=[M]+*
computed spectral entropy=4.56207492321697
computed normalized entropy=0.8712165542175649
SPLASH=splash10-0006-5964000000-b25faf1953c08dea8210
submitter=submitter = University of Tokyo Team (Faculty of Engineering, University of Tokyo)
MoNA Rating=3.75

>  <NUM PEAKS>  (7364) 
188

>  <MASS SPECTRAL PEAKS>  (7364) 
20 5.37
26 4.38
28 3
31 2.01
36 1.8
38 2.19
40 5.13
44 35.95
46 1.14
50 3.51
51 8.94
52 3.46
53 7.95
54 4.35
60 4.64
61 1.54
62 1.78
63 5.28
64 4.09
65 6.5
66 2.65
67 4.78
68 3.14
73 4.26
74 2.98
75 2.71
76 2.23
77 4.06
78 3.88
79 4.93
80 1.87
82 5.04
84 2.69
87 2.07
89 2.96
91 2.72
92 2.79
94 5
96 1.67
98 2.87
99 1.55
101 2.56
102 1.86
103 2.83
105 5.03
107 6.67
110 26.35
111 2.2
112 1.4
113 1.23
115 8.53
116 1.86
117 2.04
118 1.68
119 1.98
121 14.05
122 10.33
123 43.64
124 3.81
125 1.28
127 3.52
128 5.47
129 2.78
130 1.64
131 2.56
133 1.06
134 4.66
136 1.58
137 1.96
139 3.93
140 1.64
142 1.4
144 2.14
145 2.84
147 4.36
148 1.16
149 5.68
150 2.09
151 1.49
152 2.84
153 1.74
155 1.31
157 4.15
158 2.29
159 1.78
160 1.2
161 5.34
163 6.42
164 1.2
165 3.45
166 3.69
167 1.24
168 3.51
169 2.84
171 2.26
173 2.29
175 1.13
176 2.26
177 1.58
178 20.51
179 4.41
181 1.35
184 1.83
185 5.83
186 3.53
187 1.01
189 1.64
194 1.69
195 1.42
197 4.21
198 1.26
199 1.37
203 1.7
205 1.67
210 1.31
211 11.64
212 4.03
213 14.07
214 1.84
215 1.67
223 2.26
224 1.47
225 1.09
226 1.66
227 1.65
228 1.25
232 1.17
235 2.95
239 1.25
241 4.62
242 99.99
243 14.94
244 1.92
249 1.95
251 1.26
255 2.16
262 1.52
263 2.56
267 3.04
268 3.17
269 1.06
278 2.61
279 2.53
281 2.05
287 1.47
291 1.05
292 1.15
293 19.36
294 3.47
295 1
301 2.05
303 1.74
304 1.76
305 1.03
308 4.25
309 1.4
310 2.16
314 1.35
315 3.44
316 1.34
317 7.59
318 1.77
319 2.01
323 1.33
324 3.59
329 3.05
330 1.43
331 7.63
332 10.32
333 6.06
334 1.97
343 2.41
344 1.16
345 6.32
346 1.2
371 3.38
373 10.84
374 3.21
375 1
385 3.85
386 3.08
387 11.6
388 30.32
389 8.61
390 2.92
449 2.51
450 1.26
630 1.2

$$$$

     RDKit          2D

 52 58  0  0  0  0  0  0  0  0999 V2000
    3.0407    6.5694    0.0000 C   0  0  0  0  0  0  0  0  0  0  0  0
    0.4564    6.8362    0.0000 C   0  0  0  0  0  0  0  0  0  0  0  0
   -7.7946    6.8602    0.0000 C   0  0  0  0  0  0  0  0  0  0  0  0
  -11.6928    0.1079    0.0000 C   0  0  0  0  0  0  0  0  0  0  0  0
  -11.6936   -0.8494    0.0000 C   0  0  0  0  0  0  0  0  0  0  0  0
    3.5243   -1.1300    0.0000 C   0  0  0  0  0  0  0  0  0  0  0  0
  -10.3935    0.8592    0.0000 C   0  0  0  0  0  0  0  0  0  0  0  0
  -10.3935   -0.0996    0.0000 C   0  0  0  0  0  0  0  0  0  0  0  0
    2.0343   -0.9700    0.0000 C   0  0  0  0  0  0  0  0  0  0  0  0
    1.5175    4.4647    0.0000 C   0  0  0  0  0  0  0  0  0  0  0  0
    0.1483    3.8521    0.0000 C   0  0  0  0  0  0  0  0  0  0  0  0
   -9.0946    4.6102    0.0000 C   0  0  0  0  0  0  0  0  0  0  0  0
   -6.4946    4.6102    0.0000 C   0  0  0  0  0  0  0  0  0  0  0  0
  -12.9921    2.3583    0.0000 C   0  0  0  0  0  0  0  0  0  0  0  0
  -10.3940   -3.0996    0.0000 C   0  0  0  0  0  0  0  0  0  0  0  0
    3.7943    1.4600    0.0000 C   0  0  0  0  0  0  0  0  0  0  0  0
   -3.8957    0.1100    0.0000 C   0  0  0  0  0  0  0  0  0  0  0  0
    1.6715    5.9568    0.0000 C   0  0  0  0  0  0  0  0  0  0  0  0
   -7.7946    5.3602    0.0000 C   0  0  0  0  0  0  0  0  0  0  0  0
  -12.9921    0.8575    0.0000 C   0  0  0  0  0  0  0  0  0  0  0  0
  -11.6939   -2.3494    0.0000 C   0  0  0  0  0  0  0  0  0  0  0  0
    4.4043    0.0900    0.0000 C   0  0  0  0  0  0  0  0  0  0  0  0
  -10.3935    2.3600    0.0000 C   0  0  0  0  0  0  0  0  0  0  0  0
   -9.0936   -0.8498    0.0000 C   0  0  0  0  0  0  0  0  0  0  0  0
   -9.0946    3.1102    0.0000 C   0  0  0  0  0  0  0  0  0  0  0  0
   -6.4946    3.1102    0.0000 C   0  0  0  0  0  0  0  0  0  0  0  0
    1.4243    0.4000    0.0000 C   0  0  0  0  0  0  0  0  0  0  0  0
  -11.6928    3.1096    0.0000 C   0  0  0  0  0  0  0  0  0  0  0  0
   -9.0939   -2.3498    0.0000 C   0  0  0  0  0  0  0  0  0  0  0  0
   -5.1957    0.8600    0.0000 C   0  0  0  0  0  0  0  0  0  0  0  0
    2.3043    1.6100    0.0000 C   0  0  0  0  0  0  0  0  0  0  0  0
   -2.5957    0.8600    0.0000 C   0  0  0  0  0  0  0  0  0  0  0  0
   -7.7946    2.3602    0.0000 C   0  0  0  0  0  0  0  0  0  0  0  0
   -5.1957    2.3600    0.0000 C   0  0  0  0  0  0  0  0  0  0  0  0
   -2.5957    2.3600    0.0000 C   0  0  0  0  0  0  0  0  0  0  0  0
   -7.7946   -0.0998    0.0000 C   0  0  0  0  0  0  0  0  0  0  0  0
   -3.8957    3.1100    0.0000 C   0  0  0  0  0  0  0  0  0  0  0  0
   -1.3057    3.1100    0.0000 C   0  0  0  0  0  0  0  0  0  0  0  0
   -0.0057    2.3600    0.0000 C   0  0  0  0  0  0  0  0  0  0  0  0
   -0.0057    0.8600    0.0000 C   0  0  0  0  0  0  0  0  0  0  0  0
  -14.2910    0.1073    0.0000 O   0  0  0  0  0  0  0  0  0  0  0  0
  -12.9929   -3.0994    0.0000 O   0  0  0  0  0  0  0  0  0  0  0  0
    5.8964   -0.0642    0.0000 O   0  0  0  0  0  0  0  0  0  0  0  0
  -11.6935    4.6096    0.0000 O   0  0  0  0  0  0  0  0  0  0  0  0
   -7.7951   -3.1002    0.0000 O   0  0  0  0  0  0  0  0  0  0  0  0
   -6.4946    0.1098    0.0000 O   0  0  0  0  0  0  0  0  0  0  0  0
   -6.0799   -1.0898    0.0000 O   0  0  0  0  0  0  0  0  0  0  0  0
   -3.8957    4.6100    0.0000 O   0  0  0  0  0  0  0  0  0  0  0  0
   -1.3082    4.6100    0.0000 O   0  0  0  0  0  0  0  0  0  0  0  0
    0.1531   -0.6316    0.0000 O   0  0  0  0  0  0  0  0  0  0  0  0
    1.4243    2.8300    0.0000 O   0  0  0  0  0  0  0  0  0  0  0  0
   -1.3057    0.1100    0.0000 O   0  0  0  0  0  0  0  0  0  0  0  0
  7  4  2  0
  8  5  2  0
  9  6  2  0
 11 10  1  0
 18  1  1  0
 18  2  1  0
 18 10  2  0
 19  3  1  0
 19 12  1  0
 19 13  2  0
 20  4  1  0
 20 14  2  0
 21  5  1  0
 21 15  2  0
 22  6  1  0
 22 16  2  0
 23  7  1  0
 24  8  1  0
 25 12  1  0
 25 23  1  0
 26 13  1  0
 27  9  1  0
 28 14  1  0
 28 23  2  0
 29 15  1  0
 29 24  2  0
 30 17  1  0
 31 16  1  0
 31 27  2  0
 32 17  2  0
 33 25  1  0
 33 26  1  0
 34 26  1  0
 34 30  2  0
 35 32  1  0
 36 24  1  0
 36 33  1  0
 37 34  1  0
 37 35  2  0
 38 35  1  0
 39 11  1  0
 39 38  1  0
 40 27  1  0
 40 39  1  0
 41 20  1  0
 42 21  1  0
 43 22  1  0
 44 28  1  0
 45 29  1  0
 46 30  1  0
 47 36  2  0
 48 37  1  0
 49 38  2  0
 50 40  1  0
 51 31  1  0
 51 39  1  0
 52 32  1  0
 52 40  1  0
M  END
>  <NAME>  (7365) 
SANGGENON-C

>  <SYNONYMS>  (7365) 


>  <SPECTRUM TYPE>  (7365) 
MS1

>  <INSTRUMENT TYPE>  (7365) 
EI-B

>  <INSTRUMENT>  (7365) 
JEOL JMS-01-SG-2

>  <ION MODE>  (7365) 
P

>  <INCHIKEY>  (7365) 
SUOXGDJCEWTZIZ-UHFFFAOYSA-N

>  <FORMULA>  (7365) 
C40H36O12

>  <EXACT MASS>  (7365) 
708.2206765919999

>  <MW>  (7365) 
708

>  <ID>  (7365) 
JP000156

>  <CONTRIBUTOR>  (7365) 
University of Tokyo Team, {Faculty of Engineering, University of Tokyo

>  <COMMENT>  (7365) 
SMILES=c(c7)c(C12O)c(cc7O)OC(C(=O)c(c(O)3)c(cc(O)c3C(C4C(=O)c(c6)c(O)cc(c6)O)C=C(C)CC4c(c5O)ccc(O)c5)O2)1CC=C(C)C
InChI=InChI=1S/C40H36O12/c1-18(2)10-11-39-38(49)35-32(52-40(39,50)27-9-6-22(43)16-31(27)51-39)17-30(46)34(37(35)48)26-13-19(3)12-25(23-7-4-20(41)14-28(23)44)33(26)36(47)24-8-5-21(42)15-29(24)45/h4-10,13-17,25-26,33,41-46,48,50H,11-12H2,1-3H3
computed SMILES=O=C(C1=CC=C(O)C=C1O)C2C(C=C(C)CC2C3=CC=C(O)C=C3O)C4=C(O)C=C5OC6(O)C7=CC=C(O)C=C7OC6(C(=O)C5=C4O)CC=C(C)C
accession=JP000156
date=2016.01.19 (Created 2008.10.21, modified 2011.05.06)
author=FUKUSHIMA K, INST. FOR CHEMOBIODYNAMICS, CHIBA UNIV.
license=CC BY-NC-SA
exact mass=708.22068
ionization energy=70 eV
ion type=[M]+*
computed spectral entropy=4.21529032272444
computed normalized entropy=0.8368731364882286
SPLASH=splash10-03e9-4943100000-f12ea79c868cf8f3abbe
submitter=submitter = University of Tokyo Team (Faculty of Engineering, University of Tokyo)
MoNA Rating=3.75

>  <NUM PEAKS>  (7365) 
154

>  <MASS SPECTRAL PEAKS>  (7365) 
65 23.94
66 18.91
75 7.01
77 8.22
79 1.41
80 5.12
81 65.41
82 95.18
89 7.12
90 1.48
92 6.51
94 11.14
101 2.05
103 4.04
105 1.59
106 1.48
107 3.71
110 99.99
111 10.38
115 10.82
117 2.78
122 10.93
123 71.72
124 1.72
126 16.68
127 2.26
128 5.36
129 2.7
134 12.9
135 10.27
136 3.55
137 13.96
141 1.67
143 3.3
144 2.01
146 1.69
147 23.34
148 3.93
150 30.11
151 3.5
152 4.75
153 7.19
155 2.05
156 1.44
160 4.55
161 42.98
162 14.06
163 27.41
164 5.52
173 2.56
174 1.94
175 7.9
176 13.18
177 11.5
178 17.53
179 1.04
184 2.4
187 1.39
190 2.22
191 2.5
194 2.29
197 10.69
198 1.47
199 1.4
200 1.45
201 3.71
203 18.8
204 1.8
210 2.5
211 49.74
212 37.6
213 15.71
214 2.03
217 4.77
218 10.56
219 1.61
225 3.42
226 1.49
227 3.26
229 6.35
230 1.64
237 2.87
239 5
241 3.01
244 1.75
245 5.03
251 1.28
253 1.87
255 38.71
256 30.79
257 4.06
258 2.66
265 1.12
269 2.77
274 1.02
279 1.12
280 3.19
285 9.83
286 1.78
287 1.53
302 6.61
303 3.49
305 12.38
306 1.9
311 1
314 2.9
315 8.42
317 3.34
319 8.25
320 8.84
321 2.29
322 1.29
323 2.41
324 2.56
325 1.41
326 2.15
327 8.48
329 1.33
333 3.15
335 1.94
338 1.14
339 2.98
353 52.56
354 11.18
355 3.74
365 4.67
366 1.39
368 19.28
369 4.71
370 9.24
371 1.33
381 1.64
383 1.9
388 1.61
389 1.12
395 1.11
401 1.53
404 1.9
405 2.11
419 1.78
421 25.53
422 8.02
423 2.34
436 11.52
437 3.34
438 2.6
439 1.08
464 1.77
516 0.88
578 0.58
579 0.52
580 0.98
581 0.95
691 0.32

$$$$

     RDKit          2D

 48 48  0  0  1  0  0  0  0  0999 V2000
   -3.8990   -6.7500    0.0000 C   0  0  0  0  0  0  0  0  0  0  0  0
   -5.1981   -4.5000    0.0000 C   0  0  0  0  0  0  0  0  0  0  0  0
    6.4970    2.2506    0.0000 C   0  0  0  0  0  0  0  0  0  0  0  0
    5.1983    0.0004    0.0000 C   0  0  0  0  0  0  0  0  0  0  0  0
   -6.4976    6.7504    0.0000 C   0  0  0  0  0  0  0  0  0  0  0  0
   -3.8995    6.7500    0.0000 C   0  0  0  0  0  0  0  0  0  0  0  0
    2.5987   -4.5002    0.0000 C   0  0  0  0  0  0  0  0  0  0  0  0
    3.8981   -2.2504    0.0000 C   0  0  0  0  0  0  0  0  0  0  0  0
   -7.7981   -0.0004    0.0000 C   0  0  0  0  0  0  0  0  0  0  0  0
   -6.4987   -2.2502    0.0000 C   0  0  0  0  0  0  0  0  0  0  0  0
    1.2990    6.7500    0.0000 C   0  0  0  0  0  0  0  0  0  0  0  0
   -1.2990    6.7500    0.0000 C   0  0  0  0  0  0  0  0  0  0  0  0
   -1.3000   -0.7500    0.0000 C   0  0  0  0  0  0  0  0  0  0  0  0
   -2.6011    1.4998    0.0000 C   0  0  0  0  0  0  0  0  0  0  0  0
    0.0011    1.4998    0.0000 C   0  0  0  0  0  0  0  0  0  0  0  0
   -2.6000   -4.5000    0.0000 C   0  0  0  0  0  0  0  0  0  0  0  0
    3.8989    2.2502    0.0000 C   0  0  0  0  0  0  0  0  0  0  0  0
   -5.1989    4.5002    0.0000 C   0  0  0  0  0  0  0  0  0  0  0  0
   -3.8990   -5.2500    0.0000 C   0  0  0  0  0  0  0  0  0  0  0  0
    5.1981    1.5004    0.0000 C   0  0  0  0  0  0  0  0  0  0  0  0
   -5.1987    6.0002    0.0000 C   0  0  0  0  0  0  0  0  0  0  0  0
    2.5989   -3.0002    0.0000 C   0  0  0  0  0  0  0  0  0  0  0  0
   -6.4989   -0.7502    0.0000 C   0  0  0  0  0  0  0  0  0  0  0  0
    0.0000    6.0000    0.0000 C   0  0  0  0  0  0  0  0  0  0  0  0
   -2.6000   -3.0000    0.0000 C   0  0  0  0  0  0  0  0  0  0  0  0
    2.6000    1.5000    0.0000 C   0  0  0  0  0  0  0  0  0  0  0  0
   -3.9000    3.7500    0.0000 C   0  0  0  0  0  0  0  0  0  0  0  0
    1.3000   -2.2500    0.0000 C   0  0  0  0  0  0  0  0  0  0  0  0
   -5.2000    0.0000    0.0000 C   0  0  0  0  0  0  0  0  0  0  0  0
    0.0000    4.5000    0.0000 C   0  0  0  0  0  0  0  0  0  0  0  0
   -0.0000   -3.0000    0.0000 C   0  0  0  0  0  0  0  0  0  0  0  0
   -5.2000    1.5000    0.0000 C   0  0  0  0  0  0  0  0  0  0  0  0
    1.3000    3.7500    0.0000 C   0  0  0  0  0  0  0  0  0  0  0  0
   -3.9000   -2.2500    0.0000 C   0  0  0  0  0  0  0  0  0  0  0  0
    2.6000   -0.0000    0.0000 C   0  0  0  0  0  0  0  0  0  0  0  0
   -2.6000    4.5000    0.0000 C   0  0  0  0  0  0  0  0  0  0  0  0
   -1.3000   -2.2500    0.0000 N   0  0  0  0  0  0  0  0  0  0  0  0
   -3.9000    2.2500    0.0000 N   0  0  0  0  0  0  0  0  0  0  0  0
    1.3000    2.2500    0.0000 N   0  0  0  0  0  0  0  0  0  0  0  0
   -0.0000   -4.5000    0.0000 O   0  0  0  0  0  0  0  0  0  0  0  0
   -6.4989    2.2502    0.0000 O   0  0  0  0  0  0  0  0  0  0  0  0
    2.5989    4.5002    0.0000 O   0  0  0  0  0  0  0  0  0  0  0  0
   -5.1989   -3.0002    0.0000 O   0  0  0  0  0  0  0  0  0  0  0  0
    3.8989   -0.7502    0.0000 O   0  0  0  0  0  0  0  0  0  0  0  0
   -2.6000    6.0000    0.0000 O   0  0  0  0  0  0  0  0  0  0  0  0
   -3.9000   -0.7500    0.0000 O   0  0  0  0  0  0  0  0  0  0  0  0
    1.3000   -0.7500    0.0000 O   0  0  0  0  0  0  0  0  0  0  0  0
   -1.3000    3.7500    0.0000 O   0  0  0  0  0  0  0  0  0  0  0  0
 19  1  1  0
 19  2  1  0
 19 16  1  0
 20  3  1  0
 20  4  1  0
 20 17  1  0
 21  5  1  0
 21  6  1  0
 21 18  1  0
 22  7  1  0
 22  8  1  0
 23  9  1  0
 23 10  1  0
 24 11  1  0
 24 12  1  0
 25 16  1  1
 26 17  1  1
 27 18  1  1
 28 22  1  6
 29 23  1  6
 30 24  1  6
 31 28  1  0
 32 29  1  0
 33 30  1  0
 34 25  1  0
 35 26  1  0
 36 27  1  0
 37 13  1  0
 37 25  1  0
 37 31  1  0
 38 14  1  0
 38 27  1  0
 38 32  1  0
 39 15  1  0
 39 26  1  0
 39 33  1  0
 40 31  2  0
 41 32  2  0
 42 33  2  0
 43 34  2  0
 44 35  2  0
 45 36  2  0
 29 46  1  0
 46 34  1  0
 28 47  1  0
 47 35  1  0
 30 48  1  0
 48 36  1  0
M  END
>  <NAME>  (7366) 
ENNIATIN-C

>  <SYNONYMS>  (7366) 


>  <SPECTRUM TYPE>  (7366) 
MS1

>  <INSTRUMENT TYPE>  (7366) 
EI-B

>  <INSTRUMENT>  (7366) 
JEOL JMS-01-SG-2

>  <ION MODE>  (7366) 
P

>  <INCHIKEY>  (7366) 
WICJNWLMJRLFKQ-NHODMIADSA-N

>  <FORMULA>  (7366) 
C36H63N3O9

>  <EXACT MASS>  (7366) 
681.456430596

>  <MW>  (7366) 
681

>  <ID>  (7366) 
JP000153

>  <CONTRIBUTOR>  (7366) 
University of Tokyo Team, {Faculty of Engineering, University of Tokyo

>  <COMMENT>  (7366) 
SMILES=CN(C(=O)1)C([H])(CC(C)C)C(=O)OC(C(N(C)C([H])(CC(C)C)C(=O)OC(C(N(C)C([H])(CC(C)C)C(=O)OC1(C(C)C)[H])=O)(C(C)C)[H])=O)(C(C)C)[H]
InChI=InChI=1S/C36H63N3O9/c1-19(2)16-25-34(43)46-29(23(9)10)32(41)38(14)27(18-21(5)6)36(45)48-30(24(11)12)33(42)39(15)26(17-20(3)4)35(44)47-28(22(7)8)31(40)37(25)13/h19-30H,16-18H2,1-15H3/t25-,26-,27-,28+,29+,30+/m0/s1
computed SMILES=O=C1OC(C(=O)N(C)C(C(=O)OC(C(=O)N(C)C(C(=O)OC(C(=O)N(C)C1CC(C)C)C(C)C)CC(C)C)C(C)C)CC(C)C)C(C)C
accession=JP000153
date=2016.01.19 (Created 2008.10.21, modified 2011.05.06)
author=FUKUSHIMA K, INST. FOR CHEMOBIODYNAMICS, CHIBA UNIV.
license=CC BY-NC-SA
exact mass=681.45643
ionization energy=70 eV
ion type=[M]+*
computed spectral entropy=4.208888152848811
computed normalized entropy=0.850493506672675
SPLASH=splash10-0gx0-3951123000-edde1fe096dc09ba0120
submitter=submitter = University of Tokyo Team (Faculty of Engineering, University of Tokyo)
MoNA Rating=3.75

>  <NUM PEAKS>  (7366) 
141

>  <MASS SPECTRAL PEAKS>  (7366) 
27 1.93
29 1.64
39 1.62
41 6.74
42 22.59
43 8.7
44 5.34
55 9.18
56 3.78
57 24.18
58 10.51
69 11.07
82 1.64
83 12.22
84 9.36
85 1.36
88 1.8
97 4.86
98 20.23
99 3.76
100 99.99
101 7.17
112 9.56
126 4.74
127 8.91
128 2.04
140 6.77
142 5.36
144 4.47
146 1.61
153 6.73
154 4.15
155 16.31
156 6.33
163 1.65
166 1.29
168 18.88
169 3.33
170 2.86
181 4.79
182 39.38
183 76.75
184 19.59
185 1.92
194 1.61
196 22.76
197 6.43
198 4.5
200 2.18
205 7.29
206 1.43
208 1.42
209 33.51
210 97.8
211 4.08
212 8.97
226 4.85
227 2.73
228 13.08
229 1.72
253 6.53
254 2.87
255 1.59
268 2.38
269 1.64
282 7.56
283 1.56
284 1.65
296 17.35
297 5.49
309 1.28
310 6.31
311 10.58
312 2.4
324 7.8
325 4.83
326 1.81
328 2.79
353 4.35
354 1.32
367 1.27
371 3.33
373 9.22
374 2.05
380 3.37
381 4.69
382 6.28
383 1.73
397 1.21
398 1.67
399 5.96
400 1.39
410 4.09
423 1.7
436 1.6
437 15.06
438 5.74
439 1.92
453 2.88
454 17.91
455 7.24
456 1.3
470 3.17
482 2.35
495 2.79
509 2.25
510 1.57
523 1.79
524 2.93
526 6.36
527 2.32
538 1.4
542 1.59
552 5.52
553 2.83
554 1.5
569 3.5
570 2.36
580 11.09
581 2.01
582 13.15
583 5.11
584 1.26
598 16.08
599 5.29
600 1.34
609 1.21
610 2.74
623 2.4
624 31.5
626 11.85
627 2.44
637 2.05
638 3.27
639 3.3
666 6.48
667 2.62
680 3.31
681 55.08
682 23.11
683 5.79

$$$$

     RDKit          2D

 39 43  0  0  1  0  0  0  0  0999 V2000
    8.2885    3.8387    0.0000 C   0  0  0  0  0  0  0  0  0  0  0  0
    0.2405   -6.9773    0.0000 C   0  0  0  0  0  0  0  0  0  0  0  0
   -6.2153   -0.1986    0.0000 C   0  0  0  0  0  0  0  0  0  0  0  0
    5.8036    2.1026    0.0000 C   0  0  0  0  0  0  0  0  0  0  0  0
   -2.3579   -6.9612    0.0000 C   0  0  0  0  0  0  0  0  0  0  0  0
   10.1158    1.9929    0.0000 C   0  0  0  0  0  0  0  0  0  0  0  0
    3.4171    2.8926    0.0000 C   0  0  0  0  0  0  0  0  0  0  0  0
    2.8652   -2.4944    0.0000 C   0  0  0  0  0  0  0  0  0  0  0  0
   -1.0192   -0.2225    0.0000 C   0  0  0  0  0  0  0  0  0  0  0  0
    1.2048    1.2256    0.0000 C   0  0  0  0  0  0  0  0  0  0  0  0
    7.2222    2.7837    0.0000 C   0  0  0  0  0  0  0  0  0  0  0  0
    0.2496   -5.4773    0.0000 C   0  0  0  0  0  0  0  0  0  0  0  0
   -4.9197   -0.9545    0.0000 C   0  0  0  0  0  0  0  0  0  0  0  0
    1.9639    2.5113    0.0000 C   0  0  0  0  0  0  0  0  0  0  0  0
    4.7088    2.1256    0.0000 C   0  0  0  0  0  0  0  0  0  0  0  0
    1.5619   -3.2351    0.0000 C   0  0  0  0  0  0  0  0  0  0  0  0
    2.8779   -0.9946    0.0000 C   0  0  0  0  0  0  0  0  0  0  0  0
    0.2764   -0.9785    0.0000 C   0  0  0  0  0  0  0  0  0  0  0  0
    0.2683   -2.4776    0.0000 C   0  0  0  0  0  0  0  0  0  0  0  0
    5.0901    0.6724    0.0000 C   0  0  0  0  0  0  0  0  0  0  0  0
    4.3230   -0.6193    0.0000 C   0  0  0  0  0  0  0  0  0  0  0  0
    5.7758    3.1797    0.0000 C   0  0  0  0  0  0  0  0  0  0  0  0
    1.5532   -4.7351    0.0000 C   0  0  0  0  0  0  0  0  0  0  0  0
   -1.0356   -3.2192    0.0000 C   0  0  0  0  0  0  0  0  0  0  0  0
    6.5372    0.2780    0.0000 C   0  0  0  0  0  0  0  0  0  0  0  0
   -1.0450   -4.7193    0.0000 C   0  0  0  0  0  0  0  0  0  0  0  0
    7.6029    1.3331    0.0000 C   0  0  0  0  0  0  0  0  0  0  0  0
   -3.6172   -0.2105    0.0000 C   0  0  0  0  0  0  0  0  0  0  0  0
   -2.3217   -0.9665    0.0000 N   0  0  0  0  0  0  0  0  0  0  0  0
    3.9102    1.5237    0.0000 N   0  0  0  0  0  0  0  0  0  0  0  0
    1.5782   -0.2336    0.0000 N   0  0  0  0  0  0  0  0  0  0  0  0
   -4.9266   -2.4545    0.0000 O   0  0  0  0  0  0  0  0  0  0  0  0
    5.3960    4.6308    0.0000 O   0  0  0  0  0  0  0  0  0  0  0  0
    2.8478   -5.4927    0.0000 O   0  0  0  0  0  0  0  0  0  0  0  0
   -2.3299   -2.4609    0.0000 O   0  0  0  0  0  0  0  0  0  0  0  0
    6.9188   -1.1727    0.0000 O   0  0  0  0  0  0  0  0  0  0  0  0
   -3.6103    1.2894    0.0000 O   0  0  0  0  0  0  0  0  0  0  0  0
   -2.3486   -5.4612    0.0000 O   0  0  0  0  0  0  0  0  0  0  0  0
    9.0498    0.9376    0.0000 O   0  0  0  0  0  0  0  0  0  0  0  0
 11  1  1  0
 12  2  1  0
 13  3  1  0
 14  7  1  1
 14 10  1  0
 15  7  1  0
 16  8  1  0
 17  8  1  6
 18  9  1  6
 19 16  2  0
 19 18  1  0
 20 15  2  0
 21 17  1  0
 21 20  1  1
 22 11  1  0
 22 15  1  0
 23 12  1  0
 23 16  1  0
 24 19  1  0
 25 20  1  0
 26 12  2  0
 26 24  1  0
 27 11  2  0
 27 25  1  0
 28 13  1  0
 29  9  1  0
 29 28  1  0
 30  4  1  0
 14 30  1  0
 21 30  1  0
 31 10  1  0
 17 31  1  0
 31 18  1  0
 32 13  2  0
 33 22  2  0
 34 23  2  0
 35 24  2  0
 36 25  2  0
 37 28  2  0
 38  5  1  0
 38 26  1  0
 39  6  1  0
 39 27  1  0
M  END
>  <NAME>  (7367) 
SAFRAMYCIN-B

>  <SYNONYMS>  (7367) 


>  <SPECTRUM TYPE>  (7367) 
MS1

>  <INSTRUMENT TYPE>  (7367) 
EI-B

>  <INSTRUMENT>  (7367) 
JEOL JMS-01-SG-2

>  <ION MODE>  (7367) 
P

>  <INCHIKEY>  (7367) 
KOHPLTGVBZMVDW-BBTHKVSRSA-N

>  <FORMULA>  (7367) 
C28H31N3O8

>  <EXACT MASS>  (7367) 
537.211114952

>  <MW>  (7367) 
537

>  <ID>  (7367) 
JP000147

>  <CONTRIBUTOR>  (7367) 
University of Tokyo Team, {Faculty of Engineering, University of Tokyo

>  <COMMENT>  (7367) 
SMILES=CC1=C(C(=O)C2=C(C1=O)C[C@@H]3CN4[C@H]([C@H]2N3C)CC5=C([C@@H]4CNC(=O)C(=O)C)C(=O)C(=C(C5=O)C)OC)OC
InChI=InChI=1S/C28H31N3O8/c1-11-22(33)15-7-14-10-31-17(21(30(14)4)20(15)25(36)27(11)39-6)8-16-19(18(31)9-29-28(37)13(3)32)24(35)26(38-5)12(2)23(16)34/h14,17-18,21H,7-10H2,1-6H3,(H,29,37)/t14-,17+,18+,21-/m1/s1
computed SMILES=O=C(NCC1C=2C(=O)C(OC)=C(C(=O)C2CC3N1CC4N(C)C3C=5C(=O)C(OC)=C(C(=O)C5C4)C)C)C(=O)C
accession=JP000147
date=2016.01.19 (Created 2008.10.21, modified 2011.05.06)
author=FUKUSHIMA K, INST. FOR CHEMOBIODYNAMICS, CHIBA UNIV.
license=CC BY-NC-SA
exact mass=537.21111
ionization energy=70 eV
ion type=[M]+*
computed spectral entropy=4.729560438666731
computed normalized entropy=0.8837230585547772
SPLASH=splash10-000i-5691300000-5e8c712d55b0fd18ad0f
submitter=submitter = University of Tokyo Team (Faculty of Engineering, University of Tokyo)
MoNA Rating=3.75

>  <NUM PEAKS>  (7367) 
211

>  <MASS SPECTRAL PEAKS>  (7367) 
32 4.12
40 3.22
43 11.69
51 1.94
53 1.8
54 1.11
55 5.95
57 49.02
63 1.5
66 1
67 3.95
69 7.04
70 3.98
71 24.69
72 5.73
76 1.03
77 3.59
79 3.92
80 3.06
81 21.21
82 2.86
83 7.82
84 5.54
85 22.49
86 1.55
88 2.33
90 2.36
91 7.26
92 1.5
93 2.67
94 4.84
96 5.51
97 11.97
99 13.22
106 4.28
107 2.25
108 10.67
109 2.22
110 1.97
111 8.65
112 5.23
113 9.79
118 4.87
119 3.42
120 2.31
121 5.03
122 2.86
123 12.11
124 3.56
125 7.04
126 7.51
127 8.1
132 4.06
133 3.31
135 8.07
136 7.79
137 14.11
138 4.59
139 4.14
140 7.82
141 2.28
142 4.73
145 1.05
147 1.8
148 3.73
149 4.54
150 1
153 2.72
154 4.7
155 13.83
159 2.86
160 3.17
161 3.36
162 2.75
163 6.87
166 3.31
167 4.14
169 1.64
172 1.5
173 1.53
174 3.09
175 6.34
176 8.93
177 4.48
178 6.15
179 1.53
180 2.97
182 5.65
183 5.54
186 7.9
187 4.23
188 4.2
189 7.4
190 12.61
191 9.07
192 4.59
193 3.17
196 3.61
198 1.55
202 6.9
203 11.24
204 17.04
205 8.18
206 6.93
207 4.73
208 1.08
209 2.5
210 3.81
211 28.78
212 2.95
215 2.36
216 6.48
217 3.75
218 38.05
219 21.13
220 54.03
221 9.24
222 4.87
223 3.95
224 4.2
226 1.33
230 1.36
231 2.22
232 5.51
234 44.65
235 19.79
236 15.22
237 2.25
238 1.3
239 2.06
240 1.78
246 2.19
247 1.61
250 4.28
252 3.2
253 6.12
254 2.5
258 1.11
259 7.21
260 6.09
261 1.58
262 9.6
263 4.03
265 1.69
266 4.98
267 3.34
268 2.56
269 2.25
270 1.67
273 1.83
274 2.06
276 6.62
280 2.81
281 2.42
282 1.55
288 1.44
290 3.53
292 1.19
293 1.61
294 2.44
295 2.36
296 2.72
298 1.28
299 1
302 1
304 1.16
306 1.39
308 2.33
309 2.44
310 7.54
319 11.35
320 1.25
322 3
324 6.9
325 1.39
330 1.22
331 1.25
338 13.89
339 2.17
350 1.16
351 1.16
352 3.2
353 1.67
354 5.59
355 1.75
366 4.42
367 1.69
372 1.67
380 3.84
381 1.78
386 2.31
394 2.08
400 1.92
405 1.61
408 1.28
410 3.59
411 1
431 1
437 99.99
438 32.96
439 6.45
440 1.33
443 1.25
453 6.95
454 1.11
493 1.36
505 1.16
537 33.04
538 7.54
553 1.44
555 1.3

$$$$

     RDKit          2D

 41 45  0  0  1  0  0  0  0  0999 V2000
    0.2405   -6.9773    0.0000 C   0  0  0  0  0  0  0  0  0  0  0  0
    8.2885    3.8387    0.0000 C   0  0  0  0  0  0  0  0  0  0  0  0
   -6.2153   -0.1986    0.0000 C   0  0  0  0  0  0  0  0  0  0  0  0
    5.8036    2.1026    0.0000 C   0  0  0  0  0  0  0  0  0  0  0  0
   -2.3579   -6.9612    0.0000 C   0  0  0  0  0  0  0  0  0  0  0  0
   10.1158    1.9929    0.0000 C   0  0  0  0  0  0  0  0  0  0  0  0
    3.4171    2.8926    0.0000 C   0  0  0  0  0  0  0  0  0  0  0  0
    2.8652   -2.4944    0.0000 C   0  0  0  0  0  0  0  0  0  0  0  0
   -0.2802    1.4370    0.0000 C   0  0  0  0  0  0  0  0  0  0  0  0
   -1.0192   -0.2225    0.0000 C   0  0  0  0  0  0  0  0  0  0  0  0
    0.2496   -5.4773    0.0000 C   0  0  0  0  0  0  0  0  0  0  0  0
    7.2222    2.7837    0.0000 C   0  0  0  0  0  0  0  0  0  0  0  0
   -4.9197   -0.9545    0.0000 C   0  0  0  0  0  0  0  0  0  0  0  0
    1.5619   -3.2351    0.0000 C   0  0  0  0  0  0  0  0  0  0  0  0
    4.7088    2.1256    0.0000 C   0  0  0  0  0  0  0  0  0  0  0  0
    1.9639    2.5113    0.0000 C   0  0  0  0  0  0  0  0  0  0  0  0
    2.8779   -0.9946    0.0000 C   0  0  0  0  0  0  0  0  0  0  0  0
    1.2048    1.2256    0.0000 C   0  0  0  0  0  0  0  0  0  0  0  0
    0.2764   -0.9785    0.0000 C   0  0  0  0  0  0  0  0  0  0  0  0
    0.2683   -2.4776    0.0000 C   0  0  0  0  0  0  0  0  0  0  0  0
    5.0901    0.6724    0.0000 C   0  0  0  0  0  0  0  0  0  0  0  0
    4.3230   -0.6193    0.0000 C   0  0  0  0  0  0  0  0  0  0  0  0
    1.5532   -4.7351    0.0000 C   0  0  0  0  0  0  0  0  0  0  0  0
    5.7758    3.1797    0.0000 C   0  0  0  0  0  0  0  0  0  0  0  0
   -1.0356   -3.2192    0.0000 C   0  0  0  0  0  0  0  0  0  0  0  0
    6.5372    0.2780    0.0000 C   0  0  0  0  0  0  0  0  0  0  0  0
   -1.0450   -4.7193    0.0000 C   0  0  0  0  0  0  0  0  0  0  0  0
    7.6029    1.3331    0.0000 C   0  0  0  0  0  0  0  0  0  0  0  0
   -3.6172   -0.2105    0.0000 C   0  0  0  0  0  0  0  0  0  0  0  0
   -1.7652    1.6485    0.0000 N   0  0  0  0  0  0  0  0  0  0  0  0
   -2.3217   -0.9665    0.0000 N   0  0  0  0  0  0  0  0  0  0  0  0
    3.9102    1.5237    0.0000 N   0  0  0  0  0  0  0  0  0  0  0  0
    1.5782   -0.2336    0.0000 N   0  0  0  0  0  0  0  0  0  0  0  0
   -4.9266   -2.4545    0.0000 O   0  0  0  0  0  0  0  0  0  0  0  0
    2.8478   -5.4927    0.0000 O   0  0  0  0  0  0  0  0  0  0  0  0
    5.3960    4.6308    0.0000 O   0  0  0  0  0  0  0  0  0  0  0  0
   -2.3299   -2.4609    0.0000 O   0  0  0  0  0  0  0  0  0  0  0  0
    6.9188   -1.1727    0.0000 O   0  0  0  0  0  0  0  0  0  0  0  0
   -3.6103    1.2894    0.0000 O   0  0  0  0  0  0  0  0  0  0  0  0
   -2.3486   -5.4612    0.0000 O   0  0  0  0  0  0  0  0  0  0  0  0
    9.0498    0.9376    0.0000 O   0  0  0  0  0  0  0  0  0  0  0  0
 11  1  1  0
 12  2  1  0
 13  3  1  0
 14  8  1  0
 15  7  1  0
 16  7  1  0
 17  8  1  6
 18  9  1  1
 18 16  1  0
 19 10  1  6
 20 14  2  0
 20 19  1  0
 21 15  2  0
 22 17  1  0
 22 21  1  0
 23 11  1  0
 23 14  1  0
 24 12  1  0
 24 15  1  0
 25 20  1  0
 26 21  1  0
 27 11  2  0
 27 25  1  0
 28 12  2  0
 28 26  1  0
 29 13  1  0
 30  9  3  0
 31 10  1  0
 31 29  1  0
 32  4  1  0
 32 16  1  0
 32 22  1  0
 17 33  1  0
 33 18  1  0
 33 19  1  0
 34 13  2  0
 35 23  2  0
 36 24  2  0
 37 25  2  0
 38 26  2  0
 39 29  2  0
 40  5  1  0
 40 27  1  0
 41  6  1  0
 41 28  1  0
M  END
>  <NAME>  (7368) 
SAFRAMYCIN-A

>  <SYNONYMS>  (7368) 


>  <SPECTRUM TYPE>  (7368) 
MS1

>  <INSTRUMENT TYPE>  (7368) 
EI-B

>  <INSTRUMENT>  (7368) 
JEOL JMS-01-SG-2

>  <ION MODE>  (7368) 
P

>  <INCHIKEY>  (7368) 
JNEGMBHBUAJRSX-KRPZRDOVSA-N

>  <FORMULA>  (7368) 
C29H30N4O8

>  <EXACT MASS>  (7368) 
562.20636392

>  <MW>  (7368) 
562

>  <ID>  (7368) 
JP000145

>  <CONTRIBUTOR>  (7368) 
University of Tokyo Team, {Faculty of Engineering, University of Tokyo

>  <COMMENT>  (7368) 
SMILES=O=C(C(C)=O)NCC(N52)(c(c1=O)c(CC2(C(c34)(N(C)C(C5([H])C#N)([H])Cc3c(c(c(OC)c4=O)C)=O)[H])[H])c(c(c(OC)1)C)=O)[H]
InChI=InChI=1S/C29H30N4O8/c1-11-23(35)14-8-17-22-21-15(24(36)12(2)28(41-6)26(21)38)7-16(32(22)4)18(9-30)33(17)19(10-31-29(39)13(3)34)20(14)25(37)27(11)40-5/h16-19,22H,7-8,10H2,1-6H3,(H,31,39)/t16?,17-,18-,19-,22?/m0/s1
computed SMILES=N#CC1N2C(C=3C(=O)C(OC)=C(C(=O)C3CC2C4C=5C(=O)C(OC)=C(C(=O)C5CC1N4C)C)C)CNC(=O)C(=O)C
ionization energy=70 eV
accession=JP000145
date=2016.01.19 (Created 2008.10.21, modified 2011.05.06)
author=FUKUSHIMA K, INST. FOR CHEMOBIODYNAMICS, CHIBA UNIV.
license=CC BY-NC-SA
exact mass=562.20636
ion type=[M]+*
computed spectral entropy=4.348659154264947
computed normalized entropy=0.8557986812132483
SPLASH=splash10-0097-9340000000-eb43a27ba6d47e203212
submitter=submitter = University of Tokyo Team (Faculty of Engineering, University of Tokyo)
MoNA Rating=3.75

>  <NUM PEAKS>  (7368) 
161

>  <MASS SPECTRAL PEAKS>  (7368) 
14 1.75
15 9.46
16 15.21
19 17.13
20 10.52
25 1.06
26 6.75
27 51.19
28 70.29
29 15.66
30 5.44
31 22.08
32 13.22
35 1.01
36 10.11
38 1.79
39 11.91
40 3.08
41 37.07
42 9.76
43 14.67
44 78.6
45 11.2
46 7.86
50 6.16
51 5.75
52 2.3
53 4.97
54 4.14
55 20.18
56 17.85
57 10.93
58 4.1
59 7.73
60 3.52
63 4.82
64 1.49
65 7.77
67 6.02
68 4.16
69 6.91
70 3.43
71 3.81
72 2.09
73 4.56
74 3.76
75 2.05
76 5.65
77 8.82
78 4.49
79 7.14
80 1.41
81 4.92
82 2.9
83 6.01
84 2.21
87 5.8
89 3.67
90 3.43
91 5.77
92 3.22
93 5.72
94 2.78
95 4.24
98 2.43
99 2.79
100 1.93
101 5.29
102 3.33
103 3.79
104 8.14
105 7.95
106 2.26
107 2.94
109 1.79
110 1.61
115 3.48
116 3.69
117 7.52
118 2.71
119 2.39
120 1.08
121 3.23
122 1.68
123 1.13
128 2.09
129 4.16
130 2.99
131 8.23
132 3.53
133 1.28
143 2.3
144 3.66
145 3.28
146 2.49
147 3.2
148 1.54
149 99.99
150 9.27
153 1.25
156 2.92
157 2.6
158 2.09
159 2.53
160 4.22
161 2.71
162 1.19
163 2.27
167 1.19
171 1.53
172 1.75
173 2.52
174 2.35
175 2.24
176 7.5
177 1.19
181 1.86
185 2.26
186 4.62
187 2.64
188 4.38
189 2.55
190 5.65
191 1.66
192 2
199 1.77
200 3.3
201 4.8
202 3.13
203 9.82
204 13.5
205 15.02
206 4.32
213 1.66
214 1.74
215 3.97
216 7.82
218 28.01
219 9.4
220 89.94
221 17.83
222 2.03
223 8.62
227 1.46
228 1.41
229 4.72
230 1.41
242 5.58
243 50.92
244 13.07
245 6.35
259 11.83
260 9.64
278 3.86
343 1.06
460 2.16
462 11.27
463 4.75
464 7.53
465 1.69
562 1.4

$$$$

     RDKit          2D

 46 52  0  0  0  0  0  0  0  0999 V2000
    3.0000    4.3500    0.0000 C   0  0  0  0  0  0  0  0  0  0  0  0
   -6.1944    6.6023    0.0000 C   0  0  0  0  0  0  0  0  0  0  0  0
  -11.3634    0.5811    0.0000 C   0  0  0  0  0  0  0  0  0  0  0  0
  -10.0679   -4.6640    0.0000 C   0  0  0  0  0  0  0  0  0  0  0  0
   -4.8500   -1.6500    0.0000 C   0  0  0  0  0  0  0  0  0  0  0  0
   -3.5500   -2.4000    0.0000 C   0  0  0  0  0  0  0  0  0  0  0  0
   -4.8500   -0.1500    0.0000 C   0  0  0  0  0  0  0  0  0  0  0  0
    4.3000    2.1000    0.0000 C   0  0  0  0  0  0  0  0  0  0  0  0
    4.3000    0.6000    0.0000 C   0  0  0  0  0  0  0  0  0  0  0  0
    3.0000    2.8500    0.0000 C   0  0  0  0  0  0  0  0  0  0  0  0
   -6.1877    5.1023    0.0000 C   0  0  0  0  0  0  0  0  0  0  0  0
  -10.0640   -0.1683    0.0000 C   0  0  0  0  0  0  0  0  0  0  0  0
   -2.2000   -1.6500    0.0000 C   0  0  0  0  0  0  0  0  0  0  0  0
   -3.5500    0.6000    0.0000 C   0  0  0  0  0  0  0  0  0  0  0  0
    3.0000   -0.1500    0.0000 C   0  0  0  0  0  0  0  0  0  0  0  0
    1.7000    2.1000    0.0000 C   0  0  0  0  0  0  0  0  0  0  0  0
   -2.2000   -0.1500    0.0000 C   0  0  0  0  0  0  0  0  0  0  0  0
    1.7000    0.6000    0.0000 C   0  0  0  0  0  0  0  0  0  0  0  0
    0.4000   -0.1500    0.0000 C   0  0  0  0  0  0  0  0  0  0  0  0
    0.4000   -1.6500    0.0000 C   0  0  0  0  0  0  0  0  0  0  0  0
   -7.4746    4.3513    0.0000 C   0  0  0  0  0  0  0  0  0  0  0  0
  -10.0632   -1.6583    0.0000 C   0  0  0  0  0  0  0  0  0  0  0  0
   -0.9000   -2.4000    0.0000 C   0  0  0  0  0  0  0  0  0  0  0  0
   -7.4758    2.8455    0.0000 C   0  0  0  0  0  0  0  0  0  0  0  0
   -7.4432   -1.6568    0.0000 C   0  0  0  0  0  0  0  0  0  0  0  0
   -0.9000    0.6000    0.0000 C   0  0  0  0  0  0  0  0  0  0  0  0
   -8.7627   -2.4176    0.0000 C   0  0  0  0  0  0  0  0  0  0  0  0
   -6.1541    2.0884    0.0000 C   0  0  0  0  0  0  0  0  0  0  0  0
    0.4000    2.8500    0.0000 C   0  0  0  0  0  0  0  0  0  0  0  0
    1.7000   -2.4000    0.0000 C   0  0  0  0  0  0  0  0  0  0  0  0
   -7.4440   -0.1668    0.0000 C   0  0  0  0  0  0  0  0  0  0  0  0
   -4.8672    2.8394    0.0000 C   0  0  0  0  0  0  0  0  0  0  0  0
   -8.7751    5.0988    0.0000 O   0  0  0  0  0  0  0  0  0  0  0  0
  -11.3638   -2.4056    0.0000 O   0  0  0  0  0  0  0  0  0  0  0  0
   -0.9000   -3.9000    0.0000 O   0  0  0  0  0  0  0  0  0  0  0  0
   -8.7739    2.0938    0.0000 O   0  0  0  0  0  0  0  0  0  0  0  0
   -6.1441   -2.4068    0.0000 O   0  0  0  0  0  0  0  0  0  0  0  0
    0.4000    4.3500    0.0000 O   0  0  0  0  0  0  0  0  0  0  0  0
    1.7000   -3.9000    0.0000 O   0  0  0  0  0  0  0  0  0  0  0  0
   -8.7668   -3.9176    0.0000 O   0  0  0  0  0  0  0  0  0  0  0  0
   -8.7645    0.5824    0.0000 O   0  0  0  0  0  0  0  0  0  0  0  0
   -4.8847    4.3575    0.0000 O   0  0  0  0  0  0  0  0  0  0  0  0
    3.0000   -1.6500    0.0000 O   0  0  0  0  0  0  0  0  0  0  0  0
   -3.5621    2.1000    0.0000 O   0  0  0  0  0  0  0  0  0  0  0  0
   -0.9000    2.1000    0.0000 O   0  0  0  0  0  0  0  0  0  0  0  0
   -6.1480    0.5885    0.0000 O   0  0  0  0  0  0  0  0  0  0  0  0
  6  5  2  0
  7  5  1  0
  9  8  2  0
 10  1  1  0
 10  8  1  0
 11  2  1  0
 12  3  1  0
 13  6  1  0
 14  7  2  0
 15  9  1  0
 16 10  2  0
 17 13  2  0
 17 14  1  0
 18 15  2  0
 18 16  1  0
 19 18  1  0
 20 19  1  0
 21 11  1  0
 22 12  1  0
 23 13  1  0
 23 20  2  0
 24 21  1  0
 26 17  1  0
 26 19  2  0
 27 22  1  0
 27 25  1  0
 28 24  1  0
 29 16  1  0
 30 20  1  0
 31 25  1  0
 32 28  1  0
 33 21  1  0
 34 22  1  0
 35 23  1  0
 36 24  1  0
 37 25  1  0
 38 29  2  0
 39 30  2  0
 40  4  1  0
 40 27  1  0
 41 12  1  0
 41 31  1  0
 42 11  1  0
 42 32  1  0
 43 15  1  0
 43 30  1  0
 44 14  1  0
 44 32  1  0
 45 26  1  0
 45 29  1  0
 46 28  1  0
 46 31  1  0
M  END
>  <NAME>  (7369) 
CHARTREUSIN

>  <SYNONYMS>  (7369) 


>  <SPECTRUM TYPE>  (7369) 
MS1

>  <INSTRUMENT TYPE>  (7369) 
EI-B

>  <INSTRUMENT>  (7369) 
JEOL JMS-01-SG-2

>  <ION MODE>  (7369) 
P

>  <INCHIKEY>  (7369) 
PONPPNYZKHNPKZ-UHFFFAOYSA-N

>  <FORMULA>  (7369) 
C32H32O14

>  <EXACT MASS>  (7369) 
640.179205704

>  <MW>  (7369) 
640

>  <ID>  (7369) 
JP000142

>  <CONTRIBUTOR>  (7369) 
University of Tokyo Team, {Faculty of Engineering, University of Tokyo

>  <COMMENT>  (7369) 
SMILES=[H]C(O)(C(OC)7[H])C([H])(C)OC(C7([H])O)(OC([H])(C([H])(O)1)C(Oc(c25)cccc(c(O)c(c64)C(Oc(c36)ccc(c3C(=O)Oc45)C)=O)2)(OC([H])(C)C1([H])O)[H])[H]
InChI=InChI=1S/C32H32O14/c1-10-8-9-15-18-16(10)29(38)45-26-17-13(23(35)20(19(18)26)30(39)43-15)6-5-7-14(17)44-32-28(24(36)21(33)11(2)42-32)46-31-25(37)27(40-4)22(34)12(3)41-31/h5-9,11-12,21-22,24-25,27-28,31-37H,1-4H3
computed SMILES=O=C1OC2=CC=C(C=3C(=O)OC=4C=5C(OC6OC(C)C(O)C(O)C6OC7OC(C)C(O)C(OC)C7O)=CC=CC5C(O)=C1C4C23)C
accession=JP000142
date=2016.01.19 (Created 2008.10.21, modified 2011.05.06)
author=FUKUSHIMA K, INST. FOR CHEMOBIODYNAMICS, CHIBA UNIV.
license=CC BY-NC-SA
exact mass=640.17921
ionization energy=70 eV
ion type=[M]+*
computed spectral entropy=2.9039418783525845
computed normalized entropy=0.8103604105978834
SPLASH=splash10-001r-9207000000-c6a2934dedf127804e88
submitter=submitter = University of Tokyo Team (Faculty of Engineering, University of Tokyo)
MoNA Rating=3.75

>  <NUM PEAKS>  (7369) 
36

>  <MASS SPECTRAL PEAKS>  (7369) 
27 3.2
28 10.4
29 4.72
39 2.6
41 5.22
43 6.39
44 14.64
45 5.07
55 3.86
57 6.12
58 5.11
59 4.84
60 2.85
71 2.55
73 6.6
74 7.57
75 5.57
83 2.97
85 6.04
87 33.04
88 3.32
89 6.74
101 4.98
111 4.46
129 4.8
143 2.8
146 16.46
157 2.43
161 2.91
165 3.55
167 5.16
250 5.01
306 5.3
334 99.99
335 21.73
336 3.68

$$$$

     RDKit          2D

 28 32  0  0  0  0  0  0  0  0999 V2000
    1.0369    0.3559    0.0000 C   0  0  0  0  0  0  0  0  0  0  0  0
   -5.5903    1.9454    0.0000 C   0  0  0  0  0  0  0  0  0  0  0  0
   -0.2622    0.0859    0.0000 C   0  0  0  0  0  0  0  0  0  0  0  0
    1.0369    0.8359    0.0000 C   0  0  0  0  0  0  0  0  0  0  0  0
   -1.5612    0.8359    0.0000 C   0  0  0  0  0  0  0  0  0  0  0  0
    1.0369    2.3359    0.0000 C   0  0  0  0  0  0  0  0  0  0  0  0
   -4.1132    1.6845    0.0000 C   0  0  0  0  0  0  0  0  0  0  0  0
    1.0369    2.3359    0.0000 C   0  0  0  0  0  0  0  0  0  0  0  0
   -1.5612    2.3359    0.0000 C   0  0  0  0  0  0  0  0  0  0  0  0
   -0.2622    3.0859    0.0000 C   0  0  0  0  0  0  0  0  0  0  0  0
   -2.7036    2.1973    0.0000 C   0  0  0  0  0  0  0  0  0  0  0  0
    2.3359    3.0859    0.0000 C   0  0  0  0  0  0  0  0  0  0  0  0
    2.3359    3.0859    0.0000 C   0  0  0  0  0  0  0  0  0  0  0  0
   -0.2622    4.5859    0.0000 C   0  0  0  0  0  0  0  0  0  0  0  0
   -1.7394    3.3464    0.0000 C   0  0  0  0  0  0  0  0  0  0  0  0
   -0.2622    4.5859    0.0000 C   0  0  0  0  0  0  0  0  0  0  0  0
   -0.2622    3.0859    0.0000 C   0  0  0  0  0  0  0  0  0  0  0  0
    2.3359    4.5859    0.0000 C   0  0  0  0  0  0  0  0  0  0  0  0
    1.0369    5.3359    0.0000 C   0  0  0  0  0  0  0  0  0  0  0  0
   -2.8603    3.0859    0.0000 O   0  0  0  0  0  0  0  0  0  0  0  0
    3.6349    2.3359    0.0000 O   0  0  0  0  0  0  0  0  0  0  0  0
    4.0506    2.0959    0.0000 O   0  0  0  0  0  0  0  0  0  0  0  0
   -1.9769    5.5759    0.0000 O   0  0  0  0  0  0  0  0  0  0  0  0
   -2.2524    4.7559    0.0000 O   0  0  0  0  0  0  0  0  0  0  0  0
   -1.5612    5.3359    0.0000 O   0  0  0  0  0  0  0  0  0  0  0  0
   -0.7752    1.6764    0.0000 O   0  0  0  0  0  0  0  0  0  0  0  0
   -2.9639    0.7192    0.0000 O   0  0  0  0  0  0  0  0  0  0  0  0
    2.3359    6.0859    0.0000 O   0  0  0  0  0  0  0  0  0  0  0  0
  4  3  2  0
  5  3  1  0
  6  1  1  0
  7  2  1  0
  8  4  1  0
  9  5  2  0
 10  8  2  0
 10  9  1  0
 11  7  1  0
 12  6  1  0
 13  8  1  0
 14 10  1  0
 15 11  1  0
 17  6  1  0
 17 15  1  0
 17 16  1  0
 18 12  1  0
 18 13  1  0
 19 14  1  0
 19 16  1  0
 19 18  1  0
 20  9  1  0
 21 12  1  0
 22 13  2  0
 23 14  1  0
 24 15  2  0
 25 16  1  0
 26 17  1  0
 27  7  1  0
 27 11  1  0
 28 18  1  0
 28 19  1  0
M  END
>  <NAME>  (7370) 
CERVICARCIN

>  <SYNONYMS>  (7370) 


>  <SPECTRUM TYPE>  (7370) 
MS1

>  <INSTRUMENT TYPE>  (7370) 
EI-B

>  <INSTRUMENT>  (7370) 
JEOL JMS-01-SG-2

>  <ION MODE>  (7370) 
P

>  <INCHIKEY>  (7370) 
ZGZVMKCZHDIFQA-UHFFFAOYSA-N

>  <FORMULA>  (7370) 
C19H20O9

>  <EXACT MASS>  (7370) 
392.11073222

>  <MW>  (7370) 
392

>  <ID>  (7370) 
JP000138

>  <CONTRIBUTOR>  (7370) 
University of Tokyo Team, {Faculty of Engineering, University of Tokyo

>  <COMMENT>  (7370) 
SMILES=CC(O1)C1C(=O)C(O)(C(C)3)C(O)C(C(O)4)(O2)C(C(=O)c(c5)c(c(O)cc5)4)(C(O)3)2
InChI=InChI=1S/C19H20O9/c1-6-12(21)18-13(22)8-4-3-5-9(20)10(8)14(23)19(18,28-18)16(25)17(6,26)15(24)11-7(2)27-11/h3-7,11-12,14,16,20-21,23,25-26H,1-2H3
computed SMILES=O=C1C=2C=CC=C(O)C2C(O)C34OC14C(O)C(C)C(O)(C(=O)C5OC5C)C3O
accession=JP000138
date=2016.01.19 (Created 2008.10.21, modified 2011.05.06)
ionization energy=70 eV
ion type=[M]+*
computed spectral entropy=3.4154567080742013
author=FUKUSHIMA K, INST. FOR CHEMOBIODYNAMICS, CHIBA UNIV.
license=CC BY-NC-SA
exact mass=392.11073
computed normalized entropy=0.9458693857632201
SPLASH=splash10-00or-5491000000-1d27243c30d9b97928d6
submitter=submitter = University of Tokyo Team (Faculty of Engineering, University of Tokyo)
MoNA Rating=3.75

>  <NUM PEAKS>  (7370) 
37

>  <MASS SPECTRAL PEAKS>  (7370) 
27 17.51
28 11.69
29 36.3
39 20.59
41 19.96
43 30.87
44 27.97
58 11.41
65 12.48
69 38
91 11.06
111 10.84
121 14.77
147 16.12
173 11.72
175 99.99
176 21.43
187 34.54
203 25.08
204 64.31
205 10.93
213 17.82
214 11.12
215 25.36
226 10.93
242 10.65
243 36.78
254 27.34
255 12.92
265 37.5
270 11.66
271 43.38
272 14.9
289 28.7
306 16.31
322 13.64
392 22.28

$$$$

     RDKit          2D

  9 10  0  0  1  0  0  0  0  0999 V2000
   -2.3100   -0.7500    0.0000 C   0  0  0  0  0  0  0  0  0  0  0  0
   -2.3100    0.7500    0.0000 C   0  0  0  0  0  0  0  0  0  0  0  0
    2.6000    0.0000    0.0000 C   0  0  0  0  0  0  0  0  0  0  0  0
   -1.0100   -1.5000    0.0000 C   0  0  0  0  0  0  0  0  0  0  0  0
   -1.0100    1.5000    0.0000 C   0  0  0  0  0  0  0  0  0  0  0  0
    1.7200   -1.2100    0.0000 C   0  0  0  0  0  0  0  0  0  0  0  0
    1.7200    1.2100    0.0000 C   0  0  0  0  0  0  0  0  0  0  0  0
    0.2900   -0.7500    0.0000 C   0  0  0  0  0  0  0  0  0  0  0  0
    0.2900    0.7500    0.0000 C   0  0  0  0  0  0  0  0  0  0  0  0
  2  1  1  0
  4  1  1  0
  5  2  1  0
  6  3  1  0
  7  3  1  0
  8  4  1  6
  8  6  1  0
  9  5  1  6
  9  7  1  0
  9  8  1  0
M  END
>  <NAME>  (7371) 
CIS-BICYCLO(4.3.0)NONANE

>  <SYNONYMS>  (7371) 
CIS-HEXAHYDROINDANE

>  <SPECTRUM TYPE>  (7371) 
MS1

>  <INSTRUMENT TYPE>  (7371) 
EI-B

>  <INSTRUMENT>  (7371) 
HITACHI M-80

>  <ION MODE>  (7371) 
P

>  <INCHIKEY>  (7371) 
BNRNAKTVFSZAFA-DTORHVGOSA-N

>  <FORMULA>  (7371) 
C9H16

>  <EXACT MASS>  (7371) 
124.12520051199999

>  <MW>  (7371) 
124

>  <ID>  (7371) 
JP000135

>  <CONTRIBUTOR>  (7371) 
University of Tokyo Team, {Faculty of Engineering, University of Tokyo

>  <COMMENT>  (7371) 
SMILES=[H]C(C2)(C1)C([H])(CCC2)CC1
InChI=InChI=1S/C9H16/c1-2-5-9-7-3-6-8(9)4-1/h8-9H,1-7H2/t8-,9+
computed SMILES=C1CCC2CCCC2C1
accession=JP000135
date=2016.01.19 (Created 2008.10.21, modified 2011.05.06)
author=YAMAMOTO M, DEP. CHEMISTRY, FAC. SCIENCE, NARA WOMEN'S UNIV.
license=CC BY-NC-SA
exact mass=124.1252
ionization energy=70 eV
ion type=[M]+*
computed spectral entropy=2.9912833036523834
computed normalized entropy=0.8413475282640173
SPLASH=splash10-00lr-9000000000-41580a0ab58b3e14b629
submitter=submitter = University of Tokyo Team (Faculty of Engineering, University of Tokyo)
MoNA Rating=3.75

>  <NUM PEAKS>  (7371) 
35

>  <MASS SPECTRAL PEAKS>  (7371) 
26 2.51
27 36.8
28 47.84
29 27.85
31 2.85
32 8.72
39 46.95
40 9.38
41 61.9
42 7.34
43 4.95
44 4.64
51 5.8
52 2.36
53 17.68
54 37.69
55 36.51
56 3.13
65 4.32
66 13.07
67 99.6
68 36.34
69 6.47
77 5.41
79 11.42
80 4.19
81 99.99
82 95.69
83 9.12
91 1.36
95 23.54
96 79.93
97 6.61
124 22.39
125 2.29

$$$$

     RDKit          2D

  9 10  0  0  1  0  0  0  0  0999 V2000
   -2.3100   -0.7500    0.0000 C   0  0  0  0  0  0  0  0  0  0  0  0
   -2.3100    0.7500    0.0000 C   0  0  0  0  0  0  0  0  0  0  0  0
    2.6000    0.0000    0.0000 C   0  0  0  0  0  0  0  0  0  0  0  0
   -1.0100   -1.5000    0.0000 C   0  0  0  0  0  0  0  0  0  0  0  0
   -1.0100    1.5000    0.0000 C   0  0  0  0  0  0  0  0  0  0  0  0
    1.7200   -1.2100    0.0000 C   0  0  0  0  0  0  0  0  0  0  0  0
    1.7200    1.2100    0.0000 C   0  0  0  0  0  0  0  0  0  0  0  0
    0.2900   -0.7500    0.0000 C   0  0  0  0  0  0  0  0  0  0  0  0
    0.2900    0.7500    0.0000 C   0  0  0  0  0  0  0  0  0  0  0  0
  2  1  1  0
  4  1  1  0
  5  2  1  0
  6  3  1  0
  7  3  1  0
  8  4  1  1
  8  6  1  0
  9  5  1  6
  9  7  1  0
  9  8  1  0
M  END
>  <NAME>  (7372) 
TRANS-BICYCLO(4.3.0)NONANE

>  <SYNONYMS>  (7372) 
TRANS-HEXAHYDROINDANE

>  <SPECTRUM TYPE>  (7372) 
MS1

>  <INSTRUMENT TYPE>  (7372) 
EI-B

>  <INSTRUMENT>  (7372) 
HITACHI M-80

>  <ION MODE>  (7372) 
P

>  <INCHIKEY>  (7372) 
BNRNAKTVFSZAFA-RKDXNWHRSA-N

>  <FORMULA>  (7372) 
C9H16

>  <EXACT MASS>  (7372) 
124.12520051199999

>  <MW>  (7372) 
124

>  <ID>  (7372) 
JP000134

>  <CONTRIBUTOR>  (7372) 
University of Tokyo Team, {Faculty of Engineering, University of Tokyo

>  <COMMENT>  (7372) 
SMILES=[H]C(C2)(C1)C([H])(CCC2)CC1
InChI=InChI=1S/C9H16/c1-2-5-9-7-3-6-8(9)4-1/h8-9H,1-7H2/t8-,9-/m1/s1
computed SMILES=C1CCC2CCCC2C1
accession=JP000134
date=2016.01.19 (Created 2008.10.21, modified 2011.05.06)
author=YAMAMOTO M, DEP. CHEMISTRY, FAC. SCIENCE, NARA WOMEN'S UNIV.
license=CC BY-NC-SA
exact mass=124.1252
ionization energy=70 eV
ion type=[M]+*
computed spectral entropy=2.975744570572306
computed normalized entropy=0.830397333369291
SPLASH=splash10-0159-9000000000-652e08d2ceb6dd587a80
submitter=submitter = University of Tokyo Team (Faculty of Engineering, University of Tokyo)
MoNA Rating=3.75

>  <NUM PEAKS>  (7372) 
36

>  <MASS SPECTRAL PEAKS>  (7372) 
26 2.03
27 32.86
28 21.99
29 21.92
32 3.13
38 1.34
39 40.93
40 5.97
41 51.62
42 5.19
43 2.6
50 1.57
51 3.76
52 2.21
53 13.64
54 25.41
55 29.94
56 1.8
65 3.93
66 19.42
67 99.99
68 26.05
69 4.74
77 3.67
79 6.21
80 2.6
81 37.09
82 46.38
83 5.45
91 1.28
94 1.01
95 11.79
96 40.16
97 2.92
124 14.28
125 1.3

$$$$

     RDKit          2D

 11 12  0  0  1  0  0  0  0  0999 V2000
   -2.9500   -0.8900    0.0000 C   0  0  0  0  0  0  0  0  0  0  0  0
   -2.9500    0.6100    0.0000 C   0  0  0  0  0  0  0  0  0  0  0  0
   -1.6500   -1.6400    0.0000 C   0  0  0  0  0  0  0  0  0  0  0  0
   -1.6500    1.3600    0.0000 C   0  0  0  0  0  0  0  0  0  0  0  0
    0.9400   -1.6400    0.0000 C   0  0  0  0  0  0  0  0  0  0  0  0
    2.2400   -0.8900    0.0000 C   0  0  0  0  0  0  0  0  0  0  0  0
    0.9400    1.3600    0.0000 C   0  0  0  0  0  0  0  0  0  0  0  0
   -0.3500   -0.8900    0.0000 C   0  0  0  0  0  0  0  0  0  0  0  0
   -0.3500    0.6100    0.0000 C   0  0  0  0  0  0  0  0  0  0  0  0
    2.2400    0.6100    0.0000 C   0  0  0  0  0  0  0  0  0  0  0  0
    3.5389    1.3602    0.0000 O   0  0  0  0  0  0  0  0  0  0  0  0
  2  1  1  0
  3  1  1  0
  4  2  1  0
  6  5  1  0
  8  3  1  1
  8  5  1  0
  9  4  1  1
  9  7  1  0
  9  8  1  0
 10  6  1  0
 10  7  1  0
 11 10  2  0
M  END
>  <NAME>  (7373) 
CIS-BICYCLO(4.4.0)DECANE-2-ONE

>  <SYNONYMS>  (7373) 
CIS-DECAHYDRO-2-NAPHTHALENONE

>  <SPECTRUM TYPE>  (7373) 
MS1

>  <INSTRUMENT TYPE>  (7373) 
EI-B

>  <INSTRUMENT>  (7373) 
HITACHI RMU-6M

>  <ION MODE>  (7373) 
P

>  <INCHIKEY>  (7373) 
LGVJRKCQQHOWAU-BDAKNGLRSA-N

>  <FORMULA>  (7373) 
C10H16O

>  <EXACT MASS>  (7373) 
152.120115132

>  <MW>  (7373) 
152

>  <ID>  (7373) 
JP000133

>  <CONTRIBUTOR>  (7373) 
University of Tokyo Team, {Faculty of Engineering, University of Tokyo

>  <COMMENT>  (7373) 
SMILES=C1CC[C@H]2CC(=O)CC[C@H]2C1
InChI=InChI=1S/C10H16O/c11-10-6-5-8-3-1-2-4-9(8)7-10/h8-9H,1-7H2/t8-,9+/m1/s1
computed SMILES=O=C1CCC2CCCCC2C1
accession=JP000133
date=2016.01.19 (Created 2008.10.21, modified 2011.05.06)
author=YAMAMOTO M, DEP. CHEMISTRY, FAC. SCIENCE, NARA WOMEN'S UNIV.
license=CC BY-NC-SA
exact mass=152.12012
ionization energy=70 eV
ion type=[M]+*
computed spectral entropy=3.410423070627036
computed normalized entropy=0.8110992596460055
SPLASH=splash10-0pbc-9200000000-5e204815478f91be57a6
submitter=submitter = University of Tokyo Team (Faculty of Engineering, University of Tokyo)
MoNA Rating=3.75

>  <NUM PEAKS>  (7373) 
67

>  <MASS SPECTRAL PEAKS>  (7373) 
26 2.8
27 41.1
28 12.7
29 2.59
31 1.5
38 2.5
39 56.3
40 1.14
41 83
42 9.8
43 8.3
44 0.16
50 2.9
51 8.7
52 5.4
53 3.13
54 39.3
55 99.99
56 8.7
57 0.59
58 1.3
63 2.6
65 9
66 0.94
67 77.7
68 36.6
69 17
70 1.7
71 10.3
72 1
77 10.2
78 0.85
79 38.4
80 15.2
81 92
82 3.75
83 16.1
84 4
85 1.1
91 0.72
92 5.4
93 21.4
94 51.8
95 6.43
96 38.4
97 34.8
98 5.1
105 0.45
106 3.7
107 8.1
108 93.8
109 3.13
110 21.4
111 3
119 5.7
121 0.93
122 1.4
123 12.7
124 5.4
134 1.16
135 2.7
136 28.6
137 7.9
151 0.21
152 78.6
153 9.7
154 1

$$$$

     RDKit          2D

 11 12  0  0  1  0  0  0  0  0999 V2000
   -2.7200   -1.0200    0.0000 C   0  0  0  0  0  0  0  0  0  0  0  0
   -2.7200    0.4800    0.0000 C   0  0  0  0  0  0  0  0  0  0  0  0
    2.4800   -1.0200    0.0000 C   0  0  0  0  0  0  0  0  0  0  0  0
   -1.4200   -1.7700    0.0000 C   0  0  0  0  0  0  0  0  0  0  0  0
    1.1800   -1.7700    0.0000 C   0  0  0  0  0  0  0  0  0  0  0  0
   -1.4200    1.2300    0.0000 C   0  0  0  0  0  0  0  0  0  0  0  0
    2.4800    0.4800    0.0000 C   0  0  0  0  0  0  0  0  0  0  0  0
   -0.1200   -1.0200    0.0000 C   0  0  0  0  0  0  0  0  0  0  0  0
   -0.1200    0.4800    0.0000 C   0  0  0  0  0  0  0  0  0  0  0  0
    1.1800    1.2300    0.0000 C   0  0  0  0  0  0  0  0  0  0  0  0
    1.1800    2.7300    0.0000 O   0  0  0  0  0  0  0  0  0  0  0  0
  2  1  1  0
  4  1  1  0
  5  3  1  0
  6  2  1  0
  7  3  1  0
  8  4  1  6
  8  5  1  0
  9  6  1  1
  9  8  1  0
 10  7  1  0
 10  9  1  0
 11 10  2  0
M  END
>  <NAME>  (7374) 
TRANS-BICYCLO(4.4.0)DECANE-2-ONE

>  <SYNONYMS>  (7374) 
TRANS-DECAHYDRO-2-NAPHTHALENONE

>  <SPECTRUM TYPE>  (7374) 
MS1

>  <INSTRUMENT TYPE>  (7374) 
EI-B

>  <INSTRUMENT>  (7374) 
HITACHI RMU-6M

>  <ION MODE>  (7374) 
P

>  <INCHIKEY>  (7374) 
AFEFRXAPJRCTOW-DTWKUNHWSA-N

>  <FORMULA>  (7374) 
C10H16O

>  <EXACT MASS>  (7374) 
152.120115132

>  <MW>  (7374) 
152

>  <ID>  (7374) 
JP000132

>  <CONTRIBUTOR>  (7374) 
University of Tokyo Team, {Faculty of Engineering, University of Tokyo

>  <COMMENT>  (7374) 
SMILES=O=C(C1)C([H])(C2)C([H])(CCC2)CC1
InChI=InChI=1S/C10H16O/c11-10-7-3-5-8-4-1-2-6-9(8)10/h8-9H,1-7H2/t8-,9+/m0/s1
computed SMILES=O=C1CCCC2CCCCC12
accession=JP000132
date=2016.01.19 (Created 2008.10.21, modified 2011.05.06)
author=YAMAMOTO M, DEP. CHEMISTRY, FAC. SCIENCE, NARA WOMEN'S UNIV.
license=CC BY-NC-SA
exact mass=152.12012
ionization energy=70 eV
ion type=[M]+*
computed spectral entropy=3.3784068071021838
computed normalized entropy=0.803484847268463
SPLASH=splash10-0pb9-9300000000-38bba15f9e46ba8ef4be
submitter=submitter = University of Tokyo Team (Faculty of Engineering, University of Tokyo)
MoNA Rating=3.75

>  <NUM PEAKS>  (7374) 
67

>  <MASS SPECTRAL PEAKS>  (7374) 
26 2.7
27 36.8
28 13.3
29 1.86
32 4.4
38 2.3
39 48.1
40 0.91
41 67.7
42 8.9
43 7
44 0.36
47 1.1
50 2.5
51 7.4
52 0.49
53 24.5
54 30.2
55 83.5
56 0.65
57 3.8
62 1.1
63 2.3
65 0.65
66 6.7
67 66.9
68 29.1
69 1.18
70 11
71 7
77 8.9
78 0.74
79 26.6
80 10.5
81 84.2
82 3.46
83 10.1
84 3
91 6.1
92 0.44
93 17.7
94 13.7
95 45.1
96 4.06
97 25.5
98 3.6
105 4.4
106 0.42
107 3
108 99.99
109 24.9
110 4.14
111 3.8
119 7
120 1.1
121 0.19
123 14.3
124 6.7
133 1.5
134 1.31
135 2.1
136 3.8
137 7.2
138 0.13
151 3.4
152 72.9
153 8.2

$$$$

     RDKit          2D

 10 11  0  0  0  0  0  0  0  0999 V2000
   -2.6000   -0.7500    0.0000 C   0  0  0  0  0  0  0  0  0  0  0  0
   -2.6000    0.7500    0.0000 C   0  0  0  0  0  0  0  0  0  0  0  0
    2.6000   -0.7500    0.0000 C   0  0  0  0  0  0  0  0  0  0  0  0
    2.6000    0.7500    0.0000 C   0  0  0  0  0  0  0  0  0  0  0  0
   -1.3000   -1.5000    0.0000 C   0  0  0  0  0  0  0  0  0  0  0  0
   -1.3000    1.5000    0.0000 C   0  0  0  0  0  0  0  0  0  0  0  0
    1.3000   -1.5000    0.0000 C   0  0  0  0  0  0  0  0  0  0  0  0
    1.3000    1.5000    0.0000 C   0  0  0  0  0  0  0  0  0  0  0  0
    0.0000   -0.7500    0.0000 C   0  0  0  0  0  0  0  0  0  0  0  0
    0.0000    0.7500    0.0000 C   0  0  0  0  0  0  0  0  0  0  0  0
  2  1  1  0
  4  3  1  0
  5  1  1  0
  6  2  1  0
  7  3  1  0
  8  4  1  0
  9  5  1  0
  9  7  1  0
 10  6  1  0
 10  8  1  0
 10  9  1  0
M  END
>  <NAME>  (7375) 
CIS-BICYCLO(4.4.0)DECANE

>  <SYNONYMS>  (7375) 
CIS-DECALINE

>  <SPECTRUM TYPE>  (7375) 
MS1

>  <INSTRUMENT TYPE>  (7375) 
EI-B

>  <INSTRUMENT>  (7375) 
HITACHI RMU-6M

>  <ION MODE>  (7375) 
P

>  <INCHIKEY>  (7375) 
NNBZCPXTIHJBJL-UHFFFAOYSA-N

>  <FORMULA>  (7375) 
C10H18

>  <EXACT MASS>  (7375) 
138.140850576

>  <MW>  (7375) 
138

>  <ID>  (7375) 
JP000131

>  <CONTRIBUTOR>  (7375) 
University of Tokyo Team, {Faculty of Engineering, University of Tokyo

>  <COMMENT>  (7375) 
SMILES=[H]C(C2)(C1)C([H])(CCC2)CCC1
InChI=InChI=1S/C10H18/c1-2-6-10-8-4-3-7-9(10)5-1/h9-10H,1-8H2
computed SMILES=C1CCC2CCCCC2C1
accession=JP000131
date=2016.01.19 (Created 2008.10.21, modified 2011.05.06)
author=YAMAMOTO M, DEP. CHEMISTRY, FAC. SCIENCE, NARA WOMEN'S UNIV.
license=CC BY-NC-SA
exact mass=138.14085
ionization energy=70 eV
ion type=[M]+*
computed spectral entropy=2.7861156593273573
computed normalized entropy=0.7604937294478822
SPLASH=splash10-00ls-9100000000-9d370f3f1da6a5871fbb
submitter=submitter = University of Tokyo Team (Faculty of Engineering, University of Tokyo)
MoNA Rating=3.75

>  <NUM PEAKS>  (7375) 
39

>  <MASS SPECTRAL PEAKS>  (7375) 
27 14.3
28 3.6
29 14.3
39 2.62
40 4.8
41 50
42 4.8
43 0.48
51 3
52 2.2
53 14.3
54 2.02
55 36.9
56 3
57 1.3
65 0.48
66 6
67 99.99
68 35.7
69 1.9
70 2.2
77 7.1
78 1.6
79 1.31
80 7.1
81 92.9
82 64.3
83 1.19
91 3
93 3.8
94 2.7
95 5.12
96 89.3
97 10.7
109 31
110 0.95
123 1.1
138 64.3
139 7.1

$$$$

     RDKit          2D

 10 11  0  0  1  0  0  0  0  0999 V2000
   -2.6000   -0.7500    0.0000 C   0  0  0  0  0  0  0  0  0  0  0  0
   -2.6000    0.7500    0.0000 C   0  0  0  0  0  0  0  0  0  0  0  0
    2.6000   -0.7500    0.0000 C   0  0  0  0  0  0  0  0  0  0  0  0
    2.6000    0.7500    0.0000 C   0  0  0  0  0  0  0  0  0  0  0  0
   -1.3000   -1.5000    0.0000 C   0  0  0  0  0  0  0  0  0  0  0  0
   -1.3000    1.5000    0.0000 C   0  0  0  0  0  0  0  0  0  0  0  0
    1.3000   -1.5000    0.0000 C   0  0  0  0  0  0  0  0  0  0  0  0
    1.3000    1.5000    0.0000 C   0  0  0  0  0  0  0  0  0  0  0  0
    0.0000   -0.7500    0.0000 C   0  0  0  0  0  0  0  0  0  0  0  0
    0.0000    0.7500    0.0000 C   0  0  0  0  0  0  0  0  0  0  0  0
  2  1  1  0
  4  3  1  0
  5  1  1  0
  6  2  1  0
  7  3  1  0
  8  4  1  0
  9  5  1  6
  9  7  1  0
 10  6  1  1
 10  8  1  0
 10  9  1  0
M  END
>  <NAME>  (7376) 
TRANS-BICYCLO(4.4.0)DECANE

>  <SYNONYMS>  (7376) 
TRANS-DECALINE

>  <SPECTRUM TYPE>  (7376) 
MS1

>  <INSTRUMENT TYPE>  (7376) 
EI-B

>  <INSTRUMENT>  (7376) 
HITACHI RMU-6M

>  <ION MODE>  (7376) 
P

>  <INCHIKEY>  (7376) 
NNBZCPXTIHJBJL-MGCOHNPYSA-N

>  <FORMULA>  (7376) 
C10H18

>  <EXACT MASS>  (7376) 
138.140850576

>  <MW>  (7376) 
138

>  <ID>  (7376) 
JP000130

>  <CONTRIBUTOR>  (7376) 
University of Tokyo Team, {Faculty of Engineering, University of Tokyo

>  <COMMENT>  (7376) 
SMILES=[H]C(C2)(C1)C([H])(CCC2)CCC1
InChI=InChI=1S/C10H18/c1-2-6-10-8-4-3-7-9(10)5-1/h9-10H,1-8H2/t9-,10-
computed SMILES=C1CCC2CCCCC2C1
ionization energy=70 eV
accession=JP000130
date=2016.01.19 (Created 2008.10.21, modified 2011.05.06)
author=YAMAMOTO M, DEP. CHEMISTRY, FAC. SCIENCE, NARA WOMEN'S UNIV.
license=CC BY-NC-SA
exact mass=138.14085
ion type=[M]+*
computed spectral entropy=2.7143539466694313
computed normalized entropy=0.8235704790692957
SPLASH=splash10-015a-9100000000-3e8883b78f1decf47194
submitter=submitter = University of Tokyo Team (Faculty of Engineering, University of Tokyo)
MoNA Rating=3.75

>  <NUM PEAKS>  (7376) 
27

>  <MASS SPECTRAL PEAKS>  (7376) 
27 13.8
28 5.4
29 13.1
39 2.46
40 3.8
41 56.2
42 5.4
43 0.46
53 15.4
54 18.5
55 36.7
66 1
67 99.99
68 88.5
69 46.2
79 1.23
80 6.2
81 66.9
82 73.8
83 1.54
95 68.5
96 71.5
97 9.2
109 2
110 9.2
138 91.5
139 10

$$$$

     RDKit          2D

 14 14  0  0  1  0  0  0  0  0999 V2000
    3.5006   -2.2332    0.0000 C   0  0  0  0  0  0  0  0  0  0  0  0
   -2.2701    4.3159    0.0000 C   0  0  0  0  0  0  0  0  0  0  0  0
   -4.3218    3.7770    0.0000 C   0  0  0  0  0  0  0  0  0  0  0  0
   -3.7829    1.7253    0.0000 C   0  0  0  0  0  0  0  0  0  0  0  0
   -0.4321    3.0142    0.0000 C   0  0  0  0  0  0  0  0  0  0  0  0
   -1.7457    0.7894    0.0000 C   0  0  0  0  0  0  0  0  0  0  0  0
    0.8524    2.2894    0.0000 C   0  0  0  0  0  0  0  0  0  0  0  0
   -0.4211   -0.0048    0.0000 C   0  0  0  0  0  0  0  0  0  0  0  0
    2.1955   -1.4940    0.0000 C   0  0  0  0  0  0  0  0  0  0  0  0
   -1.7311    2.2642    0.0000 C   0  0  0  0  0  0  0  0  0  0  0  0
    0.8779    0.7452    0.0000 C   0  0  0  0  0  0  0  0  0  0  0  0
   -3.0265    3.0206    0.0000 C   0  0  0  0  0  0  0  0  0  0  0  0
    0.9027   -2.2547    0.0000 O   0  0  0  0  0  0  0  0  0  0  0  0
    2.1831    0.0060    0.0000 O   0  0  0  0  0  0  0  0  0  0  0  0
  7  5  1  0
  8  6  1  0
  9  1  1  0
 10  5  1  0
 10  6  1  0
 11  7  1  0
 11  8  1  0
 12  2  1  0
 12  3  1  0
 12  4  1  0
 10 12  1  1
 13  9  2  0
 14  9  1  0
 11 14  1  6
M  END
>  <NAME>  (7377) 
P-T-BUTYLCYCLOHEXYL ACETATE (TRANS)

>  <SYNONYMS>  (7377) 


>  <SPECTRUM TYPE>  (7377) 
MS1

>  <INSTRUMENT TYPE>  (7377) 
EI-B

>  <INSTRUMENT>  (7377) 
HITACHI RMU-6M

>  <ION MODE>  (7377) 
P

>  <INCHIKEY>  (7377) 
MBZRJSQZCBXRGK-XYPYZODXSA-N

>  <FORMULA>  (7377) 
C12H22O2

>  <EXACT MASS>  (7377) 
198.161979944

>  <MW>  (7377) 
198

>  <ID>  (7377) 
JP000129

>  <CONTRIBUTOR>  (7377) 
University of Tokyo Team, {Faculty of Engineering, University of Tokyo

>  <COMMENT>  (7377) 
SMILES=CC(=O)OC([H])(C1)CCC([H])(C1)C(C)(C)C
InChI=InChI=1S/C12H22O2/c1-9(13)14-11-7-5-10(6-8-11)12(2,3)4/h10-11H,5-8H2,1-4H3/t10-,11-
computed SMILES=O=C(OC1CCC(CC1)C(C)(C)C)C
accession=JP000129
date=2016.01.19 (Created 2008.10.21, modified 2011.05.06)
author=YAMAMOTO M, DEP. CHEMISTRY, FAC. SCIENCE, NARA WOMEN'S UNIV.
license=CC BY-NC-SA
exact mass=198.16198
ionization energy=70 eV
ion type=[M]+*
computed spectral entropy=3.052717186100338
computed normalized entropy=0.7973369323383779
SPLASH=splash10-0a59-9000000000-e765166eaf26521b1f04
submitter=submitter = University of Tokyo Team (Faculty of Engineering, University of Tokyo)
MoNA Rating=3.75

>  <NUM PEAKS>  (7377) 
46

>  <MASS SPECTRAL PEAKS>  (7377) 
14 1
15 10.9
27 11.9
28 12.3
29 24.3
39 12.8
40 2.5
42 3.7
43 68.1
44 2.5
51 1.3
53 6.7
54 8.4
55 19.6
56 27.4
57 99.99
58 4.7
61 16.8
65 1.8
66 1.5
67 39.3
68 4
69 7.3
70 2
77 2.3
79 6.7
80 27.3
81 26.9
82 41.1
83 14.7
84 1.8
91 1.2
93 1.1
94 1.2
95 4.9
96 2.3
97 1.7
99 1.3
111 1.1
124 11.9
125 1.2
139 6.8
140 1.3
142 1.3
143 1.4
144 1.4

$$$$

     RDKit          2D

 14 14  0  0  1  0  0  0  0  0999 V2000
    3.5006   -2.2332    0.0000 C   0  0  0  0  0  0  0  0  0  0  0  0
   -2.2701    4.3159    0.0000 C   0  0  0  0  0  0  0  0  0  0  0  0
   -4.3218    3.7770    0.0000 C   0  0  0  0  0  0  0  0  0  0  0  0
   -3.7829    1.7253    0.0000 C   0  0  0  0  0  0  0  0  0  0  0  0
   -0.4321    3.0142    0.0000 C   0  0  0  0  0  0  0  0  0  0  0  0
   -1.7457    0.7894    0.0000 C   0  0  0  0  0  0  0  0  0  0  0  0
    0.8524    2.2894    0.0000 C   0  0  0  0  0  0  0  0  0  0  0  0
   -0.4211   -0.0048    0.0000 C   0  0  0  0  0  0  0  0  0  0  0  0
    2.1955   -1.4940    0.0000 C   0  0  0  0  0  0  0  0  0  0  0  0
   -1.7311    2.2642    0.0000 C   0  0  0  0  0  0  0  0  0  0  0  0
    0.8779    0.7452    0.0000 C   0  0  0  0  0  0  0  0  0  0  0  0
   -3.0265    3.0206    0.0000 C   0  0  0  0  0  0  0  0  0  0  0  0
    0.9027   -2.2547    0.0000 O   0  0  0  0  0  0  0  0  0  0  0  0
    2.1831    0.0060    0.0000 O   0  0  0  0  0  0  0  0  0  0  0  0
  7  5  1  0
  8  6  1  0
  9  1  1  0
 10  5  1  0
 10  6  1  0
 11  7  1  0
 11  8  1  0
 12  2  1  0
 12  3  1  0
 12  4  1  0
 10 12  1  1
 13  9  2  0
 14  9  1  0
 11 14  1  1
M  END
>  <NAME>  (7378) 
P-T-BUTYLCYCLOHEXYL ACETATE (CIS)

>  <SYNONYMS>  (7378) 


>  <SPECTRUM TYPE>  (7378) 
MS1

>  <INSTRUMENT TYPE>  (7378) 
EI-B

>  <INSTRUMENT>  (7378) 
HITACHI RMU-6M

>  <ION MODE>  (7378) 
P

>  <INCHIKEY>  (7378) 
MBZRJSQZCBXRGK-PHIMTYICSA-N

>  <FORMULA>  (7378) 
C12H22O2

>  <EXACT MASS>  (7378) 
198.161979944

>  <MW>  (7378) 
198

>  <ID>  (7378) 
JP000128

>  <CONTRIBUTOR>  (7378) 
University of Tokyo Team, {Faculty of Engineering, University of Tokyo

>  <COMMENT>  (7378) 
SMILES=CC(=O)OC([H])(C1)CCC([H])(C1)C(C)(C)C
InChI=InChI=1S/C12H22O2/c1-9(13)14-11-7-5-10(6-8-11)12(2,3)4/h10-11H,5-8H2,1-4H3/t10-,11+
computed SMILES=O=C(OC1CCC(CC1)C(C)(C)C)C
accession=JP000128
date=2016.01.19 (Created 2008.10.21, modified 2011.05.06)
author=YAMAMOTO M, DEP. CHEMISTRY, FAC. SCIENCE, NARA WOMEN'S UNIV.
license=CC BY-NC-SA
exact mass=198.16198
ionization energy=70 eV
ion type=[M]+*
computed spectral entropy=3.186400297211691
computed normalized entropy=0.8025607100413172
SPLASH=splash10-053u-9000000000-77141ba7158f426ba7eb
submitter=submitter = University of Tokyo Team (Faculty of Engineering, University of Tokyo)
MoNA Rating=3.75

>  <NUM PEAKS>  (7378) 
53

>  <MASS SPECTRAL PEAKS>  (7378) 
15 11.1
27 13.7
28 3.1
29 31.9
39 15.5
40 3
41 70.4
42 5.1
43 99.99
44 3.1
51 1.9
52 1.1
53 9.4
54 14.2
55 27
56 57.7
57 93.6
58 8.2
61 40.8
62 1
65 2.3
66 2.2
67 70.7
68 6.5
69 12.1
70 2.7
71 1.5
77 3.4
78 1.2
79 11.1
80 69.3
81 51.7
82 80.6
83 38.5
84 3.6
91 1.5
93 1.3
94 1.9
95 8.3
96 3.6
97 2.4
98 1
99 3.3
107 1.1
109 1.6
110 2
117 3.7
123 24.3
124 3.3
138 27.1
139 5.2
142 3.1
143 6.1

$$$$

     RDKit          2D

 14 14  0  0  1  0  0  0  0  0999 V2000
   -1.9498    2.7991    0.0000 C   0  0  0  0  0  0  0  0  0  0  0  0
   -1.4013   -1.1526    0.0000 C   0  0  0  0  0  0  0  0  0  0  0  0
   -1.9500   -3.2017    0.0000 C   0  0  0  0  0  0  0  0  0  0  0  0
    0.0991   -3.7504    0.0000 C   0  0  0  0  0  0  0  0  0  0  0  0
    3.2478   -1.7013    0.0000 C   0  0  0  0  0  0  0  0  0  0  0  0
    3.2478   -0.2013    0.0000 C   0  0  0  0  0  0  0  0  0  0  0  0
    1.9478   -2.4513    0.0000 C   0  0  0  0  0  0  0  0  0  0  0  0
    1.9478    0.5487    0.0000 C   0  0  0  0  0  0  0  0  0  0  0  0
   -0.6508    2.0489    0.0000 C   0  0  0  0  0  0  0  0  0  0  0  0
    0.6478   -1.7013    0.0000 C   0  0  0  0  0  0  0  0  0  0  0  0
    0.6478   -0.2013    0.0000 C   0  0  0  0  0  0  0  0  0  0  0  0
   -0.6511   -2.4515    0.0000 C   0  0  0  0  0  0  0  0  0  0  0  0
    0.6483    2.7987    0.0000 O   0  0  0  0  0  0  0  0  0  0  0  0
   -0.6511    0.5489    0.0000 O   0  0  0  0  0  0  0  0  0  0  0  0
  6  5  1  0
  7  5  1  0
  8  6  1  0
  9  1  1  0
 10  7  1  0
 11  8  1  0
 11 10  1  0
 12  2  1  0
 12  3  1  0
 12  4  1  0
 10 12  1  1
 13  9  2  0
 14  9  1  0
 11 14  1  6
M  END
>  <NAME>  (7379) 
O-T-BUTYLCYCLOHEXYL ACETATE (TRANS)

>  <SYNONYMS>  (7379) 


>  <SPECTRUM TYPE>  (7379) 
MS1

>  <INSTRUMENT TYPE>  (7379) 
EI-B

>  <INSTRUMENT>  (7379) 
HITACHI RMU-6M

>  <ION MODE>  (7379) 
P

>  <INCHIKEY>  (7379) 
FINOAUDUYKVGDS-GHMZBOCLSA-N

>  <FORMULA>  (7379) 
C12H22O2

>  <EXACT MASS>  (7379) 
198.161979944

>  <MW>  (7379) 
198

>  <ID>  (7379) 
JP000127

>  <CONTRIBUTOR>  (7379) 
University of Tokyo Team, {Faculty of Engineering, University of Tokyo

>  <COMMENT>  (7379) 
SMILES=CC(=O)OC([H])(C1)C([H])(CCC1)C(C)(C)C
InChI=InChI=1S/C12H22O2/c1-9(13)14-11-8-6-5-7-10(11)12(2,3)4/h10-11H,5-8H2,1-4H3/t10-,11-/m1/s1
computed SMILES=O=C(OC1CCCCC1C(C)(C)C)C
accession=JP000127
date=2016.01.19 (Created 2008.10.21, modified 2011.05.06)
author=YAMAMOTO M, DEP. CHEMISTRY, FAC. SCIENCE, NARA WOMEN'S UNIV.
license=CC BY-NC-SA
exact mass=198.16198
ionization energy=70 eV
ion type=[M]+*
computed spectral entropy=2.9736252405305272
computed normalized entropy=0.7811633546503213
SPLASH=splash10-053u-9000000000-82b23afce5319647c48b
submitter=submitter = University of Tokyo Team (Faculty of Engineering, University of Tokyo)
MoNA Rating=3.75

>  <NUM PEAKS>  (7379) 
45

>  <MASS SPECTRAL PEAKS>  (7379) 
15 8.2
27 9.2
28 2.1
29 17.8
39 9.3
40 1.8
41 35.5
42 3
43 54.3
44 1.7
53 4.6
54 11.6
55 13.7
56 10
57 99.99
58 4.5
61 17.3
65 1.3
66 1.2
67 47.5
68 3
69 6.5
70 2.2
71 1.5
75 1.3
79 3.4
80 11.4
81 19.1
82 77.1
83 13.9
84 1.1
93 6.5
95 3.8
96 1
97 1.2
99 2.5
110 1
117 7.9
123 13.8
124 1.5
138 3.8
139 1.5
141 1.6
142 1.9
143 2.5

$$$$

     RDKit          2D

 14 14  0  0  1  0  0  0  0  0999 V2000
   -1.9498    2.7991    0.0000 C   0  0  0  0  0  0  0  0  0  0  0  0
   -1.4013   -1.1526    0.0000 C   0  0  0  0  0  0  0  0  0  0  0  0
   -1.9500   -3.2017    0.0000 C   0  0  0  0  0  0  0  0  0  0  0  0
    0.0991   -3.7504    0.0000 C   0  0  0  0  0  0  0  0  0  0  0  0
    3.2478   -1.7013    0.0000 C   0  0  0  0  0  0  0  0  0  0  0  0
    3.2478   -0.2013    0.0000 C   0  0  0  0  0  0  0  0  0  0  0  0
    1.9478   -2.4513    0.0000 C   0  0  0  0  0  0  0  0  0  0  0  0
    1.9478    0.5487    0.0000 C   0  0  0  0  0  0  0  0  0  0  0  0
   -0.6508    2.0489    0.0000 C   0  0  0  0  0  0  0  0  0  0  0  0
    0.6478   -1.7013    0.0000 C   0  0  0  0  0  0  0  0  0  0  0  0
    0.6478   -0.2013    0.0000 C   0  0  0  0  0  0  0  0  0  0  0  0
   -0.6511   -2.4515    0.0000 C   0  0  0  0  0  0  0  0  0  0  0  0
    0.6483    2.7987    0.0000 O   0  0  0  0  0  0  0  0  0  0  0  0
   -0.6511    0.5489    0.0000 O   0  0  0  0  0  0  0  0  0  0  0  0
  6  5  1  0
  7  5  1  0
  8  6  1  0
  9  1  1  0
 10  7  1  0
 11  8  1  0
 11 10  1  0
 12  2  1  0
 12  3  1  0
 12  4  1  0
 10 12  1  6
 13  9  2  0
 14  9  1  0
 11 14  1  6
M  END
>  <NAME>  (7380) 
O-T-BUTYLCYCLOHEXYL ACETATE (CIS)

>  <SYNONYMS>  (7380) 


>  <SPECTRUM TYPE>  (7380) 
MS1

>  <INSTRUMENT TYPE>  (7380) 
EI-B

>  <INSTRUMENT>  (7380) 
HITACHI RMU-6M

>  <ION MODE>  (7380) 
P

>  <INCHIKEY>  (7380) 
FINOAUDUYKVGDS-WDEREUQCSA-N

>  <FORMULA>  (7380) 
C12H22O2

>  <EXACT MASS>  (7380) 
198.161979944

>  <MW>  (7380) 
198

>  <ID>  (7380) 
JP000126

>  <CONTRIBUTOR>  (7380) 
University of Tokyo Team, {Faculty of Engineering, University of Tokyo

>  <COMMENT>  (7380) 
SMILES=CC(=O)OC([H])(C1)C([H])(CCC1)C(C)(C)C
InChI=InChI=1S/C12H22O2/c1-9(13)14-11-8-6-5-7-10(11)12(2,3)4/h10-11H,5-8H2,1-4H3/t10-,11+/m0/s1
computed SMILES=O=C(OC1CCCCC1C(C)(C)C)C
accession=JP000126
date=2016.01.19 (Created 2008.10.21, modified 2011.05.06)
author=YAMAMOTO M, DEP. CHEMISTRY, FAC. SCIENCE, NARA WOMEN'S UNIV.
license=CC BY-NC-SA
exact mass=198.16198
ionization energy=70 eV
ion type=[M]+*
computed spectral entropy=3.0307437997876154
computed normalized entropy=0.774725454216985
SPLASH=splash10-053r-9000000000-96684ae125e6e0b2ca19
submitter=submitter = University of Tokyo Team (Faculty of Engineering, University of Tokyo)
MoNA Rating=3.75

>  <NUM PEAKS>  (7380) 
50

>  <MASS SPECTRAL PEAKS>  (7380) 
15 6.1
27 16.1
28 2.4
29 15.9
39 10.5
40 1.5
41 33.7
42 2
53 5.2
54 8.2
55 13.1
56 8.2
57 99.99
58 4.8
59 1.1
61 14.1
65 2.4
66 1
67 43.7
68 3
69 6.9
70 2.1
71 1.5
77 1.9
79 4.2
80 15.5
81 19.9
82 72.1
83 12.4
84 1.4
85 1.5
91 1.2
93 1.4
95 5.4
96 1.3
97 1.2
99 2.8
102 1
107 1.1
109 1.2
110 1.2
117 10.2
118 1.1
123 15.1
124 1.9
138 8.2
139 1.7
141 1.9
142 2.4
143 1.3

$$$$

     RDKit          2D

 11 10  0  0  0  0  0  0  0  0999 V2000
    3.8971    6.7500    0.0000 C   0  0  0  0  0  0  0  0  0  0  0  0
    2.5981    4.5000    0.0000 C   0  0  0  0  0  0  0  0  0  0  0  0
   -2.5981    4.5000    0.0000 C   0  0  0  0  0  0  0  0  0  0  0  0
    0.0000    6.0000    0.0000 C   0  0  0  0  0  0  0  0  0  0  0  0
    1.2990    6.7500    0.0000 C   0  0  0  0  0  0  0  0  0  0  0  0
   -1.2990    6.7500    0.0000 C   0  0  0  0  0  0  0  0  0  0  0  0
   -3.8971    6.7500    0.0000 C   0  0  0  0  0  0  0  0  0  0  0  0
   -3.8971    8.2500    0.0000 C   0  0  0  0  0  0  0  0  0  0  0  0
    2.5981    6.0000    0.0000 C   0  0  0  0  0  0  0  0  0  0  0  0
   -2.5981    6.0000    0.0000 C   0  0  0  0  0  0  0  0  0  0  0  0
   -3.8971    9.7500    0.0000 N   0  0  0  0  0  0  0  0  0  0  0  0
  5  4  1  0
  6  4  1  0
  8  7  1  0
  9  1  1  0
  9  2  1  0
  9  5  2  0
 10  3  1  0
 10  6  1  0
  7 10  2  0
 11  8  3  0
M  END
>  <NAME>  (7381) 
3,7-DIMETHYL-2,6-OCTADIENENITRILE(CIS)

>  <SYNONYMS>  (7381) 
CIS-GERANYL NITRILE

>  <SPECTRUM TYPE>  (7381) 
MS1

>  <INSTRUMENT TYPE>  (7381) 
EI-B

>  <INSTRUMENT>  (7381) 
HITACHI RMU-6M

>  <ION MODE>  (7381) 
P

>  <INCHIKEY>  (7381) 
HLCSDJLATUNSSI-YFHOEESVSA-N

>  <FORMULA>  (7381) 
C10H15N

>  <EXACT MASS>  (7381) 
149.12044948

>  <MW>  (7381) 
149

>  <ID>  (7381) 
JP000125

>  <CONTRIBUTOR>  (7381) 
University of Tokyo Team, {Faculty of Engineering, University of Tokyo

>  <COMMENT>  (7381) 
SMILES=N#CC=C(C)CCC=C(C)C
InChI=InChI=1S/C10H15N/c1-9(2)5-4-6-10(3)7-8-11/h5,7H,4,6H2,1-3H3/b10-7-
computed SMILES=N#CC=C(C)CCC=C(C)C
accession=JP000125
date=2016.01.19 (Created 2008.10.21, modified 2011.05.06)
author=YAMAMOTO M, DEP. CHEMISTRY, FAC. SCIENCE, NARA WOMEN'S UNIV.
license=CC BY-NC-SA
exact mass=149.12045
ionization energy=70 eV
ion type=[M]+*
computed spectral entropy=2.0606284721163393
computed normalized entropy=0.632463908932447
SPLASH=splash10-014l-9000000000-5845d9c35703331dbb59
submitter=submitter = University of Tokyo Team (Faculty of Engineering, University of Tokyo)
MoNA Rating=3.75

>  <NUM PEAKS>  (7381) 
26

>  <MASS SPECTRAL PEAKS>  (7381) 
27 9
28 1.3
29 3
39 12.2
40 2
41 58.1
42 1.9
43 1.8
51 2.1
52 1.3
53 7.8
55 1.1
65 1.5
66 1.3
67 2.9
68 1.5
69 99.99
70 4.4
77 1.3
79 1.1
80 1.1
81 10
121 1.2
134 9.5
148 2.4
149 3.3

$$$$

     RDKit          2D

 11 10  0  0  0  0  0  0  0  0999 V2000
   -6.1704    6.1875    0.0000 C   0  0  0  0  0  0  0  0  0  0  0  0
   -4.8714    3.9375    0.0000 C   0  0  0  0  0  0  0  0  0  0  0  0
    0.3248    3.9375    0.0000 C   0  0  0  0  0  0  0  0  0  0  0  0
   -2.2733    5.4375    0.0000 C   0  0  0  0  0  0  0  0  0  0  0  0
   -3.5724    6.1875    0.0000 C   0  0  0  0  0  0  0  0  0  0  0  0
   -0.9743    6.1875    0.0000 C   0  0  0  0  0  0  0  0  0  0  0  0
    1.6238    6.1875    0.0000 C   0  0  0  0  0  0  0  0  0  0  0  0
    2.9228    5.4375    0.0000 C   0  0  0  0  0  0  0  0  0  0  0  0
   -4.8714    5.4375    0.0000 C   0  0  0  0  0  0  0  0  0  0  0  0
    0.3248    5.4375    0.0000 C   0  0  0  0  0  0  0  0  0  0  0  0
    4.2219    4.6875    0.0000 N   0  0  0  0  0  0  0  0  0  0  0  0
  5  4  1  0
  6  4  1  0
  8  7  1  0
  9  1  1  0
  9  2  1  0
  9  5  2  0
 10  3  1  0
 10  6  1  0
  7 10  2  0
 11  8  3  0
M  END
>  <NAME>  (7382) 
3,7-DIMETHYL-2,6-OCTADIENENITRILE(TRANS)

>  <SYNONYMS>  (7382) 
TRANS-GERANYL NITRILE

>  <SPECTRUM TYPE>  (7382) 
MS1

>  <INSTRUMENT TYPE>  (7382) 
EI-B

>  <INSTRUMENT>  (7382) 
HITACHI RMU-6M

>  <ION MODE>  (7382) 
P

>  <INCHIKEY>  (7382) 
HLCSDJLATUNSSI-JXMROGBWSA-N

>  <FORMULA>  (7382) 
C10H15N

>  <EXACT MASS>  (7382) 
149.12044948

>  <MW>  (7382) 
149

>  <ID>  (7382) 
JP000124

>  <CONTRIBUTOR>  (7382) 
University of Tokyo Team, {Faculty of Engineering, University of Tokyo

>  <COMMENT>  (7382) 
SMILES=N#CC=C(C)CCC=C(C)C
InChI=InChI=1S/C10H15N/c1-9(2)5-4-6-10(3)7-8-11/h5,7H,4,6H2,1-3H3/b10-7+
computed SMILES=N#CC=C(C)CCC=C(C)C
accession=JP000124
date=2016.01.19 (Created 2008.10.21, modified 2011.05.06)
author=YAMAMOTO M, DEP. CHEMISTRY, FAC. SCIENCE, NARA WOMEN'S UNIV.
license=CC BY-NC-SA
exact mass=149.12045
ionization energy=70 eV
ion type=[M]+*
computed spectral entropy=1.8180454333389875
computed normalized entropy=0.597152910030268
SPLASH=splash10-014l-9000000000-19306821ad429e41cd1c
submitter=submitter = University of Tokyo Team (Faculty of Engineering, University of Tokyo)
MoNA Rating=3.75

>  <NUM PEAKS>  (7382) 
21

>  <MASS SPECTRAL PEAKS>  (7382) 
27 7.9
28 1.1
29 2.8
39 10.3
40 1.7
41 55.9
42 1.7
43 2
51 1.8
53 6.8
55 1.1
65 1.2
67 2.6
68 1.8
69 99.99
70 4.2
78 1
81 5.1
93 1
134 5.1
149 2.2

$$$$

     RDKit          2D

 11 10  0  0  0  0  0  0  0  0999 V2000
    3.8971    6.7500    0.0000 C   0  0  0  0  0  0  0  0  0  0  0  0
    2.5981    4.5000    0.0000 C   0  0  0  0  0  0  0  0  0  0  0  0
   -2.5981    4.5000    0.0000 C   0  0  0  0  0  0  0  0  0  0  0  0
    0.0000    6.0000    0.0000 C   0  0  0  0  0  0  0  0  0  0  0  0
    1.2990    6.7500    0.0000 C   0  0  0  0  0  0  0  0  0  0  0  0
   -1.2990    6.7500    0.0000 C   0  0  0  0  0  0  0  0  0  0  0  0
   -3.8971    6.7500    0.0000 C   0  0  0  0  0  0  0  0  0  0  0  0
   -3.8971    8.2500    0.0000 C   0  0  0  0  0  0  0  0  0  0  0  0
    2.5981    6.0000    0.0000 C   0  0  0  0  0  0  0  0  0  0  0  0
   -2.5981    6.0000    0.0000 C   0  0  0  0  0  0  0  0  0  0  0  0
   -5.1962    9.0000    0.0000 O   0  0  0  0  0  0  0  0  0  0  0  0
  5  4  1  0
  6  4  1  0
  8  7  1  0
  9  1  1  0
  9  2  1  0
  9  5  2  0
 10  3  1  0
 10  6  1  0
  7 10  2  0
 11  8  2  0
M  END
>  <NAME>  (7383) 
3,7-DIMETHYL-2,6-OCTADIENAL(CIS)

>  <SYNONYMS>  (7383) 
NERAL

>  <SPECTRUM TYPE>  (7383) 
MS1

>  <INSTRUMENT TYPE>  (7383) 
EI-B

>  <INSTRUMENT>  (7383) 
HITACHI RMU-6M

>  <ION MODE>  (7383) 
P

>  <INCHIKEY>  (7383) 
WTEVQBCEXWBHNA-YFHOEESVSA-N

>  <FORMULA>  (7383) 
C10H16O

>  <EXACT MASS>  (7383) 
152.120115132

>  <MW>  (7383) 
152

>  <ID>  (7383) 
JP000123

>  <CONTRIBUTOR>  (7383) 
University of Tokyo Team, {Faculty of Engineering, University of Tokyo

>  <COMMENT>  (7383) 
SMILES=O=CC=C(C)CCC=C(C)C
InChI=InChI=1S/C10H16O/c1-9(2)5-4-6-10(3)7-8-11/h5,7-8H,4,6H2,1-3H3/b10-7-
computed SMILES=O=CC=C(C)CCC=C(C)C
accession=JP000123
date=2016.01.19 (Created 2008.10.21, modified 2011.05.06)
author=YAMAMOTO M, DEP. CHEMISTRY, FAC. SCIENCE, NARA WOMEN'S UNIV.
license=CC BY-NC-SA
exact mass=152.12012
ionization energy=70 eV
ion type=[M]+*
computed spectral entropy=3.1141728024152755
computed normalized entropy=0.8088450429879891
SPLASH=splash10-00kf-9000000000-817e52a6a23988fc5b7b
submitter=submitter = University of Tokyo Team (Faculty of Engineering, University of Tokyo)
MoNA Rating=3.75

>  <NUM PEAKS>  (7383) 
47

>  <MASS SPECTRAL PEAKS>  (7383) 
27 21.9
28 13
29 12.2
38 1.3
39 31.4
40 4.9
41 99.99
42 4.7
43 12.1
44 3.6
50 1.3
51 4.4
52 1.7
53 13.3
54 3.5
55 10.1
56 4.6
57 1.3
59 11.2
65 3.1
66 1
67 13.3
68 4
69 83.9
70 5.9
71 2
77 4.2
79 5.5
80 3.9
81 12
82 11.6
83 11.5
84 25.4
85 1.4
91 4.8
92 1.4
93 3.3
94 18.1
95 10.3
96 3.3
97 2.7
109 6.2
110 1.2
119 1.6
123 4.2
137 3.8
152 6.4

$$$$

     RDKit          2D

 11 10  0  0  0  0  0  0  0  0999 V2000
   -6.8200    5.0625    0.0000 C   0  0  0  0  0  0  0  0  0  0  0  0
   -5.5209    2.8125    0.0000 C   0  0  0  0  0  0  0  0  0  0  0  0
   -0.3248    2.8125    0.0000 C   0  0  0  0  0  0  0  0  0  0  0  0
   -2.9228    4.3125    0.0000 C   0  0  0  0  0  0  0  0  0  0  0  0
   -4.2219    5.0625    0.0000 C   0  0  0  0  0  0  0  0  0  0  0  0
   -1.6238    5.0625    0.0000 C   0  0  0  0  0  0  0  0  0  0  0  0
    0.9743    5.0625    0.0000 C   0  0  0  0  0  0  0  0  0  0  0  0
    2.2733    4.3125    0.0000 C   0  0  0  0  0  0  0  0  0  0  0  0
   -5.5209    4.3125    0.0000 C   0  0  0  0  0  0  0  0  0  0  0  0
   -0.3248    4.3125    0.0000 C   0  0  0  0  0  0  0  0  0  0  0  0
    3.5724    5.0625    0.0000 O   0  0  0  0  0  0  0  0  0  0  0  0
  5  4  1  0
  6  4  1  0
  8  7  1  0
  9  1  1  0
  9  2  1  0
  9  5  2  0
 10  3  1  0
 10  6  1  0
  7 10  2  0
 11  8  2  0
M  END
>  <NAME>  (7384) 
3,7-DIMETHYL-2,6-OCTADIENAL(TRANS)

>  <SYNONYMS>  (7384) 
GERANIAL

>  <SPECTRUM TYPE>  (7384) 
MS1

>  <INSTRUMENT TYPE>  (7384) 
EI-B

>  <INSTRUMENT>  (7384) 
HITACHI RMU-6M

>  <ION MODE>  (7384) 
P

>  <INCHIKEY>  (7384) 
WTEVQBCEXWBHNA-JXMROGBWSA-N

>  <FORMULA>  (7384) 
C10H16O

>  <EXACT MASS>  (7384) 
152.120115132

>  <MW>  (7384) 
152

>  <ID>  (7384) 
JP000122

>  <CONTRIBUTOR>  (7384) 
University of Tokyo Team, {Faculty of Engineering, University of Tokyo

>  <COMMENT>  (7384) 
SMILES=O=CC=C(C)CCC=C(C)C
InChI=InChI=1S/C10H16O/c1-9(2)5-4-6-10(3)7-8-11/h5,7-8H,4,6H2,1-3H3/b10-7+
computed SMILES=O=CC=C(C)CCC=C(C)C
accession=JP000122
date=2016.01.19 (Created 2008.10.21, modified 2011.05.06)
author=YAMAMOTO M, DEP. CHEMISTRY, FAC. SCIENCE, NARA WOMEN'S UNIV.
license=CC BY-NC-SA
exact mass=152.12012
ionization energy=70 eV
ion type=[M]+*
computed spectral entropy=2.597659788984211
computed normalized entropy=0.7366404458225274
SPLASH=splash10-014l-9000000000-ccb0a3f327b5d2362bb9
submitter=submitter = University of Tokyo Team (Faculty of Engineering, University of Tokyo)
MoNA Rating=3.75

>  <NUM PEAKS>  (7384) 
34

>  <MASS SPECTRAL PEAKS>  (7384) 
27 14
28 13.3
29 9.4
39 21.9
40 3
41 87.3
42 3.3
43 3.9
51 2.7
52 1
53 9
54 1.9
55 5.3
56 2.6
59 3.4
65 1.8
67 6.6
68 2.2
69 99.99
70 5
77 2.1
79 2.3
83 6.9
84 24.6
91 2.1
93 1.2
94 12.5
95 3.8
109 6.2
110 1.2
119 1.6
123 4.2
137 3.8
152 6.4

$$$$

     RDKit          2D

 11 10  0  0  0  0  0  0  0  0999 V2000
    3.8971    6.7500    0.0000 C   0  0  0  0  0  0  0  0  0  0  0  0
    2.5981    4.5000    0.0000 C   0  0  0  0  0  0  0  0  0  0  0  0
   -2.5981    4.5000    0.0000 C   0  0  0  0  0  0  0  0  0  0  0  0
    0.0000    6.0000    0.0000 C   0  0  0  0  0  0  0  0  0  0  0  0
    1.2990    6.7500    0.0000 C   0  0  0  0  0  0  0  0  0  0  0  0
   -1.2990    6.7500    0.0000 C   0  0  0  0  0  0  0  0  0  0  0  0
   -3.8971    6.7500    0.0000 C   0  0  0  0  0  0  0  0  0  0  0  0
   -3.8971    8.2500    0.0000 C   0  0  0  0  0  0  0  0  0  0  0  0
    2.5981    6.0000    0.0000 C   0  0  0  0  0  0  0  0  0  0  0  0
   -2.5981    6.0000    0.0000 C   0  0  0  0  0  0  0  0  0  0  0  0
   -5.1962    9.0000    0.0000 O   0  0  0  0  0  0  0  0  0  0  0  0
  5  4  1  0
  6  4  1  0
  8  7  1  0
  9  1  1  0
  9  2  1  0
  9  5  2  0
 10  3  1  0
 10  6  1  0
  7 10  2  0
 11  8  1  0
M  END
>  <NAME>  (7385) 
3,7-DIMETHYL-2,6-OCTADIEN-1-OL(CIS)

>  <SYNONYMS>  (7385) 
NEROL

>  <SPECTRUM TYPE>  (7385) 
MS1

>  <INSTRUMENT TYPE>  (7385) 
EI-B

>  <INSTRUMENT>  (7385) 
HITACHI RMU-6M

>  <ION MODE>  (7385) 
P

>  <INCHIKEY>  (7385) 
GLZPCOQZEFWAFX-YFHOEESVSA-N

>  <FORMULA>  (7385) 
C10H18O

>  <EXACT MASS>  (7385) 
154.135765196

>  <MW>  (7385) 
154

>  <ID>  (7385) 
JP000121

>  <CONTRIBUTOR>  (7385) 
University of Tokyo Team, {Faculty of Engineering, University of Tokyo

>  <COMMENT>  (7385) 
SMILES=OCC=C(C)CCC=C(C)C
InChI=InChI=1S/C10H18O/c1-9(2)5-4-6-10(3)7-8-11/h5,7,11H,4,6,8H2,1-3H3/b10-7-
computed SMILES=OCC=C(C)CCC=C(C)C
accession=JP000121
date=2016.01.19 (Created 2008.10.21, modified 2011.05.06)
author=YAMAMOTO M, DEP. CHEMISTRY, FAC. SCIENCE, NARA WOMEN'S UNIV.
license=CC BY-NC-SA
exact mass=154.13577
ionization energy=70 eV
ion type=[M]+*
computed spectral entropy=3.1134958203638226
computed normalized entropy=0.7734717509354332
SPLASH=splash10-014l-9000000000-8132ea67e057a3dd9c80
submitter=submitter = University of Tokyo Team (Faculty of Engineering, University of Tokyo)
MoNA Rating=3.75

>  <NUM PEAKS>  (7385) 
56

>  <MASS SPECTRAL PEAKS>  (7385) 
27 14.6
28 2
29 13.8
31 3.3
39 21.6
40 4.3
41 96.4
42 5.4
43 6.9
44 0.7
50 0.8
51 3.3
52 1.4
53 12.5
54 1.6
55 10.7
56 3.3
57 3
59 2
63 0.7
65 2.8
66 1.1
67 13.8
68 20.4
69 99.99
70 7.5
71 7.5
72 2.4
77 4.3
78 0.7
79 5.4
80 9.2
81 6.2
82 7.3
83 13.9
84 2.1
91 4.1
92 3.9
93 21
94 3.4
95 2.6
96 1.8
97 4.3
98 1.7
105 1.6
107 2.7
109 1.5
110 1.1
111 4.6
112 0.9
121 8
122 0.7
123 5
136 4.1
139 2.3
154 3.6

$$$$

     RDKit          2D

 11 10  0  0  0  0  0  0  0  0999 V2000
   -6.8200    5.0625    0.0000 C   0  0  0  0  0  0  0  0  0  0  0  0
   -5.5209    2.8125    0.0000 C   0  0  0  0  0  0  0  0  0  0  0  0
   -0.3248    2.8125    0.0000 C   0  0  0  0  0  0  0  0  0  0  0  0
   -2.9228    4.3125    0.0000 C   0  0  0  0  0  0  0  0  0  0  0  0
   -4.2219    5.0625    0.0000 C   0  0  0  0  0  0  0  0  0  0  0  0
   -1.6238    5.0625    0.0000 C   0  0  0  0  0  0  0  0  0  0  0  0
    0.9743    5.0625    0.0000 C   0  0  0  0  0  0  0  0  0  0  0  0
    2.2733    4.3125    0.0000 C   0  0  0  0  0  0  0  0  0  0  0  0
   -5.5209    4.3125    0.0000 C   0  0  0  0  0  0  0  0  0  0  0  0
   -0.3248    4.3125    0.0000 C   0  0  0  0  0  0  0  0  0  0  0  0
    3.5724    5.0625    0.0000 O   0  0  0  0  0  0  0  0  0  0  0  0
  5  4  1  0
  6  4  1  0
  8  7  1  0
  9  1  1  0
  9  2  1  0
  9  5  2  0
 10  3  1  0
 10  6  1  0
  7 10  2  0
 11  8  1  0
M  END
>  <NAME>  (7386) 
3,7-DIMETHYL-2,6-OCTADIEN-1-OL(TRANS)

>  <SYNONYMS>  (7386) 
GERANIOL

>  <SPECTRUM TYPE>  (7386) 
MS1

>  <INSTRUMENT TYPE>  (7386) 
EI-B

>  <INSTRUMENT>  (7386) 
HITACHI RMU-6M

>  <ION MODE>  (7386) 
P

>  <INCHIKEY>  (7386) 
GLZPCOQZEFWAFX-JXMROGBWSA-N

>  <FORMULA>  (7386) 
C10H18O

>  <EXACT MASS>  (7386) 
154.135765196

>  <MW>  (7386) 
154

>  <ID>  (7386) 
JP000120

>  <CONTRIBUTOR>  (7386) 
University of Tokyo Team, {Faculty of Engineering, University of Tokyo

>  <COMMENT>  (7386) 
SMILES=OCC=C(C)CCC=C(C)C
InChI=InChI=1S/C10H18O/c1-9(2)5-4-6-10(3)7-8-11/h5,7,11H,4,6,8H2,1-3H3/b10-7+
computed SMILES=OCC=C(C)CCC=C(C)C
accession=JP000120
date=2016.01.19 (Created 2008.10.21, modified 2011.05.06)
author=YAMAMOTO M, DEP. CHEMISTRY, FAC. SCIENCE, NARA WOMEN'S UNIV.
license=CC BY-NC-SA
exact mass=154.13577
ionization energy=70 eV
ion type=[M]+*
computed spectral entropy=2.978002334983569
computed normalized entropy=0.7273453149158835
SPLASH=splash10-014l-9000000000-25934c23f4bc9ba87142
submitter=submitter = University of Tokyo Team (Faculty of Engineering, University of Tokyo)
MoNA Rating=3.75

>  <NUM PEAKS>  (7386) 
60

>  <MASS SPECTRAL PEAKS>  (7386) 
27 13.1
28 4.1
29 13.1
31 3.1
32 0.9
38 0.6
39 19.5
40 3.6
41 88.6
42 4.8
43 5.1
44 0.6
45 0.5
50 0.8
51 2.7
52 1.2
53 10.2
54 1.3
55 7.6
56 2
57 4
59 2.3
63 0.6
65 2.2
66 0.9
67 10.8
68 19
69 99.99
70 7.3
71 6.4
72 0.7
77 3.1
78 0.6
79 3.5
80 4.4
81 4.9
82 1
83 3.2
84 6.2
85 1.7
91 2.7
92 2.3
93 11.3
94 1.9
95 1.8
96 2.1
97 1.3
98 0.8
105 0.8
107 1.5
109 1
110 0.8
111 4.2
112 0.7
121 4
123 7
124 0.6
136 2.9
139 1.3
154 2.3

$$$$

     RDKit          2D

 21 20  0  0  1  0  0  0  0  0999 V2000
   -4.2219    9.5625    0.0000 C   0  0  0  0  0  0  0  0  0  0  0  0
   -1.6238    9.5625    0.0000 C   0  0  0  0  0  0  0  0  0  0  0  0
    0.9743    5.0625    0.0000 C   0  0  0  0  0  0  0  0  0  0  0  0
  -10.7171    7.3125    0.0000 C   0  0  0  0  0  0  0  0  0  0  0  0
    4.8714    7.3125    0.0000 C   0  0  0  0  0  0  0  0  0  0  0  0
   -6.8200    6.5625    0.0000 C   0  0  0  0  0  0  0  0  0  0  0  0
   -2.9228    8.8125    0.0000 C   0  0  0  0  0  0  0  0  0  0  0  0
    0.9743    6.5625    0.0000 C   0  0  0  0  0  0  0  0  0  0  0  0
   -9.4180    6.5625    0.0000 C   0  0  0  0  0  0  0  0  0  0  0  0
   -5.5209    7.3125    0.0000 C   0  0  0  0  0  0  0  0  0  0  0  0
   -2.9228    7.3125    0.0000 C   0  0  0  0  0  0  0  0  0  0  0  0
   -1.6238    6.5625    0.0000 C   0  0  0  0  0  0  0  0  0  0  0  0
    2.2733    7.3125    0.0000 C   0  0  0  0  0  0  0  0  0  0  0  0
   -8.1190    7.3125    0.0000 N   0  0  0  0  0  0  0  0  0  0  0  0
   -0.3248    7.3125    0.0000 N   0  0  0  0  0  0  0  0  0  0  0  0
   -4.2219    6.5625    0.0000 N   0  0  0  0  0  0  0  0  0  0  0  0
   -9.4180    5.0625    0.0000 O   0  0  0  0  0  0  0  0  0  0  0  0
   -5.5209    8.8125    0.0000 O   0  0  0  0  0  0  0  0  0  0  0  0
   -1.6238    5.0625    0.0000 O   0  0  0  0  0  0  0  0  0  0  0  0
    2.2733    8.8125    0.0000 O   0  0  0  0  0  0  0  0  0  0  0  0
    3.5724    6.5625    0.0000 O   0  0  0  0  0  0  0  0  0  0  0  0
  7  1  1  0
  7  2  1  0
  8  3  1  6
  9  4  1  0
 10  6  1  0
 11  7  1  0
 12 11  1  0
 13  8  1  0
 14  6  1  0
 14  9  2  3
 15  8  1  0
 15 12  2  3
 16 10  2  3
 11 16  1  6
 17  9  1  0
 18 10  1  0
 19 12  1  0
 20 13  2  0
 21  5  1  0
 21 13  1  0
M  END
>  <NAME>  (7387) 
N-ACETYL-GLYCYL-VALYL-ALANINE METHYLESTER

>  <SYNONYMS>  (7387) 


>  <SPECTRUM TYPE>  (7387) 
MS1

>  <INSTRUMENT TYPE>  (7387) 
EI-B

>  <INSTRUMENT>  (7387) 
HITACHI RMU-6M

>  <ION MODE>  (7387) 
P

>  <INCHIKEY>  (7387) 
ODXCZVQCPDKJQW-GZMMTYOYSA-N

>  <FORMULA>  (7387) 
C13H23N3O5

>  <EXACT MASS>  (7387) 
301.163770836

>  <MW>  (7387) 
301

>  <ID>  (7387) 
JP000119

>  <CONTRIBUTOR>  (7387) 
University of Tokyo Team, {Faculty of Engineering, University of Tokyo

>  <COMMENT>  (7387) 
SMILES=COC(=O)C([H])(C)NC(=O)C([H])(C(C)C)NC(=O)CNC(C)=O
InChI=InChI=1S/C13H23N3O5/c1-7(2)11(16-10(18)6-14-9(4)17)12(19)15-8(3)13(20)21-5/h7-8,11H,6H2,1-5H3,(H,14,17)(H,15,19)(H,16,18)/t8-,11+/m0/s1
computed SMILES=O=C(OC)C(N=C(O)C(N=C(O)CN=C(O)C)C(C)C)C
accession=JP000119
date=2016.01.19 (Created 2008.10.21, modified 2011.05.06)
author=YAMAMOTO M, DEP. CHEMISTRY, FAC. SCIENCE, NARA WOMEN'S UNIV.
license=CC BY-NC-SA
exact mass=301.16377
ionization energy=70 eV
ion type=[M]+*
computed spectral entropy=2.0022674698631815
computed normalized entropy=0.572647830632291
SPLASH=splash10-00di-9100000000-5cbfba79cd99fee7281e
submitter=submitter = University of Tokyo Team (Faculty of Engineering, University of Tokyo)
MoNA Rating=3.75

>  <NUM PEAKS>  (7387) 
33

>  <MASS SPECTRAL PEAKS>  (7387) 
27 1.6
28 3.1
29 1.6
30 1.91
31 1.3
41 2.4
42 2.1
43 0.86
44 11.9
45 1.2
55 6.9
56 0.3
57 1.7
58 1.3
59 1.3
69 0.21
70 2.6
71 2.1
72 99.99
73 0.71
83 1.4
85 1.4
98 1.4
99 0.15
100 7.2
102 1.3
104 2.3
113 0.12
159 1.1
169 2.6
171 9.3
172 0.54
200 3.3

$$$$

     RDKit          2D

 21 20  0  0  1  0  0  0  0  0999 V2000
   -1.6238    9.5625    0.0000 C   0  0  0  0  0  0  0  0  0  0  0  0
   -4.2219    9.5625    0.0000 C   0  0  0  0  0  0  0  0  0  0  0  0
   -6.8200    5.0625    0.0000 C   0  0  0  0  0  0  0  0  0  0  0  0
  -10.7171    7.3125    0.0000 C   0  0  0  0  0  0  0  0  0  0  0  0
    4.8714    7.3125    0.0000 C   0  0  0  0  0  0  0  0  0  0  0  0
    0.9743    6.5625    0.0000 C   0  0  0  0  0  0  0  0  0  0  0  0
   -2.9228    8.8125    0.0000 C   0  0  0  0  0  0  0  0  0  0  0  0
   -6.8200    6.5625    0.0000 C   0  0  0  0  0  0  0  0  0  0  0  0
   -9.4180    6.5625    0.0000 C   0  0  0  0  0  0  0  0  0  0  0  0
    2.2733    7.3125    0.0000 C   0  0  0  0  0  0  0  0  0  0  0  0
   -2.9228    7.3125    0.0000 C   0  0  0  0  0  0  0  0  0  0  0  0
   -5.5209    7.3125    0.0000 C   0  0  0  0  0  0  0  0  0  0  0  0
   -1.6238    6.5625    0.0000 C   0  0  0  0  0  0  0  0  0  0  0  0
   -0.3248    7.3125    0.0000 N   0  0  0  0  0  0  0  0  0  0  0  0
   -8.1190    7.3125    0.0000 N   0  0  0  0  0  0  0  0  0  0  0  0
   -4.2219    6.5625    0.0000 N   0  0  0  0  0  0  0  0  0  0  0  0
   -9.4180    5.0625    0.0000 O   0  0  0  0  0  0  0  0  0  0  0  0
    2.2733    8.8125    0.0000 O   0  0  0  0  0  0  0  0  0  0  0  0
   -5.5209    8.8125    0.0000 O   0  0  0  0  0  0  0  0  0  0  0  0
   -1.6238    5.0625    0.0000 O   0  0  0  0  0  0  0  0  0  0  0  0
    3.5724    6.5625    0.0000 O   0  0  0  0  0  0  0  0  0  0  0  0
  7  1  1  0
  7  2  1  0
  8  3  1  6
  9  4  1  0
 10  6  1  0
 11  7  1  0
 12  8  1  0
 13 11  1  0
 14  6  1  0
 14 13  2  3
 15  8  1  0
 15  9  2  3
 11 16  1  6
 16 12  2  3
 17  9  1  0
 18 10  2  0
 19 12  1  0
 20 13  1  0
 21  5  1  0
 21 10  1  0
M  END
>  <NAME>  (7388) 
N-ACETYL-ALANYL-VALYL-GLYCINE METHYLESTER

>  <SYNONYMS>  (7388) 


>  <SPECTRUM TYPE>  (7388) 
MS1

>  <INSTRUMENT TYPE>  (7388) 
EI-B

>  <INSTRUMENT>  (7388) 
HITACHI RMU-6M

>  <ION MODE>  (7388) 
P

>  <INCHIKEY>  (7388) 
UEGJWOSKZCVBFS-GZMMTYOYSA-N

>  <FORMULA>  (7388) 
C13H23N3O5

>  <EXACT MASS>  (7388) 
301.16377083599997

>  <MW>  (7388) 
301

>  <ID>  (7388) 
JP000118

>  <CONTRIBUTOR>  (7388) 
University of Tokyo Team, {Faculty of Engineering, University of Tokyo

>  <COMMENT>  (7388) 
SMILES=COC(=O)CNC(=O)C([H])(C(C)C)NC(=O)C([H])(C)NC(C)=O
InChI=InChI=1S/C13H23N3O5/c1-7(2)11(13(20)14-6-10(18)21-5)16-12(19)8(3)15-9(4)17/h7-8,11H,6H2,1-5H3,(H,14,20)(H,15,17)(H,16,19)/t8-,11+/m0/s1
computed SMILES=O=C(OC)CN=C(O)C(N=C(O)C(N=C(O)C)C)C(C)C
accession=JP000118
date=2016.01.19 (Created 2008.10.21, modified 2011.05.06)
author=YAMAMOTO M, DEP. CHEMISTRY, FAC. SCIENCE, NARA WOMEN'S UNIV.
license=CC BY-NC-SA
exact mass=301.16377
ionization energy=70 eV
ion type=[M]+*
computed spectral entropy=2.1598222326506527
computed normalized entropy=0.6074854543906049
SPLASH=splash10-00di-9000000000-b67fdcb025e281918a93
submitter=submitter = University of Tokyo Team (Faculty of Engineering, University of Tokyo)
MoNA Rating=3.75

>  <NUM PEAKS>  (7388) 
35

>  <MASS SPECTRAL PEAKS>  (7388) 
27 1.8
28 3.7
29 2
30 0.71
39 1.2
41 3.1
42 2.9
43 0.99
44 47.3
45 1.6
55 7.4
56 0.43
57 2.2
69 2.6
70 1.7
71 0.21
72 99.99
73 5.6
82 1
83 0.16
84 1.2
85 1.3
86 12
87 1.24
88 1.9
90 2.6
114 8
127 0.19
155 1.8
159 2.4
173 1.7
185 0.9
186 1.8
213 2.5
215 1.8

$$$$

     RDKit          2D

 20 19  0  0  1  0  0  0  0  0999 V2000
   -1.6238    9.5625    0.0000 C   0  0  0  0  0  0  0  0  0  0  0  0
   -4.2219    9.5625    0.0000 C   0  0  0  0  0  0  0  0  0  0  0  0
  -10.7171    7.3125    0.0000 C   0  0  0  0  0  0  0  0  0  0  0  0
    4.8714    7.3125    0.0000 C   0  0  0  0  0  0  0  0  0  0  0  0
   -6.8200    6.5625    0.0000 C   0  0  0  0  0  0  0  0  0  0  0  0
    0.9743    6.5625    0.0000 C   0  0  0  0  0  0  0  0  0  0  0  0
   -2.9228    8.8125    0.0000 C   0  0  0  0  0  0  0  0  0  0  0  0
   -9.4180    6.5625    0.0000 C   0  0  0  0  0  0  0  0  0  0  0  0
   -5.5209    7.3125    0.0000 C   0  0  0  0  0  0  0  0  0  0  0  0
    2.2733    7.3125    0.0000 C   0  0  0  0  0  0  0  0  0  0  0  0
   -2.9228    7.3125    0.0000 C   0  0  0  0  0  0  0  0  0  0  0  0
   -1.6238    6.5625    0.0000 C   0  0  0  0  0  0  0  0  0  0  0  0
   -8.1190    7.3125    0.0000 N   0  0  0  0  0  0  0  0  0  0  0  0
   -0.3248    7.3125    0.0000 N   0  0  0  0  0  0  0  0  0  0  0  0
   -4.2219    6.5625    0.0000 N   0  0  0  0  0  0  0  0  0  0  0  0
   -9.4180    5.0625    0.0000 O   0  0  0  0  0  0  0  0  0  0  0  0
   -5.5209    8.8125    0.0000 O   0  0  0  0  0  0  0  0  0  0  0  0
    2.2733    8.8125    0.0000 O   0  0  0  0  0  0  0  0  0  0  0  0
   -1.6238    5.0625    0.0000 O   0  0  0  0  0  0  0  0  0  0  0  0
    3.5724    6.5625    0.0000 O   0  0  0  0  0  0  0  0  0  0  0  0
  7  1  1  0
  7  2  1  0
  8  3  1  0
  9  5  1  0
 10  6  1  0
 11  7  1  0
 12 11  1  0
 13  5  1  0
 13  8  2  3
 14  6  1  0
 14 12  2  3
 15  9  2  3
 11 15  1  6
 16  8  1  0
 17  9  1  0
 18 10  2  0
 19 12  1  0
 20  4  1  0
 20 10  1  0
M  END
>  <NAME>  (7389) 
N-ACETYL-GLYCYL-VALYL-GLYCINE METHYLESTER

>  <SYNONYMS>  (7389) 


>  <SPECTRUM TYPE>  (7389) 
MS1

>  <INSTRUMENT TYPE>  (7389) 
EI-B

>  <INSTRUMENT>  (7389) 
HITACHI RMU-6M

>  <ION MODE>  (7389) 
P

>  <INCHIKEY>  (7389) 
XAHIQDXYCYBQRT-LLVKDONJSA-N

>  <FORMULA>  (7389) 
C12H21N3O5

>  <EXACT MASS>  (7389) 
287.14812077199997

>  <MW>  (7389) 
287

>  <ID>  (7389) 
JP000117

>  <CONTRIBUTOR>  (7389) 
University of Tokyo Team, {Faculty of Engineering, University of Tokyo

>  <COMMENT>  (7389) 
SMILES=COC(=O)CNC(=O)C([H])(C(C)C)NC(=O)CNC(C)=O
InChI=InChI=1S/C12H21N3O5/c1-7(2)11(12(19)14-6-10(18)20-4)15-9(17)5-13-8(3)16/h7,11H,5-6H2,1-4H3,(H,13,16)(H,14,19)(H,15,17)/t11-/m1/s1
computed SMILES=O=C(OC)CN=C(O)C(N=C(O)CN=C(O)C)C(C)C
accession=JP000117
date=2016.01.19 (Created 2008.10.21, modified 2011.05.06)
author=YAMAMOTO M, DEP. CHEMISTRY, FAC. SCIENCE, NARA WOMEN'S UNIV.
license=CC BY-NC-SA
exact mass=287.14812
ionization energy=70 eV
ion type=[M]+*
computed spectral entropy=2.2198302650296102
computed normalized entropy=0.6147551173225259
SPLASH=splash10-00di-9000000000-6b54a061019a97ae30ca
submitter=submitter = University of Tokyo Team (Faculty of Engineering, University of Tokyo)
MoNA Rating=3.75

>  <NUM PEAKS>  (7389) 
37

>  <MASS SPECTRAL PEAKS>  (7389) 
15 4.1
27 2
28 6.4
29 0.3
30 42.2
31 2.2
39 1.6
41 0.38
43 16.7
44 2.7
45 2
55 1
56 6.6
57 2.2
58 1.3
59 0.14
69 3.1
70 2.7
72 99.99
73 0.88
82 1.1
83 1.8
84 1.2
85 0.26
88 2.6
90 3.5
98 2.8
100 0.82
113 1.4
114 1.1
127 1.6
145 0.13
155 2.3
171 8.3
172 1.9
199 0.28
215 1

$$$$

     RDKit          2D

 22 21  0  0  1  0  0  0  0  0999 V2000
   -6.4952    3.7500    0.0000 C   0  0  0  0  0  0  0  0  0  0  0  0
   -3.8971    3.7500    0.0000 C   0  0  0  0  0  0  0  0  0  0  0  0
   -3.8971   11.2500    0.0000 C   0  0  0  0  0  0  0  0  0  0  0  0
    3.8971    6.7500    0.0000 C   0  0  0  0  0  0  0  0  0  0  0  0
   -7.7942   13.5000    0.0000 C   0  0  0  0  0  0  0  0  0  0  0  0
   -5.1962    6.0000    0.0000 C   0  0  0  0  0  0  0  0  0  0  0  0
    0.0000    6.0000    0.0000 C   0  0  0  0  0  0  0  0  0  0  0  0
   -5.1962    4.5000    0.0000 C   0  0  0  0  0  0  0  0  0  0  0  0
   -5.1962   10.5000    0.0000 C   0  0  0  0  0  0  0  0  0  0  0  0
    2.5981    6.0000    0.0000 C   0  0  0  0  0  0  0  0  0  0  0  0
   -3.8971    6.7500    0.0000 C   0  0  0  0  0  0  0  0  0  0  0  0
   -1.2990    6.7500    0.0000 C   0  0  0  0  0  0  0  0  0  0  0  0
   -3.8971    8.2500    0.0000 C   0  0  0  0  0  0  0  0  0  0  0  0
   -6.4952   11.2500    0.0000 C   0  0  0  0  0  0  0  0  0  0  0  0
    1.2990    6.7500    0.0000 N   0  0  0  0  0  0  0  0  0  0  0  0
   -5.1962    9.0000    0.0000 N   0  0  0  0  0  0  0  0  0  0  0  0
   -2.5981    6.0000    0.0000 N   0  0  0  0  0  0  0  0  0  0  0  0
    2.5981    4.5000    0.0000 O   0  0  0  0  0  0  0  0  0  0  0  0
   -1.2990    8.2500    0.0000 O   0  0  0  0  0  0  0  0  0  0  0  0
   -2.5981    9.0000    0.0000 O   0  0  0  0  0  0  0  0  0  0  0  0
   -7.7942   10.5000    0.0000 O   0  0  0  0  0  0  0  0  0  0  0  0
   -6.4952   12.7500    0.0000 O   0  0  0  0  0  0  0  0  0  0  0  0
  8  1  1  0
  8  2  1  0
  8  6  1  0
  9  3  1  6
 10  4  1  0
 11  6  1  6
 12  7  1  0
 13 11  1  0
 14  9  1  0
 15  7  1  0
 15 10  2  3
 16  9  1  0
 16 13  2  3
 11 17  1  0
 17 12  2  3
 18 10  1  0
 19 12  1  0
 20 13  1  0
 21 14  2  0
 22  5  1  0
 22 14  1  0
M  END
>  <NAME>  (7390) 
N-ACETYL-GLYCYL-LEUCYL-ALANINE METHYLESTER

>  <SYNONYMS>  (7390) 


>  <SPECTRUM TYPE>  (7390) 
MS1

>  <INSTRUMENT TYPE>  (7390) 
EI-B

>  <INSTRUMENT>  (7390) 
HITACHI RMU-6M

>  <ION MODE>  (7390) 
P

>  <INCHIKEY>  (7390) 
ZHBQZAHXYOMCDR-GXSJLCMTSA-N

>  <FORMULA>  (7390) 
C14H25N3O5

>  <EXACT MASS>  (7390) 
315.1794209

>  <MW>  (7390) 
315

>  <ID>  (7390) 
JP000116

>  <CONTRIBUTOR>  (7390) 
University of Tokyo Team, {Faculty of Engineering, University of Tokyo

>  <COMMENT>  (7390) 
SMILES=CC(=O)NCC(=O)NC([H])(CC(C)C)C(=O)NC([H])(C)C(=O)OC
InChI=InChI=1S/C14H25N3O5/c1-8(2)6-11(17-12(19)7-15-10(4)18)13(20)16-9(3)14(21)22-5/h8-9,11H,6-7H2,1-5H3,(H,15,18)(H,16,20)(H,17,19)/t9-,11+/m0/s1
computed SMILES=O=C(OC)C(N=C(O)C(N=C(O)CN=C(O)C)CC(C)C)C
accession=JP000116
date=2016.01.19 (Created 2008.10.21, modified 2011.05.06)
author=YAMAMOTO M, DEP. CHEMISTRY, FAC. SCIENCE, NARA WOMEN'S UNIV.
license=CC BY-NC-SA
exact mass=315.17942
ionization energy=70 eV
ion type=[M]+*
computed spectral entropy=2.7337841342164655
computed normalized entropy=0.6853334338529338
SPLASH=splash10-000i-9100000000-c86f38afe7bf4ef5bbe2
submitter=submitter = University of Tokyo Team (Faculty of Engineering, University of Tokyo)
MoNA Rating=3.75

>  <NUM PEAKS>  (7390) 
54

>  <MASS SPECTRAL PEAKS>  (7390) 
15 2.7
27 2.9
28 3.1
29 0.31
30 30
31 1.3
39 1.5
41 0.86
42 3.2
43 14.1
44 19.3
45 0.13
54 1.1
55 5.9
56 10.7
57 0.74
58 1
67 1.7
68 1.1
69 0.4
70 5.3
71 3.6
72 8.7
73 0.36
81 1.7
82 1.1
83 2.9
84 0.31
85 2.3
86 99.99
87 5.7
95 0.15
97 2.1
98 2.3
99 3.8
100 0.67
101 1.1
102 1.1
104 3.3
111 0.32
112 1
113 1
127 1.1
143 0.36
149 2.9
155 1.1
167 1
169 0.1
183 2.3
185 8
186 4
213 0.32
224 1.5
259 1.7

$$$$

     RDKit          2D

 22 21  0  0  1  0  0  0  0  0999 V2000
   -1.6238   11.0625    0.0000 C   0  0  0  0  0  0  0  0  0  0  0  0
   -0.3248    8.8125    0.0000 C   0  0  0  0  0  0  0  0  0  0  0  0
   -6.8200    5.0625    0.0000 C   0  0  0  0  0  0  0  0  0  0  0  0
  -10.7171    7.3125    0.0000 C   0  0  0  0  0  0  0  0  0  0  0  0
    4.8714    7.3125    0.0000 C   0  0  0  0  0  0  0  0  0  0  0  0
   -2.9228    8.8125    0.0000 C   0  0  0  0  0  0  0  0  0  0  0  0
    0.9743    6.5625    0.0000 C   0  0  0  0  0  0  0  0  0  0  0  0
   -1.6238    9.5625    0.0000 C   0  0  0  0  0  0  0  0  0  0  0  0
   -6.8200    6.5625    0.0000 C   0  0  0  0  0  0  0  0  0  0  0  0
   -9.4180    6.5625    0.0000 C   0  0  0  0  0  0  0  0  0  0  0  0
   -2.9228    7.3125    0.0000 C   0  0  0  0  0  0  0  0  0  0  0  0
    2.2733    7.3125    0.0000 C   0  0  0  0  0  0  0  0  0  0  0  0
   -5.5209    7.3125    0.0000 C   0  0  0  0  0  0  0  0  0  0  0  0
   -1.6238    6.5625    0.0000 C   0  0  0  0  0  0  0  0  0  0  0  0
   -0.3248    7.3125    0.0000 N   0  0  0  0  0  0  0  0  0  0  0  0
   -8.1190    7.3125    0.0000 N   0  0  0  0  0  0  0  0  0  0  0  0
   -4.2219    6.5625    0.0000 N   0  0  0  0  0  0  0  0  0  0  0  0
   -9.4180    5.0625    0.0000 O   0  0  0  0  0  0  0  0  0  0  0  0
    2.2733    8.8125    0.0000 O   0  0  0  0  0  0  0  0  0  0  0  0
   -5.5209    8.8125    0.0000 O   0  0  0  0  0  0  0  0  0  0  0  0
   -1.6238    5.0625    0.0000 O   0  0  0  0  0  0  0  0  0  0  0  0
    3.5724    6.5625    0.0000 O   0  0  0  0  0  0  0  0  0  0  0  0
  8  1  1  0
  8  2  1  0
  8  6  1  0
  9  3  1  6
 10  4  1  0
 11  6  1  6
 12  7  1  0
 13  9  1  0
 14 11  1  0
 15  7  1  0
 15 14  2  3
 16  9  1  0
 16 10  2  3
 11 17  1  0
 17 13  2  3
 18 10  1  0
 19 12  2  0
 20 13  1  0
 21 14  1  0
 22  5  1  0
 22 12  1  0
M  END
>  <NAME>  (7391) 
N-ACETYL-ALANYL-LEUCYL-GLYCINE METHYLESTER

>  <SYNONYMS>  (7391) 


>  <SPECTRUM TYPE>  (7391) 
MS1

>  <INSTRUMENT TYPE>  (7391) 
EI-B

>  <INSTRUMENT>  (7391) 
HITACHI RMU-6M

>  <ION MODE>  (7391) 
P

>  <INCHIKEY>  (7391) 
YKEYCFCGBQCOIK-GXSJLCMTSA-N

>  <FORMULA>  (7391) 
C14H25N3O5

>  <EXACT MASS>  (7391) 
315.1794209

>  <MW>  (7391) 
315

>  <ID>  (7391) 
JP000115

>  <CONTRIBUTOR>  (7391) 
University of Tokyo Team, {Faculty of Engineering, University of Tokyo

>  <COMMENT>  (7391) 
SMILES=COC(=O)CNC(=O)C([H])(CC(C)C)NC(=O)C([H])(C)NC(C)=O
InChI=InChI=1S/C14H25N3O5/c1-8(2)6-11(14(21)15-7-12(19)22-5)17-13(20)9(3)16-10(4)18/h8-9,11H,6-7H2,1-5H3,(H,15,21)(H,16,18)(H,17,20)/t9-,11+/m0/s1
computed SMILES=O=C(OC)CN=C(O)C(N=C(O)C(N=C(O)C)C)CC(C)C
accession=JP000115
date=2016.01.19 (Created 2008.10.21, modified 2011.05.06)
author=YAMAMOTO M, DEP. CHEMISTRY, FAC. SCIENCE, NARA WOMEN'S UNIV.
license=CC BY-NC-SA
exact mass=315.17942
ionization energy=70 eV
ion type=[M]+*
computed spectral entropy=2.3629937067299243
computed normalized entropy=0.6363128718886061
SPLASH=splash10-000l-9000000000-17936ed2b2446c14b285
submitter=submitter = University of Tokyo Team (Faculty of Engineering, University of Tokyo)
MoNA Rating=3.75

>  <NUM PEAKS>  (7391) 
41

>  <MASS SPECTRAL PEAKS>  (7391) 
15 3
27 3
28 4.9
30 1.42
39 1.9
41 6.4
42 5.2
43 1.54
44 61.4
45 3
53 1.5
54 0.15
55 5.6
56 9.4
57 1.9
59 0.15
61 1.5
67 1.5
68 1.5
69 0.29
70 4.9
83 1.1
84 2.6
85 0.22
86 99.99
87 15.7
88 3.4
90 0.3
98 1.4
99 1.6
112 2.3
114 0.71
141 1.9
144 5.2
169 1.6
187 0.14
199 5.2
200 1.1
227 3
229 0.19
315 1.2

$$$$

     RDKit          2D

 23 22  0  0  1  0  0  0  0  0999 V2000
   -1.6238   11.0625    0.0000 C   0  0  0  0  0  0  0  0  0  0  0  0
   -0.3248    8.8125    0.0000 C   0  0  0  0  0  0  0  0  0  0  0  0
   -6.8200    5.0625    0.0000 C   0  0  0  0  0  0  0  0  0  0  0  0
    0.9743    5.0625    0.0000 C   0  0  0  0  0  0  0  0  0  0  0  0
  -10.7171    7.3125    0.0000 C   0  0  0  0  0  0  0  0  0  0  0  0
    4.8714    7.3125    0.0000 C   0  0  0  0  0  0  0  0  0  0  0  0
   -2.9228    8.8125    0.0000 C   0  0  0  0  0  0  0  0  0  0  0  0
   -1.6238    9.5625    0.0000 C   0  0  0  0  0  0  0  0  0  0  0  0
   -6.8200    6.5625    0.0000 C   0  0  0  0  0  0  0  0  0  0  0  0
    0.9743    6.5625    0.0000 C   0  0  0  0  0  0  0  0  0  0  0  0
   -9.4180    6.5625    0.0000 C   0  0  0  0  0  0  0  0  0  0  0  0
   -2.9228    7.3125    0.0000 C   0  0  0  0  0  0  0  0  0  0  0  0
   -5.5209    7.3125    0.0000 C   0  0  0  0  0  0  0  0  0  0  0  0
   -1.6238    6.5625    0.0000 C   0  0  0  0  0  0  0  0  0  0  0  0
    2.2733    7.3125    0.0000 C   0  0  0  0  0  0  0  0  0  0  0  0
   -8.1190    7.3125    0.0000 N   0  0  0  0  0  0  0  0  0  0  0  0
   -0.3248    7.3125    0.0000 N   0  0  0  0  0  0  0  0  0  0  0  0
   -4.2219    6.5625    0.0000 N   0  0  0  0  0  0  0  0  0  0  0  0
   -9.4180    5.0625    0.0000 O   0  0  0  0  0  0  0  0  0  0  0  0
   -5.5209    8.8125    0.0000 O   0  0  0  0  0  0  0  0  0  0  0  0
   -1.6238    5.0625    0.0000 O   0  0  0  0  0  0  0  0  0  0  0  0
    2.2733    8.8125    0.0000 O   0  0  0  0  0  0  0  0  0  0  0  0
    3.5724    6.5625    0.0000 O   0  0  0  0  0  0  0  0  0  0  0  0
  8  1  1  0
  8  2  1  0
  8  7  1  0
  9  3  1  6
 10  4  1  6
 11  5  1  0
 12  7  1  6
 13  9  1  0
 14 12  1  0
 15 10  1  0
 16  9  1  0
 16 11  2  3
 17 10  1  0
 17 14  2  3
 12 18  1  0
 18 13  2  3
 19 11  1  0
 20 13  1  0
 21 14  1  0
 22 15  2  0
 23  6  1  0
 23 15  1  0
M  END
>  <NAME>  (7392) 
N-ACETYL-ALANYL-LEUCYL-ALANINE METHYLESTER

>  <SYNONYMS>  (7392) 


>  <SPECTRUM TYPE>  (7392) 
MS1

>  <INSTRUMENT TYPE>  (7392) 
EI-B

>  <INSTRUMENT>  (7392) 
HITACHI RMU-6M

>  <ION MODE>  (7392) 
P

>  <INCHIKEY>  (7392) 
AUAGMYCQABLHDY-JBLDHEPKSA-N

>  <FORMULA>  (7392) 
C15H27N3O5

>  <EXACT MASS>  (7392) 
329.195070964

>  <MW>  (7392) 
329

>  <ID>  (7392) 
JP000114

>  <CONTRIBUTOR>  (7392) 
University of Tokyo Team, {Faculty of Engineering, University of Tokyo

>  <COMMENT>  (7392) 
SMILES=COC(=O)C([H])(C)NC(=O)C([H])(CC(C)C)NC(=O)C([H])(C)NC(C)=O
InChI=InChI=1S/C15H27N3O5/c1-8(2)7-12(14(21)17-10(4)15(22)23-6)18-13(20)9(3)16-11(5)19/h8-10,12H,7H2,1-6H3,(H,16,19)(H,17,21)(H,18,20)/t9-,10-,12+/m0/s1
computed SMILES=O=C(OC)C(N=C(O)C(N=C(O)C(N=C(O)C)C)CC(C)C)C
accession=JP000114
date=2016.01.19 (Created 2008.10.21, modified 2011.05.06)
author=YAMAMOTO M, DEP. CHEMISTRY, FAC. SCIENCE, NARA WOMEN'S UNIV.
license=CC BY-NC-SA
exact mass=329.19507
ionization energy=70 eV
ion type=[M]+*
computed spectral entropy=1.9470631307412902
computed normalized entropy=0.5476434647373519
SPLASH=splash10-000i-9000000000-1adbc70553247967d91b
submitter=submitter = University of Tokyo Team (Faculty of Engineering, University of Tokyo)
MoNA Rating=3.75

>  <NUM PEAKS>  (7392) 
35

>  <MASS SPECTRAL PEAKS>  (7392) 
15 2.2
27 1.6
28 2.2
29 0.1
30 7.6
41 2.9
42 3.2
43 0.8
44 48
45 1.6
55 3.5
56 0.13
57 1
59 1.3
69 1.5
70 0.41
72 2.5
84 1.3
86 99.99
87 1.18
98 1.6
99 1.1
102 1.3
104 0.22
126 1.1
141 1.6
158 3.5
183 0.29
199 4.5
200 2.2
201 1.6
227 0.32
243 2.2
273 1
329 0.5

$$$$

     RDKit          2D

 22 21  0  0  1  0  0  0  0  0999 V2000
  -13.3151    7.3125    0.0000 C   0  0  0  0  0  0  0  0  0  0  0  0
    3.5724    6.5625    0.0000 C   0  0  0  0  0  0  0  0  0  0  0  0
   -1.6238    2.0625    0.0000 C   0  0  0  0  0  0  0  0  0  0  0  0
  -12.0161    6.5625    0.0000 C   0  0  0  0  0  0  0  0  0  0  0  0
   -4.2219    5.0625    0.0000 C   0  0  0  0  0  0  0  0  0  0  0  0
   -2.9228    4.3125    0.0000 C   0  0  0  0  0  0  0  0  0  0  0  0
   -0.3248    7.3125    0.0000 C   0  0  0  0  0  0  0  0  0  0  0  0
   -8.1190    7.3125    0.0000 C   0  0  0  0  0  0  0  0  0  0  0  0
    2.2733    7.3125    0.0000 C   0  0  0  0  0  0  0  0  0  0  0  0
   -4.2219    6.5625    0.0000 C   0  0  0  0  0  0  0  0  0  0  0  0
   -1.6238    6.5625    0.0000 C   0  0  0  0  0  0  0  0  0  0  0  0
   -9.4180    6.5625    0.0000 C   0  0  0  0  0  0  0  0  0  0  0  0
   -5.5209    7.3125    0.0000 C   0  0  0  0  0  0  0  0  0  0  0  0
    0.9743    6.5625    0.0000 N   0  0  0  0  0  0  0  0  0  0  0  0
   -6.8200    6.5625    0.0000 N   0  0  0  0  0  0  0  0  0  0  0  0
   -2.9228    7.3125    0.0000 N   0  0  0  0  0  0  0  0  0  0  0  0
    2.2733    8.8125    0.0000 O   0  0  0  0  0  0  0  0  0  0  0  0
   -1.6238    5.0625    0.0000 O   0  0  0  0  0  0  0  0  0  0  0  0
   -9.4180    5.0625    0.0000 O   0  0  0  0  0  0  0  0  0  0  0  0
   -5.5209    8.8125    0.0000 O   0  0  0  0  0  0  0  0  0  0  0  0
  -10.7171    7.3125    0.0000 O   0  0  0  0  0  0  0  0  0  0  0  0
   -2.9228    2.8125    0.0000 S   0  0  0  0  0  0  0  0  0  0  0  0
  4  1  1  0
  6  5  1  0
  9  2  1  0
 10  5  1  6
 11  7  1  0
 12  8  1  0
 13 10  1  0
 14  7  1  0
 14  9  2  3
 15  8  1  0
 15 13  2  3
 10 16  1  0
 16 11  2  3
 17  9  1  0
 18 11  1  0
 19 12  2  0
 20 13  1  0
 21  4  1  0
 21 12  1  0
 22  3  1  0
 22  6  1  0
M  END
>  <NAME>  (7393) 
N-ACETYL-GLYCYL-METHIONYL-GLYCINE ETHYLESTER

>  <SYNONYMS>  (7393) 


>  <SPECTRUM TYPE>  (7393) 
MS1

>  <INSTRUMENT TYPE>  (7393) 
EI-B

>  <INSTRUMENT>  (7393) 
HITACHI RMU-6M

>  <ION MODE>  (7393) 
P

>  <INCHIKEY>  (7393) 
HHRQOICKOIKRLM-SNVBAGLBSA-N

>  <FORMULA>  (7393) 
C13H23N3O5S

>  <EXACT MASS>  (7393) 
333.13584183600005

>  <MW>  (7393) 
333

>  <ID>  (7393) 
JP000113

>  <CONTRIBUTOR>  (7393) 
University of Tokyo Team, {Faculty of Engineering, University of Tokyo

>  <COMMENT>  (7393) 
SMILES=CCOC(=O)CNC(=O)C([H])(CCSC)NC(=O)CNC(C)=O
InChI=InChI=1S/C13H23N3O5S/c1-4-21-12(19)8-15-13(20)10(5-6-22-3)16-11(18)7-14-9(2)17/h10H,4-8H2,1-3H3,(H,14,17)(H,15,20)(H,16,18)/t10-/m1/s1
computed SMILES=O=C(OCC)CN=C(O)C(N=C(O)CN=C(O)C)CCSC
accession=JP000113
date=2016.01.19 (Created 2008.10.21, modified 2011.05.06)
author=YAMAMOTO M, DEP. CHEMISTRY, FAC. SCIENCE, NARA WOMEN'S UNIV.
license=CC BY-NC-SA
exact mass=333.13584
ionization energy=70 eV
ion type=[M]+*
computed spectral entropy=3.6232877378693953
computed normalized entropy=0.7678899236177852
SPLASH=splash10-0ue9-9710000000-368e3799f2da4e1f6994
submitter=submitter = University of Tokyo Team (Faculty of Engineering, University of Tokyo)
MoNA Rating=3.75

>  <NUM PEAKS>  (7393) 
112

>  <MASS SPECTRAL PEAKS>  (7393) 
15 4
26 1.2
27 6.7
28 0.95
29 11.2
30 62.6
31 3.2
39 0.32
40 1.3
41 8.6
42 5.1
43 2.17
44 3.8
45 2.8
46 1.5
47 0.32
48 1.8
55 6.9
56 39.4
57 1.01
58 3
59 1.7
60 1.8
61 2.9
62 1.9
63 2.2
67 2.3
68 0.27
69 3.4
70 2.9
71 3.6
72 1.42
73 7.7
74 4.4
75 3.6
76 0.23
77 1.1
79 1.1
81 2.1
82 0.18
83 3.5
84 2.8
85 4.9
86 0.27
87 2.4
88 3.6
90 1.7
91 0.12
96 2
97 2.4
98 3.4
99 0.56
100 12.7
101 1.7
102 3.2
103 0.14
104 99.99
105 7.3
106 2.8
109 0.12
110 1.2
111 1.7
112 2.9
113 0.34
114 13.3
115 2.7
116 2
117 0.11
125 1.2
127 2.3
128 1.7
130 0.17
131 1.5
138 1.6
139 1.7
141 0.12
143 2.9
149 1.4
156 8
157 0.22
158 3.6
159 3.4
160 5.2
162 0.54
169 6.4
170 1
171 1
173 0.32
185 1.3
186 1.5
187 2.2
189 0.12
202 1.9
203 1.8
213 1.7
217 0.14
219 1.3
224 3.6
230 2.6
231 0.49
232 1.2
241 2
254 1.4
259 5.18
260 8.6
261 1.9
272 2.3
288 0.33
289 1
319 1.2
333 5.1
334 1.4

$$$$

     RDKit          2D

 26 26  0  0  1  0  0  0  0  0999 V2000
    1.6245    0.5079    0.0000 C   0  0  0  0  0  0  0  0  0  0  0  0
   -2.2726    7.2579    0.0000 C   0  0  0  0  0  0  0  0  0  0  0  0
    5.5216    2.7579    0.0000 C   0  0  0  0  0  0  0  0  0  0  0  0
   -6.1697    9.5079    0.0000 C   0  0  0  0  0  0  0  0  0  0  0  0
   -7.4687    4.2579    0.0000 C   0  0  0  0  0  0  0  0  0  0  0  0
   -7.4692    2.7571    0.0000 C   0  0  0  0  0  0  0  0  0  0  0  0
   -6.1692    5.0087    0.0000 C   0  0  0  0  0  0  0  0  0  0  0  0
   -6.1702    2.0071    0.0000 C   0  0  0  0  0  0  0  0  0  0  0  0
   -4.8702    4.2587    0.0000 C   0  0  0  0  0  0  0  0  0  0  0  0
   -3.5716    2.0079    0.0000 C   0  0  0  0  0  0  0  0  0  0  0  0
    1.6245    2.0079    0.0000 C   0  0  0  0  0  0  0  0  0  0  0  0
   -3.5716    6.5079    0.0000 C   0  0  0  0  0  0  0  0  0  0  0  0
    4.2226    2.0079    0.0000 C   0  0  0  0  0  0  0  0  0  0  0  0
   -4.8707    2.7579    0.0000 C   0  0  0  0  0  0  0  0  0  0  0  0
   -2.2726    2.7579    0.0000 C   0  0  0  0  0  0  0  0  0  0  0  0
    0.3255    2.7579    0.0000 C   0  0  0  0  0  0  0  0  0  0  0  0
   -2.2726    4.2579    0.0000 C   0  0  0  0  0  0  0  0  0  0  0  0
   -4.8707    7.2579    0.0000 C   0  0  0  0  0  0  0  0  0  0  0  0
    2.9236    2.7579    0.0000 N   0  0  0  0  0  0  0  0  0  0  0  0
   -3.5716    5.0079    0.0000 N   0  0  0  0  0  0  0  0  0  0  0  0
   -0.9736    2.0079    0.0000 N   0  0  0  0  0  0  0  0  0  0  0  0
    4.2226    0.5079    0.0000 O   0  0  0  0  0  0  0  0  0  0  0  0
    0.3255    4.2579    0.0000 O   0  0  0  0  0  0  0  0  0  0  0  0
   -0.9736    5.0079    0.0000 O   0  0  0  0  0  0  0  0  0  0  0  0
   -6.1697    6.5079    0.0000 O   0  0  0  0  0  0  0  0  0  0  0  0
   -4.8707    8.7579    0.0000 O   0  0  0  0  0  0  0  0  0  0  0  0
  6  5  2  0
  7  5  1  0
  8  6  1  0
  9  7  2  0
 11  1  1  1
 12  2  1  6
 13  3  1  0
 14  8  2  0
 14  9  1  0
 14 10  1  0
 15 10  1  6
 16 11  1  0
 17 15  1  0
 18 12  1  0
 19 11  1  0
 19 13  2  3
 20 12  1  0
 20 17  2  3
 15 21  1  0
 21 16  2  3
 22 13  1  0
 23 16  1  0
 24 17  1  0
 25 18  2  0
 26  4  1  0
 26 18  1  0
M  END
>  <NAME>  (7394) 
N-ACETYL-ALANYL-PHENYLALANYL-ALANINE METHYLESTER

>  <SYNONYMS>  (7394) 


>  <SPECTRUM TYPE>  (7394) 
MS1

>  <INSTRUMENT TYPE>  (7394) 
EI-B

>  <INSTRUMENT>  (7394) 
HITACHI RMU-6M

>  <ION MODE>  (7394) 
P

>  <INCHIKEY>  (7394) 
VYQSQZHRINOMNA-SLEUVZQESA-N

>  <FORMULA>  (7394) 
C18H25N3O5

>  <EXACT MASS>  (7394) 
363.1794209

>  <MW>  (7394) 
363

>  <ID>  (7394) 
JP000112

>  <CONTRIBUTOR>  (7394) 
University of Tokyo Team, {Faculty of Engineering, University of Tokyo

>  <COMMENT>  (7394) 
SMILES=COC(=O)C([H])(C)NC(=O)C([H])(Cc(c1)cccc1)NC(=O)C([H])(C)NC(C)=O
InChI=InChI=1S/C18H25N3O5/c1-11(19-13(3)22)16(23)21-15(10-14-8-6-5-7-9-14)17(24)20-12(2)18(25)26-4/h5-9,11-12,15H,10H2,1-4H3,(H,19,22)(H,20,24)(H,21,23)/t11-,12-,15+/m0/s1
computed SMILES=O=C(OC)C(N=C(O)C(N=C(O)C(N=C(O)C)C)CC=1C=CC=CC1)C
accession=JP000112
date=2016.01.19 (Created 2008.10.21, modified 2011.05.06)
author=YAMAMOTO M, DEP. CHEMISTRY, FAC. SCIENCE, NARA WOMEN'S UNIV.
license=CC BY-NC-SA
exact mass=363.17942
ionization energy=70 eV
ion type=[M]+*
computed spectral entropy=2.7684934475970837
computed normalized entropy=0.694034725453865
SPLASH=splash10-006x-9710000000-2dafa5daed5173667129
submitter=submitter = University of Tokyo Team (Faculty of Engineering, University of Tokyo)
MoNA Rating=3.75

>  <NUM PEAKS>  (7394) 
54

>  <MASS SPECTRAL PEAKS>  (7394) 
15 5.7
27 1.8
28 5.3
29 0.14
30 3
39 1.2
41 1.3
42 0.57
43 15
44 79.2
45 2.7
51 0.1
55 2.2
56 1.5
57 1.5
58 0.15
59 2.8
65 3
70 3.8
72 0.3
77 2.7
78 1.2
86 25
87 0.81
91 11
92 2.8
99 2.7
102 0.37
103 5.3
104 6.1
105 1.3
114 1.85
115 1.3
118 1.6
119 5.5
120 99.99
121 8
127 1.5
128 2.8
131 0.13
132 2.6
146 3.9
147 1.5
159 0.46
174 9.1
175 3.8
217 2.4
232 0.11
233 12.4
234 6.8
235 2.2
261 0.42
363 3.3
364 1.7

$$$$

     RDKit          2D

 25 25  0  0  1  0  0  0  0  0999 V2000
   -2.2726    7.2579    0.0000 C   0  0  0  0  0  0  0  0  0  0  0  0
    5.5216    2.7579    0.0000 C   0  0  0  0  0  0  0  0  0  0  0  0
   -6.1697    9.5079    0.0000 C   0  0  0  0  0  0  0  0  0  0  0  0
   -7.4687    4.2579    0.0000 C   0  0  0  0  0  0  0  0  0  0  0  0
   -7.4692    2.7571    0.0000 C   0  0  0  0  0  0  0  0  0  0  0  0
   -6.1692    5.0087    0.0000 C   0  0  0  0  0  0  0  0  0  0  0  0
   -6.1702    2.0071    0.0000 C   0  0  0  0  0  0  0  0  0  0  0  0
   -4.8702    4.2587    0.0000 C   0  0  0  0  0  0  0  0  0  0  0  0
   -3.5716    2.0079    0.0000 C   0  0  0  0  0  0  0  0  0  0  0  0
    1.6245    2.0079    0.0000 C   0  0  0  0  0  0  0  0  0  0  0  0
   -3.5716    6.5079    0.0000 C   0  0  0  0  0  0  0  0  0  0  0  0
    4.2226    2.0079    0.0000 C   0  0  0  0  0  0  0  0  0  0  0  0
   -4.8707    2.7579    0.0000 C   0  0  0  0  0  0  0  0  0  0  0  0
   -2.2726    2.7579    0.0000 C   0  0  0  0  0  0  0  0  0  0  0  0
    0.3255    2.7579    0.0000 C   0  0  0  0  0  0  0  0  0  0  0  0
   -2.2726    4.2579    0.0000 C   0  0  0  0  0  0  0  0  0  0  0  0
   -4.8707    7.2579    0.0000 C   0  0  0  0  0  0  0  0  0  0  0  0
    2.9236    2.7579    0.0000 N   0  0  0  0  0  0  0  0  0  0  0  0
   -3.5716    5.0079    0.0000 N   0  0  0  0  0  0  0  0  0  0  0  0
   -0.9736    2.0079    0.0000 N   0  0  0  0  0  0  0  0  0  0  0  0
    4.2226    0.5079    0.0000 O   0  0  0  0  0  0  0  0  0  0  0  0
    0.3255    4.2579    0.0000 O   0  0  0  0  0  0  0  0  0  0  0  0
   -0.9736    5.0079    0.0000 O   0  0  0  0  0  0  0  0  0  0  0  0
   -6.1697    6.5079    0.0000 O   0  0  0  0  0  0  0  0  0  0  0  0
   -4.8707    8.7579    0.0000 O   0  0  0  0  0  0  0  0  0  0  0  0
  5  4  2  0
  6  4  1  0
  7  5  1  0
  8  6  2  0
 11  1  1  6
 12  2  1  0
 13  7  2  0
 13  8  1  0
 13  9  1  0
 14  9  1  6
 15 10  1  0
 16 14  1  0
 17 11  1  0
 18 10  1  0
 18 12  2  3
 19 11  1  0
 19 16  2  3
 14 20  1  0
 20 15  2  3
 21 12  1  0
 22 15  1  0
 23 16  1  0
 24 17  2  0
 25  3  1  0
 25 17  1  0
M  END
>  <NAME>  (7395) 
N-ACETYL-GLYCYL-PHENYLALANYL-ALANINE METHYLESTER

>  <SYNONYMS>  (7395) 


>  <SPECTRUM TYPE>  (7395) 
MS1

>  <INSTRUMENT TYPE>  (7395) 
EI-B

>  <INSTRUMENT>  (7395) 
HITACHI RMU-6M

>  <ION MODE>  (7395) 
P

>  <INCHIKEY>  (7395) 
RTYWHWDOFGCNND-SMDDNHRTSA-N

>  <FORMULA>  (7395) 
C17H23N3O5

>  <EXACT MASS>  (7395) 
349.163770836

>  <MW>  (7395) 
349

>  <ID>  (7395) 
JP000111

>  <CONTRIBUTOR>  (7395) 
University of Tokyo Team, {Faculty of Engineering, University of Tokyo

>  <COMMENT>  (7395) 
SMILES=CC(=O)NCC(=O)NC([H])(Cc(c1)cccc1)C(=O)NC([H])(C)C(=O)OC
InChI=InChI=1S/C17H23N3O5/c1-11(17(24)25-3)19-16(23)14(9-13-7-5-4-6-8-13)20-15(22)10-18-12(2)21/h4-8,11,14H,9-10H2,1-3H3,(H,18,21)(H,19,23)(H,20,22)/t11-,14+/m0/s1
computed SMILES=O=C(OC)C(N=C(O)C(N=C(O)CN=C(O)C)CC=1C=CC=CC1)C
accession=JP000111
date=2016.01.19 (Created 2008.10.21, modified 2011.05.06)
author=YAMAMOTO M, DEP. CHEMISTRY, FAC. SCIENCE, NARA WOMEN'S UNIV.
license=CC BY-NC-SA
exact mass=349.16377
ionization energy=70 eV
ion type=[M]+*
computed spectral entropy=3.2615675561409785
computed normalized entropy=0.7729734803280451
SPLASH=splash10-00e9-7910000000-8159f231a0349f4efa89
submitter=submitter = University of Tokyo Team (Faculty of Engineering, University of Tokyo)
MoNA Rating=3.75

>  <NUM PEAKS>  (7395) 
68

>  <MASS SPECTRAL PEAKS>  (7395) 
15 8
27 2.1
28 8.1
29 0.19
30 38
31 2.7
39 1.9
41 0.27
42 5
43 21.7
44 21.8
45 0.17
51 1.6
55 2.3
56 1.8
57 0.24
58 2.5
59 3.2
65 4.4
70 0.48
71 2.3
72 18
73 4.4
77 0.51
78 1.7
85 1.1
89 1.1
90 0.1
91 16.6
92 4.4
93 1.3
99 0.71
100 20
101 1.6
102 4.7
103 0.75
104 7.9
105 1.8
117 2.1
118 0.4
119 8.1
120 99.99
121 10.3
127 0.36
128 3.4
131 16.1
132 3.6
133 0.19
145 4.7
146 1.1
159 11.9
160 0.1
161 1.1
174 16.4
175 2.6
189 0.11
217 2
218 1.7
219 3.7
220 0.22
233 19.5
234 4.5
247 5
290 0.1
317 1.1
318 1
349 9.5
350 2.4

$$$$

     RDKit          2D

 25 25  0  0  1  0  0  0  0  0999 V2000
    1.6245    0.5079    0.0000 C   0  0  0  0  0  0  0  0  0  0  0  0
    5.5216    2.7579    0.0000 C   0  0  0  0  0  0  0  0  0  0  0  0
   -6.1697    9.5079    0.0000 C   0  0  0  0  0  0  0  0  0  0  0  0
   -7.4687    4.2579    0.0000 C   0  0  0  0  0  0  0  0  0  0  0  0
   -7.4692    2.7571    0.0000 C   0  0  0  0  0  0  0  0  0  0  0  0
   -6.1692    5.0087    0.0000 C   0  0  0  0  0  0  0  0  0  0  0  0
   -6.1702    2.0071    0.0000 C   0  0  0  0  0  0  0  0  0  0  0  0
   -4.8702    4.2587    0.0000 C   0  0  0  0  0  0  0  0  0  0  0  0
   -3.5716    2.0079    0.0000 C   0  0  0  0  0  0  0  0  0  0  0  0
   -3.5716    6.5079    0.0000 C   0  0  0  0  0  0  0  0  0  0  0  0
    1.6245    2.0079    0.0000 C   0  0  0  0  0  0  0  0  0  0  0  0
    4.2226    2.0079    0.0000 C   0  0  0  0  0  0  0  0  0  0  0  0
   -4.8707    2.7579    0.0000 C   0  0  0  0  0  0  0  0  0  0  0  0
   -2.2726    2.7579    0.0000 C   0  0  0  0  0  0  0  0  0  0  0  0
   -4.8707    7.2579    0.0000 C   0  0  0  0  0  0  0  0  0  0  0  0
    0.3255    2.7579    0.0000 C   0  0  0  0  0  0  0  0  0  0  0  0
   -2.2726    4.2579    0.0000 C   0  0  0  0  0  0  0  0  0  0  0  0
   -3.5716    5.0079    0.0000 N   0  0  0  0  0  0  0  0  0  0  0  0
    2.9236    2.7579    0.0000 N   0  0  0  0  0  0  0  0  0  0  0  0
   -0.9736    2.0079    0.0000 N   0  0  0  0  0  0  0  0  0  0  0  0
    4.2226    0.5079    0.0000 O   0  0  0  0  0  0  0  0  0  0  0  0
   -6.1697    6.5079    0.0000 O   0  0  0  0  0  0  0  0  0  0  0  0
    0.3255    4.2579    0.0000 O   0  0  0  0  0  0  0  0  0  0  0  0
   -0.9736    5.0079    0.0000 O   0  0  0  0  0  0  0  0  0  0  0  0
   -4.8707    8.7579    0.0000 O   0  0  0  0  0  0  0  0  0  0  0  0
  5  4  2  0
  6  4  1  0
  7  5  1  0
  8  6  2  0
 11  1  1  6
 12  2  1  0
 13  7  2  0
 13  8  1  0
 13  9  1  0
 14  9  1  6
 15 10  1  0
 16 11  1  0
 17 14  1  0
 18 10  1  0
 18 17  2  3
 19 11  1  0
 19 12  2  3
 14 20  1  0
 20 16  2  3
 21 12  1  0
 22 15  2  0
 23 16  1  0
 24 17  1  0
 25  3  1  0
 25 15  1  0
M  END
>  <NAME>  (7396) 
N-ACETYL-ALANYL-PHENYLALANYL-GLYCINE METHYLESTER

>  <SYNONYMS>  (7396) 


>  <SPECTRUM TYPE>  (7396) 
MS1

>  <INSTRUMENT TYPE>  (7396) 
EI-B

>  <INSTRUMENT>  (7396) 
HITACHI RMU-6M

>  <ION MODE>  (7396) 
P

>  <INCHIKEY>  (7396) 
YJHFROAAFUSFCE-BXUZGUMPSA-N

>  <FORMULA>  (7396) 
C17H23N3O5

>  <EXACT MASS>  (7396) 
349.163770836

>  <MW>  (7396) 
349

>  <ID>  (7396) 
JP000110

>  <CONTRIBUTOR>  (7396) 
University of Tokyo Team, {Faculty of Engineering, University of Tokyo

>  <COMMENT>  (7396) 
SMILES=COC(=O)CNC(=O)C([H])(Cc(c1)cccc1)NC(=O)C([H])(C)NC(C)=O
InChI=InChI=1S/C17H23N3O5/c1-11(19-12(2)21)16(23)20-14(9-13-7-5-4-6-8-13)17(24)18-10-15(22)25-3/h4-8,11,14H,9-10H2,1-3H3,(H,18,24)(H,19,21)(H,20,23)/t11-,14-/m1/s1
computed SMILES=O=C(OC)CN=C(O)C(N=C(O)C(N=C(O)C)C)CC=1C=CC=CC1
accession=JP000110
date=2016.01.19 (Created 2008.10.21, modified 2011.05.06)
author=YAMAMOTO M, DEP. CHEMISTRY, FAC. SCIENCE, NARA WOMEN'S UNIV.
license=CC BY-NC-SA
exact mass=349.16377
ionization energy=70 eV
ion type=[M]+*
computed spectral entropy=3.3286954672392084
computed normalized entropy=0.7453569081134664
SPLASH=splash10-006x-9610000000-cb3179bef4e76d5ab994
submitter=submitter = University of Tokyo Team (Faculty of Engineering, University of Tokyo)
MoNA Rating=3.75

>  <NUM PEAKS>  (7396) 
87

>  <MASS SPECTRAL PEAKS>  (7396) 
15 5
27 2.9
28 7
29 0.38
30 10.7
31 1.3
39 2.5
41 0.32
42 7.2
43 22.2
44 96.5
45 0.42
51 2.5
55 3.9
56 6.9
57 0.43
58 1.2
59 3.1
60 1.2
63 0.13
65 3.9
68 1.3
69 2.7
70 0.26
71 1.9
72 4.9
74 1.8
77 0.46
78 3.3
83 2.1
84 1.5
85 0.31
86 35.9
87 14.9
88 4.3
89 0.23
90 4.6
91 16.6
92 4.7
93 0.19
97 1.3
99 1.3
102 1.8
103 0.77
104 4.7
105 3.5
112 1.4
113 0.37
114 29.7
115 3.7
116 1.1
117 0.27
118 4.2
119 7.2
120 99.99
121 1.07
128 4.2
130 1.6
131 16.9
132 0.42
145 5.3
146 13.4
147 3.4
149 0.13
159 1
160 3.2
175 3.2
187 0.2
189 1
203 2.3
218 7.6
219 1.9
220 11.2
221 3.4
232 1.1
233 0.41
234 1.5
236 2.8
260 1.9
261 0.59
262 1
263 2.5
305 3.4
306 0.13
318 2.5
349 6.3
350 2.3

$$$$

     RDKit          2D

 24 24  0  0  1  0  0  0  0  0999 V2000
    5.5216    2.7579    0.0000 C   0  0  0  0  0  0  0  0  0  0  0  0
   -6.1697    9.5079    0.0000 C   0  0  0  0  0  0  0  0  0  0  0  0
   -7.4687    4.2579    0.0000 C   0  0  0  0  0  0  0  0  0  0  0  0
   -7.4692    2.7571    0.0000 C   0  0  0  0  0  0  0  0  0  0  0  0
   -6.1692    5.0087    0.0000 C   0  0  0  0  0  0  0  0  0  0  0  0
   -6.1702    2.0071    0.0000 C   0  0  0  0  0  0  0  0  0  0  0  0
   -4.8702    4.2587    0.0000 C   0  0  0  0  0  0  0  0  0  0  0  0
   -3.5716    2.0079    0.0000 C   0  0  0  0  0  0  0  0  0  0  0  0
    1.6245    2.0079    0.0000 C   0  0  0  0  0  0  0  0  0  0  0  0
   -3.5716    6.5079    0.0000 C   0  0  0  0  0  0  0  0  0  0  0  0
    4.2226    2.0079    0.0000 C   0  0  0  0  0  0  0  0  0  0  0  0
   -4.8707    2.7579    0.0000 C   0  0  0  0  0  0  0  0  0  0  0  0
   -2.2726    2.7579    0.0000 C   0  0  0  0  0  0  0  0  0  0  0  0
    0.3255    2.7579    0.0000 C   0  0  0  0  0  0  0  0  0  0  0  0
   -4.8707    7.2579    0.0000 C   0  0  0  0  0  0  0  0  0  0  0  0
   -2.2726    4.2579    0.0000 C   0  0  0  0  0  0  0  0  0  0  0  0
    2.9236    2.7579    0.0000 N   0  0  0  0  0  0  0  0  0  0  0  0
   -3.5716    5.0079    0.0000 N   0  0  0  0  0  0  0  0  0  0  0  0
   -0.9736    2.0079    0.0000 N   0  0  0  0  0  0  0  0  0  0  0  0
    4.2226    0.5079    0.0000 O   0  0  0  0  0  0  0  0  0  0  0  0
    0.3255    4.2579    0.0000 O   0  0  0  0  0  0  0  0  0  0  0  0
   -6.1697    6.5079    0.0000 O   0  0  0  0  0  0  0  0  0  0  0  0
   -0.9736    5.0079    0.0000 O   0  0  0  0  0  0  0  0  0  0  0  0
   -4.8707    8.7579    0.0000 O   0  0  0  0  0  0  0  0  0  0  0  0
  4  3  2  0
  5  3  1  0
  6  4  1  0
  7  5  2  0
 11  1  1  0
 12  6  2  0
 12  7  1  0
 12  8  1  0
 13  8  1  6
 14  9  1  0
 15 10  1  0
 16 13  1  0
 17  9  1  0
 17 11  2  3
 18 10  1  0
 18 16  2  3
 13 19  1  0
 19 14  2  3
 20 11  1  0
 21 14  1  0
 22 15  2  0
 23 16  1  0
 24  2  1  0
 24 15  1  0
M  END
>  <NAME>  (7397) 
N-ACETYL-GLYCYL-PHENYLALANYL-GLYCINE METHYLESTER

>  <SYNONYMS>  (7397) 


>  <SPECTRUM TYPE>  (7397) 
MS1

>  <INSTRUMENT TYPE>  (7397) 
EI-B

>  <INSTRUMENT>  (7397) 
HITACHI RMU-6M

>  <ION MODE>  (7397) 
P

>  <INCHIKEY>  (7397) 
ZTAIDJDGBMPCMR-CYBMUJFWSA-N

>  <FORMULA>  (7397) 
C16H21N3O5

>  <EXACT MASS>  (7397) 
335.14812077199997

>  <MW>  (7397) 
335

>  <ID>  (7397) 
JP000109

>  <CONTRIBUTOR>  (7397) 
University of Tokyo Team, {Faculty of Engineering, University of Tokyo

>  <COMMENT>  (7397) 
SMILES=COC(=O)CNC(=O)C([H])(NC(=O)CNC(C)=O)Cc(c1)cccc1
InChI=InChI=1S/C16H21N3O5/c1-11(20)17-9-14(21)19-13(8-12-6-4-3-5-7-12)16(23)18-10-15(22)24-2/h3-7,13H,8-10H2,1-2H3,(H,17,20)(H,18,23)(H,19,21)/t13-/m1/s1
computed SMILES=O=C(OC)CN=C(O)C(N=C(O)CN=C(O)C)CC=1C=CC=CC1
accession=JP000109
date=2016.01.19 (Created 2008.10.21, modified 2011.05.06)
author=YAMAMOTO M, DEP. CHEMISTRY, FAC. SCIENCE, NARA WOMEN'S UNIV.
license=CC BY-NC-SA
exact mass=335.14812
ionization energy=70 eV
ion type=[M]+*
computed spectral entropy=3.2616782516477723
computed normalized entropy=0.7677255277034103
SPLASH=splash10-00di-6920000000-b559091fb0443ab4d6d2
submitter=submitter = University of Tokyo Team (Faculty of Engineering, University of Tokyo)
MoNA Rating=3.75

>  <NUM PEAKS>  (7397) 
70

>  <MASS SPECTRAL PEAKS>  (7397) 
27 1.4
28 7.6
29 2.9
30 6.37
31 4.1
39 2.4
41 3.4
42 2.45
43 24.5
44 5.4
45 2.7
51 0.22
55 3.2
56 7.2
57 3.2
58 1.3
59 1.6
63 1.1
65 5.3
69 0.15
71 1.7
72 23.3
73 5.3
77 0.48
78 2
85 5.7
86 1.5
88 0.41
89 1.5
90 4
91 20.6
92 0.54
93 1.7
100 30.7
101 1.7
102 0.14
103 9.4
104 4.2
105 1.5
113 0.42
114 1.5
117 4
118 3.9
119 0.83
120 99.99
121 9.5
128 4.1
130 0.15
131 8
132 4.3
133 1.6
145 1.27
146 18.1
147 2.2
149 1.1
160 0.27
161 1
175 1.3
186 1.1
187 0.14
203 1.7
218 10.3
219 29.9
220 0.78
221 1.1
246 1.4
247 3.9
304 0.13
335 5.5
336 1.4

$$$$

     RDKit          2D

 28 28  0  0  1  0  0  0  0  0999 V2000
    2.9236   -0.2421    0.0000 C   0  0  0  0  0  0  0  0  0  0  0  0
    0.3255   -0.2421    0.0000 C   0  0  0  0  0  0  0  0  0  0  0  0
   -2.2726    7.2579    0.0000 C   0  0  0  0  0  0  0  0  0  0  0  0
    5.5216    2.7579    0.0000 C   0  0  0  0  0  0  0  0  0  0  0  0
   -6.1697    9.5079    0.0000 C   0  0  0  0  0  0  0  0  0  0  0  0
   -7.4687    4.2579    0.0000 C   0  0  0  0  0  0  0  0  0  0  0  0
   -7.4692    2.7571    0.0000 C   0  0  0  0  0  0  0  0  0  0  0  0
   -6.1692    5.0087    0.0000 C   0  0  0  0  0  0  0  0  0  0  0  0
   -6.1702    2.0071    0.0000 C   0  0  0  0  0  0  0  0  0  0  0  0
   -4.8702    4.2587    0.0000 C   0  0  0  0  0  0  0  0  0  0  0  0
   -3.5716    2.0079    0.0000 C   0  0  0  0  0  0  0  0  0  0  0  0
    1.6245    0.5079    0.0000 C   0  0  0  0  0  0  0  0  0  0  0  0
   -3.5716    6.5079    0.0000 C   0  0  0  0  0  0  0  0  0  0  0  0
    4.2226    2.0079    0.0000 C   0  0  0  0  0  0  0  0  0  0  0  0
   -4.8707    2.7579    0.0000 C   0  0  0  0  0  0  0  0  0  0  0  0
   -2.2726    2.7579    0.0000 C   0  0  0  0  0  0  0  0  0  0  0  0
    1.6245    2.0079    0.0000 C   0  0  0  0  0  0  0  0  0  0  0  0
   -2.2726    4.2579    0.0000 C   0  0  0  0  0  0  0  0  0  0  0  0
    0.3255    2.7579    0.0000 C   0  0  0  0  0  0  0  0  0  0  0  0
   -4.8707    7.2579    0.0000 C   0  0  0  0  0  0  0  0  0  0  0  0
   -3.5716    5.0079    0.0000 N   0  0  0  0  0  0  0  0  0  0  0  0
    2.9236    2.7579    0.0000 N   0  0  0  0  0  0  0  0  0  0  0  0
   -0.9736    2.0079    0.0000 N   0  0  0  0  0  0  0  0  0  0  0  0
    4.2226    0.5079    0.0000 O   0  0  0  0  0  0  0  0  0  0  0  0
   -0.9736    5.0079    0.0000 O   0  0  0  0  0  0  0  0  0  0  0  0
    0.3255    4.2579    0.0000 O   0  0  0  0  0  0  0  0  0  0  0  0
   -6.1697    6.5079    0.0000 O   0  0  0  0  0  0  0  0  0  0  0  0
   -4.8707    8.7579    0.0000 O   0  0  0  0  0  0  0  0  0  0  0  0
  7  6  2  0
  8  6  1  0
  9  7  1  0
 10  8  2  0
 12  1  1  0
 12  2  1  0
 13  3  1  6
 14  4  1  0
 15  9  2  0
 15 10  1  0
 15 11  1  0
 16 11  1  6
 17 12  1  0
 18 16  1  0
 19 17  1  0
 20 13  1  0
 21 13  1  0
 21 18  2  3
 22 14  2  3
 17 22  1  6
 16 23  1  0
 23 19  2  3
 24 14  1  0
 25 18  1  0
 26 19  1  0
 27 20  2  0
 28  5  1  0
 28 20  1  0
M  END
>  <NAME>  (7398) 
N-ACETYL-VALYL-PHENYLALANYL-ALANINE METHYLESTER

>  <SYNONYMS>  (7398) 


>  <SPECTRUM TYPE>  (7398) 
MS1

>  <INSTRUMENT TYPE>  (7398) 
EI-B

>  <INSTRUMENT>  (7398) 
HITACHI RMU-6M

>  <ION MODE>  (7398) 
P

>  <INCHIKEY>  (7398) 
ZDXDAKFLQBLHBZ-IAOVAPTHSA-N

>  <FORMULA>  (7398) 
C20H29N3O5

>  <EXACT MASS>  (7398) 
391.210721028

>  <MW>  (7398) 
391

>  <ID>  (7398) 
JP000108

>  <CONTRIBUTOR>  (7398) 
University of Tokyo Team, {Faculty of Engineering, University of Tokyo

>  <COMMENT>  (7398) 
SMILES=COC(=O)C([H])(C)NC(=O)C([H])(Cc(c1)cccc1)NC(=O)C([H])(NC(C)=O)C(C)C
InChI=InChI=1S/C20H29N3O5/c1-12(2)17(22-14(4)24)19(26)23-16(11-15-9-7-6-8-10-15)18(25)21-13(3)20(27)28-5/h6-10,12-13,16-17H,11H2,1-5H3,(H,21,25)(H,22,24)(H,23,26)/t13-,16+,17+/m0/s1
computed SMILES=O=C(OC)C(N=C(O)C(N=C(O)C(N=C(O)C)C(C)C)CC=1C=CC=CC1)C
accession=JP000108
date=2016.01.19 (Created 2008.10.21, modified 2011.05.06)
author=YAMAMOTO M, DEP. CHEMISTRY, FAC. SCIENCE, NARA WOMEN'S UNIV.
license=CC BY-NC-SA
exact mass=391.21072
ionization energy=70 eV
ion type=[M]+*
computed spectral entropy=3.3481133530168385
computed normalized entropy=0.7684960106826496
SPLASH=splash10-00dl-5910000000-ceaf83fcc7edcc07137e
submitter=submitter = University of Tokyo Team (Faculty of Engineering, University of Tokyo)
MoNA Rating=3.75

>  <NUM PEAKS>  (7398) 
78

>  <MASS SPECTRAL PEAKS>  (7398) 
15 7.7
27 3.3
28 8.7
29 0.4
30 6.9
31 1.1
39 2.3
41 0.53
42 4.2
43 19.9
44 19.6
51 0.12
54 1.1
55 17
56 5.9
57 0.4
58 6.5
59 2.9
60 2.7
65 0.23
69 2.5
70 5.2
71 2.6
72 7.15
73 4.3
77 3.1
78 1.4
83 0.18
91 1.3
92 3.3
93 1.2
99 0.32
100 4.5
102 4.2
103 5.7
104 0.7
105 1.6
112 1.1
114 39.3
115 0.88
117 1.3
118 2.1
119 7.2
120 99.99
121 10.2
127 1.2
128 3.5
131 1.06
132 2.3
142 21.9
143 2
146 0.38
147 1.2
159 3.4
174 11.7
175 0.32
189 1.2
203 1.2
217 2.3
218 0.11
229 1.2
233 11.5
234 10.2
235 0.35
247 1.2
250 2.8
251 1.6
261 1.5
262 0.18
277 2.1
288 1.3
289 4.5
290 0.12
348 1
360 1.3
391 0.97
392 3.2
393 1

$$$$

     RDKit          2D

 25 24  0  0  1  0  0  0  0  0999 V2000
   -6.4952    3.7500    0.0000 C   0  0  0  0  0  0  0  0  0  0  0  0
   -3.8971    3.7500    0.0000 C   0  0  0  0  0  0  0  0  0  0  0  0
    1.2990    3.7500    0.0000 C   0  0  0  0  0  0  0  0  0  0  0  0
   -1.2990    3.7500    0.0000 C   0  0  0  0  0  0  0  0  0  0  0  0
   -3.8971   11.2500    0.0000 C   0  0  0  0  0  0  0  0  0  0  0  0
    3.8971    6.7500    0.0000 C   0  0  0  0  0  0  0  0  0  0  0  0
   -7.7942   13.5000    0.0000 C   0  0  0  0  0  0  0  0  0  0  0  0
   -5.1962    6.0000    0.0000 C   0  0  0  0  0  0  0  0  0  0  0  0
   -5.1962    4.5000    0.0000 C   0  0  0  0  0  0  0  0  0  0  0  0
    0.0000    4.5000    0.0000 C   0  0  0  0  0  0  0  0  0  0  0  0
   -5.1962   10.5000    0.0000 C   0  0  0  0  0  0  0  0  0  0  0  0
    2.5981    6.0000    0.0000 C   0  0  0  0  0  0  0  0  0  0  0  0
   -3.8971    6.7500    0.0000 C   0  0  0  0  0  0  0  0  0  0  0  0
    0.0000    6.0000    0.0000 C   0  0  0  0  0  0  0  0  0  0  0  0
   -3.8971    8.2500    0.0000 C   0  0  0  0  0  0  0  0  0  0  0  0
   -1.2990    6.7500    0.0000 C   0  0  0  0  0  0  0  0  0  0  0  0
   -6.4952   11.2500    0.0000 C   0  0  0  0  0  0  0  0  0  0  0  0
   -5.1962    9.0000    0.0000 N   0  0  0  0  0  0  0  0  0  0  0  0
    1.2990    6.7500    0.0000 N   0  0  0  0  0  0  0  0  0  0  0  0
   -2.5981    6.0000    0.0000 N   0  0  0  0  0  0  0  0  0  0  0  0
    2.5981    4.5000    0.0000 O   0  0  0  0  0  0  0  0  0  0  0  0
   -2.5981    9.0000    0.0000 O   0  0  0  0  0  0  0  0  0  0  0  0
   -1.2990    8.2500    0.0000 O   0  0  0  0  0  0  0  0  0  0  0  0
   -7.7942   10.5000    0.0000 O   0  0  0  0  0  0  0  0  0  0  0  0
   -6.4952   12.7500    0.0000 O   0  0  0  0  0  0  0  0  0  0  0  0
  9  1  1  0
  9  2  1  0
  9  8  1  0
 10  3  1  0
 10  4  1  0
 11  5  1  6
 12  6  1  0
 13  8  1  1
 14 10  1  0
 15 13  1  0
 16 14  1  0
 17 11  1  0
 18 11  1  0
 18 15  2  3
 19 12  2  3
 14 19  1  1
 13 20  1  0
 20 16  2  3
 21 12  1  0
 22 15  1  0
 23 16  1  0
 24 17  2  0
 25  7  1  0
 25 17  1  0
M  END
>  <NAME>  (7399) 
N-ACETYL-VALYL-LEUCYL-ALANINE METHYLESTER

>  <SYNONYMS>  (7399) 


>  <SPECTRUM TYPE>  (7399) 
MS1

>  <INSTRUMENT TYPE>  (7399) 
EI-B

>  <INSTRUMENT>  (7399) 
HITACHI RMU-6M

>  <ION MODE>  (7399) 
P

>  <INCHIKEY>  (7399) 
BIVNJYGJTYZEIL-UBHSHLNASA-N

>  <FORMULA>  (7399) 
C17H31N3O5

>  <EXACT MASS>  (7399) 
357.22637109199997

>  <MW>  (7399) 
357

>  <ID>  (7399) 
JP000107

>  <CONTRIBUTOR>  (7399) 
University of Tokyo Team, {Faculty of Engineering, University of Tokyo

>  <COMMENT>  (7399) 
SMILES=COC(=O)C([H])(C)NC(=O)C([H])(CC(C)C)NC(=O)C([H])(NC(C)=O)C(C)C
InChI=InChI=1S/C17H31N3O5/c1-9(2)8-13(15(22)18-11(5)17(24)25-7)20-16(23)14(10(3)4)19-12(6)21/h9-11,13-14H,8H2,1-7H3,(H,18,22)(H,19,21)(H,20,23)/t11-,13-,14-/m0/s1
computed SMILES=O=C(OC)C(N=C(O)C(N=C(O)C(N=C(O)C)C(C)C)CC(C)C)C
accession=JP000107
date=2016.01.19 (Created 2008.10.21, modified 2011.05.06)
author=YAMAMOTO M, DEP. CHEMISTRY, FAC. SCIENCE, NARA WOMEN'S UNIV.
license=CC BY-NC-SA
exact mass=357.22637
ionization energy=70 eV
ion type=[M]+*
computed spectral entropy=2.7245170620294674
computed normalized entropy=0.707639639794423
SPLASH=splash10-000i-9200000000-812ce3afc52d4fbd2c4d
submitter=submitter = University of Tokyo Team (Faculty of Engineering, University of Tokyo)
MoNA Rating=3.75

>  <NUM PEAKS>  (7399) 
47

>  <MASS SPECTRAL PEAKS>  (7399) 
15 5.2
27 2.7
28 4.3
29 0.27
30 12.7
39 1.2
41 5
42 0.34
43 11.9
44 16.4
55 9.5
56 0.36
57 2.6
58 3.8
59 1.7
60 0.15
69 2.5
70 5.1
71 1.5
72 3.63
73 2.3
83 1.3
84 1.6
85 0.11
86 99.99
87 6.7
98 1.9
99 0.12
100 3.4
102 2.1
104 2.5
113 0.15
114 21
115 6.1
126 1.1
141 0.15
142 6.6
158 2.7
169 1.1
183 0.2
202 1.4
227 6.3
228 3
243 0.15
255 2.7
301 3.2
357 0.6

$$$$

     RDKit          2D

 24 23  0  0  1  0  0  0  0  0999 V2000
   -4.8714    2.4375    0.0000 C   0  0  0  0  0  0  0  0  0  0  0  0
   -6.1704    4.6875    0.0000 C   0  0  0  0  0  0  0  0  0  0  0  0
    1.6238    9.1875    0.0000 C   0  0  0  0  0  0  0  0  0  0  0  0
   -0.9743    9.1875    0.0000 C   0  0  0  0  0  0  0  0  0  0  0  0
    4.2219    6.1875    0.0000 C   0  0  0  0  0  0  0  0  0  0  0  0
  -11.3666    6.1875    0.0000 C   0  0  0  0  0  0  0  0  0  0  0  0
   -3.5724    4.6875    0.0000 C   0  0  0  0  0  0  0  0  0  0  0  0
   -7.4695    6.9375    0.0000 C   0  0  0  0  0  0  0  0  0  0  0  0
   -4.8714    3.9375    0.0000 C   0  0  0  0  0  0  0  0  0  0  0  0
    0.3248    8.4375    0.0000 C   0  0  0  0  0  0  0  0  0  0  0  0
    2.9228    6.9375    0.0000 C   0  0  0  0  0  0  0  0  0  0  0  0
   -3.5724    6.1875    0.0000 C   0  0  0  0  0  0  0  0  0  0  0  0
   -8.7685    6.1875    0.0000 C   0  0  0  0  0  0  0  0  0  0  0  0
    0.3248    6.9375    0.0000 C   0  0  0  0  0  0  0  0  0  0  0  0
   -4.8714    6.9375    0.0000 C   0  0  0  0  0  0  0  0  0  0  0  0
   -0.9743    6.1875    0.0000 C   0  0  0  0  0  0  0  0  0  0  0  0
   -6.1704    6.1875    0.0000 N   0  0  0  0  0  0  0  0  0  0  0  0
    1.6238    6.1875    0.0000 N   0  0  0  0  0  0  0  0  0  0  0  0
   -2.2733    6.9375    0.0000 N   0  0  0  0  0  0  0  0  0  0  0  0
    2.9228    8.4375    0.0000 O   0  0  0  0  0  0  0  0  0  0  0  0
   -8.7685    4.6875    0.0000 O   0  0  0  0  0  0  0  0  0  0  0  0
   -4.8714    8.4375    0.0000 O   0  0  0  0  0  0  0  0  0  0  0  0
   -0.9743    4.6875    0.0000 O   0  0  0  0  0  0  0  0  0  0  0  0
  -10.0675    6.9375    0.0000 O   0  0  0  0  0  0  0  0  0  0  0  0
  9  1  1  0
  9  2  1  0
  9  7  1  0
 10  3  1  0
 10  4  1  0
 11  5  1  0
 12  7  1  1
 13  8  1  0
 14 10  1  0
 15 12  1  0
 16 14  1  0
 17  8  1  0
 17 15  2  3
 18 11  2  3
 14 18  1  6
 12 19  1  0
 19 16  2  3
 20 11  1  0
 21 13  2  0
 22 15  1  0
 23 16  1  0
 24  6  1  0
 24 13  1  0
M  END
>  <NAME>  (7400) 
N-ACETYL-VALYL-LEUCYL-GLYCINE METHYLESTER

>  <SYNONYMS>  (7400) 


>  <SPECTRUM TYPE>  (7400) 
MS1

>  <INSTRUMENT TYPE>  (7400) 
EI-B

>  <INSTRUMENT>  (7400) 
HITACHI RMU-6M

>  <ION MODE>  (7400) 
P

>  <INCHIKEY>  (7400) 
KGIAKTQRGZGRTM-JSGCOSHPSA-N

>  <FORMULA>  (7400) 
C16H29N3O5

>  <EXACT MASS>  (7400) 
343.210721028

>  <MW>  (7400) 
343

>  <ID>  (7400) 
JP000106

>  <CONTRIBUTOR>  (7400) 
University of Tokyo Team, {Faculty of Engineering, University of Tokyo

>  <COMMENT>  (7400) 
SMILES=COC(=O)CNC(=O)C([H])(CC(C)C)NC(=O)C([H])(NC(C)=O)C(C)C
InChI=InChI=1S/C16H29N3O5/c1-9(2)7-12(15(22)17-8-13(21)24-6)19-16(23)14(10(3)4)18-11(5)20/h9-10,12,14H,7-8H2,1-6H3,(H,17,22)(H,18,20)(H,19,23)/t12-,14-/m0/s1
computed SMILES=O=C(OC)CN=C(O)C(N=C(O)C(N=C(O)C)C(C)C)CC(C)C
accession=JP000106
date=2016.01.19 (Created 2008.10.21, modified 2011.05.06)
author=YAMAMOTO M, DEP. CHEMISTRY, FAC. SCIENCE, NARA WOMEN'S UNIV.
license=CC BY-NC-SA
exact mass=343.21072
ionization energy=70 eV
ion type=[M]+*
computed spectral entropy=2.534447797248216
computed normalized entropy=0.6780823497214913
SPLASH=splash10-000i-9100000000-d8abfed2af933339f07a
submitter=submitter = University of Tokyo Team (Faculty of Engineering, University of Tokyo)
MoNA Rating=3.75

>  <NUM PEAKS>  (7400) 
42

>  <MASS SPECTRAL PEAKS>  (7400) 
15 3.7
27 3
28 4.7
29 0.31
30 18
39 1.3
41 5.9
42 0.21
43 12.7
44 8.3
55 10.1
56 0.37
57 2.2
58 2.9
60 2.3
69 0.21
70 3.7
71 1.6
72 43
73 0.25
83 1.3
84 2.1
85 1.4
86 99.99
87 6.5
88 2.3
90 2.4
100 0.37
112 1.2
113 1.3
114 24.3
115 0.84
141 1.5
144 2.7
169 1.2
187 0.17
227 8.5
228 1.9
229 1.2
255 0.16
287 2.4
343 0.4

$$$$

     RDKit          2D

 21 20  0  0  1  0  0  0  0  0999 V2000
    1.6238    9.1875    0.0000 C   0  0  0  0  0  0  0  0  0  0  0  0
   -0.9743    9.1875    0.0000 C   0  0  0  0  0  0  0  0  0  0  0  0
   -7.4695    8.4375    0.0000 C   0  0  0  0  0  0  0  0  0  0  0  0
    4.2219    6.1875    0.0000 C   0  0  0  0  0  0  0  0  0  0  0  0
  -11.3666    6.1875    0.0000 C   0  0  0  0  0  0  0  0  0  0  0  0
   -3.5724    6.1875    0.0000 C   0  0  0  0  0  0  0  0  0  0  0  0
    0.3248    8.4375    0.0000 C   0  0  0  0  0  0  0  0  0  0  0  0
   -7.4695    6.9375    0.0000 C   0  0  0  0  0  0  0  0  0  0  0  0
    2.9228    6.9375    0.0000 C   0  0  0  0  0  0  0  0  0  0  0  0
   -4.8714    6.9375    0.0000 C   0  0  0  0  0  0  0  0  0  0  0  0
    0.3248    6.9375    0.0000 C   0  0  0  0  0  0  0  0  0  0  0  0
   -0.9743    6.1875    0.0000 C   0  0  0  0  0  0  0  0  0  0  0  0
   -8.7685    6.1875    0.0000 C   0  0  0  0  0  0  0  0  0  0  0  0
   -2.2733    6.9375    0.0000 N   0  0  0  0  0  0  0  0  0  0  0  0
   -6.1704    6.1875    0.0000 N   0  0  0  0  0  0  0  0  0  0  0  0
    1.6238    6.1875    0.0000 N   0  0  0  0  0  0  0  0  0  0  0  0
    2.9228    8.4375    0.0000 O   0  0  0  0  0  0  0  0  0  0  0  0
   -4.8714    8.4375    0.0000 O   0  0  0  0  0  0  0  0  0  0  0  0
   -0.9743    4.6875    0.0000 O   0  0  0  0  0  0  0  0  0  0  0  0
   -8.7685    4.6875    0.0000 O   0  0  0  0  0  0  0  0  0  0  0  0
  -10.0675    6.9375    0.0000 O   0  0  0  0  0  0  0  0  0  0  0  0
  7  1  1  0
  7  2  1  0
  8  3  1  6
  9  4  1  0
 10  6  1  0
 11  7  1  0
 12 11  1  0
 13  8  1  0
 14  6  1  0
 14 12  2  3
 15  8  1  0
 15 10  2  3
 16  9  2  3
 11 16  1  6
 17  9  1  0
 18 10  1  0
 19 12  1  0
 20 13  2  0
 21  5  1  0
 21 13  1  0
M  END
>  <NAME>  (7401) 
N-ACETYL-VALYL-GLYCYL-ALANINE METHYLESTER

>  <SYNONYMS>  (7401) 


>  <SPECTRUM TYPE>  (7401) 
MS1

>  <INSTRUMENT TYPE>  (7401) 
EI-B

>  <INSTRUMENT>  (7401) 
HITACHI RMU-6M

>  <ION MODE>  (7401) 
P

>  <INCHIKEY>  (7401) 
YJRCHSYSXSJNIJ-KWQFWETISA-N

>  <FORMULA>  (7401) 
C13H23N3O5

>  <EXACT MASS>  (7401) 
301.163770836

>  <MW>  (7401) 
301

>  <ID>  (7401) 
JP000105

>  <CONTRIBUTOR>  (7401) 
University of Tokyo Team, {Faculty of Engineering, University of Tokyo

>  <COMMENT>  (7401) 
SMILES=COC(=O)C([H])(C)NC(=O)CNC(=O)C([H])(NC(C)=O)C(C)C
InChI=InChI=1S/C13H23N3O5/c1-7(2)11(16-9(4)17)12(19)14-6-10(18)15-8(3)13(20)21-5/h7-8,11H,6H2,1-5H3,(H,14,19)(H,15,18)(H,16,17)/t8-,11-/m0/s1
computed SMILES=O=C(OC)C(N=C(O)CN=C(O)C(N=C(O)C)C(C)C)C
accession=JP000105
date=2016.01.19 (Created 2008.10.21, modified 2011.05.06)
author=YAMAMOTO M, DEP. CHEMISTRY, FAC. SCIENCE, NARA WOMEN'S UNIV.
license=CC BY-NC-SA
exact mass=301.16377
ionization energy=70 eV
ion type=[M]+*
computed spectral entropy=3.0016620177307503
computed normalized entropy=0.7524878472041251
SPLASH=splash10-00dl-9200000000-df1041cd3e7b5e1e460e
submitter=submitter = University of Tokyo Team (Faculty of Engineering, University of Tokyo)
MoNA Rating=3.75

>  <NUM PEAKS>  (7401) 
54

>  <MASS SPECTRAL PEAKS>  (7401) 
15 12.1
27 4.1
28 10.6
29 0.51
30 27.4
31 1.1
39 2.2
41 0.52
42 5.6
43 24
44 32.5
45 0.15
54 1.1
55 17.7
56 9.1
57 0.67
58 7.3
59 2.4
60 4.8
69 0.29
70 4.4
71 2.1
72 99.99
73 0.63
83 2.7
84 1.6
85 4
86 0.16
98 1.7
99 2.7
100 7
101 0.16
102 2.2
104 5.4
113 8.7
114 6.7
115 24
116 1.8
127 2.7
128 0.12
142 12.7
143 1.3
145 2.5
156 0.13
161 2.3
172 1.2
173 3.4
199 1.21
200 1.5
242 9.1
243 1.4
259 0.15
301 1.1
302 1.1

$$$$

     RDKit          2D

 21 20  0  0  1  0  0  0  0  0999 V2000
    1.6238    9.1875    0.0000 C   0  0  0  0  0  0  0  0  0  0  0  0
   -0.9743    9.1875    0.0000 C   0  0  0  0  0  0  0  0  0  0  0  0
   -3.5724    4.6875    0.0000 C   0  0  0  0  0  0  0  0  0  0  0  0
    4.2219    6.1875    0.0000 C   0  0  0  0  0  0  0  0  0  0  0  0
  -11.3666    6.1875    0.0000 C   0  0  0  0  0  0  0  0  0  0  0  0
   -7.4695    6.9375    0.0000 C   0  0  0  0  0  0  0  0  0  0  0  0
    0.3248    8.4375    0.0000 C   0  0  0  0  0  0  0  0  0  0  0  0
   -3.5724    6.1875    0.0000 C   0  0  0  0  0  0  0  0  0  0  0  0
    2.9228    6.9375    0.0000 C   0  0  0  0  0  0  0  0  0  0  0  0
   -8.7685    6.1875    0.0000 C   0  0  0  0  0  0  0  0  0  0  0  0
    0.3248    6.9375    0.0000 C   0  0  0  0  0  0  0  0  0  0  0  0
   -4.8714    6.9375    0.0000 C   0  0  0  0  0  0  0  0  0  0  0  0
   -0.9743    6.1875    0.0000 C   0  0  0  0  0  0  0  0  0  0  0  0
   -6.1704    6.1875    0.0000 N   0  0  0  0  0  0  0  0  0  0  0  0
   -2.2733    6.9375    0.0000 N   0  0  0  0  0  0  0  0  0  0  0  0
    1.6238    6.1875    0.0000 N   0  0  0  0  0  0  0  0  0  0  0  0
    2.9228    8.4375    0.0000 O   0  0  0  0  0  0  0  0  0  0  0  0
   -8.7685    4.6875    0.0000 O   0  0  0  0  0  0  0  0  0  0  0  0
   -4.8714    8.4375    0.0000 O   0  0  0  0  0  0  0  0  0  0  0  0
   -0.9743    4.6875    0.0000 O   0  0  0  0  0  0  0  0  0  0  0  0
  -10.0675    6.9375    0.0000 O   0  0  0  0  0  0  0  0  0  0  0  0
  7  1  1  0
  7  2  1  0
  8  3  1  1
  9  4  1  0
 10  6  1  0
 11  7  1  0
 12  8  1  0
 13 11  1  0
 14  6  1  0
 14 12  2  3
 15  8  1  0
 15 13  2  3
 16  9  2  3
 11 16  1  6
 17  9  1  0
 18 10  2  0
 19 12  1  0
 20 13  1  0
 21  5  1  0
 21 10  1  0
M  END
>  <NAME>  (7402) 
N-ACETYL-VALYL-ALANYL-GLYCINE METHYLESTER

>  <SYNONYMS>  (7402) 


>  <SPECTRUM TYPE>  (7402) 
MS1

>  <INSTRUMENT TYPE>  (7402) 
EI-B

>  <INSTRUMENT>  (7402) 
HITACHI RMU-6M

>  <ION MODE>  (7402) 
P

>  <INCHIKEY>  (7402) 
LISVXPDUUDDSQY-KWQFWETISA-N

>  <FORMULA>  (7402) 
C13H23N3O5

>  <EXACT MASS>  (7402) 
301.163770836

>  <MW>  (7402) 
301

>  <ID>  (7402) 
JP000104

>  <CONTRIBUTOR>  (7402) 
University of Tokyo Team, {Faculty of Engineering, University of Tokyo

>  <COMMENT>  (7402) 
SMILES=COC(=O)CNC(=O)C([H])(C)NC(=O)C([H])(NC(C)=O)C(C)C
InChI=InChI=1S/C13H23N3O5/c1-7(2)11(16-9(4)17)13(20)15-8(3)12(19)14-6-10(18)21-5/h7-8,11H,6H2,1-5H3,(H,14,19)(H,15,20)(H,16,17)/t8-,11-/m0/s1
computed SMILES=O=C(OC)CN=C(O)C(N=C(O)C(N=C(O)C)C(C)C)C
accession=JP000104
date=2016.01.19 (Created 2008.10.21, modified 2011.05.06)
author=YAMAMOTO M, DEP. CHEMISTRY, FAC. SCIENCE, NARA WOMEN'S UNIV.
license=CC BY-NC-SA
exact mass=301.16377
ionization energy=70 eV
ion type=[M]+*
computed spectral entropy=2.964799837055758
computed normalized entropy=0.7398436067111713
SPLASH=splash10-0006-9400000000-448db66fca56f7db57e2
submitter=submitter = University of Tokyo Team (Faculty of Engineering, University of Tokyo)
MoNA Rating=3.75

>  <NUM PEAKS>  (7402) 
55

>  <MASS SPECTRAL PEAKS>  (7402) 
15 9.7
27 5.1
28 12.6
29 0.53
30 17.8
31 1.2
39 2.5
41 0.58
42 6
43 25.2
44 99.99
45 0.39
53 1
54 1.3
55 18.3
56 0.98
57 6.2
58 6.6
59 1.8
60 0.38
69 2.8
70 6.3
71 3.3
72 9.08
73 6.3
74 1.2
83 1.8
84 0.14
85 1.3
88 3.4
90 3.9
98 0.13
99 4.8
100 7.6
112 1.5
113 0.26
114 56.5
115 19.4
116 2.2
126 0.11
127 3.5
142 24.3
143 2.6
145 0.35
161 1.4
170 1.2
171 2.3
185 1.57
186 5.3
187 1.8
199 2.3
214 0.4
270 1.2
301 1.8
302 1.3

$$$$

     RDKit          2D

 12 12  0  0  0  0  0  0  0  0999 V2000
   -3.8981    0.7504    0.0000 C   0  0  0  0  0  0  0  0  0  0  0  0
   -2.5987    3.0002    0.0000 C   0  0  0  0  0  0  0  0  0  0  0  0
    2.5989   -1.5002    0.0000 C   0  0  0  0  0  0  0  0  0  0  0  0
   -2.5989    1.5002    0.0000 C   0  0  0  0  0  0  0  0  0  0  0  0
    1.3000   -0.7500    0.0000 C   0  0  0  0  0  0  0  0  0  0  0  0
   -1.3000    0.7500    0.0000 C   0  0  0  0  0  0  0  0  0  0  0  0
    1.3000    0.7500    0.0000 C   0  0  0  0  0  0  0  0  0  0  0  0
   -1.3000   -0.7500    0.0000 C   0  0  0  0  0  0  0  0  0  0  0  0
    0.0000   -1.5000    0.0000 N   0  0  0  0  0  0  0  0  0  0  0  0
    0.0000    1.5000    0.0000 N   0  0  0  0  0  0  0  0  0  0  0  0
    2.5989    1.5002    0.0000 O   0  0  0  0  0  0  0  0  0  0  0  0
   -2.5989   -1.5002    0.0000 O   0  0  0  0  0  0  0  0  0  0  0  0
  4  1  1  0
  4  2  1  0
  5  3  1  0
  6  4  1  0
  7  5  1  0
  8  6  1  0
  9  5  1  0
  9  8  2  0
 10  6  1  0
 10  7  2  0
 11  7  1  0
 12  8  1  0
M  END
>  <NAME>  (7403) 
3-METHYL-6-ISOPROPYL-2,5-PIPERADINEDIONE

>  <SYNONYMS>  (7403) 
CYCLOALANYL-VALINE

>  <SPECTRUM TYPE>  (7403) 
MS1

>  <INSTRUMENT TYPE>  (7403) 
EI-B

>  <INSTRUMENT>  (7403) 
HITACHI RMU-6M

>  <ION MODE>  (7403) 
P

>  <INCHIKEY>  (7403) 
ORLDMMKUTCCBSM-UHFFFAOYSA-N

>  <FORMULA>  (7403) 
C8H14N2O2

>  <EXACT MASS>  (7403) 
170.105527688

>  <MW>  (7403) 
170

>  <ID>  (7403) 
JP000103

>  <CONTRIBUTOR>  (7403) 
University of Tokyo Team, {Faculty of Engineering, University of Tokyo

>  <COMMENT>  (7403) 
SMILES=CC(C)C(N1)C(=O)NC(C)C(=O)1
InChI=InChI=1S/C8H14N2O2/c1-4(2)6-8(12)9-5(3)7(11)10-6/h4-6H,1-3H3,(H,9,12)(H,10,11)
computed SMILES=OC1=NC(C(O)=NC1C)C(C)C
accession=JP000103
date=2016.01.19 (Created 2008.10.21, modified 2011.05.06)
author=YAMAMOTO M, DEP. CHEMISTRY, FAC. SCIENCE, NARA WOMEN'S UNIV.
license=CC BY-NC-SA
exact mass=170.10553
ionization energy=70 eV
ion type=[M]+*
computed spectral entropy=3.0103748766478984
computed normalized entropy=0.8054149200138505
SPLASH=splash10-004l-9300000000-da049db4a8457186b053
submitter=submitter = University of Tokyo Team (Faculty of Engineering, University of Tokyo)
MoNA Rating=3.75

>  <NUM PEAKS>  (7403) 
42

>  <MASS SPECTRAL PEAKS>  (7403) 
15 10.1
26 3
27 20.5
28 48.9
29 11.6
30 7.1
38 1
39 11.2
40 3
41 18
42 18
43 14.9
44 99.99
45 3.5
53 1.4
54 3.7
55 13.2
56 14
57 7.8
58 1.8
68 1.6
69 9.3
70 4.8
71 7.7
72 32.4
73 2.9
83 2.3
84 11
85 8.7
98 1.1
99 22.8
100 2.9
111 1.6
112 2.3
113 26.3
114 2.1
127 12.5
128 94.4
129 6.9
155 1.4
170 1
171 1.4

$$$$

     RDKit          2D

 12 12  0  0  0  0  0  0  0  0999 V2000
    2.5989   -1.5002    0.0000 C   0  0  0  0  0  0  0  0  0  0  0  0
    1.3002    0.7500    0.0000 C   0  0  0  0  0  0  0  0  0  0  0  0
    0.0008   -1.4998    0.0000 C   0  0  0  0  0  0  0  0  0  0  0  0
   -3.8981    0.7504    0.0000 C   0  0  0  0  0  0  0  0  0  0  0  0
    1.3000   -0.7500    0.0000 C   0  0  0  0  0  0  0  0  0  0  0  0
   -1.2981   -0.7496    0.0000 C   0  0  0  0  0  0  0  0  0  0  0  0
   -3.8981   -0.7496    0.0000 C   0  0  0  0  0  0  0  0  0  0  0  0
   -1.2981    0.7504    0.0000 C   0  0  0  0  0  0  0  0  0  0  0  0
   -2.5981    1.5004    0.0000 N   0  0  0  0  0  0  0  0  0  0  0  0
   -2.5981   -1.4996    0.0000 N   0  0  0  0  0  0  0  0  0  0  0  0
   -5.1970   -1.4998    0.0000 O   0  0  0  0  0  0  0  0  0  0  0  0
    0.0008    1.5006    0.0000 O   0  0  0  0  0  0  0  0  0  0  0  0
  5  1  1  0
  5  2  1  0
  5  3  1  0
  6  3  1  0
  7  4  1  0
  8  6  1  0
  9  4  1  0
  9  8  2  0
 10  6  1  0
 10  7  2  0
 11  7  1  0
 12  8  1  0
M  END
>  <NAME>  (7404) 
3-ISOBUTYL-2,5-PIPERADINEDIONE

>  <SYNONYMS>  (7404) 
CYCLOGLYCYL-LEUCINE

>  <SPECTRUM TYPE>  (7404) 
MS1

>  <INSTRUMENT TYPE>  (7404) 
EI-B

>  <INSTRUMENT>  (7404) 
HITACHI RMU-6M

>  <ION MODE>  (7404) 
P

>  <INCHIKEY>  (7404) 
VQFHWKRNHGHZTK-UHFFFAOYSA-N

>  <FORMULA>  (7404) 
C8H14N2O2

>  <EXACT MASS>  (7404) 
170.105527688

>  <MW>  (7404) 
170

>  <ID>  (7404) 
JP000101

>  <CONTRIBUTOR>  (7404) 
University of Tokyo Team, {Faculty of Engineering, University of Tokyo

>  <COMMENT>  (7404) 
SMILES=CC(C)CC(N1)C(=O)NCC(=O)1
InChI=InChI=1S/C8H14N2O2/c1-5(2)3-6-8(12)9-4-7(11)10-6/h5-6H,3-4H2,1-2H3,(H,9,12)(H,10,11)
computed SMILES=OC1=NC(C(O)=NC1)CC(C)C
accession=JP000101
date=2016.01.19 (Created 2008.10.21, modified 2011.05.06)
author=YAMAMOTO M, DEP. CHEMISTRY, FAC. SCIENCE, NARA WOMEN'S UNIV.
license=CC BY-NC-SA
exact mass=170.10553
ionization energy=70 eV
ion type=[M]+*
computed spectral entropy=2.769082056452003
computed normalized entropy=0.7788497802637004
SPLASH=splash10-01si-9200000000-ba9e68b58d73914a6ae0
submitter=submitter = University of Tokyo Team (Faculty of Engineering, University of Tokyo)
MoNA Rating=3.75

>  <NUM PEAKS>  (7404) 
35

>  <MASS SPECTRAL PEAKS>  (7404) 
15 5.5
27 15.9
28 33.7
29 14.1
30 99.99
31 1.3
40 9.7
41 1.9
42 19.3
43 9
44 23
45 8.6
53 1.7
54 2
55 6.7
56 15.4
57 9.7
58 2.1
59 1
67 1
68 1.9
69 1.8
70 5.3
84 15.9
85 17.9
86 5.2
98 1.3
99 7.4
113 6.2
114 78
115 4.4
127 8.5
169 0.3
170 0.3
171 1.1

$$$$

     RDKit          2D

 11 11  0  0  0  0  0  0  0  0999 V2000
   -3.8981    0.7504    0.0000 C   0  0  0  0  0  0  0  0  0  0  0  0
   -2.5987    3.0002    0.0000 C   0  0  0  0  0  0  0  0  0  0  0  0
    1.3000   -0.7500    0.0000 C   0  0  0  0  0  0  0  0  0  0  0  0
   -2.5989    1.5002    0.0000 C   0  0  0  0  0  0  0  0  0  0  0  0
    1.3000    0.7500    0.0000 C   0  0  0  0  0  0  0  0  0  0  0  0
   -1.3000    0.7500    0.0000 C   0  0  0  0  0  0  0  0  0  0  0  0
   -1.3000   -0.7500    0.0000 C   0  0  0  0  0  0  0  0  0  0  0  0
    0.0000   -1.5000    0.0000 N   0  0  0  0  0  0  0  0  0  0  0  0
    0.0000    1.5000    0.0000 N   0  0  0  0  0  0  0  0  0  0  0  0
    2.5989    1.5002    0.0000 O   0  0  0  0  0  0  0  0  0  0  0  0
   -2.5989   -1.5002    0.0000 O   0  0  0  0  0  0  0  0  0  0  0  0
  4  1  1  0
  4  2  1  0
  5  3  1  0
  6  4  1  0
  7  6  1  0
  8  3  1  0
  8  7  2  0
  9  5  2  0
  9  6  1  0
 10  5  1  0
 11  7  1  0
M  END
>  <NAME>  (7405) 
3-ISOPROPYL-2,5-PIPERADINEDIONE

>  <SYNONYMS>  (7405) 
CYCLOGLYCYL-VALINE

>  <SPECTRUM TYPE>  (7405) 
MS1

>  <INSTRUMENT TYPE>  (7405) 
EI-B

>  <INSTRUMENT>  (7405) 
HITACHI RMU-6M

>  <ION MODE>  (7405) 
P

>  <INCHIKEY>  (7405) 
IULFBTHVPRNQCG-UHFFFAOYSA-N

>  <FORMULA>  (7405) 
C7H12N2O2

>  <EXACT MASS>  (7405) 
156.089877624

>  <MW>  (7405) 
156

>  <ID>  (7405) 
JP000100

>  <CONTRIBUTOR>  (7405) 
University of Tokyo Team, {Faculty of Engineering, University of Tokyo

>  <COMMENT>  (7405) 
SMILES=CC(C)C(N1)C(=O)NCC(=O)1
InChI=InChI=1S/C7H12N2O2/c1-4(2)6-7(11)8-3-5(10)9-6/h4,6H,3H2,1-2H3,(H,8,11)(H,9,10)
computed SMILES=OC1=NC(C(O)=NC1)C(C)C
accession=JP000100
date=2016.01.19 (Created 2008.10.21, modified 2011.05.06)
author=YAMAMOTO M, DEP. CHEMISTRY, FAC. SCIENCE, NARA WOMEN'S UNIV.
license=CC BY-NC-SA
exact mass=156.08988
ionization energy=70 eV
ion type=[M]+*
computed spectral entropy=2.821127228635174
computed normalized entropy=0.7755492529274896
SPLASH=splash10-03gi-9300000000-5c047d856bfb99f819dd
submitter=submitter = University of Tokyo Team (Faculty of Engineering, University of Tokyo)
MoNA Rating=3.75

>  <NUM PEAKS>  (7405) 
38

>  <MASS SPECTRAL PEAKS>  (7405) 
15 3.7
26 1.2
27 14.9
28 49
29 16.9
30 79.9
31 2.7
38 1
39 11.9
40 2.2
41 17.2
42 9.3
43 14.4
44 1.1
52 1
53 1.4
54 3
55 8.3
56 11.3
57 28
58 3.9
59 1.8
69 5.7
70 14
71 2.1
72 7.7
73 1.4
83 1.9
84 1.6
85 21.1
86 9.4
91 3.5
98 1.2
113 11
114 99.99
115 5.8
141 1.4
156 1

$$$$

     RDKit          2D

 10 10  0  0  0  0  0  0  0  0999 V2000
    2.5989   -1.5002    0.0000 C   0  0  0  0  0  0  0  0  0  0  0  0
   -2.5989    1.5002    0.0000 C   0  0  0  0  0  0  0  0  0  0  0  0
    1.3000   -0.7500    0.0000 C   0  0  0  0  0  0  0  0  0  0  0  0
   -1.3000    0.7500    0.0000 C   0  0  0  0  0  0  0  0  0  0  0  0
    1.3000    0.7500    0.0000 C   0  0  0  0  0  0  0  0  0  0  0  0
   -1.3000   -0.7500    0.0000 C   0  0  0  0  0  0  0  0  0  0  0  0
   -0.0000   -1.5000    0.0000 N   0  0  0  0  0  0  0  0  0  0  0  0
    0.0000    1.5000    0.0000 N   0  0  0  0  0  0  0  0  0  0  0  0
    2.5989    1.5002    0.0000 O   0  0  0  0  0  0  0  0  0  0  0  0
   -2.5989   -1.5002    0.0000 O   0  0  0  0  0  0  0  0  0  0  0  0
  3  1  1  0
  4  2  1  0
  5  3  1  0
  6  4  1  0
  7  3  1  0
  7  6  2  0
  8  4  1  0
  8  5  2  0
  9  5  1  0
 10  6  1  0
M  END
>  <NAME>  (7406) 
3,6-DIMETHYL-2,5-PIPERAZINEDIONE

>  <SYNONYMS>  (7406) 
CYCLOALANYL-ALANINE

>  <SPECTRUM TYPE>  (7406) 
MS1

>  <INSTRUMENT TYPE>  (7406) 
EI-B

>  <INSTRUMENT>  (7406) 
HITACHI RMU-6M

>  <ION MODE>  (7406) 
P

>  <INCHIKEY>  (7406) 
WWISPHBAYBECQZ-UHFFFAOYSA-N

>  <FORMULA>  (7406) 
C6H10N2O2

>  <EXACT MASS>  (7406) 
142.07422756

>  <MW>  (7406) 
142

>  <ID>  (7406) 
JP000099

>  <CONTRIBUTOR>  (7406) 
University of Tokyo Team, {Faculty of Engineering, University of Tokyo

>  <COMMENT>  (7406) 
SMILES=CC(N1)C(=O)NC(C)C(=O)1
InChI=InChI=1S/C6H10N2O2/c1-3-5(9)8-4(2)6(10)7-3/h3-4H,1-2H3,(H,7,10)(H,8,9)
computed SMILES=OC1=NC(C(O)=NC1C)C
accession=JP000099
date=2016.01.19 (Created 2008.10.21, modified 2011.05.06)
author=YAMAMOTO M, DEP. CHEMISTRY, FAC. SCIENCE, NARA WOMEN'S UNIV.
license=CC BY-NC-SA
exact mass=142.07423
ionization energy=70 eV
ion type=[M]+*
computed spectral entropy=1.139532598283934
computed normalized entropy=0.5856039133344086
SPLASH=splash10-0006-9100000000-e53457cdd23f71ac38b8
submitter=submitter = University of Tokyo Team (Faculty of Engineering, University of Tokyo)
MoNA Rating=3.75

>  <NUM PEAKS>  (7406) 
7

>  <MASS SPECTRAL PEAKS>  (7406) 
44 99.99
45 2.6
71 24.8
72 1.9
114 6.1
142 20.3
143 1.7

$$$$

     RDKit          2D

  8  8  0  0  0  0  0  0  0  0999 V2000
    1.3000   -0.7500    0.0000 C   0  0  0  0  0  0  0  0  0  0  0  0
   -1.3000    0.7500    0.0000 C   0  0  0  0  0  0  0  0  0  0  0  0
    1.3000    0.7500    0.0000 C   0  0  0  0  0  0  0  0  0  0  0  0
   -1.3000   -0.7500    0.0000 C   0  0  0  0  0  0  0  0  0  0  0  0
   -0.0000   -1.5000    0.0000 N   0  0  0  0  0  0  0  0  0  0  0  0
    0.0000    1.5000    0.0000 N   0  0  0  0  0  0  0  0  0  0  0  0
    2.5989    1.5002    0.0000 O   0  0  0  0  0  0  0  0  0  0  0  0
   -2.5989   -1.5002    0.0000 O   0  0  0  0  0  0  0  0  0  0  0  0
  3  1  1  0
  4  2  1  0
  5  1  1  0
  5  4  2  0
  6  2  1  0
  6  3  2  0
  7  3  1  0
  8  4  1  0
M  END
>  <NAME>  (7407) 
2,5-PIPERAZINEDIONE

>  <SYNONYMS>  (7407) 
CYCLOGLYCYL-GLYCINE

>  <SPECTRUM TYPE>  (7407) 
MS1

>  <INSTRUMENT TYPE>  (7407) 
EI-B

>  <INSTRUMENT>  (7407) 
HITACHI RMU-6M

>  <ION MODE>  (7407) 
P

>  <INCHIKEY>  (7407) 
BXRNXXXXHLBUKK-UHFFFAOYSA-N

>  <FORMULA>  (7407) 
C4H6N2O2

>  <EXACT MASS>  (7407) 
114.042927432

>  <MW>  (7407) 
114

>  <ID>  (7407) 
JP000098

>  <CONTRIBUTOR>  (7407) 
University of Tokyo Team, {Faculty of Engineering, University of Tokyo

>  <COMMENT>  (7407) 
SMILES=O=C(C1)NCC(=O)N1
InChI=InChI=1S/C4H6N2O2/c7-3-1-5-4(8)2-6-3/h1-2H2,(H,5,8)(H,6,7)
computed SMILES=OC1=NCC(O)=NC1
accession=JP000098
date=2016.01.19 (Created 2008.10.21, modified 2011.05.06)
author=YAMAMOTO M, DEP. CHEMISTRY, FAC. SCIENCE, NARA WOMEN'S UNIV.
license=CC BY-NC-SA
exact mass=114.04293
ionization energy=70 eV
ion type=[M]+*
computed spectral entropy=2.2302996802554023
computed normalized entropy=0.7574616747149543
SPLASH=splash10-003u-9100000000-50778fa546ebd2babb9a
submitter=submitter = University of Tokyo Team (Faculty of Engineering, University of Tokyo)
MoNA Rating=3.75

>  <NUM PEAKS>  (7407) 
19

>  <MASS SPECTRAL PEAKS>  (7407) 
14 4.6
15 4.1
27 8.5
28 58.4
29 41.1
30 99.99
31 1.5
41 1.6
42 28
43 22.8
44 1.6
56 4.4
58 3.2
59 1.5
71 32.7
72 1.6
85 4.8
114 48.5
115 3.6

$$$$

     RDKit          2D

 14 13  0  0  1  0  0  0  0  0999 V2000
    3.2476    2.6250    0.0000 C   0  0  0  0  0  0  0  0  0  0  0  0
   -5.8457    3.3750    0.0000 C   0  0  0  0  0  0  0  0  0  0  0  0
    0.6495    7.1250    0.0000 C   0  0  0  0  0  0  0  0  0  0  0  0
   -1.9486    2.6250    0.0000 C   0  0  0  0  0  0  0  0  0  0  0  0
    1.9486    3.3750    0.0000 C   0  0  0  0  0  0  0  0  0  0  0  0
   -0.6495    3.3750    0.0000 C   0  0  0  0  0  0  0  0  0  0  0  0
   -3.2476    3.3750    0.0000 C   0  0  0  0  0  0  0  0  0  0  0  0
   -0.6495    4.8750    0.0000 C   0  0  0  0  0  0  0  0  0  0  0  0
    0.6495    2.6250    0.0000 N   0  0  0  0  0  0  0  0  0  0  0  0
    1.9486    4.8750    0.0000 O   0  0  0  0  0  0  0  0  0  0  0  0
   -3.2476    4.8750    0.0000 O   0  0  0  0  0  0  0  0  0  0  0  0
   -1.9486    5.6250    0.0000 O   0  0  0  0  0  0  0  0  0  0  0  0
   -4.5466    2.6250    0.0000 O   0  0  0  0  0  0  0  0  0  0  0  0
    0.6495    5.6250    0.0000 O   0  0  0  0  0  0  0  0  0  0  0  0
  5  1  1  0
  6  4  1  1
  7  4  1  0
  8  6  1  0
  9  5  2  3
  6  9  1  0
 10  5  1  0
 11  7  2  0
 12  8  2  0
 13  2  1  0
 13  7  1  0
 14  3  1  0
 14  8  1  0
M  END
>  <NAME>  (7408) 
N-ACETYL-ASPARTIC ACID DIMETHYLESTER

>  <SYNONYMS>  (7408) 


>  <SPECTRUM TYPE>  (7408) 
MS1

>  <INSTRUMENT TYPE>  (7408) 
EI-B

>  <INSTRUMENT>  (7408) 
HITACHI RMU-6M

>  <ION MODE>  (7408) 
P

>  <INCHIKEY>  (7408) 
VRPXVQSXUIFMKQ-LURJTMIESA-N

>  <FORMULA>  (7408) 
C8H13NO5

>  <EXACT MASS>  (7408) 
203.079372516

>  <MW>  (7408) 
203

>  <ID>  (7408) 
JP000097

>  <CONTRIBUTOR>  (7408) 
University of Tokyo Team, {Faculty of Engineering, University of Tokyo

>  <COMMENT>  (7408) 
SMILES=COC(=O)CC([H])(NC(C)=O)C(=O)OC
InChI=InChI=1S/C8H13NO5/c1-5(10)9-6(8(12)14-3)4-7(11)13-2/h6H,4H2,1-3H3,(H,9,10)/t6-/m0/s1
computed SMILES=O=C(OC)CC(N=C(O)C)C(=O)OC
accession=JP000097
date=2016.01.19 (Created 2008.10.21, modified 2011.05.06)
author=YAMAMOTO M, DEP. CHEMISTRY, FAC. SCIENCE, NARA WOMEN'S UNIV.
license=CC BY-NC-SA
exact mass=203.07937
ionization energy=70 eV
ion type=[M]+*
computed spectral entropy=2.1364090334203474
computed normalized entropy=0.6482144354463754
SPLASH=splash10-0f6x-6900000000-003ae492a0f6ef4ed7cd
submitter=submitter = University of Tokyo Team (Faculty of Engineering, University of Tokyo)
MoNA Rating=3.75

>  <NUM PEAKS>  (7408) 
27

>  <MASS SPECTRAL PEAKS>  (7408) 
15 16.5
27 2
28 7.6
29 0.14
31 1.2
33 1.8
41 2.4
42 0.61
43 56.8
44 1.3
55 2.3
59 0.52
60 13.5
70 19.2
74 2.9
86 0.17
88 7.3
100 1
101 1.2
102 99.99
103 3.8
113 4.2
144 61.5
145 0.31
160 2.1
172 2.7
203 1.2

$$$$

     RDKit          2D

 15 14  0  0  1  0  0  0  0  0999 V2000
    3.2476    3.3750    0.0000 C   0  0  0  0  0  0  0  0  0  0  0  0
   -7.1447    3.3750    0.0000 C   0  0  0  0  0  0  0  0  0  0  0  0
    0.6495    7.8750    0.0000 C   0  0  0  0  0  0  0  0  0  0  0  0
   -1.9486    3.3750    0.0000 C   0  0  0  0  0  0  0  0  0  0  0  0
   -3.2476    4.1250    0.0000 C   0  0  0  0  0  0  0  0  0  0  0  0
    1.9486    4.1250    0.0000 C   0  0  0  0  0  0  0  0  0  0  0  0
   -0.6495    4.1250    0.0000 C   0  0  0  0  0  0  0  0  0  0  0  0
   -4.5466    3.3750    0.0000 C   0  0  0  0  0  0  0  0  0  0  0  0
   -0.6495    5.6250    0.0000 C   0  0  0  0  0  0  0  0  0  0  0  0
    0.6495    3.3750    0.0000 N   0  0  0  0  0  0  0  0  0  0  0  0
    1.9486    5.6250    0.0000 O   0  0  0  0  0  0  0  0  0  0  0  0
   -4.5466    1.8750    0.0000 O   0  0  0  0  0  0  0  0  0  0  0  0
   -1.9486    6.3750    0.0000 O   0  0  0  0  0  0  0  0  0  0  0  0
   -5.8457    4.1250    0.0000 O   0  0  0  0  0  0  0  0  0  0  0  0
    0.6495    6.3750    0.0000 O   0  0  0  0  0  0  0  0  0  0  0  0
  5  4  1  0
  6  1  1  0
  7  4  1  6
  8  5  1  0
  9  7  1  0
 10  6  2  3
  7 10  1  0
 11  6  1  0
 12  8  2  0
 13  9  2  0
 14  2  1  0
 14  8  1  0
 15  3  1  0
 15  9  1  0
M  END
>  <NAME>  (7409) 
N-ACETYL-GLUTAMIC ACID DIMETHYLESTER

>  <SYNONYMS>  (7409) 


>  <SPECTRUM TYPE>  (7409) 
MS1

>  <INSTRUMENT TYPE>  (7409) 
EI-B

>  <INSTRUMENT>  (7409) 
HITACHI RMU-6M

>  <ION MODE>  (7409) 
P

>  <INCHIKEY>  (7409) 
KAUXXCKARJMDIG-SSDOTTSWSA-N

>  <FORMULA>  (7409) 
C9H15NO5

>  <EXACT MASS>  (7409) 
217.09502257999998

>  <MW>  (7409) 
217

>  <ID>  (7409) 
JP000096

>  <CONTRIBUTOR>  (7409) 
University of Tokyo Team, {Faculty of Engineering, University of Tokyo

>  <COMMENT>  (7409) 
SMILES=COC(=O)CCC([H])(NC(C)=O)C(=O)OC
InChI=InChI=1S/C9H15NO5/c1-6(11)10-7(9(13)15-3)4-5-8(12)14-2/h7H,4-5H2,1-3H3,(H,10,11)/t7-/m1/s1
computed SMILES=O=C(OC)CCC(N=C(O)C)C(=O)OC
accession=JP000096
date=2016.01.19 (Created 2008.10.21, modified 2011.05.06)
author=YAMAMOTO M, DEP. CHEMISTRY, FAC. SCIENCE, NARA WOMEN'S UNIV.
license=CC BY-NC-SA
exact mass=217.09502
ionization energy=70 eV
ion type=[M]+*
computed spectral entropy=2.7485875787808736
computed normalized entropy=0.7026000550014808
SPLASH=splash10-00l6-9400000000-2983b1ebe15e248f1a2e
submitter=submitter = University of Tokyo Team (Faculty of Engineering, University of Tokyo)
MoNA Rating=3.75

>  <NUM PEAKS>  (7409) 
50

>  <MASS SPECTRAL PEAKS>  (7409) 
15 16
27 4.4
28 14.9
29 0.3
30 3
31 2.5
33 3.4
39 0.22
41 11.2
42 4.9
43 73.7
44 0.18
45 1.2
54 3.5
55 4.6
56 3.75
57 7.6
59 5.2
60 2.7
74 0.12
82 3.9
83 1
84 99.99
85 0.49
88 17.5
89 1
98 19.5
100 0.21
102 2
111 2.1
112 1.3
114 0.36
116 83.6
117 3.9
126 8.5
127 0.11
130 2.3
131 1.1
142 1.9
143 0.11
144 30.8
145 1.5
153 1.8
158 6.5
159 4.2
172 1.9
174 5
185 0.44
186 3.6
217 1.5

$$$$

     RDKit          2D

 16 15  0  0  1  0  0  0  0  0999 V2000
   -8.4437    5.6250    0.0000 C   0  0  0  0  0  0  0  0  0  0  0  0
    3.2476    4.8750    0.0000 C   0  0  0  0  0  0  0  0  0  0  0  0
   -0.6495    1.1250    0.0000 C   0  0  0  0  0  0  0  0  0  0  0  0
   -7.1447    4.8750    0.0000 C   0  0  0  0  0  0  0  0  0  0  0  0
    1.9486    5.6250    0.0000 C   0  0  0  0  0  0  0  0  0  0  0  0
   -3.2476    5.6250    0.0000 C   0  0  0  0  0  0  0  0  0  0  0  0
   -0.6495    2.6250    0.0000 C   0  0  0  0  0  0  0  0  0  0  0  0
   -1.9486    4.8750    0.0000 C   0  0  0  0  0  0  0  0  0  0  0  0
   -4.5466    4.8750    0.0000 C   0  0  0  0  0  0  0  0  0  0  0  0
   -0.6495    5.6250    0.0000 C   0  0  0  0  0  0  0  0  0  0  0  0
   -1.9486    3.3750    0.0000 N   0  0  0  0  0  0  0  0  0  0  0  0
    0.6495    3.3750    0.0000 O   0  0  0  0  0  0  0  0  0  0  0  0
   -4.5466    3.3750    0.0000 O   0  0  0  0  0  0  0  0  0  0  0  0
   -0.6495    7.1250    0.0000 O   0  0  0  0  0  0  0  0  0  0  0  0
   -5.8457    5.6250    0.0000 O   0  0  0  0  0  0  0  0  0  0  0  0
    0.6495    4.8750    0.0000 O   0  0  0  0  0  0  0  0  0  0  0  0
  4  1  1  0
  5  2  1  0
  7  3  1  0
  8  6  1  1
  9  6  1  0
 10  8  1  0
 11  7  2  3
  8 11  1  0
 12  7  1  0
 13  9  2  0
 14 10  2  0
 15  4  1  0
 15  9  1  0
 16  5  1  0
 16 10  1  0
M  END
>  <NAME>  (7410) 
N-ACETYL-ASPARTIC ACID DIETHYLESTER

>  <SYNONYMS>  (7410) 


>  <SPECTRUM TYPE>  (7410) 
MS1

>  <INSTRUMENT TYPE>  (7410) 
EI-B

>  <INSTRUMENT>  (7410) 
HITACHI RMU-6M

>  <ION MODE>  (7410) 
P

>  <INCHIKEY>  (7410) 
XQGDGRNHLJLQOV-QMMMGPOBSA-N

>  <FORMULA>  (7410) 
C10H17NO5

>  <EXACT MASS>  (7410) 
231.110672644

>  <MW>  (7410) 
231

>  <ID>  (7410) 
JP000095

>  <CONTRIBUTOR>  (7410) 
University of Tokyo Team, {Faculty of Engineering, University of Tokyo

>  <COMMENT>  (7410) 
SMILES=CCOC(=O)CC([H])(NC(C)=O)C(=O)OCC
InChI=InChI=1S/C10H17NO5/c1-4-15-9(13)6-8(11-7(3)12)10(14)16-5-2/h8H,4-6H2,1-3H3,(H,11,12)/t8-/m0/s1
computed SMILES=O=C(OCC)CC(N=C(O)C)C(=O)OCC
accession=JP000095
date=2016.01.19 (Created 2008.10.21, modified 2011.05.06)
author=YAMAMOTO M, DEP. CHEMISTRY, FAC. SCIENCE, NARA WOMEN'S UNIV.
license=CC BY-NC-SA
exact mass=231.11067
ionization energy=70 eV
ion type=[M]+*
computed spectral entropy=2.0268423126242636
computed normalized entropy=0.6296739678385246
SPLASH=splash10-066r-4900000000-282f05fbc89b8e675249
submitter=submitter = University of Tokyo Team (Faculty of Engineering, University of Tokyo)
MoNA Rating=3.75

>  <NUM PEAKS>  (7410) 
25

>  <MASS SPECTRAL PEAKS>  (7410) 
15 4.2
27 6.7
28 8.8
29 1.58
30 2.2
32 1.6
41 1.4
42 0.44
43 37.4
44 5.9
55 1.1
60 0.17
70 11.6
74 5.6
85 1.1
88 0.32
99 2.3
102 3.5
116 99.99
117 0.46
158 58.1
159 3.5
186 5.6
188 0.1
231 1.3

$$$$

     RDKit          2D

 17 16  0  0  1  0  0  0  0  0999 V2000
    2.9228    6.1875    0.0000 C   0  0  0  0  0  0  0  0  0  0  0  0
  -10.0675    6.1875    0.0000 C   0  0  0  0  0  0  0  0  0  0  0  0
   -6.1704    2.4375    0.0000 C   0  0  0  0  0  0  0  0  0  0  0  0
    1.6238    6.9375    0.0000 C   0  0  0  0  0  0  0  0  0  0  0  0
   -8.7685    6.9375    0.0000 C   0  0  0  0  0  0  0  0  0  0  0  0
   -3.5724    6.9375    0.0000 C   0  0  0  0  0  0  0  0  0  0  0  0
   -2.2733    6.1875    0.0000 C   0  0  0  0  0  0  0  0  0  0  0  0
   -6.1704    3.9375    0.0000 C   0  0  0  0  0  0  0  0  0  0  0  0
   -4.8714    6.1875    0.0000 C   0  0  0  0  0  0  0  0  0  0  0  0
   -0.9743    6.9375    0.0000 C   0  0  0  0  0  0  0  0  0  0  0  0
   -6.1704    6.9375    0.0000 C   0  0  0  0  0  0  0  0  0  0  0  0
   -4.8714    4.6875    0.0000 N   0  0  0  0  0  0  0  0  0  0  0  0
   -7.4695    4.6875    0.0000 O   0  0  0  0  0  0  0  0  0  0  0  0
   -0.9743    8.4375    0.0000 O   0  0  0  0  0  0  0  0  0  0  0  0
   -6.1704    8.4375    0.0000 O   0  0  0  0  0  0  0  0  0  0  0  0
    0.3248    6.1875    0.0000 O   0  0  0  0  0  0  0  0  0  0  0  0
   -7.4695    6.1875    0.0000 O   0  0  0  0  0  0  0  0  0  0  0  0
  4  1  1  0
  5  2  1  0
  7  6  1  0
  8  3  1  0
  9  6  1  1
 10  7  1  0
 11  9  1  0
 12  8  2  3
  9 12  1  0
 13  8  1  0
 14 10  2  0
 15 11  2  0
 16  4  1  0
 16 10  1  0
 17  5  1  0
 17 11  1  0
M  END
>  <NAME>  (7411) 
N-ACETYL-GLUTAMIC ACID DIETHYLESTER

>  <SYNONYMS>  (7411) 


>  <SPECTRUM TYPE>  (7411) 
MS1

>  <INSTRUMENT TYPE>  (7411) 
EI-B

>  <INSTRUMENT>  (7411) 
HITACHI RMU-6M

>  <ION MODE>  (7411) 
P

>  <INCHIKEY>  (7411) 
FBAOQDIATMHNAD-SECBINFHSA-N

>  <FORMULA>  (7411) 
C11H19NO5

>  <EXACT MASS>  (7411) 
245.12632270799998

>  <MW>  (7411) 
245

>  <ID>  (7411) 
JP000094

>  <CONTRIBUTOR>  (7411) 
University of Tokyo Team, {Faculty of Engineering, University of Tokyo

>  <COMMENT>  (7411) 
SMILES=CCOC(=O)CCC([H])(NC(C)=O)C(=O)OCC
InChI=InChI=1S/C11H19NO5/c1-4-16-10(14)7-6-9(12-8(3)13)11(15)17-5-2/h9H,4-7H2,1-3H3,(H,12,13)/t9-/m1/s1
computed SMILES=O=C(OCC)CCC(N=C(O)C)C(=O)OCC
accession=JP000094
date=2016.01.19 (Created 2008.10.21, modified 2011.05.06)
author=YAMAMOTO M, DEP. CHEMISTRY, FAC. SCIENCE, NARA WOMEN'S UNIV.
license=CC BY-NC-SA
exact mass=245.12632
ionization energy=70 eV
ion type=[M]+*
computed spectral entropy=2.642342025219433
computed normalized entropy=0.7025263064824157
SPLASH=splash10-001i-9400000000-fb913c97f7a617b7e812
submitter=submitter = University of Tokyo Team (Faculty of Engineering, University of Tokyo)
MoNA Rating=3.75

>  <NUM PEAKS>  (7411) 
43

>  <MASS SPECTRAL PEAKS>  (7411) 
15 4.7
26 1.1
27 8.9
28 1.17
29 16.1
30 2.4
31 2.9
39 0.13
41 9.1
42 2.7
43 45.5
44 0.16
45 2.3
54 1.7
55 2.6
56 2.18
57 7.3
74 2.9
82 1
84 99.99
85 4.8
98 1.8
99 1.9
100 0.21
102 7
111 1.4
112 16.4
113 0.1
126 17
127 1.2
128 1.5
130 1.85
131 2.8
153 1.4
154 1.2
158 1.93
159 1.2
172 43.3
173 3.3
199 0.47
200 6.1
202 2.1
245 1

$$$$

     RDKit          2D

 16 16  0  0  1  0  0  0  0  0999 V2000
   -6.1702    4.2571    0.0000 C   0  0  0  0  0  0  0  0  0  0  0  0
   -3.5721   -0.2429    0.0000 C   0  0  0  0  0  0  0  0  0  0  0  0
    2.9231    2.0071    0.0000 C   0  0  0  0  0  0  0  0  0  0  0  0
    2.9236    3.5079    0.0000 C   0  0  0  0  0  0  0  0  0  0  0  0
    1.6236    1.2563    0.0000 C   0  0  0  0  0  0  0  0  0  0  0  0
    1.6245    4.2579    0.0000 C   0  0  0  0  0  0  0  0  0  0  0  0
    0.3245    2.0063    0.0000 C   0  0  0  0  0  0  0  0  0  0  0  0
   -0.9740    4.2571    0.0000 C   0  0  0  0  0  0  0  0  0  0  0  0
   -4.8712    3.5071    0.0000 C   0  0  0  0  0  0  0  0  0  0  0  0
    0.3250    3.5071    0.0000 C   0  0  0  0  0  0  0  0  0  0  0  0
   -2.2731    3.5071    0.0000 C   0  0  0  0  0  0  0  0  0  0  0  0
   -2.2731    2.0071    0.0000 C   0  0  0  0  0  0  0  0  0  0  0  0
   -3.5721    4.2571    0.0000 N   0  0  0  0  0  0  0  0  0  0  0  0
   -4.8712    2.0071    0.0000 O   0  0  0  0  0  0  0  0  0  0  0  0
   -0.9740    1.2571    0.0000 O   0  0  0  0  0  0  0  0  0  0  0  0
   -3.5721    1.2571    0.0000 O   0  0  0  0  0  0  0  0  0  0  0  0
  4  3  2  0
  5  3  1  0
  6  4  1  0
  7  5  2  0
  9  1  1  0
 10  6  2  0
 10  7  1  0
 10  8  1  0
 11  8  1  6
 12 11  1  0
 13  9  2  3
 11 13  1  0
 14  9  1  0
 15 12  2  0
 16  2  1  0
 16 12  1  0
M  END
>  <NAME>  (7412) 
N-ACETYL-PHENYLALANINE METHYLESTER

>  <SYNONYMS>  (7412) 


>  <SPECTRUM TYPE>  (7412) 
MS1

>  <INSTRUMENT TYPE>  (7412) 
EI-B

>  <INSTRUMENT>  (7412) 
HITACHI RMU-6M

>  <ION MODE>  (7412) 
P

>  <INCHIKEY>  (7412) 
IKGHIFGXPVLPFD-LLVKDONJSA-N

>  <FORMULA>  (7412) 
C12H15NO3

>  <EXACT MASS>  (7412) 
221.10519333999997

>  <MW>  (7412) 
221

>  <ID>  (7412) 
JP000093

>  <CONTRIBUTOR>  (7412) 
University of Tokyo Team, {Faculty of Engineering, University of Tokyo

>  <COMMENT>  (7412) 
SMILES=COC(=O)C([H])(NC(C)=O)Cc(c1)cccc1
InChI=InChI=1S/C12H15NO3/c1-9(14)13-11(12(15)16-2)8-10-6-4-3-5-7-10/h3-7,11H,8H2,1-2H3,(H,13,14)/t11-/m1/s1
computed SMILES=O=C(OC)C(N=C(O)C)CC=1C=CC=CC1
accession=JP000093
date=2016.01.19 (Created 2008.10.21, modified 2011.05.06)
author=YAMAMOTO M, DEP. CHEMISTRY, FAC. SCIENCE, NARA WOMEN'S UNIV.
license=CC BY-NC-SA
exact mass=221.10519
ionization energy=70 eV
ion type=[M]+*
computed spectral entropy=2.9071330061804757
computed normalized entropy=0.7682313222686847
SPLASH=splash10-01p6-9600000000-3711e43a6f489dd5037b
submitter=submitter = University of Tokyo Team (Faculty of Engineering, University of Tokyo)
MoNA Rating=3.75

>  <NUM PEAKS>  (7412) 
44

>  <MASS SPECTRAL PEAKS>  (7412) 
15 13.98
27 1.94
28 13.19
29 1.29
31 1.51
33 10.32
39 7.96
41 3.08
42 3.66
43 72.76
44 2.01
50 2.01
51 6.45
52 1.72
59 2.37
60 3.23
63 3.8
64 1.15
65 16.13
66 1
77 9.25
78 2.94
88 96.06
89 7.31
90 2.8
91 57.35
92 10.75
93 2.44
102 3.73
103 11.83
104 3.8
117 4.09
118 5.66
119 5.45
120 53.05
121 5.81
130 3.3
131 32.62
132 3.8
144 1.43
161 13.05
162 99.99
163 11.54
221 0.43

$$$$

     RDKit          2D

 13 12  0  0  1  0  0  0  0  0999 V2000
    3.2476    2.6250    0.0000 C   0  0  0  0  0  0  0  0  0  0  0  0
    0.6495    7.1250    0.0000 C   0  0  0  0  0  0  0  0  0  0  0  0
   -5.8457    3.3750    0.0000 C   0  0  0  0  0  0  0  0  0  0  0  0
   -1.9486    2.6250    0.0000 C   0  0  0  0  0  0  0  0  0  0  0  0
   -3.2476    3.3750    0.0000 C   0  0  0  0  0  0  0  0  0  0  0  0
    1.9486    3.3750    0.0000 C   0  0  0  0  0  0  0  0  0  0  0  0
   -0.6495    3.3750    0.0000 C   0  0  0  0  0  0  0  0  0  0  0  0
   -0.6495    4.8750    0.0000 C   0  0  0  0  0  0  0  0  0  0  0  0
    0.6495    2.6250    0.0000 N   0  0  0  0  0  0  0  0  0  0  0  0
    1.9486    4.8750    0.0000 O   0  0  0  0  0  0  0  0  0  0  0  0
   -1.9486    5.6250    0.0000 O   0  0  0  0  0  0  0  0  0  0  0  0
    0.6495    5.6250    0.0000 O   0  0  0  0  0  0  0  0  0  0  0  0
   -4.5466    2.6250    0.0000 S   0  0  0  0  0  0  0  0  0  0  0  0
  5  4  1  0
  6  1  1  0
  7  4  1  6
  8  7  1  0
  9  6  2  3
  7  9  1  0
 10  6  1  0
 11  8  2  0
 12  2  1  0
 12  8  1  0
 13  3  1  0
 13  5  1  0
M  END
>  <NAME>  (7413) 
N-ACETYL-METHIONINE METHYLESTER

>  <SYNONYMS>  (7413) 


>  <SPECTRUM TYPE>  (7413) 
MS1

>  <INSTRUMENT TYPE>  (7413) 
EI-B

>  <INSTRUMENT>  (7413) 
HITACHI RMU-6M

>  <ION MODE>  (7413) 
P

>  <INCHIKEY>  (7413) 
YVMKSJIMTATAAS-SSDOTTSWSA-N

>  <FORMULA>  (7413) 
C8H15NO3S

>  <EXACT MASS>  (7413) 
205.07726434

>  <MW>  (7413) 
205

>  <ID>  (7413) 
JP000092

>  <CONTRIBUTOR>  (7413) 
University of Tokyo Team, {Faculty of Engineering, University of Tokyo

>  <COMMENT>  (7413) 
SMILES=COC(=O)C([H])(CCSC)NC(C)=O
InChI=InChI=1S/C8H15NO3S/c1-6(10)9-7(4-5-13-3)8(11)12-2/h7H,4-5H2,1-3H3,(H,9,10)/t7-/m1/s1
computed SMILES=O=C(OC)C(N=C(O)C)CCSC
accession=JP000092
date=2016.01.19 (Created 2008.10.21, modified 2011.05.06)
author=YAMAMOTO M, DEP. CHEMISTRY, FAC. SCIENCE, NARA WOMEN'S UNIV.
license=CC BY-NC-SA
exact mass=205.07726
ionization energy=70 eV
ion type=[M]+*
computed spectral entropy=3.5780852427532808
computed normalized entropy=0.8212817025626334
SPLASH=splash10-06s7-9300000000-794ac11e618a09d81cc3
submitter=submitter = University of Tokyo Team (Faculty of Engineering, University of Tokyo)
MoNA Rating=3.75

>  <NUM PEAKS>  (7413) 
78

>  <MASS SPECTRAL PEAKS>  (7413) 
14 3.07
15 14.72
26 4.81
27 14.66
28 27.83
29 5.15
30 8.61
31 4.72
32 2.46
33 8.54
35 7.18
39 5.24
40 1.36
41 14.34
42 12.07
43 99.99
44 4.92
45 13.24
46 5.57
47 14.56
48 7.54
49 2.98
54 7.18
55 5.21
56 67.96
57 18.77
58 2.04
59 7.35
60 6.89
61 77.35
62 4.08
63 3.98
68 1.81
70 1.55
71 12.3
72 1.68
74 11.2
75 15.53
76 1.17
77 1.04
83 3.98
84 4.05
85 2.59
86 2.52
87 4.92
88 35.28
89 30.74
90 1.65
97 1.29
98 10.81
99 85.11
100 7.22
101 1.68
102 17.8
103 1.36
104 28.16
105 1.88
106 1.36
109 1.36
112 13.56
113 1.91
114 7.93
115 2.46
116 6.83
125 3.53
126 2.2
130 1.29
131 91.59
132 5.99
144 16.51
145 1.62
146 9.09
158 5.83
162 5.83
163 1.46
173 1.91
205 8.51
206 1.29

$$$$

     RDKit          2D

 11 10  0  0  1  0  0  0  0  0999 V2000
    2.2733    2.8125    0.0000 C   0  0  0  0  0  0  0  0  0  0  0  0
   -5.5209    2.8125    0.0000 C   0  0  0  0  0  0  0  0  0  0  0  0
   -1.6238    5.0625    0.0000 C   0  0  0  0  0  0  0  0  0  0  0  0
    0.9743    3.5625    0.0000 C   0  0  0  0  0  0  0  0  0  0  0  0
   -1.6238    3.5625    0.0000 C   0  0  0  0  0  0  0  0  0  0  0  0
   -2.9228    2.8125    0.0000 C   0  0  0  0  0  0  0  0  0  0  0  0
   -0.3248    2.8125    0.0000 N   0  0  0  0  0  0  0  0  0  0  0  0
   -2.9228    5.8125    0.0000 O   0  0  0  0  0  0  0  0  0  0  0  0
    0.9743    5.0625    0.0000 O   0  0  0  0  0  0  0  0  0  0  0  0
   -2.9228    1.3125    0.0000 O   0  0  0  0  0  0  0  0  0  0  0  0
   -4.2219    3.5625    0.0000 O   0  0  0  0  0  0  0  0  0  0  0  0
  4  1  1  0
  5  3  1  1
  6  5  1  0
  7  4  2  3
  5  7  1  0
  8  3  1  0
  9  4  1  0
 10  6  2  0
 11  2  1  0
 11  6  1  0
M  END
>  <NAME>  (7414) 
N-ACETYL-SERINE METHYLESTER

>  <SYNONYMS>  (7414) 


>  <SPECTRUM TYPE>  (7414) 
MS1

>  <INSTRUMENT TYPE>  (7414) 
EI-B

>  <INSTRUMENT>  (7414) 
HITACHI RMU-6M

>  <ION MODE>  (7414) 
P

>  <INCHIKEY>  (7414) 
ONUNDAQVOOLWTH-RXMQYKEDSA-N

>  <FORMULA>  (7414) 
C6H11NO4

>  <EXACT MASS>  (7414) 
161.068807832

>  <MW>  (7414) 
161

>  <ID>  (7414) 
JP000091

>  <CONTRIBUTOR>  (7414) 
University of Tokyo Team, {Faculty of Engineering, University of Tokyo

>  <COMMENT>  (7414) 
SMILES=COC(=O)C([H])(CO)NC(C)=O
InChI=InChI=1S/C6H11NO4/c1-4(9)7-5(3-8)6(10)11-2/h5,8H,3H2,1-2H3,(H,7,9)/t5-/m1/s1
computed SMILES=O=C(OC)C(N=C(O)C)CO
accession=JP000091
date=2016.01.19 (Created 2008.10.21, modified 2011.05.06)
author=YAMAMOTO M, DEP. CHEMISTRY, FAC. SCIENCE, NARA WOMEN'S UNIV.
license=CC BY-NC-SA
exact mass=161.06881
ionization energy=70 eV
ion type=[M]+*
computed spectral entropy=2.663146387470826
computed normalized entropy=0.7321191225532769
SPLASH=splash10-0006-9200000000-5bcf38399f17afb03bdb
submitter=submitter = University of Tokyo Team (Faculty of Engineering, University of Tokyo)
MoNA Rating=3.75

>  <NUM PEAKS>  (7414) 
38

>  <MASS SPECTRAL PEAKS>  (7414) 
27 4.74
28 16.01
29 4.88
31 3.02
32 2.13
33 3.85
38 1.65
39 5.43
40 7.22
41 31.27
42 61.86
43 99.99
44 5.02
45 1.58
52 2.54
53 2.06
54 2.47
55 1.58
56 2.27
58 1.31
59 3.16
63 1.92
65 2.47
68 2.13
71 10.65
74 1.1
80 2.54
83 1.58
84 4.81
100 1.44
101 43.64
102 3.57
105 1.37
109 1.37
111 12.58
112 3.99
143 19.52
144 1.58

$$$$

     RDKit          2D

 13 12  0  0  1  0  0  0  0  0999 V2000
   -4.8714    3.9375    0.0000 C   0  0  0  0  0  0  0  0  0  0  0  0
   -3.5724    1.6875    0.0000 C   0  0  0  0  0  0  0  0  0  0  0  0
    2.9228    3.9375    0.0000 C   0  0  0  0  0  0  0  0  0  0  0  0
    0.3248   -0.5625    0.0000 C   0  0  0  0  0  0  0  0  0  0  0  0
   -2.2733    3.9375    0.0000 C   0  0  0  0  0  0  0  0  0  0  0  0
   -3.5724    3.1875    0.0000 C   0  0  0  0  0  0  0  0  0  0  0  0
    1.6238    3.1875    0.0000 C   0  0  0  0  0  0  0  0  0  0  0  0
   -0.9743    3.1875    0.0000 C   0  0  0  0  0  0  0  0  0  0  0  0
   -0.9743    1.6875    0.0000 C   0  0  0  0  0  0  0  0  0  0  0  0
    0.3248    3.9375    0.0000 N   0  0  0  0  0  0  0  0  0  0  0  0
    1.6238    1.6875    0.0000 O   0  0  0  0  0  0  0  0  0  0  0  0
   -2.2733    0.9375    0.0000 O   0  0  0  0  0  0  0  0  0  0  0  0
    0.3248    0.9375    0.0000 O   0  0  0  0  0  0  0  0  0  0  0  0
  6  1  1  0
  6  2  1  0
  6  5  1  0
  7  3  1  0
  8  5  1  1
  9  8  1  0
 10  7  2  3
  8 10  1  0
 11  7  1  0
 12  9  2  0
 13  4  1  0
 13  9  1  0
M  END
>  <NAME>  (7415) 
N-ACETYL-LEUCINE METHYLESTER

>  <SYNONYMS>  (7415) 


>  <SPECTRUM TYPE>  (7415) 
MS1

>  <INSTRUMENT TYPE>  (7415) 
EI-B

>  <INSTRUMENT>  (7415) 
HITACHI RMU-6M

>  <ION MODE>  (7415) 
P

>  <INCHIKEY>  (7415) 
IIGAKARAJMXVOZ-MRVPVSSYSA-N

>  <FORMULA>  (7415) 
C9H17NO3

>  <EXACT MASS>  (7415) 
187.12084340399997

>  <MW>  (7415) 
187

>  <ID>  (7415) 
JP000090

>  <CONTRIBUTOR>  (7415) 
University of Tokyo Team, {Faculty of Engineering, University of Tokyo

>  <COMMENT>  (7415) 
SMILES=COC(=O)C([H])(CC(C)C)NC(C)=O
InChI=InChI=1S/C9H17NO3/c1-6(2)5-8(9(12)13-4)10-7(3)11/h6,8H,5H2,1-4H3,(H,10,11)/t8-/m1/s1
computed SMILES=O=C(OC)C(N=C(O)C)CC(C)C
accession=JP000090
date=2016.01.19 (Created 2008.10.21, modified 2011.05.06)
author=YAMAMOTO M, DEP. CHEMISTRY, FAC. SCIENCE, NARA WOMEN'S UNIV.
license=CC BY-NC-SA
exact mass=187.12084
ionization energy=70 eV
ion type=[M]+*
computed spectral entropy=2.940140209420372
computed normalized entropy=0.763643505021599
SPLASH=splash10-002r-9100000000-520507d1312e82b4c47e
submitter=submitter = University of Tokyo Team (Faculty of Engineering, University of Tokyo)
MoNA Rating=3.75

>  <NUM PEAKS>  (7415) 
47

>  <MASS SPECTRAL PEAKS>  (7415) 
15 33.2
27 16
28 20
29 0.78
30 48
31 1.6
33 8.4
39 0.84
40 1.4
41 19.2
42 12
43 6.32
44 33.6
45 1
53 2
54 0.12
55 3.2
56 5
57 5
59 0.26
60 5.8
67 2.2
68 2.6
69 0.32
70 8.8
71 3.6
72 1.8
73 0.14
74 1.8
84 3.6
85 2.6
86 99.99
87 7
88 21.2
89 6.6
96 0.12
99 13.6
102 3.8
112 3.8
113 0.22
128 47.4
129 5.2
130 2
131 1.28
144 1.8
156 1.2
187 1.2

$$$$

     RDKit          2D

 12 11  0  0  1  0  0  0  0  0999 V2000
   -2.9228    5.8125    0.0000 C   0  0  0  0  0  0  0  0  0  0  0  0
   -0.3248    5.8125    0.0000 C   0  0  0  0  0  0  0  0  0  0  0  0
    2.2733    2.8125    0.0000 C   0  0  0  0  0  0  0  0  0  0  0  0
   -5.5209    2.8125    0.0000 C   0  0  0  0  0  0  0  0  0  0  0  0
   -1.6238    5.0625    0.0000 C   0  0  0  0  0  0  0  0  0  0  0  0
    0.9743    3.5625    0.0000 C   0  0  0  0  0  0  0  0  0  0  0  0
   -1.6238    3.5625    0.0000 C   0  0  0  0  0  0  0  0  0  0  0  0
   -2.9228    2.8125    0.0000 C   0  0  0  0  0  0  0  0  0  0  0  0
   -0.3248    2.8125    0.0000 N   0  0  0  0  0  0  0  0  0  0  0  0
    0.9743    5.0625    0.0000 O   0  0  0  0  0  0  0  0  0  0  0  0
   -2.9228    1.3125    0.0000 O   0  0  0  0  0  0  0  0  0  0  0  0
   -4.2219    3.5625    0.0000 O   0  0  0  0  0  0  0  0  0  0  0  0
  5  1  1  0
  5  2  1  0
  6  3  1  0
  7  5  1  0
  8  7  1  0
  9  6  2  3
  7  9  1  6
 10  6  1  0
 11  8  2  0
 12  4  1  0
 12  8  1  0
M  END
>  <NAME>  (7416) 
N-ACETYL-VALINE METHYLESTER

>  <SYNONYMS>  (7416) 


>  <SPECTRUM TYPE>  (7416) 
MS1

>  <INSTRUMENT TYPE>  (7416) 
EI-B

>  <INSTRUMENT>  (7416) 
HITACHI RMU-6M

>  <ION MODE>  (7416) 
P

>  <INCHIKEY>  (7416) 
KCHNPFJMSOGXIT-ZETCQYMHSA-N

>  <FORMULA>  (7416) 
C8H15NO3

>  <EXACT MASS>  (7416) 
173.10519333999997

>  <MW>  (7416) 
173

>  <ID>  (7416) 
JP000089

>  <CONTRIBUTOR>  (7416) 
University of Tokyo Team, {Faculty of Engineering, University of Tokyo

>  <COMMENT>  (7416) 
SMILES=COC(=O)C([H])(NC(C)=O)C(C)C
InChI=InChI=1S/C8H15NO3/c1-5(2)7(8(11)12-4)9-6(3)10/h5,7H,1-4H3,(H,9,10)/t7-/m0/s1
computed SMILES=O=C(OC)C(N=C(O)C)C(C)C
accession=JP000089
date=2016.01.19 (Created 2008.10.21, modified 2011.05.06)
author=YAMAMOTO M, DEP. CHEMISTRY, FAC. SCIENCE, NARA WOMEN'S UNIV.
license=CC BY-NC-SA
exact mass=173.10519
ionization energy=70 eV
ion type=[M]+*
computed spectral entropy=2.70861289852221
computed normalized entropy=0.7115453250192502
SPLASH=splash10-022c-9100000000-22609d8ed02f02a27152
submitter=submitter = University of Tokyo Team (Faculty of Engineering, University of Tokyo)
MoNA Rating=3.75

>  <NUM PEAKS>  (7416) 
45

>  <MASS SPECTRAL PEAKS>  (7416) 
14 1.2
15 29
27 9
28 2.37
29 5.7
30 9
31 1.1
33 0.82
39 7
40 1.7
41 9.8
42 0.45
43 58.2
44 1.7
45 1.2
53 0.1
54 2.1
55 18.7
56 10.7
57 0.8
59 2.4
60 14.3
69 1.3
70 0.52
71 4.8
72 99.99
73 5.4
74 0.26
82 1.6
83 2.8
84 1
88 3.71
89 6.5
98 1.5
99 15.8
100 0.12
102 1
114 52.1
115 4.4
116 0.14
126 1
130 1.9
131 3.7
142 0.13
173 0.9

$$$$

     RDKit          2D

 13 12  0  0  1  0  0  0  0  0999 V2000
   -4.8714    3.9375    0.0000 C   0  0  0  0  0  0  0  0  0  0  0  0
   -2.2733    5.4375    0.0000 C   0  0  0  0  0  0  0  0  0  0  0  0
    2.9228    3.9375    0.0000 C   0  0  0  0  0  0  0  0  0  0  0  0
    0.3248   -0.5625    0.0000 C   0  0  0  0  0  0  0  0  0  0  0  0
   -3.5724    3.1875    0.0000 C   0  0  0  0  0  0  0  0  0  0  0  0
   -2.2733    3.9375    0.0000 C   0  0  0  0  0  0  0  0  0  0  0  0
    1.6238    3.1875    0.0000 C   0  0  0  0  0  0  0  0  0  0  0  0
   -0.9743    3.1875    0.0000 C   0  0  0  0  0  0  0  0  0  0  0  0
   -0.9743    1.6875    0.0000 C   0  0  0  0  0  0  0  0  0  0  0  0
    0.3248    3.9375    0.0000 N   0  0  0  0  0  0  0  0  0  0  0  0
    1.6238    1.6875    0.0000 O   0  0  0  0  0  0  0  0  0  0  0  0
   -2.2733    0.9375    0.0000 O   0  0  0  0  0  0  0  0  0  0  0  0
    0.3248    0.9375    0.0000 O   0  0  0  0  0  0  0  0  0  0  0  0
  5  1  1  0
  6  2  1  6
  6  5  1  0
  7  3  1  0
  8  6  1  0
  9  8  1  0
 10  7  2  3
  8 10  1  6
 11  7  1  0
 12  9  2  0
 13  4  1  0
 13  9  1  0
M  END
>  <NAME>  (7417) 
N-ACETYL-ISOLEUCINE METHYLESTER

>  <SYNONYMS>  (7417) 


>  <SPECTRUM TYPE>  (7417) 
MS1

>  <INSTRUMENT TYPE>  (7417) 
EI-B

>  <INSTRUMENT>  (7417) 
HITACHI RMU-6M

>  <ION MODE>  (7417) 
P

>  <INCHIKEY>  (7417) 
JPQWQTHLAKUOOA-XPUUQOCRSA-N

>  <FORMULA>  (7417) 
C9H17NO3

>  <EXACT MASS>  (7417) 
187.120843404

>  <MW>  (7417) 
187

>  <ID>  (7417) 
JP000088

>  <CONTRIBUTOR>  (7417) 
University of Tokyo Team, {Faculty of Engineering, University of Tokyo

>  <COMMENT>  (7417) 
SMILES=CCC([H])(C)C([H])(NC(C)=O)C(=O)OC
InChI=InChI=1S/C9H17NO3/c1-5-6(2)8(9(12)13-4)10-7(3)11/h6,8H,5H2,1-4H3,(H,10,11)/t6-,8-/m0/s1
computed SMILES=O=C(OC)C(N=C(O)C)C(C)CC
ionization energy=70 eV
ion type=[M]+*
accession=JP000088
date=2016.01.19 (Created 2008.10.21, modified 2011.05.06)
author=YAMAMOTO M, DEP. CHEMISTRY, FAC. SCIENCE, NARA WOMEN'S UNIV.
license=CC BY-NC-SA
exact mass=187.12084
computed spectral entropy=2.9939878168735756
computed normalized entropy=0.7505639987335391
SPLASH=splash10-004u-9100000000-34da34048ae8753af128
submitter=submitter = University of Tokyo Team (Faculty of Engineering, University of Tokyo)
MoNA Rating=3.75

>  <NUM PEAKS>  (7417) 
54

>  <MASS SPECTRAL PEAKS>  (7417) 
14 1.2
15 41.3
26 1.2
27 1.47
28 32.8
29 25.3
30 41
31 0.14
33 13.9
39 10
40 1.4
41 3.04
42 6.5
43 90.9
45 10.8
46 0.15
53 2
54 3.1
55 4.6
56 1.61
57 18.9
58 3.1
59 3.7
60 2.02
67 1.9
68 2.5
69 15.8
70 0.71
71 8.3
72 4.9
74 6.2
84 0.49
85 2.8
86 99.99
87 6.9
88 5.02
89 20.9
90 3.7
96 5.9
97 0.34
98 1.9
99 55.6
100 4
113 0.17
116 2.2
126 2.8
128 89.6
129 0.85
130 1.9
131 13.1
144 1.5
155 0.12
156 1.7
187 0.8

$$$$

     RDKit          2D

 10  9  0  0  1  0  0  0  0  0999 V2000
   -1.6238    5.0625    0.0000 C   0  0  0  0  0  0  0  0  0  0  0  0
    2.2733    2.8125    0.0000 C   0  0  0  0  0  0  0  0  0  0  0  0
   -5.5209    2.8125    0.0000 C   0  0  0  0  0  0  0  0  0  0  0  0
   -1.6238    3.5625    0.0000 C   0  0  0  0  0  0  0  0  0  0  0  0
    0.9743    3.5625    0.0000 C   0  0  0  0  0  0  0  0  0  0  0  0
   -2.9228    2.8125    0.0000 C   0  0  0  0  0  0  0  0  0  0  0  0
   -0.3248    2.8125    0.0000 N   0  0  0  0  0  0  0  0  0  0  0  0
    0.9743    5.0625    0.0000 O   0  0  0  0  0  0  0  0  0  0  0  0
   -2.9228    1.3125    0.0000 O   0  0  0  0  0  0  0  0  0  0  0  0
   -4.2219    3.5625    0.0000 O   0  0  0  0  0  0  0  0  0  0  0  0
  4  1  1  1
  5  2  1  0
  6  4  1  0
  7  4  1  0
  7  5  2  3
  8  5  1  0
  9  6  2  0
 10  3  1  0
 10  6  1  0
M  END
>  <NAME>  (7418) 
N-ACETYL-ALANINE METHYLESTER

>  <SYNONYMS>  (7418) 


>  <SPECTRUM TYPE>  (7418) 
MS1

>  <INSTRUMENT TYPE>  (7418) 
EI-B

>  <INSTRUMENT>  (7418) 
HITACHI RMU-6M

>  <ION MODE>  (7418) 
P

>  <INCHIKEY>  (7418) 
FQGVVDYNRHNTCK-SCSAIBSYSA-N

>  <FORMULA>  (7418) 
C6H11NO3

>  <EXACT MASS>  (7418) 
145.07389321199997

>  <MW>  (7418) 
145

>  <ID>  (7418) 
JP000087

>  <CONTRIBUTOR>  (7418) 
University of Tokyo Team, {Faculty of Engineering, University of Tokyo

>  <COMMENT>  (7418) 
SMILES=COC(=O)C([H])(C)NC(C)=O
InChI=InChI=1S/C6H11NO3/c1-4(6(9)10-3)7-5(2)8/h4H,1-3H3,(H,7,8)/t4-/m1/s1
computed SMILES=O=C(OC)C(N=C(O)C)C
accession=JP000087
date=2016.01.19 (Created 2008.10.21, modified 2011.05.06)
author=YAMAMOTO M, DEP. CHEMISTRY, FAC. SCIENCE, NARA WOMEN'S UNIV.
license=CC BY-NC-SA
exact mass=145.07389
ionization energy=70 eV
ion type=[M]+*
computed spectral entropy=1.7314372123513309
computed normalized entropy=0.5601466943523151
SPLASH=splash10-0006-9000000000-df3a8de10fd3021cd5ec
submitter=submitter = University of Tokyo Team (Faculty of Engineering, University of Tokyo)
MoNA Rating=3.75

>  <NUM PEAKS>  (7418) 
22

>  <MASS SPECTRAL PEAKS>  (7418) 
14 1.5
15 26.3
26 1.3
27 0.35
28 10.2
29 2.3
30 1.1
31 0.2
33 1.7
41 1.9
42 11.2
43 2.88
44 99.99
45 2.3
55 1.2
59 0.21
70 1.2
86 11.2
87 1.6
88 0.39
102 1.4
145 2.8

$$$$

     RDKit          2D

  9  8  0  0  0  0  0  0  0  0999 V2000
    2.2733    2.8125    0.0000 C   0  0  0  0  0  0  0  0  0  0  0  0
   -5.5209    2.8125    0.0000 C   0  0  0  0  0  0  0  0  0  0  0  0
   -1.6238    3.5625    0.0000 C   0  0  0  0  0  0  0  0  0  0  0  0
    0.9743    3.5625    0.0000 C   0  0  0  0  0  0  0  0  0  0  0  0
   -2.9228    2.8125    0.0000 C   0  0  0  0  0  0  0  0  0  0  0  0
   -0.3248    2.8125    0.0000 N   0  0  0  0  0  0  0  0  0  0  0  0
    0.9743    5.0625    0.0000 O   0  0  0  0  0  0  0  0  0  0  0  0
   -2.9228    1.3125    0.0000 O   0  0  0  0  0  0  0  0  0  0  0  0
   -4.2219    3.5625    0.0000 O   0  0  0  0  0  0  0  0  0  0  0  0
  4  1  1  0
  5  3  1  0
  6  3  1  0
  6  4  2  3
  7  4  1  0
  8  5  2  0
  9  2  1  0
  9  5  1  0
M  END
>  <NAME>  (7419) 
N-ACETYL-GLYCINE METHYLESTER

>  <SYNONYMS>  (7419) 


>  <SPECTRUM TYPE>  (7419) 
MS1

>  <INSTRUMENT TYPE>  (7419) 
EI-B

>  <INSTRUMENT>  (7419) 
HITACHI RMU-6M

>  <ION MODE>  (7419) 
P

>  <INCHIKEY>  (7419) 
RFNODQARGNZURK-UHFFFAOYSA-N

>  <FORMULA>  (7419) 
C5H9NO3

>  <EXACT MASS>  (7419) 
131.05824314799997

>  <MW>  (7419) 
131

>  <ID>  (7419) 
JP000086

>  <CONTRIBUTOR>  (7419) 
University of Tokyo Team, {Faculty of Engineering, University of Tokyo

>  <COMMENT>  (7419) 
SMILES=COC(=O)CNC(C)=O
InChI=InChI=1S/C5H9NO3/c1-4(7)6-3-5(8)9-2/h3H2,1-2H3,(H,6,7)
computed SMILES=O=C(OC)CN=C(O)C
accession=JP000086
date=2016.01.19 (Created 2008.10.21, modified 2011.05.06)
author=YAMAMOTO M, DEP. CHEMISTRY, FAC. SCIENCE, NARA WOMEN'S UNIV.
license=CC BY-NC-SA
exact mass=131.05824
ionization energy=70 eV
ion type=[M]+*
computed spectral entropy=2.007704634862248
computed normalized entropy=0.6403152092140918
SPLASH=splash10-001i-9000000000-8eb79a1b4590896d6e2c
submitter=submitter = University of Tokyo Team (Faculty of Engineering, University of Tokyo)
MoNA Rating=3.75

>  <NUM PEAKS>  (7419) 
23

>  <MASS SPECTRAL PEAKS>  (7419) 
14 2.7
15 23.9
27 1.2
28 1.33
29 5.1
30 99.99
31 2
33 0.19
42 7.2
43 49.3
44 2.8
45 0.17
55 1.1
56 4.5
57 1.1
59 0.22
72 32.3
73 1.4
88 3
89 0.55
99 11.9
100 3.1
131 3.7

$$$$

     RDKit          2D

  8  8  0  0  0  0  0  0  0  0999 V2000
   -2.5989   -1.5002    0.0000 C   0  0  0  0  0  0  0  0  0  0  0  0
   -1.3000    0.7500    0.0000 C   0  0  0  0  0  0  0  0  0  0  0  0
   -0.0000   -1.5000    0.0000 C   0  0  0  0  0  0  0  0  0  0  0  0
    0.0000    1.5000    0.0000 C   0  0  0  0  0  0  0  0  0  0  0  0
    1.3000   -0.7500    0.0000 C   0  0  0  0  0  0  0  0  0  0  0  0
   -1.3000   -0.7500    0.0000 C   0  0  0  0  0  0  0  0  0  0  0  0
    1.3000    0.7500    0.0000 C   0  0  0  0  0  0  0  0  0  0  0  0
    2.5989    1.5002    0.0000 I   0  0  0  0  0  0  0  0  0  0  0  0
  4  2  2  0
  5  3  1  0
  6  1  1  0
  6  2  1  0
  6  3  2  0
  7  4  1  0
  7  5  2  0
  8  7  1  0
M  END
>  <NAME>  (7420) 
PARA IODOTOLUENE

>  <SYNONYMS>  (7420) 


>  <SPECTRUM TYPE>  (7420) 
MS1

>  <INSTRUMENT TYPE>  (7420) 
EI-B

>  <INSTRUMENT>  (7420) 
HITACHI RMU-7M

>  <ION MODE>  (7420) 
P

>  <INCHIKEY>  (7420) 
UDHAWRUAECEBHC-UHFFFAOYSA-N

>  <FORMULA>  (7420) 
C7H7I

>  <EXACT MASS>  (7420) 
217.959248224

>  <MW>  (7420) 
218

>  <ID>  (7420) 
JP000085

>  <CONTRIBUTOR>  (7420) 
University of Tokyo Team, {Faculty of Engineering, University of Tokyo

>  <COMMENT>  (7420) 
SMILES=Cc(c1)ccc(I)c1
InChI=InChI=1S/C7H7I/c1-6-2-4-7(8)5-3-6/h2-5H,1H3
computed SMILES=IC1=CC=C(C=C1)C
accession=JP000085
date=2016.01.19 (Created 2008.10.21, modified 2011.05.06)
author=TAJIMA S, GUNMA COLLEGE OF TECHNOLOGY
license=CC BY-NC-SA
exact mass=217.95924
ionization energy=70 eV
ion type=[M]+*
computed spectral entropy=1.9383632331739922
computed normalized entropy=0.6470415431598006
SPLASH=splash10-014i-9070000000-e91849950bd42b3b6eae
submitter=submitter = University of Tokyo Team (Faculty of Engineering, University of Tokyo)
MoNA Rating=3.75

>  <NUM PEAKS>  (7420) 
20

>  <MASS SPECTRAL PEAKS>  (7420) 
38 1.56
39 8.2
41 1.46
50 4.39
51 3.41
61 1.02
62 2.93
63 7.8
64 2.2
65 24.39
74 1.07
89 7.32
90 4.88
91 55.61
92 4
127 0.83
128 0.49
217 2.44
218 99.99
219 7.32

$$$$

     RDKit          2D

  8  8  0  0  0  0  0  0  0  0999 V2000
    2.5989    1.5002    0.0000 C   0  0  0  0  0  0  0  0  0  0  0  0
   -1.3000    0.7500    0.0000 C   0  0  0  0  0  0  0  0  0  0  0  0
    0.0000    1.5000    0.0000 C   0  0  0  0  0  0  0  0  0  0  0  0
   -1.3000   -0.7500    0.0000 C   0  0  0  0  0  0  0  0  0  0  0  0
    1.3000   -0.7500    0.0000 C   0  0  0  0  0  0  0  0  0  0  0  0
    1.3000    0.7500    0.0000 C   0  0  0  0  0  0  0  0  0  0  0  0
   -0.0000   -1.5000    0.0000 C   0  0  0  0  0  0  0  0  0  0  0  0
   -0.0000   -3.0000    0.0000 I   0  0  0  0  0  0  0  0  0  0  0  0
  3  2  2  0
  4  2  1  0
  6  1  1  0
  6  3  1  0
  6  5  2  0
  7  4  2  0
  7  5  1  0
  8  7  1  0
M  END
>  <NAME>  (7421) 
META IODOTOLUENE

>  <SYNONYMS>  (7421) 


>  <SPECTRUM TYPE>  (7421) 
MS1

>  <INSTRUMENT TYPE>  (7421) 
EI-B

>  <INSTRUMENT>  (7421) 
HITACHI RMU-7M

>  <ION MODE>  (7421) 
P

>  <INCHIKEY>  (7421) 
VLCPISYURGTGLP-UHFFFAOYSA-N

>  <FORMULA>  (7421) 
C7H7I

>  <EXACT MASS>  (7421) 
217.959248224

>  <MW>  (7421) 
218

>  <ID>  (7421) 
JP000084

>  <CONTRIBUTOR>  (7421) 
University of Tokyo Team, {Faculty of Engineering, University of Tokyo

>  <COMMENT>  (7421) 
SMILES=Cc(c1)cc(I)cc1
InChI=InChI=1S/C7H7I/c1-6-3-2-4-7(8)5-6/h2-5H,1H3
computed SMILES=IC1=CC=CC(=C1)C
accession=JP000084
date=2016.01.19 (Created 2008.10.21, modified 2011.05.06)
author=TAJIMA S, GUNMA COLLEGE OF TECHNOLOGY
license=CC BY-NC-SA
exact mass=217.95924
ionization energy=70 eV
ion type=[M]+*
computed spectral entropy=1.8894670771126079
computed normalized entropy=0.6307196052840317
SPLASH=splash10-014l-9050000000-9e67938a8ff79b4f7645
submitter=submitter = University of Tokyo Team (Faculty of Engineering, University of Tokyo)
MoNA Rating=3.75

>  <NUM PEAKS>  (7421) 
20

>  <MASS SPECTRAL PEAKS>  (7421) 
38 1.48
39 9.48
41 2.37
50 4.09
51 3.55
61 0.95
62 2.96
63 8.23
64 2.13
65 37.56
66 1.66
89 7.7
90 4.98
91 96.74
92 6.99
127 1.13
128 0.71
217 0.71
218 99.99
219 7.23

$$$$

     RDKit          2D

  8  8  0  0  0  0  0  0  0  0999 V2000
   -0.0000   -3.0000    0.0000 C   0  0  0  0  0  0  0  0  0  0  0  0
   -1.3000    0.7500    0.0000 C   0  0  0  0  0  0  0  0  0  0  0  0
    0.0000    1.5000    0.0000 C   0  0  0  0  0  0  0  0  0  0  0  0
   -1.3000   -0.7500    0.0000 C   0  0  0  0  0  0  0  0  0  0  0  0
    1.3000    0.7500    0.0000 C   0  0  0  0  0  0  0  0  0  0  0  0
    0.0000   -1.5000    0.0000 C   0  0  0  0  0  0  0  0  0  0  0  0
    1.3000   -0.7500    0.0000 C   0  0  0  0  0  0  0  0  0  0  0  0
    2.5989   -1.5002    0.0000 I   0  0  0  0  0  0  0  0  0  0  0  0
  3  2  2  0
  4  2  1  0
  5  3  1  0
  6  1  1  0
  6  4  2  0
  7  5  2  0
  7  6  1  0
  8  7  1  0
M  END
>  <NAME>  (7422) 
ORTHO IODOTOLUENE

>  <SYNONYMS>  (7422) 


>  <SPECTRUM TYPE>  (7422) 
MS1

>  <INSTRUMENT TYPE>  (7422) 
EI-B

>  <INSTRUMENT>  (7422) 
HITACHI RMU-7M

>  <ION MODE>  (7422) 
P

>  <INCHIKEY>  (7422) 
RINOYHWVBUKAQE-UHFFFAOYSA-N

>  <FORMULA>  (7422) 
C7H7I

>  <EXACT MASS>  (7422) 
217.959248224

>  <MW>  (7422) 
218

>  <ID>  (7422) 
JP000083

>  <CONTRIBUTOR>  (7422) 
University of Tokyo Team, {Faculty of Engineering, University of Tokyo

>  <COMMENT>  (7422) 
SMILES=Cc(c1)c(I)ccc1
InChI=InChI=1S/C7H7I/c1-6-4-2-3-5-7(6)8/h2-5H,1H3
computed SMILES=IC=1C=CC=CC1C
accession=JP000083
date=2016.01.19 (Created 2008.10.21, modified 2011.05.06)
author=TAJIMA S, GUNMA COLLEGE OF TECHNOLOGY
license=CC BY-NC-SA
exact mass=217.95924
ionization energy=70 eV
ion type=[M]+*
computed spectral entropy=2.2646782756206743
computed normalized entropy=0.7035618640906731
SPLASH=splash10-014l-9030000000-ba38ec16da1121a0e3e3
submitter=submitter = University of Tokyo Team (Faculty of Engineering, University of Tokyo)
MoNA Rating=3.75

>  <NUM PEAKS>  (7422) 
25

>  <MASS SPECTRAL PEAKS>  (7422) 
27 1.26
37 1.68
38 3.78
39 16.78
40 1.26
41 2.43
50 6.04
51 6.63
52 1.68
61 2.1
62 6.29
63 15.44
64 4.19
65 38
66 1.68
74 1.26
89 14.43
90 12.67
91 99.99
92 7.21
127 4.11
128 1.26
217 0.76
218 85.57
219 6.29

$$$$

     RDKit          2D

 12 12  0  0  0  0  0  0  0  0999 V2000
   -6.4962    0.7508    0.0000 C   0  0  0  0  0  0  0  0  0  0  0  0
   -5.1970    1.5006    0.0000 C   0  0  0  0  0  0  0  0  0  0  0  0
   -1.3000   -0.7500    0.0000 C   0  0  0  0  0  0  0  0  0  0  0  0
    0.0000    1.5000    0.0000 C   0  0  0  0  0  0  0  0  0  0  0  0
    0.0000   -1.5000    0.0000 C   0  0  0  0  0  0  0  0  0  0  0  0
    1.3000    0.7500    0.0000 C   0  0  0  0  0  0  0  0  0  0  0  0
   -1.3000    0.7500    0.0000 C   0  0  0  0  0  0  0  0  0  0  0  0
    1.3000   -0.7500    0.0000 C   0  0  0  0  0  0  0  0  0  0  0  0
   -2.5989    1.5002    0.0000 C   0  0  0  0  0  0  0  0  0  0  0  0
    2.5989   -1.5002    0.0000 N   0  0  0  0  0  0  0  0  0  0  0  0
   -2.5987    3.0002    0.0000 O   0  0  0  0  0  0  0  0  0  0  0  0
   -3.8981    0.7504    0.0000 O   0  0  0  0  0  0  0  0  0  0  0  0
  2  1  1  0
  5  3  2  0
  6  4  1  0
  7  3  1  0
  7  4  2  0
  8  5  1  0
  8  6  2  0
  9  7  1  0
 10  8  1  0
 11  9  2  0
 12  2  1  0
 12  9  1  0
M  END
>  <NAME>  (7423) 
ETHYL PARA AMINO BENZOATE

>  <SYNONYMS>  (7423) 
PARA AMINO BENZOIC ACID ETHYL ESTER

>  <SPECTRUM TYPE>  (7423) 
MS1

>  <INSTRUMENT TYPE>  (7423) 
EI-B

>  <INSTRUMENT>  (7423) 
HITACHI RMU-7M

>  <ION MODE>  (7423) 
P

>  <INCHIKEY>  (7423) 
BLFLLBZGZJTVJG-UHFFFAOYSA-N

>  <FORMULA>  (7423) 
C9H11NO2

>  <EXACT MASS>  (7423) 
165.078978592

>  <MW>  (7423) 
165

>  <ID>  (7423) 
JP000082

>  <CONTRIBUTOR>  (7423) 
University of Tokyo Team, {Faculty of Engineering, University of Tokyo

>  <COMMENT>  (7423) 
SMILES=CCOC(=O)c(c1)ccc(N)c1
InChI=InChI=1S/C9H11NO2/c1-2-12-9(11)7-3-5-8(10)6-4-7/h3-6H,2,10H2,1H3
computed SMILES=O=C(OCC)C1=CC=C(N)C=C1
accession=JP000082
date=2016.01.19 (Created 2008.10.21, modified 2011.05.06)
author=TAJIMA S, GUNMA COLLEGE OF TECHNOLOGY
license=CC BY-NC-SA
exact mass=165.07898
ionization energy=70 eV
ion type=[M]+*
computed spectral entropy=2.0020212032491345
computed normalized entropy=0.6926518008556657
SPLASH=splash10-00di-4900000000-9341302295e361a20bfd
submitter=submitter = University of Tokyo Team (Faculty of Engineering, University of Tokyo)
MoNA Rating=3.75

>  <NUM PEAKS>  (7423) 
18

>  <MASS SPECTRAL PEAKS>  (7423) 
27 1.87
29 1.78
39 7.12
41 2.06
52 1.12
63 2.72
64 2.81
65 23.43
91 2.44
92 29.62
93 4.31
119 3.37
120 99.99
121 9.93
137 16.87
138 0.75
165 25.3
166 2.16

$$$$

     RDKit          2D

 12 12  0  0  0  0  0  0  0  0999 V2000
   -1.6208    0.2024    0.0000 C   0  0  0  0  0  0  0  0  0  0  0  0
   -0.3175   -0.5401    0.0000 C   0  0  0  0  0  0  0  0  0  0  0  0
    4.8465    2.4650    0.0000 C   0  0  0  0  0  0  0  0  0  0  0  0
    6.1294    1.7372    0.0000 C   0  0  0  0  0  0  0  0  0  0  0  0
    3.5694    1.7126    0.0000 C   0  0  0  0  0  0  0  0  0  0  0  0
    6.1656    0.2376    0.0000 C   0  0  0  0  0  0  0  0  0  0  0  0
    3.5753    0.2324    0.0000 C   0  0  0  0  0  0  0  0  0  0  0  0
    4.8581   -0.4953    0.0000 C   0  0  0  0  0  0  0  0  0  0  0  0
    2.2806   -0.5251    0.0000 C   0  0  0  0  0  0  0  0  0  0  0  0
    4.8544   -1.9953    0.0000 N   0  0  0  0  0  0  0  0  0  0  0  0
    2.2892   -2.0250    0.0000 O   0  0  0  0  0  0  0  0  0  0  0  0
    0.9772    0.2174    0.0000 O   0  0  0  0  0  0  0  0  0  0  0  0
  2  1  1  0
  4  3  2  0
  5  3  1  0
  6  4  1  0
  7  5  2  0
  8  6  2  0
  8  7  1  0
  9  7  1  0
 10  8  1  0
 11  9  2  0
 12  2  1  0
 12  9  1  0
M  END
>  <NAME>  (7424) 
ANTHRANILIC ACID ETHYL ESTER

>  <SYNONYMS>  (7424) 
ETHYL ORTHO AMINO BENZOATE

>  <SPECTRUM TYPE>  (7424) 
MS1

>  <INSTRUMENT TYPE>  (7424) 
EI-B

>  <INSTRUMENT>  (7424) 
HITACHI RMU-7M

>  <ION MODE>  (7424) 
P

>  <INCHIKEY>  (7424) 
TWLLPUMZVVGILS-UHFFFAOYSA-N

>  <FORMULA>  (7424) 
C9H11NO2

>  <EXACT MASS>  (7424) 
165.078978592

>  <MW>  (7424) 
165

>  <ID>  (7424) 
JP000081

>  <CONTRIBUTOR>  (7424) 
University of Tokyo Team, {Faculty of Engineering, University of Tokyo

>  <COMMENT>  (7424) 
SMILES=CCOC(=O)c(c1)c(N)ccc1
InChI=InChI=1S/C9H11NO2/c1-2-12-9(11)7-5-3-4-6-8(7)10/h3-6H,2,10H2,1H3
computed SMILES=O=C(OCC)C=1C=CC=CC1N
exact mass=165.07898
accession=JP000081
date=2016.01.19 (Created 2008.10.21, modified 2011.05.06)
author=TAJIMA S, GUNMA COLLEGE OF TECHNOLOGY
license=CC BY-NC-SA
ionization energy=70 eV
ion type=[M]+*
computed spectral entropy=2.1740857272908554
computed normalized entropy=0.7257276447843671
SPLASH=splash10-014i-5900000000-93092db3cfda9502465f
submitter=submitter = University of Tokyo Team (Faculty of Engineering, University of Tokyo)
MoNA Rating=3.75

>  <NUM PEAKS>  (7424) 
20

>  <MASS SPECTRAL PEAKS>  (7424) 
27 2.1
29 1.68
38 1.26
39 7.49
41 1.68
52 2.31
63 4.55
64 6.79
65 25.21
66 3.15
90 1.33
91 6.44
92 50.42
93 7.21
119 99.99
120 38.52
121 3.36
137 5.81
165 36.55
166 3.36

$$$$

     RDKit          2D

 11 11  0  0  0  0  0  0  0  0999 V2000
   -5.1970    1.5006    0.0000 C   0  0  0  0  0  0  0  0  0  0  0  0
   -1.3000   -0.7500    0.0000 C   0  0  0  0  0  0  0  0  0  0  0  0
    0.0000    1.5000    0.0000 C   0  0  0  0  0  0  0  0  0  0  0  0
    0.0000   -1.5000    0.0000 C   0  0  0  0  0  0  0  0  0  0  0  0
    1.3000    0.7500    0.0000 C   0  0  0  0  0  0  0  0  0  0  0  0
   -1.3000    0.7500    0.0000 C   0  0  0  0  0  0  0  0  0  0  0  0
    1.3000   -0.7500    0.0000 C   0  0  0  0  0  0  0  0  0  0  0  0
   -2.5989    1.5002    0.0000 C   0  0  0  0  0  0  0  0  0  0  0  0
    2.5989   -1.5002    0.0000 N   0  0  0  0  0  0  0  0  0  0  0  0
   -2.5987    3.0002    0.0000 O   0  0  0  0  0  0  0  0  0  0  0  0
   -3.8981    0.7504    0.0000 O   0  0  0  0  0  0  0  0  0  0  0  0
  4  2  2  0
  5  3  1  0
  6  2  1  0
  6  3  2  0
  7  4  1  0
  7  5  2  0
  8  6  1  0
  9  7  1  0
 10  8  2  0
 11  1  1  0
 11  8  1  0
M  END
>  <NAME>  (7425) 
METHYL PARA AMINO BENZOATE

>  <SYNONYMS>  (7425) 
PARA AMINO BENZOIC ACID METHYL ESTER

>  <SPECTRUM TYPE>  (7425) 
MS1

>  <INSTRUMENT TYPE>  (7425) 
EI-B

>  <INSTRUMENT>  (7425) 
HITACHI RMU-7M

>  <ION MODE>  (7425) 
P

>  <INCHIKEY>  (7425) 
LZXXNPOYQCLXRS-UHFFFAOYSA-N

>  <FORMULA>  (7425) 
C8H9NO2

>  <EXACT MASS>  (7425) 
151.063328528

>  <MW>  (7425) 
151

>  <ID>  (7425) 
JP000080

>  <CONTRIBUTOR>  (7425) 
University of Tokyo Team, {Faculty of Engineering, University of Tokyo

>  <COMMENT>  (7425) 
SMILES=COC(=O)c(c1)ccc(N)c1
InChI=InChI=1S/C8H9NO2/c1-11-8(10)6-2-4-7(9)5-3-6/h2-5H,9H2,1H3
computed SMILES=O=C(OC)C1=CC=C(N)C=C1
accession=JP000080
date=2016.01.19 (Created 2008.10.21, modified 2011.05.06)
author=TAJIMA S, GUNMA COLLEGE OF TECHNOLOGY
license=CC BY-NC-SA
exact mass=151.06333
ionization energy=70 eV
ion type=[M]+*
computed spectral entropy=2.37510287287463
computed normalized entropy=0.7289848060539481
SPLASH=splash10-00di-7900000000-b99d851d29a614f38099
submitter=submitter = University of Tokyo Team (Faculty of Engineering, University of Tokyo)
MoNA Rating=3.75

>  <NUM PEAKS>  (7425) 
26

>  <MASS SPECTRAL PEAKS>  (7425) 
27 1.67
29 7.53
31 13.05
38 2.51
39 9.87
40 3.18
41 5.02
50 1.26
51 1.26
52 2.76
62 1.76
63 5.44
64 4.77
65 31.13
66 3.35
90 1.26
91 3.35
92 37.66
93 4.02
119 5.1
120 99.99
121 9.37
122 1.76
150 1.51
151 38.08
152 3.51

$$$$

     RDKit          2D

 11 11  0  0  0  0  0  0  0  0999 V2000
    4.8632    0.9310    0.0000 C   0  0  0  0  0  0  0  0  0  0  0  0
   -0.3008   -2.0740    0.0000 C   0  0  0  0  0  0  0  0  0  0  0  0
   -1.5837   -1.3463    0.0000 C   0  0  0  0  0  0  0  0  0  0  0  0
    0.9763   -1.3216    0.0000 C   0  0  0  0  0  0  0  0  0  0  0  0
   -1.6199    0.1533    0.0000 C   0  0  0  0  0  0  0  0  0  0  0  0
    0.9704    0.1585    0.0000 C   0  0  0  0  0  0  0  0  0  0  0  0
   -0.3124    0.8862    0.0000 C   0  0  0  0  0  0  0  0  0  0  0  0
    2.2651    0.9160    0.0000 C   0  0  0  0  0  0  0  0  0  0  0  0
   -0.3087    2.3862    0.0000 N   0  0  0  0  0  0  0  0  0  0  0  0
    2.2565    2.4160    0.0000 O   0  0  0  0  0  0  0  0  0  0  0  0
    3.5685    0.1735    0.0000 O   0  0  0  0  0  0  0  0  0  0  0  0
  3  2  2  0
  4  2  1  0
  5  3  1  0
  6  4  2  0
  7  5  2  0
  7  6  1  0
  8  6  1  0
  9  7  1  0
 10  8  2  0
 11  1  1  0
 11  8  1  0
M  END
>  <NAME>  (7426) 
ANTHRANILIC ACID METHYL ESTER

>  <SYNONYMS>  (7426) 
METHYL ORTHO AMINO BENZOATE

>  <SPECTRUM TYPE>  (7426) 
MS1

>  <INSTRUMENT TYPE>  (7426) 
EI-B

>  <INSTRUMENT>  (7426) 
HITACHI RMU-7M

>  <ION MODE>  (7426) 
P

>  <INCHIKEY>  (7426) 
VAMXMNNIEUEQDV-UHFFFAOYSA-N

>  <FORMULA>  (7426) 
C8H9NO2

>  <EXACT MASS>  (7426) 
151.063328528

>  <MW>  (7426) 
151

>  <ID>  (7426) 
JP000079

>  <CONTRIBUTOR>  (7426) 
University of Tokyo Team, {Faculty of Engineering, University of Tokyo

>  <COMMENT>  (7426) 
SMILES=COC(=O)c(c1)c(N)ccc1
InChI=InChI=1S/C8H9NO2/c1-11-8(10)6-4-2-3-5-7(6)9/h2-5H,9H2,1H3
computed SMILES=O=C(OC)C=1C=CC=CC1N
accession=JP000079
date=2016.01.19 (Created 2008.10.21, modified 2011.05.06)
author=TAJIMA S, GUNMA COLLEGE OF TECHNOLOGY
license=CC BY-NC-SA
exact mass=151.06333
ionization energy=70 eV
ion type=[M]+*
computed spectral entropy=2.3981067913598944
computed normalized entropy=0.7545834398586446
SPLASH=splash10-014l-9700000000-dfe3727f600ad4c1a3fc
submitter=submitter = University of Tokyo Team (Faculty of Engineering, University of Tokyo)
MoNA Rating=3.75

>  <NUM PEAKS>  (7426) 
24

>  <MASS SPECTRAL PEAKS>  (7426) 
27 1.41
29 2.25
37 1.48
38 4.78
39 16.53
40 3.52
41 5.27
50 2.04
51 2.11
52 6.68
62 2.67
63 9.99
64 13.36
65 39.94
66 4.99
90 3.09
91 10.62
92 75.25
93 6.4
119 99.99
120 29.4
121 2.25
151 41.21
152 3.66

$$$$

     RDKit          2D

 15 15  0  0  0  0  0  0  0  0999 V2000
   -3.2489    3.0002    0.0000 C   0  0  0  0  0  0  0  0  0  0  0  0
   -1.9502    5.2504    0.0000 C   0  0  0  0  0  0  0  0  0  0  0  0
    5.8453    0.7498    0.0000 C   0  0  0  0  0  0  0  0  0  0  0  0
    7.1443    1.4998    0.0000 C   0  0  0  0  0  0  0  0  0  0  0  0
    4.5458    1.5006    0.0000 C   0  0  0  0  0  0  0  0  0  0  0  0
    7.1439    3.0006    0.0000 C   0  0  0  0  0  0  0  0  0  0  0  0
   -0.6508    3.0006    0.0000 C   0  0  0  0  0  0  0  0  0  0  0  0
    0.6481    3.7508    0.0000 C   0  0  0  0  0  0  0  0  0  0  0  0
   -1.9500    3.7504    0.0000 C   0  0  0  0  0  0  0  0  0  0  0  0
    4.5453    3.0015    0.0000 C   0  0  0  0  0  0  0  0  0  0  0  0
    5.8443    3.7515    0.0000 C   0  0  0  0  0  0  0  0  0  0  0  0
    3.2462    3.7512    0.0000 C   0  0  0  0  0  0  0  0  0  0  0  0
    5.8446    5.2515    0.0000 O   0  0  0  0  0  0  0  0  0  0  0  0
    3.2459    5.2512    0.0000 O   0  0  0  0  0  0  0  0  0  0  0  0
    1.9472    3.0010    0.0000 O   0  0  0  0  0  0  0  0  0  0  0  0
  4  3  2  0
  5  3  1  0
  6  4  1  0
  8  7  1  0
  9  1  1  0
  9  2  1  0
  9  7  1  0
 10  5  2  0
 11  6  2  0
 11 10  1  0
 12 10  1  0
 13 11  1  0
 14 12  2  0
 15  8  1  0
 15 12  1  0
M  END
>  <NAME>  (7427) 
ISOAMYL SALICYLATE

>  <SYNONYMS>  (7427) 
ISOAMYL ORTHO HYDROXY BENZOATE

>  <SPECTRUM TYPE>  (7427) 
MS1

>  <INSTRUMENT TYPE>  (7427) 
EI-B

>  <INSTRUMENT>  (7427) 
HITACHI RMU-7M

>  <ION MODE>  (7427) 
P

>  <INCHIKEY>  (7427) 
PMGCQNGBLMMXEW-UHFFFAOYSA-N

>  <FORMULA>  (7427) 
C12H16O3

>  <EXACT MASS>  (7427) 
208.10994437199997

>  <MW>  (7427) 
208

>  <ID>  (7427) 
JP000078

>  <CONTRIBUTOR>  (7427) 
University of Tokyo Team, {Faculty of Engineering, University of Tokyo

>  <COMMENT>  (7427) 
SMILES=CC(C)CCOC(=O)c(c1)c(O)ccc1
InChI=InChI=1S/C12H16O3/c1-9(2)7-8-15-12(14)10-5-3-4-6-11(10)13/h3-6,9,13H,7-8H2,1-2H3
computed SMILES=O=C(OCCC(C)C)C=1C=CC=CC1O
accession=JP000078
date=2016.01.19 (Created 2008.10.21, modified 2011.05.06)
author=TAJIMA S, GUNMA COLLEGE OF TECHNOLOGY
license=CC BY-NC-SA
exact mass=208.10994
ionization energy=70 eV
ion type=[M]+*
computed spectral entropy=2.63965288619096
computed normalized entropy=0.8305878462423528
SPLASH=splash10-00dl-9800000000-e932949ffff596a0e7a8
submitter=submitter = University of Tokyo Team (Faculty of Engineering, University of Tokyo)
MoNA Rating=3.75

>  <NUM PEAKS>  (7427) 
24

>  <MASS SPECTRAL PEAKS>  (7427) 
27 5.37
29 7.05
39 15.85
41 13.74
42 4.23
43 41.83
53 3.13
55 14.97
63 4.4
64 5.68
65 18.58
66 1.28
69 1.32
70 18.58
71 9.78
92 24.17
93 10.57
120 99.99
121 37.91
122 3.04
138 35.4
139 6.91
208 13.21
209 1.72

$$$$

     RDKit          2D

 14 14  0  0  0  0  0  0  0  0999 V2000
   -3.8922    3.7647    0.0000 C   0  0  0  0  0  0  0  0  0  0  0  0
   -2.6043    1.5084    0.0000 C   0  0  0  0  0  0  0  0  0  0  0  0
    3.8982    3.7328    0.0000 C   0  0  0  0  0  0  0  0  0  0  0  0
    2.5847    1.5079    0.0000 C   0  0  0  0  0  0  0  0  0  0  0  0
    5.1827    3.0079    0.0000 C   0  0  0  0  0  0  0  0  0  0  0  0
    3.9092    0.7138    0.0000 C   0  0  0  0  0  0  0  0  0  0  0  0
   -1.2942    3.7519    0.0000 C   0  0  0  0  0  0  0  0  0  0  0  0
   -2.5969    3.0083    0.0000 C   0  0  0  0  0  0  0  0  0  0  0  0
    2.5992    2.9828    0.0000 C   0  0  0  0  0  0  0  0  0  0  0  0
    5.2082    1.4638    0.0000 C   0  0  0  0  0  0  0  0  0  0  0  0
    1.3039    3.7391    0.0000 C   0  0  0  0  0  0  0  0  0  0  0  0
    6.5134    0.7245    0.0000 O   0  0  0  0  0  0  0  0  0  0  0  0
    1.3112    5.2391    0.0000 O   0  0  0  0  0  0  0  0  0  0  0  0
    0.0011    2.9956    0.0000 O   0  0  0  0  0  0  0  0  0  0  0  0
  5  3  2  0
  6  4  1  0
  8  1  1  0
  8  2  1  0
  8  7  1  0
  9  3  1  0
  9  4  2  0
 10  5  1  0
 10  6  2  0
 11  9  1  0
 12 10  1  0
 13 11  2  0
 14  7  1  0
 14 11  1  0
M  END
>  <NAME>  (7428) 
ISOBUTYL PARA HYDROXY BENZOATE

>  <SYNONYMS>  (7428) 


>  <SPECTRUM TYPE>  (7428) 
MS1

>  <INSTRUMENT TYPE>  (7428) 
EI-B

>  <INSTRUMENT>  (7428) 
HITACHI RMU-7M

>  <ION MODE>  (7428) 
P

>  <INCHIKEY>  (7428) 
XPJVKCRENWUEJH-UHFFFAOYSA-N

>  <FORMULA>  (7428) 
C11H14O3

>  <EXACT MASS>  (7428) 
194.094294308

>  <MW>  (7428) 
194

>  <ID>  (7428) 
JP000077

>  <CONTRIBUTOR>  (7428) 
University of Tokyo Team, {Faculty of Engineering, University of Tokyo

>  <COMMENT>  (7428) 
SMILES=CC(C)COC(=O)c(c1)ccc(O)c1
InChI=InChI=1S/C11H14O3/c1-8(2)7-14-11(13)9-3-5-10(12)6-4-9/h3-6,8,12H,7H2,1-2H3
computed SMILES=O=C(OCC(C)C)C1=CC=C(O)C=C1
accession=JP000077
date=2016.01.19 (Created 2008.10.21, modified 2011.05.06)
author=TAJIMA S, GUNMA COLLEGE OF TECHNOLOGY
license=CC BY-NC-SA
exact mass=194.09429
ionization energy=70 eV
ion type=[M]+*
computed spectral entropy=2.0993724146057904
computed normalized entropy=0.7007877283089777
SPLASH=splash10-00dr-4900000000-3d0134adeb830e265010
submitter=submitter = University of Tokyo Team (Faculty of Engineering, University of Tokyo)
MoNA Rating=3.75

>  <NUM PEAKS>  (7428) 
20

>  <MASS SPECTRAL PEAKS>  (7428) 
27 4.78
29 3.18
39 12.74
41 6.37
43 3.34
59 3.03
63 3.03
64 2.39
65 19.03
66 2.39
92 1.75
93 19.51
94 3.9
95 1.43
120 1.27
121 99.99
122 9.87
123 1.27
138 48.01
139 6.85

$$$$

     RDKit          2D

 14 14  0  0  0  0  0  0  0  0999 V2000
   -3.5739    3.1880    0.0000 C   0  0  0  0  0  0  0  0  0  0  0  0
   -2.2745    0.9382    0.0000 C   0  0  0  0  0  0  0  0  0  0  0  0
    4.2214    0.1873    0.0000 C   0  0  0  0  0  0  0  0  0  0  0  0
    5.5205    0.9373    0.0000 C   0  0  0  0  0  0  0  0  0  0  0  0
    2.9219    0.9382    0.0000 C   0  0  0  0  0  0  0  0  0  0  0  0
    5.5200    2.4382    0.0000 C   0  0  0  0  0  0  0  0  0  0  0  0
   -0.9758    3.1884    0.0000 C   0  0  0  0  0  0  0  0  0  0  0  0
   -2.2747    2.4382    0.0000 C   0  0  0  0  0  0  0  0  0  0  0  0
    2.9214    2.4390    0.0000 C   0  0  0  0  0  0  0  0  0  0  0  0
    4.2205    3.1890    0.0000 C   0  0  0  0  0  0  0  0  0  0  0  0
    1.6223    3.1888    0.0000 C   0  0  0  0  0  0  0  0  0  0  0  0
    4.2207    4.6890    0.0000 O   0  0  0  0  0  0  0  0  0  0  0  0
    1.6220    4.6888    0.0000 O   0  0  0  0  0  0  0  0  0  0  0  0
    0.3233    2.4386    0.0000 O   0  0  0  0  0  0  0  0  0  0  0  0
  4  3  2  0
  5  3  1  0
  6  4  1  0
  8  1  1  0
  8  2  1  0
  8  7  1  0
  9  5  2  0
 10  6  2  0
 10  9  1  0
 11  9  1  0
 12 10  1  0
 13 11  2  0
 14  7  1  0
 14 11  1  0
M  END
>  <NAME>  (7429) 
ISOBUTYL SALICYLATE

>  <SYNONYMS>  (7429) 
ISOBUTYL ORTHO HYDROXY BENZOATE

>  <SPECTRUM TYPE>  (7429) 
MS1

>  <INSTRUMENT TYPE>  (7429) 
EI-B

>  <INSTRUMENT>  (7429) 
HITACHI RMU-7M

>  <ION MODE>  (7429) 
P

>  <INCHIKEY>  (7429) 
PTXDBYSCVQQBNF-UHFFFAOYSA-N

>  <FORMULA>  (7429) 
C11H14O3

>  <EXACT MASS>  (7429) 
194.09429430799997

>  <MW>  (7429) 
194

>  <ID>  (7429) 
JP000076

>  <CONTRIBUTOR>  (7429) 
University of Tokyo Team, {Faculty of Engineering, University of Tokyo

>  <COMMENT>  (7429) 
SMILES=CC(C)COC(=O)c(c1)c(O)ccc1
InChI=InChI=1S/C11H14O3/c1-8(2)7-14-11(13)9-5-3-4-6-10(9)12/h3-6,8,12H,7H2,1-2H3
computed SMILES=O=C(OCC(C)C)C=1C=CC=CC1O
accession=JP000076
date=2016.01.19 (Created 2008.10.21, modified 2011.05.06)
author=TAJIMA S, GUNMA COLLEGE OF TECHNOLOGY
license=CC BY-NC-SA
exact mass=194.09429
ionization energy=70 eV
ion type=[M]+*
computed spectral entropy=2.3319488831697206
computed normalized entropy=0.7544214996581929
SPLASH=splash10-00di-5900000000-858c13ec812ab5cbdca8
submitter=submitter = University of Tokyo Team (Faculty of Engineering, University of Tokyo)
MoNA Rating=3.75

>  <NUM PEAKS>  (7429) 
22

>  <MASS SPECTRAL PEAKS>  (7429) 
27 3.25
29 14.15
38 1.07
39 12.79
41 16.6
43 1.02
53 2.03
55 1.02
56 2.28
57 10.36
63 3.3
64 4.16
65 14.16
92 17.21
93 8.58
120 99.99
121 33.25
122 2.94
138 28.88
139 2.54
194 6.35
195 0.91

$$$$

     RDKit          2D

 14 14  0  0  0  0  0  0  0  0999 V2000
   -4.5454    4.1333    0.0000 C   0  0  0  0  0  0  0  0  0  0  0  0
   -3.2427    4.8769    0.0000 C   0  0  0  0  0  0  0  0  0  0  0  0
   -1.9474    4.1205    0.0000 C   0  0  0  0  0  0  0  0  0  0  0  0
    4.5477    4.8450    0.0000 C   0  0  0  0  0  0  0  0  0  0  0  0
    3.2342    2.6201    0.0000 C   0  0  0  0  0  0  0  0  0  0  0  0
    5.8323    4.1201    0.0000 C   0  0  0  0  0  0  0  0  0  0  0  0
    4.5587    1.8260    0.0000 C   0  0  0  0  0  0  0  0  0  0  0  0
   -0.6447    4.8641    0.0000 C   0  0  0  0  0  0  0  0  0  0  0  0
    3.2487    4.0950    0.0000 C   0  0  0  0  0  0  0  0  0  0  0  0
    5.8577    2.5760    0.0000 C   0  0  0  0  0  0  0  0  0  0  0  0
    1.9534    4.8513    0.0000 C   0  0  0  0  0  0  0  0  0  0  0  0
    7.1629    1.8367    0.0000 O   0  0  0  0  0  0  0  0  0  0  0  0
    1.9608    6.3513    0.0000 O   0  0  0  0  0  0  0  0  0  0  0  0
    0.6507    4.1078    0.0000 O   0  0  0  0  0  0  0  0  0  0  0  0
  2  1  1  0
  3  2  1  0
  6  4  2  0
  7  5  1  0
  8  3  1  0
  9  4  1  0
  9  5  2  0
 10  6  1  0
 10  7  2  0
 11  9  1  0
 12 10  1  0
 13 11  2  0
 14  8  1  0
 14 11  1  0
M  END
>  <NAME>  (7430) 
BUTYL PARA HYDROXY BENZOATE

>  <SYNONYMS>  (7430) 


>  <SPECTRUM TYPE>  (7430) 
MS1

>  <INSTRUMENT TYPE>  (7430) 
EI-B

>  <INSTRUMENT>  (7430) 
HITACHI RMU-7M

>  <ION MODE>  (7430) 
P

>  <INCHIKEY>  (7430) 
QFOHBWFCKVYLES-UHFFFAOYSA-N

>  <FORMULA>  (7430) 
C11H14O3

>  <EXACT MASS>  (7430) 
194.09429430799997

>  <MW>  (7430) 
194

>  <ID>  (7430) 
JP000075

>  <CONTRIBUTOR>  (7430) 
University of Tokyo Team, {Faculty of Engineering, University of Tokyo

>  <COMMENT>  (7430) 
SMILES=CCCCOC(=O)c(c1)ccc(O)c1
InChI=InChI=1S/C11H14O3/c1-2-3-8-14-11(13)9-4-6-10(12)7-5-9/h4-7,12H,2-3,8H2,1H3
computed SMILES=O=C(OCCCC)C1=CC=C(O)C=C1
accession=JP000075
date=2016.01.19 (Created 2008.10.21, modified 2011.05.06)
author=TAJIMA S, GUNMA COLLEGE OF TECHNOLOGY
license=CC BY-NC-SA
exact mass=194.09429
ionization energy=70 eV
ion type=[M]+*
computed spectral entropy=1.831456569588111
computed normalized entropy=0.6336404874510628
SPLASH=splash10-00dr-2900000000-bb56a149a6da74d93ee8
submitter=submitter = University of Tokyo Team (Faculty of Engineering, University of Tokyo)
MoNA Rating=3.75

>  <NUM PEAKS>  (7430) 
18

>  <MASS SPECTRAL PEAKS>  (7430) 
27 2.39
29 1.03
39 8.68
41 3.69
56 1.37
63 2.05
64 1.71
65 13.88
66 1.37
92 1.44
93 19.07
94 2.05
95 1.37
120 1.3
121 99.99
122 8.89
138 65.28
139 8.89

$$$$

     RDKit          2D

 14 14  0  0  0  0  0  0  0  0999 V2000
   -4.2233    3.5628    0.0000 C   0  0  0  0  0  0  0  0  0  0  0  0
   -2.9244    4.3130    0.0000 C   0  0  0  0  0  0  0  0  0  0  0  0
   -1.6252    3.5632    0.0000 C   0  0  0  0  0  0  0  0  0  0  0  0
    4.8709    1.3123    0.0000 C   0  0  0  0  0  0  0  0  0  0  0  0
    6.1700    2.0623    0.0000 C   0  0  0  0  0  0  0  0  0  0  0  0
    3.5714    2.0632    0.0000 C   0  0  0  0  0  0  0  0  0  0  0  0
    6.1695    3.5632    0.0000 C   0  0  0  0  0  0  0  0  0  0  0  0
   -0.3263    4.3134    0.0000 C   0  0  0  0  0  0  0  0  0  0  0  0
    3.5709    3.5640    0.0000 C   0  0  0  0  0  0  0  0  0  0  0  0
    4.8700    4.3140    0.0000 C   0  0  0  0  0  0  0  0  0  0  0  0
    2.2718    4.3138    0.0000 C   0  0  0  0  0  0  0  0  0  0  0  0
    4.8702    5.8140    0.0000 O   0  0  0  0  0  0  0  0  0  0  0  0
    2.2715    5.8138    0.0000 O   0  0  0  0  0  0  0  0  0  0  0  0
    0.9729    3.5636    0.0000 O   0  0  0  0  0  0  0  0  0  0  0  0
  2  1  1  0
  3  2  1  0
  5  4  2  0
  6  4  1  0
  7  5  1  0
  8  3  1  0
  9  6  2  0
 10  7  2  0
 10  9  1  0
 11  9  1  0
 12 10  1  0
 13 11  2  0
 14  8  1  0
 14 11  1  0
M  END
>  <NAME>  (7431) 
BUTYL SALICYLATE

>  <SYNONYMS>  (7431) 
BUTYL ORTHO HYDROXY BENZOATE

>  <SPECTRUM TYPE>  (7431) 
MS1

>  <INSTRUMENT TYPE>  (7431) 
EI-B

>  <INSTRUMENT>  (7431) 
HITACHI RMU-7M

>  <ION MODE>  (7431) 
P

>  <INCHIKEY>  (7431) 
YFDUWSBGVPBWKF-UHFFFAOYSA-N

>  <FORMULA>  (7431) 
C11H14O3

>  <EXACT MASS>  (7431) 
194.09429430799997

>  <MW>  (7431) 
194

>  <ID>  (7431) 
JP000074

>  <CONTRIBUTOR>  (7431) 
University of Tokyo Team, {Faculty of Engineering, University of Tokyo

>  <COMMENT>  (7431) 
SMILES=CCCCOC(=O)c(c1)c(O)ccc1
InChI=InChI=1S/C11H14O3/c1-2-3-8-14-11(13)9-6-4-5-7-10(9)12/h4-7,12H,2-3,8H2,1H3
computed SMILES=O=C(OCCCC)C=1C=CC=CC1O
accession=JP000074
date=2016.01.19 (Created 2008.10.21, modified 2011.05.06)
author=TAJIMA S, GUNMA COLLEGE OF TECHNOLOGY
license=CC BY-NC-SA
exact mass=194.09429
ionization energy=70 eV
ion type=[M]+*
computed spectral entropy=2.3770548741610176
computed normalized entropy=0.7581117075850252
SPLASH=splash10-00di-5900000000-6067ba05f2403e53bd30
submitter=submitter = University of Tokyo Team (Faculty of Engineering, University of Tokyo)
MoNA Rating=3.75

>  <NUM PEAKS>  (7431) 
23

>  <MASS SPECTRAL PEAKS>  (7431) 
27 3.85
29 12.59
39 9.9
41 12.09
43 2.86
53 1.76
55 3.52
56 2.91
57 5.99
63 3.3
64 4.29
65 11.98
69 1.1
71 1.65
92 18.8
93 7.97
120 99.99
121 26.72
122 2.2
138 22.1
139 2.31
194 11.71
195 1.54

$$$$

     RDKit          2D

 13 13  0  0  0  0  0  0  0  0999 V2000
   -2.9355    2.4474    0.0000 C   0  0  0  0  0  0  0  0  0  0  0  0
   -1.6254    4.6910    0.0000 C   0  0  0  0  0  0  0  0  0  0  0  0
    3.5596    3.1719    0.0000 C   0  0  0  0  0  0  0  0  0  0  0  0
    2.2461    0.9470    0.0000 C   0  0  0  0  0  0  0  0  0  0  0  0
    4.8441    2.4470    0.0000 C   0  0  0  0  0  0  0  0  0  0  0  0
    3.5706    0.1529    0.0000 C   0  0  0  0  0  0  0  0  0  0  0  0
   -1.6328    3.1910    0.0000 C   0  0  0  0  0  0  0  0  0  0  0  0
    2.2606    2.4219    0.0000 C   0  0  0  0  0  0  0  0  0  0  0  0
    4.8696    0.9029    0.0000 C   0  0  0  0  0  0  0  0  0  0  0  0
    0.9653    3.1783    0.0000 C   0  0  0  0  0  0  0  0  0  0  0  0
    6.1748    0.1636    0.0000 O   0  0  0  0  0  0  0  0  0  0  0  0
    0.9726    4.6782    0.0000 O   0  0  0  0  0  0  0  0  0  0  0  0
   -0.3375    2.4347    0.0000 O   0  0  0  0  0  0  0  0  0  0  0  0
  5  3  2  0
  6  4  1  0
  7  1  1  0
  7  2  1  0
  8  3  1  0
  8  4  2  0
  9  5  1  0
  9  6  2  0
 10  8  1  0
 11  9  1  0
 12 10  2  0
 13  7  1  0
 13 10  1  0
M  END
>  <NAME>  (7432) 
ISOPROPYL PARA HYDROXY BENZOATE

>  <SYNONYMS>  (7432) 


>  <SPECTRUM TYPE>  (7432) 
MS1

>  <INSTRUMENT TYPE>  (7432) 
EI-B

>  <INSTRUMENT>  (7432) 
HITACHI RMU-7M

>  <ION MODE>  (7432) 
P

>  <INCHIKEY>  (7432) 
CMHMMKSPYOOVGI-UHFFFAOYSA-N

>  <FORMULA>  (7432) 
C10H12O3

>  <EXACT MASS>  (7432) 
180.078644244

>  <MW>  (7432) 
180

>  <ID>  (7432) 
JP000073

>  <CONTRIBUTOR>  (7432) 
University of Tokyo Team, {Faculty of Engineering, University of Tokyo

>  <COMMENT>  (7432) 
SMILES=CC(C)OC(=O)c(c1)ccc(O)c1
InChI=InChI=1S/C10H12O3/c1-7(2)13-10(12)8-3-5-9(11)6-4-8/h3-7,11H,1-2H3
computed SMILES=O=C(OC(C)C)C1=CC=C(O)C=C1
accession=JP000073
date=2016.01.19 (Created 2008.10.21, modified 2011.05.06)
author=TAJIMA S, GUNMA COLLEGE OF TECHNOLOGY
license=CC BY-NC-SA
exact mass=180.07864
ionization energy=70 eV
ion type=[M]+*
computed spectral entropy=2.0596122943723634
computed normalized entropy=0.6875154741144274
SPLASH=splash10-00di-2900000000-2be2a5dce82fa940202d
submitter=submitter = University of Tokyo Team (Faculty of Engineering, University of Tokyo)
MoNA Rating=3.75

>  <NUM PEAKS>  (7432) 
20

>  <MASS SPECTRAL PEAKS>  (7432) 
39 2.11
41 5.09
42 2.4
43 9.38
59 18.55
65 5.82
66 1.31
70 1.16
71 1.24
93 9.38
94 3.05
95 1.38
121 99.99
122 16.15
123 1.45
138 53.24
139 5.16
165 5.67
180 8.8
181 1.67

$$$$

     RDKit          2D

 13 13  0  0  0  0  0  0  0  0999 V2000
    3.2474    5.2504    0.0000 C   0  0  0  0  0  0  0  0  0  0  0  0
    4.5468    3.0006    0.0000 C   0  0  0  0  0  0  0  0  0  0  0  0
   -1.9500    0.7500    0.0000 C   0  0  0  0  0  0  0  0  0  0  0  0
   -1.9500   -0.7500    0.0000 C   0  0  0  0  0  0  0  0  0  0  0  0
   -0.6500    1.5000    0.0000 C   0  0  0  0  0  0  0  0  0  0  0  0
   -0.6500   -1.5000    0.0000 C   0  0  0  0  0  0  0  0  0  0  0  0
    3.2476    3.7504    0.0000 C   0  0  0  0  0  0  0  0  0  0  0  0
    0.6500    0.7500    0.0000 C   0  0  0  0  0  0  0  0  0  0  0  0
    0.6500   -0.7500    0.0000 C   0  0  0  0  0  0  0  0  0  0  0  0
    1.9489    1.5002    0.0000 C   0  0  0  0  0  0  0  0  0  0  0  0
    1.9489   -1.5002    0.0000 O   0  0  0  0  0  0  0  0  0  0  0  0
    3.2481    0.7504    0.0000 O   0  0  0  0  0  0  0  0  0  0  0  0
    1.9487    3.0002    0.0000 O   0  0  0  0  0  0  0  0  0  0  0  0
  4  3  2  0
  5  3  1  0
  6  4  1  0
  7  1  1  0
  7  2  1  0
  8  5  2  0
  9  6  2  0
  9  8  1  0
 10  8  1  0
 11  9  1  0
 12 10  2  0
 13  7  1  0
 13 10  1  0
M  END
>  <NAME>  (7433) 
ISOPROPYL SALICYLATE

>  <SYNONYMS>  (7433) 
ISOPROPYL ORTHO HYDROXY BENZOATE

>  <SPECTRUM TYPE>  (7433) 
MS1

>  <INSTRUMENT TYPE>  (7433) 
EI-B

>  <INSTRUMENT>  (7433) 
HITACHI RMU-7M

>  <ION MODE>  (7433) 
P

>  <INCHIKEY>  (7433) 
YEULQIJMIOWCHB-UHFFFAOYSA-N

>  <FORMULA>  (7433) 
C10H12O3

>  <EXACT MASS>  (7433) 
180.07864424399997

>  <MW>  (7433) 
180

>  <ID>  (7433) 
JP000072

>  <CONTRIBUTOR>  (7433) 
University of Tokyo Team, {Faculty of Engineering, University of Tokyo

>  <COMMENT>  (7433) 
SMILES=CC(C)OC(=O)c(c1)c(O)ccc1
InChI=InChI=1S/C10H12O3/c1-7(2)13-10(12)8-5-3-4-6-9(8)11/h3-7,11H,1-2H3
computed SMILES=O=C(OC(C)C)C=1C=CC=CC1O
accession=JP000072
date=2016.01.19 (Created 2008.10.21, modified 2011.05.06)
author=TAJIMA S, GUNMA COLLEGE OF TECHNOLOGY
license=CC BY-NC-SA
exact mass=180.07864
ionization energy=70 eV
ion type=[M]+*
computed spectral entropy=2.0697207264057247
computed normalized entropy=0.7305206050747224
SPLASH=splash10-00di-3900000000-73c20d9d74a85b8cca92
submitter=submitter = University of Tokyo Team (Faculty of Engineering, University of Tokyo)
MoNA Rating=3.75

>  <NUM PEAKS>  (7433) 
17

>  <MASS SPECTRAL PEAKS>  (7433) 
27 3.45
39 8.9
41 5.58
43 6.39
59 0.63
63 2.82
64 4.51
65 9.15
92 24.33
93 5.96
120 99.99
121 28.97
122 1.88
138 31.66
139 2.63
180 12.79
181 1.32

$$$$

     RDKit          2D

 13 13  0  0  0  0  0  0  0  0999 V2000
   -3.8978    3.7551    0.0000 C   0  0  0  0  0  0  0  0  0  0  0  0
   -2.6024    2.9987    0.0000 C   0  0  0  0  0  0  0  0  0  0  0  0
    3.8927    3.7232    0.0000 C   0  0  0  0  0  0  0  0  0  0  0  0
    2.5791    1.4983    0.0000 C   0  0  0  0  0  0  0  0  0  0  0  0
    5.1772    2.9983    0.0000 C   0  0  0  0  0  0  0  0  0  0  0  0
    3.9037    0.7042    0.0000 C   0  0  0  0  0  0  0  0  0  0  0  0
   -1.2997    3.7423    0.0000 C   0  0  0  0  0  0  0  0  0  0  0  0
    2.5937    2.9732    0.0000 C   0  0  0  0  0  0  0  0  0  0  0  0
    5.2027    1.4542    0.0000 C   0  0  0  0  0  0  0  0  0  0  0  0
    1.2983    3.7296    0.0000 C   0  0  0  0  0  0  0  0  0  0  0  0
    6.5079    0.7149    0.0000 O   0  0  0  0  0  0  0  0  0  0  0  0
    1.3057    5.2295    0.0000 O   0  0  0  0  0  0  0  0  0  0  0  0
   -0.0044    2.9860    0.0000 O   0  0  0  0  0  0  0  0  0  0  0  0
  2  1  1  0
  5  3  2  0
  6  4  1  0
  7  2  1  0
  8  3  1  0
  8  4  2  0
  9  5  1  0
  9  6  2  0
 10  8  1  0
 11  9  1  0
 12 10  2  0
 13  7  1  0
 13 10  1  0
M  END
>  <NAME>  (7434) 
PROPYL PARA HYDROXY BENZOATE

>  <SYNONYMS>  (7434) 


>  <SPECTRUM TYPE>  (7434) 
MS1

>  <INSTRUMENT TYPE>  (7434) 
EI-B

>  <INSTRUMENT>  (7434) 
HITACHI RMU-7M

>  <ION MODE>  (7434) 
P

>  <INCHIKEY>  (7434) 
QELSKZZBTMNZEB-UHFFFAOYSA-N

>  <FORMULA>  (7434) 
C10H12O3

>  <EXACT MASS>  (7434) 
180.07864424399997

>  <MW>  (7434) 
180

>  <ID>  (7434) 
JP000071

>  <CONTRIBUTOR>  (7434) 
University of Tokyo Team, {Faculty of Engineering, University of Tokyo

>  <COMMENT>  (7434) 
SMILES=CCCOC(=O)c(c1)ccc(O)c1
InChI=InChI=1S/C10H12O3/c1-2-7-13-10(12)8-3-5-9(11)6-4-8/h3-6,11H,2,7H2,1H3
computed SMILES=O=C(OCCC)C1=CC=C(O)C=C1
accession=JP000071
date=2016.01.19 (Created 2008.10.21, modified 2011.05.06)
author=TAJIMA S, GUNMA COLLEGE OF TECHNOLOGY
license=CC BY-NC-SA
exact mass=180.07864
ionization energy=70 eV
ion type=[M]+*
computed spectral entropy=1.8083252628260116
computed normalized entropy=0.603633802255868
SPLASH=splash10-00dr-2900000000-5ad831b2650fc930116c
submitter=submitter = University of Tokyo Team (Faculty of Engineering, University of Tokyo)
MoNA Rating=3.75

>  <NUM PEAKS>  (7434) 
20

>  <MASS SPECTRAL PEAKS>  (7434) 
27 1.74
29 1.09
39 7.11
41 1.74
43 1.09
53 1.09
63 1.81
64 1.45
65 12.55
67 1.09
92 1.02
93 13.57
94 1.45
120 2.83
121 99.99
122 8.42
138 53.27
139 5.08
180 3.41
181 0.65

$$$$

     RDKit          2D

 13 13  0  0  0  0  0  0  0  0999 V2000
   -3.5739    3.1880    0.0000 C   0  0  0  0  0  0  0  0  0  0  0  0
   -2.2747    2.4382    0.0000 C   0  0  0  0  0  0  0  0  0  0  0  0
    4.2214    0.1873    0.0000 C   0  0  0  0  0  0  0  0  0  0  0  0
    5.5205    0.9373    0.0000 C   0  0  0  0  0  0  0  0  0  0  0  0
    2.9219    0.9382    0.0000 C   0  0  0  0  0  0  0  0  0  0  0  0
    5.5200    2.4382    0.0000 C   0  0  0  0  0  0  0  0  0  0  0  0
   -0.9758    3.1884    0.0000 C   0  0  0  0  0  0  0  0  0  0  0  0
    2.9214    2.4390    0.0000 C   0  0  0  0  0  0  0  0  0  0  0  0
    4.2205    3.1890    0.0000 C   0  0  0  0  0  0  0  0  0  0  0  0
    1.6223    3.1888    0.0000 C   0  0  0  0  0  0  0  0  0  0  0  0
    4.2207    4.6890    0.0000 O   0  0  0  0  0  0  0  0  0  0  0  0
    1.6220    4.6888    0.0000 O   0  0  0  0  0  0  0  0  0  0  0  0
    0.3233    2.4386    0.0000 O   0  0  0  0  0  0  0  0  0  0  0  0
  2  1  1  0
  4  3  2  0
  5  3  1  0
  6  4  1  0
  7  2  1  0
  8  5  2  0
  9  6  2  0
  9  8  1  0
 10  8  1  0
 11  9  1  0
 12 10  2  0
 13  7  1  0
 13 10  1  0
M  END
>  <NAME>  (7435) 
PROPYL SALICYLATE

>  <SYNONYMS>  (7435) 
PROPYL ORTHO HYDROXY BENZOATE

>  <SPECTRUM TYPE>  (7435) 
MS1

>  <INSTRUMENT TYPE>  (7435) 
EI-B

>  <INSTRUMENT>  (7435) 
HITACHI RMU-7M

>  <ION MODE>  (7435) 
P

>  <INCHIKEY>  (7435) 
LZFIOSVZIQOVFW-UHFFFAOYSA-N

>  <FORMULA>  (7435) 
C10H12O3

>  <EXACT MASS>  (7435) 
180.07864424399997

>  <MW>  (7435) 
180

>  <ID>  (7435) 
JP000070

>  <CONTRIBUTOR>  (7435) 
University of Tokyo Team, {Faculty of Engineering, University of Tokyo

>  <COMMENT>  (7435) 
SMILES=CCCOC(=O)c(c1)c(O)ccc1
InChI=InChI=1S/C10H12O3/c1-2-7-13-10(12)8-5-3-4-6-9(8)11/h3-6,11H,2,7H2,1H3
computed SMILES=O=C(OCCC)C=1C=CC=CC1O
accession=JP000070
date=2016.01.19 (Created 2008.10.21, modified 2011.05.06)
author=TAJIMA S, GUNMA COLLEGE OF TECHNOLOGY
license=CC BY-NC-SA
exact mass=180.07864
ionization energy=70 eV
ion type=[M]+*
computed spectral entropy=1.9653590364264681
computed normalized entropy=0.7088534338546943
SPLASH=splash10-00di-3900000000-4d485882d11bb426bbdf
submitter=submitter = University of Tokyo Team (Faculty of Engineering, University of Tokyo)
MoNA Rating=3.75

>  <NUM PEAKS>  (7435) 
16

>  <MASS SPECTRAL PEAKS>  (7435) 
27 4.09
39 8.17
41 2.75
43 1.42
63 2.66
64 3.55
65 9.68
92 19.89
93 7.02
120 99.99
121 26.73
122 2.04
138 18.56
139 1.24
180 15.45
181 1.6

$$$$

     RDKit          2D

 12 12  0  0  0  0  0  0  0  0999 V2000
   -3.9015    3.0051    0.0000 C   0  0  0  0  0  0  0  0  0  0  0  0
   -2.5987    3.7487    0.0000 C   0  0  0  0  0  0  0  0  0  0  0  0
    2.5937    3.7296    0.0000 C   0  0  0  0  0  0  0  0  0  0  0  0
    1.2801    1.5047    0.0000 C   0  0  0  0  0  0  0  0  0  0  0  0
    3.8782    3.0047    0.0000 C   0  0  0  0  0  0  0  0  0  0  0  0
    2.6046    0.7106    0.0000 C   0  0  0  0  0  0  0  0  0  0  0  0
    1.2946    2.9796    0.0000 C   0  0  0  0  0  0  0  0  0  0  0  0
    3.9037    1.4606    0.0000 C   0  0  0  0  0  0  0  0  0  0  0  0
   -0.0007    3.7360    0.0000 C   0  0  0  0  0  0  0  0  0  0  0  0
    5.2088    0.7213    0.0000 O   0  0  0  0  0  0  0  0  0  0  0  0
    0.0067    5.2359    0.0000 O   0  0  0  0  0  0  0  0  0  0  0  0
   -1.3034    2.9924    0.0000 O   0  0  0  0  0  0  0  0  0  0  0  0
  2  1  1  0
  5  3  2  0
  6  4  1  0
  7  3  1  0
  7  4  2  0
  8  5  1  0
  8  6  2  0
  9  7  1  0
 10  8  1  0
 11  9  2  0
 12  2  1  0
 12  9  1  0
M  END
>  <NAME>  (7436) 
ETHYL PARA HYDROXY BENZOATE

>  <SYNONYMS>  (7436) 


>  <SPECTRUM TYPE>  (7436) 
MS1

>  <INSTRUMENT TYPE>  (7436) 
EI-B

>  <INSTRUMENT>  (7436) 
HITACHI RMU-7M

>  <ION MODE>  (7436) 
P

>  <INCHIKEY>  (7436) 
NUVBSKCKDOMJSU-UHFFFAOYSA-N

>  <FORMULA>  (7436) 
C9H10O3

>  <EXACT MASS>  (7436) 
166.06299417999998

>  <MW>  (7436) 
166

>  <ID>  (7436) 
JP000069

>  <CONTRIBUTOR>  (7436) 
University of Tokyo Team, {Faculty of Engineering, University of Tokyo

>  <COMMENT>  (7436) 
SMILES=CCOC(=O)c(c1)ccc(O)c1
InChI=InChI=1S/C9H10O3/c1-2-12-9(11)7-3-5-8(10)6-4-7/h3-6,10H,2H2,1H3
computed SMILES=O=C(OCC)C1=CC=C(O)C=C1
accession=JP000069
date=2016.01.19 (Created 2008.10.21, modified 2011.05.06)
author=TAJIMA S, GUNMA COLLEGE OF TECHNOLOGY
license=CC BY-NC-SA
exact mass=166.06299
ionization energy=70 eV
ion type=[M]+*
computed spectral entropy=2.011823329067914
computed normalized entropy=0.6715631255930573
SPLASH=splash10-00di-2900000000-489a671c1deb7c34c07b
submitter=submitter = University of Tokyo Team (Faculty of Engineering, University of Tokyo)
MoNA Rating=3.75

>  <NUM PEAKS>  (7436) 
20

>  <MASS SPECTRAL PEAKS>  (7436) 
39 0.98
63 3.75
64 2.34
65 15.85
66 1.5
91 1.88
92 4.64
93 19.88
94 2.44
95 2.25
119 1.5
120 2.11
121 99.99
122 10.78
138 28.79
139 2.34
151 1.97
165 1.41
166 18.75
167 2.63

$$$$

     RDKit          2D

 12 12  0  0  0  0  0  0  0  0999 V2000
   -3.5732    2.4377    0.0000 C   0  0  0  0  0  0  0  0  0  0  0  0
   -2.2743    3.1879    0.0000 C   0  0  0  0  0  0  0  0  0  0  0  0
    2.9229    0.1868    0.0000 C   0  0  0  0  0  0  0  0  0  0  0  0
    4.2220    0.9368    0.0000 C   0  0  0  0  0  0  0  0  0  0  0  0
    1.6234    0.9377    0.0000 C   0  0  0  0  0  0  0  0  0  0  0  0
    4.2215    2.4377    0.0000 C   0  0  0  0  0  0  0  0  0  0  0  0
    1.6229    2.4385    0.0000 C   0  0  0  0  0  0  0  0  0  0  0  0
    2.9220    3.1885    0.0000 C   0  0  0  0  0  0  0  0  0  0  0  0
    0.3238    3.1883    0.0000 C   0  0  0  0  0  0  0  0  0  0  0  0
    2.9222    4.6885    0.0000 O   0  0  0  0  0  0  0  0  0  0  0  0
    0.3235    4.6883    0.0000 O   0  0  0  0  0  0  0  0  0  0  0  0
   -0.9752    2.4381    0.0000 O   0  0  0  0  0  0  0  0  0  0  0  0
  2  1  1  0
  4  3  2  0
  5  3  1  0
  6  4  1  0
  7  5  2  0
  8  6  2  0
  8  7  1  0
  9  7  1  0
 10  8  1  0
 11  9  2  0
 12  2  1  0
 12  9  1  0
M  END
>  <NAME>  (7437) 
ETHYL SALICYLATE

>  <SYNONYMS>  (7437) 
ETHYL ORTHO HYDROXY BENZOATE

>  <SPECTRUM TYPE>  (7437) 
MS1

>  <INSTRUMENT TYPE>  (7437) 
EI-B

>  <INSTRUMENT>  (7437) 
HITACHI RMU-7M

>  <ION MODE>  (7437) 
P

>  <INCHIKEY>  (7437) 
GYCKQBWUSACYIF-UHFFFAOYSA-N

>  <FORMULA>  (7437) 
C9H10O3

>  <EXACT MASS>  (7437) 
166.06299417999998

>  <MW>  (7437) 
166

>  <ID>  (7437) 
JP000068

>  <CONTRIBUTOR>  (7437) 
University of Tokyo Team, {Faculty of Engineering, University of Tokyo

>  <COMMENT>  (7437) 
SMILES=CCOC(=O)c(c1)c(O)ccc1
InChI=InChI=1S/C9H10O3/c1-2-12-9(11)7-5-3-4-6-8(7)10/h3-6,10H,2H2,1H3
computed SMILES=O=C(OCC)C=1C=CC=CC1O
accession=JP000068
date=2016.01.19 (Created 2008.10.21, modified 2011.05.06)
author=TAJIMA S, GUNMA COLLEGE OF TECHNOLOGY
license=CC BY-NC-SA
exact mass=166.06299
ionization energy=70 eV
ion type=[M]+*
computed spectral entropy=2.0184415479795352
computed normalized entropy=0.7279989028985796
SPLASH=splash10-00di-5900000000-f5eb6e8bd07e0d734060
submitter=submitter = University of Tokyo Team (Faculty of Engineering, University of Tokyo)
MoNA Rating=3.75

>  <NUM PEAKS>  (7437) 
16

>  <MASS SPECTRAL PEAKS>  (7437) 
27 2.89
29 2.82
38 1.44
39 10.61
53 2.38
63 5.78
64 8.01
65 12.56
92 44.26
93 9.96
120 99.99
121 27.94
122 1.88
138 2.09
166 25.99
167 2.53

$$$$

     RDKit          2D

 11 11  0  0  0  0  0  0  0  0999 V2000
   -3.2538    2.6270    0.0000 C   0  0  0  0  0  0  0  0  0  0  0  0
    1.9386    2.6078    0.0000 C   0  0  0  0  0  0  0  0  0  0  0  0
    0.6251    0.3829    0.0000 C   0  0  0  0  0  0  0  0  0  0  0  0
    3.2231    1.8829    0.0000 C   0  0  0  0  0  0  0  0  0  0  0  0
    1.9496   -0.4112    0.0000 C   0  0  0  0  0  0  0  0  0  0  0  0
    0.6396    1.8578    0.0000 C   0  0  0  0  0  0  0  0  0  0  0  0
    3.2486    0.3388    0.0000 C   0  0  0  0  0  0  0  0  0  0  0  0
   -0.6558    2.6142    0.0000 C   0  0  0  0  0  0  0  0  0  0  0  0
    4.5538   -0.4005    0.0000 O   0  0  0  0  0  0  0  0  0  0  0  0
   -0.6484    4.1141    0.0000 O   0  0  0  0  0  0  0  0  0  0  0  0
   -1.9585    1.8706    0.0000 O   0  0  0  0  0  0  0  0  0  0  0  0
  4  2  2  0
  5  3  1  0
  6  2  1  0
  6  3  2  0
  7  4  1  0
  7  5  2  0
  8  6  1  0
  9  7  1  0
 10  8  2  0
 11  1  1  0
 11  8  1  0
M  END
>  <NAME>  (7438) 
METHYL PARA HYDROXY BENZOATE

>  <SYNONYMS>  (7438) 


>  <SPECTRUM TYPE>  (7438) 
MS1

>  <INSTRUMENT TYPE>  (7438) 
EI-B

>  <INSTRUMENT>  (7438) 
HITACHI RMU-7M

>  <ION MODE>  (7438) 
P

>  <INCHIKEY>  (7438) 
LXCFILQKKLGQFO-UHFFFAOYSA-N

>  <FORMULA>  (7438) 
C8H8O3

>  <EXACT MASS>  (7438) 
152.04734411599998

>  <MW>  (7438) 
152

>  <ID>  (7438) 
JP000067

>  <CONTRIBUTOR>  (7438) 
University of Tokyo Team, {Faculty of Engineering, University of Tokyo

>  <COMMENT>  (7438) 
SMILES=COC(=O)c(c1)ccc(O)c1
InChI=InChI=1S/C8H8O3/c1-11-8(10)6-2-4-7(9)5-3-6/h2-5,9H,1H3
computed SMILES=O=C(OC)C1=CC=C(O)C=C1
accession=JP000067
date=2016.01.19 (Created 2008.10.21, modified 2011.05.06)
author=TAJIMA S, GUNMA COLLEGE OF TECHNOLOGY
license=CC BY-NC-SA
exact mass=152.04734
ionization energy=70 eV
ion type=[M]+*
computed spectral entropy=1.7977397970882787
computed normalized entropy=0.6345232704977011
SPLASH=splash10-00di-4900000000-5aa5692082b66b714b5d
submitter=submitter = University of Tokyo Team (Faculty of Engineering, University of Tokyo)
MoNA Rating=3.75

>  <NUM PEAKS>  (7438) 
17

>  <MASS SPECTRAL PEAKS>  (7438) 
15 2.4
38 1.55
39 9.82
53 1.55
63 2.69
64 1.7
65 16.25
66 1.13
77 1.2
92 1.2
93 26.08
94 1.77
121 99.99
122 8.34
151 1.55
152 31.38
153 2.61

$$$$

     RDKit          2D

 11 11  0  0  0  0  0  0  0  0999 V2000
    5.1938   -0.0067    0.0000 C   0  0  0  0  0  0  0  0  0  0  0  0
    0.0016   -2.9991    0.0000 C   0  0  0  0  0  0  0  0  0  0  0  0
    1.2961   -2.2569    0.0000 C   0  0  0  0  0  0  0  0  0  0  0  0
   -1.2974   -2.2491    0.0000 C   0  0  0  0  0  0  0  0  0  0  0  0
   -0.0024   -0.0061    0.0000 C   0  0  0  0  0  0  0  0  0  0  0  0
    1.2966   -0.7561    0.0000 C   0  0  0  0  0  0  0  0  0  0  0  0
   -1.3020   -0.7569    0.0000 C   0  0  0  0  0  0  0  0  0  0  0  0
    2.5958   -0.0063    0.0000 C   0  0  0  0  0  0  0  0  0  0  0  0
   -2.6023   -0.0091    0.0000 O   0  0  0  0  0  0  0  0  0  0  0  0
    2.5960    1.4937    0.0000 O   0  0  0  0  0  0  0  0  0  0  0  0
    3.8947   -0.7565    0.0000 O   0  0  0  0  0  0  0  0  0  0  0  0
  3  2  2  0
  4  2  1  0
  6  3  1  0
  6  5  2  0
  7  4  2  0
  7  5  1  0
  8  6  1  0
  9  7  1  0
 10  8  2  0
 11  1  1  0
 11  8  1  0
M  END
>  <NAME>  (7439) 
METHYL META HYDROXY BENZOATE

>  <SYNONYMS>  (7439) 


>  <SPECTRUM TYPE>  (7439) 
MS1

>  <INSTRUMENT TYPE>  (7439) 
EI-B

>  <INSTRUMENT>  (7439) 
HITACHI RMU-7M

>  <ION MODE>  (7439) 
P

>  <INCHIKEY>  (7439) 
YKUCHDXIBAQWSF-UHFFFAOYSA-N

>  <FORMULA>  (7439) 
C8H8O3

>  <EXACT MASS>  (7439) 
152.04734411599998

>  <MW>  (7439) 
152

>  <ID>  (7439) 
JP000066

>  <CONTRIBUTOR>  (7439) 
University of Tokyo Team, {Faculty of Engineering, University of Tokyo

>  <COMMENT>  (7439) 
SMILES=COC(=O)c(c1)cc(O)cc1
InChI=InChI=1S/C8H8O3/c1-11-8(10)6-3-2-4-7(9)5-6/h2-5,9H,1H3
computed SMILES=O=C(OC)C=1C=CC=C(O)C1
accession=JP000066
date=2016.01.19 (Created 2008.10.21, modified 2011.05.06)
author=TAJIMA S, GUNMA COLLEGE OF TECHNOLOGY
license=CC BY-NC-SA
exact mass=152.04734
ionization energy=70 eV
ion type=[M]+*
computed spectral entropy=2.1095373604236274
computed normalized entropy=0.6928959807571852
SPLASH=splash10-00di-6900000000-c02b0f7c01037be5937e
submitter=submitter = University of Tokyo Team (Faculty of Engineering, University of Tokyo)
MoNA Rating=3.75

>  <NUM PEAKS>  (7439) 
21

>  <MASS SPECTRAL PEAKS>  (7439) 
38 2.79
39 14.08
41 1.52
50 1.58
51 1.16
53 2.63
62 2.1
63 6.99
64 4.57
65 25.43
66 2.15
77 1.73
92 3.84
93 45.72
94 4.31
120 2.73
121 99.99
122 8.2
151 1
152 42.98
153 4.1

$$$$

     RDKit          2D

 11 11  0  0  0  0  0  0  0  0999 V2000
    3.2476    3.7504    0.0000 C   0  0  0  0  0  0  0  0  0  0  0  0
   -1.9500    0.7500    0.0000 C   0  0  0  0  0  0  0  0  0  0  0  0
   -1.9500   -0.7500    0.0000 C   0  0  0  0  0  0  0  0  0  0  0  0
   -0.6500    1.5000    0.0000 C   0  0  0  0  0  0  0  0  0  0  0  0
   -0.6500   -1.5000    0.0000 C   0  0  0  0  0  0  0  0  0  0  0  0
    0.6500    0.7500    0.0000 C   0  0  0  0  0  0  0  0  0  0  0  0
    0.6500   -0.7500    0.0000 C   0  0  0  0  0  0  0  0  0  0  0  0
    1.9489    1.5002    0.0000 C   0  0  0  0  0  0  0  0  0  0  0  0
    1.9489   -1.5002    0.0000 O   0  0  0  0  0  0  0  0  0  0  0  0
    3.2481    0.7504    0.0000 O   0  0  0  0  0  0  0  0  0  0  0  0
    1.9487    3.0002    0.0000 O   0  0  0  0  0  0  0  0  0  0  0  0
  3  2  2  0
  4  2  1  0
  5  3  1  0
  6  4  2  0
  7  5  2  0
  7  6  1  0
  8  6  1  0
  9  7  1  0
 10  8  2  0
 11  1  1  0
 11  8  1  0
M  END
>  <NAME>  (7440) 
METHYL SALICYLATE

>  <SYNONYMS>  (7440) 
METHYL ORTHO HYDROXY BENZOATE

>  <SPECTRUM TYPE>  (7440) 
MS1

>  <INSTRUMENT TYPE>  (7440) 
EI-B

>  <INSTRUMENT>  (7440) 
HITACHI RMU-7M

>  <ION MODE>  (7440) 
P

>  <INCHIKEY>  (7440) 
OSWPMRLSEDHDFF-UHFFFAOYSA-N

>  <FORMULA>  (7440) 
C8H8O3

>  <EXACT MASS>  (7440) 
152.04734411599998

>  <MW>  (7440) 
152

>  <ID>  (7440) 
JP000065

>  <CONTRIBUTOR>  (7440) 
University of Tokyo Team, {Faculty of Engineering, University of Tokyo

>  <COMMENT>  (7440) 
SMILES=COC(=O)c(c1)c(O)ccc1
InChI=InChI=1S/C8H8O3/c1-11-8(10)6-4-2-3-5-7(6)9/h2-5,9H,1H3
computed SMILES=O=C(OC)C=1C=CC=CC1O
accession=JP000065
date=2016.01.19 (Created 2008.10.21, modified 2011.05.06)
author=TAJIMA S, GUNMA COLLEGE OF TECHNOLOGY
license=CC BY-NC-SA
exact mass=152.04734
ionization energy=70 eV
ion type=[M]+*
computed spectral entropy=2.290456361166984
computed normalized entropy=0.7523204075578105
SPLASH=splash10-00dl-9800000000-4c121b87ee97a30f4150
submitter=submitter = University of Tokyo Team (Faculty of Engineering, University of Tokyo)
MoNA Rating=3.75

>  <NUM PEAKS>  (7440) 
21

>  <MASS SPECTRAL PEAKS>  (7440) 
27 1.28
29 2.78
38 4.78
39 20.47
50 2.14
51 1.64
53 5.85
62 2.85
63 12.84
64 16.12
65 24.18
66 2.14
92 66.62
93 17.33
94 1.78
120 99.99
121 30.88
122 2.07
137 0.71
152 41.37
153 3.57

$$$$

     RDKit          2D

 20 20  0  0  0  0  0  0  0  0999 V2000
    6.1662    0.1908    0.0000 C   0  0  0  0  0  0  0  0  0  0  0  0
    5.4164   -1.1083    0.0000 H   0  0  0  0  0  0  0  0  0  0  0  0
    7.4653   -0.5590    0.0000 H   0  0  0  0  0  0  0  0  0  0  0  0
    6.9159    1.4900    0.0000 H   0  0  0  0  0  0  0  0  0  0  0  0
    3.9026    2.0895    0.0000 C   0  0  0  0  0  0  0  0  0  0  0  0
    5.0515    3.0539    0.0000 H   0  0  0  0  0  0  0  0  0  0  0  0
    2.9383    3.2384    0.0000 H   0  0  0  0  0  0  0  0  0  0  0  0
    2.7537    1.1252    0.0000 H   0  0  0  0  0  0  0  0  0  0  0  0
    3.5674   -4.3124    0.0000 C   0  0  0  0  0  0  0  0  0  0  0  0
   -0.3242   -3.5536    0.0000 C   0  0  0  0  0  0  0  0  0  0  0  0
   -0.3292   -2.0615    0.0000 C   0  0  0  0  0  0  0  0  0  0  0  0
    0.9751   -4.3032    0.0000 C   0  0  0  0  0  0  0  0  0  0  0  0
    0.9701   -1.3102    0.0000 C   0  0  0  0  0  0  0  0  0  0  0  0
    4.8670    0.9406    0.0000 C   0  0  0  0  0  0  0  0  0  0  0  0
    5.8310    2.0898    0.0000 H   0  0  0  0  0  0  0  0  0  0  0  0
    2.2694   -3.5606    0.0000 C   0  0  0  0  0  0  0  0  0  0  0  0
    2.2694   -2.0598    0.0000 C   0  0  0  0  0  0  0  0  0  0  0  0
    3.5683   -1.3096    0.0000 C   0  0  0  0  0  0  0  0  0  0  0  0
    4.8675   -2.0594    0.0000 O   0  0  0  0  0  0  0  0  0  0  0  0
    3.5681    0.1904    0.0000 O   0  0  0  0  0  0  0  0  0  0  0  0
  1  2  1  0
  1  3  1  0
  1  4  1  0
  5  6  1  0
  5  7  1  0
  5  8  1  0
 14 15  1  0
 11 10  2  0
 12 10  1  0
 13 11  1  0
 14  1  1  0
 14  5  1  0
 16  9  1  0
 16 12  2  0
 17 13  2  0
 17 16  1  0
 18 17  1  0
 19 18  2  0
 20 14  1  0
 20 18  1  0
M  ISO  7   2   2   3   2   4   2   6   2   7   2   8   2  15   2
M  END
>  <NAME>  (7441) 
ISOPROPYL ORTHO TOLUATE (1,1,1,2,3,3,3-D7)

>  <SYNONYMS>  (7441) 


>  <SPECTRUM TYPE>  (7441) 
MS1

>  <INSTRUMENT TYPE>  (7441) 
EI-B

>  <INSTRUMENT>  (7441) 
HITACHI RMU-7M

>  <ION MODE>  (7441) 
P

>  <INCHIKEY>  (7441) 
GKOTWEXRHKVLLK-UNAVHCQLSA-N

>  <FORMULA>  (7441) 
C11H14O2

>  <EXACT MASS>  (7441) 
185.14331691

>  <MW>  (7441) 
185

>  <ID>  (7441) 
JP000064

>  <CONTRIBUTOR>  (7441) 
University of Tokyo Team, {Faculty of Engineering, University of Tokyo

>  <COMMENT>  (7441) 
SMILES=[2H]C([2H])([2H])C([2H])(C([2H])([2H])[2H])OC(=O)c(c1)c(C)ccc1
InChI=InChI=1S/C11H14O2/c1-8(2)13-11(12)10-7-5-4-6-9(10)3/h4-8H,1-3H3/i1D3,2D3,8D
computed SMILES=[H]C(OC(=O)C=1C=CC=CC1C)(C([H])([H])[H])C([H])([H])[H]
accession=JP000064
date=2016.01.19 (Created 2008.10.21, modified 2011.05.06)
author=TAJIMA S, GUNMA COLLEGE OF TECHNOLOGY
license=CC BY-NC-SA
exact mass=178.09938
ionization energy=70 eV
ion type=[M]+*
computed spectral entropy=2.551367242209022
computed normalized entropy=0.7656694642895354
SPLASH=splash10-014i-5900000000-2cd9037d2998bb066d1e
submitter=submitter = University of Tokyo Team (Faculty of Engineering, University of Tokyo)
MoNA Rating=3.75

>  <NUM PEAKS>  (7441) 
28

>  <MASS SPECTRAL PEAKS>  (7441) 
28 1.52
30 5.07
31 3.89
39 6.26
41 2.37
42 1.52
43 1.69
45 2.54
46 10.65
50 17.58
51 1.94
63 3.47
65 15.89
66 2.96
89 4.4
90 11.41
91 41.42
92 10.99
93 1.78
118 41.25
119 99.99
120 11.67
135 1.94
136 1.69
137 51.9
138 6.76
185 12
186 1.01

$$$$

     RDKit          2D

 19 19  0  0  0  0  0  0  0  0999 V2000
   -0.3208    1.6898    0.0000 C   0  0  0  0  0  0  0  0  0  0  0  0
    0.4290    2.9890    0.0000 H   0  0  0  0  0  0  0  0  0  0  0  0
   -1.6200    2.4396    0.0000 H   0  0  0  0  0  0  0  0  0  0  0  0
   -1.0706    0.3906    0.0000 H   0  0  0  0  0  0  0  0  0  0  0  0
    0.9786   -0.5600    0.0000 C   0  0  0  0  0  0  0  0  0  0  0  0
   -0.5214   -0.5602    0.0000 H   0  0  0  0  0  0  0  0  0  0  0  0
    0.9788   -2.0600    0.0000 H   0  0  0  0  0  0  0  0  0  0  0  0
    2.4786   -0.5598    0.0000 H   0  0  0  0  0  0  0  0  0  0  0  0
    6.1778   -0.5594    0.0000 C   0  0  0  0  0  0  0  0  0  0  0  0
    7.4653    3.1906    0.0000 C   0  0  0  0  0  0  0  0  0  0  0  0
    6.1753    3.9406    0.0000 C   0  0  0  0  0  0  0  0  0  0  0  0
    7.4653    1.6906    0.0000 C   0  0  0  0  0  0  0  0  0  0  0  0
    4.8753    3.1906    0.0000 C   0  0  0  0  0  0  0  0  0  0  0  0
    0.9783    0.9400    0.0000 C   0  0  0  0  0  0  0  0  0  0  0  0
    6.1753    0.9406    0.0000 C   0  0  0  0  0  0  0  0  0  0  0  0
    4.8753    1.6906    0.0000 C   0  0  0  0  0  0  0  0  0  0  0  0
    3.5764    0.9404    0.0000 C   0  0  0  0  0  0  0  0  0  0  0  0
    3.5766   -0.5596    0.0000 O   0  0  0  0  0  0  0  0  0  0  0  0
    2.2772    1.6902    0.0000 O   0  0  0  0  0  0  0  0  0  0  0  0
  1  2  1  0
  1  3  1  0
  1  4  1  0
  5  6  1  0
  5  7  1  0
  5  8  1  0
 11 10  2  0
 12 10  1  0
 13 11  1  0
 14  1  1  0
 14  5  1  0
 15  9  1  0
 15 12  2  0
 16 13  2  0
 16 15  1  0
 17 16  1  0
 18 17  2  0
 19 14  1  0
 19 17  1  0
M  ISO  6   2   2   3   2   4   2   6   2   7   2   8   2
M  END
>  <NAME>  (7442) 
ISOPROPYL ORTHO TOLUATE (1,1,1,3,3,3-D6)

>  <SYNONYMS>  (7442) 


>  <SPECTRUM TYPE>  (7442) 
MS1

>  <INSTRUMENT TYPE>  (7442) 
EI-B

>  <INSTRUMENT>  (7442) 
HITACHI RMU-7M

>  <ION MODE>  (7442) 
P

>  <INCHIKEY>  (7442) 
GKOTWEXRHKVLLK-WFGJKAKNSA-N

>  <FORMULA>  (7442) 
C11H14O2

>  <EXACT MASS>  (7442) 
184.137040164

>  <MW>  (7442) 
184

>  <ID>  (7442) 
JP000063

>  <CONTRIBUTOR>  (7442) 
University of Tokyo Team, {Faculty of Engineering, University of Tokyo

>  <COMMENT>  (7442) 
SMILES=[2H]C([2H])([2H])C(C([2H])([2H])[2H])OC(=O)c(c1)c(C)ccc1
InChI=InChI=1S/C11H14O2/c1-8(2)13-11(12)10-7-5-4-6-9(10)3/h4-8H,1-3H3/i1D3,2D3
computed SMILES=[H]C([H])([H])C(OC(=O)C=1C=CC=CC1C)C([H])([H])[H]
accession=JP000063
date=2016.01.19 (Created 2008.10.21, modified 2011.05.06)
author=TAJIMA S, GUNMA COLLEGE OF TECHNOLOGY
license=CC BY-NC-SA
exact mass=178.09938
ionization energy=70 eV
ion type=[M]+*
computed spectral entropy=2.5706292354231985
computed normalized entropy=0.7558012508427074
SPLASH=splash10-014i-6900000000-7c4b4374f90150bdc357
submitter=submitter = University of Tokyo Team (Faculty of Engineering, University of Tokyo)
MoNA Rating=3.75

>  <NUM PEAKS>  (7442) 
30

>  <MASS SPECTRAL PEAKS>  (7442) 
28 1.35
29 2.83
30 2.36
39 7.74
41 3.37
43 1.08
45 5.93
46 4.04
49 14.81
51 3.03
63 5.39
65 24.24
66 1.35
77 2.02
79 1.35
89 5.93
90 13.13
91 48.89
92 11.45
93 1.89
118 42.42
119 99.99
120 12.12
135 3.37
136 3.97
137 48.35
138 4.04
183 0.61
184 8.08
185 0.67

$$$$

     RDKit          2D

 14 14  0  0  0  0  0  0  0  0999 V2000
    5.6172   -0.3583    0.0000 C   0  0  0  0  0  0  0  0  0  0  0  0
    4.1168    2.2395    0.0000 C   0  0  0  0  0  0  0  0  0  0  0  0
   -0.3325    2.4400    0.0000 C   0  0  0  0  0  0  0  0  0  0  0  0
   -1.6200   -1.3100    0.0000 C   0  0  0  0  0  0  0  0  0  0  0  0
   -0.3300   -2.0600    0.0000 C   0  0  0  0  0  0  0  0  0  0  0  0
   -1.6200    0.1900    0.0000 C   0  0  0  0  0  0  0  0  0  0  0  0
    0.9700   -1.3100    0.0000 C   0  0  0  0  0  0  0  0  0  0  0  0
    4.8670    0.9406    0.0000 C   0  0  0  0  0  0  0  0  0  0  0  0
    6.1659    1.6908    0.0000 H   0  0  0  0  0  0  0  0  0  0  0  0
   -0.3300    0.9400    0.0000 C   0  0  0  0  0  0  0  0  0  0  0  0
    0.9700    0.1900    0.0000 C   0  0  0  0  0  0  0  0  0  0  0  0
    2.2689    0.9402    0.0000 C   0  0  0  0  0  0  0  0  0  0  0  0
    2.2687    2.4402    0.0000 O   0  0  0  0  0  0  0  0  0  0  0  0
    3.5681    0.1904    0.0000 O   0  0  0  0  0  0  0  0  0  0  0  0
  8  9  1  0
  5  4  2  0
  6  4  1  0
  7  5  1  0
  8  1  1  0
  8  2  1  0
 10  3  1  0
 10  6  2  0
 11  7  2  0
 11 10  1  0
 12 11  1  0
 13 12  2  0
 14  8  1  0
 14 12  1  0
M  ISO  1   9   2
M  END
>  <NAME>  (7443) 
ISOPROPYL ORTHO TOLUATE (2-D1)

>  <SYNONYMS>  (7443) 


>  <SPECTRUM TYPE>  (7443) 
MS1

>  <INSTRUMENT TYPE>  (7443) 
EI-B

>  <INSTRUMENT>  (7443) 
HITACHI RMU-7M

>  <ION MODE>  (7443) 
P

>  <INCHIKEY>  (7443) 
GKOTWEXRHKVLLK-BNEYPBHNSA-N

>  <FORMULA>  (7443) 
C11H14O2

>  <EXACT MASS>  (7443) 
179.105656434

>  <MW>  (7443) 
179

>  <ID>  (7443) 
JP000062

>  <CONTRIBUTOR>  (7443) 
University of Tokyo Team, {Faculty of Engineering, University of Tokyo

>  <COMMENT>  (7443) 
SMILES=[2H]C(C)(C)OC(=O)c(c1)c(C)ccc1
InChI=InChI=1S/C11H14O2/c1-8(2)13-11(12)10-7-5-4-6-9(10)3/h4-8H,1-3H3/i8D
computed SMILES=[H]C(OC(=O)C=1C=CC=CC1C)(C)C
accession=JP000062
date=2016.01.19 (Created 2008.10.21, modified 2011.05.06)
author=TAJIMA S, GUNMA COLLEGE OF TECHNOLOGY
license=CC BY-NC-SA
exact mass=178.09938
ionization energy=70 eV
ion type=[M]+*
computed spectral entropy=2.6002757559096845
computed normalized entropy=0.780346988898639
SPLASH=splash10-014i-7900000000-09f99c64240a8f6cfe54
submitter=submitter = University of Tokyo Team (Faculty of Engineering, University of Tokyo)
MoNA Rating=3.75

>  <NUM PEAKS>  (7443) 
28

>  <MASS SPECTRAL PEAKS>  (7443) 
27 4.01
29 1.67
39 11.75
40 2.34
41 8.81
42 9.01
43 6.14
44 17.16
51 3.67
55 3.07
57 4.14
60 2.2
63 5.87
65 24.83
77 4.01
79 2.27
89 7.74
90 26.03
91 57.61
92 6.68
118 99.99
119 77.44
120 7.34
135 3.2
136 57.34
137 7.34
179 9.48
180 1.27

$$$$

     RDKit          2D

 16 16  0  0  0  0  0  0  0  0999 V2000
    6.1662    0.1908    0.0000 C   0  0  0  0  0  0  0  0  0  0  0  0
    5.4164   -1.1083    0.0000 H   0  0  0  0  0  0  0  0  0  0  0  0
    7.4653   -0.5590    0.0000 H   0  0  0  0  0  0  0  0  0  0  0  0
    6.9159    1.4900    0.0000 H   0  0  0  0  0  0  0  0  0  0  0  0
    4.8668    2.4406    0.0000 C   0  0  0  0  0  0  0  0  0  0  0  0
   -0.3325    2.4400    0.0000 C   0  0  0  0  0  0  0  0  0  0  0  0
   -1.6200   -1.3100    0.0000 C   0  0  0  0  0  0  0  0  0  0  0  0
   -0.3300   -2.0600    0.0000 C   0  0  0  0  0  0  0  0  0  0  0  0
   -1.6200    0.1900    0.0000 C   0  0  0  0  0  0  0  0  0  0  0  0
    0.9700   -1.3100    0.0000 C   0  0  0  0  0  0  0  0  0  0  0  0
    4.8670    0.9406    0.0000 C   0  0  0  0  0  0  0  0  0  0  0  0
   -0.3300    0.9400    0.0000 C   0  0  0  0  0  0  0  0  0  0  0  0
    0.9700    0.1900    0.0000 C   0  0  0  0  0  0  0  0  0  0  0  0
    2.2689    0.9402    0.0000 C   0  0  0  0  0  0  0  0  0  0  0  0
    2.2687    2.4402    0.0000 O   0  0  0  0  0  0  0  0  0  0  0  0
    3.5681    0.1904    0.0000 O   0  0  0  0  0  0  0  0  0  0  0  0
  1  2  1  0
  1  3  1  0
  1  4  1  0
  8  7  2  0
  9  7  1  0
 10  8  1  0
 11  1  1  0
 11  5  1  0
 12  6  1  0
 12  9  2  0
 13 10  2  0
 13 12  1  0
 14 13  1  0
 15 14  2  0
 16 11  1  0
 16 14  1  0
M  ISO  3   2   2   3   2   4   2
M  END
>  <NAME>  (7444) 
ISOPROPYL ORTHO TOLUATE (ALPHA,ALPHA,ALPHA-D3)

>  <SYNONYMS>  (7444) 


>  <SPECTRUM TYPE>  (7444) 
MS1

>  <INSTRUMENT TYPE>  (7444) 
EI-B

>  <INSTRUMENT>  (7444) 
HITACHI RMU-7M

>  <ION MODE>  (7444) 
P

>  <INCHIKEY>  (7444) 
GKOTWEXRHKVLLK-FIBGUPNXSA-N

>  <FORMULA>  (7444) 
C11H14O2

>  <EXACT MASS>  (7444) 
181.118209926

>  <MW>  (7444) 
181

>  <ID>  (7444) 
JP000061

>  <CONTRIBUTOR>  (7444) 
University of Tokyo Team, {Faculty of Engineering, University of Tokyo

>  <COMMENT>  (7444) 
SMILES=[2H]C([2H])([2H])C(C)OC(=O)c(c1)c(C)ccc1
InChI=InChI=1S/C11H14O2/c1-8(2)13-11(12)10-7-5-4-6-9(10)3/h4-8H,1-3H3/i1D3
computed SMILES=[H]C([H])([H])C(OC(=O)C=1C=CC=CC1C)C
accession=JP000061
date=2016.01.19 (Created 2008.10.21, modified 2011.05.06)
author=TAJIMA S, GUNMA COLLEGE OF TECHNOLOGY
license=CC BY-NC-SA
exact mass=178.09938
ionization energy=70 eV
ion type=[M]+*
computed spectral entropy=2.6741293325046573
computed normalized entropy=0.8025105675053703
SPLASH=splash10-00dl-5900000000-f0e61d89ee1db41e3259
submitter=submitter = University of Tokyo Team (Faculty of Engineering, University of Tokyo)
MoNA Rating=3.75

>  <NUM PEAKS>  (7444) 
28

>  <MASS SPECTRAL PEAKS>  (7444) 
27 7.12
39 5.63
40 4.89
41 16.28
42 2.21
43 23.82
44 1.08
59 4.49
64 1.32
65 1.5
66 4.91
67 15.08
68 7.66
91 10.89
92 17.41
93 12.45
94 63.14
95 5.98
119 44.34
120 75.58
121 13.82
122 99.99
123 8.92
138 6.28
139 76.72
140 5.69
181 13.7
182 0.72

$$$$

     RDKit          2D

 15 15  0  0  0  0  0  0  0  0999 V2000
    9.0942    0.7512    0.0000 C   0  0  0  0  0  0  0  0  0  0  0  0
    7.7948    3.0010    0.0000 C   0  0  0  0  0  0  0  0  0  0  0  0
   -2.5989   -1.5002    0.0000 C   0  0  0  0  0  0  0  0  0  0  0  0
   -1.3000    0.7500    0.0000 C   0  0  0  0  0  0  0  0  0  0  0  0
   -0.0000   -1.5000    0.0000 C   0  0  0  0  0  0  0  0  0  0  0  0
    0.0000    1.5000    0.0000 C   0  0  0  0  0  0  0  0  0  0  0  0
    1.3000   -0.7500    0.0000 C   0  0  0  0  0  0  0  0  0  0  0  0
    6.4962    0.7508    0.0000 C   0  0  0  0  0  0  0  0  0  0  0  0
    5.1970    1.5006    0.0000 C   0  0  0  0  0  0  0  0  0  0  0  0
    7.7951    1.5010    0.0000 C   0  0  0  0  0  0  0  0  0  0  0  0
   -1.3000   -0.7500    0.0000 C   0  0  0  0  0  0  0  0  0  0  0  0
    1.3000    0.7500    0.0000 C   0  0  0  0  0  0  0  0  0  0  0  0
    2.5989    1.5002    0.0000 C   0  0  0  0  0  0  0  0  0  0  0  0
    2.5987    3.0002    0.0000 O   0  0  0  0  0  0  0  0  0  0  0  0
    3.8981    0.7504    0.0000 O   0  0  0  0  0  0  0  0  0  0  0  0
  6  4  2  0
  7  5  1  0
  9  8  1  0
 10  1  1  0
 10  2  1  0
 10  8  1  0
 11  3  1  0
 11  4  1  0
 11  5  2  0
 12  6  1  0
 12  7  2  0
 13 12  1  0
 14 13  2  0
 15  9  1  0
 15 13  1  0
M  END
>  <NAME>  (7445) 
ISOAMYL PARA TOLUATE

>  <SYNONYMS>  (7445) 
PARA TOLUIC ACID ISOAMYL ESTER

>  <SPECTRUM TYPE>  (7445) 
MS1

>  <INSTRUMENT TYPE>  (7445) 
EI-B

>  <INSTRUMENT>  (7445) 
HITACHI RMU-7M

>  <ION MODE>  (7445) 
P

>  <INCHIKEY>  (7445) 
WDNOGGRIGNCXKH-UHFFFAOYSA-N

>  <FORMULA>  (7445) 
C13H18O2

>  <EXACT MASS>  (7445) 
206.130679816

>  <MW>  (7445) 
206

>  <ID>  (7445) 
JP000060

>  <CONTRIBUTOR>  (7445) 
University of Tokyo Team, {Faculty of Engineering, University of Tokyo

>  <COMMENT>  (7445) 
SMILES=CC(C)CCOC(=O)c(c1)ccc(C)c1
InChI=InChI=1S/C13H18O2/c1-10(2)8-9-15-13(14)12-6-4-11(3)5-7-12/h4-7,10H,8-9H2,1-3H3
computed SMILES=O=C(OCCC(C)C)C1=CC=C(C=C1)C
accession=JP000060
date=2016.01.19 (Created 2008.10.21, modified 2011.05.06)
author=TAJIMA S, GUNMA COLLEGE OF TECHNOLOGY
license=CC BY-NC-SA
exact mass=206.13068
ionization energy=70 eV
ion type=[M]+*
computed spectral entropy=2.3755284740499163
computed normalized entropy=0.7685201707498331
SPLASH=splash10-01bi-9800000000-93f62af651781dfa750a
submitter=submitter = University of Tokyo Team (Faculty of Engineering, University of Tokyo)
MoNA Rating=3.75

>  <NUM PEAKS>  (7445) 
22

>  <MASS SPECTRAL PEAKS>  (7445) 
27 2.55
29 3.16
39 5.23
41 7.9
42 7.96
43 7.23
55 18.91
63 1.64
65 14.1
69 1.16
70 70.15
71 3.53
89 3.16
90 1.95
91 42.55
92 5.47
93 5.53
119 99.99
120 8.88
136 31.61
137 39.21
138 3.4

$$$$

     RDKit          2D

 15 15  0  0  0  0  0  0  0  0999 V2000
    8.7642    0.1912    0.0000 C   0  0  0  0  0  0  0  0  0  0  0  0
    7.4648    2.4410    0.0000 C   0  0  0  0  0  0  0  0  0  0  0  0
   -0.3325    2.4400    0.0000 C   0  0  0  0  0  0  0  0  0  0  0  0
   -1.6200   -1.3100    0.0000 C   0  0  0  0  0  0  0  0  0  0  0  0
   -0.3300   -2.0600    0.0000 C   0  0  0  0  0  0  0  0  0  0  0  0
   -1.6200    0.1900    0.0000 C   0  0  0  0  0  0  0  0  0  0  0  0
    0.9700   -1.3100    0.0000 C   0  0  0  0  0  0  0  0  0  0  0  0
    6.1662    0.1908    0.0000 C   0  0  0  0  0  0  0  0  0  0  0  0
    4.8670    0.9406    0.0000 C   0  0  0  0  0  0  0  0  0  0  0  0
    7.4651    0.9410    0.0000 C   0  0  0  0  0  0  0  0  0  0  0  0
   -0.3300    0.9400    0.0000 C   0  0  0  0  0  0  0  0  0  0  0  0
    0.9700    0.1900    0.0000 C   0  0  0  0  0  0  0  0  0  0  0  0
    2.2689    0.9402    0.0000 C   0  0  0  0  0  0  0  0  0  0  0  0
    2.2687    2.4402    0.0000 O   0  0  0  0  0  0  0  0  0  0  0  0
    3.5681    0.1904    0.0000 O   0  0  0  0  0  0  0  0  0  0  0  0
  5  4  2  0
  6  4  1  0
  7  5  1  0
  9  8  1  0
 10  1  1  0
 10  2  1  0
 10  8  1  0
 11  3  1  0
 11  6  2  0
 12  7  2  0
 12 11  1  0
 13 12  1  0
 14 13  2  0
 15  9  1  0
 15 13  1  0
M  END
>  <NAME>  (7446) 
ISOAMYL ORTHO TOLUATE

>  <SYNONYMS>  (7446) 
ORTHO TOLUIC ACID ISOAMYL ESTER

>  <SPECTRUM TYPE>  (7446) 
MS1

>  <INSTRUMENT TYPE>  (7446) 
EI-B

>  <INSTRUMENT>  (7446) 
HITACHI RMU-7M

>  <ION MODE>  (7446) 
P

>  <INCHIKEY>  (7446) 
ZMSLAZFPMYEGIT-UHFFFAOYSA-N

>  <FORMULA>  (7446) 
C13H18O2

>  <EXACT MASS>  (7446) 
206.130679816

>  <MW>  (7446) 
206

>  <ID>  (7446) 
JP000059

>  <CONTRIBUTOR>  (7446) 
University of Tokyo Team, {Faculty of Engineering, University of Tokyo

>  <COMMENT>  (7446) 
SMILES=CC(C)CCOC(=O)c(c1)c(C)ccc1
InChI=InChI=1S/C13H18O2/c1-10(2)8-9-15-13(14)12-7-5-4-6-11(12)3/h4-7,10H,8-9H2,1-3H3
computed SMILES=O=C(OCCC(C)C)C=1C=CC=CC1C
accession=JP000059
date=2016.01.19 (Created 2008.10.21, modified 2011.05.06)
author=TAJIMA S, GUNMA COLLEGE OF TECHNOLOGY
license=CC BY-NC-SA
exact mass=206.13068
ionization energy=70 eV
ion type=[M]+*
computed spectral entropy=2.821422409269187
computed normalized entropy=0.8000947122603961
SPLASH=splash10-01bc-9500000000-4413714fdbe328584ef2
submitter=submitter = University of Tokyo Team (Faculty of Engineering, University of Tokyo)
MoNA Rating=3.75

>  <NUM PEAKS>  (7446) 
34

>  <MASS SPECTRAL PEAKS>  (7446) 
27 8.91
29 11.88
39 15.38
40 1.32
41 21.12
42 8.32
43 87.13
44 2.64
50 1.25
51 3.56
55 23.23
63 5.35
64 1.72
65 31.02
66 1.52
69 2.11
70 70.56
71 35.78
72 1.52
77 4.09
79 1.98
89 7.13
90 12.01
91 63.37
92 5.48
93 4.62
118 77.23
119 99.99
120 8.58
135 2.77
136 57.1
137 31.68
138 2.31
206 2.64

$$$$

     RDKit          2D

 15 15  0  0  0  0  0  0  0  0999 V2000
   10.3931    1.5015    0.0000 C   0  0  0  0  0  0  0  0  0  0  0  0
   -2.5989   -1.5002    0.0000 C   0  0  0  0  0  0  0  0  0  0  0  0
    9.0942    0.7512    0.0000 C   0  0  0  0  0  0  0  0  0  0  0  0
    7.7951    1.5010    0.0000 C   0  0  0  0  0  0  0  0  0  0  0  0
    6.4962    0.7508    0.0000 C   0  0  0  0  0  0  0  0  0  0  0  0
   -1.3000    0.7500    0.0000 C   0  0  0  0  0  0  0  0  0  0  0  0
   -0.0000   -1.5000    0.0000 C   0  0  0  0  0  0  0  0  0  0  0  0
    0.0000    1.5000    0.0000 C   0  0  0  0  0  0  0  0  0  0  0  0
    1.3000   -0.7500    0.0000 C   0  0  0  0  0  0  0  0  0  0  0  0
    5.1970    1.5006    0.0000 C   0  0  0  0  0  0  0  0  0  0  0  0
   -1.3000   -0.7500    0.0000 C   0  0  0  0  0  0  0  0  0  0  0  0
    1.3000    0.7500    0.0000 C   0  0  0  0  0  0  0  0  0  0  0  0
    2.5989    1.5002    0.0000 C   0  0  0  0  0  0  0  0  0  0  0  0
    2.5987    3.0002    0.0000 O   0  0  0  0  0  0  0  0  0  0  0  0
    3.8981    0.7504    0.0000 O   0  0  0  0  0  0  0  0  0  0  0  0
  3  1  1  0
  4  3  1  0
  5  4  1  0
  8  6  2  0
  9  7  1  0
 10  5  1  0
 11  2  1  0
 11  6  1  0
 11  7  2  0
 12  8  1  0
 12  9  2  0
 13 12  1  0
 14 13  2  0
 15 10  1  0
 15 13  1  0
M  END
>  <NAME>  (7447) 
AMYL PARA TOLUATE

>  <SYNONYMS>  (7447) 
PARA TOLUIC ACID AMYL ESTER

>  <SPECTRUM TYPE>  (7447) 
MS1

>  <INSTRUMENT TYPE>  (7447) 
EI-B

>  <INSTRUMENT>  (7447) 
HITACHI RMU-7M

>  <ION MODE>  (7447) 
P

>  <INCHIKEY>  (7447) 
FXPYVDXLZGLQKU-UHFFFAOYSA-N

>  <FORMULA>  (7447) 
C13H18O2

>  <EXACT MASS>  (7447) 
206.130679816

>  <MW>  (7447) 
206

>  <ID>  (7447) 
JP000058

>  <CONTRIBUTOR>  (7447) 
University of Tokyo Team, {Faculty of Engineering, University of Tokyo

>  <COMMENT>  (7447) 
SMILES=CCCCCOC(=O)c(c1)ccc(C)c1
InChI=InChI=1S/C13H18O2/c1-3-4-5-10-15-13(14)12-8-6-11(2)7-9-12/h6-9H,3-5,10H2,1-2H3
computed SMILES=O=C(OCCCCC)C1=CC=C(C=C1)C
accession=JP000058
date=2016.01.19 (Created 2008.10.21, modified 2011.05.06)
author=TAJIMA S, GUNMA COLLEGE OF TECHNOLOGY
license=CC BY-NC-SA
exact mass=206.13068
ionization energy=70 eV
ion type=[M]+*
computed spectral entropy=2.231307605806943
computed normalized entropy=0.7328924819734386
SPLASH=splash10-00kr-4900000000-e0f50fdce45af01e1f8b
submitter=submitter = University of Tokyo Team (Faculty of Engineering, University of Tokyo)
MoNA Rating=3.75

>  <NUM PEAKS>  (7447) 
21

>  <MASS SPECTRAL PEAKS>  (7447) 
27 4.33
29 4.98
39 5.78
41 7.7
42 6.82
43 3.45
55 4.49
63 1.04
65 11.15
70 4.41
89 2.73
90 1.93
91 43.9
92 8.91
93 7.46
119 99.99
120 8.67
136 68.54
137 58.27
138 4.49
206 0.72

$$$$

     RDKit          2D

 15 15  0  0  0  0  0  0  0  0999 V2000
   10.0631    0.9415    0.0000 C   0  0  0  0  0  0  0  0  0  0  0  0
   -0.3325    2.4400    0.0000 C   0  0  0  0  0  0  0  0  0  0  0  0
    8.7642    0.1912    0.0000 C   0  0  0  0  0  0  0  0  0  0  0  0
    7.4651    0.9410    0.0000 C   0  0  0  0  0  0  0  0  0  0  0  0
   -1.6200   -1.3100    0.0000 C   0  0  0  0  0  0  0  0  0  0  0  0
   -0.3300   -2.0600    0.0000 C   0  0  0  0  0  0  0  0  0  0  0  0
    6.1662    0.1908    0.0000 C   0  0  0  0  0  0  0  0  0  0  0  0
   -1.6200    0.1900    0.0000 C   0  0  0  0  0  0  0  0  0  0  0  0
    0.9700   -1.3100    0.0000 C   0  0  0  0  0  0  0  0  0  0  0  0
    4.8670    0.9406    0.0000 C   0  0  0  0  0  0  0  0  0  0  0  0
   -0.3300    0.9400    0.0000 C   0  0  0  0  0  0  0  0  0  0  0  0
    0.9700    0.1900    0.0000 C   0  0  0  0  0  0  0  0  0  0  0  0
    2.2689    0.9402    0.0000 C   0  0  0  0  0  0  0  0  0  0  0  0
    2.2687    2.4402    0.0000 O   0  0  0  0  0  0  0  0  0  0  0  0
    3.5681    0.1904    0.0000 O   0  0  0  0  0  0  0  0  0  0  0  0
  3  1  1  0
  4  3  1  0
  6  5  2  0
  7  4  1  0
  8  5  1  0
  9  6  1  0
 10  7  1  0
 11  2  1  0
 11  8  2  0
 12  9  2  0
 12 11  1  0
 13 12  1  0
 14 13  2  0
 15 10  1  0
 15 13  1  0
M  END
>  <NAME>  (7448) 
AMYL ORTHO TOLUATE

>  <SYNONYMS>  (7448) 
ORTHO TOLUIC ACID AMYL ESTER

>  <SPECTRUM TYPE>  (7448) 
MS1

>  <INSTRUMENT TYPE>  (7448) 
EI-B

>  <INSTRUMENT>  (7448) 
HITACHI RMU-7M

>  <ION MODE>  (7448) 
P

>  <INCHIKEY>  (7448) 
YMAHRBGBVUOIMQ-UHFFFAOYSA-N

>  <FORMULA>  (7448) 
C13H18O2

>  <EXACT MASS>  (7448) 
206.130679816

>  <MW>  (7448) 
206

>  <ID>  (7448) 
JP000057

>  <CONTRIBUTOR>  (7448) 
University of Tokyo Team, {Faculty of Engineering, University of Tokyo

>  <COMMENT>  (7448) 
SMILES=CCCCCOC(=O)c(c1)c(C)ccc1
InChI=InChI=1S/C13H18O2/c1-3-4-7-10-15-13(14)12-9-6-5-8-11(12)2/h5-6,8-9H,3-4,7,10H2,1-2H3
computed SMILES=O=C(OCCCCC)C=1C=CC=CC1C
accession=JP000057
date=2016.01.19 (Created 2008.10.21, modified 2011.05.06)
author=TAJIMA S, GUNMA COLLEGE OF TECHNOLOGY
license=CC BY-NC-SA
exact mass=206.13068
ionization energy=70 eV
ion type=[M]+*
computed spectral entropy=2.570094053028945
computed normalized entropy=0.7798001410624336
SPLASH=splash10-014u-5900000000-a2b2af9ef90c8f0f77cb
submitter=submitter = University of Tokyo Team (Faculty of Engineering, University of Tokyo)
MoNA Rating=3.75

>  <NUM PEAKS>  (7448) 
27

>  <MASS SPECTRAL PEAKS>  (7448) 
27 6.19
29 9.49
39 8.14
41 12.54
42 6.69
43 38.9
55 6.78
63 2.88
65 17.63
70 6.78
71 4.49
77 2.46
79 1.1
89 4.83
90 11.02
91 55.76
92 5.08
93 3.14
118 99.99
119 90.51
120 8.05
135 3.98
136 86.36
137 32.37
138 2.54
206 11.86
207 1.86

$$$$

     RDKit          2D

 14 14  0  0  0  0  0  0  0  0999 V2000
    7.7951    1.5010    0.0000 C   0  0  0  0  0  0  0  0  0  0  0  0
    6.4964   -0.7492    0.0000 C   0  0  0  0  0  0  0  0  0  0  0  0
   -2.5989   -1.5002    0.0000 C   0  0  0  0  0  0  0  0  0  0  0  0
   -1.3000    0.7500    0.0000 C   0  0  0  0  0  0  0  0  0  0  0  0
   -0.0000   -1.5000    0.0000 C   0  0  0  0  0  0  0  0  0  0  0  0
    0.0000    1.5000    0.0000 C   0  0  0  0  0  0  0  0  0  0  0  0
    1.3000   -0.7500    0.0000 C   0  0  0  0  0  0  0  0  0  0  0  0
    5.1970    1.5006    0.0000 C   0  0  0  0  0  0  0  0  0  0  0  0
    6.4962    0.7508    0.0000 C   0  0  0  0  0  0  0  0  0  0  0  0
   -1.3000   -0.7500    0.0000 C   0  0  0  0  0  0  0  0  0  0  0  0
    1.3000    0.7500    0.0000 C   0  0  0  0  0  0  0  0  0  0  0  0
    2.5989    1.5002    0.0000 C   0  0  0  0  0  0  0  0  0  0  0  0
    2.5987    3.0002    0.0000 O   0  0  0  0  0  0  0  0  0  0  0  0
    3.8981    0.7504    0.0000 O   0  0  0  0  0  0  0  0  0  0  0  0
  6  4  2  0
  7  5  1  0
  9  1  1  0
  9  2  1  0
  9  8  1  0
 10  3  1  0
 10  4  1  0
 10  5  2  0
 11  6  1  0
 11  7  2  0
 12 11  1  0
 13 12  2  0
 14  8  1  0
 14 12  1  0
M  END
>  <NAME>  (7449) 
ISOBUTYL PARA TOLUATE

>  <SYNONYMS>  (7449) 
PARA TOLUIC ACID ISOBUTYL ESTER

>  <SPECTRUM TYPE>  (7449) 
MS1

>  <INSTRUMENT TYPE>  (7449) 
EI-B

>  <INSTRUMENT>  (7449) 
HITACHI RMU-7M

>  <ION MODE>  (7449) 
P

>  <INCHIKEY>  (7449) 
IELVQABKIBOBRG-UHFFFAOYSA-N

>  <FORMULA>  (7449) 
C12H16O2

>  <EXACT MASS>  (7449) 
192.115029752

>  <MW>  (7449) 
192

>  <ID>  (7449) 
JP000056

>  <CONTRIBUTOR>  (7449) 
University of Tokyo Team, {Faculty of Engineering, University of Tokyo

>  <COMMENT>  (7449) 
SMILES=CC(C)COC(=O)c(c1)ccc(C)c1
InChI=InChI=1S/C12H16O2/c1-9(2)8-14-12(13)11-6-4-10(3)5-7-11/h4-7,9H,8H2,1-3H3
computed SMILES=O=C(OCC(C)C)C1=CC=C(C=C1)C
accession=JP000056
date=2016.01.19 (Created 2008.10.21, modified 2011.05.06)
author=TAJIMA S, GUNMA COLLEGE OF TECHNOLOGY
license=CC BY-NC-SA
exact mass=192.11503
ionization energy=70 eV
ion type=[M]+*
computed spectral entropy=2.133146412473599
computed normalized entropy=0.7006505802166739
SPLASH=splash10-014r-5900000000-d1a4190378aed0939aeb
submitter=submitter = University of Tokyo Team (Faculty of Engineering, University of Tokyo)
MoNA Rating=3.75

>  <NUM PEAKS>  (7449) 
21

>  <MASS SPECTRAL PEAKS>  (7449) 
27 1.27
29 2.77
39 4.87
41 5.75
43 1.11
51 1.11
55 0.72
56 7.63
57 1.11
63 2.38
65 13.83
89 3.21
90 1.83
91 38.16
92 5.64
93 5.03
119 99.99
120 8.74
136 19.08
137 38.11
138 2.77

$$$$

     RDKit          2D

 14 14  0  0  0  0  0  0  0  0999 V2000
   -1.6200   -0.5608    0.0000 C   0  0  0  0  0  0  0  0  0  0  0  0
   -0.3213    1.6894    0.0000 C   0  0  0  0  0  0  0  0  0  0  0  0
    6.1776   -2.0598    0.0000 C   0  0  0  0  0  0  0  0  0  0  0  0
    7.4651    1.6902    0.0000 C   0  0  0  0  0  0  0  0  0  0  0  0
    6.1751    2.4402    0.0000 C   0  0  0  0  0  0  0  0  0  0  0  0
    7.4651    0.1902    0.0000 C   0  0  0  0  0  0  0  0  0  0  0  0
    4.8751    1.6902    0.0000 C   0  0  0  0  0  0  0  0  0  0  0  0
    0.9781   -0.5604    0.0000 C   0  0  0  0  0  0  0  0  0  0  0  0
   -0.3211    0.1894    0.0000 C   0  0  0  0  0  0  0  0  0  0  0  0
    6.1751   -0.5598    0.0000 C   0  0  0  0  0  0  0  0  0  0  0  0
    4.8751    0.1902    0.0000 C   0  0  0  0  0  0  0  0  0  0  0  0
    3.5762   -0.5600    0.0000 C   0  0  0  0  0  0  0  0  0  0  0  0
    3.5764   -2.0600    0.0000 O   0  0  0  0  0  0  0  0  0  0  0  0
    2.2770    0.1898    0.0000 O   0  0  0  0  0  0  0  0  0  0  0  0
  5  4  2  0
  6  4  1  0
  7  5  1  0
  9  1  1  0
  9  2  1  0
  9  8  1  0
 10  3  1  0
 10  6  2  0
 11  7  2  0
 11 10  1  0
 12 11  1  0
 13 12  2  0
 14  8  1  0
 14 12  1  0
M  END
>  <NAME>  (7450) 
ISOBUTYL ORTHO TOLUATE

>  <SYNONYMS>  (7450) 
ORTHO TOLUIC ACID ISOBUTYL ESTER

>  <SPECTRUM TYPE>  (7450) 
MS1

>  <INSTRUMENT TYPE>  (7450) 
EI-B

>  <INSTRUMENT>  (7450) 
HITACHI RMU-7M

>  <ION MODE>  (7450) 
P

>  <INCHIKEY>  (7450) 
WBNOXPDHXZDLCY-UHFFFAOYSA-N

>  <FORMULA>  (7450) 
C12H16O2

>  <EXACT MASS>  (7450) 
192.115029752

>  <MW>  (7450) 
192

>  <ID>  (7450) 
JP000055

>  <CONTRIBUTOR>  (7450) 
University of Tokyo Team, {Faculty of Engineering, University of Tokyo

>  <COMMENT>  (7450) 
SMILES=CC(C)COC(=O)c(c1)c(C)ccc1
InChI=InChI=1S/C12H16O2/c1-9(2)8-14-12(13)11-7-5-4-6-10(11)3/h4-7,9H,8H2,1-3H3
computed SMILES=O=C(OCC(C)C)C=1C=CC=CC1C
accession=JP000055
date=2016.01.19 (Created 2008.10.21, modified 2011.05.06)
author=TAJIMA S, GUNMA COLLEGE OF TECHNOLOGY
license=CC BY-NC-SA
exact mass=192.11503
ionization energy=70 eV
ion type=[M]+*
computed spectral entropy=2.5992183507684468
computed normalized entropy=0.7977720489359266
SPLASH=splash10-014i-8900000000-2071c1b9030dee85e8a0
submitter=submitter = University of Tokyo Team (Faculty of Engineering, University of Tokyo)
MoNA Rating=3.75

>  <NUM PEAKS>  (7450) 
26

>  <MASS SPECTRAL PEAKS>  (7450) 
27 6.66
29 15.74
39 16.46
41 25.54
43 2.54
50 1.21
51 3.63
55 1.21
56 7.38
57 28.27
63 5.69
65 28.39
77 2.42
89 6.96
90 12.11
91 63.32
92 5.33
93 2
118 63.14
119 99.99
120 8.17
136 42.86
137 17.68
138 1
192 4.78
193 0.48

$$$$

     RDKit          2D

 14 14  0  0  0  0  0  0  0  0999 V2000
    9.0942    0.7512    0.0000 C   0  0  0  0  0  0  0  0  0  0  0  0
   -2.5989   -1.5002    0.0000 C   0  0  0  0  0  0  0  0  0  0  0  0
    7.7951    1.5010    0.0000 C   0  0  0  0  0  0  0  0  0  0  0  0
    6.4962    0.7508    0.0000 C   0  0  0  0  0  0  0  0  0  0  0  0
   -1.3000    0.7500    0.0000 C   0  0  0  0  0  0  0  0  0  0  0  0
   -0.0000   -1.5000    0.0000 C   0  0  0  0  0  0  0  0  0  0  0  0
    0.0000    1.5000    0.0000 C   0  0  0  0  0  0  0  0  0  0  0  0
    1.3000   -0.7500    0.0000 C   0  0  0  0  0  0  0  0  0  0  0  0
    5.1970    1.5006    0.0000 C   0  0  0  0  0  0  0  0  0  0  0  0
   -1.3000   -0.7500    0.0000 C   0  0  0  0  0  0  0  0  0  0  0  0
    1.3000    0.7500    0.0000 C   0  0  0  0  0  0  0  0  0  0  0  0
    2.5989    1.5002    0.0000 C   0  0  0  0  0  0  0  0  0  0  0  0
    2.5987    3.0002    0.0000 O   0  0  0  0  0  0  0  0  0  0  0  0
    3.8981    0.7504    0.0000 O   0  0  0  0  0  0  0  0  0  0  0  0
  3  1  1  0
  4  3  1  0
  7  5  2  0
  8  6  1  0
  9  4  1  0
 10  2  1  0
 10  5  1  0
 10  6  2  0
 11  7  1  0
 11  8  2  0
 12 11  1  0
 13 12  2  0
 14  9  1  0
 14 12  1  0
M  END
>  <NAME>  (7451) 
BUTYL PARA TOLUATE

>  <SYNONYMS>  (7451) 
PARA TOLUIC ACID BUTYL ESTER

>  <SPECTRUM TYPE>  (7451) 
MS1

>  <INSTRUMENT TYPE>  (7451) 
EI-B

>  <INSTRUMENT>  (7451) 
HITACHI RMU-7M

>  <ION MODE>  (7451) 
P

>  <INCHIKEY>  (7451) 
UYGHRCCJWWYXMY-UHFFFAOYSA-N

>  <FORMULA>  (7451) 
C12H16O2

>  <EXACT MASS>  (7451) 
192.115029752

>  <MW>  (7451) 
192

>  <ID>  (7451) 
JP000054

>  <CONTRIBUTOR>  (7451) 
University of Tokyo Team, {Faculty of Engineering, University of Tokyo

>  <COMMENT>  (7451) 
SMILES=CCCCOC(=O)c(c1)ccc(C)c1
InChI=InChI=1S/C12H16O2/c1-3-4-9-14-12(13)11-7-5-10(2)6-8-11/h5-8H,3-4,9H2,1-2H3
computed SMILES=O=C(OCCCC)C1=CC=C(C=C1)C
accession=JP000054
date=2016.01.19 (Created 2008.10.21, modified 2011.05.06)
author=TAJIMA S, GUNMA COLLEGE OF TECHNOLOGY
license=CC BY-NC-SA
exact mass=192.11503
ionization energy=70 eV
ion type=[M]+*
computed spectral entropy=2.333945377627473
computed normalized entropy=0.7666047550540332
SPLASH=splash10-014u-6900000000-17c8d14576c74772204b
submitter=submitter = University of Tokyo Team (Faculty of Engineering, University of Tokyo)
MoNA Rating=3.75

>  <NUM PEAKS>  (7451) 
21

>  <MASS SPECTRAL PEAKS>  (7451) 
27 7.02
29 11.89
39 11.89
41 13.2
50 1.19
51 2.5
55 2.26
56 11.89
63 4.52
65 22.35
89 3.57
90 2.5
91 50.18
92 5.95
93 3.33
119 99.99
120 8.44
136 57.67
137 29.37
138 2.02
192 1.55

$$$$

     RDKit          2D

 14 14  0  0  0  0  0  0  0  0999 V2000
   -4.5452   -2.6236    0.0000 C   0  0  0  0  0  0  0  0  0  0  0  0
    7.1479   -3.3718    0.0000 C   0  0  0  0  0  0  0  0  0  0  0  0
   -3.2463   -3.3738    0.0000 C   0  0  0  0  0  0  0  0  0  0  0  0
   -1.9471   -2.6240    0.0000 C   0  0  0  0  0  0  0  0  0  0  0  0
    4.5440   -0.3818    0.0000 C   0  0  0  0  0  0  0  0  0  0  0  0
    5.8431   -1.1318    0.0000 C   0  0  0  0  0  0  0  0  0  0  0  0
    3.2495   -1.1240    0.0000 C   0  0  0  0  0  0  0  0  0  0  0  0
   -0.6482   -3.3742    0.0000 C   0  0  0  0  0  0  0  0  0  0  0  0
    4.5481   -3.3748    0.0000 C   0  0  0  0  0  0  0  0  0  0  0  0
    5.8476   -2.6240    0.0000 C   0  0  0  0  0  0  0  0  0  0  0  0
    3.2490   -2.6248    0.0000 C   0  0  0  0  0  0  0  0  0  0  0  0
    1.9499   -3.3746    0.0000 C   0  0  0  0  0  0  0  0  0  0  0  0
    1.9496   -4.8746    0.0000 O   0  0  0  0  0  0  0  0  0  0  0  0
    0.6509   -2.6244    0.0000 O   0  0  0  0  0  0  0  0  0  0  0  0
  3  1  1  0
  4  3  1  0
  6  5  2  0
  7  5  1  0
  8  4  1  0
 10  2  1  0
 10  6  1  0
 10  9  2  0
 11  7  2  0
 11  9  1  0
 12 11  1  0
 13 12  2  0
 14  8  1  0
 14 12  1  0
M  END
>  <NAME>  (7452) 
BUTYL META TOLUATE

>  <SYNONYMS>  (7452) 
META TOLUIC ACID BUTYL ESTER

>  <SPECTRUM TYPE>  (7452) 
MS1

>  <INSTRUMENT TYPE>  (7452) 
EI-B

>  <INSTRUMENT>  (7452) 
HITACHI RMU-7M

>  <ION MODE>  (7452) 
P

>  <INCHIKEY>  (7452) 
KECCQYFSODJESB-UHFFFAOYSA-N

>  <FORMULA>  (7452) 
C12H16O2

>  <EXACT MASS>  (7452) 
192.115029752

>  <MW>  (7452) 
192

>  <ID>  (7452) 
JP000053

>  <CONTRIBUTOR>  (7452) 
University of Tokyo Team, {Faculty of Engineering, University of Tokyo

>  <COMMENT>  (7452) 
SMILES=CCCCOC(=O)c(c1)cc(C)cc1
InChI=InChI=1S/C12H16O2/c1-3-4-8-14-12(13)11-7-5-6-10(2)9-11/h5-7,9H,3-4,8H2,1-2H3
computed SMILES=O=C(OCCCC)C1=CC=CC(=C1)C
accession=JP000053
date=2016.01.19 (Created 2008.10.21, modified 2011.05.06)
author=TAJIMA S, GUNMA COLLEGE OF TECHNOLOGY
license=CC BY-NC-SA
exact mass=192.11503
ionization energy=70 eV
ion type=[M]+*
computed spectral entropy=2.2496017755896456
computed normalized entropy=0.6988780860105895
SPLASH=splash10-014r-4900000000-da75d91b92d403dc111c
submitter=submitter = University of Tokyo Team (Faculty of Engineering, University of Tokyo)
MoNA Rating=3.75

>  <NUM PEAKS>  (7452) 
25

>  <MASS SPECTRAL PEAKS>  (7452) 
27 2.33
29 5.74
39 4.98
41 7.36
51 1.25
55 2.27
56 9.2
57 1.08
63 2.27
65 14.67
77 1.08
89 3.09
90 2.54
91 54.09
92 9.8
93 6.39
118 1.19
119 99.99
120 9.53
135 1.08
136 78.02
137 35.08
138 2.71
192 3.79
193 0.43

$$$$

     RDKit          2D

 14 14  0  0  0  0  0  0  0  0999 V2000
    8.7642    0.1912    0.0000 C   0  0  0  0  0  0  0  0  0  0  0  0
   -0.3325    2.4400    0.0000 C   0  0  0  0  0  0  0  0  0  0  0  0
    7.4651    0.9410    0.0000 C   0  0  0  0  0  0  0  0  0  0  0  0
    6.1662    0.1908    0.0000 C   0  0  0  0  0  0  0  0  0  0  0  0
   -1.6200   -1.3100    0.0000 C   0  0  0  0  0  0  0  0  0  0  0  0
   -0.3300   -2.0600    0.0000 C   0  0  0  0  0  0  0  0  0  0  0  0
   -1.6200    0.1900    0.0000 C   0  0  0  0  0  0  0  0  0  0  0  0
    0.9700   -1.3100    0.0000 C   0  0  0  0  0  0  0  0  0  0  0  0
    4.8670    0.9406    0.0000 C   0  0  0  0  0  0  0  0  0  0  0  0
   -0.3300    0.9400    0.0000 C   0  0  0  0  0  0  0  0  0  0  0  0
    0.9700    0.1900    0.0000 C   0  0  0  0  0  0  0  0  0  0  0  0
    2.2689    0.9402    0.0000 C   0  0  0  0  0  0  0  0  0  0  0  0
    2.2687    2.4402    0.0000 O   0  0  0  0  0  0  0  0  0  0  0  0
    3.5681    0.1904    0.0000 O   0  0  0  0  0  0  0  0  0  0  0  0
  3  1  1  0
  4  3  1  0
  6  5  2  0
  7  5  1  0
  8  6  1  0
  9  4  1  0
 10  2  1  0
 10  7  2  0
 11  8  2  0
 11 10  1  0
 12 11  1  0
 13 12  2  0
 14  9  1  0
 14 12  1  0
M  END
>  <NAME>  (7453) 
BUTYL ORTHO TOLUATE

>  <SYNONYMS>  (7453) 
ORTHO TOLUIC ACID BUTYL ESTER

>  <SPECTRUM TYPE>  (7453) 
MS1

>  <INSTRUMENT TYPE>  (7453) 
EI-B

>  <INSTRUMENT>  (7453) 
HITACHI RMU-7M

>  <ION MODE>  (7453) 
P

>  <INCHIKEY>  (7453) 
GALQLODNTKQGFE-UHFFFAOYSA-N

>  <FORMULA>  (7453) 
C12H16O2

>  <EXACT MASS>  (7453) 
192.115029752

>  <MW>  (7453) 
192

>  <ID>  (7453) 
JP000052

>  <CONTRIBUTOR>  (7453) 
University of Tokyo Team, {Faculty of Engineering, University of Tokyo

>  <COMMENT>  (7453) 
SMILES=CCCCOC(=O)c(c1)c(C)ccc1
InChI=InChI=1S/C12H16O2/c1-3-4-9-14-12(13)11-8-6-5-7-10(11)2/h5-8H,3-4,9H2,1-2H3
computed SMILES=O=C(OCCCC)C=1C=CC=CC1C
accession=JP000052
date=2016.01.19 (Created 2008.10.21, modified 2011.05.06)
author=TAJIMA S, GUNMA COLLEGE OF TECHNOLOGY
license=CC BY-NC-SA
exact mass=192.11503
ionization energy=70 eV
ion type=[M]+*
computed spectral entropy=2.5841561893967895
computed normalized entropy=0.793149054744108
SPLASH=splash10-014l-7900000000-83804270fa93cf6ad0ba
submitter=submitter = University of Tokyo Team (Faculty of Engineering, University of Tokyo)
MoNA Rating=3.75

>  <NUM PEAKS>  (7453) 
26

>  <MASS SPECTRAL PEAKS>  (7453) 
27 8.4
29 25.21
39 14.48
41 26.97
51 3.69
55 2.9
56 7.61
57 16.3
63 4.77
64 1.14
65 27.6
77 3.07
79 1.19
89 5.91
90 15.11
91 67.75
92 6.25
93 2.1
118 99.99
119 92.05
120 7.61
135 3.52
136 64.79
137 16.07
192 10.96
193 1.31

$$$$

     RDKit          2D

 13 13  0  0  0  0  0  0  0  0999 V2000
    6.4962    0.7508    0.0000 C   0  0  0  0  0  0  0  0  0  0  0  0
    5.1968    3.0006    0.0000 C   0  0  0  0  0  0  0  0  0  0  0  0
   -2.5989   -1.5002    0.0000 C   0  0  0  0  0  0  0  0  0  0  0  0
   -1.3000    0.7500    0.0000 C   0  0  0  0  0  0  0  0  0  0  0  0
   -0.0000   -1.5000    0.0000 C   0  0  0  0  0  0  0  0  0  0  0  0
    0.0000    1.5000    0.0000 C   0  0  0  0  0  0  0  0  0  0  0  0
    1.3000   -0.7500    0.0000 C   0  0  0  0  0  0  0  0  0  0  0  0
    5.1970    1.5006    0.0000 C   0  0  0  0  0  0  0  0  0  0  0  0
   -1.3000   -0.7500    0.0000 C   0  0  0  0  0  0  0  0  0  0  0  0
    1.3000    0.7500    0.0000 C   0  0  0  0  0  0  0  0  0  0  0  0
    2.5989    1.5002    0.0000 C   0  0  0  0  0  0  0  0  0  0  0  0
    2.5987    3.0002    0.0000 O   0  0  0  0  0  0  0  0  0  0  0  0
    3.8981    0.7504    0.0000 O   0  0  0  0  0  0  0  0  0  0  0  0
  6  4  2  0
  7  5  1  0
  8  1  1  0
  8  2  1  0
  9  3  1  0
  9  4  1  0
  9  5  2  0
 10  6  1  0
 10  7  2  0
 11 10  1  0
 12 11  2  0
 13  8  1  0
 13 11  1  0
M  END
>  <NAME>  (7454) 
ISOPROPYL PARA TOLUATE

>  <SYNONYMS>  (7454) 
PARA TOLUIC ACID ISOPROPYL ESTER

>  <SPECTRUM TYPE>  (7454) 
MS1

>  <INSTRUMENT TYPE>  (7454) 
EI-B

>  <INSTRUMENT>  (7454) 
HITACHI RMU-7M

>  <ION MODE>  (7454) 
P

>  <INCHIKEY>  (7454) 
ONWRVKPIVJMSHO-UHFFFAOYSA-N

>  <FORMULA>  (7454) 
C11H14O2

>  <EXACT MASS>  (7454) 
178.099379688

>  <MW>  (7454) 
178

>  <ID>  (7454) 
JP000051

>  <CONTRIBUTOR>  (7454) 
University of Tokyo Team, {Faculty of Engineering, University of Tokyo

>  <COMMENT>  (7454) 
SMILES=CC(C)OC(=O)c(c1)ccc(C)c1
InChI=InChI=1S/C11H14O2/c1-8(2)13-11(12)10-6-4-9(3)5-7-10/h4-8H,1-3H3
computed SMILES=O=C(OC(C)C)C1=CC=C(C=C1)C
accession=JP000051
date=2016.01.19 (Created 2008.10.21, modified 2011.05.06)
author=TAJIMA S, GUNMA COLLEGE OF TECHNOLOGY
license=CC BY-NC-SA
exact mass=178.09938
ionization energy=70 eV
ion type=[M]+*
computed spectral entropy=2.2279981782959166
computed normalized entropy=0.7318054715871721
SPLASH=splash10-014i-5900000000-1f2d95620c2768a08500
submitter=submitter = University of Tokyo Team (Faculty of Engineering, University of Tokyo)
MoNA Rating=3.75

>  <NUM PEAKS>  (7454) 
21

>  <MASS SPECTRAL PEAKS>  (7454) 
27 2.66
39 5
41 6.46
43 9.77
51 1.21
59 18.56
63 2.1
65 12.27
89 2.66
90 1.78
91 43.18
92 7.18
93 1.21
119 99.99
120 14.37
121 1.05
136 42.62
137 7.75
163 2.5
178 9.77
179 0.89

$$$$

     RDKit          2D

 13 13  0  0  0  0  0  0  0  0999 V2000
   -1.6200    0.1898    0.0000 C   0  0  0  0  0  0  0  0  0  0  0  0
   -0.3206   -2.0600    0.0000 C   0  0  0  0  0  0  0  0  0  0  0  0
    4.8787   -2.0594    0.0000 C   0  0  0  0  0  0  0  0  0  0  0  0
    6.1662    1.6906    0.0000 C   0  0  0  0  0  0  0  0  0  0  0  0
    4.8762    2.4406    0.0000 C   0  0  0  0  0  0  0  0  0  0  0  0
    6.1662    0.1906    0.0000 C   0  0  0  0  0  0  0  0  0  0  0  0
    3.5762    1.6906    0.0000 C   0  0  0  0  0  0  0  0  0  0  0  0
   -0.3208   -0.5600    0.0000 C   0  0  0  0  0  0  0  0  0  0  0  0
    4.8762   -0.5594    0.0000 C   0  0  0  0  0  0  0  0  0  0  0  0
    3.5762    0.1906    0.0000 C   0  0  0  0  0  0  0  0  0  0  0  0
    2.2772   -0.5596    0.0000 C   0  0  0  0  0  0  0  0  0  0  0  0
    2.2775   -2.0596    0.0000 O   0  0  0  0  0  0  0  0  0  0  0  0
    0.9781    0.1902    0.0000 O   0  0  0  0  0  0  0  0  0  0  0  0
  5  4  2  0
  6  4  1  0
  7  5  1  0
  8  1  1  0
  8  2  1  0
  9  3  1  0
  9  6  2  0
 10  7  2  0
 10  9  1  0
 11 10  1  0
 12 11  2  0
 13  8  1  0
 13 11  1  0
M  END
>  <NAME>  (7455) 
ISOPROPYL ORTHO TOLUATE

>  <SYNONYMS>  (7455) 
ORTHO TOLUIC ACID ISOPROPYL ESTER

>  <SPECTRUM TYPE>  (7455) 
MS1

>  <INSTRUMENT TYPE>  (7455) 
EI-B

>  <INSTRUMENT>  (7455) 
HITACHI RMU-7M

>  <ION MODE>  (7455) 
P

>  <INCHIKEY>  (7455) 
GKOTWEXRHKVLLK-UHFFFAOYSA-N

>  <FORMULA>  (7455) 
C11H14O2

>  <EXACT MASS>  (7455) 
178.099379688

>  <MW>  (7455) 
178

>  <ID>  (7455) 
JP000050

>  <CONTRIBUTOR>  (7455) 
University of Tokyo Team, {Faculty of Engineering, University of Tokyo

>  <COMMENT>  (7455) 
SMILES=CC(C)OC(=O)c(c1)c(C)ccc1
InChI=InChI=1S/C11H14O2/c1-8(2)13-11(12)10-7-5-4-6-9(10)3/h4-8H,1-3H3
computed SMILES=O=C(OC(C)C)C=1C=CC=CC1C
accession=JP000050
date=2016.01.19 (Created 2008.10.21, modified 2011.05.06)
author=TAJIMA S, GUNMA COLLEGE OF TECHNOLOGY
license=CC BY-NC-SA
exact mass=178.09938
ionization energy=70 eV
ion type=[M]+*
computed spectral entropy=2.3597275336042824
computed normalized entropy=0.7634083223413888
SPLASH=splash10-014i-5900000000-777b5e2de90f87313538
submitter=submitter = University of Tokyo Team (Faculty of Engineering, University of Tokyo)
MoNA Rating=3.75

>  <NUM PEAKS>  (7455) 
22

>  <MASS SPECTRAL PEAKS>  (7455) 
27 4.53
39 11.06
41 9.83
43 11.64
51 1.94
59 1.03
63 3.75
65 15.52
77 3.1
79 1.42
89 8.15
90 24.97
91 60.09
92 5.82
118 99.99
119 80.34
120 7.12
135 2.52
136 52.72
137 4.59
178 14.42
179 1.88

$$$$

     RDKit          2D

 12 12  0  0  0  0  0  0  0  0999 V2000
   -2.5989    0.7492    0.0000 C   0  0  0  0  0  0  0  0  0  0  0  0
    6.4962    3.0002    0.0000 C   0  0  0  0  0  0  0  0  0  0  0  0
   -1.2998   -0.0006    0.0000 C   0  0  0  0  0  0  0  0  0  0  0  0
    5.1972    0.7500    0.0000 C   0  0  0  0  0  0  0  0  0  0  0  0
    3.8972    3.0000    0.0000 C   0  0  0  0  0  0  0  0  0  0  0  0
    3.8972   -0.0000    0.0000 C   0  0  0  0  0  0  0  0  0  0  0  0
    2.5972    2.2500    0.0000 C   0  0  0  0  0  0  0  0  0  0  0  0
    5.1972    2.2500    0.0000 C   0  0  0  0  0  0  0  0  0  0  0  0
    2.5972    0.7500    0.0000 C   0  0  0  0  0  0  0  0  0  0  0  0
    1.2983   -0.0002    0.0000 C   0  0  0  0  0  0  0  0  0  0  0  0
    1.2986   -1.5002    0.0000 O   0  0  0  0  0  0  0  0  0  0  0  0
   -0.0008    0.7496    0.0000 O   0  0  0  0  0  0  0  0  0  0  0  0
  3  1  1  0
  6  4  2  0
  7  5  1  0
  8  2  1  0
  8  4  1  0
  8  5  2  0
  9  6  1  0
  9  7  2  0
 10  9  1  0
 11 10  2  0
 12  3  1  0
 12 10  1  0
M  END
>  <NAME>  (7456) 
ETHYL PARA TOLUATE

>  <SYNONYMS>  (7456) 
PARA TOLUIC ACID ETHYL ESTER

>  <SPECTRUM TYPE>  (7456) 
MS1

>  <INSTRUMENT TYPE>  (7456) 
EI-B

>  <INSTRUMENT>  (7456) 
HITACHI RMU-7M

>  <ION MODE>  (7456) 
P

>  <INCHIKEY>  (7456) 
NWPWRAWAUYIELB-UHFFFAOYSA-N

>  <FORMULA>  (7456) 
C10H12O2

>  <EXACT MASS>  (7456) 
164.083729624

>  <MW>  (7456) 
164

>  <ID>  (7456) 
JP000049

>  <CONTRIBUTOR>  (7456) 
University of Tokyo Team, {Faculty of Engineering, University of Tokyo

>  <COMMENT>  (7456) 
SMILES=CCOC(=O)c(c1)ccc(C)c1
InChI=InChI=1S/C10H12O2/c1-3-12-10(11)9-6-4-8(2)5-7-9/h4-7H,3H2,1-2H3
computed SMILES=O=C(OCC)C1=CC=C(C=C1)C
accession=JP000049
date=2016.01.19 (Created 2008.10.21, modified 2011.05.06)
author=TAJIMA S, GUNMA COLLEGE OF TECHNOLOGY
license=CC BY-NC-SA
exact mass=164.08373
ionization energy=70 eV
ion type=[M]+*
computed spectral entropy=2.8126231782664677
computed normalized entropy=0.8115515022348776
SPLASH=splash10-014l-9200000000-17fcf8f438b04fd7f2bc
submitter=submitter = University of Tokyo Team (Faculty of Engineering, University of Tokyo)
MoNA Rating=3.75

>  <NUM PEAKS>  (7456) 
32

>  <MASS SPECTRAL PEAKS>  (7456) 
15 8.61
26 7.28
27 42.91
29 35.76
38 7.41
39 61.59
40 4.64
41 14.04
43 3.44
45 3.18
50 13.91
51 20.66
52 5.29
53 3.25
61 1.92
62 9.34
63 29.93
64 8.34
65 80.26
66 4.11
77 5.43
89 13.91
90 7.95
91 93.44
92 10.79
119 99.99
120 10.13
136 15.89
137 1.19
149 1.52
164 7.42
165 0.93

$$$$

     RDKit          2D

 12 12  0  0  0  0  0  0  0  0999 V2000
    6.1662    0.1908    0.0000 C   0  0  0  0  0  0  0  0  0  0  0  0
   -0.3325    2.4400    0.0000 C   0  0  0  0  0  0  0  0  0  0  0  0
    4.8670    0.9406    0.0000 C   0  0  0  0  0  0  0  0  0  0  0  0
   -1.6200   -1.3100    0.0000 C   0  0  0  0  0  0  0  0  0  0  0  0
   -0.3300   -2.0600    0.0000 C   0  0  0  0  0  0  0  0  0  0  0  0
   -1.6200    0.1900    0.0000 C   0  0  0  0  0  0  0  0  0  0  0  0
    0.9700   -1.3100    0.0000 C   0  0  0  0  0  0  0  0  0  0  0  0
   -0.3300    0.9400    0.0000 C   0  0  0  0  0  0  0  0  0  0  0  0
    0.9700    0.1900    0.0000 C   0  0  0  0  0  0  0  0  0  0  0  0
    2.2689    0.9402    0.0000 C   0  0  0  0  0  0  0  0  0  0  0  0
    2.2687    2.4402    0.0000 O   0  0  0  0  0  0  0  0  0  0  0  0
    3.5681    0.1904    0.0000 O   0  0  0  0  0  0  0  0  0  0  0  0
  3  1  1  0
  5  4  2  0
  6  4  1  0
  7  5  1  0
  8  2  1  0
  8  6  2  0
  9  7  2  0
  9  8  1  0
 10  9  1  0
 11 10  2  0
 12  3  1  0
 12 10  1  0
M  END
>  <NAME>  (7457) 
ETHYL ORTHO TOLUATE

>  <SYNONYMS>  (7457) 
ORTHO TOLUIC ACID ETHYL ESTER

>  <SPECTRUM TYPE>  (7457) 
MS1

>  <INSTRUMENT TYPE>  (7457) 
EI-B

>  <INSTRUMENT>  (7457) 
HITACHI RMU-7M

>  <ION MODE>  (7457) 
P

>  <INCHIKEY>  (7457) 
SOUAXOGPALPTTC-UHFFFAOYSA-N

>  <FORMULA>  (7457) 
C10H12O2

>  <EXACT MASS>  (7457) 
164.083729624

>  <MW>  (7457) 
164

>  <ID>  (7457) 
JP000048

>  <CONTRIBUTOR>  (7457) 
University of Tokyo Team, {Faculty of Engineering, University of Tokyo

>  <COMMENT>  (7457) 
SMILES=CCOC(=O)c(c1)c(C)ccc1
InChI=InChI=1S/C10H12O2/c1-3-12-10(11)9-7-5-4-6-8(9)2/h4-7H,3H2,1-2H3
computed SMILES=O=C(OCC)C=1C=CC=CC1C
accession=JP000048
date=2016.01.19 (Created 2008.10.21, modified 2011.05.06)
author=TAJIMA S, GUNMA COLLEGE OF TECHNOLOGY
license=CC BY-NC-SA
exact mass=164.08373
ionization energy=70 eV
ion type=[M]+*
computed spectral entropy=2.5423005525135007
computed normalized entropy=0.7803024013700168
SPLASH=splash10-014l-8900000000-460ffe9149b6d2bc5e2b
submitter=submitter = University of Tokyo Team (Faculty of Engineering, University of Tokyo)
MoNA Rating=3.75

>  <NUM PEAKS>  (7457) 
26

>  <MASS SPECTRAL PEAKS>  (7457) 
27 4.21
29 4.11
39 11.58
41 3.16
50 2
51 5.26
62 2
63 8.95
64 2.11
65 33.68
66 1.05
77 8.42
79 10.42
89 11.26
90 30
91 84.53
92 7.05
105 2.63
118 77.68
119 99.99
120 10.84
135 18.95
136 8.32
149 4.74
164 26.32
165 2.63

$$$$

     RDKit          2D

 11 11  0  0  0  0  0  0  0  0999 V2000
   -2.5989   -1.5002    0.0000 C   0  0  0  0  0  0  0  0  0  0  0  0
    5.1970    1.5006    0.0000 C   0  0  0  0  0  0  0  0  0  0  0  0
   -1.3000    0.7500    0.0000 C   0  0  0  0  0  0  0  0  0  0  0  0
   -0.0000   -1.5000    0.0000 C   0  0  0  0  0  0  0  0  0  0  0  0
    0.0000    1.5000    0.0000 C   0  0  0  0  0  0  0  0  0  0  0  0
    1.3000   -0.7500    0.0000 C   0  0  0  0  0  0  0  0  0  0  0  0
   -1.3000   -0.7500    0.0000 C   0  0  0  0  0  0  0  0  0  0  0  0
    1.3000    0.7500    0.0000 C   0  0  0  0  0  0  0  0  0  0  0  0
    2.5989    1.5002    0.0000 C   0  0  0  0  0  0  0  0  0  0  0  0
    2.5987    3.0002    0.0000 O   0  0  0  0  0  0  0  0  0  0  0  0
    3.8981    0.7504    0.0000 O   0  0  0  0  0  0  0  0  0  0  0  0
  5  3  2  0
  6  4  1  0
  7  1  1  0
  7  3  1  0
  7  4  2  0
  8  5  1  0
  8  6  2  0
  9  8  1  0
 10  9  2  0
 11  2  1  0
 11  9  1  0
M  END
>  <NAME>  (7458) 
METHYL PARA TOLUATE

>  <SYNONYMS>  (7458) 
PARA TOLUIC ACID METHYL ESTER

>  <SPECTRUM TYPE>  (7458) 
MS1

>  <INSTRUMENT TYPE>  (7458) 
EI-B

>  <INSTRUMENT>  (7458) 
HITACHI RMU-7M

>  <ION MODE>  (7458) 
P

>  <INCHIKEY>  (7458) 
QSSJZLPUHJDYKF-UHFFFAOYSA-N

>  <FORMULA>  (7458) 
C9H10O2

>  <EXACT MASS>  (7458) 
150.06807956

>  <MW>  (7458) 
150

>  <ID>  (7458) 
JP000047

>  <CONTRIBUTOR>  (7458) 
University of Tokyo Team, {Faculty of Engineering, University of Tokyo

>  <COMMENT>  (7458) 
SMILES=COC(=O)c(c1)ccc(C)c1
InChI=InChI=1S/C9H10O2/c1-7-3-5-8(6-4-7)9(10)11-2/h3-6H,1-2H3
computed SMILES=O=C(OC)C1=CC=C(C=C1)C
accession=JP000047
date=2016.01.19 (Created 2008.10.21, modified 2011.05.06)
author=TAJIMA S, GUNMA COLLEGE OF TECHNOLOGY
license=CC BY-NC-SA
exact mass=150.06808
ionization energy=70 eV
ion type=[M]+*
computed spectral entropy=1.821474284906115
computed normalized entropy=0.6569579794852057
SPLASH=splash10-014i-5900000000-c3eb93cfbb7c8782e76a
submitter=submitter = University of Tokyo Team (Faculty of Engineering, University of Tokyo)
MoNA Rating=3.75

>  <NUM PEAKS>  (7458) 
16

>  <MASS SPECTRAL PEAKS>  (7458) 
15 1.6
39 7.86
41 1.33
50 1.83
51 2.93
62 1.46
63 5.85
65 18.02
89 4.39
90 2.24
91 35.53
92 1.87
119 99.99
120 8.18
150 18.2
151 1.19

$$$$

     RDKit          2D

 11 11  0  0  0  0  0  0  0  0999 V2000
   -0.3325    2.4400    0.0000 C   0  0  0  0  0  0  0  0  0  0  0  0
    4.8670    0.9406    0.0000 C   0  0  0  0  0  0  0  0  0  0  0  0
   -1.6200   -1.3100    0.0000 C   0  0  0  0  0  0  0  0  0  0  0  0
   -0.3300   -2.0600    0.0000 C   0  0  0  0  0  0  0  0  0  0  0  0
   -1.6200    0.1900    0.0000 C   0  0  0  0  0  0  0  0  0  0  0  0
    0.9700   -1.3100    0.0000 C   0  0  0  0  0  0  0  0  0  0  0  0
   -0.3300    0.9400    0.0000 C   0  0  0  0  0  0  0  0  0  0  0  0
    0.9700    0.1900    0.0000 C   0  0  0  0  0  0  0  0  0  0  0  0
    2.2689    0.9402    0.0000 C   0  0  0  0  0  0  0  0  0  0  0  0
    2.2687    2.4402    0.0000 O   0  0  0  0  0  0  0  0  0  0  0  0
    3.5681    0.1904    0.0000 O   0  0  0  0  0  0  0  0  0  0  0  0
  4  3  2  0
  5  3  1  0
  6  4  1  0
  7  1  1  0
  7  5  2  0
  8  6  2  0
  8  7  1  0
  9  8  1  0
 10  9  2  0
 11  2  1  0
 11  9  1  0
M  END
>  <NAME>  (7459) 
METHYL ORTHO TOLUATE

>  <SYNONYMS>  (7459) 
ORTHO TOLUIC ACID METHYL ESTER

>  <SPECTRUM TYPE>  (7459) 
MS1

>  <INSTRUMENT TYPE>  (7459) 
EI-B

>  <INSTRUMENT>  (7459) 
HITACHI RMU-7M

>  <ION MODE>  (7459) 
P

>  <INCHIKEY>  (7459) 
WVWZECQNFWFVFW-UHFFFAOYSA-N

>  <FORMULA>  (7459) 
C9H10O2

>  <EXACT MASS>  (7459) 
150.06807956

>  <MW>  (7459) 
150

>  <ID>  (7459) 
JP000046

>  <CONTRIBUTOR>  (7459) 
University of Tokyo Team, {Faculty of Engineering, University of Tokyo

>  <COMMENT>  (7459) 
SMILES=COC(=O)c(c1)c(C)ccc1
InChI=InChI=1S/C9H10O2/c1-7-5-3-4-6-8(7)9(10)11-2/h3-6H,1-2H3
computed SMILES=O=C(OC)C=1C=CC=CC1C
accession=JP000046
date=2016.01.19 (Created 2008.10.21, modified 2011.05.06)
author=TAJIMA S, GUNMA COLLEGE OF TECHNOLOGY
license=CC BY-NC-SA
exact mass=150.06808
ionization energy=70 eV
ion type=[M]+*
computed spectral entropy=2.71052954813981
computed normalized entropy=0.7820935074568613
SPLASH=splash10-014l-9600000000-9175dd93a78314d03e0f
submitter=submitter = University of Tokyo Team (Faculty of Engineering, University of Tokyo)
MoNA Rating=3.75

>  <NUM PEAKS>  (7459) 
32

>  <MASS SPECTRAL PEAKS>  (7459) 
15 5.96
27 2.17
29 2.42
38 3.53
39 23.73
40 1.62
41 4.29
50 6.26
51 11.56
52 2.42
53 1.62
59 1.62
61 1.56
62 6.51
63 19.28
64 5.55
65 41.54
66 2.02
77 12.01
79 8.48
89 17.67
90 31.3
91 99.99
92 7.98
105 3.94
118 63.5
119 98.33
120 8.38
135 7.02
149 1.46
150 37.41
151 3.89

$$$$

     RDKit          2D

 10 10  0  0  0  0  0  0  0  0999 V2000
   -2.5989   -1.5002    0.0000 C   0  0  0  0  0  0  0  0  0  0  0  0
   -1.3000    0.7500    0.0000 C   0  0  0  0  0  0  0  0  0  0  0  0
   -0.0000   -1.5000    0.0000 C   0  0  0  0  0  0  0  0  0  0  0  0
    0.0000    1.5000    0.0000 C   0  0  0  0  0  0  0  0  0  0  0  0
    1.3000   -0.7500    0.0000 C   0  0  0  0  0  0  0  0  0  0  0  0
   -1.3000   -0.7500    0.0000 C   0  0  0  0  0  0  0  0  0  0  0  0
    1.3000    0.7500    0.0000 C   0  0  0  0  0  0  0  0  0  0  0  0
    2.5989    1.5002    0.0000 C   0  0  0  0  0  0  0  0  0  0  0  0
    3.8981    0.7504    0.0000 O   0  0  0  0  0  0  0  0  0  0  0  0
    2.5987    3.0002    0.0000 O   0  0  0  0  0  0  0  0  0  0  0  0
  4  2  2  0
  5  3  1  0
  6  1  1  0
  6  2  1  0
  6  3  2  0
  7  4  1  0
  7  5  2  0
  8  7  1  0
  9  8  1  0
 10  8  2  0
M  END
>  <NAME>  (7460) 
PARA TOLUIC ACID

>  <SYNONYMS>  (7460) 


>  <SPECTRUM TYPE>  (7460) 
MS1

>  <INSTRUMENT TYPE>  (7460) 
EI-B

>  <INSTRUMENT>  (7460) 
HITACHI RMU-7M

>  <ION MODE>  (7460) 
P

>  <INCHIKEY>  (7460) 
LPNBBFKOUUSUDB-UHFFFAOYSA-N

>  <FORMULA>  (7460) 
C8H8O2

>  <EXACT MASS>  (7460) 
136.052429496

>  <MW>  (7460) 
136

>  <ID>  (7460) 
JP000045

>  <CONTRIBUTOR>  (7460) 
University of Tokyo Team, {Faculty of Engineering, University of Tokyo

>  <COMMENT>  (7460) 
SMILES=Cc(c1)ccc(c1)C(O)=O
InChI=InChI=1S/C8H8O2/c1-6-2-4-7(5-3-6)8(9)10/h2-5H,1H3,(H,9,10)
computed SMILES=O=C(O)C1=CC=C(C=C1)C
accession=JP000045
date=2016.01.19 (Created 2008.10.21, modified 2011.05.06)
author=TAJIMA S, GUNMA COLLEGE OF TECHNOLOGY
license=CC BY-NC-SA
exact mass=136.05243
ionization energy=70 eV
ion type=[M]+*
computed spectral entropy=2.286683273735372
computed normalized entropy=0.7397773755099889
SPLASH=splash10-00ko-9400000000-cfbfdc2f148970f31c8e
submitter=submitter = University of Tokyo Team (Faculty of Engineering, University of Tokyo)
MoNA Rating=3.75

>  <NUM PEAKS>  (7460) 
22

>  <MASS SPECTRAL PEAKS>  (7460) 
27 2.07
38 1.94
39 13.83
41 4.63
43 2.9
44 1.11
45 2.07
50 4.29
51 6.09
62 3.6
63 9.75
64 2.01
65 24.14
77 4.29
89 6.78
90 4.77
91 99.99
92 15.77
119 44.4
120 3.39
136 50
137 4.01

$$$$

     RDKit          2D

 10 10  0  0  0  0  0  0  0  0999 V2000
   -0.3325    2.8100    0.0000 C   0  0  0  0  0  0  0  0  0  0  0  0
   -1.6200   -0.9400    0.0000 C   0  0  0  0  0  0  0  0  0  0  0  0
   -1.6200    0.5600    0.0000 C   0  0  0  0  0  0  0  0  0  0  0  0
   -0.3300   -1.6900    0.0000 C   0  0  0  0  0  0  0  0  0  0  0  0
    0.9700    0.5600    0.0000 C   0  0  0  0  0  0  0  0  0  0  0  0
   -0.3300    1.3100    0.0000 C   0  0  0  0  0  0  0  0  0  0  0  0
    0.9700   -0.9400    0.0000 C   0  0  0  0  0  0  0  0  0  0  0  0
    2.2689   -1.6902    0.0000 C   0  0  0  0  0  0  0  0  0  0  0  0
    3.5681   -0.9404    0.0000 O   0  0  0  0  0  0  0  0  0  0  0  0
    2.2687   -3.1902    0.0000 O   0  0  0  0  0  0  0  0  0  0  0  0
  3  2  2  0
  4  2  1  0
  6  1  1  0
  6  3  1  0
  6  5  2  0
  7  4  2  0
  7  5  1  0
  8  7  1  0
  9  8  2  0
 10  8  1  0
M  END
>  <NAME>  (7461) 
META TOLUIC ACID

>  <SYNONYMS>  (7461) 


>  <SPECTRUM TYPE>  (7461) 
MS1

>  <INSTRUMENT TYPE>  (7461) 
EI-B

>  <INSTRUMENT>  (7461) 
HITACHI RMU-7M

>  <ION MODE>  (7461) 
P

>  <INCHIKEY>  (7461) 
GPSDUZXPYCFOSQ-UHFFFAOYSA-N

>  <FORMULA>  (7461) 
C8H8O2

>  <EXACT MASS>  (7461) 
136.052429496

>  <MW>  (7461) 
136

>  <ID>  (7461) 
JP000044

>  <CONTRIBUTOR>  (7461) 
University of Tokyo Team, {Faculty of Engineering, University of Tokyo

>  <COMMENT>  (7461) 
SMILES=Cc(c1)cc(cc1)C(O)=O
InChI=InChI=1S/C8H8O2/c1-6-3-2-4-7(5-6)8(9)10/h2-5H,1H3,(H,9,10)
computed SMILES=O=C(O)C1=CC=CC(=C1)C
accession=JP000044
date=2016.01.19 (Created 2008.10.21, modified 2011.05.06)
author=TAJIMA S, GUNMA COLLEGE OF TECHNOLOGY
license=CC BY-NC-SA
exact mass=136.05243
ionization energy=70 eV
ion type=[M]+*
computed spectral entropy=2.2898838040866374
computed normalized entropy=0.7303103263445408
SPLASH=splash10-0006-9300000000-19cda220bb49ced38298
submitter=submitter = University of Tokyo Team (Faculty of Engineering, University of Tokyo)
MoNA Rating=3.75

>  <NUM PEAKS>  (7461) 
23

>  <MASS SPECTRAL PEAKS>  (7461) 
27 1.99
38 1.81
39 14.04
41 4.16
43 2.72
45 1.81
50 3.62
51 5.43
62 2.99
63 8.61
65 20.38
77 4.53
79 1.81
89 6.34
90 5.89
91 99.99
92 16.76
118 1.02
119 27.9
120 1.81
135 2.08
136 43.57
137 3.44

$$$$

     RDKit          2D

 10 10  0  0  0  0  0  0  0  0999 V2000
    2.2806   -2.0598    0.0000 C   0  0  0  0  0  0  0  0  0  0  0  0
    3.5681    1.6902    0.0000 C   0  0  0  0  0  0  0  0  0  0  0  0
    2.2781    2.4402    0.0000 C   0  0  0  0  0  0  0  0  0  0  0  0
    3.5681    0.1902    0.0000 C   0  0  0  0  0  0  0  0  0  0  0  0
    0.9781    1.6902    0.0000 C   0  0  0  0  0  0  0  0  0  0  0  0
    2.2781   -0.5598    0.0000 C   0  0  0  0  0  0  0  0  0  0  0  0
    0.9781    0.1902    0.0000 C   0  0  0  0  0  0  0  0  0  0  0  0
   -0.3208   -0.5600    0.0000 C   0  0  0  0  0  0  0  0  0  0  0  0
   -0.3206   -2.0600    0.0000 O   0  0  0  0  0  0  0  0  0  0  0  0
   -1.6200    0.1898    0.0000 O   0  0  0  0  0  0  0  0  0  0  0  0
  3  2  2  0
  4  2  1  0
  5  3  1  0
  6  1  1  0
  6  4  2  0
  7  5  2  0
  7  6  1  0
  8  7  1  0
  9  8  2  0
 10  8  1  0
M  END
>  <NAME>  (7462) 
ORTHO TOLUIC ACID

>  <SYNONYMS>  (7462) 


>  <SPECTRUM TYPE>  (7462) 
MS1

>  <INSTRUMENT TYPE>  (7462) 
EI-B

>  <INSTRUMENT>  (7462) 
HITACHI RMU-7M

>  <ION MODE>  (7462) 
P

>  <INCHIKEY>  (7462) 
ZWLPBLYKEWSWPD-UHFFFAOYSA-N

>  <FORMULA>  (7462) 
C8H8O2

>  <EXACT MASS>  (7462) 
136.052429496

>  <MW>  (7462) 
136

>  <ID>  (7462) 
JP000043

>  <CONTRIBUTOR>  (7462) 
University of Tokyo Team, {Faculty of Engineering, University of Tokyo

>  <COMMENT>  (7462) 
SMILES=OC(=O)c(c1)c(C)ccc1
InChI=InChI=1S/C8H8O2/c1-6-4-2-3-5-7(6)8(9)10/h2-5H,1H3,(H,9,10)
computed SMILES=O=C(O)C=1C=CC=CC1C
accession=JP000043
date=2016.01.19 (Created 2008.10.21, modified 2011.05.06)
author=TAJIMA S, GUNMA COLLEGE OF TECHNOLOGY
license=CC BY-NC-SA
exact mass=136.05243
ionization energy=70 eV
ion type=[M]+*
computed spectral entropy=2.8491504078270977
computed normalized entropy=0.7832530372397851
SPLASH=splash10-00ko-9400000000-3ea21e5a2da3e36feaa4
submitter=submitter = University of Tokyo Team (Faculty of Engineering, University of Tokyo)
MoNA Rating=3.75

>  <NUM PEAKS>  (7462) 
38

>  <MASS SPECTRAL PEAKS>  (7462) 
27 4.57
29 1.36
37 2.17
38 5.43
39 29.13
40 2.61
41 4.89
43 3.59
44 2.72
45 9.4
50 8.15
51 14.46
52 2.88
53 3.75
59 8.15
61 2.66
62 7.06
63 18.64
64 4.89
65 37.07
66 2.5
77 11.68
79 4.08
89 17.93
90 75.71
91 99.99
92 8.8
93 1.58
105 2.88
107 1.09
118 84.89
119 24.73
120 2.06
121 5.43
135 2.5
136 56.3
137 4.89
138 3.42

$$$$

     RDKit          2D

 13 13  0  0  0  0  0  0  0  0999 V2000
   -2.5476    4.3306    0.0000 C   0  0  0  0  0  0  0  0  0  0  0  0
   -4.5966    3.7816    0.0000 C   0  0  0  0  0  0  0  0  0  0  0  0
   -4.0476    1.7326    0.0000 C   0  0  0  0  0  0  0  0  0  0  0  0
    3.1976    0.7816    0.0000 C   0  0  0  0  0  0  0  0  0  0  0  0
    3.1981    2.2824    0.0000 C   0  0  0  0  0  0  0  0  0  0  0  0
    1.8981    0.0308    0.0000 C   0  0  0  0  0  0  0  0  0  0  0  0
    1.8990    3.0324    0.0000 C   0  0  0  0  0  0  0  0  0  0  0  0
    0.5990    0.7808    0.0000 C   0  0  0  0  0  0  0  0  0  0  0  0
    0.5995    2.2816    0.0000 C   0  0  0  0  0  0  0  0  0  0  0  0
   -0.6995    3.0316    0.0000 C   0  0  0  0  0  0  0  0  0  0  0  0
   -3.2976    3.0316    0.0000 C   0  0  0  0  0  0  0  0  0  0  0  0
   -0.6995    4.5316    0.0000 O   0  0  0  0  0  0  0  0  0  0  0  0
   -1.9986    2.2816    0.0000 O   0  0  0  0  0  0  0  0  0  0  0  0
  5  4  2  0
  6  4  1  0
  7  5  1  0
  8  6  2  0
  9  7  2  0
  9  8  1  0
 10  9  1  0
 11  1  1  0
 11  2  1  0
 11  3  1  0
 12 10  2  0
 13 10  1  0
 13 11  1  0
M  END
>  <NAME>  (7463) 
TERTBUTYL BENZOATE

>  <SYNONYMS>  (7463) 
BENZOIC ACID TERTBUTYL ESTER

>  <SPECTRUM TYPE>  (7463) 
MS1

>  <INSTRUMENT TYPE>  (7463) 
EI-B

>  <INSTRUMENT>  (7463) 
HITACHI RMU-7M

>  <ION MODE>  (7463) 
P

>  <INCHIKEY>  (7463) 
LYDRKKWPKKEMNZ-UHFFFAOYSA-N

>  <FORMULA>  (7463) 
C11H14O2

>  <EXACT MASS>  (7463) 
178.099379688

>  <MW>  (7463) 
178

>  <ID>  (7463) 
JP000042

>  <CONTRIBUTOR>  (7463) 
University of Tokyo Team, {Faculty of Engineering, University of Tokyo

>  <COMMENT>  (7463) 
SMILES=CC(C)(C)OC(=O)c(c1)cccc1
InChI=InChI=1S/C11H14O2/c1-11(2,3)13-10(12)9-7-5-4-6-8-9/h4-8H,1-3H3
computed SMILES=O=C(OC(C)(C)C)C=1C=CC=CC1
accession=JP000042
date=2016.01.19 (Created 2008.10.21, modified 2011.05.06)
author=TAJIMA S, GUNMA COLLEGE OF TECHNOLOGY
license=CC BY-NC-SA
exact mass=178.09938
ionization energy=70 eV
ion type=[M]+*
computed spectral entropy=2.339113406619446
computed normalized entropy=0.7808152374859706
SPLASH=splash10-0a4i-9700000000-d4ff41df8e7fc8ada097
submitter=submitter = University of Tokyo Team (Faculty of Engineering, University of Tokyo)
MoNA Rating=3.75

>  <NUM PEAKS>  (7463) 
20

>  <MASS SPECTRAL PEAKS>  (7463) 
27 3.89
29 9.89
39 7.14
41 19.34
43 2.95
50 5.36
51 17.08
55 1.62
56 28.15
57 66.44
58 2.56
76 2.36
77 40.11
78 5.41
79 5.9
105 99.99
106 7.28
122 6.99
123 59.1
124 4.18

$$$$

     RDKit          2D

 13 13  0  0  0  0  0  0  0  0999 V2000
   -5.8454    3.6946    0.0000 C   0  0  0  0  0  0  0  0  0  0  0  0
   -4.5464    1.4446    0.0000 C   0  0  0  0  0  0  0  0  0  0  0  0
    3.2478    1.4446    0.0000 C   0  0  0  0  0  0  0  0  0  0  0  0
    3.2483    2.9454    0.0000 C   0  0  0  0  0  0  0  0  0  0  0  0
    1.9483    0.6938    0.0000 C   0  0  0  0  0  0  0  0  0  0  0  0
    1.9493    3.6954    0.0000 C   0  0  0  0  0  0  0  0  0  0  0  0
    0.6493    1.4438    0.0000 C   0  0  0  0  0  0  0  0  0  0  0  0
   -3.2474    3.6946    0.0000 C   0  0  0  0  0  0  0  0  0  0  0  0
   -4.5464    2.9446    0.0000 C   0  0  0  0  0  0  0  0  0  0  0  0
    0.6498    2.9446    0.0000 C   0  0  0  0  0  0  0  0  0  0  0  0
   -0.6493    3.6946    0.0000 C   0  0  0  0  0  0  0  0  0  0  0  0
   -0.6493    5.1946    0.0000 O   0  0  0  0  0  0  0  0  0  0  0  0
   -1.9483    2.9446    0.0000 O   0  0  0  0  0  0  0  0  0  0  0  0
  4  3  2  0
  5  3  1  0
  6  4  1  0
  7  5  2  0
  9  1  1  0
  9  2  1  0
  9  8  1  0
 10  6  2  0
 10  7  1  0
 11 10  1  0
 12 11  2  0
 13  8  1  0
 13 11  1  0
M  END
>  <NAME>  (7464) 
ISOBUTYL BENZOATE

>  <SYNONYMS>  (7464) 
BENZOIC ACID ISOBUTYL ESTER

>  <SPECTRUM TYPE>  (7464) 
MS1

>  <INSTRUMENT TYPE>  (7464) 
EI-B

>  <INSTRUMENT>  (7464) 
HITACHI RMU-7M

>  <ION MODE>  (7464) 
P

>  <INCHIKEY>  (7464) 
KYZHGEFMXZOSJN-UHFFFAOYSA-N

>  <FORMULA>  (7464) 
C11H14O2

>  <EXACT MASS>  (7464) 
178.099379688

>  <MW>  (7464) 
178

>  <ID>  (7464) 
JP000041

>  <CONTRIBUTOR>  (7464) 
University of Tokyo Team, {Faculty of Engineering, University of Tokyo

>  <COMMENT>  (7464) 
SMILES=CC(C)COC(=O)c(c1)cccc1
InChI=InChI=1S/C11H14O2/c1-9(2)8-13-11(12)10-6-4-3-5-7-10/h3-7,9H,8H2,1-2H3
computed SMILES=O=C(OCC(C)C)C=1C=CC=CC1
date=2016.01.19 (Created 2008.10.21, modified 2011.05.06)
accession=JP000041
author=TAJIMA S, GUNMA COLLEGE OF TECHNOLOGY
license=CC BY-NC-SA
exact mass=178.09938
ionization energy=70 eV
ion type=[M]+*
computed spectral entropy=2.0939478216386584
computed normalized entropy=0.7111534103625565
SPLASH=splash10-0a4i-8900000000-64acee983703b623e7c3
submitter=submitter = University of Tokyo Team (Faculty of Engineering, University of Tokyo)
MoNA Rating=3.75

>  <NUM PEAKS>  (7464) 
19

>  <MASS SPECTRAL PEAKS>  (7464) 
27 3.42
29 5.78
39 2.77
41 7.96
43 1.18
50 3.42
51 13.98
55 1.89
56 32.15
57 2.6
76 1.77
77 45.43
78 3.42
79 4.9
105 99.99
106 7.61
122 1.77
123 34.51
124 2.48

$$$$

     RDKit          2D

 13 13  0  0  0  0  0  0  0  0999 V2000
   -5.8454    3.6946    0.0000 C   0  0  0  0  0  0  0  0  0  0  0  0
   -4.5464    1.4446    0.0000 C   0  0  0  0  0  0  0  0  0  0  0  0
    3.2478    1.4446    0.0000 C   0  0  0  0  0  0  0  0  0  0  0  0
    3.2483    2.9454    0.0000 C   0  0  0  0  0  0  0  0  0  0  0  0
    1.9483    0.6938    0.0000 C   0  0  0  0  0  0  0  0  0  0  0  0
    1.9493    3.6954    0.0000 C   0  0  0  0  0  0  0  0  0  0  0  0
    0.6493    1.4438    0.0000 C   0  0  0  0  0  0  0  0  0  0  0  0
   -3.2474    3.6946    0.0000 C   0  0  0  0  0  0  0  0  0  0  0  0
   -4.5464    2.9446    0.0000 C   0  0  0  0  0  0  0  0  0  0  0  0
    0.6498    2.9446    0.0000 C   0  0  0  0  0  0  0  0  0  0  0  0
   -0.6493    3.6946    0.0000 C   0  0  0  0  0  0  0  0  0  0  0  0
   -0.6493    5.1946    0.0000 O   0  0  0  0  0  0  0  0  0  0  0  0
   -1.9483    2.9446    0.0000 O   0  0  0  0  0  0  0  0  0  0  0  0
  4  3  2  0
  5  3  1  0
  6  4  1  0
  7  5  2  0
  9  1  1  0
  9  2  1  0
  9  8  1  0
 10  6  2  0
 10  7  1  0
 11 10  1  0
 12 11  2  0
 13  8  1  0
 13 11  1  0
M  END
>  <NAME>  (7465) 
BUTYL BENZOATE

>  <SYNONYMS>  (7465) 
BENZOIC ACID BUTYL ESTER

>  <SPECTRUM TYPE>  (7465) 
MS1

>  <INSTRUMENT TYPE>  (7465) 
EI-B

>  <INSTRUMENT>  (7465) 
HITACHI RMU-7M

>  <ION MODE>  (7465) 
P

>  <INCHIKEY>  (7465) 
KYZHGEFMXZOSJN-UHFFFAOYSA-N

>  <FORMULA>  (7465) 
C11H14O2

>  <EXACT MASS>  (7465) 
178.099379688

>  <MW>  (7465) 
178

>  <ID>  (7465) 
JP000040

>  <CONTRIBUTOR>  (7465) 
University of Tokyo Team, {Faculty of Engineering, University of Tokyo

>  <COMMENT>  (7465) 
SMILES=CC(C)COC(=O)c(c1)cccc1
InChI=InChI=1S/C11H14O2/c1-9(2)8-13-11(12)10-6-4-3-5-7-10/h3-7,9H,8H2,1-2H3
computed SMILES=O=C(OCC(C)C)C=1C=CC=CC1
accession=JP000040
date=2016.01.19 (Created 2008.10.21, modified 2011.05.06)
author=TAJIMA S, GUNMA COLLEGE OF TECHNOLOGY
license=CC BY-NC-SA
exact mass=178.09938
ionization energy=70 eV
ion type=[M]+*
computed spectral entropy=2.2456574096282123
computed normalized entropy=0.7769441434283786
SPLASH=splash10-0a4i-7900000000-e982b688673f1201fce5
submitter=submitter = University of Tokyo Team (Faculty of Engineering, University of Tokyo)
MoNA Rating=3.75

>  <NUM PEAKS>  (7465) 
18

>  <MASS SPECTRAL PEAKS>  (7465) 
39 3.74
41 12.02
43 5.71
50 2.73
51 11.21
55 7.07
56 21.36
57 7.88
76 2.52
77 47.47
78 4.04
79 10.3
105 99.99
106 8.08
121 3.03
122 12.12
123 45.96
124 3.54

$$$$

     RDKit          2D

 12 12  0  0  0  0  0  0  0  0999 V2000
   -4.8712    2.0071    0.0000 C   0  0  0  0  0  0  0  0  0  0  0  0
   -3.5721    4.2571    0.0000 C   0  0  0  0  0  0  0  0  0  0  0  0
    2.9231    0.5071    0.0000 C   0  0  0  0  0  0  0  0  0  0  0  0
    2.9236    2.0079    0.0000 C   0  0  0  0  0  0  0  0  0  0  0  0
    1.6236   -0.2437    0.0000 C   0  0  0  0  0  0  0  0  0  0  0  0
    1.6245    2.7579    0.0000 C   0  0  0  0  0  0  0  0  0  0  0  0
    0.3245    0.5063    0.0000 C   0  0  0  0  0  0  0  0  0  0  0  0
   -3.5721    2.7571    0.0000 C   0  0  0  0  0  0  0  0  0  0  0  0
    0.3250    2.0071    0.0000 C   0  0  0  0  0  0  0  0  0  0  0  0
   -0.9740    2.7571    0.0000 C   0  0  0  0  0  0  0  0  0  0  0  0
   -0.9740    4.2571    0.0000 O   0  0  0  0  0  0  0  0  0  0  0  0
   -2.2731    2.0071    0.0000 O   0  0  0  0  0  0  0  0  0  0  0  0
  4  3  2  0
  5  3  1  0
  6  4  1  0
  7  5  2  0
  8  1  1  0
  8  2  1  0
  9  6  2  0
  9  7  1  0
 10  9  1  0
 11 10  2  0
 12  8  1  0
 12 10  1  0
M  END
>  <NAME>  (7466) 
ISOPROPYL BENZOATE

>  <SYNONYMS>  (7466) 
BENZOIC ACID ISOPROPYL ESTER

>  <SPECTRUM TYPE>  (7466) 
MS1

>  <INSTRUMENT TYPE>  (7466) 
EI-B

>  <INSTRUMENT>  (7466) 
HITACHI RMU-7M

>  <ION MODE>  (7466) 
P

>  <INCHIKEY>  (7466) 
FEXQDZTYJVXMOS-UHFFFAOYSA-N

>  <FORMULA>  (7466) 
C10H12O2

>  <EXACT MASS>  (7466) 
164.083729624

>  <MW>  (7466) 
164

>  <ID>  (7466) 
JP000039

>  <CONTRIBUTOR>  (7466) 
University of Tokyo Team, {Faculty of Engineering, University of Tokyo

>  <COMMENT>  (7466) 
SMILES=CC(C)OC(=O)c(c1)cccc1
InChI=InChI=1S/C10H12O2/c1-8(2)12-10(11)9-6-4-3-5-7-9/h3-8H,1-2H3
computed SMILES=O=C(OC(C)C)C=1C=CC=CC1
license=CC BY-NC-SA
accession=JP000039
date=2016.01.19 (Created 2008.10.21, modified 2011.05.06)
author=TAJIMA S, GUNMA COLLEGE OF TECHNOLOGY
exact mass=164.08373
ionization energy=70 eV
ion type=[M]+*
computed spectral entropy=2.4241989209994177
computed normalized entropy=0.7842658124496495
SPLASH=splash10-0a4i-9800000000-c5884ecd37b756d09356
submitter=submitter = University of Tokyo Team (Faculty of Engineering, University of Tokyo)
MoNA Rating=3.75

>  <NUM PEAKS>  (7466) 
22

>  <MASS SPECTRAL PEAKS>  (7466) 
27 8.93
39 6.55
41 12.27
42 3.34
43 22.57
50 6.91
51 22.75
52 1.37
59 23.59
76 2.5
77 45.86
78 5.78
79 4.65
105 99.99
106 10.24
122 16.02
123 25.61
124 1.79
146 1.73
149 1.67
164 5.78
165 0.6

$$$$

     RDKit          2D

 12 12  0  0  0  0  0  0  0  0999 V2000
   -5.5207    3.1321    0.0000 C   0  0  0  0  0  0  0  0  0  0  0  0
   -4.2216    2.3821    0.0000 C   0  0  0  0  0  0  0  0  0  0  0  0
    3.5726    0.8821    0.0000 C   0  0  0  0  0  0  0  0  0  0  0  0
    3.5731    2.3829    0.0000 C   0  0  0  0  0  0  0  0  0  0  0  0
    2.2731    0.1313    0.0000 C   0  0  0  0  0  0  0  0  0  0  0  0
    2.2740    3.1329    0.0000 C   0  0  0  0  0  0  0  0  0  0  0  0
    0.9740    0.8813    0.0000 C   0  0  0  0  0  0  0  0  0  0  0  0
   -2.9226    3.1321    0.0000 C   0  0  0  0  0  0  0  0  0  0  0  0
    0.9745    2.3821    0.0000 C   0  0  0  0  0  0  0  0  0  0  0  0
   -0.3245    3.1321    0.0000 C   0  0  0  0  0  0  0  0  0  0  0  0
   -0.3245    4.6321    0.0000 O   0  0  0  0  0  0  0  0  0  0  0  0
   -1.6236    2.3821    0.0000 O   0  0  0  0  0  0  0  0  0  0  0  0
  2  1  1  0
  4  3  2  0
  5  3  1  0
  6  4  1  0
  7  5  2  0
  8  2  1  0
  9  6  2  0
  9  7  1  0
 10  9  1  0
 11 10  2  0
 12  8  1  0
 12 10  1  0
M  END
>  <NAME>  (7467) 
PROPYL BENZOATE

>  <SYNONYMS>  (7467) 
BENZOIC ACID PROPYL ESTER

>  <SPECTRUM TYPE>  (7467) 
MS1

>  <INSTRUMENT TYPE>  (7467) 
EI-B

>  <INSTRUMENT>  (7467) 
HITACHI RMU-7M

>  <ION MODE>  (7467) 
P

>  <INCHIKEY>  (7467) 
UDEWPOVQBGFNGE-UHFFFAOYSA-N

>  <FORMULA>  (7467) 
C10H12O2

>  <EXACT MASS>  (7467) 
164.083729624

>  <MW>  (7467) 
164

>  <ID>  (7467) 
JP000038

>  <CONTRIBUTOR>  (7467) 
University of Tokyo Team, {Faculty of Engineering, University of Tokyo

>  <COMMENT>  (7467) 
SMILES=CCCOC(=O)c(c1)cccc1
InChI=InChI=1S/C10H12O2/c1-2-8-12-10(11)9-6-4-3-5-7-9/h3-7H,2,8H2,1H3
computed SMILES=O=C(OCCC)C=1C=CC=CC1
accession=JP000038
date=2016.01.19 (Created 2008.10.21, modified 2011.05.06)
author=TAJIMA S, GUNMA COLLEGE OF TECHNOLOGY
license=CC BY-NC-SA
exact mass=164.08373
ionization energy=70 eV
ion type=[M]+*
computed spectral entropy=1.5357524748682512
computed normalized entropy=0.6404585272300115
SPLASH=splash10-0ab9-1900000000-4f4f18eff7fed779adb5
submitter=submitter = University of Tokyo Team (Faculty of Engineering, University of Tokyo)
MoNA Rating=3.75

>  <NUM PEAKS>  (7467) 
11

>  <MASS SPECTRAL PEAKS>  (7467) 
51 2.42
77 27
78 1.71
79 1.36
105 99.99
106 7.67
122 27.83
123 47.52
124 3.07
135 0.83
164 0.35

$$$$

     RDKit          2D

 11 11  0  0  0  0  0  0  0  0999 V2000
   -4.8712    2.0071    0.0000 C   0  0  0  0  0  0  0  0  0  0  0  0
   -3.5721    2.7571    0.0000 C   0  0  0  0  0  0  0  0  0  0  0  0
    2.9231    0.5071    0.0000 C   0  0  0  0  0  0  0  0  0  0  0  0
    2.9236    2.0079    0.0000 C   0  0  0  0  0  0  0  0  0  0  0  0
    1.6236   -0.2437    0.0000 C   0  0  0  0  0  0  0  0  0  0  0  0
    1.6245    2.7579    0.0000 C   0  0  0  0  0  0  0  0  0  0  0  0
    0.3245    0.5063    0.0000 C   0  0  0  0  0  0  0  0  0  0  0  0
    0.3250    2.0071    0.0000 C   0  0  0  0  0  0  0  0  0  0  0  0
   -0.9740    2.7571    0.0000 C   0  0  0  0  0  0  0  0  0  0  0  0
   -0.9740    4.2571    0.0000 O   0  0  0  0  0  0  0  0  0  0  0  0
   -2.2731    2.0071    0.0000 O   0  0  0  0  0  0  0  0  0  0  0  0
  2  1  1  0
  4  3  2  0
  5  3  1  0
  6  4  1  0
  7  5  2  0
  8  6  2  0
  8  7  1  0
  9  8  1  0
 10  9  2  0
 11  2  1  0
 11  9  1  0
M  END
>  <NAME>  (7468) 
ETHYL BENZOATE

>  <SYNONYMS>  (7468) 
BENZOIC ACID ETHYL ESTER

>  <SPECTRUM TYPE>  (7468) 
MS1

>  <INSTRUMENT TYPE>  (7468) 
EI-B

>  <INSTRUMENT>  (7468) 
HITACHI RMU-7M

>  <ION MODE>  (7468) 
P

>  <INCHIKEY>  (7468) 
MTZQAGJQAFMTAQ-UHFFFAOYSA-N

>  <FORMULA>  (7468) 
C9H10O2

>  <EXACT MASS>  (7468) 
150.06807956

>  <MW>  (7468) 
150

>  <ID>  (7468) 
JP000037

>  <CONTRIBUTOR>  (7468) 
University of Tokyo Team, {Faculty of Engineering, University of Tokyo

>  <COMMENT>  (7468) 
SMILES=CCOC(=O)c(c1)cccc1
InChI=InChI=1S/C9H10O2/c1-2-11-9(10)8-6-4-3-5-7-8/h3-7H,2H2,1H3
computed SMILES=O=C(OCC)C=1C=CC=CC1
accession=JP000037
date=2016.01.19 (Created 2008.10.21, modified 2011.05.06)
author=TAJIMA S, GUNMA COLLEGE OF TECHNOLOGY
license=CC BY-NC-SA
exact mass=150.06808
ionization energy=70 eV
ion type=[M]+*
computed spectral entropy=1.5919034985201495
computed normalized entropy=0.6406290951235382
SPLASH=splash10-0a4i-2900000000-37faa5967536e1c37df1
submitter=submitter = University of Tokyo Team (Faculty of Engineering, University of Tokyo)
MoNA Rating=3.75

>  <NUM PEAKS>  (7468) 
12

>  <MASS SPECTRAL PEAKS>  (7468) 
51 3.59
76 1.05
77 31.97
78 2.54
105 99.99
106 9.01
122 33.62
123 2.59
135 0.9
149 2.24
150 16.38
151 1.54

$$$$

     RDKit          2D

 10 10  0  0  0  0  0  0  0  0999 V2000
   -3.5724    2.0075    0.0000 C   0  0  0  0  0  0  0  0  0  0  0  0
    2.9228   -0.2425    0.0000 C   0  0  0  0  0  0  0  0  0  0  0  0
    2.9233    1.2583    0.0000 C   0  0  0  0  0  0  0  0  0  0  0  0
    1.6233   -0.9933    0.0000 C   0  0  0  0  0  0  0  0  0  0  0  0
    1.6243    2.0083    0.0000 C   0  0  0  0  0  0  0  0  0  0  0  0
    0.3243   -0.2433    0.0000 C   0  0  0  0  0  0  0  0  0  0  0  0
    0.3248    1.2575    0.0000 C   0  0  0  0  0  0  0  0  0  0  0  0
   -0.9743    2.0075    0.0000 C   0  0  0  0  0  0  0  0  0  0  0  0
   -0.9743    3.5075    0.0000 O   0  0  0  0  0  0  0  0  0  0  0  0
   -2.2733    1.2575    0.0000 O   0  0  0  0  0  0  0  0  0  0  0  0
  3  2  2  0
  4  2  1  0
  5  3  1  0
  6  4  2  0
  7  5  2  0
  7  6  1  0
  8  7  1  0
  9  8  2  0
 10  1  1  0
 10  8  1  0
M  END
>  <NAME>  (7469) 
METHYL BENZOATE

>  <SYNONYMS>  (7469) 
BENZOIC ACID METHYL ESTER

>  <SPECTRUM TYPE>  (7469) 
MS1

>  <INSTRUMENT TYPE>  (7469) 
EI-B

>  <INSTRUMENT>  (7469) 
HITACHI RMU-7M

>  <ION MODE>  (7469) 
P

>  <INCHIKEY>  (7469) 
QPJVMBTYPHYUOC-UHFFFAOYSA-N

>  <FORMULA>  (7469) 
C8H8O2

>  <EXACT MASS>  (7469) 
136.052429496

>  <MW>  (7469) 
136

>  <ID>  (7469) 
JP000036

>  <CONTRIBUTOR>  (7469) 
University of Tokyo Team, {Faculty of Engineering, University of Tokyo

>  <COMMENT>  (7469) 
SMILES=COC(=O)c(c1)cccc1
InChI=InChI=1S/C8H8O2/c1-10-8(9)7-5-3-2-4-6-7/h2-6H,1H3
computed SMILES=O=C(OC)C=1C=CC=CC1
accession=JP000036
date=2016.01.19 (Created 2008.10.21, modified 2011.05.06)
author=TAJIMA S, GUNMA COLLEGE OF TECHNOLOGY
license=CC BY-NC-SA
exact mass=136.05243
ionization energy=70 eV
ion type=[M]+*
computed spectral entropy=1.4736788316703715
computed normalized entropy=0.6400105846920734
SPLASH=splash10-0a4i-3900000000-c8e85f0df98caa46623c
submitter=submitter = University of Tokyo Team (Faculty of Engineering, University of Tokyo)
MoNA Rating=3.75

>  <NUM PEAKS>  (7469) 
10

>  <MASS SPECTRAL PEAKS>  (7469) 
50 2.36
51 7.09
76 1.7
77 48.18
78 3.16
105 99.99
106 8.03
135 1.94
136 31.22
137 2.69

$$$$

     RDKit          2D

  8  8  0  0  0  0  0  0  0  0999 V2000
    1.9489    1.5002    0.0000 C   0  0  0  0  0  0  0  0  0  0  0  0
   -1.9500    0.7500    0.0000 C   0  0  0  0  0  0  0  0  0  0  0  0
   -1.9500   -0.7500    0.0000 C   0  0  0  0  0  0  0  0  0  0  0  0
   -0.6500    1.5000    0.0000 C   0  0  0  0  0  0  0  0  0  0  0  0
   -0.6500   -1.5000    0.0000 C   0  0  0  0  0  0  0  0  0  0  0  0
    0.6500    0.7500    0.0000 C   0  0  0  0  0  0  0  0  0  0  0  0
    0.6500   -0.7500    0.0000 C   0  0  0  0  0  0  0  0  0  0  0  0
    1.9489   -1.5002    0.0000 O   0  0  0  0  0  0  0  0  0  0  0  0
  3  2  1  0
  4  2  1  0
  5  3  1  0
  6  1  1  0
  6  4  1  0
  7  5  1  0
  7  6  1  0
  8  7  1  0
M  END
>  <NAME>  (7470) 
2-METHYLCYCLOHEXANOL

>  <SYNONYMS>  (7470) 


>  <SPECTRUM TYPE>  (7470) 
MS1

>  <INSTRUMENT TYPE>  (7470) 
EI-B

>  <INSTRUMENT>  (7470) 
VARIAN MAT-44

>  <ION MODE>  (7470) 
P

>  <INCHIKEY>  (7470) 
NDVWOBYBJYUSMF-UHFFFAOYSA-N

>  <FORMULA>  (7470) 
C7H14O

>  <EXACT MASS>  (7470) 
114.104465068

>  <MW>  (7470) 
114

>  <ID>  (7470) 
JP000035

>  <CONTRIBUTOR>  (7470) 
University of Tokyo Team, {Faculty of Engineering, University of Tokyo

>  <COMMENT>  (7470) 
SMILES=CC(C1)C(O)CCC1
InChI=InChI=1S/C7H14O/c1-6-4-2-3-5-7(6)8/h6-8H,2-5H2,1H3
computed SMILES=OC1CCCCC1C
accession=JP000035
date=2016.01.19 (Created 2008.10.21, modified 2011.05.06)
author=KOGA M, UNIV. OF OCCUPATIONAL AND ENVIRONMENTAL HEALTH
license=CC BY-NC-SA
exact mass=114.10447
ionization energy=70 eV
ion type=[M]+*
computed spectral entropy=3.120320447580244
computed normalized entropy=0.8348304602195794
SPLASH=splash10-0aor-9000000000-07d94413146b493a05cf
submitter=submitter = University of Tokyo Team (Faculty of Engineering, University of Tokyo)
MoNA Rating=3.75

>  <NUM PEAKS>  (7470) 
42

>  <MASS SPECTRAL PEAKS>  (7470) 
51 3.99
53 10.5
54 22.05
55 56.72
56 20.37
57 99.99
58 20.16
59 2.31
60 3.78
61 2.52
65 4.41
66 6.3
67 43.06
68 63.65
69 15.33
70 19.95
71 44.32
72 9.87
73 3.57
74 2.73
75 3.15
77 3.99
79 9.87
80 6.3
81 88.02
82 19.74
83 7.77
84 5.67
85 9.03
86 8.61
88 2.1
91 3.15
95 10.5
96 65.54
97 11.76
98 7.56
99 5.46
110 2.1
111 7.56
112 5.25
113 3.78
114 9.03

$$$$

     RDKit          2D

  8  8  0  0  0  0  0  0  0  0999 V2000
    1.9489    1.5002    0.0000 C   0  0  0  0  0  0  0  0  0  0  0  0
   -1.9500    0.7500    0.0000 C   0  0  0  0  0  0  0  0  0  0  0  0
   -1.9500   -0.7500    0.0000 C   0  0  0  0  0  0  0  0  0  0  0  0
   -0.6500    1.5000    0.0000 C   0  0  0  0  0  0  0  0  0  0  0  0
   -0.6500   -1.5000    0.0000 C   0  0  0  0  0  0  0  0  0  0  0  0
    0.6500    0.7500    0.0000 C   0  0  0  0  0  0  0  0  0  0  0  0
    0.6500   -0.7500    0.0000 C   0  0  0  0  0  0  0  0  0  0  0  0
    1.9489   -1.5002    0.0000 O   0  0  0  0  0  0  0  0  0  0  0  0
  3  2  1  0
  4  2  1  0
  5  3  1  0
  6  1  1  0
  6  4  1  0
  7  5  1  0
  7  6  1  0
  8  7  2  0
M  END
>  <NAME>  (7471) 
2-METHYLCYCLOHEXANONE

>  <SYNONYMS>  (7471) 


>  <SPECTRUM TYPE>  (7471) 
MS1

>  <INSTRUMENT TYPE>  (7471) 
EI-B

>  <INSTRUMENT>  (7471) 
VARIAN MAT-44

>  <ION MODE>  (7471) 
P

>  <INCHIKEY>  (7471) 
LFSAPCRASZRSKS-UHFFFAOYSA-N

>  <FORMULA>  (7471) 
C7H12O

>  <EXACT MASS>  (7471) 
112.088815004

>  <MW>  (7471) 
112

>  <ID>  (7471) 
JP000034

>  <CONTRIBUTOR>  (7471) 
University of Tokyo Team, {Faculty of Engineering, University of Tokyo

>  <COMMENT>  (7471) 
SMILES=CC(C1)C(=O)CCC1
InChI=InChI=1S/C7H12O/c1-6-4-2-3-5-7(6)8/h6H,2-5H2,1H3
computed SMILES=O=C1CCCCC1C
accession=JP000034
date=2016.01.19 (Created 2008.10.21, modified 2011.05.06)
author=KOGA M, UNIV. OF OCCUPATIONAL AND ENVIRONMENTAL HEALTH
license=CC BY-NC-SA
exact mass=112.08882
ionization energy=70 eV
ion type=[M]+*
computed spectral entropy=2.9457816189820325
computed normalized entropy=0.8578312741336176
SPLASH=splash10-066r-9000000000-104dcb17b6045eaae29f
submitter=submitter = University of Tokyo Team (Faculty of Engineering, University of Tokyo)
MoNA Rating=3.75

>  <NUM PEAKS>  (7471) 
31

>  <MASS SPECTRAL PEAKS>  (7471) 
51 2.77
53 7.58
54 13.11
55 68.06
56 48.78
57 44.49
58 12.94
66 2.78
67 27.75
68 99.99
69 46.41
70 17.37
71 23.47
72 4.1
79 5.83
80 2.7
81 29.96
82 11.97
83 15.41
84 24.86
85 5.68
86 3.4
94 3.97
95 4.6
96 23.02
97 10.97
98 3.88
110 3.71
111 6.21
112 31.33
113 4.05

$$$$

     RDKit          2D

  7  7  0  0  0  0  0  0  0  0999 V2000
   -1.6700   -0.9600    0.0000 C   0  0  0  0  0  0  0  0  0  0  0  0
   -1.6700    0.5400    0.0000 C   0  0  0  0  0  0  0  0  0  0  0  0
   -0.3700   -1.7100    0.0000 C   0  0  0  0  0  0  0  0  0  0  0  0
   -0.3700    1.2900    0.0000 C   0  0  0  0  0  0  0  0  0  0  0  0
    0.9300   -0.9600    0.0000 C   0  0  0  0  0  0  0  0  0  0  0  0
    0.9300    0.5400    0.0000 C   0  0  0  0  0  0  0  0  0  0  0  0
    2.2289    1.2902    0.0000 O   0  0  0  0  0  0  0  0  0  0  0  0
  2  1  1  0
  3  1  1  0
  4  2  1  0
  5  3  1  0
  6  4  1  0
  6  5  1  0
  7  6  1  0
M  END
>  <NAME>  (7472) 
CYCLOHEXANOL

>  <SYNONYMS>  (7472) 


>  <SPECTRUM TYPE>  (7472) 
MS1

>  <INSTRUMENT TYPE>  (7472) 
EI-B

>  <INSTRUMENT>  (7472) 
VARIAN MAT-44

>  <ION MODE>  (7472) 
P

>  <INCHIKEY>  (7472) 
HPXRVTGHNJAIIH-UHFFFAOYSA-N

>  <FORMULA>  (7472) 
C6H12O

>  <EXACT MASS>  (7472) 
100.088815004

>  <MW>  (7472) 
100

>  <ID>  (7472) 
JP000033

>  <CONTRIBUTOR>  (7472) 
University of Tokyo Team, {Faculty of Engineering, University of Tokyo

>  <COMMENT>  (7472) 
SMILES=OC(C1)CCCC1
InChI=InChI=1S/C6H12O/c7-6-4-2-1-3-5-6/h6-7H,1-5H2
computed SMILES=OC1CCCCC1
accession=JP000033
date=2016.01.19 (Created 2008.10.21, modified 2011.05.06)
author=KOGA M, UNIV. OF OCCUPATIONAL AND ENVIRONMENTAL HEALTH
license=CC BY-NC-SA
exact mass=100.08882
ionization energy=70 eV
ion type=[M]+*
computed spectral entropy=2.3321431395644487
computed normalized entropy=0.792050083586609
SPLASH=splash10-0a4i-9000000000-366e255469d84fceed6e
submitter=submitter = University of Tokyo Team (Faculty of Engineering, University of Tokyo)
MoNA Rating=3.75

>  <NUM PEAKS>  (7472) 
19

>  <MASS SPECTRAL PEAKS>  (7472) 
51 2.87
53 6.48
54 13.43
55 14.86
56 25.56
57 99.99
58 8.86
66 7.51
67 26.77
68 2.24
69 2.7
70 4.12
71 13.56
72 6.79
81 21
82 37.34
83 4.48
99 2.11
100 2.07

$$$$

     RDKit          2D

  7  7  0  0  0  0  0  0  0  0999 V2000
   -1.6700   -0.9600    0.0000 C   0  0  0  0  0  0  0  0  0  0  0  0
   -1.6700    0.5400    0.0000 C   0  0  0  0  0  0  0  0  0  0  0  0
   -0.3700   -1.7100    0.0000 C   0  0  0  0  0  0  0  0  0  0  0  0
   -0.3700    1.2900    0.0000 C   0  0  0  0  0  0  0  0  0  0  0  0
    0.9300   -0.9600    0.0000 C   0  0  0  0  0  0  0  0  0  0  0  0
    0.9300    0.5400    0.0000 C   0  0  0  0  0  0  0  0  0  0  0  0
    2.2289    1.2902    0.0000 O   0  0  0  0  0  0  0  0  0  0  0  0
  2  1  1  0
  3  1  1  0
  4  2  1  0
  5  3  1  0
  6  4  1  0
  6  5  1  0
  7  6  2  0
M  END
>  <NAME>  (7473) 
CYCLOHEXANONE

>  <SYNONYMS>  (7473) 


>  <SPECTRUM TYPE>  (7473) 
MS1

>  <INSTRUMENT TYPE>  (7473) 
EI-B

>  <INSTRUMENT>  (7473) 
VARIAN MAT-44

>  <ION MODE>  (7473) 
P

>  <INCHIKEY>  (7473) 
JHIVVAPYMSGYDF-UHFFFAOYSA-N

>  <FORMULA>  (7473) 
C6H10O

>  <EXACT MASS>  (7473) 
98.07316494

>  <MW>  (7473) 
98

>  <ID>  (7473) 
JP000032

>  <CONTRIBUTOR>  (7473) 
University of Tokyo Team, {Faculty of Engineering, University of Tokyo

>  <COMMENT>  (7473) 
SMILES=O=C(C1)CCCC1
InChI=InChI=1S/C6H10O/c7-6-4-2-1-3-5-6/h1-5H2
computed SMILES=O=C1CCCCC1
accession=JP000032
date=2016.01.19 (Created 2008.10.21, modified 2011.05.06)
author=KOGA M, UNIV. OF OCCUPATIONAL AND ENVIRONMENTAL HEALTH
license=CC BY-NC-SA
exact mass=98.07316
ionization energy=70 eV
ion type=[M]+*
computed spectral entropy=2.7227206589600472
computed normalized entropy=0.8085778014255979
SPLASH=splash10-052b-9000000000-7f647b6a300fe214ba1c
submitter=submitter = University of Tokyo Team (Faculty of Engineering, University of Tokyo)
MoNA Rating=3.75

>  <NUM PEAKS>  (7473) 
29

>  <MASS SPECTRAL PEAKS>  (7473) 
53 5.72
54 9.42
55 99.99
56 16.59
57 11.33
58 2.84
60 12.62
67 7.39
68 6.46
69 33.6
70 36.18
71 8.92
73 8.73
74 2.38
75 2.16
77 2.38
79 7.09
80 8.65
81 17.99
82 6.1
83 22.07
84 3.99
85 2.27
87 2.62
96 3.8
97 31.88
98 99.75
99 28.26
100 3.39

$$$$

     RDKit          2D

  8  8  0  0  0  0  0  0  0  0999 V2000
   -1.3000    0.7500    0.0000 C   0  0  0  0  0  0  0  0  0  0  0  0
    0.0000    1.5000    0.0000 C   0  0  0  0  0  0  0  0  0  0  0  0
   -0.0000   -1.5000    0.0000 C   0  0  0  0  0  0  0  0  0  0  0  0
    1.3000   -0.7500    0.0000 C   0  0  0  0  0  0  0  0  0  0  0  0
   -1.3000   -0.7500    0.0000 C   0  0  0  0  0  0  0  0  0  0  0  0
    1.3000    0.7500    0.0000 C   0  0  0  0  0  0  0  0  0  0  0  0
   -2.5989   -1.5002    0.0000 Cl  0  0  0  0  0  0  0  0  0  0  0  0
    2.5989    1.5002    0.0000 Cl  0  0  0  0  0  0  0  0  0  0  0  0
  2  1  2  0
  4  3  1  0
  5  1  1  0
  5  3  2  0
  6  2  1  0
  6  4  2  0
  7  5  1  0
  8  6  1  0
M  END
>  <NAME>  (7474) 
1,4-DICHLOROBENZENE

>  <SYNONYMS>  (7474) 


>  <SPECTRUM TYPE>  (7474) 
MS1

>  <INSTRUMENT TYPE>  (7474) 
EI-B

>  <INSTRUMENT>  (7474) 
VARIAN MAT-44

>  <ION MODE>  (7474) 
P

>  <INCHIKEY>  (7474) 
OCJBOOLMMGQPQU-UHFFFAOYSA-N

>  <FORMULA>  (7474) 
C6H4Cl2

>  <EXACT MASS>  (7474) 
145.969005488

>  <MW>  (7474) 
146

>  <ID>  (7474) 
JP000031

>  <CONTRIBUTOR>  (7474) 
University of Tokyo Team, {Faculty of Engineering, University of Tokyo

>  <COMMENT>  (7474) 
SMILES=Clc(c1)ccc(Cl)c1
InChI=InChI=1S/C6H4Cl2/c7-5-1-2-6(8)4-3-5/h1-4H
computed SMILES=ClC1=CC=C(Cl)C=C1
accession=JP000031
date=2016.01.19 (Created 2008.10.21, modified 2011.05.06)
author=KOGA M, UNIV. OF OCCUPATIONAL AND ENVIRONMENTAL HEALTH
license=CC BY-NC-SA
exact mass=145.96901
ionization energy=70 eV
ion type=[M]+*
computed spectral entropy=2.601602201308117
computed normalized entropy=0.8082331667499605
SPLASH=splash10-0002-4900000000-73f255545f9196d189ad
submitter=submitter = University of Tokyo Team (Faculty of Engineering, University of Tokyo)
MoNA Rating=3.75

>  <NUM PEAKS>  (7474) 
25

>  <MASS SPECTRAL PEAKS>  (7474) 
51 8.54
55 7.69
56 2.43
60 2.68
61 3.84
62 2.32
72 4.24
73 17.95
74 29.22
75 30.02
76 4.14
84 4.3
85 4.51
86 2.17
109 2.6
110 11.97
111 38.91
112 5.85
113 11.91
145 15.07
146 99.99
147 13.98
148 57.05
149 5.35
150 9.16

$$$$

     RDKit          2D

  8  8  0  0  0  0  0  0  0  0999 V2000
   -1.3000    0.7500    0.0000 C   0  0  0  0  0  0  0  0  0  0  0  0
    0.0000    1.5000    0.0000 C   0  0  0  0  0  0  0  0  0  0  0  0
   -1.3000   -0.7500    0.0000 C   0  0  0  0  0  0  0  0  0  0  0  0
    1.3000   -0.7500    0.0000 C   0  0  0  0  0  0  0  0  0  0  0  0
    1.3000    0.7500    0.0000 C   0  0  0  0  0  0  0  0  0  0  0  0
   -0.0000   -1.5000    0.0000 C   0  0  0  0  0  0  0  0  0  0  0  0
    2.5989    1.5002    0.0000 Cl  0  0  0  0  0  0  0  0  0  0  0  0
   -0.0000   -3.0000    0.0000 Cl  0  0  0  0  0  0  0  0  0  0  0  0
  2  1  2  0
  3  1  1  0
  5  2  1  0
  5  4  2  0
  6  3  2  0
  6  4  1  0
  7  5  1  0
  8  6  1  0
M  END
>  <NAME>  (7475) 
1,3-DICHLOROBENZENE

>  <SYNONYMS>  (7475) 


>  <SPECTRUM TYPE>  (7475) 
MS1

>  <INSTRUMENT TYPE>  (7475) 
EI-B

>  <INSTRUMENT>  (7475) 
VARIAN MAT-44

>  <ION MODE>  (7475) 
P

>  <INCHIKEY>  (7475) 
ZPQOPVIELGIULI-UHFFFAOYSA-N

>  <FORMULA>  (7475) 
C6H4Cl2

>  <EXACT MASS>  (7475) 
145.969005488

>  <MW>  (7475) 
146

>  <ID>  (7475) 
JP000030

>  <CONTRIBUTOR>  (7475) 
University of Tokyo Team, {Faculty of Engineering, University of Tokyo

>  <COMMENT>  (7475) 
SMILES=Clc(c1)cc(Cl)cc1
InChI=InChI=1S/C6H4Cl2/c7-5-2-1-3-6(8)4-5/h1-4H
computed SMILES=ClC1=CC=CC(Cl)=C1
accession=JP000030
date=2016.01.19 (Created 2008.10.21, modified 2011.05.06)
author=KOGA M, UNIV. OF OCCUPATIONAL AND ENVIRONMENTAL HEALTH
license=CC BY-NC-SA
exact mass=145.96901
ionization energy=70 eV
ion type=[M]+*
computed spectral entropy=2.8216166408780388
computed normalized entropy=0.8295950879213964
SPLASH=splash10-0002-7900000000-e1d7f62522ad8abfbc9e
submitter=submitter = University of Tokyo Team (Faculty of Engineering, University of Tokyo)
MoNA Rating=3.75

>  <NUM PEAKS>  (7475) 
30

>  <MASS SPECTRAL PEAKS>  (7475) 
51 16.59
55 9.5
56 3.08
60 7.05
61 8.62
62 6.59
63 5.49
71 2.07
72 9.4
73 30.42
74 50.64
75 54.48
76 8.6
83 2.29
84 8.65
85 7.36
86 3.88
87 2.37
108 2.18
109 4.57
110 24.33
111 32.05
112 12.57
113 7.06
145 5.43
146 99.99
147 13.7
148 68.78
149 6.09
150 11.37

$$$$

     RDKit          2D

 30 33  0  0  1  0  0  0  0  0999 V2000
    9.5655    7.2342    0.0000 C   0  0  0  0  0  0  0  0  0  0  0  0
   10.0746    4.6865    0.0000 C   0  0  0  0  0  0  0  0  0  0  0  0
    8.1228    2.9718    0.0000 C   0  0  0  0  0  0  0  0  0  0  0  0
    3.2009    4.6377    0.0000 C   0  0  0  0  0  0  0  0  0  0  0  0
   -1.6125    0.9400    0.0000 C   0  0  0  0  0  0  0  0  0  0  0  0
    2.4507    3.1203    0.0000 C   0  0  0  0  0  0  0  0  0  0  0  0
    8.0946    6.9403    0.0000 C   0  0  0  0  0  0  0  0  0  0  0  0
    5.6618    3.8047    0.0000 C   0  0  0  0  0  0  0  0  0  0  0  0
    6.1427    5.2256    0.0000 C   0  0  0  0  0  0  0  0  0  0  0  0
   -0.3200   -2.8400    0.0000 C   0  0  0  0  0  0  0  0  0  0  0  0
    1.0100   -2.0900    0.0000 C   0  0  0  0  0  0  0  0  0  0  0  0
    4.5500    0.8800    0.0000 C   0  0  0  0  0  0  0  0  0  0  0  0
    3.7100   -0.3100    0.0000 C   0  0  0  0  0  0  0  0  0  0  0  0
   -4.2000   -0.5600    0.0000 C   0  0  0  0  0  0  0  0  0  0  0  0
   -0.3200    1.6300    0.0000 C   0  0  0  0  0  0  0  0  0  0  0  0
   -2.8900    0.1600    0.0000 C   0  0  0  0  0  0  0  0  0  0  0  0
    1.0100    2.3900    0.0000 C   0  0  0  0  0  0  0  0  0  0  0  0
   -2.8900   -2.8400    0.0000 C   0  0  0  0  0  0  0  0  0  0  0  0
    8.6037    4.3926    0.0000 C   0  0  0  0  0  0  0  0  0  0  0  0
    4.1909    3.5108    0.0000 C   0  0  0  0  0  0  0  0  0  0  0  0
    7.6137    5.5195    0.0000 C   0  0  0  0  0  0  0  0  0  0  0  0
   -1.6200   -2.0900    0.0000 C   0  0  0  0  0  0  0  0  0  0  0  0
   -4.2000   -2.0900    0.0000 C   0  0  0  0  0  0  0  0  0  0  0  0
    1.0100   -0.5600    0.0000 C   0  0  0  0  0  0  0  0  0  0  0  0
    3.7100    2.0900    0.0000 C   0  0  0  0  0  0  0  0  0  0  0  0
    2.2800    0.1600    0.0000 C   0  0  0  0  0  0  0  0  0  0  0  0
   -0.3200    0.1600    0.0000 C   0  0  0  0  0  0  0  0  0  0  0  0
   -1.6200   -0.5600    0.0000 C   0  0  0  0  0  0  0  0  0  0  0  0
    2.2800    1.6300    0.0000 C   0  0  0  0  0  0  0  0  0  0  0  0
   -5.4977   -2.8424    0.0000 O   0  0  0  0  0  0  0  0  0  0  0  0
  7  1  1  0
  9  8  1  0
 11 10  1  0
 13 12  1  0
 16 14  1  0
 17 15  1  0
 19  2  1  0
 19  3  1  0
 20  4  1  6
 20  8  1  0
 21  7  1  1
 21  9  1  0
 21 19  1  0
 22 10  2  0
 22 18  1  0
 23 14  1  0
 23 18  1  0
 24 11  1  6
 25 12  1  1
 25 20  1  0
 26 13  1  1
 26 24  1  0
 27 15  1  1
 27 24  1  0
 28  5  1  1
 28 16  1  0
 28 22  1  0
 28 27  1  0
 29  6  1  1
 29 17  1  0
 29 25  1  0
 29 26  1  0
 23 30  1  1
M  END
>  <NAME>  (7476) 
STIGMAST-5-ENE-3BETA-OL

>  <SYNONYMS>  (7476) 
BETA-SITOSTEROL

>  <SPECTRUM TYPE>  (7476) 
MS1

>  <INSTRUMENT TYPE>  (7476) 
EI-B

>  <INSTRUMENT>  (7476) 
VARIAN MAT-44

>  <ION MODE>  (7476) 
P

>  <INCHIKEY>  (7476) 
KZJWDPNRJALLNS-VJSFXXLFSA-N

>  <FORMULA>  (7476) 
C29H50O

>  <EXACT MASS>  (7476) 
414.38616622

>  <MW>  (7476) 
414

>  <ID>  (7476) 
JP000028

>  <CONTRIBUTOR>  (7476) 
University of Tokyo Team, {Faculty of Engineering, University of Tokyo

>  <COMMENT>  (7476) 
SMILES=C(C1=4)C(O)CCC(C)1C(C(CC4)3[H])(CCC(C)(C32[H])C(CC2)C(C)CCC(C(C)C)CC)[H]
InChI=InChI=1S/C29H50O/c1-7-21(19(2)3)9-8-20(4)25-12-13-26-24-11-10-22-18-23(30)14-16-28(22,5)27(24)15-17-29(25,26)6/h10,19-21,23-27,30H,7-9,11-18H2,1-6H3/t20-,21-,23+,24+,25-,26+,27+,28+,29-/m1/s1
computed SMILES=OC1CC2=CCC3C(CCC4(C)C(CCC34)C(C)CCC(CC)C(C)C)C2(C)CC1
accession=JP000028
date=2016.01.19 (Created 2008.10.21, modified 2011.05.06)
author=KOGA M, UNIV. OF OCCUPATIONAL AND ENVIRONMENTAL HEALTH
license=CC BY-NC-SA
exact mass=414.38617
ionization energy=70 eV
ion type=[M]+*
computed spectral entropy=4.409302180340939
computed normalized entropy=0.9242493535893284
SPLASH=splash10-0aor-9810000000-ab4d6cb3490b23c5cb70
submitter=submitter = University of Tokyo Team (Faculty of Engineering, University of Tokyo)
MoNA Rating=3.75

>  <NUM PEAKS>  (7476) 
118

>  <MASS SPECTRAL PEAKS>  (7476) 
53 6.81
54 7.15
55 99.99
56 18.48
57 93.95
58 5.62
60 10.39
65 4.42
66 5.53
67 48.63
68 22.14
69 92.67
70 17.88
71 47.61
72 4.08
73 10.39
77 10.22
78 5.45
79 36.03
80 17.03
81 77.17
82 26.06
83 41.48
84 16.95
85 31
91 32.96
92 11.92
93 41.31
94 22.65
95 62.18
96 21.97
97 36.45
98 13.54
99 9.62
104 6.21
105 40.03
106 17.63
107 53.49
108 29.38
109 36.96
110 14.73
111 21.97
112 4.94
113 4.51
115 5.02
117 10.05
118 9.71
119 27.08
120 22.48
121 33.9
122 19.5
123 25.55
124 16.18
125 12.77
127 5.19
128 7.15
129 10.56
130 6.04
131 15.67
132 8.43
133 24.36
134 15.84
135 27.42
136 16.6
137 15.92
138 8.51
139 5.11
143 10.73
144 8.94
145 23.42
146 10.73
147 22.31
148 13.2
149 22.48
150 5.62
151 8
152 5.19
157 9.02
158 9.79
159 19.67
160 15.92
161 22.4
162 8.43
163 19.84
164 5.79
165 13.37
166 6.89
171 8.26
173 11.49
174 4.85
175 7.32
177 7.58
178 13.28
179 4.34
185 8
187 6.89
189 5.19
191 7.06
199 7.41
201 6.21
205 4.08
213 16.26
214 4.85
215 21.55
216 9.45
217 6.98
229 4.77
231 10.22
232 4.17
233 19.93
234 15.41
255 10.3
273 7.41
303 6.04
329 7.15
396 2.72
414 8.43
415 2.69

$$$$

     RDKit          2D

 15 16  0  0  0  0  0  0  0  0999 V2000
   -2.6580   -1.6509    0.0000 C   0  0  0  0  0  0  0  0  0  0  0  0
    0.5235   -0.9751    0.0000 C   0  0  0  0  0  0  0  0  0  0  0  0
    3.4741    3.7742    0.0000 C   0  0  0  0  0  0  0  0  0  0  0  0
    3.4746    2.2734    0.0000 C   0  0  0  0  0  0  0  0  0  0  0  0
    2.1746    4.5250    0.0000 C   0  0  0  0  0  0  0  0  0  0  0  0
    2.1756    1.5234    0.0000 C   0  0  0  0  0  0  0  0  0  0  0  0
    0.8756    3.7750    0.0000 C   0  0  0  0  0  0  0  0  0  0  0  0
   -2.0485   -0.2803    0.0000 C   0  0  0  0  0  0  0  0  0  0  0  0
    0.8760    2.2742    0.0000 C   0  0  0  0  0  0  0  0  0  0  0  0
   -2.7985    1.0187    0.0000 C   0  0  0  0  0  0  0  0  0  0  0  0
   -1.7988    2.1271    0.0000 C   0  0  0  0  0  0  0  0  0  0  0  0
   -4.2902    1.1762    0.0000 N   0  0  0  0  0  0  0  0  0  0  0  0
   -0.5888    0.0313    0.0000 N   0  0  0  0  0  0  0  0  0  0  0  0
   -0.4230    1.5242    0.0000 N   0  0  0  0  0  0  0  0  0  0  0  0
   -2.1143    3.5935    0.0000 O   0  0  0  0  0  0  0  0  0  0  0  0
  4  3  2  0
  5  3  1  0
  6  4  1  0
  7  5  2  0
  8  1  1  0
  9  6  2  0
  9  7  1  0
 10  8  2  0
 11 10  1  0
 12 10  1  0
 13  2  1  0
 13  8  1  0
 14  9  1  0
 14 11  1  0
 14 13  1  0
 15 11  2  0
M  END
>  <NAME>  (7477) 
4-AMINO-2,3-DIMETHYL-1-PHENYL-3-PYRAZOLIN-5-ONE

>  <SYNONYMS>  (7477) 
AMPYRONE

>  <SPECTRUM TYPE>  (7477) 
MS1

>  <INSTRUMENT TYPE>  (7477) 
EI-B

>  <INSTRUMENT>  (7477) 
VARIAN MAT-44

>  <ION MODE>  (7477) 
P

>  <INCHIKEY>  (7477) 
RLFWWDJHLFCNIJ-UHFFFAOYSA-N

>  <FORMULA>  (7477) 
C11H13N3O

>  <EXACT MASS>  (7477) 
203.105862036

>  <MW>  (7477) 
203

>  <ID>  (7477) 
JP000027

>  <CONTRIBUTOR>  (7477) 
University of Tokyo Team, {Faculty of Engineering, University of Tokyo

>  <COMMENT>  (7477) 
SMILES=CC(=C(N)1)N(C)N(c(c2)cccc2)C(=O)1
InChI=InChI=1S/C11H13N3O/c1-8-10(12)11(15)14(13(8)2)9-6-4-3-5-7-9/h3-7H,12H2,1-2H3
computed SMILES=O=C1C(N)=C(N(N1C=2C=CC=CC2)C)C
accession=JP000027
date=2016.01.19 (Created 2008.10.21, modified 2011.05.06)
license=CC BY-NC-SA
author=KOGA M, UNIV. OF OCCUPATIONAL AND ENVIRONMENTAL HEALTH
exact mass=203.10586
ionization energy=70 eV
ion type=[M]+*
computed spectral entropy=2.113789968193877
computed normalized entropy=0.7460751138379277
SPLASH=splash10-0a59-9010000000-c61c552ee77f1cacef28
submitter=submitter = University of Tokyo Team (Faculty of Engineering, University of Tokyo)
MoNA Rating=3.75

>  <NUM PEAKS>  (7477) 
17

>  <MASS SPECTRAL PEAKS>  (7477) 
51 5.6
54 4.55
55 6.51
56 99.99
57 71.95
64 2.24
69 6.73
77 8.15
81 3.39
82 4.72
83 37.22
84 59.01
85 3.73
93 3.88
202 4.57
203 28.71
204 4.16

$$$$

     RDKit          2D

  8  8  0  0  0  0  0  0  0  0999 V2000
    0.6513   -2.2440    0.0000 C   0  0  0  0  0  0  0  0  0  0  0  0
    1.9458   -1.5018    0.0000 C   0  0  0  0  0  0  0  0  0  0  0  0
   -0.6478   -1.4940    0.0000 C   0  0  0  0  0  0  0  0  0  0  0  0
    1.9463   -0.0009    0.0000 C   0  0  0  0  0  0  0  0  0  0  0  0
   -0.6523   -0.0018    0.0000 C   0  0  0  0  0  0  0  0  0  0  0  0
    0.6472    0.7491    0.0000 C   0  0  0  0  0  0  0  0  0  0  0  0
   -1.9526    0.7460    0.0000 O   0  0  0  0  0  0  0  0  0  0  0  0
    0.6470    2.2491    0.0000 O   0  0  0  0  0  0  0  0  0  0  0  0
  2  1  2  0
  3  1  1  0
  4  2  1  0
  5  3  2  0
  6  4  2  0
  6  5  1  0
  7  5  1  0
  8  6  1  0
M  END
>  <NAME>  (7478) 
1,2-BENZENEDIOL

>  <SYNONYMS>  (7478) 
PYROCATECHOL

>  <SPECTRUM TYPE>  (7478) 
MS1

>  <INSTRUMENT TYPE>  (7478) 
EI-B

>  <INSTRUMENT>  (7478) 
VARIAN MAT-44

>  <ION MODE>  (7478) 
P

>  <INCHIKEY>  (7478) 
YCIMNLLNPGFGHC-UHFFFAOYSA-N

>  <FORMULA>  (7478) 
C6H6O2

>  <EXACT MASS>  (7478) 
110.036779432

>  <MW>  (7478) 
110

>  <ID>  (7478) 
JP000026

>  <CONTRIBUTOR>  (7478) 
University of Tokyo Team, {Faculty of Engineering, University of Tokyo

>  <COMMENT>  (7478) 
SMILES=Oc(c1)c(O)ccc1
InChI=InChI=1S/C6H6O2/c7-5-3-1-2-4-6(5)8/h1-4,7-8H
computed SMILES=OC=1C=CC=CC1O
accession=JP000026
date=2016.01.19 (Created 2008.10.21, modified 2011.05.06)
author=KOGA M, UNIV. OF OCCUPATIONAL AND ENVIRONMENTAL HEALTH
license=CC BY-NC-SA
exact mass=110.03678
ionization energy=70 eV
ion type=[M]+*
computed spectral entropy=2.088006264759629
computed normalized entropy=0.7710367643516299
SPLASH=splash10-03di-8900000000-4e15f35dca47661de590
submitter=submitter = University of Tokyo Team (Faculty of Engineering, University of Tokyo)
MoNA Rating=3.75

>  <NUM PEAKS>  (7478) 
15

>  <MASS SPECTRAL PEAKS>  (7478) 
51 3.71
52 2.63
53 8.72
54 6.29
55 8.49
62 2.46
63 16.73
64 33.95
65 2.81
81 12.19
82 11.66
92 10.72
109 19.87
110 99.99
111 6.94

$$$$

     RDKit          2D

  8  8  0  0  0  0  0  0  0  0999 V2000
   -1.9467    1.4939    0.0000 C   0  0  0  0  0  0  0  0  0  0  0  0
   -0.6477    2.2439    0.0000 C   0  0  0  0  0  0  0  0  0  0  0  0
   -1.9512    0.0017    0.0000 C   0  0  0  0  0  0  0  0  0  0  0  0
    0.6473    0.0009    0.0000 C   0  0  0  0  0  0  0  0  0  0  0  0
    0.6468    1.5017    0.0000 C   0  0  0  0  0  0  0  0  0  0  0  0
   -0.6517   -0.7491    0.0000 C   0  0  0  0  0  0  0  0  0  0  0  0
    1.9446    2.2539    0.0000 O   0  0  0  0  0  0  0  0  0  0  0  0
   -0.6520   -2.2491    0.0000 O   0  0  0  0  0  0  0  0  0  0  0  0
  2  1  2  0
  3  1  1  0
  5  2  1  0
  5  4  2  0
  6  3  2  0
  6  4  1  0
  7  5  1  0
  8  6  1  0
M  END
>  <NAME>  (7479) 
1,3-BENZENEDIOL

>  <SYNONYMS>  (7479) 
RESORCINOL

>  <SPECTRUM TYPE>  (7479) 
MS1

>  <INSTRUMENT TYPE>  (7479) 
EI-B

>  <INSTRUMENT>  (7479) 
VARIAN MAT-44

>  <ION MODE>  (7479) 
P

>  <INCHIKEY>  (7479) 
GHMLBKRAJCXXBS-UHFFFAOYSA-N

>  <FORMULA>  (7479) 
C6H6O2

>  <EXACT MASS>  (7479) 
110.036779432

>  <MW>  (7479) 
110

>  <ID>  (7479) 
JP000025

>  <CONTRIBUTOR>  (7479) 
University of Tokyo Team, {Faculty of Engineering, University of Tokyo

>  <COMMENT>  (7479) 
SMILES=Oc(c1)cc(O)cc1
InChI=InChI=1S/C6H6O2/c7-5-2-1-3-6(8)4-5/h1-4,7-8H
computed SMILES=OC1=CC=CC(O)=C1
accession=JP000025
date=2016.01.19 (Created 2008.10.21, modified 2011.05.06)
author=KOGA M, UNIV. OF OCCUPATIONAL AND ENVIRONMENTAL HEALTH
license=CC BY-NC-SA
exact mass=110.03678
ionization energy=70 eV
ion type=[M]+*
computed spectral entropy=2.561932936545376
computed normalized entropy=0.7959092167372677
SPLASH=splash10-08gi-9600000000-0e7d24e90c380c2fbaf5
submitter=submitter = University of Tokyo Team (Faculty of Engineering, University of Tokyo)
MoNA Rating=3.75

>  <NUM PEAKS>  (7479) 
25

>  <MASS SPECTRAL PEAKS>  (7479) 
51 6.22
52 3.79
53 23.62
54 13.16
55 17.43
57 2.5
61 2.36
62 4.49
63 9.12
64 8.22
65 3.64
66 2.02
67 2.17
68 7.39
69 21.54
70 2.26
71 3.95
80 3.88
81 31.06
82 34.69
83 3.04
95 3.23
109 43.04
110 99.99
111 8.28

$$$$

     RDKit          2D

  8  8  0  0  0  0  0  0  0  0999 V2000
   -1.3000    0.7500    0.0000 C   0  0  0  0  0  0  0  0  0  0  0  0
   -0.0000   -1.5000    0.0000 C   0  0  0  0  0  0  0  0  0  0  0  0
    0.0000    1.5000    0.0000 C   0  0  0  0  0  0  0  0  0  0  0  0
    1.3000   -0.7500    0.0000 C   0  0  0  0  0  0  0  0  0  0  0  0
   -1.3000   -0.7500    0.0000 C   0  0  0  0  0  0  0  0  0  0  0  0
    1.3000    0.7500    0.0000 C   0  0  0  0  0  0  0  0  0  0  0  0
   -2.5989   -1.5002    0.0000 Cl  0  0  0  0  0  0  0  0  0  0  0  0
    2.5989    1.5002    0.0000 O   0  0  0  0  0  0  0  0  0  0  0  0
  3  1  2  0
  4  2  1  0
  5  1  1  0
  5  2  2  0
  6  3  1  0
  6  4  2  0
  7  5  1  0
  8  6  1  0
M  END
>  <NAME>  (7480) 
4-CHLOROPHENOL

>  <SYNONYMS>  (7480) 


>  <SPECTRUM TYPE>  (7480) 
MS1

>  <INSTRUMENT TYPE>  (7480) 
EI-B

>  <INSTRUMENT>  (7480) 
VARIAN MAT-44

>  <ION MODE>  (7480) 
P

>  <INCHIKEY>  (7480) 
WXNZTHHGJRFXKQ-UHFFFAOYSA-N

>  <FORMULA>  (7480) 
C6H5ClO

>  <EXACT MASS>  (7480) 
128.00289246

>  <MW>  (7480) 
128

>  <ID>  (7480) 
JP000024

>  <CONTRIBUTOR>  (7480) 
University of Tokyo Team, {Faculty of Engineering, University of Tokyo

>  <COMMENT>  (7480) 
SMILES=Oc(c1)ccc(Cl)c1
InChI=InChI=1S/C6H5ClO/c7-5-1-3-6(8)4-2-5/h1-4,8H
computed SMILES=ClC1=CC=C(O)C=C1
accession=JP000024
date=2016.01.19 (Created 2008.10.21, modified 2011.05.06)
author=KOGA M, UNIV. OF OCCUPATIONAL AND ENVIRONMENTAL HEALTH
license=CC BY-NC-SA
exact mass=128.00289
ionization energy=70 eV
ion type=[M]+*
computed spectral entropy=2.6117390961575744
computed normalized entropy=0.8113823701989231
SPLASH=splash10-004i-8900000000-f5b8d40439248259fba6
submitter=submitter = University of Tokyo Team (Faculty of Engineering, University of Tokyo)
MoNA Rating=3.75

>  <NUM PEAKS>  (7480) 
25

>  <MASS SPECTRAL PEAKS>  (7480) 
51 3.61
53 6.82
60 2.09
61 6.99
62 10.51
63 21.62
64 27.51
65 55.63
66 4.33
72 3.05
73 9.37
74 4.83
75 5.09
92 4.67
93 4.23
98 2.35
99 11.16
100 17.11
101 4.28
102 5.62
127 32.15
128 99.99
129 14.26
130 30.67
131 2.18

$$$$

     RDKit          2D

  8  8  0  0  0  0  0  0  0  0999 V2000
   -1.3000    0.7500    0.0000 C   0  0  0  0  0  0  0  0  0  0  0  0
    0.0000    1.5000    0.0000 C   0  0  0  0  0  0  0  0  0  0  0  0
   -1.3000   -0.7500    0.0000 C   0  0  0  0  0  0  0  0  0  0  0  0
    1.3000   -0.7500    0.0000 C   0  0  0  0  0  0  0  0  0  0  0  0
    1.3000    0.7500    0.0000 C   0  0  0  0  0  0  0  0  0  0  0  0
   -0.0000   -1.5000    0.0000 C   0  0  0  0  0  0  0  0  0  0  0  0
    2.5989    1.5002    0.0000 Cl  0  0  0  0  0  0  0  0  0  0  0  0
   -0.0000   -3.0000    0.0000 O   0  0  0  0  0  0  0  0  0  0  0  0
  2  1  2  0
  3  1  1  0
  5  2  1  0
  5  4  2  0
  6  3  2  0
  6  4  1  0
  7  5  1  0
  8  6  1  0
M  END
>  <NAME>  (7481) 
3-CHLOROPHENOL

>  <SYNONYMS>  (7481) 


>  <SPECTRUM TYPE>  (7481) 
MS1

>  <INSTRUMENT TYPE>  (7481) 
EI-B

>  <INSTRUMENT>  (7481) 
VARIAN MAT-44

>  <ION MODE>  (7481) 
P

>  <INCHIKEY>  (7481) 
HORNXRXVQWOLPJ-UHFFFAOYSA-N

>  <FORMULA>  (7481) 
C6H5ClO

>  <EXACT MASS>  (7481) 
128.00289246

>  <MW>  (7481) 
128

>  <ID>  (7481) 
JP000023

>  <CONTRIBUTOR>  (7481) 
University of Tokyo Team, {Faculty of Engineering, University of Tokyo

>  <COMMENT>  (7481) 
SMILES=Oc(c1)cc(Cl)cc1
InChI=InChI=1S/C6H5ClO/c7-5-2-1-3-6(8)4-5/h1-4,8H
computed SMILES=ClC1=CC=CC(O)=C1
ion type=[M]+*
accession=JP000023
date=2016.01.19 (Created 2008.10.21, modified 2011.05.06)
author=KOGA M, UNIV. OF OCCUPATIONAL AND ENVIRONMENTAL HEALTH
license=CC BY-NC-SA
exact mass=128.00289
ionization energy=70 eV
computed spectral entropy=2.519724098532256
computed normalized entropy=0.8036130590614339
SPLASH=splash10-004i-7900000000-14ad7674ba33dd1838a4
submitter=submitter = University of Tokyo Team (Faculty of Engineering, University of Tokyo)
MoNA Rating=3.75

>  <NUM PEAKS>  (7481) 
23

>  <MASS SPECTRAL PEAKS>  (7481) 
51 2.73
53 5.61
61 4.55
62 6.96
63 19.06
64 29.67
65 43.03
66 5.38
73 6.41
74 3.12
75 3.89
92 7.11
93 5.18
94 5.66
99 7.85
100 13.63
101 3.14
102 4.52
127 16.26
128 99.99
129 10.75
130 28.84
131 2.12

$$$$

     RDKit          2D

  8  8  0  0  0  0  0  0  0  0999 V2000
   -1.3000    0.7500    0.0000 C   0  0  0  0  0  0  0  0  0  0  0  0
    0.0000    1.5000    0.0000 C   0  0  0  0  0  0  0  0  0  0  0  0
   -1.3000   -0.7500    0.0000 C   0  0  0  0  0  0  0  0  0  0  0  0
    1.3000    0.7500    0.0000 C   0  0  0  0  0  0  0  0  0  0  0  0
    0.0000   -1.5000    0.0000 C   0  0  0  0  0  0  0  0  0  0  0  0
    1.3000   -0.7500    0.0000 C   0  0  0  0  0  0  0  0  0  0  0  0
   -0.0000   -3.0000    0.0000 Cl  0  0  0  0  0  0  0  0  0  0  0  0
    2.5989   -1.5002    0.0000 O   0  0  0  0  0  0  0  0  0  0  0  0
  2  1  2  0
  3  1  1  0
  4  2  1  0
  5  3  2  0
  6  4  2  0
  6  5  1  0
  7  5  1  0
  8  6  1  0
M  END
>  <NAME>  (7482) 
2-CHLOROPHENOL

>  <SYNONYMS>  (7482) 


>  <SPECTRUM TYPE>  (7482) 
MS1

>  <INSTRUMENT TYPE>  (7482) 
EI-B

>  <INSTRUMENT>  (7482) 
VARIAN MAT-44

>  <ION MODE>  (7482) 
P

>  <INCHIKEY>  (7482) 
ISPYQTSUDJAMAB-UHFFFAOYSA-N

>  <FORMULA>  (7482) 
C6H5ClO

>  <EXACT MASS>  (7482) 
128.00289246

>  <MW>  (7482) 
128

>  <ID>  (7482) 
JP000022

>  <CONTRIBUTOR>  (7482) 
University of Tokyo Team, {Faculty of Engineering, University of Tokyo

>  <COMMENT>  (7482) 
SMILES=Oc(c1)c(Cl)ccc1
InChI=InChI=1S/C6H5ClO/c7-5-3-1-2-4-6(5)8/h1-4,8H
computed SMILES=ClC=1C=CC=CC1O
accession=JP000022
date=2016.01.19 (Created 2008.10.21, modified 2011.05.06)
author=KOGA M, UNIV. OF OCCUPATIONAL AND ENVIRONMENTAL HEALTH
license=CC BY-NC-SA
exact mass=128.00289
ionization energy=70 eV
ion type=[M]+*
computed spectral entropy=2.6369622786535403
computed normalized entropy=0.8093567050210448
SPLASH=splash10-01t9-9600000000-1d4acee3d22a14a5db15
submitter=submitter = University of Tokyo Team (Faculty of Engineering, University of Tokyo)
MoNA Rating=3.75

>  <NUM PEAKS>  (7482) 
26

>  <MASS SPECTRAL PEAKS>  (7482) 
51 4.31
53 10.98
60 3.19
61 9.55
62 16.81
63 53.6
64 76.56
65 31.54
66 4.85
72 3.89
73 9.88
74 5.43
75 5.31
91 3.99
92 21.81
93 3.28
94 2.33
99 7.59
100 9.63
101 2.9
102 3.03
127 39.38
128 99.99
129 15.53
130 31.15
131 2.31

$$$$

     RDKit          2D

  8  8  0  0  0  0  0  0  0  0999 V2000
   -2.6070    1.5036    0.0000 C   0  0  0  0  0  0  0  0  0  0  0  0
   -0.0127    1.4972    0.0000 C   0  0  0  0  0  0  0  0  0  0  0  0
   -1.3262   -0.7277    0.0000 C   0  0  0  0  0  0  0  0  0  0  0  0
    1.2718    0.7723    0.0000 C   0  0  0  0  0  0  0  0  0  0  0  0
   -0.0017   -1.5218    0.0000 C   0  0  0  0  0  0  0  0  0  0  0  0
   -1.3117    0.7472    0.0000 C   0  0  0  0  0  0  0  0  0  0  0  0
    1.2973   -0.7718    0.0000 C   0  0  0  0  0  0  0  0  0  0  0  0
    2.6025   -1.5111    0.0000 O   0  0  0  0  0  0  0  0  0  0  0  0
  4  2  2  0
  5  3  1  0
  6  1  1  0
  6  2  1  0
  6  3  2  0
  7  4  1  0
  7  5  2  0
  8  7  1  0
M  END
>  <NAME>  (7483) 
4-METHYLPHENOL

>  <SYNONYMS>  (7483) 


>  <SPECTRUM TYPE>  (7483) 
MS1

>  <INSTRUMENT TYPE>  (7483) 
EI-B

>  <INSTRUMENT>  (7483) 
VARIAN MAT-44

>  <ION MODE>  (7483) 
P

>  <INCHIKEY>  (7483) 
IWDCLRJOBJJRNH-UHFFFAOYSA-N

>  <FORMULA>  (7483) 
C7H8O

>  <EXACT MASS>  (7483) 
108.057514876

>  <MW>  (7483) 
108

>  <ID>  (7483) 
JP000021

>  <CONTRIBUTOR>  (7483) 
University of Tokyo Team, {Faculty of Engineering, University of Tokyo

>  <COMMENT>  (7483) 
SMILES=Cc(c1)ccc(O)c1
InChI=InChI=1S/C7H8O/c1-6-2-4-7(8)5-3-6/h2-5,8H,1H3
computed SMILES=OC1=CC=C(C=C1)C
accession=JP000021
date=2016.01.19 (Created 2008.10.21, modified 2011.05.06)
author=KOGA M, UNIV. OF OCCUPATIONAL AND ENVIRONMENTAL HEALTH
license=CC BY-NC-SA
exact mass=108.05751
ionization energy=70 eV
ion type=[M]+*
computed spectral entropy=2.133676120088098
computed normalized entropy=0.7246460650687806
SPLASH=splash10-0a4i-5900000000-1d2bdfde621a5af9be73
submitter=submitter = University of Tokyo Team (Faculty of Engineering, University of Tokyo)
MoNA Rating=3.75

>  <NUM PEAKS>  (7483) 
19

>  <MASS SPECTRAL PEAKS>  (7483) 
51 9.9
52 5.06
53 10.78
54 4.57
55 2.96
62 2.02
63 3.85
65 2.09
77 24.54
78 5.74
79 20.09
80 9.41
89 3.09
90 7.89
91 3.81
106 4.73
107 99.99
108 82.93
109 6.13

$$$$

     RDKit          2D

  8  8  0  0  0  0  0  0  0  0999 V2000
   -0.6520   -2.2491    0.0000 C   0  0  0  0  0  0  0  0  0  0  0  0
   -1.9467    1.4939    0.0000 C   0  0  0  0  0  0  0  0  0  0  0  0
   -1.9512    0.0017    0.0000 C   0  0  0  0  0  0  0  0  0  0  0  0
   -0.6477    2.2439    0.0000 C   0  0  0  0  0  0  0  0  0  0  0  0
    0.6473    0.0009    0.0000 C   0  0  0  0  0  0  0  0  0  0  0  0
   -0.6517   -0.7491    0.0000 C   0  0  0  0  0  0  0  0  0  0  0  0
    0.6468    1.5017    0.0000 C   0  0  0  0  0  0  0  0  0  0  0  0
    1.9446    2.2539    0.0000 O   0  0  0  0  0  0  0  0  0  0  0  0
  3  2  2  0
  4  2  1  0
  6  1  1  0
  6  3  1  0
  6  5  2  0
  7  4  2  0
  7  5  1  0
  8  7  1  0
M  END
>  <NAME>  (7484) 
3-METHYLPHENOL

>  <SYNONYMS>  (7484) 


>  <SPECTRUM TYPE>  (7484) 
MS1

>  <INSTRUMENT TYPE>  (7484) 
EI-B

>  <INSTRUMENT>  (7484) 
VARIAN MAT-44

>  <ION MODE>  (7484) 
P

>  <INCHIKEY>  (7484) 
RLSSMJSEOOYNOY-UHFFFAOYSA-N

>  <FORMULA>  (7484) 
C7H8O

>  <EXACT MASS>  (7484) 
108.057514876

>  <MW>  (7484) 
108

>  <ID>  (7484) 
JP000020

>  <CONTRIBUTOR>  (7484) 
University of Tokyo Team, {Faculty of Engineering, University of Tokyo

>  <COMMENT>  (7484) 
SMILES=Cc(c1)cc(O)cc1
InChI=InChI=1S/C7H8O/c1-6-3-2-4-7(8)5-6/h2-5,8H,1H3
computed SMILES=OC1=CC=CC(=C1)C
accession=JP000020
date=2016.01.19 (Created 2008.10.21, modified 2011.05.06)
author=KOGA M, UNIV. OF OCCUPATIONAL AND ENVIRONMENTAL HEALTH
license=CC BY-NC-SA
exact mass=108.05751
ionization energy=70 eV
ion type=[M]+*
computed spectral entropy=2.2404508876439286
computed normalized entropy=0.7478808795506839
SPLASH=splash10-0a4i-6900000000-f2082b2d78602454887c
submitter=submitter = University of Tokyo Team (Faculty of Engineering, University of Tokyo)
MoNA Rating=3.75

>  <NUM PEAKS>  (7484) 
20

>  <MASS SPECTRAL PEAKS>  (7484) 
51 10.17
52 5.37
53 11.55
54 5.21
55 2.97
62 2.64
63 5.48
65 3.6
66 2.08
77 28.04
78 6.84
79 32.64
80 12.23
89 4.79
90 11.68
91 6
106 4.68
107 96.34
108 99.99
109 7.54

$$$$

     RDKit          2D

  8  8  0  0  0  0  0  0  0  0999 V2000
    1.9489    1.5002    0.0000 C   0  0  0  0  0  0  0  0  0  0  0  0
   -1.9500    0.7500    0.0000 C   0  0  0  0  0  0  0  0  0  0  0  0
   -1.9500   -0.7500    0.0000 C   0  0  0  0  0  0  0  0  0  0  0  0
   -0.6500    1.5000    0.0000 C   0  0  0  0  0  0  0  0  0  0  0  0
   -0.6500   -1.5000    0.0000 C   0  0  0  0  0  0  0  0  0  0  0  0
    0.6500    0.7500    0.0000 C   0  0  0  0  0  0  0  0  0  0  0  0
    0.6500   -0.7500    0.0000 C   0  0  0  0  0  0  0  0  0  0  0  0
    1.9489   -1.5002    0.0000 O   0  0  0  0  0  0  0  0  0  0  0  0
  3  2  2  0
  4  2  1  0
  5  3  1  0
  6  1  1  0
  6  4  2  0
  7  5  2  0
  7  6  1  0
  8  7  1  0
M  END
>  <NAME>  (7485) 
2-METHYLPHENOL

>  <SYNONYMS>  (7485) 


>  <SPECTRUM TYPE>  (7485) 
MS1

>  <INSTRUMENT TYPE>  (7485) 
EI-B

>  <INSTRUMENT>  (7485) 
VARIAN MAT-44

>  <ION MODE>  (7485) 
P

>  <INCHIKEY>  (7485) 
QWVGKYWNOKOFNN-UHFFFAOYSA-N

>  <FORMULA>  (7485) 
C7H8O

>  <EXACT MASS>  (7485) 
108.057514876

>  <MW>  (7485) 
108

>  <ID>  (7485) 
JP000019

>  <CONTRIBUTOR>  (7485) 
University of Tokyo Team, {Faculty of Engineering, University of Tokyo

>  <COMMENT>  (7485) 
SMILES=Cc(c1)c(O)ccc1
InChI=InChI=1S/C7H8O/c1-6-4-2-3-5-7(6)8/h2-5,8H,1H3
computed SMILES=OC=1C=CC=CC1C
accession=JP000019
date=2016.01.19 (Created 2008.10.21, modified 2011.05.06)
author=KOGA M, UNIV. OF OCCUPATIONAL AND ENVIRONMENTAL HEALTH
license=CC BY-NC-SA
exact mass=108.05751
ionization energy=70 eV
ion type=[M]+*
computed spectral entropy=2.671089382080818
computed normalized entropy=0.8298205732090296
SPLASH=splash10-0a6r-9600000000-5a01d451557a1b35332a
submitter=submitter = University of Tokyo Team (Faculty of Engineering, University of Tokyo)
MoNA Rating=3.75

>  <NUM PEAKS>  (7485) 
25

>  <MASS SPECTRAL PEAKS>  (7485) 
51 28.49
52 13.74
53 22.18
54 7.3
55 4.23
61 3.07
62 6.36
63 12.41
64 3.51
65 5.21
66 2.95
74 3.3
76 7.54
77 47.19
78 17.08
79 50.2
80 21.26
81 3.51
89 16.51
90 26.06
91 7.94
106 11.4
107 93.86
108 99.99
109 7.79

$$$$

     RDKit          2D

  9  9  0  0  0  0  0  0  0  0999 V2000
   -2.5989    1.8302    0.0000 C   0  0  0  0  0  0  0  0  0  0  0  0
   -0.0000   -2.6700    0.0000 C   0  0  0  0  0  0  0  0  0  0  0  0
    0.0000    1.8300    0.0000 C   0  0  0  0  0  0  0  0  0  0  0  0
    1.3000    1.0800    0.0000 C   0  0  0  0  0  0  0  0  0  0  0  0
   -1.3000   -0.4200    0.0000 C   0  0  0  0  0  0  0  0  0  0  0  0
   -1.3000    1.0800    0.0000 C   0  0  0  0  0  0  0  0  0  0  0  0
    0.0000   -1.1700    0.0000 C   0  0  0  0  0  0  0  0  0  0  0  0
    1.3000   -0.4200    0.0000 C   0  0  0  0  0  0  0  0  0  0  0  0
    2.5989   -1.1702    0.0000 O   0  0  0  0  0  0  0  0  0  0  0  0
  4  3  2  0
  6  1  1  0
  6  3  1  0
  6  5  2  0
  7  2  1  0
  7  5  1  0
  8  4  1  0
  8  7  2  0
  9  8  1  0
M  END
>  <NAME>  (7486) 
2,4-DIMETHYLPHENOL

>  <SYNONYMS>  (7486) 


>  <SPECTRUM TYPE>  (7486) 
MS1

>  <INSTRUMENT TYPE>  (7486) 
EI-B

>  <INSTRUMENT>  (7486) 
VARIAN MAT-44

>  <ION MODE>  (7486) 
P

>  <INCHIKEY>  (7486) 
KUFFULVDNCHOFZ-UHFFFAOYSA-N

>  <FORMULA>  (7486) 
C8H10O

>  <EXACT MASS>  (7486) 
122.07316494

>  <MW>  (7486) 
122

>  <ID>  (7486) 
JP000018

>  <CONTRIBUTOR>  (7486) 
University of Tokyo Team, {Faculty of Engineering, University of Tokyo

>  <COMMENT>  (7486) 
SMILES=Cc(c1)cc(C)c(O)c1
InChI=InChI=1S/C8H10O/c1-6-3-4-8(9)7(2)5-6/h3-5,9H,1-2H3
computed SMILES=OC1=CC=C(C=C1C)C
accession=JP000018
date=2016.01.19 (Created 2008.10.21, modified 2011.05.06)
author=KOGA M, UNIV. OF OCCUPATIONAL AND ENVIRONMENTAL HEALTH
license=CC BY-NC-SA
exact mass=122.07316
ionization energy=70 eV
ion type=[M]+*
computed spectral entropy=2.8873039392279227
computed normalized entropy=0.818777297180129
SPLASH=splash10-05fr-6900000000-a95cb4f62c467e4d09c0
submitter=submitter = University of Tokyo Team (Faculty of Engineering, University of Tokyo)
MoNA Rating=3.75

>  <NUM PEAKS>  (7486) 
34

>  <MASS SPECTRAL PEAKS>  (7486) 
51 21.03
52 8.71
53 14.16
54 2.15
55 4.69
59 2.27
60 5.94
61 4.02
62 4.9
63 7.66
64 3.83
65 10.96
66 3.37
76 10.21
77 36.06
78 15.06
79 20.19
80 2.66
90 4.91
91 24
92 4.01
93 5.97
94 4.7
102 2.32
103 5.51
104 4.2
105 2.97
106 27.2
107 99.99
108 11.4
120 13.14
121 65.1
122 80.71
123 7.43

$$$$

     RDKit          2D

  9  9  0  0  0  0  0  0  0  0999 V2000
   -0.0000   -1.5002    0.0000 C   0  0  0  0  0  0  0  0  0  0  0  0
   -2.5989    3.0000    0.0000 C   0  0  0  0  0  0  0  0  0  0  0  0
   -1.3000    0.7498    0.0000 C   0  0  0  0  0  0  0  0  0  0  0  0
    1.3000    0.7498    0.0000 C   0  0  0  0  0  0  0  0  0  0  0  0
   -0.0000    2.9998    0.0000 C   0  0  0  0  0  0  0  0  0  0  0  0
   -0.0000   -0.0002    0.0000 C   0  0  0  0  0  0  0  0  0  0  0  0
   -1.3000    2.2498    0.0000 C   0  0  0  0  0  0  0  0  0  0  0  0
    1.3000    2.2498    0.0000 C   0  0  0  0  0  0  0  0  0  0  0  0
    2.5989    3.0000    0.0000 O   0  0  0  0  0  0  0  0  0  0  0  0
  6  1  1  0
  6  3  2  0
  6  4  1  0
  7  2  1  0
  7  3  1  0
  7  5  2  0
  8  4  2  0
  8  5  1  0
  9  8  1  0
M  END
>  <NAME>  (7487) 
3,5-DIMETHYLPHENOL

>  <SYNONYMS>  (7487) 


>  <SPECTRUM TYPE>  (7487) 
MS1

>  <INSTRUMENT TYPE>  (7487) 
EI-B

>  <INSTRUMENT>  (7487) 
VARIAN MAT-44

>  <ION MODE>  (7487) 
P

>  <INCHIKEY>  (7487) 
TUAMRELNJMMDMT-UHFFFAOYSA-N

>  <FORMULA>  (7487) 
C8H10O

>  <EXACT MASS>  (7487) 
122.07316494

>  <MW>  (7487) 
122

>  <ID>  (7487) 
JP000017

>  <CONTRIBUTOR>  (7487) 
University of Tokyo Team, {Faculty of Engineering, University of Tokyo

>  <COMMENT>  (7487) 
SMILES=Cc(c1)cc(O)cc(C)1
InChI=InChI=1S/C8H10O/c1-6-3-7(2)5-8(9)4-6/h3-5,9H,1-2H3
computed SMILES=OC=1C=C(C=C(C1)C)C
accession=JP000017
date=2016.01.19 (Created 2008.10.21, modified 2011.05.06)
author=KOGA M, UNIV. OF OCCUPATIONAL AND ENVIRONMENTAL HEALTH
license=CC BY-NC-SA
exact mass=122.07316
ionization energy=70 eV
ion type=[M]+*
computed spectral entropy=2.685902049167978
computed normalized entropy=0.7749875133296293
SPLASH=splash10-05fr-4900000000-75ebcb5bb55a3173e83d
submitter=submitter = University of Tokyo Team (Faculty of Engineering, University of Tokyo)
MoNA Rating=3.75

>  <NUM PEAKS>  (7487) 
32

>  <MASS SPECTRAL PEAKS>  (7487) 
51 13.34
52 5.45
53 10.56
55 4.49
59 2.57
60 5.21
61 2.6
62 2.77
63 4.2
64 2.36
65 6.87
66 2.85
67 2.58
76 5.13
77 34.17
78 10.2
79 20.67
90 3.41
91 17.33
92 2.6
93 5.4
94 3.08
103 3.62
104 2.75
105 2.6
106 23.76
107 99.99
108 8.32
120 8.13
121 55.3
122 95.27
123 8.83

$$$$

     RDKit          2D

  9  9  0  0  0  0  0  0  0  0999 V2000
    2.9928    0.9831    0.0000 C   0  0  0  0  0  0  0  0  0  0  0  0
    0.3944    2.4833    0.0000 C   0  0  0  0  0  0  0  0  0  0  0  0
    0.3937   -2.0183    0.0000 C   0  0  0  0  0  0  0  0  0  0  0  0
    1.6932   -1.2675    0.0000 C   0  0  0  0  0  0  0  0  0  0  0  0
   -0.9054   -1.2683    0.0000 C   0  0  0  0  0  0  0  0  0  0  0  0
    1.6937    0.2333    0.0000 C   0  0  0  0  0  0  0  0  0  0  0  0
    0.3946    0.9833    0.0000 C   0  0  0  0  0  0  0  0  0  0  0  0
   -0.9049    0.2325    0.0000 C   0  0  0  0  0  0  0  0  0  0  0  0
   -2.2039    0.9825    0.0000 O   0  0  0  0  0  0  0  0  0  0  0  0
  4  3  2  0
  5  3  1  0
  6  1  1  0
  6  4  1  0
  7  2  1  0
  7  6  2  0
  8  5  2  0
  8  7  1  0
  9  8  1  0
M  END
>  <NAME>  (7488) 
2,3-DIMETHYLPHENOL

>  <SYNONYMS>  (7488) 


>  <SPECTRUM TYPE>  (7488) 
MS1

>  <INSTRUMENT TYPE>  (7488) 
EI-B

>  <INSTRUMENT>  (7488) 
VARIAN MAT-44

>  <ION MODE>  (7488) 
P

>  <INCHIKEY>  (7488) 
QWBBPBRQALCEIZ-UHFFFAOYSA-N

>  <FORMULA>  (7488) 
C8H10O

>  <EXACT MASS>  (7488) 
122.07316494

>  <MW>  (7488) 
122

>  <ID>  (7488) 
JP000016

>  <CONTRIBUTOR>  (7488) 
University of Tokyo Team, {Faculty of Engineering, University of Tokyo

>  <COMMENT>  (7488) 
SMILES=Cc(c1)c(C)c(O)cc1
InChI=InChI=1S/C8H10O/c1-6-4-3-5-8(9)7(6)2/h3-5,9H,1-2H3
computed SMILES=OC1=CC=CC(=C1C)C
accession=JP000016
date=2016.01.19 (Created 2008.10.21, modified 2011.05.06)
author=KOGA M, UNIV. OF OCCUPATIONAL AND ENVIRONMENTAL HEALTH
license=CC BY-NC-SA
exact mass=122.07316
ionization energy=70 eV
ion type=[M]+*
computed spectral entropy=2.730236954449387
computed normalized entropy=0.7950632287981191
SPLASH=splash10-0adi-6900000000-3ac5300f3e71fb52e12d
submitter=submitter = University of Tokyo Team (Faculty of Engineering, University of Tokyo)
MoNA Rating=3.75

>  <NUM PEAKS>  (7488) 
31

>  <MASS SPECTRAL PEAKS>  (7488) 
51 12.91
52 4.92
53 8.31
55 3.21
60 4.8
61 2.86
62 3.03
63 5.14
64 2.25
65 7.71
66 2.24
76 5.19
77 33.89
78 14.56
79 22.68
80 2.23
90 2.31
91 19.07
92 2.93
93 5.67
94 4.88
102 2.13
103 6.96
104 4.11
105 2.52
106 14.96
107 99.99
108 7.75
120 35.03
122 66.39
123 6.35

$$$$

     RDKit          2D

  9  9  0  0  0  0  0  0  0  0999 V2000
   -2.5633    1.1076    0.0000 C   0  0  0  0  0  0  0  0  0  0  0  0
    2.6328   -1.8924    0.0000 C   0  0  0  0  0  0  0  0  0  0  0  0
   -1.2648   -1.1433    0.0000 C   0  0  0  0  0  0  0  0  0  0  0  0
    0.0342   -1.8933    0.0000 C   0  0  0  0  0  0  0  0  0  0  0  0
    0.0352    1.1084    0.0000 C   0  0  0  0  0  0  0  0  0  0  0  0
   -1.2643    0.3576    0.0000 C   0  0  0  0  0  0  0  0  0  0  0  0
    1.3338   -1.1424    0.0000 C   0  0  0  0  0  0  0  0  0  0  0  0
    1.3342    0.3584    0.0000 C   0  0  0  0  0  0  0  0  0  0  0  0
    2.6334    1.1082    0.0000 O   0  0  0  0  0  0  0  0  0  0  0  0
  4  3  2  0
  6  1  1  0
  6  3  1  0
  6  5  2  0
  7  2  1  0
  7  4  1  0
  8  5  1  0
  8  7  2  0
  9  8  1  0
M  END
>  <NAME>  (7489) 
2,5-DIMETHYLPHENOL

>  <SYNONYMS>  (7489) 


>  <SPECTRUM TYPE>  (7489) 
MS1

>  <INSTRUMENT TYPE>  (7489) 
EI-B

>  <INSTRUMENT>  (7489) 
VARIAN MAT-44

>  <ION MODE>  (7489) 
P

>  <INCHIKEY>  (7489) 
NKTOLZVEWDHZMU-UHFFFAOYSA-N

>  <FORMULA>  (7489) 
C8H10O

>  <EXACT MASS>  (7489) 
122.07316494

>  <MW>  (7489) 
122

>  <ID>  (7489) 
JP000015

>  <CONTRIBUTOR>  (7489) 
University of Tokyo Team, {Faculty of Engineering, University of Tokyo

>  <COMMENT>  (7489) 
SMILES=Cc(c1)cc(O)c(C)c1
InChI=InChI=1S/C8H10O/c1-6-3-4-7(2)8(9)5-6/h3-5,9H,1-2H3
computed SMILES=OC1=CC(=CC=C1C)C
accession=JP000015
date=2016.01.19 (Created 2008.10.21, modified 2011.05.06)
author=KOGA M, UNIV. OF OCCUPATIONAL AND ENVIRONMENTAL HEALTH
license=CC BY-NC-SA
exact mass=122.07316
ionization energy=70 eV
ion type=[M]+*
computed spectral entropy=2.7510800223619047
computed normalized entropy=0.7868079716687546
SPLASH=splash10-05i0-5900000000-0b63ea14970dee15cedb
submitter=submitter = University of Tokyo Team (Faculty of Engineering, University of Tokyo)
MoNA Rating=3.75

>  <NUM PEAKS>  (7489) 
33

>  <MASS SPECTRAL PEAKS>  (7489) 
51 14.5
52 5.42
53 9.5
55 3.07
59 2.13
60 4.85
61 2.95
62 2.76
63 4.05
64 2.68
65 6.8
66 2.25
76 6.74
77 34.37
78 14.29
79 21.66
80 2.04
90 4.62
91 19.75
92 3.48
93 6.39
94 4.21
102 2.24
103 7.47
104 6.31
105 3.24
106 17.69
107 99.99
108 7.95
120 4.36
121 45.58
122 92.34
123 8

$$$$

     RDKit          2D

  9  9  0  0  0  0  0  0  0  0999 V2000
    2.3002    1.6680    0.0000 C   0  0  0  0  0  0  0  0  0  0  0  0
    2.3002   -1.3280    0.0000 C   0  0  0  0  0  0  0  0  0  0  0  0
   -0.2900    1.6700    0.0000 C   0  0  0  0  0  0  0  0  0  0  0  0
   -1.5800    0.9200    0.0000 C   0  0  0  0  0  0  0  0  0  0  0  0
   -0.2900   -1.3300    0.0000 C   0  0  0  0  0  0  0  0  0  0  0  0
    1.0000    0.9200    0.0000 C   0  0  0  0  0  0  0  0  0  0  0  0
    1.0000   -0.5800    0.0000 C   0  0  0  0  0  0  0  0  0  0  0  0
   -1.5800   -0.5800    0.0000 C   0  0  0  0  0  0  0  0  0  0  0  0
   -2.8802   -1.3280    0.0000 O   0  0  0  0  0  0  0  0  0  0  0  0
  4  3  2  0
  6  1  1  0
  6  3  1  0
  7  2  1  0
  7  5  1  0
  7  6  2  0
  8  4  1  0
  8  5  2  0
  9  8  1  0
M  END
>  <NAME>  (7490) 
3,4-DIMETHYLPHENOL

>  <SYNONYMS>  (7490) 


>  <SPECTRUM TYPE>  (7490) 
MS1

>  <INSTRUMENT TYPE>  (7490) 
EI-B

>  <INSTRUMENT>  (7490) 
VARIAN MAT-44

>  <ION MODE>  (7490) 
P

>  <INCHIKEY>  (7490) 
YCOXTKKNXUZSKD-UHFFFAOYSA-N

>  <FORMULA>  (7490) 
C8H10O

>  <EXACT MASS>  (7490) 
122.07316494

>  <MW>  (7490) 
122

>  <ID>  (7490) 
JP000014

>  <CONTRIBUTOR>  (7490) 
University of Tokyo Team, {Faculty of Engineering, University of Tokyo

>  <COMMENT>  (7490) 
SMILES=Oc(c1)cc(C)c(C)c1
InChI=InChI=1S/C8H10O/c1-6-3-4-8(9)5-7(6)2/h3-5,9H,1-2H3
computed SMILES=OC1=CC=C(C(=C1)C)C
computed normalized entropy=0.7680394535459091
accession=JP000014
date=2016.01.19 (Created 2008.10.21, modified 2011.05.06)
author=KOGA M, UNIV. OF OCCUPATIONAL AND ENVIRONMENTAL HEALTH
license=CC BY-NC-SA
exact mass=122.07316
ionization energy=70 eV
ion type=[M]+*
computed spectral entropy=2.502346684661837
SPLASH=splash10-0ab9-4900000000-fb3dd3acd7e4d6949270
submitter=submitter = University of Tokyo Team (Faculty of Engineering, University of Tokyo)
MoNA Rating=3.75

>  <NUM PEAKS>  (7490) 
26

>  <MASS SPECTRAL PEAKS>  (7490) 
51 10.42
52 4.13
53 7.66
55 3.4
59 2.34
60 3.99
61 2.28
62 2.14
63 3.16
65 5.3
76 4.9
77 24.8
78 6.4
79 10.19
90 3.23
91 13.4
92 2.08
93 3.17
103 2.8
106 17.01
107 99.99
108 7.81
120 7.82
121 45.51
122 64.9
123 5.92

$$$$

     RDKit          2D

 10 10  0  0  0  0  0  0  0  0999 V2000
    1.3013    2.6340    0.0000 C   0  0  0  0  0  0  0  0  0  0  0  0
    0.0013    1.8740    0.0000 C   0  0  0  0  0  0  0  0  0  0  0  0
    2.6013    1.8740    0.0000 C   0  0  0  0  0  0  0  0  0  0  0  0
    1.3013   -0.3660    0.0000 C   0  0  0  0  0  0  0  0  0  0  0  0
    0.0013    0.3740    0.0000 C   0  0  0  0  0  0  0  0  0  0  0  0
    2.6013    0.3740    0.0000 C   0  0  0  0  0  0  0  0  0  0  0  0
   -1.2954   -0.3800    0.0000 N   0  0  0  0  0  0  0  0  0  0  0  0
    3.8981   -0.3800    0.0000 O   0  0  0  0  0  0  0  0  0  0  0  0
   -2.5967    0.3660    0.0000 O   0  0  0  0  0  0  0  0  0  0  0  0
   -1.2908   -1.8800    0.0000 O   0  0  0  0  0  0  0  0  0  0  0  0
  2  1  2  0
  3  1  1  0
  5  2  1  0
  5  4  2  0
  6  3  2  0
  6  4  1  0
  7  5  1  0
  8  6  1  0
  9  7  1  0
 10  7  2  0
M  CHG  2   7   1   9  -1
M  END
>  <NAME>  (7491) 
3-NITROPHENOL

>  <SYNONYMS>  (7491) 


>  <SPECTRUM TYPE>  (7491) 
MS1

>  <INSTRUMENT TYPE>  (7491) 
EI-B

>  <INSTRUMENT>  (7491) 
VARIAN MAT-44

>  <ION MODE>  (7491) 
P

>  <INCHIKEY>  (7491) 
RTZZCYNQPHTPPL-UHFFFAOYSA-N

>  <FORMULA>  (7491) 
C6H5NO3

>  <EXACT MASS>  (7491) 
139.02694302

>  <MW>  (7491) 
139

>  <ID>  (7491) 
JP000013

>  <CONTRIBUTOR>  (7491) 
University of Tokyo Team, {Faculty of Engineering, University of Tokyo

>  <COMMENT>  (7491) 
SMILES=Oc(c1)cc(cc1)[N+1]([O-1])=O
InChI=InChI=1S/C6H5NO3/c8-6-3-1-2-5(4-6)7(9)10/h1-4,8H
computed SMILES=O=N(=O)C=1C=CC=C(O)C1
accession=JP000013
date=2016.01.19 (Created 2008.10.21, modified 2011.05.06)
author=KOGA M, UNIV. OF OCCUPATIONAL AND ENVIRONMENTAL HEALTH
license=CC BY-NC-SA
exact mass=139.02694
ionization energy=70 eV
ion type=[M]+*
computed spectral entropy=3.1553570763838326
computed normalized entropy=0.8338263622155434
SPLASH=splash10-00ku-9200000000-e23f03dc5d92ae7f8a32
submitter=submitter = University of Tokyo Team (Faculty of Engineering, University of Tokyo)
MoNA Rating=3.75

>  <NUM PEAKS>  (7491) 
44

>  <MASS SPECTRAL PEAKS>  (7491) 
51 4.74
52 2.7
53 19.37
54 3.29
55 13.99
56 5.27
57 15.31
60 6.26
61 5.51
62 9.49
63 18.14
64 20.78
65 71.11
66 7.93
67 5.2
68 5.62
69 16.73
70 5.53
71 7.75
73 6.34
74 3.44
75 2.28
80 5.55
81 33.32
82 5.51
83 7.86
84 3.55
85 4.32
92 16.6
93 55.9
94 6.21
95 4.67
96 3.27
97 6.61
98 3.99
99 3.97
109 6.74
110 2.04
111 3.14
123 2.83
129 2.3
138 10.06
139 99.99
140 7.86

$$$$

     RDKit          2D

  9  9  0  0  0  0  0  0  0  0999 V2000
    2.6052   -0.7613    0.0000 C   0  0  0  0  0  0  0  0  0  0  0  0
   -2.6041   -0.8953    0.0000 C   0  0  0  0  0  0  0  0  0  0  0  0
   -0.0300    2.1400    0.0000 C   0  0  0  0  0  0  0  0  0  0  0  0
    1.2600    1.4400    0.0000 C   0  0  0  0  0  0  0  0  0  0  0  0
   -1.3200    1.4000    0.0000 C   0  0  0  0  0  0  0  0  0  0  0  0
    1.2900   -0.0400    0.0000 C   0  0  0  0  0  0  0  0  0  0  0  0
   -1.3200   -0.1200    0.0000 C   0  0  0  0  0  0  0  0  0  0  0  0
    0.0100   -0.8200    0.0000 C   0  0  0  0  0  0  0  0  0  0  0  0
    0.0571   -2.3193    0.0000 O   0  0  0  0  0  0  0  0  0  0  0  0
  4  3  2  0
  5  3  1  0
  6  1  1  0
  6  4  1  0
  7  2  1  0
  7  5  2  0
  8  6  2  0
  8  7  1  0
  9  8  1  0
M  END
>  <NAME>  (7492) 
2,6-DIMETHYLPHENOL

>  <SYNONYMS>  (7492) 


>  <SPECTRUM TYPE>  (7492) 
MS1

>  <INSTRUMENT TYPE>  (7492) 
EI-B

>  <INSTRUMENT>  (7492) 
VARIAN MAT-44

>  <ION MODE>  (7492) 
P

>  <INCHIKEY>  (7492) 
NXXYKOUNUYWIHA-UHFFFAOYSA-N

>  <FORMULA>  (7492) 
C8H10O

>  <EXACT MASS>  (7492) 
122.07316494

>  <MW>  (7492) 
122

>  <ID>  (7492) 
JP000012

>  <CONTRIBUTOR>  (7492) 
University of Tokyo Team, {Faculty of Engineering, University of Tokyo

>  <COMMENT>  (7492) 
SMILES=Cc(c1)c(O)c(C)cc1
InChI=InChI=1S/C8H10O/c1-6-4-3-5-7(2)8(6)9/h3-5,9H,1-2H3
computed SMILES=OC=1C(=CC=CC1C)C
accession=JP000012
date=2016.01.19 (Created 2008.10.21, modified 2011.05.06)
author=KOGA M, UNIV. OF OCCUPATIONAL AND ENVIRONMENTAL HEALTH
license=CC BY-NC-SA
exact mass=122.07316
ionization energy=70 eV
ion type=[M]+*
computed spectral entropy=2.9934746038316082
computed normalized entropy=0.8229288523730179
SPLASH=splash10-05i0-8900000000-6952903111c603d9229d
submitter=submitter = University of Tokyo Team (Faculty of Engineering, University of Tokyo)
MoNA Rating=3.75

>  <NUM PEAKS>  (7492) 
38

>  <MASS SPECTRAL PEAKS>  (7492) 
51 25.28
52 9.97
53 16.56
54 2.27
55 3.82
59 1.85
60 6.05
61 5.01
62 7.16
63 10.36
64 5.32
65 14.27
66 4.16
67 2.07
74 2.31
75 1.95
76 8.81
77 46.18
78 26.28
79 31.17
80 2.91
89 2.31
90 6.99
91 29.44
92 4.89
93 7.36
94 5.94
102 3.98
103 12.12
104 9.2
105 4.48
106 18.66
107 99.99
108 7.81
120 4.99
121 46.7
122 99.24
123 8.76

$$$$

     RDKit          2D

 10 10  0  0  0  0  0  0  0  0999 V2000
    2.2781    2.4402    0.0000 C   0  0  0  0  0  0  0  0  0  0  0  0
    3.5681    1.6902    0.0000 C   0  0  0  0  0  0  0  0  0  0  0  0
    0.9781    1.6902    0.0000 C   0  0  0  0  0  0  0  0  0  0  0  0
    3.5681    0.1902    0.0000 C   0  0  0  0  0  0  0  0  0  0  0  0
    0.9781    0.1902    0.0000 C   0  0  0  0  0  0  0  0  0  0  0  0
    2.2781   -0.5598    0.0000 C   0  0  0  0  0  0  0  0  0  0  0  0
   -0.3208   -0.5600    0.0000 N   0  0  0  0  0  0  0  0  0  0  0  0
    2.2806   -2.0598    0.0000 O   0  0  0  0  0  0  0  0  0  0  0  0
   -1.6200    0.1898    0.0000 O   0  0  0  0  0  0  0  0  0  0  0  0
   -0.3206   -2.0600    0.0000 O   0  0  0  0  0  0  0  0  0  0  0  0
  2  1  2  0
  3  1  1  0
  4  2  1  0
  5  3  2  0
  6  4  2  0
  6  5  1  0
  7  5  1  0
  8  6  1  0
  9  7  1  0
 10  7  2  0
M  CHG  2   7   1   9  -1
M  END
>  <NAME>  (7493) 
O-NITROPHENOL

>  <SYNONYMS>  (7493) 


>  <SPECTRUM TYPE>  (7493) 
MS1

>  <INSTRUMENT TYPE>  (7493) 
EI-B

>  <INSTRUMENT>  (7493) 
VARIAN MAT-44

>  <ION MODE>  (7493) 
P

>  <INCHIKEY>  (7493) 
IQUPABOKLQSFBK-UHFFFAOYSA-N

>  <FORMULA>  (7493) 
C6H5NO3

>  <EXACT MASS>  (7493) 
139.02694302

>  <MW>  (7493) 
139

>  <ID>  (7493) 
JP000011

>  <CONTRIBUTOR>  (7493) 
University of Tokyo Team, {Faculty of Engineering, University of Tokyo

>  <COMMENT>  (7493) 
SMILES=[O-1][N+1](=O)c(c1)c(O)ccc1
InChI=InChI=1S/C6H5NO3/c8-6-4-2-1-3-5(6)7(9)10/h1-4,8H
computed SMILES=O=N(=O)C=1C=CC=CC1O
accession=JP000011
date=2016.01.19 (Created 2008.10.21, modified 2011.05.06)
author=KOGA M, UNIV. OF OCCUPATIONAL AND ENVIRONMENTAL HEALTH
license=CC BY-NC-SA
exact mass=139.02694
ionization energy=70 eV
ion type=[M]+*
computed spectral entropy=2.882478300490772
computed normalized entropy=0.8043708851536396
SPLASH=splash10-01p9-9400000000-b0dcd6f6804e94a669df
submitter=submitter = University of Tokyo Team (Faculty of Engineering, University of Tokyo)
MoNA Rating=3.75

>  <NUM PEAKS>  (7493) 
36

>  <MASS SPECTRAL PEAKS>  (7493) 
51 15.85
52 8.42
53 28.05
54 2.29
55 2.27
60 1.06
61 5.75
62 17.29
63 45.11
64 41.62
65 51.77
66 6.47
67 1.78
73 1.15
74 2.73
75 2.38
76 1.44
77 2.77
78 5.63
79 1.16
80 8.72
81 30.38
82 1.93
91 2.46
92 11.94
93 13.15
94 6.55
106 4.18
108 3.71
109 30.58
110 2.04
122 7.2
123 1.85
138 13.61
139 99.99
140 7.57

$$$$

     RDKit          2D

 10 10  0  0  0  0  0  0  0  0999 V2000
   -1.5600    0.6000    0.0000 C   0  0  0  0  0  0  0  0  0  0  0  0
   -0.2600   -1.6500    0.0000 C   0  0  0  0  0  0  0  0  0  0  0  0
   -1.5600   -0.9000    0.0000 C   0  0  0  0  0  0  0  0  0  0  0  0
   -0.2600    1.3500    0.0000 C   0  0  0  0  0  0  0  0  0  0  0  0
    1.0400   -0.9000    0.0000 C   0  0  0  0  0  0  0  0  0  0  0  0
    1.0400    0.6000    0.0000 C   0  0  0  0  0  0  0  0  0  0  0  0
   -2.8589   -1.6502    0.0000 Cl  0  0  0  0  0  0  0  0  0  0  0  0
   -0.2600    2.8500    0.0000 Cl  0  0  0  0  0  0  0  0  0  0  0  0
    2.3389   -1.6502    0.0000 Cl  0  0  0  0  0  0  0  0  0  0  0  0
    2.3389    1.3502    0.0000 O   0  0  0  0  0  0  0  0  0  0  0  0
  3  1  2  0
  3  2  1  0
  4  1  1  0
  5  2  2  0
  6  4  2  0
  6  5  1  0
  7  3  1  0
  8  4  1  0
  9  5  1  0
 10  6  1  0
M  END
>  <NAME>  (7494) 
2,4,6-TRICHLOROPHENOL

>  <SYNONYMS>  (7494) 


>  <SPECTRUM TYPE>  (7494) 
MS1

>  <INSTRUMENT TYPE>  (7494) 
EI-B

>  <INSTRUMENT>  (7494) 
VARIAN MAT-44

>  <ION MODE>  (7494) 
P

>  <INCHIKEY>  (7494) 
LINPIYWFGCPVIE-UHFFFAOYSA-N

>  <FORMULA>  (7494) 
C6H3Cl3O

>  <EXACT MASS>  (7494) 
195.924947756

>  <MW>  (7494) 
196

>  <ID>  (7494) 
JP000010

>  <CONTRIBUTOR>  (7494) 
University of Tokyo Team, {Faculty of Engineering, University of Tokyo

>  <COMMENT>  (7494) 
SMILES=Clc(c1)cc(Cl)c(O)c(Cl)1
InChI=InChI=1S/C6H3Cl3O/c7-3-1-4(8)6(10)5(9)2-3/h1-2,10H
computed SMILES=ClC=1C=C(Cl)C(O)=C(Cl)C1
accession=JP000010
date=2016.01.19 (Created 2008.10.21, modified 2011.05.06)
author=KOGA M, UNIV. OF OCCUPATIONAL AND ENVIRONMENTAL HEALTH
license=CC BY-NC-SA
exact mass=195.92495
ionization energy=70 eV
ion type=[M]+*
computed spectral entropy=3.6163127010093783
computed normalized entropy=0.8631529144237464
SPLASH=splash10-0002-7900000000-85483ea8168873178de9
submitter=submitter = University of Tokyo Team (Faculty of Engineering, University of Tokyo)
MoNA Rating=3.75

>  <NUM PEAKS>  (7494) 
66

>  <MASS SPECTRAL PEAKS>  (7494) 
53 14.63
55 2.49
57 2.2
60 12.21
61 32.06
62 42.22
63 36.9
64 4.32
65 8.43
66 23
67 12.65
68 2.71
71 6.78
72 13.68
73 17.64
74 8.84
75 5.57
80 9.94
81 8.84
82 4.21
83 8.62
84 6.16
85 5.83
87 3.92
89 2.2
90 2.89
91 2.09
95 4.84
96 34.11
97 70.76
98 39.72
99 38.18
100 10.63
101 2.64
106 2.45
107 9.09
108 3.77
109 7.22
111 2.23
125 3.44
126 8.91
127 2.05
128 3.52
131 18.48
132 57.96
133 22.12
134 40.71
135 10.45
136 7.81
160 31.84
161 5.2
162 50.47
163 5.2
164 22.81
166 5.57
167 4.1
168 2.56
169 3.63
195 3.59
196 99.99
197 9.68
198 91.34
199 7.07
200 28.42
201 2.09
202 3.04

$$$$

     RDKit          2D

 10 10  0  0  0  0  0  0  0  0999 V2000
   -0.0005    1.5008    0.0000 C   0  0  0  0  0  0  0  0  0  0  0  0
    0.0005   -1.5008    0.0000 C   0  0  0  0  0  0  0  0  0  0  0  0
    1.2990    0.7500    0.0000 C   0  0  0  0  0  0  0  0  0  0  0  0
    1.2995   -0.7508    0.0000 C   0  0  0  0  0  0  0  0  0  0  0  0
   -1.2995    0.7508    0.0000 C   0  0  0  0  0  0  0  0  0  0  0  0
   -1.2990   -0.7500    0.0000 C   0  0  0  0  0  0  0  0  0  0  0  0
    2.5981    1.5000    0.0000 Cl  0  0  0  0  0  0  0  0  0  0  0  0
    2.5987   -1.5006    0.0000 Cl  0  0  0  0  0  0  0  0  0  0  0  0
   -2.5987    1.5006    0.0000 Cl  0  0  0  0  0  0  0  0  0  0  0  0
   -2.5981   -1.5000    0.0000 O   0  0  0  0  0  0  0  0  0  0  0  0
  3  1  2  0
  4  2  2  0
  4  3  1  0
  5  1  1  0
  6  2  1  0
  6  5  2  0
  7  3  1  0
  8  4  1  0
  9  5  1  0
 10  6  1  0
M  END
>  <NAME>  (7495) 
2,4,5-TRICHLOROPHENOL

>  <SYNONYMS>  (7495) 


>  <SPECTRUM TYPE>  (7495) 
MS1

>  <INSTRUMENT TYPE>  (7495) 
EI-B

>  <INSTRUMENT>  (7495) 
VARIAN MAT-44

>  <ION MODE>  (7495) 
P

>  <INCHIKEY>  (7495) 
LHJGJYXLEPZJPM-UHFFFAOYSA-N

>  <FORMULA>  (7495) 
C6H3Cl3O

>  <EXACT MASS>  (7495) 
195.924947756

>  <MW>  (7495) 
196

>  <ID>  (7495) 
JP000009

>  <CONTRIBUTOR>  (7495) 
University of Tokyo Team, {Faculty of Engineering, University of Tokyo

>  <COMMENT>  (7495) 
SMILES=Oc(c1)c(Cl)cc(Cl)c(Cl)1
InChI=InChI=1S/C6H3Cl3O/c7-3-1-5(9)6(10)2-4(3)8/h1-2,10H
computed SMILES=ClC=1C=C(Cl)C(O)=CC1Cl
accession=JP000009
date=2016.01.19 (Created 2008.10.21, modified 2011.05.06)
author=KOGA M, UNIV. OF OCCUPATIONAL AND ENVIRONMENTAL HEALTH
license=CC BY-NC-SA
exact mass=195.92495
ionization energy=70 eV
ion type=[M]+*
computed spectral entropy=3.572272550478909
computed normalized entropy=0.8557597365824228
SPLASH=splash10-0002-7900000000-1ad962df00ced72b9a73
submitter=submitter = University of Tokyo Team (Faculty of Engineering, University of Tokyo)
MoNA Rating=3.75

>  <NUM PEAKS>  (7495) 
65

>  <MASS SPECTRAL PEAKS>  (7495) 
51 2.58
53 14.73
59 2.03
60 12.75
61 30.62
62 36.79
63 19.11
64 2.15
65 5.23
66 13.42
67 7.46
69 2.46
71 6.55
72 13.85
73 16.02
74 7.55
75 4.47
79 2.34
80 8.06
81 5.21
82 3.22
83 7.1
84 6.05
85 6.38
86 2.53
87 3.44
89 1.93
95 3.8
96 33.63
97 67.27
98 25.02
99 31.7
100 5.86
106 2.03
107 8.66
108 3.94
109 6.55
131 12.51
132 48.06
133 32
134 33.42
135 18.37
136 6.55
137 2.96
149 6.48
151 3.39
160 10.69
161 4.76
162 10.76
163 3.58
164 3.61
167 4.06
169 3.89
177 4.76
179 2.94
192 6.69
194 4.64
195 6.79
196 99.99
197 11.45
198 92.58
199 7.82
200 29.54
201 2.08
202 3.15

$$$$

     RDKit          2D

  9  9  0  0  0  0  0  0  0  0999 V2000
    1.3000    0.7498    0.0000 C   0  0  0  0  0  0  0  0  0  0  0  0
   -1.3000    0.7498    0.0000 C   0  0  0  0  0  0  0  0  0  0  0  0
   -0.0000    2.9998    0.0000 C   0  0  0  0  0  0  0  0  0  0  0  0
   -0.0000   -0.0002    0.0000 C   0  0  0  0  0  0  0  0  0  0  0  0
    1.3000    2.2498    0.0000 C   0  0  0  0  0  0  0  0  0  0  0  0
   -1.3000    2.2498    0.0000 C   0  0  0  0  0  0  0  0  0  0  0  0
   -0.0000   -1.5002    0.0000 Cl  0  0  0  0  0  0  0  0  0  0  0  0
    2.5989    3.0000    0.0000 Cl  0  0  0  0  0  0  0  0  0  0  0  0
   -2.5989    3.0000    0.0000 O   0  0  0  0  0  0  0  0  0  0  0  0
  4  1  2  0
  4  2  1  0
  5  1  1  0
  5  3  2  0
  6  2  2  0
  6  3  1  0
  7  4  1  0
  8  5  1  0
  9  6  1  0
M  END
>  <NAME>  (7496) 
3,5-DICHLOROPHENOL

>  <SYNONYMS>  (7496) 


>  <SPECTRUM TYPE>  (7496) 
MS1

>  <INSTRUMENT TYPE>  (7496) 
EI-B

>  <INSTRUMENT>  (7496) 
VARIAN MAT-44

>  <ION MODE>  (7496) 
P

>  <INCHIKEY>  (7496) 
VPOMSPZBQMDLTM-UHFFFAOYSA-N

>  <FORMULA>  (7496) 
C6H4Cl2O

>  <EXACT MASS>  (7496) 
161.963920108

>  <MW>  (7496) 
162

>  <ID>  (7496) 
JP000008

>  <CONTRIBUTOR>  (7496) 
University of Tokyo Team, {Faculty of Engineering, University of Tokyo

>  <COMMENT>  (7496) 
SMILES=Oc(c1)cc(Cl)cc(Cl)1
InChI=InChI=1S/C6H4Cl2O/c7-4-1-5(8)3-6(9)2-4/h1-3,9H
computed SMILES=ClC=1C=C(Cl)C=C(O)C1
accession=JP000008
date=2016.01.19 (Created 2008.10.21, modified 2011.05.06)
author=KOGA M, UNIV. OF OCCUPATIONAL AND ENVIRONMENTAL HEALTH
license=CC BY-NC-SA
exact mass=161.96392
ionization energy=70 eV
ion type=[M]+*
computed spectral entropy=2.811619911355631
computed normalized entropy=0.8112620205954871
SPLASH=splash10-03di-6900000000-4af936cc228fde5d0777
submitter=submitter = University of Tokyo Team (Faculty of Engineering, University of Tokyo)
MoNA Rating=3.75

>  <NUM PEAKS>  (7496) 
32

>  <MASS SPECTRAL PEAKS>  (7496) 
51 1.24
53 4.19
60 3.61
61 8.59
62 16.38
63 31.53
64 4.94
72 4.88
73 10.01
74 4.53
75 3.92
81 6.85
82 4.37
83 2.46
97 7.3
98 27.86
99 28.43
100 10.31
101 9.88
126 8.1
127 4.51
128 3.3
133 4.08
134 6.58
135 2.96
136 4.15
161 3.31
162 99.99
163 8.57
164 60.06
165 4.43
166 9.68

$$$$

     RDKit          2D

  9  9  0  0  0  0  0  0  0  0999 V2000
   -1.5900    0.9200    0.0000 C   0  0  0  0  0  0  0  0  0  0  0  0
   -0.2900    1.6700    0.0000 C   0  0  0  0  0  0  0  0  0  0  0  0
   -0.2900   -1.3300    0.0000 C   0  0  0  0  0  0  0  0  0  0  0  0
   -1.5900   -0.5800    0.0000 C   0  0  0  0  0  0  0  0  0  0  0  0
    1.0100   -0.5800    0.0000 C   0  0  0  0  0  0  0  0  0  0  0  0
    1.0100    0.9200    0.0000 C   0  0  0  0  0  0  0  0  0  0  0  0
   -2.8889   -1.3302    0.0000 Cl  0  0  0  0  0  0  0  0  0  0  0  0
    2.3089   -1.3302    0.0000 Cl  0  0  0  0  0  0  0  0  0  0  0  0
    2.3089    1.6702    0.0000 O   0  0  0  0  0  0  0  0  0  0  0  0
  2  1  2  0
  4  1  1  0
  4  3  2  0
  5  3  1  0
  6  2  1  0
  6  5  2  0
  7  4  1  0
  8  5  1  0
  9  6  1  0
M  END
>  <NAME>  (7497) 
2,4-DICHLOROPHENOL

>  <SYNONYMS>  (7497) 


>  <SPECTRUM TYPE>  (7497) 
MS1

>  <INSTRUMENT TYPE>  (7497) 
EI-B

>  <INSTRUMENT>  (7497) 
VARIAN MAT-44

>  <ION MODE>  (7497) 
P

>  <INCHIKEY>  (7497) 
HFZWRUODUSTPEG-UHFFFAOYSA-N

>  <FORMULA>  (7497) 
C6H4Cl2O

>  <EXACT MASS>  (7497) 
161.963920108

>  <MW>  (7497) 
162

>  <ID>  (7497) 
JP000007

>  <CONTRIBUTOR>  (7497) 
University of Tokyo Team, {Faculty of Engineering, University of Tokyo

>  <COMMENT>  (7497) 
SMILES=Oc(c1)c(Cl)cc(Cl)c1
InChI=InChI=1S/C6H4Cl2O/c7-4-1-2-6(9)5(8)3-4/h1-3,9H
computed SMILES=ClC1=CC=C(O)C(Cl)=C1
accession=JP000007
date=2016.01.19 (Created 2008.10.21, modified 2011.05.06)
author=KOGA M, UNIV. OF OCCUPATIONAL AND ENVIRONMENTAL HEALTH
license=CC BY-NC-SA
exact mass=161.96392
ionization energy=70 eV
ion type=[M]+*
computed spectral entropy=2.9965202456440077
computed normalized entropy=0.8298500043856434
SPLASH=splash10-03di-9600000000-4fa477756aa23b7adcc6
submitter=submitter = University of Tokyo Team (Faculty of Engineering, University of Tokyo)
MoNA Rating=3.75

>  <NUM PEAKS>  (7497) 
37

>  <MASS SPECTRAL PEAKS>  (7497) 
51 3.07
53 12.34
60 6.21
61 19.31
62 35.08
63 99.99
64 10.24
66 2.25
71 3.05
72 10.59
73 19.52
74 8.59
75 6.44
81 6.82
82 4.45
83 2.77
84 2.03
91 2.34
96 3.78
97 31.79
98 38.03
99 21.59
100 13.06
101 4.67
125 4.82
126 20.32
127 3.76
128 7.38
133 4.02
134 2.72
135 2.64
161 19.22
162 94.19
163 15.34
164 55.32
165 5.54
166 9.19

$$$$

     RDKit          2D

  9  9  0  0  0  0  0  0  0  0999 V2000
    0.9737    1.6883    0.0000 C   0  0  0  0  0  0  0  0  0  0  0  0
    2.2732    0.9375    0.0000 C   0  0  0  0  0  0  0  0  0  0  0  0
   -0.3254    0.9383    0.0000 C   0  0  0  0  0  0  0  0  0  0  0  0
    2.2737   -0.5633    0.0000 C   0  0  0  0  0  0  0  0  0  0  0  0
   -0.3249   -0.5625    0.0000 C   0  0  0  0  0  0  0  0  0  0  0  0
    0.9746   -1.3133    0.0000 C   0  0  0  0  0  0  0  0  0  0  0  0
    3.5728   -1.3131    0.0000 Cl  0  0  0  0  0  0  0  0  0  0  0  0
    0.9744   -2.8133    0.0000 Cl  0  0  0  0  0  0  0  0  0  0  0  0
   -1.6239   -1.3125    0.0000 O   0  0  0  0  0  0  0  0  0  0  0  0
  2  1  2  0
  3  1  1  0
  4  2  1  0
  5  3  2  0
  6  4  2  0
  6  5  1  0
  7  4  1  0
  8  6  1  0
  9  5  1  0
M  END
>  <NAME>  (7498) 
2,3-DICHLOROPHENOL

>  <SYNONYMS>  (7498) 


>  <SPECTRUM TYPE>  (7498) 
MS1

>  <INSTRUMENT TYPE>  (7498) 
EI-B

>  <INSTRUMENT>  (7498) 
VARIAN MAT-44

>  <ION MODE>  (7498) 
P

>  <INCHIKEY>  (7498) 
UMPSXRYVXUPCOS-UHFFFAOYSA-N

>  <FORMULA>  (7498) 
C6H4Cl2O

>  <EXACT MASS>  (7498) 
161.963920108

>  <MW>  (7498) 
162

>  <ID>  (7498) 
JP000006

>  <CONTRIBUTOR>  (7498) 
University of Tokyo Team, {Faculty of Engineering, University of Tokyo

>  <COMMENT>  (7498) 
SMILES=Oc(c1)c(Cl)c(Cl)cc1
InChI=InChI=1S/C6H4Cl2O/c7-4-2-1-3-5(9)6(4)8/h1-3,9H
computed SMILES=ClC1=CC=CC(O)=C1Cl
accession=JP000006
date=2016.01.19 (Created 2008.10.21, modified 2011.05.06)
author=KOGA M, UNIV. OF OCCUPATIONAL AND ENVIRONMENTAL HEALTH
license=CC BY-NC-SA
exact mass=161.96392
ionization energy=70 eV
ion type=[M]+*
computed spectral entropy=3.1149910440602966
computed normalized entropy=0.8334045975660485
SPLASH=splash10-03di-9600000000-b51f95c4e14bee1d33be
submitter=submitter = University of Tokyo Team (Faculty of Engineering, University of Tokyo)
MoNA Rating=3.75

>  <NUM PEAKS>  (7498) 
42

>  <MASS SPECTRAL PEAKS>  (7498) 
51 4.43
53 10.39
60 9.21
61 24.93
62 43.19
63 99.99
64 12.57
65 4.81
66 3.39
71 3.67
72 15.34
73 25.07
74 11.84
75 8.79
81 4.78
82 3.25
83 2.63
84 3.87
85 2.49
87 5.09
89 2.21
91 6.02
96 3.11
97 12.05
98 35.88
99 22.09
100 13.5
101 6.26
107 3.33
109 2.73
125 3.11
126 59.16
127 5.61
128 19.32
133 5.33
135 2.84
161 2.52
162 68.96
163 6.51
164 51.64
165 2.9
166 7.58

$$$$

     RDKit          2D

  9  9  0  0  0  0  0  0  0  0999 V2000
    0.9737    1.6883    0.0000 C   0  0  0  0  0  0  0  0  0  0  0  0
    2.2732    0.9375    0.0000 C   0  0  0  0  0  0  0  0  0  0  0  0
   -0.3254    0.9383    0.0000 C   0  0  0  0  0  0  0  0  0  0  0  0
    2.2737   -0.5633    0.0000 C   0  0  0  0  0  0  0  0  0  0  0  0
   -0.3249   -0.5625    0.0000 C   0  0  0  0  0  0  0  0  0  0  0  0
    0.9746   -1.3133    0.0000 C   0  0  0  0  0  0  0  0  0  0  0  0
    3.5728   -1.3131    0.0000 Cl  0  0  0  0  0  0  0  0  0  0  0  0
   -1.6239   -1.3125    0.0000 Cl  0  0  0  0  0  0  0  0  0  0  0  0
    0.9744   -2.8133    0.0000 O   0  0  0  0  0  0  0  0  0  0  0  0
  2  1  2  0
  3  1  1  0
  4  2  1  0
  5  3  2  0
  6  4  2  0
  6  5  1  0
  7  4  1  0
  8  5  1  0
  9  6  1  0
M  END
>  <NAME>  (7499) 
2,6-DICHLOROPHENOL

>  <SYNONYMS>  (7499) 


>  <SPECTRUM TYPE>  (7499) 
MS1

>  <INSTRUMENT TYPE>  (7499) 
EI-B

>  <INSTRUMENT>  (7499) 
VARIAN MAT-44

>  <ION MODE>  (7499) 
P

>  <INCHIKEY>  (7499) 
HOLHYSJJBXSLMV-UHFFFAOYSA-N

>  <FORMULA>  (7499) 
C6H4Cl2O

>  <EXACT MASS>  (7499) 
161.963920108

>  <MW>  (7499) 
162

>  <ID>  (7499) 
JP000005

>  <CONTRIBUTOR>  (7499) 
University of Tokyo Team, {Faculty of Engineering, University of Tokyo

>  <COMMENT>  (7499) 
SMILES=Clc(c1)c(O)c(Cl)cc1
InChI=InChI=1S/C6H4Cl2O/c7-4-2-1-3-5(8)6(4)9/h1-3,9H
computed SMILES=ClC1=CC=CC(Cl)=C1O
accession=JP000005
date=2016.01.19 (Created 2008.10.21, modified 2011.05.06)
author=KOGA M, UNIV. OF OCCUPATIONAL AND ENVIRONMENTAL HEALTH
license=CC BY-NC-SA
exact mass=161.96392
ionization energy=70 eV
ion type=[M]+*
computed spectral entropy=2.789153411504809
computed normalized entropy=0.7976969483043252
SPLASH=splash10-03di-7900000000-7130f47067fc70db66c5
submitter=submitter = University of Tokyo Team (Faculty of Engineering, University of Tokyo)
MoNA Rating=3.75

>  <NUM PEAKS>  (7499) 
33

>  <MASS SPECTRAL PEAKS>  (7499) 
53 7.25
60 3
61 8.88
62 17.84
63 70.92
64 8.02
65 2.01
72 5.48
73 12.35
74 4.63
75 4.81
81 6.73
82 4.37
83 2.09
91 3.83
97 7.27
98 34.04
99 15.04
100 13.17
101 4.37
107 2.61
125 2.01
126 33.42
127 3.34
128 11.41
133 3.34
135 2.17
161 2.35
162 99.99
163 8.23
164 63.43
165 4.35
166 9.91

$$$$

     RDKit          2D

  9  9  0  0  0  0  0  0  0  0999 V2000
   -1.3000    0.7500    0.0000 C   0  0  0  0  0  0  0  0  0  0  0  0
    0.0000    1.5000    0.0000 C   0  0  0  0  0  0  0  0  0  0  0  0
   -0.0000   -1.5000    0.0000 C   0  0  0  0  0  0  0  0  0  0  0  0
   -1.3000   -0.7500    0.0000 C   0  0  0  0  0  0  0  0  0  0  0  0
    1.3000    0.7500    0.0000 C   0  0  0  0  0  0  0  0  0  0  0  0
    1.3000   -0.7500    0.0000 C   0  0  0  0  0  0  0  0  0  0  0  0
   -2.5989   -1.5002    0.0000 Cl  0  0  0  0  0  0  0  0  0  0  0  0
    2.5989    1.5002    0.0000 Cl  0  0  0  0  0  0  0  0  0  0  0  0
    2.5989   -1.5002    0.0000 O   0  0  0  0  0  0  0  0  0  0  0  0
  2  1  2  0
  4  1  1  0
  4  3  2  0
  5  2  1  0
  6  3  1  0
  6  5  2  0
  7  4  1  0
  8  5  1  0
  9  6  1  0
M  END
>  <NAME>  (7500) 
2,5-DICHLOROPHENOL

>  <SYNONYMS>  (7500) 


>  <SPECTRUM TYPE>  (7500) 
MS1

>  <INSTRUMENT TYPE>  (7500) 
EI-B

>  <INSTRUMENT>  (7500) 
VARIAN MAT-44

>  <ION MODE>  (7500) 
P

>  <INCHIKEY>  (7500) 
RANCECPPZPIPNO-UHFFFAOYSA-N

>  <FORMULA>  (7500) 
C6H4Cl2O

>  <EXACT MASS>  (7500) 
161.963920108

>  <MW>  (7500) 
162

>  <ID>  (7500) 
JP000004

>  <CONTRIBUTOR>  (7500) 
University of Tokyo Team, {Faculty of Engineering, University of Tokyo

>  <COMMENT>  (7500) 
SMILES=Oc(c1)c(Cl)ccc(Cl)1
InChI=InChI=1S/C6H4Cl2O/c7-4-1-2-5(8)6(9)3-4/h1-3,9H
computed SMILES=ClC1=CC=C(Cl)C(O)=C1
accession=JP000004
date=2016.01.19 (Created 2008.10.21, modified 2011.05.06)
author=KOGA M, UNIV. OF OCCUPATIONAL AND ENVIRONMENTAL HEALTH
license=CC BY-NC-SA
exact mass=161.96392
ionization energy=70 eV
ion type=[M]+*
computed spectral entropy=3.146050311320342
computed normalized entropy=0.831366980957249
SPLASH=splash10-03di-9400000000-f622342b16fe9e0caff0
submitter=submitter = University of Tokyo Team (Faculty of Engineering, University of Tokyo)
MoNA Rating=3.75

>  <NUM PEAKS>  (7500) 
44

>  <MASS SPECTRAL PEAKS>  (7500) 
51 5.05
52 2.29
53 22.87
59 3.69
60 16.58
61 33.26
62 62.1
63 99.99
64 11.61
65 2.73
66 4.11
71 2.98
72 12.03
73 32.28
74 12.69
75 11.42
81 6.65
82 4.64
83 3.82
84 3.02
85 2.81
87 2.86
89 2.17
90 2.05
91 6.28
96 3.57
97 15.64
98 39
99 33.72
100 13.84
101 10.87
126 9.01
127 3.11
128 3.25
133 6.28
134 4.28
135 4.21
136 2.59
161 11.74
162 89.04
163 12.37
164 52.89
165 4.62
166 8.78

$$$$

     RDKit          2D

  9  9  0  0  0  0  0  0  0  0999 V2000
   -1.3000    0.7500    0.0000 C   0  0  0  0  0  0  0  0  0  0  0  0
    0.0000    1.5000    0.0000 C   0  0  0  0  0  0  0  0  0  0  0  0
   -0.0000   -1.5000    0.0000 C   0  0  0  0  0  0  0  0  0  0  0  0
   -1.3000   -0.7500    0.0000 C   0  0  0  0  0  0  0  0  0  0  0  0
    1.3000    0.7500    0.0000 C   0  0  0  0  0  0  0  0  0  0  0  0
    1.3000   -0.7500    0.0000 C   0  0  0  0  0  0  0  0  0  0  0  0
    2.5989    1.5002    0.0000 Cl  0  0  0  0  0  0  0  0  0  0  0  0
    2.5989   -1.5002    0.0000 Cl  0  0  0  0  0  0  0  0  0  0  0  0
   -2.5989   -1.5002    0.0000 O   0  0  0  0  0  0  0  0  0  0  0  0
  2  1  2  0
  4  1  1  0
  4  3  2  0
  5  2  1  0
  6  3  1  0
  6  5  2  0
  7  5  1  0
  8  6  1  0
  9  4  1  0
M  END
>  <NAME>  (7501) 
3,4-DICHLOROPHENOL

>  <SYNONYMS>  (7501) 


>  <SPECTRUM TYPE>  (7501) 
MS1

>  <INSTRUMENT TYPE>  (7501) 
EI-B

>  <INSTRUMENT>  (7501) 
VARIAN MAT-44

>  <ION MODE>  (7501) 
P

>  <INCHIKEY>  (7501) 
WDNBURPWRNALGP-UHFFFAOYSA-N

>  <FORMULA>  (7501) 
C6H4Cl2O

>  <EXACT MASS>  (7501) 
161.963920108

>  <MW>  (7501) 
162

>  <ID>  (7501) 
JP000003

>  <CONTRIBUTOR>  (7501) 
University of Tokyo Team, {Faculty of Engineering, University of Tokyo

>  <COMMENT>  (7501) 
SMILES=Oc(c1)cc(Cl)c(Cl)c1
InChI=InChI=1S/C6H4Cl2O/c7-5-2-1-4(9)3-6(5)8/h1-3,9H
computed SMILES=ClC1=CC=C(O)C=C1Cl
accession=JP000003
date=2016.01.19 (Created 2008.10.21, modified 2011.05.06)
author=KOGA M, UNIV. OF OCCUPATIONAL AND ENVIRONMENTAL HEALTH
license=CC BY-NC-SA
exact mass=161.96392
ionization energy=70 eV
ion type=[M]+*
computed spectral entropy=2.9400104581014572
computed normalized entropy=0.8204255394191119
SPLASH=splash10-03di-7900000000-e1e170f3a5ca7a8cc125
submitter=submitter = University of Tokyo Team (Faculty of Engineering, University of Tokyo)
MoNA Rating=3.75

>  <NUM PEAKS>  (7501) 
36

>  <MASS SPECTRAL PEAKS>  (7501) 
51 2.25
53 6.4
60 4.13
61 9.78
62 20.36
63 32.41
64 5.58
71 2.16
72 8.31
73 13.57
74 6.23
75 5.23
81 8.28
82 5.27
83 2.81
91 2.06
97 6.25
98 25.55
99 33.74
100 9.84
101 12.32
107 2.31
109 2.08
126 7.67
127 3.67
128 2.81
133 5.09
134 7.44
135 3.61
136 4.75
161 3.6
162 99.99
163 8.7
164 62.28
165 4.54
166 9.78

$$$$

     RDKit          2D

 13 13  0  0  0  0  0  0  0  0999 V2000
   -1.3000    0.7500    0.0000 C   0  0  0  0  0  0  0  0  0  0  0  0
    0.0000    1.5000    0.0000 C   0  0  0  0  0  0  0  0  0  0  0  0
    0.0000   -1.5000    0.0000 C   0  0  0  0  0  0  0  0  0  0  0  0
   -1.3000   -0.7500    0.0000 C   0  0  0  0  0  0  0  0  0  0  0  0
    1.3000   -0.7500    0.0000 C   0  0  0  0  0  0  0  0  0  0  0  0
    1.3000    0.7500    0.0000 C   0  0  0  0  0  0  0  0  0  0  0  0
   -2.5989   -1.5002    0.0000 N   0  0  0  0  0  0  0  0  0  0  0  0
    2.5989   -1.5002    0.0000 N   0  0  0  0  0  0  0  0  0  0  0  0
    2.5989    1.5002    0.0000 O   0  0  0  0  0  0  0  0  0  0  0  0
   -3.8981   -0.7504    0.0000 O   0  0  0  0  0  0  0  0  0  0  0  0
   -2.5987   -3.0002    0.0000 O   0  0  0  0  0  0  0  0  0  0  0  0
    3.8981   -0.7504    0.0000 O   0  0  0  0  0  0  0  0  0  0  0  0
    2.5987   -3.0002    0.0000 O   0  0  0  0  0  0  0  0  0  0  0  0
  2  1  2  0
  4  1  1  0
  4  3  2  0
  5  3  1  0
  6  2  1  0
  6  5  2  0
  7  4  1  0
  8  5  1  0
  9  6  1  0
 10  7  1  0
 11  7  2  0
 12  8  1  0
 13  8  2  0
M  CHG  4   7   1   8   1  10  -1  12  -1
M  END
>  <NAME>  (7502) 
2,4-DINITROPHENOL

>  <SYNONYMS>  (7502) 


>  <SPECTRUM TYPE>  (7502) 
MS1

>  <INSTRUMENT TYPE>  (7502) 
EI-B

>  <INSTRUMENT>  (7502) 
VARIAN MAT-44

>  <ION MODE>  (7502) 
P

>  <INCHIKEY>  (7502) 
UFBJCMHMOXMLKC-UHFFFAOYSA-N

>  <FORMULA>  (7502) 
C6H4N2O5

>  <EXACT MASS>  (7502) 
184.01202122799998

>  <MW>  (7502) 
184

>  <ID>  (7502) 
JP000002

>  <CONTRIBUTOR>  (7502) 
University of Tokyo Team, {Faculty of Engineering, University of Tokyo

>  <COMMENT>  (7502) 
SMILES=[O-1][N+1](=O)c(c1)cc([N+1]([O-1])=O)c(O)c1
InChI=InChI=1S/C6H4N2O5/c9-6-2-1-4(7(10)11)3-5(6)8(12)13/h1-3,9H
computed SMILES=O=N(=O)C1=CC=C(O)C(=C1)N(=O)=O
accession=JP000002
date=2016.01.19 (Created 2008.10.21, modified 2011.05.06)
author=KOGA M, UNIV. OF OCCUPATIONAL AND ENVIRONMENTAL HEALTH
license=CC BY-NC-SA
exact mass=184.01202
ionization energy=70 eV
ion type=[M]+*
computed spectral entropy=3.5617733701724106
computed normalized entropy=0.8564254629863512
SPLASH=splash10-0w33-9300000000-b1719d21caddddc047cb
submitter=submitter = University of Tokyo Team (Faculty of Engineering, University of Tokyo)
MoNA Rating=3.75

>  <NUM PEAKS>  (7502) 
64

>  <MASS SPECTRAL PEAKS>  (7502) 
51 27.22
52 19.9
53 61.8
54 6.76
55 13.95
56 3.86
57 11.52
60 6.43
61 13.38
62 36.19
63 61.37
64 26.2
65 6.74
66 5.1
67 7.43
68 10.32
69 29.16
70 5.53
71 6.11
73 4.14
74 3.92
75 3.49
76 4.33
77 6.21
78 5.1
79 35.07
80 9.85
81 16
82 5.37
83 6.13
84 2.96
85 3
90 12.01
91 53.25
92 28.32
93 18.25
94 3.51
95 6.41
96 5.43
97 5.12
98 2.43
105 3.76
106 6.35
107 38.97
108 7.11
109 3.98
111 2.63
120 2.12
121 4.45
122 4
123 3.14
126 2.12
136 2.77
137 3.14
138 3.55
149 4.12
153 4.02
154 39.3
155 3.16
168 3.29
183 3.26
184 99.99
185 8.17
186 1.34

$$$$

     RDKit          2D

 19 22  0  0  0  0  0  0  0  0999 V2000
   -3.2500   -1.8800    0.0000 C   0  0  0  0  0  0  0  0  0  0  0  0
   -1.9500   -2.6200    0.0000 C   0  0  0  0  0  0  0  0  0  0  0  0
   -3.2500   -0.3800    0.0000 C   0  0  0  0  0  0  0  0  0  0  0  0
    0.6500   -2.6200    0.0000 C   0  0  0  0  0  0  0  0  0  0  0  0
    1.9500   -1.8800    0.0000 C   0  0  0  0  0  0  0  0  0  0  0  0
   -1.9500    1.8800    0.0000 C   0  0  0  0  0  0  0  0  0  0  0  0
    3.2500    0.3800    0.0000 C   0  0  0  0  0  0  0  0  0  0  0  0
   -0.6500    2.6200    0.0000 C   0  0  0  0  0  0  0  0  0  0  0  0
    3.2500    1.8800    0.0000 C   0  0  0  0  0  0  0  0  0  0  0  0
   -0.6500   -1.8800    0.0000 C   0  0  0  0  0  0  0  0  0  0  0  0
   -1.9500    0.3800    0.0000 C   0  0  0  0  0  0  0  0  0  0  0  0
    1.9500   -0.3800    0.0000 C   0  0  0  0  0  0  0  0  0  0  0  0
    0.6500    1.8800    0.0000 C   0  0  0  0  0  0  0  0  0  0  0  0
    1.9500    2.6200    0.0000 C   0  0  0  0  0  0  0  0  0  0  0  0
   -0.6500   -0.3800    0.0000 C   0  0  0  0  0  0  0  0  0  0  0  0
    0.6500    0.3800    0.0000 C   0  0  0  0  0  0  0  0  0  0  0  0
    1.9500    4.1200    0.0000 N   0  0  0  0  0  0  0  0  0  0  0  0
    3.2490    4.8700    0.0000 O   0  0  0  0  0  0  0  0  0  0  0  0
    0.6510    4.8700    0.0000 O   0  0  0  0  0  0  0  0  0  0  0  0
  2  1  2  0
  3  1  1  0
  5  4  1  0
  8  6  2  0
  9  7  2  0
 10  2  1  0
 10  4  2  0
 11  3  2  0
 11  6  1  0
 12  5  2  0
 12  7  1  0
 13  8  1  0
 14  9  1  0
 14 13  2  0
 15 10  1  0
 15 11  1  0
 16 12  1  0
 16 13  1  0
 16 15  2  0
 17 14  1  0
 18 17  1  0
 19 17  2  0
M  CHG  2  17   1  18  -1
M  END
>  <NAME>  (7503) 
1-NITROPYRENE

>  <SYNONYMS>  (7503) 


>  <SPECTRUM TYPE>  (7503) 
MS1

>  <INSTRUMENT TYPE>  (7503) 
EI-B

>  <INSTRUMENT>  (7503) 
VARIAN MAT-44

>  <ION MODE>  (7503) 
P

>  <INCHIKEY>  (7503) 
ALRLPDGCPYIVHP-UHFFFAOYSA-N

>  <FORMULA>  (7503) 
C16H9NO2

>  <EXACT MASS>  (7503) 
247.063328528

>  <MW>  (7503) 
247

>  <ID>  (7503) 
JP000001

>  <CONTRIBUTOR>  (7503) 
University of Tokyo Team, {Faculty of Engineering, University of Tokyo

>  <COMMENT>  (7503) 
SMILES=[O-1][N+1](=O)c(c4)c(c1)c(c3c4)c(c2cc3)c(ccc2)c1
InChI=InChI=1S/C16H9NO2/c18-17(19)14-9-7-12-5-4-10-2-1-3-11-6-8-13(14)16(12)15(10)11/h1-9H
computed SMILES=O=N(=O)C1=CC=C2C=CC3=CC=CC=4C=CC1=C2C34
accession=JP000001
date=2016.01.19 (Created 2008.10.21, modified 2011.05.06)
author=KOGA M, UNIV. OF OCCUPATIONAL AND ENVIRONMENTAL HEALTH
license=CC BY-NC-SA
exact mass=247.06333
ionization energy=70 eV
ion type=[M]+*
computed spectral entropy=3.362470501356798
computed normalized entropy=0.7788024918504549
SPLASH=splash10-0udj-7790000000-5839a7971f0d731a8df6
submitter=submitter = University of Tokyo Team (Faculty of Engineering, University of Tokyo)
MoNA Rating=3.75

>  <NUM PEAKS>  (7503) 
75

>  <MASS SPECTRAL PEAKS>  (7503) 
51 2.66
55 8
57 7.33
58 1.33
59 1.33
60 14
61 1.33
62 3.33
63 3.33
66 1.33
68 8.66
70 2
72 5.33
73 7.33
74 3.33
75 2.66
76 2
78 1.33
80 4
81 2
82 1.33
83 3.33
86 12.66
87 8.66
92 2
93 10
94 6
98 14.66
99 83.33
100 60.66
104 4
107 1.33
108 1.33
110 3.33
112 1.33
113 1.33
115 1.33
116 1.33
120 1.33
122 4
123 2.66
124 2.66
125 2
126 1.33
134 1.33
135 2
137 1.33
147 1.33
149 2
150 4.66
151 3.33
159 2
162 2
163 2.66
173 2
174 8.66
175 4.66
177 2
187 5.33
188 4.66
189 56.66
190 12
191 16.66
198 10.66
199 9.33
200 72.66
201 99.99
202 16
203 1.33
207 1.33
214 1.33
217 25.33
218 5.33
247 52.66
248 10.16

$$$$
